
#######################################################################
#
#                 Cambridge Crystallographic Data Centre
#                                CCDC 
#
#######################################################################
#
# If this CIF has been generated from an entry in the Cambridge 
# Structural Database, then it will include bibliographic, chemical, 
# crystal, experimental, refinement or atomic coordinate data resulting 
# from the CCDC's data processing and validation procedures.
#
#######################################################################

data_SAQGUM
_symmetry_cell_setting           triclinic
_symmetry_space_group_name_H-M   'P -1'
_symmetry_Int_Tables_number      2
_space_group_name_Hall           '-P 1'
loop_
_symmetry_equiv_pos_site_id
_symmetry_equiv_pos_as_xyz
1 x,y,z
2 -x,-y,-z
_cell_length_a                   9.896(2)
_cell_length_b                   10.256(3)
_cell_length_c                   14.447(2)
_cell_angle_alpha                82.64(2)
_cell_angle_beta                 92.40(1)
_cell_angle_gamma                109.07(2)
_cell_volume                     1374.39
loop_
_atom_site_label
_atom_site_type_symbol
_atom_site_fract_x
_atom_site_fract_y
_atom_site_fract_z
Mn1 Mn 0.00000 0.00000 0.00000
N1 N 0.18928(15) 0.11587(15) -0.05871(10)
N2 N -0.08637(16) -0.02488(15) -0.12744(11)
C1 C 0.31663(19) 0.17015(19) -0.01263(13)
C2 C 0.33650(20) 0.16104(19) 0.08354(13)
C3 C -0.22680(19) -0.09557(19) -0.14800(13)
C4 C -0.24510(20) -0.08910(20) -0.24697(14)
H1 H -0.33090 -0.13120 -0.27920
C5 C -0.11850(20) -0.01250(20) -0.28608(14)
H2 H -0.09900 0.01020 -0.35110
C6 C -0.01850(20) 0.02881(19) -0.21240(13)
C7 C 0.12360(20) 0.11250(20) -0.22576(14)
C8 C 0.21960(20) 0.15064(19) -0.15263(13)
C9 C 0.36820(20) 0.22780(20) -0.16473(14)
H3 H 0.41650 0.26430 -0.22260
C10 C 0.42720(20) 0.23940(20) -0.07948(14)
H4 H 0.52480 0.28520 -0.06610
C11 C 0.48514(19) 0.22310(20) 0.12004(13)
C12 C 0.56700(20) 0.13920(20) 0.14873(16)
H5 H 0.52820 0.04220 0.14500
C13 C 0.70460(20) 0.19310(20) 0.18295(16)
H6 H 0.75910 0.13350 0.20260
C14 C 0.76170(20) 0.33370(20) 0.18826(14)
O1 O 0.89621(14) 0.39901(16) 0.22111(11)
C15 C 0.98390(20) 0.31520(30) 0.24980(17)
H7 H 1.07880 0.37460 0.26700
H8 H 0.99290 0.26480 0.19840
H9 H 0.94020 0.24860 0.30380
C16 C 0.68210(20) 0.41920(20) 0.15903(15)
H10 H 0.72150 0.51630 0.16210
C17 C 0.54520(20) 0.36430(20) 0.12526(15)
H11 H 0.49140 0.42440 0.10530
C18 C 0.17680(20) 0.16390(20) -0.32352(14)
C19 C 0.18770(20) 0.07240(20) -0.38420(15)
H12 H 0.16150 -0.02400 -0.36270
C20 C 0.23540(20) 0.11850(20) -0.47434(15)
H13 H 0.24170 0.05400 -0.51430
C21 C 0.27430(20) 0.25890(20) -0.50701(14)
O2 O 0.32072(19) 0.29337(17) -0.59727(10)
C22 C 0.36540(30) 0.43500(30) -0.63479(16)
H14 H 0.28700 0.47260 -0.63050
H15 H 0.39230 0.44360 -0.70040
H16 H 0.44790 0.48700 -0.59960
C23 C 0.26480(20) 0.35190(20) -0.44857(14)
H17 H 0.29120 0.44830 -0.47030
C24 C 0.21630(20) 0.30350(20) -0.35755(14)
H18 H 0.21020 0.36810 -0.31760
N3 N -0.06000(18) 0.19790(18) -0.00264(12)
C25 C -0.06150(20) 0.31020(20) -0.01131(14)
C26 C -0.0579(20) 0.44934(19) -0.01884(14)
C27 C -0.17140(20) 0.48470(20) -0.06484(15)
N4 N -0.26250(20) 0.51570(20) -0.10293(15)
C3A C 0.22680(19) 0.09557(19) 0.14800(13)
N2A N 0.08637(16) 0.02488(15) 0.12744(11)
N1A N -0.18928(15) -0.11587(15) 0.05871(10)
C1A C -0.31663(19) -0.17015(19) 0.01263(13)
C2A C -0.33650(20) -0.16104(19) -0.08354(13)
C26A C 0.0579(20) 0.55066(19) 0.01884(14)
C25A C 0.06150(20) 0.68980(20) 0.01131(14)
N3A N 0.06000(18) 0.80210(18) 0.00264(12)
Mn1A Mn 0.00000 1.00000 0.00000
C27A C 0.17140(20) 0.51530(20) 0.06484(15)
N4A N 0.26250(20) 0.48430(20) 0.10293(15)
N3A_2 N 0.06000(18) -0.19790(18) 0.00264(12)
C11A C -0.48514(19) -0.22310(20) -0.12004(13)
C12A C -0.56700(20) -0.13920(20) -0.14873(16)
H5A H -0.52820 -0.04220 -0.14500
C13A C -0.70460(20) -0.19310(20) -0.18295(16)
H6A H -0.75910 -0.13350 -0.20260
C14A C -0.76170(20) -0.33370(20) -0.18826(14)
O1A O -0.89621(14) -0.39901(16) -0.22111(11)
C15A C -0.98390(20) -0.31520(30) -0.24980(17)
H7A H -1.07880 -0.37460 -0.26700
H8A H -0.99290 -0.26480 -0.19840
H9A H -0.94020 -0.24860 -0.30380
C16A C -0.68210(20) -0.41920(20) -0.15903(15)
H10A H -0.72150 -0.51630 -0.16210
C17A C -0.54520(20) -0.36430(20) -0.12526(15)
H11A H -0.49140 -0.42440 -0.10530
C10A C -0.42720(20) -0.23940(20) 0.07948(14)
C9A C -0.36820(20) -0.22780(20) 0.16473(14)
C8A C -0.21960(20) -0.15064(19) 0.15263(13)
C7A C -0.12360(20) -0.11250(20) 0.22576(14)
C6A C 0.01850(20) -0.02881(19) 0.21240(13)
C5A C 0.11850(20) 0.01250(20) 0.28608(14)
C4A C 0.24510(20) 0.08910(20) 0.24697(14)
H1A H 0.33090 0.13120 0.27920
H2A H 0.09900 -0.01020 0.35110
C18A C -0.17680(20) -0.16390(20) 0.32352(14)
C19A C -0.18770(20) -0.07240(20) 0.38420(15)
H12A H -0.16150 0.02400 0.36270
C20A C -0.23540(20) -0.11850(20) 0.47434(15)
H13A H -0.24170 -0.05400 0.51430
C21A C -0.27430(20) -0.25890(20) 0.50701(14)
O2A O -0.32072(19) -0.29337(17) 0.59727(10)
C22A C -0.36540(30) -0.43500(30) 0.63479(16)
H14A H -0.28700 -0.47260 0.63050
H15A H -0.39230 -0.44360 0.70040
H16A H -0.44790 -0.48700 0.59960
C23A C -0.26480(20) -0.35190(20) 0.44857(14)
H17A H -0.29120 -0.44830 0.47030
C24A C -0.21630(20) -0.30350(20) 0.35755(14)
H18A H -0.21020 -0.36810 0.31760
H3A H -0.41650 -0.26430 0.22260
H4A H -0.52480 -0.28520 0.06610
C28 C 0.74470(30) 0.25680(30) 0.65010(20)
C29 C 0.86400(40) 0.31920(50) 0.59460(40)
H19 H 0.95270 0.36330 0.62310
C30 C 0.85870(40) 0.31960(40) 0.50010(30)
H20 H 0.94340 0.36240 0.46420
C31 C 0.73230(50) 0.25880(50) 0.45650(20)
H21 H 0.72790 0.26090 0.39060
C32 C 0.61250(40) 0.19480(40) 0.51000(30)
H22 H 0.52420 0.15080 0.48100
C33 C 0.61870(60) 0.19370(50) 0.60590(50)
H23 H 0.53450 0.14860 0.64190
C34 C 0.75330(70) 0.25950(60) 0.75380(30)
H24 H 0.85380 0.29500 0.77260
H25 H 0.70960 0.16510 0.78520
H26 H 0.70230 0.32000 0.77120
C35? C 0.7670(30) 0.2760(30) 0.5529(13)
C36? C 0.6350(30) 0.1930(40) 0.5880(15)
H27? H 0.56190 0.15110 0.54580
C37? C 0.6050(20) 0.1700(40) 0.6811(16)
H28? H 0.51310 0.11200 0.70270
C38? C 0.7070(30) 0.2290(40) 0.7438(15)
H29? H 0.68750 0.21220 0.80880
C39? C 0.8390(20) 0.3140(30) 0.7109(13)
H30? H 0.90910 0.35910 0.75320
C40? C 0.8690(30) 0.3330(60) 0.6167(16)
H31? H 0.96290 0.38670 0.59550
C41? C 0.7930(30) 0.3050(30) 0.4498(14)
H32? H 0.89580 0.33170 0.43780
H33? H 0.75760 0.38060 0.42350
H34? H 0.74270 0.22110 0.42060
C42? C 0.7010(30) 0.2420(30) 0.5369(14)
C43? C 0.6200(30) 0.1880(30) 0.6170(14)
H35? H 0.52410 0.12950 0.61150
C44? C 0.6740(30) 0.2140(30) 0.7035(14)
H36? H 0.61570 0.17360 0.75700
C45? C 0.8120(40) 0.2990(70) 0.7141(16)
H37? H 0.84840 0.32000 0.77410
C46? C 0.8950(30) 0.3520(50) 0.6362(16)
H38? H 0.99190 0.40850 0.64240
C47? C 0.8400(30) 0.3240(40) 0.5486(15)
H39? H 0.90000 0.36200 0.49540
C48? C 0.6380(40) 0.2110(50) 0.4429(16)
H40? H 0.71360 0.24650 0.39550
H41? H 0.56540 0.25690 0.42820
H42? H 0.59390 0.11080 0.44330
loop_
_geom_bond_atom_site_label_1
_geom_bond_atom_site_label_2
_geom_bond_site_symmetry_1
_geom_bond_site_symmetry_2
Mn1 N1 1_555 1_555
N1 C1 1_555 1_555
N2 Mn1 1_555 1_555
C1 C2 1_555 1_555
C2 C11 1_555 1_555
C3 N2 1_555 1_555
C4 C3 1_555 1_555
H1 C4 1_555 1_555
C5 C4 1_555 1_555
H2 C5 1_555 1_555
C6 N2 1_555 1_555
C7 C6 1_555 1_555
C8 N1 1_555 1_555
C9 C8 1_555 1_555
H3 C9 1_555 1_555
C10 C1 1_555 1_555
H4 C10 1_555 1_555
C11 C12 1_555 1_555
C12 H5 1_555 1_555
C13 C12 1_555 1_555
H6 C13 1_555 1_555
C14 C13 1_555 1_555
O1 C14 1_555 1_555
C15 O1 1_555 1_555
H7 C15 1_555 1_555
H8 C15 1_555 1_555
H9 C15 1_555 1_555
C16 C14 1_555 1_555
H10 C16 1_555 1_555
C17 C11 1_555 1_555
H11 C17 1_555 1_555
C18 C7 1_555 1_555
C19 C18 1_555 1_555
H12 C19 1_555 1_555
C20 C19 1_555 1_555
H13 C20 1_555 1_555
C21 C20 1_555 1_555
O2 C21 1_555 1_555
C22 O2 1_555 1_555
H14 C22 1_555 1_555
H15 C22 1_555 1_555
H16 C22 1_555 1_555
C23 C21 1_555 1_555
H17 C23 1_555 1_555
C24 C18 1_555 1_555
H18 C24 1_555 1_555
N3 Mn1 1_555 1_555
C25 N3 1_555 1_555
C26 C25 1_555 1_555
C27 C26 1_555 1_555
N4 C27 1_555 1_555
C28 C29 1_555 1_555
C29 H19 1_555 1_555
C30 C29 1_555 1_555
H20 C30 1_555 1_555
C31 C30 1_555 1_555
H21 C31 1_555 1_555
C32 C31 1_555 1_555
H22 C32 1_555 1_555
C33 C28 1_555 1_555
H23 C33 1_555 1_555
C34 C28 1_555 1_555
H24 C34 1_555 1_555
H25 C34 1_555 1_555
H26 C34 1_555 1_555
C3A C2 1_555 1_555
N2A Mn1 1_555 1_555
N1A Mn1 1_555 1_555
C1A N1A 1_555 1_555
C2A C3 1_555 1_555
C26A C26 1_555 1_555
C25A C26A 1_555 1_555
N3A C25A 1_555 1_555
Mn1A N3A 1_555 1_555
C27A C26A 1_555 1_555
N4A C27A 1_555 1_555
N3A_2 Mn1 1_555 1_555
C11A C2A 1_555 1_555
C12A C11A 1_555 1_555
H5A C12A 1_555 1_555
C13A C12A 1_555 1_555
H6A C13A 1_555 1_555
C14A C13A 1_555 1_555
O1A C14A 1_555 1_555
C15A O1A 1_555 1_555
H7A C15A 1_555 1_555
H8A C15A 1_555 1_555
H9A C15A 1_555 1_555
C16A C14A 1_555 1_555
H10A C16A 1_555 1_555
C17A C11A 1_555 1_555
H11A C17A 1_555 1_555
C10A C1A 1_555 1_555
C9A C10A 1_555 1_555
C8A N1A 1_555 1_555
C7A C8A 1_555 1_555
C6A N2A 1_555 1_555
C5A C6A 1_555 1_555
C4A C3A 1_555 1_555
H1A C4A 1_555 1_555
H2A C5A 1_555 1_555
C18A C7A 1_555 1_555
C19A C18A 1_555 1_555
H12A C19A 1_555 1_555
C20A C19A 1_555 1_555
H13A C20A 1_555 1_555
C21A C20A 1_555 1_555
O2A C21A 1_555 1_555
C22A O2A 1_555 1_555
H14A C22A 1_555 1_555
H15A C22A 1_555 1_555
H16A C22A 1_555 1_555
C23A C21A 1_555 1_555
H17A C23A 1_555 1_555
C24A C18A 1_555 1_555
H18A C24A 1_555 1_555
H3A C9A 1_555 1_555
H4A C10A 1_555 1_555
C5 C6 1_555 1_555
C7 C8 1_555 1_555
C9 C10 1_555 1_555
C16 C17 1_555 1_555
C23 C24 1_555 1_555
C32 C33 1_555 1_555
C3A N2A 1_555 1_555
C1A C2A 1_555 1_555
C16A C17A 1_555 1_555
C9A C8A 1_555 1_555
C7A C6A 1_555 1_555
C5A C4A 1_555 1_555
C23A C24A 1_555 1_555

#END
