
#######################################################################
#
#                 Cambridge Crystallographic Data Centre
#                                CCDC 
#
#######################################################################
#
# If this CIF has been generated from an entry in the Cambridge 
# Structural Database, then it will include bibliographic, chemical, 
# crystal, experimental, refinement or atomic coordinate data resulting 
# from the CCDC's data processing and validation procedures.
#
#######################################################################

data_SAQHOI
_symmetry_cell_setting           triclinic
_symmetry_space_group_name_H-M   'P -1'
_symmetry_Int_Tables_number      2
_space_group_name_Hall           '-P 1'
loop_
_symmetry_equiv_pos_site_id
_symmetry_equiv_pos_as_xyz
1 x,y,z
2 -x,-y,-z
_cell_length_a                   11.643(6)
_cell_length_b                   11.702(6)
_cell_length_c                   17.890(9)
_cell_angle_alpha                72.939(11)
_cell_angle_beta                 74.285(9)
_cell_angle_gamma                70.911(19)
_cell_volume                     2160.39
loop_
_atom_site_label
_atom_site_type_symbol
_atom_site_fract_x
_atom_site_fract_y
_atom_site_fract_z
Mn1 Mn 0.54580(14) 0.12057(17) 0.48705(10)
Mn2 Mn 0.56051(15) -0.08337(18) 0.65522(10)
Mn3 Mn 0.61957(13) 0.04435(17) 0.99436(10)
Mn4 Mn 0.58965(14) -0.05166(18) 0.84515(10)
Cl1 Cl 0.4976(3) -0.1816(3) 0.79576(17)
Cl2 Cl 0.6844(2) 0.0157(3) 0.70589(17)
O1 O 0.4893(6) 0.1081(8) 0.5962(5)
C1 C 0.4242(11) 0.2197(13) 0.6256(9)
C2 C 0.3984(11) 0.3252(14) 0.5570(9)
C3 C 0.3236(14) 0.4405(15) 0.5656(11)
C4 C 0.3086(16) 0.5336(16) 0.4970(13)
C5 C 0.3691(14) 0.5117(15) 0.4195(12)
C6 C 0.4387(12) 0.3943(14) 0.4166(10)
N1 N 0.4527(8) 0.3030(10) 0.4829(7)
O2 O 0.5814(6) 0.1334(8) 0.3770(5)
C7 C 0.6980(9) 0.1446(13) 0.3300(7)
C8 C 0.7814(10) 0.1492(11) 0.3795(7)
C9 C 0.9035(10) 0.1501(12) 0.3480(7)
C10 C 0.9746(10) 0.1527(13) 0.3968(7)
C11 C 0.9252(10) 0.1533(12) 0.4762(8)
C12 C 0.8012(10) 0.1529(12) 0.5024(8)
N2 N 0.7319(8) 0.1521(9) 0.4544(6)
O3 O 0.3855(6) 0.0615(7) 0.4775(4)
C13 C 0.2637(8) 0.1289(10) 0.5072(6)
C14 C 0.2197(9) 0.2414(11) 0.4445(7)
C15 C 0.1130(10) 0.3373(12) 0.4653(8)
C16 C 0.0711(12) 0.4342(13) 0.4052(9)
C17 C 0.1342(13) 0.4380(13) 0.3272(8)
C18 C 0.2366(14) 0.3426(15) 0.3107(8)
N3 N 0.2787(8) 0.2445(9) 0.3689(5)
O4 O 0.6396(6) 0.0834(7) 0.8833(5)
C19 C 0.6488(10) 0.2047(12) 0.8371(7)
C20 C 0.6533(9) 0.2846(13) 0.8886(8)
C21 C 0.6548(10) 0.4088(12) 0.8563(8)
C22 C 0.6525(11) 0.4733(14) 0.9083(8)
C23 C 0.6523(10) 0.4213(12) 0.9880(8)
C24 C 0.6516(9) 0.2984(11) 1.0145(7)
N4 N 0.6521(7) 0.2297(9) 0.9659(5)
O5 O 0.3977(6) 0.0177(8) 0.8954(4)
C25 C 0.2905(9) 0.0858(13) 0.8615(7)
C26 C 0.1815(10) 0.1110(13) 0.9266(9)
C27 C 0.0672(11) 0.1854(14) 0.9104(9)
C28 C -0.0299(13) 0.1997(19) 0.9759(12)
C29 C -0.0131(11) 0.1351(16) 1.0516(11)
C30 C 0.1050(10) 0.0613(13) 1.0614(8)
N5 N 0.2006(7) 0.0515(10) 0.9996(6)
O6 O 0.5608(6) -0.1135(7) 0.9785(4)
C31 C 0.6323(9) -0.2352(11) 1.0094(7)
C32 C 0.7419(9) -0.2770(11) 0.9495(7)
C33 C 0.8336(9) -0.3864(13) 0.9697(8)
C34 C 0.9353(11) -0.4252(14) 0.9115(9)
C35 C 0.9440(10) -0.3555(13) 0.8366(8)
C36 C 0.8497(10) -0.2498(13) 0.8205(7)
N6 N 0.7530(7) -0.2124(9) 0.8748(5)
H1 H 0.4755 0.2356 0.6555
H2 H 0.3456 0.2096 0.6621
H3 H 0.2833 0.4561 0.6168
H4 H 0.2569 0.6139 0.5017
H5 H 0.3610 0.5758 0.3726
H6 H 0.4791 0.3756 0.3661
H7 H 0.6861 0.2211 0.2872
H8 H 0.7376 0.0730 0.3045
H9 H 0.9374 0.1490 0.2935
H10 H 1.0585 0.1541 0.3760
H11 H 0.9734 0.1539 0.5112
H12 H 0.7646 0.1533 0.5567
H13 H 0.2633 0.1549 0.5552
H14 H 0.2069 0.0752 0.5225
H15 H 0.0719 0.3344 0.5193
H16 H -0.0012 0.4985 0.4170
H17 H 0.1071 0.5059 0.2855
H18 H 0.2792 0.3451 0.2571
H19 H 0.5765 0.2458 0.8107
H20 H 0.7245 0.1961 0.7951
H21 H 0.6572 0.4453 0.8011
H22 H 0.6510 0.5585 0.8890
H23 H 0.6527 0.4681 1.0232
H24 H 0.6507 0.2607 1.0694
H25 H 0.3032 0.1651 0.8259
H26 H 0.2761 0.0374 0.8296
H27 H 0.0554 0.2248 0.8575
H28 H -0.1084 0.2547 0.9680
H29 H -0.0801 0.1408 1.0959
H30 H 0.1184 0.0165 1.1134
H31 H 0.6592 -0.2352 1.0573
H32 H 0.5803 -0.2938 1.0254
H33 H 0.8268 -0.4344 1.0229
H34 H 0.9976 -0.4999 0.9246
H35 H 1.0131 -0.3786 0.7960
H36 H 0.8544 -0.2012 0.7674
Mn1A Mn 0.45420(14) -0.12057(17) 0.51295(10)
Mn2A Mn 0.43949(15) 0.08337(18) 0.34478(10)
Mn3A Mn 0.38043(13) -0.04435(17) 1.00564(10)
O2A O 0.4186(6) -0.1334(8) 0.6230(5)
O3A O 0.6145(6) -0.0615(7) 0.5225(4)
N3A N 0.7213(8) -0.2445(9) 0.6311(5)
O5A O 0.6023(6) -0.0177(8) 1.1046(4)
N5A N 0.7994(7) -0.0515(10) 1.0004(6)
O6A O 0.4392(6) 0.1135(7) 1.0215(4)
Cl3 Cl 0.9814(3) 0.8165(4) 0.2897(2)
O7 O 1.0755(8) 0.7465(12) 0.2415(7)
O8 O 1.0166(12) 0.8245(14) 0.3559(7)
O9 O 0.8855(13) 0.759(2) 0.3170(9)
O10 O 0.9423(19) 0.9356(14) 0.2423(8)
Cl4 Cl 0.3089(3) 0.4774(4) 0.7844(2)
O11 O 0.2482(8) 0.5730(9) 0.7246(6)
O12 O 0.3306(14) 0.5184(15) 0.8408(8)
O13 O 0.2216(13) 0.4067(13) 0.8299(7)
O14 O 0.4112(13) 0.410(2) 0.7462(8)
loop_
_geom_bond_atom_site_label_1
_geom_bond_atom_site_label_2
_geom_bond_site_symmetry_1
_geom_bond_site_symmetry_2
Mn1 O1 1_555 1_555
Mn2 Cl1 1_555 1_555
Mn3 O4 1_555 1_555
Mn4 Cl1 1_555 1_555
Cl2 Mn2 1_555 1_555
O1 Mn2 1_555 1_555
C1 O1 1_555 1_555
C2 C1 1_555 1_555
C3 C2 1_555 1_555
C4 C3 1_555 1_555
C5 C4 1_555 1_555
C6 C5 1_555 1_555
N1 Mn1 1_555 1_555
O2 Mn1 1_555 1_555
C7 O2 1_555 1_555
C8 C7 1_555 1_555
C9 C8 1_555 1_555
C10 C9 1_555 1_555
C11 C10 1_555 1_555
C12 C11 1_555 1_555
N2 Mn1 1_555 1_555
O3 Mn1 1_555 1_555
C13 O3 1_555 1_555
C14 C13 1_555 1_555
C15 C14 1_555 1_555
C16 C15 1_555 1_555
C17 C16 1_555 1_555
C18 C17 1_555 1_555
N3 C14 1_555 1_555
O4 Mn4 1_555 1_555
C19 O4 1_555 1_555
C20 C19 1_555 1_555
C21 C20 1_555 1_555
C22 C21 1_555 1_555
C23 C22 1_555 1_555
C24 C23 1_555 1_555
N4 Mn3 1_555 1_555
O5 Mn4 1_555 1_555
C25 O5 1_555 1_555
C26 C25 1_555 1_555
C27 C26 1_555 1_555
C28 C27 1_555 1_555
C29 C28 1_555 1_555
C30 C29 1_555 1_555
N5 C26 1_555 1_555
O6 Mn3 1_555 1_555
C31 O6 1_555 1_555
C32 C31 1_555 1_555
C33 C32 1_555 1_555
C34 C33 1_555 1_555
C35 C34 1_555 1_555
C36 C35 1_555 1_555
N6 Mn4 1_555 1_555
Cl3 O7 1_555 1_555
O8 Cl3 1_555 1_555
O9 Cl3 1_555 1_555
O10 Cl3 1_555 1_555
Cl4 O11 1_555 1_555
O12 Cl4 1_555 1_555
O13 Cl4 1_555 1_555
O14 Cl4 1_555 1_555
H1 C1 1_555 1_555
H2 C1 1_555 1_555
H3 C3 1_555 1_555
H4 C4 1_555 1_555
H5 C5 1_555 1_555
H6 C6 1_555 1_555
H7 C7 1_555 1_555
H8 C7 1_555 1_555
H9 C9 1_555 1_555
H10 C10 1_555 1_555
H11 C11 1_555 1_555
H12 C12 1_555 1_555
H13 C13 1_555 1_555
H14 C13 1_555 1_555
H15 C15 1_555 1_555
H16 C16 1_555 1_555
H17 C17 1_555 1_555
H18 C18 1_555 1_555
H19 C19 1_555 1_555
H20 C19 1_555 1_555
H21 C21 1_555 1_555
H22 C22 1_555 1_555
H23 C23 1_555 1_555
H24 C24 1_555 1_555
H25 C25 1_555 1_555
H26 C25 1_555 1_555
H27 C27 1_555 1_555
H28 C28 1_555 1_555
H29 C29 1_555 1_555
H30 C30 1_555 1_555
H31 C31 1_555 1_555
H32 C31 1_555 1_555
H33 C33 1_555 1_555
H34 C34 1_555 1_555
H35 C35 1_555 1_555
H36 C36 1_555 1_555
Mn1A O3 1_555 1_555
Mn2A O2 1_555 1_555
Mn3A O5 1_555 1_555
O2A Mn2 1_555 1_555
O3A Mn1 1_555 1_555
N3A Mn2 1_555 1_555
O5A Mn3 1_555 1_555
N5A Mn3 1_555 1_555
O6A Mn3 1_555 1_555
Mn2 O3A 1_555 1_555
Mn4 Cl2 1_555 1_555
Mn4 O6 1_555 1_555
C2 N1 1_555 1_555
C6 N1 1_555 1_555
C8 N2 1_555 1_555
C12 N2 1_555 1_555
O3 Mn2A 1_555 1_555
C18 N3 1_555 1_555
N3 Mn2A 1_555 1_555
C20 N4 1_555 1_555
C24 N4 1_555 1_555
C30 N5 1_555 1_555
N5 Mn3A 1_555 1_555
O6 Mn3A 1_555 1_555
C32 N6 1_555 1_555
C36 N6 1_555 1_555
Mn1A O2A 1_555 1_555
Mn1A O3A 1_555 1_555
Mn3A O6A 1_555 1_555

#END
