
#######################################################################
#
#                 Cambridge Crystallographic Data Centre
#                                CCDC 
#
#######################################################################
#
# If this CIF has been generated from an entry in the Cambridge 
# Structural Database, then it will include bibliographic, chemical, 
# crystal, experimental, refinement or atomic coordinate data resulting 
# from the CCDC's data processing and validation procedures.
#
#######################################################################

data_SAQJIE
_symmetry_cell_setting           triclinic
_symmetry_space_group_name_H-M   'P -1'
_symmetry_Int_Tables_number      2
_space_group_name_Hall           '-P 1'
loop_
_symmetry_equiv_pos_site_id
_symmetry_equiv_pos_as_xyz
1 x,y,z
2 -x,-y,-z
_cell_length_a                   8.5726(17)
_cell_length_b                   8.6870(17)
_cell_length_c                   12.487(3)
_cell_angle_alpha                93.05(3)
_cell_angle_beta                 97.21(3)
_cell_angle_gamma                91.58(3)
_cell_volume                     920.699
loop_
_atom_site_label
_atom_site_type_symbol
_atom_site_fract_x
_atom_site_fract_y
_atom_site_fract_z
Zn1 Zn 0.0000 0.0000 0.0000
S1 S 0.03691(9) -0.02468(10) -0.36631(5)
N1 N 0.25549(18) -0.02376(18) 0.06148(12)
N2 N 0.5508(2) 0.0353(2) 0.40112(14)
N3 N 0.03658(19) 0.23107(18) -0.06637(12)
N4 N -0.0462(2) 0.5007(2) -0.39434(14)
N5 N 0.0336(2) -0.09994(19) -0.15197(13)
C1 C 0.3330(2) -0.1374(2) 0.01563(16)
H1 H 0.2873 -0.1852 -0.0497
C2 C 0.4770(2) -0.1862(2) 0.06110(17)
H2 H 0.5257 -0.2664 0.0275
C3 C 0.5488(2) -0.1142(2) 0.15785(17)
H3 H 0.6454 -0.1458 0.1902
C4 C 0.4730(2) 0.0058(2) 0.20485(15)
C5 C 0.3271(2) 0.0459(2) 0.15474(15)
H4 H 0.2757 0.1251 0.1873
C6 C 0.5425(2) 0.1013(2) 0.30526(17)
C7 C 0.5015(3) -0.1228(3) 0.41772(18)
H5 H 0.5926 -0.1803 0.4438
H6 H 0.4540 -0.1723 0.3495
C8 C 0.6157(3) 0.1248(3) 0.50121(17)
H7 H 0.6388 0.2303 0.4850
H8 H 0.7131 0.0807 0.5317
C9 C 0.1472(2) 0.3322(2) -0.01584(16)
H9 H 0.1985 0.3088 0.0512
C10 C 0.1883(3) 0.4680(2) -0.05817(17)
H10 H 0.2667 0.5336 -0.0209
C11 C 0.1113(3) 0.5060(2) -0.15724(17)
H11 H 0.1373 0.5974 -0.1874
C12 C -0.0056(2) 0.4053(2) -0.21068(15)
C13 C -0.0384(2) 0.2705(2) -0.16182(15)
H12 H -0.1169 0.2032 -0.1971
C14 C -0.1109(2) 0.4397(2) -0.31233(16)
C15 C 0.1212(3) 0.5106(3) -0.40768(18)
H13 H 0.1818 0.4591 -0.3500
H14 H 0.1570 0.6179 -0.4032
C16 C -0.1473(3) 0.5637(3) -0.48482(18)
H15 H -0.1259 0.6739 -0.4849
H16 H -0.2567 0.5479 -0.4744
C17 C 0.0354(2) -0.0708(2) -0.24191(16)
O2 O -0.25393(18) 0.4164(2) -0.31567(12)
O3 O 0.5854(2) 0.23546(19) 0.29634(13)
Zn1_2 Zn 1.0000 0.0000 1.0000
Zn1_3 Zn 0.0000 1.0000 -1.0000
S1A S -0.03691(9) 0.02468(10) 0.36631(5)
N1A N 0.74451(18) 0.02376(18) 0.93852(12)
N1A_2 N -0.25549(18) 0.02376(18) -0.06148(12)
N2A N 0.4492(2) -0.0353(2) 0.59888(14)
N3A N -0.03658(19) 0.76893(18) -0.93363(12)
N3A_2 N -0.03658(19) -0.23107(18) 0.06637(12)
N4A N 0.0462(2) 0.4993(2) -0.60566(14)
N5A N -0.0336(2) 0.09994(19) 0.15197(13)
C1A C 0.6670(2) 0.1374(2) 0.98437(16)
H1A H 0.7127 0.1852 1.0497
C2A C 0.5230(2) 0.1862(2) 0.93890(17)
H2A H 0.4743 0.2664 0.9725
C3A C 0.4512(2) 0.1142(2) 0.84215(17)
H3A H 0.3546 0.1458 0.8098
C4A C 0.5270(2) -0.0058(2) 0.79515(15)
C5A C 0.6729(2) -0.0459(2) 0.84526(15)
H4A H 0.7243 -0.1251 0.8127
C6A C 0.4575(2) -0.1013(2) 0.69474(17)
C7A C 0.4985(3) 0.1228(3) 0.58228(18)
H5A H 0.4074 0.1803 0.5562
H6A H 0.5460 0.1723 0.6505
C8A C 0.3843(3) -0.1248(3) 0.49879(17)
H7A H 0.3612 -0.2303 0.5150
H8A H 0.2869 -0.0807 0.4683
C9A C -0.1472(2) 0.6678(2) -0.98416(16)
H9A H -0.1985 0.6912 -1.0512
C10A C -0.1883(3) 0.5320(2) -0.94183(17)
H10A H -0.2667 0.4664 -0.9791
C11A C -0.1113(3) 0.4940(2) -0.84276(17)
H11A H -0.1373 0.4026 -0.8126
C12A C 0.0056(2) 0.5947(2) -0.78932(15)
C13A C 0.0384(2) 0.7295(2) -0.83818(15)
H12A H 0.1169 0.7968 -0.8029
C14A C 0.1109(2) 0.5603(2) -0.68767(16)
C15A C -0.1212(3) 0.4894(3) -0.59232(18)
H13A H -0.1818 0.5409 -0.6500
H14A H -0.1570 0.3821 -0.5968
C16A C 0.1473(3) 0.4363(3) -0.51518(18)
H15A H 0.1259 0.3261 -0.5151
H16A H 0.2567 0.4521 -0.5256
C17A C -0.0354(2) 0.0708(2) 0.24191(16)
O2A O 0.25393(18) 0.5836(2) -0.68433(12)
O3A O 0.4146(2) -0.23546(19) 0.70366(13)
O1 O 0.4570(3) 0.4636(3) 0.16259(16)
H17 H 0.508(3) 0.530(3) 0.222(2)
H18 H 0.476(4) 0.396(4) 0.203(3)
loop_
_geom_bond_atom_site_label_1
_geom_bond_atom_site_label_2
_geom_bond_site_symmetry_1
_geom_bond_site_symmetry_2
Zn1 N1 1_555 1_555
S1 C17 1_555 1_555
N1 C1 1_555 1_555
N2 C6 1_555 1_555
N3 Zn1 1_555 1_555
N4 C14 1_555 1_555
N5 Zn1 1_555 1_555
C1 H1 1_555 1_555
C2 C1 1_555 1_555
H2 C2 1_555 1_555
C3 C2 1_555 1_555
H3 C3 1_555 1_555
C4 C3 1_555 1_555
C5 N1 1_555 1_555
H4 C5 1_555 1_555
C6 C4 1_555 1_555
C7 N2 1_555 1_555
H5 C7 1_555 1_555
H6 C7 1_555 1_555
C8 N2 1_555 1_555
H7 C8 1_555 1_555
H8 C8 1_555 1_555
C9 N3 1_555 1_555
H9 C9 1_555 1_555
C10 C9 1_555 1_555
H10 C10 1_555 1_555
C11 C10 1_555 1_555
H11 C11 1_555 1_555
C12 C11 1_555 1_555
C13 N3 1_555 1_555
H12 C13 1_555 1_555
C14 C12 1_555 1_555
C15 N4 1_555 1_555
H13 C15 1_555 1_555
H14 C15 1_555 1_555
C16 N4 1_555 1_555
H15 C16 1_555 1_555
H16 C16 1_555 1_555
C17 N5 1_555 1_555
O1 H17 1_555 1_555
O2 C14 1_555 1_555
O3 C6 1_555 1_555
H18 O1 1_555 1_555
Zn1_2 N1A 1_555 1_555
Zn1_3 N3A 1_555 1_555
S1A C17A 1_555 1_555
N1A C1A 1_555 1_555
N1A_2 Zn1 1_555 1_555
N2A C6A 1_555 1_555
N3A C9A 1_555 1_555
N3A_2 Zn1 1_555 1_555
N4A C14A 1_555 1_555
N5A Zn1 1_555 1_555
C1A H1A 1_555 1_555
C2A C1A 1_555 1_555
H2A C2A 1_555 1_555
C3A C2A 1_555 1_555
H3A C3A 1_555 1_555
C4A C3A 1_555 1_555
C5A N1A 1_555 1_555
H4A C5A 1_555 1_555
C6A C4A 1_555 1_555
C7A C8 1_555 1_555
H5A C7A 1_555 1_555
H6A C7A 1_555 1_555
C8A C7 1_555 1_555
H7A C8A 1_555 1_555
H8A C8A 1_555 1_555
C9A H9A 1_555 1_555
C10A C9A 1_555 1_555
H10A C10A 1_555 1_555
C11A C10A 1_555 1_555
H11A C11A 1_555 1_555
C12A C11A 1_555 1_555
C13A N3A 1_555 1_555
H12A C13A 1_555 1_555
C14A C12A 1_555 1_555
C15A C16 1_555 1_555
H13A C15A 1_555 1_555
H14A C15A 1_555 1_555
C16A C15 1_555 1_555
H15A C16A 1_555 1_555
H16A C16A 1_555 1_555
C17A N5A 1_555 1_555
O2A C14A 1_555 1_555
O3A C6A 1_555 1_555
C4 C5 1_555 1_555
C12 C13 1_555 1_555
N2A C7A 1_555 1_555
N2A C8A 1_555 1_555
N4A C15A 1_555 1_555
N4A C16A 1_555 1_555
C4A C5A 1_555 1_555
C12A C13A 1_555 1_555

#END
