
#######################################################################
#
#                 Cambridge Crystallographic Data Centre
#                                CCDC 
#
#######################################################################
#
# If this CIF has been generated from an entry in the Cambridge 
# Structural Database, then it will include bibliographic, chemical, 
# crystal, experimental, refinement or atomic coordinate data resulting 
# from the CCDC's data processing and validation procedures.
#
#######################################################################

data_SAQKAY
_symmetry_cell_setting           monoclinic
_symmetry_space_group_name_H-M   'C 2/c'
_symmetry_Int_Tables_number      15
_space_group_name_Hall           '-C 2yn'
loop_
_symmetry_equiv_pos_site_id
_symmetry_equiv_pos_as_xyz
1 x,y,z
2 -x,y,1/2-z
3 1/2+x,1/2+y,z
4 1/2-x,1/2+y,1/2-z
5 -x,-y,-z
6 x,-y,1/2+z
7 1/2-x,1/2-y,-z
8 1/2+x,1/2-y,1/2+z
_cell_length_a                   35.927(6)
_cell_length_b                   8.8528(13)
_cell_length_c                   14.626(2)
_cell_angle_alpha                90
_cell_angle_beta                 103.925(3)
_cell_angle_gamma                90
_cell_volume                     4515.15
loop_
_atom_site_label
_atom_site_type_symbol
_atom_site_fract_x
_atom_site_fract_y
_atom_site_fract_z
Zn1 Zn 0.362054(14) 0.42562(5) 0.28295(4)
C1 C 0.42830(12) 0.2470(5) 0.3309(3)
C2 C 0.47469(12) 0.0726(5) 0.3570(3)
C3 C 0.41467(12) -0.0007(5) 0.3179(3)
C4 C 0.54535(14) 0.1229(6) 0.3998(4)
H1 H 0.5459 0.2278 0.3981
C5 C 0.57558(15) 0.0286(7) 0.4200(4)
H2 H 0.6010 0.0601 0.4348
C6 C 0.52715(15) -0.1131(6) 0.3941(4)
H3 H 0.5114 -0.1980 0.3870
C7 C 0.34792(12) -0.1044(5) 0.2776(3)
H4 H 0.3339 -0.0151 0.2729
C8 C 0.33389(12) -0.2450(5) 0.2655(3)
H5 H 0.3080 -0.2700 0.2506
C9 C 0.39528(13) -0.2666(5) 0.2984(3)
H6 H 0.4199 -0.3064 0.3107
C10 C 0.26155(12) -0.0546(5) -0.1403(3)
C11 C 0.28315(12) 0.0866(5) -0.0077(3)
C12 C 0.23433(11) -0.0624(5) -0.0156(3)
C13 C 0.33884(12) 0.2607(5) 0.0121(3)
H7 H 0.3442 0.2485 -0.0466
C14 C 0.35755(13) 0.3485(5) 0.0822(3)
H8 H 0.3787 0.4082 0.0807
C15 C 0.31212(11) 0.2417(4) 0.1314(3)
H9 H 0.2957 0.2128 0.1686
C16 C 0.17512(12) -0.2107(5) -0.0155(3)
H10 H 0.1718 -0.2596 -0.0732
C17 C 0.15167(13) -0.2184(5) 0.0439(3)
H11 H 0.1292 -0.2745 0.0340
C18 C 0.19816(12) -0.0711(5) 0.1085(3)
H12 H 0.2140 -0.0065 0.1507
N1 N 0.46639(10) 0.2171(4) 0.3536(3)
N2 N 0.45069(10) -0.0441(4) 0.3400(3)
N3 N 0.40085(9) 0.1379(4) 0.3122(2)
N4 N 0.51358(10) 0.0313(4) 0.3821(3)
N5 N 0.56432(12) -0.1194(5) 0.4164(3)
N6 N 0.38729(10) -0.1186(4) 0.2985(2)
N7 N 0.36387(10) -0.3480(4) 0.2788(2)
N8 N 0.28734(10) 0.0506(4) -0.0913(3)
N9 N 0.25752(10) 0.0373(4) 0.0381(2)
N10 N 0.23377(10) -0.1139(4) -0.0983(2)
N11 N 0.30988(9) 0.1914(4) 0.0437(2)
N12 N 0.34071(9) 0.3374(4) 0.1576(2)
N13 N 0.20474(9) -0.1167(4) 0.0260(2)
N14 N 0.16625(10) -0.1303(4) 0.1212(2)
O1 O 0.41752(8) 0.3839(3) 0.3259(2)
O2 O 0.26332(9) -0.0977(4) -0.2192(2)
Zn1C Zn 0.137946(14) -0.07438(5) 0.21705(4)
Zn1_2 Zn 0.362054(14) -0.57438(5) 0.28295(4)
N7_2 N 0.36387(10) 0.6520(4) 0.2788(2)
N14C N 0.33375(10) 0.3697(4) 0.3788(2)
O3 O 0.06252(18) 0.9545(7) 0.8976(5)
H13 H 0.0717 0.8980 0.8643
H14 H 0.0732 0.9663 0.9533
O5 O 0.0236(5) 1.046(2) 1.0464(13)
H17 H 0.0412 1.0758 1.0242
H18 H 0.0199 1.0957 1.0907
O4? O -0.0140(3) 0.9544(11) 0.7852(8)
H15? H -0.0076 1.0218 0.7535
H16? H -0.0048 0.9812 0.8397
loop_
_geom_bond_atom_site_label_1
_geom_bond_atom_site_label_2
_geom_bond_site_symmetry_1
_geom_bond_site_symmetry_2
Zn1 N12 1_555 1_555
C1 N1 1_555 1_555
C2 N1 1_555 1_555
C3 N2 1_555 1_555
C4 H1 1_555 1_555
C5 C4 1_555 1_555
H2 C5 1_555 1_555
C6 H3 1_555 1_555
C7 H4 1_555 1_555
C8 C7 1_555 1_555
H5 C8 1_555 1_555
C9 H6 1_555 1_555
C10 N8 1_555 1_555
C11 N8 1_555 1_555
C12 N9 1_555 1_555
C13 H7 1_555 1_555
C14 C13 1_555 1_555
H8 C14 1_555 1_555
C15 H9 1_555 1_555
C16 H10 1_555 1_555
C17 C16 1_555 1_555
H11 C17 1_555 1_555
C18 H12 1_555 1_555
N2 C2 1_555 1_555
N3 C1 1_555 1_555
N4 C2 1_555 1_555
N5 C5 1_555 1_555
N6 C3 1_555 1_555
N7 C8 1_555 1_555
N9 C11 1_555 1_555
N10 C10 1_555 1_555
N11 C11 1_555 1_555
N12 C14 1_555 1_555
N13 C12 1_555 1_555
N14 C17 1_555 1_555
O1 Zn1 1_555 1_555
O2 C10 1_555 1_555
O3 H13 1_555 1_555
H14 O3 1_555 1_555
O5 H17 1_555 1_555
H18 O5 1_555 1_555
Zn1C N14 1_555 1_555
Zn1_2 N7 1_555 1_555
N7_2 Zn1 1_555 1_555
N14C Zn1 1_555 1_555
C1 O1 1_555 1_555
C3 N3 1_555 1_555
C4 N4 1_555 1_555
C6 N4 1_555 1_555
C6 N5 1_555 1_555
C7 N6 1_555 1_555
C9 N6 1_555 1_555
C9 N7 1_555 1_555
C12 N10 1_555 1_555
C13 N11 1_555 1_555
C15 N11 1_555 1_555
C15 N12 1_555 1_555
C16 N13 1_555 1_555
C18 N13 1_555 1_555
C18 N14 1_555 1_555

#END
