
#######################################################################
#
#                 Cambridge Crystallographic Data Centre
#                                CCDC 
#
#######################################################################
#
# If this CIF has been generated from an entry in the Cambridge 
# Structural Database, then it will include bibliographic, chemical, 
# crystal, experimental, refinement or atomic coordinate data resulting 
# from the CCDC's data processing and validation procedures.
#
#######################################################################

data_SAQMAZ
_symmetry_cell_setting           monoclinic
_symmetry_space_group_name_H-M   'P 21/c'
_symmetry_Int_Tables_number      14
_space_group_name_Hall           '-P 2ybc'
loop_
_symmetry_equiv_pos_site_id
_symmetry_equiv_pos_as_xyz
1 x,y,z
2 -x,1/2+y,1/2-z
3 -x,-y,-z
4 x,1/2-y,1/2+z
_cell_length_a                   9.5824(19)
_cell_length_b                   10.049(2)
_cell_length_c                   25.174(5)
_cell_angle_alpha                90
_cell_angle_beta                 100.39(3)
_cell_angle_gamma                90
_cell_volume                     2384.35
loop_
_atom_site_label
_atom_site_type_symbol
_atom_site_fract_x
_atom_site_fract_y
_atom_site_fract_z
Pb1 Pb -0.11437(3) -0.42271(2) -0.224460(9)
S1 S 0.2403(3) -1.1248(2) 0.23289(9)
N1 N -0.3052(7) -0.1897(6) 0.2020(2)
N2 N -0.4302(8) -0.3446(7) 0.1508(3)
N3 N -0.4929(7) -0.2229(7) 0.1421(2)
N4 N -0.4735(7) -0.2785(7) -0.1389(2)
N5 N -0.4094(9) -0.1595(7) -0.1384(3)
N6 N -0.2840(7) -0.3167(6) -0.1720(2)
N7 N -0.0293(8) -0.5591(7) -0.1302(2)
N8 N 0.0879(11) -0.6058(8) -0.0472(3)
N9 N 0.0908(7) -0.7117(7) -0.0804(2)
N10 N 0.2996(8) -1.3948(6) 0.2326(2)
C1 C -0.3168(9) -0.3179(8) 0.1870(3)
H1 H -0.2504 -0.1178 -0.2990
C2 C -0.4189(9) -0.1350(8) 0.1730(3)
H2 H -0.4430 -0.0456 0.1745
C3 C -0.6298(9) -0.2094(11) 0.1054(3)
H3 H -0.6959 -0.2738 0.1154
H4 H -0.6678 -0.1213 0.1096
C4 C -0.6186(9) -0.2301(10) 0.0468(3)
C5 C -0.622(2) -0.1363(16) 0.0119(4)
H5 H -0.6270 -0.0491 0.0237
C6 C -0.620(3) -0.1569(16) -0.0418(4)
H6 H -0.6263 -0.0824 -0.0640
C7 C -0.6094(8) -0.2685(10) -0.0634(3)
C8 C -0.596(3) -0.3567(15) -0.0287(5)
H7 H -0.5817 -0.4425 -0.0403
C9 C -0.601(4) -0.3424(16) 0.0252(5)
H8 H -0.5916 -0.4180 0.0469
C10 C -0.6112(9) -0.2903(10) -0.1223(3)
H9 H -0.6756 -0.2737 -0.6426
H10 H -0.6488 -0.1216 -0.6319
C11 C -0.3997(9) -0.1303(8) -0.6592(3)
H11 H -0.4253 -0.0413 -0.6639
C12 C -0.2959(10) -0.1878(8) -0.1587(3)
H12 H -0.2290 -0.3761 -0.6635
C13 C 0.0141(13) -0.5178(10) -0.0794(4)
H13 H 0.0064 -1.5666 0.0677
C14 C 0.0206(9) -0.6817(8) -0.1289(3)
H14 H 0.0080 -0.7392 -0.1583
C15 C 0.1635(10) -0.8358(9) -0.0610(3)
H15 H 0.2536 -0.8147 -0.0382
H16 H 0.1829 -0.8864 -0.0917
C16 C 0.0768(10) -0.9193(9) -0.0296(3)
C17 C -0.0027(14) -1.0242(12) -0.0534(3)
C18 C -0.0783(15) -1.1061(11) -0.0252(4)
C19 C 0.2718(8) -1.2829(8) 0.2326(3)
Pb1C Pb -0.11437(3) -0.07729(2) 0.275540(9)
Pb1C_2 Pb -0.11437(3) -0.07729(2) -0.724460(9)
Pb1B Pb 0.11437(3) -1.57729(2) 0.224460(9)
S1B S -0.2403(3) -0.8752(2) -0.23289(9)
N1C N -0.3052(7) -0.3103(6) -0.2980(2)
N1A N 0.3052(7) -1.6897(6) 0.2980(2)
N2C N -0.4302(8) -0.1554(7) -0.3492(3)
N3C N -0.4929(7) -0.2771(7) -0.3579(2)
N4C N -0.4735(7) -0.2215(7) -0.6389(2)
N5C N -0.4094(9) -0.3405(7) -0.6384(3)
N6C N -0.2840(7) -0.1833(6) -0.6720(2)
N6B N 0.2840(7) -1.6833(6) 0.1720(2)
N7B N 0.0293(8) -1.4409(7) 0.1302(2)
N8B N -0.0879(11) -1.3942(8) 0.0472(3)
N9B N -0.0908(7) -1.2883(7) 0.0804(2)
N10B N -0.2996(8) -0.6052(6) -0.2326(2)
C1C C -0.3168(9) -0.1821(8) -0.3130(3)
H1C H -0.2504 -0.3822 0.2010
C2C C -0.4189(9) -0.3650(8) -0.3270(3)
H2C H -0.4430 -0.4544 -0.3255
C3C C -0.6298(9) -0.2906(11) -0.3946(3)
H3C H -0.6959 -0.2262 -0.3846
H4C H -0.6678 -0.3787 -0.3904
C4C C -0.6186(9) -0.2699(10) -0.4532(3)
C5C C -0.622(2) -0.3637(16) -0.4881(4)
H5C H -0.6270 -0.4509 -0.4763
C6C C -0.620(3) -0.3431(16) -0.5418(4)
H6C H -0.6263 -0.4176 -0.5640
C7C C -0.6094(8) -0.2315(10) -0.5634(3)
C8C C -0.596(3) -0.1433(15) -0.5287(5)
H7C H -0.5817 -0.0575 -0.5403
C9C C -0.601(4) -0.1576(16) -0.4748(5)
H8C H -0.5916 -0.0820 -0.4531
C10C C -0.6112(9) -0.2097(10) -0.6223(3)
H9C H -0.6756 -0.2263 -0.1426
H10C H -0.6488 -0.3784 -0.1319
C11C C -0.3997(9) -0.3697(8) -0.1592(3)
H11C H -0.4253 -0.4587 -0.1639
C12C C -0.2959(10) -0.3122(8) -0.6587(3)
H12C H -0.2290 -0.1239 -0.1635
C13B C -0.0141(13) -1.4822(10) 0.0794(4)
H13B H -0.0064 -0.4334 -0.0677
C14B C -0.0206(9) -1.3183(8) 0.1289(3)
H14B H -0.0080 -1.2608 0.1583
C15B C -0.1635(10) -1.1642(9) 0.0610(3)
H15B H -0.2536 -1.1853 0.0382
H16B H -0.1829 -1.1136 0.0917
C16B C -0.0768(10) -1.0807(9) 0.0296(3)
C17B C 0.0027(14) -0.9758(12) 0.0534(3)
C18B C 0.0783(15) -0.8939(11) 0.0252(4)
C19B C -0.2718(8) -0.7171(8) -0.2326(3)
O1 O -0.1183(6) 1.4526(5) -0.32548(18)
O2 O 0.0321(6) 1.3450(5) -0.26651(18)
O3 O -0.0420(6) 1.2610(5) -0.34575(18)
N11 N -0.0440(6) 1.3525(6) -0.3132(2)
loop_
_geom_bond_atom_site_label_1
_geom_bond_atom_site_label_2
_geom_bond_site_symmetry_1
_geom_bond_site_symmetry_2
Pb1 N6 1_555 1_555
S1 C19 1_555 1_555
O1 N11 1_555 1_555
O2 N11 1_555 1_555
O3 N11 1_555 1_555
N1 C1 1_555 1_555
N2 N3 1_555 1_555
N3 C2 1_555 1_555
N4 N5 1_555 1_555
N5 C12 1_555 1_555
N6 C12 1_555 1_555
N7 Pb1 1_555 1_555
N8 N9 1_555 1_555
N9 C14 1_555 1_555
N10 C19 1_555 1_555
C1 N2 1_555 1_555
H1 C1C 1_555 1_555
C2 N1 1_555 1_555
H2 C2 1_555 1_555
C3 N3 1_555 1_555
H3 C3 1_555 1_555
H4 C3 1_555 1_555
C4 C3 1_555 1_555
C5 C4 1_555 1_555
H5 C5 1_555 1_555
C6 C5 1_555 1_555
H6 C6 1_555 1_555
C7 C6 1_555 1_555
C8 C7 1_555 1_555
H7 C8 1_555 1_555
C9 C4 1_555 1_555
H8 C9 1_555 1_555
C10 N4 1_555 1_555
H9 C10C 1_555 1_555
H10 C10C 1_555 1_555
C11 H11 1_555 1_555
C12 H12C 1_555 1_555
H12 C12C 1_555 1_555
C13 N7 1_555 1_555
H13 C13B 1_555 1_555
C14 N7 1_555 1_555
H14 C14 1_555 1_555
C15 N9 1_555 1_555
H15 C15 1_555 1_555
H16 C15 1_555 1_555
C16 C15 1_555 1_555
C17 C16 1_555 1_555
C18 C17 1_555 1_555
Pb1C N1 1_555 1_555
Pb1C_2 N6C 1_555 1_555
Pb1B N10 1_555 1_555
S1B C19B 1_555 1_555
N1C Pb1 1_555 1_555
N1A Pb1B 1_555 1_555
N2C N3C 1_555 1_555
N3C C2C 1_555 1_555
N4C C11 1_555 1_555
N5C N4C 1_555 1_555
N6C C11 1_555 1_555
N6B Pb1B 1_555 1_555
N7B Pb1B 1_555 1_555
N8B N9B 1_555 1_555
N9B C14B 1_555 1_555
N10B Pb1 1_555 1_555
C1C N1C 1_555 1_555
H1C C1 1_555 1_555
C2C N1C 1_555 1_555
H2C C2C 1_555 1_555
C3C N3C 1_555 1_555
H3C C3C 1_555 1_555
H4C C3C 1_555 1_555
C4C C3C 1_555 1_555
C5C C4C 1_555 1_555
H5C C5C 1_555 1_555
C6C C5C 1_555 1_555
H6C C6C 1_555 1_555
C7C C6C 1_555 1_555
C8C C7C 1_555 1_555
H7C C8C 1_555 1_555
C9C C4C 1_555 1_555
H8C C9C 1_555 1_555
C10C N4C 1_555 1_555
H9C C10 1_555 1_555
H10C C10 1_555 1_555
C11C N4 1_555 1_555
H11C C11C 1_555 1_555
C12C N5C 1_555 1_555
C13B N7B 1_555 1_555
H13B C13 1_555 1_555
C14B N7B 1_555 1_555
H14B C14B 1_555 1_555
C15B N9B 1_555 1_555
H15B C15B 1_555 1_555
H16B C15B 1_555 1_555
C16B C18 1_555 1_555
C17B C16B 1_555 1_555
C18B C16 1_555 1_555
C19B N10B 1_555 1_555
N6 C11C 1_555 1_555
N8 C13 1_555 1_555
C7 C10 1_555 1_555
C8 C9 1_555 1_555
N2C C1C 1_555 1_555
N6C C12C 1_555 1_555
N8B C13B 1_555 1_555
C7C C10C 1_555 1_555
C8C C9C 1_555 1_555
C15B C16B 1_555 1_555
C17B C18B 1_555 1_555

#END
