
#######################################################################
#
#                 Cambridge Crystallographic Data Centre
#                                CCDC 
#
#######################################################################
#
# If this CIF has been generated from an entry in the Cambridge 
# Structural Database, then it will include bibliographic, chemical, 
# crystal, experimental, refinement or atomic coordinate data resulting 
# from the CCDC's data processing and validation procedures.
#
#######################################################################

data_SAQNEE
_symmetry_cell_setting           monoclinic
_symmetry_space_group_name_H-M   'C 2/c'
_symmetry_Int_Tables_number      15
_space_group_name_Hall           '-C 2yn'
loop_
_symmetry_equiv_pos_site_id
_symmetry_equiv_pos_as_xyz
1 x,y,z
2 1/2+x,1/2+y,z
3 -x,y,1/2-z
4 1/2-x,1/2+y,1/2-z
5 -x,-y,-z
6 1/2-x,1/2-y,-z
7 x,-y,1/2+z
8 1/2+x,1/2-y,1/2+z
_cell_length_a                   9.5294(11)
_cell_length_b                   18.928(2)
_cell_length_c                   23.969(3)
_cell_angle_alpha                90
_cell_angle_beta                 99.823(3)
_cell_angle_gamma                90
_cell_volume                     4259.97
loop_
_atom_site_label
_atom_site_type_symbol
_atom_site_fract_x
_atom_site_fract_y
_atom_site_fract_z
Ag1 Ag 0.0000 0.04009(4) 0.2500
Si1 Si -0.04316(19) 0.34971(9) 0.09164(7)
N1 N 0.2958(6) 0.4742(3) 0.2198(2)
N2 N -0.0333(6) 0.1282(3) 0.1783(2)
C1 C 0.3024(7) 0.4050(4) 0.2130(3)
H1 H 0.3811 0.3798 0.2343
C2 C 0.2017(7) 0.3676(3) 0.1767(3)
H2 H 0.2124 0.3174 0.1736
C3 C 0.0872(6) 0.4000(3) 0.1450(3)
C4 C 0.0775(8) 0.4709(4) 0.1547(3)
H3 H -0.0029 0.4969 0.1354
C5 C 0.1812(8) 0.5055(4) 0.1916(4)
H4 H 0.1698 0.5552 0.1972
C6 C -0.1306(8) 0.1788(4) 0.1848(3)
H5 H 0.6953 -0.3300 0.2893
C7 C -0.1404(7) 0.2409(3) 0.1566(3)
H6 H 0.7142 -0.2264 0.3383
C8 C -0.0484(7) 0.2582(3) 0.1211(3)
C9 C 0.0506(7) 0.2071(3) 0.1135(3)
H7 H 0.1162 0.2154 0.0880
C10 C 0.4455(7) -0.3551(4) 0.3573(3)
H8 H 0.3745 -0.3891 0.3630
C11 C -0.2235(7) 0.3888(3) 0.0837(3)
C12 C -0.3149(7) 0.3891(3) 0.0328(3)
H9 H -0.2805 0.3731 -0.0005
C13 C -0.4545(9) 0.4117(4) 0.0275(4)
H10 H -0.5169 0.4085 -0.0084
C14 C -0.5031(9) 0.4383(4) 0.0732(5)
H11 H -0.5990 0.4555 0.0697
C15 C -0.4136(9) 0.4403(4) 0.1244(4)
H12 H -0.4472 0.4590 0.1570
C16 C -0.2759(8) 0.4159(4) 0.1296(3)
H13 H -0.2151 0.4177 0.1659
C17 C 0.0200(7) 0.3487(3) 0.0228(3)
C18 C 0.0984(7) 0.4037(4) 0.0055(3)
H14 H 0.1255 0.4423 0.0311
C19 C 0.1389(8) 0.4052(5) -0.0468(4)
H15 H 0.1966 0.4433 -0.0567
C20 C 0.0964(9) 0.3521(5) -0.0847(3)
H16 H 0.1197 0.3536 -0.1222
C21 C 0.0206(10) 0.2969(5) -0.0686(4)
H17 H -0.0068 0.2586 -0.0944
C22 C -0.0169(9) 0.2953(4) -0.0160(3)
H18 H -0.0704 0.2558 -0.0058
Ag1A Ag 0.5000 0.54009(4) 0.2500
Ag1A_2 Ag 0.5000 -0.45991(4) 0.2500
Si1C Si 0.54316(19) -0.15029(9) 0.40836(7)
N1A N -0.2042(6) -0.0258(3) 0.2198(2)
N1C N 0.2042(6) -0.0258(3) 0.2802(2)
N2C N 0.5333(6) -0.3718(3) 0.3217(2)
N2B N 0.0333(6) 0.1282(3) 0.3217(2)
C1C C 0.1976(7) -0.0950(4) 0.2870(3)
H1C H 0.1189 -0.1202 0.2657
C2C C 0.2983(7) -0.1324(3) 0.3233(3)
H2C H 0.2876 -0.1826 0.3264
C3C C 0.4128(6) -0.1000(3) 0.3550(3)
C4C C 0.4225(8) -0.0291(4) 0.3453(3)
H3C H 0.5029 -0.0031 0.3646
C5C C 0.3188(8) 0.0055(4) 0.3084(4)
H4C H 0.3302 0.0552 0.3028
C6C C 0.6306(8) -0.3212(4) 0.3152(3)
H5C H -0.1953 0.1700 0.2107
C7C C 0.6404(7) -0.2591(3) 0.3434(3)
H6C H -0.2142 0.2736 0.1617
C8C C 0.5484(7) -0.2418(3) 0.3789(3)
C9C C 0.4494(7) -0.2929(3) 0.3865(3)
H7C H 0.3838 -0.2846 0.4120
C10C C 0.0545(7) 0.1449(4) 0.1427(3)
H8C H 0.1255 0.1109 0.1370
C11C C 0.7235(7) -0.1112(3) 0.4163(3)
C12C C 0.8149(7) -0.1109(3) 0.4672(3)
H9C H 0.7805 -0.1269 0.5005
C13C C 0.9545(9) -0.0883(4) 0.4725(4)
H10C H 1.0169 -0.0915 0.5084
C14C C 1.0031(9) -0.0617(4) 0.4268(5)
H11C H 1.0990 -0.0445 0.4303
C15C C 0.9136(9) -0.0597(4) 0.3756(4)
H12C H 0.9472 -0.0410 0.3430
C16C C 0.7759(8) -0.0841(4) 0.3704(3)
H13C H 0.7151 -0.0823 0.3341
C17C C 0.4800(7) -0.1513(3) 0.4772(3)
C18C C 0.4016(7) -0.0963(4) 0.4945(3)
H14C H 0.3745 -0.0577 0.4689
C19C C 0.3611(8) -0.0948(5) 0.5468(4)
H15C H 0.3034 -0.0567 0.5567
C20C C 0.4036(9) -0.1479(5) 0.5847(3)
H16C H 0.3803 -0.1464 0.6222
C21C C 0.4794(10) -0.2031(5) 0.5686(4)
H17C H 0.5068 -0.2414 0.5944
C22C C 0.5169(9) -0.2047(4) 0.5160(3)
H18C H 0.5704 -0.2442 0.5058
Cl1 Cl 0.5000 0.21595(16) 0.2500
O1 O 0.6128(9) 0.1767(5) 0.2718(3)
O2 O 0.5388(7) 0.2582(3) 0.2066(2)
O1B O 0.3872(9) 0.1767(5) 0.2282(3)
O2B O 0.4612(7) 0.2582(3) 0.2934(2)
loop_
_geom_bond_atom_site_label_1
_geom_bond_atom_site_label_2
_geom_bond_site_symmetry_1
_geom_bond_site_symmetry_2
Ag1 N2 1_555 1_555
Si1 C3 1_555 1_555
N1 C1 1_555 1_555
N2 C6 1_555 1_555
C1 H1 1_555 1_555
C2 C1 1_555 1_555
H2 C2 1_555 1_555
C3 C2 1_555 1_555
C4 C3 1_555 1_555
H3 C4 1_555 1_555
C5 N1 1_555 1_555
H4 C5 1_555 1_555
C6 C7 1_555 1_555
H5 C6C 1_555 1_555
C7 C8 1_555 1_555
H6 C7C 1_555 1_555
C8 Si1 1_555 1_555
C9 C8 1_555 1_555
H7 C9 1_555 1_555
C10 H8 1_555 1_555
C11 Si1 1_555 1_555
C12 C11 1_555 1_555
H9 C12 1_555 1_555
C13 C12 1_555 1_555
H10 C13 1_555 1_555
C14 C13 1_555 1_555
H11 C14 1_555 1_555
C15 C14 1_555 1_555
H12 C15 1_555 1_555
C16 C11 1_555 1_555
H13 C16 1_555 1_555
C17 Si1 1_555 1_555
C18 C17 1_555 1_555
H14 C18 1_555 1_555
C19 C18 1_555 1_555
H15 C19 1_555 1_555
C20 C19 1_555 1_555
H16 C20 1_555 1_555
C21 C20 1_555 1_555
H17 C21 1_555 1_555
C22 C17 1_555 1_555
H18 C22 1_555 1_555
Cl1 O1 1_555 1_555
O2 Cl1 1_555 1_555
Ag1A N1 1_555 1_555
Ag1A_2 N2C 1_555 1_555
Si1C C3C 1_555 1_555
N1A Ag1 1_555 1_555
N1C Ag1 1_555 1_555
N2C C10 1_555 1_555
N2B Ag1 1_555 1_555
C1C N1C 1_555 1_555
H1C C1C 1_555 1_555
C2C C1C 1_555 1_555
H2C C2C 1_555 1_555
C3C C2C 1_555 1_555
C4C C3C 1_555 1_555
H3C C4C 1_555 1_555
C5C N1C 1_555 1_555
H4C C5C 1_555 1_555
C6C N2C 1_555 1_555
H5C C6 1_555 1_555
C7C C6C 1_555 1_555
H6C C7 1_555 1_555
C8C Si1C 1_555 1_555
C9C C10 1_555 1_555
H7C C9C 1_555 1_555
C10C N2 1_555 1_555
H8C C10C 1_555 1_555
C11C Si1C 1_555 1_555
C12C C11C 1_555 1_555
H9C C12C 1_555 1_555
C13C C12C 1_555 1_555
H10C C13C 1_555 1_555
C14C C13C 1_555 1_555
H11C C14C 1_555 1_555
C15C C14C 1_555 1_555
H12C C15C 1_555 1_555
C16C C11C 1_555 1_555
H13C C16C 1_555 1_555
C17C Si1C 1_555 1_555
C18C C17C 1_555 1_555
H14C C18C 1_555 1_555
C19C C18C 1_555 1_555
H15C C19C 1_555 1_555
C20C C19C 1_555 1_555
H16C C20C 1_555 1_555
C21C C20C 1_555 1_555
H17C C21C 1_555 1_555
C22C C17C 1_555 1_555
H18C C22C 1_555 1_555
O1B Cl1 1_555 1_555
O2B Cl1 1_555 1_555
C4 C5 1_555 1_555
C9 C10C 1_555 1_555
C15 C16 1_555 1_555
C21 C22 1_555 1_555
C4C C5C 1_555 1_555
C7C C8C 1_555 1_555
C8C C9C 1_555 1_555
C15C C16C 1_555 1_555
C21C C22C 1_555 1_555

#END
