
#######################################################################
#
#                 Cambridge Crystallographic Data Centre
#                                CCDC 
#
#######################################################################
#
# If this CIF has been generated from an entry in the Cambridge 
# Structural Database, then it will include bibliographic, chemical, 
# crystal, experimental, refinement or atomic coordinate data resulting 
# from the CCDC's data processing and validation procedures.
#
#######################################################################

data_SAQPAD
_symmetry_cell_setting           monoclinic
_symmetry_space_group_name_H-M   'P 21/c'
_symmetry_Int_Tables_number      14
_space_group_name_Hall           '-P 2ybc'
loop_
_symmetry_equiv_pos_site_id
_symmetry_equiv_pos_as_xyz
1 x,y,z
2 -x,1/2+y,1/2-z
3 -x,-y,-z
4 x,1/2-y,1/2+z
_cell_length_a                   10.2940(17)
_cell_length_b                   19.025(3)
_cell_length_c                   16.509(3)
_cell_angle_alpha                90
_cell_angle_beta                 98.204(5)
_cell_angle_gamma                90
_cell_volume                     3200.09
loop_
_atom_site_label
_atom_site_type_symbol
_atom_site_fract_x
_atom_site_fract_y
_atom_site_fract_z
C25 C -0.8934(7) 0.4232(4) 0.4758(4)
C26 C -0.7896(8) 0.4109(6) 0.4377(5)
H16 H -0.7600 0.3652 0.4320
C27 C -0.7261(9) 0.4674(7) 0.4064(5)
H17 H -0.6521 0.4584 0.3816
C28 C -0.7697(9) 0.5387(6) 0.4108(4)
H18 H -0.7239 0.5749 0.3896
C29 C -0.8795(7) 0.5531(5) 0.4463(4)
C30 C -0.9466(6) 0.4931(3) 0.4824(3)
C31 C -0.9634(9) 0.3686(5) 0.5083(4)
H19 H -0.9356 0.3227 0.5020
C32 C -0.9317(9) 0.6213(4) 0.4521(5)
H20 H -0.8940 0.6593 0.4286
C25B C -1.1066(7) 0.5768(4) 0.5242(4)
C26B C -1.2104(8) 0.5891(6) 0.5623(5)
H16B H -1.2400 0.6348 0.5680
C27B C -1.2739(9) 0.5326(7) 0.5936(5)
H17B H -1.3479 0.5416 0.6184
C28B C -1.2303(9) 0.4613(6) 0.5892(4)
H18B H -1.2761 0.4251 0.6104
C29B C -1.1205(7) 0.4469(5) 0.5537(4)
C30B C -1.0534(6) 0.5069(3) 0.5176(3)
C31B C -1.0366(9) 0.6314(5) 0.4917(4)
H19B H -1.0644 0.6773 0.4980
C32B C -1.0683(9) 0.3787(4) 0.5479(5)
H20B H -1.1060 0.3407 0.5714
P1 P -0.99853(17) 0.17806(10) 0.33672(12)
F1 F -1.0814(7) 0.1536(6) 0.4034(5)
F2 F -0.8901(7) 0.1908(4) 0.2834(5)
F3 F -1.0763(6) 0.1464(4) 0.2595(4)
F4 F -0.9006(7) 0.2042(4) 0.4094(5)
F5 F -1.0909(7) 0.2377(3) 0.3296(5)
F6 F -0.9313(5) 0.1027(2) 0.3533(3)
Zn1 Zn 0.5000 0.5000 0.0000
O1 O -0.3319(2) 0.59537(12) 0.35173(18)
O2 O 0.6103(2) 0.46424(12) 0.11144(15)
O3 O -0.3126(2) 0.34202(13) 0.38726(18)
O4 O -0.0024(2) 0.46167(14) 0.25020(15)
O5 O -0.5333(3) 0.57132(17) 0.2902(3)
O6 O -0.1213(3) 0.4345(2) 0.13044(19)
O7 O -0.5235(3) 0.35205(17) 0.3291(2)
N1 N -0.5406(4) 0.82822(18) 0.3578(2)
N2 N 0.3271(3) 0.47502(15) 0.05772(18)
N3 N -0.4837(3) 0.10806(14) 0.44799(18)
C1 C -0.2824(4) 0.52798(18) 0.3373(2)
C2 C -0.1739(4) 0.52692(19) 0.2981(2)
H1 H -0.1399 0.5681 0.2793
C3 C -0.1171(3) 0.46306(18) 0.2877(2)
C4 C -0.1644(3) 0.40167(18) 0.3161(2)
H2 H -0.1243 0.3587 0.3092
C5 C -0.2739(3) 0.40618(17) 0.3555(2)
C6 C -0.3334(4) 0.46878(19) 0.3681(2)
H3 H -0.4052 0.4711 0.3964
C7 C -0.4198(5) 0.8018(2) 0.3765(4)
H4 H -0.3532 0.8326 0.3974
C8 C -0.3866(4) 0.7335(2) 0.3674(3)
H5 H -0.3003 0.7187 0.3817
C9 C -0.4825(4) 0.68688(19) 0.3368(2)
C10 C -0.6099(4) 0.7120(2) 0.3159(3)
H6 H -0.6775 0.6821 0.2943
C11 C -0.6333(5) 0.7821(2) 0.3281(3)
H7 H -0.7189 0.7985 0.3147
C12 C -0.4556(4) 0.6115(2) 0.3221(2)
C13 C 0.3288(4) 0.4889(2) 0.1374(2)
H8 H 0.4064 0.5056 0.1669
C14 C 0.2219(4) 0.4799(2) 0.1783(2)
H9 H 0.2273 0.4900 0.2338
C15 C 0.1064(3) 0.45535(19) 0.1341(2)
C16 C 0.1039(3) 0.4401(2) 0.0531(2)
H10 H 0.0280 0.4224 0.0226
C17 C 0.2148(3) 0.4510(2) 0.0167(2)
H11 H 0.2112 0.4413 -0.0388
C18 C -0.0181(3) 0.4487(2) 0.1704(2)
C19 C -0.5805(4) 0.1428(2) 0.4033(3)
H12 H -0.6598 0.1196 0.3884
C20 C -0.5701(4) 0.2120(2) 0.3773(3)
H13 H -0.6414 0.2348 0.3476
C21 C -0.4508(4) 0.24600(19) 0.3969(2)
C22 C -0.3484(4) 0.20959(19) 0.4419(3)
H14 H -0.2667 0.2306 0.4558
C23 C -0.3699(4) 0.14180(19) 0.4655(3)
H15 H -0.3003 0.1179 0.4956
C24 C -0.4373(4) 0.31906(19) 0.3673(3)
Zn1A Zn -0.5000 0.0000 0.5000
Zn1A_2 Zn -0.5000 1.0000 0.5000
O1A O 0.3319(2) 1.09537(12) 0.14827(18)
O2B O 0.3897(2) 0.53576(12) -0.11144(15)
O3A O 0.3126(2) 0.84202(13) 0.11274(18)
O4A O 0.0024(2) 0.96167(14) 0.24980(15)
O5A O 0.5333(3) 1.07132(17) 0.2098(3)
O6A O 0.1213(3) 0.9345(2) 0.36956(19)
O7A O 0.5235(3) 0.85205(17) 0.1709(2)
N1A N 0.5406(4) 1.32822(18) 0.1422(2)
N2A N -0.3271(3) 0.97502(15) 0.44228(18)
N2B N 0.6729(3) 0.52498(15) -0.05772(18)
N3A N 0.4837(3) 0.60806(14) 0.05201(18)
N3C N 0.5163(3) 0.39194(14) -0.05201(18)
C1A C 0.2824(4) 1.02798(18) 0.1627(2)
C2A C 0.1739(4) 1.02692(19) 0.2019(2)
H1A H 0.1399 1.0681 0.2207
C3A C 0.1171(3) 0.96306(18) 0.2123(2)
C4A C 0.1644(3) 0.90167(18) 0.1839(2)
H2A H 0.1243 0.8587 0.1908
C5A C 0.2739(3) 0.90618(17) 0.1445(2)
C6A C 0.3334(4) 0.96878(19) 0.1319(2)
H3A H 0.4052 0.9711 0.1036
C7A C 0.4198(5) 1.3018(2) 0.1235(4)
H4A H 0.3532 1.3326 0.1026
C8A C 0.3866(4) 1.2335(2) 0.1326(3)
H5A H 0.3003 1.2187 0.1183
C9A C 0.4825(4) 1.18688(19) 0.1632(2)
C10A C 0.6099(4) 1.2120(2) 0.1841(3)
H6A H 0.6775 1.1821 0.2057
C11A C 0.6333(5) 1.2821(2) 0.1719(3)
H7A H 0.7189 1.2985 0.1853
C12A C 0.4556(4) 1.1115(2) 0.1779(2)
C13A C -0.3288(4) 0.9889(2) 0.3626(2)
H8A H -0.4064 1.0056 0.3331
C14A C -0.2219(4) 0.9799(2) 0.3217(2)
H9A H -0.2273 0.9900 0.2662
C15A C -0.1064(3) 0.95535(19) 0.3659(2)
C16A C -0.1039(3) 0.9401(2) 0.4469(2)
H10A H -0.0280 0.9224 0.4774
C17A C -0.2148(3) 0.9510(2) 0.4833(2)
H11A H -0.2112 0.9413 0.5388
C18A C 0.0181(3) 0.9487(2) 0.3296(2)
C19A C 0.5805(4) 0.6428(2) 0.0967(3)
H12A H 0.6598 0.6196 0.1116
C20A C 0.5701(4) 0.7120(2) 0.1227(3)
H13A H 0.6414 0.7348 0.1524
C21A C 0.4508(4) 0.74600(19) 0.1031(2)
C22A C 0.3484(4) 0.70959(19) 0.0581(3)
H14A H 0.2667 0.7306 0.0442
C23A C 0.3699(4) 0.64180(19) 0.0345(3)
H15A H 0.3003 0.6179 0.0044
C24A C 0.4373(4) 0.81906(19) 0.1327(3)
loop_
_geom_bond_atom_site_label_1
_geom_bond_atom_site_label_2
_geom_bond_site_symmetry_1
_geom_bond_site_symmetry_2
Zn1 O2 1_555 1_555
O1 C1 1_555 1_555
O3 C5 1_555 1_555
O4 C3 1_555 1_555
O5 C12 1_555 1_555
O6 C18 1_555 1_555
O7 C24 1_555 1_555
N1 C7 1_555 1_555
N2 Zn1 1_555 1_555
N3 C19 1_555 1_555
C1 C2 1_555 1_555
C2 H1 1_555 1_555
C3 C2 1_555 1_555
C4 C3 1_555 1_555
H2 C4 1_555 1_555
C5 C4 1_555 1_555
C6 C1 1_555 1_555
H3 C6 1_555 1_555
C7 H4 1_555 1_555
C8 C7 1_555 1_555
H5 C8 1_555 1_555
C9 C8 1_555 1_555
C10 C9 1_555 1_555
H6 C10 1_555 1_555
C11 N1 1_555 1_555
H7 C11 1_555 1_555
C12 O1 1_555 1_555
C13 N2 1_555 1_555
H8 C13 1_555 1_555
C14 C13 1_555 1_555
H9 C14 1_555 1_555
C15 C14 1_555 1_555
C16 C15 1_555 1_555
H10 C16 1_555 1_555
C17 N2 1_555 1_555
H11 C17 1_555 1_555
C18 O4 1_555 1_555
C19 H12 1_555 1_555
C20 C19 1_555 1_555
H13 C20 1_555 1_555
C21 C20 1_555 1_555
C22 C21 1_555 1_555
H14 C22 1_555 1_555
C23 N3 1_555 1_555
H15 C23 1_555 1_555
C24 O3 1_555 1_555
C25 C26 1_555 1_555
C26 H16 1_555 1_555
C27 C26 1_555 1_555
H17 C27 1_555 1_555
C28 C27 1_555 1_555
H18 C28 1_555 1_555
C29 C28 1_555 1_555
C30 C25 1_555 1_555
C31 C25 1_555 1_555
H19 C31 1_555 1_555
C32 C29 1_555 1_555
H20 C32 1_555 1_555
P1 F1 1_555 1_555
F2 P1 1_555 1_555
F3 P1 1_555 1_555
F4 P1 1_555 1_555
F5 P1 1_555 1_555
F6 P1 1_555 1_555
Zn1A N3 1_555 1_555
Zn1A_2 N2A 1_555 1_555
O1A C1A 1_555 1_555
O2B Zn1 1_555 1_555
O3A C5A 1_555 1_555
O4A C3A 1_555 1_555
O5A C12A 1_555 1_555
O6A C18A 1_555 1_555
O7A C24A 1_555 1_555
N1A C7A 1_555 1_555
N2A C13A 1_555 1_555
N2B Zn1 1_555 1_555
N3A Zn1 1_555 1_555
N3C Zn1 1_555 1_555
C1A C2A 1_555 1_555
C2A H1A 1_555 1_555
C3A C2A 1_555 1_555
C4A C3A 1_555 1_555
H2A C4A 1_555 1_555
C5A C4A 1_555 1_555
C6A C1A 1_555 1_555
H3A C6A 1_555 1_555
C7A H4A 1_555 1_555
C8A C7A 1_555 1_555
H5A C8A 1_555 1_555
C9A C8A 1_555 1_555
C10A C9A 1_555 1_555
H6A C10A 1_555 1_555
C11A N1A 1_555 1_555
H7A C11A 1_555 1_555
C12A O1A 1_555 1_555
C13A H8A 1_555 1_555
C14A C13A 1_555 1_555
H9A C14A 1_555 1_555
C15A C14A 1_555 1_555
C16A C15A 1_555 1_555
H10A C16A 1_555 1_555
C17A N2A 1_555 1_555
H11A C17A 1_555 1_555
C18A O4A 1_555 1_555
C19A N3A 1_555 1_555
H12A C19A 1_555 1_555
C20A C19A 1_555 1_555
H13A C20A 1_555 1_555
C21A C20A 1_555 1_555
C22A C21A 1_555 1_555
H14A C22A 1_555 1_555
C23A N3A 1_555 1_555
H15A C23A 1_555 1_555
C24A O3A 1_555 1_555
C25B C26B 1_555 1_555
C26B H16B 1_555 1_555
C27B C26B 1_555 1_555
H17B C27B 1_555 1_555
C28B C27B 1_555 1_555
H18B C28B 1_555 1_555
C29B C28B 1_555 1_555
C30B C30 1_555 1_555
C31B C32 1_555 1_555
H19B C31B 1_555 1_555
C32B C31 1_555 1_555
H20B C32B 1_555 1_555
C5 C6 1_555 1_555
C9 C12 1_555 1_555
C10 C11 1_555 1_555
C15 C18 1_555 1_555
C16 C17 1_555 1_555
C21 C24 1_555 1_555
C22 C23 1_555 1_555
C29 C30 1_555 1_555
C5A C6A 1_555 1_555
C9A C12A 1_555 1_555
C10A C11A 1_555 1_555
C15A C18A 1_555 1_555
C16A C17A 1_555 1_555
C21A C24A 1_555 1_555
C22A C23A 1_555 1_555
C25B C30B 1_555 1_555
C25B C31B 1_555 1_555
C29B C30B 1_555 1_555
C29B C32B 1_555 1_555

#END
