
#######################################################################
#
#                 Cambridge Crystallographic Data Centre
#                                CCDC 
#
#######################################################################
#
# If this CIF has been generated from an entry in the Cambridge 
# Structural Database, then it will include bibliographic, chemical, 
# crystal, experimental, refinement or atomic coordinate data resulting 
# from the CCDC's data processing and validation procedures.
#
#######################################################################

data_SAQPOR
_symmetry_cell_setting           monoclinic
_symmetry_space_group_name_H-M   'P 21/c'
_symmetry_Int_Tables_number      14
_space_group_name_Hall           '-P 2ybc'
loop_
_symmetry_equiv_pos_site_id
_symmetry_equiv_pos_as_xyz
1 x,y,z
2 -x,1/2+y,1/2-z
3 -x,-y,-z
4 x,1/2-y,1/2+z
_cell_length_a                   10.484(3)
_cell_length_b                   19.181(5)
_cell_length_c                   16.381(4)
_cell_angle_alpha                90
_cell_angle_beta                 99.553(8)
_cell_angle_gamma                90
_cell_volume                     3248.43
loop_
_atom_site_label
_atom_site_type_symbol
_atom_site_fract_x
_atom_site_fract_y
_atom_site_fract_z
P1 P -0.4951(4) 0.3163(2) 0.3326(3)
F1 F -0.5861(14) 0.3297(14) 0.3896(13)
F2 F -0.5712(11) 0.3466(9) 0.2578(8)
F3 F -0.557(2) 0.2519(7) 0.3218(10)
F4 F -0.3852(13) 0.3075(7) 0.2805(9)
F5 F -0.4399(11) 0.3910(5) 0.3512(5)
F6 F -0.3963(12) 0.2943(7) 0.4093(9)
C25 C -0.4429(11) 0.0041(8) 0.4826(7)
C26 C -0.3816(15) -0.0523(11) 0.4508(9)
C27 C -0.3915(14) 0.0742(9) 0.4779(9)
C28 C -0.4581(18) 0.1279(8) 0.5108(9)
H16 H -0.4265 0.1729 0.5067
C29 C -0.2216(17) 0.0282(16) 0.4113(11)
H17 H -0.1467 0.0349 0.3888
C30 C -0.4357(19) -0.1213(11) 0.4519(10)
H18 H -0.4001 -0.1593 0.4284
C31 C -0.2824(18) 0.0831(14) 0.4415(10)
H19 H -0.2497 0.1278 0.4375
C32 C -0.2759(18) -0.0404(12) 0.4150(10)
H20 H -0.2373 -0.0777 0.3922
C25B C -0.5571(11) -0.0041(8) 0.5174(7)
C26B C -0.6184(15) 0.0523(11) 0.5492(9)
C27B C -0.6085(14) -0.0742(9) 0.5221(9)
C28B C -0.5419(18) -0.1279(8) 0.4892(9)
H16B H -0.5735 -0.1729 0.4933
C29B C -0.7784(17) -0.0282(16) 0.5887(11)
H17B H -0.8533 -0.0349 0.6112
C30B C -0.5643(19) 0.1213(11) 0.5481(10)
H18B H -0.5999 0.1593 0.5716
C31B C -0.7176(18) -0.0831(14) 0.5585(10)
H19B H -0.7503 -0.1278 0.5625
C32B C -0.7241(18) 0.0404(12) 0.5850(10)
H20B H -0.7627 0.0777 0.6078
Cd1 Cd 0.0000 0.0000 0.0000
O1 O 0.1138(5) 0.0404(3) 0.1234(3)
O2 O -0.8126(5) 0.1555(3) 0.3844(4)
O3 O -0.8284(5) -0.0961(3) 0.3453(4)
O4 O -0.5041(5) 0.0384(3) 0.2514(4)
C1 C -0.7737(8) 0.0919(4) 0.3535(5)
C2 C -0.8323(8) 0.0300(4) 0.3642(5)
H1 H -0.9041 0.0274 0.3907
C3 C -0.7797(8) -0.0289(4) 0.3337(5)
C4 C -0.6729(8) -0.0271(4) 0.2943(5)
H2 H -0.6410 -0.0673 0.2732
C5 C -0.6168(7) 0.0361(5) 0.2877(5)
C6 C -0.6649(7) 0.0976(4) 0.3157(5)
H3 H -0.6262 0.1405 0.3093
O5 O -1.0224(7) 0.1419(4) 0.3339(6)
N1 N -0.9803(7) 0.3859(3) 0.4468(4)
C7 C -0.8672(8) 0.3543(5) 0.4614(6)
H4 H -0.7970 0.3791 0.4893
C8 C -0.8463(9) 0.2866(4) 0.4380(6)
H5 H -0.7642 0.2670 0.4499
C9 C -0.9483(8) 0.2488(4) 0.3970(6)
C10 C -1.0688(8) 0.2806(4) 0.3799(6)
H6 H -1.1406 0.2568 0.3526
C11 C -1.0783(9) 0.3496(4) 0.4051(6)
H7 H -1.1581 0.3717 0.3920
C12 C -0.9343(9) 0.1764(5) 0.3691(6)
O6 O -1.0331(7) -0.0684(4) 0.2939(6)
N2 N -1.0438(10) -0.3245(5) 0.3523(6)
C13 C -0.9229(12) -0.3007(6) 0.3707(8)
H8 H -0.8587 -0.3324 0.3916
C14 C -0.8854(11) -0.2314(5) 0.3610(7)
H9 H -0.7992 -0.2177 0.3728
C15 C -0.9803(9) -0.1857(5) 0.3339(6)
C16 C -1.1077(10) -0.2073(5) 0.3139(6)
H10 H -1.1729 -0.1761 0.2932
C17 C -1.1347(11) -0.2771(6) 0.3260(7)
H11 H -1.2206 -0.2916 0.3152
C18 C -0.9529(10) -0.1115(5) 0.3214(6)
O7 O -0.6218(6) 0.0681(5) 0.1305(4)
N3 N -0.1829(6) 0.0266(3) 0.0596(5)
C19 C -0.1810(8) 0.0117(5) 0.1391(7)
H12 H -0.1045 -0.0055 0.1692
C20 C -0.2854(8) 0.0203(5) 0.1800(6)
H13 H -0.2790 0.0094 0.2358
C21 C -0.3993(7) 0.0453(4) 0.1353(6)
C22 C -0.4005(8) 0.0624(5) 0.0560(6)
H14 H -0.4739 0.0825 0.0253
C23 C -0.2921(8) 0.0502(5) 0.0197(6)
H15 H -0.2979 0.0594 -0.0365
C24 C -0.5215(8) 0.0515(5) 0.1714(6)
Cd1A Cd -1.0000 0.5000 0.5000
Cd1A_2 Cd 1.0000 -0.5000 -0.5000
O1B O -0.1138(5) -0.0404(3) -0.1234(3)
O2B O 0.8126(5) -0.1555(3) -0.3844(4)
O3B O 0.8284(5) 0.0961(3) -0.3453(4)
O4B O 0.5041(5) -0.0384(3) -0.2514(4)
C1B C 0.7737(8) -0.0919(4) -0.3535(5)
C2B C 0.8323(8) -0.0300(4) -0.3642(5)
H1B H 0.9041 -0.0274 -0.3907
C3B C 0.7797(8) 0.0289(4) -0.3337(5)
C4B C 0.6729(8) 0.0271(4) -0.2943(5)
H2B H 0.6410 0.0673 -0.2732
C5B C 0.6168(7) -0.0361(5) -0.2877(5)
C6B C 0.6649(7) -0.0976(4) -0.3157(5)
H3B H 0.6262 -0.1405 -0.3093
O5B O 1.0224(7) -0.1419(4) -0.3339(6)
N1B N 0.9803(7) -0.3859(3) -0.4468(4)
N1A N -0.0197(7) -0.1141(3) 0.0532(4)
N1C N 0.0197(7) 0.1141(3) -0.0532(4)
C7B C 0.8672(8) -0.3543(5) -0.4614(6)
H4B H 0.7970 -0.3791 -0.4893
C8B C 0.8463(9) -0.2866(4) -0.4380(6)
H5B H 0.7642 -0.2670 -0.4499
C9B C 0.9483(8) -0.2488(4) -0.3970(6)
C10B C 1.0688(8) -0.2806(4) -0.3799(6)
H6B H 1.1406 -0.2568 -0.3526
C11B C 1.0783(9) -0.3496(4) -0.4051(6)
H7B H 1.1581 -0.3717 -0.3920
C12B C 0.9343(9) -0.1764(5) -0.3691(6)
O6B O 1.0331(7) 0.0684(4) -0.2939(6)
N2B N 1.0438(10) 0.3245(5) -0.3523(6)
C13B C 0.9229(12) 0.3007(6) -0.3707(8)
H8B H 0.8587 0.3324 -0.3916
C14B C 0.8854(11) 0.2314(5) -0.3610(7)
H9B H 0.7992 0.2177 -0.3728
C15B C 0.9803(9) 0.1857(5) -0.3339(6)
C16B C 1.1077(10) 0.2073(5) -0.3139(6)
H10B H 1.1729 0.1761 -0.2932
C17B C 1.1347(11) 0.2771(6) -0.3260(7)
H11B H 1.2206 0.2916 -0.3152
C18B C 0.9529(10) 0.1115(5) -0.3214(6)
O7B O 0.6218(6) -0.0681(5) -0.1305(4)
N3B N 0.1829(6) -0.0266(3) -0.0596(5)
C19B C 0.1810(8) -0.0117(5) -0.1391(7)
H12B H 0.1045 0.0055 -0.1692
C20B C 0.2854(8) -0.0203(5) -0.1800(6)
H13B H 0.2790 -0.0094 -0.2358
C21B C 0.3993(7) -0.0453(4) -0.1353(6)
C22B C 0.4005(8) -0.0624(5) -0.0560(6)
H14B H 0.4739 -0.0825 -0.0253
C23B C 0.2921(8) -0.0502(5) -0.0197(6)
H15B H 0.2979 -0.0594 0.0365
C24B C 0.5215(8) -0.0515(5) -0.1714(6)
loop_
_geom_bond_atom_site_label_1
_geom_bond_atom_site_label_2
_geom_bond_site_symmetry_1
_geom_bond_site_symmetry_2
Cd1 O1 1_555 1_555
P1 F1 1_555 1_555
F2 P1 1_555 1_555
F3 P1 1_555 1_555
F4 P1 1_555 1_555
F5 P1 1_555 1_555
F6 P1 1_555 1_555
O2 C1 1_555 1_555
O3 C3 1_555 1_555
O4 C5 1_555 1_555
C1 C2 1_555 1_555
C2 H1 1_555 1_555
C3 C2 1_555 1_555
C4 C3 1_555 1_555
H2 C4 1_555 1_555
C5 C4 1_555 1_555
C6 C1 1_555 1_555
H3 C6 1_555 1_555
O5 C12 1_555 1_555
N1 C7 1_555 1_555
C7 H4 1_555 1_555
C8 C7 1_555 1_555
H5 C8 1_555 1_555
C9 C8 1_555 1_555
C10 C9 1_555 1_555
H6 C10 1_555 1_555
C11 N1 1_555 1_555
H7 C11 1_555 1_555
C12 O2 1_555 1_555
O6 C18 1_555 1_555
N2 C13 1_555 1_555
C13 H8 1_555 1_555
C14 C13 1_555 1_555
H9 C14 1_555 1_555
C15 C14 1_555 1_555
C16 C15 1_555 1_555
H10 C16 1_555 1_555
C17 N2 1_555 1_555
H11 C17 1_555 1_555
C18 O3 1_555 1_555
O7 C24 1_555 1_555
N3 Cd1 1_555 1_555
C19 N3 1_555 1_555
H12 C19 1_555 1_555
C20 C19 1_555 1_555
H13 C20 1_555 1_555
C21 C20 1_555 1_555
C22 C21 1_555 1_555
H14 C22 1_555 1_555
C23 N3 1_555 1_555
H15 C23 1_555 1_555
C24 O4 1_555 1_555
C25 C26 1_555 1_555
C26 C30 1_555 1_555
C27 C25 1_555 1_555
C28 C27 1_555 1_555
H16 C28 1_555 1_555
C29 H17 1_555 1_555
C30 H18 1_555 1_555
C31 C27 1_555 1_555
H19 C31 1_555 1_555
C32 C26 1_555 1_555
H20 C32 1_555 1_555
Cd1A N1 1_555 1_555
Cd1A_2 N1B 1_555 1_555
O1B Cd1 1_555 1_555
O2B C1B 1_555 1_555
O3B C3B 1_555 1_555
O4B C5B 1_555 1_555
C1B C2B 1_555 1_555
C2B H1B 1_555 1_555
C3B C2B 1_555 1_555
C4B C3B 1_555 1_555
H2B C4B 1_555 1_555
C5B C4B 1_555 1_555
C6B C1B 1_555 1_555
H3B C6B 1_555 1_555
O5B C12B 1_555 1_555
N1B C7B 1_555 1_555
N1A Cd1 1_555 1_555
N1C Cd1 1_555 1_555
C7B H4B 1_555 1_555
C8B C7B 1_555 1_555
H5B C8B 1_555 1_555
C9B C8B 1_555 1_555
C10B C9B 1_555 1_555
H6B C10B 1_555 1_555
C11B N1B 1_555 1_555
H7B C11B 1_555 1_555
C12B O2B 1_555 1_555
O6B C18B 1_555 1_555
N2B C13B 1_555 1_555
C13B H8B 1_555 1_555
C14B C13B 1_555 1_555
H9B C14B 1_555 1_555
C15B C14B 1_555 1_555
C16B C15B 1_555 1_555
H10B C16B 1_555 1_555
C17B N2B 1_555 1_555
H11B C17B 1_555 1_555
C18B O3B 1_555 1_555
O7B C24B 1_555 1_555
N3B Cd1 1_555 1_555
C19B N3B 1_555 1_555
H12B C19B 1_555 1_555
C20B C19B 1_555 1_555
H13B C20B 1_555 1_555
C21B C20B 1_555 1_555
C22B C21B 1_555 1_555
H14B C22B 1_555 1_555
C23B N3B 1_555 1_555
H15B C23B 1_555 1_555
C24B O4B 1_555 1_555
C25B C25 1_555 1_555
C26B C25B 1_555 1_555
C27B C25B 1_555 1_555
C28B C30 1_555 1_555
H16B C28B 1_555 1_555
C29B H17B 1_555 1_555
C30B C28 1_555 1_555
H18B C30B 1_555 1_555
C31B C27B 1_555 1_555
H19B C31B 1_555 1_555
C32B C26B 1_555 1_555
H20B C32B 1_555 1_555
C5 C6 1_555 1_555
C9 C12 1_555 1_555
C10 C11 1_555 1_555
C15 C18 1_555 1_555
C16 C17 1_555 1_555
C21 C24 1_555 1_555
C22 C23 1_555 1_555
C29 C31 1_555 1_555
C29 C32 1_555 1_555
C5B C6B 1_555 1_555
C9B C12B 1_555 1_555
C10B C11B 1_555 1_555
C15B C18B 1_555 1_555
C16B C17B 1_555 1_555
C21B C24B 1_555 1_555
C22B C23B 1_555 1_555
C26B C30B 1_555 1_555
C27B C28B 1_555 1_555
C29B C31B 1_555 1_555
C29B C32B 1_555 1_555

#END
