
#######################################################################
#
#                 Cambridge Crystallographic Data Centre
#                                CCDC 
#
#######################################################################
#
# If this CIF has been generated from an entry in the Cambridge 
# Structural Database, then it will include bibliographic, chemical, 
# crystal, experimental, refinement or atomic coordinate data resulting 
# from the CCDC's data processing and validation procedures.
#
#######################################################################

data_SAQQUX01
_symmetry_cell_setting           triclinic
_symmetry_space_group_name_H-M   'P -1'
_symmetry_Int_Tables_number      2
_space_group_name_Hall           '-P 1'
loop_
_symmetry_equiv_pos_site_id
_symmetry_equiv_pos_as_xyz
1 x,y,z
2 -x,-y,-z
_cell_length_a                   9.4351(5)
_cell_length_b                   10.8065(6)
_cell_length_c                   11.1035(6)
_cell_angle_alpha                87.8480(10)
_cell_angle_beta                 74.0430(10)
_cell_angle_gamma                80.0070(10)
_cell_volume                     1071.92
loop_
_atom_site_label
_atom_site_type_symbol
_atom_site_fract_x
_atom_site_fract_y
_atom_site_fract_z
Mn1 Mn 0.36335(5) 0.92556(4) 0.13182(4)
Mn2 Mn 0.47633(5) 0.58640(4) 0.15650(4)
O1 O 0.1890(2) 0.87004(19) 0.30324(18)
O2 O 0.1099(2) 0.86744(19) 0.51133(17)
O3 O 0.5278(2) 1.07877(18) 0.07572(17)
O4 O 0.6451(2) 1.20848(19) 0.15022(18)
O5 O 0.3779(2) 1.20395(19) 0.62020(17)
H1 H 0.4393 1.2550 0.6099
O6 O 0.3961(2) 0.42956(18) 0.05136(18)
O7 O 0.2290(2) 0.3009(2) 0.07170(19)
O8 O 0.4395(2) 0.65328(19) 0.36384(18)
O9 O 0.3493(2) 0.61383(19) 0.56644(18)
O10 O 0.0198(2) 0.29659(18) 0.55144(18)
H2 H -0.0134 0.2391 0.5228
O11 O 0.5732(2) 0.78265(18) 0.14039(17)
H3 H 0.6423 0.7615 0.0736
H4 H 0.6130 0.8050 0.1942
O12 O 0.3116(2) 0.72888(18) 0.08905(18)
H5 H 0.3148 0.7439 0.0127
H6 H 0.2268 0.7075 0.1215
O13 O 0.1709(3) 1.0327(2) 0.0871(2)
H7 H 0.2047 1.0929 0.1106
H8 H 0.1641 1.0469 0.0129
O14 O 0.6687(3) 0.4694(3) 0.1982(2)
H9 H 0.6519 0.4292 0.2666
H10 H 0.7565 0.4825 0.1927
N1 N 0.3737(2) 1.0245(2) 0.3008(2)
N2 N 0.3132(3) 0.4814(2) 0.2931(2)
C1 C 0.2846(3) 1.0015(2) 0.4141(2)
C2 C 0.2834(3) 1.0605(3) 0.5223(2)
H11 H 0.2180 1.0430 0.6004
C3 C 0.3802(3) 1.1462(3) 0.5150(2)
C4 C 0.4740(3) 1.1705(3) 0.3978(2)
H12 H 0.5414 1.2282 0.3895
C5 C 0.4650(3) 1.1074(2) 0.2946(2)
C6 C 0.1865(3) 0.9057(3) 0.4092(3)
C7 C 0.5553(3) 1.1336(3) 0.1637(2)
C8 C 0.2453(3) 0.3971(3) 0.2551(3)
C9 C 0.1446(3) 0.3318(3) 0.3356(3)
H13 H 0.0976 0.2741 0.3043
C10 C 0.1141(3) 0.3535(3) 0.4644(3)
C11 C 0.1870(3) 0.4389(3) 0.5045(3)
H14 H 0.1707 0.4540 0.5914
C12 C 0.2827(3) 0.5011(3) 0.4171(3)
C13 C 0.2929(3) 0.3731(3) 0.1145(3)
C14 C 0.3628(3) 0.5967(3) 0.4542(3)
Mn1A Mn 0.63665(5) 1.07444(4) -0.13182(4)
Mn2A Mn 0.52367(5) 0.41360(4) -0.15650(4)
O3A O 0.4722(2) 0.92123(18) -0.07572(17)
O6A O 0.6039(2) 0.57044(18) -0.05136(18)
O15 O 0.0291(2) 0.6923(2) 0.1907(2)
H15 H 0.0198 0.6992 0.2819
H16 H 0.0081 0.6215 0.1775
O16 O 0.8423(3) 0.9091(2) 0.1468(2)
H17 H 0.8941 0.9605 0.1620
H18 H 0.9002 0.8398 0.1489
O17 O 0.8985(3) 0.1288(4) 0.2435(3)
H19 H 0.8137 0.1526 0.2297
H20 H 0.8885 0.1386 0.3211
O18 O 0.9576(4) 0.4678(4) 0.1220(4)
H21 H 1.0402 0.4175 0.1095
H22 H 0.9782 0.5066 0.0530
H23? H 0.8284 0.1573 0.2302
H24? H 0.8921 0.1470 0.3043
H25? H 1.0326 0.3788 0.0508
H26? H 0.9403 0.3405 0.0313
O19? O 0.9065(14) 0.1841(11) 0.2342(12)
O20? O 0.964(3) 0.413(2) 0.018(2)
loop_
_geom_bond_atom_site_label_1
_geom_bond_atom_site_label_2
_geom_bond_site_symmetry_1
_geom_bond_site_symmetry_2
Mn1 O1 1_555 1_555
Mn2 O6 1_555 1_555
O1 C6 1_555 1_555
O2 C6 1_555 1_555
O3 Mn1 1_555 1_555
O4 C7 1_555 1_555
O5 H1 1_555 1_555
O6 C13 1_555 1_555
O7 C13 1_555 1_555
O8 Mn2 1_555 1_555
O9 C14 1_555 1_555
O10 H2 1_555 1_555
O11 Mn1 1_555 1_555
H3 O11 1_555 1_555
H4 O11 1_555 1_555
O12 Mn1 1_555 1_555
H5 O12 1_555 1_555
H6 O12 1_555 1_555
O13 Mn1 1_555 1_555
H7 O13 1_555 1_555
H8 O13 1_555 1_555
O14 Mn2 1_555 1_555
H9 O14 1_555 1_555
H10 O14 1_555 1_555
N1 Mn1 1_555 1_555
N2 Mn2 1_555 1_555
C1 N1 1_555 1_555
C2 C1 1_555 1_555
H11 C2 1_555 1_555
C3 O5 1_555 1_555
C4 C3 1_555 1_555
H12 C4 1_555 1_555
C5 N1 1_555 1_555
C6 C1 1_555 1_555
C7 O3 1_555 1_555
C8 N2 1_555 1_555
C9 C8 1_555 1_555
H13 C9 1_555 1_555
C10 O10 1_555 1_555
C11 C10 1_555 1_555
H14 C11 1_555 1_555
C12 N2 1_555 1_555
C13 C8 1_555 1_555
C14 O8 1_555 1_555
O15 H15 1_555 1_555
H16 O15 1_555 1_555
O16 H17 1_555 1_555
H18 O16 1_555 1_555
O17 H19 1_555 1_555
H20 O17 1_555 1_555
O18 H21 1_555 1_555
H22 O18 1_555 1_555
Mn1A O3 1_555 1_555
Mn2A O6 1_555 1_555
O3A Mn1 1_555 1_555
O6A Mn2 1_555 1_555
Mn2 O11 1_555 1_555
Mn2 O12 1_555 1_555
C2 C3 1_555 1_555
C4 C5 1_555 1_555
C5 C7 1_555 1_555
C9 C10 1_555 1_555
C11 C12 1_555 1_555
C12 C14 1_555 1_555
Mn1A O3A 1_555 1_555
Mn2A O6A 1_555 1_555

#END
