
#######################################################################
#
#                 Cambridge Crystallographic Data Centre
#                                CCDC 
#
#######################################################################
#
# If this CIF has been generated from an entry in the Cambridge 
# Structural Database, then it will include bibliographic, chemical, 
# crystal, experimental, refinement or atomic coordinate data resulting 
# from the CCDC's data processing and validation procedures.
#
#######################################################################

data_SAQQOR
_symmetry_cell_setting           monoclinic
_symmetry_space_group_name_H-M   'C 2/c'
_symmetry_Int_Tables_number      15
_space_group_name_Hall           '-C 2yn'
loop_
_symmetry_equiv_pos_site_id
_symmetry_equiv_pos_as_xyz
1 x,y,z
2 1/2+x,1/2+y,z
3 -x,y,1/2-z
4 1/2-x,1/2+y,1/2-z
5 -x,-y,-z
6 1/2-x,1/2-y,-z
7 x,-y,1/2+z
8 1/2+x,1/2-y,1/2+z
_cell_length_a                   25.1904(14)
_cell_length_b                   17.1122(14)
_cell_length_c                   18.5799(12)
_cell_angle_alpha                90
_cell_angle_beta                 106.789(2)
_cell_angle_gamma                90
_cell_volume                     7667.72
loop_
_atom_site_label
_atom_site_type_symbol
_atom_site_fract_x
_atom_site_fract_y
_atom_site_fract_z
Y1 Y -0.002750(17) 0.45918(3) 0.10460(3)
O1 O 0.06483(15) 0.5559(2) 0.1307(2)
O2 O -0.44761(15) 0.0700(2) -0.2807(2)
O3 O -0.04895(15) 0.5725(2) 0.0588(2)
O4 O -0.42894(13) 0.0314(2) -0.1624(2)
O5 O -0.0263(2) 0.3265(2) 0.1190(3)
O6 O -0.05735(15) 0.4272(3) -0.0113(2)
O7 O -0.06198(15) 0.6063(2) -0.0609(2)
C1 C -0.1944(3) 0.2822(5) -0.1926(4)
C2 C -0.2164(2) 0.2525(4) -0.1389(3)
C3 C -0.2656(2) 0.1994(4) -0.1583(3)
C4 C -0.3064(3) 0.2088(5) -0.2298(4)
C5 C -0.3529(3) 0.1624(4) -0.2475(3)
C6 C -0.3634(2) 0.1102(3) -0.1964(3)
C7 C -0.3234(2) 0.1016(4) -0.1274(3)
C8 C -0.2755(3) 0.1453(4) -0.1097(4)
C9 C -0.41681(19) 0.0657(3) -0.2150(3)
C10 C -0.2249(2) 0.7294(4) 0.0003(3)
C11 C -0.1979(3) 0.6789(5) 0.0585(4)
C12 C -0.1496(3) 0.6403(5) 0.0582(4)
C13 C -0.1254(2) 0.6504(3) 0.0021(3)
C14 C -0.1498(3) 0.7049(5) -0.0540(4)
C15 C -0.1982(3) 0.7416(5) -0.0548(4)
C16 C -0.0746(2) 0.6059(3) 0.0002(3)
C17 C -0.1922(3) 0.2744(5) -0.0650(4)
C18 C -0.1471(3) 0.3236(5) -0.0451(4)
C19 C -0.1253(2) 0.3556(4) -0.0993(3)
C20 C -0.1490(3) 0.3329(5) -0.1747(4)
C21 C 0.0794(2) 0.5883(3) 0.0796(3)
Y1D Y 0.002750(17) 0.54082(3) -0.10460(3)
Y1A Y 0.497250(17) 0.95918(3) 0.10460(3)
Y1E Y -0.497250(17) 0.04082(3) -0.10460(3)
Y1A_2 Y -0.502750(17) 0.95918(3) 0.10460(3)
Y1E_2 Y -0.497250(17) 1.04082(3) -0.10460(3)
Y1G Y -0.502750(17) 0.04082(3) -0.39540(3)
Y1C Y 0.502750(17) 0.95918(3) 0.39540(3)
O1D O -0.06483(15) 0.4441(2) -0.1307(2)
O2C O -0.05239(15) 0.5700(2) -0.2193(2)
O2G O 0.05239(15) 0.4300(2) 0.2193(2)
O2D O 0.44761(15) 0.9300(2) 0.2807(2)
O3D O 0.04895(15) 0.4275(2) -0.0588(2)
O3E O -0.45105(15) 0.9275(2) -0.0588(2)
O4A O 0.07106(13) 0.5314(2) -0.1624(2)
O4E O -0.07106(13) 0.4686(2) 0.1624(2)
O4D O 0.42894(13) 0.9686(2) 0.1624(2)
O5D O 0.0263(2) 0.6735(2) -0.1190(3)
O6D O 0.05735(15) 0.5728(3) 0.0113(2)
O7D O 0.06198(15) 0.3937(2) 0.0609(2)
O7E O -0.43802(15) 0.8937(2) 0.0609(2)
C1D C 0.1944(3) 0.7178(5) 0.1926(4)
C2D C 0.2164(2) 0.7475(4) 0.1389(3)
C3D C 0.2656(2) 0.8006(4) 0.1583(3)
C4D C 0.3064(3) 0.7912(5) 0.2298(4)
C5D C 0.3529(3) 0.8376(4) 0.2475(3)
C6D C 0.3634(2) 0.8898(3) 0.1964(3)
C7D C 0.3234(2) 0.8984(4) 0.1274(3)
C8D C 0.2755(3) 0.8547(4) 0.1097(4)
C9D C 0.41681(19) 0.9343(3) 0.2150(3)
C10E C -0.2751(2) 0.7706(4) -0.0003(3)
C11E C -0.3021(3) 0.8211(5) -0.0585(4)
C12E C -0.3504(3) 0.8597(5) -0.0582(4)
C13E C -0.3746(2) 0.8496(3) -0.0021(3)
C14E C -0.3502(3) 0.7951(5) 0.0540(4)
C15E C -0.3018(3) 0.7584(5) 0.0548(4)
C16E C -0.4254(2) 0.8941(3) -0.0002(3)
C17D C 0.1922(3) 0.7256(5) 0.0650(4)
C18D C 0.1471(3) 0.6764(5) 0.0451(4)
C19D C 0.1253(2) 0.6444(4) 0.0993(3)
C20D C 0.1490(3) 0.6671(5) 0.1747(4)
C21D C -0.0794(2) 0.4117(3) -0.0796(3)
loop_
_geom_bond_atom_site_label_1
_geom_bond_atom_site_label_2
_geom_bond_site_symmetry_1
_geom_bond_site_symmetry_2
Y1 O1 1_555 1_555
O1 C21 1_555 1_555
O2 C9 1_555 1_555
O3 Y1 1_555 1_555
O4 C9 1_555 1_555
O5 Y1 1_555 1_555
O6 Y1 1_555 1_555
O7 C16 1_555 1_555
C1 C2 1_555 1_555
C2 C3 1_555 1_555
C3 C4 1_555 1_555
C4 C5 1_555 1_555
C5 C6 1_555 1_555
C6 C7 1_555 1_555
C7 C8 1_555 1_555
C8 C3 1_555 1_555
C9 C6 1_555 1_555
C10 C11 1_555 1_555
C11 C12 1_555 1_555
C12 C13 1_555 1_555
C13 C14 1_555 1_555
C14 C15 1_555 1_555
C15 C10 1_555 1_555
C16 O3 1_555 1_555
C17 C2 1_555 1_555
C18 C17 1_555 1_555
C19 C18 1_555 1_555
C20 C1 1_555 1_555
C21 O6D 1_555 1_555
Y1D O7 1_555 1_555
Y1A O4D 1_555 1_555
Y1E O4 1_555 1_555
Y1A_2 O7E 1_555 1_555
Y1E_2 O3E 1_555 1_555
Y1G O2 1_555 1_555
Y1C O2D 1_555 1_555
O1D Y1D 1_555 1_555
O2C Y1D 1_555 1_555
O2G Y1 1_555 1_555
O2D C9D 1_555 1_555
O3D Y1D 1_555 1_555
O3E C16E 1_555 1_555
O4A Y1D 1_555 1_555
O4E Y1 1_555 1_555
O4D C9D 1_555 1_555
O5D Y1D 1_555 1_555
O6D Y1D 1_555 1_555
O7D Y1 1_555 1_555
O7E C16E 1_555 1_555
C1D C2D 1_555 1_555
C2D C3D 1_555 1_555
C3D C4D 1_555 1_555
C4D C5D 1_555 1_555
C5D C6D 1_555 1_555
C6D C7D 1_555 1_555
C7D C8D 1_555 1_555
C8D C3D 1_555 1_555
C9D C6D 1_555 1_555
C10E C10 1_555 1_555
C11E C10E 1_555 1_555
C12E C11E 1_555 1_555
C13E C12E 1_555 1_555
C14E C13E 1_555 1_555
C15E C10E 1_555 1_555
C16E C13E 1_555 1_555
C17D C2D 1_555 1_555
C18D C17D 1_555 1_555
C19D C21 1_555 1_555
C20D C1D 1_555 1_555
C21D O6 1_555 1_555
C13 C16 1_555 1_555
C19 C20 1_555 1_555
C19 C21D 1_555 1_555
O1D C21D 1_555 1_555
C14E C15E 1_555 1_555
C18D C19D 1_555 1_555
C19D C20D 1_555 1_555

#END
