
#######################################################################
#
#                 Cambridge Crystallographic Data Centre
#                                CCDC 
#
#######################################################################
#
# If this CIF has been generated from an entry in the Cambridge 
# Structural Database, then it will include bibliographic, chemical, 
# crystal, experimental, refinement or atomic coordinate data resulting 
# from the CCDC's data processing and validation procedures.
#
#######################################################################

data_SAQSOU
_symmetry_cell_setting           monoclinic
_symmetry_space_group_name_H-M   'C 2/c'
_symmetry_Int_Tables_number      15
_space_group_name_Hall           '-C 2yn'
loop_
_symmetry_equiv_pos_site_id
_symmetry_equiv_pos_as_xyz
1 x,y,z
2 -x,y,1/2-z
3 1/2+x,1/2+y,z
4 1/2-x,1/2+y,1/2-z
5 -x,-y,-z
6 x,-y,1/2+z
7 1/2-x,1/2-y,-z
8 1/2+x,1/2-y,1/2+z
_cell_length_a                   15.165(3)
_cell_length_b                   26.907(5)
_cell_length_c                   23.715(5)
_cell_angle_alpha                90
_cell_angle_beta                 106.91(3)
_cell_angle_gamma                90
_cell_volume                     9258.38
loop_
_atom_site_label
_atom_site_type_symbol
_atom_site_fract_x
_atom_site_fract_y
_atom_site_fract_z
K1 K 0.0000 0.65722(19) 0.7500
N12 N -0.0392(7) 0.6971(4) 0.5530(5)
O2 O -0.0711(7) 0.6684(4) 0.6334(4)
C24 C 0.0212(10) 0.7256(5) 0.5297(6)
H29 H 0.0612 0.7452 0.5605
H30 H -0.0143 0.7472 0.4992
H31 H 0.0575 0.7037 0.5135
C25 C -0.0306(8) 0.6950(5) 0.6097(6)
H32 H 0.0118 0.7166 0.6338
C27 C -0.1044(11) 0.6644(6) 0.5120(6)
H36 H -0.0730 0.6349 0.5055
H37 H -0.1299 0.6813 0.4753
H38 H -0.1531 0.6554 0.5284
C26 C -0.3794(12) 0.6082(7) 0.7081(5)
H33 H -0.3818 0.6437 0.7030
H34 H -0.4051 0.5994 0.7392
H35 H -0.4143 0.5926 0.6721
N13 N -0.2898(13) 0.5927(8) 0.7221(7)
O3 O -0.1435(14) 0.6063(7) 0.7358(8)
C28 C -0.2199(19) 0.6178(10) 0.7205(9)
H39 H -0.2319 0.6496 0.7049
C29 C -0.2712(16) 0.5373(9) 0.7414(9)
H40 H -0.2906 0.5161 0.7075
H41 H -0.3049 0.5290 0.7687
H42 H -0.2065 0.5326 0.7601
W1 W 0.36878(2) 0.620420(12) 0.543426(14)
Cu1 Cu 0.27167(8) 0.55000(4) 0.57722(5)
Cu2 Cu 0.26015(8) 0.65649(4) 0.60510(5)
Cu3 Cu 0.19231(8) 0.62327(4) 0.48064(5)
S1 S 0.28350(15) 0.55822(8) 0.48705(10)
Cu4 Cu 0.16079(8) 0.76883(4) 0.74164(5)
S2 S 0.37164(16) 0.60023(8) 0.63817(10)
S3 S 0.27451(16) 0.68886(8) 0.52167(11)
Cu5 Cu 0.13589(8) 0.39661(4) 0.63495(5)
O1 O 0.1282(5) 0.6049(3) 0.5760(3)
N1 N 0.5756(5) 0.5855(3) 0.5540(3)
N2 N 0.4852(5) 0.6767(3) 0.5856(3)
N3 N 0.5116(5) 0.6429(3) 0.4695(3)
N4 N 0.4927(5) 0.5685(3) 0.5578(3)
C1 C 0.0693(7) 0.6199(3) 0.4310(4)
N5 N 0.2166(6) 0.4918(3) 0.5981(4)
C2 C 0.1845(7) 0.4560(3) 0.6114(5)
N6 N 0.4185(5) 0.6395(3) 0.4640(3)
N7 N 0.5675(5) 0.6761(3) 0.5712(3)
N8 N 0.2416(6) 0.8208(3) 0.7842(4)
N9 N -0.0050(6) 0.6136(3) 0.4033(4)
N10 N 0.1979(6) 0.7218(3) 0.6921(4)
C3 C 0.2190(6) 0.6952(3) 0.6591(4)
C4 C 0.6424(6) 0.5513(3) 0.5730(4)
C5 C 0.2893(6) 0.8507(3) 0.8125(4)
C6 C 0.6013(6) 0.5093(3) 0.5879(4)
H1 H 0.6299 0.4791 0.6011
C7 C 0.5093(6) 0.5208(3) 0.5790(4)
C8 C 0.6239(7) 0.7121(4) 0.6015(5)
C9 C 0.5234(7) 0.6516(4) 0.4162(4)
C10 C 0.4404(7) 0.4860(3) 0.5900(4)
H2 H 0.4146 0.4999 0.6189
H3 H 0.4697 0.4549 0.6041
H4 H 0.3923 0.4805 0.5539
C11 C 0.3738(7) 0.6470(4) 0.4067(4)
C12 C 0.4378(7) 0.6554(4) 0.3761(4)
H5 H 0.4251 0.6623 0.3361
C13 C 0.4938(7) 0.7145(4) 0.6248(5)
C14 C 0.7408(7) 0.5589(4) 0.5750(5)
H6 H 0.7452 0.5617 0.5355
H7 H 0.7768 0.5310 0.5942
H8 H 0.7636 0.5887 0.5964
C15 C 0.4229(8) 0.7304(5) 0.6544(6)
H9 H 0.3716 0.7455 0.6258
H10 H 0.4499 0.7540 0.6849
H11 H 0.4020 0.7019 0.6712
C16 C 0.0373(6) 0.7684(3) 0.7479(4)
N11 N 0.0298(7) 0.5583(4) 0.6075(5)
B1 B 0.5844(8) 0.6376(4) 0.5286(5)
C17 C 0.2718(7) 0.6491(5) 0.3796(4)
H12 H 0.2465 0.6163 0.3783
H13 H 0.2583 0.6620 0.3402
H14 H 0.2450 0.6703 0.4027
C18 C 0.5791(7) 0.7356(4) 0.6352(5)
H15 H 0.6021 0.7617 0.6610
C19 C 0.6158(8) 0.6596(5) 0.4072(5)
H16 H 0.6422 0.6898 0.4264
H17 H 0.6092 0.6621 0.3658
H18 H 0.6554 0.6322 0.4235
C20 C 0.7179(7) 0.7210(4) 0.5938(5)
H19 H 0.7387 0.7537 0.6075
H20 H 0.7145 0.7180 0.5529
H21 H 0.7605 0.6968 0.6162
C21 C 0.0968(8) 0.5895(5) 0.6136(6)
H22 H 0.1238 0.6014 0.6515
C22 C -0.0017(10) 0.5418(6) 0.6572(7)
H23 H 0.0473 0.5457 0.6932
H24 H -0.0194 0.5075 0.6521
H25 H -0.0536 0.5615 0.6591
C23 C -0.0112(11) 0.5369(6) 0.5533(7)
H26 H 0.0144 0.5511 0.5244
H27 H -0.0764 0.5430 0.5421
H28 H -0.0002 0.5018 0.5556
W1D W -0.36878(2) 0.379580(12) 0.456574(14)
Cu1D Cu -0.27167(8) 0.45000(4) 0.42278(5)
Cu2D Cu -0.26015(8) 0.34351(4) 0.39490(5)
Cu2C Cu 0.23985(8) 0.15649(4) 0.89490(5)
Cu3D Cu -0.19231(8) 0.37673(4) 0.51936(5)
S1D S -0.28350(15) 0.44178(8) 0.51295(10)
Cu4C Cu 0.33921(8) 0.26883(4) 0.75836(5)
Cu4A Cu -0.16079(8) 0.76883(4) 0.75836(5)
S2D S -0.37164(16) 0.39977(8) 0.36183(10)
S3D S -0.27451(16) 0.31114(8) 0.47833(11)
Cu5D Cu -0.13589(8) 0.60339(4) 0.36505(5)
Cu5C Cu 0.36411(8) 0.89661(4) 0.86505(5)
O1D O -0.1282(5) 0.3951(3) 0.4240(3)
N1D N -0.5756(5) 0.4145(3) 0.4460(3)
N2D N -0.4852(5) 0.3233(3) 0.4144(3)
N3D N -0.5116(5) 0.3571(3) 0.5305(3)
N4D N -0.4927(5) 0.4315(3) 0.4422(3)
C1D C -0.0693(7) 0.3801(3) 0.5690(4)
N5D N -0.2166(6) 0.5082(3) 0.4019(4)
C2D C -0.1845(7) 0.5440(3) 0.3886(5)
N6D N -0.4185(5) 0.3605(3) 0.5360(3)
N7D N -0.5675(5) 0.3239(3) 0.4288(3)
N8C N 0.2584(6) 0.3208(3) 0.7158(4)
N9D N 0.0050(6) 0.3864(3) 0.5967(4)
N10C N 0.3021(6) 0.2218(3) 0.8079(4)
C3C C 0.2810(6) 0.1952(3) 0.8409(4)
C3D C -0.2190(6) 0.3048(3) 0.3409(4)
C4D C -0.6424(6) 0.4487(3) 0.4270(4)
C5C C 0.2107(6) 0.3507(3) 0.6875(4)
C5G C -0.2107(6) 0.6493(3) 0.3125(4)
C6D C -0.6013(6) 0.4907(3) 0.4121(4)
H1D H -0.6299 0.5209 0.3989
C7D C -0.5093(6) 0.4792(3) 0.4210(4)
C8D C -0.6239(7) 0.2879(4) 0.3985(5)
C9D C -0.5234(7) 0.3484(4) 0.5838(4)
C10D C -0.4404(7) 0.5140(3) 0.4100(4)
H2D H -0.4146 0.5001 0.3811
H3D H -0.4697 0.5451 0.3959
H4D H -0.3923 0.5195 0.4461
C11D C -0.3738(7) 0.3530(4) 0.5933(4)
C12D C -0.4378(7) 0.3446(4) 0.6239(4)
H5D H -0.4251 0.3377 0.6639
C13D C -0.4938(7) 0.2855(4) 0.3752(5)
C14D C -0.7408(7) 0.4411(4) 0.4250(5)
H6D H -0.7452 0.4383 0.4645
H7D H -0.7768 0.4690 0.4058
H8D H -0.7636 0.4113 0.4036
C15D C -0.4229(8) 0.2696(5) 0.3456(6)
H9D H -0.3716 0.2545 0.3742
H10D H -0.4499 0.2460 0.3151
H11D H -0.4020 0.2981 0.3288
C16A C -0.0373(6) 0.7684(3) 0.7521(4)
C16C C 0.4627(6) 0.2684(3) 0.7521(4)
N11D N -0.0298(7) 0.4417(4) 0.3925(5)
B1D B -0.5844(8) 0.3624(4) 0.4714(5)
C17D C -0.2718(7) 0.3509(5) 0.6204(4)
H12D H -0.2465 0.3837 0.6217
H13D H -0.2583 0.3380 0.6598
H14D H -0.2450 0.3297 0.5973
C18D C -0.5791(7) 0.2644(4) 0.3648(5)
H15D H -0.6021 0.2383 0.3390
C19D C -0.6158(8) 0.3404(5) 0.5928(5)
H16D H -0.6422 0.3102 0.5736
H17D H -0.6092 0.3379 0.6342
H18D H -0.6554 0.3678 0.5765
C20D C -0.7179(7) 0.2790(4) 0.4062(5)
H19D H -0.7387 0.2463 0.3925
H20D H -0.7145 0.2820 0.4471
H21D H -0.7605 0.3032 0.3838
C21D C -0.0968(8) 0.4105(5) 0.3864(6)
H22D H -0.1238 0.3986 0.3485
C22D C 0.0017(10) 0.4582(6) 0.3428(7)
H23D H -0.0473 0.4543 0.3068
H24D H 0.0194 0.4925 0.3479
H25D H 0.0536 0.4385 0.3409
C23D C 0.0112(11) 0.4631(6) 0.4467(7)
H26D H -0.0144 0.4489 0.4756
H27D H 0.0764 0.4570 0.4579
H28D H 0.0002 0.4982 0.4444
C30? C 0.0000 0.5894(18) 0.2500
N14? N 0.0000 0.6352(14) 0.2500
C31? C 0.118(2) 0.5517(9) 0.2857(12)
N15? N -0.5000 0.5014(15) 0.7500
C32? C -0.440(6) 0.4655(12) 0.747(3)
C33? C -0.399(5) 0.4132(14) 0.7652(18)
C34? C 0.0373(6) 0.7684(3) 0.7479(4)
loop_
_geom_bond_atom_site_label_1
_geom_bond_atom_site_label_2
_geom_bond_site_symmetry_1
_geom_bond_site_symmetry_2
W1 S1 1_555 1_555
Cu1 S1 1_555 1_555
Cu2 S2 1_555 1_555
Cu3 S1 1_555 1_555
Cu4 N8 1_555 1_555
S2 W1 1_555 1_555
S3 W1 1_555 1_555
Cu5 C2 1_555 1_555
O1 Cu1 1_555 1_555
N1 N4 1_555 1_555
N2 W1 1_555 1_555
N3 N6 1_555 1_555
N4 W1 1_555 1_555
C1 Cu3 1_555 1_555
N5 Cu1 1_555 1_555
C2 N5 1_555 1_555
N6 W1 1_555 1_555
N7 N2 1_555 1_555
N8 C5 1_555 1_555
N9 C1 1_555 1_555
N10 Cu4 1_555 1_555
C3 Cu2 1_555 1_555
C4 N1 1_555 1_555
C5 Cu5C 1_555 1_555
C6 C4 1_555 1_555
H1 C6 1_555 1_555
C7 N4 1_555 1_555
C8 N7 1_555 1_555
C9 N3 1_555 1_555
C10 C7 1_555 1_555
H2 C10 1_555 1_555
H3 C10 1_555 1_555
H4 C10 1_555 1_555
C11 N6 1_555 1_555
C12 C9 1_555 1_555
H5 C12 1_555 1_555
C13 N2 1_555 1_555
C14 C4 1_555 1_555
H6 C14 1_555 1_555
H7 C14 1_555 1_555
H8 C14 1_555 1_555
C15 C13 1_555 1_555
H9 C15 1_555 1_555
H10 C15 1_555 1_555
H11 C15 1_555 1_555
C16 Cu4 1_555 1_555
N11 C21 1_555 1_555
B1 N1 1_555 1_555
C17 C11 1_555 1_555
H12 C17 1_555 1_555
H13 C17 1_555 1_555
H14 C17 1_555 1_555
C18 C8 1_555 1_555
H15 C18 1_555 1_555
C19 C9 1_555 1_555
H16 C19 1_555 1_555
H17 C19 1_555 1_555
H18 C19 1_555 1_555
C20 C8 1_555 1_555
H19 C20 1_555 1_555
H20 C20 1_555 1_555
H21 C20 1_555 1_555
C21 O1 1_555 1_555
H22 C21 1_555 1_555
C22 N11 1_555 1_555
H23 C22 1_555 1_555
H24 C22 1_555 1_555
H25 C22 1_555 1_555
C23 N11 1_555 1_555
H26 C23 1_555 1_555
H27 C23 1_555 1_555
H28 C23 1_555 1_555
N12 C24 1_555 1_555
O2 C25 1_555 1_555
C24 H29 1_555 1_555
H30 C24 1_555 1_555
H31 C24 1_555 1_555
C25 N12 1_555 1_555
H32 C25 1_555 1_555
C26 H33 1_555 1_555
H34 C26 1_555 1_555
H35 C26 1_555 1_555
C27 N12 1_555 1_555
H36 C27 1_555 1_555
H37 C27 1_555 1_555
H38 C27 1_555 1_555
N13 C26 1_555 1_555
O3 C28 1_555 1_555
C28 N13 1_555 1_555
H39 C28 1_555 1_555
C29 N13 1_555 1_555
H40 C29 1_555 1_555
H41 C29 1_555 1_555
H42 C29 1_555 1_555
W1D S1D 1_555 1_555
Cu1D S1D 1_555 1_555
Cu2D S2D 1_555 1_555
Cu2C C3C 1_555 1_555
Cu3D S1D 1_555 1_555
Cu4C N8C 1_555 1_555
Cu4A C16A 1_555 1_555
S2D W1D 1_555 1_555
S3D W1D 1_555 1_555
Cu5D N9 1_555 1_555
O1D Cu1D 1_555 1_555
N1D N4D 1_555 1_555
N2D W1D 1_555 1_555
N3D N6D 1_555 1_555
N4D W1D 1_555 1_555
C1D Cu3D 1_555 1_555
N5D Cu1D 1_555 1_555
C2D Cu5D 1_555 1_555
N6D W1D 1_555 1_555
N7D N2D 1_555 1_555
N8C C5C 1_555 1_555
N9D Cu5 1_555 1_555
N10C Cu4C 1_555 1_555
C3C N10C 1_555 1_555
C3D Cu2D 1_555 1_555
C4D N1D 1_555 1_555
C5C Cu5 1_555 1_555
C5G Cu5D 1_555 1_555
C6D C4D 1_555 1_555
H1D C6D 1_555 1_555
C7D N4D 1_555 1_555
C8D N7D 1_555 1_555
C9D N3D 1_555 1_555
C10D C7D 1_555 1_555
H2D C10D 1_555 1_555
H3D C10D 1_555 1_555
H4D C10D 1_555 1_555
C11D N6D 1_555 1_555
C12D C9D 1_555 1_555
H5D C12D 1_555 1_555
C13D N2D 1_555 1_555
C14D C4D 1_555 1_555
H6D C14D 1_555 1_555
H7D C14D 1_555 1_555
H8D C14D 1_555 1_555
C15D C13D 1_555 1_555
H9D C15D 1_555 1_555
H10D C15D 1_555 1_555
H11D C15D 1_555 1_555
C16A C16 1_555 1_555
C16C Cu4C 1_555 1_555
N11D C21D 1_555 1_555
B1D N1D 1_555 1_555
C17D C11D 1_555 1_555
H12D C17D 1_555 1_555
H13D C17D 1_555 1_555
H14D C17D 1_555 1_555
C18D C8D 1_555 1_555
H15D C18D 1_555 1_555
C19D C9D 1_555 1_555
H16D C19D 1_555 1_555
H17D C19D 1_555 1_555
H18D C19D 1_555 1_555
C20D C8D 1_555 1_555
H19D C20D 1_555 1_555
H20D C20D 1_555 1_555
H21D C20D 1_555 1_555
C21D O1D 1_555 1_555
H22D C21D 1_555 1_555
C22D N11D 1_555 1_555
H23D C22D 1_555 1_555
H24D C22D 1_555 1_555
H25D C22D 1_555 1_555
C23D N11D 1_555 1_555
H26D C23D 1_555 1_555
H27D C23D 1_555 1_555
H28D C23D 1_555 1_555
Cu1 S2 1_555 1_555
Cu2 S3 1_555 1_555
Cu2 O1 1_555 1_555
Cu3 S3 1_555 1_555
Cu3 O1 1_555 1_555
N3 B1 1_555 1_555
N7 B1 1_555 1_555
N10 C3 1_555 1_555
C6 C7 1_555 1_555
C11 C12 1_555 1_555
C13 C18 1_555 1_555
Cu1D S2D 1_555 1_555
Cu2D S3D 1_555 1_555
Cu2D O1D 1_555 1_555
Cu3D S3D 1_555 1_555
Cu3D O1D 1_555 1_555
N3D B1D 1_555 1_555
C1D N9D 1_555 1_555
N5D C2D 1_555 1_555
N7D B1D 1_555 1_555
C6D C7D 1_555 1_555
C11D C12D 1_555 1_555
C13D C18D 1_555 1_555

#END
