
#######################################################################
#
#                 Cambridge Crystallographic Data Centre
#                                CCDC 
#
#######################################################################
#
# If this CIF has been generated from an entry in the Cambridge 
# Structural Database, then it will include bibliographic, chemical, 
# crystal, experimental, refinement or atomic coordinate data resulting 
# from the CCDC's data processing and validation procedures.
#
#######################################################################

data_SAQSAF
_symmetry_cell_setting           cubic
_symmetry_space_group_name_H-M   'P a -3'
_symmetry_Int_Tables_number      205
_space_group_name_Hall           '-P 2ac 2ab 3'
loop_
_symmetry_equiv_pos_site_id
_symmetry_equiv_pos_as_xyz
1 x,y,z
2 z,x,y
3 y,z,x
4 1/2-x,-y,1/2+z
5 -x,1/2+y,1/2-z
6 1/2+x,1/2-y,-z
7 1/2+z,1/2-x,-y
8 1/2-z,-x,1/2+y
9 -z,1/2+x,1/2-y
10 -y,1/2+z,1/2-x
11 1/2+y,1/2-z,-x
12 1/2-y,-z,1/2+x
13 -x,-y,-z
14 -z,-x,-y
15 -y,-z,-x
16 1/2+x,y,1/2-z
17 x,1/2-y,1/2+z
18 1/2-x,1/2+y,z
19 1/2-z,1/2+x,y
20 1/2+z,x,1/2-y
21 z,1/2-x,1/2+y
22 y,1/2-z,1/2+x
23 1/2-y,1/2+z,x
24 1/2+y,z,1/2-x
_cell_length_a                   11.7472(4)
_cell_length_b                   11.7472(4)
_cell_length_c                   11.7472(4)
_cell_angle_alpha                90
_cell_angle_beta                 90
_cell_angle_gamma                90
_cell_volume                     1621.07
loop_
_atom_site_label
_atom_site_type_symbol
_atom_site_fract_x
_atom_site_fract_y
_atom_site_fract_z
N1 N 0.12729(15) 0.50936(14) 0.63057(15)
Cu1 Cu 0.39103(2) 0.39103(2) 0.39103(2)
S1 S 0.28872(4) 0.53497(4) 0.47761(4)
Cl1 Cl 0.27520(4) 0.27520(4) 0.27520(4)
C1 C 0.17878(15) 0.46811(15) 0.53528(15)
H1 H 0.159(2) 0.346(2) 0.447(2)
N1K N -0.00936(14) 0.36943(15) 0.62729(15)
N1F N 0.13057(15) 0.37271(15) 0.49064(14)
Cu1E Cu -0.10897(2) 0.10897(2) 0.60897(2)
Cu1C Cu 0.10897(2) 0.60897(2) 0.89103(2)
S1B S 0.53497(4) 0.47761(4) 0.28872(4)
S1F S -0.02239(4) 0.21128(4) 0.46503(4)
S1K S -0.03497(4) 0.52239(4) 0.78872(4)
S1A S 0.47761(4) 0.28872(4) 0.53497(4)
C1K C 0.03189(15) 0.46472(15) 0.67878(15)
C1F C 0.03528(15) 0.32122(15) 0.53189(15)
H1F H -0.053(2) 0.341(2) 0.654(2)
H1K H 0.154(2) 0.553(2) 0.659(2)
loop_
_geom_bond_atom_site_label_1
_geom_bond_atom_site_label_2
_geom_bond_site_symmetry_1
_geom_bond_site_symmetry_2
N1 C1 1_555 1_555
Cu1 S1 1_555 1_555
S1 C1 1_555 1_555
Cl1 Cu1 1_555 1_555
C1 N1F 1_555 1_555
H1 N1F 1_555 1_555
N1K C1K 1_555 1_555
N1F C1F 1_555 1_555
Cu1E S1F 1_555 1_555
Cu1C S1K 1_555 1_555
S1B Cu1 1_555 1_555
S1F C1F 1_555 1_555
S1K C1K 1_555 1_555
S1A Cu1 1_555 1_555
C1K N1 1_555 1_555
C1F N1K 1_555 1_555
H1F N1K 1_555 1_555
H1K N1 1_555 1_555

#END
