
#######################################################################
#
#                 Cambridge Crystallographic Data Centre
#                                CCDC 
#
#######################################################################
#
# If this CIF has been generated from an entry in the Cambridge 
# Structural Database, then it will include bibliographic, chemical, 
# crystal, experimental, refinement or atomic coordinate data resulting 
# from the CCDC's data processing and validation procedures.
#
#######################################################################

data_SAQSUZ01
_symmetry_cell_setting           monoclinic
_symmetry_space_group_name_H-M   'P 21/c'
_symmetry_Int_Tables_number      14
_space_group_name_Hall           '-P 2ybc'
loop_
_symmetry_equiv_pos_site_id
_symmetry_equiv_pos_as_xyz
1 x,y,z
2 -x,1/2+y,1/2-z
3 -x,-y,-z
4 x,1/2-y,1/2+z
_cell_length_a                   13.8297(4)
_cell_length_b                   9.4906(3)
_cell_length_c                   7.1272(3)
_cell_angle_alpha                90
_cell_angle_beta                 100.768(3)
_cell_angle_gamma                90
_cell_volume                     918.989
loop_
_atom_site_label
_atom_site_type_symbol
_atom_site_fract_x
_atom_site_fract_y
_atom_site_fract_z
Cu1 Cu 0.5000 0.0000 0.0000
Cu2 Cu 0.03571(3) 0.00934(4) 0.21527(8)
O1 O 0.45839(17) 0.1989(2) -0.0394(4)
O2 O 0.33417(17) 0.3429(2) -0.0167(4)
O3 O 0.5540(2) 0.0613(3) 0.3263(4)
H1 H 0.588(3) -0.001(4) 0.393(6)
H2 H 0.524(3) 0.113(4) 0.390(6)
C1 C 0.3724(2) 0.2253(3) -0.0104(5)
N1 N 0.3627(2) -0.0237(3) 0.0479(5)
N2 N 0.1722(2) -0.0069(3) 0.1101(5)
N3 N -0.0012(2) 0.3197(4) 0.2534(5)
C2 C 0.3146(2) 0.0996(3) 0.0357(5)
C3 C 0.3148(3) -0.1381(4) 0.0874(6)
H3 H 0.3458 -0.2254 0.0941
C4 C 0.2195(2) 0.1067(3) 0.0676(5)
H4 H 0.1877 0.1935 0.0591
C5 C 0.0122(2) 0.2013(3) 0.2401(5)
C6 C 0.2199(3) -0.1284(4) 0.1185(6)
H5 H 0.1881 -0.2100 0.1463
Cu2B Cu 0.96429(3) -0.00934(4) -0.21527(8)
Cu2A Cu -0.03571(3) 0.50934(4) 0.28473(8)
Cu2C Cu 1.03571(3) -0.50934(4) -0.28473(8)
O1B O 0.54161(17) -0.1989(2) 0.0394(4)
O2B O 0.66583(17) -0.3429(2) 0.0167(4)
O3B O 0.4460(2) -0.0613(3) -0.3263(4)
H1B H 0.412(3) 0.001(4) -0.393(6)
H2B H 0.476(3) -0.113(4) -0.390(6)
C1B C 0.6276(2) -0.2253(3) 0.0104(5)
N1B N 0.6373(2) 0.0237(3) -0.0479(5)
N2B N 0.8278(2) 0.0069(3) -0.1101(5)
N3B N 1.0012(2) -0.3197(4) -0.2534(5)
N3A N 0.0012(2) -0.1803(4) 0.2466(5)
N3C N 0.9988(2) 0.1803(4) -0.2466(5)
C2B C 0.6854(2) -0.0996(3) -0.0357(5)
C3B C 0.6852(3) 0.1381(4) -0.0874(6)
H3B H 0.6542 0.2254 -0.0941
C4B C 0.7805(2) -0.1067(3) -0.0676(5)
H4B H 0.8123 -0.1935 -0.0591
C5B C 0.9878(2) -0.2013(3) -0.2401(5)
C6B C 0.7801(3) 0.1284(4) -0.1185(6)
H5B H 0.8119 0.2100 -0.1463
O4 O 0.1922(3) 0.5271(4) 0.1144(8)
H6 H 0.229(4) 0.457(5) 0.093(11)
H7 H 0.133(2) 0.495(7) 0.108(13)
loop_
_geom_bond_atom_site_label_1
_geom_bond_atom_site_label_2
_geom_bond_site_symmetry_1
_geom_bond_site_symmetry_2
Cu1 O1 1_555 1_555
Cu2 N2 1_555 1_555
O1 C1 1_555 1_555
O2 C1 1_555 1_555
O3 Cu1 1_555 1_555
H1 O3 1_555 1_555
H2 O3 1_555 1_555
C1 C2 1_555 1_555
N1 Cu1 1_555 1_555
N2 C4 1_555 1_555
N3 C5 1_555 1_555
C2 N1 1_555 1_555
C3 N1 1_555 1_555
H3 C3 1_555 1_555
C4 C2 1_555 1_555
H4 C4 1_555 1_555
C5 Cu2 1_555 1_555
C6 N2 1_555 1_555
H5 C6 1_555 1_555
O4 H6 1_555 1_555
H7 O4 1_555 1_555
Cu2B N2B 1_555 1_555
Cu2A N3 1_555 1_555
Cu2C N3B 1_555 1_555
O1B Cu1 1_555 1_555
O2B C1B 1_555 1_555
O3B Cu1 1_555 1_555
H1B O3B 1_555 1_555
H2B O3B 1_555 1_555
C1B O1B 1_555 1_555
N1B Cu1 1_555 1_555
N2B C4B 1_555 1_555
N3B C5B 1_555 1_555
N3A Cu2 1_555 1_555
N3C Cu2B 1_555 1_555
C2B C1B 1_555 1_555
C3B N1B 1_555 1_555
H3B C3B 1_555 1_555
C4B C2B 1_555 1_555
H4B C4B 1_555 1_555
C5B Cu2B 1_555 1_555
C6B N2B 1_555 1_555
H5B C6B 1_555 1_555
C3 C6 1_555 1_555
N1B C2B 1_555 1_555
C3B C6B 1_555 1_555

#END
