
#######################################################################
#
#                 Cambridge Crystallographic Data Centre
#                                CCDC 
#
#######################################################################
#
# If this CIF has been generated from an entry in the Cambridge 
# Structural Database, then it will include bibliographic, chemical, 
# crystal, experimental, refinement or atomic coordinate data resulting 
# from the CCDC's data processing and validation procedures.
#
#######################################################################

data_SAQSEJ
_symmetry_cell_setting           cubic
_symmetry_space_group_name_H-M   'P a -3'
_symmetry_Int_Tables_number      205
_space_group_name_Hall           '-P 2ac 2ab 3'
loop_
_symmetry_equiv_pos_site_id
_symmetry_equiv_pos_as_xyz
1 x,y,z
2 z,x,y
3 y,z,x
4 1/2-x,-y,1/2+z
5 -x,1/2+y,1/2-z
6 1/2+x,1/2-y,-z
7 1/2+z,1/2-x,-y
8 1/2-z,-x,1/2+y
9 -z,1/2+x,1/2-y
10 -y,1/2+z,1/2-x
11 1/2+y,1/2-z,-x
12 1/2-y,-z,1/2+x
13 -x,-y,-z
14 -z,-x,-y
15 -y,-z,-x
16 1/2+x,y,1/2-z
17 x,1/2-y,1/2+z
18 1/2-x,1/2+y,z
19 1/2-z,1/2+x,y
20 1/2+z,x,1/2-y
21 z,1/2-x,1/2+y
22 y,1/2-z,1/2+x
23 1/2-y,1/2+z,x
24 1/2+y,z,1/2-x
_cell_length_a                   11.8847(3)
_cell_length_b                   11.8847(3)
_cell_length_c                   11.8847(3)
_cell_angle_alpha                90
_cell_angle_beta                 90
_cell_angle_gamma                90
_cell_volume                     1678.67
loop_
_atom_site_label
_atom_site_type_symbol
_atom_site_fract_x
_atom_site_fract_y
_atom_site_fract_z
Br1 Br -0.23557(3) -0.26443(3) 0.26443(3)
Cu1 Cu -0.11520(4) -0.38480(4) 0.38480(4)
S1 S -0.02414(8) -0.28824(8) 0.52736(8)
N1 N -0.0080(3) -0.1284(3) 0.3708(3)
C1 C 0.0343(3) -0.1782(3) 0.4649(3)
H1 H 0.159(3) -0.157(3) 0.559(4)
Cu1D Cu 0.11520(4) 0.11520(4) 0.11520(4)
Cu1A Cu 0.38480(4) -0.11520(4) 0.61520(4)
S1K S -0.21176(8) -0.52736(8) 0.47586(8)
S1G S -0.02736(8) 0.02414(8) 0.21176(8)
S1I S 0.28824(8) 0.02736(8) 0.52414(8)
S1F S 0.02736(8) -0.47586(8) 0.28824(8)
N1G N 0.1292(3) 0.0080(3) 0.3716(3)
N1I N 0.1284(3) -0.1292(3) 0.5080(3)
C1G C 0.0351(3) -0.0343(3) 0.3218(3)
C1I C 0.1782(3) -0.0351(3) 0.4657(3)
H1I H 0.157(3) 0.059(4) 0.341(3)
H1G H -0.059(4) -0.159(3) 0.343(3)
loop_
_geom_bond_atom_site_label_1
_geom_bond_atom_site_label_2
_geom_bond_site_symmetry_1
_geom_bond_site_symmetry_2
Br1 Cu1 1_555 1_555
Cu1 S1 1_555 1_555
S1 C1 1_555 1_555
N1 C1 1_555 1_555
C1 N1I 1_555 1_555
H1 N1I 1_555 1_555
Cu1D S1G 1_555 1_555
Cu1A S1I 1_555 1_555
S1K Cu1 1_555 1_555
S1G C1G 1_555 1_555
S1I C1I 1_555 1_555
S1F Cu1 1_555 1_555
N1G C1G 1_555 1_555
N1I C1I 1_555 1_555
C1G N1 1_555 1_555
C1I N1G 1_555 1_555
H1I N1G 1_555 1_555
H1G N1 1_555 1_555

#END
