
#######################################################################
#
#                 Cambridge Crystallographic Data Centre
#                                CCDC 
#
#######################################################################
#
# If this CIF has been generated from an entry in the Cambridge 
# Structural Database, then it will include bibliographic, chemical, 
# crystal, experimental, refinement or atomic coordinate data resulting 
# from the CCDC's data processing and validation procedures.
#
#######################################################################

data_SAQSAF01
_symmetry_cell_setting           cubic
_symmetry_space_group_name_H-M   'P a -3'
_symmetry_Int_Tables_number      205
_space_group_name_Hall           '-P 2ac 2ab 3'
loop_
_symmetry_equiv_pos_site_id
_symmetry_equiv_pos_as_xyz
1 x,y,z
2 1/2-x,-y,1/2+z
3 -x,1/2+y,1/2-z
4 1/2+x,1/2-y,-z
5 z,x,y
6 1/2+z,1/2-x,-y
7 1/2-z,-x,1/2+y
8 -z,1/2+x,1/2-y
9 y,z,x
10 -y,1/2+z,1/2-x
11 1/2+y,1/2-z,-x
12 1/2-y,-z,1/2+x
13 -x,-y,-z
14 1/2+x,y,1/2-z
15 x,1/2-y,1/2+z
16 1/2-x,1/2+y,z
17 -z,-x,-y
18 1/2-z,1/2+x,y
19 1/2+z,x,1/2-y
20 z,1/2-x,1/2+y
21 -y,-z,-x
22 y,1/2-z,1/2+x
23 1/2-y,1/2+z,x
24 1/2+y,z,1/2-x
_cell_length_a                   11.70071(13)
_cell_length_b                   11.70071(13)
_cell_length_c                   11.70071(13)
_cell_angle_alpha                90
_cell_angle_beta                 90
_cell_angle_gamma                90
_cell_volume                     1601.9
loop_
_atom_site_label
_atom_site_type_symbol
_atom_site_fract_x
_atom_site_fract_y
_atom_site_fract_z
Cu1 Cu 0.89219(3) 0.39219(3) 0.10781(3)
S1 S 0.78914(5) 0.53706(5) 0.02302(6)
Cl1 Cl 0.77560(5) 0.27560(5) 0.22440(5)
C1 C 0.6783(2) 0.4699(2) -0.0343(2)
N1 N 0.63067(18) 0.37331(18) 0.01097(19)
H1 H 0.6636 0.3429 0.0692
S1F S 0.47698(6) 0.21086(5) 0.03706(5)
C1F C 0.5343(2) 0.3217(2) -0.0301(2)
N1F N 0.48903(19) 0.36933(18) -0.12669(18)
H1F H 0.4308 0.3364 -0.1571
S1I S 0.46294(5) 0.52302(6) -0.28914(5)
C1I C 0.5301(2) 0.4657(2) -0.1783(2)
N1I N 0.62669(18) 0.51097(19) -0.13067(18)
H1I H 0.6571 0.5692 -0.1636
Cu1A Cu 0.60781(3) 0.60781(3) -0.39219(3)
Cu1C Cu 0.39219(3) 0.10781(3) -0.10781(3)
S1G S 0.97698(6) 0.28914(5) -0.03706(5)
S1J S 1.03706(5) 0.47698(6) 0.21086(5)
loop_
_geom_bond_atom_site_label_1
_geom_bond_atom_site_label_2
_geom_bond_site_symmetry_1
_geom_bond_site_symmetry_2
Cu1 S1 1_555 1_555
S1 C1 1_555 1_555
Cl1 Cu1 1_555 1_555
C1 N1 1_555 1_555
N1 H1 1_555 1_555
S1F C1F 1_555 1_555
C1F N1 1_555 1_555
N1F C1F 1_555 1_555
H1F N1F 1_555 1_555
S1I C1I 1_555 1_555
C1I N1F 1_555 1_555
N1I C1 1_555 1_555
H1I N1I 1_555 1_555
Cu1A S1I 1_555 1_555
Cu1C S1F 1_555 1_555
S1G Cu1 1_555 1_555
S1J Cu1 1_555 1_555
C1I N1I 1_555 1_555

#END
