
#######################################################################
#
#                 Cambridge Crystallographic Data Centre
#                                CCDC 
#
#######################################################################
#
# If this CIF has been generated from an entry in the Cambridge 
# Structural Database, then it will include bibliographic, chemical, 
# crystal, experimental, refinement or atomic coordinate data resulting 
# from the CCDC's data processing and validation procedures.
#
#######################################################################

data_SAQSAF02
_symmetry_cell_setting           cubic
_symmetry_space_group_name_H-M   'P a -3'
_symmetry_Int_Tables_number      205
_space_group_name_Hall           '-P 2ac 2ab 3'
loop_
_symmetry_equiv_pos_site_id
_symmetry_equiv_pos_as_xyz
1 x,y,z
2 1/2-x,-y,1/2+z
3 -x,1/2+y,1/2-z
4 1/2+x,1/2-y,-z
5 z,x,y
6 1/2+z,1/2-x,-y
7 1/2-z,-x,1/2+y
8 -z,1/2+x,1/2-y
9 y,z,x
10 -y,1/2+z,1/2-x
11 1/2+y,1/2-z,-x
12 1/2-y,-z,1/2+x
13 -x,-y,-z
14 1/2+x,y,1/2-z
15 x,1/2-y,1/2+z
16 1/2-x,1/2+y,z
17 -z,-x,-y
18 1/2-z,1/2+x,y
19 1/2+z,x,1/2-y
20 z,1/2-x,1/2+y
21 -y,-z,-x
22 y,1/2-z,1/2+x
23 1/2-y,1/2+z,x
24 1/2+y,z,1/2-x
_cell_length_a                   11.74713(9)
_cell_length_b                   11.74713(9)
_cell_length_c                   11.74713(9)
_cell_angle_alpha                90
_cell_angle_beta                 90
_cell_angle_gamma                90
_cell_volume                     1621.05
loop_
_atom_site_label
_atom_site_type_symbol
_atom_site_fract_x
_atom_site_fract_y
_atom_site_fract_z
Cu1 Cu 0.89098(3) 0.39098(3) 0.10902(3)
S1 S 0.78873(5) 0.53489(5) 0.02244(5)
Cl1 Cl 0.77515(5) 0.27515(5) 0.22485(5)
N1 N 0.63082(17) 0.37244(17) 0.00941(18)
H1 H 0.6633 0.3421 0.0676
C1 C 0.67870(19) 0.46835(19) -0.0352(2)
S1F S 0.47756(5) 0.21127(5) 0.03489(5)
N1F N 0.49059(18) 0.36918(17) -0.12756(17)
H1F H 0.4324 0.3367 -0.1579
C1F C 0.5352(2) 0.32130(19) -0.03165(19)
S1I S 0.46511(5) 0.52244(5) -0.28873(5)
N1I N 0.62756(17) 0.50941(18) -0.13082(17)
H1I H 0.6579 0.5676 -0.1633
C1I C 0.53165(19) 0.4648(2) -0.17870(19)
Cu1A Cu 0.60902(3) 0.60902(3) -0.39098(3)
Cu1C Cu 0.39098(3) 0.10902(3) -0.10902(3)
S1G S 0.97756(5) 0.28873(5) -0.03489(5)
S1J S 1.03489(5) 0.47756(5) 0.21127(5)
loop_
_geom_bond_atom_site_label_1
_geom_bond_atom_site_label_2
_geom_bond_site_symmetry_1
_geom_bond_site_symmetry_2
Cu1 S1 1_555 1_555
S1 C1 1_555 1_555
Cl1 Cu1 1_555 1_555
N1 H1 1_555 1_555
C1 N1 1_555 1_555
S1F C1F 1_555 1_555
N1F H1F 1_555 1_555
C1F N1 1_555 1_555
S1I C1I 1_555 1_555
N1I C1 1_555 1_555
H1I N1I 1_555 1_555
C1I N1F 1_555 1_555
Cu1A S1I 1_555 1_555
Cu1C S1F 1_555 1_555
S1G Cu1 1_555 1_555
S1J Cu1 1_555 1_555
N1F C1F 1_555 1_555
N1I C1I 1_555 1_555

#END
