
#######################################################################
#
#                 Cambridge Crystallographic Data Centre
#                                CCDC 
#
#######################################################################
#
# If this CIF has been generated from an entry in the Cambridge 
# Structural Database, then it will include bibliographic, chemical, 
# crystal, experimental, refinement or atomic coordinate data resulting 
# from the CCDC's data processing and validation procedures.
#
#######################################################################

data_SAQXUE
_symmetry_cell_setting           monoclinic
_symmetry_space_group_name_H-M   'P 21/c'
_symmetry_Int_Tables_number      14
_space_group_name_Hall           '-P 2ybc'
loop_
_symmetry_equiv_pos_site_id
_symmetry_equiv_pos_as_xyz
1 x,y,z
2 -x,1/2+y,1/2-z
3 -x,-y,-z
4 x,1/2-y,1/2+z
_cell_length_a                   6.5269(8)
_cell_length_b                   29.457(4)
_cell_length_c                   12.5004(15)
_cell_angle_alpha                90
_cell_angle_beta                 91.396(2)
_cell_angle_gamma                90
_cell_volume                     2402.65
loop_
_atom_site_label
_atom_site_type_symbol
_atom_site_fract_x
_atom_site_fract_y
_atom_site_fract_z
Fe1 Fe 0.47167(5) 0.691966(11) 0.00807(3)
Fe2 Fe 0.23476(5) 0.554428(10) 0.46072(2)
S1 S 0.74103(8) 0.541530(19) 0.40853(4)
O1 O 0.1928(3) 0.72580(7) -0.02500(14)
O2 O 0.5627(3) 0.70717(7) -0.14420(13)
O3 O 0.5628(3) 0.75153(6) 0.08725(14)
O4 O 0.7622(3) 0.66561(6) 0.05523(14)
O5 O 0.2563(3) 0.60690(6) 0.57276(15)
O6 O 0.5604(2) 0.55328(6) 0.47287(13)
O7 O 0.9139(2) 0.56889(5) 0.45359(13)
O8 O 0.7904(2) 0.49278(5) 0.42223(13)
O9 O 0.7041(3) 0.55097(6) 0.29543(14)
N1 N 0.3700(3) 0.62214(7) -0.04381(14)
N2 N 0.3569(3) 0.65999(7) 0.15499(15)
N3 N 0.2741(3) 0.60616(6) 0.33324(14)
N4 N 0.2143(3) 0.51512(6) 0.31063(15)
N5 N 0.2101(3) 0.47517(6) 0.10564(15)
N6 N 0.2841(3) 0.52889(7) -0.07268(15)
C1 C 0.3224(3) 0.55653(8) -0.15408(18)
H1 H 0.3196 0.5447 -0.2231
C2 C 0.3667(3) 0.60272(8) -0.14005(18)
H2 H 0.3946 0.6203 -0.1997
C3 C 0.3481(4) 0.67760(8) 0.25282(19)
H3 H 0.3700 0.7085 0.2625
C4 C 0.3063(4) 0.65021(8) 0.34172(19)
H4 H 0.3012 0.6636 0.4089
C5 C 0.1790(3) 0.47098(8) 0.29637(19)
H5 H 0.1552 0.4527 0.3555
C6 C 0.1770(3) 0.45146(8) 0.19380(19)
H6 H 0.1514 0.4205 0.1874
C7 C 0.2858(3) 0.54815(8) 0.02527(17)
C8 C 0.3256(3) 0.59458(8) 0.03963(17)
C9 C 0.3205(3) 0.61483(8) 0.14529(17)
C10 C 0.2798(3) 0.58825(7) 0.23347(17)
C11 C 0.2464(3) 0.53974(7) 0.22064(17)
C12 C 0.2460(3) 0.52005(8) 0.11910(18)
H7 H 0.124(3) 0.7412(6) 0.0264(11)
H8 H 0.4630(18) 0.7062(9) -0.1961(14)
H9 H 0.6930(16) 0.7615(7) 0.089(2)
H10 H 0.811(3) 0.6773(5) 0.1199(12)
H11 H 0.3846(16) 0.6168(8) 0.5821(19)
H12 H 0.113(3) 0.7185(7) -0.0830(11)
H13 H 0.6912(17) 0.7078(9) -0.1706(17)
H14 H 0.469(2) 0.7732(6) 0.1077(19)
H15 H 0.782(4) 0.6353(4) 0.0507(16)
H16 H 0.161(2) 0.6228(7) 0.6103(17)
Fe2_2 Fe 1.23476(5) 0.554428(10) 0.46072(2)
Fe2B Fe 0.76524(5) 0.445572(10) 0.53928(2)
O7_2 O -0.0861(2) 0.56889(5) 0.45359(13)
O8B O 0.2096(2) 0.50722(5) 0.57777(13)
S2 S 0.04404(9) 0.69789(2) -0.30111(5)
O10 O 0.2687(3) 0.70221(6) -0.29784(13)
O11 O -0.0146(3) 0.64923(7) -0.30301(16)
O12 O -0.0428(3) 0.71855(6) -0.20356(15)
O13 O -0.0403(3) 0.72091(6) -0.39614(15)
O17 O 0.8253(3) 0.57692(5) 0.09308(13)
H17 H 0.803(4) 0.5530(5) 0.0454(11)
H18 H 0.787(4) 0.5677(7) 0.1603(9)
O18 O 0.1132(4) 0.31025(8) 0.7437(2)
H19 H 0.0914 0.2829 0.7409
C13 C 0.1804(7) 0.32532(16) 0.6444(5)
H20 H 0.2356 0.3554 0.6518
H21 H 0.0671 0.3257 0.5940
H22 H 0.2845 0.3052 0.6194
O19 O 0.3738(5) 0.36598(12) 0.4040(4)
H23 H 0.360(10) 0.3905(6) 0.3601(15)
H25 H 0.342(8) 0.3702(14) 0.4746(12)
O14? O -0.021(4) 0.6672(8) -0.3819(19)
O15? O -0.044(2) 0.6976(5) -0.2013(12)
O16? O -0.038(3) 0.7453(6) -0.3610(13)
O20? O 0.2868(18) 0.3487(5) 0.5247(13)
H24? H 0.293(5) 0.3277(10) 0.470(2)
H26? H 0.164(3) 0.348(2) 0.560(3)
loop_
_geom_bond_atom_site_label_1
_geom_bond_atom_site_label_2
_geom_bond_site_symmetry_1
_geom_bond_site_symmetry_2
Fe1 O1 1_555 1_555
Fe2 O5 1_555 1_555
S1 O6 1_555 1_555
S2 O10 1_555 1_555
O1 H7 1_555 1_555
O2 Fe1 1_555 1_555
O3 Fe1 1_555 1_555
O4 Fe1 1_555 1_555
O5 H11 1_555 1_555
O6 Fe2 1_555 1_555
O7 S1 1_555 1_555
O8 S1 1_555 1_555
O9 S1 1_555 1_555
O11 S2 1_555 1_555
O12 S2 1_555 1_555
O13 S2 1_555 1_555
N1 Fe1 1_555 1_555
N2 Fe1 1_555 1_555
N3 Fe2 1_555 1_555
N4 Fe2 1_555 1_555
N5 C6 1_555 1_555
N6 C1 1_555 1_555
C1 H1 1_555 1_555
C2 N1 1_555 1_555
H2 C2 1_555 1_555
C3 N2 1_555 1_555
H3 C3 1_555 1_555
C4 N3 1_555 1_555
H4 C4 1_555 1_555
C5 N4 1_555 1_555
H5 C5 1_555 1_555
C6 C5 1_555 1_555
H6 C6 1_555 1_555
C7 N6 1_555 1_555
C8 N1 1_555 1_555
C9 N2 1_555 1_555
C10 N3 1_555 1_555
C11 N4 1_555 1_555
C12 N5 1_555 1_555
H8 O2 1_555 1_555
H9 O3 1_555 1_555
H10 O4 1_555 1_555
H12 O1 1_555 1_555
H13 O2 1_555 1_555
H14 O3 1_555 1_555
H15 O4 1_555 1_555
H16 O5 1_555 1_555
O17 H17 1_555 1_555
H18 O17 1_555 1_555
O18 H19 1_555 1_555
C13 O18 1_555 1_555
H20 C13 1_555 1_555
H21 C13 1_555 1_555
H22 C13 1_555 1_555
O19 H23 1_555 1_555
H25 O19 1_555 1_555
Fe2_2 O7 1_555 1_555
Fe2B O8 1_555 1_555
O7_2 Fe2 1_555 1_555
O8B Fe2 1_555 1_555
C1 C2 1_555 1_555
C3 C4 1_555 1_555
C7 C8 1_555 1_555
C7 C12 1_555 1_555
C8 C9 1_555 1_555
C9 C10 1_555 1_555
C10 C11 1_555 1_555
C11 C12 1_555 1_555

#END
