
#######################################################################
#
#                 Cambridge Crystallographic Data Centre
#                                CCDC 
#
#######################################################################
#
# If this CIF has been generated from an entry in the Cambridge 
# Structural Database, then it will include bibliographic, chemical, 
# crystal, experimental, refinement or atomic coordinate data resulting 
# from the CCDC's data processing and validation procedures.
#
#######################################################################

data_SAQYIT
_symmetry_cell_setting           triclinic
_symmetry_space_group_name_H-M   'P -1'
_symmetry_Int_Tables_number      2
_space_group_name_Hall           '-P 1'
loop_
_symmetry_equiv_pos_site_id
_symmetry_equiv_pos_as_xyz
1 x,y,z
2 -x,-y,-z
_cell_length_a                   8.3172(19)
_cell_length_b                   8.8825(7)
_cell_length_c                   8.9558(15)
_cell_angle_alpha                64.176(15)
_cell_angle_beta                 86.29(2)
_cell_angle_gamma                79.11(2)
_cell_volume                     584.719
loop_
_atom_site_label
_atom_site_type_symbol
_atom_site_fract_x
_atom_site_fract_y
_atom_site_fract_z
Zn1 Zn 0.25696(5) 0.07143(5) 0.42647(5)
P1 P 0.44523(11) 0.02967(11) 0.75076(11)
P2 P -0.07819(11) 0.25538(11) 0.45647(12)
O1 O 0.3703(3) 0.1185(3) 0.5770(3)
O2 O 0.6040(3) -0.0959(3) 0.7628(3)
O3 O 0.0667(3) 0.2558(3) 0.3406(3)
O4 O -0.1976(3) 0.1492(3) 0.4472(3)
O5 O 0.4617(3) 0.1606(3) 0.8105(3)
O6 O -0.0291(3) 0.2170(3) 0.6298(3)
C1 C 0.3098(4) -0.1118(4) 0.8851(4)
H1 H 0.3005 -0.1935 0.8428
H2 H 0.3600 -0.1747 0.9950
C2 C -0.1823(4) 0.4771(4) 0.3503(4)
H3 H -0.1129 0.5482 0.3613
H4 H -0.1898 0.5056 0.2331
C3 C 0.1429(4) 0.0644(4) 1.0090(5)
H5 H 0.2134 0.1486 0.9614
H6 H 0.1878 -0.0177 1.1174
N1 N -0.3509(3) 0.5250(4) 0.4061(4)
H7 H -0.3799 0.6399 0.3492
C4 C 0.0280(4) -0.1508(4) 0.9716(5)
H8 H 0.0705 -0.2379 1.0790
H9 H 0.0228 -0.2052 0.8992
C5 C -0.4786(4) 0.4487(4) 0.3651(5)
H10 H -0.4539 0.3258 0.4250
H11 H -0.4779 0.4783 0.2473
C6 C -0.3536(4) 0.4855(4) 0.5875(4)
H12 H -0.2722 0.5376 0.6113
H13 H -0.3260 0.3635 0.6532
N2 N 0.1407(3) -0.0240(4) 0.9002(4)
H14 H 0.1025 0.0544 0.7975
Zn1A Zn -0.25696(5) -0.07143(5) 1.57353(5)
Zn1A_2 Zn 0.74304(5) -0.07143(5) 0.57353(5)
Zn1A_3 Zn -0.25696(5) -0.07143(5) 0.57353(5)
Zn1_2 Zn -0.74304(5) 0.07143(5) 1.42647(5)
Zn1A_4 Zn -1.25696(5) 0.92857(5) 0.57353(5)
Zn1_3 Zn -0.74304(5) 1.07143(5) 0.42647(5)
P1A P -0.44523(11) -0.02967(11) 1.24924(11)
P2A P -0.92181(11) 0.74462(11) 0.54353(12)
O1A O -0.3703(3) -0.1185(3) 1.4230(3)
O2A O -0.6040(3) 0.0959(3) 1.2372(3)
O2A_2 O 0.3960(3) 0.0959(3) 0.2372(3)
O2_2 O -0.3960(3) -0.0959(3) 1.7628(3)
O3A O -1.0667(3) 0.7442(3) 0.6594(3)
O3A_2 O -0.0667(3) -0.2558(3) 1.6594(3)
O4A O -0.8024(3) 0.8508(3) 0.5528(3)
O4A_2 O 0.1976(3) -0.1492(3) 0.5528(3)
O4_2 O -0.1976(3) 0.1492(3) 1.4472(3)
O5A O -0.4617(3) -0.1606(3) 1.1895(3)
O6A O -0.9709(3) 0.7830(3) 0.3702(3)
C1A C -0.3098(4) 0.1118(4) 1.1149(4)
H1A H -0.3005 0.1935 1.1572
H2A H -0.3600 0.1747 1.0050
C2A C -0.8177(4) 0.5229(4) 0.6497(4)
H3A H -0.8871 0.4518 0.6387
H4A H -0.8102 0.4944 0.7669
C3A C -0.1429(4) -0.0644(4) 0.9910(5)
H5A H -0.2134 -0.1486 1.0386
H6A H -0.1878 0.0177 0.8826
N1A N -0.6491(3) 0.4750(4) 0.5939(4)
H7A H -0.6201 0.3601 0.6508
C4A C -0.0280(4) 0.1508(4) 1.0284(5)
H8A H -0.0705 0.2379 0.9210
H9A H -0.0228 0.2052 1.1008
C5A C -0.5214(4) 0.5513(4) 0.6349(5)
H10A H -0.5461 0.6742 0.5750
H11A H -0.5221 0.5217 0.7527
C6A C -0.6464(4) 0.5145(4) 0.4125(4)
H12A H -0.7278 0.4624 0.3887
H13A H -0.6740 0.6365 0.3468
N2A N -0.1407(3) 0.0240(4) 1.0998(4)
H14A H -0.1025 -0.0544 1.2025
O7 O 0.2533(4) 0.4434(3) 0.0545(4)
H15 H 0.3470 0.3805 0.0693
H16 H 0.1859 0.4221 0.1358
loop_
_geom_bond_atom_site_label_1
_geom_bond_atom_site_label_2
_geom_bond_site_symmetry_1
_geom_bond_site_symmetry_2
Zn1 O1 1_555 1_555
P1 O1 1_555 1_555
P2 O3 1_555 1_555
O2 P1 1_555 1_555
O3 Zn1 1_555 1_555
O4 P2 1_555 1_555
O5 P1 1_555 1_555
O6 P2 1_555 1_555
O7 H15 1_555 1_555
C1 P1 1_555 1_555
H1 C1 1_555 1_555
H2 C1 1_555 1_555
C2 P2 1_555 1_555
H3 C2 1_555 1_555
H4 C2 1_555 1_555
C3 H5 1_555 1_555
H6 C3 1_555 1_555
N1 C2 1_555 1_555
H7 N1 1_555 1_555
C4 H8 1_555 1_555
H9 C4 1_555 1_555
C5 N1 1_555 1_555
H10 C5 1_555 1_555
H11 C5 1_555 1_555
C6 N1 1_555 1_555
H12 C6 1_555 1_555
H13 C6 1_555 1_555
N2 C1 1_555 1_555
H14 N2 1_555 1_555
H16 O7 1_555 1_555
Zn1A O1A 1_555 1_555
Zn1A_2 O2 1_555 1_555
Zn1A_3 O4 1_555 1_555
Zn1_2 O2A 1_555 1_555
Zn1A_4 O3A 1_555 1_555
Zn1_3 O4A 1_555 1_555
P1A O1A 1_555 1_555
P2A O3A 1_555 1_555
O2A P1A 1_555 1_555
O2A_2 Zn1 1_555 1_555
O2_2 Zn1A 1_555 1_555
O3A_2 Zn1A 1_555 1_555
O4A P2A 1_555 1_555
O4A_2 Zn1 1_555 1_555
O4_2 Zn1A 1_555 1_555
O5A P1A 1_555 1_555
O6A P2A 1_555 1_555
C1A P1A 1_555 1_555
H1A C1A 1_555 1_555
H2A C1A 1_555 1_555
C2A P2A 1_555 1_555
H3A C2A 1_555 1_555
H4A C2A 1_555 1_555
C3A C4 1_555 1_555
H5A C3A 1_555 1_555
H6A C3A 1_555 1_555
N1A C2A 1_555 1_555
H7A N1A 1_555 1_555
C4A C3 1_555 1_555
H8A C4A 1_555 1_555
H9A C4A 1_555 1_555
C5A C6 1_555 1_555
H10A C5A 1_555 1_555
H11A C5A 1_555 1_555
C6A C5 1_555 1_555
H12A C6A 1_555 1_555
H13A C6A 1_555 1_555
N2A C1A 1_555 1_555
H14A N2A 1_555 1_555
C3 N2 1_555 1_555
C4 N2 1_555 1_555
C3A N2A 1_555 1_555
N1A C5A 1_555 1_555
N1A C6A 1_555 1_555
C4A N2A 1_555 1_555

#END
