
#######################################################################
#
#                 Cambridge Crystallographic Data Centre
#                                CCDC 
#
#######################################################################
#
# If this CIF has been generated from an entry in the Cambridge 
# Structural Database, then it will include bibliographic, chemical, 
# crystal, experimental, refinement or atomic coordinate data resulting 
# from the CCDC's data processing and validation procedures.
#
#######################################################################

data_SAQYEO01
_symmetry_cell_setting           orthorhombic
_symmetry_space_group_name_H-M   'P c c a'
_symmetry_Int_Tables_number      54
_space_group_name_Hall           '-P 2a 2ac'
loop_
_symmetry_equiv_pos_site_id
_symmetry_equiv_pos_as_xyz
1 x,y,z
2 1/2-x,-y,z
3 -x,y,1/2-z
4 1/2+x,-y,1/2-z
5 -x,-y,-z
6 1/2+x,y,-z
7 x,-y,1/2+z
8 1/2-x,y,1/2+z
_cell_length_a                   7.293(2)
_cell_length_b                   9.980(3)
_cell_length_c                   19.889(6)
_cell_angle_alpha                90
_cell_angle_beta                 90
_cell_angle_gamma                90
_cell_volume                     1447.6
loop_
_atom_site_label
_atom_site_type_symbol
_atom_site_fract_x
_atom_site_fract_y
_atom_site_fract_z
Cd1 Cd 0.2500 0.0000 0.10225(3)
O1 O 0.1825(6) -0.1564(4) 0.0171(2)
O2 O 0.1440(6) -0.2359(4) 0.1187(2)
O3 O 0.2500 0.0000 0.2152(3)
O4 O -0.0490(6) 0.0637(5) 0.1013(2)
C1 C 0.1350(7) -0.2489(5) 0.0553(3)
C2 C 0.0653(7) -0.3801(5) 0.0269(3)
C3 C 0.0588(8) -0.3989(6) -0.0430(3)
H1 H 0.0965 -0.3310 -0.0718
C4 C 0.0043(8) -0.4801(5) 0.0688(3)
H2 H 0.0052 -0.4668 0.1151
Cd1E Cd -0.2500 -1.0000 -0.10225(3)
O1D O -0.1825(6) -0.8436(4) -0.0171(2)
O1A O 0.3175(6) 0.1564(4) 0.0171(2)
O2D O -0.1440(6) -0.7641(4) -0.1187(2)
O2A O 0.3560(6) 0.2359(4) 0.1187(2)
O4A O 0.5490(6) -0.0637(5) 0.1013(2)
C1D C -0.1350(7) -0.7511(5) -0.0553(3)
C2D C -0.0653(7) -0.6199(5) -0.0269(3)
C3D C -0.0588(8) -0.6011(6) 0.0430(3)
H1D H -0.0965 -0.6690 0.0718
C4D C -0.0043(8) -0.5199(5) -0.0688(3)
H2D H -0.0052 -0.5332 -0.1151
O5 O -0.1913(7) -0.1909(5) 0.1862(2)
O6 O -0.3206(8) -0.3735(5) 0.2765(3)
loop_
_geom_bond_atom_site_label_1
_geom_bond_atom_site_label_2
_geom_bond_site_symmetry_1
_geom_bond_site_symmetry_2
Cd1 O1 1_555 1_555
O1 C1 1_555 1_555
O2 Cd1 1_555 1_555
O3 Cd1 1_555 1_555
O4 Cd1 1_555 1_555
C1 O2 1_555 1_555
C2 C1 1_555 1_555
C3 C2 1_555 1_555
H1 C3 1_555 1_555
C4 C2 1_555 1_555
H2 C4 1_555 1_555
Cd1E O1D 1_555 1_555
O1D C1D 1_555 1_555
O1A Cd1 1_555 1_555
O2D Cd1E 1_555 1_555
O2A Cd1 1_555 1_555
O4A Cd1 1_555 1_555
C1D O2D 1_555 1_555
C2D C1D 1_555 1_555
C3D C4 1_555 1_555
H1D C3D 1_555 1_555
C4D C3 1_555 1_555
H2D C4D 1_555 1_555
C2D C3D 1_555 1_555
C2D C4D 1_555 1_555

#END
