
#######################################################################
#
#                 Cambridge Crystallographic Data Centre
#                                CCDC 
#
#######################################################################
#
# If this CIF has been generated from an entry in the Cambridge 
# Structural Database, then it will include bibliographic, chemical, 
# crystal, experimental, refinement or atomic coordinate data resulting 
# from the CCDC's data processing and validation procedures.
#
#######################################################################

data_SARBOE
_symmetry_cell_setting           orthorhombic
_symmetry_space_group_name_H-M   'P 21 21 2'
_symmetry_Int_Tables_number      18
_space_group_name_Hall           'P 2 2ab'
loop_
_symmetry_equiv_pos_site_id
_symmetry_equiv_pos_as_xyz
1 x,y,z
2 -x,-y,z
3 1/2-x,1/2+y,-z
4 1/2+x,1/2-y,-z
_cell_length_a                   14.3885(5)
_cell_length_b                   15.4745(6)
_cell_length_c                   8.4241(3)
_cell_angle_alpha                90
_cell_angle_beta                 90
_cell_angle_gamma                90
_cell_volume                     1875.67
loop_
_atom_site_label
_atom_site_type_symbol
_atom_site_fract_x
_atom_site_fract_y
_atom_site_fract_z
Zn1 Zn 0.24968(4) 1.18986(3) 0.21275(5)
O1 O 0.0471(3) 1.2435(4) 0.1448(4)
O2 O 0.1428(2) 1.2134(3) 0.3435(4)
O3 O 0.2226(2) 0.7659(2) -0.0385(4)
O4 O 0.3279(3) 0.7475(2) 0.1527(4)
C1 C -0.0575(3) 1.2690(4) 0.6803(6)
C2 C 0.0126(3) 1.2542(3) 0.5657(5)
H1 H 0.0734 1.2448 0.5986
C3 C -0.0078(3) 1.2535(4) 0.4081(5)
C4 C -0.1002(3) 1.2666(4) 0.3614(6)
H2 H -0.1163 1.2659 0.2545
C5 C -0.1669(3) 1.2805(4) 0.4761(5)
H3 H -0.2284 1.2880 0.4449
C6 C 0.0662(3) 1.2351(4) 0.2897(6)
C7 C 0.1959(4) 1.0241(3) 0.0551(5)
C8 C 0.2019(3) 0.9360(3) 0.0299(5)
H4 H 0.1613 0.9092 -0.0406
C9 C 0.2674(3) 0.8882(3) 0.1083(5)
C10 C 0.3293(4) 0.9293(3) 0.2077(6)
H5 H 0.3752 0.8984 0.2609
C11 C 0.3213(4) 1.0151(3) 0.2254(6)
H6 H 0.3641 1.0428 0.2908
C12 C 0.2755(3) 0.7916(3) 0.0772(5)
N1 N -0.1456(3) 1.2836(3) 0.6342(4)
N2 N -0.0370(3) 1.2682(4) 0.8324(5)
H7 H -0.0799 1.2770 0.9018
H8 H 0.0192 1.2589 0.8626
N3 N 0.2570(3) 1.0631(2) 0.1565(4)
N4 N 0.1322(3) 1.0712(3) -0.0166(5)
H9 H 0.1294 1.1259 0.0007
H10 H 0.0934 1.0473 -0.0806
Zn1B Zn 0.25032(4) 0.68986(3) -0.21275(5)
Zn1C Zn -0.25032(4) 1.31014(3) 0.78725(5)
O3B O 0.2774(2) 1.2659(2) 0.0385(4)
N1C N 0.3544(3) 1.2164(3) 0.3658(4)
loop_
_geom_bond_atom_site_label_1
_geom_bond_atom_site_label_2
_geom_bond_site_symmetry_1
_geom_bond_site_symmetry_2
Zn1 O2 1_555 1_555
O1 C6 1_555 1_555
O2 C6 1_555 1_555
O3 C12 1_555 1_555
O4 C12 1_555 1_555
C1 C2 1_555 1_555
C2 H1 1_555 1_555
C3 C2 1_555 1_555
C4 C3 1_555 1_555
H2 C4 1_555 1_555
C5 C4 1_555 1_555
H3 C5 1_555 1_555
C6 C3 1_555 1_555
C7 C8 1_555 1_555
C8 H4 1_555 1_555
C9 C8 1_555 1_555
C10 C9 1_555 1_555
H5 C10 1_555 1_555
C11 C10 1_555 1_555
H6 C11 1_555 1_555
C12 C9 1_555 1_555
N1 C1 1_555 1_555
N2 C1 1_555 1_555
H7 N2 1_555 1_555
H8 N2 1_555 1_555
N3 Zn1 1_555 1_555
N4 C7 1_555 1_555
H9 N4 1_555 1_555
H10 N4 1_555 1_555
Zn1B O3 1_555 1_555
Zn1C N1 1_555 1_555
O3B Zn1 1_555 1_555
N1C Zn1 1_555 1_555
C5 N1 1_555 1_555
C7 N3 1_555 1_555
C11 N3 1_555 1_555

#END
