
#######################################################################
#
#                 Cambridge Crystallographic Data Centre
#                                CCDC 
#
#######################################################################
#
# If this CIF has been generated from an entry in the Cambridge 
# Structural Database, then it will include bibliographic, chemical, 
# crystal, experimental, refinement or atomic coordinate data resulting 
# from the CCDC's data processing and validation procedures.
#
#######################################################################

data_SARFOH
_symmetry_cell_setting           triclinic
_symmetry_space_group_name_H-M   'P -1'
_symmetry_Int_Tables_number      2
_space_group_name_Hall           '-P 1'
loop_
_symmetry_equiv_pos_site_id
_symmetry_equiv_pos_as_xyz
1 x,y,z
2 -x,-y,-z
_cell_length_a                   11.2751(16)
_cell_length_b                   11.5380(16)
_cell_length_c                   11.6085(16)
_cell_angle_alpha                80.181(3)
_cell_angle_beta                 71.909(3)
_cell_angle_gamma                73.148(2)
_cell_volume                     1368.48
loop_
_atom_site_label
_atom_site_type_symbol
_atom_site_fract_x
_atom_site_fract_y
_atom_site_fract_z
Co1 Co 0.5000 0.5000 0.5000
Co2 Co 1.0000 0.5000 0.5000
O1 O 0.6903(2) 0.4098(2) 0.4675(2)
O2 O 0.8868(2) 0.4308(2) 0.4326(2)
O3 O 0.9060(2) 0.6675(2) 0.4390(2)
N1 N 0.5830(3) 0.6457(2) 0.4691(2)
N4 N 0.1450(3) 0.4904(3) 1.3248(3)
N5 N 0.4773(3) 0.4924(3) 0.6984(3)
C1 C 0.7674(3) 0.4751(3) 0.4535(3)
C2 C 0.7124(3) 0.6098(3) 0.4556(3)
C3 C 0.7861(3) 0.6952(3) 0.4398(3)
C4 C 0.7192(4) 0.8192(3) 0.4238(3)
H5 H 0.7640 0.8790 0.4068
C5 C 0.5911(4) 0.8515(3) 0.4333(4)
H6 H 0.5486 0.9329 0.4221
C6 C 0.5237(4) 0.7620(3) 0.4596(3)
H7 H 0.4350 0.7848 0.4708
C18 C 0.1894(4) 0.3898(4) 1.2676(3)
H15 H 0.1687 0.3191 1.3100
C19 C 0.2649(4) 0.3844(4) 1.1484(4)
H16 H 0.2934 0.3114 1.1125
C20 C 0.2975(3) 0.4875(3) 1.0828(3)
C21 C 0.2530(4) 0.5918(4) 1.1442(3)
H17 H 0.2736 0.6636 1.1049
C22 C 0.1788(4) 0.5887(4) 1.2627(3)
H18 H 0.1507 0.6597 1.3018
C23 C 0.3680(3) 0.4884(3) 0.9514(3)
C24 C 0.4264(4) 0.3835(4) 0.8936(3)
H19 H 0.4303 0.3083 0.9384
C25 C 0.4791(4) 0.3898(4) 0.7689(3)
H20 H 0.5183 0.3173 0.7325
C26 C 0.4305(4) 0.5929(4) 0.7551(3)
H21 H 0.4336 0.6667 0.7088
C27 C 0.3773(4) 0.5943(4) 0.8792(3)
H22 H 0.3475 0.6678 0.9142
Co2_2 Co 0.0000 0.5000 1.5000
Co2_3 Co 0.0000 0.5000 0.5000
Co2_4 Co 1.0000 0.5000 -0.5000
O1A O 0.3097(2) 0.5902(2) 0.5325(2)
O2A O 0.1132(2) 0.5692(2) 0.5674(2)
O2A_2 O 1.1132(2) 0.5692(2) 0.5674(2)
O3A O 0.0940(2) 0.3325(2) 0.5610(2)
O3A_2 O 1.0940(2) 0.3325(2) 0.5610(2)
N1A N 0.4170(3) 0.3543(2) 0.5309(2)
N4A N 0.8550(3) 0.5096(3) -0.3248(3)
N4_2 N 1.1450(3) 0.4904(3) 0.3248(3)
N4A_2 N 0.8550(3) 0.5096(3) 0.6752(3)
N5A N 0.5227(3) 0.5076(3) 0.3016(3)
C1A C 0.2326(3) 0.5249(3) 0.5465(3)
C2A C 0.2876(3) 0.3902(3) 0.5444(3)
C3A C 0.2139(3) 0.3048(3) 0.5602(3)
C4A C 0.2808(4) 0.1808(3) 0.5762(3)
H5A H 0.2360 0.1210 0.5932
C5A C 0.4089(4) 0.1485(3) 0.5667(4)
H6A H 0.4514 0.0671 0.5779
C6A C 0.4763(4) 0.2380(3) 0.5404(3)
H7A H 0.5650 0.2152 0.5292
C18A C 0.8106(4) 0.6102(4) -0.2676(3)
H15A H 0.8313 0.6809 -0.3100
C19A C 0.7351(4) 0.6156(4) -0.1484(4)
H16A H 0.7066 0.6886 -0.1125
C20A C 0.7025(3) 0.5125(3) -0.0828(3)
C21A C 0.7470(4) 0.4082(4) -0.1442(3)
H17A H 0.7264 0.3364 -0.1049
C22A C 0.8212(4) 0.4113(4) -0.2627(3)
H18A H 0.8493 0.3403 -0.3018
C23A C 0.6320(3) 0.5116(3) 0.0486(3)
C24A C 0.5736(4) 0.6165(4) 0.1064(3)
H19A H 0.5697 0.6917 0.0616
C25A C 0.5209(4) 0.6102(4) 0.2311(3)
H20A H 0.4817 0.6827 0.2675
C26A C 0.5695(4) 0.4071(4) 0.2449(3)
H21A H 0.5664 0.3333 0.2912
C27A C 0.6227(4) 0.4057(4) 0.1208(3)
H22A H 0.6525 0.3322 0.0858
Co3 Co 1.0000 1.0000 0.5000
Co4 Co 1.0000 1.0000 0.0000
O4 O 1.1772(3) 0.9379(3) 0.0291(2)
O5 O 0.9235(2) 0.9854(2) 0.1854(2)
O6 O 0.9032(2) 1.0129(2) 0.3738(2)
O8 O 1.0218(3) 0.8109(2) 0.5092(3)
H3 H 1.0789 0.7693 0.4542
H4 H 0.9736 0.7763 0.5680
N2 N 1.1510(3) 0.9893(3) 0.3367(3)
N3 N 1.0050(3) 1.1897(3) 0.0069(3)
C7 C 0.9726(4) 0.9915(3) 0.2668(3)
C8 C 1.1142(4) 0.9768(3) 0.2394(3)
C9 C 1.2044(4) 0.9556(3) 0.1246(3)
C10 C 1.3326(4) 0.9542(5) 0.1161(4)
H8 H 1.3955 0.9426 0.0421
C11 C 1.3657(5) 0.9698(5) 0.2159(4)
H9 H 1.4501 0.9688 0.2099
C12 C 1.2713(4) 0.9868(4) 0.3256(4)
H10 H 1.2935 0.9968 0.3933
C13 C 1.0656(6) 1.2489(4) -0.0905(4)
H11 H 1.1110 1.2066 -0.1589
C14 C 1.0654(6) 1.3692(4) -0.0978(4)
H12 H 1.1084 1.4058 -0.1702
C15 C 1.0021(3) 1.4358(3) 0.0015(3)
C16 C 0.9418(5) 1.3722(4) 0.1035(4)
H13 H 0.8994 1.4104 0.1748
C17 C 0.9444(5) 1.2537(4) 0.1014(4)
H14 H 0.8997 1.2155 0.1717
Co4_2 Co 1.0000 2.0000 0.0000
Co4_3 Co 1.0000 1.0000 1.0000
O4A O 0.8228(3) 1.0621(3) 0.9709(2)
O4A_2 O 0.8228(3) 1.0621(3) -0.0291(2)
O5A O 1.0765(2) 1.0146(2) 0.8146(2)
O5A_2 O 1.0765(2) 1.0146(2) -0.1854(2)
O6A O 1.0968(2) 0.9871(2) 0.6262(2)
O8A O 0.9782(3) 1.1891(2) 0.4908(3)
H3A H 0.9211 1.2307 0.5458
H4A H 1.0264 1.2237 0.4320
N2A N 0.8490(3) 1.0107(3) 0.6633(3)
N3A N 0.9950(3) 1.8103(3) -0.0069(3)
N3A_2 N 0.9950(3) 0.8103(3) -0.0069(3)
C7A C 1.0274(4) 1.0085(3) 0.7332(3)
C8A C 0.8858(4) 1.0232(3) 0.7606(3)
C9A C 0.7956(4) 1.0444(3) 0.8754(3)
C10A C 0.6674(4) 1.0458(5) 0.8839(4)
H8A H 0.6045 1.0574 0.9579
C11A C 0.6343(5) 1.0302(5) 0.7841(4)
H9A H 0.5499 1.0312 0.7901
C12A C 0.7287(4) 1.0132(4) 0.6744(4)
H10A H 0.7065 1.0032 0.6067
C13A C 0.9344(6) 1.7511(4) 0.0905(4)
H11A H 0.8890 1.7934 0.1589
C14A C 0.9346(6) 1.6308(4) 0.0978(4)
H12A H 0.8916 1.5942 0.1702
C15A C 0.9979(3) 1.5642(3) -0.0015(3)
C16A C 1.0582(5) 1.6278(4) -0.1035(4)
H13A H 1.1006 1.5896 -0.1748
C17A C 1.0556(5) 1.7463(4) -0.1014(4)
H14A H 1.1003 1.7845 -0.1717
O7 O 1.3571(4) 0.9023(4) -0.2022(4)
H1 H 1.3842 0.9276 -0.2764
H2 H 1.3250 0.9522 -0.1479
loop_
_geom_bond_atom_site_label_1
_geom_bond_atom_site_label_2
_geom_bond_site_symmetry_1
_geom_bond_site_symmetry_2
Co1 O1 1_555 1_555
Co2 O2 1_555 1_555
Co3 O6 1_555 1_555
Co4 O4 1_555 1_555
O1 C1 1_555 1_555
O2 C1 1_555 1_555
O3 Co2 1_555 1_555
O4 C9 1_555 1_555
O5 Co4 1_555 1_555
O6 C7 1_555 1_555
O7 H1 1_555 1_555
H2 O7 1_555 1_555
O8 Co3 1_555 1_555
H3 O8 1_555 1_555
H4 O8 1_555 1_555
N1 Co1 1_555 1_555
N2 Co3 1_555 1_555
N3 Co4 1_555 1_555
N4 C18 1_555 1_555
N5 Co1 1_555 1_555
C1 C2 1_555 1_555
C2 N1 1_555 1_555
C3 O3 1_555 1_555
C4 C3 1_555 1_555
H5 C4 1_555 1_555
C5 C4 1_555 1_555
H6 C5 1_555 1_555
C6 N1 1_555 1_555
H7 C6 1_555 1_555
C7 O5 1_555 1_555
C8 N2 1_555 1_555
C9 C8 1_555 1_555
C10 C9 1_555 1_555
H8 C10 1_555 1_555
C11 C10 1_555 1_555
H9 C11 1_555 1_555
C12 N2 1_555 1_555
H10 C12 1_555 1_555
C13 N3 1_555 1_555
H11 C13 1_555 1_555
C14 C13 1_555 1_555
H12 C14 1_555 1_555
C15 C14 1_555 1_555
C16 C15 1_555 1_555
H13 C16 1_555 1_555
C17 N3 1_555 1_555
H14 C17 1_555 1_555
C18 H15 1_555 1_555
C19 C18 1_555 1_555
H16 C19 1_555 1_555
C20 C19 1_555 1_555
C21 C20 1_555 1_555
H17 C21 1_555 1_555
C22 N4 1_555 1_555
H18 C22 1_555 1_555
C23 C20 1_555 1_555
C24 C23 1_555 1_555
H19 C24 1_555 1_555
C25 N5 1_555 1_555
H20 C25 1_555 1_555
C26 N5 1_555 1_555
H21 C26 1_555 1_555
C27 C23 1_555 1_555
H22 C27 1_555 1_555
Co2_2 N4 1_555 1_555
Co2_3 O2A 1_555 1_555
Co2_4 N4A 1_555 1_555
Co4_2 N3A 1_555 1_555
Co4_3 O4A 1_555 1_555
O1A Co1 1_555 1_555
O2A C1A 1_555 1_555
O2A_2 Co2 1_555 1_555
O3A Co2_3 1_555 1_555
O3A_2 Co2 1_555 1_555
O4A C9A 1_555 1_555
O4A_2 Co4 1_555 1_555
O5A Co4_3 1_555 1_555
O5A_2 Co4 1_555 1_555
O6A Co3 1_555 1_555
O8A Co3 1_555 1_555
H3A O8A 1_555 1_555
H4A O8A 1_555 1_555
N1A Co1 1_555 1_555
N2A Co3 1_555 1_555
N3A C13A 1_555 1_555
N3A_2 Co4 1_555 1_555
N4A C18A 1_555 1_555
N4_2 Co2 1_555 1_555
N4A_2 Co2 1_555 1_555
N5A Co1 1_555 1_555
C1A O1A 1_555 1_555
C2A N1A 1_555 1_555
C3A O3A 1_555 1_555
C4A C3A 1_555 1_555
H5A C4A 1_555 1_555
C5A C4A 1_555 1_555
H6A C5A 1_555 1_555
C6A N1A 1_555 1_555
H7A C6A 1_555 1_555
C7A O5A 1_555 1_555
C8A N2A 1_555 1_555
C9A C8A 1_555 1_555
C10A C9A 1_555 1_555
H8A C10A 1_555 1_555
C11A C10A 1_555 1_555
H9A C11A 1_555 1_555
C12A N2A 1_555 1_555
H10A C12A 1_555 1_555
C13A H11A 1_555 1_555
C14A C13A 1_555 1_555
H12A C14A 1_555 1_555
C15A C15 1_555 1_555
C16A C15A 1_555 1_555
H13A C16A 1_555 1_555
C17A N3A 1_555 1_555
H14A C17A 1_555 1_555
C18A H15A 1_555 1_555
C19A C18A 1_555 1_555
H16A C19A 1_555 1_555
C20A C19A 1_555 1_555
C21A C20A 1_555 1_555
H17A C21A 1_555 1_555
C22A N4A 1_555 1_555
H18A C22A 1_555 1_555
C23A C20A 1_555 1_555
C24A C23A 1_555 1_555
H19A C24A 1_555 1_555
C25A N5A 1_555 1_555
H20A C25A 1_555 1_555
C26A N5A 1_555 1_555
H21A C26A 1_555 1_555
C27A C23A 1_555 1_555
H22A C27A 1_555 1_555
C2 C3 1_555 1_555
C5 C6 1_555 1_555
C7 C8 1_555 1_555
C11 C12 1_555 1_555
C16 C17 1_555 1_555
C21 C22 1_555 1_555
C24 C25 1_555 1_555
C26 C27 1_555 1_555
O6A C7A 1_555 1_555
C1A C2A 1_555 1_555
C2A C3A 1_555 1_555
C5A C6A 1_555 1_555
C7A C8A 1_555 1_555
C11A C12A 1_555 1_555
C14A C15A 1_555 1_555
C16A C17A 1_555 1_555
C21A C22A 1_555 1_555
C24A C25A 1_555 1_555
C26A C27A 1_555 1_555

#END
