
#######################################################################
#
#                 Cambridge Crystallographic Data Centre
#                                CCDC 
#
#######################################################################
#
# If this CIF has been generated from an entry in the Cambridge 
# Structural Database, then it will include bibliographic, chemical, 
# crystal, experimental, refinement or atomic coordinate data resulting 
# from the CCDC's data processing and validation procedures.
#
#######################################################################

data_SARFUN
_symmetry_cell_setting           monoclinic
_symmetry_space_group_name_H-M   'P 21/n'
_symmetry_Int_Tables_number      14
_space_group_name_Hall           '-P 2yn'
loop_
_symmetry_equiv_pos_site_id
_symmetry_equiv_pos_as_xyz
1 x,y,z
2 1/2-x,1/2+y,1/2-z
3 -x,-y,-z
4 1/2+x,1/2-y,1/2+z
_cell_length_a                   10.7068(11)
_cell_length_b                   16.5017(18)
_cell_length_c                   40.470(4)
_cell_angle_alpha                90
_cell_angle_beta                 95.299(2)
_cell_angle_gamma                90
_cell_volume                     7119.7
loop_
_atom_site_label
_atom_site_type_symbol
_atom_site_fract_x
_atom_site_fract_y
_atom_site_fract_z
Rh1 Rh 0.21398(7) 0.27923(4) 0.029686(19)
Rh2 Rh -0.28294(7) 0.22515(5) 0.027860(19)
O1 O 0.4125(6) 0.2295(4) 0.04980(15)
H1 H 0.4666 0.2661 0.0534
O2 O -0.0888(6) 0.2789(4) 0.05095(15)
H2 H -0.0448 0.2373 0.0491
N1 N 0.2040(7) 0.1909(5) -0.00815(19)
N2 N 0.1622(7) 0.1300(5) 0.0085(2)
N3 N 0.1419(7) 0.1591(5) 0.0376(2)
N4 N -0.3559(7) 0.3461(5) 0.03217(19)
N5 N -0.3337(7) 0.3717(4) 0.00280(19)
N6 N -0.2871(7) 0.3088(5) -0.01252(17)
C1 C 0.2387(9) 0.1744(6) -0.0396(3)
C2 C 0.2971(10) 0.2371(7) -0.0561(3)
H5 H 0.3072 0.2890 -0.0461
C3 C 0.3397(10) 0.2232(7) -0.0868(3)
H6 H 0.3760 0.2660 -0.0984
C4 C 0.3291(10) 0.1447(7) -0.1009(3)
H7 H 0.3631 0.1337 -0.1213
C5 C 0.2702(11) 0.0856(6) -0.0852(2)
H8 H 0.2598 0.0339 -0.0954
C6 C 0.2261(9) 0.0980(5) -0.0556(2)
H9 H 0.1858 0.0549 -0.0452
C7 C 0.1238(9) 0.1037(6) 0.0625(3)
C8 C 0.1442(9) 0.1293(7) 0.0947(2)
H10 H 0.1668 0.1842 0.0991
C9 C 0.1323(10) 0.0760(7) 0.1213(3)
H11 H 0.1495 0.0942 0.1435
C10 C 0.0948(10) -0.0048(7) 0.1147(3)
H12 H 0.0846 -0.0414 0.1324
C11 C 0.0733(10) -0.0293(7) 0.0825(3)
H13 H 0.0490 -0.0837 0.0778
C12 C 0.0862(9) 0.0234(6) 0.0563(3)
H14 H 0.0696 0.0049 0.0341
C13 C 0.1740(9) 0.3664(6) 0.0674(2)
H15 H 0.1872 0.3277 0.0848
C14 C 0.2797(8) 0.3888(5) 0.0510(2)
H16 H 0.3573 0.3976 0.0639
C15 C 0.2749(9) 0.3986(6) 0.0158(2)
H17 H 0.3432 0.3782 0.0048
C16 C 0.1673(8) 0.4397(5) -0.0056(2)
H18 H 0.1283 0.4812 0.0078
H19 H 0.2010 0.4673 -0.0245
C17 C 0.0674(9) 0.3782(5) -0.0186(2)
H20 H -0.0114 0.4069 -0.0259
H21 H 0.0960 0.3495 -0.0380
C18 C 0.0431(8) 0.3168(5) 0.0082(2)
H22 H -0.0004 0.2689 -0.0028
C19 C -0.0342(8) 0.3463(5) 0.0347(2)
H23 H -0.1040 0.3803 0.0240
C20 C 0.0424(9) 0.3982(6) 0.0601(2)
H24 H 0.0458 0.4543 0.0517
H25 H 0.0005 0.3995 0.0809
C21 C -0.3838(8) 0.4035(6) 0.0551(2)
C22 C -0.3773(9) 0.3797(6) 0.0882(2)
H26 H -0.3542 0.3257 0.0942
C23 C -0.4048(10) 0.4353(6) 0.1124(3)
H27 H -0.4007 0.4193 0.1350
C24 C -0.4382(10) 0.5143(7) 0.1033(3)
H28 H -0.4562 0.5526 0.1197
C25 C -0.4450(9) 0.5366(6) 0.0707(3)
H29 H -0.4664 0.5908 0.0647
C26 C -0.4216(8) 0.4821(6) 0.0465(2)
H30 H -0.4310 0.4979 0.0239
C27 C -0.2469(9) 0.3212(6) -0.0440(2)
C28 C -0.1902(9) 0.2563(6) -0.0584(2)
H31 H -0.1849 0.2054 -0.0474
C29 C -0.1412(10) 0.2654(6) -0.0887(3)
H32 H -0.1016 0.2206 -0.0982
C30 C -0.1492(9) 0.3388(6) -0.1054(2)
H33 H -0.1164 0.3444 -0.1263
C31 C -0.2060(9) 0.4041(6) -0.0910(2)
H34 H -0.2119 0.4547 -0.1023
C32 C -0.2531(9) 0.3965(6) -0.0612(2)
H35 H -0.2907 0.4420 -0.0516
C33 C 0.7762(9) 0.1033(6) 0.0162(2)
H36 H 0.8452 0.1208 0.0048
C34 C 0.7814(9) 0.1189(6) 0.0509(3)
H37 H 0.8596 0.1111 0.0636
C35 C 0.6797(9) 0.1449(6) 0.0678(2)
H38 H 0.6955 0.1860 0.0841
C36 C 0.5461(9) 0.1125(6) 0.0621(3)
H39 H 0.5052 0.1162 0.0830
H40 H 0.5486 0.0547 0.0557
C37 C 0.4690(9) 0.1601(6) 0.0349(3)
H41 H 0.3999 0.1241 0.0252
C38 C 0.5449(8) 0.1859(6) 0.0074(2)
H42 H 0.5013 0.2326 -0.0044
C39 C 0.5683(9) 0.1218(5) -0.0183(2)
H43 H 0.5973 0.1483 -0.0382
H44 H 0.4889 0.0931 -0.0252
C40 C 0.6674(8) 0.0601(6) -0.0044(3)
H45 H 0.7005 0.0303 -0.0230
H46 H 0.6280 0.0203 0.0097
Rh2_2 Rh 0.71706(7) 0.22515(5) 0.027860(19)
C33_2 C -0.2238(9) 0.1033(6) 0.0162(2)
H36_2 H -0.1548 0.1208 0.0048
C34_2 C -0.2186(9) 0.1189(6) 0.0509(3)
H37_2 H -0.1404 0.1111 0.0636
C35_2 C -0.3203(9) 0.1449(6) 0.0678(2)
H38_2 H -0.3045 0.1860 0.0841
C38_2 C -0.4551(8) 0.1859(6) 0.0074(2)
H42_2 H -0.4987 0.2326 -0.0044
Rh3 Rh 0.78454(8) 0.71765(5) 0.21942(2)
Rh4 Rh 1.28134(8) 0.66252(5) 0.22274(2)
O3 O 0.5848(6) 0.6653(4) 0.20251(16)
H3 H 0.5452 0.7075 0.2068
O4 O 1.0891(6) 0.7098(4) 0.19656(16)
H4 H 1.0453 0.6695 0.2008
N7 N 0.7963(7) 0.6380(4) 0.2611(2)
N8 N 0.8403(7) 0.5750(5) 0.2464(2)
N9 N 0.8552(8) 0.5976(4) 0.21600(19)
N10 N 1.3506(7) 0.7806(5) 0.2167(2)
N11 N 1.3248(7) 0.8126(5) 0.2455(2)
N12 N 1.2803(7) 0.7490(5) 0.2611(2)
C41 C 0.7592(9) 0.6246(6) 0.2928(2)
C42 C 0.7063(9) 0.6910(6) 0.3077(3)
H47 H 0.7035 0.7422 0.2970
C43 C 0.6572(10) 0.6824(8) 0.3387(3)
H48 H 0.6214 0.7269 0.3493
C44 C 0.6639(10) 0.6057(8) 0.3528(3)
H49 H 0.6288 0.5973 0.3732
C45 C 0.7182(11) 0.5432(8) 0.3385(3)
H50 H 0.7249 0.4923 0.3496
C46 C 0.7635(9) 0.5514(7) 0.3087(3)
H51 H 0.7987 0.5059 0.2986
C47 C 0.8870(9) 0.5379(6) 0.1939(3)
C48 C 0.8836(9) 0.5561(7) 0.1605(3)
H52 H 0.8596 0.6089 0.1531
C49 C 0.9144(11) 0.4988(7) 0.1378(3)
H53 H 0.9140 0.5132 0.1150
C50 C 0.9459(12) 0.4203(7) 0.1478(3)
H54 H 0.9648 0.3806 0.1320
C51 C 0.9492(9) 0.4007(6) 0.1815(3)
H55 H 0.9718 0.3475 0.1889
C52 C 0.9198(9) 0.4584(6) 0.2040(3)
H56 H 0.9216 0.4445 0.2268
C53 C 0.8181(9) 0.7935(6) 0.1775(3)
H57 H 0.7998 0.7517 0.1616
C54 C 0.7190(9) 0.8219(5) 0.1953(3)
H58 H 0.6400 0.8305 0.1831
C55 C 0.7275(8) 0.8382(6) 0.2289(2)
H59 H 0.6627 0.8183 0.2412
C56 C 0.8353(9) 0.8865(6) 0.2480(3)
H60 H 0.8733 0.9241 0.2327
H61 H 0.8024 0.9188 0.2659
C57 C 0.9348(9) 0.8257(6) 0.2629(3)
H62 H 1.0146 0.8546 0.2690
H63 H 0.9064 0.8016 0.2833
C58 C 0.9564(9) 0.7591(6) 0.2383(2)
H64 H 1.0008 0.7136 0.2508
C59 C 1.0346(9) 0.7831(6) 0.2096(2)
H65 H 1.1035 0.8205 0.2182
C60 C 0.9514(9) 0.8255(6) 0.1821(3)
H66 H 0.9487 0.8841 0.1873
H67 H 0.9900 0.8194 0.1610
C61 C 1.3764(9) 0.8380(6) 0.1922(3)
C62 C 1.3609(9) 0.8125(6) 0.1593(3)
H68 H 1.3376 0.7581 0.1541
C63 C 1.3790(10) 0.8657(7) 0.1343(3)
H69 H 1.3649 0.8482 0.1119
C64 C 1.4178(10) 0.9453(7) 0.1410(3)
H70 H 1.4310 0.9816 0.1234
C65 C 1.4362(9) 0.9699(7) 0.1730(3)
H71 H 1.4640 1.0237 0.1776
C66 C 1.4155(8) 0.9186(6) 0.1994(3)
H72 H 1.4274 0.9373 0.2216
C67 C 1.2375(9) 0.7635(6) 0.2928(2)
C68 C 1.1764(9) 0.6996(6) 0.3065(3)
H73 H 1.1691 0.6489 0.2953
C69 C 1.1248(10) 0.7101(6) 0.3372(3)
H74 H 1.0836 0.6663 0.3468
C70 C 1.1344(10) 0.7835(6) 0.3530(3)
H75 H 1.0993 0.7900 0.3735
C71 C 1.1946(10) 0.8490(7) 0.3396(3)
H76 H 1.2014 0.8997 0.3507
C72 C 1.2450(9) 0.8377(6) 0.3090(3)
H77 H 1.2850 0.8819 0.2992
C73 C 0.2287(9) 0.5427(5) 0.2363(2)
H78 H 0.1580 0.5630 0.2463
C74 C 0.2240(9) 0.5514(5) 0.2025(2)
H79 H 0.1460 0.5416 0.1899
C75 C 0.3266(9) 0.5736(6) 0.1851(2)
H80 H 0.3118 0.6090 0.1667
C76 C 0.4604(8) 0.5440(6) 0.1942(2)
H81 H 0.4572 0.4883 0.2031
H82 H 0.5047 0.5417 0.1738
C77 C 0.5349(9) 0.5969(6) 0.2195(2)
H83 H 0.6060 0.5647 0.2306
C78 C 0.4536(8) 0.6292(6) 0.2459(2)
H84 H 0.4951 0.6782 0.2566
C79 C 0.4288(8) 0.5678(6) 0.2731(2)
H85 H 0.5080 0.5398 0.2807
H86 H 0.3988 0.5967 0.2922
C80 C 0.3312(9) 0.5052(6) 0.2602(2)
H87 H 0.2928 0.4809 0.2792
H88 H 0.3731 0.4613 0.2487
Rh4_2 Rh 0.28134(8) 0.66252(5) 0.22274(2)
C73_2 C 1.2287(9) 0.5427(5) 0.2363(2)
H78_2 H 1.1580 0.5630 0.2463
C74_2 C 1.2240(9) 0.5514(5) 0.2025(2)
H79_2 H 1.1460 0.5416 0.1899
C75_2 C 1.3266(9) 0.5736(6) 0.1851(2)
H80_2 H 1.3118 0.6090 0.1667
C78_2 C 1.4536(8) 0.6292(6) 0.2459(2)
H84_2 H 1.4951 0.6782 0.2566
loop_
_geom_bond_atom_site_label_1
_geom_bond_atom_site_label_2
_geom_bond_site_symmetry_1
_geom_bond_site_symmetry_2
Rh1 O1 1_555 1_555
Rh2 O2 1_555 1_555
Rh3 O3 1_555 1_555
Rh4 O4 1_555 1_555
O1 H1 1_555 1_555
O2 H2 1_555 1_555
O3 H3 1_555 1_555
O4 H4 1_555 1_555
N1 Rh1 1_555 1_555
N2 N1 1_555 1_555
N3 Rh1 1_555 1_555
N4 Rh2 1_555 1_555
N5 N4 1_555 1_555
N6 Rh2 1_555 1_555
N7 Rh3 1_555 1_555
N8 N7 1_555 1_555
N9 Rh3 1_555 1_555
N10 Rh4 1_555 1_555
N11 N10 1_555 1_555
N12 Rh4 1_555 1_555
C1 N1 1_555 1_555
C2 C1 1_555 1_555
H5 C2 1_555 1_555
C3 C2 1_555 1_555
H6 C3 1_555 1_555
C4 C3 1_555 1_555
H7 C4 1_555 1_555
C5 C4 1_555 1_555
H8 C5 1_555 1_555
C6 C1 1_555 1_555
H9 C6 1_555 1_555
C7 N3 1_555 1_555
C8 C7 1_555 1_555
H10 C8 1_555 1_555
C9 C8 1_555 1_555
H11 C9 1_555 1_555
C10 C9 1_555 1_555
H12 C10 1_555 1_555
C11 C10 1_555 1_555
H13 C11 1_555 1_555
C12 C7 1_555 1_555
H14 C12 1_555 1_555
C13 Rh1 1_555 1_555
H15 C13 1_555 1_555
C14 Rh1 1_555 1_555
H16 C14 1_555 1_555
C15 Rh1 1_555 1_555
H17 C15 1_555 1_555
C16 C15 1_555 1_555
H18 C16 1_555 1_555
H19 C16 1_555 1_555
C17 C16 1_555 1_555
H20 C17 1_555 1_555
H21 C17 1_555 1_555
C18 Rh1 1_555 1_555
H22 C18 1_555 1_555
C19 O2 1_555 1_555
H23 C19 1_555 1_555
C20 C13 1_555 1_555
H24 C20 1_555 1_555
H25 C20 1_555 1_555
C21 N4 1_555 1_555
C22 C21 1_555 1_555
H26 C22 1_555 1_555
C23 C22 1_555 1_555
H27 C23 1_555 1_555
C24 C23 1_555 1_555
H28 C24 1_555 1_555
C25 C24 1_555 1_555
H29 C25 1_555 1_555
C26 C21 1_555 1_555
H30 C26 1_555 1_555
C27 N6 1_555 1_555
C28 C27 1_555 1_555
H31 C28 1_555 1_555
C29 C28 1_555 1_555
H32 C29 1_555 1_555
C30 C29 1_555 1_555
H33 C30 1_555 1_555
C31 C30 1_555 1_555
H34 C31 1_555 1_555
C32 C27 1_555 1_555
H35 C32 1_555 1_555
C33 H36 1_555 1_555
C34 C33 1_555 1_555
H37 C34 1_555 1_555
C35 C34 1_555 1_555
H38 C35 1_555 1_555
C36 C35 1_555 1_555
H39 C36 1_555 1_555
H40 C36 1_555 1_555
C37 O1 1_555 1_555
H41 C37 1_555 1_555
C38 C37 1_555 1_555
H42 C38 1_555 1_555
C39 C38 1_555 1_555
H43 C39 1_555 1_555
H44 C39 1_555 1_555
C40 C33 1_555 1_555
H45 C40 1_555 1_555
H46 C40 1_555 1_555
C41 N7 1_555 1_555
C42 C41 1_555 1_555
H47 C42 1_555 1_555
C43 C42 1_555 1_555
H48 C43 1_555 1_555
C44 C43 1_555 1_555
H49 C44 1_555 1_555
C45 C44 1_555 1_555
H50 C45 1_555 1_555
C46 C41 1_555 1_555
H51 C46 1_555 1_555
C47 N9 1_555 1_555
C48 C47 1_555 1_555
H52 C48 1_555 1_555
C49 C48 1_555 1_555
H53 C49 1_555 1_555
C50 C49 1_555 1_555
H54 C50 1_555 1_555
C51 C50 1_555 1_555
H55 C51 1_555 1_555
C52 C47 1_555 1_555
H56 C52 1_555 1_555
C53 Rh3 1_555 1_555
H57 C53 1_555 1_555
C54 Rh3 1_555 1_555
H58 C54 1_555 1_555
C55 Rh3 1_555 1_555
H59 C55 1_555 1_555
C56 C55 1_555 1_555
H60 C56 1_555 1_555
H61 C56 1_555 1_555
C57 C56 1_555 1_555
H62 C57 1_555 1_555
H63 C57 1_555 1_555
C58 Rh3 1_555 1_555
H64 C58 1_555 1_555
C59 O4 1_555 1_555
H65 C59 1_555 1_555
C60 C53 1_555 1_555
H66 C60 1_555 1_555
H67 C60 1_555 1_555
C61 N10 1_555 1_555
C62 C61 1_555 1_555
H68 C62 1_555 1_555
C63 C62 1_555 1_555
H69 C63 1_555 1_555
C64 C63 1_555 1_555
H70 C64 1_555 1_555
C65 C64 1_555 1_555
H71 C65 1_555 1_555
C66 C61 1_555 1_555
H72 C66 1_555 1_555
C67 N12 1_555 1_555
C68 C67 1_555 1_555
H73 C68 1_555 1_555
C69 C68 1_555 1_555
H74 C69 1_555 1_555
C70 C69 1_555 1_555
H75 C70 1_555 1_555
C71 C70 1_555 1_555
H76 C71 1_555 1_555
C72 C67 1_555 1_555
H77 C72 1_555 1_555
C73 H78 1_555 1_555
C74 C73 1_555 1_555
H79 C74 1_555 1_555
C75 C74 1_555 1_555
H80 C75 1_555 1_555
C76 C75 1_555 1_555
H81 C76 1_555 1_555
H82 C76 1_555 1_555
C77 O3 1_555 1_555
H83 C77 1_555 1_555
C78 C77 1_555 1_555
H84 C78 1_555 1_555
C79 C78 1_555 1_555
H85 C79 1_555 1_555
H86 C79 1_555 1_555
C80 C73 1_555 1_555
H87 C80 1_555 1_555
H88 C80 1_555 1_555
Rh2_2 C33 1_555 1_555
Rh4_2 C73 1_555 1_555
C33_2 Rh2 1_555 1_555
H36_2 C33_2 1_555 1_555
C34_2 Rh2 1_555 1_555
H37_2 C34_2 1_555 1_555
C35_2 Rh2 1_555 1_555
H38_2 C35_2 1_555 1_555
C38_2 Rh2 1_555 1_555
H42_2 C38_2 1_555 1_555
C73_2 Rh4 1_555 1_555
H78_2 C73_2 1_555 1_555
C74_2 Rh4 1_555 1_555
H79_2 C74_2 1_555 1_555
C75_2 Rh4 1_555 1_555
H80_2 C75_2 1_555 1_555
C78_2 Rh4 1_555 1_555
H84_2 C78_2 1_555 1_555
N2 N3 1_555 1_555
N5 N6 1_555 1_555
N8 N9 1_555 1_555
N11 N12 1_555 1_555
C5 C6 1_555 1_555
C11 C12 1_555 1_555
C13 C14 1_555 1_555
C14 C15 1_555 1_555
C17 C18 1_555 1_555
C18 C19 1_555 1_555
C19 C20 1_555 1_555
C25 C26 1_555 1_555
C31 C32 1_555 1_555
C34 Rh2_2 1_555 1_555
C35 Rh2_2 1_555 1_555
C36 C37 1_555 1_555
C38 Rh2_2 1_555 1_555
C39 C40 1_555 1_555
C45 C46 1_555 1_555
C51 C52 1_555 1_555
C53 C54 1_555 1_555
C54 C55 1_555 1_555
C57 C58 1_555 1_555
C58 C59 1_555 1_555
C59 C60 1_555 1_555
C65 C66 1_555 1_555
C71 C72 1_555 1_555
C74 Rh4_2 1_555 1_555
C75 Rh4_2 1_555 1_555
C76 C77 1_555 1_555
C78 Rh4_2 1_555 1_555
C79 C80 1_555 1_555
C33_2 C34_2 1_555 1_555
C34_2 C35_2 1_555 1_555
C73_2 C74_2 1_555 1_555
C74_2 C75_2 1_555 1_555

#END
