
#######################################################################
#
#                 Cambridge Crystallographic Data Centre
#                                CCDC 
#
#######################################################################
#
# If this CIF has been generated from an entry in the Cambridge 
# Structural Database, then it will include bibliographic, chemical, 
# crystal, experimental, refinement or atomic coordinate data resulting 
# from the CCDC's data processing and validation procedures.
#
#######################################################################

data_SARHEZ
_symmetry_cell_setting           triclinic
_symmetry_space_group_name_H-M   'P -1'
_symmetry_Int_Tables_number      2
_space_group_name_Hall           '-P 1'
loop_
_symmetry_equiv_pos_site_id
_symmetry_equiv_pos_as_xyz
1 x,y,z
2 -x,-y,-z
_cell_length_a                   5.4313(8)
_cell_length_b                   8.7757(13)
_cell_length_c                   13.961(2)
_cell_angle_alpha                88.351(2)
_cell_angle_beta                 84.254(2)
_cell_angle_gamma                84.427(2)
_cell_volume                     658.835
loop_
_atom_site_label
_atom_site_type_symbol
_atom_site_fract_x
_atom_site_fract_y
_atom_site_fract_z
Zn1 Zn 0.60856(4) 0.95200(3) 0.752390(17)
Cl1 Cl 0.48908(12) 0.79258(7) 0.87259(5)
Cl2 Cl 0.34793(11) 1.07645(7) 0.65739(4)
N1 N 0.7709(3) 1.1181(2) 0.81613(13)
N2 N 0.8667(3) 0.8226(2) 0.66446(13)
C1 C 0.9549(4) 1.0839(3) 0.87172(18)
H1 H 1.000(5) 0.983(3) 0.8791(19)
C2 C 1.0641(5) 1.1930(3) 0.91768(18)
H2 H 1.189(5) 1.158(3) 0.959(2)
C3 C 0.9821(5) 1.3456(3) 0.90661(17)
C4 C 0.7916(6) 1.3809(3) 0.8490(2)
H3 H 0.724(6) 1.479(4) 0.840(2)
C5 C 0.6921(5) 1.2663(3) 0.8048(2)
H4 H 0.574(6) 1.287(3) 0.768(2)
C6 C 1.0904(5) 1.4686(3) 0.9583(2)
H5 H 1.119(6) 1.552(4) 0.909(2)
H6 H 1.253(6) 1.421(3) 0.983(2)
C7 C 1.0359(5) 0.7231(3) 0.70148(18)
H7 H 1.030(5) 0.714(3) 0.771(2)
C8 C 1.2153(5) 0.6359(4) 0.6452(2)
H8 H 1.333(6) 0.571(4) 0.673(2)
C9 C 1.2249(5) 0.6481(3) 0.54549(18)
C10 C 1.0509(5) 0.7520(4) 0.50895(19)
H9 H 1.060(6) 0.773(4) 0.442(2)
C11 C 0.8783(5) 0.8360(3) 0.56904(18)
H10 H 0.756(5) 0.905(3) 0.5447(19)
C12 C 1.4140(6) 0.5588(3) 0.4767(2)
H11 H 1.531(6) 0.638(4) 0.440(2)
H12 H 1.320(6) 0.484(4) 0.433(2)
Zn1A Zn 1.39144(4) 2.04800(3) 1.247610(17)
Zn1A_2 Zn 2.39144(4) 0.04800(3) 0.247610(17)
Cl1A Cl 1.51092(12) 2.20742(7) 1.12741(5)
Cl2A Cl 1.65207(11) 1.92355(7) 1.34261(4)
N1A N 1.2291(3) 1.8819(2) 1.18387(13)
N2A N 2.1333(3) 0.1774(2) 0.33554(13)
N2A_2 N 1.1333(3) 2.1774(2) 1.33554(13)
C1A C 1.0451(4) 1.9161(3) 1.12828(18)
H1A H 1.000(5) 2.017(3) 1.1209(19)
C2A C 0.9359(5) 1.8070(3) 1.08232(18)
H2A H 0.811(5) 1.842(3) 1.041(2)
C3A C 1.0179(5) 1.6544(3) 1.09339(17)
C4A C 1.2084(6) 1.6191(3) 1.1510(2)
H3A H 1.276(6) 1.521(4) 1.160(2)
C5A C 1.3079(5) 1.7337(3) 1.1952(2)
H4A H 1.426(6) 1.713(3) 1.232(2)
C6A C 0.9096(5) 1.5314(3) 1.0417(2)
H5A H 0.881(6) 1.448(4) 1.091(2)
H6A H 0.747(6) 1.579(3) 1.017(2)
C7A C 1.9641(5) 0.2769(3) 0.29852(18)
H7A H 1.970(5) 0.286(3) 0.229(2)
C8A C 1.7847(5) 0.3641(4) 0.3548(2)
H8A H 1.667(6) 0.429(4) 0.327(2)
C9A C 1.7751(5) 0.3519(3) 0.45451(18)
C10A C 1.9491(5) 0.2480(4) 0.49105(19)
H9A H 1.940(6) 0.227(4) 0.558(2)
C11A C 2.1217(5) 0.1640(3) 0.43096(18)
H10A H 2.244(5) 0.095(3) 0.4553(19)
C12A C 1.5860(6) 0.4412(3) 0.5233(2)
H11A H 1.469(6) 0.362(4) 0.560(2)
H12A H 1.680(6) 0.516(4) 0.567(2)
loop_
_geom_bond_atom_site_label_1
_geom_bond_atom_site_label_2
_geom_bond_site_symmetry_1
_geom_bond_site_symmetry_2
Zn1 Cl1 1_555 1_555
Cl2 Zn1 1_555 1_555
N1 Zn1 1_555 1_555
N2 Zn1 1_555 1_555
C1 N1 1_555 1_555
H1 C1 1_555 1_555
C2 C1 1_555 1_555
H2 C2 1_555 1_555
C3 C2 1_555 1_555
C4 C3 1_555 1_555
H3 C4 1_555 1_555
C5 N1 1_555 1_555
H4 C5 1_555 1_555
C6 C3 1_555 1_555
H5 C6 1_555 1_555
H6 C6 1_555 1_555
C7 N2 1_555 1_555
H7 C7 1_555 1_555
C8 C7 1_555 1_555
H8 C8 1_555 1_555
C9 C8 1_555 1_555
C10 C9 1_555 1_555
H9 C10 1_555 1_555
C11 N2 1_555 1_555
H10 C11 1_555 1_555
C12 C9 1_555 1_555
H11 C12 1_555 1_555
H12 C12 1_555 1_555
Zn1A Cl1A 1_555 1_555
Zn1A_2 N2A 1_555 1_555
Cl2A Zn1A 1_555 1_555
N1A Zn1A 1_555 1_555
N2A C7A 1_555 1_555
N2A_2 Zn1A 1_555 1_555
C1A N1A 1_555 1_555
H1A C1A 1_555 1_555
C2A C1A 1_555 1_555
H2A C2A 1_555 1_555
C3A C2A 1_555 1_555
C4A C3A 1_555 1_555
H3A C4A 1_555 1_555
C5A N1A 1_555 1_555
H4A C5A 1_555 1_555
C6A C6 1_555 1_555
H5A C6A 1_555 1_555
H6A C6A 1_555 1_555
C7A H7A 1_555 1_555
C8A C7A 1_555 1_555
H8A C8A 1_555 1_555
C9A C8A 1_555 1_555
C10A C9A 1_555 1_555
H9A C10A 1_555 1_555
C11A N2A 1_555 1_555
H10A C11A 1_555 1_555
C12A C12 1_555 1_555
H11A C12A 1_555 1_555
H12A C12A 1_555 1_555
C4 C5 1_555 1_555
C10 C11 1_555 1_555
C3A C6A 1_555 1_555
C4A C5A 1_555 1_555
C9A C12A 1_555 1_555
C10A C11A 1_555 1_555

#END
