
#######################################################################
#
#                 Cambridge Crystallographic Data Centre
#                                CCDC 
#
#######################################################################
#
# If this CIF has been generated from an entry in the Cambridge 
# Structural Database, then it will include bibliographic, chemical, 
# crystal, experimental, refinement or atomic coordinate data resulting 
# from the CCDC's data processing and validation procedures.
#
#######################################################################

data_SARJAY
_symmetry_cell_setting           monoclinic
_symmetry_space_group_name_H-M   'P 21/n'
_symmetry_Int_Tables_number      14
_space_group_name_Hall           '-P 2yn'
loop_
_symmetry_equiv_pos_site_id
_symmetry_equiv_pos_as_xyz
1 x,y,z
2 1/2-x,1/2+y,1/2-z
3 -x,-y,-z
4 1/2+x,1/2-y,1/2+z
_cell_length_a                   15.64503(18)
_cell_length_b                   15.57000(27)
_cell_length_c                   3.915446(75)
_cell_angle_alpha                90
_cell_angle_beta                 94.7215(23)
_cell_angle_gamma                90
_cell_volume                     950.539
loop_
_atom_site_label
_atom_site_type_symbol
_atom_site_fract_x
_atom_site_fract_y
_atom_site_fract_z
Cu1 Cu 0.25582(21) 0.29016(14) -0.00793(28)
Cl1 Cl 0.36043(34) 0.38436(35) 0.00907(99)
Cl2 Cl 0.17939(33) 0.36030(32) -0.4346(12)
N1 N 0.17781(25) 0.19393(29) -0.10672(84)
C1 C 0.20477(22) 0.12255(31) 0.08003(85)
N2 N 0.14433(23) 0.05790(23) 0.03446(70)
H1 H 0.147773 0.007759 0.126698
C2 C 0.07666(21) 0.08840(20) -0.18791(71)
H2 H 0.027225 0.058588 -0.264243
C3 C 0.09793(22) 0.17288(23) -0.27352(69)
H3 H 0.064331 0.209082 -0.417954
N3 N 0.31691(29) 0.19217(33) 0.29727(95)
C4 C 0.28477(28) 0.10958(32) 0.29973(88)
C5 C 0.32435(26) 0.04324(34) 0.49726(88)
H4 H 0.300751 -0.011613 0.491685
C6 C 0.39963(20) 0.06069(28) 0.70226(76)
H5 H 0.427544 0.018439 0.837267
C7 C 0.43105(16) 0.14461(31) 0.69503(74)
H6 H 0.481231 0.15877 0.826924
C8 C 0.38775(26) 0.20818(33) 0.49053(80)
H7 H 0.410211 0.263497 0.492651
Cu1_2 Cu 0.25582(21) 0.29016(14) -1.00793(28)
Cl2_2 Cl 0.17939(33) 0.36030(32) 0.5654(12)
loop_
_geom_bond_atom_site_label_1
_geom_bond_atom_site_label_2
_geom_bond_site_symmetry_1
_geom_bond_site_symmetry_2
Cu1 Cl1 1_555 1_555
Cl2 Cu1 1_555 1_555
N1 Cu1 1_555 1_555
C1 N1 1_555 1_555
N2 C1 1_555 1_555
H1 N2 1_555 1_555
C2 N2 1_555 1_555
H2 C2 1_555 1_555
C3 N1 1_555 1_555
H3 C3 1_555 1_555
N3 Cu1 1_555 1_555
C4 C1 1_555 1_555
C5 C4 1_555 1_555
H4 C5 1_555 1_555
C6 C5 1_555 1_555
H5 C6 1_555 1_555
C7 C6 1_555 1_555
H6 C7 1_555 1_555
C8 N3 1_555 1_555
H7 C8 1_555 1_555
Cu1_2 Cl2 1_555 1_555
Cl2_2 Cu1 1_555 1_555
C2 C3 1_555 1_555
N3 C4 1_555 1_555
C7 C8 1_555 1_555

#END
