
#######################################################################
#
#                 Cambridge Crystallographic Data Centre
#                                CCDC 
#
#######################################################################
#
# If this CIF has been generated from an entry in the Cambridge 
# Structural Database, then it will include bibliographic, chemical, 
# crystal, experimental, refinement or atomic coordinate data resulting 
# from the CCDC's data processing and validation procedures.
#
#######################################################################

data_SARKON
_symmetry_cell_setting           triclinic
_symmetry_space_group_name_H-M   'P -1'
_symmetry_Int_Tables_number      2
_space_group_name_Hall           '-P 1'
loop_
_symmetry_equiv_pos_site_id
_symmetry_equiv_pos_as_xyz
1 x,y,z
2 -x,-y,-z
_cell_length_a                   9.3683(3)
_cell_length_b                   9.5284(4)
_cell_length_c                   14.3159(7)
_cell_angle_alpha                93.4560(10)
_cell_angle_beta                 104.5000(10)
_cell_angle_gamma                112.0100(10)
_cell_volume                     1130
loop_
_atom_site_label
_atom_site_type_symbol
_atom_site_fract_x
_atom_site_fract_y
_atom_site_fract_z
Fe1 Fe -0.5000 0.0000 0.0000
Fe2 Fe -0.5000 0.5000 0.5000
N1 N -0.2847(3) 0.1285(2) 0.08936(17)
N2 N -0.2164(3) 0.2627(2) 0.15349(17)
N3 N -0.0444(3) 0.1437(3) 0.17842(18)
N4 N -0.3904(3) -0.1451(2) -0.00585(16)
N5 N 0.2771(3) 0.4920(2) 0.42490(17)
N6 N -0.5589(2) 0.2905(2) 0.43064(16)
N7 N -0.5364(3) 0.2279(2) 0.35084(16)
N8 N -0.6664(3) 0.0353(2) 0.42325(17)
N9 N -0.6047(3) 0.3702(2) 0.59119(16)
N10 N -0.5662(2) -0.0816(2) 0.11596(16)
C1 C -0.1805(3) 0.0616(3) 0.1062(2)
C2 C -0.0728(3) 0.2660(3) 0.2054(2)
C3 C -0.2345(3) -0.0918(3) 0.0502(2)
C4 C -0.1403(4) -0.1768(3) 0.0530(2)
C5 C -0.2132(4) -0.3205(4) -0.0053(3)
H1 H -0.1549 -0.3808 -0.0055
C6 C -0.3699(4) -0.3751(3) -0.0628(3)
H2 H -0.4180 -0.4713 -0.1024
C7 C -0.4554(3) -0.2846(3) -0.0608(2)
H3 H -0.5623 -0.3223 -0.0992
C8 C 0.0314(3) 0.3841(3) 0.2909(2)
C9 C -0.0249(4) 0.4838(4) 0.3288(3)
H4 H -0.1249 0.4823 0.2965
C10 C 0.0683(4) 0.5838(4) 0.4140(3)
H5 H 0.0326 0.6517 0.4401
C11 C 0.2166(3) 0.5836(3) 0.4615(2)
H6 H 0.2768 0.6493 0.5210
C12 C 0.1841(3) 0.3951(3) 0.3408(2)
H7 H 0.2240 0.3315 0.3143
C13 C 0.0314(4) -0.1178(4) 0.1152(3)
H8 H 0.0849 -0.0107 0.1131
H9 H 0.0847 -0.1739 0.0908
H10 H 0.0347 -0.1311 0.1815
C14 C -0.6358(3) 0.1738(3) 0.4721(2)
C15 C -0.6016(3) 0.0760(3) 0.3500(2)
C16 C -0.6684(3) 0.2146(3) 0.5618(2)
C17 C -0.7530(4) 0.1120(3) 0.6139(2)
C18 C -0.7706(4) 0.1726(4) 0.6980(2)
H11 H -0.8285 0.1074 0.7336
C19 C -0.7028(4) 0.3293(3) 0.7297(2)
H12 H -0.7117 0.3702 0.7876
C20 C -0.6220(4) 0.4240(3) 0.6744(2)
H13 H -0.5775 0.5297 0.6955
C21 C -0.6050(3) -0.0355(3) 0.2734(2)
C22 C -0.6695(4) -0.1926(3) 0.2734(2)
H14 H -0.7028 -0.2308 0.3261
C23 C -0.6830(4) -0.2910(3) 0.1940(2)
H15 H -0.7253 -0.3966 0.1930
C24 C -0.6345(3) -0.2339(3) 0.1164(2)
H16 H -0.6491 -0.3024 0.0622
C25 C -0.5508(3) 0.0138(3) 0.1948(2)
H17 H -0.5006 0.1190 0.1964
C26 C -0.8266(4) -0.0593(4) 0.5793(3)
H18 H -0.8937 -0.0825 0.5128
H19 H -0.8904 -0.1094 0.6201
H20 H -0.7425 -0.0950 0.5829
Fe2_2 Fe 0.5000 0.5000 0.5000
Fe2_3 Fe -1.5000 -0.5000 -0.5000
Fe2_4 Fe -0.5000 -0.5000 -0.5000
N1A N -0.7153(3) -0.1285(2) -0.08936(17)
N2A N -0.7836(3) -0.2627(2) -0.15349(17)
N3A N -0.9556(3) -0.1437(3) -0.17842(18)
N4A N -0.6096(3) 0.1451(2) 0.00585(16)
N5A N -1.2771(3) -0.4920(2) -0.42490(17)
N5_2 N -0.7229(3) 0.4920(2) 0.42490(17)
N5A_2 N -0.2771(3) 0.5080(2) 0.57510(17)
N6A N -0.4411(2) -0.2905(2) -0.43064(16)
N6A_2 N -0.4411(2) 0.7095(2) 0.56936(16)
N7A N -0.4636(3) -0.2279(2) -0.35084(16)
N8A N -0.3336(3) -0.0353(2) -0.42325(17)
N9A N -0.3953(3) -0.3702(2) -0.59119(16)
N9A_2 N -0.3953(3) 0.6298(2) 0.40881(16)
N10A N -0.4338(2) 0.0816(2) -0.11596(16)
C1A C -0.8195(3) -0.0616(3) -0.1062(2)
C2A C -0.9272(3) -0.2660(3) -0.2054(2)
C3A C -0.7655(3) 0.0918(3) -0.0502(2)
C4A C -0.8597(4) 0.1768(3) -0.0530(2)
C5A C -0.7868(4) 0.3205(4) 0.0053(3)
H1A H -0.8451 0.3808 0.0055
C6A C -0.6301(4) 0.3751(3) 0.0628(3)
H2A H -0.5820 0.4713 0.1024
C7A C -0.5446(3) 0.2846(3) 0.0608(2)
H3A H -0.4377 0.3223 0.0992
C8A C -1.0314(3) -0.3841(3) -0.2909(2)
C9A C -0.9751(4) -0.4838(4) -0.3288(3)
H4A H -0.8751 -0.4823 -0.2965
C10A C -1.0683(4) -0.5838(4) -0.4140(3)
H5A H -1.0326 -0.6517 -0.4401
C11A C -1.2166(3) -0.5836(3) -0.4615(2)
H6A H -1.2768 -0.6493 -0.5210
C12A C -1.1841(3) -0.3951(3) -0.3408(2)
H7A H -1.2240 -0.3315 -0.3143
C13A C -1.0314(4) 0.1178(4) -0.1152(3)
H8A H -1.0849 0.0107 -0.1131
H9A H -1.0847 0.1739 -0.0908
H10A H -1.0347 0.1311 -0.1815
C14A C -0.3642(3) -0.1738(3) -0.4721(2)
C15A C -0.3984(3) -0.0760(3) -0.3500(2)
C16A C -0.3316(3) -0.2146(3) -0.5618(2)
C17A C -0.2470(4) -0.1120(3) -0.6139(2)
C18A C -0.2294(4) -0.1726(4) -0.6980(2)
H11A H -0.1715 -0.1074 -0.7336
C19A C -0.2972(4) -0.3293(3) -0.7297(2)
H12A H -0.2883 -0.3702 -0.7876
C20A C -0.3780(4) -0.4240(3) -0.6744(2)
H13A H -0.4225 -0.5297 -0.6955
C21A C -0.3950(3) 0.0355(3) -0.2734(2)
C22A C -0.3305(4) 0.1926(3) -0.2734(2)
H14A H -0.2972 0.2308 -0.3261
C23A C -0.3170(4) 0.2910(3) -0.1940(2)
H15A H -0.2747 0.3966 -0.1930
C24A C -0.3655(3) 0.2339(3) -0.1164(2)
H16A H -0.3509 0.3024 -0.0622
C25A C -0.4492(3) -0.0138(3) -0.1948(2)
H17A H -0.4994 -0.1190 -0.1964
C26A C -0.1734(4) 0.0593(4) -0.5793(3)
H18A H -0.1063 0.0825 -0.5128
H19A H -0.1096 0.1094 -0.6201
H20A H -0.2575 0.0950 -0.5829
loop_
_geom_bond_atom_site_label_1
_geom_bond_atom_site_label_2
_geom_bond_site_symmetry_1
_geom_bond_site_symmetry_2
Fe1 N1 1_555 1_555
Fe2 N6 1_555 1_555
N1 N2 1_555 1_555
N2 C2 1_555 1_555
N3 C1 1_555 1_555
N4 Fe1 1_555 1_555
N5 C11 1_555 1_555
N6 N7 1_555 1_555
N7 C15 1_555 1_555
N8 C14 1_555 1_555
N9 Fe2 1_555 1_555
N10 Fe1 1_555 1_555
C1 N1 1_555 1_555
C2 N3 1_555 1_555
C3 N4 1_555 1_555
C4 C3 1_555 1_555
C5 C4 1_555 1_555
H1 C5 1_555 1_555
C6 C5 1_555 1_555
H2 C6 1_555 1_555
C7 N4 1_555 1_555
H3 C7 1_555 1_555
C8 C2 1_555 1_555
C9 C8 1_555 1_555
H4 C9 1_555 1_555
C10 C9 1_555 1_555
H5 C10 1_555 1_555
C11 C10 1_555 1_555
H6 C11 1_555 1_555
C12 N5 1_555 1_555
H7 C12 1_555 1_555
C13 C4 1_555 1_555
H8 C13 1_555 1_555
H9 C13 1_555 1_555
H10 C13 1_555 1_555
C14 N6 1_555 1_555
C15 N8 1_555 1_555
C16 N9 1_555 1_555
C17 C16 1_555 1_555
C18 C17 1_555 1_555
H11 C18 1_555 1_555
C19 C18 1_555 1_555
H12 C19 1_555 1_555
C20 N9 1_555 1_555
H13 C20 1_555 1_555
C21 C15 1_555 1_555
C22 C21 1_555 1_555
H14 C22 1_555 1_555
C23 C22 1_555 1_555
H15 C23 1_555 1_555
C24 N10 1_555 1_555
H16 C24 1_555 1_555
C25 N10 1_555 1_555
H17 C25 1_555 1_555
C26 C17 1_555 1_555
H18 C26 1_555 1_555
H19 C26 1_555 1_555
H20 C26 1_555 1_555
Fe2_2 N5 1_555 1_555
Fe2_3 N5A 1_555 1_555
Fe2_4 N6A 1_555 1_555
N1A Fe1 1_555 1_555
N2A N1A 1_555 1_555
N3A C1A 1_555 1_555
N4A Fe1 1_555 1_555
N5A C11A 1_555 1_555
N5_2 Fe2 1_555 1_555
N5A_2 Fe2 1_555 1_555
N6A N7A 1_555 1_555
N6A_2 Fe2 1_555 1_555
N7A C15A 1_555 1_555
N8A C14A 1_555 1_555
N9A Fe2_4 1_555 1_555
N9A_2 Fe2 1_555 1_555
N10A Fe1 1_555 1_555
C1A N1A 1_555 1_555
C2A N2A 1_555 1_555
C3A N4A 1_555 1_555
C4A C3A 1_555 1_555
C5A C4A 1_555 1_555
H1A C5A 1_555 1_555
C6A C5A 1_555 1_555
H2A C6A 1_555 1_555
C7A N4A 1_555 1_555
H3A C7A 1_555 1_555
C8A C2A 1_555 1_555
C9A C8A 1_555 1_555
H4A C9A 1_555 1_555
C10A C9A 1_555 1_555
H5A C10A 1_555 1_555
C11A C10A 1_555 1_555
H6A C11A 1_555 1_555
C12A N5A 1_555 1_555
H7A C12A 1_555 1_555
C13A C4A 1_555 1_555
H8A C13A 1_555 1_555
H9A C13A 1_555 1_555
H10A C13A 1_555 1_555
C14A N6A 1_555 1_555
C15A N8A 1_555 1_555
C16A N9A 1_555 1_555
C17A C16A 1_555 1_555
C18A C17A 1_555 1_555
H11A C18A 1_555 1_555
C19A C18A 1_555 1_555
H12A C19A 1_555 1_555
C20A N9A 1_555 1_555
H13A C20A 1_555 1_555
C21A C15A 1_555 1_555
C22A C21A 1_555 1_555
H14A C22A 1_555 1_555
C23A C22A 1_555 1_555
H15A C23A 1_555 1_555
C24A N10A 1_555 1_555
H16A C24A 1_555 1_555
C25A N10A 1_555 1_555
H17A C25A 1_555 1_555
C26A C17A 1_555 1_555
H18A C26A 1_555 1_555
H19A C26A 1_555 1_555
H20A C26A 1_555 1_555
C1 C3 1_555 1_555
C6 C7 1_555 1_555
C8 C12 1_555 1_555
C14 C16 1_555 1_555
C19 C20 1_555 1_555
C21 C25 1_555 1_555
C23 C24 1_555 1_555
N3A C2A 1_555 1_555
C1A C3A 1_555 1_555
C6A C7A 1_555 1_555
C8A C12A 1_555 1_555
C14A C16A 1_555 1_555
C19A C20A 1_555 1_555
C21A C25A 1_555 1_555
C23A C24A 1_555 1_555

#END
