
#######################################################################
#
#                 Cambridge Crystallographic Data Centre
#                                CCDC 
#
#######################################################################
#
# If this CIF has been generated from an entry in the Cambridge 
# Structural Database, then it will include bibliographic, chemical, 
# crystal, experimental, refinement or atomic coordinate data resulting 
# from the CCDC's data processing and validation procedures.
#
#######################################################################

data_SARKED01
_symmetry_cell_setting           triclinic
_symmetry_space_group_name_H-M   'P -1'
_symmetry_Int_Tables_number      2
_space_group_name_Hall           '-P 1'
loop_
_symmetry_equiv_pos_site_id
_symmetry_equiv_pos_as_xyz
1 x,y,z
2 -x,-y,-z
_cell_length_a                   8.966(16)
_cell_length_b                   9.309(16)
_cell_length_c                   15.08(3)
_cell_angle_alpha                94.38(3)
_cell_angle_beta                 102.90(4)
_cell_angle_gamma                110.54(5)
_cell_volume                     1132.26
loop_
_atom_site_label
_atom_site_type_symbol
_atom_site_fract_x
_atom_site_fract_y
_atom_site_fract_z
Fe1 Fe 0.5000 0.5000 0.5000
Fe2 Fe 0.5000 0.0000 0.0000
N1 N 0.2897(2) 0.36795(18) 0.40642(11)
N2 N 0.2307(2) 0.23352(19) 0.34339(11)
N3 N 0.0435(2) 0.3490(2) 0.31703(12)
N4 N 0.3754(2) 0.64458(18) 0.50040(11)
N5 N -0.2520(2) 0.0031(2) 0.07583(11)
N6 N 0.5579(2) 0.22092(19) 0.07620(10)
N7 N 0.5479(2) 0.28177(19) 0.15959(11)
N8 N 0.6896(3) 0.4830(2) 0.09462(12)
N9 N 0.6085(2) 0.1610(2) -0.08950(11)
N10 N 0.5978(2) 0.58975(18) 0.39821(11)
C1 C 0.1757(3) 0.4312(2) 0.38893(14)
C2 C 0.0863(3) 0.2288(2) 0.29123(13)
C3 C 0.2180(3) 0.5848(2) 0.44431(14)
C4 C 0.1105(3) 0.6622(3) 0.44013(19)
H1 H 0.0040 0.6190 0.4010
C5 C 0.1675(4) 0.8081(3) 0.4969(2)
H2 H 0.0986 0.8633 0.4962
C6 C 0.3270(4) 0.8685(3) 0.5537(2)
H3 H 0.3663 0.9646 0.5918
C7 C 0.4273(3) 0.7858(2) 0.55354(16)
H4 H 0.5349 0.8284 0.5914
C8 C -0.0108(3) 0.1096(2) 0.20654(14)
C9 C 0.0521(3) 0.0048(3) 0.17364(16)
H5 H 0.1544 0.0060 0.2053
C10 C -0.0401(3) -0.1012(3) 0.09301(17)
H6 H -0.0015 -0.1733 0.0707
C11 C -0.1888(3) -0.0981(3) 0.04682(15)
H7 H -0.2491 -0.1692 -0.0072
C12 C -0.1625(3) 0.1032(2) 0.15545(14)
H8 H -0.2055 0.1720 0.1772
C13 C 0.6424(3) 0.3436(2) 0.04053(14)
C14 C 0.6285(3) 0.4376(2) 0.16731(14)
C15 C 0.6692(3) 0.3141(3) -0.05083(15)
C16 C 0.7495(5) 0.4323(3) -0.09471(19)
H9 H 0.7920 0.5360 -0.0665
C17 C 0.7644(5) 0.3912(4) -0.1818(2)
H10 H 0.8199 0.4674 -0.2122
C18 C 0.6965(5) 0.2365(4) -0.22316(19)
H11 H 0.7017 0.2082 -0.2825
C19 C 0.6207(3) 0.1243(3) -0.17498(15)
H12 H 0.5767 0.0202 -0.2026
C20 C 0.6501(3) 0.5490(2) 0.24928(14)
C21 C 0.7428(4) 0.7087(3) 0.25975(16)
H13 H 0.7899 0.7490 0.2135
C22 C 0.7636(4) 0.8063(3) 0.33968(16)
H14 H 0.8254 0.9125 0.3479
C23 C 0.6913(3) 0.7436(2) 0.40679(14)
H15 H 0.7072 0.8096 0.4605
C24 C 0.5784(3) 0.4963(2) 0.31965(13)
H16 H 0.5136 0.3910 0.3123
Fe2_2 Fe -0.5000 0.0000 0.0000
Fe2_3 Fe 1.5000 1.0000 1.0000
Fe2_4 Fe 0.5000 1.0000 1.0000
N1A N 0.7103(2) 0.63205(18) 0.59358(11)
N2A N 0.7693(2) 0.76648(19) 0.65661(11)
N3A N 0.9565(2) 0.6510(2) 0.68297(12)
N4A N 0.6246(2) 0.35542(18) 0.49960(11)
N5A N 1.2520(2) 0.9969(2) 0.92417(11)
N5_2 N 0.7480(2) 0.0031(2) 0.07583(11)
N5A_2 N 0.2520(2) -0.0031(2) -0.07583(11)
N6A N 0.4421(2) 0.77908(19) 0.92380(10)
N6A_2 N 0.4421(2) -0.22092(19) -0.07620(10)
N7A N 0.4521(2) 0.71823(19) 0.84041(11)
N8A N 0.3104(3) 0.5170(2) 0.90538(12)
N9A N 0.3915(2) 0.8390(2) 1.08950(11)
N9A_2 N 0.3915(2) -0.1610(2) 0.08950(11)
N10A N 0.4022(2) 0.41025(18) 0.60179(11)
C1A C 0.8243(3) 0.5688(2) 0.61107(14)
C2A C 0.9137(3) 0.7712(2) 0.70877(13)
C3A C 0.7820(3) 0.4152(2) 0.55569(14)
C4A C 0.8895(3) 0.3378(3) 0.55987(19)
H1A H 0.9960 0.3810 0.5990
C5A C 0.8325(4) 0.1919(3) 0.5031(2)
H2A H 0.9014 0.1367 0.5038
C6A C 0.6730(4) 0.1315(3) 0.4463(2)
H3A H 0.6337 0.0354 0.4082
C7A C 0.5727(3) 0.2142(2) 0.44646(16)
H4A H 0.4651 0.1716 0.4086
C8A C 1.0108(3) 0.8904(2) 0.79346(14)
C9A C 0.9479(3) 0.9952(3) 0.82636(16)
H5A H 0.8456 0.9940 0.7947
C10A C 1.0401(3) 1.1012(3) 0.90699(17)
H6A H 1.0015 1.1733 0.9293
C11A C 1.1888(3) 1.0981(3) 0.95318(15)
H7A H 1.2491 1.1692 1.0072
C12A C 1.1625(3) 0.8968(2) 0.84455(14)
H8A H 1.2055 0.8280 0.8228
C13A C 0.3576(3) 0.6564(2) 0.95947(14)
C14A C 0.3715(3) 0.5624(2) 0.83269(14)
C15A C 0.3308(3) 0.6859(3) 1.05083(15)
C16A C 0.2505(5) 0.5677(3) 1.09471(19)
H9A H 0.2080 0.4640 1.0665
C17A C 0.2356(5) 0.6088(4) 1.1818(2)
H10A H 0.1801 0.5326 1.2122
C18A C 0.3035(5) 0.7635(4) 1.22316(19)
H11A H 0.2983 0.7918 1.2825
C19A C 0.3793(3) 0.8757(3) 1.17498(15)
H12A H 0.4233 0.9798 1.2026
C20A C 0.3499(3) 0.4510(2) 0.75072(14)
C21A C 0.2572(4) 0.2913(3) 0.74025(16)
H13A H 0.2101 0.2510 0.7865
C22A C 0.2364(4) 0.1937(3) 0.66032(16)
H14A H 0.1746 0.0875 0.6521
C23A C 0.3087(3) 0.2564(2) 0.59321(14)
H15A H 0.2928 0.1904 0.5395
C24A C 0.4216(3) 0.5037(2) 0.68035(13)
H16A H 0.4864 0.6090 0.6877
loop_
_geom_bond_atom_site_label_1
_geom_bond_atom_site_label_2
_geom_bond_site_symmetry_1
_geom_bond_site_symmetry_2
Fe1 N1 1_555 1_555
Fe2 N6 1_555 1_555
N1 N2 1_555 1_555
N2 C2 1_555 1_555
N3 C1 1_555 1_555
N4 Fe1 1_555 1_555
N5 C11 1_555 1_555
N6 N7 1_555 1_555
N7 C14 1_555 1_555
N8 C13 1_555 1_555
N9 Fe2 1_555 1_555
N10 Fe1 1_555 1_555
C1 N1 1_555 1_555
C2 N3 1_555 1_555
C3 N4 1_555 1_555
C4 C3 1_555 1_555
H1 C4 1_555 1_555
C5 C4 1_555 1_555
H2 C5 1_555 1_555
C6 C5 1_555 1_555
H3 C6 1_555 1_555
C7 N4 1_555 1_555
H4 C7 1_555 1_555
C8 C2 1_555 1_555
C9 C8 1_555 1_555
H5 C9 1_555 1_555
C10 C9 1_555 1_555
H6 C10 1_555 1_555
C11 C10 1_555 1_555
H7 C11 1_555 1_555
C12 N5 1_555 1_555
H8 C12 1_555 1_555
C13 N6 1_555 1_555
C14 N8 1_555 1_555
C15 N9 1_555 1_555
C16 C15 1_555 1_555
H9 C16 1_555 1_555
C17 C16 1_555 1_555
H10 C17 1_555 1_555
C18 C17 1_555 1_555
H11 C18 1_555 1_555
C19 N9 1_555 1_555
H12 C19 1_555 1_555
C20 C14 1_555 1_555
C21 C20 1_555 1_555
H13 C21 1_555 1_555
C22 C21 1_555 1_555
H14 C22 1_555 1_555
C23 N10 1_555 1_555
H15 C23 1_555 1_555
C24 N10 1_555 1_555
H16 C24 1_555 1_555
Fe2_2 N5 1_555 1_555
Fe2_3 N5A 1_555 1_555
Fe2_4 N6A 1_555 1_555
N1A Fe1 1_555 1_555
N2A N1A 1_555 1_555
N3A C1A 1_555 1_555
N4A Fe1 1_555 1_555
N5A C11A 1_555 1_555
N5_2 Fe2 1_555 1_555
N5A_2 Fe2 1_555 1_555
N6A N7A 1_555 1_555
N6A_2 Fe2 1_555 1_555
N7A C14A 1_555 1_555
N8A C13A 1_555 1_555
N9A Fe2_4 1_555 1_555
N9A_2 Fe2 1_555 1_555
N10A Fe1 1_555 1_555
C1A N1A 1_555 1_555
C2A N2A 1_555 1_555
C3A N4A 1_555 1_555
C4A C3A 1_555 1_555
H1A C4A 1_555 1_555
C5A C4A 1_555 1_555
H2A C5A 1_555 1_555
C6A C5A 1_555 1_555
H3A C6A 1_555 1_555
C7A N4A 1_555 1_555
H4A C7A 1_555 1_555
C8A C2A 1_555 1_555
C9A C8A 1_555 1_555
H5A C9A 1_555 1_555
C10A C9A 1_555 1_555
H6A C10A 1_555 1_555
C11A C10A 1_555 1_555
H7A C11A 1_555 1_555
C12A N5A 1_555 1_555
H8A C12A 1_555 1_555
C13A N6A 1_555 1_555
C14A N8A 1_555 1_555
C15A N9A 1_555 1_555
C16A C15A 1_555 1_555
H9A C16A 1_555 1_555
C17A C16A 1_555 1_555
H10A C17A 1_555 1_555
C18A C17A 1_555 1_555
H11A C18A 1_555 1_555
C19A N9A 1_555 1_555
H12A C19A 1_555 1_555
C20A C14A 1_555 1_555
C21A C20A 1_555 1_555
H13A C21A 1_555 1_555
C22A C21A 1_555 1_555
H14A C22A 1_555 1_555
C23A N10A 1_555 1_555
H15A C23A 1_555 1_555
C24A N10A 1_555 1_555
H16A C24A 1_555 1_555
C1 C3 1_555 1_555
C6 C7 1_555 1_555
C8 C12 1_555 1_555
C13 C15 1_555 1_555
C18 C19 1_555 1_555
C20 C24 1_555 1_555
C22 C23 1_555 1_555
N3A C2A 1_555 1_555
C1A C3A 1_555 1_555
C6A C7A 1_555 1_555
C8A C12A 1_555 1_555
C13A C15A 1_555 1_555
C18A C19A 1_555 1_555
C20A C24A 1_555 1_555
C22A C23A 1_555 1_555

#END
