
#######################################################################
#
#                 Cambridge Crystallographic Data Centre
#                                CCDC 
#
#######################################################################
#
# If this CIF has been generated from an entry in the Cambridge 
# Structural Database, then it will include bibliographic, chemical, 
# crystal, experimental, refinement or atomic coordinate data resulting 
# from the CCDC's data processing and validation procedures.
#
#######################################################################

data_SARKON01
_symmetry_cell_setting           triclinic
_symmetry_space_group_name_H-M   'P -1'
_symmetry_Int_Tables_number      2
_space_group_name_Hall           '-P 1'
loop_
_symmetry_equiv_pos_site_id
_symmetry_equiv_pos_as_xyz
1 x,y,z
2 -x,-y,-z
_cell_length_a                   9.5062(9)
_cell_length_b                   9.6419(11)
_cell_length_c                   14.3420(19)
_cell_angle_alpha                93.661(4)
_cell_angle_beta                 104.415(3)
_cell_angle_gamma                111.004(3)
_cell_volume                     1171.42
loop_
_atom_site_label
_atom_site_type_symbol
_atom_site_fract_x
_atom_site_fract_y
_atom_site_fract_z
Fe1 Fe -0.5000 0.0000 0.0000
Fe2 Fe -0.5000 0.5000 0.5000
N1 N -0.2907(2) 0.1251(2) 0.08976(16)
N2 N -0.2258(2) 0.2574(3) 0.15286(16)
N3 N -0.0528(3) 0.1425(3) 0.17749(17)
N4 N -0.3888(2) -0.1425(2) -0.00505(15)
N5 N 0.2604(3) 0.4899(3) 0.41896(17)
N6 N -0.5570(2) 0.2853(2) 0.43055(15)
N7 N -0.5358(3) 0.2218(3) 0.34972(16)
N8 N -0.6646(3) 0.0341(3) 0.42280(17)
N9 N -0.6082(3) 0.3586(3) 0.59449(16)
N10 N -0.5674(2) -0.0825(2) 0.11460(15)
C1 C -0.1856(3) 0.0603(3) 0.10633(19)
C2 C -0.0837(3) 0.2616(3) 0.2039(2)
C3 C -0.2362(3) -0.0898(3) 0.05065(19)
C4 C -0.1421(3) -0.1743(4) 0.0533(2)
C5 C -0.2109(4) -0.3150(4) -0.0037(3)
H1 H -0.1522 -0.3742 -0.0039
C6 C -0.3663(4) -0.3696(4) -0.0609(3)
H2 H -0.4125 -0.4646 -0.0996
C7 C -0.4510(3) -0.2801(3) -0.0592(2)
H3 H -0.5557 -0.3168 -0.0972
C8 C 0.0178(3) 0.3807(3) 0.2876(2)
C9 C -0.0352(4) 0.4825(4) 0.3243(3)
H4 H -0.1337 0.4813 0.2924
C10 C 0.0563(4) 0.5844(4) 0.4068(3)
H5 H 0.0207 0.6525 0.4319
C11 C 0.2035(4) 0.5854(4) 0.4531(2)
H6 H 0.2652 0.6547 0.5099
C12 C 0.1684(3) 0.3910(3) 0.3380(2)
H7 H 0.2067 0.3247 0.3136
C13 C 0.0267(4) -0.1157(4) 0.1148(3)
H8 H 0.0702 -0.1896 0.1060
H9 H 0.0322 -0.0954 0.1823
H10 H 0.0857 -0.0244 0.0954
C14 C -0.6337(3) 0.1700(3) 0.47146(19)
C15 C -0.6008(3) 0.0723(3) 0.34897(19)
C16 C -0.6683(3) 0.2081(3) 0.56224(19)
C17 C -0.7531(4) 0.1044(4) 0.6119(2)
C18 C -0.7710(4) 0.1620(4) 0.6968(2)
H11 H -0.8280 0.0965 0.7313
C19 C -0.7066(4) 0.3137(4) 0.7312(2)
H12 H -0.7161 0.3513 0.7896
C20 C -0.6271(4) 0.4099(4) 0.6774(2)
H13 H -0.5856 0.5132 0.6995
C21 C -0.6064(3) -0.0379(3) 0.27143(19)
C22 C -0.6702(4) -0.1919(3) 0.2711(2)
H14 H -0.7030 -0.2292 0.3236
C23 C -0.6841(4) -0.2885(3) 0.1912(2)
H15 H -0.7265 -0.3921 0.1895
C24 C -0.6352(3) -0.2316(3) 0.1139(2)
H16 H -0.6494 -0.2984 0.0594
C25 C -0.5516(3) 0.0110(3) 0.19340(19)
H17 H -0.5013 0.1141 0.1959
C26 C -0.8234(5) -0.0638(4) 0.5763(3)
H18 H -0.8008 -0.0844 0.5165
H19 H -0.9355 -0.1012 0.5650
H20 H -0.7788 -0.1125 0.6247
Fe2_2 Fe 0.5000 0.5000 0.5000
Fe2_3 Fe -1.5000 -0.5000 -0.5000
Fe2_4 Fe -0.5000 -0.5000 -0.5000
N1A N -0.7093(2) -0.1251(2) -0.08976(16)
N2A N -0.7742(2) -0.2574(3) -0.15286(16)
N3A N -0.9472(3) -0.1425(3) -0.17749(17)
N4A N -0.6112(2) 0.1425(2) 0.00505(15)
N5A N -1.2604(3) -0.4899(3) -0.41896(17)
N5_2 N -0.7396(3) 0.4899(3) 0.41896(17)
N5A_2 N -0.2604(3) 0.5101(3) 0.58104(17)
N6A N -0.4430(2) -0.2853(2) -0.43055(15)
N6A_2 N -0.4430(2) 0.7147(2) 0.56945(15)
N7A N -0.4642(3) -0.2218(3) -0.34972(16)
N8A N -0.3354(3) -0.0341(3) -0.42280(17)
N9A N -0.3918(3) -0.3586(3) -0.59449(16)
N9A_2 N -0.3918(3) 0.6414(3) 0.40551(16)
N10A N -0.4326(2) 0.0825(2) -0.11460(15)
C1A C -0.8144(3) -0.0603(3) -0.10633(19)
C2A C -0.9163(3) -0.2616(3) -0.2039(2)
C3A C -0.7638(3) 0.0898(3) -0.05065(19)
C4A C -0.8579(3) 0.1743(4) -0.0533(2)
C5A C -0.7891(4) 0.3150(4) 0.0037(3)
H1A H -0.8478 0.3742 0.0039
C6A C -0.6337(4) 0.3696(4) 0.0609(3)
H2A H -0.5875 0.4646 0.0996
C7A C -0.5490(3) 0.2801(3) 0.0592(2)
H3A H -0.4443 0.3168 0.0972
C8A C -1.0178(3) -0.3807(3) -0.2876(2)
C9A C -0.9648(4) -0.4825(4) -0.3243(3)
H4A H -0.8663 -0.4813 -0.2924
C10A C -1.0563(4) -0.5844(4) -0.4068(3)
H5A H -1.0207 -0.6525 -0.4319
C11A C -1.2035(4) -0.5854(4) -0.4531(2)
H6A H -1.2652 -0.6547 -0.5099
C12A C -1.1684(3) -0.3910(3) -0.3380(2)
H7A H -1.2067 -0.3247 -0.3136
C13A C -1.0267(4) 0.1157(4) -0.1148(3)
H8A H -1.0702 0.1896 -0.1060
H9A H -1.0322 0.0954 -0.1823
H10A H -1.0857 0.0244 -0.0954
C14A C -0.3663(3) -0.1700(3) -0.47146(19)
C15A C -0.3992(3) -0.0723(3) -0.34897(19)
C16A C -0.3317(3) -0.2081(3) -0.56224(19)
C17A C -0.2469(4) -0.1044(4) -0.6119(2)
C18A C -0.2290(4) -0.1620(4) -0.6968(2)
H11A H -0.1720 -0.0965 -0.7313
C19A C -0.2934(4) -0.3137(4) -0.7312(2)
H12A H -0.2839 -0.3513 -0.7896
C20A C -0.3729(4) -0.4099(4) -0.6774(2)
H13A H -0.4144 -0.5132 -0.6995
C21A C -0.3936(3) 0.0379(3) -0.27143(19)
C22A C -0.3298(4) 0.1919(3) -0.2711(2)
H14A H -0.2970 0.2292 -0.3236
C23A C -0.3159(4) 0.2885(3) -0.1912(2)
H15A H -0.2735 0.3921 -0.1895
C24A C -0.3648(3) 0.2316(3) -0.1139(2)
H16A H -0.3506 0.2984 -0.0594
C25A C -0.4484(3) -0.0110(3) -0.19340(19)
H17A H -0.4987 -0.1141 -0.1959
C26A C -0.1766(5) 0.0638(4) -0.5763(3)
H18A H -0.1992 0.0844 -0.5165
H19A H -0.0645 0.1012 -0.5650
H20A H -0.2212 0.1125 -0.6247
loop_
_geom_bond_atom_site_label_1
_geom_bond_atom_site_label_2
_geom_bond_site_symmetry_1
_geom_bond_site_symmetry_2
Fe1 N1 1_555 1_555
Fe2 N6 1_555 1_555
N1 N2 1_555 1_555
N2 C2 1_555 1_555
N3 C1 1_555 1_555
N4 Fe1 1_555 1_555
N5 C11 1_555 1_555
N6 N7 1_555 1_555
N7 C15 1_555 1_555
N8 C14 1_555 1_555
N9 Fe2 1_555 1_555
N10 Fe1 1_555 1_555
C1 N1 1_555 1_555
C2 N3 1_555 1_555
C3 N4 1_555 1_555
C4 C3 1_555 1_555
C5 C4 1_555 1_555
H1 C5 1_555 1_555
C6 C5 1_555 1_555
H2 C6 1_555 1_555
C7 N4 1_555 1_555
H3 C7 1_555 1_555
C8 C2 1_555 1_555
C9 C8 1_555 1_555
H4 C9 1_555 1_555
C10 C9 1_555 1_555
H5 C10 1_555 1_555
C11 C10 1_555 1_555
H6 C11 1_555 1_555
C12 N5 1_555 1_555
H7 C12 1_555 1_555
C13 C4 1_555 1_555
H8 C13 1_555 1_555
H9 C13 1_555 1_555
H10 C13 1_555 1_555
C14 N6 1_555 1_555
C15 N8 1_555 1_555
C16 N9 1_555 1_555
C17 C16 1_555 1_555
C18 C17 1_555 1_555
H11 C18 1_555 1_555
C19 C18 1_555 1_555
H12 C19 1_555 1_555
C20 N9 1_555 1_555
H13 C20 1_555 1_555
C21 C15 1_555 1_555
C22 C21 1_555 1_555
H14 C22 1_555 1_555
C23 C22 1_555 1_555
H15 C23 1_555 1_555
C24 N10 1_555 1_555
H16 C24 1_555 1_555
C25 N10 1_555 1_555
H17 C25 1_555 1_555
C26 C17 1_555 1_555
H18 C26 1_555 1_555
H19 C26 1_555 1_555
H20 C26 1_555 1_555
Fe2_2 N5 1_555 1_555
Fe2_3 N5A 1_555 1_555
Fe2_4 N6A 1_555 1_555
N1A Fe1 1_555 1_555
N2A N1A 1_555 1_555
N3A C1A 1_555 1_555
N4A Fe1 1_555 1_555
N5A C11A 1_555 1_555
N5_2 Fe2 1_555 1_555
N5A_2 Fe2 1_555 1_555
N6A N7A 1_555 1_555
N6A_2 Fe2 1_555 1_555
N7A C15A 1_555 1_555
N8A C14A 1_555 1_555
N9A Fe2_4 1_555 1_555
N9A_2 Fe2 1_555 1_555
N10A Fe1 1_555 1_555
C1A N1A 1_555 1_555
C2A N2A 1_555 1_555
C3A N4A 1_555 1_555
C4A C3A 1_555 1_555
C5A C4A 1_555 1_555
H1A C5A 1_555 1_555
C6A C5A 1_555 1_555
H2A C6A 1_555 1_555
C7A N4A 1_555 1_555
H3A C7A 1_555 1_555
C8A C2A 1_555 1_555
C9A C8A 1_555 1_555
H4A C9A 1_555 1_555
C10A C9A 1_555 1_555
H5A C10A 1_555 1_555
C11A C10A 1_555 1_555
H6A C11A 1_555 1_555
C12A N5A 1_555 1_555
H7A C12A 1_555 1_555
C13A C4A 1_555 1_555
H8A C13A 1_555 1_555
H9A C13A 1_555 1_555
H10A C13A 1_555 1_555
C14A N6A 1_555 1_555
C15A N8A 1_555 1_555
C16A N9A 1_555 1_555
C17A C16A 1_555 1_555
C18A C17A 1_555 1_555
H11A C18A 1_555 1_555
C19A C18A 1_555 1_555
H12A C19A 1_555 1_555
C20A N9A 1_555 1_555
H13A C20A 1_555 1_555
C21A C15A 1_555 1_555
C22A C21A 1_555 1_555
H14A C22A 1_555 1_555
C23A C22A 1_555 1_555
H15A C23A 1_555 1_555
C24A N10A 1_555 1_555
H16A C24A 1_555 1_555
C25A N10A 1_555 1_555
H17A C25A 1_555 1_555
C26A C17A 1_555 1_555
H18A C26A 1_555 1_555
H19A C26A 1_555 1_555
H20A C26A 1_555 1_555
C1 C3 1_555 1_555
C6 C7 1_555 1_555
C8 C12 1_555 1_555
C14 C16 1_555 1_555
C19 C20 1_555 1_555
C21 C25 1_555 1_555
C23 C24 1_555 1_555
N3A C2A 1_555 1_555
C1A C3A 1_555 1_555
C6A C7A 1_555 1_555
C8A C12A 1_555 1_555
C14A C16A 1_555 1_555
C19A C20A 1_555 1_555
C21A C25A 1_555 1_555
C23A C24A 1_555 1_555

#END
