
#######################################################################
#
#                 Cambridge Crystallographic Data Centre
#                                CCDC 
#
#######################################################################
#
# If this CIF has been generated from an entry in the Cambridge 
# Structural Database, then it will include bibliographic, chemical, 
# crystal, experimental, refinement or atomic coordinate data resulting 
# from the CCDC's data processing and validation procedures.
#
#######################################################################

data_SARKED
_symmetry_cell_setting           triclinic
_symmetry_space_group_name_H-M   'P -1'
_symmetry_Int_Tables_number      2
_space_group_name_Hall           '-P 1'
loop_
_symmetry_equiv_pos_site_id
_symmetry_equiv_pos_as_xyz
1 x,y,z
2 -x,-y,-z
_cell_length_a                   8.8471(12)
_cell_length_b                   9.1441(12)
_cell_length_c                   14.785(2)
_cell_angle_alpha                94.125(2)
_cell_angle_beta                 103.444(2)
_cell_angle_gamma                111.236(2)
_cell_volume                     1068.11
loop_
_atom_site_label
_atom_site_type_symbol
_atom_site_fract_x
_atom_site_fract_y
_atom_site_fract_z
Fe1 Fe 0.5000 0.5000 0.5000
Fe2 Fe 0.5000 0.0000 0.0000
N1 N 0.2861(2) 0.3663(2) 0.40544(13)
N2 N 0.2252(2) 0.2309(2) 0.34128(14)
N3 N 0.0360(3) 0.3474(2) 0.31544(14)
N4 N 0.3764(2) 0.6459(2) 0.50028(13)
N5 N -0.2702(2) 0.0009(2) 0.07049(13)
N6 N 0.5596(2) 0.2134(2) 0.07353(13)
N7 N 0.5463(2) 0.2746(2) 0.15663(13)
N8 N 0.6899(3) 0.4778(2) 0.09069(15)
N9 N 0.6027(2) 0.1407(2) -0.08782(13)
N10 N 0.5956(2) 0.5886(2) 0.39616(13)
C1 C 0.1718(3) 0.4309(3) 0.38822(16)
C2 C 0.0775(3) 0.2258(3) 0.28866(16)
C3 C 0.2157(3) 0.5848(3) 0.44427(16)
C4 C 0.1075(4) 0.6638(3) 0.4405(2)
H1 H -0.0018 0.6194 0.4006
C5 C 0.1667(4) 0.8102(4) 0.4976(2)
H2 H 0.0970 0.8658 0.4974
C6 C 0.3296(4) 0.8728(3) 0.5549(2)
H3 H 0.3711 0.9713 0.5938
C7 C 0.4307(3) 0.7890(3) 0.55430(18)
H4 H 0.5411 0.8332 0.5929
C8 C -0.0224(3) 0.1068(3) 0.20280(16)
C9 C 0.0415(3) 0.0043(3) 0.16731(19)
H5 H 0.1464 0.0064 0.1989
C10 C -0.0534(3) -0.1003(3) 0.08458(19)
H6 H -0.0150 -0.1726 0.0604
C11 C -0.2057(3) -0.0971(3) 0.03784(17)
H7 H -0.2668 -0.1662 -0.0191
C12 C -0.1785(3) 0.0982(3) 0.15285(16)
H8 H -0.2231 0.1641 0.1779
C13 C 0.6439(3) 0.3364(3) 0.03726(16)
C14 C 0.6265(3) 0.4323(3) 0.16352(16)
C15 C 0.6689(3) 0.2998(3) -0.05412(17)
C16 C 0.7477(5) 0.4116(4) -0.1032(2)
H9 H 0.7934 0.5195 -0.0778
C17 C 0.7581(5) 0.3607(4) -0.1912(2)
H10 H 0.8136 0.4337 -0.2252
C18 C 0.6857(4) 0.2018(4) -0.2273(2)
H11 H 0.6876 0.1659 -0.2874
C19 C 0.6096(3) 0.0948(3) -0.17449(17)
H12 H 0.5613 -0.0132 -0.1998
C20 C 0.6465(3) 0.5456(3) 0.24540(16)
C21 C 0.7412(4) 0.7074(3) 0.25513(19)
H13 H 0.7895 0.7482 0.2081
C22 C 0.7622(4) 0.8064(3) 0.33613(19)
H14 H 0.8249 0.9152 0.3441
C23 C 0.6905(3) 0.7440(3) 0.40467(17)
H15 H 0.7083 0.8122 0.4594
C24 C 0.5743(3) 0.4930(3) 0.31657(16)
H16 H 0.5070 0.3854 0.3091
Fe2_2 Fe -0.5000 0.0000 0.0000
Fe2_3 Fe 1.5000 1.0000 1.0000
Fe2_4 Fe 0.5000 1.0000 1.0000
N1A N 0.7139(2) 0.6337(2) 0.59456(13)
N2A N 0.7748(2) 0.7691(2) 0.65872(14)
N3A N 0.9640(3) 0.6526(2) 0.68456(14)
N4A N 0.6236(2) 0.3541(2) 0.49972(13)
N5A N 1.2702(2) 0.9991(2) 0.92951(13)
N5_2 N 0.7298(2) 0.0009(2) 0.07049(13)
N5A_2 N 0.2702(2) -0.0009(2) -0.07049(13)
N6A N 0.4404(2) 0.7866(2) 0.92647(13)
N6A_2 N 0.4404(2) -0.2134(2) -0.07353(13)
N7A N 0.4537(2) 0.7254(2) 0.84337(13)
N8A N 0.3101(3) 0.5222(2) 0.90931(15)
N9A N 0.3973(2) 0.8593(2) 1.08782(13)
N9A_2 N 0.3973(2) -0.1407(2) 0.08782(13)
N10A N 0.4044(2) 0.4114(2) 0.60384(13)
C1A C 0.8282(3) 0.5691(3) 0.61178(16)
C2A C 0.9225(3) 0.7742(3) 0.71134(16)
C3A C 0.7843(3) 0.4152(3) 0.55573(16)
C4A C 0.8925(4) 0.3362(3) 0.5595(2)
H1A H 1.0018 0.3806 0.5994
C5A C 0.8333(4) 0.1898(4) 0.5024(2)
H2A H 0.9030 0.1342 0.5026
C6A C 0.6704(4) 0.1272(3) 0.4451(2)
H3A H 0.6289 0.0287 0.4062
C7A C 0.5693(3) 0.2110(3) 0.44570(18)
H4A H 0.4589 0.1668 0.4071
C8A C 1.0224(3) 0.8932(3) 0.79720(16)
C9A C 0.9585(3) 0.9957(3) 0.83269(19)
H5A H 0.8536 0.9936 0.8011
C10A C 1.0534(3) 1.1003(3) 0.91542(19)
H6A H 1.0150 1.1726 0.9396
C11A C 1.2057(3) 1.0971(3) 0.96216(17)
H7A H 1.2668 1.1662 1.0191
C12A C 1.1785(3) 0.9018(3) 0.84715(16)
H8A H 1.2231 0.8359 0.8221
C13A C 0.3561(3) 0.6636(3) 0.96274(16)
C14A C 0.3735(3) 0.5677(3) 0.83648(16)
C15A C 0.3311(3) 0.7002(3) 1.05412(17)
C16A C 0.2523(5) 0.5884(4) 1.1032(2)
H9A H 0.2066 0.4805 1.0778
C17A C 0.2419(5) 0.6393(4) 1.1912(2)
H10A H 0.1864 0.5663 1.2252
C18A C 0.3143(4) 0.7982(4) 1.2273(2)
H11A H 0.3124 0.8341 1.2874
C19A C 0.3904(3) 0.9052(3) 1.17449(17)
H12A H 0.4387 1.0132 1.1998
C20A C 0.3535(3) 0.4544(3) 0.75460(16)
C21A C 0.2588(4) 0.2926(3) 0.74487(19)
H13A H 0.2105 0.2518 0.7919
C22A C 0.2378(4) 0.1936(3) 0.66387(19)
H14A H 0.1751 0.0848 0.6559
C23A C 0.3095(3) 0.2560(3) 0.59533(17)
H15A H 0.2917 0.1878 0.5406
C24A C 0.4257(3) 0.5070(3) 0.68343(16)
H16A H 0.4930 0.6146 0.6909
loop_
_geom_bond_atom_site_label_1
_geom_bond_atom_site_label_2
_geom_bond_site_symmetry_1
_geom_bond_site_symmetry_2
Fe1 N1 1_555 1_555
Fe2 N6 1_555 1_555
N1 N2 1_555 1_555
N2 C2 1_555 1_555
N3 C1 1_555 1_555
N4 Fe1 1_555 1_555
N5 C11 1_555 1_555
N6 N7 1_555 1_555
N7 C14 1_555 1_555
N8 C13 1_555 1_555
N9 Fe2 1_555 1_555
N10 Fe1 1_555 1_555
C1 N1 1_555 1_555
C2 N3 1_555 1_555
C3 N4 1_555 1_555
C4 C3 1_555 1_555
H1 C4 1_555 1_555
C5 C4 1_555 1_555
H2 C5 1_555 1_555
C6 C5 1_555 1_555
H3 C6 1_555 1_555
C7 N4 1_555 1_555
H4 C7 1_555 1_555
C8 C2 1_555 1_555
C9 C8 1_555 1_555
H5 C9 1_555 1_555
C10 C9 1_555 1_555
H6 C10 1_555 1_555
C11 C10 1_555 1_555
H7 C11 1_555 1_555
C12 N5 1_555 1_555
H8 C12 1_555 1_555
C13 N6 1_555 1_555
C14 N8 1_555 1_555
C15 N9 1_555 1_555
C16 C15 1_555 1_555
H9 C16 1_555 1_555
C17 C16 1_555 1_555
H10 C17 1_555 1_555
C18 C17 1_555 1_555
H11 C18 1_555 1_555
C19 N9 1_555 1_555
H12 C19 1_555 1_555
C20 C14 1_555 1_555
C21 C20 1_555 1_555
H13 C21 1_555 1_555
C22 C21 1_555 1_555
H14 C22 1_555 1_555
C23 N10 1_555 1_555
H15 C23 1_555 1_555
C24 N10 1_555 1_555
H16 C24 1_555 1_555
Fe2_2 N5 1_555 1_555
Fe2_3 N5A 1_555 1_555
Fe2_4 N6A 1_555 1_555
N1A Fe1 1_555 1_555
N2A N1A 1_555 1_555
N3A C1A 1_555 1_555
N4A Fe1 1_555 1_555
N5A C11A 1_555 1_555
N5_2 Fe2 1_555 1_555
N5A_2 Fe2 1_555 1_555
N6A N7A 1_555 1_555
N6A_2 Fe2 1_555 1_555
N7A C14A 1_555 1_555
N8A C13A 1_555 1_555
N9A Fe2_4 1_555 1_555
N9A_2 Fe2 1_555 1_555
N10A Fe1 1_555 1_555
C1A N1A 1_555 1_555
C2A N2A 1_555 1_555
C3A N4A 1_555 1_555
C4A C3A 1_555 1_555
H1A C4A 1_555 1_555
C5A C4A 1_555 1_555
H2A C5A 1_555 1_555
C6A C5A 1_555 1_555
H3A C6A 1_555 1_555
C7A N4A 1_555 1_555
H4A C7A 1_555 1_555
C8A C2A 1_555 1_555
C9A C8A 1_555 1_555
H5A C9A 1_555 1_555
C10A C9A 1_555 1_555
H6A C10A 1_555 1_555
C11A C10A 1_555 1_555
H7A C11A 1_555 1_555
C12A N5A 1_555 1_555
H8A C12A 1_555 1_555
C13A N6A 1_555 1_555
C14A N8A 1_555 1_555
C15A N9A 1_555 1_555
C16A C15A 1_555 1_555
H9A C16A 1_555 1_555
C17A C16A 1_555 1_555
H10A C17A 1_555 1_555
C18A C17A 1_555 1_555
H11A C18A 1_555 1_555
C19A N9A 1_555 1_555
H12A C19A 1_555 1_555
C20A C14A 1_555 1_555
C21A C20A 1_555 1_555
H13A C21A 1_555 1_555
C22A C21A 1_555 1_555
H14A C22A 1_555 1_555
C23A N10A 1_555 1_555
H15A C23A 1_555 1_555
C24A N10A 1_555 1_555
H16A C24A 1_555 1_555
C1 C3 1_555 1_555
C6 C7 1_555 1_555
C8 C12 1_555 1_555
C13 C15 1_555 1_555
C18 C19 1_555 1_555
C20 C24 1_555 1_555
C22 C23 1_555 1_555
N3A C2A 1_555 1_555
C1A C3A 1_555 1_555
C6A C7A 1_555 1_555
C8A C12A 1_555 1_555
C13A C15A 1_555 1_555
C18A C19A 1_555 1_555
C20A C24A 1_555 1_555
C22A C23A 1_555 1_555

#END
