
#######################################################################
#
#                 Cambridge Crystallographic Data Centre
#                                CCDC 
#
#######################################################################
#
# If this CIF has been generated from an entry in the Cambridge 
# Structural Database, then it will include bibliographic, chemical, 
# crystal, experimental, refinement or atomic coordinate data resulting 
# from the CCDC's data processing and validation procedures.
#
#######################################################################

data_SARKON02
_symmetry_cell_setting           triclinic
_symmetry_space_group_name_H-M   'P -1'
_symmetry_Int_Tables_number      2
_space_group_name_Hall           '-P 1'
loop_
_symmetry_equiv_pos_site_id
_symmetry_equiv_pos_as_xyz
1 x,y,z
2 -x,-y,-z
_cell_length_a                   9.5368
_cell_length_b                   9.7585
_cell_length_c                   14.5674
_cell_angle_alpha                94.9888
_cell_angle_beta                 103.1962
_cell_angle_gamma                112.1438
_cell_volume                     1199.85
loop_
_atom_site_label
_atom_site_type_symbol
_atom_site_fract_x
_atom_site_fract_y
_atom_site_fract_z
N1 N 0.42531 0.26939 0.43748
N2 N 0.45402 0.20903 0.35840
N3 N 0.33758 0.01567 0.43340
N4 N 0.36754 0.34642 0.59583
N5 N 0.46590 -0.09333 0.13182
C1 C 0.35669 0.15236 0.48052
C2 C 0.40055 0.05796 0.35956
C3 C 0.31951 0.19135 0.56978
C4 C 0.24495 0.08775 0.62450
C5 C 0.22095 0.14678 0.70764
H1 H 0.16923 0.08057 0.74494
C6 C 0.27305 0.30343 0.73604
H2 H 0.26000 0.34367 0.79329
C7 C 0.34466 0.39907 0.67822
H3 H 0.37854 0.50457 0.69713
C8 C 0.40697 -0.05143 0.28429
C9 C 0.34217 -0.20899 0.28151
H4 H 0.30196 -0.24863 0.33166
C10 C 0.33849 -0.30554 0.20321
H5 H 0.29614 -0.41128 0.20047
C11 C 0.39704 -0.24621 0.12936
H6 H 0.38910 -0.31348 0.07573
C12 C 0.47156 0.00020 0.20957
H7 H 0.52187 0.10582 0.21330
C13 C 0.18844 -0.08343 0.59356
H8 H 0.12052 -0.11556 0.52762
H9 H 0.12896 -0.13577 0.63580
H10 H 0.27986 -0.10795 0.59755
N6 N -0.26094 0.13664 0.08270
N7 N -0.19814 0.27090 0.14763
N8 N -0.03475 0.14671 0.18378
N9 N -0.36505 -0.14079 -0.00978
N10 N 0.25871 0.49226 0.43852
C14 C -0.16206 0.06658 0.10621
C15 C -0.06303 0.27109 0.20682
C16 C -0.21286 -0.08733 0.05018
C17 C -0.11937 -0.17270 0.05655
C18 C -0.18879 -0.31696 -0.00239
H11 H -0.13082 -0.37756 -0.00028
C19 C -0.34168 -0.37173 -0.06379
H12 H -0.38742 -0.46830 -0.10382
C20 C -0.42686 -0.28081 -0.06519
H13 H -0.53119 -0.31862 -0.10631
C21 C 0.03123 0.38841 0.29473
C22 C -0.02837 0.49051 0.32680
H14 H -0.12335 0.49115 0.28931
C23 C 0.05397 0.58983 0.41390
H15 H 0.01596 0.65934 0.43609
C24 C 0.19471 0.58642 0.46909
H16 H 0.24716 0.65159 0.52961
C25 C 0.17643 0.39618 0.35248
H17 H 0.21896 0.33085 0.33008
C26 C 0.04823 -0.11356 0.12311
H18 H 0.10434 -0.00651 0.12246
H19 H 0.10397 -0.17011 0.10130
H20 H 0.04383 -0.12614 0.18822
Fe1 Fe 0.50000 0.50000 0.50000
Fe2 Fe -0.50000 0.00000 0.00000
N1A N 0.57469 0.73061 0.56252
N2A N 0.54598 0.79097 0.64160
N3A N 0.66242 0.98433 0.56660
N4A N 0.63246 0.65358 0.40417
N5A N 0.53410 1.09333 0.86818
N5_2 N -0.53410 -0.09333 0.13182
N5A_2 N -0.46590 0.09333 -0.13182
C1A C 0.64331 0.84764 0.51948
C2A C 0.59945 0.94204 0.64044
C3A C 0.68049 0.80865 0.43022
C4A C 0.75505 0.91225 0.37550
C5A C 0.77905 0.85322 0.29236
H1A H 0.83077 0.91943 0.25506
C6A C 0.72695 0.69657 0.26396
H2A H 0.74000 0.65633 0.20671
C7A C 0.65534 0.60093 0.32178
H3A H 0.62146 0.49543 0.30287
C8A C 0.59303 1.05143 0.71571
C9A C 0.65783 1.20899 0.71849
H4A H 0.69804 1.24863 0.66834
C10A C 0.66151 1.30554 0.79679
H5A H 0.70386 1.41128 0.79953
C11A C 0.60296 1.24621 0.87064
H6A H 0.61090 1.31348 0.92427
C12A C 0.52844 0.99980 0.79043
H7A H 0.47813 0.89418 0.78670
C13A C 0.81156 1.08343 0.40644
H8A H 0.87948 1.11556 0.47238
H9A H 0.87104 1.13577 0.36420
H10A H 0.72014 1.10795 0.40245
N6A N 1.26094 0.86336 0.91730
N6A_2 N -0.73906 -0.13664 -0.08270
N7A N 1.19814 0.72910 0.85237
N8A N 1.03475 0.85329 0.81622
N9A N 1.36505 1.14079 1.00978
N9A_2 N -0.63495 0.14079 0.00978
N10A N 0.74129 0.50774 0.56148
C14A C 1.16206 0.93342 0.89379
C15A C 1.06303 0.72891 0.79318
C16A C 1.21286 1.08733 0.94982
C17A C 1.11937 1.17270 0.94345
C18A C 1.18879 1.31696 1.00239
H11A H 1.13082 1.37756 1.00028
C19A C 1.34168 1.37173 1.06379
H12A H 1.38742 1.46830 1.10382
C20A C 1.42686 1.28081 1.06519
H13A H 1.53119 1.31862 1.10631
C21A C 0.96877 0.61159 0.70527
C22A C 1.02837 0.50949 0.67320
H14A H 1.12335 0.50885 0.71069
C23A C 0.94603 0.41017 0.58610
H15A H 0.98404 0.34066 0.56391
C24A C 0.80529 0.41358 0.53091
H16A H 0.75284 0.34841 0.47039
C25A C 0.82357 0.60382 0.64752
H17A H 0.78104 0.66915 0.66992
C26A C 0.95177 1.11356 0.87689
H18A H 0.89566 1.00651 0.87754
H19A H 0.89603 1.17011 0.89870
H20A H 0.95617 1.12614 0.81178
Fe2_2 Fe 0.50000 0.00000 0.00000
Fe2_3 Fe 0.50000 1.00000 1.00000
Fe2_4 Fe 1.50000 1.00000 1.00000
loop_
_geom_bond_atom_site_label_1
_geom_bond_atom_site_label_2
_geom_bond_site_symmetry_1
_geom_bond_site_symmetry_2
N1 N2 1_555 1_555
N2 C2 1_555 1_555
N3 C1 1_555 1_555
N4 C3 1_555 1_555
N5 C11 1_555 1_555
C1 N1 1_555 1_555
C2 N3 1_555 1_555
C3 C1 1_555 1_555
C4 C3 1_555 1_555
C5 C4 1_555 1_555
H1 C5 1_555 1_555
C6 C5 1_555 1_555
H2 C6 1_555 1_555
C7 N4 1_555 1_555
H3 C7 1_555 1_555
C8 C2 1_555 1_555
C9 C8 1_555 1_555
H4 C9 1_555 1_555
C10 C9 1_555 1_555
H5 C10 1_555 1_555
C11 C10 1_555 1_555
H6 C11 1_555 1_555
C12 N5 1_555 1_555
H7 C12 1_555 1_555
C13 C4 1_555 1_555
H8 C13 1_555 1_555
H9 C13 1_555 1_555
H10 C13 1_555 1_555
N6 N7 1_555 1_555
N7 C15 1_555 1_555
N8 C14 1_555 1_555
N9 C16 1_555 1_555
N10 C24 1_555 1_555
C14 N6 1_555 1_555
C15 N8 1_555 1_555
C16 C14 1_555 1_555
C17 C16 1_555 1_555
C18 C17 1_555 1_555
H11 C18 1_555 1_555
C19 C18 1_555 1_555
H12 C19 1_555 1_555
C20 N9 1_555 1_555
H13 C20 1_555 1_555
C21 C15 1_555 1_555
C22 C21 1_555 1_555
H14 C22 1_555 1_555
C23 C22 1_555 1_555
H15 C23 1_555 1_555
C24 C23 1_555 1_555
H16 C24 1_555 1_555
C25 N10 1_555 1_555
H17 C25 1_555 1_555
C26 C17 1_555 1_555
H18 C26 1_555 1_555
H19 C26 1_555 1_555
H20 C26 1_555 1_555
Fe1 N1 1_555 1_555
Fe2 N6 1_555 1_555
N1A Fe1 1_555 1_555
N2A N1A 1_555 1_555
N3A C1A 1_555 1_555
N4A Fe1 1_555 1_555
N5A C11A 1_555 1_555
N5_2 Fe2 1_555 1_555
N5A_2 Fe2 1_555 1_555
C1A N1A 1_555 1_555
C2A N2A 1_555 1_555
C3A N4A 1_555 1_555
C4A C3A 1_555 1_555
C5A C4A 1_555 1_555
H1A C5A 1_555 1_555
C6A C5A 1_555 1_555
H2A C6A 1_555 1_555
C7A N4A 1_555 1_555
H3A C7A 1_555 1_555
C8A C2A 1_555 1_555
C9A C8A 1_555 1_555
H4A C9A 1_555 1_555
C10A C9A 1_555 1_555
H5A C10A 1_555 1_555
C11A C10A 1_555 1_555
H6A C11A 1_555 1_555
C12A N5A 1_555 1_555
H7A C12A 1_555 1_555
C13A C4A 1_555 1_555
H8A C13A 1_555 1_555
H9A C13A 1_555 1_555
H10A C13A 1_555 1_555
N6A N7A 1_555 1_555
N6A_2 Fe2 1_555 1_555
N7A C15A 1_555 1_555
N8A C14A 1_555 1_555
N9A C16A 1_555 1_555
N9A_2 Fe2 1_555 1_555
N10A Fe1 1_555 1_555
C14A N6A 1_555 1_555
C15A N8A 1_555 1_555
C16A C14A 1_555 1_555
C17A C16A 1_555 1_555
C18A C17A 1_555 1_555
H11A C18A 1_555 1_555
C19A C18A 1_555 1_555
H12A C19A 1_555 1_555
C20A N9A 1_555 1_555
H13A C20A 1_555 1_555
C21A C15A 1_555 1_555
C22A C21A 1_555 1_555
H14A C22A 1_555 1_555
C23A C22A 1_555 1_555
H15A C23A 1_555 1_555
C24A N10A 1_555 1_555
H16A C24A 1_555 1_555
C25A N10A 1_555 1_555
H17A C25A 1_555 1_555
C26A C17A 1_555 1_555
H18A C26A 1_555 1_555
H19A C26A 1_555 1_555
H20A C26A 1_555 1_555
Fe2_2 N5 1_555 1_555
Fe2_3 N5A 1_555 1_555
Fe2_4 N6A 1_555 1_555
N4 Fe1 1_555 1_555
C6 C7 1_555 1_555
C8 C12 1_555 1_555
N9 Fe2 1_555 1_555
N10 Fe1 1_555 1_555
C19 C20 1_555 1_555
C21 C25 1_555 1_555
N3A C2A 1_555 1_555
C1A C3A 1_555 1_555
C6A C7A 1_555 1_555
C8A C12A 1_555 1_555
N9A Fe2_4 1_555 1_555
C19A C20A 1_555 1_555
C21A C25A 1_555 1_555
C23A C24A 1_555 1_555

#END
