
#######################################################################
#
#                 Cambridge Crystallographic Data Centre
#                                CCDC 
#
#######################################################################
#
# If this CIF has been generated from an entry in the Cambridge 
# Structural Database, then it will include bibliographic, chemical, 
# crystal, experimental, refinement or atomic coordinate data resulting 
# from the CCDC's data processing and validation procedures.
#
#######################################################################

data_SARMUU
_symmetry_cell_setting           monoclinic
_symmetry_space_group_name_H-M   'P 21/n'
_symmetry_Int_Tables_number      14
_space_group_name_Hall           '-P 2yn'
loop_
_symmetry_equiv_pos_site_id
_symmetry_equiv_pos_as_xyz
1 x,y,z
2 1/2-x,1/2+y,1/2-z
3 -x,-y,-z
4 1/2+x,1/2-y,1/2+z
_cell_length_a                   14.099(5)
_cell_length_b                   21.938(8)
_cell_length_c                   15.066(6)
_cell_angle_alpha                90
_cell_angle_beta                 103.259(8)
_cell_angle_gamma                90
_cell_volume                     4535.75
loop_
_atom_site_label
_atom_site_type_symbol
_atom_site_fract_x
_atom_site_fract_y
_atom_site_fract_z
Yb1 Yb 0.49667(9) 0.27459(5) 0.06641(8)
Yb2 Yb 0.30534(9) 0.25677(5) 0.67392(8)
C1 C 0.304(2) 0.2874(11) 0.2526(18)
C2 C 0.2423(19) 0.2402(11) 0.2456(18)
H1 H 0.2361 0.2110 0.1997
C3 C 0.187(2) 0.2381(12) 0.3133(19)
H2 H 0.1383 0.2089 0.3075
C4 C 0.202(2) 0.2771(11) 0.3872(17)
C5 C 0.265(2) 0.3286(12) 0.3904(19)
C6 C 0.319(2) 0.3334(12) 0.323(2)
C7 C 0.381(2) 0.3844(13) 0.329(2)
H3 H 0.4179 0.3893 0.2852
C8 C 0.389(2) 0.4263(13) 0.396(2)
H4 H 0.4329 0.4582 0.4006
C9 C 0.332(2) 0.4216(12) 0.457(2)
H5 H 0.3359 0.4518 0.5015
C10 C 0.272(2) 0.3751(11) 0.4560(19)
H6 H 0.2335 0.3732 0.4988
C11 C 0.366(2) 0.2826(11) 0.1852(19)
C12 C 0.1464(19) 0.2663(10) 0.4606(17)
C13 C 0.6873(19) 0.5624(10) 0.2183(17)
C14 C 0.611(2) 0.5244(12) 0.233(2)
H7 H 0.5616 0.5390 0.2597
C15 C 0.613(2) 0.4636(12) 0.2054(18)
H8 H 0.5606 0.4386 0.2074
C16 C 0.691(2) 0.4386(11) 0.1751(18)
C17 C 0.7671(18) 0.4770(10) 0.1595(16)
C18 C 0.7658(19) 0.5396(11) 0.1842(17)
C19 C 0.837(2) 0.5780(12) 0.1655(19)
H9 H 0.8352 0.6194 0.1786
C20 C 0.909(2) 0.5559(14) 0.128(2)
H10 H 0.9569 0.5825 0.1189
C21 C 0.913(2) 0.4946(13) 0.103(2)
H11 H 0.9611 0.4806 0.0743
C22 C 0.844(2) 0.4565(12) 0.1224(19)
H12 H 0.8483 0.4151 0.1107
C23 C 0.688(2) 0.6275(11) 0.2534(19)
C24 C 0.684(2) 0.3712(13) 0.150(2)
C25 C 0.488(2) 0.2642(11) 0.4928(18)
C26 C 0.471(2) 0.2203(14) 0.427(2)
H13 H 0.4247 0.1903 0.4294
C27 C 0.518(2) 0.2180(13) 0.355(2)
H14 H 0.5025 0.1887 0.3096
C28 C 0.588(2) 0.2595(12) 0.3544(19)
C29 C 0.615(2) 0.3081(12) 0.4188(19)
C30 C 0.561(2) 0.3109(12) 0.493(2)
C31 C 0.586(2) 0.3577(12) 0.5570(19)
H15 H 0.5571 0.3583 0.6067
C32 C 0.650(2) 0.4018(12) 0.550(2)
H16 H 0.6618 0.4334 0.5924
C33 C 0.696(2) 0.3996(13) 0.481(2)
H17 H 0.7417 0.4296 0.4782
C34 C 0.679(2) 0.3557(12) 0.413(2)
H18 H 0.7093 0.3579 0.3643
C35 C 0.431(2) 0.2606(11) 0.5614(18)
C36 C 0.645(2) 0.2523(12) 0.2818(19)
C37 C 0.446(3) 0.1308(15) -0.040(2)
H19 H 0.4119 0.1564 -0.0852
C38 C 0.444(2) 0.0713(13) -0.060(2)
H20 H 0.4114 0.0565 -0.1161
C39 C 0.494(2) 0.0328(12) 0.008(2)
C40 C 0.539(3) 0.0570(15) 0.087(2)
H21 H 0.5747 0.0323 0.1334
C41 C 0.534(3) 0.1184(14) 0.101(2)
H22 H 0.5615 0.1322 0.1594
N1 N 0.4948(17) 0.1592(9) 0.0435(15)
O1 O 0.4142(14) 0.3298(8) 0.1611(13)
O2 O 0.3775(15) 0.2313(9) 0.1474(14)
O3 O 0.0611(13) 0.2466(7) 0.4364(11)
O4 O 0.1883(13) 0.2703(8) 0.5424(12)
O5 O 0.7515(13) 0.6432(7) 0.3211(12)
O6 O 0.6216(13) 0.6636(7) 0.2099(12)
O7 O 0.7603(14) 0.3409(7) 0.1711(12)
O8 O 0.6004(14) 0.3501(7) 0.1127(12)
O9 O 0.3835(14) 0.2139(8) 0.5682(12)
O10 O 0.4210(14) 0.3062(8) 0.6113(12)
O11 O 0.5966(13) 0.2407(8) 0.1999(12)
O12 O 0.7333(14) 0.2549(9) 0.2986(13)
O13 O 0.3438(14) 0.2544(8) -0.0282(12)
H31 H 0.3366 0.2249 -0.0658
H32 H 0.2954 0.2766 -0.0249
O14 O 0.4573(15) 0.3583(7) -0.0305(12)
H33 H 0.5023 0.3804 -0.0424
H34 H 0.3980 0.3668 -0.0537
O15 O 0.4387(13) 0.2126(7) 0.7698(11)
H35 H 0.4326 0.1789 0.7959
H36 H 0.4941 0.2299 0.7790
Yb1B Yb 0.50333(9) -0.27459(5) -0.06641(8)
Yb1C Yb -0.00333(9) 0.22541(5) 0.56641(8)
Yb1C_2 Yb 0.99667(9) 0.22541(5) -0.43359(8)
Yb1B_2 Yb 0.50333(9) 0.72541(5) 0.93359(8)
Yb2C Yb 0.80534(9) 0.24323(5) 0.17392(8)
Yb2B Yb 0.69466(9) 0.74323(5) 0.32608(8)
Yb2A Yb 0.19466(9) 0.75677(5) 0.82608(8)
Yb2C_2 Yb -0.19466(9) 0.24323(5) 1.17392(8)
C1C C 0.804(2) 0.2126(11) -0.2474(18)
C2C C 0.7423(19) 0.2598(11) -0.2544(18)
H1C H 0.7361 0.2890 -0.3003
C3C C 0.687(2) 0.2619(12) -0.1867(19)
H2C H 0.6383 0.2911 -0.1925
C4C C 0.702(2) 0.2229(11) -0.1128(17)
C5C C 0.765(2) 0.1714(12) -0.1096(19)
C6C C 0.819(2) 0.1666(12) -0.177(2)
C7C C 0.881(2) 0.1156(13) -0.171(2)
H3C H 0.9179 0.1107 -0.2148
C8C C 0.889(2) 0.0737(13) -0.104(2)
H4C H 0.9329 0.0418 -0.0994
C9C C 0.832(2) 0.0784(12) -0.043(2)
H5C H 0.8359 0.0482 0.0015
C10C C 0.772(2) 0.1249(11) -0.0440(19)
H6C H 0.7335 0.1268 -0.0012
C11C C 0.866(2) 0.2174(11) -0.3148(19)
C12C C 0.6464(19) 0.2337(10) -0.0394(17)
C13B C 0.3127(19) 0.4376(10) 0.7817(17)
C14B C 0.389(2) 0.4756(12) 0.767(2)
H7B H 0.4384 0.4610 0.7403
C15B C 0.387(2) 0.5364(12) 0.7946(18)
H8B H 0.4394 0.5614 0.7926
C16B C 0.309(2) 0.5614(11) 0.8249(18)
C17B C 0.2329(18) 0.5230(10) 0.8405(16)
C18B C 0.2342(19) 0.4604(11) 0.8158(17)
C19B C 0.163(2) 0.4220(12) 0.8345(19)
H9B H 0.1648 0.3806 0.8214
C20B C 0.091(2) 0.4441(14) 0.872(2)
H10B H 0.0431 0.4175 0.8811
C21B C 0.087(2) 0.5054(13) 0.897(2)
H11B H 0.0389 0.5194 0.9257
C22B C 0.156(2) 0.5435(12) 0.8776(19)
H12B H 0.1517 0.5849 0.8893
C23B C 0.312(2) 0.3725(11) 0.7466(19)
C24B C 0.316(2) 0.6288(13) 0.850(2)
C25C C -0.012(2) 0.2358(11) 0.9928(18)
C26C C -0.029(2) 0.2797(14) 0.927(2)
H13C H -0.0753 0.3097 0.9294
C27C C 0.018(2) 0.2820(13) 0.855(2)
H14C H 0.0025 0.3113 0.8096
C28C C 0.088(2) 0.2405(12) 0.8544(19)
C29C C 0.115(2) 0.1919(12) 0.9188(19)
C30C C 0.061(2) 0.1891(12) 0.993(2)
C31C C 0.086(2) 0.1423(12) 1.0570(19)
H15C H 0.0571 0.1417 1.1067
C32C C 0.150(2) 0.0982(12) 1.050(2)
H16C H 0.1618 0.0666 1.0924
C33C C 0.196(2) 0.1004(13) 0.981(2)
H17C H 0.2417 0.0704 0.9782
C34C C 0.179(2) 0.1443(12) 0.913(2)
H18C H 0.2093 0.1421 0.8643
C35C C -0.069(2) 0.2394(11) 1.0614(18)
C36C C 0.145(2) 0.2477(12) 0.7818(19)
C37B C 0.554(3) -0.1308(15) 0.040(2)
H19B H 0.5881 -0.1564 0.0852
C38B C 0.556(2) -0.0713(13) 0.060(2)
H20B H 0.5886 -0.0565 0.1161
C39B C 0.506(2) -0.0328(12) -0.008(2)
C40B C 0.461(3) -0.0570(15) -0.087(2)
H21B H 0.4253 -0.0323 -0.1334
C41B C 0.466(3) -0.1184(14) -0.101(2)
H22B H 0.4385 -0.1322 -0.1594
N1B N 0.5052(17) -0.1592(9) -0.0435(15)
O1C O 0.9142(14) 0.1702(8) -0.3389(13)
O1B O 0.5858(14) -0.3298(8) -0.1611(13)
O2C O 0.8775(15) 0.2687(9) -0.3526(14)
O2B O 0.6225(15) -0.2313(9) -0.1474(14)
O3C O 0.5611(13) 0.2534(7) -0.0636(11)
O3A O 0.4389(13) -0.2534(7) 0.0636(11)
O4C O 0.6883(13) 0.2297(8) 0.0424(12)
O5B O 0.2485(13) 0.3568(7) 0.6789(12)
O5A O 0.7485(13) 0.1432(7) 0.1789(12)
O6B O 0.3784(13) 0.3364(7) 0.7901(12)
O6A O 0.8784(13) 0.1636(7) 0.2901(12)
O7B O 0.2397(14) 0.6591(7) 0.8289(12)
O7C O 0.2603(14) 0.1591(7) 0.6711(12)
O8B O 0.3996(14) 0.6499(7) 0.8873(12)
O8B_2 O 0.3996(14) -0.3501(7) -0.1127(12)
O9C O -0.1165(14) 0.2861(8) 1.0682(12)
O9C_2 O 0.8835(14) 0.2861(8) 0.0682(12)
O10C O -0.0790(14) 0.1938(8) 1.1113(12)
O10C_2 O 0.9210(14) 0.1938(8) 0.1113(12)
O11C O 0.0966(13) 0.2593(8) 0.6999(12)
O11B O 0.4034(13) -0.2407(8) -0.1999(12)
O12C O 0.2333(14) 0.2451(9) 0.7986(13)
O13B O 0.6562(14) -0.2544(8) 0.0282(12)
H31B H 0.6634 -0.2249 0.0658
H32B H 0.7046 -0.2766 0.0249
O14B O 0.5427(15) -0.3583(7) 0.0305(12)
H33B H 0.4977 -0.3804 0.0424
H34B H 0.6020 -0.3668 0.0537
O15C O 0.9387(13) 0.2874(7) 0.2698(11)
H35C H 0.9326 0.3211 0.2959
H36C H 0.9941 0.2701 0.2790
C42 C 0.911(3) 0.6350(15) 0.844(2)
H23 H 0.9349 0.6714 0.8722
C43 C 0.848(2) 0.6017(14) 0.882(2)
H24 H 0.8292 0.6141 0.9343
C44 C 0.813(2) 0.5484(13) 0.836(2)
C45 C 0.842(3) 0.5303(15) 0.757(2)
H25 H 0.8223 0.4936 0.7275
C46 C 0.901(2) 0.5698(14) 0.726(2)
H26 H 0.9151 0.5620 0.6700
C47 C 0.674(3) 0.4154(18) 0.902(3)
H27 H 0.6772 0.3730 0.9008
C48 C 0.739(3) 0.4474(15) 0.863(2)
H28 H 0.7809 0.4269 0.8342
C49 C 0.741(3) 0.5095(14) 0.869(2)
C50 C 0.675(2) 0.5365(14) 0.913(2)
H29 H 0.6747 0.5787 0.9198
C51 C 0.613(3) 0.5026(15) 0.946(2)
H30 H 0.5702 0.5231 0.9749
N2 N 0.941(2) 0.6185(13) 0.771(2)
N3 N 0.606(2) 0.4416(11) 0.9426(19)
loop_
_geom_bond_atom_site_label_1
_geom_bond_atom_site_label_2
_geom_bond_site_symmetry_1
_geom_bond_site_symmetry_2
Yb1 N1 1_555 1_555
Yb2 O4 1_555 1_555
C1 C2 1_555 1_555
C2 H1 1_555 1_555
C3 C2 1_555 1_555
H2 C3 1_555 1_555
C4 C3 1_555 1_555
C5 C4 1_555 1_555
C6 C1 1_555 1_555
C7 C6 1_555 1_555
H3 C7 1_555 1_555
C8 C7 1_555 1_555
H4 C8 1_555 1_555
C9 C8 1_555 1_555
H5 C9 1_555 1_555
C10 C5 1_555 1_555
H6 C10 1_555 1_555
C11 C1 1_555 1_555
C12 C4 1_555 1_555
C13 C14 1_555 1_555
C14 H7 1_555 1_555
C15 C14 1_555 1_555
H8 C15 1_555 1_555
C16 C15 1_555 1_555
C17 C16 1_555 1_555
C18 C13 1_555 1_555
C19 C18 1_555 1_555
H9 C19 1_555 1_555
C20 C19 1_555 1_555
H10 C20 1_555 1_555
C21 C20 1_555 1_555
H11 C21 1_555 1_555
C22 C17 1_555 1_555
H12 C22 1_555 1_555
C23 C13 1_555 1_555
C24 C16 1_555 1_555
C25 C26 1_555 1_555
C26 H13 1_555 1_555
C27 C26 1_555 1_555
H14 C27 1_555 1_555
C28 C27 1_555 1_555
C29 C28 1_555 1_555
C30 C25 1_555 1_555
C31 C30 1_555 1_555
H15 C31 1_555 1_555
C32 C31 1_555 1_555
H16 C32 1_555 1_555
C33 C32 1_555 1_555
H17 C33 1_555 1_555
C34 C29 1_555 1_555
H18 C34 1_555 1_555
C35 C25 1_555 1_555
C36 C28 1_555 1_555
C37 H19 1_555 1_555
C38 C37 1_555 1_555
H20 C38 1_555 1_555
C39 C38 1_555 1_555
C40 C39 1_555 1_555
H21 C40 1_555 1_555
C41 C40 1_555 1_555
H22 C41 1_555 1_555
C42 H23 1_555 1_555
C43 C42 1_555 1_555
H24 C43 1_555 1_555
C44 C43 1_555 1_555
C45 C44 1_555 1_555
H25 C45 1_555 1_555
C46 C45 1_555 1_555
H26 C46 1_555 1_555
C47 H27 1_555 1_555
C48 C47 1_555 1_555
H28 C48 1_555 1_555
C49 C44 1_555 1_555
C50 C49 1_555 1_555
H29 C50 1_555 1_555
C51 C50 1_555 1_555
H30 C51 1_555 1_555
N1 C37 1_555 1_555
N2 C42 1_555 1_555
N3 C47 1_555 1_555
O1 Yb1 1_555 1_555
O2 Yb1 1_555 1_555
O3 C12 1_555 1_555
O4 C12 1_555 1_555
O5 C23 1_555 1_555
O6 C23 1_555 1_555
O7 C24 1_555 1_555
O8 Yb1 1_555 1_555
O9 Yb2 1_555 1_555
O10 Yb2 1_555 1_555
O11 Yb1 1_555 1_555
O12 C36 1_555 1_555
O13 Yb1 1_555 1_555
H31 O13 1_555 1_555
H32 O13 1_555 1_555
O14 Yb1 1_555 1_555
H33 O14 1_555 1_555
H34 O14 1_555 1_555
O15 Yb2 1_555 1_555
H35 O15 1_555 1_555
H36 O15 1_555 1_555
Yb1B N1B 1_555 1_555
Yb1C O3 1_555 1_555
Yb1C_2 O1C 1_555 1_555
Yb1B_2 O8B 1_555 1_555
Yb2C O7 1_555 1_555
Yb2B O5 1_555 1_555
Yb2A O7B 1_555 1_555
Yb2C_2 O9C 1_555 1_555
C1C C2C 1_555 1_555
C2C H1C 1_555 1_555
C3C C2C 1_555 1_555
H2C C3C 1_555 1_555
C4C C3C 1_555 1_555
C5C C4C 1_555 1_555
C6C C1C 1_555 1_555
C7C C6C 1_555 1_555
H3C C7C 1_555 1_555
C8C C7C 1_555 1_555
H4C C8C 1_555 1_555
C9C C8C 1_555 1_555
H5C C9C 1_555 1_555
C10C C5C 1_555 1_555
H6C C10C 1_555 1_555
C11C C1C 1_555 1_555
C12C C4C 1_555 1_555
C13B C14B 1_555 1_555
C14B H7B 1_555 1_555
C15B C14B 1_555 1_555
H8B C15B 1_555 1_555
C16B C15B 1_555 1_555
C17B C16B 1_555 1_555
C18B C13B 1_555 1_555
C19B C18B 1_555 1_555
H9B C19B 1_555 1_555
C20B C19B 1_555 1_555
H10B C20B 1_555 1_555
C21B C20B 1_555 1_555
H11B C21B 1_555 1_555
C22B C17B 1_555 1_555
H12B C22B 1_555 1_555
C23B C13B 1_555 1_555
C24B C16B 1_555 1_555
C25C C26C 1_555 1_555
C26C H13C 1_555 1_555
C27C C26C 1_555 1_555
H14C C27C 1_555 1_555
C28C C27C 1_555 1_555
C29C C28C 1_555 1_555
C30C C25C 1_555 1_555
C31C C30C 1_555 1_555
H15C C31C 1_555 1_555
C32C C31C 1_555 1_555
H16C C32C 1_555 1_555
C33C C32C 1_555 1_555
H17C C33C 1_555 1_555
C34C C29C 1_555 1_555
H18C C34C 1_555 1_555
C35C C25C 1_555 1_555
C36C C28C 1_555 1_555
C37B H19B 1_555 1_555
C38B C37B 1_555 1_555
H20B C38B 1_555 1_555
C39B C39 1_555 1_555
C40B C39B 1_555 1_555
H21B C40B 1_555 1_555
C41B C40B 1_555 1_555
H22B C41B 1_555 1_555
N1B C37B 1_555 1_555
O1C C11C 1_555 1_555
O1B Yb1B 1_555 1_555
O2C Yb1C_2 1_555 1_555
O2B Yb1B 1_555 1_555
O3C Yb1 1_555 1_555
O3A Yb1B 1_555 1_555
O4C Yb2C 1_555 1_555
O5B Yb2 1_555 1_555
O5A Yb2C 1_555 1_555
O6B Yb2 1_555 1_555
O6A Yb2C 1_555 1_555
O7B C24B 1_555 1_555
O7C Yb2 1_555 1_555
O8B C24B 1_555 1_555
O8B_2 Yb1B 1_555 1_555
O9C C35C 1_555 1_555
O9C_2 Yb2C 1_555 1_555
O10C Yb2C_2 1_555 1_555
O10C_2 Yb2C 1_555 1_555
O11C Yb1C 1_555 1_555
O11B Yb1B 1_555 1_555
O12C Yb2 1_555 1_555
O13B Yb1B 1_555 1_555
H31B O13B 1_555 1_555
H32B O13B 1_555 1_555
O14B Yb1B 1_555 1_555
H33B O14B 1_555 1_555
H34B O14B 1_555 1_555
O15C Yb2C 1_555 1_555
H35C O15C 1_555 1_555
H36C O15C 1_555 1_555
C5 C6 1_555 1_555
C9 C10 1_555 1_555
C11 O1 1_555 1_555
C11 O2 1_555 1_555
C17 C18 1_555 1_555
C21 C22 1_555 1_555
C24 O8 1_555 1_555
C29 C30 1_555 1_555
C33 C34 1_555 1_555
C35 O9 1_555 1_555
C35 O10 1_555 1_555
C36 O11 1_555 1_555
C41 N1 1_555 1_555
C46 N2 1_555 1_555
C48 C49 1_555 1_555
C51 N3 1_555 1_555
O6 Yb2B 1_555 1_555
O12 Yb2C 1_555 1_555
C5C C6C 1_555 1_555
C9C C10C 1_555 1_555
C11C O2C 1_555 1_555
C12C O3C 1_555 1_555
C12C O4C 1_555 1_555
C17B C18B 1_555 1_555
C21B C22B 1_555 1_555
C23B O5B 1_555 1_555
C23B O6B 1_555 1_555
C29C C30C 1_555 1_555
C33C C34C 1_555 1_555
C35C O10C 1_555 1_555
C36C O11C 1_555 1_555
C36C O12C 1_555 1_555
C38B C39B 1_555 1_555
C41B N1B 1_555 1_555

#END
