
#######################################################################
#
#                 Cambridge Crystallographic Data Centre
#                                CCDC 
#
#######################################################################
#
# If this CIF has been generated from an entry in the Cambridge 
# Structural Database, then it will include bibliographic, chemical, 
# crystal, experimental, refinement or atomic coordinate data resulting 
# from the CCDC's data processing and validation procedures.
#
#######################################################################

data_SARMII
_symmetry_cell_setting           tetragonal
_symmetry_space_group_name_H-M   'I 41 c d'
_symmetry_Int_Tables_number      110
_space_group_name_Hall           'I 4bw -2c'
loop_
_symmetry_equiv_pos_site_id
_symmetry_equiv_pos_as_xyz
1 x,y,z
2 1/2-x,1/2-y,1/2+z
3 -y,1/2+x,1/4+z
4 1/2+y,-x,3/4+z
5 x,-y,1/2+z
6 1/2-x,1/2+y,z
7 -y,1/2-x,3/4+z
8 1/2+y,x,1/4+z
9 1/2+x,1/2+y,1/2+z
10 -x,-y,z
11 1/2-y,x,3/4+z
12 y,1/2-x,1/4+z
13 1/2+x,1/2-y,z
14 -x,y,1/2+z
15 1/2-y,-x,1/4+z
16 y,1/2+x,3/4+z
_cell_length_a                   30.408(5)
_cell_length_b                   30.408(5)
_cell_length_c                   15.747(5)
_cell_angle_alpha                90
_cell_angle_beta                 90
_cell_angle_gamma                90
_cell_volume                     14560.4
loop_
_atom_site_label
_atom_site_type_symbol
_atom_site_fract_x
_atom_site_fract_y
_atom_site_fract_z
Gd1 Gd 0.476761(11) 0.269985(11) 0.681706(18)
Gd2 Gd 0.471341(11) 0.277588(10) 0.936843(19)
O1 O 0.45316(15) 0.31794(15) 0.8111(3)
O2 O 0.41399(15) 0.31634(16) 0.6954(3)
O3 O 0.25979(17) 0.46626(17) 0.8227(3)
O4 O 0.30394(16) 0.49583(19) 0.9174(4)
O5 O 0.71001(16) 0.10887(16) 0.7017(4)
O6 O 0.66636(17) 0.06399(17) 0.7695(3)
O7 O 0.52311(16) 0.25523(17) 0.8036(4)
O8 O 0.53832(16) 0.23255(16) 0.9318(4)
O9 O 0.4299(2) 0.22930(18) 0.7657(4)
O10 O 0.4471(2) 0.2085(2) 0.8940(4)
O11 O 0.33354(17) 0.02964(15) 0.6695(4)
O12 O 0.30804(17) 0.02519(16) 0.7969(3)
C1 C 0.3912(2) 0.3678(2) 0.7984(5)
C2 C 0.3482(3) 0.3639(3) 0.7762(5)
H1 H 0.3385 0.3393 0.7464
C3 C 0.3181(3) 0.3975(3) 0.7989(5)
H2 H 0.2887 0.3944 0.7838
C4 C 0.3309(2) 0.4338(2) 0.8419(5)
C5 C 0.3757(3) 0.4387(2) 0.8677(5)
C6 C 0.3920(3) 0.4746(3) 0.9170(6)
H3 H 0.3726 0.4965 0.9342
C7 C 0.4354(2) 0.4777(3) 0.9397(7)
H4 H 0.4450 0.5011 0.9728
C8 C 0.4650(3) 0.4457(3) 0.9128(7)
H5 H 0.4946 0.4485 0.9268
C9 C 0.4516(3) 0.4107(3) 0.8668(6)
H6 H 0.4722 0.3899 0.8497
C10 C 0.4066(3) 0.4049(2) 0.8437(5)
C11 C 0.4208(2) 0.3320(2) 0.7663(4)
C12 C 0.2966(2) 0.4669(2) 0.8624(5)
C13 C 0.6458(2) 0.1403(3) 0.7716(5)
C14 C 0.6097(3) 0.1278(3) 0.8197(6)
H7 H 0.6061 0.0984 0.8344
C15 C 0.5788(3) 0.1586(3) 0.8462(6)
H8 H 0.5557 0.1497 0.8808
C16 C 0.5818(3) 0.2022(3) 0.8222(5)
C17 C 0.6179(3) 0.2164(3) 0.7750(5)
C18 C 0.6227(3) 0.2602(3) 0.7515(7)
H9 H 0.6016 0.2807 0.7677
C19 C 0.6578(3) 0.2733(3) 0.7056(8)
H10 H 0.6597 0.3026 0.6894
C20 C 0.6912(3) 0.2448(4) 0.6813(11)
H11 H 0.7156 0.2550 0.6515
C21 C 0.6874(3) 0.2010(3) 0.7027(7)
H12 H 0.7092 0.1815 0.6856
C22 C 0.6513(3) 0.1850(3) 0.7496(5)
C23 C 0.6761(3) 0.1032(3) 0.7467(5)
C24 C 0.5459(2) 0.2321(2) 0.8541(5)
C25 C 0.4070(3) 0.1589(2) 0.8066(6)
C26 C 0.3709(3) 0.1601(3) 0.7561(6)
H13 H 0.3623 0.1870 0.7336
C27 C 0.3461(3) 0.1232(3) 0.7365(6)
H14 H 0.3209 0.1257 0.7036
C28 C 0.3594(3) 0.0825(3) 0.7665(5)
C29 C 0.3979(3) 0.0793(3) 0.8176(5)
C30 C 0.4116(3) 0.0383(3) 0.8488(6)
H15 H 0.3956 0.0133 0.8348
C31 C 0.4477(3) 0.0342(3) 0.8988(7)
H16 H 0.4567 0.0068 0.9181
C32 C 0.4715(3) 0.0724(3) 0.9211(7)
H17 H 0.4959 0.0702 0.9564
C33 C 0.4586(3) 0.1131(3) 0.8905(6)
H18 H 0.4751 0.1379 0.9044
C34 C 0.4211(3) 0.1178(3) 0.8389(5)
C35 C 0.4299(3) 0.2015(3) 0.8248(6)
C36 C 0.3333(2) 0.0435(2) 0.7436(5)
O13 O 0.53057(15) 0.32738(15) 0.6794(4)
O14 O 0.4234(2) 0.2325(2) 0.5853(4)
Gd1N Gd 0.230015(11) 0.523239(11) 0.931706(18)
Gd1K Gd 0.269985(11) 0.023239(11) 0.931706(18)
Gd2J Gd 0.222412(10) 0.471341(11) 0.686843(19)
Gd2F Gd 0.722412(10) 0.028659(11) 0.686843(19)
Gd2O Gd 0.277588(10) -0.028659(11) 0.686843(19)
O3F O 0.53374(17) 0.24021(17) 0.5727(3)
O3K O 0.46626(17) 0.24021(17) 1.0727(3)
O4F O 0.50417(19) 0.19606(16) 0.6674(4)
O5N O 0.39113(16) 0.28999(16) 0.9517(4)
O6N O 0.43601(17) 0.33364(17) 1.0195(3)
O11G O 0.52964(15) 0.33354(17) 0.9195(4)
O12J O 0.47481(16) 0.30804(17) 0.5469(3)
O12G O 0.52519(16) 0.30804(17) 1.0469(3)
O15 O 0.3825(4) 0.9321(3) 0.0411(5)
O16 O 0.1322(8) 0.0644(8) 0.8071(16)
loop_
_geom_bond_atom_site_label_1
_geom_bond_atom_site_label_2
_geom_bond_site_symmetry_1
_geom_bond_site_symmetry_2
Gd1 O1 1_555 1_555
Gd2 O1 1_555 1_555
O1 C11 1_555 1_555
O2 Gd1 1_555 1_555
O3 C12 1_555 1_555
O4 C12 1_555 1_555
O5 C23 1_555 1_555
O6 C23 1_555 1_555
O7 Gd1 1_555 1_555
O8 Gd2 1_555 1_555
O9 Gd1 1_555 1_555
O10 Gd2 1_555 1_555
O11 C36 1_555 1_555
O12 C36 1_555 1_555
C1 C2 1_555 1_555
C2 H1 1_555 1_555
C3 C2 1_555 1_555
H2 C3 1_555 1_555
C4 C3 1_555 1_555
C5 C4 1_555 1_555
C6 C5 1_555 1_555
H3 C6 1_555 1_555
C7 C6 1_555 1_555
H4 C7 1_555 1_555
C8 C7 1_555 1_555
H5 C8 1_555 1_555
C9 C8 1_555 1_555
H6 C9 1_555 1_555
C10 C1 1_555 1_555
C11 O2 1_555 1_555
C12 C4 1_555 1_555
C13 C14 1_555 1_555
C14 H7 1_555 1_555
C15 C14 1_555 1_555
H8 C15 1_555 1_555
C16 C15 1_555 1_555
C17 C16 1_555 1_555
C18 C17 1_555 1_555
H9 C18 1_555 1_555
C19 C18 1_555 1_555
H10 C19 1_555 1_555
C20 C19 1_555 1_555
H11 C20 1_555 1_555
C21 C20 1_555 1_555
H12 C21 1_555 1_555
C22 C13 1_555 1_555
C23 C13 1_555 1_555
C24 O7 1_555 1_555
C25 C26 1_555 1_555
C26 H13 1_555 1_555
C27 C26 1_555 1_555
H14 C27 1_555 1_555
C28 C27 1_555 1_555
C29 C28 1_555 1_555
C30 C29 1_555 1_555
H15 C30 1_555 1_555
C31 C30 1_555 1_555
H16 C31 1_555 1_555
C32 C31 1_555 1_555
H17 C32 1_555 1_555
C33 C32 1_555 1_555
H18 C33 1_555 1_555
C34 C25 1_555 1_555
C35 O9 1_555 1_555
C36 C28 1_555 1_555
O13 Gd1 1_555 1_555
O14 Gd1 1_555 1_555
Gd1N O3 1_555 1_555
Gd1K O12 1_555 1_555
Gd2J O3 1_555 1_555
Gd2F O5 1_555 1_555
Gd2O O11 1_555 1_555
O3F Gd1 1_555 1_555
O3K Gd2 1_555 1_555
O4F Gd1 1_555 1_555
O5N Gd2 1_555 1_555
O6N Gd2 1_555 1_555
O11G Gd2 1_555 1_555
O12J Gd1 1_555 1_555
O12G Gd2 1_555 1_555
Gd2 O7 1_555 1_555
O4 Gd1N 1_555 1_555
O6 Gd2F 1_555 1_555
O8 C24 1_555 1_555
O10 C35 1_555 1_555
O12 Gd2O 1_555 1_555
C1 C11 1_555 1_555
C5 C10 1_555 1_555
C9 C10 1_555 1_555
C16 C24 1_555 1_555
C17 C22 1_555 1_555
C21 C22 1_555 1_555
C25 C35 1_555 1_555
C29 C34 1_555 1_555
C33 C34 1_555 1_555

#END
