
#######################################################################
#
#                 Cambridge Crystallographic Data Centre
#                                CCDC 
#
#######################################################################
#
# If this CIF has been generated from an entry in the Cambridge 
# Structural Database, then it will include bibliographic, chemical, 
# crystal, experimental, refinement or atomic coordinate data resulting 
# from the CCDC's data processing and validation procedures.
#
#######################################################################

data_SARNAB
_symmetry_cell_setting           monoclinic
_symmetry_space_group_name_H-M   'P 21/m'
_symmetry_Int_Tables_number      11
_space_group_name_Hall           '-P 2yb'
loop_
_symmetry_equiv_pos_site_id
_symmetry_equiv_pos_as_xyz
1 x,y,z
2 -x,1/2+y,-z
3 -x,-y,-z
4 x,1/2-y,z
_cell_length_a                   6.0846(2)
_cell_length_b                   15.6681(4)
_cell_length_c                   8.6321(3)
_cell_angle_alpha                90
_cell_angle_beta                 96.589(1)
_cell_angle_gamma                90
_cell_volume                     817.498
loop_
_atom_site_label
_atom_site_type_symbol
_atom_site_fract_x
_atom_site_fract_y
_atom_site_fract_z
Ag1 Ag 0.0000 0.5000 0.0000
N1 N 0.2725(4) 0.51203(13) -0.1352(3)
N2 N 0.9111(4) 0.48478(14) -0.4624(3)
C1 C 0.3535(5) 0.58926(16) -0.1623(3)
H1 H 0.2863 0.6379 -0.1219
C2 C 0.5297(4) 0.60127(17) -0.2463(3)
H2 H 0.5800 0.6574 -0.2645
C3 C 0.6342(4) 0.53140(18) -0.3044(3)
C4 C 0.5491(4) 0.45045(17) -0.2762(3)
H3 H 0.6136 0.4007 -0.3148
C5 C 0.3719(4) 0.44384(17) -0.1922(3)
H4 H 0.3164 0.3886 -0.1733
C6 C 0.8217(4) 0.54556(16) -0.3908(3)
H5 H 0.8808 0.6016 -0.3948
Ag1_2 Ag 2.0000 0.5000 -1.0000
N1B N 1.7275(4) 0.48797(13) -0.8648(3)
N1B_2 N -0.2725(4) 0.48797(13) 0.1352(3)
N2B N 1.0889(4) 0.51522(14) -0.5376(3)
C1B C 1.6465(5) 0.41074(16) -0.8377(3)
H1B H 1.7137 0.3621 -0.8781
C2B C 1.4703(4) 0.39873(17) -0.7537(3)
H2B H 1.4200 0.3426 -0.7355
C3B C 1.3658(4) 0.46860(18) -0.6956(3)
C4B C 1.4509(4) 0.54955(17) -0.7238(3)
H3B H 1.3864 0.5993 -0.6852
C5B C 1.6281(4) 0.55616(17) -0.8078(3)
H4B H 1.6836 0.6114 -0.8267
C6B C 1.1783(4) 0.45444(16) -0.6092(3)
H5B H 1.1192 0.3984 -0.6052
F1 F 0.0467(4) 0.2500 0.1715(3)
F2 F -0.0140(3) 0.32235(11) -0.0581(2)
F3 F 0.3088(4) 0.2500 0.0022(3)
B1 B 0.0830(9) 0.2500 0.0151(6)
F2C F -0.0140(3) 0.17765(11) -0.0581(2)
N3 N 0.3466(7) 0.2500 -0.4295(5)
C7 C 0.1629(10) 0.2500 -0.4272(5)
C8 C -0.0813(8) 0.2500 -0.4312(6)
H6? H -0.1468 0.2173 -0.5218
H7? H -0.1360 0.3089 -0.4390
H8? H -0.1226 0.2238 -0.3356
loop_
_geom_bond_atom_site_label_1
_geom_bond_atom_site_label_2
_geom_bond_site_symmetry_1
_geom_bond_site_symmetry_2
Ag1 N1 1_555 1_555
F1 B1 1_555 1_555
F2 B1 1_555 1_555
F3 B1 1_555 1_555
N1 C1 1_555 1_555
N2 C6 1_555 1_555
N3 C7 1_555 1_555
C1 H1 1_555 1_555
C2 C1 1_555 1_555
H2 C2 1_555 1_555
C3 C2 1_555 1_555
C4 C3 1_555 1_555
H3 C4 1_555 1_555
C5 N1 1_555 1_555
H4 C5 1_555 1_555
C6 C3 1_555 1_555
H5 C6 1_555 1_555
C7 C8 1_555 1_555
B1 F2C 1_555 1_555
Ag1_2 N1B 1_555 1_555
N1B C1B 1_555 1_555
N1B_2 Ag1 1_555 1_555
N2B N2 1_555 1_555
C1B H1B 1_555 1_555
C2B C1B 1_555 1_555
H2B C2B 1_555 1_555
C3B C2B 1_555 1_555
C4B C3B 1_555 1_555
H3B C4B 1_555 1_555
C5B N1B 1_555 1_555
H4B C5B 1_555 1_555
C6B N2B 1_555 1_555
H5B C6B 1_555 1_555
C4 C5 1_555 1_555
C3B C6B 1_555 1_555
C4B C5B 1_555 1_555

#END
