
#######################################################################
#
#                 Cambridge Crystallographic Data Centre
#                                CCDC 
#
#######################################################################
#
# If this CIF has been generated from an entry in the Cambridge 
# Structural Database, then it will include bibliographic, chemical, 
# crystal, experimental, refinement or atomic coordinate data resulting 
# from the CCDC's data processing and validation procedures.
#
#######################################################################

data_SARNIJ
_symmetry_cell_setting           triclinic
_symmetry_space_group_name_H-M   'P -1'
_symmetry_Int_Tables_number      2
_space_group_name_Hall           '-P 1'
loop_
_symmetry_equiv_pos_site_id
_symmetry_equiv_pos_as_xyz
1 x,y,z
2 -x,-y,-z
_cell_length_a                   10.4959(15)
_cell_length_b                   11.9036(16)
_cell_length_c                   8.6632(12)
_cell_angle_alpha                97.956(13)
_cell_angle_beta                 110.611(9)
_cell_angle_gamma                92.935(13)
_cell_volume                     997.493
loop_
_atom_site_label
_atom_site_type_symbol
_atom_site_fract_x
_atom_site_fract_y
_atom_site_fract_z
Sb1 Sb 1.44115(4) 0.78282(11) -0.31706(17)
F1 F 1.4972(4) 0.6651(3) -0.4361(7)
F2 F 1.6106(3) 0.8012(4) -0.1419(4)
F3 F 1.3846(3) 0.9016(4) -0.2003(4)
F4 F 1.2682(2) 0.7659(2) -0.4919(3)
F5 F 1.3723(3) 0.6794(3) -0.2143(5)
F6 F 1.5058(3) 0.8891(2) -0.4178(3)
Ag1 Ag 1.05609(3) 1.208291(19) -0.40913(3)
N1 N 1.0083(3) 1.0598(2) -0.3120(3)
N2 N 1.0433(3) 0.7453(2) 0.0276(3)
N3 N 1.0039(3) 0.6619(2) 0.1085(3)
N4 N 1.0683(3) 0.3409(2) 0.4455(3)
N5 N 1.3184(4) 1.2023(4) -0.2917(6)
C1 C 0.8820(3) 1.0230(3) -0.3232(4)
H1 H 0.8071 1.0596 -0.3859
C2 C 0.8557(3) 0.9339(3) -0.2473(4)
H2 H 0.7645 0.9100 -0.2590
C3 C 0.9642(3) 0.8800(2) -0.1540(4)
C4 C 1.0949(3) 0.9158(3) -0.1467(4)
H3 H 1.1710 0.8788 -0.0880
C5 C 1.1134(3) 1.0054(3) -0.2253(4)
H4 H 1.2033 1.0296 -0.2182
C6 C 0.9400(3) 0.7900(2) -0.0640(4)
H5 H 0.8497 0.7653 -0.0733
C7 C 1.1046(3) 0.6079(2) 0.1790(4)
H6 H 1.1914 0.6281 0.1733
C8 C 1.0891(3) 0.5153(2) 0.2688(4)
C9 C 0.9620(3) 0.4698(2) 0.2625(4)
H7 H 0.8804 0.4977 0.1974
C10 C 0.9562(3) 0.3833(2) 0.3524(4)
H8 H 0.8693 0.3528 0.3479
C11 C 1.1907(3) 0.3834(2) 0.4504(4)
H9 H 1.2705 0.3534 0.5160
C12 C 1.2052(3) 0.4697(3) 0.3630(4)
H10 H 1.2932 0.4972 0.3675
C13 C 1.4270(4) 1.1800(4) -0.2466(5)
C14 C 1.5666(4) 1.1511(4) -0.1857(5)
H11 H 1.6291 1.2206 -0.1291
H12 H 1.5896 1.1154 -0.2802
H13 H 1.5755 1.0978 -0.1068
Ag1_2 Ag 1.05609(3) 0.208291(19) 0.59087(3)
N4_2 N 1.0683(3) 1.3409(2) -0.5545(3)
O1 O 0.5533(7) 0.4554(5) 0.8515(9)
Sb2? Sb 1.4366(3) 0.7572(4) -0.3591(6)
F7? F 1.3737(15) 0.6267(13) -0.2988(19)
F8? F 1.615(2) 0.7488(17) -0.218(3)
F9? F 1.467(2) 0.6697(19) -0.530(3)
F10? F 1.396(3) 0.850(2) -0.187(3)
O2? O 0.6059(8) 0.4811(7) 0.9286(10)
O3? O 0.6312(11) 0.5369(10) 0.9761(13)
O4? O 0.5439(12) 0.4881(10) 0.9705(15)
O5? O 0.455(3) 0.467(2) 0.959(3)
loop_
_geom_bond_atom_site_label_1
_geom_bond_atom_site_label_2
_geom_bond_site_symmetry_1
_geom_bond_site_symmetry_2
Sb1 F1 1_555 1_555
Ag1 N1 1_555 1_555
F2 Sb1 1_555 1_555
F3 Sb1 1_555 1_555
F4 Sb1 1_555 1_555
F5 Sb1 1_555 1_555
F6 Sb1 1_555 1_555
N1 C1 1_555 1_555
N2 N3 1_555 1_555
N3 C7 1_555 1_555
N4 C10 1_555 1_555
N5 Ag1 1_555 1_555
C1 H1 1_555 1_555
C2 C1 1_555 1_555
H2 C2 1_555 1_555
C3 C2 1_555 1_555
C4 C3 1_555 1_555
H3 C4 1_555 1_555
C5 N1 1_555 1_555
H4 C5 1_555 1_555
C6 N2 1_555 1_555
H5 C6 1_555 1_555
C7 H6 1_555 1_555
C8 C7 1_555 1_555
C9 C8 1_555 1_555
H7 C9 1_555 1_555
C10 C9 1_555 1_555
H8 C10 1_555 1_555
C11 N4 1_555 1_555
H9 C11 1_555 1_555
C12 C8 1_555 1_555
H10 C12 1_555 1_555
C13 N5 1_555 1_555
C14 C13 1_555 1_555
H11 C14 1_555 1_555
H12 C14 1_555 1_555
H13 C14 1_555 1_555
Ag1_2 N4 1_555 1_555
N4_2 Ag1 1_555 1_555
C3 C6 1_555 1_555
C4 C5 1_555 1_555
C11 C12 1_555 1_555

#END
