
#######################################################################
#
#                 Cambridge Crystallographic Data Centre
#                                CCDC 
#
#######################################################################
#
# If this CIF has been generated from an entry in the Cambridge 
# Structural Database, then it will include bibliographic, chemical, 
# crystal, experimental, refinement or atomic coordinate data resulting 
# from the CCDC's data processing and validation procedures.
#
#######################################################################

data_SARNOP
_symmetry_cell_setting           triclinic
_symmetry_space_group_name_H-M   'P -1'
_symmetry_Int_Tables_number      2
_space_group_name_Hall           '-P 1'
loop_
_symmetry_equiv_pos_site_id
_symmetry_equiv_pos_as_xyz
1 x,y,z
2 -x,-y,-z
_cell_length_a                   7.5292(2)
_cell_length_b                   9.7601(3)
_cell_length_c                   11.8669(4)
_cell_angle_alpha                75.444(1)
_cell_angle_beta                 74.672(1)
_cell_angle_gamma                83.659(2)
_cell_volume                     813.128
loop_
_atom_site_label
_atom_site_type_symbol
_atom_site_fract_x
_atom_site_fract_y
_atom_site_fract_z
Ag1 Ag 0.78610(3) 0.01755(2) 0.525055(17)
N1 N 0.6811(2) -0.0886(2) 0.41923(17)
N2 N 0.8598(2) 0.1649(2) 0.61045(17)
N3 N 0.5114(3) -0.0517(2) 0.05168(16)
N4 N 0.9843(3) 0.0178(2) 0.94203(16)
N5 N 0.8092(3) -0.2081(2) 0.6933(2)
C1 C 0.6488(3) -0.0186(3) 0.3135(2)
C2 C 0.5976(3) -0.0839(2) 0.2367(2)
C3 C 0.5832(3) -0.2307(3) 0.2700(2)
C4 C 0.6150(3) -0.3033(3) 0.3791(2)
C5 C 0.6611(3) -0.2297(3) 0.4512(2)
C6 C 0.5648(3) 0.0036(3) 0.1236(2)
C7 C 0.8903(3) 0.1191(3) 0.7197(2)
C8 C 0.9092(3) 0.2083(2) 0.7899(2)
C9 C 0.8914(3) 0.3534(3) 0.7443(2)
C10 C 0.8607(3) 0.4015(3) 0.6309(2)
C11 C 0.8471(3) 0.3066(3) 0.5658(2)
C12 C 0.9469(3) 0.1505(3) 0.9084(2)
C13 C 0.7853(4) -0.2673(3) 0.7913(2)
C14 C 0.7524(5) -0.3419(4) 0.9174(3)
H1 H 0.666(3) 0.077(3) 0.291(2)
H2 H 0.550(3) -0.274(3) 0.223(2)
H3 H 0.607(3) -0.402(3) 0.402(2)
H4 H 0.679(3) -0.273(2) 0.527(2)
H5 H 0.586(3) 0.102(3) 0.106(2)
H6 H 0.901(3) 0.024(3) 0.750(2)
H7 H 0.904(3) 0.415(3) 0.790(2)
H8 H 0.852(3) 0.493(3) 0.602(2)
H9 H 0.826(3) 0.337(2) 0.489(2)
H10 H 0.936(3) 0.211(2) 0.957(2)
H11 H 0.657(4) -0.412(4) 0.938(3)
H12 H 0.859(4) -0.387(3) 0.931(3)
H13 H 0.704(5) -0.279(4) 0.967(3)
Ag1A Ag 0.21390(3) -0.01755(2) -0.525055(17)
Ag1A_2 Ag 1.21390(3) -0.01755(2) 1.474945(17)
N1A N 0.3189(2) 0.0886(2) -0.41923(17)
N2A N 1.1402(2) -0.1649(2) 1.38955(17)
N2A_2 N 0.1402(2) -0.1649(2) -0.61045(17)
N3A N 0.4886(3) 0.0517(2) -0.05168(16)
N4A N 1.0157(3) -0.0178(2) 1.05797(16)
N5A N 0.1908(3) 0.2081(2) -0.6933(2)
C1A C 0.3512(3) 0.0186(3) -0.3135(2)
C2A C 0.4024(3) 0.0839(2) -0.2367(2)
C3A C 0.4168(3) 0.2307(3) -0.2700(2)
C4A C 0.3850(3) 0.3033(3) -0.3791(2)
C5A C 0.3389(3) 0.2297(3) -0.4512(2)
C6A C 0.4352(3) -0.0036(3) -0.1236(2)
C7A C 1.1097(3) -0.1191(3) 1.2803(2)
C8A C 1.0908(3) -0.2083(2) 1.2101(2)
C9A C 1.1086(3) -0.3534(3) 1.2557(2)
C10A C 1.1393(3) -0.4015(3) 1.3691(2)
C11A C 1.1529(3) -0.3066(3) 1.4342(2)
C12A C 1.0531(3) -0.1505(3) 1.0916(2)
C13A C 0.2147(4) 0.2673(3) -0.7913(2)
C14A C 0.2476(5) 0.3419(4) -0.9174(3)
H1A H 0.334(3) -0.077(3) -0.291(2)
H2A H 0.450(3) 0.274(3) -0.223(2)
H3A H 0.393(3) 0.402(3) -0.402(2)
H4A H 0.321(3) 0.273(2) -0.527(2)
H5A H 0.414(3) -0.102(3) -0.106(2)
H6A H 1.099(3) -0.024(3) 1.250(2)
H7A H 1.096(3) -0.415(3) 1.210(2)
H8A H 1.148(3) -0.493(3) 1.398(2)
H9A H 1.174(3) -0.337(2) 1.511(2)
H10A H 1.064(3) -0.211(2) 1.043(2)
H11A H 0.343(4) 0.412(4) -0.938(3)
H12A H 0.141(4) 0.387(3) -0.931(3)
H13A H 0.296(5) 0.279(4) -0.967(3)
F1 F 0.5196(2) 0.46959(19) 0.2217(2)
F2 F 0.8251(2) 0.49676(16) 0.17451(14)
F3 F 0.7115(2) 0.31405(16) 0.13319(14)
F4 F 0.6973(3) 0.3151(2) 0.32468(15)
B1 B 0.6886(4) 0.3994(3) 0.2136(3)
loop_
_geom_bond_atom_site_label_1
_geom_bond_atom_site_label_2
_geom_bond_site_symmetry_1
_geom_bond_site_symmetry_2
Ag1 N1 1_555 1_555
F1 B1 1_555 1_555
F2 B1 1_555 1_555
F3 B1 1_555 1_555
F4 B1 1_555 1_555
N1 C1 1_555 1_555
N2 Ag1 1_555 1_555
N3 C6 1_555 1_555
N4 C12 1_555 1_555
N5 Ag1 1_555 1_555
C1 C2 1_555 1_555
C2 C3 1_555 1_555
C3 C4 1_555 1_555
C4 C5 1_555 1_555
C5 N1 1_555 1_555
C6 C2 1_555 1_555
C7 N2 1_555 1_555
C8 C7 1_555 1_555
C9 C8 1_555 1_555
C10 C9 1_555 1_555
C11 N2 1_555 1_555
C12 C8 1_555 1_555
C13 N5 1_555 1_555
C14 C13 1_555 1_555
H1 C1 1_555 1_555
H2 C3 1_555 1_555
H3 C4 1_555 1_555
H4 C5 1_555 1_555
H5 C6 1_555 1_555
H6 C7 1_555 1_555
H7 C9 1_555 1_555
H8 C10 1_555 1_555
H9 C11 1_555 1_555
H10 C12 1_555 1_555
H11 C14 1_555 1_555
H12 C14 1_555 1_555
H13 C14 1_555 1_555
Ag1A N1A 1_555 1_555
Ag1A_2 N2A 1_555 1_555
N1A C1A 1_555 1_555
N2A C7A 1_555 1_555
N2A_2 Ag1A 1_555 1_555
N3A N3 1_555 1_555
N4A N4 1_555 1_555
N5A Ag1A 1_555 1_555
C1A C2A 1_555 1_555
C2A C3A 1_555 1_555
C3A C4A 1_555 1_555
C4A C5A 1_555 1_555
C5A N1A 1_555 1_555
C6A N3A 1_555 1_555
C7A C8A 1_555 1_555
C8A C9A 1_555 1_555
C9A C10A 1_555 1_555
C10A C11A 1_555 1_555
C11A N2A 1_555 1_555
C12A N4A 1_555 1_555
C13A N5A 1_555 1_555
C14A C13A 1_555 1_555
H1A C1A 1_555 1_555
H2A C3A 1_555 1_555
H3A C4A 1_555 1_555
H4A C5A 1_555 1_555
H5A C6A 1_555 1_555
H6A C7A 1_555 1_555
H7A C9A 1_555 1_555
H8A C10A 1_555 1_555
H9A C11A 1_555 1_555
H10A C12A 1_555 1_555
H11A C14A 1_555 1_555
H12A C14A 1_555 1_555
H13A C14A 1_555 1_555
C10 C11 1_555 1_555
C2A C6A 1_555 1_555
C8A C12A 1_555 1_555

#END
