
#######################################################################
#
#                 Cambridge Crystallographic Data Centre
#                                CCDC 
#
#######################################################################
#
# If this CIF has been generated from an entry in the Cambridge 
# Structural Database, then it will include bibliographic, chemical, 
# crystal, experimental, refinement or atomic coordinate data resulting 
# from the CCDC's data processing and validation procedures.
#
#######################################################################

data_SARPEH
_symmetry_cell_setting           triclinic
_symmetry_space_group_name_H-M   'P -1'
_symmetry_Int_Tables_number      2
_space_group_name_Hall           '-P 1'
loop_
_symmetry_equiv_pos_site_id
_symmetry_equiv_pos_as_xyz
1 x,y,z
2 -x,-y,-z
_cell_length_a                   10.4948(3)
_cell_length_b                   13.9768(4)
_cell_length_c                   14.3519(4)
_cell_angle_alpha                64.474(2)
_cell_angle_beta                 88.167(2)
_cell_angle_gamma                77.080(1)
_cell_volume                     1846.64
loop_
_atom_site_label
_atom_site_type_symbol
_atom_site_fract_x
_atom_site_fract_y
_atom_site_fract_z
Ag1 Ag 1.02583(4) -1.09500(3) 0.37106(3)
N1 N 0.8729(4) -0.9798(3) 0.3944(3)
N2 N 0.5811(3) -0.6445(3) 0.3880(3)
N3 N 0.4749(3) -0.5653(3) 0.3921(3)
N4 N 0.1817(4) -0.2186(3) 0.3636(3)
C1 C 0.8931(4) -0.8865(4) 0.3908(3)
H1 H 0.9788 -0.8739 0.3797
C2 C 0.7965(4) -0.8084(4) 0.4022(3)
H2 H 0.8158 -0.7438 0.3989
C3 C 0.6698(4) -0.8250(4) 0.4189(3)
C4 C 0.6482(5) -0.9220(4) 0.4237(3)
H3 H 0.5638 -0.9372 0.4360
C5 C 0.7512(5) -0.9959(4) 0.4106(3)
H4 H 0.7346 -1.0611 0.4131
C6 C 0.5604(4) -0.7417(4) 0.4283(3)
C7 C 0.4431(4) -0.7767(4) 0.4812(4)
H5 H 0.3879 -0.7171 0.4933
H6 H 0.4712 -0.8406 0.5476
H7 H 0.3929 -0.7952 0.4375
C8 C 0.5011(4) -0.4712(4) 0.3647(3)
C9 C 0.6319(4) -0.4457(4) 0.3355(4)
H8 H 0.6924 -0.5095 0.3340
H9 H 0.6667 -0.4271 0.3865
H10 H 0.6223 -0.3839 0.2669
C10 C 0.3900(4) -0.3838(3) 0.3637(3)
C11 C 0.4066(5) -0.2802(4) 0.3405(3)
H11 H 0.4898 -0.2637 0.3236
C12 C 0.3016(5) -0.2012(4) 0.3420(3)
H12 H 0.3153 -0.1312 0.3270
C13 C 0.1648(4) -0.3185(3) 0.3841(4)
H13 H 0.0801 -0.3324 0.3994
C14 C 0.2644(4) -0.4010(4) 0.3840(3)
H14 H 0.2477 -0.4697 0.3977
Ag1_2 Ag 2.02583(4) -2.09500(3) 0.37106(3)
Ag1_3 Ag 0.02583(4) -0.09500(3) 0.37106(3)
N1_2 N 1.8729(4) -1.9798(3) 0.3944(3)
N2_2 N 1.5811(3) -1.6445(3) 0.3880(3)
N3_2 N 1.4749(3) -1.5653(3) 0.3921(3)
N4_2 N 1.1817(4) -1.2186(3) 0.3636(3)
N4_3 N 2.1817(4) -2.2186(3) 0.3636(3)
C1_2 C 1.8931(4) -1.8865(4) 0.3908(3)
H1_2 H 1.9788 -1.8739 0.3797
C2_2 C 1.7965(4) -1.8084(4) 0.4022(3)
H2_2 H 1.8158 -1.7438 0.3989
C3_2 C 1.6698(4) -1.8250(4) 0.4189(3)
C4_2 C 1.6482(5) -1.9220(4) 0.4237(3)
H3_2 H 1.5638 -1.9372 0.4360
C5_2 C 1.7512(5) -1.9959(4) 0.4106(3)
H4_2 H 1.7346 -2.0611 0.4131
C6_2 C 1.5604(4) -1.7417(4) 0.4283(3)
C7_2 C 1.4431(4) -1.7767(4) 0.4812(4)
H5_2 H 1.3879 -1.7171 0.4933
H6_2 H 1.4712 -1.8406 0.5476
H7_2 H 1.3929 -1.7952 0.4375
C8_2 C 1.5011(4) -1.4712(4) 0.3647(3)
C9_2 C 1.6319(4) -1.4457(4) 0.3355(4)
H8_2 H 1.6924 -1.5095 0.3340
H9_2 H 1.6667 -1.4271 0.3865
H10_2 H 1.6223 -1.3839 0.2669
C10_2 C 1.3900(4) -1.3838(3) 0.3637(3)
C11_2 C 1.4066(5) -1.2802(4) 0.3405(3)
H11_2 H 1.4898 -1.2637 0.3236
C12_2 C 1.3016(5) -1.2012(4) 0.3420(3)
H12_2 H 1.3153 -1.1312 0.3270
C13_2 C 1.1648(4) -1.3185(3) 0.3841(4)
H13_2 H 1.0801 -1.3324 0.3994
C14_2 C 1.2644(4) -1.4010(4) 0.3840(3)
H14_2 H 1.2477 -1.4697 0.3977
Ag2 Ag -0.04546(3) 0.09327(3) 0.13280(3)
N5 N 0.1095(4) -0.0190(3) 0.1060(3)
N6 N 0.4017(3) -0.3535(3) 0.1115(3)
N7 N 0.5073(3) -0.4338(3) 0.1095(3)
N8 N 0.7968(4) -0.7840(3) 0.1433(3)
C15 C 0.2286(5) 0.0006(4) 0.0835(4)
H15 H 0.2429 0.0682 0.0761
C16 C 0.3312(5) -0.0719(4) 0.0704(4)
H16 H 0.4135 -0.0536 0.0533
C17 C 0.3140(4) -0.1726(4) 0.0823(3)
C18 C 0.1892(4) -0.1922(4) 0.1040(3)
H17 H 0.1722 -0.2590 0.1114
C19 C 0.0914(4) -0.1152(4) 0.1146(3)
H18 H 0.0071 -0.1300 0.1287
C20 C 0.4236(4) -0.2572(4) 0.0752(3)
C21 C 0.5461(4) -0.2238(4) 0.0299(4)
H19 H 0.5924 -0.2081 0.0780
H20 H 0.5231 -0.1584 -0.0361
H21 H 0.6027 -0.2831 0.0183
C22 C 0.4790(4) -0.5277(4) 0.1378(3)
C23 C 0.3474(4) -0.5516(4) 0.1669(4)
H22 H 0.2897 -0.4890 0.1727
H23 H 0.3572 -0.6161 0.2335
H24 H 0.3092 -0.5651 0.1136
C24 C 0.5887(4) -0.6167(4) 0.1410(3)
C25 C 0.5708(4) -0.7197(4) 0.1595(3)
H25 H 0.4863 -0.7346 0.1721
C26 C 0.6748(4) -0.7989(4) 0.1594(3)
H26 H 0.6596 -0.8677 0.1714
C27 C 0.8164(4) -0.6860(4) 0.1269(4)
H27 H 0.9024 -0.6743 0.1161
C28 C 0.7164(4) -0.6023(4) 0.1253(4)
H28 H 0.7345 -0.5345 0.1135
Ag2_2 Ag -1.04546(3) 1.09327(3) 0.13280(3)
Ag2_3 Ag 0.95454(3) -0.90673(3) 0.13280(3)
N5_2 N -0.8905(4) 0.9810(3) 0.1060(3)
N6_2 N -0.5983(3) 0.6465(3) 0.1115(3)
N7_2 N -0.4927(3) 0.5662(3) 0.1095(3)
N8_2 N -0.2032(4) 0.2160(3) 0.1433(3)
N8_3 N -1.2032(4) 1.2160(3) 0.1433(3)
C15_2 C -0.7714(5) 1.0006(4) 0.0835(4)
H15_2 H -0.7571 1.0682 0.0761
C16_2 C -0.6688(5) 0.9281(4) 0.0704(4)
H16_2 H -0.5865 0.9464 0.0533
C17_2 C -0.6860(4) 0.8274(4) 0.0823(3)
C18_2 C -0.8108(4) 0.8078(4) 0.1040(3)
H17_2 H -0.8278 0.7410 0.1114
C19_2 C -0.9086(4) 0.8848(4) 0.1146(3)
H18_2 H -0.9929 0.8700 0.1287
C20_2 C -0.5764(4) 0.7428(4) 0.0752(3)
C21_2 C -0.4539(4) 0.7762(4) 0.0299(4)
H19_2 H -0.4076 0.7919 0.0780
H20_2 H -0.4769 0.8416 -0.0361
H21_2 H -0.3973 0.7169 0.0183
C22_2 C -0.5210(4) 0.4723(4) 0.1378(3)
C23_2 C -0.6526(4) 0.4484(4) 0.1669(4)
H22_2 H -0.7103 0.5110 0.1727
H23_2 H -0.6428 0.3839 0.2335
H24_2 H -0.6908 0.4349 0.1136
C24_2 C -0.4113(4) 0.3833(4) 0.1410(3)
C25_2 C -0.4292(4) 0.2803(4) 0.1595(3)
H25_2 H -0.5137 0.2654 0.1721
C26_2 C -0.3252(4) 0.2011(4) 0.1594(3)
H26_2 H -0.3404 0.1323 0.1714
C27_2 C -0.1836(4) 0.3140(4) 0.1269(4)
H27_2 H -0.0976 0.3257 0.1161
C28_2 C -0.2836(4) 0.3977(4) 0.1253(4)
H28_2 H -0.2655 0.4655 0.1135
Cl1 Cl 0.25630(13) 0.13622(11) -0.22610(10)
O1 O 0.2093(4) 0.1816(4) -0.1550(3)
O2 O 0.3865(8) 0.1190(9) -0.2267(7)
O3 O 0.1945(10) 0.2166(6) -0.3342(6)
O4 O 0.2047(8) 0.0423(7) -0.1965(7)
Cl2 Cl 0.27087(13) -0.88809(10) 0.27809(10)
O5 O 0.2981(11) -0.8337(8) 0.3287(8)
O6 O 0.2759(11) -0.7950(9) 0.1868(8)
O7 O 0.1649(6) -0.9323(5) 0.2701(5)
O8 O 0.3879(11) -0.9586(9) 0.2606(9)
N9 N 0.0315(5) -0.5931(6) 0.4272(4)
N10 N 0.0125(4) -0.5238(3) 0.0547(3)
C29 C -0.0285(6) -0.4906(6) 0.3710(5)
H29 H -0.0609 -0.4472 0.4063
C30 C -0.0479(5) -0.4410(5) 0.2630(4)
H30 H -0.0893 -0.3659 0.2265
C31 C -0.0045(5) -0.5050(5) 0.2101(4)
C32 C 0.0583(5) -0.6119(5) 0.2674(4)
H31 H 0.0906 -0.6579 0.2345
C33 C 0.0741(6) -0.6524(6) 0.3753(4)
H32 H 0.1179 -0.7266 0.4139
C34 C -0.0257(4) -0.4555(4) 0.0942(4)
C35 C -0.0897(5) -0.3386(4) 0.0382(4)
H33 H -0.0285 -0.2949 0.0382
H34 H -0.1678 -0.3216 0.0726
H35 H -0.1151 -0.3216 -0.0333
N9A N -0.0315(5) -0.4069(6) -0.4272(4)
N10A N -0.0125(4) -0.4762(3) -0.0547(3)
C29A C 0.0285(6) -0.5094(6) -0.3710(5)
H29A H 0.0609 -0.5528 -0.4063
C30A C 0.0479(5) -0.5590(5) -0.2630(4)
H30A H 0.0893 -0.6341 -0.2265
C31A C 0.0045(5) -0.4950(5) -0.2101(4)
C32A C -0.0583(5) -0.3881(5) -0.2674(4)
H31A H -0.0906 -0.3421 -0.2345
C33A C -0.0741(6) -0.3476(6) -0.3753(4)
H32A H -0.1179 -0.2734 -0.4139
C34A C 0.0257(4) -0.5445(4) -0.0942(4)
C35A C 0.0897(5) -0.6614(4) -0.0382(4)
H33A H 0.0285 -0.7051 -0.0382
H34A H 0.1678 -0.6784 -0.0726
H35A H 0.1151 -0.6784 0.0333
O9? O 0.2699(14) 0.2153(9) -0.3188(8)
O10? O 0.3942(11) 0.0610(13) -0.1812(11)
O11? O 0.1788(10) 0.0669(8) -0.2313(9)
O12? O 0.1858(12) -0.9554(10) 0.3248(10)
O13? O 0.2292(9) -0.8459(7) 0.3587(6)
O14? O 0.3926(7) -0.9709(6) 0.3189(6)
O15? O 0.269(2) -0.8135(17) 0.1689(16)
O16? O 0.1655(19) -0.8248(15) 0.1886(14)
loop_
_geom_bond_atom_site_label_1
_geom_bond_atom_site_label_2
_geom_bond_site_symmetry_1
_geom_bond_site_symmetry_2
Ag1 N1 1_555 1_555
N1 C1 1_555 1_555
N2 N3 1_555 1_555
N3 C8 1_555 1_555
N4 C12 1_555 1_555
C1 H1 1_555 1_555
C2 C1 1_555 1_555
H2 C2 1_555 1_555
C3 C2 1_555 1_555
C4 C3 1_555 1_555
H3 C4 1_555 1_555
C5 N1 1_555 1_555
H4 C5 1_555 1_555
C6 N2 1_555 1_555
C7 C6 1_555 1_555
H5 C7 1_555 1_555
H6 C7 1_555 1_555
H7 C7 1_555 1_555
C8 C9 1_555 1_555
C9 H8 1_555 1_555
H9 C9 1_555 1_555
H10 C9 1_555 1_555
C10 C8 1_555 1_555
C11 C10 1_555 1_555
H11 C11 1_555 1_555
C12 C11 1_555 1_555
H12 C12 1_555 1_555
C13 N4 1_555 1_555
H13 C13 1_555 1_555
C14 C10 1_555 1_555
H14 C14 1_555 1_555
Ag2 N5 1_555 1_555
N5 C15 1_555 1_555
N6 N7 1_555 1_555
N7 C22 1_555 1_555
N8 C26 1_555 1_555
C15 H15 1_555 1_555
C16 C15 1_555 1_555
H16 C16 1_555 1_555
C17 C16 1_555 1_555
C18 C17 1_555 1_555
H17 C18 1_555 1_555
C19 N5 1_555 1_555
H18 C19 1_555 1_555
C20 N6 1_555 1_555
C21 C20 1_555 1_555
H19 C21 1_555 1_555
H20 C21 1_555 1_555
H21 C21 1_555 1_555
C22 C23 1_555 1_555
C23 H22 1_555 1_555
H23 C23 1_555 1_555
H24 C23 1_555 1_555
C24 C22 1_555 1_555
C25 C24 1_555 1_555
H25 C25 1_555 1_555
C26 C25 1_555 1_555
H26 C26 1_555 1_555
C27 N8 1_555 1_555
H27 C27 1_555 1_555
C28 C24 1_555 1_555
H28 C28 1_555 1_555
Cl1 O1 1_555 1_555
O2 Cl1 1_555 1_555
O3 Cl1 1_555 1_555
O4 Cl1 1_555 1_555
Cl2 O5 1_555 1_555
O6 Cl2 1_555 1_555
O7 Cl2 1_555 1_555
O8 Cl2 1_555 1_555
N9 C29 1_555 1_555
N10 C34 1_555 1_555
C29 H29 1_555 1_555
C30 C29 1_555 1_555
H30 C30 1_555 1_555
C31 C30 1_555 1_555
C32 C31 1_555 1_555
H31 C32 1_555 1_555
C33 N9 1_555 1_555
H32 C33 1_555 1_555
C34 C31 1_555 1_555
C35 C34 1_555 1_555
H33 C35 1_555 1_555
H34 C35 1_555 1_555
H35 C35 1_555 1_555
Ag1_2 N1_2 1_555 1_555
Ag1_3 N4 1_555 1_555
N1_2 C1_2 1_555 1_555
N2_2 N3_2 1_555 1_555
N3_2 C8_2 1_555 1_555
N4_2 Ag1 1_555 1_555
N4_3 Ag1_2 1_555 1_555
C1_2 H1_2 1_555 1_555
C2_2 C1_2 1_555 1_555
H2_2 C2_2 1_555 1_555
C3_2 C2_2 1_555 1_555
C4_2 C3_2 1_555 1_555
H3_2 C4_2 1_555 1_555
C5_2 N1_2 1_555 1_555
H4_2 C5_2 1_555 1_555
C6_2 N2_2 1_555 1_555
C7_2 C6_2 1_555 1_555
H5_2 C7_2 1_555 1_555
H6_2 C7_2 1_555 1_555
H7_2 C7_2 1_555 1_555
C8_2 C9_2 1_555 1_555
C9_2 H8_2 1_555 1_555
H9_2 C9_2 1_555 1_555
H10_2 C9_2 1_555 1_555
C10_2 C8_2 1_555 1_555
C11_2 C10_2 1_555 1_555
H11_2 C11_2 1_555 1_555
C12_2 N4_2 1_555 1_555
H12_2 C12_2 1_555 1_555
C13_2 N4_2 1_555 1_555
H13_2 C13_2 1_555 1_555
C14_2 C10_2 1_555 1_555
H14_2 C14_2 1_555 1_555
Ag2_2 N5_2 1_555 1_555
Ag2_3 N8 1_555 1_555
N5_2 C15_2 1_555 1_555
N6_2 N7_2 1_555 1_555
N7_2 C22_2 1_555 1_555
N8_2 Ag2 1_555 1_555
N8_3 Ag2_2 1_555 1_555
C15_2 H15_2 1_555 1_555
C16_2 C15_2 1_555 1_555
H16_2 C16_2 1_555 1_555
C17_2 C16_2 1_555 1_555
C18_2 C17_2 1_555 1_555
H17_2 C18_2 1_555 1_555
C19_2 N5_2 1_555 1_555
H18_2 C19_2 1_555 1_555
C20_2 N6_2 1_555 1_555
C21_2 C20_2 1_555 1_555
H19_2 C21_2 1_555 1_555
H20_2 C21_2 1_555 1_555
H21_2 C21_2 1_555 1_555
C22_2 C23_2 1_555 1_555
C23_2 H22_2 1_555 1_555
H23_2 C23_2 1_555 1_555
H24_2 C23_2 1_555 1_555
C24_2 C22_2 1_555 1_555
C25_2 C24_2 1_555 1_555
H25_2 C25_2 1_555 1_555
C26_2 N8_2 1_555 1_555
H26_2 C26_2 1_555 1_555
C27_2 N8_2 1_555 1_555
H27_2 C27_2 1_555 1_555
C28_2 C24_2 1_555 1_555
H28_2 C28_2 1_555 1_555
N9A C29A 1_555 1_555
N10A N10 1_555 1_555
C29A H29A 1_555 1_555
C30A C29A 1_555 1_555
H30A C30A 1_555 1_555
C31A C30A 1_555 1_555
C32A C31A 1_555 1_555
H31A C32A 1_555 1_555
C33A N9A 1_555 1_555
H32A C33A 1_555 1_555
C34A N10A 1_555 1_555
C35A C34A 1_555 1_555
H33A C35A 1_555 1_555
H34A C35A 1_555 1_555
H35A C35A 1_555 1_555
C3 C6 1_555 1_555
C4 C5 1_555 1_555
C13 C14 1_555 1_555
C17 C20 1_555 1_555
C18 C19 1_555 1_555
C27 C28 1_555 1_555
C32 C33 1_555 1_555
C3_2 C6_2 1_555 1_555
C4_2 C5_2 1_555 1_555
C11_2 C12_2 1_555 1_555
C13_2 C14_2 1_555 1_555
C17_2 C20_2 1_555 1_555
C18_2 C19_2 1_555 1_555
C25_2 C26_2 1_555 1_555
C27_2 C28_2 1_555 1_555
C31A C34A 1_555 1_555
C32A C33A 1_555 1_555

#END
