
#######################################################################
#
#                 Cambridge Crystallographic Data Centre
#                                CCDC 
#
#######################################################################
#
# If this CIF has been generated from an entry in the Cambridge 
# Structural Database, then it will include bibliographic, chemical, 
# crystal, experimental, refinement or atomic coordinate data resulting 
# from the CCDC's data processing and validation procedures.
#
#######################################################################

data_SARTOV
_symmetry_cell_setting           monoclinic
_symmetry_space_group_name_H-M   'P 21/n'
_symmetry_Int_Tables_number      14
_space_group_name_Hall           '-P 2yn'
loop_
_symmetry_equiv_pos_site_id
_symmetry_equiv_pos_as_xyz
1 x,y,z
2 1/2-x,1/2+y,1/2-z
3 -x,-y,-z
4 1/2+x,1/2-y,1/2+z
_cell_length_a                   17.180(3)
_cell_length_b                   18.550(4)
_cell_length_c                   25.950(5)
_cell_angle_alpha                90
_cell_angle_beta                 99.34(3)
_cell_angle_gamma                90
_cell_volume                     8160.34
loop_
_atom_site_label
_atom_site_type_symbol
_atom_site_fract_x
_atom_site_fract_y
_atom_site_fract_z
C1 C 0.8412(3) 0.3472(3) 0.1377(2)
C2 C 0.9911(3) 0.2899(3) 0.2634(2)
C3 C 0.9196(3) 0.2681(3) 0.4019(2)
C4 C 0.6955(3) 0.2980(3) 0.4112(2)
C5 C 0.5499(3) 0.3542(3) 0.2863(2)
C6 C 0.6165(3) 0.3790(3) 0.1451(2)
C7 C 0.8890(4) 0.5472(3) 0.1664(2)
C8 C 1.0418(3) 0.4809(3) 0.2965(2)
C9 C 0.9738(3) 0.4605(3) 0.4339(2)
C10 C 0.7454(3) 0.4977(3) 0.4393(2)
C11 C 0.5924(3) 0.5547(3) 0.3148(2)
C12 C 0.6653(3) 0.5753(3) 0.1800(2)
C13 C 0.8432(3) 0.4613(3) 0.1036(2)
H1 H 0.8422 0.4697 0.0662
C14 C 0.9284(3) 0.4424(3) 0.1313(2)
H2 H 0.9659 0.4427 0.1065
C15 C 1.0689(3) 0.3884(3) 0.2465(2)
H3 H 1.1162 0.3853 0.2301
C16 C 1.0878(3) 0.3695(3) 0.3033(2)
H4 H 1.1433 0.3558 0.3129
C17 C 1.0233(3) 0.3454(3) 0.4328(2)
H5 H 1.0730 0.3286 0.4533
C18 C 0.9536(3) 0.3492(3) 0.4668(2)
H6 H 0.9717 0.3368 0.5035
C19 C 0.7404(3) 0.3844(3) 0.4744(2)
H7 H 0.7435 0.3746 0.5118
C20 C 0.6601(3) 0.4026(3) 0.44957(19)
H8 H 0.6236 0.4034 0.4749
C21 C 0.5180(3) 0.4559(3) 0.3330(2)
H9 H 0.4708 0.4593 0.3496
C22 C 0.5003(3) 0.4702(3) 0.2761(2)
H10 H 0.4443 0.4814 0.2649
C23 C 0.5698(3) 0.4943(3) 0.1458(2)
H11 H 0.5193 0.5085 0.1250
C24 C 0.6330(3) 0.4935(3) 0.1130(2)
H12 H 0.6117 0.5075 0.0770
C25 C 0.9835(3) 0.3248(3) 0.1702(2)
H13 H 1.0260 0.3347 0.1508
H14 H 0.9682 0.2749 0.1640
C26 C 1.0384(3) 0.2683(3) 0.3578(2)
H15 H 1.0204 0.2197 0.3486
H16 H 1.0928 0.2651 0.3750
C27 C 0.8304(3) 0.2730(3) 0.4615(2)
H17 H 0.8421 0.2718 0.4993
H18 H 0.8177 0.2244 0.4493
C28 C 0.5640(3) 0.3377(3) 0.3824(2)
H19 H 0.5254 0.3508 0.4042
H20 H 0.5571 0.2870 0.3738
C29 C 0.5109(3) 0.3925(3) 0.1939(2)
H21 H 0.5097 0.3406 0.1891
H22 H 0.4592 0.4108 0.1792
C30 C 0.7176(3) 0.3895(3) 0.0867(2)
H23 H 0.7075 0.3383 0.0820
H24 H 0.7114 0.4114 0.0523
C31 C 1.0244(3) 0.5050(3) 0.1999(2)
H25 H 1.0626 0.4940 0.1773
H26 H 1.0325 0.5548 0.2110
C32 C 1.0872(3) 0.4443(3) 0.3866(2)
H27 H 1.0936 0.4959 0.3918
H28 H 1.1370 0.4216 0.4005
C33 C 0.8726(3) 0.4547(3) 0.4875(2)
H29 H 0.8827 0.5061 0.4909
H30 H 0.8808 0.4345 0.5224
C34 C 0.6064(3) 0.5196(3) 0.4065(2)
H31 H 0.6240 0.5692 0.4113
H32 H 0.5639 0.5129 0.4265
C35 C 0.5475(3) 0.5765(3) 0.2199(2)
H33 H 0.4931 0.5775 0.2025
H34 H 0.5636 0.6258 0.2286
C36 C 0.7563(3) 0.5685(3) 0.1146(2)
H35 H 0.7668 0.6183 0.1248
H36 H 0.7431 0.5673 0.0768
N1 N 0.7973(3) 0.3994(2) 0.11185(18)
N2 N 0.9177(3) 0.3699(2) 0.15048(18)
N3 N 1.0129(3) 0.3346(2) 0.22582(17)
N4 N 1.0362(3) 0.3097(2) 0.30984(17)
N5 N 0.9930(3) 0.2963(2) 0.39331(17)
N6 N 0.8989(3) 0.2977(2) 0.44120(17)
N7 N 0.7622(3) 0.3198(2) 0.44527(17)
N8 N 0.6385(3) 0.3483(2) 0.41000(17)
N9 N 0.5488(3) 0.3805(2) 0.33347(17)
N10 N 0.5238(3) 0.4070(2) 0.24912(17)
N11 N 0.5656(3) 0.4210(2) 0.16515(17)
N12 N 0.6594(3) 0.4196(2) 0.11464(17)
N13 N 0.8270(3) 0.5277(2) 0.12985(18)
N14 N 0.9470(3) 0.4980(2) 0.17059(17)
N15 N 1.0393(3) 0.4603(2) 0.24423(18)
N16 N 1.0696(3) 0.4302(3) 0.33262(18)
N17 N 1.0284(3) 0.4194(2) 0.41539(17)
N18 N 0.9286(3) 0.4247(2) 0.46025(17)
N19 N 0.7903(3) 0.4447(2) 0.46491(17)
N20 N 0.6695(3) 0.4742(2) 0.42778(17)
N21 N 0.5749(3) 0.5093(2) 0.35186(18)
N22 N 0.5526(3) 0.5344(2) 0.26826(17)
N23 N 0.5964(3) 0.5476(2) 0.18432(16)
N24 N 0.6897(3) 0.5446(2) 0.13596(17)
Na1 Na 0.81544(12) 0.20751(11) 0.21931(8)
Na2 Na 0.67093(12) 0.20904(11) 0.29166(8)
O1 O 0.8179(2) 0.2895(2) 0.14884(14)
O2 O 0.9478(2) 0.2389(2) 0.25616(14)
O3 O 0.8872(2) 0.2185(2) 0.37387(14)
O4 O 0.6935(2) 0.2430(2) 0.38411(14)
O5 O 0.5679(2) 0.2938(2) 0.27578(14)
O6 O 0.6253(2) 0.3120(2) 0.15229(14)
O7 O 0.8917(2) 0.6042(2) 0.19190(15)
O8 O 1.0129(2) 0.5397(2) 0.30209(15)
O9 O 0.9704(2) 0.5289(2) 0.42602(14)
O10 O 0.7698(2) 0.5562(2) 0.42830(14)
O11 O 0.6351(2) 0.60913(19) 0.32166(14)
O12 O 0.7042(2) 0.6232(2) 0.20622(14)
O20 O 0.7815(2) 0.2860(2) 0.28688(14)
H44 H 0.8204 0.2869 0.3185
H45 H 0.7673 0.3344 0.2747
O21 O 0.6795(2) 0.1881(2) 0.20301(14)
H46 H 0.6650 0.1394 0.1916
H47 H 0.6510 0.2232 0.1795
Na1A Na 0.68456(12) 0.70751(11) 0.28069(8)
Na2A Na 0.82907(12) 0.70904(11) 0.20834(8)
O7A O 0.6083(2) 0.1042(2) 0.30810(15)
O11A O 0.8649(2) 0.10913(19) 0.17834(14)
O12A O 0.7958(2) 0.1232(2) 0.29378(14)
C37 C 0.3397(3) 0.3029(3) 0.2435(2)
H37 H 0.3483 0.2692 0.2184
C38 C 0.3637(3) 0.2862(3) 0.3014(2)
H38 H 0.3866 0.2425 0.3129
C39 C 0.3496(3) 0.3401(3) 0.3361(2)
H39 H 0.3681 0.3330 0.3715
C40 C 0.3105(3) 0.4022(3) 0.3216(2)
C41 C 0.2944(3) 0.4568(4) 0.3542(2)
C42 C 0.2597(3) 0.5161(3) 0.3349(2)
H40 H 0.2524 0.5531 0.3578
C43 C 0.2336(3) 0.5260(3) 0.2822(2)
H41 H 0.2029 0.5660 0.2710
C44 C 0.2531(3) 0.4758(3) 0.2447(2)
C45 C 0.2894(3) 0.4166(3) 0.2653(2)
C46 C 0.2939(3) 0.4482(3) 0.0554(2)
C47 C 0.3609(3) 0.3973(3) 0.0582(2)
C48 C 0.4156(3) 0.4062(3) 0.0238(2)
H42 H 0.4116 0.4464 0.0021
C49 C 0.4745(3) 0.3573(3) 0.0213(2)
C50 C 0.4836(3) 0.2982(3) 0.0526(2)
H43 H 0.5237 0.2653 0.0501
C51 C 0.4324(3) 0.2867(3) 0.0887(2)
C52 C 0.3723(3) 0.3359(3) 0.0933(2)
Cu1 Cu 0.27206(4) 0.40037(4) 0.15686(3)
I1 I 0.55338(2) 0.37789(2) -0.031649(14)
I2 I 0.44147(2) 0.19215(2) 0.131507(15)
N25 N 0.3065(3) 0.3660(3) 0.22900(17)
O13 O 0.2304(2) 0.4827(2) 0.19125(14)
O14 O 0.2808(2) 0.3909(2) 0.43885(16)
O15 O 0.4066(2) 0.4415(3) 0.43232(15)
O16 O 0.2987(2) 0.5166(2) 0.44083(16)
O17 O 0.2575(2) 0.4570(2) 0.09336(15)
O18 O 0.2790(2) 0.4898(2) 0.01681(15)
O19 O 0.3238(2) 0.3237(2) 0.12629(14)
S1 S 0.32194(10) 0.44915(10) 0.42239(6)
O22 O 0.9041(4) 0.6486(4) 0.0411(3)
H48 H 0.8832 0.6902 0.0399
H49 H 0.8883 0.6262 0.0127
O23 O 0.9184(5) 0.3328(5) 0.0330(3)
H50 H 0.9342 0.3188 0.0053
H51 H 0.9500 0.3177 0.0595
O24 O 0.8317(4) 0.3872(4) 0.8556(3)
H52 H 0.7890 0.4086 0.8590
H53 H 0.8346 0.3852 0.8233
O25 O 0.6942(5) 0.2574(5) 0.5707(3)
H54 H 0.6834 0.2938 0.5509
H55 H 0.7305 0.2329 0.5603
O26 O 0.5669(5) 0.3571(5) 0.6891(3)
H56 H 0.5180 0.3612 0.6775
H57 H 0.5733 0.3298 0.7158
O27 O 0.4727(3) 0.3419(3) 0.51055(17)
H58 H 0.4273 0.3614 0.5045
H59 H 0.5039 0.3644 0.4939
O28 O 0.2163(5) 0.2706(5) 0.4662(3)
H60 H 0.2640 0.2841 0.4743
H61 H 0.2112 0.2285 0.4780
O29 O 0.1885(5) 0.1869(5) 0.3045(3)
H62 H 0.1989 0.2197 0.2838
H63 H 0.2195 0.1514 0.3032
O30 O 0.0306(5) 0.6764(5) 0.1084(4)
H64 H 0.0430 0.6371 0.1245
H65 H 0.0223 0.6686 0.0757
O31 O 0.0860(4) 0.4612(5) 0.0584(3)
H66 H 0.0756 0.5037 0.0675
H67 H 0.0828 0.4596 0.0254
O32 O 0.7775(4) 0.4400(4) 0.2733(3)
H68 H 0.7294 0.4507 0.2627
H69 H 0.8008 0.4752 0.2901
O33 O 0.8614(4) 0.5511(4) 0.3311(2)
H70 H 0.8554 0.5094 0.3174
H71 H 0.8707 0.5473 0.3642
loop_
_geom_bond_atom_site_label_1
_geom_bond_atom_site_label_2
_geom_bond_site_symmetry_1
_geom_bond_site_symmetry_2
C1 N1 1_555 1_555
C2 N3 1_555 1_555
C3 N5 1_555 1_555
C4 N7 1_555 1_555
C5 N9 1_555 1_555
C6 N11 1_555 1_555
C7 N13 1_555 1_555
C8 N15 1_555 1_555
C9 N17 1_555 1_555
C10 N19 1_555 1_555
C11 N21 1_555 1_555
C12 N23 1_555 1_555
C13 H1 1_555 1_555
C14 C13 1_555 1_555
H2 C14 1_555 1_555
C15 H3 1_555 1_555
C16 C15 1_555 1_555
H4 C16 1_555 1_555
C17 H5 1_555 1_555
C18 C17 1_555 1_555
H6 C18 1_555 1_555
C19 H7 1_555 1_555
C20 C19 1_555 1_555
H8 C20 1_555 1_555
C21 H9 1_555 1_555
C22 C21 1_555 1_555
H10 C22 1_555 1_555
C23 H11 1_555 1_555
C24 C23 1_555 1_555
H12 C24 1_555 1_555
C25 H13 1_555 1_555
H14 C25 1_555 1_555
C26 H15 1_555 1_555
H16 C26 1_555 1_555
C27 H17 1_555 1_555
H18 C27 1_555 1_555
C28 H19 1_555 1_555
H20 C28 1_555 1_555
C29 H21 1_555 1_555
H22 C29 1_555 1_555
C30 H23 1_555 1_555
H24 C30 1_555 1_555
C31 H25 1_555 1_555
H26 C31 1_555 1_555
C32 H27 1_555 1_555
H28 C32 1_555 1_555
C33 H29 1_555 1_555
H30 C33 1_555 1_555
C34 H31 1_555 1_555
H32 C34 1_555 1_555
C35 H33 1_555 1_555
H34 C35 1_555 1_555
C36 H35 1_555 1_555
H36 C36 1_555 1_555
C37 H37 1_555 1_555
C38 C37 1_555 1_555
H38 C38 1_555 1_555
C39 C38 1_555 1_555
H39 C39 1_555 1_555
C40 C39 1_555 1_555
C41 C40 1_555 1_555
C42 C41 1_555 1_555
H40 C42 1_555 1_555
C43 C42 1_555 1_555
H41 C43 1_555 1_555
C44 C43 1_555 1_555
C45 C40 1_555 1_555
C46 C47 1_555 1_555
C47 C48 1_555 1_555
C48 H42 1_555 1_555
C49 C48 1_555 1_555
C50 C49 1_555 1_555
H43 C50 1_555 1_555
C51 C50 1_555 1_555
C52 C47 1_555 1_555
Cu1 N25 1_555 1_555
I1 C49 1_555 1_555
I2 C51 1_555 1_555
N1 C13 1_555 1_555
N2 C1 1_555 1_555
N3 C15 1_555 1_555
N4 C2 1_555 1_555
N5 C17 1_555 1_555
N6 C3 1_555 1_555
N7 C19 1_555 1_555
N8 C4 1_555 1_555
N9 C21 1_555 1_555
N10 C5 1_555 1_555
N11 C23 1_555 1_555
N12 C6 1_555 1_555
N13 C13 1_555 1_555
N14 C7 1_555 1_555
N15 C15 1_555 1_555
N16 C8 1_555 1_555
N17 C17 1_555 1_555
N18 C9 1_555 1_555
N19 C19 1_555 1_555
N20 C10 1_555 1_555
N21 C21 1_555 1_555
N22 C11 1_555 1_555
N23 C23 1_555 1_555
N24 C12 1_555 1_555
N25 C37 1_555 1_555
Na1 O1 1_555 1_555
Na2 O4 1_555 1_555
O1 C1 1_555 1_555
O2 C2 1_555 1_555
O3 C3 1_555 1_555
O4 C4 1_555 1_555
O5 C5 1_555 1_555
O6 C6 1_555 1_555
O7 C7 1_555 1_555
O8 C8 1_555 1_555
O9 C9 1_555 1_555
O10 C10 1_555 1_555
O11 C11 1_555 1_555
O12 C12 1_555 1_555
O13 C44 1_555 1_555
O14 S1 1_555 1_555
O15 S1 1_555 1_555
O16 S1 1_555 1_555
O17 C46 1_555 1_555
O18 C46 1_555 1_555
O19 C52 1_555 1_555
O20 Na1 1_555 1_555
H44 O20 1_555 1_555
H45 O20 1_555 1_555
O21 Na1 1_555 1_555
H46 O21 1_555 1_555
H47 O21 1_555 1_555
O22 H48 1_555 1_555
H49 O22 1_555 1_555
O23 H50 1_555 1_555
H51 O23 1_555 1_555
O24 H52 1_555 1_555
H53 O24 1_555 1_555
O25 H54 1_555 1_555
H55 O25 1_555 1_555
O26 H56 1_555 1_555
H57 O26 1_555 1_555
O27 H58 1_555 1_555
H59 O27 1_555 1_555
O28 H60 1_555 1_555
H61 O28 1_555 1_555
O29 H62 1_555 1_555
H63 O29 1_555 1_555
O30 H64 1_555 1_555
H65 O30 1_555 1_555
O31 H66 1_555 1_555
H67 O31 1_555 1_555
O32 H68 1_555 1_555
H69 O32 1_555 1_555
O33 H70 1_555 1_555
H71 O33 1_555 1_555
S1 C41 1_555 1_555
Na1A O11 1_555 1_555
Na2A O7 1_555 1_555
O7A Na2 1_555 1_555
O11A Na1 1_555 1_555
O12A Na1 1_555 1_555
C14 N2 1_555 1_555
C14 N14 1_555 1_555
C16 N4 1_555 1_555
C16 N16 1_555 1_555
C18 N6 1_555 1_555
C18 N18 1_555 1_555
C20 N8 1_555 1_555
C20 N20 1_555 1_555
C22 N10 1_555 1_555
C22 N22 1_555 1_555
C24 N12 1_555 1_555
C24 N24 1_555 1_555
C25 N2 1_555 1_555
C25 N3 1_555 1_555
C26 N4 1_555 1_555
C26 N5 1_555 1_555
C27 N6 1_555 1_555
C27 N7 1_555 1_555
C28 N8 1_555 1_555
C28 N9 1_555 1_555
C29 N10 1_555 1_555
C29 N11 1_555 1_555
C30 N1 1_555 1_555
C30 N12 1_555 1_555
C31 N14 1_555 1_555
C31 N15 1_555 1_555
C32 N16 1_555 1_555
C32 N17 1_555 1_555
C33 N18 1_555 1_555
C33 N19 1_555 1_555
C34 N20 1_555 1_555
C34 N21 1_555 1_555
C35 N22 1_555 1_555
C35 N23 1_555 1_555
C36 N13 1_555 1_555
C36 N24 1_555 1_555
C44 C45 1_555 1_555
C45 N25 1_555 1_555
C51 C52 1_555 1_555
Cu1 O13 1_555 1_555
Cu1 O17 1_555 1_555
Cu1 O19 1_555 1_555
Na1 O2 1_555 1_555
Na2 O5 1_555 1_555
Na2 O20 1_555 1_555
Na2 O21 1_555 1_555
Na2 O12A 1_555 1_555
O12 Na1A 1_555 1_555
O12 Na2A 1_555 1_555

#END
