
#######################################################################
#
#                 Cambridge Crystallographic Data Centre
#                                CCDC 
#
#######################################################################
#
# If this CIF has been generated from an entry in the Cambridge 
# Structural Database, then it will include bibliographic, chemical, 
# crystal, experimental, refinement or atomic coordinate data resulting 
# from the CCDC's data processing and validation procedures.
#
#######################################################################

data_SARTEK04
_symmetry_cell_setting           monoclinic
_symmetry_space_group_name_H-M   'C 2/m'
_symmetry_Int_Tables_number      12
_space_group_name_Hall           '-C 2y'
loop_
_symmetry_equiv_pos_site_id
_symmetry_equiv_pos_as_xyz
1 x,y,z
2 -x,y,-z
3 1/2+x,1/2+y,z
4 1/2-x,1/2+y,-z
5 -x,-y,-z
6 x,-y,z
7 1/2-x,1/2-y,-z
8 1/2+x,1/2-y,z
_cell_length_a                   11.9927(3)
_cell_length_b                   6.85570(10)
_cell_length_c                   3.70700(10)
_cell_angle_alpha                90
_cell_angle_beta                 95.9350(10)
_cell_angle_gamma                90
_cell_volume                     303.15
loop_
_atom_site_label
_atom_site_type_symbol
_atom_site_fract_x
_atom_site_fract_y
_atom_site_fract_z
Cu1 Cu 0.5000 0.0000 0.0000
Cl1 Cl 0.64858(3) 0.0000 0.43966(10)
N1 N 0.5000 0.29721(19) 0.0000
C1 C 0.40862(10) 0.39876(16) 0.0633(3)
H1 H 0.3439 0.3323 0.1081
C1A C 0.59138(10) 0.39876(16) -0.0633(3)
H1A H 0.6561 0.3323 -0.1081
N1D N 0.5000 0.70279(19) 0.0000
C1D C 0.59138(10) 0.60124(16) -0.0633(3)
H1D H 0.6561 0.6677 -0.1081
C1E C 0.40862(10) 0.60124(16) 0.0633(3)
H1E H 0.3439 0.6677 0.1081
Cl1A Cl 0.35142(3) 0.0000 -0.43966(10)
Cu1_2 Cu 0.5000 0.0000 -1.0000
Cu1_3 Cu 0.5000 0.0000 1.0000
Cu1_4 Cu 0.5000 1.0000 0.0000
Cl1_2 Cl 0.64858(3) 0.0000 -0.56034(10)
Cl1A_2 Cl 0.35142(3) 0.0000 0.56034(10)
N1D_2 N 0.5000 -0.29721(19) 0.0000
loop_
_geom_bond_atom_site_label_1
_geom_bond_atom_site_label_2
_geom_bond_site_symmetry_1
_geom_bond_site_symmetry_2
Cu1 Cl1 1_555 1_555
Cl1 Cu1_3 1_555 1_555
N1 Cu1 1_555 1_555
C1 N1 1_555 1_555
H1 C1 1_555 1_555
C1A N1 1_555 1_555
H1A C1A 1_555 1_555
N1D C1D 1_555 1_555
C1D C1A 1_555 1_555
H1D C1D 1_555 1_555
C1E C1 1_555 1_555
H1E C1E 1_555 1_555
Cl1A Cu1 1_555 1_555
Cu1_2 Cl1A 1_555 1_555
Cu1_3 Cl1A_2 1_555 1_555
Cu1_4 N1D 1_555 1_555
Cl1_2 Cu1 1_555 1_555
Cl1A_2 Cu1 1_555 1_555
N1D_2 Cu1 1_555 1_555
N1D C1E 1_555 1_555
Cu1_2 Cl1_2 1_555 1_555

#END
