
#######################################################################
#
#                 Cambridge Crystallographic Data Centre
#                                CCDC 
#
#######################################################################
#
# If this CIF has been generated from an entry in the Cambridge 
# Structural Database, then it will include bibliographic, chemical, 
# crystal, experimental, refinement or atomic coordinate data resulting 
# from the CCDC's data processing and validation procedures.
#
#######################################################################

data_SARTEL
_symmetry_cell_setting           orthorhombic
_symmetry_space_group_name_H-M   'P 21 21 21'
_symmetry_Int_Tables_number      19
_space_group_name_Hall           'P 2ac 2ab'
loop_
_symmetry_equiv_pos_site_id
_symmetry_equiv_pos_as_xyz
1 x,y,z
2 1/2-x,-y,1/2+z
3 -x,1/2+y,1/2-z
4 1/2+x,1/2-y,-z
_cell_length_a                   25.270(5)
_cell_length_b                   16.410(3)
_cell_length_c                   18.570(4)
_cell_angle_alpha                90
_cell_angle_beta                 90
_cell_angle_gamma                90
_cell_volume                     7700.62
loop_
_atom_site_label
_atom_site_type_symbol
_atom_site_fract_x
_atom_site_fract_y
_atom_site_fract_z
C1 C 0.11558(18) 0.6611(3) 0.9018(2)
C2 C 0.11770(18) 0.4240(3) 0.8442(3)
C3 C 0.26428(15) 0.3147(2) 0.8127(2)
C4 C 0.39108(16) 0.4383(2) 0.8417(2)
C5 C 0.38350(17) 0.6634(3) 0.9038(2)
C6 C 0.24336(19) 0.7849(3) 0.9332(3)
C7 C 0.12105(18) 0.7145(3) 0.7082(3)
C8 C 0.11889(18) 0.4825(3) 0.6398(2)
C9 C 0.26197(18) 0.3744(2) 0.6172(2)
C10 C 0.39514(17) 0.4993(3) 0.6422(2)
C11 C 0.37777(18) 0.7332(3) 0.7113(3)
C12 C 0.24810(17) 0.8556(3) 0.7342(2)
C13 C 0.08968(17) 0.7632(3) 0.8146(2)
H1 H 0.0654 0.8089 0.8224
C14 C 0.06453(19) 0.6823(3) 0.7981(2)
H2 H 0.0258 0.6859 0.7996
C15 C 0.06917(18) 0.4550(3) 0.7403(2)
H3 H 0.0309 0.4461 0.7375
C16 C 0.10251(16) 0.3807(3) 0.7279(2)
H4 H 0.0816 0.3310 0.7214
C17 C 0.23250(16) 0.2789(3) 0.6993(2)
H5 H 0.2192 0.2255 0.6840
C18 C 0.29196(17) 0.2805(3) 0.7024(2)
H6 H 0.3060 0.2270 0.6890
C19 C 0.41756(17) 0.3954(3) 0.7229(2)
H7 H 0.4453 0.3552 0.7129
C20 C 0.43733(18) 0.4774(3) 0.7468(2)
H8 H 0.4759 0.4719 0.7461
C21 C 0.42904(17) 0.6992(3) 0.8037(2)
H9 H 0.4668 0.7129 0.8036
C22 C 0.40008(18) 0.7751(3) 0.8260(3)
H10 H 0.4252 0.8194 0.8355
C23 C 0.28184(18) 0.8766(3) 0.8508(3)
H11 H 0.2953 0.9288 0.8687
C24 C 0.22224(17) 0.8718(3) 0.8535(2)
H12 H 0.2086 0.9247 0.8695
C25 C 0.06491(17) 0.5419(3) 0.8586(3)
H13 H 0.0271 0.5426 0.8498
H14 H 0.0703 0.5247 0.9080
C26 C 0.16802(17) 0.3020(3) 0.8051(3)
H15 H 0.1477 0.2554 0.7889
H16 H 0.1716 0.2970 0.8570
C27 C 0.36208(16) 0.3041(2) 0.8043(2)
H17 H 0.3829 0.2603 0.7838
H18 H 0.3605 0.2958 0.8560
C28 C 0.45017(16) 0.5596(2) 0.8655(2)
H19 H 0.4867 0.5665 0.8508
H20 H 0.4497 0.5423 0.9154
C29 C 0.34299(18) 0.8020(3) 0.9301(3)
H21 H 0.3597 0.8553 0.9296
H22 H 0.3404 0.7850 0.9800
C30 C 0.14854(17) 0.7887(3) 0.9287(2)
H23 H 0.1283 0.8379 0.9379
H24 H 0.1530 0.7597 0.9738
C31 C 0.06505(18) 0.5956(3) 0.6779(3)
H25 H 0.0270 0.5899 0.6822
H26 H 0.0729 0.6116 0.6288
C32 C 0.16329(17) 0.3465(3) 0.6242(3)
H27 H 0.1637 0.3595 0.5733
H28 H 0.1482 0.2924 0.6289
C33 C 0.35992(17) 0.3555(3) 0.6214(2)
H29 H 0.3804 0.3058 0.6261
H30 H 0.3585 0.3694 0.5707
C34 C 0.43769(19) 0.6225(3) 0.6748(3)
H31 H 0.4231 0.6356 0.6279
H32 H 0.4757 0.6304 0.6726
C35 C 0.34843(18) 0.8745(3) 0.7543(3)
H33 H 0.3516 0.8935 0.7050
H34 H 0.3665 0.9123 0.7860
C36 C 0.15088(17) 0.8531(3) 0.7436(2)
H35 H 0.1288 0.8947 0.7655
H36 H 0.1521 0.8631 0.6921
N1 N 0.12100(14) 0.7377(2) 0.8768(2)
N2 N 0.08462(15) 0.6229(2) 0.8510(2)
N3 N 0.08891(16) 0.4815(2) 0.8111(2)
N4 N 0.13678(15) 0.3740(2) 0.7911(2)
N5 N 0.22043(14) 0.2950(2) 0.77438(19)
N6 N 0.30896(14) 0.3013(2) 0.7748(2)
N7 N 0.38795(14) 0.3817(2) 0.7894(2)
N8 N 0.42510(14) 0.4989(2) 0.82112(19)
N9 N 0.42190(14) 0.6362(2) 0.8580(2)
N10 N 0.37766(15) 0.7453(2) 0.8929(2)
N11 N 0.28961(16) 0.8108(2) 0.9018(2)
N12 N 0.19963(15) 0.8092(2) 0.8983(2)
N13 N 0.12891(15) 0.7738(2) 0.7574(2)
N14 N 0.08301(15) 0.6597(2) 0.7270(2)
N15 N 0.08976(15) 0.5176(2) 0.6925(2)
N16 N 0.12778(14) 0.4028(2) 0.6589(2)
N17 N 0.21806(14) 0.3425(2) 0.6487(2)
N18 N 0.30623(14) 0.3406(2) 0.64738(19)
N19 N 0.38684(14) 0.4206(2) 0.6601(2)
N20 N 0.42620(13) 0.5386(2) 0.69219(19)
N21 N 0.41518(16) 0.6766(3) 0.7287(2)
N22 N 0.36896(15) 0.7929(2) 0.7621(2)
N23 N 0.29309(15) 0.8645(2) 0.7748(2)
N24 N 0.20351(14) 0.8571(2) 0.7732(2)
Na1 Na 0.18517(6) 0.50514(9) 0.98774(9)
Na2 Na 0.31395(7) 0.50813(11) 0.98684(10)
O1 O 0.13289(11) 0.61853(18) 0.95205(17)
O2 O 0.13708(12) 0.42931(19) 0.90685(17)
O3 O 0.25876(11) 0.31207(18) 0.87968(16)
O4 O 0.36910(11) 0.43362(17) 0.90180(15)
O5 O 0.36710(11) 0.62692(18) 0.95826(17)
O6 O 0.24716(13) 0.72460(18) 0.97350(16)
O7 O 0.13934(14) 0.7082(2) 0.6461(2)
O8 O 0.14056(11) 0.51290(17) 0.58574(16)
O9 O 0.26109(11) 0.42784(18) 0.56983(17)
O10 O 0.37053(12) 0.52220(19) 0.58871(17)
O11 O 0.36003(13) 0.73462(19) 0.64897(18)
O12 O 0.25266(11) 0.84058(16) 0.66803(14)
O19 O 0.24825(12) 0.56551(16) 0.90580(17)
H46 H 0.2478 0.6173 0.9053
H47 H 0.2485 0.5460 0.8634
O20 O 0.24990(12) 0.39816(19) 1.00057(16)
H48 H 0.2500 0.3586 0.9618
H49 H 0.2502 0.3720 1.0474
Na1A Na 0.31483(6) 0.49486(9) 0.48774(9)
Na2A Na 0.18605(7) 0.49187(11) 0.48684(10)
O8A O 0.35944(11) 0.48710(17) 1.08574(16)
O9A O 0.23891(11) 0.57216(18) 1.06983(17)
O10A O 0.12947(12) 0.47780(19) 1.08871(17)
C37 C 0.78994(17) 0.5403(3) 0.9124(2)
H37 H 0.8186 0.5347 0.9435
C38 C 0.73955(18) 0.5388(3) 0.9380(2)
H38 H 0.7347 0.5301 0.9871
C39 C 0.69469(19) 0.5493(3) 0.8954(2)
H39 H 0.6609 0.5437 0.9147
C40 C 0.70173(18) 0.5676(3) 0.8264(2)
C41 C 0.66199(17) 0.5813(3) 0.7757(2)
C42 C 0.67207(17) 0.5997(3) 0.7021(2)
H40 H 0.6439 0.6148 0.6728
C43 C 0.72614(18) 0.5958(3) 0.6701(2)
H41 H 0.7321 0.6015 0.6210
C44 C 0.76801(18) 0.5826(3) 0.7203(2)
C45 C 0.75399(18) 0.5619(3) 0.7943(2)
C46 C 0.92288(16) 0.6432(3) 0.8711(2)
C47 C 0.95322(17) 0.6779(3) 0.9335(2)
C48 C 0.96444(16) 0.7624(3) 0.9192(2)
H42 H 0.9510 0.7908 0.8800
C49 C 0.99781(17) 0.7983(3) 0.9714(2)
C50 C 1.01981(19) 0.7506(3) 1.0326(3)
H43 H 1.0420 0.7752 1.0661
C51 C 1.00675(16) 0.6690(3) 1.0387(3)
H44 H 1.0191 0.6390 1.0777
C52 C 0.97306(16) 0.6290(3) 0.9834(2)
H45 H 0.9663 0.5733 0.9839
Cl1 Cl 0.93264(4) 0.52493(6) 0.71346(5)
Cu1 Cu 0.86507(2) 0.55926(3) 0.78521(3)
I1 I 1.020250(10) 0.919253(15) 0.960369(14)
N25 N 0.79725(16) 0.5496(2) 0.8442(2)
O13 O 0.81913(12) 0.57519(19) 0.70201(15)
O14 O 0.57920(12) 0.51828(19) 0.83697(17)
O15 O 0.59384(12) 0.65740(19) 0.84439(16)
O16 O 0.56742(13) 0.6070(2) 0.73096(16)
O17 O 0.91057(11) 0.56411(17) 0.87428(16)
O18 O 0.89802(11) 0.68678(17) 0.82849(16)
S1 S 0.59503(4) 0.59159(7) 0.80004(6)
O21 O 0.24222(18) 0.5475(3) 0.7579(3)
H50 H 0.2675 0.5723 0.7371
H51 H 0.2129 0.5672 0.7438
O22 O 0.05305(18) 0.1981(3) 0.8836(2)
H52 H 0.0403 0.1736 0.8471
H53 H 0.0705 0.1645 0.9091
O23 O 0.7259(2) 0.3373(4) 0.9848(4)
H54 H 0.7403 0.3401 0.9435
H55 H 0.7317 0.3811 1.0078
O24 O 0.8908(3) 0.1911(4) -0.0027(4)
H56 H 0.8613 0.2157 -0.0058
H57 H 0.8904 0.1596 0.0336
O25 O 0.9368(3) 0.4024(6) 0.9045(4)
H58 H 0.9267 0.3584 0.9244
H59 H 0.9701 0.4006 0.8976
O26 O 0.6327(3) 0.2167(4) 1.0022(3)
H60 H 0.6395 0.2567 0.9746
H61 H 0.6455 0.1734 0.9841
O27 O 0.9886(3) 0.2285(4) 0.0489(3)
H62 H 0.9550 0.2279 0.0451
H63 H 1.0024 0.2200 0.0079
O28 O 0.0110(3) 0.4032(3) 0.0251(5)
H64 H -0.0020 0.4087 0.0671
H65 H 0.0209 0.3542 0.0192
O29 O 0.9242(2) 0.6099(4) 0.4661(4)
H66 H 0.9449 0.6362 0.4937
H67 H 0.9342 0.5605 0.4637
O30 O 0.48742(17) 0.8486(3) 0.6789(3)
H68 H 0.5174 0.8322 0.6642
H69 H 0.4777 0.8896 0.6542
O31 O 0.8620(2) 0.4950(3) 0.0484(3)
H70 H 0.8947 0.4978 0.0380
H71 H 0.8494 0.4503 0.0329
loop_
_geom_bond_atom_site_label_1
_geom_bond_atom_site_label_2
_geom_bond_site_symmetry_1
_geom_bond_site_symmetry_2
C1 N1 1_555 1_555
C2 N3 1_555 1_555
C3 N5 1_555 1_555
C4 N7 1_555 1_555
C5 N9 1_555 1_555
C6 N11 1_555 1_555
C7 N13 1_555 1_555
C8 N15 1_555 1_555
C9 N17 1_555 1_555
C10 N19 1_555 1_555
C11 N21 1_555 1_555
C12 N23 1_555 1_555
C13 H1 1_555 1_555
C14 C13 1_555 1_555
H2 C14 1_555 1_555
C15 H3 1_555 1_555
C16 C15 1_555 1_555
H4 C16 1_555 1_555
C17 H5 1_555 1_555
C18 C17 1_555 1_555
H6 C18 1_555 1_555
C19 H7 1_555 1_555
C20 C19 1_555 1_555
H8 C20 1_555 1_555
C21 H9 1_555 1_555
C22 C21 1_555 1_555
H10 C22 1_555 1_555
C23 H11 1_555 1_555
C24 C23 1_555 1_555
H12 C24 1_555 1_555
C25 H13 1_555 1_555
H14 C25 1_555 1_555
C26 H15 1_555 1_555
H16 C26 1_555 1_555
C27 H17 1_555 1_555
H18 C27 1_555 1_555
C28 H19 1_555 1_555
H20 C28 1_555 1_555
C29 H21 1_555 1_555
H22 C29 1_555 1_555
C30 H23 1_555 1_555
H24 C30 1_555 1_555
C31 H25 1_555 1_555
H26 C31 1_555 1_555
C32 H27 1_555 1_555
H28 C32 1_555 1_555
C33 H29 1_555 1_555
H30 C33 1_555 1_555
C34 H31 1_555 1_555
H32 C34 1_555 1_555
C35 H33 1_555 1_555
H34 C35 1_555 1_555
C36 H35 1_555 1_555
H36 C36 1_555 1_555
C37 H37 1_555 1_555
C38 C37 1_555 1_555
H38 C38 1_555 1_555
C39 C38 1_555 1_555
H39 C39 1_555 1_555
C40 C39 1_555 1_555
C41 C40 1_555 1_555
C42 C41 1_555 1_555
H40 C42 1_555 1_555
C43 C42 1_555 1_555
H41 C43 1_555 1_555
C44 C43 1_555 1_555
C45 C40 1_555 1_555
C46 C47 1_555 1_555
C47 C48 1_555 1_555
C48 H42 1_555 1_555
C49 C48 1_555 1_555
C50 C49 1_555 1_555
H43 C50 1_555 1_555
C51 C50 1_555 1_555
H44 C51 1_555 1_555
C52 C47 1_555 1_555
H45 C52 1_555 1_555
Cl1 Cu1 1_555 1_555
Cu1 N25 1_555 1_555
I1 C49 1_555 1_555
N1 C13 1_555 1_555
N2 C1 1_555 1_555
N3 C15 1_555 1_555
N4 C2 1_555 1_555
N5 C17 1_555 1_555
N6 C3 1_555 1_555
N7 C19 1_555 1_555
N8 C4 1_555 1_555
N9 C21 1_555 1_555
N10 C5 1_555 1_555
N11 C23 1_555 1_555
N12 C6 1_555 1_555
N13 C13 1_555 1_555
N14 C7 1_555 1_555
N15 C15 1_555 1_555
N16 C8 1_555 1_555
N17 C17 1_555 1_555
N18 C9 1_555 1_555
N19 C19 1_555 1_555
N20 C10 1_555 1_555
N21 C21 1_555 1_555
N22 C11 1_555 1_555
N23 C23 1_555 1_555
N24 C12 1_555 1_555
N25 C37 1_555 1_555
Na1 O1 1_555 1_555
Na2 O4 1_555 1_555
O1 C1 1_555 1_555
O2 C2 1_555 1_555
O3 C3 1_555 1_555
O4 C4 1_555 1_555
O5 C5 1_555 1_555
O6 C6 1_555 1_555
O7 C7 1_555 1_555
O8 C8 1_555 1_555
O9 C9 1_555 1_555
O10 C10 1_555 1_555
O11 C11 1_555 1_555
O12 C12 1_555 1_555
O13 C44 1_555 1_555
O14 S1 1_555 1_555
O15 S1 1_555 1_555
O16 S1 1_555 1_555
O17 C46 1_555 1_555
O18 C46 1_555 1_555
O19 Na1 1_555 1_555
H46 O19 1_555 1_555
H47 O19 1_555 1_555
O20 Na1 1_555 1_555
H48 O20 1_555 1_555
H49 O20 1_555 1_555
O21 H50 1_555 1_555
H51 O21 1_555 1_555
O22 H52 1_555 1_555
H53 O22 1_555 1_555
O23 H54 1_555 1_555
H55 O23 1_555 1_555
O24 H56 1_555 1_555
H57 O24 1_555 1_555
O25 H58 1_555 1_555
H59 O25 1_555 1_555
O26 H60 1_555 1_555
H61 O26 1_555 1_555
O27 H62 1_555 1_555
H63 O27 1_555 1_555
O28 H64 1_555 1_555
H65 O28 1_555 1_555
O29 H66 1_555 1_555
H67 O29 1_555 1_555
O30 H68 1_555 1_555
H69 O30 1_555 1_555
O31 H70 1_555 1_555
H71 O31 1_555 1_555
S1 C41 1_555 1_555
Na1A O9 1_555 1_555
Na2A O8 1_555 1_555
O8A Na2 1_555 1_555
O9A Na1 1_555 1_555
O10A Na1 1_555 1_555
C14 N2 1_555 1_555
C14 N14 1_555 1_555
C16 N4 1_555 1_555
C16 N16 1_555 1_555
C18 N6 1_555 1_555
C18 N18 1_555 1_555
C20 N8 1_555 1_555
C20 N20 1_555 1_555
C22 N10 1_555 1_555
C22 N22 1_555 1_555
C24 N12 1_555 1_555
C24 N24 1_555 1_555
C25 N2 1_555 1_555
C25 N3 1_555 1_555
C26 N4 1_555 1_555
C26 N5 1_555 1_555
C27 N6 1_555 1_555
C27 N7 1_555 1_555
C28 N8 1_555 1_555
C28 N9 1_555 1_555
C29 N10 1_555 1_555
C29 N11 1_555 1_555
C30 N1 1_555 1_555
C30 N12 1_555 1_555
C31 N14 1_555 1_555
C31 N15 1_555 1_555
C32 N16 1_555 1_555
C32 N17 1_555 1_555
C33 N18 1_555 1_555
C33 N19 1_555 1_555
C34 N20 1_555 1_555
C34 N21 1_555 1_555
C35 N22 1_555 1_555
C35 N23 1_555 1_555
C36 N13 1_555 1_555
C36 N24 1_555 1_555
C44 C45 1_555 1_555
C45 N25 1_555 1_555
C51 C52 1_555 1_555
Cu1 O13 1_555 1_555
Cu1 O17 1_555 1_555
Cu1 O18 1_555 1_555
Na1 O2 1_555 1_555
Na2 O5 1_555 1_555
Na2 O19 1_555 1_555
Na2 O20 1_555 1_555
Na2 O9A 1_555 1_555
O9 Na2A 1_555 1_555
O10 Na1A 1_555 1_555

#END
