
#######################################################################
#
#                 Cambridge Crystallographic Data Centre
#                                CCDC 
#
#######################################################################
#
# If this CIF has been generated from an entry in the Cambridge 
# Structural Database, then it will include bibliographic, chemical, 
# crystal, experimental, refinement or atomic coordinate data resulting 
# from the CCDC's data processing and validation procedures.
#
#######################################################################

data_SARTEK01
_symmetry_cell_setting           monoclinic
_symmetry_space_group_name_H-M   'C 2/m'
_symmetry_Int_Tables_number      12
_space_group_name_Hall           '-C 2y'
loop_
_symmetry_equiv_pos_site_id
_symmetry_equiv_pos_as_xyz
1 x,y,z
2 -x,y,-z
3 1/2+x,1/2+y,z
4 1/2-x,1/2+y,-z
5 -x,-y,-z
6 x,-y,z
7 1/2-x,1/2-y,-z
8 1/2+x,1/2-y,z
_cell_length_a                   12.187(27)
_cell_length_b                   6.995(16)
_cell_length_c                   3.775(6)
_cell_angle_alpha                90
_cell_angle_beta                 96.047(48)
_cell_angle_gamma                90
_cell_volume                     320.021
loop_
_atom_site_label
_atom_site_type_symbol
_atom_site_fract_x
_atom_site_fract_y
_atom_site_fract_z
N1 N 0.50000 0.20303 0.00000
C1 C 0.58992 0.10224 -0.06217
H1 H 0.65370 0.16707 -0.10627
Cu1 Cu 0.50000 0.50000 0.00000
Cl1 Cl 0.64882 0.50000 0.44072
C1E C 0.58992 -0.10224 -0.06217
N1D N 0.50000 -0.20303 0.00000
C1D C 0.41008 -0.10224 0.06217
C1A C 0.41008 0.10224 0.06217
N1D_2 N 0.50000 0.79697 0.00000
Cl1_2 Cl 0.64882 0.50000 -0.55928
Cu1_2 Cu 0.50000 0.50000 -1.00000
Cl1A Cl 0.35118 0.50000 -0.44072
Cl1A_2 Cl 0.35118 0.50000 0.55928
H1A H 0.34630 0.16707 0.10627
H1D H 0.34630 -0.16707 0.10627
Cu1_3 Cu 0.50000 -0.50000 0.00000
H1E H 0.65370 -0.16707 -0.10627
Cu1_4 Cu 0.50000 0.50000 1.00000
loop_
_geom_bond_atom_site_label_1
_geom_bond_atom_site_label_2
_geom_bond_site_symmetry_1
_geom_bond_site_symmetry_2
N1 C1 1_555 1_555
C1 H1 1_555 1_555
Cu1 N1 1_555 1_555
Cl1 Cu1 1_555 1_555
C1E C1 1_555 1_555
N1D C1E 1_555 1_555
C1D N1D 1_555 1_555
C1A N1 1_555 1_555
N1D_2 Cu1 1_555 1_555
Cl1_2 Cu1 1_555 1_555
Cu1_2 Cl1_2 1_555 1_555
Cl1A Cu1 1_555 1_555
Cl1A_2 Cu1 1_555 1_555
H1A C1A 1_555 1_555
H1D C1D 1_555 1_555
Cu1_3 N1D 1_555 1_555
H1E C1E 1_555 1_555
Cu1_4 Cl1 1_555 1_555
C1D C1A 1_555 1_555
Cu1_2 Cl1A 1_555 1_555
Cl1A_2 Cu1_4 1_555 1_555

#END
