
#######################################################################
#
#                 Cambridge Crystallographic Data Centre
#                                CCDC 
#
#######################################################################
#
# If this CIF has been generated from an entry in the Cambridge 
# Structural Database, then it will include bibliographic, chemical, 
# crystal, experimental, refinement or atomic coordinate data resulting 
# from the CCDC's data processing and validation procedures.
#
#######################################################################

data_SARTIP
_symmetry_cell_setting           monoclinic
_symmetry_space_group_name_H-M   'C 2/m'
_symmetry_Int_Tables_number      12
_space_group_name_Hall           '-C 2y'
loop_
_symmetry_equiv_pos_site_id
_symmetry_equiv_pos_as_xyz
1 x,y,z
2 1/2+x,1/2+y,z
3 -x,y,-z
4 1/2-x,1/2+y,-z
5 -x,-y,-z
6 1/2-x,1/2-y,-z
7 x,-y,z
8 1/2+x,1/2-y,z
_cell_length_a                   23.363(8)
_cell_length_b                   10.680(2)
_cell_length_c                   14.530(3)
_cell_angle_alpha                90
_cell_angle_beta                 113.36(4)
_cell_angle_gamma                90
_cell_volume                     3328.31
loop_
_atom_site_label
_atom_site_type_symbol
_atom_site_fract_x
_atom_site_fract_y
_atom_site_fract_z
Na1 Na 0.47224(7) 0.5000 0.71867(13)
C1 C 0.31359(10) 0.1780(2) 0.49255(18)
C2 C 0.46974(10) 0.1827(2) 0.73695(15)
C3 C 0.65076(10) 0.1827(2) 0.74782(18)
C4 C 0.25781(13) 0.0000 0.4373(2)
H1 H 0.2121 0.0000 0.4104
H2 H 0.2528 0.0000 0.5769
C5 C 0.28477(14) 0.0000 0.5508(3)
C6 C 0.43326(14) 0.0000 0.7828(2)
H3 H 0.4148 0.0000 0.8327
C7 C 0.50356(14) 0.0000 0.8328(2)
H4 H 0.5179 0.0000 0.9060
C8 C 0.65876(13) 0.0000 0.8392(2)
H5 H 0.6775 0.0000 0.9127
C9 C 0.70952(15) 0.0000 0.7956(3)
H6 H 0.7517 0.0000 0.8485
C10 C 0.35607(10) 0.16527(18) 0.67648(15)
H7 H 0.3591 0.2555 0.6721
H8 H 0.3326 0.1478 0.7171
C11 C 0.58516(10) 0.1698(2) 0.8435(2)
H9 H 0.5823 0.2595 0.8320
H10 H 0.6024 0.1558 0.9154
C12 C 0.26319(10) 0.15977(18) 0.31225(15)
H11 H 0.2665 0.2503 0.3166
H12 H 0.2200 0.1392 0.2717
N1 N 0.27934(8) 0.11008(16) 0.41090(14)
N2 N 0.32154(8) 0.11422(17) 0.57419(15)
N3 N 0.41829(7) 0.11376(16) 0.72590(15)
N4 N 0.52128(9) 0.11357(18) 0.79777(16)
N5 N 0.62679(8) 0.11533(17) 0.80098(15)
N6 N 0.30157(8) 0.11385(15) 0.26241(15)
O1 O 0.33361(9) 0.28734(18) 0.49274(16)
O2 O 0.47099(8) 0.28462(13) 0.70518(13)
O3 O 0.63396(9) 0.28797(17) 0.71399(15)
O4 O 0.54192(13) 0.5000 0.8962(2)
H13 H 0.5340 0.4357 0.9236
O5 O 0.55737(13) 0.5000 0.6759(2)
H14 H 0.5664 0.5749 0.6671
O6 O 0.41237(13) 0.5000 0.5425(3)
H15 H 0.3895 0.4350 0.5265
O7 O 0.38814(13) 0.5000 0.7845(2)
H16 H 0.3917 0.4351 0.8202
Na1D Na 0.52776(7) 0.5000 0.28133(13)
Na1D_2 Na 0.52776(7) -0.5000 0.28133(13)
Na1_2 Na 0.47224(7) -0.5000 0.71867(13)
C1B C 0.68641(10) 0.1780(2) 0.50745(18)
C1D C 0.68641(10) -0.1780(2) 0.50745(18)
C1F C 0.31359(10) -0.1780(2) 0.49255(18)
C2F C 0.46974(10) -0.1827(2) 0.73695(15)
C2D C 0.53026(10) -0.1827(2) 0.26305(15)
C2B C 0.53026(10) 0.1827(2) 0.26305(15)
C3F C 0.65076(10) -0.1827(2) 0.74782(18)
C3B C 0.34924(10) 0.1827(2) 0.25218(18)
C3D C 0.34924(10) -0.1827(2) 0.25218(18)
C4D C 0.74219(13) 0.0000 0.5627(2)
H1D H 0.7879 0.0000 0.5896
H2D H 0.7472 0.0000 0.4231
C5D C 0.71523(14) 0.0000 0.4492(3)
C6D C 0.56674(14) 0.0000 0.2172(2)
H3D H 0.5852 0.0000 0.1673
C7D C 0.49644(14) 0.0000 0.1672(2)
H4D H 0.4821 0.0000 0.0940
C8D C 0.34124(13) 0.0000 0.1608(2)
H5D H 0.3225 0.0000 0.0873
C9D C 0.29048(15) 0.0000 0.2044(3)
H6D H 0.2483 0.0000 0.1515
C10D C 0.64393(10) -0.16527(18) 0.32352(15)
C10F C 0.35607(10) -0.16527(18) 0.67648(15)
C10B C 0.64393(10) 0.16527(18) 0.32352(15)
H7D H 0.6409 -0.2555 0.3279
H7F H 0.3591 -0.2555 0.6721
H7B H 0.6409 0.2555 0.3279
H8D H 0.6674 -0.1478 0.2829
H8F H 0.3326 -0.1478 0.7171
H8B H 0.6674 0.1478 0.2829
C11F C 0.58516(10) -0.1698(2) 0.8435(2)
C11B C 0.41484(10) 0.1698(2) 0.1565(2)
C11D C 0.41484(10) -0.1698(2) 0.1565(2)
H9F H 0.5823 -0.2595 0.8320
H9B H 0.4177 0.2595 0.1680
H9D H 0.4177 -0.2595 0.1680
H10F H 0.6024 -0.1558 0.9154
H10B H 0.3976 0.1558 0.0846
H10D H 0.3976 -0.1558 0.0846
C12B C 0.73681(10) 0.15977(18) 0.68775(15)
C12F C 0.26319(10) -0.15977(18) 0.31225(15)
C12D C 0.73681(10) -0.15977(18) 0.68775(15)
H11B H 0.7335 0.2503 0.6834
H11F H 0.2665 -0.2503 0.3166
H11D H 0.7335 -0.2503 0.6834
H12B H 0.7800 0.1392 0.7283
H12F H 0.2200 -0.1392 0.2717
H12D H 0.7800 -0.1392 0.7283
N1B N 0.72066(8) 0.11008(16) 0.58910(14)
N1D N 0.72066(8) -0.11008(16) 0.58910(14)
N1F N 0.27934(8) -0.11008(16) 0.41090(14)
N2B N 0.67846(8) 0.11422(17) 0.42581(15)
N2D N 0.67846(8) -0.11422(17) 0.42581(15)
N2F N 0.32154(8) -0.11422(17) 0.57419(15)
N3F N 0.41829(7) -0.11376(16) 0.72590(15)
N3D N 0.58171(7) -0.11376(16) 0.27410(15)
N3B N 0.58171(7) 0.11376(16) 0.27410(15)
N4F N 0.52128(9) -0.11357(18) 0.79777(16)
N4D N 0.47872(9) -0.11357(18) 0.20223(16)
N4B N 0.47872(9) 0.11357(18) 0.20223(16)
N5F N 0.62679(8) -0.11533(17) 0.80098(15)
N5B N 0.37321(8) 0.11533(17) 0.19902(15)
N5D N 0.37321(8) -0.11533(17) 0.19902(15)
N6D N 0.69843(8) -0.11385(15) 0.73759(15)
N6B N 0.69843(8) 0.11385(15) 0.73759(15)
N6F N 0.30157(8) -0.11385(15) 0.26241(15)
O1F O 0.33361(9) -0.28734(18) 0.49274(16)
O1D O 0.66639(9) -0.28734(18) 0.50726(16)
O1B O 0.66639(9) 0.28734(18) 0.50726(16)
O2B O 0.52901(8) 0.28462(13) 0.29482(13)
O2D O 0.52901(8) -0.28462(13) 0.29482(13)
O2F O 0.47099(8) -0.28462(13) 0.70518(13)
O2F_2 O 0.47099(8) 0.71538(13) 0.70518(13)
O2D_2 O 0.52901(8) 0.71538(13) 0.29482(13)
O3D O 0.36604(9) -0.28797(17) 0.28601(15)
O3B O 0.36604(9) 0.28797(17) 0.28601(15)
O3F O 0.63396(9) -0.28797(17) 0.71399(15)
O4D O 0.45808(13) 0.5000 0.1038(2)
H13F H 0.5340 0.5643 0.9236
H13B H 0.4660 0.4357 0.0764
H13D H 0.4660 0.5643 0.0764
O5D O 0.44263(13) 0.5000 0.3241(2)
H14F H 0.5664 0.4251 0.6671
H14B H 0.4336 0.5749 0.3329
H14D H 0.4336 0.4251 0.3329
O6D O 0.58763(13) 0.5000 0.4575(3)
H15F H 0.3895 0.5650 0.5265
H15B H 0.6105 0.4350 0.4735
H15D H 0.6105 0.5650 0.4735
O7D O 0.61186(13) 0.5000 0.2155(2)
H16F H 0.3917 0.5649 0.8202
H16B H 0.6083 0.4351 0.1798
H16D H 0.6083 0.5649 0.1798
Cl1 Cl 0.5000 0.25144(10) 0.0000
O8 O 0.6709(2) 0.5000 0.9354(4)
H17 H 0.6820 0.5696 0.9193
H17F H 0.6820 0.4304 0.9193
O9 O 0.6885(4) 0.1282(10) 0.0989(7)
H18 H 0.7261 0.1225 0.1050
H19 H 0.6709 0.0572 0.0829
O10 O 0.5000 1.0000 0.5000
H20? H 0.5014 1.0300 0.4467
H21? H 0.4753 0.9429 0.4969
loop_
_geom_bond_atom_site_label_1
_geom_bond_atom_site_label_2
_geom_bond_site_symmetry_1
_geom_bond_site_symmetry_2
Na1 O2 1_555 1_555
C1 N1 1_555 1_555
C2 N3 1_555 1_555
C3 N5 1_555 1_555
C4 H1 1_555 1_555
H2 C5 1_555 1_555
C5 C4 1_555 1_555
C6 H3 1_555 1_555
C7 C6 1_555 1_555
H4 C7 1_555 1_555
C8 H5 1_555 1_555
C9 C8 1_555 1_555
H6 C9 1_555 1_555
C10 H7 1_555 1_555
H8 C10 1_555 1_555
C11 H9 1_555 1_555
H10 C11 1_555 1_555
C12 H11 1_555 1_555
H12 C12 1_555 1_555
N1 C4 1_555 1_555
N2 C1 1_555 1_555
N3 C6 1_555 1_555
N4 C2 1_555 1_555
N5 C8 1_555 1_555
N6 C12 1_555 1_555
O1 C1 1_555 1_555
O2 C2 1_555 1_555
O3 C3 1_555 1_555
O4 Na1 1_555 1_555
H13 O4 1_555 1_555
O5 Na1 1_555 1_555
H14 O5 1_555 1_555
O6 Na1 1_555 1_555
H15 O6 1_555 1_555
O7 Na1 1_555 1_555
H16 O7 1_555 1_555
O8 H17 1_555 1_555
O9 H18 1_555 1_555
H19 O9 1_555 1_555
Na1D O2B 1_555 1_555
Na1D_2 O2D 1_555 1_555
Na1_2 O2F 1_555 1_555
C1B N1B 1_555 1_555
C1D N1D 1_555 1_555
C1F N1F 1_555 1_555
C2F N3F 1_555 1_555
C2D N3D 1_555 1_555
C2B N3B 1_555 1_555
C3F N5F 1_555 1_555
C3B N6 1_555 1_555
C3D N5D 1_555 1_555
C4D H1D 1_555 1_555
H2D C5D 1_555 1_555
C5D C4D 1_555 1_555
C6D H3D 1_555 1_555
C7D C6D 1_555 1_555
H4D C7D 1_555 1_555
C8D H5D 1_555 1_555
C9D N6 1_555 1_555
H6D C9D 1_555 1_555
C10D H7D 1_555 1_555
C10F H7F 1_555 1_555
C10B H7B 1_555 1_555
H8D C10D 1_555 1_555
H8F C10F 1_555 1_555
H8B C10B 1_555 1_555
C11F H9F 1_555 1_555
C11B H9B 1_555 1_555
C11D H9D 1_555 1_555
H10F C11F 1_555 1_555
H10B C11B 1_555 1_555
H10D C11D 1_555 1_555
C12B H11B 1_555 1_555
C12F H11F 1_555 1_555
C12D H11D 1_555 1_555
H12B C12B 1_555 1_555
H12F C12F 1_555 1_555
H12D C12D 1_555 1_555
N1B C4D 1_555 1_555
N1D C4D 1_555 1_555
N1F C4 1_555 1_555
N2B C1B 1_555 1_555
N2D C1D 1_555 1_555
N2F C5 1_555 1_555
N3F C6 1_555 1_555
N3D C6D 1_555 1_555
N3B C6D 1_555 1_555
N4F C7 1_555 1_555
N4D C2D 1_555 1_555
N4B C2B 1_555 1_555
N5F C8 1_555 1_555
N5B C3B 1_555 1_555
N5D C8D 1_555 1_555
N6D C9 1_555 1_555
N6B C3 1_555 1_555
N6F C3D 1_555 1_555
O1F C1F 1_555 1_555
O1D C1D 1_555 1_555
O1B C1B 1_555 1_555
O2B C2B 1_555 1_555
O2D C2D 1_555 1_555
O2F C2F 1_555 1_555
O2F_2 Na1 1_555 1_555
O2D_2 Na1D 1_555 1_555
O3D C3D 1_555 1_555
O3B C3B 1_555 1_555
O3F C3F 1_555 1_555
O4D Na1D 1_555 1_555
H13F O4 1_555 1_555
H13B O4D 1_555 1_555
H13D O4D 1_555 1_555
O5D Na1D 1_555 1_555
H14F O5 1_555 1_555
H14B O5D 1_555 1_555
H14D O5D 1_555 1_555
O6D Na1D 1_555 1_555
H15F O6 1_555 1_555
H15B O6D 1_555 1_555
H15D O6D 1_555 1_555
O7D Na1D 1_555 1_555
H16F O7 1_555 1_555
H16B O7D 1_555 1_555
H16D O7D 1_555 1_555
H17F O8 1_555 1_555
C5 N2 1_555 1_555
C7 N4 1_555 1_555
C9 N6B 1_555 1_555
C10 N2 1_555 1_555
C10 N3 1_555 1_555
C11 N4 1_555 1_555
C11 N5 1_555 1_555
C12 N1 1_555 1_555
C1F N2F 1_555 1_555
C2F N4F 1_555 1_555
C3F N6D 1_555 1_555
C5D N2B 1_555 1_555
C5D N2D 1_555 1_555
C7D N4D 1_555 1_555
C7D N4B 1_555 1_555
C8D C9D 1_555 1_555
C8D N5B 1_555 1_555
C9D N6F 1_555 1_555
C10D N2D 1_555 1_555
C10D N3D 1_555 1_555
C10F N2F 1_555 1_555
C10F N3F 1_555 1_555
C10B N2B 1_555 1_555
C10B N3B 1_555 1_555
C11F N4F 1_555 1_555
C11F N5F 1_555 1_555
C11B N4B 1_555 1_555
C11B N5B 1_555 1_555
C11D N4D 1_555 1_555
C11D N5D 1_555 1_555
C12B N1B 1_555 1_555
C12B N6B 1_555 1_555
C12F N1F 1_555 1_555
C12F N6F 1_555 1_555
C12D N1D 1_555 1_555
C12D N6D 1_555 1_555

#END
