
#######################################################################
#
#                 Cambridge Crystallographic Data Centre
#                                CCDC 
#
#######################################################################
#
# If this CIF has been generated from an entry in the Cambridge 
# Structural Database, then it will include bibliographic, chemical, 
# crystal, experimental, refinement or atomic coordinate data resulting 
# from the CCDC's data processing and validation procedures.
#
#######################################################################

data_SARTUB
_symmetry_cell_setting           monoclinic
_symmetry_space_group_name_H-M   'P 21/n'
_symmetry_Int_Tables_number      14
_space_group_name_Hall           '-P 2yn'
loop_
_symmetry_equiv_pos_site_id
_symmetry_equiv_pos_as_xyz
1 x,y,z
2 1/2-x,1/2+y,1/2-z
3 -x,-y,-z
4 1/2+x,1/2-y,1/2+z
_cell_length_a                   12.4650(14)
_cell_length_b                   17.101(6)
_cell_length_c                   16.1130(19)
_cell_angle_alpha                90
_cell_angle_beta                 95.420(10)
_cell_angle_gamma                90
_cell_volume                     3419.35
loop_
_atom_site_label
_atom_site_type_symbol
_atom_site_fract_x
_atom_site_fract_y
_atom_site_fract_z
Mn1 Mn 0.65475(4) 0.11675(3) 0.33645(3)
Mn2 Mn 0.70976(4) 0.56560(3) 0.34240(3)
S1 S 0.98888(8) 0.36723(5) 0.40380(6)
S2 S 0.45686(8) 0.31271(6) 0.15124(7)
N1 N 0.6918(2) 0.06071(17) 0.46442(17)
N2 N 0.5159(2) 0.14402(16) 0.41325(17)
N3 N 0.5640(2) 0.62292(16) 0.39022(17)
N4 N 0.7148(2) 0.53828(16) 0.47857(17)
O1 O 0.7385(2) 0.22366(14) 0.38176(16)
O2 O 0.9043(2) 0.21038(16) 0.34313(19)
O3 O 0.8493(2) 0.49777(15) 0.33361(15)
O4 O 0.9125(2) 0.50409(14) 0.20910(15)
O5 O 0.8109(2) 0.08519(16) 0.29223(15)
O6 O 0.7088(2) 0.17481(15) 0.13800(17)
O7 O 0.5871(2) 0.17945(14) 0.23059(15)
O8 O 0.6077(2) 0.46032(14) 0.31291(16)
O9 O 0.6090(3) 0.45019(16) 0.17567(17)
C1 C 0.7798(3) 0.0187(2) 0.4873(2)
H1 H 0.8323 0.0158 0.4501
C2 C 0.7992(3) -0.0211(2) 0.5620(2)
C3 C 0.7194(4) -0.0159(2) 0.6149(2)
H2 H 0.7275 -0.0418 0.6658
C4 C 0.6277(3) 0.0268(2) 0.5938(2)
H3 H 0.5739 0.0296 0.6299
C5 C 0.6160(3) 0.0659(2) 0.5180(2)
C6 C 0.9012(4) -0.0664(3) 0.5810(3)
H4 H 0.9587 -0.0313 0.5992
H5 H 0.9185 -0.0933 0.5317
H6 H 0.8918 -0.1037 0.6242
C7 C 0.5212(3) 0.1150(2) 0.4913(2)
C8 C 0.4426(3) 0.1325(3) 0.5435(2)
H7 H 0.4457 0.1108 0.5965
C9 C 0.3600(3) 0.1821(3) 0.5167(3)
H8 H 0.3087 0.1955 0.5525
C10 C 0.3528(3) 0.2123(2) 0.4367(3)
C11 C 0.4329(3) 0.1902(2) 0.3874(2)
H9 H 0.4286 0.2086 0.3329
C12 C 0.2631(3) 0.2659(3) 0.4050(3)
H10 H 0.2859 0.2975 0.3606
H11 H 0.2444 0.2991 0.4495
H12 H 0.2014 0.2355 0.3845
C13 C 0.4963(3) 0.6714(2) 0.3460(2)
H13 H 0.5083 0.6813 0.2909
C14 C 0.4093(3) 0.7078(2) 0.3776(2)
C15 C 0.3929(3) 0.6923(2) 0.4592(2)
H14 H 0.3361 0.716 0.4831
C16 C 0.4604(3) 0.6417(2) 0.5055(2)
H15 H 0.4482 0.6301 0.5603
C17 C 0.5469(3) 0.60806(19) 0.4700(2)
C18 C 0.3378(3) 0.7615(3) 0.3230(3)
H16 H 0.3742 0.777 0.2757
H17 H 0.3212 0.8071 0.3542
H18 H 0.2722 0.7348 0.3042
C19 C 0.7918(3) 0.4956(2) 0.5195(2)
H19 H 0.8528 0.4841 0.4927
C20 C 0.7870(3) 0.4670(2) 0.5997(2)
C21 C 0.6946(3) 0.4847(2) 0.6373(2)
H20 H 0.6869 0.4667 0.6909
C22 C 0.6145(3) 0.5286(2) 0.5962(2)
H21 H 0.5521 0.5397 0.6214
C23 C 0.6269(3) 0.55628(19) 0.5169(2)
C24 C 0.8764(3) 0.4178(3) 0.6410(3)
H22 H 0.9417 0.4279 0.6157
H23 H 0.8579 0.3635 0.6345
H24 H 0.8868 0.4304 0.6993
C25 C 0.8323(3) 0.2467(2) 0.3763(2)
C26 C 0.8589(3) 0.3259(2) 0.4157(2)
H25 H 0.8515 0.3216 0.4749
H26 H 0.8048 0.3628 0.3929
C27 C 0.9720(3) 0.4000(2) 0.2974(2)
H27 H 1.0429 0.4091 0.2792
H28 H 0.9392 0.3578 0.2636
C28 C 0.9046(3) 0.4738(2) 0.2790(2)
C29 C 0.6268(3) 0.20193(19) 0.1663(2)
C30 C 0.5739(3) 0.2688(2) 0.1152(2)
H29 H 0.5546 0.2496 0.0591
H30 H 0.6274 0.3094 0.1114
C31 C 0.5127(3) 0.3551(2) 0.2474(2)
H31 H 0.4535 0.3674 0.2801
H32 H 0.5561 0.3154 0.2776
C32 C 0.5814(3) 0.4279(2) 0.2440(2)
H33 H 0.851(3) 0.120(2) 0.307(2)
H34 H 0.846(4) 0.037(3) 0.312(3)
Mn1A Mn 0.84525(4) 0.61675(3) 0.16355(3)
Mn2A Mn 0.79024(4) 0.06560(3) 0.15760(3)
O4A O 0.5875(2) 0.00409(14) 0.29090(15)
O5A O 0.6891(2) 0.58519(16) 0.20777(15)
O6A O 0.7912(2) 0.67481(15) 0.36200(17)
H33A H 0.649(3) 0.620(2) 0.193(2)
H34A H 0.654(4) 0.537(3) 0.188(3)
loop_
_geom_bond_atom_site_label_1
_geom_bond_atom_site_label_2
_geom_bond_site_symmetry_1
_geom_bond_site_symmetry_2
Mn1 N1 1_555 1_555
Mn2 N3 1_555 1_555
S1 C26 1_555 1_555
S2 C30 1_555 1_555
N1 C1 1_555 1_555
N2 Mn1 1_555 1_555
N3 C13 1_555 1_555
N4 Mn2 1_555 1_555
O1 Mn1 1_555 1_555
O2 C25 1_555 1_555
O3 Mn2 1_555 1_555
O4 C28 1_555 1_555
O5 Mn1 1_555 1_555
O6 C29 1_555 1_555
O7 Mn1 1_555 1_555
O8 Mn2 1_555 1_555
O9 C32 1_555 1_555
C1 H1 1_555 1_555
C2 C1 1_555 1_555
C3 C2 1_555 1_555
H2 C3 1_555 1_555
C4 C3 1_555 1_555
H3 C4 1_555 1_555
C5 N1 1_555 1_555
C6 C2 1_555 1_555
H4 C6 1_555 1_555
H5 C6 1_555 1_555
H6 C6 1_555 1_555
C7 N2 1_555 1_555
C8 C7 1_555 1_555
H7 C8 1_555 1_555
C9 C8 1_555 1_555
H8 C9 1_555 1_555
C10 C9 1_555 1_555
C11 N2 1_555 1_555
H9 C11 1_555 1_555
C12 C10 1_555 1_555
H10 C12 1_555 1_555
H11 C12 1_555 1_555
H12 C12 1_555 1_555
C13 H13 1_555 1_555
C14 C13 1_555 1_555
C15 C14 1_555 1_555
H14 C15 1_555 1_555
C16 C15 1_555 1_555
H15 C16 1_555 1_555
C17 N3 1_555 1_555
C18 C14 1_555 1_555
H16 C18 1_555 1_555
H17 C18 1_555 1_555
H18 C18 1_555 1_555
C19 N4 1_555 1_555
H19 C19 1_555 1_555
C20 C19 1_555 1_555
C21 C20 1_555 1_555
H20 C21 1_555 1_555
C22 C21 1_555 1_555
H21 C22 1_555 1_555
C23 N4 1_555 1_555
C24 C20 1_555 1_555
H22 C24 1_555 1_555
H23 C24 1_555 1_555
H24 C24 1_555 1_555
C25 O1 1_555 1_555
C26 C25 1_555 1_555
H25 C26 1_555 1_555
H26 C26 1_555 1_555
C27 S1 1_555 1_555
H27 C27 1_555 1_555
H28 C27 1_555 1_555
C28 O3 1_555 1_555
C29 O7 1_555 1_555
C30 C29 1_555 1_555
H29 C30 1_555 1_555
H30 C30 1_555 1_555
C31 S2 1_555 1_555
H31 C31 1_555 1_555
H32 C31 1_555 1_555
C32 O8 1_555 1_555
H33 O5 1_555 1_555
H34 O5 1_555 1_555
Mn1A O4 1_555 1_555
Mn2A O5 1_555 1_555
O4A Mn1 1_555 1_555
O5A Mn2 1_555 1_555
O6A Mn2 1_555 1_555
H33A O5A 1_555 1_555
H34A O5A 1_555 1_555
O6 Mn2A 1_555 1_555
C4 C5 1_555 1_555
C5 C7 1_555 1_555
C10 C11 1_555 1_555
C16 C17 1_555 1_555
C17 C23 1_555 1_555
C22 C23 1_555 1_555
C27 C28 1_555 1_555
C31 C32 1_555 1_555
Mn1A O5A 1_555 1_555

#END
