
#######################################################################
#
#                 Cambridge Crystallographic Data Centre
#                                CCDC 
#
#######################################################################
#
# If this CIF has been generated from an entry in the Cambridge 
# Structural Database, then it will include bibliographic, chemical, 
# crystal, experimental, refinement or atomic coordinate data resulting 
# from the CCDC's data processing and validation procedures.
#
#######################################################################

data_SARTAG01
_symmetry_cell_setting           monoclinic
_symmetry_space_group_name_H-M   'C 2/m'
_symmetry_Int_Tables_number      12
_space_group_name_Hall           '-C 2y'
loop_
_symmetry_equiv_pos_site_id
_symmetry_equiv_pos_as_xyz
1 x,y,z
2 -x,y,-z
3 1/2+x,1/2+y,z
4 1/2-x,1/2+y,-z
5 -x,-y,-z
6 x,-y,z
7 1/2-x,1/2-y,-z
8 1/2+x,1/2-y,z
_cell_length_a                   12.3718(5)
_cell_length_b                   6.8551(2)
_cell_length_c                   3.87760(10)
_cell_angle_alpha                90
_cell_angle_beta                 95.9450(10)
_cell_angle_gamma                90
_cell_volume                     327.09
loop_
_atom_site_label
_atom_site_type_symbol
_atom_site_fract_x
_atom_site_fract_y
_atom_site_fract_z
Br1 Br 0.653408(15) 0.0000 0.44622(5)
Cu1 Cu 0.5000 0.0000 0.0000
N1 N 0.5000 0.2967(3) 0.0000
C1 C 0.41052(12) 0.3986(2) 0.0541(4)
H1 H 0.3460 0.3307 0.0931
C1A C 0.58948(12) 0.3986(2) -0.0541(4)
H1A H 0.6540 0.3307 -0.0931
N1D N 0.5000 0.7033(3) 0.0000
C1D C 0.58948(12) 0.6014(2) -0.0541(4)
H1D H 0.6540 0.6693 -0.0931
C1E C 0.41052(12) 0.6014(2) 0.0541(4)
H1E H 0.3460 0.6693 0.0931
Br1A Br 0.346592(15) 0.0000 -0.44622(5)
Br1_2 Br 0.653408(15) 0.0000 -0.55378(5)
Br1A_2 Br 0.346592(15) 0.0000 0.55378(5)
Cu1_2 Cu 0.5000 0.0000 -1.0000
Cu1_3 Cu 0.5000 0.0000 1.0000
Cu1_4 Cu 0.5000 1.0000 0.0000
N1D_2 N 0.5000 -0.2967(3) 0.0000
loop_
_geom_bond_atom_site_label_1
_geom_bond_atom_site_label_2
_geom_bond_site_symmetry_1
_geom_bond_site_symmetry_2
Br1 Cu1 1_555 1_555
Cu1 N1 1_555 1_555
N1 C1 1_555 1_555
C1 H1 1_555 1_555
C1A N1 1_555 1_555
H1A C1A 1_555 1_555
N1D C1D 1_555 1_555
C1D C1A 1_555 1_555
H1D C1D 1_555 1_555
C1E C1 1_555 1_555
H1E C1E 1_555 1_555
Br1A Cu1 1_555 1_555
Br1_2 Cu1 1_555 1_555
Br1A_2 Cu1 1_555 1_555
Cu1_2 Br1A 1_555 1_555
Cu1_3 Br1 1_555 1_555
Cu1_4 N1D 1_555 1_555
N1D_2 Cu1 1_555 1_555
N1D C1E 1_555 1_555
Br1_2 Cu1_2 1_555 1_555
Br1A_2 Cu1_3 1_555 1_555

#END
