
#######################################################################
#
#                 Cambridge Crystallographic Data Centre
#                                CCDC 
#
#######################################################################
#
# If this CIF has been generated from an entry in the Cambridge 
# Structural Database, then it will include bibliographic, chemical, 
# crystal, experimental, refinement or atomic coordinate data resulting 
# from the CCDC's data processing and validation procedures.
#
#######################################################################

data_SARVEN
_symmetry_cell_setting           monoclinic
_symmetry_space_group_name_H-M   'P 21/n'
_symmetry_Int_Tables_number      14
_space_group_name_Hall           '-P 2yn'
loop_
_symmetry_equiv_pos_site_id
_symmetry_equiv_pos_as_xyz
1 x,y,z
2 1/2-x,1/2+y,1/2-z
3 -x,-y,-z
4 1/2+x,1/2-y,1/2+z
_cell_length_a                   12.071(3)
_cell_length_b                   9.446(2)
_cell_length_c                   17.283(2)
_cell_angle_alpha                90
_cell_angle_beta                 105.533(10)
_cell_angle_gamma                90
_cell_volume                     1898.68
loop_
_atom_site_label
_atom_site_type_symbol
_atom_site_fract_x
_atom_site_fract_y
_atom_site_fract_z
Mn1 Mn 0.83351(4) 0.16495(6) 0.80996(3)
S1 S 0.85186(8) 0.04596(10) 0.96197(5)
N1 N 0.9745(3) 0.3188(3) 0.85754(19)
N2 N 0.9978(2) 0.0615(3) 0.80220(17)
O1 O 0.7104(2) 0.2662(3) 0.85411(16)
O2 O 0.5677(2) 0.2750(3) 0.91018(18)
O3 O 0.7484(2) -0.0385(3) 0.78955(14)
O4 O 0.7290(2) -0.2667(3) 0.81133(15)
O5 O 1.2344(2) 0.6131(3) 0.91592(19)
O6 O 1.3082(2) -0.1267(3) 0.80797(17)
C1 C 0.6589(3) 0.2232(4) 0.9038(2)
C2 C 0.7114(4) 0.1090(5) 0.9640(3)
C3 C 0.7610(3) -0.1430(4) 0.8342(2)
C4 C 0.8208(4) -0.1305(4) 0.9235(2)
C5 C 0.9571(4) 0.4524(4) 0.8785(3)
C6 C 1.0440(4) 0.5499(4) 0.8994(3)
C7 C 1.1541(3) 0.5119(4) 0.8983(2)
C8 C 1.1728(3) 0.3740(4) 0.8782(2)
C9 C 1.0812(3) 0.2810(4) 0.8580(2)
C10 C 1.0963(3) 0.1333(4) 0.83213(19)
C11 C 1.2031(3) 0.0764(4) 0.8367(2)
C12 C 1.2100(3) -0.0597(4) 0.8087(2)
C13 C 1.1094(3) -0.1335(4) 0.7768(2)
C14 C 1.0068(3) -0.0705(4) 0.7753(2)
C15 C 1.3472(4) 0.5803(5) 0.9077(3)
C16 C 1.4148(4) -0.0525(6) 0.8356(3)
H1 H 0.884(3) 0.472(4) 0.876(2)
H2 H 1.028(3) 0.646(5) 0.916(2)
H3 H 1.237(4) 0.339(4) 0.878(3)
H4 H 0.717(4) 0.144(5) 1.016(3)
H5 H 0.666(4) 0.044(5) 0.956(3)
H6 H 0.892(4) -0.184(5) 0.932(3)
H7 H 0.775(4) -0.186(5) 0.958(3)
H8 H 1.266(3) 0.131(4) 0.858(2)
H9 H 1.109(4) -0.227(5) 0.760(3)
H10 H 0.938(4) -0.123(5) 0.756(3)
H11 H 1.339(3) 0.552(5) 0.855(3)
H12 H 1.380(4) 0.511(5) 0.946(3)
H13 H 1.400(4) 0.677(5) 0.920(3)
H14 H 1.421(4) -0.028(5) 0.894(3)
H15 H 1.471(5) -0.124(6) 0.826(3)
H16 H 1.406(5) 0.029(6) 0.805(3)
Mn1A Mn 0.66649(4) -0.33505(6) 0.69004(3)
O4A O 0.7710(2) 0.2333(3) 0.68867(15)
O7 O 0.4097(2) 0.2017(3) 0.99044(18)
O8 O 0.6183(4) -0.4229(4) 0.9092(2)
loop_
_geom_bond_atom_site_label_1
_geom_bond_atom_site_label_2
_geom_bond_site_symmetry_1
_geom_bond_site_symmetry_2
Mn1 S1 1_555 1_555
S1 C2 1_555 1_555
N1 Mn1 1_555 1_555
N2 Mn1 1_555 1_555
O1 Mn1 1_555 1_555
O2 C1 1_555 1_555
O3 Mn1 1_555 1_555
O4 C3 1_555 1_555
O5 C7 1_555 1_555
O6 C12 1_555 1_555
C1 O1 1_555 1_555
C2 C1 1_555 1_555
C3 O3 1_555 1_555
C4 S1 1_555 1_555
C5 N1 1_555 1_555
C6 C5 1_555 1_555
C7 C6 1_555 1_555
C8 C7 1_555 1_555
C9 N1 1_555 1_555
C10 N2 1_555 1_555
C11 C10 1_555 1_555
C12 C11 1_555 1_555
C13 C12 1_555 1_555
C14 N2 1_555 1_555
C15 O5 1_555 1_555
C16 O6 1_555 1_555
H1 C5 1_555 1_555
H2 C6 1_555 1_555
H3 C8 1_555 1_555
H4 C2 1_555 1_555
H5 C2 1_555 1_555
H6 C4 1_555 1_555
H7 C4 1_555 1_555
H8 C11 1_555 1_555
H9 C13 1_555 1_555
H10 C14 1_555 1_555
H11 C15 1_555 1_555
H12 C15 1_555 1_555
H13 C15 1_555 1_555
H14 C16 1_555 1_555
H15 C16 1_555 1_555
H16 C16 1_555 1_555
Mn1A O4 1_555 1_555
O4A Mn1 1_555 1_555
C3 C4 1_555 1_555
C8 C9 1_555 1_555
C9 C10 1_555 1_555
C13 C14 1_555 1_555

#END
