
#######################################################################
#
#                 Cambridge Crystallographic Data Centre
#                                CCDC 
#
#######################################################################
#
# If this CIF has been generated from an entry in the Cambridge 
# Structural Database, then it will include bibliographic, chemical, 
# crystal, experimental, refinement or atomic coordinate data resulting 
# from the CCDC's data processing and validation procedures.
#
#######################################################################

data_SARVAJ
_symmetry_cell_setting           monoclinic
_symmetry_space_group_name_H-M   'C 2/c'
_symmetry_Int_Tables_number      15
_space_group_name_Hall           '-C 2yn'
loop_
_symmetry_equiv_pos_site_id
_symmetry_equiv_pos_as_xyz
1 x,y,z
2 1/2+x,1/2+y,z
3 -x,y,1/2-z
4 1/2-x,1/2+y,1/2-z
5 -x,-y,-z
6 1/2-x,1/2-y,-z
7 x,-y,1/2+z
8 1/2+x,1/2-y,1/2+z
_cell_length_a                   21.120(4)
_cell_length_b                   17.270(5)
_cell_length_c                   22.467(4)
_cell_angle_alpha                90
_cell_angle_beta                 122.29(2)
_cell_angle_gamma                90
_cell_volume                     6927.4
loop_
_atom_site_label
_atom_site_type_symbol
_atom_site_fract_x
_atom_site_fract_y
_atom_site_fract_z
Mn1 Mn 0.24203(4) 0.16765(4) 0.15815(4)
Mn2 Mn 0.23974(4) -0.28278(4) 0.17859(4)
S1 S 0.05895(8) -0.07963(9) 0.17246(9)
S2 S 0.44963(7) -0.01630(8) 0.29375(7)
N1 N 0.1587(2) 0.2142(2) 0.0485(2)
N2 N 0.2802(2) 0.1289(2) 0.08662(19)
N3 N 0.1703(2) -0.2666(2) 0.0617(2)
N4 N 0.2925(2) -0.3566(2) 0.1317(2)
O1 O 0.1788(2) 0.0592(2) 0.1381(2)
O2 O 0.0863(2) 0.0905(2) 0.1527(2)
O3 O 0.1765(2) -0.2055(2) 0.20172(18)
O4 O 0.2032(2) -0.2205(2) 0.31153(18)
O5 O 0.3096(2) -0.1857(2) 0.18579(19)
O6 O 0.3665(2) -0.1574(2) 0.29998(19)
O7 O 0.3244(2) 0.1161(2) 0.3339(2)
O8 O 0.3348(2) 0.1088(2) 0.24167(18)
O9 O 0.1779(2) 0.2032(2) 0.20595(17)
H1 H 0.140(3) 0.163(3) 0.187(3)
H2 H 0.157(3) 0.251(3) 0.197(3)
C1 C 0.1225(3) 0.0438(3) 0.1401(2)
C2 C 0.0954(4) -0.0394(3) 0.1232(3)
H3 H 0.060(3) -0.045(3) 0.081(3)
H4 H 0.131(3) -0.075(3) 0.125(3)
C3 C 0.1433(5) -0.1061(4) 0.2529(4)
H5 H 0.175(4) -0.073(4) 0.258(4)
H6 H 0.130(4) -0.108(4) 0.287(4)
C4 C 0.1767(3) -0.1839(3) 0.2554(3)
C5 C 0.3486(3) -0.1426(3) 0.2381(3)
C6 C 0.3731(3) -0.0677(3) 0.2216(3)
H7 H 0.391(3) -0.079(3) 0.192(3)
H8 H 0.331(3) -0.035(3) 0.201(3)
C7 C 0.4054(3) 0.0221(4) 0.3368(3)
H9 H 0.383(3) -0.015(3) 0.346(3)
H10 H 0.441(3) 0.037(3) 0.379(3)
C8 C 0.3504(3) 0.0875(3) 0.3004(3)
C9 C 0.0987(3) 0.2567(3) 0.0307(3)
H11 H 0.088(3) 0.269(3) 0.066(3)
C10 C 0.0476(3) 0.2819(3) -0.0366(3)
H12 H 0.005(3) 0.313(4) -0.047(3)
C11 C 0.0584(3) 0.2624(3) -0.0898(3)
C12 C 0.0045(5) 0.2886(5) -0.1638(4)
H13 H -0.048(4) 0.274(4) -0.174(4)
H14 H 0.000(5) 0.256(5) -0.187(4)
H15 H 0.016(4) 0.330(4) -0.171(4)
C13 C 0.1213(3) 0.2192(3) -0.0722(3)
H16 H 0.128(3) 0.204(3) -0.110(3)
C14 C 0.1698(3) 0.1945(3) -0.0038(2)
C15 C 0.2367(3) 0.1471(3) 0.0173(2)
C16 C 0.2545(3) 0.1206(3) -0.0301(3)
H17 H 0.225(3) 0.138(3) -0.077(3)
C17 C 0.3153(3) 0.0727(3) -0.0087(3)
C18 C 0.3350(4) 0.0430(5) -0.0594(4)
H18 H 0.330(4) 0.081(4) -0.090(4)
H19 H 0.385(4) 0.040(4) -0.043(4)
H20 H 0.301(4) 0.011(4) -0.090(4)
C19 C 0.3589(3) 0.0539(3) 0.0622(3)
H21 H 0.399(3) 0.022(3) 0.079(3)
C20 C 0.3401(3) 0.0840(3) 0.1075(3)
H22 H 0.363(3) 0.071(3) 0.153(3)
C21 C 0.1085(3) -0.2241(3) 0.0288(3)
H23 H 0.097(3) -0.203(3) 0.052(3)
C22 C 0.0630(3) -0.2181(3) -0.0427(3)
H24 H 0.019(3) -0.187(3) -0.064(3)
C23 C 0.0816(3) -0.2585(3) -0.0848(3)
C24 C 0.0340(4) -0.2547(5) -0.1634(3)
H25 H 0.008(4) -0.203(4) -0.181(3)
H26 H 0.069(4) -0.257(4) -0.175(3)
H27 H 0.006(4) -0.304(4) -0.176(3)
C25 C 0.1463(3) -0.3025(3) -0.0509(3)
H28 H 0.161(3) -0.328(3) -0.079(3)
C26 C 0.1896(3) -0.3066(3) 0.0219(2)
C27 C 0.2586(3) -0.3548(3) 0.0612(2)
C28 C 0.2866(3) -0.3966(3) 0.0274(3)
H29 H 0.260(3) -0.392(3) -0.021(3)
C29 C 0.3504(3) -0.4413(3) 0.0656(3)
C30 C 0.3824(4) -0.4842(4) 0.0297(4)
H30 H 0.427(4) -0.454(4) 0.037(3)
H31 H 0.399(4) -0.531(4) 0.049(3)
H32 H 0.350(4) -0.494(4) -0.017(4)
C31 C 0.3839(3) -0.4432(3) 0.1380(3)
H33 H 0.431(3) -0.474(3) 0.168(3)
C32 C 0.3534(3) -0.4005(3) 0.1682(3)
H34 H 0.378(3) -0.404(3) 0.215(3)
Mn1C Mn 0.25797(4) -0.33235(4) 0.34185(4)
Mn2C Mn 0.26026(4) 0.21722(4) 0.32141(4)
O4C O 0.2968(2) 0.2795(2) 0.18847(18)
O7C O 0.1756(2) -0.3839(2) 0.1661(2)
O9C O 0.3221(2) -0.2968(2) 0.29405(17)
H1C H 0.360(3) -0.337(3) 0.313(3)
H2C H 0.343(3) -0.249(3) 0.303(3)
loop_
_geom_bond_atom_site_label_1
_geom_bond_atom_site_label_2
_geom_bond_site_symmetry_1
_geom_bond_site_symmetry_2
Mn1 N1 1_555 1_555
Mn2 N3 1_555 1_555
S1 C2 1_555 1_555
S2 C6 1_555 1_555
N1 C9 1_555 1_555
N2 Mn1 1_555 1_555
N3 C21 1_555 1_555
N4 Mn2 1_555 1_555
O1 Mn1 1_555 1_555
O2 C1 1_555 1_555
O3 Mn2 1_555 1_555
O4 C4 1_555 1_555
O5 Mn2 1_555 1_555
O6 C5 1_555 1_555
O7 C8 1_555 1_555
O8 Mn1 1_555 1_555
O9 Mn1 1_555 1_555
H1 O9 1_555 1_555
H2 O9 1_555 1_555
C1 O1 1_555 1_555
C2 C1 1_555 1_555
H3 C2 1_555 1_555
H4 C2 1_555 1_555
C3 S1 1_555 1_555
H5 C3 1_555 1_555
H6 C3 1_555 1_555
C4 O3 1_555 1_555
C5 O5 1_555 1_555
C6 C5 1_555 1_555
H7 C6 1_555 1_555
H8 C6 1_555 1_555
C7 S2 1_555 1_555
H9 C7 1_555 1_555
H10 C7 1_555 1_555
C8 O8 1_555 1_555
C9 H11 1_555 1_555
C10 C9 1_555 1_555
H12 C10 1_555 1_555
C11 C10 1_555 1_555
C12 C11 1_555 1_555
H13 C12 1_555 1_555
H14 C12 1_555 1_555
H15 C12 1_555 1_555
C13 C11 1_555 1_555
H16 C13 1_555 1_555
C14 N1 1_555 1_555
C15 N2 1_555 1_555
C16 C15 1_555 1_555
H17 C16 1_555 1_555
C17 C16 1_555 1_555
C18 C17 1_555 1_555
H18 C18 1_555 1_555
H19 C18 1_555 1_555
H20 C18 1_555 1_555
C19 C17 1_555 1_555
H21 C19 1_555 1_555
C20 N2 1_555 1_555
H22 C20 1_555 1_555
C21 H23 1_555 1_555
C22 C21 1_555 1_555
H24 C22 1_555 1_555
C23 C22 1_555 1_555
C24 C23 1_555 1_555
H25 C24 1_555 1_555
H26 C24 1_555 1_555
H27 C24 1_555 1_555
C25 C23 1_555 1_555
H28 C25 1_555 1_555
C26 N3 1_555 1_555
C27 N4 1_555 1_555
C28 C27 1_555 1_555
H29 C28 1_555 1_555
C29 C28 1_555 1_555
C30 C29 1_555 1_555
H30 C30 1_555 1_555
H31 C30 1_555 1_555
H32 C30 1_555 1_555
C31 C29 1_555 1_555
H33 C31 1_555 1_555
C32 N4 1_555 1_555
H34 C32 1_555 1_555
Mn1C O4 1_555 1_555
Mn2C O7 1_555 1_555
O4C Mn1 1_555 1_555
O7C Mn2 1_555 1_555
O9C Mn2 1_555 1_555
H1C O9C 1_555 1_555
H2C O9C 1_555 1_555
O9 Mn2C 1_555 1_555
C3 C4 1_555 1_555
C7 C8 1_555 1_555
C13 C14 1_555 1_555
C14 C15 1_555 1_555
C19 C20 1_555 1_555
C25 C26 1_555 1_555
C26 C27 1_555 1_555
C31 C32 1_555 1_555
Mn1C O9C 1_555 1_555

#END
