
#######################################################################
#
#                 Cambridge Crystallographic Data Centre
#                                CCDC 
#
#######################################################################
#
# If this CIF has been generated from an entry in the Cambridge 
# Structural Database, then it will include bibliographic, chemical, 
# crystal, experimental, refinement or atomic coordinate data resulting 
# from the CCDC's data processing and validation procedures.
#
#######################################################################

data_SARWAK
_symmetry_cell_setting           trigonal
_symmetry_space_group_name_H-M   'P 3 c 1'
_symmetry_Int_Tables_number      158
_space_group_name_Hall           'P 3 -2"c'
loop_
_symmetry_equiv_pos_site_id
_symmetry_equiv_pos_as_xyz
1 x,y,z
2 -y,x-y,z
3 -x+y,-x,z
4 -y,-x,1/2+z
5 x,x-y,1/2+z
6 -x+y,y,1/2+z
_cell_length_a                   10.877(1)
_cell_length_b                   10.877(1)
_cell_length_c                   21.360(2)
_cell_angle_alpha                90
_cell_angle_beta                 90
_cell_angle_gamma                120
_cell_volume                     2188.52
loop_
_atom_site_label
_atom_site_type_symbol
_atom_site_fract_x
_atom_site_fract_y
_atom_site_fract_z
Tb1 Tb 0.0000 0.0000 0.5389
O1 O -0.181(2) -0.162(2) 0.6050(7)
O2 O -0.411(2) -0.019(2) 0.6610(9)
O3 O -0.425(2) 0.070(2) 0.7754(9)
O4 O 0.159(2) 0.038(2) 0.4543(8)
O5 O 0.234(2) 0.220(2) 0.5174(8)
O6 O 0.370(3) 0.230(3) 0.443(1)
N1 N -0.417(2) -0.273(2) 0.6071(9)
N2 N -0.6667 -0.3333 0.525(1)
N3 N 0.259(3) 0.168(2) 0.471(1)
C1 C -0.280(4) -0.177(4) 0.637(2)
C2 C -0.289(2) -0.127(3) 0.6957(9)
C3 C -0.353(3) -0.047(3) 0.710(1)
C4 C -0.355(3) -0.008(3) 0.768(1)
C5 C -0.295(3) -0.038(3) 0.814(1)
C6 C -0.226(3) -0.116(4) 0.805(1)
C7 C -0.224(3) -0.159(3) 0.743(1)
C8 C -0.339(4) 0.126(3) 0.640(1)
C9 C -0.464(5) 0.091(3) 0.834(1)
C10 C -0.443(3) -0.327(3) 0.547(1)
C11 C -0.520(2) -0.278(3) 0.5034(9)
H1 H -0.2973 -0.0050 0.8551
H2 H -0.1837 -0.1394 0.8381
H3 H -0.1779 -0.2110 0.7341
H4 H -0.3897 0.1358 0.6058
H5 H -0.2457 0.1525 0.6272
H6 H -0.3351 0.1862 0.6733
H7 H -0.5096 0.1448 0.8311
H8 H -0.5260 0.0012 0.8528
H9 H -0.3809 0.1399 0.8595
H10 H -0.4886 -0.2986 0.6298
H11 H -0.3543 -0.3014 0.5284
H12 H -0.4989 -0.4270 0.5501
H13 H -0.5207 -0.3114 0.4623
H14 H -0.4721 -0.1768 0.5030
Tb1_2 Tb -1.0000 0.0000 0.5389
Tb1_3 Tb -1.0000 -1.0000 0.5389
O1A O -0.838(2) -0.019(3) 0.6050(7)
O1B O -0.981(3) -0.819(2) 0.6050(7)
O1A_2 O 0.162(2) -0.019(3) 0.6050(7)
O1B_2 O 0.019(3) 0.181(2) 0.6050(7)
O2A O -0.981(2) -0.392(3) 0.6610(9)
O2B O -0.608(3) -0.589(2) 0.6610(9)
O3A O -1.070(2) -0.495(3) 0.7754(9)
O3B O -0.505(3) -0.575(2) 0.7754(9)
O4A O -0.038(2) 0.121(3) 0.4543(8)
O4B O -0.121(3) -0.159(2) 0.4543(8)
O5A O -0.220(2) 0.014(3) 0.5174(8)
O5B O -0.014(3) -0.234(2) 0.5174(8)
O6A O -0.230(3) 0.140(4) 0.443(1)
O6B O -0.140(4) -0.370(3) 0.443(1)
N1A N -0.727(2) -0.144(3) 0.6071(9)
N1B N -0.856(3) -0.583(2) 0.6071(9)
N3A N -0.168(2) 0.091(4) 0.471(1)
N3B N -0.091(4) -0.259(3) 0.471(1)
C1A C -0.823(4) -0.103(6) 0.637(2)
C1B C -0.897(6) -0.720(4) 0.637(2)
C2A C -0.873(3) -0.162(4) 0.6957(9)
C2B C -0.838(4) -0.711(2) 0.6957(9)
C3A C -0.953(3) -0.306(4) 0.710(1)
C3B C -0.694(4) -0.647(3) 0.710(1)
C4A C -0.992(3) -0.347(4) 0.768(1)
C4B C -0.653(4) -0.645(3) 0.768(1)
C5A C -0.962(3) -0.257(4) 0.814(1)
C5B C -0.743(4) -0.705(3) 0.814(1)
C6A C -0.884(4) -0.110(5) 0.805(1)
C6B C -0.890(5) -0.774(3) 0.805(1)
C7A C -0.841(3) -0.065(4) 0.743(1)
C7B C -0.935(4) -0.776(3) 0.743(1)
C8A C -1.126(3) -0.465(5) 0.640(1)
C8B C -0.535(5) -0.661(4) 0.640(1)
C9A C -1.091(3) -0.555(6) 0.834(1)
C9B C -0.445(6) -0.536(5) 0.834(1)
C10A C -0.673(3) -0.116(4) 0.547(1)
C10B C -0.884(4) -0.557(3) 0.547(1)
C11A C -0.722(3) -0.242(4) 0.5034(9)
C11B C -0.758(4) -0.480(2) 0.5034(9)
H1A H -0.9950 -0.2923 0.8551
H1B H -0.7077 -0.7027 0.8551
H2A H -0.8606 -0.0443 0.8381
H2B H -0.9557 -0.8163 0.8381
H3A H -0.7890 0.0331 0.7341
H3B H -1.0331 -0.8221 0.7341
H4A H -1.1358 -0.5255 0.6058
H4B H -0.4745 -0.6103 0.6058
H5A H -1.1525 -0.3982 0.6272
H5B H -0.6018 -0.7543 0.6272
H6A H -1.1862 -0.5213 0.6733
H6B H -0.4787 -0.6649 0.6733
H7A H -1.1448 -0.6544 0.8311
H7B H -0.3456 -0.4904 0.8311
H8A H -1.0012 -0.5272 0.8528
H8B H -0.4728 -0.4740 0.8528
H9A H -1.1399 -0.5208 0.8595
H9B H -0.4792 -0.6191 0.8595
H10A H -0.7014 -0.1900 0.6298
H10B H -0.8100 -0.5114 0.6298
H11A H -0.6986 -0.0529 0.5284
H11B H -0.9471 -0.6457 0.5284
H12A H -0.5730 -0.0719 0.5501
H12B H -0.9281 -0.5011 0.5501
H13A H -0.6886 -0.2093 0.4623
H13B H -0.7907 -0.4793 0.4623
H14A H -0.8232 -0.2953 0.5030
H14B H -0.7047 -0.5279 0.5030
N4 N 0.3333 -0.3333 0.703(1)
C12 C 0.3333 -0.3333 0.826(2)
C13 C 0.3333 -0.3333 0.757(2)
loop_
_geom_bond_atom_site_label_1
_geom_bond_atom_site_label_2
_geom_bond_site_symmetry_1
_geom_bond_site_symmetry_2
Tb1 O1 1_555 1_555
O1 C1 1_555 1_555
O2 C3 1_555 1_555
O3 C4 1_555 1_555
O4 Tb1 1_555 1_555
O5 Tb1 1_555 1_555
O6 N3 1_555 1_555
N1 C1 1_555 1_555
N2 C11 1_555 1_555
N3 O4 1_555 1_555
N4 C13 1_555 1_555
C1 C2 1_555 1_555
C2 C3 1_555 1_555
C3 C4 1_555 1_555
C4 C5 1_555 1_555
C5 C6 1_555 1_555
C6 C7 1_555 1_555
C7 C2 1_555 1_555
C8 O2 1_555 1_555
C9 O3 1_555 1_555
C10 N1 1_555 1_555
C11 C10 1_555 1_555
C12 C13 1_555 1_555
H1 C5 1_555 1_555
H2 C6 1_555 1_555
H3 C7 1_555 1_555
H4 C8 1_555 1_555
H5 C8 1_555 1_555
H6 C8 1_555 1_555
H7 C9 1_555 1_555
H8 C9 1_555 1_555
H9 C9 1_555 1_555
H10 N1 1_555 1_555
H11 C10 1_555 1_555
H12 C10 1_555 1_555
H13 C11 1_555 1_555
H14 C11 1_555 1_555
Tb1_2 O1A 1_555 1_555
Tb1_3 O1B 1_555 1_555
O1A C1A 1_555 1_555
O1B C1B 1_555 1_555
O1A_2 Tb1 1_555 1_555
O1B_2 Tb1 1_555 1_555
O2A C3A 1_555 1_555
O2B C3B 1_555 1_555
O3A C4A 1_555 1_555
O3B C4B 1_555 1_555
O4A Tb1 1_555 1_555
O4B Tb1 1_555 1_555
O5A Tb1 1_555 1_555
O5B Tb1 1_555 1_555
O6A N3A 1_555 1_555
O6B N3B 1_555 1_555
N1A C1A 1_555 1_555
N1B C1B 1_555 1_555
N3A O4A 1_555 1_555
N3B O4B 1_555 1_555
C1A C2A 1_555 1_555
C1B C2B 1_555 1_555
C2A C3A 1_555 1_555
C2B C3B 1_555 1_555
C3A C4A 1_555 1_555
C3B C4B 1_555 1_555
C4A C5A 1_555 1_555
C4B C5B 1_555 1_555
C5A C6A 1_555 1_555
C5B C6B 1_555 1_555
C6A C7A 1_555 1_555
C6B C7B 1_555 1_555
C7A C2A 1_555 1_555
C7B C2B 1_555 1_555
C8A O2A 1_555 1_555
C8B O2B 1_555 1_555
C9A O3A 1_555 1_555
C9B O3B 1_555 1_555
C10A N1A 1_555 1_555
C10B N1B 1_555 1_555
C11A N2 1_555 1_555
C11B N2 1_555 1_555
H1A C5A 1_555 1_555
H1B C5B 1_555 1_555
H2A C6A 1_555 1_555
H2B C6B 1_555 1_555
H3A C7A 1_555 1_555
H3B C7B 1_555 1_555
H4A C8A 1_555 1_555
H4B C8B 1_555 1_555
H5A C8A 1_555 1_555
H5B C8B 1_555 1_555
H6A C8A 1_555 1_555
H6B C8B 1_555 1_555
H7A C9A 1_555 1_555
H7B C9B 1_555 1_555
H8A C9A 1_555 1_555
H8B C9B 1_555 1_555
H9A C9A 1_555 1_555
H9B C9B 1_555 1_555
H10A N1A 1_555 1_555
H10B N1B 1_555 1_555
H11A C10A 1_555 1_555
H11B C10B 1_555 1_555
H12A C10A 1_555 1_555
H12B C10B 1_555 1_555
H13A C11A 1_555 1_555
H13B C11B 1_555 1_555
H14A C11A 1_555 1_555
H14B C11B 1_555 1_555
O5 N3 1_555 1_555
O5A N3A 1_555 1_555
O5B N3B 1_555 1_555
C10A C11A 1_555 1_555
C10B C11B 1_555 1_555

#END
