
#######################################################################
#
#                 Cambridge Crystallographic Data Centre
#                                CCDC 
#
#######################################################################
#
# If this CIF has been generated from an entry in the Cambridge 
# Structural Database, then it will include bibliographic, chemical, 
# crystal, experimental, refinement or atomic coordinate data resulting 
# from the CCDC's data processing and validation procedures.
#
#######################################################################

data_SASGAV
_symmetry_cell_setting           triclinic
_symmetry_space_group_name_H-M   'P -1'
_symmetry_Int_Tables_number      2
_space_group_name_Hall           '-P 1'
loop_
_symmetry_equiv_pos_site_id
_symmetry_equiv_pos_as_xyz
1 x,y,z
2 -x,-y,-z
_cell_length_a                   10.132(5)
_cell_length_b                   13.845(3)
_cell_length_c                   14.783(3)
_cell_angle_alpha                84.39(2)
_cell_angle_beta                 77.90(2)
_cell_angle_gamma                88.15(3)
_cell_volume                     2017.79
loop_
_atom_site_label
_atom_site_type_symbol
_atom_site_fract_x
_atom_site_fract_y
_atom_site_fract_z
Sn1 Sn -0.0844(1) 0.7697(1) -0.04030(5)
Sn2 Sn -0.6088(1) 0.7285(1) 0.04962(5)
S1 S -0.3823(4) 0.5830(2) -0.2141(2)
S2 S -0.5274(4) 0.7682(2) -0.2291(2)
S3 S -0.1750(3) 0.7199(2) 0.2461(2)
S4 S -0.0252(4) 0.8853(3) 0.2667(3)
O1 O -0.1850(9) 0.7534(6) -0.1544(5)
O2 O -0.3870(8) 0.7319(6) -0.0615(5)
O3 O 0.2162(9) 0.7347(6) 0.1639(5)
O4 O 0.0671(8) 0.7720(6) 0.0759(5)
N1 N -0.297(2) 0.6207(9) -0.3975(8)
N2 N -0.365(1) 0.9161(8) -0.2345(7)
N3 N -0.028(1) 0.5571(8) 0.2352(7)
N4 N -0.016(1) 0.800(1) 0.4350(9)
C1 C -0.205(1) 0.8824(9) 0.023(1)
C2 C 0.086(2) 0.827(1) -0.1339(9)
C3 C -0.092(2) 0.6183(9) 0.0014(9)
C4 C -0.313(1) 0.7371(8) -0.1381(8)
C5 C -0.365(1) 0.7149(8) -0.2229(7)
C6 C -0.303(2) 0.555(1) -0.3259(8)
C7 C -0.246(2) 0.461(1) -0.334(1)
C8 C -0.187(2) 0.438(1) -0.420(1)
C9 C -0.178(2) 0.503(1) -0.496(1)
C10 C -0.232(2) 0.593(1) -0.481(1)
C11 C -0.491(2) 0.8927(9) -0.2408(8)
C12 C -0.590(1) 0.960(1) -0.2537(9)
C13 C -0.559(2) 1.058(1) -0.261(1)
C14 C -0.423(3) 1.081(1) -0.259(1)
C15 C -0.338(2) 1.011(1) -0.243(1)
C16 C -0.620(2) 0.8788(8) 0.0094(9)
C17 C -0.675(1) 0.6146(9) -0.0106(8)
C18 C -0.484(1) 0.6799(9) 0.1441(9)
C19 C 0.095(1) 0.7542(9) 0.1527(8)
C20 C -0.006(1) 0.7609(9) 0.2449(7)
C21 C -0.152(1) 0.5918(9) 0.2528(8)
C22 C -0.264(2) 0.538(1) 0.271(1)
C23 C -0.244(2) 0.435(1) 0.273(1)
C24 C -0.117(2) 0.399(1) 0.259(1)
C25 C -0.015(2) 0.460(1) 0.242(1)
C26 C -0.061(1) 0.876(1) 0.390(1)
C27 C -0.132(2) 0.951(2) 0.433(2)
C28 C -0.160(3) 0.945(2) 0.527(2)
C29 C -0.110(2) 0.866(2) 0.578(1)
C30 C -0.043(2) 0.796(1) 0.529(1)
H1 H -0.2786 0.8546 0.0691
H2 H -0.1513 0.9206 0.0520
H3 H -0.2404 0.9230 -0.0231
H4 H 0.0765 0.8958 -0.1431
H5 H 0.1651 0.8105 -0.1090
H6 H 0.0947 0.7995 -0.1923
H7 H -0.0123 0.5871 -0.0306
H8 H -0.0975 0.6075 0.0672
H9 H -0.1703 0.5918 -0.0138
H10 H -0.3017 0.7408 -0.2770
H11 H -0.2501 0.4154 -0.2809
H12 H -0.1497 0.3740 -0.4270
H13 H -0.1366 0.4861 -0.5570
H14 H -0.2226 0.6412 -0.5341
H15 H -0.6788 0.9397 -0.2577
H16 H -0.6258 1.1082 -0.2658
H17 H -0.3938 1.1476 -0.2700
H18 H -0.2497 1.0292 -0.2371
H19 H -0.5674 0.9137 0.0418
H20 H -0.5864 0.8907 -0.0564
H21 H -0.7127 0.9002 0.0244
H22 H -0.7259 0.6401 -0.0557
H23 H -0.5985 0.5785 -0.0406
H24 H -0.7311 0.5727 0.0365
H25 H -0.4836 0.6103 0.1528
H26 H -0.3931 0.7019 0.1193
H27 H -0.5170 0.7056 0.2027
H28 H 0.0298 0.7193 0.2900
H29 H -0.3522 0.5666 0.2817
H30 H -0.3201 0.3922 0.2849
H31 H -0.1006 0.3300 0.2608
H32 H 0.0750 0.4330 0.2338
H33 H -0.1631 1.0054 0.3975
H34 H -0.2124 0.9949 0.5592
H35 H -0.1241 0.8613 0.6442
H36 H -0.0108 0.7409 0.5629
Sn2_2 Sn 0.3912(1) 0.7285(1) 0.04962(5)
O3_2 O -0.7838(9) 0.7347(6) 0.1639(5)
Cl1 Cl -0.463(2) 0.863(1) 0.5005(8)
Cl2 Cl -0.531(1) 0.6972(9) 0.4327(7)
Cl3 Cl -0.708(1) 0.7943(9) 0.5576(9)
C31 C -0.542(3) 0.757(2) 0.524(2)
H37 H -0.5049 0.7138 0.5676
loop_
_geom_bond_atom_site_label_1
_geom_bond_atom_site_label_2
_geom_bond_site_symmetry_1
_geom_bond_site_symmetry_2
Sn1 O1 1_555 1_555
Sn2 O2 1_555 1_555
Cl1 C31 1_555 1_555
Cl2 C31 1_555 1_555
Cl3 C31 1_555 1_555
S1 C5 1_555 1_555
S2 C5 1_555 1_555
S3 C20 1_555 1_555
S4 C20 1_555 1_555
O1 C4 1_555 1_555
O2 C4 1_555 1_555
O3 C19 1_555 1_555
O4 Sn1 1_555 1_555
N1 C6 1_555 1_555
N2 C11 1_555 1_555
N3 C21 1_555 1_555
N4 C26 1_555 1_555
C1 Sn1 1_555 1_555
C2 Sn1 1_555 1_555
C3 Sn1 1_555 1_555
C4 C5 1_555 1_555
C5 H10 1_555 1_555
C6 S1 1_555 1_555
C7 C6 1_555 1_555
C8 C7 1_555 1_555
C9 C8 1_555 1_555
C10 N1 1_555 1_555
C11 S2 1_555 1_555
C12 C11 1_555 1_555
C13 C12 1_555 1_555
C14 C13 1_555 1_555
C15 N2 1_555 1_555
C16 Sn2 1_555 1_555
C17 Sn2 1_555 1_555
C18 Sn2 1_555 1_555
C19 O4 1_555 1_555
C20 C19 1_555 1_555
C21 S3 1_555 1_555
C22 C21 1_555 1_555
C23 C22 1_555 1_555
C24 C23 1_555 1_555
C25 N3 1_555 1_555
C26 S4 1_555 1_555
C27 C26 1_555 1_555
C28 C27 1_555 1_555
C29 C28 1_555 1_555
C30 N4 1_555 1_555
C31 H37 1_555 1_555
H1 C1 1_555 1_555
H2 C1 1_555 1_555
H3 C1 1_555 1_555
H4 C2 1_555 1_555
H5 C2 1_555 1_555
H6 C2 1_555 1_555
H7 C3 1_555 1_555
H8 C3 1_555 1_555
H9 C3 1_555 1_555
H11 C7 1_555 1_555
H12 C8 1_555 1_555
H13 C9 1_555 1_555
H14 C10 1_555 1_555
H15 C12 1_555 1_555
H16 C13 1_555 1_555
H17 C14 1_555 1_555
H18 C15 1_555 1_555
H19 C16 1_555 1_555
H20 C16 1_555 1_555
H21 C16 1_555 1_555
H22 C17 1_555 1_555
H23 C17 1_555 1_555
H24 C17 1_555 1_555
H25 C18 1_555 1_555
H26 C18 1_555 1_555
H27 C18 1_555 1_555
H28 C20 1_555 1_555
H29 C22 1_555 1_555
H30 C23 1_555 1_555
H31 C24 1_555 1_555
H32 C25 1_555 1_555
H33 C27 1_555 1_555
H34 C28 1_555 1_555
H35 C29 1_555 1_555
H36 C30 1_555 1_555
Sn2_2 O3 1_555 1_555
O3_2 Sn2 1_555 1_555
C9 C10 1_555 1_555
C14 C15 1_555 1_555
C24 C25 1_555 1_555
C29 C30 1_555 1_555

#END
