
#######################################################################
#
#                 Cambridge Crystallographic Data Centre
#                                CCDC 
#
#######################################################################
#
# If this CIF has been generated from an entry in the Cambridge 
# Structural Database, then it will include bibliographic, chemical, 
# crystal, experimental, refinement or atomic coordinate data resulting 
# from the CCDC's data processing and validation procedures.
#
#######################################################################

data_SASGOJ
_symmetry_cell_setting           monoclinic
_symmetry_space_group_name_H-M   'P 21/n'
_symmetry_Int_Tables_number      14
_space_group_name_Hall           '-P 2yn'
loop_
_symmetry_equiv_pos_site_id
_symmetry_equiv_pos_as_xyz
1 x,y,z
2 1/2-x,1/2+y,1/2-z
3 -x,-y,-z
4 1/2+x,1/2-y,1/2+z
_cell_length_a                   7.6169(15)
_cell_length_b                   19.707(4)
_cell_length_c                   15.076(3)
_cell_angle_alpha                90
_cell_angle_beta                 98.19(3)
_cell_angle_gamma                90
_cell_volume                     2239.92
loop_
_atom_site_label
_atom_site_type_symbol
_atom_site_fract_x
_atom_site_fract_y
_atom_site_fract_z
C1 C 1.2592(12) 0.4159(5) 1.0829(7)
C2 C 1.1183(17) 0.3726(6) 1.0843(9)
H1 H 1.1146 0.3457 1.1346
C3 C 0.9820(15) 0.3678(5) 1.0137(8)
H2 H 0.8879 0.3381 1.0160
C4 C 0.9890(13) 0.4080(4) 0.9398(7)
C5 C 1.1274(14) 0.4528(5) 0.9378(7)
H3 H 1.1292 0.4807 0.8882
C6 C 1.2605(13) 0.4566(5) 1.0073(7)
H4 H 1.3539 0.4866 1.0047
C7 C 1.4095(17) 0.4180(6) 1.1595(8)
C8 C 0.7320(15) 0.3576(5) 0.8567(6)
C9 C 0.7749(13) 0.2930(5) 0.8272(6)
H5 H 0.8903 0.2827 0.8183
C10 C 0.6420(14) 0.2454(5) 0.8118(6)
H6 H 0.6696 0.2020 0.7936
C11 C 0.4685(13) 0.2599(5) 0.8225(6)
C12 C 0.4316(14) 0.3249(5) 0.8517(7)
H7 H 0.3162 0.3361 0.8595
C13 C 0.5645(17) 0.3727(5) 0.8690(7)
H8 H 0.5384 0.4156 0.8892
C14 C 0.3234(16) 0.2107(6) 0.8037(7)
C15 C 0.2685(14) -0.0479(7) 0.8062(10)
H9 H 0.2551 -0.0467 0.7440
C16 C 0.3438(17) -0.1059(6) 0.8508(15)
H10 H 0.3807 -0.1427 0.8195
C17 C 0.3602(16) -0.1058(8) 0.9432(15)
H11 H 0.4092 -0.1438 0.9740
C18 C 0.3078(15) -0.0524(7) 0.9922(9)
C19 C 0.3202(15) -0.0489(9) 1.0892(10)
H12 H 0.3707 -0.0850 1.1235
C20 C 0.2608(19) 0.0051(9) 1.1309(9)
H13 H 0.2676 0.0051 1.1929
C21 C 0.1881(16) 0.0619(8) 1.0812(9)
C22 C 0.124(2) 0.1214(10) 1.1186(10)
H14 H 0.1279 0.1243 1.1804
C23 C 0.061(2) 0.1722(10) 1.0686(10)
H15 H 0.0185 0.2106 1.0942
C24 C 0.0590(18) 0.1683(7) 0.9769(10)
H16 H 0.0180 0.2055 0.9422
C25 C 0.1764(13) 0.0616(6) 0.9871(7)
C26 C 0.2348(12) 0.0037(6) 0.9414(8)
N1 N 0.1111(11) 0.1151(5) 0.9367(5)
N2 N 0.2161(10) 0.0051(4) 0.8496(6)
O1 O 0.8599(10) 0.4085(3) 0.8657(5)
O2 O 0.3611(8) 0.1478(4) 0.7948(4)
O3 O 0.1679(12) 0.2295(4) 0.7971(6)
O4 O 1.5463(11) 0.4494(4) 1.1516(5)
O5 O 1.3907(10) 0.3858(4) 1.2297(6)
Zn1 Zn 0.13072(14) 0.10092(5) 0.79874(7)
O4C O 0.0463(11) 0.0506(4) 0.6516(5)
O5C O -0.1093(10) 0.1142(4) 0.7297(6)
Zn1C Zn 1.63072(14) 0.39908(5) 1.29874(7)
O6 O 0.428(5) -0.2677(9) 0.9091(15)
loop_
_geom_bond_atom_site_label_1
_geom_bond_atom_site_label_2
_geom_bond_site_symmetry_1
_geom_bond_site_symmetry_2
C1 C2 1_555 1_555
C2 H1 1_555 1_555
C3 C2 1_555 1_555
H2 C3 1_555 1_555
C4 C3 1_555 1_555
C5 C4 1_555 1_555
H3 C5 1_555 1_555
C6 C1 1_555 1_555
H4 C6 1_555 1_555
C7 C1 1_555 1_555
C8 C9 1_555 1_555
C9 H5 1_555 1_555
C10 C9 1_555 1_555
H6 C10 1_555 1_555
C11 C10 1_555 1_555
C12 C11 1_555 1_555
H7 C12 1_555 1_555
C13 C8 1_555 1_555
H8 C13 1_555 1_555
C14 C11 1_555 1_555
C15 H9 1_555 1_555
C16 C15 1_555 1_555
H10 C16 1_555 1_555
C17 C16 1_555 1_555
H11 C17 1_555 1_555
C18 C17 1_555 1_555
C19 C18 1_555 1_555
H12 C19 1_555 1_555
C20 C19 1_555 1_555
H13 C20 1_555 1_555
C21 C20 1_555 1_555
C22 C21 1_555 1_555
H14 C22 1_555 1_555
C23 C22 1_555 1_555
H15 C23 1_555 1_555
C24 C23 1_555 1_555
H16 C24 1_555 1_555
C25 C21 1_555 1_555
C26 C18 1_555 1_555
N1 C24 1_555 1_555
N2 C15 1_555 1_555
O1 C4 1_555 1_555
O2 C14 1_555 1_555
O3 C14 1_555 1_555
O4 C7 1_555 1_555
O5 C7 1_555 1_555
Zn1 N1 1_555 1_555
O4C Zn1 1_555 1_555
O5C Zn1 1_555 1_555
Zn1C O4 1_555 1_555
C5 C6 1_555 1_555
C8 O1 1_555 1_555
C12 C13 1_555 1_555
C25 C26 1_555 1_555
C25 N1 1_555 1_555
C26 N2 1_555 1_555
N2 Zn1 1_555 1_555
O2 Zn1 1_555 1_555
O5 Zn1C 1_555 1_555

#END
