
#######################################################################
#
#                 Cambridge Crystallographic Data Centre
#                                CCDC 
#
#######################################################################
#
# If this CIF has been generated from an entry in the Cambridge 
# Structural Database, then it will include bibliographic, chemical, 
# crystal, experimental, refinement or atomic coordinate data resulting 
# from the CCDC's data processing and validation procedures.
#
#######################################################################

data_SASPIL
_symmetry_cell_setting           orthorhombic
_symmetry_space_group_name_H-M   'P 21 2 21'
_symmetry_Int_Tables_number      18
_space_group_name_Hall           'P 2ac 2ac'
loop_
_symmetry_equiv_pos_site_id
_symmetry_equiv_pos_as_xyz
1 x,y,z
2 1/2+x,-y,1/2-z
3 -x,y,-z
4 1/2-x,-y,1/2+z
_cell_length_a                   4.692
_cell_length_b                   10.856
_cell_length_c                   22.214
_cell_angle_alpha                90
_cell_angle_beta                 90
_cell_angle_gamma                90
_cell_volume                     1131.5
loop_
_atom_site_label
_atom_site_type_symbol
_atom_site_fract_x
_atom_site_fract_y
_atom_site_fract_z
S1 S 1.5000 -0.0608 0.2500
Na1 Na 1.5000 -0.2815 0.2500
N1 N 1.5000 0.1946 0.2500
C1 C 1.5000 0.0895 0.2500
C2 C 1.5576 -0.1134 0.1295
C3 C 1.4649 -0.0765 0.0663
C4 C 1.5695 -0.1700 0.0213
C5 C 1.4824 -0.2992 0.0399
C6 C 1.5704 -0.3265 0.1053
C7 C 1.4572 -0.4502 0.1281
C8 C 1.5540 -0.5590 0.0890
C9 C 1.5393 -0.6798 0.1168
C10 C 1.5393 -0.6906 0.1827
C11 C 1.4423 -0.5751 0.2175
O1 O 1.4544 -0.2357 0.1443
O2 O 1.5608 -0.4664 0.1890
C4B C 1.4305 -0.1700 -0.0213
C3B C 1.5351 -0.0765 -0.0663
C2B C 1.4424 -0.1134 -0.1295
O1B O 1.5456 -0.2357 -0.1443
C6B C 1.4296 -0.3265 -0.1053
C5B C 1.5176 -0.2992 -0.0399
C7B C 1.5428 -0.4502 -0.1281
C8B C 1.4460 -0.5590 -0.0890
C9B C 1.4607 -0.6798 -0.1168
C10B C 1.4607 -0.6906 -0.1827
C11B C 1.5577 -0.5751 -0.2175
O2B O 1.4392 -0.4664 -0.1890
S1A S 1.0000 0.0608 0.2500
N1A N 1.0000 -0.1946 0.2500
C1A C 1.0000 -0.0895 0.2500
Na1A Na 1.0000 0.2815 0.2500
N1A_2 N 2.0000 -0.1946 0.2500
Na1A_2 Na 2.0000 0.2815 0.2500
Na1B Na 1.5000 -0.2815 -0.2500
Na1_2 Na 0.5000 -0.2815 0.2500
N1_2 N 0.5000 0.1946 0.2500
O1A O 0.9544 0.2357 0.3557
O2A O 1.0608 0.4664 0.3110
loop_
_geom_bond_atom_site_label_1
_geom_bond_atom_site_label_2
_geom_bond_site_symmetry_1
_geom_bond_site_symmetry_2
S1 Na1 1_555 1_555
Na1 O1 1_555 1_555
N1 C1 1_555 1_555
C1 S1 1_555 1_555
C2 C3 1_555 1_555
C3 C4 1_555 1_555
C4 C5 1_555 1_555
C5 C6 1_555 1_555
C6 C7 1_555 1_555
C7 C8 1_555 1_555
C8 C9 1_555 1_555
C9 C10 1_555 1_555
C10 C11 1_555 1_555
C11 O2 1_555 1_555
O1 C2 1_555 1_555
O2 Na1 1_555 1_555
C4B C4 1_555 1_555
C3B C4B 1_555 1_555
C2B C3B 1_555 1_555
O1B C2B 1_555 1_555
C6B O1B 1_555 1_555
C5B C4B 1_555 1_555
C7B C6B 1_555 1_555
C8B C7B 1_555 1_555
C9B C8B 1_555 1_555
C10B C9B 1_555 1_555
C11B C10B 1_555 1_555
O2B C7B 1_555 1_555
S1A C1A 1_555 1_555
N1A Na1 1_555 1_555
C1A N1A 1_555 1_555
Na1A N1 1_555 1_555
N1A_2 Na1 1_555 1_555
Na1A_2 N1 1_555 1_555
Na1B O1B 1_555 1_555
Na1_2 N1A 1_555 1_555
N1_2 Na1A 1_555 1_555
O1A Na1A 1_555 1_555
O2A Na1A 1_555 1_555
C6 O1 1_555 1_555
C7 O2 1_555 1_555
C6B C5B 1_555 1_555
C11B O2B 1_555 1_555
O2B Na1B 1_555 1_555
S1A Na1A 1_555 1_555

#END
