
#######################################################################
#
#                 Cambridge Crystallographic Data Centre
#                                CCDC 
#
#######################################################################
#
# If this CIF has been generated from an entry in the Cambridge 
# Structural Database, then it will include bibliographic, chemical, 
# crystal, experimental, refinement or atomic coordinate data resulting 
# from the CCDC's data processing and validation procedures.
#
#######################################################################

data_SASWIT
_symmetry_cell_setting           triclinic
_symmetry_space_group_name_H-M   'P -1'
_symmetry_Int_Tables_number      2
_space_group_name_Hall           '-P 1'
loop_
_symmetry_equiv_pos_site_id
_symmetry_equiv_pos_as_xyz
1 x,y,z
2 -x,-y,-z
_cell_length_a                   8.7940(4)
_cell_length_b                   9.2890(4)
_cell_length_c                   12.7670(13)
_cell_angle_alpha                81.47(2)
_cell_angle_beta                 86.40(2)
_cell_angle_gamma                65.79(2)
_cell_volume                     940.655
loop_
_atom_site_label
_atom_site_type_symbol
_atom_site_fract_x
_atom_site_fract_y
_atom_site_fract_z
Cu1 Cu 0.76456(8) 0.53178(7) -0.15479(5)
Cu2 Cu 0.85833(9) 0.52242(7) 0.18104(6)
Cl1 Cl 0.75869(19) 0.48818(18) 0.02244(12)
Cl2 Cl 0.90376(17) 0.68206(15) -0.22491(12)
S1 S 1.48283(17) -0.02267(15) -0.70100(11)
O1 O 1.6689(5) -0.4740(4) -0.6156(3)
O2 O 0.9012(5) 0.2534(4) -0.3183(3)
O3 O 1.7883(5) 0.0877(4) -1.0452(3)
N1 N 1.7045(6) -0.0668(5) -0.8572(4)
N2 N 1.7092(5) -0.2980(5) -0.7488(3)
C1 C 1.0688(7) -0.0100(6) -0.3396(4)
H1 H 1.0160 -0.0416 -0.2810
C2 C 1.0217(7) 0.1523(6) -0.3747(4)
C3 C 1.2736(7) -0.0806(6) -0.4788(4)
C4 C 0.6192(7) 0.4332(7) -0.2147(4)
H2 H 0.6685 0.3234 -0.1955
H3 H 0.5283 0.4955 -0.1767
C5 C 0.6798(7) 0.5024(7) -0.2979(4)
H4 H 0.6272 0.6125 -0.3147
C6 C 0.8236(7) 0.4161(6) -0.3644(4)
H5 H 0.7859 0.4225 -0.4354
H6 H 0.9033 0.4645 -0.3692
C7 C 1.4046(6) -0.2069(6) -0.5310(4)
H7 H 1.4280 -0.3103 -0.4988
C8 C 1.4958(7) -0.1954(6) -0.6184(4)
C9 C 1.6484(6) -0.1382(6) -0.7766(4)
C10 C 1.6397(8) 0.1089(6) -0.8789(5)
H8 H 1.7120 0.1454 -0.8466
H9 H 1.5293 0.1558 -0.8482
C11 C 1.6315(7) 0.1610(7) -0.9964(5)
H10 H 1.5503 0.1339 -1.0273
H11 H 1.5949 0.2758 -1.0099
C12 C 1.6282(6) -0.3352(6) -0.6578(4)
C13 C 1.1035(7) 0.1972(6) -0.4621(4)
H12 H 1.0757 0.3045 -0.4857
C14 C 1.8397(8) -0.0817(7) -1.0306(5)
H13 H 1.9451 -0.1307 -1.0668
H14 H 1.7577 -0.1072 -1.0620
C15 C 1.1918(7) -0.1229(6) -0.3905(4)
H15 H 1.2213 -0.2301 -0.3657
C16 C 1.8589(7) -0.1482(7) -0.9161(5)
H16 H 1.8846 -0.2612 -0.9086
H17 H 1.9508 -0.1351 -0.8868
C17 C 1.2252(7) 0.0827(6) -0.5133(4)
H18 H 1.2770 0.1143 -0.5724
Cu2A Cu 1.14167(9) 0.47758(7) -0.18104(6)
Cu2_2 Cu 1.85833(9) -0.47758(7) -0.81896(6)
Cl2A Cl 1.09624(17) 0.31794(15) 0.22491(12)
N2_2 N 0.7092(5) 0.7020(5) 0.2512(3)
loop_
_geom_bond_atom_site_label_1
_geom_bond_atom_site_label_2
_geom_bond_site_symmetry_1
_geom_bond_site_symmetry_2
Cu1 Cl1 1_555 1_555
Cu2 Cl1 1_555 1_555
Cl2 Cu1 1_555 1_555
S1 C8 1_555 1_555
O1 C12 1_555 1_555
O2 C2 1_555 1_555
O3 C11 1_555 1_555
N1 C9 1_555 1_555
N2 C9 1_555 1_555
C1 H1 1_555 1_555
C2 C1 1_555 1_555
C3 C7 1_555 1_555
C4 Cu1 1_555 1_555
H2 C4 1_555 1_555
H3 C4 1_555 1_555
C5 Cu1 1_555 1_555
H4 C5 1_555 1_555
C6 O2 1_555 1_555
H5 C6 1_555 1_555
H6 C6 1_555 1_555
C7 H7 1_555 1_555
C8 C7 1_555 1_555
C9 S1 1_555 1_555
C10 N1 1_555 1_555
H8 C10 1_555 1_555
H9 C10 1_555 1_555
C11 C10 1_555 1_555
H10 C11 1_555 1_555
H11 C11 1_555 1_555
C12 N2 1_555 1_555
C13 C2 1_555 1_555
H12 C13 1_555 1_555
C14 O3 1_555 1_555
H13 C14 1_555 1_555
H14 C14 1_555 1_555
C15 C1 1_555 1_555
H15 C15 1_555 1_555
C16 N1 1_555 1_555
H16 C16 1_555 1_555
H17 C16 1_555 1_555
C17 C3 1_555 1_555
H18 C17 1_555 1_555
Cu2A Cl2 1_555 1_555
Cu2_2 N2 1_555 1_555
Cl2A Cu2 1_555 1_555
N2_2 Cu2 1_555 1_555
C3 C15 1_555 1_555
C4 C5 1_555 1_555
C5 C6 1_555 1_555
C8 C12 1_555 1_555
C13 C17 1_555 1_555
C14 C16 1_555 1_555

#END
