
#######################################################################
#
#                 Cambridge Crystallographic Data Centre
#                                CCDC 
#
#######################################################################
#
# If this CIF has been generated from an entry in the Cambridge 
# Structural Database, then it will include bibliographic, chemical, 
# crystal, experimental, refinement or atomic coordinate data resulting 
# from the CCDC's data processing and validation procedures.
#
#######################################################################

data_SATBEW
_symmetry_cell_setting           orthorhombic
_symmetry_space_group_name_H-M   'C c c a'
_symmetry_Int_Tables_number      68
_space_group_name_Hall           '-C 2b 2bc'
loop_
_symmetry_equiv_pos_site_id
_symmetry_equiv_pos_as_xyz
1 x,y,z
2 1/2-x,-y,z
3 -x,y,1/2-z
4 1/2+x,-y,1/2-z
5 1/2+x,1/2+y,z
6 -x,1/2-y,z
7 1/2-x,1/2+y,1/2-z
8 x,1/2-y,1/2-z
9 -x,-y,-z
10 1/2+x,y,-z
11 x,-y,1/2+z
12 1/2-x,y,1/2+z
13 1/2-x,1/2-y,-z
14 x,1/2+y,-z
15 1/2+x,1/2-y,1/2+z
16 -x,1/2+y,1/2+z
_cell_length_a                   25.910(5)
_cell_length_b                   32.157(6)
_cell_length_c                   13.697(3)
_cell_angle_alpha                90
_cell_angle_beta                 90
_cell_angle_gamma                90
_cell_volume                     11412.2
loop_
_atom_site_label
_atom_site_type_symbol
_atom_site_fract_x
_atom_site_fract_y
_atom_site_fract_z
Br1 Br 0.40485(3) -0.06994(2) 0.92814(5)
C1 C 0.3018(3) -0.34901(18) 0.2343(4)
H1 H 0.2900 -0.3468 0.1704
C2 C 0.3023(3) -0.31436(19) 0.2905(4)
H2 H 0.2917 -0.2890 0.2646
C3 C 0.3190(3) -0.31676(19) 0.3879(4)
C4 C 0.3345(3) -0.35461(19) 0.4213(4)
H3 H 0.3457 -0.3578 0.4853
C5 C 0.3333(2) -0.38830(19) 0.3586(4)
H4 H 0.3440 -0.4140 0.3821
C6 C 0.3195(3) -0.27937(19) 0.4512(4)
C7 C 0.3206(3) -0.21496(19) 0.5588(4)
C8 C 0.3238(3) -0.17665(17) 0.6206(4)
C9 C 0.3028(2) -0.13948(19) 0.5894(4)
H5 H 0.2865 -0.1377 0.5291
C10 C 0.3063(2) -0.10512(17) 0.6490(4)
H6 H 0.2920 -0.0802 0.6281
C11 C 0.3503(3) -0.14193(18) 0.7644(4)
H7 H 0.3671 -0.1428 0.8244
C12 C 0.3481(3) -0.17760(18) 0.7101(4)
H8 H 0.3629 -0.2021 0.7331
C13 C 0.3991(2) 0.1057(2) 0.9491(4)
H9 H 0.3940 0.1294 0.9114
C14 C 0.4301(2) 0.1089(2) 1.0307(4)
H10 H 0.4442 0.1343 1.0488
C15 C 0.4395(2) 0.07412(19) 1.0843(4)
C16 C 0.4172(3) 0.0383(2) 1.0562(5)
H11 H 0.4238 0.0140 1.0905
C17 C 0.3850(3) 0.0375(2) 0.9782(5)
H12 H 0.3681 0.0129 0.9630
C18 C 0.4723(2) 0.0758(2) 1.1740(4)
Cu1 Cu 0.32928(3) -0.05517(2) 0.83068(5)
Cu2 Cu 0.31714(3) 0.06387(2) 0.82399(5)
N1 N 0.31738(18) -0.38570(14) 0.2657(3)
N2 N 0.2997(3) -0.24459(17) 0.4154(3)
N3 N 0.3000(3) -0.21108(16) 0.4710(4)
N4 N 0.3371(3) -0.25002(17) 0.5967(4)
N5 N 0.3362(3) -0.28401(17) 0.5413(4)
N6 N 0.32969(19) -0.10637(14) 0.7360(3)
N7 N 0.3766(2) 0.07122(15) 0.9218(3)
N8 N 0.48526(19) 0.11248(16) 1.2095(3)
N9 N 0.4853(2) 0.03860(18) 1.2105(3)
S1 S 0.32073(6) 0.00354(4) 0.73584(10)
S2 S 0.25502(6) -0.05664(5) 0.92223(9)
W1 W 0.2500 0.0000 0.829044(19)
Br1A Br 0.09515(3) 0.06994(2) 0.92814(5)
C1M C 0.3018(3) 0.15099(18) 0.7657(4)
H1M H 0.2900 0.1532 0.8296
C2M C 0.3023(3) 0.18564(19) 0.7095(4)
H2M H 0.2917 0.2110 0.7354
C3M C 0.3190(3) 0.18324(19) 0.6121(4)
C4M C 0.3345(3) 0.14539(19) 0.5787(4)
H3M H 0.3457 0.1422 0.5147
C5M C 0.3333(2) 0.11170(19) 0.6414(4)
H4M H 0.3440 0.0860 0.6179
C6M C 0.3195(3) 0.22063(19) 0.5488(4)
C7M C 0.3206(3) 0.28504(19) 0.4412(4)
C8M C 0.3238(3) 0.32335(17) 0.3794(4)
C9M C 0.3028(2) 0.36052(19) 0.4106(4)
H5M H 0.2865 0.3623 0.4709
C10M C 0.3063(2) 0.39488(17) 0.3510(4)
H6M H 0.2920 0.4198 0.3719
C11M C 0.3503(3) 0.35807(18) 0.2356(4)
H7M H 0.3671 0.3572 0.1756
C12M C 0.3481(3) 0.32240(18) 0.2899(4)
H8M H 0.3629 0.2979 0.2669
C13B C 0.6009(2) 0.1057(2) 1.5509(4)
H9B H 0.6060 0.1294 1.5886
C14B C 0.5699(2) 0.1089(2) 1.4693(4)
H10B H 0.5558 0.1343 1.4512
C15B C 0.5605(2) 0.07412(19) 1.4157(4)
C16B C 0.5828(3) 0.0383(2) 1.4438(5)
H11B H 0.5762 0.0140 1.4095
C17B C 0.6150(3) 0.0375(2) 1.5218(5)
H12B H 0.6319 0.0129 1.5370
C18B C 0.5277(2) 0.0758(2) 1.3260(4)
Cu1A Cu 0.17072(3) 0.05517(2) 0.83068(5)
Cu1M Cu 0.32928(3) 0.44483(2) 0.16932(5)
Cu2A Cu 0.18286(3) -0.06387(2) 0.82399(5)
Cu2M Cu 0.31714(3) -0.43613(2) 0.17601(5)
Cu2B Cu 0.68286(3) 0.06387(2) 1.67601(5)
N1M N 0.31738(18) 0.11430(14) 0.7343(3)
N1L N 0.18262(18) -0.11430(14) 0.7343(3)
N2M N 0.2997(3) 0.25541(17) 0.5846(3)
N3M N 0.3000(3) 0.28892(16) 0.5290(4)
N4M N 0.3371(3) 0.24998(17) 0.4033(4)
N5M N 0.3362(3) 0.21599(17) 0.4587(4)
N6M N 0.32969(19) 0.39363(14) 0.2640(3)
N6A N 0.17031(19) 0.10637(14) 0.7360(3)
N7B N 0.6234(2) 0.07122(15) 1.5782(3)
N7A N 0.1234(2) -0.07122(15) 0.9218(3)
N8B N 0.51474(19) 0.11248(16) 1.2905(3)
N9B N 0.5147(2) 0.03860(18) 1.2895(3)
S1A S 0.17927(6) -0.00354(4) 0.73584(10)
S2A S 0.24498(6) 0.05664(5) 0.92223(9)
loop_
_geom_bond_atom_site_label_1
_geom_bond_atom_site_label_2
_geom_bond_site_symmetry_1
_geom_bond_site_symmetry_2
Br1 Cu1 1_555 1_555
C1 H1 1_555 1_555
C2 C1 1_555 1_555
H2 C2 1_555 1_555
C3 C2 1_555 1_555
C4 C3 1_555 1_555
H3 C4 1_555 1_555
C5 C4 1_555 1_555
H4 C5 1_555 1_555
C6 C3 1_555 1_555
C7 C8 1_555 1_555
C8 C9 1_555 1_555
C9 H5 1_555 1_555
C10 C9 1_555 1_555
H6 C10 1_555 1_555
C11 H7 1_555 1_555
C12 C8 1_555 1_555
H8 C12 1_555 1_555
C13 H9 1_555 1_555
C14 C13 1_555 1_555
H10 C14 1_555 1_555
C15 C14 1_555 1_555
C16 C15 1_555 1_555
H11 C16 1_555 1_555
C17 C16 1_555 1_555
H12 C17 1_555 1_555
C18 C15 1_555 1_555
Cu1 N6 1_555 1_555
Cu2 N7 1_555 1_555
N1 C1 1_555 1_555
N2 C6 1_555 1_555
N3 C7 1_555 1_555
N4 C7 1_555 1_555
N5 C6 1_555 1_555
N6 C10 1_555 1_555
N7 C13 1_555 1_555
N8 C18 1_555 1_555
N9 C18 1_555 1_555
S1 Cu1 1_555 1_555
S2 Cu1 1_555 1_555
W1 S1 1_555 1_555
Br1A Cu1A 1_555 1_555
C1M H1M 1_555 1_555
C2M C1M 1_555 1_555
H2M C2M 1_555 1_555
C3M C2M 1_555 1_555
C4M C3M 1_555 1_555
H3M C4M 1_555 1_555
C5M C4M 1_555 1_555
H4M C5M 1_555 1_555
C6M C3M 1_555 1_555
C7M C8M 1_555 1_555
C8M C9M 1_555 1_555
C9M H5M 1_555 1_555
C10M C9M 1_555 1_555
H6M C10M 1_555 1_555
C11M H7M 1_555 1_555
C12M C8M 1_555 1_555
H8M C12M 1_555 1_555
C13B H9B 1_555 1_555
C14B C13B 1_555 1_555
H10B C14B 1_555 1_555
C15B C14B 1_555 1_555
C16B C15B 1_555 1_555
H11B C16B 1_555 1_555
C17B C16B 1_555 1_555
H12B C17B 1_555 1_555
C18B C15B 1_555 1_555
Cu1A N6A 1_555 1_555
Cu1M N6M 1_555 1_555
Cu2A S2 1_555 1_555
Cu2M N1 1_555 1_555
Cu2B N7B 1_555 1_555
N1M Cu2 1_555 1_555
N1L Cu2A 1_555 1_555
N2M C6M 1_555 1_555
N3M C7M 1_555 1_555
N4M C7M 1_555 1_555
N5M C6M 1_555 1_555
N6M C10M 1_555 1_555
N7B C13B 1_555 1_555
N7A Cu2A 1_555 1_555
N8B N8 1_555 1_555
N9B N9 1_555 1_555
S1A W1 1_555 1_555
S2A Cu2 1_555 1_555
C5 N1 1_555 1_555
C11 C12 1_555 1_555
C11 N6 1_555 1_555
C17 N7 1_555 1_555
Cu2 S1 1_555 1_555
N2 N3 1_555 1_555
N4 N5 1_555 1_555
S2 W1 1_555 1_555
W1 S2A 1_555 1_555
C1M N1M 1_555 1_555
C5M N1M 1_555 1_555
C11M C12M 1_555 1_555
C11M N6M 1_555 1_555
C17B N7B 1_555 1_555
C18B N8B 1_555 1_555
C18B N9B 1_555 1_555
Cu1A S1A 1_555 1_555
Cu1A S2A 1_555 1_555
Cu2A S1A 1_555 1_555
N2M N3M 1_555 1_555
N4M N5M 1_555 1_555

#END
