
#######################################################################
#
#                 Cambridge Crystallographic Data Centre
#                                CCDC 
#
#######################################################################
#
# If this CIF has been generated from an entry in the Cambridge 
# Structural Database, then it will include bibliographic, chemical, 
# crystal, experimental, refinement or atomic coordinate data resulting 
# from the CCDC's data processing and validation procedures.
#
#######################################################################

data_SATBOE
_symmetry_cell_setting           monoclinic
_symmetry_space_group_name_H-M   'P 21/n'
_symmetry_Int_Tables_number      14
_space_group_name_Hall           '-P 2yn'
loop_
_symmetry_equiv_pos_site_id
_symmetry_equiv_pos_as_xyz
1 x,y,z
2 1/2-x,1/2+y,1/2-z
3 -x,-y,-z
4 1/2+x,1/2-y,1/2+z
_cell_length_a                   10.005(1)
_cell_length_b                   12.149(1)
_cell_length_c                   11.246(1)
_cell_angle_alpha                90
_cell_angle_beta                 96.748(4)
_cell_angle_gamma                90
_cell_volume                     1357.49
loop_
_atom_site_label
_atom_site_type_symbol
_atom_site_fract_x
_atom_site_fract_y
_atom_site_fract_z
Cu1 Cu 0.64795(4) 0.38510(3) 0.38163(3)
O1 O 0.7034(2) 0.4412(2) 0.5391(2)
O2 O 0.5770(2) 0.3263(2) 0.2295(2)
O3 O 0.5682(2) 0.5238(2) 0.3287(2)
O4 O 0.7025(2) 0.2422(2) 0.4423(2)
N1 N 0.6565(4) 0.8216(2) 0.5944(3)
N2 N 0.8657(3) 0.4442(2) 0.3202(2)
C1 C 0.6997(3) 0.5399(2) 0.5744(3)
C2 C 0.5783(3) 0.2273(3) 0.1949(3)
C3 C 0.5767(3) 0.6141(2) 0.3840(3)
C4 C 0.6948(3) 0.1518(2) 0.3869(3)
C5 C 0.6421(3) 0.6272(2) 0.5019(3)
C6 C 0.6348(3) 0.1399(2) 0.2673(3)
C7 C 0.6491(3) 0.7361(3) 0.5534(3)
C8 C 0.8685(3) 0.5317(3) 0.2825(3)
C9 C 0.7589(4) 0.5612(3) 0.7007(3)
C10 C 0.5146(4) 0.2059(3) 0.0696(3)
C11 C 0.5106(4) 0.7112(3) 0.3185(3)
C12 C 0.7530(5) 0.0525(3) 0.4538(3)
H1 H 0.703(5) 0.596(4) 0.741(5)
H2 H 0.851(4) 0.597(3) 0.703(4)
H3 H 0.775(5) 0.504(4) 0.737(5)
H4 H 0.545(4) 0.156(3) 0.034(3)
H5 H 0.438(4) 0.202(3) 0.077(3)
H6 H 0.546(5) 0.264(5) 0.022(5)
H7 H 0.474(5) 0.693(4) 0.249(4)
H8 H 0.437(4) 0.735(4) 0.351(4)
H9 H 0.565(4) 0.759(4) 0.296(3)
H10 H 0.674(4) 0.019(4) 0.486(4)
H11 H 0.804(5) -0.001(5) 0.404(5)
H12 H 0.796(4) 0.068(3) 0.518(3)
C8A C 0.6315(3) 0.0317(3) 0.2175(3)
C6A C 0.8652(3) 0.6399(2) 0.2327(3)
N2A N 0.6343(3) -0.0558(2) 0.1798(2)
C2A C 0.9217(3) 0.7273(3) 0.3051(3)
C4A C 0.8052(3) 0.6518(2) 0.1131(3)
Cu1A Cu 0.85205(4) -0.11490(3) 0.11837(3)
O2A O 0.9230(2) 0.8263(2) 0.2705(2)
C10A C 0.9854(4) 0.7059(3) 0.4304(3)
O4A O 0.7975(2) 0.7422(2) 0.0577(2)
C12A C 0.7470(5) 0.5525(3) 0.0462(3)
O1A O 0.7966(2) -0.0588(2) -0.0391(2)
O2A_2 O 0.9230(2) -0.1737(2) 0.2705(2)
O3A O 0.9318(2) 0.0238(2) 0.1713(2)
O4A_2 O 0.7975(2) -0.2578(2) 0.0577(2)
Cu1A_2 Cu 0.85205(4) 0.88510(3) 0.11837(3)
H4A H 0.955(4) 0.656(3) 0.466(3)
H5A H 1.062(4) 0.702(3) 0.423(3)
H6A H 0.954(5) 0.764(5) 0.478(5)
H10A H 0.826(4) 0.519(4) 0.014(4)
H11A H 0.696(5) 0.499(5) 0.096(5)
H12A H 0.704(4) 0.568(3) -0.018(3)
C1A C 0.8003(3) 0.0399(2) -0.0744(3)
C3A C 0.9233(3) 0.1141(2) 0.1160(3)
C5A C 0.8579(3) 0.1272(2) -0.0019(3)
C9A C 0.7411(4) 0.0612(3) -0.2007(3)
C11A C 0.9894(4) 0.2112(3) 0.1815(3)
C7A C 0.8509(3) 0.2361(3) -0.0534(3)
H1A H 0.797(5) 0.096(4) -0.241(5)
H2A H 0.649(4) 0.097(3) -0.203(4)
H3A H 0.725(5) 0.004(4) -0.237(5)
H7A H 1.026(5) 0.193(4) 0.251(4)
H8A H 1.063(4) 0.235(4) 0.149(4)
H9A H 0.935(4) 0.259(4) 0.204(3)
N1A N 0.8435(4) 0.3216(2) -0.0944(3)
loop_
_geom_bond_atom_site_label_1
_geom_bond_atom_site_label_2
_geom_bond_site_symmetry_1
_geom_bond_site_symmetry_2
Cu1 O1 1_555 1_555
O1 C1 1_555 1_555
O2 Cu1 1_555 1_555
O3 Cu1 1_555 1_555
O4 Cu1 1_555 1_555
N1 C7 1_555 1_555
N2 Cu1 1_555 1_555
C1 C5 1_555 1_555
C2 O2 1_555 1_555
C3 O3 1_555 1_555
C4 O4 1_555 1_555
C5 C3 1_555 1_555
C6 C2 1_555 1_555
C7 C5 1_555 1_555
C8 N2 1_555 1_555
C9 C1 1_555 1_555
C10 C2 1_555 1_555
C11 C3 1_555 1_555
C12 C4 1_555 1_555
H1 C9 1_555 1_555
H2 C9 1_555 1_555
H3 C9 1_555 1_555
H4 C10 1_555 1_555
H5 C10 1_555 1_555
H6 C10 1_555 1_555
H7 C11 1_555 1_555
H8 C11 1_555 1_555
H9 C11 1_555 1_555
H10 C12 1_555 1_555
H11 C12 1_555 1_555
H12 C12 1_555 1_555
C8A C6 1_555 1_555
C6A C8 1_555 1_555
N2A C8A 1_555 1_555
C2A C6A 1_555 1_555
C4A C6A 1_555 1_555
Cu1A N2A 1_555 1_555
O2A C2A 1_555 1_555
C10A C2A 1_555 1_555
O4A C4A 1_555 1_555
C12A C4A 1_555 1_555
O1A Cu1A 1_555 1_555
O2A_2 Cu1A 1_555 1_555
O3A Cu1A 1_555 1_555
O4A_2 Cu1A 1_555 1_555
Cu1A_2 O2A 1_555 1_555
H4A C10A 1_555 1_555
H5A C10A 1_555 1_555
H6A C10A 1_555 1_555
H10A C12A 1_555 1_555
H11A C12A 1_555 1_555
H12A C12A 1_555 1_555
C1A O1A 1_555 1_555
C3A O3A 1_555 1_555
C5A C1A 1_555 1_555
C9A C1A 1_555 1_555
C11A C3A 1_555 1_555
C7A C5A 1_555 1_555
H1A C9A 1_555 1_555
H2A C9A 1_555 1_555
H3A C9A 1_555 1_555
H7A C11A 1_555 1_555
H8A C11A 1_555 1_555
H9A C11A 1_555 1_555
N1A C7A 1_555 1_555
C4 C6 1_555 1_555
O4A Cu1A_2 1_555 1_555
C3A C5A 1_555 1_555

#END
