
#######################################################################
#
#                 Cambridge Crystallographic Data Centre
#                                CCDC 
#
#######################################################################
#
# If this CIF has been generated from an entry in the Cambridge 
# Structural Database, then it will include bibliographic, chemical, 
# crystal, experimental, refinement or atomic coordinate data resulting 
# from the CCDC's data processing and validation procedures.
#
#######################################################################

data_SATBIA
_symmetry_cell_setting           monoclinic
_symmetry_space_group_name_H-M   'P 2/c'
_symmetry_Int_Tables_number      13
_space_group_name_Hall           '-P 2yc'
loop_
_symmetry_equiv_pos_site_id
_symmetry_equiv_pos_as_xyz
1 x,y,z
2 -x,y,1/2-z
3 -x,-y,-z
4 x,-y,1/2+z
_cell_length_a                   12.7204(11)
_cell_length_b                   18.9452(17)
_cell_length_c                   19.4378(18)
_cell_angle_alpha                90
_cell_angle_beta                 101.771(2)
_cell_angle_gamma                90
_cell_volume                     4585.82
loop_
_atom_site_label
_atom_site_type_symbol
_atom_site_fract_x
_atom_site_fract_y
_atom_site_fract_z
C1 C 1.1761(5) 1.5665(4) 0.2888(4)
H1 H 1.2153 1.5420 0.2611
C2 C 1.1054(6) 1.5292(4) 0.3215(4)
H2 H 1.1001 1.4804 0.3164
C3 C 1.0441(5) 1.5635(4) 0.3607(4)
C4 C 1.0592(6) 1.6341(5) 0.3686(4)
H3 H 1.0209 1.6597 0.3962
C5 C 1.1315(6) 1.6681(4) 0.3358(5)
H4 H 1.1407 1.7166 0.3420
C6 C 0.9665(5) 1.5256(4) 0.3919(4)
H5 H 0.9628 1.4767 0.3869
C7 C 0.7765(5) 1.5320(4) 0.4851(4)
H6 H 0.7782 1.5804 0.4929
C8 C 0.7010(5) 1.4869(4) 0.5141(3)
C9 C 0.6409(5) 1.5124(4) 0.5585(4)
H7 H 0.6439 1.5600 0.5703
C10 C 0.5753(5) 1.4673(4) 0.5858(3)
H8 H 0.5345 1.4860 0.6160
C11 C 0.6255(7) 1.3753(4) 0.5279(5)
H9 H 0.6202 1.3277 0.5161
C12 C 0.6926(6) 1.4165(5) 0.4995(5)
H10 H 0.7332 1.3965 0.4698
C13 C -0.1513(6) 0.7532(4) 0.3851(4)
H11 H -0.1757 0.7149 0.4073
C14 C -0.0831(6) 0.7999(4) 0.4249(4)
H12 H -0.0637 0.7936 0.4733
C15 C -0.0433(5) 0.8554(4) 0.3941(4)
C16 C -0.0777(6) 0.8629(4) 0.3233(4)
H13 H -0.0529 0.9002 0.2999
C17 C -0.1492(6) 0.8152(4) 0.2870(4)
H14 H -0.1739 0.8222 0.2391
C18 C 0.0326(6) 0.9064(4) 0.4331(5)
H15 H 0.0584 0.9424 0.4085
C19 C 0.1679(6) 0.9583(4) 0.5876(5)
H16 H 0.1382 0.9253 0.6135
C20 C 0.2469(5) 1.0082(4) 0.6247(4)
C21 C 0.2820(7) 1.0072(4) 0.6955(4)
H17 H 0.2562 0.9728 0.7219
C22 C 0.3531(7) 1.0546(4) 0.7281(4)
H18 H 0.3756 1.0516 0.7766
C23 C 0.3591(6) 1.1097(4) 0.6261(4)
H19 H 0.3837 1.1462 0.6017
C24 C 0.2886(6) 1.0619(4) 0.5885(4)
H20 H 0.2689 1.0653 0.5398
Cu1 Cu 0.46380(6) 1.32758(4) 0.60777(4)
Cu2 Cu -0.28727(6) 0.68860(4) 0.25636(4)
Cu3 Cu 0.5000 1.17757(5) 0.7500
I1 I 0.35951(4) 1.27247(3) 0.49501(3)
N1 N 1.1889(4) 1.6344(3) 0.2957(3)
N2 N 0.9043(5) 1.5549(3) 0.4252(4)
N3 N 0.8381(5) 1.5047(3) 0.4501(3)
N4 N 0.5668(4) 1.4001(3) 0.5719(3)
N5 N -0.1844(4) 0.7599(3) 0.3164(3)
N6 N 0.0636(5) 0.9033(3) 0.4979(4)
N7 N 0.1391(5) 0.9584(3) 0.5229(4)
N8 N 0.3935(4) 1.1067(3) 0.6938(3)
S1 S 0.37579(12) 1.38635(8) 0.68260(9)
S2 S 0.57945(12) 1.25074(8) 0.68135(8)
W1 W 0.5000 1.320270(17) 0.7500
C1A C -0.1761(5) 0.5665(4) 0.2112(4)
H1A H -0.2153 0.5420 0.2389
C2A C -0.1054(6) 0.5292(4) 0.1785(4)
H2A H -0.1001 0.4804 0.1836
C3A C -0.0441(5) 0.5635(4) 0.1393(4)
C4A C -0.0592(6) 0.6341(5) 0.1314(4)
H3A H -0.0209 0.6597 0.1038
C5A C -0.1315(6) 0.6681(4) 0.1642(5)
H4A H -0.1407 0.7166 0.1580
C6A C 0.0335(5) 0.5256(4) 0.1081(4)
H5A H 0.0372 0.4767 0.1131
C7A C 0.2235(5) 0.5320(4) 0.0149(4)
H6A H 0.2218 0.5804 0.0071
C8A C 0.2990(5) 0.4869(4) -0.0141(3)
C9A C 0.3591(5) 0.5124(4) -0.0585(4)
H7A H 0.3561 0.5600 -0.0703
C10A C 0.4247(5) 0.4673(4) -0.0858(3)
H8A H 0.4655 0.4860 -0.1160
C11A C 0.3745(7) 0.3753(4) -0.0279(5)
H9A H 0.3798 0.3277 -0.0161
C12A C 0.3074(6) 0.4165(5) 0.0005(5)
H10A H 0.2668 0.3965 0.0302
C13A C 1.1513(6) 0.7532(4) 1.1149(4)
H11A H 1.1757 0.7149 1.0927
C14A C 1.0831(6) 0.7999(4) 1.0751(4)
H12A H 1.0637 0.7936 1.0267
C15A C 1.0433(5) 0.8554(4) 1.1059(4)
C16A C 1.0777(6) 0.8629(4) 1.1767(4)
H13A H 1.0529 0.9002 1.2001
C17A C 1.1492(6) 0.8152(4) 1.2130(4)
H14A H 1.1739 0.8222 1.2609
C18A C 0.9674(6) 0.9064(4) 1.0669(5)
H15A H 0.9416 0.9424 1.0915
C19A C 0.8321(6) 0.9583(4) 0.9124(5)
H16A H 0.8618 0.9253 0.8865
C20A C 0.7531(5) 1.0082(4) 0.8753(4)
C21A C 0.7180(7) 1.0072(4) 0.8045(4)
H17A H 0.7438 0.9728 0.7781
C22A C 0.6469(7) 1.0546(4) 0.7719(4)
H18A H 0.6244 1.0516 0.7234
C23A C 0.6409(6) 1.1097(4) 0.8739(4)
H19A H 0.6163 1.1462 0.8983
C24A C 0.7114(6) 1.0619(4) 0.9115(4)
H20A H 0.7311 1.0653 0.9602
Cu1A Cu 0.53620(6) 1.32758(4) 0.89223(4)
Cu1A_2 Cu 0.53620(6) 0.32758(4) -0.10777(4)
Cu1B Cu -0.46380(6) 0.67242(4) 0.39223(4)
Cu2A Cu 1.28727(6) 0.68860(4) 1.24364(4)
Cu2A_2 Cu 1.28727(6) 1.68860(4) 0.24364(4)
Cu2B Cu 0.28727(6) 1.31140(4) 0.74364(4)
Cu2C Cu 0.71273(6) 1.31140(4) 0.75636(4)
I1A I 0.64049(4) 1.27247(3) 1.00499(3)
N1A N -0.1889(4) 0.6344(3) 0.2043(3)
N1_2 N 1.1889(4) 0.6344(3) 1.2957(3)
N2A N 0.0957(5) 0.5549(3) 0.0748(4)
N3A N 0.1619(5) 0.5047(3) 0.0499(3)
N4A N 0.4332(4) 0.4001(3) -0.0719(3)
N4A_2 N 0.4332(4) 1.4001(3) 0.9281(3)
N5A N 1.1844(4) 0.7599(3) 1.1836(3)
N6A N 0.9364(5) 0.9033(3) 1.0021(4)
N7A N 0.8609(5) 0.9584(3) 0.9771(4)
N8A N 0.6065(4) 1.1067(3) 0.8062(3)
S1B S -0.37579(12) 0.61365(8) 0.31740(9)
S1A S 0.62421(12) 1.38635(8) 0.81740(9)
S1C S 1.37579(12) 0.61365(8) 1.18260(9)
S2A S 0.42055(12) 1.25074(8) 0.81865(8)
S2C S -0.42055(12) 0.74926(8) 0.18135(8)
S2B S 1.42055(12) 0.74926(8) 1.31865(8)
W1B W -0.5000 0.679730(17) 0.2500
I2 I 0.0000 0.05027(6) 0.2500
loop_
_geom_bond_atom_site_label_1
_geom_bond_atom_site_label_2
_geom_bond_site_symmetry_1
_geom_bond_site_symmetry_2
C1 H1 1_555 1_555
C2 C1 1_555 1_555
H2 C2 1_555 1_555
C3 C2 1_555 1_555
C4 C3 1_555 1_555
H3 C4 1_555 1_555
C5 C4 1_555 1_555
H4 C5 1_555 1_555
C6 C3 1_555 1_555
H5 C6 1_555 1_555
C7 H6 1_555 1_555
C8 C7 1_555 1_555
C9 C8 1_555 1_555
H7 C9 1_555 1_555
C10 C9 1_555 1_555
H8 C10 1_555 1_555
C11 H9 1_555 1_555
C12 C8 1_555 1_555
H10 C12 1_555 1_555
C13 H11 1_555 1_555
C14 C13 1_555 1_555
H12 C14 1_555 1_555
C15 C14 1_555 1_555
C16 C15 1_555 1_555
H13 C16 1_555 1_555
C17 C16 1_555 1_555
H14 C17 1_555 1_555
C18 C15 1_555 1_555
H15 C18 1_555 1_555
C19 H16 1_555 1_555
C20 C19 1_555 1_555
C21 C20 1_555 1_555
H17 C21 1_555 1_555
C22 C21 1_555 1_555
H18 C22 1_555 1_555
C23 H19 1_555 1_555
C24 C20 1_555 1_555
H20 C24 1_555 1_555
Cu1 I1 1_555 1_555
Cu2 N5 1_555 1_555
Cu3 N8 1_555 1_555
N1 C1 1_555 1_555
N2 C6 1_555 1_555
N3 C7 1_555 1_555
N4 C10 1_555 1_555
N5 C13 1_555 1_555
N6 C18 1_555 1_555
N7 C19 1_555 1_555
N8 C22 1_555 1_555
S1 Cu1 1_555 1_555
S2 Cu1 1_555 1_555
W1 S1 1_555 1_555
C1A H1A 1_555 1_555
C2A C1A 1_555 1_555
H2A C2A 1_555 1_555
C3A C2A 1_555 1_555
C4A C3A 1_555 1_555
H3A C4A 1_555 1_555
C5A C4A 1_555 1_555
H4A C5A 1_555 1_555
C6A C3A 1_555 1_555
H5A C6A 1_555 1_555
C7A H6A 1_555 1_555
C8A C7A 1_555 1_555
C9A C8A 1_555 1_555
H7A C9A 1_555 1_555
C10A C9A 1_555 1_555
H8A C10A 1_555 1_555
C11A H9A 1_555 1_555
C12A C8A 1_555 1_555
H10A C12A 1_555 1_555
C13A H11A 1_555 1_555
C14A C13A 1_555 1_555
H12A C14A 1_555 1_555
C15A C14A 1_555 1_555
C16A C15A 1_555 1_555
H13A C16A 1_555 1_555
C17A C16A 1_555 1_555
H14A C17A 1_555 1_555
C18A C15A 1_555 1_555
H15A C18A 1_555 1_555
C19A H16A 1_555 1_555
C20A C19A 1_555 1_555
C21A C20A 1_555 1_555
H17A C21A 1_555 1_555
C22A C21A 1_555 1_555
H18A C22A 1_555 1_555
C23A H19A 1_555 1_555
C24A C20A 1_555 1_555
H20A C24A 1_555 1_555
Cu1A I1A 1_555 1_555
Cu1A_2 N4A 1_555 1_555
Cu1B S1B 1_555 1_555
Cu2A N1_2 1_555 1_555
Cu2A_2 N1 1_555 1_555
Cu2B S1 1_555 1_555
Cu2C S2 1_555 1_555
N1A Cu2 1_555 1_555
N2A C6A 1_555 1_555
N3A C7A 1_555 1_555
N4A C10A 1_555 1_555
N4A_2 Cu1A 1_555 1_555
N5A C13A 1_555 1_555
N6A C18A 1_555 1_555
N7A C19A 1_555 1_555
N8A Cu3 1_555 1_555
S1B Cu2 1_555 1_555
S1A W1 1_555 1_555
S1C Cu2A 1_555 1_555
S2A Cu3 1_555 1_555
S2C Cu2 1_555 1_555
S2B Cu2A 1_555 1_555
W1B S1B 1_555 1_555
C5 N1 1_555 1_555
C11 C12 1_555 1_555
C11 N4 1_555 1_555
C17 N5 1_555 1_555
C23 C24 1_555 1_555
C23 N8 1_555 1_555
Cu1 N4 1_555 1_555
Cu3 S2 1_555 1_555
N2 N3 1_555 1_555
N6 N7 1_555 1_555
S2 W1 1_555 1_555
W1 S2A 1_555 1_555
C1A N1A 1_555 1_555
C5A N1A 1_555 1_555
C11A C12A 1_555 1_555
C11A N4A 1_555 1_555
C17A N5A 1_555 1_555
C22A N8A 1_555 1_555
C23A C24A 1_555 1_555
C23A N8A 1_555 1_555
Cu1A S1A 1_555 1_555
Cu1A S2A 1_555 1_555
Cu2A N5A 1_555 1_555
Cu2B S2A 1_555 1_555
Cu2C S1A 1_555 1_555
N2A N3A 1_555 1_555
N6A N7A 1_555 1_555
S2C W1B 1_555 1_555

#END
