
#######################################################################
#
#                 Cambridge Crystallographic Data Centre
#                                CCDC 
#
#######################################################################
#
# If this CIF has been generated from an entry in the Cambridge 
# Structural Database, then it will include bibliographic, chemical, 
# crystal, experimental, refinement or atomic coordinate data resulting 
# from the CCDC's data processing and validation procedures.
#
#######################################################################

data_SATCIB
_symmetry_cell_setting           orthorhombic
_symmetry_space_group_name_H-M   'P b c a'
_symmetry_Int_Tables_number      61
_space_group_name_Hall           '-P 2ac 2ab'
loop_
_symmetry_equiv_pos_site_id
_symmetry_equiv_pos_as_xyz
1 x,y,z
2 1/2-x,-y,1/2+z
3 -x,1/2+y,1/2-z
4 1/2+x,1/2-y,-z
5 -x,-y,-z
6 1/2+x,y,1/2-z
7 x,1/2-y,1/2+z
8 1/2-x,1/2+y,z
_cell_length_a                   19.4256(14)
_cell_length_b                   21.1949(15)
_cell_length_c                   26.6468(18)
_cell_angle_alpha                90
_cell_angle_beta                 90
_cell_angle_gamma                90
_cell_volume                     10971.1
loop_
_atom_site_label
_atom_site_type_symbol
_atom_site_fract_x
_atom_site_fract_y
_atom_site_fract_z
C1 C 0.6726(5) 0.3784(4) 0.6688(3)
C2 C 0.6538(4) 0.3330(4) 0.5969(3)
C3 C 0.5819(4) 0.3117(4) 0.6627(3)
C4 C 0.7147(4) 0.4183(4) 0.7044(3)
C5 C 0.6968(4) 0.4266(4) 0.7532(3)
H1 H 0.6599 0.4048 0.7672
C6 C 0.7346(5) 0.4679(3) 0.7809(3)
H2 H 0.7198 0.4746 0.8137
C7 C 0.8087(5) 0.4953(4) 0.7172(3)
H3 H 0.8447 0.5197 0.7048
C8 C 0.7712(5) 0.4507(4) 0.6824(4)
H4 H 0.7842 0.4449 0.6491
C9 C 0.6623(4) 0.3208(4) 0.5426(3)
C10 C 0.7169(4) 0.3583(4) 0.5203(3)
H5 H 0.7403 0.3883 0.5392
C11 C 0.7340(5) 0.3482(4) 0.4682(3)
H6 H 0.7680 0.3726 0.4530
C12 C 0.6455(4) 0.2700(4) 0.4644(3)
H7 H 0.6158 0.2454 0.4452
C13 C 0.6342(5) 0.2737(4) 0.5156(3)
H8 H 0.6071 0.2435 0.5314
C14 C 0.5232(5) 0.2780(4) 0.6824(3)
C15 C 0.4931(4) 0.2295(4) 0.6571(3)
H9 H 0.5107 0.2170 0.6262
C16 C 0.4356(5) 0.1982(4) 0.6774(3)
H10 H 0.4162 0.1645 0.6601
C17 C 0.4397(4) 0.2586(4) 0.7471(3)
H11 H 0.4237 0.2686 0.7790
C18 C 0.4957(4) 0.2903(4) 0.7314(3)
H12 H 0.5164 0.3200 0.7522
C19 C 0.9442(4) 0.5598(4) 1.0221(3)
C20 C 0.9449(5) 0.5223(4) 1.1022(3)
C21 C 1.0202(4) 0.5958(4) 1.0769(3)
C22 C 0.9222(5) 0.5591(4) 0.9683(3)
C23 C 0.9567(4) 0.5935(4) 0.9301(3)
H13 H 0.9970 0.6154 0.9373
C24 C 0.9309(5) 0.5938(4) 0.8841(3)
H14 H 0.9520 0.6198 0.8606
C25 C 0.8454(4) 0.5227(4) 0.9046(3)
H15 H 0.8079 0.4980 0.8954
C26 C 0.8672(5) 0.5200(4) 0.9547(3)
H16 H 0.8461 0.4934 0.9779
C27 C 0.9115(4) 0.4829(4) 1.1387(3)
C28 C 0.8529(5) 0.4424(4) 1.1247(3)
H17 H 0.8329 0.4457 1.0931
C29 C 0.8296(4) 0.4020(4) 1.1574(3)
H18 H 0.7931 0.3762 1.1480
C30 C 0.9126(5) 0.4347(4) 1.2194(3)
H19 H 0.9299 0.4323 1.2519
C31 C 0.9418(4) 0.4757(4) 1.1868(3)
H20 H 0.9808 0.4985 1.1957
C32 C 1.0812(4) 0.6369(4) 1.0892(3)
C33 C 1.1176(4) 0.6345(4) 1.1375(3)
H21 H 1.1042 0.6061 1.1623
C34 C 1.1675(4) 0.6717(4) 1.1447(3)
H22 H 1.1901 0.6684 1.1754
C35 C 1.1557(5) 0.7220(4) 1.0712(4)
H23 H 1.1649 0.7567 1.0509
C36 C 1.1033(4) 0.6783(4) 1.0557(3)
H24 H 1.0856 0.6791 1.0233
Cu1 Cu 0.82951(5) 0.57419(4) 0.80198(4)
Cu2 Cu 0.72691(6) 0.27774(5) 0.37161(4)
I1 I 0.84871(3) 0.63036(3) 0.60063(2)
N1 N 0.6933(4) 0.3714(3) 0.6235(2)
N2 N 0.5962(4) 0.3001(3) 0.6158(3)
N3 N 0.6170(3) 0.3496(3) 0.6912(3)
N4 N 0.7908(3) 0.5003(3) 0.7665(2)
N5 N 0.6991(3) 0.3012(3) 0.4401(2)
N6 N 0.4069(4) 0.2176(3) 0.7240(2)
N7 N 0.9175(4) 0.5208(3) 1.0544(2)
N8 N 0.9969(4) 0.5601(3) 1.1149(2)
N9 N 1.0030(3) 0.5965(3) 1.0312(2)
N10 N 0.8753(4) 0.5591(3) 0.8683(2)
Cu3 Cu 0.31985(6) 0.17349(5) 0.74619(4)
N11 N 0.8565(4) 0.3953(3) 1.2060(2)
N12 N 1.1914(4) 0.7152(3) 1.1131(2)
Cu4 Cu 0.83832(6) 0.66535(5) 0.68398(4)
S1 S 0.89719(12) 0.63725(10) 0.75254(8)
S2 S 0.24317(11) 0.23566(9) 0.78789(7)
S3 S 0.73795(11) 0.63894(10) 0.82376(8)
S4 S 0.64801(12) 0.22610(10) 0.32447(8)
W1 W 0.812936(17) 0.697922(15) 0.777360(11)
Cu2B Cu 1.27309(6) 0.77774(5) 1.12839(4)
Cu2A Cu 0.77309(6) 0.72226(5) 0.87161(4)
Cu3C Cu 0.81985(6) 0.32651(5) 1.25381(4)
Cu3B Cu 0.68015(6) 0.67349(5) 0.75381(4)
N11C N 0.3565(4) 0.1047(3) 0.7940(2)
N12B N 0.8086(4) 0.2152(3) 0.3869(2)
Cu4B Cu 0.16168(6) 0.16535(5) 0.81602(4)
S2B S 0.75683(11) 0.73566(9) 0.71211(7)
S3A S 0.76205(11) 0.36106(10) 0.32376(8)
S3B S 0.26205(11) 0.13894(10) 0.67624(8)
S4A S 0.85199(12) 0.77390(10) 0.82447(8)
W1B W 0.187064(17) 0.197922(15) 0.722640(11)
W1A W 0.687064(17) 0.302078(15) 0.277360(11)
I2 I 0.85988(3) 0.95724(3) 0.95304(2)
O2 O 0.9966(6) 0.4495(6) 0.6885(5)
H27 H 0.9819 0.4793 0.7070
H28 H 0.9794 0.4532 0.6593
O3 O 0.9597(10) 0.1503(8) 0.9721(7)
H29 H 0.9725 0.1139 0.9624
H30 H 0.9853 0.1626 0.9960
O4 O 0.8814(9) 0.0214(8) 0.0585(6)
H31 H 0.8743 -0.0172 0.0516
H32 H 0.8484 0.0436 0.0473
O5 O 0.9022(9) 0.2344(9) 0.0932(6)
H33 H 0.9020 0.2552 0.0659
H34 H 0.8687 0.2461 0.1114
O1? O 0.7293(8) 0.9094(7) 0.9727(6)
H25? H 0.7634 0.9313 0.9629
H26? H 0.7356 0.8979 1.0029
O6? O 0.9502(11) 0.9581(8) 0.8722(7)
H35? H 0.9544 0.9963 0.8628
H36? H 0.9133 0.9540 0.8891
loop_
_geom_bond_atom_site_label_1
_geom_bond_atom_site_label_2
_geom_bond_site_symmetry_1
_geom_bond_site_symmetry_2
C1 C4 1_555 1_555
C2 C9 1_555 1_555
C3 C14 1_555 1_555
C4 C5 1_555 1_555
C5 H1 1_555 1_555
C6 C5 1_555 1_555
H2 C6 1_555 1_555
C7 H3 1_555 1_555
C8 C4 1_555 1_555
H4 C8 1_555 1_555
C9 C10 1_555 1_555
C10 H5 1_555 1_555
C11 C10 1_555 1_555
H6 C11 1_555 1_555
C12 H7 1_555 1_555
C13 C9 1_555 1_555
H8 C13 1_555 1_555
C14 C15 1_555 1_555
C15 H9 1_555 1_555
C16 C15 1_555 1_555
H10 C16 1_555 1_555
C17 H11 1_555 1_555
C18 C14 1_555 1_555
H12 C18 1_555 1_555
C19 C22 1_555 1_555
C20 C27 1_555 1_555
C21 C32 1_555 1_555
C22 C23 1_555 1_555
C23 H13 1_555 1_555
C24 C23 1_555 1_555
H14 C24 1_555 1_555
C25 H15 1_555 1_555
C26 C22 1_555 1_555
H16 C26 1_555 1_555
C27 C28 1_555 1_555
C28 H17 1_555 1_555
C29 C28 1_555 1_555
H18 C29 1_555 1_555
C30 H19 1_555 1_555
C31 C27 1_555 1_555
H20 C31 1_555 1_555
C32 C33 1_555 1_555
C33 H21 1_555 1_555
C34 C33 1_555 1_555
H22 C34 1_555 1_555
C35 H23 1_555 1_555
C36 C32 1_555 1_555
H24 C36 1_555 1_555
Cu1 N4 1_555 1_555
Cu2 N5 1_555 1_555
I1 Cu4 1_555 1_555
N1 C1 1_555 1_555
N2 C2 1_555 1_555
N3 C1 1_555 1_555
N4 C6 1_555 1_555
N5 C11 1_555 1_555
N6 C16 1_555 1_555
N7 C19 1_555 1_555
N8 C20 1_555 1_555
N9 C19 1_555 1_555
N10 C24 1_555 1_555
Cu3 N6 1_555 1_555
N11 C29 1_555 1_555
N12 C34 1_555 1_555
O2 H27 1_555 1_555
H28 O2 1_555 1_555
O3 H29 1_555 1_555
H30 O3 1_555 1_555
O4 H31 1_555 1_555
H32 O4 1_555 1_555
O5 H33 1_555 1_555
H34 O5 1_555 1_555
Cu4 S1 1_555 1_555
S1 Cu1 1_555 1_555
S2 Cu3 1_555 1_555
S3 Cu1 1_555 1_555
S4 Cu2 1_555 1_555
W1 S1 1_555 1_555
Cu2B N12 1_555 1_555
Cu2A S3 1_555 1_555
Cu3C N11 1_555 1_555
Cu3B S3 1_555 1_555
N11C Cu3 1_555 1_555
N12B Cu2 1_555 1_555
Cu4B S2 1_555 1_555
S2B Cu4 1_555 1_555
S3A Cu2 1_555 1_555
S3B Cu3 1_555 1_555
S4A W1 1_555 1_555
W1B S2 1_555 1_555
W1A S4 1_555 1_555
C2 N1 1_555 1_555
C3 N2 1_555 1_555
C3 N3 1_555 1_555
C7 C8 1_555 1_555
C7 N4 1_555 1_555
C12 C13 1_555 1_555
C12 N5 1_555 1_555
C17 C18 1_555 1_555
C17 N6 1_555 1_555
C20 N7 1_555 1_555
C21 N8 1_555 1_555
C21 N9 1_555 1_555
C25 C26 1_555 1_555
C25 N10 1_555 1_555
C30 C31 1_555 1_555
C30 N11 1_555 1_555
C35 C36 1_555 1_555
C35 N12 1_555 1_555
Cu1 N10 1_555 1_555
S3 W1 1_555 1_555
W1 S2B 1_555 1_555
Cu2A S4A 1_555 1_555
Cu3B S2B 1_555 1_555
S3A W1A 1_555 1_555
S3B W1B 1_555 1_555

#END
