
#######################################################################
#
#                 Cambridge Crystallographic Data Centre
#                                CCDC 
#
#######################################################################
#
# If this CIF has been generated from an entry in the Cambridge 
# Structural Database, then it will include bibliographic, chemical, 
# crystal, experimental, refinement or atomic coordinate data resulting 
# from the CCDC's data processing and validation procedures.
#
#######################################################################

data_SATCAT
_symmetry_cell_setting           orthorhombic
_symmetry_space_group_name_H-M   'C c c a'
_symmetry_Int_Tables_number      68
_space_group_name_Hall           '-C 2b 2bc'
loop_
_symmetry_equiv_pos_site_id
_symmetry_equiv_pos_as_xyz
1 x,y,z
2 1/2-x,-y,z
3 -x,y,1/2-z
4 1/2+x,-y,1/2-z
5 1/2+x,1/2+y,z
6 -x,1/2-y,z
7 1/2-x,1/2+y,1/2-z
8 x,1/2-y,1/2-z
9 -x,-y,-z
10 1/2+x,y,-z
11 x,-y,1/2+z
12 1/2-x,y,1/2+z
13 1/2-x,1/2-y,-z
14 x,1/2+y,-z
15 1/2+x,1/2-y,1/2+z
16 -x,1/2+y,1/2+z
_cell_length_a                   26.589(7)
_cell_length_b                   31.767(8)
_cell_length_c                   13.739(3)
_cell_angle_alpha                90
_cell_angle_beta                 90
_cell_angle_gamma                90
_cell_volume                     11604.7
loop_
_atom_site_label
_atom_site_type_symbol
_atom_site_fract_x
_atom_site_fract_y
_atom_site_fract_z
C1 C 0.6955(3) 0.3972(2) 0.6516(5)
H1 H 0.7087 0.4227 0.6303
C2 C 0.6994(3) 0.3602(2) 0.5941(6)
H2 H 0.7167 0.3606 0.5353
C3 C 0.6777(3) 0.3243(2) 0.6262(6)
C4 C 0.6542(3) 0.3203(2) 0.7147(6)
H3 H 0.6418 0.2944 0.7352
C5 C 0.6492(3) 0.3557(2) 0.7727(6)
H4 H 0.6317 0.3540 0.8311
C6 C 0.6777(3) 0.2874(3) 0.5645(7)
C7 C 0.6880(3) 0.2177(3) 0.4467(6)
C8 C 0.6846(2) 0.1847(2) 0.3816(5)
C9 C 0.7017(3) 0.1873(2) 0.2866(6)
H5 H 0.7135 0.2131 0.2644
C10 C 0.7022(3) 0.1542(2) 0.2241(6)
H6 H 0.7143 0.1574 0.1610
C11 C 0.6681(3) 0.1112(3) 0.3524(6)
H7 H 0.6572 0.0852 0.3751
C12 C 0.6684(3) 0.1452(3) 0.4131(5)
H8 H 0.6575 0.1419 0.4771
C13 C 0.6256(3) 0.5404(2) 0.9977(6)
H9 H 0.6435 0.5159 0.9850
C14 C 0.5912(3) 0.5428(3) 1.0796(6)
H10 H 0.5871 0.5199 1.1208
C15 C 0.5659(3) 0.5781(3) 1.0950(6)
C16 C 0.5697(3) 0.6132(2) 1.0323(6)
H11 H 0.5504 0.6371 1.0431
C17 C 0.6038(3) 0.6111(2) 0.9517(6)
H12 H 0.6072 0.6338 0.9092
C18 C 0.5356(4) 0.5798(3) 1.1778(5)
Cu1 Cu 0.67194(4) 0.44530(3) 0.83876(7)
Cu2 Cu 0.68725(3) 0.56627(3) 0.83035(7)
I1 I 0.591016(19) 0.432901(16) 0.93645(3)
N1 N 0.6704(2) 0.39383(16) 0.7436(5)
N2 N 0.6604(2) 0.24994(18) 0.5927(5)
N3 N 0.6658(2) 0.2136(2) 0.5336(5)
N4 N 0.7073(3) 0.2560(2) 0.4138(5)
N5 N 0.7013(3) 0.2919(2) 0.4739(5)
N6 N 0.6844(2) 0.1154(2) 0.2557(5)
N7 N 0.6310(2) 0.57577(19) 0.9386(4)
N8 N 0.5156(3) 0.5432(2) 1.2097(5)
N9 N 0.5161(2) 0.61855(19) 1.2102(4)
S1 S 0.68242(7) 0.50518(6) 0.74546(15)
S2 S 0.74309(6) 0.44246(6) 0.92879(14)
W1 W 0.7500 0.5000 0.83831(3)
C1M C 0.6955(3) 0.8972(2) 0.3484(5)
H1M H 0.7087 0.9227 0.3697
C2M C 0.6994(3) 0.8602(2) 0.4059(6)
H2M H 0.7167 0.8606 0.4647
C3M C 0.6777(3) 0.8243(2) 0.3738(6)
C4M C 0.6542(3) 0.8203(2) 0.2853(6)
H3M H 0.6418 0.7944 0.2648
C5M C 0.6492(3) 0.8557(2) 0.2273(6)
H4M H 0.6317 0.8540 0.1689
C6M C 0.6777(3) 0.7874(3) 0.4355(7)
C7M C 0.6880(3) 0.7177(3) 0.5533(6)
C8M C 0.6846(2) 0.6847(2) 0.6184(5)
C9M C 0.7017(3) 0.6873(2) 0.7134(6)
H5M H 0.7135 0.7131 0.7356
C10M C 0.7022(3) 0.6542(2) 0.7759(6)
H6M H 0.7143 0.6574 0.8390
C11M C 0.6681(3) 0.6112(3) 0.6476(6)
H7M H 0.6572 0.5852 0.6249
C12M C 0.6684(3) 0.6452(3) 0.5869(5)
H8M H 0.6575 0.6419 0.5229
C13B C 0.3744(3) 0.5404(2) 1.5023(6)
H9B H 0.3565 0.5159 1.5150
C14B C 0.4088(3) 0.5428(3) 1.4204(6)
H10B H 0.4129 0.5199 1.3792
C15B C 0.4341(3) 0.5781(3) 1.4050(6)
C16B C 0.4303(3) 0.6132(2) 1.4677(6)
H11B H 0.4496 0.6371 1.4569
C17B C 0.3962(3) 0.6111(2) 1.5483(6)
H12B H 0.3928 0.6338 1.5908
C18B C 0.4644(4) 0.5798(3) 1.3222(5)
Cu1A Cu 0.82806(4) 0.55470(3) 0.83876(7)
Cu1M Cu 0.67194(4) 0.94530(3) 0.16124(7)
Cu2A Cu 0.81275(3) 0.43373(3) 0.83035(7)
Cu2M Cu 0.68725(3) 0.06627(3) 0.16965(7)
Cu2B Cu 0.31275(3) 0.56627(3) 1.66965(7)
I1A I 0.908984(19) 0.567099(16) 0.93645(3)
N1M N 0.6704(2) 0.89383(16) 0.2564(5)
N1A N 0.8296(2) 0.60617(16) 0.7436(5)
N2M N 0.6604(2) 0.74994(18) 0.4073(5)
N3M N 0.6658(2) 0.7136(2) 0.4664(5)
N4M N 0.7073(3) 0.7560(2) 0.5862(5)
N5M N 0.7013(3) 0.7919(2) 0.5261(5)
N6M N 0.6844(2) 0.6154(2) 0.7443(5)
N6L N 0.8156(2) 0.3846(2) 0.7443(5)
N7B N 0.3690(2) 0.57577(19) 1.5614(4)
N7A N 0.8690(2) 0.42423(19) 0.9386(4)
N8B N 0.4844(3) 0.5432(2) 1.2903(5)
N9B N 0.4839(2) 0.61855(19) 1.2898(4)
S1A S 0.81758(7) 0.49482(6) 0.74546(15)
S2A S 0.75691(6) 0.55754(6) 0.92879(14)
loop_
_geom_bond_atom_site_label_1
_geom_bond_atom_site_label_2
_geom_bond_site_symmetry_1
_geom_bond_site_symmetry_2
C1 H1 1_555 1_555
C2 C1 1_555 1_555
H2 C2 1_555 1_555
C3 C2 1_555 1_555
C4 C3 1_555 1_555
H3 C4 1_555 1_555
C5 C4 1_555 1_555
H4 C5 1_555 1_555
C6 C3 1_555 1_555
C7 C8 1_555 1_555
C8 C9 1_555 1_555
C9 H5 1_555 1_555
C10 C9 1_555 1_555
H6 C10 1_555 1_555
C11 H7 1_555 1_555
C12 C8 1_555 1_555
H8 C12 1_555 1_555
C13 H9 1_555 1_555
C14 C13 1_555 1_555
H10 C14 1_555 1_555
C15 C14 1_555 1_555
C16 C15 1_555 1_555
H11 C16 1_555 1_555
C17 C16 1_555 1_555
H12 C17 1_555 1_555
C18 C15 1_555 1_555
Cu1 I1 1_555 1_555
Cu2 N7 1_555 1_555
N1 C1 1_555 1_555
N2 C6 1_555 1_555
N3 C7 1_555 1_555
N4 C7 1_555 1_555
N5 C6 1_555 1_555
N6 C10 1_555 1_555
N7 C13 1_555 1_555
N8 C18 1_555 1_555
N9 C18 1_555 1_555
S1 Cu1 1_555 1_555
S2 Cu1 1_555 1_555
W1 S1 1_555 1_555
C1M H1M 1_555 1_555
C2M C1M 1_555 1_555
H2M C2M 1_555 1_555
C3M C2M 1_555 1_555
C4M C3M 1_555 1_555
H3M C4M 1_555 1_555
C5M C4M 1_555 1_555
H4M C5M 1_555 1_555
C6M C3M 1_555 1_555
C7M C8M 1_555 1_555
C8M C9M 1_555 1_555
C9M H5M 1_555 1_555
C10M C9M 1_555 1_555
H6M C10M 1_555 1_555
C11M H7M 1_555 1_555
C12M C8M 1_555 1_555
H8M C12M 1_555 1_555
C13B H9B 1_555 1_555
C14B C13B 1_555 1_555
H10B C14B 1_555 1_555
C15B C14B 1_555 1_555
C16B C15B 1_555 1_555
H11B C16B 1_555 1_555
C17B C16B 1_555 1_555
H12B C17B 1_555 1_555
C18B C15B 1_555 1_555
Cu1A I1A 1_555 1_555
Cu1M N1M 1_555 1_555
Cu2A S2 1_555 1_555
Cu2M N6 1_555 1_555
Cu2B N7B 1_555 1_555
N1M C1M 1_555 1_555
N1A Cu1A 1_555 1_555
N2M C6M 1_555 1_555
N3M C7M 1_555 1_555
N4M C7M 1_555 1_555
N5M C6M 1_555 1_555
N6M Cu2 1_555 1_555
N6L Cu2A 1_555 1_555
N7B C13B 1_555 1_555
N7A Cu2A 1_555 1_555
N8B N8 1_555 1_555
N9B N9 1_555 1_555
S1A W1 1_555 1_555
S2A Cu2 1_555 1_555
C5 N1 1_555 1_555
C11 C12 1_555 1_555
C11 N6 1_555 1_555
C17 N7 1_555 1_555
Cu1 N1 1_555 1_555
Cu2 S1 1_555 1_555
N2 N3 1_555 1_555
N4 N5 1_555 1_555
S2 W1 1_555 1_555
W1 S2A 1_555 1_555
C5M N1M 1_555 1_555
C10M N6M 1_555 1_555
C11M C12M 1_555 1_555
C11M N6M 1_555 1_555
C17B N7B 1_555 1_555
C18B N8B 1_555 1_555
C18B N9B 1_555 1_555
Cu1A S1A 1_555 1_555
Cu1A S2A 1_555 1_555
Cu2A S1A 1_555 1_555
N2M N3M 1_555 1_555
N4M N5M 1_555 1_555

#END
