
#######################################################################
#
#                 Cambridge Crystallographic Data Centre
#                                CCDC 
#
#######################################################################
#
# If this CIF has been generated from an entry in the Cambridge 
# Structural Database, then it will include bibliographic, chemical, 
# crystal, experimental, refinement or atomic coordinate data resulting 
# from the CCDC's data processing and validation procedures.
#
#######################################################################

data_SATCOH
_symmetry_cell_setting           triclinic
_symmetry_space_group_name_H-M   'P -1'
_symmetry_Int_Tables_number      2
_space_group_name_Hall           '-P 1'
loop_
_symmetry_equiv_pos_site_id
_symmetry_equiv_pos_as_xyz
1 x,y,z
2 -x,-y,-z
_cell_length_a                   10.4532(13)
_cell_length_b                   11.7748(16)
_cell_length_c                   16.622(2)
_cell_angle_alpha                101.856(2)
_cell_angle_beta                 91.577(3)
_cell_angle_gamma                99.523(2)
_cell_volume                     1970.66
loop_
_atom_site_label
_atom_site_type_symbol
_atom_site_fract_x
_atom_site_fract_y
_atom_site_fract_z
C1 C 0.5539(16) 0.7836(13) 0.3814(10)
H1 H 0.4703 0.7666 0.3986
C2 C 0.6275(15) 0.8941(14) 0.4113(10)
H2 H 0.5894 0.9517 0.4441
C3 C 0.7523(14) 0.9205(13) 0.3943(9)
C4 C 0.8023(14) 0.8321(12) 0.3438(9)
H3 H 0.8891 0.8447 0.3315
C5 C 0.7251(14) 0.7267(12) 0.3120(9)
H4 H 0.7612 0.6698 0.2771
C6 C 0.7682(15) 1.1292(13) 0.4701(10)
H5 H 0.7268 1.1645 0.4309
H6 H 0.7014 1.0980 0.5031
C7 C 0.8629(16) 1.2205(14) 0.5241(11)
H7 H 0.8224 1.2891 0.5422
H8 H 0.8838 1.1917 0.5727
C8 C 1.0351(16) 1.1663(14) 0.4387(11)
H9 H 1.0853 1.1321 0.4744
H10 H 1.0950 1.2016 0.4035
C9 C 0.9433(15) 1.0720(14) 0.3872(10)
H11 H 0.9183 1.0986 0.3385
H12 H 0.9872 1.0057 0.3691
C10 C 1.0658(13) 1.3559(12) 0.5296(9)
C11 C 1.0224(14) 1.4386(13) 0.5890(9)
H13 H 0.9351 1.4295 0.6004
C12 C 1.1091(14) 1.5348(13) 0.6314(9)
H14 H 1.0772 1.5880 0.6719
C13 C 1.2748(14) 1.4779(13) 0.5581(9)
H15 H 1.3614 1.4902 0.5455
C14 C 1.1946(14) 1.3807(13) 0.5146(9)
H16 H 1.2280 1.3296 0.4734
C15 C 1.3420(12) 1.9307(12) 0.7573(9)
H17 H 1.4168 1.9447 0.7292
C16 C 1.2956(13) 2.0249(12) 0.7979(9)
H18 H 1.3381 2.1008 0.7980
C17 C 1.1852(13) 2.0074(13) 0.8390(9)
C18 C 1.1236(14) 1.8949(12) 0.8370(9)
H19 H 1.0463 1.8803 0.8625
C19 C 1.1797(14) 1.8053(13) 0.7963(9)
H20 H 1.1399 1.7290 0.7975
C20 C 1.2003(14) 2.2226(13) 0.8980(10)
H21 H 1.2922 2.2219 0.8920
H22 H 1.1711 2.2676 0.8605
C21 C 1.1783(14) 2.2792(13) 0.9862(10)
H23 H 1.2272 2.3589 1.0002
H24 H 1.2090 2.2347 1.0235
C22 C 0.9512(14) 2.2008(13) 0.9329(10)
H25 H 0.8667 2.1842 0.9548
H26 H 0.9407 2.2364 0.8859
C23 C 1.0025(14) 2.0878(13) 0.9058(11)
H27 H 0.9435 2.0368 0.8621
H28 H 1.0019 2.0486 0.9517
C24 C 1.0007(14) 2.3673(13) 1.0524(10)
C25 C 1.0830(16) 2.4408(14) 1.1177(10)
H29 H 1.1687 2.4305 1.1241
C26 C 1.0389(16) 2.5252(15) 1.1706(11)
H30 H 1.0977 2.5726 1.2117
C27 C 0.8415(17) 2.4803(14) 1.1069(11)
H31 H 0.7572 2.4949 1.1020
C28 C 0.8742(15) 2.3906(13) 1.0482(10)
H32 H 0.8136 2.3467 1.0067
C29 C 0.4605(13) 0.6262(12) 0.0934(9)
H33 H 0.4881 0.5550 0.0738
C30 C 0.4655(13) 0.7030(11) 0.0412(9)
H34 H 0.4941 0.6824 -0.0114
C31 C 0.4272(13) 0.8131(12) 0.0677(9)
C32 C 0.3756(13) 0.8279(12) 0.1444(9)
H35 H 0.3390 0.8945 0.1632
C33 C 0.3767(13) 0.7488(12) 0.1925(9)
H36 H 0.3461 0.7665 0.2448
C34 C 0.5013(16) 0.8893(12) -0.0552(10)
H37 H 0.4386 0.8918 -0.0986
H38 H 0.5345 0.8160 -0.0695
C35 C 0.3893(16) 1.0067(13) 0.0442(10)
H39 H 0.3449 1.0087 0.0948
H40 H 0.3269 1.0103 0.0009
Cl1 Cl 1.7629(6) 2.0437(4) 0.6770(4)
Cu1 Cu 0.47200(18) 0.56018(15) 0.26022(11)
Cu2 Cu 1.36828(15) 1.68072(15) 0.69539(11)
Cu3 Cu 1.69288(19) 1.87042(16) 0.69590(13)
N1 N 0.6002(11) 0.7000(10) 0.3279(7)
N2 N 0.8269(12) 1.0309(11) 0.4245(8)
N3 N 0.9812(11) 1.2566(10) 0.4882(8)
N4 N 1.2359(11) 1.5576(10) 0.6186(7)
N5 N 1.2879(11) 1.8172(10) 0.7544(7)
N6 N 1.1269(11) 2.1005(10) 0.8778(8)
N7 N 1.0396(11) 2.2818(11) 0.9953(8)
N8 N 0.9169(15) 2.5474(12) 1.1694(9)
N9 N 0.4200(12) 0.6440(10) 0.1691(8)
N10 N 0.4418(13) 0.8980(10) 0.0227(8)
S1 S 0.5450(3) 0.3948(3) 0.2030(2)
S2 S 1.5399(4) 1.7313(3) 0.6196(2)
S3 S 0.3043(4) 0.5010(3) 0.3343(3)
S4 S 0.2307(4) 0.2081(4) 0.2048(3)
W1 W 0.38240(5) 0.34411(5) 0.28026(4)
C1A C 0.4461(16) 1.2164(13) -0.3814(10)
H1A H 0.5297 1.2334 -0.3986
C2A C 0.3725(15) 1.1059(14) -0.4113(10)
H2A H 0.4106 1.0483 -0.4441
C3A C 0.2477(14) 1.0795(13) -0.3943(9)
C4A C 0.1977(14) 1.1679(12) -0.3438(9)
H3A H 0.1109 1.1553 -0.3315
C5A C 0.2749(14) 1.2733(12) -0.3120(9)
H4A H 0.2388 1.3302 -0.2771
C6A C 0.2318(15) 0.8708(13) -0.4701(10)
H5A H 0.2732 0.8355 -0.4309
H6A H 0.2986 0.9020 -0.5031
C7A C 0.1371(16) 0.7795(14) -0.5241(11)
H7A H 0.1776 0.7109 -0.5422
H8A H 0.1162 0.8083 -0.5727
C8A C -0.0351(16) 0.8337(14) -0.4387(11)
H9A H -0.0853 0.8679 -0.4744
H10A H -0.0950 0.7984 -0.4035
C9A C 0.0567(15) 0.9280(14) -0.3872(10)
H11A H 0.0817 0.9014 -0.3385
H12A H 0.0128 0.9943 -0.3691
C10A C -0.0658(13) 0.6441(12) -0.5296(9)
C11A C -0.0224(14) 0.5614(13) -0.5890(9)
H13A H 0.0649 0.5705 -0.6004
C12A C -0.1091(14) 0.4652(13) -0.6314(9)
H14A H -0.0772 0.4120 -0.6719
C13A C -0.2748(14) 0.5221(13) -0.5581(9)
H15A H -0.3614 0.5098 -0.5455
C14A C -0.1946(14) 0.6193(13) -0.5146(9)
H16A H -0.2280 0.6704 -0.4734
C15A C 0.6580(12) 0.0693(12) 0.2427(9)
H17A H 0.5832 0.0553 0.2708
C16A C 0.7044(13) -0.0249(12) 0.2021(9)
H18A H 0.6619 -0.1008 0.2020
C17A C 0.8148(13) -0.0074(13) 0.1610(9)
C18A C 0.8764(14) 0.1051(12) 0.1630(9)
H19A H 0.9537 0.1197 0.1375
C19A C 0.8203(14) 0.1947(13) 0.2037(9)
H20A H 0.8601 0.2710 0.2025
C20A C 0.7997(14) -0.2226(13) 0.1020(10)
H21A H 0.7078 -0.2219 0.1080
H22A H 0.8289 -0.2676 0.1395
C21A C 0.8217(14) -0.2792(13) 0.0138(10)
H23A H 0.7728 -0.3589 -0.0002
H24A H 0.7910 -0.2347 -0.0235
C22A C 1.0488(14) -0.2008(13) 0.0671(10)
H25A H 1.1333 -0.1842 0.0452
H26A H 1.0593 -0.2364 0.1141
C23A C 0.9975(14) -0.0878(13) 0.0942(11)
H27A H 1.0565 -0.0368 0.1379
H28A H 0.9981 -0.0486 0.0483
C24A C 0.9993(14) -0.3673(13) -0.0524(10)
C25A C 0.9170(16) -0.4408(14) -0.1177(10)
H29A H 0.8313 -0.4305 -0.1241
C26A C 0.9611(16) -0.5252(15) -0.1706(11)
H30A H 0.9023 -0.5726 -0.2117
C27A C 1.1585(17) -0.4803(14) -0.1069(11)
H31A H 1.2428 -0.4949 -0.1020
C28A C 1.1258(15) -0.3906(13) -0.0482(10)
H32A H 1.1864 -0.3467 -0.0067
C29A C 0.5395(13) 1.3738(12) -0.0934(9)
H33A H 0.5119 1.4450 -0.0738
C30A C 0.5345(13) 1.2970(11) -0.0412(9)
H34A H 0.5059 1.3176 0.0114
C31A C 0.5728(13) 1.1869(12) -0.0677(9)
C32A C 0.6244(13) 1.1721(12) -0.1444(9)
H35A H 0.6610 1.1055 -0.1632
C33A C 0.6233(13) 1.2512(12) -0.1925(9)
H36A H 0.6539 1.2335 -0.2448
C34A C 0.4987(16) 1.1107(12) 0.0552(10)
H37A H 0.5614 1.1082 0.0986
H38A H 0.4655 1.1840 0.0695
C35A C 0.6107(16) 0.9933(13) -0.0442(10)
H39A H 0.6551 0.9913 -0.0948
H40A H 0.6731 0.9897 -0.0009
Cl1A Cl 0.2371(6) -0.0437(4) 0.3230(4)
Cu1A Cu 0.52800(18) 1.43982(15) -0.26022(11)
Cu1A_2 Cu 1.52800(18) 1.43982(15) 0.73978(11)
Cu2A Cu 0.63172(15) 0.31928(15) 0.30461(11)
Cu2A_2 Cu -0.36828(15) 0.31928(15) -0.69539(11)
Cu3A Cu 0.30712(19) 0.12958(16) 0.30410(13)
N1A N 0.3998(11) 1.3000(10) -0.3279(7)
N2A N 0.1731(12) 0.9691(11) -0.4245(8)
N3A N 0.0188(11) 0.7434(10) -0.4882(8)
N4A N -0.2359(11) 0.4424(10) -0.6186(7)
N4A_2 N 0.7641(11) 0.4424(10) 0.3814(7)
N5A N 0.7121(11) 0.1828(10) 0.2456(7)
N6A N 0.8731(11) -0.1005(10) 0.1222(8)
N7A N 0.9604(11) -0.2818(11) 0.0047(8)
N8A N 1.0831(15) -0.5474(12) -0.1694(9)
N9A N 0.5800(12) 1.3560(10) -0.1691(8)
N10A N 0.5582(13) 1.1020(10) -0.0227(8)
S1A S 1.4550(3) 1.6052(3) 0.7970(2)
S1A_2 S 0.4550(3) 1.6052(3) -0.2030(2)
S2A S 0.4601(4) 0.2687(3) 0.3804(2)
S3A S 0.6957(4) 1.4990(3) -0.3343(3)
S3A_2 S 1.6957(4) 1.4990(3) 0.6657(3)
S4A S 1.7693(4) 1.7919(4) 0.7952(3)
W1A W 1.61760(5) 1.65589(5) 0.71974(4)
W1A_2 W 0.61760(5) 1.65589(5) -0.28026(4)
loop_
_geom_bond_atom_site_label_1
_geom_bond_atom_site_label_2
_geom_bond_site_symmetry_1
_geom_bond_site_symmetry_2
C1 H1 1_555 1_555
C2 C1 1_555 1_555
H2 C2 1_555 1_555
C3 C2 1_555 1_555
C4 C3 1_555 1_555
H3 C4 1_555 1_555
C5 C4 1_555 1_555
H4 C5 1_555 1_555
C6 H5 1_555 1_555
H6 C6 1_555 1_555
C7 C6 1_555 1_555
H7 C7 1_555 1_555
H8 C7 1_555 1_555
C8 H9 1_555 1_555
H10 C8 1_555 1_555
C9 C8 1_555 1_555
H11 C9 1_555 1_555
H12 C9 1_555 1_555
C10 C11 1_555 1_555
C11 H13 1_555 1_555
C12 C11 1_555 1_555
H14 C12 1_555 1_555
C13 H15 1_555 1_555
C14 C10 1_555 1_555
H16 C14 1_555 1_555
C15 H17 1_555 1_555
C16 C15 1_555 1_555
H18 C16 1_555 1_555
C17 C16 1_555 1_555
C18 C17 1_555 1_555
H19 C18 1_555 1_555
C19 C18 1_555 1_555
H20 C19 1_555 1_555
C20 H21 1_555 1_555
H22 C20 1_555 1_555
C21 C20 1_555 1_555
H23 C21 1_555 1_555
H24 C21 1_555 1_555
C22 H25 1_555 1_555
H26 C22 1_555 1_555
C23 C22 1_555 1_555
H27 C23 1_555 1_555
H28 C23 1_555 1_555
C24 C25 1_555 1_555
C25 H29 1_555 1_555
C26 C25 1_555 1_555
H30 C26 1_555 1_555
C27 H31 1_555 1_555
C28 C24 1_555 1_555
H32 C28 1_555 1_555
C29 H33 1_555 1_555
C30 C29 1_555 1_555
H34 C30 1_555 1_555
C31 C30 1_555 1_555
C32 C31 1_555 1_555
H35 C32 1_555 1_555
C33 C32 1_555 1_555
H36 C33 1_555 1_555
C34 H37 1_555 1_555
H38 C34 1_555 1_555
C35 H39 1_555 1_555
H40 C35 1_555 1_555
Cl1 Cu3 1_555 1_555
Cu1 N1 1_555 1_555
Cu2 N4 1_555 1_555
Cu3 S2 1_555 1_555
N1 C1 1_555 1_555
N2 C3 1_555 1_555
N3 C7 1_555 1_555
N4 C12 1_555 1_555
N5 C15 1_555 1_555
N6 C17 1_555 1_555
N7 C21 1_555 1_555
N8 C26 1_555 1_555
N9 C29 1_555 1_555
N10 C31 1_555 1_555
S1 Cu1 1_555 1_555
S2 Cu2 1_555 1_555
S3 Cu1 1_555 1_555
S4 W1 1_555 1_555
W1 S1 1_555 1_555
C1A H1A 1_555 1_555
C2A C1A 1_555 1_555
H2A C2A 1_555 1_555
C3A C2A 1_555 1_555
C4A C3A 1_555 1_555
H3A C4A 1_555 1_555
C5A C4A 1_555 1_555
H4A C5A 1_555 1_555
C6A H5A 1_555 1_555
H6A C6A 1_555 1_555
C7A C6A 1_555 1_555
H7A C7A 1_555 1_555
H8A C7A 1_555 1_555
C8A H9A 1_555 1_555
H10A C8A 1_555 1_555
C9A C8A 1_555 1_555
H11A C9A 1_555 1_555
H12A C9A 1_555 1_555
C10A C11A 1_555 1_555
C11A H13A 1_555 1_555
C12A C11A 1_555 1_555
H14A C12A 1_555 1_555
C13A H15A 1_555 1_555
C14A C10A 1_555 1_555
H16A C14A 1_555 1_555
C15A H17A 1_555 1_555
C16A C15A 1_555 1_555
H18A C16A 1_555 1_555
C17A C16A 1_555 1_555
C18A C17A 1_555 1_555
H19A C18A 1_555 1_555
C19A C18A 1_555 1_555
H20A C19A 1_555 1_555
C20A H21A 1_555 1_555
H22A C20A 1_555 1_555
C21A C20A 1_555 1_555
H23A C21A 1_555 1_555
H24A C21A 1_555 1_555
C22A H25A 1_555 1_555
H26A C22A 1_555 1_555
C23A C22A 1_555 1_555
H27A C23A 1_555 1_555
H28A C23A 1_555 1_555
C24A C25A 1_555 1_555
C25A H29A 1_555 1_555
C26A C25A 1_555 1_555
H30A C26A 1_555 1_555
C27A H31A 1_555 1_555
C28A C24A 1_555 1_555
H32A C28A 1_555 1_555
C29A H33A 1_555 1_555
C30A C29A 1_555 1_555
H34A C30A 1_555 1_555
C31A C30A 1_555 1_555
C32A C31A 1_555 1_555
H35A C32A 1_555 1_555
C33A C32A 1_555 1_555
H36A C33A 1_555 1_555
C34A C35 1_555 1_555
H37A C34A 1_555 1_555
H38A C34A 1_555 1_555
C35A C34 1_555 1_555
H39A C35A 1_555 1_555
H40A C35A 1_555 1_555
Cl1A Cu3A 1_555 1_555
Cu1A N1A 1_555 1_555
Cu1A_2 S1A 1_555 1_555
Cu2A S1 1_555 1_555
Cu2A_2 N4A 1_555 1_555
Cu3A S4 1_555 1_555
N1A C1A 1_555 1_555
N2A C3A 1_555 1_555
N3A C7A 1_555 1_555
N4A C12A 1_555 1_555
N4A_2 Cu2A 1_555 1_555
N5A C15A 1_555 1_555
N6A C17A 1_555 1_555
N7A C21A 1_555 1_555
N8A C26A 1_555 1_555
N9A C29A 1_555 1_555
N10A C31A 1_555 1_555
S1A Cu2 1_555 1_555
S1A_2 Cu1A 1_555 1_555
S2A W1 1_555 1_555
S3A Cu1A 1_555 1_555
S3A_2 Cu1A_2 1_555 1_555
S4A Cu3 1_555 1_555
W1A S2 1_555 1_555
W1A_2 S1A_2 1_555 1_555
C5 N1 1_555 1_555
C6 N2 1_555 1_555
C8 N3 1_555 1_555
C9 N2 1_555 1_555
C10 N3 1_555 1_555
C13 C14 1_555 1_555
C13 N4 1_555 1_555
C19 N5 1_555 1_555
C20 N6 1_555 1_555
C22 N7 1_555 1_555
C23 N6 1_555 1_555
C24 N7 1_555 1_555
C27 C28 1_555 1_555
C27 N8 1_555 1_555
C33 N9 1_555 1_555
C34 N10 1_555 1_555
C35 N10 1_555 1_555
Cu1 N9 1_555 1_555
Cu2 N5 1_555 1_555
S3 W1 1_555 1_555
C5A N1A 1_555 1_555
C6A N2A 1_555 1_555
C8A N3A 1_555 1_555
C9A N2A 1_555 1_555
C10A N3A 1_555 1_555
C13A C14A 1_555 1_555
C13A N4A 1_555 1_555
C19A N5A 1_555 1_555
C20A N6A 1_555 1_555
C22A N7A 1_555 1_555
C23A N6A 1_555 1_555
C24A N7A 1_555 1_555
C27A C28A 1_555 1_555
C27A N8A 1_555 1_555
C33A N9A 1_555 1_555
C34A N10A 1_555 1_555
C35A N10A 1_555 1_555
Cu1A N9A 1_555 1_555
Cu2A N5A 1_555 1_555
Cu2A S2A 1_555 1_555
Cu3A S2A 1_555 1_555
S1A W1A 1_555 1_555
S3A W1A_2 1_555 1_555
S3A_2 W1A 1_555 1_555
S4A W1A 1_555 1_555

#END
