
#######################################################################
#
#                 Cambridge Crystallographic Data Centre
#                                CCDC 
#
#######################################################################
#
# If this CIF has been generated from an entry in the Cambridge 
# Structural Database, then it will include bibliographic, chemical, 
# crystal, experimental, refinement or atomic coordinate data resulting 
# from the CCDC's data processing and validation procedures.
#
#######################################################################

data_SATCEX
_symmetry_cell_setting           orthorhombic
_symmetry_space_group_name_H-M   'C c c a'
_symmetry_Int_Tables_number      68
_space_group_name_Hall           '-C 2b 2bc'
loop_
_symmetry_equiv_pos_site_id
_symmetry_equiv_pos_as_xyz
1 x,y,z
2 1/2-x,-y,z
3 -x,y,1/2-z
4 1/2+x,-y,1/2-z
5 1/2+x,1/2+y,z
6 -x,1/2-y,z
7 1/2-x,1/2+y,1/2-z
8 x,1/2-y,1/2-z
9 -x,-y,-z
10 1/2+x,y,-z
11 x,-y,1/2+z
12 1/2-x,y,1/2+z
13 1/2-x,1/2-y,-z
14 x,1/2+y,-z
15 1/2+x,1/2-y,1/2+z
16 -x,1/2+y,1/2+z
_cell_length_a                   25.115(3)
_cell_length_b                   32.162(3)
_cell_length_c                   13.8294(14)
_cell_angle_alpha                90
_cell_angle_beta                 90
_cell_angle_gamma                90
_cell_volume                     11170.7
loop_
_atom_site_label
_atom_site_type_symbol
_atom_site_fract_x
_atom_site_fract_y
_atom_site_fract_z
C1 C 0.3533(3) 0.3575(2) 0.2375(6)
H1 H 0.3698 0.3565 0.1774
C2 C 0.3522(4) 0.3224(3) 0.2905(6)
H2 H 0.3677 0.2980 0.2680
C3 C 0.3268(3) 0.3238(2) 0.3810(6)
C4 C 0.3055(3) 0.3599(2) 0.4130(5)
H3 H 0.2888 0.3615 0.4728
C5 C 0.3096(3) 0.3944(2) 0.3531(6)
H4 H 0.2957 0.4195 0.3754
C6 C 0.3238(4) 0.2856(3) 0.4419(6)
C7 C 0.3217(4) 0.2202(2) 0.5486(6)
C8 C 0.3222(4) 0.1840(2) 0.6105(6)
C9 C 0.3355(4) 0.1447(3) 0.5747(5)
H5 H 0.3449 0.1415 0.5101
C10 C 0.3345(3) 0.1107(2) 0.6356(6)
H6 H 0.3446 0.0849 0.6114
C11 C 0.3056(4) 0.1502(2) 0.7626(6)
H7 H 0.2940 0.1524 0.8263
C12 C 0.3078(4) 0.1862(3) 0.7062(6)
H8 H 0.2995 0.2118 0.7336
C13 C 0.4025(3) 0.6051(2) 0.0551(6)
H9 H 0.3958 0.6294 0.0897
C14 C 0.4325(3) 0.6075(2) -0.0266(6)
H10 H 0.4452 0.6331 -0.0475
C15 C 0.4441(3) 0.5724(2) -0.0784(5)
C16 C 0.4241(4) 0.5360(3) -0.0447(7)
H11 H 0.4308 0.5113 -0.0774
C17 C 0.3938(4) 0.5358(3) 0.0376(7)
H12 H 0.3805 0.5105 0.0596
C18 C 0.4743(3) 0.5731(3) -0.1716(6)
Cl1 Cl 0.40279(9) 0.42874(7) 0.07676(15)
Cu1 Cu 0.33088(4) 0.44424(3) 0.17074(7)
Cu2 Cu 0.31974(4) 0.56324(3) 0.18208(7)
N1 N 0.3322(2) 0.39405(19) 0.2657(4)
N2 N 0.3420(4) 0.2497(2) 0.4037(5)
N3 N 0.3394(4) 0.2156(2) 0.4590(6)
N4 N 0.3039(3) 0.2894(2) 0.5301(5)
N5 N 0.3022(4) 0.2545(2) 0.5844(5)
N6 N 0.3192(3) 0.11349(18) 0.7294(4)
N7 N 0.3827(3) 0.5699(2) 0.0873(5)
N8 N 0.4869(3) 0.5369(2) -0.2092(5)
N9 N 0.4868(2) 0.6095(2) -0.2082(4)
S1 S 0.32285(8) 0.50249(5) 0.26707(15)
S2 S 0.25336(7) 0.44328(7) 0.08210(14)
W1 W 0.2500 0.5000 0.17453(3)
C1M C 0.3533(3) 0.8575(2) 0.7625(6)
H1M H 0.3698 0.8565 0.8226
C2M C 0.3522(4) 0.8224(3) 0.7095(6)
H2M H 0.3677 0.7980 0.7320
C3M C 0.3268(3) 0.8238(2) 0.6190(6)
C4M C 0.3055(3) 0.8599(2) 0.5870(5)
H3M H 0.2888 0.8615 0.5272
C5M C 0.3096(3) 0.8944(2) 0.6469(6)
H4M H 0.2957 0.9195 0.6246
C6M C 0.3238(4) 0.7856(3) 0.5581(6)
C7M C 0.3217(4) 0.7202(2) 0.4514(6)
C8M C 0.3222(4) 0.6840(2) 0.3895(6)
C9M C 0.3355(4) 0.6447(3) 0.4253(5)
H5M H 0.3449 0.6415 0.4899
C10M C 0.3345(3) 0.6107(2) 0.3644(6)
H6M H 0.3446 0.5849 0.3886
C11M C 0.3056(4) 0.6502(2) 0.2374(6)
H7M H 0.2940 0.6524 0.1737
C12M C 0.3078(4) 0.6862(3) 0.2938(6)
H8M H 0.2995 0.7118 0.2664
C13B C 0.5975(3) 0.6051(2) -0.5551(6)
H9B H 0.6042 0.6294 -0.5897
C14B C 0.5675(3) 0.6075(2) -0.4734(6)
H10B H 0.5548 0.6331 -0.4525
C15B C 0.5559(3) 0.5724(2) -0.4216(5)
C16B C 0.5759(4) 0.5360(3) -0.4553(7)
H11B H 0.5692 0.5113 -0.4226
C17B C 0.6062(4) 0.5358(3) -0.5376(7)
H12B H 0.6195 0.5105 -0.5596
C18B C 0.5257(3) 0.5731(3) -0.3284(6)
Cl1A Cl 0.09721(9) 0.57126(7) 0.07676(15)
Cu1A Cu 0.16912(4) 0.55576(3) 0.17074(7)
Cu1M Cu 0.33088(4) 0.94424(3) 0.82926(7)
Cu2A Cu 0.18026(4) 0.43676(3) 0.18208(7)
Cu2M Cu 0.31974(4) 0.06324(3) 0.81792(7)
Cu2B Cu 0.68026(4) 0.56324(3) -0.68208(7)
N1M N 0.3322(2) 0.89405(19) 0.7343(4)
N1A N 0.1678(2) 0.60595(19) 0.2657(4)
N2M N 0.3420(4) 0.7497(2) 0.5963(5)
N3M N 0.3394(4) 0.7156(2) 0.5410(6)
N4M N 0.3039(3) 0.7894(2) 0.4699(5)
N5M N 0.3022(4) 0.7545(2) 0.4156(5)
N6M N 0.3192(3) 0.61349(18) 0.2706(4)
N6L N 0.1808(3) 0.38651(18) 0.2706(4)
N7B N 0.6173(3) 0.5699(2) -0.5873(5)
N7A N 0.1173(3) 0.4301(2) 0.0873(5)
N8B N 0.5131(3) 0.5369(2) -0.2908(5)
N9B N 0.5132(2) 0.6095(2) -0.2918(4)
S1A S 0.17715(8) 0.49751(5) 0.26707(15)
S2A S 0.24664(7) 0.55672(7) 0.08210(14)
loop_
_geom_bond_atom_site_label_1
_geom_bond_atom_site_label_2
_geom_bond_site_symmetry_1
_geom_bond_site_symmetry_2
C1 H1 1_555 1_555
C2 C1 1_555 1_555
H2 C2 1_555 1_555
C3 C2 1_555 1_555
C4 C3 1_555 1_555
H3 C4 1_555 1_555
C5 C4 1_555 1_555
H4 C5 1_555 1_555
C6 C3 1_555 1_555
C7 C8 1_555 1_555
C8 C9 1_555 1_555
C9 H5 1_555 1_555
C10 C9 1_555 1_555
H6 C10 1_555 1_555
C11 H7 1_555 1_555
C12 C8 1_555 1_555
H8 C12 1_555 1_555
C13 H9 1_555 1_555
C14 C13 1_555 1_555
H10 C14 1_555 1_555
C15 C14 1_555 1_555
C16 C15 1_555 1_555
H11 C16 1_555 1_555
C17 C16 1_555 1_555
H12 C17 1_555 1_555
C18 C15 1_555 1_555
Cl1 Cu1 1_555 1_555
Cu1 N1 1_555 1_555
Cu2 N7 1_555 1_555
N1 C1 1_555 1_555
N2 C6 1_555 1_555
N3 C7 1_555 1_555
N4 C6 1_555 1_555
N5 C7 1_555 1_555
N6 C10 1_555 1_555
N7 C13 1_555 1_555
N8 C18 1_555 1_555
N9 C18 1_555 1_555
S1 Cu1 1_555 1_555
S2 Cu1 1_555 1_555
W1 S1 1_555 1_555
C1M H1M 1_555 1_555
C2M C1M 1_555 1_555
H2M C2M 1_555 1_555
C3M C2M 1_555 1_555
C4M C3M 1_555 1_555
H3M C4M 1_555 1_555
C5M C4M 1_555 1_555
H4M C5M 1_555 1_555
C6M C3M 1_555 1_555
C7M C8M 1_555 1_555
C8M C9M 1_555 1_555
C9M H5M 1_555 1_555
C10M C9M 1_555 1_555
H6M C10M 1_555 1_555
C11M H7M 1_555 1_555
C12M C8M 1_555 1_555
H8M C12M 1_555 1_555
C13B H9B 1_555 1_555
C14B C13B 1_555 1_555
H10B C14B 1_555 1_555
C15B C14B 1_555 1_555
C16B C15B 1_555 1_555
H11B C16B 1_555 1_555
C17B C16B 1_555 1_555
H12B C17B 1_555 1_555
C18B C15B 1_555 1_555
Cl1A Cu1A 1_555 1_555
Cu1A N1A 1_555 1_555
Cu1M N1M 1_555 1_555
Cu2A S2 1_555 1_555
Cu2M N6 1_555 1_555
Cu2B N7B 1_555 1_555
N1M C1M 1_555 1_555
N2M C6M 1_555 1_555
N3M C7M 1_555 1_555
N4M C6M 1_555 1_555
N5M C7M 1_555 1_555
N6M Cu2 1_555 1_555
N6L Cu2A 1_555 1_555
N7B C13B 1_555 1_555
N7A Cu2A 1_555 1_555
N8B N8 1_555 1_555
N9B N9 1_555 1_555
S1A W1 1_555 1_555
S2A Cu2 1_555 1_555
C5 N1 1_555 1_555
C11 C12 1_555 1_555
C11 N6 1_555 1_555
C17 N7 1_555 1_555
Cu2 S1 1_555 1_555
N2 N3 1_555 1_555
N4 N5 1_555 1_555
S2 W1 1_555 1_555
W1 S2A 1_555 1_555
C5M N1M 1_555 1_555
C10M N6M 1_555 1_555
C11M C12M 1_555 1_555
C11M N6M 1_555 1_555
C17B N7B 1_555 1_555
C18B N8B 1_555 1_555
C18B N9B 1_555 1_555
Cu1A S1A 1_555 1_555
Cu1A S2A 1_555 1_555
Cu2A S1A 1_555 1_555
N2M N3M 1_555 1_555
N4M N5M 1_555 1_555

#END
