
#######################################################################
#
#                 Cambridge Crystallographic Data Centre
#                                CCDC 
#
#######################################################################
#
# If this CIF has been generated from an entry in the Cambridge 
# Structural Database, then it will include bibliographic, chemical, 
# crystal, experimental, refinement or atomic coordinate data resulting 
# from the CCDC's data processing and validation procedures.
#
#######################################################################

data_SATHIG
_symmetry_cell_setting           monoclinic
_symmetry_space_group_name_H-M   'C 2/c'
_symmetry_Int_Tables_number      15
_space_group_name_Hall           '-C 2yn'
loop_
_symmetry_equiv_pos_site_id
_symmetry_equiv_pos_as_xyz
1 x,y,z
2 -x,y,1/2-z
3 1/2+x,1/2+y,z
4 1/2-x,1/2+y,1/2-z
5 -x,-y,-z
6 x,-y,1/2+z
7 1/2-x,1/2-y,-z
8 1/2+x,1/2-y,1/2+z
_cell_length_a                   11.2382(5)
_cell_length_b                   16.8045(8)
_cell_length_c                   18.7559(8)
_cell_angle_alpha                90
_cell_angle_beta                 96.448(3)
_cell_angle_gamma                90
_cell_volume                     3519.69
loop_
_atom_site_label
_atom_site_type_symbol
_atom_site_fract_x
_atom_site_fract_y
_atom_site_fract_z
Mn1 Mn 0.5000 0.36543(3) 0.7500
Cr1 Cr 0.5000 0.5000 0.5000
O1 O 0.62127(17) 0.28858(10) 0.74509(9)
N1 N 0.6154(2) 0.45426(12) 0.74717(11)
N2 N 1.0651(2) 0.33167(14) 0.55211(13)
N3 N 0.4771(3) 0.37379(12) 0.62701(12)
N4 N 0.6679(3) 0.60571(14) 0.61477(12)
N5 N 0.2659(3) 0.57671(18) 0.55800(15)
C1 C 0.7218(3) 0.29913(15) 0.71496(13)
C2 C 0.7814(3) 0.23162(15) 0.69302(14)
C3 C 0.8891(3) 0.23841(16) 0.66500(14)
C4 C 0.9428(3) 0.31284(16) 0.65717(14)
C5 C 1.0640(3) 0.31910(17) 0.63182(15)
C6 C 1.0056(4) 0.26474(18) 0.51002(17)
C7 C 1.1941(4) 0.3382(3) 0.5405(2)
C8 C 1.0046(4) 0.40681(18) 0.52805(17)
C9 C 0.8846(3) 0.37955(16) 0.67850(14)
C10 C 0.7741(3) 0.37494(15) 0.70631(14)
C11 C 0.7206(3) 0.44875(15) 0.72638(13)
C12 C 0.5656(3) 0.53203(15) 0.76524(14)
C13 C 0.4868(3) 0.41475(15) 0.57921(14)
C14 C 0.6082(3) 0.56753(15) 0.57447(13)
C15 C 0.3493(3) 0.55219(17) 0.53411(15)
H1 H 0.7469 0.1805 0.6975
H4 H 0.9278 0.1918 0.6507
H7 H 1.1090 0.2698 0.6456
H8 H 1.1073 0.3639 0.6574
H9 H 1.0557 0.2170 0.5167
H10 H 0.9944 0.2790 0.4590
H11 H 0.9275 0.2542 0.5266
H12 H 1.2397 0.2959 0.5671
H13 H 1.2251 0.3902 0.5574
H14 H 1.2020 0.3328 0.4892
H15 H 1.0364 0.4505 0.5592
H16 H 0.9183 0.4017 0.5306
H17 H 1.0191 0.4180 0.4785
H18 H 0.9205 0.4302 0.6742
H19 H 0.7659 0.4962 0.7241
H20 H 0.6089 0.5757 0.7439
H21 H 0.5734 0.5395 0.8179
Cr1A Cr 0.5000 0.5000 1.0000
O1A O 0.37873(17) 0.28858(10) 0.75491(9)
N1A N 0.3846(2) 0.45426(12) 0.75283(11)
N2A N -0.0651(2) 0.33167(14) 0.94789(13)
N3A N 0.5229(3) 0.37379(12) 0.87299(12)
N4D N 0.3321(3) 0.39429(14) 0.38523(12)
N5D N 0.7341(3) 0.42329(18) 0.44200(15)
C1A C 0.2782(3) 0.29913(15) 0.78504(13)
C2A C 0.2186(3) 0.23162(15) 0.80698(14)
C3A C 0.1109(3) 0.23841(16) 0.83500(14)
C4A C 0.0572(3) 0.31284(16) 0.84283(14)
C5A C -0.0640(3) 0.31910(17) 0.86818(15)
C6A C -0.0056(4) 0.26474(18) 0.98998(17)
C7A C -0.1941(4) 0.3382(3) 0.9595(2)
C8A C -0.0046(4) 0.40681(18) 0.97195(17)
C9A C 0.1154(3) 0.37955(16) 0.82150(14)
C10A C 0.2259(3) 0.37494(15) 0.79369(14)
C11A C 0.2794(3) 0.44875(15) 0.77362(13)
C12A C 0.4344(3) 0.53203(15) 0.73476(14)
C13A C 0.5132(3) 0.41475(15) 0.92079(14)
C13D C 0.5132(3) 0.58525(15) 0.42079(14)
C14D C 0.3918(3) 0.43247(15) 0.42553(13)
C15D C 0.6507(3) 0.44781(17) 0.46589(15)
H1A H 0.2531 0.1805 0.8025
H4A H 0.0722 0.1918 0.8493
H7A H -0.1090 0.2698 0.8544
H8A H -0.1073 0.3639 0.8426
H9A H -0.0557 0.2170 0.9833
H10A H 0.0056 0.2790 1.0410
H11A H 0.0725 0.2542 0.9734
H12A H -0.2397 0.2959 0.9329
H13A H -0.2251 0.3902 0.9426
H14A H -0.2020 0.3328 1.0108
H15A H -0.0364 0.4505 0.9408
H16A H 0.0817 0.4017 0.9694
H17A H -0.0191 0.4180 1.0215
H18A H 0.0795 0.4302 0.8258
H19A H 0.2341 0.4962 0.7759
H20A H 0.3911 0.5757 0.7561
H21A H 0.4266 0.5395 0.6821
O2 O 0.9112(3) 0.65852(14) 0.65445(13)
H2 H 0.841(5) 0.636(3) 0.658(3)
H3 H 0.914(5) 0.685(3) 0.692(3)
O3 O 0.0974(3) 0.54155(14) 0.66264(14)
H5 H 0.144(4) 0.559(3) 0.628(3)
H6 H 0.042(5) 0.576(3) 0.667(3)
loop_
_geom_bond_atom_site_label_1
_geom_bond_atom_site_label_2
_geom_bond_site_symmetry_1
_geom_bond_site_symmetry_2
Mn1 O1 1_555 1_555
Cr1 C13 1_555 1_555
O1 C1 1_555 1_555
O2 H2 1_555 1_555
O3 H5 1_555 1_555
N1 Mn1 1_555 1_555
N2 C5 1_555 1_555
N3 Mn1 1_555 1_555
N4 C14 1_555 1_555
N5 C15 1_555 1_555
C1 C2 1_555 1_555
C2 C3 1_555 1_555
C3 C4 1_555 1_555
C4 C5 1_555 1_555
C5 H7 1_555 1_555
C6 N2 1_555 1_555
C7 N2 1_555 1_555
C8 N2 1_555 1_555
C9 C4 1_555 1_555
C10 C1 1_555 1_555
C11 N1 1_555 1_555
C12 N1 1_555 1_555
C13 N3 1_555 1_555
C14 Cr1 1_555 1_555
C15 Cr1 1_555 1_555
H1 C2 1_555 1_555
H3 O2 1_555 1_555
H4 C3 1_555 1_555
H6 O3 1_555 1_555
H8 C5 1_555 1_555
H9 C6 1_555 1_555
H10 C6 1_555 1_555
H11 C6 1_555 1_555
H12 C7 1_555 1_555
H13 C7 1_555 1_555
H14 C7 1_555 1_555
H15 C8 1_555 1_555
H16 C8 1_555 1_555
H17 C8 1_555 1_555
H18 C9 1_555 1_555
H19 C11 1_555 1_555
H20 C12 1_555 1_555
H21 C12 1_555 1_555
Cr1A C13A 1_555 1_555
O1A Mn1 1_555 1_555
N1A Mn1 1_555 1_555
N2A C5A 1_555 1_555
N3A Mn1 1_555 1_555
N4D C14D 1_555 1_555
N5D C15D 1_555 1_555
C1A O1A 1_555 1_555
C2A C1A 1_555 1_555
C3A C2A 1_555 1_555
C4A C3A 1_555 1_555
C5A C4A 1_555 1_555
C6A N2A 1_555 1_555
C7A N2A 1_555 1_555
C8A N2A 1_555 1_555
C9A C4A 1_555 1_555
C10A C1A 1_555 1_555
C11A N1A 1_555 1_555
C12A C12 1_555 1_555
C13A N3A 1_555 1_555
C13D Cr1 1_555 1_555
C14D Cr1 1_555 1_555
C15D Cr1 1_555 1_555
H1A C2A 1_555 1_555
H4A C3A 1_555 1_555
H7A C5A 1_555 1_555
H8A C5A 1_555 1_555
H9A C6A 1_555 1_555
H10A C6A 1_555 1_555
H11A C6A 1_555 1_555
H12A C7A 1_555 1_555
H13A C7A 1_555 1_555
H14A C7A 1_555 1_555
H15A C8A 1_555 1_555
H16A C8A 1_555 1_555
H17A C8A 1_555 1_555
H18A C9A 1_555 1_555
H19A C11A 1_555 1_555
H20A C12A 1_555 1_555
H21A C12A 1_555 1_555
C9 C10 1_555 1_555
C10 C11 1_555 1_555
N1A C12A 1_555 1_555
C9A C10A 1_555 1_555
C10A C11A 1_555 1_555

#END
