
#######################################################################
#
#                 Cambridge Crystallographic Data Centre
#                                CCDC 
#
#######################################################################
#
# If this CIF has been generated from an entry in the Cambridge 
# Structural Database, then it will include bibliographic, chemical, 
# crystal, experimental, refinement or atomic coordinate data resulting 
# from the CCDC's data processing and validation procedures.
#
#######################################################################

data_SATHEC
_symmetry_cell_setting           monoclinic
_symmetry_space_group_name_H-M   'C 2/c'
_symmetry_Int_Tables_number      15
_space_group_name_Hall           '-C 2yn'
loop_
_symmetry_equiv_pos_site_id
_symmetry_equiv_pos_as_xyz
1 x,y,z
2 -x,y,1/2-z
3 1/2+x,1/2+y,z
4 1/2-x,1/2+y,1/2-z
5 -x,-y,-z
6 x,-y,1/2+z
7 1/2-x,1/2-y,-z
8 1/2+x,1/2-y,1/2+z
_cell_length_a                   11.224(7)
_cell_length_b                   16.740(10)
_cell_length_c                   18.358(11)
_cell_angle_alpha                90
_cell_angle_beta                 96.839(7)
_cell_angle_gamma                90
_cell_volume                     3424.74
loop_
_atom_site_label
_atom_site_type_symbol
_atom_site_fract_x
_atom_site_fract_y
_atom_site_fract_z
Co1 Co 0.5000 0.5000 0.5000
Mn1 Mn 0.5000 0.36888(3) 0.2500
O1 O 0.37925(17) 0.29149(11) 0.25482(10)
N1 N 0.3843(2) 0.45823(13) 0.25303(12)
N2 N -0.0683(3) 0.33182(15) 0.44950(13)
N3 N 0.5221(3) 0.38079(14) 0.37634(13)
N4 N 0.3391(3) 0.60232(15) 0.39044(13)
N5 N 0.7230(3) 0.57688(18) 0.44906(15)
C1 C 0.2793(3) 0.30159(16) 0.28606(14)
C2 C 0.2203(3) 0.23367(18) 0.30817(16)
C3 C 0.1129(3) 0.24034(19) 0.33675(16)
C4 C 0.0582(3) 0.31439(17) 0.34407(15)
C5 C 0.1161(3) 0.38191(18) 0.32310(16)
C6 C 0.2272(3) 0.37771(17) 0.29517(15)
C7 C -0.0644(3) 0.3196(2) 0.36774(17)
C8 C -0.0098(3) 0.26411(19) 0.49351(17)
C9 C -0.1989(3) 0.3383(3) 0.4591(2)
C10 C -0.0094(4) 0.4082(2) 0.4747(2)
C11 C 0.2795(3) 0.45225(17) 0.27483(15)
C12 C 0.4336(3) 0.53638(17) 0.23451(16)
C13 C 0.5121(3) 0.42347(17) 0.42487(15)
C14 C 0.3998(3) 0.56322(17) 0.43147(15)
C15 C 0.6391(3) 0.55015(18) 0.47045(16)
H1 H 0.2557 0.1840 0.3031
H4 H 0.0759 0.1986 0.3491
H7 H 0.0788 0.4331 0.3280
H8 H -0.1117 0.2713 0.3600
H9 H -0.1062 0.3619 0.3467
H10 H -0.0480 0.2137 0.4766
H11 H -0.0187 0.2721 0.5455
H12 H 0.0757 0.2622 0.4872
H13 H -0.2080 0.3382 0.5115
H14 H -0.2424 0.2927 0.4352
H15 H -0.2314 0.3881 0.4368
H16 H -0.0537 0.4550 0.4378
H17 H -0.0195 0.4143 0.5259
H18 H 0.0764 0.4010 0.4699
H19 H 0.2338 0.5014 0.2784
H20 H 0.3903 0.5771 0.2542
H21 H 0.4223 0.5425 0.1823
Co1A Co 0.5000 0.5000 0.0000
O1A O 0.62075(17) 0.29149(11) 0.24518(10)
N1A N 0.6157(2) 0.45823(13) 0.24697(12)
N2A N 1.0683(3) 0.33182(15) 0.05050(13)
N3A N 0.4779(3) 0.38079(14) 0.12366(13)
N4D N 0.6609(3) 0.39768(15) 0.60956(13)
N5D N 0.2770(3) 0.42312(18) 0.55094(15)
C1A C 0.7207(3) 0.30159(16) 0.21394(14)
C2A C 0.7797(3) 0.23367(18) 0.19183(16)
C3A C 0.8871(3) 0.24034(19) 0.16325(16)
C4A C 0.9418(3) 0.31439(17) 0.15593(15)
C5A C 0.8839(3) 0.38191(18) 0.17690(16)
C6A C 0.7728(3) 0.37771(17) 0.20483(15)
C7A C 1.0644(3) 0.3196(2) 0.13226(17)
C8A C 1.0098(3) 0.26411(19) 0.00649(17)
C9A C 1.1989(3) 0.3383(3) 0.0409(2)
C10A C 1.0094(4) 0.4082(2) 0.0253(2)
C11A C 0.7205(3) 0.45225(17) 0.22517(15)
C12A C 0.5664(3) 0.53638(17) 0.26549(16)
C13D C 0.4879(3) 0.57653(17) 0.57513(15)
C13A C 0.4879(3) 0.42347(17) 0.07513(15)
C14D C 0.6002(3) 0.43678(17) 0.56853(15)
C15D C 0.3609(3) 0.44985(18) 0.52955(16)
H1A H 0.7443 0.1840 0.1969
H4A H 0.9241 0.1986 0.1509
H7A H 0.9212 0.4331 0.1720
H8A H 1.1117 0.2713 0.1400
H9A H 1.1062 0.3619 0.1533
H10A H 1.0480 0.2137 0.0234
H11A H 1.0187 0.2721 -0.0455
H12A H 0.9243 0.2622 0.0128
H13A H 1.2080 0.3382 -0.0115
H14A H 1.2424 0.2927 0.0648
H15A H 1.2314 0.3881 0.0632
H16A H 1.0537 0.4550 0.0622
H17A H 1.0195 0.4143 -0.0259
H18A H 0.9236 0.4010 0.0301
H19A H 0.7662 0.5014 0.2216
H20A H 0.6097 0.5771 0.2458
H21A H 0.5777 0.5425 0.3177
O2 O 0.0940(3) 0.65543(16) 0.34382(14)
H2 H 0.170(5) 0.641(3) 0.348(3)
H3 H 0.097(4) 0.688(3) 0.316(3)
O3 O 0.8947(3) 0.54519(15) 0.34106(14)
H5 H 0.955(5) 0.581(4) 0.339(3)
H6 H 0.848(4) 0.562(3) 0.373(3)
loop_
_geom_bond_atom_site_label_1
_geom_bond_atom_site_label_2
_geom_bond_site_symmetry_1
_geom_bond_site_symmetry_2
Co1 C13 1_555 1_555
Mn1 O1 1_555 1_555
O1 C1 1_555 1_555
O2 H2 1_555 1_555
O3 H5 1_555 1_555
N1 Mn1 1_555 1_555
N2 C7 1_555 1_555
N3 Mn1 1_555 1_555
N4 C14 1_555 1_555
N5 C15 1_555 1_555
C1 C2 1_555 1_555
C2 C3 1_555 1_555
C3 C4 1_555 1_555
C4 C5 1_555 1_555
C5 C6 1_555 1_555
C6 C1 1_555 1_555
C7 C4 1_555 1_555
C8 N2 1_555 1_555
C9 N2 1_555 1_555
C10 N2 1_555 1_555
C11 N1 1_555 1_555
C12 N1 1_555 1_555
C13 N3 1_555 1_555
C14 Co1 1_555 1_555
C15 Co1 1_555 1_555
H1 C2 1_555 1_555
H3 O2 1_555 1_555
H4 C3 1_555 1_555
H6 O3 1_555 1_555
H7 C5 1_555 1_555
H8 C7 1_555 1_555
H9 C7 1_555 1_555
H10 C8 1_555 1_555
H11 C8 1_555 1_555
H12 C8 1_555 1_555
H13 C9 1_555 1_555
H14 C9 1_555 1_555
H15 C9 1_555 1_555
H16 C10 1_555 1_555
H17 C10 1_555 1_555
H18 C10 1_555 1_555
H19 C11 1_555 1_555
H20 C12 1_555 1_555
H21 C12 1_555 1_555
Co1A C13A 1_555 1_555
O1A Mn1 1_555 1_555
N1A Mn1 1_555 1_555
N2A C7A 1_555 1_555
N3A Mn1 1_555 1_555
N4D C14D 1_555 1_555
N5D C15D 1_555 1_555
C1A O1A 1_555 1_555
C2A C1A 1_555 1_555
C3A C2A 1_555 1_555
C4A C3A 1_555 1_555
C5A C4A 1_555 1_555
C6A C1A 1_555 1_555
C7A C4A 1_555 1_555
C8A N2A 1_555 1_555
C9A N2A 1_555 1_555
C10A N2A 1_555 1_555
C11A N1A 1_555 1_555
C12A C12 1_555 1_555
C13D Co1 1_555 1_555
C13A N3A 1_555 1_555
C14D Co1 1_555 1_555
C15D Co1 1_555 1_555
H1A C2A 1_555 1_555
H4A C3A 1_555 1_555
H7A C5A 1_555 1_555
H8A C7A 1_555 1_555
H9A C7A 1_555 1_555
H10A C8A 1_555 1_555
H11A C8A 1_555 1_555
H12A C8A 1_555 1_555
H13A C9A 1_555 1_555
H14A C9A 1_555 1_555
H15A C9A 1_555 1_555
H16A C10A 1_555 1_555
H17A C10A 1_555 1_555
H18A C10A 1_555 1_555
H19A C11A 1_555 1_555
H20A C12A 1_555 1_555
H21A C12A 1_555 1_555
C6 C11 1_555 1_555
N1A C12A 1_555 1_555
C5A C6A 1_555 1_555
C6A C11A 1_555 1_555

#END
