
#######################################################################
#
#                 Cambridge Crystallographic Data Centre
#                                CCDC 
#
#######################################################################
#
# If this CIF has been generated from an entry in the Cambridge 
# Structural Database, then it will include bibliographic, chemical, 
# crystal, experimental, refinement or atomic coordinate data resulting 
# from the CCDC's data processing and validation procedures.
#
#######################################################################

data_SATHOM
_symmetry_cell_setting           monoclinic
_symmetry_space_group_name_H-M   'C 2/c'
_symmetry_Int_Tables_number      15
_space_group_name_Hall           '-C 2yn'
loop_
_symmetry_equiv_pos_site_id
_symmetry_equiv_pos_as_xyz
1 x,y,z
2 -x,y,1/2-z
3 1/2+x,1/2+y,z
4 1/2-x,1/2+y,1/2-z
5 -x,-y,-z
6 x,-y,1/2+z
7 1/2-x,1/2-y,-z
8 1/2+x,1/2-y,1/2+z
_cell_length_a                   11.236(7)
_cell_length_b                   16.741(10)
_cell_length_c                   18.457(11)
_cell_angle_alpha                90
_cell_angle_beta                 96.929(7)
_cell_angle_gamma                90
_cell_volume                     3446.44
loop_
_atom_site_label
_atom_site_type_symbol
_atom_site_fract_x
_atom_site_fract_y
_atom_site_fract_z
Fe1 Fe 0.5000 0.5000 0.5000
Mn1 Mn 0.5000 0.36780(3) 0.2500
O1 O 0.37942(17) 0.29041(11) 0.25471(10)
N1 N 0.3846(2) 0.45708(13) 0.25263(12)
N2 N -0.0685(2) 0.33166(15) 0.44872(13)
N3 N 0.5223(2) 0.37885(14) 0.37549(13)
N4 N 0.6626(3) 0.39754(15) 0.61170(13)
N5 N 0.2736(3) 0.42455(18) 0.55351(15)
C1 C 0.2793(3) 0.30067(17) 0.28585(15)
C2 C 0.2206(3) 0.23261(17) 0.30821(15)
C3 C 0.1127(3) 0.23917(18) 0.33655(16)
C4 C 0.0584(3) 0.31390(17) 0.34342(15)
C5 C 0.1162(3) 0.38119(18) 0.32239(15)
C6 C 0.2271(3) 0.37680(17) 0.29485(15)
C7 C -0.0644(3) 0.31944(18) 0.36736(15)
C8 C -0.0106(3) 0.26366(19) 0.49241(17)
C9 C -0.1984(3) 0.3384(3) 0.4585(2)
C10 C -0.0082(3) 0.40704(19) 0.47400(18)
C11 C 0.2797(3) 0.45132(17) 0.27431(14)
C12 C 0.4340(3) 0.53519(16) 0.23442(15)
C13 C 0.5122(3) 0.42143(17) 0.42370(15)
C14 C 0.6024(3) 0.43588(17) 0.57065(15)
C15 C 0.3568(3) 0.45039(18) 0.53120(15)
H1 H 0.2554 0.1814 0.3038
H4 H 0.0746 0.1924 0.3516
H7 H 0.0799 0.4320 0.3267
H8 H -0.1086 0.2698 0.3524
H9 H -0.1075 0.3643 0.3409
H10 H 0.0715 0.2566 0.4807
H11 H -0.0565 0.2146 0.4805
H12 H -0.0089 0.2753 0.5446
H13 H -0.2430 0.2947 0.4325
H14 H -0.2297 0.3897 0.4389
H15 H -0.2075 0.3353 0.5106
H16 H 0.0714 0.4092 0.4575
H17 H 0.0000 0.4093 0.5274
H18 H -0.0561 0.4526 0.4538
H19 H 0.2343 0.4989 0.2770
H20 H 0.3909 0.5790 0.2562
H21 H 0.4256 0.5427 0.1808
Fe1A Fe 0.5000 0.5000 0.0000
O1A O 0.62058(17) 0.29041(11) 0.24529(10)
N1A N 0.6154(2) 0.45708(13) 0.24737(12)
N2A N 1.0685(2) 0.33166(15) 0.05128(13)
N3A N 0.4777(2) 0.37885(14) 0.12451(13)
N4D N 0.3374(3) 0.60246(15) 0.38830(13)
N5D N 0.7264(3) 0.57545(18) 0.44649(15)
C1A C 0.7207(3) 0.30067(17) 0.21415(15)
C2A C 0.7794(3) 0.23261(17) 0.19179(15)
C3A C 0.8873(3) 0.23917(18) 0.16345(16)
C4A C 0.9416(3) 0.31390(17) 0.15658(15)
C5A C 0.8838(3) 0.38119(18) 0.17761(15)
C6A C 0.7729(3) 0.37680(17) 0.20515(15)
C7A C 1.0644(3) 0.31944(18) 0.13264(15)
C8A C 1.0106(3) 0.26366(19) 0.00759(17)
C9A C 1.1984(3) 0.3384(3) 0.0415(2)
C10A C 1.0082(3) 0.40704(19) 0.02600(18)
C11A C 0.7203(3) 0.45132(17) 0.22569(14)
C12A C 0.5660(3) 0.53519(16) 0.26558(15)
C13D C 0.4878(3) 0.57857(17) 0.57630(15)
C13A C 0.4878(3) 0.42143(17) 0.07630(15)
C14D C 0.3976(3) 0.56412(17) 0.42935(15)
C15D C 0.6432(3) 0.54961(18) 0.46880(15)
H1A H 0.7446 0.1814 0.1962
H4A H 0.9254 0.1924 0.1484
H7A H 0.9201 0.4320 0.1733
H8A H 1.1086 0.2698 0.1476
H9A H 1.1075 0.3643 0.1591
H10A H 0.9285 0.2566 0.0193
H11A H 1.0565 0.2146 0.0195
H12A H 1.0089 0.2753 -0.0446
H13A H 1.2430 0.2947 0.0675
H14A H 1.2297 0.3897 0.0611
H15A H 1.2075 0.3353 -0.0106
H16A H 0.9286 0.4092 0.0425
H17A H 1.0000 0.4093 -0.0274
H18A H 1.0561 0.4526 0.0462
H19A H 0.7657 0.4989 0.2230
H20A H 0.6091 0.5790 0.2438
H21A H 0.5744 0.5427 0.3192
O2 O 0.9072(3) 0.34376(16) 0.65557(14)
H2 H 0.838(5) 0.359(3) 0.650(3)
H3 H 0.907(5) 0.311(3) 0.685(3)
O3 O 0.1015(3) 0.45604(15) 0.66022(13)
H5 H 0.043(5) 0.420(4) 0.662(3)
H6 H 0.144(4) 0.440(3) 0.629(3)
loop_
_geom_bond_atom_site_label_1
_geom_bond_atom_site_label_2
_geom_bond_site_symmetry_1
_geom_bond_site_symmetry_2
Fe1 C13 1_555 1_555
Mn1 O1 1_555 1_555
O1 C1 1_555 1_555
O2 H2 1_555 1_555
O3 H5 1_555 1_555
N1 Mn1 1_555 1_555
N2 C7 1_555 1_555
N3 Mn1 1_555 1_555
N4 C14 1_555 1_555
N5 C15 1_555 1_555
C1 C2 1_555 1_555
C2 C3 1_555 1_555
C3 C4 1_555 1_555
C4 C5 1_555 1_555
C5 C6 1_555 1_555
C6 C1 1_555 1_555
C7 C4 1_555 1_555
C8 N2 1_555 1_555
C9 N2 1_555 1_555
C10 N2 1_555 1_555
C11 N1 1_555 1_555
C12 N1 1_555 1_555
C13 N3 1_555 1_555
C14 Fe1 1_555 1_555
C15 Fe1 1_555 1_555
H1 C2 1_555 1_555
H3 O2 1_555 1_555
H4 C3 1_555 1_555
H6 O3 1_555 1_555
H7 C5 1_555 1_555
H8 C7 1_555 1_555
H9 C7 1_555 1_555
H10 C8 1_555 1_555
H11 C8 1_555 1_555
H12 C8 1_555 1_555
H13 C9 1_555 1_555
H14 C9 1_555 1_555
H15 C9 1_555 1_555
H16 C10 1_555 1_555
H17 C10 1_555 1_555
H18 C10 1_555 1_555
H19 C11 1_555 1_555
H20 C12 1_555 1_555
H21 C12 1_555 1_555
Fe1A C13A 1_555 1_555
O1A Mn1 1_555 1_555
N1A Mn1 1_555 1_555
N2A C7A 1_555 1_555
N3A Mn1 1_555 1_555
N4D C14D 1_555 1_555
N5D C15D 1_555 1_555
C1A O1A 1_555 1_555
C2A C1A 1_555 1_555
C3A C2A 1_555 1_555
C4A C3A 1_555 1_555
C5A C4A 1_555 1_555
C6A C1A 1_555 1_555
C7A C4A 1_555 1_555
C8A N2A 1_555 1_555
C9A N2A 1_555 1_555
C10A N2A 1_555 1_555
C11A N1A 1_555 1_555
C12A C12 1_555 1_555
C13D Fe1 1_555 1_555
C13A N3A 1_555 1_555
C14D Fe1 1_555 1_555
C15D Fe1 1_555 1_555
H1A C2A 1_555 1_555
H4A C3A 1_555 1_555
H7A C5A 1_555 1_555
H8A C7A 1_555 1_555
H9A C7A 1_555 1_555
H10A C8A 1_555 1_555
H11A C8A 1_555 1_555
H12A C8A 1_555 1_555
H13A C9A 1_555 1_555
H14A C9A 1_555 1_555
H15A C9A 1_555 1_555
H16A C10A 1_555 1_555
H17A C10A 1_555 1_555
H18A C10A 1_555 1_555
H19A C11A 1_555 1_555
H20A C12A 1_555 1_555
H21A C12A 1_555 1_555
C6 C11 1_555 1_555
N1A C12A 1_555 1_555
C5A C6A 1_555 1_555
C6A C11A 1_555 1_555

#END
