
#######################################################################
#
#                 Cambridge Crystallographic Data Centre
#                                CCDC 
#
#######################################################################
#
# If this CIF has been generated from an entry in the Cambridge 
# Structural Database, then it will include bibliographic, chemical, 
# crystal, experimental, refinement or atomic coordinate data resulting 
# from the CCDC's data processing and validation procedures.
#
#######################################################################

data_SATRAH
_symmetry_cell_setting           monoclinic
_symmetry_space_group_name_H-M   'P 21/n'
_symmetry_Int_Tables_number      14
_space_group_name_Hall           '-P 2yn'
loop_
_symmetry_equiv_pos_site_id
_symmetry_equiv_pos_as_xyz
1 x,y,z
2 1/2-x,1/2+y,1/2-z
3 -x,-y,-z
4 1/2+x,1/2-y,1/2+z
_cell_length_a                   9.643(4)
_cell_length_b                   8.353(2)
_cell_length_c                   15.558(9)
_cell_angle_alpha                90
_cell_angle_beta                 98.62(5)
_cell_angle_gamma                90
_cell_volume                     1239.01
loop_
_atom_site_label
_atom_site_type_symbol
_atom_site_fract_x
_atom_site_fract_y
_atom_site_fract_z
Mn1 Mn 0.5000 0.5000 0.0000
Mn2 Mn 0.06303(13) 0.11955(14) -0.14592(8)
O1 O 0.3249(6) 0.3265(6) -0.0052(3)
O2 O 0.1117(6) 0.2135(7) -0.0184(3)
O3 O -0.0294(5) -0.0080(6) 0.2756(3)
O4 O 0.0662(5) 0.1306(6) 0.3913(3)
O5 O -0.1245(5) 0.1136(6) 0.0968(3)
O6 O -0.0777(5) 0.3713(6) 0.1123(4)
O7 O 0.1360(5) 0.0215(6) 0.1486(3)
H1 H 0.188(7) -0.010(8) 0.108(4)
O8 O 0.3596(6) 0.6367(7) -0.0955(3)
H2 H 0.417(12) 0.559(12) -0.090(11)
H3 H 0.271(2) 0.640(9) -0.100(5)
O9 O 0.2734(7) 0.1800(8) -0.1698(4)
H4 H 0.309(11) 0.243(11) -0.129(5)
H5 H 0.338(7) 0.112(9) -0.153(6)
O10 O -0.0155(6) 0.3485(6) -0.1948(4)
H6 H -0.0977 0.3578 -0.1878
H7 H 0.0301 0.4204 -0.1639
C1 C 0.2181(9) 0.2778(9) 0.0252(5)
C2 C 0.2167(8) 0.2923(9) 0.1225(5)
H12 H 0.1991 0.4033 0.1356
H13 H 0.3094 0.2654 0.1523
C3 C 0.1091(8) 0.1880(9) 0.1598(5)
C4 C 0.1244(8) 0.2174(9) 0.2580(4)
H14 H 0.2234 0.2125 0.2814
H15 H 0.0930 0.3255 0.2671
C5 C 0.0464(7) 0.1041(9) 0.3111(5)
C6 C -0.0392(8) 0.2269(10) 0.1183(5)
Mn1C Mn 0.0000 0.0000 0.5000
Mn1C_2 Mn 1.0000 1.0000 -0.5000
Mn2B Mn 0.93697(13) 0.88045(14) 0.14592(8)
Mn2B_2 Mn -0.06303(13) -0.11955(14) 0.14592(8)
Mn2_2 Mn 1.06303(13) 1.11955(14) -0.14592(8)
O1B O 0.6751(6) 0.6735(6) 0.0052(3)
O2B O 0.8883(6) 0.7865(7) 0.0184(3)
O3B O 1.0294(5) 1.0080(6) -0.2756(3)
O3B_2 O 0.0294(5) 0.0080(6) -0.2756(3)
O3_2 O 0.9706(5) 0.9920(6) 0.2756(3)
O4B O 0.9338(5) 0.8694(6) -0.3913(3)
O4C O 0.5662(5) 0.3694(6) -0.1087(3)
O4A O 0.4338(5) 0.6306(6) 0.1087(3)
O5B O 1.1245(5) 0.8864(6) -0.0968(3)
O5B_2 O 0.1245(5) -0.1136(6) -0.0968(3)
O5_2 O 0.8755(5) 1.1136(6) 0.0968(3)
O6B O 1.0777(5) 0.6287(6) -0.1123(4)
O7B O 0.8640(5) 0.9785(6) -0.1486(3)
O7B_2 O -0.1360(5) -0.0215(6) -0.1486(3)
O7_2 O 1.1360(5) 1.0215(6) 0.1486(3)
H1B H 0.812(7) 1.010(8) -0.108(4)
H1B_2 H -0.188(7) 0.010(8) -0.108(4)
H1_2 H 1.188(7) 0.990(8) 0.108(4)
O8B O 0.6404(6) 0.3633(7) 0.0955(3)
H2B H 0.583(12) 0.441(12) 0.090(11)
H3B H 0.729(2) 0.360(9) 0.100(5)
O9B O 0.7266(7) 0.8200(8) 0.1698(4)
H4B H 0.691(11) 0.757(11) 0.129(5)
H5B H 0.662(7) 0.888(9) 0.153(6)
O10B O 1.0155(6) 0.6515(6) 0.1948(4)
H6B H 1.0977 0.6422 0.1878
H7B H 0.9699 0.5796 0.1639
C1B C 0.7819(9) 0.7222(9) -0.0252(5)
C2B C 0.7833(8) 0.7077(9) -0.1225(5)
H12B H 0.8009 0.5967 -0.1356
H13B H 0.6906 0.7346 -0.1523
C3B C 0.8909(8) 0.8120(9) -0.1598(5)
C4B C 0.8756(8) 0.7826(9) -0.2580(4)
H14B H 0.7766 0.7875 -0.2814
H15B H 0.9070 0.6745 -0.2671
C5B C 0.9536(7) 0.8959(9) -0.3111(5)
C6B C 1.0392(8) 0.7731(10) -0.1183(5)
O11 O -0.4632(7) 0.0702(8) 0.1425(4)
H8 H -0.536(7) 0.049(13) 0.106(5)
H9 H -0.409(7) 0.137(7) 0.124(5)
O12 O 0.3154(6) -0.0844(7) 0.0464(4)
H10 H 0.359(10) -0.167(8) 0.067(7)
H11 H 0.279(8) -0.101(11) -0.005(2)
loop_
_geom_bond_atom_site_label_1
_geom_bond_atom_site_label_2
_geom_bond_site_symmetry_1
_geom_bond_site_symmetry_2
Mn1 O1 1_555 1_555
Mn2 O2 1_555 1_555
O1 C1 1_555 1_555
O2 C1 1_555 1_555
O3 C5 1_555 1_555
O4 C5 1_555 1_555
O5 C6 1_555 1_555
O6 C6 1_555 1_555
O7 H1 1_555 1_555
O8 Mn1 1_555 1_555
H2 O8 1_555 1_555
H3 O8 1_555 1_555
O9 Mn2 1_555 1_555
H4 O9 1_555 1_555
H5 O9 1_555 1_555
O10 Mn2 1_555 1_555
H6 O10 1_555 1_555
H7 O10 1_555 1_555
O11 H8 1_555 1_555
H9 O11 1_555 1_555
O12 H10 1_555 1_555
H11 O12 1_555 1_555
C1 C2 1_555 1_555
C2 H12 1_555 1_555
H13 C2 1_555 1_555
C3 O7 1_555 1_555
C4 C3 1_555 1_555
H14 C4 1_555 1_555
H15 C4 1_555 1_555
C5 C4 1_555 1_555
C6 C3 1_555 1_555
Mn1C O4 1_555 1_555
Mn1C_2 O4B 1_555 1_555
Mn2B O2B 1_555 1_555
Mn2B_2 O3 1_555 1_555
Mn2_2 O3B 1_555 1_555
O1B Mn1 1_555 1_555
O2B C1B 1_555 1_555
O3B C5B 1_555 1_555
O3B_2 Mn2 1_555 1_555
O3_2 Mn2B 1_555 1_555
O4B C5B 1_555 1_555
O4C Mn1 1_555 1_555
O4A Mn1 1_555 1_555
O5B Mn2_2 1_555 1_555
O5B_2 Mn2 1_555 1_555
O5_2 Mn2B 1_555 1_555
O6B C6B 1_555 1_555
O7B Mn2_2 1_555 1_555
O7B_2 Mn2 1_555 1_555
O7_2 Mn2B 1_555 1_555
H1B O7B 1_555 1_555
H1B_2 O7B_2 1_555 1_555
H1_2 O7_2 1_555 1_555
O8B Mn1 1_555 1_555
H2B O8B 1_555 1_555
H3B O8B 1_555 1_555
O9B Mn2B 1_555 1_555
H4B O9B 1_555 1_555
H5B O9B 1_555 1_555
O10B Mn2B 1_555 1_555
H6B O10B 1_555 1_555
H7B O10B 1_555 1_555
C1B O1B 1_555 1_555
C2B C1B 1_555 1_555
H12B C2B 1_555 1_555
H13B C2B 1_555 1_555
C3B O7B 1_555 1_555
C4B C3B 1_555 1_555
H14B C4B 1_555 1_555
H15B C4B 1_555 1_555
C5B C4B 1_555 1_555
C6B O5B 1_555 1_555
O5 Mn2B_2 1_555 1_555
O7 Mn2B_2 1_555 1_555
C2 C3 1_555 1_555
C2B C3B 1_555 1_555
C3B C6B 1_555 1_555

#END
