
#######################################################################
#
#                 Cambridge Crystallographic Data Centre
#                                CCDC 
#
#######################################################################
#
# If this CIF has been generated from an entry in the Cambridge 
# Structural Database, then it will include bibliographic, chemical, 
# crystal, experimental, refinement or atomic coordinate data resulting 
# from the CCDC's data processing and validation procedures.
#
#######################################################################

data_SATWOZ
_symmetry_cell_setting           orthorhombic
_symmetry_space_group_name_H-M   'P 21 21 21'
_symmetry_Int_Tables_number      19
_space_group_name_Hall           'P 2ac 2ab'
loop_
_symmetry_equiv_pos_site_id
_symmetry_equiv_pos_as_xyz
1 x,y,z
2 1/2+x,1/2-y,-z
3 -x,1/2+y,1/2-z
4 1/2-x,-y,1/2+z
_cell_length_a                   17.824(7)
_cell_length_b                   14.478(4)
_cell_length_c                   11.518(3)
_cell_angle_alpha                90
_cell_angle_beta                 90
_cell_angle_gamma                90
_cell_volume                     2972.29
loop_
_atom_site_label
_atom_site_type_symbol
_atom_site_fract_x
_atom_site_fract_y
_atom_site_fract_z
Br1 Br -0.0008(3) 0.0003(3) 0.2212(2)
Br2 Br 0.1135(2) -0.0035(3) 0.5310(8)
Br3 Br -0.1222(2) 0.0114(3) 0.5272(6)
Cu1 Cu 0.0924(3) 0.0679(4) 0.3470(4)
Cu2 Cu -0.0093(3) -0.0661(3) 0.5653(4)
N1 N 0.0013(17) -0.1798(18) 0.6713(24)
C1 C 0.0137(15) -0.2352(23) 0.7383(37)
C2 C 0.0261(18) -0.3102(23) 0.8126(31)
Cu3 Cu -0.0949(3) -0.0653(4) 0.3460(4)
Co1 Co 0.1889(1) 0.2498(6) 0.2519(7)
S1 S 0.1993(5) 0.0958(8) 0.2250(9)
S2 S 0.2760(5) 0.2088(8) 0.3865(10)
C3 C 0.266(2) 0.111(3) 0.336(4)
N2 N 0.308(2) 0.031(3) 0.359(3)
C4 C 0.292(2) -0.069(4) 0.321(3)
C5 C 0.344(2) -0.126(3) 0.396(4)
C6 C 0.405(2) -0.060(2) 0.433(3)
C7 C 0.372(2) 0.036(2) 0.446(4)
S3 S 0.0897(5) 0.2710(9) 0.1302(10)
S4 S 0.0868(5) 0.2332(8) 0.3726(10)
C8 C 0.033(1) 0.245(3) 0.254(4)
N3 N -0.038(1) 0.260(2) 0.244(3)
C9 C -0.084(2) 0.238(3) 0.348(4)
C10 C -0.165(2) 0.273(3) 0.309(4)
C11 C -0.161(2) 0.237(3) 0.188(4)
C12 C -0.083(2) 0.251(3) 0.140(4)
S5 S 0.2781(5) 0.2909(8) 0.1207(10)
S6 S 0.2015(5) 0.4054(6) 0.2775(8)
C13 C 0.269(1) 0.404(2) 0.173(2)
N4 N 0.306(1) 0.474(2) 0.137(2)
C14 C 0.367(2) 0.476(3) 0.054(4)
C15 C 0.409(2) 0.563(3) 0.081(4)
C16 C 0.343(2) 0.629(3) 0.109(4)
C17 C 0.295(2) 0.563(3) 0.185(3)
H1 H 0.070 -0.328 0.835
H2 H 0.005 -0.368 0.777
H3 H -0.003 -0.304 0.884
H4 H 0.247 -0.084 0.329
H5 H 0.310 -0.075 0.237
H6 H 0.324 -0.152 0.457
H7 H 0.365 -0.183 0.346
H8 H 0.449 -0.077 0.470
H9 H 0.441 -0.039 0.345
H10 H 0.357 0.011 0.532
H11 H 0.408 0.075 0.457
H12 H -0.087 0.180 0.379
H13 H -0.071 0.283 0.409
H14 H -0.197 0.238 0.354
H15 H -0.165 0.332 0.311
H16 H -0.173 0.168 0.179
H17 H -0.204 0.263 0.141
H18 H -0.059 0.224 0.073
H19 H -0.075 0.326 0.105
H20 H 0.403 0.422 0.075
H21 H 0.348 0.457 -0.020
H22 H 0.446 0.571 0.115
H23 H 0.427 0.585 -0.016
H24 H 0.359 0.678 0.123
H25 H 0.313 0.632 0.023
H26 H 0.311 0.583 0.256
H27 H 0.242 0.589 0.172
S3B S -0.0897(5) -0.2290(9) 0.3698(10)
S6B S -0.2015(5) -0.0946(6) 0.2225(8)
Cu3B Cu 0.0949(3) 0.4347(4) 0.1540(4)
loop_
_geom_bond_atom_site_label_1
_geom_bond_atom_site_label_2
_geom_bond_site_symmetry_1
_geom_bond_site_symmetry_2
Br1 Cu1 1_555 1_555
Br2 Cu1 1_555 1_555
Br3 Cu2 1_555 1_555
Cu1 S1 1_555 1_555
Cu2 Br2 1_555 1_555
N1 Cu2 1_555 1_555
C1 N1 1_555 1_555
C2 C1 1_555 1_555
Cu3 Br1 1_555 1_555
Co1 S1 1_555 1_555
S1 C3 1_555 1_555
S2 Co1 1_555 1_555
C3 S2 1_555 1_555
N2 C3 1_555 1_555
C4 N2 1_555 1_555
C5 C4 1_555 1_555
C6 C5 1_555 1_555
C7 N2 1_555 1_555
S3 Co1 1_555 1_555
S4 Cu1 1_555 1_555
C8 S3 1_555 1_555
N3 C8 1_555 1_555
C9 N3 1_555 1_555
C10 C9 1_555 1_555
C11 C10 1_555 1_555
C12 N3 1_555 1_555
S5 Co1 1_555 1_555
S6 Co1 1_555 1_555
C13 S5 1_555 1_555
N4 C13 1_555 1_555
C14 N4 1_555 1_555
C15 C14 1_555 1_555
C16 C15 1_555 1_555
C17 N4 1_555 1_555
H1 C2 1_555 1_555
H2 C2 1_555 1_555
H3 C2 1_555 1_555
H4 C4 1_555 1_555
H5 C4 1_555 1_555
H6 C5 1_555 1_555
H7 C5 1_555 1_555
H8 C6 1_555 1_555
H9 C6 1_555 1_555
H10 C7 1_555 1_555
H11 C7 1_555 1_555
H12 C9 1_555 1_555
H13 C9 1_555 1_555
H14 C10 1_555 1_555
H15 C10 1_555 1_555
H16 C11 1_555 1_555
H17 C11 1_555 1_555
H18 C12 1_555 1_555
H19 C12 1_555 1_555
H20 C14 1_555 1_555
H21 C14 1_555 1_555
H22 C15 1_555 1_555
H23 C15 1_555 1_555
H24 C16 1_555 1_555
H25 C16 1_555 1_555
H26 C17 1_555 1_555
H27 C17 1_555 1_555
S3B Cu3 1_555 1_555
S6B Cu3 1_555 1_555
Cu3B S3 1_555 1_555
Br3 Cu3 1_555 1_555
Co1 S4 1_555 1_555
C6 C7 1_555 1_555
S4 C8 1_555 1_555
C11 C12 1_555 1_555
S6 Cu3B 1_555 1_555
S6 C13 1_555 1_555
C16 C17 1_555 1_555

#END
