
#######################################################################
#
#                 Cambridge Crystallographic Data Centre
#                                CCDC 
#
#######################################################################
#
# If this CIF has been generated from an entry in the Cambridge 
# Structural Database, then it will include bibliographic, chemical, 
# crystal, experimental, refinement or atomic coordinate data resulting 
# from the CCDC's data processing and validation procedures.
#
#######################################################################

data_SATYCU
_symmetry_cell_setting           orthorhombic
_symmetry_space_group_name_H-M   'P 21 21 21'
_symmetry_Int_Tables_number      19
_space_group_name_Hall           'P 2ac 2ab'
loop_
_symmetry_equiv_pos_site_id
_symmetry_equiv_pos_as_xyz
1 x,y,z
2 1/2+x,1/2-y,-z
3 -x,1/2+y,1/2-z
4 1/2-x,-y,1/2+z
_cell_length_a                   12.310(8)
_cell_length_b                   5.838(5)
_cell_length_c                   20.357(11)
_cell_angle_alpha                90
_cell_angle_beta                 90
_cell_angle_gamma                90
_cell_volume                     1462.97
loop_
_atom_site_label
_atom_site_type_symbol
_atom_site_fract_x
_atom_site_fract_y
_atom_site_fract_z
Cu1 Cu 0.13150 0.24940 0.25090
O1 O 0.02790 0.49070 0.23760
O2 O -0.05960 0.68680 0.16370
O3 O 0.32720 0.33050 -0.15640
O4 O 0.23350 0.01480 0.26070
N1 N 0.17410 0.32300 0.16170
C1 C 0.01780 0.56310 0.18060
C2 C 0.10770 0.50000 0.13100
C3 C 0.05320 0.41420 0.06590
C4 C 0.13100 0.39060 0.00840
C5 C 0.12890 0.19640 -0.02980
C6 C 0.19360 0.17490 -0.08570
C7 C 0.26240 0.34480 -0.10200
C8 C 0.26810 0.53550 -0.06440
C9 C 0.20020 0.56510 -0.01090
C10 C 0.30690 -0.04980 0.21860
C11 C 0.37320 -0.24170 0.23100
C12 C 0.45570 -0.31200 0.18730
C13 C 0.47210 -0.19530 0.12920
C14 C 0.40910 -0.00960 0.11710
C15 C 0.32650 0.06350 0.15760
C16 C 0.26050 0.25360 0.13380
H1 H 0.14200 0.63500 0.12300
H2 H 0.01700 0.54400 0.05600
H3 H -0.00500 0.32200 0.07300
H4 H 0.07800 0.09500 -0.01800
H5 H 0.20900 0.01200 -0.09400
H6 H 0.31100 0.21900 -0.18300
H7 H 0.31000 0.69700 -0.06800
H8 H 0.21000 0.66500 0.01200
H9 H 0.49100 -0.42300 0.20200
H10 H 0.43300 0.11400 0.07500
O1B O -0.02790 -0.00930 0.26240
O2B O 0.05960 0.18680 0.33630
Cu1B Cu -0.13150 0.74940 0.24910
loop_
_geom_bond_atom_site_label_1
_geom_bond_atom_site_label_2
_geom_bond_site_symmetry_1
_geom_bond_site_symmetry_2
Cu1 O1 1_555 1_555
O1 C1 1_555 1_555
O2 C1 1_555 1_555
O3 C7 1_555 1_555
O4 Cu1 1_555 1_555
N1 Cu1 1_555 1_555
C1 C2 1_555 1_555
C2 N1 1_555 1_555
C3 C2 1_555 1_555
C4 C3 1_555 1_555
C5 C4 1_555 1_555
C6 C5 1_555 1_555
C7 C6 1_555 1_555
C8 C7 1_555 1_555
C9 C4 1_555 1_555
C10 O4 1_555 1_555
C11 C10 1_555 1_555
C12 C11 1_555 1_555
C13 C12 1_555 1_555
C14 C13 1_555 1_555
C15 C10 1_555 1_555
C16 N1 1_555 1_555
H1 C2 1_555 1_555
H2 C3 1_555 1_555
H3 C3 1_555 1_555
H4 C5 1_555 1_555
H5 C6 1_555 1_555
H6 O3 1_555 1_555
H7 C8 1_555 1_555
H8 C9 1_555 1_555
H9 C12 1_555 1_555
H10 C14 1_555 1_555
O1B Cu1 1_555 1_555
O2B Cu1 1_555 1_555
Cu1B O1 1_555 1_555
O2 Cu1B 1_555 1_555
C8 C9 1_555 1_555
C14 C15 1_555 1_555
C15 C16 1_555 1_555

#END
