
#######################################################################
#
#                 Cambridge Crystallographic Data Centre
#                                CCDC 
#
#######################################################################
#
# If this CIF has been generated from an entry in the Cambridge 
# Structural Database, then it will include bibliographic, chemical, 
# crystal, experimental, refinement or atomic coordinate data resulting 
# from the CCDC's data processing and validation procedures.
#
#######################################################################

data_SAVCAU
_symmetry_cell_setting           trigonal
_symmetry_space_group_name_H-M   'P -3'
_symmetry_Int_Tables_number      147
_space_group_name_Hall           '-P 3'
loop_
_symmetry_equiv_pos_site_id
_symmetry_equiv_pos_as_xyz
1 x,y,z
2 -y,x-y,z
3 -x+y,-x,z
4 -x,-y,-z
5 y,-x+y,-z
6 x-y,x,-z
_cell_length_a                   13.9626(5)
_cell_length_b                   13.9626(5)
_cell_length_c                   7.4577(5)
_cell_angle_alpha                90
_cell_angle_beta                 90
_cell_angle_gamma                120
_cell_volume                     1259.12
loop_
_atom_site_label
_atom_site_type_symbol
_atom_site_fract_x
_atom_site_fract_y
_atom_site_fract_z
Ag1 Ag -1.0000 -1.0000 -0.70528(2)
C1 C -0.20510(14) -0.27146(14) -0.1525(2)
H1 H -0.1245 -0.2283 -0.1403
H2 H -0.2385 -0.2985 -0.0343
H3 H -0.2252 -0.3344 -0.2323
C2 C -0.24616(13) -0.20033(13) -0.22887(19)
N1 N -0.18387(11) -0.09729(11) -0.28674(18)
C3 C -0.25659(14) -0.06400(15) -0.3467(2)
H4 H -0.2357 0.0065 -0.3962
C4 C -0.36193(15) -0.14714(15) -0.3243(2)
H5 H -0.4276 -0.1463 -0.3544
N2 N -0.35442(11) -0.23324(12) -0.24862(18)
C5 C -0.44783(14) -0.34313(16) -0.2070(2)
H6 H -0.4303 -0.3720 -0.0981
H7 H -0.5139 -0.3367 -0.1809
C6 C -0.47411(13) -0.42448(15) -0.3597(2)
C7 C -0.46241(14) -0.51658(15) -0.3377(2)
H8 H -0.4366 -0.5283 -0.2266
C8 C -0.48814(15) -0.59206(15) -0.4767(3)
H9 H -1.3450 -0.8249 -0.4601
Ag1C Ag 0.0000 0.0000 -0.29472(2)
Ag1C_2 Ag -1.0000 -1.0000 -0.29472(2)
Ag1C_3 Ag -2.0000 -1.0000 -0.29472(2)
Ag1_2 Ag -2.0000 -1.0000 -0.70528(2)
Ag1C_4 Ag -1.0000 -2.0000 -0.29472(2)
C1C C -0.79490(14) -0.72854(14) -0.8475(2)
C1D C -1.27146(14) -1.06636(20) -0.8475(2)
C1A C -1.72854(14) -0.93364(20) -0.1525(2)
C1E C -0.93364(20) -1.20510(14) -0.8475(2)
C1B C -1.06636(20) -1.79490(14) -0.1525(2)
H1C H -0.8755 -0.7717 -0.8597
H1D H -1.2283 -1.1038 -0.8597
H1A H -1.7717 -0.8962 -0.1403
H1E H -0.8962 -1.1245 -0.8597
H1B H -1.1038 -1.8755 -0.1403
H2C H -0.7615 -0.7015 -0.9657
H2D H -1.2985 -1.0600 -0.9657
H2A H -1.7015 -0.9400 -0.0343
H2E H -0.9400 -1.2385 -0.9657
H2B H -1.0600 -1.7615 -0.0343
H3C H -0.7748 -0.6656 -0.7677
H3D H -1.3344 -1.1092 -0.7677
H3A H -1.6656 -0.8908 -0.2323
H3E H -0.8908 -1.2252 -0.7677
H3B H -1.1092 -1.7748 -0.2323
C2C C -0.75384(13) -0.79967(13) -0.77113(19)
C2D C -1.20033(13) -0.95417(18) -0.77113(19)
C2A C -1.79967(13) -1.04583(18) -0.22887(19)
C2E C -1.04583(18) -1.24616(13) -0.77113(19)
C2B C -0.95417(18) -1.75384(13) -0.22887(19)
N1C N -0.81613(11) -0.90271(11) -0.71326(18)
N1D N -1.09729(11) -0.91342(16) -0.71326(18)
N1A N -1.90271(11) -1.08658(16) -0.28674(18)
N1B N -1.91342(16) -0.81613(11) -0.28674(18)
N1_2 N -2.18387(11) -1.09729(11) -0.28674(18)
N1E N -1.08658(16) -1.18387(11) -0.71326(18)
N1B_2 N -0.91342(16) -1.81613(11) -0.28674(18)
C3D C -1.06400(15) -0.80741(21) -0.6533(2)
C3A C -1.93600(15) -1.19259(21) -0.3467(2)
C3C C -0.74341(14) -0.93600(15) -0.6533(2)
C3E C -1.19259(21) -1.25659(14) -0.6533(2)
C3B C -0.80741(21) -1.74341(14) -0.3467(2)
H4D H -0.9935 -0.7578 -0.6038
H4A H -2.0065 -1.2422 -0.3962
H4C H -0.7643 -1.0065 -0.6038
H4E H -1.2422 -1.2357 -0.6038
H4B H -0.7578 -1.7643 -0.3962
C4D C -1.14714(15) -0.78521(21) -0.6757(2)
C4A C -1.85286(15) -1.21479(21) -0.3243(2)
C4C C -0.63807(15) -0.85286(15) -0.6757(2)
C4E C -1.21479(21) -1.36193(15) -0.6757(2)
C4B C -0.78521(21) -1.63807(15) -0.3243(2)
H5D H -1.1463 -0.7187 -0.6456
H5A H -1.8537 -1.2813 -0.3544
H5C H -0.5724 -0.8537 -0.6456
H5E H -1.2813 -1.4276 -0.6456
H5B H -0.7187 -1.5724 -0.3544
N2C N -0.64558(11) -0.76676(12) -0.75138(18)
N2D N -1.23324(12) -0.87882(16) -0.75138(18)
N2A N -1.76676(12) -1.12118(16) -0.24862(18)
N2E N -1.12118(16) -1.35442(11) -0.75138(18)
N2B N -0.87882(16) -1.64558(11) -0.24862(18)
C5C C -0.55217(14) -0.65687(16) -0.7930(2)
C5D C -1.34313(16) -0.89530(21) -0.7930(2)
C5A C -1.65687(16) -1.10470(21) -0.2070(2)
C5E C -1.10470(21) -1.44783(14) -0.7930(2)
C5B C -0.89530(21) -1.55217(14) -0.2070(2)
H6D H -1.3720 -0.9417 -0.9019
H6A H -1.6280 -1.0583 -0.0981
H6C H -0.5697 -0.6280 -0.9019
H6E H -1.0583 -1.4303 -0.9019
H6B H -0.9417 -1.5697 -0.0981
H7D H -1.3367 -0.8228 -0.8191
H7A H -1.6633 -1.1772 -0.1809
H7C H -0.4861 -0.6633 -0.8191
H7E H -1.1772 -1.5139 -0.8191
H7B H -0.8228 -1.4861 -0.1809
C6C C -0.52589(13) -0.57552(15) -0.6403(2)
C6D C -1.42448(15) -0.95037(20) -0.6403(2)
C6A C -1.57552(15) -1.04963(20) -0.3597(2)
C6E C -1.04963(20) -1.47411(13) -0.6403(2)
C6B C -0.95037(20) -1.52589(13) -0.3597(2)
C7D C -1.51658(15) -1.05417(21) -0.6623(2)
C7A C -1.48342(15) -0.94583(21) -0.3377(2)
C7C C -0.53759(14) -0.48342(15) -0.6623(2)
C7E C -0.94583(21) -1.46241(14) -0.6623(2)
C7B C -1.05417(21) -1.53759(14) -0.3377(2)
H8D H -1.5283 -1.0917 -0.7734
H8A H -1.4717 -0.9083 -0.2266
H8C H -0.5634 -0.4717 -0.7734
H8E H -0.9083 -1.4366 -0.7734
H8B H -1.0917 -1.5634 -0.2266
C8D C -1.59206(15) -1.10392(21) -0.5233(3)
C8A C -1.40794(15) -0.89608(21) -0.4767(3)
C8C C -0.51186(15) -0.40794(15) -0.5233(3)
C8B C -1.10392(21) -1.51186(15) -0.4767(3)
C8E C -0.89608(21) -1.48814(15) -0.5233(3)
H9C H -1.6550 -1.1751 -0.5399
H9E H -0.5201 -0.3450 -0.5399
H9B H -0.4799 -0.6550 -0.4601
H9A H -1.1751 -1.5201 -0.4601
H9D H -0.8249 -1.4799 -0.5399
F1 F 0.6667 0.3333 -1.2697(5)
F2 F 0.67253(17) 0.43064(14) -1.0197(3)
B2 B 0.6667 0.3333 -1.0803(14)
F2B F 0.75811(22) 0.32747(17) -1.0197(3)
F2A F 0.56936(14) 0.24189(22) -1.0197(3)
B1? B 0.6667 0.3333 -1.069(6)
F3? F 0.7200(3) 0.4427(3) -1.1276(6)
F4? F 0.6667 0.3333 -0.8799(8)
loop_
_geom_bond_atom_site_label_1
_geom_bond_atom_site_label_2
_geom_bond_site_symmetry_1
_geom_bond_site_symmetry_2
Ag1 Ag1C_2 1_555 1_555
C1 H1 1_555 1_555
H2 C1 1_555 1_555
H3 C1 1_555 1_555
C2 C1 1_555 1_555
N1 C2 1_555 1_555
C3 N1 1_555 1_555
H4 C3 1_555 1_555
C4 C3 1_555 1_555
H5 C4 1_555 1_555
N2 C2 1_555 1_555
C5 N2 1_555 1_555
H6 C5 1_555 1_555
H7 C5 1_555 1_555
C6 C5 1_555 1_555
C7 C6 1_555 1_555
H8 C7 1_555 1_555
C8 C7 1_555 1_555
H9 C8A 1_555 1_555
F1 B2 1_555 1_555
F2 B2 1_555 1_555
B2 F2B 1_555 1_555
Ag1C N1 1_555 1_555
Ag1C_3 Ag1_2 1_555 1_555
Ag1C_4 N1B_2 1_555 1_555
C1C H1C 1_555 1_555
C1D H1D 1_555 1_555
C1A H1A 1_555 1_555
C1E H1E 1_555 1_555
C1B H1B 1_555 1_555
H2C C1C 1_555 1_555
H2D C1D 1_555 1_555
H2A C1A 1_555 1_555
H2E C1E 1_555 1_555
H2B C1B 1_555 1_555
H3C C1C 1_555 1_555
H3D C1D 1_555 1_555
H3A C1A 1_555 1_555
H3E C1E 1_555 1_555
H3B C1B 1_555 1_555
C2C C1C 1_555 1_555
C2D C1D 1_555 1_555
C2A C1A 1_555 1_555
C2E C1E 1_555 1_555
C2B C1B 1_555 1_555
N1C Ag1 1_555 1_555
N1D Ag1 1_555 1_555
N1A Ag1C_3 1_555 1_555
N1B Ag1C_3 1_555 1_555
N1_2 Ag1C_3 1_555 1_555
N1E Ag1 1_555 1_555
N1B_2 C2B 1_555 1_555
C3D N1D 1_555 1_555
C3A N1A 1_555 1_555
C3C N1C 1_555 1_555
C3E N1E 1_555 1_555
C3B N1B_2 1_555 1_555
H4D C3D 1_555 1_555
H4A C3A 1_555 1_555
H4C C3C 1_555 1_555
H4E C3E 1_555 1_555
H4B C3B 1_555 1_555
C4D C3D 1_555 1_555
C4A C3A 1_555 1_555
C4C C3C 1_555 1_555
C4E C3E 1_555 1_555
C4B C3B 1_555 1_555
H5D C4D 1_555 1_555
H5A C4A 1_555 1_555
H5C C4C 1_555 1_555
H5E C4E 1_555 1_555
H5B C4B 1_555 1_555
N2C C2C 1_555 1_555
N2D C2D 1_555 1_555
N2A C2A 1_555 1_555
N2E C2E 1_555 1_555
N2B C2B 1_555 1_555
C5C N2C 1_555 1_555
C5D N2D 1_555 1_555
C5A N2A 1_555 1_555
C5E N2E 1_555 1_555
C5B N2B 1_555 1_555
H6D C5D 1_555 1_555
H6A C5A 1_555 1_555
H6C C5C 1_555 1_555
H6E C5E 1_555 1_555
H6B C5B 1_555 1_555
H7D C5D 1_555 1_555
H7A C5A 1_555 1_555
H7C C5C 1_555 1_555
H7E C5E 1_555 1_555
H7B C5B 1_555 1_555
C6C C8 1_555 1_555
C6D C5D 1_555 1_555
C6A C5A 1_555 1_555
C6E C5E 1_555 1_555
C6B C5B 1_555 1_555
C7D C6D 1_555 1_555
C7A C6A 1_555 1_555
C7C C6C 1_555 1_555
C7E C6E 1_555 1_555
C7B C6B 1_555 1_555
H8D C7D 1_555 1_555
H8A C7A 1_555 1_555
H8C C7C 1_555 1_555
H8E C7E 1_555 1_555
H8B C7B 1_555 1_555
C8D C6A 1_555 1_555
C8A C6D 1_555 1_555
C8C C6 1_555 1_555
C8B C6E 1_555 1_555
C8E C6B 1_555 1_555
H9C C8D 1_555 1_555
H9E C8C 1_555 1_555
H9B C8 1_555 1_555
H9A C8B 1_555 1_555
H9D C8E 1_555 1_555
F2A B2 1_555 1_555
C4 N2 1_555 1_555
C2C N1C 1_555 1_555
C2D N1D 1_555 1_555
C2A N1A 1_555 1_555
C2E N1E 1_555 1_555
C4D N2D 1_555 1_555
C4A N2A 1_555 1_555
C4C N2C 1_555 1_555
C4E N2E 1_555 1_555
C4B N2B 1_555 1_555
C5C C6C 1_555 1_555
C7D C8D 1_555 1_555
C7A C8A 1_555 1_555
C7C C8C 1_555 1_555
C7E C8E 1_555 1_555
C7B C8B 1_555 1_555

#END
