
#######################################################################
#
#                 Cambridge Crystallographic Data Centre
#                                CCDC 
#
#######################################################################
#
# If this CIF has been generated from an entry in the Cambridge 
# Structural Database, then it will include bibliographic, chemical, 
# crystal, experimental, refinement or atomic coordinate data resulting 
# from the CCDC's data processing and validation procedures.
#
#######################################################################

data_SAVJOP
_symmetry_cell_setting           triclinic
_symmetry_space_group_name_H-M   'P -1'
_symmetry_Int_Tables_number      2
_space_group_name_Hall           '-P 1'
loop_
_symmetry_equiv_pos_site_id
_symmetry_equiv_pos_as_xyz
1 x,y,z
2 -x,-y,-z
_cell_length_a                   9.963(2)
_cell_length_b                   21.623(5)
_cell_length_c                   23.290(5)
_cell_angle_alpha                90.025(4)
_cell_angle_beta                 90.011(4)
_cell_angle_gamma                89.984(4)
_cell_volume                     5017.36
loop_
_atom_site_label
_atom_site_type_symbol
_atom_site_fract_x
_atom_site_fract_y
_atom_site_fract_z
Cu1 Cu 1.00424(6) -0.16858(2) 0.27016(2)
Cu2 Cu 0.98681(6) -0.29513(3) 0.20529(3)
Cu3 Cu 0.41931(5) 0.00888(2) 0.05725(2)
Cu4 Cu 0.48656(6) 0.20492(3) 0.29469(3)
Cu5 Cu 0.50419(6) 0.33145(2) 0.22983(2)
Cu6 Cu 0.91921(5) -0.49116(2) 0.44279(2)
Co1 Co 0.74576(6) 0.02190(3) 0.21663(2)
Co2 Co 1.24578(6) -0.47811(3) 0.28338(2)
O1 O 1.1093(3) -0.2244(1) 0.2197(1)
O2 O 0.8822(3) -0.2397(1) 0.2563(1)
O3 O 0.5432(3) 0.0529(1) 0.0046(1)
O4 O 0.3818(3) 0.2603(1) 0.2438(1)
O5 O 0.6089(3) 0.2756(1) 0.2803(1)
O6 O 1.0435(3) -0.4473(1) 0.4956(1)
N1 N 1.1599(4) -0.1136(2) 0.2826(2)
N2 N 0.8946(4) -0.1389(2) 0.3358(2)
N3 N 0.8274(4) -0.3475(2) 0.1887(2)
N4 N 1.1090(4) -0.3335(2) 0.1496(2)
N5 N 0.3795(4) 0.0858(2) 0.1010(2)
N6 N 0.2701(4) -0.0406(2) 0.0889(2)
N7 N 0.3278(4) 0.1528(2) 0.3116(2)
N8 N 0.6092(4) 0.1664(2) 0.3504(2)
N9 N 0.6589(4) 0.3865(2) 0.2172(2)
N10 N 0.3936(4) 0.3611(2) 0.1641(2)
N11 N 0.8799(4) -0.4140(2) 0.3989(2)
N12 N 0.7696(4) -0.5411(2) 0.4114(2)
N13 N 0.9113(4) -0.0969(2) 0.2120(2)
N14 N 0.5738(4) -0.0229(2) 0.1174(2)
N15 N 0.5700(4) 0.1378(2) 0.2259(2)
N16 N 0.5639(5) -0.0411(2) 0.3043(2)
N17 N 0.9178(4) 0.0709(2) 0.3155(2)
N18 N 0.9273(5) 0.0830(2) 0.1274(2)
N19 N 1.4106(4) -0.5965(2) 0.2881(2)
N20 N 1.0736(4) -0.5231(2) 0.3826(2)
N21 N 1.0636(5) -0.5408(2) 0.1958(2)
N22 N 1.0711(4) -0.3620(2) 0.2741(2)
N23 N 1.4267(5) -0.4174(2) 0.3724(2)
N24 N 1.4176(4) -0.4290(2) 0.1844(2)
C1 C 0.3428(6) -0.2693(3) 0.3357(3)
C2 C 0.4857(5) -0.2610(2) 0.3146(2)
C3 C 0.5692(5) -0.2158(2) 0.3368(2)
C4 C 0.7032(5) -0.2075(2) 0.3181(2)
C5 C 0.7566(5) -0.2464(2) 0.2749(2)
C6 C 0.6710(5) -0.2934(2) 0.2528(2)
C7 C 0.5398(5) -0.2993(2) 0.2733(2)
C8 C 0.7758(6) -0.1589(2) 0.3456(2)
C9 C 0.9294(6) -0.0841(3) 0.3705(2)
C10 C 1.0807(6) -0.0743(3) 0.3757(3)
C11 C 1.1460(5) -0.0585(2) 0.3192(3)
C12 C 1.2733(5) -0.1187(2) 0.2577(2)
C13 C 1.6367(6) -0.1861(3) 0.1304(3)
C14 C 1.4990(5) -0.1968(3) 0.1545(3)
C15 C 1.4221(5) -0.2485(2) 0.1390(2)
C16 C 1.2911(5) -0.2581(2) 0.1603(2)
C17 C 1.2332(5) -0.2166(2) 0.1995(2)
C18 C 1.3137(5) -0.1649(2) 0.2168(2)
C19 C 1.4436(5) -0.1576(2) 0.1941(2)
C20 C 1.2262(5) -0.3131(2) 0.1382(2)
C21 C 1.0749(6) -0.3927(2) 0.1198(2)
C22 C 0.9317(7) -0.3945(3) 0.1012(3)
C23 C 0.8404(6) -0.4029(3) 0.1510(3)
C24 C 0.7114(5) -0.3385(2) 0.2111(2)
C25 C 0.7478(8) 0.2988(3) 0.0217(3)
C26 C 0.6931(6) 0.2331(2) 0.0183(2)
C27 C 0.5988(6) 0.2111(2) 0.0557(2)
C28 C 0.5463(5) 0.1507(2) 0.0525(2)
C29 C 0.5909(4) 0.1098(2) 0.0093(2)
C30 C 0.6894(5) 0.1328(2) -0.0289(2)
C31 C 0.7379(5) 0.1927(2) -0.0238(2)
C32 C 0.4456(5) 0.1356(2) 0.0955(2)
C33 C 0.2805(5) 0.0870(3) 0.1492(2)
C34 C 0.2544(6) 0.0260(3) 0.1760(2)
C35 C 0.1825(6) -0.0171(3) 0.1351(3)
C36 C 0.7506(5) 0.0974(2) -0.0743(2)
C37 C 1.1368(6) 0.3132(3) 0.3700(3)
C38 C 0.9994(5) 0.3030(3) 0.3453(3)
C39 C 0.9215(5) 0.2517(2) 0.3611(2)
C40 C 0.7917(5) 0.2418(2) 0.3395(2)
C41 C 0.7335(5) 0.2830(2) 0.3005(2)
C42 C 0.8142(5) 0.3348(2) 0.2829(2)
C43 C 0.9425(5) 0.3425(2) 0.3059(2)
C44 C 0.7269(5) 0.1867(2) 0.3615(2)
C45 C 0.5757(6) 0.1074(2) 0.3796(2)
C46 C 0.4319(7) 0.1057(3) 0.3986(3)
C47 C 0.3401(6) 0.0972(3) 0.3485(3)
C48 C 0.2109(5) 0.1616(2) 0.2891(2)
C49 C -0.1563(6) 0.2307(3) 0.1644(3)
C50 C -0.0146(5) 0.2391(2) 0.1850(2)
C51 C 0.0705(6) 0.2839(2) 0.1635(2)
C52 C 0.2036(5) 0.2923(2) 0.1818(2)
C53 C 0.2570(5) 0.2535(2) 0.2254(2)
C54 C 0.1713(5) 0.2066(2) 0.2474(2)
C55 C 0.0392(5) 0.2007(2) 0.2268(2)
C56 C 0.2753(5) 0.3415(2) 0.1544(2)
C57 C 0.4299(6) 0.4160(3) 0.1295(2)
C58 C 0.5805(6) 0.4259(3) 0.1239(2)
C59 C 0.6462(5) 0.4415(2) 0.1807(3)
C60 C 0.7725(5) 0.3811(2) 0.2423(2)
C61 C 1.2491(7) -0.2012(3) 0.4783(3)
C62 C 1.1920(6) -0.2667(2) 0.4818(2)
C63 C 1.0993(6) -0.2883(2) 0.4438(2)
C64 C 1.0462(5) -0.3494(2) 0.4472(2)
C65 C 1.0910(4) -0.3904(2) 0.4907(2)
C66 C 1.1894(5) -0.3676(2) 0.5291(2)
C67 C 1.2388(6) -0.3070(2) 0.5237(2)
C68 C 0.9459(5) -0.3650(2) 0.4043(2)
C69 C 0.7808(5) -0.4133(3) 0.3508(2)
C70 C 0.7538(6) -0.4743(3) 0.3241(2)
C71 C 0.6813(6) -0.5173(3) 0.3652(3)
C72 C 1.2512(5) -0.4030(2) 0.5745(2)
C73 C 0.8508(4) -0.0518(2) 0.2128(2)
C74 C 0.6392(4) -0.0071(2) 0.1552(2)
C75 C 0.6370(4) 0.0947(2) 0.2211(2)
C76 C 0.6315(5) -0.0178(2) 0.2712(2)
C77 C 0.8540(4) 0.0526(2) 0.2778(2)
C78 C 0.8595(5) 0.0604(2) 0.1613(2)
C79 C 1.3503(4) -0.5517(2) 0.2867(2)
C80 C 1.1382(4) -0.5069(2) 0.3445(2)
C81 C 1.1316(5) -0.5175(2) 0.2287(2)
C82 C 1.1373(4) -0.4056(2) 0.2789(2)
C83 C 1.3599(5) -0.4395(2) 0.3386(2)
C84 C 1.3538(5) -0.4472(2) 0.2223(2)
H1 H 0.3318 -0.3095 0.3515
H2 H 0.3220 -0.2391 0.3635
H3 H 0.2820 -0.2649 0.3038
H4 H 0.5355 -0.1889 0.3663
H5 H 0.4840 -0.3311 0.2576
H6 H 0.7282 -0.1386 0.3758
H7 H 0.8927 -0.0889 0.4081
H8 H 0.8921 -0.0486 0.3530
H9 H 1.1193 -0.1120 0.3903
H10 H 1.0965 -0.0424 0.4029
H11 H 1.2323 -0.0412 0.3261
H12 H 1.0919 -0.0287 0.2997
H13 H 1.3389 -0.0883 0.2669
H14 H 1.7023 -0.1870 0.1595
H15 H 1.6403 -0.1479 0.1104
H16 H 1.6580 -0.2188 0.1028
H17 H 1.4586 -0.2791 0.1131
H18 H 1.4953 -0.1233 0.2077
H19 H 1.2775 -0.3375 0.1118
H20 H 1.0938 -0.4261 0.1452
H21 H 1.1322 -0.3964 0.0869
H22 H 0.9179 -0.4279 0.0750
H23 H 0.9076 -0.3568 0.0829
H24 H 0.7526 -0.4145 0.1379
H25 H 0.8737 -0.4368 0.1743
H26 H 0.6413 -0.3655 0.1978
H27 H 0.8438 0.2977 0.0270
H28 H 0.7089 0.3202 0.0529
H29 H 0.7294 0.3203 -0.0131
H30 H 0.5664 0.2376 0.0854
H31 H 0.8036 0.2069 -0.0501
H32 H 0.4276 0.1670 0.1236
H33 H 0.3125 0.1152 0.1778
H34 H 0.1972 0.1027 0.1346
H35 H 0.3393 0.0077 0.1866
H36 H 0.2031 0.0314 0.2103
H37 H 0.1463 -0.0513 0.1558
H38 H 0.1090 0.0051 0.1179
H39 H 0.8165 0.1189 -0.0964
H40 H 1.2015 0.3138 0.3403
H41 H 1.1387 0.3518 0.3901
H42 H 1.1578 0.2809 0.3965
H43 H 0.9572 0.2218 0.3880
H44 H 0.9937 0.3771 0.2932
H45 H 0.7785 0.1618 0.3877
H46 H 0.5925 0.0741 0.3540
H47 H 0.6333 0.1029 0.4125
H48 H 0.4179 0.0729 0.4257
H49 H 0.4082 0.1439 0.4173
H50 H 0.3741 0.0634 0.3257
H51 H 0.2524 0.0854 0.3618
H52 H 0.1408 0.1347 0.3019
H53 H -0.1680 0.1906 0.1484
H54 H -0.1765 0.2608 0.1353
H55 H -0.2175 0.2361 0.1953
H56 H 0.0359 0.3108 0.1341
H57 H -0.0166 0.1691 0.2425
H58 H 0.2263 0.3622 0.1248
H59 H 0.3924 0.4115 0.0922
H60 H 0.3924 0.4516 0.1475
H61 H 0.6192 0.3885 0.1093
H62 H 0.5959 0.4582 0.0972
H63 H 0.7335 0.4585 0.1743
H64 H 0.5934 0.4718 0.2006
H65 H 0.8379 0.4117 0.2330
H66 H 1.2335 -0.1796 0.5137
H67 H 1.3439 -0.2026 0.4718
H68 H 1.2078 -0.1790 0.4480
H69 H 1.0672 -0.2620 0.4138
H70 H 1.3054 -0.2929 0.5502
H71 H 0.9282 -0.3337 0.3760
H72 H 0.6982 -0.3970 0.3652
H73 H 0.8139 -0.3852 0.3220
H74 H 0.7015 -0.4689 0.2899
H75 H 0.8378 -0.4930 0.3131
H76 H 0.6086 -0.4948 0.3826
H77 H 0.6444 -0.5514 0.3447
H78 H 1.3163 -0.3811 0.5967
Cu1A Cu -0.00424(6) 0.16858(2) -0.27016(2)
Cu2_2 Cu -0.01319(6) 0.70487(3) 0.20529(3)
Cu2A Cu 0.01319(6) 0.29513(3) -0.20529(3)
Cu3A Cu 0.58069(5) -0.00888(2) -0.05725(2)
Cu4_2 Cu 1.48656(6) -0.79508(3) 0.29469(3)
Cu4A Cu 0.51344(6) -0.20492(3) -0.29469(3)
Cu5_2 Cu 1.50419(6) -0.66855(2) 0.22983(2)
Cu6A Cu 1.08079(5) -0.50884(2) 0.55721(2)
Cu6_2 Cu -0.08079(5) 0.50884(2) 0.44279(2)
Co1A Co 0.25424(6) -0.02190(3) -0.21663(2)
Co2_2 Co 0.24578(6) 0.52189(3) 0.28338(2)
O1A O -0.1093(3) 0.2244(1) -0.2197(1)
O2A O 0.1178(3) 0.2397(1) -0.2563(1)
O3A O 0.4568(3) -0.0529(1) -0.0046(1)
O4_2 O 1.3818(3) -0.7397(1) 0.2438(1)
O5_2 O 1.6089(3) -0.7244(1) 0.2803(1)
O6A O 0.9565(3) -0.5527(1) 0.5044(1)
N1A N -0.1599(4) 0.1136(2) -0.2826(2)
N2A N 0.1054(4) 0.1389(2) -0.3358(2)
N3A N 0.1726(4) 0.3475(2) -0.1887(2)
N4A N -0.1090(4) 0.3335(2) -0.1496(2)
N5A N 0.6205(4) -0.0858(2) -0.1010(2)
N6A N 0.7299(4) 0.0406(2) -0.0889(2)
N7_2 N 1.3278(4) -0.8472(2) 0.3116(2)
N8_2 N 1.6092(4) -0.8336(2) 0.3504(2)
N9_2 N 1.6589(4) -0.6135(2) 0.2172(2)
N10_2 N 1.3936(4) -0.6389(2) 0.1641(2)
N11A N 1.1201(4) -0.5860(2) 0.6011(2)
N12A N 1.2304(4) -0.4589(2) 0.5886(2)
N13A N 0.0887(4) 0.0969(2) -0.2120(2)
N14A N 0.4262(4) 0.0229(2) -0.1174(2)
N15_2 N 1.5700(4) -0.8622(2) 0.2259(2)
N15A N 0.4300(4) -0.1378(2) -0.2259(2)
N16A N 0.4361(5) 0.0411(2) -0.3043(2)
N17A N 0.0822(4) -0.0709(2) -0.3155(2)
N18A N 0.0727(5) -0.0830(2) -0.1274(2)
N19_2 N 0.4106(4) 0.4035(2) 0.2881(2)
N20A N 0.9264(4) -0.4769(2) 0.6174(2)
N20_2 N 0.0736(4) 0.4769(2) 0.3826(2)
N21_2 N 0.0636(5) 0.4592(2) 0.1958(2)
N22_2 N 0.0711(4) 0.6380(2) 0.2741(2)
N22A N -0.0711(4) 0.3620(2) -0.2741(2)
N23_2 N 0.4267(5) 0.5826(2) 0.3724(2)
N24_2 N 0.4176(4) 0.5710(2) 0.1844(2)
C1A C 0.6572(6) 0.2693(3) -0.3357(3)
C2A C 0.5143(5) 0.2610(2) -0.3146(2)
C3A C 0.4308(5) 0.2158(2) -0.3368(2)
C4A C 0.2968(5) 0.2075(2) -0.3181(2)
C5A C 0.2434(5) 0.2464(2) -0.2749(2)
C6A C 0.3290(5) 0.2934(2) -0.2528(2)
C7A C 0.4602(5) 0.2993(2) -0.2733(2)
C8A C 0.2242(6) 0.1589(2) -0.3456(2)
C9A C 0.0706(6) 0.0841(3) -0.3705(2)
C10A C -0.0807(6) 0.0743(3) -0.3757(3)
C11A C -0.1460(5) 0.0585(2) -0.3192(3)
C12A C -0.2733(5) 0.1187(2) -0.2577(2)
C13A C -0.6367(6) 0.1861(3) -0.1304(3)
C14A C -0.4990(5) 0.1968(3) -0.1545(3)
C15A C -0.4221(5) 0.2485(2) -0.1390(2)
C16A C -0.2911(5) 0.2581(2) -0.1603(2)
C17A C -0.2332(5) 0.2166(2) -0.1995(2)
C18A C -0.3137(5) 0.1649(2) -0.2168(2)
C19A C -0.4436(5) 0.1576(2) -0.1941(2)
C20A C -0.2262(5) 0.3131(2) -0.1382(2)
C21A C -0.0749(6) 0.3927(2) -0.1198(2)
C22A C 0.0683(7) 0.3945(3) -0.1012(3)
C23A C 0.1596(6) 0.4029(3) -0.1510(3)
C24A C 0.2886(5) 0.3385(2) -0.2111(2)
C25A C 0.2522(8) -0.2988(3) -0.0217(3)
C26A C 0.3069(6) -0.2331(2) -0.0183(2)
C27A C 0.4012(6) -0.2111(2) -0.0557(2)
C28A C 0.4537(5) -0.1507(2) -0.0525(2)
C29A C 0.4091(4) -0.1098(2) -0.0093(2)
C30A C 0.3106(5) -0.1328(2) 0.0289(2)
C31A C 0.2621(5) -0.1927(2) 0.0238(2)
C32A C 0.5544(5) -0.1356(2) -0.0955(2)
C33A C 0.7195(5) -0.0870(3) -0.1492(2)
C34A C 0.7456(6) -0.0260(3) -0.1760(2)
C35A C 0.8175(6) 0.0171(3) -0.1351(3)
C36A C 0.2494(5) -0.0974(2) 0.0743(2)
C37_2 C 2.1368(6) -0.6868(3) 0.3700(3)
C38_2 C 1.9994(5) -0.6970(3) 0.3453(3)
C39_2 C 1.9215(5) -0.7483(2) 0.3611(2)
C40_2 C 1.7917(5) -0.7582(2) 0.3395(2)
C41_2 C 1.7335(5) -0.7170(2) 0.3005(2)
C42_2 C 1.8142(5) -0.6652(2) 0.2829(2)
C43_2 C 1.9425(5) -0.6575(2) 0.3059(2)
C44_2 C 1.7269(5) -0.8133(2) 0.3615(2)
C45_2 C 1.5757(6) -0.8926(2) 0.3796(2)
C46_2 C 1.4319(7) -0.8943(3) 0.3986(3)
C47_2 C 1.3401(6) -0.9028(3) 0.3485(3)
C48_2 C 1.2109(5) -0.8384(2) 0.2891(2)
C49_2 C 0.8437(6) -0.7693(3) 0.1644(3)
C50_2 C 0.9854(5) -0.7609(2) 0.1850(2)
C51_2 C 1.0705(6) -0.7161(2) 0.1635(2)
C52_2 C 1.2036(5) -0.7077(2) 0.1818(2)
C53_2 C 1.2570(5) -0.7465(2) 0.2254(2)
C54_2 C 1.1713(5) -0.7934(2) 0.2474(2)
C55_2 C 1.0392(5) -0.7993(2) 0.2268(2)
C56_2 C 1.2753(5) -0.6585(2) 0.1544(2)
C57_2 C 1.4299(6) -0.5840(3) 0.1295(2)
C58_2 C 1.5805(6) -0.5741(3) 0.1239(2)
C59_2 C 1.6462(5) -0.5585(2) 0.1807(3)
C60_2 C 1.7725(5) -0.6189(2) 0.2423(2)
C61A C 0.7509(7) -0.7988(3) 0.5217(3)
C62A C 0.8080(6) -0.7333(2) 0.5182(2)
C63A C 0.9007(6) -0.7117(2) 0.5562(2)
C64A C 0.9538(5) -0.6506(2) 0.5528(2)
C65A C 0.9090(4) -0.6096(2) 0.5093(2)
C66A C 0.8106(5) -0.6324(2) 0.4709(2)
C67A C 0.7612(6) -0.6930(2) 0.4763(2)
C68A C 1.0541(5) -0.6350(2) 0.5957(2)
C69A C 1.2192(5) -0.5867(3) 0.6492(2)
C70A C 1.2462(6) -0.5257(3) 0.6759(2)
C71A C 1.3187(6) -0.4827(3) 0.6348(3)
C72A C 0.7488(5) -0.5970(2) 0.4255(2)
C73A C 0.1492(4) 0.0518(2) -0.2128(2)
C74A C 0.3608(4) 0.0071(2) -0.1552(2)
C75A C 0.3630(4) -0.0947(2) -0.2211(2)
C76A C 0.3685(5) 0.0178(2) -0.2712(2)
C77A C 0.1460(4) -0.0526(2) -0.2778(2)
C78A C 0.1405(5) -0.0604(2) -0.1613(2)
C79_2 C 0.3503(4) 0.4483(2) 0.2867(2)
C80_2 C 0.1382(4) 0.4931(2) 0.3445(2)
C81_2 C 0.1316(5) 0.4825(2) 0.2287(2)
C82_2 C 0.1373(4) 0.5944(2) 0.2789(2)
C83_2 C 0.3599(5) 0.5605(2) 0.3386(2)
C84_2 C 0.3538(5) 0.5528(2) 0.2223(2)
H1A H 0.6682 0.3095 -0.3515
H2A H 0.6780 0.2391 -0.3635
H3A H 0.7180 0.2649 -0.3038
H4A H 0.4645 0.1889 -0.3663
H5A H 0.5160 0.3311 -0.2576
H6A H 0.2718 0.1386 -0.3758
H7A H 0.1073 0.0889 -0.4081
H8A H 0.1079 0.0486 -0.3530
H9A H -0.1193 0.1120 -0.3903
H10A H -0.0965 0.0424 -0.4029
H11A H -0.2323 0.0412 -0.3261
H12A H -0.0919 0.0287 -0.2997
H13A H -0.3389 0.0883 -0.2669
H14A H -0.7023 0.1870 -0.1595
H15A H -0.6403 0.1479 -0.1104
H16A H -0.6580 0.2188 -0.1028
H17A H -0.4586 0.2791 -0.1131
H18A H -0.4953 0.1233 -0.2077
H19A H -0.2775 0.3375 -0.1118
H20A H -0.0938 0.4261 -0.1452
H21A H -0.1322 0.3964 -0.0869
H22A H 0.0821 0.4279 -0.0750
H23A H 0.0924 0.3568 -0.0829
H24A H 0.2474 0.4145 -0.1379
H25A H 0.1263 0.4368 -0.1743
H26A H 0.3587 0.3655 -0.1978
H27A H 0.1562 -0.2977 -0.0270
H28A H 0.2911 -0.3202 -0.0529
H29A H 0.2706 -0.3203 0.0131
H30A H 0.4336 -0.2376 -0.0854
H31A H 0.1964 -0.2069 0.0501
H32A H 0.5724 -0.1670 -0.1236
H33A H 0.6875 -0.1152 -0.1778
H34A H 0.8028 -0.1027 -0.1346
H35A H 0.6607 -0.0077 -0.1866
H36A H 0.7969 -0.0314 -0.2103
H37A H 0.8537 0.0513 -0.1558
H38A H 0.8910 -0.0051 -0.1179
H39A H 0.1835 -0.1189 0.0964
H40_2 H 2.2015 -0.6862 0.3403
H41_2 H 2.1387 -0.6482 0.3901
H42_2 H 2.1578 -0.7191 0.3965
H43_2 H 1.9572 -0.7782 0.3880
H44_2 H 1.9937 -0.6229 0.2932
H45_2 H 1.7785 -0.8382 0.3877
H46_2 H 1.5925 -0.9259 0.3540
H47_2 H 1.6333 -0.8971 0.4125
H48_2 H 1.4179 -0.9271 0.4257
H49_2 H 1.4082 -0.8561 0.4173
H50_2 H 1.3741 -0.9366 0.3257
H51_2 H 1.2524 -0.9146 0.3618
H52_2 H 1.1408 -0.8653 0.3019
H53_2 H 0.8320 -0.8094 0.1484
H54_2 H 0.8235 -0.7392 0.1353
H55_2 H 0.7825 -0.7639 0.1953
H56_2 H 1.0359 -0.6892 0.1341
H57_2 H 0.9834 -0.8309 0.2425
H58_2 H 1.2263 -0.6378 0.1248
H59_2 H 1.3924 -0.5885 0.0922
H60_2 H 1.3924 -0.5484 0.1475
H61_2 H 1.6192 -0.6115 0.1093
H62_2 H 1.5959 -0.5418 0.0972
H63_2 H 1.7335 -0.5415 0.1743
H64_2 H 1.5934 -0.5282 0.2006
H65_2 H 1.8379 -0.5883 0.2330
H66A H 0.7665 -0.8204 0.4863
H67A H 0.6561 -0.7974 0.5282
H68A H 0.7922 -0.8210 0.5520
H69A H 0.9328 -0.7380 0.5862
H70A H 0.6946 -0.7071 0.4498
H71A H 1.0718 -0.6663 0.6240
H72A H 1.3018 -0.6030 0.6348
H73A H 1.1861 -0.6148 0.6780
H74A H 1.2985 -0.5311 0.7101
H75A H 1.1622 -0.5070 0.6869
H76A H 1.3914 -0.5052 0.6174
H77A H 1.3556 -0.4486 0.6553
H78A H 0.6837 -0.6189 0.4033
O7 O 0.9561(5) -0.2337(2) 0.0860(2)
N25 N 0.9135(5) -0.1475(3) 0.0337(2)
C85 C 0.9300(6) -0.1788(3) 0.0818(3)
C86 C 0.8761(10) -0.0827(4) 0.0344(4)
C87 C 0.9178(9) -0.1775(5) -0.0213(3)
H79 H 0.9242 -0.1552 0.1174
H80 H 0.7908 -0.0781 0.0551
H81 H 0.9409 -0.0591 0.0563
H82 H 0.8670 -0.0664 -0.0019
H83 H 0.9046 -0.1492 -0.0514
H84 H 0.8493 -0.2090 -0.0233
H85 H 1.0029 -0.1979 -0.0265
O8 O 0.4553(5) 0.2666(3) 0.4141(2)
N26 N 0.4135(5) 0.3528(3) 0.4662(2)
C88 C 0.4307(6) 0.3215(3) 0.4181(3)
C89 C 0.3763(9) 0.4166(4) 0.4643(4)
C90 C 0.4194(9) 0.3227(5) 0.5213(3)
H86 H 0.4241 0.3444 0.3828
H87 H 0.3679 0.4342 0.5006
H88 H 0.4426 0.4401 0.4424
H89 H 0.2922 0.4216 0.4435
H90 H 0.4048 0.3509 0.5515
H91 H 0.3525 0.2904 0.5234
H92 H 0.5056 0.3032 0.5267
O9 O 0.1678(9) 0.1169(5) 0.4913(4)
C91 C 0.174(2) 0.1833(7) 0.4918(6)
H93 H 0.2542 0.1960 0.5116
H94 H 0.0987 0.1996 0.5116
H95 H 0.1767 0.1995 0.4539
O10 O 0.506(1) 0.0703(4) 0.5546(4)
C92 C 0.5784(6) 0.0846(4) 0.6005(3)
H96 H 0.6568 0.1064 0.5902
H97 H 0.5264 0.1069 0.6266
H98 H 0.6055 0.0457 0.6180
O11 O 0.9476(9) 0.0843(4) 0.4333(3)
C93 C 0.867(2) 0.0418(7) 0.4606(5)
H99 H 0.7957 0.0275 0.4357
H100 H 0.8247 0.0592 0.4942
H101 H 0.9158 0.0057 0.4730
O12 O 0.3329(9) 0.3827(5) -0.0077(4)
C94 C 0.327(2) 0.3161(7) -0.0063(6)
H102 H 0.2939 0.3021 0.0267
H103 H 0.4182 0.3005 -0.0134
H104 H 0.2749 0.3023 -0.0394
O13 O 0.9204(7) 0.4168(4) 0.1002(3)
C95 C 0.991(1) 0.4284(4) 0.0534(4)
H105 H 0.9621 0.4028 0.0220
H106 H 0.9832 0.4705 0.0421
H107 H 1.0849 0.4196 0.0599
O14 O 0.5508(9) 0.4165(3) -0.0661(3)
C96 C 0.637(2) 0.4601(6) -0.0394(5)
H108 H 0.7147 0.4396 -0.0233
H109 H 0.5936 0.4823 -0.0097
H110 H 0.6705 0.4895 -0.0672
loop_
_geom_bond_atom_site_label_1
_geom_bond_atom_site_label_2
_geom_bond_site_symmetry_1
_geom_bond_site_symmetry_2
Cu1 O1 1_555 1_555
Cu2 O1 1_555 1_555
Cu3 O3 1_555 1_555
Cu4 O4 1_555 1_555
Cu5 O4 1_555 1_555
Cu6 O6 1_555 1_555
Co1 C73 1_555 1_555
Co2 C79 1_555 1_555
O1 C17 1_555 1_555
O2 Cu1 1_555 1_555
O3 C29 1_555 1_555
O4 C53 1_555 1_555
O5 Cu4 1_555 1_555
O6 C65 1_555 1_555
O7 C85 1_555 1_555
O8 C88 1_555 1_555
O9 C91 1_555 1_555
O10 C92 1_555 1_555
O11 C93 1_555 1_555
O12 C94 1_555 1_555
O13 C95 1_555 1_555
O14 C96 1_555 1_555
N1 Cu1 1_555 1_555
N2 Cu1 1_555 1_555
N3 Cu2 1_555 1_555
N4 Cu2 1_555 1_555
N5 Cu3 1_555 1_555
N6 Cu3 1_555 1_555
N7 Cu4 1_555 1_555
N8 Cu4 1_555 1_555
N9 Cu5 1_555 1_555
N10 Cu5 1_555 1_555
N11 Cu6 1_555 1_555
N12 Cu6 1_555 1_555
N13 Cu1 1_555 1_555
N14 Cu3 1_555 1_555
N15 Cu4 1_555 1_555
N16 C76 1_555 1_555
N17 C77 1_555 1_555
N18 C78 1_555 1_555
N19 C79 1_555 1_555
N20 Cu6 1_555 1_555
N21 C81 1_555 1_555
N22 Cu2 1_555 1_555
N23 C83 1_555 1_555
N24 C84 1_555 1_555
N25 C85 1_555 1_555
N26 C88 1_555 1_555
C1 C2 1_555 1_555
C2 C3 1_555 1_555
C3 C4 1_555 1_555
C4 C5 1_555 1_555
C5 O2 1_555 1_555
C6 C5 1_555 1_555
C7 C2 1_555 1_555
C8 N2 1_555 1_555
C9 N2 1_555 1_555
C10 C9 1_555 1_555
C11 N1 1_555 1_555
C12 N1 1_555 1_555
C13 C14 1_555 1_555
C14 C15 1_555 1_555
C15 C16 1_555 1_555
C16 C17 1_555 1_555
C17 C18 1_555 1_555
C18 C12 1_555 1_555
C19 C14 1_555 1_555
C20 N4 1_555 1_555
C21 N4 1_555 1_555
C22 C21 1_555 1_555
C23 N3 1_555 1_555
C24 N3 1_555 1_555
C25 C26 1_555 1_555
C26 C27 1_555 1_555
C27 C28 1_555 1_555
C28 C29 1_555 1_555
C29 C30 1_555 1_555
C30 C31 1_555 1_555
C31 C26 1_555 1_555
C32 N5 1_555 1_555
C33 N5 1_555 1_555
C34 C33 1_555 1_555
C35 N6 1_555 1_555
C36 C30 1_555 1_555
C37 C38 1_555 1_555
C38 C39 1_555 1_555
C39 C40 1_555 1_555
C40 C41 1_555 1_555
C41 O5 1_555 1_555
C42 C41 1_555 1_555
C43 C38 1_555 1_555
C44 N8 1_555 1_555
C45 N8 1_555 1_555
C46 C45 1_555 1_555
C47 N7 1_555 1_555
C48 N7 1_555 1_555
C49 C50 1_555 1_555
C50 C51 1_555 1_555
C51 C52 1_555 1_555
C52 C53 1_555 1_555
C53 C54 1_555 1_555
C54 C48 1_555 1_555
C55 C50 1_555 1_555
C56 N10 1_555 1_555
C57 N10 1_555 1_555
C58 C57 1_555 1_555
C59 N9 1_555 1_555
C60 N9 1_555 1_555
C61 C62 1_555 1_555
C62 C63 1_555 1_555
C63 C64 1_555 1_555
C64 C65 1_555 1_555
C65 C66 1_555 1_555
C66 C67 1_555 1_555
C67 C62 1_555 1_555
C68 N11 1_555 1_555
C69 N11 1_555 1_555
C70 C69 1_555 1_555
C71 N12 1_555 1_555
C72 C66 1_555 1_555
C73 N13 1_555 1_555
C74 Co1 1_555 1_555
C75 Co1 1_555 1_555
C76 Co1 1_555 1_555
C77 Co1 1_555 1_555
C78 Co1 1_555 1_555
C80 Co2 1_555 1_555
C81 Co2 1_555 1_555
C82 Co2 1_555 1_555
C83 Co2 1_555 1_555
C84 Co2 1_555 1_555
C85 H79 1_555 1_555
C86 N25 1_555 1_555
C87 N25 1_555 1_555
C88 H86 1_555 1_555
C89 N26 1_555 1_555
C90 N26 1_555 1_555
C91 H93 1_555 1_555
C92 H96 1_555 1_555
C93 H99 1_555 1_555
C94 H102 1_555 1_555
C95 H105 1_555 1_555
C96 H108 1_555 1_555
H1 C1 1_555 1_555
H2 C1 1_555 1_555
H3 C1 1_555 1_555
H4 C3 1_555 1_555
H5 C7 1_555 1_555
H6 C8 1_555 1_555
H7 C9 1_555 1_555
H8 C9 1_555 1_555
H9 C10 1_555 1_555
H10 C10 1_555 1_555
H11 C11 1_555 1_555
H12 C11 1_555 1_555
H13 C12 1_555 1_555
H14 C13 1_555 1_555
H15 C13 1_555 1_555
H16 C13 1_555 1_555
H17 C15 1_555 1_555
H18 C19 1_555 1_555
H19 C20 1_555 1_555
H20 C21 1_555 1_555
H21 C21 1_555 1_555
H22 C22 1_555 1_555
H23 C22 1_555 1_555
H24 C23 1_555 1_555
H25 C23 1_555 1_555
H26 C24 1_555 1_555
H27 C25 1_555 1_555
H28 C25 1_555 1_555
H29 C25 1_555 1_555
H30 C27 1_555 1_555
H31 C31 1_555 1_555
H32 C32 1_555 1_555
H33 C33 1_555 1_555
H34 C33 1_555 1_555
H35 C34 1_555 1_555
H36 C34 1_555 1_555
H37 C35 1_555 1_555
H38 C35 1_555 1_555
H39 C36 1_555 1_555
H40 C37 1_555 1_555
H41 C37 1_555 1_555
H42 C37 1_555 1_555
H43 C39 1_555 1_555
H44 C43 1_555 1_555
H45 C44 1_555 1_555
H46 C45 1_555 1_555
H47 C45 1_555 1_555
H48 C46 1_555 1_555
H49 C46 1_555 1_555
H50 C47 1_555 1_555
H51 C47 1_555 1_555
H52 C48 1_555 1_555
H53 C49 1_555 1_555
H54 C49 1_555 1_555
H55 C49 1_555 1_555
H56 C51 1_555 1_555
H57 C55 1_555 1_555
H58 C56 1_555 1_555
H59 C57 1_555 1_555
H60 C57 1_555 1_555
H61 C58 1_555 1_555
H62 C58 1_555 1_555
H63 C59 1_555 1_555
H64 C59 1_555 1_555
H65 C60 1_555 1_555
H66 C61 1_555 1_555
H67 C61 1_555 1_555
H68 C61 1_555 1_555
H69 C63 1_555 1_555
H70 C67 1_555 1_555
H71 C68 1_555 1_555
H72 C69 1_555 1_555
H73 C69 1_555 1_555
H74 C70 1_555 1_555
H75 C70 1_555 1_555
H76 C71 1_555 1_555
H77 C71 1_555 1_555
H78 C72 1_555 1_555
H80 C86 1_555 1_555
H81 C86 1_555 1_555
H82 C86 1_555 1_555
H83 C87 1_555 1_555
H84 C87 1_555 1_555
H85 C87 1_555 1_555
H87 C89 1_555 1_555
H88 C89 1_555 1_555
H89 C89 1_555 1_555
H90 C90 1_555 1_555
H91 C90 1_555 1_555
H92 C90 1_555 1_555
H94 C91 1_555 1_555
H95 C91 1_555 1_555
H97 C92 1_555 1_555
H98 C92 1_555 1_555
H100 C93 1_555 1_555
H101 C93 1_555 1_555
H103 C94 1_555 1_555
H104 C94 1_555 1_555
H106 C95 1_555 1_555
H107 C95 1_555 1_555
H109 C96 1_555 1_555
H110 C96 1_555 1_555
Cu1A O1A 1_555 1_555
Cu2_2 N22_2 1_555 1_555
Cu2A O1A 1_555 1_555
Cu3A O3 1_555 1_555
Cu4_2 O4_2 1_555 1_555
Cu4A N15A 1_555 1_555
Cu5_2 N19 1_555 1_555
Cu6A O6 1_555 1_555
Cu6_2 N20_2 1_555 1_555
Co1A C73A 1_555 1_555
Co2_2 C79_2 1_555 1_555
O1A C17A 1_555 1_555
O2A Cu1A 1_555 1_555
O3A Cu3 1_555 1_555
O4_2 Cu5_2 1_555 1_555
O5_2 Cu4_2 1_555 1_555
O6A Cu6 1_555 1_555
N1A Cu1A 1_555 1_555
N2A Cu1A 1_555 1_555
N3A Cu2A 1_555 1_555
N4A Cu2A 1_555 1_555
N5A Cu3A 1_555 1_555
N6A C36 1_555 1_555
N7_2 Cu4_2 1_555 1_555
N8_2 Cu4_2 1_555 1_555
N9_2 Cu5_2 1_555 1_555
N10_2 Cu5_2 1_555 1_555
N11A Cu6A 1_555 1_555
N12A C72 1_555 1_555
N13A Cu1A 1_555 1_555
N14A Cu3A 1_555 1_555
N15_2 Cu4_2 1_555 1_555
N15A C75A 1_555 1_555
N16A C76A 1_555 1_555
N17A C77A 1_555 1_555
N18A C78A 1_555 1_555
N19_2 Cu5 1_555 1_555
N20A Cu6A 1_555 1_555
N20_2 C80_2 1_555 1_555
N21_2 C81_2 1_555 1_555
N22_2 C82_2 1_555 1_555
N22A Cu2A 1_555 1_555
N23_2 C83_2 1_555 1_555
N24_2 C84_2 1_555 1_555
C1A C2A 1_555 1_555
C2A C3A 1_555 1_555
C3A C4A 1_555 1_555
C4A C5A 1_555 1_555
C5A O2A 1_555 1_555
C6A C5A 1_555 1_555
C7A C2A 1_555 1_555
C8A N2A 1_555 1_555
C9A N2A 1_555 1_555
C10A C9A 1_555 1_555
C11A N1A 1_555 1_555
C12A N1A 1_555 1_555
C13A C14A 1_555 1_555
C14A C15A 1_555 1_555
C15A C16A 1_555 1_555
C16A C17A 1_555 1_555
C17A C18A 1_555 1_555
C18A C12A 1_555 1_555
C19A C14A 1_555 1_555
C20A N4A 1_555 1_555
C21A N4A 1_555 1_555
C22A C21A 1_555 1_555
C23A N3A 1_555 1_555
C24A N3A 1_555 1_555
C25A C26A 1_555 1_555
C26A C27A 1_555 1_555
C27A C28A 1_555 1_555
C28A C29A 1_555 1_555
C29A O3A 1_555 1_555
C30A C29A 1_555 1_555
C31A C26A 1_555 1_555
C32A N5A 1_555 1_555
C33A N5A 1_555 1_555
C34A C33A 1_555 1_555
C35A N6A 1_555 1_555
C36A N6 1_555 1_555
C37_2 C38_2 1_555 1_555
C38_2 C39_2 1_555 1_555
C39_2 C40_2 1_555 1_555
C40_2 C41_2 1_555 1_555
C41_2 O5_2 1_555 1_555
C42_2 C41_2 1_555 1_555
C43_2 C38_2 1_555 1_555
C44_2 N8_2 1_555 1_555
C45_2 N8_2 1_555 1_555
C46_2 C45_2 1_555 1_555
C47_2 N7_2 1_555 1_555
C48_2 N7_2 1_555 1_555
C49_2 C50_2 1_555 1_555
C50_2 C51_2 1_555 1_555
C51_2 C52_2 1_555 1_555
C52_2 C53_2 1_555 1_555
C53_2 O4_2 1_555 1_555
C54_2 C48_2 1_555 1_555
C55_2 C50_2 1_555 1_555
C56_2 N10_2 1_555 1_555
C57_2 N10_2 1_555 1_555
C58_2 C57_2 1_555 1_555
C59_2 N9_2 1_555 1_555
C60_2 N9_2 1_555 1_555
C61A C62A 1_555 1_555
C62A C63A 1_555 1_555
C63A C64A 1_555 1_555
C64A C65A 1_555 1_555
C65A O6A 1_555 1_555
C66A C65A 1_555 1_555
C67A C62A 1_555 1_555
C68A N11A 1_555 1_555
C69A N11A 1_555 1_555
C70A C69A 1_555 1_555
C71A N12A 1_555 1_555
C72A N12 1_555 1_555
C73A N13A 1_555 1_555
C74A Co1A 1_555 1_555
C75A Co1A 1_555 1_555
C76A Co1A 1_555 1_555
C77A Co1A 1_555 1_555
C78A Co1A 1_555 1_555
C79_2 N19_2 1_555 1_555
C80_2 Co2_2 1_555 1_555
C81_2 Co2_2 1_555 1_555
C82_2 Co2_2 1_555 1_555
C83_2 Co2_2 1_555 1_555
C84_2 Co2_2 1_555 1_555
H1A C1A 1_555 1_555
H2A C1A 1_555 1_555
H3A C1A 1_555 1_555
H4A C3A 1_555 1_555
H5A C7A 1_555 1_555
H6A C8A 1_555 1_555
H7A C9A 1_555 1_555
H8A C9A 1_555 1_555
H9A C10A 1_555 1_555
H10A C10A 1_555 1_555
H11A C11A 1_555 1_555
H12A C11A 1_555 1_555
H13A C12A 1_555 1_555
H14A C13A 1_555 1_555
H15A C13A 1_555 1_555
H16A C13A 1_555 1_555
H17A C15A 1_555 1_555
H18A C19A 1_555 1_555
H19A C20A 1_555 1_555
H20A C21A 1_555 1_555
H21A C21A 1_555 1_555
H22A C22A 1_555 1_555
H23A C22A 1_555 1_555
H24A C23A 1_555 1_555
H25A C23A 1_555 1_555
H26A C24A 1_555 1_555
H27A C25A 1_555 1_555
H28A C25A 1_555 1_555
H29A C25A 1_555 1_555
H30A C27A 1_555 1_555
H31A C31A 1_555 1_555
H32A C32A 1_555 1_555
H33A C33A 1_555 1_555
H34A C33A 1_555 1_555
H35A C34A 1_555 1_555
H36A C34A 1_555 1_555
H37A C35A 1_555 1_555
H38A C35A 1_555 1_555
H39A C36A 1_555 1_555
H40_2 C37_2 1_555 1_555
H41_2 C37_2 1_555 1_555
H42_2 C37_2 1_555 1_555
H43_2 C39_2 1_555 1_555
H44_2 C43_2 1_555 1_555
H45_2 C44_2 1_555 1_555
H46_2 C45_2 1_555 1_555
H47_2 C45_2 1_555 1_555
H48_2 C46_2 1_555 1_555
H49_2 C46_2 1_555 1_555
H50_2 C47_2 1_555 1_555
H51_2 C47_2 1_555 1_555
H52_2 C48_2 1_555 1_555
H53_2 C49_2 1_555 1_555
H54_2 C49_2 1_555 1_555
H55_2 C49_2 1_555 1_555
H56_2 C51_2 1_555 1_555
H57_2 C55_2 1_555 1_555
H58_2 C56_2 1_555 1_555
H59_2 C57_2 1_555 1_555
H60_2 C57_2 1_555 1_555
H61_2 C58_2 1_555 1_555
H62_2 C58_2 1_555 1_555
H63_2 C59_2 1_555 1_555
H64_2 C59_2 1_555 1_555
H65_2 C60_2 1_555 1_555
H66A C61A 1_555 1_555
H67A C61A 1_555 1_555
H68A C61A 1_555 1_555
H69A C63A 1_555 1_555
H70A C67A 1_555 1_555
H71A C68A 1_555 1_555
H72A C69A 1_555 1_555
H73A C69A 1_555 1_555
H74A C70A 1_555 1_555
H75A C70A 1_555 1_555
H76A C71A 1_555 1_555
H77A C71A 1_555 1_555
H78A C72A 1_555 1_555
Cu2 O2 1_555 1_555
Cu5 O5 1_555 1_555
N14 C74 1_555 1_555
N15 C75 1_555 1_555
N20 C80 1_555 1_555
N22 C82 1_555 1_555
C4 C8 1_555 1_555
C6 C7 1_555 1_555
C6 C24 1_555 1_555
C10 C11 1_555 1_555
C16 C20 1_555 1_555
C18 C19 1_555 1_555
C22 C23 1_555 1_555
C28 C32 1_555 1_555
C34 C35 1_555 1_555
C40 C44 1_555 1_555
C42 C43 1_555 1_555
C42 C60 1_555 1_555
C46 C47 1_555 1_555
C52 C56 1_555 1_555
C54 C55 1_555 1_555
C58 C59 1_555 1_555
C64 C68 1_555 1_555
C70 C71 1_555 1_555
Cu2A O2A 1_555 1_555
Cu3A O3A 1_555 1_555
Cu3A N6A 1_555 1_555
Cu5_2 O5_2 1_555 1_555
Cu6A O6A 1_555 1_555
Cu6A N12A 1_555 1_555
N14A C74A 1_555 1_555
C4A C8A 1_555 1_555
C6A C7A 1_555 1_555
C6A C24A 1_555 1_555
C10A C11A 1_555 1_555
C16A C20A 1_555 1_555
C18A C19A 1_555 1_555
C22A C23A 1_555 1_555
C28A C32A 1_555 1_555
C30A C31A 1_555 1_555
C30A C36A 1_555 1_555
C34A C35A 1_555 1_555
C40_2 C44_2 1_555 1_555
C42_2 C43_2 1_555 1_555
C42_2 C60_2 1_555 1_555
C46_2 C47_2 1_555 1_555
C52_2 C56_2 1_555 1_555
C53_2 C54_2 1_555 1_555
C54_2 C55_2 1_555 1_555
C58_2 C59_2 1_555 1_555
C64A C68A 1_555 1_555
C66A C67A 1_555 1_555
C66A C72A 1_555 1_555
C70A C71A 1_555 1_555

#END
