
#######################################################################
#
#                 Cambridge Crystallographic Data Centre
#                                CCDC 
#
#######################################################################
#
# If this CIF has been generated from an entry in the Cambridge 
# Structural Database, then it will include bibliographic, chemical, 
# crystal, experimental, refinement or atomic coordinate data resulting 
# from the CCDC's data processing and validation procedures.
#
#######################################################################

data_SAVLEH
_symmetry_cell_setting           monoclinic
_symmetry_space_group_name_H-M   'P 21/n'
_symmetry_Int_Tables_number      14
_space_group_name_Hall           '-P 2yn'
loop_
_symmetry_equiv_pos_site_id
_symmetry_equiv_pos_as_xyz
1 x,y,z
2 1/2-x,1/2+y,1/2-z
3 -x,-y,-z
4 1/2+x,1/2-y,1/2+z
_cell_length_a                   9.9806(8)
_cell_length_b                   16.5512(16)
_cell_length_c                   11.3109(7)
_cell_angle_alpha                90
_cell_angle_beta                 99.375(5)
_cell_angle_gamma                90
_cell_volume                     1843.5
loop_
_atom_site_label
_atom_site_type_symbol
_atom_site_fract_x
_atom_site_fract_y
_atom_site_fract_z
Cu1 Cu 0.09773(6) -0.00189(4) 0.43112(5)
O1 O 0.1879(4) -0.0737(3) 0.5594(3)
O2 O 0.0221(4) -0.0733(3) 0.6691(4)
O3 O -0.0787(6) -0.1995(4) 0.8385(6)
H1 H -0.1378 -0.1773 0.8695
O4 O 0.0536(6) -0.1039(5) 0.9351(5)
O5 O 0.3238(4) -0.4093(2) 0.9739(4)
O6 O 0.4876(4) -0.4051(2) 0.8617(4)
N1 N 0.2523(5) -0.0188(3) 0.3209(4)
N2 N 0.7507(8) -0.1346(5) -0.0257(6)
C1 C 0.2018(6) -0.1662(3) 0.7176(5)
C2 C 0.1500(6) -0.1990(4) 0.8149(5)
C3 C 0.2087(6) -0.2675(4) 0.8712(5)
H2 H 0.1722 -0.2899 0.9343
C4 C 0.3211(6) -0.3037(3) 0.8354(5)
C5 C 0.3745(6) -0.2692(4) 0.7410(5)
H3 H 0.4506 -0.2923 0.7168
C6 C 0.3169(6) -0.2020(4) 0.6832(5)
H4 H 0.3544 -0.1799 0.6204
C7 C 0.1320(6) -0.0985(3) 0.6436(5)
C8 C 0.0342(9) -0.1617(5) 0.8678(7)
C9 C 0.3820(6) -0.3783(3) 0.8947(5)
C10 C 0.2240(8) -0.0583(6) 0.2196(8)
H5 H 0.1335 -0.0700 0.1902
C11 C 0.3223(9) -0.0837(6) 0.1539(8)
H6 H 0.2969 -0.1155 0.0861
C12 C 0.4546(6) -0.0631(4) 0.1867(5)
C13 C 0.4789(8) -0.0154(6) 0.2843(9)
H7 H 0.5662 0.0041 0.3100
C14 C 0.3761(8) 0.0048(6) 0.3466(8)
H8 H 0.3983 0.0383 0.4130
C15 C 0.6393(11) -0.1738(7) -0.0265(8)
H9 H 0.6238 -0.2190 -0.0757
C16 C 0.5416(8) -0.1529(6) 0.0410(7)
H10 H 0.4635 -0.1842 0.0367
C17 C 0.5579(6) -0.0869(5) 0.1141(5)
C18 C 0.6779(8) -0.0442(5) 0.1170(7)
H11 H 0.6960 0.0011 0.1657
C19 C 0.7737(8) -0.0712(6) 0.0435(8)
H12 H 0.8544 -0.0428 0.0452
Cu1B Cu -0.09773(6) 0.00189(4) 0.56888(5)
Cu1A Cu 0.40227(6) -0.50189(4) 1.06888(5)
Cu1C Cu 0.59773(6) -0.49811(4) 0.93112(5)
O2B O -0.0221(4) 0.0733(3) 0.3309(4)
O5A O 0.1762(4) 0.0907(2) 0.5261(4)
O6C O -0.0124(4) -0.0949(2) 0.3617(4)
loop_
_geom_bond_atom_site_label_1
_geom_bond_atom_site_label_2
_geom_bond_site_symmetry_1
_geom_bond_site_symmetry_2
Cu1 O1 1_555 1_555
O1 C7 1_555 1_555
O2 C7 1_555 1_555
O3 H1 1_555 1_555
O4 C8 1_555 1_555
O5 C9 1_555 1_555
O6 C9 1_555 1_555
N1 Cu1 1_555 1_555
N2 C15 1_555 1_555
C1 C2 1_555 1_555
C2 C3 1_555 1_555
C3 H2 1_555 1_555
C4 C3 1_555 1_555
C5 C4 1_555 1_555
H3 C5 1_555 1_555
C6 C1 1_555 1_555
H4 C6 1_555 1_555
C7 C1 1_555 1_555
C8 O3 1_555 1_555
C9 C4 1_555 1_555
C10 N1 1_555 1_555
H5 C10 1_555 1_555
C11 C10 1_555 1_555
H6 C11 1_555 1_555
C12 C11 1_555 1_555
C13 C12 1_555 1_555
H7 C13 1_555 1_555
C14 N1 1_555 1_555
H8 C14 1_555 1_555
C15 H9 1_555 1_555
C16 C15 1_555 1_555
H10 C16 1_555 1_555
C17 C12 1_555 1_555
C18 C17 1_555 1_555
H11 C18 1_555 1_555
C19 N2 1_555 1_555
H12 C19 1_555 1_555
Cu1B O2 1_555 1_555
Cu1A O5 1_555 1_555
Cu1C O6 1_555 1_555
O2B Cu1 1_555 1_555
O5A Cu1 1_555 1_555
O6C Cu1 1_555 1_555
C2 C8 1_555 1_555
C5 C6 1_555 1_555
C13 C14 1_555 1_555
C16 C17 1_555 1_555
C18 C19 1_555 1_555

#END
