
#######################################################################
#
#                 Cambridge Crystallographic Data Centre
#                                CCDC 
#
#######################################################################
#
# If this CIF has been generated from an entry in the Cambridge 
# Structural Database, then it will include bibliographic, chemical, 
# crystal, experimental, refinement or atomic coordinate data resulting 
# from the CCDC's data processing and validation procedures.
#
#######################################################################

data_SAVLOR
_symmetry_cell_setting           monoclinic
_symmetry_space_group_name_H-M   'P 21/n'
_symmetry_Int_Tables_number      14
_space_group_name_Hall           '-P 2yn'
loop_
_symmetry_equiv_pos_site_id
_symmetry_equiv_pos_as_xyz
1 x,y,z
2 1/2-x,1/2+y,1/2-z
3 -x,-y,-z
4 1/2+x,1/2-y,1/2+z
_cell_length_a                   7.435(4)
_cell_length_b                   9.193(4)
_cell_length_c                   17.375(8)
_cell_angle_alpha                90
_cell_angle_beta                 94.600(6)
_cell_angle_gamma                90
_cell_volume                     1183.76
loop_
_atom_site_label
_atom_site_type_symbol
_atom_site_fract_x
_atom_site_fract_y
_atom_site_fract_z
Zn1 Zn 0.0000 0.0000 0.0000
O7 O 0.02397(10) -0.16549(9) -0.07658(4)
O8 O -0.00095(11) -0.15533(10) 0.09439(4)
O9 O 0.27416(11) 0.04239(11) 0.01769(5)
O7B O -0.02397(10) 0.16549(9) 0.07658(4)
O8B O 0.00095(11) 0.15533(10) -0.09439(4)
O9B O -0.27416(11) -0.04239(11) -0.01769(5)
Zn2 Zn 0.191224(16) -0.495329(12) -0.227304(7)
O1 O 0.18865(11) -0.54121(10) -0.11451(4)
O2 O 0.31262(11) -0.32536(10) -0.12086(4)
O3 O 0.56382(10) -0.17686(8) 0.22736(4)
O4 O 0.55686(10) -0.06850(9) 0.11328(4)
O5 O 0.57549(10) -0.48530(8) 0.27269(4)
O6 O 0.30835(9) -0.39899(10) 0.29482(4)
C1 C 0.29427(13) -0.42708(12) 0.00433(6)
C2 C 0.38774(13) -0.31066(12) 0.03948(6)
H1 H 0.4251 -0.2349 0.0091
C3 C 0.42674(12) -0.30488(11) 0.11913(5)
C4 C 0.37350(12) -0.42138(12) 0.16377(5)
C5 C 0.27460(15) -0.53540(13) 0.12878(6)
H2 H 0.2347 -0.6104 0.1590
C6 C 0.23501(15) -0.53859(14) 0.04987(6)
H3 H 0.1687 -0.6153 0.0272
C7 C 0.26362(13) -0.43129(13) -0.08223(6)
C8 C 0.52326(13) -0.17401(12) 0.15448(6)
C9 C 0.42275(13) -0.43192(11) 0.24930(6)
O10 O 0.04122(10) -0.67019(8) -0.26128(4)
Zn2C Zn -0.308776(16) -0.004671(12) -0.727304(7)
Zn2C_2 Zn 0.691224(16) -0.004671(12) 0.272696(7)
Zn2B Zn 0.808776(16) -0.504671(12) 0.227304(7)
Zn2A Zn 0.308776(16) 0.004671(12) -0.272696(7)
O1C O -0.31135(11) 0.04121(10) -0.61451(4)
O2C O -0.18738(11) -0.17464(10) -0.62086(4)
O3C O 0.06382(10) -0.32314(8) -0.27264(4)
O3_2 O -0.43618(10) -0.17686(8) -0.77264(4)
O4C O 0.05686(10) -0.43150(9) -0.38672(4)
O5C O 0.07549(10) -0.01470(8) -0.22731(4)
O5B O 0.42451(10) -0.51470(8) -0.27269(4)
O5A O -0.07549(10) 0.01470(8) -0.77269(4)
O6C O -0.19165(9) -0.10101(10) -0.20518(4)
C1C C -0.20573(13) -0.07292(12) -0.49567(6)
C2C C -0.11226(13) -0.18934(12) -0.46052(6)
H1C H -0.0749 -0.2651 -0.4909
C3C C -0.07326(12) -0.19512(11) -0.38087(5)
C4C C -0.12650(12) -0.07862(12) -0.33623(5)
C5C C -0.22540(15) 0.03540(13) -0.37122(6)
H2C H -0.2653 0.1104 -0.3410
C6C C -0.26499(15) 0.03859(14) -0.45013(6)
H3C H -0.3313 0.1153 -0.4728
C7C C -0.23638(13) -0.06871(13) -0.58223(6)
C8C C 0.02326(13) -0.32599(12) -0.34552(6)
C9C C -0.07725(13) -0.06808(11) -0.25070(6)
O10C O -0.45878(10) 0.17019(8) -0.76128(4)
loop_
_geom_bond_atom_site_label_1
_geom_bond_atom_site_label_2
_geom_bond_site_symmetry_1
_geom_bond_site_symmetry_2
Zn1 O7 1_555 1_555
Zn2 O1 1_555 1_555
O1 C7 1_555 1_555
O2 C7 1_555 1_555
O3 C8 1_555 1_555
O4 C8 1_555 1_555
O5 C9 1_555 1_555
O6 C9 1_555 1_555
C1 C2 1_555 1_555
C2 H1 1_555 1_555
C3 C2 1_555 1_555
C4 C3 1_555 1_555
C5 C4 1_555 1_555
H2 C5 1_555 1_555
C6 C1 1_555 1_555
H3 C6 1_555 1_555
C7 C1 1_555 1_555
C8 C3 1_555 1_555
C9 C4 1_555 1_555
O8 Zn1 1_555 1_555
O9 Zn1 1_555 1_555
O10 Zn2 1_555 1_555
Zn2C O1C 1_555 1_555
Zn2C_2 O3 1_555 1_555
Zn2B O5 1_555 1_555
Zn2A O5C 1_555 1_555
O1C C7C 1_555 1_555
O2C C7C 1_555 1_555
O3C Zn2 1_555 1_555
O3_2 Zn2C 1_555 1_555
O4C C8C 1_555 1_555
O5C C9C 1_555 1_555
O5B Zn2 1_555 1_555
O5A Zn2C 1_555 1_555
O6C C9C 1_555 1_555
C1C C2C 1_555 1_555
C2C H1C 1_555 1_555
C3C C2C 1_555 1_555
C4C C3C 1_555 1_555
C5C C4C 1_555 1_555
H2C C5C 1_555 1_555
C6C C1C 1_555 1_555
H3C C6C 1_555 1_555
C7C C1C 1_555 1_555
C8C O3C 1_555 1_555
C9C C4C 1_555 1_555
O7B Zn1 1_555 1_555
O8B Zn1 1_555 1_555
O9B Zn1 1_555 1_555
O10C Zn2C 1_555 1_555
C5 C6 1_555 1_555
C3C C8C 1_555 1_555
C5C C6C 1_555 1_555

#END
