
#######################################################################
#
#                 Cambridge Crystallographic Data Centre
#                                CCDC 
#
#######################################################################
#
# If this CIF has been generated from an entry in the Cambridge 
# Structural Database, then it will include bibliographic, chemical, 
# crystal, experimental, refinement or atomic coordinate data resulting 
# from the CCDC's data processing and validation procedures.
#
#######################################################################

data_SAVMEI
_symmetry_cell_setting           orthorhombic
_symmetry_space_group_name_H-M   'P b c a'
_symmetry_Int_Tables_number      61
_space_group_name_Hall           '-P 2ac 2ab'
loop_
_symmetry_equiv_pos_site_id
_symmetry_equiv_pos_as_xyz
1 x,y,z
2 1/2-x,-y,1/2+z
3 -x,1/2+y,1/2-z
4 1/2+x,1/2-y,-z
5 -x,-y,-z
6 1/2+x,y,1/2-z
7 x,1/2-y,1/2+z
8 1/2-x,1/2+y,z
_cell_length_a                   12.039
_cell_length_b                   14.213
_cell_length_c                   21.6320(13)
_cell_angle_alpha                90
_cell_angle_beta                 90
_cell_angle_gamma                90
_cell_volume                     3701.46
loop_
_atom_site_label
_atom_site_type_symbol
_atom_site_fract_x
_atom_site_fract_y
_atom_site_fract_z
Cu1 Cu 0.09457(4) 0.42622(3) 0.37239(2)
P1 P 0.21677(12) 0.46224(10) 0.48805(6)
P2 P -0.08699(9) 0.28087(8) 0.38283(5)
P3 P 0.49137(9) 0.61478(7) 0.18824(5)
N1 N 0.1212(3) 0.3123(2) 0.43152(16)
N2 N 0.2308(3) 0.3562(2) 0.31224(15)
N3 N 0.3324(3) 0.4840(2) 0.22290(15)
H1 H 0.3812 0.4419 0.2066
C1 C 0.1385(4) 0.3533(3) 0.4942(2)
H2 H 0.1787 0.3089 0.5199
H3 H 0.0672 0.3655 0.5134
C2 C 0.0268(4) 0.2433(3) 0.4317(2)
H4 H 0.0000 0.2356 0.4737
H5 H 0.0536 0.1826 0.4175
C3 C 0.2249(4) 0.2647(3) 0.4089(2)
H6 H 0.2288 0.2015 0.4257
H7 H 0.2895 0.2993 0.4231
C4 C 0.2252(4) 0.2603(3) 0.3388(2)
H8 H 0.2886 0.2239 0.3249
H9 H 0.1583 0.2291 0.3246
C5 C 0.2039(4) 0.3516(3) 0.24555(19)
H10 H 0.1278 0.3304 0.2406
H11 H 0.2520 0.3057 0.2259
C6 C 0.2178(3) 0.4454(3) 0.2137(2)
H12 H 0.2036 0.4381 0.1698
H13 H 0.1638 0.4896 0.2301
C7 C 0.3547(4) 0.4902(3) 0.29111(19)
H14 H 0.4289 0.5147 0.2981
H15 H 0.3019 0.5327 0.3103
C8 C 0.3446(3) 0.3942(3) 0.3194(2)
H16 H 0.3972 0.3520 0.2999
H17 H 0.3629 0.3978 0.3630
C9 C 0.3468(4) 0.5747(3) 0.1888(2)
H18 H 0.3008 0.6225 0.2080
H19 H 0.3215 0.5667 0.1466
O1 O 0.3373(4) 0.4480(3) 0.4978(2)
O2 O 0.1616(5) 0.5193(3) 0.54197(19)
H20 H 0.1864 0.5731 0.5422
O3 O 0.1870(3) 0.5022(2) 0.42602(15)
O4 O -0.1215(3) 0.1960(2) 0.34235(14)
H21 H -0.0822 0.1941 0.3114
O5 O -0.1845(3) 0.3103(2) 0.42091(16)
O6 O -0.0367(2) 0.3578(2) 0.34211(13)
O7 O 0.5100(3) 0.6757(2) 0.24339(15)
O8 O 0.5623(2) 0.5281(2) 0.18490(13)
O9 O 0.5016(3) 0.6692(2) 0.12628(14)
H22 H 0.5649 0.6896 0.1226
Cu1E Cu 0.59457(4) 0.42622(3) 0.12761(2)
O8E O 0.0623(2) 0.5281(2) 0.31510(13)
O10 O 0.4065(3) 0.8232(3) 0.10507(18)
O11 O 0.4915(3) 0.9947(3) 0.0813(2)
loop_
_geom_bond_atom_site_label_1
_geom_bond_atom_site_label_2
_geom_bond_site_symmetry_1
_geom_bond_site_symmetry_2
Cu1 N1 1_555 1_555
P1 C1 1_555 1_555
P2 C2 1_555 1_555
P3 C9 1_555 1_555
N1 C1 1_555 1_555
N2 Cu1 1_555 1_555
N3 H1 1_555 1_555
C1 H2 1_555 1_555
H3 C1 1_555 1_555
C2 N1 1_555 1_555
H4 C2 1_555 1_555
H5 C2 1_555 1_555
C3 N1 1_555 1_555
H6 C3 1_555 1_555
H7 C3 1_555 1_555
C4 N2 1_555 1_555
H8 C4 1_555 1_555
H9 C4 1_555 1_555
C5 N2 1_555 1_555
H10 C5 1_555 1_555
H11 C5 1_555 1_555
C6 N3 1_555 1_555
H12 C6 1_555 1_555
H13 C6 1_555 1_555
C7 N3 1_555 1_555
H14 C7 1_555 1_555
H15 C7 1_555 1_555
C8 N2 1_555 1_555
H16 C8 1_555 1_555
H17 C8 1_555 1_555
C9 N3 1_555 1_555
H18 C9 1_555 1_555
H19 C9 1_555 1_555
O1 P1 1_555 1_555
O2 P1 1_555 1_555
H20 O2 1_555 1_555
O3 Cu1 1_555 1_555
O4 P2 1_555 1_555
H21 O4 1_555 1_555
O5 P2 1_555 1_555
O6 Cu1 1_555 1_555
O7 P3 1_555 1_555
O8 P3 1_555 1_555
O9 P3 1_555 1_555
H22 O9 1_555 1_555
Cu1E O8 1_555 1_555
O8E Cu1 1_555 1_555
P1 O3 1_555 1_555
P2 O6 1_555 1_555
C3 C4 1_555 1_555
C5 C6 1_555 1_555
C7 C8 1_555 1_555

#END
