
#######################################################################
#
#                 Cambridge Crystallographic Data Centre
#                                CCDC 
#
#######################################################################
#
# If this CIF has been generated from an entry in the Cambridge 
# Structural Database, then it will include bibliographic, chemical, 
# crystal, experimental, refinement or atomic coordinate data resulting 
# from the CCDC's data processing and validation procedures.
#
#######################################################################

data_SAVMOS
_symmetry_cell_setting           monoclinic
_symmetry_space_group_name_H-M   'C 2/c'
_symmetry_Int_Tables_number      15
_space_group_name_Hall           '-C 2yn'
loop_
_symmetry_equiv_pos_site_id
_symmetry_equiv_pos_as_xyz
1 x,y,z
2 1/2+x,1/2+y,z
3 -x,y,1/2-z
4 1/2-x,1/2+y,1/2-z
5 -x,-y,-z
6 1/2-x,1/2-y,-z
7 x,-y,1/2+z
8 1/2+x,1/2-y,1/2+z
_cell_length_a                   15.9621(16)
_cell_length_b                   9.681
_cell_length_c                   19.228(2)
_cell_angle_alpha                90.00
_cell_angle_beta                 101.783(5)
_cell_angle_gamma                90.00
_cell_volume                     2908.67
loop_
_atom_site_label
_atom_site_type_symbol
_atom_site_fract_x
_atom_site_fract_y
_atom_site_fract_z
Co1 Co 0.25997(3) 0.74603(4) 0.64532(2)
P1 P 0.58851(5) 1.36911(9) 0.56836(4)
P2 P 0.75654(5) 1.05393(8) 0.77247(4)
N1 N 0.37588(17) 0.8365(3) 0.62938(15)
N2 N 0.63549(16) 1.1604(3) 0.66469(13)
C1 C 0.5299(2) 0.9671(3) 0.62053(18)
C2 C 0.5289(2) 0.8470(4) 0.65972(19)
H1 H 0.5799 0.8088 0.6842
C3 C 0.4518(2) 0.7849(4) 0.6620(2)
H2 H 0.4524 0.7031 0.6874
C4 C 0.3767(2) 0.9493(4) 0.59007(19)
H3 H 0.3247 0.9849 0.5661
C5 C 0.4514(2) 1.0165(4) 0.58311(18)
H4 H 0.4491 1.0935 0.5539
C6 C 0.6131(2) 1.0388(3) 0.61722(18)
H5 H 0.6590 0.9718 0.6287
H6 H 0.6106 1.0685 0.5687
C7 C 0.5737(2) 1.2760(3) 0.64682(18)
H7 H 0.5807 1.3393 0.6867
H8 H 0.5158 1.2397 0.6388
C8 C 0.6491(2) 1.1240(4) 0.74129(16)
H9 H 0.6069 1.0562 0.7484
H10 H 0.6418 1.2057 0.7686
O1 O 0.57199(17) 1.5205(2) 0.57924(13)
O2 O 0.52249(16) 1.3091(3) 0.50450(13)
H11 H 0.4961 1.3726 0.4817
O3 O 0.67882(15) 1.3375(3) 0.55973(12)
O4 O 0.78368(16) 1.1288(3) 0.84695(13)
H12 H 0.8281 1.0944 0.8692
O5 O 0.81090(14) 1.1042(2) 0.72181(13)
O6 O 0.75617(15) 0.9004(2) 0.78124(12)
O7 O 0.28058(18) 0.5929(3) 0.56802(14)
Co1A Co 0.75997(3) 1.24603(4) 0.64532(2)
Co1B Co 0.74003(3) 0.74603(4) 0.85468(2)
N2A N 0.13549(16) 0.6604(3) 0.66469(13)
O3A O 0.17882(15) 0.8375(3) 0.55973(12)
O5A O 0.31090(14) 0.6042(2) 0.72181(13)
O6B O 0.24383(15) 0.9004(2) 0.71876(12)
O8 O 0.4262(8) 0.4317(10) 0.6837(8)
O9 O 0.2975(10) 0.3206(9) 0.5724(9)
loop_
_geom_bond_atom_site_label_1
_geom_bond_atom_site_label_2
_geom_bond_site_symmetry_1
_geom_bond_site_symmetry_2
Co1 N1 1_555 1_555
P1 C7 1_555 1_555
P2 C8 1_555 1_555
N1 C3 1_555 1_555
N2 C6 1_555 1_555
C1 C2 1_555 1_555
C2 H1 1_555 1_555
C3 C2 1_555 1_555
H2 C3 1_555 1_555
C4 N1 1_555 1_555
H3 C4 1_555 1_555
C5 C1 1_555 1_555
H4 C5 1_555 1_555
C6 C1 1_555 1_555
H5 C6 1_555 1_555
H6 C6 1_555 1_555
C7 N2 1_555 1_555
H7 C7 1_555 1_555
H8 C7 1_555 1_555
C8 N2 1_555 1_555
H9 C8 1_555 1_555
H10 C8 1_555 1_555
O1 P1 1_555 1_555
O2 P1 1_555 1_555
H11 O2 1_555 1_555
O3 P1 1_555 1_555
O4 P2 1_555 1_555
H12 O4 1_555 1_555
O5 P2 1_555 1_555
O6 P2 1_555 1_555
O7 Co1 1_555 1_555
Co1A N2 1_555 1_555
Co1B O6 1_555 1_555
N2A Co1 1_555 1_555
O3A Co1 1_555 1_555
O5A Co1 1_555 1_555
O6B Co1 1_555 1_555
C4 C5 1_555 1_555
O3 Co1A 1_555 1_555
O5 Co1A 1_555 1_555

#END
