
#######################################################################
#
#                 Cambridge Crystallographic Data Centre
#                                CCDC 
#
#######################################################################
#
# If this CIF has been generated from an entry in the Cambridge 
# Structural Database, then it will include bibliographic, chemical, 
# crystal, experimental, refinement or atomic coordinate data resulting 
# from the CCDC's data processing and validation procedures.
#
#######################################################################

data_SAVMAE
_symmetry_cell_setting           triclinic
_symmetry_space_group_name_H-M   'P -1'
_symmetry_Int_Tables_number      2
_space_group_name_Hall           '-P 1'
loop_
_symmetry_equiv_pos_site_id
_symmetry_equiv_pos_as_xyz
1 x,y,z
2 -x,-y,-z
_cell_length_a                   7.6898(19)
_cell_length_b                   8.884(3)
_cell_length_c                   10.322(2)
_cell_angle_alpha                105.686(19)
_cell_angle_beta                 92.927(18)
_cell_angle_gamma                105.59(2)
_cell_volume                     648.075
loop_
_atom_site_label
_atom_site_type_symbol
_atom_site_fract_x
_atom_site_fract_y
_atom_site_fract_z
Zn1 Zn 0.5000 1.0000 0.5000
Zn2 Zn 0.83991(3) 0.61564(2) 0.667300(19)
O1 O 0.4175(3) 0.8719(2) 0.6594(2)
O2 O 0.6678(3) 0.7943(2) 0.6715(2)
O3 O 0.2914(3) 0.4955(3) 0.54713(19)
O4 O 0.0212(3) 0.4393(2) 0.62222(19)
O5 O 0.1319(3) 0.3773(3) 1.0963(2)
O6 O 0.3440(3) 0.5687(2) 1.24269(19)
C1 C 0.4433(3) 0.7216(3) 0.8116(3)
C2 C 0.5269(4) 0.7924(3) 0.9442(3)
H1 H 0.6250 0.8868 0.9649
C3 C 0.4692(4) 0.7272(3) 1.0461(3)
H2 H 0.5276 0.7769 1.1346
C4 C 0.3212(4) 0.5847(3) 1.0154(3)
C5 C 0.2326(4) 0.5205(3) 0.8869(3)
H3 H 0.1289 0.4311 0.8681
C6 C 0.2920(3) 0.5841(3) 0.7820(3)
C7 C 0.5103(4) 0.7960(3) 0.7037(3)
C8 C 0.1959(3) 0.4995(3) 0.6406(2)
C9 C 0.2596(4) 0.5046(3) 1.1238(3)
O7 O 0.2110(4) 0.8657(3) 0.3767(3)
O8 O 0.3692(3) 1.1955(3) 0.6022(2)
O9 O 1.0660(3) 0.8485(3) 0.7036(3)
Zn2A Zn 0.16009(3) 1.38436(2) 0.332700(19)
Zn2A_2 Zn 0.16009(3) 0.38436(2) 0.332700(19)
Zn2_2 Zn -0.16009(3) 0.61564(2) 0.667300(19)
Zn2A_3 Zn 0.16009(3) 0.38436(2) 1.332700(19)
Zn2_3 Zn 0.83991(3) 1.61564(2) 0.667300(19)
Zn2A_4 Zn 1.16009(3) 1.38436(2) 0.332700(19)
Zn2_4 Zn 0.83991(3) 1.61564(2) -0.332700(19)
O1A O 0.5825(3) 1.1281(2) 0.3406(2)
O2A O 0.3322(3) 1.2057(2) 0.3285(2)
O3A O 0.7086(3) 1.5045(3) 0.45287(19)
O3A_2 O 0.7086(3) 0.5045(3) 0.45287(19)
O3_2 O 0.2914(3) 1.4955(3) 0.54713(19)
O4A O 0.9788(3) 1.5607(2) 0.37778(19)
O4_2 O 1.0212(3) 0.4393(2) 0.62222(19)
O4A_2 O -0.0212(3) 1.5607(2) 0.37778(19)
O5A O 0.8681(3) 1.6227(3) -0.0963(2)
O5A_2 O 0.8681(3) 0.6227(3) 0.9037(2)
O5_2 O 0.1319(3) 1.3773(3) 0.0963(2)
O6A O 0.6560(3) 1.4313(2) -0.24269(19)
O6A_2 O 0.6560(3) 0.4313(2) 0.75731(19)
O6_2 O 0.3440(3) 1.5687(2) 0.24269(19)
C1A C 0.5567(3) 1.2784(3) 0.1884(3)
C2A C 0.4731(4) 1.2076(3) 0.0558(3)
H1A H 0.3750 1.1132 0.0351
C3A C 0.5308(4) 1.2728(3) -0.0461(3)
H2A H 0.4724 1.2231 -0.1346
C4A C 0.6788(4) 1.4153(3) -0.0154(3)
C5A C 0.7674(4) 1.4795(3) 0.1131(3)
H3A H 0.8711 1.5689 0.1319
C6A C 0.7080(3) 1.4159(3) 0.2180(3)
C7A C 0.4897(4) 1.2040(3) 0.2963(3)
C8A C 0.8041(3) 1.5005(3) 0.3594(2)
C9A C 0.7404(4) 1.4954(3) -0.1238(3)
O7A O 0.7890(4) 1.1343(3) 0.6233(3)
O8A O 0.6308(3) 0.8045(3) 0.3978(2)
O9A O -0.0660(3) 1.1515(3) 0.2964(3)
O10 O -0.0362(7) 0.0940(5) 0.8873(5)
loop_
_geom_bond_atom_site_label_1
_geom_bond_atom_site_label_2
_geom_bond_site_symmetry_1
_geom_bond_site_symmetry_2
Zn1 O1 1_555 1_555
Zn2 O2 1_555 1_555
O1 C7 1_555 1_555
O2 C7 1_555 1_555
O3 C8 1_555 1_555
O4 C8 1_555 1_555
O5 C9 1_555 1_555
O6 C9 1_555 1_555
C1 C2 1_555 1_555
C2 H1 1_555 1_555
C3 C2 1_555 1_555
H2 C3 1_555 1_555
C4 C3 1_555 1_555
C5 C4 1_555 1_555
H3 C5 1_555 1_555
C6 C1 1_555 1_555
C7 C1 1_555 1_555
C8 C6 1_555 1_555
C9 C4 1_555 1_555
O7 Zn1 1_555 1_555
O8 Zn1 1_555 1_555
O9 Zn2 1_555 1_555
Zn2A O2A 1_555 1_555
Zn2A_2 O3 1_555 1_555
Zn2_2 O4 1_555 1_555
Zn2A_3 O5 1_555 1_555
Zn2_3 O3A 1_555 1_555
Zn2A_4 O4A 1_555 1_555
Zn2_4 O5A 1_555 1_555
O1A Zn1 1_555 1_555
O2A C7A 1_555 1_555
O3A C8A 1_555 1_555
O3A_2 Zn2 1_555 1_555
O3_2 Zn2A 1_555 1_555
O4A C8A 1_555 1_555
O4_2 Zn2 1_555 1_555
O4A_2 Zn2A 1_555 1_555
O5A C9A 1_555 1_555
O5A_2 Zn2 1_555 1_555
O5_2 Zn2A 1_555 1_555
O6A Zn2_4 1_555 1_555
O6A_2 Zn2 1_555 1_555
O6_2 Zn2A 1_555 1_555
C1A C2A 1_555 1_555
C2A H1A 1_555 1_555
C3A C2A 1_555 1_555
H2A C3A 1_555 1_555
C4A C3A 1_555 1_555
C5A C4A 1_555 1_555
H3A C5A 1_555 1_555
C6A C1A 1_555 1_555
C7A O1A 1_555 1_555
C8A C6A 1_555 1_555
C9A O6A 1_555 1_555
O7A Zn1 1_555 1_555
O8A Zn1 1_555 1_555
O9A Zn2A 1_555 1_555
O6 Zn2A_3 1_555 1_555
C5 C6 1_555 1_555
C1A C7A 1_555 1_555
C4A C9A 1_555 1_555
C5A C6A 1_555 1_555

#END
