
#######################################################################
#
#                 Cambridge Crystallographic Data Centre
#                                CCDC 
#
#######################################################################
#
# If this CIF has been generated from an entry in the Cambridge 
# Structural Database, then it will include bibliographic, chemical, 
# crystal, experimental, refinement or atomic coordinate data resulting 
# from the CCDC's data processing and validation procedures.
#
#######################################################################

data_SAVMOR
_symmetry_cell_setting           monoclinic
_symmetry_space_group_name_H-M   'P 21/c'
_symmetry_Int_Tables_number      14
_space_group_name_Hall           '-P 2ybc'
loop_
_symmetry_equiv_pos_site_id
_symmetry_equiv_pos_as_xyz
1 x,y,z
2 -x,1/2+y,1/2-z
3 -x,-y,-z
4 x,1/2-y,1/2+z
_cell_length_a                   11.156(4)
_cell_length_b                   12.747(7)
_cell_length_c                   14.055(2)
_cell_angle_alpha                90
_cell_angle_beta                 97.06(2)
_cell_angle_gamma                90
_cell_volume                     1983.54
loop_
_atom_site_label
_atom_site_type_symbol
_atom_site_fract_x
_atom_site_fract_y
_atom_site_fract_z
N2 N 0.7134(4) -0.2534(3) -0.0880(3)
C14 C 0.7746(9) -0.1516(8) -0.0661(7)
C15 C 0.8099(9) -0.3270(8) -0.1061(7)
C16 C 0.6364(8) -0.2469(7) -0.1826(6)
C17 C 0.6567(14) -0.2918(12) -0.0115(11)
H9 H 0.7152 -0.0987 -0.0533
H10 H 0.8151 -0.1295 -0.1210
H11 H 0.8349 -0.1594 -0.0095
H12 H 0.8658 -0.3363 -0.0470
H13 H 0.8541 -0.2988 -0.1564
H14 H 0.7744 -0.3949 -0.1263
H15 H 0.6842 -0.2193 -0.2309
H16 H 0.6062 -0.3169 -0.2017
H17 H 0.5678 -0.1999 -0.1771
H18 H 0.6175 -0.3587 -0.0295
H19 H 0.7170 -0.3017 0.0447
H20 H 0.5958 -0.2410 0.0042
Mo1 Mo 0.25142(3) -0.05592(3) -0.14177(2)
O1 O 0.3928(3) -0.0629(3) -0.0819(2)
O2 O 0.2302(4) 0.0727(2) -0.1711(2)
S1 S 0.3082(1) -0.09164(9) -0.29838(7)
O3 O 0.1610(3) -0.0731(2) -0.0324(2)
N1 N 0.2420(3) -0.2361(2) -0.1467(2)
C1 C 0.1822(3) -0.2920(3) -0.0931(3)
C2 C 0.1251(3) -0.2567(3) -0.0121(3)
C3 C 0.1188(3) -0.1507(3) 0.0165(3)
C4 C 0.0661(4) -0.1258(3) 0.0987(3)
C5 C 0.0229(4) -0.2042(3) 0.1531(3)
C6 C 0.0295(3) -0.3092(3) 0.1256(3)
C7 C 0.0792(4) -0.3347(3) 0.0441(3)
C8 C 0.3038(3) -0.2881(3) -0.2170(3)
C9 C 0.3384(3) -0.2264(3) -0.2916(3)
C10 C 0.3972(4) -0.2741(4) -0.3619(3)
C11 C 0.4258(4) -0.3789(4) -0.3570(4)
C12 C 0.3963(5) -0.4376(4) -0.2815(4)
C13 C 0.3352(4) -0.3939(4) -0.2113(4)
S2 S -0.0231(1) -0.40994(8) 0.19677(7)
O4 O -0.1442(3) -0.3815(3) 0.2103(3)
O5 O 0.0555(3) -0.0938(2) -0.2110(2)
O6 O -0.0114(4) -0.5073(3) 0.1466(2)
H1 H 0.1746 -0.3668 -0.1087
H2 H 0.0596 -0.0523 0.1179
H3 H -0.0127 -0.1860 0.2114
H4 H 0.0826 -0.4084 0.0248
H5 H 0.4183 -0.2324 -0.4159
H6 H 0.4669 -0.4115 -0.4072
H7 H 0.4191 -0.5119 -0.2770
H8 H 0.3142 -0.4370 -0.1581
O5C O 0.0555(3) -0.4062(2) 0.2890(2)
S2C S -0.0231(1) -0.09006(8) -0.30323(7)
Mo1C Mo 0.25142(3) -0.44408(3) 0.35823(2)
C6C C 0.0295(3) -0.1908(3) -0.3744(3)
O4C O -0.1442(3) -0.1185(3) -0.2897(3)
O6C O -0.0114(4) 0.0073(3) -0.3534(2)
O1C O 0.3928(3) -0.4371(3) 0.4181(2)
O2C O 0.2302(4) -0.5727(2) 0.3289(2)
S1C S 0.3082(1) -0.40836(9) 0.20162(7)
O3C O 0.1610(3) -0.4269(2) 0.4676(2)
N1C N 0.2420(3) -0.2639(2) 0.3533(2)
C5C C 0.0229(4) -0.2958(3) -0.3469(3)
C7C C 0.0792(4) -0.1653(3) -0.4559(3)
C9C C 0.3384(3) -0.2736(3) 0.2084(3)
C3C C 0.1188(3) -0.3493(3) 0.5165(3)
C1C C 0.1822(3) -0.2080(3) 0.4069(3)
C8C C 0.3038(3) -0.2119(3) 0.2830(3)
C4C C 0.0661(4) -0.3742(3) -0.4013(3)
H3C H -0.0127 -0.3140 -0.2886
C2C C 0.1251(3) -0.2433(3) -0.5121(3)
H4C H 0.0826 -0.0916 -0.4752
C10C C 0.3972(4) -0.2259(4) 0.1381(3)
C2C_2 C 0.1251(3) -0.2433(3) 0.4879(3)
C4C_2 C 0.0661(4) -0.3742(3) 0.5987(3)
H1C H 0.1746 -0.1332 0.3913
C13C C 0.3352(4) -0.1061(4) 0.2887(4)
C3C_2 C 0.1188(3) -0.3493(3) -0.4835(3)
H2C H 0.0596 -0.4477 -0.3821
C1C_2 C 0.1822(3) -0.2080(3) -0.5931(3)
C11C C 0.4258(4) -0.1211(4) 0.1430(4)
H5C H 0.4183 -0.2676 0.0841
C12C C 0.3963(5) -0.0624(4) 0.2185(4)
H8C H 0.3142 -0.0630 0.3419
H6C H 0.4669 -0.0885 0.0928
H7C H 0.4191 0.0119 0.2230
loop_
_geom_bond_atom_site_label_1
_geom_bond_atom_site_label_2
_geom_bond_site_symmetry_1
_geom_bond_site_symmetry_2
Mo1 O1 1_555 1_555
O2 Mo1 1_555 1_555
S1 Mo1 1_555 1_555
O3 Mo1 1_555 1_555
N1 Mo1 1_555 1_555
C1 N1 1_555 1_555
C2 C1 1_555 1_555
C3 O3 1_555 1_555
C4 C3 1_555 1_555
C5 C4 1_555 1_555
C6 C5 1_555 1_555
C7 C2 1_555 1_555
C8 N1 1_555 1_555
C9 S1 1_555 1_555
C10 C9 1_555 1_555
C11 C10 1_555 1_555
C12 C11 1_555 1_555
C13 C8 1_555 1_555
S2 C6 1_555 1_555
O4 S2 1_555 1_555
O5 Mo1 1_555 1_555
O6 S2 1_555 1_555
N2 C14 1_555 1_555
C14 H9 1_555 1_555
C15 N2 1_555 1_555
C16 N2 1_555 1_555
C17 N2 1_555 1_555
H1 C1 1_555 1_555
H2 C4 1_555 1_555
H3 C5 1_555 1_555
H4 C7 1_555 1_555
H5 C10 1_555 1_555
H6 C11 1_555 1_555
H7 C12 1_555 1_555
H8 C13 1_555 1_555
H10 C14 1_555 1_555
H11 C14 1_555 1_555
H12 C15 1_555 1_555
H13 C15 1_555 1_555
H14 C15 1_555 1_555
H15 C16 1_555 1_555
H16 C16 1_555 1_555
H17 C16 1_555 1_555
H18 C17 1_555 1_555
H19 C17 1_555 1_555
H20 C17 1_555 1_555
O5C S2 1_555 1_555
S2C O5 1_555 1_555
Mo1C O5C 1_555 1_555
C6C S2C 1_555 1_555
O4C S2C 1_555 1_555
O6C S2C 1_555 1_555
O1C Mo1C 1_555 1_555
O2C Mo1C 1_555 1_555
S1C Mo1C 1_555 1_555
O3C Mo1C 1_555 1_555
N1C Mo1C 1_555 1_555
C5C C6C 1_555 1_555
C7C C6C 1_555 1_555
C9C S1C 1_555 1_555
C3C O3C 1_555 1_555
C1C N1C 1_555 1_555
C8C N1C 1_555 1_555
C4C C5C 1_555 1_555
H3C C5C 1_555 1_555
C2C C7C 1_555 1_555
H4C C7C 1_555 1_555
C10C C9C 1_555 1_555
C2C_2 C3C 1_555 1_555
C4C_2 C3C 1_555 1_555
H1C C1C 1_555 1_555
C13C C8C 1_555 1_555
C3C_2 C4C 1_555 1_555
H2C C4C 1_555 1_555
C1C_2 C2C 1_555 1_555
C11C C10C 1_555 1_555
H5C C10C 1_555 1_555
C12C C13C 1_555 1_555
H8C C13C 1_555 1_555
H6C C11C 1_555 1_555
H7C C12C 1_555 1_555
C2 C3 1_555 1_555
C6 C7 1_555 1_555
C8 C9 1_555 1_555
C12 C13 1_555 1_555
C9C C8C 1_555 1_555
C1C C2C_2 1_555 1_555
C2C C3C_2 1_555 1_555
C11C C12C 1_555 1_555

#END
