
#######################################################################
#
#                 Cambridge Crystallographic Data Centre
#                                CCDC 
#
#######################################################################
#
# If this CIF has been generated from an entry in the Cambridge 
# Structural Database, then it will include bibliographic, chemical, 
# crystal, experimental, refinement or atomic coordinate data resulting 
# from the CCDC's data processing and validation procedures.
#
#######################################################################

data_SAVMIM
_symmetry_cell_setting           triclinic
_symmetry_space_group_name_H-M   'P -1'
_symmetry_Int_Tables_number      2
_space_group_name_Hall           '-P 1'
loop_
_symmetry_equiv_pos_site_id
_symmetry_equiv_pos_as_xyz
1 x,y,z
2 -x,-y,-z
_cell_length_a                   8.8156(18)
_cell_length_b                   8.9345(18)
_cell_length_c                   9.2350(18)
_cell_angle_alpha                81.75(3)
_cell_angle_beta                 73.67(3)
_cell_angle_gamma                67.65(3)
_cell_volume                     645.047
loop_
_atom_site_label
_atom_site_type_symbol
_atom_site_fract_x
_atom_site_fract_y
_atom_site_fract_z
Co1 Co 0.5000 0.0000 0.0000
P1 P -0.36584(9) 0.28779(9) -0.19488(8)
P2 P -0.11152(9) 0.72394(9) -0.18934(8)
N1 N 0.3715(3) 0.0181(3) -0.1710(3)
N2 N -0.1136(3) 0.4063(3) -0.1642(3)
H1 H -0.0515 0.4017 -0.0962
C1 C 0.3898(4) -0.1115(4) -0.2419(4)
H2 H 0.4733 -0.2125 -0.2244
C2 C 0.2927(4) -0.1045(4) -0.3392(4)
H3 H 0.3128 -0.1977 -0.3906
C3 C 0.1649(4) 0.0417(4) -0.3604(3)
H4 H 0.0929 0.0487 -0.4227
C4 C 0.1448(4) 0.1771(4) -0.2884(3)
C5 C 0.2542(4) 0.1601(4) -0.1984(3)
H5 H 0.2451 0.2538 -0.1543
C6 C 0.0127(4) 0.3403(3) -0.3097(3)
H6 H -0.0486 0.3310 -0.3808
H7 H 0.0701 0.4180 -0.3558
C7 C -0.2242(4) 0.3087(3) -0.0927(3)
H8 H -0.2951 0.3565 0.0052
H9 H -0.1490 0.1982 -0.0697
C8 C -0.2173(4) 0.5826(3) -0.1868(3)
H10 H -0.3227 0.6114 -0.1049
H11 H -0.2499 0.5969 -0.2835
O1 O -0.4436(3) 0.4445(2) -0.2759(2)
O2 O -0.4834(2) 0.2241(2) -0.0732(2)
O3 O -0.2505(3) 0.1550(2) -0.3146(2)
H12 H -0.2440 0.0628 -0.2750
O4 O 0.0040(3) 0.6559(2) -0.0861(2)
O5 O -0.2557(2) 0.8853(2) -0.1586(2)
O6 O -0.0075(3) 0.7395(2) -0.3564(2)
H13 H 0.0882 0.6654 -0.3704
Co1_2 Co -0.5000 0.0000 0.0000
Co1_3 Co -0.5000 1.0000 0.0000
Co1_4 Co 1.5000 0.0000 0.0000
Co1_5 Co 1.5000 -1.0000 0.0000
P1A P 1.36584(9) -0.28779(9) 0.19488(8)
P2A P 1.11152(9) -0.72394(9) 0.18934(8)
N1A N 0.6285(3) -0.0181(3) 0.1710(3)
N2A N 1.1136(3) -0.4063(3) 0.1642(3)
H1A H 1.0515 -0.4017 0.0962
C1A C 0.6102(4) 0.1115(4) 0.2419(4)
H2A H 0.5267 0.2125 0.2244
C2A C 0.7073(4) 0.1045(4) 0.3392(4)
H3A H 0.6872 0.1977 0.3906
C3A C 0.8351(4) -0.0417(4) 0.3604(3)
H4A H 0.9071 -0.0487 0.4227
C4A C 0.8552(4) -0.1771(4) 0.2884(3)
C5A C 0.7458(4) -0.1601(4) 0.1984(3)
H5A H 0.7549 -0.2538 0.1543
C6A C 0.9873(4) -0.3403(3) 0.3097(3)
H6A H 1.0486 -0.3310 0.3808
H7A H 0.9299 -0.4180 0.3558
C7A C 1.2242(4) -0.3087(3) 0.0927(3)
H8A H 1.2951 -0.3565 -0.0052
H9A H 1.1490 -0.1982 0.0697
C8A C 1.2173(4) -0.5826(3) 0.1868(3)
H10A H 1.3227 -0.6114 0.1049
H11A H 1.2499 -0.5969 0.2835
O1A O 1.4436(3) -0.4445(2) 0.2759(2)
O2A O 1.4834(2) -0.2241(2) 0.0732(2)
O2_2 O 0.5166(2) 0.2241(2) -0.0732(2)
O2A_2 O 0.4834(2) -0.2241(2) 0.0732(2)
O3A O 1.2505(3) -0.1550(2) 0.3146(2)
H12A H 1.2440 -0.0628 0.2750
O4A O 0.9960(3) -0.6559(2) 0.0861(2)
O5A O 1.2557(2) -0.8853(2) 0.1586(2)
O5_2 O 0.7443(2) -0.1147(2) -0.1586(2)
O5A_2 O 0.2557(2) 0.1147(2) 0.1586(2)
O6A O 1.0075(3) -0.7395(2) 0.3564(2)
H13A H 0.9118 -0.6654 0.3704
O7 O -0.2954(3) 0.4817(3) -0.5780(3)
H14 H -0.362(5) 0.508(5) -0.631(5)
H15 H -0.353(5) 0.479(5) -0.483(5)
loop_
_geom_bond_atom_site_label_1
_geom_bond_atom_site_label_2
_geom_bond_site_symmetry_1
_geom_bond_site_symmetry_2
Co1 N1 1_555 1_555
P1 C7 1_555 1_555
P2 C8 1_555 1_555
N1 C1 1_555 1_555
N2 H1 1_555 1_555
C1 H2 1_555 1_555
C2 C1 1_555 1_555
H3 C2 1_555 1_555
C3 C2 1_555 1_555
H4 C3 1_555 1_555
C4 C3 1_555 1_555
C5 N1 1_555 1_555
H5 C5 1_555 1_555
C6 N2 1_555 1_555
H6 C6 1_555 1_555
H7 C6 1_555 1_555
C7 N2 1_555 1_555
H8 C7 1_555 1_555
H9 C7 1_555 1_555
C8 N2 1_555 1_555
H10 C8 1_555 1_555
H11 C8 1_555 1_555
O1 P1 1_555 1_555
O2 P1 1_555 1_555
O3 P1 1_555 1_555
H12 O3 1_555 1_555
O4 P2 1_555 1_555
O5 P2 1_555 1_555
O6 P2 1_555 1_555
H13 O6 1_555 1_555
O7 H14 1_555 1_555
H15 O7 1_555 1_555
Co1_2 O2 1_555 1_555
Co1_3 O5 1_555 1_555
Co1_4 O2A 1_555 1_555
Co1_5 O5A 1_555 1_555
P1A C7A 1_555 1_555
P2A C8A 1_555 1_555
N1A Co1 1_555 1_555
N2A H1A 1_555 1_555
C1A N1A 1_555 1_555
H2A C1A 1_555 1_555
C2A C1A 1_555 1_555
H3A C2A 1_555 1_555
C3A C2A 1_555 1_555
H4A C3A 1_555 1_555
C4A C3A 1_555 1_555
C5A N1A 1_555 1_555
H5A C5A 1_555 1_555
C6A N2A 1_555 1_555
H6A C6A 1_555 1_555
H7A C6A 1_555 1_555
C7A N2A 1_555 1_555
H8A C7A 1_555 1_555
H9A C7A 1_555 1_555
C8A N2A 1_555 1_555
H10A C8A 1_555 1_555
H11A C8A 1_555 1_555
O1A P1A 1_555 1_555
O2A P1A 1_555 1_555
O2_2 Co1 1_555 1_555
O2A_2 Co1 1_555 1_555
O3A P1A 1_555 1_555
H12A O3A 1_555 1_555
O4A P2A 1_555 1_555
O5A P2A 1_555 1_555
O5_2 Co1 1_555 1_555
O5A_2 Co1 1_555 1_555
O6A P2A 1_555 1_555
H13A O6A 1_555 1_555
C4 C5 1_555 1_555
C4 C6 1_555 1_555
C4A C5A 1_555 1_555
C4A C6A 1_555 1_555

#END
