
#######################################################################
#
#                 Cambridge Crystallographic Data Centre
#                                CCDC 
#
#######################################################################
#
# If this CIF has been generated from an entry in the Cambridge 
# Structural Database, then it will include bibliographic, chemical, 
# crystal, experimental, refinement or atomic coordinate data resulting 
# from the CCDC's data processing and validation procedures.
#
#######################################################################

data_SAVSIR01
_symmetry_cell_setting           orthorhombic
_symmetry_space_group_name_H-M   'P n m a'
_symmetry_Int_Tables_number      62
_space_group_name_Hall           '-P 2ac 2n'
loop_
_symmetry_equiv_pos_site_id
_symmetry_equiv_pos_as_xyz
1 x,y,z
2 1/2-x,-y,1/2+z
3 1/2+x,1/2-y,1/2-z
4 -x,1/2+y,-z
5 -x,-y,-z
6 1/2+x,y,1/2-z
7 1/2-x,1/2+y,1/2+z
8 x,1/2-y,z
_cell_length_a                   6.5052(1)
_cell_length_b                   16.6686(4)
_cell_length_c                   16.7207(5)
_cell_angle_alpha                90
_cell_angle_beta                 90
_cell_angle_gamma                90
_cell_volume                     1813.07
loop_
_atom_site_label
_atom_site_type_symbol
_atom_site_fract_x
_atom_site_fract_y
_atom_site_fract_z
Mn1 Mn -0.11984(6) 0.2500 0.02593(3)
O1 O -0.7944(3) 0.2500 -0.00015(14)
O2 O -0.4580(3) 0.2500 0.00332(13)
O3 O -0.1204(2) 0.32612(10) 0.10880(9)
O4 O -0.4083(3) 0.2500 -0.15995(15)
H1 H -0.4700 0.2500 -0.2041
N1 N -0.1334(2) 0.34061(11) -0.05694(11)
C1 C -0.2916(4) 0.52490(16) 0.0455(2)
H2 H -0.3019 0.5570 -0.0013
C2 C -0.1957(3) 0.39903(14) 0.10892(16)
C3 C -0.6310(4) 0.2500 0.03797(17)
C4 C -0.2212(3) 0.44503(14) 0.03914(17)
C5 C -0.1950(5) 0.2500 -0.17319(19)
H3 H -0.1753 0.2500 -0.2325
C6 C -0.0924(4) 0.17503(17) -0.14224(15)
H4 H 0.0579 0.3201 -0.1502
H5 H -0.1406 0.3714 -0.1740
C7 C -0.3277(5) 0.5100(2) 0.1851(3)
H6 H -0.3689 0.5320 0.2351
C8 C -0.3451(4) 0.5566(2) 0.1175(3)
H7 H -0.3937 0.6102 0.1211
C9 C -0.1763(4) 0.41359(14) -0.03886(16)
H8 H -0.1785 0.0491 -0.0818
C10 C -0.2529(5) 0.43296(19) 0.18299(19)
H9 H -0.2398 0.4028 0.2309
C11 C -0.6338(5) 0.2500 0.1285(2)
H10 H -0.4924 0.2500 0.1487
H11 H -0.7054 0.2020 0.1477
H12 H -0.7054 0.2980 0.1477
Mn1_2 Mn -1.11984(6) 0.2500 0.02593(3)
O1_2 O 0.2056(3) 0.2500 -0.00015(14)
O3G O -0.1204(2) 0.17388(10) 0.10880(9)
N1G N -0.1334(2) 0.15939(11) -0.05694(11)
C1G C -0.2916(4) -0.02490(16) 0.0455(2)
H2G H -0.3019 -0.0570 -0.0013
C2G C -0.1957(3) 0.10097(14) 0.10892(16)
C4G C -0.2212(3) 0.05497(14) 0.03914(17)
C6G C -0.0924(4) 0.32497(17) -0.14224(15)
H4G H 0.0579 0.1799 -0.1502
H5G H -0.1406 0.1286 -0.1740
C7G C -0.3277(5) -0.0100(2) 0.1851(3)
H6G H -0.3689 -0.0320 0.2351
C8G C -0.3451(4) -0.0566(2) 0.1175(3)
H7G H -0.3937 -0.1102 0.1211
C9G C -0.1763(4) 0.08641(14) -0.03886(16)
H8G H -0.1785 0.4509 -0.0818
C10G C -0.2529(5) 0.06704(19) 0.18299(19)
H9G H -0.2398 0.0972 0.2309
loop_
_geom_bond_atom_site_label_1
_geom_bond_atom_site_label_2
_geom_bond_site_symmetry_1
_geom_bond_site_symmetry_2
Mn1 O2 1_555 1_555
O1 C3 1_555 1_555
O2 C3 1_555 1_555
O3 Mn1 1_555 1_555
O4 H1 1_555 1_555
N1 Mn1 1_555 1_555
C1 H2 1_555 1_555
C2 O3 1_555 1_555
C3 C11 1_555 1_555
C4 C1 1_555 1_555
C5 O4 1_555 1_555
H3 C5 1_555 1_555
C6 C5 1_555 1_555
H4 C6G 1_555 1_555
H5 C6G 1_555 1_555
C7 H6 1_555 1_555
C8 C1 1_555 1_555
H7 C8 1_555 1_555
C9 N1 1_555 1_555
H8 C9G 1_555 1_555
C10 C2 1_555 1_555
H9 C10 1_555 1_555
C11 H10 1_555 1_555
H11 C11 1_555 1_555
H12 C11 1_555 1_555
Mn1_2 O1 1_555 1_555
O1_2 Mn1 1_555 1_555
O3G Mn1 1_555 1_555
N1G Mn1 1_555 1_555
C1G H2G 1_555 1_555
C2G O3G 1_555 1_555
C4G C1G 1_555 1_555
C6G N1 1_555 1_555
H4G C6 1_555 1_555
H5G C6 1_555 1_555
C7G H6G 1_555 1_555
C8G C1G 1_555 1_555
H7G C8G 1_555 1_555
C9G N1G 1_555 1_555
H8G C9 1_555 1_555
C10G C2G 1_555 1_555
H9G C10G 1_555 1_555
C2 C4 1_555 1_555
C4 C9 1_555 1_555
C5 C6G 1_555 1_555
C6 N1G 1_555 1_555
C7 C8 1_555 1_555
C7 C10 1_555 1_555
C2G C4G 1_555 1_555
C4G C9G 1_555 1_555
C7G C8G 1_555 1_555
C7G C10G 1_555 1_555

#END
