
#######################################################################
#
#                 Cambridge Crystallographic Data Centre
#                                CCDC 
#
#######################################################################
#
# If this CIF has been generated from an entry in the Cambridge 
# Structural Database, then it will include bibliographic, chemical, 
# crystal, experimental, refinement or atomic coordinate data resulting 
# from the CCDC's data processing and validation procedures.
#
#######################################################################

data_SAVVIV
_symmetry_cell_setting           orthorhombic
_symmetry_space_group_name_H-M   'P b c a'
_symmetry_Int_Tables_number      61
_space_group_name_Hall           '-P 2ac 2ab'
loop_
_symmetry_equiv_pos_site_id
_symmetry_equiv_pos_as_xyz
1 x,y,z
2 1/2-x,-y,1/2+z
3 -x,1/2+y,1/2-z
4 1/2+x,1/2-y,-z
5 -x,-y,-z
6 1/2+x,y,1/2-z
7 x,1/2-y,1/2+z
8 1/2-x,1/2+y,z
_cell_length_a                   15.20880(10)
_cell_length_b                   18.5883(3)
_cell_length_c                   25.7347(2)
_cell_angle_alpha                90
_cell_angle_beta                 90
_cell_angle_gamma                90
_cell_volume                     7275.35
loop_
_atom_site_label
_atom_site_type_symbol
_atom_site_fract_x
_atom_site_fract_y
_atom_site_fract_z
Ag1 Ag -0.239580(11) 0.213300(9) 0.515460(6)
P1 P -0.11020(3) 0.35568(3) 0.50183(2)
P2 P 0.06223(3) 0.36873(3) 0.472410(19)
P3 P 0.00015(3) 0.23819(2) 0.510070(18)
N1 N -0.02966(11) 0.40324(9) 0.48517(7)
N2 N 0.07653(10) 0.28747(8) 0.48789(6)
N3 N -0.09502(10) 0.27317(8) 0.51565(6)
O1 O -0.15310(10) 0.39838(7) 0.54832(6)
O2 O -0.18867(9) 0.36149(8) 0.46017(6)
O3 O 0.13908(9) 0.41702(7) 0.49549(6)
O4 O 0.07856(9) 0.38277(9) 0.41237(6)
O5 O 0.02992(9) 0.20060(7) 0.56280(5)
O6 O -0.00117(9) 0.17035(7) 0.47308(5)
N4 N -0.27204(11) 0.32642(9) 0.57137(7)
N5 N -0.10235(12) 0.30731(11) 0.39730(7)
N6 N 0.01653(12) 0.30460(9) 0.61162(7)
N7 N -0.10274(11) 0.10145(9) 0.51919(7)
C1 C -0.21546(13) 0.37710(11) 0.58405(8)
C2 C -0.21437(17) 0.41458(15) 0.63014(11)
H1 H -0.1711 0.4493 0.6371
C3 C -0.2793(2) 0.39906(19) 0.66566(12)
H2 H -0.2814 0.4232 0.6977
C4 C -0.34156(18) 0.34736(16) 0.65350(11)
H3 H -0.3871 0.3364 0.6769
C5 C -0.33553(14) 0.31245(12) 0.60672(9)
H4 H -0.3776 0.2770 0.5988
C6 C -0.17826(13) 0.33644(12) 0.40994(8)
C7 C -0.24963(16) 0.34383(16) 0.37680(10)
H5 H -0.3025 0.3650 0.3880
C8 C -0.23950(19) 0.3188(2) 0.32695(11)
H6 H -0.2862 0.3220 0.3031
C9 C -0.1602(2) 0.28871(18) 0.31197(10)
H7 H -0.1518 0.2720 0.2778
C10 C -0.09412(17) 0.28387(16) 0.34811(10)
H8 H -0.0404 0.2631 0.3380
C11 C 0.16744(12) 0.41199(10) 0.54680(8)
C12 C 0.13742(15) 0.46106(11) 0.58273(9)
H9 H 0.0944 0.4953 0.5741
C13 C 0.17326(18) 0.45779(13) 0.63193(10)
H10 H 0.1548 0.4900 0.6579
C14 C 0.23687(17) 0.40630(15) 0.64260(10)
H11 H 0.2628 0.4036 0.6757
C15 C 0.26123(15) 0.35944(14) 0.60393(9)
H12 H 0.3038 0.3243 0.6116
C16 C 0.15413(13) 0.37820(10) 0.38273(7)
C17 C 0.14552(15) 0.40488(12) 0.33277(8)
H13 H 0.0916 0.4229 0.3206
C18 C 0.21940(18) 0.40401(14) 0.30164(9)
H14 H 0.2171 0.4223 0.2676
C19 C 0.29700(16) 0.37584(14) 0.32107(9)
H15 H 0.3482 0.3747 0.3006
C20 C 0.29750(15) 0.34964(14) 0.37099(9)
H16 H 0.3501 0.3302 0.3840
C21 C 0.02311(12) 0.23389(10) 0.61111(7)
C22 C 0.02426(14) 0.18918(11) 0.65398(8)
H17 H 0.0296 0.1390 0.6507
C23 C 0.01717(17) 0.22190(12) 0.70194(9)
H18 H 0.0182 0.1942 0.7325
C24 C 0.00859(18) 0.29584(13) 0.70469(9)
H19 H 0.0026 0.3191 0.7369
C25 C 0.00899(16) 0.33481(12) 0.65896(9)
H20 H 0.0037 0.3851 0.6610
C26 C -0.05125(12) 0.10780(10) 0.47855(7)
C27 C -0.04078(14) 0.05781(11) 0.43917(8)
H21 H -0.0036 0.0664 0.4107
C28 C -0.08783(16) -0.00535(12) 0.44401(10)
H22 H -0.0831 -0.0414 0.4186
C29 C -0.14212(15) -0.01526(12) 0.48664(10)
H23 H -0.1742 -0.0581 0.4908
C30 C -0.14801(14) 0.03892(11) 0.52269(9)
H24 H -0.1855 0.0323 0.5513
N8 N 0.22709(11) 0.36122(9) 0.55550(7)
N9 N 0.22626(11) 0.35037(10) 0.40242(7)
Ag1C Ag 0.260420(11) 0.286700(9) 0.484540(6)
N8C N -0.27291(11) 0.13878(9) 0.44450(7)
N9C N -0.27374(11) 0.14963(10) 0.59758(7)
P4 P -0.02044(4) 0.01342(3) 0.28142(2)
F1 F -0.10574(11) -0.02387(9) 0.30579(8)
F2 F 0.03509(11) -0.01009(8) 0.33131(5)
F3 F -0.07626(12) 0.03654(8) 0.23141(6)
F4 F 0.00471(12) -0.06115(8) 0.25375(6)
F5 F -0.04519(11) 0.08772(8) 0.30893(6)
F6 F 0.06491(10) 0.05031(8) 0.25671(6)
loop_
_geom_bond_atom_site_label_1
_geom_bond_atom_site_label_2
_geom_bond_site_symmetry_1
_geom_bond_site_symmetry_2
Ag1 N3 1_555 1_555
P1 N1 1_555 1_555
P2 N1 1_555 1_555
P3 N2 1_555 1_555
N2 P2 1_555 1_555
N3 P1 1_555 1_555
O1 P1 1_555 1_555
O2 P1 1_555 1_555
O3 P2 1_555 1_555
O4 P2 1_555 1_555
O5 P3 1_555 1_555
O6 P3 1_555 1_555
N4 Ag1 1_555 1_555
N5 C6 1_555 1_555
N6 C21 1_555 1_555
N7 C26 1_555 1_555
C1 O1 1_555 1_555
C2 C1 1_555 1_555
H1 C2 1_555 1_555
C3 C2 1_555 1_555
H2 C3 1_555 1_555
C4 C3 1_555 1_555
H3 C4 1_555 1_555
C5 N4 1_555 1_555
H4 C5 1_555 1_555
C6 O2 1_555 1_555
C7 C6 1_555 1_555
H5 C7 1_555 1_555
C8 C7 1_555 1_555
H6 C8 1_555 1_555
C9 C8 1_555 1_555
H7 C9 1_555 1_555
C10 N5 1_555 1_555
H8 C10 1_555 1_555
C11 O3 1_555 1_555
C12 C11 1_555 1_555
H9 C12 1_555 1_555
C13 C12 1_555 1_555
H10 C13 1_555 1_555
C14 C13 1_555 1_555
H11 C14 1_555 1_555
C15 C14 1_555 1_555
H12 C15 1_555 1_555
C16 O4 1_555 1_555
C17 C16 1_555 1_555
H13 C17 1_555 1_555
C18 C17 1_555 1_555
H14 C18 1_555 1_555
C19 C18 1_555 1_555
H15 C19 1_555 1_555
C20 C19 1_555 1_555
H16 C20 1_555 1_555
C21 O5 1_555 1_555
C22 C21 1_555 1_555
H17 C22 1_555 1_555
C23 C22 1_555 1_555
H18 C23 1_555 1_555
C24 C23 1_555 1_555
H19 C24 1_555 1_555
C25 N6 1_555 1_555
H20 C25 1_555 1_555
C26 O6 1_555 1_555
C27 C26 1_555 1_555
H21 C27 1_555 1_555
C28 C27 1_555 1_555
H22 C28 1_555 1_555
C29 C28 1_555 1_555
H23 C29 1_555 1_555
C30 N7 1_555 1_555
H24 C30 1_555 1_555
P4 F1 1_555 1_555
F2 P4 1_555 1_555
F3 P4 1_555 1_555
F4 P4 1_555 1_555
F5 P4 1_555 1_555
F6 P4 1_555 1_555
N8 C11 1_555 1_555
N9 C16 1_555 1_555
Ag1C N8 1_555 1_555
N8C Ag1 1_555 1_555
N9C Ag1 1_555 1_555
P3 N3 1_555 1_555
N4 C1 1_555 1_555
C4 C5 1_555 1_555
C9 C10 1_555 1_555
C15 N8 1_555 1_555
C20 N9 1_555 1_555
C24 C25 1_555 1_555
C29 C30 1_555 1_555
N9 Ag1C 1_555 1_555

#END
