
#######################################################################
#
#                 Cambridge Crystallographic Data Centre
#                                CCDC 
#
#######################################################################
#
# If this CIF has been generated from an entry in the Cambridge 
# Structural Database, then it will include bibliographic, chemical, 
# crystal, experimental, refinement or atomic coordinate data resulting 
# from the CCDC's data processing and validation procedures.
#
#######################################################################

data_SAVVEQ
_symmetry_cell_setting           monoclinic
_symmetry_space_group_name_H-M   'P 21/a'
_symmetry_Int_Tables_number      14
_space_group_name_Hall           '-P 2yab'
loop_
_symmetry_equiv_pos_site_id
_symmetry_equiv_pos_as_xyz
1 x,y,z
2 1/2+x,1/2-y,z
3 -x,-y,-z
4 1/2-x,1/2+y,-z
_cell_length_a                   8.041(2)
_cell_length_b                   15.768(3)
_cell_length_c                   14.549(2)
_cell_angle_alpha                90
_cell_angle_beta                 91.73(2)
_cell_angle_gamma                90
_cell_volume                     1843.83
loop_
_atom_site_label
_atom_site_type_symbol
_atom_site_fract_x
_atom_site_fract_y
_atom_site_fract_z
Cu1 Cu 0.16100(9) 0.25877(4) 0.69172(5)
Cl1 Cl 0.35341(16) 0.22274(8) 0.58785(9)
Cl2 Cl 0.05090(19) 0.29689(8) 0.83147(9)
N1 N 0.1149(5) 0.1373(2) 0.7194(3)
C1 C 0.1539(7) 0.0659(3) 0.6779(4)
H1 H 0.2165 0.0630 0.6253
C2 C 0.0904(7) -0.0042(4) 0.7220(4)
H2 H 0.1021 -0.0609 0.7056
C3 C 0.0062(6) 0.0279(3) 0.7951(4)
N2 N 0.0237(5) 0.1121(3) 0.7903(3)
H3 H 0.005(6) 0.152(3) 0.820(3)
C4 C -0.0871(6) -0.0142(3) 0.8684(3)
C5 C -0.0657(7) -0.1001(3) 0.8842(4)
H4 H 0.0051 -0.1315 0.8480
C6 C -0.1499(8) -0.1389(4) 0.9538(4)
H5 H -0.1363 -0.1968 0.9637
C7 C -0.2516(8) -0.0944(4) 1.0079(4)
H6 H -0.3061 -0.1217 1.0550
C8 C -0.2751(7) -0.0090(4) 0.9937(4)
H7 H -0.3455 0.0217 1.0309
C9 C -0.1933(6) 0.0308(4) 0.9238(4)
H8 H -0.2095 0.0885 0.9137
N3 N 0.1849(5) 0.3811(2) 0.6575(3)
C10 C 0.2504(6) 0.4198(3) 0.5869(4)
H9 H 0.3204 0.3944 0.5453
C11 C 0.2001(6) 0.5038(3) 0.5834(3)
H10 H 0.2291 0.5441 0.5401
C12 C 0.0989(6) 0.5159(3) 0.6568(3)
N4 N 0.0953(5) 0.4410(3) 0.7004(3)
H11 H 0.032(6) 0.423(3) 0.746(3)
C13 C 0.0081(6) 0.5898(3) 0.6890(3)
C14 C -0.0264(7) 0.6004(3) 0.7803(4)
H12 H 0.0145 0.5616 0.8234
C15 C -0.1216(7) 0.6684(3) 0.8086(4)
H13 H -0.1437 0.6750 0.8706
C16 C -0.1829(8) 0.7256(4) 0.7459(5)
H14 H -0.2499 0.7701 0.7646
C17 C -0.1450(7) 0.7170(3) 0.6551(5)
H15 H -0.1833 0.7570 0.6126
C18 C -0.0510(7) 0.6499(3) 0.6266(4)
H16 H -0.0268 0.6446 0.5647
Cu1A Cu 0.66100(9) 0.24123(4) 0.69172(5)
Cl1A Cl -0.14659(16) 0.27726(8) 0.58785(9)
loop_
_geom_bond_atom_site_label_1
_geom_bond_atom_site_label_2
_geom_bond_site_symmetry_1
_geom_bond_site_symmetry_2
Cu1 Cl1 1_555 1_555
Cl1 Cu1A 1_555 1_555
Cl2 Cu1 1_555 1_555
N1 Cu1 1_555 1_555
C1 N1 1_555 1_555
H1 C1 1_555 1_555
C2 C1 1_555 1_555
H2 C2 1_555 1_555
C3 C2 1_555 1_555
N2 N1 1_555 1_555
H3 N2 1_555 1_555
C4 C3 1_555 1_555
C5 C4 1_555 1_555
H4 C5 1_555 1_555
C6 C5 1_555 1_555
H5 C6 1_555 1_555
C7 C6 1_555 1_555
H6 C7 1_555 1_555
C8 C7 1_555 1_555
H7 C8 1_555 1_555
C9 C4 1_555 1_555
H8 C9 1_555 1_555
N3 Cu1 1_555 1_555
C10 N3 1_555 1_555
H9 C10 1_555 1_555
C11 C10 1_555 1_555
H10 C11 1_555 1_555
C12 C11 1_555 1_555
N4 N3 1_555 1_555
H11 N4 1_555 1_555
C13 C12 1_555 1_555
C14 C13 1_555 1_555
H12 C14 1_555 1_555
C15 C14 1_555 1_555
H13 C15 1_555 1_555
C16 C15 1_555 1_555
H14 C16 1_555 1_555
C17 C16 1_555 1_555
H15 C17 1_555 1_555
C18 C13 1_555 1_555
H16 C18 1_555 1_555
Cl1A Cu1 1_555 1_555
C3 N2 1_555 1_555
C8 C9 1_555 1_555
C12 N4 1_555 1_555
C17 C18 1_555 1_555

#END
