
#######################################################################
#
#                 Cambridge Crystallographic Data Centre
#                                CCDC 
#
#######################################################################
#
# If this CIF has been generated from an entry in the Cambridge 
# Structural Database, then it will include bibliographic, chemical, 
# crystal, experimental, refinement or atomic coordinate data resulting 
# from the CCDC's data processing and validation procedures.
#
#######################################################################

data_SAVWAO
_symmetry_cell_setting           triclinic
_symmetry_space_group_name_H-M   'P -1'
_symmetry_Int_Tables_number      2
_space_group_name_Hall           '-P 1'
loop_
_symmetry_equiv_pos_site_id
_symmetry_equiv_pos_as_xyz
1 x,y,z
2 -x,-y,-z
_cell_length_a                   9.7957(5)
_cell_length_b                   11.3068(6)
_cell_length_c                   14.1357(8)
_cell_angle_alpha                101.7550(10)
_cell_angle_beta                 104.4490(10)
_cell_angle_gamma                104.0870(10)
_cell_volume                     1411.03
loop_
_atom_site_label
_atom_site_type_symbol
_atom_site_fract_x
_atom_site_fract_y
_atom_site_fract_z
Co1 Co 0.53904(3) -0.05893(3) 0.17344(3)
Co2 Co 0.89424(4) 0.95177(3) 0.66008(3)
V1 V 0.92686(5) 0.81732(4) 0.87874(3)
V2 V 0.25596(5) 0.01572(4) -0.00501(3)
C1 C 0.5611(3) 0.1665(2) 0.32408(19)
C2 C 0.6000(3) 0.2893(2) 0.3834(2)
H1 H 0.5374 0.3143 0.4198
C3 C 0.7323(3) 0.3773(2) 0.39007(19)
C4 C 0.8192(3) 0.3347(2) 0.3345(2)
H2 H 0.9102 0.3911 0.3369
C5 C 0.7713(3) 0.2100(2) 0.2762(2)
H3 H 0.8313 0.1822 0.2387
C6 C 0.4198(3) 0.0661(2) 0.31398(19)
C7 C 0.7707(3) 0.6667(2) 0.5929(2)
H4 H 0.7410 0.6856 0.6519
C8 C 0.7316(3) 0.5414(2) 0.5380(2)
H5 H 0.6752 0.4763 0.5586
C9 C 0.7753(3) 0.5106(2) 0.4520(2)
C10 C 0.8589(3) 0.6108(2) 0.4263(2)
H6 H 0.8928 0.5945 0.3690
C11 C 0.8918(3) 0.7341(2) 0.4851(2)
H7 H 0.9479 0.8013 0.4663
C12 C 0.1394(3) -0.8123(2) -0.22750(19)
C13 C 0.2267(3) -0.6930(2) -0.16613(19)
H8 H 0.3231 -0.6574 -0.1696
C14 C 0.1719(3) -0.6251(2) -0.09893(19)
C15 C 0.0333(3) -0.6852(2) -0.0939(2)
H9 H -0.0041 -0.6455 -0.0445
C16 C -0.0503(3) -0.8035(2) -0.16125(19)
H10 H -0.1462 -0.8419 -0.1583
C17 C 0.1968(3) -0.8952(2) -0.29478(19)
C18 C 0.4016(3) -0.2813(3) -0.0154(2)
H11 H 0.4436 -0.2197 -0.0455
C19 C 0.3261(3) -0.4040(3) -0.0763(2)
H12 H 0.3207 -0.4267 -0.1459
C20 C 0.2583(3) -0.4940(2) -0.0348(2)
C21 C 0.2726(3) -0.4555(2) 0.0673(2)
H13 H 0.2271 -0.5137 0.0987
C22 C 0.3533(3) -0.3323(2) 0.1235(2)
H14 H 0.3634 -0.3081 0.1939
N1 N 0.6444(2) 0.12635(18) 0.26996(16)
N2 N 0.8486(2) 0.76365(19) 0.56741(16)
N3 N -0.0015(2) -0.86557(19) -0.23018(16)
N4 N 0.4180(2) -0.24533(19) 0.08419(16)
O1 O 0.40075(18) -0.04643(15) 0.26453(13)
O2 O 0.33365(19) 0.10145(16) 0.35692(14)
O3 O 0.10416(18) -0.99648(16) -0.35686(13)
O4 O 0.33365(18) -0.86088(16) -0.28343(13)
O5 O 0.9232(2) 0.88543(16) 0.78598(13)
O6 O 0.8664(2) 0.66360(16) 0.82956(14)
O7 O 0.1855(2) 0.13580(17) 0.04799(14)
O8 O 0.11760(19) -0.13542(17) -0.04145(14)
O9 O 0.40397(19) 0.01190(17) 0.07870(13)
O10 O 0.69846(18) -0.04547(16) 0.10514(13)
O11 O 0.8216(2) 1.02600(19) 0.53578(15)
H15 H 0.794(4) 1.093(3) 0.550(3)
H16 H 0.845(4) 1.022(4) 0.4799(19)
Co1A Co 0.46096(3) -0.94107(3) -0.17344(3)
Co2_2 Co -0.10576(4) -1.04823(3) -0.33992(3)
Co2A Co 0.10576(4) 0.04823(3) 0.33992(3)
V1A V 0.07314(5) 0.18268(4) 0.12126(3)
V1_2 V -0.07314(5) -0.18268(4) -0.12126(3)
V2A V 0.74404(5) -0.01572(4) 0.00501(3)
N3_2 N 0.9985(2) 1.13443(19) 0.76982(16)
O2A O 0.66635(19) 0.89855(16) 0.64308(14)
O3_2 O 1.10416(18) 1.00352(16) 0.64314(13)
O4A O 0.66635(18) -0.13912(16) 0.28343(13)
O7A O 0.8145(2) 0.86420(17) 0.95201(14)
O8_2 O 1.11760(19) 0.86458(17) 0.95855(14)
O10A O 0.30154(18) 0.04547(16) -0.10514(13)
O12 O 0.5439(2) 0.7636(2) 0.42261(16)
H17 H 0.584(4) 0.798(4) 0.382(3)
H18 H 0.591(4) 0.801(4) 0.4871(13)
O13 O 0.2713(2) 0.7877(2) 0.37008(18)
H19 H 0.348(3) 0.765(4) 0.396(3)
H20 H 0.288(5) 0.836(3) 0.331(3)
O14 O 0.0514(2) 0.54007(19) 0.27079(18)
H21 H 0.121(3) 0.613(2) 0.297(3)
H22 H 0.082(4) 0.487(3) 0.234(3)
O15 O 0.4748(5) 0.4921(4) 0.2809(4)
loop_
_geom_bond_atom_site_label_1
_geom_bond_atom_site_label_2
_geom_bond_site_symmetry_1
_geom_bond_site_symmetry_2
Co1 N1 1_555 1_555
Co2 N2 1_555 1_555
V1 O5 1_555 1_555
V2 O7 1_555 1_555
C1 C2 1_555 1_555
C2 H1 1_555 1_555
C3 C2 1_555 1_555
C4 C3 1_555 1_555
H2 C4 1_555 1_555
C5 C4 1_555 1_555
H3 C5 1_555 1_555
C6 C1 1_555 1_555
C7 H4 1_555 1_555
C8 C7 1_555 1_555
H5 C8 1_555 1_555
C9 C3 1_555 1_555
C10 C9 1_555 1_555
H6 C10 1_555 1_555
C11 C10 1_555 1_555
H7 C11 1_555 1_555
C12 C13 1_555 1_555
C13 H8 1_555 1_555
C14 C13 1_555 1_555
C15 C14 1_555 1_555
H9 C15 1_555 1_555
C16 C15 1_555 1_555
H10 C16 1_555 1_555
C17 C12 1_555 1_555
C18 H11 1_555 1_555
C19 C18 1_555 1_555
H12 C19 1_555 1_555
C20 C14 1_555 1_555
C21 C20 1_555 1_555
H13 C21 1_555 1_555
C22 C21 1_555 1_555
H14 C22 1_555 1_555
N1 C1 1_555 1_555
N2 C7 1_555 1_555
N3 C12 1_555 1_555
N4 Co1 1_555 1_555
O1 Co1 1_555 1_555
O2 C6 1_555 1_555
O3 C17 1_555 1_555
O4 C17 1_555 1_555
O5 Co2 1_555 1_555
O6 V1 1_555 1_555
O7 V1A 1_555 1_555
O8 V2 1_555 1_555
O9 Co1 1_555 1_555
O10 Co1 1_555 1_555
O11 Co2 1_555 1_555
H15 O11 1_555 1_555
H16 O11 1_555 1_555
O12 H17 1_555 1_555
H18 O12 1_555 1_555
O13 H19 1_555 1_555
H20 O13 1_555 1_555
O14 H21 1_555 1_555
H22 O14 1_555 1_555
Co1A O4 1_555 1_555
Co2_2 N3 1_555 1_555
Co2A O2 1_555 1_555
V1_2 O8 1_555 1_555
V2A O10 1_555 1_555
N3_2 Co2 1_555 1_555
O2A Co2 1_555 1_555
O3_2 Co2 1_555 1_555
O4A Co1 1_555 1_555
O7A V1 1_555 1_555
O8_2 V1 1_555 1_555
O10A V2 1_555 1_555
V2 O9 1_555 1_555
C5 N1 1_555 1_555
C6 O1 1_555 1_555
C8 C9 1_555 1_555
C11 N2 1_555 1_555
C16 N3 1_555 1_555
C18 N4 1_555 1_555
C19 C20 1_555 1_555
C22 N4 1_555 1_555
O3 Co2_2 1_555 1_555

#END
