
#######################################################################
#
#                 Cambridge Crystallographic Data Centre
#                                CCDC 
#
#######################################################################
#
# If this CIF has been generated from an entry in the Cambridge 
# Structural Database, then it will include bibliographic, chemical, 
# crystal, experimental, refinement or atomic coordinate data resulting 
# from the CCDC's data processing and validation procedures.
#
#######################################################################

data_SAVWES
_symmetry_cell_setting           triclinic
_symmetry_space_group_name_H-M   'P -1'
_symmetry_Int_Tables_number      2
_space_group_name_Hall           '-P 1'
loop_
_symmetry_equiv_pos_site_id
_symmetry_equiv_pos_as_xyz
1 x,y,z
2 -x,-y,-z
_cell_length_a                   9.6788(8)
_cell_length_b                   10.8844(9)
_cell_length_c                   13.9255(12)
_cell_angle_alpha                99.698(2)
_cell_angle_beta                 106.605(2)
_cell_angle_gamma                101.615(2)
_cell_volume                     1336.55
loop_
_atom_site_label
_atom_site_type_symbol
_atom_site_fract_x
_atom_site_fract_y
_atom_site_fract_z
Co1 Co 0.55013(6) -0.06340(4) 0.17888(4)
Co2 Co 0.87599(6) 0.96009(5) 0.65499(4)
V1 V 0.93417(8) 0.81809(6) 0.88030(5)
V2 V 0.26003(7) 0.02881(6) -0.00038(5)
C1 C 0.5719(4) 0.1655(4) 0.3268(3)
C2 C 0.6105(4) 0.2899(4) 0.3861(3)
H1 H 0.5487 0.3157 0.4235
C3 C 0.7404(4) 0.3780(3) 0.3912(3)
C4 C 0.8261(4) 0.3346(3) 0.3344(3)
H2 H 0.9156 0.3911 0.3355
C5 C 0.7794(4) 0.2084(3) 0.2766(3)
H3 H 0.8384 0.1796 0.2380
C6 C 0.4341(4) 0.0643(4) 0.3204(3)
C7 C 0.7690(5) 0.6667(4) 0.5936(3)
H4 H 0.7370 0.6840 0.6518
C8 C 0.7377(5) 0.5404(4) 0.5405(3)
H5 H 0.6867 0.4726 0.5627
C9 C 0.7813(4) 0.5124(3) 0.4538(3)
C10 C 0.8629(4) 0.6154(3) 0.4292(3)
H6 H 0.8995 0.6008 0.3730
C11 C 0.8902(4) 0.7393(4) 0.4872(3)
H7 H 0.9459 0.8087 0.4690
C12 C 0.1189(4) -0.8058(3) -0.2349(3)
C13 C 0.2104(5) -0.6893(3) -0.1701(3)
H8 H 0.3079 -0.6570 -0.1723
C14 C 0.1572(4) -0.6196(3) -0.1012(3)
C15 C 0.0151(5) -0.6731(4) -0.1017(3)
H9 H -0.0229 -0.6312 -0.0534
C16 C -0.0723(5) -0.7873(4) -0.1718(3)
H10 H -0.1711 -0.8205 -0.1722
C17 C 0.1785(5) -0.8900(3) -0.3016(3)
C18 C 0.3972(5) -0.2781(4) -0.0108(3)
H11 H 0.4353 -0.2129 -0.0411
C19 C 0.3145(5) -0.3976(4) -0.0738(3)
H12 H 0.2999 -0.4148 -0.1457
C20 C 0.2525(4) -0.4928(3) -0.0318(3)
C21 C 0.2809(5) -0.4647(4) 0.0730(3)
H13 H 0.2408 -0.5271 0.1048
C22 C 0.3694(4) -0.3429(4) 0.1317(3)
H14 H 0.3908 -0.3249 0.2043
N1 N 0.6550(3) 0.1254(3) 0.2726(2)
N2 N 0.8428(4) 0.7670(3) 0.5672(3)
N3 N -0.0224(4) -0.8528(3) -0.2393(2)
N4 N 0.4259(4) -0.2505(3) 0.0914(2)
O1 O 0.4180(3) -0.0487(2) 0.2719(2)
O2 O 0.3520(3) 0.1013(2) 0.3657(2)
O3 O 0.0847(3) -0.9915(2) -0.3635(2)
O4 O 0.3137(3) -0.8566(2) -0.2929(2)
O5 O 0.9164(3) 0.8931(2) 0.7856(2)
O6 O 0.9057(3) 0.6657(2) 0.8324(2)
O7 O 0.1955(3) 0.1576(2) 0.0529(2)
O8 O 0.1238(3) -0.1199(3) -0.0301(2)
O9 O 0.4139(3) 0.0193(2) 0.0831(2)
O10 O 0.7037(3) -0.0551(2) 0.1058(2)
O11 O 0.7954(4) 1.0371(3) 0.5247(2)
H15 H 0.818(5) 1.028(5) 0.472(3)
H16 H 0.722(4) 1.066(5) 0.519(4)
Co1A Co 0.44987(6) -0.93660(4) -0.17888(4)
Co2_2 Co -0.12401(6) -1.03991(5) -0.34501(4)
Co2A Co 0.12401(6) 0.03991(5) 0.34501(4)
V1A V 0.06583(8) 0.18191(6) 0.11970(5)
V1_2 V -0.06583(8) -0.18191(6) -0.11970(5)
V2A V 0.73997(7) -0.02881(6) 0.00038(5)
N3_2 N 0.9776(4) 1.1472(3) 0.7607(2)
O2A O 0.6480(3) 0.8987(2) 0.6343(2)
O3_2 O 1.0847(3) 1.0085(2) 0.6365(2)
O4A O 0.6863(3) -0.1434(2) 0.2929(2)
O7A O 0.8045(3) 0.8424(2) 0.9471(2)
O8_2 O 1.1238(3) 0.8801(3) 0.9699(2)
O10A O 0.2963(3) 0.0551(2) -0.1058(2)
O12 O 0.4106(8) 0.8216(6) 0.4278(5)
loop_
_geom_bond_atom_site_label_1
_geom_bond_atom_site_label_2
_geom_bond_site_symmetry_1
_geom_bond_site_symmetry_2
Co1 N1 1_555 1_555
Co2 N2 1_555 1_555
V1 O5 1_555 1_555
V2 O7 1_555 1_555
C1 C2 1_555 1_555
C2 H1 1_555 1_555
C3 C2 1_555 1_555
C4 C3 1_555 1_555
H2 C4 1_555 1_555
C5 C4 1_555 1_555
H3 C5 1_555 1_555
C6 C1 1_555 1_555
C7 H4 1_555 1_555
C8 C7 1_555 1_555
H5 C8 1_555 1_555
C9 C3 1_555 1_555
C10 C9 1_555 1_555
H6 C10 1_555 1_555
C11 C10 1_555 1_555
H7 C11 1_555 1_555
C12 C13 1_555 1_555
C13 H8 1_555 1_555
C14 C13 1_555 1_555
C15 C14 1_555 1_555
H9 C15 1_555 1_555
C16 C15 1_555 1_555
H10 C16 1_555 1_555
C17 C12 1_555 1_555
C18 H11 1_555 1_555
C19 C18 1_555 1_555
H12 C19 1_555 1_555
C20 C14 1_555 1_555
C21 C20 1_555 1_555
H13 C21 1_555 1_555
C22 C21 1_555 1_555
H14 C22 1_555 1_555
N1 C1 1_555 1_555
N2 C7 1_555 1_555
N3 C12 1_555 1_555
N4 Co1 1_555 1_555
O1 Co1 1_555 1_555
O2 C6 1_555 1_555
O3 C17 1_555 1_555
O4 C17 1_555 1_555
O5 Co2 1_555 1_555
O6 V1 1_555 1_555
O7 V1A 1_555 1_555
O8 V2 1_555 1_555
O9 Co1 1_555 1_555
O10 Co1 1_555 1_555
O11 Co2 1_555 1_555
H15 O11 1_555 1_555
H16 O11 1_555 1_555
Co1A O4 1_555 1_555
Co2_2 N3 1_555 1_555
Co2A O2 1_555 1_555
V1_2 O8 1_555 1_555
V2A O10 1_555 1_555
N3_2 Co2 1_555 1_555
O2A Co2 1_555 1_555
O3_2 Co2 1_555 1_555
O4A Co1 1_555 1_555
O7A V1 1_555 1_555
O8_2 V1 1_555 1_555
O10A V2 1_555 1_555
V2 O9 1_555 1_555
C5 N1 1_555 1_555
C6 O1 1_555 1_555
C8 C9 1_555 1_555
C11 N2 1_555 1_555
C16 N3 1_555 1_555
C18 N4 1_555 1_555
C19 C20 1_555 1_555
C22 N4 1_555 1_555
O3 Co2_2 1_555 1_555

#END
