
#######################################################################
#
#                 Cambridge Crystallographic Data Centre
#                                CCDC 
#
#######################################################################
#
# If this CIF has been generated from an entry in the Cambridge 
# Structural Database, then it will include bibliographic, chemical, 
# crystal, experimental, refinement or atomic coordinate data resulting 
# from the CCDC's data processing and validation procedures.
#
#######################################################################

data_SAVWAO01
_symmetry_cell_setting           triclinic
_symmetry_space_group_name_H-M   'P -1'
_symmetry_Int_Tables_number      2
_space_group_name_Hall           '-P 1'
loop_
_symmetry_equiv_pos_site_id
_symmetry_equiv_pos_as_xyz
1 x,y,z
2 -x,-y,-z
_cell_length_a                   9.7941(6)
_cell_length_b                   11.2958(7)
_cell_length_c                   14.1310(9)
_cell_angle_alpha                101.7280(10)
_cell_angle_beta                 104.4470(10)
_cell_angle_gamma                104.0540(10)
_cell_volume                     1409.48
loop_
_atom_site_label
_atom_site_type_symbol
_atom_site_fract_x
_atom_site_fract_y
_atom_site_fract_z
Co1 Co 0.53894(4) -0.05925(4) 0.17348(3)
Co2 Co 0.89396(5) 0.95165(4) 0.65987(3)
V1 V 0.92694(6) 0.81736(5) 0.87849(4)
V2 V 0.25615(6) 0.01586(5) -0.00481(4)
C1 C 0.5611(3) 0.1662(3) 0.3239(3)
C2 C 0.6000(4) 0.2892(3) 0.3833(3)
H1 H 0.5373 0.3142 0.4196
C3 C 0.7322(3) 0.3774(3) 0.3900(3)
C4 C 0.8185(4) 0.3344(3) 0.3343(3)
H2 H 0.9096 0.3908 0.3366
C5 C 0.7710(3) 0.2102(3) 0.2759(3)
H3 H 0.8311 0.1826 0.2383
C6 C 0.4198(3) 0.0658(3) 0.3139(3)
C7 C 0.7707(3) 0.6670(3) 0.5926(3)
H4 H 0.7407 0.6858 0.6514
C8 C 0.7323(4) 0.5421(3) 0.5378(3)
H5 H 0.6764 0.4771 0.5589
C9 C 0.7749(3) 0.5104(3) 0.4516(3)
C10 C 0.8588(4) 0.6108(3) 0.4264(3)
H6 H 0.8932 0.5946 0.3693
C11 C 0.8913(4) 0.7331(3) 0.4847(3)
H7 H 0.9473 0.8001 0.4655
C12 C 0.1390(3) -0.8125(3) -0.2274(2)
C13 C 0.2256(4) -0.6939(3) -0.1661(3)
H8 H 0.3222 -0.6585 -0.1693
C14 C 0.1711(4) -0.6255(3) -0.0991(3)
C15 C 0.0325(3) -0.6861(3) -0.0946(3)
H9 H -0.0056 -0.6463 -0.0456
C16 C -0.0498(3) -0.8036(3) -0.1610(2)
H10 H -0.1454 -0.8423 -0.1576
C17 C 0.1963(3) -0.8956(3) -0.2948(3)
C18 C 0.4021(4) -0.2814(3) -0.0149(3)
H11 H 0.4441 -0.2198 -0.0450
C19 C 0.3271(4) -0.4042(3) -0.0757(3)
H12 H 0.3228 -0.4269 -0.1451
C20 C 0.2577(3) -0.4946(3) -0.0348(3)
C21 C 0.2725(4) -0.4555(3) 0.0671(3)
H13 H 0.2270 -0.5134 0.0987
C22 C 0.3536(4) -0.3322(3) 0.1230(3)
H14 H 0.3637 -0.3082 0.1935
N1 N 0.6437(3) 0.1260(2) 0.2696(2)
N2 N 0.8486(3) 0.7639(2) 0.5671(2)
N3 N -0.0015(3) -0.8658(2) -0.2301(2)
N4 N 0.4181(3) -0.2454(3) 0.0845(2)
O1 O 0.4009(2) -0.0466(2) 0.26429(17)
O2 O 0.3337(2) 0.1017(2) 0.35671(18)
O3 O 0.1040(2) -0.9970(2) -0.35714(17)
O4 O 0.3336(2) -0.8610(2) -0.28322(17)
O5 O 0.9234(2) 0.8852(2) 0.78588(17)
O6 O 0.8667(3) 0.6636(2) 0.82929(19)
O7 O 0.1862(2) 0.1360(2) 0.04822(18)
O8 O 0.1175(2) -0.1351(2) -0.04131(18)
O9 O 0.4038(2) 0.0115(2) 0.07856(18)
O10 O 0.6984(2) -0.0456(2) 0.10485(17)
O11 O 0.8213(3) 1.0262(2) 0.53586(19)
H15 H 0.794(6) 1.095(3) 0.553(4)
H16 H 0.846(6) 1.023(5) 0.479(2)
Co1A Co 0.46106(4) -0.94075(4) -0.17348(3)
Co2_2 Co -0.10604(5) -1.04835(4) -0.34013(3)
Co2A Co 0.10604(5) 0.04835(4) 0.34013(3)
V1A V 0.07306(6) 0.18264(5) 0.12151(4)
V1_2 V -0.07306(6) -0.18264(5) -0.12151(4)
V2A V 0.74385(6) -0.01586(5) 0.00481(4)
N3_2 N 0.9985(3) 1.1342(2) 0.7699(2)
O2A O 0.6663(2) 0.8983(2) 0.64329(18)
O3_2 O 1.1040(2) 1.0030(2) 0.64286(17)
O4A O 0.6664(2) -0.1390(2) 0.28322(17)
O7A O 0.8138(2) 0.8640(2) 0.95178(18)
O8_2 O 1.1175(2) 0.8649(2) 0.95869(18)
O10A O 0.3016(2) 0.0456(2) -0.10485(17)
O12 O 0.5438(3) 0.7637(3) 0.4225(2)
H17 H 0.583(5) 0.790(5) 0.377(3)
H18 H 0.589(5) 0.808(5) 0.4878(18)
O13 O 0.2714(3) 0.7869(3) 0.3701(2)
H19 H 0.357(4) 0.772(5) 0.396(4)
H20 H 0.296(6) 0.841(4) 0.334(4)
O14 O 0.0516(3) 0.5403(3) 0.2708(2)
H21 H 0.127(4) 0.612(3) 0.299(4)
H22 H 0.084(6) 0.484(4) 0.237(4)
O15 O 0.4748(6) 0.4918(6) 0.2801(5)
loop_
_geom_bond_atom_site_label_1
_geom_bond_atom_site_label_2
_geom_bond_site_symmetry_1
_geom_bond_site_symmetry_2
Co1 N1 1_555 1_555
Co2 N2 1_555 1_555
V1 O5 1_555 1_555
V2 O7 1_555 1_555
C1 C2 1_555 1_555
C2 H1 1_555 1_555
C3 C2 1_555 1_555
C4 C3 1_555 1_555
H2 C4 1_555 1_555
C5 C4 1_555 1_555
H3 C5 1_555 1_555
C6 C1 1_555 1_555
C7 H4 1_555 1_555
C8 C7 1_555 1_555
H5 C8 1_555 1_555
C9 C3 1_555 1_555
C10 C9 1_555 1_555
H6 C10 1_555 1_555
C11 C10 1_555 1_555
H7 C11 1_555 1_555
C12 C13 1_555 1_555
C13 H8 1_555 1_555
C14 C13 1_555 1_555
C15 C14 1_555 1_555
H9 C15 1_555 1_555
C16 C15 1_555 1_555
H10 C16 1_555 1_555
C17 C12 1_555 1_555
C18 H11 1_555 1_555
C19 C18 1_555 1_555
H12 C19 1_555 1_555
C20 C14 1_555 1_555
C21 C20 1_555 1_555
H13 C21 1_555 1_555
C22 C21 1_555 1_555
H14 C22 1_555 1_555
N1 C1 1_555 1_555
N2 C7 1_555 1_555
N3 C12 1_555 1_555
N4 Co1 1_555 1_555
O1 Co1 1_555 1_555
O2 C6 1_555 1_555
O3 C17 1_555 1_555
O4 C17 1_555 1_555
O5 Co2 1_555 1_555
O6 V1 1_555 1_555
O7 V1A 1_555 1_555
O8 V2 1_555 1_555
O9 Co1 1_555 1_555
O10 Co1 1_555 1_555
O11 Co2 1_555 1_555
H15 O11 1_555 1_555
H16 O11 1_555 1_555
O12 H17 1_555 1_555
H18 O12 1_555 1_555
O13 H19 1_555 1_555
H20 O13 1_555 1_555
O14 H21 1_555 1_555
H22 O14 1_555 1_555
Co1A O4 1_555 1_555
Co2_2 N3 1_555 1_555
Co2A O2 1_555 1_555
V1_2 O8 1_555 1_555
V2A O10 1_555 1_555
N3_2 Co2 1_555 1_555
O2A Co2 1_555 1_555
O3_2 Co2 1_555 1_555
O4A Co1 1_555 1_555
O7A V1 1_555 1_555
O8_2 V1 1_555 1_555
O10A V2 1_555 1_555
V2 O9 1_555 1_555
C5 N1 1_555 1_555
C6 O1 1_555 1_555
C8 C9 1_555 1_555
C11 N2 1_555 1_555
C16 N3 1_555 1_555
C18 N4 1_555 1_555
C19 C20 1_555 1_555
C22 N4 1_555 1_555
O3 Co2_2 1_555 1_555

#END
