
#######################################################################
#
#                 Cambridge Crystallographic Data Centre
#                                CCDC 
#
#######################################################################
#
# If this CIF has been generated from an entry in the Cambridge 
# Structural Database, then it will include bibliographic, chemical, 
# crystal, experimental, refinement or atomic coordinate data resulting 
# from the CCDC's data processing and validation procedures.
#
#######################################################################

data_SAVWAO02
_symmetry_cell_setting           triclinic
_symmetry_space_group_name_H-M   'P -1'
_symmetry_Int_Tables_number      2
_space_group_name_Hall           '-P 1'
loop_
_symmetry_equiv_pos_site_id
_symmetry_equiv_pos_as_xyz
1 x,y,z
2 -x,-y,-z
_cell_length_a                   9.7987(8)
_cell_length_b                   11.2701(10)
_cell_length_c                   14.2000(12)
_cell_angle_alpha                101.799(2)
_cell_angle_beta                 104.251(2)
_cell_angle_gamma                103.899(2)
_cell_volume                     1416.29
loop_
_atom_site_label
_atom_site_type_symbol
_atom_site_fract_x
_atom_site_fract_y
_atom_site_fract_z
Co1 Co 0.53903(6) -0.05970(5) 0.17250(4)
Co2 Co 0.89251(6) 0.95167(5) 0.66072(4)
V1 V 0.92806(8) 0.81843(7) 0.87877(6)
V2 V 0.25732(8) 0.01868(7) -0.00333(6)
C1 C 0.5599(4) 0.1656(4) 0.3218(3)
C2 C 0.5986(5) 0.2883(4) 0.3814(3)
H1 H 0.5370 0.3124 0.4169
C3 C 0.7296(5) 0.3766(4) 0.3887(3)
C4 C 0.8163(5) 0.3351(4) 0.3338(4)
H2 H 0.9053 0.3907 0.3366
C5 C 0.7693(5) 0.2100(4) 0.2746(3)
H3 H 0.8284 0.1832 0.2380
C6 C 0.4196(5) 0.0653(4) 0.3121(3)
C7 C 0.7697(5) 0.6656(4) 0.5928(3)
H4 H 0.7409 0.6833 0.6505
C8 C 0.7311(5) 0.5406(4) 0.5367(3)
H5 H 0.6761 0.4763 0.5564
C9 C 0.7735(5) 0.5104(4) 0.4512(3)
C10 C 0.8569(5) 0.6098(4) 0.4275(4)
H6 H 0.8907 0.5943 0.3718
C11 C 0.8904(5) 0.7332(4) 0.4867(4)
H7 H 0.9463 0.7991 0.4689
C12 C 0.1372(5) -0.8131(4) -0.2267(3)
C13 C 0.2247(5) -0.6945(4) -0.1645(3)
H8 H 0.3195 -0.6602 -0.1672
C14 C 0.1693(5) -0.6269(4) -0.0979(3)
C15 C 0.0309(5) -0.6850(4) -0.0936(3)
H9 H -0.0057 -0.6458 -0.0455
C16 C -0.0533(5) -0.8026(4) -0.1618(3)
H10 H -0.1479 -0.8396 -0.1600
C17 C 0.1966(5) -0.8961(4) -0.2931(3)
C18 C 0.3999(5) -0.2825(4) -0.0126(4)
H11 H 0.4410 -0.2222 -0.0419
C19 C 0.3215(6) -0.4060(4) -0.0738(4)
H12 H 0.3132 -0.4275 -0.1422
C20 C 0.2566(5) -0.4952(4) -0.0326(4)
C21 C 0.2748(5) -0.4586(4) 0.0686(4)
H13 H 0.2326 -0.5159 0.0999
C22 C 0.3570(5) -0.3345(4) 0.1240(4)
H14 H 0.3694 -0.3113 0.1930
N1 N 0.6431(4) 0.1266(3) 0.2679(3)
N2 N 0.8468(4) 0.7623(3) 0.5676(3)
N3 N -0.0031(4) -0.8642(3) -0.2298(3)
N4 N 0.4182(4) -0.2479(3) 0.0856(3)
O1 O 0.4022(3) -0.0472(2) 0.2631(2)
O2 O 0.3334(3) 0.0998(3) 0.3552(2)
O3 O 0.1031(3) -0.9970(3) -0.3556(2)
O4 O 0.3316(3) -0.8616(3) -0.2823(2)
O5 O 0.9232(3) 0.8860(3) 0.7863(2)
O6 O 0.8760(4) 0.6649(3) 0.8319(2)
O7 O 0.1899(3) 0.1405(3) 0.0511(2)
O8 O 0.1166(3) -0.1310(3) -0.0401(2)
O9 O 0.4031(3) 0.0108(3) 0.0780(2)
O10 O 0.6968(3) -0.0485(3) 0.1027(2)
O11 O 0.8216(3) 1.0252(3) 0.5358(2)
H15 H 0.7935 1.0927 0.5500
H16 H 0.8454 1.0212 0.4799
Co1A Co 0.46097(6) -0.94030(5) -0.17250(4)
Co2_2 Co -0.10749(6) -1.04833(5) -0.33928(4)
Co2A Co 0.10749(6) 0.04833(5) 0.33928(4)
V1A V 0.07194(8) 0.18157(7) 0.12123(6)
V1_2 V -0.07194(8) -0.18157(7) -0.12123(6)
V2A V 0.74268(8) -0.01868(7) 0.00333(6)
N3_2 N 0.9969(4) 1.1358(3) 0.7702(3)
O2A O 0.6666(3) 0.9002(3) 0.6448(2)
O3_2 O 1.1031(3) 1.0030(3) 0.6444(2)
O4A O 0.6684(3) -0.1384(3) 0.2823(2)
O7A O 0.8101(3) 0.8595(3) 0.9489(2)
O8_2 O 1.1166(3) 0.8690(3) 0.9599(2)
O10A O 0.3032(3) 0.0485(3) -0.1027(2)
O12 O 0.5419(4) 0.7669(4) 0.4224(3)
H17 H 0.5820 0.8017 0.3820
H18 H 0.5892 0.8042 0.4869
O13 O 0.2692(5) 0.7836(4) 0.3788(4)
H19 H 0.3463 0.7608 0.4052
H20 H 0.2859 0.8323 0.3393
O14 O 0.0527(4) 0.5410(4) 0.2701(3)
H21 H 0.1219 0.6141 0.2965
H22 H 0.0838 0.4877 0.2337
O15 O 0.4717(13) 0.4869(12) 0.2721(10)
loop_
_geom_bond_atom_site_label_1
_geom_bond_atom_site_label_2
_geom_bond_site_symmetry_1
_geom_bond_site_symmetry_2
Co1 N1 1_555 1_555
Co2 N2 1_555 1_555
V1 O5 1_555 1_555
V2 O7 1_555 1_555
C1 C2 1_555 1_555
C2 H1 1_555 1_555
C3 C2 1_555 1_555
C4 C3 1_555 1_555
H2 C4 1_555 1_555
C5 C4 1_555 1_555
H3 C5 1_555 1_555
C6 C1 1_555 1_555
C7 H4 1_555 1_555
C8 C7 1_555 1_555
H5 C8 1_555 1_555
C9 C3 1_555 1_555
C10 C9 1_555 1_555
H6 C10 1_555 1_555
C11 C10 1_555 1_555
H7 C11 1_555 1_555
C12 C13 1_555 1_555
C13 H8 1_555 1_555
C14 C13 1_555 1_555
C15 C14 1_555 1_555
H9 C15 1_555 1_555
C16 C15 1_555 1_555
H10 C16 1_555 1_555
C17 C12 1_555 1_555
C18 H11 1_555 1_555
C19 C18 1_555 1_555
H12 C19 1_555 1_555
C20 C14 1_555 1_555
C21 C20 1_555 1_555
H13 C21 1_555 1_555
C22 C21 1_555 1_555
H14 C22 1_555 1_555
N1 C1 1_555 1_555
N2 C7 1_555 1_555
N3 C12 1_555 1_555
N4 Co1 1_555 1_555
O1 Co1 1_555 1_555
O2 C6 1_555 1_555
O3 C17 1_555 1_555
O4 C17 1_555 1_555
O5 Co2 1_555 1_555
O6 V1 1_555 1_555
O7 V1A 1_555 1_555
O8 V2 1_555 1_555
O9 Co1 1_555 1_555
O10 Co1 1_555 1_555
O11 Co2 1_555 1_555
H15 O11 1_555 1_555
H16 O11 1_555 1_555
O12 H17 1_555 1_555
H18 O12 1_555 1_555
O13 H19 1_555 1_555
H20 O13 1_555 1_555
O14 H21 1_555 1_555
H22 O14 1_555 1_555
Co1A O4 1_555 1_555
Co2_2 N3 1_555 1_555
Co2A O2 1_555 1_555
V1_2 O8 1_555 1_555
V2A O10 1_555 1_555
N3_2 Co2 1_555 1_555
O2A Co2 1_555 1_555
O3_2 Co2 1_555 1_555
O4A Co1 1_555 1_555
O7A V1 1_555 1_555
O8_2 V1 1_555 1_555
O10A V2 1_555 1_555
V2 O9 1_555 1_555
C5 N1 1_555 1_555
C6 O1 1_555 1_555
C8 C9 1_555 1_555
C11 N2 1_555 1_555
C16 N3 1_555 1_555
C18 N4 1_555 1_555
C19 C20 1_555 1_555
C22 N4 1_555 1_555
O3 Co2_2 1_555 1_555

#END
