
#######################################################################
#
#                 Cambridge Crystallographic Data Centre
#                                CCDC 
#
#######################################################################
#
# If this CIF has been generated from an entry in the Cambridge 
# Structural Database, then it will include bibliographic, chemical, 
# crystal, experimental, refinement or atomic coordinate data resulting 
# from the CCDC's data processing and validation procedures.
#
#######################################################################

data_SAVWIW
_symmetry_cell_setting           triclinic
_symmetry_space_group_name_H-M   'P -1'
_symmetry_Int_Tables_number      2
_space_group_name_Hall           '-P 1'
loop_
_symmetry_equiv_pos_site_id
_symmetry_equiv_pos_as_xyz
1 x,y,z
2 -x,-y,-z
_cell_length_a                   9.6775(9)
_cell_length_b                   10.3376(9)
_cell_length_c                   13.7956(13)
_cell_angle_alpha                76.531(2)
_cell_angle_beta                 75.321(2)
_cell_angle_gamma                82.387(2)
_cell_volume                     1294.41
loop_
_atom_site_label
_atom_site_type_symbol
_atom_site_fract_x
_atom_site_fract_y
_atom_site_fract_z
Co1 Co 0.09849(7) -0.56052(6) 0.81440(5)
Co2 Co 0.34379(7) 0.45778(6) 0.32588(5)
V1 V 0.47343(9) 0.31244(8) 0.10252(7)
V2 V 0.23707(9) -0.47857(8) 1.00904(7)
C1 C 0.2436(5) -0.3508(5) 0.6587(4)
C2 C 0.2816(6) -0.2283(5) 0.5961(4)
H1 H 0.3771 -0.2180 0.5571
C3 C 0.1787(5) -0.1215(5) 0.5910(4)
C4 C 0.0397(6) -0.1455(5) 0.6456(4)
H2 H -0.0349 -0.0762 0.6414
C5 C 0.0096(6) -0.2700(5) 0.7063(4)
H3 H -0.0858 -0.2841 0.7442
C6 C 0.3538(6) -0.4677(5) 0.6715(4)
C7 C 0.3556(5) 0.1529(5) 0.3847(4)
H4 H 0.4263 0.1608 0.3221
C8 C 0.3195(6) 0.0265(5) 0.4384(4)
H5 H 0.3639 -0.0501 0.4126
C9 C 0.2184(6) 0.0135(5) 0.5295(4)
C10 C 0.1580(6) 0.1278(5) 0.5638(4)
H6 H 0.0893 0.1222 0.6272
C11 C 0.1981(6) 0.2503(5) 0.5052(4)
H7 H 0.1540 0.3283 0.5291
C12 C 0.1933(5) -1.2978(5) 1.2392(4)
C13 C 0.1513(5) -1.1809(5) 1.1789(4)
H8 H 0.0527 -1.1515 1.1857
C14 C 0.2564(5) -1.1064(5) 1.1075(4)
C15 C 0.3975(5) -1.1494(5) 1.1045(4)
H9 H 0.4717 -1.1000 1.0577
C16 C 0.4304(5) -1.2671(5) 1.1714(4)
H10 H 0.5283 -1.2957 1.1695
C17 C 0.0849(6) -1.3911(5) 1.3071(4)
C18 C 0.0732(6) -0.7756(5) 1.0079(4)
H11 H 0.0051 -0.7107 1.0353
C19 C 0.1096(5) -0.8903(5) 1.0739(4)
H12 H 0.0641 -0.9046 1.1447
C20 C 0.2114(5) -0.9834(5) 1.0371(4)
C21 C 0.2677(5) -0.9620(5) 0.9329(4)
H13 H 0.3353 -1.0262 0.9041
C22 C 0.2248(5) -0.8458(5) 0.8704(4)
H14 H 0.2644 -0.8322 0.7986
N1 N 0.1109(4) -0.3711(4) 0.7131(3)
N2 N 0.2961(4) 0.2643(4) 0.4165(3)
N3 N 0.3306(4) -1.3405(4) 1.2374(3)
N4 N 0.1299(4) -0.7521(4) 0.9069(3)
O1 O 0.3107(3) -0.5735(3) 0.7323(3)
O2 O 0.4804(4) -0.4497(3) 0.6216(3)
O3 O 0.1327(4) -1.4930(3) 1.3637(3)
O4 O -0.0429(4) -1.3641(3) 1.3019(3)
O5 O 0.4310(4) 0.3912(3) 0.1990(3)
O6 O 0.4630(4) 0.1538(3) 0.1475(3)
O7 O 0.3488(4) -0.3429(3) 0.9730(3)
O8 O 0.3446(3) -0.6316(3) 1.0250(3)
O9 O 0.1566(3) -0.4760(3) 0.9171(3)
O10 O -0.1147(3) -0.5338(3) 0.8840(3)
Co1A Co -0.09849(7) -1.43948(6) 1.18560(5)
Co2_2 Co 0.34379(7) -1.54222(6) 1.32588(5)
Co2A Co 0.65621(7) -0.45778(6) 0.67412(5)
V1A V 0.52657(9) -0.31244(8) 0.89748(7)
V1_2 V 0.47343(9) -0.68756(8) 1.10252(7)
V2A V -0.23707(9) -0.52143(8) 0.99096(7)
N3_2 N 0.3306(4) 0.6595(4) 0.2374(3)
O2A O 0.5196(4) 0.4497(3) 0.3784(3)
O3_2 O 0.1327(4) 0.5070(3) 0.3637(3)
O4A O 0.0429(4) -0.6359(3) 0.6981(3)
O7A O 0.6512(4) 0.3429(3) 0.0270(3)
O8_2 O 0.3446(3) 0.3684(3) 0.0250(3)
O10A O 0.1147(3) -0.4662(3) 1.1160(3)
loop_
_geom_bond_atom_site_label_1
_geom_bond_atom_site_label_2
_geom_bond_site_symmetry_1
_geom_bond_site_symmetry_2
Co1 N1 1_555 1_555
Co2 N2 1_555 1_555
V1 O5 1_555 1_555
V2 O7 1_555 1_555
C1 C2 1_555 1_555
C2 H1 1_555 1_555
C3 C2 1_555 1_555
C4 C3 1_555 1_555
H2 C4 1_555 1_555
C5 C4 1_555 1_555
H3 C5 1_555 1_555
C6 C1 1_555 1_555
C7 H4 1_555 1_555
C8 C7 1_555 1_555
H5 C8 1_555 1_555
C9 C3 1_555 1_555
C10 C9 1_555 1_555
H6 C10 1_555 1_555
C11 C10 1_555 1_555
H7 C11 1_555 1_555
C12 C13 1_555 1_555
C13 H8 1_555 1_555
C14 C13 1_555 1_555
C15 C14 1_555 1_555
H9 C15 1_555 1_555
C16 C15 1_555 1_555
H10 C16 1_555 1_555
C17 C12 1_555 1_555
C18 H11 1_555 1_555
C19 C18 1_555 1_555
H12 C19 1_555 1_555
C20 C14 1_555 1_555
C21 C20 1_555 1_555
H13 C21 1_555 1_555
C22 C21 1_555 1_555
H14 C22 1_555 1_555
N1 C1 1_555 1_555
N2 C7 1_555 1_555
N3 C12 1_555 1_555
N4 Co1 1_555 1_555
O1 Co1 1_555 1_555
O2 C6 1_555 1_555
O3 C17 1_555 1_555
O4 C17 1_555 1_555
O5 Co2 1_555 1_555
O6 V1 1_555 1_555
O7 V1A 1_555 1_555
O8 V2 1_555 1_555
O9 Co1 1_555 1_555
O10 Co1 1_555 1_555
Co1A O4 1_555 1_555
Co2_2 N3 1_555 1_555
Co2A O2 1_555 1_555
V1_2 O8 1_555 1_555
V2A O10 1_555 1_555
N3_2 Co2 1_555 1_555
O2A Co2 1_555 1_555
O3_2 Co2 1_555 1_555
O4A Co1 1_555 1_555
O7A V1 1_555 1_555
O8_2 V1 1_555 1_555
O10A V2 1_555 1_555
V2 O9 1_555 1_555
C5 N1 1_555 1_555
C6 O1 1_555 1_555
C8 C9 1_555 1_555
C11 N2 1_555 1_555
C16 N3 1_555 1_555
C18 N4 1_555 1_555
C19 C20 1_555 1_555
C22 N4 1_555 1_555
O3 Co2_2 1_555 1_555

#END
