
#######################################################################
#
#                 Cambridge Crystallographic Data Centre
#                                CCDC 
#
#######################################################################
#
# If this CIF has been generated from an entry in the Cambridge 
# Structural Database, then it will include bibliographic, chemical, 
# crystal, experimental, refinement or atomic coordinate data resulting 
# from the CCDC's data processing and validation procedures.
#
#######################################################################

data_SAWBAU
_symmetry_cell_setting           triclinic
_symmetry_space_group_name_H-M   'P -1'
_symmetry_Int_Tables_number      2
_space_group_name_Hall           '-P 1'
loop_
_symmetry_equiv_pos_site_id
_symmetry_equiv_pos_as_xyz
1 x,y,z
2 -x,-y,-z
_cell_length_a                   7.859(3)
_cell_length_b                   7.902(3)
_cell_length_c                   7.993(3)
_cell_angle_alpha                106.786(6)
_cell_angle_beta                 95.475(5)
_cell_angle_gamma                113.452(5)
_cell_volume                     423.285
loop_
_atom_site_label
_atom_site_type_symbol
_atom_site_fract_x
_atom_site_fract_y
_atom_site_fract_z
Y1 Y 0.57046(7) 0.79907(7) 0.26853(7)
O1 O 0.6432(7) 0.8780(7) 0.0022(6)
O2 O 0.5897(6) 1.0199(6) -0.1878(6)
C1 C 0.5682(8) 0.9716(9) -0.0524(8)
O3 O 0.3478(7) 0.7809(7) 0.4370(6)
O4 O 0.1859(7) 0.8718(7) 0.6265(7)
C2 C 0.2099(8) 0.7412(9) 0.5120(8)
C3 C 0.0724(9) 0.5316(10) 0.4613(9)
H1 H 0.0874 0.4381 0.3703
O5 O 0.8215(6) 0.7287(7) 0.2038(6)
O6 O 0.6591(7) 0.4427(8) -0.0217(7)
C4 C 0.8114(8) 0.5824(9) 0.0799(8)
C5 C 0.9945(9) 0.5780(10) 0.0545(9)
H2 H 1.1077 0.6907 0.1183
O7 O 0.4855(8) 0.4820(7) 0.3056(7)
H3 H 0.5770 0.4760 0.3635
H4 H 0.3736 0.4364 0.3189
O8 O 0.7506(7) 0.8567(7) 0.5614(6)
H5 H 0.8707 0.8985 0.5764
H6 H 0.7097 0.8998 0.6511
Y1A Y 0.42954(7) 1.20093(7) -0.26853(7)
Y1A_2 Y 0.42954(7) 1.20093(7) 0.73147(7)
Y1A_3 Y 0.42954(7) 0.20093(7) -0.26853(7)
Y1A_4 Y -0.57046(7) 0.20093(7) 0.73147(7)
Y1_2 Y -0.42954(7) -0.20093(7) 0.26853(7)
Y1A_5 Y 1.42954(7) 0.20093(7) -0.26853(7)
Y1_3 Y 1.57046(7) 0.79907(7) 0.26853(7)
O1A O 0.3568(7) 1.1220(7) -0.0022(6)
O2A O 0.4103(6) 0.9801(6) 0.1878(6)
C1A C 0.4318(8) 1.0284(9) 0.0524(8)
O3A O -0.3478(7) 0.2191(7) 0.5630(6)
O3A_2 O 0.6522(7) 1.2191(7) -0.4370(6)
O4A O -0.1859(7) 0.1282(7) 0.3735(7)
O4A_2 O 0.8141(7) 1.1282(7) 0.3735(7)
O4_2 O 0.1859(7) 0.8718(7) -0.3735(7)
C2A C -0.2099(8) 0.2588(9) 0.4880(8)
C3A C -0.0724(9) 0.4684(10) 0.5387(9)
H1A H -0.0874 0.5619 0.6297
O5A O 1.1785(6) 0.2713(7) -0.2038(6)
O5A_2 O 0.1785(6) 1.2713(7) -0.2038(6)
O6A O 1.3409(7) 0.5573(8) 0.0217(7)
O6A_2 O 0.3409(7) 0.5573(8) 0.0217(7)
O6_2 O 0.6591(7) 1.4427(8) -0.0217(7)
C4A C 1.1886(8) 0.4176(9) -0.0799(8)
C5A C 1.0055(9) 0.4220(10) -0.0545(9)
H2A H 0.8923 0.3093 -0.1183
O7A O 0.5145(8) 1.5180(7) -0.3056(7)
H3A H 0.4230 1.5240 -0.3635
H4A H 0.6264 1.5636 -0.3189
O8A O 0.2494(7) 1.1433(7) -0.5614(6)
H5A H 0.1293 1.1015 -0.5764
H6A H 0.2903 1.1002 -0.6511
O9 O 0.928(5) 0.834(5) 0.864(5)
H7 H 1.0256 0.9330 0.9518
H8 H 0.9855 0.7951 0.7850
loop_
_geom_bond_atom_site_label_1
_geom_bond_atom_site_label_2
_geom_bond_site_symmetry_1
_geom_bond_site_symmetry_2
Y1 O1 1_555 1_555
O1 C1 1_555 1_555
O2 C1 1_555 1_555
C1 C1A 1_555 1_555
O3 Y1 1_555 1_555
O4 C2 1_555 1_555
C2 O3 1_555 1_555
C3 C2 1_555 1_555
H1 C3 1_555 1_555
O5 Y1 1_555 1_555
O6 C4 1_555 1_555
C4 O5 1_555 1_555
C5 C4 1_555 1_555
H2 C5 1_555 1_555
O7 Y1 1_555 1_555
H3 O7 1_555 1_555
H4 O7 1_555 1_555
O8 Y1 1_555 1_555
H5 O8 1_555 1_555
H6 O8 1_555 1_555
O9 H7 1_555 1_555
H8 O9 1_555 1_555
Y1A O2 1_555 1_555
Y1A_2 O4 1_555 1_555
Y1A_3 O6 1_555 1_555
Y1A_4 O3A 1_555 1_555
Y1_2 O4A 1_555 1_555
Y1A_5 O5A 1_555 1_555
Y1_3 O6A 1_555 1_555
O1A Y1A 1_555 1_555
O2A Y1 1_555 1_555
C1A O1A 1_555 1_555
O3A C2A 1_555 1_555
O3A_2 Y1A 1_555 1_555
O4A C2A 1_555 1_555
O4A_2 Y1 1_555 1_555
O4_2 Y1A 1_555 1_555
C2A C3A 1_555 1_555
C3A C3 1_555 1_555
H1A C3A 1_555 1_555
O5A C4A 1_555 1_555
O5A_2 Y1A 1_555 1_555
O6A C4A 1_555 1_555
O6A_2 Y1 1_555 1_555
O6_2 Y1A 1_555 1_555
C4A C5A 1_555 1_555
C5A C5 1_555 1_555
H2A C5A 1_555 1_555
O7A Y1A 1_555 1_555
H3A O7A 1_555 1_555
H4A O7A 1_555 1_555
O8A Y1A 1_555 1_555
H5A O8A 1_555 1_555
H6A O8A 1_555 1_555
O2A C1A 1_555 1_555

#END
