
#######################################################################
#
#                 Cambridge Crystallographic Data Centre
#                                CCDC 
#
#######################################################################
#
# If this CIF has been generated from an entry in the Cambridge 
# Structural Database, then it will include bibliographic, chemical, 
# crystal, experimental, refinement or atomic coordinate data resulting 
# from the CCDC's data processing and validation procedures.
#
#######################################################################

data_SAWJOQ
_symmetry_cell_setting           monoclinic
_symmetry_space_group_name_H-M   'C 2/c'
_symmetry_Int_Tables_number      15
_space_group_name_Hall           '-C 2yn'
loop_
_symmetry_equiv_pos_site_id
_symmetry_equiv_pos_as_xyz
1 x,y,z
2 1/2+x,1/2+y,z
3 -x,y,1/2-z
4 1/2-x,1/2+y,1/2-z
5 -x,-y,-z
6 1/2-x,1/2-y,-z
7 x,-y,1/2+z
8 1/2+x,1/2-y,1/2+z
_cell_length_a                   33.839(5)
_cell_length_b                   5.6356(9)
_cell_length_c                   17.580(3)
_cell_angle_alpha                90
_cell_angle_beta                 116.787(3)
_cell_angle_gamma                90
_cell_volume                     2992.79
loop_
_atom_site_label
_atom_site_type_symbol
_atom_site_fract_x
_atom_site_fract_y
_atom_site_fract_z
Cu1 Cu 0.36472(2) 0.38837(11) 0.28057(4)
N1 N 0.32435(13) 0.3274(7) 0.3320(2)
N2 N 0.40865(13) 0.1351(8) 0.3468(2)
O1 O 0.39925(12) 0.4689(7) 0.2186(2)
O2 O 0.33582(11) 0.7029(6) 0.2391(2)
O3 O 0.31753(12) 1.1719(6) 0.1457(2)
O4 O 0.36354(15) 1.1415(8) 0.0376(3)
O5 O 0.42231(14) 0.7237(8) 0.0939(3)
C1 C 0.29738(16) 0.1420(9) 0.3134(3)
H1 H 0.2952 0.0398 0.2702
C2 C 0.27254(16) 0.0955(10) 0.3557(3)
H2 H 0.2544 -0.0378 0.3412
C3 C 0.27424(16) 0.2458(9) 0.4201(3)
C4 C 0.30141(17) 0.4415(9) 0.4369(3)
H3 H 0.3036 0.5497 0.4785
C5 C 0.32539(17) 0.4766(10) 0.3919(3)
H4 H 0.3432 0.6109 0.4038
C6 C 0.24898(17) 0.1862(9) 0.4673(3)
H5 H 0.2308 0.0532 0.4506
C7 C 0.40781(16) 0.0105(10) 0.4118(3)
H6 H 0.3863 0.0492 0.4289
C8 C 0.43646(16) -0.1676(10) 0.4539(3)
H7 H 0.4344 -0.2447 0.4987
C9 C 0.46864(16) -0.2345(9) 0.4302(3)
C10 C 0.47095(18) -0.1038(10) 0.3654(3)
H8 H 0.4930 -0.1359 0.3489
C11 C 0.44063(17) 0.0730(10) 0.3256(3)
H9 H 0.4424 0.1546 0.2812
C12 C 0.49969(17) -0.4261(9) 0.4704(3)
H10 H 0.5215 -0.4477 0.4528
C13 C 0.38356(16) 0.6585(9) 0.1771(3)
C14 C 0.35085(16) 0.7856(9) 0.1895(3)
C15 C 0.34031(16) 1.0057(10) 0.1419(3)
C16 C 0.36602(17) 0.9963(10) 0.0890(4)
C17 C 0.39494(18) 0.7819(10) 0.1169(3)
Cu1E Cu 0.13528(2) 0.11163(11) 0.71943(4)
Cu1_2 Cu 0.36472(2) 1.38837(11) 0.28057(4)
Cu1D Cu 0.63528(2) -1.38837(11) 0.71943(4)
Cu1_3 Cu 0.36472(2) -0.61163(11) 0.28057(4)
N1E N 0.17565(13) 0.1726(7) 0.6680(2)
N2D N 0.59135(13) -1.1351(8) 0.6532(2)
N2E N 0.09135(13) 0.3649(8) 0.6532(2)
O1_2 O 0.39925(12) -0.5311(7) 0.2186(2)
O1E O 0.10075(12) 0.0311(7) 0.7814(2)
O2_2 O 0.33582(11) -0.2971(6) 0.2391(2)
O2E O 0.16418(11) -0.2029(6) 0.7609(2)
O3_2 O 0.31753(12) 0.1719(6) 0.1457(2)
O3E O 0.18247(12) 0.3281(6) 0.8543(2)
O4_2 O 0.36354(15) 0.1415(8) 0.0376(3)
O5_2 O 0.42231(14) -0.2763(8) 0.0939(3)
C1E C 0.20262(16) 0.3580(9) 0.6866(3)
H1E H 0.2048 0.4602 0.7298
C2E C 0.22746(16) 0.4045(10) 0.6443(3)
H2E H 0.2456 0.5378 0.6588
C3E C 0.22576(16) 0.2542(9) 0.5799(3)
C4E C 0.19859(17) 0.0585(9) 0.5631(3)
H3E H 0.1964 -0.0497 0.5215
C5E C 0.17461(17) 0.0234(10) 0.6081(3)
H4E H 0.1568 -0.1109 0.5962
C6E C 0.25102(17) 0.3138(9) 0.5327(3)
H5E H 0.2692 0.4468 0.5494
C7D C 0.59219(16) -1.0105(10) 0.5882(3)
H6D H 0.6137 -1.0492 0.5711
C8D C 0.56354(16) -0.8324(10) 0.5461(3)
H7D H 0.5656 -0.7553 0.5013
C9D C 0.53136(16) -0.7655(9) 0.5698(3)
C10D C 0.52905(18) -0.8962(10) 0.6346(3)
H8D H 0.5070 -0.8641 0.6511
C11D C 0.55937(17) -1.0730(10) 0.6744(3)
H9D H 0.5576 -1.1546 0.7188
C12D C 0.50031(17) -0.5739(9) 0.5296(3)
H10D H 0.4785 -0.5523 0.5472
C13_2 C 0.38356(16) -0.3415(9) 0.1771(3)
C14_2 C 0.35085(16) -0.2144(9) 0.1895(3)
C15_2 C 0.34031(16) 0.0057(10) 0.1419(3)
C16_2 C 0.36602(17) -0.0037(10) 0.0890(4)
C17_2 C 0.39494(18) -0.2181(10) 0.1169(3)
O6 O 0.5000 0.3756(18) 0.2500
H11 H 0.4834 0.4640 0.2652
H11B H 0.5166 0.4640 0.2348
loop_
_geom_bond_atom_site_label_1
_geom_bond_atom_site_label_2
_geom_bond_site_symmetry_1
_geom_bond_site_symmetry_2
Cu1 N1 1_555 1_555
N1 C1 1_555 1_555
N2 Cu1 1_555 1_555
O1 Cu1 1_555 1_555
O2 Cu1 1_555 1_555
O3 C15 1_555 1_555
O4 C16 1_555 1_555
O5 C17 1_555 1_555
C1 H1 1_555 1_555
C2 C1 1_555 1_555
H2 C2 1_555 1_555
C3 C2 1_555 1_555
C4 C3 1_555 1_555
H3 C4 1_555 1_555
C5 N1 1_555 1_555
H4 C5 1_555 1_555
C6 C3 1_555 1_555
H5 C6 1_555 1_555
C7 N2 1_555 1_555
H6 C7 1_555 1_555
C8 C7 1_555 1_555
H7 C8 1_555 1_555
C9 C8 1_555 1_555
C10 C9 1_555 1_555
H8 C10 1_555 1_555
C11 N2 1_555 1_555
H9 C11 1_555 1_555
C12 C9 1_555 1_555
H10 C12 1_555 1_555
C13 O1 1_555 1_555
C14 O2 1_555 1_555
C15 C14 1_555 1_555
C16 C15 1_555 1_555
C17 C13 1_555 1_555
O6 H11 1_555 1_555
Cu1E N1E 1_555 1_555
Cu1_2 O3 1_555 1_555
Cu1D N2D 1_555 1_555
Cu1_3 O1_2 1_555 1_555
N1E C1E 1_555 1_555
N2D C7D 1_555 1_555
N2E Cu1E 1_555 1_555
O1_2 C13_2 1_555 1_555
O1E Cu1E 1_555 1_555
O2_2 Cu1_3 1_555 1_555
O2E Cu1E 1_555 1_555
O3_2 Cu1 1_555 1_555
O3E Cu1E 1_555 1_555
O4_2 C16_2 1_555 1_555
O5_2 C17_2 1_555 1_555
C1E H1E 1_555 1_555
C2E C1E 1_555 1_555
H2E C2E 1_555 1_555
C3E C2E 1_555 1_555
C4E C3E 1_555 1_555
H3E C4E 1_555 1_555
C5E N1E 1_555 1_555
H4E C5E 1_555 1_555
C6E C6 1_555 1_555
H5E C6E 1_555 1_555
C7D H6D 1_555 1_555
C8D C7D 1_555 1_555
H7D C8D 1_555 1_555
C9D C8D 1_555 1_555
C10D C9D 1_555 1_555
H8D C10D 1_555 1_555
C11D N2D 1_555 1_555
H9D C11D 1_555 1_555
C12D C12 1_555 1_555
H10D C12D 1_555 1_555
C13_2 C14_2 1_555 1_555
C14_2 O2_2 1_555 1_555
C15_2 O3_2 1_555 1_555
C16_2 C15_2 1_555 1_555
C17_2 C13_2 1_555 1_555
H11B O6 1_555 1_555
C4 C5 1_555 1_555
C10 C11 1_555 1_555
C13 C14 1_555 1_555
C16 C17 1_555 1_555
C3E C6E 1_555 1_555
C4E C5E 1_555 1_555
C9D C12D 1_555 1_555
C10D C11D 1_555 1_555
C14_2 C15_2 1_555 1_555
C16_2 C17_2 1_555 1_555

#END
