
#######################################################################
#
#                 Cambridge Crystallographic Data Centre
#                                CCDC 
#
#######################################################################
#
# If this CIF has been generated from an entry in the Cambridge 
# Structural Database, then it will include bibliographic, chemical, 
# crystal, experimental, refinement or atomic coordinate data resulting 
# from the CCDC's data processing and validation procedures.
#
#######################################################################

data_SAWJIK
_symmetry_cell_setting           triclinic
_symmetry_space_group_name_H-M   'P -1'
_symmetry_Int_Tables_number      2
_space_group_name_Hall           '-P 1'
loop_
_symmetry_equiv_pos_site_id
_symmetry_equiv_pos_as_xyz
1 x,y,z
2 -x,-y,-z
_cell_length_a                   13.4415(11)
_cell_length_b                   14.8653(12)
_cell_length_c                   18.7182(16)
_cell_angle_alpha                72.018(1)
_cell_angle_beta                 71.597(1)
_cell_angle_gamma                69.434(1)
_cell_volume                     3239.25
loop_
_atom_site_label
_atom_site_type_symbol
_atom_site_fract_x
_atom_site_fract_y
_atom_site_fract_z
C61 C -0.0199(3) -0.3952(3) 0.3387(2)
H37 H -0.0756 -0.4172 0.3847
Cl1 Cl 0.08442(9) -0.38484(8) 0.37192(7)
Cl2 Cl -0.08394(8) -0.27912(8) 0.28825(6)
Cl3 Cl 0.03348(12) -0.48392(9) 0.28267(7)
C62 C -0.3136(4) 0.2804(3) 0.1990(2)
H38 H -0.3908 0.2873 0.2295
Cl4 Cl -0.29712(10) 0.23630(9) 0.11770(6)
Cl5 Cl -0.22654(10) 0.19564(10) 0.25837(8)
Cl6 Cl -0.29012(16) 0.39666(11) 0.17223(8)
Zn1 Zn -0.64259(3) -0.13462(2) 0.424200(19)
Zn2 Zn 0.0000 0.0000 0.0000
C1 C -0.7970(2) -0.2581(2) 0.53302(17)
C2 C -0.8247(3) -0.3468(2) 0.54036(18)
H1 H -0.8875 -0.3655 0.5737
C3 C -0.7446(3) -0.3980(2) 0.49101(18)
H2 H -0.7402 -0.4595 0.4831
C4 C -0.6667(2) -0.3410(2) 0.45241(17)
C5 C -0.5707(2) -0.3693(2) 0.39609(17)
C6 C -0.4945(2) -0.3159(2) 0.35717(18)
C7 C -0.3972(3) -0.3456(2) 0.29803(19)
H3 H -0.3707 -0.4064 0.2823
C8 C -0.3518(3) -0.2706(2) 0.26991(19)
H4 H -0.2871 -0.2686 0.2304
C9 C -0.4194(2) -0.1928(2) 0.31068(17)
C10 C -0.4034(2) -0.0998(2) 0.29597(17)
C11 C -0.4675(2) -0.0261(2) 0.33637(17)
C12 C -0.4480(3) 0.0695(2) 0.32147(19)
H5 H -0.3902 0.0917 0.2837
C13 C -0.5275(3) 0.1201(2) 0.37134(19)
H6 H -0.5361 0.1848 0.3751
C14 C -0.5967(2) 0.0583(2) 0.41777(17)
C15 C -0.6914(2) 0.0864(2) 0.47418(17)
C16 C -0.7633(2) 0.0289(2) 0.51717(17)
C17 C -0.8560(2) 0.0554(2) 0.57910(17)
H7 H -0.8798 0.1144 0.5971
C18 C -0.9027(2) -0.0188(2) 0.60673(18)
H8 H -0.9651 -0.0223 0.6482
C19 C -0.8397(2) -0.0926(2) 0.56121(16)
C20 C -0.8627(2) -0.1820(2) 0.57185(17)
N1 N -0.70089(19) -0.25640(17) 0.47922(14)
N2 N -0.50442(19) -0.22359(18) 0.36508(14)
N3 N -0.55894(19) -0.03068(17) 0.39565(14)
N4 N -0.7552(2) -0.06212(18) 0.50768(14)
C21 C -0.5515(2) -0.4641(2) 0.37432(18)
C22 C -0.6130(3) -0.4710(3) 0.3306(2)
H9 H -0.6686 -0.4152 0.3133
C23 C -0.5931(3) -0.5600(3) 0.3119(2)
H10 H -0.6370 -0.5630 0.2821
N5 N -0.5166(2) -0.6412(2) 0.33301(18)
C24 C -0.4577(3) -0.6338(2) 0.3753(2)
H11 H -0.4022 -0.6907 0.3913
C25 C -0.4722(3) -0.5489(2) 0.39729(19)
H12 H -0.4281 -0.5484 0.4280
C26 C -0.3138(2) -0.0746(2) 0.22946(17)
C27 C -0.2275(3) -0.0524(2) 0.23847(18)
H13 H -0.2217 -0.0560 0.2886
C28 C -0.1497(2) -0.0249(2) 0.17424(17)
H14 H -0.0910 -0.0102 0.1819
N6 N -0.1525(2) -0.01758(18) 0.10134(14)
C29 C -0.2364(3) -0.0388(2) 0.09263(18)
H15 H -0.2403 -0.0340 0.0417
C30 C -0.3180(3) -0.0674(3) 0.15383(18)
H16 H -0.3758 -0.0818 0.1447
C31 C -0.7221(2) 0.1884(2) 0.48671(17)
C32 C -0.8154(3) 0.2588(2) 0.46673(19)
H17 H -0.8607 0.2424 0.4456
C33 C -0.8414(3) 0.3531(2) 0.47804(19)
H18 H -0.9053 0.4001 0.4639
N7 N -0.7821(2) 0.38197(19) 0.50766(16)
C34 C -0.6922(3) 0.3132(2) 0.52645(18)
H19 H -0.6484 0.3316 0.5475
C35 C -0.6594(2) 0.2179(2) 0.51717(17)
H20 H -0.5948 0.1727 0.5314
C36 C -0.9659(2) -0.1959(2) 0.62823(17)
C37 C -0.9645(3) -0.2721(2) 0.69404(17)
H21 H -0.8971 -0.3169 0.7038
C38 C -1.0620(3) -0.2819(2) 0.74484(19)
H22 H -1.0595 -0.3338 0.7897
N8 N -1.1603(2) -0.2221(2) 0.73434(16)
C39 C -1.1608(3) -0.1490(2) 0.67092(18)
H23 H -1.2293 -0.1057 0.6620
C40 C -1.0668(2) -0.1334(2) 0.61769(17)
H24 H -1.0715 -0.0799 0.5740
C41 C -0.1372(2) 0.1299(2) -0.11961(17)
C42 C -0.1807(3) 0.2318(2) -0.15642(18)
H25 H -0.2214 0.2550 -0.1950
C43 C -0.1525(3) 0.2874(2) -0.12541(18)
H26 H -0.1690 0.3572 -0.1384
C44 C -0.0927(2) 0.2209(2) -0.06881(17)
C45 C -0.0429(2) 0.2484(2) -0.02591(17)
C46 C 0.0145(2) 0.1860(2) 0.03026(17)
C47 C 0.0553(3) 0.2183(2) 0.07785(18)
H27 H 0.0488 0.2845 0.0763
C48 C 0.1045(3) 0.1368(2) 0.12514(18)
H28 H 0.1371 0.1351 0.1640
C49 C 0.0978(2) 0.0527(2) 0.10501(17)
C50 C -0.1427(2) 0.0472(2) -0.13860(16)
N9 N -0.08690(19) 0.12601(17) -0.06502(14)
N10 N 0.04046(19) 0.08463(17) 0.04887(14)
C51 C -0.0453(3) 0.3545(2) -0.04554(18)
C52 C -0.1402(3) 0.4306(2) -0.0348(2)
H29 H -0.2087 0.4168 -0.0120
C53 C -0.1349(4) 0.5269(3) -0.0574(2)
H30 H -0.2011 0.5780 -0.0494
N11 N -0.0423(4) 0.5518(2) -0.0895(2)
C54 C 0.0496(4) 0.4788(3) -0.0995(2)
H31 H 0.1168 0.4952 -0.1217
C55 C 0.0524(3) 0.3800(3) -0.0792(2)
H32 H 0.1198 0.3306 -0.0881
C56 C -0.1931(2) 0.0661(2) -0.20413(17)
C57 C -0.2865(2) 0.0386(2) -0.19492(17)
H33 H -0.3228 0.0096 -0.1452
C58 C -0.3252(2) 0.0540(2) -0.25899(18)
H34 H -0.3884 0.0344 -0.2519
N12 N -0.2784(2) 0.09513(18) -0.33090(14)
C59 C -0.1907(2) 0.1232(2) -0.33924(17)
H35 H -0.1570 0.1530 -0.3896
C60 C -0.1463(2) 0.1112(2) -0.27860(17)
H36 H -0.0844 0.1335 -0.2874
Zn1A Zn 0.64259(3) 0.13462(2) -0.424200(19)
Zn1A_2 Zn -0.35741(3) 0.13462(2) -0.424200(19)
Zn1_2 Zn 0.35741(3) -0.13462(2) 0.424200(19)
C1A C 0.7970(2) 0.2581(2) -0.53302(17)
C2A C 0.8247(3) 0.3468(2) -0.54036(18)
H1A H 0.8875 0.3655 -0.5737
C3A C 0.7446(3) 0.3980(2) -0.49101(18)
H2A H 0.7402 0.4595 -0.4831
C4A C 0.6667(2) 0.3410(2) -0.45241(17)
C5A C 0.5707(2) 0.3693(2) -0.39609(17)
C6A C 0.4945(2) 0.3159(2) -0.35717(18)
C7A C 0.3972(3) 0.3456(2) -0.29803(19)
H3A H 0.3707 0.4064 -0.2823
C8A C 0.3518(3) 0.2706(2) -0.26991(19)
H4A H 0.2871 0.2686 -0.2304
C9A C 0.4194(2) 0.1928(2) -0.31068(17)
C10A C 0.4034(2) 0.0998(2) -0.29597(17)
C11A C 0.4675(2) 0.0261(2) -0.33637(17)
C12A C 0.4480(3) -0.0695(2) -0.32147(19)
H5A H 0.3902 -0.0917 -0.2837
C13A C 0.5275(3) -0.1201(2) -0.37134(19)
H6A H 0.5361 -0.1848 -0.3751
C14A C 0.5967(2) -0.0583(2) -0.41777(17)
C15A C 0.6914(2) -0.0864(2) -0.47418(17)
C16A C 0.7633(2) -0.0289(2) -0.51717(17)
C17A C 0.8560(2) -0.0554(2) -0.57910(17)
H7A H 0.8798 -0.1144 -0.5971
C18A C 0.9027(2) 0.0188(2) -0.60673(18)
H8A H 0.9651 0.0223 -0.6482
C19A C 0.8397(2) 0.0926(2) -0.56121(16)
C20A C 0.8627(2) 0.1820(2) -0.57185(17)
N1A N 0.70089(19) 0.25640(17) -0.47922(14)
N2A N 0.50442(19) 0.22359(18) -0.36508(14)
N3A N 0.55894(19) 0.03068(17) -0.39565(14)
N4A N 0.7552(2) 0.06212(18) -0.50768(14)
C21A C 0.5515(2) 0.4641(2) -0.37432(18)
C22A C 0.6130(3) 0.4710(3) -0.3306(2)
H9A H 0.6686 0.4152 -0.3133
C23A C 0.5931(3) 0.5600(3) -0.3119(2)
H10A H 0.6370 0.5630 -0.2821
N5A N 0.5166(2) 0.6412(2) -0.33301(18)
C24A C 0.4577(3) 0.6338(2) -0.3753(2)
H11A H 0.4022 0.6907 -0.3913
C25A C 0.4722(3) 0.5489(2) -0.39729(19)
H12A H 0.4281 0.5484 -0.4280
C26A C 0.3138(2) 0.0746(2) -0.22946(17)
C27A C 0.2275(3) 0.0524(2) -0.23847(18)
H13A H 0.2217 0.0560 -0.2886
C28A C 0.1497(2) 0.0249(2) -0.17424(17)
H14A H 0.0910 0.0102 -0.1819
N6A N 0.1525(2) 0.01758(18) -0.10134(14)
C29A C 0.2364(3) 0.0388(2) -0.09263(18)
H15A H 0.2403 0.0340 -0.0417
C30A C 0.3180(3) 0.0674(3) -0.15383(18)
H16A H 0.3758 0.0818 -0.1447
C31A C 0.7221(2) -0.1884(2) -0.48671(17)
C32A C 0.8154(3) -0.2588(2) -0.46673(19)
H17A H 0.8607 -0.2424 -0.4456
C33A C 0.8414(3) -0.3531(2) -0.47804(19)
H18A H 0.9053 -0.4001 -0.4639
N7A N 0.7821(2) -0.38197(19) -0.50766(16)
C34A C 0.6922(3) -0.3132(2) -0.52645(18)
H19A H 0.6484 -0.3316 -0.5475
C35A C 0.6594(2) -0.2179(2) -0.51717(17)
H20A H 0.5948 -0.1727 -0.5314
C36A C 0.9659(2) 0.1959(2) -0.62823(17)
C37A C 0.9645(3) 0.2721(2) -0.69404(17)
H21A H 0.8971 0.3169 -0.7038
C38A C 1.0620(3) 0.2819(2) -0.74484(19)
H22A H 1.0595 0.3338 -0.7897
N8A N 1.1603(2) 0.2221(2) -0.73434(16)
C39A C 1.1608(3) 0.1490(2) -0.67092(18)
H23A H 1.2293 0.1057 -0.6620
C40A C 1.0668(2) 0.1334(2) -0.61769(17)
H24A H 1.0715 0.0799 -0.5740
C41A C 0.1372(2) -0.1299(2) 0.11961(17)
C42A C 0.1807(3) -0.2318(2) 0.15642(18)
H25A H 0.2214 -0.2550 0.1950
C43A C 0.1525(3) -0.2874(2) 0.12541(18)
H26A H 0.1690 -0.3572 0.1384
C44A C 0.0927(2) -0.2209(2) 0.06881(17)
C45A C 0.0429(2) -0.2484(2) 0.02591(17)
C46A C -0.0145(2) -0.1860(2) -0.03026(17)
C47A C -0.0553(3) -0.2183(2) -0.07785(18)
H27A H -0.0488 -0.2845 -0.0763
C48A C -0.1045(3) -0.1368(2) -0.12514(18)
H28A H -0.1371 -0.1351 -0.1640
C49A C -0.0978(2) -0.0527(2) -0.10501(17)
C50A C 0.1427(2) -0.0472(2) 0.13860(16)
N9A N 0.08690(19) -0.12601(17) 0.06502(14)
N10A N -0.04046(19) -0.08463(17) -0.04887(14)
C51A C 0.0453(3) -0.3545(2) 0.04554(18)
C52A C 0.1402(3) -0.4306(2) 0.0348(2)
H29A H 0.2087 -0.4168 0.0120
C53A C 0.1349(4) -0.5269(3) 0.0574(2)
H30A H 0.2011 -0.5780 0.0494
N11A N 0.0423(4) -0.5518(2) 0.0895(2)
C54A C -0.0496(4) -0.4788(3) 0.0995(2)
H31A H -0.1168 -0.4952 0.1217
C55A C -0.0524(3) -0.3800(3) 0.0792(2)
H32A H -0.1198 -0.3306 0.0881
C56A C 0.1931(2) -0.0661(2) 0.20413(17)
C57A C 0.2865(2) -0.0386(2) 0.19492(17)
H33A H 0.3228 -0.0096 0.1452
C58A C 0.3252(2) -0.0540(2) 0.25899(18)
H34A H 0.3884 -0.0344 0.2519
N12A N 0.2784(2) -0.09513(18) 0.33090(14)
N12A_2 N -0.7216(2) -0.09513(18) 0.33090(14)
N12_2 N 0.7216(2) 0.09513(18) -0.33090(14)
C59A C 0.1907(2) -0.1232(2) 0.33924(17)
H35A H 0.1570 -0.1530 0.3896
C60A C 0.1463(2) -0.1112(2) 0.27860(17)
H36A H 0.0844 -0.1335 0.2874
loop_
_geom_bond_atom_site_label_1
_geom_bond_atom_site_label_2
_geom_bond_site_symmetry_1
_geom_bond_site_symmetry_2
Zn1 N1 1_555 1_555
Zn2 N6 1_555 1_555
C1 C2 1_555 1_555
C2 H1 1_555 1_555
C3 C2 1_555 1_555
H2 C3 1_555 1_555
C4 C3 1_555 1_555
C5 C4 1_555 1_555
C6 C5 1_555 1_555
C7 C6 1_555 1_555
H3 C7 1_555 1_555
C8 C7 1_555 1_555
H4 C8 1_555 1_555
C9 C8 1_555 1_555
C10 C9 1_555 1_555
C11 C10 1_555 1_555
C12 C11 1_555 1_555
H5 C12 1_555 1_555
C13 C12 1_555 1_555
H6 C13 1_555 1_555
C14 C13 1_555 1_555
C15 C14 1_555 1_555
C16 C15 1_555 1_555
C17 C16 1_555 1_555
H7 C17 1_555 1_555
C18 C17 1_555 1_555
H8 C18 1_555 1_555
C19 C18 1_555 1_555
C20 C1 1_555 1_555
N1 C1 1_555 1_555
N2 Zn1 1_555 1_555
N3 Zn1 1_555 1_555
N4 Zn1 1_555 1_555
C21 C5 1_555 1_555
C22 C21 1_555 1_555
H9 C22 1_555 1_555
C23 C22 1_555 1_555
H10 C23 1_555 1_555
N5 C23 1_555 1_555
C24 N5 1_555 1_555
H11 C24 1_555 1_555
C25 C21 1_555 1_555
H12 C25 1_555 1_555
C26 C10 1_555 1_555
C27 C26 1_555 1_555
H13 C27 1_555 1_555
C28 C27 1_555 1_555
H14 C28 1_555 1_555
N6 C28 1_555 1_555
C29 N6 1_555 1_555
H15 C29 1_555 1_555
C30 C26 1_555 1_555
H16 C30 1_555 1_555
C31 C15 1_555 1_555
C32 C31 1_555 1_555
H17 C32 1_555 1_555
C33 C32 1_555 1_555
H18 C33 1_555 1_555
N7 C33 1_555 1_555
C34 N7 1_555 1_555
H19 C34 1_555 1_555
C35 C31 1_555 1_555
H20 C35 1_555 1_555
C36 C20 1_555 1_555
C37 C36 1_555 1_555
H21 C37 1_555 1_555
C38 C37 1_555 1_555
H22 C38 1_555 1_555
N8 C38 1_555 1_555
C39 N8 1_555 1_555
H23 C39 1_555 1_555
C40 C36 1_555 1_555
H24 C40 1_555 1_555
C41 C42 1_555 1_555
C42 H25 1_555 1_555
C43 C42 1_555 1_555
H26 C43 1_555 1_555
C44 C43 1_555 1_555
C45 C44 1_555 1_555
C46 C45 1_555 1_555
C47 C46 1_555 1_555
H27 C47 1_555 1_555
C48 C47 1_555 1_555
H28 C48 1_555 1_555
C49 C48 1_555 1_555
C50 C41 1_555 1_555
N9 Zn2 1_555 1_555
N10 Zn2 1_555 1_555
C51 C45 1_555 1_555
C52 C51 1_555 1_555
H29 C52 1_555 1_555
C53 C52 1_555 1_555
H30 C53 1_555 1_555
N11 C53 1_555 1_555
C54 N11 1_555 1_555
H31 C54 1_555 1_555
C55 C51 1_555 1_555
H32 C55 1_555 1_555
C56 C50 1_555 1_555
C57 C56 1_555 1_555
H33 C57 1_555 1_555
C58 C57 1_555 1_555
H34 C58 1_555 1_555
N12 C58 1_555 1_555
C59 N12 1_555 1_555
H35 C59 1_555 1_555
C60 C56 1_555 1_555
H36 C60 1_555 1_555
C61 H37 1_555 1_555
Cl1 C61 1_555 1_555
Cl2 C61 1_555 1_555
Cl3 C61 1_555 1_555
C62 H38 1_555 1_555
Cl4 C62 1_555 1_555
Cl5 C62 1_555 1_555
Cl6 C62 1_555 1_555
Zn1A N1A 1_555 1_555
Zn1A_2 N12 1_555 1_555
Zn1_2 N12A 1_555 1_555
C1A C2A 1_555 1_555
C2A H1A 1_555 1_555
C3A C2A 1_555 1_555
H2A C3A 1_555 1_555
C4A C3A 1_555 1_555
C5A C4A 1_555 1_555
C6A C5A 1_555 1_555
C7A C6A 1_555 1_555
H3A C7A 1_555 1_555
C8A C7A 1_555 1_555
H4A C8A 1_555 1_555
C9A C8A 1_555 1_555
C10A C9A 1_555 1_555
C11A C10A 1_555 1_555
C12A C11A 1_555 1_555
H5A C12A 1_555 1_555
C13A C12A 1_555 1_555
H6A C13A 1_555 1_555
C14A C13A 1_555 1_555
C15A C14A 1_555 1_555
C16A C15A 1_555 1_555
C17A C16A 1_555 1_555
H7A C17A 1_555 1_555
C18A C17A 1_555 1_555
H8A C18A 1_555 1_555
C19A C18A 1_555 1_555
C20A C1A 1_555 1_555
N1A C1A 1_555 1_555
N2A Zn1A 1_555 1_555
N3A Zn1A 1_555 1_555
N4A Zn1A 1_555 1_555
C21A C5A 1_555 1_555
C22A C21A 1_555 1_555
H9A C22A 1_555 1_555
C23A C22A 1_555 1_555
H10A C23A 1_555 1_555
N5A C23A 1_555 1_555
C24A N5A 1_555 1_555
H11A C24A 1_555 1_555
C25A C21A 1_555 1_555
H12A C25A 1_555 1_555
C26A C10A 1_555 1_555
C27A C26A 1_555 1_555
H13A C27A 1_555 1_555
C28A C27A 1_555 1_555
H14A C28A 1_555 1_555
N6A Zn2 1_555 1_555
C29A N6A 1_555 1_555
H15A C29A 1_555 1_555
C30A C26A 1_555 1_555
H16A C30A 1_555 1_555
C31A C15A 1_555 1_555
C32A C31A 1_555 1_555
H17A C32A 1_555 1_555
C33A C32A 1_555 1_555
H18A C33A 1_555 1_555
N7A C33A 1_555 1_555
C34A N7A 1_555 1_555
H19A C34A 1_555 1_555
C35A C31A 1_555 1_555
H20A C35A 1_555 1_555
C36A C20A 1_555 1_555
C37A C36A 1_555 1_555
H21A C37A 1_555 1_555
C38A C37A 1_555 1_555
H22A C38A 1_555 1_555
N8A C38A 1_555 1_555
C39A N8A 1_555 1_555
H23A C39A 1_555 1_555
C40A C36A 1_555 1_555
H24A C40A 1_555 1_555
C41A C42A 1_555 1_555
C42A H25A 1_555 1_555
C43A C42A 1_555 1_555
H26A C43A 1_555 1_555
C44A C43A 1_555 1_555
C45A C44A 1_555 1_555
C46A C45A 1_555 1_555
C47A C46A 1_555 1_555
H27A C47A 1_555 1_555
C48A C47A 1_555 1_555
H28A C48A 1_555 1_555
C49A C50 1_555 1_555
C50A C49 1_555 1_555
N9A Zn2 1_555 1_555
N10A Zn2 1_555 1_555
C51A C45A 1_555 1_555
C52A C51A 1_555 1_555
H29A C52A 1_555 1_555
C53A C52A 1_555 1_555
H30A C53A 1_555 1_555
N11A C53A 1_555 1_555
C54A N11A 1_555 1_555
H31A C54A 1_555 1_555
C55A C51A 1_555 1_555
H32A C55A 1_555 1_555
C56A C50A 1_555 1_555
C57A C56A 1_555 1_555
H33A C57A 1_555 1_555
C58A C57A 1_555 1_555
H34A C58A 1_555 1_555
N12A C58A 1_555 1_555
N12A_2 Zn1 1_555 1_555
N12_2 Zn1A 1_555 1_555
C59A N12A 1_555 1_555
H35A C59A 1_555 1_555
C60A C56A 1_555 1_555
H36A C60A 1_555 1_555
C4 N1 1_555 1_555
C6 N2 1_555 1_555
C9 N2 1_555 1_555
C11 N3 1_555 1_555
C14 N3 1_555 1_555
C16 N4 1_555 1_555
C19 C20 1_555 1_555
C19 N4 1_555 1_555
C24 C25 1_555 1_555
C29 C30 1_555 1_555
C34 C35 1_555 1_555
C39 C40 1_555 1_555
C41 N9 1_555 1_555
C44 N9 1_555 1_555
C46 N10 1_555 1_555
C49 N10 1_555 1_555
C54 C55 1_555 1_555
C59 C60 1_555 1_555
C4A N1A 1_555 1_555
C6A N2A 1_555 1_555
C9A N2A 1_555 1_555
C11A N3A 1_555 1_555
C14A N3A 1_555 1_555
C16A N4A 1_555 1_555
C19A C20A 1_555 1_555
C19A N4A 1_555 1_555
C24A C25A 1_555 1_555
C28A N6A 1_555 1_555
C29A C30A 1_555 1_555
C34A C35A 1_555 1_555
C39A C40A 1_555 1_555
C41A C50A 1_555 1_555
C41A N9A 1_555 1_555
C44A N9A 1_555 1_555
C46A N10A 1_555 1_555
C48A C49A 1_555 1_555
C49A N10A 1_555 1_555
C54A C55A 1_555 1_555
C59A C60A 1_555 1_555

#END
