
#######################################################################
#
#                 Cambridge Crystallographic Data Centre
#                                CCDC 
#
#######################################################################
#
# If this CIF has been generated from an entry in the Cambridge 
# Structural Database, then it will include bibliographic, chemical, 
# crystal, experimental, refinement or atomic coordinate data resulting 
# from the CCDC's data processing and validation procedures.
#
#######################################################################

data_SAWKEH
_symmetry_cell_setting           monoclinic
_symmetry_space_group_name_H-M   'C 2/c'
_symmetry_Int_Tables_number      15
_space_group_name_Hall           '-C 2yn'
loop_
_symmetry_equiv_pos_site_id
_symmetry_equiv_pos_as_xyz
1 x,y,z
2 1/2+x,1/2+y,z
3 -x,y,1/2-z
4 1/2-x,1/2+y,1/2-z
5 -x,-y,-z
6 1/2-x,1/2-y,-z
7 x,-y,1/2+z
8 1/2+x,1/2-y,1/2+z
_cell_length_a                   22.5563(10)
_cell_length_b                   17.1001(10)
_cell_length_c                   11.3279(10)
_cell_angle_alpha                90
_cell_angle_beta                 108.512(10)
_cell_angle_gamma                90
_cell_volume                     4143.26
loop_
_atom_site_label
_atom_site_type_symbol
_atom_site_fract_x
_atom_site_fract_y
_atom_site_fract_z
Ag1 Ag 0.20822(4) 0.01356(5) 0.56493(9)
C1 C 0.2826(6) -0.1221(7) 0.4691(13)
H1 H 0.3167 -0.0976 0.5257
C2 C 0.0246(4) -0.0072(6) 0.7194(9)
N1 N 0.2277(5) -0.1018(5) 0.4722(10)
C3 C 0.1868(6) -0.1960(7) 0.3132(14)
H2 H 0.1516 -0.2211 0.2611
N2 N 0.1200(4) -0.0028(5) 0.6103(8)
C4 C 0.0599(5) -0.0721(6) 0.7170(11)
H3 H 0.0534 -0.1189 0.7530
C5 C 0.1056(5) -0.0661(6) 0.6596(11)
H4 H 0.1279 -0.1112 0.6558
C6 C 0.2955(6) -0.1757(6) 0.3917(13)
H5 H 0.3366 -0.1863 0.3958
C7 C 0.1808(6) -0.1420(8) 0.3953(14)
H6 H 0.1408 -0.1322 0.3984
C8 C 0.0363(6) 0.0593(6) 0.6647(13)
H7 H 0.0137 0.1047 0.6649
C9 C 0.0832(6) 0.0578(7) 0.6083(13)
H8 H 0.0889 0.1025 0.5663
N3 N 0.2761(5) -0.3815(5) 0.0503(10)
C10 C 0.3130(6) -0.3186(6) 0.0867(12)
H9 H 0.3459 -0.3117 0.0550
C11 C 0.2266(6) -0.3859(6) 0.0950(12)
H10 H 0.1977 -0.4259 0.0662
C12 C 0.2176(6) -0.3345(7) 0.1800(12)
H11 H 0.1849 -0.3426 0.2120
C13 C 0.3044(5) -0.2647(7) 0.1675(11)
H12 H 0.3315 -0.2222 0.1896
C14 C 0.2460(6) -0.2142(6) 0.3065(11)
C15 C 0.2555(6) -0.2719(6) 0.2184(12)
N4 N 0.3109(5) 0.0212(6) 0.7083(10)
C16 C 0.3628(6) 0.0133(7) 0.7368(11)
C17 C 0.4290(6) 0.0047(8) 0.7711(16)
H13 H 0.4389 -0.0444 0.7409
H14 H 0.4467 0.0063 0.8602
H15 H 0.4461 0.0466 0.7354
Ag1C Ag 0.29178(4) 0.51356(5) -0.06493(9)
Ag1C_2 Ag 0.29178(4) -0.48644(5) -0.06493(9)
Ag1B Ag -0.20822(4) 0.01356(5) 0.93507(9)
C1C C 0.2174(6) 0.3779(7) 0.0309(13)
H1C H 0.1833 0.4024 -0.0257
C2B C -0.0246(4) -0.0072(6) 0.7806(9)
N1C N 0.2723(5) 0.3982(5) 0.0278(10)
C3C C 0.3132(6) 0.3040(7) 0.1868(14)
H2C H 0.3484 0.2789 0.2389
N2B N -0.1200(4) -0.0028(5) 0.8897(8)
N2C N 0.3800(4) 0.4972(5) -0.1103(8)
C4B C -0.0599(5) -0.0721(6) 0.7830(11)
H3B H -0.0534 -0.1189 0.7470
C5B C -0.1056(5) -0.0661(6) 0.8404(11)
H4B H -0.1279 -0.1112 0.8442
C6C C 0.2045(6) 0.3243(6) 0.1083(13)
H5C H 0.1634 0.3137 0.1042
C7C C 0.3192(6) 0.3580(8) 0.1047(14)
H6C H 0.3592 0.3678 0.1016
C8B C -0.0363(6) 0.0593(6) 0.8353(13)
H7B H -0.0137 0.1047 0.8351
C9B C -0.0832(6) 0.0578(7) 0.8917(13)
H8B H -0.0889 0.1025 0.9337
N3C N 0.2239(5) 0.1185(5) 0.4497(10)
N3_2 N 0.2761(5) 0.6185(5) 0.0503(10)
C10C C 0.1870(6) 0.1814(6) 0.4133(12)
H9C H 0.1541 0.1883 0.4450
C11C C 0.2734(6) 0.1141(6) 0.4050(12)
H10C H 0.3023 0.0741 0.4338
C12C C 0.2824(6) 0.1655(7) 0.3200(12)
H11C H 0.3151 0.1574 0.2880
C13C C 0.1956(5) 0.2353(7) 0.3325(11)
H12C H 0.1685 0.2778 0.3104
C14C C 0.2540(6) 0.2858(6) 0.1935(11)
C15C C 0.2445(6) 0.2281(6) 0.2816(12)
N4C N 0.1891(5) 0.5212(6) -0.2083(10)
C16C C 0.1372(6) 0.5133(7) -0.2368(11)
C17C C 0.0710(6) 0.5047(8) -0.2711(16)
H13C H 0.0611 0.4556 -0.2409
H14C H 0.0533 0.5063 -0.3602
H15C H 0.0539 0.5466 -0.2354
Sb1 Sb 0.50107(5) -0.20158(5) 0.50027(13)
F1 F 0.4542(4) -0.1256(4) 0.5445(9)
F2 F 0.5496(4) -0.1244(4) 0.4613(9)
F3 F 0.4461(4) -0.1982(5) 0.3391(10)
F4 F 0.4522(5) -0.2784(4) 0.5384(11)
F5 F 0.5484(5) -0.2780(5) 0.4570(11)
F6 F 0.5557(5) -0.2046(7) 0.6569(10)
loop_
_geom_bond_atom_site_label_1
_geom_bond_atom_site_label_2
_geom_bond_site_symmetry_1
_geom_bond_site_symmetry_2
Ag1 N1 1_555 1_555
C1 H1 1_555 1_555
C2 C4 1_555 1_555
N1 C1 1_555 1_555
C3 H2 1_555 1_555
N2 Ag1 1_555 1_555
C4 H3 1_555 1_555
C5 N2 1_555 1_555
H4 C5 1_555 1_555
C6 C1 1_555 1_555
H5 C6 1_555 1_555
C7 N1 1_555 1_555
H6 C7 1_555 1_555
C8 C2 1_555 1_555
H7 C8 1_555 1_555
C9 N2 1_555 1_555
H8 C9 1_555 1_555
Sb1 F1 1_555 1_555
F2 Sb1 1_555 1_555
F3 Sb1 1_555 1_555
F4 Sb1 1_555 1_555
F5 Sb1 1_555 1_555
F6 Sb1 1_555 1_555
N3 C10 1_555 1_555
C10 H9 1_555 1_555
C11 N3 1_555 1_555
H10 C11 1_555 1_555
C12 C11 1_555 1_555
H11 C12 1_555 1_555
C13 C10 1_555 1_555
H12 C13 1_555 1_555
C14 C3 1_555 1_555
C15 C12 1_555 1_555
N4 Ag1 1_555 1_555
C16 N4 1_555 1_555
C17 C16 1_555 1_555
H13 C17 1_555 1_555
H14 C17 1_555 1_555
H15 C17 1_555 1_555
Ag1C N1C 1_555 1_555
Ag1C_2 N3 1_555 1_555
Ag1B N2B 1_555 1_555
C1C H1C 1_555 1_555
C2B C2 1_555 1_555
N1C C1C 1_555 1_555
C3C H2C 1_555 1_555
N2B C5B 1_555 1_555
N2C Ag1C 1_555 1_555
C4B C2B 1_555 1_555
H3B C4B 1_555 1_555
C5B C4B 1_555 1_555
H4B C5B 1_555 1_555
C6C C1C 1_555 1_555
H5C C6C 1_555 1_555
C7C N1C 1_555 1_555
H6C C7C 1_555 1_555
C8B C2B 1_555 1_555
H7B C8B 1_555 1_555
C9B N2B 1_555 1_555
H8B C9B 1_555 1_555
N3C Ag1 1_555 1_555
N3_2 Ag1C 1_555 1_555
C10C N3C 1_555 1_555
H9C C10C 1_555 1_555
C11C N3C 1_555 1_555
H10C C11C 1_555 1_555
C12C C11C 1_555 1_555
H11C C12C 1_555 1_555
C13C C10C 1_555 1_555
H12C C13C 1_555 1_555
C14C C3C 1_555 1_555
C15C C12C 1_555 1_555
N4C Ag1C 1_555 1_555
C16C N4C 1_555 1_555
C17C C16C 1_555 1_555
H13C C17C 1_555 1_555
H14C C17C 1_555 1_555
H15C C17C 1_555 1_555
C3 C7 1_555 1_555
C4 C5 1_555 1_555
C6 C14 1_555 1_555
C8 C9 1_555 1_555
C13 C15 1_555 1_555
C14 C15 1_555 1_555
C3C C7C 1_555 1_555
C6C C14C 1_555 1_555
C8B C9B 1_555 1_555
C13C C15C 1_555 1_555
C14C C15C 1_555 1_555

#END
