
#######################################################################
#
#                 Cambridge Crystallographic Data Centre
#                                CCDC 
#
#######################################################################
#
# If this CIF has been generated from an entry in the Cambridge 
# Structural Database, then it will include bibliographic, chemical, 
# crystal, experimental, refinement or atomic coordinate data resulting 
# from the CCDC's data processing and validation procedures.
#
#######################################################################

data_SAWLUZ
_symmetry_cell_setting           tetragonal
_symmetry_space_group_name_H-M   'P 42/n'
_symmetry_Int_Tables_number      86
_space_group_name_Hall           '-P 4bc'
loop_
_symmetry_equiv_pos_site_id
_symmetry_equiv_pos_as_xyz
1 x,y,z
2 -y,1/2+x,1/2+z
3 1/2-x,1/2-y,z
4 1/2+y,-x,1/2+z
5 -x,-y,-z
6 y,1/2-x,1/2-z
7 1/2+x,1/2+y,-z
8 1/2-y,x,1/2-z
_cell_length_a                   18.396(5)
_cell_length_b                   18.396(5)
_cell_length_c                   8.0087(10)
_cell_angle_alpha                90
_cell_angle_beta                 90
_cell_angle_gamma                90
_cell_volume                     2710.25
loop_
_atom_site_label
_atom_site_type_symbol
_atom_site_fract_x
_atom_site_fract_y
_atom_site_fract_z
S1 S 0.60961(8) 0.19914(8) 1.0252(2)
O1 O 0.5892(2) 0.2840(2) 1.0071(6)
Na1 Na 0.70366(12) 0.33690(12) 1.1087(3)
O2 O 0.6160(2) 0.1702(2) 0.8572(5)
O3 O 0.6784(2) 0.2054(2) 1.1152(6)
O4 O 0.7031(2) 0.4431(2) 0.9691(6)
C1 C 0.5188(3) 0.3024(3) 0.9368(8)
C2 C 0.4648(3) 0.3149(3) 1.0781(8)
C3 C 0.3906(3) 0.3402(3) 1.0151(8)
N1 N 0.4001(2) 0.3995(2) 0.8894(6)
O5 O 0.3413(2) 0.4346(2) 0.8490(6)
C4 C 0.4613(3) 0.4038(3) 0.7647(8)
C5 C 0.5302(3) 0.3719(3) 0.8432(8)
C6 C 0.4737(3) 0.4843(3) 0.7272(9)
C7 C 0.4394(3) 0.3644(3) 0.6039(8)
C8 C 0.3468(3) 0.3712(3) 1.1591(8)
C9 C 0.3485(3) 0.2776(3) 0.9329(8)
O6 O 0.5519(2) 0.1654(2) 1.1210(5)
H1 H 0.5019 0.2629 0.8636
H2 H 0.4849 0.3527 1.1501
H3 H 0.4580 0.2692 1.1372
H4 H 0.5492 0.4071 0.9227
H5 H 0.5654 0.3639 0.7535
H6 H 0.5159 0.4874 0.6546
H7 H 0.4821 0.5103 0.8318
H8 H 0.4313 0.5024 0.6696
H9 H 0.4770 0.3727 0.5213
H10 H 0.3942 0.3827 0.5615
H11 H 0.4348 0.3130 0.6261
H12 H 0.2978 0.3822 1.1212
H13 H 0.3698 0.4148 1.1991
H14 H 0.3447 0.3355 1.2473
H15 H 0.3054 0.2976 0.8828
H16 H 0.3350 0.2439 1.0200
H17 H 0.3792 0.2546 0.8512
H18 H 0.7366 0.4720 0.9812
H19 H 0.6694 0.4528 0.9061
Na1A Na 0.66310(12) 0.20366(12) 0.6087(3)
Na1B Na 0.79634(12) 0.16310(12) 1.1087(3)
O2C O 0.6702(2) 0.3840(2) 1.3572(5)
O3B O 0.8216(2) 0.2946(2) 1.1152(6)
loop_
_geom_bond_atom_site_label_1
_geom_bond_atom_site_label_2
_geom_bond_site_symmetry_1
_geom_bond_site_symmetry_2
S1 O1 1_555 1_555
O1 Na1 1_555 1_555
Na1 O3 1_555 1_555
O2 S1 1_555 1_555
O3 S1 1_555 1_555
O4 Na1 1_555 1_555
C1 O1 1_555 1_555
C2 C1 1_555 1_555
C3 C2 1_555 1_555
N1 C3 1_555 1_555
O5 N1 1_555 1_555
C4 N1 1_555 1_555
C5 C1 1_555 1_555
C6 C4 1_555 1_555
C7 C4 1_555 1_555
C8 C3 1_555 1_555
C9 C3 1_555 1_555
O6 S1 1_555 1_555
H1 C1 1_555 1_555
H2 C2 1_555 1_555
H3 C2 1_555 1_555
H4 C5 1_555 1_555
H5 C5 1_555 1_555
H6 C6 1_555 1_555
H7 C6 1_555 1_555
H8 C6 1_555 1_555
H9 C7 1_555 1_555
H10 C7 1_555 1_555
H11 C7 1_555 1_555
H12 C8 1_555 1_555
H13 C8 1_555 1_555
H14 C8 1_555 1_555
H15 C9 1_555 1_555
H16 C9 1_555 1_555
H17 C9 1_555 1_555
H18 O4 1_555 1_555
H19 O4 1_555 1_555
Na1A O2 1_555 1_555
Na1B O3 1_555 1_555
O2C Na1 1_555 1_555
O3B Na1 1_555 1_555
C4 C5 1_555 1_555
Na1B O3B 1_555 1_555

#END
