
#######################################################################
#
#                 Cambridge Crystallographic Data Centre
#                                CCDC 
#
#######################################################################
#
# If this CIF has been generated from an entry in the Cambridge 
# Structural Database, then it will include bibliographic, chemical, 
# crystal, experimental, refinement or atomic coordinate data resulting 
# from the CCDC's data processing and validation procedures.
#
#######################################################################

data_SAWQIR
_symmetry_cell_setting           monoclinic
_symmetry_space_group_name_H-M   'P 21/c'
_symmetry_Int_Tables_number      14
_space_group_name_Hall           '-P 2ybc'
loop_
_symmetry_equiv_pos_site_id
_symmetry_equiv_pos_as_xyz
1 x,y,z
2 -x,1/2+y,1/2-z
3 -x,-y,-z
4 x,1/2-y,1/2+z
_cell_length_a                   15.1745(3)
_cell_length_b                   14.0174(4)
_cell_length_c                   21.8130(5)
_cell_angle_alpha                90
_cell_angle_beta                 105.3830(10)
_cell_angle_gamma                90
_cell_volume                     4473.55
loop_
_atom_site_label
_atom_site_type_symbol
_atom_site_fract_x
_atom_site_fract_y
_atom_site_fract_z
Au1 Au 0.561644(15) 1.442795(16) 0.171411(11)
Au2 Au 0.425446(16) 1.158950(17) 0.343760(11)
P1 P 0.40889(11) 1.44381(11) 0.16027(8)
P2 P 0.33539(11) 1.15173(12) 0.24217(8)
C1 C 0.6966(4) 1.4247(5) 0.1802(3)
C2 C 0.7748(4) 1.4114(5) 0.1831(3)
C3 C 0.8700(5) 1.3898(6) 0.1855(3)
H1 H 0.8779 1.3197 0.1868
H2 H 0.8826 1.4131 0.1459
O1 O 0.9354(3) 1.4301(4) 0.2381(3)
C4 C 0.9473(5) 1.3871(6) 0.2964(4)
C5 C 0.8890(4) 1.3204(5) 0.3106(3)
H3 H 0.8366 1.3001 0.2787
C6 C 1.0236(5) 1.4171(6) 0.3442(4)
H4 H 1.0643 1.4632 0.3351
C7 C 0.9072(5) 1.2830(5) 0.3713(3)
H5 H 0.8672 1.2364 0.3806
C8 C 1.0390(5) 1.3794(6) 0.4040(4)
H6 H 1.0905 1.4004 0.4364
C9 C 0.9817(4) 1.3117(5) 0.4185(3)
S1 S 1.00547(13) 1.26357(16) 0.49708(9)
C10 C 0.8974(5) 1.2779(5) 0.5132(3)
C11 C 0.8411(5) 1.1993(6) 0.5119(4)
H7 H 0.8604 1.1379 0.5026
C12 C 0.8675(5) 1.3662(6) 0.5286(3)
H8 H 0.9059 1.4201 0.5301
C13 C 0.7567(5) 1.2106(6) 0.5243(4)
H9 H 0.7180 1.1567 0.5221
C14 C 0.7861(5) 1.3780(5) 0.5415(4)
H10 H 0.7680 1.4397 0.5515
C15 C 0.7274(4) 1.2992(5) 0.5401(3)
O2 O 0.6470(3) 1.3186(4) 0.5532(2)
C16 C 0.5845(5) 1.2391(6) 0.5508(3)
H11 H 0.5374 1.2574 0.5725
H12 H 0.6187 1.1840 0.5738
C17 C 0.5395(5) 1.2109(5) 0.4848(3)
C18 C 0.4996(4) 1.1872(5) 0.4321(3)
C19 C 0.3758(4) 1.3339(5) 0.1885(3)
C20 C 0.3573(4) 1.2591(5) 0.2071(3)
C21 C 0.3650(3) 1.5326(3) 0.20542(18)
C22 C 0.3617(3) 1.6272(3) 0.18577(17)
H13 H 0.3758 1.6431 0.1471
C23 C 0.3376(3) 1.6984(2) 0.2227(2)
H14 H 0.3353 1.7630 0.2092
C24 C 0.3169(3) 1.6750(3) 0.2792(2)
H15 H 0.3005 1.7236 0.3044
C25 C 0.3203(3) 1.5804(3) 0.29883(16)
H16 H 0.3061 1.5644 0.3375
C26 C 0.3443(3) 1.5092(2) 0.26195(19)
H17 H 0.3466 1.4446 0.2754
C27 C 0.3371(3) 1.4480(3) 0.07963(15)
C28 C 0.2434(3) 1.4332(3) 0.06706(17)
H18 H 0.2161 1.4243 0.1011
C29 C 0.1896(2) 1.4315(4) 0.0046(2)
H19 H 0.1255 1.4214 -0.0040
C30 C 0.2294(3) 1.4446(3) -0.04524(15)
H20 H 0.1927 1.4434 -0.0879
C31 C 0.3231(3) 1.4594(3) -0.03268(17)
H21 H 0.3504 1.4684 -0.0668
C32 C 0.3769(2) 1.4611(3) 0.0298(2)
H22 H 0.4409 1.4712 0.0383
C33 C 0.3548(3) 1.0630(3) 0.1869(2)
C34 C 0.2938(3) 0.9887(3) 0.1655(2)
H23 H 0.2392 0.9845 0.1790
C35 C 0.3125(3) 0.9204(3) 0.1246(2)
H24 H 0.2708 0.8695 0.1100
C36 C 0.3923(4) 0.9264(3) 0.1049(2)
H25 H 0.4051 0.8797 0.0769
C37 C 0.4534(3) 1.0007(4) 0.1262(2)
H26 H 0.5079 1.0049 0.1128
C38 C 0.4346(3) 1.0690(3) 0.1672(2)
H27 H 0.4763 1.1199 0.1818
C39 C 0.2137(2) 1.1568(3) 0.2354(2)
C40 C 0.1857(3) 1.1662(3) 0.29087(16)
H28 H 0.2298 1.1674 0.3310
C41 C 0.0933(3) 1.1740(4) 0.28759(19)
H29 H 0.0741 1.1804 0.3255
C42 C 0.0288(2) 1.1723(4) 0.2289(2)
H30 H -0.0344 1.1776 0.2266
C43 C 0.0568(3) 1.1629(4) 0.17347(18)
H31 H 0.0128 1.1618 0.1334
C44 C 0.1493(3) 1.1552(4) 0.17675(16)
H32 H 0.1684 1.1487 0.1389
Au1A Au 0.438356(15) 0.942795(16) 0.328589(11)
Au2A Au 0.574554(16) 1.658950(17) 0.156240(11)
C45 C 0.9012(5) 2.0135(6) 0.3155(4)
H33 H 0.8465 2.0549 0.3079
H34 H 0.9384 2.0354 0.2872
Cl1 Cl 0.96544(16) 2.0256(2) 0.39522(12)
Cl2 Cl 0.86683(16) 1.89663(17) 0.29643(13)
C46 C 0.6746(16) 1.8287(18) 0.0362(7)
H35 H 0.6654 1.7604 0.0443
H36 H 0.6125 1.8559 0.0200
Cl3 Cl 0.7154(3) 1.8286(3) -0.02361(16)
Cl4 Cl 0.7123(2) 1.87448(19) 0.10578(13)
loop_
_geom_bond_atom_site_label_1
_geom_bond_atom_site_label_2
_geom_bond_site_symmetry_1
_geom_bond_site_symmetry_2
Au1 P1 1_555 1_555
Au2 P2 1_555 1_555
P1 C19 1_555 1_555
P2 C20 1_555 1_555
C1 Au1 1_555 1_555
C2 C1 1_555 1_555
C3 C2 1_555 1_555
H1 C3 1_555 1_555
H2 C3 1_555 1_555
O1 C3 1_555 1_555
C4 O1 1_555 1_555
C5 C4 1_555 1_555
H3 C5 1_555 1_555
C6 C4 1_555 1_555
H4 C6 1_555 1_555
C7 C5 1_555 1_555
H5 C7 1_555 1_555
C8 C6 1_555 1_555
H6 C8 1_555 1_555
C9 C7 1_555 1_555
S1 C9 1_555 1_555
C10 S1 1_555 1_555
C11 C10 1_555 1_555
H7 C11 1_555 1_555
C12 C10 1_555 1_555
H8 C12 1_555 1_555
C13 C11 1_555 1_555
H9 C13 1_555 1_555
C14 C12 1_555 1_555
H10 C14 1_555 1_555
C15 C13 1_555 1_555
O2 C15 1_555 1_555
C16 O2 1_555 1_555
H11 C16 1_555 1_555
H12 C16 1_555 1_555
C17 C16 1_555 1_555
C18 Au2 1_555 1_555
C19 C20 1_555 1_555
C21 P1 1_555 1_555
C22 C21 1_555 1_555
H13 C22 1_555 1_555
C23 C22 1_555 1_555
H14 C23 1_555 1_555
C24 C23 1_555 1_555
H15 C24 1_555 1_555
C25 C24 1_555 1_555
H16 C25 1_555 1_555
C26 C21 1_555 1_555
H17 C26 1_555 1_555
C27 P1 1_555 1_555
C28 C27 1_555 1_555
H18 C28 1_555 1_555
C29 C28 1_555 1_555
H19 C29 1_555 1_555
C30 C29 1_555 1_555
H20 C30 1_555 1_555
C31 C30 1_555 1_555
H21 C31 1_555 1_555
C32 C27 1_555 1_555
H22 C32 1_555 1_555
C33 P2 1_555 1_555
C34 C33 1_555 1_555
H23 C34 1_555 1_555
C35 C34 1_555 1_555
H24 C35 1_555 1_555
C36 C35 1_555 1_555
H25 C36 1_555 1_555
C37 C36 1_555 1_555
H26 C37 1_555 1_555
C38 C33 1_555 1_555
H27 C38 1_555 1_555
C39 P2 1_555 1_555
C40 C39 1_555 1_555
H28 C40 1_555 1_555
C41 C40 1_555 1_555
H29 C41 1_555 1_555
C42 C41 1_555 1_555
H30 C42 1_555 1_555
C43 C42 1_555 1_555
H31 C43 1_555 1_555
C44 C39 1_555 1_555
H32 C44 1_555 1_555
C45 H33 1_555 1_555
H34 C45 1_555 1_555
Cl1 C45 1_555 1_555
Cl2 C45 1_555 1_555
C46 H35 1_555 1_555
H36 C46 1_555 1_555
Cl3 C46 1_555 1_555
Cl4 C46 1_555 1_555
Au1A Au2 1_555 1_555
Au2A Au1 1_555 1_555
C8 C9 1_555 1_555
C14 C15 1_555 1_555
C17 C18 1_555 1_555
C25 C26 1_555 1_555
C31 C32 1_555 1_555
C37 C38 1_555 1_555
C43 C44 1_555 1_555

#END
