
#######################################################################
#
#                 Cambridge Crystallographic Data Centre
#                                CCDC 
#
#######################################################################
#
# If this CIF has been generated from an entry in the Cambridge 
# Structural Database, then it will include bibliographic, chemical, 
# crystal, experimental, refinement or atomic coordinate data resulting 
# from the CCDC's data processing and validation procedures.
#
#######################################################################

data_SAWTEP
_symmetry_cell_setting           monoclinic
_symmetry_space_group_name_H-M   'P 21/n'
_symmetry_Int_Tables_number      14
_space_group_name_Hall           '-P 2yn'
loop_
_symmetry_equiv_pos_site_id
_symmetry_equiv_pos_as_xyz
1 x,y,z
2 1/2-x,1/2+y,1/2-z
3 -x,-y,-z
4 1/2+x,1/2-y,1/2+z
_cell_length_a                   9.868(2)
_cell_length_b                   16.825(2)
_cell_length_c                   9.247(2)
_cell_angle_alpha                90
_cell_angle_beta                 90.79(2)
_cell_angle_gamma                90
_cell_volume                     1535.13
loop_
_atom_site_label
_atom_site_type_symbol
_atom_site_fract_x
_atom_site_fract_y
_atom_site_fract_z
Cu1 Cu 0.25183(6) 0.20944(5) 0.05364(6)
Cl1 Cl 0.3782(1) 0.16275(9) -0.1381(1)
N1 N 0.3124(4) 0.1397(3) 0.2221(4)
C1 C 0.2737(5) 0.1509(3) 0.3620(5)
C2 C 0.2138(5) 0.2273(3) 0.3965(5)
H1 H 0.215(4) 0.271(3) 0.331(4)
C3 C 0.1699(5) 0.2493(4) 0.5318(5)
H2 H 0.182(4) 0.215(3) 0.604(5)
H3 H 0.156(4) 0.305(3) 0.545(4)
C4 C 0.2936(5) 0.0908(4) 0.4638(5)
H4 H 0.274(4) 0.099(3) 0.552(5)
C5 C 0.3489(6) 0.0202(4) 0.4244(7)
H5 H 0.369(5) -0.019(3) 0.489(5)
C6 C 0.3959(6) 0.0101(4) 0.2847(7)
H6 H 0.436(4) -0.034(3) 0.262(5)
C7 C 0.3737(6) 0.0713(4) 0.1896(6)
H7 H 0.395(4) 0.066(3) 0.101(5)
Cu2 Cu 0.50795(6) 0.29372(5) -0.08472(6)
Cl2 Cl 0.3782(1) 0.33921(9) 0.10265(13)
N2 N 0.4480(4) 0.3579(3) -0.2585(4)
C8 C 0.4706(5) 0.3389(3) -0.3979(5)
C9 C 0.0427(5) 0.2341(3) 0.0736(5)
H8 H 0.039(4) 0.273(3) 0.144(4)
C10 C 0.0878(5) 0.2583(4) -0.0598(5)
H9 H 0.074(4) 0.224(3) -0.136(5)
H10 H 0.123(4) 0.312(3) -0.063(5)
C11 C 0.4234(5) 0.3891(3) -0.5090(6)
H11 H 0.448(4) 0.368(3) -0.602(5)
C12 C 0.3559(6) 0.4568(4) -0.4757(7)
H12 H 0.322(5) 0.489(3) -0.552(5)
C13 C 0.3311(6) 0.4749(4) -0.3361(7)
H13 H 0.290(5) 0.523(3) -0.315(5)
C14 C 0.3801(6) 0.4247(4) -0.2325(7)
H14 H 0.361(5) 0.429(3) -0.143(5)
Cu2C Cu 0.00795(6) 0.20628(5) 0.41528(6)
C2C C 0.7138(5) 0.2727(3) -0.1035(5)
C3C C 0.6699(5) 0.2507(4) 0.0318(5)
C9C C 0.5427(5) 0.2659(3) -0.4264(5)
C8C C -0.0294(5) 0.1611(3) 0.1021(5)
Cl1C Cl -0.1218(1) 0.33725(9) 0.3619(1)
Cl2C Cl -0.1218(1) 0.16079(9) 0.60265(13)
N2C N -0.0520(4) 0.1421(3) 0.2415(4)
C1C C 0.7737(5) 0.3491(3) -0.1380(5)
H1C H 0.715(4) 0.229(3) -0.169(4)
H2C H 0.682(4) 0.285(3) 0.104(5)
H3C H 0.656(4) 0.195(3) 0.045(4)
Cu1C Cu 0.75183(6) 0.29056(5) -0.44636(6)
H8C H 0.539(4) 0.227(3) -0.356(4)
C10C C 0.5878(5) 0.2417(4) -0.5598(5)
C11C C -0.0766(5) 0.1109(3) -0.0090(6)
Cu1C_2 Cu -0.24817(6) 0.29056(5) 0.55364(6)
C14C C -0.1199(6) 0.0753(4) 0.2675(7)
N1C N 0.8124(4) 0.3603(3) -0.2779(4)
C4C C 0.7936(5) 0.4092(4) -0.0362(5)
Cl1C_2 Cl 0.8782(1) 0.33725(9) -0.6381(1)
Cl2C_2 Cl 0.8782(1) 0.16079(9) -0.39735(13)
H9C H 0.574(4) 0.276(3) -0.636(5)
H10C H 0.623(4) 0.188(3) -0.563(5)
H11C H -0.052(4) 0.132(3) -0.102(5)
C12C C -0.1441(6) 0.0432(4) 0.0243(7)
C13C C -0.1689(6) 0.0251(4) 0.1639(7)
H14C H -0.139(5) 0.071(3) 0.357(5)
C7C C 0.8737(6) 0.4287(4) -0.3104(6)
H4C H 0.774(4) 0.401(3) 0.052(5)
C5C C 0.8489(6) 0.4798(4) -0.0756(7)
H12C H -0.178(5) 0.011(3) -0.052(5)
H13C H -0.210(5) -0.023(3) 0.185(5)
C6C C 0.8959(6) 0.4899(4) -0.2153(7)
H7C H 0.895(4) 0.434(3) -0.399(5)
H5C H 0.869(5) 0.519(3) -0.011(5)
H6C H 0.936(4) 0.534(3) -0.238(5)
loop_
_geom_bond_atom_site_label_1
_geom_bond_atom_site_label_2
_geom_bond_site_symmetry_1
_geom_bond_site_symmetry_2
Cu1 Cl1 1_555 1_555
Cl1 Cu2 1_555 1_555
N1 Cu1 1_555 1_555
C1 N1 1_555 1_555
C2 C1 1_555 1_555
H1 C2 1_555 1_555
C3 C2 1_555 1_555
H2 C3 1_555 1_555
H3 C3 1_555 1_555
C4 C1 1_555 1_555
H4 C4 1_555 1_555
C5 C4 1_555 1_555
H5 C5 1_555 1_555
C6 C5 1_555 1_555
H6 C6 1_555 1_555
C7 N1 1_555 1_555
H7 C7 1_555 1_555
Cu2 Cl2 1_555 1_555
Cl2 Cu1 1_555 1_555
N2 Cu2 1_555 1_555
C8 N2 1_555 1_555
C9 Cu1 1_555 1_555
H8 C9 1_555 1_555
C10 Cu1 1_555 1_555
H9 C10 1_555 1_555
H10 C10 1_555 1_555
C11 C8 1_555 1_555
H11 C11 1_555 1_555
C12 C11 1_555 1_555
H12 C12 1_555 1_555
C13 C12 1_555 1_555
H13 C13 1_555 1_555
C14 N2 1_555 1_555
H14 C14 1_555 1_555
Cu2C C2 1_555 1_555
C2C Cu2 1_555 1_555
C3C Cu2 1_555 1_555
C9C C8 1_555 1_555
C8C C9 1_555 1_555
Cl1C Cu2C 1_555 1_555
Cl2C Cu2C 1_555 1_555
N2C Cu2C 1_555 1_555
C1C C2C 1_555 1_555
H1C C2C 1_555 1_555
H2C C3C 1_555 1_555
H3C C3C 1_555 1_555
Cu1C C9C 1_555 1_555
H8C C9C 1_555 1_555
C10C C9C 1_555 1_555
C11C C8C 1_555 1_555
Cu1C_2 Cl1C 1_555 1_555
C14C N2C 1_555 1_555
N1C C1C 1_555 1_555
C4C C1C 1_555 1_555
Cl1C_2 Cu1C 1_555 1_555
Cl2C_2 Cu1C 1_555 1_555
H9C C10C 1_555 1_555
H10C C10C 1_555 1_555
H11C C11C 1_555 1_555
C12C C11C 1_555 1_555
C13C C14C 1_555 1_555
H14C C14C 1_555 1_555
C7C N1C 1_555 1_555
H4C C4C 1_555 1_555
C5C C4C 1_555 1_555
H12C C12C 1_555 1_555
H13C C13C 1_555 1_555
C6C C7C 1_555 1_555
H7C C7C 1_555 1_555
H5C C5C 1_555 1_555
H6C C6C 1_555 1_555
C3 Cu2C 1_555 1_555
C6 C7 1_555 1_555
C9 C10 1_555 1_555
C13 C14 1_555 1_555
C2C C3C 1_555 1_555
C8C N2C 1_555 1_555
Cl2C Cu1C_2 1_555 1_555
Cu1C C10C 1_555 1_555
Cu1C N1C 1_555 1_555
C12C C13C 1_555 1_555
C5C C6C 1_555 1_555

#END
