
#######################################################################
#
#                 Cambridge Crystallographic Data Centre
#                                CCDC 
#
#######################################################################
#
# If this CIF has been generated from an entry in the Cambridge 
# Structural Database, then it will include bibliographic, chemical, 
# crystal, experimental, refinement or atomic coordinate data resulting 
# from the CCDC's data processing and validation procedures.
#
#######################################################################

data_SAWVIV
_symmetry_cell_setting           monoclinic
_symmetry_space_group_name_H-M   'P 21'
_symmetry_Int_Tables_number      4
_space_group_name_Hall           'P 2yb'
loop_
_symmetry_equiv_pos_site_id
_symmetry_equiv_pos_as_xyz
1 x,y,z
2 -x,1/2+y,-z
_cell_length_a                   9.134(5)
_cell_length_b                   15.419(4)
_cell_length_c                   3.802(1)
_cell_angle_alpha                90
_cell_angle_beta                 93.94(4)
_cell_angle_gamma                90
_cell_volume                     534.197
loop_
_atom_site_label
_atom_site_type_symbol
_atom_site_fract_x
_atom_site_fract_y
_atom_site_fract_z
Cl1 Cl 0.1606(8) 0.0706(5) 0.8278(18)
Cu1 Cu 0.2383(3) 0.0000 0.3676(9)
N1 N 0.360(2) -0.101(1) 0.290(6)
C1 C 0.505(3) -0.100(2) 0.387(7)
C2 C 0.569(3) -0.024(2) 0.553(6)
C3 C 0.717(3) -0.021(2) 0.638(6)
C4 C 0.814(3) -0.092(2) 0.567(9)
C5 C 0.751(3) -0.162(2) 0.401(7)
C6 C 0.601(3) -0.168(2) 0.295(8)
C7 C 0.539(3) -0.240(2) 0.141(8)
C8 C 0.300(2) -0.171(2) 0.131(7)
C9 C 0.147(3) -0.175(2) 0.047(8)
C10 C 0.085(3) -0.246(2) -0.108(8)
C11 C 0.174(3) -0.321(2) -0.199(10)
C12 C 0.315(3) -0.319(2) -0.102(8)
C13 C 0.390(3) -0.247(2) 0.035(7)
H1 H 0.506 0.025 0.605
H2 H 0.760 0.029 0.763
H3 H 0.921 -0.089 0.626
H4 H 0.817 -0.210 0.357
H5 H 0.599 -0.292 0.091
H6 H 0.087 -0.125 0.101
H7 H -0.020 -0.244 -0.154
H8 H 0.127 -0.368 -0.338
H9 H 0.371 -0.372 -0.125
Cu1_2 Cu 0.2383(3) 0.0000 1.3676(9)
Cl1_2 Cl 0.1606(8) 0.0706(5) -0.1722(18)
loop_
_geom_bond_atom_site_label_1
_geom_bond_atom_site_label_2
_geom_bond_site_symmetry_1
_geom_bond_site_symmetry_2
Cl1 Cu1 1_555 1_555
Cu1 N1 1_555 1_555
N1 C1 1_555 1_555
C1 C2 1_555 1_555
C2 C3 1_555 1_555
C3 C4 1_555 1_555
C4 C5 1_555 1_555
C5 C6 1_555 1_555
C6 C1 1_555 1_555
C7 C6 1_555 1_555
C8 N1 1_555 1_555
C9 C8 1_555 1_555
C10 C9 1_555 1_555
C11 C10 1_555 1_555
C12 C11 1_555 1_555
C13 C7 1_555 1_555
H1 C2 1_555 1_555
H2 C3 1_555 1_555
H3 C4 1_555 1_555
H4 C5 1_555 1_555
H5 C7 1_555 1_555
H6 C9 1_555 1_555
H7 C10 1_555 1_555
H8 C11 1_555 1_555
H9 C12 1_555 1_555
Cu1_2 Cl1 1_555 1_555
Cl1_2 Cu1 1_555 1_555
C8 C13 1_555 1_555
C12 C13 1_555 1_555

#END
