
#######################################################################
#
#                 Cambridge Crystallographic Data Centre
#                                CCDC 
#
#######################################################################
#
# If this CIF has been generated from an entry in the Cambridge 
# Structural Database, then it will include bibliographic, chemical, 
# crystal, experimental, refinement or atomic coordinate data resulting 
# from the CCDC's data processing and validation procedures.
#
#######################################################################

data_SAWVUH
_symmetry_cell_setting           orthorhombic
_symmetry_space_group_name_H-M   'P 21 21 21'
_symmetry_Int_Tables_number      19
_space_group_name_Hall           'P 2ac 2ab'
loop_
_symmetry_equiv_pos_site_id
_symmetry_equiv_pos_as_xyz
1 x,y,z
2 1/2+x,1/2-y,-z
3 -x,1/2+y,1/2-z
4 1/2-x,-y,1/2+z
_cell_length_a                   25.841(4)
_cell_length_b                   9.392(4)
_cell_length_c                   3.803(1)
_cell_angle_alpha                90
_cell_angle_beta                 90
_cell_angle_gamma                90
_cell_volume                     922.983
loop_
_atom_site_label
_atom_site_type_symbol
_atom_site_fract_x
_atom_site_fract_y
_atom_site_fract_z
Cl1 Cl 0.37162(9) -0.1126(2) -0.2307(11)
Cu1 Cu 0.36482(4) 0.0180(1) 0.2604(6)
N1 N 0.3556(2) 0.2263(7) 0.299(3)
C1 C 0.3136(4) 0.2854(10) 0.437(3)
C2 C 0.2706(3) 0.1871(12) 0.541(3)
C3 C 0.3095(4) 0.4301(10) 0.490(3)
C4 C 0.3481(3) 0.5201(9) 0.407(3)
C5 C 0.3935(3) 0.4630(8) 0.260(5)
C6 C 0.4368(4) 0.5490(9) 0.150(2)
C7 C 0.4796(3) 0.4860(11) 0.016(3)
C8 C 0.4815(3) 0.3392(12) -0.037(3)
C9 C 0.4409(4) 0.2548(9) 0.050(3)
C10 C 0.3960(3) 0.3158(8) 0.208(4)
H1 H 0.286 0.115 0.640
H2 H 0.252 0.155 0.341
H3 H 0.248 0.230 0.703
H4 H 0.278 0.469 0.600
H5 H 0.345 0.623 0.454
H6 H 0.435 0.654 0.185
H7 H 0.509 0.546 -0.052
H8 H 0.513 0.297 -0.140
H9 H 0.443 0.151 0.012
Cu1_2 Cu 0.36482(4) 0.0180(1) -0.7396(6)
Cl1_2 Cl 0.37162(9) -0.1126(2) 0.7693(11)
loop_
_geom_bond_atom_site_label_1
_geom_bond_atom_site_label_2
_geom_bond_site_symmetry_1
_geom_bond_site_symmetry_2
Cl1 Cu1 1_555 1_555
Cu1 N1 1_555 1_555
N1 C1 1_555 1_555
C1 C2 1_555 1_555
C2 H1 1_555 1_555
C3 C1 1_555 1_555
C4 C3 1_555 1_555
C5 C4 1_555 1_555
C6 C5 1_555 1_555
C7 C6 1_555 1_555
C8 C7 1_555 1_555
C9 C8 1_555 1_555
C10 N1 1_555 1_555
H2 C2 1_555 1_555
H3 C2 1_555 1_555
H4 C3 1_555 1_555
H5 C4 1_555 1_555
H6 C6 1_555 1_555
H7 C7 1_555 1_555
H8 C8 1_555 1_555
H9 C9 1_555 1_555
Cu1_2 Cl1 1_555 1_555
Cl1_2 Cu1 1_555 1_555
C5 C10 1_555 1_555
C9 C10 1_555 1_555

#END
