
#######################################################################
#
#                 Cambridge Crystallographic Data Centre
#                                CCDC 
#
#######################################################################
#
# If this CIF has been generated from an entry in the Cambridge 
# Structural Database, then it will include bibliographic, chemical, 
# crystal, experimental, refinement or atomic coordinate data resulting 
# from the CCDC's data processing and validation procedures.
#
#######################################################################

data_SAWWAO
_symmetry_cell_setting           orthorhombic
_symmetry_space_group_name_H-M   'P n 21 a'
_symmetry_Int_Tables_number      33
_space_group_name_Hall           'P -2ac -2n'
loop_
_symmetry_equiv_pos_site_id
_symmetry_equiv_pos_as_xyz
1 x,y,z
2 1/2-x,1/2+y,1/2+z
3 1/2+x,y,1/2-z
4 -x,1/2+y,-z
_cell_length_a                   25.205(8)
_cell_length_b                   9.735(3)
_cell_length_c                   3.898(2)
_cell_angle_alpha                90
_cell_angle_beta                 90
_cell_angle_gamma                90
_cell_volume                     956.455
loop_
_atom_site_label
_atom_site_type_symbol
_atom_site_fract_x
_atom_site_fract_y
_atom_site_fract_z
Br1 Br 0.1352(2) 0.1403(4) 0.5735(10)
Cu1 Cu 0.1376(2) 0.0000 0.074(1)
N1 N 0.1450(9) -0.198(2) 0.095(7)
C1 C 0.187(1) -0.265(4) 0.219(10)
C2 C 0.230(1) -0.180(4) 0.345(7)
C3 C 0.191(1) -0.408(5) 0.221(11)
C4 C 0.151(1) -0.477(3) 0.127(8)
C5 C 0.103(1) -0.419(4) -0.011(8)
C6 C 0.060(1) -0.491(4) -0.135(8)
C7 C 0.017(1) -0.441(4) -0.258(11)
C8 C 0.015(2) -0.295(5) -0.276(11)
C9 C 0.057(1) -0.217(4) -0.162(8)
C10 C 0.103(1) -0.274(3) -0.025(9)
H1 H 0.224 -0.082 0.311
H2 H 0.236 -0.196 0.580
H3 H 0.263 -0.206 0.223
H4 H 0.224 -0.445 0.325
H5 H 0.156 -0.577 0.127
H6 H 0.062 -0.593 -0.125
H7 H -0.013 -0.491 -0.339
H8 H -0.014 -0.238 -0.376
H9 H 0.058 -0.119 -0.172
Cu1_2 Cu 0.1376(2) 0.0000 1.074(1)
Br1_2 Br 0.1352(2) 0.1403(4) -0.4265(10)
loop_
_geom_bond_atom_site_label_1
_geom_bond_atom_site_label_2
_geom_bond_site_symmetry_1
_geom_bond_site_symmetry_2
Br1 Cu1 1_555 1_555
Cu1 N1 1_555 1_555
N1 C1 1_555 1_555
C1 C2 1_555 1_555
C2 H1 1_555 1_555
C3 C1 1_555 1_555
C4 C3 1_555 1_555
C5 C4 1_555 1_555
C6 C5 1_555 1_555
C7 C6 1_555 1_555
C8 C7 1_555 1_555
C9 C8 1_555 1_555
C10 N1 1_555 1_555
H2 C2 1_555 1_555
H3 C2 1_555 1_555
H4 C3 1_555 1_555
H5 C4 1_555 1_555
H6 C6 1_555 1_555
H7 C7 1_555 1_555
H8 C8 1_555 1_555
H9 C9 1_555 1_555
Cu1_2 Br1 1_555 1_555
Br1_2 Cu1 1_555 1_555
C5 C10 1_555 1_555
C9 C10 1_555 1_555

#END
