
#######################################################################
#
#                 Cambridge Crystallographic Data Centre
#                                CCDC 
#
#######################################################################
#
# If this CIF has been generated from an entry in the Cambridge 
# Structural Database, then it will include bibliographic, chemical, 
# crystal, experimental, refinement or atomic coordinate data resulting 
# from the CCDC's data processing and validation procedures.
#
#######################################################################

data_SAWWOC
_symmetry_cell_setting           orthorhombic
_symmetry_space_group_name_H-M   'P b 21 a'
_symmetry_Int_Tables_number      29
_space_group_name_Hall           'P -2a -2ab'
loop_
_symmetry_equiv_pos_site_id
_symmetry_equiv_pos_as_xyz
1 x,y,z
2 1/2-x,1/2+y,z
3 1/2+x,y,-z
4 -x,1/2+y,-z
_cell_length_a                   14.67(1)
_cell_length_b                   14.65(1)
_cell_length_c                   3.963(3)
_cell_angle_alpha                90
_cell_angle_beta                 90
_cell_angle_gamma                90
_cell_volume                     851.71
loop_
_atom_site_label
_atom_site_type_symbol
_atom_site_fract_x
_atom_site_fract_y
_atom_site_fract_z
Br1 Br 0.2278(1) 0.0000 0.0395(4)
Cu1 Cu 0.1656(1) 0.0697(2) -0.4271(5)
N1 N 0.0798(9) 0.1640(7) -0.579(3)
C1 C 0.110(1) 0.251(1) -0.645(4)
C2 C 0.204(1) 0.270(1) -0.549(4)
C3 C 0.054(2) 0.314(1) -0.790(6)
C4 C -0.031(2) 0.291(2) -0.879(6)
C5 C -0.064(1) 0.205(1) -0.817(5)
C6 C -0.003(1) 0.142(1) -0.664(4)
C7 C -0.030(1) 0.044(1) -0.601(5)
H1 H 0.205 0.284 -0.287
H2 H 0.212 0.344 -0.601
H3 H 0.247 0.240 -0.615
H4 H 0.064 0.355 -0.919
H5 H -0.081 0.328 -0.996
H6 H -0.127 0.180 -0.876
H7 H -0.086 0.053 -0.464
H8 H -0.043 0.012 -0.803
H9 H 0.015 0.012 -0.475
Cu1_2 Cu 0.1656(1) 0.0697(2) 0.5729(5)
Br1_2 Br 0.2278(1) 0.0000 -0.9605(4)
loop_
_geom_bond_atom_site_label_1
_geom_bond_atom_site_label_2
_geom_bond_site_symmetry_1
_geom_bond_site_symmetry_2
Br1 Cu1 1_555 1_555
Cu1 N1 1_555 1_555
N1 C1 1_555 1_555
C1 C2 1_555 1_555
C2 H1 1_555 1_555
C3 C1 1_555 1_555
C4 C3 1_555 1_555
C5 C4 1_555 1_555
C6 N1 1_555 1_555
C7 C6 1_555 1_555
H2 C2 1_555 1_555
H3 C2 1_555 1_555
H4 C3 1_555 1_555
H5 C4 1_555 1_555
H6 C5 1_555 1_555
H7 C7 1_555 1_555
H8 C7 1_555 1_555
H9 C7 1_555 1_555
Cu1_2 Br1 1_555 1_555
Br1_2 Cu1 1_555 1_555
C5 C6 1_555 1_555

#END
