
#######################################################################
#
#                 Cambridge Crystallographic Data Centre
#                                CCDC 
#
#######################################################################
#
# If this CIF has been generated from an entry in the Cambridge 
# Structural Database, then it will include bibliographic, chemical, 
# crystal, experimental, refinement or atomic coordinate data resulting 
# from the CCDC's data processing and validation procedures.
#
#######################################################################

data_SAWXET
_symmetry_cell_setting           orthorhombic
_symmetry_space_group_name_H-M   'P b 21 a'
_symmetry_Int_Tables_number      29
_space_group_name_Hall           'P -2a -2ab'
loop_
_symmetry_equiv_pos_site_id
_symmetry_equiv_pos_as_xyz
1 x,y,z
2 1/2-x,1/2+y,z
3 1/2+x,y,-z
4 -x,1/2+y,-z
_cell_length_a                   16.134(7)
_cell_length_b                   14.604(10)
_cell_length_c                   3.963(2)
_cell_angle_alpha                90
_cell_angle_beta                 90
_cell_angle_gamma                90
_cell_volume                     933.766
loop_
_atom_site_label
_atom_site_type_symbol
_atom_site_fract_x
_atom_site_fract_y
_atom_site_fract_z
Br1 Br -0.0951(2) 0.5000 -0.1631(9)
Cu1 Cu -0.0214(3) 0.4498(4) 0.2960(13)
N1 N 0.073(2) 0.375(2) 0.468(6)
C1 C 0.145(3) 0.420(2) 0.517(10)
C2 C 0.154(2) 0.524(3) 0.443(10)
C3 C 0.209(2) 0.376(2) 0.700(9)
C4 C 0.202(2) 0.286(2) 0.779(9)
C5 C 0.270(3) 0.236(3) 0.970(10)
C6 C 0.129(2) 0.241(2) 0.709(9)
C7 C 0.070(2) 0.288(3) 0.534(9)
C8 C -0.014(2) 0.243(2) 0.449(10)
H1 H 0.120 0.527 0.235
H2 H 0.210 0.535 0.389
H3 H 0.132 0.556 0.603
H4 H 0.260 0.405 0.759
H5 H 0.306 0.277 1.060
H6 H 0.301 0.196 0.811
H7 H 0.249 0.196 1.149
H8 H 0.118 0.171 0.789
H9 H -0.057 0.270 0.575
H10 H -0.027 0.252 0.208
H11 H -0.019 0.177 0.477
Cu1_2 Cu -0.0214(3) 0.4498(4) -0.7040(13)
Br1_2 Br -0.0951(2) 0.5000 0.8369(9)
loop_
_geom_bond_atom_site_label_1
_geom_bond_atom_site_label_2
_geom_bond_site_symmetry_1
_geom_bond_site_symmetry_2
Br1 Cu1 1_555 1_555
Cu1 N1 1_555 1_555
N1 C1 1_555 1_555
C1 C2 1_555 1_555
C2 H1 1_555 1_555
C3 C1 1_555 1_555
C4 C3 1_555 1_555
C5 C4 1_555 1_555
C6 C4 1_555 1_555
C7 N1 1_555 1_555
C8 C7 1_555 1_555
H2 C2 1_555 1_555
H3 C2 1_555 1_555
H4 C3 1_555 1_555
H5 C5 1_555 1_555
H6 C5 1_555 1_555
H7 C5 1_555 1_555
H8 C6 1_555 1_555
H9 C8 1_555 1_555
H10 C8 1_555 1_555
H11 C8 1_555 1_555
Cu1_2 Br1 1_555 1_555
Br1_2 Cu1 1_555 1_555
C6 C7 1_555 1_555

#END
