
#######################################################################
#
#                 Cambridge Crystallographic Data Centre
#                                CCDC 
#
#######################################################################
#
# If this CIF has been generated from an entry in the Cambridge 
# Structural Database, then it will include bibliographic, chemical, 
# crystal, experimental, refinement or atomic coordinate data resulting 
# from the CCDC's data processing and validation procedures.
#
#######################################################################

data_SAXCUP
_symmetry_cell_setting           triclinic
_symmetry_space_group_name_H-M   'P -1'
_symmetry_Int_Tables_number      2
_space_group_name_Hall           '-P 1'
loop_
_symmetry_equiv_pos_site_id
_symmetry_equiv_pos_as_xyz
1 x,y,z
2 -x,-y,-z
_cell_length_a                   9.901(2)
_cell_length_b                   13.314(3)
_cell_length_c                   9.555(2)
_cell_angle_alpha                100.34(3)
_cell_angle_beta                 117.81(3)
_cell_angle_gamma                69.25(3)
_cell_volume                     1041.66
loop_
_atom_site_label
_atom_site_type_symbol
_atom_site_fract_x
_atom_site_fract_y
_atom_site_fract_z
Cr1 Cr 0.34908(7) 0.38580(5) 0.24387(7)
Cr2 Cr 0.51435(7) 0.12937(5) 0.29193(7)
Cu1 Cu 1.00000 0.00000 0.5000
Cu2 Cu 0.5000 0.5000 0.00000
N1 N 1.0039(4) -0.1366(2) 0.3710(4)
N2 N 0.9377(5) -0.2500(3) 0.1767(5)
H1 H 0.8808 -0.2775 0.0899
N3 N 0.9792(4) -0.0616(3) 0.6624(4)
N4 N 0.8761(5) -0.1019(3) 0.7935(5)
H2 H 0.8055 -0.1097 0.8155
N5 N 0.2723(4) 0.5587(3) -0.1610(4)
N6 N 0.0140(5) 0.5897(4) -0.2877(5)
H3 H -0.0894 0.5925 -0.3107
N7 N 0.4953(4) 0.6430(2) 0.1100(4)
N8 N 0.5081(5) 0.7699(3) 0.2905(5)
H4 H 0.5178 0.8023 0.3795
O1 O 0.1894(3) 0.3665(2) 0.1011(3)
O2 O 0.4027(4) 0.4675(2) 0.1906(4)
O3 O 0.3119(4) 0.4315(3) 0.3932(3)
O4 O 0.5103(3) 0.2634(2) 0.2917(4)
O5 O 0.6959(4) 0.0552(2) 0.3331(4)
O6 O 0.3884(4) 0.0984(3) 0.1228(3)
O7 O 0.4655(4) 0.1185(3) 0.4251(3)
C1 C 0.8888(6) -0.1549(4) 0.2372(5)
H5 H 0.7857 -0.1068 0.1909
C2 C 1.0910(7) -0.2960(4) 0.2744(7)
H6 H 1.1570 -0.3632 0.2616
C3 C 1.1314(6) -0.2259(4) 0.3952(6)
H7 H 1.2315 -0.2373 0.4819
C4 C 0.8475(6) -0.0647(4) 0.6592(6)
H8 H 0.7466 -0.0435 0.5738
C5 C 1.0330(7) -0.1251(5) 0.8883(6)
H9 H 1.0873 -0.1534 0.9893
C6 C 1.0960(6) -0.0996(5) 0.8088(6)
H10 H 1.2041 -0.1065 0.8471
C7 C 0.1433(6) 0.5533(4) -0.1578(6)
H11 H 0.1442 0.5269 -0.0735
C8 C 0.0552(6) 0.6215(5) -0.3801(6)
H12 H -0.0082 0.6491 -0.4721
C9 C 0.2162(6) 0.6027(4) -0.3038(5)
H13 H 0.2781 0.6172 -0.3422
C10 C 0.5124(7) 0.6670(4) 0.2551(5)
H14 H 0.5258 0.6194 0.3242
C11 C 0.4860(7) 0.8136(4) 0.1619(7)
H15 H 0.4778 0.8840 0.1521
C12 C 0.4779(6) 0.7357(3) 0.0509(5)
H16 H 0.4628 0.7432 -0.0507
N5A N 0.7277(4) 0.4413(3) 0.1610(4)
C7A C 0.8567(6) 0.4467(4) 0.1578(6)
N6A N 0.9860(5) 0.4103(4) 0.2877(5)
H3A H 1.0894 0.4075 0.3107
C8A C 0.9448(6) 0.3785(5) 0.3801(6)
H12A H 1.0082 0.3509 0.4721
C9A C 0.7838(6) 0.3973(4) 0.3038(5)
H13A H 0.7219 0.3828 0.3422
H11A H 0.8558 0.4731 0.0735
N7A N 0.5047(4) 0.3570(2) -0.1100(4)
C10A C 0.4876(7) 0.3330(4) -0.2551(5)
N8A N 0.4919(5) 0.2301(3) -0.2905(5)
H4A H 0.4822 0.1977 -0.3795
C11A C 0.5140(7) 0.1864(4) -0.1619(7)
H15A H 0.5222 0.1160 -0.1521
C12A C 0.5221(6) 0.2643(3) -0.0509(5)
H16A H 0.5372 0.2568 0.0507
H14A H 0.4742 0.3806 -0.3242
O2A O 0.5973(4) 0.5325(2) -0.1906(4)
Cr1A Cr 0.65092(7) 0.61420(5) -0.24387(7)
O1A O 0.8106(3) 0.6335(2) -0.1011(3)
O3A O 0.6881(4) 0.5685(3) -0.3932(3)
O4A O 0.4897(3) 0.7366(2) -0.2917(4)
Cr2A Cr 0.48565(7) 0.87063(5) -0.29193(7)
O5A O 0.3041(4) 0.9448(2) -0.3331(4)
Cu1A Cu 0.00000 1.00000 -0.5000
O6A O 0.6116(4) 0.9016(3) -0.1228(3)
O7A O 0.5345(4) 0.8815(3) -0.4251(3)
N1A N 0.9961(4) 0.1366(2) 0.6290(4)
C1A C 1.1112(6) 0.1549(4) 0.7628(5)
N2A N 1.0623(5) 0.2500(3) 0.8233(5)
H1A H 1.1192 0.2775 0.9101
C2A C 0.9090(7) 0.2960(4) 0.7256(7)
H6A H 0.8430 0.3632 0.7384
C3A C 0.8686(6) 0.2259(4) 0.6048(6)
H7A H 0.7685 0.2373 0.5181
H5A H 1.2143 0.1068 0.8091
N3A N 1.0208(4) 0.0616(3) 0.3376(4)
C4A C 1.1525(6) 0.0647(4) 0.3408(6)
N4A N 1.1239(5) 0.1019(3) 0.2065(5)
H2A H 1.1945 0.1097 0.1845
C5A C 0.9670(7) 0.1251(5) 0.1117(6)
H9A H 0.9127 0.1534 0.0107
C6A C 0.9040(6) 0.0996(5) 0.1912(6)
H10A H 0.7959 0.1065 0.1529
H8A H 1.2534 0.0435 0.4262
O5A_2 O 1.3041(4) -0.0552(2) 0.6669(4)
loop_
_geom_bond_atom_site_label_1
_geom_bond_atom_site_label_2
_geom_bond_site_symmetry_1
_geom_bond_site_symmetry_2
Cr1 O1 1_555 1_555
Cr2 O4 1_555 1_555
Cu1 N1 1_555 1_555
Cu2 N5 1_555 1_555
N1 C1 1_555 1_555
N2 H1 1_555 1_555
N3 Cu1 1_555 1_555
N4 H2 1_555 1_555
N5 C7 1_555 1_555
N6 H3 1_555 1_555
N7 Cu2 1_555 1_555
N8 H4 1_555 1_555
O2 Cr1 1_555 1_555
O3 Cr1 1_555 1_555
O4 Cr1 1_555 1_555
O5 Cr2 1_555 1_555
O6 Cr2 1_555 1_555
O7 Cr2 1_555 1_555
C1 N2 1_555 1_555
H5 C1 1_555 1_555
C2 N2 1_555 1_555
H6 C2 1_555 1_555
C3 N1 1_555 1_555
H7 C3 1_555 1_555
C4 N3 1_555 1_555
H8 C4 1_555 1_555
C5 N4 1_555 1_555
H9 C5 1_555 1_555
C6 N3 1_555 1_555
H10 C6 1_555 1_555
C7 N6 1_555 1_555
H11 C7 1_555 1_555
C8 N6 1_555 1_555
H12 C8 1_555 1_555
C9 N5 1_555 1_555
H13 C9 1_555 1_555
C10 N7 1_555 1_555
H14 C10 1_555 1_555
C11 N8 1_555 1_555
H15 C11 1_555 1_555
C12 N7 1_555 1_555
H16 C12 1_555 1_555
N5A Cu2 1_555 1_555
C7A N5A 1_555 1_555
N6A C7A 1_555 1_555
H3A N6A 1_555 1_555
C8A N6A 1_555 1_555
H12A C8A 1_555 1_555
C9A N5A 1_555 1_555
H13A C9A 1_555 1_555
H11A C7A 1_555 1_555
N7A Cu2 1_555 1_555
C10A N7A 1_555 1_555
N8A C10A 1_555 1_555
H4A N8A 1_555 1_555
C11A N8A 1_555 1_555
H15A C11A 1_555 1_555
C12A N7A 1_555 1_555
H16A C12A 1_555 1_555
H14A C10A 1_555 1_555
O2A Cu2 1_555 1_555
Cr1A O2A 1_555 1_555
O1A Cr1A 1_555 1_555
O3A Cr1A 1_555 1_555
O4A Cr1A 1_555 1_555
Cr2A O4A 1_555 1_555
O5A Cr2A 1_555 1_555
Cu1A O5A 1_555 1_555
O6A Cr2A 1_555 1_555
O7A Cr2A 1_555 1_555
N1A Cu1 1_555 1_555
C1A N1A 1_555 1_555
N2A C1A 1_555 1_555
H1A N2A 1_555 1_555
C2A N2A 1_555 1_555
H6A C2A 1_555 1_555
C3A N1A 1_555 1_555
H7A C3A 1_555 1_555
H5A C1A 1_555 1_555
N3A Cu1 1_555 1_555
C4A N3A 1_555 1_555
N4A C4A 1_555 1_555
H2A N4A 1_555 1_555
C5A N4A 1_555 1_555
H9A C5A 1_555 1_555
C6A N3A 1_555 1_555
H10A C6A 1_555 1_555
H8A C4A 1_555 1_555
O5A_2 Cu1 1_555 1_555
Cu1 O5 1_555 1_555
Cu2 O2 1_555 1_555
N4 C4 1_555 1_555
N8 C10 1_555 1_555
C2 C3 1_555 1_555
C5 C6 1_555 1_555
C8 C9 1_555 1_555
C11 C12 1_555 1_555
C8A C9A 1_555 1_555
C11A C12A 1_555 1_555
C2A C3A 1_555 1_555
C5A C6A 1_555 1_555

#END
