
#######################################################################
#
#                 Cambridge Crystallographic Data Centre
#                                CCDC 
#
#######################################################################
#
# If this CIF has been generated from an entry in the Cambridge 
# Structural Database, then it will include bibliographic, chemical, 
# crystal, experimental, refinement or atomic coordinate data resulting 
# from the CCDC's data processing and validation procedures.
#
#######################################################################

data_SAXDOL
_symmetry_cell_setting           monoclinic
_symmetry_space_group_name_H-M   'P 21'
_symmetry_Int_Tables_number      4
_space_group_name_Hall           'P 2yb'
loop_
_symmetry_equiv_pos_site_id
_symmetry_equiv_pos_as_xyz
1 x,y,z
2 -x,1/2+y,-z
_cell_length_a                   8.7743(3)
_cell_length_b                   9.4828(3)
_cell_length_c                   9.1670(3)
_cell_angle_alpha                90
_cell_angle_beta                 113.609(2)
_cell_angle_gamma                90
_cell_volume                     698.898
loop_
_atom_site_label
_atom_site_type_symbol
_atom_site_fract_x
_atom_site_fract_y
_atom_site_fract_z
Cd1 Cd 0.5120(9) 0.192(3) 0.7580(8)
Cd2 Cd 0.4108(6) 0.5719(6) 0.6427(6)
Cd3 Cd 0.6079(6) -0.1603(7) 0.8837(6)
P1 P 0.652(2) 0.4047(14) 0.517(2)
P2 P 0.397(2) -0.0050(14) 0.989(3)
O1 O 0.538(4) 0.3717(18) 0.602(4)
O2 O 0.389(4) -0.0003(17) 0.820(4)
O3 O 0.601(4) 0.3140(17) 0.368(5)
O4 O 0.485(4) 0.1234(17) 1.083(4)
O5 O -0.269(5) 0.0360(18) 0.830(5)
O6 O -0.111(4) -0.1430(17) 0.951(4)
O7 O 0.632(4) 0.5606(18) 0.465(4)
O8 O 1.237(4) 0.6306(17) 0.767(4)
O9 O 0.305(5) 0.3568(17) 0.675(4)
C1 C 0.868(7) 0.3789(19) 0.639(6)
C2 C 0.189(7) -0.0151(18) 0.980(6)
C3 C 1.006(6) 0.4902(19) 0.724(7)
C4 C 0.014(6) 0.0558(19) 0.912(6)
C5 C -0.130(6) -0.0013(19) 0.950(7)
C6 C 1.083(6) 0.6378(19) 0.775(7)
O10 O 0.492(4) -0.1375(17) 1.068(4)
O11 O 0.167(4) 0.5696(17) 0.417(4)
O12 O 0.990(4) 0.7249(18) 0.654(4)
Cd1_2 Cd -0.4880(9) 0.192(3) 0.7580(8)
Cd1A Cd 0.4880(9) 0.692(3) 0.2420(8)
Cd1A_2 Cd 0.4880(9) -0.308(3) 1.2420(8)
Cd2A Cd 0.5892(6) 0.0719(6) 0.3573(6)
Cd2A_2 Cd 0.5892(6) 0.0719(6) 1.3573(6)
Cd2_2 Cd 1.4108(6) 0.5719(6) 0.6427(6)
Cd3A Cd 0.3921(6) 0.3397(7) 0.1163(6)
Cd3A_2 Cd 0.3921(6) 0.3397(7) 1.1163(6)
Cd3_2 Cd -0.3921(6) -0.1603(7) 0.8837(6)
O3A O 0.399(4) 0.8140(17) 0.632(5)
O3A_2 O 0.399(4) -0.1860(17) 0.632(5)
O4A O 0.515(4) 0.6234(17) 0.917(4)
O4A_2 O 0.515(4) -0.3766(17) 0.917(4)
O5_2 O 0.731(5) 0.0360(18) 0.830(5)
O6_2 O 0.889(4) -0.1430(17) 0.951(4)
O7A O 0.368(4) 0.0606(18) 0.535(4)
O8_2 O 0.237(4) 0.6306(17) 0.767(4)
O10A O 0.508(4) 0.3625(17) 0.932(4)
loop_
_geom_bond_atom_site_label_1
_geom_bond_atom_site_label_2
_geom_bond_site_symmetry_1
_geom_bond_site_symmetry_2
Cd1 O1 1_555 1_555
Cd2 O1 1_555 1_555
Cd3 O2 1_555 1_555
P1 O1 1_555 1_555
P2 O2 1_555 1_555
O2 Cd1 1_555 1_555
O3 P1 1_555 1_555
O4 P2 1_555 1_555
O5 C5 1_555 1_555
O6 C5 1_555 1_555
O7 P1 1_555 1_555
O8 C6 1_555 1_555
O9 Cd1 1_555 1_555
C1 P1 1_555 1_555
C2 P2 1_555 1_555
C3 C1 1_555 1_555
C4 C2 1_555 1_555
C5 C4 1_555 1_555
C6 C3 1_555 1_555
O10 Cd3 1_555 1_555
O11 Cd2 1_555 1_555
O12 C6 1_555 1_555
Cd1_2 O5 1_555 1_555
Cd1A O7 1_555 1_555
Cd1A_2 O10 1_555 1_555
Cd2A O3 1_555 1_555
Cd2A_2 O4 1_555 1_555
Cd2_2 O8 1_555 1_555
Cd3A O3 1_555 1_555
Cd3A_2 O4 1_555 1_555
Cd3_2 O5 1_555 1_555
O3A Cd2 1_555 1_555
O3A_2 Cd3 1_555 1_555
O4A Cd2 1_555 1_555
O4A_2 Cd3 1_555 1_555
O5_2 Cd1 1_555 1_555
O6_2 Cd3 1_555 1_555
O7A Cd1 1_555 1_555
O8_2 Cd2 1_555 1_555
O10A Cd1 1_555 1_555
Cd2 O9 1_555 1_555
Cd3 O5_2 1_555 1_555
P2 O10 1_555 1_555
O6 Cd3_2 1_555 1_555
Cd3A_2 O10A 1_555 1_555

#END
