
#######################################################################
#
#                 Cambridge Crystallographic Data Centre
#                                CCDC 
#
#######################################################################
#
# If this CIF has been generated from an entry in the Cambridge 
# Structural Database, then it will include bibliographic, chemical, 
# crystal, experimental, refinement or atomic coordinate data resulting 
# from the CCDC's data processing and validation procedures.
#
#######################################################################

data_SAXDOK
_symmetry_cell_setting           monoclinic
_symmetry_space_group_name_H-M   'P 21/n'
_symmetry_Int_Tables_number      14
_space_group_name_Hall           '-P 2yn'
loop_
_symmetry_equiv_pos_site_id
_symmetry_equiv_pos_as_xyz
1 x,y,z
2 1/2-x,1/2+y,1/2-z
3 -x,-y,-z
4 1/2+x,1/2-y,1/2+z
_cell_length_a                   3.9110(3)
_cell_length_b                   26.645(3)
_cell_length_c                   10.6753(12)
_cell_angle_alpha                90
_cell_angle_beta                 98.234(9)
_cell_angle_gamma                90
_cell_volume                     1100.99
loop_
_atom_site_label
_atom_site_type_symbol
_atom_site_fract_x
_atom_site_fract_y
_atom_site_fract_z
Hg1 Hg 0.6116(3) 0.57196(5) 0.42110(10)
Cl1 Cl 0.2112(16) 0.5099(3) 0.3429(6)
Cl2 Cl 1.0247(17) 0.6236(3) 0.5346(6)
N1 N 0.226(7) 0.6963(12) 0.0416(20)
N2 N 0.492(6) 0.6322(14) 0.2266(20)
C1 C 0.214(11) 0.7072(18) 0.149(4)
C2 C 0.110(9) 0.7613(15) 0.185(3)
C3 C 0.356(8) 0.6783(15) 0.257(3)
C4 C 0.495(8) 0.6149(14) 0.109(3)
C5 C 0.619(8) 0.5759(15) 0.078(3)
C6 C 0.628(10) 0.5588(16) -0.051(4)
C7 C 0.485(8) 0.5888(13) -0.143(3)
C8 C 0.349(10) 0.6338(17) -0.116(4)
C9 C 0.354(7) 0.6521(12) -0.002(3)
H1 H 0.1412 0.7409 0.2738
H2 H -0.1615 0.7680 0.1545
H3 H 0.2440 0.7968 0.1985
H4 H 0.3547 0.6909 0.3529
H5 H 0.7346 0.5515 0.1533
H6 H 0.7422 0.5233 -0.0700
H7 H 0.4829 0.5777 -0.2402
H8 H 0.2226 0.6561 -0.1935
Cl1_2 Cl 1.2112(16) 0.5099(3) 0.3429(6)
Cl2_2 Cl 0.0247(17) 0.6236(3) 0.5346(6)
Hg1_2 Hg -0.3884(3) 0.57196(5) 0.42110(10)
Hg1_3 Hg 1.6116(3) 0.57196(5) 0.42110(10)
loop_
_geom_bond_atom_site_label_1
_geom_bond_atom_site_label_2
_geom_bond_site_symmetry_1
_geom_bond_site_symmetry_2
Hg1 Cl1 1_555 1_555
Cl1 Hg1_2 1_555 1_555
Cl2 Hg1 1_555 1_555
N1 C1 1_555 1_555
N2 Hg1 1_555 1_555
C1 C2 1_555 1_555
C2 H1 1_555 1_555
C3 N2 1_555 1_555
C4 N2 1_555 1_555
C5 C4 1_555 1_555
C6 C5 1_555 1_555
C7 C6 1_555 1_555
C8 C7 1_555 1_555
C9 N1 1_555 1_555
H2 C2 1_555 1_555
H3 C2 1_555 1_555
H4 C3 1_555 1_555
H5 C5 1_555 1_555
H6 C6 1_555 1_555
H7 C7 1_555 1_555
H8 C8 1_555 1_555
Cl1_2 Hg1 1_555 1_555
Cl2_2 Hg1 1_555 1_555
Hg1_3 Cl2 1_555 1_555
C1 C3 1_555 1_555
C4 C9 1_555 1_555
C8 C9 1_555 1_555

#END
