
#######################################################################
#
#                 Cambridge Crystallographic Data Centre
#                                CCDC 
#
#######################################################################
#
# If this CIF has been generated from an entry in the Cambridge 
# Structural Database, then it will include bibliographic, chemical, 
# crystal, experimental, refinement or atomic coordinate data resulting 
# from the CCDC's data processing and validation procedures.
#
#######################################################################

data_SAXFII
_symmetry_cell_setting           orthorhombic
_symmetry_space_group_name_H-M   'P b c a'
_symmetry_Int_Tables_number      61
_space_group_name_Hall           '-P 2ac 2ab'
loop_
_symmetry_equiv_pos_site_id
_symmetry_equiv_pos_as_xyz
1 x,y,z
2 1/2-x,-y,1/2+z
3 1/2+x,1/2-y,-z
4 -x,1/2+y,1/2-z
5 -x,-y,-z
6 1/2+x,y,1/2-z
7 1/2-x,1/2+y,z
8 x,1/2-y,1/2+z
_cell_length_a                   9.7939(7)
_cell_length_b                   21.6880(17)
_cell_length_c                   27.677(2)
_cell_angle_alpha                90
_cell_angle_beta                 90
_cell_angle_gamma                90
_cell_volume                     5878.87
loop_
_atom_site_label
_atom_site_type_symbol
_atom_site_fract_x
_atom_site_fract_y
_atom_site_fract_z
Cd1 Cd 0.67105(3) 0.477291(11) 0.643778(9)
Cd2 Cd 0.79653(3) 0.340914(11) 0.458178(9)
N1 N 0.3428(3) 0.59486(13) 0.58116(11)
O1 O 0.0711(3) 0.49905(13) 0.62510(12)
O2 O 0.0639(3) 0.57859(14) 0.57533(11)
O3 O 0.4660(3) 0.44207(12) 0.68322(9)
N2 N 0.6433(3) 0.27862(13) 0.49874(10)
O4 O 0.4322(3) 0.31408(13) 0.63404(10)
O5 O 0.7516(3) 0.38680(12) 0.53454(9)
O6 O 0.3301(3) 0.22772(14) 0.61290(10)
O7 O 0.8076(3) 0.49605(14) 0.57832(12)
O8 O 0.6046(3) 0.38673(11) 0.59606(9)
N3 N 0.4995(3) 0.53701(13) 0.61850(11)
N4 N 0.4817(3) 0.21710(13) 0.52909(10)
O9 O 0.2412(3) 0.44116(13) 0.67296(11)
N5 N 1.2088(3) 0.90196(14) 0.81821(12)
C1 C 0.5985(3) 0.30374(14) 0.54127(11)
C2 C 0.2771(3) 0.54937(16) 0.60613(13)
N6 N 0.7629(3) 0.55526(14) 0.69307(12)
C3 C 0.5699(4) 0.22652(15) 0.49302(12)
C4 C 0.3737(4) 0.51425(15) 0.62950(13)
C5 C 0.6559(4) 0.36304(15) 0.55842(13)
C6 C 0.5844(4) 0.18326(18) 0.45160(14)
H1 H 0.6327 0.2040 0.4257
H2 H 0.4942 0.1725 0.4398
C7 C 0.4769(3) 0.58577(16) 0.58932(14)
C8 C 0.8747(5) 0.65575(17) 0.74273(15)
C9 C 0.4983(4) 0.26577(15) 0.55997(12)
C10 C 1.0800(4) 0.80179(17) 0.77486(14)
C11 C 0.9315(5) 0.70901(18) 0.76899(16)
H3 H 0.9032 0.7152 0.8007
C12 C 0.3632(4) 0.46260(17) 0.66388(14)
C13 C 0.1275(4) 0.54295(17) 0.60197(14)
C14 C 1.1865(5) 0.83200(19) 0.75242(16)
H4 H 1.2159 0.8196 0.7220
C15 C 1.2491(5) 0.88099(19) 0.77556(14)
H5 H 1.3227 0.9001 0.7605
C16 C 0.5862(4) 0.6260(2) 0.56987(17)
H6 H 0.5628 0.6380 0.5371
H7 H 0.6708 0.6029 0.5685
C17 C 0.8493(4) 0.5948(2) 0.67135(17)
H8 H 0.8716 0.5882 0.6391
C18 C 1.0189(5) 0.74817(19) 0.75072(15)
H9 H 1.0452 0.7413 0.7189
C19 C 0.7855(5) 0.6154(2) 0.76465(16)
H10 H 0.7606 0.6213 0.7967
C20 C 1.1015(5) 0.87432(18) 0.83908(15)
H11 H 1.0703 0.8896 0.8685
C21 C 0.7332(5) 0.5663(2) 0.73886(17)
H12 H 0.6738 0.5395 0.7546
C22 C 0.9056(5) 0.6443(2) 0.69473(17)
H13 H 0.9649 0.6704 0.6783
C23 C 1.0358(5) 0.8247(2) 0.81928(16)
H14 H 0.9625 0.8065 0.8352
C24 C 0.4149(4) 0.26789(18) 0.60425(13)
C25 C 0.6602(7) 0.1246(2) 0.4646(2)
H15 H 0.7494 0.1349 0.4765
H16 H 0.6687 0.0991 0.4364
H17 H 0.6105 0.1027 0.4891
C26 C 0.6085(6) 0.6838(2) 0.5998(3)
H18 H 0.5244 0.7063 0.6022
H19 H 0.6765 0.7091 0.5847
H20 H 0.6389 0.6724 0.6316
H21 H 0.798(6) 0.468(3) 0.558(2)
H22 H 0.889(3) 0.506(3) 0.582(2)
Cd1D Cd 0.32895(3) 0.522709(11) 0.356222(9)
Cd1C Cd 1.32895(3) 0.977291(11) 0.856222(9)
Cd1G Cd -0.32895(3) 0.022709(11) 0.143778(9)
Cd2D Cd 0.20347(3) 0.659086(11) 0.541822(9)
Cd2B Cd 0.29653(3) 0.159086(11) 0.541822(9)
Cd2F Cd 0.70347(3) 0.840914(11) 0.458178(9)
N1D N 0.6572(3) 0.40514(13) 0.41884(11)
O1D O 0.9289(3) 0.50095(13) 0.37490(12)
O2D O 0.9361(3) 0.42141(14) 0.42467(11)
O3D O 0.5340(3) 0.55793(12) 0.31678(9)
N2D N 0.3567(3) 0.72138(13) 0.50126(10)
O4D O 0.5678(3) 0.68592(13) 0.36596(10)
O5D O 0.2484(3) 0.61320(12) 0.46546(9)
O6D O 0.6699(3) 0.77228(14) 0.38710(10)
O6B O 0.8301(3) 0.27228(14) 0.38710(10)
O6F O 0.1699(3) 0.72772(14) 0.61290(10)
O7D O 0.1924(3) 0.50395(14) 0.42168(12)
O8D O 0.3954(3) 0.61327(11) 0.40394(9)
N3D N 0.5005(3) 0.46299(13) 0.38150(11)
N4D N 0.5183(3) 0.78290(13) 0.47091(10)
N4B N 0.9817(3) 0.28290(13) 0.47091(10)
N4F N 0.0183(3) 0.71710(13) 0.52909(10)
O9D O 0.7588(3) 0.55884(13) 0.32704(11)
N5D N -0.2088(3) 0.09804(14) 0.18179(12)
N5C N 0.7912(3) 0.40196(14) 0.68179(12)
N5G N 0.2088(3) 0.59804(14) 0.31821(12)
C1D C 0.4015(3) 0.69626(14) 0.45873(11)
C2D C 0.7229(3) 0.45063(16) 0.39387(13)
N6D N 0.2371(3) 0.44474(14) 0.30693(12)
C3D C 0.4301(4) 0.77348(15) 0.50698(12)
C4D C 0.6263(4) 0.48575(15) 0.37050(13)
C5D C 0.3441(4) 0.63696(15) 0.44158(13)
C6D C 0.4156(4) 0.81674(18) 0.54840(14)
H1D H 0.3673 0.7960 0.5743
H2D H 0.5058 0.8275 0.5602
C7D C 0.5231(3) 0.41423(16) 0.41068(14)
C8D C 0.1253(5) 0.34425(17) 0.25727(15)
C9D C 0.5017(4) 0.73423(15) 0.44003(12)
C10D C -0.0800(4) 0.19821(17) 0.22514(14)
C11D C 0.0685(5) 0.29099(18) 0.23101(16)
H3D H 0.0968 0.2848 0.1993
C12D C 0.6368(4) 0.53740(17) 0.33612(14)
C13D C 0.8725(4) 0.45705(17) 0.39803(14)
C14D C -0.1865(5) 0.16800(19) 0.24758(16)
H4D H -0.2159 0.1804 0.2780
C15D C -0.2491(5) 0.11901(19) 0.22444(14)
H5D H -0.3227 0.0999 0.2395
C16D C 0.4138(4) 0.3740(2) 0.43013(17)
H6D H 0.4372 0.3620 0.4629
H7D H 0.3292 0.3971 0.4315
C17D C 0.1507(4) 0.4052(2) 0.32865(17)
H8D H 0.1284 0.4118 0.3609
C18D C -0.0189(5) 0.25183(19) 0.24928(15)
H9D H -0.0452 0.2587 0.2811
C19D C 0.2145(5) 0.3846(2) 0.23535(16)
H10D H 0.2394 0.3787 0.2033
C20D C -0.1015(5) 0.12568(18) 0.16092(15)
H11D H -0.0703 0.1104 0.1315
C21D C 0.2668(5) 0.4337(2) 0.26114(17)
H12D H 0.3262 0.4605 0.2454
C22D C 0.0944(5) 0.3557(2) 0.30527(17)
H13D H 0.0351 0.3296 0.3217
C23D C -0.0358(5) 0.1753(2) 0.18072(16)
H14D H 0.0375 0.1935 0.1648
C24D C 0.5851(4) 0.73211(18) 0.39575(13)
C25D C 0.3398(7) 0.8754(2) 0.5354(2)
H15D H 0.2506 0.8651 0.5235
H16D H 0.3313 0.9009 0.5636
H17D H 0.3895 0.8973 0.5109
C26D C 0.3915(6) 0.3162(2) 0.4002(3)
H18D H 0.4756 0.2937 0.3978
H19D H 0.3235 0.2909 0.4153
H20D H 0.3611 0.3276 0.3684
H21D H 0.202(6) 0.532(3) 0.442(2)
H22D H 0.111(3) 0.494(3) 0.418(2)
loop_
_geom_bond_atom_site_label_1
_geom_bond_atom_site_label_2
_geom_bond_site_symmetry_1
_geom_bond_site_symmetry_2
Cd1 O3 1_555 1_555
Cd2 N2 1_555 1_555
N1 C2 1_555 1_555
O1 C13 1_555 1_555
O2 C13 1_555 1_555
O3 C12 1_555 1_555
N2 C1 1_555 1_555
O4 C24 1_555 1_555
O5 Cd2 1_555 1_555
O6 C24 1_555 1_555
O7 Cd1 1_555 1_555
O8 Cd1 1_555 1_555
N3 Cd1 1_555 1_555
N4 C3 1_555 1_555
O9 C12 1_555 1_555
N5 C15 1_555 1_555
C1 C5 1_555 1_555
C2 C4 1_555 1_555
N6 Cd1 1_555 1_555
C3 N2 1_555 1_555
C4 N3 1_555 1_555
C5 O5 1_555 1_555
C6 C3 1_555 1_555
H1 C6 1_555 1_555
H2 C6 1_555 1_555
C7 N1 1_555 1_555
C8 C11 1_555 1_555
C9 N4 1_555 1_555
C10 C14 1_555 1_555
C11 H3 1_555 1_555
C12 C4 1_555 1_555
C13 C2 1_555 1_555
C14 H4 1_555 1_555
C15 C14 1_555 1_555
H5 C15 1_555 1_555
C16 C7 1_555 1_555
H6 C16 1_555 1_555
H7 C16 1_555 1_555
C17 N6 1_555 1_555
H8 C17 1_555 1_555
C18 C10 1_555 1_555
H9 C18 1_555 1_555
C19 C8 1_555 1_555
H10 C19 1_555 1_555
C20 N5 1_555 1_555
H11 C20 1_555 1_555
C21 N6 1_555 1_555
H12 C21 1_555 1_555
C22 C8 1_555 1_555
H13 C22 1_555 1_555
C23 C10 1_555 1_555
H14 C23 1_555 1_555
C24 C9 1_555 1_555
C25 C6 1_555 1_555
H15 C25 1_555 1_555
H16 C25 1_555 1_555
H17 C25 1_555 1_555
C26 C16 1_555 1_555
H18 C26 1_555 1_555
H19 C26 1_555 1_555
H20 C26 1_555 1_555
H21 O7 1_555 1_555
H22 O7 1_555 1_555
Cd1D O3D 1_555 1_555
Cd1C N5 1_555 1_555
Cd1G N5D 1_555 1_555
Cd2D N1 1_555 1_555
Cd2B O6 1_555 1_555
Cd2F O6D 1_555 1_555
N1D Cd2 1_555 1_555
O1D C13D 1_555 1_555
O2D Cd2 1_555 1_555
O3D C12D 1_555 1_555
N2D Cd2D 1_555 1_555
O4D C24D 1_555 1_555
O5D Cd2D 1_555 1_555
O6D C24D 1_555 1_555
O6B Cd2 1_555 1_555
O6F Cd2D 1_555 1_555
O7D Cd1D 1_555 1_555
O8D Cd1D 1_555 1_555
N3D Cd1D 1_555 1_555
N4D Cd2F 1_555 1_555
N4B Cd2 1_555 1_555
N4F Cd2D 1_555 1_555
O9D C12D 1_555 1_555
N5D C15D 1_555 1_555
N5C Cd1 1_555 1_555
N5G Cd1D 1_555 1_555
C1D N2D 1_555 1_555
C2D N1D 1_555 1_555
N6D Cd1D 1_555 1_555
C3D N2D 1_555 1_555
C4D N3D 1_555 1_555
C5D O5D 1_555 1_555
C6D C3D 1_555 1_555
H1D C6D 1_555 1_555
H2D C6D 1_555 1_555
C7D N1D 1_555 1_555
C8D C11D 1_555 1_555
C9D N4D 1_555 1_555
C10D C14D 1_555 1_555
C11D H3D 1_555 1_555
C12D C4D 1_555 1_555
C13D O2D 1_555 1_555
C14D H4D 1_555 1_555
C15D C14D 1_555 1_555
H5D C15D 1_555 1_555
C16D C7D 1_555 1_555
H6D C16D 1_555 1_555
H7D C16D 1_555 1_555
C17D N6D 1_555 1_555
H8D C17D 1_555 1_555
C18D C10D 1_555 1_555
H9D C18D 1_555 1_555
C19D C8D 1_555 1_555
H10D C19D 1_555 1_555
C20D N5D 1_555 1_555
H11D C20D 1_555 1_555
C21D N6D 1_555 1_555
H12D C21D 1_555 1_555
C22D C8D 1_555 1_555
H13D C22D 1_555 1_555
C23D C10D 1_555 1_555
H14D C23D 1_555 1_555
C24D C9D 1_555 1_555
C25D C6D 1_555 1_555
H15D C25D 1_555 1_555
H16D C25D 1_555 1_555
H17D C25D 1_555 1_555
C26D C16D 1_555 1_555
H18D C26D 1_555 1_555
H19D C26D 1_555 1_555
H20D C26D 1_555 1_555
H21D O7D 1_555 1_555
H22D O7D 1_555 1_555
O2 Cd2D 1_555 1_555
O8 C5 1_555 1_555
N3 C7 1_555 1_555
N4 Cd2B 1_555 1_555
C1 C9 1_555 1_555
C11 C18 1_555 1_555
C17 C22 1_555 1_555
C19 C21 1_555 1_555
C20 C23 1_555 1_555
O8D C5D 1_555 1_555
N3D C7D 1_555 1_555
N4D C3D 1_555 1_555
C1D C5D 1_555 1_555
C1D C9D 1_555 1_555
C2D C4D 1_555 1_555
C2D C13D 1_555 1_555
C11D C18D 1_555 1_555
C17D C22D 1_555 1_555
C19D C21D 1_555 1_555
C20D C23D 1_555 1_555

#END
