
#######################################################################
#
#                 Cambridge Crystallographic Data Centre
#                                CCDC 
#
#######################################################################
#
# If this CIF has been generated from an entry in the Cambridge 
# Structural Database, then it will include bibliographic, chemical, 
# crystal, experimental, refinement or atomic coordinate data resulting 
# from the CCDC's data processing and validation procedures.
#
#######################################################################

data_SAXLOU
_symmetry_cell_setting           orthorhombic
_symmetry_space_group_name_H-M   'C m c a'
_symmetry_Int_Tables_number      64
_space_group_name_Hall           '-C 2ac 2'
loop_
_symmetry_equiv_pos_site_id
_symmetry_equiv_pos_as_xyz
1 x,y,z
2 -x,1/2-y,1/2+z
3 -x,1/2+y,1/2-z
4 x,-y,-z
5 1/2+x,1/2+y,z
6 1/2-x,-y,1/2+z
7 1/2-x,y,1/2-z
8 1/2+x,1/2-y,-z
9 -x,-y,-z
10 x,1/2+y,1/2-z
11 x,1/2-y,1/2+z
12 -x,y,z
13 1/2-x,1/2-y,-z
14 1/2+x,y,1/2-z
15 1/2+x,-y,1/2+z
16 1/2-x,1/2+y,z
_cell_length_a                   21.407(4)
_cell_length_b                   18.825(4)
_cell_length_c                   19.954(4)
_cell_angle_alpha                90
_cell_angle_beta                 90
_cell_angle_gamma                90
_cell_volume                     8041.2
loop_
_atom_site_label
_atom_site_type_symbol
_atom_site_fract_x
_atom_site_fract_y
_atom_site_fract_z
O1 O 0.8926(2) 1.0000 0.5000
H37 H 0.9155 0.9722 0.4633
H37C H 0.9155 1.0278 0.5367
Ag1 Ag 0.576926(5) 1.074647(5) 0.443568(4)
Ag2 Ag 0.5000 0.811750(7) 0.267730(6)
C1 C 0.5000 0.94991(8) 0.35064(8)
C2 C 0.5000 0.86239(9) 0.41513(8)
C3 C 0.44960(8) 0.70738(6) 0.15888(6)
C4 C 0.71950(11) 1.03692(13) 0.46420(13)
C5 C 0.36299(12) 0.69619(15) 0.24138(13)
H1 H 0.3652 0.6453 0.2412
H2 H 0.3207 0.7108 0.2497
H3 H 0.3897 0.7146 0.2759
C6 C 0.38423(12) 0.72468(12) 0.17338(12)
H4 H 0.3601(3) 0.6974(3) 0.1405(3)
C7 C 0.36341(14) 0.79794(12) 0.16463(14)
H5 H 0.3181 0.7995 0.1658
H6 H 0.3790 0.8266 0.2014
C8 C 0.38491(13) 0.82739(13) 0.10235(13)
H7 H 0.4276 0.8424 0.1071
H8 H 0.3594 0.8675 0.0906
H9 H 0.3821 0.7920 0.0678
C9 C 0.75416(16) 1.15810(17) 0.47177(16)
H10 H 0.7163 1.1330 0.4818
H11 H 0.7452 1.2078 0.4667
H12 H 0.7835 1.1516 0.5076
C10 C 0.78079(16) 1.13069(18) 0.40958(16)
H13 H 0.8237 1.1159 0.4165
H14 H 0.7799 1.1668 0.3749
C11 C 0.74153(13) 1.06915(16) 0.39022(15)
H15 H 0.7041(2) 1.0881(5) 0.3683(4)
C12 C 0.77214(14) 1.0121(3) 0.33963(17)
H16 H 0.7747 1.0323 0.2955
H17 H 0.7466 0.9702 0.3384
H18 H 0.8133 0.9999 0.3549
C13 C 0.5000 0.99746(17) 0.29203(12)
H19 H 0.5000 1.0446 0.3126
C15 C 0.57344(19) 0.9797(2) 0.25722(18)
H23 H 0.5677 0.9399 0.2270
C16 C 0.6282(2) 0.9642(2) 0.29580(16)
H25 H 0.6439 1.0072 0.3154
H26 H 0.6595 0.9439 0.2672
H27 H 0.6179 0.9311 0.3307
C18 C 0.5198(3) 0.78820(11) 0.44165(9)
C19 C 0.57953(15) 0.75563(15) 0.4206(2)
C20 C 0.6326(3) 0.7996(2) 0.4211(3)
N1 N 0.5000 0.97638(6) 0.41194(6)
N2 N 0.5000 0.91951(7) 0.45375(7)
N3 N 0.5000 0.87933(7) 0.35067(6)
N4 N 0.46763(5) 0.65928(5) 0.11480(4)
N5 N 0.5000 0.74061(7) 0.18795(6)
N6 N 0.66090(6) 1.02299(7) 0.47447(7)
N7 N 0.75688(14) 1.0000 0.5000
Ag1C Ag 0.576926(5) 0.925353(5) 0.556432(4)
Ag1K Ag 0.423074(5) 1.074647(5) 0.443568(4)
Ag1H Ag 0.423074(5) 0.925353(5) 0.556432(4)
Ag1B Ag 0.423074(5) 0.574647(5) 0.056432(4)
Ag1I Ag 0.576926(5) 0.574647(5) 0.056432(4)
C3K C 0.55040(8) 0.70738(6) 0.15888(6)
C4C C 0.71950(11) 0.96308(13) 0.53580(13)
C5K C 0.63701(12) 0.69619(15) 0.24138(13)
H1K H 0.6348 0.6453 0.2412
H2K H 0.6793 0.7108 0.2497
H3K H 0.6103 0.7146 0.2759
C6K C 0.61577(12) 0.72468(12) 0.17338(12)
H4K H 0.6399(3) 0.6974(3) 0.1405(3)
C7K C 0.63659(14) 0.79794(12) 0.16463(14)
H5K H 0.6819 0.7995 0.1658
H6K H 0.6210 0.8266 0.2014
C8K C 0.61509(13) 0.82739(13) 0.10235(13)
H7K H 0.5724 0.8424 0.1071
H8K H 0.6406 0.8675 0.0906
H9K H 0.6179 0.7920 0.0678
C9C C 0.75416(16) 0.84190(17) 0.52823(16)
H10C H 0.7163 0.8670 0.5182
H11C H 0.7452 0.7922 0.5333
H12C H 0.7835 0.8484 0.4924
C10C C 0.78079(16) 0.86931(18) 0.59042(16)
H13C H 0.8237 0.8841 0.5835
H14C H 0.7799 0.8332 0.6251
C11C C 0.74153(13) 0.93085(16) 0.60978(15)
H15C H 0.7041(2) 0.9119(5) 0.6317(4)
C12C C 0.77214(14) 0.9879(3) 0.66037(17)
H16C H 0.7747 0.9677 0.7045
H17C H 0.7466 1.0298 0.6616
H18C H 0.8133 1.0001 0.6451
C15K C 0.42656(19) 0.9797(2) 0.25722(18)
H23K H 0.4323 0.9399 0.2270
C16K C 0.3718(2) 0.9642(2) 0.29580(16)
H25K H 0.3561 1.0072 0.3154
H26K H 0.3405 0.9439 0.2672
H27K H 0.3821 0.9311 0.3307
C18K C 0.4802(3) 0.78820(11) 0.44165(9)
C19K C 0.42047(15) 0.75563(15) 0.4206(2)
C20K C 0.3674(3) 0.7996(2) 0.4211(3)
N1C N 0.5000 1.02362(6) 0.58806(6)
N2C N 0.5000 1.08049(7) 0.54625(7)
N4K N 0.53237(5) 0.65928(5) 0.11480(4)
N4B N 0.53237(5) 1.15928(5) 0.38520(4)
N4A N 0.53237(5) 0.84072(5) 0.61480(4)
N6C N 0.66090(6) 0.97701(7) 0.52553(7)
C14? C 0.5360(2) 0.9919(2) 0.23357(14)
H20? H 0.5232 0.9507 0.2087
H21? H 0.5793 0.9875 0.2454
H22? H 0.5302 1.0336 0.2066
H24? H 0.5838 1.0204 0.2295
C17? C 0.5283(2) 0.73520(14) 0.42583(19)
H28? H 0.5432 0.7422 0.3810
H29? H 0.5432 0.6905 0.4425
H30? H 0.5432 0.7729 0.4540
H31? H 0.5286(8) 0.7990(8) 0.48875(18)
H32? H 0.5877 0.7153 0.4496
H33? H 0.5743 0.7373 0.3755
H34? H 0.6279 0.8364 0.3882
H35? H 0.6690 0.7718 0.4108
H36? H 0.6373 0.8206 0.4647
loop_
_geom_bond_atom_site_label_1
_geom_bond_atom_site_label_2
_geom_bond_site_symmetry_1
_geom_bond_site_symmetry_2
Ag1 N1 1_555 1_555
Ag2 N3 1_555 1_555
C1 C13 1_555 1_555
C2 C18 1_555 1_555
C3 C6 1_555 1_555
C4 C11 1_555 1_555
C5 H1 1_555 1_555
H2 C5 1_555 1_555
H3 C5 1_555 1_555
C6 C5 1_555 1_555
H4 C6 1_555 1_555
C7 C6 1_555 1_555
H5 C7 1_555 1_555
H6 C7 1_555 1_555
C8 C7 1_555 1_555
H7 C8 1_555 1_555
H8 C8 1_555 1_555
H9 C8 1_555 1_555
C9 H10 1_555 1_555
H11 C9 1_555 1_555
H12 C9 1_555 1_555
C10 C9 1_555 1_555
H13 C10 1_555 1_555
H14 C10 1_555 1_555
C11 C10 1_555 1_555
H15 C11 1_555 1_555
C12 C11 1_555 1_555
H16 C12 1_555 1_555
H17 C12 1_555 1_555
H18 C12 1_555 1_555
C13 H19 1_555 1_555
C15 C13 1_555 1_555
H23 C15 1_555 1_555
C16 C15 1_555 1_555
H25 C16 1_555 1_555
H26 C16 1_555 1_555
H27 C16 1_555 1_555
C18 C19 1_555 1_555
C19 C20 1_555 1_555
N1 C1 1_555 1_555
N2 C2 1_555 1_555
N3 C1 1_555 1_555
N4 C3 1_555 1_555
N5 Ag2 1_555 1_555
N6 Ag1 1_555 1_555
N7 C4 1_555 1_555
O1 H37 1_555 1_555
Ag1C N2 1_555 1_555
Ag1K N1 1_555 1_555
Ag1H N2 1_555 1_555
Ag1B N4 1_555 1_555
Ag1I N4K 1_555 1_555
C3K N5 1_555 1_555
C4C N7 1_555 1_555
C5K H1K 1_555 1_555
H2K C5K 1_555 1_555
H3K C5K 1_555 1_555
C6K C3K 1_555 1_555
H4K C6K 1_555 1_555
C7K C6K 1_555 1_555
H5K C7K 1_555 1_555
H6K C7K 1_555 1_555
C8K C7K 1_555 1_555
H7K C8K 1_555 1_555
H8K C8K 1_555 1_555
H9K C8K 1_555 1_555
C9C H10C 1_555 1_555
H11C C9C 1_555 1_555
H12C C9C 1_555 1_555
C10C C9C 1_555 1_555
H13C C10C 1_555 1_555
H14C C10C 1_555 1_555
C11C C4C 1_555 1_555
H15C C11C 1_555 1_555
C12C C11C 1_555 1_555
H16C C12C 1_555 1_555
H17C C12C 1_555 1_555
H18C C12C 1_555 1_555
C15K C13 1_555 1_555
H23K C15K 1_555 1_555
C16K C15K 1_555 1_555
H25K C16K 1_555 1_555
H26K C16K 1_555 1_555
H27K C16K 1_555 1_555
C18K C2 1_555 1_555
C19K C18K 1_555 1_555
C20K C19K 1_555 1_555
N1C Ag1C 1_555 1_555
N2C Ag1 1_555 1_555
N4K N4 1_555 1_555
N4B Ag1 1_555 1_555
N4A Ag1C 1_555 1_555
N6C N6 1_555 1_555
H37C O1 1_555 1_555
C2 N3 1_555 1_555
C3 N5 1_555 1_555
C4 N6 1_555 1_555
C18 C18K 1_555 1_555
N1 N2 1_555 1_555
Ag1C N6C 1_555 1_555
Ag1K N2C 1_555 1_555
Ag1H N1C 1_555 1_555
C3K N4K 1_555 1_555
C4C N6C 1_555 1_555
C5K C6K 1_555 1_555
C10C C11C 1_555 1_555
N1C N2C 1_555 1_555

#END
