
#######################################################################
#
#                 Cambridge Crystallographic Data Centre
#                                CCDC 
#
#######################################################################
#
# If this CIF has been generated from an entry in the Cambridge 
# Structural Database, then it will include bibliographic, chemical, 
# crystal, experimental, refinement or atomic coordinate data resulting 
# from the CCDC's data processing and validation procedures.
#
#######################################################################

data_SAXLIO
_symmetry_cell_setting           orthorhombic
_symmetry_space_group_name_H-M   'F d d 2'
_symmetry_Int_Tables_number      43
_space_group_name_Hall           'F 2 -2d'
loop_
_symmetry_equiv_pos_site_id
_symmetry_equiv_pos_as_xyz
1 x,y,z
2 -x,-y,z
3 1/4-x,1/4+y,1/4+z
4 3/4+x,3/4-y,1/4+z
5 x,1/2+y,1/2+z
6 -x,1/2-y,1/2+z
7 1/4-x,3/4+y,3/4+z
8 3/4+x,1/4-y,3/4+z
9 1/2+x,y,1/2+z
10 1/2-x,-y,1/2+z
11 3/4-x,1/4+y,3/4+z
12 1/4+x,3/4-y,3/4+z
13 1/2+x,1/2+y,z
14 1/2-x,1/2-y,z
15 3/4-x,3/4+y,1/4+z
16 1/4+x,1/4-y,1/4+z
_cell_length_a                   16.077(3)
_cell_length_b                   58.089(12)
_cell_length_c                   16.088(3)
_cell_angle_alpha                90
_cell_angle_beta                 90
_cell_angle_gamma                90
_cell_volume                     15024.5
loop_
_atom_site_label
_atom_site_type_symbol
_atom_site_fract_x
_atom_site_fract_y
_atom_site_fract_z
Ag1 Ag 0.629235(15) 0.655415(4) 0.262419(14)
Ag2 Ag 0.419007(15) 0.677454(4) 0.258843(14)
Ag3 Ag 0.347827(15) 0.765064(4) 0.490836(13)
N1 N 0.36494(17) 0.70333(4) 0.33738(17)
N2 N 0.27523(16) 0.72113(5) 0.42011(17)
N3 N 0.34955(17) 0.73264(4) 0.42295(18)
N4 N 0.61184(17) 0.71123(4) 0.08510(17)
N5 N 0.61296(17) 0.68531(4) 0.18453(17)
N6 N 0.53246(16) 0.69327(4) 0.17878(17)
N7 N 0.43060(18) 0.64314(4) 0.20558(17)
N8 N 0.51233(17) 0.63656(4) 0.18946(17)
N9 N 0.42658(16) 0.61617(4) 0.10877(16)
C1 C 0.4015(2) 0.72177(6) 0.3730(2)
C2 C 0.4889(2) 0.72970(7) 0.3569(3)
H1 H 0.4959 0.7450 0.3800
H2 H 0.4975 0.7307 0.2973
C3 C 0.5561(3) 0.71347(14) 0.3947(4)
H3 H 0.5529 0.6990 0.3633
C4 C 0.5529(5) 0.70762(16) 0.4755(6)
H4 H 0.6006 0.6985 0.4893
H5 H 0.5032 0.6989 0.4859
H6 H 0.5526 0.7213 0.5090
C5 C 0.6393(4) 0.7255(2) 0.3672(6)
H7 H 0.6391 0.7412 0.3854
H8 H 0.6439 0.7250 0.3077
H9 H 0.6857 0.7175 0.3916
C6 C 0.2875(2) 0.70377(5) 0.3677(2)
C7 C 0.2199(2) 0.68775(6) 0.3425(3)
H10 H 0.1775 0.6876 0.3854
H11 H 0.2424 0.6723 0.3379
C8 C 0.1795(4) 0.69451(9) 0.2591(5)
H12 H 0.2196 0.6914 0.2146
C9 C 0.1537(5) 0.71736(13) 0.2522(5)
H13 H 0.1048 0.7197 0.2854
H14 H 0.1413 0.7208 0.1951
H15 H 0.1972 0.7274 0.2714
C10 C 0.1051(4) 0.67743(13) 0.2495(6)
H16 H 0.0635 0.6809 0.2905
H17 H 0.1245 0.6620 0.2572
H18 H 0.0816 0.6790 0.1950
C11 C 0.6585(2) 0.69606(6) 0.1293(2)
C12 C 0.7490(2) 0.69212(7) 0.1168(2)
H19 H 0.7623 0.6768 0.1370
H20 H 0.7600 0.6923 0.0575
C13 C 0.8056(4) 0.70860(13) 0.1570(5)
H21 H 0.7956 0.7216 0.1194
C14 C 0.8011(5) 0.7185(2) 0.2172(7)
H22 H 0.7521 0.7279 0.2165
H23 H 0.8493 0.7280 0.2236
H24 H 0.7978 0.7078 0.2628
C15 C 0.8948(4) 0.70373(17) 0.1309(8)
H25 H 0.9260 0.7178 0.1311
H26 H 0.8953 0.6972 0.0760
H27 H 0.9195 0.6930 0.1692
C16 C 0.5343(2) 0.70888(6) 0.1183(2)
C17 C 0.4600(2) 0.72159(7) 0.0893(3)
H28 H 0.4302 0.7275 0.1373
H29 H 0.4778 0.7347 0.0564
C18 C 0.4032(4) 0.70748(13) 0.0396(7)
H30 H 0.3866 0.6974 0.0857
C19 C 0.3187(5) 0.7217(2) 0.0378(8)
H31 H 0.3019 0.7241 -0.0188
H32 H 0.3270 0.7363 0.0644
H33 H 0.2763 0.7133 0.0667
C20 C 0.4187(8) 0.69216(19) -0.0071(8)
H34 H 0.3978 0.6959 -0.0614
H35 H 0.3930 0.6783 0.0123
H36 H 0.4779 0.6900 -0.0098
C21 C 0.5058(2) 0.62036(5) 0.13158(19)
C22 C 0.5804(2) 0.60914(7) 0.0937(3)
H37 H 0.5641 0.5945 0.0699
H38 H 0.6209 0.6061 0.1370
C23 C 0.6213(5) 0.62392(15) 0.0259(5)
H39 H 0.6424 0.6372 0.0570
C24 C 0.5744(6) 0.6332(2) -0.0297(6)
H40 H 0.6068 0.6365 -0.0784
H41 H 0.5512 0.6472 -0.0083
H42 H 0.5303 0.6228 -0.0438
C25 C 0.6942(5) 0.6135(2) -0.0048(7)
H43 H 0.6907 0.6122 -0.0641
H44 H 0.7002 0.5985 0.0191
H45 H 0.7415 0.6228 0.0098
C26 C 0.3817(2) 0.63084(5) 0.1564(2)
C27 C 0.2895(2) 0.63133(6) 0.1589(2)
H46 H 0.2684 0.6334 0.1029
H47 H 0.2714 0.6443 0.1921
C28 C 0.2533(3) 0.60921(7) 0.1954(3)
H48 H 0.2694 0.5965 0.1586
C29 C 0.2875(4) 0.60386(11) 0.2809(3)
H49 H 0.2785 0.6168 0.3169
H50 H 0.3461 0.6008 0.2769
H51 H 0.2597 0.5906 0.3031
C30 C 0.1578(3) 0.60998(10) 0.1974(4)
H52 H 0.1365 0.5948 0.2082
H53 H 0.1373 0.6153 0.1448
H54 H 0.1399 0.6203 0.2406
Ag1M Ag -0.129235(15) 0.844585(4) 0.262419(14)
Ag1G Ag 0.379235(15) 0.594585(4) 0.012419(14)
Ag1J Ag 0.120765(15) 0.905415(4) 0.012419(14)
Ag2M Ag 0.080993(15) 0.822546(4) 0.258843(14)
Ag3M Ag 0.152173(15) 0.734936(4) 0.490836(13)
Ag3E Ag 0.652173(15) 0.734936(4) -0.009164(13)
Ag3H Ag -0.152173(15) 0.765064(4) -0.009164(13)
N1M N 0.13506(17) 0.79667(4) 0.33738(17)
N2M N 0.22477(16) 0.77887(5) 0.42011(17)
N3M N 0.15045(17) 0.76736(4) 0.42295(18)
N4M N -0.11184(17) 0.78877(4) 0.08510(17)
N4E N 0.38816(17) 0.78877(4) 0.58510(17)
N4H N 0.11184(17) 0.71123(4) 0.58510(17)
N5M N -0.11296(17) 0.81469(4) 0.18453(17)
N6M N -0.03246(16) 0.80673(4) 0.17878(17)
N7M N 0.06940(18) 0.85686(4) 0.20558(17)
N8M N -0.01233(17) 0.86344(4) 0.18946(17)
N9M N 0.07342(16) 0.88383(4) 0.10877(16)
N9B N -0.17658(16) 0.86617(4) 0.35877(16)
N9O N 0.67658(16) 0.63383(4) 0.35877(16)
C1M C 0.0985(2) 0.77823(6) 0.3730(2)
C2M C 0.0111(2) 0.77030(7) 0.3569(3)
H1M H 0.0041 0.7550 0.3800
H2M H 0.0025 0.7693 0.2973
C3M C -0.0561(3) 0.78653(14) 0.3947(4)
H3M H -0.0529 0.8010 0.3633
C4M C -0.0529(5) 0.79238(16) 0.4755(6)
H4M H -0.1006 0.8015 0.4893
H5M H -0.0032 0.8011 0.4859
H6M H -0.0526 0.7787 0.5090
C5M C -0.1393(4) 0.7745(2) 0.3672(6)
H7M H -0.1391 0.7588 0.3854
H8M H -0.1439 0.7750 0.3077
H9M H -0.1857 0.7825 0.3916
C6M C 0.2125(2) 0.79623(5) 0.3677(2)
C7M C 0.2801(2) 0.81225(6) 0.3425(3)
H10M H 0.3225 0.8124 0.3854
H11M H 0.2576 0.8277 0.3379
C8M C 0.3205(4) 0.80549(9) 0.2591(5)
H12M H 0.2804 0.8086 0.2146
C9M C 0.3463(5) 0.78264(13) 0.2522(5)
H13M H 0.3952 0.7803 0.2854
H14M H 0.3587 0.7792 0.1951
H15M H 0.3028 0.7726 0.2714
C10M C 0.3949(4) 0.82257(13) 0.2495(6)
H16M H 0.4365 0.8191 0.2905
H17M H 0.3755 0.8380 0.2572
H18M H 0.4184 0.8210 0.1950
C11M C -0.1585(2) 0.80394(6) 0.1293(2)
C12M C -0.2490(2) 0.80788(7) 0.1168(2)
H19M H -0.2623 0.8232 0.1370
H20M H -0.2600 0.8077 0.0575
C13M C -0.3056(4) 0.79140(13) 0.1570(5)
H21M H -0.2956 0.7784 0.1194
C14M C -0.3011(5) 0.7815(2) 0.2172(7)
H22M H -0.2521 0.7721 0.2165
H23M H -0.3493 0.7720 0.2236
H24M H -0.2978 0.7922 0.2628
C15M C -0.3948(4) 0.79627(17) 0.1309(8)
H25M H -0.4260 0.7822 0.1311
H26M H -0.3953 0.8028 0.0760
H27M H -0.4195 0.8070 0.1692
C16M C -0.0343(2) 0.79112(6) 0.1183(2)
C17M C 0.0400(2) 0.77841(7) 0.0893(3)
H28M H 0.0698 0.7725 0.1373
H29M H 0.0222 0.7653 0.0564
C18M C 0.0968(4) 0.79252(13) 0.0396(7)
H30M H 0.1134 0.8026 0.0857
C19M C 0.1813(5) 0.7783(2) 0.0378(8)
H31M H 0.1981 0.7759 -0.0188
H32M H 0.1730 0.7637 0.0644
H33M H 0.2237 0.7867 0.0667
C20M C 0.0813(8) 0.80784(19) -0.0071(8)
H34M H 0.1022 0.8041 -0.0614
H35M H 0.1070 0.8217 0.0123
H36M H 0.0221 0.8100 -0.0098
C21M C -0.0058(2) 0.87964(5) 0.13158(19)
C22M C -0.0804(2) 0.89086(7) 0.0937(3)
H37M H -0.0641 0.9055 0.0699
H38M H -0.1209 0.8939 0.1370
C23M C -0.1213(5) 0.87608(15) 0.0259(5)
H39M H -0.1424 0.8628 0.0570
C24M C -0.0744(6) 0.8668(2) -0.0297(6)
H40M H -0.1068 0.8635 -0.0784
H41M H -0.0512 0.8528 -0.0083
H42M H -0.0303 0.8772 -0.0438
C25M C -0.1942(5) 0.8865(2) -0.0048(7)
H43M H -0.1907 0.8878 -0.0641
H44M H -0.2002 0.9015 0.0191
H45M H -0.2415 0.8772 0.0098
C26M C 0.1183(2) 0.86916(5) 0.1564(2)
C27M C 0.2105(2) 0.86867(6) 0.1589(2)
H46M H 0.2316 0.8666 0.1029
H47M H 0.2286 0.8557 0.1921
C28M C 0.2467(3) 0.89079(7) 0.1954(3)
H48M H 0.2306 0.9035 0.1586
C29M C 0.2125(4) 0.89614(11) 0.2809(3)
H49M H 0.2215 0.8832 0.3169
H50M H 0.1539 0.8992 0.2769
H51M H 0.2403 0.9094 0.3031
C30M C 0.3422(3) 0.89002(10) 0.1974(4)
H52M H 0.3635 0.9052 0.2082
H53M H 0.3627 0.8847 0.1448
H54M H 0.3601 0.8797 0.2406
loop_
_geom_bond_atom_site_label_1
_geom_bond_atom_site_label_2
_geom_bond_site_symmetry_1
_geom_bond_site_symmetry_2
Ag1 N5 1_555 1_555
Ag2 N1 1_555 1_555
Ag3 N3 1_555 1_555
N1 C1 1_555 1_555
N2 N3 1_555 1_555
N3 C1 1_555 1_555
N4 C11 1_555 1_555
N5 N6 1_555 1_555
N6 Ag2 1_555 1_555
N7 Ag2 1_555 1_555
N8 Ag1 1_555 1_555
N9 C21 1_555 1_555
C1 C2 1_555 1_555
C2 H1 1_555 1_555
H2 C2 1_555 1_555
C3 C2 1_555 1_555
H3 C3 1_555 1_555
C4 C3 1_555 1_555
H4 C4 1_555 1_555
H5 C4 1_555 1_555
H6 C4 1_555 1_555
C5 C3 1_555 1_555
H7 C5 1_555 1_555
H8 C5 1_555 1_555
H9 C5 1_555 1_555
C6 N1 1_555 1_555
C7 C6 1_555 1_555
H10 C7 1_555 1_555
H11 C7 1_555 1_555
C8 C7 1_555 1_555
H12 C8 1_555 1_555
C9 C8 1_555 1_555
H13 C9 1_555 1_555
H14 C9 1_555 1_555
H15 C9 1_555 1_555
C10 C8 1_555 1_555
H16 C10 1_555 1_555
H17 C10 1_555 1_555
H18 C10 1_555 1_555
C11 N5 1_555 1_555
C12 C11 1_555 1_555
H19 C12 1_555 1_555
H20 C12 1_555 1_555
C13 C12 1_555 1_555
H21 C13 1_555 1_555
C14 C13 1_555 1_555
H22 C14 1_555 1_555
H23 C14 1_555 1_555
H24 C14 1_555 1_555
C15 C13 1_555 1_555
H25 C15 1_555 1_555
H26 C15 1_555 1_555
H27 C15 1_555 1_555
C16 N4 1_555 1_555
C17 C16 1_555 1_555
H28 C17 1_555 1_555
H29 C17 1_555 1_555
C18 C17 1_555 1_555
H30 C18 1_555 1_555
C19 C18 1_555 1_555
H31 C19 1_555 1_555
H32 C19 1_555 1_555
H33 C19 1_555 1_555
C20 C18 1_555 1_555
H34 C20 1_555 1_555
H35 C20 1_555 1_555
H36 C20 1_555 1_555
C21 N8 1_555 1_555
C22 C21 1_555 1_555
H37 C22 1_555 1_555
H38 C22 1_555 1_555
C23 C22 1_555 1_555
H39 C23 1_555 1_555
C24 C23 1_555 1_555
H40 C24 1_555 1_555
H41 C24 1_555 1_555
H42 C24 1_555 1_555
C25 C23 1_555 1_555
H43 C25 1_555 1_555
H44 C25 1_555 1_555
H45 C25 1_555 1_555
C26 N7 1_555 1_555
C27 C26 1_555 1_555
H46 C27 1_555 1_555
H47 C27 1_555 1_555
C28 C27 1_555 1_555
H48 C28 1_555 1_555
C29 C28 1_555 1_555
H49 C29 1_555 1_555
H50 C29 1_555 1_555
H51 C29 1_555 1_555
C30 C28 1_555 1_555
H52 C30 1_555 1_555
H53 C30 1_555 1_555
H54 C30 1_555 1_555
Ag1M N5M 1_555 1_555
Ag1G N9 1_555 1_555
Ag1J N9M 1_555 1_555
Ag2M N1M 1_555 1_555
Ag3M N2 1_555 1_555
Ag3E N4 1_555 1_555
Ag3H N4M 1_555 1_555
N1M C1M 1_555 1_555
N2M Ag3 1_555 1_555
N3M Ag3M 1_555 1_555
N4M C11M 1_555 1_555
N4E Ag3 1_555 1_555
N4H Ag3M 1_555 1_555
N5M N6M 1_555 1_555
N6M Ag2M 1_555 1_555
N7M Ag2M 1_555 1_555
N8M Ag1M 1_555 1_555
N9M C21M 1_555 1_555
N9B Ag1M 1_555 1_555
N9O Ag1 1_555 1_555
C1M N3M 1_555 1_555
C2M C1M 1_555 1_555
H1M C2M 1_555 1_555
H2M C2M 1_555 1_555
C3M C2M 1_555 1_555
H3M C3M 1_555 1_555
C4M C3M 1_555 1_555
H4M C4M 1_555 1_555
H5M C4M 1_555 1_555
H6M C4M 1_555 1_555
C5M C3M 1_555 1_555
H7M C5M 1_555 1_555
H8M C5M 1_555 1_555
H9M C5M 1_555 1_555
C6M N1M 1_555 1_555
C7M C6M 1_555 1_555
H10M C7M 1_555 1_555
H11M C7M 1_555 1_555
C8M C7M 1_555 1_555
H12M C8M 1_555 1_555
C9M C8M 1_555 1_555
H13M C9M 1_555 1_555
H14M C9M 1_555 1_555
H15M C9M 1_555 1_555
C10M C8M 1_555 1_555
H16M C10M 1_555 1_555
H17M C10M 1_555 1_555
H18M C10M 1_555 1_555
C11M N5M 1_555 1_555
C12M C11M 1_555 1_555
H19M C12M 1_555 1_555
H20M C12M 1_555 1_555
C13M C12M 1_555 1_555
H21M C13M 1_555 1_555
C14M C13M 1_555 1_555
H22M C14M 1_555 1_555
H23M C14M 1_555 1_555
H24M C14M 1_555 1_555
C15M C13M 1_555 1_555
H25M C15M 1_555 1_555
H26M C15M 1_555 1_555
H27M C15M 1_555 1_555
C16M N4M 1_555 1_555
C17M C16M 1_555 1_555
H28M C17M 1_555 1_555
H29M C17M 1_555 1_555
C18M C17M 1_555 1_555
H30M C18M 1_555 1_555
C19M C18M 1_555 1_555
H31M C19M 1_555 1_555
H32M C19M 1_555 1_555
H33M C19M 1_555 1_555
C20M C18M 1_555 1_555
H34M C20M 1_555 1_555
H35M C20M 1_555 1_555
H36M C20M 1_555 1_555
C21M N8M 1_555 1_555
C22M C21M 1_555 1_555
H37M C22M 1_555 1_555
H38M C22M 1_555 1_555
C23M C22M 1_555 1_555
H39M C23M 1_555 1_555
C24M C23M 1_555 1_555
H40M C24M 1_555 1_555
H41M C24M 1_555 1_555
H42M C24M 1_555 1_555
C25M C23M 1_555 1_555
H43M C25M 1_555 1_555
H44M C25M 1_555 1_555
H45M C25M 1_555 1_555
C26M N7M 1_555 1_555
C27M C26M 1_555 1_555
H46M C27M 1_555 1_555
H47M C27M 1_555 1_555
C28M C27M 1_555 1_555
H48M C28M 1_555 1_555
C29M C28M 1_555 1_555
H49M C29M 1_555 1_555
H50M C29M 1_555 1_555
H51M C29M 1_555 1_555
C30M C28M 1_555 1_555
H52M C30M 1_555 1_555
H53M C30M 1_555 1_555
H54M C30M 1_555 1_555
N2 C6 1_555 1_555
N6 C16 1_555 1_555
N7 N8 1_555 1_555
N9 C26 1_555 1_555
N2M N3M 1_555 1_555
N2M C6M 1_555 1_555
N6M C16M 1_555 1_555
N7M N8M 1_555 1_555
N9M C26M 1_555 1_555

#END
