
#######################################################################
#
#                 Cambridge Crystallographic Data Centre
#                                CCDC 
#
#######################################################################
#
# If this CIF has been generated from an entry in the Cambridge 
# Structural Database, then it will include bibliographic, chemical, 
# crystal, experimental, refinement or atomic coordinate data resulting 
# from the CCDC's data processing and validation procedures.
#
#######################################################################

data_SAXMAH
_symmetry_cell_setting           triclinic
_symmetry_space_group_name_H-M   'P -1'
_symmetry_Int_Tables_number      2
_space_group_name_Hall           '-P 1'
loop_
_symmetry_equiv_pos_site_id
_symmetry_equiv_pos_as_xyz
1 x,y,z
2 -x,-y,-z
_cell_length_a                   8.8670(18)
_cell_length_b                   10.512(2)
_cell_length_c                   11.510(2)
_cell_angle_alpha                81.57(3)
_cell_angle_beta                 81.38(3)
_cell_angle_gamma                66.73(3)
_cell_volume                     969.92
loop_
_atom_site_label
_atom_site_type_symbol
_atom_site_fract_x
_atom_site_fract_y
_atom_site_fract_z
Co1 Co 0.0000 0.5000 0.5000
Co2 Co 0.0000 1.0000 0.5000
O1 O 0.17122(15) 0.40954(12) 0.36408(10)
O2 O 0.22512(19) 0.43102(16) 0.17084(11)
O3 O 0.05104(14) 0.67642(12) 0.48125(11)
O4 O 0.18606(14) 0.81647(12) 0.44972(10)
O5 O 0.15132(18) 1.10114(14) 0.40295(13)
H1 H 0.1188 1.1809 0.4211
N1 N 0.18358(17) 0.38990(14) 0.62206(12)
N2 N 0.5064(2) 0.33307(16) 0.99736(14)
N3 N 0.55874(17) 0.19621(14) 0.96903(12)
N4 N 0.6181(2) 0.02707(16) 0.85854(14)
N5 N 0.7079(2) -0.02388(16) 0.95432(13)
N6 N 0.88067(18) 0.02183(15) 1.34200(12)
C1 C 0.2962(2) 0.26281(18) 0.60568(15)
H2 H 0.2966 0.2227 0.5387
C2 C 0.4115(2) 0.18845(18) 0.68273(15)
H3 H 0.4895 0.1011 0.6667
C3 C 0.4108(2) 0.24444(18) 0.78472(14)
C4 C 0.2956(2) 0.3764(2) 0.80190(16)
H4 H 0.2916 0.4184 0.8686
C5 C 0.1864(2) 0.44470(19) 0.71851(16)
H5 H 0.1106 0.5341 0.7303
C6 C 0.5299(2) 0.15882(18) 0.86840(15)
C7 C 0.6703(2) 0.07844(18) 1.01982(14)
C8 C 0.7392(2) 0.06286(18) 1.13197(14)
C9 C 0.8983(2) -0.03043(19) 1.14410(15)
H6 H 0.9607 -0.0821 1.0823
C10 C 0.9638(2) -0.0463(2) 1.24883(15)
H7 H 1.0722 -0.1081 1.2550
C11 C 0.6508(2) 0.1320(2) 1.22842(16)
H8 H 0.5420 0.1941 1.2245
C12 C 0.7250(2) 0.1083(2) 1.33056(16)
H9 H 0.6633 0.1550 1.3951
C13 C 0.2307(2) 0.45873(18) 0.27206(15)
C14 C 0.3198(3) 0.5532(2) 0.27831(17)
H10 H 0.2648 0.6407 0.2327
H11 H 0.4308 0.5117 0.2400
C15 C 0.3326(2) 0.58526(19) 0.40073(16)
H12 H 0.3526 0.5017 0.4548
H13 H 0.4262 0.6120 0.3970
C16 C 0.1801(2) 0.69938(16) 0.44795(13)
H14 H 0.425(3) 0.349(2) 1.0561(19)
H15 H 0.591(3) 0.340(2) 1.0164(19)
H18 H 0.162(4) 1.106(4) 0.339(3)
Co2_2 Co -1.0000 1.0000 -0.5000
Co2_3 Co 0.0000 0.0000 0.5000
Co2_4 Co 1.0000 0.0000 1.5000
O1A O -0.17122(15) 0.59046(12) 0.63592(10)
O2A O -0.22512(19) 0.56898(16) 0.82916(11)
O3A O -0.05104(14) 0.32358(12) 0.51875(11)
O4A O -0.18606(14) 0.18353(12) 0.55028(10)
O4A_2 O -0.18606(14) 1.18353(12) 0.55028(10)
O5A O -0.15132(18) 0.89886(14) 0.59705(13)
H1A H -0.1188 0.8191 0.5789
N1A N -0.18358(17) 0.61010(14) 0.37794(12)
N2A N -0.5064(2) 0.66693(16) 0.00264(14)
N3A N -0.55874(17) 0.80379(14) 0.03097(12)
N4A N -0.6181(2) 0.97293(16) 0.14146(14)
N5A N -0.7079(2) 1.02388(16) 0.04568(13)
N6A N -0.88067(18) 0.97817(15) -0.34200(12)
N6_2 N -0.11933(18) 1.02183(15) 0.34200(12)
N6A_2 N 0.11933(18) 0.97817(15) 0.65800(12)
C1A C -0.2962(2) 0.73719(18) 0.39432(15)
H2A H -0.2966 0.7773 0.4613
C2A C -0.4115(2) 0.81155(18) 0.31727(15)
H3A H -0.4895 0.8989 0.3333
C3A C -0.4108(2) 0.75556(18) 0.21528(14)
C4A C -0.2956(2) 0.6236(2) 0.19810(16)
H4A H -0.2916 0.5816 0.1314
C5A C -0.1864(2) 0.55530(19) 0.28149(16)
H5A H -0.1106 0.4659 0.2697
C6A C -0.5299(2) 0.84118(18) 0.13160(15)
C7A C -0.6703(2) 0.92156(18) -0.01982(14)
C8A C -0.7392(2) 0.93714(18) -0.13197(14)
C9A C -0.8983(2) 1.03043(19) -0.14410(15)
H6A H -0.9607 1.0821 -0.0823
C10A C -0.9638(2) 1.0463(2) -0.24883(15)
H7A H -1.0722 1.1081 -0.2550
C11A C -0.6508(2) 0.8680(2) -0.22842(16)
H8A H -0.5420 0.8059 -0.2245
C12A C -0.7250(2) 0.8917(2) -0.33056(16)
H9A H -0.6633 0.8450 -0.3951
C13A C -0.2307(2) 0.54127(18) 0.72794(15)
C14A C -0.3198(3) 0.4468(2) 0.72169(17)
H10A H -0.2648 0.3593 0.7673
H11A H -0.4308 0.4883 0.7600
C15A C -0.3326(2) 0.41474(19) 0.59927(16)
H12A H -0.3526 0.4983 0.5452
H13A H -0.4262 0.3880 0.6030
C16A C -0.1801(2) 0.30062(16) 0.55205(13)
H14A H -0.425(3) 0.651(2) -0.0561(19)
H15A H -0.591(3) 0.660(2) -0.0164(19)
H18A H -0.162(4) 0.894(4) 0.661(3)
O6 O 0.1758(2) 0.6638(2) 0.9966(2)
H16 H 0.172(3) 0.599(3) 1.040(2)
H17 H 0.102(4) 0.676(3) 0.956(3)
O7 O 0.0676(2) 0.25513(19) 0.15854(16)
H19 H 0.131(4) 0.201(4) 0.106(3)
H20 H 0.118(4) 0.316(4) 0.152(3)
loop_
_geom_bond_atom_site_label_1
_geom_bond_atom_site_label_2
_geom_bond_site_symmetry_1
_geom_bond_site_symmetry_2
Co1 O1 1_555 1_555
Co2 O4 1_555 1_555
O1 C13 1_555 1_555
O2 C13 1_555 1_555
O3 Co1 1_555 1_555
O4 C16 1_555 1_555
O5 Co2 1_555 1_555
H1 O5 1_555 1_555
N1 Co1 1_555 1_555
N2 N3 1_555 1_555
N3 C6 1_555 1_555
N4 N5 1_555 1_555
N5 C7 1_555 1_555
N6 C10 1_555 1_555
C1 N1 1_555 1_555
H2 C1 1_555 1_555
C2 C1 1_555 1_555
H3 C2 1_555 1_555
C3 C2 1_555 1_555
C4 C3 1_555 1_555
H4 C4 1_555 1_555
C5 N1 1_555 1_555
H5 C5 1_555 1_555
C6 N4 1_555 1_555
C7 N3 1_555 1_555
C8 C7 1_555 1_555
C9 C8 1_555 1_555
H6 C9 1_555 1_555
C10 C9 1_555 1_555
H7 C10 1_555 1_555
C11 C8 1_555 1_555
H8 C11 1_555 1_555
C12 N6 1_555 1_555
H9 C12 1_555 1_555
C13 C14 1_555 1_555
C14 H10 1_555 1_555
H11 C14 1_555 1_555
C15 C14 1_555 1_555
H12 C15 1_555 1_555
H13 C15 1_555 1_555
C16 O3 1_555 1_555
O6 H16 1_555 1_555
O7 H19 1_555 1_555
H14 N2 1_555 1_555
H15 N2 1_555 1_555
H17 O6 1_555 1_555
H18 O5 1_555 1_555
H20 O7 1_555 1_555
Co2_2 N6A 1_555 1_555
Co2_3 O4A 1_555 1_555
Co2_4 N6 1_555 1_555
O1A Co1 1_555 1_555
O2A C13A 1_555 1_555
O3A Co1 1_555 1_555
O4A C16A 1_555 1_555
O4A_2 Co2 1_555 1_555
O5A Co2 1_555 1_555
H1A O5A 1_555 1_555
N1A Co1 1_555 1_555
N2A N3A 1_555 1_555
N3A C6A 1_555 1_555
N4A N5A 1_555 1_555
N5A C7A 1_555 1_555
N6A C10A 1_555 1_555
N6_2 Co2 1_555 1_555
N6A_2 Co2 1_555 1_555
C1A N1A 1_555 1_555
H2A C1A 1_555 1_555
C2A C1A 1_555 1_555
H3A C2A 1_555 1_555
C3A C2A 1_555 1_555
C4A C3A 1_555 1_555
H4A C4A 1_555 1_555
C5A N1A 1_555 1_555
H5A C5A 1_555 1_555
C6A N4A 1_555 1_555
C7A N3A 1_555 1_555
C8A C7A 1_555 1_555
C9A C8A 1_555 1_555
H6A C9A 1_555 1_555
C10A C9A 1_555 1_555
H7A C10A 1_555 1_555
C11A C8A 1_555 1_555
H8A C11A 1_555 1_555
C12A N6A 1_555 1_555
H9A C12A 1_555 1_555
C13A O1A 1_555 1_555
C14A C13A 1_555 1_555
H10A C14A 1_555 1_555
H11A C14A 1_555 1_555
C15A C14A 1_555 1_555
H12A C15A 1_555 1_555
H13A C15A 1_555 1_555
C16A O3A 1_555 1_555
H14A N2A 1_555 1_555
H15A N2A 1_555 1_555
H18A O5A 1_555 1_555
C3 C6 1_555 1_555
C4 C5 1_555 1_555
C11 C12 1_555 1_555
C15 C16 1_555 1_555
C3A C6A 1_555 1_555
C4A C5A 1_555 1_555
C11A C12A 1_555 1_555
C15A C16A 1_555 1_555

#END
