
#######################################################################
#
#                 Cambridge Crystallographic Data Centre
#                                CCDC 
#
#######################################################################
#
# If this CIF has been generated from an entry in the Cambridge 
# Structural Database, then it will include bibliographic, chemical, 
# crystal, experimental, refinement or atomic coordinate data resulting 
# from the CCDC's data processing and validation procedures.
#
#######################################################################

data_SAXMUB
_symmetry_cell_setting           orthorhombic
_symmetry_space_group_name_H-M   'P n a 21'
_symmetry_Int_Tables_number      33
_space_group_name_Hall           'P 2c -2n'
loop_
_symmetry_equiv_pos_site_id
_symmetry_equiv_pos_as_xyz
1 x,y,z
2 -x,-y,1/2+z
3 1/2+x,1/2-y,z
4 1/2-x,1/2+y,1/2+z
_cell_length_a                   20.193(4)
_cell_length_b                   13.758(3)
_cell_length_c                   7.2100(14)
_cell_angle_alpha                90
_cell_angle_beta                 90
_cell_angle_gamma                90
_cell_volume                     2003.05
loop_
_atom_site_label
_atom_site_type_symbol
_atom_site_fract_x
_atom_site_fract_y
_atom_site_fract_z
Co1 Co 0.75594(3) 0.57945(6) 0.72648(19)
C1 C 1.1272(3) 1.0234(4) 0.7512(12)
H1 H 1.1148 0.9583 0.7550
C2 C 0.8883(3) 0.8775(4) 0.7520(10)
C3 C 0.8208(3) 0.8813(5) 0.7456(12)
H2 H 0.7991 0.9409 0.7509
C4 C 0.7855(3) 0.7974(4) 0.7315(15)
H3 H 0.7396 0.8018 0.7295
C5 C 0.8787(3) 0.7060(4) 0.7297(14)
H4 H 0.8992 0.6456 0.7252
C6 C 0.9175(3) 0.7860(4) 0.7452(14)
H5 H 0.9633 0.7798 0.7514
C7 C 1.0782(3) 1.0917(4) 0.7611(10)
C8 C 1.0972(3) 1.1885(5) 0.7662(10)
H6 H 1.0658 1.2377 0.7759
C9 C 1.1632(3) 1.2100(5) 0.7567(13)
H7 H 1.1774 1.2743 0.7575
C10 C 1.2086(3) 1.1354(5) 0.7461(14)
H8 H 1.2534 1.1506 0.7455
C11 C 0.9275(3) 0.9648(5) 0.7654(9)
C12 C 1.0105(3) 1.0568(4) 0.7673(9)
C13 C 0.9059(3) 0.5049(6) 1.1337(12)
H9 H 0.9279 0.5666 1.1545
H10 H 0.9016 0.4727 1.2528
C14 C 0.8368(3) 0.5244(5) 1.0565(10)
C15 C 0.9241(4) 0.3397(6) 0.9810(17)
C16 C 0.9486(4) 0.4434(5) 1.0096(14)
H11 H 0.9929 0.4409 1.0618
H12 H 0.9518 0.4749 0.8895
N1 N 0.8130(2) 0.7089(4) 0.7203(11)
N2 N 0.9944(2) 0.9639(4) 0.7480(11)
N3 N 0.9024(3) 1.0521(4) 0.7918(8)
N4 N 0.9563(3) 1.1096(4) 0.7945(8)
N5 N 1.1910(2) 1.0432(4) 0.7368(12)
O1 O 0.8268(2) 0.5127(4) 0.8923(6)
O2 O 0.7950(2) 0.5570(3) 1.1721(6)
O3 O 0.9426(3) 0.2980(4) 0.8320(12)
O4 O 0.8902(3) 0.3019(4) 1.1038(12)
O5 O 0.8085(3) 0.5173(4) 0.5175(7)
O6 O 0.6921(3) 0.6485(4) 0.5284(8)
O7 O 0.7047(3) 0.6377(4) 0.9550(8)
H13 H 0.6679 0.6693 0.9660
H14 H 0.7198 0.6255 1.0591
H15 H 0.6809 0.5995 0.4656
H16 H 0.8106 0.5410 0.4077
H17 H 0.8329 0.4702 0.5315
H18 H 0.9544 1.1721 0.8263
H19 H 0.6574 0.6731 0.5832
Co1B Co 1.25594(3) 0.92055(6) 0.72648(19)
N5B N 0.6910(2) 0.4568(4) 0.7368(12)
O8 O 0.6373(4) 0.8272(6) 0.0010(13)
H20 H 0.6141 0.8187 0.0980
H21 H 0.6292 0.8200 -0.1138
loop_
_geom_bond_atom_site_label_1
_geom_bond_atom_site_label_2
_geom_bond_site_symmetry_1
_geom_bond_site_symmetry_2
Co1 N1 1_555 1_555
C1 H1 1_555 1_555
C2 C3 1_555 1_555
C3 H2 1_555 1_555
C4 C3 1_555 1_555
H3 C4 1_555 1_555
C5 H4 1_555 1_555
C6 C2 1_555 1_555
H5 C6 1_555 1_555
C7 C1 1_555 1_555
C8 C7 1_555 1_555
H6 C8 1_555 1_555
C9 C8 1_555 1_555
H7 C9 1_555 1_555
C10 C9 1_555 1_555
H8 C10 1_555 1_555
C11 C2 1_555 1_555
C12 C7 1_555 1_555
C13 H9 1_555 1_555
H10 C13 1_555 1_555
C14 C13 1_555 1_555
C15 C16 1_555 1_555
C16 C13 1_555 1_555
H11 C16 1_555 1_555
H12 C16 1_555 1_555
N1 C4 1_555 1_555
N2 C11 1_555 1_555
N3 C11 1_555 1_555
N4 C12 1_555 1_555
N5 C1 1_555 1_555
O1 Co1 1_555 1_555
O2 C14 1_555 1_555
O3 C15 1_555 1_555
O4 C15 1_555 1_555
O5 Co1 1_555 1_555
O6 Co1 1_555 1_555
O7 Co1 1_555 1_555
O8 H20 1_555 1_555
H13 O7 1_555 1_555
H14 O7 1_555 1_555
H15 O6 1_555 1_555
H16 O5 1_555 1_555
H17 O5 1_555 1_555
H18 N4 1_555 1_555
H19 O6 1_555 1_555
H21 O8 1_555 1_555
Co1B N5 1_555 1_555
N5B Co1 1_555 1_555
C5 C6 1_555 1_555
C5 N1 1_555 1_555
C10 N5 1_555 1_555
C12 N2 1_555 1_555
C14 O1 1_555 1_555
N3 N4 1_555 1_555

#END
