
#######################################################################
#
#                 Cambridge Crystallographic Data Centre
#                                CCDC 
#
#######################################################################
#
# If this CIF has been generated from an entry in the Cambridge 
# Structural Database, then it will include bibliographic, chemical, 
# crystal, experimental, refinement or atomic coordinate data resulting 
# from the CCDC's data processing and validation procedures.
#
#######################################################################

data_SAXMIP
_symmetry_cell_setting           triclinic
_symmetry_space_group_name_H-M   'P -1'
_symmetry_Int_Tables_number      2
_space_group_name_Hall           '-P 1'
loop_
_symmetry_equiv_pos_site_id
_symmetry_equiv_pos_as_xyz
1 x,y,z
2 -x,-y,-z
_cell_length_a                   8.4440(17)
_cell_length_b                   10.685(2)
_cell_length_c                   11.195(2)
_cell_angle_alpha                85.47(3)
_cell_angle_beta                 81.33(3)
_cell_angle_gamma                67.78(3)
_cell_volume                     924.099
loop_
_atom_site_label
_atom_site_type_symbol
_atom_site_fract_x
_atom_site_fract_y
_atom_site_fract_z
Ni1 Ni 0.5000 0.5000 0.5000
Ni2 Ni 0.5000 1.0000 0.5000
C1 C 0.7308(5) 0.4681(4) 0.2553(4)
C2 C 0.8336(6) 0.5542(4) 0.2700(4)
H1 H 0.7838 0.6398 0.2275
H2 H 0.9503 0.5095 0.2304
C3 C 0.8439(5) 0.5838(4) 0.3999(4)
H3 H 0.8589 0.5028 0.4498
H4 H 0.9443 0.6071 0.4004
C4 C 0.6862(5) 0.6969(4) 0.4534(3)
C5 C 0.4637(5) 0.9348(4) 0.2470(4)
H5 H 0.5699 0.8674 0.2571
C6 C 0.4021(6) 0.9425(4) 0.1386(4)
H6 H 0.4640 0.8802 0.0789
C7 C 0.2460(5) 1.0446(4) 0.1196(3)
C8 C 0.1570(6) 1.1304(5) 0.2136(4)
H7 H 0.0509 1.1989 0.2053
C9 C 0.2280(6) 1.1132(4) 0.3211(4)
H8 H 0.1661 1.1710 0.3841
C10 C 0.1775(5) 1.0616(4) 0.0028(4)
C11 C 0.0442(5) 1.1354(4) -0.1495(3)
C12 C -0.0787(5) 1.2223(4) -0.2308(4)
C13 C -0.1937(5) 1.3513(4) -0.1988(4)
H9 H -0.1966 1.3853 -0.1242
C14 C -0.3044(5) 1.4290(4) -0.2797(4)
H10 H -0.3783 1.5161 -0.2579
C15 C -0.1982(5) 1.2607(4) -0.4177(4)
H11 H -0.1990 1.2287 -0.4924
C16 C -0.0808(5) 1.1771(4) -0.3438(4)
H12 H -0.0046 1.0920 -0.3692
H13 H 0.302(6) 0.881(4) -0.076(4)
H14 H 0.712(5) 1.068(3) 0.337(2)
H17 H 0.616(5) 1.175(2) 0.414(3)
N1 N 0.3816(4) 1.0174(3) 0.3384(3)
N2 N 0.0569(4) 1.1728(3) -0.0383(3)
N3 N 0.2334(5) 0.9641(4) -0.0793(3)
N4 N 0.1493(4) 1.0101(3) -0.1777(3)
N5 N -0.3109(4) 1.3855(3) -0.3874(3)
O1 O 0.6672(4) 0.4176(3) 0.3471(2)
O2 O 0.7187(5) 0.4479(4) 0.1482(3)
O3 O 0.5570(3) 0.6710(3) 0.5030(3)
O4 O 0.6877(3) 0.8158(3) 0.4461(2)
O5 O 0.6649(4) 1.0893(3) 0.4096(2)
Ni1_2 Ni -0.5000 1.5000 -0.5000
Ni2_2 Ni -0.5000 1.0000 -0.5000
Ni2_3 Ni 0.5000 0.0000 0.5000
C1A C 0.2692(5) 0.5319(4) 0.7447(4)
C2A C 0.1664(6) 0.4458(4) 0.7300(4)
H1A H 0.2162 0.3602 0.7725
H2A H 0.0497 0.4905 0.7696
C3A C 0.1561(5) 0.4162(4) 0.6001(4)
H3A H 0.1411 0.4972 0.5502
H4A H 0.0557 0.3929 0.5996
C4A C 0.3138(5) 0.3031(4) 0.5466(3)
C5A C -0.4637(5) 1.0652(4) -0.2470(4)
H5A H -0.5699 1.1326 -0.2571
C6A C -0.4021(6) 1.0575(4) -0.1386(4)
H6A H -0.4640 1.1198 -0.0789
C7A C -0.2460(5) 0.9554(4) -0.1196(3)
C8A C -0.1570(6) 0.8696(5) -0.2136(4)
H7A H -0.0509 0.8011 -0.2053
C9A C -0.2280(6) 0.8868(4) -0.3211(4)
H8A H -0.1661 0.8290 -0.3841
C10A C -0.1775(5) 0.9384(4) -0.0028(4)
C11A C -0.0442(5) 0.8646(4) 0.1495(3)
C12A C 0.0787(5) 0.7777(4) 0.2308(4)
C13A C 0.1937(5) 0.6487(4) 0.1988(4)
H9A H 0.1966 0.6147 0.1242
C14A C 0.3044(5) 0.5710(4) 0.2797(4)
H10A H 0.3783 0.4839 0.2579
C15A C 0.1982(5) 0.7393(4) 0.4177(4)
H11A H 0.1990 0.7713 0.4924
C16A C 0.0808(5) 0.8229(4) 0.3438(4)
H12A H 0.0046 0.9080 0.3692
H13A H -0.302(6) 1.119(4) 0.076(4)
H14A H 0.288(5) 0.932(3) 0.663(2)
H17A H 0.384(5) 0.825(2) 0.586(3)
N1A N -0.3816(4) 0.9826(3) -0.3384(3)
N1A_2 N 0.6184(4) 0.9826(3) 0.6616(3)
N2A N -0.0569(4) 0.8272(3) 0.0383(3)
N3A N -0.2334(5) 1.0359(4) 0.0793(3)
N4A N -0.1493(4) 0.9899(3) 0.1777(3)
N5A N 0.3109(4) 0.6145(3) 0.3874(3)
N5_2 N 0.6891(4) 0.3855(3) 0.6126(3)
O1A O 0.3328(4) 0.5824(3) 0.6529(2)
O2A O 0.2813(5) 0.5521(4) 0.8518(3)
O3A O 0.4430(3) 0.3290(3) 0.4970(3)
O4A O 0.3123(3) 0.1842(3) 0.5539(2)
O4A_2 O 0.3123(3) 1.1842(3) 0.5539(2)
O5A O 0.3351(4) 0.9107(3) 0.5904(2)
H15 H 0.598(4) 0.343(3) 0.104(4)
H18 H 0.449(3) 0.323(4) 0.085(4)
O6 O 0.5533(6) 0.2866(4) 0.0966(5)
H16 H 0.147(5) 0.351(4) 0.018(4)
H19 H 0.224(5) 0.443(3) -0.022(3)
O7 O 0.2191(6) 0.3838(4) 0.0330(4)
loop_
_geom_bond_atom_site_label_1
_geom_bond_atom_site_label_2
_geom_bond_site_symmetry_1
_geom_bond_site_symmetry_2
Ni1 O1 1_555 1_555
Ni2 N1 1_555 1_555
C1 C2 1_555 1_555
C2 H1 1_555 1_555
H2 C2 1_555 1_555
C3 C2 1_555 1_555
H3 C3 1_555 1_555
H4 C3 1_555 1_555
C4 C3 1_555 1_555
C5 H5 1_555 1_555
C6 C5 1_555 1_555
H6 C6 1_555 1_555
C7 C6 1_555 1_555
C8 C7 1_555 1_555
H7 C8 1_555 1_555
C9 C8 1_555 1_555
H8 C9 1_555 1_555
C10 C7 1_555 1_555
C11 C12 1_555 1_555
C12 C13 1_555 1_555
C13 H9 1_555 1_555
C14 C13 1_555 1_555
H10 C14 1_555 1_555
C15 H11 1_555 1_555
C16 C12 1_555 1_555
H12 C16 1_555 1_555
H13 N3 1_555 1_555
H14 O5 1_555 1_555
H15 O6 1_555 1_555
H16 O7 1_555 1_555
H17 O5 1_555 1_555
H18 O6 1_555 1_555
H19 O7 1_555 1_555
N1 C5 1_555 1_555
N2 C10 1_555 1_555
N3 C10 1_555 1_555
N4 C11 1_555 1_555
N5 C14 1_555 1_555
O1 C1 1_555 1_555
O2 C1 1_555 1_555
O3 Ni1 1_555 1_555
O4 Ni2 1_555 1_555
O5 Ni2 1_555 1_555
Ni1_2 N5 1_555 1_555
Ni2_2 N1A 1_555 1_555
Ni2_3 O4A 1_555 1_555
C1A C2A 1_555 1_555
C2A H1A 1_555 1_555
H2A C2A 1_555 1_555
C3A C2A 1_555 1_555
H3A C3A 1_555 1_555
H4A C3A 1_555 1_555
C4A C3A 1_555 1_555
C5A H5A 1_555 1_555
C6A C5A 1_555 1_555
H6A C6A 1_555 1_555
C7A C6A 1_555 1_555
C8A C7A 1_555 1_555
H7A C8A 1_555 1_555
C9A C8A 1_555 1_555
H8A C9A 1_555 1_555
C10A C7A 1_555 1_555
C11A C12A 1_555 1_555
C12A C13A 1_555 1_555
C13A H9A 1_555 1_555
C14A C13A 1_555 1_555
H10A C14A 1_555 1_555
C15A H11A 1_555 1_555
C16A C12A 1_555 1_555
H12A C16A 1_555 1_555
H13A N3A 1_555 1_555
H14A O5A 1_555 1_555
H17A O5A 1_555 1_555
N1A C5A 1_555 1_555
N1A_2 Ni2 1_555 1_555
N2A C10A 1_555 1_555
N3A C10A 1_555 1_555
N4A C11A 1_555 1_555
N5A Ni1 1_555 1_555
N5_2 Ni1 1_555 1_555
O1A Ni1 1_555 1_555
O2A C1A 1_555 1_555
O3A Ni1 1_555 1_555
O4A C4A 1_555 1_555
O4A_2 Ni2 1_555 1_555
O5A Ni2 1_555 1_555
C4 O3 1_555 1_555
C4 O4 1_555 1_555
C9 N1 1_555 1_555
C11 N2 1_555 1_555
C15 C16 1_555 1_555
C15 N5 1_555 1_555
N3 N4 1_555 1_555
C1A O1A 1_555 1_555
C4A O3A 1_555 1_555
C9A N1A 1_555 1_555
C11A N2A 1_555 1_555
C14A N5A 1_555 1_555
C15A C16A 1_555 1_555
C15A N5A 1_555 1_555
N3A N4A 1_555 1_555

#END
