
#######################################################################
#
#                 Cambridge Crystallographic Data Centre
#                                CCDC 
#
#######################################################################
#
# If this CIF has been generated from an entry in the Cambridge 
# Structural Database, then it will include bibliographic, chemical, 
# crystal, experimental, refinement or atomic coordinate data resulting 
# from the CCDC's data processing and validation procedures.
#
#######################################################################

data_SAXMOV
_symmetry_cell_setting           triclinic
_symmetry_space_group_name_H-M   'P -1'
_symmetry_Int_Tables_number      2
_space_group_name_Hall           '-P 1'
loop_
_symmetry_equiv_pos_site_id
_symmetry_equiv_pos_as_xyz
1 x,y,z
2 -x,-y,-z
_cell_length_a                   7.4890(15)
_cell_length_b                   7.9230(16)
_cell_length_c                   12.346(3)
_cell_angle_alpha                86.90(3)
_cell_angle_beta                 83.76(3)
_cell_angle_gamma                76.95(3)
_cell_volume                     709.077
loop_
_atom_site_label
_atom_site_type_symbol
_atom_site_fract_x
_atom_site_fract_y
_atom_site_fract_z
Cd1 Cd 0.0000 0.5000 1.0000
O1 O -0.3669(3) 0.7305(3) 0.86181(19)
O2 O -0.2299(3) 0.3967(3) 0.92519(18)
O3 O -0.1759(3) 0.7715(3) 0.97919(18)
N1 N 0.4454(4) 0.2599(4) 0.3505(2)
N2 N 0.1615(3) 0.5022(4) 0.82636(19)
C1 C -0.3150(4) 0.8213(4) 0.9271(2)
N3 N 0.5770(3) 0.2142(4) 0.50161(19)
N4 N 0.3220(4) 0.3551(4) 0.4250(2)
C2 C 0.4093(4) 0.3228(4) 0.5146(2)
N5 N 1.0633(4) -0.1493(4) 0.2319(2)
C3 C 0.3271(4) 0.3957(4) 0.6207(2)
C4 C 0.3353(4) 0.4106(4) 0.8127(2)
H1 H 0.4007 0.3840 0.8736
C5 C 0.1505(4) 0.5007(5) 0.6333(2)
H2 H 0.0852 0.5369 0.5732
C6 C 0.5947(4) 0.1788(4) 0.3971(2)
C7 C 1.0330(5) -0.1527(5) 0.3408(3)
H3 H 1.1172 -0.2287 0.3806
C8 C 0.0743(4) 0.5499(4) 0.7370(2)
H4 H -0.0438 0.6199 0.7450
C9 C -0.4310(4) 1.0016(4) 0.9495(3)
C10 C 0.7555(4) 0.0658(4) 0.3389(2)
C11 C 0.4220(4) 0.3537(4) 0.7127(2)
H5 H 0.5423 0.2883 0.7069
C12 C 0.7861(4) 0.0723(5) 0.2258(2)
H6 H 0.7055 0.1486 0.1841
C13 C 0.9415(5) -0.0390(5) 0.1771(3)
H7 H 0.9613 -0.0360 0.1015
C14 C 0.8815(4) -0.0478(5) 0.3968(3)
H8 H 0.8649 -0.0539 0.4725
H9 H 0.414(6) 0.247(6) 0.284(2)
H10 H -0.494(5) 1.047(5) 0.887(3)
H11 H -0.355(5) 1.079(5) 0.957(3)
H12 H -0.185(6) 0.325(4) 0.876(3)
H13 H -0.274(5) 0.495(3) 0.896(3)
Cd1_2 Cd -1.0000 1.5000 1.0000
O1A O -0.6331(3) 1.2695(3) 1.13819(19)
O2A O 0.2299(3) 0.6033(3) 1.07481(18)
O3A O -0.8241(3) 1.2285(3) 1.02081(18)
O3A_2 O 0.1759(3) 0.2285(3) 1.02081(18)
N1A N -0.4454(4) 0.7401(4) 1.6495(2)
N2A N -0.1615(3) 0.4978(4) 1.17364(19)
C1A C -0.6850(4) 1.1787(4) 1.0729(2)
N3A N -0.5770(3) 0.7858(4) 1.49839(19)
N4A N -0.3220(4) 0.6449(4) 1.5750(2)
C2A C -0.4093(4) 0.6772(4) 1.4854(2)
N5A N -1.0633(4) 1.1493(4) 1.7681(2)
C3A C -0.3271(4) 0.6043(4) 1.3793(2)
C4A C -0.3353(4) 0.5894(4) 1.1873(2)
H1A H -0.4007 0.6160 1.1264
C5A C -0.1505(4) 0.4993(5) 1.3667(2)
H2A H -0.0852 0.4631 1.4268
C6A C -0.5947(4) 0.8212(4) 1.6029(2)
C7A C -1.0330(5) 1.1527(5) 1.6592(3)
H3A H -1.1172 1.2287 1.6194
C8A C -0.0743(4) 0.4501(4) 1.2630(2)
H4A H 0.0438 0.3801 1.2550
C9A C -0.5690(4) 0.9984(4) 1.0505(3)
C10A C -0.7555(4) 0.9342(4) 1.6611(2)
C11A C -0.4220(4) 0.6463(4) 1.2873(2)
H5A H -0.5423 0.7117 1.2931
C12A C -0.7861(4) 0.9277(5) 1.7742(2)
H6A H -0.7055 0.8514 1.8159
C13A C -0.9415(5) 1.0390(5) 1.8229(3)
H7A H -0.9613 1.0360 1.8985
C14A C -0.8815(4) 1.0478(5) 1.6032(3)
H8A H -0.8649 1.0539 1.5275
H9A H -0.414(6) 0.753(6) 1.716(2)
H10A H -0.506(5) 0.953(5) 1.113(3)
H11A H -0.645(5) 0.921(5) 1.043(3)
H12A H 0.185(6) 0.675(4) 1.124(3)
H13A H 0.274(5) 0.505(3) 1.104(3)
loop_
_geom_bond_atom_site_label_1
_geom_bond_atom_site_label_2
_geom_bond_site_symmetry_1
_geom_bond_site_symmetry_2
Cd1 O2 1_555 1_555
O1 C1 1_555 1_555
O2 H12 1_555 1_555
O3 Cd1 1_555 1_555
N1 N4 1_555 1_555
N2 Cd1 1_555 1_555
C1 O3 1_555 1_555
N3 C2 1_555 1_555
N4 C2 1_555 1_555
C2 C3 1_555 1_555
N5 C7 1_555 1_555
C3 C5 1_555 1_555
C4 N2 1_555 1_555
H1 C4 1_555 1_555
C5 H2 1_555 1_555
C6 N1 1_555 1_555
C7 H3 1_555 1_555
C8 N2 1_555 1_555
H4 C8 1_555 1_555
C9 C1 1_555 1_555
C10 C6 1_555 1_555
C11 C3 1_555 1_555
H5 C11 1_555 1_555
C12 C10 1_555 1_555
H6 C12 1_555 1_555
C13 N5 1_555 1_555
H7 C13 1_555 1_555
C14 C7 1_555 1_555
H8 C14 1_555 1_555
H9 N1 1_555 1_555
H10 C9 1_555 1_555
H11 C9 1_555 1_555
H13 O2 1_555 1_555
Cd1_2 O3A 1_555 1_555
O1A C1A 1_555 1_555
O2A Cd1 1_555 1_555
O3A C1A 1_555 1_555
O3A_2 Cd1 1_555 1_555
N1A N4A 1_555 1_555
N2A Cd1 1_555 1_555
C1A C9A 1_555 1_555
N3A C2A 1_555 1_555
N4A C2A 1_555 1_555
C2A C3A 1_555 1_555
N5A C7A 1_555 1_555
C3A C5A 1_555 1_555
C4A N2A 1_555 1_555
H1A C4A 1_555 1_555
C5A H2A 1_555 1_555
C6A N1A 1_555 1_555
C7A H3A 1_555 1_555
C8A N2A 1_555 1_555
H4A C8A 1_555 1_555
C9A C9 1_555 1_555
C10A C6A 1_555 1_555
C11A C3A 1_555 1_555
H5A C11A 1_555 1_555
C12A C10A 1_555 1_555
H6A C12A 1_555 1_555
C13A N5A 1_555 1_555
H7A C13A 1_555 1_555
C14A C7A 1_555 1_555
H8A C14A 1_555 1_555
H9A N1A 1_555 1_555
H10A C9A 1_555 1_555
H11A C9A 1_555 1_555
H12A O2A 1_555 1_555
H13A O2A 1_555 1_555
N3 C6 1_555 1_555
C4 C11 1_555 1_555
C5 C8 1_555 1_555
C10 C14 1_555 1_555
C12 C13 1_555 1_555
N3A C6A 1_555 1_555
C4A C11A 1_555 1_555
C5A C8A 1_555 1_555
C10A C14A 1_555 1_555
C12A C13A 1_555 1_555

#END
