
#######################################################################
#
#                 Cambridge Crystallographic Data Centre
#                                CCDC 
#
#######################################################################
#
# If this CIF has been generated from an entry in the Cambridge 
# Structural Database, then it will include bibliographic, chemical, 
# crystal, experimental, refinement or atomic coordinate data resulting 
# from the CCDC's data processing and validation procedures.
#
#######################################################################

data_SAXNEM
_symmetry_cell_setting           monoclinic
_symmetry_space_group_name_H-M   'P 21/n'
_symmetry_Int_Tables_number      14
_space_group_name_Hall           '-P 2yn'
loop_
_symmetry_equiv_pos_site_id
_symmetry_equiv_pos_as_xyz
1 x,y,z
2 1/2-x,1/2+y,1/2-z
3 -x,-y,-z
4 1/2+x,1/2-y,1/2+z
_cell_length_a                   12.599(3)
_cell_length_b                   7.6800(15)
_cell_length_c                   14.330(3)
_cell_angle_alpha                90
_cell_angle_beta                 94.19(3)
_cell_angle_gamma                90
_cell_volume                     1382.87
loop_
_atom_site_label
_atom_site_type_symbol
_atom_site_fract_x
_atom_site_fract_y
_atom_site_fract_z
Zn1 Zn 0.80128(2) 0.05087(4) 0.02982(2)
C1 C 0.8771(2) 0.3540(4) -0.0300(2)
C2 C 0.9586(2) 0.4954(4) -0.0416(2)
H1 H 0.9225 0.6067 -0.0486
H2 H 0.9942 0.4736 -0.0982
C3 C 0.2145(2) 0.1486(4) 0.1482(2)
H3 H 0.1408 0.1392 0.1428
C4 C 0.2630(2) 0.2384(4) 0.2232(2)
H4 H 0.2222 0.2895 0.2673
C5 C 0.3728(2) 0.2516(4) 0.2323(2)
H5 H 0.4064 0.3132 0.2819
C6 C 0.4322(2) 0.1720(4) 0.16660(18)
C7 C 0.3778(2) 0.0854(4) 0.09256(19)
H6 H 0.4169 0.0328 0.0477
C8 C 0.5494(2) 0.1708(4) 0.17024(19)
C9 C 0.7129(2) 0.1717(4) 0.21540(18)
C10 C 0.8144(2) 0.1786(4) 0.27297(19)
C11 C 0.9084(2) 0.2300(4) 0.2353(2)
H7 H 0.9040 0.2679 0.1735
C12 C 1.0081(2) 0.1756(5) 0.3709(3)
H8 H 1.0739 0.1713 0.4047
C13 C 0.9194(3) 0.1271(5) 0.4153(2)
H9 H 0.9258 0.0947 0.4780
C14 C 0.8212(2) 0.1267(4) 0.3662(2)
H10 H 0.7606 0.0924 0.3948
N1 N 0.27092(17) 0.0747(3) 0.08303(16)
N2 N 0.61662(17) 0.2022(3) 0.24767(16)
N3 N 0.70518(17) 0.1259(3) 0.12461(16)
N4 N 0.59913(17) 0.1251(3) 0.09548(16)
N5 N 1.0046(2) 0.2288(4) 0.2817(2)
O1 O 0.91536(16) 0.1986(3) -0.01505(15)
O2 O 0.78157(18) 0.3831(4) -0.0330(2)
O3 O 0.90027(19) -0.1249(3) 0.08900(18)
H11 H 0.892(3) -0.175(5) 0.137(3)
H12 H 0.953(4) -0.149(6) 0.069(3)
Zn1B Zn 0.19872(2) -0.05087(4) -0.02982(2)
Zn1B_2 Zn 1.19872(2) 0.94913(4) -0.02982(2)
C1B C 1.1229(2) 0.6460(4) 0.0300(2)
C2B C 1.0414(2) 0.5046(4) 0.0416(2)
H1B H 1.0775 0.3933 0.0486
H2B H 1.0058 0.5264 0.0982
C3B C 0.7855(2) -0.1486(4) -0.1482(2)
H3B H 0.8592 -0.1392 -0.1428
C4B C 0.7370(2) -0.2384(4) -0.2232(2)
H4B H 0.7778 -0.2895 -0.2673
C5B C 0.6272(2) -0.2516(4) -0.2323(2)
H5B H 0.5936 -0.3132 -0.2819
C6B C 0.5678(2) -0.1720(4) -0.16660(18)
C7B C 0.6222(2) -0.0854(4) -0.09256(19)
H6B H 0.5831 -0.0328 -0.0477
C8B C 0.4506(2) -0.1708(4) -0.17024(19)
C9B C 0.2871(2) -0.1717(4) -0.21540(18)
C10B C 0.1856(2) -0.1786(4) -0.27297(19)
C11B C 0.0916(2) -0.2300(4) -0.2353(2)
H7B H 0.0960 -0.2679 -0.1735
C12B C -0.0081(2) -0.1756(5) -0.3709(3)
H8B H -0.0739 -0.1713 -0.4047
C13B C 0.0806(3) -0.1271(5) -0.4153(2)
H9B H 0.0742 -0.0947 -0.4780
C14B C 0.1788(2) -0.1267(4) -0.3662(2)
H10B H 0.2394 -0.0924 -0.3948
N1B N 0.72908(17) -0.0747(3) -0.08303(16)
N2B N 0.38338(17) -0.2022(3) -0.24767(16)
N3B N 0.29482(17) -0.1259(3) -0.12461(16)
N4B N 0.40087(17) -0.1251(3) -0.09548(16)
N5B N -0.0046(2) -0.2288(4) -0.2817(2)
O1B O 1.08464(16) 0.8014(3) 0.01505(15)
O1B_2 O 0.08464(16) -0.1986(3) 0.01505(15)
O2B O 1.21843(18) 0.6169(4) 0.0330(2)
O3B O 0.09973(19) 0.1249(3) -0.08900(18)
H11B H 0.108(3) 0.175(5) -0.137(3)
H12B H 0.047(4) 0.149(6) -0.069(3)
loop_
_geom_bond_atom_site_label_1
_geom_bond_atom_site_label_2
_geom_bond_site_symmetry_1
_geom_bond_site_symmetry_2
Zn1 N3 1_555 1_555
C1 C2 1_555 1_555
C2 H1 1_555 1_555
H2 C2 1_555 1_555
C3 H3 1_555 1_555
C4 C3 1_555 1_555
H4 C4 1_555 1_555
C5 C4 1_555 1_555
H5 C5 1_555 1_555
C6 C5 1_555 1_555
C7 C6 1_555 1_555
H6 C7 1_555 1_555
C8 C6 1_555 1_555
C9 C10 1_555 1_555
C10 C11 1_555 1_555
C11 H7 1_555 1_555
C12 H8 1_555 1_555
C13 C12 1_555 1_555
H9 C13 1_555 1_555
C14 C10 1_555 1_555
H10 C14 1_555 1_555
N1 C3 1_555 1_555
N2 C8 1_555 1_555
N3 C9 1_555 1_555
N4 C8 1_555 1_555
N5 C11 1_555 1_555
O1 Zn1 1_555 1_555
O2 C1 1_555 1_555
O3 Zn1 1_555 1_555
H11 O3 1_555 1_555
H12 O3 1_555 1_555
Zn1B N1 1_555 1_555
Zn1B_2 O1B 1_555 1_555
C1B C2B 1_555 1_555
C2B C2 1_555 1_555
H1B C2B 1_555 1_555
H2B C2B 1_555 1_555
C3B H3B 1_555 1_555
C4B C3B 1_555 1_555
H4B C4B 1_555 1_555
C5B C4B 1_555 1_555
H5B C5B 1_555 1_555
C6B C5B 1_555 1_555
C7B C6B 1_555 1_555
H6B C7B 1_555 1_555
C8B C6B 1_555 1_555
C9B C10B 1_555 1_555
C10B C11B 1_555 1_555
C11B H7B 1_555 1_555
C12B H8B 1_555 1_555
C13B C12B 1_555 1_555
H9B C13B 1_555 1_555
C14B C10B 1_555 1_555
H10B C14B 1_555 1_555
N1B Zn1 1_555 1_555
N2B C8B 1_555 1_555
N3B Zn1B 1_555 1_555
N4B C8B 1_555 1_555
N5B C11B 1_555 1_555
O1B C1B 1_555 1_555
O1B_2 Zn1B 1_555 1_555
O2B C1B 1_555 1_555
O3B Zn1B 1_555 1_555
H11B O3B 1_555 1_555
H12B O3B 1_555 1_555
C1 O1 1_555 1_555
C7 N1 1_555 1_555
C9 N2 1_555 1_555
C12 N5 1_555 1_555
C13 C14 1_555 1_555
N3 N4 1_555 1_555
C3B N1B 1_555 1_555
C7B N1B 1_555 1_555
C9B N2B 1_555 1_555
C9B N3B 1_555 1_555
C12B N5B 1_555 1_555
C13B C14B 1_555 1_555
N3B N4B 1_555 1_555

#END
