
#######################################################################
#
#                 Cambridge Crystallographic Data Centre
#                                CCDC 
#
#######################################################################
#
# If this CIF has been generated from an entry in the Cambridge 
# Structural Database, then it will include bibliographic, chemical, 
# crystal, experimental, refinement or atomic coordinate data resulting 
# from the CCDC's data processing and validation procedures.
#
#######################################################################

data_SAXNIQ
_symmetry_cell_setting           monoclinic
_symmetry_space_group_name_H-M   'P 21/c'
_symmetry_Int_Tables_number      14
_space_group_name_Hall           '-P 2ybc'
loop_
_symmetry_equiv_pos_site_id
_symmetry_equiv_pos_as_xyz
1 x,y,z
2 -x,1/2+y,1/2-z
3 -x,-y,-z
4 x,1/2-y,1/2+z
_cell_length_a                   15.7365(3)
_cell_length_b                   21.1555(4)
_cell_length_c                   27.1871(5)
_cell_angle_alpha                90
_cell_angle_beta                 91.8630(7)
_cell_angle_gamma                90
_cell_volume                     9046.17
loop_
_atom_site_label
_atom_site_type_symbol
_atom_site_fract_x
_atom_site_fract_y
_atom_site_fract_z
O2 O 0.3131(6) 0.1918(5) 0.0257(5)
O3 O 0.3358(8) 0.8098(7) 0.4554(8)
O4 O 0.0648(8) 0.7997(6) 0.4270(7)
W1 W 0.082339(15) 0.560084(12) 0.301863(9)
W2 W -0.197999(15) 0.558565(12) 0.067520(9)
W3 W -0.580360(16) 0.433010(13) 0.189660(9)
W4 W -0.701320(15) 0.931910(13) 0.073030(9)
Cu1 Cu 0.11813(5) 0.49834(4) 0.11494(3)
Cu2 Cu 0.0000 0.5000 0.5000
Cu3 Cu -0.5000 0.5000 0.0000
Cu4 Cu -0.24879(5) 0.48806(4) 0.24558(3)
Cu5 Cu 0.02778(5) 0.29861(4) 0.26850(3)
Cu6 Cu -0.59923(5) 0.69437(4) 0.14461(3)
Cu7 Cu -0.61668(5) 0.50088(4) 0.38265(3)
O5 O -0.6424(3) 0.7249(3) 0.20828(17)
O6 O -0.4801(3) 0.7053(3) 0.17070(18)
O7 O 0.1478(3) 0.2822(3) 0.29089(18)
O8 O -0.0114(4) 0.2756(3) 0.33457(18)
N1 N -0.3763(4) 0.5074(3) 0.0147(3)
N2 N -0.5086(4) 0.5963(3) 0.02042(19)
N3 N -0.5208(4) 0.4683(3) 0.0780(3)
N4 N -0.1987(4) 0.5108(3) 0.1824(3)
N5 N -0.1183(4) 0.5202(3) 0.2862(3)
N6 N -0.5498(4) 0.6729(3) 0.0770(2)
N7 N -0.3770(4) 0.4679(3) 0.2035(3)
N8 N -0.7185(4) 0.6765(3) 0.1162(2)
N9 N -0.2955(4) 0.4638(3) 0.3089(3)
N10 N -0.8337(4) 0.6058(3) 0.1042(3)
N11 N 0.0340(4) 0.4069(3) 0.4973(3)
N12 N -0.4981(4) 0.4765(3) 0.4062(2)
N13 N -0.6508(4) 0.5091(4) 0.4651(3)
N14 N -0.5679(5) 0.4897(4) 0.3024(3)
N15 N -0.7345(4) 0.5200(3) 0.3554(3)
N16 N -0.5871(4) 0.5940(3) 0.3794(3)
N17 N 0.0014(4) 0.5206(3) 0.0923(2)
N18 N 0.2367(4) 0.4766(3) 0.1366(2)
N19 N -0.6514(4) 0.4072(3) 0.3823(3)
N20 N -0.4785(5) 0.3134(4) 0.2439(3)
N21 N -0.5841(4) 0.5883(3) 0.1757(3)
N22 N 0.0636(4) 0.4048(3) 0.2920(3)
N23 N 0.0152(4) 0.1840(3) 0.2491(3)
N24 N -0.7527(6) 0.3277(5) 0.3981(4)
N25 N -0.1003(5) 0.6821(4) 0.1185(3)
N26 N -0.6032(4) 0.8075(3) 0.1216(3)
N27 N -0.2056(4) 0.3959(3) 0.2360(2)
N28 N -0.1173(4) 0.4755(4) 0.4801(3)
N29 N 0.0918(4) 0.5200(3) 0.1841(2)
N30 N 0.1423(4) 0.4754(3) 0.0458(2)
N31 N -0.7317(5) 0.3644(4) 0.2519(3)
N32 N -0.0938(4) 0.3213(3) 0.2457(2)
N33 N -0.6276(5) 0.3080(4) 0.1209(3)
N34 N 0.2353(4) 0.6441(4) 0.2531(3)
N35 N -0.2888(4) 0.5798(3) 0.2541(2)
N36 N -0.2468(5) 0.6816(4) -0.0025(3)
N37 N -0.3563(4) 0.6263(4) 0.1253(3)
N38 N -0.3898(6) 0.6580(5) 0.2741(4)
N39 N -0.1910(6) 0.4025(4) 0.0653(4)
N40 N -0.7147(6) 0.8173(4) -0.0088(3)
N41 N 0.0673(4) 0.3134(3) 0.1982(2)
N42 N -0.8522(4) 0.8467(4) 0.1215(3)
N43 N 0.1007(7) 0.6803(4) 0.3788(3)
N44 N -0.7185(6) 1.0869(4) 0.0892(4)
N45 N 0.0314(5) 0.5103(4) 0.4124(3)
N46 N 0.0956(4) 0.3864(3) 0.1352(2)
N47 N 0.0319(7) 0.3094(6) 0.4541(6)
N48 N -0.6002(6) 0.6896(5) 0.3325(5)
C1 C -0.3142(4) 0.5246(4) 0.0319(3)
C2 C -0.0670(4) 0.5351(4) 0.0815(3)
C3 C -0.4631(5) 0.6390(4) -0.0022(3)
C4 C -0.1946(4) 0.5273(4) 0.1429(3)
C5 C -0.4601(5) 0.7006(4) 0.0127(3)
C6 C -0.0503(5) 0.5365(4) 0.2924(3)
C7 C -0.5058(5) 0.7174(4) 0.0534(3)
C8 C 0.0762(4) 0.4576(4) 0.2974(3)
C9 C 0.0476(5) 0.5268(4) 0.3743(3)
C10 C -0.5496(4) 0.6145(4) 0.0592(3)
C11 C -0.0174(4) 0.1398(4) 0.2333(3)
C12 C -0.1347(5) 0.6397(4) 0.1007(3)
C13 C -0.7494(6) 0.7121(5) 0.0790(4)
C14 C -0.3019(5) 0.6029(4) 0.1051(3)
C15 C -0.8246(6) 0.6961(5) 0.0536(4)
C16 C -0.1932(5) 0.4560(4) 0.0659(3)
C17 C -0.8646(6) 0.6426(5) 0.0685(4)
C18 C -0.6799(5) 0.3871(4) 0.2302(3)
C19 C -0.5807(4) 0.5358(4) 0.1827(3)
C20 C -0.7631(5) 0.6253(4) 0.1267(3)
C21 C -0.6357(4) 0.8511(4) 0.1054(3)
C22 C -0.5148(5) 0.3542(4) 0.2252(3)
C23 C 0.0148(6) 0.3719(5) 0.4592(4)
C24 C -0.4473(5) 0.4574(4) 0.1978(3)
C25 C -0.5710(5) 0.4698(4) 0.2636(3)
C26 C 0.0687(9) 0.2837(6) 0.4964(8)
C27 C 0.3005(5) 0.4611(3) 0.1540(3)
C28 C 0.0859(4) 0.5335(3) 0.2252(3)
C29 C 0.0737(7) 0.3791(6) 0.5346(5)
C30 C -0.7982(5) 0.5311(3) 0.3361(3)
C31 C -0.2997(4) 0.4520(4) 0.3495(3)
C32 C -0.6151(6) 0.6287(5) 0.3413(5)
C33 C -0.1795(5) 0.4596(4) 0.4620(3)
C34 C 0.1577(4) 0.4631(4) 0.0061(3)
C35 C -0.5539(9) 0.7191(6) 0.3699(6)
C36 C -0.6114(5) 0.3513(4) 0.1455(3)
C37 C 0.1821(5) 0.6157(4) 0.2697(3)
C38 C -0.5412(8) 0.6236(6) 0.4109(5)
C39 C -0.2295(5) 0.6383(4) 0.0212(3)
C40 C -0.6036(5) 0.3633(4) 0.3622(3)
C41 C -0.4297(4) 0.4607(4) 0.4145(3)
C42 C -0.6234(4) 0.3031(3) 0.3598(3)
C43 C -0.6650(5) 0.5298(4) 0.5025(3)
C44 C -0.6963(6) 0.2844(4) 0.3775(4)
C45 C -0.7118(6) 0.8569(4) 0.0193(3)
C46 C -0.7247(6) 0.3901(4) 0.4008(3)
C47 C -0.2490(6) 0.3557(4) 0.2074(4)
C48 C -0.2160(6) 0.2977(5) 0.1964(5)
C49 C -0.7125(6) 1.0334(4) 0.0833(3)
C50 C -0.1376(6) 0.2819(4) 0.2158(4)
C51 C -0.5408(5) 0.4546(4) 0.1161(3)
C52 C -0.1301(4) 0.3769(4) 0.2556(3)
C53 C -0.2375(5) 0.6275(4) 0.2420(3)
C54 C -0.8006(5) 0.8753(4) 0.1042(3)
C55 C -0.2562(5) 0.6879(4) 0.2449(3)
C56 C 0.0953(6) 0.6383(4) 0.3535(3)
C57 C -0.3297(7) 0.7026(5) 0.2605(4)
C58 C -0.3640(5) 0.5952(4) 0.2703(3)
C59 C 0.1143(5) 0.2698(4) 0.1761(3)
C60 C 0.1552(6) 0.2840(5) 0.1332(4)
C61 C 0.1440(6) 0.3440(4) 0.1143(3)
C62 C 0.0604(4) 0.3696(4) 0.1764(3)
C63 C 0.0963(10) 0.3163(7) 0.5346(7)
C64 C -0.5205(11) 0.6871(7) 0.4047(6)
H1 H -0.4320 0.6268 -0.0291
H2 H -0.4284 0.7304 -0.0039
H3 H -0.5059 0.7591 0.0643
H4 H -0.5808 0.5841 0.0756
H5 H -0.7201 0.7483 0.0699
H6 H -0.8465 0.7207 0.0277
H7 H -0.9159 0.6314 0.0530
H8 H -0.7423 0.6005 0.1527
H9 H -0.0134 0.3917 0.4329
H10 H 0.0742 0.2400 0.4978
H11 H 0.0873 0.4031 0.5624
H12 H -0.6492 0.6078 0.3179
H13 H -0.5473 0.7628 0.3695
H14 H -0.5209 0.6024 0.4389
H15 H -0.5526 0.3760 0.3490
H16 H -0.5867 0.2742 0.3459
H17 H -0.7106 0.2417 0.3764
H18 H -0.7581 0.4202 0.4160
H19 H -0.3025 0.3670 0.1948
H20 H -0.2463 0.2696 0.1761
H21 H -0.1141 0.2430 0.2080
H22 H -0.1015 0.4041 0.2773
H23 H -0.1843 0.6170 0.2306
H24 H -0.2176 0.7188 0.2361
H25 H -0.3437 0.7452 0.2628
H26 H -0.4008 0.5632 0.2794
H27 H 0.1197 0.2296 0.1897
H28 H 0.1887 0.2543 0.1177
H29 H 0.1716 0.3549 0.0858
H30 H 0.0276 0.3998 0.1918
H31 H 0.1289 0.2982 0.5600
H32 H -0.4815 0.7061 0.4264
W1B W -1.082339(15) 0.439916(12) -0.301863(9)
W2B W -0.802001(15) 0.441435(12) -0.067520(9)
W3B W -0.419640(16) 0.566990(13) -0.189660(9)
W4B W -0.298680(15) 0.068090(13) -0.073030(9)
Cu1B Cu -1.11813(5) 0.50166(4) -0.11494(3)
Cu4B Cu -0.75121(5) 0.51194(4) -0.24558(3)
Cu5B Cu -1.02778(5) 0.70139(4) -0.26850(3)
Cu6B Cu -0.40077(5) 0.30563(4) -0.14461(3)
Cu7B Cu -0.38332(5) 0.49912(4) -0.38265(3)
O5B O -0.3576(3) 0.2751(3) -0.20828(17)
O6B O -0.5199(3) 0.2947(3) -0.17070(18)
O7B O -1.1478(3) 0.7178(3) -0.29089(18)
O8B O -0.9886(4) 0.7244(3) -0.33457(18)
N1B N -0.6237(4) 0.4926(3) -0.0147(3)
N2B N -0.4914(4) 0.4037(3) -0.02042(19)
N3B N -0.4792(4) 0.5317(3) -0.0780(3)
N4B N -0.8013(4) 0.4892(3) -0.1824(3)
N5B N -0.8817(4) 0.4798(3) -0.2862(3)
N6B N -0.4502(4) 0.3271(3) -0.0770(2)
N7B N -0.6230(4) 0.5321(3) -0.2035(3)
N8B N -0.2815(4) 0.3235(3) -0.1162(2)
N9B N -0.7045(4) 0.5362(3) -0.3089(3)
N10B N -0.1663(4) 0.3942(3) -0.1042(3)
N12B N -0.5019(4) 0.5235(3) -0.4062(2)
N13B N -0.3492(4) 0.4909(4) -0.4651(3)
N14B N -0.4321(5) 0.5103(4) -0.3024(3)
N15B N -0.2655(4) 0.4800(3) -0.3554(3)
N16B N -0.4129(4) 0.4060(3) -0.3794(3)
N17B N -1.0014(4) 0.4794(3) -0.0923(2)
N18B N -1.2367(4) 0.5234(3) -0.1366(2)
N19B N -0.3486(4) 0.5928(3) -0.3823(3)
N20B N -0.5215(5) 0.6866(4) -0.2439(3)
N21B N -0.4159(4) 0.4117(3) -0.1757(3)
N22B N -1.0636(4) 0.5952(3) -0.2920(3)
N23B N -1.0152(4) 0.8160(3) -0.2491(3)
N24B N -0.2473(6) 0.6723(5) -0.3981(4)
N25B N -0.8997(5) 0.3179(4) -0.1185(3)
N26B N -0.3968(4) 0.1925(3) -0.1216(3)
N27B N -0.7944(4) 0.6041(3) -0.2360(2)
N29B N -1.0918(4) 0.4800(3) -0.1841(2)
N30B N -1.1423(4) 0.5246(3) -0.0458(2)
N31B N -0.2683(5) 0.6356(4) -0.2519(3)
N32B N -0.9062(4) 0.6787(3) -0.2457(2)
N33B N -0.3724(5) 0.6920(4) -0.1209(3)
N34B N -1.2353(4) 0.3559(4) -0.2531(3)
N35B N -0.7112(4) 0.4202(3) -0.2541(2)
N36B N -0.7532(5) 0.3184(4) 0.0025(3)
N37B N -0.6437(4) 0.3737(4) -0.1253(3)
N38B N -0.6102(6) 0.3420(5) -0.2741(4)
N39B N -0.8090(6) 0.5975(4) -0.0653(4)
N40B N -0.2853(6) 0.1827(4) 0.0088(3)
N41B N -1.0673(4) 0.6866(3) -0.1982(2)
N42B N -0.1478(4) 0.1533(4) -0.1215(3)
N43B N -1.1007(7) 0.3197(4) -0.3788(3)
N44B N -0.2815(6) -0.0869(4) -0.0892(4)
N45B N -1.0314(5) 0.4897(4) -0.4124(3)
N46B N -1.0956(4) 0.6136(3) -0.1352(2)
N48B N -0.3998(6) 0.3104(5) -0.3325(5)
C1B C -0.6858(4) 0.4754(4) -0.0319(3)
C2B C -0.9330(4) 0.4649(4) -0.0815(3)
C3B C -0.5369(5) 0.3610(4) 0.0022(3)
C4B C -0.8054(4) 0.4727(4) -0.1429(3)
C5B C -0.5399(5) 0.2994(4) -0.0127(3)
C6B C -0.9497(5) 0.4635(4) -0.2924(3)
C7B C -0.4942(5) 0.2826(4) -0.0534(3)
C8B C -1.0762(4) 0.5424(4) -0.2974(3)
C9B C -1.0476(5) 0.4732(4) -0.3743(3)
C10B C -0.4504(4) 0.3855(4) -0.0592(3)
C11B C -0.9826(4) 0.8602(4) -0.2333(3)
C12B C -0.8653(5) 0.3603(4) -0.1007(3)
C13B C -0.2506(6) 0.2879(5) -0.0790(4)
C14B C -0.6981(5) 0.3971(4) -0.1051(3)
C15B C -0.1754(6) 0.3039(5) -0.0536(4)
C16B C -0.8068(5) 0.5440(4) -0.0659(3)
C17B C -0.1354(6) 0.3574(5) -0.0685(4)
C18B C -0.3201(5) 0.6129(4) -0.2302(3)
C19B C -0.4193(4) 0.4642(4) -0.1827(3)
C20B C -0.2369(5) 0.3747(4) -0.1267(3)
C21B C -0.3643(4) 0.1489(4) -0.1054(3)
C22B C -0.4852(5) 0.6458(4) -0.2252(3)
C24B C -0.5527(5) 0.5426(4) -0.1978(3)
C25B C -0.4290(5) 0.5302(4) -0.2636(3)
C27B C -1.3005(5) 0.5389(3) -0.1540(3)
C28B C -1.0859(4) 0.4665(3) -0.2252(3)
C30B C -0.2018(5) 0.4689(3) -0.3361(3)
C31B C -0.7003(4) 0.5480(4) -0.3495(3)
C32B C -0.3849(6) 0.3713(5) -0.3413(5)
C34B C -1.1577(4) 0.5369(4) -0.0061(3)
C35B C -0.4461(9) 0.2809(6) -0.3699(6)
C36B C -0.3886(5) 0.6487(4) -0.1455(3)
C37B C -1.1821(5) 0.3843(4) -0.2697(3)
C38B C -0.4588(8) 0.3764(6) -0.4109(5)
C39B C -0.7705(5) 0.3617(4) -0.0212(3)
C40B C -0.3964(5) 0.6367(4) -0.3622(3)
C41B C -0.5703(4) 0.5393(4) -0.4145(3)
C42B C -0.3766(4) 0.6969(3) -0.3598(3)
C43B C -0.3350(5) 0.4702(4) -0.5025(3)
C44B C -0.3037(6) 0.7156(4) -0.3775(4)
C45B C -0.2882(6) 0.1431(4) -0.0193(3)
C46B C -0.2753(6) 0.6099(4) -0.4008(3)
C47B C -0.7510(6) 0.6443(4) -0.2074(4)
C48B C -0.7840(6) 0.7023(5) -0.1964(5)
C49B C -0.2875(6) -0.0334(4) -0.0833(3)
C50B C -0.8624(6) 0.7181(4) -0.2158(4)
C51B C -0.4592(5) 0.5454(4) -0.1161(3)
C52B C -0.8699(4) 0.6231(4) -0.2556(3)
C53B C -0.7625(5) 0.3725(4) -0.2420(3)
C54B C -0.1994(5) 0.1247(4) -0.1042(3)
C55B C -0.7438(5) 0.3121(4) -0.2449(3)
C56B C -1.0953(6) 0.3617(4) -0.3535(3)
C57B C -0.6703(7) 0.2974(5) -0.2605(4)
C58B C -0.6360(5) 0.4048(4) -0.2703(3)
C59B C -1.1143(5) 0.7302(4) -0.1761(3)
C60B C -1.1552(6) 0.7160(5) -0.1332(4)
C61B C -1.1440(6) 0.6560(4) -0.1143(3)
C62B C -1.0604(4) 0.6304(4) -0.1764(3)
C64B C -0.4795(11) 0.3129(7) -0.4047(6)
H1B H -0.5680 0.3732 0.0291
H2B H -0.5716 0.2696 0.0039
H3B H -0.4941 0.2409 -0.0643
H4B H -0.4192 0.4159 -0.0756
H5B H -0.2799 0.2517 -0.0699
H6B H -0.1535 0.2793 -0.0277
H7B H -0.0841 0.3686 -0.0530
H8B H -0.2577 0.3995 -0.1527
H12B H -0.3508 0.3922 -0.3179
H13B H -0.4527 0.2372 -0.3695
H14B H -0.4791 0.3976 -0.4389
H15B H -0.4474 0.6240 -0.3490
H16B H -0.4133 0.7258 -0.3459
H17B H -0.2894 0.7583 -0.3764
H18B H -0.2419 0.5798 -0.4160
H19B H -0.6975 0.6330 -0.1948
H20B H -0.7537 0.7304 -0.1761
H21B H -0.8859 0.7570 -0.2080
H22B H -0.8985 0.5959 -0.2773
H23B H -0.8157 0.3830 -0.2306
H24B H -0.7824 0.2812 -0.2361
H25B H -0.6563 0.2548 -0.2628
H26B H -0.5992 0.4368 -0.2794
H27B H -1.1197 0.7704 -0.1897
H28B H -1.1887 0.7457 -0.1177
H29B H -1.1716 0.6451 -0.0858
H30B H -1.0276 0.6002 -0.1918
H32B H -0.5185 0.2939 -0.4264
N11B N -0.0340(4) 0.5931(3) 0.5027(3)
N47B N -0.0319(7) 0.6906(6) 0.5459(6)
C23B C -0.0148(6) 0.6281(5) 0.5408(4)
C26B C -0.0687(9) 0.7163(6) 0.5036(8)
C29B C -0.0737(7) 0.6209(6) 0.4654(5)
C63B C -0.0963(10) 0.6837(7) 0.4654(7)
H9B H 0.0134 0.6083 0.5671
H10B H -0.0742 0.7600 0.5022
H11B H -0.0873 0.5969 0.4376
H31B H -0.1289 0.7018 0.4400
N28A N -0.8827(4) 0.9755(4) 0.0199(3)
C33A C -0.8205(5) 0.9596(4) 0.0380(3)
W1_2 W -0.917661(15) 0.560084(12) 0.301863(9)
W1A W -0.082339(15) 0.060084(12) 0.198137(9)
W1B_2 W -0.082339(15) 0.439916(12) -0.301863(9)
W1C W -0.917661(15) 0.939916(12) -0.198137(9)
W2_2 W -1.197999(15) 0.558565(12) 0.067520(9)
W2B_2 W 0.197999(15) 0.441435(12) -0.067520(9)
W3_2 W 0.419640(16) 0.433010(13) 0.189660(9)
W3B_2 W -1.419640(16) 0.566990(13) -0.189660(9)
W4A W -0.298680(15) 0.431910(13) -0.573030(9)
W4A_2 W -0.298680(15) 0.431910(13) 0.426970(9)
W4C W -0.701320(15) 0.568090(13) -0.426970(9)
W4C_2 W -0.701320(15) 0.568090(13) 0.573030(9)
Cu1_2 Cu -0.88187(5) 0.49834(4) 0.11494(3)
Cu1B_2 Cu -0.11813(5) 0.50166(4) -0.11494(3)
Cu2_2 Cu -1.0000 0.5000 -0.5000
Cu2A Cu -1.0000 1.0000 0.0000
N10_2 N 0.1663(4) 0.6058(3) 0.1042(3)
N10B_2 N -1.1663(4) 0.3942(3) -0.1042(3)
N28B N 0.1173(4) 0.5245(4) 0.5199(3)
N45B_2 N -0.0314(5) 0.4897(4) 0.5876(3)
C11A C 0.0174(4) 0.6398(4) 0.2667(3)
C11C C -1.0174(4) 0.3602(4) -0.2667(3)
C27_2 C -0.6995(5) 0.4611(3) 0.1540(3)
C27B_2 C -0.3005(5) 0.5389(3) -0.1540(3)
C30_2 C 0.2018(5) 0.5311(3) 0.3361(3)
C30B_2 C -1.2018(5) 0.4689(3) -0.3361(3)
C31A C -0.7003(4) 0.9520(4) 0.1505(3)
C31C C -0.2997(4) 0.0480(4) -0.1505(3)
C33C C -0.1795(5) 0.0404(4) -0.0380(3)
C34_2 C -0.8423(4) 0.4631(4) 0.0061(3)
C34B_2 C -0.1577(4) 0.5369(4) -0.0061(3)
C41A C -0.5703(4) 0.9607(4) 0.0855(3)
C41C C -0.4297(4) 0.0393(4) -0.0855(3)
C43A C -0.3350(5) 0.0298(4) -0.0025(3)
C43C C -0.6650(5) 0.9702(4) 0.0025(3)
O1 O 0.4414(8) 0.3609(5) 0.4822(4)
loop_
_geom_bond_atom_site_label_1
_geom_bond_atom_site_label_2
_geom_bond_site_symmetry_1
_geom_bond_site_symmetry_2
W1 C6 1_555 1_555
W2 C1 1_555 1_555
W3 C18 1_555 1_555
W4 C21 1_555 1_555
Cu1 N17 1_555 1_555
Cu2 N11 1_555 1_555
Cu3 N1 1_555 1_555
Cu4 N4 1_555 1_555
Cu5 O7 1_555 1_555
Cu6 O5 1_555 1_555
Cu7 N12 1_555 1_555
O6 Cu6 1_555 1_555
O8 Cu5 1_555 1_555
N1 C1 1_555 1_555
N2 Cu3 1_555 1_555
N3 Cu3 1_555 1_555
N4 C4 1_555 1_555
N5 Cu4 1_555 1_555
N6 Cu6 1_555 1_555
N7 Cu4 1_555 1_555
N8 Cu6 1_555 1_555
N9 Cu4 1_555 1_555
N10 C17 1_555 1_555
N11 C23 1_555 1_555
N12 C41 1_555 1_555
N13 Cu7 1_555 1_555
N14 Cu7 1_555 1_555
N15 Cu7 1_555 1_555
N16 Cu7 1_555 1_555
N17 C2 1_555 1_555
N18 Cu1 1_555 1_555
N19 Cu7 1_555 1_555
N20 C22 1_555 1_555
N21 Cu6 1_555 1_555
N22 Cu5 1_555 1_555
N23 Cu5 1_555 1_555
N24 C44 1_555 1_555
N25 C12 1_555 1_555
N26 Cu6 1_555 1_555
N27 Cu4 1_555 1_555
N28 Cu2 1_555 1_555
N29 Cu1 1_555 1_555
N30 Cu1 1_555 1_555
N31 C18 1_555 1_555
N32 Cu5 1_555 1_555
N33 C36 1_555 1_555
N34 C37 1_555 1_555
N35 Cu4 1_555 1_555
N36 C39 1_555 1_555
N37 C14 1_555 1_555
N38 C57 1_555 1_555
N39 C16 1_555 1_555
N40 C45 1_555 1_555
N41 Cu5 1_555 1_555
N42 C54 1_555 1_555
N43 C56 1_555 1_555
N44 C49 1_555 1_555
N45 Cu2 1_555 1_555
N46 Cu1 1_555 1_555
N47 C23 1_555 1_555
N48 C32 1_555 1_555
C2 W2 1_555 1_555
C3 N2 1_555 1_555
C4 W2 1_555 1_555
C5 C3 1_555 1_555
C6 N5 1_555 1_555
C7 N6 1_555 1_555
C8 W1 1_555 1_555
C9 W1 1_555 1_555
C10 N2 1_555 1_555
C11 N23 1_555 1_555
C12 W2 1_555 1_555
C13 N8 1_555 1_555
C14 W2 1_555 1_555
C15 C13 1_555 1_555
C16 W2 1_555 1_555
C17 C15 1_555 1_555
C19 W3 1_555 1_555
C20 N8 1_555 1_555
C21 N26 1_555 1_555
C22 W3 1_555 1_555
C23 H9 1_555 1_555
C24 W3 1_555 1_555
C25 W3 1_555 1_555
C26 N47 1_555 1_555
C27 N18 1_555 1_555
C28 W1 1_555 1_555
C29 N11 1_555 1_555
C30 N15 1_555 1_555
C31 N9 1_555 1_555
C32 N16 1_555 1_555
C33 N28 1_555 1_555
C34 N30 1_555 1_555
C35 N48 1_555 1_555
C36 W3 1_555 1_555
C37 W1 1_555 1_555
C38 N16 1_555 1_555
C39 W2 1_555 1_555
C40 N19 1_555 1_555
C41 W4A_2 1_555 1_555
C42 C40 1_555 1_555
C43 N13 1_555 1_555
C44 C42 1_555 1_555
C45 W4 1_555 1_555
C46 N19 1_555 1_555
C47 N27 1_555 1_555
C48 C47 1_555 1_555
C49 W4 1_555 1_555
C50 N32 1_555 1_555
C51 W3 1_555 1_555
C52 N27 1_555 1_555
C53 N35 1_555 1_555
C54 W4 1_555 1_555
C55 C53 1_555 1_555
C56 W1 1_555 1_555
C57 C55 1_555 1_555
C58 N35 1_555 1_555
C59 N41 1_555 1_555
C60 C59 1_555 1_555
C61 N46 1_555 1_555
C62 N41 1_555 1_555
C63 C26 1_555 1_555
C64 C35 1_555 1_555
H1 C3 1_555 1_555
H2 C5 1_555 1_555
H3 C7 1_555 1_555
H4 C10 1_555 1_555
H5 C13 1_555 1_555
H6 C15 1_555 1_555
H7 C17 1_555 1_555
H8 C20 1_555 1_555
H10 C26 1_555 1_555
H11 C29 1_555 1_555
H12 C32 1_555 1_555
H13 C35 1_555 1_555
H14 C38 1_555 1_555
H15 C40 1_555 1_555
H16 C42 1_555 1_555
H17 C44 1_555 1_555
H18 C46 1_555 1_555
H19 C47 1_555 1_555
H20 C48 1_555 1_555
H21 C50 1_555 1_555
H22 C52 1_555 1_555
H23 C53 1_555 1_555
H24 C55 1_555 1_555
H25 C57 1_555 1_555
H26 C58 1_555 1_555
H27 C59 1_555 1_555
H28 C60 1_555 1_555
H29 C61 1_555 1_555
H30 C62 1_555 1_555
H31 C63 1_555 1_555
H32 C64 1_555 1_555
W1B C6B 1_555 1_555
W2B C1B 1_555 1_555
W3B C18B 1_555 1_555
W4B C21B 1_555 1_555
Cu1B N17B 1_555 1_555
Cu4B N4B 1_555 1_555
Cu5B O7B 1_555 1_555
Cu6B O5B 1_555 1_555
Cu7B N12B 1_555 1_555
O6B Cu6B 1_555 1_555
O8B Cu5B 1_555 1_555
N1B Cu3 1_555 1_555
N2B Cu3 1_555 1_555
N3B Cu3 1_555 1_555
N4B C4B 1_555 1_555
N5B Cu4B 1_555 1_555
N6B Cu6B 1_555 1_555
N7B Cu4B 1_555 1_555
N8B Cu6B 1_555 1_555
N9B Cu4B 1_555 1_555
N10B C17B 1_555 1_555
N12B C41B 1_555 1_555
N13B Cu7B 1_555 1_555
N14B Cu7B 1_555 1_555
N15B Cu7B 1_555 1_555
N16B Cu7B 1_555 1_555
N17B C2B 1_555 1_555
N18B Cu1B 1_555 1_555
N19B Cu7B 1_555 1_555
N20B C22B 1_555 1_555
N21B Cu6B 1_555 1_555
N22B Cu5B 1_555 1_555
N23B Cu5B 1_555 1_555
N24B C44B 1_555 1_555
N25B C12B 1_555 1_555
N26B Cu6B 1_555 1_555
N27B Cu4B 1_555 1_555
N29B Cu1B 1_555 1_555
N30B Cu1B 1_555 1_555
N31B C18B 1_555 1_555
N32B Cu5B 1_555 1_555
N33B C36B 1_555 1_555
N34B C37B 1_555 1_555
N35B Cu4B 1_555 1_555
N36B C39B 1_555 1_555
N37B C14B 1_555 1_555
N38B C57B 1_555 1_555
N39B C16B 1_555 1_555
N40B C45B 1_555 1_555
N41B Cu5B 1_555 1_555
N42B C54B 1_555 1_555
N43B C56B 1_555 1_555
N44B C49B 1_555 1_555
N45B C9B 1_555 1_555
N46B Cu1B 1_555 1_555
N48B C32B 1_555 1_555
C1B N1B 1_555 1_555
C2B W2B 1_555 1_555
C3B N2B 1_555 1_555
C4B W2B 1_555 1_555
C5B C3B 1_555 1_555
C6B N5B 1_555 1_555
C7B N6B 1_555 1_555
C8B W1B 1_555 1_555
C9B W1B 1_555 1_555
C10B N2B 1_555 1_555
C11B N23B 1_555 1_555
C12B W2B 1_555 1_555
C13B N8B 1_555 1_555
C14B W2B 1_555 1_555
C15B C13B 1_555 1_555
C16B W2B 1_555 1_555
C17B C15B 1_555 1_555
C19B W3B 1_555 1_555
C20B N8B 1_555 1_555
C21B N26B 1_555 1_555
C22B W3B 1_555 1_555
C24B W3B 1_555 1_555
C25B W3B 1_555 1_555
C27B N18B 1_555 1_555
C28B W1B 1_555 1_555
C30B N15B 1_555 1_555
C31B N9B 1_555 1_555
C32B N16B 1_555 1_555
C34B N30B 1_555 1_555
C35B N48B 1_555 1_555
C36B W3B 1_555 1_555
C37B W1B 1_555 1_555
C38B N16B 1_555 1_555
C39B W2B 1_555 1_555
C40B N19B 1_555 1_555
C41B W4C 1_555 1_555
C42B C40B 1_555 1_555
C43B N13B 1_555 1_555
C44B C42B 1_555 1_555
C45B W4B 1_555 1_555
C46B N19B 1_555 1_555
C47B N27B 1_555 1_555
C48B C47B 1_555 1_555
C49B W4B 1_555 1_555
C50B N32B 1_555 1_555
C51B W3B 1_555 1_555
C52B N27B 1_555 1_555
C53B N35B 1_555 1_555
C54B W4B 1_555 1_555
C55B C53B 1_555 1_555
C56B W1B 1_555 1_555
C57B C55B 1_555 1_555
C58B N35B 1_555 1_555
C59B N41B 1_555 1_555
C60B C59B 1_555 1_555
C61B N46B 1_555 1_555
C62B N41B 1_555 1_555
C64B C35B 1_555 1_555
H1B C3B 1_555 1_555
H2B C5B 1_555 1_555
H3B C7B 1_555 1_555
H4B C10B 1_555 1_555
H5B C13B 1_555 1_555
H6B C15B 1_555 1_555
H7B C17B 1_555 1_555
H8B C20B 1_555 1_555
H12B C32B 1_555 1_555
H13B C35B 1_555 1_555
H14B C38B 1_555 1_555
H15B C40B 1_555 1_555
H16B C42B 1_555 1_555
H17B C44B 1_555 1_555
H18B C46B 1_555 1_555
H19B C47B 1_555 1_555
H20B C48B 1_555 1_555
H21B C50B 1_555 1_555
H22B C52B 1_555 1_555
H23B C53B 1_555 1_555
H24B C55B 1_555 1_555
H25B C57B 1_555 1_555
H26B C58B 1_555 1_555
H27B C59B 1_555 1_555
H28B C60B 1_555 1_555
H29B C61B 1_555 1_555
H30B C62B 1_555 1_555
H32B C64B 1_555 1_555
N11B Cu2 1_555 1_555
N47B C23B 1_555 1_555
C23B N11B 1_555 1_555
C26B N47B 1_555 1_555
C29B N11B 1_555 1_555
C63B C26B 1_555 1_555
H9B C23B 1_555 1_555
H10B C26B 1_555 1_555
H11B C29B 1_555 1_555
H31B C63B 1_555 1_555
N28A C33A 1_555 1_555
C33A W4 1_555 1_555
W1_2 C30 1_555 1_555
W1A C11 1_555 1_555
W1B_2 C30B 1_555 1_555
W1C C11B 1_555 1_555
W2_2 C34B 1_555 1_555
W2B_2 C34 1_555 1_555
W3_2 C27 1_555 1_555
W3B_2 C27B 1_555 1_555
W4A C43B 1_555 1_555
W4A_2 C31 1_555 1_555
W4C C31B 1_555 1_555
W4C_2 C43 1_555 1_555
Cu1_2 N10 1_555 1_555
Cu1B_2 N10B 1_555 1_555
Cu2_2 N45B 1_555 1_555
Cu2A N28A 1_555 1_555
N10_2 Cu1 1_555 1_555
N10B_2 Cu1B 1_555 1_555
N28B Cu2 1_555 1_555
N45B_2 Cu2 1_555 1_555
C11A W1 1_555 1_555
C11C W1B 1_555 1_555
C27_2 W3 1_555 1_555
C27B_2 W3B 1_555 1_555
C30_2 W1 1_555 1_555
C30B_2 W1B 1_555 1_555
C31A W4 1_555 1_555
C31C W4B 1_555 1_555
C33C W4B 1_555 1_555
C34_2 W2B 1_555 1_555
C34B_2 W2 1_555 1_555
C41A W4 1_555 1_555
C41C W4B 1_555 1_555
C43A W4B 1_555 1_555
C43C W4 1_555 1_555
N3 C51 1_555 1_555
N6 C10 1_555 1_555
N7 C24 1_555 1_555
N10 C20 1_555 1_555
N14 C25 1_555 1_555
N21 C19 1_555 1_555
N22 C8 1_555 1_555
N24 C46 1_555 1_555
N29 C28 1_555 1_555
N32 C52 1_555 1_555
N38 C58 1_555 1_555
N45 C9 1_555 1_555
N46 C62 1_555 1_555
C5 C7 1_555 1_555
C29 C63 1_555 1_555
C33 W4A_2 1_555 1_555
C38 C64 1_555 1_555
C48 C50 1_555 1_555
C60 C61 1_555 1_555
N3B C51B 1_555 1_555
N6B C10B 1_555 1_555
N7B C24B 1_555 1_555
N10B C20B 1_555 1_555
N14B C25B 1_555 1_555
N21B C19B 1_555 1_555
N22B C8B 1_555 1_555
N24B C46B 1_555 1_555
N29B C28B 1_555 1_555
N32B C52B 1_555 1_555
N38B C58B 1_555 1_555
N46B C62B 1_555 1_555
C5B C7B 1_555 1_555
C38B C64B 1_555 1_555
C48B C50B 1_555 1_555
C60B C61B 1_555 1_555
C29B C63B 1_555 1_555

#END
