
#######################################################################
#
#                 Cambridge Crystallographic Data Centre
#                                CCDC 
#
#######################################################################
#
# If this CIF has been generated from an entry in the Cambridge 
# Structural Database, then it will include bibliographic, chemical, 
# crystal, experimental, refinement or atomic coordinate data resulting 
# from the CCDC's data processing and validation procedures.
#
#######################################################################

data_SAXNAI
_symmetry_cell_setting           monoclinic
_symmetry_space_group_name_H-M   'P 2/c'
_symmetry_Int_Tables_number      13
_space_group_name_Hall           '-P 2yc'
loop_
_symmetry_equiv_pos_site_id
_symmetry_equiv_pos_as_xyz
1 x,y,z
2 -x,y,1/2-z
3 -x,-y,-z
4 x,-y,1/2+z
_cell_length_a                   14.520(3)
_cell_length_b                   7.1660(14)
_cell_length_c                   15.901(3)
_cell_angle_alpha                90
_cell_angle_beta                 97.63(3)
_cell_angle_gamma                90
_cell_volume                     1639.86
loop_
_atom_site_label
_atom_site_type_symbol
_atom_site_fract_x
_atom_site_fract_y
_atom_site_fract_z
Zn1 Zn 0.19364(11) 1.0796(2) 0.18521(9)
C1 C 0.1476(9) 1.7089(18) 0.1035(8)
C2 C 0.0630(9) 1.6895(18) 0.1488(9)
H1 H 0.0814 1.7075 0.2091
H2 H 0.0189 1.7868 0.1292
C3 C 0.0160(9) 1.502(2) 0.1347(9)
H3 H -0.0069 1.4875 0.0749
H4 H -0.0368 1.4969 0.1661
C4 C 0.0820(9) 1.3447(18) 0.1629(9)
H5 H 0.2576 0.4164 0.4909
C5 C 0.1478(9) 1.0398(19) 0.3619(9)
H6 H 0.1110 1.1453 0.3505
C6 C 0.1455(11) 0.945(2) 0.4368(8)
H7 H 0.1088 0.9907 0.4759
C7 C 0.1947(9) 0.790(2) 0.4544(8)
H8 H 0.1891 0.7227 0.5033
C8 C 0.2544(9) 0.7315(19) 0.3989(8)
C9 C 0.2551(9) 0.831(2) 0.3247(8)
H9 H 0.2940 0.7908 0.2863
C10 C 0.3165(9) 0.568(2) 0.4130(8)
C11 C 0.4258(10) 0.388(2) 0.4056(10)
C12 C 0.5150(10) 0.315(2) 0.3856(10)
C13 C 0.5729(11) 0.425(2) 0.3452(10)
H10 H 0.5575 0.5484 0.3322
C14 C 0.6538(10) 0.350(2) 0.3242(9)
H11 H 0.6914 0.4248 0.2952
C15 C 0.6216(12) 0.069(2) 0.3795(11)
H12 H 0.6374 -0.0560 0.3891
C16 C 0.5433(12) 0.125(2) 0.4026(10)
H13 H 0.5066 0.0445 0.4296
N1 N 0.2018(8) 0.9831(16) 0.3053(7)
N2 N 0.3941(8) 0.5553(18) 0.3784(8)
N3 N 0.3055(8) 0.4223(18) 0.4620(8)
N4 N 0.3759(8) 0.3023(19) 0.4581(8)
N5 N 0.6814(7) 0.1758(16) 0.3430(7)
O1 O 0.1614(8) 1.5947(15) 0.0483(7)
O2 O 0.1471(7) 1.3711(14) 0.2242(7)
O3 O 0.0747(7) 1.1896(14) 0.1249(7)
O4 O 0.2012(7) 1.8445(13) 0.1230(6)
Zn1A Zn 0.80636(11) 0.0796(2) 0.31479(9)
Zn1_2 Zn 0.19364(11) 2.0796(2) 0.18521(9)
N5A N 0.3186(7) 1.1758(16) 0.1570(7)
O4_2 O 0.2012(7) 0.8445(13) 0.1230(6)
loop_
_geom_bond_atom_site_label_1
_geom_bond_atom_site_label_2
_geom_bond_site_symmetry_1
_geom_bond_site_symmetry_2
Zn1 N1 1_555 1_555
C1 C2 1_555 1_555
C2 H1 1_555 1_555
H2 C2 1_555 1_555
C3 C2 1_555 1_555
H3 C3 1_555 1_555
H4 C3 1_555 1_555
C4 C3 1_555 1_555
H5 N3 1_555 1_555
C5 H6 1_555 1_555
C6 C5 1_555 1_555
H7 C6 1_555 1_555
C7 C6 1_555 1_555
H8 C7 1_555 1_555
C8 C7 1_555 1_555
C9 C8 1_555 1_555
H9 C9 1_555 1_555
C10 C8 1_555 1_555
C11 C12 1_555 1_555
C12 C13 1_555 1_555
C13 H10 1_555 1_555
C14 C13 1_555 1_555
H11 C14 1_555 1_555
C15 H12 1_555 1_555
C16 C12 1_555 1_555
H13 C16 1_555 1_555
N1 C5 1_555 1_555
N2 C10 1_555 1_555
N3 C10 1_555 1_555
N4 C11 1_555 1_555
N5 C14 1_555 1_555
O1 C1 1_555 1_555
O2 Zn1 1_555 1_555
O3 Zn1 1_555 1_555
O4 C1 1_555 1_555
Zn1A N5 1_555 1_555
Zn1_2 O4 1_555 1_555
N5A Zn1 1_555 1_555
O4_2 Zn1 1_555 1_555
C4 O2 1_555 1_555
C4 O3 1_555 1_555
C9 N1 1_555 1_555
C11 N2 1_555 1_555
C15 C16 1_555 1_555
C15 N5 1_555 1_555
N3 N4 1_555 1_555

#END
