
#######################################################################
#
#                 Cambridge Crystallographic Data Centre
#                                CCDC 
#
#######################################################################
#
# If this CIF has been generated from an entry in the Cambridge 
# Structural Database, then it will include bibliographic, chemical, 
# crystal, experimental, refinement or atomic coordinate data resulting 
# from the CCDC's data processing and validation procedures.
#
#######################################################################

data_SAXQUF
_symmetry_cell_setting           tetragonal
_symmetry_space_group_name_H-M   'P -4 21 c'
_symmetry_Int_Tables_number      114
_space_group_name_Hall           'P -4 2n'
loop_
_symmetry_equiv_pos_site_id
_symmetry_equiv_pos_as_xyz
1 x,y,z
2 y,-x,-z
3 -x,-y,z
4 -y,x,-z
5 1/2+x,1/2-y,1/2-z
6 1/2-x,1/2+y,1/2-z
7 1/2-y,1/2-x,1/2+z
8 1/2+y,1/2+x,1/2+z
_cell_length_a                   11.8293(3)
_cell_length_b                   11.8293(3)
_cell_length_c                   15.2015(5)
_cell_angle_alpha                90
_cell_angle_beta                 90
_cell_angle_gamma                90
_cell_volume                     2127.18
loop_
_atom_site_label
_atom_site_type_symbol
_atom_site_fract_x
_atom_site_fract_y
_atom_site_fract_z
Co1 Co 0.0000 0.5000 0.161005(17)
N1 N 0.15154(10) 0.48329(11) 0.22200(8)
C1 C -0.06216(12) 0.51185(12) -0.04057(9)
C2 C -0.03426(14) 0.69201(12) 0.04838(10)
C3 C 0.28070(13) 0.38146(13) 0.31403(12)
H1 H 0.2955 0.3172 0.3473
C4 C -0.13493(14) 0.43827(13) -0.08429(11)
H2 H -0.1064 0.3722 -0.1089
C5 C 0.33505(14) 0.55903(14) 0.25448(13)
H3 H 0.3868 0.6173 0.2464
C6 C -0.22171(14) 0.63436(14) -0.01135(11)
H4 H -0.2509 0.7005 0.0127
O1 O -0.03763(14) 0.79290(10) 0.03053(10)
C7 C 0.17952(13) 0.39262(13) 0.27200(11)
H5 H 0.1268 0.3348 0.2780
C8 C 0.36246(12) 0.46676(12) 0.30710(10)
C9 C -0.24937(14) 0.46228(16) -0.09163(13)
H6 H -0.2970 0.4126 -0.1211
C10 C 0.23073(16) 0.56330(16) 0.21440(13)
H7 H 0.2143 0.6260 0.1798
C11 C -0.10664(12) 0.61053(12) -0.00312(11)
C12 C -0.29249(14) 0.56024(16) -0.05501(13)
H8 H -0.3692 0.5763 -0.0598
O2 O 0.02613(9) 0.64961(9) 0.11028(7)
N2 N 0.46183(11) 0.45528(12) 0.34961(10)
H9 H 0.4769(18) 0.406(2) 0.3898(15)
Co1_2 Co 1.0000 0.5000 0.161005(17)
N1B N 0.84846(10) 0.51671(11) 0.22200(8)
N1B_2 N -0.15154(10) 0.51671(11) 0.22200(8)
C1B C 0.06216(12) 0.48815(12) -0.04057(9)
C2B C 0.03426(14) 0.30799(12) 0.04838(10)
C3B C 0.71930(13) 0.61854(13) 0.31403(12)
H1B H 0.7045 0.6828 0.3473
C4B C 0.13493(14) 0.56173(13) -0.08429(11)
H2B H 0.1064 0.6278 -0.1089
C5B C 0.66495(14) 0.44097(14) 0.25448(13)
H3B H 0.6132 0.3827 0.2464
C6B C 0.22171(14) 0.36564(14) -0.01135(11)
H4B H 0.2509 0.2995 0.0127
O1B O 0.03763(14) 0.20710(10) 0.03053(10)
C7B C 0.82048(13) 0.60738(13) 0.27200(11)
H5B H 0.8732 0.6652 0.2780
C8B C 0.63754(12) 0.53324(12) 0.30710(10)
C9B C 0.24937(14) 0.53772(16) -0.09163(13)
H6B H 0.2970 0.5874 -0.1211
C10B C 0.76927(16) 0.43670(16) 0.21440(13)
H7B H 0.7857 0.3740 0.1798
C11B C 0.10664(12) 0.38947(12) -0.00312(11)
C12B C 0.29249(14) 0.43976(16) -0.05501(13)
H8B H 0.3692 0.4237 -0.0598
O2B O -0.02613(9) 0.35039(9) 0.11028(7)
N2B N 0.53817(11) 0.54472(12) 0.34961(10)
H9B H 0.5231(18) 0.594(2) 0.3898(15)
loop_
_geom_bond_atom_site_label_1
_geom_bond_atom_site_label_2
_geom_bond_site_symmetry_1
_geom_bond_site_symmetry_2
Co1 N1 1_555 1_555
N1 C7 1_555 1_555
C1 C4 1_555 1_555
C2 O1 1_555 1_555
C3 H1 1_555 1_555
C4 H2 1_555 1_555
C5 H3 1_555 1_555
C6 H4 1_555 1_555
C7 C3 1_555 1_555
H5 C7 1_555 1_555
C8 C3 1_555 1_555
C9 C4 1_555 1_555
H6 C9 1_555 1_555
C10 N1 1_555 1_555
H7 C10 1_555 1_555
C11 C1 1_555 1_555
C12 C6 1_555 1_555
H8 C12 1_555 1_555
O2 Co1 1_555 1_555
N2 C8 1_555 1_555
H9 N2 1_555 1_555
Co1_2 N1B 1_555 1_555
N1B C7B 1_555 1_555
N1B_2 Co1 1_555 1_555
C1B C1 1_555 1_555
C2B O1B 1_555 1_555
C3B H1B 1_555 1_555
C4B C1B 1_555 1_555
H2B C4B 1_555 1_555
C5B H3B 1_555 1_555
C6B H4B 1_555 1_555
C7B C3B 1_555 1_555
H5B C7B 1_555 1_555
C8B C3B 1_555 1_555
C9B C4B 1_555 1_555
H6B C9B 1_555 1_555
C10B N1B 1_555 1_555
H7B C10B 1_555 1_555
C11B C1B 1_555 1_555
C12B C6B 1_555 1_555
H8B C12B 1_555 1_555
O2B Co1 1_555 1_555
N2B N2 1_555 1_555
H9B N2B 1_555 1_555
C2 C11 1_555 1_555
C2 O2 1_555 1_555
C5 C8 1_555 1_555
C5 C10 1_555 1_555
C6 C11 1_555 1_555
C9 C12 1_555 1_555
C2B C11B 1_555 1_555
C2B O2B 1_555 1_555
C5B C8B 1_555 1_555
C5B C10B 1_555 1_555
C6B C11B 1_555 1_555
C8B N2B 1_555 1_555
C9B C12B 1_555 1_555

#END
