
#######################################################################
#
#                 Cambridge Crystallographic Data Centre
#                                CCDC 
#
#######################################################################
#
# If this CIF has been generated from an entry in the Cambridge 
# Structural Database, then it will include bibliographic, chemical, 
# crystal, experimental, refinement or atomic coordinate data resulting 
# from the CCDC's data processing and validation procedures.
#
#######################################################################

data_SAXRUG
_symmetry_cell_setting           triclinic
_symmetry_space_group_name_H-M   'P -1'
_symmetry_Int_Tables_number      2
_space_group_name_Hall           '-P 1'
loop_
_symmetry_equiv_pos_site_id
_symmetry_equiv_pos_as_xyz
1 x,y,z
2 -x,-y,-z
_cell_length_a                   9.928(5)
_cell_length_b                   13.554(7)
_cell_length_c                   17.063(9)
_cell_angle_alpha                85.114(11)
_cell_angle_beta                 84.884(11)
_cell_angle_gamma                80.510(13)
_cell_volume                     2249.81
loop_
_atom_site_label
_atom_site_type_symbol
_atom_site_fract_x
_atom_site_fract_y
_atom_site_fract_z
Mn1 Mn 0.24377(5) 0.99861(4) 0.02082(3)
O1 O 0.4182(2) 0.97933(17) -0.06663(15)
O2 O 0.6078(2) 1.0400(2) -0.11151(15)
O3 O 0.0869(2) 1.04885(18) -0.06050(15)
O4 O -0.0874(2) 1.0061(2) -0.11628(15)
N1 N 0.1940(4) 0.4804(2) 0.0281(2)
N2 N 0.2313(3) 0.1675(2) 0.03093(19)
N3 N 0.2916(4) 0.5174(2) -0.0011(2)
N4 N 0.2521(3) 0.8293(2) 0.0086(2)
C1 C 0.4807(3) 1.0415(3) -0.1076(2)
C2 C 0.3959(3) 1.1255(3) -0.1521(2)
C3 C 0.1329(4) 0.9721(3) -0.1812(2)
C4 C 0.2126(4) 0.3740(3) 0.0271(3)
C5 C 0.2746(4) 0.6241(3) 0.0040(3)
C6 C 0.2510(3) 1.0132(3) -0.2081(2)
C7 C 0.2780(4) 1.1121(3) -0.1873(2)
C8 C 0.0377(3) 1.0129(3) -0.1139(2)
C9 C 0.2982(4) 0.7842(3) -0.0570(3)
H1 H 0.3228 0.8236 -0.1016
C10 C 0.3409(4) 0.2113(3) 0.0382(2)
H2 H 0.4247 0.1705 0.0449
C11 C 0.1925(4) 1.1976(3) -0.2150(3)
H3 H 0.1137 1.1902 -0.2381
C12 C 0.3356(4) 0.3128(3) 0.0363(3)
H4 H 0.4143 0.3400 0.0411
C13 C 0.3112(4) 0.6824(3) -0.0623(3)
H5 H 0.3437 0.6536 -0.1093
C14 C 0.2247(4) 0.6693(3) 0.0714(3)
H6 H 0.1976 0.6316 0.1164
C15 C 0.2152(4) 0.7723(3) 0.0712(3)
H7 H 0.1814 0.8030 0.1173
C16 C 0.3377(4) 0.9663(3) -0.2670(3)
H8 H 0.4174 0.9917 -0.2848
C17 C 0.4260(4) 1.2220(3) -0.1492(3)
H9 H 0.5056 1.2306 -0.1275
C18 C 0.1052(4) 0.8881(3) -0.2144(3)
H10 H 0.0264 0.8615 -0.1967
C19 C 0.3392(5) 1.3054(3) -0.1781(3)
H11 H 0.3605 1.3694 -0.1763
C20 C 0.1123(4) 0.2277(3) 0.0223(3)
H12 H 0.0353 0.1989 0.0165
C21 C 0.0980(4) 0.3303(3) 0.0215(3)
H13 H 0.0125 0.3696 0.0172
C22 C 0.1931(5) 0.8435(4) -0.2734(3)
H14 H 0.1737 0.7872 -0.2950
C23 C 0.3092(5) 0.8830(4) -0.3001(3)
H15 H 0.3683 0.8538 -0.3401
C24 C 0.2206(5) 1.2917(3) -0.2094(3)
H16 H 0.1595 1.3471 -0.2268
Mn1A Mn -0.24377(5) 1.00139(4) -0.02082(3)
Mn1A_2 Mn 0.75623(5) 1.00139(4) -0.02082(3)
Mn1_2 Mn 0.24377(5) -0.00139(4) 0.02082(3)
Mn1_3 Mn -0.75623(5) 0.99861(4) 0.02082(3)
Mn1_4 Mn 0.24377(5) 1.99861(4) 0.02082(3)
O1A O -0.4182(2) 1.02067(17) 0.06663(15)
O2A O -0.6078(2) 0.9600(2) 0.11151(15)
O2A_2 O 0.3922(2) 0.9600(2) 0.11151(15)
O2_2 O -0.3922(2) 1.0400(2) -0.11151(15)
O3A O -0.0869(2) 0.95115(18) 0.06050(15)
O4A O 0.0874(2) 0.9939(2) 0.11628(15)
N1_2 N 0.1940(4) 1.4804(2) 0.0281(2)
N2_2 N 0.2313(3) 1.1675(2) 0.03093(19)
N2A N -0.2313(3) 0.8325(2) -0.03093(19)
N3_2 N 0.2916(4) 1.5174(2) -0.0011(2)
N4_2 N 0.2521(3) 1.8293(2) 0.0086(2)
N4A N -0.2521(3) 1.1707(2) -0.0086(2)
C1A C -0.4807(3) 0.9585(3) 0.1076(2)
C2A C -0.3959(3) 0.8745(3) 0.1521(2)
C3A C -0.1329(4) 1.0279(3) 0.1812(2)
C4_2 C 0.2126(4) 1.3740(3) 0.0271(3)
C5_2 C 0.2746(4) 1.6241(3) 0.0040(3)
C6A C -0.2510(3) 0.9868(3) 0.2081(2)
C7A C -0.2780(4) 0.8879(3) 0.1873(2)
C8A C -0.0377(3) 0.9871(3) 0.1139(2)
C9_2 C 0.2982(4) 1.7842(3) -0.0570(3)
H1_2 H 0.3228 1.8236 -0.1016
C10_2 C 0.3409(4) 1.2113(3) 0.0382(2)
H2_2 H 0.4247 1.1705 0.0449
C11A C -0.1925(4) 0.8024(3) 0.2150(3)
H3A H -0.1137 0.8098 0.2381
C12_2 C 0.3356(4) 1.3128(3) 0.0363(3)
H4_2 H 0.4143 1.3400 0.0411
C13_2 C 0.3112(4) 1.6824(3) -0.0623(3)
H5_2 H 0.3437 1.6536 -0.1093
C14_2 C 0.2247(4) 1.6693(3) 0.0714(3)
H6_2 H 0.1976 1.6316 0.1164
C15_2 C 0.2152(4) 1.7723(3) 0.0712(3)
H7_2 H 0.1814 1.8030 0.1173
C16A C -0.3377(4) 1.0337(3) 0.2670(3)
H8A H -0.4174 1.0083 0.2848
C17A C -0.4260(4) 0.7780(3) 0.1492(3)
H9A H -0.5056 0.7694 0.1275
C18A C -0.1052(4) 1.1119(3) 0.2144(3)
H10A H -0.0264 1.1385 0.1967
C19A C -0.3392(5) 0.6946(3) 0.1781(3)
H11A H -0.3605 0.6306 0.1763
C20_2 C 0.1123(4) 1.2277(3) 0.0223(3)
H12_2 H 0.0353 1.1989 0.0165
C21_2 C 0.0980(4) 1.3303(3) 0.0215(3)
H13_2 H 0.0125 1.3696 0.0172
C22A C -0.1931(5) 1.1565(4) 0.2734(3)
H14A H -0.1737 1.2128 0.2950
C23A C -0.3092(5) 1.1170(4) 0.3001(3)
H15A H -0.3683 1.1462 0.3401
C24A C -0.2206(5) 0.7083(3) 0.2094(3)
H16A H -0.1595 0.6529 0.2268
Mn2 Mn 0.24898(5) 0.49919(4) 0.52475(3)
O5 O 0.4124(2) 0.54123(18) 0.43968(15)
N5 N 0.3241(3) 0.3268(2) 0.5240(2)
N6 N 0.1793(3) 0.6713(2) 0.5302(2)
N7 N 0.0604(4) 0.9847(3) 0.5005(3)
N8 N 0.4918(4) 0.0194(3) 0.5318(2)
C25 C 0.1037(4) 0.6211(3) 0.3506(2)
C26 C 0.0943(4) 0.8775(3) 0.5148(3)
C27 C 0.0375(3) 0.5395(3) 0.3950(2)
C28 C 0.4296(4) 0.1240(3) 0.5255(3)
C29 C 0.3003(4) 0.4957(3) 0.2983(2)
C30 C 0.4912(4) 0.5010(3) 0.3863(2)
C31 C 0.4280(4) 0.4531(3) 0.3249(2)
C32 C 0.3744(4) 0.1743(3) 0.4586(3)
H17 H 0.3728 0.1412 0.4132
C33 C 0.0390(4) 0.7200(3) 0.3532(3)
H18 H -0.0494 0.7341 0.3769
C34 C 0.0497(4) 0.7130(3) 0.5507(3)
H19 H -0.0118 0.6707 0.5711
C35 C 0.2348(4) 0.6001(3) 0.3127(2)
C36 C 0.2992(5) 0.6793(4) 0.2800(3)
H20 H 0.3864 0.6658 0.2546
C37 C 0.0028(4) 0.8141(3) 0.5435(3)
H21 H -0.0883 0.8393 0.5575
C38 C 0.1057(5) 0.7978(3) 0.3206(3)
H22 H 0.0623 0.8639 0.3231
C39 C 0.2369(5) 0.4409(4) 0.2518(3)
H23 H 0.1519 0.4682 0.2341
C40 C 0.4303(5) 0.1757(3) 0.5914(3)
H24 H 0.4661 0.1435 0.6371
C41 C 0.3220(4) 0.2750(3) 0.4613(3)
H25 H 0.2831 0.3085 0.4169
C42 C 0.2648(4) 0.7348(3) 0.5035(3)
H26 H 0.3552 0.7083 0.4892
C43 C 0.2275(4) 0.8372(3) 0.4959(3)
H27 H 0.2918 0.8784 0.4782
C44 C 0.4905(4) 0.3599(3) 0.3005(3)
H28 H 0.5773 0.3328 0.3157
C45 C 0.2362(5) 0.7774(4) 0.2844(3)
H29 H 0.2814 0.8296 0.2632
C46 C 0.2967(5) 0.3473(4) 0.2315(3)
H30 H 0.2503 0.3107 0.2022
C47 C 0.4250(5) 0.3071(4) 0.2540(3)
H31 H 0.4673 0.2449 0.2380
O6 O 0.1118(2) 0.47706(18) 0.43829(15)
O7 O 0.6206(2) 0.4942(2) 0.38102(16)
O8 O -0.0879(2) 0.5383(2) 0.38789(15)
C48 C 0.3764(4) 0.2766(3) 0.5882(3)
H32 H 0.3765 0.3113 0.6329
Mn2A Mn -0.24898(5) 0.50081(4) 0.47525(3)
Mn2A_2 Mn 0.75102(5) 0.50081(4) 0.47525(3)
Mn2A_3 Mn 0.75102(5) -0.49919(4) 0.47525(3)
Mn2A_4 Mn -0.24898(5) 1.50081(4) 0.47525(3)
Mn2_2 Mn -0.75102(5) 0.49919(4) 0.52475(3)
O5A O -0.4124(2) 0.45877(18) 0.56032(15)
N5A N 0.6759(3) -0.3268(2) 0.4760(2)
N5A_2 N -0.3241(3) 0.6732(2) 0.4760(2)
N6A N -0.1793(3) 1.3287(2) 0.4698(2)
N6A_2 N -0.1793(3) 0.3287(2) 0.4698(2)
N7A N -0.0604(4) 1.0153(3) 0.4995(3)
N8A N 0.5082(4) -0.0194(3) 0.4682(2)
C25A C -0.1037(4) 0.3789(3) 0.6494(2)
C26A C -0.0943(4) 1.1225(3) 0.4852(3)
C27A C -0.0375(3) 0.4605(3) 0.6050(2)
C28A C 0.5704(4) -0.1240(3) 0.4745(3)
C29A C -0.3003(4) 0.5043(3) 0.7017(2)
C30A C -0.4912(4) 0.4990(3) 0.6137(2)
C31A C -0.4280(4) 0.5469(3) 0.6751(2)
C32A C 0.6256(4) -0.1743(3) 0.5414(3)
H17A H 0.6272 -0.1412 0.5868
C33A C -0.0390(4) 0.2800(3) 0.6468(3)
H18A H 0.0494 0.2659 0.6231
C34A C -0.0497(4) 1.2870(3) 0.4493(3)
H19A H 0.0118 1.3293 0.4289
C35A C -0.2348(4) 0.3999(3) 0.6873(2)
C36A C -0.2992(5) 0.3207(4) 0.7200(3)
H20A H -0.3864 0.3342 0.7454
C37A C -0.0028(4) 1.1859(3) 0.4565(3)
H21A H 0.0883 1.1607 0.4425
C38A C -0.1057(5) 0.2022(3) 0.6794(3)
H22A H -0.0623 0.1361 0.6769
C39A C -0.2369(5) 0.5591(4) 0.7482(3)
H23A H -0.1519 0.5318 0.7659
C40A C 0.5697(5) -0.1757(3) 0.4086(3)
H24A H 0.5339 -0.1435 0.3629
C41A C 0.6780(4) -0.2750(3) 0.5387(3)
H25A H 0.7169 -0.3085 0.5831
C42A C -0.2648(4) 1.2652(3) 0.4965(3)
H26A H -0.3552 1.2917 0.5108
C43A C -0.2275(4) 1.1628(3) 0.5041(3)
H27A H -0.2918 1.1216 0.5218
C44A C -0.4905(4) 0.6401(3) 0.6995(3)
H28A H -0.5773 0.6672 0.6843
C45A C -0.2362(5) 0.2226(4) 0.7156(3)
H29A H -0.2814 0.1704 0.7368
C46A C -0.2967(5) 0.6527(4) 0.7685(3)
H30A H -0.2503 0.6893 0.7978
C47A C -0.4250(5) 0.6929(4) 0.7460(3)
H31A H -0.4673 0.7551 0.7620
O6A O -0.1118(2) 0.52294(18) 0.56171(15)
O7A O -0.6206(2) 0.5058(2) 0.61898(16)
O7A_2 O 0.3794(2) 0.5058(2) 0.61898(16)
O7_2 O -0.3794(2) 0.4942(2) 0.38102(16)
O8A O 0.0879(2) 0.4617(2) 0.61211(15)
C48A C 0.6236(4) -0.2766(3) 0.4118(3)
H32A H 0.6235 -0.3113 0.3671
O9 O 0.7468(7) 0.4379(5) 0.2253(4)
C49 C 0.8837(8) 0.4199(6) 0.2144(5)
H33 H 0.9171 0.4811 0.1964
H34 H 0.9107 0.3716 0.1757
H35 H 0.9214 0.3941 0.2633
O10 O -0.2164(10) 0.9444(7) -0.2887(6)
O11? O -0.3289(12) 0.9823(9) -0.2743(7)
O12? O -0.2717(15) 0.9041(11) -0.2393(9)
loop_
_geom_bond_atom_site_label_1
_geom_bond_atom_site_label_2
_geom_bond_site_symmetry_1
_geom_bond_site_symmetry_2
Mn1 O1 1_555 1_555
O1 C1 1_555 1_555
O2 C1 1_555 1_555
O3 Mn1 1_555 1_555
O4 C8 1_555 1_555
N1 N3 1_555 1_555
N2 C10 1_555 1_555
N3 C5 1_555 1_555
N4 Mn1 1_555 1_555
C1 C2 1_555 1_555
C2 C7 1_555 1_555
C3 C6 1_555 1_555
C4 N1 1_555 1_555
C5 C13 1_555 1_555
C6 C7 1_555 1_555
C7 C11 1_555 1_555
C8 O3 1_555 1_555
C9 N4 1_555 1_555
H1 C9 1_555 1_555
C10 H2 1_555 1_555
C11 H3 1_555 1_555
C12 C4 1_555 1_555
H4 C12 1_555 1_555
C13 C9 1_555 1_555
H5 C13 1_555 1_555
C14 C5 1_555 1_555
H6 C14 1_555 1_555
C15 N4 1_555 1_555
H7 C15 1_555 1_555
C16 C6 1_555 1_555
H8 C16 1_555 1_555
C17 C2 1_555 1_555
H9 C17 1_555 1_555
C18 C3 1_555 1_555
H10 C18 1_555 1_555
C19 C17 1_555 1_555
H11 C19 1_555 1_555
C20 N2 1_555 1_555
H12 C20 1_555 1_555
C21 C4 1_555 1_555
H13 C21 1_555 1_555
C22 C18 1_555 1_555
H14 C22 1_555 1_555
C23 C16 1_555 1_555
H15 C23 1_555 1_555
C24 C11 1_555 1_555
H16 C24 1_555 1_555
Mn2 O5 1_555 1_555
O5 C30 1_555 1_555
N5 Mn2 1_555 1_555
N6 Mn2 1_555 1_555
N7 C26 1_555 1_555
N8 C28 1_555 1_555
C25 C27 1_555 1_555
C26 C37 1_555 1_555
C27 O6 1_555 1_555
C28 C32 1_555 1_555
C29 C31 1_555 1_555
C30 C31 1_555 1_555
C31 C44 1_555 1_555
C32 H17 1_555 1_555
C33 C25 1_555 1_555
H18 C33 1_555 1_555
C34 N6 1_555 1_555
H19 C34 1_555 1_555
C35 C25 1_555 1_555
C36 C35 1_555 1_555
H20 C36 1_555 1_555
C37 C34 1_555 1_555
H21 C37 1_555 1_555
C38 C33 1_555 1_555
H22 C38 1_555 1_555
C39 C29 1_555 1_555
H23 C39 1_555 1_555
C40 C28 1_555 1_555
H24 C40 1_555 1_555
C41 N5 1_555 1_555
H25 C41 1_555 1_555
C42 N6 1_555 1_555
H26 C42 1_555 1_555
C43 C26 1_555 1_555
H27 C43 1_555 1_555
C44 H28 1_555 1_555
C45 C36 1_555 1_555
H29 C45 1_555 1_555
C46 C39 1_555 1_555
H30 C46 1_555 1_555
C47 C44 1_555 1_555
H31 C47 1_555 1_555
O6 Mn2 1_555 1_555
O7 C30 1_555 1_555
O8 C27 1_555 1_555
C48 N5 1_555 1_555
H32 C48 1_555 1_555
O9 C49 1_555 1_555
C49 H33 1_555 1_555
H34 C49 1_555 1_555
H35 C49 1_555 1_555
Mn1A O4 1_555 1_555
Mn1A_2 O2 1_555 1_555
Mn1_2 N2 1_555 1_555
Mn1_3 O2A 1_555 1_555
Mn1_4 N4_2 1_555 1_555
O1A Mn1A 1_555 1_555
O2A C1A 1_555 1_555
O2A_2 Mn1 1_555 1_555
O2_2 Mn1A 1_555 1_555
O3A Mn1A 1_555 1_555
O4A Mn1 1_555 1_555
N1_2 N3_2 1_555 1_555
N2_2 Mn1 1_555 1_555
N2A Mn1A 1_555 1_555
N3_2 C5_2 1_555 1_555
N4_2 C9_2 1_555 1_555
N4A Mn1A 1_555 1_555
C1A O1A 1_555 1_555
C2A C1A 1_555 1_555
C3A C6A 1_555 1_555
C4_2 N1_2 1_555 1_555
C5_2 C13_2 1_555 1_555
C6A C7A 1_555 1_555
C7A C2A 1_555 1_555
C8A O3A 1_555 1_555
C9_2 H1_2 1_555 1_555
C10_2 N2_2 1_555 1_555
H2_2 C10_2 1_555 1_555
C11A C7A 1_555 1_555
H3A C11A 1_555 1_555
C12_2 C4_2 1_555 1_555
H4_2 C12_2 1_555 1_555
C13_2 C9_2 1_555 1_555
H5_2 C13_2 1_555 1_555
C14_2 C5_2 1_555 1_555
H6_2 C14_2 1_555 1_555
C15_2 N4_2 1_555 1_555
H7_2 C15_2 1_555 1_555
C16A C6A 1_555 1_555
H8A C16A 1_555 1_555
C17A C2A 1_555 1_555
H9A C17A 1_555 1_555
C18A C3A 1_555 1_555
H10A C18A 1_555 1_555
C19A C17A 1_555 1_555
H11A C19A 1_555 1_555
C20_2 N2_2 1_555 1_555
H12_2 C20_2 1_555 1_555
C21_2 C4_2 1_555 1_555
H13_2 C21_2 1_555 1_555
C22A C18A 1_555 1_555
H14A C22A 1_555 1_555
C23A C16A 1_555 1_555
H15A C23A 1_555 1_555
C24A C11A 1_555 1_555
H16A C24A 1_555 1_555
Mn2A O8 1_555 1_555
Mn2A_2 O7 1_555 1_555
Mn2A_3 N5A 1_555 1_555
Mn2A_4 N6A 1_555 1_555
Mn2_2 O7A 1_555 1_555
O5A Mn2A 1_555 1_555
N5A C41A 1_555 1_555
N5A_2 Mn2A 1_555 1_555
N6A C34A 1_555 1_555
N6A_2 Mn2A 1_555 1_555
N7A N7 1_555 1_555
N8A N8 1_555 1_555
C25A C27A 1_555 1_555
C26A N7A 1_555 1_555
C27A O6A 1_555 1_555
C28A N8A 1_555 1_555
C29A C31A 1_555 1_555
C30A O5A 1_555 1_555
C31A C30A 1_555 1_555
C32A C28A 1_555 1_555
H17A C32A 1_555 1_555
C33A C25A 1_555 1_555
H18A C33A 1_555 1_555
C34A H19A 1_555 1_555
C35A C25A 1_555 1_555
C36A C35A 1_555 1_555
H20A C36A 1_555 1_555
C37A C26A 1_555 1_555
H21A C37A 1_555 1_555
C38A C33A 1_555 1_555
H22A C38A 1_555 1_555
C39A C29A 1_555 1_555
H23A C39A 1_555 1_555
C40A C28A 1_555 1_555
H24A C40A 1_555 1_555
C41A C32A 1_555 1_555
H25A C41A 1_555 1_555
C42A N6A 1_555 1_555
H26A C42A 1_555 1_555
C43A C26A 1_555 1_555
H27A C43A 1_555 1_555
C44A C31A 1_555 1_555
H28A C44A 1_555 1_555
C45A C36A 1_555 1_555
H29A C45A 1_555 1_555
C46A C39A 1_555 1_555
H30A C46A 1_555 1_555
C47A C44A 1_555 1_555
H31A C47A 1_555 1_555
O6A Mn2A 1_555 1_555
O7A C30A 1_555 1_555
O7A_2 Mn2 1_555 1_555
O7_2 Mn2A 1_555 1_555
O8A Mn2 1_555 1_555
C48A N5A 1_555 1_555
H32A C48A 1_555 1_555
C3 C8 1_555 1_555
C10 C12 1_555 1_555
C14 C15 1_555 1_555
C19 C24 1_555 1_555
C20 C21 1_555 1_555
C22 C23 1_555 1_555
C29 C35 1_555 1_555
C32 C41 1_555 1_555
C38 C45 1_555 1_555
C40 C48 1_555 1_555
C42 C43 1_555 1_555
C46 C47 1_555 1_555
O4A C8A 1_555 1_555
C3A C8A 1_555 1_555
C10_2 C12_2 1_555 1_555
C14_2 C15_2 1_555 1_555
C19A C24A 1_555 1_555
C20_2 C21_2 1_555 1_555
C22A C23A 1_555 1_555
C27A O8A 1_555 1_555
C29A C35A 1_555 1_555
C34A C37A 1_555 1_555
C38A C45A 1_555 1_555
C40A C48A 1_555 1_555
C42A C43A 1_555 1_555
C46A C47A 1_555 1_555

#END
