
#######################################################################
#
#                 Cambridge Crystallographic Data Centre
#                                CCDC 
#
#######################################################################
#
# If this CIF has been generated from an entry in the Cambridge 
# Structural Database, then it will include bibliographic, chemical, 
# crystal, experimental, refinement or atomic coordinate data resulting 
# from the CCDC's data processing and validation procedures.
#
#######################################################################

data_SAXRIU
_symmetry_cell_setting           orthorhombic
_symmetry_space_group_name_H-M   'P b c n'
_symmetry_Int_Tables_number      60
_space_group_name_Hall           '-P 2n 2ab'
loop_
_symmetry_equiv_pos_site_id
_symmetry_equiv_pos_as_xyz
1 x,y,z
2 1/2-x,1/2-y,1/2+z
3 1/2+x,1/2-y,-z
4 -x,y,1/2-z
5 -x,-y,-z
6 1/2+x,1/2+y,1/2-z
7 1/2-x,1/2+y,z
8 x,-y,1/2+z
_cell_length_a                   13.345(4)
_cell_length_b                   14.624(4)
_cell_length_c                   10.661(3)
_cell_angle_alpha                90
_cell_angle_beta                 90
_cell_angle_gamma                90
_cell_volume                     2080.57
loop_
_atom_site_label
_atom_site_type_symbol
_atom_site_fract_x
_atom_site_fract_y
_atom_site_fract_z
Zn1 Zn 1.0000 0.060441(18) 0.2500
O1 O 1.00968(8) 0.12002(9) 0.08272(11)
O2 O 0.95154(13) 0.20225(10) -0.07541(12)
O3 O 1.0000 -0.07766(13) 0.2500
N1 N 1.16344(12) 0.05986(9) 0.25930(13)
N2 N 1.47670(12) 0.06440(10) 0.30067(17)
C1 C 0.95993(12) 0.18690(11) 0.03812(15)
C2 C 0.90243(12) 0.24710(11) 0.12828(15)
C3 C 0.94486(13) 0.28296(12) 0.23819(14)
C4 C 0.88264(14) 0.32929(12) 0.32272(16)
H1 H 0.9099 0.3538 0.3956
C5 C 0.78134(15) 0.33914(13) 0.29944(19)
H2 H 0.7408 0.3688 0.3576
C6 C 0.73997(13) 0.30506(13) 0.19018(19)
H3 H 0.6719 0.3122 0.1743
C7 C 0.80057(13) 0.26032(12) 0.10471(17)
H4 H 0.7730 0.2387 0.0303
C8 C 1.20930(13) 0.02686(13) 0.36134(17)
H5 H 1.1702 0.0011 0.4242
C9 C 1.31210(13) 0.02925(13) 0.37789(17)
H6 H 1.3414 0.0070 0.4510
C10 C 1.37009(13) 0.06561(12) 0.28257(19)
C11 C 1.32410(13) 0.10226(13) 0.17715(17)
H7 H 1.3616 0.1291 0.1135
C12 C 1.22108(13) 0.09763(12) 0.16971(16)
H8 H 1.1899 0.1218 0.0992
H9 H 0.9858 -0.1156 0.3116
Zn1_2 Zn 2.0000 0.060441(18) 0.2500
O1C O 0.99032(8) 0.12002(9) 0.41728(11)
O2C O 1.04846(13) 0.20225(10) 0.57541(12)
N1C N 1.83656(12) 0.05986(9) 0.24070(13)
N1C_2 N 0.83656(12) 0.05986(9) 0.24070(13)
N2C N 1.52330(12) 0.06440(10) 0.19933(17)
C1C C 1.04007(12) 0.18690(11) 0.46188(15)
C2C C 1.09757(12) 0.24710(11) 0.37172(15)
C3C C 1.05514(13) 0.28296(12) 0.26181(14)
C4C C 1.11736(14) 0.32929(12) 0.17728(16)
H1C H 1.0901 0.3538 0.1044
C5C C 1.21866(15) 0.33914(13) 0.20056(19)
H2C H 1.2592 0.3688 0.1424
C6C C 1.26003(13) 0.30506(13) 0.30982(19)
H3C H 1.3281 0.3122 0.3257
C7C C 1.19943(13) 0.26032(12) 0.39529(17)
H4C H 1.2270 0.2387 0.4697
C8C C 1.79070(13) 0.02686(13) 0.13866(17)
H5C H 1.8298 0.0011 0.0758
C9C C 1.68790(13) 0.02925(13) 0.12211(17)
H6C H 1.6586 0.0070 0.0490
C10C C 1.62991(13) 0.06561(12) 0.21743(19)
C11C C 1.67590(13) 0.10226(13) 0.32285(17)
H7C H 1.6384 0.1291 0.3865
C12C C 1.77892(13) 0.09763(12) 0.33029(16)
H8C H 1.8101 0.1218 0.4008
H9C H 1.0142 -0.1156 0.1884
loop_
_geom_bond_atom_site_label_1
_geom_bond_atom_site_label_2
_geom_bond_site_symmetry_1
_geom_bond_site_symmetry_2
Zn1 O1 1_555 1_555
O1 C1 1_555 1_555
O2 C1 1_555 1_555
O3 Zn1 1_555 1_555
N1 Zn1 1_555 1_555
N2 C10 1_555 1_555
C1 C2 1_555 1_555
C2 C3 1_555 1_555
C3 C4 1_555 1_555
C4 H1 1_555 1_555
C5 C4 1_555 1_555
H2 C5 1_555 1_555
C6 C5 1_555 1_555
H3 C6 1_555 1_555
C7 C2 1_555 1_555
H4 C7 1_555 1_555
C8 N1 1_555 1_555
H5 C8 1_555 1_555
C9 C8 1_555 1_555
H6 C9 1_555 1_555
C10 C9 1_555 1_555
C11 C10 1_555 1_555
H7 C11 1_555 1_555
C12 N1 1_555 1_555
H8 C12 1_555 1_555
H9 O3 1_555 1_555
Zn1_2 N1C 1_555 1_555
O1C Zn1 1_555 1_555
O2C C1C 1_555 1_555
N1C C8C 1_555 1_555
N1C_2 Zn1 1_555 1_555
N2C N2 1_555 1_555
C1C O1C 1_555 1_555
C2C C1C 1_555 1_555
C3C C3 1_555 1_555
C4C C3C 1_555 1_555
H1C C4C 1_555 1_555
C5C C4C 1_555 1_555
H2C C5C 1_555 1_555
C6C C5C 1_555 1_555
H3C C6C 1_555 1_555
C7C C2C 1_555 1_555
H4C C7C 1_555 1_555
C8C H5C 1_555 1_555
C9C C8C 1_555 1_555
H6C C9C 1_555 1_555
C10C N2C 1_555 1_555
C11C C10C 1_555 1_555
H7C C11C 1_555 1_555
C12C N1C 1_555 1_555
H8C C12C 1_555 1_555
H9C O3 1_555 1_555
C6 C7 1_555 1_555
C11 C12 1_555 1_555
C2C C3C 1_555 1_555
C6C C7C 1_555 1_555
C9C C10C 1_555 1_555
C11C C12C 1_555 1_555

#END
