
#######################################################################
#
#                 Cambridge Crystallographic Data Centre
#                                CCDC 
#
#######################################################################
#
# If this CIF has been generated from an entry in the Cambridge 
# Structural Database, then it will include bibliographic, chemical, 
# crystal, experimental, refinement or atomic coordinate data resulting 
# from the CCDC's data processing and validation procedures.
#
#######################################################################

data_SAXXAQ
_symmetry_cell_setting           trigonal
_symmetry_space_group_name_H-M   'P 31'
_symmetry_Int_Tables_number      144
_space_group_name_Hall           'P 31'
loop_
_symmetry_equiv_pos_site_id
_symmetry_equiv_pos_as_xyz
1 x,y,z
2 -y,x-y,1/3+z
3 -x+y,-x,2/3+z
_cell_length_a                   12.519(2)
_cell_length_b                   12.519(2)
_cell_length_c                   10.257(3)
_cell_angle_alpha                90
_cell_angle_beta                 90
_cell_angle_gamma                120
_cell_volume                     1392.16
loop_
_atom_site_label
_atom_site_type_symbol
_atom_site_fract_x
_atom_site_fract_y
_atom_site_fract_z
Cu1 Cu 0.07461(6) -0.00242(6) -0.56122(6)
P1 P 0.22624(12) 0.17620(12) -0.48118(14)
Cl1 Cl -0.05615(12) -0.07957(12) -0.38232(14)
S1 S 0.31424(14) 0.33315(13) -0.60348(15)
S2 S 0.37805(14) 0.19415(13) -0.37497(17)
S3 S 0.14013(13) 0.24865(12) -0.35163(13)
C1 C 0.3834(5) 0.2756(5) -0.7131(6)
C2 C 0.3159(5) 0.1968(6) -0.8147(6)
H1 H 0.2311 0.1712 -0.8257
C3 C 0.3738(6) 0.1563(6) -0.8992(6)
H2 H 0.3277 0.1020 -0.9682
C4 C 0.4963(6) 0.1926(6) -0.8862(7)
H3 H 0.5348 0.1651 -0.9467
C5 C 0.5633(6) 0.2690(7) -0.7850(7)
H4 H 0.6479 0.2931 -0.7752
C6 C 0.5082(6) 0.3111(6) -0.6972(7)
H5 H 0.5545 0.3635 -0.6271
C7 C 0.3443(5) 0.0373(5) -0.3633(5)
C8 C 0.2797(5) -0.0334(6) -0.2584(6)
H6 H 0.2438 -0.0036 -0.1973
C9 C 0.2675(6) -0.1501(6) -0.2426(7)
H7 H 0.2226 -0.2007 -0.1709
C10 C 0.3217(6) -0.1910(6) -0.3328(8)
H8 H 0.3160 -0.2689 -0.3209
C11 C 0.3835(6) -0.1202(6) -0.4388(7)
H9 H 0.4191 -0.1497 -0.5006
C12 C 0.3936(5) -0.0069(6) -0.4556(6)
H10 H 0.4344 0.0413 -0.5302
C13 C 0.2701(5) 0.3663(5) -0.2641(6)
C14 C 0.3350(5) 0.4851(5) -0.3170(6)
H11 H 0.3104 0.5034 -0.3977
C15 C 0.4372(6) 0.5768(6) -0.2489(6)
H12 H 0.4825 0.6580 -0.2833
C16 C 0.4711(5) 0.5485(5) -0.1326(7)
H13 H 0.5412 0.6102 -0.0875
C17 C 0.4045(6) 0.4310(6) -0.0800(6)
H14 H 0.4286 0.4134 0.0014
C18 C 0.3029(5) 0.3389(5) -0.1451(6)
H15 H 0.2568 0.2586 -0.1087
S3B S 0.10852(18) -0.14013(13) -0.68496(13)
Cu1A Cu 0.00242(6) 0.07703(8) -0.22789(6)
Cl1B Cl -0.02342(17) 0.05615(12) -0.71565(14)
loop_
_geom_bond_atom_site_label_1
_geom_bond_atom_site_label_2
_geom_bond_site_symmetry_1
_geom_bond_site_symmetry_2
Cu1 P1 1_555 1_555
P1 S1 1_555 1_555
Cl1 Cu1 1_555 1_555
S1 C1 1_555 1_555
S2 P1 1_555 1_555
S3 P1 1_555 1_555
C1 C2 1_555 1_555
C2 H1 1_555 1_555
C3 C2 1_555 1_555
H2 C3 1_555 1_555
C4 C3 1_555 1_555
H3 C4 1_555 1_555
C5 C4 1_555 1_555
H4 C5 1_555 1_555
C6 C1 1_555 1_555
H5 C6 1_555 1_555
C7 S2 1_555 1_555
C8 C7 1_555 1_555
H6 C8 1_555 1_555
C9 C8 1_555 1_555
H7 C9 1_555 1_555
C10 C9 1_555 1_555
H8 C10 1_555 1_555
C11 C10 1_555 1_555
H9 C11 1_555 1_555
C12 C7 1_555 1_555
H10 C12 1_555 1_555
C13 S3 1_555 1_555
C14 C13 1_555 1_555
H11 C14 1_555 1_555
C15 C14 1_555 1_555
H12 C15 1_555 1_555
C16 C15 1_555 1_555
H13 C16 1_555 1_555
C17 C16 1_555 1_555
H14 C17 1_555 1_555
C18 C13 1_555 1_555
H15 C18 1_555 1_555
S3B Cu1 1_555 1_555
Cu1A Cl1 1_555 1_555
Cl1B Cu1 1_555 1_555
S3 Cu1A 1_555 1_555
C5 C6 1_555 1_555
C11 C12 1_555 1_555
C17 C18 1_555 1_555

#END
