
#######################################################################
#
#                 Cambridge Crystallographic Data Centre
#                                CCDC 
#
#######################################################################
#
# If this CIF has been generated from an entry in the Cambridge 
# Structural Database, then it will include bibliographic, chemical, 
# crystal, experimental, refinement or atomic coordinate data resulting 
# from the CCDC's data processing and validation procedures.
#
#######################################################################

data_SAXZIA
_symmetry_cell_setting           orthorhombic
_symmetry_space_group_name_H-M   'P b c a'
_symmetry_Int_Tables_number      61
_space_group_name_Hall           '-P 2ac 2ab'
loop_
_symmetry_equiv_pos_site_id
_symmetry_equiv_pos_as_xyz
1 x,y,z
2 1/2-x,-y,1/2+z
3 -x,1/2+y,1/2-z
4 1/2+x,1/2-y,-z
5 -x,-y,-z
6 1/2+x,y,1/2-z
7 x,1/2-y,1/2+z
8 1/2-x,1/2+y,z
_cell_length_a                   7.792(1)
_cell_length_b                   10.390(1)
_cell_length_c                   18.894(2)
_cell_angle_alpha                90
_cell_angle_beta                 90
_cell_angle_gamma                90
_cell_volume                     1529.64
loop_
_atom_site_label
_atom_site_type_symbol
_atom_site_fract_x
_atom_site_fract_y
_atom_site_fract_z
Ba1 Ba -0.46562(3) 0.20225(2) 0.52423(1)
C1 C -0.1416(6) 0.0299(4) 0.3475(2)
C2 C -0.2024(6) 0.1464(4) 0.3210(2)
H1 H -0.2479(6) 0.2099(4) 0.3526(2)
C3 C -0.1974(6) 0.1698(4) 0.2486(3)
H2 H -0.2427(6) 0.2487(4) 0.2303(3)
C4 C -0.1259(6) 0.0804(4) 0.2020(2)
C5 C -0.0565(6) -0.0325(4) 0.2296(2)
H3 H -0.0023(6) -0.0930(4) 0.1985(2)
C6 C -0.0661(6) -0.0581(4) 0.3017(2)
H4 H -0.0196(6) -0.1364(4) 0.3204(2)
C7 C -0.1711(6) -0.0012(4) 0.4247(2)
O1 O -0.1759(4) 0.0904(3) 0.4673(2)
O2 O -0.1942(4) -0.1183(3) 0.4407(2)
C8 C -0.1222(6) 0.1069(4) 0.1241(2)
O3 O -0.0438(5) 0.0286(3) 0.0849(2)
O4 O -0.1910(5) 0.2085(3) 0.1008(2)
O1C O -0.6759(4) 0.4096(3) 0.5327(2)
O2D O -0.8058(4) 0.1183(3) 0.5593(2)
O3A O -0.4562(5) -0.0286(3) 0.5849(2)
O4F O -0.1910(5) 0.2915(3) 0.6008(2)
O2G O -0.3058(4) 0.3817(3) 0.4407(2)
Ba1C Ba 0.03438(3) 0.29775(2) 0.47577(1)
O3E O -0.5438(5) 0.0286(3) 0.4151(2)
O4E O -0.6910(5) 0.2085(3) 0.3992(2)
Ba1D Ba -0.53438(3) -0.20225(2) 0.47577(1)
Ba1C_2 Ba -0.96562(3) 0.29775(2) 0.47577(1)
Ba1G Ba -0.03438(3) -0.29775(2) 0.52423(1)
Ba1E Ba 0.03438(3) 0.20225(2) -0.02423(1)
Ba1A Ba -0.03438(3) -0.20225(2) 0.02423(1)
Ba1F Ba -0.46562(3) 0.29775(2) 0.02423(1)
loop_
_geom_bond_atom_site_label_1
_geom_bond_atom_site_label_2
_geom_bond_site_symmetry_1
_geom_bond_site_symmetry_2
Ba1 O1 1_555 1_555
C1 C2 1_555 1_555
C2 H1 1_555 1_555
C3 C2 1_555 1_555
H2 C3 1_555 1_555
C4 C3 1_555 1_555
C5 C4 1_555 1_555
H3 C5 1_555 1_555
C6 C1 1_555 1_555
H4 C6 1_555 1_555
C7 C1 1_555 1_555
O1 C7 1_555 1_555
O2 C7 1_555 1_555
C8 C4 1_555 1_555
O3 C8 1_555 1_555
O4 C8 1_555 1_555
O1C Ba1 1_555 1_555
O2D Ba1 1_555 1_555
O3A Ba1 1_555 1_555
O4F Ba1 1_555 1_555
O2G Ba1 1_555 1_555
Ba1C O1 1_555 1_555
O3E Ba1 1_555 1_555
O4E Ba1 1_555 1_555
Ba1D O2 1_555 1_555
Ba1C_2 O1C 1_555 1_555
Ba1G O2 1_555 1_555
Ba1E O3 1_555 1_555
Ba1A O3 1_555 1_555
Ba1F O4 1_555 1_555
C5 C6 1_555 1_555
O4 Ba1E 1_555 1_555
O2D Ba1C_2 1_555 1_555
O3A Ba1D 1_555 1_555
O4F Ba1C 1_555 1_555
O2G Ba1C 1_555 1_555
O3E Ba1D 1_555 1_555
O4E Ba1C_2 1_555 1_555

#END
