
#######################################################################
#
#                 Cambridge Crystallographic Data Centre
#                                CCDC 
#
#######################################################################
#
# If this CIF has been generated from an entry in the Cambridge 
# Structural Database, then it will include bibliographic, chemical, 
# crystal, experimental, refinement or atomic coordinate data resulting 
# from the CCDC's data processing and validation procedures.
#
#######################################################################

data_SAYKEK
_symmetry_cell_setting           monoclinic
_symmetry_space_group_name_H-M   'C 2/c'
_symmetry_Int_Tables_number      15
_space_group_name_Hall           '-C 2yn'
loop_
_symmetry_equiv_pos_site_id
_symmetry_equiv_pos_as_xyz
1 x,y,z
2 -x,y,1/2-z
3 1/2+x,1/2+y,z
4 1/2-x,1/2+y,1/2-z
5 -x,-y,-z
6 x,-y,1/2+z
7 1/2-x,1/2-y,-z
8 1/2+x,1/2-y,1/2+z
_cell_length_a                   26.1023(19)
_cell_length_b                   9.6889(7)
_cell_length_c                   23.6885(17)
_cell_angle_alpha                90
_cell_angle_beta                 93.1170(10)
_cell_angle_gamma                90
_cell_volume                     5982.02
loop_
_atom_site_label
_atom_site_type_symbol
_atom_site_fract_x
_atom_site_fract_y
_atom_site_fract_z
U1 U 0.412040(7) -0.47335(2) 0.048664(9)
O1 O 0.37290(13) -0.3844(4) 0.00043(16)
O2 O 0.45091(14) -0.5639(4) 0.09794(17)
O3 O 0.47826(13) -0.3251(3) 0.02985(16)
O4 O 0.55799(13) -0.3939(4) 0.02200(15)
O5 O 0.59810(15) -0.2865(4) 0.38453(17)
O6 O 0.67583(17) -0.2798(5) 0.3520(2)
H1 H 0.6770 -0.3592 0.3640
O7 O 0.85069(14) 0.8328(4) 0.04140(17)
O8 O 0.83915(15) 0.9847(4) 0.10683(19)
O9 O 0.59898(13) 0.2029(3) 0.11866(17)
O10 O 0.58609(16) 0.2706(4) 0.24983(19)
O11 O 0.66485(14) 0.5744(4) 0.16734(15)
C1 C 0.5256(2) -0.3037(5) 0.0342(2)
C2 C 0.54436(18) -0.1674(5) 0.0539(2)
C3 C 0.59639(19) -0.1414(6) 0.0635(3)
H2 H 0.6202 -0.2091 0.0555
C4 C 0.6128(2) -0.0169(6) 0.0845(3)
H3 H 0.6477 -0.0007 0.0910
C5 C 0.57840(19) 0.0844(5) 0.0963(2)
C6 C 0.5265(2) 0.0634(5) 0.0850(2)
H4 H 0.5031 0.1334 0.0911
C7 C 0.5102(2) -0.0632(5) 0.0645(2)
H5 H 0.4752 -0.0789 0.0578
C8 C 0.6006(2) 0.1524(6) 0.2763(3)
C9 C 0.5616(3) 0.0775(8) 0.2982(3)
H6 H 0.5280 0.1097 0.2945
C10 C 0.5724(3) -0.0465(7) 0.3259(3)
H7 H 0.5461 -0.0958 0.3416
C11 C 0.6214(2) -0.0962(6) 0.3301(2)
C12 C 0.6598(3) -0.0227(7) 0.3078(3)
H8 H 0.6932 -0.0567 0.3105
C13 C 0.6497(3) 0.1032(8) 0.2808(3)
H9 H 0.6762 0.1533 0.2659
C14 C 0.6297(2) -0.2281(6) 0.3583(3)
C15 C 0.70288(19) 0.6434(5) 0.1428(2)
C16 C 0.7232(2) 0.6060(6) 0.0928(2)
H10 H 0.7099 0.5312 0.0722
C17 C 0.7637(2) 0.6808(5) 0.0734(2)
H11 H 0.7789 0.6533 0.0406
C18 C 0.78191(18) 0.7951(5) 0.1021(2)
C19 C 0.7597(2) 0.8342(6) 0.1511(2)
H12 H 0.7713 0.9131 0.1702
C20 C 0.7210(2) 0.7583(6) 0.1719(2)
H13 H 0.7069 0.7839 0.2056
C21 C 0.8258(2) 0.8725(6) 0.0818(3)
C22 C 0.59531(19) 0.4156(5) 0.1706(2)
C23 C 0.56568(19) 0.3094(5) 0.1345(2)
H14 H 0.5383 0.2707 0.1557
H15 H 0.5503 0.3535 0.1010
C24 C 0.6230(2) 0.3419(6) 0.2190(3)
H16 H 0.6476 0.2772 0.2049
H17 H 0.6414 0.4079 0.2434
C25 C 0.6361(2) 0.4753(5) 0.1342(2)
H18 H 0.6585 0.4025 0.1221
H19 H 0.6201 0.5190 0.1009
C26 C 0.5561(2) 0.5241(6) 0.1877(3)
H20 H 0.5446 0.5741 0.1538
H21 H 0.5266 0.4755 0.2010
C27 C 0.5725(3) 0.6256(10) 0.2308(4)
H22 H 0.5446 0.6872 0.2373
H23 H 0.6011 0.6773 0.2181
H24 H 0.5826 0.5787 0.2654
U1D U 0.587960(7) -0.52665(2) -0.048664(9)
U1A U 0.587960(7) -0.47335(2) 0.451336(9)
U1B U 0.912040(7) 1.02665(2) 0.048664(9)
O4D O 0.44201(13) -0.6061(4) -0.02200(15)
O5A O 0.40190(15) -0.2865(4) 0.11547(17)
O7B O 0.35069(14) -0.6672(4) 0.04140(17)
O8B O 0.33915(15) -0.5153(4) 0.10683(19)
loop_
_geom_bond_atom_site_label_1
_geom_bond_atom_site_label_2
_geom_bond_site_symmetry_1
_geom_bond_site_symmetry_2
U1 O1 1_555 1_555
O2 U1 1_555 1_555
O3 U1 1_555 1_555
O4 C1 1_555 1_555
O5 C14 1_555 1_555
O6 H1 1_555 1_555
O7 C21 1_555 1_555
O8 C21 1_555 1_555
O9 C5 1_555 1_555
O10 C8 1_555 1_555
O11 C15 1_555 1_555
C1 O3 1_555 1_555
C2 C1 1_555 1_555
C3 C2 1_555 1_555
H2 C3 1_555 1_555
C4 C3 1_555 1_555
H3 C4 1_555 1_555
C5 C4 1_555 1_555
C6 C5 1_555 1_555
H4 C6 1_555 1_555
C7 C2 1_555 1_555
H5 C7 1_555 1_555
C8 C9 1_555 1_555
C9 H6 1_555 1_555
C10 C9 1_555 1_555
H7 C10 1_555 1_555
C11 C10 1_555 1_555
C12 C11 1_555 1_555
H8 C12 1_555 1_555
C13 C8 1_555 1_555
H9 C13 1_555 1_555
C14 O6 1_555 1_555
C15 C16 1_555 1_555
C16 H10 1_555 1_555
C17 C16 1_555 1_555
H11 C17 1_555 1_555
C18 C17 1_555 1_555
C19 C18 1_555 1_555
H12 C19 1_555 1_555
C20 C15 1_555 1_555
H13 C20 1_555 1_555
C21 C18 1_555 1_555
C22 C23 1_555 1_555
C23 O9 1_555 1_555
H14 C23 1_555 1_555
H15 C23 1_555 1_555
C24 O10 1_555 1_555
H16 C24 1_555 1_555
H17 C24 1_555 1_555
C25 O11 1_555 1_555
H18 C25 1_555 1_555
H19 C25 1_555 1_555
C26 C22 1_555 1_555
H20 C26 1_555 1_555
H21 C26 1_555 1_555
C27 C26 1_555 1_555
H22 C27 1_555 1_555
H23 C27 1_555 1_555
H24 C27 1_555 1_555
U1D O4 1_555 1_555
U1A O5 1_555 1_555
U1B O7 1_555 1_555
O4D U1 1_555 1_555
O5A U1 1_555 1_555
O7B U1 1_555 1_555
O8B U1 1_555 1_555
O8 U1B 1_555 1_555
C6 C7 1_555 1_555
C11 C14 1_555 1_555
C12 C13 1_555 1_555
C19 C20 1_555 1_555
C22 C24 1_555 1_555
C22 C25 1_555 1_555

#END
