
#######################################################################
#
#                 Cambridge Crystallographic Data Centre
#                                CCDC 
#
#######################################################################
#
# If this CIF has been generated from an entry in the Cambridge 
# Structural Database, then it will include bibliographic, chemical, 
# crystal, experimental, refinement or atomic coordinate data resulting 
# from the CCDC's data processing and validation procedures.
#
#######################################################################

data_SAYZUP
_symmetry_cell_setting           triclinic
_symmetry_space_group_name_H-M   'P -1'
_symmetry_Int_Tables_number      2
_space_group_name_Hall           '-P 1'
loop_
_symmetry_equiv_pos_site_id
_symmetry_equiv_pos_as_xyz
1 x,y,z
2 -x,-y,-z
_cell_length_a                   13.985(2)
_cell_length_b                   14.614(3)
_cell_length_c                   16.700(3)
_cell_angle_alpha                68.406(3)
_cell_angle_beta                 84.457(3)
_cell_angle_gamma                61.789(2)
_cell_volume                     2784.07
loop_
_atom_site_label
_atom_site_type_symbol
_atom_site_fract_x
_atom_site_fract_y
_atom_site_fract_z
S1 S 0.64321(15) 0.32059(14) 0.86374(11)
O1 O 0.9286(4) 0.0330(4) 0.6128(3)
O2 O 0.7701(4) 0.0385(4) 0.5975(3)
O3 O 0.3658(3) 0.8496(4) 0.5831(3)
O4 O 0.5511(4) 0.3059(4) 0.8988(3)
O5 O 0.7288(4) 0.2978(4) 0.9207(3)
O6 O 0.5292(4) 0.8383(4) 0.5863(3)
C1 C 0.5920(5) 0.4603(5) 0.7902(4)
C2 C 0.6568(5) 0.5129(6) 0.7703(4)
H1 H 0.7280 0.4747 0.7958
C3 C 0.4863(6) 0.5161(6) 0.7512(5)
H2 H 0.4432 0.4807 0.7637
C4 C 0.4466(5) 0.6244(6) 0.6939(4)
H3 H 0.3755 0.6630 0.6684
C5 C 0.6160(5) 0.6202(6) 0.7134(4)
H4 H 0.6592 0.6555 0.7013
C6 C 0.5113(5) 0.6775(5) 0.6735(4)
C7 C 0.8334(5) 0.0556(5) 0.6308(4)
C8 C 0.7010(5) 0.2396(5) 0.7994(4)
C9 C 0.8113(5) 0.1980(6) 0.7872(4)
H5 H 0.8559 0.2112 0.8144
C10 C 0.8543(5) 0.1365(6) 0.7341(4)
H6 H 0.9280 0.1083 0.7257
C11 C 0.7870(5) 0.1170(5) 0.6934(4)
C12 C 0.6785(5) 0.1585(5) 0.7056(4)
H7 H 0.6339 0.1462 0.6776
C13 C 0.6345(6) 0.2187(6) 0.7595(5)
H8 H 0.5612 0.2449 0.7688
C14 C 0.4663(5) 0.7969(5) 0.6102(4)
S2 S 0.95903(14) 0.64007(14) 0.18998(12)
O7 O 1.1660(3) 0.1239(3) 0.4958(3)
O8 O 1.0063(3) 0.1455(3) 0.4555(3)
O9 O 0.6044(4) 0.9252(4) 0.4180(3)
O10 O 0.9161(4) 0.6537(4) 0.1090(3)
O11 O 0.4918(4) 0.9117(5) 0.3436(4)
O12 O 1.0477(4) 0.6636(4) 0.1913(3)
C15 C 0.9554(5) 0.3518(5) 0.3259(4)
H9 H 0.9098 0.3209 0.3284
C16 C 1.1176(5) 0.3390(5) 0.3776(4)
H10 H 1.1812 0.2993 0.4147
C17 C 1.0495(5) 0.2919(5) 0.3830(4)
C18 C 0.7839(5) 0.8027(5) 0.3446(4)
H11 H 0.7973 0.8218 0.3881
C19 C 0.8702(5) 0.7458(5) 0.3026(4)
H12 H 0.9412 0.7268 0.3180
C20 C 0.8496(5) 0.7186(5) 0.2393(4)
C21 C 0.7445(6) 0.7458(6) 0.2148(5)
H13 H 0.7318 0.7262 0.1714
C22 C 0.6594(5) 0.8023(6) 0.2560(5)
H14 H 0.5887 0.8214 0.2397
C23 C 0.6777(5) 0.8309(5) 0.3210(4)
C24 C 0.5833(5) 0.8939(6) 0.3657(5)
C25 C 0.9982(5) 0.5029(5) 0.2626(4)
C26 C 1.0912(5) 0.4444(5) 0.3175(5)
H15 H 1.1367 0.4755 0.3144
C27 C 0.9299(5) 0.4558(6) 0.2663(5)
H16 H 0.8673 0.4954 0.2282
C28 C 1.0763(5) 0.1760(5) 0.4497(4)
O13 O 1.1604(5) -0.0178(5) 0.7083(4)
N1 N 1.2979(6) -0.0850(6) 0.8118(4)
C29 C 1.2347(14) -0.0159(10) 0.9322(8)
H17 H 1.3075 -0.0499 0.9582
H18 H 1.1856 -0.0158 0.9766
H19 H 1.2136 0.0596 0.8940
C30 C 1.2302(8) -0.0815(9) 0.8814(6)
H20 H 1.2515 -0.1574 0.9209
H21 H 1.1554 -0.0488 0.8583
C31 C 1.4147(9) -0.1321(11) 0.8284(8)
H22 H 1.4292 -0.0963 0.8610
H23 H 1.4464 -0.1173 0.7738
C32 C 1.4671(9) -0.2550(12) 0.8778(7)
H24 H 1.4391 -0.2697 0.9333
H25 H 1.5445 -0.2842 0.8855
H26 H 1.4513 -0.2904 0.8464
C33 C 1.2565(8) -0.0510(7) 0.7310(6)
H27 H 1.3041 -0.0524 0.6880
O14 O 0.7113(5) -0.1740(5) 0.7238(4)
N2 N 0.7315(6) -0.1957(6) 0.8643(4)
C34 C 0.7603(10) -0.3151(10) 0.8954(6)
H28 H 0.7290 -0.3284 0.8542
H29 H 0.7309 -0.3355 0.9503
C35 C 0.8827(10) -0.3853(10) 0.9064(8)
H30 H 0.9126 -0.3570 0.8547
H31 H 0.9012 -0.4612 0.9169
H32 H 0.9122 -0.3825 0.9545
C36 C 0.7188(9) -0.1436(9) 0.9275(6)
H33 H 0.7771 -0.1949 0.9737
H34 H 0.7275 -0.0772 0.8994
C37 C 0.6149(10) -0.1124(15) 0.9654(11)
H35 H 0.5568 -0.0568 0.9209
H36 H 0.6152 -0.0827 1.0080
H37 H 0.6045 -0.1770 0.9924
C38 C 0.7057(8) -0.1367(8) 0.7803(6)
H38 H 0.6811 -0.0603 0.7625
O15 O 1.1694(5) -0.2383(4) 0.7319(3)
N3 N 1.1221(8) -0.2742(8) 0.8694(5)
C39 C 1.1069(9) -0.2191(8) 0.7873(6)
H39 H 1.0393 -0.1561 0.7673
C40 C 1.2488(13) -0.4520(12) 0.9028(9)
H40 H 1.1957 -0.4572 0.8780
H41 H 1.3163 -0.5146 0.9249
C41 C 1.0396(16) -0.2468(15) 0.9298(10)
H42 H 1.0081 -0.2932 0.9543
C42 C 1.0083(11) -0.1587(11) 0.9508(10)
H43 H 1.0389 -0.1113 0.9270
H44 H 0.9557 -0.1440 0.9894
C43 C 1.2281(14) -0.3538(14) 0.9067(8)
H45 H 1.2763 -0.3412 0.9302
O16 O 1.2465(4) -0.2868(4) 0.5459(4)
N4 N 1.2518(9) -0.4149(7) 0.4972(6)
C44 C 1.2111(9) -0.3124(8) 0.5001(7)
H46 H 1.1495 -0.2560 0.4629
C45 C 1.1798(12) -0.4280(11) 0.4469(9)
H47 H 1.1234 -0.3546 0.4121
H48 H 1.2225 -0.4642 0.4079
C46 C 1.1291(16) -0.4923(14) 0.5009(10)
H49 H 1.1842 -0.5675 0.5312
H50 H 1.0795 -0.4929 0.4655
H51 H 1.0900 -0.4594 0.5419
C47 C 1.3385(16) -0.5033(15) 0.5516(16)
H52 H 1.3094 -0.5398 0.6006
H53 H 1.3743 -0.4729 0.5732
C48 C 1.4232(16) -0.5903(15) 0.5256(13)
H54 H 1.4435 -0.5573 0.4701
H55 H 1.3968 -0.6387 0.5221
H56 H 1.4856 -0.6327 0.5675
Ba1 Ba 1.14171(3) -0.07896(3) 0.56927(2)
Ba2 Ba 0.63246(3) -0.03006(3) 0.55603(2)
O1A O 1.0714(4) -0.0330(4) 0.3872(3)
O2A O 1.2299(4) -0.0385(4) 0.4025(3)
O3_2 O 1.3658(3) -0.1504(4) 0.5831(3)
O3A O 0.6342(3) 0.1504(4) 0.4169(3)
O6_2 O 0.5292(4) -0.1617(4) 0.5863(3)
O6A O 0.4708(4) 0.1617(4) 0.4137(3)
O7A O 0.8340(3) -0.1239(3) 0.5042(3)
O8A O 0.9937(3) -0.1455(3) 0.5445(3)
O9_2 O 0.6044(4) -0.0748(4) 0.4180(3)
O9A O 0.3956(4) 0.0748(4) 0.5820(3)
O11A O 0.5082(4) 0.0883(5) 0.6564(4)
Ba1_2 Ba 0.14171(3) 0.92104(3) 0.56927(2)
Ba1A Ba 0.85829(3) 0.07896(3) 0.43073(2)
Ba2_2 Ba 0.63246(3) 0.96994(3) 0.55603(2)
Ba2A Ba 0.36754(3) 1.03006(3) 0.44397(2)
Ba2A_2 Ba 1.36754(3) 0.03006(3) 0.44397(2)
loop_
_geom_bond_atom_site_label_1
_geom_bond_atom_site_label_2
_geom_bond_site_symmetry_1
_geom_bond_site_symmetry_2
S1 O4 1_555 1_555
O1 C7 1_555 1_555
O2 C7 1_555 1_555
O3 C14 1_555 1_555
O5 S1 1_555 1_555
O6 C14 1_555 1_555
C1 S1 1_555 1_555
C2 C1 1_555 1_555
H1 C2 1_555 1_555
C3 C1 1_555 1_555
H2 C3 1_555 1_555
C4 C3 1_555 1_555
H3 C4 1_555 1_555
C5 C2 1_555 1_555
H4 C5 1_555 1_555
C6 C4 1_555 1_555
C7 C11 1_555 1_555
C8 S1 1_555 1_555
C9 C8 1_555 1_555
H5 C9 1_555 1_555
C10 C9 1_555 1_555
H6 C10 1_555 1_555
C11 C10 1_555 1_555
C12 C11 1_555 1_555
H7 C12 1_555 1_555
C13 C8 1_555 1_555
H8 C13 1_555 1_555
C14 C6 1_555 1_555
S2 O10 1_555 1_555
O7 C28 1_555 1_555
O8 C28 1_555 1_555
O9 C24 1_555 1_555
O11 C24 1_555 1_555
O12 S2 1_555 1_555
C15 H9 1_555 1_555
C16 H10 1_555 1_555
C17 C15 1_555 1_555
C18 H11 1_555 1_555
C19 C18 1_555 1_555
H12 C19 1_555 1_555
C20 S2 1_555 1_555
C21 C20 1_555 1_555
H13 C21 1_555 1_555
C22 C21 1_555 1_555
H14 C22 1_555 1_555
C23 C18 1_555 1_555
C24 C23 1_555 1_555
C25 S2 1_555 1_555
C26 C16 1_555 1_555
H15 C26 1_555 1_555
C27 C15 1_555 1_555
H16 C27 1_555 1_555
C28 C17 1_555 1_555
O13 C33 1_555 1_555
N1 C30 1_555 1_555
C29 H17 1_555 1_555
H18 C29 1_555 1_555
H19 C29 1_555 1_555
C30 C29 1_555 1_555
H20 C30 1_555 1_555
H21 C30 1_555 1_555
C31 N1 1_555 1_555
H22 C31 1_555 1_555
H23 C31 1_555 1_555
C32 C31 1_555 1_555
H24 C32 1_555 1_555
H25 C32 1_555 1_555
H26 C32 1_555 1_555
C33 N1 1_555 1_555
H27 C33 1_555 1_555
O14 C38 1_555 1_555
N2 C34 1_555 1_555
C34 H28 1_555 1_555
H29 C34 1_555 1_555
C35 C34 1_555 1_555
H30 C35 1_555 1_555
H31 C35 1_555 1_555
H32 C35 1_555 1_555
C36 N2 1_555 1_555
H33 C36 1_555 1_555
H34 C36 1_555 1_555
C37 C36 1_555 1_555
H35 C37 1_555 1_555
H36 C37 1_555 1_555
H37 C37 1_555 1_555
C38 N2 1_555 1_555
H38 C38 1_555 1_555
O15 C39 1_555 1_555
N3 C39 1_555 1_555
C39 H39 1_555 1_555
C40 H40 1_555 1_555
H41 C40 1_555 1_555
C41 N3 1_555 1_555
H42 C41 1_555 1_555
C42 C41 1_555 1_555
H43 C42 1_555 1_555
H44 C42 1_555 1_555
C43 N3 1_555 1_555
H45 C43 1_555 1_555
O16 C44 1_555 1_555
N4 C44 1_555 1_555
C44 H46 1_555 1_555
C45 N4 1_555 1_555
H47 C45 1_555 1_555
H48 C45 1_555 1_555
C46 C45 1_555 1_555
H49 C46 1_555 1_555
H50 C46 1_555 1_555
H51 C46 1_555 1_555
C47 N4 1_555 1_555
H52 C47 1_555 1_555
H53 C47 1_555 1_555
C48 C47 1_555 1_555
H54 C48 1_555 1_555
H55 C48 1_555 1_555
H56 C48 1_555 1_555
Ba1 O1 1_555 1_555
Ba2 O2 1_555 1_555
O1A Ba1 1_555 1_555
O2A Ba1 1_555 1_555
O3_2 Ba1 1_555 1_555
O3A Ba2 1_555 1_555
O6_2 Ba2 1_555 1_555
O6A Ba2 1_555 1_555
O7A Ba2 1_555 1_555
O8A Ba1 1_555 1_555
O9_2 Ba2 1_555 1_555
O9A Ba2 1_555 1_555
O11A Ba2 1_555 1_555
Ba1_2 O3 1_555 1_555
Ba1A O1 1_555 1_555
Ba2_2 O6 1_555 1_555
Ba2A O3 1_555 1_555
Ba2A_2 O7 1_555 1_555
O2 Ba1A 1_555 1_555
O6 Ba2A 1_555 1_555
C5 C6 1_555 1_555
C12 C13 1_555 1_555
O7 Ba1 1_555 1_555
O8 Ba1 1_555 1_555
O8 Ba1A 1_555 1_555
O9 Ba2_2 1_555 1_555
O9 Ba2A 1_555 1_555
O11 Ba2A 1_555 1_555
C16 C17 1_555 1_555
C19 C20 1_555 1_555
C22 C23 1_555 1_555
C25 C26 1_555 1_555
C25 C27 1_555 1_555
O13 Ba1 1_555 1_555
O14 Ba2 1_555 1_555
O15 Ba1 1_555 1_555
C40 C43 1_555 1_555
O16 Ba1 1_555 1_555
O1A Ba1A 1_555 1_555
O2A Ba2A_2 1_555 1_555
O3_2 Ba2A_2 1_555 1_555
O3A Ba1A 1_555 1_555
O7A Ba1A 1_555 1_555
O8A Ba1A 1_555 1_555

#END
