
#######################################################################
#
#                 Cambridge Crystallographic Data Centre
#                                CCDC 
#
#######################################################################
#
# If this CIF has been generated from an entry in the Cambridge 
# Structural Database, then it will include bibliographic, chemical, 
# crystal, experimental, refinement or atomic coordinate data resulting 
# from the CCDC's data processing and validation procedures.
#
#######################################################################

data_SAZBAY
_symmetry_cell_setting           monoclinic
_symmetry_space_group_name_H-M   'P 21/c'
_symmetry_Int_Tables_number      14
_space_group_name_Hall           '-P 2ybc'
loop_
_symmetry_equiv_pos_site_id
_symmetry_equiv_pos_as_xyz
1 x,y,z
2 -x,1/2+y,1/2-z
3 -x,-y,-z
4 x,1/2-y,1/2+z
_cell_length_a                   8.7220(3)
_cell_length_b                   27.5302(8)
_cell_length_c                   11.2194(3)
_cell_angle_alpha                90
_cell_angle_beta                 107.284(3)
_cell_angle_gamma                90
_cell_volume                     2572.33
loop_
_atom_site_label
_atom_site_type_symbol
_atom_site_fract_x
_atom_site_fract_y
_atom_site_fract_z
Ca1 Ca 0.48428(5) 0.499882(17) 0.24585(4)
S1 S 0.80002(7) 0.74928(2) 0.19460(5)
O1 O 0.7296(2) 0.54053(7) 0.26840(16)
O2 O 0.3780(2) 0.54239(6) 0.05858(15)
O3 O 0.2466(2) 0.45507(6) 0.20842(17)
O4 O 0.4178(2) 0.94312(6) -0.12389(15)
C1 C 0.1354(3) 0.42938(10) 0.2223(2)
H1 H 0.0962 0.4049 0.1642
C2 C 0.5146(3) 0.86621(9) 0.1487(2)
H2 H 0.4532 0.8816 0.1925
C3 C 0.7265(3) 0.67174(9) 0.0347(2)
H3 H 0.8095 0.6822 0.0046
C4 C 0.4791(3) 0.64026(9) 0.1265(2)
H4 H 0.3979 0.6293 0.1580
C5 C 0.5952(3) 0.82351(9) 0.1945(2)
H5 H 0.5865 0.8098 0.2680
C6 C 0.5594(3) 0.68295(9) 0.1710(2)
H6 H 0.5300 0.7014 0.2301
C7 C 0.7012(3) 0.82068(9) 0.0180(2)
H7 H 0.7637 0.8054 -0.0251
O6 O 0.42501(19) 0.55507(6) -0.12416(15)
C8 C 0.6422(3) 0.62972(9) -0.0111(2)
H8 H 0.6679 0.6121 -0.0733
N1 N 0.9367(2) 0.56598(8) 0.20132(19)
C9 C 0.8099(3) 0.53870(9) 0.1933(2)
H9 H 0.7784 0.5167 0.1275
C10 C 0.5254(3) 0.88612(8) 0.0372(2)
C11 C 1.0266(4) 0.56227(11) 0.1113(3)
H10 H 0.9772 0.5385 0.0492
H11 H 1.1350 0.5526 0.1534
H12 H 1.0271 0.5932 0.0720
N3 N 0.0692(2) 0.43424(8) 0.31309(19)
C13 C 0.9914(4) 0.60178(11) 0.2988(3)
H16 H 0.9198 0.6024 0.3493
H17 H 0.9932 0.6332 0.2621
H18 H 1.0975 0.5935 0.3499
C14 C 0.5196(3) 0.61350(8) 0.0346(2)
C16 C 0.4334(3) 0.56639(9) -0.0143(2)
C17 C 0.6183(3) 0.86304(9) -0.0277(2)
H20 H 0.6249 0.8762 -0.1024
C18 C 0.1245(4) 0.47137(11) 0.4085(3)
H21 H 0.2077 0.4902 0.3908
H22 H 0.1658 0.4562 0.4887
H23 H 0.0364 0.4922 0.4090
C19 C -0.0587(4) 0.40264(13) 0.3236(3)
H24 H -0.0845 0.3798 0.2558
H25 H -0.1519 0.4217 0.3206
H26 H -0.0246 0.3854 0.4014
O7 O 0.3995(2) 0.95893(6) 0.06741(15)
C20 C 0.6889(3) 0.80151(8) 0.1294(2)
C21 C 0.6851(3) 0.69799(8) 0.1263(2)
O8 O 0.94514(19) 0.74898(6) 0.15836(16)
O9 O 0.8114(2) 0.74874(6) 0.32532(15)
C22 C 0.4406(3) 0.93341(9) -0.0104(2)
Ca1C Ca 0.48428(5) 1.000118(17) -0.25415(4)
Ca1B Ca 0.51572(5) 0.500118(17) -0.24585(4)
Ca1A Ca 0.51572(5) 0.999882(17) 0.25415(4)
O4C O 0.4178(2) 0.55688(6) 0.37611(15)
O6B O 0.57499(19) 0.44493(6) 0.12416(15)
O7A O 0.6005(2) 0.45893(6) 0.43259(15)
O5 O 0.8876(3) 0.15888(8) 0.5560(2)
N2 N 0.7802(3) 0.23285(9) 0.5738(2)
C12 C 0.6910(4) 0.21656(13) 0.6558(3)
H13 H 0.6882 0.1817 0.6561
H14 H 0.5835 0.2290 0.6270
H15 H 0.7421 0.2281 0.7388
C15 C 0.8724(3) 0.20239(11) 0.5328(3)
H19 H 0.9299 0.2153 0.4823
C23 C 0.7851(4) 0.28422(12) 0.5533(4)
H27 H 0.8542 0.2908 0.5028
H28 H 0.8254 0.3005 0.6321
H29 H 0.6788 0.2957 0.5114
loop_
_geom_bond_atom_site_label_1
_geom_bond_atom_site_label_2
_geom_bond_site_symmetry_1
_geom_bond_site_symmetry_2
Ca1 O1 1_555 1_555
S1 C20 1_555 1_555
O1 C9 1_555 1_555
O2 Ca1 1_555 1_555
O3 Ca1 1_555 1_555
O4 C22 1_555 1_555
C1 O3 1_555 1_555
H1 C1 1_555 1_555
O5 C15 1_555 1_555
C2 H2 1_555 1_555
C3 H3 1_555 1_555
C4 H4 1_555 1_555
C5 C2 1_555 1_555
H5 C5 1_555 1_555
C6 C4 1_555 1_555
H6 C6 1_555 1_555
C7 H7 1_555 1_555
O6 C16 1_555 1_555
C8 C3 1_555 1_555
H8 C8 1_555 1_555
N1 C9 1_555 1_555
C9 H9 1_555 1_555
C10 C2 1_555 1_555
N2 C12 1_555 1_555
C11 N1 1_555 1_555
H10 C11 1_555 1_555
H11 C11 1_555 1_555
H12 C11 1_555 1_555
N3 C1 1_555 1_555
C12 H13 1_555 1_555
H14 C12 1_555 1_555
H15 C12 1_555 1_555
C13 N1 1_555 1_555
H16 C13 1_555 1_555
H17 C13 1_555 1_555
H18 C13 1_555 1_555
C14 C4 1_555 1_555
C15 N2 1_555 1_555
H19 C15 1_555 1_555
C16 O2 1_555 1_555
C17 C7 1_555 1_555
H20 C17 1_555 1_555
C18 N3 1_555 1_555
H21 C18 1_555 1_555
H22 C18 1_555 1_555
H23 C18 1_555 1_555
C19 N3 1_555 1_555
H24 C19 1_555 1_555
H25 C19 1_555 1_555
H26 C19 1_555 1_555
O7 C22 1_555 1_555
C20 C5 1_555 1_555
C21 S1 1_555 1_555
O8 S1 1_555 1_555
O9 S1 1_555 1_555
C22 C10 1_555 1_555
C23 N2 1_555 1_555
H27 C23 1_555 1_555
H28 C23 1_555 1_555
H29 C23 1_555 1_555
Ca1C O4 1_555 1_555
Ca1B O6 1_555 1_555
Ca1A O7 1_555 1_555
O4C Ca1 1_555 1_555
O6B Ca1 1_555 1_555
O7A Ca1 1_555 1_555
C3 C21 1_555 1_555
C6 C21 1_555 1_555
C7 C20 1_555 1_555
C8 C14 1_555 1_555
C10 C17 1_555 1_555
C14 C16 1_555 1_555

#END
