
#######################################################################
#
#                 Cambridge Crystallographic Data Centre
#                                CCDC 
#
#######################################################################
#
# If this CIF has been generated from an entry in the Cambridge 
# Structural Database, then it will include bibliographic, chemical, 
# crystal, experimental, refinement or atomic coordinate data resulting 
# from the CCDC's data processing and validation procedures.
#
#######################################################################

data_SAZBAW
_symmetry_cell_setting           monoclinic
_symmetry_space_group_name_H-M   'P 21/n'
_symmetry_Int_Tables_number      14
_space_group_name_Hall           '-P 2yn'
loop_
_symmetry_equiv_pos_site_id
_symmetry_equiv_pos_as_xyz
1 x,y,z
2 1/2-x,1/2+y,1/2-z
3 -x,-y,-z
4 1/2+x,1/2-y,1/2+z
_cell_length_a                   10.120(3)
_cell_length_b                   10.145(1)
_cell_length_c                   10.854(3)
_cell_angle_alpha                90
_cell_angle_beta                 106.09(2)
_cell_angle_gamma                90
_cell_volume                     1070.7
loop_
_atom_site_label
_atom_site_type_symbol
_atom_site_fract_x
_atom_site_fract_y
_atom_site_fract_z
Sn1 Sn 0.27553(2) 0.10188(2) 0.19474(2)
O1 O 0.3028(3) 0.2527(3) 0.0593(3)
O2 O 0.2404(5) -0.0858(3) 0.3211(4)
O3 O 0.2976(6) 0.5952(2) 0.0005(4)
C1 C 0.2872(4) 0.3709(4) 0.0820(4)
C2 C 0.3044(4) 0.4630(3) -0.0207(3)
C3 C 0.3109(6) 0.6547(4) -0.1094(5)
C4 C 0.3233(6) 0.5682(4) -0.1918(5)
C5 C 0.3230(5) 0.4408(5) -0.1333(4)
C6 C 0.3255(8) -0.0448(5) 0.0736(6)
C7 C 0.4400(5) 0.1666(6) 0.3517(5)
C8 C 0.0639(5) 0.1432(6) 0.1725(6)
H1 H 0.3111(6) 0.7492(4) -0.1229(5)
H2 H 0.3313(6) 0.5854(4) -0.2773(5)
H3 H 0.3342(5) 0.3558(5) -0.1701(4)
H4 H 0.3221(8) -0.1314(5) 0.1106(6)
H5 H 0.4173(8) -0.0287(5) 0.0658(6)
H6 H 0.2599(8) -0.0409(5) -0.0106(6)
H7 H 0.4460(5) 0.1102(6) 0.4253(5)
H8 H 0.4233(5) 0.2567(6) 0.3733(5)
H9 H 0.5257(5) 0.1623(6) 0.3283(5)
H10 H 0.0289(5) 0.0846(6) 0.2268(6)
H11 H 0.0123(5) 0.1302(6) 0.0837(6)
H12 H 0.0540(5) 0.2339(6) 0.1970(6)
C1A C 0.2128(4) -0.1291(4) 0.4180(4)
O2A O 0.2596(5) 0.4142(3) 0.1789(4)
O1A O 0.1972(3) -0.2473(3) 0.4407(3)
C2A C 0.1956(4) -0.0370(3) 0.5207(3)
Sn1A Sn 0.22447(2) 0.60188(2) 0.30526(2)
Sn1A_2 Sn 0.22447(2) -0.39812(2) 0.30526(2)
O3A O 0.2024(6) 0.0952(2) 0.4995(4)
C5A C 0.1770(5) -0.0592(5) 0.6333(4)
O1A_2 O 0.1972(3) 0.7527(3) 0.4407(3)
C6A C 0.1745(8) 0.4552(5) 0.4264(6)
C7A C 0.0600(5) 0.6666(6) 0.1483(5)
C8A C 0.4361(5) 0.6432(6) 0.3275(6)
C3A C 0.1891(6) 0.1547(4) 0.6094(5)
C4A C 0.1767(6) 0.0682(4) 0.6918(5)
H3A H 0.1658(5) -0.1442(5) 0.6701(4)
H4A H 0.1779(8) 0.3686(5) 0.3894(6)
H5A H 0.0827(8) 0.4713(5) 0.4342(6)
H6A H 0.2401(8) 0.4591(5) 0.5106(6)
H7A H 0.0540(5) 0.6102(6) 0.0747(5)
H8A H 0.0767(5) 0.7567(6) 0.1267(5)
H9A H -0.0257(5) 0.6623(6) 0.1717(5)
H10A H 0.4711(5) 0.5846(6) 0.2732(6)
H11A H 0.4877(5) 0.6302(6) 0.4163(6)
H12A H 0.4460(5) 0.7339(6) 0.3030(6)
H1A H 0.1889(6) 0.2492(4) 0.6229(5)
H2A H 0.1687(6) 0.0854(4) 0.7773(5)
loop_
_geom_bond_atom_site_label_1
_geom_bond_atom_site_label_2
_geom_bond_site_symmetry_1
_geom_bond_site_symmetry_2
Sn1 O1 1_555 1_555
O1 C1 1_555 1_555
O2 Sn1 1_555 1_555
O3 C2 1_555 1_555
C1 C2 1_555 1_555
C2 C5 1_555 1_555
C3 O3 1_555 1_555
C4 C3 1_555 1_555
C5 C4 1_555 1_555
C6 Sn1 1_555 1_555
C7 Sn1 1_555 1_555
C8 Sn1 1_555 1_555
H1 C3 1_555 1_555
H2 C4 1_555 1_555
H3 C5 1_555 1_555
H4 C6 1_555 1_555
H5 C6 1_555 1_555
H6 C6 1_555 1_555
H7 C7 1_555 1_555
H8 C7 1_555 1_555
H9 C7 1_555 1_555
H10 C8 1_555 1_555
H11 C8 1_555 1_555
H12 C8 1_555 1_555
C1A O2 1_555 1_555
O2A C1 1_555 1_555
O1A C1A 1_555 1_555
C2A C1A 1_555 1_555
Sn1A O2A 1_555 1_555
Sn1A_2 O1A 1_555 1_555
O3A C2A 1_555 1_555
C5A C2A 1_555 1_555
O1A_2 Sn1A 1_555 1_555
C6A Sn1A 1_555 1_555
C7A Sn1A 1_555 1_555
C8A Sn1A 1_555 1_555
C3A O3A 1_555 1_555
C4A C5A 1_555 1_555
H3A C5A 1_555 1_555
H4A C6A 1_555 1_555
H5A C6A 1_555 1_555
H6A C6A 1_555 1_555
H7A C7A 1_555 1_555
H8A C7A 1_555 1_555
H9A C7A 1_555 1_555
H10A C8A 1_555 1_555
H11A C8A 1_555 1_555
H12A C8A 1_555 1_555
H1A C3A 1_555 1_555
H2A C4A 1_555 1_555
C3A C4A 1_555 1_555

#END
