
#######################################################################
#
#                 Cambridge Crystallographic Data Centre
#                                CCDC 
#
#######################################################################
#
# If this CIF has been generated from an entry in the Cambridge 
# Structural Database, then it will include bibliographic, chemical, 
# crystal, experimental, refinement or atomic coordinate data resulting 
# from the CCDC's data processing and validation procedures.
#
#######################################################################

data_SAZCED
_symmetry_cell_setting           triclinic
_symmetry_space_group_name_H-M   'P -1'
_symmetry_Int_Tables_number      2
_space_group_name_Hall           '-P 1'
loop_
_symmetry_equiv_pos_site_id
_symmetry_equiv_pos_as_xyz
1 x,y,z
2 -x,-y,-z
_cell_length_a                   11.1430(6)
_cell_length_b                   14.1170(8)
_cell_length_c                   14.3720(8)
_cell_angle_alpha                98.1770(10)
_cell_angle_beta                 97.7850(10)
_cell_angle_gamma                107.0300(10)
_cell_volume                     2101.89
loop_
_atom_site_label
_atom_site_type_symbol
_atom_site_fract_x
_atom_site_fract_y
_atom_site_fract_z
C1 C 0.7824(2) 0.54459(16) 0.60848(16)
C2 C 1.2898(2) 0.57674(16) 0.60233(15)
C17 C 1.0584(2) 0.72995(17) 0.52508(16)
H9 H 1.101 0.7287 0.5866
C18 C 1.0645(2) 0.82268(17) 0.50162(16)
H10 H 1.1114 0.8835 0.5456
C19 C 1.0007(2) 0.82516(17) 0.41274(16)
C20 C 0.9319(2) 0.73425(17) 0.35145(17)
H11 H 0.8849 0.7334 0.2908
C21 C 0.9329(2) 0.64544(17) 0.38008(17)
H12 H 0.887 0.5837 0.3372
C22 C 1.0135(2) 0.92336(17) 0.38069(16)
C23 C 0.6345(2) 0.71580(17) 0.47797(16)
H13 H 0.6769 0.7209 0.5413
C24 C 0.6633(2) 0.80067(17) 0.43661(16)
H14 H 0.7249 0.8621 0.4706
C25 C 0.6004(2) 0.79415(17) 0.34456(16)
C26 C 0.5135(2) 0.70205(17) 0.29660(16)
H15 H 0.4696 0.6951 0.2333
C27 C 0.4920(2) 0.62098(17) 0.34261(16)
H16 H 0.4335 0.558 0.3089
C28 C 0.6223(2) 0.88513(17) 0.29954(16)
N1 N 0.68047(18) 0.54416(14) 0.57679(13)
N2 N 1.18262(18) 0.56292(14) 0.57482(13)
N7 N 0.99545(17) 0.64150(14) 0.46551(13)
N8 N 0.54945(17) 0.62649(14) 0.43277(13)
O5 O 1.09645(16) 1.00173(12) 0.42097(12)
O6 O 0.92979(15) 0.91513(12) 0.30369(12)
H29 H 0.939 0.9724 0.2899
O7 O 0.69281(15) 0.96844(12) 0.34199(12)
O8 O 0.55712(16) 0.86721(12) 0.21161(12)
H30 H 0.5664 0.922 0.1924
S1 S 0.92673(5) 0.54412(4) 0.65254(4)
S2 S 1.44386(5) 0.59891(4) 0.64059(4)
Ni1 Ni 0.50000 0.50000 0.50000
Ni2 Ni 1.00000 0.50000 0.50000
C1A C 0.2176(2) 0.45541(16) 0.39152(16)
C2A C 0.7102(2) 0.42326(16) 0.39767(15)
C17A C 0.9416(2) 0.27005(17) 0.47492(16)
H9A H 0.899 0.2713 0.4134
C18A C 0.9355(2) 0.17732(17) 0.49838(16)
H10A H 0.8886 0.1165 0.4544
C19A C 0.9993(2) 0.17484(17) 0.58726(16)
C20A C 1.0681(2) 0.26575(17) 0.64855(17)
H11A H 1.1151 0.2666 0.7092
C21A C 1.0671(2) 0.35456(17) 0.61992(17)
H12A H 1.113 0.4163 0.6628
C22A C 0.9865(2) 0.07664(17) 0.61931(16)
C23A C 0.3655(2) 0.28420(17) 0.52203(16)
H13A H 0.3231 0.2791 0.4587
C24A C 0.3367(2) 0.19933(17) 0.56339(16)
H14A H 0.2751 0.1379 0.5294
C25A C 0.3996(2) 0.20585(17) 0.65544(16)
C26A C 0.4865(2) 0.29795(17) 0.70340(16)
H15A H 0.5304 0.3049 0.7667
C27A C 0.5080(2) 0.37902(17) 0.65739(16)
H16A H 0.5665 0.442 0.6911
C28A C 0.3777(2) 0.11487(17) 0.70046(16)
N1A N 0.31953(18) 0.45584(14) 0.42321(13)
N2A N 0.81738(18) 0.43708(14) 0.42518(13)
N7A N 1.00455(17) 0.35850(14) 0.53449(13)
N8A N 0.45055(17) 0.37351(14) 0.56723(13)
O5A O 0.90355(16) -0.00173(12) 0.57903(12)
O6A O 1.07021(15) 0.08487(12) 0.69631(12)
H29A H 1.061 0.0276 0.7101
O7A O 0.30719(15) 0.03156(12) 0.65801(12)
O8A O 0.44288(16) 0.13279(12) 0.78839(12)
H30A H 0.4336 0.078 0.8076
S1A S 0.07327(5) 0.45588(4) 0.34746(4)
S1A_2 S 1.07327(5) 0.45588(4) 0.34746(4)
S2A S 0.55614(5) 0.40109(4) 0.35941(4)
S2_2 S 0.44386(5) 0.59891(4) 0.64059(4)
Ni1_2 Ni 1.50000 0.50000 0.50000
Ni2_2 Ni 0.00000 0.50000 0.50000
C3 C 0.5409(2) 0.56918(16) 0.10047(15)
C4 C -0.0385(2) 0.42537(16) -0.10100(16)
C5 C 0.3796(2) 0.71148(17) -0.01424(17)
H1 H 0.4255 0.7164 0.0479
C6 C 0.4012(2) 0.79732(18) -0.05375(17)
H2 H 0.4611 0.8595 -0.0196
C7 C 0.3336(2) 0.79096(17) -0.14432(16)
C8 C 0.2501(2) 0.69850(17) -0.19259(16)
H3 H 0.204 0.6916 -0.2552
C9 C 0.2347(2) 0.61587(17) -0.14813(16)
H4 H 0.1776 0.5524 -0.1819
C10 C 0.3489(2) 0.88385(17) -0.18622(16)
C11 C 0.2859(2) 0.34287(18) 0.13434(18)
H5 H 0.373 0.3727 0.1307
C12 C 0.2564(2) 0.27027(18) 0.18988(18)
H6 H 0.3222 0.2522 0.225
C13 C 0.1293(2) 0.22392(17) 0.19380(16)
C14 C 0.0374(2) 0.25335(17) 0.14203(17)
H7 H -0.0506 0.2221 0.1419
C15 C 0.0751(2) 0.32887(17) 0.09027(16)
H8 H 0.0111 0.3501 0.0568
C16 C 0.0884(2) 0.14498(17) 0.25247(17)
N3 N 0.42993(18) 0.54172(14) 0.08298(13)
N4 N 0.07010(18) 0.44642(14) -0.07155(14)
N5 N 0.29672(17) 0.62139(14) -0.05961(13)
N6 N 0.19731(17) 0.37357(14) 0.08501(13)
O1 O 0.41899(16) 0.96695(12) -0.14225(12)
O2 O 0.28022(16) 0.86703(12) -0.27175(12)
H27 H 0.2906 0.9218 -0.291
O3 O 0.18348(16) 0.14111(13) 0.31572(13)
H28 H 0.1571 0.093 0.3439
O4 O -0.02140(15) 0.09108(12) 0.24218(12)
S3 S 0.69772(5) 0.60900(4) 0.12471(4)
S4 S -0.19276(5) 0.39642(4) -0.14044(4)
Ni3 Ni 0.24843(3) 0.49455(2) 0.00935(2)
C3A C -0.5409(2) 0.43082(16) -0.10047(15)
C4A C 0.0385(2) 0.57463(16) 0.10100(16)
C5A C -0.3796(2) 0.28852(17) 0.01424(17)
H1A H -0.4255 0.2836 -0.0479
C6A C -0.4012(2) 0.20268(18) 0.05375(17)
H2A H -0.4611 0.1405 0.0196
C7A C -0.3336(2) 0.20904(17) 0.14432(16)
C8A C -0.2501(2) 0.30150(17) 0.19259(16)
H3A H -0.204 0.3084 0.2552
C9A C -0.2347(2) 0.38413(17) 0.14813(16)
H4A H -0.1776 0.4476 0.1819
C10A C -0.3489(2) 0.11615(17) 0.18622(16)
C11A C -0.2859(2) 0.65713(18) -0.13434(18)
H5A H -0.373 0.6273 -0.1307
C12A C -0.2564(2) 0.72973(18) -0.18988(18)
H6A H -0.3222 0.7478 -0.225
C13A C -0.1293(2) 0.77608(17) -0.19380(16)
C14A C -0.0374(2) 0.74665(17) -0.14203(17)
H7A H 0.0506 0.7779 -0.1419
C15A C -0.0751(2) 0.67113(17) -0.09027(16)
H8A H -0.0111 0.6499 -0.0568
C16A C -0.0884(2) 0.85502(17) -0.25247(17)
N3A N -0.42993(18) 0.45828(14) -0.08298(13)
N4A N -0.07010(18) 0.55358(14) 0.07155(14)
N5A N -0.29672(17) 0.37861(14) 0.05961(13)
N6A N -0.19731(17) 0.62643(14) -0.08501(13)
O1A O -0.41899(16) 0.03305(12) 0.14225(12)
O2A O -0.28022(16) 0.13297(12) 0.27175(12)
H27A H -0.2906 0.0782 0.291
O3A O -0.18348(16) 0.85889(13) -0.31572(13)
H28A H -0.1571 0.907 -0.3439
O4A O 0.02140(15) 0.90892(12) -0.24218(12)
S3A S -0.69772(5) 0.39100(4) -0.12471(4)
S3_2 S -0.30228(5) 0.60900(4) 0.12471(4)
S3A_2 S 0.30228(5) 0.39100(4) -0.12471(4)
S4A S 0.19276(5) 0.60358(4) 0.14044(4)
Ni3A Ni -0.24843(3) 0.50545(2) -0.00935(2)
Ni3_2 Ni -0.75157(3) 0.49455(2) 0.00935(2)
Ni3A_2 Ni 0.75157(3) 0.50545(2) -0.00935(2)
C29 C 0.6016(2) 0.97629(18) 0.66083(17)
H17 H 0.6505 0.9842 0.7226
C30 C 0.5179(2) 0.88533(19) 0.61899(17)
H18 H 0.5098 0.8305 0.6516
C31 C 0.4403(2) 0.86903(18) 0.52603(17)
C32 C 0.3543(2) 0.77498(18) 0.48036(17)
H19 H 0.3442 0.7192 0.5119
C33 C 0.2833(2) 0.76173(19) 0.38982(18)
H20 H 0.2256 0.6971 0.3597
C34 C 0.2963(2) 0.84259(18) 0.34292(17)
H21 H 0.2467 0.8328 0.281
C35 C 0.6190(2) 1.06198(18) 0.61462(17)
C36 C 0.4553(2) 0.95188(17) 0.47802(17)
C29A C 0.3984(2) 1.02371(18) 0.33917(17)
H17A H 0.3495 1.0158 0.2774
C30A C 0.4821(2) 1.11467(19) 0.38101(17)
H18A H 0.4902 1.1695 0.3484
C31A C 0.5597(2) 1.13097(18) 0.47397(17)
C32A C 0.6457(2) 1.22502(18) 0.51964(17)
H19A H 0.6558 1.2808 0.4881
C33A C 0.7167(2) 1.23827(19) 0.61018(18)
H20A H 0.7744 1.3029 0.6403
C34A C 0.7037(2) 1.15741(18) 0.65708(17)
H21A H 0.7533 1.1672 0.719
C35A C 0.3810(2) 0.93802(18) 0.38538(17)
C36A C 0.5447(2) 1.04812(17) 0.52198(17)
C37 C 0.8689(2) 0.86321(18) 0.07661(18)
H22 H 0.8391 0.8091 0.1089
C38 C 1.0008(2) 0.89669(17) 0.06877(17)
C39 C 1.0879(3) 0.85095(19) 0.10572(17)
H23 H 1.0602 0.797 0.1386
C40 C 1.2139(3) 0.8839(2) 0.09464(18)
H24 H 1.2717 0.8515 0.1192
C41 C 1.2571(2) 0.9634(2) 0.04825(18)
H25 H 1.3444 0.9857 0.0422
C42 C 1.1736(2) 1.01118(18) 0.01018(17)
C43 C 0.7865(2) 0.90695(19) 0.03917(18)
H26 H 0.6995 0.883 0.0456
C44 C 1.0439(2) 0.97702(17) 0.01966(16)
C37A C 1.1311(2) 1.13679(18) -0.07661(18)
H22A H 1.1609 1.1909 -0.1089
C38A C 0.9992(2) 1.10331(17) -0.06877(17)
C39A C 0.9121(3) 1.14905(19) -0.10572(17)
H23A H 0.9398 1.203 -0.1386
C40A C 0.7861(3) 1.1161(2) -0.09464(18)
H24A H 0.7283 1.1485 -0.1192
C41A C 0.7429(2) 1.0366(2) -0.04825(18)
H25A H 0.6556 1.0143 -0.0422
C42A C 0.8264(2) 0.98882(18) -0.01018(17)
C43A C 1.2135(2) 1.09305(19) -0.03917(18)
H26A H 1.3005 1.117 -0.0456
C44A C 0.9561(2) 1.02298(17) -0.01966(16)
loop_
_geom_bond_atom_site_label_1
_geom_bond_atom_site_label_2
_geom_bond_site_symmetry_1
_geom_bond_site_symmetry_2
C1 N1 1_555 1_555
C2 N2 1_555 1_555
C3 N3 1_555 1_555
C4 N4 1_555 1_555
C5 H1 1_555 1_555
C6 C5 1_555 1_555
H2 C6 1_555 1_555
C7 C6 1_555 1_555
C8 C7 1_555 1_555
H3 C8 1_555 1_555
C9 C8 1_555 1_555
H4 C9 1_555 1_555
C10 C7 1_555 1_555
C11 H5 1_555 1_555
C12 C11 1_555 1_555
H6 C12 1_555 1_555
C13 C12 1_555 1_555
C14 C13 1_555 1_555
H7 C14 1_555 1_555
C15 C14 1_555 1_555
H8 C15 1_555 1_555
C16 C13 1_555 1_555
C17 H9 1_555 1_555
C18 C17 1_555 1_555
H10 C18 1_555 1_555
C19 C18 1_555 1_555
C20 C19 1_555 1_555
H11 C20 1_555 1_555
C21 C20 1_555 1_555
H12 C21 1_555 1_555
C22 C19 1_555 1_555
C23 H13 1_555 1_555
C24 C23 1_555 1_555
H14 C24 1_555 1_555
C25 C24 1_555 1_555
C26 C25 1_555 1_555
H15 C26 1_555 1_555
C27 C26 1_555 1_555
H16 C27 1_555 1_555
C28 C25 1_555 1_555
C29 H17 1_555 1_555
C30 C29 1_555 1_555
H18 C30 1_555 1_555
C31 C30 1_555 1_555
C32 C31 1_555 1_555
H19 C32 1_555 1_555
C33 C32 1_555 1_555
H20 C33 1_555 1_555
C34 C33 1_555 1_555
H21 C34 1_555 1_555
C35 C29 1_555 1_555
C36 C31 1_555 1_555
C37 H22 1_555 1_555
C38 C37 1_555 1_555
C39 C38 1_555 1_555
H23 C39 1_555 1_555
C40 C39 1_555 1_555
H24 C40 1_555 1_555
C41 C40 1_555 1_555
H25 C41 1_555 1_555
C42 C41 1_555 1_555
C43 C37 1_555 1_555
H26 C43 1_555 1_555
C44 C38 1_555 1_555
N1 Ni1 1_555 1_555
N2 Ni2 1_555 1_555
N3 Ni3 1_555 1_555
N4 Ni3 1_555 1_555
N5 C5 1_555 1_555
N6 C11 1_555 1_555
N7 C17 1_555 1_555
N8 C23 1_555 1_555
O1 C10 1_555 1_555
O2 C10 1_555 1_555
H27 O2 1_555 1_555
O3 C16 1_555 1_555
H28 O3 1_555 1_555
O4 C16 1_555 1_555
O5 C22 1_555 1_555
O6 C22 1_555 1_555
H29 O6 1_555 1_555
O7 C28 1_555 1_555
O8 C28 1_555 1_555
H30 O8 1_555 1_555
S1 C1 1_555 1_555
S2 C2 1_555 1_555
S3 C3 1_555 1_555
S4 C4 1_555 1_555
Ni1 N8 1_555 1_555
Ni2 N7 1_555 1_555
Ni3 N5 1_555 1_555
C1A N1A 1_555 1_555
C2A N2A 1_555 1_555
C3A N3A 1_555 1_555
C4A N4A 1_555 1_555
C5A H1A 1_555 1_555
C6A C5A 1_555 1_555
H2A C6A 1_555 1_555
C7A C6A 1_555 1_555
C8A C7A 1_555 1_555
H3A C8A 1_555 1_555
C9A C8A 1_555 1_555
H4A C9A 1_555 1_555
C10A C7A 1_555 1_555
C11A H5A 1_555 1_555
C12A C11A 1_555 1_555
H6A C12A 1_555 1_555
C13A C12A 1_555 1_555
C14A C13A 1_555 1_555
H7A C14A 1_555 1_555
C15A C14A 1_555 1_555
H8A C15A 1_555 1_555
C16A C13A 1_555 1_555
C17A H9A 1_555 1_555
C18A C17A 1_555 1_555
H10A C18A 1_555 1_555
C19A C18A 1_555 1_555
C20A C19A 1_555 1_555
H11A C20A 1_555 1_555
C21A C20A 1_555 1_555
H12A C21A 1_555 1_555
C22A C19A 1_555 1_555
C23A H13A 1_555 1_555
C24A C23A 1_555 1_555
H14A C24A 1_555 1_555
C25A C24A 1_555 1_555
C26A C25A 1_555 1_555
H15A C26A 1_555 1_555
C27A C26A 1_555 1_555
H16A C27A 1_555 1_555
C28A C25A 1_555 1_555
C29A H17A 1_555 1_555
C30A C29A 1_555 1_555
H18A C30A 1_555 1_555
C31A C30A 1_555 1_555
C32A C31A 1_555 1_555
H19A C32A 1_555 1_555
C33A C32A 1_555 1_555
H20A C33A 1_555 1_555
C34A C35 1_555 1_555
H21A C34A 1_555 1_555
C35A C34 1_555 1_555
C36A C35 1_555 1_555
C37A H22A 1_555 1_555
C38A C37A 1_555 1_555
C39A C38A 1_555 1_555
H23A C39A 1_555 1_555
C40A C39A 1_555 1_555
H24A C40A 1_555 1_555
C41A C40A 1_555 1_555
H25A C41A 1_555 1_555
C42A C43 1_555 1_555
C43A C42 1_555 1_555
H26A C43A 1_555 1_555
C44A C44 1_555 1_555
N1A Ni1 1_555 1_555
N2A Ni2 1_555 1_555
N3A Ni3A 1_555 1_555
N4A Ni3A 1_555 1_555
N5A C5A 1_555 1_555
N6A C11A 1_555 1_555
N7A Ni2 1_555 1_555
N8A Ni1 1_555 1_555
O1A C10A 1_555 1_555
O2A C10A 1_555 1_555
H27A O2A 1_555 1_555
O3A C16A 1_555 1_555
H28A O3A 1_555 1_555
O4A C16A 1_555 1_555
O5A C22A 1_555 1_555
O6A C22A 1_555 1_555
H29A O6A 1_555 1_555
O7A C28A 1_555 1_555
O8A C28A 1_555 1_555
H30A O8A 1_555 1_555
S1A C1A 1_555 1_555
S1A_2 Ni2 1_555 1_555
S2A Ni1 1_555 1_555
S2_2 Ni1 1_555 1_555
S3A C3A 1_555 1_555
S3_2 Ni3A 1_555 1_555
S3A_2 Ni3 1_555 1_555
S4A Ni3 1_555 1_555
Ni1_2 S2 1_555 1_555
Ni2_2 S1A 1_555 1_555
Ni3A S4 1_555 1_555
Ni3_2 S3A 1_555 1_555
Ni3A_2 S3 1_555 1_555
C9 N5 1_555 1_555
C15 N6 1_555 1_555
C21 N7 1_555 1_555
C27 N8 1_555 1_555
C36 C35A 1_555 1_555
C36 C36A 1_555 1_555
C42 C44 1_555 1_555
N6 Ni3 1_555 1_555
S1 Ni2 1_555 1_555
C2A S2A 1_555 1_555
C4A S4A 1_555 1_555
C9A N5A 1_555 1_555
C15A N6A 1_555 1_555
C17A N7A 1_555 1_555
C21A N7A 1_555 1_555
C23A N8A 1_555 1_555
C27A N8A 1_555 1_555
C29A C35A 1_555 1_555
C31A C36A 1_555 1_555
C33A C34A 1_555 1_555
C37A C43A 1_555 1_555
C38A C44A 1_555 1_555
C41A C42A 1_555 1_555
C42A C44A 1_555 1_555
N5A Ni3A 1_555 1_555
N6A Ni3A 1_555 1_555

#END
