
#######################################################################
#
#                 Cambridge Crystallographic Data Centre
#                                CCDC 
#
#######################################################################
#
# If this CIF has been generated from an entry in the Cambridge 
# Structural Database, then it will include bibliographic, chemical, 
# crystal, experimental, refinement or atomic coordinate data resulting 
# from the CCDC's data processing and validation procedures.
#
#######################################################################

data_SAZKAG
_symmetry_cell_setting           monoclinic
_symmetry_space_group_name_H-M   'C 2/c'
_symmetry_Int_Tables_number      15
_space_group_name_Hall           '-C 2yn'
loop_
_symmetry_equiv_pos_site_id
_symmetry_equiv_pos_as_xyz
1 x,y,z
2 1/2+x,1/2+y,z
3 -x,y,1/2-z
4 1/2-x,1/2+y,1/2-z
5 -x,-y,-z
6 1/2-x,1/2-y,-z
7 x,-y,1/2+z
8 1/2+x,1/2-y,1/2+z
_cell_length_a                   31.766(14)
_cell_length_b                   9.8281(13)
_cell_length_c                   14.2746(16)
_cell_angle_alpha                90
_cell_angle_beta                 103.018(16)
_cell_angle_gamma                90
_cell_volume                     4341.99
loop_
_atom_site_label
_atom_site_type_symbol
_atom_site_fract_x
_atom_site_fract_y
_atom_site_fract_z
Ca1 Ca 0.10310(2) 0.85722(6) 0.11548(4)
O1 O 0.17903(8) 0.8520(3) 0.1582(2)
H1 H 0.2008 0.8030 0.1465
H2 H 0.1886 0.9348 0.1953
O2 O 0.03000(8) 0.8373(3) 0.13758(18)
H3 H 0.0225 0.7773 0.1688
H4 H 0.0040 0.8684 0.1147
O6 O 0.09401(8) 0.6924(2) -0.00371(15)
O7 O 0.06406(8) 0.5464(2) -0.11898(15)
C1 C 0.08151(10) 0.6563(3) -0.0905(2)
C2 C 0.08985(10) 0.7640(3) -0.16370(19)
H10 H 0.0771 0.8497 -0.1486
O8 O 0.18469(8) 0.9338(3) -0.2195(2)
O9 O 0.11479(7) 0.9771(2) -0.26199(16)
C3 C 0.14634(10) 0.9096(3) -0.2186(2)
C4 C 0.13776(10) 0.7901(3) -0.1560(2)
H11 H 0.1508 0.7085 -0.1751
H12 H 0.1515 0.8087 -0.0894
N1 N 0.06770(8) 0.7259(2) -0.26315(16)
C5 C 0.03723(10) 0.8091(3) -0.3143(2)
H13 H 0.0311 0.8909 -0.2875
C6 C 0.01534(10) 0.7751(3) -0.4043(2)
H14 H -0.0060 0.8322 -0.4385
C7 C 0.02524(11) 0.6544(4) -0.4447(2)
H15 H 0.0105 0.6295 -0.5062
C8 C 0.05714(11) 0.5715(3) -0.3930(2)
H16 H 0.0644 0.4909 -0.4197
C9 C 0.07825(10) 0.6093(3) -0.3013(2)
H17 H 0.0998 0.5539 -0.2658
O10 O 0.11345(8) 0.6873(2) 0.23276(15)
O11 O 0.16197(9) 0.5620(3) 0.33267(17)
C10 C 0.13792(10) 0.6617(3) 0.3132(2)
C11 C 0.13551(10) 0.7675(3) 0.3923(2)
H18 H 0.1486 0.8518 0.3757
O12 O 0.11610(10) 0.9750(3) 0.5084(2)
O13 O 0.04608(10) 0.9668(3) 0.4507(3)
C12 C 0.08327(12) 0.9224(3) 0.4563(3)
C13 C 0.08896(10) 0.8001(3) 0.3955(2)
H19 H 0.0726 0.8157 0.3303
H20 H 0.0766 0.7212 0.4200
C14 C 0.19645(11) 0.7932(4) 0.5320(3)
H21 H 0.2041 0.8726 0.5045
N2 N 0.16145(8) 0.7216(3) 0.48709(17)
C15 C 0.22087(13) 0.7485(5) 0.6188(3)
H22 H 0.2454 0.7965 0.6491
C16 C 0.20904(13) 0.6328(5) 0.6606(3)
H23 H 0.2252 0.6029 0.7197
C17 C 0.17325(12) 0.5619(4) 0.6147(2)
H24 H 0.1648 0.4837 0.6423
C18 C 0.14988(11) 0.6074(3) 0.5274(2)
H25 H 0.1257 0.5589 0.4957
Ca1F Ca 0.10310(2) 1.14278(6) 0.61548(4)
Ca1F_2 Ca 0.10310(2) 1.14278(6) -0.38452(4)
O1F O 0.17903(8) 1.1480(3) 0.6582(2)
H1F H 0.2008 1.1970 0.6465
H2F H 0.1886 1.0652 0.6953
O2F O 0.03000(8) 1.1627(3) 0.63758(18)
H3F H 0.0225 1.2227 0.6688
H4F H 0.0040 1.1316 0.6147
O6F O 0.09401(8) 1.3076(2) 0.49629(15)
O7F O 0.06406(8) 1.4536(2) 0.38102(15)
C1F C 0.08151(10) 1.3437(3) 0.4095(2)
C2F C 0.08985(10) 1.2360(3) 0.33630(19)
H10F H 0.0771 1.1503 0.3514
O8F O 0.18469(8) 1.0662(3) 0.2805(2)
O9F O 0.11479(7) 1.0229(2) 0.23801(16)
O9_2 O 0.11479(7) 0.9771(2) 0.73801(16)
C3F C 0.14634(10) 1.0904(3) 0.2814(2)
C4F C 0.13776(10) 1.2099(3) 0.3440(2)
H11F H 0.1508 1.2915 0.3249
H12F H 0.1515 1.1913 0.4106
N1F N 0.06770(8) 1.2741(2) 0.23685(16)
C5F C 0.03723(10) 1.1909(3) 0.1857(2)
H13F H 0.0311 1.1091 0.2125
C6F C 0.01534(10) 1.2249(3) 0.0957(2)
H14F H -0.0060 1.1678 0.0615
C7F C 0.02524(11) 1.3456(4) 0.0553(2)
H15F H 0.0105 1.3705 -0.0062
C8F C 0.05714(11) 1.4285(3) 0.1070(2)
H16F H 0.0644 1.5091 0.0803
C9F C 0.07825(10) 1.3907(3) 0.1987(2)
H17F H 0.0998 1.4461 0.2342
O10F O 0.11345(8) 1.3127(2) -0.26724(15)
O10F_2 O 0.11345(8) 1.3127(2) 0.73276(15)
O11F O 0.16197(9) 1.4380(3) -0.16733(17)
C10F C 0.13792(10) 1.3383(3) -0.1868(2)
C11F C 0.13551(10) 1.2325(3) -0.1077(2)
H18F H 0.1486 1.1482 -0.1243
O12F O 0.11610(10) 1.0250(3) 0.0084(2)
O13F O 0.04608(10) 1.0332(3) -0.0493(3)
C12F C 0.08327(12) 1.0776(3) -0.0437(3)
C13F C 0.08896(10) 1.1999(3) -0.1045(2)
H19F H 0.0726 1.1843 -0.1697
H20F H 0.0766 1.2788 -0.0800
C14F C 0.19645(11) 1.2068(4) 0.0320(3)
H21F H 0.2041 1.1274 0.0045
N2F N 0.16145(8) 1.2784(3) -0.01291(17)
C15F C 0.22087(13) 1.2515(5) 0.1188(3)
H22F H 0.2454 1.2035 0.1491
C16F C 0.20904(13) 1.3672(5) 0.1606(3)
H23F H 0.2252 1.3971 0.2197
C17F C 0.17325(12) 1.4381(4) 0.1147(2)
H24F H 0.1648 1.5163 0.1423
C18F C 0.14988(11) 1.3926(3) 0.0274(2)
H25F H 0.1257 1.4411 -0.0043
O3 O 0.0000 0.6206(4) 0.2500
H5 H -0.0191 0.5599 0.2179
H5B H 0.0191 0.5599 0.2821
O4 O 0.25432(8) 0.8002(3) -0.1230(2)
H6 H 0.2298 0.8366 -0.1524
H7 H 0.2626 0.8451 -0.0733
O5 O 0.23427(9) 0.4527(3) 0.4536(2)
H8 H 0.2112 0.4896 0.4096
H9 H 0.2343 0.3685 0.4259
loop_
_geom_bond_atom_site_label_1
_geom_bond_atom_site_label_2
_geom_bond_site_symmetry_1
_geom_bond_site_symmetry_2
Ca1 O1 1_555 1_555
O1 H1 1_555 1_555
H2 O1 1_555 1_555
O2 Ca1 1_555 1_555
H3 O2 1_555 1_555
H4 O2 1_555 1_555
O3 H5 1_555 1_555
O4 H6 1_555 1_555
H7 O4 1_555 1_555
O5 H8 1_555 1_555
H9 O5 1_555 1_555
O6 Ca1 1_555 1_555
O7 C1 1_555 1_555
C1 O6 1_555 1_555
C2 C1 1_555 1_555
H10 C2 1_555 1_555
O8 C3 1_555 1_555
O9 C3 1_555 1_555
C3 C4 1_555 1_555
C4 C2 1_555 1_555
H11 C4 1_555 1_555
H12 C4 1_555 1_555
N1 C2 1_555 1_555
C5 N1 1_555 1_555
H13 C5 1_555 1_555
C6 C5 1_555 1_555
H14 C6 1_555 1_555
C7 C6 1_555 1_555
H15 C7 1_555 1_555
C8 C7 1_555 1_555
H16 C8 1_555 1_555
C9 N1 1_555 1_555
H17 C9 1_555 1_555
O10 Ca1 1_555 1_555
O11 C10 1_555 1_555
C10 O10 1_555 1_555
C11 C10 1_555 1_555
H18 C11 1_555 1_555
O12 C12 1_555 1_555
O13 C12 1_555 1_555
C12 C13 1_555 1_555
C13 C11 1_555 1_555
H19 C13 1_555 1_555
H20 C13 1_555 1_555
C14 H21 1_555 1_555
N2 C11 1_555 1_555
C15 C14 1_555 1_555
H22 C15 1_555 1_555
C16 C15 1_555 1_555
H23 C16 1_555 1_555
C17 C16 1_555 1_555
H24 C17 1_555 1_555
C18 N2 1_555 1_555
H25 C18 1_555 1_555
Ca1F O12 1_555 1_555
Ca1F_2 O9 1_555 1_555
O1F Ca1F 1_555 1_555
H1F O1F 1_555 1_555
H2F O1F 1_555 1_555
O2F Ca1F 1_555 1_555
H3F O2F 1_555 1_555
H4F O2F 1_555 1_555
H5B O3 1_555 1_555
O6F Ca1F 1_555 1_555
O7F C1F 1_555 1_555
C1F O6F 1_555 1_555
C2F C1F 1_555 1_555
H10F C2F 1_555 1_555
O8F C3F 1_555 1_555
O9F Ca1 1_555 1_555
O9_2 Ca1F 1_555 1_555
C3F O9F 1_555 1_555
C4F C2F 1_555 1_555
H11F C4F 1_555 1_555
H12F C4F 1_555 1_555
N1F C2F 1_555 1_555
C5F N1F 1_555 1_555
H13F C5F 1_555 1_555
C6F C5F 1_555 1_555
H14F C6F 1_555 1_555
C7F C6F 1_555 1_555
H15F C7F 1_555 1_555
C8F C7F 1_555 1_555
H16F C8F 1_555 1_555
C9F N1F 1_555 1_555
H17F C9F 1_555 1_555
O10F Ca1F_2 1_555 1_555
O10F_2 Ca1F 1_555 1_555
O11F C10F 1_555 1_555
C10F O10F 1_555 1_555
C11F C10F 1_555 1_555
H18F C11F 1_555 1_555
O12F Ca1 1_555 1_555
O13F C12F 1_555 1_555
C12F O12F 1_555 1_555
C13F C11F 1_555 1_555
H19F C13F 1_555 1_555
H20F C13F 1_555 1_555
C14F H21F 1_555 1_555
N2F C11F 1_555 1_555
C15F C14F 1_555 1_555
H22F C15F 1_555 1_555
C16F C15F 1_555 1_555
H23F C16F 1_555 1_555
C17F C16F 1_555 1_555
H24F C17F 1_555 1_555
C18F N2F 1_555 1_555
H25F C18F 1_555 1_555
C8 C9 1_555 1_555
C14 N2 1_555 1_555
C17 C18 1_555 1_555
C3F C4F 1_555 1_555
C8F C9F 1_555 1_555
C12F C13F 1_555 1_555
C14F N2F 1_555 1_555
C17F C18F 1_555 1_555

#END
