
#######################################################################
#
#                 Cambridge Crystallographic Data Centre
#                                CCDC 
#
#######################################################################
#
# If this CIF has been generated from an entry in the Cambridge 
# Structural Database, then it will include bibliographic, chemical, 
# crystal, experimental, refinement or atomic coordinate data resulting 
# from the CCDC's data processing and validation procedures.
#
#######################################################################

data_SAZQEQ
_symmetry_cell_setting           rhombohedral
_symmetry_space_group_name_H-M   'R -3'
_symmetry_Int_Tables_number      148
_space_group_name_Hall           '-R 3'
loop_
_symmetry_equiv_pos_site_id
_symmetry_equiv_pos_as_xyz
1 x,y,z
2 -y,x-y,z
3 -x+y,-x,z
4 2/3+x,1/3+y,1/3+z
5 2/3-y,1/3+x-y,1/3+z
6 2/3-x+y,1/3-x,1/3+z
7 1/3+x,2/3+y,2/3+z
8 1/3-y,2/3+x-y,2/3+z
9 1/3-x+y,2/3-x,2/3+z
10 -x,-y,-z
11 y,-x+y,-z
12 x-y,x,-z
13 1/3-x,2/3-y,2/3-z
14 1/3+y,2/3-x+y,2/3-z
15 1/3+x-y,2/3+x,2/3-z
16 2/3-x,1/3-y,1/3-z
17 2/3+y,1/3-x+y,1/3-z
18 2/3+x-y,1/3+x,1/3-z
_cell_length_a                   33.072(11)
_cell_length_b                   33.072(11)
_cell_length_c                   9.285(4)
_cell_angle_alpha                90
_cell_angle_beta                 90
_cell_angle_gamma                120.00
_cell_volume                     8794.95
loop_
_atom_site_label
_atom_site_type_symbol
_atom_site_fract_x
_atom_site_fract_y
_atom_site_fract_z
Zn1 Zn 0.8333 0.1667 0.6667
N1 N 0.79956(17) 0.13256(18) 0.8538(6)
N2 N 0.77397(17) 0.16556(18) 0.5950(6)
C1 C 0.8169(2) 0.1162(2) 0.9629(8)
C2 C 0.7796(2) 0.0855(2) 1.0576(8)
H1 H 0.7821 0.0698 1.1401
C3 C 0.7402(2) 0.0833(2) 1.0056(8)
H2 H 0.7099 0.0660 1.0465
C4 C 0.7524(2) 0.1121(2) 0.8764(7)
C5 C 0.7212(2) 0.1171(2) 0.7889(8)
C6 C 0.7310(2) 0.1415(2) 0.6585(7)
C7 C 0.6962(2) 0.1441(3) 0.5696(8)
H3 H 0.6639 0.1308 0.5907
C8 C 0.7188(2) 0.1693(2) 0.4500(8)
H4 H 0.7052 0.1768 0.3718
C9 C 0.7679(2) 0.1826(2) 0.4646(8)
C10 C 0.8640(2) 0.1258(2) 0.9698(7)
C11 C 0.6707(2) 0.0914(2) 0.8330(8)
C12 C 0.6533(2) 0.1085(3) 0.9371(8)
H5 H 0.6737 0.1369 0.9852
C13 C 0.6065(2) 0.0843(3) 0.9711(8)
H6 H 0.5954 0.0967 1.0433
N3 N 0.57569(18) 0.0440(2) 0.9070(6)
C14 C 0.5922(2) 0.0270(2) 0.8072(8)
H7 H 0.5711 -0.0018 0.7623
C15 C 0.6388(2) 0.0491(2) 0.7659(7)
H8 H 0.6489 0.0360 0.6933
C16 C 0.8776(2) 0.1075(2) 1.0972(8)
C17 C 0.8767(2) 0.1215(3) 1.2365(8)
H9 H 0.8666 0.1433 1.2549
C18 C 0.8902(3) 0.1038(3) 1.3488(9)
H10 H 0.8897 0.1149 1.4428
N4 N 0.9037(2) 0.0730(3) 1.3366(9)
C19 C 0.9037(3) 0.0580(3) 1.1997(12)
H11 H 0.9128 0.0352 1.1863
C20 C 0.8911(2) 0.0740(2) 1.0782(9)
H12 H 0.8917 0.0624 0.9851
Zn1M Zn 0.5000 0.0001 1.0000
Zn1J Zn 1.1667 0.3334 0.3333
N1O N 0.86711(17) 0.20077(18) 0.4795(6)
N1D N 0.53411(18) 0.00033(25) 1.1871(6)
N1M N 0.46589(18) -0.00033(25) 0.8129(6)
N2O N 0.89270(17) 0.16777(18) 0.7383(6)
N2D N 0.50111(18) -0.05826(25) 0.9283(6)
N2M N 0.49889(18) 0.05826(25) 1.0717(6)
C1O C 0.8498(2) 0.2171(2) 0.3704(8)
C2O C 0.8871(2) 0.2478(2) 0.2757(8)
H1O H 0.8846 0.2635 0.1932
C3O C 0.9265(2) 0.2500(2) 0.3277(8)
H2O H 0.9568 0.2673 0.2868
C4O C 0.9143(2) 0.2212(2) 0.4569(7)
C5O C 0.9455(2) 0.2162(2) 0.5444(8)
C6O C 0.9357(2) 0.1918(2) 0.6748(7)
C7O C 0.9705(2) 0.1892(3) 0.7637(8)
H3O H 1.0028 0.2025 0.7426
C8O C 0.9479(2) 0.1640(2) 0.8833(8)
H4O H 0.9615 0.1565 0.9615
C9O C 0.8988(2) 0.1507(2) 0.8687(8)
C10O C 0.8027(2) 0.2075(2) 0.3635(7)
C11O C 0.9960(2) 0.2419(2) 0.5003(8)
C12O C 1.0134(2) 0.2248(3) 0.3962(8)
H5O H 0.9930 0.1964 0.3481
C13O C 1.0602(2) 0.2490(3) 0.3622(8)
H6O H 1.0713 0.2366 0.2900
N3O N 1.09098(18) 0.2893(2) 0.4263(6)
N3N N 0.86502(27) 0.24236(18) 0.7597(6)
N3H N 0.80164(27) 0.09098(18) 0.5737(6)
N3I N 0.42431(18) -0.0440(2) 1.0930(6)
C14O C 1.0745(2) 0.3063(2) 0.5261(8)
H7O H 1.0956 0.3351 0.5710
C15O C 1.0279(2) 0.2842(2) 0.5674(7)
H8O H 1.0178 0.2973 0.6400
C16O C 0.7891(2) 0.2258(2) 0.2361(8)
C17O C 0.7900(2) 0.2118(3) 0.0968(8)
H9O H 0.8001 0.1900 0.0784
C18O C 0.7765(3) 0.2295(3) -0.0155(9)
H10O H 0.7770 0.2184 -0.1095
N4O N 0.7630(2) 0.2603(3) -0.0033(9)
C19O C 0.7630(3) 0.2753(3) 0.1336(12)
H11O H 0.7539 0.2981 0.1470
C20O C 0.7756(2) 0.2593(2) 0.2551(9)
H12O H 0.7750 0.2709 0.3482
loop_
_geom_bond_atom_site_label_1
_geom_bond_atom_site_label_2
_geom_bond_site_symmetry_1
_geom_bond_site_symmetry_2
Zn1 N1 1_555 1_555
N1 C1 1_555 1_555
N2 Zn1 1_555 1_555
C1 C2 1_555 1_555
C2 H1 1_555 1_555
C3 C2 1_555 1_555
H2 C3 1_555 1_555
C4 N1 1_555 1_555
C5 C4 1_555 1_555
C6 N2 1_555 1_555
C7 C6 1_555 1_555
H3 C7 1_555 1_555
C8 C7 1_555 1_555
H4 C8 1_555 1_555
C9 N2 1_555 1_555
C10 C1 1_555 1_555
C11 C5 1_555 1_555
C12 C11 1_555 1_555
H5 C12 1_555 1_555
C13 C12 1_555 1_555
H6 C13 1_555 1_555
N3 C13 1_555 1_555
C14 N3 1_555 1_555
H7 C14 1_555 1_555
C15 C11 1_555 1_555
H8 C15 1_555 1_555
C16 C10 1_555 1_555
C17 C16 1_555 1_555
H9 C17 1_555 1_555
C18 C17 1_555 1_555
H10 C18 1_555 1_555
N4 C18 1_555 1_555
C19 N4 1_555 1_555
H11 C19 1_555 1_555
C20 C16 1_555 1_555
H12 C20 1_555 1_555
Zn1M N3 1_555 1_555
Zn1J N3O 1_555 1_555
N1O Zn1 1_555 1_555
N1D Zn1M 1_555 1_555
N1M Zn1M 1_555 1_555
N2O Zn1 1_555 1_555
N2D Zn1M 1_555 1_555
N2M Zn1M 1_555 1_555
C1O N1O 1_555 1_555
C2O C1O 1_555 1_555
H1O C2O 1_555 1_555
C3O C2O 1_555 1_555
H2O C3O 1_555 1_555
C4O N1O 1_555 1_555
C5O C4O 1_555 1_555
C6O N2O 1_555 1_555
C7O C6O 1_555 1_555
H3O C7O 1_555 1_555
C8O C7O 1_555 1_555
H4O C8O 1_555 1_555
C9O C10 1_555 1_555
C10O C9 1_555 1_555
C11O C5O 1_555 1_555
C12O C11O 1_555 1_555
H5O C12O 1_555 1_555
C13O C12O 1_555 1_555
H6O C13O 1_555 1_555
N3O C13O 1_555 1_555
N3N Zn1 1_555 1_555
N3H Zn1 1_555 1_555
N3I Zn1M 1_555 1_555
C14O N3O 1_555 1_555
H7O C14O 1_555 1_555
C15O C11O 1_555 1_555
H8O C15O 1_555 1_555
C16O C10O 1_555 1_555
C17O C16O 1_555 1_555
H9O C17O 1_555 1_555
C18O C17O 1_555 1_555
H10O C18O 1_555 1_555
N4O C18O 1_555 1_555
C19O N4O 1_555 1_555
H11O C19O 1_555 1_555
C20O C16O 1_555 1_555
H12O C20O 1_555 1_555
C3 C4 1_555 1_555
C5 C6 1_555 1_555
C8 C9 1_555 1_555
C14 C15 1_555 1_555
C19 C20 1_555 1_555
N2O C9O 1_555 1_555
C1O C10O 1_555 1_555
C3O C4O 1_555 1_555
C5O C6O 1_555 1_555
C8O C9O 1_555 1_555
C14O C15O 1_555 1_555
C19O C20O 1_555 1_555

#END
