
#######################################################################
#
#                 Cambridge Crystallographic Data Centre
#                                CCDC 
#
#######################################################################
#
# If this CIF has been generated from an entry in the Cambridge 
# Structural Database, then it will include bibliographic, chemical, 
# crystal, experimental, refinement or atomic coordinate data resulting 
# from the CCDC's data processing and validation procedures.
#
#######################################################################

data_SAZSUI
_symmetry_cell_setting           triclinic
_symmetry_space_group_name_H-M   'P -1'
_symmetry_Int_Tables_number      2
_space_group_name_Hall           '-P 1'
loop_
_symmetry_equiv_pos_site_id
_symmetry_equiv_pos_as_xyz
1 x,y,z
2 -x,-y,-z
_cell_length_a                   7.9012(2)
_cell_length_b                   9.6520(2)
_cell_length_c                   12.4358(3)
_cell_angle_alpha                74.190(2)
_cell_angle_beta                 71.363(2)
_cell_angle_gamma                79.9000(4)
_cell_volume                     860.592
loop_
_atom_site_label
_atom_site_type_symbol
_atom_site_fract_x
_atom_site_fract_y
_atom_site_fract_z
C1 C 0.0542(4) 0.6619(3) 0.5549(3)
C2 C -0.0526(4) 0.7909(3) 0.5036(3)
C3 C -0.0951(5) 0.9396(4) 0.3304(3)
H1 H -0.0668 0.9600 0.2495
C4 C 0.2762(5) 0.4753(4) 0.5135(3)
H2 H 0.3568 0.4279 0.4591
C5 C 0.2694(5) 0.4239(4) 0.6295(3)
H3 H 0.3436 0.3430 0.6530
C6 C 0.1499(5) 0.4952(4) 0.7101(3)
H4 H 0.1431 0.4627 0.7888
C7 C -0.2220(5) 1.0312(4) 0.3907(3)
H5 H -0.2762 1.1137 0.3507
C8 C -0.2667(5) 0.9985(4) 0.5106(3)
H6 H -0.3533 1.0579 0.5524
C9 C 0.0408(5) 0.6149(4) 0.6729(3)
H7 H -0.0406 0.6634 0.7263
C10 C -0.1814(5) 0.8757(4) 0.5693(3)
H8 H -0.2105 0.8517 0.6503
Cu1 Cu 0.17310(5) 0.68173(4) 0.31140(3)
Mo1 Mo 0.48637(3) 0.94920(3) 0.16005(2)
Mo2 Mo 0.48726(3) 0.44497(3) 0.15197(2)
Mo3 Mo 0.73892(3) 0.75362(3) -0.03312(2)
N1 N 0.1701(3) 0.5921(3) 0.4762(2)
N2 N -0.0122(3) 0.8217(3) 0.3864(2)
O1 O 0.7135(3) 0.8612(2) 0.07836(19)
O2 O 0.4337(3) 0.8644(2) 0.01372(18)
O3 O 0.3528(3) 0.6055(2) 0.01742(17)
O4 O 0.6173(3) 0.3227(2) 0.2254(2)
O5 O 0.3293(3) 0.5200(2) 0.26088(19)
O6 O 0.3367(3) 0.3240(2) 0.13549(18)
O7 O 0.9606(3) 0.7038(3) -0.0690(2)
O8 O 0.6452(3) 0.5971(2) 0.08798(18)
O9 O 0.2694(3) 1.0645(2) 0.14782(18)
O10 O 0.5671(3) 1.0441(2) 0.2253(2)
O11 O 0.4049(3) 0.8036(2) 0.2705(2)
O12 O 0.1275(3) 0.7612(2) 0.15989(19)
Se1 Se 0.24981(4) 0.77788(3) 0.02244(2)
Mo1A Mo 0.51363(3) 1.05080(3) -0.16005(2)
Mo2A Mo 0.51274(3) 0.55503(3) -0.15197(2)
Mo3A Mo 0.26108(3) 0.24638(3) 0.03312(2)
Mo3A_2 Mo 0.26108(3) 1.24638(3) 0.03312(2)
O2A O 0.5663(3) 1.1356(2) -0.01372(18)
O3A O 0.6472(3) 0.3945(2) -0.01742(17)
O6A O 0.6633(3) 0.6760(2) -0.13549(18)
O9A O 0.7306(3) 0.9355(2) -0.14782(18)
loop_
_geom_bond_atom_site_label_1
_geom_bond_atom_site_label_2
_geom_bond_site_symmetry_1
_geom_bond_site_symmetry_2
C1 C2 1_555 1_555
C2 C10 1_555 1_555
C3 H1 1_555 1_555
C4 H2 1_555 1_555
C5 C4 1_555 1_555
H3 C5 1_555 1_555
C6 C5 1_555 1_555
H4 C6 1_555 1_555
C7 C3 1_555 1_555
H5 C7 1_555 1_555
C8 C7 1_555 1_555
H6 C8 1_555 1_555
C9 C1 1_555 1_555
H7 C9 1_555 1_555
C10 C8 1_555 1_555
H8 C10 1_555 1_555
Cu1 N1 1_555 1_555
Mo1 O1 1_555 1_555
Mo2 O3 1_555 1_555
Mo3 O1 1_555 1_555
N1 C1 1_555 1_555
N2 C2 1_555 1_555
O2 Mo1 1_555 1_555
O3 Se1 1_555 1_555
O4 Mo2 1_555 1_555
O5 Cu1 1_555 1_555
O6 Mo2 1_555 1_555
O7 Mo3 1_555 1_555
O8 Mo2 1_555 1_555
O9 Mo1 1_555 1_555
O10 Mo1 1_555 1_555
O11 Cu1 1_555 1_555
O12 Cu1 1_555 1_555
Se1 O2 1_555 1_555
Mo1A O2 1_555 1_555
Mo2A O3 1_555 1_555
Mo3A O6 1_555 1_555
Mo3A_2 O9 1_555 1_555
O2A Mo1 1_555 1_555
O3A Mo2 1_555 1_555
O6A Mo3 1_555 1_555
O9A Mo3 1_555 1_555
C3 N2 1_555 1_555
C4 N1 1_555 1_555
C6 C9 1_555 1_555
Cu1 N2 1_555 1_555
Mo1 O11 1_555 1_555
Mo2 O5 1_555 1_555
Mo3 O2 1_555 1_555
Mo3 O8 1_555 1_555
O12 Se1 1_555 1_555
Mo1A O2A 1_555 1_555
Mo1A O9A 1_555 1_555
Mo2A O3A 1_555 1_555
Mo2A O6A 1_555 1_555
Mo3A_2 O2A 1_555 1_555

#END
