
#######################################################################
#
#                 Cambridge Crystallographic Data Centre
#                                CCDC 
#
#######################################################################
#
# If this CIF has been generated from an entry in the Cambridge 
# Structural Database, then it will include bibliographic, chemical, 
# crystal, experimental, refinement or atomic coordinate data resulting 
# from the CCDC's data processing and validation procedures.
#
#######################################################################

data_SAZSOC01
_symmetry_cell_setting           tetragonal
_symmetry_space_group_name_H-M   'I 41/a'
_symmetry_Int_Tables_number      88
_space_group_name_Hall           '-I 4ad'
loop_
_symmetry_equiv_pos_site_id
_symmetry_equiv_pos_as_xyz
1 x,y,z
2 3/4-y,1/4+x,1/4+z
3 1/2+x,1/2+y,1/2+z
4 1/4-y,3/4+x,3/4+z
5 1/4+y,1/4-x,1/4+z
6 1/2-x,-y,1/2+z
7 3/4+y,3/4-x,3/4+z
8 -x,1/2-y,z
9 -x,-y,-z
10 1/4+y,3/4-x,3/4-z
11 1/2-x,1/2-y,1/2-z
12 3/4+y,1/4-x,1/4-z
13 3/4-y,3/4+x,3/4-z
14 1/2+x,y,1/2-z
15 1/4-y,1/4+x,1/4-z
16 x,1/2+y,-z
_cell_length_a                   21.5674(7)
_cell_length_b                   21.5674(7)
_cell_length_c                   12.8126(4)
_cell_angle_alpha                90
_cell_angle_beta                 90
_cell_angle_gamma                90
_cell_volume                     5959.82
loop_
_atom_site_label
_atom_site_type_symbol
_atom_site_fract_x
_atom_site_fract_y
_atom_site_fract_z
Co1 Co 0.5000 0.5000 0.0000
V1 V 0.49738(2) 0.639955(19) 0.15914(4)
C1 C 0.36196(13) 0.52222(13) 0.0613(2)
H1 H 0.3741 0.5636 0.0587
C2 C 0.30061(13) 0.50922(13) 0.0817(2)
H2 H 0.2726 0.5414 0.0920
C3 C 0.28050(13) 0.44788(13) 0.0868(2)
C4 C 0.32562(13) 0.40262(13) 0.0726(2)
H3 H 0.3150 0.3609 0.0771
C5 C 0.38601(13) 0.41948(13) 0.0518(2)
H4 H 0.4151 0.3882 0.0419
C6 C 0.21257(12) 0.43404(13) 0.1055(2)
H5 H 0.2012 0.4505 0.1733
H6 H 0.1885 0.4562 0.0536
C7 C 0.19410(13) 0.36643(14) 0.1019(3)
H7 H 0.2118 0.3454 0.1619
H8 H 0.2116 0.3477 0.0397
C8 C 0.12385(13) 0.35614(14) 0.1016(2)
H9 H 0.1068 0.3726 0.0373
H10 H 0.1156 0.3119 0.1030
C9 C 0.09134(13) 0.38644(13) 0.1932(2)
C10 C 0.06269(13) 0.44346(13) 0.1842(2)
H11 H 0.0610 0.4631 0.1197
C11 C 0.03655(13) 0.47129(13) 0.2704(2)
H12 H 0.0181 0.5099 0.2620
C12 C 0.06237(13) 0.38985(13) 0.3739(2)
H13 H 0.0618 0.3704 0.4387
C13 C 0.09021(14) 0.35920(14) 0.2914(2)
H14 H 0.1081 0.3205 0.3016
N1 N 0.40519(10) 0.47845(10) 0.04512(18)
N2 N 0.03629(10) 0.44575(10) 0.36599(18)
O1 O 0.49742(8) 0.57510(8) 0.08964(14)
O2 O 0.49342(10) 0.62261(10) 0.28165(16)
O3 O 0.56642(9) 0.68165(10) 0.13213(18)
Co1M Co 0.0000 0.5000 0.5000
Co1M_2 Co 1.0000 0.5000 0.5000
V1H V 0.50262(2) 0.360045(19) -0.15914(4)
V1N V 0.610045(19) 0.74738(2) 0.09086(4)
V1K V 0.389955(19) 0.75262(2) 0.09086(4)
C1M C 0.86196(13) 0.52222(13) 0.4387(2)
H1M H 0.8741 0.5636 0.4413
C2M C 0.80061(13) 0.50922(13) 0.4183(2)
H2M H 0.7726 0.5414 0.4080
C3M C 0.78050(13) 0.44788(13) 0.4132(2)
C4M C 0.82562(13) 0.40262(13) 0.4274(2)
H3M H 0.8150 0.3609 0.4229
C5M C 0.88601(13) 0.41948(13) 0.4482(2)
H4M H 0.9151 0.3882 0.4581
C6M C 0.71257(12) 0.43404(13) 0.3945(2)
H5M H 0.7012 0.4505 0.3267
H6M H 0.6885 0.4562 0.4464
C7M C 0.69410(13) 0.36643(14) 0.3981(3)
H7M H 0.7118 0.3454 0.3381
H8M H 0.7116 0.3477 0.4603
C8M C 0.62385(13) 0.35614(14) 0.3984(2)
H9M H 0.6068 0.3726 0.4627
H10M H 0.6156 0.3119 0.3970
C9M C 0.59134(13) 0.38644(13) 0.3068(2)
C10M C 0.56269(13) 0.44346(13) 0.3158(2)
H11M H 0.5610 0.4631 0.3803
C11M C 0.53655(13) 0.47129(13) 0.2296(2)
H12M H 0.5181 0.5099 0.2380
C12M C 0.56237(13) 0.38985(13) 0.1261(2)
H13M H 0.5618 0.3704 0.0613
C13M C 0.59021(14) 0.35920(14) 0.2086(2)
H14M H 0.6081 0.3205 0.1984
N1M N 0.90519(10) 0.47845(10) 0.45488(18)
N1H N 0.59481(10) 0.52155(10) -0.04512(18)
N2M N 0.53629(10) 0.44575(10) 0.13401(18)
N2E N 0.46371(10) 0.55425(10) -0.13401(18)
O1H O 0.50258(8) 0.42490(8) -0.08964(14)
O2H O 0.50658(10) 0.37739(10) -0.28165(16)
O3K O 0.43165(10) 0.68358(9) 0.11787(18)
O3H O 0.43358(9) 0.31835(10) -0.13213(18)
O3C O 0.56835(10) 0.31642(9) -0.11787(18)
loop_
_geom_bond_atom_site_label_1
_geom_bond_atom_site_label_2
_geom_bond_site_symmetry_1
_geom_bond_site_symmetry_2
Co1 N1 1_555 1_555
V1 O1 1_555 1_555
C1 H1 1_555 1_555
C2 C1 1_555 1_555
H2 C2 1_555 1_555
C3 C2 1_555 1_555
C4 C3 1_555 1_555
H3 C4 1_555 1_555
C5 C4 1_555 1_555
H4 C5 1_555 1_555
C6 C3 1_555 1_555
H5 C6 1_555 1_555
H6 C6 1_555 1_555
C7 C6 1_555 1_555
H7 C7 1_555 1_555
H8 C7 1_555 1_555
C8 C7 1_555 1_555
H9 C8 1_555 1_555
H10 C8 1_555 1_555
C9 C8 1_555 1_555
C10 C9 1_555 1_555
H11 C10 1_555 1_555
C11 C10 1_555 1_555
H12 C11 1_555 1_555
C12 H13 1_555 1_555
C13 C9 1_555 1_555
H14 C13 1_555 1_555
N1 C1 1_555 1_555
N2 C11 1_555 1_555
O1 Co1 1_555 1_555
O2 V1 1_555 1_555
O3 V1 1_555 1_555
Co1M N2 1_555 1_555
Co1M_2 N1M 1_555 1_555
V1H O1H 1_555 1_555
V1N O3 1_555 1_555
V1K O3K 1_555 1_555
C1M H1M 1_555 1_555
C2M C1M 1_555 1_555
H2M C2M 1_555 1_555
C3M C2M 1_555 1_555
C4M C3M 1_555 1_555
H3M C4M 1_555 1_555
C5M C4M 1_555 1_555
H4M C5M 1_555 1_555
C6M C3M 1_555 1_555
H5M C6M 1_555 1_555
H6M C6M 1_555 1_555
C7M C6M 1_555 1_555
H7M C7M 1_555 1_555
H8M C7M 1_555 1_555
C8M C7M 1_555 1_555
H9M C8M 1_555 1_555
H10M C8M 1_555 1_555
C9M C8M 1_555 1_555
C10M C9M 1_555 1_555
H11M C10M 1_555 1_555
C11M C10M 1_555 1_555
H12M C11M 1_555 1_555
C12M H13M 1_555 1_555
C13M C9M 1_555 1_555
H14M C13M 1_555 1_555
N1M C1M 1_555 1_555
N1H Co1 1_555 1_555
N2M Co1 1_555 1_555
N2E Co1 1_555 1_555
O1H Co1 1_555 1_555
O2H V1H 1_555 1_555
O3K V1 1_555 1_555
O3H V1H 1_555 1_555
O3C V1H 1_555 1_555
C5 N1 1_555 1_555
C12 C13 1_555 1_555
C12 N2 1_555 1_555
C5M N1M 1_555 1_555
C11M N2M 1_555 1_555
C12M C13M 1_555 1_555
C12M N2M 1_555 1_555

#END
