
#######################################################################
#
#                 Cambridge Crystallographic Data Centre
#                                CCDC 
#
#######################################################################
#
# If this CIF has been generated from an entry in the Cambridge 
# Structural Database, then it will include bibliographic, chemical, 
# crystal, experimental, refinement or atomic coordinate data resulting 
# from the CCDC's data processing and validation procedures.
#
#######################################################################

data_SAZSIV
_symmetry_cell_setting           orthorhombic
_symmetry_space_group_name_H-M   'P b c a'
_symmetry_Int_Tables_number      61
_space_group_name_Hall           '-P 2ac 2ab'
loop_
_symmetry_equiv_pos_site_id
_symmetry_equiv_pos_as_xyz
1 x,y,z
2 1/2-x,-y,1/2+z
3 1/2+x,1/2-y,-z
4 -x,1/2+y,1/2-z
5 -x,-y,-z
6 1/2+x,y,1/2-z
7 1/2-x,1/2+y,z
8 x,1/2-y,1/2+z
_cell_length_a                   10.068(3)
_cell_length_b                   15.065(7)
_cell_length_c                   14.976(5)
_cell_angle_alpha                90
_cell_angle_beta                 90
_cell_angle_gamma                90
_cell_volume                     2271.48
loop_
_atom_site_label
_atom_site_type_symbol
_atom_site_fract_x
_atom_site_fract_y
_atom_site_fract_z
Sn1 Sn 0.05105(3) 0.28989(2) 0.46670(2)
O1 O -0.1117(3) 0.3847(2) 0.4435(2)
O2 O 0.2418(3) 0.2005(2) 0.4894(2)
C1 C 0.1753(4) 0.3695(3) 0.3830(3)
C2 C 0.2782(5) 0.3334(4) 0.3344(4)
C3 C 0.3622(6) 0.3850(4) 0.2835(3)
C4 C 0.3433(6) 0.4752(4) 0.2790(4)
C5 C 0.2411(7) 0.5121(4) 0.3260(5)
C6 C 0.1584(5) 0.4604(3) 0.3768(4)
C7 C 0.0620(5) 0.3169(4) 0.6051(4)
C8 C -0.0431(6) 0.1827(4) 0.4025(5)
C9 C -0.2285(4) 0.3669(3) 0.4655(3)
C10 C -0.3330(6) 0.4314(4) 0.4374(5)
C9B C 0.2715(4) 0.1331(3) 0.5345(3)
O2B O -0.2582(3) 0.2995(2) 0.5106(2)
O1B O 0.3883(3) 0.1153(2) 0.5565(2)
C10B C 0.1670(6) 0.0686(4) 0.5626(5)
Sn1B Sn -0.44895(3) 0.21011(2) 0.53330(2)
Sn1B_2 Sn 0.55105(3) 0.21011(2) 0.53330(2)
O1B_2 O -0.6117(3) 0.1153(2) 0.5565(2)
C1B C -0.3247(4) 0.1305(3) 0.6170(3)
C7B C -0.4380(5) 0.1831(4) 0.3949(4)
C8B C -0.5431(6) 0.3173(4) 0.5975(5)
C2B C -0.2218(5) 0.1666(4) 0.6656(4)
C6B C -0.3416(5) 0.0396(3) 0.6232(4)
C3B C -0.1378(6) 0.1150(4) 0.7165(3)
C5B C -0.2589(7) -0.0121(4) 0.6740(5)
C4B C -0.1567(6) 0.0248(4) 0.7210(4)
loop_
_geom_bond_atom_site_label_1
_geom_bond_atom_site_label_2
_geom_bond_site_symmetry_1
_geom_bond_site_symmetry_2
Sn1 O1 1_555 1_555
O1 C9 1_555 1_555
O2 Sn1 1_555 1_555
C1 Sn1 1_555 1_555
C2 C1 1_555 1_555
C3 C2 1_555 1_555
C4 C3 1_555 1_555
C5 C4 1_555 1_555
C6 C1 1_555 1_555
C7 Sn1 1_555 1_555
C8 Sn1 1_555 1_555
C9 C10 1_555 1_555
C9B O2 1_555 1_555
O2B C9 1_555 1_555
O1B C9B 1_555 1_555
C10B C9B 1_555 1_555
Sn1B O2B 1_555 1_555
Sn1B_2 O1B 1_555 1_555
O1B_2 Sn1B 1_555 1_555
C1B Sn1B 1_555 1_555
C7B Sn1B 1_555 1_555
C8B Sn1B 1_555 1_555
C2B C1B 1_555 1_555
C6B C1B 1_555 1_555
C3B C2B 1_555 1_555
C5B C6B 1_555 1_555
C4B C3B 1_555 1_555
C5 C6 1_555 1_555
C5B C4B 1_555 1_555

#END
