
#######################################################################
#
#                 Cambridge Crystallographic Data Centre
#                                CCDC 
#
#######################################################################
#
# If this CIF has been generated from an entry in the Cambridge 
# Structural Database, then it will include bibliographic, chemical, 
# crystal, experimental, refinement or atomic coordinate data resulting 
# from the CCDC's data processing and validation procedures.
#
#######################################################################

data_SAZTET
_symmetry_cell_setting           monoclinic
_symmetry_space_group_name_H-M   'C 2/c'
_symmetry_Int_Tables_number      15
_space_group_name_Hall           '-C 2yn'
loop_
_symmetry_equiv_pos_site_id
_symmetry_equiv_pos_as_xyz
1 x,y,z
2 1/2+x,1/2+y,z
3 -x,y,1/2-z
4 1/2-x,1/2+y,1/2-z
5 -x,-y,-z
6 1/2-x,1/2-y,-z
7 x,-y,1/2+z
8 1/2+x,1/2-y,1/2+z
_cell_length_a                   20.0305(5)
_cell_length_b                   9.8326(3)
_cell_length_c                   11.9363(3)
_cell_angle_alpha                90
_cell_angle_beta                 101.136(3)
_cell_angle_gamma                90
_cell_volume                     2306.61
loop_
_atom_site_label
_atom_site_type_symbol
_atom_site_fract_x
_atom_site_fract_y
_atom_site_fract_z
Cu1 Cu 0.250654(11) 0.01919(3) 0.38422(2)
S1 S 0.17689(2) 0.21341(5) 0.22068(4)
O1 O 0.28005(9) 0.00972(18) 0.55399(15)
O2 O 0.18487(8) 0.25400(16) 0.34213(13)
O3 O 0.21509(8) 0.07968(15) 0.22161(13)
N1 N 0.16029(8) -0.06750(19) 0.39437(15)
C1 C 0.09341(11) -0.2682(2) 0.40082(19)
H1 H 0.0920 -0.3625 0.4061
O4 O 0.20881(8) 0.31312(16) 0.15664(14)
C2 C -0.03336(10) -0.2596(2) 0.38740(17)
C3 C 0.04001(10) -0.0518(2) 0.38628(19)
H2 H 0.0017 0.0031 0.3813
N2 N -0.15936(9) -0.38810(19) 0.38219(15)
C4 C 0.03379(10) -0.1930(2) 0.39162(17)
C5 C -0.10228(12) -0.4606(2) 0.3826(2)
H3 H -0.1051 -0.5550 0.3817
O5 O 0.10578(8) 0.19124(18) 0.16895(14)
C6 C -0.15387(11) -0.2518(2) 0.3816(2)
H4 H -0.1930 -0.2000 0.3791
C7 C 0.10307(12) 0.0065(2) 0.3883(2)
H5 H 0.1061 0.1008 0.3855
C8 C -0.09266(10) -0.1848(2) 0.38444(19)
H6 H -0.0912 -0.0903 0.3844
C9 C -0.03979(11) -0.4009(2) 0.3845(2)
H7 H -0.0018 -0.4550 0.3838
C10 C 0.15491(11) -0.2033(2) 0.40214(19)
H8 H 0.1941 -0.2557 0.4087
H9 H 0.2589(16) -0.016(3) 0.595(3)
H10 H 0.2956(17) 0.077(4) 0.587(3)
Cu1C Cu 0.249346(11) -0.48081(3) 0.11578(2)
Cu1C_2 Cu 0.249346(11) 0.51919(3) 0.11578(2)
Cu1A Cu -0.249346(11) -0.48081(3) 0.38422(2)
Cu1A_2 Cu 0.750654(11) 0.51919(3) 0.38422(2)
S1C S 0.32311(2) -0.28659(5) 0.27932(4)
O1C O 0.21995(9) -0.49028(18) -0.05399(15)
O2C O 0.31513(8) -0.24600(16) 0.15787(13)
O3C O 0.28491(8) -0.42032(15) 0.27839(13)
N1A N 0.66029(8) 0.43250(19) 0.39437(15)
N1C N 0.33971(8) -0.56750(19) 0.10563(15)
C1A C 0.59341(11) 0.2318(2) 0.40082(19)
H1A H 0.5920 0.1375 0.4061
O4C O 0.29119(8) -0.18688(16) 0.34336(14)
O4_2 O 0.20881(8) -0.68688(16) 0.15664(14)
C2A C 0.46664(10) 0.2404(2) 0.38740(17)
C3A C 0.54001(10) 0.4482(2) 0.38628(19)
H2A H 0.5017 0.5031 0.3813
N2A N 0.34064(9) 0.11190(19) 0.38219(15)
N2B N 0.15936(9) -0.38810(19) 0.11781(15)
C4A C 0.53379(10) 0.3070(2) 0.39162(17)
C5A C 0.39772(12) 0.0394(2) 0.3826(2)
H3A H 0.3949 -0.0550 0.3817
O5C O 0.39422(8) -0.30876(18) 0.33105(14)
C6A C 0.34613(11) 0.2482(2) 0.3816(2)
H4A H 0.3070 0.3000 0.3791
C7A C 0.60307(12) 0.5065(2) 0.3883(2)
H5A H 0.6061 0.6008 0.3855
C8A C 0.40734(10) 0.3152(2) 0.38444(19)
H6A H 0.4088 0.4097 0.3844
C9A C 0.46021(11) 0.0991(2) 0.3845(2)
H7A H 0.4982 0.0450 0.3838
C10A C 0.65491(11) 0.2967(2) 0.40214(19)
H8A H 0.6941 0.2443 0.4087
H9C H 0.2411(16) -0.516(3) -0.095(3)
H10C H 0.2044(17) -0.423(4) -0.087(3)
O6 O 0.0000 0.3334(5) 0.2500
H11 H 0.0154(17) 0.307(3) 0.315(3)
H11B H -0.0154(17) 0.307(3) 0.185(3)
loop_
_geom_bond_atom_site_label_1
_geom_bond_atom_site_label_2
_geom_bond_site_symmetry_1
_geom_bond_site_symmetry_2
Cu1 O1 1_555 1_555
S1 O2 1_555 1_555
O1 H9 1_555 1_555
O3 Cu1 1_555 1_555
N1 Cu1 1_555 1_555
C1 H1 1_555 1_555
O4 S1 1_555 1_555
C2 C4 1_555 1_555
C3 H2 1_555 1_555
N2 C5 1_555 1_555
C4 C1 1_555 1_555
C5 H3 1_555 1_555
O5 S1 1_555 1_555
C6 N2 1_555 1_555
H4 C6 1_555 1_555
C7 N1 1_555 1_555
H5 C7 1_555 1_555
C8 C2 1_555 1_555
H6 C8 1_555 1_555
C9 C2 1_555 1_555
H7 C9 1_555 1_555
C10 N1 1_555 1_555
H8 C10 1_555 1_555
O6 H11 1_555 1_555
H10 O1 1_555 1_555
Cu1C O1C 1_555 1_555
Cu1C_2 O4 1_555 1_555
Cu1A N2 1_555 1_555
Cu1A_2 N1A 1_555 1_555
S1C O2C 1_555 1_555
O1C H9C 1_555 1_555
O3C Cu1C 1_555 1_555
N1A C7A 1_555 1_555
N1C Cu1C 1_555 1_555
C1A H1A 1_555 1_555
O4C Cu1 1_555 1_555
O4_2 Cu1C 1_555 1_555
C2A C4A 1_555 1_555
C3A H2A 1_555 1_555
N2A Cu1 1_555 1_555
N2B Cu1C 1_555 1_555
C4A C1A 1_555 1_555
C5A N2A 1_555 1_555
H3A C5A 1_555 1_555
O5C S1C 1_555 1_555
C6A N2A 1_555 1_555
H4A C6A 1_555 1_555
C7A C3A 1_555 1_555
H5A C7A 1_555 1_555
C8A C2A 1_555 1_555
H6A C8A 1_555 1_555
C9A C2A 1_555 1_555
H7A C9A 1_555 1_555
C10A N1A 1_555 1_555
H8A C10A 1_555 1_555
H10C O1C 1_555 1_555
H11B O6 1_555 1_555
S1 O3 1_555 1_555
C1 C10 1_555 1_555
C3 C4 1_555 1_555
C3 C7 1_555 1_555
C5 C9 1_555 1_555
C6 C8 1_555 1_555
S1C O3C 1_555 1_555
S1C O4C 1_555 1_555
C1A C10A 1_555 1_555
C3A C4A 1_555 1_555
C5A C9A 1_555 1_555
C6A C8A 1_555 1_555

#END
