
#######################################################################
#
#                 Cambridge Crystallographic Data Centre
#                                CCDC 
#
#######################################################################
#
# If this CIF has been generated from an entry in the Cambridge 
# Structural Database, then it will include bibliographic, chemical, 
# crystal, experimental, refinement or atomic coordinate data resulting 
# from the CCDC's data processing and validation procedures.
#
#######################################################################

data_SAZTIX01
_symmetry_cell_setting           monoclinic
_symmetry_space_group_name_H-M   'P 21/c'
_symmetry_Int_Tables_number      14
_space_group_name_Hall           '-P 2ybc'
loop_
_symmetry_equiv_pos_site_id
_symmetry_equiv_pos_as_xyz
1 x,y,z
2 -x,1/2+y,1/2-z
3 -x,-y,-z
4 x,1/2-y,1/2+z
_cell_length_a                   29.107(2)
_cell_length_b                   17.1516(12)
_cell_length_c                   21.5943(15)
_cell_angle_alpha                90
_cell_angle_beta                 110.371(3)
_cell_angle_gamma                90
_cell_volume                     10106.3
loop_
_atom_site_label
_atom_site_type_symbol
_atom_site_fract_x
_atom_site_fract_y
_atom_site_fract_z
Cu1 Cu 0.118484(15) 0.28937(2) 0.074653(17)
Cu2 Cu 0.230515(15) 0.29575(2) 0.166675(17)
S1 S 0.16742(3) 0.47434(4) 0.12670(4)
C1 C 0.11201(16) 0.19805(19) 0.18265(16)
H1 H 0.1121 0.1543 0.1558
C2 C 0.11178(17) 0.18483(19) 0.24556(17)
H2 H 0.1122 0.1330 0.2612
C3 C 0.11087(11) 0.24741(17) 0.28606(13)
C4 C 0.10810(15) 0.32071(18) 0.25861(16)
H3 H 0.1059 0.3655 0.2833
C5 C 0.10858(15) 0.32876(19) 0.19531(16)
H4 H 0.1063 0.3798 0.1774
C6 C 0.11348(14) 0.15880(18) 0.44664(15)
H5 H 0.1124 0.1082 0.4640
C7 C 0.11093(13) 0.16504(18) 0.38186(15)
H6 H 0.1080 0.1195 0.3557
C8 C 0.11270(11) 0.23792(17) 0.35502(13)
C9 C 0.11694(16) 0.30195(19) 0.39627(16)
H7 H 0.1185 0.3531 0.3803
C10 C 0.11891(15) 0.29092(19) 0.46064(15)
H8 H 0.1214 0.3354 0.4878
C11 C 0.23509(14) 0.2037(2) 0.28007(15)
H9 H 0.2329 0.1605 0.2516
C12 C 0.23725(16) 0.1893(2) 0.34414(16)
H10 H 0.2362 0.1373 0.3586
C13 C 0.24093(11) 0.25129(18) 0.38748(13)
C14 C 0.24294(15) 0.3256(2) 0.36279(16)
H11 H 0.2462 0.3699 0.3904
C15 C 0.24022(15) 0.3351(2) 0.29809(16)
H12 H 0.2414 0.3865 0.2823
C16 C 0.23418(13) 0.1570(2) 0.54155(16)
H13 H 0.2304 0.1061 0.5565
C17 C 0.23639(14) 0.1652(2) 0.47891(16)
H14 H 0.2341 0.1207 0.4519
C18 C 0.24190(11) 0.23895(18) 0.45565(13)
C19 C 0.24684(19) 0.3003(2) 0.49917(17)
H15 H 0.2521 0.3515 0.4863
C20 C 0.24421(18) 0.2878(2) 0.56098(17)
H16 H 0.2475 0.3311 0.5896
N1 N 0.11208(10) 0.26890(15) 0.15773(12)
N2 N 0.11742(9) 0.22047(15) 0.48633(11)
N3 N 0.23603(10) 0.27567(15) 0.25653(11)
N4 N 0.23718(10) 0.21723(17) 0.58215(12)
O1 O 0.12720(10) 0.42612(13) 0.08228(11)
O2 O 0.20977(10) 0.42443(14) 0.16161(12)
O3 O 0.15029(9) 0.51359(13) 0.17550(11)
O4 O 0.18241(10) 0.53269(15) 0.08792(12)
Cu1C Cu 0.118484(15) 0.21063(2) 0.574653(17)
Cu2C Cu 0.230515(15) 0.20425(2) 0.666675(17)
N2C N 0.11742(9) 0.27953(15) -0.01367(11)
N4C N 0.23718(10) 0.28277(17) 0.08215(12)
Cu3 Cu 0.260811(14) 0.70374(2) -0.139938(17)
Cu4 Cu 0.372081(15) 0.71052(2) -0.044945(18)
S2 S 0.30991(3) 0.52930(4) -0.10018(3)
C21 C 0.24447(12) 0.6636(2) -0.02155(15)
H17 H 0.2375 0.6137 -0.0417
C22 C 0.24294(12) 0.67298(19) 0.04155(15)
H18 H 0.2346 0.6303 0.0636
C23 C 0.25373(10) 0.74580(18) 0.07230(14)
C24 C 0.26422(12) 0.80679(19) 0.03624(15)
H19 H 0.2714 0.8574 0.0550
C25 C 0.26413(12) 0.79300(19) -0.02677(15)
H20 H 0.2705 0.8353 -0.0511
C26 C 0.26215(12) 0.70753(19) 0.24810(15)
H21 H 0.2655 0.6640 0.2765
C27 C 0.25983(12) 0.69429(19) 0.18381(15)
H22 H 0.2614 0.6426 0.1689
C28 C 0.25516(11) 0.75723(18) 0.14100(14)
C29 C 0.25277(12) 0.83127(19) 0.16597(15)
H23 H 0.2496 0.8758 0.1386
C30 C 0.25503(12) 0.84012(19) 0.23081(15)
H24 H 0.2531 0.8912 0.2467
C31 C 0.36629(11) 0.66010(18) 0.07855(15)
H25 H 0.3569 0.6116 0.0565
C32 C 0.36925(11) 0.66596(17) 0.14386(15)
H26 H 0.3619 0.6221 0.1657
C33 C 0.38299(11) 0.73646(17) 0.17747(14)
C34 C 0.39427(11) 0.79819(18) 0.14299(15)
H27 H 0.4045 0.8469 0.1642
C35 C 0.39045(12) 0.78800(19) 0.07786(16)
H28 H 0.3983 0.8306 0.0552
C36 C 0.38397(13) 0.69795(19) 0.34999(16)
H29 H 0.3850 0.6545 0.3777
C37 C 0.38681(13) 0.68430(19) 0.28804(15)
H30 H 0.3905 0.6327 0.2744
C38 C 0.38423(11) 0.74742(17) 0.24596(14)
C39 C 0.38091(13) 0.82098(19) 0.27023(16)
H31 H 0.3799 0.8655 0.2437
C40 C 0.37908(14) 0.83008(19) 0.33273(16)
H32 H 0.3772 0.8814 0.3483
N5 N 0.25535(9) 0.72200(16) -0.05524(12)
N6 N 0.25987(9) 0.77941(15) 0.27221(12)
N7 N 0.37608(9) 0.72009(15) 0.04502(12)
N8 N 0.37979(9) 0.76957(15) 0.37266(12)
O5 O 0.34659(9) 0.58438(13) -0.05736(11)
O6 O 0.26441(9) 0.57226(13) -0.13709(11)
O7 O 0.32994(9) 0.49454(13) -0.14819(11)
O8 O 0.29934(9) 0.46818(14) -0.05972(11)
Cu3C Cu 0.260811(14) 0.79626(2) 0.360062(17)
Cu4C Cu 0.372081(15) 0.78948(2) 0.455055(18)
N6C N 0.25987(9) 0.72059(15) -0.22779(12)
N8C N 0.37979(9) 0.73043(15) -0.12734(12)
Cu5 Cu 0.019076(15) 0.70660(3) 0.345077(18)
Cu6 Cu 0.130422(14) 0.70512(2) 0.444613(17)
S3 S 0.08613(3) 0.52874(5) 0.39140(4)
C41 C 0.00947(13) 0.6597(2) 0.46634(15)
H33 H 0.0099 0.6086 0.4496
C42 C 0.00728(14) 0.6680(2) 0.52925(16)
H34 H 0.0060 0.6232 0.5544
C43 C 0.00692(11) 0.74163(19) 0.55522(13)
C44 C 0.00723(15) 0.8049(2) 0.51496(16)
H35 H 0.0060 0.8565 0.5301
C45 C 0.00940(14) 0.7922(2) 0.45257(15)
H36 H 0.0097 0.8361 0.4259
C46 C 0.00820(14) 0.7029(2) 0.72835(16)
H37 H 0.0062 0.6594 0.7546
C47 C 0.00444(15) 0.6901(2) 0.66338(16)
H38 H -0.0009 0.6389 0.6455
C48 C 0.00847(11) 0.75302(18) 0.62401(14)
C49 C 0.01499(13) 0.8259(2) 0.65335(15)
H39 H 0.0176 0.8705 0.6287
C50 C 0.01766(13) 0.8344(2) 0.71787(15)
H40 H 0.0219 0.8852 0.7364
C51 C 0.12965(12) 0.65382(18) 0.57049(14)
H41 H 0.1279 0.6031 0.5521
C52 C 0.13170(12) 0.66076(18) 0.63564(15)
H42 H 0.1311 0.6154 0.6606
C53 C 0.13459(10) 0.73418(17) 0.66420(13)
C54 C 0.13463(12) 0.79830(18) 0.62437(14)
H43 H 0.1362 0.8496 0.6415
C55 C 0.13237(12) 0.78686(18) 0.55978(14)
H44 H 0.1324 0.8313 0.5335
C56 C 0.12970(13) 0.69898(18) 0.83453(15)
H45 H 0.1243 0.6565 0.8595
C57 C 0.12895(14) 0.68453(18) 0.77118(15)
H46 H 0.1228 0.6333 0.7535
C58 C 0.13719(10) 0.74524(17) 0.73331(13)
C59 C 0.14804(13) 0.81750(18) 0.76376(15)
H47 H 0.1557 0.8601 0.7410
C60 C 0.14773(13) 0.82761(18) 0.82712(14)
H48 H 0.1550 0.8778 0.8467
N9 N 0.01105(10) 0.72055(17) 0.42827(12)
N10 N 0.01453(10) 0.77415(16) 0.75580(12)
N11 N 0.13005(9) 0.71563(14) 0.53257(11)
N12 N 0.13753(9) 0.76940(15) 0.86241(12)
O9 O 0.12751(10) 0.57355(13) 0.43809(11)
O10 O 0.04663(11) 0.58227(17) 0.35495(13)
O11 O 0.06746(11) 0.47269(15) 0.42817(12)
O12 O 0.10371(9) 0.48729(13) 0.34421(11)
Cu5C Cu 0.019076(15) 0.79340(3) 0.845077(18)
Cu6C Cu 0.130422(14) 0.79488(2) 0.944613(17)
N10C N 0.01453(10) 0.72585(16) 0.25580(12)
N12C N 0.13753(9) 0.73060(15) 0.36241(12)
Cu7 Cu 0.488013(15) 0.28541(3) 0.661558(18)
Cu8 Cu 0.375598(16) 0.29015(2) 0.572609(18)
S4 S 0.44237(3) 0.47012(5) 0.61545(4)
C61 C 0.48168(12) 0.20581(19) 0.77393(15)
H49 H 0.4742 0.1621 0.7451
C62 C 0.48370(12) 0.19537(19) 0.83828(15)
H50 H 0.4779 0.1455 0.8532
C63 C 0.49449(11) 0.25983(18) 0.88144(13)
C64 C 0.50294(11) 0.33106(18) 0.85652(14)
H51 H 0.5105 0.3759 0.8841
C65 C 0.50023(12) 0.33637(19) 0.79126(14)
H52 H 0.5060 0.3855 0.7749
C66 C 0.50573(12) 0.1739(2) 1.04589(15)
H53 H 0.5134 0.1249 1.0675
C67 C 0.50758(12) 0.18078(19) 0.98331(15)
H54 H 0.5165 0.1373 0.9627
C68 C 0.49624(11) 0.25171(18) 0.95061(14)
C69 C 0.48528(12) 0.31446(19) 0.98400(15)
H55 H 0.4784 0.3644 0.9638
C70 C 0.48457(13) 0.3030(2) 1.04710(15)
H56 H 0.4774 0.3462 1.0698
C71 C 0.35647(12) 0.20868(19) 0.67605(14)
H57 H 0.3497 0.1661 0.6461
C72 C 0.35395(12) 0.19706(19) 0.73781(15)
H58 H 0.3457 0.1471 0.7498
C73 C 0.36359(11) 0.25877(17) 0.78285(14)
C74 C 0.37385(12) 0.33104(18) 0.76120(15)
H59 H 0.3795 0.3751 0.7895
C75 C 0.37575(13) 0.33837(19) 0.69863(15)
H60 H 0.3827 0.3881 0.6847
C76 C 0.38016(12) 0.16767(19) 0.94757(15)
H61 H 0.3887 0.1181 0.9680
C77 C 0.37710(12) 0.17571(18) 0.88266(15)
H62 H 0.3831 0.1323 0.8592
C78 C 0.36514(11) 0.24769(17) 0.85194(14)
C79 C 0.35624(12) 0.30934(18) 0.88861(15)
H63 H 0.3479 0.3595 0.8694
C80 C 0.35969(12) 0.29631(18) 0.95294(15)
H64 H 0.3533 0.3386 0.9772
N13 N 0.48987(9) 0.27499(16) 0.75033(12)
N14 N 0.49365(10) 0.23330(16) 1.07778(12)
N15 N 0.36820(10) 0.27833(16) 0.65641(12)
N16 N 0.37169(10) 0.22642(15) 0.98345(12)
O13 O 0.48340(10) 0.42122(14) 0.65651(11)
O14 O 0.40055(10) 0.42004(14) 0.57773(11)
O15 O 0.45898(11) 0.51615(17) 0.56974(14)
O16 O 0.42680(10) 0.52099(15) 0.65884(14)
Cu7C Cu 0.488013(15) 0.21459(3) 1.161558(18)
Cu8C Cu 0.375598(16) 0.20985(2) 1.072609(18)
N14C N 0.49365(10) 0.26670(16) 0.57778(12)
N16C N 0.37169(10) 0.27358(15) 0.48345(12)
O17 O 0.95658(12) 0.4935(2) 0.35636(19)
H65 H 0.9783(14) 0.518(3) 0.349(3)
H66 H 0.9411(17) 0.510(3) 0.378(2)
O18 O 0.44147(12) 0.5279(2) 1.01559(16)
H67 H 0.4542(17) 0.512(3) 0.990(2)
H68 H 0.4125(9) 0.541(3) 0.997(2)
O19 O 0.43610(15) 0.4540(4) 0.1314(3)
H69 H 0.4066(9) 0.456(4) 0.123(4)
H70 H 0.439(3) 0.465(5) 0.095(2)
O20 O 0.33706(11) 0.4532(2) 0.07621(14)
H71 H 0.3179 0.4786 0.0453
H72 H 0.3299 0.4089 0.0670
O21 O 0.04400(19) 0.4995(3) 0.9929(2)
H73 H 0.047(2) 0.503(5) 0.9583(16)
H74 H 0.0689(16) 0.485(4) 1.021(2)
O22 O 0.3500(2) 0.5030(3) 0.3152(3)
H75 H 0.333(2) 0.519(4) 0.336(3)
H76 H 0.331(2) 0.498(4) 0.2740(15)
O23 O 0.44029(12) 0.49758(19) 0.42918(18)
H77 H 0.4458 0.5031 0.4702
H78 H 0.4146 0.4989 0.3956
O24 O 0.06425(11) 0.50233(18) 0.20602(14)
H79 H 0.0855(13) 0.507(3) 0.189(2)
H80 H 0.0744(16) 0.502(3) 0.2470(10)
O25 O 0.19114(10) 0.49734(17) 0.31362(13)
H81 H 0.1695(12) 0.496(3) 0.330(2)
H82 H 0.1792(15) 0.496(3) 0.2717(10)
O26 O 0.30723(15) 0.4859(3) 0.4981(2)
H83 H 0.316(2) 0.5310(17) 0.496(3)
H84 H 0.3335(13) 0.463(3) 0.513(3)
O27 O 0.56720(15) 0.5041(3) 0.7365(2)
H85 H 0.570(2) 0.508(3) 0.6936(15)
H86 H 0.5396(13) 0.478(3) 0.716(2)
O28 O 0.03026(13) 0.9554(3) 0.3619(2)
H87 H 0.044(2) 0.972(3) 0.338(2)
H88 H 0.0016(10) 0.970(3) 0.347(3)
O29 O 0.21488(17) 0.5008(3) 0.5155(3)
H89 H 0.2433(10) 0.500(4) 0.518(4)
H90 H 0.1935(19) 0.520(4) 0.484(2)
O30 O 0.32677(12) 0.5274(2) 0.64128(17)
H91 H 0.3556(9) 0.517(3) 0.648(2)
H92 H 0.3109(16) 0.507(3) 0.6067(16)
O31 O 0.46708(14) 0.5428(3) 0.79427(16)
H93 H 0.457(2) 0.527(3) 0.7561(13)
H94 H 0.4952(10) 0.528(3) 0.810(3)
O32 O 0.19187(17) 0.4412(4) 0.6173(2)
H95 H 0.211(2) 0.451(5) 0.6551(18)
H96 H 0.200(3) 0.481(3) 0.601(4)
O33 O 0.09343(12) 0.4543(2) 0.56442(14)
H97 H 0.0826(17) 0.462(3) 0.5248(10)
H98 H 0.1200(10) 0.461(3) 0.589(2)
O34 O 0.27694(14) 0.4626(2) 0.72027(16)
H99 H 0.2965(16) 0.481(3) 0.703(3)
H100 H 0.2920(18) 0.469(3) 0.7602(11)
O35 O 0.43087(11) 0.47683(19) 0.88564(15)
H101 H 0.4016(8) 0.486(3) 0.874(2)
H102 H 0.4409(17) 0.496(3) 0.8582(19)
O36 O 0.28506(13) 0.9459(2) 0.87371(19)
H103 H 0.2560(10) 0.960(3) 0.851(2)
H104 H 0.3051(17) 0.966(3) 0.9065(19)
O37 O 0.17783(11) 0.49293(18) 0.85797(15)
H105 H 0.2019(12) 0.518(2) 0.855(2)
H106 H 0.1729(17) 0.505(3) 0.8933(15)
O38 O 0.08114(12) 0.5055(2) 0.78031(16)
H107 H 0.0653(13) 0.496(3) 0.7445(13)
H108 H 0.1097(7) 0.502(3) 0.793(2)
O39 O 0.14268(12) 0.5482(2) 0.95474(14)
H109 H 0.1543(16) 0.539(3) 0.9959(10)
H110 H 0.1123(7) 0.545(3) 0.941(2)
O40 O 0.30057(13) 0.5011(2) 0.1746(2)
H111 H 0.2926 0.5102 0.1343
H112 H 0.2778 0.4748 0.1790
loop_
_geom_bond_atom_site_label_1
_geom_bond_atom_site_label_2
_geom_bond_site_symmetry_1
_geom_bond_site_symmetry_2
Cu1 N1 1_555 1_555
Cu2 N3 1_555 1_555
Cu3 N5 1_555 1_555
Cu4 N7 1_555 1_555
Cu5 N9 1_555 1_555
Cu6 N11 1_555 1_555
Cu7 N13 1_555 1_555
Cu8 N15 1_555 1_555
S1 O1 1_555 1_555
S2 O5 1_555 1_555
S3 O9 1_555 1_555
S4 O13 1_555 1_555
C1 H1 1_555 1_555
C2 C1 1_555 1_555
H2 C2 1_555 1_555
C3 C2 1_555 1_555
C4 C3 1_555 1_555
H3 C4 1_555 1_555
C5 C4 1_555 1_555
H4 C5 1_555 1_555
C6 H5 1_555 1_555
C7 C6 1_555 1_555
H6 C7 1_555 1_555
C8 C3 1_555 1_555
C9 C8 1_555 1_555
H7 C9 1_555 1_555
C10 C9 1_555 1_555
H8 C10 1_555 1_555
C11 H9 1_555 1_555
C12 C11 1_555 1_555
H10 C12 1_555 1_555
C13 C12 1_555 1_555
C14 C13 1_555 1_555
H11 C14 1_555 1_555
C15 C14 1_555 1_555
H12 C15 1_555 1_555
C16 H13 1_555 1_555
C17 C16 1_555 1_555
H14 C17 1_555 1_555
C18 C13 1_555 1_555
C19 C18 1_555 1_555
H15 C19 1_555 1_555
C20 C19 1_555 1_555
H16 C20 1_555 1_555
C21 H17 1_555 1_555
C22 C21 1_555 1_555
H18 C22 1_555 1_555
C23 C22 1_555 1_555
C24 C23 1_555 1_555
H19 C24 1_555 1_555
C25 C24 1_555 1_555
H20 C25 1_555 1_555
C26 H21 1_555 1_555
C27 C26 1_555 1_555
H22 C27 1_555 1_555
C28 C23 1_555 1_555
C29 C28 1_555 1_555
H23 C29 1_555 1_555
C30 C29 1_555 1_555
H24 C30 1_555 1_555
C31 H25 1_555 1_555
C32 C31 1_555 1_555
H26 C32 1_555 1_555
C33 C32 1_555 1_555
C34 C33 1_555 1_555
H27 C34 1_555 1_555
C35 C34 1_555 1_555
H28 C35 1_555 1_555
C36 H29 1_555 1_555
C37 C36 1_555 1_555
H30 C37 1_555 1_555
C38 C33 1_555 1_555
C39 C38 1_555 1_555
H31 C39 1_555 1_555
C40 C39 1_555 1_555
H32 C40 1_555 1_555
C41 H33 1_555 1_555
C42 C41 1_555 1_555
H34 C42 1_555 1_555
C43 C42 1_555 1_555
C44 C43 1_555 1_555
H35 C44 1_555 1_555
C45 C44 1_555 1_555
H36 C45 1_555 1_555
C46 H37 1_555 1_555
C47 C46 1_555 1_555
H38 C47 1_555 1_555
C48 C43 1_555 1_555
C49 C48 1_555 1_555
H39 C49 1_555 1_555
C50 C49 1_555 1_555
H40 C50 1_555 1_555
C51 H41 1_555 1_555
C52 C51 1_555 1_555
H42 C52 1_555 1_555
C53 C52 1_555 1_555
C54 C53 1_555 1_555
H43 C54 1_555 1_555
C55 C54 1_555 1_555
H44 C55 1_555 1_555
C56 H45 1_555 1_555
C57 C56 1_555 1_555
H46 C57 1_555 1_555
C58 C53 1_555 1_555
C59 C58 1_555 1_555
H47 C59 1_555 1_555
C60 C59 1_555 1_555
H48 C60 1_555 1_555
C61 H49 1_555 1_555
C62 C61 1_555 1_555
H50 C62 1_555 1_555
C63 C62 1_555 1_555
C64 C63 1_555 1_555
H51 C64 1_555 1_555
C65 C64 1_555 1_555
H52 C65 1_555 1_555
C66 H53 1_555 1_555
C67 C66 1_555 1_555
H54 C67 1_555 1_555
C68 C63 1_555 1_555
C69 C68 1_555 1_555
H55 C69 1_555 1_555
C70 C69 1_555 1_555
H56 C70 1_555 1_555
C71 H57 1_555 1_555
C72 C71 1_555 1_555
H58 C72 1_555 1_555
C73 C72 1_555 1_555
C74 C73 1_555 1_555
H59 C74 1_555 1_555
C75 C74 1_555 1_555
H60 C75 1_555 1_555
C76 H61 1_555 1_555
C77 C76 1_555 1_555
H62 C77 1_555 1_555
C78 C73 1_555 1_555
C79 C78 1_555 1_555
H63 C79 1_555 1_555
C80 C79 1_555 1_555
H64 C80 1_555 1_555
N1 C1 1_555 1_555
N2 C6 1_555 1_555
N3 C11 1_555 1_555
N4 C16 1_555 1_555
N5 C21 1_555 1_555
N6 C26 1_555 1_555
N7 C31 1_555 1_555
N8 C36 1_555 1_555
N9 C41 1_555 1_555
N10 C46 1_555 1_555
N11 C51 1_555 1_555
N12 C56 1_555 1_555
N13 C61 1_555 1_555
N14 C66 1_555 1_555
N15 C71 1_555 1_555
N16 C76 1_555 1_555
O1 Cu1 1_555 1_555
O2 Cu2 1_555 1_555
O3 S1 1_555 1_555
O4 S1 1_555 1_555
O5 Cu4 1_555 1_555
O6 Cu3 1_555 1_555
O7 S2 1_555 1_555
O8 S2 1_555 1_555
O9 Cu6 1_555 1_555
O10 Cu5 1_555 1_555
O11 S3 1_555 1_555
O12 S3 1_555 1_555
O13 Cu7 1_555 1_555
O14 Cu8 1_555 1_555
O15 S4 1_555 1_555
O16 S4 1_555 1_555
O17 H65 1_555 1_555
H66 O17 1_555 1_555
O18 H67 1_555 1_555
H68 O18 1_555 1_555
O19 H69 1_555 1_555
H70 O19 1_555 1_555
O20 H71 1_555 1_555
H72 O20 1_555 1_555
O21 H73 1_555 1_555
H74 O21 1_555 1_555
O22 H75 1_555 1_555
H76 O22 1_555 1_555
O23 H77 1_555 1_555
H78 O23 1_555 1_555
O24 H79 1_555 1_555
H80 O24 1_555 1_555
O25 H81 1_555 1_555
H82 O25 1_555 1_555
O26 H83 1_555 1_555
H84 O26 1_555 1_555
O27 H85 1_555 1_555
H86 O27 1_555 1_555
O28 H87 1_555 1_555
H88 O28 1_555 1_555
O29 H89 1_555 1_555
H90 O29 1_555 1_555
O30 H91 1_555 1_555
H92 O30 1_555 1_555
O31 H93 1_555 1_555
H94 O31 1_555 1_555
O32 H95 1_555 1_555
H96 O32 1_555 1_555
O33 H97 1_555 1_555
H98 O33 1_555 1_555
O34 H99 1_555 1_555
H100 O34 1_555 1_555
O35 H101 1_555 1_555
H102 O35 1_555 1_555
O36 H103 1_555 1_555
H104 O36 1_555 1_555
O37 H105 1_555 1_555
H106 O37 1_555 1_555
O38 H107 1_555 1_555
H108 O38 1_555 1_555
O39 H109 1_555 1_555
H110 O39 1_555 1_555
O40 H111 1_555 1_555
H112 O40 1_555 1_555
Cu1C N2 1_555 1_555
Cu2C N4 1_555 1_555
Cu3C N6 1_555 1_555
Cu4C N8 1_555 1_555
Cu5C N10 1_555 1_555
Cu6C N12 1_555 1_555
Cu7C N14 1_555 1_555
Cu8C N16 1_555 1_555
N2C Cu1 1_555 1_555
N4C Cu2 1_555 1_555
N6C Cu3 1_555 1_555
N8C Cu4 1_555 1_555
N10C Cu5 1_555 1_555
N12C Cu6 1_555 1_555
N14C Cu7 1_555 1_555
N16C Cu8 1_555 1_555
S1 O2 1_555 1_555
S2 O6 1_555 1_555
S3 O10 1_555 1_555
S4 O14 1_555 1_555
C5 N1 1_555 1_555
C7 C8 1_555 1_555
C10 N2 1_555 1_555
C15 N3 1_555 1_555
C17 C18 1_555 1_555
C20 N4 1_555 1_555
C25 N5 1_555 1_555
C27 C28 1_555 1_555
C30 N6 1_555 1_555
C35 N7 1_555 1_555
C37 C38 1_555 1_555
C40 N8 1_555 1_555
C45 N9 1_555 1_555
C47 C48 1_555 1_555
C50 N10 1_555 1_555
C55 N11 1_555 1_555
C57 C58 1_555 1_555
C60 N12 1_555 1_555
C65 N13 1_555 1_555
C67 C68 1_555 1_555
C70 N14 1_555 1_555
C75 N15 1_555 1_555
C77 C78 1_555 1_555
C80 N16 1_555 1_555

#END
