
#######################################################################
#
#                 Cambridge Crystallographic Data Centre
#                                CCDC 
#
#######################################################################
#
# If this CIF has been generated from an entry in the Cambridge 
# Structural Database, then it will include bibliographic, chemical, 
# crystal, experimental, refinement or atomic coordinate data resulting 
# from the CCDC's data processing and validation procedures.
#
#######################################################################

data_SAZTUJ
_symmetry_cell_setting           monoclinic
_symmetry_space_group_name_H-M   'C 2/c'
_symmetry_Int_Tables_number      15
_space_group_name_Hall           '-C 2yn'
loop_
_symmetry_equiv_pos_site_id
_symmetry_equiv_pos_as_xyz
1 x,y,z
2 1/2+x,1/2+y,z
3 -x,y,1/2-z
4 1/2-x,1/2+y,1/2-z
5 -x,-y,-z
6 1/2-x,1/2-y,-z
7 x,-y,1/2+z
8 1/2+x,1/2-y,1/2+z
_cell_length_a                   11.6634(16)
_cell_length_b                   12.2495(16)
_cell_length_c                   9.3138(13)
_cell_angle_alpha                90
_cell_angle_beta                 95.387(3)
_cell_angle_gamma                90
_cell_volume                     1324.79
loop_
_atom_site_label
_atom_site_type_symbol
_atom_site_fract_x
_atom_site_fract_y
_atom_site_fract_z
Co1 Co 1.0000 0.37744(6) 0.2500
O1 O 0.9055(3) 0.5043(2) 0.3436(4)
N1 N 1.1035(3) 0.2557(3) 0.1714(4)
O2 O 0.9040(3) 0.5991(2) 0.5477(3)
C1 C 0.9449(4) 0.5302(3) 0.4679(5)
N2 N 1.2397(4) 0.1300(3) 0.1467(6)
H1 H 1.3088 0.1051 0.1495
C2 C 1.2081(4) 0.2247(4) 0.2068(6)
C3 C 1.0531(5) 0.1732(4) 0.0690(7)
H2 H 1.0433 0.2028 -0.0280
H3 H 0.9786 0.1496 0.0957
C4 C 1.2938(4) 0.2873(4) 0.3009(7)
H4 H 1.2582 0.3517 0.3352
H5 H 1.3567 0.3079 0.2470
H6 H 1.3222 0.2429 0.3814
C5 C 1.1383(5) 0.0776(5) 0.0773(8)
H7 H 1.1125 0.0180 0.1349
H8 H 1.1512 0.0507 -0.0178
Co1F Co 1.0000 0.62256(6) 0.7500
O1D O 1.0945(3) 0.4957(2) 0.6564(4)
O1B O 1.0945(3) 0.5043(2) 0.1564(4)
N1B N 0.8965(3) 0.2557(3) 0.3286(4)
O2D O 1.0960(3) 0.4009(2) 0.4523(3)
O2F O 0.9040(3) 0.4009(2) 0.0477(3)
C1D C 1.0551(4) 0.4698(3) 0.5321(5)
N2B N 0.7603(4) 0.1300(3) 0.3533(6)
H1B H 0.6912 0.1051 0.3505
C2B C 0.7919(4) 0.2247(4) 0.2932(6)
C3B C 0.9469(5) 0.1732(4) 0.4310(7)
H2B H 0.9567 0.2028 0.5280
H3B H 1.0214 0.1496 0.4043
C4B C 0.7062(4) 0.2873(4) 0.1991(7)
H4B H 0.7418 0.3517 0.1648
H5B H 0.6433 0.3079 0.2530
H6B H 0.6778 0.2429 0.1186
C5B C 0.8617(5) 0.0776(5) 0.4227(8)
H7B H 0.8875 0.0180 0.3651
H8B H 0.8488 0.0507 0.5178
loop_
_geom_bond_atom_site_label_1
_geom_bond_atom_site_label_2
_geom_bond_site_symmetry_1
_geom_bond_site_symmetry_2
Co1 O1 1_555 1_555
O1 C1 1_555 1_555
N1 Co1 1_555 1_555
O2 C1 1_555 1_555
C1 C1D 1_555 1_555
N2 H1 1_555 1_555
C2 N1 1_555 1_555
C3 N1 1_555 1_555
H2 C3 1_555 1_555
H3 C3 1_555 1_555
C4 C2 1_555 1_555
H4 C4 1_555 1_555
H5 C4 1_555 1_555
H6 C4 1_555 1_555
C5 N2 1_555 1_555
H7 C5 1_555 1_555
H8 C5 1_555 1_555
Co1F O2 1_555 1_555
O1D Co1F 1_555 1_555
O1B Co1 1_555 1_555
N1B Co1 1_555 1_555
O2D Co1 1_555 1_555
O2F Co1 1_555 1_555
C1D O1D 1_555 1_555
N2B H1B 1_555 1_555
C2B N1B 1_555 1_555
C3B N1B 1_555 1_555
H2B C3B 1_555 1_555
H3B C3B 1_555 1_555
C4B C2B 1_555 1_555
H4B C4B 1_555 1_555
H5B C4B 1_555 1_555
H6B C4B 1_555 1_555
C5B N2B 1_555 1_555
H7B C5B 1_555 1_555
H8B C5B 1_555 1_555
N2 C2 1_555 1_555
C3 C5 1_555 1_555
O2D C1D 1_555 1_555
N2B C2B 1_555 1_555
C3B C5B 1_555 1_555

#END
