
#######################################################################
#
#                 Cambridge Crystallographic Data Centre
#                                CCDC 
#
#######################################################################
#
# If this CIF has been generated from an entry in the Cambridge 
# Structural Database, then it will include bibliographic, chemical, 
# crystal, experimental, refinement or atomic coordinate data resulting 
# from the CCDC's data processing and validation procedures.
#
#######################################################################

data_SAZTIX
_symmetry_cell_setting           monoclinic
_symmetry_space_group_name_H-M   'P 21/c'
_symmetry_Int_Tables_number      14
_space_group_name_Hall           '-P 2ybc'
loop_
_symmetry_equiv_pos_site_id
_symmetry_equiv_pos_as_xyz
1 x,y,z
2 -x,1/2+y,1/2-z
3 -x,-y,-z
4 x,1/2-y,1/2+z
_cell_length_a                   10.9225(3)
_cell_length_b                   17.1588(5)
_cell_length_c                   14.3282(4)
_cell_angle_alpha                90
_cell_angle_beta                 110.252(5)
_cell_angle_gamma                90
_cell_volume                     2519.34
loop_
_atom_site_label
_atom_site_type_symbol
_atom_site_fract_x
_atom_site_fract_y
_atom_site_fract_z
Cu1 Cu 0.30958(5) 0.29702(3) 0.19103(5)
Cu2 Cu 0.12979(5) 0.29231(3) 0.32574(4)
S1 S 0.2276(6) 0.4731(3) 0.2844(13)
O1 O 0.2972(10) 0.4231(6) 0.2331(18)
O2 O 0.1405(11) 0.4251(6) 0.3219(15)
O3 O 0.3238(15) 0.5139(8) 0.3705(15)
O7 O 0.1553(4) 0.5323(2) 0.1988(4)
N1 N 0.4862(3) 0.2778(2) 0.2736(3)
C1 C 0.5350(4) 0.2067(3) 0.2989(4)
H1 H 0.4800 0.1643 0.2755
C2 C 0.6634(4) 0.1924(3) 0.3582(4)
H2 H 0.6927 0.1415 0.3731
C3 C 0.7479(4) 0.2544(2) 0.3950(3)
C4 C 0.6975(4) 0.3281(3) 0.3677(4)
H3 H 0.7507 0.3716 0.3895
C5 C 0.5688(4) 0.3376(3) 0.3081(4)
H4 H 0.5376 0.3880 0.2909
C6 C 0.8852(4) 0.2423(2) 0.4614(3)
C7 C 0.9645(4) 0.3045(3) 0.5084(4)
H5 H 0.9331 0.3553 0.4963
C8 C 1.0897(4) 0.2909(3) 0.5729(4)
H6 H 1.1409 0.3333 0.6036
N2 N 1.1411(3) 0.2189(2) 0.5935(3)
C9 C 1.0660(5) 0.1599(3) 0.5446(5)
H7 H 1.1009 0.1099 0.5553
C10 C 0.9405(4) 0.1688(3) 0.4796(4)
H8 H 0.8928 0.1255 0.4479
N3 N 0.2953(3) 0.2709(2) 0.4246(3)
C11 C 0.3430(4) 0.2000(2) 0.4500(4)
H9 H 0.2897 0.1574 0.4231
C12 C 0.4684(4) 0.1862(3) 0.5146(4)
H10 H 0.4972 0.1353 0.5306
C13 C 0.5514(3) 0.2481(2) 0.5557(3)
C14 C 0.4987(5) 0.3210(3) 0.5322(4)
H11 H 0.5486 0.3646 0.5600
C15 C 0.3731(5) 0.3302(3) 0.4681(5)
H12 H 0.3403 0.3806 0.4541
C16 C 0.6890(4) 0.2373(2) 0.6210(3)
C17 C 0.7672(4) 0.3004(2) 0.6657(3)
H13 H 0.7326 0.3505 0.6562
C18 C 0.8956(4) 0.2890(2) 0.7240(3)
H14 H 0.9455 0.3322 0.7534
N4 N 0.9523(3) 0.2187(2) 0.7406(3)
C19 C 0.8780(4) 0.1577(3) 0.6959(4)
H15 H 0.9157 0.1084 0.7052
C20 C 0.7487(4) 0.1646(3) 0.6369(4)
H16 H 0.7013 0.1205 0.6077
Cu1C Cu 1.30958(5) 0.20298(3) 0.69103(5)
Cu2C Cu 1.12979(5) 0.20769(3) 0.82574(4)
N2C N 0.1411(3) 0.2811(2) 0.0935(3)
N4C N -0.0477(3) 0.2813(2) 0.2406(3)
O8 O 0.7074(6) 0.0039(3) 0.4660(6)
O9 O 0.5976(5) 0.4978(3) 0.4263(6)
O10 O 0.2744(14) 0.0500(5) 0.2095(8)
O11 O 0.4513(9) 0.0080(6) 0.3892(9)
O12 O 0.0159(9) 0.5070(6) 0.6032(8)
O13 O 0.1109(4) 0.0471(3) 0.3549(5)
S2? S 0.2450(8) 0.4728(4) 0.2413(17)
O4? O 0.3138(16) 0.4306(9) 0.183(2)
O5? O 0.1644(17) 0.4173(11) 0.275(2)
O6? O 0.3418(19) 0.5087(12) 0.3315(19)
loop_
_geom_bond_atom_site_label_1
_geom_bond_atom_site_label_2
_geom_bond_site_symmetry_1
_geom_bond_site_symmetry_2
Cu1 O1 1_555 1_555
Cu2 O2 1_555 1_555
S1 O1 1_555 1_555
O2 S1 1_555 1_555
O3 S1 1_555 1_555
O7 S1 1_555 1_555
N1 Cu1 1_555 1_555
C1 N1 1_555 1_555
H1 C1 1_555 1_555
C2 C1 1_555 1_555
H2 C2 1_555 1_555
C3 C2 1_555 1_555
C4 C3 1_555 1_555
H3 C4 1_555 1_555
C5 N1 1_555 1_555
H4 C5 1_555 1_555
C6 C3 1_555 1_555
C7 C6 1_555 1_555
H5 C7 1_555 1_555
C8 C7 1_555 1_555
H6 C8 1_555 1_555
N2 C8 1_555 1_555
C9 N2 1_555 1_555
H7 C9 1_555 1_555
C10 C6 1_555 1_555
H8 C10 1_555 1_555
N3 Cu2 1_555 1_555
C11 N3 1_555 1_555
H9 C11 1_555 1_555
C12 C11 1_555 1_555
H10 C12 1_555 1_555
C13 C12 1_555 1_555
C14 C13 1_555 1_555
H11 C14 1_555 1_555
C15 N3 1_555 1_555
H12 C15 1_555 1_555
C16 C13 1_555 1_555
C17 C16 1_555 1_555
H13 C17 1_555 1_555
C18 C17 1_555 1_555
H14 C18 1_555 1_555
N4 C18 1_555 1_555
C19 N4 1_555 1_555
H15 C19 1_555 1_555
C20 C16 1_555 1_555
H16 C20 1_555 1_555
Cu1C N2 1_555 1_555
Cu2C N4 1_555 1_555
N2C Cu1 1_555 1_555
N4C Cu2 1_555 1_555
C4 C5 1_555 1_555
C9 C10 1_555 1_555
C14 C15 1_555 1_555
C19 C20 1_555 1_555

#END
