
#######################################################################
#
#                 Cambridge Crystallographic Data Centre
#                                CCDC 
#
#######################################################################
#
# If this CIF has been generated from an entry in the Cambridge 
# Structural Database, then it will include bibliographic, chemical, 
# crystal, experimental, refinement or atomic coordinate data resulting 
# from the CCDC's data processing and validation procedures.
#
#######################################################################

data_SAZWOG
_symmetry_cell_setting           monoclinic
_symmetry_space_group_name_H-M   'P 21/n'
_symmetry_Int_Tables_number      14
_space_group_name_Hall           '-P 2yn'
loop_
_symmetry_equiv_pos_site_id
_symmetry_equiv_pos_as_xyz
1 x,y,z
2 1/2-x,1/2+y,1/2-z
3 -x,-y,-z
4 1/2+x,1/2-y,1/2+z
_cell_length_a                   9.5095(11)
_cell_length_b                   16.7563(19)
_cell_length_c                   10.3604(12)
_cell_angle_alpha                90
_cell_angle_beta                 101.209(2)
_cell_angle_gamma                90
_cell_volume                     1619.38
loop_
_atom_site_label
_atom_site_type_symbol
_atom_site_fract_x
_atom_site_fract_y
_atom_site_fract_z
Cu1 Cu 0.36419(5) -0.04217(3) 0.45713(5)
Cu2 Cu -0.11509(5) -0.09053(3) 0.23545(5)
C1 C 0.3610(5) 0.1318(2) 0.4332(4)
C2 C 0.4212(5) 0.2056(2) 0.4716(4)
H1 H 0.5162 0.2079 0.5156
C3 C 0.3454(5) 0.2750(3) 0.4470(4)
H2 H 0.3892 0.3231 0.4759
C4 C 0.2047(5) 0.2749(3) 0.3798(5)
H3 H 0.1541 0.3224 0.3606
C5 C 0.1425(5) 0.2032(3) 0.3425(5)
H4 H 0.0479 0.2024 0.2973
C6 C 0.2150(5) 0.1302(2) 0.3692(4)
C7 C 0.1328(5) 0.0591(2) 0.3338(4)
H5 H 0.0412 0.0650 0.2834
C8 C 0.1459(5) -0.1416(3) 0.3845(4)
C9 C 0.0555(5) -0.2145(2) 0.3607(4)
C10 C 0.1051(5) -0.2887(3) 0.3995(4)
H6 H 0.1990 -0.2961 0.4439
C11 C 0.0126(6) -0.3529(3) 0.3714(5)
H7 H 0.0434 -0.4043 0.3963
C12 C -0.1251(6) -0.3395(3) 0.3063(5)
H8 H -0.1893 -0.3817 0.2867
C13 C -0.1672(5) -0.2631(3) 0.2703(4)
H9 H -0.2610 -0.2545 0.2266
N1 N 0.1755(3) -0.0116(2) 0.3661(3)
N2 N 0.0825(4) -0.07594(19) 0.3344(3)
N3 N -0.0799(4) -0.2008(2) 0.2952(3)
N4 N 0.3797(4) 0.0611(2) 0.7398(4)
O1 O 0.3261(3) 0.11011(18) 0.8117(3)
O2 O 0.5101(3) 0.0573(2) 0.7510(3)
O3 O 0.2950(3) 0.01911(19) 0.6609(3)
N5 N -0.1575(4) -0.0174(3) 0.0120(4)
O4 O -0.1424(3) 0.00815(17) 0.1320(3)
O5 O -0.1341(3) -0.0887(2) -0.0027(3)
O6 O -0.1947(4) 0.0290(2) -0.0778(3)
O7 O 0.4388(3) 0.06458(15) 0.4551(3)
O8 O 0.2727(3) -0.14607(16) 0.4514(3)
Cu1B Cu 0.63581(5) 0.04217(3) 0.54287(5)
Cu2B Cu 0.11509(5) 0.09053(3) 0.76455(5)
O1B O -0.3261(3) -0.11011(18) 0.1883(3)
O3B O -0.2950(3) -0.01911(19) 0.3391(3)
O7B O 0.5612(3) -0.06458(15) 0.5449(3)
loop_
_geom_bond_atom_site_label_1
_geom_bond_atom_site_label_2
_geom_bond_site_symmetry_1
_geom_bond_site_symmetry_2
Cu1 N1 1_555 1_555
Cu2 N2 1_555 1_555
C1 C2 1_555 1_555
C2 H1 1_555 1_555
C3 C2 1_555 1_555
H2 C3 1_555 1_555
C4 C3 1_555 1_555
H3 C4 1_555 1_555
C5 C4 1_555 1_555
H4 C5 1_555 1_555
C6 C1 1_555 1_555
C7 C6 1_555 1_555
H5 C7 1_555 1_555
C8 C9 1_555 1_555
C9 C10 1_555 1_555
C10 H6 1_555 1_555
C11 C10 1_555 1_555
H7 C11 1_555 1_555
C12 C11 1_555 1_555
H8 C12 1_555 1_555
C13 C12 1_555 1_555
H9 C13 1_555 1_555
N1 C7 1_555 1_555
N2 C8 1_555 1_555
N3 Cu2 1_555 1_555
N4 O1 1_555 1_555
O1 Cu2B 1_555 1_555
O2 N4 1_555 1_555
O3 Cu1 1_555 1_555
N5 O4 1_555 1_555
O4 Cu2 1_555 1_555
O5 Cu2 1_555 1_555
O6 N5 1_555 1_555
O7 Cu1 1_555 1_555
O8 Cu1 1_555 1_555
Cu1B O7 1_555 1_555
Cu2B O3 1_555 1_555
O1B Cu2 1_555 1_555
O3B Cu2 1_555 1_555
O7B Cu1 1_555 1_555
C1 O7 1_555 1_555
C5 C6 1_555 1_555
C8 O8 1_555 1_555
C9 N3 1_555 1_555
C13 N3 1_555 1_555
N1 N2 1_555 1_555
N4 O3 1_555 1_555
N5 O5 1_555 1_555
Cu1B O7B 1_555 1_555

#END
