
#######################################################################
#
#                 Cambridge Crystallographic Data Centre
#                                CCDC 
#
#######################################################################
#
# If this CIF has been generated from an entry in the Cambridge 
# Structural Database, then it will include bibliographic, chemical, 
# crystal, experimental, refinement or atomic coordinate data resulting 
# from the CCDC's data processing and validation procedures.
#
#######################################################################

data_SAZXAT
_symmetry_cell_setting           monoclinic
_symmetry_space_group_name_H-M   'P 21/c'
_symmetry_Int_Tables_number      14
_space_group_name_Hall           '-P 2ybc'
loop_
_symmetry_equiv_pos_site_id
_symmetry_equiv_pos_as_xyz
1 x,y,z
2 -x,1/2+y,1/2-z
3 -x,-y,-z
4 x,1/2-y,1/2+z
_cell_length_a                   11.1196(15)
_cell_length_b                   12.7695(17)
_cell_length_c                   14.711(2)
_cell_angle_alpha                90
_cell_angle_beta                 103.001(2)
_cell_angle_gamma                90
_cell_volume                     2035.3
loop_
_atom_site_label
_atom_site_type_symbol
_atom_site_fract_x
_atom_site_fract_y
_atom_site_fract_z
Cd1 Cd 0.5000 0.5000 0.0000
S1 S 0.24343(10) 0.44849(11) 0.22108(8)
N1 N 0.1475(2) -0.17964(19) 0.05283(16)
N2 N -0.1492(2) -0.0567(2) -0.28581(16)
N3 N 0.4583(2) 0.16202(19) 0.06168(16)
C1 C 0.3802(3) 0.0719(2) 0.06063(19)
C2 C 0.0895(2) -0.0644(2) -0.06723(18)
C3 C 0.2756(3) 0.0607(2) -0.00910(19)
H1 H 0.2555 0.1096 -0.0570
C4 C 0.2331(3) -0.0997(2) 0.06623(19)
C5 C 0.2005(3) -0.0258(2) -0.00596(19)
N4 N 0.5156(2) 0.3237(2) 0.0397(2)
C6 C 0.0169(3) -0.0286(2) -0.1507(2)
H2 H 0.0350 0.0344 -0.1764
C7 C -0.0819(3) -0.0877(2) -0.19462(19)
C8 C -0.2718(3) -0.0619(3) -0.3219(2)
H3 H -0.3289 -0.0857 -0.2891
C9 C 0.0595(3) -0.1592(2) -0.02818(19)
C10 C -0.1129(3) -0.1807(3) -0.1559(2)
H4 H -0.1813 -0.2186 -0.1868
C11 C 0.6163(3) 0.2659(3) 0.0806(2)
H5 H 0.6967 0.2912 0.0965
C12 C 0.3411(3) -0.0882(3) 0.1350(2)
H6 H 0.3635 -0.1378 0.1821
N5 N -0.3011(2) -0.0295(2) -0.40877(18)
C13 C 0.5831(3) 0.1673(3) 0.0949(2)
H7 H 0.6348 0.1132 0.1220
C14 C -0.0976(3) -0.0182(3) -0.3549(2)
H8 H -0.0144 -0.0050 -0.3511
C15 C 0.3426(3) 0.4939(3) 0.1663(2)
C16 C -0.0428(3) -0.2175(2) -0.0717(2)
H9 H -0.0637 -0.2791 -0.0453
C17 C 0.4226(3) 0.2581(3) 0.0300(2)
H10 H 0.3411 0.2762 0.0041
C18 C 0.4133(3) -0.0023(2) 0.1316(2)
H11 H 0.4854 0.0069 0.1772
N6 N 0.4130(3) 0.5299(3) 0.1290(2)
C19 C -0.1921(3) -0.0029(3) -0.4302(2)
H12 H -0.1836 0.0221 -0.4879
C20 C 0.1525(3) -0.2700(2) 0.1141(2)
H13 H 0.1042 -0.3263 0.0797
H14 H 0.2373 -0.2938 0.1329
C21 C 0.1052(4) -0.2470(3) 0.1992(3)
H15 H 0.0182 -0.2335 0.1815
H16 H 0.1203 -0.3061 0.2405
H17 H 0.1469 -0.1866 0.2302
Cd1C Cd -0.5000 0.0000 -0.5000
Cd1C_2 Cd 1.5000 1.0000 0.5000
S1B S 0.75657(10) 0.55151(11) -0.22108(8)
N1B N 0.8525(2) 1.17964(19) -0.05283(16)
N2B N 1.1492(2) 1.0567(2) 0.28581(16)
N3B N 0.5417(2) 0.83798(19) -0.06168(16)
C1B C 0.6198(3) 0.9281(2) -0.06063(19)
C2B C 0.9105(2) 1.0644(2) 0.06723(18)
C3B C 0.7244(3) 0.9393(2) 0.00910(19)
H1B H 0.7445 0.8904 0.0570
C4B C 0.7669(3) 1.0997(2) -0.06623(19)
C5B C 0.7995(3) 1.0258(2) 0.00596(19)
N4B N 0.4844(2) 0.6763(2) -0.0397(2)
C6B C 0.9831(3) 1.0286(2) 0.1507(2)
H2B H 0.9650 0.9656 0.1764
C7B C 1.0819(3) 1.0877(2) 0.19462(19)
C8B C 1.2718(3) 1.0619(3) 0.3219(2)
H3B H 1.3289 1.0857 0.2891
C9B C 0.9405(3) 1.1592(2) 0.02818(19)
C10B C 1.1129(3) 1.1807(3) 0.1559(2)
H4B H 1.1813 1.2186 0.1868
C11B C 0.3837(3) 0.7341(3) -0.0806(2)
H5B H 0.3033 0.7088 -0.0965
C12B C 0.6589(3) 1.0882(3) -0.1350(2)
H6B H 0.6365 1.1378 -0.1821
N5B N 1.3011(2) 1.0295(2) 0.40877(18)
N5C N 0.6989(2) 0.5295(2) 0.09123(18)
N5A N 0.3011(2) 0.4705(2) -0.09123(18)
C13B C 0.4169(3) 0.8327(3) -0.0949(2)
H7B H 0.3652 0.8868 -0.1220
C14B C 1.0976(3) 1.0182(3) 0.3549(2)
H8B H 1.0144 1.0050 0.3511
C15B C 0.6574(3) 0.5061(3) -0.1663(2)
C16B C 1.0428(3) 1.2175(2) 0.0717(2)
H9B H 1.0637 1.2791 0.0453
C17B C 0.5774(3) 0.7419(3) -0.0300(2)
H10B H 0.6589 0.7238 -0.0041
C18B C 0.5867(3) 1.0023(2) -0.1316(2)
H11B H 0.5146 0.9931 -0.1772
N6B N 0.5870(3) 0.4701(3) -0.1290(2)
C19B C 1.1921(3) 1.0029(3) 0.4302(2)
H12B H 1.1836 0.9779 0.4879
C20B C 0.8475(3) 1.2700(2) -0.1141(2)
H13B H 0.8958 1.3263 -0.0797
H14B H 0.7627 1.2938 -0.1329
C21B C 0.8948(4) 1.2470(3) -0.1992(3)
H15B H 0.9818 1.2335 -0.1815
H16B H 0.8797 1.3061 -0.2405
H17B H 0.8531 1.1866 -0.2302
loop_
_geom_bond_atom_site_label_1
_geom_bond_atom_site_label_2
_geom_bond_site_symmetry_1
_geom_bond_site_symmetry_2
Cd1 N4 1_555 1_555
S1 C15 1_555 1_555
N1 C4 1_555 1_555
N2 C7 1_555 1_555
N3 C1 1_555 1_555
C1 C3 1_555 1_555
C2 C5 1_555 1_555
C3 H1 1_555 1_555
C4 C5 1_555 1_555
C5 C3 1_555 1_555
N4 C11 1_555 1_555
C6 C2 1_555 1_555
H2 C6 1_555 1_555
C7 C6 1_555 1_555
C8 N2 1_555 1_555
H3 C8 1_555 1_555
C9 N1 1_555 1_555
C10 C7 1_555 1_555
H4 C10 1_555 1_555
C11 H5 1_555 1_555
C12 C4 1_555 1_555
H6 C12 1_555 1_555
N5 C8 1_555 1_555
C13 N3 1_555 1_555
H7 C13 1_555 1_555
C14 N2 1_555 1_555
H8 C14 1_555 1_555
C15 N6 1_555 1_555
C16 C9 1_555 1_555
H9 C16 1_555 1_555
C17 N3 1_555 1_555
H10 C17 1_555 1_555
C18 C1 1_555 1_555
H11 C18 1_555 1_555
N6 Cd1 1_555 1_555
C19 N5 1_555 1_555
H12 C19 1_555 1_555
C20 N1 1_555 1_555
H13 C20 1_555 1_555
H14 C20 1_555 1_555
C21 C20 1_555 1_555
H15 C21 1_555 1_555
H16 C21 1_555 1_555
H17 C21 1_555 1_555
Cd1C N5 1_555 1_555
Cd1C_2 N5B 1_555 1_555
S1B C15B 1_555 1_555
N1B C4B 1_555 1_555
N2B C7B 1_555 1_555
N3B C1B 1_555 1_555
C1B C3B 1_555 1_555
C2B C5B 1_555 1_555
C3B H1B 1_555 1_555
C4B C5B 1_555 1_555
C5B C3B 1_555 1_555
N4B Cd1 1_555 1_555
C6B C2B 1_555 1_555
H2B C6B 1_555 1_555
C7B C6B 1_555 1_555
C8B N2B 1_555 1_555
H3B C8B 1_555 1_555
C9B N1B 1_555 1_555
C10B C7B 1_555 1_555
H4B C10B 1_555 1_555
C11B N4B 1_555 1_555
H5B C11B 1_555 1_555
C12B C4B 1_555 1_555
H6B C12B 1_555 1_555
N5B C8B 1_555 1_555
N5C Cd1 1_555 1_555
N5A Cd1 1_555 1_555
C13B N3B 1_555 1_555
H7B C13B 1_555 1_555
C14B N2B 1_555 1_555
H8B C14B 1_555 1_555
C15B N6B 1_555 1_555
C16B C9B 1_555 1_555
H9B C16B 1_555 1_555
C17B N3B 1_555 1_555
H10B C17B 1_555 1_555
C18B C1B 1_555 1_555
H11B C18B 1_555 1_555
N6B Cd1 1_555 1_555
C19B N5B 1_555 1_555
H12B C19B 1_555 1_555
C20B N1B 1_555 1_555
H13B C20B 1_555 1_555
H14B C20B 1_555 1_555
C21B C20B 1_555 1_555
H15B C21B 1_555 1_555
H16B C21B 1_555 1_555
H17B C21B 1_555 1_555
C2 C9 1_555 1_555
N4 C17 1_555 1_555
C10 C16 1_555 1_555
C11 C13 1_555 1_555
C12 C18 1_555 1_555
C14 C19 1_555 1_555
C2B C9B 1_555 1_555
N4B C17B 1_555 1_555
C10B C16B 1_555 1_555
C11B C13B 1_555 1_555
C12B C18B 1_555 1_555
C14B C19B 1_555 1_555

#END
