
#######################################################################
#
#                 Cambridge Crystallographic Data Centre
#                                CCDC 
#
#######################################################################
#
# If this CIF has been generated from an entry in the Cambridge 
# Structural Database, then it will include bibliographic, chemical, 
# crystal, experimental, refinement or atomic coordinate data resulting 
# from the CCDC's data processing and validation procedures.
#
#######################################################################

data_SEBMOB
_symmetry_cell_setting           monoclinic
_symmetry_space_group_name_H-M   'P 21'
_symmetry_Int_Tables_number      4
_space_group_name_Hall           'P 2yb'
loop_
_symmetry_equiv_pos_site_id
_symmetry_equiv_pos_as_xyz
1 x,y,z
2 -x,1/2+y,-z
_cell_length_a                   6.417(1)
_cell_length_b                   5.123(1)
_cell_length_c                   10.133(1)
_cell_angle_alpha                90
_cell_angle_beta                 98.19(1)
_cell_angle_gamma                90
_cell_volume                     329.718
loop_
_atom_site_label
_atom_site_type_symbol
_atom_site_fract_x
_atom_site_fract_y
_atom_site_fract_z
Li1 Li 0.0010(4) -0.7148(7) 0.4092(3)
O1 O 0.1053(2) -0.3499(3) 0.434(1)
O2 O 0.2006(2) 0.0322(4) 0.3535(1)
O3 O 0.7839(2) -0.7323(4) 0.2555(1)
O4 O 0.4995(2) -0.70330 0.1043(1)
N1 N 0.2863(2) -0.1910(4) 0.1280(1)
C1 C 0.1885(2) -0.2108(4) 0.3535(2)
C2 C 0.2895(3) -0.3601(4) 0.2476(2)
C3 C 0.5130(3) -0.4440(4) 0.3025(2)
C4 C 0.6067(2) -0.6390(4) 0.2141(2)
H1 H 0.3564 -0.2487 0.0617
H2 H 0.1527 -0.1571 0.0920
H3 H 0.3370 -0.0454 0.1420
H4 H 0.2052 -0.5117 0.2240
H5 H 0.5973 -0.2981 0.3179
H6 H 0.5222 -0.5207 0.3992
O1A O -0.1053(2) -0.8499(3) 0.566(1)
Li1A Li -0.0010(4) -0.2148(7) 0.5908(3)
O2_2 O 0.2006(2) -0.9678(4) 0.3535(1)
Li1_2 Li 0.0010(4) 0.2852(7) 0.4092(3)
O3_2 O -0.2161(2) -0.7323(4) 0.2555(1)
Li1_3 Li 1.0010(4) -0.7148(7) 0.4092(3)
O5 O 0.8614(2) -0.1305(4) 0.0868(1)
H7 H 0.8272 -0.0056 0.1420
H8 H 0.7383 -0.1580 0.0222
loop_
_geom_bond_atom_site_label_1
_geom_bond_atom_site_label_2
_geom_bond_site_symmetry_1
_geom_bond_site_symmetry_2
Li1 O1 1_555 1_555
O1 C1 1_555 1_555
O2 C1 1_555 1_555
O3 C4 1_555 1_555
O4 C4 1_555 1_555
N1 C2 1_555 1_555
C1 C2 1_555 1_555
C2 C3 1_555 1_555
C3 C4 1_555 1_555
H1 N1 1_555 1_555
H2 N1 1_555 1_555
H3 N1 1_555 1_555
H4 C2 1_555 1_555
H5 C3 1_555 1_555
H6 C3 1_555 1_555
O5 H7 1_555 1_555
H8 O5 1_555 1_555
O1A Li1 1_555 1_555
Li1A O1 1_555 1_555
O2_2 Li1 1_555 1_555
Li1_2 O2 1_555 1_555
O3_2 Li1 1_555 1_555
Li1_3 O3 1_555 1_555

#END
