
#######################################################################
#
#                 Cambridge Crystallographic Data Centre
#                                CCDC 
#
#######################################################################
#
# If this CIF has been generated from an entry in the Cambridge 
# Structural Database, then it will include bibliographic, chemical, 
# crystal, experimental, refinement or atomic coordinate data resulting 
# from the CCDC's data processing and validation procedures.
#
#######################################################################

data_SEBMES01
_symmetry_cell_setting           monoclinic
_symmetry_space_group_name_H-M   'P 21/n'
_symmetry_Int_Tables_number      14
_space_group_name_Hall           '-P 2yn'
loop_
_symmetry_equiv_pos_site_id
_symmetry_equiv_pos_as_xyz
1 x,y,z
2 1/2-x,1/2+y,1/2-z
3 -x,-y,-z
4 1/2+x,1/2-y,1/2+z
_cell_length_a                   14.3217(11)
_cell_length_b                   12.3166(9)
_cell_length_c                   15.7597(13)
_cell_angle_alpha                90
_cell_angle_beta                 94.641(7)
_cell_angle_gamma                90
_cell_volume                     2770.81
loop_
_atom_site_label
_atom_site_type_symbol
_atom_site_fract_x
_atom_site_fract_y
_atom_site_fract_z
S1 S -0.14628(4) 0.49998(5) 0.36432(4)
N1 N -0.36949(11) 0.10130(14) 0.35557(11)
N2 N -0.25972(12) 0.32559(14) 0.30484(11)
C1 C -0.43911(14) 0.18141(17) 0.37899(14)
H1 H -0.4889 0.1859 0.3345
H2 H -0.4097 0.2512 0.3867
H3 H -0.4642 0.1595 0.4310
C2 C -0.41683(15) -0.00559(17) 0.34561(14)
H4 H -0.3726 -0.0593 0.3304
H5 H -0.4672 -0.0009 0.3017
H6 H -0.4413 -0.0257 0.3983
C3 C -0.21268(15) 0.39781(17) 0.32763(13)
H7 H -0.5031(12) 0.1472(15) -0.0767(12)
H8 H -0.0453(12) 0.0674(15) 0.3713(12)
Cd1 Cd -0.286910(10) 0.160420(13) 0.238690(10)
Cd2 Cd -0.239520(11) 0.203770(13) 0.032270(11)
S2 S -0.18543(4) 0.48753(5) -0.17173(4)
O1 O -0.16239(9) 0.17361(11) 0.15658(8)
O2 O -0.34602(9) 0.25347(11) 0.12147(8)
N3 N -0.36916(12) 0.15195(14) -0.04702(11)
N4 N -0.17183(12) 0.08101(14) 0.32530(11)
C4 C -0.07140(14) 0.18190(16) 0.17942(14)
N5 N -0.18588(12) 0.05640(14) -0.04662(11)
C5 C -0.49090(14) 0.23420(17) 0.03294(13)
C6 C -0.29331(14) 0.09498(17) 0.42437(13)
H9 H -0.3172 0.0616 0.4740
H10 H -0.2731 0.1679 0.4400
C7 C -0.20950(14) 0.03031(17) 0.39919(14)
H11 H -0.1616 0.0282 0.4464
H12 H -0.2284 -0.0437 0.3855
C8 C -0.57941(15) 0.34575(18) 0.15802(14)
H13 H -0.6083 0.3841 0.1995
C9 C 0.08338(15) 0.23996(17) 0.14560(15)
H14 H 0.1211 0.2739 0.1082
C10 C 0.06604(14) 0.15133(18) 0.27689(15)
H15 H 0.0928 0.1240 0.3282
C11 C -0.43732(15) 0.27093(16) 0.10674(13)
N6 N -0.18775(13) 0.34005(16) -0.03831(12)
C12 C -0.03155(14) 0.14230(17) 0.25863(14)
C13 C -0.13164(14) -0.01974(17) 0.00962(14)
H16 H -0.1699 -0.0455 0.0527
H17 H -0.0776 0.0166 0.0361
H18 H -0.1120 -0.0801 -0.0232
C14 C -0.45449(16) 0.17314(18) -0.03627(14)
C15 C -0.48464(14) 0.32743(17) 0.16801(13)
H19 H -0.4507 0.3531 0.2167
C16 C -0.34574(15) 0.08319(18) -0.11812(14)
H20 H -0.3226 0.1276 -0.1627
H21 H -0.4012 0.0450 -0.1416
C17 C -0.08364(17) 0.09249(18) 0.32449(16)
C18 C -0.58823(14) 0.25318(18) 0.02601(14)
H22 H -0.6239 0.2276 -0.0218
C19 C -0.18825(14) 0.40075(18) -0.09431(15)
C20 C 0.12303(15) 0.19902(18) 0.22174(16)
H23 H 0.1873 0.2037 0.2354
C21 C -0.27128(14) 0.00234(17) -0.08593(14)
H24 H -0.2967 -0.0449 -0.0442
H25 H -0.2545 -0.0424 -0.1330
C22 C -0.01189(14) 0.23087(16) 0.12442(14)
H26 H -0.0370 0.2579 0.0724
C23 C -0.63234(15) 0.30789(18) 0.08706(14)
H27 H -0.6967 0.3193 0.0808
C24 C -0.12628(15) 0.09515(18) -0.11237(14)
H28 H -0.1611 0.1451 -0.1494
H29 H -0.1068 0.0345 -0.1449
H30 H -0.0721 0.1310 -0.0856
S1A S -0.35372(4) -0.00002(5) 0.13568(4)
Cd1A Cd -0.213090(10) 0.660420(13) 0.261310(10)
loop_
_geom_bond_atom_site_label_1
_geom_bond_atom_site_label_2
_geom_bond_site_symmetry_1
_geom_bond_site_symmetry_2
S1 C3 1_555 1_555
N1 C1 1_555 1_555
N2 C3 1_555 1_555
C1 H1 1_555 1_555
H2 C1 1_555 1_555
H3 C1 1_555 1_555
C2 N1 1_555 1_555
H4 C2 1_555 1_555
H5 C2 1_555 1_555
H6 C2 1_555 1_555
H7 C14 1_555 1_555
H8 C17 1_555 1_555
Cd1 N1 1_555 1_555
Cd2 O1 1_555 1_555
S2 C19 1_555 1_555
O1 Cd1 1_555 1_555
O2 Cd1 1_555 1_555
N3 Cd2 1_555 1_555
N4 Cd1 1_555 1_555
C4 O1 1_555 1_555
N5 Cd2 1_555 1_555
C5 C11 1_555 1_555
C6 N1 1_555 1_555
H9 C6 1_555 1_555
H10 C6 1_555 1_555
C7 N4 1_555 1_555
H11 C7 1_555 1_555
H12 C7 1_555 1_555
C8 H13 1_555 1_555
C9 H14 1_555 1_555
C10 H15 1_555 1_555
C11 O2 1_555 1_555
N6 Cd2 1_555 1_555
C12 C4 1_555 1_555
C13 N5 1_555 1_555
H16 C13 1_555 1_555
H17 C13 1_555 1_555
H18 C13 1_555 1_555
C14 N3 1_555 1_555
C15 C8 1_555 1_555
H19 C15 1_555 1_555
C16 N3 1_555 1_555
H20 C16 1_555 1_555
H21 C16 1_555 1_555
C17 N4 1_555 1_555
C18 C5 1_555 1_555
H22 C18 1_555 1_555
C19 N6 1_555 1_555
C20 C9 1_555 1_555
H23 C20 1_555 1_555
C21 N5 1_555 1_555
H24 C21 1_555 1_555
H25 C21 1_555 1_555
C22 C4 1_555 1_555
H26 C22 1_555 1_555
C23 C8 1_555 1_555
H27 C23 1_555 1_555
C24 N5 1_555 1_555
H28 C24 1_555 1_555
H29 C24 1_555 1_555
H30 C24 1_555 1_555
S1A Cd1 1_555 1_555
Cd1A S1 1_555 1_555
N2 Cd1 1_555 1_555
Cd2 O2 1_555 1_555
C5 C14 1_555 1_555
C6 C7 1_555 1_555
C9 C22 1_555 1_555
C10 C12 1_555 1_555
C10 C20 1_555 1_555
C11 C15 1_555 1_555
C12 C17 1_555 1_555
C16 C21 1_555 1_555
C18 C23 1_555 1_555

#END
