
#######################################################################
#
#                 Cambridge Crystallographic Data Centre
#                                CCDC 
#
#######################################################################
#
# If this CIF has been generated from an entry in the Cambridge 
# Structural Database, then it will include bibliographic, chemical, 
# crystal, experimental, refinement or atomic coordinate data resulting 
# from the CCDC's data processing and validation procedures.
#
#######################################################################

data_SEBMES
_symmetry_cell_setting           monoclinic
_symmetry_space_group_name_H-M   'P 21/n'
_symmetry_Int_Tables_number      14
_space_group_name_Hall           '-P 2yn'
loop_
_symmetry_equiv_pos_site_id
_symmetry_equiv_pos_as_xyz
1 x,y,z
2 1/2-x,1/2+y,1/2-z
3 -x,-y,-z
4 1/2+x,1/2-y,1/2+z
_cell_length_a                   14.6241(12)
_cell_length_b                   12.4188(11)
_cell_length_c                   15.9058(13)
_cell_angle_alpha                90.00
_cell_angle_beta                 94.2790(10)
_cell_angle_gamma                90.00
_cell_volume                     2880.66
loop_
_atom_site_label
_atom_site_type_symbol
_atom_site_fract_x
_atom_site_fract_y
_atom_site_fract_z
Cd1 Cd 0.788746(19) 0.66269(2) 0.263338(16)
Cd2 Cd 0.74270(2) 0.70092(2) 0.469222(17)
S1 S 0.85029(8) 0.49653(8) 0.36370(7)
S2 S 0.68964(13) 0.98655(16) 0.66576(11)
O1 O 0.66682(18) 0.6733(2) 0.34581(17)
O2 O 0.84805(18) 0.7491(2) 0.38091(15)
N1 N 0.6777(2) 0.5806(3) 0.17864(19)
N2 N 0.8699(2) 0.6043(3) 0.1467(2)
N3 N 0.7397(3) 0.3278(3) 0.3007(2)
N4 N 0.8697(3) 0.6471(3) 0.5470(2)
N5 N 0.6881(3) 0.5576(3) 0.5501(2)
N6 N 0.6934(4) 0.8389(3) 0.5385(3)
C1 C 0.5403(3) 0.6417(3) 0.2434(3)
C2 C 0.5787(3) 0.6822(3) 0.3222(3)
C3 C 0.5188(3) 0.7328(4) 0.3751(3)
H1 H 0.5425 0.7606 0.4265
C4 C 0.4273(4) 0.7424(4) 0.3536(4)
H2 H 0.3902 0.7773 0.3901
C5 C 0.3888(4) 0.7017(5) 0.2791(4)
H3 H 0.3261 0.7072 0.2652
C6 C 0.4452(3) 0.6526(4) 0.2255(4)
H4 H 0.4192 0.6251 0.1748
C7 C 0.5916(3) 0.5915(4) 0.1801(3)
H5 H 0.5567 0.5632 0.1341
C8 C 0.7153(3) 0.5298(4) 0.1060(3)
H6 H 0.6683 0.5251 0.0598
H7 H 0.7356 0.4574 0.1207
C9 C 0.7958(3) 0.5959(4) 0.0791(3)
H8 H 0.8196 0.5628 0.0300
H9 H 0.7745 0.6676 0.0632
C10 C 0.9362(4) 0.6858(5) 0.1217(4)
H10 H 0.9565 0.6674 0.0675
H11 H 0.9879 0.6876 0.1626
H12 H 0.9073 0.7552 0.1187
C11 C 0.9186(4) 0.5000(5) 0.1565(4)
H13 H 0.9443 0.4817 0.1046
H14 H 0.8762 0.4450 0.1706
H15 H 0.9668 0.5057 0.2007
C12 C 0.7859(3) 0.3975(3) 0.3253(2)
C13 C 0.9889(3) 0.7290(3) 0.4696(2)
C14 C 0.9372(3) 0.7658(3) 0.3956(2)
C15 C 0.9839(3) 0.8217(3) 0.3361(3)
H16 H 0.9512 0.8469 0.2877
C16 C 1.0767(4) 0.8409(4) 0.3463(3)
H17 H 1.1055 0.8791 0.3055
C17 C 1.1272(4) 0.8031(5) 0.4175(3)
H18 H 1.1901 0.8148 0.4247
C18 C 1.0830(3) 0.7489(4) 0.4762(3)
H19 H 1.1174 0.7234 0.5236
C19 C 0.9522(3) 0.6688(4) 0.5375(3)
H20 H 0.9949 0.6430 0.5790
C20 C 0.8465(4) 0.5793(4) 0.6179(3)
H21 H 0.8270 0.6241 0.6633
H22 H 0.8999 0.5386 0.6392
C21 C 0.7703(4) 0.5032(4) 0.5885(3)
H23 H 0.7930 0.4538 0.5476
H24 H 0.7532 0.4610 0.6362
C22 C 0.6288(5) 0.5964(5) 0.6146(4)
H25 H 0.5796 0.6383 0.5881
H26 H 0.6641 0.6402 0.6548
H27 H 0.6040 0.5360 0.6429
C23 C 0.6355(4) 0.4803(4) 0.4964(4)
H28 H 0.6117 0.4250 0.5308
H29 H 0.6747 0.4485 0.4575
H30 H 0.5857 0.5168 0.4657
C24 C 0.6932(3) 0.8984(4) 0.5922(3)
Cd1A Cd 0.711254(19) 0.16269(2) 0.236662(16)
N3A N 0.7603(3) 0.8278(3) 0.1993(2)
loop_
_geom_bond_atom_site_label_1
_geom_bond_atom_site_label_2
_geom_bond_site_symmetry_1
_geom_bond_site_symmetry_2
Cd1 S1 1_555 1_555
Cd2 O1 1_555 1_555
S1 C12 1_555 1_555
S2 C24 1_555 1_555
O1 Cd1 1_555 1_555
O2 Cd1 1_555 1_555
N1 Cd1 1_555 1_555
N2 Cd1 1_555 1_555
N3 C12 1_555 1_555
N4 Cd2 1_555 1_555
N5 Cd2 1_555 1_555
N6 Cd2 1_555 1_555
C1 C2 1_555 1_555
C2 O1 1_555 1_555
C3 C2 1_555 1_555
H1 C3 1_555 1_555
C4 C3 1_555 1_555
H2 C4 1_555 1_555
C5 C4 1_555 1_555
H3 C5 1_555 1_555
C6 C1 1_555 1_555
H4 C6 1_555 1_555
C7 N1 1_555 1_555
H5 C7 1_555 1_555
C8 N1 1_555 1_555
H6 C8 1_555 1_555
H7 C8 1_555 1_555
C9 N2 1_555 1_555
H8 C9 1_555 1_555
H9 C9 1_555 1_555
C10 N2 1_555 1_555
H10 C10 1_555 1_555
H11 C10 1_555 1_555
H12 C10 1_555 1_555
C11 N2 1_555 1_555
H13 C11 1_555 1_555
H14 C11 1_555 1_555
H15 C11 1_555 1_555
C13 C14 1_555 1_555
C14 O2 1_555 1_555
C15 C14 1_555 1_555
H16 C15 1_555 1_555
C16 C15 1_555 1_555
H17 C16 1_555 1_555
C17 C16 1_555 1_555
H18 C17 1_555 1_555
C18 C13 1_555 1_555
H19 C18 1_555 1_555
C19 N4 1_555 1_555
H20 C19 1_555 1_555
C20 N4 1_555 1_555
H21 C20 1_555 1_555
H22 C20 1_555 1_555
C21 N5 1_555 1_555
H23 C21 1_555 1_555
H24 C21 1_555 1_555
C22 N5 1_555 1_555
H25 C22 1_555 1_555
H26 C22 1_555 1_555
H27 C22 1_555 1_555
C23 N5 1_555 1_555
H28 C23 1_555 1_555
H29 C23 1_555 1_555
H30 C23 1_555 1_555
C24 N6 1_555 1_555
Cd1A N3 1_555 1_555
N3A Cd1 1_555 1_555
Cd2 O2 1_555 1_555
C1 C7 1_555 1_555
C5 C6 1_555 1_555
C8 C9 1_555 1_555
C13 C19 1_555 1_555
C17 C18 1_555 1_555
C20 C21 1_555 1_555

#END
