
#######################################################################
#
#                 Cambridge Crystallographic Data Centre
#                                CCDC 
#
#######################################################################
#
# If this CIF has been generated from an entry in the Cambridge 
# Structural Database, then it will include bibliographic, chemical, 
# crystal, experimental, refinement or atomic coordinate data resulting 
# from the CCDC's data processing and validation procedures.
#
#######################################################################

data_SEBTEZ
_symmetry_cell_setting           triclinic
_symmetry_space_group_name_H-M   'P -1'
_symmetry_Int_Tables_number      2
_space_group_name_Hall           '-P 1'
loop_
_symmetry_equiv_pos_site_id
_symmetry_equiv_pos_as_xyz
1 x,y,z
2 -x,-y,-z
_cell_length_a                   5.8103(9)
_cell_length_b                   8.3849(13)
_cell_length_c                   10.2837(16)
_cell_angle_alpha                84.804(2)
_cell_angle_beta                 81.042(2)
_cell_angle_gamma                87.070(2)
_cell_volume                     492.516
loop_
_atom_site_label
_atom_site_type_symbol
_atom_site_fract_x
_atom_site_fract_y
_atom_site_fract_z
Cd1 Cd 0.5000 1.0000 0.5000
N1 N 0.5533(9) 0.7270(6) 0.5744(5)
N2 N 0.7509(10) 0.6324(7) 0.5345(6)
N3 N 0.5543(8) 0.5124(5) 0.7132(4)
N4 N 0.2766(9) 0.4242(6) 0.8882(5)
C1 C 0.4404(10) 0.6504(7) 0.6788(6)
H1 H 0.2988 0.6862 0.7241
C2 C 0.7458(13) 0.5079(8) 0.6182(7)
H2 H 0.8590 0.4252 0.6142
C3 C 0.4940(10) 0.4059(6) 0.8285(5)
C4 C 0.6581(11) 0.2972(7) 0.8713(6)
H3 H 0.8090 0.2892 0.8257
C5 C 0.5874(13) 0.2009(7) 0.9851(7)
H4 H 0.6909 0.1248 1.0176
C6 C 0.3629(13) 0.2179(8) 1.0504(7)
H5 H 0.3132 0.1544 1.1277
C7 C 0.2146(12) 0.3299(8) 0.9994(6)
H6 H 0.0634 0.3413 1.0439
C8 C 0.0444(9) 0.9537(7) 0.3388(5)
N5 N 0.2170(8) 0.9474(7) 0.3825(5)
S1 S -0.1960(2) 0.95817(19) 0.27315(14)
Cd1_2 Cd -0.5000 1.0000 0.5000
Cd1_3 Cd 1.5000 1.0000 0.5000
N1A N 0.4467(9) 1.2730(6) 0.4256(5)
N2A N 0.2491(10) 1.3676(7) 0.4655(6)
N3A N 0.4457(8) 1.4876(5) 0.2868(4)
N4A N 0.7234(9) 1.5758(6) 0.1118(5)
C1A C 0.5596(10) 1.3496(7) 0.3212(6)
H1A H 0.7012 1.3138 0.2759
C2A C 0.2542(13) 1.4921(8) 0.3818(7)
H2A H 0.1410 1.5748 0.3858
C3A C 0.5060(10) 1.5941(6) 0.1715(5)
C4A C 0.3419(11) 1.7028(7) 0.1287(6)
H3A H 0.1910 1.7108 0.1743
C5A C 0.4126(13) 1.7991(7) 0.0149(7)
H4A H 0.3091 1.8752 -0.0176
C6A C 0.6371(13) 1.7821(8) -0.0504(7)
H5A H 0.6868 1.8456 -0.1277
C7A C 0.7854(12) 1.6701(8) 0.0006(6)
H6A H 0.9366 1.6587 -0.0439
C8A C 0.9556(9) 1.0463(7) 0.6612(5)
N5A N 0.7830(8) 1.0526(7) 0.6175(5)
S1A S 1.1960(2) 1.04183(19) 0.72685(14)
S1_2 S 0.8040(2) 0.95817(19) 0.27315(14)
S1A_2 S 0.1960(2) 1.04183(19) 0.72685(14)
loop_
_geom_bond_atom_site_label_1
_geom_bond_atom_site_label_2
_geom_bond_site_symmetry_1
_geom_bond_site_symmetry_2
Cd1 N1 1_555 1_555
N1 N2 1_555 1_555
N2 C2 1_555 1_555
N3 C1 1_555 1_555
N4 C3 1_555 1_555
C1 N1 1_555 1_555
H1 C1 1_555 1_555
C2 N3 1_555 1_555
H2 C2 1_555 1_555
C3 N3 1_555 1_555
C4 C3 1_555 1_555
H3 C4 1_555 1_555
C5 C4 1_555 1_555
H4 C5 1_555 1_555
C6 C5 1_555 1_555
H5 C6 1_555 1_555
C7 N4 1_555 1_555
H6 C7 1_555 1_555
C8 N5 1_555 1_555
N5 Cd1 1_555 1_555
S1 C8 1_555 1_555
Cd1_2 S1 1_555 1_555
Cd1_3 S1A 1_555 1_555
N1A Cd1 1_555 1_555
N2A N1A 1_555 1_555
N3A C1A 1_555 1_555
N4A C3A 1_555 1_555
C1A N1A 1_555 1_555
H1A C1A 1_555 1_555
C2A N2A 1_555 1_555
H2A C2A 1_555 1_555
C3A N3A 1_555 1_555
C4A C3A 1_555 1_555
H3A C4A 1_555 1_555
C5A C4A 1_555 1_555
H4A C5A 1_555 1_555
C6A C5A 1_555 1_555
H5A C6A 1_555 1_555
C7A N4A 1_555 1_555
H6A C7A 1_555 1_555
C8A N5A 1_555 1_555
N5A Cd1 1_555 1_555
S1A C8A 1_555 1_555
S1_2 Cd1 1_555 1_555
S1A_2 Cd1 1_555 1_555
C6 C7 1_555 1_555
N3A C2A 1_555 1_555
C6A C7A 1_555 1_555

#END
