
#######################################################################
#
#                 Cambridge Crystallographic Data Centre
#                                CCDC 
#
#######################################################################
#
# If this CIF has been generated from an entry in the Cambridge 
# Structural Database, then it will include bibliographic, chemical, 
# crystal, experimental, refinement or atomic coordinate data resulting 
# from the CCDC's data processing and validation procedures.
#
#######################################################################

data_SEBTAV
_symmetry_cell_setting           orthorhombic
_symmetry_space_group_name_H-M   'P b c n'
_symmetry_Int_Tables_number      60
_space_group_name_Hall           '-P 2n 2ab'
loop_
_symmetry_equiv_pos_site_id
_symmetry_equiv_pos_as_xyz
1 x,y,z
2 1/2-x,1/2-y,1/2+z
3 -x,y,1/2-z
4 1/2+x,1/2-y,-z
5 -x,-y,-z
6 1/2+x,1/2+y,1/2-z
7 x,-y,1/2+z
8 1/2-x,1/2+y,z
_cell_length_a                   12.233(4)
_cell_length_b                   7.277(2)
_cell_length_c                   22.578(7)
_cell_angle_alpha                90
_cell_angle_beta                 90
_cell_angle_gamma                90
_cell_volume                     2009.88
loop_
_atom_site_label
_atom_site_type_symbol
_atom_site_fract_x
_atom_site_fract_y
_atom_site_fract_z
Cd1 Cd 0.5000 0.14949(4) 0.7500
N1 N 0.33666(18) 0.1594(3) 0.70040(10)
N2 N 0.2381(2) 0.1308(4) 0.72871(11)
N3 N 0.20754(17) 0.2040(3) 0.63593(10)
N4 N 0.2219(2) 0.3180(4) 0.54090(11)
N5 N 0.4333(2) 0.3756(4) 0.81750(12)
N6 N 0.2507(2) 0.3906(4) 0.86102(11)
N7 N 0.0720(2) 0.4303(4) 0.81469(12)
C1 C 0.1628(2) 0.1575(5) 0.68896(12)
H1 H 0.0882 0.1462 0.6959
C2 C 0.3165(2) 0.2035(5) 0.64606(12)
H2 H 0.3695 0.2312 0.6179
C3 C 0.1561(2) 0.2406(4) 0.58010(12)
C4 C 0.0487(3) 0.1941(4) 0.57028(13)
H3 H 0.0059 0.1410 0.5998
C5 C 0.0071(3) 0.2301(6) 0.51440(15)
H4 H -0.0649 0.2002 0.5053
C6 C 0.0731(3) 0.3101(5) 0.47271(14)
H5 H 0.0464 0.3359 0.4350
C7 C 0.1785(3) 0.3513(6) 0.48723(14)
H6 H 0.2226 0.4052 0.4585
C8 C 0.3444(3) 0.3840(4) 0.83494(13)
C9 C 0.1591(3) 0.4135(4) 0.83306(12)
Cd1E Cd 0.0000 0.64949(4) 0.7500
Cd1E_2 Cd 1.0000 0.64949(4) 0.7500
N1B N 0.66334(18) 0.1594(3) 0.79960(10)
N2B N 0.7619(2) 0.1308(4) 0.77129(11)
N3B N 0.79246(17) 0.2040(3) 0.86407(10)
N4B N 0.7781(2) 0.3180(4) 0.95910(11)
N5B N 0.5667(2) 0.3756(4) 0.68250(12)
N6B N 0.7493(2) 0.3906(4) 0.63898(11)
N7B N 0.9280(2) 0.4303(4) 0.68531(12)
N7E N 0.5720(2) -0.0697(4) 0.68531(12)
N7G N 0.4280(2) -0.0697(4) 0.81469(12)
C1B C 0.8372(2) 0.1575(5) 0.81104(12)
H1B H 0.9118 0.1462 0.8041
C2B C 0.6835(2) 0.2035(5) 0.85394(12)
H2B H 0.6305 0.2312 0.8821
C3B C 0.8439(2) 0.2406(4) 0.91990(12)
C4B C 0.9513(3) 0.1941(4) 0.92972(13)
H3B H 0.9941 0.1410 0.9002
C5B C 0.9929(3) 0.2301(6) 0.98560(15)
H4B H 1.0649 0.2002 0.9947
C6B C 0.9269(3) 0.3101(5) 1.02729(14)
H5B H 0.9536 0.3359 1.0650
C7B C 0.8215(3) 0.3513(6) 1.01277(14)
H6B H 0.7774 0.4052 1.0415
C8B C 0.6556(3) 0.3840(4) 0.66506(13)
C9B C 0.8409(3) 0.4135(4) 0.66694(12)
loop_
_geom_bond_atom_site_label_1
_geom_bond_atom_site_label_2
_geom_bond_site_symmetry_1
_geom_bond_site_symmetry_2
Cd1 N1 1_555 1_555
N1 N2 1_555 1_555
N2 C1 1_555 1_555
N3 C1 1_555 1_555
N4 C3 1_555 1_555
N5 Cd1 1_555 1_555
N6 C8 1_555 1_555
N7 C9 1_555 1_555
C1 H1 1_555 1_555
C2 N1 1_555 1_555
H2 C2 1_555 1_555
C3 N3 1_555 1_555
C4 C3 1_555 1_555
H3 C4 1_555 1_555
C5 C4 1_555 1_555
H4 C5 1_555 1_555
C6 C5 1_555 1_555
H5 C6 1_555 1_555
C7 N4 1_555 1_555
H6 C7 1_555 1_555
C8 N5 1_555 1_555
C9 N6 1_555 1_555
Cd1E N7 1_555 1_555
Cd1E_2 N7B 1_555 1_555
N1B Cd1 1_555 1_555
N2B N1B 1_555 1_555
N3B C1B 1_555 1_555
N4B C3B 1_555 1_555
N5B Cd1 1_555 1_555
N6B C8B 1_555 1_555
N7B C9B 1_555 1_555
N7E Cd1 1_555 1_555
N7G Cd1 1_555 1_555
C1B N2B 1_555 1_555
H1B C1B 1_555 1_555
C2B N1B 1_555 1_555
H2B C2B 1_555 1_555
C3B N3B 1_555 1_555
C4B C3B 1_555 1_555
H3B C4B 1_555 1_555
C5B C4B 1_555 1_555
H4B C5B 1_555 1_555
C6B C5B 1_555 1_555
H5B C6B 1_555 1_555
C7B N4B 1_555 1_555
H6B C7B 1_555 1_555
C8B N5B 1_555 1_555
C9B N6B 1_555 1_555
N3 C2 1_555 1_555
C6 C7 1_555 1_555
N3B C2B 1_555 1_555
C6B C7B 1_555 1_555

#END
