
#######################################################################
#
#                 Cambridge Crystallographic Data Centre
#                                CCDC 
#
#######################################################################
#
# If this CIF has been generated from an entry in the Cambridge 
# Structural Database, then it will include bibliographic, chemical, 
# crystal, experimental, refinement or atomic coordinate data resulting 
# from the CCDC's data processing and validation procedures.
#
#######################################################################

data_SEBTUP
_symmetry_cell_setting           monoclinic
_symmetry_space_group_name_H-M   'P 21/c'
_symmetry_Int_Tables_number      14
_space_group_name_Hall           '-P 2ybc'
loop_
_symmetry_equiv_pos_site_id
_symmetry_equiv_pos_as_xyz
1 x,y,z
2 -x,1/2+y,1/2-z
3 -x,-y,-z
4 x,1/2-y,1/2+z
_cell_length_a                   9.7470(10)
_cell_length_b                   7.4296(8)
_cell_length_c                   14.2432(15)
_cell_angle_alpha                90
_cell_angle_beta                 94.1910(10)
_cell_angle_gamma                90
_cell_volume                     1028.68
loop_
_atom_site_label
_atom_site_type_symbol
_atom_site_fract_x
_atom_site_fract_y
_atom_site_fract_z
Cd1 Cd 1.0000 0.0000 1.0000
N1 N 0.4212(2) 0.1217(3) 0.61293(13)
N2 N 0.58617(17) 0.1135(2) 0.85417(11)
N3 N 0.68470(18) 0.1592(3) 0.99554(13)
N4 N 0.77809(18) 0.0768(3) 0.94043(13)
N5 N 0.9747(2) 0.1833(3) 1.12919(14)
N6 N 0.8660(3) 0.4731(3) 1.15661(18)
N7 N 0.9164(2) 0.7561(3) 1.08071(16)
C1 C 0.3492(2) 0.0607(4) 0.79550(17)
H1 H 0.3252 0.0407 0.8566
C2 C 0.2522(3) 0.0496(4) 0.72019(19)
H2 H 0.1612 0.0216 0.7293
C3 C 0.2932(2) 0.0806(4) 0.63153(17)
H3 H 0.2272 0.0725 0.5812
C4 C 0.5144(2) 0.1319(3) 0.68639(14)
H4 H 0.6048 0.1601 0.6754
C5 C 0.4821(2) 0.1024(3) 0.77763(14)
C6 C 0.7173(2) 0.0514(3) 0.85716(16)
H5 H 0.7579 -0.0017 0.8069
C7 C 0.5722(2) 0.1787(3) 0.94204(15)
H6 H 0.4922 0.2308 0.9614
C8 C 0.9266(2) 0.3219(3) 1.13882(15)
C9 C 0.8982(2) 0.6200(3) 1.11396(16)
Cd1_2 Cd 1.0000 1.0000 1.0000
Cd1_3 Cd 1.0000 -1.0000 1.0000
N1B N 1.5788(2) -0.1217(3) 1.38707(13)
N2B N 1.41383(17) -0.1135(2) 1.14583(11)
N3B N 1.31530(18) -0.1592(3) 1.00446(13)
N4B N 1.22191(18) -0.0768(3) 1.05957(13)
N5B N 1.0253(2) -0.1833(3) 0.87081(14)
N6B N 1.1340(3) -0.4731(3) 0.84339(18)
N7B N 1.0836(2) -0.7561(3) 0.91929(16)
N7_2 N 0.9164(2) -0.2439(3) 1.08071(16)
N7B_2 N 1.0836(2) 0.2439(3) 0.91929(16)
C1B C 1.6508(2) -0.0607(4) 1.20450(17)
H1B H 1.6748 -0.0407 1.1434
C2B C 1.7478(3) -0.0496(4) 1.27981(19)
H2B H 1.8388 -0.0216 1.2707
C3B C 1.7068(2) -0.0806(4) 1.36847(17)
H3B H 1.7728 -0.0725 1.4188
C4B C 1.4856(2) -0.1319(3) 1.31361(14)
H4B H 1.3952 -0.1601 1.3246
C5B C 1.5179(2) -0.1024(3) 1.22237(14)
C6B C 1.2827(2) -0.0514(3) 1.14284(16)
H5B H 1.2421 0.0017 1.1931
C7B C 1.4278(2) -0.1787(3) 1.05796(15)
H6B H 1.5078 -0.2308 1.0386
C8B C 1.0734(2) -0.3219(3) 0.86118(15)
C9B C 1.1018(2) -0.6200(3) 0.88604(16)
loop_
_geom_bond_atom_site_label_1
_geom_bond_atom_site_label_2
_geom_bond_site_symmetry_1
_geom_bond_site_symmetry_2
Cd1 N4 1_555 1_555
N1 C3 1_555 1_555
N2 C5 1_555 1_555
N3 N4 1_555 1_555
N4 C6 1_555 1_555
N5 Cd1 1_555 1_555
N6 C8 1_555 1_555
N7 C9 1_555 1_555
C1 H1 1_555 1_555
C2 C1 1_555 1_555
H2 C2 1_555 1_555
C3 C2 1_555 1_555
H3 C3 1_555 1_555
C4 N1 1_555 1_555
H4 C4 1_555 1_555
C5 C1 1_555 1_555
C6 N2 1_555 1_555
H5 C6 1_555 1_555
C7 N2 1_555 1_555
H6 C7 1_555 1_555
C8 N5 1_555 1_555
C9 N6 1_555 1_555
Cd1_2 N7 1_555 1_555
Cd1_3 N7B 1_555 1_555
N1B C3B 1_555 1_555
N2B C5B 1_555 1_555
N3B N4B 1_555 1_555
N4B Cd1 1_555 1_555
N5B Cd1 1_555 1_555
N6B C8B 1_555 1_555
N7B C9B 1_555 1_555
N7_2 Cd1 1_555 1_555
N7B_2 Cd1 1_555 1_555
C1B H1B 1_555 1_555
C2B C1B 1_555 1_555
H2B C2B 1_555 1_555
C3B C2B 1_555 1_555
H3B C3B 1_555 1_555
C4B N1B 1_555 1_555
H4B C4B 1_555 1_555
C5B C1B 1_555 1_555
C6B N2B 1_555 1_555
H5B C6B 1_555 1_555
C7B N2B 1_555 1_555
H6B C7B 1_555 1_555
C8B N5B 1_555 1_555
C9B N6B 1_555 1_555
N3 C7 1_555 1_555
C4 C5 1_555 1_555
N3B C7B 1_555 1_555
N4B C6B 1_555 1_555
C4B C5B 1_555 1_555

#END
