
#######################################################################
#
#                 Cambridge Crystallographic Data Centre
#                                CCDC 
#
#######################################################################
#
# If this CIF has been generated from an entry in the Cambridge 
# Structural Database, then it will include bibliographic, chemical, 
# crystal, experimental, refinement or atomic coordinate data resulting 
# from the CCDC's data processing and validation procedures.
#
#######################################################################

data_SEBVEB
_symmetry_cell_setting           triclinic
_symmetry_space_group_name_H-M   'P -1'
_symmetry_Int_Tables_number      2
_space_group_name_Hall           '-P 1'
loop_
_symmetry_equiv_pos_site_id
_symmetry_equiv_pos_as_xyz
1 x,y,z
2 -x,-y,-z
_cell_length_a                   7.7347(10)
_cell_length_b                   13.7682(17)
_cell_length_c                   14.1403(18)
_cell_angle_alpha                111.1800(10)
_cell_angle_beta                 93.100(2)
_cell_angle_gamma                96.835(2)
_cell_volume                     1386.46
loop_
_atom_site_label
_atom_site_type_symbol
_atom_site_fract_x
_atom_site_fract_y
_atom_site_fract_z
Cd1 Cd 0.0000 0.0000 0.0000
Cd2 Cd 0.13255(2) 0.511340(14) -0.293670(14)
Cd3 Cd 0.5000 0.0000 -0.5000
N1 N -0.1265(3) 0.11125(17) -0.06645(17)
N2 N -0.3043(3) 0.09591(19) -0.0932(2)
N3 N -0.1882(3) 0.24521(16) -0.10220(17)
N4 N -0.0495(3) 0.46569(16) -0.18243(16)
N5 N 0.0552(3) 0.35078(17) 0.57541(16)
N6 N 0.1703(3) 0.27784(19) 0.55419(19)
N7 N -0.0305(3) 0.23269(16) 0.42386(15)
N8 N -0.1366(3) 0.07527(16) 0.15050(16)
N9 N 0.7271(4) -0.0346(2) -0.6028(3)
N10 N 0.9741(4) -0.1038(3) -0.6880(2)
N11 N 1.2837(5) -0.0273(3) -0.6365(2)
N12 N 0.5548(4) 0.1791(2) -0.4589(2)
N13 N 0.5752(4) 0.3506(3) -0.3264(3)
N14 N 0.3519(4) 0.4396(2) -0.2291(2)
N15 N -0.7639(3) -0.32867(18) -0.15745(19)
N16 N -0.4574(3) -0.2826(2) -0.0871(2)
N17 N -0.2364(3) -0.13393(19) -0.06704(19)
N18 N -0.0977(3) 0.5760(2) -0.3448(2)
N19 N -0.3645(3) 0.6519(2) -0.3532(3)
N20 N -0.6672(3) 0.5657(2) -0.3890(2)
C1 C -0.0667(3) 0.3709(2) -0.1749(2)
H1 H -0.0049 0.3199 -0.2151
C2 C -0.1427(4) 0.5365(2) -0.1260(2)
H2 H -0.1331 0.6019 -0.1321
C3 C -0.2519(4) 0.5180(2) -0.0595(2)
H3 H -0.3146 0.5697 -0.0215
C4 C -0.2676(4) 0.4212(2) -0.0496(2)
H4 H -0.3393 0.4064 -0.0043
C5 C -0.1734(3) 0.3469(2) -0.1092(2)
C6 C -0.0620(4) 0.2002(2) -0.0723(2)
H5 H 0.0558 0.2289 -0.0578
C7 C -0.3364(4) 0.1770(2) -0.1136(3)
H6 H -0.4473 0.1870 -0.1335
C8 C -0.0472(3) 0.13244(19) 0.24145(19)
H7 H 0.0745 0.1430 0.2468
C9 C -0.3111(3) 0.0625(2) 0.1448(2)
H8 H -0.3743 0.0229 0.0819
C10 C -0.4017(4) 0.1049(2) 0.2268(2)
H9 H -0.5235 0.0945 0.2193
C11 C -0.3108(3) 0.1629(2) 0.3204(2)
H10 H -0.3689 0.1926 0.3775
C12 C -0.1301(3) 0.17583(19) 0.32702(18)
C13 C 0.1166(4) 0.2094(2) 0.4635(2)
H11 H 0.1713 0.1517 0.4299
C14 C -0.0621(3) 0.3221(2) 0.49706(19)
H12 H -0.1546 0.3580 0.4922
C15 C 0.8477(5) -0.0639(3) -0.6383(3)
C16 C 1.1365(5) -0.0613(3) -0.6566(2)
C17 C 0.5531(4) 0.2571(3) -0.3955(3)
C18 C 0.4479(5) 0.3923(3) -0.2775(3)
C19 C -0.6191(4) -0.3016(2) -0.1266(2)
C20 C -0.3470(4) -0.2014(2) -0.0793(2)
C21 C -0.2279(4) 0.6056(2) -0.3504(2)
C22 C -0.5221(4) 0.6010(2) -0.3729(2)
Cd2A Cd -0.13255(2) -0.511340(14) 0.293670(14)
Cd2_2 Cd 0.13255(2) 0.511340(14) 0.706330(14)
Cd2_3 Cd -0.86745(2) -0.488660(14) -0.293670(14)
Cd2_4 Cd -0.86745(2) 0.511340(14) -0.293670(14)
Cd2A_2 Cd -0.13255(2) -0.511340(14) -0.706330(14)
Cd2A_3 Cd 0.86745(2) 0.488660(14) 0.293670(14)
Cd2_5 Cd 1.13255(2) 0.511340(14) -0.293670(14)
Cd3_2 Cd 1.5000 0.0000 -0.5000
Cd3_3 Cd -0.5000 0.0000 0.5000
Cd3_4 Cd -0.5000 0.0000 -0.5000
N1A N 0.1265(3) -0.11125(17) 0.06645(17)
N2A N 0.3043(3) -0.09591(19) 0.0932(2)
N3A N 0.1882(3) -0.24521(16) 0.10220(17)
N4A N 0.0495(3) -0.46569(16) 0.18243(16)
N5A N -0.0552(3) -0.35078(17) -0.57541(16)
N5_2 N 0.0552(3) 0.35078(17) -0.42459(16)
N5A_2 N -0.0552(3) -0.35078(17) 0.42459(16)
N6A N -0.1703(3) -0.27784(19) -0.55419(19)
N7A N 0.0305(3) -0.23269(16) -0.42386(15)
N8A N 0.1366(3) -0.07527(16) -0.15050(16)
N9A N 0.2729(4) 0.0346(2) -0.3972(3)
N10A N 0.0259(4) 0.1038(3) -0.3120(2)
N11A N -0.2837(5) 0.0273(3) -0.3635(2)
N11_2 N 0.2837(5) -0.0273(3) -0.6365(2)
N11A_2 N 0.7163(5) 0.0273(3) -0.3635(2)
N12A N -0.5548(4) -0.1791(2) 0.4589(2)
N12A_2 N 0.4452(4) -0.1791(2) -0.5411(2)
N13A N -0.5752(4) -0.3506(3) 0.3264(3)
N14A N -0.3519(4) -0.4396(2) 0.2291(2)
N15A N 0.7639(3) 0.32867(18) 0.15745(19)
N15_2 N 0.2361(3) 0.67133(18) -0.15745(19)
N15A_2 N -0.2361(3) -0.67133(18) 0.15745(19)
N16A N 0.4574(3) 0.2826(2) 0.0871(2)
N17A N 0.2364(3) 0.13393(19) 0.06704(19)
N18_2 N 0.9023(3) 0.5760(2) -0.3448(2)
N18A N 0.0977(3) -0.5760(2) 0.3448(2)
N19_2 N 0.6355(3) 0.6519(2) -0.3532(3)
N20_2 N 0.3328(3) 0.5657(2) -0.3890(2)
N20A N -0.3328(3) -0.5657(2) 0.3890(2)
C1A C 0.0667(3) -0.3709(2) 0.1749(2)
H1A H 0.0049 -0.3199 0.2151
C2A C 0.1427(4) -0.5365(2) 0.1260(2)
H2A H 0.1331 -0.6019 0.1321
C3A C 0.2519(4) -0.5180(2) 0.0595(2)
H3A H 0.3146 -0.5697 0.0215
C4A C 0.2676(4) -0.4212(2) 0.0496(2)
H4A H 0.3393 -0.4064 0.0043
C5A C 0.1734(3) -0.3469(2) 0.1092(2)
C6A C 0.0620(4) -0.2002(2) 0.0723(2)
H5A H -0.0558 -0.2289 0.0578
C7A C 0.3364(4) -0.1770(2) 0.1136(3)
H6A H 0.4473 -0.1870 0.1335
C8A C 0.0472(3) -0.13244(19) -0.24145(19)
H7A H -0.0745 -0.1430 -0.2468
C9A C 0.3111(3) -0.0625(2) -0.1448(2)
H8A H 0.3743 -0.0229 -0.0819
C10A C 0.4017(4) -0.1049(2) -0.2268(2)
H9A H 0.5235 -0.0945 -0.2193
C11A C 0.3108(3) -0.1629(2) -0.3204(2)
H10A H 0.3689 -0.1926 -0.3775
C12A C 0.1301(3) -0.17583(19) -0.32702(18)
C13A C -0.1166(4) -0.2094(2) -0.4635(2)
H11A H -0.1713 -0.1517 -0.4299
C14A C 0.0621(3) -0.3221(2) -0.49706(19)
H12A H 0.1546 -0.3580 -0.4922
C15A C 0.1523(5) 0.0639(3) -0.3617(3)
C16A C -0.1365(5) 0.0613(3) -0.3434(2)
C17A C -0.5531(4) -0.2571(3) 0.3955(3)
C18A C -0.4479(5) -0.3923(3) 0.2775(3)
C19A C 0.6191(4) 0.3016(2) 0.1266(2)
C20A C 0.3470(4) 0.2014(2) 0.0793(2)
C21_2 C 0.7721(4) 0.6056(2) -0.3504(2)
C22_2 C 0.4779(4) 0.6010(2) -0.3729(2)
O1 O 0.3027(7) 0.2622(4) 0.8468(4)
loop_
_geom_bond_atom_site_label_1
_geom_bond_atom_site_label_2
_geom_bond_site_symmetry_1
_geom_bond_site_symmetry_2
Cd1 N1 1_555 1_555
Cd2 N4 1_555 1_555
Cd3 N9 1_555 1_555
N1 N2 1_555 1_555
N2 C7 1_555 1_555
N3 C5 1_555 1_555
N4 C1 1_555 1_555
N5 N6 1_555 1_555
N6 C13 1_555 1_555
N7 C12 1_555 1_555
N8 Cd1 1_555 1_555
N9 C15 1_555 1_555
N10 C15 1_555 1_555
N11 C16 1_555 1_555
N12 Cd3 1_555 1_555
N13 C17 1_555 1_555
N14 Cd2 1_555 1_555
N15 C19 1_555 1_555
N16 C19 1_555 1_555
N17 Cd1 1_555 1_555
N18 Cd2 1_555 1_555
N19 C21 1_555 1_555
N20 C22 1_555 1_555
C1 H1 1_555 1_555
C2 N4 1_555 1_555
H2 C2 1_555 1_555
C3 C2 1_555 1_555
H3 C3 1_555 1_555
C4 C3 1_555 1_555
H4 C4 1_555 1_555
C5 C1 1_555 1_555
C6 N1 1_555 1_555
H5 C6 1_555 1_555
C7 N3 1_555 1_555
H6 C7 1_555 1_555
C8 N8 1_555 1_555
H7 C8 1_555 1_555
C9 N8 1_555 1_555
H8 C9 1_555 1_555
C10 C9 1_555 1_555
H9 C10 1_555 1_555
C11 C10 1_555 1_555
H10 C11 1_555 1_555
C12 C8 1_555 1_555
C13 N7 1_555 1_555
H11 C13 1_555 1_555
C14 N5 1_555 1_555
H12 C14 1_555 1_555
C16 N10 1_555 1_555
C17 N12 1_555 1_555
C18 N13 1_555 1_555
C20 N16 1_555 1_555
C21 N18 1_555 1_555
C22 N19 1_555 1_555
Cd2A N4A 1_555 1_555
Cd2_2 N5 1_555 1_555
Cd2_3 N15 1_555 1_555
Cd2_4 N20 1_555 1_555
Cd2A_2 N5A 1_555 1_555
Cd2A_3 N15A 1_555 1_555
Cd2_5 N18_2 1_555 1_555
Cd3_2 N11 1_555 1_555
Cd3_3 N12A 1_555 1_555
Cd3_4 N11A 1_555 1_555
N1A Cd1 1_555 1_555
N2A N1A 1_555 1_555
N3A C5A 1_555 1_555
N4A C1A 1_555 1_555
N5A N6A 1_555 1_555
N5_2 Cd2 1_555 1_555
N5A_2 Cd2A 1_555 1_555
N6A C13A 1_555 1_555
N7A C12A 1_555 1_555
N8A Cd1 1_555 1_555
N9A Cd3 1_555 1_555
N10A C15A 1_555 1_555
N11A C16A 1_555 1_555
N11_2 Cd3 1_555 1_555
N11A_2 Cd3 1_555 1_555
N12A C17A 1_555 1_555
N12A_2 Cd3 1_555 1_555
N13A C17A 1_555 1_555
N14A Cd2A 1_555 1_555
N15A C19A 1_555 1_555
N15_2 Cd2 1_555 1_555
N15A_2 Cd2A 1_555 1_555
N16A C19A 1_555 1_555
N17A Cd1 1_555 1_555
N18_2 C21_2 1_555 1_555
N18A Cd2A 1_555 1_555
N19_2 C21_2 1_555 1_555
N20_2 Cd2 1_555 1_555
N20A Cd2A 1_555 1_555
C1A H1A 1_555 1_555
C2A N4A 1_555 1_555
H2A C2A 1_555 1_555
C3A C2A 1_555 1_555
H3A C3A 1_555 1_555
C4A C3A 1_555 1_555
H4A C4A 1_555 1_555
C5A C1A 1_555 1_555
C6A N1A 1_555 1_555
H5A C6A 1_555 1_555
C7A N2A 1_555 1_555
H6A C7A 1_555 1_555
C8A N8A 1_555 1_555
H7A C8A 1_555 1_555
C9A N8A 1_555 1_555
H8A C9A 1_555 1_555
C10A C9A 1_555 1_555
H9A C10A 1_555 1_555
C11A C10A 1_555 1_555
H10A C11A 1_555 1_555
C12A C8A 1_555 1_555
C13A N7A 1_555 1_555
H11A C13A 1_555 1_555
C14A N5A 1_555 1_555
H12A C14A 1_555 1_555
C15A N9A 1_555 1_555
C16A N10A 1_555 1_555
C18A N13A 1_555 1_555
C20A N16A 1_555 1_555
C22_2 N19_2 1_555 1_555
N3 C6 1_555 1_555
N7 C14 1_555 1_555
N14 C18 1_555 1_555
N17 C20 1_555 1_555
C4 C5 1_555 1_555
C11 C12 1_555 1_555
N3A C6A 1_555 1_555
N3A C7A 1_555 1_555
N7A C14A 1_555 1_555
N14A C18A 1_555 1_555
N17A C20A 1_555 1_555
N20_2 C22_2 1_555 1_555
C4A C5A 1_555 1_555
C11A C12A 1_555 1_555

#END
