
#######################################################################
#
#                 Cambridge Crystallographic Data Centre
#                                CCDC 
#
#######################################################################
#
# If this CIF has been generated from an entry in the Cambridge 
# Structural Database, then it will include bibliographic, chemical, 
# crystal, experimental, refinement or atomic coordinate data resulting 
# from the CCDC's data processing and validation procedures.
#
#######################################################################

data_SEBZEF
_symmetry_cell_setting           triclinic
_symmetry_space_group_name_H-M   'P -1'
_symmetry_Int_Tables_number      2
_space_group_name_Hall           '-P 1'
loop_
_symmetry_equiv_pos_site_id
_symmetry_equiv_pos_as_xyz
1 x,y,z
2 -x,-y,-z
_cell_length_a                   6.062(1)
_cell_length_b                   7.701(2)
_cell_length_c                   16.162(3)
_cell_angle_alpha                88.15(3)
_cell_angle_beta                 84.94(3)
_cell_angle_gamma                78.13(3)
_cell_volume                     735.41
loop_
_atom_site_label
_atom_site_type_symbol
_atom_site_fract_x
_atom_site_fract_y
_atom_site_fract_z
Cu1 Cu 0.19708(4) 0.18590(3) 0.300352(14)
O1 O 0.1945(2) 0.0009(2) 0.22470(10)
O2 O 0.1892(2) 0.39892(18) 0.36957(9)
O3 O 0.9337(2) 0.4027(2) 0.22289(9)
O4 O 0.7891(3) -0.4027(2) -0.06922(11)
O5 O 1.0111(3) -0.2322(2) -0.03921(10)
O9 O 0.8933(2) 0.15268(19) 0.34566(9)
O10 O 0.3220(3) -0.0013(2) 0.40998(11)
N1 N 0.4912(3) 0.2304(2) 0.25503(10)
C1 C 0.6182(3) 0.1405(3) 0.19699(12)
C2 C 0.5587(3) -0.0004(2) 0.15127(12)
C3 C 0.3489(3) -0.0606(3) 0.16775(12)
C4 C 0.3115(3) -0.1974(3) 0.11640(13)
C5 C 0.4644(3) -0.2681(3) 0.05303(13)
C6 C 0.6687(3) -0.2084(3) 0.03904(12)
C7 C 0.7145(3) -0.0767(3) 0.08701(12)
C8 C 0.5701(3) 0.3707(2) 0.29841(12)
C9 C 0.3537(3) 0.4972(2) 0.33410(13)
C10 C 0.7008(3) 0.4847(3) 0.24099(13)
N3 N 0.8323(3) -0.2846(2) -0.02683(11)
C11 C 0.7019(3) 0.2865(3) 0.37150(12)
H1 H 0.690(4) 0.593(4) 0.2708(16)
H2 H 0.391(4) 0.568(3) 0.3759(16)
H3 H 0.177(4) -0.238(3) 0.1267(16)
H4 H 0.752(4) 0.376(3) 0.3967(16)
H5 H 0.757(5) 0.164(3) 0.1845(17)
H6 H 0.856(5) -0.035(4) 0.0777(18)
H7 H 0.427(5) -0.351(4) 0.0195(18)
H8 H 0.283(5) 0.570(4) 0.2906(18)
H9 H 0.622(4) 0.505(3) 0.1880(16)
H10 H 0.872(5) 0.057(4) 0.353(2)
H11 H 0.233(6) -0.057(4) 0.429(2)
H12 H 0.439(6) -0.063(4) 0.397(2)
H13 H 0.199(5) 0.379(4) 0.420(2)
H14 H 0.981(5) 0.417(4) 0.1767(12)
H15 H 0.600(4) 0.238(3) 0.4114(15)
Cu1_2 Cu 1.19708(4) 0.18590(3) 0.300352(14)
O3_2 O -0.0663(2) 0.4027(2) 0.22289(9)
O9_2 O -0.1067(2) 0.15268(19) 0.34566(9)
H10_2 H -0.128(5) 0.057(4) 0.353(2)
H14_2 H -0.019(5) 0.417(4) 0.1767(12)
O6 O 0.7820(3) -0.1619(2) 0.37070(10)
O7 O 0.7179(3) -0.34113(19) 0.47196(9)
O8 O 1.0223(3) -0.2328(2) 0.46519(10)
N2 N 0.8439(3) -0.2453(2) 0.43656(11)
loop_
_geom_bond_atom_site_label_1
_geom_bond_atom_site_label_2
_geom_bond_site_symmetry_1
_geom_bond_site_symmetry_2
Cu1 O1 1_555 1_555
O1 C3 1_555 1_555
O2 Cu1 1_555 1_555
O3 C10 1_555 1_555
O4 N3 1_555 1_555
O5 N3 1_555 1_555
O6 N2 1_555 1_555
O7 N2 1_555 1_555
O8 N2 1_555 1_555
O9 C11 1_555 1_555
O10 Cu1 1_555 1_555
N1 Cu1 1_555 1_555
C1 N1 1_555 1_555
C2 C1 1_555 1_555
C3 C2 1_555 1_555
C4 C3 1_555 1_555
C5 C4 1_555 1_555
C6 C5 1_555 1_555
C7 C2 1_555 1_555
C8 N1 1_555 1_555
C9 O2 1_555 1_555
C10 C8 1_555 1_555
N3 C6 1_555 1_555
C11 C8 1_555 1_555
H1 C10 1_555 1_555
H2 C9 1_555 1_555
H3 C4 1_555 1_555
H4 C11 1_555 1_555
H5 C1 1_555 1_555
H6 C7 1_555 1_555
H7 C5 1_555 1_555
H8 C9 1_555 1_555
H9 C10 1_555 1_555
H10 O9 1_555 1_555
H11 O10 1_555 1_555
H12 O10 1_555 1_555
H13 O2 1_555 1_555
H14 O3 1_555 1_555
H15 C11 1_555 1_555
Cu1_2 O3 1_555 1_555
O3_2 Cu1 1_555 1_555
O9_2 Cu1 1_555 1_555
H10_2 O9_2 1_555 1_555
H14_2 O3_2 1_555 1_555
O9 Cu1_2 1_555 1_555
C6 C7 1_555 1_555
C8 C9 1_555 1_555

#END
