
#######################################################################
#
#                 Cambridge Crystallographic Data Centre
#                                CCDC 
#
#######################################################################
#
# If this CIF has been generated from an entry in the Cambridge 
# Structural Database, then it will include bibliographic, chemical, 
# crystal, experimental, refinement or atomic coordinate data resulting 
# from the CCDC's data processing and validation procedures.
#
#######################################################################

data_SEBZIK
_symmetry_cell_setting           triclinic
_symmetry_space_group_name_H-M   'P -1'
_symmetry_Int_Tables_number      2
_space_group_name_Hall           '-P 1'
loop_
_symmetry_equiv_pos_site_id
_symmetry_equiv_pos_as_xyz
1 x,y,z
2 -x,-y,-z
_cell_length_a                   5.4599(12)
_cell_length_b                   10.374(2)
_cell_length_c                   13.617(3)
_cell_angle_alpha                93.912(4)
_cell_angle_beta                 99.409(4)
_cell_angle_gamma                97.651(4)
_cell_volume                     750.929
loop_
_atom_site_label
_atom_site_type_symbol
_atom_site_fract_x
_atom_site_fract_y
_atom_site_fract_z
Co1 Co 0.5000 0.5000 0.5000
N1 N 0.5225(5) 0.4729(3) 0.34064(18)
O1 O 0.6967(4) 0.3420(2) 0.52914(16)
O2 O 0.3880(5) 0.1819(3) 0.5357(3)
O3 O 0.7376(7) 0.1884(4) 0.7644(2)
O4 O 0.9063(9) 0.2427(5) 0.9246(3)
C1 C 0.6125(7) 0.2293(4) 0.5499(3)
C2 C 0.8056(8) 0.1465(4) 0.5951(3)
H1 H 0.8187 0.0778 0.5451
H2 H 0.9680 0.2009 0.6124
C3 C 0.7443(8) 0.0860(5) 0.6858(3)
H3 H 0.5815 0.0296 0.6696
C4 C 0.9426(8) 0.0100(5) 0.7330(3)
C5 C 1.0204(9) 0.0604(5) 0.8312(3)
C6 C 1.1928(11) 0.0029(6) 0.8936(4)
H4 H 1.2403 0.0335 0.9607
C7 C 1.2914(11) -0.0991(6) 0.8550(4)
H5 H 1.4078 -0.1382 0.8961
C8 C 1.2209(10) -0.1446(5) 0.7563(4)
H6 H 1.2932 -0.2131 0.7311
C9 C 1.0467(9) -0.0916(5) 0.6938(4)
H7 H 0.9998 -0.1231 0.6268
C10 C 0.8928(11) 0.1723(6) 0.8499(4)
C11 C 0.7230(7) 0.5193(4) 0.3025(3)
H8 H 0.8650 0.5601 0.3464
C12 C 0.7320(8) 0.5102(5) 0.2011(3)
H9 H 0.8763 0.5454 0.1787
C13 C 0.5273(8) 0.4491(4) 0.1340(2)
C14 C 0.3274(8) 0.3949(5) 0.1727(3)
H10 H 0.1884 0.3480 0.1305
C15 C 0.3302(8) 0.4094(5) 0.2746(3)
H11 H 0.1892 0.3725 0.2984
C16 C 0.5295(10) 0.4387(5) 0.0226(3)
H12 H 0.6935 0.4220 0.0109
H13 H 0.4068 0.3655 -0.0098
O5 O 0.1581(5) 0.3715(3) 0.47022(17)
H14 H 0.026(8) 0.368(4) 0.482(3)
H15 H 0.216(8) 0.299(5) 0.491(3)
Co1_2 Co 0.5000 0.5000 -0.5000
N1A N 0.4775(5) 0.5271(3) -0.34064(18)
N1A_2 N 0.4775(5) 0.5271(3) 0.65936(18)
O1A O 0.3033(4) 0.6580(2) 0.47086(16)
O2A O 0.6120(5) 0.8181(3) 0.4643(3)
O3A O 0.2624(7) 0.8116(4) 0.2356(2)
O4A O 0.0937(9) 0.7573(5) 0.0754(3)
C1A C 0.3875(7) 0.7707(4) 0.4501(3)
C2A C 0.1944(8) 0.8535(4) 0.4049(3)
H1A H 0.1813 0.9222 0.4549
H2A H 0.0320 0.7991 0.3876
C3A C 0.2557(8) 0.9140(5) 0.3142(3)
H3A H 0.4185 0.9704 0.3304
C4A C 0.0574(8) 0.9900(5) 0.2670(3)
C5A C -0.0204(9) 0.9396(5) 0.1688(3)
C6A C -0.1928(11) 0.9971(6) 0.1064(4)
H4A H -0.2403 0.9665 0.0393
C7A C -0.2914(11) 1.0991(6) 0.1450(4)
H5A H -0.4078 1.1382 0.1039
C8A C -0.2209(10) 1.1446(5) 0.2437(4)
H6A H -0.2932 1.2131 0.2689
C9A C -0.0467(9) 1.0916(5) 0.3062(4)
H7A H 0.0002 1.1231 0.3732
C10A C 0.1072(11) 0.8277(6) 0.1501(4)
C11A C 0.2770(7) 0.4807(4) -0.3025(3)
H8A H 0.1350 0.4399 -0.3464
C12A C 0.2680(8) 0.4898(5) -0.2011(3)
H9A H 0.1237 0.4546 -0.1787
C13A C 0.4727(8) 0.5509(4) -0.1340(2)
C14A C 0.6726(8) 0.6051(5) -0.1727(3)
H10A H 0.8116 0.6520 -0.1305
C15A C 0.6698(8) 0.5906(5) -0.2746(3)
H11A H 0.8108 0.6275 -0.2984
C16A C 0.4705(10) 0.5613(5) -0.0226(3)
H12A H 0.3065 0.5780 -0.0109
H13A H 0.5932 0.6345 0.0098
O5A O 0.8419(5) 0.6285(3) 0.52978(17)
H14A H 0.974(8) 0.632(4) 0.518(3)
H15A H 0.784(8) 0.701(5) 0.509(3)
loop_
_geom_bond_atom_site_label_1
_geom_bond_atom_site_label_2
_geom_bond_site_symmetry_1
_geom_bond_site_symmetry_2
Co1 N1 1_555 1_555
N1 C11 1_555 1_555
O1 Co1 1_555 1_555
O2 C1 1_555 1_555
O3 C3 1_555 1_555
O4 C10 1_555 1_555
C1 O1 1_555 1_555
C2 C1 1_555 1_555
H1 C2 1_555 1_555
H2 C2 1_555 1_555
C3 C2 1_555 1_555
H3 C3 1_555 1_555
C4 C3 1_555 1_555
C5 C4 1_555 1_555
C6 C5 1_555 1_555
H4 C6 1_555 1_555
C7 C6 1_555 1_555
H5 C7 1_555 1_555
C8 C7 1_555 1_555
H6 C8 1_555 1_555
C9 C4 1_555 1_555
H7 C9 1_555 1_555
C10 O3 1_555 1_555
C11 H8 1_555 1_555
C12 C11 1_555 1_555
H9 C12 1_555 1_555
C13 C12 1_555 1_555
C14 C13 1_555 1_555
H10 C14 1_555 1_555
C15 N1 1_555 1_555
H11 C15 1_555 1_555
C16 C13 1_555 1_555
H12 C16 1_555 1_555
H13 C16 1_555 1_555
O5 Co1 1_555 1_555
H14 O5 1_555 1_555
H15 O5 1_555 1_555
Co1_2 N1A 1_555 1_555
N1A C11A 1_555 1_555
N1A_2 Co1 1_555 1_555
O1A Co1 1_555 1_555
O2A C1A 1_555 1_555
O3A C3A 1_555 1_555
O4A C10A 1_555 1_555
C1A O1A 1_555 1_555
C2A C1A 1_555 1_555
H1A C2A 1_555 1_555
H2A C2A 1_555 1_555
C3A C2A 1_555 1_555
H3A C3A 1_555 1_555
C4A C3A 1_555 1_555
C5A C4A 1_555 1_555
C6A C5A 1_555 1_555
H4A C6A 1_555 1_555
C7A C6A 1_555 1_555
H5A C7A 1_555 1_555
C8A C7A 1_555 1_555
H6A C8A 1_555 1_555
C9A C4A 1_555 1_555
H7A C9A 1_555 1_555
C10A O3A 1_555 1_555
C11A H8A 1_555 1_555
C12A C11A 1_555 1_555
H9A C12A 1_555 1_555
C13A C12A 1_555 1_555
C14A C13A 1_555 1_555
H10A C14A 1_555 1_555
C15A N1A 1_555 1_555
H11A C15A 1_555 1_555
C16A C16 1_555 1_555
H12A C16A 1_555 1_555
H13A C16A 1_555 1_555
O5A Co1 1_555 1_555
H14A O5A 1_555 1_555
H15A O5A 1_555 1_555
C5 C10 1_555 1_555
C8 C9 1_555 1_555
C14 C15 1_555 1_555
C5A C10A 1_555 1_555
C8A C9A 1_555 1_555
C13A C16A 1_555 1_555
C14A C15A 1_555 1_555

#END
