
#######################################################################
#
#                 Cambridge Crystallographic Data Centre
#                                CCDC 
#
#######################################################################
#
# If this CIF has been generated from an entry in the Cambridge 
# Structural Database, then it will include bibliographic, chemical, 
# crystal, experimental, refinement or atomic coordinate data resulting 
# from the CCDC's data processing and validation procedures.
#
#######################################################################

data_SECFOW
_symmetry_cell_setting           orthorhombic
_symmetry_space_group_name_H-M   'P n n m'
_symmetry_Int_Tables_number      58
_space_group_name_Hall           '-P 2 2n'
loop_
_symmetry_equiv_pos_site_id
_symmetry_equiv_pos_as_xyz
1 x,y,z
2 -x,-y,z
3 1/2+x,1/2-y,1/2-z
4 1/2-x,1/2+y,1/2-z
5 -x,-y,-z
6 x,y,-z
7 1/2-x,1/2+y,1/2+z
8 1/2+x,1/2-y,1/2+z
_cell_length_a                   15.561(7)
_cell_length_b                   10.754(5)
_cell_length_c                   6.514(3)
_cell_angle_alpha                90
_cell_angle_beta                 90
_cell_angle_gamma                90
_cell_volume                     1090.07
loop_
_atom_site_label
_atom_site_type_symbol
_atom_site_fract_x
_atom_site_fract_y
_atom_site_fract_z
Ag1 Ag 0.747494(15) 0.069448(19) 1.0000
O1 O 0.8926(2) -0.0258(4) 1.0000
N1 N 0.79429(15) 0.2753(2) 1.0000
N2 N 0.92347(16) 0.4033(2) 1.0000
N3 N 0.79661(10) 0.47343(16) 0.8103(3)
C1 C 0.89027(19) 0.2765(3) 1.0000
H1 H 0.9059(14) 0.229(2) 0.875(4)
C2 C 0.89280(13) 0.4691(2) 0.8180(3)
H2 H 0.9147(16) 0.551(2) 0.812(4)
H3 H 0.9120(16) 0.430(2) 0.690(4)
C3 C 0.76428(12) 0.3432(2) 0.8157(3)
H4 H 0.7044(16) 0.344(2) 0.813(4)
H5 H 0.7865(16) 0.302(2) 0.691(4)
C4 C 0.76631(18) 0.5373(3) 1.0000
H6 H 0.702(3) 0.539(3) 1.0000
H7 H 0.789(2) 0.619(3) 1.0000
H8 H 0.912(2) -0.044(3) 0.896(4)
Ag1C Ag 0.752506(15) 0.569448(19) 0.5000
Ag1C_2 Ag 0.752506(15) 0.569448(19) 1.5000
N3E N 0.79661(10) 0.47343(16) 1.1897(3)
N3C N 0.70339(10) -0.02657(16) 0.6897(3)
N3F N 0.70339(10) -0.02657(16) 1.3103(3)
H1E H 0.9059(14) 0.229(2) 1.125(4)
C2E C 0.89280(13) 0.4691(2) 1.1820(3)
H2E H 0.9147(16) 0.551(2) 1.188(4)
H3E H 0.9120(16) 0.430(2) 1.310(4)
C3E C 0.76428(12) 0.3432(2) 1.1843(3)
H4E H 0.7044(16) 0.344(2) 1.187(4)
H5E H 0.7865(16) 0.302(2) 1.309(4)
H8E H 0.912(2) -0.044(3) 1.104(4)
F1 F 0.92931(14) 0.2023(2) 0.5000
F2 F 1.0518(2) 0.3114(3) 0.5000
F3 F 1.0449(3) 0.1776(13) 0.7071(10)
B1 B 1.0182(3) 0.1985(4) 0.5000
F3E F 1.0449(3) 0.1776(13) 0.2929(10)
F4? F 1.0491(5) 0.1063(11) 0.615(2)
loop_
_geom_bond_atom_site_label_1
_geom_bond_atom_site_label_2
_geom_bond_site_symmetry_1
_geom_bond_site_symmetry_2
Ag1 O1 1_555 1_555
F1 B1 1_555 1_555
F2 B1 1_555 1_555
F3 B1 1_555 1_555
O1 H8 1_555 1_555
N1 Ag1 1_555 1_555
N2 C1 1_555 1_555
N3 C2 1_555 1_555
C1 N1 1_555 1_555
H1 C1 1_555 1_555
C2 N2 1_555 1_555
H2 C2 1_555 1_555
H3 C2 1_555 1_555
C3 N1 1_555 1_555
H4 C3 1_555 1_555
H5 C3 1_555 1_555
C4 N3 1_555 1_555
H6 C4 1_555 1_555
H7 C4 1_555 1_555
B1 F3E 1_555 1_555
Ag1C N3 1_555 1_555
Ag1C_2 N3E 1_555 1_555
N3E C4 1_555 1_555
N3C Ag1 1_555 1_555
N3F Ag1 1_555 1_555
H1E C1 1_555 1_555
C2E N2 1_555 1_555
H2E C2E 1_555 1_555
H3E C2E 1_555 1_555
C3E N1 1_555 1_555
H4E C3E 1_555 1_555
H5E C3E 1_555 1_555
H8E O1 1_555 1_555
N3 C3 1_555 1_555
N3E C2E 1_555 1_555
N3E C3E 1_555 1_555

#END
