
#######################################################################
#
#                 Cambridge Crystallographic Data Centre
#                                CCDC 
#
#######################################################################
#
# If this CIF has been generated from an entry in the Cambridge 
# Structural Database, then it will include bibliographic, chemical, 
# crystal, experimental, refinement or atomic coordinate data resulting 
# from the CCDC's data processing and validation procedures.
#
#######################################################################

data_SECPUM
_symmetry_cell_setting           triclinic
_symmetry_space_group_name_H-M   'P -1'
_symmetry_Int_Tables_number      2
_space_group_name_Hall           '-P 1'
loop_
_symmetry_equiv_pos_site_id
_symmetry_equiv_pos_as_xyz
1 x,y,z
2 -x,-y,-z
_cell_length_a                   9.967(2)
_cell_length_b                   12.950(3)
_cell_length_c                   14.945(3)
_cell_angle_alpha                106.90(3)
_cell_angle_beta                 102.94(3)
_cell_angle_gamma                102.11(3)
_cell_volume                     1718.88
loop_
_atom_site_label
_atom_site_type_symbol
_atom_site_fract_x
_atom_site_fract_y
_atom_site_fract_z
Cu1 Cu 1.0000 0.0000 0.0000
S1 S 1.1281(4) -0.1319(2) 0.26091(16)
N1 N 1.0633(6) -0.0480(4) 0.1106(3)
C1 C 1.0920(7) -0.0807(5) 0.1743(4)
N2 N 0.8933(5) 0.0941(3) 0.0763(2)
O1 O 1.1259(4) 0.3158(3) 0.3520(2)
N3 N 1.2393(5) 0.1707(3) 0.0784(3)
N4 N 1.4369(5) 0.3790(4) 0.3803(3)
H1 H 1.3455 0.3468 0.3571
N5 N 0.9442(5) 0.3825(4) 0.3803(3)
H2 H 0.8567 0.3823 0.3579
O2 O 1.6476(4) 0.4079(4) 0.3451(3)
C2 C 1.0008(6) 0.3157(4) 0.3242(3)
C3 C 0.9065(5) 0.2399(4) 0.2232(3)
C4 C 0.9608(6) 0.1627(4) 0.1694(3)
H3 H 1.0503 0.1579 0.1999
C5 C 0.7624(6) 0.0972(4) 0.0351(3)
H4 H 0.7136 0.0494 -0.0294
C6 C 0.6958(6) 0.1675(5) 0.0832(3)
H5 H 0.6029 0.1660 0.0525
C7 C 0.7700(6) 0.2418(4) 0.1798(3)
H6 H 0.7280 0.2914 0.2138
C8 C 1.0321(7) 0.4575(5) 0.4816(4)
H7 H 1.0402 0.4132 0.5238
H8 H 1.1282 0.4927 0.4818
C9 C 1.5155(6) 0.3718(4) 0.3185(3)
C10 C 1.4306(5) 0.3149(4) 0.2102(3)
C11 C 1.3150(6) 0.2190(4) 0.1742(3)
H9 H 1.2882 0.1865 0.2179
C12 C 1.2801(7) 0.2171(5) 0.0164(4)
H10 H 1.2270 0.1845 -0.0497
C13 C 1.3955(8) 0.3098(6) 0.0452(4)
H11 H 1.4221 0.3388 -0.0005
C14 C 1.4729(7) 0.3605(5) 0.1444(4)
H12 H 1.5521 0.4241 0.1662
C15 C 1.5009(7) 0.4398(5) 0.4866(3)
H13 H 1.5995 0.4376 0.5068
H14 H 1.4473 0.4030 0.5212
Cu1_2 Cu 1.0000 1.0000 1.0000
Cu1_3 Cu 2.0000 1.0000 1.0000
S1A S 0.8719(4) 0.1319(2) -0.26091(16)
N1A N 0.9367(6) 0.0480(4) -0.1106(3)
C1A C 0.9080(7) 0.0807(5) -0.1743(4)
N2A N 1.1067(5) 0.9059(3) 0.9237(2)
N2A_2 N 1.1067(5) -0.0941(3) -0.0763(2)
O1A O 0.8741(4) 0.6842(3) 0.6480(2)
N3A N 1.7607(5) 0.8293(3) 0.9216(3)
N3A_2 N 0.7607(5) -0.1707(3) -0.0784(3)
N4A N 1.5631(5) 0.6210(4) 0.6197(3)
H1A H 1.6545 0.6532 0.6429
N5A N 1.0558(5) 0.6175(4) 0.6197(3)
H2A H 1.1433 0.6177 0.6421
O2A O 1.3524(4) 0.5921(4) 0.6549(3)
C2A C 0.9992(6) 0.6843(4) 0.6758(3)
C3A C 1.0935(5) 0.7601(4) 0.7768(3)
C4A C 1.0392(6) 0.8373(4) 0.8306(3)
H3A H 0.9497 0.8421 0.8001
C5A C 1.2376(6) 0.9028(4) 0.9649(3)
H4A H 1.2864 0.9506 1.0294
C6A C 1.3042(6) 0.8325(5) 0.9168(3)
H5A H 1.3971 0.8340 0.9475
C7A C 1.2300(6) 0.7582(4) 0.8202(3)
H6A H 1.2720 0.7086 0.7862
C8A C 0.9679(7) 0.5425(5) 0.5184(4)
H7A H 0.9598 0.5868 0.4762
H8A H 0.8718 0.5073 0.5182
C9A C 1.4845(6) 0.6282(4) 0.6815(3)
C10A C 1.5694(5) 0.6851(4) 0.7898(3)
C11A C 1.6850(6) 0.7810(4) 0.8258(3)
H9A H 1.7118 0.8135 0.7821
C12A C 1.7199(7) 0.7829(5) 0.9836(4)
H10A H 1.7730 0.8155 1.0497
C13A C 1.6045(8) 0.6902(6) 0.9548(4)
H11A H 1.5779 0.6612 1.0005
C14A C 1.5271(7) 0.6395(5) 0.8556(4)
H12A H 1.4479 0.5759 0.8338
C15A C 1.4991(7) 0.5602(5) 0.5134(3)
H13A H 1.4005 0.5624 0.4932
H14A H 1.5527 0.5970 0.4788
N6 N 0.4395(12) 0.3309(7) 0.7939(7)
O3 O 0.3448(13) 0.3639(8) 0.8124(7)
O4 O 0.5487(12) 0.3470(11) 0.8491(6)
C16 C 0.4137(10) 0.2627(6) 0.6865(6)
C17 C 0.5064(10) 0.2057(8) 0.6656(8)
H15 H 0.5830 0.2070 0.7151
C18 C 0.4858(18) 0.1459(9) 0.5701(12)
H16 H 0.5506 0.1072 0.5535
C19 C 0.369(2) 0.1418(12) 0.4970(10)
H17 H 0.3521 0.0980 0.4318
C20 C 0.2785(15) 0.2053(14) 0.5241(10)
H18 H 0.2017 0.2072 0.4767
C21 C 0.3036(11) 0.2648(8) 0.6211(9)
H19 H 0.2428 0.3064 0.6404
N7 N 0.5653(9) -0.0108(6) 0.1995(4)
O5 O 0.5739(8) -0.0899(7) 0.1374(4)
O6 O 0.4657(7) 0.0289(7) 0.1881(5)
C22 C 0.6785(7) 0.0365(5) 0.2935(4)
C23 C 0.6631(9) 0.1231(6) 0.3664(5)
H20 H 0.5839 0.1503 0.3552
C24 C 0.7665(13) 0.1674(7) 0.4545(6)
H21 H 0.7593 0.2258 0.5051
C25 C 0.8801(13) 0.1265(10) 0.4684(6)
H22 H 0.9493 0.1566 0.5298
C26 C 0.8971(10) 0.0430(8) 0.3964(7)
H23 H 0.9780 0.0178 0.4078
C27 C 0.7932(8) -0.0041(6) 0.3061(6)
H24 H 0.8015 -0.0619 0.2554
N8 N 0.1443(19) 0.5647(9) 0.2794(7)
O7 O 0.2594(15) 0.5479(10) 0.2992(9)
O8 O 0.1092(18) 0.6292(7) 0.3360(6)
C28 C 0.0480(10) 0.4996(6) 0.1816(5)
C29 C 0.0809(9) 0.4153(6) 0.1187(6)
H25 H 0.1670 0.3991 0.1381
C30 C -0.1381(11) 0.3741(7) 0.0006(6)
H26 H -0.2016 0.3298 -0.0614
C31 C -0.0116(11) 0.3570(7) 0.0297(6)
H27 H 0.0133 0.3022 -0.0138
C32 C -0.1752(10) 0.4557(8) 0.0607(8)
H28 H -0.2632 0.4686 0.0396
C33 C -0.0812(13) 0.5210(6) 0.1550(7)
H29 H -0.1055 0.5768 0.1979
loop_
_geom_bond_atom_site_label_1
_geom_bond_atom_site_label_2
_geom_bond_site_symmetry_1
_geom_bond_site_symmetry_2
Cu1 N1 1_555 1_555
S1 C1 1_555 1_555
N1 C1 1_555 1_555
N2 Cu1 1_555 1_555
O1 C2 1_555 1_555
N3 Cu1 1_555 1_555
N4 H1 1_555 1_555
N5 H2 1_555 1_555
O2 C9 1_555 1_555
C2 N5 1_555 1_555
C3 C2 1_555 1_555
C4 N2 1_555 1_555
H3 C4 1_555 1_555
C5 N2 1_555 1_555
H4 C5 1_555 1_555
C6 C5 1_555 1_555
H5 C6 1_555 1_555
C7 C3 1_555 1_555
H6 C7 1_555 1_555
C8 N5 1_555 1_555
H7 C8 1_555 1_555
H8 C8 1_555 1_555
C9 N4 1_555 1_555
C10 C9 1_555 1_555
C11 N3 1_555 1_555
H9 C11 1_555 1_555
C12 N3 1_555 1_555
H10 C12 1_555 1_555
C13 C12 1_555 1_555
H11 C13 1_555 1_555
C14 C10 1_555 1_555
H12 C14 1_555 1_555
C15 N4 1_555 1_555
H13 C15 1_555 1_555
H14 C15 1_555 1_555
N6 O3 1_555 1_555
O4 N6 1_555 1_555
C16 N6 1_555 1_555
C17 C16 1_555 1_555
H15 C17 1_555 1_555
C18 C17 1_555 1_555
H16 C18 1_555 1_555
C19 C18 1_555 1_555
H17 C19 1_555 1_555
C20 C19 1_555 1_555
H18 C20 1_555 1_555
C21 C16 1_555 1_555
H19 C21 1_555 1_555
N7 O5 1_555 1_555
O6 N7 1_555 1_555
C22 N7 1_555 1_555
C23 C22 1_555 1_555
H20 C23 1_555 1_555
C24 C23 1_555 1_555
H21 C24 1_555 1_555
C25 C24 1_555 1_555
H22 C25 1_555 1_555
C26 C25 1_555 1_555
H23 C26 1_555 1_555
C27 C22 1_555 1_555
H24 C27 1_555 1_555
N8 O7 1_555 1_555
O8 N8 1_555 1_555
C28 N8 1_555 1_555
C29 C28 1_555 1_555
H25 C29 1_555 1_555
C30 H26 1_555 1_555
C31 C29 1_555 1_555
H27 C31 1_555 1_555
C32 C30 1_555 1_555
H28 C32 1_555 1_555
C33 C28 1_555 1_555
H29 C33 1_555 1_555
Cu1_2 N2A 1_555 1_555
Cu1_3 N3A 1_555 1_555
S1A C1A 1_555 1_555
N1A Cu1 1_555 1_555
C1A N1A 1_555 1_555
N2A C4A 1_555 1_555
N2A_2 Cu1 1_555 1_555
O1A C2A 1_555 1_555
N3A C11A 1_555 1_555
N3A_2 Cu1 1_555 1_555
N4A H1A 1_555 1_555
N5A H2A 1_555 1_555
O2A C9A 1_555 1_555
C2A N5A 1_555 1_555
C3A C2A 1_555 1_555
C4A C3A 1_555 1_555
H3A C4A 1_555 1_555
C5A N2A 1_555 1_555
H4A C5A 1_555 1_555
C6A C5A 1_555 1_555
H5A C6A 1_555 1_555
C7A C3A 1_555 1_555
H6A C7A 1_555 1_555
C8A C8 1_555 1_555
H7A C8A 1_555 1_555
H8A C8A 1_555 1_555
C9A N4A 1_555 1_555
C10A C9A 1_555 1_555
C11A C10A 1_555 1_555
H9A C11A 1_555 1_555
C12A N3A 1_555 1_555
H10A C12A 1_555 1_555
C13A C12A 1_555 1_555
H11A C13A 1_555 1_555
C14A C10A 1_555 1_555
H12A C14A 1_555 1_555
C15A C15 1_555 1_555
H13A C15A 1_555 1_555
H14A C15A 1_555 1_555
C3 C4 1_555 1_555
C6 C7 1_555 1_555
C10 C11 1_555 1_555
C13 C14 1_555 1_555
C20 C21 1_555 1_555
C26 C27 1_555 1_555
C30 C31 1_555 1_555
C32 C33 1_555 1_555
N4A C15A 1_555 1_555
N5A C8A 1_555 1_555
C6A C7A 1_555 1_555
C13A C14A 1_555 1_555

#END
