
#######################################################################
#
#                 Cambridge Crystallographic Data Centre
#                                CCDC 
#
#######################################################################
#
# If this CIF has been generated from an entry in the Cambridge 
# Structural Database, then it will include bibliographic, chemical, 
# crystal, experimental, refinement or atomic coordinate data resulting 
# from the CCDC's data processing and validation procedures.
#
#######################################################################

data_SECXAA
_symmetry_cell_setting           monoclinic
_symmetry_space_group_name_H-M   'P 2/c'
_symmetry_Int_Tables_number      13
_space_group_name_Hall           '-P 2yc'
loop_
_symmetry_equiv_pos_site_id
_symmetry_equiv_pos_as_xyz
1 x,y,z
2 -x,y,1/2-z
3 -x,-y,-z
4 x,-y,1/2+z
_cell_length_a                   10.797(2)
_cell_length_b                   11.371(2)
_cell_length_c                   20.680(4)
_cell_angle_alpha                90
_cell_angle_beta                 102.04(3)
_cell_angle_gamma                90
_cell_volume                     2483.09
loop_
_atom_site_label
_atom_site_type_symbol
_atom_site_fract_x
_atom_site_fract_y
_atom_site_fract_z
V1 V 0.79715(3) 0.62294(4) 0.991740(19)
N1 N 0.97968(17) 0.74507(17) 1.02559(9)
P1 P 1.04485(6) 0.54039(5) 1.09110(3)
C1 C 1.0932(2) 0.6716(2) 1.05149(12)
H1 H 1.1552 0.7173 1.0839
H2 H 1.1341 0.6484 1.0148
C2 C 0.9860(2) 0.8065(2) 0.96389(12)
H3 H 1.0270 0.7554 0.9357
H4 H 1.0371 0.8790 0.9739
C3 C 0.8519(2) 0.8375(2) 0.92754(13)
C4 C 0.9495(2) 0.8265(2) 1.07550(13)
H5 H 0.9366 0.9062 1.0559
H6 H 1.0229 0.8303 1.1132
C5 C 0.8331(2) 0.7926(2) 1.10123(12)
O1 O 0.66342(16) 0.55637(16) 0.97590(9)
O2 O 0.90976(14) 0.51750(14) 1.05304(8)
O3 O 1.13099(15) 0.43698(14) 1.08354(8)
O4 O 1.05192(17) 0.56643(15) 1.16382(8)
O5 O 0.76196(15) 0.77498(15) 0.94012(8)
O6 O 0.8385(2) 0.9191(2) 0.88767(13)
O7 O 0.76490(16) 0.70938(16) 1.07285(9)
O8 O 0.81061(19) 0.8511(2) 1.14873(9)
V1B V 1.20285(3) 0.37706(4) 1.008260(19)
N1B N 1.02032(17) 0.25493(17) 0.97441(9)
P1B P 0.95515(6) 0.45961(5) 0.90890(3)
C1B C 0.9068(2) 0.3284(2) 0.94851(12)
H1B H 0.8448 0.2827 0.9161
H2B H 0.8659 0.3516 0.9852
C2B C 1.0140(2) 0.1935(2) 1.03611(12)
H3B H 0.9730 0.2446 1.0643
H4B H 0.9629 0.1210 1.0261
C3B C 1.1481(2) 0.1625(2) 1.07246(13)
C4B C 1.0505(2) 0.1735(2) 0.92450(13)
H5B H 1.0634 0.0938 0.9441
H6B H 0.9771 0.1697 0.8868
C5B C 1.1669(2) 0.2074(2) 0.89877(12)
O1B O 1.33658(16) 0.44363(16) 1.02410(9)
O2B O 1.09024(14) 0.48250(14) 0.94696(8)
O3B O 0.86901(15) 0.56302(14) 0.91646(8)
O4B O 0.94808(17) 0.43357(15) 0.83618(8)
O5B O 1.23804(15) 0.22502(15) 1.05988(8)
O6B O 1.1615(2) 0.0809(2) 1.11233(13)
O7B O 1.23510(16) 0.29062(16) 0.92715(9)
O8B O 1.18939(19) 0.1489(2) 0.85127(9)
Co1 Co 0.5000 -0.06332(4) 0.2500
O9 O 0.31725(15) -0.06967(15) 0.18973(9)
H7 H 0.260(2) -0.123(2) 0.2027(13)
H8 H 0.271(2) -0.0132(19) 0.1615(12)
O10 O 0.57636(16) -0.05883(15) 0.16490(8)
H9 H 0.6543(14) -0.093(2) 0.1624(12)
H10 H 0.5235(19) -0.065(2) 0.1226(7)
N2 N 0.5000 0.1237(2) 0.2500
N3 N 0.5000 0.7484(2) 0.2500
C6 C 0.4544(2) 0.1855(2) 0.19488(11)
H11 H 0.4225 0.1436 0.1552
C7 C 0.4513(2) 0.3064(2) 0.19287(11)
H12 H 0.4162 0.3460 0.1528
C8 C 0.5000 0.3705(3) 0.2500
C9 C 0.5000 0.5012(3) 0.2500
C10 C 0.4431(2) 0.5654(2) 0.19438(12)
H13 H 0.4026 0.5258 0.1552
C11 C 0.4457(2) 0.6866(2) 0.19643(12)
H14 H 0.4069 0.7286 0.1578
Co1_2 Co 0.5000 0.93668(4) 0.2500
O9A O 0.68275(15) -0.06967(15) 0.31027(9)
H7A H 0.740(2) -0.123(2) 0.2973(13)
H8A H 0.729(2) -0.0132(19) 0.3385(12)
O10A O 0.42364(16) -0.05883(15) 0.33510(8)
H9A H 0.3457(14) -0.093(2) 0.3376(12)
H10A H 0.4765(19) -0.065(2) 0.3774(7)
N3_2 N 0.5000 -0.2516(2) 0.2500
C6A C 0.5456(2) 0.1855(2) 0.30512(11)
H11A H 0.5775 0.1436 0.3448
C7A C 0.5487(2) 0.3064(2) 0.30713(11)
H12A H 0.5838 0.3460 0.3472
C10A C 0.5569(2) 0.5654(2) 0.30562(12)
H13A H 0.5974 0.5258 0.3448
C11A C 0.5543(2) 0.6866(2) 0.30357(12)
H14A H 0.5931 0.7286 0.3422
N4 N 0.8323(2) 0.4268(2) 0.24543(11)
H15 H 0.871(3) 0.474(3) 0.2808(16)
N5 N 0.5675(2) 0.1112(2) -0.04219(10)
C12 C 0.8305(3) 0.3094(3) 0.24954(13)
H16 H 0.8665 0.2720 0.2902
C13 C 0.7772(3) 0.2424(3) 0.19549(12)
H17 H 0.7759 0.1590 0.1987
C14 C 0.7249(2) 0.2981(2) 0.13589(11)
C15 C 0.7271(2) 0.4205(2) 0.13394(12)
H18 H 0.6904 0.4608 0.0943
C16 C 0.7823(3) 0.4826(3) 0.18924(13)
H19 H 0.7849 0.5661 0.1876
C17 C 0.6556(2) 0.0621(3) 0.00507(13)
H20 H 0.6838 -0.0150 -0.0022
C18 C 0.7081(2) 0.1173(2) 0.06396(12)
H21 H 0.7697 0.0783 0.0964
C19 C 0.6693(2) 0.2307(2) 0.07497(11)
C20 C 0.5762(2) 0.2818(2) 0.02665(12)
H22 H 0.5458 0.3586 0.0326
C21 C 0.5285(2) 0.2189(3) -0.03025(13)
H23 H 0.4642 0.2544 -0.0628
O11 O 0.1548(2) 0.7731(2) 0.22203(10)
H24 H 0.110(3) 0.705(2) 0.2045(16)
H25 H 0.143(4) 0.786(3) 0.2652(9)
O12 O 0.9845(4) 0.0616(5) 0.1910(3)
loop_
_geom_bond_atom_site_label_1
_geom_bond_atom_site_label_2
_geom_bond_site_symmetry_1
_geom_bond_site_symmetry_2
V1 N1 1_555 1_555
N1 C1 1_555 1_555
P1 C1 1_555 1_555
C1 H1 1_555 1_555
H2 C1 1_555 1_555
C2 N1 1_555 1_555
H3 C2 1_555 1_555
H4 C2 1_555 1_555
C3 C2 1_555 1_555
C4 N1 1_555 1_555
H5 C4 1_555 1_555
H6 C4 1_555 1_555
C5 C4 1_555 1_555
O1 V1 1_555 1_555
O2 V1 1_555 1_555
O3 P1 1_555 1_555
O4 P1 1_555 1_555
O5 V1 1_555 1_555
O6 C3 1_555 1_555
O7 V1 1_555 1_555
O8 C5 1_555 1_555
Co1 O9 1_555 1_555
O9 H7 1_555 1_555
H8 O9 1_555 1_555
O10 Co1 1_555 1_555
H9 O10 1_555 1_555
H10 O10 1_555 1_555
N2 Co1 1_555 1_555
N3 C11 1_555 1_555
C6 N2 1_555 1_555
H11 C6 1_555 1_555
C7 C6 1_555 1_555
H12 C7 1_555 1_555
C8 C7 1_555 1_555
C9 C8 1_555 1_555
C10 C9 1_555 1_555
H13 C10 1_555 1_555
C11 C10 1_555 1_555
H14 C11 1_555 1_555
N4 H15 1_555 1_555
N5 C17 1_555 1_555
C12 N4 1_555 1_555
H16 C12 1_555 1_555
C13 C12 1_555 1_555
H17 C13 1_555 1_555
C14 C13 1_555 1_555
C15 C14 1_555 1_555
H18 C15 1_555 1_555
C16 N4 1_555 1_555
H19 C16 1_555 1_555
C17 H20 1_555 1_555
C18 C17 1_555 1_555
H21 C18 1_555 1_555
C19 C14 1_555 1_555
C20 C19 1_555 1_555
H22 C20 1_555 1_555
C21 N5 1_555 1_555
H23 C21 1_555 1_555
O11 H24 1_555 1_555
H25 O11 1_555 1_555
V1B O3 1_555 1_555
N1B V1B 1_555 1_555
P1B C1B 1_555 1_555
C1B N1B 1_555 1_555
H1B C1B 1_555 1_555
H2B C1B 1_555 1_555
C2B N1B 1_555 1_555
H3B C2B 1_555 1_555
H4B C2B 1_555 1_555
C3B C2B 1_555 1_555
C4B N1B 1_555 1_555
H5B C4B 1_555 1_555
H6B C4B 1_555 1_555
C5B C4B 1_555 1_555
O1B V1B 1_555 1_555
O2B V1B 1_555 1_555
O3B V1 1_555 1_555
O4B P1B 1_555 1_555
O5B V1B 1_555 1_555
O6B C3B 1_555 1_555
O7B V1B 1_555 1_555
O8B C5B 1_555 1_555
Co1_2 N3 1_555 1_555
O9A Co1 1_555 1_555
H7A O9A 1_555 1_555
H8A O9A 1_555 1_555
O10A Co1 1_555 1_555
H9A O10A 1_555 1_555
H10A O10A 1_555 1_555
N3_2 Co1 1_555 1_555
C6A N2 1_555 1_555
H11A C6A 1_555 1_555
C7A C8 1_555 1_555
H12A C7A 1_555 1_555
C10A C9 1_555 1_555
H13A C10A 1_555 1_555
C11A N3 1_555 1_555
H14A C11A 1_555 1_555
P1 O2 1_555 1_555
C3 O5 1_555 1_555
C5 O7 1_555 1_555
C15 C16 1_555 1_555
C18 C19 1_555 1_555
C20 C21 1_555 1_555
P1B O2B 1_555 1_555
P1B O3B 1_555 1_555
C3B O5B 1_555 1_555
C5B O7B 1_555 1_555
C6A C7A 1_555 1_555
C10A C11A 1_555 1_555

#END
