
#######################################################################
#
#                 Cambridge Crystallographic Data Centre
#                                CCDC 
#
#######################################################################
#
# If this CIF has been generated from an entry in the Cambridge 
# Structural Database, then it will include bibliographic, chemical, 
# crystal, experimental, refinement or atomic coordinate data resulting 
# from the CCDC's data processing and validation procedures.
#
#######################################################################

data_SEDJIV
_symmetry_cell_setting           triclinic
_symmetry_space_group_name_H-M   'P -1'
_symmetry_Int_Tables_number      2
_space_group_name_Hall           '-P 1'
loop_
_symmetry_equiv_pos_site_id
_symmetry_equiv_pos_as_xyz
1 x,y,z
2 -x,-y,-z
_cell_length_a                   11.4489(17)
_cell_length_b                   12.2137(19)
_cell_length_c                   13.357(2)
_cell_angle_alpha                105.404(2)
_cell_angle_beta                 100.976(2)
_cell_angle_gamma                104.254(2)
_cell_volume                     1678.55
loop_
_atom_site_label
_atom_site_type_symbol
_atom_site_fract_x
_atom_site_fract_y
_atom_site_fract_z
Ag1 Ag 1.0000 0.5000 0.5000
Ag2 Ag 0.46808(7) 0.06919(7) 0.23511(6)
N1 N 0.3523(7) 0.1840(7) 0.3085(6)
C1 C 0.2244(8) 0.1322(9) 0.2784(8)
H1 H 0.1871 0.0652 0.2142
C2 C 0.1485(9) 0.1722(8) 0.3363(9)
H2 H 0.0601 0.1369 0.3113
C3 C 0.2028(8) 0.2640(9) 0.4305(8)
H3 H 0.1526 0.2920 0.4740
C4 C 0.3342(9) 0.3179(9) 0.4642(8)
H4 H 0.3732 0.3831 0.5296
C5 C 0.4041(8) 0.2743(8) 0.4008(7)
C6 C 0.5431(8) 0.3295(8) 0.4261(7)
C7 C 0.6229(9) 0.3568(8) 0.5287(7)
H5 H 0.5888 0.3430 0.5853
C8 C 0.7477(8) 0.4023(8) 0.5477(7)
H6 H 0.8001 0.4165 0.6172
C9 C 0.7249(8) 0.4061(8) 0.3721(7)
H7 H 0.7595 0.4257 0.3175
C10 C 0.5968(8) 0.3548(8) 0.3476(7)
H8 H 0.5458 0.3370 0.2767
N2 N 0.8030(7) 0.4296(7) 0.4692(6)
N3 N 0.3687(7) 0.0421(7) 0.0628(6)
C11 C 0.3493(9) -0.0487(9) -0.4308(8)
H9 H 0.3969 -0.0869 -0.4707
C12 C 0.2613(10) -0.0079(10) -0.4822(9)
H10 H 0.2504 -0.0175 -0.5566
C13 C 0.1915(11) 0.0443(10) -0.4304(9)
H11 H 0.1315 0.0723 -0.4669
C14 C 0.2075(10) 0.0573(10) -0.3237(9)
H12 H 0.1577 0.0937 -0.2852
C15 C 0.2960(9) 0.0175(8) -0.2721(8)
C16 C 0.3199(8) 0.0257(9) -0.1559(8)
C17 C 0.3348(9) 0.1306(9) -0.0752(8)
H13 H 0.3275 0.1990 -0.0937
C18 C 0.3598(8) 0.1366(8) 0.0297(8)
H14 H 0.3717 0.2106 0.0830
C19 C 0.3458(9) -0.0633(8) -0.0200(7)
H15 H 0.3468 -0.1329 -0.0012
C20 C 0.3222(8) -0.0737(8) -0.1259(7)
H16 H 0.3074 -0.1486 -0.1790
N4 N 0.3687(7) -0.0353(7) -0.3249(6)
Ag2A Ag 1.53192(7) 0.93081(7) 0.76489(6)
Ag2A_2 Ag 0.53192(7) -0.06919(7) -0.23511(6)
N1A N 1.6477(7) 0.8160(7) 0.6915(6)
C1A C 1.7756(8) 0.8678(9) 0.7216(8)
H1A H 1.8129 0.9348 0.7858
C2A C 1.8515(9) 0.8278(8) 0.6637(9)
H2A H 1.9399 0.8631 0.6887
C3A C 1.7972(8) 0.7360(9) 0.5695(8)
H3A H 1.8474 0.7080 0.5260
C4A C 1.6658(9) 0.6821(9) 0.5358(8)
H4A H 1.6268 0.6169 0.4704
C5A C 1.5959(8) 0.7257(8) 0.5992(7)
C6A C 1.4569(8) 0.6705(8) 0.5739(7)
C7A C 1.3771(9) 0.6432(8) 0.4713(7)
H5A H 1.4112 0.6570 0.4147
C8A C 1.2523(8) 0.5977(8) 0.4523(7)
H6A H 1.1999 0.5835 0.3828
C9A C 1.2751(8) 0.5939(8) 0.6279(7)
H7A H 1.2405 0.5743 0.6825
C10A C 1.4032(8) 0.6452(8) 0.6524(7)
H8A H 1.4542 0.6630 0.7233
N2A N 1.1970(7) 0.5704(7) 0.5308(6)
N3A N 0.6313(7) -0.0421(7) -0.0628(6)
N3A_2 N 1.6313(7) 0.9579(7) 0.9372(6)
C11A C 0.6507(9) 0.0487(9) 0.4308(8)
H9A H 0.6031 0.0869 0.4707
C12A C 0.7387(10) 0.0079(10) 0.4822(9)
H10A H 0.7496 0.0175 0.5566
C13A C 0.8085(11) -0.0443(10) 0.4304(9)
H11A H 0.8685 -0.0723 0.4669
C14A C 0.7925(10) -0.0573(10) 0.3237(9)
H12A H 0.8423 -0.0937 0.2852
C15A C 0.7040(9) -0.0175(8) 0.2721(8)
C16A C 0.6801(8) -0.0257(9) 0.1559(8)
C17A C 0.6652(9) -0.1306(9) 0.0752(8)
H13A H 0.6725 -0.1990 0.0937
C18A C 0.6402(8) -0.1366(8) -0.0297(8)
H14A H 0.6283 -0.2106 -0.0830
C19A C 0.6542(9) 0.0633(8) 0.0200(7)
H15A H 0.6532 0.1329 0.0012
C20A C 0.6778(8) 0.0737(8) 0.1259(7)
H16A H 0.6926 0.1486 0.1790
N4A N 0.6313(7) 0.0353(7) 0.3249(6)
N4_2 N 1.3687(7) 0.9647(7) 0.6751(6)
W1 W 0.95521(3) 0.65538(3) 0.24924(3)
W2 W 0.70066(3) 0.42064(3) 0.04997(3)
W3 W 1.25145(3) 0.74142(3) 0.19533(3)
W4 W 1.25681(3) 0.44155(4) 0.14875(3)
W5 W 0.98985(4) 0.79955(4) 0.05203(3)
W6 W 0.95599(4) 0.35248(4) 0.19223(3)
P1 P 1.0000 0.5000 0.0000
O1 O 1.0369(8) 0.4116(6) 0.0535(6)
O4 O 0.8608(5) 0.4507(8) -0.0488(7)
O5 O 0.7896(8) 0.3412(6) 0.1284(6)
O6 O 0.6811(9) 0.2904(7) -0.0766(5)
O7 O 0.6809(9) 0.5132(7) -0.0390(6)
O8 O 0.9412(7) 0.7585(7) 0.1666(7)
O9 O 1.3697(7) 0.8538(8) 0.2891(6)
O10 O 1.1292(6) 0.7157(6) 0.2746(7)
O11 O 1.2893(9) 0.6066(6) 0.2222(5)
O12 O 1.3762(6) 0.4166(6) 0.2219(5)
O13 O 0.9764(7) 0.5148(6) 0.2746(6)
O14 O 0.9857(6) 0.9401(6) 0.0809(6)
O15 O 0.9350(6) 0.2864(5) 0.2857(5)
O16 O 0.8302(9) 0.7056(10) -0.0394(8)
O17 O 1.0493(7) 0.7769(11) -0.0758(8)
O18 O 0.5622(7) 0.3802(7) 0.0733(8)
O19 O 1.1571(6) 0.8216(7) 0.1297(7)
O20 O 0.9354(7) 0.7305(9) 0.3670(6)
O21 O 0.7872(8) 0.5594(6) 0.1662(7)
O22 O 1.1338(7) 0.4013(11) 0.2203(8)
W1A W 1.04479(3) 0.34462(3) -0.24924(3)
W2A W 1.29934(3) 0.57936(3) -0.04997(3)
W3A W 0.74855(3) 0.25858(3) -0.19533(3)
W4A W 0.74319(3) 0.55845(4) -0.14875(3)
W5A W 1.01015(4) 0.20045(4) -0.05203(3)
W6A W 1.04401(4) 0.64752(4) -0.19223(3)
O1A O 0.9631(8) 0.5884(6) -0.0535(6)
O4A O 1.1392(5) 0.5493(8) 0.0488(7)
O5A O 1.2104(8) 0.6588(6) -0.1284(6)
O6A O 1.3189(9) 0.7096(7) 0.0766(5)
O7A O 1.3191(9) 0.4868(7) 0.0390(6)
O8A O 1.0588(7) 0.2415(7) -0.1666(7)
O9A O 0.6303(7) 0.1462(8) -0.2891(6)
O10A O 0.8708(6) 0.2843(6) -0.2746(7)
O11A O 0.7107(9) 0.3934(6) -0.2222(5)
O12A O 0.6238(6) 0.5834(6) -0.2219(5)
O13A O 1.0236(7) 0.4852(6) -0.2746(6)
O14A O 1.0143(6) 0.0599(6) -0.0809(6)
O15A O 1.0650(6) 0.7136(5) -0.2857(5)
O16A O 1.1698(9) 0.2944(10) 0.0394(8)
O17A O 0.9507(7) 0.2231(11) 0.0758(8)
O18A O 1.4378(7) 0.6198(7) -0.0733(8)
O19A O 0.8429(6) 0.1784(7) -0.1297(7)
O20A O 1.0646(7) 0.2695(9) -0.3670(6)
O21A O 1.2128(8) 0.4406(6) -0.1662(7)
O22A O 0.8662(7) 0.5987(11) -0.2203(8)
O2? O 1.0354(9) 0.6174(6) 0.0886(6)
O3? O 1.0692(6) 0.5068(8) -0.0830(5)
loop_
_geom_bond_atom_site_label_1
_geom_bond_atom_site_label_2
_geom_bond_site_symmetry_1
_geom_bond_site_symmetry_2
W1 O8 1_555 1_555
W2 O4 1_555 1_555
W3 O9 1_555 1_555
W4 O1 1_555 1_555
W5 O8 1_555 1_555
W6 O1 1_555 1_555
P1 O1 1_555 1_555
O1 W5A 1_555 1_555
O4 P1 1_555 1_555
O5 W2 1_555 1_555
O6 W2 1_555 1_555
O7 W2 1_555 1_555
O10 W1 1_555 1_555
O11 W3 1_555 1_555
O12 W4 1_555 1_555
O13 W1 1_555 1_555
O14 W5 1_555 1_555
O15 W6 1_555 1_555
O16 W5 1_555 1_555
O17 W5 1_555 1_555
O18 W2 1_555 1_555
O19 W3 1_555 1_555
O20 W1 1_555 1_555
O21 W1 1_555 1_555
O22 W4 1_555 1_555
Ag1 N2 1_555 1_555
Ag2 N1 1_555 1_555
N1 C1 1_555 1_555
C1 H1 1_555 1_555
C2 C1 1_555 1_555
H2 C2 1_555 1_555
C3 C2 1_555 1_555
H3 C3 1_555 1_555
C4 C3 1_555 1_555
H4 C4 1_555 1_555
C5 N1 1_555 1_555
C6 C5 1_555 1_555
C7 C6 1_555 1_555
H5 C7 1_555 1_555
C8 C7 1_555 1_555
H6 C8 1_555 1_555
C9 H7 1_555 1_555
C10 C6 1_555 1_555
H8 C10 1_555 1_555
N2 C8 1_555 1_555
N3 Ag2 1_555 1_555
C11 H9 1_555 1_555
C12 C11 1_555 1_555
H10 C12 1_555 1_555
C13 C12 1_555 1_555
H11 C13 1_555 1_555
C14 C13 1_555 1_555
H12 C14 1_555 1_555
C15 C14 1_555 1_555
C16 C15 1_555 1_555
C17 C16 1_555 1_555
H13 C17 1_555 1_555
C18 N3 1_555 1_555
H14 C18 1_555 1_555
C19 N3 1_555 1_555
H15 C19 1_555 1_555
C20 C16 1_555 1_555
H16 C20 1_555 1_555
N4 C11 1_555 1_555
W1A O8A 1_555 1_555
W2A O4A 1_555 1_555
W3A O4 1_555 1_555
W4A O4 1_555 1_555
W5A O8A 1_555 1_555
W6A O17 1_555 1_555
O1A W5 1_555 1_555
O4A W3 1_555 1_555
O5A W2A 1_555 1_555
O6A W3 1_555 1_555
O7A W4 1_555 1_555
O9A W3A 1_555 1_555
O10A W1A 1_555 1_555
O11A W3A 1_555 1_555
O12A W4A 1_555 1_555
O13A W1A 1_555 1_555
O14A W5A 1_555 1_555
O15A W6A 1_555 1_555
O16A W4 1_555 1_555
O17A W6 1_555 1_555
O18A W2A 1_555 1_555
O19A W3A 1_555 1_555
O20A W1A 1_555 1_555
O21A W1A 1_555 1_555
O22A W4A 1_555 1_555
Ag2A N1A 1_555 1_555
Ag2A_2 N4 1_555 1_555
N1A C1A 1_555 1_555
C1A H1A 1_555 1_555
C2A C1A 1_555 1_555
H2A C2A 1_555 1_555
C3A C2A 1_555 1_555
H3A C3A 1_555 1_555
C4A C3A 1_555 1_555
H4A C4A 1_555 1_555
C5A N1A 1_555 1_555
C6A C5A 1_555 1_555
C7A C6A 1_555 1_555
H5A C7A 1_555 1_555
C8A C7A 1_555 1_555
H6A C8A 1_555 1_555
C9A H7A 1_555 1_555
C10A C6A 1_555 1_555
H8A C10A 1_555 1_555
N2A Ag1 1_555 1_555
N3A Ag2A_2 1_555 1_555
N3A_2 Ag2A 1_555 1_555
C11A H9A 1_555 1_555
C12A C11A 1_555 1_555
H10A C12A 1_555 1_555
C13A C12A 1_555 1_555
H11A C13A 1_555 1_555
C14A C13A 1_555 1_555
H12A C14A 1_555 1_555
C15A C14A 1_555 1_555
C16A C15A 1_555 1_555
C17A C16A 1_555 1_555
H13A C17A 1_555 1_555
C18A N3A 1_555 1_555
H14A C18A 1_555 1_555
C19A N3A 1_555 1_555
H15A C19A 1_555 1_555
C20A C16A 1_555 1_555
H16A C20A 1_555 1_555
N4A Ag2 1_555 1_555
N4_2 Ag2A 1_555 1_555
W2 O21 1_555 1_555
W3 O10 1_555 1_555
W4 O11 1_555 1_555
W4 O4A 1_555 1_555
W5 O19 1_555 1_555
W6 O5 1_555 1_555
W6 O13 1_555 1_555
W6 O22 1_555 1_555
P1 O1A 1_555 1_555
P1 O4A 1_555 1_555
O6 W3A 1_555 1_555
O7 W4A 1_555 1_555
O16 W4A 1_555 1_555
C4 C5 1_555 1_555
C9 C10 1_555 1_555
C9 N2 1_555 1_555
C15 N4 1_555 1_555
C17 C18 1_555 1_555
C19 C20 1_555 1_555
W2A O6A 1_555 1_555
W2A O7A 1_555 1_555
W2A O21A 1_555 1_555
W3A O10A 1_555 1_555
W4A O1A 1_555 1_555
W4A O11A 1_555 1_555
W5A O16A 1_555 1_555
W5A O17A 1_555 1_555
W5A O19A 1_555 1_555
W6A O1A 1_555 1_555
W6A O5A 1_555 1_555
W6A O13A 1_555 1_555
W6A O22A 1_555 1_555
C4A C5A 1_555 1_555
C8A N2A 1_555 1_555
C9A C10A 1_555 1_555
C9A N2A 1_555 1_555
C11A N4A 1_555 1_555
C15A N4A 1_555 1_555
C17A C18A 1_555 1_555
C19A C20A 1_555 1_555

#END
