
#######################################################################
#
#                 Cambridge Crystallographic Data Centre
#                                CCDC 
#
#######################################################################
#
# If this CIF has been generated from an entry in the Cambridge 
# Structural Database, then it will include bibliographic, chemical, 
# crystal, experimental, refinement or atomic coordinate data resulting 
# from the CCDC's data processing and validation procedures.
#
#######################################################################

data_SEDJUH
_symmetry_cell_setting           triclinic
_symmetry_space_group_name_H-M   'P -1'
_symmetry_Int_Tables_number      2
_space_group_name_Hall           '-P 1'
loop_
_symmetry_equiv_pos_site_id
_symmetry_equiv_pos_as_xyz
1 x,y,z
2 -x,-y,-z
_cell_length_a                   11.2758(19)
_cell_length_b                   12.141(2)
_cell_length_c                   13.492(2)
_cell_angle_alpha                106.211(3)
_cell_angle_beta                 101.978(3)
_cell_angle_gamma                102.460(3)
_cell_volume                     1659.71
loop_
_atom_site_label
_atom_site_type_symbol
_atom_site_fract_x
_atom_site_fract_y
_atom_site_fract_z
Cu1 Cu 1.0000 0.5000 0.5000
Cu2 Cu 0.46579(13) 0.07880(13) 0.22733(11)
N1 N 0.3701(8) 0.1805(8) 0.3089(7)
C1 C 0.2444(12) 0.1311(12) 0.2807(11)
H1 H 0.2048 0.0659 0.2151
C2 C 0.1720(10) 0.1711(12) 0.3429(12)
H2 H 0.0833 0.1331 0.3205
C3 C 0.2235(12) 0.2626(13) 0.4347(13)
H3 H 0.1724 0.2896 0.4785
C4 C 0.3539(12) 0.3188(13) 0.4662(11)
H4 H 0.3927 0.3860 0.5304
C5 C 0.4249(10) 0.2740(10) 0.4012(9)
C6 C 0.5630(10) 0.3304(10) 0.4242(8)
C7 C 0.6419(12) 0.3606(12) 0.5268(9)
H5 H 0.6086 0.3477 0.5831
C8 C 0.7699(11) 0.4098(12) 0.5457(9)
H6 H 0.8244 0.4261 0.6153
C9 C 0.7424(10) 0.4136(11) 0.3737(9)
H7 H 0.7759 0.4362 0.3209
C10 C 0.6146(10) 0.3595(11) 0.3479(9)
H8 H 0.5619 0.3422 0.2774
N2 N 0.8218(9) 0.4360(9) 0.4709(8)
N3 N 0.3766(8) 0.0451(8) 0.0732(7)
C11 C 0.3768(13) -0.0505(11) -0.4083(10)
H9 H 0.4324 -0.0847 -0.4423
C12 C 0.2886(14) -0.0153(13) -0.4685(10)
H10 H 0.2810 -0.0266 -0.5423
C13 C 0.2116(15) 0.0372(16) -0.4167(11)
H11 H 0.1498 0.0642 -0.4549
C14 C 0.2232(14) 0.0509(13) -0.3112(11)
H12 H 0.1704 0.0874 -0.2751
C15 C 0.3128(10) 0.0108(10) -0.2583(9)
C16 C 0.3306(10) 0.0218(11) -0.1430(9)
C17 C 0.3464(11) 0.1297(10) -0.0660(9)
H13 H 0.3410 0.1977 -0.0863
C18 C 0.3698(11) 0.1387(11) 0.0394(10)
H14 H 0.3820 0.2143 0.0916
C19 C 0.3508(12) -0.0621(9) -0.0056(9)
H15 H 0.3481 -0.1316 0.0143
C20 C 0.3292(12) -0.0743(10) -0.1100(9)
H16 H 0.3127 -0.1513 -0.1617
N4 N 0.3901(8) -0.0403(8) -0.3063(7)
Cu2A Cu 1.53421(13) 0.92120(13) 0.77267(11)
Cu2A_2 Cu 0.53421(13) -0.07880(13) -0.22733(11)
N1A N 1.6299(8) 0.8195(8) 0.6911(7)
C1A C 1.7556(12) 0.8689(12) 0.7193(11)
H1A H 1.7952 0.9341 0.7849
C2A C 1.8280(10) 0.8289(12) 0.6571(12)
H2A H 1.9167 0.8669 0.6795
C3A C 1.7765(12) 0.7374(13) 0.5653(13)
H3A H 1.8276 0.7104 0.5215
C4A C 1.6461(12) 0.6812(13) 0.5338(11)
H4A H 1.6073 0.6140 0.4696
C5A C 1.5751(10) 0.7260(10) 0.5988(9)
C6A C 1.4370(10) 0.6696(10) 0.5758(8)
C7A C 1.3581(12) 0.6394(12) 0.4732(9)
H5A H 1.3914 0.6523 0.4169
C8A C 1.2301(11) 0.5902(12) 0.4543(9)
H6A H 1.1756 0.5739 0.3847
C9A C 1.2576(10) 0.5864(11) 0.6263(9)
H7A H 1.2241 0.5638 0.6791
C10A C 1.3854(10) 0.6405(11) 0.6521(9)
H8A H 1.4381 0.6578 0.7226
N2A N 1.1782(9) 0.5640(9) 0.5291(8)
N3A N 0.6234(8) -0.0451(8) -0.0732(7)
N3A_2 N 1.6234(8) 0.9549(8) 0.9268(7)
C11A C 0.6232(13) 0.0505(11) 0.4083(10)
H9A H 0.5676 0.0847 0.4423
C12A C 0.7114(14) 0.0153(13) 0.4685(10)
H10A H 0.7190 0.0266 0.5423
C13A C 0.7884(15) -0.0372(16) 0.4167(11)
H11A H 0.8502 -0.0642 0.4549
C14A C 0.7768(14) -0.0509(13) 0.3112(11)
H12A H 0.8296 -0.0874 0.2751
C15A C 0.6872(10) -0.0108(10) 0.2583(9)
C16A C 0.6694(10) -0.0218(11) 0.1430(9)
C17A C 0.6536(11) -0.1297(10) 0.0660(9)
H13A H 0.6590 -0.1977 0.0863
C18A C 0.6302(11) -0.1387(11) -0.0394(10)
H14A H 0.6180 -0.2143 -0.0916
C19A C 0.6492(12) 0.0621(9) 0.0056(9)
H15A H 0.6519 0.1316 -0.0143
C20A C 0.6708(12) 0.0743(10) 0.1100(9)
H16A H 0.6873 0.1513 0.1617
N4A N 0.6099(8) 0.0403(8) 0.3063(7)
N4_2 N 1.3901(8) 0.9597(8) 0.6937(7)
W1 W 0.94831(4) 0.65575(4) 0.24547(3)
W2 W 0.69706(4) 0.42121(4) 0.04250(3)
W3 W 1.24930(4) 0.73961(4) 0.20000(3)
W4 W 1.26023(4) 0.43952(5) 0.15032(4)
W5 W 1.01491(4) 0.19906(4) -0.05395(4)
W6 W 0.95642(4) 0.35203(5) 0.18718(3)
P1 P 1.0000 0.5000 0.0000
O1 O 1.0375(10) 0.3992(7) 0.0451(9)
O4 O 0.9109(7) 0.4843(10) 0.0716(8)
O5 O 0.7880(8) 0.3417(7) 0.1193(8)
O6 O 0.6767(11) 0.2894(9) -0.0856(7)
O7 O 0.6735(11) 0.5135(8) -0.0468(7)
O8 O 0.9314(8) 0.7601(8) 0.1657(8)
O9 O 1.3644(9) 0.8542(10) 0.2970(7)
O10 O 1.1237(8) 0.7150(8) 0.2745(8)
O11 O 1.2879(11) 0.6029(8) 0.2248(7)
O12 O 1.3809(8) 0.4105(8) 0.2233(7)
O13 O 0.9708(8) 0.5154(7) 0.2692(7)
O14 O 1.0215(8) 0.0584(8) -0.0827(7)
O15 O 0.9347(9) 0.2838(7) 0.2782(6)
O16 O 1.1764(9) 0.2915(13) 0.0409(9)
O17 O 0.9536(10) 0.2261(14) 0.0683(9)
O18 O 0.5560(8) 0.3809(9) 0.0645(9)
O19 O 1.1538(7) 0.8235(8) 0.1346(8)
O20 O 0.9259(10) 0.7293(12) 0.3617(8)
O21 O 0.7813(8) 0.5629(7) 0.1602(7)
O22 O 1.1355(8) 0.4006(13) 0.2200(9)
W1A W 1.05169(4) 0.34425(4) -0.24547(3)
W2A W 1.30294(4) 0.57879(4) -0.04250(3)
W3A W 0.75070(4) 0.26039(4) -0.20000(3)
W4A W 0.73977(4) 0.56048(5) -0.15032(4)
W5A W 0.98509(4) 0.80094(4) 0.05395(4)
W6A W 1.04358(4) 0.64797(5) -0.18718(3)
O1A O 0.9625(10) 0.6008(7) -0.0451(9)
O4A O 1.0891(7) 0.5157(10) -0.0716(8)
O5A O 1.2120(8) 0.6583(7) -0.1193(8)
O6A O 1.3233(11) 0.7106(9) 0.0856(7)
O7A O 1.3265(11) 0.4865(8) 0.0468(7)
O8A O 1.0686(8) 0.2399(8) -0.1657(8)
O9A O 0.6356(9) 0.1458(10) -0.2970(7)
O10A O 0.8763(8) 0.2850(8) -0.2745(8)
O11A O 0.7121(11) 0.3971(8) -0.2248(7)
O12A O 0.6191(8) 0.5895(8) -0.2233(7)
O13A O 1.0292(8) 0.4846(7) -0.2692(7)
O14A O 0.9785(8) 0.9416(8) 0.0827(7)
O15A O 1.0653(9) 0.7162(7) -0.2782(6)
O16A O 0.8236(9) 0.7085(13) -0.0409(9)
O17A O 1.0464(10) 0.7739(14) -0.0683(9)
O18A O 1.4440(8) 0.6191(9) -0.0645(9)
O19A O 0.8462(7) 0.1765(8) -0.1346(8)
O20A O 1.0741(10) 0.2707(12) -0.3617(8)
O21A O 1.2187(8) 0.4371(7) -0.1602(7)
O22A O 0.8645(8) 0.5994(13) -0.2200(9)
O2? O 1.0312(10) 0.6278(7) 0.0886(9)
O3? O 1.1473(6) 0.5484(10) 0.0370(10)
loop_
_geom_bond_atom_site_label_1
_geom_bond_atom_site_label_2
_geom_bond_site_symmetry_1
_geom_bond_site_symmetry_2
W1 O4 1_555 1_555
W2 O4 1_555 1_555
W3 O9 1_555 1_555
W4 O1 1_555 1_555
W5 O1 1_555 1_555
W6 O1 1_555 1_555
P1 O1 1_555 1_555
O4 W6 1_555 1_555
O5 W2 1_555 1_555
O6 W2 1_555 1_555
O7 W2 1_555 1_555
O8 W1 1_555 1_555
O10 W1 1_555 1_555
O11 W3 1_555 1_555
O12 W4 1_555 1_555
O13 W1 1_555 1_555
O14 W5 1_555 1_555
O15 W6 1_555 1_555
O16 W4 1_555 1_555
O17 W5 1_555 1_555
O18 W2 1_555 1_555
O19 W3 1_555 1_555
O20 W1 1_555 1_555
O21 W1 1_555 1_555
O22 W4 1_555 1_555
Cu1 N2 1_555 1_555
Cu2 N1 1_555 1_555
N1 C1 1_555 1_555
C1 H1 1_555 1_555
C2 C1 1_555 1_555
H2 C2 1_555 1_555
C3 C2 1_555 1_555
H3 C3 1_555 1_555
C4 C3 1_555 1_555
H4 C4 1_555 1_555
C5 N1 1_555 1_555
C6 C5 1_555 1_555
C7 C6 1_555 1_555
H5 C7 1_555 1_555
C8 C7 1_555 1_555
H6 C8 1_555 1_555
C9 H7 1_555 1_555
C10 C6 1_555 1_555
H8 C10 1_555 1_555
N2 C8 1_555 1_555
N3 Cu2 1_555 1_555
C11 H9 1_555 1_555
C12 C11 1_555 1_555
H10 C12 1_555 1_555
C13 C12 1_555 1_555
H11 C13 1_555 1_555
C14 C13 1_555 1_555
H12 C14 1_555 1_555
C15 C14 1_555 1_555
C16 C15 1_555 1_555
C17 C16 1_555 1_555
H13 C17 1_555 1_555
C18 N3 1_555 1_555
H14 C18 1_555 1_555
C19 N3 1_555 1_555
H15 C19 1_555 1_555
C20 C16 1_555 1_555
H16 C20 1_555 1_555
N4 C11 1_555 1_555
W1A O4A 1_555 1_555
W2A O4A 1_555 1_555
W3A O6 1_555 1_555
W4A O7 1_555 1_555
W5A O8 1_555 1_555
W6A O1A 1_555 1_555
O1A P1 1_555 1_555
O4A P1 1_555 1_555
O5A W2A 1_555 1_555
O6A W3 1_555 1_555
O7A W4 1_555 1_555
O8A W5 1_555 1_555
O9A W3A 1_555 1_555
O10A W1A 1_555 1_555
O11A W3A 1_555 1_555
O12A W4A 1_555 1_555
O13A W1A 1_555 1_555
O14A W5A 1_555 1_555
O15A W6A 1_555 1_555
O16A W4A 1_555 1_555
O17A W5A 1_555 1_555
O18A W2A 1_555 1_555
O19A W5 1_555 1_555
O20A W1A 1_555 1_555
O21A W1A 1_555 1_555
O22A W4A 1_555 1_555
Cu2A N1A 1_555 1_555
Cu2A_2 N4 1_555 1_555
N1A C1A 1_555 1_555
C1A H1A 1_555 1_555
C2A C1A 1_555 1_555
H2A C2A 1_555 1_555
C3A C2A 1_555 1_555
H3A C3A 1_555 1_555
C4A C3A 1_555 1_555
H4A C4A 1_555 1_555
C5A N1A 1_555 1_555
C6A C5A 1_555 1_555
C7A C6A 1_555 1_555
H5A C7A 1_555 1_555
C8A C7A 1_555 1_555
H6A C8A 1_555 1_555
C9A H7A 1_555 1_555
C10A C6A 1_555 1_555
H8A C10A 1_555 1_555
N2A Cu1 1_555 1_555
N3A Cu2A_2 1_555 1_555
N3A_2 Cu2A 1_555 1_555
C11A H9A 1_555 1_555
C12A C11A 1_555 1_555
H10A C12A 1_555 1_555
C13A C12A 1_555 1_555
H11A C13A 1_555 1_555
C14A C13A 1_555 1_555
H12A C14A 1_555 1_555
C15A C14A 1_555 1_555
C16A C15A 1_555 1_555
C17A C16A 1_555 1_555
H13A C17A 1_555 1_555
C18A N3A 1_555 1_555
H14A C18A 1_555 1_555
C19A N3A 1_555 1_555
H15A C19A 1_555 1_555
C20A C16A 1_555 1_555
H16A C20A 1_555 1_555
N4A Cu2 1_555 1_555
N4_2 Cu2A 1_555 1_555
W2 O21 1_555 1_555
W3 O10 1_555 1_555
W4 O11 1_555 1_555
W5 O16 1_555 1_555
W6 O5 1_555 1_555
W6 O13 1_555 1_555
W6 O17 1_555 1_555
W6 O22 1_555 1_555
P1 O4 1_555 1_555
O19 W5A 1_555 1_555
C4 C5 1_555 1_555
C9 C10 1_555 1_555
C9 N2 1_555 1_555
C15 N4 1_555 1_555
C17 C18 1_555 1_555
C19 C20 1_555 1_555
W1A O8A 1_555 1_555
W2A O6A 1_555 1_555
W2A O7A 1_555 1_555
W2A O21A 1_555 1_555
W3A O10A 1_555 1_555
W3A O19A 1_555 1_555
W4A O1A 1_555 1_555
W4A O11A 1_555 1_555
W5A O1A 1_555 1_555
W5A O16A 1_555 1_555
W6A O4A 1_555 1_555
W6A O5A 1_555 1_555
W6A O13A 1_555 1_555
W6A O17A 1_555 1_555
W6A O22A 1_555 1_555
C4A C5A 1_555 1_555
C8A N2A 1_555 1_555
C9A C10A 1_555 1_555
C9A N2A 1_555 1_555
C11A N4A 1_555 1_555
C15A N4A 1_555 1_555
C17A C18A 1_555 1_555
C19A C20A 1_555 1_555

#END
