
#######################################################################
#
#                 Cambridge Crystallographic Data Centre
#                                CCDC 
#
#######################################################################
#
# If this CIF has been generated from an entry in the Cambridge 
# Structural Database, then it will include bibliographic, chemical, 
# crystal, experimental, refinement or atomic coordinate data resulting 
# from the CCDC's data processing and validation procedures.
#
#######################################################################

data_SEDLAP
_symmetry_cell_setting           monoclinic
_symmetry_space_group_name_H-M   'P 21/n'
_symmetry_Int_Tables_number      14
_space_group_name_Hall           '-P 2yn'
loop_
_symmetry_equiv_pos_site_id
_symmetry_equiv_pos_as_xyz
1 x,y,z
2 1/2-x,1/2+y,1/2-z
3 -x,-y,-z
4 1/2+x,1/2-y,1/2+z
_cell_length_a                   9.5178(2)
_cell_length_b                   14.6999(3)
_cell_length_c                   14.8740(3)
_cell_angle_alpha                90
_cell_angle_beta                 91.2425(9)
_cell_angle_gamma                90
_cell_volume                     2080.54
loop_
_atom_site_label
_atom_site_type_symbol
_atom_site_fract_x
_atom_site_fract_y
_atom_site_fract_z
Sm1 Sm -0.18894(2) 0.346122(16) 0.905591(14)
Sm2 Sm 0.02774(2) 0.163770(16) 0.745159(14)
C1 C 0.1149(4) 0.3548(3) 0.8731(3)
C2 C 0.2694(4) 0.3539(3) 0.8658(3)
H1 H 0.3082 0.3724 0.8104
C3 C 0.3570(4) 0.3290(3) 0.9310(3)
H2 H 0.3208 0.3113 0.9874
C4 C 0.5116(4) 0.3281(3) 0.9180(3)
C5 C -0.2799(4) 0.1844(3) 0.7338(3)
C6 C -0.4354(5) 0.1849(3) 0.7283(3)
H3 H -0.4874 0.1983 0.7805
C7 C -0.5025(4) 0.1670(3) 0.6522(3)
H4 H -0.4479 0.1583 0.6002
C8 C -0.6587(4) 0.1594(3) 0.6416(3)
C9 C 0.0132(4) 0.1628(3) 0.9729(3)
C10 C 0.0397(5) 0.1017(3) 1.0509(3)
H5 H 0.1266 0.0700 1.0547
C11 C -0.0518(5) 0.0893(3) 1.1151(3)
H6 H -0.1290 0.1300 1.1188
C12 C -0.0393(5) 0.0153(3) 1.1813(3)
O1 O 0.0394(3) 0.3169(2) 0.81365(19)
O2 O 0.0594(3) 0.3950(2) 0.9388(2)
O3 O 0.5864(3) 0.2692(2) 0.9578(2)
O4 O 0.5655(3) 0.3871(2) 0.8672(2)
O5 O -0.2162(3) 0.2212(2) 0.8011(2)
O6 O -0.2107(3) 0.1471(2) 0.6735(2)
O7 O -0.7045(3) 0.1272(2) 0.5677(2)
O8 O -0.7334(3) 0.1803(2) 0.7062(2)
O9 O -0.0892(3) 0.2179(2) 0.9768(2)
O10 O 0.0919(3) 0.1545(2) 0.9065(2)
O11 O -0.1487(3) -0.0137(2) 1.2180(2)
O12 O 0.0796(3) -0.0237(2) 1.1954(2)
O13 O -0.1895(3) 0.4268(2) 0.7615(2)
O14 O -0.2146(3) 0.5052(2) 0.9399(2)
O15 O 0.0175(3) 0.2799(2) 0.6289(2)
O16 O 0.0335(3) 0.0722(2) 0.6061(2)
H7 H -0.250(4) 0.470(3) 0.736(4)
H8 H -0.102(3) 0.436(4) 0.734(4)
H9 H -0.158(5) 0.537(3) 0.981(3)
H10 H -0.242(5) 0.550(3) 0.897(3)
H11 H 0.035(6) 0.269(4) 0.566(2)
H12 H 0.032(6) 0.3451(19) 0.633(4)
H13 H 0.123(4) 0.080(4) 0.583(4)
H14 H 0.008(5) 0.013(2) 0.608(4)
Sm1_2 Sm 0.81106(2) 0.346122(16) 0.905591(14)
Sm1C Sm -0.68894(2) 0.153878(16) 0.405591(14)
Sm2_2 Sm -0.97226(2) 0.163770(16) 0.745159(14)
Sm2B Sm -0.02774(2) -0.163770(16) 1.254841(14)
O3_2 O -0.4136(3) 0.2692(2) 0.9578(2)
O4_2 O -0.4345(3) 0.3871(2) 0.8672(2)
O7C O -0.2045(3) 0.3728(2) 1.0677(2)
O8_2 O 0.2666(3) 0.1803(2) 0.7062(2)
O11B O 0.1487(3) 0.0137(2) 0.7820(2)
O12B O -0.0796(3) 0.0237(2) 0.8046(2)
O17 O 0.0670(4) 0.4631(3) 0.6683(3)
H15 H 0.157(4) 0.482(4) 0.690(3)
H16 H 0.041(5) 0.499(4) 0.622(3)
O18 O -0.1475(7) 0.5671(5) 0.5678(4)
O19 O 0.1261(7) 0.5951(5) 0.5452(5)
loop_
_geom_bond_atom_site_label_1
_geom_bond_atom_site_label_2
_geom_bond_site_symmetry_1
_geom_bond_site_symmetry_2
Sm1 O1 1_555 1_555
Sm2 O1 1_555 1_555
C1 C2 1_555 1_555
C2 H1 1_555 1_555
C3 C2 1_555 1_555
H2 C3 1_555 1_555
C4 C3 1_555 1_555
C5 C6 1_555 1_555
C6 H3 1_555 1_555
C7 C6 1_555 1_555
H4 C7 1_555 1_555
C8 C7 1_555 1_555
C9 C10 1_555 1_555
C10 H5 1_555 1_555
C11 C10 1_555 1_555
H6 C11 1_555 1_555
C12 C11 1_555 1_555
O1 C1 1_555 1_555
O2 Sm1 1_555 1_555
O3 C4 1_555 1_555
O4 C4 1_555 1_555
O5 Sm1 1_555 1_555
O6 Sm2 1_555 1_555
O7 C8 1_555 1_555
O8 C8 1_555 1_555
O9 Sm1 1_555 1_555
O10 Sm2 1_555 1_555
O11 C12 1_555 1_555
O12 C12 1_555 1_555
O13 Sm1 1_555 1_555
O14 Sm1 1_555 1_555
O15 Sm2 1_555 1_555
O16 Sm2 1_555 1_555
O17 H15 1_555 1_555
H7 O13 1_555 1_555
H8 O13 1_555 1_555
H9 O14 1_555 1_555
H10 O14 1_555 1_555
H11 O15 1_555 1_555
H12 O15 1_555 1_555
H13 O16 1_555 1_555
H14 O16 1_555 1_555
H16 O17 1_555 1_555
Sm1_2 O3 1_555 1_555
Sm1C O7 1_555 1_555
Sm2_2 O8 1_555 1_555
Sm2B O11 1_555 1_555
O3_2 Sm1 1_555 1_555
O4_2 Sm1 1_555 1_555
O7C Sm1 1_555 1_555
O8_2 Sm2 1_555 1_555
O11B Sm2 1_555 1_555
O12B Sm2 1_555 1_555
Sm2 O5 1_555 1_555
C1 O2 1_555 1_555
C5 O5 1_555 1_555
C5 O6 1_555 1_555
C9 O9 1_555 1_555
C9 O10 1_555 1_555
O4 Sm1_2 1_555 1_555
O12 Sm2B 1_555 1_555

#END
