
#######################################################################
#
#                 Cambridge Crystallographic Data Centre
#                                CCDC 
#
#######################################################################
#
# If this CIF has been generated from an entry in the Cambridge 
# Structural Database, then it will include bibliographic, chemical, 
# crystal, experimental, refinement or atomic coordinate data resulting 
# from the CCDC's data processing and validation procedures.
#
#######################################################################

data_SEDLET
_symmetry_cell_setting           monoclinic
_symmetry_space_group_name_H-M   'P 21/c'
_symmetry_Int_Tables_number      14
_space_group_name_Hall           '-P 2ybc'
loop_
_symmetry_equiv_pos_site_id
_symmetry_equiv_pos_as_xyz
1 x,y,z
2 -x,1/2+y,1/2-z
3 -x,-y,-z
4 x,1/2-y,1/2+z
_cell_length_a                   17.8522(4)
_cell_length_b                   23.0986(5)
_cell_length_c                   37.9215(9)
_cell_angle_alpha                90
_cell_angle_beta                 99.417(2)
_cell_angle_gamma                90
_cell_volume                     15426.6
loop_
_atom_site_label
_atom_site_type_symbol
_atom_site_fract_x
_atom_site_fract_y
_atom_site_fract_z
Ti1 Ti 0.66611(3) 0.83444(3) 0.792731(16)
Ti2 Ti 0.94581(3) 0.83862(3) 0.563686(16)
S1 S 0.53368(5) 0.83090(4) 0.79265(2)
S2 S 0.62873(5) 0.78295(4) 0.73609(2)
S3 S 0.82274(5) 0.79573(4) 0.56919(2)
S4 S 0.92783(5) 0.78152(4) 0.51084(2)
N1 N 0.58921(17) 0.73182(14) 0.66185(8)
H1 H 0.6189 0.7494 0.6794
N2 N 0.66563(18) 0.75874(15) 0.57729(9)
H2 H 0.7132 0.7678 0.5854
O1 O 0.47384(15) 0.69557(12) 0.64185(7)
O2 O 0.58394(17) 0.72421(15) 0.53138(8)
C1 C 0.52974(19) 0.77143(14) 0.72867(9)
C2 C 0.4899(2) 0.78923(15) 0.75614(9)
C3 C 0.4130(2) 0.77611(17) 0.75445(11)
H3 H 0.3870 0.7889 0.7730
C4 C 0.3746(2) 0.74485(18) 0.72623(11)
H4 H 0.3229 0.7347 0.7258
C5 C 0.4119(2) 0.72843(15) 0.69860(10)
H5 H 0.3847 0.7077 0.6789
C6 C 0.48877(19) 0.74146(14) 0.69881(9)
C7 C 0.5173(2) 0.72108(14) 0.66551(9)
C8 C 0.6208(2) 0.71576(17) 0.63012(10)
H6 H 0.5953 0.6802 0.6197
H7 H 0.6755 0.7070 0.6372
C9 C 0.6115(2) 0.76344(17) 0.60167(11)
H8 H 0.5595 0.7616 0.5879
H9 H 0.6177 0.8016 0.6137
C10 C 0.6482(2) 0.74155(15) 0.54318(10)
C11 C 0.70854(19) 0.74287(14) 0.51965(9)
C12 C 0.6845(2) 0.72020(15) 0.48546(10)
H10 H 0.6343 0.7054 0.4797
C13 C 0.7309(2) 0.71861(16) 0.45971(10)
H11 H 0.7121 0.7040 0.4365
C14 C 0.8048(2) 0.73838(16) 0.46772(10)
H12 H 0.8371 0.7368 0.4502
C15 C 0.8318(2) 0.76063(14) 0.50166(9)
C16 C 0.78459(19) 0.76367(14) 0.52790(9)
S5 S 0.68593(5) 0.76298(4) 0.83837(2)
S6 S 0.79589(5) 0.80727(4) 0.78617(2)
S7 S 0.98905(5) 0.77500(4) 0.61431(2)
S8 S 1.07842(5) 0.84857(4) 0.56584(3)
N3 N 0.93767(19) 0.75055(16) 0.76642(9)
H13 H 0.8884 0.7487 0.7590
N4 N 1.02783(16) 0.72046(13) 0.68622(8)
H14 H 0.9971 0.7291 0.6663
O3 O 1.03089(15) 0.74315(14) 0.81284(8)
O4 O 1.14850(14) 0.70273(11) 0.71173(7)
C17 C 0.82976(19) 0.75683(14) 0.81985(9)
C18 C 0.7814(2) 0.74090(15) 0.84420(9)
C19 C 0.8091(2) 0.70613(16) 0.87382(10)
H15 H 0.7760 0.6948 0.8898
C20 C 0.8842(2) 0.68808(18) 0.88006(11)
H16 H 0.9029 0.6657 0.9006
C21 C 0.9311(2) 0.70286(16) 0.85623(10)
H17 H 0.9825 0.6902 0.8605
C22 C 0.9053(2) 0.73609(15) 0.82575(9)
C23 C 0.9624(2) 0.74401(14) 0.80108(10)
C24 C 0.9859(2) 0.76048(17) 0.73982(10)
H18 H 1.0367 0.7730 0.7519
H19 H 0.9641 0.7921 0.7237
C25 C 0.9943(2) 0.70616(16) 0.71762(9)
H20 H 1.0269 0.6777 0.7324
H21 H 0.9438 0.6883 0.7100
C26 C 1.10230(19) 0.72128(14) 0.68587(9)
C27 C 1.13146(19) 0.74685(14) 0.65409(9)
C28 C 1.2104(2) 0.74497(16) 0.65668(10)
H22 H 1.2393 0.7244 0.6759
C29 C 1.2475(2) 0.77199(18) 0.63220(11)
H23 H 1.3011 0.7688 0.6341
C30 C 1.2065(2) 0.80383(18) 0.60477(11)
H24 H 1.2322 0.8243 0.5886
C31 C 1.1276(2) 0.80594(16) 0.60078(10)
C32 C 1.08871(18) 0.77610(14) 0.62463(9)
S9 S 0.67365(5) 0.90377(4) 0.83909(2)
S10 S 0.68571(5) 0.92154(4) 0.75862(2)
S11 S 0.91948(6) 0.91292(4) 0.60647(2)
S12 S 0.92803(5) 0.91814(4) 0.52465(2)
N5 N 0.7244(2) 1.02100(14) 0.71537(9)
H25 H 0.7023 0.9873 0.7171
N6 N 0.8706(2) 1.00020(16) 0.65639(10)
H26 H 0.8676 0.9662 0.6457
O5 O 0.74460(16) 1.10988(11) 0.73787(7)
O6 O 0.91121(18) 1.09194(12) 0.65583(8)
C33 C 0.68466(19) 0.98300(15) 0.78571(9)
C34 C 0.67202(19) 0.97396(15) 0.82135(9)
C35 C 0.6634(2) 1.02071(16) 0.84365(10)
H27 H 0.6549 1.0138 0.8674
C36 C 0.6671(2) 1.07707(16) 0.83155(11)
H28 H 0.6583 1.1088 0.8463
C37 C 0.6838(2) 1.08653(16) 0.79769(11)
H29 H 0.6879 1.1252 0.7897
C38 C 0.6949(2) 1.04087(15) 0.77483(10)
C39 C 0.7221(2) 1.05908(15) 0.74098(10)
C40 C 0.7610(3) 1.03079(18) 0.68443(11)
H30 H 0.7637 1.0729 0.6800
H31 H 0.7301 1.0129 0.6631
C41 C 0.8406(3) 1.00544(19) 0.68974(12)
H32 H 0.8748 1.0304 0.7064
H33 H 0.8398 0.9667 0.7008
C42 C 0.9020(2) 1.04356(16) 0.64108(10)
C43 C 0.9224(2) 1.03471(16) 0.60460(10)
C44 C 0.9363(2) 1.08605(16) 0.58710(11)
H34 H 0.9375 1.1217 0.5997
C45 C 0.9484(2) 1.08615(16) 0.55198(12)
H35 H 0.9596 1.1213 0.5409
C46 C 0.9440(2) 1.03432(16) 0.53303(10)
H36 H 0.9482 1.0345 0.5084
C47 C 0.93347(19) 0.98200(15) 0.55016(10)
C48 C 0.92447(19) 0.98114(14) 0.58624(10)
Li1 Li 1.1864(4) 0.6735(3) 0.75814(18)
N10 N 1.34375(19) 0.75100(15) 0.83151(10)
O7 O 1.24801(15) 0.73528(12) 0.78466(8)
C157 C 1.3035(2) 0.71890(18) 0.80594(11)
H127 H 1.3191 0.6799 0.8040
C158 C 1.4115(3) 0.7290(2) 0.85351(14)
H128 H 1.4192 0.6885 0.8473
H129 H 1.4059 0.7315 0.8787
H130 H 1.4554 0.7520 0.8494
C159 C 1.3246(3) 0.8113(2) 0.83542(16)
H131 H 1.2774 0.8203 0.8192
H132 H 1.3657 0.8358 0.8295
H133 H 1.3177 0.8187 0.8601
O8 O 1.11234(17) 0.65771(13) 0.78841(8)
O5A O 1.25540(16) 0.60988(11) 0.76213(7)
Li1A Li 0.8136(4) 1.1735(3) 0.74186(18)
N7 N 0.26513(17) 0.46241(13) 0.54212(8)
P1 P 0.17668(5) 0.47536(4) 0.53340(2)
P2 P 0.33979(5) 0.47330(4) 0.52597(2)
C49 C 0.1543(2) 0.54964(17) 0.54108(12)
C50 C 0.0932(3) 0.57925(18) 0.52173(16)
H37 H 0.0616 0.5606 0.5025
C51 C 0.0784(3) 0.6354(2) 0.5304(2)
H38 H 0.0374 0.6557 0.5166
C52 C 0.1224(4) 0.6627(2) 0.5589(2)
H39 H 0.1113 0.7014 0.5648
C53 C 0.1819(4) 0.6343(2) 0.57851(17)
H40 H 0.2122 0.6531 0.5981
C54 C 0.1982(3) 0.5773(2) 0.56986(13)
H41 H 0.2395 0.5574 0.5837
C55 C 0.1317(2) 0.43350(16) 0.56414(9)
C56 C 0.1730(2) 0.39388(17) 0.58624(10)
H42 H 0.2256 0.3889 0.5858
C57 C 0.1370(3) 0.36090(19) 0.60947(12)
H43 H 0.1656 0.3340 0.6252
C58 C 0.0610(2) 0.36727(18) 0.60954(11)
H44 H 0.0365 0.3435 0.6247
C59 C 0.0190(2) 0.4080(2) 0.58786(12)
H45 H -0.0337 0.4126 0.5883
C60 C 0.0552(2) 0.44186(19) 0.56546(12)
H46 H 0.0276 0.4708 0.5510
C61 C 0.1353(2) 0.45223(16) 0.48881(9)
C62 C 0.1165(2) 0.39413(17) 0.48426(10)
H47 H 0.1200 0.3695 0.5045
C63 C 0.0926(2) 0.37166(18) 0.45023(11)
H48 H 0.0813 0.3316 0.4471
C64 C 0.0856(2) 0.4081(2) 0.42104(11)
H49 H 0.0666 0.3935 0.3979
C65 C 0.1062(2) 0.4661(2) 0.42528(11)
H50 H 0.1025 0.4905 0.4049
C66 C 0.1322(2) 0.48837(18) 0.45905(11)
H51 H 0.1477 0.5277 0.4619
C67 C 0.33195(19) 0.46038(15) 0.47867(9)
C68 C 0.2980(2) 0.40891(16) 0.46520(10)
H52 H 0.2785 0.3828 0.4808
C69 C 0.2922(2) 0.39552(17) 0.42919(10)
H53 H 0.2684 0.3606 0.4200
C70 C 0.3217(2) 0.43367(19) 0.40685(10)
H54 H 0.3184 0.4246 0.3822
C71 C 0.3560(2) 0.48491(19) 0.41998(11)
H55 H 0.3758 0.5108 0.4044
C72 C 0.3612(2) 0.49829(17) 0.45593(10)
H56 H 0.3847 0.5333 0.4650
C73 C 0.3762(2) 0.54523(17) 0.53373(11)
C74 C 0.3350(3) 0.59161(19) 0.51706(14)
H57 H 0.2868 0.5849 0.5029
C75 C 0.3637(4) 0.6478(2) 0.52096(17)
H58 H 0.3352 0.6792 0.5094
C76 C 0.4330(3) 0.6576(2) 0.54148(19)
H59 H 0.4532 0.6957 0.5436
C77 C 0.4737(3) 0.6123(2) 0.55912(17)
H60 H 0.5208 0.6198 0.5741
C78 C 0.4464(2) 0.5558(2) 0.55515(14)
H61 H 0.4751 0.5247 0.5669
C79 C 0.4112(2) 0.42445(15) 0.54782(10)
C80 C 0.4101(2) 0.41050(17) 0.58359(10)
H62 H 0.3702 0.4241 0.5951
C81 C 0.4676(2) 0.37665(18) 0.60219(11)
H63 H 0.4676 0.3673 0.6266
C82 C 0.5253(2) 0.35653(18) 0.58484(12)
H64 H 0.5651 0.3338 0.5976
C83 C 0.5255(2) 0.36921(18) 0.54927(12)
H65 H 0.5648 0.3546 0.5376
C84 C 0.4681(2) 0.40342(16) 0.53048(11)
H66 H 0.4680 0.4122 0.5060
N8 N 0.46307(17) 0.49579(12) 0.11300(8)
P3 P 0.47695(5) 0.55797(4) 0.12948(2)
P4 P 0.41256(5) 0.43983(4) 0.11582(2)
C85 C 0.4453(2) 0.56979(15) 0.17171(10)
C86 C 0.3777(2) 0.59894(17) 0.17337(11)
H67 H 0.3496 0.6157 0.1524
C87 C 0.3517(3) 0.6034(2) 0.20577(12)
H68 H 0.3055 0.6231 0.2071
C88 C 0.3933(3) 0.5792(2) 0.23612(12)
H69 H 0.3754 0.5824 0.2583
C89 C 0.4607(3) 0.55027(19) 0.23478(11)
H70 H 0.4888 0.5339 0.2558
C90 C 0.4865(2) 0.54547(17) 0.20250(10)
H71 H 0.5325 0.5255 0.2013
C91 C 0.4323(2) 0.61086(15) 0.09798(10)
C92 C 0.3998(2) 0.59315(16) 0.06413(10)
H72 H 0.4000 0.5534 0.0578
C93 C 0.3667(3) 0.63399(18) 0.03949(11)
H73 H 0.3438 0.6219 0.0163
C94 C 0.3670(2) 0.69201(17) 0.04844(12)
H74 H 0.3446 0.7196 0.0313
C95 C 0.3999(2) 0.70989(16) 0.08235(11)
H75 H 0.4000 0.7497 0.0886
C96 C 0.4326(2) 0.66937(15) 0.10706(10)
H76 H 0.4553 0.6815 0.1303
C97 C 0.5772(2) 0.57355(14) 0.13507(9)
C98 C 0.6167(2) 0.55583(16) 0.10801(10)
H77 H 0.5919 0.5324 0.0890
C99 C 0.6918(2) 0.57222(17) 0.10870(10)
H78 H 0.7181 0.5607 0.0900
C100 C 0.7282(2) 0.60576(15) 0.13696(11)
H79 H 0.7794 0.6176 0.1375
C101 C 0.6897(2) 0.62192(15) 0.16440(10)
H80 H 0.7152 0.6437 0.1840
C102 C 0.6147(2) 0.60662(15) 0.16334(9)
H81 H 0.5885 0.6186 0.1819
C103 C 0.3129(2) 0.45042(16) 0.09860(10)
C104 C 0.2780(2) 0.50230(17) 0.10459(11)
H82 H 0.3068 0.5318 0.1180
C105 C 0.2015(2) 0.51200(19) 0.09129(11)
H83 H 0.1783 0.5476 0.0960
C106 C 0.1598(2) 0.4699(2) 0.07135(11)
H84 H 0.1078 0.4766 0.0620
C107 C 0.1937(2) 0.41757(19) 0.06475(11)
H85 H 0.1646 0.3884 0.0511
C108 C 0.2700(2) 0.40790(17) 0.07819(10)
H86 H 0.2930 0.3723 0.0735
C109 C 0.4214(2) 0.41183(15) 0.16054(10)
C110 C 0.3603(3) 0.39193(17) 0.17477(11)
H87 H 0.3103 0.3951 0.1616
C111 C 0.3723(3) 0.36693(19) 0.20881(12)
H88 H 0.3305 0.3525 0.2187
C112 C 0.4445(3) 0.36323(18) 0.22799(11)
H89 H 0.4521 0.3468 0.2513
C113 C 0.5061(3) 0.38309(19) 0.21372(12)
H90 H 0.5558 0.3801 0.2270
C114 C 0.4948(3) 0.40733(17) 0.17995(11)
H91 H 0.5370 0.4209 0.1699
C115 C 0.4450(2) 0.38366(15) 0.08924(10)
C116 C 0.4293(2) 0.32619(15) 0.09596(10)
H92 H 0.4050 0.3162 0.1156
C117 C 0.4499(2) 0.28339(16) 0.07337(11)
H93 H 0.4389 0.2440 0.0776
C118 C 0.4858(3) 0.29748(18) 0.04514(12)
H94 H 0.4991 0.2679 0.0299
C119 C 0.5026(3) 0.35510(18) 0.03891(11)
H95 H 0.5281 0.3648 0.0196
C120 C 0.4822(2) 0.39821(17) 0.06073(11)
H96 H 0.4934 0.4375 0.0564
N9 N 0.16095(17) 0.48038(12) 0.31413(8)
P5 P 0.21254(5) 0.43970(4) 0.29489(2)
P6 P 0.10696(5) 0.53491(4) 0.30842(3)
C121 C 0.20158(18) 0.36675(14) 0.31069(9)
C122 C 0.17611(18) 0.35971(14) 0.34333(9)
H97 H 0.1662 0.3928 0.3567
C123 C 0.16514(18) 0.30506(14) 0.35630(9)
H98 H 0.1476 0.3005 0.3785
C124 C 0.1800(2) 0.25659(14) 0.33666(9)
H99 H 0.1720 0.2189 0.3454
C125 C 0.2064(2) 0.26306(15) 0.30444(9)
H100 H 0.2170 0.2298 0.2914
C126 C 0.21725(19) 0.31798(15) 0.29127(9)
H101 H 0.2352 0.3224 0.2692
C127 C 0.1886(2) 0.43950(15) 0.24678(10)
C128 C 0.1203(2) 0.41306(16) 0.23159(11)
H102 H 0.0916 0.3917 0.2461
C129 C 0.0950(2) 0.41828(17) 0.19506(11)
H103 H 0.0492 0.4001 0.1844
C130 C 0.1369(3) 0.45000(19) 0.17436(11)
H104 H 0.1196 0.4536 0.1494
C131 C 0.2040(3) 0.4766(2) 0.18976(11)
H105 H 0.2322 0.4987 0.1753
C132 C 0.2300(2) 0.47115(17) 0.22615(11)
H106 H 0.2761 0.4892 0.2367
C133 C 0.31129(19) 0.45914(15) 0.30739(9)
C134 C 0.3691(2) 0.41858(17) 0.30806(11)
H107 H 0.3571 0.3797 0.3011
C135 C 0.4445(2) 0.43463(18) 0.31889(12)
H108 H 0.4838 0.4067 0.3195
C136 C 0.4621(2) 0.49135(18) 0.32882(11)
H109 H 0.5136 0.5024 0.3361
C137 C 0.4048(2) 0.53194(18) 0.32815(11)
H110 H 0.4171 0.5708 0.3350
C138 C 0.3292(2) 0.51607(16) 0.31743(10)
H111 H 0.2900 0.5440 0.3170
C139 C 0.1009(2) 0.57088(16) 0.26605(11)
C140 C 0.1516(2) 0.61528(18) 0.26104(13)
H112 H 0.1878 0.6283 0.2806
C141 C 0.1492(3) 0.6403(2) 0.22766(14)
H113 H 0.1829 0.6711 0.2245
C142 C 0.0974(3) 0.6204(2) 0.19882(14)
H114 H 0.0963 0.6371 0.1758
C143 C 0.0474(3) 0.5763(2) 0.20353(13)
H115 H 0.0122 0.5630 0.1837
C144 C 0.0483(3) 0.55128(18) 0.23714(12)
H116 H 0.0135 0.5213 0.2403
C145 C 0.1404(2) 0.58655(16) 0.34288(11)
C146 C 0.1120(2) 0.64275(17) 0.34174(14)
H117 H 0.0755 0.6550 0.3221
C147 C 0.1373(3) 0.68076(19) 0.36937(17)
H118 H 0.1181 0.7192 0.3686
C148 C 0.1904(3) 0.6629(2) 0.39802(16)
H119 H 0.2075 0.6893 0.4169
C149 C 0.2187(3) 0.60738(19) 0.39957(14)
H120 H 0.2550 0.5957 0.4195
C150 C 0.1945(2) 0.56844(17) 0.37228(11)
H121 H 0.2141 0.5301 0.3733
C151 C 0.0126(2) 0.51427(15) 0.31414(10)
C152 C -0.0470(2) 0.55435(17) 0.30961(12)
H122 H -0.0390 0.5923 0.3014
C153 C -0.1175(2) 0.53870(17) 0.31709(12)
H123 H -0.1578 0.5661 0.3141
C154 C -0.1295(2) 0.48345(19) 0.32888(12)
H124 H -0.1778 0.4732 0.3345
C155 C -0.0712(2) 0.44266(19) 0.33263(13)
H125 H -0.0801 0.4044 0.3402
C156 C -0.0002(2) 0.45790(16) 0.32539(12)
H126 H 0.0396 0.4302 0.3280
N11 N 0.3324(2) 0.45327(15) 0.98638(10)
O9 O 0.41004(17) 0.53093(12) 0.98528(8)
C160 C 0.3989(2) 0.47857(17) 0.98494(10)
H134 H 0.4410 0.4541 0.9835
C161 C 0.3242(3) 0.3906(2) 0.98531(13)
H135 H 0.3707 0.3730 0.9796
H136 H 0.2811 0.3799 0.9670
H137 H 0.3152 0.3766 1.0087
C162 C 0.2664(3) 0.4870(2) 0.98881(16)
H138 H 0.2526 0.4823 1.0126
H139 H 0.2243 0.4739 0.9707
H140 H 0.2770 0.5279 0.9848
N12 N 0.1355(5) 0.7328(3) 0.4752(2)
O10 O 0.1747(5) 0.6375(3) 0.4696(2)
C163 C 0.1820(7) 0.6860(5) 0.4828(3)
H141 H 0.2256 0.6917 0.5005
C164 C 0.0701(5) 0.7363(5) 0.4496(2)
H142 H 0.0820 0.7559 0.4283
H143 H 0.0312 0.7584 0.4593
H144 H 0.0512 0.6973 0.4432
C165 C 0.1591(7) 0.7785(5) 0.4927(3)
H145 H 0.1958 0.7677 0.5138
H146 H 0.1160 0.7986 0.5002
H147 H 0.1837 0.8041 0.4774
N13 N 0.7203(3) 0.1542(3) 0.58487(18)
O11 O 0.6929(5) 0.2410(4) 0.5543(3)
C166 C 0.6874(5) 0.1907(5) 0.5583(3)
H148 H 0.6541 0.1721 0.5397
C167 C 0.7720(4) 0.1798(3) 0.6137(2)
H149 H 0.8240 0.1677 0.6121
H150 H 0.7590 0.1670 0.6366
H151 H 0.7684 0.2221 0.6120
C168 C 0.7076(7) 0.0995(5) 0.5842(4)
H152 H 0.6683 0.0902 0.5638
H153 H 0.6904 0.0878 0.6064
H154 H 0.7544 0.0787 0.5818
loop_
_geom_bond_atom_site_label_1
_geom_bond_atom_site_label_2
_geom_bond_site_symmetry_1
_geom_bond_site_symmetry_2
Ti1 S1 1_555 1_555
Ti2 S3 1_555 1_555
S1 C2 1_555 1_555
S2 Ti1 1_555 1_555
S3 C16 1_555 1_555
S4 Ti2 1_555 1_555
N1 H1 1_555 1_555
N2 H2 1_555 1_555
O1 C7 1_555 1_555
O2 C10 1_555 1_555
C1 S2 1_555 1_555
C2 C1 1_555 1_555
C3 C2 1_555 1_555
H3 C3 1_555 1_555
C4 C3 1_555 1_555
H4 C4 1_555 1_555
C5 C4 1_555 1_555
H5 C5 1_555 1_555
C6 C1 1_555 1_555
C7 N1 1_555 1_555
C8 N1 1_555 1_555
H6 C8 1_555 1_555
H7 C8 1_555 1_555
C9 N2 1_555 1_555
H8 C9 1_555 1_555
H9 C9 1_555 1_555
C10 N2 1_555 1_555
C11 C10 1_555 1_555
C12 C11 1_555 1_555
H10 C12 1_555 1_555
C13 C12 1_555 1_555
H11 C13 1_555 1_555
C14 C13 1_555 1_555
H12 C14 1_555 1_555
C15 S4 1_555 1_555
C16 C11 1_555 1_555
S5 Ti1 1_555 1_555
S6 Ti1 1_555 1_555
S7 Ti2 1_555 1_555
S8 Ti2 1_555 1_555
N3 H13 1_555 1_555
N4 H14 1_555 1_555
O3 C23 1_555 1_555
O4 C26 1_555 1_555
C17 S6 1_555 1_555
C18 S5 1_555 1_555
C19 C18 1_555 1_555
H15 C19 1_555 1_555
C20 C19 1_555 1_555
H16 C20 1_555 1_555
C21 C20 1_555 1_555
H17 C21 1_555 1_555
C22 C17 1_555 1_555
C23 N3 1_555 1_555
C24 N3 1_555 1_555
H18 C24 1_555 1_555
H19 C24 1_555 1_555
C25 N4 1_555 1_555
H20 C25 1_555 1_555
H21 C25 1_555 1_555
C26 N4 1_555 1_555
C27 C26 1_555 1_555
C28 C27 1_555 1_555
H22 C28 1_555 1_555
C29 C28 1_555 1_555
H23 C29 1_555 1_555
C30 C29 1_555 1_555
H24 C30 1_555 1_555
C31 S8 1_555 1_555
C32 S7 1_555 1_555
S9 Ti1 1_555 1_555
S10 Ti1 1_555 1_555
S11 Ti2 1_555 1_555
S12 Ti2 1_555 1_555
N5 H25 1_555 1_555
N6 H26 1_555 1_555
O5 C39 1_555 1_555
O6 C42 1_555 1_555
C33 S10 1_555 1_555
C34 S9 1_555 1_555
C35 C34 1_555 1_555
H27 C35 1_555 1_555
C36 C35 1_555 1_555
H28 C36 1_555 1_555
C37 C36 1_555 1_555
H29 C37 1_555 1_555
C38 C33 1_555 1_555
C39 N5 1_555 1_555
C40 N5 1_555 1_555
H30 C40 1_555 1_555
H31 C40 1_555 1_555
C41 N6 1_555 1_555
H32 C41 1_555 1_555
H33 C41 1_555 1_555
C42 N6 1_555 1_555
C43 C42 1_555 1_555
C44 C43 1_555 1_555
H34 C44 1_555 1_555
C45 C44 1_555 1_555
H35 C45 1_555 1_555
C46 C45 1_555 1_555
H36 C46 1_555 1_555
C47 S12 1_555 1_555
C48 S11 1_555 1_555
N7 P1 1_555 1_555
P1 C49 1_555 1_555
P2 N7 1_555 1_555
C49 C50 1_555 1_555
C50 H37 1_555 1_555
C51 C50 1_555 1_555
H38 C51 1_555 1_555
C52 C51 1_555 1_555
H39 C52 1_555 1_555
C53 C52 1_555 1_555
H40 C53 1_555 1_555
C54 C49 1_555 1_555
H41 C54 1_555 1_555
C55 P1 1_555 1_555
C56 C55 1_555 1_555
H42 C56 1_555 1_555
C57 C56 1_555 1_555
H43 C57 1_555 1_555
C58 C57 1_555 1_555
H44 C58 1_555 1_555
C59 C58 1_555 1_555
H45 C59 1_555 1_555
C60 C55 1_555 1_555
H46 C60 1_555 1_555
C61 P1 1_555 1_555
C62 C61 1_555 1_555
H47 C62 1_555 1_555
C63 C62 1_555 1_555
H48 C63 1_555 1_555
C64 C63 1_555 1_555
H49 C64 1_555 1_555
C65 C64 1_555 1_555
H50 C65 1_555 1_555
C66 C61 1_555 1_555
H51 C66 1_555 1_555
C67 P2 1_555 1_555
C68 C67 1_555 1_555
H52 C68 1_555 1_555
C69 C68 1_555 1_555
H53 C69 1_555 1_555
C70 C69 1_555 1_555
H54 C70 1_555 1_555
C71 C70 1_555 1_555
H55 C71 1_555 1_555
C72 C67 1_555 1_555
H56 C72 1_555 1_555
C73 P2 1_555 1_555
C74 C73 1_555 1_555
H57 C74 1_555 1_555
C75 C74 1_555 1_555
H58 C75 1_555 1_555
C76 C75 1_555 1_555
H59 C76 1_555 1_555
C77 C76 1_555 1_555
H60 C77 1_555 1_555
C78 C73 1_555 1_555
H61 C78 1_555 1_555
C79 P2 1_555 1_555
C80 C79 1_555 1_555
H62 C80 1_555 1_555
C81 C80 1_555 1_555
H63 C81 1_555 1_555
C82 C81 1_555 1_555
H64 C82 1_555 1_555
C83 C82 1_555 1_555
H65 C83 1_555 1_555
C84 C79 1_555 1_555
H66 C84 1_555 1_555
N8 P3 1_555 1_555
P3 C85 1_555 1_555
P4 N8 1_555 1_555
C85 C86 1_555 1_555
C86 H67 1_555 1_555
C87 C86 1_555 1_555
H68 C87 1_555 1_555
C88 C87 1_555 1_555
H69 C88 1_555 1_555
C89 C88 1_555 1_555
H70 C89 1_555 1_555
C90 C85 1_555 1_555
H71 C90 1_555 1_555
C91 P3 1_555 1_555
C92 C91 1_555 1_555
H72 C92 1_555 1_555
C93 C92 1_555 1_555
H73 C93 1_555 1_555
C94 C93 1_555 1_555
H74 C94 1_555 1_555
C95 C94 1_555 1_555
H75 C95 1_555 1_555
C96 C91 1_555 1_555
H76 C96 1_555 1_555
C97 P3 1_555 1_555
C98 C97 1_555 1_555
H77 C98 1_555 1_555
C99 C98 1_555 1_555
H78 C99 1_555 1_555
C100 C99 1_555 1_555
H79 C100 1_555 1_555
C101 C100 1_555 1_555
H80 C101 1_555 1_555
C102 C97 1_555 1_555
H81 C102 1_555 1_555
C103 P4 1_555 1_555
C104 C103 1_555 1_555
H82 C104 1_555 1_555
C105 C104 1_555 1_555
H83 C105 1_555 1_555
C106 C105 1_555 1_555
H84 C106 1_555 1_555
C107 C106 1_555 1_555
H85 C107 1_555 1_555
C108 C103 1_555 1_555
H86 C108 1_555 1_555
C109 P4 1_555 1_555
C110 C109 1_555 1_555
H87 C110 1_555 1_555
C111 C110 1_555 1_555
H88 C111 1_555 1_555
C112 C111 1_555 1_555
H89 C112 1_555 1_555
C113 C112 1_555 1_555
H90 C113 1_555 1_555
C114 C109 1_555 1_555
H91 C114 1_555 1_555
C115 P4 1_555 1_555
C116 C115 1_555 1_555
H92 C116 1_555 1_555
C117 C116 1_555 1_555
H93 C117 1_555 1_555
C118 C117 1_555 1_555
H94 C118 1_555 1_555
C119 C118 1_555 1_555
H95 C119 1_555 1_555
C120 C115 1_555 1_555
H96 C120 1_555 1_555
N9 P5 1_555 1_555
P5 C121 1_555 1_555
P6 N9 1_555 1_555
C121 C122 1_555 1_555
C122 H97 1_555 1_555
C123 C122 1_555 1_555
H98 C123 1_555 1_555
C124 C123 1_555 1_555
H99 C124 1_555 1_555
C125 C124 1_555 1_555
H100 C125 1_555 1_555
C126 C121 1_555 1_555
H101 C126 1_555 1_555
C127 P5 1_555 1_555
C128 C127 1_555 1_555
H102 C128 1_555 1_555
C129 C128 1_555 1_555
H103 C129 1_555 1_555
C130 C129 1_555 1_555
H104 C130 1_555 1_555
C131 C130 1_555 1_555
H105 C131 1_555 1_555
C132 C127 1_555 1_555
H106 C132 1_555 1_555
C133 P5 1_555 1_555
C134 C133 1_555 1_555
H107 C134 1_555 1_555
C135 C134 1_555 1_555
H108 C135 1_555 1_555
C136 C135 1_555 1_555
H109 C136 1_555 1_555
C137 C136 1_555 1_555
H110 C137 1_555 1_555
C138 C133 1_555 1_555
H111 C138 1_555 1_555
C139 P6 1_555 1_555
C140 C139 1_555 1_555
H112 C140 1_555 1_555
C141 C140 1_555 1_555
H113 C141 1_555 1_555
C142 C141 1_555 1_555
H114 C142 1_555 1_555
C143 C142 1_555 1_555
H115 C143 1_555 1_555
C144 C139 1_555 1_555
H116 C144 1_555 1_555
C145 P6 1_555 1_555
C146 C145 1_555 1_555
H117 C146 1_555 1_555
C147 C146 1_555 1_555
H118 C147 1_555 1_555
C148 C147 1_555 1_555
H119 C148 1_555 1_555
C149 C148 1_555 1_555
H120 C149 1_555 1_555
C150 C145 1_555 1_555
H121 C150 1_555 1_555
C151 P6 1_555 1_555
C152 C151 1_555 1_555
H122 C152 1_555 1_555
C153 C152 1_555 1_555
H123 C153 1_555 1_555
C154 C153 1_555 1_555
H124 C154 1_555 1_555
C155 C154 1_555 1_555
H125 C155 1_555 1_555
C156 C151 1_555 1_555
H126 C156 1_555 1_555
Li1 O4 1_555 1_555
N10 C157 1_555 1_555
O7 Li1 1_555 1_555
C157 O7 1_555 1_555
H127 C157 1_555 1_555
C158 N10 1_555 1_555
H128 C158 1_555 1_555
H129 C158 1_555 1_555
H130 C158 1_555 1_555
C159 N10 1_555 1_555
H131 C159 1_555 1_555
H132 C159 1_555 1_555
H133 C159 1_555 1_555
O8 Li1 1_555 1_555
N11 C160 1_555 1_555
O9 C160 1_555 1_555
C160 H134 1_555 1_555
C161 N11 1_555 1_555
H135 C161 1_555 1_555
H136 C161 1_555 1_555
H137 C161 1_555 1_555
C162 N11 1_555 1_555
H138 C162 1_555 1_555
H139 C162 1_555 1_555
H140 C162 1_555 1_555
N12 C163 1_555 1_555
O10 C163 1_555 1_555
C163 H141 1_555 1_555
C164 N12 1_555 1_555
H142 C164 1_555 1_555
H143 C164 1_555 1_555
H144 C164 1_555 1_555
C165 N12 1_555 1_555
H145 C165 1_555 1_555
H146 C165 1_555 1_555
H147 C165 1_555 1_555
N13 C166 1_555 1_555
O11 C166 1_555 1_555
C166 H148 1_555 1_555
C167 N13 1_555 1_555
H149 C167 1_555 1_555
H150 C167 1_555 1_555
H151 C167 1_555 1_555
C168 N13 1_555 1_555
H152 C168 1_555 1_555
H153 C168 1_555 1_555
H154 C168 1_555 1_555
O5A Li1 1_555 1_555
Li1A O5 1_555 1_555
C5 C6 1_555 1_555
C6 C7 1_555 1_555
C8 C9 1_555 1_555
C14 C15 1_555 1_555
C15 C16 1_555 1_555
C17 C18 1_555 1_555
C21 C22 1_555 1_555
C22 C23 1_555 1_555
C24 C25 1_555 1_555
C27 C32 1_555 1_555
C30 C31 1_555 1_555
C31 C32 1_555 1_555
C33 C34 1_555 1_555
C37 C38 1_555 1_555
C38 C39 1_555 1_555
C40 C41 1_555 1_555
C43 C48 1_555 1_555
C46 C47 1_555 1_555
C47 C48 1_555 1_555
C53 C54 1_555 1_555
C59 C60 1_555 1_555
C65 C66 1_555 1_555
C71 C72 1_555 1_555
C77 C78 1_555 1_555
C83 C84 1_555 1_555
C89 C90 1_555 1_555
C95 C96 1_555 1_555
C101 C102 1_555 1_555
C107 C108 1_555 1_555
C113 C114 1_555 1_555
C119 C120 1_555 1_555
C125 C126 1_555 1_555
C131 C132 1_555 1_555
C137 C138 1_555 1_555
C143 C144 1_555 1_555
C149 C150 1_555 1_555
C155 C156 1_555 1_555

#END
