
#######################################################################
#
#                 Cambridge Crystallographic Data Centre
#                                CCDC 
#
#######################################################################
#
# If this CIF has been generated from an entry in the Cambridge 
# Structural Database, then it will include bibliographic, chemical, 
# crystal, experimental, refinement or atomic coordinate data resulting 
# from the CCDC's data processing and validation procedures.
#
#######################################################################

data_SEDLAP01
_symmetry_cell_setting           monoclinic
_symmetry_space_group_name_H-M   'P 21/n'
_symmetry_Int_Tables_number      14
_space_group_name_Hall           '-P 2yn'
loop_
_symmetry_equiv_pos_site_id
_symmetry_equiv_pos_as_xyz
1 x,y,z
2 1/2-x,1/2+y,1/2-z
3 -x,-y,-z
4 1/2+x,1/2-y,1/2+z
_cell_length_a                   9.5162(19)
_cell_length_b                   14.817(3)
_cell_length_c                   14.844(3)
_cell_angle_alpha                90
_cell_angle_beta                 91.51(3)
_cell_angle_gamma                90
_cell_volume                     2092.3
loop_
_atom_site_label
_atom_site_type_symbol
_atom_site_fract_x
_atom_site_fract_y
_atom_site_fract_z
Sm1 Sm -0.472853(17) 0.836298(11) 0.746108(12)
Sm2 Sm -0.689685(17) 0.653984(11) 0.906156(12)
O1 O -0.3514(3) 0.98523(19) 0.78386(19)
O2 O -0.5786(3) 0.97620(18) 0.8047(2)
O3 O -0.7115(3) 0.85322(19) 0.6747(2)
O4 O -0.7170(3) 0.77812(19) 0.80103(19)
O5 O -0.5875(3) 1.15594(19) 1.0932(2)
O6 O -0.4092(3) 1.2185(2) 1.0216(2)
O7 O -0.4408(3) 0.6041(2) 0.93795(19)
O8 O -0.4611(3) 0.68385(18) 0.81386(18)
O9 O 0.0864(3) 0.72951(19) 0.95734(19)
O10 O 0.0641(3) 0.6124(2) 0.8681(2)
O11 O -1.2052(3) 0.8727(2) 0.56817(18)
O12 O -1.2346(3) 0.8200(2) 0.70702(19)
O13 O -0.4677(3) 0.92798(19) 0.60673(18)
O14 O -0.4851(3) 0.7208(2) 0.62846(19)
O15 O -0.6918(3) 0.5738(2) 0.7613(2)
O16 O -0.7148(3) 0.49499(19) 0.9399(2)
C1 C -0.4604(4) 1.0141(3) 0.8193(3)
C2 C -0.4470(4) 1.0894(3) 0.8854(3)
H1 H -0.3708 1.1284 0.8819
C3 C -0.7804(4) 0.8145(2) 0.7344(3)
C4 C -0.9363(4) 0.8140(3) 0.7283(3)
H2 H -0.9868 0.7991 0.7789
C5 C -0.5097(4) 1.1645(2) 1.0262(3)
C6 C -0.5391(4) 1.1026(3) 0.9483(3)
H3 H -0.6250 1.0727 0.9443
C7 C -0.3862(4) 0.6442(2) 0.8727(2)
C8 C -0.2309(4) 0.6445(3) 0.8655(3)
H4 H -0.1932 0.6238 0.8122
C9 C 0.0098(4) 0.6714(2) 0.9175(3)
C10 C -0.1437(4) 0.6719(3) 0.9295(3)
H5 H -0.1792 0.6921 0.9836
C11 C -1.1590(4) 0.8419(2) 0.6424(3)
C12 C -1.0039(4) 0.8339(3) 0.6533(3)
H6 H -0.9507 0.8439 0.6026
Sm1B Sm -0.527147(17) 1.163702(11) 1.253892(12)
Sm1_2 Sm -1.472853(17) 0.836298(11) 0.746108(12)
Sm2B Sm -0.310315(17) 1.346016(11) 1.093844(12)
Sm2_2 Sm 0.310315(17) 0.653984(11) 0.906156(12)
Sm2C Sm -1.189685(17) 0.846016(11) 0.406156(12)
O5B O -0.4125(3) 0.84406(19) 0.9068(2)
O6B O -0.5908(3) 0.7815(2) 0.9784(2)
O9_2 O -0.9136(3) 0.72951(19) 0.95734(19)
O10_2 O -0.9359(3) 0.6124(2) 0.8681(2)
O11C O -0.7052(3) 0.6273(2) 1.06817(18)
O12_2 O -0.2346(3) 0.8200(2) 0.70702(19)
O17 O -0.1254(11) 0.9067(7) 0.9574(8)
O18 O -0.8519(8) 0.9336(5) 0.9331(5)
O19 O -0.0647(4) 1.0373(3) 0.8357(3)
loop_
_geom_bond_atom_site_label_1
_geom_bond_atom_site_label_2
_geom_bond_site_symmetry_1
_geom_bond_site_symmetry_2
Sm1 O1 1_555 1_555
Sm2 O4 1_555 1_555
O1 C1 1_555 1_555
O2 Sm1 1_555 1_555
O3 Sm1 1_555 1_555
O4 Sm1 1_555 1_555
O5 C5 1_555 1_555
O6 C5 1_555 1_555
O7 Sm2 1_555 1_555
O8 Sm1 1_555 1_555
O9 C9 1_555 1_555
O10 C9 1_555 1_555
O11 C11 1_555 1_555
O12 C11 1_555 1_555
O13 Sm1 1_555 1_555
O14 Sm1 1_555 1_555
O15 Sm2 1_555 1_555
O16 Sm2 1_555 1_555
C1 O2 1_555 1_555
C2 C1 1_555 1_555
H1 C2 1_555 1_555
C3 O3 1_555 1_555
C4 C3 1_555 1_555
H2 C4 1_555 1_555
C5 C6 1_555 1_555
C6 C2 1_555 1_555
H3 C6 1_555 1_555
C7 O7 1_555 1_555
C8 C7 1_555 1_555
H4 C8 1_555 1_555
C9 C10 1_555 1_555
C10 C8 1_555 1_555
H5 C10 1_555 1_555
C11 C12 1_555 1_555
C12 C4 1_555 1_555
H6 C12 1_555 1_555
Sm1B O5 1_555 1_555
Sm1_2 O12 1_555 1_555
Sm2B O6 1_555 1_555
Sm2_2 O9 1_555 1_555
Sm2C O11 1_555 1_555
O5B Sm1 1_555 1_555
O6B Sm2 1_555 1_555
O9_2 Sm2 1_555 1_555
O10_2 Sm2 1_555 1_555
O11C Sm2 1_555 1_555
O12_2 Sm1 1_555 1_555
Sm2 O8 1_555 1_555
O4 C3 1_555 1_555
O8 C7 1_555 1_555
O10 Sm2_2 1_555 1_555

#END
