
#######################################################################
#
#                 Cambridge Crystallographic Data Centre
#                                CCDC 
#
#######################################################################
#
# If this CIF has been generated from an entry in the Cambridge 
# Structural Database, then it will include bibliographic, chemical, 
# crystal, experimental, refinement or atomic coordinate data resulting 
# from the CCDC's data processing and validation procedures.
#
#######################################################################

data_SEDPOH
_symmetry_cell_setting           orthorhombic
_symmetry_space_group_name_H-M   'P b c a'
_symmetry_Int_Tables_number      61
_space_group_name_Hall           '-P 2ac 2ab'
loop_
_symmetry_equiv_pos_site_id
_symmetry_equiv_pos_as_xyz
1 x,y,z
2 1/2-x,-y,1/2+z
3 -x,1/2+y,1/2-z
4 1/2+x,1/2-y,-z
5 -x,-y,-z
6 1/2+x,y,1/2-z
7 x,1/2-y,1/2+z
8 1/2-x,1/2+y,z
_cell_length_a                   12.537(3)
_cell_length_b                   9.7307(19)
_cell_length_c                   13.620(3)
_cell_angle_alpha                90
_cell_angle_beta                 90
_cell_angle_gamma                90
_cell_volume                     1661.56
loop_
_atom_site_label
_atom_site_type_symbol
_atom_site_fract_x
_atom_site_fract_y
_atom_site_fract_z
Co1 Co 0.0000 0.0000 0.5000
Cl1 Cl -0.17471(6) 0.06447(7) 0.56677(5)
O1 O -0.00367(17) 0.17026(16) 0.39958(12)
N1 N 0.07946(18) 0.3803(2) 0.11103(15)
N2 N -0.00065(19) 0.40063(19) 0.42346(14)
C1 C 0.1662(2) 0.3035(2) 0.09350(19)
H1 H 0.1946 0.3043 0.0304
C2 C 0.2160(2) 0.2230(3) 0.1641(2)
H2 H 0.2767 0.1724 0.1487
C3 C 0.1733(2) 0.2198(3) 0.2576(2)
H3 H 0.2037 0.1652 0.3061
C4 C 0.0836(2) 0.2999(3) 0.27781(19)
C5 C 0.0406(2) 0.3778(3) 0.20313(18)
H4 H -0.0186 0.4319 0.2172
C6 C 0.0248(2) 0.2870(3) 0.37364(18)
C7 C 0.0427(3) 0.5387(3) 0.4042(2)
C8 C -0.0816(2) 0.3984(3) 0.5005(2)
H5 H -0.107(2) 0.306(2) 0.510(2)
H6 H 0.099(2) 0.535(3) 0.3600(18)
H7 H -0.015(2) 0.592(2) 0.3778(18)
H8 H -0.142(2) 0.455(3) 0.4781(19)
Co1F Co 0.0000 0.5000 0.0000
Co1_2 Co 0.0000 1.0000 0.5000
Co1F_2 Co 0.0000 0.5000 1.0000
Cl1D Cl 0.17471(6) -0.06447(7) 0.43323(5)
O1D O 0.00367(17) 0.82974(16) 0.60042(12)
O1D_2 O 0.00367(17) -0.17026(16) 0.60042(12)
N1D N -0.07946(18) 0.6197(2) 0.88897(15)
N1F N 0.07946(18) 0.1197(2) 0.61103(15)
N1B N -0.07946(18) -0.1197(2) 0.38897(15)
N2D N 0.00065(19) 0.59937(19) 0.57654(14)
C1D C -0.1662(2) 0.6965(2) 0.90650(19)
H1D H -0.1946 0.6957 0.9696
C2D C -0.2160(2) 0.7770(3) 0.8359(2)
H2D H -0.2767 0.8276 0.8513
C3D C -0.1733(2) 0.7802(3) 0.7424(2)
H3D H -0.2037 0.8348 0.6939
C4D C -0.0836(2) 0.7001(3) 0.72219(19)
C5D C -0.0406(2) 0.6222(3) 0.79687(18)
H4D H 0.0186 0.5681 0.7828
C6D C -0.0248(2) 0.7130(3) 0.62636(18)
C7D C -0.0427(3) 0.4613(3) 0.5958(2)
C8D C 0.0816(2) 0.6016(3) 0.4995(2)
H5D H 0.107(2) 0.694(2) 0.490(2)
H6D H -0.099(2) 0.465(3) 0.6400(18)
H7D H 0.015(2) 0.408(2) 0.6222(18)
H8D H 0.142(2) 0.545(3) 0.5219(19)
loop_
_geom_bond_atom_site_label_1
_geom_bond_atom_site_label_2
_geom_bond_site_symmetry_1
_geom_bond_site_symmetry_2
Co1 Cl1 1_555 1_555
O1 Co1 1_555 1_555
N1 C1 1_555 1_555
N2 C6 1_555 1_555
C1 H1 1_555 1_555
C2 C1 1_555 1_555
H2 C2 1_555 1_555
C3 C2 1_555 1_555
H3 C3 1_555 1_555
C4 C3 1_555 1_555
C5 N1 1_555 1_555
H4 C5 1_555 1_555
C6 O1 1_555 1_555
C7 N2 1_555 1_555
C8 N2 1_555 1_555
H5 C8 1_555 1_555
H6 C7 1_555 1_555
H7 C7 1_555 1_555
H8 C8 1_555 1_555
Co1F N1 1_555 1_555
Co1_2 O1D 1_555 1_555
Co1F_2 N1D 1_555 1_555
Cl1D Co1 1_555 1_555
O1D C6D 1_555 1_555
O1D_2 Co1 1_555 1_555
N1D C1D 1_555 1_555
N1F Co1 1_555 1_555
N1B Co1 1_555 1_555
N2D C6D 1_555 1_555
C1D H1D 1_555 1_555
C2D C1D 1_555 1_555
H2D C2D 1_555 1_555
C3D C2D 1_555 1_555
H3D C3D 1_555 1_555
C4D C3D 1_555 1_555
C5D N1D 1_555 1_555
H4D C5D 1_555 1_555
C6D C4D 1_555 1_555
C7D C8 1_555 1_555
C8D C7 1_555 1_555
H5D C8D 1_555 1_555
H6D C7D 1_555 1_555
H7D C7D 1_555 1_555
H8D C8D 1_555 1_555
C4 C5 1_555 1_555
C4 C6 1_555 1_555
N2D C7D 1_555 1_555
N2D C8D 1_555 1_555
C4D C5D 1_555 1_555

#END
