
#######################################################################
#
#                 Cambridge Crystallographic Data Centre
#                                CCDC 
#
#######################################################################
#
# If this CIF has been generated from an entry in the Cambridge 
# Structural Database, then it will include bibliographic, chemical, 
# crystal, experimental, refinement or atomic coordinate data resulting 
# from the CCDC's data processing and validation procedures.
#
#######################################################################

data_SEDQUP
_symmetry_cell_setting           triclinic
_symmetry_space_group_name_H-M   'P -1'
_symmetry_Int_Tables_number      2
_space_group_name_Hall           '-P 1'
loop_
_symmetry_equiv_pos_site_id
_symmetry_equiv_pos_as_xyz
1 x,y,z
2 -x,-y,-z
_cell_length_a                   13.354(5)
_cell_length_b                   13.991(5)
_cell_length_c                   14.245(5)
_cell_angle_alpha                83.617(5)
_cell_angle_beta                 70.742(5)
_cell_angle_gamma                70.913(5)
_cell_volume                     2374.4
loop_
_atom_site_label
_atom_site_type_symbol
_atom_site_fract_x
_atom_site_fract_y
_atom_site_fract_z
Zn1 Zn -0.25247(10) 0.41373(9) -0.42121(9)
Zn2 Zn 0.24350(11) 0.16019(10) -0.11428(10)
N1 N -0.0781(8) 0.6218(8) -0.5217(8)
O1 O 0.2023(6) 0.1708(6) -0.2358(6)
O2 O -0.7205(7) 0.2863(6) -0.1184(6)
N2 N -0.3259(7) 0.4282(6) -0.5277(6)
O3 O -0.3476(7) 0.4354(6) -0.2833(5)
O4 O -0.4645(8) 0.3494(7) -0.2697(6)
O5 O -0.6288(9) 0.2137(7) -0.0150(8)
C1 C -0.3589(9) 0.3549(9) -0.5559(8)
O6 O -0.0661(7) 0.2939(6) -0.3341(6)
O7 O -0.1636(6) 0.2718(6) -0.4264(6)
C2 C -0.4221(9) 0.3986(9) -0.6201(8)
O8 O 0.1195(8) 0.0517(7) -0.1852(6)
N3 N 0.4986(8) -0.1031(8) -0.0922(8)
N4 N -0.4224(8) 0.4992(8) -0.6307(7)
C3 C -0.4211(10) 0.3686(8) -0.1267(8)
C4 C -0.1352(9) 0.5370(9) -0.6299(8)
H1 H -0.1401 0.4693 -0.6300
H2 H -0.0670 0.5400 -0.6808
N5 N 0.3721(8) 0.0318(7) -0.1295(7)
C5 C 0.0524(10) 0.0713(8) -0.3581(8)
C6 C -0.1304(8) 0.5568(8) -0.5319(7)
N6 N -0.1774(7) 0.5217(7) -0.4437(7)
C7 C -0.0580(10) 0.1273(8) -0.3664(8)
C8 C -0.1593(9) 0.5675(8) -0.3744(9)
C9 C 0.1596(11) -0.0371(9) 0.0245(9)
H3 H 0.1981 -0.0426 -0.0464
H4 H 0.1129 -0.0810 0.0419
C10 C -0.6535(9) 0.2834(9) -0.0687(8)
N7 N -0.0121(8) 0.0958(8) 0.1175(7)
C11 C -0.5168(9) 0.3672(8) -0.0525(8)
C12 C 0.1499(10) 0.1142(9) -0.2486(9)
C13 C -0.3505(9) 0.6115(8) -0.5742(9)
H5 H -0.3500 0.6244 -0.5088
H6 H -0.4114 0.6645 -0.5890
C14 C -0.1880(10) 0.5579(9) -0.2700(9)
H7 H -0.2288 0.5153 -0.2355
C15 C -0.0979(9) 0.2392(9) -0.3741(8)
C16 C 0.3355(13) -0.0145(11) 0.0494(10)
H8 H 0.2984 0.0572 0.0625
H9 H 0.3859 -0.0387 0.0888
N8 N 0.1133(8) 0.1550(7) 0.0066(7)
C17 C -0.0615(10) 0.6872(9) -0.3738(10)
H10 H -0.0208 0.7300 -0.4079
C18 C -0.2354(9) 0.6135(9) -0.6548(9)
H11 H -0.2350 0.5980 -0.7197
H12 H -0.2288 0.6809 -0.6580
C19 C -0.6285(9) 0.3837(8) -0.0689(9)
H13 H -0.6280 0.4179 -0.1321
H14 H -0.6874 0.4272 -0.0169
C20 C -0.3672(8) 0.5146(8) -0.5741(8)
C21 C 0.2466(12) -0.0712(9) 0.0823(10)
H15 H 0.2075 -0.0600 0.1528
H16 H 0.2844 -0.1432 0.0725
C22 C -0.3413(10) 0.2544(9) -0.5309(10)
H17 H -0.3009 0.2244 -0.4874
C23 C 0.5356(10) -0.0913(9) -0.1949(10)
C24 C -0.4138(9) 0.3851(8) -0.2344(8)
C25 C -0.0564(10) 0.2009(9) 0.1233(9)
C26 C 0.0272(10) 0.2352(9) 0.0544(9)
C27 C -0.3234(11) 0.3552(9) -0.1029(9)
H18 H -0.2588 0.3561 -0.1540
C28 C 0.1328(9) 0.1220(9) -0.3504(9)
H19 H 0.1064 0.1930 -0.3670
H20 H 0.2045 0.0926 -0.3996
C29 C 0.0100(10) 0.3393(10) 0.0415(10)
H21 H 0.0626 0.3647 -0.0051
C30 C -0.0946(9) 0.6320(8) -0.4235(9)
C31 C -0.4689(11) 0.3432(11) -0.6605(11)
H22 H -0.5131 0.3734 -0.7009
C32 C 0.4563(10) -0.0082(9) -0.2171(9)
C33 C 0.4710(11) 0.0238(11) -0.3116(10)
H23 H 0.4204 0.0811 -0.3283
C34 C 0.6295(11) -0.1453(12) -0.2655(12)
H24 H 0.6815 -0.2009 -0.2482
C35 C -0.3196(12) 0.3408(10) -0.0080(10)
H25 H -0.2539 0.3314 0.0062
C36 C 0.0887(10) 0.0696(9) 0.0498(8)
C37 C -0.1253(13) 0.0718(11) -0.3720(10)
H26 H -0.1949 0.1054 -0.3794
C38 C 0.4001(11) -0.0286(9) -0.0560(10)
C39 C -0.3850(11) 0.1991(11) -0.5718(11)
H27 H -0.3735 0.1310 -0.5550
C40 C 0.0157(13) -0.0848(9) -0.3613(11)
H28 H 0.0408 -0.1551 -0.3625
C41 C -0.0885(12) 0.4027(11) 0.1010(11)
H29 H -0.1022 0.4723 0.0946
C42 C -0.0897(11) 0.6782(11) -0.2710(11)
H30 H -0.0668 0.7141 -0.2352
C43 C -0.1533(11) 0.6140(11) -0.2214(10)
H31 H -0.1727 0.6095 -0.1524
C44 C -0.4120(14) 0.3408(12) 0.0628(11)
H32 H -0.4104 0.3323 0.1281
C45 C -0.4455(12) 0.2412(12) -0.6372(12)
H33 H -0.4705 0.2004 -0.6656
C46 C -0.1520(11) 0.2655(12) 0.1825(11)
H34 H -0.2049 0.2411 0.2300
C47 C -0.0886(13) -0.0368(10) -0.3666(11)
H35 H -0.1354 -0.0735 -0.3666
C48 C -0.5123(13) 0.3529(11) 0.0457(9)
H36 H -0.5754 0.3516 0.0984
C49 C 0.0865(13) -0.0346(10) -0.3544(11)
H37 H 0.1557 -0.0705 -0.3473
C50 C 0.6442(13) -0.1153(12) -0.3607(11)
H38 H 0.7069 -0.1500 -0.4109
C51 C -0.1676(12) 0.3651(12) 0.1701(11)
H39 H -0.2331 0.4102 0.2089
C52 C 0.5649(12) -0.0321(12) -0.3832(11)
H40 H 0.5751 -0.0129 -0.4495
H41 H -0.453(9) 0.547(8) -0.665(8)
H42 H -0.047(10) 0.658(9) -0.554(9)
Zn2_2 Zn -0.75650(11) 0.16019(10) -0.11428(10)
O2_2 O 0.2795(7) 0.2863(6) -0.1184(6)
loop_
_geom_bond_atom_site_label_1
_geom_bond_atom_site_label_2
_geom_bond_site_symmetry_1
_geom_bond_site_symmetry_2
Zn1 N2 1_555 1_555
Zn2 O1 1_555 1_555
N1 C6 1_555 1_555
O1 C12 1_555 1_555
O2 C10 1_555 1_555
N2 C1 1_555 1_555
O3 Zn1 1_555 1_555
O4 C24 1_555 1_555
O5 C10 1_555 1_555
C1 C2 1_555 1_555
O6 C15 1_555 1_555
O7 Zn1 1_555 1_555
C2 N4 1_555 1_555
O8 C12 1_555 1_555
N3 C23 1_555 1_555
N4 C20 1_555 1_555
C3 C11 1_555 1_555
C4 H1 1_555 1_555
H2 C4 1_555 1_555
N5 Zn2 1_555 1_555
C5 C7 1_555 1_555
C6 C4 1_555 1_555
N6 Zn1 1_555 1_555
C7 C15 1_555 1_555
C8 N6 1_555 1_555
C9 H3 1_555 1_555
H4 C9 1_555 1_555
C10 C19 1_555 1_555
N7 C25 1_555 1_555
C11 C19 1_555 1_555
C12 C28 1_555 1_555
C13 H5 1_555 1_555
H6 C13 1_555 1_555
C14 C8 1_555 1_555
H7 C14 1_555 1_555
C15 O7 1_555 1_555
C16 H8 1_555 1_555
H9 C16 1_555 1_555
N8 Zn2 1_555 1_555
C17 H10 1_555 1_555
C18 C4 1_555 1_555
H11 C18 1_555 1_555
H12 C18 1_555 1_555
C19 H13 1_555 1_555
H14 C19 1_555 1_555
C20 N2 1_555 1_555
C21 C9 1_555 1_555
H15 C21 1_555 1_555
H16 C21 1_555 1_555
C22 C1 1_555 1_555
H17 C22 1_555 1_555
C23 C32 1_555 1_555
C24 O3 1_555 1_555
C25 C26 1_555 1_555
C26 N8 1_555 1_555
C27 C3 1_555 1_555
H18 C27 1_555 1_555
C28 C5 1_555 1_555
H19 C28 1_555 1_555
H20 C28 1_555 1_555
C29 C26 1_555 1_555
H21 C29 1_555 1_555
C30 N1 1_555 1_555
C31 C2 1_555 1_555
H22 C31 1_555 1_555
C32 N5 1_555 1_555
C33 C32 1_555 1_555
H23 C33 1_555 1_555
C34 C23 1_555 1_555
H24 C34 1_555 1_555
C35 C27 1_555 1_555
H25 C35 1_555 1_555
C36 C9 1_555 1_555
C37 C7 1_555 1_555
H26 C37 1_555 1_555
C38 N3 1_555 1_555
C39 C22 1_555 1_555
H27 C39 1_555 1_555
C40 H28 1_555 1_555
C41 C29 1_555 1_555
H29 C41 1_555 1_555
C42 C17 1_555 1_555
H30 C42 1_555 1_555
C43 C14 1_555 1_555
H31 C43 1_555 1_555
C44 C35 1_555 1_555
H32 C44 1_555 1_555
C45 C31 1_555 1_555
H33 C45 1_555 1_555
C46 C25 1_555 1_555
H34 C46 1_555 1_555
C47 C37 1_555 1_555
H35 C47 1_555 1_555
C48 C11 1_555 1_555
H36 C48 1_555 1_555
C49 C5 1_555 1_555
H37 C49 1_555 1_555
C50 C34 1_555 1_555
H38 C50 1_555 1_555
C51 C41 1_555 1_555
H39 C51 1_555 1_555
C52 C33 1_555 1_555
H40 C52 1_555 1_555
H41 N4 1_555 1_555
H42 N1 1_555 1_555
Zn2_2 O2 1_555 1_555
O2_2 Zn2 1_555 1_555
C3 C24 1_555 1_555
N5 C38 1_555 1_555
C6 N6 1_555 1_555
C8 C30 1_555 1_555
N7 C36 1_555 1_555
C13 C18 1_555 1_555
C13 C20 1_555 1_555
C16 C21 1_555 1_555
C16 C38 1_555 1_555
N8 C36 1_555 1_555
C17 C30 1_555 1_555
C39 C45 1_555 1_555
C40 C47 1_555 1_555
C40 C49 1_555 1_555
C42 C43 1_555 1_555
C44 C48 1_555 1_555
C46 C51 1_555 1_555
C50 C52 1_555 1_555

#END
