
#######################################################################
#
#                 Cambridge Crystallographic Data Centre
#                                CCDC 
#
#######################################################################
#
# If this CIF has been generated from an entry in the Cambridge 
# Structural Database, then it will include bibliographic, chemical, 
# crystal, experimental, refinement or atomic coordinate data resulting 
# from the CCDC's data processing and validation procedures.
#
#######################################################################

data_SEDQAU
_symmetry_cell_setting           monoclinic
_symmetry_space_group_name_H-M   'C 2/c'
_symmetry_Int_Tables_number      15
_space_group_name_Hall           '-C 2yn'
loop_
_symmetry_equiv_pos_site_id
_symmetry_equiv_pos_as_xyz
1 x,y,z
2 1/2+x,1/2+y,z
3 -x,y,1/2-z
4 1/2-x,1/2+y,1/2-z
5 -x,-y,-z
6 1/2-x,1/2-y,-z
7 x,-y,1/2+z
8 1/2+x,1/2-y,1/2+z
_cell_length_a                   23.925(5)
_cell_length_b                   6.3403(13)
_cell_length_c                   12.061(2)
_cell_angle_alpha                90
_cell_angle_beta                 106.62(3)
_cell_angle_gamma                90
_cell_volume                     1753.12
loop_
_atom_site_label
_atom_site_type_symbol
_atom_site_fract_x
_atom_site_fract_y
_atom_site_fract_z
Zn1 Zn 0.5000 0.62520(7) 0.7500
Cl1 Cl 0.43799(3) 0.44504(12) 0.60792(6)
O1 O 0.73732(8) 0.7918(3) 0.77767(14)
N1 N 0.55316(9) 0.8263(3) 0.69129(17)
N2 N 0.72929(9) 0.8417(4) 0.58741(17)
C1 C 0.53353(12) 1.0128(5) 0.6442(2)
H1 H 0.4952 1.0501 0.6384
C2 C 0.56726(12) 1.1521(4) 0.6041(2)
H2 H 0.5522 1.2813 0.5729
C3 C 0.62389(12) 1.0965(4) 0.6110(2)
H3 H 0.6475 1.1872 0.5838
C4 C 0.64519(11) 0.9029(4) 0.6594(2)
C5 C 0.60878(11) 0.7752(5) 0.7000(2)
H4 H 0.6233 0.6481 0.7351
C6 C 0.70819(11) 0.8374(4) 0.6796(2)
C7 C 0.69579(12) 0.8662(5) 0.4659(2)
C8 C 0.79185(12) 0.8178(5) 0.6039(2)
H5 H 0.8096(12) 0.803(5) 0.682(2)
H6 H 0.6544(14) 0.864(5) 0.459(2)
H7 H 0.8058(13) 0.944(5) 0.582(2)
H8 H 0.7065(13) 0.992(5) 0.439(2)
Zn1G Zn 1.0000 0.87480(7) 0.2500
Cl1B Cl 0.56201(3) 0.44504(12) 0.89208(6)
O1E O 0.76268(8) 0.7082(3) 0.22233(14)
N1E N 0.94684(9) 0.6737(3) 0.30871(17)
N1B N 0.44684(9) 0.8263(3) 0.80871(17)
N2E N 0.77071(9) 0.6583(4) 0.41259(17)
C1E C 0.96647(12) 0.4872(5) 0.3558(2)
H1E H 1.0048 0.4499 0.3616
C2E C 0.93274(12) 0.3479(4) 0.3959(2)
H2E H 0.9478 0.2187 0.4271
C3E C 0.87611(12) 0.4035(4) 0.3890(2)
H3E H 0.8525 0.3128 0.4162
C4E C 0.85481(11) 0.5971(4) 0.3406(2)
C5E C 0.89122(11) 0.7248(5) 0.3000(2)
H4E H 0.8767 0.8519 0.2649
C6E C 0.79181(11) 0.6626(4) 0.3204(2)
C7E C 0.80421(12) 0.6338(5) 0.5341(2)
C8E C 0.70815(12) 0.6822(5) 0.3961(2)
H5E H 0.6904(12) 0.697(5) 0.318(2)
H6E H 0.8456(14) 0.636(5) 0.541(2)
H7E H 0.6942(13) 0.556(5) 0.418(2)
H8E H 0.7935(13) 0.508(5) 0.561(2)
loop_
_geom_bond_atom_site_label_1
_geom_bond_atom_site_label_2
_geom_bond_site_symmetry_1
_geom_bond_site_symmetry_2
Zn1 Cl1 1_555 1_555
O1 C6 1_555 1_555
N1 Zn1 1_555 1_555
N2 C6 1_555 1_555
C1 N1 1_555 1_555
H1 C1 1_555 1_555
C2 C1 1_555 1_555
H2 C2 1_555 1_555
C3 C2 1_555 1_555
H3 C3 1_555 1_555
C4 C3 1_555 1_555
C5 N1 1_555 1_555
H4 C5 1_555 1_555
C6 C4 1_555 1_555
C7 N2 1_555 1_555
C8 N2 1_555 1_555
H5 C8 1_555 1_555
H6 C7 1_555 1_555
H7 C8 1_555 1_555
H8 C7 1_555 1_555
Zn1G N1E 1_555 1_555
Cl1B Zn1 1_555 1_555
O1E C6E 1_555 1_555
N1E C1E 1_555 1_555
N1B Zn1 1_555 1_555
N2E C6E 1_555 1_555
C1E H1E 1_555 1_555
C2E C1E 1_555 1_555
H2E C2E 1_555 1_555
C3E C2E 1_555 1_555
H3E C3E 1_555 1_555
C4E C3E 1_555 1_555
C5E N1E 1_555 1_555
H4E C5E 1_555 1_555
C6E C4E 1_555 1_555
C7E C8 1_555 1_555
C8E C7 1_555 1_555
H5E C8E 1_555 1_555
H6E C7E 1_555 1_555
H7E C8E 1_555 1_555
H8E C7E 1_555 1_555
C4 C5 1_555 1_555
N2E C7E 1_555 1_555
N2E C8E 1_555 1_555
C4E C5E 1_555 1_555

#END
