
#######################################################################
#
#                 Cambridge Crystallographic Data Centre
#                                CCDC 
#
#######################################################################
#
# If this CIF has been generated from an entry in the Cambridge 
# Structural Database, then it will include bibliographic, chemical, 
# crystal, experimental, refinement or atomic coordinate data resulting 
# from the CCDC's data processing and validation procedures.
#
#######################################################################

data_SEDTIF
_symmetry_cell_setting           trigonal
_symmetry_space_group_name_H-M   'P 3 1 m'
_symmetry_Int_Tables_number      157
_space_group_name_Hall           "P 3 -2'"
loop_
_symmetry_equiv_pos_site_id
_symmetry_equiv_pos_as_xyz
1 x,y,z
2 -y,x-y,z
3 y,x,z
4 -x+y,-x,z
5 -x,-x+y,z
6 x-y,-y,z
_cell_length_a                   14.144(5)
_cell_length_b                   14.144(5)
_cell_length_c                   4.0902(6)
_cell_angle_alpha                90
_cell_angle_beta                 90
_cell_angle_gamma                120
_cell_volume                     708.63
loop_
_atom_site_label
_atom_site_type_symbol
_atom_site_fract_x
_atom_site_fract_y
_atom_site_fract_z
Pb1 Pb 0.0000 0.0000 0.46376(15)
Pb2 Pb 0.6667 0.3333 0.62405(8)
C1 C 0.3761(7) 0.3761(7) 0.223(2)
C2 C 0.2812(7) 0.2812(7) 0.349(2)
N1 N 0.2071(6) 0.2071(6) 0.449(2)
C3 C 0.4731(5) 0.3741(5) 0.1560(14)
N2 N 0.5517(5) 0.3710(5) 0.1048(15)
C4 C 0.0000 0.2893(7) -0.238(3)
C5 C 0.0000 0.2028(6) -0.085(2)
N3 N 0.0000 0.1272(6) 0.0265(19)
C6 C -0.0998(5) 0.2824(5) -0.3242(15)
N4 N -0.1786(5) 0.2801(6) -0.4004(16)
Pb1_2 Pb 0.0000 0.0000 -0.53624(15)
Pb1_3 Pb 0.0000 0.0000 1.46376(15)
Pb2B Pb 0.3333 0.6667 0.62405(8)
Pb2_2 Pb 0.6667 0.3333 -0.37595(8)
Pb2_3 Pb -0.3333 0.3333 -0.37595(8)
Pb2B_2 Pb 0.3333 0.6667 -0.37595(8)
Pb2_4 Pb -0.3333 0.3333 0.62405(8)
Pb2B_3 Pb -0.6667 -0.3333 -0.37595(8)
Pb2B_4 Pb -0.6667 -0.3333 0.62405(8)
Pb2_5 Pb -0.3333 -0.6667 -0.37595(8)
Pb2_6 Pb -0.3333 -0.6667 0.62405(8)
Pb2B_5 Pb 0.3333 -0.3333 -0.37595(8)
Pb2B_6 Pb 0.3333 -0.3333 0.62405(8)
C1A C -0.3761(7) 0.0000(10) 0.223(2)
C1C C 0.0000(10) -0.3761(7) 0.223(2)
C2A C -0.2812(7) 0.0000(10) 0.349(2)
C2C C 0.0000(10) -0.2812(7) 0.349(2)
N1A N -0.2071(6) 0.0000(8) 0.449(2)
N1C N 0.0000(8) -0.2071(6) 0.449(2)
C3B C 0.3741(5) 0.4731(5) 0.1560(14)
C3A C -0.3741(5) 0.0990(7) 0.1560(14)
C3D C -0.4731(5) -0.0990(7) 0.1560(14)
C3C C -0.0990(7) -0.4731(5) 0.1560(14)
C3E C 0.0990(7) -0.3741(5) 0.1560(14)
N2B N 0.3710(5) 0.5517(5) 0.1048(15)
N2A N -0.3710(5) 0.1807(7) 0.1048(15)
N2D N -0.5517(5) -0.1807(7) 0.1048(15)
N2C N -0.1807(7) -0.5517(5) 0.1048(15)
N2E N 0.1807(7) -0.3710(5) 0.1048(15)
N2_2 N 0.5517(5) 0.3710(5) 1.1048(15)
N2A_2 N 0.6290(5) 0.1807(7) 0.1048(15)
N2A_3 N 0.6290(5) 0.1807(7) 1.1048(15)
N2C_2 N 0.8193(7) 0.4483(5) 0.1048(15)
N2C_3 N 0.8193(7) 0.4483(5) 1.1048(15)
N2B_2 N 0.3710(5) 0.5517(5) 1.1048(15)
N2D_2 N 0.4483(5) 0.8193(7) 0.1048(15)
N2D_3 N 0.4483(5) 0.8193(7) 1.1048(15)
N2E_2 N 0.1807(7) 0.6290(5) 0.1048(15)
N2E_3 N 0.1807(7) 0.6290(5) 1.1048(15)
C4_2 C 0.0000 0.2893(7) 0.762(3)
C4A C -0.2893(7) -0.2893(7) -0.238(3)
C5_2 C 0.0000 0.2028(6) 0.915(2)
C5A C -0.2028(6) -0.2028(6) -0.085(2)
N3_2 N 0.0000 0.1272(6) 1.0265(19)
N3A N -0.1272(6) -0.1272(6) 0.0265(19)
N3A_2 N -0.1272(6) -0.1272(6) 1.0265(19)
N3B N 0.1272(6) 0.0000 0.0265(19)
N3B_2 N 0.1272(6) 0.0000 1.0265(19)
C6D C 0.0998(5) 0.3822(7) -0.3242(15)
C6_2 C -0.0998(5) 0.2824(5) 0.6758(15)
C6D_2 C 0.0998(5) 0.3822(7) 0.6758(15)
C6A C -0.2824(5) -0.3822(7) -0.3242(15)
C6E C -0.3822(7) -0.2824(5) -0.3242(15)
N4D N 0.1786(5) 0.4587(8) -0.4004(16)
N4_2 N -0.1786(5) 0.2801(6) 0.5996(16)
N4D_2 N 0.1786(5) 0.4587(8) 0.5996(16)
N4A N -0.2801(6) -0.4587(8) -0.4004(16)
N4E N -0.4587(8) -0.2801(6) -0.4004(16)
N4_3 N 0.8214(5) 0.2801(6) 0.5996(16)
N4A_2 N 0.7199(6) 0.5413(8) 0.5996(16)
N4C N 0.4587(8) 0.1786(5) 0.5996(16)
N4B N 0.2801(6) 0.8214(5) 0.5996(16)
N4E_2 N 0.5413(8) 0.7199(6) 0.5996(16)
loop_
_geom_bond_atom_site_label_1
_geom_bond_atom_site_label_2
_geom_bond_site_symmetry_1
_geom_bond_site_symmetry_2
Pb1 N1 1_555 1_555
Pb2 N2 1_555 1_555
C1 C2 1_555 1_555
C2 N1 1_555 1_555
C3 C1 1_555 1_555
N2 C3 1_555 1_555
C4 C5 1_555 1_555
C5 N3 1_555 1_555
N3 Pb1 1_555 1_555
C6 C4 1_555 1_555
N4 C6 1_555 1_555
Pb1_2 N3 1_555 1_555
Pb1_3 N3_2 1_555 1_555
Pb2B N2B 1_555 1_555
Pb2_2 N2 1_555 1_555
Pb2_3 N4 1_555 1_555
Pb2B_2 N2B 1_555 1_555
Pb2_4 N2A 1_555 1_555
Pb2B_3 N2D 1_555 1_555
Pb2B_4 N2D 1_555 1_555
Pb2_5 N2C 1_555 1_555
Pb2_6 N2C 1_555 1_555
Pb2B_5 N2E 1_555 1_555
Pb2B_6 N2E 1_555 1_555
C1A C2A 1_555 1_555
C1C C2C 1_555 1_555
C2A N1A 1_555 1_555
C2C N1C 1_555 1_555
N1A Pb1 1_555 1_555
N1C Pb1 1_555 1_555
C3B C1 1_555 1_555
C3A C1A 1_555 1_555
C3D C1A 1_555 1_555
C3C C1C 1_555 1_555
C3E C1C 1_555 1_555
N2B C3B 1_555 1_555
N2A Pb2_3 1_555 1_555
N2D C3D 1_555 1_555
N2C C3C 1_555 1_555
N2E C3E 1_555 1_555
N2_2 Pb2 1_555 1_555
N2A_2 Pb2 1_555 1_555
N2A_3 Pb2 1_555 1_555
N2C_2 Pb2 1_555 1_555
N2C_3 Pb2 1_555 1_555
N2B_2 Pb2B 1_555 1_555
N2D_2 Pb2B 1_555 1_555
N2D_3 Pb2B 1_555 1_555
N2E_2 Pb2B 1_555 1_555
N2E_3 Pb2B 1_555 1_555
C4_2 C5_2 1_555 1_555
C4A C5A 1_555 1_555
C5_2 N3_2 1_555 1_555
C5A N3A 1_555 1_555
N3_2 Pb1 1_555 1_555
N3A Pb1 1_555 1_555
N3A_2 Pb1 1_555 1_555
N3B Pb1 1_555 1_555
N3B_2 Pb1 1_555 1_555
C6D C4 1_555 1_555
C6_2 C4_2 1_555 1_555
C6D_2 C4_2 1_555 1_555
C6A C4A 1_555 1_555
C6E C4A 1_555 1_555
N4D Pb2B_2 1_555 1_555
N4_2 Pb2_4 1_555 1_555
N4D_2 Pb2B 1_555 1_555
N4A Pb2_5 1_555 1_555
N4E Pb2B_3 1_555 1_555
N4_3 Pb2 1_555 1_555
N4A_2 Pb2 1_555 1_555
N4C Pb2 1_555 1_555
N4B Pb2B 1_555 1_555
N4E_2 Pb2B 1_555 1_555
Pb1_2 N3A 1_555 1_555
Pb1_2 N3B 1_555 1_555
Pb1_3 N3A_2 1_555 1_555
Pb1_3 N3B_2 1_555 1_555
Pb2_2 N2A_2 1_555 1_555
Pb2_2 N2C_2 1_555 1_555
Pb2B_2 N2D_2 1_555 1_555
Pb2B_2 N2E_2 1_555 1_555
C3A N2A 1_555 1_555
C6D N4D 1_555 1_555
C6_2 N4_2 1_555 1_555
C6D_2 N4D_2 1_555 1_555
C6A N4A 1_555 1_555
C6E N4E 1_555 1_555

#END
