
#######################################################################
#
#                 Cambridge Crystallographic Data Centre
#                                CCDC 
#
#######################################################################
#
# If this CIF has been generated from an entry in the Cambridge 
# Structural Database, then it will include bibliographic, chemical, 
# crystal, experimental, refinement or atomic coordinate data resulting 
# from the CCDC's data processing and validation procedures.
#
#######################################################################

data_SEDVOM
_symmetry_cell_setting           monoclinic
_symmetry_space_group_name_H-M   'P 21'
_symmetry_Int_Tables_number      4
_space_group_name_Hall           'P 2yb'
loop_
_symmetry_equiv_pos_site_id
_symmetry_equiv_pos_as_xyz
1 x,y,z
2 -x,1/2+y,-z
_cell_length_a                   11.015(1)
_cell_length_b                   16.560(2)
_cell_length_c                   19.939(3)
_cell_angle_alpha                90
_cell_angle_beta                 103.16(1)
_cell_angle_gamma                90
_cell_volume                     3541.53
loop_
_atom_site_label
_atom_site_type_symbol
_atom_site_fract_x
_atom_site_fract_y
_atom_site_fract_z
Dy1 Dy -0.16937(6) -0.49980 0.09960(3)
Dy2 Dy -0.32204(5) -0.49582(4) -0.09787(3)
O1 O 0.0579(13) -0.4804(9) 0.1486(8)
O2 O -0.1138(14) -0.5727(10) 0.2035(6)
O3 O -0.3431(11) -0.4924(8) 0.1588(6)
O4 O -0.1432(13) -0.3879(8) 0.1786(7)
O5 O -0.5429(12) -0.5170(8) -0.1371(9)
O6 O -0.1579(11) -0.4988(8) -0.1611(6)
O7 O -0.3514(14) -0.6115(8) -0.1764(8)
O8 O -0.3878(11) -0.4056(7) -0.1980(6)
O9 O -0.1868(10) -0.3846(6) -0.0658(5)
O10 O -0.0972(12) -0.3875(8) 0.0475(6)
C1 C -0.1113(14) -0.3603(9) -0.0115(8)
C2 C -0.0317(13) -0.2847(8) -0.0174(7)
N1 N -0.0500(13) -0.2653(8) -0.0924(7)
C3 C -0.0671(16) -0.2125(10) 0.0228(9)
C4 C 0.0382(16) -0.1554(10) 0.0491(9)
C5 C 0.0708(14) -0.1016(9) -0.0064(8)
O11 O 0.0370(10) -0.1113(7) -0.0684(6)
O12 O 0.1477(10) -0.0413(6) 0.0152(6)
O13 O -0.3792(11) -0.6146(7) -0.0446(6)
O14 O -0.2990(11) -0.6125(7) 0.0707(6)
C6 C -0.3576(14) -0.6421(9) 0.0155(8)
C7 C -0.4174(16) -0.7270(10) 0.0212(9)
N2 N -0.4040(14) -0.7443(9) 0.0947(8)
C8 C -0.5455(15) -0.7380(10) -0.0211(9)
C9 C -0.5795(17) -0.8231(11) -0.0476(9)
C10 C -0.5959(14) -0.8884(9) 0.0063(8)
O15 O -0.5592(10) -0.8781(7) 0.0669(6)
O16 O -0.6580(10) -0.9522(7) -0.0165(6)
O11A O -0.0370(10) -0.6113(7) 0.0684(6)
O12A O -0.1477(10) -0.5413(6) -0.0152(6)
O16A O -0.3420(10) -0.4522(7) 0.0165(6)
O15A O -0.4408(10) -0.3781(7) -0.0669(6)
Dy1A Dy 0.16937(6) 0.00020 -0.09960(3)
Dy2A Dy 0.32204(5) 0.00418(4) 0.09787(3)
Dy2A_2 Dy -0.67796(5) -0.99582(4) 0.09787(3)
Dy1A_2 Dy -0.83063(6) -0.99980 -0.09960(3)
Dy3 Dy -0.82406(6) -0.52035(4) -0.60654(3)
Dy4 Dy -0.68140(5) -0.50999(4) -0.40840(3)
O17 O -1.0549(12) -0.5163(8) -0.6395(8)
O18 O -0.8771(14) -0.6102(7) -0.7055(7)
O19 O -0.6636(11) -0.5035(8) -0.6710(6)
O20 O -0.8887(13) -0.4220(8) -0.6980(7)
O21 O -0.4595(10) -0.5283(9) -0.3649(7)
O22 O -0.8613(13) -0.5116(8) -0.3535(8)
O23 O -0.6565(13) -0.6225(7) -0.3324(7)
O24 O -0.6332(15) -0.4388(10) -0.3016(7)
O25 O -0.8865(11) -0.4036(7) -0.5622(6)
O26 O -0.8255(10) -0.4037(7) -0.4469(6)
C11 C -0.8943(14) -0.3806(9) -0.5025(8)
C12 C -0.9888(16) -0.3154(10) -0.5015(9)
N3 N -0.9943(13) -0.3060(8) -0.4258(7)
C13 C -0.9440(14) -0.2330(9) -0.5269(8)
C14 C -1.0514(16) -0.1722(10) -0.5455(9)
C15 C -1.0889(14) -0.1280(9) -0.4890(8)
O27 O -1.0632(11) -0.1466(7) -0.4289(6)
O28 O -1.1478(10) -0.0597(6) -0.5073(6)
O29 O -0.6218(11) -0.6329(7) -0.4596(6)
O30 O -0.6822(11) -0.6262(7) -0.5737(6)
C16 C -0.6274(14) -0.6590(9) -0.5201(8)
C17 C -0.5691(15) -0.7398(9) -0.5280(8)
N4 N -0.5535(14) -0.7472(9) -0.6015(8)
C18 C -0.4436(18) -0.7546(11) -0.4747(10)
C19 C -0.4206(17) -0.8411(11) -0.4488(10)
C20 C -0.3981(14) -0.9027(9) -0.5006(8)
O31 O -0.4330(10) -0.8907(7) -0.5646(6)
O32 O -0.3492(9) -0.9706(6) -0.4780(5)
O27A O -0.9368(11) -0.6466(7) -0.5711(6)
O28A O -0.8522(10) -0.5597(6) -0.4927(6)
O32A O -0.6508(9) -0.4706(6) -0.5220(5)
O31A O -0.5670(10) -0.3907(7) -0.4354(6)
Dy3A Dy -1.17594(6) -0.02035(4) -0.39346(3)
Dy4A Dy -1.31860(5) -0.00999(4) -0.59160(3)
Dy4A_2 Dy -0.31860(5) -1.00999(4) -0.59160(3)
Dy3A_2 Dy -0.17594(6) -1.02035(4) -0.39346(3)
Cl1 Cl -0.3463(5) -0.1659(3) -0.1888(3)
O33 O -0.378(3) -0.192(2) -0.259(1)
O34 O -0.447(2) -0.118(2) -0.195(3)
O35 O -0.339(2) -0.237(1) -0.149(1)
O36 O -0.234(2) -0.128(1) -0.172(1)
Cl2 Cl -1.1909(8) -0.9761(8) -0.9478(7)
O37 O -1.203 -1.042 -0.895
O38 O -1.178 -1.010 -1.021
O39 O -1.069 -0.925 -0.886
O40 O -1.301 -0.921 -0.938
Cl3 Cl -0.1588(5) -0.3474(3) -0.2965(2)
O41 O -0.060(2) -0.399(1) -0.312(1)
O42 O -0.178(2) -0.276(1) -0.342(1)
O43 O -0.282(2) -0.389(1) -0.309(1)
O44 O -0.125(2) -0.319(2) -0.225(1)
Cl4 Cl -0.2638(6) -0.7235(4) -0.7049(4)
O45 O -0.290(2) -0.637(2) -0.720(2)
O46 O -0.286(2) -0.744(1) -0.641(1)
O47 O -0.132(2) -0.742(12) -0.710(1)
O48 O -0.339(3) -0.771(2) -0.757(12)
Cl5 Cl -0.3105(6) -0.3553(3) -0.6822(3)
O49 O -0.359(3) -0.293(2) -0.644(12)
O50 O -0.326(2) -0.334(2) -0.754(1)
O51 O -0.390(4) -0.423(2) -0.666(3)
O52 O -0.155(4) -0.364(2) -0.652(2)
Cl6 Cl -0.2113(5) -0.5083(4) -0.4733(3)
O53 O -0.212(3) -0.555(2) -0.536(2)
O54 O -0.097(2) -0.468(2) -0.457(1)
O55 O -0.331(3) -0.484(4) -0.486(2)
O56 O -0.207(3) -0.570(2) -0.417(2)
Cl7 Cl -0.0005(5) -0.1874(3) -0.7515(3)
O57 O -0.062(3) -0.227(2) -0.814(1)
O58 O -0.084(2) -0.148(2) -0.718(2)
O59 O 0.072(3) -0.241(2) -0.700(2)
O60 O 0.085(4) -0.135(2) -0.770(1)
Cl8 Cl -0.6802(6) -0.3422(4) -0.8256(4)
O61 O -0.667(3) -0.333(2) -0.741(2)
O62 O -0.594(3) -0.418(1) -0.848(2)
O63 O -0.604(2) -0.275(1) -0.839(1)
O64 O -0.801(2) -0.329(2) -0.861(2)
O65 O -0.154(3) -0.796(5) -0.844(2)
O66 O 0.348(2) -0.662(1) 0.806(1)
loop_
_geom_bond_atom_site_label_1
_geom_bond_atom_site_label_2
_geom_bond_site_symmetry_1
_geom_bond_site_symmetry_2
Dy1 O1 1_555 1_555
Dy2 O5 1_555 1_555
O2 Dy1 1_555 1_555
O3 Dy1 1_555 1_555
O4 Dy1 1_555 1_555
O6 Dy2 1_555 1_555
O7 Dy2 1_555 1_555
O8 Dy2 1_555 1_555
O9 Dy2 1_555 1_555
O10 Dy1 1_555 1_555
C1 O9 1_555 1_555
C2 C1 1_555 1_555
N1 C2 1_555 1_555
C3 C2 1_555 1_555
C4 C3 1_555 1_555
C5 C4 1_555 1_555
O11 C5 1_555 1_555
O12 C5 1_555 1_555
O13 Dy2 1_555 1_555
O14 Dy1 1_555 1_555
C6 O13 1_555 1_555
C7 C6 1_555 1_555
N2 C7 1_555 1_555
C8 C7 1_555 1_555
C9 C8 1_555 1_555
C10 C9 1_555 1_555
O15 C10 1_555 1_555
O16 C10 1_555 1_555
Dy3 O17 1_555 1_555
Dy4 O21 1_555 1_555
O18 Dy3 1_555 1_555
O19 Dy3 1_555 1_555
O20 Dy3 1_555 1_555
O22 Dy4 1_555 1_555
O23 Dy4 1_555 1_555
O24 Dy4 1_555 1_555
O25 Dy3 1_555 1_555
O26 Dy4 1_555 1_555
C11 O25 1_555 1_555
C12 C11 1_555 1_555
N3 C12 1_555 1_555
C13 C12 1_555 1_555
C14 C13 1_555 1_555
C15 C14 1_555 1_555
O27 C15 1_555 1_555
O28 C15 1_555 1_555
O29 Dy4 1_555 1_555
O30 Dy3 1_555 1_555
C16 O29 1_555 1_555
C17 C16 1_555 1_555
N4 C17 1_555 1_555
C18 C17 1_555 1_555
C19 C18 1_555 1_555
C20 C19 1_555 1_555
O31 C20 1_555 1_555
O32 C20 1_555 1_555
Cl1 O33 1_555 1_555
O34 Cl1 1_555 1_555
O35 Cl1 1_555 1_555
O36 Cl1 1_555 1_555
Cl2 O37 1_555 1_555
O38 Cl2 1_555 1_555
O39 Cl2 1_555 1_555
O40 Cl2 1_555 1_555
Cl3 O41 1_555 1_555
O42 Cl3 1_555 1_555
O43 Cl3 1_555 1_555
O44 Cl3 1_555 1_555
Cl4 O45 1_555 1_555
O46 Cl4 1_555 1_555
O47 Cl4 1_555 1_555
O48 Cl4 1_555 1_555
Cl5 O49 1_555 1_555
O50 Cl5 1_555 1_555
O51 Cl5 1_555 1_555
O52 Cl5 1_555 1_555
Cl6 O53 1_555 1_555
O54 Cl6 1_555 1_555
O55 Cl6 1_555 1_555
O56 Cl6 1_555 1_555
Cl7 O57 1_555 1_555
O58 Cl7 1_555 1_555
O59 Cl7 1_555 1_555
O60 Cl7 1_555 1_555
Cl8 O61 1_555 1_555
O62 Cl8 1_555 1_555
O63 Cl8 1_555 1_555
O64 Cl8 1_555 1_555
O11A Dy1 1_555 1_555
O12A Dy1 1_555 1_555
O16A Dy1 1_555 1_555
O15A Dy2 1_555 1_555
Dy1A O11 1_555 1_555
Dy2A O12 1_555 1_555
Dy2A_2 O15 1_555 1_555
Dy1A_2 O16 1_555 1_555
O27A Dy3 1_555 1_555
O28A Dy3 1_555 1_555
O32A Dy3 1_555 1_555
O31A Dy4 1_555 1_555
Dy3A O27 1_555 1_555
Dy4A O28 1_555 1_555
Dy4A_2 O31 1_555 1_555
Dy3A_2 O32 1_555 1_555
Dy2 O12A 1_555 1_555
Dy2 O16A 1_555 1_555
O10 C1 1_555 1_555
O12 Dy1A 1_555 1_555
O14 C6 1_555 1_555
O16 Dy2A_2 1_555 1_555
Dy4 O28A 1_555 1_555
Dy4 O32A 1_555 1_555
O26 C11 1_555 1_555
O28 Dy3A 1_555 1_555
O30 C16 1_555 1_555
O32 Dy4A_2 1_555 1_555

#END
