
#######################################################################
#
#                 Cambridge Crystallographic Data Centre
#                                CCDC 
#
#######################################################################
#
# If this CIF has been generated from an entry in the Cambridge 
# Structural Database, then it will include bibliographic, chemical, 
# crystal, experimental, refinement or atomic coordinate data resulting 
# from the CCDC's data processing and validation procedures.
#
#######################################################################

data_SEFHUI
_symmetry_cell_setting           triclinic
_symmetry_space_group_name_H-M   'P -1'
_symmetry_Int_Tables_number      2
_space_group_name_Hall           '-P 1'
loop_
_symmetry_equiv_pos_site_id
_symmetry_equiv_pos_as_xyz
1 x,y,z
2 -x,-y,-z
_cell_length_a                   7.6095(6)
_cell_length_b                   12.2202(10)
_cell_length_c                   18.4300(16)
_cell_angle_alpha                86.3260(10)
_cell_angle_beta                 82.8070(10)
_cell_angle_gamma                73.9080(10)
_cell_volume                     1632.91
loop_
_atom_site_label
_atom_site_type_symbol
_atom_site_fract_x
_atom_site_fract_y
_atom_site_fract_z
Cd1 Cd 0.55080(2) 0.301159(14) 0.372054(9)
Cd2 Cd 0.30003(3) -0.328051(15) 0.136033(9)
S1 S 0.85467(8) 0.33433(5) 0.48975(3)
S2 S 0.60707(9) -0.29771(5) -0.01636(3)
C1 C 0.4248(4) 0.0567(2) 0.38677(14)
C2 C 0.2401(4) 0.1049(3) 0.3630(2)
H1 H 0.2198 0.1853 0.3533
H2 H 0.1487 0.0920 0.4009
H3 H 0.2316 0.0688 0.3193
N1 N -0.1037(3) 0.19547(18) 0.16309(12)
N2 N -0.2399(3) 0.25605(19) 0.27087(12)
N3 N -0.0378(3) 0.02443(19) 0.09328(11)
N4 N 0.0977(3) -0.15776(19) 0.10778(12)
N5 N 0.5434(3) 0.11475(17) 0.39413(12)
N6 N 0.4952(3) -0.05469(17) 0.40498(11)
N7 N 0.4434(3) -0.19735(18) 0.33311(12)
N8 N 0.4037(3) -0.2714(2) 0.23320(12)
O1 O 0.6073(4) -0.18321(19) -0.03846(15)
O2 O 0.7898(3) -0.3769(2) -0.03400(15)
O3 O 0.5583(3) -0.3081(2) 0.06337(10)
O4 O 0.4716(3) -0.33379(18) -0.05416(10)
O5 O 0.7756(3) 0.26303(16) 0.44964(11)
O6 O 0.7457(3) 0.3605(2) 0.56145(12)
O7 O 0.8507(3) 0.44291(19) 0.44920(13)
O8 O 1.0419(3) 0.27193(18) 0.50240(13)
C3 C -0.0708(4) 0.1475(2) 0.09046(14)
H4 H -0.1767 0.1815 0.0643
H5 H 0.0349 0.1668 0.0634
C4 C -0.0777(4) 0.2884(2) 0.25632(16)
H6 H -0.0341 0.3294 0.2874
C5 C 0.0070(4) 0.2514(2) 0.19017(16)
H7 H 0.1179 0.2616 0.1675
C6 C -0.2524(4) 0.2002(2) 0.21358(13)
C7 C -0.4026(4) 0.1485(3) 0.20429(16)
H8 H -0.4931 0.1633 0.2463
H9 H -0.3530 0.0677 0.1993
H10 H -0.4589 0.1810 0.1612
C8 C -0.1615(4) -0.0337(3) 0.07941(15)
H11 H -0.2794 -0.0021 0.0662
C9 C -0.0774(4) -0.1450(3) 0.08886(15)
H12 H -0.1289 -0.2043 0.0835
C10 C 0.1181(4) -0.0541(2) 0.10965(14)
C11 C 0.2868(4) -0.0262(3) 0.12580(19)
H13 H 0.3791 -0.0953 0.1355
H14 H 0.2583 0.0206 0.1679
H15 H 0.3321 0.0141 0.0845
C12 C 0.6164(4) -0.2497(3) 0.29902(17)
H16 H 0.7288 -0.2536 0.3154
C13 C 0.5902(4) -0.2935(3) 0.23802(17)
H17 H 0.6832 -0.3329 0.2040
C14 C 0.3185(4) -0.2131(2) 0.29114(14)
C15 C 0.1159(4) -0.1688(3) 0.30728(17)
H18 H 0.0570 -0.1910 0.2697
H19 H 0.0830 -0.0872 0.3088
H20 H 0.0766 -0.1996 0.3537
C16 C 0.4097(4) -0.1469(2) 0.40484(14)
H21 H 0.2781 -0.1182 0.4182
H22 H 0.4583 -0.2050 0.4410
C17 C 0.6978(4) 0.0363(2) 0.41724(15)
H23 H 0.8048 0.0532 0.4262
C18 C 0.6693(4) -0.0675(2) 0.42470(15)
H24 H 0.7503 -0.1345 0.4400
O9 O 0.3309(3) 0.35454(18) 0.47021(12)
H25 H 0.239(4) 0.331(3) 0.4728(19)
H26 H 0.299(5) 0.4223(17) 0.4808(19)
O10 O 0.0596(3) -0.3922(2) 0.19955(11)
H27 H 0.054(5) -0.416(3) 0.2427(11)
H28 H 0.006(5) -0.426(3) 0.1774(18)
O11 O 0.5613(3) 0.48999(18) 0.36859(13)
H29 H 0.477(4) 0.538(3) 0.3914(18)
H30 H 0.654(4) 0.485(3) 0.3903(18)
O12 O 0.3307(3) 0.37368(18) 0.29015(11)
H31 H 0.248(4) 0.429(2) 0.3086(18)
H32 H 0.384(5) 0.399(3) 0.2525(14)
O13 O 0.2173(3) -0.39997(18) 0.03885(11)
H33 H 0.297(4) -0.387(3) 0.0073(15)
H34 H 0.227(5) -0.4696(16) 0.0399(18)
O14 O 0.4910(3) -0.52077(17) 0.16262(11)
H35 H 0.489(5) -0.565(2) 0.1291(14)
H36 H 0.602(3) -0.521(3) 0.1592(18)
Cd1_2 Cd -0.44920(2) 0.301159(14) 0.372054(9)
N2_2 N 0.7601(3) 0.25605(19) 0.27087(12)
O15 O 0.0518(3) -0.4479(2) 0.34987(11)
H37 H -0.006(4) -0.480(3) 0.3833(15)
H38 H 0.113(4) -0.422(3) 0.3766(17)
O16 O -0.1308(3) -0.49360(18) 0.11491(12)
H39 H -0.173(5) -0.449(3) 0.0813(15)
H40 H -0.047(4) -0.545(2) 0.0939(17)
loop_
_geom_bond_atom_site_label_1
_geom_bond_atom_site_label_2
_geom_bond_site_symmetry_1
_geom_bond_site_symmetry_2
Cd1 N5 1_555 1_555
Cd2 N4 1_555 1_555
S1 O5 1_555 1_555
S2 O1 1_555 1_555
C1 C2 1_555 1_555
C2 H1 1_555 1_555
H2 C2 1_555 1_555
H3 C2 1_555 1_555
N1 C3 1_555 1_555
N2 C4 1_555 1_555
N3 C3 1_555 1_555
N4 C9 1_555 1_555
N5 C1 1_555 1_555
N6 C1 1_555 1_555
N7 C12 1_555 1_555
N8 Cd2 1_555 1_555
O2 S2 1_555 1_555
O3 Cd2 1_555 1_555
O4 S2 1_555 1_555
O5 Cd1 1_555 1_555
O6 S1 1_555 1_555
O7 S1 1_555 1_555
O8 S1 1_555 1_555
C3 H4 1_555 1_555
H5 C3 1_555 1_555
C4 H6 1_555 1_555
C5 N1 1_555 1_555
H7 C5 1_555 1_555
C6 N1 1_555 1_555
C7 C6 1_555 1_555
H8 C7 1_555 1_555
H9 C7 1_555 1_555
H10 C7 1_555 1_555
C8 N3 1_555 1_555
H11 C8 1_555 1_555
C9 C8 1_555 1_555
H12 C9 1_555 1_555
C10 N3 1_555 1_555
C11 C10 1_555 1_555
H13 C11 1_555 1_555
H14 C11 1_555 1_555
H15 C11 1_555 1_555
C12 H16 1_555 1_555
C13 N8 1_555 1_555
H17 C13 1_555 1_555
C14 N7 1_555 1_555
C15 C14 1_555 1_555
H18 C15 1_555 1_555
H19 C15 1_555 1_555
H20 C15 1_555 1_555
C16 N6 1_555 1_555
H21 C16 1_555 1_555
H22 C16 1_555 1_555
C17 N5 1_555 1_555
H23 C17 1_555 1_555
C18 N6 1_555 1_555
H24 C18 1_555 1_555
O9 Cd1 1_555 1_555
H25 O9 1_555 1_555
H26 O9 1_555 1_555
O10 Cd2 1_555 1_555
H27 O10 1_555 1_555
H28 O10 1_555 1_555
O11 Cd1 1_555 1_555
H29 O11 1_555 1_555
H30 O11 1_555 1_555
O12 Cd1 1_555 1_555
H31 O12 1_555 1_555
H32 O12 1_555 1_555
O13 Cd2 1_555 1_555
H33 O13 1_555 1_555
H34 O13 1_555 1_555
O14 Cd2 1_555 1_555
H35 O14 1_555 1_555
H36 O14 1_555 1_555
O15 H37 1_555 1_555
H38 O15 1_555 1_555
O16 H39 1_555 1_555
H40 O16 1_555 1_555
Cd1_2 N2 1_555 1_555
N2_2 Cd1 1_555 1_555
S2 O3 1_555 1_555
N2 C6 1_555 1_555
N4 C10 1_555 1_555
N7 C16 1_555 1_555
N8 C14 1_555 1_555
C4 C5 1_555 1_555
C12 C13 1_555 1_555
C17 C18 1_555 1_555

#END
