
#######################################################################
#
#                 Cambridge Crystallographic Data Centre
#                                CCDC 
#
#######################################################################
#
# If this CIF has been generated from an entry in the Cambridge 
# Structural Database, then it will include bibliographic, chemical, 
# crystal, experimental, refinement or atomic coordinate data resulting 
# from the CCDC's data processing and validation procedures.
#
#######################################################################

data_SEFHIW
_symmetry_cell_setting           triclinic
_symmetry_space_group_name_H-M   'P -1'
_symmetry_Int_Tables_number      2
_space_group_name_Hall           '-P 1'
loop_
_symmetry_equiv_pos_site_id
_symmetry_equiv_pos_as_xyz
1 x,y,z
2 -x,-y,-z
_cell_length_a                   6.3243(18)
_cell_length_b                   8.365(2)
_cell_length_c                   19.042(5)
_cell_angle_alpha                97.291(3)
_cell_angle_beta                 94.535(4)
_cell_angle_gamma                94.165(4)
_cell_volume                     992.614
loop_
_atom_site_label
_atom_site_type_symbol
_atom_site_fract_x
_atom_site_fract_y
_atom_site_fract_z
Ca1 Ca 0.36225(12) 0.72521(9) 0.20995(4)
B1 B 0.9189(7) 1.2331(5) 0.2741(2)
C1 C 0.8981(6) 1.4053(5) 0.3768(2)
C2 C 1.1133(6) 0.9780(4) 0.1147(2)
C3 C 0.9486(6) 1.0878(4) 0.09428(19)
H1 H 0.8499 1.0281 0.0569
H2 H 1.0192 1.1764 0.0744
C4 C 0.7323(6) 1.0321(4) 0.1956(2)
C5 C 1.0681(7) 1.1996(5) 0.4434(2)
H3 H 1.2003 1.1512 0.4532
H4 H 1.0320 1.2593 0.4873
C6 C 0.8946(7) 1.0695(5) 0.4163(2)
C7 C 0.8217(5) 1.1586(4) 0.15266(19)
C8 C 0.5090(6) 1.3305(5) 0.1699(2)
C9 C 1.0967(6) 1.3151(4) 0.3877(2)
C10 C 0.6429(6) 1.2455(4) 0.1175(2)
H5 H 0.7061 1.3240 0.0902
H6 H 0.5517 1.1668 0.0846
C11 C 1.2913(6) 1.4327(5) 0.4119(2)
H7 H 1.2878 1.4716 0.4620
H8 H 1.4181 1.3752 0.4068
C12 C 1.3073(6) 1.5755(5) 0.3717(2)
O1 O 0.3676(4) 0.9359(3) 0.31380(15)
O2 O 0.0074(4) 0.5983(3) 0.18337(15)
O3 O 0.4986(5) 1.4731(3) 0.17885(16)
O4 O 0.3661(4) 0.6705(3) 0.07828(14)
O5 O 1.1237(4) 0.9191(3) 0.17001(14)
O6 O 0.6199(4) 0.9107(3) 0.17096(14)
O7 O 1.2734(5) 1.5659(4) 0.30807(16)
O8 O 0.7880(4) 1.0741(3) 0.26287(13)
O9 O 0.7998(4) 1.3567(3) 0.31386(13)
O10 O 0.9507(4) 1.2694(3) 0.20396(12)
O11 O 1.1129(4) 1.2279(3) 0.31918(13)
O12 O 0.7187(4) 0.7095(3) 0.28934(16)
O13 O 0.7083(5) 1.0920(4) 0.41231(16)
O14 O 0.8415(5) 1.5121(3) 0.41834(15)
O15 O 1.2417(4) 0.9504(3) 0.06469(14)
H9 H 1.2801 0.8587 0.0642
O16 O 0.4066(5) 1.2304(3) 0.20546(17)
H10 H 0.3418 1.2818 0.2352
O17 O 1.3602(6) 1.7135(4) 0.41204(16)
H11 H 1.3728 1.7860 0.3871
O18 O 0.9674(5) 0.9288(4) 0.39450(17)
H12 H 0.8672 0.8628 0.3789
H14 H -0.0093 0.4958 0.1846
H15 H 0.4881 0.6577 0.0617
H16 H 0.4735 0.9982 0.3314
H17 H 0.2738 1.0009 0.3125
H18 H 0.7065 0.5954 0.3012
H19 H 0.7932 0.7052 0.2644
H20 H -0.0432 0.5840 0.1404
H21 H 0.2927 0.5894 0.0540
Ca1_2 Ca 0.36225(12) 1.72521(9) 0.20995(4)
Ca1_3 Ca 1.36225(12) 0.72521(9) 0.20995(4)
Ca1_4 Ca 1.36225(12) 1.72521(9) 0.20995(4)
O3_2 O 0.4986(5) 0.4731(3) 0.17885(16)
O5_2 O 0.1237(4) 0.9191(3) 0.17001(14)
O7_2 O 0.2734(5) 0.5659(4) 0.30807(16)
Cl1 Cl 0.80770(17) 0.63982(13) 0.03110(6)
H13 H 0.7457 0.6330 -0.0155
loop_
_geom_bond_atom_site_label_1
_geom_bond_atom_site_label_2
_geom_bond_site_symmetry_1
_geom_bond_site_symmetry_2
Ca1 O1 1_555 1_555
Cl1 H13 1_555 1_555
B1 O8 1_555 1_555
C1 C9 1_555 1_555
C2 C3 1_555 1_555
C3 H1 1_555 1_555
H2 C3 1_555 1_555
C4 C7 1_555 1_555
C5 H3 1_555 1_555
H4 C5 1_555 1_555
C6 C5 1_555 1_555
C7 C3 1_555 1_555
C8 C10 1_555 1_555
C9 C5 1_555 1_555
C10 C7 1_555 1_555
H5 C10 1_555 1_555
H6 C10 1_555 1_555
C11 C9 1_555 1_555
H7 C11 1_555 1_555
H8 C11 1_555 1_555
C12 C11 1_555 1_555
O1 H16 1_555 1_555
O2 Ca1 1_555 1_555
O3 C8 1_555 1_555
O4 Ca1 1_555 1_555
O5 C2 1_555 1_555
O6 Ca1 1_555 1_555
O7 C12 1_555 1_555
O8 C4 1_555 1_555
O9 B1 1_555 1_555
O10 B1 1_555 1_555
O11 B1 1_555 1_555
O12 Ca1 1_555 1_555
O13 C6 1_555 1_555
O14 C1 1_555 1_555
O15 C2 1_555 1_555
H9 O15 1_555 1_555
O16 C8 1_555 1_555
H10 O16 1_555 1_555
O17 C12 1_555 1_555
H11 O17 1_555 1_555
O18 C6 1_555 1_555
H12 O18 1_555 1_555
H14 O2 1_555 1_555
H15 O4 1_555 1_555
H17 O1 1_555 1_555
H18 O12 1_555 1_555
H19 O12 1_555 1_555
H20 O2 1_555 1_555
H21 O4 1_555 1_555
Ca1_2 O3 1_555 1_555
Ca1_3 O5 1_555 1_555
Ca1_4 O7 1_555 1_555
O3_2 Ca1 1_555 1_555
O5_2 Ca1 1_555 1_555
O7_2 Ca1 1_555 1_555
C1 O9 1_555 1_555
C4 O6 1_555 1_555
C7 O10 1_555 1_555
C9 O11 1_555 1_555

#END
