
#######################################################################
#
#                 Cambridge Crystallographic Data Centre
#                                CCDC 
#
#######################################################################
#
# If this CIF has been generated from an entry in the Cambridge 
# Structural Database, then it will include bibliographic, chemical, 
# crystal, experimental, refinement or atomic coordinate data resulting 
# from the CCDC's data processing and validation procedures.
#
#######################################################################

data_SEFJAQ
_symmetry_cell_setting           monoclinic
_symmetry_space_group_name_H-M   'P 21/c'
_symmetry_Int_Tables_number      14
_space_group_name_Hall           '-P 2ybc'
loop_
_symmetry_equiv_pos_site_id
_symmetry_equiv_pos_as_xyz
1 x,y,z
2 -x,1/2+y,1/2-z
3 -x,-y,-z
4 x,1/2-y,1/2+z
_cell_length_a                   9.2649(2)
_cell_length_b                   14.9855(3)
_cell_length_c                   16.5599(4)
_cell_angle_alpha                90
_cell_angle_beta                 95.3280(10)
_cell_angle_gamma                90
_cell_volume                     2289.23
loop_
_atom_site_label
_atom_site_type_symbol
_atom_site_fract_x
_atom_site_fract_y
_atom_site_fract_z
Cd1 Cd 0.26581(3) 0.330546(15) 0.320478(15)
C1 C 0.4665(4) 0.1498(2) 0.3733(2)
H1 H 0.4146 0.1392 0.4192
C2 C 0.5803(4) 0.1015(2) 0.3534(2)
H2 H 0.6223 0.0512 0.3815
C3 C 0.5333(4) 0.2084(2) 0.2646(2)
H3 H 0.5392 0.2457 0.2186
C4 C 0.7483(4) 0.1131(2) 0.2424(2)
H4 H 0.7521 0.0471 0.2396
H5 H 0.7373 0.1364 0.1863
C5 C 0.9460(4) 0.1139(2) 0.3565(2)
H6 H 0.9132 0.0654 0.3869
C6 C 1.0638(4) 0.1649(2) 0.3755(3)
H7 H 1.1278 0.1591 0.4234
C7 C 0.9662(4) 0.2141(2) 0.2615(2)
H8 H 0.9464 0.2480 0.2132
C8 C 0.4740(4) 0.5022(2) 0.3923(2)
H9 H 0.4183 0.5094 0.4373
C9 C 0.5874(4) 0.5535(2) 0.3767(2)
H10 H 0.6260 0.6028 0.4077
C10 C 0.5505(4) 0.4505(2) 0.2830(2)
H11 H 0.5611 0.4156 0.2360
C11 C 0.7620(4) 0.5529(2) 0.2691(2)
H12 H 0.7551 0.5333 0.2118
H13 H 0.7621 0.6189 0.2699
C12 C 0.9590(4) 0.5494(2) 0.3845(2)
H14 H 0.9260 0.5961 0.4170
C13 C 1.0769(4) 0.4975(2) 0.4010(2)
H15 H 1.1417 0.5018 0.4488
C14 C 0.9791(4) 0.4534(2) 0.2856(2)
H16 H 0.9596 0.4218 0.2361
N1 N 0.4359(3) 0.21701(19) 0.31709(18)
N2 N 0.6233(3) 0.1399(2) 0.28428(19)
N3 N 0.8830(3) 0.1464(2) 0.2839(2)
N4 N 1.0780(3) 0.22723(19) 0.31489(18)
N5 N 0.4506(3) 0.4372(2) 0.33300(18)
N6 N 0.6361(3) 0.52002(19) 0.30716(18)
N7 N 0.8969(3) 0.52027(19) 0.31065(18)
N8 N 1.0907(3) 0.4378(2) 0.33952(19)
O1 O 0.2620(4) 0.3649(3) 0.18838(18)
O2 O 0.2671(3) 0.39534(18) 0.04891(16)
O3 O 0.1946(4) 0.25120(19) 0.0902(2)
O4 O 0.0398(3) 0.3753(2) 0.1067(2)
O5 O 0.3207(3) 0.31942(18) 0.46307(17)
H17 H 0.4099(12) 0.315(3) 0.471(3)
H18 H 0.283(4) 0.306(3) 0.5041(16)
S1 S 0.18849(10) 0.34554(6) 0.10774(6)
Cd1_2 Cd 1.26581(3) 0.330546(15) 0.320478(15)
N4_2 N 0.0780(3) 0.22723(19) 0.31489(18)
N8_2 N 0.0907(3) 0.4378(2) 0.33952(19)
O6 O 0.5639(3) 0.3598(2) 0.1042(2)
H19 H 0.4791(16) 0.377(3) 0.096(3)
H20 H 0.617(3) 0.396(2) 0.084(3)
O7 O 0.7830(3) 0.4647(2) 0.0617(2)
H21 H 0.866(2) 0.445(3) 0.074(3)
H22 H 0.788(5) 0.502(3) 0.025(2)
C15 C 0.7773(7) 0.3298(3) 0.4292(4)
H23 H 0.7126 0.3044 0.3849
H24 H 0.8778 0.3261 0.4155
H25 H 0.7515 0.3924 0.4372
C16 C 0.7618(6) 0.2782(4) 0.5060(4)
H26 H 0.7727 0.2135 0.4962
H27 H 0.8374 0.2967 0.5489
O8 O 0.6163(4) 0.2971(2) 0.5315(2)
H28 H 0.581(6) 0.255(4) 0.554(4)
C17? C 0.8664(16) 0.288(2) 0.502(2)
C18? C 0.716(2) 0.3129(19) 0.4677(12)
H29? H 0.9180 0.3420 0.5221
H30? H 0.9184 0.2608 0.4593
H31? H 0.8611 0.2458 0.5465
H32? H 0.7122 0.3764 0.4512
H33? H 0.6861 0.2759 0.4194
loop_
_geom_bond_atom_site_label_1
_geom_bond_atom_site_label_2
_geom_bond_site_symmetry_1
_geom_bond_site_symmetry_2
Cd1 N1 1_555 1_555
C1 H1 1_555 1_555
C2 C1 1_555 1_555
H2 C2 1_555 1_555
C3 H3 1_555 1_555
C4 H4 1_555 1_555
H5 C4 1_555 1_555
C5 H6 1_555 1_555
C6 C5 1_555 1_555
H7 C6 1_555 1_555
C7 H8 1_555 1_555
C8 H9 1_555 1_555
C9 C8 1_555 1_555
H10 C9 1_555 1_555
C10 H11 1_555 1_555
C11 H12 1_555 1_555
H13 C11 1_555 1_555
C12 H14 1_555 1_555
C13 C12 1_555 1_555
H15 C13 1_555 1_555
C14 H16 1_555 1_555
N1 C1 1_555 1_555
N2 C2 1_555 1_555
N3 C4 1_555 1_555
N4 C6 1_555 1_555
N5 Cd1 1_555 1_555
N6 C9 1_555 1_555
N7 C11 1_555 1_555
N8 C13 1_555 1_555
O1 Cd1 1_555 1_555
O2 S1 1_555 1_555
O3 S1 1_555 1_555
O4 S1 1_555 1_555
O5 Cd1 1_555 1_555
H17 O5 1_555 1_555
H18 O5 1_555 1_555
O6 H19 1_555 1_555
H20 O6 1_555 1_555
O7 H21 1_555 1_555
H22 O7 1_555 1_555
S1 O1 1_555 1_555
C15 H23 1_555 1_555
H24 C15 1_555 1_555
H25 C15 1_555 1_555
C16 C15 1_555 1_555
H26 C16 1_555 1_555
H27 C16 1_555 1_555
O8 C16 1_555 1_555
H28 O8 1_555 1_555
Cd1_2 N4 1_555 1_555
N4_2 Cd1 1_555 1_555
N8_2 Cd1 1_555 1_555
C3 N1 1_555 1_555
C3 N2 1_555 1_555
C4 N2 1_555 1_555
C5 N3 1_555 1_555
C7 N3 1_555 1_555
C7 N4 1_555 1_555
C8 N5 1_555 1_555
C10 N5 1_555 1_555
C10 N6 1_555 1_555
C11 N6 1_555 1_555
C12 N7 1_555 1_555
C14 N7 1_555 1_555
C14 N8 1_555 1_555
N8 Cd1_2 1_555 1_555

#END
