
#######################################################################
#
#                 Cambridge Crystallographic Data Centre
#                                CCDC 
#
#######################################################################
#
# If this CIF has been generated from an entry in the Cambridge 
# Structural Database, then it will include bibliographic, chemical, 
# crystal, experimental, refinement or atomic coordinate data resulting 
# from the CCDC's data processing and validation procedures.
#
#######################################################################

data_SEFJIY
_symmetry_cell_setting           monoclinic
_symmetry_space_group_name_H-M   'P 21/c'
_symmetry_Int_Tables_number      14
_space_group_name_Hall           '-P 2ybc'
loop_
_symmetry_equiv_pos_site_id
_symmetry_equiv_pos_as_xyz
1 x,y,z
2 -x,1/2+y,1/2-z
3 -x,-y,-z
4 x,1/2-y,1/2+z
_cell_length_a                   16.185(4)
_cell_length_b                   22.422(5)
_cell_length_c                   21.028(5)
_cell_angle_alpha                90
_cell_angle_beta                 109.105(3)
_cell_angle_gamma                90
_cell_volume                     7210.75
loop_
_atom_site_label
_atom_site_type_symbol
_atom_site_fract_x
_atom_site_fract_y
_atom_site_fract_z
Cd1 Cd 0.39188(2) -0.135483(13) 0.789058(17)
Cd2 Cd 0.79352(2) 0.357383(13) 0.363207(17)
O1 O 0.3871(2) -0.03951(14) 0.74113(18)
O2 O 0.2893(2) -0.10346(15) 0.68740(18)
O3 O 0.8310(2) 0.26459(14) 0.33355(19)
O4 O 0.8897(2) 0.34092(14) 0.30062(18)
O5 O 0.88765(19) -0.61670(13) 0.46802(16)
O6 O 0.7983(2) -0.54701(14) 0.41316(17)
O7 O 0.3723(2) -0.23343(14) 0.8310(2)
O8 O 0.29103(19) -0.15897(13) 0.84086(17)
O9 O 0.3443(2) 0.13994(14) 0.5968(2)
O10 O 0.2956(2) -0.40084(13) 0.95848(17)
O11 O 0.8433(2) -0.37665(14) 0.5747(2)
O12 O 0.8999(2) 0.09408(14) 0.20095(17)
N1 N 0.5047(2) 0.17170(15) 0.48907(18)
N2 N 0.4458(2) 0.16858(15) 0.52155(19)
N3 N 0.4539(2) 0.26296(14) 0.50093(18)
N4 N 0.6856(2) 0.30809(15) 0.3916(2)
N5 N 0.7258(2) -0.23777(15) 0.64231(19)
N6 N 0.7279(2) -0.33360(18) 0.6286(2)
N7 N 0.6677(2) -0.32522(15) 0.65941(19)
N8 N 0.7205(2) -0.03531(15) 0.10794(19)
N9 N 0.6952(2) 0.04894(16) 0.0462(2)
N10 N 0.7559(3) 0.05768(18) 0.1074(2)
N11 N 0.4930(2) -0.18017(15) 0.75007(18)
N12 N 0.4352(3) -0.44686(17) 1.0429(2)
N13 N 0.5017(2) -0.45688(15) 1.10053(18)
N14 N 0.4408(2) -0.54282(14) 1.05281(18)
N15 N 0.4901(2) -0.08949(15) -0.11924(19)
N16 N 0.6881(2) -0.59729(15) 1.27414(18)
C1 C 0.3215(3) -0.0525(2) 0.6929(3)
C2 C 0.2820(3) -0.00578(19) 0.6411(2)
C3 C 0.2048(4) -0.0158(2) 0.5891(3)
H3 H 0.1755 -0.0529 0.5859
C4 C 0.1697(4) 0.0288(3) 0.5409(3)
H4 H 0.1162 0.0221 0.5056
C5 C 0.2134(4) 0.0827(3) 0.5450(3)
H5 H 0.1903 0.1132 0.5126
C6 C 0.2905(4) 0.0914(2) 0.5966(3)
C7 C 0.3242(3) 0.0480(2) 0.6446(2)
H6 H 0.3770 0.0553 0.6804
C8 C 0.3132(3) 0.1974(2) 0.5928(3)
C9 C 0.2520(3) 0.2141(3) 0.6222(3)
H7 H 0.2260 0.1852 0.6426
C10 C 0.2295(3) 0.2734(3) 0.6213(3)
H8 H 0.1863 0.2852 0.6403
C11 C 0.2682(3) 0.3151(2) 0.5937(3)
H9 H 0.2537 0.3560 0.5949
C12 C 0.3281(3) 0.2980(2) 0.5641(2)
H10 H 0.3542 0.3274 0.5443
C13 C 0.3516(3) 0.23849(19) 0.5624(2)
C14 C 0.4161(3) 0.22326(18) 0.5292(2)
C15 C 0.5081(3) 0.22952(18) 0.4780(2)
C16 C 0.5678(3) 0.3160(2) 0.4345(3)
H11 H 0.5270 0.3411 0.4453
C17 C 0.6270(3) 0.3398(2) 0.4086(3)
H12 H 0.6264 0.3818 0.4023
C18 C 0.6815(3) 0.2491(2) 0.3979(2)
H13 H 0.7202 0.2249 0.3834
C19 C 0.6243(3) 0.22143(19) 0.4243(2)
H14 H 0.6242 0.1792 0.4281
C20 C 0.3121(3) -0.2125(2) 0.8497(2)
C21 C 0.2664(3) -0.25222(19) 0.8843(2)
C22 C 0.2951(3) -0.31063(19) 0.8997(2)
H15 H 0.3421 -0.3255 0.8867
C23 C 0.2554(3) -0.34652(19) 0.9337(3)
C24 C 0.1870(4) -0.3279(2) 0.9509(3)
H16 H 0.1597 -0.3538 0.9738
C25 C 0.1569(4) -0.2701(3) 0.9349(3)
H17 H 0.1077 -0.2565 0.9459
C26 C 0.1975(3) -0.2327(2) 0.9032(3)
H18 H 0.1778 -0.1927 0.8942
C27 C 0.2732(3) -0.4532(2) 0.9232(2)
C28 C 0.2028(3) -0.4583(2) 0.8641(3)
H19 H 0.1685 -0.4244 0.8448
C29 C 0.1838(3) -0.5134(3) 0.8340(3)
H20 H 0.1356 -0.5174 0.7937
C30 C 0.2328(3) -0.5626(2) 0.8612(3)
H21 H 0.2185 -0.6004 0.8400
C31 C 0.3031(3) -0.5569(2) 0.9194(2)
H22 H 0.3372 -0.5911 0.9380
C32 C 0.3251(3) -0.50245(19) 0.9515(2)
C33 C 0.3990(3) -0.49784(18) 1.0141(2)
C34 C 0.5012(3) -0.51518(18) 1.1049(2)
C35 C 0.5125(3) -0.23852(19) 0.7601(2)
H23 H 0.4859 -0.2607 0.7867
C36 C 0.5686(3) -0.2677(2) 0.7340(2)
H24 H 0.5789 -0.3092 0.7416
C37 C 0.6101(3) -0.23638(18) 0.6963(2)
C38 C 0.5921(3) -0.17585(18) 0.6866(2)
H25 H 0.6196 -0.1523 0.6617
C39 C 0.5332(3) -0.15034(19) 0.7138(2)
H26 H 0.5206 -0.1091 0.7062
C40 C 0.6685(3) -0.26667(18) 0.6660(2)
C41 C 0.7634(3) -0.28170(18) 0.6188(2)
C42 C 0.8337(3) -0.27401(19) 0.5905(2)
C43 C 0.8758(3) -0.32064(19) 0.5703(2)
C44 C 0.9448(3) -0.3114(2) 0.5461(2)
H27 H 0.9732 -0.3440 0.5331
C45 C 0.9713(3) -0.2532(2) 0.5414(3)
H28 H 1.0182 -0.2459 0.5246
C46 C 0.9312(3) -0.2059(2) 0.5607(3)
H29 H 0.9504 -0.1664 0.5575
C47 C 0.8628(3) -0.2162(2) 0.5849(3)
H30 H 0.8350 -0.1833 0.5979
C48 C 0.8802(3) 0.2865(2) 0.3041(2)
C49 C 0.9283(3) 0.24385(19) 0.2738(2)
C50 C 0.9996(3) 0.2627(2) 0.2564(3)
H31 H 1.0189 0.3029 0.2639
C51 C 1.0424(3) 0.2232(3) 0.2283(3)
H32 H 1.0939 0.2354 0.2197
C52 C 1.0112(4) 0.1656(3) 0.2125(3)
H33 H 1.0393 0.1388 0.1911
C53 C 0.9391(3) 0.1481(2) 0.2282(3)
C54 C 0.8994(3) 0.1856(2) 0.2599(2)
H34 H 0.8515 0.1719 0.2726
C55 C 0.8972(3) 0.0462(2) 0.2408(3)
C56 C 0.8344(3) 0.0020(2) 0.2119(2)
C57 C 0.7712(3) 0.00806(19) 0.1436(2)
C58 C 0.8351(3) -0.0495(2) 0.2481(3)
H35 H 0.7936 -0.0801 0.2293
C59 C 0.8958(4) -0.0569(3) 0.3113(3)
H36 H 0.8957 -0.0923 0.3361
C60 C 0.9567(3) 0.0386(3) 0.3047(3)
H37 H 0.9973 0.0692 0.3248
C61 C 0.8596(3) -0.5645(2) 0.4637(2)
C62 C 0.8988(3) -0.52116(18) 0.5202(2)
C63 C 0.9743(3) -0.53502(19) 0.5717(2)
H38 H 1.0021 -0.5724 0.5721
C64 C 0.8590(3) -0.46636(18) 0.5196(2)
H39 H 0.8085 -0.4555 0.4832
C65 C 0.6762(3) -0.00753(19) 0.0491(2)
C66 C 0.6127(3) -0.03633(18) -0.0091(2)
C67 C 0.8942(3) -0.4276(2) 0.5732(3)
C68 C 0.5671(3) 0.25533(18) 0.4451(2)
C69 C 0.5645(3) -0.54462(18) 1.1636(2)
C70 C 1.0096(3) -0.4945(2) 0.6228(3)
H40 H 1.0625 -0.5038 0.6576
C71 C 0.6856(3) -0.5382(2) 1.2650(2)
H41 H 0.7269 -0.5142 1.2974
C72 C 0.6290(3) -0.6292(2) 1.2298(3)
H42 H 0.6300 -0.6712 1.2358
H43 H 0.6274 -0.4688 1.2061
C73 C 0.6263(3) -0.51083(18) 1.2111(2)
C74 C 0.5490(3) -0.0505(2) -0.1269(3)
H44 H 0.5479 -0.0412 -0.1713
H45 H 0.5530 -0.0872 0.0423
H46 H 0.6515 0.0036 -0.0815
H47 H 0.5219 -0.6299 1.1456
C75 C 0.4927(3) -0.1013(2) -0.0572(3)
H48 H 0.4507 -0.1282 -0.0508
C76 C 0.5529(3) -0.0766(2) -0.0015(2)
C77 C 0.6107(3) -0.0233(2) -0.0739(3)
C78 C 0.5648(3) -0.6051(2) 1.1745(2)
C79 C 0.9564(4) -0.0131(3) 0.3384(3)
H49 H 0.9988 -0.0189 0.3815
C80 C 0.9694(3) -0.4410(2) 0.6242(3)
H50 H 0.9934 -0.4136 0.6600
H51 H 0.432(3) 0.1353(17) 0.538(2)
H52 H 0.735(3) -0.3659(18) 0.623(2)
H53 H 0.422(3) -0.4161(18) 1.028(2)
H54 H 0.761(3) 0.0927(19) 0.115(2)
Cd1_2 Cd 0.39188(2) -0.135483(13) -0.210942(17)
Cd2_2 Cd 0.79352(2) -0.642617(13) 0.363207(17)
Cd2_3 Cd 0.79352(2) -0.642617(13) 1.363207(17)
O5_2 O 0.88765(19) 0.38330(13) 0.46802(16)
O6_2 O 0.7983(2) 0.45299(14) 0.41316(17)
N15_2 N 0.4901(2) -0.08949(15) 0.88076(19)
N16_2 N 0.6881(2) 0.40271(15) 0.27414(18)
C61_2 C 0.8596(3) 0.4355(2) 0.4637(2)
O13 O 0.4449(3) 0.42349(18) 0.3165(2)
H1 H 0.5060 0.4171 0.3459
H2 H 0.4183 0.4634 0.3155
O14 O 0.1355(3) 0.8448(2) 0.5929(3)
H55 H 0.1503 0.8827 0.5750
H56 H 0.1369 0.8437 0.6403
loop_
_geom_bond_atom_site_label_1
_geom_bond_atom_site_label_2
_geom_bond_site_symmetry_1
_geom_bond_site_symmetry_2
Cd1 O1 1_555 1_555
Cd2 O3 1_555 1_555
O1 C1 1_555 1_555
O2 Cd1 1_555 1_555
O3 C48 1_555 1_555
O4 Cd2 1_555 1_555
O5 C61 1_555 1_555
O6 C61 1_555 1_555
O7 Cd1 1_555 1_555
O8 Cd1 1_555 1_555
O9 C6 1_555 1_555
O10 C23 1_555 1_555
O11 C43 1_555 1_555
O12 C53 1_555 1_555
O13 H1 1_555 1_555
H2 O13 1_555 1_555
N1 N2 1_555 1_555
N2 C14 1_555 1_555
N3 C14 1_555 1_555
N4 Cd2 1_555 1_555
N5 C40 1_555 1_555
N6 N7 1_555 1_555
N7 C40 1_555 1_555
N8 C57 1_555 1_555
N9 N10 1_555 1_555
N10 C57 1_555 1_555
N11 Cd1 1_555 1_555
N12 N13 1_555 1_555
N13 C34 1_555 1_555
N14 C33 1_555 1_555
N15 C74 1_555 1_555
N16 C71 1_555 1_555
C1 O2 1_555 1_555
C2 C1 1_555 1_555
C3 C2 1_555 1_555
H3 C3 1_555 1_555
C4 C3 1_555 1_555
H4 C4 1_555 1_555
C5 C4 1_555 1_555
H5 C5 1_555 1_555
C6 C5 1_555 1_555
C7 C2 1_555 1_555
H6 C7 1_555 1_555
C8 O9 1_555 1_555
C9 C8 1_555 1_555
H7 C9 1_555 1_555
C10 C9 1_555 1_555
H8 C10 1_555 1_555
C11 C10 1_555 1_555
H9 C11 1_555 1_555
C12 C11 1_555 1_555
H10 C12 1_555 1_555
C13 C8 1_555 1_555
C14 C13 1_555 1_555
C15 N1 1_555 1_555
C16 H11 1_555 1_555
C17 N4 1_555 1_555
H12 C17 1_555 1_555
C18 N4 1_555 1_555
H13 C18 1_555 1_555
C19 C18 1_555 1_555
H14 C19 1_555 1_555
C20 O7 1_555 1_555
C21 C20 1_555 1_555
C22 C21 1_555 1_555
H15 C22 1_555 1_555
C23 C22 1_555 1_555
C24 C23 1_555 1_555
H16 C24 1_555 1_555
C25 C24 1_555 1_555
H17 C25 1_555 1_555
C26 C21 1_555 1_555
H18 C26 1_555 1_555
C27 O10 1_555 1_555
C28 C27 1_555 1_555
H19 C28 1_555 1_555
C29 C28 1_555 1_555
H20 C29 1_555 1_555
C30 C29 1_555 1_555
H21 C30 1_555 1_555
C31 C30 1_555 1_555
H22 C31 1_555 1_555
C32 C27 1_555 1_555
C33 N12 1_555 1_555
C34 N14 1_555 1_555
C35 N11 1_555 1_555
H23 C35 1_555 1_555
C36 C35 1_555 1_555
H24 C36 1_555 1_555
C37 C36 1_555 1_555
C38 C37 1_555 1_555
H25 C38 1_555 1_555
C39 N11 1_555 1_555
H26 C39 1_555 1_555
C40 C37 1_555 1_555
C41 N5 1_555 1_555
C42 C41 1_555 1_555
C43 C42 1_555 1_555
C44 C43 1_555 1_555
H27 C44 1_555 1_555
C45 C44 1_555 1_555
H28 C45 1_555 1_555
C46 C45 1_555 1_555
H29 C46 1_555 1_555
C47 C42 1_555 1_555
H30 C47 1_555 1_555
C48 O4 1_555 1_555
C49 C48 1_555 1_555
C50 C49 1_555 1_555
H31 C50 1_555 1_555
C51 C50 1_555 1_555
H32 C51 1_555 1_555
C52 C51 1_555 1_555
H33 C52 1_555 1_555
C53 C52 1_555 1_555
C54 C49 1_555 1_555
H34 C54 1_555 1_555
C55 O12 1_555 1_555
C56 C55 1_555 1_555
C57 C56 1_555 1_555
C58 C56 1_555 1_555
H35 C58 1_555 1_555
C59 C58 1_555 1_555
H36 C59 1_555 1_555
C60 C55 1_555 1_555
H37 C60 1_555 1_555
C61 C62 1_555 1_555
C62 C63 1_555 1_555
C63 H38 1_555 1_555
C64 C62 1_555 1_555
H39 C64 1_555 1_555
C65 N8 1_555 1_555
C66 C65 1_555 1_555
C67 O11 1_555 1_555
C68 C15 1_555 1_555
C69 C34 1_555 1_555
C70 C63 1_555 1_555
H40 C70 1_555 1_555
C71 H41 1_555 1_555
C72 N16 1_555 1_555
H42 C72 1_555 1_555
H43 C73 1_555 1_555
C73 C69 1_555 1_555
C74 H44 1_555 1_555
H45 C76 1_555 1_555
H46 C77 1_555 1_555
H47 C78 1_555 1_555
C75 N15 1_555 1_555
H48 C75 1_555 1_555
C76 C66 1_555 1_555
C77 C66 1_555 1_555
C78 C69 1_555 1_555
C79 C59 1_555 1_555
H49 C79 1_555 1_555
C80 C67 1_555 1_555
H50 C80 1_555 1_555
H51 N2 1_555 1_555
H52 N6 1_555 1_555
H53 N12 1_555 1_555
H54 N10 1_555 1_555
O14 H55 1_555 1_555
H56 O14 1_555 1_555
Cd1_2 N15 1_555 1_555
Cd2_2 O5 1_555 1_555
Cd2_3 N16 1_555 1_555
O5_2 Cd2 1_555 1_555
O6_2 Cd2 1_555 1_555
N15_2 Cd1 1_555 1_555
N16_2 Cd2 1_555 1_555
C61_2 O5_2 1_555 1_555
O6 Cd2_2 1_555 1_555
O8 C20 1_555 1_555
N3 C15 1_555 1_555
N6 C41 1_555 1_555
N9 C65 1_555 1_555
C6 C7 1_555 1_555
C12 C13 1_555 1_555
C16 C17 1_555 1_555
C16 C68 1_555 1_555
C19 C68 1_555 1_555
C25 C26 1_555 1_555
C31 C32 1_555 1_555
C32 C33 1_555 1_555
C38 C39 1_555 1_555
C46 C47 1_555 1_555
C53 C54 1_555 1_555
C60 C79 1_555 1_555
C64 C67 1_555 1_555
C70 C80 1_555 1_555
C71 C73 1_555 1_555
C72 C78 1_555 1_555
C74 C77 1_555 1_555
C75 C76 1_555 1_555
O6_2 C61_2 1_555 1_555

#END
