
#######################################################################
#
#                 Cambridge Crystallographic Data Centre
#                                CCDC 
#
#######################################################################
#
# If this CIF has been generated from an entry in the Cambridge 
# Structural Database, then it will include bibliographic, chemical, 
# crystal, experimental, refinement or atomic coordinate data resulting 
# from the CCDC's data processing and validation procedures.
#
#######################################################################

data_SEFKEV
_symmetry_cell_setting           monoclinic
_symmetry_space_group_name_H-M   'P 21/n'
_symmetry_Int_Tables_number      14
_space_group_name_Hall           '-P 2yn'
loop_
_symmetry_equiv_pos_site_id
_symmetry_equiv_pos_as_xyz
1 x,y,z
2 1/2-x,1/2+y,1/2-z
3 -x,-y,-z
4 1/2+x,1/2-y,1/2+z
_cell_length_a                   11.6518(19)
_cell_length_b                   9.1594(15)
_cell_length_c                   18.477(3)
_cell_angle_alpha                90
_cell_angle_beta                 96.783(2)
_cell_angle_gamma                90
_cell_volume                     1958.13
loop_
_atom_site_label
_atom_site_type_symbol
_atom_site_fract_x
_atom_site_fract_y
_atom_site_fract_z
Co1 Co 0.0000 0.5000 0.5000
Co2 Co 0.0000 0.0000 0.0000
Br1 Br 0.41901(6) 0.30622(9) 0.22681(4)
O1 O 0.0312(4) 0.0506(5) 0.1084(2)
O3 O -0.1140(4) 0.1052(5) 0.1717(2)
O5 O 0.1372(4) 0.4917(5) 0.4281(2)
O6 O -0.0305(4) 0.3814(5) 0.4012(2)
O7 O -0.0801(5) 0.6691(5) 0.4446(3)
H5 H -0.094(6) 0.750(4) 0.464(3)
H6 H -0.095(6) 0.674(7) 0.3993(11)
O8 O -0.1660(4) -0.0866(5) 0.0068(2)
H7 H -0.183(5) -0.118(7) 0.0473(19)
H8 H -0.229(3) -0.059(7) -0.018(3)
N1 N 0.0679(4) -0.2132(6) 0.0294(3)
N2 N 0.3814(4) -0.4540(6) -0.0221(3)
C1 C 0.1413(5) -0.2812(7) -0.0094(3)
H9 H 0.1704 -0.2285 -0.0476
C2 C 0.1777(5) -0.4242(7) 0.0027(3)
C3 C 0.1353(6) -0.5008(8) 0.0589(4)
H10 H 0.1560 -0.5999 0.0682
C4 C 0.0630(5) -0.4300(8) 0.1005(4)
H11 H 0.0360 -0.4782 0.1407
C5 C 0.0297(5) -0.2885(7) 0.0838(3)
H12 H -0.0228 -0.2423 0.1121
C6 C 0.2593(5) -0.4931(8) -0.0456(4)
H13 H 0.2508 -0.6006 -0.0443
H14 H 0.2380 -0.4604 -0.0964
C7 C 0.4548(6) -0.5216(8) -0.0738(4)
H15 H 0.4419 -0.6285 -0.0752
H16 H 0.4319 -0.4826 -0.1234
C8 C 0.4204(5) -0.5086(8) 0.0520(3)
H17 H 0.4068 -0.6152 0.0536
H18 H 0.3742 -0.4616 0.0872
C9 C 0.0719(5) 0.2010(7) 0.2109(3)
C10 C 0.0352(5) 0.2657(7) 0.2717(3)
H19 H -0.0432 0.2569 0.2804
C11 C 0.1134(5) 0.3445(7) 0.3206(3)
C12 C 0.2278(5) 0.3581(7) 0.3075(3)
H20 H 0.2816 0.4109 0.3401
C13 C 0.2618(5) 0.2934(7) 0.2460(3)
C14 C 0.1867(5) 0.2153(7) 0.1980(3)
H21 H 0.2128 0.1715 0.1563
C15 C -0.0110(5) 0.1116(7) 0.1594(3)
C16 C 0.0728(6) 0.4101(7) 0.3865(4)
Co1_2 Co 0.0000 -0.5000 -0.5000
Co2_2 Co 1.0000 -1.0000 0.0000
Br1B Br -0.41901(6) -0.30622(9) -0.22681(4)
O1B O -0.0312(4) -0.0506(5) -0.1084(2)
O3B O 0.1140(4) -0.1052(5) -0.1717(2)
O5B O -0.1372(4) -0.4917(5) -0.4281(2)
O5B_2 O -0.1372(4) 0.5083(5) 0.5719(2)
O6B O 0.0305(4) -0.3814(5) -0.4012(2)
O6B_2 O 0.0305(4) 0.6186(5) 0.5988(2)
O7B O 0.0801(5) 0.3309(5) 0.5554(3)
H5B H 0.094(6) 0.250(4) 0.536(3)
H6B H 0.095(6) 0.326(7) 0.6007(11)
O8B O 0.1660(4) 0.0866(5) -0.0068(2)
H7B H 0.183(5) 0.118(7) -0.0473(19)
H8B H 0.229(3) 0.059(7) 0.018(3)
N1B N 0.9321(4) -0.7868(6) -0.0294(3)
N1B_2 N -0.0679(4) 0.2132(6) -0.0294(3)
N2B N 0.6186(4) -0.5460(6) 0.0221(3)
C1B C 0.8587(5) -0.7188(7) 0.0094(3)
H9B H 0.8296 -0.7715 0.0476
C2B C 0.8223(5) -0.5758(7) -0.0027(3)
C3B C 0.8647(6) -0.4992(8) -0.0589(4)
H10B H 0.8440 -0.4001 -0.0682
C4B C 0.9370(5) -0.5700(8) -0.1005(4)
H11B H 0.9640 -0.5218 -0.1407
C5B C 0.9703(5) -0.7115(7) -0.0838(3)
H12B H 1.0228 -0.7577 -0.1121
C6B C 0.7407(5) -0.5069(8) 0.0456(4)
H13B H 0.7492 -0.3994 0.0443
H14B H 0.7620 -0.5396 0.0964
C7B C 0.5452(6) -0.4784(8) 0.0738(4)
H15B H 0.5581 -0.3715 0.0752
H16B H 0.5681 -0.5174 0.1234
C8B C 0.5796(5) -0.4914(8) -0.0520(3)
H17B H 0.5932 -0.3848 -0.0536
H18B H 0.6258 -0.5384 -0.0872
C9B C -0.0719(5) -0.2010(7) -0.2109(3)
C10B C -0.0352(5) -0.2657(7) -0.2717(3)
H19B H 0.0432 -0.2569 -0.2804
C11B C -0.1134(5) -0.3445(7) -0.3206(3)
C12B C -0.2278(5) -0.3581(7) -0.3075(3)
H20B H -0.2816 -0.4109 -0.3401
C13B C -0.2618(5) -0.2934(7) -0.2460(3)
C14B C -0.1867(5) -0.2153(7) -0.1980(3)
H21B H -0.2128 -0.1715 -0.1563
C15B C 0.0110(5) -0.1116(7) -0.1594(3)
C16B C -0.0728(6) -0.4101(7) -0.3865(4)
O2 O -0.2302(4) -0.1479(5) 0.1459(3)
H1 H -0.209(5) -0.062(4) 0.161(4)
H2 H -0.3040(18) -0.142(7) 0.144(4)
O4 O -0.1839(5) -0.2620(8) 0.3009(3)
H3 H -0.242(5) -0.319(7) 0.304(5)
H4 H -0.216(6) -0.183(5) 0.284(5)
loop_
_geom_bond_atom_site_label_1
_geom_bond_atom_site_label_2
_geom_bond_site_symmetry_1
_geom_bond_site_symmetry_2
Co1 O5 1_555 1_555
Co2 O1 1_555 1_555
Br1 C13 1_555 1_555
O1 C15 1_555 1_555
O2 H1 1_555 1_555
H2 O2 1_555 1_555
O3 C15 1_555 1_555
O4 H3 1_555 1_555
H4 O4 1_555 1_555
O5 C16 1_555 1_555
O6 Co1 1_555 1_555
O7 Co1 1_555 1_555
H5 O7 1_555 1_555
H6 O7 1_555 1_555
O8 Co2 1_555 1_555
H7 O8 1_555 1_555
H8 O8 1_555 1_555
N1 Co2 1_555 1_555
N2 C6 1_555 1_555
C1 N1 1_555 1_555
H9 C1 1_555 1_555
C2 C1 1_555 1_555
C3 C2 1_555 1_555
H10 C3 1_555 1_555
C4 C3 1_555 1_555
H11 C4 1_555 1_555
C5 N1 1_555 1_555
H12 C5 1_555 1_555
C6 C2 1_555 1_555
H13 C6 1_555 1_555
H14 C6 1_555 1_555
C7 N2 1_555 1_555
H15 C7 1_555 1_555
H16 C7 1_555 1_555
C8 N2 1_555 1_555
H17 C8 1_555 1_555
H18 C8 1_555 1_555
C9 C10 1_555 1_555
C10 H19 1_555 1_555
C11 C10 1_555 1_555
C12 C11 1_555 1_555
H20 C12 1_555 1_555
C13 C12 1_555 1_555
C14 C9 1_555 1_555
H21 C14 1_555 1_555
C15 C9 1_555 1_555
C16 O6 1_555 1_555
Co1_2 O5B 1_555 1_555
Co2_2 N1B 1_555 1_555
Br1B C13B 1_555 1_555
O1B Co2 1_555 1_555
O3B C15B 1_555 1_555
O5B C16B 1_555 1_555
O5B_2 Co1 1_555 1_555
O6B Co1_2 1_555 1_555
O6B_2 Co1 1_555 1_555
O7B Co1 1_555 1_555
H5B O7B 1_555 1_555
H6B O7B 1_555 1_555
O8B Co2 1_555 1_555
H7B O8B 1_555 1_555
H8B O8B 1_555 1_555
N1B C1B 1_555 1_555
N1B_2 Co2 1_555 1_555
N2B C6B 1_555 1_555
C1B H9B 1_555 1_555
C2B C1B 1_555 1_555
C3B C2B 1_555 1_555
H10B C3B 1_555 1_555
C4B C3B 1_555 1_555
H11B C4B 1_555 1_555
C5B N1B 1_555 1_555
H12B C5B 1_555 1_555
C6B C2B 1_555 1_555
H13B C6B 1_555 1_555
H14B C6B 1_555 1_555
C7B C8 1_555 1_555
H15B C7B 1_555 1_555
H16B C7B 1_555 1_555
C8B C7 1_555 1_555
H17B C8B 1_555 1_555
H18B C8B 1_555 1_555
C9B C10B 1_555 1_555
C10B H19B 1_555 1_555
C11B C10B 1_555 1_555
C12B C11B 1_555 1_555
H20B C12B 1_555 1_555
C13B C12B 1_555 1_555
C14B C9B 1_555 1_555
H21B C14B 1_555 1_555
C15B O1B 1_555 1_555
C16B O6B 1_555 1_555
C4 C5 1_555 1_555
C11 C16 1_555 1_555
C13 C14 1_555 1_555
N2B C7B 1_555 1_555
N2B C8B 1_555 1_555
C4B C5B 1_555 1_555
C9B C15B 1_555 1_555
C11B C16B 1_555 1_555
C13B C14B 1_555 1_555

#END
