
#######################################################################
#
#                 Cambridge Crystallographic Data Centre
#                                CCDC 
#
#######################################################################
#
# If this CIF has been generated from an entry in the Cambridge 
# Structural Database, then it will include bibliographic, chemical, 
# crystal, experimental, refinement or atomic coordinate data resulting 
# from the CCDC's data processing and validation procedures.
#
#######################################################################

data_SEFKIZ
_symmetry_cell_setting           triclinic
_symmetry_space_group_name_H-M   'P -1'
_symmetry_Int_Tables_number      2
_space_group_name_Hall           '-P 1'
loop_
_symmetry_equiv_pos_site_id
_symmetry_equiv_pos_as_xyz
1 x,y,z
2 -x,-y,-z
_cell_length_a                   9.7340(10)
_cell_length_b                   12.3868(13)
_cell_length_c                   13.8420(14)
_cell_angle_alpha                81.0510(10)
_cell_angle_beta                 87.8350(10)
_cell_angle_gamma                76.8450(10)
_cell_volume                     1605.39
loop_
_atom_site_label
_atom_site_type_symbol
_atom_site_fract_x
_atom_site_fract_y
_atom_site_fract_z
Br1 Br 1.27353(5) 0.46906(4) -0.45699(4)
Co1 Co 0.94885(6) 0.20272(5) -0.79887(4)
O1 O 0.8810(4) 0.4841(3) -0.8271(3)
O3 O 1.0589(3) 0.8762(2) -0.6597(2)
O5 O 1.0020(4) 0.8525(2) -0.8081(2)
O7 O 0.5706(3) 0.1902(3) -0.0640(2)
O9 O 0.3348(3) 0.1945(3) -0.5298(2)
O11 O 1.0950(3) 0.0871(2) -0.7057(2)
H9 H 1.093(5) 0.0185(19) -0.700(3)
H10 H 1.087(5) 0.113(3) -0.653(2)
O13 O 0.8032(3) 0.3186(3) -0.8910(2)
H11 H 0.812(5) 0.381(2) -0.877(3)
H12 H 0.807(5) 0.316(4) -0.9512(16)
O15 O 0.8745(3) 0.0751(3) -0.8511(3)
H13 H 0.915(4) 0.008(2) -0.831(4)
H14 H 0.787(2) 0.090(4) -0.856(4)
O16 O 1.0212(3) 0.3305(2) -0.7472(2)
N1 N 0.4564(4) 0.1747(5) -0.3901(3)
N2 N 0.4713(5) 0.1397(6) -0.1887(3)
N3 N 0.7916(4) 0.2022(3) -0.6841(3)
N4 N 0.1066(4) 0.1944(3) 0.0875(3)
C1 C 0.6024(7) 0.1166(8) -0.2467(5)
H15 H 0.6236 0.0384 -0.2602
H16 H 0.6828 0.1278 -0.2107
C2 C 0.3257(7) 0.1885(7) -0.3295(5)
H17 H 0.2970 0.2667 -0.3161
H18 H 0.2482 0.1725 -0.3652
C3 C 0.5784(7) 0.1963(6) -0.3393(5)
H19 H 0.6638 0.1849 -0.3811
H20 H 0.5570 0.2745 -0.3256
C4 C 0.3523(7) 0.1115(6) -0.2376(5)
H21 H 0.3783 0.0329 -0.2503
H22 H 0.2671 0.1207 -0.1957
C5 C 0.6773(5) 0.0994(4) -0.5579(4)
H23 H 0.6758 0.0304 -0.5173
C6 C 0.2862(5) 0.0855(4) -0.0026(3)
H24 H 0.3302 0.0142 -0.0195
C7 C 0.3335(5) 0.1802(4) -0.0421(3)
C8 C 0.4671(5) 0.1732(4) -0.1015(3)
C9 C 0.5832(5) 0.2926(4) -0.6063(4)
H25 H 0.5144 0.3595 -0.6013
C10 C 0.1505(5) 0.2856(4) 0.0459(4)
H26 H 0.1012 0.3564 0.0612
C11 C 1.1393(5) 0.6444(4) -0.6021(4)
H27 H 1.1739 0.6907 -0.5647
C12 C 0.2630(5) 0.2827(4) -0.0177(4)
H28 H 0.2916 0.3497 -0.0443
C13 C 1.0392(5) 0.8158(4) -0.7208(3)
C14 C 0.5744(5) 0.1944(4) -0.5489(3)
C15 C 0.7821(5) 0.1062(4) -0.6269(3)
H29 H 0.8508 0.0399 -0.6342
C16 C 1.0113(4) 0.6229(4) -0.7394(3)
H30 H 0.9588 0.6549 -0.7974
C17 C 1.1651(5) 0.5300(4) -0.5720(3)
C18 C 0.1744(5) 0.0965(4) 0.0617(4)
H31 H 0.1436 0.0309 0.0893
C19 C 0.4458(5) 0.1872(4) -0.4875(3)
C20 C 0.9739(5) 0.4352(4) -0.7655(3)
C21 C 1.0634(5) 0.6915(3) -0.6862(3)
C22 C 0.6935(5) 0.2932(4) -0.6719(4)
H32 H 0.6997 0.3625 -0.7103
C23 C 1.0352(5) 0.5078(4) -0.7083(3)
C24 C 1.1150(5) 0.4602(4) -0.6244(3)
H33 H 1.1347 0.3814 -0.6036
Co1_2 Co -0.05115(6) 0.20272(5) 0.20113(4)
N4_2 N 1.1066(4) 0.1944(3) -0.9125(3)
O2 O 0.0704(4) 0.1470(3) -0.5258(3)
H1 H 0.147(3) 0.162(5) -0.511(4)
H2 H 0.018(4) 0.137(5) -0.477(3)
O4 O -0.2008(4) 0.2893(3) -0.0825(3)
O6 O 0.5794(4) 0.1384(4) 0.1428(3)
H3 H 0.516(5) 0.168(5) 0.181(3)
H4 H 0.579(7) 0.170(5) 0.084(2)
O8 O 0.3400(5) 0.2540(6) -0.7453(4)
H5 H 0.3386 0.2362 -0.6835
H6 H 0.250(3) 0.277(7) -0.759(4)
O10 O -0.3983(6) 0.5864(4) 0.2350(4)
H7 H -0.318(4) 0.558(5) 0.211(5)
H8 H -0.459(5) 0.546(5) 0.231(6)
O12 O -0.6211(7) 0.4920(6) 0.1767(6)
O14? O -0.460(2) 0.466(2) 0.032(2)
C25? C 0.580(2) 0.201(2) -0.2579(16)
C26? C 0.348(2) 0.118(2) -0.3251(16)
C27? C 0.597(2) 0.111(2) -0.3336(15)
C28? C 0.324(2) 0.2095(19) -0.2512(14)
H34? H 0.5366 0.2786 -0.2877
H35? H 0.6693 0.1983 -0.2246
H36? H 0.3898 0.0405 -0.2930
H37? H 0.2610 0.1187 -0.3609
H38? H 0.6819 0.1086 -0.3752
H39? H 0.5927 0.0348 -0.3010
H40? H 0.2366 0.2124 -0.2117
H41? H 0.3296 0.2854 -0.2838
loop_
_geom_bond_atom_site_label_1
_geom_bond_atom_site_label_2
_geom_bond_site_symmetry_1
_geom_bond_site_symmetry_2
Br1 C17 1_555 1_555
Co1 O11 1_555 1_555
O1 C20 1_555 1_555
O2 H1 1_555 1_555
H2 O2 1_555 1_555
O3 C13 1_555 1_555
O5 C13 1_555 1_555
O6 H3 1_555 1_555
H4 O6 1_555 1_555
O7 C8 1_555 1_555
O8 H5 1_555 1_555
H6 O8 1_555 1_555
O9 C19 1_555 1_555
O10 H7 1_555 1_555
H8 O10 1_555 1_555
O11 H9 1_555 1_555
H10 O11 1_555 1_555
O13 Co1 1_555 1_555
H11 O13 1_555 1_555
H12 O13 1_555 1_555
O15 Co1 1_555 1_555
H13 O15 1_555 1_555
H14 O15 1_555 1_555
O16 Co1 1_555 1_555
N1 C2 1_555 1_555
N2 C1 1_555 1_555
N3 Co1 1_555 1_555
N4 C10 1_555 1_555
C1 H15 1_555 1_555
H16 C1 1_555 1_555
C2 H17 1_555 1_555
H18 C2 1_555 1_555
C3 N1 1_555 1_555
H19 C3 1_555 1_555
H20 C3 1_555 1_555
C4 N2 1_555 1_555
H21 C4 1_555 1_555
H22 C4 1_555 1_555
C5 H23 1_555 1_555
C6 H24 1_555 1_555
C7 C6 1_555 1_555
C8 N2 1_555 1_555
C9 H25 1_555 1_555
C10 H26 1_555 1_555
C11 H27 1_555 1_555
C12 C7 1_555 1_555
H28 C12 1_555 1_555
C13 C21 1_555 1_555
C14 C5 1_555 1_555
C15 N3 1_555 1_555
H29 C15 1_555 1_555
C16 H30 1_555 1_555
C17 C11 1_555 1_555
C18 N4 1_555 1_555
H31 C18 1_555 1_555
C19 N1 1_555 1_555
C20 O16 1_555 1_555
C21 C11 1_555 1_555
C22 N3 1_555 1_555
H32 C22 1_555 1_555
C23 C16 1_555 1_555
C24 C17 1_555 1_555
H33 C24 1_555 1_555
Co1_2 N4 1_555 1_555
N4_2 Co1 1_555 1_555
C1 C3 1_555 1_555
C2 C4 1_555 1_555
C5 C15 1_555 1_555
C6 C18 1_555 1_555
C7 C8 1_555 1_555
C9 C14 1_555 1_555
C9 C22 1_555 1_555
C10 C12 1_555 1_555
C14 C19 1_555 1_555
C16 C21 1_555 1_555
C20 C23 1_555 1_555
C23 C24 1_555 1_555

#END
