
#######################################################################
#
#                 Cambridge Crystallographic Data Centre
#                                CCDC 
#
#######################################################################
#
# If this CIF has been generated from an entry in the Cambridge 
# Structural Database, then it will include bibliographic, chemical, 
# crystal, experimental, refinement or atomic coordinate data resulting 
# from the CCDC's data processing and validation procedures.
#
#######################################################################

data_SEFKOF
_symmetry_cell_setting           monoclinic
_symmetry_space_group_name_H-M   'C 2/c'
_symmetry_Int_Tables_number      15
_space_group_name_Hall           '-C 2yn'
loop_
_symmetry_equiv_pos_site_id
_symmetry_equiv_pos_as_xyz
1 x,y,z
2 -x,y,1/2-z
3 1/2+x,1/2+y,z
4 1/2-x,1/2+y,1/2-z
5 -x,-y,-z
6 x,-y,1/2+z
7 1/2-x,1/2-y,-z
8 1/2+x,1/2-y,1/2+z
_cell_length_a                   37.326(7)
_cell_length_b                   8.7780(15)
_cell_length_c                   26.033(5)
_cell_angle_alpha                90
_cell_angle_beta                 133.269(2)
_cell_angle_gamma                90
_cell_volume                     6210.81
loop_
_atom_site_label
_atom_site_type_symbol
_atom_site_fract_x
_atom_site_fract_y
_atom_site_fract_z
Co1 Co 0.0000 0.06630(12) 0.2500
O1 O 0.0000 0.3085(6) 0.2500
H1 H 0.0014(18) 0.367(3) 0.225(2)
O3 O 0.0000 -0.1753(6) 0.2500
H4 H -0.0109(17) -0.235(3) 0.2158(12)
N1 N 0.30711(14) 0.2178(5) 0.3843(2)
N2 N 0.05905(14) 0.0507(5) 0.2524(2)
N3 N 0.20779(15) 0.1034(5) 0.2797(2)
H13 H 0.1896(14) 0.185(4) 0.2497(19)
N4 N 0.44699(14) 0.4124(5) 0.6374(2)
C1 C 0.41273(19) 0.4769(6) 0.5219(3)
H14 H 0.4128 0.5430 0.4930
C3 C 0.38012(19) 0.2684(6) 0.5356(3)
H16 H 0.3581 0.1849 0.5173
C5 C 0.26770(18) 0.2700(6) 0.3808(3)
H18 H 0.2514 0.3612 0.3503
H19 H 0.2822 0.2984 0.4286
C6 C 0.24698(17) 0.0560(6) 0.2812(2)
H20 H 0.2321 0.0347 0.2326
H21 H 0.2629 -0.0385 0.3093
C7 C 0.34451(17) 0.3363(6) 0.4135(2)
H22 H 0.3275 0.4340 0.3900
H23 H 0.3639 0.3105 0.4016
C8 C 0.17022(18) -0.0234(6) 0.2471(3)
H24 H 0.1537 -0.0366 0.1973
H25 H 0.1875 -0.1197 0.2723
C9 C 0.13195(19) 0.0057(6) 0.2498(3)
C10 C 0.23051(18) 0.1461(6) 0.3518(2)
H26 H 0.2467 0.0559 0.3830
H27 H 0.2046 0.1814 0.3504
C11 C 0.09420(19) -0.0537(6) 0.2933(3)
H28 H 0.0941 -0.1132 0.3236
C13 C 0.13095(19) -0.0791(6) 0.2934(3)
H29 H 0.1553 -0.1545 0.3234
C14 C 0.44626(19) 0.4992(6) 0.5942(3)
H30 H 0.4697 0.5790 0.6141
C15 C 0.37930(18) 0.3592(6) 0.4916(3)
C16 C 0.06071(19) 0.1335(6) 0.2109(3)
H31 H 0.0364 0.2098 0.1819
C17 C 0.09555(19) 0.1140(6) 0.2080(3)
H32 H 0.0948 0.1751 0.1772
C19 C 0.28494(17) 0.1799(6) 0.3132(2)
H33 H 0.3109 0.1460 0.3147
H34 H 0.2693 0.2720 0.2832
C23 C 0.41365(19) 0.3013(6) 0.6072(3)
H36 H 0.4128 0.2408 0.6366
Co1F Co -0.5000 0.43370(12) -0.2500
Co1F_2 Co 0.5000 0.43370(12) 0.7500
H1A H -0.0014(18) 0.367(3) 0.275(2)
H4A H 0.0109(17) -0.235(3) 0.2842(12)
N1A N -0.30711(14) 0.2178(5) 0.1157(2)
N2A N -0.05905(14) 0.0507(5) 0.2476(2)
N3A N -0.20779(15) 0.1034(5) 0.2203(2)
H13A H -0.1896(14) 0.185(4) 0.2503(19)
N4A N -0.44699(14) 0.4124(5) -0.1374(2)
N4F N 0.05301(14) 0.0876(5) 0.3626(2)
N4G N -0.05301(14) 0.0876(5) 0.1374(2)
C1A C -0.41273(19) 0.4769(6) -0.0219(3)
H14A H -0.4128 0.5430 0.0070
C3A C -0.38012(19) 0.2684(6) -0.0356(3)
H16A H -0.3581 0.1849 -0.0173
C5A C -0.26770(18) 0.2700(6) 0.1192(3)
H18A H -0.2514 0.3612 0.1497
H19A H -0.2822 0.2984 0.0714
C6A C -0.24698(17) 0.0560(6) 0.2188(2)
H20A H -0.2321 0.0347 0.2674
H21A H -0.2629 -0.0385 0.1907
C7A C -0.34451(17) 0.3363(6) 0.0865(2)
H22A H -0.3275 0.4340 0.1100
H23A H -0.3639 0.3105 0.0984
C8A C -0.17022(18) -0.0234(6) 0.2529(3)
H24A H -0.1537 -0.0366 0.3027
H25A H -0.1875 -0.1197 0.2277
C9A C -0.13195(19) 0.0057(6) 0.2502(3)
C10A C -0.23051(18) 0.1461(6) 0.1482(2)
H26A H -0.2467 0.0559 0.1170
H27A H -0.2046 0.1814 0.1496
C11A C -0.09420(19) -0.0537(6) 0.2067(3)
H28A H -0.0941 -0.1132 0.1764
C13A C -0.13095(19) -0.0791(6) 0.2066(3)
H29A H -0.1553 -0.1545 0.1766
C14A C -0.44626(19) 0.4992(6) -0.0942(3)
H30A H -0.4697 0.5790 -0.1141
C15A C -0.37930(18) 0.3592(6) 0.0084(3)
C16A C -0.06071(19) 0.1335(6) 0.2891(3)
H31A H -0.0364 0.2098 0.3181
C17A C -0.09555(19) 0.1140(6) 0.2920(3)
H32A H -0.0948 0.1751 0.3228
C19A C -0.28494(17) 0.1799(6) 0.1868(2)
H33A H -0.3109 0.1460 0.1853
H34A H -0.2693 0.2720 0.2168
C23A C -0.41365(19) 0.3013(6) -0.1072(3)
H36A H -0.4128 0.2408 -0.1366
Br1 Br 0.02895(2) 0.81089(7) 0.05026(3)
O5 O 0.03661(15) 0.3438(4) -0.13392(18)
O7 O 0.15464(14) 0.2058(4) 0.12024(17)
O9 O 0.16011(12) 0.3484(4) 0.19510(18)
O11 O -0.01330(13) 0.5430(4) -0.17211(18)
C2 C 0.02767(19) 0.6094(6) -0.0362(3)
H15 H 0.0021 0.6737 -0.0736
C4 C 0.08522(18) 0.5435(6) 0.0871(3)
H17 H 0.0985 0.5615 0.1333
C12 C 0.10225(18) 0.4212(6) 0.0745(3)
C18 C 0.14174(19) 0.3186(6) 0.1335(3)
C20 C 0.0495(2) 0.6372(6) 0.0331(3)
C21 C 0.0206(2) 0.4560(7) -0.1243(3)
C22 C 0.08146(19) 0.3963(6) 0.0060(3)
H35 H 0.0935 0.3151 -0.0027
C24 C 0.04386(19) 0.4862(6) -0.0496(3)
O2 O 0.16982(14) 0.5805(5) 0.2748(2)
H2 H 0.1989(10) 0.615(6) 0.303(2)
H3 H 0.1642(18) 0.526(5) 0.244(2)
O4 O 0.23601(15) 0.2025(6) 0.1358(2)
H5 H 0.230(2) 0.224(7) 0.098(2)
H6 H 0.2083(12) 0.201(8) 0.125(3)
O6 O 0.11210(15) 0.4894(6) 0.3003(2)
H7 H 0.1281(16) 0.526(7) 0.290(3)
H8 H 0.0817(8) 0.491(7) 0.2620(19)
O8 O 0.18600(18) 0.2888(6) 0.4165(3)
H9 H 0.1632(16) 0.352(5) 0.385(2)
H10 H 0.2123(14) 0.348(6) 0.453(2)
O10 O 0.12329(19) 0.6417(6) 0.4034(2)
H11 H 0.1523 0.6706 0.4394
H12 H 0.118(2) 0.597(8) 0.370(2)
O12 O 0.21319(16) 0.2665(5) 0.0131(2)
O13 O 0.23255(16) 0.0113(5) 0.4834(2)
loop_
_geom_bond_atom_site_label_1
_geom_bond_atom_site_label_2
_geom_bond_site_symmetry_1
_geom_bond_site_symmetry_2
Co1 O1 1_555 1_555
Br1 C20 1_555 1_555
O1 H1 1_555 1_555
O2 H2 1_555 1_555
H3 O2 1_555 1_555
O3 Co1 1_555 1_555
H4 O3 1_555 1_555
O4 H5 1_555 1_555
H6 O4 1_555 1_555
O5 C21 1_555 1_555
O6 H7 1_555 1_555
H8 O6 1_555 1_555
O7 C18 1_555 1_555
O8 H9 1_555 1_555
H10 O8 1_555 1_555
O9 C18 1_555 1_555
O10 H11 1_555 1_555
H12 O10 1_555 1_555
O11 C21 1_555 1_555
N1 C5 1_555 1_555
N2 Co1 1_555 1_555
N3 H13 1_555 1_555
N4 C14 1_555 1_555
C1 H14 1_555 1_555
C2 H15 1_555 1_555
C3 H16 1_555 1_555
C4 H17 1_555 1_555
C5 H18 1_555 1_555
H19 C5 1_555 1_555
C6 N3 1_555 1_555
H20 C6 1_555 1_555
H21 C6 1_555 1_555
C7 N1 1_555 1_555
H22 C7 1_555 1_555
H23 C7 1_555 1_555
C8 N3 1_555 1_555
H24 C8 1_555 1_555
H25 C8 1_555 1_555
C9 C8 1_555 1_555
C10 N3 1_555 1_555
H26 C10 1_555 1_555
H27 C10 1_555 1_555
C11 N2 1_555 1_555
H28 C11 1_555 1_555
C12 C4 1_555 1_555
C13 C9 1_555 1_555
H29 C13 1_555 1_555
C14 C1 1_555 1_555
H30 C14 1_555 1_555
C15 C1 1_555 1_555
C16 N2 1_555 1_555
H31 C16 1_555 1_555
C17 C9 1_555 1_555
H32 C17 1_555 1_555
C18 C12 1_555 1_555
C19 N1 1_555 1_555
H33 C19 1_555 1_555
H34 C19 1_555 1_555
C20 C2 1_555 1_555
C21 C24 1_555 1_555
C22 C12 1_555 1_555
H35 C22 1_555 1_555
C23 N4 1_555 1_555
H36 C23 1_555 1_555
C24 C2 1_555 1_555
Co1F N4A 1_555 1_555
Co1F_2 N4 1_555 1_555
H1A O1 1_555 1_555
H4A O3 1_555 1_555
N1A C5A 1_555 1_555
N2A Co1 1_555 1_555
N3A H13A 1_555 1_555
N4A C14A 1_555 1_555
N4F Co1 1_555 1_555
N4G Co1 1_555 1_555
C1A H14A 1_555 1_555
C3A H16A 1_555 1_555
C5A H18A 1_555 1_555
H19A C5A 1_555 1_555
C6A N3A 1_555 1_555
H20A C6A 1_555 1_555
H21A C6A 1_555 1_555
C7A N1A 1_555 1_555
H22A C7A 1_555 1_555
H23A C7A 1_555 1_555
C8A N3A 1_555 1_555
H24A C8A 1_555 1_555
H25A C8A 1_555 1_555
C9A C8A 1_555 1_555
C10A N3A 1_555 1_555
H26A C10A 1_555 1_555
H27A C10A 1_555 1_555
C11A N2A 1_555 1_555
H28A C11A 1_555 1_555
C13A C9A 1_555 1_555
H29A C13A 1_555 1_555
C14A C1A 1_555 1_555
H30A C14A 1_555 1_555
C15A C1A 1_555 1_555
C16A N2A 1_555 1_555
H31A C16A 1_555 1_555
C17A C9A 1_555 1_555
H32A C17A 1_555 1_555
C19A N1A 1_555 1_555
H33A C19A 1_555 1_555
H34A C19A 1_555 1_555
C23A N4A 1_555 1_555
H36A C23A 1_555 1_555
C3 C15 1_555 1_555
C3 C23 1_555 1_555
C4 C20 1_555 1_555
C5 C10 1_555 1_555
C6 C19 1_555 1_555
C7 C15 1_555 1_555
C11 C13 1_555 1_555
C16 C17 1_555 1_555
C22 C24 1_555 1_555
C3A C15A 1_555 1_555
C3A C23A 1_555 1_555
C5A C10A 1_555 1_555
C6A C19A 1_555 1_555
C7A C15A 1_555 1_555
C11A C13A 1_555 1_555
C16A C17A 1_555 1_555

#END
