
#######################################################################
#
#                 Cambridge Crystallographic Data Centre
#                                CCDC 
#
#######################################################################
#
# If this CIF has been generated from an entry in the Cambridge 
# Structural Database, then it will include bibliographic, chemical, 
# crystal, experimental, refinement or atomic coordinate data resulting 
# from the CCDC's data processing and validation procedures.
#
#######################################################################

data_SEFLOG
_symmetry_cell_setting           triclinic
_symmetry_space_group_name_H-M   'P -1'
_symmetry_Int_Tables_number      2
_space_group_name_Hall           '-P 1'
loop_
_symmetry_equiv_pos_site_id
_symmetry_equiv_pos_as_xyz
1 x,y,z
2 -x,-y,-z
_cell_length_a                   8.7626(6)
_cell_length_b                   12.0973(8)
_cell_length_c                   12.6030(8)
_cell_angle_alpha                89.5760(10)
_cell_angle_beta                 85.2610(10)
_cell_angle_gamma                71.4940(10)
_cell_volume                     1262.3
loop_
_atom_site_label
_atom_site_type_symbol
_atom_site_fract_x
_atom_site_fract_y
_atom_site_fract_z
Ni1 Ni 0.0000 1.0000 0.0000
Ni2 Ni -1.0000 1.5000 -0.5000
C1 C -0.5927(3) 1.2757(2) -0.32796(18)
C2 C -0.5261(3) 1.2023(2) -0.41526(18)
H1 H -0.5776 1.2146 -0.4780
C3 C -0.3830(3) 1.1105(2) -0.41030(18)
C4 C -0.3086(3) 1.0912(2) -0.31556(18)
H2 H -0.2143 1.0290 -0.3112
C5 C -0.3740(3) 1.1641(2) -0.22751(17)
C6 C -0.5162(3) 1.25705(19) -0.23421(17)
H3 H -0.5598 1.3066 -0.1757
C7 C -0.7472(3) 1.3764(2) -0.33733(19)
C8 C -0.3063(3) 1.0372(2) -0.5070(2)
C9 C -0.2923(3) 1.1465(2) -0.12407(18)
C10 C -1.1202(5) 1.3152(3) -0.5564(3)
H4 H -1.1990 1.3554 -0.6050
H5 H -1.1396 1.2427 -0.5371
C11 C -0.9532(4) 1.2891(3) -0.6106(2)
H6 H -0.9435 1.2445 -0.6758
H7 H -0.8742 1.2434 -0.5644
C12 C -0.7570(4) 1.3883(3) -0.6808(2)
H8 H -0.7456 1.3602 -0.7538
H9 H -0.6814 1.3292 -0.6417
C13 C -0.8220(4) 1.5947(3) -0.7288(3)
H10 H -0.7640 1.6292 -0.7811
H11 H -0.9021 1.5716 -0.7637
C14 C -0.9036(4) 1.6823(3) -0.6359(3)
H12 H -1.0198 1.7121 -0.6390
H13 H -0.8609 1.7472 -0.6366
C15 C -0.6955(4) 1.5381(3) -0.5744(3)
H14 H -0.6222 1.5838 -0.5784
H15 H -0.6579 1.4747 -0.5256
C16 C -0.0481(3) 0.7782(2) 0.0201(2)
H16 H 0.0451 0.7392 0.0585
H17 H -0.1199 0.7313 0.0248
C17 C 0.0062(3) 0.7898(2) -0.0962(2)
H18 H -0.0866 0.8265 -0.1357
H19 H 0.0629 0.7135 -0.1280
C18 C 0.1676(3) 0.8895(2) -0.20843(18)
H20 H 0.0745 0.9123 -0.2500
H21 H 0.2438 0.8191 -0.2412
C19 C 0.3752(3) 0.9670(3) -0.1434(2)
H22 H 0.4039 0.8904 -0.1121
H23 H 0.4703 0.9759 -0.1829
C20 C 0.3091(3) 1.0623(2) -0.0568(2)
H24 H 0.3563 1.1244 -0.0681
H25 H 0.3307 1.0307 0.0133
C21 C 0.1343(3) 1.0989(2) -0.18649(19)
H26 H 0.1747 1.1579 -0.2198
H27 H 0.0270 1.1092 -0.2080
N1 N -0.9230(3) 1.39993(18) -0.63489(16)
H28 H -0.9908 1.4349 -0.6850
N2 N -0.7103(3) 1.4941(3) -0.6803(2)
N3 N -1.1396(3) 1.3897(2) -0.4580(2)
N4 N 0.1148(2) 0.86214(16) -0.09973(14)
H29 H 0.2054 0.8200 -0.0693
N5 N 0.2430(2) 0.98195(19) -0.21447(15)
N6 N -0.1328(2) 0.89492(17) 0.06887(15)
O1 O -0.8057(3) 1.4417(2) -0.25873(15)
O2 O -0.8035(2) 1.38584(15) -0.42639(13)
O3 O -0.3895(2) 1.07099(19) -0.59066(14)
H30 H -0.3351 1.0386 -0.6445
O4 O -0.1825(3) 0.95841(19) -0.50919(17)
O5 O -0.16955(19) 1.05758(14) -0.11955(12)
O6 O -0.3514(3) 1.21997(19) -0.05170(15)
Ni2_2 Ni 1.0000 0.5000 0.5000
C1A C 0.5927(3) 0.7243(2) 0.32796(18)
C2A C 0.5261(3) 0.7977(2) 0.41526(18)
H1A H 0.5776 0.7854 0.4780
C3A C 0.3830(3) 0.8895(2) 0.41030(18)
C4A C 0.3086(3) 0.9088(2) 0.31556(18)
H2A H 0.2143 0.9710 0.3112
C5A C 0.3740(3) 0.8359(2) 0.22751(17)
C6A C 0.5162(3) 0.74295(19) 0.23421(17)
H3A H 0.5598 0.6934 0.1757
C7A C 0.7472(3) 0.6236(2) 0.33733(19)
C8A C 0.3063(3) 0.9628(2) 0.5070(2)
C9A C 0.2923(3) 0.8535(2) 0.12407(18)
C10A C -0.8798(5) 1.6848(3) -0.4436(3)
H4A H -0.8010 1.6446 -0.3950
H5A H -0.8604 1.7573 -0.4629
C11A C -1.0468(4) 1.7109(3) -0.3894(2)
H6A H -1.0565 1.7555 -0.3242
H7A H -1.1258 1.7566 -0.4356
C12A C -1.2430(4) 1.6117(3) -0.3192(2)
H8A H -1.2544 1.6398 -0.2462
H9A H -1.3186 1.6708 -0.3583
C13A C -1.1780(4) 1.4053(3) -0.2712(3)
H10A H -1.2360 1.3708 -0.2189
H11A H -1.0979 1.4284 -0.2363
C14A C -1.0964(4) 1.3177(3) -0.3641(3)
H12A H -0.9802 1.2879 -0.3610
H13A H -1.1391 1.2528 -0.3634
C15A C -1.3045(4) 1.4619(3) -0.4256(3)
H14A H -1.3778 1.4162 -0.4216
H15A H -1.3421 1.5253 -0.4744
C16A C 0.0481(3) 1.2218(2) -0.0201(2)
H16A H -0.0451 1.2608 -0.0585
H17A H 0.1199 1.2687 -0.0248
C17A C -0.0062(3) 1.2102(2) 0.0962(2)
H18A H 0.0866 1.1735 0.1357
H19A H -0.0629 1.2865 0.1280
C18A C -0.1676(3) 1.1105(2) 0.20843(18)
H20A H -0.0745 1.0877 0.2500
H21A H -0.2438 1.1809 0.2412
C19A C -0.3752(3) 1.0330(3) 0.1434(2)
H22A H -0.4039 1.1096 0.1121
H23A H -0.4703 1.0241 0.1829
C20A C -0.3091(3) 0.9377(2) 0.0568(2)
H24A H -0.3563 0.8756 0.0681
H25A H -0.3307 0.9693 -0.0133
C21A C -0.1343(3) 0.9011(2) 0.18649(19)
H26A H -0.1747 0.8421 0.2198
H27A H -0.0270 0.8908 0.2080
N1A N -1.0770(3) 1.60007(18) -0.36511(16)
H28A H -1.0092 1.5651 -0.3150
N2A N -1.2897(3) 1.5059(3) -0.3197(2)
N3A N -0.8604(3) 1.6103(2) -0.5420(2)
N4A N -0.1148(2) 1.13786(16) 0.09973(14)
H29A H -0.2054 1.1800 0.0693
N5A N -0.2430(2) 1.01805(19) 0.21447(15)
N6A N 0.1328(2) 1.10508(17) -0.06887(15)
O1A O 0.8057(3) 0.5583(2) 0.25873(15)
O2A O 0.8035(2) 0.61416(15) 0.42639(13)
O2A_2 O -1.1965(2) 1.61416(15) -0.57361(13)
O3A O 0.3895(2) 0.92901(19) 0.59066(14)
H30A H 0.3351 0.9614 0.6445
O4A O 0.1825(3) 1.04159(19) 0.50919(17)
O5A O 0.16955(19) 0.94242(14) 0.11955(12)
O6A O 0.3514(3) 0.78003(19) 0.05170(15)
O7 O 0.6129(5) 0.3981(5) 0.2101(4)
H31 H 0.662(8) 0.428(7) 0.166(4)
H32 H 0.554(8) 0.369(7) 0.180(5)
O8 O 0.8498(8) 0.5097(5) 0.0400(4)
H33 H 0.807(10) 0.528(8) 0.101(2)
H34 H 0.797(9) 0.546(8) -0.008(4)
O9 O 0.6333(12) 0.6476(9) 0.9408(7)
H35 H 0.7233 0.6526 0.9242
H36 H 0.5677 0.7130 0.9380
O10? O 0.5269(19) 0.5490(11) 0.9878(12)
H37? H 0.5593 0.5671 1.0423
H38? H 0.4422 0.6000 0.9774
loop_
_geom_bond_atom_site_label_1
_geom_bond_atom_site_label_2
_geom_bond_site_symmetry_1
_geom_bond_site_symmetry_2
Ni1 N4 1_555 1_555
Ni2 N1 1_555 1_555
C1 C2 1_555 1_555
C2 H1 1_555 1_555
C3 C2 1_555 1_555
C4 C3 1_555 1_555
H2 C4 1_555 1_555
C5 C4 1_555 1_555
C6 C1 1_555 1_555
H3 C6 1_555 1_555
C7 C1 1_555 1_555
C8 C3 1_555 1_555
C9 C5 1_555 1_555
C10 H4 1_555 1_555
H5 C10 1_555 1_555
C11 C10 1_555 1_555
H6 C11 1_555 1_555
H7 C11 1_555 1_555
C12 H8 1_555 1_555
H9 C12 1_555 1_555
C13 H10 1_555 1_555
H11 C13 1_555 1_555
C14 C13 1_555 1_555
H12 C14 1_555 1_555
H13 C14 1_555 1_555
C15 H14 1_555 1_555
H15 C15 1_555 1_555
C16 H16 1_555 1_555
H17 C16 1_555 1_555
C17 C16 1_555 1_555
H18 C17 1_555 1_555
H19 C17 1_555 1_555
C18 H20 1_555 1_555
H21 C18 1_555 1_555
C19 H22 1_555 1_555
H23 C19 1_555 1_555
C20 C19 1_555 1_555
H24 C20 1_555 1_555
H25 C20 1_555 1_555
C21 H26 1_555 1_555
H27 C21 1_555 1_555
N1 C11 1_555 1_555
H28 N1 1_555 1_555
N2 C12 1_555 1_555
N3 Ni2 1_555 1_555
N4 C17 1_555 1_555
H29 N4 1_555 1_555
N5 C18 1_555 1_555
N6 Ni1 1_555 1_555
O1 C7 1_555 1_555
O2 Ni2 1_555 1_555
O3 C8 1_555 1_555
H30 O3 1_555 1_555
O4 C8 1_555 1_555
O5 Ni1 1_555 1_555
O6 C9 1_555 1_555
O7 H31 1_555 1_555
H32 O7 1_555 1_555
O8 H33 1_555 1_555
H34 O8 1_555 1_555
O9 H35 1_555 1_555
H36 O9 1_555 1_555
Ni2_2 O2A 1_555 1_555
C1A C2A 1_555 1_555
C2A H1A 1_555 1_555
C3A C2A 1_555 1_555
C4A C3A 1_555 1_555
H2A C4A 1_555 1_555
C5A C4A 1_555 1_555
C6A C1A 1_555 1_555
H3A C6A 1_555 1_555
C7A C1A 1_555 1_555
C8A C3A 1_555 1_555
C9A C5A 1_555 1_555
C10A H4A 1_555 1_555
H5A C10A 1_555 1_555
C11A C10A 1_555 1_555
H6A C11A 1_555 1_555
H7A C11A 1_555 1_555
C12A H8A 1_555 1_555
H9A C12A 1_555 1_555
C13A H10A 1_555 1_555
H11A C13A 1_555 1_555
C14A N3 1_555 1_555
H12A C14A 1_555 1_555
H13A C14A 1_555 1_555
C15A N3 1_555 1_555
H14A C15A 1_555 1_555
H15A C15A 1_555 1_555
C16A H16A 1_555 1_555
H17A C16A 1_555 1_555
C17A C16A 1_555 1_555
H18A C17A 1_555 1_555
H19A C17A 1_555 1_555
C18A H20A 1_555 1_555
H21A C18A 1_555 1_555
C19A H22A 1_555 1_555
H23A C19A 1_555 1_555
C20A N6 1_555 1_555
H24A C20A 1_555 1_555
H25A C20A 1_555 1_555
C21A N6 1_555 1_555
H26A C21A 1_555 1_555
H27A C21A 1_555 1_555
N1A Ni2 1_555 1_555
H28A N1A 1_555 1_555
N2A C12A 1_555 1_555
N3A Ni2 1_555 1_555
N4A Ni1 1_555 1_555
H29A N4A 1_555 1_555
N5A C18A 1_555 1_555
N6A Ni1 1_555 1_555
O1A C7A 1_555 1_555
O2A C7A 1_555 1_555
O2A_2 Ni2 1_555 1_555
O3A C8A 1_555 1_555
H30A O3A 1_555 1_555
O4A C8A 1_555 1_555
O5A Ni1 1_555 1_555
O6A C9A 1_555 1_555
C5 C6 1_555 1_555
C7 O2 1_555 1_555
C9 O5 1_555 1_555
C10 N3 1_555 1_555
C12 N1 1_555 1_555
C13 N2 1_555 1_555
C14 N3A 1_555 1_555
C15 N2 1_555 1_555
C15 N3A 1_555 1_555
C16 N6 1_555 1_555
C18 N4 1_555 1_555
C19 N5 1_555 1_555
C20 N6A 1_555 1_555
C21 N5 1_555 1_555
C21 N6A 1_555 1_555
C5A C6A 1_555 1_555
C9A O5A 1_555 1_555
C10A N3A 1_555 1_555
C11A N1A 1_555 1_555
C12A N1A 1_555 1_555
C13A C14A 1_555 1_555
C13A N2A 1_555 1_555
C15A N2A 1_555 1_555
C16A N6A 1_555 1_555
C17A N4A 1_555 1_555
C18A N4A 1_555 1_555
C19A C20A 1_555 1_555
C19A N5A 1_555 1_555
C21A N5A 1_555 1_555

#END
