
#######################################################################
#
#                 Cambridge Crystallographic Data Centre
#                                CCDC 
#
#######################################################################
#
# If this CIF has been generated from an entry in the Cambridge 
# Structural Database, then it will include bibliographic, chemical, 
# crystal, experimental, refinement or atomic coordinate data resulting 
# from the CCDC's data processing and validation procedures.
#
#######################################################################

data_SEFMUN
_symmetry_cell_setting           monoclinic
_symmetry_space_group_name_H-M   'C 2/c'
_symmetry_Int_Tables_number      15
_space_group_name_Hall           '-C 2yn'
loop_
_symmetry_equiv_pos_site_id
_symmetry_equiv_pos_as_xyz
1 x,y,z
2 -x,y,1/2-z
3 1/2+x,1/2+y,z
4 1/2-x,1/2+y,1/2-z
5 -x,-y,-z
6 x,-y,1/2+z
7 1/2-x,1/2-y,-z
8 1/2+x,1/2-y,1/2+z
_cell_length_a                   12.4175(13)
_cell_length_b                   11.6256(10)
_cell_length_c                   14.6766(16)
_cell_angle_alpha                90
_cell_angle_beta                 113.712(4)
_cell_angle_gamma                90
_cell_volume                     1939.86
loop_
_atom_site_label
_atom_site_type_symbol
_atom_site_fract_x
_atom_site_fract_y
_atom_site_fract_z
Mn1 Mn 1.0000 -0.01596(4) 0.2500
Cl1 Cl 0.62842(5) -0.23412(5) 0.02375(5)
Cl2 Cl 0.64128(5) 0.22788(5) 0.03654(5)
O1 O 0.81173(14) -0.01486(15) 0.15878(13)
O2 O 0.79928(17) 0.00046(18) 0.00266(16)
O3 O 0.96400(19) -0.01163(19) 0.38456(15)
N1 N 1.0000 0.1782(2) 0.2500
N2 N 1.0000 0.7896(2) 0.2500
C1 C 1.0920(3) 0.2384(3) 0.2505(2)
C2 C 1.0957(3) 0.3572(3) 0.2508(2)
C3 C 1.0000 0.4198(3) 0.2500
C4 C 1.0000 0.5469(3) 0.2500
C5 C 0.8976(3) 0.6104(3) 0.2284(3)
C6 C 0.9020(2) 0.7288(3) 0.2299(3)
C7 C 0.62327(19) -0.00261(19) 0.02955(16)
C8 C 0.55801(18) -0.10359(19) 0.01122(16)
C9 C 0.56384(18) 0.10117(19) 0.01734(16)
C10 C 0.7571(2) -0.00630(19) 0.06529(19)
H1 H 1.1568 0.1982 0.2506
H2 H 1.1621 0.3951 0.2516
H3 H 0.8263 0.5728 0.2130
H4 H 0.8323 0.7688 0.2159
H5 H 1.033(2) -0.004(3) 0.428(3)
H6 H 0.932(3) -0.063(3) 0.399(3)
Mn1_2 Mn 1.0000 0.98404(4) 0.2500
Mn1D Mn 0.0000 0.01596(4) -0.2500
Cl1D Cl 0.37158(5) 0.23412(5) -0.02375(5)
Cl2D Cl 0.35872(5) -0.22788(5) -0.03654(5)
O1D O 0.18827(14) 0.01486(15) -0.15878(13)
O1A O 1.18827(14) -0.01486(15) 0.34122(13)
O2D O 0.20072(17) -0.00046(18) -0.00266(16)
O3A O 1.03600(19) -0.01163(19) 0.11544(15)
N2_2 N 1.0000 -0.2104(2) 0.2500
C1A C 0.9080(3) 0.2384(3) 0.2495(2)
C2A C 0.9043(3) 0.3572(3) 0.2492(2)
C5A C 1.1024(3) 0.6104(3) 0.2716(3)
C6A C 1.0980(2) 0.7288(3) 0.2701(3)
C7D C 0.37673(19) 0.00261(19) -0.02955(16)
C8D C 0.44199(18) 0.10359(19) -0.01122(16)
C9D C 0.43616(18) -0.10117(19) -0.01734(16)
C10D C 0.2429(2) 0.00630(19) -0.06529(19)
H1A H 0.8432 0.1982 0.2494
H2A H 0.8379 0.3951 0.2484
H3A H 1.1737 0.5728 0.2870
H4A H 1.1677 0.7688 0.2841
H5A H 0.967(2) -0.004(3) 0.072(3)
H6A H 1.068(3) -0.063(3) 0.101(3)
loop_
_geom_bond_atom_site_label_1
_geom_bond_atom_site_label_2
_geom_bond_site_symmetry_1
_geom_bond_site_symmetry_2
Mn1 O1 1_555 1_555
Cl1 C8 1_555 1_555
Cl2 C9 1_555 1_555
O1 C10 1_555 1_555
O2 C10 1_555 1_555
O3 Mn1 1_555 1_555
N1 Mn1 1_555 1_555
N2 C6 1_555 1_555
C1 N1 1_555 1_555
C2 C1 1_555 1_555
C3 C2 1_555 1_555
C4 C3 1_555 1_555
C5 C4 1_555 1_555
C6 C5 1_555 1_555
C7 C8 1_555 1_555
C8 C9D 1_555 1_555
C9 C7 1_555 1_555
C10 C7 1_555 1_555
H1 C1 1_555 1_555
H2 C2 1_555 1_555
H3 C5 1_555 1_555
H4 C6 1_555 1_555
H5 O3 1_555 1_555
H6 O3 1_555 1_555
Mn1_2 N2 1_555 1_555
Mn1D O1D 1_555 1_555
Cl1D C8D 1_555 1_555
Cl2D C9D 1_555 1_555
O1D C10D 1_555 1_555
O1A Mn1 1_555 1_555
O2D C10D 1_555 1_555
O3A Mn1 1_555 1_555
N2_2 Mn1 1_555 1_555
C1A N1 1_555 1_555
C2A C3 1_555 1_555
C5A C4 1_555 1_555
C6A N2 1_555 1_555
C7D C8D 1_555 1_555
C8D C9 1_555 1_555
C9D C7D 1_555 1_555
C10D C7D 1_555 1_555
H1A C1A 1_555 1_555
H2A C2A 1_555 1_555
H3A C5A 1_555 1_555
H4A C6A 1_555 1_555
H5A O3A 1_555 1_555
H6A O3A 1_555 1_555
C1A C2A 1_555 1_555
C5A C6A 1_555 1_555

#END
