
#######################################################################
#
#                 Cambridge Crystallographic Data Centre
#                                CCDC 
#
#######################################################################
#
# If this CIF has been generated from an entry in the Cambridge 
# Structural Database, then it will include bibliographic, chemical, 
# crystal, experimental, refinement or atomic coordinate data resulting 
# from the CCDC's data processing and validation procedures.
#
#######################################################################

data_SEFMOH01
_symmetry_cell_setting           triclinic
_symmetry_space_group_name_H-M   'P -1'
_symmetry_Int_Tables_number      2
_space_group_name_Hall           '-P 1'
loop_
_symmetry_equiv_pos_site_id
_symmetry_equiv_pos_as_xyz
1 x,y,z
2 -x,-y,-z
_cell_length_a                   7.136(1)
_cell_length_b                   8.079(3)
_cell_length_c                   8.522(2)
_cell_angle_alpha                90.55(2)
_cell_angle_beta                 109.29(1)
_cell_angle_gamma                95.35(2)
_cell_volume                     461.278
loop_
_atom_site_label
_atom_site_type_symbol
_atom_site_fract_x
_atom_site_fract_y
_atom_site_fract_z
C1 C 1.0550(6) 0.8497(5) 0.3598(5)
H1 H 1.1026 0.9599 0.3932
C2 C 1.0522(6) 0.7327(6) 0.4843(5)
H2 H 1.0857 0.7680 0.5952
C3 C 0.9973(6) 0.5615(5) 0.4351(5)
C4 C 0.9396(6) 0.5233(5) 0.2705(5)
H3 H 0.8972 0.4130 0.2338
C5 C 0.9407(6) 0.6405(6) 0.1540(5)
H4 H 0.9059 0.6052 0.0430
C6 C 0.6367(6) 0.7796(5) -0.2529(5)
C7 C 0.5343(7) 0.6612(6) -0.5448(5)
C8 C 0.5694(6) 0.6316(5) -0.3768(5)
C9 C 0.5274(6) 0.4679(6) -0.3366(5)
F1 F 0.5621(3) 0.8168(3) -0.5972(3)
F2 F 0.5580(3) 0.4423(3) -0.1728(3)
Mn1 Mn 1.0000 1.0000 0.0000
N1 N 0.9909(5) 0.8061(5) 0.1953(5)
O1 O 0.5016(4) 0.8446(4) -0.2094(4)
O2 O 0.8176(4) 0.8221(4) -0.1987(4)
O3 O 0.7234(4) 1.1073(4) 0.0085(3)
H5 H 0.6978 1.1856 -0.0588
H6 H 0.7425 1.1451 0.1066
C1A C 0.9450(6) 0.1503(5) 0.6402(5)
H1A H 0.8974 0.0401 0.6068
C2A C 0.9478(6) 0.2673(6) 0.5157(5)
H2A H 0.9143 0.2320 0.4048
C3A C 1.0027(6) 0.4385(5) 0.5649(5)
C4A C 1.0604(6) 0.4767(5) 0.7295(5)
H3A H 1.1028 0.5870 0.7662
C5A C 1.0593(6) 0.3595(6) 0.8460(5)
H4A H 1.0941 0.3948 0.9570
N1A N 1.0091(5) 0.1939(5) 0.8047(5)
C6A C 0.3633(6) 0.2204(5) -0.7471(5)
C7A C 0.4657(7) 0.3388(6) -0.4552(5)
C8A C 0.4306(6) 0.3684(5) -0.6232(5)
C9A C 0.4726(6) 0.5321(6) -0.6634(5)
F1A F 0.4379(3) 0.1832(3) -0.4028(3)
F2A F 0.4420(3) 0.5577(3) -0.8272(3)
O1A O 0.4984(4) 0.1554(4) -0.7906(4)
O2A O 0.1824(4) 0.1779(4) -0.8013(4)
O3A O 1.2766(4) 0.8927(4) -0.0085(3)
H5A H 1.3022 0.8144 0.0588
H6A H 1.2575 0.8549 -0.1066
Mn1_2 Mn 0.0000 0.0000 -1.0000
Mn1_3 Mn 1.0000 0.0000 1.0000
N1A_2 N 1.0091(5) 1.1939(5) -0.1953(5)
O2A_2 O 1.1824(4) 1.1779(4) 0.1987(4)
loop_
_geom_bond_atom_site_label_1
_geom_bond_atom_site_label_2
_geom_bond_site_symmetry_1
_geom_bond_site_symmetry_2
C1 H1 1_555 1_555
C2 C1 1_555 1_555
H2 C2 1_555 1_555
C3 C2 1_555 1_555
C4 C3 1_555 1_555
H3 C4 1_555 1_555
C5 C4 1_555 1_555
H4 C5 1_555 1_555
C6 C8 1_555 1_555
C7 C8 1_555 1_555
C8 C9 1_555 1_555
C9 F2 1_555 1_555
F1 C7 1_555 1_555
Mn1 N1 1_555 1_555
N1 C1 1_555 1_555
O1 C6 1_555 1_555
O2 C6 1_555 1_555
O3 Mn1 1_555 1_555
H5 O3 1_555 1_555
H6 O3 1_555 1_555
C1A H1A 1_555 1_555
C2A C1A 1_555 1_555
H2A C2A 1_555 1_555
C3A C3 1_555 1_555
C4A C3A 1_555 1_555
H3A C4A 1_555 1_555
C5A C4A 1_555 1_555
H4A C5A 1_555 1_555
N1A C1A 1_555 1_555
C6A C8A 1_555 1_555
C7A C9 1_555 1_555
C8A C7A 1_555 1_555
C9A C7 1_555 1_555
F1A C7A 1_555 1_555
F2A C9A 1_555 1_555
O1A C6A 1_555 1_555
O2A C6A 1_555 1_555
O3A Mn1 1_555 1_555
H5A O3A 1_555 1_555
H6A O3A 1_555 1_555
Mn1_2 O2A 1_555 1_555
Mn1_3 N1A 1_555 1_555
N1A_2 Mn1 1_555 1_555
O2A_2 Mn1 1_555 1_555
C5 N1 1_555 1_555
Mn1 O2 1_555 1_555
C2A C3A 1_555 1_555
C5A N1A 1_555 1_555
C8A C9A 1_555 1_555

#END
