
#######################################################################
#
#                 Cambridge Crystallographic Data Centre
#                                CCDC 
#
#######################################################################
#
# If this CIF has been generated from an entry in the Cambridge 
# Structural Database, then it will include bibliographic, chemical, 
# crystal, experimental, refinement or atomic coordinate data resulting 
# from the CCDC's data processing and validation procedures.
#
#######################################################################

data_SEFNOH
_symmetry_cell_setting           monoclinic
_symmetry_space_group_name_H-M   'P 21/n'
_symmetry_Int_Tables_number      14
_space_group_name_Hall           '-P 2yn'
loop_
_symmetry_equiv_pos_site_id
_symmetry_equiv_pos_as_xyz
1 x,y,z
2 1/2-x,1/2+y,1/2-z
3 -x,-y,-z
4 1/2+x,1/2-y,1/2+z
_cell_length_a                   15.721(4)
_cell_length_b                   4.7898(11)
_cell_length_c                   31.371(7)
_cell_angle_alpha                90
_cell_angle_beta                 90.439(3)
_cell_angle_gamma                90
_cell_volume                     2362.18
loop_
_atom_site_label
_atom_site_type_symbol
_atom_site_fract_x
_atom_site_fract_y
_atom_site_fract_z
Cd1 Cd 0.288891(12) 0.15814(4) 0.029335(6)
O1 O 0.19385(13) 0.5243(5) 0.02555(7)
O2 O 0.22000(19) -0.0007(6) -0.03179(8)
O3 O 0.18687(14) 0.9188(5) 0.06405(7)
O6 O -0.11949(13) 0.7218(5) 0.52110(7)
O8 O -0.12514(15) 1.1164(5) 0.48288(7)
O9 O 0.27535(18) 0.4157(7) 0.11783(9)
O10 O 0.36990(16) 0.2287(6) 0.15916(7)
O11 O 0.37139(15) 0.1505(5) 0.09083(7)
N1 N 0.07293(16) 0.7230(6) 0.11882(8)
N2 N -0.06773(17) 0.8628(5) 0.41014(8)
N3 N 0.33800(16) 0.2672(6) 0.12326(8)
C1 C 0.16714(18) 0.6727(6) 0.05578(10)
C2 C 0.10149(19) 0.5323(7) 0.08462(9)
H1 H 0.0528 0.4750 0.0676
H2 H 0.1263 0.3663 0.0973
C3 C -0.00210(19) 0.8557(7) 0.11522(10)
H3 H -0.0368 0.8220 0.0916
C4 C -0.02829(19) 1.0415(7) 0.14613(10)
H4 H -0.0807 1.1303 0.1435
C5 C 0.0240(2) 1.0953(7) 0.18113(10)
C6 C 0.1022(2) 0.9592(8) 0.18333(10)
H5 H 0.1388 0.9941 0.2062
C7 C 0.12595(19) 0.7732(8) 0.15203(10)
H6 H 0.1782 0.6829 0.1538
C8 C -0.0034(2) 1.2849(7) 0.21677(10)
H7 H -0.0553 1.3808 0.2085
H8 H 0.0402 1.4245 0.2219
C9 C -0.0187(2) 1.1194(7) 0.25777(10)
H9 H -0.0588 0.9698 0.2521
H10 H 0.0344 1.0363 0.2674
C10 C -0.0537(2) 1.3081(7) 0.29282(10)
H11 H -0.0164 1.4678 0.2965
H12 H -0.1093 1.3767 0.2843
C11 C -0.0609(2) 1.1548(6) 0.33452(10)
C12 C -0.12065(18) 0.9464(7) 0.34070(10)
H13 H -0.1590 0.9027 0.3190
C13 C -0.1236(2) 0.8040(7) 0.37862(10)
H14 H -0.1644 0.6659 0.3826
C14 C -0.00964(19) 1.0675(7) 0.40548(10)
H15 H 0.0275 1.1097 0.4278
C15 C -0.00521(19) 1.2137(7) 0.36798(10)
H16 H 0.0354 1.3535 0.3649
C16 C -0.0697(2) 0.7032(7) 0.45038(10)
H17 H -0.0120 0.6510 0.4581
H18 H -0.1016 0.5326 0.4457
C17 C -0.10911(18) 0.8613(6) 0.48767(10)
Cd1_2 Cd 0.288891(12) 1.15814(4) 0.029335(6)
Cd1C Cd -0.211109(12) 0.34186(4) 0.529335(6)
Cd1C_2 Cd -0.211109(12) 1.34186(4) 0.529335(6)
O3_2 O 0.18687(14) -0.0812(5) 0.06405(7)
O6C O 0.38051(13) -0.2218(5) 0.02110(7)
O8C O 0.37486(15) 0.3836(5) -0.01712(7)
O4 O 0.03623(16) 0.2476(7) -0.01255(9)
O5 O -0.2827(2) 1.3008(9) 0.26469(12)
O7 O 0.26115(18) 0.4364(6) 0.22780(8)
O12 O -0.3303(3) 0.9801(9) 0.41190(11)
O13 O -0.2687(2) 1.3320(8) 0.38409(17)
O14 O -0.32460(18) 1.0212(7) 0.34280(9)
N4 N -0.3064(2) 1.1140(8) 0.37896(14)
loop_
_geom_bond_atom_site_label_1
_geom_bond_atom_site_label_2
_geom_bond_site_symmetry_1
_geom_bond_site_symmetry_2
Cd1 O1 1_555 1_555
O1 C1 1_555 1_555
O2 Cd1 1_555 1_555
O3 C1 1_555 1_555
O6 C17 1_555 1_555
O8 C17 1_555 1_555
O9 N3 1_555 1_555
O10 N3 1_555 1_555
O11 Cd1 1_555 1_555
O12 N4 1_555 1_555
O13 N4 1_555 1_555
O14 N4 1_555 1_555
N1 C2 1_555 1_555
N2 C13 1_555 1_555
N3 O11 1_555 1_555
C1 C2 1_555 1_555
C2 H1 1_555 1_555
H2 C2 1_555 1_555
C3 N1 1_555 1_555
H3 C3 1_555 1_555
C4 C3 1_555 1_555
H4 C4 1_555 1_555
C5 C4 1_555 1_555
C6 C5 1_555 1_555
H5 C6 1_555 1_555
C7 N1 1_555 1_555
H6 C7 1_555 1_555
C8 C5 1_555 1_555
H7 C8 1_555 1_555
H8 C8 1_555 1_555
C9 C8 1_555 1_555
H9 C9 1_555 1_555
H10 C9 1_555 1_555
C10 C9 1_555 1_555
H11 C10 1_555 1_555
H12 C10 1_555 1_555
C11 C10 1_555 1_555
C12 C11 1_555 1_555
H13 C12 1_555 1_555
C13 C12 1_555 1_555
H14 C13 1_555 1_555
C14 N2 1_555 1_555
H15 C14 1_555 1_555
C15 C11 1_555 1_555
H16 C15 1_555 1_555
C16 N2 1_555 1_555
H17 C16 1_555 1_555
H18 C16 1_555 1_555
C17 C16 1_555 1_555
Cd1_2 O3 1_555 1_555
Cd1C O6 1_555 1_555
Cd1C_2 O8 1_555 1_555
O3_2 Cd1 1_555 1_555
O6C Cd1 1_555 1_555
O8C Cd1 1_555 1_555
C6 C7 1_555 1_555
C14 C15 1_555 1_555

#END
