
#######################################################################
#
#                 Cambridge Crystallographic Data Centre
#                                CCDC 
#
#######################################################################
#
# If this CIF has been generated from an entry in the Cambridge 
# Structural Database, then it will include bibliographic, chemical, 
# crystal, experimental, refinement or atomic coordinate data resulting 
# from the CCDC's data processing and validation procedures.
#
#######################################################################

data_SEFNIB
_symmetry_cell_setting           orthorhombic
_symmetry_space_group_name_H-M   'F d d 2'
_symmetry_Int_Tables_number      43
_space_group_name_Hall           'F 2 -2d'
loop_
_symmetry_equiv_pos_site_id
_symmetry_equiv_pos_as_xyz
1 x,y,z
2 -x,-y,z
3 1/4+x,1/4-y,1/4+z
4 1/4-x,1/4+y,1/4+z
5 x,1/2+y,1/2+z
6 -x,1/2-y,1/2+z
7 1/4+x,3/4-y,3/4+z
8 1/4-x,3/4+y,3/4+z
9 1/2+x,y,1/2+z
10 1/2-x,-y,1/2+z
11 3/4+x,1/4-y,3/4+z
12 3/4-x,1/4+y,3/4+z
13 1/2+x,1/2+y,z
14 1/2-x,1/2-y,z
15 3/4+x,3/4-y,1/4+z
16 3/4-x,3/4+y,1/4+z
_cell_length_a                   18.6008(11)
_cell_length_b                   62.936(4)
_cell_length_c                   7.5918(5)
_cell_angle_alpha                90
_cell_angle_beta                 90
_cell_angle_gamma                90
_cell_volume                     8887.42
loop_
_atom_site_label
_atom_site_type_symbol
_atom_site_fract_x
_atom_site_fract_y
_atom_site_fract_z
Zn1 Zn -0.098396(11) 0.234268(3) 0.43587(3)
O1 O -0.03896(8) 0.24952(2) 0.25192(18)
O2 O 0.01221(7) 0.27508(2) 0.09359(18)
C1 C 0.09833(10) 0.49747(3) 0.5052(3)
C2 C -0.01197(10) 0.26760(3) 0.2342(2)
O4 O 0.11723(8) 0.49355(2) 0.3496(2)
C3 C 0.03974(10) 0.44877(3) 0.4546(3)
H1 H -0.0053 0.4552 0.4504
C4 C 0.08910(10) 0.30690(3) 0.4173(3)
H2 H 0.1142 0.2971 0.4850
C5 C 0.09337(9) 0.45808(3) 0.5448(2)
C6 C 0.02278(9) 0.30237(2) 0.3609(2)
C7 C 0.17275(11) 0.43021(3) 0.4699(3)
H3 H 0.2182 0.4241 0.4779
C8 C 0.15895(10) 0.44878(3) 0.5524(3)
H4 H 0.1954 0.4554 0.6160
C9 C 0.09195(11) 0.38033(3) 0.3265(3)
H5 H 0.0988 0.3776 0.4511
H6 H 0.0410 0.3824 0.3051
C10 C 0.01416(11) 0.33559(3) 0.2140(3)
H7 H -0.0118 0.3451 0.1448
N2 N 0.11818(11) 0.41991(3) 0.3711(3)
N3 N 0.08569(12) 0.34078(3) 0.2737(3)
C11 C -0.01490(11) 0.31628(3) 0.2618(3)
H8 H -0.0611 0.3128 0.2253
C12 C 0.05114(11) 0.43000(3) 0.3693(3)
H9 H 0.0133 0.4237 0.3083
C13 C 0.08279(11) 0.47870(3) 0.6263(3)
H10 H 0.0334 0.4797 0.6668
H11 H 0.1137 0.4797 0.7289
C14 C 0.12061(12) 0.32618(3) 0.3750(3)
H12 H 0.1665 0.3292 0.4166
C15 C 0.11974(13) 0.36156(3) 0.2181(3)
H13 H 0.1715 0.3605 0.2317
H14 H 0.1096 0.3641 0.0945
C16 C -0.01025(11) 0.28163(3) 0.3982(3)
H15 H 0.0168 0.2745 0.4902
H16 H -0.0589 0.2838 0.4407
C17 C 0.13358(12) 0.40015(3) 0.2723(3)
H17 H 0.1241 0.4028 0.1486
H18 H 0.1845 0.3971 0.2835
O7 O -0.07154(8) 0.20388(3) 0.2993(2)
N4 N -0.11053(10) 0.19195(3) 0.3892(2)
O10 O 0.09087(9) 0.51528(2) 0.5709(3)
O11 O -0.14799(9) 0.20086(4) 0.5058(2)
O12 O -0.18773(9) 0.23585(2) 0.2633(3)
O13 O -0.10925(13) 0.17299(3) 0.3640(3)
Zn1E Zn 0.098396(11) 0.265732(3) -0.06413(3)
Zn1F Zn 0.151604(11) 0.515732(3) 0.18587(3)
O2E O -0.01221(7) 0.22492(2) 0.59359(18)
O4N O -0.13277(8) 0.25645(2) 0.5996(2)
N1 N -0.20642(9) 0.30667(3) 0.1806(3)
O3 O -0.17503(9) 0.32317(3) 0.1391(3)
O5 O -0.17364(9) 0.29212(2) 0.2571(2)
O6 O -0.27067(8) 0.30383(3) 0.1359(3)
O8 O 0.16648(10) 0.36766(3) -0.2325(3)
O9 O -0.22331(10) 0.36277(3) 0.0228(3)
loop_
_geom_bond_atom_site_label_1
_geom_bond_atom_site_label_2
_geom_bond_site_symmetry_1
_geom_bond_site_symmetry_2
Zn1 O1 1_555 1_555
O1 C2 1_555 1_555
O2 C2 1_555 1_555
N1 O3 1_555 1_555
C1 O4 1_555 1_555
C2 C16 1_555 1_555
O4 Zn1F 1_555 1_555
C3 H1 1_555 1_555
C4 H2 1_555 1_555
C5 C3 1_555 1_555
C6 C4 1_555 1_555
C7 H3 1_555 1_555
C8 C5 1_555 1_555
H4 C8 1_555 1_555
O5 N1 1_555 1_555
C9 H5 1_555 1_555
H6 C9 1_555 1_555
C10 H7 1_555 1_555
N2 C7 1_555 1_555
N3 C10 1_555 1_555
C11 C6 1_555 1_555
H8 C11 1_555 1_555
C12 C3 1_555 1_555
H9 C12 1_555 1_555
C13 C1 1_555 1_555
H10 C13 1_555 1_555
H11 C13 1_555 1_555
C14 C4 1_555 1_555
H12 C14 1_555 1_555
C15 C9 1_555 1_555
H13 C15 1_555 1_555
H14 C15 1_555 1_555
O6 N1 1_555 1_555
C16 C6 1_555 1_555
H15 C16 1_555 1_555
H16 C16 1_555 1_555
C17 C9 1_555 1_555
H17 C17 1_555 1_555
H18 C17 1_555 1_555
O7 Zn1 1_555 1_555
N4 O7 1_555 1_555
O10 C1 1_555 1_555
O11 Zn1 1_555 1_555
O12 Zn1 1_555 1_555
O13 N4 1_555 1_555
Zn1E O2 1_555 1_555
O2E Zn1 1_555 1_555
O4N Zn1 1_555 1_555
C5 C13 1_555 1_555
C7 C8 1_555 1_555
C10 C11 1_555 1_555
N2 C12 1_555 1_555
N2 C17 1_555 1_555
N3 C14 1_555 1_555
N3 C15 1_555 1_555
N4 O11 1_555 1_555

#END
