
#######################################################################
#
#                 Cambridge Crystallographic Data Centre
#                                CCDC 
#
#######################################################################
#
# If this CIF has been generated from an entry in the Cambridge 
# Structural Database, then it will include bibliographic, chemical, 
# crystal, experimental, refinement or atomic coordinate data resulting 
# from the CCDC's data processing and validation procedures.
#
#######################################################################

data_SEFNAU
_symmetry_cell_setting           monoclinic
_symmetry_space_group_name_H-M   'C 2/m'
_symmetry_Int_Tables_number      12
_space_group_name_Hall           '-C 2y'
loop_
_symmetry_equiv_pos_site_id
_symmetry_equiv_pos_as_xyz
1 x,y,z
2 -x,y,-z
3 1/2+x,1/2+y,z
4 1/2-x,1/2+y,-z
5 -x,-y,-z
6 x,-y,z
7 1/2-x,1/2-y,-z
8 1/2+x,1/2-y,z
_cell_length_a                   13.3245(18)
_cell_length_b                   11.6082(11)
_cell_length_c                   7.5884(10)
_cell_angle_alpha                90
_cell_angle_beta                 119.224(5)
_cell_angle_gamma                90
_cell_volume                     1024.33
loop_
_atom_site_label
_atom_site_type_symbol
_atom_site_fract_x
_atom_site_fract_y
_atom_site_fract_z
Br1 Br 0.63767(3) 0.25713(3) 0.56314(7)
Mn1 Mn 1.0000 0.5000 1.0000
O1 O 1.0083(3) 0.5000 0.7161(6)
O2 O 0.8120(3) 0.5000 0.8238(6)
O3 O 0.7793(3) 0.5000 0.5050(6)
N1 N 1.0000 0.6937(4) 1.0000
C1 C 0.5582(3) 0.3968(3) 0.5292(6)
C2 C 0.7488(5) 0.5000 0.6352(9)
C3 C 0.9125(4) 0.7539(3) 0.9945(8)
C4 C 0.6191(4) 0.5000 0.5620(8)
C5 C 0.9090(4) 0.8728(4) 0.9929(7)
C6 C 1.0000 0.9362(4) 1.0000
H1 H 0.8514 0.7136 0.9917
H2 H 0.8460 0.9107 0.9871
H3 H 0.939(2) 0.5000 0.634(8)
H4 H 1.078(2) 0.5000 0.750(9)
Br1A Br 0.36233(3) 0.25713(3) 0.43686(7)
Br1D Br 0.36233(3) 0.74287(3) 0.43686(7)
Br1E Br 0.63767(3) 0.74287(3) 0.56314(7)
Mn1_2 Mn 0.0000 0.5000 0.0000
Mn1_3 Mn 1.0000 1.5000 1.0000
O1A O 0.9917(3) 0.5000 1.2839(6)
O2A O 0.1880(3) 0.5000 0.1762(6)
O2A_2 O 1.1880(3) 0.5000 1.1762(6)
O3A O 0.2207(3) 0.5000 0.4950(6)
N1D N 1.0000 1.3063(4) 1.0000
N1D_2 N 1.0000 0.3063(4) 1.0000
C1A C 0.4418(3) 0.3968(3) 0.4708(6)
C1D C 0.4418(3) 0.6032(3) 0.4708(6)
C1E C 0.5582(3) 0.6032(3) 0.5292(6)
C2A C 0.2512(5) 0.5000 0.3648(9)
C3A C 1.0875(4) 0.7539(3) 1.0055(8)
C3D C 1.0875(4) 1.2461(3) 1.0055(8)
C3E C 0.9125(4) 1.2461(3) 0.9945(8)
C4A C 0.3809(4) 0.5000 0.4380(8)
C5A C 1.0910(4) 0.8728(4) 1.0071(7)
C5D C 1.0910(4) 1.1272(4) 1.0071(7)
C5E C 0.9090(4) 1.1272(4) 0.9929(7)
C6D C 1.0000 1.0638(4) 1.0000
H1A H 1.1486 0.7136 1.0083
H1D H 1.1486 1.2864 1.0083
H1E H 0.8514 1.2864 0.9917
H2A H 1.1540 0.9107 1.0129
H2D H 1.1540 1.0893 1.0129
H2E H 0.8460 1.0893 0.9871
H3A H 1.061(2) 0.5000 1.366(8)
H4A H 0.922(2) 0.5000 1.250(9)
loop_
_geom_bond_atom_site_label_1
_geom_bond_atom_site_label_2
_geom_bond_site_symmetry_1
_geom_bond_site_symmetry_2
Br1 C1 1_555 1_555
Mn1 O1 1_555 1_555
O1 H3 1_555 1_555
O2 Mn1 1_555 1_555
O3 C2 1_555 1_555
N1 Mn1 1_555 1_555
C1 C4 1_555 1_555
C2 O2 1_555 1_555
C3 N1 1_555 1_555
C4 C2 1_555 1_555
C5 C3 1_555 1_555
C6 C5 1_555 1_555
H1 C3 1_555 1_555
H2 C5 1_555 1_555
H4 O1 1_555 1_555
Br1A C1A 1_555 1_555
Br1D C1D 1_555 1_555
Br1E C1E 1_555 1_555
Mn1_2 O2A 1_555 1_555
Mn1_3 N1D 1_555 1_555
O1A Mn1 1_555 1_555
O2A C2A 1_555 1_555
O2A_2 Mn1 1_555 1_555
O3A C2A 1_555 1_555
N1D C3D 1_555 1_555
N1D_2 Mn1 1_555 1_555
C1A C1 1_555 1_555
C1D C1E 1_555 1_555
C1E C4 1_555 1_555
C2A C4A 1_555 1_555
C3A N1 1_555 1_555
C3D C5D 1_555 1_555
C3E N1D 1_555 1_555
C4A C1A 1_555 1_555
C5A C6 1_555 1_555
C5D C6D 1_555 1_555
C5E C3E 1_555 1_555
C6D C6 1_555 1_555
H1A C3A 1_555 1_555
H1D C3D 1_555 1_555
H1E C3E 1_555 1_555
H2A C5A 1_555 1_555
H2D C5D 1_555 1_555
H2E C5E 1_555 1_555
H3A O1A 1_555 1_555
H4A O1A 1_555 1_555
C1D C4A 1_555 1_555
C3A C5A 1_555 1_555
C5E C6D 1_555 1_555

#END
