
#######################################################################
#
#                 Cambridge Crystallographic Data Centre
#                                CCDC 
#
#######################################################################
#
# If this CIF has been generated from an entry in the Cambridge 
# Structural Database, then it will include bibliographic, chemical, 
# crystal, experimental, refinement or atomic coordinate data resulting 
# from the CCDC's data processing and validation procedures.
#
#######################################################################

data_SEFPAV
_symmetry_cell_setting           monoclinic
_symmetry_space_group_name_H-M   'C 2'
_symmetry_Int_Tables_number      5
_space_group_name_Hall           'C 2y'
loop_
_symmetry_equiv_pos_site_id
_symmetry_equiv_pos_as_xyz
1 x,y,z
2 -x,y,-z
3 1/2+x,1/2+y,z
4 1/2-x,1/2+y,-z
_cell_length_a                   12.236(8)
_cell_length_b                   6.2011(18)
_cell_length_c                   14.155(5)
_cell_angle_alpha                90
_cell_angle_beta                 111.19(4)
_cell_angle_gamma                90
_cell_volume                     1001.42
loop_
_atom_site_label
_atom_site_type_symbol
_atom_site_fract_x
_atom_site_fract_y
_atom_site_fract_z
Zn1 Zn 0.5000 -0.3860 0.5000
O1 O 0.6273(3) 0.0269(6) 0.4947(2)
O2 O 0.6255(4) -0.2363(7) 0.6012(3)
O3 O 0.4435(4) -0.5825(7) 0.5810(3)
C1 C 0.6526(4) -0.0497(9) 0.5810(4)
C2 C 0.7224(3) 0.0871(9) 0.6725(3)
C3 C 0.7755(4) 0.2715(9) 0.6621(4)
H1 H 0.7710 0.3163 0.5980
C4 C 0.8359(4) 0.3927(10) 0.7453(4)
H2 H 0.8734 0.5187 0.7380
C5 C 0.7909(4) 0.1475(10) 0.8499(3)
H3 H 0.7978 0.1052 0.9149
C6 C 0.7285(4) 0.0192(10) 0.7686(4)
H4 H 0.6920 -0.1069 0.7773
C7 C 0.9054(5) 0.4668(11) 0.9267(4)
H5 H 0.9377 0.5914 0.9046
H6 H 0.8518 0.5177 0.9583
C8 C 1.0000 0.3427(17) 1.0000
H7 H 0.9685(14) 0.236(3) 1.0311(16)
N1 N 0.8412(3) 0.3290(8) 0.8379(3)
Zn1_2 Zn 1.5000 -0.3860 1.5000
O1A O 1.3727(3) 0.0269(6) 1.5053(2)
O2A O 1.3745(4) -0.2363(7) 1.3988(3)
O2A_2 O 0.3745(4) -0.2363(7) 0.3988(3)
O3A O 0.5565(4) -0.5825(7) 0.4190(3)
C1A C 1.3474(4) -0.0497(9) 1.4190(4)
C2A C 1.2776(3) 0.0871(9) 1.3275(3)
C3A C 1.2245(4) 0.2715(9) 1.3379(4)
H1A H 1.2290 0.3163 1.4020
C4A C 1.1641(4) 0.3927(10) 1.2547(4)
H2A H 1.1266 0.5187 1.2620
C5A C 1.2091(4) 0.1475(10) 1.1501(3)
H3A H 1.2022 0.1052 1.0851
C6A C 1.2715(4) 0.0192(10) 1.2314(4)
H4A H 1.3080 -0.1069 1.2227
C7A C 1.0946(5) 0.4668(11) 1.0733(4)
H5A H 1.0623 0.5914 1.0954
H6A H 1.1482 0.5177 1.0417
H7A H 1.0315(14) 0.236(3) 0.9689(16)
N1A N 1.1588(3) 0.3290(8) 1.1621(3)
N2 N 0.0700(4) -0.0650(8) 0.8446(3)
O4 O 0.0995(6) 0.0993(19) 0.8200(6)
O5 O 0.1109(5) -0.1283(11) 0.9330(3)
O6 O -0.0002(5) -0.1741(11) 0.7778(4)
loop_
_geom_bond_atom_site_label_1
_geom_bond_atom_site_label_2
_geom_bond_site_symmetry_1
_geom_bond_site_symmetry_2
Zn1 O2 1_555 1_555
O1 C1 1_555 1_555
O2 C1 1_555 1_555
O3 Zn1 1_555 1_555
C1 C2 1_555 1_555
C2 C3 1_555 1_555
C3 H1 1_555 1_555
C4 C3 1_555 1_555
H2 C4 1_555 1_555
C5 H3 1_555 1_555
C6 C2 1_555 1_555
H4 C6 1_555 1_555
C7 H5 1_555 1_555
H6 C7 1_555 1_555
C8 C7 1_555 1_555
H7 C8 1_555 1_555
N1 C4 1_555 1_555
N2 O4 1_555 1_555
O5 N2 1_555 1_555
O6 N2 1_555 1_555
Zn1_2 O2A 1_555 1_555
O1A C1A 1_555 1_555
O2A C1A 1_555 1_555
O2A_2 Zn1 1_555 1_555
O3A Zn1 1_555 1_555
C1A C2A 1_555 1_555
C2A C3A 1_555 1_555
C3A H1A 1_555 1_555
C4A C3A 1_555 1_555
H2A C4A 1_555 1_555
C5A H3A 1_555 1_555
C6A C2A 1_555 1_555
H4A C6A 1_555 1_555
C7A C8 1_555 1_555
H5A C7A 1_555 1_555
H6A C7A 1_555 1_555
H7A C8 1_555 1_555
N1A C4A 1_555 1_555
C5 C6 1_555 1_555
C5 N1 1_555 1_555
C7 N1 1_555 1_555
C5A C6A 1_555 1_555
C5A N1A 1_555 1_555
C7A N1A 1_555 1_555

#END
