
#######################################################################
#
#                 Cambridge Crystallographic Data Centre
#                                CCDC 
#
#######################################################################
#
# If this CIF has been generated from an entry in the Cambridge 
# Structural Database, then it will include bibliographic, chemical, 
# crystal, experimental, refinement or atomic coordinate data resulting 
# from the CCDC's data processing and validation procedures.
#
#######################################################################

data_SEFPEZ
_symmetry_cell_setting           monoclinic
_symmetry_space_group_name_H-M   'C 2/c'
_symmetry_Int_Tables_number      15
_space_group_name_Hall           '-C 2yn'
loop_
_symmetry_equiv_pos_site_id
_symmetry_equiv_pos_as_xyz
1 x,y,z
2 1/2+x,1/2+y,z
3 -x,y,1/2-z
4 1/2-x,1/2+y,1/2-z
5 -x,-y,-z
6 1/2-x,1/2-y,-z
7 x,-y,1/2+z
8 1/2+x,1/2-y,1/2+z
_cell_length_a                   19.920(4)
_cell_length_b                   11.256(2)
_cell_length_c                   15.487(3)
_cell_angle_alpha                90
_cell_angle_beta                 94.77(3)
_cell_angle_gamma                90
_cell_volume                     3460.46
loop_
_atom_site_label
_atom_site_type_symbol
_atom_site_fract_x
_atom_site_fract_y
_atom_site_fract_z
Ni1 Ni 0.5000 0.49165(6) 0.2500
C1 C 0.5505(2) 0.2440(4) 0.2207(3)
H1 H 0.5859 0.2856 0.1993
C2 C 0.5528(2) 0.1223(4) 0.2205(3)
H2 H 0.5895 0.0825 0.2008
C3 C 0.5000 0.0602(5) 0.2500
C4 C 0.5000 -0.0714(5) 0.2500
C5 C 0.4411(2) -0.1370(4) 0.2415(4)
H3 H 0.3998 -0.0980 0.2363
C6 C 0.4429(3) -0.2595(4) 0.2407(4)
H4 H 0.4023 -0.3006 0.2333
N1 N 0.5000 0.3055(4) 0.2500
N2 N 0.5000 -0.3219(4) 0.2500
O1 O 0.51224(15) 0.4853(3) 0.12036(19)
H5 H 0.5324 0.5401 0.0992
H6 H 0.4761 0.4841 0.0908
O2 O 0.39534(15) 0.4827(3) 0.2248(2)
H7 H 0.3650 0.5039 0.2540
H8 H 0.3859 0.4883 0.1724
Ni1_2 Ni 0.5000 -0.50835(6) 0.2500
C1B C 0.4495(2) 0.2440(4) 0.2793(3)
H1B H 0.4141 0.2856 0.3007
C2B C 0.4472(2) 0.1223(4) 0.2795(3)
H2B H 0.4105 0.0825 0.2992
C5B C 0.5589(2) -0.1370(4) 0.2585(4)
H3B H 0.6002 -0.0980 0.2637
C6B C 0.5571(3) -0.2595(4) 0.2593(4)
H4B H 0.5977 -0.3006 0.2667
N2_2 N 0.5000 0.6781(4) 0.2500
O1B O 0.48776(15) 0.4853(3) 0.37964(19)
H5B H 0.4676 0.5401 0.4008
H6B H 0.5239 0.4841 0.4092
O2B O 0.60466(15) 0.4827(3) 0.2752(2)
H7B H 0.6350 0.5039 0.2460
H8B H 0.6141 0.4883 0.3276
Ni2 Ni 0.2500 0.7500 0.0000
C7 C 0.4042(2) 0.7868(4) 0.0045(4)
H9 H 0.4040 0.7043 0.0020
C8 C 0.4647(2) 0.8440(4) 0.0020(4)
H10 H 0.5039 0.7999 -0.0008
C9 C 0.4679(2) 0.9674(4) 0.0036(3)
C10 C 0.4073(2) 1.0243(4) 0.0111(4)
H11 H 0.4062 1.1068 0.0136
C11 C 0.3485(3) 0.9609(4) 0.0150(4)
H12 H 0.3089 1.0027 0.0212
N3 N 0.34535(19) 0.8425(3) 0.0103(3)
O3 O 0.28873(16) 0.6156(3) 0.0758(2)
H13 H 0.2607 0.5889 0.1065
H14 H 0.3178 0.5733 0.0572
O4 O 0.22177(17) 0.8281(3) 0.1133(2)
H15 H 0.2404 0.8023 0.1587
H16 H 0.2164 0.9004 0.1124
Ni2A Ni 0.7500 1.2500 0.0000
C7D C 0.5958(2) 1.2132(4) -0.0045(4)
H9D H 0.5960 1.2957 -0.0020
C8D C 0.5353(2) 1.1560(4) -0.0020(4)
H10D H 0.4961 1.2001 0.0008
C9D C 0.5321(2) 1.0326(4) -0.0036(3)
C10D C 0.5927(2) 0.9757(4) -0.0111(4)
H11D H 0.5938 0.8932 -0.0136
C11D C 0.6515(3) 1.0391(4) -0.0150(4)
H12D H 0.6911 0.9973 -0.0212
N3D N 0.65465(19) 1.1575(3) -0.0103(3)
N3E N 0.15465(19) 0.6575(3) -0.0103(3)
O3E O 0.21127(16) 0.8844(3) -0.0758(2)
H13E H 0.2393 0.9111 -0.1065
H14E H 0.1822 0.9267 -0.0572
O4E O 0.27823(17) 0.6719(3) -0.1133(2)
H15E H 0.2596 0.6977 -0.1587
H16E H 0.2836 0.5996 -0.1124
C12 C 0.3744(2) 0.6198(4) 0.4903(3)
C13 C 0.3084(2) 0.6834(4) 0.4943(3)
C14 C 0.2677(2) 0.7106(4) 0.4196(3)
C15 C 0.2901(2) 0.7217(4) 0.5740(3)
H17 H 0.3169 0.7018 0.6240
C16 C 0.2824(2) 0.6672(4) 0.3316(3)
O5 O 0.29789(17) 0.5588(3) 0.3248(2)
O6 O 0.41424(15) 0.6590(3) 0.4402(2)
O7 O 0.38591(15) 0.5321(3) 0.5407(2)
O8 O 0.2783(2) 0.7408(3) 0.2717(2)
C12E C 0.1256(2) 0.8802(4) 0.5097(3)
C13E C 0.1916(2) 0.8166(4) 0.5057(3)
C14E C 0.2323(2) 0.7894(4) 0.5804(3)
C15E C 0.2099(2) 0.7783(4) 0.4260(3)
H17E H 0.1831 0.7982 0.3760
C16E C 0.2176(2) 0.8328(4) 0.6684(3)
O5E O 0.20211(17) 0.9412(3) 0.6752(2)
O6E O 0.08576(15) 0.8410(3) 0.5598(2)
O7E O 0.11409(15) 0.9679(3) 0.4593(2)
O8E O 0.2217(2) 0.7592(3) 0.7283(2)
O9 O 0.2118(2) 0.4904(4) 0.1809(3)
H18 H 0.2020 0.4239 0.1974
H19 H 0.2277 0.5027 0.2307
loop_
_geom_bond_atom_site_label_1
_geom_bond_atom_site_label_2
_geom_bond_site_symmetry_1
_geom_bond_site_symmetry_2
Ni1 N1 1_555 1_555
C1 H1 1_555 1_555
C2 C1 1_555 1_555
H2 C2 1_555 1_555
C3 C2 1_555 1_555
C4 C3 1_555 1_555
C5 C4 1_555 1_555
H3 C5 1_555 1_555
C6 C5 1_555 1_555
H4 C6 1_555 1_555
N1 C1 1_555 1_555
N2 C6 1_555 1_555
O1 Ni1 1_555 1_555
H5 O1 1_555 1_555
H6 O1 1_555 1_555
O2 Ni1 1_555 1_555
H7 O2 1_555 1_555
H8 O2 1_555 1_555
Ni2 N3 1_555 1_555
C7 H9 1_555 1_555
C8 C7 1_555 1_555
H10 C8 1_555 1_555
C9 C8 1_555 1_555
C10 C9 1_555 1_555
H11 C10 1_555 1_555
C11 C10 1_555 1_555
H12 C11 1_555 1_555
N3 C7 1_555 1_555
O3 Ni2 1_555 1_555
H13 O3 1_555 1_555
H14 O3 1_555 1_555
O4 Ni2 1_555 1_555
H15 O4 1_555 1_555
H16 O4 1_555 1_555
C12 C13 1_555 1_555
C13 C14 1_555 1_555
C14 C16 1_555 1_555
C15 C13 1_555 1_555
H17 C15 1_555 1_555
C16 O5 1_555 1_555
O6 C12 1_555 1_555
O7 C12 1_555 1_555
O8 C16 1_555 1_555
O9 H18 1_555 1_555
H19 O9 1_555 1_555
Ni1_2 N2 1_555 1_555
C1B N1 1_555 1_555
H1B C1B 1_555 1_555
C2B C3 1_555 1_555
H2B C2B 1_555 1_555
C5B C4 1_555 1_555
H3B C5B 1_555 1_555
C6B N2 1_555 1_555
H4B C6B 1_555 1_555
N2_2 Ni1 1_555 1_555
O1B Ni1 1_555 1_555
H5B O1B 1_555 1_555
H6B O1B 1_555 1_555
O2B Ni1 1_555 1_555
H7B O2B 1_555 1_555
H8B O2B 1_555 1_555
Ni2A N3D 1_555 1_555
C7D H9D 1_555 1_555
C8D C7D 1_555 1_555
H10D C8D 1_555 1_555
C9D C9 1_555 1_555
C10D C9D 1_555 1_555
H11D C10D 1_555 1_555
C11D C10D 1_555 1_555
H12D C11D 1_555 1_555
N3D C7D 1_555 1_555
N3E Ni2 1_555 1_555
O3E Ni2 1_555 1_555
H13E O3E 1_555 1_555
H14E O3E 1_555 1_555
O4E Ni2 1_555 1_555
H15E O4E 1_555 1_555
H16E O4E 1_555 1_555
C12E C13E 1_555 1_555
C13E C14E 1_555 1_555
C14E C15 1_555 1_555
C15E C14 1_555 1_555
H17E C15E 1_555 1_555
C16E C14E 1_555 1_555
O5E C16E 1_555 1_555
O6E C12E 1_555 1_555
O7E C12E 1_555 1_555
O8E C16E 1_555 1_555
C11 N3 1_555 1_555
C1B C2B 1_555 1_555
C5B C6B 1_555 1_555
C8D C9D 1_555 1_555
C11D N3D 1_555 1_555
C13E C15E 1_555 1_555

#END
