
#######################################################################
#
#                 Cambridge Crystallographic Data Centre
#                                CCDC 
#
#######################################################################
#
# If this CIF has been generated from an entry in the Cambridge 
# Structural Database, then it will include bibliographic, chemical, 
# crystal, experimental, refinement or atomic coordinate data resulting 
# from the CCDC's data processing and validation procedures.
#
#######################################################################

data_SEFPUP
_symmetry_cell_setting           triclinic
_symmetry_space_group_name_H-M   'P -1'
_symmetry_Int_Tables_number      2
_space_group_name_Hall           '-P 1'
loop_
_symmetry_equiv_pos_site_id
_symmetry_equiv_pos_as_xyz
1 x,y,z
2 -x,-y,-z
_cell_length_a                   11.378(2)
_cell_length_b                   12.208(2)
_cell_length_c                   14.342(3)
_cell_angle_alpha                95.01(3)
_cell_angle_beta                 103.48(3)
_cell_angle_gamma                100.86(3)
_cell_volume                     1884.51
loop_
_atom_site_label
_atom_site_type_symbol
_atom_site_fract_x
_atom_site_fract_y
_atom_site_fract_z
Eu1 Eu 0.70698(2) 0.636245(18) 0.110594(15)
Eu2 Eu 0.895394(19) 0.834484(17) 0.365600(15)
O1 O 0.8475(3) 0.6254(3) 0.2585(3)
O2 O 0.9030(4) 0.6473(3) 0.4173(3)
O3 O 0.7946(3) -0.1614(3) 0.1947(2)
O4 O 0.7433(4) -0.1914(3) 0.0356(2)
O5 O 0.5968(4) 0.6403(3) 0.2298(3)
O6 O 0.6917(3) 0.7552(3) 0.3667(3)
O7 O 0.0653(3) 0.1370(3) 0.4696(2)
O8 O 0.0147(3) 0.0046(3) 0.3423(2)
O9 O 0.6442(4) 0.4435(3) 0.1023(3)
O10 O 0.5078(3) 0.3753(3) -0.0391(2)
O11 O 1.0904(3) 0.8058(3) 0.3576(3)
O12 O 1.1067(4) 0.7869(6) 0.2063(3)
O13 O 0.6756(4) 0.5713(4) -0.0621(3)
O14 O 0.9081(4) 0.6428(5) 0.0870(3)
O15 O 0.7906(4) 0.9880(3) 0.3940(3)
N1 N 0.8413(4) 0.2305(3) 0.3466(3)
N2 N 0.8724(5) 0.2293(4) 0.1019(3)
N3 N 0.3280(5) 0.5137(4) 0.4444(3)
N4 N 0.2692(5) 0.3173(4) 0.2284(3)
N5 N 0.4982(5) 0.0350(4) 0.1242(3)
N6 N 1.5423(4) 0.9563(4) 0.3909(3)
C1 C 0.8494(5) 0.2732(4) 0.2635(3)
C2 C 0.8606(5) 0.3878(4) 0.2575(4)
C3 C 0.8640(4) 0.4607(4) 0.3384(3)
C4 C 0.8586(5) 0.4170(4) 0.4239(3)
C5 C 0.8463(5) 0.3024(4) 0.4244(4)
C6 C 0.8727(4) 0.5852(4) 0.3379(3)
C7 C 0.8446(5) 0.1903(4) 0.1800(4)
C8 C 0.8136(5) 0.0753(4) 0.1845(4)
C9 C 0.8146(5) -0.0020(4) 0.1076(3)
C10 C 0.8401(7) 0.0394(5) 0.0256(4)
C11 C 0.8696(7) 0.1540(5) 0.0269(4)
C12 C 0.7829(4) -0.1246(4) 0.1124(3)
C13 C 0.3460(5) 0.4673(4) 0.3619(3)
C14 C 0.4339(5) 0.5193(4) 0.3191(4)
C15 C 0.5102(4) 0.6225(4) 0.3624(3)
C16 C 0.4941(5) 0.6695(4) 0.4474(4)
C17 C 0.4016(6) 0.6132(5) 0.4848(4)
C18 C 0.6070(5) 0.6767(4) 0.3161(4)
C19 C 0.2672(5) 0.3535(4) 0.3192(4)
C20 C 0.2022(5) 0.2867(4) 0.3718(4)
C21 C 0.1410(4) 0.1780(4) 0.3329(3)
C22 C 0.1454(6) 0.1383(5) 0.2396(4)
C23 C 0.2071(6) 0.2128(5) 0.1901(4)
H1 H 0.2050 0.1885 0.1263
C24 C 0.0688(4) 0.1006(4) 0.3863(3)
C25 C 0.5084(5) 0.0515(4) 0.0346(4)
C26 C 0.5298(5) 0.1568(4) 0.0065(4)
C27 C 0.5480(5) 0.2508(4) 0.0750(4)
C28 C 0.5409(6) 0.2350(4) 0.1673(4)
C29 C 0.5149(7) 0.1281(5) 0.1888(4)
C30 C 0.5681(5) 0.3653(4) 0.0437(4)
C31 C 1.4681(4) 0.9685(4) 0.4504(3)
C32 C 1.3417(5) 0.9227(5) 0.4218(4)
C33 C 1.2880(5) 0.8646(4) 0.3289(4)
C34 C 1.3648(5) 0.8534(5) 0.2665(4)
C35 C 1.4899(5) 0.8998(5) 0.3021(4)
C36 C 1.1506(5) 0.8145(5) 0.2953(4)
H2 H 0.870(5) 0.417(4) 0.197(4)
H3 H 0.854(6) 0.470(5) 0.491(5)
H4 H 0.835(4) 0.271(4) 0.481(4)
H5 H 0.779(5) 0.047(5) 0.232(4)
H6 H 0.837(6) -0.012(6) -0.023(5)
H7 H 0.887(6) 0.183(5) -0.024(5)
H8 H 0.435(5) 0.495(4) 0.273(4)
H9 H 0.534(5) 0.727(5) 0.476(4)
H10 H 0.399(7) 0.635(6) 0.545(5)
H11 H 0.200(4) 0.310(4) 0.427(4)
H12 H 0.097(5) 0.060(5) 0.210(4)
H13 H 0.539(7) 0.171(6) -0.051(6)
H14 H 0.551(7) 0.295(6) 0.213(5)
H15 H 0.481(6) 0.114(5) 0.248(5)
H16 H 1.307(6) 0.937(5) 0.462(5)
H17 H 1.331(5) 0.814(5) 0.205(4)
H18 H 1.538(6) 0.892(5) 0.259(5)
H19 H 0.638(5) 0.529(4) -0.086(4)
H20 H 0.964(5) 0.678(5) 0.119(4)
H21 H 0.823(6) 1.051(6) 0.394(5)
H22 H 0.717(7) 0.978(6) 0.401(5)
Eu1_2 Eu 0.70698(2) 1.636245(18) 0.110594(15)
Eu1_3 Eu 0.70698(2) -0.363755(18) 0.110594(15)
Eu1A Eu 0.29302(2) 0.363755(18) -0.110594(15)
Eu1A_2 Eu 0.29302(2) -0.636245(18) -0.110594(15)
Eu1A_3 Eu 0.29302(2) 0.363755(18) 0.889406(15)
Eu2_2 Eu 0.895394(19) 1.834484(17) 0.365600(15)
Eu2_3 Eu 0.895394(19) -0.165516(17) 0.365600(15)
Eu2A Eu 0.104606(19) 0.165516(17) 0.634400(15)
Eu2_4 Eu -0.104606(19) -0.165516(17) 0.365600(15)
Eu2A_2 Eu 2.104606(19) 1.165516(17) 0.634400(15)
Eu2A_3 Eu 1.104606(19) 1.165516(17) 0.634400(15)
O1_2 O 0.8475(3) 1.6254(3) 0.2585(3)
O2_2 O 0.9030(4) 1.6473(3) 0.4173(3)
O3_2 O 0.7946(3) 0.8386(3) 0.1947(2)
O3_3 O 0.7946(3) 1.8386(3) 0.1947(2)
O4_2 O 0.7433(4) 0.8086(3) 0.0356(2)
O4_3 O 0.7433(4) 1.8086(3) 0.0356(2)
O5A O 0.4032(4) 0.3597(3) 0.7702(3)
O5_2 O 0.5968(4) 1.6403(3) 0.2298(3)
O6A O 0.3083(3) 0.2448(3) 0.6333(3)
O6_2 O 0.6917(3) 1.7552(3) 0.3667(3)
O7A O 0.9347(3) 0.8630(3) 0.5304(2)
O7A_2 O 0.9347(3) 1.8630(3) 0.5304(2)
O8A O 0.9853(3) 0.9954(3) 0.6577(2)
O8_2 O 1.0147(3) 1.0046(3) 0.3423(2)
O8_3 O 1.0147(3) 2.0046(3) 0.3423(2)
O9A O 0.3558(4) -0.4435(3) -0.1023(3)
O9_2 O 0.6442(4) 1.4435(3) 0.1023(3)
O10A O 0.4922(3) -0.3753(3) 0.0391(2)
O10A_2 O 0.4922(3) 0.6247(3) 0.0391(2)
O10A_3 O 0.4922(3) 1.6247(3) 0.0391(2)
O11A O 1.9096(3) 1.1942(3) 0.6424(3)
O11_2 O 1.0904(3) 1.8058(3) 0.3576(3)
O12A O 1.8933(4) 1.2131(6) 0.7937(3)
O13_2 O 0.6756(4) 1.5713(4) -0.0621(3)
O14_2 O 0.9081(4) 1.6428(5) 0.0870(3)
O15_2 O 0.7906(4) 1.9880(3) 0.3940(3)
N1_2 N 0.8413(4) 1.2305(3) 0.3466(3)
N2_2 N 0.8724(5) 1.2293(4) 0.1019(3)
N3A N 0.6720(5) 0.4863(4) 0.5556(3)
N4A N 0.7308(5) 0.6827(4) 0.7716(3)
N5A N 0.5018(5) -0.0350(4) -0.1242(3)
N6A N 1.4577(4) 1.0437(4) 0.6091(3)
C1_2 C 0.8494(5) 1.2732(4) 0.2635(3)
C2_2 C 0.8606(5) 1.3878(4) 0.2575(4)
C3_2 C 0.8640(4) 1.4607(4) 0.3384(3)
C4_2 C 0.8586(5) 1.4170(4) 0.4239(3)
C5_2 C 0.8463(5) 1.3024(4) 0.4244(4)
C6_2 C 0.8727(4) 1.5852(4) 0.3379(3)
C7_2 C 0.8446(5) 1.1903(4) 0.1800(4)
C8_2 C 0.8136(5) 1.0753(4) 0.1845(4)
C9_2 C 0.8146(5) 0.9980(4) 0.1076(3)
C10_2 C 0.8401(7) 1.0394(5) 0.0256(4)
C11_2 C 0.8696(7) 1.1540(5) 0.0269(4)
C12_2 C 0.7829(4) 0.8754(4) 0.1124(3)
C13A C 0.6540(5) 0.5327(4) 0.6381(3)
C14A C 0.5661(5) 0.4807(4) 0.6809(4)
C15A C 0.4898(4) 0.3775(4) 0.6376(3)
C16A C 0.5059(5) 0.3305(4) 0.5526(4)
C17A C 0.5984(6) 0.3868(5) 0.5152(4)
C18A C 0.3930(5) 0.3233(4) 0.6839(4)
C19A C 0.7328(5) 0.6465(4) 0.6808(4)
C20A C 0.7978(5) 0.7133(4) 0.6282(4)
C21A C 0.8590(4) 0.8220(4) 0.6671(3)
C22A C 0.8546(6) 0.8617(5) 0.7604(4)
C23A C 0.7929(6) 0.7872(5) 0.8099(4)
H1A H 0.7950 0.8115 0.8737
C24A C 0.9312(4) 0.8994(4) 0.6137(3)
C25A C 0.4916(5) -0.0515(4) -0.0346(4)
C26A C 0.4702(5) -0.1568(4) -0.0065(4)
C27A C 0.4520(5) -0.2508(4) -0.0750(4)
C28A C 0.4591(6) -0.2350(4) -0.1673(4)
C29A C 0.4851(7) -0.1281(5) -0.1888(4)
C30A C 0.4319(5) -0.3653(4) -0.0437(4)
C31A C 1.5319(4) 1.0315(4) 0.5496(3)
C32A C 1.6583(5) 1.0773(5) 0.5782(4)
C33A C 1.7120(5) 1.1354(4) 0.6711(4)
C34A C 1.6352(5) 1.1466(5) 0.7335(4)
C35A C 1.5101(5) 1.1002(5) 0.6979(4)
C36A C 1.8494(5) 1.1855(5) 0.7047(4)
H2_2 H 0.870(5) 1.417(4) 0.197(4)
H3_2 H 0.854(6) 1.470(5) 0.491(5)
H4_2 H 0.835(4) 1.271(4) 0.481(4)
H5_2 H 0.779(5) 1.047(5) 0.232(4)
H6_2 H 0.837(6) 0.988(6) -0.023(5)
H7_2 H 0.887(6) 1.183(5) -0.024(5)
H8A H 0.565(5) 0.505(4) 0.727(4)
H9A H 0.466(5) 0.273(5) 0.524(4)
H10A H 0.601(7) 0.365(6) 0.455(5)
H11A H 0.800(4) 0.690(4) 0.573(4)
H12A H 0.903(5) 0.940(5) 0.790(4)
H13A H 0.461(7) -0.171(6) 0.051(6)
H14A H 0.449(7) -0.295(6) -0.213(5)
H15A H 0.519(6) -0.114(5) -0.248(5)
H16A H 1.693(6) 1.063(5) 0.538(5)
H17A H 1.669(5) 1.186(5) 0.795(4)
H18A H 1.462(6) 1.108(5) 0.741(5)
H19_2 H 0.638(5) 1.529(4) -0.086(4)
H20_2 H 0.964(5) 1.678(5) 0.119(4)
H21_2 H 0.823(6) 2.051(6) 0.394(5)
H22_2 H 0.717(7) 1.978(6) 0.401(5)
O16 O 0.9645(8) 0.5795(5) 0.9236(5)
H23 H 1.016(12) 0.610(11) 0.903(10)
loop_
_geom_bond_atom_site_label_1
_geom_bond_atom_site_label_2
_geom_bond_site_symmetry_1
_geom_bond_site_symmetry_2
Eu1 O1 1_555 1_555
Eu2 O1 1_555 1_555
O1 C6 1_555 1_555
O2 Eu2 1_555 1_555
O3 C12 1_555 1_555
O4 C12 1_555 1_555
O5 Eu1 1_555 1_555
O6 Eu2 1_555 1_555
O7 C24 1_555 1_555
O8 C24 1_555 1_555
O9 Eu1 1_555 1_555
O10 C30 1_555 1_555
O11 Eu2 1_555 1_555
O12 C36 1_555 1_555
O13 Eu1 1_555 1_555
O14 Eu1 1_555 1_555
O15 Eu2 1_555 1_555
O16 H23 1_555 1_555
N1 C1 1_555 1_555
N2 C7 1_555 1_555
N3 C13 1_555 1_555
N4 C19 1_555 1_555
N5 C25 1_555 1_555
N6 C31 1_555 1_555
C1 C2 1_555 1_555
C2 C3 1_555 1_555
C3 C4 1_555 1_555
C4 C5 1_555 1_555
C5 N1 1_555 1_555
C6 O2 1_555 1_555
C7 C1 1_555 1_555
C8 C7 1_555 1_555
C9 C8 1_555 1_555
C10 C9 1_555 1_555
C11 N2 1_555 1_555
C12 C9 1_555 1_555
C13 C14 1_555 1_555
C14 C15 1_555 1_555
C15 C16 1_555 1_555
C16 C17 1_555 1_555
C17 N3 1_555 1_555
C18 O5 1_555 1_555
C19 C13 1_555 1_555
C20 C19 1_555 1_555
C21 C20 1_555 1_555
C22 C21 1_555 1_555
C23 N4 1_555 1_555
H1 C23 1_555 1_555
C24 C21 1_555 1_555
C25 C26 1_555 1_555
C26 C27 1_555 1_555
C27 C28 1_555 1_555
C28 C29 1_555 1_555
C29 N5 1_555 1_555
C30 O9 1_555 1_555
C31 C32 1_555 1_555
C32 C33 1_555 1_555
C33 C34 1_555 1_555
C34 C35 1_555 1_555
C35 N6 1_555 1_555
C36 O11 1_555 1_555
H2 C2 1_555 1_555
H3 C4 1_555 1_555
H4 C5 1_555 1_555
H5 C8 1_555 1_555
H6 C10 1_555 1_555
H7 C11 1_555 1_555
H8 C14 1_555 1_555
H9 C16 1_555 1_555
H10 C17 1_555 1_555
H11 C20 1_555 1_555
H12 C22 1_555 1_555
H13 C26 1_555 1_555
H14 C28 1_555 1_555
H15 C29 1_555 1_555
H16 C32 1_555 1_555
H17 C34 1_555 1_555
H18 C35 1_555 1_555
H19 O13 1_555 1_555
H20 O14 1_555 1_555
H21 O15 1_555 1_555
H22 O15 1_555 1_555
Eu1_2 O1_2 1_555 1_555
Eu1_3 O3 1_555 1_555
Eu1A O10 1_555 1_555
Eu1A_2 O9A 1_555 1_555
Eu1A_3 O5A 1_555 1_555
Eu2_2 O1_2 1_555 1_555
Eu2_3 O3 1_555 1_555
Eu2A O7 1_555 1_555
Eu2_4 O8 1_555 1_555
Eu2A_2 O11A 1_555 1_555
Eu2A_3 O8A 1_555 1_555
O1_2 C6_2 1_555 1_555
O2_2 Eu2_2 1_555 1_555
O3_2 Eu1 1_555 1_555
O3_3 Eu1_2 1_555 1_555
O4_2 Eu1 1_555 1_555
O4_3 Eu1_2 1_555 1_555
O5A C18A 1_555 1_555
O5_2 Eu1_2 1_555 1_555
O6A Eu2A 1_555 1_555
O6_2 Eu2_2 1_555 1_555
O7A Eu2 1_555 1_555
O7A_2 Eu2_2 1_555 1_555
O8A C24A 1_555 1_555
O8_2 Eu2 1_555 1_555
O8_3 Eu2_2 1_555 1_555
O9A C30A 1_555 1_555
O9_2 Eu1_2 1_555 1_555
O10A Eu1_3 1_555 1_555
O10A_2 Eu1 1_555 1_555
O10A_3 Eu1_2 1_555 1_555
O11A C36A 1_555 1_555
O11_2 Eu2_2 1_555 1_555
O12A C36A 1_555 1_555
O13_2 Eu1_2 1_555 1_555
O14_2 Eu1_2 1_555 1_555
O15_2 Eu2_2 1_555 1_555
N1_2 C1_2 1_555 1_555
N2_2 C7_2 1_555 1_555
N3A C13A 1_555 1_555
N4A C19A 1_555 1_555
N5A C25A 1_555 1_555
N6A C31A 1_555 1_555
C1_2 C2_2 1_555 1_555
C2_2 C3_2 1_555 1_555
C3_2 C4_2 1_555 1_555
C4_2 C5_2 1_555 1_555
C5_2 N1_2 1_555 1_555
C6_2 O2_2 1_555 1_555
C7_2 C1_2 1_555 1_555
C8_2 C7_2 1_555 1_555
C9_2 C8_2 1_555 1_555
C10_2 C9_2 1_555 1_555
C11_2 N2_2 1_555 1_555
C12_2 O3_2 1_555 1_555
C13A C14A 1_555 1_555
C14A C15A 1_555 1_555
C15A C16A 1_555 1_555
C16A C17A 1_555 1_555
C17A N3A 1_555 1_555
C18A O6A 1_555 1_555
C19A C13A 1_555 1_555
C20A C19A 1_555 1_555
C21A C20A 1_555 1_555
C22A C21A 1_555 1_555
C23A N4A 1_555 1_555
H1A C23A 1_555 1_555
C24A O7A 1_555 1_555
C25A C25 1_555 1_555
C26A C25A 1_555 1_555
C27A C26A 1_555 1_555
C28A C27A 1_555 1_555
C29A N5A 1_555 1_555
C30A O10A 1_555 1_555
C31A C31 1_555 1_555
C32A C31A 1_555 1_555
C33A C32A 1_555 1_555
C34A C33A 1_555 1_555
C35A N6A 1_555 1_555
C36A C33A 1_555 1_555
H2_2 C2_2 1_555 1_555
H3_2 C4_2 1_555 1_555
H4_2 C5_2 1_555 1_555
H5_2 C8_2 1_555 1_555
H6_2 C10_2 1_555 1_555
H7_2 C11_2 1_555 1_555
H8A C14A 1_555 1_555
H9A C16A 1_555 1_555
H10A C17A 1_555 1_555
H11A C20A 1_555 1_555
H12A C22A 1_555 1_555
H13A C26A 1_555 1_555
H14A C28A 1_555 1_555
H15A C29A 1_555 1_555
H16A C32A 1_555 1_555
H17A C34A 1_555 1_555
H18A C35A 1_555 1_555
H19_2 O13_2 1_555 1_555
H20_2 O14_2 1_555 1_555
H21_2 O15_2 1_555 1_555
H22_2 O15_2 1_555 1_555
Eu2 O3_2 1_555 1_555
O4 Eu1_3 1_555 1_555
O6 C18 1_555 1_555
C3 C6 1_555 1_555
C10 C11 1_555 1_555
C15 C18 1_555 1_555
C22 C23 1_555 1_555
C27 C30 1_555 1_555
C33 C36 1_555 1_555
Eu2_2 O3_3 1_555 1_555
O4_2 C12_2 1_555 1_555
C3_2 C6_2 1_555 1_555
C9_2 C12_2 1_555 1_555
C10_2 C11_2 1_555 1_555
C15A C18A 1_555 1_555
C21A C24A 1_555 1_555
C22A C23A 1_555 1_555
C27A C30A 1_555 1_555
C28A C29A 1_555 1_555
C34A C35A 1_555 1_555

#END
