
#######################################################################
#
#                 Cambridge Crystallographic Data Centre
#                                CCDC 
#
#######################################################################
#
# If this CIF has been generated from an entry in the Cambridge 
# Structural Database, then it will include bibliographic, chemical, 
# crystal, experimental, refinement or atomic coordinate data resulting 
# from the CCDC's data processing and validation procedures.
#
#######################################################################

data_SEFPOJ
_symmetry_cell_setting           triclinic
_symmetry_space_group_name_H-M   'P -1'
_symmetry_Int_Tables_number      2
_space_group_name_Hall           '-P 1'
loop_
_symmetry_equiv_pos_site_id
_symmetry_equiv_pos_as_xyz
1 x,y,z
2 -x,-y,-z
_cell_length_a                   11.368(2)
_cell_length_b                   12.223(2)
_cell_length_c                   14.362(3)
_cell_angle_alpha                95.16(3)
_cell_angle_beta                 103.38(3)
_cell_angle_gamma                100.60(3)
_cell_volume                     1889.91
loop_
_atom_site_label
_atom_site_type_symbol
_atom_site_fract_x
_atom_site_fract_y
_atom_site_fract_z
Sm1 Sm 0.79266(2) 0.363765(18) 0.389389(15)
Sm2 Sm 0.60402(2) 0.165178(17) 0.134099(15)
O1 O 0.6522(3) 0.3753(3) 0.2411(2)
O2 O 0.5964(3) 0.3528(3) 0.0825(2)
O3 O 0.7052(3) 1.1605(2) 0.3057(2)
O4 O 0.7550(4) 1.1910(3) 0.4640(2)
O5 O 0.9032(3) 0.3593(3) 0.2701(2)
O6 O 0.8094(3) 0.2449(3) 0.1333(2)
O7 O 1.4332(3) 0.8619(3) 0.0311(2)
O8 O 1.4833(3) 0.9944(3) 0.1579(2)
O9 O 0.8551(3) 0.5575(3) 0.3980(3)
O10 O 0.9914(3) 0.6247(3) 0.5390(2)
O11 O 0.4084(3) 0.1943(3) 0.1421(3)
O12 O 0.3917(4) 0.2144(5) 0.2929(3)
O13 O 0.8238(4) 0.4288(4) 0.5624(3)
O14 O 0.5899(4) 0.3569(5) 0.4133(3)
O15 O 0.7085(3) 0.0096(3) 0.1057(3)
N1 N 0.6586(4) 0.7701(3) 0.1538(3)
N2 N 0.6279(5) 0.7707(3) 0.3985(3)
N3 N 1.1720(4) 0.4867(3) 0.0556(3)
N4 N 1.2302(4) 0.6822(4) 0.2725(3)
N5 N 1.0011(5) 0.9645(3) 0.3758(3)
N6 N -0.0429(4) 0.0435(3) 0.1091(3)
C1 C 0.6497(4) 0.7266(4) 0.2356(3)
C2 C 0.6392(4) 0.6124(4) 0.2419(3)
C3 C 0.6358(4) 0.5391(4) 0.1617(3)
C4 C 0.6416(5) 0.5836(4) 0.0764(4)
C5 C 0.6537(5) 0.6985(4) 0.0761(3)
C6 C 0.6271(4) 0.4146(4) 0.1618(3)
C7 C 0.6544(5) 0.8100(4) 0.3203(3)
C8 C 0.6861(5) 0.9249(4) 0.3157(3)
C9 C 0.6850(5) 1.0010(4) 0.3919(3)
C10 C 0.6595(6) 0.9596(5) 0.4730(4)
C11 C 0.6298(7) 0.8454(5) 0.4728(4)
C12 C 0.7167(4) 1.1244(4) 0.3879(3)
C13 C 1.1546(4) 0.5327(4) 0.1384(3)
C14 C 1.0659(5) 0.4805(4) 0.1810(3)
C15 C 0.9898(4) 0.3786(4) 0.1379(3)
C16 C 1.0064(5) 0.3313(4) 0.0523(4)
C17 C 1.0977(5) 0.3865(4) 0.0146(4)
C18 C 0.8937(4) 0.3232(4) 0.1833(3)
C19 C 1.2322(4) 0.6466(4) 0.1815(3)
C20 C 1.2959(5) 0.7132(4) 0.1274(3)
C21 C 1.3585(4) 0.8217(4) 0.1686(3)
C22 C 1.3541(5) 0.8596(4) 0.2613(4)
C23 C 1.2918(6) 0.7864(5) 0.3104(4)
C24 C 1.4299(4) 0.8989(4) 0.1143(3)
C25 C 0.9921(5) 0.9485(4) 0.4657(3)
C26 C 0.9678(5) 0.8432(4) 0.4925(4)
C27 C 0.9524(4) 0.7497(4) 0.4257(3)
C28 C 0.9587(6) 0.7657(4) 0.3336(4)
C29 C 0.9856(7) 0.8726(5) 0.3128(4)
C30 C 0.9318(5) 0.6354(4) 0.4556(4)
C31 C 0.0305(4) 0.0324(4) 0.0489(3)
C32 C 0.1581(5) 0.0773(4) 0.0787(4)
C33 C 0.2108(4) 0.1350(4) 0.1705(4)
C34 C 0.1344(5) 0.1447(5) 0.2324(4)
C35 C 0.0090(5) 0.0994(4) 0.1982(4)
C36 C 0.3479(5) 0.1865(5) 0.2049(4)
H1 H 0.633(4) 0.586(4) 0.299(3)
H2 H 0.645(5) 0.544(5) 0.024(4)
H3 H 0.654(4) 0.736(4) 0.018(3)
H4 H 0.702(4) 0.951(4) 0.259(4)
H5 H 0.660(5) 1.005(5) 0.520(4)
H6 H 0.611(7) 0.816(6) 0.522(5)
H7 H 1.062(4) 0.516(4) 0.235(4)
H8 H 0.956(5) 0.270(4) 0.019(4)
H9 H 1.114(5) 0.365(4) -0.044(4)
H10 H 1.302(5) 0.692(4) 0.071(4)
H11 H 1.398(5) 0.934(5) 0.291(4)
H12 H 1.286(6) 0.815(5) 0.378(5)
H13 H 0.977(5) 0.842(4) 0.541(4)
H14 H 0.949(5) 0.708(5) 0.289(4)
H15 H 0.985(5) 0.882(4) 0.255(4)
H16 H 0.202(5) 0.070(4) 0.037(4)
H17 H 0.162(5) 0.179(5) 0.297(4)
H18 H -0.048(5) 0.106(4) 0.240(4)
H19 H 0.865(5) 0.488(4) 0.579(3)
H20 H 0.799(7) 0.408(7) 0.602(6)
H21 H 0.536(9) 0.321(8) 0.385(7)
H22 H 0.785(5) 0.015(4) 0.100(3)
H23 H 0.675(7) -0.053(6) 0.102(6)
Sm1_2 Sm 0.79266(2) -0.636235(18) 0.389389(15)
Sm1_3 Sm 0.79266(2) 1.363765(18) 0.389389(15)
Sm1A Sm 1.20734(2) 0.636235(18) 0.610611(15)
Sm1A_2 Sm 1.20734(2) 1.636235(18) 0.610611(15)
Sm1A_3 Sm 1.20734(2) 0.636235(18) -0.389389(15)
Sm2_2 Sm 0.60402(2) -0.834822(17) 0.134099(15)
Sm2_3 Sm 0.60402(2) 1.165178(17) 0.134099(15)
Sm2A Sm 1.39598(2) 0.834822(17) -0.134099(15)
Sm2_4 Sm 1.60402(2) 1.165178(17) 0.134099(15)
Sm2A_2 Sm -0.60402(2) -0.165178(17) -0.134099(15)
Sm2A_3 Sm 0.39598(2) -0.165178(17) -0.134099(15)
O1_2 O 0.6522(3) -0.6247(3) 0.2411(2)
O2_2 O 0.5964(3) -0.6472(3) 0.0825(2)
O3_2 O 0.7052(3) 0.1605(2) 0.3057(2)
O3_3 O 0.7052(3) -0.8395(2) 0.3057(2)
O4_2 O 0.7550(4) 0.1910(3) 0.4640(2)
O4_3 O 0.7550(4) -0.8090(3) 0.4640(2)
O5A O 1.0968(3) 0.6407(3) -0.2701(2)
O5_2 O 0.9032(3) -0.6407(3) 0.2701(2)
O6A O 1.1906(3) 0.7551(3) -0.1333(2)
O6_2 O 0.8094(3) -0.7551(3) 0.1333(2)
O7A O 0.5668(3) 0.1381(3) -0.0311(2)
O7A_2 O 0.5668(3) -0.8619(3) -0.0311(2)
O8A O 0.5167(3) 0.0056(3) -0.1579(2)
O8_2 O 0.4833(3) -0.0056(3) 0.1579(2)
O8_3 O 0.4833(3) -1.0056(3) 0.1579(2)
O9A O 1.1449(3) 1.4425(3) 0.6020(3)
O9_2 O 0.8551(3) -0.4425(3) 0.3980(3)
O10A O 1.0086(3) 1.3753(3) 0.4610(2)
O10A_2 O 1.0086(3) 0.3753(3) 0.4610(2)
O10A_3 O 1.0086(3) -0.6247(3) 0.4610(2)
O11A O -0.4084(3) -0.1943(3) -0.1421(3)
O11_2 O 0.4084(3) -0.8057(3) 0.1421(3)
O12A O -0.3917(4) -0.2144(5) -0.2929(3)
O13_2 O 0.8238(4) -0.5712(4) 0.5624(3)
O14_2 O 0.5899(4) -0.6431(5) 0.4133(3)
O15_2 O 0.7085(3) -0.9904(3) 0.1057(3)
N1_2 N 0.6586(4) -0.2299(3) 0.1538(3)
N2_2 N 0.6279(5) -0.2293(3) 0.3985(3)
N3A N 0.8280(4) 0.5133(3) -0.0556(3)
N4A N 0.7698(4) 0.3178(4) -0.2725(3)
N5A N 0.9989(5) 1.0355(3) 0.6242(3)
N6A N 0.0429(4) -0.0435(3) -0.1091(3)
C1_2 C 0.6497(4) -0.2734(4) 0.2356(3)
C2_2 C 0.6392(4) -0.3876(4) 0.2419(3)
C3_2 C 0.6358(4) -0.4609(4) 0.1617(3)
C4_2 C 0.6416(5) -0.4164(4) 0.0764(4)
C5_2 C 0.6537(5) -0.3015(4) 0.0761(3)
C6_2 C 0.6271(4) -0.5854(4) 0.1618(3)
C7_2 C 0.6544(5) -0.1900(4) 0.3203(3)
C8_2 C 0.6861(5) -0.0751(4) 0.3157(3)
C9_2 C 0.6850(5) 0.0010(4) 0.3919(3)
C10_2 C 0.6595(6) -0.0404(5) 0.4730(4)
C11_2 C 0.6298(7) -0.1546(5) 0.4728(4)
C12_2 C 0.7167(4) 0.1244(4) 0.3879(3)
C13A C 0.8454(4) 0.4673(4) -0.1384(3)
C14A C 0.9341(5) 0.5195(4) -0.1810(3)
C15A C 1.0102(4) 0.6214(4) -0.1379(3)
C16A C 0.9936(5) 0.6687(4) -0.0523(4)
C17A C 0.9023(5) 0.6135(4) -0.0146(4)
C18A C 1.1063(4) 0.6768(4) -0.1833(3)
C19A C 0.7678(4) 0.3534(4) -0.1815(3)
C20A C 0.7041(5) 0.2868(4) -0.1274(3)
C21A C 0.6415(4) 0.1783(4) -0.1686(3)
C22A C 0.6459(5) 0.1404(4) -0.2613(4)
C23A C 0.7082(6) 0.2136(5) -0.3104(4)
C24A C 0.5701(4) 0.1011(4) -0.1143(3)
C25A C 1.0079(5) 1.0515(4) 0.5343(3)
C26A C 1.0322(5) 1.1568(4) 0.5075(4)
C27A C 1.0476(4) 1.2503(4) 0.5743(3)
C28A C 1.0413(6) 1.2343(4) 0.6664(4)
C29A C 1.0144(7) 1.1274(5) 0.6872(4)
C30A C 1.0682(5) 1.3646(4) 0.5444(4)
C31A C -0.0305(4) -0.0324(4) -0.0489(3)
C32A C -0.1581(5) -0.0773(4) -0.0787(4)
C33A C -0.2108(4) -0.1350(4) -0.1705(4)
C34A C -0.1344(5) -0.1447(5) -0.2324(4)
C35A C -0.0090(5) -0.0994(4) -0.1982(4)
C36A C -0.3479(5) -0.1865(5) -0.2049(4)
H1_2 H 0.633(4) -0.414(4) 0.299(3)
H2_2 H 0.645(5) -0.456(5) 0.024(4)
H3_2 H 0.654(4) -0.264(4) 0.018(3)
H4_2 H 0.702(4) -0.049(4) 0.259(4)
H5_2 H 0.660(5) 0.005(5) 0.520(4)
H6_2 H 0.611(7) -0.184(6) 0.522(5)
H7A H 0.938(4) 0.484(4) -0.235(4)
H8A H 1.044(5) 0.730(4) -0.019(4)
H9A H 0.886(5) 0.635(4) 0.044(4)
H10A H 0.698(5) 0.308(4) -0.071(4)
H11A H 0.602(5) 0.066(5) -0.291(4)
H12A H 0.714(6) 0.185(5) -0.378(5)
H13A H 1.023(5) 1.158(4) 0.459(4)
H14A H 1.051(5) 1.292(5) 0.711(4)
H15A H 1.015(5) 1.118(4) 0.745(4)
H16A H -0.202(5) -0.070(4) -0.037(4)
H17A H -0.162(5) -0.179(5) -0.297(4)
H18A H 0.048(5) -0.106(4) -0.240(4)
H19_2 H 0.865(5) -0.512(4) 0.579(3)
H20_2 H 0.799(7) -0.592(7) 0.602(6)
H21_2 H 0.536(9) -0.679(8) 0.385(7)
H22_2 H 0.785(5) -0.985(4) 0.100(3)
H23_2 H 0.675(7) -1.053(6) 0.102(6)
O16 O 0.5337(8) 0.4208(5) 0.5755(5)
H24 H 0.505(9) 0.376(8) 0.597(7)
loop_
_geom_bond_atom_site_label_1
_geom_bond_atom_site_label_2
_geom_bond_site_symmetry_1
_geom_bond_site_symmetry_2
Sm1 O1 1_555 1_555
Sm2 O1 1_555 1_555
O1 C6 1_555 1_555
O2 Sm2 1_555 1_555
O3 C12 1_555 1_555
O4 C12 1_555 1_555
O5 Sm1 1_555 1_555
O6 Sm2 1_555 1_555
O7 C24 1_555 1_555
O8 C24 1_555 1_555
O9 Sm1 1_555 1_555
O10 C30 1_555 1_555
O11 Sm2 1_555 1_555
O12 C36 1_555 1_555
O13 Sm1 1_555 1_555
O14 Sm1 1_555 1_555
O15 Sm2 1_555 1_555
O16 H24 1_555 1_555
N1 C1 1_555 1_555
N2 C7 1_555 1_555
N3 C13 1_555 1_555
N4 C19 1_555 1_555
N5 C25 1_555 1_555
N6 C31 1_555 1_555
C1 C2 1_555 1_555
C2 C3 1_555 1_555
C3 C4 1_555 1_555
C4 C5 1_555 1_555
C5 N1 1_555 1_555
C6 O2 1_555 1_555
C7 C1 1_555 1_555
C8 C7 1_555 1_555
C9 C8 1_555 1_555
C10 C9 1_555 1_555
C11 N2 1_555 1_555
C12 C9 1_555 1_555
C13 C14 1_555 1_555
C14 C15 1_555 1_555
C15 C16 1_555 1_555
C16 C17 1_555 1_555
C17 N3 1_555 1_555
C18 O5 1_555 1_555
C19 C13 1_555 1_555
C20 C19 1_555 1_555
C21 C20 1_555 1_555
C22 C21 1_555 1_555
C23 N4 1_555 1_555
C24 C21 1_555 1_555
C25 C26 1_555 1_555
C26 C27 1_555 1_555
C27 C28 1_555 1_555
C28 C29 1_555 1_555
C29 N5 1_555 1_555
C30 O9 1_555 1_555
C31 C32 1_555 1_555
C32 C33 1_555 1_555
C33 C34 1_555 1_555
C34 C35 1_555 1_555
C35 N6 1_555 1_555
C36 O11 1_555 1_555
H1 C2 1_555 1_555
H2 C4 1_555 1_555
H3 C5 1_555 1_555
H4 C8 1_555 1_555
H5 C10 1_555 1_555
H6 C11 1_555 1_555
H7 C14 1_555 1_555
H8 C16 1_555 1_555
H9 C17 1_555 1_555
H10 C20 1_555 1_555
H11 C22 1_555 1_555
H12 C23 1_555 1_555
H13 C26 1_555 1_555
H14 C28 1_555 1_555
H15 C29 1_555 1_555
H16 C32 1_555 1_555
H17 C34 1_555 1_555
H18 C35 1_555 1_555
H19 O13 1_555 1_555
H20 O13 1_555 1_555
H21 O14 1_555 1_555
H22 O15 1_555 1_555
H23 O15 1_555 1_555
Sm1_2 O1_2 1_555 1_555
Sm1_3 O3 1_555 1_555
Sm1A O10 1_555 1_555
Sm1A_2 O9A 1_555 1_555
Sm1A_3 O5A 1_555 1_555
Sm2_2 O1_2 1_555 1_555
Sm2_3 O3 1_555 1_555
Sm2A O7 1_555 1_555
Sm2_4 O8 1_555 1_555
Sm2A_2 O11A 1_555 1_555
Sm2A_3 O8A 1_555 1_555
O1_2 C6_2 1_555 1_555
O2_2 Sm2_2 1_555 1_555
O3_2 Sm1 1_555 1_555
O3_3 Sm1_2 1_555 1_555
O4_2 Sm1 1_555 1_555
O4_3 Sm1_2 1_555 1_555
O5A C18A 1_555 1_555
O5_2 Sm1_2 1_555 1_555
O6A Sm2A 1_555 1_555
O6_2 Sm2_2 1_555 1_555
O7A Sm2 1_555 1_555
O7A_2 Sm2_2 1_555 1_555
O8A C24A 1_555 1_555
O8_2 Sm2 1_555 1_555
O8_3 Sm2_2 1_555 1_555
O9A C30A 1_555 1_555
O9_2 Sm1_2 1_555 1_555
O10A Sm1_3 1_555 1_555
O10A_2 Sm1 1_555 1_555
O10A_3 Sm1_2 1_555 1_555
O11A C36A 1_555 1_555
O11_2 Sm2_2 1_555 1_555
O12A C36A 1_555 1_555
O13_2 Sm1_2 1_555 1_555
O14_2 Sm1_2 1_555 1_555
O15_2 Sm2_2 1_555 1_555
N1_2 C1_2 1_555 1_555
N2_2 C7_2 1_555 1_555
N3A C13A 1_555 1_555
N4A C19A 1_555 1_555
N5A C25A 1_555 1_555
N6A C31A 1_555 1_555
C1_2 C2_2 1_555 1_555
C2_2 C3_2 1_555 1_555
C3_2 C4_2 1_555 1_555
C4_2 C5_2 1_555 1_555
C5_2 N1_2 1_555 1_555
C6_2 O2_2 1_555 1_555
C7_2 C1_2 1_555 1_555
C8_2 C7_2 1_555 1_555
C9_2 C8_2 1_555 1_555
C10_2 C9_2 1_555 1_555
C11_2 N2_2 1_555 1_555
C12_2 O3_2 1_555 1_555
C13A C14A 1_555 1_555
C14A C15A 1_555 1_555
C15A C16A 1_555 1_555
C16A C17A 1_555 1_555
C17A N3A 1_555 1_555
C18A O6A 1_555 1_555
C19A C13A 1_555 1_555
C20A C19A 1_555 1_555
C21A C20A 1_555 1_555
C22A C21A 1_555 1_555
C23A N4A 1_555 1_555
C24A O7A 1_555 1_555
C25A C25 1_555 1_555
C26A C25A 1_555 1_555
C27A C26A 1_555 1_555
C28A C27A 1_555 1_555
C29A N5A 1_555 1_555
C30A O10A 1_555 1_555
C31A C31 1_555 1_555
C32A C31A 1_555 1_555
C33A C32A 1_555 1_555
C34A C33A 1_555 1_555
C35A N6A 1_555 1_555
C36A C33A 1_555 1_555
H1_2 C2_2 1_555 1_555
H2_2 C4_2 1_555 1_555
H3_2 C5_2 1_555 1_555
H4_2 C8_2 1_555 1_555
H5_2 C10_2 1_555 1_555
H6_2 C11_2 1_555 1_555
H7A C14A 1_555 1_555
H8A C16A 1_555 1_555
H9A C17A 1_555 1_555
H10A C20A 1_555 1_555
H11A C22A 1_555 1_555
H12A C23A 1_555 1_555
H13A C26A 1_555 1_555
H14A C28A 1_555 1_555
H15A C29A 1_555 1_555
H16A C32A 1_555 1_555
H17A C34A 1_555 1_555
H18A C35A 1_555 1_555
H19_2 O13_2 1_555 1_555
H20_2 O13_2 1_555 1_555
H21_2 O14_2 1_555 1_555
H22_2 O15_2 1_555 1_555
H23_2 O15_2 1_555 1_555
Sm2 O3_2 1_555 1_555
O4 Sm1_3 1_555 1_555
O6 C18 1_555 1_555
C3 C6 1_555 1_555
C10 C11 1_555 1_555
C15 C18 1_555 1_555
C22 C23 1_555 1_555
C27 C30 1_555 1_555
C33 C36 1_555 1_555
Sm2_2 O3_3 1_555 1_555
O4_2 C12_2 1_555 1_555
C3_2 C6_2 1_555 1_555
C9_2 C12_2 1_555 1_555
C10_2 C11_2 1_555 1_555
C15A C18A 1_555 1_555
C21A C24A 1_555 1_555
C22A C23A 1_555 1_555
C27A C30A 1_555 1_555
C28A C29A 1_555 1_555
C34A C35A 1_555 1_555

#END
