
#######################################################################
#
#                 Cambridge Crystallographic Data Centre
#                                CCDC 
#
#######################################################################
#
# If this CIF has been generated from an entry in the Cambridge 
# Structural Database, then it will include bibliographic, chemical, 
# crystal, experimental, refinement or atomic coordinate data resulting 
# from the CCDC's data processing and validation procedures.
#
#######################################################################

data_SEFPID
_symmetry_cell_setting           triclinic
_symmetry_space_group_name_H-M   'P -1'
_symmetry_Int_Tables_number      2
_space_group_name_Hall           '-P 1'
loop_
_symmetry_equiv_pos_site_id
_symmetry_equiv_pos_as_xyz
1 x,y,z
2 -x,-y,-z
_cell_length_a                   10.556(2)
_cell_length_b                   10.704(2)
_cell_length_c                   13.184(3)
_cell_angle_alpha                103.50(3)
_cell_angle_beta                 108.82(3)
_cell_angle_gamma                100.97(3)
_cell_volume                     1312.75
loop_
_atom_site_label
_atom_site_type_symbol
_atom_site_fract_x
_atom_site_fract_y
_atom_site_fract_z
Co1 Co 0.19136(4) 0.45185(4) 0.27839(3)
C1 C 0.2443(3) 0.4263(3) 0.0604(2)
H1 H 0.1479 0.3877 0.0275
C2 C 0.3159(3) 0.4343(3) -0.0098(2)
H2 H 0.2681 0.4003 -0.0878
C3 C 0.4595(3) 0.4933(3) 0.0360(2)
C4 C 0.5226(3) 0.5416(3) 0.1533(2)
H3 H 0.6183 0.5834 0.1886
C5 C 0.4441(3) 0.5275(3) 0.2166(2)
H4 H 0.4895 0.5592 0.2948
C6 C 0.2996(3) 0.7469(3) 0.3077(2)
H5 H 0.2493 0.7154 0.2300
C7 C 0.3786(3) 0.8794(3) 0.3559(2)
H6 H 0.3806 0.9349 0.3113
C8 C 0.4557(2) 0.9296(3) 0.4723(2)
C9 C 0.4436(3) 0.8406(3) 0.5324(2)
H7 H 0.4910 0.8695 0.6104
C10 C 0.3622(3) 0.7099(3) 0.4774(2)
H8 H 0.3564 0.6524 0.5199
N1 N 0.2909(2) 0.6616(2) 0.36561(19)
N2 N 0.3054(2) 0.4706(2) 0.17251(19)
O9 O 0.0137(2) 0.4891(2) 0.16990(17)
H15 H -0.0547 0.4300 0.1518
H16 H -0.0015 0.5492 0.1974
O10 O 0.0866(2) 0.4383(2) 0.38714(18)
H17 H 0.1239 0.4500 0.4490
H18 H 0.0232 0.4666 0.3813
O11 O 0.3543(2) 0.3924(2) 0.38045(18)
H19 H 0.3645 0.4400 0.4334
H20 H 0.3307 0.3485 0.4193
O12 O 0.0950(2) 0.2485(2) 0.19159(18)
H21 H 0.0690 0.2117 0.1256
H22 H 0.1311 0.2095 0.2283
Co1A Co 0.80864(4) 1.54815(4) 0.72161(3)
Co1A_2 Co 0.80864(4) 0.54815(4) -0.27839(3)
C1A C 0.7557(3) 0.5737(3) -0.0604(2)
H1A H 0.8521 0.6123 -0.0275
C2A C 0.6841(3) 0.5657(3) 0.0098(2)
H2A H 0.7319 0.5997 0.0878
C3A C 0.5405(3) 0.5067(3) -0.0360(2)
C4A C 0.4774(3) 0.4584(3) -0.1533(2)
H3A H 0.3817 0.4166 -0.1886
C5A C 0.5559(3) 0.4725(3) -0.2166(2)
H4A H 0.5105 0.4408 -0.2948
C6A C 0.7004(3) 1.2531(3) 0.6923(2)
H5A H 0.7507 1.2846 0.7700
C7A C 0.6214(3) 1.1206(3) 0.6441(2)
H6A H 0.6194 1.0651 0.6887
C8A C 0.5443(2) 1.0704(3) 0.5277(2)
C9A C 0.5564(3) 1.1594(3) 0.4676(2)
H7A H 0.5090 1.1305 0.3896
C10A C 0.6378(3) 1.2901(3) 0.5226(2)
H8A H 0.6436 1.3476 0.4801
N1A N 0.7091(2) 1.3384(2) 0.63439(19)
N2A N 0.6946(2) 0.5294(2) -0.17251(19)
N2A_2 N 0.6946(2) 1.5294(2) 0.82749(19)
O9A O 0.9863(2) 1.5109(2) 0.83010(17)
H15A H 1.0547 1.5700 0.8482
H16A H 1.0015 1.4508 0.8026
O10A O 0.9134(2) 1.5617(2) 0.61286(18)
H17A H 0.8761 1.5500 0.5510
H18A H 0.9768 1.5334 0.6187
O11A O 0.6457(2) 1.6076(2) 0.61955(18)
H19A H 0.6355 1.5600 0.5666
H20A H 0.6693 1.6515 0.5807
O12A O 0.9050(2) 1.7515(2) 0.80841(18)
H21A H 0.9310 1.7883 0.8744
H22A H 0.8689 1.7905 0.7717
C11 C 0.3010(3) 0.0494(3) -0.1866(2)
C12 C 0.4414(3) 0.1206(3) -0.1386(2)
H9 H 0.4875 0.1335 -0.1864
C13 C 0.5170(3) 0.1739(3) -0.0221(2)
C14 C 0.4454(3) 0.1581(3) 0.0495(2)
C15 C 0.3053(3) 0.0845(3) 0.0010(2)
H10 H 0.2575 0.0730 0.0479
C16 C 0.2345(3) 0.0280(3) -0.1145(2)
H11 H 0.1421 -0.0246 -0.1440
C17 C 0.2273(3) -0.0056(3) -0.3119(2)
C18 C 0.2454(3) 0.0699(3) -0.3804(2)
H12 H 0.3053 0.1569 -0.3463
C19 C 0.1790(3) 0.0234(3) -0.4980(2)
C20 C 0.0916(3) -0.1109(3) -0.5489(2)
C21 C 0.0751(3) -0.1854(3) -0.4790(2)
H13 H 0.0187 -0.2737 -0.5119
C22 C 0.1380(3) -0.1352(3) -0.3630(2)
H14 H 0.1208 -0.1879 -0.3192
C23 C 0.6714(3) 0.2370(3) 0.0076(3)
C24 C 0.5004(3) 0.2182(3) 0.1775(2)
C25 C 0.2112(3) 0.1278(3) -0.5532(2)
C26 C 0.0124(3) -0.1879(3) -0.6751(2)
O1 O -0.0619(2) -0.3039(2) -0.70354(18)
O2 O 0.0278(3) -0.1325(3) -0.74799(17)
O3 O 0.1721(3) 0.0930(2) -0.66147(18)
O4 O 0.2758(2) 0.2444(2) -0.49372(19)
O5 O 0.7148(2) 0.2281(3) -0.0678(2)
O6 O 0.7532(2) 0.2980(3) 0.1116(2)
O7 O 0.4189(3) 0.2082(3) 0.22529(18)
O8 O 0.6315(2) 0.2796(3) 0.23264(19)
H27 H 0.689(3) 0.295(3) 0.172(3)
H28 H 0.108(4) -0.008(5) -0.701(4)
O13 O 0.0417(3) 0.8472(3) 0.0339(2)
H23 H 0.0978 0.8033 0.0420
H24 H 0.0191 0.8360 0.0858
O14 O -0.1684(3) -0.4982(3) -0.6135(2)
H25 H -0.1736 -0.4399 -0.6442
H26 H -0.2448 -0.5524 -0.6540
loop_
_geom_bond_atom_site_label_1
_geom_bond_atom_site_label_2
_geom_bond_site_symmetry_1
_geom_bond_site_symmetry_2
Co1 N1 1_555 1_555
C1 H1 1_555 1_555
C2 C1 1_555 1_555
H2 C2 1_555 1_555
C3 C2 1_555 1_555
C4 C3 1_555 1_555
H3 C4 1_555 1_555
C5 C4 1_555 1_555
H4 C5 1_555 1_555
C6 H5 1_555 1_555
C7 C6 1_555 1_555
H6 C7 1_555 1_555
C8 C7 1_555 1_555
C9 C8 1_555 1_555
H7 C9 1_555 1_555
C10 C9 1_555 1_555
H8 C10 1_555 1_555
C11 C12 1_555 1_555
C12 H9 1_555 1_555
C13 C12 1_555 1_555
C14 C13 1_555 1_555
C15 C14 1_555 1_555
H10 C15 1_555 1_555
C16 C11 1_555 1_555
H11 C16 1_555 1_555
C17 C11 1_555 1_555
C18 C17 1_555 1_555
H12 C18 1_555 1_555
C19 C18 1_555 1_555
C20 C19 1_555 1_555
C21 C20 1_555 1_555
H13 C21 1_555 1_555
C22 C17 1_555 1_555
H14 C22 1_555 1_555
C23 C13 1_555 1_555
C24 C14 1_555 1_555
C25 C19 1_555 1_555
C26 C20 1_555 1_555
N1 C6 1_555 1_555
N2 Co1 1_555 1_555
O1 C26 1_555 1_555
O2 C26 1_555 1_555
O3 C25 1_555 1_555
O4 C25 1_555 1_555
O5 C23 1_555 1_555
O6 C23 1_555 1_555
O7 C24 1_555 1_555
O8 C24 1_555 1_555
O9 Co1 1_555 1_555
H15 O9 1_555 1_555
H16 O9 1_555 1_555
O10 Co1 1_555 1_555
H17 O10 1_555 1_555
H18 O10 1_555 1_555
O11 Co1 1_555 1_555
H19 O11 1_555 1_555
H20 O11 1_555 1_555
O12 Co1 1_555 1_555
H21 O12 1_555 1_555
H22 O12 1_555 1_555
O13 H23 1_555 1_555
H24 O13 1_555 1_555
O14 H25 1_555 1_555
H26 O14 1_555 1_555
H27 O6 1_555 1_555
H28 O3 1_555 1_555
Co1A N1A 1_555 1_555
Co1A_2 N2A 1_555 1_555
C1A H1A 1_555 1_555
C2A C1A 1_555 1_555
H2A C2A 1_555 1_555
C3A C3 1_555 1_555
C4A C3A 1_555 1_555
H3A C4A 1_555 1_555
C5A C4A 1_555 1_555
H4A C5A 1_555 1_555
C6A H5A 1_555 1_555
C7A C6A 1_555 1_555
H6A C7A 1_555 1_555
C8A C8 1_555 1_555
C9A C8A 1_555 1_555
H7A C9A 1_555 1_555
C10A C9A 1_555 1_555
H8A C10A 1_555 1_555
N1A C6A 1_555 1_555
N2A C1A 1_555 1_555
N2A_2 Co1A 1_555 1_555
O9A Co1A 1_555 1_555
H15A O9A 1_555 1_555
H16A O9A 1_555 1_555
O10A Co1A 1_555 1_555
H17A O10A 1_555 1_555
H18A O10A 1_555 1_555
O11A Co1A 1_555 1_555
H19A O11A 1_555 1_555
H20A O11A 1_555 1_555
O12A Co1A 1_555 1_555
H21A O12A 1_555 1_555
H22A O12A 1_555 1_555
C1 N2 1_555 1_555
C5 N2 1_555 1_555
C10 N1 1_555 1_555
C15 C16 1_555 1_555
C21 C22 1_555 1_555
O8 H27 1_555 1_555
C2A C3A 1_555 1_555
C5A N2A 1_555 1_555
C7A C8A 1_555 1_555
C10A N1A 1_555 1_555

#END
