
#######################################################################
#
#                 Cambridge Crystallographic Data Centre
#                                CCDC 
#
#######################################################################
#
# If this CIF has been generated from an entry in the Cambridge 
# Structural Database, then it will include bibliographic, chemical, 
# crystal, experimental, refinement or atomic coordinate data resulting 
# from the CCDC's data processing and validation procedures.
#
#######################################################################

data_SEFQEA
_symmetry_cell_setting           monoclinic
_symmetry_space_group_name_H-M   'P 21/c'
_symmetry_Int_Tables_number      14
_space_group_name_Hall           '-P 2ybc'
loop_
_symmetry_equiv_pos_site_id
_symmetry_equiv_pos_as_xyz
1 x,y,z
2 -x,1/2+y,1/2-z
3 -x,-y,-z
4 x,1/2-y,1/2+z
_cell_length_a                   7.2358(14)
_cell_length_b                   13.838(3)
_cell_length_c                   16.150(3)
_cell_angle_alpha                90
_cell_angle_beta                 99.127(9)
_cell_angle_gamma                90
_cell_volume                     1596.61
loop_
_atom_site_label
_atom_site_type_symbol
_atom_site_fract_x
_atom_site_fract_y
_atom_site_fract_z
Br1 Br 0.14913(8) 0.96192(5) 0.34420(4)
Br2 Br 0.01904(8) 0.94803(5) 0.13197(4)
Cu1 Cu 0.28244(9) 1.00831(5) 0.22537(4)
N1 N 0.5112(6) 1.0731(3) 0.2950(3)
N2 N 1.0862(6) 1.2358(3) 0.2647(3)
C1 C 1.3620(8) 1.3253(4) 0.2494(3)
N3 N 0.9700(6) 1.2363(3) 0.0886(3)
N4 N 0.3998(6) 1.0743(3) 0.1316(3)
N5 N 1.4984(7) 1.3634(4) 0.2776(3)
C2 C 0.6820(7) 1.1553(4) 0.1052(3)
C3 C 0.6321(7) 1.1131(4) 0.2492(3)
C4 C 0.5719(7) 1.1147(4) 0.1587(3)
C5 C 1.1887(7) 1.2770(4) 0.2122(3)
C6 C 0.4362(8) 1.1183(4) -0.0083(3)
H1 H 0.3857 1.1202 -0.0649
C7 C 0.8036(8) 1.1554(4) 0.2847(3)
C8 C 0.3346(8) 1.0781(4) 0.0491(3)
H2 H 0.2167 1.0528 0.0296
C9 C 0.6119(8) 1.1556(4) 0.0187(3)
H3 H 0.6830 1.1804 -0.0196
C10 C 0.5611(8) 1.0742(4) 0.3785(3)
H4 H 0.4810 1.0460 0.4112
C11 C 0.9210(7) 1.1969(4) 0.2294(3)
C12 C 1.1308(7) 1.2783(4) 0.1245(3)
C13 C 0.8627(7) 1.1971(4) 0.1410(3)
C14 C 0.7272(8) 1.1155(4) 0.4187(3)
H5 H 0.7551 1.1150 0.4769
C15 C 0.8499(8) 1.1569(4) 0.3721(3)
H6 H 0.9607 1.1851 0.3981
N6 N 1.3380(8) 1.3627(4) 0.0311(3)
C16 C 1.2459(8) 1.3250(4) 0.0708(4)
Cu1A Cu 1.71756(9) 1.50831(5) 0.27463(4)
N5A N 0.5016(7) 0.8634(4) 0.2224(3)
loop_
_geom_bond_atom_site_label_1
_geom_bond_atom_site_label_2
_geom_bond_site_symmetry_1
_geom_bond_site_symmetry_2
Br1 Cu1 1_555 1_555
Br2 Cu1 1_555 1_555
Cu1 N1 1_555 1_555
N1 C3 1_555 1_555
N2 C5 1_555 1_555
C1 N5 1_555 1_555
N3 C12 1_555 1_555
N4 Cu1 1_555 1_555
N5 Cu1A 1_555 1_555
C2 C4 1_555 1_555
C3 C4 1_555 1_555
C4 N4 1_555 1_555
C5 C1 1_555 1_555
C6 H1 1_555 1_555
C7 C3 1_555 1_555
C8 N4 1_555 1_555
H2 C8 1_555 1_555
C9 C2 1_555 1_555
H3 C9 1_555 1_555
C10 N1 1_555 1_555
H4 C10 1_555 1_555
C11 N2 1_555 1_555
C12 C5 1_555 1_555
C13 N3 1_555 1_555
C14 C10 1_555 1_555
H5 C14 1_555 1_555
C15 C7 1_555 1_555
H6 C15 1_555 1_555
N6 C16 1_555 1_555
C16 C12 1_555 1_555
N5A Cu1 1_555 1_555
C2 C13 1_555 1_555
C6 C8 1_555 1_555
C6 C9 1_555 1_555
C7 C11 1_555 1_555
C11 C13 1_555 1_555
C14 C15 1_555 1_555

#END
