
#######################################################################
#
#                 Cambridge Crystallographic Data Centre
#                                CCDC 
#
#######################################################################
#
# If this CIF has been generated from an entry in the Cambridge 
# Structural Database, then it will include bibliographic, chemical, 
# crystal, experimental, refinement or atomic coordinate data resulting 
# from the CCDC's data processing and validation procedures.
#
#######################################################################

data_SEFSEC
_symmetry_cell_setting           monoclinic
_symmetry_space_group_name_H-M   'P 21/c'
_symmetry_Int_Tables_number      14
_space_group_name_Hall           '-P 2ybc'
loop_
_symmetry_equiv_pos_site_id
_symmetry_equiv_pos_as_xyz
1 x,y,z
2 -x,1/2+y,1/2-z
3 -x,-y,-z
4 x,1/2-y,1/2+z
_cell_length_a                   13.579(3)
_cell_length_b                   23.032(5)
_cell_length_c                   9.889(2)
_cell_angle_alpha                90
_cell_angle_beta                 109.662(4)
_cell_angle_gamma                90
_cell_volume                     2912.47
loop_
_atom_site_label
_atom_site_type_symbol
_atom_site_fract_x
_atom_site_fract_y
_atom_site_fract_z
Cd1 Cd 0.405935(17) 0.717522(9) 0.10026(2)
C1 C 0.3198(3) 0.58708(13) 0.1422(4)
H1 H 0.3461 0.5709 0.0752
C2 C 0.2366(3) 0.59712(14) 0.2914(4)
H2 H 0.1954 0.5898 0.3480
C3 C 0.2818(3) 0.64758(14) 0.2804(4)
H3 H 0.2778 0.6817 0.3285
C4 C 0.6597(3) 0.71142(18) 0.2934(5)
H4 H 0.6593 0.7453 0.3444
C5 C 0.6106(3) 0.64075(14) 0.1490(4)
H5 H 0.5695 0.6151 0.0804
C6 C 0.7434(3) 0.67978(19) 0.3071(5)
H6 H 0.8109 0.6868 0.3693
C7 C 0.7808(3) 0.59439(14) 0.1728(4)
H7 H 0.7403 0.5610 0.1252
H8 H 0.8353 0.5808 0.2585
C8 C 0.8295(2) 0.62235(12) 0.0752(4)
C9 C 0.9363(2) 0.63300(15) 0.1238(4)
H9 H 0.9768 0.6217 0.2160
C10 C 0.9841(3) 0.66081(16) 0.0349(4)
H10 H 1.0556 0.6680 0.0686
C11 C 0.9246(3) 0.67730(14) -0.1018(4)
C12 C 0.8184(3) 0.66517(14) -0.1521(4)
H11 H 0.7778 0.6744 -0.2458
C13 C 0.7730(3) 0.63884(14) -0.0598(4)
H12 H 0.7012 0.6325 -0.0927
C14 C 1.1676(3) 0.71346(15) -0.0967(4)
H13 H 1.1837 0.6797 -0.1366
C15 C 1.0803(3) 0.78392(16) -0.0472(4)
H14 H 1.0262 0.8081 -0.0443
C16 C 1.1808(3) 0.79166(14) 0.0229(4)
H15 H 1.2096 0.8227 0.0833
C17 C 0.9728(3) 0.70459(17) -0.2022(4)
H16 H 0.9857 0.6749 -0.2637
H17 H 0.9243 0.7325 -0.2629
C18 C 0.2191(3) 0.49946(14) 0.1687(5)
H18 H 0.2290 0.4782 0.2570
H19 H 0.2574 0.4793 0.1159
C19 C 0.1062(3) 0.49971(12) 0.0819(4)
C20 C 0.0725(3) 0.52146(15) -0.0551(4)
H20 H 0.1212 0.5360 -0.0936
C21 C 0.0333(3) 0.47777(14) 0.1378(4)
H21 H 0.0547 0.4625 0.2302
C22 C 0.5129(3) 0.83846(14) 0.0207(4)
H22 H 0.5261 0.8141 -0.0464
C23 C 0.5381(3) 0.89571(15) 0.0225(4)
H23 H 0.5707 0.9100 -0.0397
C24 C 0.5149(3) 0.93176(15) 0.1163(4)
H24 H 0.5303 0.9711 0.1172
C25 C 0.4690(2) 0.91031(13) 0.2095(3)
C26 C 0.4508(2) 0.85054(12) 0.2069(3)
C27 C 0.4436(3) 0.95252(13) 0.3102(4)
C28 C 0.4173(2) 0.82021(12) 0.3205(3)
N1 N 0.3353(2) 0.64037(11) 0.1861(3)
N2 N 0.2620(2) 0.55830(10) 0.2041(3)
N3 N 0.5744(2) 0.68772(12) 0.1945(3)
N4 N 0.7126(2) 0.63508(11) 0.2136(3)
N5 N 1.0699(2) 0.73349(12) -0.1252(3)
N6 N 1.2370(2) 0.74631(11) -0.0075(3)
N7 N 0.4704(2) 0.81631(10) 0.1117(3)
O1 O 0.5226(2) 0.96511(9) 0.4217(3)
O2 O 0.3560(2) 0.97339(12) 0.2770(4)
O3 O 0.3997(2) 0.85060(9) 0.4134(3)
O4 O 0.4123(2) 0.76636(8) 0.3166(3)
Cd1B Cd -0.405935(17) 0.282478(9) -0.10026(2)
Cd1_2 Cd 1.405935(17) 0.717522(9) 0.10026(2)
Cd1C Cd 0.405935(17) 0.782478(9) 0.60026(2)
Cd1_3 Cd -0.594065(17) 0.717522(9) 0.10026(2)
Cd1C_2 Cd 0.405935(17) 0.782478(9) -0.39974(2)
C1B C -0.3198(3) 0.41292(13) -0.1422(4)
H1B H -0.3461 0.4291 -0.0752
C2B C -0.2366(3) 0.40288(14) -0.2914(4)
H2B H -0.1954 0.4102 -0.3480
C3B C -0.2818(3) 0.35242(14) -0.2804(4)
H3B H -0.2778 0.3183 -0.3285
C4_2 C -0.3403(3) 0.71142(18) 0.2934(5)
H4_2 H -0.3407 0.7453 0.3444
C5_2 C -0.3894(3) 0.64075(14) 0.1490(4)
H5_2 H -0.4305 0.6151 0.0804
C6_2 C -0.2566(3) 0.67978(19) 0.3071(5)
H6_2 H -0.1891 0.6868 0.3693
C7_2 C -0.2192(3) 0.59439(14) 0.1728(4)
H7_2 H -0.2597 0.5610 0.1252
H8_2 H -0.1647 0.5808 0.2585
C8_2 C -0.1705(2) 0.62235(12) 0.0752(4)
C9_2 C -0.0637(2) 0.63300(15) 0.1238(4)
H9_2 H -0.0232 0.6217 0.2160
C10_2 C -0.0159(3) 0.66081(16) 0.0349(4)
H10_2 H 0.0556 0.6680 0.0686
C11_2 C -0.0754(3) 0.67730(14) -0.1018(4)
C12_2 C -0.1816(3) 0.66517(14) -0.1521(4)
H11_2 H -0.2222 0.6744 -0.2458
C13_2 C -0.2270(3) 0.63884(14) -0.0598(4)
H12_2 H -0.2988 0.6325 -0.0927
C14_2 C 0.1676(3) 0.71346(15) -0.0967(4)
H13_2 H 0.1837 0.6797 -0.1366
C15_2 C 0.0803(3) 0.78392(16) -0.0472(4)
H14_2 H 0.0262 0.8081 -0.0443
C16_2 C 0.1808(3) 0.79166(14) 0.0229(4)
H15_2 H 0.2096 0.8227 0.0833
C17_2 C -0.0272(3) 0.70459(17) -0.2022(4)
H16_2 H -0.0143 0.6749 -0.2637
H17_2 H -0.0757 0.7325 -0.2629
C18B C -0.2191(3) 0.50054(14) -0.1687(5)
H18B H -0.2290 0.5218 -0.2570
H19B H -0.2574 0.5207 -0.1159
C19B C -0.1062(3) 0.50029(12) -0.0819(4)
C20B C -0.0725(3) 0.47854(15) 0.0551(4)
H20B H -0.1212 0.4640 0.0936
C21B C -0.0333(3) 0.52223(14) -0.1378(4)
H21B H -0.0547 0.5375 -0.2302
C22C C 0.5129(3) 0.66154(14) -0.4793(4)
H22C H 0.5261 0.6859 -0.5464
C23C C 0.5381(3) 0.60429(15) -0.4775(4)
H23C H 0.5707 0.5900 -0.5397
C24C C 0.5149(3) 0.56824(15) -0.3837(4)
H24C H 0.5303 0.5289 -0.3828
C25C C 0.4690(2) 0.58969(13) -0.2905(3)
C26C C 0.4508(2) 0.64946(12) -0.2931(3)
C27C C 0.4436(3) 0.54748(13) -0.1898(4)
C28C C 0.4173(2) 0.67979(12) -0.1795(3)
N1B N -0.3353(2) 0.35963(11) -0.1861(3)
N2B N -0.2620(2) 0.44170(10) -0.2041(3)
N3_2 N -0.4256(2) 0.68772(12) 0.1945(3)
N3B N -0.5744(2) 0.31228(12) -0.1945(3)
N4_2 N -0.2874(2) 0.63508(11) 0.2136(3)
N5_2 N 0.0699(2) 0.73349(12) -0.1252(3)
N6_2 N 0.2370(2) 0.74631(11) -0.0075(3)
N6B N -0.2370(2) 0.25369(11) 0.0075(3)
N7C N 0.4704(2) 0.68369(10) -0.3883(3)
N7B N -0.4704(2) 0.18369(10) -0.1117(3)
O1C O 0.5226(2) 0.53489(9) -0.0783(3)
O2C O 0.3560(2) 0.52661(12) -0.2230(4)
O3C O 0.3997(2) 0.64940(9) -0.0866(3)
O3A O -0.3997(2) 0.35060(9) 0.0866(3)
O4C O 0.4123(2) 0.73364(8) -0.1834(3)
O4B O -0.4123(2) 0.23364(8) -0.3166(3)
O5 O 0.2063(4) 0.4846(2) 0.5189(5)
H25 H 0.2559 0.4852 0.5990
H26 H 0.1905 0.4496 0.4935
O6 O 0.0210(3) 0.41899(19) 0.4827(5)
H27 H -0.0419 0.4101 0.4726
H28 H 0.0592 0.3889 0.5056
loop_
_geom_bond_atom_site_label_1
_geom_bond_atom_site_label_2
_geom_bond_site_symmetry_1
_geom_bond_site_symmetry_2
Cd1 N1 1_555 1_555
C1 H1 1_555 1_555
C2 H2 1_555 1_555
C3 C2 1_555 1_555
H3 C3 1_555 1_555
C4 H4 1_555 1_555
C5 H5 1_555 1_555
C6 C4 1_555 1_555
H6 C6 1_555 1_555
C7 H7 1_555 1_555
H8 C7 1_555 1_555
C8 C7 1_555 1_555
C9 C8 1_555 1_555
H9 C9 1_555 1_555
C10 C9 1_555 1_555
H10 C10 1_555 1_555
C11 C10 1_555 1_555
C12 C11 1_555 1_555
H11 C12 1_555 1_555
C13 C8 1_555 1_555
H12 C13 1_555 1_555
C14 H13 1_555 1_555
C15 H14 1_555 1_555
C16 C15 1_555 1_555
H15 C16 1_555 1_555
C17 C11 1_555 1_555
H16 C17 1_555 1_555
H17 C17 1_555 1_555
C18 H18 1_555 1_555
H19 C18 1_555 1_555
C19 C18 1_555 1_555
C20 C19 1_555 1_555
H20 C20 1_555 1_555
C21 C19 1_555 1_555
H21 C21 1_555 1_555
C22 H22 1_555 1_555
C23 C22 1_555 1_555
H23 C23 1_555 1_555
C24 C23 1_555 1_555
H24 C24 1_555 1_555
C25 C24 1_555 1_555
C26 C25 1_555 1_555
C27 C25 1_555 1_555
C28 C26 1_555 1_555
N1 C1 1_555 1_555
N2 C1 1_555 1_555
N3 Cd1 1_555 1_555
N4 C5 1_555 1_555
N5 C14 1_555 1_555
N6 C14 1_555 1_555
N7 Cd1 1_555 1_555
O1 C27 1_555 1_555
O2 C27 1_555 1_555
O3 C28 1_555 1_555
O4 Cd1 1_555 1_555
O5 H25 1_555 1_555
H26 O5 1_555 1_555
O6 H27 1_555 1_555
H28 O6 1_555 1_555
Cd1B N1B 1_555 1_555
Cd1_2 N6 1_555 1_555
Cd1C O3 1_555 1_555
Cd1_3 N3_2 1_555 1_555
Cd1C_2 N7C 1_555 1_555
C1B H1B 1_555 1_555
C2B H2B 1_555 1_555
C3B C2B 1_555 1_555
H3B C3B 1_555 1_555
C4_2 H4_2 1_555 1_555
C5_2 H5_2 1_555 1_555
C6_2 C4_2 1_555 1_555
H6_2 C6_2 1_555 1_555
C7_2 H7_2 1_555 1_555
H8_2 C7_2 1_555 1_555
C8_2 C7_2 1_555 1_555
C9_2 C8_2 1_555 1_555
H9_2 C9_2 1_555 1_555
C10_2 C9_2 1_555 1_555
H10_2 C10_2 1_555 1_555
C11_2 C10_2 1_555 1_555
C12_2 C11_2 1_555 1_555
H11_2 C12_2 1_555 1_555
C13_2 C8_2 1_555 1_555
H12_2 C13_2 1_555 1_555
C14_2 H13_2 1_555 1_555
C15_2 H14_2 1_555 1_555
C16_2 C15_2 1_555 1_555
H15_2 C16_2 1_555 1_555
C17_2 C11_2 1_555 1_555
H16_2 C17_2 1_555 1_555
H17_2 C17_2 1_555 1_555
C18B H18B 1_555 1_555
H19B C18B 1_555 1_555
C19B C18B 1_555 1_555
C20B C21 1_555 1_555
H20B C20B 1_555 1_555
C21B C20 1_555 1_555
H21B C21B 1_555 1_555
C22C H22C 1_555 1_555
C23C C22C 1_555 1_555
H23C C23C 1_555 1_555
C24C C23C 1_555 1_555
H24C C24C 1_555 1_555
C25C C24C 1_555 1_555
C26C C25C 1_555 1_555
C27C C25C 1_555 1_555
C28C C26C 1_555 1_555
N1B C1B 1_555 1_555
N2B C1B 1_555 1_555
N3_2 C4_2 1_555 1_555
N3B Cd1B 1_555 1_555
N4_2 C5_2 1_555 1_555
N5_2 C14_2 1_555 1_555
N6_2 Cd1 1_555 1_555
N6B Cd1B 1_555 1_555
N7C C22C 1_555 1_555
N7B Cd1B 1_555 1_555
O1C C27C 1_555 1_555
O2C C27C 1_555 1_555
O3C Cd1 1_555 1_555
O3A Cd1B 1_555 1_555
O4C Cd1C_2 1_555 1_555
O4B Cd1B 1_555 1_555
C2 N2 1_555 1_555
C3 N1 1_555 1_555
C4 N3 1_555 1_555
C5 N3 1_555 1_555
C6 N4 1_555 1_555
C7 N4 1_555 1_555
C12 C13 1_555 1_555
C15 N5 1_555 1_555
C16 N6 1_555 1_555
C17 N5 1_555 1_555
C18 N2 1_555 1_555
C22 N7 1_555 1_555
C26 N7 1_555 1_555
C28 O4 1_555 1_555
C2B N2B 1_555 1_555
C3B N1B 1_555 1_555
C5_2 N3_2 1_555 1_555
C6_2 N4_2 1_555 1_555
C7_2 N4_2 1_555 1_555
C12_2 C13_2 1_555 1_555
C14_2 N6_2 1_555 1_555
C15_2 N5_2 1_555 1_555
C16_2 N6_2 1_555 1_555
C17_2 N5_2 1_555 1_555
C18B N2B 1_555 1_555
C19B C20B 1_555 1_555
C19B C21B 1_555 1_555
C26C N7C 1_555 1_555
C28C O3C 1_555 1_555
C28C O4C 1_555 1_555

#END
