
#######################################################################
#
#                 Cambridge Crystallographic Data Centre
#                                CCDC 
#
#######################################################################
#
# If this CIF has been generated from an entry in the Cambridge 
# Structural Database, then it will include bibliographic, chemical, 
# crystal, experimental, refinement or atomic coordinate data resulting 
# from the CCDC's data processing and validation procedures.
#
#######################################################################

data_SEFSUS
_symmetry_cell_setting           monoclinic
_symmetry_space_group_name_H-M   'C 2/c'
_symmetry_Int_Tables_number      15
_space_group_name_Hall           '-C 2yn'
loop_
_symmetry_equiv_pos_site_id
_symmetry_equiv_pos_as_xyz
1 x,y,z
2 1/2+x,1/2+y,z
3 -x,y,1/2-z
4 1/2-x,1/2+y,1/2-z
5 -x,-y,-z
6 1/2-x,1/2-y,-z
7 x,-y,1/2+z
8 1/2+x,1/2-y,1/2+z
_cell_length_a                   14.003(3)
_cell_length_b                   19.840(4)
_cell_length_c                   18.633(4)
_cell_angle_alpha                90
_cell_angle_beta                 96.932(4)
_cell_angle_gamma                90
_cell_volume                     5138.77
loop_
_atom_site_label
_atom_site_type_symbol
_atom_site_fract_x
_atom_site_fract_y
_atom_site_fract_z
O6 O 0.5078(4) 0.9064(2) 0.7773(3)
H26 H 0.464(6) 0.939(4) 0.774(5)
O6B O 0.4922(4) 0.9064(2) 0.7227(3)
H26B H 0.536(6) 0.939(4) 0.726(5)
O7 O 0.2325(2) 0.47216(13) 0.77938(15)
H24 H 0.2755 0.4438 0.7950
H25 H 0.1881 0.4720 0.8067
C1 C 0.4126(3) 0.6028(2) 1.0284(2)
H1 H 0.4146 0.6187 1.0755
C2 C 0.4865(3) 0.5887(2) 0.9929(2)
H2 H 0.5508 0.5921 1.0120
C3 C 0.3588(2) 0.56755(17) 0.9185(2)
H3 H 0.3184 0.5541 0.8778
C4 C 0.5095(3) 0.5459(2) 0.8669(2)
H4 H 0.4660 0.5296 0.8261
H5 H 0.5517 0.5091 0.8844
C5 C 0.5699(3) 0.6049(2) 0.8425(2)
C6 C 0.5422(3) 0.67223(19) 0.8448(2)
H6 H 0.4861 0.6827 0.8644
C7 C 0.5936(3) 0.7230(2) 0.8196(2)
H7 H 0.5716 0.7671 0.8216
C8 C 0.6804(3) 0.70971(18) 0.79043(19)
C9 C 0.7044(3) 0.6431(2) 0.7862(2)
H8 H 0.7608 0.6330 0.7668
C10 C 0.6504(3) 0.5880(2) 0.8091(2)
H9 H 0.6678 0.5435 0.8021
C11 C 0.7410(3) 0.7669(2) 0.76614(19)
H10 H 0.7294 0.8074 0.7928
H11 H 0.8086 0.7555 0.7766
C12 C 0.6954(3) 0.73213(18) 0.63447(18)
H12 H 0.6899 0.6858 0.6407
C13 C 0.6834(3) 0.76551(18) 0.57170(19)
H13 H 0.6703 0.7461 0.5261
C14 C 0.7158(2) 0.84006(18) 0.65621(19)
H14 H 0.7284 0.8809 0.6800
C15 C 0.1206(3) 0.46371(17) 0.97549(19)
H15 H 0.1195 0.4687 0.9258
C16 C 0.1300(3) 0.48478(19) 1.08854(19)
H16 H 0.1374 0.5081 1.1322
C17 C 0.1102(3) 0.41935(19) 1.0809(2)
H17 H 0.1017 0.3888 1.1174
C18 C 0.0838(3) 0.34010(18) 0.9727(2)
H18 H 0.0674 0.3464 0.9211
H19 H 0.0293 0.3194 0.9917
C19 C 0.1715(3) 0.29426(18) 0.9868(2)
C20 C 0.2548(3) 0.30892(18) 0.96041(19)
H20 H 0.2599 0.3482 0.9340
C21 C 0.1653(3) 0.23573(18) 1.0270(2)
H21 H 0.1084 0.2256 1.0458
C22 C 0.1036(3) 0.63072(18) 0.87025(19)
C23 C 0.0474(2) 0.66837(18) 0.80786(18)
C24 C 0.0448(2) 0.73728(18) 0.80918(19)
H22 H 0.0730 0.7604 0.8497
C25 C 0.0000 0.7731(3) 0.7500
C26 C 0.0000 0.6325(3) 0.7500
H23 H 0.0000 0.5857 0.7500
N1 N 0.32990(19) 0.58879(14) 0.97930(15)
N2 N 0.4546(2) 0.56813(15) 0.92396(17)
N3 N 0.7176(2) 0.77944(14) 0.68846(15)
N4 N 0.6935(2) 0.83319(14) 0.58573(15)
N5 N 0.13780(19) 0.51245(13) 1.02206(14)
N6 N 0.1048(2) 0.40615(15) 1.00799(17)
O1 O 0.11230(19) 0.65831(13) 0.92994(13)
O2 O 0.13994(16) 0.57472(12) 0.85716(13)
O3 O 0.0593(12) 0.8830(9) 0.8059(7)
O5 O -0.0820(4) 0.8720(3) 0.8218(3)
S1 S -0.01779(14) 0.86143(9) 0.76723(10)
Zn1 Zn 0.19249(3) 0.60196(2) 1.00138(2)
C20E C 0.2452(3) 0.19108(18) 1.03959(19)
C21E C 0.3347(3) 0.26427(18) 0.9730(2)
C23B C -0.0474(2) 0.66837(18) 0.69214(18)
C24B C -0.0448(2) 0.73728(18) 0.69082(19)
N4G N 0.1935(2) 0.66681(14) 1.08573(15)
O3B O -0.0593(12) 0.8830(9) 0.6941(7)
S1B S 0.01779(14) 0.86143(9) 0.73277(10)
Zn1G Zn 0.69249(3) 0.89804(2) 0.50138(2)
O4? O 0.0786(12) 0.8879(10) 0.7871(8)
loop_
_geom_bond_atom_site_label_1
_geom_bond_atom_site_label_2
_geom_bond_site_symmetry_1
_geom_bond_site_symmetry_2
C1 H1 1_555 1_555
C2 C1 1_555 1_555
H2 C2 1_555 1_555
C3 H3 1_555 1_555
C4 H4 1_555 1_555
H5 C4 1_555 1_555
C5 C4 1_555 1_555
C6 C5 1_555 1_555
H6 C6 1_555 1_555
C7 C6 1_555 1_555
H7 C7 1_555 1_555
C8 C7 1_555 1_555
C9 C8 1_555 1_555
H8 C9 1_555 1_555
C10 C5 1_555 1_555
H9 C10 1_555 1_555
C11 C8 1_555 1_555
H10 C11 1_555 1_555
H11 C11 1_555 1_555
C12 H12 1_555 1_555
C13 C12 1_555 1_555
H13 C13 1_555 1_555
C14 H14 1_555 1_555
C15 H15 1_555 1_555
C16 H16 1_555 1_555
C17 C16 1_555 1_555
H17 C17 1_555 1_555
C18 H18 1_555 1_555
H19 C18 1_555 1_555
C19 C18 1_555 1_555
C20 C19 1_555 1_555
H20 C20 1_555 1_555
C21 C19 1_555 1_555
H21 C21 1_555 1_555
C22 C23 1_555 1_555
C23 C24 1_555 1_555
C24 H22 1_555 1_555
C25 C24 1_555 1_555
C26 C23 1_555 1_555
H23 C26 1_555 1_555
N1 C1 1_555 1_555
N2 C2 1_555 1_555
N3 C11 1_555 1_555
N4 C13 1_555 1_555
N5 C15 1_555 1_555
N6 C15 1_555 1_555
O1 C22 1_555 1_555
O2 C22 1_555 1_555
O3 S1 1_555 1_555
O5 S1 1_555 1_555
O6 H26 1_555 1_555
O7 H24 1_555 1_555
H25 O7 1_555 1_555
S1 C25 1_555 1_555
Zn1 N1 1_555 1_555
H26 O6B 1_555 1_555
C20E C21 1_555 1_555
C21E C20 1_555 1_555
C23B C26 1_555 1_555
C24B C25 1_555 1_555
N4G Zn1 1_555 1_555
O3B S1 1_555 1_555
O6B O6 1_555 1_555
S1B C25 1_555 1_555
Zn1G N4 1_555 1_555
H26B O6 1_555 1_555
C3 N1 1_555 1_555
C3 N2 1_555 1_555
C4 N2 1_555 1_555
C9 C10 1_555 1_555
C12 N3 1_555 1_555
C14 N3 1_555 1_555
C14 N4 1_555 1_555
C16 N5 1_555 1_555
C17 N6 1_555 1_555
C18 N6 1_555 1_555
N5 Zn1 1_555 1_555
O1 Zn1 1_555 1_555
O3 S1B 1_555 1_555
S1 S1B 1_555 1_555
C23B C24B 1_555 1_555
O3B S1B 1_555 1_555
O6B H26B 1_555 1_555

#END
