
#######################################################################
#
#                 Cambridge Crystallographic Data Centre
#                                CCDC 
#
#######################################################################
#
# If this CIF has been generated from an entry in the Cambridge 
# Structural Database, then it will include bibliographic, chemical, 
# crystal, experimental, refinement or atomic coordinate data resulting 
# from the CCDC's data processing and validation procedures.
#
#######################################################################

data_SEFSAY
_symmetry_cell_setting           triclinic
_symmetry_space_group_name_H-M   'P -1'
_symmetry_Int_Tables_number      2
_space_group_name_Hall           '-P 1'
loop_
_symmetry_equiv_pos_site_id
_symmetry_equiv_pos_as_xyz
1 x,y,z
2 -x,-y,-z
_cell_length_a                   11.8528(9)
_cell_length_b                   13.3368(10)
_cell_length_c                   13.4568(10)
_cell_angle_alpha                76.1420(10)
_cell_angle_beta                 64.7720(10)
_cell_angle_gamma                68.5210(10)
_cell_volume                     1781.87
loop_
_atom_site_label
_atom_site_type_symbol
_atom_site_fract_x
_atom_site_fract_y
_atom_site_fract_z
Cd1 Cd 0.5000 0.0000 0.5000
Mo1 Mo 0.12891(4) 0.09564(3) 0.61881(3)
Mo2 Mo 0.27711(4) 0.06626(3) 0.34547(3)
Mo3 Mo -0.14485(4) 0.02986(3) 0.77290(3)
Mo4 Mo 0.09280(4) -0.14017(3) 0.52984(3)
O1 O 0.4238(3) 0.0093(3) 0.3638(3)
O2 O 0.2825(3) 0.0364(3) 0.6248(3)
O3 O 0.3047(3) 0.1635(3) 0.2402(3)
O4 O 0.1773(3) 0.1521(2) 0.4667(3)
O5 O 0.0710(3) 0.2118(3) 0.6776(3)
O6 O 0.1831(3) -0.0516(3) 0.5114(3)
O7 O 0.0396(3) 0.0043(3) 0.7306(2)
O8 O -0.2108(3) 0.1469(3) 0.8326(3)
O9 O -0.1687(3) -0.0669(3) 0.8808(3)
O10 O 0.2786(3) -0.0442(3) 0.2792(3)
O11 O -0.0629(3) 0.1266(3) 0.5944(3)
O12 O 0.1775(3) -0.2707(3) 0.5562(3)
O13 O 0.0592(3) 0.1026(3) 0.3563(3)
N1 N 0.4755(4) 0.1774(3) 0.4709(4)
C1 C 0.3850(5) 0.2410(4) 0.5480(5)
H1 H 0.3246 0.2129 0.6069
C2 C 0.3778(5) 0.3475(4) 0.5449(5)
H2 H 0.3132 0.3895 0.6002
C3 C 0.4684(5) 0.3903(4) 0.4578(5)
C4 C 0.5602(6) 0.3245(4) 0.3772(5)
H3 H 0.6209 0.3513 0.3162
C5 C 0.5621(6) 0.2190(4) 0.3869(5)
H4 H 0.6259 0.1749 0.3324
C6 C 0.4698(6) 0.5019(4) 0.4591(5)
H5 H 0.5181 0.5293 0.3855
H6 H 0.3811 0.5500 0.4827
Cd1_2 Cd 0.5000 1.0000 0.5000
Cd1_3 Cd -0.5000 0.0000 0.5000
Mo1A Mo -0.12891(4) -0.09564(3) 0.38119(3)
Mo2A Mo -0.27711(4) -0.06626(3) 0.65453(3)
Mo3A Mo 0.14485(4) -0.02986(3) 0.22710(3)
Mo4A Mo -0.09280(4) 0.14017(3) 0.47016(3)
O1A O 0.5762(3) -0.0093(3) 0.6362(3)
O1A_2 O -0.4238(3) -0.0093(3) 0.6362(3)
O2A O 0.7175(3) -0.0364(3) 0.3752(3)
O2A_2 O -0.2825(3) -0.0364(3) 0.3752(3)
O3A O -0.3047(3) -0.1635(3) 0.7598(3)
O4A O -0.1773(3) -0.1521(2) 0.5333(3)
O5A O -0.0710(3) -0.2118(3) 0.3224(3)
O6A O -0.1831(3) 0.0516(3) 0.4886(3)
O7A O -0.0396(3) -0.0043(3) 0.2694(2)
O8A O 0.2108(3) -0.1469(3) 0.1674(3)
O9A O 0.1687(3) 0.0669(3) 0.1192(3)
O10A O -0.2786(3) 0.0442(3) 0.7208(3)
O11A O 0.0629(3) -0.1266(3) 0.4056(3)
O12A O -0.1775(3) 0.2707(3) 0.4438(3)
O13A O -0.0592(3) -0.1026(3) 0.6437(3)
N1A N 0.5245(4) 0.8226(3) 0.5291(4)
N1A_2 N 0.5245(4) -0.1774(3) 0.5291(4)
N1_2 N -0.5245(4) 0.1774(3) 0.4709(4)
N1A_3 N -0.4755(4) -0.1774(3) 0.5291(4)
C1A C 0.6150(5) 0.7590(4) 0.4520(5)
H1A H 0.6754 0.7871 0.3931
C2A C 0.6222(5) 0.6525(4) 0.4551(5)
H2A H 0.6868 0.6105 0.3998
C3A C 0.5316(5) 0.6097(4) 0.5422(5)
C4A C 0.4398(6) 0.6755(4) 0.6228(5)
H3A H 0.3791 0.6487 0.6838
C5A C 0.4379(6) 0.7810(4) 0.6131(5)
H4A H 0.3741 0.8251 0.6676
C6A C 0.5302(6) 0.4981(4) 0.5409(5)
H5A H 0.4819 0.4707 0.6145
H6A H 0.6189 0.4500 0.5173
Cd2 Cd 0.5000 0.5000 0.0000
O14 O 0.5530(5) 0.6422(4) 0.0215(4)
O15 O 0.3358(5) 0.6380(4) -0.0476(4)
N2 N 0.3566(4) 0.4960(3) 0.1771(3)
N3 N 0.5760(5) 0.7577(5) 0.1038(5)
N4 N 0.2277(7) 0.8156(5) -0.0733(5)
C7 C 0.3291(5) 0.4047(4) 0.2323(4)
H7 H 0.3737 0.3411 0.1979
C8 C 0.2380(5) 0.4013(4) 0.3373(4)
H8 H 0.2219 0.3362 0.3727
C9 C 0.1705(5) 0.4933(5) 0.3908(4)
C10 C 0.1979(5) 0.5868(5) 0.3349(5)
H9 H 0.1545 0.6511 0.3682
C11 C 0.2908(5) 0.5855(4) 0.2281(4)
H10 H 0.3076 0.6500 0.1908
C12 C 0.0642(5) 0.4916(5) 0.5048(4)
H11 H 0.0879 0.4227 0.5469
H12 H 0.0552 0.5484 0.5436
C13 C 0.5763(7) 0.6614(6) 0.0906(6)
H13 H 0.5969 0.6038 0.1410
C14 C 0.6014(12) 0.7763(8) 0.1921(10)
H14 H 0.5923 0.7176 0.2494
H15 H 0.5401 0.8429 0.2213
H16 H 0.6887 0.7810 0.1645
C15 C 0.5440(7) 0.8504(6) 0.0323(6)
H17 H 0.5183 0.8321 -0.0182
H18 H 0.6188 0.8761 -0.0085
H19 H 0.4731 0.9060 0.0748
C16 C 0.3271(8) 0.7312(7) -0.0685(6)
H20 H 0.4033 0.7473 -0.0841
C17 C 0.2346(11) 0.9244(7) -0.0997(8)
H21 H 0.1758 0.9651 -0.0377
H22 H 0.2104 0.9574 -0.1623
H23 H 0.3222 0.9236 -0.1169
C18 C 0.1086(12) 0.7998(11) -0.0411(15)
H24 H 0.0986 0.7881 -0.1042
H25 H 0.0404 0.8626 -0.0090
H26 H 0.1035 0.7377 0.0123
Cd2_2 Cd -0.5000 0.5000 1.0000
O14A O 0.4470(5) 0.3578(4) -0.0215(4)
O15A O 0.6642(5) 0.3620(4) 0.0476(4)
N2A N -0.3566(4) 0.5040(3) 0.8229(3)
N2A_2 N 0.6434(4) 0.5040(3) -0.1771(3)
N3A N 0.4240(5) 0.2423(5) -0.1038(5)
N4A N 0.7723(7) 0.1844(5) 0.0733(5)
C7A C -0.3291(5) 0.5953(4) 0.7677(4)
H7A H -0.3737 0.6589 0.8021
C8A C -0.2380(5) 0.5987(4) 0.6627(4)
H8A H -0.2219 0.6638 0.6273
C9A C -0.1705(5) 0.5067(5) 0.6092(4)
C10A C -0.1979(5) 0.4132(5) 0.6651(5)
H9A H -0.1545 0.3489 0.6318
C11A C -0.2908(5) 0.4145(4) 0.7719(4)
H10A H -0.3076 0.3500 0.8092
C12A C -0.0642(5) 0.5084(5) 0.4952(4)
H11A H -0.0879 0.5773 0.4531
H12A H -0.0552 0.4516 0.4564
C13A C 0.4237(7) 0.3386(6) -0.0906(6)
H13A H 0.4031 0.3962 -0.1410
C14A C 0.3986(12) 0.2237(8) -0.1921(10)
H14A H 0.4077 0.2824 -0.2494
H15A H 0.4599 0.1571 -0.2213
H16A H 0.3113 0.2190 -0.1645
C15A C 0.4560(7) 0.1496(6) -0.0323(6)
H17A H 0.4817 0.1679 0.0182
H18A H 0.3812 0.1239 0.0085
H19A H 0.5269 0.0940 -0.0748
C16A C 0.6729(8) 0.2688(7) 0.0685(6)
H20A H 0.5967 0.2527 0.0841
C17A C 0.7654(11) 0.0756(7) 0.0997(8)
H21A H 0.8242 0.0349 0.0377
H22A H 0.7896 0.0426 0.1623
H23A H 0.6778 0.0764 0.1169
C18A C 0.8914(12) 0.2002(11) 0.0411(15)
H24A H 0.9014 0.2119 0.1042
H25A H 0.9596 0.1374 0.0090
H26A H 0.8965 0.2623 -0.0123
O16 O 1.2278(7) 0.4863(6) 0.7703(6)
N5 N 1.0113(6) 0.5632(5) 0.8356(5)
C19 C 1.1314(10) 0.5622(9) 0.7904(8)
H27 H 1.1452 0.6297 0.7707
C20 C 0.9080(10) 0.6616(8) 0.8501(11)
H28 H 0.9426 0.7209 0.8345
H29 H 0.8464 0.6602 0.9249
H30 H 0.8650 0.6706 0.8007
C21 C 0.9832(13) 0.4640(9) 0.8603(11)
H31 H 0.9415 0.4619 0.8137
H32 H 0.9261 0.4572 0.9362
H33 H 1.0631 0.4053 0.8477
loop_
_geom_bond_atom_site_label_1
_geom_bond_atom_site_label_2
_geom_bond_site_symmetry_1
_geom_bond_site_symmetry_2
Cd1 O1 1_555 1_555
Cd2 O14 1_555 1_555
Mo1 O2 1_555 1_555
Mo2 O1 1_555 1_555
Mo3 O7 1_555 1_555
Mo4 O6 1_555 1_555
O2 Cd1 1_555 1_555
O3 Mo2 1_555 1_555
O4 Mo1 1_555 1_555
O5 Mo1 1_555 1_555
O6 Mo1 1_555 1_555
O7 Mo1 1_555 1_555
O8 Mo3 1_555 1_555
O9 Mo3 1_555 1_555
O10 Mo2 1_555 1_555
O11 Mo1 1_555 1_555
O12 Mo4 1_555 1_555
O13 Mo2 1_555 1_555
O14 C13 1_555 1_555
O15 Cd2 1_555 1_555
O16 C19 1_555 1_555
N1 Cd1 1_555 1_555
N2 Cd2 1_555 1_555
N3 C13 1_555 1_555
N4 C16 1_555 1_555
N5 C19 1_555 1_555
C1 N1 1_555 1_555
H1 C1 1_555 1_555
C2 C1 1_555 1_555
H2 C2 1_555 1_555
C3 C2 1_555 1_555
C4 C3 1_555 1_555
H3 C4 1_555 1_555
C5 N1 1_555 1_555
H4 C5 1_555 1_555
C6 C3 1_555 1_555
H5 C6 1_555 1_555
H6 C6 1_555 1_555
C7 N2 1_555 1_555
H7 C7 1_555 1_555
C8 C7 1_555 1_555
H8 C8 1_555 1_555
C9 C8 1_555 1_555
C10 C9 1_555 1_555
H9 C10 1_555 1_555
C11 N2 1_555 1_555
H10 C11 1_555 1_555
C12 C9 1_555 1_555
H11 C12 1_555 1_555
H12 C12 1_555 1_555
C13 H13 1_555 1_555
C14 N3 1_555 1_555
H14 C14 1_555 1_555
H15 C14 1_555 1_555
H16 C14 1_555 1_555
C15 N3 1_555 1_555
H17 C15 1_555 1_555
H18 C15 1_555 1_555
H19 C15 1_555 1_555
C16 O15 1_555 1_555
H20 C16 1_555 1_555
C17 N4 1_555 1_555
H21 C17 1_555 1_555
H22 C17 1_555 1_555
H23 C17 1_555 1_555
C18 N4 1_555 1_555
H24 C18 1_555 1_555
H25 C18 1_555 1_555
H26 C18 1_555 1_555
C19 H27 1_555 1_555
C20 N5 1_555 1_555
H28 C20 1_555 1_555
H29 C20 1_555 1_555
H30 C20 1_555 1_555
C21 N5 1_555 1_555
H31 C21 1_555 1_555
H32 C21 1_555 1_555
H33 C21 1_555 1_555
Cd1_2 N1A 1_555 1_555
Cd1_3 O1A_2 1_555 1_555
Cd2_2 N2A 1_555 1_555
Mo1A O2A_2 1_555 1_555
Mo2A O1A_2 1_555 1_555
Mo3A O10 1_555 1_555
Mo4A O11 1_555 1_555
O1A Cd1 1_555 1_555
O2A Cd1 1_555 1_555
O2A_2 Cd1_3 1_555 1_555
O3A Mo2A 1_555 1_555
O4A Mo1A 1_555 1_555
O5A Mo1A 1_555 1_555
O6A Mo1A 1_555 1_555
O7A Mo1A 1_555 1_555
O8A Mo3A 1_555 1_555
O9A Mo3A 1_555 1_555
O10A Mo3 1_555 1_555
O11A Mo4 1_555 1_555
O12A Mo4A 1_555 1_555
O13A Mo3 1_555 1_555
O14A Cd2 1_555 1_555
O15A Cd2 1_555 1_555
N1A C1A 1_555 1_555
N1A_2 Cd1 1_555 1_555
N1_2 Cd1_3 1_555 1_555
N1A_3 Cd1_3 1_555 1_555
N2A C7A 1_555 1_555
N2A_2 Cd2 1_555 1_555
N3A C13A 1_555 1_555
N4A C16A 1_555 1_555
C1A H1A 1_555 1_555
C2A C1A 1_555 1_555
H2A C2A 1_555 1_555
C3A C2A 1_555 1_555
C4A C3A 1_555 1_555
H3A C4A 1_555 1_555
C5A N1A 1_555 1_555
H4A C5A 1_555 1_555
C6A C6 1_555 1_555
H5A C6A 1_555 1_555
H6A C6A 1_555 1_555
C7A H7A 1_555 1_555
C8A C7A 1_555 1_555
H8A C8A 1_555 1_555
C9A C8A 1_555 1_555
C10A C9A 1_555 1_555
H9A C10A 1_555 1_555
C11A N2A 1_555 1_555
H10A C11A 1_555 1_555
C12A C12 1_555 1_555
H11A C12A 1_555 1_555
H12A C12A 1_555 1_555
C13A O14A 1_555 1_555
H13A C13A 1_555 1_555
C14A N3A 1_555 1_555
H14A C14A 1_555 1_555
H15A C14A 1_555 1_555
H16A C14A 1_555 1_555
C15A N3A 1_555 1_555
H17A C15A 1_555 1_555
H18A C15A 1_555 1_555
H19A C15A 1_555 1_555
C16A O15A 1_555 1_555
H20A C16A 1_555 1_555
C17A N4A 1_555 1_555
H21A C17A 1_555 1_555
H22A C17A 1_555 1_555
H23A C17A 1_555 1_555
C18A N4A 1_555 1_555
H24A C18A 1_555 1_555
H25A C18A 1_555 1_555
H26A C18A 1_555 1_555
Mo2 O4 1_555 1_555
Mo2 O6 1_555 1_555
Mo3 O11 1_555 1_555
Mo4 O13A 1_555 1_555
O13 Mo3A 1_555 1_555
O13 Mo4A 1_555 1_555
C4 C5 1_555 1_555
C10 C11 1_555 1_555
Mo1A O11A 1_555 1_555
Mo2A O4A 1_555 1_555
Mo2A O6A 1_555 1_555
Mo2A O10A 1_555 1_555
Mo2A O13A 1_555 1_555
Mo3A O7A 1_555 1_555
Mo3A O11A 1_555 1_555
Mo4A O6A 1_555 1_555
C3A C6A 1_555 1_555
C4A C5A 1_555 1_555
C9A C12A 1_555 1_555
C10A C11A 1_555 1_555

#END
