
#######################################################################
#
#                 Cambridge Crystallographic Data Centre
#                                CCDC 
#
#######################################################################
#
# If this CIF has been generated from an entry in the Cambridge 
# Structural Database, then it will include bibliographic, chemical, 
# crystal, experimental, refinement or atomic coordinate data resulting 
# from the CCDC's data processing and validation procedures.
#
#######################################################################

data_SEFVEG02
_symmetry_cell_setting           cubic
_symmetry_space_group_name_H-M   'I -4 3 m'
_symmetry_Int_Tables_number      217
_space_group_name_Hall           'I -4 2 3'
loop_
_symmetry_equiv_pos_site_id
_symmetry_equiv_pos_as_xyz
1 x,y,z
2 -x,-y,z
3 -x,y,-z
4 x,-y,-z
5 z,x,y
6 z,-x,-y
7 -z,-x,y
8 -z,x,-y
9 y,z,x
10 -y,z,-x
11 y,-z,-x
12 -y,-z,x
13 y,x,z
14 -y,-x,z
15 y,-x,-z
16 -y,x,-z
17 x,z,y
18 -x,z,-y
19 -x,-z,y
20 x,-z,-y
21 z,y,x
22 z,-y,-x
23 -z,y,-x
24 -z,-y,x
25 1/2+x,1/2+y,1/2+z
26 1/2-x,1/2-y,1/2+z
27 1/2-x,1/2+y,1/2-z
28 1/2+x,1/2-y,1/2-z
29 1/2+z,1/2+x,1/2+y
30 1/2+z,1/2-x,1/2-y
31 1/2-z,1/2-x,1/2+y
32 1/2-z,1/2+x,1/2-y
33 1/2+y,1/2+z,1/2+x
34 1/2-y,1/2+z,1/2-x
35 1/2+y,1/2-z,1/2-x
36 1/2-y,1/2-z,1/2+x
37 1/2+y,1/2+x,1/2+z
38 1/2-y,1/2-x,1/2+z
39 1/2+y,1/2-x,1/2-z
40 1/2-y,1/2+x,1/2-z
41 1/2+x,1/2+z,1/2+y
42 1/2-x,1/2+z,1/2-y
43 1/2-x,1/2-z,1/2+y
44 1/2+x,1/2-z,1/2-y
45 1/2+z,1/2+y,1/2+x
46 1/2+z,1/2-y,1/2-x
47 1/2-z,1/2+y,1/2-x
48 1/2-z,1/2-y,1/2+x
_cell_length_a                   17.133(2)
_cell_length_b                   17.133(2)
_cell_length_c                   17.133(2)
_cell_angle_alpha                90
_cell_angle_beta                 90
_cell_angle_gamma                90
_cell_volume                     5029.22
loop_
_atom_site_label
_atom_site_type_symbol
_atom_site_fract_x
_atom_site_fract_y
_atom_site_fract_z
Zn1 Zn 0.0000 0.7500 0.5000
C1 C -0.01000(15) 0.63219(15) 0.3678(3)
N1 N 0.03314(13) 0.68114(13) 0.41128(13)
C2 C 0.10931(18) 0.6661(2) 0.39010(17)
H1 H 0.1542 0.6908 0.4112
C3 C -0.0978(2) 0.6260(2) 0.3740(3)
H2 H -0.1221 0.6626 0.3374
H3 H -0.1141 0.6387 0.4273
Zn1Q Zn 0.0000 0.5000 0.2500
Zn1P Zn 0.0000 0.5000 0.7500
Zn1L Zn -0.2500 1.0000 0.5000
Zn1A Zn 0.0000 1.2500 0.5000
C1B C 0.01000(15) 0.63219(15) 0.6322(3)
C1SA C -0.1322(3) 0.86781(15) 0.51000(15)
C1IA C -0.13219(15) 1.1322(3) 0.49000(15)
N1S N 0.03314(13) 0.58872(13) 0.31886(13)
N1B N -0.03314(13) 0.68114(13) 0.58872(13)
N1R N -0.03314(13) 0.58872(13) 0.68114(13)
N1SA N -0.08872(13) 0.81886(13) 0.46686(13)
N1GA N -0.18114(13) 0.91128(13) 0.46686(13)
N1UA N 0.08872(13) 0.81886(13) 0.53314(13)
N1IA N -0.18114(13) 1.08872(13) 0.53314(13)
N1RA N -0.08872(13) 1.18114(13) 0.53314(13)
N1N N -0.31886(13) 0.96686(13) 0.58872(13)
N1L N -0.31886(13) 1.03314(13) 0.41128(13)
C2S C 0.10931(18) 0.60990(17) 0.3339(2)
C2B C -0.10931(18) 0.6661(2) 0.60990(17)
C2R C -0.10931(18) 0.60990(17) 0.6661(2)
C2SA C -0.10990(17) 0.8339(2) 0.39069(18)
C2GA C -0.1661(2) 0.89010(17) 0.39069(18)
C2IA C -0.1661(2) 1.10990(17) 0.60931(18)
C2RA C -0.10990(17) 1.1661(2) 0.60931(18)
H1S H 0.1542 0.5888 0.3092
H1B H -0.1542 0.6908 0.5888
H1R H -0.1542 0.5888 0.6908
H1SA H -0.0888 0.8092 0.3458
H1GA H -0.1908 0.9112 0.3458
H1IA H -0.1908 1.0888 0.6542
H1RA H -0.0888 1.1908 0.6542
C3B C 0.0978(2) 0.6260(2) 0.6260(3)
C3GA C -0.1260(2) 0.8740(3) 0.5978(2)
C3IA C -0.1260(2) 1.1260(3) 0.4022(2)
H2B H 0.1221 0.6626 0.6626
H2GA H -0.1626 0.8374 0.6221
H2IA H -0.1626 1.1626 0.3779
H3S H -0.1141 0.5727 0.3613
H3B H 0.1141 0.6387 0.5727
H3R H 0.1141 0.5727 0.6387
H3SA H -0.0727 0.8613 0.6141
H3GA H -0.1387 0.9273 0.6141
H3IA H -0.1387 1.0727 0.3859
H3RA H -0.0727 1.1387 0.3859
N2 N 0.0000 0.0000 0.5307(4)
N2B N 0.0000 0.0000 0.4693(4)
N3 N 0.2730(3) 0.2730(3) 0.4724(4)
N4 N 0.2827(4) 0.2827(4) 0.4222(5)
N5 N 0.3078(6) 0.3078(6) 0.6922(6)
N6 N 0.3356(7) 0.3356(7) 0.6644(7)
N7 N 0.2510(4) 0.4854(5) 0.5146(5)
N7C N 0.2510(4) 0.5146(5) 0.4854(5)
N8? N 0.5271(18) 0.4729(18) 0.5271(18)
loop_
_geom_bond_atom_site_label_1
_geom_bond_atom_site_label_2
_geom_bond_site_symmetry_1
_geom_bond_site_symmetry_2
Zn1 N1 1_555 1_555
C1 N1 1_555 1_555
N1 C2 1_555 1_555
C2 H1 1_555 1_555
C3 C1 1_555 1_555
H2 C3 1_555 1_555
H3 C3 1_555 1_555
N2 N2B 1_555 1_555
N3 N4 1_555 1_555
N5 N6 1_555 1_555
N7 N7C 1_555 1_555
Zn1Q N1S 1_555 1_555
Zn1P N1R 1_555 1_555
Zn1L N1GA 1_555 1_555
Zn1A N1RA 1_555 1_555
C1B N1B 1_555 1_555
C1SA N1SA 1_555 1_555
C1IA N1IA 1_555 1_555
N1S C1 1_555 1_555
N1B Zn1 1_555 1_555
N1R C1B 1_555 1_555
N1SA Zn1 1_555 1_555
N1GA C1SA 1_555 1_555
N1UA Zn1 1_555 1_555
N1IA Zn1L 1_555 1_555
N1RA C1IA 1_555 1_555
N1N Zn1L 1_555 1_555
N1L Zn1L 1_555 1_555
C2S C2 1_555 1_555
C2B N1B 1_555 1_555
C2R N1R 1_555 1_555
C2SA N1SA 1_555 1_555
C2GA N1GA 1_555 1_555
C2IA N1IA 1_555 1_555
C2RA N1RA 1_555 1_555
H1S C2S 1_555 1_555
H1B C2B 1_555 1_555
H1R C2R 1_555 1_555
H1SA C2SA 1_555 1_555
H1GA C2GA 1_555 1_555
H1IA C2IA 1_555 1_555
H1RA C2RA 1_555 1_555
C3B C1B 1_555 1_555
C3GA C1SA 1_555 1_555
C3IA C1IA 1_555 1_555
H2B C3B 1_555 1_555
H2GA C3GA 1_555 1_555
H2IA C3IA 1_555 1_555
H3S C3 1_555 1_555
H3B C3B 1_555 1_555
H3R C3B 1_555 1_555
H3SA C3GA 1_555 1_555
H3GA C3GA 1_555 1_555
H3IA C3IA 1_555 1_555
H3RA C3IA 1_555 1_555
N1S C2S 1_555 1_555
C2B C2R 1_555 1_555
C2SA C2GA 1_555 1_555
C2IA C2RA 1_555 1_555

#END
