
#######################################################################
#
#                 Cambridge Crystallographic Data Centre
#                                CCDC 
#
#######################################################################
#
# If this CIF has been generated from an entry in the Cambridge 
# Structural Database, then it will include bibliographic, chemical, 
# crystal, experimental, refinement or atomic coordinate data resulting 
# from the CCDC's data processing and validation procedures.
#
#######################################################################

data_SEFVEG
_symmetry_cell_setting           cubic
_symmetry_space_group_name_H-M   'I -4 3 m'
_symmetry_Int_Tables_number      217
_space_group_name_Hall           'I -4 2 3'
loop_
_symmetry_equiv_pos_site_id
_symmetry_equiv_pos_as_xyz
1 x,y,z
2 -x,-y,z
3 -x,y,-z
4 x,-y,-z
5 z,x,y
6 z,-x,-y
7 -z,-x,y
8 -z,x,-y
9 y,z,x
10 -y,z,-x
11 y,-z,-x
12 -y,-z,x
13 y,x,z
14 -y,-x,z
15 y,-x,-z
16 -y,x,-z
17 x,z,y
18 -x,z,-y
19 -x,-z,y
20 x,-z,-y
21 z,y,x
22 z,-y,-x
23 -z,y,-x
24 -z,-y,x
25 1/2+x,1/2+y,1/2+z
26 1/2-x,1/2-y,1/2+z
27 1/2-x,1/2+y,1/2-z
28 1/2+x,1/2-y,1/2-z
29 1/2+z,1/2+x,1/2+y
30 1/2+z,1/2-x,1/2-y
31 1/2-z,1/2-x,1/2+y
32 1/2-z,1/2+x,1/2-y
33 1/2+y,1/2+z,1/2+x
34 1/2-y,1/2+z,1/2-x
35 1/2+y,1/2-z,1/2-x
36 1/2-y,1/2-z,1/2+x
37 1/2+y,1/2+x,1/2+z
38 1/2-y,1/2-x,1/2+z
39 1/2+y,1/2-x,1/2-z
40 1/2-y,1/2+x,1/2-z
41 1/2+x,1/2+z,1/2+y
42 1/2-x,1/2+z,1/2-y
43 1/2-x,1/2-z,1/2+y
44 1/2+x,1/2-z,1/2-y
45 1/2+z,1/2+y,1/2+x
46 1/2+z,1/2-y,1/2-x
47 1/2-z,1/2+y,1/2-x
48 1/2-z,1/2-y,1/2+x
_cell_length_a                   17.1236(19)
_cell_length_b                   17.1236(19)
_cell_length_c                   17.1236(19)
_cell_angle_alpha                90
_cell_angle_beta                 90
_cell_angle_gamma                90
_cell_volume                     5020.94
loop_
_atom_site_label
_atom_site_type_symbol
_atom_site_fract_x
_atom_site_fract_y
_atom_site_fract_z
Zn1 Zn 0.0000 0.7500 0.5000
C1 C -0.00990(12) 0.63224(12) 0.3678(3)
N1 N 0.03302(11) 0.68104(11) 0.41158(12)
C2 C 0.10911(16) 0.66618(17) 0.38997(15)
H1 H 0.1541 0.6910 0.4108
C3 C -0.09780(17) 0.62615(17) 0.3739(3)
H2 H -0.1220 0.6627 0.3371
H3 H -0.1141 0.6388 0.4272
Zn1Q Zn 0.0000 0.5000 0.2500
Zn1P Zn 0.0000 0.5000 0.7500
Zn1L Zn -0.2500 1.0000 0.5000
Zn1A Zn 0.0000 1.2500 0.5000
C1B C 0.00990(12) 0.63224(12) 0.6322(3)
C1SA C -0.1322(3) 0.86776(12) 0.50990(12)
C1IA C -0.13224(12) 1.1322(3) 0.49010(12)
N1S N 0.03302(11) 0.58842(12) 0.31896(11)
N1B N -0.03302(11) 0.68104(11) 0.58842(12)
N1R N -0.03302(11) 0.58842(12) 0.68104(11)
N1SA N -0.08842(12) 0.81896(11) 0.46698(11)
N1GA N -0.18104(11) 0.91158(12) 0.46698(11)
N1UA N 0.08842(12) 0.81896(11) 0.53302(11)
N1IA N -0.18104(11) 1.08842(12) 0.53302(11)
N1RA N -0.08842(12) 1.18104(11) 0.53302(11)
N1N N -0.31896(11) 0.96698(11) 0.58842(12)
N1L N -0.31896(11) 1.03302(11) 0.41158(12)
C2S C 0.10911(16) 0.61003(15) 0.33382(17)
C2B C -0.10911(16) 0.66618(17) 0.61003(15)
C2R C -0.10911(16) 0.61003(15) 0.66618(17)
C2SA C -0.11003(15) 0.83382(17) 0.39089(16)
C2GA C -0.16618(17) 0.88997(15) 0.39089(16)
C2IA C -0.16618(17) 1.11003(15) 0.60911(16)
C2RA C -0.11003(15) 1.16618(17) 0.60911(16)
H1S H 0.1541 0.5892 0.3090
H1B H -0.1541 0.6910 0.5892
H1R H -0.1541 0.5892 0.6910
H1SA H -0.0892 0.8090 0.3459
H1GA H -0.1910 0.9108 0.3459
H1IA H -0.1910 1.0892 0.6541
H1RA H -0.0892 1.1910 0.6541
C3B C 0.09780(17) 0.62615(17) 0.6261(3)
C3SA C -0.1261(3) 0.87385(17) 0.59780(17)
C3IA C -0.12615(17) 1.1261(3) 0.40220(17)
H2B H 0.1220 0.6627 0.6629
H2SA H -0.1629 0.8373 0.6220
H2IA H -0.1627 1.1629 0.3780
H3S H -0.1141 0.5728 0.3612
H3B H 0.1141 0.6388 0.5728
H3R H 0.1141 0.5728 0.6388
H3SA H -0.0728 0.8612 0.6141
H3GA H -0.1388 0.9272 0.6141
H3IA H -0.1388 1.0728 0.3859
H3RA H -0.0728 1.1388 0.3859
N2 N 0.0000 0.0000 0.5306(4)
N2B N 0.0000 0.0000 0.4694(4)
N3 N 0.2730(2) 0.2730(2) 0.4729(3)
N4 N 0.2822(3) 0.2822(3) 0.4222(4)
N5 N 0.3076(6) 0.3076(6) 0.6924(6)
N6 N 0.3356(7) 0.3356(7) 0.6644(7)
N7 N 0.2513(4) 0.4851(5) 0.5149(5)
N7C N 0.2513(4) 0.5149(5) 0.4851(5)
N8? N 0.5279(17) 0.4721(17) 0.5279(17)
loop_
_geom_bond_atom_site_label_1
_geom_bond_atom_site_label_2
_geom_bond_site_symmetry_1
_geom_bond_site_symmetry_2
Zn1 N1 1_555 1_555
C1 N1 1_555 1_555
N1 C2 1_555 1_555
C2 H1 1_555 1_555
C3 C1 1_555 1_555
H2 C3 1_555 1_555
H3 C3 1_555 1_555
N2 N2B 1_555 1_555
N3 N4 1_555 1_555
N5 N6 1_555 1_555
N7 N7C 1_555 1_555
Zn1Q N1S 1_555 1_555
Zn1P N1R 1_555 1_555
Zn1L N1GA 1_555 1_555
Zn1A N1RA 1_555 1_555
C1B N1B 1_555 1_555
C1SA N1SA 1_555 1_555
C1IA N1IA 1_555 1_555
N1S C1 1_555 1_555
N1B Zn1 1_555 1_555
N1R C1B 1_555 1_555
N1SA Zn1 1_555 1_555
N1GA C1SA 1_555 1_555
N1UA Zn1 1_555 1_555
N1IA Zn1L 1_555 1_555
N1RA C1IA 1_555 1_555
N1N Zn1L 1_555 1_555
N1L Zn1L 1_555 1_555
C2S C2 1_555 1_555
C2B N1B 1_555 1_555
C2R N1R 1_555 1_555
C2SA N1SA 1_555 1_555
C2GA N1GA 1_555 1_555
C2IA N1IA 1_555 1_555
C2RA N1RA 1_555 1_555
H1S C2S 1_555 1_555
H1B C2B 1_555 1_555
H1R C2R 1_555 1_555
H1SA C2SA 1_555 1_555
H1GA C2GA 1_555 1_555
H1IA C2IA 1_555 1_555
H1RA C2RA 1_555 1_555
C3B C1B 1_555 1_555
C3SA C1SA 1_555 1_555
C3IA C1IA 1_555 1_555
H2B C3B 1_555 1_555
H2SA C3SA 1_555 1_555
H2IA C3IA 1_555 1_555
H3S C3 1_555 1_555
H3B C3B 1_555 1_555
H3R C3B 1_555 1_555
H3SA C3SA 1_555 1_555
H3GA C3SA 1_555 1_555
H3IA C3IA 1_555 1_555
H3RA C3IA 1_555 1_555
N1S C2S 1_555 1_555
C2B C2R 1_555 1_555
C2SA C2GA 1_555 1_555
C2IA C2RA 1_555 1_555

#END
