
#######################################################################
#
#                 Cambridge Crystallographic Data Centre
#                                CCDC 
#
#######################################################################
#
# If this CIF has been generated from an entry in the Cambridge 
# Structural Database, then it will include bibliographic, chemical, 
# crystal, experimental, refinement or atomic coordinate data resulting 
# from the CCDC's data processing and validation procedures.
#
#######################################################################

data_SEFWUW
_symmetry_cell_setting           monoclinic
_symmetry_space_group_name_H-M   'C c'
_symmetry_Int_Tables_number      9
_space_group_name_Hall           'C -2yc'
loop_
_symmetry_equiv_pos_site_id
_symmetry_equiv_pos_as_xyz
1 x,y,z
2 x,-y,1/2+z
3 1/2+x,1/2+y,z
4 1/2+x,1/2-y,1/2+z
_cell_length_a                   13.3815(9)
_cell_length_b                   12.1282(9)
_cell_length_c                   10.2280(7)
_cell_angle_alpha                90
_cell_angle_beta                 102.2430(10)
_cell_angle_gamma                90
_cell_volume                     1622.19
loop_
_atom_site_label
_atom_site_type_symbol
_atom_site_fract_x
_atom_site_fract_y
_atom_site_fract_z
Ni1 Ni 0.13962(5) 0.25388(4) 0.71396(7)
O1 O 0.1135(3) 0.2600(2) 0.9058(4)
H1 H 0.070(3) 0.213(3) 0.913(4)
H2 H 0.149(3) 0.285(3) 0.976(3)
O2 O 0.2769(2) 0.3349(2) 0.7718(3)
H3 H 0.315(3) 0.342(4) 0.714(3)
H4 H 0.300(3) 0.379(3) 0.836(3)
O3 O 0.1579(3) 0.2474(2) 0.5187(4)
H5 H 0.204(3) 0.278(3) 0.485(4)
H6 H 0.131(3) 0.198(3) 0.463(3)
O4 O -0.0010(2) 0.1713(2) 0.6608(3)
H7 H -0.021(3) 0.146(3) 0.728(3)
H8 H -0.028(3) 0.129(3) 0.597(3)
N1 N 0.2162(2) 0.1037(3) 0.7545(3)
N2 N 0.5604(3) 0.0979(3) 1.1724(3)
C1 C 0.2902(3) 0.0939(3) 0.8659(4)
H13 H 0.3044 0.1545 0.9224
C2 C 0.3463(3) -0.0017(3) 0.9010(4)
C3 C 0.3257(3) -0.0922(3) 0.8165(4)
H14 H 0.3625 -0.1573 0.8363
C4 C 0.2491(3) -0.0838(3) 0.7018(4)
H15 H 0.2329 -0.1437 0.6445
C5 C 0.1974(3) 0.0150(3) 0.6742(4)
H16 H 0.1471 0.0204 0.5962
C6 C 0.4871(3) 0.0908(3) 1.0622(4)
H17 H 0.4746 0.1524 1.0069
C7 C 0.4282(3) -0.0029(3) 1.0246(4)
C8 C 0.4489(3) -0.0957(3) 1.1070(4)
H18 H 0.4124 -0.1608 1.0850
C9 C 0.5247(3) -0.0888(3) 1.2216(4)
H19 H 0.5393 -0.1495 1.2779
C10 C 0.5791(3) 0.0084(3) 1.2529(4)
H20 H 0.6295 0.0121 1.3309
Ni1C Ni 0.63962(5) 0.24612(4) 1.21396(7)
N2C N 0.0604(3) 0.4021(3) 0.6724(3)
S1 S 0.38201(8) 0.58692(6) 0.97294(10)
O5 O 0.40885(19) 0.63712(19) 1.1071(2)
O6 O 0.46805(19) 0.60260(19) 0.9034(3)
O7 O 0.28817(19) 0.6380(2) 0.8949(2)
O8 O 0.36621(18) 0.46646(17) 0.9848(3)
O9 O 0.0486(2) 0.1042(2) 0.3486(3)
H9 H 0.020(3) 0.111(4) 0.268(2)
H10 H 0.021(3) 0.045(2) 0.370(4)
O10 O 0.2377(2) 0.3551(3) 0.1129(3)
H11 H 0.255(3) 0.356(4) 0.1977(19)
H12 H 0.280(3) 0.396(3) 0.085(4)
loop_
_geom_bond_atom_site_label_1
_geom_bond_atom_site_label_2
_geom_bond_site_symmetry_1
_geom_bond_site_symmetry_2
Ni1 O1 1_555 1_555
S1 O5 1_555 1_555
O1 H1 1_555 1_555
H2 O1 1_555 1_555
O2 Ni1 1_555 1_555
H3 O2 1_555 1_555
H4 O2 1_555 1_555
O3 Ni1 1_555 1_555
H5 O3 1_555 1_555
H6 O3 1_555 1_555
O4 Ni1 1_555 1_555
H7 O4 1_555 1_555
H8 O4 1_555 1_555
O6 S1 1_555 1_555
O7 S1 1_555 1_555
O8 S1 1_555 1_555
O9 H9 1_555 1_555
H10 O9 1_555 1_555
O10 H11 1_555 1_555
H12 O10 1_555 1_555
N1 Ni1 1_555 1_555
N2 C6 1_555 1_555
C1 N1 1_555 1_555
H13 C1 1_555 1_555
C2 C1 1_555 1_555
C3 C2 1_555 1_555
H14 C3 1_555 1_555
C4 C3 1_555 1_555
H15 C4 1_555 1_555
C5 N1 1_555 1_555
H16 C5 1_555 1_555
C6 H17 1_555 1_555
C7 C2 1_555 1_555
C8 C7 1_555 1_555
H18 C8 1_555 1_555
C9 C8 1_555 1_555
H19 C9 1_555 1_555
C10 N2 1_555 1_555
H20 C10 1_555 1_555
Ni1C N2 1_555 1_555
N2C Ni1 1_555 1_555
C4 C5 1_555 1_555
C6 C7 1_555 1_555
C9 C10 1_555 1_555

#END
