
#######################################################################
#
#                 Cambridge Crystallographic Data Centre
#                                CCDC 
#
#######################################################################
#
# If this CIF has been generated from an entry in the Cambridge 
# Structural Database, then it will include bibliographic, chemical, 
# crystal, experimental, refinement or atomic coordinate data resulting 
# from the CCDC's data processing and validation procedures.
#
#######################################################################

data_SEFWAD
_symmetry_cell_setting           cubic
_symmetry_space_group_name_H-M   'I -4 3 m'
_symmetry_Int_Tables_number      217
_space_group_name_Hall           'I -4 2 3'
loop_
_symmetry_equiv_pos_site_id
_symmetry_equiv_pos_as_xyz
1 x,y,z
2 -x,-y,z
3 -x,y,-z
4 x,-y,-z
5 z,x,y
6 z,-x,-y
7 -z,-x,y
8 -z,x,-y
9 y,z,x
10 -y,z,-x
11 y,-z,-x
12 -y,-z,x
13 y,x,z
14 -y,-x,z
15 y,-x,-z
16 -y,x,-z
17 x,z,y
18 -x,z,-y
19 -x,-z,y
20 x,-z,-y
21 z,y,x
22 z,-y,-x
23 -z,y,-x
24 -z,-y,x
25 1/2+x,1/2+y,1/2+z
26 1/2-x,1/2-y,1/2+z
27 1/2-x,1/2+y,1/2-z
28 1/2+x,1/2-y,1/2-z
29 1/2+z,1/2+x,1/2+y
30 1/2+z,1/2-x,1/2-y
31 1/2-z,1/2-x,1/2+y
32 1/2-z,1/2+x,1/2-y
33 1/2+y,1/2+z,1/2+x
34 1/2-y,1/2+z,1/2-x
35 1/2+y,1/2-z,1/2-x
36 1/2-y,1/2-z,1/2+x
37 1/2+y,1/2+x,1/2+z
38 1/2-y,1/2-x,1/2+z
39 1/2+y,1/2-x,1/2-z
40 1/2-y,1/2+x,1/2-z
41 1/2+x,1/2+z,1/2+y
42 1/2-x,1/2+z,1/2-y
43 1/2-x,1/2-z,1/2+y
44 1/2+x,1/2-z,1/2-y
45 1/2+z,1/2+y,1/2+x
46 1/2+z,1/2-y,1/2-x
47 1/2-z,1/2+y,1/2-x
48 1/2-z,1/2-y,1/2+x
_cell_length_a                   17.082(2)
_cell_length_b                   17.082(2)
_cell_length_c                   17.082(2)
_cell_angle_alpha                90
_cell_angle_beta                 90
_cell_angle_gamma                90
_cell_volume                     4984.44
loop_
_atom_site_label
_atom_site_type_symbol
_atom_site_fract_x
_atom_site_fract_y
_atom_site_fract_z
N3 N 0.0000 0.0000 0.5319(7)
N3B N 0.0000 0.0000 0.4681(7)
N4 N 0.2722(6) 0.2722(6) 0.4779(15)
N5 N 0.2912(9) 0.2912(9) 0.443(2)
N6 N 0.2981(12) 0.2981(12) 0.7019(12)
N7 N 0.320(3) 0.320(3) 0.680(3)
N8 N 0.2498(8) 0.4861(13) 0.5139(13)
N8C N 0.2498(8) 0.5139(13) 0.4861(13)
Zn1 Zn 0.0000 0.7500 0.5000
C1 C -0.0135(2) 0.6325(2) 0.3675(4)
N1 N 0.03002(18) 0.68066(18) 0.41094(19)
C2 C 0.1055(3) 0.6649(3) 0.3900(3)
H1 H 0.1508 0.6893 0.4113
C3 C -0.1012(4) 0.6307(4) 0.3693(5)
H2 H -0.1220 0.6682 0.3312
H3 H -0.1196 0.6447 0.4218
H4 H -0.1196 0.5779 0.3561
Zn1Q Zn 0.0000 0.5000 0.2500
Zn1P Zn 0.0000 0.5000 0.7500
Zn1L Zn -0.2500 1.0000 0.5000
Zn1A Zn 0.0000 1.2500 0.5000
C1B C 0.0135(2) 0.6325(2) 0.6325(4)
C1GA C -0.1325(2) 0.8675(4) 0.5135(2)
C1IA C -0.1325(2) 1.1325(4) 0.4865(2)
N1S N 0.03002(18) 0.58906(19) 0.31934(18)
N1B N -0.03002(18) 0.68066(18) 0.58906(19)
N1R N -0.03002(18) 0.58906(19) 0.68066(18)
N1SA N -0.08906(19) 0.81934(18) 0.46998(18)
N1GA N -0.18066(18) 0.91094(19) 0.46998(18)
N1UA N 0.08906(19) 0.81934(18) 0.53002(18)
N1IA N -0.18066(18) 1.08906(19) 0.53002(18)
N1RA N -0.08906(19) 1.18066(18) 0.53002(18)
N1N N -0.31934(18) 0.96998(18) 0.58906(19)
N1L N -0.31934(18) 1.03002(18) 0.41094(19)
C2S C 0.1055(3) 0.6100(3) 0.3351(3)
C2B C -0.1055(3) 0.6649(3) 0.6100(3)
C2R C -0.1055(3) 0.6100(3) 0.6649(3)
C2SA C -0.1100(3) 0.8351(3) 0.3945(3)
C2GA C -0.1649(3) 0.8900(3) 0.3945(3)
C2IA C -0.1649(3) 1.1100(3) 0.6055(3)
C2RA C -0.1100(3) 1.1649(3) 0.6055(3)
H1S H 0.1508 0.5887 0.3107
H1B H -0.1508 0.6893 0.5887
H1R H -0.1508 0.5887 0.6893
H1SA H -0.0887 0.8107 0.3492
H1GA H -0.1893 0.9113 0.3492
H1IA H -0.1893 1.0887 0.6508
H1RA H -0.0887 1.1893 0.6508
C3B C 0.1012(4) 0.6307(4) 0.6307(5)
C3GA C -0.1307(4) 0.8693(5) 0.6012(4)
C3IA C -0.1307(4) 1.1307(5) 0.3988(4)
H2B H 0.1220 0.6682 0.6688
H2SA H -0.1688 0.8318 0.6220
H2IA H -0.1682 1.1688 0.3780
H3B H 0.1196 0.6447 0.5782
H3SA H -0.0782 0.8553 0.6196
H3IA H -0.1447 1.0782 0.3804
H4B H 0.1196 0.5779 0.6439
H4SA H -0.1439 0.9221 0.6196
H4IA H -0.0779 1.1439 0.3804
N2? N 0.1055(3) 0.6100(3) 0.3351(3)
N9? N 0.425(5) 0.575(5) 0.425(5)
N10? N 0.2653(11) 0.2653(11) 0.7347(11)
N11? N 0.460(5) 0.540(5) 0.460(5)
loop_
_geom_bond_atom_site_label_1
_geom_bond_atom_site_label_2
_geom_bond_site_symmetry_1
_geom_bond_site_symmetry_2
Zn1 N1 1_555 1_555
C1 N1 1_555 1_555
N1 C2 1_555 1_555
C2 H1 1_555 1_555
C3 C1 1_555 1_555
H2 C3 1_555 1_555
H3 C3 1_555 1_555
H4 C3 1_555 1_555
N3 N3B 1_555 1_555
N4 N5 1_555 1_555
N6 N7 1_555 1_555
N8 N8C 1_555 1_555
Zn1Q N1S 1_555 1_555
Zn1P N1R 1_555 1_555
Zn1L N1GA 1_555 1_555
Zn1A N1RA 1_555 1_555
C1B N1B 1_555 1_555
C1GA N1SA 1_555 1_555
C1IA N1IA 1_555 1_555
N1S C1 1_555 1_555
N1B Zn1 1_555 1_555
N1R C1B 1_555 1_555
N1SA Zn1 1_555 1_555
N1GA C1GA 1_555 1_555
N1UA Zn1 1_555 1_555
N1IA Zn1L 1_555 1_555
N1RA C1IA 1_555 1_555
N1N Zn1L 1_555 1_555
N1L Zn1L 1_555 1_555
C2S C2 1_555 1_555
C2B N1B 1_555 1_555
C2R N1R 1_555 1_555
C2SA N1SA 1_555 1_555
C2GA N1GA 1_555 1_555
C2IA N1IA 1_555 1_555
C2RA N1RA 1_555 1_555
H1S C2S 1_555 1_555
H1B C2B 1_555 1_555
H1R C2R 1_555 1_555
H1SA C2SA 1_555 1_555
H1GA C2GA 1_555 1_555
H1IA C2IA 1_555 1_555
H1RA C2RA 1_555 1_555
C3B C1B 1_555 1_555
C3GA C1GA 1_555 1_555
C3IA C1IA 1_555 1_555
H2B C3B 1_555 1_555
H2SA C3GA 1_555 1_555
H2IA C3IA 1_555 1_555
H3B C3B 1_555 1_555
H3SA C3GA 1_555 1_555
H3IA C3IA 1_555 1_555
H4B C3B 1_555 1_555
H4SA C3GA 1_555 1_555
H4IA C3IA 1_555 1_555
N1S C2S 1_555 1_555
C2B C2R 1_555 1_555
C2SA C2GA 1_555 1_555
C2IA C2RA 1_555 1_555

#END
