
#######################################################################
#
#                 Cambridge Crystallographic Data Centre
#                                CCDC 
#
#######################################################################
#
# If this CIF has been generated from an entry in the Cambridge 
# Structural Database, then it will include bibliographic, chemical, 
# crystal, experimental, refinement or atomic coordinate data resulting 
# from the CCDC's data processing and validation procedures.
#
#######################################################################

data_SEFXAE
_symmetry_cell_setting           monoclinic
_symmetry_space_group_name_H-M   'P 21/n'
_symmetry_Int_Tables_number      14
_space_group_name_Hall           '-P 2yn'
loop_
_symmetry_equiv_pos_site_id
_symmetry_equiv_pos_as_xyz
1 x,y,z
2 1/2-x,1/2+y,1/2-z
3 -x,-y,-z
4 1/2+x,1/2-y,1/2+z
_cell_length_a                   9.3251(2)
_cell_length_b                   25.2593(5)
_cell_length_c                   9.9285(3)
_cell_angle_alpha                90
_cell_angle_beta                 91.103(3)
_cell_angle_gamma                90
_cell_volume                     2338.18
loop_
_atom_site_label
_atom_site_type_symbol
_atom_site_fract_x
_atom_site_fract_y
_atom_site_fract_z
Mn1 Mn 0.06163(9) 0.15984(3) 0.02346(8)
O1 O -0.1224(4) 0.21420(12) 0.0231(3)
O2 O -0.0972(4) 0.09795(12) 0.0536(4)
O3 O -0.4046(4) 0.32136(12) -0.2648(3)
O4 O 0.1656(3) 0.08599(12) -0.0340(4)
O5 O -0.2274(4) 0.30246(13) -0.4615(3)
O6 O 0.0472(4) 0.19267(12) -0.1783(3)
C1 C -0.2992(5) 0.29258(16) -0.2350(5)
C2 C -0.0738(5) 0.25063(18) -0.3269(5)
H1 H -0.0052 0.2467 -0.3957
C5 C -0.0584(5) 0.05116(17) 0.0289(5)
C6 C -0.1545(6) 0.23647(17) -0.0871(5)
C7 C -0.0527(5) 0.22508(17) -0.2037(5)
C10 C 0.0939(5) 0.04428(16) -0.0203(5)
C11 C -0.1955(5) 0.28198(17) -0.3499(5)
C15 C -0.2695(5) 0.27091(17) -0.1092(5)
H6 H -0.3291 0.2798 -0.0360
C16 C -0.1464(5) 0.00673(18) 0.0461(5)
H7 H -0.2420 0.0112 0.0754
Mn1B Mn -0.06163(9) -0.15984(3) -0.02346(8)
Mn1A Mn 0.43837(9) -0.34016(3) 0.47654(8)
Mn1C Mn -0.43837(9) 0.34016(3) -0.47654(8)
O1B O 0.1224(4) -0.21420(12) -0.0231(3)
O2B O 0.0972(4) -0.09795(12) -0.0536(4)
O3B O 0.4046(4) -0.32136(12) 0.2648(3)
O3A O -0.0954(4) -0.17864(12) -0.2352(3)
O3C O 0.0954(4) 0.17864(12) 0.2352(3)
O4B O -0.1656(3) -0.08599(12) 0.0340(4)
O5B O 0.2274(4) -0.30246(13) 0.4615(3)
O5A O -0.2726(4) -0.19754(13) -0.0385(3)
O5C O 0.2726(4) 0.19754(13) 0.0385(3)
O6B O -0.0472(4) -0.19267(12) 0.1783(3)
C1B C 0.2992(5) -0.29258(16) 0.2350(5)
C2B C 0.0738(5) -0.25063(18) 0.3269(5)
H1B H 0.0052 -0.2467 0.3957
C5B C 0.0584(5) -0.05116(17) -0.0289(5)
C6B C 0.1545(6) -0.23647(17) 0.0871(5)
C7B C 0.0527(5) -0.22508(17) 0.2037(5)
C10B C -0.0939(5) -0.04428(16) 0.0203(5)
C11B C 0.1955(5) -0.28198(17) 0.3499(5)
C15B C 0.2695(5) -0.27091(17) 0.1092(5)
H6B H 0.3291 -0.2798 0.0360
C16B C 0.1464(5) -0.00673(18) -0.0461(5)
H7B H 0.2420 -0.0112 -0.0754
P1 P 0.75295(14) 0.12793(5) 0.42983(14)
C3 C 0.7183(6) 0.11478(18) 0.7088(5)
H2 H 0.8019 0.0933 0.7090
C4 C 0.6681(5) 0.13764(17) 0.5886(5)
C8 C 0.6463(6) 0.12334(19) 0.8276(6)
H3 H 0.6804 0.1077 0.9091
C9 C 0.9262(5) 0.09906(17) 0.4522(5)
C12 C 0.6409(5) 0.08598(18) 0.3283(5)
C13 C 0.9753(6) 0.06184(19) 0.3591(6)
H4 H 0.9104 0.0461 0.2960
C14 C 0.5374(6) -0.0012(2) 0.2954(6)
H5 H 0.5304 -0.0374 0.3202
C17 C 0.5237(6) 0.1550(2) 0.8271(5)
H8 H 0.4743 0.1610 0.9086
C18 C 0.5459(5) 0.16916(19) 0.5907(6)
H9 H 0.5113 0.1850 0.5097
C19 C 1.0226(5) 0.11950(18) 0.5484(5)
H10 H 0.9897 0.1440 0.6134
C20 C 1.1181(6) 0.0483(2) 0.3597(6)
H11 H 1.1516 0.0233 0.2960
C21 C 0.6253(6) 0.03264(19) 0.3687(5)
H12 H 0.6755 0.0200 0.4465
C22 C 0.4741(6) 0.1777(2) 0.7088(6)
H13 H 0.3904 0.1991 0.7087
C23 C 0.7727(6) 0.19053(18) 0.3456(5)
H14 H 0.8345 0.2138 0.4003
H15 H 0.6783 0.2070 0.3330
H16 H 0.8161 0.1849 0.2576
C24 C 0.4694(6) 0.0706(2) 0.1479(6)
H17 H 0.4130 0.0835 0.0743
C25 C 1.1638(6) 0.1046(2) 0.5503(6)
H18 H 1.2276 0.1176 0.6184
C26 C 0.4601(6) 0.0178(2) 0.1865(6)
H19 H 0.3993 -0.0056 0.1367
C27 C 0.5619(5) 0.1041(2) 0.2178(5)
H20 H 0.5713 0.1399 0.1897
C28 C 1.2132(6) 0.0704(2) 0.4515(6)
H21 H 1.3125 0.0623 0.4473
loop_
_geom_bond_atom_site_label_1
_geom_bond_atom_site_label_2
_geom_bond_site_symmetry_1
_geom_bond_site_symmetry_2
Mn1 O1 1_555 1_555
P1 C4 1_555 1_555
O1 C6 1_555 1_555
O2 Mn1 1_555 1_555
O3 C1 1_555 1_555
O4 Mn1 1_555 1_555
O5 C11 1_555 1_555
O6 Mn1 1_555 1_555
C1 C11 1_555 1_555
C2 H1 1_555 1_555
C3 H2 1_555 1_555
C4 C3 1_555 1_555
C5 O2 1_555 1_555
C6 C7 1_555 1_555
C7 O6 1_555 1_555
C8 C3 1_555 1_555
H3 C8 1_555 1_555
C9 P1 1_555 1_555
C10 O4 1_555 1_555
C11 C2 1_555 1_555
C12 P1 1_555 1_555
C13 C9 1_555 1_555
H4 C13 1_555 1_555
C14 H5 1_555 1_555
C15 C1 1_555 1_555
H6 C15 1_555 1_555
C16 C5 1_555 1_555
H7 C16 1_555 1_555
C17 C8 1_555 1_555
H8 C17 1_555 1_555
C18 C4 1_555 1_555
H9 C18 1_555 1_555
C19 C9 1_555 1_555
H10 C19 1_555 1_555
C20 C13 1_555 1_555
H11 C20 1_555 1_555
C21 C12 1_555 1_555
H12 C21 1_555 1_555
C22 C17 1_555 1_555
H13 C22 1_555 1_555
C23 P1 1_555 1_555
H14 C23 1_555 1_555
H15 C23 1_555 1_555
H16 C23 1_555 1_555
C24 H17 1_555 1_555
C25 C19 1_555 1_555
H18 C25 1_555 1_555
C26 C14 1_555 1_555
H19 C26 1_555 1_555
C27 C12 1_555 1_555
H20 C27 1_555 1_555
C28 C20 1_555 1_555
H21 C28 1_555 1_555
Mn1B O1B 1_555 1_555
Mn1A O3B 1_555 1_555
Mn1C O3 1_555 1_555
O1B C6B 1_555 1_555
O2B Mn1B 1_555 1_555
O3B C1B 1_555 1_555
O3A Mn1B 1_555 1_555
O3C Mn1 1_555 1_555
O4B Mn1B 1_555 1_555
O5B Mn1A 1_555 1_555
O5A Mn1B 1_555 1_555
O5C Mn1 1_555 1_555
O6B Mn1B 1_555 1_555
C1B C11B 1_555 1_555
C2B H1B 1_555 1_555
C5B O2B 1_555 1_555
C6B C7B 1_555 1_555
C7B O6B 1_555 1_555
C10B C16 1_555 1_555
C11B O5B 1_555 1_555
C15B C1B 1_555 1_555
H6B C15B 1_555 1_555
C16B C10 1_555 1_555
H7B C16B 1_555 1_555
O5 Mn1C 1_555 1_555
C2 C7 1_555 1_555
C5 C10 1_555 1_555
C6 C15 1_555 1_555
C14 C21 1_555 1_555
C18 C22 1_555 1_555
C24 C26 1_555 1_555
C24 C27 1_555 1_555
C25 C28 1_555 1_555
O4B C10B 1_555 1_555
C2B C7B 1_555 1_555
C2B C11B 1_555 1_555
C5B C10B 1_555 1_555
C5B C16B 1_555 1_555
C6B C15B 1_555 1_555

#END
