
#######################################################################
#
#                 Cambridge Crystallographic Data Centre
#                                CCDC 
#
#######################################################################
#
# If this CIF has been generated from an entry in the Cambridge 
# Structural Database, then it will include bibliographic, chemical, 
# crystal, experimental, refinement or atomic coordinate data resulting 
# from the CCDC's data processing and validation procedures.
#
#######################################################################

data_SEFXEI
_symmetry_cell_setting           monoclinic
_symmetry_space_group_name_H-M   'P 21/n'
_symmetry_Int_Tables_number      14
_space_group_name_Hall           '-P 2yn'
loop_
_symmetry_equiv_pos_site_id
_symmetry_equiv_pos_as_xyz
1 x,y,z
2 1/2-x,1/2+y,1/2-z
3 -x,-y,-z
4 1/2+x,1/2-y,1/2+z
_cell_length_a                   9.3065(2)
_cell_length_b                   25.9378(5)
_cell_length_c                   9.9446(2)
_cell_angle_alpha                90
_cell_angle_beta                 90.278(2)
_cell_angle_gamma                90
_cell_volume                     2400.5
loop_
_atom_site_label
_atom_site_type_symbol
_atom_site_fract_x
_atom_site_fract_y
_atom_site_fract_z
Cd1 Cd 0.42957(8) 0.15819(3) 0.02125(7)
O1 O 0.3955(8) 0.1793(3) 0.2404(7)
O2 O 0.5967(8) 0.0958(3) 0.0525(7)
O3 O -0.0570(8) 0.3057(3) 0.3141(7)
O4 O 0.1200(8) 0.2858(3) 0.5208(7)
O5 O 0.3291(7) 0.0819(3) -0.0379(7)
O6 O 0.2106(8) 0.1965(3) 0.0390(7)
C2 C 0.0646(11) 0.2487(4) 0.1718(11)
H2 H -0.0039 0.2528 0.1015
C6 C 0.4036(10) 0.0450(4) -0.0286(11)
C7 C 0.3540(11) -0.0072(4) -0.0454(10)
H4 H 0.2560 -0.0126 -0.0685
C10 C 0.2600(11) 0.2298(4) 0.3915(10)
H7 H 0.3198 0.2211 0.4658
C11 C 0.2881(11) 0.2078(4) 0.2652(10)
C19 C 0.1839(11) 0.2169(4) 0.1496(10)
C23 C 0.5581(11) 0.0500(4) 0.0295(10)
C26 C 0.1459(11) 0.2641(4) 0.4100(10)
C27 C 0.0424(11) 0.2745(4) 0.2931(10)
Cd1B Cd 0.57043(8) -0.15819(3) -0.02125(7)
Cd1A Cd 1.07043(8) -0.34181(3) -0.52125(7)
Cd1C Cd -0.07043(8) 0.34181(3) 0.52125(7)
O1B O 0.6045(8) -0.1793(3) -0.2404(7)
O2B O 0.4033(8) -0.0958(3) -0.0525(7)
O3B O 1.0570(8) -0.3057(3) -0.3141(7)
O3A O 0.5570(8) -0.1943(3) 0.1859(7)
O3C O 0.4430(8) 0.1943(3) -0.1859(7)
O4B O 0.8800(8) -0.2858(3) -0.5208(7)
O4A O 0.3800(8) -0.2142(3) -0.0208(7)
O4C O 0.6200(8) 0.2142(3) 0.0208(7)
O5B O 0.6709(7) -0.0819(3) 0.0379(7)
O6B O 0.7894(8) -0.1965(3) -0.0390(7)
C2B C 0.9354(11) -0.2487(4) -0.1718(11)
H2B H 1.0039 -0.2528 -0.1015
C6B C 0.5964(10) -0.0450(4) 0.0286(11)
C7B C 0.6460(11) 0.0072(4) 0.0454(10)
H4B H 0.7440 0.0126 0.0685
C10B C 0.7400(11) -0.2298(4) -0.3915(10)
H7B H 0.6802 -0.2211 -0.4658
C11B C 0.7119(11) -0.2078(4) -0.2652(10)
C19B C 0.8161(11) -0.2169(4) -0.1496(10)
C23B C 0.4419(11) -0.0500(4) -0.0295(10)
C26B C 0.8541(11) -0.2641(4) -0.4100(10)
C27B C 0.9576(11) -0.2745(4) -0.2931(10)
P1 P 0.7437(2) 0.12779(10) -0.5750(3)
C1 C 0.9594(11) 0.0010(5) -0.7037(11)
H1 H 0.9674 -0.0341 -0.6773
C3 C 0.5196(11) 0.0630(4) -0.6418(10)
H3 H 0.5831 0.0472 -0.7040
C4 C 0.5712(9) 0.1004(4) -0.5536(8)
C5 C 0.8576(10) 0.0859(4) -0.6726(10)
C8 C 0.7787(11) 0.1134(4) -0.2983(11)
H5 H 0.6972 0.0914 -0.3013
C9 C 0.8698(11) 0.0345(4) -0.6333(10)
H6 H 0.8169 0.0222 -0.5584
C12 C 0.3312(11) 0.1060(4) -0.4570(11)
H8 H 0.2677 0.1197 -0.3915
C13 C 1.0175(12) 0.1773(5) -0.2884(13)
H9 H 1.0997 0.1990 -0.2848
C14 C 0.8511(12) 0.1224(5) -0.1771(11)
H10 H 0.8180 0.1066 -0.0968
C15 C 0.4745(10) 0.1217(4) -0.4603(10)
H11 H 0.5074 0.1471 -0.3987
C16 C 1.0266(11) 0.0705(5) -0.8522(11)
H12 H 1.0816 0.0828 -0.9257
C17 C 1.0363(11) 0.0192(5) -0.8118(11)
H13 H 1.0971 -0.0037 -0.8598
C18 C 0.9479(11) 0.1696(4) -0.4089(11)
H14 H 0.9810 0.1863 -0.4879
C20 C 0.9698(12) 0.1539(5) -0.1732(11)
H15 H 1.0189 0.1595 -0.0906
C21 C 0.3762(11) 0.0487(5) -0.6392(12)
H16 H 0.3422 0.0233 -0.7005
C22 C 0.7255(11) 0.1889(4) -0.6570(11)
H17 H 0.8207 0.2043 -0.6688
H18 H 0.6661 0.2117 -0.6019
H19 H 0.6799 0.1840 -0.7451
C24 C 0.8282(10) 0.1372(4) -0.4147(10)
C25 C 0.9341(11) 0.1039(4) -0.7823(11)
H20 H 0.9241 0.1387 -0.8104
C28 C 0.2825(12) 0.0706(4) -0.5494(12)
H21 H 0.1839 0.0612 -0.5512
loop_
_geom_bond_atom_site_label_1
_geom_bond_atom_site_label_2
_geom_bond_site_symmetry_1
_geom_bond_site_symmetry_2
Cd1 O1 1_555 1_555
P1 C4 1_555 1_555
O1 C11 1_555 1_555
O2 Cd1 1_555 1_555
O3 C27 1_555 1_555
O4 C26 1_555 1_555
O5 Cd1 1_555 1_555
O6 Cd1 1_555 1_555
C1 H1 1_555 1_555
C2 H2 1_555 1_555
C3 H3 1_555 1_555
C4 C3 1_555 1_555
C5 P1 1_555 1_555
C6 O5 1_555 1_555
C7 C6 1_555 1_555
H4 C7 1_555 1_555
C8 H5 1_555 1_555
C9 C1 1_555 1_555
H6 C9 1_555 1_555
C10 H7 1_555 1_555
C11 C10 1_555 1_555
C12 H8 1_555 1_555
C13 H9 1_555 1_555
C14 C8 1_555 1_555
H10 C14 1_555 1_555
C15 C4 1_555 1_555
H11 C15 1_555 1_555
C16 H12 1_555 1_555
C17 C1 1_555 1_555
H13 C17 1_555 1_555
C18 C13 1_555 1_555
H14 C18 1_555 1_555
C19 O6 1_555 1_555
C20 C13 1_555 1_555
H15 C20 1_555 1_555
C21 C3 1_555 1_555
H16 C21 1_555 1_555
C22 P1 1_555 1_555
H17 C22 1_555 1_555
H18 C22 1_555 1_555
H19 C22 1_555 1_555
C23 O2 1_555 1_555
C24 P1 1_555 1_555
C25 C5 1_555 1_555
H20 C25 1_555 1_555
C26 C10 1_555 1_555
C27 C2 1_555 1_555
C28 C12 1_555 1_555
H21 C28 1_555 1_555
Cd1B O1B 1_555 1_555
Cd1A O3B 1_555 1_555
Cd1C O3 1_555 1_555
O1B C11B 1_555 1_555
O2B Cd1B 1_555 1_555
O3B C27B 1_555 1_555
O3A Cd1B 1_555 1_555
O3C Cd1 1_555 1_555
O4B Cd1A 1_555 1_555
O4A Cd1B 1_555 1_555
O4C Cd1 1_555 1_555
O5B Cd1B 1_555 1_555
O6B Cd1B 1_555 1_555
C2B H2B 1_555 1_555
C6B O5B 1_555 1_555
C7B C23 1_555 1_555
H4B C7B 1_555 1_555
C10B H7B 1_555 1_555
C11B C10B 1_555 1_555
C19B O6B 1_555 1_555
C23B C7 1_555 1_555
C26B O4B 1_555 1_555
C27B C2B 1_555 1_555
O4 Cd1C 1_555 1_555
C2 C19 1_555 1_555
C5 C9 1_555 1_555
C6 C23 1_555 1_555
C8 C24 1_555 1_555
C11 C19 1_555 1_555
C12 C15 1_555 1_555
C14 C20 1_555 1_555
C16 C17 1_555 1_555
C16 C25 1_555 1_555
C18 C24 1_555 1_555
C21 C28 1_555 1_555
C26 C27 1_555 1_555
O2B C23B 1_555 1_555
C2B C19B 1_555 1_555
C6B C7B 1_555 1_555
C6B C23B 1_555 1_555
C10B C26B 1_555 1_555
C11B C19B 1_555 1_555
C26B C27B 1_555 1_555

#END
