
#######################################################################
#
#                 Cambridge Crystallographic Data Centre
#                                CCDC 
#
#######################################################################
#
# If this CIF has been generated from an entry in the Cambridge 
# Structural Database, then it will include bibliographic, chemical, 
# crystal, experimental, refinement or atomic coordinate data resulting 
# from the CCDC's data processing and validation procedures.
#
#######################################################################

data_SEFXAD
_symmetry_cell_setting           monoclinic
_symmetry_space_group_name_H-M   'C c'
_symmetry_Int_Tables_number      9
_space_group_name_Hall           'C -2yc'
loop_
_symmetry_equiv_pos_site_id
_symmetry_equiv_pos_as_xyz
1 x,y,z
2 x,-y,1/2+z
3 1/2+x,1/2+y,z
4 1/2+x,1/2-y,1/2+z
_cell_length_a                   13.4779(9)
_cell_length_b                   12.1542(8)
_cell_length_c                   10.2673(7)
_cell_angle_alpha                90
_cell_angle_beta                 102.1960(10)
_cell_angle_gamma                90
_cell_volume                     1643.96
loop_
_atom_site_label
_atom_site_type_symbol
_atom_site_fract_x
_atom_site_fract_y
_atom_site_fract_z
Zn1 Zn 0.40209(3) 0.255104(19) 0.42090(3)
O1 O 0.25908(14) 0.16876(14) 0.36826(18)
H1 H 0.234(2) 0.148(2) 0.432(2)
H2 H 0.234(3) 0.135(2) 0.301(2)
O2 O 0.54031(15) 0.33733(14) 0.48022(18)
H3 H 0.574(2) 0.351(3) 0.420(2)
H4 H 0.569(3) 0.380(2) 0.545(2)
O3 O 0.3759(2) 0.25868(16) 0.6172(3)
H5 H 0.406(2) 0.289(2) 0.687(2)
H6 H 0.3257(19) 0.227(3) 0.639(3)
O4 O 0.4184(2) 0.24780(13) 0.2213(3)
H7 H 0.391(2) 0.200(2) 0.167(3)
H8 H 0.458(2) 0.285(2) 0.182(3)
N1 N 0.32019(17) 0.40399(15) 0.3806(2)
N2 N -0.02084(17) 0.39841(16) -0.0385(2)
C1 C 0.24776(19) 0.41109(18) 0.2697(2)
H13 H 0.2359 0.3497 0.2145
C2 C 0.18881(19) 0.50452(19) 0.2316(2)
C3 C 0.2091(2) 0.5969(2) 0.3137(3)
H14 H 0.1726 0.6617 0.2916
C4 C 0.2844(2) 0.59077(19) 0.4288(3)
H15 H 0.2987 0.6514 0.4848
C5 C 0.3384(2) 0.4934(2) 0.4598(2)
H16 H 0.3884 0.4898 0.5375
C6 C 0.05194(19) 0.40725(18) 0.0728(2)
H17 H 0.0653 0.3466 0.1291
C7 C 0.1088(2) 0.50330(19) 0.1083(2)
C8 C 0.0875(2) 0.59369(19) 0.0240(3)
H18 H 0.1235 0.6590 0.0441
C9 C 0.0121(2) 0.58525(19) -0.0900(3)
H19 H -0.0035 0.6451 -0.1472
C10 C -0.0401(2) 0.4864(2) -0.1187(3)
H20 H -0.0901 0.4812 -0.1961
Zn1C Zn -0.09791(3) 0.244896(19) -0.07910(3)
N2C N 0.47916(17) 0.10159(16) 0.4615(2)
S1 S 0.64377(5) 0.41268(4) 0.18100(6)
O5 O 0.55168(14) 0.36109(13) 0.10282(16)
O6 O 0.62703(13) 0.53262(12) 0.19339(17)
O7 O 0.72948(13) 0.39780(13) 0.11277(17)
O8 O 0.67058(14) 0.36256(13) 0.31489(16)
O9 O 0.31027(16) 0.10296(15) 0.05427(18)
H9 H 0.279(3) 0.117(3) -0.022(2)
H10 H 0.282(2) 0.050(2) 0.083(3)
O10 O 0.49678(17) 0.35882(18) 0.82189(19)
H11 H 0.541(2) 0.396(3) 0.794(3)
H12 H 0.506(3) 0.363(3) 0.9031(18)
loop_
_geom_bond_atom_site_label_1
_geom_bond_atom_site_label_2
_geom_bond_site_symmetry_1
_geom_bond_site_symmetry_2
Zn1 O1 1_555 1_555
S1 O5 1_555 1_555
O1 H1 1_555 1_555
H2 O1 1_555 1_555
O2 Zn1 1_555 1_555
H3 O2 1_555 1_555
H4 O2 1_555 1_555
O3 Zn1 1_555 1_555
H5 O3 1_555 1_555
H6 O3 1_555 1_555
O4 Zn1 1_555 1_555
H7 O4 1_555 1_555
H8 O4 1_555 1_555
O6 S1 1_555 1_555
O7 S1 1_555 1_555
O8 S1 1_555 1_555
O9 H9 1_555 1_555
H10 O9 1_555 1_555
O10 H11 1_555 1_555
H12 O10 1_555 1_555
N1 Zn1 1_555 1_555
N2 C6 1_555 1_555
C1 N1 1_555 1_555
H13 C1 1_555 1_555
C2 C1 1_555 1_555
C3 C2 1_555 1_555
H14 C3 1_555 1_555
C4 C3 1_555 1_555
H15 C4 1_555 1_555
C5 N1 1_555 1_555
H16 C5 1_555 1_555
C6 H17 1_555 1_555
C7 C2 1_555 1_555
C8 C7 1_555 1_555
H18 C8 1_555 1_555
C9 C8 1_555 1_555
H19 C9 1_555 1_555
C10 N2 1_555 1_555
H20 C10 1_555 1_555
Zn1C N2 1_555 1_555
N2C Zn1 1_555 1_555
C4 C5 1_555 1_555
C6 C7 1_555 1_555
C9 C10 1_555 1_555

#END
