
#######################################################################
#
#                 Cambridge Crystallographic Data Centre
#                                CCDC 
#
#######################################################################
#
# If this CIF has been generated from an entry in the Cambridge 
# Structural Database, then it will include bibliographic, chemical, 
# crystal, experimental, refinement or atomic coordinate data resulting 
# from the CCDC's data processing and validation procedures.
#
#######################################################################

data_SEFYIM
_symmetry_cell_setting           monoclinic
_symmetry_space_group_name_H-M   'P 21'
_symmetry_Int_Tables_number      4
_space_group_name_Hall           'P 2yb'
loop_
_symmetry_equiv_pos_site_id
_symmetry_equiv_pos_as_xyz
1 x,y,z
2 -x,1/2+y,-z
_cell_length_a                   8.9877(7)
_cell_length_b                   24.0503(18)
_cell_length_c                   10.7762(8)
_cell_angle_alpha                90
_cell_angle_beta                 94.6140(10)
_cell_angle_gamma                90
_cell_volume                     2321.8
loop_
_atom_site_label
_atom_site_type_symbol
_atom_site_fract_x
_atom_site_fract_y
_atom_site_fract_z
Pb1 Pb -0.228412(17) 0.086865(6) 0.400211(14)
Pb2 Pb 0.512093(17) 0.198545(6) 0.083450(14)
S1 S 0.00347(14) -0.12209(5) 0.19878(11)
S2 S 0.04868(12) 0.40341(4) 0.22117(10)
O1 O -0.0076(4) 0.02283(16) 0.3988(3)
O2 O -0.1134(4) 0.02881(16) 0.2071(3)
O3 O 0.3019(4) 0.13852(15) 0.1048(3)
O4 O 0.4964(4) 0.12006(16) 0.2352(4)
O5 O -0.0067(4) -0.15903(14) 0.0929(3)
O6 O 0.0883(4) -0.13795(15) 0.3108(3)
O7 O 0.3045(4) 0.27837(17) 0.0897(3)
O8 O 0.3837(4) 0.24146(16) 0.2703(4)
O9 O -0.0338(4) 0.15167(16) 0.3784(3)
O10 O -0.2147(4) 0.16552(17) 0.2349(4)
O11 O 0.0457(4) 0.43758(14) 0.1121(3)
O12 O 0.1322(4) 0.42159(14) 0.3322(3)
N1 N -0.1051(4) 0.09218(17) 0.6297(3)
N2 N -0.3078(5) 0.16993(18) 0.5374(4)
N3 N 0.0754(5) -0.06468(16) 0.1512(4)
N4 N 0.3703(4) 0.19519(18) -0.1401(3)
N5 N 0.5682(5) 0.11440(17) -0.0536(4)
N6 N 0.1078(5) 0.34372(16) 0.1834(4)
C1 C -0.0081(6) 0.0549(2) 0.6745(5)
H1 H 0.0132 0.0248 0.6249
C2 C 0.0646(7) 0.0591(3) 0.7945(6)
H2 H 0.1316 0.0317 0.8238
C3 C 0.0367(7) 0.1032(3) 0.8671(6)
H3 H 0.0860 0.1067 0.9460
C4 C -0.0663(6) 0.1433(2) 0.8231(4)
C5 C -0.1005(8) 0.1916(3) 0.8934(5)
H4 H -0.0539 0.1961 0.9730
C6 C -0.1958(9) 0.2298(3) 0.8492(6)
H5 H -0.2134 0.2608 0.8975
C7 C -0.2724(7) 0.2244(2) 0.7282(5)
C8 C -0.3768(7) 0.2634(2) 0.6740(6)
H6 H -0.3995 0.2952 0.7179
C9 C -0.4431(8) 0.2545(3) 0.5589(6)
H7 H -0.5134 0.2795 0.5241
C10 C -0.4058(7) 0.2075(2) 0.4926(6)
H8 H -0.4519 0.2022 0.4131
C11 C -0.2422(6) 0.17773(19) 0.6536(5)
C12 C -0.1357(5) 0.1368(2) 0.7022(4)
C13 C -0.0143(5) 0.01277(19) 0.2849(5)
C14 C 0.1193(5) -0.01937(19) 0.2377(4)
H9 H 0.1790 -0.0349 0.3096
C15 C 0.2165(6) 0.0213(2) 0.1704(5)
H10 H 0.2992 0.0013 0.1388
H11 H 0.1578 0.0375 0.1001
C16 C 0.2772(6) 0.0675(2) 0.2572(4)
H12 H 0.1942 0.0854 0.2935
H13 H 0.3407 0.0511 0.3245
C17 C 0.3650(5) 0.1111(2) 0.1942(5)
C18 C -0.1803(6) -0.1086(2) 0.2363(5)
C19 C -0.2104(6) -0.0974(2) 0.3577(5)
H14 H -0.1337 -0.0983 0.4210
C20 C -0.3519(8) -0.0852(3) 0.3846(7)
H15 H -0.3711 -0.0771 0.4661
C21 C -0.4668(8) -0.0848(3) 0.2924(7)
H16 H -0.5637 -0.0772 0.3118
C22 C -0.4381(8) -0.0953(4) 0.1731(7)
H17 H -0.5156 -0.0940 0.1105
C23 C -0.2963(7) -0.1081(3) 0.1431(6)
H18 H -0.2782 -0.1163 0.0613
C24 C 0.2713(6) 0.2333(2) -0.1838(5)
H19 H 0.2568 0.2643 -0.1347
C25 C 0.1889(6) 0.2295(3) -0.2980(5)
H20 H 0.1204 0.2571 -0.3235
C26 C 0.2095(7) 0.1854(2) -0.3715(5)
H21 H 0.1546 0.1821 -0.4480
C27 C 0.3146(6) 0.1440(2) -0.3322(5)
C28 C 0.3419(8) 0.0962(3) -0.4044(5)
H22 H 0.2911 0.0918 -0.4825
C29 C 0.4421(9) 0.0563(3) -0.3608(6)
H23 H 0.4582 0.0254 -0.4098
C30 C 0.5216(7) 0.0614(2) -0.2419(5)
C31 C 0.6253(7) 0.0214(2) -0.1939(7)
H24 H 0.6458 -0.0097 -0.2410
C32 C 0.6948(7) 0.0284(2) -0.0791(6)
H25 H 0.7625 0.0020 -0.0459
C33 C 0.6635(6) 0.0758(2) -0.0109(5)
H26 H 0.7120 0.0804 0.0680
C34 C 0.4958(5) 0.10819(18) -0.1678(4)
C35 C 0.3924(5) 0.1502(2) -0.2142(4)
C36 C 0.3008(5) 0.27270(19) 0.2045(5)
C37 C 0.1812(5) 0.30403(17) 0.2710(4)
H27 H 0.2324 0.3253 0.3393
C38 C 0.0763(6) 0.26302(19) 0.3278(4)
H28 H 0.1333 0.2404 0.3892
H29 H 0.0028 0.2836 0.3704
C39 C -0.0037(6) 0.2252(2) 0.2319(4)
H30 H 0.0696 0.2093 0.1809
H31 H -0.0714 0.2476 0.1780
C40 C -0.0918(5) 0.17823(19) 0.2845(4)
C41 C -0.1388(6) 0.39468(19) 0.2572(5)
C42 C -0.2452(7) 0.3811(3) 0.1627(6)
H32 H -0.2189 0.3770 0.0815
C43 C -0.3910(8) 0.3736(4) 0.1903(8)
H33 H -0.4642 0.3647 0.1275
C44 C -0.4283(8) 0.3795(4) 0.3123(8)
H34 H -0.5267 0.3753 0.3315
C45 C -0.3220(9) 0.3912(4) 0.4014(8)
H35 H -0.3474 0.3943 0.4831
C46 C -0.1742(7) 0.3991(3) 0.3767(6)
H36 H -0.1014 0.4071 0.4405
H37 H 0.036(5) -0.055(2) 0.078(4)
H38 H 0.100(6) 0.334(2) 0.117(5)
Pb2_2 Pb -0.487907(17) 0.198545(6) 0.083450(14)
O10_2 O 0.7853(4) 0.16552(17) 0.2349(4)
loop_
_geom_bond_atom_site_label_1
_geom_bond_atom_site_label_2
_geom_bond_site_symmetry_1
_geom_bond_site_symmetry_2
Pb1 O1 1_555 1_555
Pb2 O3 1_555 1_555
S1 O5 1_555 1_555
S2 O11 1_555 1_555
O1 C13 1_555 1_555
O2 Pb1 1_555 1_555
O3 C17 1_555 1_555
O4 Pb2 1_555 1_555
O6 S1 1_555 1_555
O7 Pb2 1_555 1_555
O8 Pb2 1_555 1_555
O9 Pb1 1_555 1_555
O10 Pb1 1_555 1_555
O12 S2 1_555 1_555
N1 Pb1 1_555 1_555
N2 Pb1 1_555 1_555
N3 S1 1_555 1_555
N4 Pb2 1_555 1_555
N5 Pb2 1_555 1_555
N6 S2 1_555 1_555
C1 N1 1_555 1_555
H1 C1 1_555 1_555
C2 C1 1_555 1_555
H2 C2 1_555 1_555
C3 C2 1_555 1_555
H3 C3 1_555 1_555
C4 C3 1_555 1_555
C5 C4 1_555 1_555
H4 C5 1_555 1_555
C6 C5 1_555 1_555
H5 C6 1_555 1_555
C7 C6 1_555 1_555
C8 C7 1_555 1_555
H6 C8 1_555 1_555
C9 C8 1_555 1_555
H7 C9 1_555 1_555
C10 N2 1_555 1_555
H8 C10 1_555 1_555
C11 N2 1_555 1_555
C12 N1 1_555 1_555
C13 O2 1_555 1_555
C14 N3 1_555 1_555
H9 C14 1_555 1_555
C15 C14 1_555 1_555
H10 C15 1_555 1_555
H11 C15 1_555 1_555
C16 C15 1_555 1_555
H12 C16 1_555 1_555
H13 C16 1_555 1_555
C17 O4 1_555 1_555
C18 S1 1_555 1_555
C19 C18 1_555 1_555
H14 C19 1_555 1_555
C20 C19 1_555 1_555
H15 C20 1_555 1_555
C21 C20 1_555 1_555
H16 C21 1_555 1_555
C22 C21 1_555 1_555
H17 C22 1_555 1_555
C23 C18 1_555 1_555
H18 C23 1_555 1_555
C24 N4 1_555 1_555
H19 C24 1_555 1_555
C25 C24 1_555 1_555
H20 C25 1_555 1_555
C26 C25 1_555 1_555
H21 C26 1_555 1_555
C27 C26 1_555 1_555
C28 C27 1_555 1_555
H22 C28 1_555 1_555
C29 C28 1_555 1_555
H23 C29 1_555 1_555
C30 C29 1_555 1_555
C31 C30 1_555 1_555
H24 C31 1_555 1_555
C32 C31 1_555 1_555
H25 C32 1_555 1_555
C33 N5 1_555 1_555
H26 C33 1_555 1_555
C34 N5 1_555 1_555
C35 N4 1_555 1_555
C36 O7 1_555 1_555
C37 N6 1_555 1_555
H27 C37 1_555 1_555
C38 C37 1_555 1_555
H28 C38 1_555 1_555
H29 C38 1_555 1_555
C39 C38 1_555 1_555
H30 C39 1_555 1_555
H31 C39 1_555 1_555
C40 O9 1_555 1_555
C41 S2 1_555 1_555
C42 C41 1_555 1_555
H32 C42 1_555 1_555
C43 C42 1_555 1_555
H33 C43 1_555 1_555
C44 C43 1_555 1_555
H34 C44 1_555 1_555
C45 C44 1_555 1_555
H35 C45 1_555 1_555
C46 C41 1_555 1_555
H36 C46 1_555 1_555
H37 N3 1_555 1_555
H38 N6 1_555 1_555
Pb2_2 O10 1_555 1_555
O10_2 Pb2 1_555 1_555
O8 C36 1_555 1_555
O10 C40 1_555 1_555
C4 C12 1_555 1_555
C7 C11 1_555 1_555
C9 C10 1_555 1_555
C11 C12 1_555 1_555
C13 C14 1_555 1_555
C16 C17 1_555 1_555
C22 C23 1_555 1_555
C27 C35 1_555 1_555
C30 C34 1_555 1_555
C32 C33 1_555 1_555
C34 C35 1_555 1_555
C36 C37 1_555 1_555
C39 C40 1_555 1_555
C45 C46 1_555 1_555

#END
