
#######################################################################
#
#                 Cambridge Crystallographic Data Centre
#                                CCDC 
#
#######################################################################
#
# If this CIF has been generated from an entry in the Cambridge 
# Structural Database, then it will include bibliographic, chemical, 
# crystal, experimental, refinement or atomic coordinate data resulting 
# from the CCDC's data processing and validation procedures.
#
#######################################################################

data_SEGCOX
_symmetry_cell_setting           triclinic
_symmetry_space_group_name_H-M   'P -1'
_symmetry_Int_Tables_number      2
_space_group_name_Hall           '-P 1'
loop_
_symmetry_equiv_pos_site_id
_symmetry_equiv_pos_as_xyz
1 x,y,z
2 -x,-y,-z
_cell_length_a                   7.340(1)
_cell_length_b                   9.513(2)
_cell_length_c                   9.741(2)
_cell_angle_alpha                75.47(2)
_cell_angle_beta                 80.60(2)
_cell_angle_gamma                75.17(2)
_cell_volume                     632.903
loop_
_atom_site_label
_atom_site_type_symbol
_atom_site_fract_x
_atom_site_fract_y
_atom_site_fract_z
Mn1 Mn 0.19328(5) 0.19469(4) 0.56830(4)
O1 O 0.0939(2) 0.3763(2) 0.3870(2)
O2 O -0.0631(2) 0.6138(2) 0.3363(2)
C1 C 0.0079(3) 0.4969(3) 0.4206(2)
O3 O -0.0784(2) 0.1216(2) 0.6165(2)
O4 O -0.2305(2) -0.0241(2) 0.5540(2)
C2 C -0.0885(3) 0.0284(3) 0.5489(2)
O5 O 0.2855(3) 0.0506(2) 0.7592(2)
O6 O 0.4708(2) 0.2323(2) 0.5026(2)
H1 H 0.272(4) -0.053(3) 0.790(3)
H2 H 0.386(4) 0.053(3) 0.790(3)
H3 H 0.542(4) 0.164(3) 0.507(3)
H4 H 0.513(4) 0.291(3) 0.419(3)
Mn1A Mn -0.19328(5) 0.80531(4) 0.43170(4)
Mn1A_2 Mn -0.19328(5) -0.19469(4) 0.43170(4)
O1A O -0.0939(2) 0.6237(2) 0.6130(2)
O2A O 0.0631(2) 0.3862(2) 0.6637(2)
C1A C -0.0079(3) 0.5031(3) 0.5794(2)
O3A O 0.0784(2) -0.1216(2) 0.3835(2)
O3A_2 O 0.0784(2) 0.8784(2) 0.3835(2)
O4A O 0.2305(2) 0.0241(2) 0.4460(2)
O4_2 O -0.2305(2) 0.9759(2) 0.5540(2)
C2A C 0.0885(3) -0.0284(3) 0.4511(2)
O5A O -0.2855(3) 0.9494(2) 0.2408(2)
O6A O -0.4708(2) 0.7677(2) 0.4974(2)
H1A H -0.272(4) 1.053(3) 0.210(3)
H2A H -0.386(4) 0.947(3) 0.210(3)
H3A H -0.542(4) 0.836(3) 0.493(3)
H4A H -0.513(4) 0.709(3) 0.581(3)
N1 N 0.4287(3) 0.3350(2) -0.1110(2)
C3 C 0.4678(4) 0.4369(3) -0.2287(3)
N2 N 0.4089(3) 0.5830(2) -0.2544(2)
C4 C 0.2921(3) 0.6308(3) -0.1452(3)
C5 C 0.2401(3) 0.5357(2) -0.0197(2)
C6 C 0.3129(3) 0.3822(3) -0.0014(3)
N3 N 0.2738(3) 0.2819(2) 0.1147(2)
N4 N 0.1196(3) 0.6269(2) 0.0622(2)
C7 C 0.1068(4) 0.7667(3) -0.0140(3)
N5 N 0.2073(3) 0.7763(2) -0.1408(2)
H5 H 0.555(3) 0.399(3) -0.307(3)
H6 H 0.322(3) 0.196(3) 0.109(3)
H7 H 0.207(4) 0.320(3) 0.184(3)
H8 H 0.062(3) 0.602(3) 0.146(3)
H9 H 0.027(3) 0.844(3) 0.029(3)
O7 O 0.6290(3) 0.0500(2) 0.8551(2)
H10 H 0.716(4) 0.063(3) 0.785(3)
H11 H 0.582(4) 0.122(3) 0.882(3)
loop_
_geom_bond_atom_site_label_1
_geom_bond_atom_site_label_2
_geom_bond_site_symmetry_1
_geom_bond_site_symmetry_2
Mn1 O1 1_555 1_555
O1 C1 1_555 1_555
O2 C1 1_555 1_555
C1 C1A 1_555 1_555
O3 Mn1 1_555 1_555
O4 C2 1_555 1_555
C2 O3 1_555 1_555
O5 Mn1 1_555 1_555
O6 Mn1 1_555 1_555
H1 O5 1_555 1_555
H2 O5 1_555 1_555
H3 O6 1_555 1_555
H4 O6 1_555 1_555
N1 C3 1_555 1_555
C3 N2 1_555 1_555
N2 C4 1_555 1_555
C4 C5 1_555 1_555
C5 C6 1_555 1_555
C6 N1 1_555 1_555
N3 C6 1_555 1_555
N4 C5 1_555 1_555
C7 N4 1_555 1_555
N5 C4 1_555 1_555
H5 C3 1_555 1_555
H6 N3 1_555 1_555
H7 N3 1_555 1_555
H8 N4 1_555 1_555
H9 C7 1_555 1_555
O7 H10 1_555 1_555
H11 O7 1_555 1_555
Mn1A O2 1_555 1_555
Mn1A_2 O4 1_555 1_555
O1A Mn1A 1_555 1_555
O2A Mn1 1_555 1_555
C1A O1A 1_555 1_555
O3A Mn1A_2 1_555 1_555
O3A_2 Mn1A 1_555 1_555
O4A Mn1 1_555 1_555
O4_2 Mn1A 1_555 1_555
C2A C2 1_555 1_555
O5A Mn1A 1_555 1_555
O6A Mn1A 1_555 1_555
H1A O5A 1_555 1_555
H2A O5A 1_555 1_555
H3A O6A 1_555 1_555
H4A O6A 1_555 1_555
C7 N5 1_555 1_555
O2A C1A 1_555 1_555
O3A C2A 1_555 1_555
O4A C2A 1_555 1_555

#END
