
#######################################################################
#
#                 Cambridge Crystallographic Data Centre
#                                CCDC 
#
#######################################################################
#
# If this CIF has been generated from an entry in the Cambridge 
# Structural Database, then it will include bibliographic, chemical, 
# crystal, experimental, refinement or atomic coordinate data resulting 
# from the CCDC's data processing and validation procedures.
#
#######################################################################

data_SEGCEO
_symmetry_cell_setting           monoclinic
_symmetry_space_group_name_H-M   'C 2/c'
_symmetry_Int_Tables_number      15
_space_group_name_Hall           '-C 2yn'
loop_
_symmetry_equiv_pos_site_id
_symmetry_equiv_pos_as_xyz
1 x,y,z
2 -x,y,1/2-z
3 1/2+x,1/2+y,z
4 1/2-x,1/2+y,1/2-z
5 -x,-y,-z
6 x,-y,1/2+z
7 1/2-x,1/2-y,-z
8 1/2+x,1/2-y,1/2+z
_cell_length_a                   16.847(1)
_cell_length_b                   4.0866(5)
_cell_length_c                   35.249(3)
_cell_angle_alpha                90
_cell_angle_beta                 97.55(1)
_cell_angle_gamma                90
_cell_volume                     2405.75
loop_
_atom_site_label
_atom_site_type_symbol
_atom_site_fract_x
_atom_site_fract_y
_atom_site_fract_z
Pb1 Pb 0.00000 0.35781(6) 0.25000
Cl1 Cl -0.02418(9) -0.1474(3) 0.30482(4)
N1 N 0.1879(2) 0.2480(9) 0.30250(10)
O1 O 0.14759(19) 0.4107(9) 0.27371(9)
C1 C 0.3238(3) -0.2429(12) 0.39568(13)
C2 C 0.2554(3) 0.0885(13) 0.29745(13)
H1 H 0.2718 0.0829 0.2733
C3 C 0.2050(3) 0.0847(11) 0.36728(12)
H2 H 0.1858 0.0807 0.3909
C4 C 0.1624(3) 0.2465(12) 0.33725(13)
H3 H 0.1156 0.3562 0.3408
C5 C 0.2764(3) -0.0738(11) 0.36314(12)
C6 C 0.3000(3) -0.0640(12) 0.32694(13)
H4 H 0.3477 -0.1647 0.3228
C7 C 0.3990(3) -0.3713(15) 0.39303(16)
H5 H 0.422 -0.3435 0.3707
N2 N 0.4073(4) -0.5774(12) 0.45529(17)
H6 H 0.4329 -0.6847 0.474
C8 C 0.4402(4) -0.5421(16) 0.4238(2)
H7 H 0.4905 -0.6301 0.422
C9 C 0.2942(3) -0.2877(15) 0.43032(15)
H8 H 0.2445 -0.2016 0.4337
C10 C 0.3369(4) -0.4553(17) 0.45928(18)
H9 H 0.3161 -0.4839 0.4822
Pb1_2 Pb 0.00000 -0.64219(6) 0.25000
Cl1_2 Cl -0.02418(9) 0.8526(3) 0.30482(4)
Cl1A Cl 0.02418(9) -0.1474(3) 0.19518(4)
Cl1A_2 Cl 0.02418(9) 0.8526(3) 0.19518(4)
N1A N -0.1879(2) 0.2480(9) 0.19750(10)
O1A O -0.14759(19) 0.4107(9) 0.22629(9)
C1A C -0.3238(3) -0.2429(12) 0.10432(13)
C2A C -0.2554(3) 0.0885(13) 0.20255(13)
H1A H -0.2718 0.0829 0.2267
C3A C -0.2050(3) 0.0847(11) 0.13272(12)
H2A H -0.1858 0.0807 0.1091
C4A C -0.1624(3) 0.2465(12) 0.16275(13)
H3A H -0.1156 0.3562 0.1592
C5A C -0.2764(3) -0.0738(11) 0.13686(12)
C6A C -0.3000(3) -0.0640(12) 0.17306(13)
H4A H -0.3477 -0.1647 0.1772
C7A C -0.3990(3) -0.3713(15) 0.10697(16)
H5A H -0.422 -0.3435 0.1293
N2A N -0.4073(4) -0.5774(12) 0.04471(17)
H6A H -0.4329 -0.6847 0.026
C8A C -0.4402(4) -0.5421(16) 0.0762(2)
H7A H -0.4905 -0.6301 0.078
C9A C -0.2942(3) -0.2877(15) 0.06968(15)
H8A H -0.2445 -0.2016 0.0663
C10A C -0.3369(4) -0.4553(17) 0.04072(18)
H9A H -0.3161 -0.4839 0.0178
N3 N 0.3962(3) 0.0962(12) 0.54878(12)
O2 O 0.4092(2) -0.0137(12) 0.58154(11)
O3 O 0.4448(2) 0.0455(11) 0.52520(10)
O4 O 0.3360(3) 0.2594(13) 0.53909(13)
loop_
_geom_bond_atom_site_label_1
_geom_bond_atom_site_label_2
_geom_bond_site_symmetry_1
_geom_bond_site_symmetry_2
Pb1 Cl1 1_555 1_555
Cl1 Pb1_2 1_555 1_555
N1 O1 1_555 1_555
O1 Pb1 1_555 1_555
C1 C5 1_555 1_555
C2 N1 1_555 1_555
H1 C2 1_555 1_555
C3 H2 1_555 1_555
C4 N1 1_555 1_555
H3 C4 1_555 1_555
C5 C3 1_555 1_555
C6 C2 1_555 1_555
H4 C6 1_555 1_555
C7 C1 1_555 1_555
H5 C7 1_555 1_555
N2 H6 1_555 1_555
C8 C7 1_555 1_555
H7 C8 1_555 1_555
C9 C1 1_555 1_555
H8 C9 1_555 1_555
C10 N2 1_555 1_555
H9 C10 1_555 1_555
N3 O2 1_555 1_555
O3 N3 1_555 1_555
O4 N3 1_555 1_555
Pb1_2 Cl1A 1_555 1_555
Cl1_2 Pb1 1_555 1_555
Cl1A Pb1 1_555 1_555
Cl1A_2 Pb1 1_555 1_555
N1A O1A 1_555 1_555
O1A Pb1 1_555 1_555
C1A C5A 1_555 1_555
C2A N1A 1_555 1_555
H1A C2A 1_555 1_555
C3A H2A 1_555 1_555
C4A N1A 1_555 1_555
H3A C4A 1_555 1_555
C5A C3A 1_555 1_555
C6A C2A 1_555 1_555
H4A C6A 1_555 1_555
C7A C1A 1_555 1_555
H5A C7A 1_555 1_555
N2A H6A 1_555 1_555
C8A C7A 1_555 1_555
H7A C8A 1_555 1_555
C9A C1A 1_555 1_555
H8A C9A 1_555 1_555
C10A N2A 1_555 1_555
H9A C10A 1_555 1_555
C3 C4 1_555 1_555
C5 C6 1_555 1_555
N2 C8 1_555 1_555
C9 C10 1_555 1_555
C3A C4A 1_555 1_555
C5A C6A 1_555 1_555
N2A C8A 1_555 1_555
C9A C10A 1_555 1_555

#END
