
#######################################################################
#
#                 Cambridge Crystallographic Data Centre
#                                CCDC 
#
#######################################################################
#
# If this CIF has been generated from an entry in the Cambridge 
# Structural Database, then it will include bibliographic, chemical, 
# crystal, experimental, refinement or atomic coordinate data resulting 
# from the CCDC's data processing and validation procedures.
#
#######################################################################

data_SEGCAK
_symmetry_cell_setting           monoclinic
_symmetry_space_group_name_H-M   'C 2'
_symmetry_Int_Tables_number      5
_space_group_name_Hall           'C 2y'
loop_
_symmetry_equiv_pos_site_id
_symmetry_equiv_pos_as_xyz
1 x,y,z
2 -x,y,-z
3 1/2+x,1/2+y,z
4 1/2-x,1/2+y,-z
_cell_length_a                   16.459(1)
_cell_length_b                   4.1097(5)
_cell_length_c                   18.072(1)
_cell_angle_alpha                90
_cell_angle_beta                 93.72(1)
_cell_angle_gamma                90
_cell_volume                     1219.84
loop_
_atom_site_label
_atom_site_type_symbol
_atom_site_fract_x
_atom_site_fract_y
_atom_site_fract_z
Cl1 Cl 0.03899(18) 1.7565(9) 0.60896(14)
Cl2 Cl -0.58221(16) 0.9554(8) 0.91164(13)
C1 C -0.2914(5) 0.786(3) 0.7890(5)
O1 O -0.1389(3) 1.282(2) 0.5465(4)
C2 C -0.2471(5) 0.900(2) 0.7253(5)
C3 C -0.2398(5) 0.968(3) 0.5931(5)
H1 H -0.2621 0.9306 0.5453
C4 C -0.2669(6) 0.865(3) 0.8620(5)
H2 H -0.219 0.9797 0.8736
C5 C -0.1748(6) 1.068(3) 0.7342(5)
H3 H -0.1507 1.1007 0.7816
C6 C -0.3170(6) 0.766(3) 0.9172(5)
H4 H -0.3002 0.8185 0.9659
N1 N -0.1710(5) 1.141(2) 0.6044(4)
C7 C -0.2771(6) 0.845(3) 0.6536(5)
H5 H -0.3242 0.7215 0.6454
C8 C -0.4069(7) 0.525(4) 0.8367(5)
H6 H -0.4543 0.4045 0.8273
C9 C -0.3633(7) 0.610(3) 0.7779(6)
H7 H -0.3817 0.5485 0.7302
C10 C -0.1379(6) 1.187(3) 0.6739(6)
H8 H -0.0893 1.3018 0.6811
N2 N -0.3856(5) 0.606(2) 0.9068(5)
Pb1 Pb -0.5 0.49756(12) 1.00000
Pb2 Pb 0.00000 1.24349(9) 0.50000
Cl1_2 Cl 0.03899(18) 0.7565(9) 0.60896(14)
Cl1A Cl -0.03899(18) 1.7565(9) 0.39104(14)
Cl1A_2 Cl -0.03899(18) 0.7565(9) 0.39104(14)
Cl2_2 Cl -0.58221(16) -0.0446(8) 0.91164(13)
Cl2A Cl -0.41779(16) 0.9554(8) 1.08836(13)
Cl2A_2 Cl -0.41779(16) -0.0446(8) 1.08836(13)
C1A C -0.7086(5) 0.786(3) 1.2110(5)
O1A O -0.8611(3) 1.282(2) 1.4535(4)
O1A_2 O 0.1389(3) 1.282(2) 0.4535(4)
C2A C -0.7529(5) 0.900(2) 1.2747(5)
C3A C -0.7602(5) 0.968(3) 1.4069(5)
H1A H -0.7379 0.9306 1.4547
C4A C -0.7331(6) 0.865(3) 1.1380(5)
H2A H -0.781 0.9797 1.1264
C5A C -0.8252(6) 1.068(3) 1.2658(5)
H3A H -0.8493 1.1007 1.2184
C6A C -0.6830(6) 0.766(3) 1.0828(5)
H4A H -0.6998 0.8185 1.0341
N1A N -0.8290(5) 1.141(2) 1.3956(4)
C7A C -0.7229(6) 0.845(3) 1.3464(5)
H5A H -0.6758 0.7215 1.3546
C8A C -0.5931(7) 0.525(4) 1.1633(5)
H6A H -0.5457 0.4045 1.1727
C9A C -0.6367(7) 0.610(3) 1.2221(6)
H7A H -0.6183 0.5485 1.2698
C10A C -0.8621(6) 1.187(3) 1.3261(6)
H8A H -0.9107 1.3018 1.3189
N2A N -0.6144(5) 0.606(2) 1.0932(5)
Pb1_2 Pb -0.5 1.49756(12) 1.00000
Pb2_2 Pb 0.00000 2.24349(9) 0.50000
Pb2_3 Pb -1.00000 1.24349(9) 1.50000
loop_
_geom_bond_atom_site_label_1
_geom_bond_atom_site_label_2
_geom_bond_site_symmetry_1
_geom_bond_site_symmetry_2
Cl1 Pb2 1_555 1_555
Cl2 Pb1 1_555 1_555
C1 C2 1_555 1_555
O1 N1 1_555 1_555
C2 C5 1_555 1_555
C3 H1 1_555 1_555
C4 C1 1_555 1_555
H2 C4 1_555 1_555
C5 H3 1_555 1_555
C6 C4 1_555 1_555
H4 C6 1_555 1_555
N1 C3 1_555 1_555
C7 C2 1_555 1_555
H5 C7 1_555 1_555
C8 H6 1_555 1_555
C9 C1 1_555 1_555
H7 C9 1_555 1_555
C10 C5 1_555 1_555
H8 C10 1_555 1_555
N2 C6 1_555 1_555
Pb1 N2 1_555 1_555
Pb2 O1 1_555 1_555
Cl1_2 Pb2 1_555 1_555
Cl1A Pb2 1_555 1_555
Cl1A_2 Pb2 1_555 1_555
Cl2_2 Pb1 1_555 1_555
Cl2A Pb1 1_555 1_555
Cl2A_2 Pb1 1_555 1_555
C1A C2A 1_555 1_555
O1A N1A 1_555 1_555
O1A_2 Pb2 1_555 1_555
C2A C5A 1_555 1_555
C3A H1A 1_555 1_555
C4A C1A 1_555 1_555
H2A C4A 1_555 1_555
C5A H3A 1_555 1_555
C6A C4A 1_555 1_555
H4A C6A 1_555 1_555
N1A C3A 1_555 1_555
C7A C2A 1_555 1_555
H5A C7A 1_555 1_555
C8A H6A 1_555 1_555
C9A C1A 1_555 1_555
H7A C9A 1_555 1_555
C10A C5A 1_555 1_555
H8A C10A 1_555 1_555
N2A Pb1 1_555 1_555
Pb1_2 Cl2 1_555 1_555
Pb2_2 Cl1 1_555 1_555
Pb2_3 O1A 1_555 1_555
C3 C7 1_555 1_555
N1 C10 1_555 1_555
C8 C9 1_555 1_555
C8 N2 1_555 1_555
Cl1A Pb2_2 1_555 1_555
Cl2A Pb1_2 1_555 1_555
C3A C7A 1_555 1_555
C6A N2A 1_555 1_555
N1A C10A 1_555 1_555
C8A C9A 1_555 1_555
C8A N2A 1_555 1_555

#END
