
#######################################################################
#
#                 Cambridge Crystallographic Data Centre
#                                CCDC 
#
#######################################################################
#
# If this CIF has been generated from an entry in the Cambridge 
# Structural Database, then it will include bibliographic, chemical, 
# crystal, experimental, refinement or atomic coordinate data resulting 
# from the CCDC's data processing and validation procedures.
#
#######################################################################

data_SEGCUD
_symmetry_cell_setting           triclinic
_symmetry_space_group_name_H-M   'P -1'
_symmetry_Int_Tables_number      2
_space_group_name_Hall           '-P 1'
loop_
_symmetry_equiv_pos_site_id
_symmetry_equiv_pos_as_xyz
1 x,y,z
2 -x,-y,-z
_cell_length_a                   3.587(1)
_cell_length_b                   17.965(2)
_cell_length_c                   18.010(2)
_cell_angle_alpha                97.70(1)
_cell_angle_beta                 92.42(1)
_cell_angle_gamma                91.87(1)
_cell_volume                     1148.22
loop_
_atom_site_label
_atom_site_type_symbol
_atom_site_fract_x
_atom_site_fract_y
_atom_site_fract_z
Cu1 Cu 0.2658(3) 0.19096(6) 0.18889(6)
N1 N 0.8966(19) 0.2743(4) 0.4804(4)
C1 C 0.721(3) 0.2136(5) 0.4409(5)
H1 H 0.6814 0.1739 0.4683
N2 N 0.5949(19) 0.2000(3) 0.3715(3)
C2 C 0.667(2) 0.2584(5) 0.3344(5)
C3 C 0.842(2) 0.3254(4) 0.3677(5)
C4 C 0.963(2) 0.3347(4) 0.4419(4)
N3 N 1.1299(18) 0.3972(4) 0.4781(4)
H2 H 1.1987 0.3994 0.5247
H3 H 1.1691 0.4354 0.4549
N4 N 0.857(2) 0.3704(4) 0.3104(4)
H4 H 0.9557 0.4151 0.3144
C5 C 0.691(2) 0.3319(5) 0.2475(5)
H5 H 0.6609 0.3504 0.2019
N5 N 0.5752(18) 0.2628(4) 0.2600(4)
C11 C -0.130(2) 0.1563(5) 0.0586(4)
C12 C 0.069(2) 0.2342(5) 0.0558(5)
O1 O -0.0880(16) 0.1315(3) 0.1198(3)
O2 O 0.2616(18) 0.2575(3) 0.1151(4)
O3 O 0.0261(17) 0.2633(4) -0.0008(3)
O4 O -0.3179(19) 0.1261(3) 0.0030(3)
O9 O 0.2553(19) 0.1162(4) 0.2554(4)
H11 H 0.1795 0.0701 0.2462
H12 H 0.3101 0.1233 0.3041
Cu1_2 Cu -0.7342(3) 0.19096(6) 0.18889(6)
O1_2 O 0.9120(16) 0.1315(3) 0.1198(3)
Cu2 Cu 0.5614(3) 0.68828(7) 0.30773(7)
N6 N 0.8929(19) 0.9793(4) 0.2413(4)
C6 C 0.934(3) 0.9434(5) 0.3005(5)
H6 H 1.0397 0.9727 0.3432
N7 N 0.8481(18) 0.8714(4) 0.3092(4)
C7 C 0.674(2) 0.8336(5) 0.2448(5)
C8 C 0.606(2) 0.8639(5) 0.1806(5)
C9 C 0.721(2) 0.9425(4) 0.1774(4)
N8 N 0.661(2) 0.9746(4) 0.1178(4)
H7 H 0.7302 1.0209 0.1178
H8 H 0.5509 0.9497 0.0784
N9 N 0.4399(19) 0.8079(4) 0.1303(4)
H9 H 0.3668 0.8113 0.0848
C10 C 0.412(2) 0.7471(5) 0.1646(5)
H10 H 0.3093 0.7008 0.1425
N10 N 0.552(2) 0.7617(4) 0.2358(4)
C13 C 0.162(2) 0.5564(5) 0.2694(5)
C14 C 0.370(2) 0.5530(5) 0.3466(5)
O5 O 0.2060(16) 0.6208(3) 0.2460(3)
O6 O 0.5712(16) 0.6112(3) 0.3719(3)
O7 O 0.3273(17) 0.4968(3) 0.3765(3)
O8 O -0.0230(18) 0.5037(3) 0.2393(4)
O10 O -0.0515(16) 0.7460(3) 0.3736(3)
H13 H 0.0213 0.7421 0.4191
H14 H 0.0074 0.7927 0.3683
Cu2_2 Cu -0.4386(3) 0.68828(7) 0.30773(7)
O5_2 O 1.2060(16) 0.6208(3) 0.2460(3)
O10_2 O 0.9485(16) 0.7460(3) 0.3736(3)
H13_2 H 1.0213 0.7421 0.4191
H14_2 H 1.0074 0.7927 0.3683
O11 O 0.500(4) 0.3947(8) -0.0175(8)
O15 O 0.664(6) 0.9359(11) 0.4916(11)
O12? O 0.177(4) 0.4170(7) 0.0173(7)
O13? O 0.007(4) 0.4990(7) 0.0826(7)
O14? O -0.351(4) 0.5224(7) 0.0926(8)
O16? O 0.859(5) 0.9951(13) 0.4929(12)
O17? O 0.950(6) 1.0648(11) 0.5231(11)
O18? O 0.614(6) 1.0102(14) 0.4973(15)
loop_
_geom_bond_atom_site_label_1
_geom_bond_atom_site_label_2
_geom_bond_site_symmetry_1
_geom_bond_site_symmetry_2
Cu1 N5 1_555 1_555
Cu2 N10 1_555 1_555
N1 C1 1_555 1_555
C1 H1 1_555 1_555
N2 C1 1_555 1_555
C2 N2 1_555 1_555
C3 C2 1_555 1_555
C4 N1 1_555 1_555
N3 C4 1_555 1_555
H2 N3 1_555 1_555
H3 N3 1_555 1_555
N4 C3 1_555 1_555
H4 N4 1_555 1_555
C5 N4 1_555 1_555
H5 C5 1_555 1_555
N5 C2 1_555 1_555
N6 C6 1_555 1_555
C6 H6 1_555 1_555
N7 C6 1_555 1_555
C7 N7 1_555 1_555
C8 C7 1_555 1_555
C9 N6 1_555 1_555
N8 C9 1_555 1_555
H7 N8 1_555 1_555
H8 N8 1_555 1_555
N9 C8 1_555 1_555
H9 N9 1_555 1_555
C10 N9 1_555 1_555
H10 C10 1_555 1_555
N10 C7 1_555 1_555
C11 C12 1_555 1_555
C12 O2 1_555 1_555
O1 Cu1 1_555 1_555
O2 Cu1 1_555 1_555
O3 C12 1_555 1_555
O4 C11 1_555 1_555
C13 C14 1_555 1_555
C14 O6 1_555 1_555
O5 Cu2 1_555 1_555
O6 Cu2 1_555 1_555
O7 C14 1_555 1_555
O8 C13 1_555 1_555
O9 Cu1 1_555 1_555
H11 O9 1_555 1_555
H12 O9 1_555 1_555
O10 Cu2 1_555 1_555
H13 O10 1_555 1_555
H14 O10 1_555 1_555
Cu1_2 O1 1_555 1_555
Cu2_2 O5 1_555 1_555
O1_2 Cu1 1_555 1_555
O5_2 Cu2 1_555 1_555
O10_2 Cu2 1_555 1_555
H13_2 O10_2 1_555 1_555
H14_2 O10_2 1_555 1_555
C3 C4 1_555 1_555
C5 N5 1_555 1_555
C8 C9 1_555 1_555
C10 N10 1_555 1_555
C11 O1 1_555 1_555
C13 O5 1_555 1_555
O10 Cu2_2 1_555 1_555

#END
