
#######################################################################
#
#                 Cambridge Crystallographic Data Centre
#                                CCDC 
#
#######################################################################
#
# If this CIF has been generated from an entry in the Cambridge 
# Structural Database, then it will include bibliographic, chemical, 
# crystal, experimental, refinement or atomic coordinate data resulting 
# from the CCDC's data processing and validation procedures.
#
#######################################################################

data_SEGDAL
_symmetry_cell_setting           triclinic
_symmetry_space_group_name_H-M   'P -1'
_symmetry_Int_Tables_number      2
_space_group_name_Hall           '-P 1'
loop_
_symmetry_equiv_pos_site_id
_symmetry_equiv_pos_as_xyz
1 x,y,z
2 -x,-y,-z
_cell_length_a                   9.995(2)
_cell_length_b                   11.410(3)
_cell_length_c                   11.572(3)
_cell_angle_alpha                87.877(4)
_cell_angle_beta                 88.749(4)
_cell_angle_gamma                83.876(3)
_cell_volume                     1311.06
loop_
_atom_site_label
_atom_site_type_symbol
_atom_site_fract_x
_atom_site_fract_y
_atom_site_fract_z
Cd1 Cd 0.76711(3) 0.23396(3) 0.29270(3)
C1 C 0.6166(6) -0.0318(5) 0.3898(5)
H1 H 0.5971 0.0494 0.4089
H2 H 0.6609 -0.0751 0.4534
H3 H 0.5342 -0.0642 0.3746
C2 C 0.7055(4) -0.0405(4) 0.2856(4)
C3 C 0.8464(5) -0.0011(4) 0.1505(4)
H4 H 0.9046 0.0389 0.1037
C4 C 0.8176(5) -0.1104(4) 0.1355(4)
H5 H 0.8523 -0.1604 0.0780
C5 C 0.6743(5) -0.2484(4) 0.2420(5)
H6 H 0.6646 -0.2851 0.1688
H7 H 0.5859 -0.2360 0.2787
C6 C 0.7664(5) -0.3286(4) 0.3181(4)
C7 C 0.7452(5) -0.3376(5) 0.4354(5)
H8 H 0.6685 -0.2976 0.4682
C8 C 0.8348(5) -0.4043(4) 0.5053(4)
H9 H 0.8167 -0.4087 0.5844
C9 C 0.9513(4) -0.4654(3) 0.4622(3)
C10 C 0.9689(5) -0.4585(4) 0.3437(4)
H10 H 1.0444 -0.4996 0.3102
C11 C 0.8779(6) -0.3926(5) 0.2741(4)
H11 H 0.8927 -0.3915 0.1945
C12 C 0.9473(5) 0.1472(5) 0.5627(4)
H12 H 0.9840 0.1497 0.4854
H13 H 0.9241 0.0692 0.5818
H14 H 1.0128 0.1675 0.6158
C13 C 0.8248(4) 0.2328(4) 0.5704(4)
C14 C 0.6496(5) 0.3518(4) 0.5260(4)
H15 H 0.5829 0.3954 0.4830
C15 C 0.6607(5) 0.3537(4) 0.6393(4)
H16 H 0.6037 0.3971 0.6902
C16 C 0.8172(5) 0.2506(5) 0.7859(4)
H17 H 0.8198 0.3232 0.8264
H18 H 0.9074 0.2097 0.7846
C17 C 0.7233(4) 0.1745(4) 0.8495(4)
C18 C 0.7018(7) 0.0678(5) 0.8143(5)
H19 H 0.7493 0.0388 0.7496
C19 C 0.6130(6) -0.0011(5) 0.8688(5)
H20 H 0.5977 -0.0729 0.8387
C20 C 0.5465(4) 0.0372(4) 0.9687(3)
C21 C 0.5683(5) 0.1444(4) 1.0034(4)
H21 H 0.5226 0.1738 1.0688
C22 C 0.6553(5) 0.2122(4) 0.9463(4)
H22 H 0.6682 0.2854 0.9744
C23 C 0.5035(4) 0.3135(4) 0.2444(4)
C24 C 0.3721(4) 0.3488(3) 0.1863(3)
C25 C 0.3650(4) 0.4298(4) 0.0943(4)
H23 H 0.4398 0.4684 0.0735
C26 C 0.2467(5) 0.4541(4) 0.0323(4)
H24 H 0.2428 0.5069 -0.0310
C27 C 0.1357(4) 0.3989(4) 0.0660(4)
H25 H 0.0567 0.4147 0.0247
C28 C 0.1392(4) 0.3209(4) 0.1595(3)
C29 C 0.2589(4) 0.2947(3) 0.2177(3)
H26 H 0.2631 0.2395 0.2791
C30 C 0.0133(4) 0.2723(4) 0.2037(4)
N1 N 0.7770(4) 0.0441(3) 0.2459(3)
N2 N 0.7269(4) -0.1355(3) 0.2212(3)
N3 N 0.7520(3) 0.2750(3) 0.4810(3)
N4 N 0.7736(4) 0.2786(3) 0.6671(3)
O1 O 0.6011(3) 0.3651(3) 0.2139(3)
O2 O 0.5099(3) 0.2297(3) 0.3152(4)
O3 O 0.0165(4) 0.2134(4) 0.2945(3)
O4 O -0.0917(3) 0.2994(3) 0.1496(3)
Cd1A Cd 1.23289(3) -1.23396(3) 0.70730(3)
Cd1_2 Cd -0.23289(3) 0.23396(3) 0.29270(3)
Cd1A_2 Cd 0.23289(3) -0.23396(3) 1.70730(3)
Cd1_3 Cd 1.76711(3) 0.23396(3) 0.29270(3)
C1A C 1.3834(6) -0.9682(5) 0.6102(5)
H1A H 1.4029 -1.0494 0.5911
H2A H 1.3391 -0.9249 0.5466
H3A H 1.4658 -0.9358 0.6254
C2A C 1.2945(4) -0.9595(4) 0.7144(4)
C3A C 1.1536(5) -0.9989(4) 0.8495(4)
H4A H 1.0954 -1.0389 0.8963
C4A C 1.1824(5) -0.8896(4) 0.8645(4)
H5A H 1.1477 -0.8396 0.9220
C5A C 1.3257(5) -0.7516(4) 0.7580(5)
H6A H 1.3354 -0.7149 0.8312
H7A H 1.4141 -0.7640 0.7213
C6A C 1.2336(5) -0.6714(4) 0.6819(4)
C7A C 1.2548(5) -0.6624(5) 0.5646(5)
H8A H 1.3315 -0.7024 0.5318
C8A C 1.1652(5) -0.5957(4) 0.4947(4)
H9A H 1.1833 -0.5913 0.4156
C9A C 1.0487(4) -0.5346(3) 0.5378(3)
C10A C 1.0311(5) -0.5415(4) 0.6563(4)
H10A H 0.9556 -0.5004 0.6898
C11A C 1.1221(6) -0.6074(5) 0.7259(4)
H11A H 1.1073 -0.6085 0.8055
C12A C 0.0527(5) -0.1472(5) 1.4373(4)
H12A H 0.0160 -0.1497 1.5146
H13A H 0.0759 -0.0692 1.4182
H14A H -0.0128 -0.1675 1.3842
C13A C 0.1752(4) -0.2328(4) 1.4296(4)
C14A C 0.3504(5) -0.3518(4) 1.4740(4)
H15A H 0.4171 -0.3954 1.5170
C15A C 0.3393(5) -0.3537(4) 1.3607(4)
H16A H 0.3963 -0.3971 1.3098
C16A C 0.1828(5) -0.2506(5) 1.2141(4)
H17A H 0.1802 -0.3232 1.1736
H18A H 0.0926 -0.2097 1.2154
C17A C 0.2767(4) -0.1745(4) 1.1505(4)
C18A C 0.2982(7) -0.0678(5) 1.1857(5)
H19A H 0.2507 -0.0388 1.2504
C19A C 0.3870(6) 0.0011(5) 1.1312(5)
H20A H 0.4023 0.0729 1.1613
C20A C 0.4535(4) -0.0372(4) 1.0313(3)
C21A C 0.4317(5) -0.1444(4) 0.9966(4)
H21A H 0.4774 -0.1738 0.9312
C22A C 0.3447(5) -0.2122(4) 1.0537(4)
H22A H 0.3318 -0.2854 1.0256
C23_2 C 1.5035(4) 0.3135(4) 0.2444(4)
C24_2 C 1.3721(4) 0.3488(3) 0.1863(3)
C25_2 C 1.3650(4) 0.4298(4) 0.0943(4)
H23_2 H 1.4398 0.4684 0.0735
C26_2 C 1.2467(5) 0.4541(4) 0.0323(4)
H24_2 H 1.2428 0.5069 -0.0310
C27_2 C 1.1357(4) 0.3989(4) 0.0660(4)
H25_2 H 1.0567 0.4147 0.0247
C28_2 C 1.1392(4) 0.3209(4) 0.1595(3)
C29_2 C 1.2589(4) 0.2947(3) 0.2177(3)
H26_2 H 1.2631 0.2395 0.2791
C30_2 C 1.0133(4) 0.2723(4) 0.2037(4)
N1A N 1.2230(4) -1.0441(3) 0.7541(3)
N2A N 1.2731(4) -0.8645(3) 0.7788(3)
N3A N 0.2480(3) -0.2750(3) 1.5190(3)
N3A_2 N 1.2480(3) -1.2750(3) 0.5190(3)
N4A N 0.2264(4) -0.2786(3) 1.3329(3)
O1_2 O 1.6011(3) 0.3651(3) 0.2139(3)
O1A O 1.3989(3) -1.3651(3) 0.7861(3)
O2_2 O 1.5099(3) 0.2297(3) 0.3152(4)
O2A O 1.4901(3) -1.2297(3) 0.6848(4)
O3_2 O 1.0165(4) 0.2134(4) 0.2945(3)
O3A O 0.9835(4) -1.2134(4) 0.7055(3)
O4_2 O 0.9083(3) 0.2994(3) 0.1496(3)
O4A O 1.0917(3) -1.2994(3) 0.8504(3)
loop_
_geom_bond_atom_site_label_1
_geom_bond_atom_site_label_2
_geom_bond_site_symmetry_1
_geom_bond_site_symmetry_2
Cd1 N1 1_555 1_555
C1 H1 1_555 1_555
H2 C1 1_555 1_555
H3 C1 1_555 1_555
C2 C1 1_555 1_555
C3 H4 1_555 1_555
C4 C3 1_555 1_555
H5 C4 1_555 1_555
C5 H6 1_555 1_555
H7 C5 1_555 1_555
C6 C5 1_555 1_555
C7 C6 1_555 1_555
H8 C7 1_555 1_555
C8 C7 1_555 1_555
H9 C8 1_555 1_555
C9 C8 1_555 1_555
C10 C9 1_555 1_555
H10 C10 1_555 1_555
C11 C6 1_555 1_555
H11 C11 1_555 1_555
C12 H12 1_555 1_555
H13 C12 1_555 1_555
H14 C12 1_555 1_555
C13 C12 1_555 1_555
C14 H15 1_555 1_555
C15 C14 1_555 1_555
H16 C15 1_555 1_555
C16 H17 1_555 1_555
H18 C16 1_555 1_555
C17 C16 1_555 1_555
C18 C17 1_555 1_555
H19 C18 1_555 1_555
C19 C18 1_555 1_555
H20 C19 1_555 1_555
C20 C19 1_555 1_555
C21 C20 1_555 1_555
H21 C21 1_555 1_555
C22 C17 1_555 1_555
H22 C22 1_555 1_555
C23 C24 1_555 1_555
C24 C25 1_555 1_555
C25 H23 1_555 1_555
C26 C25 1_555 1_555
H24 C26 1_555 1_555
C27 C26 1_555 1_555
H25 C27 1_555 1_555
C28 C27 1_555 1_555
C29 C24 1_555 1_555
H26 C29 1_555 1_555
C30 C28 1_555 1_555
N1 C2 1_555 1_555
N2 C2 1_555 1_555
N3 Cd1 1_555 1_555
N4 C13 1_555 1_555
O1 Cd1 1_555 1_555
O2 Cd1 1_555 1_555
O3 C30 1_555 1_555
O4 C30 1_555 1_555
Cd1A N1A 1_555 1_555
Cd1_2 O3 1_555 1_555
Cd1A_2 N3A 1_555 1_555
Cd1_3 O1_2 1_555 1_555
C1A H1A 1_555 1_555
H2A C1A 1_555 1_555
H3A C1A 1_555 1_555
C2A C1A 1_555 1_555
C3A H4A 1_555 1_555
C4A C3A 1_555 1_555
H5A C4A 1_555 1_555
C5A H6A 1_555 1_555
H7A C5A 1_555 1_555
C6A C5A 1_555 1_555
C7A C6A 1_555 1_555
H8A C7A 1_555 1_555
C8A C7A 1_555 1_555
H9A C8A 1_555 1_555
C9A C9 1_555 1_555
C10A C9A 1_555 1_555
H10A C10A 1_555 1_555
C11A C6A 1_555 1_555
H11A C11A 1_555 1_555
C12A H12A 1_555 1_555
H13A C12A 1_555 1_555
H14A C12A 1_555 1_555
C13A C12A 1_555 1_555
C14A H15A 1_555 1_555
C15A C14A 1_555 1_555
H16A C15A 1_555 1_555
C16A H17A 1_555 1_555
H18A C16A 1_555 1_555
C17A C16A 1_555 1_555
C18A C17A 1_555 1_555
H19A C18A 1_555 1_555
C19A C18A 1_555 1_555
H20A C19A 1_555 1_555
C20A C20 1_555 1_555
C21A C20A 1_555 1_555
H21A C21A 1_555 1_555
C22A C17A 1_555 1_555
H22A C22A 1_555 1_555
C23_2 C24_2 1_555 1_555
C24_2 C25_2 1_555 1_555
C25_2 H23_2 1_555 1_555
C26_2 C25_2 1_555 1_555
H24_2 C26_2 1_555 1_555
C27_2 C26_2 1_555 1_555
H25_2 C27_2 1_555 1_555
C28_2 C27_2 1_555 1_555
C29_2 C24_2 1_555 1_555
H26_2 C29_2 1_555 1_555
C30_2 C28_2 1_555 1_555
N1A C2A 1_555 1_555
N2A C2A 1_555 1_555
N3A C13A 1_555 1_555
N3A_2 Cd1A 1_555 1_555
N4A C13A 1_555 1_555
O1_2 C23_2 1_555 1_555
O1A Cd1A 1_555 1_555
O2_2 Cd1_3 1_555 1_555
O2A Cd1A 1_555 1_555
O3_2 Cd1 1_555 1_555
O3A Cd1A 1_555 1_555
O4_2 Cd1 1_555 1_555
O4A Cd1A 1_555 1_555
C3 N1 1_555 1_555
C4 N2 1_555 1_555
C5 N2 1_555 1_555
C10 C11 1_555 1_555
C13 N3 1_555 1_555
C14 N3 1_555 1_555
C15 N4 1_555 1_555
C16 N4 1_555 1_555
C21 C22 1_555 1_555
C23 O1 1_555 1_555
C23 O2 1_555 1_555
C28 C29 1_555 1_555
O4 Cd1_2 1_555 1_555
C3A N1A 1_555 1_555
C4A N2A 1_555 1_555
C5A N2A 1_555 1_555
C8A C9A 1_555 1_555
C10A C11A 1_555 1_555
C14A N3A 1_555 1_555
C15A N4A 1_555 1_555
C16A N4A 1_555 1_555
C19A C20A 1_555 1_555
C21A C22A 1_555 1_555
C23_2 O2_2 1_555 1_555
C28_2 C29_2 1_555 1_555
C30_2 O3_2 1_555 1_555
C30_2 O4_2 1_555 1_555

#END
