
#######################################################################
#
#                 Cambridge Crystallographic Data Centre
#                                CCDC 
#
#######################################################################
#
# If this CIF has been generated from an entry in the Cambridge 
# Structural Database, then it will include bibliographic, chemical, 
# crystal, experimental, refinement or atomic coordinate data resulting 
# from the CCDC's data processing and validation procedures.
#
#######################################################################

data_SEGDEP
_symmetry_cell_setting           triclinic
_symmetry_space_group_name_H-M   'P -1'
_symmetry_Int_Tables_number      2
_space_group_name_Hall           '-P 1'
loop_
_symmetry_equiv_pos_site_id
_symmetry_equiv_pos_as_xyz
1 x,y,z
2 -x,-y,-z
_cell_length_a                   10.237(12)
_cell_length_b                   11.827(14)
_cell_length_c                   14.256(16)
_cell_angle_alpha                91.67(2)
_cell_angle_beta                 109.35(2)
_cell_angle_gamma                103.26(2)
_cell_volume                     1574.68
loop_
_atom_site_label
_atom_site_type_symbol
_atom_site_fract_x
_atom_site_fract_y
_atom_site_fract_z
Zn1 Zn 0.18605(12) 0.04829(9) 0.81822(7)
Br1 Br 0.22758(13) 0.20403(9) 0.44094(8)
Br2 Br 0.10548(13) 0.26038(9) 0.62396(7)
Br3 Br 0.38780(12) 0.73094(8) 0.92598(8)
Br4 Br 0.17823(11) 0.46537(8) 0.83554(7)
C1 C -0.0256(13) -0.1938(10) 0.8836(7)
H1 H -0.1015 -0.1783 0.9032
H2 H -0.0314 -0.2761 0.8814
H3 H -0.0346 -0.1695 0.8186
C2 C 0.1136(11) -0.1287(9) 0.9567(7)
C3 C 0.3163(12) -0.0053(9) 1.0259(9)
H4 H 0.3969 0.0556 1.0353
C4 C 0.2918(13) -0.0701(10) 1.0969(8)
H5 H 0.3496 -0.0620 1.1639
C5 C 0.0952(12) -0.2369(9) 1.1042(7)
H6 H 0.0053 -0.2841 1.0574
H7 H 0.0743 -0.1956 1.1551
C6 C 0.1912(12) -0.3175(8) 1.1539(7)
C7 C 0.2730(12) -0.2982(9) 1.2553(7)
H8 H 0.2734 -0.2339 1.2946
C8 C 0.3530(12) -0.3740(9) 1.2972(7)
H9 H 0.4081 -0.3592 1.3649
C9 C 0.3546(10) -0.4703(8) 1.2432(6)
C10 C 0.2773(11) -0.4862(8) 1.1422(7)
H10 H 0.2804 -0.5488 1.1027
C11 C 0.1953(12) -0.4116(9) 1.0981(7)
H11 H 0.1424 -0.4254 1.0300
C12 C 0.4420(11) -0.5525(9) 1.2921(7)
C13 C 0.5580(14) -0.5180(10) 1.3774(9)
H12 H 0.5879 -0.4401 1.4047
C14 C 0.6327(15) -0.5967(11) 1.4246(8)
H13 H 0.7162 -0.5697 1.4796
C15 C 0.5843(12) -0.7156(10) 1.3907(7)
C16 C 0.4712(12) -0.7477(9) 1.3027(8)
H14 H 0.4403 -0.8257 1.2756
C17 C 0.4005(12) -0.6682(9) 1.2522(8)
H15 H 0.3253 -0.6929 1.1917
C18 C 0.6587(13) -0.8025(10) 1.4472(7)
H16 H 0.7556 -0.7615 1.4885
H17 H 0.6092 -0.8352 1.4915
C19 C 0.5811(13) -1.0105(10) 1.3676(8)
H18 H 0.5122 -1.0407 1.3956
C20 C 0.6220(13) -1.0678(10) 1.3027(7)
H19 H 0.5862 -1.1471 1.2800
C21 C 0.7446(12) -0.8926(9) 1.3270(7)
C22 C 0.8508(11) -0.7796(8) 1.3194(7)
H20 H 0.8002 -0.7209 1.2970
H21 H 0.8949 -0.7962 1.2724
H22 H 0.9232 -0.7519 1.3839
C23 C -0.1033(12) 0.0463(8) 0.6644(7)
C24 C -0.0487(10) 0.0233(7) 0.5779(6)
C25 C 0.0468(12) 0.1106(8) 0.5519(6)
C26 C 0.0957(10) 0.0872(7) 0.4759(6)
C27 C 0.3073(10) 0.2658(8) 0.9303(7)
C28 C 0.4121(10) 0.3883(8) 0.9627(6)
C29 C 0.3658(10) 0.4864(8) 0.9296(6)
C30 C 0.4536(10) 0.5969(7) 0.9667(6)
N1 N 0.2029(10) -0.0430(7) 0.9361(6)
N2 N 0.1644(10) -0.1505(7) 1.0504(6)
N3 N 0.6644(10) -0.8975(8) 1.3828(6)
N4 N 0.7227(8) -0.9933(7) 1.2752(5)
O1 O -0.0150(7) 0.0438(5) 0.7518(4)
O2 O -0.2187(8) 0.0660(6) 0.6421(5)
O3 O 0.3156(7) 0.2061(5) 0.8590(5)
O4 O 0.2304(8) 0.2362(6) 0.9788(5)
Zn1A Zn -0.18605(12) -0.04829(9) 0.18178(7)
Zn1_2 Zn -0.81395(12) 1.04829(9) -0.18178(7)
Zn1A_2 Zn 0.81395(12) -1.04829(9) 1.18178(7)
Zn1A_3 Zn 0.81395(12) 0.95171(9) 1.18178(7)
Br1A Br -0.22758(13) -0.20403(9) 0.55906(8)
Br2A Br -0.10548(13) -0.26038(9) 0.37604(7)
Br3A Br 0.61220(12) 0.26906(8) 1.07402(8)
Br4A Br 0.82177(11) 0.53463(8) 1.16446(7)
C1A C 0.0256(13) 0.1938(10) 0.1164(7)
H1A H 0.1015 0.1783 0.0968
H2A H 0.0314 0.2761 0.1186
H3A H 0.0346 0.1695 0.1814
C2A C -0.1136(11) 0.1287(9) 0.0433(7)
C3A C -0.3163(12) 0.0053(9) -0.0259(9)
H4A H -0.3969 -0.0556 -0.0353
C4A C -0.2918(13) 0.0701(10) -0.0969(8)
H5A H -0.3496 0.0620 -0.1639
C5A C -0.0952(12) 0.2369(9) -0.1042(7)
H6A H -0.0053 0.2841 -0.0574
H7A H -0.0743 0.1956 -0.1551
C6A C -0.1912(12) 0.3175(8) -0.1539(7)
C7A C -0.2730(12) 0.2982(9) -0.2553(7)
H8A H -0.2734 0.2339 -0.2946
C8A C -0.3530(12) 0.3740(9) -0.2972(7)
H9A H -0.4081 0.3592 -0.3649
C9A C -0.3546(10) 0.4703(8) -0.2432(6)
C10A C -0.2773(11) 0.4862(8) -0.1422(7)
H10A H -0.2804 0.5488 -0.1027
C11A C -0.1953(12) 0.4116(9) -0.0981(7)
H11A H -0.1424 0.4254 -0.0300
C12A C -0.4420(11) 0.5525(9) -0.2921(7)
C13A C -0.5580(14) 0.5180(10) -0.3774(9)
H12A H -0.5879 0.4401 -0.4047
C14A C -0.6327(15) 0.5967(11) -0.4246(8)
H13A H -0.7162 0.5697 -0.4796
C15A C -0.5843(12) 0.7156(10) -0.3907(7)
C16A C -0.4712(12) 0.7477(9) -0.3027(8)
H14A H -0.4403 0.8257 -0.2756
C17A C -0.4005(12) 0.6682(9) -0.2522(8)
H15A H -0.3253 0.6929 -0.1917
C18A C -0.6587(13) 0.8025(10) -0.4472(7)
H16A H -0.7556 0.7615 -0.4885
H17A H -0.6092 0.8352 -0.4915
C19A C -0.5811(13) 1.0105(10) -0.3676(8)
H18A H -0.5122 1.0407 -0.3956
C20A C -0.6220(13) 1.0678(10) -0.3027(7)
H19A H -0.5862 1.1471 -0.2800
C21A C -0.7446(12) 0.8926(9) -0.3270(7)
C22A C -0.8508(11) 0.7796(8) -0.3194(7)
H20A H -0.8002 0.7209 -0.2970
H21A H -0.8949 0.7962 -0.2724
H22A H -0.9232 0.7519 -0.3839
C23A C 0.1033(12) -0.0463(8) 0.3356(7)
C24A C 0.0487(10) -0.0233(7) 0.4221(6)
C25A C -0.0468(12) -0.1106(8) 0.4481(6)
C26A C -0.0957(10) -0.0872(7) 0.5241(6)
C27A C 0.6927(10) 0.7342(8) 1.0697(7)
C28A C 0.5879(10) 0.6117(8) 1.0373(6)
C29A C 0.6342(10) 0.5136(8) 1.0704(6)
C30A C 0.5464(10) 0.4031(7) 1.0333(6)
N1A N -0.2029(10) 0.0430(7) 0.0639(6)
N2A N -0.1644(10) 0.1505(7) -0.0504(6)
N3A N -0.6644(10) 0.8975(8) -0.3828(6)
N4A N -0.7227(8) 0.9933(7) -0.2752(5)
N4_2 N -0.2773(8) 0.0067(7) 0.2752(5)
N4A_2 N 0.2773(8) -0.0067(7) 0.7248(5)
O1A O 0.0150(7) -0.0438(5) 0.2482(4)
O2A O 0.2187(8) -0.0660(6) 0.3579(5)
O3A O 0.6844(7) 0.7939(5) 1.1410(5)
O3A_2 O -0.3156(7) -0.2061(5) 0.1410(5)
O4A O 0.7696(8) 0.7638(6) 1.0212(5)
loop_
_geom_bond_atom_site_label_1
_geom_bond_atom_site_label_2
_geom_bond_site_symmetry_1
_geom_bond_site_symmetry_2
Zn1 N1 1_555 1_555
Br1 C26 1_555 1_555
Br2 C25 1_555 1_555
Br3 C30 1_555 1_555
Br4 C29 1_555 1_555
C1 H1 1_555 1_555
H2 C1 1_555 1_555
H3 C1 1_555 1_555
C2 C1 1_555 1_555
C3 H4 1_555 1_555
C4 C3 1_555 1_555
H5 C4 1_555 1_555
C5 H6 1_555 1_555
H7 C5 1_555 1_555
C6 C5 1_555 1_555
C7 C6 1_555 1_555
H8 C7 1_555 1_555
C8 C7 1_555 1_555
H9 C8 1_555 1_555
C9 C8 1_555 1_555
C10 C9 1_555 1_555
H10 C10 1_555 1_555
C11 C6 1_555 1_555
H11 C11 1_555 1_555
C12 C9 1_555 1_555
C13 C12 1_555 1_555
H12 C13 1_555 1_555
C14 C13 1_555 1_555
H13 C14 1_555 1_555
C15 C14 1_555 1_555
C16 C15 1_555 1_555
H14 C16 1_555 1_555
C17 C12 1_555 1_555
H15 C17 1_555 1_555
C18 C15 1_555 1_555
H16 C18 1_555 1_555
H17 C18 1_555 1_555
C19 H18 1_555 1_555
C20 C19 1_555 1_555
H19 C20 1_555 1_555
C21 C22 1_555 1_555
C22 H20 1_555 1_555
H21 C22 1_555 1_555
H22 C22 1_555 1_555
C23 C24 1_555 1_555
C24 C25 1_555 1_555
C25 C26 1_555 1_555
C26 C24A 1_555 1_555
C27 C28 1_555 1_555
C28 C29 1_555 1_555
C29 C30 1_555 1_555
C30 C28A 1_555 1_555
N1 C2 1_555 1_555
N2 C2 1_555 1_555
N3 C18 1_555 1_555
N4 C20 1_555 1_555
O1 Zn1 1_555 1_555
O2 C23 1_555 1_555
O3 Zn1 1_555 1_555
O4 C27 1_555 1_555
Zn1A N1A 1_555 1_555
Zn1_2 N4A 1_555 1_555
Zn1A_2 N4 1_555 1_555
Zn1A_3 O3A 1_555 1_555
Br1A C26A 1_555 1_555
Br2A C25A 1_555 1_555
Br3A C30A 1_555 1_555
Br4A C29A 1_555 1_555
C1A H1A 1_555 1_555
H2A C1A 1_555 1_555
H3A C1A 1_555 1_555
C2A C1A 1_555 1_555
C3A H4A 1_555 1_555
C4A C3A 1_555 1_555
H5A C4A 1_555 1_555
C5A H6A 1_555 1_555
H7A C5A 1_555 1_555
C6A C5A 1_555 1_555
C7A C6A 1_555 1_555
H8A C7A 1_555 1_555
C8A C7A 1_555 1_555
H9A C8A 1_555 1_555
C9A C8A 1_555 1_555
C10A C9A 1_555 1_555
H10A C10A 1_555 1_555
C11A C6A 1_555 1_555
H11A C11A 1_555 1_555
C12A C9A 1_555 1_555
C13A C12A 1_555 1_555
H12A C13A 1_555 1_555
C14A C13A 1_555 1_555
H13A C14A 1_555 1_555
C15A C14A 1_555 1_555
C16A C15A 1_555 1_555
H14A C16A 1_555 1_555
C17A C12A 1_555 1_555
H15A C17A 1_555 1_555
C18A C15A 1_555 1_555
H16A C18A 1_555 1_555
H17A C18A 1_555 1_555
C19A H18A 1_555 1_555
C20A C19A 1_555 1_555
H19A C20A 1_555 1_555
C21A C22A 1_555 1_555
C22A H20A 1_555 1_555
H21A C22A 1_555 1_555
H22A C22A 1_555 1_555
C23A C24A 1_555 1_555
C24A C25A 1_555 1_555
C25A C26A 1_555 1_555
C26A C24 1_555 1_555
C27A C28A 1_555 1_555
C28A C29A 1_555 1_555
C29A C30A 1_555 1_555
C30A C28 1_555 1_555
N1A C2A 1_555 1_555
N2A C2A 1_555 1_555
N3A C18A 1_555 1_555
N4A C20A 1_555 1_555
N4_2 Zn1A 1_555 1_555
N4A_2 Zn1 1_555 1_555
O1A Zn1A 1_555 1_555
O2A C23A 1_555 1_555
O3A C27A 1_555 1_555
O3A_2 Zn1A 1_555 1_555
O4A C27A 1_555 1_555
C3 N1 1_555 1_555
C4 N2 1_555 1_555
C5 N2 1_555 1_555
C10 C11 1_555 1_555
C16 C17 1_555 1_555
C19 N3 1_555 1_555
C21 N3 1_555 1_555
C21 N4 1_555 1_555
C23 O1 1_555 1_555
C27 O3 1_555 1_555
C3A N1A 1_555 1_555
C4A N2A 1_555 1_555
C5A N2A 1_555 1_555
C10A C11A 1_555 1_555
C16A C17A 1_555 1_555
C19A N3A 1_555 1_555
C21A N3A 1_555 1_555
C21A N4A 1_555 1_555
C23A O1A 1_555 1_555

#END
