
#######################################################################
#
#                 Cambridge Crystallographic Data Centre
#                                CCDC 
#
#######################################################################
#
# If this CIF has been generated from an entry in the Cambridge 
# Structural Database, then it will include bibliographic, chemical, 
# crystal, experimental, refinement or atomic coordinate data resulting 
# from the CCDC's data processing and validation procedures.
#
#######################################################################

data_SEGFOB
_symmetry_cell_setting           monoclinic
_symmetry_space_group_name_H-M   'C c'
_symmetry_Int_Tables_number      9
_space_group_name_Hall           'C -2yc'
loop_
_symmetry_equiv_pos_site_id
_symmetry_equiv_pos_as_xyz
1 x,y,z
2 x,-y,1/2+z
3 1/2+x,1/2+y,z
4 1/2+x,1/2-y,1/2+z
_cell_length_a                   19.314(4)
_cell_length_b                   12.146(2)
_cell_length_c                   17.814(4)
_cell_angle_alpha                90
_cell_angle_beta                 106.86(3)
_cell_angle_gamma                90
_cell_volume                     3999.32
loop_
_atom_site_label
_atom_site_type_symbol
_atom_site_fract_x
_atom_site_fract_y
_atom_site_fract_z
Ag1 Ag 0.867031(19) 0.35315(3) 0.69130(2)
C1 C 0.7619(3) 0.2288(4) 0.7619(3)
H1 H 0.7987 0.2393 0.8083
C2 C 0.7009(3) 0.1698(4) 0.7638(3)
H2 H 0.6978 0.1414 0.8112
C3 C 0.6444(3) 0.1525(4) 0.6962(3)
C4 C 0.6512(3) 0.2016(4) 0.6275(3)
H3 H 0.6139 0.1964 0.5810
C5 C 0.7137(3) 0.2576(4) 0.6297(3)
H4 H 0.7177 0.2877 0.5831
C6 C 0.5092(3) -0.0174(4) 0.7630(3)
H5 H 0.5021 -0.0406 0.8100
C7 C 0.5681(3) 0.0475(4) 0.7653(3)
H6 H 0.5997 0.0675 0.8134
C8 C 0.5810(3) 0.0836(3) 0.6960(3)
C9 C 0.5305(3) 0.0502(4) 0.6262(3)
H7 H 0.5362 0.0717 0.5782
C10 C 0.4723(3) -0.0146(4) 0.6285(3)
H8 H 0.4393 -0.0351 0.5812
N1 N 0.7694(2) 0.2715(3) 0.6948(2)
N2 N 0.4610(2) -0.0489(3) 0.6947(2)
N9 N 0.8856(2) 0.1713(3) 0.5387(2)
O2 O 0.8314(2) 0.2180(3) 0.4948(2)
O4 O 0.9200(2) 0.2143(3) 0.6019(2)
O5 O 0.9033(2) 0.0798(3) 0.5200(2)
Ag1B Ag 0.367031(19) -0.14685(3) 0.69130(2)
N2B N 0.9610(2) 0.4511(3) 0.6947(2)
Ag2 Ag 0.482779(18) 0.36082(3) 0.263546(18)
C11 C 0.3783(3) 0.4941(4) 0.3274(3)
H9 H 0.4107 0.4720 0.3746
C12 C 0.3199(3) 0.5587(4) 0.3294(3)
H10 H 0.3140 0.5797 0.3774
C13 C 0.2703(3) 0.5921(4) 0.2605(3)
C14 C 0.2832(3) 0.5596(4) 0.1910(3)
H11 H 0.2517 0.5801 0.1429
C15 C 0.3434(3) 0.4967(4) 0.1941(3)
H12 H 0.3517 0.4772 0.1469
C16 C 0.1291(3) 0.7472(4) 0.3277(3)
H13 H 0.1211 0.7670 0.3749
C17 C 0.1922(3) 0.6923(4) 0.3301(3)
H14 H 0.2265 0.6787 0.3780
C18 C 0.2044(3) 0.6572(3) 0.2605(3)
C19 C 0.1514(3) 0.6842(4) 0.1917(3)
H15 H 0.1572 0.6634 0.1437
C20 C 0.0909(3) 0.7410(4) 0.1938(3)
H16 H 0.0566 0.7577 0.1466
N3 N 0.3904(2) 0.4620(3) 0.2603(2)
N4 N 0.0784(2) 0.7737(3) 0.2605(2)
Ag2B Ag -0.017221(18) 0.86082(3) 0.263546(18)
N4B N 0.5784(2) 0.2737(3) 0.2605(2)
Ag3 Ag 0.61189(2) 0.54798(3) 0.22890(2)
C21 C 0.5056(3) 0.6754(4) 0.2959(3)
H17 H 0.5359 0.6480 0.3426
C22 C 0.4480(3) 0.7398(4) 0.2994(3)
H18 H 0.4397 0.7535 0.3474
C23 C 0.4023(3) 0.7844(3) 0.2309(3)
C24 C 0.4179(3) 0.7571(4) 0.1617(3)
H19 H 0.3885 0.7839 0.1142
C25 C 0.4757(3) 0.6916(4) 0.1622(3)
H20 H 0.4844 0.6754 0.1148
C26 C 0.2664(3) 0.9484(4) 0.2992(3)
H21 H 0.2609 0.9736 0.3464
C27 C 0.3283(3) 0.8915(4) 0.3011(3)
H22 H 0.3635 0.8792 0.3485
C28 C 0.3381(3) 0.8521(4) 0.2312(3)
C29 C 0.2852(3) 0.8776(4) 0.1635(3)
H23 H 0.2904 0.8558 0.1154
C30 C 0.2244(3) 0.9349(4) 0.1659(3)
H24 H 0.1894 0.9501 0.1188
N5 N 0.5204(3) 0.6499(3) 0.2286(3)
N6 N 0.2134(2) 0.9699(3) 0.2329(2)
O3 O 0.5496(2) 0.4862(3) 0.0838(2)
H33 H 0.5729 0.5063 0.0524
H34 H 0.5068 0.4689 0.0573
Ag3B Ag 0.11189(2) 1.04798(3) 0.22890(2)
N6B N 0.7134(2) 0.4699(3) 0.2329(2)
C31 C 0.6750(4) 0.7688(4) 0.4739(3)
H25 H 0.6545 0.6990 0.4708
C32 C 0.7461(3) 0.7788(4) 0.4730(3)
C33 C 0.7753(3) 0.8852(4) 0.4800(3)
H26 H 0.8235 0.8948 0.4818
C34 C 0.7340(3) 0.9756(4) 0.4841(3)
H27 H 0.7545 1.0454 0.4877
C35 C 0.6627(3) 0.9646(4) 0.4830(3)
H28 H 0.6348 1.0263 0.4849
C36 C 0.6334(4) 0.8597(5) 0.4792(3)
C37 C 0.5586(4) 0.8463(6) 0.4788(4)
N7 N 0.7869(3) 0.6896(4) 0.4671(3)
H29 H 0.7685 0.6246 0.4638
H30 H 0.8310 0.6982 0.4667
N8 N 0.5004(4) 0.8351(7) 0.4794(3)
N10 N 0.6176(3) 0.4695(3) 0.4320(2)
O6 O 0.5505(2) 0.4550(4) 0.4111(2)
O7 O 0.6534(3) 0.4357(4) 0.4972(2)
O8 O 0.6485(2) 0.5172(3) 0.3891(2)
N11 N 0.4683(3) 0.2039(4) 0.4259(2)
O9 O 0.5298(2) 0.1618(4) 0.4417(2)
O10 O 0.4442(3) 0.2313(4) 0.4812(2)
O11 O 0.4315(2) 0.2176(4) 0.3568(2)
O1 O 0.8056(3) 0.4392(4) 0.5189(3)
H31 H 0.7603 0.4429 0.5128
H32 H 0.8162 0.3728 0.5119
loop_
_geom_bond_atom_site_label_1
_geom_bond_atom_site_label_2
_geom_bond_site_symmetry_1
_geom_bond_site_symmetry_2
Ag1 N1 1_555 1_555
Ag2 N3 1_555 1_555
Ag3 N5 1_555 1_555
C1 H1 1_555 1_555
C2 C1 1_555 1_555
H2 C2 1_555 1_555
C3 C2 1_555 1_555
C4 C3 1_555 1_555
H3 C4 1_555 1_555
C5 C4 1_555 1_555
H4 C5 1_555 1_555
C6 H5 1_555 1_555
C7 C6 1_555 1_555
H6 C7 1_555 1_555
C8 C3 1_555 1_555
C9 C8 1_555 1_555
H7 C9 1_555 1_555
C10 C9 1_555 1_555
H8 C10 1_555 1_555
C11 H9 1_555 1_555
C12 C11 1_555 1_555
H10 C12 1_555 1_555
C13 C12 1_555 1_555
C14 C13 1_555 1_555
H11 C14 1_555 1_555
C15 C14 1_555 1_555
H12 C15 1_555 1_555
C16 H13 1_555 1_555
C17 C16 1_555 1_555
H14 C17 1_555 1_555
C18 C13 1_555 1_555
C19 C18 1_555 1_555
H15 C19 1_555 1_555
C20 C19 1_555 1_555
H16 C20 1_555 1_555
C21 H17 1_555 1_555
C22 C21 1_555 1_555
H18 C22 1_555 1_555
C23 C22 1_555 1_555
C24 C23 1_555 1_555
H19 C24 1_555 1_555
C25 C24 1_555 1_555
H20 C25 1_555 1_555
C26 H21 1_555 1_555
C27 C26 1_555 1_555
H22 C27 1_555 1_555
C28 C23 1_555 1_555
C29 C28 1_555 1_555
H23 C29 1_555 1_555
C30 C29 1_555 1_555
H24 C30 1_555 1_555
C31 H25 1_555 1_555
C32 C31 1_555 1_555
C33 C32 1_555 1_555
H26 C33 1_555 1_555
C34 C33 1_555 1_555
H27 C34 1_555 1_555
C35 C34 1_555 1_555
H28 C35 1_555 1_555
C36 C31 1_555 1_555
C37 C36 1_555 1_555
N1 C1 1_555 1_555
N2 C6 1_555 1_555
N3 C11 1_555 1_555
N4 C16 1_555 1_555
N5 C21 1_555 1_555
N6 C26 1_555 1_555
N7 C32 1_555 1_555
H29 N7 1_555 1_555
H30 N7 1_555 1_555
N8 C37 1_555 1_555
N9 O2 1_555 1_555
N10 O6 1_555 1_555
N11 O9 1_555 1_555
O1 H31 1_555 1_555
H32 O1 1_555 1_555
O3 Ag3 1_555 1_555
H33 O3 1_555 1_555
H34 O3 1_555 1_555
O4 Ag1 1_555 1_555
O5 N9 1_555 1_555
O7 N10 1_555 1_555
O8 N10 1_555 1_555
O10 N11 1_555 1_555
O11 N11 1_555 1_555
Ag1B N2 1_555 1_555
Ag2B N4 1_555 1_555
Ag3B N6 1_555 1_555
N2B Ag1 1_555 1_555
N4B Ag2 1_555 1_555
N6B Ag3 1_555 1_555
C5 N1 1_555 1_555
C7 C8 1_555 1_555
C10 N2 1_555 1_555
C15 N3 1_555 1_555
C17 C18 1_555 1_555
C20 N4 1_555 1_555
C25 N5 1_555 1_555
C27 C28 1_555 1_555
C30 N6 1_555 1_555
C35 C36 1_555 1_555
N9 O4 1_555 1_555

#END
