
#######################################################################
#
#                 Cambridge Crystallographic Data Centre
#                                CCDC 
#
#######################################################################
#
# If this CIF has been generated from an entry in the Cambridge 
# Structural Database, then it will include bibliographic, chemical, 
# crystal, experimental, refinement or atomic coordinate data resulting 
# from the CCDC's data processing and validation procedures.
#
#######################################################################

data_SEGJIY
_symmetry_cell_setting           triclinic
_symmetry_space_group_name_H-M   'P -1'
_symmetry_Int_Tables_number      2
_space_group_name_Hall           '-P 1'
loop_
_symmetry_equiv_pos_site_id
_symmetry_equiv_pos_as_xyz
1 x,y,z
2 -x,-y,-z
_cell_length_a                   11.021(2)
_cell_length_b                   13.529(3)
_cell_length_c                   16.250(3)
_cell_angle_alpha                92.552(3)
_cell_angle_beta                 108.041(3)
_cell_angle_gamma                97.999(3)
_cell_volume                     2271.49
loop_
_atom_site_label
_atom_site_type_symbol
_atom_site_fract_x
_atom_site_fract_y
_atom_site_fract_z
Pb1 Pb 1.17482(3) 0.98676(2) 1.031341(19)
K1 K 0.72585(16) 0.65483(12) 0.95669(10)
K2 K 1.15080(17) 0.76030(12) 0.54090(10)
N1 N 0.7789(9) 0.6308(7) 0.7861(5)
N2 N 1.1071(7) 0.6880(5) 0.6945(4)
N3 N 1.4910(8) 0.7529(6) 1.3264(5)
N4 N 1.1955(10) 0.8681(7) 1.4067(5)
O1 O 0.4923(5) 0.6540(5) 0.8305(4)
O2 O 0.6071(5) 0.8325(4) 0.9466(3)
O3 O 0.7369(6) 0.7758(4) 1.1016(3)
O4 O 0.8850(6) 0.6268(5) 1.1395(4)
O5 O 0.8188(6) 0.4783(4) 0.9982(4)
O6 O 0.5706(6) 0.4718(4) 0.8793(4)
O7 O 0.9122(6) 0.8085(5) 0.5408(4)
O8 O 1.1395(6) 0.9440(4) 0.6161(3)
O9 O 1.3840(5) 0.8747(4) 0.6421(3)
O10 O 1.3908(7) 0.7115(5) 0.5355(5)
O11 O 1.1630(9) 0.5805(5) 0.4460(4)
O12 O 0.9282(9) 0.6605(5) 0.4180(4)
S1 S 0.99016(19) 0.81853(14) 0.95835(12)
S2 S 1.2100(2) 0.86977(15) 0.88990(13)
S3 S 1.3409(2) 0.88466(15) 1.13691(12)
S4 S 1.1458(2) 0.97145(16) 1.19677(13)
C1 C 0.4252(8) 0.7365(6) 0.8292(6)
H1 H 0.3705 0.7263 0.8657
H2 H 0.3704 0.7411 0.7704
C2 C 0.5185(8) 0.8314(7) 0.8611(5)
H3 H 0.5675 0.8435 0.8212
H4 H 0.4702 0.8863 0.8602
C3 C 0.5534(9) 0.8281(7) 1.0133(5)
H5 H 0.5005 0.7631 1.0078
H6 H 0.4978 0.8787 1.0083
C4 C 0.6517(8) 0.8443(6) 1.0977(5)
H7 H 0.6983 0.9122 1.1066
H8 H 0.6119 0.8349 1.1429
C5 C 0.8326(9) 0.7789(7) 1.1832(5)
H9 H 0.7957 0.7461 1.2238
H10 H 0.8677 0.8479 1.2064
C6 C 0.9359(9) 0.7266(7) 1.1706(5)
H11 H 0.9717 0.7594 1.1294
H12 H 1.0049 0.7296 1.2254
C7 C 0.9734(9) 0.5719(8) 1.1202(5)
H13 H 1.0426 0.5666 1.1731
H14 H 1.0111 0.6064 1.0807
C8 C 0.9080(10) 0.4710(7) 1.0801(6)
H15 H 0.9713 0.4307 1.0737
H16 H 0.8634 0.4387 1.1171
C9 C 0.7320(11) 0.3883(7) 0.9623(7)
H17 H 0.6797 0.3712 0.9994
H18 H 0.7808 0.3344 0.9602
C10 C 0.6476(10) 0.3981(6) 0.8747(7)
H19 H 0.6994 0.4172 0.8376
H20 H 0.5929 0.3344 0.8501
C11 C 0.4845(11) 0.4835(8) 0.7964(7)
H21 H 0.4261 0.4210 0.7728
H22 H 0.5329 0.5006 0.7569
C12 C 0.4112(10) 0.5622(7) 0.8045(7)
H23 H 0.3461 0.5658 0.7491
H24 H 0.3673 0.5468 0.8469
C13 C 0.9117(9) 0.9076(7) 0.5678(6)
H25 H 0.8351 0.9117 0.5843
H26 H 0.9092 0.9489 0.5202
C14 C 1.0288(9) 0.9456(6) 0.6427(5)
H27 H 1.0257 1.0134 0.6629
H28 H 1.0326 0.9037 0.6901
C15 C 1.2560(9) 0.9835(6) 0.6822(5)
H29 H 1.2636 0.9468 0.7330
H30 H 1.2555 1.0532 0.6987
C16 C 1.3669(9) 0.9758(6) 0.6514(6)
H31 H 1.3527 1.0037 0.5958
H32 H 1.4445 1.0143 0.6924
C17 C 1.4923(10) 0.8648(8) 0.6159(7)
H33 H 1.5703 0.8993 0.6595
H34 H 1.4843 0.8946 0.5616
C18 C 1.5005(10) 0.7565(8) 0.6043(8)
H35 H 1.5786 0.7483 0.5908
H36 H 1.5026 0.7253 0.6572
C19 C 1.3903(14) 0.6109(9) 0.5111(10)
H37 H 1.3823 0.5700 0.5573
H38 H 1.4707 0.6034 0.5006
C20 C 1.2803(16) 0.5779(8) 0.4314(9)
H39 H 1.2869 0.6213 0.3865
H40 H 1.2835 0.5102 0.4109
C21 C 1.0584(16) 0.5624(8) 0.3692(8)
H41 H 1.0575 0.4979 0.3403
H42 H 1.0688 0.6135 0.3308
C22 C 0.9344(14) 0.5628(9) 0.3858(8)
H43 H 0.8634 0.5421 0.3323
H44 H 0.9265 0.5157 0.4278
C23 C 0.8162(14) 0.6661(10) 0.4387(9)
H45 H 0.8151 0.6263 0.4867
H46 H 0.7415 0.6389 0.3892
C24 C 0.8091(10) 0.7728(9) 0.4635(7)
H47 H 0.8156 0.8138 0.4171
H48 H 0.7270 0.7767 0.4727
C25 C 1.0617(7) 0.8024(5) 0.8786(4)
C26 C 0.9996(7) 0.7344(5) 0.8065(4)
C27 C 0.8751(10) 0.6784(7) 0.7947(5)
C28 C 1.0595(7) 0.7111(5) 0.7450(5)
C29 C 1.2672(7) 0.9007(5) 1.2144(4)
C30 C 1.3068(7) 0.8551(5) 1.2916(5)
C31 C 1.4095(9) 0.7977(6) 1.3102(5)
C32 C 1.2447(9) 0.8628(6) 1.3558(6)
K2_2 K 1.15080(17) 0.76030(12) 1.54090(10)
N4_2 N 1.1955(10) 0.8681(7) 0.4067(5)
loop_
_geom_bond_atom_site_label_1
_geom_bond_atom_site_label_2
_geom_bond_site_symmetry_1
_geom_bond_site_symmetry_2
Pb1 S1 1_555 1_555
K1 N1 1_555 1_555
K2 N2 1_555 1_555
N1 C27 1_555 1_555
N2 C28 1_555 1_555
N3 C31 1_555 1_555
N4 C32 1_555 1_555
O1 K1 1_555 1_555
O2 K1 1_555 1_555
O3 K1 1_555 1_555
O4 K1 1_555 1_555
O5 K1 1_555 1_555
O6 K1 1_555 1_555
O7 K2 1_555 1_555
O8 K2 1_555 1_555
O9 K2 1_555 1_555
O10 K2 1_555 1_555
O11 K2 1_555 1_555
O12 K2 1_555 1_555
S1 K1 1_555 1_555
S2 Pb1 1_555 1_555
S3 Pb1 1_555 1_555
S4 Pb1 1_555 1_555
C1 O1 1_555 1_555
H1 C1 1_555 1_555
H2 C1 1_555 1_555
C2 O2 1_555 1_555
H3 C2 1_555 1_555
H4 C2 1_555 1_555
C3 O2 1_555 1_555
H5 C3 1_555 1_555
H6 C3 1_555 1_555
C4 O3 1_555 1_555
H7 C4 1_555 1_555
H8 C4 1_555 1_555
C5 O3 1_555 1_555
H9 C5 1_555 1_555
H10 C5 1_555 1_555
C6 O4 1_555 1_555
H11 C6 1_555 1_555
H12 C6 1_555 1_555
C7 O4 1_555 1_555
H13 C7 1_555 1_555
H14 C7 1_555 1_555
C8 O5 1_555 1_555
H15 C8 1_555 1_555
H16 C8 1_555 1_555
C9 O5 1_555 1_555
H17 C9 1_555 1_555
H18 C9 1_555 1_555
C10 O6 1_555 1_555
H19 C10 1_555 1_555
H20 C10 1_555 1_555
C11 O6 1_555 1_555
H21 C11 1_555 1_555
H22 C11 1_555 1_555
C12 O1 1_555 1_555
H23 C12 1_555 1_555
H24 C12 1_555 1_555
C13 O7 1_555 1_555
H25 C13 1_555 1_555
H26 C13 1_555 1_555
C14 O8 1_555 1_555
H27 C14 1_555 1_555
H28 C14 1_555 1_555
C15 O8 1_555 1_555
H29 C15 1_555 1_555
H30 C15 1_555 1_555
C16 O9 1_555 1_555
H31 C16 1_555 1_555
H32 C16 1_555 1_555
C17 O9 1_555 1_555
H33 C17 1_555 1_555
H34 C17 1_555 1_555
C18 O10 1_555 1_555
H35 C18 1_555 1_555
H36 C18 1_555 1_555
C19 O10 1_555 1_555
H37 C19 1_555 1_555
H38 C19 1_555 1_555
C20 O11 1_555 1_555
H39 C20 1_555 1_555
H40 C20 1_555 1_555
C21 O11 1_555 1_555
H41 C21 1_555 1_555
H42 C21 1_555 1_555
C22 O12 1_555 1_555
H43 C22 1_555 1_555
H44 C22 1_555 1_555
C23 O12 1_555 1_555
H45 C23 1_555 1_555
H46 C23 1_555 1_555
C24 O7 1_555 1_555
H47 C24 1_555 1_555
H48 C24 1_555 1_555
C25 S1 1_555 1_555
C26 C25 1_555 1_555
C27 K1 1_555 1_555
C28 C26 1_555 1_555
C29 S3 1_555 1_555
C30 C29 1_555 1_555
C31 C30 1_555 1_555
C32 C30 1_555 1_555
K2_2 N4 1_555 1_555
N4_2 K2 1_555 1_555
S2 C25 1_555 1_555
S4 C29 1_555 1_555
C1 C2 1_555 1_555
C3 C4 1_555 1_555
C5 C6 1_555 1_555
C7 C8 1_555 1_555
C9 C10 1_555 1_555
C11 C12 1_555 1_555
C13 C14 1_555 1_555
C15 C16 1_555 1_555
C17 C18 1_555 1_555
C19 C20 1_555 1_555
C21 C22 1_555 1_555
C23 C24 1_555 1_555
C26 C27 1_555 1_555

#END
