
#######################################################################
#
#                 Cambridge Crystallographic Data Centre
#                                CCDC 
#
#######################################################################
#
# If this CIF has been generated from an entry in the Cambridge 
# Structural Database, then it will include bibliographic, chemical, 
# crystal, experimental, refinement or atomic coordinate data resulting 
# from the CCDC's data processing and validation procedures.
#
#######################################################################

data_SEGKEW02
_symmetry_cell_setting           monoclinic
_symmetry_space_group_name_H-M   'P 21/c'
_symmetry_Int_Tables_number      14
_space_group_name_Hall           '-P 2ybc'
loop_
_symmetry_equiv_pos_site_id
_symmetry_equiv_pos_as_xyz
1 x,y,z
2 -x,1/2+y,1/2-z
3 -x,-y,-z
4 x,1/2-y,1/2+z
_cell_length_a                   4.05710(10)
_cell_length_b                   16.5931(4)
_cell_length_c                   20.7334(4)
_cell_angle_alpha                90
_cell_angle_beta                 96.925(2)
_cell_angle_gamma                90
_cell_volume                     1385.59
loop_
_atom_site_label
_atom_site_type_symbol
_atom_site_fract_x
_atom_site_fract_y
_atom_site_fract_z
K1 K -0.53563(15) 0.26812(3) 0.17457(3)
O1 O -1.0390(6) 0.37724(12) 0.17879(10)
O2 O -0.9898(6) 0.67686(12) 0.28393(11)
Cl1 Cl -0.6327(2) 0.38433(4) 0.30503(4)
Cl2 Cl -0.5929(2) 0.56040(5) 0.36504(3)
Cl3 Cl -1.4066(2) 0.66931(4) 0.16012(4)
Cl4 Cl -1.4328(2) 0.49512(4) 0.09737(4)
C1 C -1.0283(7) 0.44632(15) 0.20323(13)
C2 C -0.8398(8) 0.46454(16) 0.26516(14)
C3 C -0.8231(8) 0.53986(16) 0.29184(13)
C4 C -1.0011(7) 0.60742(15) 0.25999(14)
C5 C -1.1922(8) 0.58928(16) 0.19848(14)
C6 C -1.2056(7) 0.51377(16) 0.17143(13)
O3 O -0.7476(8) 0.22818(17) 0.05156(12)
C7 C -0.9444(8) 0.2507(2) 0.00686(14)
C8 C -1.0478(11) 0.3371(2) -0.0002(2)
C9 C -1.0856(9) 0.1932(2) -0.04489(15)
C10 C -1.0017(10) 0.1056(2) -0.03085(19)
H1 H -0.993(16) 0.364(4) 0.034(3)
H2 H -0.985(14) 0.362(3) -0.036(3)
H3 H -1.288(17) 0.339(4) -0.004(3)
H4 H -1.003(10) 0.210(2) -0.0861(19)
H5 H -1.320(10) 0.201(2) -0.0514(17)
H6 H -1.110(11) 0.071(3) -0.065(2)
H7 H -0.776(12) 0.097(3) -0.026(2)
H8 H -1.079(11) 0.086(3) 0.007(2)
K1_2 K -1.53563(15) 0.26812(3) 0.17457(3)
K1A K -1.46437(15) 0.76812(3) 0.32543(3)
K1A_2 K -0.46437(15) 0.76812(3) 0.32543(3)
O1_2 O -0.0390(6) 0.37724(12) 0.17879(10)
O2A O -1.0102(6) 0.17686(12) 0.21607(11)
O2A_2 O -0.0102(6) 0.17686(12) 0.21607(11)
loop_
_geom_bond_atom_site_label_1
_geom_bond_atom_site_label_2
_geom_bond_site_symmetry_1
_geom_bond_site_symmetry_2
K1 O1 1_555 1_555
O1 C1 1_555 1_555
O2 C4 1_555 1_555
Cl1 C2 1_555 1_555
Cl2 C3 1_555 1_555
Cl3 C5 1_555 1_555
Cl4 C6 1_555 1_555
C1 C2 1_555 1_555
C2 C3 1_555 1_555
C3 C4 1_555 1_555
C4 C5 1_555 1_555
C5 C6 1_555 1_555
C6 C1 1_555 1_555
O3 K1 1_555 1_555
C7 O3 1_555 1_555
C8 C7 1_555 1_555
C9 C7 1_555 1_555
C10 C9 1_555 1_555
H1 C8 1_555 1_555
H2 C8 1_555 1_555
H3 C8 1_555 1_555
H4 C9 1_555 1_555
H5 C9 1_555 1_555
H6 C10 1_555 1_555
H7 C10 1_555 1_555
H8 C10 1_555 1_555
K1_2 O1 1_555 1_555
K1A O2 1_555 1_555
K1A_2 O2 1_555 1_555
O1_2 K1 1_555 1_555
O2A K1 1_555 1_555
O2A_2 K1 1_555 1_555
K1_2 O2A 1_555 1_555

#END
