
#######################################################################
#
#                 Cambridge Crystallographic Data Centre
#                                CCDC 
#
#######################################################################
#
# If this CIF has been generated from an entry in the Cambridge 
# Structural Database, then it will include bibliographic, chemical, 
# crystal, experimental, refinement or atomic coordinate data resulting 
# from the CCDC's data processing and validation procedures.
#
#######################################################################

data_SEGLAT
_symmetry_cell_setting           orthorhombic
_symmetry_space_group_name_H-M   'P 21 21 21'
_symmetry_Int_Tables_number      19
_space_group_name_Hall           'P 2ac 2ab'
loop_
_symmetry_equiv_pos_site_id
_symmetry_equiv_pos_as_xyz
1 x,y,z
2 1/2-x,-y,1/2+z
3 1/2+x,1/2-y,-z
4 -x,1/2+y,1/2-z
_cell_length_a                   6.5710(13)
_cell_length_b                   12.445(3)
_cell_length_c                   14.012(3)
_cell_angle_alpha                90
_cell_angle_beta                 90
_cell_angle_gamma                90
_cell_volume                     1145.85
loop_
_atom_site_label
_atom_site_type_symbol
_atom_site_fract_x
_atom_site_fract_y
_atom_site_fract_z
Er1 Er 0.0991 -0.1494 -0.7244
K1 K 0.0953(2) 0.1397(1) -0.5280(1)
O1 O 0.1088(6) -0.0804(2) -0.5725(2)
O2 O 0.0869(5) -0.0992(2) -0.4139(2)
O3 O 0.2706(4) -0.2846(2) -0.2891(2)
O4 O -0.0652(4) -0.3018(2) -0.2890(2)
O5 O 0.2294(5) -0.6485(3) -0.5488(2)
O6 O -0.0778(5) -0.6250(2) -0.6142(2)
O7 O 0.1343(4) -0.5063(2) -0.7593(2)
O8 O 0.1228(4) -0.3290(2) -0.7840(2)
O9 O 0.2939(5) 0.0084(3) -0.7484(2)
H1 H 0.362(6) 0.044(3) -0.707(3)
H2 H 0.335(7) 0.034(4) -0.8013(18)
O10 O 0.4572(5) 0.1667(3) -0.6318(2)
H3 H 0.5849(19) 0.159(4) -0.629(4)
H4 H 0.431(8) 0.215(3) -0.672(3)
N1 N 0.1084(6) -0.2870(3) -0.6007(2)
C1 C 0.1067(7) -0.2572(3) -0.5085(3)
C2 C 0.1047(7) -0.3312(3) -0.4349(3)
C3 C 0.1060(7) -0.4395(3) -0.4594(3)
H5 H 0.1128 -0.4923 -0.4106
C4 C 0.0974(7) -0.4718(3) -0.5545(3)
C5 C 0.1041(8) -0.3913(3) -0.6239(3)
C6 C 0.1022(7) -0.1355(3) -0.4954(3)
C7 C 0.1044(7) -0.3018(3) -0.3291(3)
C8 C 0.0872(8) -0.5919(3) -0.5749(3)
C9 C 0.1188(6) -0.4112(3) -0.7309(3)
Er1B Er 0.5991 -0.3506 -0.2756
Er1B_2 Er -0.4009 -0.3506 -0.2756
Er1C Er -0.0991 -0.6494 -0.7756
K1_2 K 0.0953(2) -0.8603(1) -0.5280(1)
K1B K 0.5953(2) -0.6397(1) -0.4720(1)
K1B_2 K -0.4047(2) -0.6397(1) -0.4720(1)
K1C K -0.0953(2) -0.3603(1) -0.9720(1)
O3B O -0.2294(4) -0.2154(2) -0.7109(2)
O4B O 0.4348(4) -0.1982(2) -0.7110(2)
O5_2 O 0.2294(5) 0.3515(3) -0.5488(2)
O5B O -0.2706(5) 0.1485(3) -0.4512(2)
O6C O 0.0778(5) -0.1250(2) -0.8858(2)
O6B O 0.4222(5) 0.1250(2) -0.3858(2)
O7C O -0.1343(4) -0.0063(2) -0.7407(2)
O8C O -0.1228(4) 0.1710(2) -0.7160(2)
loop_
_geom_bond_atom_site_label_1
_geom_bond_atom_site_label_2
_geom_bond_site_symmetry_1
_geom_bond_site_symmetry_2
Er1 O1 1_555 1_555
K1 O1 1_555 1_555
O1 C6 1_555 1_555
O2 C6 1_555 1_555
O3 C7 1_555 1_555
O4 C7 1_555 1_555
O5 C8 1_555 1_555
O6 C8 1_555 1_555
O7 C9 1_555 1_555
O8 Er1 1_555 1_555
O9 Er1 1_555 1_555
H1 O9 1_555 1_555
H2 O9 1_555 1_555
O10 K1 1_555 1_555
H3 O10 1_555 1_555
H4 O10 1_555 1_555
N1 Er1 1_555 1_555
C1 N1 1_555 1_555
C2 C1 1_555 1_555
C3 C2 1_555 1_555
H5 C3 1_555 1_555
C4 C3 1_555 1_555
C5 N1 1_555 1_555
C6 C1 1_555 1_555
C7 C2 1_555 1_555
C8 C4 1_555 1_555
C9 O8 1_555 1_555
Er1B O3 1_555 1_555
Er1B_2 O4 1_555 1_555
Er1C O6 1_555 1_555
K1_2 O5 1_555 1_555
K1B O5 1_555 1_555
K1B_2 O6 1_555 1_555
K1C O8 1_555 1_555
O3B Er1 1_555 1_555
O4B Er1 1_555 1_555
O5_2 K1 1_555 1_555
O5B K1 1_555 1_555
O6C Er1 1_555 1_555
O6B K1 1_555 1_555
O7C Er1 1_555 1_555
O8C K1 1_555 1_555
O7 Er1C 1_555 1_555
C4 C5 1_555 1_555
C5 C9 1_555 1_555

#END
