
#######################################################################
#
#                 Cambridge Crystallographic Data Centre
#                                CCDC 
#
#######################################################################
#
# If this CIF has been generated from an entry in the Cambridge 
# Structural Database, then it will include bibliographic, chemical, 
# crystal, experimental, refinement or atomic coordinate data resulting 
# from the CCDC's data processing and validation procedures.
#
#######################################################################

data_SEGLEX
_symmetry_cell_setting           orthorhombic
_symmetry_space_group_name_H-M   'P 21 21 21'
_symmetry_Int_Tables_number      19
_space_group_name_Hall           'P 2ac 2ab'
loop_
_symmetry_equiv_pos_site_id
_symmetry_equiv_pos_as_xyz
1 x,y,z
2 1/2-x,-y,1/2+z
3 1/2+x,1/2-y,-z
4 -x,1/2+y,1/2-z
_cell_length_a                   14.120(3)
_cell_length_b                   12.545(3)
_cell_length_c                   6.6886(13)
_cell_angle_alpha                90
_cell_angle_beta                 90
_cell_angle_gamma                90
_cell_volume                     1184.79
loop_
_atom_site_label
_atom_site_type_symbol
_atom_site_fract_x
_atom_site_fract_y
_atom_site_fract_z
Nd1 Nd 0.978612(16) 0.600294(18) 1.35138(3)
K1 K 0.71856(8) 0.11000(9) 0.84687(18)
O1 O 0.9578(2) 0.5268(3) 1.0219(5)
O2 O 0.9626(2) 0.5539(3) 0.6956(5)
O3 O 0.8356(2) 0.3510(3) 0.8334(6)
O4 O 0.6793(2) 0.3320(3) 0.8620(6)
O5 O 0.4693(2) 0.5858(3) 0.8814(5)
O6 O 0.4985(2) 0.7596(3) 0.8974(4)
O7 O 0.6453(2) 0.8749(3) 0.6798(5)
O8 O 0.7108(3) 0.8953(4) 0.9800(6)
O9 O 1.0020(3) 0.7660(3) 1.5414(5)
H1 H 0.9591 0.7839 1.6238
H2 H 1.0524 0.8030 1.5406
O10 O 0.6174(3) 0.0825(3) 1.2048(6)
H3 H 0.6463 0.0846 1.3162
H4 H 0.5580 0.0720 1.2018
N1 N 0.6517(3) 0.5386(3) 0.8653(7)
C1 C 0.9199(3) 0.5486(4) 0.8612(8)
C2 C 0.8159(3) 0.5791(4) 0.8596(7)
C3 C 0.7418(3) 0.5069(4) 0.8602(7)
C4 C 0.6303(3) 0.6428(4) 0.8626(8)
C5 C 0.6996(3) 0.7210(4) 0.8540(8)
C6 C 0.7944(3) 0.6868(4) 0.8562(8)
H5 H 0.8431 0.7368 0.8554
C7 C 0.7549(3) 0.3867(4) 0.8531(7)
C8 C 0.5243(3) 0.6649(4) 0.8797(6)
C9 C 0.6827(3) 0.8392(4) 0.8409(8)
Nd1_2 Nd 0.978612(16) 0.600294(18) 0.35138(3)
Nd1A Nd 0.521388(16) 0.399706(18) 0.85138(3)
Nd1B Nd 0.478612(16) 0.899706(18) 0.64862(3)
K1C K 0.28144(8) 0.61000(9) 0.65313(18)
K1A K 0.78144(8) 0.89000(9) 0.34687(18)
K1A_2 K 0.78144(8) 0.89000(9) 1.34687(18)
K1_2 K 0.71856(8) 1.11000(9) 0.84687(18)
O2_2 O 0.9626(2) 0.5539(3) 1.6956(5)
O4A O 0.8207(2) 0.6680(3) 1.3620(6)
O5A O 1.0307(2) 0.4142(3) 1.3814(5)
O5C O 0.5307(2) 0.0858(3) 0.6186(5)
O6B O 0.9985(2) 0.7404(3) 1.1026(4)
O7B O 1.1453(2) 0.6251(3) 1.3202(5)
O7A O 0.8547(2) 0.1251(3) 1.1798(5)
O8A O 0.7892(3) 0.1047(4) 0.4800(6)
O8_2 O 0.7108(3) -0.1047(4) 0.9800(6)
N1A N 0.8483(3) 0.4614(3) 1.3653(7)
loop_
_geom_bond_atom_site_label_1
_geom_bond_atom_site_label_2
_geom_bond_site_symmetry_1
_geom_bond_site_symmetry_2
Nd1 O1 1_555 1_555
K1 O4 1_555 1_555
O1 C1 1_555 1_555
O2 C1 1_555 1_555
O3 C7 1_555 1_555
O4 C7 1_555 1_555
O5 C8 1_555 1_555
O6 C8 1_555 1_555
O7 C9 1_555 1_555
O8 C9 1_555 1_555
O9 Nd1 1_555 1_555
H1 O9 1_555 1_555
H2 O9 1_555 1_555
O10 K1 1_555 1_555
H3 O10 1_555 1_555
H4 O10 1_555 1_555
N1 C3 1_555 1_555
C1 C2 1_555 1_555
C2 C3 1_555 1_555
C3 C7 1_555 1_555
C4 N1 1_555 1_555
C5 C4 1_555 1_555
C6 C2 1_555 1_555
H5 C6 1_555 1_555
C8 C4 1_555 1_555
C9 C5 1_555 1_555
Nd1_2 O2 1_555 1_555
Nd1A O4 1_555 1_555
Nd1B O6 1_555 1_555
K1C O5 1_555 1_555
K1A O7 1_555 1_555
K1A_2 O8 1_555 1_555
K1_2 O8 1_555 1_555
O2_2 Nd1 1_555 1_555
O4A Nd1 1_555 1_555
O5A Nd1 1_555 1_555
O5C K1 1_555 1_555
O6B Nd1 1_555 1_555
O7B Nd1 1_555 1_555
O7A K1 1_555 1_555
O8A K1 1_555 1_555
O8_2 K1 1_555 1_555
N1A Nd1 1_555 1_555
O5 Nd1A 1_555 1_555
O7 Nd1B 1_555 1_555
N1 Nd1A 1_555 1_555
C5 C6 1_555 1_555
K1A_2 O4A 1_555 1_555

#END
