
#######################################################################
#
#                 Cambridge Crystallographic Data Centre
#                                CCDC 
#
#######################################################################
#
# If this CIF has been generated from an entry in the Cambridge 
# Structural Database, then it will include bibliographic, chemical, 
# crystal, experimental, refinement or atomic coordinate data resulting 
# from the CCDC's data processing and validation procedures.
#
#######################################################################

data_SEGNID
_symmetry_cell_setting           hexagonal
_symmetry_space_group_name_H-M   'P 61'
_symmetry_Int_Tables_number      169
_space_group_name_Hall           'P 61'
loop_
_symmetry_equiv_pos_site_id
_symmetry_equiv_pos_as_xyz
1 x,y,z
2 -x,-y,1/2+z
3 -y,x-y,1/3+z
4 -x+y,-x,2/3+z
5 x-y,x,1/6+z
6 y,-x+y,5/6+z
_cell_length_a                   14.465(5)
_cell_length_b                   14.465(5)
_cell_length_c                   45.866(12)
_cell_angle_alpha                90
_cell_angle_beta                 90
_cell_angle_gamma                120
_cell_volume                     8311.1
loop_
_atom_site_label
_atom_site_type_symbol
_atom_site_fract_x
_atom_site_fract_y
_atom_site_fract_z
N1 N -0.0576(8) 0.1563(10) 0.5709(2)
O5 O 0.0204(6) 0.2426(7) 0.5686(3)
O6 O -0.1219(7) 0.1082(7) 0.55150(19)
O7 O -0.0750(9) 0.1176(10) 0.5959(3)
N2 N -0.1441(7) 0.2754(9) 0.62604(19)
O8 O -0.1442(8) 0.3090(8) 0.6009(2)
O9 O -0.0689(7) 0.3413(10) 0.6416(4)
O10 O -0.2136(8) 0.1839(10) 0.6342(4)
Cl1 Cl 0.8295(5) 0.3961(5) 0.50867(18)
Cl2 Cl 0.9602(7) 0.9459(6) 0.65065(17)
C1 C 0.9455(8) 0.7316(6) 0.5711(2)
C2 C 0.9705(7) 0.8267(6) 0.5845(2)
H1 H 1.0158 0.8511 0.6008
C3 C 0.9271(6) 0.8849(6) 0.57315(16)
H2 H 0.9438 0.9501 0.5820
C4 C 0.8599(5) 0.8506(6) 0.54930(16)
C5 C 0.8336(6) 0.7540(6) 0.5367(2)
H3 H 0.7869 0.7288 0.5206
C6 C 0.8762(8) 0.6947(7) 0.5477(2)
H4 H 0.8580 0.6285 0.5392
O11 O 0.9895(8) 0.6717(7) 0.5832(3)
H5 H 0.9646 0.6135 0.5746
O12 O 0.8145(5) 0.9045(6) 0.53677(16)
O1 O 0.4845(3) 0.3347(3) 0.56214(12)
O2 O 0.4633(3) 0.0230(3) 0.56386(11)
O3 O 0.6728(4) 0.1705(4) 0.57256(10)
O4 O 0.6771(3) 0.3683(3) 0.54501(9)
Er1 Er 0.535555(18) 0.206894(18) 0.561789(18)
C7 C 0.6516(4) 0.3108(4) 0.62870(11)
C8 C 0.7528(5) 0.3871(5) 0.67099(13)
H7 H 0.8262 0.3999 0.6737
C9 C 0.6674(4) 0.2686(5) 0.67646(12)
H8 H 0.7005 0.2261 0.6826
C10 C 0.6407(4) 0.3818(4) 0.70784(12)
C11 C 0.5312(5) 0.1234(4) 0.64185(13)
H9 H 0.5417 0.1070 0.6218
H10 H 0.5385 0.0737 0.6549
C12 C 0.5069(6) 0.1889(5) 0.71126(14)
H11 H 0.5155 0.1260 0.7123
H12 H 0.4959 0.2062 0.7312
C13 C 0.3731(5) 0.1227(4) 0.62286(12)
C14 C 0.3686(5) 0.0790(5) 0.67192(14)
H13 H 0.3573 0.0099 0.6794
C15 C 0.2610(4) 0.0736(4) 0.66367(12)
H14 H 0.2002 -0.0001 0.6655
C16 C 0.3404(4) 0.1930(4) 0.70264(12)
C17 C 0.1952(5) 0.1020(4) 0.61498(13)
H15 H 0.1268 0.0412 0.6211
H16 H 0.2088 0.0886 0.5949
C18 C 0.1669(5) 0.1663(5) 0.68640(14)
H17 H 0.1639 0.1902 0.7062
H18 H 0.0993 0.1005 0.6827
C19 C 0.2325(4) 0.2757(5) 0.59464(12)
C20 C 0.1293(4) 0.2228(5) 0.63709(12)
H19 H 0.0528 0.1676 0.6380
C21 C 0.1454(4) 0.3302(4) 0.62629(13)
H20 H 0.0773 0.3245 0.6200
C22 C 0.2064(4) 0.3476(4) 0.67456(12)
C23 C 0.2451(4) 0.4472(5) 0.58250(12)
H21 H 0.2501 0.4256 0.5626
H22 H 0.1864 0.4626 0.5830
C24 C 0.2197(4) 0.5100(4) 0.65172(12)
H23 H 0.1695 0.5192 0.6394
H24 H 0.2143 0.5323 0.6715
C25 C 0.4399(4) 0.5646(4) 0.57829(11)
C26 C 0.3536(4) 0.6206(4) 0.61171(13)
H25 H 0.3160 0.6592 0.6060
C27 C 0.4770(4) 0.6966(4) 0.61383(12)
H26 H 0.4980 0.7720 0.6101
C28 C 0.4121(4) 0.6128(4) 0.65821(12)
C29 C 0.6300(4) 0.6915(5) 0.58719(13)
H27 H 0.6394 0.6700 0.5676
H28 H 0.6692 0.7697 0.5879
C30 C 0.6022(4) 0.7505(4) 0.65746(12)
H29 H 0.5870 0.7633 0.6774
H30 H 0.6370 0.8193 0.6473
C31 C 0.7003(4) 0.5756(4) 0.60111(12)
C32 C 0.7372(4) 0.7132(4) 0.63307(12)
H31 H 0.7903 0.7874 0.6277
C33 C 0.7919(4) 0.6510(4) 0.64435(13)
H32 H 0.8700 0.6984 0.6465
C34 C 0.6784(4) 0.6483(4) 0.68011(13)
C35 C 0.7993(4) 0.4937(4) 0.62219(12)
H33 H 0.8726 0.5265 0.6295
H34 H 0.7990 0.4695 0.6022
C36 C 0.7800(4) 0.5603(5) 0.69295(12)
H35 H 0.8565 0.5890 0.6897
H36 H 0.7714 0.5817 0.7126
N3 N 0.7312(4) 0.4020(4) 0.64012(10)
N4 N 0.6133(4) 0.2323(4) 0.64894(11)
N5 N 0.7273(4) 0.4457(4) 0.69183(10)
N6 N 0.6042(4) 0.2774(4) 0.69988(11)
N7 N 0.4261(4) 0.1082(4) 0.64467(11)
N8 N 0.2781(4) 0.1080(4) 0.63350(11)
N9 N 0.4130(4) 0.1626(4) 0.69417(11)
N10 N 0.2534(4) 0.1433(4) 0.68472(12)
N11 N 0.1862(4) 0.1978(4) 0.61533(12)
N12 N 0.2201(4) 0.3587(4) 0.60220(11)
N13 N 0.1785(4) 0.2474(4) 0.66577(11)
N14 N 0.1888(4) 0.3979(4) 0.65215(10)
N15 N 0.3437(4) 0.5438(4) 0.58961(14)
N16 N 0.5181(4) 0.6543(4) 0.59171(10)
N17 N 0.3267(3) 0.5782(4) 0.64103(11)
N18 N 0.5028(3) 0.6806(3) 0.64307(10)
N19 N 0.6765(3) 0.6523(3) 0.60808(10)
N20 N 0.7671(4) 0.5734(4) 0.62162(11)
N21 N 0.6754(3) 0.7098(3) 0.65861(10)
N22 N 0.7416(4) 0.6085(4) 0.67197(10)
O13 O 0.6212(3) 0.3014(3) 0.60291(9)
O14 O 0.4011(3) 0.1438(3) 0.59739(9)
O15 O 0.2776(3) 0.2700(3) 0.57253(9)
O16 O 0.4524(3) 0.5136(3) 0.55925(10)
O17 O 0.6672(3) 0.5190(3) 0.57926(8)
O18 O 0.6039(3) 0.4101(3) 0.72776(10)
O19 O 0.3500(3) 0.2492(3) 0.72315(9)
O20 O 0.2412(3) 0.3846(3) 0.69886(9)
O21 O 0.4136(3) 0.5894(3) 0.68427(9)
O22 O 0.6338(3) 0.6327(3) 0.70440(9)
Er1D Er 0.328661(25) 0.535555(18) 0.728456(18)
O20E O 0.3846(3) 0.1434(4) 0.53219(9)
O21E O 0.5894(3) 0.1758(4) 0.51760(9)
H6? H 0.8347 0.9617 0.5455
loop_
_geom_bond_atom_site_label_1
_geom_bond_atom_site_label_2
_geom_bond_site_symmetry_1
_geom_bond_site_symmetry_2
O1 Er1 1_555 1_555
O2 Er1 1_555 1_555
O3 Er1 1_555 1_555
O4 Er1 1_555 1_555
Er1 O13 1_555 1_555
N1 O5 1_555 1_555
O6 N1 1_555 1_555
O7 N1 1_555 1_555
N2 O8 1_555 1_555
O9 N2 1_555 1_555
O10 N2 1_555 1_555
C1 C2 1_555 1_555
C2 H1 1_555 1_555
C3 C2 1_555 1_555
H2 C3 1_555 1_555
C4 C3 1_555 1_555
C5 C4 1_555 1_555
H3 C5 1_555 1_555
C6 C1 1_555 1_555
H4 C6 1_555 1_555
O11 C1 1_555 1_555
H5 O11 1_555 1_555
O12 C4 1_555 1_555
C7 N3 1_555 1_555
C8 H7 1_555 1_555
C9 C8 1_555 1_555
H8 C9 1_555 1_555
C10 N5 1_555 1_555
C11 H9 1_555 1_555
H10 C11 1_555 1_555
C12 H11 1_555 1_555
H12 C12 1_555 1_555
C13 N7 1_555 1_555
C14 H13 1_555 1_555
C15 C14 1_555 1_555
H14 C15 1_555 1_555
C16 N9 1_555 1_555
C17 H15 1_555 1_555
H16 C17 1_555 1_555
C18 H17 1_555 1_555
H18 C18 1_555 1_555
C19 N11 1_555 1_555
C20 H19 1_555 1_555
C21 C20 1_555 1_555
H20 C21 1_555 1_555
C22 N13 1_555 1_555
C23 H21 1_555 1_555
H22 C23 1_555 1_555
C24 H23 1_555 1_555
H24 C24 1_555 1_555
C25 N15 1_555 1_555
C26 H25 1_555 1_555
C27 C26 1_555 1_555
H26 C27 1_555 1_555
C28 N17 1_555 1_555
C29 H27 1_555 1_555
H28 C29 1_555 1_555
C30 H29 1_555 1_555
H30 C30 1_555 1_555
C31 N19 1_555 1_555
C32 H31 1_555 1_555
C33 C32 1_555 1_555
H32 C33 1_555 1_555
C34 N21 1_555 1_555
C35 H33 1_555 1_555
H34 C35 1_555 1_555
C36 H35 1_555 1_555
H36 C36 1_555 1_555
N3 C8 1_555 1_555
N4 C7 1_555 1_555
N5 C8 1_555 1_555
N6 C9 1_555 1_555
N7 C11 1_555 1_555
N8 C13 1_555 1_555
N9 C12 1_555 1_555
N10 C15 1_555 1_555
N11 C17 1_555 1_555
N12 C19 1_555 1_555
N13 C18 1_555 1_555
N14 C21 1_555 1_555
N15 C23 1_555 1_555
N16 C25 1_555 1_555
N17 C24 1_555 1_555
N18 C27 1_555 1_555
N19 C29 1_555 1_555
N20 C31 1_555 1_555
N21 C30 1_555 1_555
N22 C33 1_555 1_555
O13 C7 1_555 1_555
O14 Er1 1_555 1_555
O15 C19 1_555 1_555
O16 C25 1_555 1_555
O17 C31 1_555 1_555
O18 C10 1_555 1_555
O19 C16 1_555 1_555
O20 C22 1_555 1_555
O21 C28 1_555 1_555
O22 C34 1_555 1_555
Er1D O20 1_555 1_555
O20E Er1 1_555 1_555
O21E Er1 1_555 1_555
C5 C6 1_555 1_555
C9 N4 1_555 1_555
C10 N6 1_555 1_555
C11 N4 1_555 1_555
C12 N6 1_555 1_555
C13 O14 1_555 1_555
C14 N7 1_555 1_555
C14 N9 1_555 1_555
C15 N8 1_555 1_555
C16 N10 1_555 1_555
C17 N8 1_555 1_555
C18 N10 1_555 1_555
C20 N11 1_555 1_555
C20 N13 1_555 1_555
C21 N12 1_555 1_555
C22 N14 1_555 1_555
C23 N12 1_555 1_555
C24 N14 1_555 1_555
C26 N15 1_555 1_555
C26 N17 1_555 1_555
C27 N16 1_555 1_555
C28 N18 1_555 1_555
C29 N16 1_555 1_555
C30 N18 1_555 1_555
C32 N19 1_555 1_555
C32 N21 1_555 1_555
C33 N20 1_555 1_555
C34 N22 1_555 1_555
C35 N3 1_555 1_555
C35 N20 1_555 1_555
C36 N5 1_555 1_555
C36 N22 1_555 1_555
O21 Er1D 1_555 1_555

#END
