
#######################################################################
#
#                 Cambridge Crystallographic Data Centre
#                                CCDC 
#
#######################################################################
#
# If this CIF has been generated from an entry in the Cambridge 
# Structural Database, then it will include bibliographic, chemical, 
# crystal, experimental, refinement or atomic coordinate data resulting 
# from the CCDC's data processing and validation procedures.
#
#######################################################################

data_SEGPOL
_symmetry_cell_setting           hexagonal
_symmetry_space_group_name_H-M   'P 61'
_symmetry_Int_Tables_number      169
_space_group_name_Hall           'P 61'
loop_
_symmetry_equiv_pos_site_id
_symmetry_equiv_pos_as_xyz
1 x,y,z
2 -x,-y,1/2+z
3 -y,x-y,1/3+z
4 -x+y,-x,2/3+z
5 x-y,x,1/6+z
6 y,-x+y,5/6+z
_cell_length_a                   14.515(4)
_cell_length_b                   14.515(4)
_cell_length_c                   45.826(13)
_cell_angle_alpha                90
_cell_angle_beta                 90
_cell_angle_gamma                120
_cell_volume                     8361.36
loop_
_atom_site_label
_atom_site_type_symbol
_atom_site_fract_x
_atom_site_fract_y
_atom_site_fract_z
Cl2 Cl -1.0082(13) -1.5959(16) 0.1245(6)
Cl3 Cl -0.875(2) -1.5545(16) 0.0460(12)
Cl4 Cl -0.937(3) -0.7851(13) 0.0881(10)
O1 O -0.4802(6) -1.1503(6) 0.0944(3)
O2 O -0.4607(6) -1.4359(6) 0.0928(2)
O3 O -0.6670(7) -1.4962(7) 0.0839(2)
O4 O -0.6716(6) -1.3067(6) 0.1110(2)
Lu1 Lu -0.53219(3) -1.32578(4) 0.09496(8)
C7 C -0.6476(9) -1.3364(9) 0.0283(2)
C8 C -0.7505(10) -1.3646(9) -0.0138(3)
H7 H -0.8237 -1.4251 -0.0164
C9 C -0.6625(9) -1.3954(8) -0.0193(3)
H8 H -0.6954 -1.4706 -0.0256
C10 C -0.6358(9) -1.2572(9) -0.0510(3)
C11 C -0.5283(9) -1.4063(10) 0.0151(3)
H9 H -0.5380 -1.4321 0.0352
H10 H -0.5357 -1.4637 0.0023
C12 C -0.5048(11) -1.3190(10) -0.0540(3)
H11 H -0.4939 -1.2937 -0.0742
H12 H -0.5145 -1.3908 -0.0541
C13 C -0.3739(9) -1.2522(8) 0.0341(3)
C14 C -0.3680(9) -1.2906(9) -0.0151(3)
H13 H -0.3579 -1.3488 -0.0226
C15 C -0.2589(9) -1.1889(9) -0.0063(3)
H14 H -0.1990 -1.2029 -0.0080
C16 C -0.3384(9) -1.1481(9) -0.0457(3)
C17 C -0.1918(9) -1.0898(10) 0.0425(3)
H15 H -0.2071 -1.1156 0.0626
H16 H -0.1227 -1.0815 0.0371
C18 C -0.1644(10) -1.0003(11) -0.0296(3)
H17 H -0.0973 -0.9991 -0.0259
H18 H -0.1607 -0.9734 -0.0495
C19 C -0.2315(9) -0.9552(9) 0.0618(2)
C20 C -0.1258(9) -0.9081(8) 0.0191(3)
H19 H -0.0498 -0.8879 0.0188
C21 C -0.1430(9) -0.8144(9) 0.0296(3)
H20 H -0.0746 -0.7519 0.0355
C22 C -0.2040(9) -0.8567(9) -0.0178(3)
C23 C -0.2411(9) -0.7944(10) 0.0737(3)
H21 H -0.1831 -0.7204 0.0728
H22 H -0.2455 -0.8191 0.0938
C24 C -0.2162(9) -0.7079(10) 0.0049(3)
H23 H -0.1662 -0.6502 0.0177
H24 H -0.2102 -0.6782 -0.0147
C25 C -0.4352(9) -0.8720(9) 0.0782(3)
C26 C -0.3509(8) -0.7325(9) 0.0445(3)
H25 H -0.3139 -0.6566 0.0502
C27 C -0.4728(8) -0.7797(8) 0.0426(3)
H26 H -0.4932 -0.7252 0.0466
C28 C -0.4101(9) -0.7987(9) -0.0022(2)
C29 C -0.6252(9) -0.9383(9) 0.0696(3)
H27 H -0.6334 -0.9702 0.0889
H28 H -0.6645 -0.8996 0.0697
C30 C -0.5991(9) -0.8520(9) -0.0011(3)
H29 H -0.6341 -0.8184 0.0091
H30 H -0.5850 -0.8246 -0.0211
C31 C -0.6957(8) -1.1216(9) 0.0558(2)
C32 C -0.7338(8) -1.0219(8) 0.0234(2)
H31 H -0.7870 -1.0010 0.0286
C33 C -0.7870(8) -1.1373(8) 0.0125(3)
H32 H -0.8648 -1.1681 0.0103
C34 C -0.6750(9) -1.0320(10) -0.0246(3)
C35 C -0.7942(9) -1.3039(10) 0.0345(3)
H33 H -0.7936 -1.3280 0.0544
H34 H -0.8672 -1.3448 0.0271
C36 C -0.7771(10) -1.2181(10) -0.0361(3)
H35 H -0.7711 -1.1902 -0.0560
H36 H -0.8529 -1.2656 -0.0321
N1 N -0.7263(7) -1.3248(6) 0.0167(2)
N2 N -0.6119(7) -1.3812(7) 0.0080(2)
N3 N -0.7224(8) -1.2805(7) -0.0350(2)
N4 N -0.6010(9) -1.3249(8) -0.0431(2)
N5 N -0.4230(7) -1.3169(7) 0.0120(2)
N6 N -0.2743(8) -1.1692(8) 0.0232(2)
N7 N -0.4097(8) -1.2497(9) -0.0372(2)
N8 N -0.2497(7) -1.1088(7) -0.0285(2)
N9 N -0.1855(8) -0.9874(8) 0.0409(3)
N10 N -0.2153(7) -0.8585(7) 0.0547(2)
N11 N -0.1727(7) -0.9299(8) -0.0097(2)
N12 N -0.1870(7) -0.7900(7) 0.0037(2)
N13 N -0.3408(8) -0.7979(8) 0.0664(3)
N14 N -0.5130(7) -0.8620(7) 0.0650(2)
N15 N -0.3214(7) -0.7469(7) 0.0154(2)
N16 N -0.4991(7) -0.8199(7) 0.0130(2)
N17 N -0.6731(7) -1.0215(7) 0.0487(2)
N18 N -0.7623(7) -1.1911(7) 0.0351(2)
N19 N -0.6703(7) -0.9624(7) -0.0022(2)
N20 N -0.7358(7) -1.1292(7) -0.0156(2)
O7 O -0.6145(7) -1.3153(7) 0.0538(2)
O8 O -0.3982(7) -1.2562(6) 0.05986(19)
O9 O -0.2750(7) -1.0061(7) 0.0839(2)
O10 O -0.4491(6) -0.9356(6) 0.0971(2)
O11 O -0.6635(7) -1.1445(6) 0.07773(19)
O12 O -0.6015(7) -1.1949(7) -0.0710(2)
O13 O -0.3486(6) -1.1007(7) -0.0664(2)
O14 O -0.2394(7) -0.8548(6) -0.0432(2)
O15 O -0.4106(6) -0.8244(6) -0.02811(18)
O16 O -0.6298(7) -1.0001(7) -0.0480(2)
Lu1E Lu -0.32578(4) -0.79359(5) -0.07171(8)
O14D O -0.3846(9) -1.2394(7) 0.1235(2)
O15D O -0.5862(8) -1.4106(6) 0.13856(18)
C1 C -0.8593(9) -1.0073(9) 0.1073(3)
C2 C -0.9260(14) -1.0405(15) 0.0834(3)
H1 H -0.9460 -0.9954 0.0741
C3 C -0.9620(17) -1.1429(14) 0.0737(4)
H2 H -1.0045 -1.1691 0.0569
C4 C -0.9335(14) -1.2057(17) 0.0896(4)
C5 C -0.8608(14) -1.1721(10) 0.1121(4)
H3 H -0.8356 -1.2149 0.1201
C6 C -0.8283(9) -1.0705(9) 0.1219(2)
H4 H -0.7850 -1.0443 0.1386
O5 O -0.8139(14) -0.9078(15) 0.1200(5)
H5 H -0.8360 -0.8718 0.1116
O6 O -0.9798(14) -1.3140(15) 0.0765(5)
H6 H -0.9580 -1.3489 0.0855
Cl1 Cl -0.8287(10) -1.4315(11) 0.1473(4)
Cl5? Cl -1.032(3) -1.555(3) 0.0600(13)
loop_
_geom_bond_atom_site_label_1
_geom_bond_atom_site_label_2
_geom_bond_site_symmetry_1
_geom_bond_site_symmetry_2
O1 Lu1 1_555 1_555
O2 Lu1 1_555 1_555
O3 Lu1 1_555 1_555
O4 Lu1 1_555 1_555
Lu1 O7 1_555 1_555
C1 C2 1_555 1_555
C2 H1 1_555 1_555
C3 C2 1_555 1_555
H2 C3 1_555 1_555
C4 C3 1_555 1_555
C5 C4 1_555 1_555
H3 C5 1_555 1_555
C6 C1 1_555 1_555
H4 C6 1_555 1_555
O5 C1 1_555 1_555
H5 O5 1_555 1_555
O6 C4 1_555 1_555
H6 O6 1_555 1_555
C7 N1 1_555 1_555
C8 H7 1_555 1_555
C9 C8 1_555 1_555
H8 C9 1_555 1_555
C10 N3 1_555 1_555
C11 H9 1_555 1_555
H10 C11 1_555 1_555
C12 H11 1_555 1_555
H12 C12 1_555 1_555
C13 N5 1_555 1_555
C14 H13 1_555 1_555
C15 C14 1_555 1_555
H14 C15 1_555 1_555
C16 N7 1_555 1_555
C17 H15 1_555 1_555
H16 C17 1_555 1_555
C18 H17 1_555 1_555
H18 C18 1_555 1_555
C19 N9 1_555 1_555
C20 H19 1_555 1_555
C21 C20 1_555 1_555
H20 C21 1_555 1_555
C22 N11 1_555 1_555
C23 H21 1_555 1_555
H22 C23 1_555 1_555
C24 H23 1_555 1_555
H24 C24 1_555 1_555
C25 N13 1_555 1_555
C26 H25 1_555 1_555
C27 C26 1_555 1_555
H26 C27 1_555 1_555
C28 N15 1_555 1_555
C29 H27 1_555 1_555
H28 C29 1_555 1_555
C30 H29 1_555 1_555
H30 C30 1_555 1_555
C31 N17 1_555 1_555
C32 H31 1_555 1_555
C33 C32 1_555 1_555
H32 C33 1_555 1_555
C34 N19 1_555 1_555
C35 H33 1_555 1_555
H34 C35 1_555 1_555
C36 H35 1_555 1_555
H36 C36 1_555 1_555
N1 C8 1_555 1_555
N2 C7 1_555 1_555
N3 C8 1_555 1_555
N4 C9 1_555 1_555
N5 C11 1_555 1_555
N6 C13 1_555 1_555
N7 C12 1_555 1_555
N8 C15 1_555 1_555
N9 C17 1_555 1_555
N10 C19 1_555 1_555
N11 C18 1_555 1_555
N12 C21 1_555 1_555
N13 C23 1_555 1_555
N14 C25 1_555 1_555
N15 C24 1_555 1_555
N16 C27 1_555 1_555
N17 C29 1_555 1_555
N18 C31 1_555 1_555
N19 C30 1_555 1_555
N20 C33 1_555 1_555
O7 C7 1_555 1_555
O8 Lu1 1_555 1_555
O9 C19 1_555 1_555
O10 C25 1_555 1_555
O11 C31 1_555 1_555
O12 C10 1_555 1_555
O13 C16 1_555 1_555
O14 C22 1_555 1_555
O15 C28 1_555 1_555
O16 C34 1_555 1_555
Lu1E O14 1_555 1_555
O14D Lu1 1_555 1_555
O15D Lu1 1_555 1_555
C5 C6 1_555 1_555
C9 N2 1_555 1_555
C10 N4 1_555 1_555
C11 N2 1_555 1_555
C12 N4 1_555 1_555
C13 O8 1_555 1_555
C14 N5 1_555 1_555
C14 N7 1_555 1_555
C15 N6 1_555 1_555
C16 N8 1_555 1_555
C17 N6 1_555 1_555
C18 N8 1_555 1_555
C20 N9 1_555 1_555
C20 N11 1_555 1_555
C21 N10 1_555 1_555
C22 N12 1_555 1_555
C23 N10 1_555 1_555
C24 N12 1_555 1_555
C26 N13 1_555 1_555
C26 N15 1_555 1_555
C27 N14 1_555 1_555
C28 N16 1_555 1_555
C29 N14 1_555 1_555
C30 N16 1_555 1_555
C32 N17 1_555 1_555
C32 N19 1_555 1_555
C33 N18 1_555 1_555
C34 N20 1_555 1_555
C35 N1 1_555 1_555
C35 N18 1_555 1_555
C36 N3 1_555 1_555
C36 N20 1_555 1_555
O15 Lu1E 1_555 1_555

#END
