
#######################################################################
#
#                 Cambridge Crystallographic Data Centre
#                                CCDC 
#
#######################################################################
#
# If this CIF has been generated from an entry in the Cambridge 
# Structural Database, then it will include bibliographic, chemical, 
# crystal, experimental, refinement or atomic coordinate data resulting 
# from the CCDC's data processing and validation procedures.
#
#######################################################################

data_SEGTEF
_symmetry_cell_setting           monoclinic
_symmetry_space_group_name_H-M   'C 2/c'
_symmetry_Int_Tables_number      15
_space_group_name_Hall           '-C 2yn'
loop_
_symmetry_equiv_pos_site_id
_symmetry_equiv_pos_as_xyz
1 x,y,z
2 -x,y,1/2-z
3 1/2+x,1/2+y,z
4 1/2-x,1/2+y,1/2-z
5 -x,-y,-z
6 x,-y,1/2+z
7 1/2-x,1/2-y,-z
8 1/2+x,1/2-y,1/2+z
_cell_length_a                   32.7209(15)
_cell_length_b                   19.4444(9)
_cell_length_c                   32.739(2)
_cell_angle_alpha                90
_cell_angle_beta                 115.904(2)
_cell_angle_gamma                90
_cell_volume                     18737
loop_
_atom_site_label
_atom_site_type_symbol
_atom_site_fract_x
_atom_site_fract_y
_atom_site_fract_z
Cl1 Cl 0.68107(10) 0.00004(12) 0.06872(10)
Cl2 Cl 0.31898(9) 0.49985(12) 0.93118(10)
Cl3 Cl 0.15285(14) 0.10390(18) 0.82696(16)
Cl4 Cl 0.1521(2) 0.3965(2) 0.82678(19)
Cl5 Cl 0.57653(17) 0.1038(2) 0.90189(16)
Cl6 Cl 0.57632(16) 0.39660(17) 0.90166(18)
O1 O 0.62501(19) 0.2508(5) 1.26260(17)
O2 O 1.01248(17) 0.2500(5) 1.37481(19)
Cl7 Cl 0.52303(6) 0.25017(13) 1.09446(6)
Cl8 Cl 0.84430(5) 0.24980(13) 1.27283(6)
Ca1 Ca 0.57292(4) 0.24999(10) 1.18575(4)
Ca2 Ca 0.46467(5) 0.25032(10) 0.98666(5)
Ca3 Ca 0.93571(4) 0.25009(10) 1.32283(4)
Ca4 Ca 0.73657(5) 0.24992(10) 1.21457(5)
C1 C 0.5788(3) 0.0926(3) 1.1432(3)
C2 C 0.5338(3) 0.0257(4) 1.0826(3)
H1 H 0.5329 -0.0257 1.0836
C3 C 0.5752(3) 0.0506(3) 1.0769(3)
H2 H 0.5924 0.0107 1.0729
C4 C 0.5098(3) 0.0903(4) 1.0174(3)
C5 C 0.6447(2) 0.1235(3) 1.1283(2)
H3 H 0.6626 0.0966 1.1161
H4 H 0.6625 0.1262 1.1616
C6 C 0.5818(3) 0.1233(3) 1.0137(3)
H5 H 0.6088 0.0947 1.0196
H6 H 0.5622 0.1226 0.9805
C7 C 0.63829(18) 0.2484(5) 1.1338(2)
C8 C 0.6385(3) 0.2105(4) 1.0662(3)
H7 H 0.6657 0.1918 1.0636
C9 C 0.6377(2) 0.2909(4) 1.0663(3)
H8 H 0.6648 0.3106 1.0638
C10 C 0.5734(2) 0.2508(4) 1.0054(2)
C11 C 0.6449(3) 0.3754(4) 1.1293(3)
H9 H 0.6631 0.4027 1.1177
H10 H 0.6623 0.3725 1.1628
C12 C 0.5814(2) 0.3762(4) 1.0129(3)
H11 H 0.5620 0.3759 0.9797
H12 H 0.6082 0.4052 1.0187
C13 C 0.5811(2) 0.4030(4) 1.1475(3)
C14 C 0.5759(2) 0.4481(4) 1.0767(3)
H13 H 0.5935 0.4878 1.0731
C15 C 0.5342(2) 0.4734(4) 1.0841(3)
H14 H 0.5334 0.5248 1.0854
C16 C 0.5089(2) 0.4096(4) 1.0143(3)
C17 C 0.5130(2) 0.4542(4) 1.1486(2)
H15 H 0.5314 0.4533 1.1819
H16 H 0.4994 0.5007 1.1404
C18 C 0.4488(3) 0.4562(4) 1.0342(3)
H17 H 0.4305 0.4557 1.0008
H18 H 0.4451 0.5021 1.0452
C19 C 0.4802(3) 0.3466(5) 1.1589(3)
C20 C 0.4326(3) 0.4111(4) 1.0993(3)
H19 H 0.4171 0.4542 1.1017
C21 C 0.4061(3) 0.3460(4) 1.1028(3)
H20 H 0.3782 0.3582 1.1066
C22 C 0.4066(2) 0.3474(4) 1.0295(3)
C23 C 0.4324(2) 0.2495(4) 1.1624(2)
H21 H 0.4531 0.2491 1.1953
H22 H 0.4008 0.2493 1.1591
C24 C 0.3670(2) 0.2510(4) 1.0449(2)
H23 H 0.3442 0.2522 1.0572
H24 H 0.3504 0.2507 1.0113
C25 C 0.4806(3) 0.1560(4) 1.1600(3)
C26 C 0.4071(3) 0.1529(4) 1.1033(3)
H25 H 0.3799 0.1406 1.1082
C27 C 0.4318(3) 0.0878(3) 1.0989(3)
H26 H 0.4167 0.0446 1.1018
C28 C 0.4085(3) 0.1512(4) 1.0346(3)
C29 C 0.5126(3) 0.0470(4) 1.1495(3)
H27 H 0.5319 0.0515 1.1825
H28 H 0.4995 0.0001 1.1437
C30 C 0.4483(3) 0.0444(4) 1.0336(3)
H29 H 0.4299 0.0476 1.0003
H30 H 0.4436 -0.0022 1.0431
C31 C 0.3843(2) 0.2509(4) 0.88862(19)
C32 C 0.3174(2) 0.2915(4) 0.8884(3)
H31 H 0.3152 0.3112 0.9156
C33 C 0.3157(2) 0.2103(4) 0.8879(3)
H32 H 0.3130 0.1915 0.9151
C34 C 0.25569(19) 0.2509(4) 0.8239(2)
C35 C 0.3778(2) 0.1249(4) 0.8937(3)
H33 H 0.3655 0.0978 0.9115
H34 H 0.4112 0.1275 0.9119
C36 C 0.2625(3) 0.1221(4) 0.8312(3)
H35 H 0.2684 0.0928 0.8579
H36 H 0.2293 0.1221 0.8117
C37 C 0.3960(2) 0.0956(3) 0.8313(2)
C38 C 0.3260(2) 0.0507(4) 0.8260(2)
H37 H 0.3223 0.0107 0.8433
C39 C 0.3337(3) 0.0275(4) 0.7844(3)
H38 H 0.3349 -0.0238 0.7832
C40 C 0.2650(3) 0.0929(4) 0.7584(3)
C41 C 0.3992(2) 0.0470(4) 0.7630(3)
H39 H 0.3924 0.0002 0.7499
H40 H 0.4325 0.0501 0.7817
C42 C 0.2838(2) 0.0438(4) 0.6984(2)
H41 H 0.2946 -0.0021 0.6944
H42 H 0.2504 0.0449 0.6803
C43 C 0.4099(2) 0.1544(4) 0.7308(3)
C44 C 0.3487(2) 0.0882(3) 0.6820(2)
H43 H 0.3514 0.0449 0.6669
C45 C 0.3535(3) 0.1547(4) 0.6563(3)
H44 H 0.3580 0.1429 0.6288
C46 C 0.2820(2) 0.1530(4) 0.6567(2)
C47 C 0.4115(2) 0.2489(5) 0.6816(2)
H45 H 0.4078 0.2477 0.6499
H46 H 0.4445 0.2493 0.7019
C48 C 0.2952(2) 0.2495(4) 0.6174(2)
H47 H 0.3076 0.2496 0.5947
H48 H 0.2616 0.2484 0.6006
C49 C 0.4093(3) 0.3438(5) 0.7296(4)
C50 C 0.3513(2) 0.3479(4) 0.6556(2)
H49 H 0.3552 0.3605 0.6279
C51 C 0.3496(3) 0.4122(4) 0.6821(3)
H50 H 0.3524 0.4553 0.6668
C52 C 0.2815(3) 0.3485(3) 0.6586(3)
C53 C 0.3981(3) 0.4543(4) 0.7622(3)
H51 H 0.3908 0.5009 0.7487
H52 H 0.4314 0.4522 0.7811
C54 C 0.2836(3) 0.4556(4) 0.6980(3)
H53 H 0.2502 0.4526 0.6800
H54 H 0.2931 0.5020 0.6932
C55 C 0.3929(3) 0.4071(4) 0.8279(3)
C56 C 0.3328(2) 0.4754(3) 0.7837(2)
H55 H 0.3338 0.5268 0.7827
C57 C 0.3273(3) 0.4496(4) 0.8250(3)
H56 H 0.3234 0.4890 0.8427
C58 C 0.2672(3) 0.4115(3) 0.7598(2)
C59 C 0.3785(3) 0.3753(3) 0.8951(3)
H57 H 0.4119 0.3720 0.9132
H58 H 0.3663 0.4026 0.9128
C60 C 0.2641(2) 0.3753(3) 0.8322(2)
H59 H 0.2705 0.4042 0.8593
H60 H 0.2309 0.3757 0.8133
N1 N 0.5407(2) 0.0553(3) 1.1259(2)
N2 N 0.60283(19) 0.0881(3) 1.1181(2)
N3 N 0.4960(2) 0.0520(3) 1.0438(2)
N4 N 0.5567(2) 0.0919(3) 1.0366(2)
N5 N 0.6380(2) 0.1920(3) 1.1097(2)
N6 N 0.6387(2) 0.3059(3) 1.1102(2)
N7 N 0.5966(2) 0.1936(3) 1.0273(2)
N8 N 0.59668(19) 0.3066(3) 1.0274(2)
N9 N 0.6017(2) 0.4115(3) 1.1184(2)
N10 N 0.5426(2) 0.4437(3) 1.1273(2)
N11 N 0.5555(2) 0.4078(3) 1.0353(2)
N12 N 0.4961(2) 0.4475(3) 1.0440(2)
N13 N 0.4771(2) 0.4054(3) 1.1369(2)
N14 N 0.4399(2) 0.3124(3) 1.1423(2)
N15 N 0.4305(2) 0.4045(3) 1.0540(2)
N16 N 0.3952(2) 0.3134(3) 1.0594(2)
N17 N 0.4399(2) 0.1879(3) 1.1415(2)
N18 N 0.4763(2) 0.0965(3) 1.1358(2)
N19 N 0.3937(2) 0.1875(3) 1.0600(2)
N20 N 0.4315(2) 0.0941(3) 1.0551(2)
N21 N 0.3592(2) 0.3073(3) 0.8879(2)
N22 N 0.3597(2) 0.1931(3) 0.8883(2)
N23 N 0.2780(2) 0.3057(3) 0.8472(2)
N24 N 0.2774(2) 0.1928(3) 0.8466(2)
N25 N 0.36833(19) 0.0877(3) 0.8519(2)
N26 N 0.3768(2) 0.0565(3) 0.7921(2)
N27 N 0.2852(2) 0.0927(3) 0.8060(2)
N28 N 0.2943(2) 0.0529(3) 0.7468(2)
N29 N 0.3862(2) 0.0963(3) 0.7264(2)
N30 N 0.3920(2) 0.1881(3) 0.6902(2)
N31 N 0.3039(2) 0.0954(3) 0.6806(2)
N32 N 0.3104(2) 0.1874(3) 0.6449(2)
N33 N 0.3910(2) 0.3133(3) 0.6886(2)
N34 N 0.3861(2) 0.4052(3) 0.7264(2)
N35 N 0.3086(2) 0.3125(3) 0.6436(2)
N36 N 0.3044(2) 0.4057(3) 0.6807(2)
N37 N 0.3756(2) 0.4446(3) 0.7909(2)
N38 N 0.3686(2) 0.4108(3) 0.8526(2)
N39 N 0.29430(18) 0.4481(3) 0.7462(2)
N40 N 0.2864(2) 0.4076(3) 0.8058(2)
O3 O 0.59377(16) 0.1260(3) 1.18036(17)
O4 O 0.64002(13) 0.2495(3) 1.17187(14)
O5 O 0.59431(19) 0.3726(3) 1.18139(18)
O6 O 0.51510(18) 0.3260(3) 1.19212(19)
O7 O 0.51509(19) 0.1754(3) 1.19278(19)
O8 O 0.48511(18) 0.1144(3) 0.9806(2)
O9 O 0.53804(14) 0.2507(3) 0.96978(15)
O10 O 0.48320(17) 0.3844(3) 0.97933(18)
O11 O 0.40029(18) 0.3317(3) 0.99199(18)
O12 O 0.39954(18) 0.1679(2) 0.99369(19)
O13 O 0.42188(13) 0.2508(3) 0.89017(13)
O14 O 0.43100(15) 0.1265(2) 0.84391(17)
O15 O 0.44268(16) 0.1751(3) 0.76534(18)
O16 O 0.4419(2) 0.3253(3) 0.7643(2)
O17 O 0.43027(19) 0.3743(3) 0.84402(18)
O18 O 0.21985(14) 0.2496(3) 0.78788(15)
O19 O 0.22926(16) 0.1153(2) 0.73414(18)
O20 O 0.24315(16) 0.1671(2) 0.65019(18)
O21 O 0.24292(19) 0.3312(3) 0.6500(2)
O22 O 0.23073(19) 0.3851(3) 0.73419(19)
Ca3G Ca 0.43571(4) 0.24991(10) 0.82283(4)
Ca4G Ca 0.23657(5) 0.25008(10) 0.71457(5)
O13G O 0.92188(13) 0.2492(3) 1.39017(13)
O14G O 0.93100(15) 0.3735(2) 1.34391(17)
O15G O 0.94268(16) 0.3249(3) 1.26534(18)
O16G O 0.9419(2) 0.1747(3) 1.2643(2)
O17G O 0.93027(19) 0.1257(3) 1.34402(18)
O18G O 0.71985(14) 0.2504(3) 1.28788(15)
O19G O 0.72926(16) 0.3847(2) 1.23414(18)
O20G O 0.74315(16) 0.3329(2) 1.15019(18)
O21G O 0.74292(19) 0.1688(3) 1.1500(2)
O22G O 0.73073(19) 0.1149(3) 1.23419(19)
loop_
_geom_bond_atom_site_label_1
_geom_bond_atom_site_label_2
_geom_bond_site_symmetry_1
_geom_bond_site_symmetry_2
O1 Ca1 1_555 1_555
O2 Ca3 1_555 1_555
Cl7 Ca1 1_555 1_555
Cl8 Ca3 1_555 1_555
Ca1 O3 1_555 1_555
Ca2 Cl7 1_555 1_555
Ca3 O13G 1_555 1_555
Ca4 Cl8 1_555 1_555
C1 N1 1_555 1_555
C2 H1 1_555 1_555
C3 C2 1_555 1_555
H2 C3 1_555 1_555
C4 N3 1_555 1_555
C5 H3 1_555 1_555
H4 C5 1_555 1_555
C6 H5 1_555 1_555
H6 C6 1_555 1_555
C7 N5 1_555 1_555
C8 H7 1_555 1_555
C9 C8 1_555 1_555
H8 C9 1_555 1_555
C10 N7 1_555 1_555
C11 H9 1_555 1_555
H10 C11 1_555 1_555
C12 H11 1_555 1_555
H12 C12 1_555 1_555
C13 N9 1_555 1_555
C14 H13 1_555 1_555
C15 C14 1_555 1_555
H14 C15 1_555 1_555
C16 N11 1_555 1_555
C17 H15 1_555 1_555
H16 C17 1_555 1_555
C18 H17 1_555 1_555
H18 C18 1_555 1_555
C19 N13 1_555 1_555
C20 H19 1_555 1_555
C21 C20 1_555 1_555
H20 C21 1_555 1_555
C22 N15 1_555 1_555
C23 H21 1_555 1_555
H22 C23 1_555 1_555
C24 H23 1_555 1_555
H24 C24 1_555 1_555
C25 N17 1_555 1_555
C26 H25 1_555 1_555
C27 C26 1_555 1_555
H26 C27 1_555 1_555
C28 N19 1_555 1_555
C29 H27 1_555 1_555
H28 C29 1_555 1_555
C30 H29 1_555 1_555
H30 C30 1_555 1_555
C31 N21 1_555 1_555
C32 H31 1_555 1_555
C33 C32 1_555 1_555
H32 C33 1_555 1_555
C34 N23 1_555 1_555
C35 H33 1_555 1_555
H34 C35 1_555 1_555
C36 H35 1_555 1_555
H36 C36 1_555 1_555
C37 N25 1_555 1_555
C38 H37 1_555 1_555
C39 C38 1_555 1_555
H38 C39 1_555 1_555
C40 N27 1_555 1_555
C41 H39 1_555 1_555
H40 C41 1_555 1_555
C42 H41 1_555 1_555
H42 C42 1_555 1_555
C43 N29 1_555 1_555
C44 H43 1_555 1_555
C45 C44 1_555 1_555
H44 C45 1_555 1_555
C46 N31 1_555 1_555
C47 H45 1_555 1_555
H46 C47 1_555 1_555
C48 H47 1_555 1_555
H48 C48 1_555 1_555
C49 N33 1_555 1_555
C50 H49 1_555 1_555
C51 C50 1_555 1_555
H50 C51 1_555 1_555
C52 N35 1_555 1_555
C53 H51 1_555 1_555
H52 C53 1_555 1_555
C54 H53 1_555 1_555
H54 C54 1_555 1_555
C55 N37 1_555 1_555
C56 H55 1_555 1_555
C57 C56 1_555 1_555
H56 C57 1_555 1_555
C58 N39 1_555 1_555
C59 H57 1_555 1_555
H58 C59 1_555 1_555
C60 H59 1_555 1_555
H60 C60 1_555 1_555
N1 C2 1_555 1_555
N2 C1 1_555 1_555
N3 C2 1_555 1_555
N4 C3 1_555 1_555
N5 C5 1_555 1_555
N6 C7 1_555 1_555
N7 C6 1_555 1_555
N8 C9 1_555 1_555
N9 C11 1_555 1_555
N10 C13 1_555 1_555
N11 C12 1_555 1_555
N12 C15 1_555 1_555
N13 C17 1_555 1_555
N14 C19 1_555 1_555
N15 C18 1_555 1_555
N16 C21 1_555 1_555
N17 C23 1_555 1_555
N18 C25 1_555 1_555
N19 C24 1_555 1_555
N20 C27 1_555 1_555
N21 C32 1_555 1_555
N22 C31 1_555 1_555
N23 C32 1_555 1_555
N24 C33 1_555 1_555
N25 C35 1_555 1_555
N26 C37 1_555 1_555
N27 C36 1_555 1_555
N28 C39 1_555 1_555
N29 C41 1_555 1_555
N30 C43 1_555 1_555
N31 C42 1_555 1_555
N32 C45 1_555 1_555
N33 C47 1_555 1_555
N34 C49 1_555 1_555
N35 C48 1_555 1_555
N36 C51 1_555 1_555
N37 C53 1_555 1_555
N38 C55 1_555 1_555
N39 C54 1_555 1_555
N40 C57 1_555 1_555
O3 C1 1_555 1_555
O4 Ca1 1_555 1_555
O5 Ca1 1_555 1_555
O6 Ca1 1_555 1_555
O7 Ca1 1_555 1_555
O8 Ca2 1_555 1_555
O9 Ca2 1_555 1_555
O10 Ca2 1_555 1_555
O11 Ca2 1_555 1_555
O12 Ca2 1_555 1_555
O13 Ca2 1_555 1_555
O14 C37 1_555 1_555
O15 C43 1_555 1_555
O16 C49 1_555 1_555
O17 C55 1_555 1_555
O18 C34 1_555 1_555
O19 C40 1_555 1_555
O20 C46 1_555 1_555
O21 C52 1_555 1_555
O22 C58 1_555 1_555
Ca3G O13 1_555 1_555
Ca4G O18 1_555 1_555
O14G Ca3 1_555 1_555
O15G Ca3 1_555 1_555
O16G Ca3 1_555 1_555
O17G Ca3 1_555 1_555
O18G Ca4 1_555 1_555
O19G Ca4 1_555 1_555
O20G Ca4 1_555 1_555
O21G Ca4 1_555 1_555
O22G Ca4 1_555 1_555
Ca4 O4 1_555 1_555
C3 N2 1_555 1_555
C4 N4 1_555 1_555
C4 O8 1_555 1_555
C5 N2 1_555 1_555
C6 N4 1_555 1_555
C7 O4 1_555 1_555
C8 N5 1_555 1_555
C8 N7 1_555 1_555
C9 N6 1_555 1_555
C10 N8 1_555 1_555
C10 O9 1_555 1_555
C11 N6 1_555 1_555
C12 N8 1_555 1_555
C13 O5 1_555 1_555
C14 N9 1_555 1_555
C14 N11 1_555 1_555
C15 N10 1_555 1_555
C16 N12 1_555 1_555
C16 O10 1_555 1_555
C17 N10 1_555 1_555
C18 N12 1_555 1_555
C19 O6 1_555 1_555
C20 N13 1_555 1_555
C20 N15 1_555 1_555
C21 N14 1_555 1_555
C22 N16 1_555 1_555
C22 O11 1_555 1_555
C23 N14 1_555 1_555
C24 N16 1_555 1_555
C25 O7 1_555 1_555
C26 N17 1_555 1_555
C26 N19 1_555 1_555
C27 N18 1_555 1_555
C28 N20 1_555 1_555
C28 O12 1_555 1_555
C29 N1 1_555 1_555
C29 N18 1_555 1_555
C30 N3 1_555 1_555
C30 N20 1_555 1_555
C31 O13 1_555 1_555
C33 N22 1_555 1_555
C34 N24 1_555 1_555
C35 N22 1_555 1_555
C36 N24 1_555 1_555
C38 N25 1_555 1_555
C38 N27 1_555 1_555
C39 N26 1_555 1_555
C40 N28 1_555 1_555
C41 N26 1_555 1_555
C42 N28 1_555 1_555
C44 N29 1_555 1_555
C44 N31 1_555 1_555
C45 N30 1_555 1_555
C46 N32 1_555 1_555
C47 N30 1_555 1_555
C48 N32 1_555 1_555
C50 N33 1_555 1_555
C50 N35 1_555 1_555
C51 N34 1_555 1_555
C52 N36 1_555 1_555
C53 N34 1_555 1_555
C54 N36 1_555 1_555
C56 N37 1_555 1_555
C56 N39 1_555 1_555
C57 N38 1_555 1_555
C58 N40 1_555 1_555
C59 N21 1_555 1_555
C59 N38 1_555 1_555
C60 N23 1_555 1_555
C60 N40 1_555 1_555
O14 Ca3G 1_555 1_555
O15 Ca3G 1_555 1_555
O16 Ca3G 1_555 1_555
O17 Ca3G 1_555 1_555
O19 Ca4G 1_555 1_555
O20 Ca4G 1_555 1_555
O21 Ca4G 1_555 1_555
O22 Ca4G 1_555 1_555

#END
