
#######################################################################
#
#                 Cambridge Crystallographic Data Centre
#                                CCDC 
#
#######################################################################
#
# If this CIF has been generated from an entry in the Cambridge 
# Structural Database, then it will include bibliographic, chemical, 
# crystal, experimental, refinement or atomic coordinate data resulting 
# from the CCDC's data processing and validation procedures.
#
#######################################################################

data_SEGTOP
_symmetry_cell_setting           hexagonal
_symmetry_space_group_name_H-M   'P 65'
_symmetry_Int_Tables_number      170
_space_group_name_Hall           'P 65'
loop_
_symmetry_equiv_pos_site_id
_symmetry_equiv_pos_as_xyz
1 x,y,z
2 -x,-y,1/2+z
3 -y,x-y,2/3+z
4 -x+y,-x,1/3+z
5 x-y,x,5/6+z
6 y,-x+y,1/6+z
_cell_length_a                   14.7327(18)
_cell_length_b                   14.7327(18)
_cell_length_c                   46.389(11)
_cell_angle_alpha                90
_cell_angle_beta                 90
_cell_angle_gamma                120
_cell_volume                     8719.88
loop_
_atom_site_label
_atom_site_type_symbol
_atom_site_fract_x
_atom_site_fract_y
_atom_site_fract_z
Cl1 Cl 0.0484(17) 0.024(3) 0.4326(6)
Cl2 Cl 0.091(9) -0.560(11) 0.364(6)
Cl3 Cl 0.578(6) 0.020(4) 0.2576(13)
C31 C -0.043(3) -0.210(4) 0.3805(8)
H31 H -0.0808 -0.1917 0.3932
C32 C 0.025(4) -0.136(3) 0.3610(9)
H32 H 0.0345 -0.0677 0.3605
C33 C 0.079(3) -0.165(3) 0.3422(8)
C34 C 0.067(3) -0.265(3) 0.3424(8)
H33 H 0.1051 -0.2818 0.3291
C35 C -0.001(3) -0.342(3) 0.3625(8)
H34 H -0.0098 -0.4099 0.3628
C36 C -0.057(3) -0.313(3) 0.3820(7)
C37 C -0.127(3) -0.388(6) 0.4013(9)
O15 O 0.149(5) -0.090(4) 0.3222(14)
H35 H 0.1489 -0.0342 0.3247
O16 O -0.149(7) -0.485(7) 0.4049(18)
H36 H -0.1137 -0.4980 0.3935
O17 O -0.175(5) -0.357(7) 0.4184(15)
O1 O 0.5504(14) 0.0297(14) 0.5168(6)
O2 O 0.8425(13) 0.3477(14) 0.5066(5)
O3 O 0.4802(15) 0.1763(17) 0.5233(6)
O4 O 0.6762(19) 0.3881(16) 0.4937(6)
Ca1 Ca 0.6627(4) 0.2170(4) 0.5109(3)
C1 C 0.7747(18) 0.1414(19) 0.4551(6)
C2 C 0.8521(19) 0.100(2) 0.4178(6)
H1 H 0.9277 0.1224 0.4182
C3 C 0.8332(19) 0.188(2) 0.4075(6)
H2 H 0.8995 0.2507 0.4017
C4 C 0.7487(18) 0.0460(18) 0.3763(6)
C5 C 0.7564(18) 0.2856(18) 0.4330(6)
H3 H 0.8045 0.3451 0.4210
H4 H 0.7622 0.3112 0.4528
C6 C 0.7325(18) 0.2005(18) 0.3636(6)
H5 H 0.7883 0.2740 0.3631
H6 H 0.7246 0.1719 0.3441
C7 C 0.5663(18) 0.2034(16) 0.4413(6)
C8 C 0.6230(18) 0.2603(17) 0.3934(6)
H7 H 0.6591 0.3349 0.3875
C9 C 0.5034(17) 0.2137(17) 0.3955(6)
H8 H 0.4831 0.2663 0.3904
C10 C 0.5415(18) 0.1200(17) 0.3612(5)
C11 C 0.3791(19) 0.1473(18) 0.4397(6)
H9 H 0.3924 0.1743 0.4595
H10 H 0.3419 0.1776 0.4296
C12 C 0.3514(17) 0.0544(18) 0.3701(6)
H11 H 0.3128 0.0926 0.3704
H12 H 0.3429 0.0235 0.3509
C13 C 0.3105(16) -0.0271(18) 0.4630(6)
C14 C 0.2490(17) -0.0261(18) 0.4164(6)
H13 H 0.1958 -0.0065 0.4113
C15 C 0.1966(16) -0.1410(16) 0.4282(5)
H14 H 0.1201 -0.1717 0.4310
C16 C 0.2836(17) -0.1284(17) 0.3847(6)
C17 C 0.2147(18) -0.2143(18) 0.4763(6)
H15 H 0.2250 -0.1842 0.4956
H16 H 0.1394 -0.2625 0.4737
C18 C 0.1897(18) -0.3046(17) 0.4066(6)
H17 H 0.1181 -0.3440 0.4141
H18 H 0.1888 -0.3295 0.3869
C19 C 0.3564(18) -0.2488(18) 0.4908(6)
C20 C 0.2428(17) -0.3569(17) 0.4544(6)
H19 H 0.1718 -0.4169 0.4580
C21 C 0.329(2) -0.3875(19) 0.4600(6)
H20 H 0.2987 -0.4608 0.4668
C22 C 0.335(2) -0.3395(17) 0.4115(6)
C23 C 0.488(2) -0.304(2) 0.4942(7)
H21 H 0.4793 -0.3744 0.4959
H22 H 0.4984 -0.2741 0.5135
C24 C 0.456(2) -0.3978(19) 0.4250(7)
H23 H 0.4453 -0.4238 0.4051
H24 H 0.4482 -0.4544 0.4377
C25 C 0.652(2) -0.136(2) 0.4847(6)
C26 C 0.625(2) -0.276(2) 0.4537(7)
H25 H 0.6378 -0.3313 0.4610
C27 C 0.726(2) -0.179(2) 0.4457(6)
H26 H 0.7860 -0.1906 0.4470
C28 C 0.6162(19) -0.2396(19) 0.4048(6)
C29 C 0.819(2) 0.009(2) 0.4671(7)
H27 H 0.8221 0.0361 0.4865
H28 H 0.8859 0.0116 0.4634
C30 C 0.7876(19) -0.086(2) 0.3966(6)
H29 H 0.7730 -0.1143 0.3770
H30 H 0.8553 -0.0771 0.4026
N1 N 0.8062(15) 0.0750(17) 0.4465(6)
N2 N 0.7884(16) 0.2085(16) 0.4325(5)
N3 N 0.7954(15) 0.0172(16) 0.3963(5)
N4 N 0.7636(16) 0.1421(17) 0.3833(5)
N5 N 0.6514(15) 0.2475(15) 0.4230(5)
N6 N 0.4794(14) 0.1816(14) 0.4253(5)
N7 N 0.6340(15) 0.1953(15) 0.3722(5)
N8 N 0.4631(15) 0.1293(16) 0.3748(5)
N9 N 0.3131(14) 0.0355(15) 0.4405(5)
N10 N 0.2496(15) -0.1299(15) 0.4551(5)
N11 N 0.3057(14) -0.0291(14) 0.3912(5)
N12 N 0.2206(15) -0.1949(15) 0.4053(5)
N13 N 0.2683(15) -0.2728(14) 0.4744(5)
N14 N 0.3938(17) -0.3127(17) 0.4818(6)
N15 N 0.2565(15) -0.3270(15) 0.4240(5)
N16 N 0.3784(17) -0.3718(15) 0.4319(5)
N17 N 0.5802(17) -0.2387(17) 0.4765(6)
N18 N 0.7345(17) -0.1016(18) 0.4661(5)
N19 N 0.5654(17) -0.3067(17) 0.4279(6)
N20 N 0.7063(17) -0.1603(18) 0.4159(5)
O5 O 0.7429(13) 0.1459(13) 0.4791(4)
O6 O 0.5677(13) 0.1874(13) 0.4666(5)
O7 O 0.3537(13) 0.0063(13) 0.4865(4)
O8 O 0.3918(14) -0.1831(14) 0.5098(5)
O9 O 0.6427(16) -0.0918(15) 0.5050(5)
O10 O 0.7001(14) -0.0060(14) 0.3549(5)
O11 O 0.5281(13) 0.0572(13) 0.3420(4)
O12 O 0.3135(12) -0.1537(12) 0.3627(4)
O13 O 0.3594(15) -0.3236(15) 0.3861(5)
O14 O 0.5851(15) -0.2486(14) 0.3800(5)
Ca1D Ca 0.4457(6) -0.3373(4) 0.3442(3)
O13E O 0.6764(15) 0.3170(21) 0.5528(5)
O14E O 0.7514(14) 0.1663(21) 0.5467(5)
loop_
_geom_bond_atom_site_label_1
_geom_bond_atom_site_label_2
_geom_bond_site_symmetry_1
_geom_bond_site_symmetry_2
O1 Ca1 1_555 1_555
O2 Ca1 1_555 1_555
O3 Ca1 1_555 1_555
O4 Ca1 1_555 1_555
Ca1 O5 1_555 1_555
C1 N1 1_555 1_555
C2 H1 1_555 1_555
C3 C2 1_555 1_555
H2 C3 1_555 1_555
C4 N3 1_555 1_555
C5 H3 1_555 1_555
H4 C5 1_555 1_555
C6 H5 1_555 1_555
H6 C6 1_555 1_555
C7 N5 1_555 1_555
C8 H7 1_555 1_555
C9 C8 1_555 1_555
H8 C9 1_555 1_555
C10 N7 1_555 1_555
C11 H9 1_555 1_555
H10 C11 1_555 1_555
C12 H11 1_555 1_555
H12 C12 1_555 1_555
C13 N9 1_555 1_555
C14 H13 1_555 1_555
C15 C14 1_555 1_555
H14 C15 1_555 1_555
C16 N11 1_555 1_555
C17 H15 1_555 1_555
H16 C17 1_555 1_555
C18 H17 1_555 1_555
H18 C18 1_555 1_555
C19 N13 1_555 1_555
C20 H19 1_555 1_555
C21 C20 1_555 1_555
H20 C21 1_555 1_555
C22 N15 1_555 1_555
C23 H21 1_555 1_555
H22 C23 1_555 1_555
C24 H23 1_555 1_555
H24 C24 1_555 1_555
C25 N17 1_555 1_555
C26 H25 1_555 1_555
C27 C26 1_555 1_555
H26 C27 1_555 1_555
C28 N19 1_555 1_555
C29 H27 1_555 1_555
H28 C29 1_555 1_555
C30 H29 1_555 1_555
H30 C30 1_555 1_555
N1 C2 1_555 1_555
N2 C1 1_555 1_555
N3 C2 1_555 1_555
N4 C3 1_555 1_555
N5 C5 1_555 1_555
N6 C7 1_555 1_555
N7 C6 1_555 1_555
N8 C9 1_555 1_555
N9 C11 1_555 1_555
N10 C13 1_555 1_555
N11 C12 1_555 1_555
N12 C15 1_555 1_555
N13 C17 1_555 1_555
N14 C19 1_555 1_555
N15 C18 1_555 1_555
N16 C21 1_555 1_555
N17 C23 1_555 1_555
N18 C25 1_555 1_555
N19 C24 1_555 1_555
N20 C27 1_555 1_555
O5 C1 1_555 1_555
O6 Ca1 1_555 1_555
O7 C13 1_555 1_555
O8 C19 1_555 1_555
O9 C25 1_555 1_555
O10 C4 1_555 1_555
O11 C10 1_555 1_555
O12 C16 1_555 1_555
O13 C22 1_555 1_555
O14 C28 1_555 1_555
C31 H31 1_555 1_555
C32 C31 1_555 1_555
H32 C32 1_555 1_555
C33 C32 1_555 1_555
C34 C33 1_555 1_555
H33 C34 1_555 1_555
C35 C34 1_555 1_555
H34 C35 1_555 1_555
C36 C31 1_555 1_555
C37 C36 1_555 1_555
O15 C33 1_555 1_555
H35 O15 1_555 1_555
O16 C37 1_555 1_555
H36 O16 1_555 1_555
O17 C37 1_555 1_555
Ca1D O13 1_555 1_555
O13E Ca1 1_555 1_555
O14E Ca1 1_555 1_555
C3 N2 1_555 1_555
C4 N4 1_555 1_555
C5 N2 1_555 1_555
C6 N4 1_555 1_555
C7 O6 1_555 1_555
C8 N5 1_555 1_555
C8 N7 1_555 1_555
C9 N6 1_555 1_555
C10 N8 1_555 1_555
C11 N6 1_555 1_555
C12 N8 1_555 1_555
C14 N9 1_555 1_555
C14 N11 1_555 1_555
C15 N10 1_555 1_555
C16 N12 1_555 1_555
C17 N10 1_555 1_555
C18 N12 1_555 1_555
C20 N13 1_555 1_555
C20 N15 1_555 1_555
C21 N14 1_555 1_555
C22 N16 1_555 1_555
C23 N14 1_555 1_555
C24 N16 1_555 1_555
C26 N17 1_555 1_555
C26 N19 1_555 1_555
C27 N18 1_555 1_555
C28 N20 1_555 1_555
C29 N1 1_555 1_555
C29 N18 1_555 1_555
C30 N3 1_555 1_555
C30 N20 1_555 1_555
O14 Ca1D 1_555 1_555
C35 C36 1_555 1_555

#END
