
#######################################################################
#
#                 Cambridge Crystallographic Data Centre
#                                CCDC 
#
#######################################################################
#
# If this CIF has been generated from an entry in the Cambridge 
# Structural Database, then it will include bibliographic, chemical, 
# crystal, experimental, refinement or atomic coordinate data resulting 
# from the CCDC's data processing and validation procedures.
#
#######################################################################

data_SEGVAD
_symmetry_cell_setting           orthorhombic
_symmetry_space_group_name_H-M   'P 21 21 21'
_symmetry_Int_Tables_number      19
_space_group_name_Hall           'P 2ac 2ab'
loop_
_symmetry_equiv_pos_site_id
_symmetry_equiv_pos_as_xyz
1 x,y,z
2 1/2-x,-y,1/2+z
3 -x,1/2+y,1/2-z
4 1/2+x,1/2-y,-z
_cell_length_a                   7.7051(11)
_cell_length_b                   8.2473(12)
_cell_length_c                   18.664(3)
_cell_angle_alpha                90
_cell_angle_beta                 90
_cell_angle_gamma                90
_cell_volume                     1186.03
loop_
_atom_site_label
_atom_site_type_symbol
_atom_site_fract_x
_atom_site_fract_y
_atom_site_fract_z
C1 C 1.2559(7) 0.4586(6) 0.8621(3)
C2 C 1.1391(6) 0.5547(6) 0.9115(3)
H1 H 1.2092 0.6131 0.9461
H2 H 1.0741 0.6335 0.8838
C3 C 0.8667(7) 0.5272(6) 0.9801(3)
H3 H 0.8194 0.6044 0.9461
H4 H 0.9000 0.5858 1.0230
C4 C 0.7310(6) 0.4014(6) 0.9984(3)
C5 C 0.6962(6) -0.0402(6) 0.8481(3)
C6 C 0.6053(6) -0.1858(6) 0.8165(3)
H5 H 0.6893 -0.2492 0.7898
H6 H 0.5623 -0.2530 0.8553
C7 C 0.3126(7) -0.0627(6) 0.8046(3)
H7 H 0.3526 0.0404 0.8234
H8 H 0.2750 -0.1284 0.8448
Dy1 Dy 0.94072(3) 0.20023(2) 0.877471(11)
N1 N 1.0185(5) 0.4475(5) 0.9492(2)
H9 H 1.0794 0.4093 0.9874
N2 N 0.4582(5) -0.1446(4) 0.7684(2)
H10 H 0.4187 -0.2365 0.7480
H11 H 0.4976 -0.0801 0.7330
O1 O 1.2098(4) 0.3143(4) 0.84725(19)
O2 O 1.3863(5) 0.5271(5) 0.8381(2)
O3 O 0.7395(5) 0.2663(4) 0.9659(2)
O4 O 0.6186(4) 0.4372(4) 1.0439(2)
O5 O 0.8043(5) -0.0677(4) 0.8961(2)
O6 O 0.6686(4) 0.0986(4) 0.82300(19)
C8 C 0.1606(6) -0.0335(6) 0.7557(3)
O7 O 0.1644(4) -0.0939(4) 0.69374(18)
O8 O 0.0367(5) 0.0493(5) 0.7794(2)
Dy1_2 Dy -0.05928(3) 0.20023(2) 0.877471(11)
Dy1B Dy 0.05928(3) -0.29977(2) 0.622529(11)
Dy1C Dy 0.44072(3) 0.29977(2) 1.122529(11)
O4C O 1.1186(4) 0.0628(4) 0.9561(2)
O7B O 0.8356(4) 0.4061(4) 0.80626(18)
O8_2 O 1.0367(5) 0.0493(5) 0.7794(2)
loop_
_geom_bond_atom_site_label_1
_geom_bond_atom_site_label_2
_geom_bond_site_symmetry_1
_geom_bond_site_symmetry_2
C1 C2 1_555 1_555
C2 H1 1_555 1_555
H2 C2 1_555 1_555
C3 H3 1_555 1_555
H4 C3 1_555 1_555
C4 C3 1_555 1_555
C5 C6 1_555 1_555
C6 H5 1_555 1_555
H6 C6 1_555 1_555
C7 H7 1_555 1_555
H8 C7 1_555 1_555
Dy1 N1 1_555 1_555
N1 C2 1_555 1_555
H9 N1 1_555 1_555
N2 C6 1_555 1_555
H10 N2 1_555 1_555
H11 N2 1_555 1_555
O1 C1 1_555 1_555
O2 C1 1_555 1_555
O3 C4 1_555 1_555
O4 C4 1_555 1_555
O5 C5 1_555 1_555
O6 C5 1_555 1_555
C8 C7 1_555 1_555
O7 C8 1_555 1_555
O8 C8 1_555 1_555
Dy1_2 O8 1_555 1_555
Dy1B O7 1_555 1_555
Dy1C O4 1_555 1_555
O4C Dy1 1_555 1_555
O7B Dy1 1_555 1_555
O8_2 Dy1 1_555 1_555
C3 N1 1_555 1_555
C7 N2 1_555 1_555
Dy1 O1 1_555 1_555
Dy1 O3 1_555 1_555
Dy1 O5 1_555 1_555
Dy1 O6 1_555 1_555

#END
