
#######################################################################
#
#                 Cambridge Crystallographic Data Centre
#                                CCDC 
#
#######################################################################
#
# If this CIF has been generated from an entry in the Cambridge 
# Structural Database, then it will include bibliographic, chemical, 
# crystal, experimental, refinement or atomic coordinate data resulting 
# from the CCDC's data processing and validation procedures.
#
#######################################################################

data_SEGVIL
_symmetry_cell_setting           orthorhombic
_symmetry_space_group_name_H-M   'P 21 21 21'
_symmetry_Int_Tables_number      19
_space_group_name_Hall           'P 2ac 2ab'
loop_
_symmetry_equiv_pos_site_id
_symmetry_equiv_pos_as_xyz
1 x,y,z
2 1/2-x,-y,1/2+z
3 -x,1/2+y,1/2-z
4 1/2+x,1/2-y,-z
_cell_length_a                   7.7735(18)
_cell_length_b                   8.2482(19)
_cell_length_c                   18.816(4)
_cell_angle_alpha                90
_cell_angle_beta                 90
_cell_angle_gamma                90
_cell_volume                     1206.43
loop_
_atom_site_label
_atom_site_type_symbol
_atom_site_fract_x
_atom_site_fract_y
_atom_site_fract_z
C1 C 1.2567(9) 0.4579(7) 0.8618(3)
C2 C 1.1393(9) 0.5540(8) 0.9109(4)
H1 H 1.2088 0.6146 0.9444
H2 H 1.0736 0.6311 0.8830
C3 C 0.8708(9) 0.5313(9) 0.9813(4)
H3 H 0.8241 0.6094 0.9479
H4 H 0.9050 0.5889 1.0239
C4 C 0.7352(8) 0.4059(8) 0.9993(3)
C5 C 0.6936(8) -0.0417(7) 0.8479(3)
C6 C 0.6064(8) -0.1870(8) 0.8146(3)
H5 H 0.6912 -0.2476 0.7877
H6 H 0.5646 -0.2571 0.8522
Eu1 Eu 0.94080(3) 0.19734(3) 0.878251(12)
N1 N 1.0216(7) 0.4498(6) 0.9497(3)
H7 H 1.0833 0.4121 0.9873
N2 N 0.4603(7) -0.1461(6) 0.7669(3)
H8 H 0.4985 -0.0806 0.7321
H9 H 0.4214 -0.2377 0.7465
O1 O 1.2119(6) 0.3163(5) 0.8471(2)
O2 O 1.3830(7) 0.5289(7) 0.8367(3)
O3 O 0.7426(6) 0.2704(5) 0.9686(2)
O4 O 0.6234(6) 0.4454(6) 1.0435(2)
O5 O 0.7983(7) -0.0706(6) 0.8967(2)
O6 O 0.6658(6) 0.0959(5) 0.8237(2)
C7 C 0.1616(8) -0.0362(7) 0.7562(3)
C8 C 0.3154(9) -0.0651(8) 0.8042(3)
H10 H 0.3548 0.0381 0.8229
H11 H 0.2801 -0.1317 0.8441
O7 O 0.0398(6) 0.0429(6) 0.7801(2)
O8 O 0.1673(6) -0.0948(5) 0.6938(2)
Eu1_2 Eu -0.05920(3) 0.19734(3) 0.878251(12)
Eu1B Eu 0.05920(3) -0.30266(3) 0.621749(12)
Eu1C Eu 0.44080(3) 0.30266(3) 1.121749(12)
O4C O 1.1234(6) 0.0546(6) 0.9565(2)
O7_2 O 1.0398(6) 0.0429(6) 0.7801(2)
O8B O 0.8327(6) 0.4052(5) 0.8062(2)
loop_
_geom_bond_atom_site_label_1
_geom_bond_atom_site_label_2
_geom_bond_site_symmetry_1
_geom_bond_site_symmetry_2
C1 C2 1_555 1_555
C2 H1 1_555 1_555
H2 C2 1_555 1_555
C3 H3 1_555 1_555
H4 C3 1_555 1_555
C4 C3 1_555 1_555
C5 C6 1_555 1_555
C6 H5 1_555 1_555
H6 C6 1_555 1_555
Eu1 N1 1_555 1_555
N1 C2 1_555 1_555
H7 N1 1_555 1_555
N2 C6 1_555 1_555
H8 N2 1_555 1_555
H9 N2 1_555 1_555
O1 C1 1_555 1_555
O2 C1 1_555 1_555
O3 C4 1_555 1_555
O4 C4 1_555 1_555
O5 C5 1_555 1_555
O6 C5 1_555 1_555
C7 C8 1_555 1_555
C8 N2 1_555 1_555
H10 C8 1_555 1_555
H11 C8 1_555 1_555
O7 C7 1_555 1_555
O8 C7 1_555 1_555
Eu1_2 O7 1_555 1_555
Eu1B O8 1_555 1_555
Eu1C O4 1_555 1_555
O4C Eu1 1_555 1_555
O7_2 Eu1 1_555 1_555
O8B Eu1 1_555 1_555
C3 N1 1_555 1_555
Eu1 O1 1_555 1_555
Eu1 O3 1_555 1_555
Eu1 O5 1_555 1_555
Eu1 O6 1_555 1_555

#END
