
#######################################################################
#
#                 Cambridge Crystallographic Data Centre
#                                CCDC 
#
#######################################################################
#
# If this CIF has been generated from an entry in the Cambridge 
# Structural Database, then it will include bibliographic, chemical, 
# crystal, experimental, refinement or atomic coordinate data resulting 
# from the CCDC's data processing and validation procedures.
#
#######################################################################

data_SEGVIK
_symmetry_cell_setting           orthorhombic
_symmetry_space_group_name_H-M   'P b c a'
_symmetry_Int_Tables_number      61
_space_group_name_Hall           '-P 2ac 2ab'
loop_
_symmetry_equiv_pos_site_id
_symmetry_equiv_pos_as_xyz
1 x,y,z
2 1/2-x,-y,1/2+z
3 -x,1/2+y,1/2-z
4 1/2+x,1/2-y,-z
5 -x,-y,-z
6 1/2+x,y,1/2-z
7 x,1/2-y,1/2+z
8 1/2-x,1/2+y,z
_cell_length_a                   6.8997(3)
_cell_length_b                   11.0241(4)
_cell_length_c                   20.0304(11)
_cell_angle_alpha                90
_cell_angle_beta                 90
_cell_angle_gamma                90
_cell_volume                     1523.57
loop_
_atom_site_label
_atom_site_type_symbol
_atom_site_fract_x
_atom_site_fract_y
_atom_site_fract_z
Ag1 Ag -0.48621(4) 0.20605(3) 0.272870(13)
O1 O -0.4729(4) -0.0095(3) 0.20942(15)
O2 O -0.6959(5) -0.0990(3) 0.15207(15)
O3 O -0.7105(4) 0.0922(3) 0.17140(15)
N1 N -0.6679(3) 0.1801(2) 0.36432(11)
N2 N -0.8826(4) 0.3185(2) 0.31818(12)
H1 H -0.8082 0.3234 0.2839
H2 H -0.9875 0.3605 0.3199
N3 N -0.6271(4) -0.0068(2) 0.17747(13)
C1 C -0.8332(4) 0.2420(3) 0.37123(13)
C2 C -0.9529(5) 0.2288(3) 0.42611(17)
H3 H -1.0662 0.2739 0.4299
C3 C -0.9013(6) 0.1481(4) 0.47471(16)
H4 H -0.9793 0.1376 0.5121
C4 C -0.7328(5) 0.0827(4) 0.46775(15)
H5 H -0.6963 0.0264 0.5000
C5 C -0.6200(5) 0.1017(3) 0.41263(15)
H6 H -0.5049 0.0584 0.4085
Ag1E Ag -0.98621(4) 0.20605(3) 0.227130(13)
O3E O -0.2105(4) 0.0922(3) 0.32860(15)
N2E N -0.3826(4) 0.3185(2) 0.18182(12)
H1E H -0.3082 0.3234 0.2161
H2E H -0.4875 0.3605 0.1801
loop_
_geom_bond_atom_site_label_1
_geom_bond_atom_site_label_2
_geom_bond_site_symmetry_1
_geom_bond_site_symmetry_2
Ag1 O1 1_555 1_555
O1 N3 1_555 1_555
O2 N3 1_555 1_555
O3 N3 1_555 1_555
N1 Ag1 1_555 1_555
N2 H1 1_555 1_555
H2 N2 1_555 1_555
C1 N1 1_555 1_555
C2 C1 1_555 1_555
H3 C2 1_555 1_555
C3 C2 1_555 1_555
H4 C3 1_555 1_555
C4 C3 1_555 1_555
H5 C4 1_555 1_555
C5 N1 1_555 1_555
H6 C5 1_555 1_555
Ag1E O3 1_555 1_555
O3E Ag1 1_555 1_555
N2E Ag1 1_555 1_555
H1E N2E 1_555 1_555
H2E N2E 1_555 1_555
N2 C1 1_555 1_555
N2 Ag1E 1_555 1_555
C4 C5 1_555 1_555

#END
