
#######################################################################
#
#                 Cambridge Crystallographic Data Centre
#                                CCDC 
#
#######################################################################
#
# If this CIF has been generated from an entry in the Cambridge 
# Structural Database, then it will include bibliographic, chemical, 
# crystal, experimental, refinement or atomic coordinate data resulting 
# from the CCDC's data processing and validation procedures.
#
#######################################################################

data_SEGVUX
_symmetry_cell_setting           orthorhombic
_symmetry_space_group_name_H-M   'P 21 21 21'
_symmetry_Int_Tables_number      19
_space_group_name_Hall           'P 2ac 2ab'
loop_
_symmetry_equiv_pos_site_id
_symmetry_equiv_pos_as_xyz
1 x,y,z
2 1/2-x,-y,1/2+z
3 -x,1/2+y,1/2-z
4 1/2+x,1/2-y,-z
_cell_length_a                   7.7028(10)
_cell_length_b                   8.2418(10)
_cell_length_c                   18.692(2)
_cell_angle_alpha                90
_cell_angle_beta                 90
_cell_angle_gamma                90
_cell_volume                     1186.66
loop_
_atom_site_label
_atom_site_type_symbol
_atom_site_fract_x
_atom_site_fract_y
_atom_site_fract_z
Dy1 Dy 0.05939(5) 0.79986(5) 0.12248(2)
O1 O -0.2107(9) 0.6857(9) 0.1536(4)
N1 N -0.0187(10) 0.5527(10) 0.0510(5)
H1 H -0.0803 0.5907 0.0130
O2 O 0.3304(10) 0.9016(9) 0.1771(4)
O3 O 0.2608(9) 0.7335(9) 0.0335(4)
O4 O 0.1944(11) 1.0675(9) 0.1041(4)
C1 C 0.3043(12) 1.0413(12) 0.1522(5)
C2 C 0.2686(12) 0.5986(13) 0.0014(5)
C3 C -0.2537(13) 0.5412(12) 0.1388(5)
C4 C -0.1378(14) 0.4454(14) 0.0890(7)
H2 H -0.0720 0.3665 0.1163
H3 H -0.2087 0.3870 0.0547
C5 C 0.1333(14) 0.4720(14) 0.0198(6)
H4 H 0.0996 0.4135 -0.0230
H5 H 0.1810 0.3948 0.0537
O5 O -0.3868(11) 0.4731(11) 0.1624(5)
C6 C 0.3931(12) 1.1869(14) 0.1835(6)
H6 H 0.4351 1.2548 0.1449
H7 H 0.3089 1.2494 0.2106
N2 N 0.5420(10) 1.1452(10) 0.2314(4)
H8 H 0.5822 1.2370 0.2515
H9 H 0.5031 1.0808 0.2669
C7 C 0.6870(13) 1.0625(13) 0.1948(5)
H10 H 0.7246 1.1280 0.1546
H11 H 0.6467 0.9592 0.1763
O6 O 0.3809(10) 0.5623(9) -0.0440(4)
O7 O 0.9629(10) 0.9501(10) 0.2204(4)
C8 C 0.8399(11) 1.0337(12) 0.2443(5)
O8 O 0.8349(9) 1.0949(9) 0.3057(4)
Dy1_2 Dy 1.05939(5) 0.79986(5) 0.12248(2)
Dy1B Dy 0.94061(5) 1.29986(5) 0.37752(2)
Dy1C Dy 0.55939(5) 0.70014(5) -0.12248(2)
O6C O -0.1191(10) 0.9377(9) 0.0440(4)
O7_2 O -0.0371(10) 0.9501(10) 0.2204(4)
O8B O 0.1651(9) 0.5949(9) 0.1943(4)
loop_
_geom_bond_atom_site_label_1
_geom_bond_atom_site_label_2
_geom_bond_site_symmetry_1
_geom_bond_site_symmetry_2
Dy1 O1 1_555 1_555
O1 C3 1_555 1_555
N1 Dy1 1_555 1_555
H1 N1 1_555 1_555
O2 Dy1 1_555 1_555
O3 Dy1 1_555 1_555
O4 Dy1 1_555 1_555
C1 O2 1_555 1_555
C2 O3 1_555 1_555
C3 C4 1_555 1_555
C4 N1 1_555 1_555
H2 C4 1_555 1_555
H3 C4 1_555 1_555
C5 N1 1_555 1_555
H4 C5 1_555 1_555
H5 C5 1_555 1_555
O5 C3 1_555 1_555
C6 C1 1_555 1_555
H6 C6 1_555 1_555
H7 C6 1_555 1_555
N2 C6 1_555 1_555
H8 N2 1_555 1_555
H9 N2 1_555 1_555
C7 N2 1_555 1_555
H10 C7 1_555 1_555
H11 C7 1_555 1_555
O6 C2 1_555 1_555
O7 C8 1_555 1_555
C8 C7 1_555 1_555
O8 C8 1_555 1_555
Dy1_2 O7 1_555 1_555
Dy1B O8 1_555 1_555
Dy1C O6 1_555 1_555
O6C Dy1 1_555 1_555
O7_2 Dy1 1_555 1_555
O8B Dy1 1_555 1_555
O4 C1 1_555 1_555
C2 C5 1_555 1_555

#END
