
#######################################################################
#
#                 Cambridge Crystallographic Data Centre
#                                CCDC 
#
#######################################################################
#
# If this CIF has been generated from an entry in the Cambridge 
# Structural Database, then it will include bibliographic, chemical, 
# crystal, experimental, refinement or atomic coordinate data resulting 
# from the CCDC's data processing and validation procedures.
#
#######################################################################

data_SEGWEH
_symmetry_cell_setting           orthorhombic
_symmetry_space_group_name_H-M   'P n n n'
_symmetry_Int_Tables_number      48
_space_group_name_Hall           '-P 2ab 2bc'
loop_
_symmetry_equiv_pos_site_id
_symmetry_equiv_pos_as_xyz
1 x,y,z
2 1/2-x,1/2-y,z
3 x,1/2-y,1/2-z
4 1/2-x,y,1/2-z
5 -x,-y,-z
6 1/2+x,1/2+y,-z
7 -x,1/2+y,1/2+z
8 1/2+x,-y,1/2+z
_cell_length_a                   14.70500(10)
_cell_length_b                   26.3196(7)
_cell_length_c                   11.1021(3)
_cell_angle_alpha                90
_cell_angle_beta                 90
_cell_angle_gamma                90
_cell_volume                     4296.84
loop_
_atom_site_label
_atom_site_type_symbol
_atom_site_fract_x
_atom_site_fract_y
_atom_site_fract_z
C13 C 0.2500 0.3817(4) -0.2500
H7 H 0.2500 0.4170 -0.2500
C14 C 0.3202(7) 0.3561(4) -0.2052(9)
N1 N 0.3203(5) 0.3041(3) -0.2016(8)
C16 C 0.2500 0.2786(4) -0.2500
C13A C 0.2500 0.1183(4) -0.2500
H7A H 0.2500 0.0830 -0.2500
C14C C 0.1798(7) 0.3561(4) -0.2948(9)
C14A C 0.1798(7) 0.1439(4) -0.2052(9)
C14B C 0.3202(7) 0.1439(4) -0.2948(9)
N1C N 0.1797(5) 0.3041(3) -0.2984(8)
N1A N 0.1797(5) 0.1959(3) -0.2016(8)
N1B N 0.3203(5) 0.1959(3) -0.2984(8)
C16A C 0.2500 0.2214(4) -0.2500
O12 O 0.1149(5) 0.6084(2) -0.1738(6)
O14 O -0.1940(6) 0.3907(5) -0.1351(9)
O15 O -0.2500 0.3289(6) -0.2500
O16 O 0.2500 0.2500 0.2500
O17 O 0.3311(7) 0.3079(4) 0.1490(12)
O18 O -0.2500 0.3477(7) -0.7500
S1 S 0.20000(11) 0.47569(8) -0.60367(14)
S2 S -0.00513(10) 0.49221(6) -0.18742(14)
S3 S -0.09436(14) 0.34976(7) -0.52271(18)
S4 S 0.07304(17) 0.31185(8) 0.0284(2)
Na1 Na -0.0542(3) 0.2500 -0.7500
O1 O 0.1498(3) 0.51274(17) -0.3497(4)
H1 H 0.1833 0.5239 -0.4024
O2 O 0.1707(3) 0.52641(17) -0.0589(4)
H2 H 0.1694 0.5328 -0.1311
O3 O -0.0440(5) 0.3189(2) -0.6030(6)
O4 O -0.1734(4) 0.3739(3) -0.5740(7)
O8 O -0.1218(5) 0.3240(3) -0.4117(6)
C1 C 0.0946(4) 0.4766(2) -0.3957(5)
C2 C 0.1105(4) 0.4538(2) -0.5082(5)
C3 C 0.0526(4) 0.4154(3) -0.5485(6)
H3 H 0.0630 0.4000 -0.6225
C4 C -0.0208(4) 0.4003(2) -0.4779(6)
C5 C -0.0377(4) 0.4240(2) -0.3683(6)
H4 H -0.0875 0.4143 -0.3220
C6 C 0.0200(4) 0.4619(2) -0.3281(5)
C7 C 0.1459(4) 0.4785(3) -0.0414(5)
C8 C 0.0673(4) 0.4562(3) -0.0905(5)
C9 C 0.0472(5) 0.4068(3) -0.0655(6)
H5 H -0.0054 0.3927 -0.0978
C10 C 0.1023(5) 0.3772(3) 0.0060(7)
C11 C 0.1794(5) 0.3982(3) 0.0572(6)
H6 H 0.2157 0.3788 0.1080
C12 C 0.2978(4) 0.4477(3) -0.5329(5)
O9 O 0.1467(7) 0.2827(3) -0.0040(10)
O10 O -0.0050(8) 0.3038(4) -0.0530(11)
O11 O 0.0396(6) 0.3090(3) 0.1469(8)
O13 O -0.1794(5) 0.2838(3) -0.8724(10)
S1C S 0.30000(11) 0.47569(8) 0.10367(14)
S1B S 0.20000(11) 0.02431(8) -0.89633(14)
S1A S 0.30000(11) 0.02431(8) -1.60367(14)
S2C S 0.50513(10) 0.49221(6) -0.31258(14)
S2B S -0.00513(10) 0.00779(6) -1.31258(14)
S2A S 0.50513(10) 0.00779(6) -1.18742(14)
S3C S 0.59436(14) 0.34976(7) 0.02271(18)
S3B S -0.09436(14) 0.15024(7) -0.97729(18)
S3A S 0.59436(14) 0.15024(7) -1.52271(18)
S4C S 0.42696(17) 0.31185(8) -0.5284(2)
S4B S 0.07304(17) 0.18815(8) -1.5284(2)
S4A S 0.42696(17) 0.18815(8) -0.9716(2)
Na1A Na 0.5542(3) 0.2500 0.2500
Na1_2 Na -0.0542(3) 0.2500 0.2500
Na1A_2 Na 0.5542(3) 0.2500 -0.7500
Na1_3 Na -0.0542(3) 0.2500 -1.7500
Na1A_3 Na 0.5542(3) 0.2500 -1.7500
O1C O 0.3502(3) 0.51274(17) -0.1503(4)
O1B O 0.1498(3) -0.01274(17) -1.1503(4)
O1A O 0.3502(3) -0.01274(17) -1.3497(4)
H1C H 0.3167 0.5239 -0.0976
H1B H 0.1833 -0.0239 -1.0976
H1A H 0.3167 -0.0239 -1.4024
O2C O 0.3293(3) 0.52641(17) -0.4411(4)
O2B O 0.1707(3) -0.02641(17) -1.4411(4)
O2A O 0.3293(3) -0.02641(17) -1.0589(4)
H2C H 0.3306 0.5328 -0.3689
H2B H 0.1694 -0.0328 -1.3689
H2A H 0.3306 -0.0328 -1.1311
O3C O 0.5440(5) 0.3189(2) 0.1030(6)
O3B O -0.0440(5) 0.1811(2) -0.8970(6)
O3A O 0.5440(5) 0.1811(2) -1.6030(6)
O3A_2 O 0.5440(5) 0.1811(2) 0.3970(6)
O4C O 0.6734(4) 0.3739(3) 0.0740(7)
O4B O -0.1734(4) 0.1261(3) -0.9260(7)
O4A O 0.6734(4) 0.1261(3) -1.5740(7)
O8C O 0.6218(5) 0.3240(3) -0.0883(6)
O8B O -0.1218(5) 0.1760(3) -1.0883(6)
O8A O 0.6218(5) 0.1760(3) -1.4117(6)
C1C C 0.4054(4) 0.4766(2) -0.1043(5)
C1B C 0.0946(4) 0.0234(2) -1.1043(5)
C1A C 0.4054(4) 0.0234(2) -1.3957(5)
C2C C 0.3895(4) 0.4538(2) 0.0082(5)
C2B C 0.1105(4) 0.0462(2) -0.9918(5)
C2A C 0.3895(4) 0.0462(2) -1.5082(5)
C3C C 0.4474(4) 0.4154(3) 0.0485(6)
C3B C 0.0526(4) 0.0846(3) -0.9515(6)
C3A C 0.4474(4) 0.0846(3) -1.5485(6)
H3C H 0.4370 0.4000 0.1225
H3B H 0.0630 0.1000 -0.8775
H3A H 0.4370 0.1000 -1.6225
C4C C 0.5208(4) 0.4003(2) -0.0221(6)
C4B C -0.0208(4) 0.0997(2) -1.0221(6)
C4A C 0.5208(4) 0.0997(2) -1.4779(6)
C5C C 0.5377(4) 0.4240(2) -0.1317(6)
C5B C -0.0377(4) 0.0760(2) -1.1317(6)
C5A C 0.5377(4) 0.0760(2) -1.3683(6)
H4C H 0.5875 0.4143 -0.1780
H4B H -0.0875 0.0857 -1.1780
H4A H 0.5875 0.0857 -1.3220
C6C C 0.4800(4) 0.4619(2) -0.1719(5)
C6B C 0.0200(4) 0.0381(2) -1.1719(5)
C6A C 0.4800(4) 0.0381(2) -1.3281(5)
C7C C 0.3541(4) 0.4785(3) -0.4586(5)
C7B C 0.1459(4) 0.0215(3) -1.4586(5)
C7A C 0.3541(4) 0.0215(3) -1.0414(5)
C8C C 0.4327(4) 0.4562(3) -0.4095(5)
C8B C 0.0673(4) 0.0438(3) -1.4095(5)
C8A C 0.4327(4) 0.0438(3) -1.0905(5)
C9C C 0.4528(5) 0.4068(3) -0.4345(6)
C9B C 0.0472(5) 0.0932(3) -1.4345(6)
C9A C 0.4528(5) 0.0932(3) -1.0655(6)
H5C H 0.5054 0.3927 -0.4022
H5B H -0.0054 0.1073 -1.4022
H5A H 0.5054 0.1073 -1.0978
C10C C 0.3977(5) 0.3772(3) -0.5060(7)
C10B C 0.1023(5) 0.1228(3) -1.5060(7)
C10A C 0.3977(5) 0.1228(3) -0.9940(7)
C11C C 0.3206(5) 0.3982(3) -0.5572(6)
C11B C 0.1794(5) 0.1018(3) -1.5572(6)
C11A C 0.3206(5) 0.1018(3) -0.9428(6)
H6C H 0.2843 0.3788 -0.6080
H6B H 0.2157 0.1212 -1.6080
H6A H 0.2843 0.1212 -0.8920
C12C C 0.2022(4) 0.4477(3) 0.0329(5)
C12B C 0.2978(4) 0.0523(3) -0.9671(5)
C12A C 0.2022(4) 0.0523(3) -1.5329(5)
O9C O 0.3533(7) 0.2827(3) -0.4960(10)
O9B O 0.1467(7) 0.2173(3) -1.4960(10)
O9A O 0.3533(7) 0.2173(3) -1.0040(10)
O10C O 0.5050(8) 0.3038(4) -0.4470(11)
O10B O -0.0050(8) 0.1962(4) -1.4470(11)
O10A O 0.5050(8) 0.1962(4) -1.0530(11)
O11C O 0.4604(6) 0.3090(3) -0.6469(8)
O11B O 0.0396(6) 0.1910(3) -1.6469(8)
O11A O 0.4604(6) 0.1910(3) -0.8531(8)
O11_2 O 0.0396(6) 0.3090(3) -0.8531(8)
O11B_2 O 0.0396(6) 0.1910(3) -0.6469(8)
O11A_2 O 0.4604(6) 0.1910(3) 0.1469(8)
O11C_2 O 0.4604(6) 0.3090(3) 0.3531(8)
O13B O -0.1794(5) 0.2162(3) -0.6276(10)
O13C O 0.6794(5) 0.2838(3) 0.3724(10)
O13A O 0.6794(5) 0.2162(3) 0.1276(10)
O5? O 0.086(2) 0.2886(14) -0.074(3)
O6? O -0.0098(15) 0.3063(8) 0.064(2)
O7? O 0.132(3) 0.297(3) 0.108(3)
C15? C 0.3203(5) 0.3041(3) -0.2016(8)
loop_
_geom_bond_atom_site_label_1
_geom_bond_atom_site_label_2
_geom_bond_site_symmetry_1
_geom_bond_site_symmetry_2
S1 C2 1_555 1_555
S2 C6 1_555 1_555
S3 O3 1_555 1_555
S4 C10 1_555 1_555
Na1 O3 1_555 1_555
O1 H1 1_555 1_555
O2 H2 1_555 1_555
O4 S3 1_555 1_555
O8 S3 1_555 1_555
C1 O1 1_555 1_555
C2 C1 1_555 1_555
C3 C2 1_555 1_555
H3 C3 1_555 1_555
C4 S3 1_555 1_555
C5 C4 1_555 1_555
H4 C5 1_555 1_555
C6 C1 1_555 1_555
C7 O2 1_555 1_555
C8 S2 1_555 1_555
C9 C8 1_555 1_555
H5 C9 1_555 1_555
C10 C9 1_555 1_555
C11 C10 1_555 1_555
H6 C11 1_555 1_555
C12 S1 1_555 1_555
C13 H7 1_555 1_555
C14 C13 1_555 1_555
N1 C14 1_555 1_555
C16 N1 1_555 1_555
O9 S4 1_555 1_555
O10 S4 1_555 1_555
O11 S4 1_555 1_555
O13 Na1 1_555 1_555
S1C C2C 1_555 1_555
S1B C2B 1_555 1_555
S1A C2A 1_555 1_555
S2C C6C 1_555 1_555
S2B C6B 1_555 1_555
S2A C6A 1_555 1_555
S3C O3C 1_555 1_555
S3B O3B 1_555 1_555
S3A O3A 1_555 1_555
S4C C10C 1_555 1_555
S4B C10B 1_555 1_555
S4A C10A 1_555 1_555
Na1A O3C 1_555 1_555
Na1_2 O11 1_555 1_555
Na1A_2 O11C 1_555 1_555
Na1_3 O11B 1_555 1_555
Na1A_3 O3A 1_555 1_555
O1C H1C 1_555 1_555
O1B H1B 1_555 1_555
O1A H1A 1_555 1_555
O2C H2C 1_555 1_555
O2B H2B 1_555 1_555
O2A H2A 1_555 1_555
O3B Na1 1_555 1_555
O3A_2 Na1A 1_555 1_555
O4C S3C 1_555 1_555
O4B S3B 1_555 1_555
O4A S3A 1_555 1_555
O8C S3C 1_555 1_555
O8B S3B 1_555 1_555
O8A S3A 1_555 1_555
C1C O1C 1_555 1_555
C1B O1B 1_555 1_555
C1A O1A 1_555 1_555
C2C C1C 1_555 1_555
C2B C1B 1_555 1_555
C2A C1A 1_555 1_555
C3C C2C 1_555 1_555
C3B C2B 1_555 1_555
C3A C2A 1_555 1_555
H3C C3C 1_555 1_555
H3B C3B 1_555 1_555
H3A C3A 1_555 1_555
C4C S3C 1_555 1_555
C4B S3B 1_555 1_555
C4A S3A 1_555 1_555
C5C C4C 1_555 1_555
C5B C4B 1_555 1_555
C5A C4A 1_555 1_555
H4C C5C 1_555 1_555
H4B C5B 1_555 1_555
H4A C5A 1_555 1_555
C6C C1C 1_555 1_555
C6B C1B 1_555 1_555
C6A C1A 1_555 1_555
C7C C12 1_555 1_555
C7B O2B 1_555 1_555
C7A O2A 1_555 1_555
C8C S2C 1_555 1_555
C8B S2B 1_555 1_555
C8A S2A 1_555 1_555
C9C C8C 1_555 1_555
C9B C8B 1_555 1_555
C9A C8A 1_555 1_555
H5C C9C 1_555 1_555
H5B C9B 1_555 1_555
H5A C9A 1_555 1_555
C10C C9C 1_555 1_555
C10B C9B 1_555 1_555
C10A C9A 1_555 1_555
C11C C12 1_555 1_555
C11B C10B 1_555 1_555
C11A C10A 1_555 1_555
H6C C11C 1_555 1_555
H6B C11B 1_555 1_555
H6A C11A 1_555 1_555
C12C C7 1_555 1_555
C12B S1B 1_555 1_555
C12A S1A 1_555 1_555
C13A H7A 1_555 1_555
C14C C13 1_555 1_555
C14A C13A 1_555 1_555
C14B C13A 1_555 1_555
N1C C16 1_555 1_555
N1A C14A 1_555 1_555
N1B C14B 1_555 1_555
C16A C16 1_555 1_555
O9C S4C 1_555 1_555
O9B S4B 1_555 1_555
O9A S4A 1_555 1_555
O10C S4C 1_555 1_555
O10B S4B 1_555 1_555
O10A S4A 1_555 1_555
O11C S4C 1_555 1_555
O11B S4B 1_555 1_555
O11A S4A 1_555 1_555
O11_2 Na1 1_555 1_555
O11B_2 Na1 1_555 1_555
O11A_2 Na1A 1_555 1_555
O11C_2 Na1A 1_555 1_555
O13B Na1 1_555 1_555
O13C Na1A 1_555 1_555
O13A Na1A 1_555 1_555
C3 C4 1_555 1_555
C5 C6 1_555 1_555
C7 C8 1_555 1_555
C11 C12C 1_555 1_555
S1C C12C 1_555 1_555
Na1A_2 O11A 1_555 1_555
O2C C7C 1_555 1_555
C3C C4C 1_555 1_555
C3B C4B 1_555 1_555
C3A C4A 1_555 1_555
C5C C6C 1_555 1_555
C5B C6B 1_555 1_555
C5A C6A 1_555 1_555
C7C C8C 1_555 1_555
C7B C8B 1_555 1_555
C7B C12A 1_555 1_555
C7A C8A 1_555 1_555
C7A C12B 1_555 1_555
C10C C11C 1_555 1_555
C11B C12A 1_555 1_555
C11A C12B 1_555 1_555
C14C N1C 1_555 1_555
N1A C16A 1_555 1_555
N1B C16A 1_555 1_555

#END
