
#######################################################################
#
#                 Cambridge Crystallographic Data Centre
#                                CCDC 
#
#######################################################################
#
# If this CIF has been generated from an entry in the Cambridge 
# Structural Database, then it will include bibliographic, chemical, 
# crystal, experimental, refinement or atomic coordinate data resulting 
# from the CCDC's data processing and validation procedures.
#
#######################################################################

data_SEGZOU
_symmetry_cell_setting           triclinic
_symmetry_space_group_name_H-M   'P -1'
_symmetry_Int_Tables_number      2
_space_group_name_Hall           '-P 1'
loop_
_symmetry_equiv_pos_site_id
_symmetry_equiv_pos_as_xyz
1 x,y,z
2 -x,-y,-z
_cell_length_a                   10.2277(17)
_cell_length_b                   13.053(2)
_cell_length_c                   13.677(2)
_cell_angle_alpha                72.596(3)
_cell_angle_beta                 73.094(3)
_cell_angle_gamma                87.946(3)
_cell_volume                     1664.4
loop_
_atom_site_label
_atom_site_type_symbol
_atom_site_fract_x
_atom_site_fract_y
_atom_site_fract_z
Ni1 Ni 0.37051(4) 0.17777(3) 0.00427(3)
O1 O 0.4540(3) 0.3901(3) -0.5597(2)
O2 O 0.7548(3) 0.1252(2) -0.4941(2)
O3 O -0.0041(3) 0.3646(3) 0.4340(2)
O4 O 0.2731(3) 0.1066(2) 0.5616(2)
O5 O 0.5093(2) 0.31040(18) -0.03163(18)
O6 O 0.5773(2) 0.14596(18) 0.01453(18)
O7 O 1.0584(3) 0.1036(2) 0.0463(2)
O8 O 1.2006(2) 0.24955(19) -0.02008(19)
O9 O 0.2903(2) 0.02201(18) 0.05832(18)
H1 H 0.2001 0.0327 0.0499
H2 H 0.3151 -0.0193 0.0195
N1 N 0.4377(3) 0.1926(2) -0.1611(2)
N2 N 0.5502(3) 0.3270(3) -0.5743(2)
N3 N 0.6881(3) 0.1965(2) -0.5429(2)
N4 N 0.3026(3) 0.1907(2) 0.1613(2)
N5 N 0.0502(3) 0.2977(3) 0.4970(2)
N6 N 0.1759(3) 0.1701(3) 0.5588(2)
C1 C 0.4696(4) 0.1119(3) -0.2040(3)
H3 H 0.4604 0.0419 -0.1582
C2 C 0.5152(4) 0.1279(3) -0.3123(3)
H4 H 0.5361 0.0696 -0.3388
C3 C 0.5302(4) 0.2315(3) -0.3822(3)
C4 C 0.4950(4) 0.3158(3) -0.3388(3)
H5 H 0.5016 0.3863 -0.3830
C5 C 0.4500(4) 0.2928(3) -0.2290(3)
H6 H 0.4270 0.3495 -0.2003
C6 C 0.5867(4) 0.2509(3) -0.4975(3)
C7 C 0.7106(4) 0.2258(3) -0.6616(3)
C8 C 0.8622(5) 0.2261(4) -0.7187(3)
H7 H 0.9129 0.2714 -0.6971
H8 H 0.8773 0.2528 -0.7948
H9 H 0.8922 0.1541 -0.7003
C9 C 0.6289(5) 0.1394(4) -0.6772(4)
H10 H 0.6606 0.0700 -0.6483
H11 H 0.6411 0.1525 -0.7523
H12 H 0.5336 0.1413 -0.6408
C10 C 0.6493(4) 0.3375(3) -0.6824(3)
C11 C 0.5737(5) 0.3642(4) -0.7668(3)
H13 H 0.5059 0.3076 -0.7501
H14 H 0.6375 0.3712 -0.8359
H15 H 0.5299 0.4306 -0.7677
C12 C 0.7512(5) 0.4289(3) -0.7023(4)
H16 H 0.7034 0.4931 -0.6996
H17 H 0.8167 0.4409 -0.7716
H18 H 0.7977 0.4103 -0.6482
C13 C 0.2666(4) 0.2870(3) 0.1730(3)
H19 H 0.2763 0.3450 0.1116
C14 C 0.2162(4) 0.3046(3) 0.2708(3)
H20 H 0.1913 0.3727 0.2750
C15 C 0.2029(4) 0.2193(3) 0.3635(3)
C16 C 0.2423(4) 0.1195(3) 0.3514(3)
H21 H 0.2369 0.0605 0.4111
C17 C 0.2890(4) 0.1094(3) 0.2501(3)
H22 H 0.3125 0.0419 0.2433
C18 C 0.1462(4) 0.2307(3) 0.4698(3)
C19 C 0.0201(4) 0.2911(3) 0.6131(3)
C20 C 0.1069(5) 0.3812(4) 0.6165(4)
H23 H 0.2020 0.3692 0.5898
H24 H 0.0872 0.3827 0.6891
H25 H 0.0863 0.4487 0.5729
C21 C -0.1299(5) 0.3058(5) 0.6581(4)
H26 H -0.1506 0.3778 0.6247
H27 H -0.1516 0.2934 0.7340
H28 H -0.1832 0.2556 0.6443
C22 C 0.0694(4) 0.1782(3) 0.6572(3)
C23 C -0.0378(5) 0.0877(4) 0.6840(4)
H29 H -0.0758 0.0986 0.6255
H30 H -0.1093 0.0877 0.7476
H31 H 0.0043 0.0199 0.6958
C24 C 0.1304(5) 0.1624(4) 0.7486(3)
H32 H 0.1670 0.0926 0.7641
H33 H 0.0606 0.1680 0.8110
H34 H 0.2022 0.2167 0.7288
C25 C 0.6013(3) 0.2472(3) -0.0149(2)
C26 C 0.7408(3) 0.2931(3) -0.0298(3)
C27 C 0.7658(4) 0.4037(3) -0.0694(3)
H35 H 0.6971 0.4478 -0.0862
C28 C 0.8934(4) 0.4483(3) -0.0838(4)
H36 H 0.9103 0.5225 -0.1099
C29 C 0.9951(4) 0.3829(3) -0.0595(3)
H37 H 1.0806 0.4134 -0.0696
C30 C 0.9721(3) 0.2724(3) -0.0202(3)
C31 C 0.8441(3) 0.2276(3) -0.0056(3)
H38 H 0.8276 0.1534 0.0205
C32 C 1.0849(3) 0.2018(3) 0.0049(3)
Ni1_2 Ni 1.37051(4) 0.17777(3) 0.00427(3)
O8_2 O 0.2006(2) 0.24955(19) -0.02008(19)
loop_
_geom_bond_atom_site_label_1
_geom_bond_atom_site_label_2
_geom_bond_site_symmetry_1
_geom_bond_site_symmetry_2
Ni1 O5 1_555 1_555
O1 N2 1_555 1_555
O2 N3 1_555 1_555
O3 N5 1_555 1_555
O4 N6 1_555 1_555
O5 C25 1_555 1_555
O6 Ni1 1_555 1_555
O7 C32 1_555 1_555
O8 C32 1_555 1_555
O9 Ni1 1_555 1_555
H1 O9 1_555 1_555
H2 O9 1_555 1_555
N1 Ni1 1_555 1_555
N2 C6 1_555 1_555
N3 C6 1_555 1_555
N4 Ni1 1_555 1_555
N5 C18 1_555 1_555
N6 C18 1_555 1_555
C1 N1 1_555 1_555
H3 C1 1_555 1_555
C2 C1 1_555 1_555
H4 C2 1_555 1_555
C3 C2 1_555 1_555
C4 C3 1_555 1_555
H5 C4 1_555 1_555
C5 N1 1_555 1_555
H6 C5 1_555 1_555
C6 C3 1_555 1_555
C7 N3 1_555 1_555
C8 C7 1_555 1_555
H7 C8 1_555 1_555
H8 C8 1_555 1_555
H9 C8 1_555 1_555
C9 C7 1_555 1_555
H10 C9 1_555 1_555
H11 C9 1_555 1_555
H12 C9 1_555 1_555
C10 N2 1_555 1_555
C11 C10 1_555 1_555
H13 C11 1_555 1_555
H14 C11 1_555 1_555
H15 C11 1_555 1_555
C12 C10 1_555 1_555
H16 C12 1_555 1_555
H17 C12 1_555 1_555
H18 C12 1_555 1_555
C13 N4 1_555 1_555
H19 C13 1_555 1_555
C14 C13 1_555 1_555
H20 C14 1_555 1_555
C15 C14 1_555 1_555
C16 C15 1_555 1_555
H21 C16 1_555 1_555
C17 N4 1_555 1_555
H22 C17 1_555 1_555
C18 C15 1_555 1_555
C19 N5 1_555 1_555
C20 C19 1_555 1_555
H23 C20 1_555 1_555
H24 C20 1_555 1_555
H25 C20 1_555 1_555
C21 C19 1_555 1_555
H26 C21 1_555 1_555
H27 C21 1_555 1_555
H28 C21 1_555 1_555
C22 N6 1_555 1_555
C23 C22 1_555 1_555
H29 C23 1_555 1_555
H30 C23 1_555 1_555
H31 C23 1_555 1_555
C24 C22 1_555 1_555
H32 C24 1_555 1_555
H33 C24 1_555 1_555
H34 C24 1_555 1_555
C25 O6 1_555 1_555
C26 C25 1_555 1_555
C27 C26 1_555 1_555
H35 C27 1_555 1_555
C28 C27 1_555 1_555
H36 C28 1_555 1_555
C29 C28 1_555 1_555
H37 C29 1_555 1_555
C30 C29 1_555 1_555
C31 C26 1_555 1_555
H38 C31 1_555 1_555
C32 C30 1_555 1_555
Ni1_2 O8 1_555 1_555
O8_2 Ni1 1_555 1_555
C4 C5 1_555 1_555
C7 C10 1_555 1_555
C16 C17 1_555 1_555
C19 C22 1_555 1_555
C30 C31 1_555 1_555

#END
