
#######################################################################
#
#                 Cambridge Crystallographic Data Centre
#                                CCDC 
#
#######################################################################
#
# If this CIF has been generated from an entry in the Cambridge 
# Structural Database, then it will include bibliographic, chemical, 
# crystal, experimental, refinement or atomic coordinate data resulting 
# from the CCDC's data processing and validation procedures.
#
#######################################################################

data_SEHBEN
_symmetry_cell_setting           monoclinic
_symmetry_space_group_name_H-M   'C 2/c'
_symmetry_Int_Tables_number      15
_space_group_name_Hall           '-C 2yn'
loop_
_symmetry_equiv_pos_site_id
_symmetry_equiv_pos_as_xyz
1 x,y,z
2 1/2+x,1/2+y,z
3 -x,y,1/2-z
4 1/2-x,1/2+y,1/2-z
5 -x,-y,-z
6 1/2-x,1/2-y,-z
7 x,-y,1/2+z
8 1/2+x,1/2-y,1/2+z
_cell_length_a                   27.7490(18)
_cell_length_b                   8.5517(16)
_cell_length_c                   12.9344(18)
_cell_angle_alpha                90
_cell_angle_beta                 114.571(4)
_cell_angle_gamma                90
_cell_volume                     2791.41
loop_
_atom_site_label
_atom_site_type_symbol
_atom_site_fract_x
_atom_site_fract_y
_atom_site_fract_z
C1 C 0.38793(11) 0.2727(3) 0.1034(2)
C2 C 0.33910(11) 0.1680(3) 0.0573(2)
C3 C 0.31631(11) 0.1612(4) -0.0593(2)
C4 C 0.27185(13) 0.0723(4) -0.1192(3)
H1 H 0.2568 0.0685 -0.1982
C5 C 0.25086(14) -0.0109(4) -0.0559(4)
H2 H 0.2208 -0.0717 -0.0934
C6 C 0.27298(16) -0.0062(4) 0.0593(4)
H3 H 0.2578 -0.0638 0.0991
C7 C 0.31794(14) 0.0831(4) 0.1194(3)
H4 H 0.3332 0.0856 0.1984
C8 C 0.48910(14) 0.7972(3) -0.0001(3)
H5 H 0.4687 0.8306 -0.0779
H6 H 0.5215 0.8580 0.0319
C9 C 0.45720(14) 0.8174(4) 0.0699(3)
H7 H 0.4803 0.8067 0.1501
H8 H 0.4417 0.9212 0.0577
C10 C 0.37208(16) 0.7346(5) -0.0742(3)
H9 H 0.3452 0.6555 -0.0935
H10 H 0.3860 0.7370 -0.1309
H11 H 0.3570 0.8346 -0.0710
C11 C 0.39387(17) 0.6960(5) 0.1247(4)
H12 H 0.3661 0.6196 0.1046
H13 H 0.3800 0.7973 0.1296
H14 H 0.4218 0.6693 0.1968
Cu1 Cu 0.451464(13) 0.49727(4) 0.02514(3)
N1 N 0.39565(9) 0.3397(3) 0.01377(19)
N2 N 0.41495(10) 0.6988(3) 0.0369(2)
O1 O 0.41189(10) 0.3006(3) 0.20085(19)
O2 O 0.38078(12) 0.1695(4) -0.1585(2)
O3 O 0.32546(12) 0.3943(4) -0.1809(2)
O4 O 0.50055(8) 0.6366(2) 0.0041(2)
O5 O 0.5000 0.4793(4) 0.2500
S1 S 0.35456(3) 0.27210(11) -0.11000(6)
H15 H 0.4784(16) 0.429(5) 0.252(4)
C1D C 0.61207(11) 0.7273(3) -0.1034(2)
C2D C 0.66090(11) 0.8320(3) -0.0573(2)
C3D C 0.68369(11) 0.8388(4) 0.0593(2)
C4D C 0.72815(13) 0.9277(4) 0.1192(3)
H1D H 0.7432 0.9315 0.1982
C5D C 0.74914(14) 1.0109(4) 0.0559(4)
H2D H 0.7792 1.0717 0.0934
C6D C 0.72702(16) 1.0062(4) -0.0593(4)
H3D H 0.7422 1.0638 -0.0991
C7D C 0.68206(14) 0.9169(4) -0.1194(3)
H4D H 0.6668 0.9144 -0.1984
C8D C 0.51090(14) 0.2028(3) 0.0001(3)
H5D H 0.5313 0.1694 0.0779
H6D H 0.4785 0.1420 -0.0319
C9D C 0.54280(14) 0.1826(4) -0.0699(3)
H7D H 0.5197 0.1933 -0.1501
H8D H 0.5583 0.0788 -0.0577
C10D C 0.62792(16) 0.2654(5) 0.0742(3)
H9D H 0.6548 0.3445 0.0935
H10D H 0.6140 0.2630 0.1309
H11D H 0.6430 0.1654 0.0710
C11D C 0.60613(17) 0.3040(5) -0.1247(4)
H12D H 0.6339 0.3804 -0.1046
H13D H 0.6200 0.2027 -0.1296
H14D H 0.5782 0.3307 -0.1968
Cu1D Cu 0.548536(13) 0.50273(4) -0.02514(3)
Cu1B Cu 0.548536(13) 0.49727(4) 0.47486(3)
N1D N 0.60435(9) 0.6603(3) -0.01377(19)
N2D N 0.58505(10) 0.3012(3) -0.0369(2)
O1D O 0.58811(10) 0.6994(3) -0.20085(19)
O2D O 0.61922(12) 0.8305(4) 0.1585(2)
O3D O 0.67454(12) 0.6057(4) 0.1809(2)
O4D O 0.49945(8) 0.3634(2) -0.0041(2)
O5F O 0.5000 0.5207(4) -0.2500
S1D S 0.64544(3) 0.72790(11) 0.11000(6)
H15B H 0.5216(16) 0.429(5) 0.248(4)
H15F H 0.4784(16) 0.571(5) -0.248(4)
H15D H 0.5216(16) 0.571(5) -0.252(4)
loop_
_geom_bond_atom_site_label_1
_geom_bond_atom_site_label_2
_geom_bond_site_symmetry_1
_geom_bond_site_symmetry_2
C1 C2 1_555 1_555
C2 C3 1_555 1_555
C3 C4 1_555 1_555
C4 H1 1_555 1_555
C5 C4 1_555 1_555
H2 C5 1_555 1_555
C6 C5 1_555 1_555
H3 C6 1_555 1_555
C7 C2 1_555 1_555
H4 C7 1_555 1_555
C8 H5 1_555 1_555
H6 C8 1_555 1_555
C9 C8 1_555 1_555
H7 C9 1_555 1_555
H8 C9 1_555 1_555
C10 H9 1_555 1_555
H10 C10 1_555 1_555
H11 C10 1_555 1_555
C11 H12 1_555 1_555
H13 C11 1_555 1_555
H14 C11 1_555 1_555
Cu1 N1 1_555 1_555
N1 C1 1_555 1_555
N2 C9 1_555 1_555
O1 C1 1_555 1_555
O2 S1 1_555 1_555
O3 S1 1_555 1_555
O4 C8 1_555 1_555
O5 Cu1 1_555 1_555
S1 C3 1_555 1_555
H15 O5 1_555 1_555
C1D C2D 1_555 1_555
C2D C3D 1_555 1_555
C3D C4D 1_555 1_555
C4D H1D 1_555 1_555
C5D C4D 1_555 1_555
H2D C5D 1_555 1_555
C6D C5D 1_555 1_555
H3D C6D 1_555 1_555
C7D C2D 1_555 1_555
H4D C7D 1_555 1_555
C8D H5D 1_555 1_555
H6D C8D 1_555 1_555
C9D C8D 1_555 1_555
H7D C9D 1_555 1_555
H8D C9D 1_555 1_555
C10D H9D 1_555 1_555
H10D C10D 1_555 1_555
H11D C10D 1_555 1_555
C11D H12D 1_555 1_555
H13D C11D 1_555 1_555
H14D C11D 1_555 1_555
Cu1D Cu1 1_555 1_555
Cu1B O5 1_555 1_555
N1D C1D 1_555 1_555
N2D C9D 1_555 1_555
O1D C1D 1_555 1_555
O2D S1D 1_555 1_555
O3D S1D 1_555 1_555
O4D Cu1 1_555 1_555
O5F Cu1D 1_555 1_555
S1D C3D 1_555 1_555
H15B O5 1_555 1_555
H15F O5F 1_555 1_555
H15D O5F 1_555 1_555
C6 C7 1_555 1_555
C10 N2 1_555 1_555
C11 N2 1_555 1_555
Cu1 N2 1_555 1_555
Cu1 O4 1_555 1_555
N1 S1 1_555 1_555
O4 Cu1D 1_555 1_555
C6D C7D 1_555 1_555
C8D O4D 1_555 1_555
C10D N2D 1_555 1_555
C11D N2D 1_555 1_555
Cu1D N1D 1_555 1_555
Cu1D N2D 1_555 1_555
Cu1D O4D 1_555 1_555
N1D S1D 1_555 1_555

#END
