
#######################################################################
#
#                 Cambridge Crystallographic Data Centre
#                                CCDC 
#
#######################################################################
#
# If this CIF has been generated from an entry in the Cambridge 
# Structural Database, then it will include bibliographic, chemical, 
# crystal, experimental, refinement or atomic coordinate data resulting 
# from the CCDC's data processing and validation procedures.
#
#######################################################################

data_SEHCUF
_symmetry_cell_setting           orthorhombic
_symmetry_space_group_name_H-M   'P 21 21 21'
_symmetry_Int_Tables_number      19
_space_group_name_Hall           'P 2ac 2ab'
loop_
_symmetry_equiv_pos_site_id
_symmetry_equiv_pos_as_xyz
1 x,y,z
2 1/2-x,-y,1/2+z
3 1/2+x,1/2-y,-z
4 -x,1/2+y,1/2-z
_cell_length_a                   6.566(2)
_cell_length_b                   10.457(3)
_cell_length_c                   17.386(5)
_cell_angle_alpha                90
_cell_angle_beta                 90
_cell_angle_gamma                90
_cell_volume                     1193.73
loop_
_atom_site_label
_atom_site_type_symbol
_atom_site_fract_x
_atom_site_fract_y
_atom_site_fract_z
Cu1 Cu 0.20252(8) 0.74064(5) 0.49943(4)
N1 N 0.0518(7) 0.7243(5) 0.3988(2)
N2 N -0.1529(7) 0.7451(4) 0.3995(2)
C1 C -0.2160(9) 0.7426(6) 0.3287(3)
N3 N -0.0582(7) 0.7212(4) 0.2812(2)
C2 C 0.1061(9) 0.7082(5) 0.3269(3)
C3 C -0.0689(11) 0.7120(6) 0.1969(3)
C4 C -0.0033(10) 0.5833(6) 0.1672(3)
C5 C -0.0326(10) 0.5751(6) 0.0809(3)
N4 N -0.2483(8) 0.5707(4) 0.0584(2)
N5 N -0.3415(8) 0.4587(4) 0.0460(3)
N6 N -0.5333(8) 0.4833(5) 0.0298(3)
N7 N -0.5627(9) 0.6144(5) 0.0317(3)
C6 C -0.3862(10) 0.6655(5) 0.0500(3)
O1 O 0.4580(6) 0.6910(4) 0.4560(2)
H1 H 0.478(9) 0.620(3) 0.440(3)
H2 H -0.330(10) 0.752(6) 0.316(3)
H3 H 0.244(10) 0.697(5) 0.312(3)
H4 H -0.198(9) 0.738(5) 0.180(3)
H5 H 0.004(9) 0.773(6) 0.180(3)
H6 H -0.080(9) 0.515(5) 0.194(3)
H7 H 0.158(10) 0.550(5) 0.174(3)
H8 H 0.012(9) 0.502(6) 0.060(3)
H9 H 0.034(9) 0.654(5) 0.050(3)
H10 H -0.345(8) 0.758(5) 0.055(3)
Cu1B Cu -0.29748(8) 0.75936(5) 0.50057(4)
Cu1B_2 Cu 0.70252(8) 0.75936(5) 0.50057(4)
N2B N 0.3471(7) 0.7549(4) 0.6005(2)
O1B O -0.0420(6) 0.8090(4) 0.5440(2)
H1B H -0.022(9) 0.880(3) 0.560(3)
B1 B 0.4252(12) 0.9344(7) 0.1808(4)
F1 F 0.4924(8) 1.0198(4) 0.2346(2)
F2 F 0.5421(7) 0.9436(4) 0.1148(2)
F3 F 0.4345(6) 0.8084(3) 0.20903(19)
F4 F 0.2236(6) 0.9621(3) 0.1620(3)
loop_
_geom_bond_atom_site_label_1
_geom_bond_atom_site_label_2
_geom_bond_site_symmetry_1
_geom_bond_site_symmetry_2
Cu1 N1 1_555 1_555
N1 N2 1_555 1_555
N2 C1 1_555 1_555
C1 N3 1_555 1_555
N3 C2 1_555 1_555
C2 N1 1_555 1_555
C3 N3 1_555 1_555
C4 C3 1_555 1_555
C5 C4 1_555 1_555
N4 C5 1_555 1_555
N5 N4 1_555 1_555
N6 N5 1_555 1_555
N7 N6 1_555 1_555
C6 N4 1_555 1_555
O1 Cu1 1_555 1_555
B1 F1 1_555 1_555
F2 B1 1_555 1_555
F3 B1 1_555 1_555
F4 B1 1_555 1_555
H1 O1 1_555 1_555
H2 C1 1_555 1_555
H3 C2 1_555 1_555
H4 C3 1_555 1_555
H5 C3 1_555 1_555
H6 C4 1_555 1_555
H7 C4 1_555 1_555
H8 C5 1_555 1_555
H9 C5 1_555 1_555
H10 C6 1_555 1_555
Cu1B N2 1_555 1_555
Cu1B_2 O1 1_555 1_555
N2B Cu1 1_555 1_555
O1B Cu1 1_555 1_555
H1B O1B 1_555 1_555
N7 C6 1_555 1_555
Cu1B O1B 1_555 1_555

#END
