
#######################################################################
#
#                 Cambridge Crystallographic Data Centre
#                                CCDC 
#
#######################################################################
#
# If this CIF has been generated from an entry in the Cambridge 
# Structural Database, then it will include bibliographic, chemical, 
# crystal, experimental, refinement or atomic coordinate data resulting 
# from the CCDC's data processing and validation procedures.
#
#######################################################################

data_SEHDUG
_symmetry_cell_setting           monoclinic
_symmetry_space_group_name_H-M   'P 21/n'
_symmetry_Int_Tables_number      14
_space_group_name_Hall           '-P 2yn'
loop_
_symmetry_equiv_pos_site_id
_symmetry_equiv_pos_as_xyz
1 x,y,z
2 1/2-x,1/2+y,1/2-z
3 -x,-y,-z
4 1/2+x,1/2-y,1/2+z
_cell_length_a                   14.7011(10)
_cell_length_b                   6.1430(3)
_cell_length_c                   16.0750(10)
_cell_angle_alpha                90
_cell_angle_beta                 114.201(8)
_cell_angle_gamma                90
_cell_volume                     1324.13
loop_
_atom_site_label
_atom_site_type_symbol
_atom_site_fract_x
_atom_site_fract_y
_atom_site_fract_z
Zn1 Zn 0.66823(3) 0.31389(6) 0.31346(3)
C1 C 0.4556(3) 0.4397(6) 0.6275(2)
C2 C 0.5535(3) 0.3888(6) 0.6243(2)
C3 C 0.6316(3) 0.5373(6) 0.6542(2)
H1 H 0.6230 0.6726 0.6759
C4 C 0.7216(3) 0.4862(6) 0.6519(2)
H2 H 0.7730 0.5877 0.6721
C5 C 0.7370(3) 0.2853(6) 0.6199(2)
C6 C 0.6588(3) 0.1388(6) 0.5905(3)
H3 H 0.6673 0.0035 0.5687
C7 C 0.5692(3) 0.1891(6) 0.5929(3)
H4 H 0.5179 0.0871 0.5731
C8 C 0.8355(3) 0.2270(6) 0.6187(2)
H5 H 0.8831 0.1959 0.6804
H6 H 0.8279 0.0965 0.5825
C9 C 0.9404(3) 0.5505(7) 0.6374(2)
H7 H 0.9649 0.5292 0.7001
C10 C 0.9708(3) 0.7241(7) 0.6047(3)
H8 H 1.0166 0.8219 0.6441
C11 C 0.9331(3) 0.7546(7) 0.5115(3)
H9 H 0.9527 0.8761 0.4886
C12 C 0.8673(2) 0.6104(6) 0.4521(2)
C13 C 0.8345(2) 0.4276(5) 0.4866(2)
C14 C 0.8323(3) 0.6517(5) 0.3521(2)
N1 N 0.8743(2) 0.4059(5) 0.58029(18)
O1 O 0.45527(18) 0.5981(4) 0.67901(17)
O2 O 0.38113(19) 0.3299(4) 0.58185(18)
O3 O 0.77631(18) 0.2813(4) 0.44085(16)
O4 O 0.75340(17) 0.5604(4) 0.29646(15)
O5 O 0.88188(18) 0.7784(4) 0.32667(15)
O6 O 0.6453(2) -0.0194(4) 0.31584(17)
H10 H 0.685(2) -0.079(6) 0.293(2)
H11 H 0.644(3) -0.111(5) 0.359(2)
Zn1B Zn 0.33177(3) 0.68611(6) 0.68654(3)
Zn1A Zn 0.83177(3) 0.81389(6) 0.18654(3)
Zn1C Zn 0.16823(3) 0.18611(6) 0.81346(3)
C1B C 0.5444(3) 0.5603(6) 0.3725(2)
C2B C 0.4465(3) 0.6112(6) 0.3757(2)
C3B C 0.3684(3) 0.4627(6) 0.3458(2)
H1B H 0.3770 0.3274 0.3241
C4B C 0.2784(3) 0.5138(6) 0.3481(2)
H2B H 0.2270 0.4123 0.3279
C5B C 0.2630(3) 0.7147(6) 0.3801(2)
C6B C 0.3412(3) 0.8612(6) 0.4095(3)
H3B H 0.3327 0.9965 0.4313
C7B C 0.4308(3) 0.8109(6) 0.4071(3)
H4B H 0.4821 0.9129 0.4269
C8B C 0.1645(3) 0.7730(6) 0.3813(2)
H5B H 0.1169 0.8041 0.3196
H6B H 0.1721 0.9035 0.4175
C9B C 0.0596(3) 0.4495(7) 0.3626(2)
H7B H 0.0351 0.4708 0.2999
C10B C 0.0292(3) 0.2759(7) 0.3953(3)
H8B H -0.0166 0.1781 0.3559
C11B C 0.0669(3) 0.2454(7) 0.4885(3)
H9B H 0.0473 0.1239 0.5114
C12B C 0.1327(2) 0.3896(6) 0.5479(2)
C13B C 0.1655(2) 0.5724(5) 0.5134(2)
C14B C 0.1677(3) 0.3483(5) 0.6479(2)
N1B N 0.1257(2) 0.5941(5) 0.41971(18)
O1B O 0.54473(18) 0.4019(4) 0.32099(17)
O2B O 0.61887(19) 0.6701(4) 0.41815(18)
O3B O 0.22369(18) 0.7187(4) 0.55915(16)
O4B O 0.24660(17) 0.4396(4) 0.70354(15)
O5B O 0.11812(18) 0.2216(4) 0.67333(15)
O5A O 0.61812(18) 0.2784(4) 0.17333(15)
O5C O 0.38188(18) 0.7216(4) 0.82667(15)
O6B O 0.3547(2) 1.0194(4) 0.68416(17)
H10B H 0.315(2) 1.079(6) 0.707(2)
H11B H 0.356(3) 1.111(5) 0.641(2)
loop_
_geom_bond_atom_site_label_1
_geom_bond_atom_site_label_2
_geom_bond_site_symmetry_1
_geom_bond_site_symmetry_2
Zn1 O3 1_555 1_555
C1 C2 1_555 1_555
C2 C3 1_555 1_555
C3 H1 1_555 1_555
C4 C3 1_555 1_555
H2 C4 1_555 1_555
C5 C4 1_555 1_555
C6 C5 1_555 1_555
H3 C6 1_555 1_555
C7 C2 1_555 1_555
H4 C7 1_555 1_555
C8 C5 1_555 1_555
H5 C8 1_555 1_555
H6 C8 1_555 1_555
C9 H7 1_555 1_555
C10 C9 1_555 1_555
H8 C10 1_555 1_555
C11 C10 1_555 1_555
H9 C11 1_555 1_555
C12 C11 1_555 1_555
C13 C12 1_555 1_555
C14 C12 1_555 1_555
N1 C8 1_555 1_555
O1 C1 1_555 1_555
O2 C1 1_555 1_555
O3 C13 1_555 1_555
O4 Zn1 1_555 1_555
O5 C14 1_555 1_555
O6 Zn1 1_555 1_555
H10 O6 1_555 1_555
H11 O6 1_555 1_555
Zn1B O1 1_555 1_555
Zn1A O5 1_555 1_555
Zn1C O5B 1_555 1_555
C1B C2B 1_555 1_555
C2B C3B 1_555 1_555
C3B H1B 1_555 1_555
C4B C3B 1_555 1_555
H2B C4B 1_555 1_555
C5B C4B 1_555 1_555
C6B C5B 1_555 1_555
H3B C6B 1_555 1_555
C7B C2B 1_555 1_555
H4B C7B 1_555 1_555
C8B C5B 1_555 1_555
H5B C8B 1_555 1_555
H6B C8B 1_555 1_555
C9B H7B 1_555 1_555
C10B C9B 1_555 1_555
H8B C10B 1_555 1_555
C11B C10B 1_555 1_555
H9B C11B 1_555 1_555
C12B C11B 1_555 1_555
C13B C12B 1_555 1_555
C14B C12B 1_555 1_555
N1B C8B 1_555 1_555
O1B Zn1 1_555 1_555
O2B C1B 1_555 1_555
O3B Zn1B 1_555 1_555
O4B Zn1B 1_555 1_555
O5B C14B 1_555 1_555
O5A Zn1 1_555 1_555
O5C Zn1B 1_555 1_555
O6B Zn1B 1_555 1_555
H10B O6B 1_555 1_555
H11B O6B 1_555 1_555
C6 C7 1_555 1_555
C9 N1 1_555 1_555
C13 N1 1_555 1_555
C14 O4 1_555 1_555
C1B O1B 1_555 1_555
C6B C7B 1_555 1_555
C9B N1B 1_555 1_555
C13B N1B 1_555 1_555
C13B O3B 1_555 1_555
C14B O4B 1_555 1_555

#END
