
#######################################################################
#
#                 Cambridge Crystallographic Data Centre
#                                CCDC 
#
#######################################################################
#
# If this CIF has been generated from an entry in the Cambridge 
# Structural Database, then it will include bibliographic, chemical, 
# crystal, experimental, refinement or atomic coordinate data resulting 
# from the CCDC's data processing and validation procedures.
#
#######################################################################

data_SEHDIU
_symmetry_cell_setting           triclinic
_symmetry_space_group_name_H-M   'P -1'
_symmetry_Int_Tables_number      2
_space_group_name_Hall           '-P 1'
loop_
_symmetry_equiv_pos_site_id
_symmetry_equiv_pos_as_xyz
1 x,y,z
2 -x,-y,-z
_cell_length_a                   10.346(2)
_cell_length_b                   11.139(2)
_cell_length_c                   13.478(3)
_cell_angle_alpha                66.01(3)
_cell_angle_beta                 84.96(3)
_cell_angle_gamma                76.27(3)
_cell_volume                     1378.47
loop_
_atom_site_label
_atom_site_type_symbol
_atom_site_fract_x
_atom_site_fract_y
_atom_site_fract_z
Cd1 Cd 0.337162(16) -0.051568(17) 0.428975(14)
O1 O 0.03178(19) 0.1227(2) 0.36051(16)
O2 O 0.3502(2) 0.4470(2) 0.1160(2)
O3 O 0.02526(18) 0.7714(2) 0.39245(19)
O4 O -0.47813(17) 1.05938(19) 0.35399(16)
O5 O 0.18714(18) -0.1937(2) 0.52463(17)
S1 S -0.13726(7) 0.77723(7) 0.01964(5)
N1 N 0.2345(2) 0.1599(2) 0.30391(18)
N2 N 0.3115(2) 0.2486(2) 0.23836(19)
H1 H 0.3961 0.2171 0.2430
N3 N -0.1475(2) 0.9028(3) 0.44148(19)
H2 H -0.0985 0.8950 0.4930
N4 N -0.2773(2) 0.9774(2) 0.43561(18)
N5 N 0.5076(2) -0.2442(2) 0.46570(19)
N6 N 0.3214(2) -0.1437(2) 0.30190(19)
O7 O -0.2483(2) 0.7912(2) -0.04400(18)
O8 O -0.0313(2) 0.8432(2) -0.03199(19)
C1 C 0.0710(3) 0.5614(3) 0.0988(2)
H3 H 0.1257 0.6211 0.0633
C2 C -0.0660(3) 0.6047(3) 0.0900(2)
C3 C -0.1491(3) 0.5132(3) 0.1377(2)
H4 H -0.2405 0.5423 0.1259
C4 C -0.0953(3) 0.3804(3) 0.2018(2)
H5 H -0.1504 0.3201 0.2340
C5 C 0.0433(2) 0.3363(3) 0.2183(2)
C6 C 0.1250(2) 0.4273(3) 0.1615(2)
C7 C 0.1028(2) 0.2006(3) 0.2963(2)
C8 C 0.2711(3) 0.3757(3) 0.1695(2)
C9 C -0.3837(2) 0.9642(3) 0.1870(2)
H6 H -0.4702 1.0158 0.1793
C10 C -0.3336(3) 0.9099(3) 0.1118(2)
H7 H -0.3865 0.9238 0.0541
C11 C -0.2025(3) 0.8337(3) 0.1234(2)
C12 C -0.1228(2) 0.8102(3) 0.2090(2)
H8 H -0.0361 0.7593 0.2159
C13 C -0.1744(2) 0.8643(3) 0.2852(2)
C14 C -0.3046(2) 0.9417(3) 0.2744(2)
C15 C -0.3560(2) 0.9957(2) 0.3568(2)
C16 C -0.0902(2) 0.8419(3) 0.3762(2)
C17 C 0.5989(3) -0.2892(3) 0.5426(3)
H9 H 0.5933 -0.2450 0.5889
C18 C 0.7037(3) -0.4008(3) 0.5572(3)
H10 H 0.7672 -0.4288 0.6114
C19 C 0.7116(3) -0.4681(3) 0.4913(3)
H11 H 0.7792 -0.5439 0.5010
C20 C 0.6156(3) -0.4210(3) 0.4080(3)
C21 C 0.6165(3) -0.4885(3) 0.3366(3)
H12 H 0.6806 -0.5668 0.3463
C22 C 0.5253(3) -0.4398(4) 0.2557(3)
H13 H 0.5285 -0.4838 0.2096
C23 C 0.4236(3) -0.3204(3) 0.2404(3)
C24 C 0.3279(4) -0.2651(4) 0.1573(3)
H14 H 0.3300 -0.3042 0.1079
C25 C 0.2312(3) -0.1534(3) 0.1488(3)
H15 H 0.1664 -0.1170 0.0945
C26 C 0.2314(3) -0.0949(3) 0.2232(3)
H16 H 0.1658 -0.0189 0.2171
C27 C 0.5151(3) -0.3076(3) 0.3975(2)
C28 C 0.4165(3) -0.2545(3) 0.3115(2)
Cd1A Cd -0.337162(16) 1.051568(17) 0.571025(14)
Cd1_2 Cd -0.662838(16) 0.948432(17) 0.428975(14)
Cd1A_2 Cd 0.662838(16) 0.051568(17) 0.571025(14)
O1A O -0.03178(19) 0.8773(2) 0.63949(16)
O2A O -0.3502(2) 0.5530(2) 0.8840(2)
O3A O -0.02526(18) 0.2286(2) 0.60755(19)
O4A O 0.47813(17) -0.05938(19) 0.64601(16)
O4_2 O 0.52187(17) 0.05938(19) 0.35399(16)
O4A_2 O -0.52187(17) 0.94062(19) 0.64601(16)
O5A O -0.18714(18) 1.1937(2) 0.47537(17)
S1A S 0.13726(7) 0.22277(7) 0.98036(5)
N1A N -0.2345(2) 0.8401(2) 0.69609(18)
N2A N -0.3115(2) 0.7514(2) 0.76164(19)
H1A H -0.3961 0.7829 0.7570
N3A N 0.1475(2) 0.0972(3) 0.55852(19)
H2A H 0.0985 0.1050 0.5070
N4A N 0.2773(2) 0.0226(2) 0.56439(18)
N5A N -0.5076(2) 1.2442(2) 0.53430(19)
N6A N -0.3214(2) 1.1437(2) 0.69810(19)
O7A O 0.2483(2) 0.2088(2) 1.04400(18)
O8A O 0.0313(2) 0.1568(2) 1.03199(19)
C1A C -0.0710(3) 0.4386(3) 0.9012(2)
H3A H -0.1257 0.3789 0.9367
C2A C 0.0660(3) 0.3953(3) 0.9100(2)
C3A C 0.1491(3) 0.4868(3) 0.8623(2)
H4A H 0.2405 0.4577 0.8741
C4A C 0.0953(3) 0.6196(3) 0.7982(2)
H5A H 0.1504 0.6799 0.7660
C5A C -0.0433(2) 0.6637(3) 0.7817(2)
C6A C -0.1250(2) 0.5727(3) 0.8385(2)
C7A C -0.1028(2) 0.7994(3) 0.7037(2)
C8A C -0.2711(3) 0.6243(3) 0.8305(2)
C9A C 0.3837(2) 0.0358(3) 0.8130(2)
H6A H 0.4702 -0.0158 0.8207
C10A C 0.3336(3) 0.0901(3) 0.8882(2)
H7A H 0.3865 0.0762 0.9459
C11A C 0.2025(3) 0.1663(3) 0.8766(2)
C12A C 0.1228(2) 0.1898(3) 0.7910(2)
H8A H 0.0361 0.2407 0.7841
C13A C 0.1744(2) 0.1357(3) 0.7148(2)
C14A C 0.3046(2) 0.0583(3) 0.7256(2)
C15A C 0.3560(2) 0.0043(2) 0.6432(2)
C16A C 0.0902(2) 0.1581(3) 0.6238(2)
C17A C -0.5989(3) 1.2892(3) 0.4574(3)
H9A H -0.5933 1.2450 0.4111
C18A C -0.7037(3) 1.4008(3) 0.4428(3)
H10A H -0.7672 1.4288 0.3886
C19A C -0.7116(3) 1.4681(3) 0.5087(3)
H11A H -0.7792 1.5439 0.4990
C20A C -0.6156(3) 1.4210(3) 0.5920(3)
C21A C -0.6165(3) 1.4885(3) 0.6634(3)
H12A H -0.6806 1.5668 0.6537
C22A C -0.5253(3) 1.4398(4) 0.7443(3)
H13A H -0.5285 1.4838 0.7904
C23A C -0.4236(3) 1.3204(3) 0.7596(3)
C24A C -0.3279(4) 1.2651(4) 0.8427(3)
H14A H -0.3300 1.3042 0.8921
C25A C -0.2312(3) 1.1534(3) 0.8512(3)
H15A H -0.1664 1.1170 0.9055
C26A C -0.2314(3) 1.0949(3) 0.7768(3)
H16A H -0.1658 1.0189 0.7829
C27A C -0.5151(3) 1.3076(3) 0.6025(2)
C28A C -0.4165(3) 1.2545(3) 0.6885(2)
O6 O 0.6294(3) 0.3516(4) 0.0987(4)
loop_
_geom_bond_atom_site_label_1
_geom_bond_atom_site_label_2
_geom_bond_site_symmetry_1
_geom_bond_site_symmetry_2
Cd1 O5 1_555 1_555
O1 C7 1_555 1_555
O2 C8 1_555 1_555
O3 C16 1_555 1_555
O4 C15 1_555 1_555
S1 O7 1_555 1_555
N1 Cd1 1_555 1_555
N2 N1 1_555 1_555
H1 N2 1_555 1_555
N3 H2 1_555 1_555
N4 N3 1_555 1_555
N5 Cd1 1_555 1_555
N6 Cd1 1_555 1_555
O8 S1 1_555 1_555
C1 H3 1_555 1_555
C2 S1 1_555 1_555
C3 C2 1_555 1_555
H4 C3 1_555 1_555
C4 C3 1_555 1_555
H5 C4 1_555 1_555
C5 C4 1_555 1_555
C6 C1 1_555 1_555
C7 N1 1_555 1_555
C8 N2 1_555 1_555
C9 H6 1_555 1_555
C10 C9 1_555 1_555
H7 C10 1_555 1_555
C11 S1 1_555 1_555
C12 C11 1_555 1_555
H8 C12 1_555 1_555
C13 C12 1_555 1_555
C14 C9 1_555 1_555
C15 N4 1_555 1_555
C16 N3 1_555 1_555
C17 N5 1_555 1_555
H9 C17 1_555 1_555
C18 C17 1_555 1_555
H10 C18 1_555 1_555
C19 C18 1_555 1_555
H11 C19 1_555 1_555
C20 C19 1_555 1_555
C21 C20 1_555 1_555
H12 C21 1_555 1_555
C22 C21 1_555 1_555
H13 C22 1_555 1_555
C23 C22 1_555 1_555
C24 C23 1_555 1_555
H14 C24 1_555 1_555
C25 C24 1_555 1_555
H15 C25 1_555 1_555
C26 N6 1_555 1_555
H16 C26 1_555 1_555
C27 N5 1_555 1_555
C28 N6 1_555 1_555
Cd1A N4 1_555 1_555
Cd1_2 O4 1_555 1_555
Cd1A_2 O4A 1_555 1_555
O1A C7A 1_555 1_555
O2A C8A 1_555 1_555
O3A C16A 1_555 1_555
O4A C15A 1_555 1_555
O4_2 Cd1 1_555 1_555
O4A_2 Cd1A 1_555 1_555
O5A Cd1A 1_555 1_555
S1A O7A 1_555 1_555
N1A Cd1A 1_555 1_555
N2A N1A 1_555 1_555
H1A N2A 1_555 1_555
N3A H2A 1_555 1_555
N4A Cd1 1_555 1_555
N5A Cd1A 1_555 1_555
N6A Cd1A 1_555 1_555
O8A S1A 1_555 1_555
C1A H3A 1_555 1_555
C2A S1A 1_555 1_555
C3A C2A 1_555 1_555
H4A C3A 1_555 1_555
C4A C3A 1_555 1_555
H5A C4A 1_555 1_555
C5A C4A 1_555 1_555
C6A C1A 1_555 1_555
C7A N1A 1_555 1_555
C8A N2A 1_555 1_555
C9A H6A 1_555 1_555
C10A C9A 1_555 1_555
H7A C10A 1_555 1_555
C11A S1A 1_555 1_555
C12A C11A 1_555 1_555
H8A C12A 1_555 1_555
C13A C12A 1_555 1_555
C14A C9A 1_555 1_555
C15A N4A 1_555 1_555
C16A N3A 1_555 1_555
C17A N5A 1_555 1_555
H9A C17A 1_555 1_555
C18A C17A 1_555 1_555
H10A C18A 1_555 1_555
C19A C18A 1_555 1_555
H11A C19A 1_555 1_555
C20A C19A 1_555 1_555
C21A C20A 1_555 1_555
H12A C21A 1_555 1_555
C22A C21A 1_555 1_555
H13A C22A 1_555 1_555
C23A C22A 1_555 1_555
C24A C23A 1_555 1_555
H14A C24A 1_555 1_555
C25A C24A 1_555 1_555
H15A C25A 1_555 1_555
C26A N6A 1_555 1_555
H16A C26A 1_555 1_555
C27A N5A 1_555 1_555
C28A N6A 1_555 1_555
C1 C2 1_555 1_555
C5 C6 1_555 1_555
C5 C7 1_555 1_555
C6 C8 1_555 1_555
C10 C11 1_555 1_555
C13 C14 1_555 1_555
C13 C16 1_555 1_555
C14 C15 1_555 1_555
C20 C27 1_555 1_555
C23 C28 1_555 1_555
C25 C26 1_555 1_555
C27 C28 1_555 1_555
N3A N4A 1_555 1_555
C1A C2A 1_555 1_555
C5A C6A 1_555 1_555
C5A C7A 1_555 1_555
C6A C8A 1_555 1_555
C10A C11A 1_555 1_555
C13A C14A 1_555 1_555
C13A C16A 1_555 1_555
C14A C15A 1_555 1_555
C20A C27A 1_555 1_555
C23A C28A 1_555 1_555
C25A C26A 1_555 1_555
C27A C28A 1_555 1_555

#END
