
#######################################################################
#
#                 Cambridge Crystallographic Data Centre
#                                CCDC 
#
#######################################################################
#
# If this CIF has been generated from an entry in the Cambridge 
# Structural Database, then it will include bibliographic, chemical, 
# crystal, experimental, refinement or atomic coordinate data resulting 
# from the CCDC's data processing and validation procedures.
#
#######################################################################

data_SEHDOY
_symmetry_cell_setting           monoclinic
_symmetry_space_group_name_H-M   'P 21'
_symmetry_Int_Tables_number      4
_space_group_name_Hall           'P 2yb'
loop_
_symmetry_equiv_pos_site_id
_symmetry_equiv_pos_as_xyz
1 x,y,z
2 -x,1/2+y,-z
_cell_length_a                   7.292(3)
_cell_length_b                   7.420(3)
_cell_length_c                   5.789(2)
_cell_angle_alpha                90
_cell_angle_beta                 95.47(5)
_cell_angle_gamma                90
_cell_volume                     311.797
loop_
_atom_site_label
_atom_site_type_symbol
_atom_site_fract_x
_atom_site_fract_y
_atom_site_fract_z
Pb1 Pb 0.0363(1) 0.2500 0.1458(1)
S1 S -0.2498(14) 0.5019(13) 0.0944(16)
S2 S -0.1111(9) 0.2969(10) -0.3162(11)
C1 C -0.3928(22) 0.4021(25) -0.1316(27)
C2 C -0.3289(21) 0.2897(23) -0.3002(24)
C3 C -0.5762(27) 0.4598(26) -0.1475(28)
C4 C -0.4707(23) 0.2414(27) -0.4808(25)
N1 N -0.7410(19) 0.5013(23) -0.1121(26)
N2 N -0.5886(28) 0.2048(27) -0.6506(28)
S1A S 0.2498(14) 0.0019(13) -0.0944(16)
Pb1A Pb -0.0363(1) 0.7500 -0.1458(1)
Pb1A_2 Pb -0.0363(1) -0.2500 -0.1458(1)
C1A C 0.3928(22) -0.0979(25) 0.1316(27)
S1A_2 S 0.2498(14) 1.0019(13) -0.0944(16)
S2A S 0.1111(9) 0.7969(10) 0.3162(11)
C2A C 0.3289(21) -0.2103(23) 0.3002(24)
C3A C 0.5762(27) -0.0402(26) 0.1475(28)
C2A_2 C 0.3289(21) 0.7897(23) 0.3002(24)
S2A_2 S 0.1111(9) -0.2031(10) 0.3162(11)
C4A C 0.4707(23) -0.2586(27) 0.4808(25)
N1A N 0.7410(19) 0.0013(23) 0.1121(26)
N2A N 0.5886(28) -0.2952(27) 0.6506(28)
loop_
_geom_bond_atom_site_label_1
_geom_bond_atom_site_label_2
_geom_bond_site_symmetry_1
_geom_bond_site_symmetry_2
Pb1 S1 1_555 1_555
S1 C1 1_555 1_555
S2 Pb1 1_555 1_555
C1 C2 1_555 1_555
C2 S2 1_555 1_555
C3 C1 1_555 1_555
C4 C2 1_555 1_555
N1 C3 1_555 1_555
N2 C4 1_555 1_555
S1A Pb1 1_555 1_555
Pb1A S1 1_555 1_555
Pb1A_2 S1A 1_555 1_555
C1A S1A 1_555 1_555
S1A_2 Pb1A 1_555 1_555
S2A Pb1A 1_555 1_555
C2A C1A 1_555 1_555
C3A C1A 1_555 1_555
C2A_2 S2A 1_555 1_555
S2A_2 C2A 1_555 1_555
C4A C2A 1_555 1_555
N1A C3A 1_555 1_555
N2A C4A 1_555 1_555

#END
