
#######################################################################
#
#                 Cambridge Crystallographic Data Centre
#                                CCDC 
#
#######################################################################
#
# If this CIF has been generated from an entry in the Cambridge 
# Structural Database, then it will include bibliographic, chemical, 
# crystal, experimental, refinement or atomic coordinate data resulting 
# from the CCDC's data processing and validation procedures.
#
#######################################################################

data_SEHDAM
_symmetry_cell_setting           triclinic
_symmetry_space_group_name_H-M   'P -1'
_symmetry_Int_Tables_number      2
_space_group_name_Hall           '-P 1'
loop_
_symmetry_equiv_pos_site_id
_symmetry_equiv_pos_as_xyz
1 x,y,z
2 -x,-y,-z
_cell_length_a                   10.487(2)
_cell_length_b                   11.160(2)
_cell_length_c                   12.296(3)
_cell_angle_alpha                99.54(3)
_cell_angle_beta                 98.62(3)
_cell_angle_gamma                90.56(3)
_cell_volume                     1402.24
loop_
_atom_site_label
_atom_site_type_symbol
_atom_site_fract_x
_atom_site_fract_y
_atom_site_fract_z
Cd1 Cd 0.35693(3) 0.04043(3) 0.10776(3)
O1 O 0.3554(4) 0.2311(4) 0.3058(3)
O2 O 0.7388(6) -0.0451(4) 0.4518(4)
O3 O 0.4802(3) 0.0971(3) 0.9116(3)
O4 O 0.5898(5) 0.4853(3) 1.2309(3)
N1 N 0.4670(4) 0.0604(4) 0.2894(4)
N2 N 0.5657(5) -0.0081(4) 0.3302(4)
H1 H 0.5730 -0.0787 0.2916
N3 N 0.4439(4) 0.2105(3) 1.0699(3)
N4 N 0.4730(4) 0.3164(3) 1.1483(3)
H2 H 0.4275 0.3283 1.2016
N5 N 0.9088(6) 0.3935(6) 0.7532(5)
H3 H 0.9546 0.4236 0.8160
N6 N 0.9596(7) 0.3865(7) 0.6535(6)
H4 H 0.9131 0.3563 0.5911
H5 H 1.0374 0.4125 0.6546
N7 N 0.2348(4) -0.0817(4) -0.0500(3)
N8 N 0.1641(4) -0.0172(4) 0.1563(3)
C1 C 0.5140(5) 0.3279(5) 0.5129(4)
H6 H 0.4455 0.3748 0.4900
C2 C 0.6000(5) 0.3700(4) 0.6088(4)
H7 H 0.5871 0.4450 0.6509
C3 C 0.7051(5) 0.3036(4) 0.6442(4)
C4 C 0.7225(5) 0.1909(4) 0.5833(4)
H8 H 0.7926 0.1458 0.6063
C5 C 0.6357(5) 0.1440(4) 0.4876(4)
C6 C 0.5313(4) 0.2142(4) 0.4511(4)
C7 C 0.4470(5) 0.1672(5) 0.3468(4)
C8 C 0.6520(6) 0.0230(5) 0.4236(5)
C9 C 0.6431(4) 0.2825(4) 0.8653(4)
H9 H 0.6138 0.2204 0.8062
C10 C 0.7400(5) 0.3638(4) 0.8546(4)
C11 C 0.7834(6) 0.4552(5) 0.9459(5)
H10 H 0.8515 0.5075 0.9420
C12 C 0.7267(6) 0.4688(5) 1.0414(5)
H11 H 0.7550 0.5317 1.1001
C13 C 0.6278(5) 0.3891(4) 1.0501(4)
C14 C 0.5893(4) 0.2927(4) 0.9629(4)
C15 C 0.4997(4) 0.1968(4) 0.9797(4)
C16 C 0.5639(5) 0.4012(4) 1.1494(4)
C17 C 0.7944(5) 0.3547(4) 0.7491(4)
C18 C 0.2699(5) -0.1134(5) -0.1495(4)
H12 H 0.3442 -0.0764 -0.1637
C19 C 0.2022(6) -0.1986(5) -0.2337(5)
H13 H 0.2323 -0.2198 -0.3014
C20 C 0.0898(6) -0.2512(5) -0.2155(5)
H14 H 0.0427 -0.3086 -0.2707
C21 C 0.0474(5) -0.2162(4) -0.1118(5)
C22 C -0.0710(5) -0.2622(6) -0.0872(6)
H15 H -0.1233 -0.3166 -0.1415
C23 C -0.1081(5) -0.2281(5) 0.0135(6)
H16 H -0.1857 -0.2591 0.0271
C24 C -0.0302(5) -0.1448(5) 0.0997(5)
C25 C -0.0650(5) -0.1080(5) 0.2051(5)
H17 H -0.1409 -0.1390 0.2221
C26 C 0.0119(6) -0.0271(5) 0.2826(5)
H18 H -0.0113 -0.0011 0.3526
C27 C 0.1279(5) 0.0170(5) 0.2552(5)
H19 H 0.1808 0.0719 0.3085
C28 C 0.1249(4) -0.1327(4) -0.0302(4)
C29 C 0.0861(4) -0.0970(4) 0.0779(4)
Cd1A Cd 0.64307(3) -0.04043(3) 0.89224(3)
Cd1_2 Cd 0.35693(3) 0.04043(3) 1.10776(3)
Cd1A_2 Cd 0.64307(3) -0.04043(3) -0.10776(3)
O1A O 0.6446(4) -0.2311(4) 0.6942(3)
O2A O 0.2612(6) 0.0451(4) 0.5482(4)
O3A O 0.5198(3) -0.0971(3) 0.0884(3)
O4A O 0.4102(5) -0.4853(3) -0.2309(3)
N1A N 0.5330(4) -0.0604(4) 0.7106(4)
N2A N 0.4343(5) 0.0081(4) 0.6698(4)
H1A H 0.4270 0.0787 0.7084
N3A N 0.5561(4) -0.2105(3) -0.0699(3)
N3_2 N 0.4439(4) 0.2105(3) 0.0699(3)
N3A_2 N 0.5561(4) -0.2105(3) 0.9301(3)
N4A N 0.5270(4) -0.3164(3) -0.1483(3)
H2A H 0.5725 -0.3283 -0.2016
N5A N 0.0912(6) -0.3935(6) 0.2468(5)
H3A H 0.0454 -0.4236 0.1840
N6A N 0.0404(7) -0.3865(7) 0.3465(6)
H4A H 0.0869 -0.3563 0.4089
H5A H -0.0374 -0.4125 0.3454
N7A N 0.7652(4) 0.0817(4) 1.0500(3)
N8A N 0.8359(4) 0.0172(4) 0.8437(3)
C1A C 0.4860(5) -0.3279(5) 0.4871(4)
H6A H 0.5545 -0.3748 0.5100
C2A C 0.4000(5) -0.3700(4) 0.3912(4)
H7A H 0.4129 -0.4450 0.3491
C3A C 0.2949(5) -0.3036(4) 0.3558(4)
C4A C 0.2775(5) -0.1909(4) 0.4167(4)
H8A H 0.2074 -0.1458 0.3937
C5A C 0.3643(5) -0.1440(4) 0.5124(4)
C6A C 0.4687(4) -0.2142(4) 0.5489(4)
C7A C 0.5530(5) -0.1672(5) 0.6532(4)
C8A C 0.3480(6) -0.0230(5) 0.5764(5)
C9A C 0.3569(4) -0.2825(4) 0.1347(4)
H9A H 0.3862 -0.2204 0.1938
C10A C 0.2600(5) -0.3638(4) 0.1454(4)
C11A C 0.2166(6) -0.4552(5) 0.0541(5)
H10A H 0.1485 -0.5075 0.0580
C12A C 0.2733(6) -0.4688(5) -0.0414(5)
H11A H 0.2450 -0.5317 -0.1001
C13A C 0.3722(5) -0.3891(4) -0.0501(4)
C14A C 0.4107(4) -0.2927(4) 0.0371(4)
C15A C 0.5003(4) -0.1968(4) 0.0203(4)
C16A C 0.4361(5) -0.4012(4) -0.1494(4)
C17A C 0.2056(5) -0.3547(4) 0.2509(4)
C18A C 0.7301(5) 0.1134(5) 1.1495(4)
H12A H 0.6558 0.0764 1.1637
C19A C 0.7978(6) 0.1986(5) 1.2337(5)
H13A H 0.7677 0.2198 1.3014
C20A C 0.9102(6) 0.2512(5) 1.2155(5)
H14A H 0.9573 0.3086 1.2707
C21A C 0.9526(5) 0.2162(4) 1.1118(5)
C22A C 1.0710(5) 0.2622(6) 1.0872(6)
H15A H 1.1233 0.3166 1.1415
C23A C 1.1081(5) 0.2281(5) 0.9865(6)
H16A H 1.1857 0.2591 0.9729
C24A C 1.0302(5) 0.1448(5) 0.9003(5)
C25A C 1.0650(5) 0.1080(5) 0.7949(5)
H17A H 1.1409 0.1390 0.7779
C26A C 0.9881(6) 0.0271(5) 0.7174(5)
H18A H 1.0113 0.0011 0.6474
C27A C 0.8721(5) -0.0170(5) 0.7448(5)
H19A H 0.8192 -0.0719 0.6915
C28A C 0.8751(4) 0.1327(4) 1.0302(4)
C29A C 0.9139(4) 0.0970(4) 0.9221(4)
O5 O 0.0550(11) 0.1899(10) 0.5060(8)
O6 O 0.1929(7) 0.5363(7) 0.5927(7)
O7 O 0.1738(7) 0.3608(7) 0.4034(6)
O8 O 0.3287(6) 0.2630(4) 0.7345(5)
loop_
_geom_bond_atom_site_label_1
_geom_bond_atom_site_label_2
_geom_bond_site_symmetry_1
_geom_bond_site_symmetry_2
Cd1 N1 1_555 1_555
O1 C7 1_555 1_555
O2 C8 1_555 1_555
O3 C15 1_555 1_555
O4 C16 1_555 1_555
N1 N2 1_555 1_555
N2 H1 1_555 1_555
N3 N4 1_555 1_555
N4 H2 1_555 1_555
N5 H3 1_555 1_555
N6 N5 1_555 1_555
H4 N6 1_555 1_555
H5 N6 1_555 1_555
N7 Cd1 1_555 1_555
N8 Cd1 1_555 1_555
C1 H6 1_555 1_555
C2 C1 1_555 1_555
H7 C2 1_555 1_555
C3 C2 1_555 1_555
C4 C3 1_555 1_555
H8 C4 1_555 1_555
C5 C4 1_555 1_555
C6 C1 1_555 1_555
C7 N1 1_555 1_555
C8 N2 1_555 1_555
C9 H9 1_555 1_555
C10 C9 1_555 1_555
C11 C10 1_555 1_555
H10 C11 1_555 1_555
C12 C11 1_555 1_555
H11 C12 1_555 1_555
C13 C12 1_555 1_555
C14 C9 1_555 1_555
C15 N3 1_555 1_555
C16 N4 1_555 1_555
C17 N5 1_555 1_555
C18 N7 1_555 1_555
H12 C18 1_555 1_555
C19 C18 1_555 1_555
H13 C19 1_555 1_555
C20 C19 1_555 1_555
H14 C20 1_555 1_555
C21 C20 1_555 1_555
C22 C21 1_555 1_555
H15 C22 1_555 1_555
C23 C22 1_555 1_555
H16 C23 1_555 1_555
C24 C23 1_555 1_555
C25 C24 1_555 1_555
H17 C25 1_555 1_555
C26 C25 1_555 1_555
H18 C26 1_555 1_555
C27 N8 1_555 1_555
H19 C27 1_555 1_555
C28 N7 1_555 1_555
C29 N8 1_555 1_555
Cd1A O3 1_555 1_555
Cd1_2 N3 1_555 1_555
Cd1A_2 N3A 1_555 1_555
O1A C7A 1_555 1_555
O2A C8A 1_555 1_555
O3A Cd1 1_555 1_555
O4A C16A 1_555 1_555
N1A Cd1A 1_555 1_555
N2A N1A 1_555 1_555
H1A N2A 1_555 1_555
N3A N4A 1_555 1_555
N3_2 Cd1 1_555 1_555
N3A_2 Cd1A 1_555 1_555
N4A H2A 1_555 1_555
N5A H3A 1_555 1_555
N6A N5A 1_555 1_555
H4A N6A 1_555 1_555
H5A N6A 1_555 1_555
N7A Cd1A 1_555 1_555
N8A Cd1A 1_555 1_555
C1A H6A 1_555 1_555
C2A C1A 1_555 1_555
H7A C2A 1_555 1_555
C3A C2A 1_555 1_555
C4A C3A 1_555 1_555
H8A C4A 1_555 1_555
C5A C4A 1_555 1_555
C6A C1A 1_555 1_555
C7A N1A 1_555 1_555
C8A N2A 1_555 1_555
C9A H9A 1_555 1_555
C10A C9A 1_555 1_555
C11A C10A 1_555 1_555
H10A C11A 1_555 1_555
C12A C11A 1_555 1_555
H11A C12A 1_555 1_555
C13A C12A 1_555 1_555
C14A C9A 1_555 1_555
C15A O3A 1_555 1_555
C16A N4A 1_555 1_555
C17A N5A 1_555 1_555
C18A N7A 1_555 1_555
H12A C18A 1_555 1_555
C19A C18A 1_555 1_555
H13A C19A 1_555 1_555
C20A C19A 1_555 1_555
H14A C20A 1_555 1_555
C21A C20A 1_555 1_555
C22A C21A 1_555 1_555
H15A C22A 1_555 1_555
C23A C22A 1_555 1_555
H16A C23A 1_555 1_555
C24A C23A 1_555 1_555
C25A C24A 1_555 1_555
H17A C25A 1_555 1_555
C26A C25A 1_555 1_555
H18A C26A 1_555 1_555
C27A N8A 1_555 1_555
H19A C27A 1_555 1_555
C28A N7A 1_555 1_555
C29A N8A 1_555 1_555
C3 C17 1_555 1_555
C5 C6 1_555 1_555
C5 C8 1_555 1_555
C6 C7 1_555 1_555
C10 C17 1_555 1_555
C13 C14 1_555 1_555
C13 C16 1_555 1_555
C14 C15 1_555 1_555
C21 C28 1_555 1_555
C24 C29 1_555 1_555
C26 C27 1_555 1_555
C28 C29 1_555 1_555
N3A C15A 1_555 1_555
C3A C17A 1_555 1_555
C5A C6A 1_555 1_555
C5A C8A 1_555 1_555
C6A C7A 1_555 1_555
C10A C17A 1_555 1_555
C13A C14A 1_555 1_555
C13A C16A 1_555 1_555
C14A C15A 1_555 1_555
C21A C28A 1_555 1_555
C24A C29A 1_555 1_555
C26A C27A 1_555 1_555
C28A C29A 1_555 1_555

#END
