
#######################################################################
#
#                 Cambridge Crystallographic Data Centre
#                                CCDC 
#
#######################################################################
#
# If this CIF has been generated from an entry in the Cambridge 
# Structural Database, then it will include bibliographic, chemical, 
# crystal, experimental, refinement or atomic coordinate data resulting 
# from the CCDC's data processing and validation procedures.
#
#######################################################################

data_SEHDEQ
_symmetry_cell_setting           monoclinic
_symmetry_space_group_name_H-M   'P 2/n'
_symmetry_Int_Tables_number      13
_space_group_name_Hall           '-P 2yac'
loop_
_symmetry_equiv_pos_site_id
_symmetry_equiv_pos_as_xyz
1 x,y,z
2 1/2-x,y,1/2-z
3 -x,-y,-z
4 1/2+x,-y,1/2+z
_cell_length_a                   17.194(3)
_cell_length_b                   12.050(2)
_cell_length_c                   22.453(5)
_cell_angle_alpha                90
_cell_angle_beta                 95.42(3)
_cell_angle_gamma                90
_cell_volume                     4631.19
loop_
_atom_site_label
_atom_site_type_symbol
_atom_site_fract_x
_atom_site_fract_y
_atom_site_fract_z
Zn1 Zn 0.97682(3) 0.36985(5) 0.03864(2)
Zn2 Zn 1.2500 0.28600(7) 0.2500
N1 N 1.0769(2) 0.4446(3) 0.07337(15)
N2 N 1.0973(2) 0.4214(3) 0.13289(15)
H1 H 1.0647 0.3825 0.1509
N3 N 1.3288(2) 0.8618(3) 0.41815(16)
H2 H 1.2965 0.9020 0.4358
N4 N 1.3892(3) 0.8129(3) 0.45467(15)
N5 N 1.4552(3) 0.7260(6) 0.1431(2)
N6 N 1.5217(4) 0.7756(7) 0.1704(3)
H3 H 1.5282 0.7806 0.2087
H4 H 1.5565 0.8015 0.1490
N7 N 1.1729(3) 0.1714(4) 0.2028(2)
N8 N 1.2953(3) 0.2823(4) 0.1652(2)
N9 N 0.9296(3) 0.2713(3) 0.09893(16)
N10 N 0.8938(3) 0.1719(4) 0.08083(16)
H5 H 0.8908 0.1583 0.0431
N11 N 1.1922(3) -0.0149(4) 0.46053(16)
N12 N 1.1879(3) 0.0203(4) 0.51861(17)
H6 H 1.2258 0.0005 0.5442
N13 N 0.8322(4) 0.2759(6) 0.3848(2)
N14 N 0.7720(4) 0.3150(7) 0.3466(3)
H7 H 0.7671 0.2936 0.3099
H8 H 0.7390 0.3609 0.3592
C1 C 1.3136(3) 0.6615(4) 0.07869(19)
H9 H 1.3467 0.7069 0.0590
C2 C 1.3311(3) 0.6402(4) 0.14069(18)
C3 C 1.2815(3) 0.5705(4) 0.16818(17)
H10 H 1.2923 0.5541 0.2086
C4 C 1.2152(3) 0.5240(4) 0.13631(17)
C5 C 1.1977(3) 0.5472(4) 0.07513(18)
C6 C 1.2485(3) 0.6163(4) 0.04695(18)
H11 H 1.2383 0.6319 0.0064
C7 C 1.1258(3) 0.5038(4) 0.04391(18)
C8 C 1.1625(3) 0.4533(4) 0.16546(17)
C9 C 1.4696(3) 0.6420(4) 0.2764(2)
H12 H 1.5028 0.5937 0.2587
C10 C 1.4793(3) 0.6586(4) 0.3373(2)
H13 H 1.5189 0.6213 0.3603
C11 C 1.4306(3) 0.7302(4) 0.36479(18)
C12 C 1.3700(3) 0.7829(4) 0.32955(18)
C13 C 1.3610(3) 0.7672(4) 0.26712(18)
H14 H 1.3216 0.8044 0.2440
C14 C 1.4099(3) 0.6975(4) 0.24040(19)
C15 C 1.3154(3) 0.8533(4) 0.35852(19)
C16 C 1.4381(3) 0.7491(4) 0.42978(19)
C17 C 1.4035(3) 0.6875(4) 0.17322(19)
C18 C 1.1182(4) 0.1090(5) 0.2226(4)
H15 H 1.1164 0.1040 0.2638
C19 C 1.0631(5) 0.0502(7) 0.1862(5)
H16 H 1.0265 0.0053 0.2024
C20 C 1.0643(5) 0.0603(7) 0.1269(5)
H17 H 1.0270 0.0235 0.1015
C21 C 1.1219(5) 0.1265(6) 0.1020(4)
C22 C 1.1282(8) 0.1422(8) 0.0401(4)
H18 H 1.0918 0.1085 0.0127
C23 C 1.1851(7) 0.2042(8) 0.0198(3)
H19 H 1.1855 0.2172 -0.0211
C24 C 1.2445(6) 0.2495(6) 0.0605(3)
C25 C 1.3085(8) 0.3098(8) 0.0442(4)
H20 H 1.3124 0.3226 0.0037
C26 C 1.3660(7) 0.3510(7) 0.0848(4)
H21 H 1.4098 0.3867 0.0726
C27 C 1.3555(5) 0.3364(6) 0.1477(3)
H22 H 1.3922 0.3661 0.1764
C28 C 1.1764(4) 0.1769(5) 0.1438(3)
C29 C 1.2408(5) 0.2383(5) 0.1221(2)
C30 C 0.8529(3) 0.0689(6) 0.2808(2)
H23 H 0.8369 0.0180 0.3083
C31 C 0.8809(3) 0.1725(6) 0.3008(2)
C32 C 0.9063(3) 0.2459(5) 0.2604(2)
H24 H 0.9268 0.3140 0.2735
C33 C 0.9017(3) 0.2192(4) 0.1990(2)
C34 C 0.8710(3) 0.1176(5) 0.1792(2)
C35 C 0.8485(3) 0.0401(5) 0.2201(2)
H25 H 0.8308 -0.0297 0.2074
C36 C 0.9320(3) 0.2971(5) 0.1569(2)
C37 C 0.8638(3) 0.0953(5) 0.1143(2)
C38 C 1.0036(4) 0.1742(6) 0.5113(2)
H26 H 1.0022 0.1976 0.5507
C39 C 1.0659(3) 0.1099(4) 0.4952(2)
C40 C 1.0670(3) 0.0750(4) 0.4368(2)
C41 C 1.0060(3) 0.1029(4) 0.3934(2)
H27 H 1.0067 0.0776 0.3543
C42 C 0.9453(3) 0.1679(5) 0.4091(2)
C43 C 0.9446(4) 0.2024(6) 0.4685(2)
H28 H 0.9032 0.2454 0.4793
C44 C 1.1347(3) 0.0103(4) 0.41984(19)
C45 C 1.1315(3) 0.0822(5) 0.5401(2)
C46 C 0.8821(4) 0.2058(6) 0.3649(2)
O1 O 1.1080(2) 0.5246(3) -0.01259(12)
O2 O 1.17294(19) 0.4209(3) 0.21917(12)
O3 O 1.2596(2) 0.9026(3) 0.33014(13)
O4 O 1.4939(2) 0.7002(3) 0.46314(13)
O5 O 0.9623(3) 0.3890(3) 0.17488(16)
O6 O 0.8322(3) 0.0099(4) 0.09133(17)
O7 O 1.1357(2) -0.0173(4) 0.36569(14)
O8 O 1.1367(3) 0.1131(4) 0.59280(15)
Zn1A Zn 1.52318(3) 0.36985(5) 0.46136(2)
Zn1B Zn 1.02318(3) 0.63015(5) -0.03864(2)
Zn1C Zn 1.47682(3) 0.63015(5) 0.53864(2)
N1A N 1.4231(2) 0.4446(3) 0.42663(15)
N2A N 1.4027(2) 0.4214(3) 0.36711(15)
H1A H 1.4353 0.3825 0.3491
N3A N 1.1712(2) 0.8618(3) 0.08185(16)
H2A H 1.2035 0.9020 0.0642
N4A N 1.1108(3) 0.8129(3) 0.04533(15)
N5A N 1.0448(3) 0.7260(6) 0.3569(2)
N6A N 0.9783(4) 0.7756(7) 0.3296(3)
H3A H 0.9718 0.7806 0.2913
H4A H 0.9435 0.8015 0.3510
N7A N 1.3271(3) 0.1714(4) 0.2972(2)
N8A N 1.2047(3) 0.2823(4) 0.3348(2)
N9A N 1.5704(3) 0.2713(3) 0.40107(16)
N10A N 1.6062(3) 0.1719(4) 0.41917(16)
H5A H 1.6092 0.1583 0.4569
N11A N 1.3078(3) -0.0149(4) 0.03947(16)
N12A N 1.3121(3) 0.0203(4) -0.01861(17)
H6A H 1.2742 0.0005 -0.0442
N13A N 1.6678(4) 0.2759(6) 0.1152(2)
N14A N 1.7280(4) 0.3150(7) 0.1534(3)
H7A H 1.7329 0.2936 0.1901
H8A H 1.7610 0.3609 0.1408
C1A C 1.1864(3) 0.6615(4) 0.42131(19)
H9A H 1.1533 0.7069 0.4410
C2A C 1.1689(3) 0.6402(4) 0.35931(18)
C3A C 1.2185(3) 0.5705(4) 0.33182(17)
H10A H 1.2077 0.5541 0.2914
C4A C 1.2848(3) 0.5240(4) 0.36369(17)
C5A C 1.3023(3) 0.5472(4) 0.42487(18)
C6A C 1.2515(3) 0.6163(4) 0.45305(18)
H11A H 1.2617 0.6319 0.4936
C7A C 1.3742(3) 0.5038(4) 0.45609(18)
C8A C 1.3375(3) 0.4533(4) 0.33454(17)
C9A C 1.0304(3) 0.6420(4) 0.2236(2)
H12A H 0.9972 0.5937 0.2413
C10A C 1.0207(3) 0.6586(4) 0.1627(2)
H13A H 0.9811 0.6213 0.1397
C11A C 1.0694(3) 0.7302(4) 0.13521(18)
C12A C 1.1300(3) 0.7829(4) 0.17045(18)
C13A C 1.1390(3) 0.7672(4) 0.23288(18)
H14A H 1.1784 0.8044 0.2560
C14A C 1.0901(3) 0.6975(4) 0.25960(19)
C15A C 1.1846(3) 0.8533(4) 0.14148(19)
C16A C 1.0619(3) 0.7491(4) 0.07022(19)
C17A C 1.0965(3) 0.6875(4) 0.32678(19)
C18A C 1.3818(4) 0.1090(5) 0.2774(4)
H15A H 1.3836 0.1040 0.2362
C19A C 1.4369(5) 0.0502(7) 0.3138(5)
H16A H 1.4735 0.0053 0.2976
C20A C 1.4357(5) 0.0603(7) 0.3731(5)
H17A H 1.4730 0.0235 0.3985
C21A C 1.3781(5) 0.1265(6) 0.3980(4)
C22A C 1.3718(8) 0.1422(8) 0.4599(4)
H18A H 1.4082 0.1085 0.4873
C23A C 1.3149(7) 0.2042(8) 0.4802(3)
H19A H 1.3145 0.2172 0.5211
C24A C 1.2555(6) 0.2495(6) 0.4395(3)
C25A C 1.1915(8) 0.3098(8) 0.4558(4)
H20A H 1.1876 0.3226 0.4963
C26A C 1.1340(7) 0.3510(7) 0.4152(4)
H21A H 1.0902 0.3867 0.4274
C27A C 1.1445(5) 0.3364(6) 0.3523(3)
H22A H 1.1078 0.3661 0.3236
C28A C 1.3236(4) 0.1769(5) 0.3562(3)
C29A C 1.2592(5) 0.2383(5) 0.3779(2)
C30A C 1.6471(3) 0.0689(6) 0.2192(2)
H23A H 1.6631 0.0180 0.1917
C31A C 1.6191(3) 0.1725(6) 0.1992(2)
C32A C 1.5937(3) 0.2459(5) 0.2396(2)
H24A H 1.5732 0.3140 0.2265
C33A C 1.5983(3) 0.2192(4) 0.3010(2)
C34A C 1.6290(3) 0.1176(5) 0.3208(2)
C35A C 1.6515(3) 0.0401(5) 0.2799(2)
H25A H 1.6692 -0.0297 0.2926
C36A C 1.5680(3) 0.2971(5) 0.3431(2)
C37A C 1.6362(3) 0.0953(5) 0.3857(2)
C38A C 1.4964(4) 0.1742(6) -0.0113(2)
H26A H 1.4978 0.1976 -0.0507
C39A C 1.4341(3) 0.1099(4) 0.0048(2)
C40A C 1.4330(3) 0.0750(4) 0.0632(2)
C41A C 1.4940(3) 0.1029(4) 0.1066(2)
H27A H 1.4933 0.0776 0.1457
C42A C 1.5547(3) 0.1679(5) 0.0909(2)
C43A C 1.5554(4) 0.2024(6) 0.0315(2)
H28A H 1.5968 0.2454 0.0207
C44A C 1.3653(3) 0.0103(4) 0.08016(19)
C45A C 1.3685(3) 0.0822(5) -0.0401(2)
C46A C 1.6179(4) 0.2058(6) 0.1351(2)
O1A O 1.3920(2) 0.5246(3) 0.51259(12)
O1B O 0.8920(2) 0.4754(3) 0.01259(12)
O1C O 1.6080(2) 0.4754(3) 0.48741(12)
O2A O 1.32706(19) 0.4209(3) 0.28083(12)
O3A O 1.2404(2) 0.9026(3) 0.16986(13)
O4A O 1.0061(2) 0.7002(3) 0.03686(13)
O4C O 0.9939(2) 0.2998(3) -0.03686(13)
O4B O 1.5061(2) 0.2998(3) 0.53686(13)
O5A O 1.5377(3) 0.3890(3) 0.32512(16)
O6A O 1.6678(3) 0.0099(4) 0.40867(17)
O7A O 1.3643(2) -0.0173(4) 0.13431(14)
O8A O 1.3633(3) 0.1131(4) -0.09280(15)
O9 O 0.7980(5) 0.5396(7) 0.1030(4)
O10 O 0.7803(8) 0.7838(10) 0.1367(5)
O11 O 0.8346(7) 0.5011(11) 0.2406(5)
O12 O 0.8263(15) 0.741(2) 0.2551(7)
O13 O 0.5293(15) 0.524(2) 0.0515(10)
loop_
_geom_bond_atom_site_label_1
_geom_bond_atom_site_label_2
_geom_bond_site_symmetry_1
_geom_bond_site_symmetry_2
Zn1 N1 1_555 1_555
Zn2 N7 1_555 1_555
N1 N2 1_555 1_555
N2 H1 1_555 1_555
N3 H2 1_555 1_555
N4 N3 1_555 1_555
N5 N6 1_555 1_555
N6 H3 1_555 1_555
H4 N6 1_555 1_555
N7 C18 1_555 1_555
N8 Zn2 1_555 1_555
N9 Zn1 1_555 1_555
N10 N9 1_555 1_555
H5 N10 1_555 1_555
N11 N12 1_555 1_555
N12 H6 1_555 1_555
N13 N14 1_555 1_555
N14 H7 1_555 1_555
H8 N14 1_555 1_555
C1 H9 1_555 1_555
C2 C1 1_555 1_555
C3 C2 1_555 1_555
H10 C3 1_555 1_555
C4 C3 1_555 1_555
C5 C4 1_555 1_555
C6 C1 1_555 1_555
H11 C6 1_555 1_555
C7 N1 1_555 1_555
C8 N2 1_555 1_555
C9 H12 1_555 1_555
C10 C9 1_555 1_555
H13 C10 1_555 1_555
C11 C10 1_555 1_555
C12 C11 1_555 1_555
C13 C12 1_555 1_555
H14 C13 1_555 1_555
C14 C9 1_555 1_555
C15 N3 1_555 1_555
C16 N4 1_555 1_555
C17 N5 1_555 1_555
C18 H15 1_555 1_555
C19 C18 1_555 1_555
H16 C19 1_555 1_555
C20 C19 1_555 1_555
H17 C20 1_555 1_555
C21 C20 1_555 1_555
C22 C21 1_555 1_555
H18 C22 1_555 1_555
C23 C22 1_555 1_555
H19 C23 1_555 1_555
C24 C23 1_555 1_555
C25 C24 1_555 1_555
H20 C25 1_555 1_555
C26 C25 1_555 1_555
H21 C26 1_555 1_555
C27 N8 1_555 1_555
H22 C27 1_555 1_555
C28 N7 1_555 1_555
C29 N8 1_555 1_555
C30 H23 1_555 1_555
C31 C30 1_555 1_555
C32 C31 1_555 1_555
H24 C32 1_555 1_555
C33 C32 1_555 1_555
C34 C33 1_555 1_555
C35 C30 1_555 1_555
H25 C35 1_555 1_555
C36 N9 1_555 1_555
C37 N10 1_555 1_555
C38 H26 1_555 1_555
C39 C38 1_555 1_555
C40 C39 1_555 1_555
C41 C40 1_555 1_555
H27 C41 1_555 1_555
C42 C41 1_555 1_555
C43 C38 1_555 1_555
H28 C43 1_555 1_555
C44 N11 1_555 1_555
C45 N12 1_555 1_555
C46 N13 1_555 1_555
O1 C7 1_555 1_555
O2 Zn2 1_555 1_555
O3 C15 1_555 1_555
O4 C16 1_555 1_555
O5 C36 1_555 1_555
O6 C37 1_555 1_555
O7 C44 1_555 1_555
O8 C45 1_555 1_555
Zn1A N1A 1_555 1_555
Zn1B O1 1_555 1_555
Zn1C O4 1_555 1_555
N1A N2A 1_555 1_555
N2A H1A 1_555 1_555
N3A H2A 1_555 1_555
N4A N3A 1_555 1_555
N5A N6A 1_555 1_555
N6A H3A 1_555 1_555
H4A N6A 1_555 1_555
N7A Zn2 1_555 1_555
N8A Zn2 1_555 1_555
N9A Zn1A 1_555 1_555
N10A N9A 1_555 1_555
H5A N10A 1_555 1_555
N11A N12A 1_555 1_555
N12A H6A 1_555 1_555
N13A N14A 1_555 1_555
N14A H7A 1_555 1_555
H8A N14A 1_555 1_555
C1A H9A 1_555 1_555
C2A C1A 1_555 1_555
C3A C2A 1_555 1_555
H10A C3A 1_555 1_555
C4A C3A 1_555 1_555
C5A C4A 1_555 1_555
C6A C1A 1_555 1_555
H11A C6A 1_555 1_555
C7A N1A 1_555 1_555
C8A N2A 1_555 1_555
C9A H12A 1_555 1_555
C10A C9A 1_555 1_555
H13A C10A 1_555 1_555
C11A C10A 1_555 1_555
C12A C11A 1_555 1_555
C13A C12A 1_555 1_555
H14A C13A 1_555 1_555
C14A C9A 1_555 1_555
C15A N3A 1_555 1_555
C16A N4A 1_555 1_555
C17A N5A 1_555 1_555
C18A N7A 1_555 1_555
H15A C18A 1_555 1_555
C19A C18A 1_555 1_555
H16A C19A 1_555 1_555
C20A C19A 1_555 1_555
H17A C20A 1_555 1_555
C21A C20A 1_555 1_555
C22A C21A 1_555 1_555
H18A C22A 1_555 1_555
C23A C22A 1_555 1_555
H19A C23A 1_555 1_555
C24A C23A 1_555 1_555
C25A C24A 1_555 1_555
H20A C25A 1_555 1_555
C26A C25A 1_555 1_555
H21A C26A 1_555 1_555
C27A N8A 1_555 1_555
H22A C27A 1_555 1_555
C28A N7A 1_555 1_555
C29A N8A 1_555 1_555
C30A H23A 1_555 1_555
C31A C30A 1_555 1_555
C32A C31A 1_555 1_555
H24A C32A 1_555 1_555
C33A C32A 1_555 1_555
C34A C33A 1_555 1_555
C35A C30A 1_555 1_555
H25A C35A 1_555 1_555
C36A N9A 1_555 1_555
C37A N10A 1_555 1_555
C38A H26A 1_555 1_555
C39A C38A 1_555 1_555
C40A C39A 1_555 1_555
C41A C40A 1_555 1_555
H27A C41A 1_555 1_555
C42A C41A 1_555 1_555
C43A C38A 1_555 1_555
H28A C43A 1_555 1_555
C44A N11A 1_555 1_555
C45A N12A 1_555 1_555
C46A N13A 1_555 1_555
O1A Zn1C 1_555 1_555
O1B Zn1 1_555 1_555
O1C Zn1A 1_555 1_555
O2A Zn2 1_555 1_555
O3A C15A 1_555 1_555
O4A Zn1B 1_555 1_555
O4C Zn1 1_555 1_555
O4B Zn1A 1_555 1_555
O5A C36A 1_555 1_555
O6A C37A 1_555 1_555
O7A C44A 1_555 1_555
O8A C45A 1_555 1_555
C2 C17 1_555 1_555
C4 C8 1_555 1_555
C5 C6 1_555 1_555
C5 C7 1_555 1_555
C8 O2 1_555 1_555
C11 C16 1_555 1_555
C12 C15 1_555 1_555
C13 C14 1_555 1_555
C14 C17 1_555 1_555
C21 C28 1_555 1_555
C24 C29 1_555 1_555
C26 C27 1_555 1_555
C28 C29 1_555 1_555
C31 C46 1_555 1_555
C33 C36 1_555 1_555
C34 C35 1_555 1_555
C34 C37 1_555 1_555
C39 C45 1_555 1_555
C40 C44 1_555 1_555
C42 C43 1_555 1_555
C42 C46 1_555 1_555
C2A C17A 1_555 1_555
C4A C8A 1_555 1_555
C5A C6A 1_555 1_555
C5A C7A 1_555 1_555
C7A O1A 1_555 1_555
C8A O2A 1_555 1_555
C11A C16A 1_555 1_555
C12A C15A 1_555 1_555
C13A C14A 1_555 1_555
C14A C17A 1_555 1_555
C16A O4A 1_555 1_555
C21A C28A 1_555 1_555
C24A C29A 1_555 1_555
C26A C27A 1_555 1_555
C28A C29A 1_555 1_555
C31A C46A 1_555 1_555
C33A C36A 1_555 1_555
C34A C35A 1_555 1_555
C34A C37A 1_555 1_555
C39A C45A 1_555 1_555
C40A C44A 1_555 1_555
C42A C43A 1_555 1_555
C42A C46A 1_555 1_555

#END
