
#######################################################################
#
#                 Cambridge Crystallographic Data Centre
#                                CCDC 
#
#######################################################################
#
# If this CIF has been generated from an entry in the Cambridge 
# Structural Database, then it will include bibliographic, chemical, 
# crystal, experimental, refinement or atomic coordinate data resulting 
# from the CCDC's data processing and validation procedures.
#
#######################################################################

data_SEHFUI
_symmetry_cell_setting           monoclinic
_symmetry_space_group_name_H-M   'P 21/n'
_symmetry_Int_Tables_number      14
_space_group_name_Hall           '-P 2yn'
loop_
_symmetry_equiv_pos_site_id
_symmetry_equiv_pos_as_xyz
1 x,y,z
2 1/2-x,1/2+y,1/2-z
3 -x,-y,-z
4 1/2+x,1/2-y,1/2+z
_cell_length_a                   11.4242(3)
_cell_length_b                   16.2523(4)
_cell_length_c                   12.0073(4)
_cell_angle_alpha                90
_cell_angle_beta                 92.448(3)
_cell_angle_gamma                90
_cell_volume                     2227.36
loop_
_atom_site_label
_atom_site_type_symbol
_atom_site_fract_x
_atom_site_fract_y
_atom_site_fract_z
Cu1 Cu 0.70886(3) 0.395819(18) 0.36635(3)
C1 C 0.2885(2) 0.10481(16) 0.6312(3)
C2 C 0.3846(2) 0.11033(14) 0.5492(2)
C3 C 0.3586(2) 0.12496(16) 0.4368(2)
H1 H 0.2808 0.1308 0.4119
C4 C 0.4455(2) 0.13098(16) 0.3619(2)
H2 H 0.4260 0.1418 0.2873
C5 C 0.5624(2) 0.12115(15) 0.3959(2)
C6 C 0.5883(2) 0.10576(17) 0.5074(2)
H3 H 0.6660 0.0988 0.5320
C7 C 0.5009(2) 0.10061(17) 0.5830(3)
H4 H 0.5206 0.0905 0.6577
C8 C 0.6554(2) 0.12204(16) 0.3106(2)
H5 H 0.6622 0.0674 0.2788
H6 H 0.6320 0.1595 0.2508
C9 C 0.8568(2) 0.09049(16) 0.3776(2)
H7 H 0.8441 0.0364 0.3548
C10 C 0.9600(3) 0.11130(17) 0.4287(3)
H8 H 1.0198 0.0728 0.4384
C11 C 0.9752(2) 0.19180(17) 0.4665(3)
H9 H 1.0449 0.2060 0.5047
C12 C 0.8907(2) 0.25068(16) 0.4491(2)
C13 C 0.7846(2) 0.22898(15) 0.3899(2)
C14 C 0.9096(2) 0.33497(16) 0.5003(2)
C15 C 0.4752(3) 0.34471(18) 0.2589(3)
H10 H 0.5094 0.2944 0.2427
C16 C 0.3572(3) 0.3568(2) 0.2293(3)
H11 H 0.3138 0.3148 0.1950
C17 C 0.3059(3) 0.4302(2) 0.2506(3)
H12 H 0.2268 0.4384 0.2324
C18 C 0.3730(2) 0.49377(18) 0.3004(2)
C19 C 0.3289(3) 0.5740(2) 0.3249(3)
H13 H 0.2506 0.5862 0.3084
C20 C 0.3996(3) 0.6322(2) 0.3719(3)
H14 H 0.3692 0.6841 0.3858
C21 C 0.5200(3) 0.61586(17) 0.4006(3)
C22 C 0.5986(3) 0.67312(18) 0.4492(3)
H15 H 0.5737 0.7263 0.4645
C23 C 0.7115(3) 0.65047(17) 0.4740(3)
H16 H 0.7642 0.6885 0.5051
C24 C 0.7483(3) 0.57024(17) 0.4528(3)
H17 H 0.8252 0.5553 0.4718
C25 C 0.5640(2) 0.53737(15) 0.3804(2)
C26 C 0.4903(2) 0.47619(16) 0.3286(2)
N1 N 0.77075(18) 0.14763(12) 0.35900(19)
N2 N 0.54060(19) 0.40223(13) 0.30939(19)
N3 N 0.67665(19) 0.51492(13) 0.40651(18)
O1 O 0.31817(17) 0.08591(12) 0.73024(18)
O2 O 0.1872(2) 0.11499(19) 0.5966(2)
O4 O 0.69934(15) 0.27602(10) 0.36498(16)
O5 O 0.84272(16) 0.39401(11) 0.46946(18)
O6 O 0.98840(19) 0.34252(12) 0.5728(2)
Cu1C Cu 0.20886(3) 0.104181(18) 0.86635(3)
O1C O 0.81817(17) 0.41409(12) 0.23024(18)
O3 O 0.95437(19) 0.51634(13) 0.65383(19)
H18 H 1.0248 0.5398 0.6565
H19 H 0.9596 0.4695 0.6161
loop_
_geom_bond_atom_site_label_1
_geom_bond_atom_site_label_2
_geom_bond_site_symmetry_1
_geom_bond_site_symmetry_2
Cu1 N2 1_555 1_555
C1 C2 1_555 1_555
C2 C3 1_555 1_555
C3 H1 1_555 1_555
C4 C3 1_555 1_555
H2 C4 1_555 1_555
C5 C4 1_555 1_555
C6 C5 1_555 1_555
H3 C6 1_555 1_555
C7 C2 1_555 1_555
H4 C7 1_555 1_555
C8 C5 1_555 1_555
H5 C8 1_555 1_555
H6 C8 1_555 1_555
C9 H7 1_555 1_555
C10 C9 1_555 1_555
H8 C10 1_555 1_555
C11 C10 1_555 1_555
H9 C11 1_555 1_555
C12 C11 1_555 1_555
C13 C12 1_555 1_555
C14 C12 1_555 1_555
C15 H10 1_555 1_555
C16 C15 1_555 1_555
H11 C16 1_555 1_555
C17 C16 1_555 1_555
H12 C17 1_555 1_555
C18 C17 1_555 1_555
C19 C18 1_555 1_555
H13 C19 1_555 1_555
C20 C19 1_555 1_555
H14 C20 1_555 1_555
C21 C20 1_555 1_555
C22 C21 1_555 1_555
H15 C22 1_555 1_555
C23 C22 1_555 1_555
H16 C23 1_555 1_555
C24 C23 1_555 1_555
H17 C24 1_555 1_555
C25 C21 1_555 1_555
C26 C18 1_555 1_555
N1 C8 1_555 1_555
N2 C15 1_555 1_555
N3 Cu1 1_555 1_555
O1 C1 1_555 1_555
O2 C1 1_555 1_555
O3 H18 1_555 1_555
H19 O3 1_555 1_555
O4 Cu1 1_555 1_555
O5 Cu1 1_555 1_555
O6 C14 1_555 1_555
Cu1C O1 1_555 1_555
O1C Cu1 1_555 1_555
C6 C7 1_555 1_555
C9 N1 1_555 1_555
C13 N1 1_555 1_555
C13 O4 1_555 1_555
C14 O5 1_555 1_555
C24 N3 1_555 1_555
C25 C26 1_555 1_555
C25 N3 1_555 1_555
C26 N2 1_555 1_555

#END
