
#######################################################################
#
#                 Cambridge Crystallographic Data Centre
#                                CCDC 
#
#######################################################################
#
# If this CIF has been generated from an entry in the Cambridge 
# Structural Database, then it will include bibliographic, chemical, 
# crystal, experimental, refinement or atomic coordinate data resulting 
# from the CCDC's data processing and validation procedures.
#
#######################################################################

data_SEHFAO
_symmetry_cell_setting           triclinic
_symmetry_space_group_name_H-M   'P -1'
_symmetry_Int_Tables_number      2
_space_group_name_Hall           '-P 1'
loop_
_symmetry_equiv_pos_site_id
_symmetry_equiv_pos_as_xyz
1 x,y,z
2 -x,-y,-z
_cell_length_a                   7.8575(4)
_cell_length_b                   10.7958(6)
_cell_length_c                   12.5902(7)
_cell_angle_alpha                67.731(5)
_cell_angle_beta                 73.063(4)
_cell_angle_gamma                80.891(4)
_cell_volume                     944.09
loop_
_atom_site_label
_atom_site_type_symbol
_atom_site_fract_x
_atom_site_fract_y
_atom_site_fract_z
Zn1 Zn 1.14117(7) 0.12603(5) 0.26711(5)
C1 C 1.3543(6) 0.3057(5) 0.2135(4)
C2 C 1.5014(6) 0.3988(4) 0.1763(4)
C3 C 1.6749(6) 0.3508(4) 0.1748(4)
H1 H 1.7043 0.2596 0.1916
C4 C 1.8058(6) 0.4376(4) 0.1486(4)
H2 H 1.9232 0.4048 0.1455
C5 C 1.7632(5) 0.5725(4) 0.1270(4)
C6 C 1.5906(6) 0.6216(4) 0.1255(5)
H3 H 1.5617 0.7128 0.1083
C7 C 1.4603(6) 0.5354(5) 0.1495(5)
H4 H 1.3443 0.5692 0.1476
C8 C 1.9090(6) 0.6611(4) 0.1106(4)
H5 H 2.0115 0.6495 0.0492
H6 H 1.9460 0.6325 0.1838
C9 C 1.7797(6) 0.8562(5) 0.1653(4)
H7 H 1.7751 0.8029 0.2439
C10 C 1.7161(7) 0.9847(5) 0.1390(5)
H8 H 1.6648 1.0197 0.1990
C11 C 1.7283(6) 1.0645(4) 0.0209(4)
H9 H 1.6874 1.1539 0.0025
C12 C 1.7987(5) 1.0148(4) -0.0689(4)
C13 C 1.8587(5) 0.8762(4) -0.0397(4)
C14 C 1.8180(6) 1.1090(4) -0.1953(4)
C15 C 0.8559(6) 0.2433(4) 0.4229(4)
H10 H 0.9173 0.3203 0.3984
C16 C 0.6512(7) 0.1002(5) 0.5114(5)
H11 H 0.5457 0.0594 0.5585
C17 C 0.7891(7) 0.0475(5) 0.4469(5)
H12 H 0.7952 -0.0368 0.4417
C18 C 0.5867(7) 0.3167(5) 0.5532(5)
H13 H 0.6450 0.3225 0.6091
H14 H 0.4716 0.2798 0.5977
C19 C 0.5587(7) 0.4544(5) 0.4686(4)
H15 H 0.5036 0.4488 0.4110
H16 H 0.6733 0.4931 0.4261
N1 N 1.8507(4) 0.8033(3) 0.0782(3)
N2 N 0.9202(5) 0.1383(3) 0.3897(3)
N3 N 0.6944(5) 0.2248(4) 0.4949(3)
O1 O 1.3900(4) 0.1834(3) 0.2284(3)
O2 O 1.1957(4) 0.3524(3) 0.2298(4)
O4 O 1.9218(4) 0.8152(3) -0.1114(3)
O6 O 1.8382(5) 1.0623(3) -0.2773(3)
O7 O 1.8152(5) 1.2299(3) -0.2141(3)
Zn1A Zn -0.14117(7) 0.87397(5) 0.73289(5)
Zn1A_2 Zn 1.85883(7) 0.87397(5) -0.26711(5)
C1A C 1.6457(6) 0.6943(5) -0.2135(4)
C2A C 1.4986(6) 0.6012(4) -0.1763(4)
C3A C 1.3251(6) 0.6492(4) -0.1748(4)
H1A H 1.2957 0.7404 -0.1916
C4A C 1.1942(6) 0.5624(4) -0.1486(4)
H2A H 1.0768 0.5952 -0.1455
C5A C 1.2368(5) 0.4275(4) -0.1270(4)
C6A C 1.4094(6) 0.3784(4) -0.1255(5)
H3A H 1.4383 0.2872 -0.1083
C7A C 1.5397(6) 0.4646(5) -0.1495(5)
H4A H 1.6557 0.4308 -0.1476
C8A C 1.0910(6) 0.3389(4) -0.1106(4)
H5A H 0.9885 0.3505 -0.0492
H6A H 1.0540 0.3675 -0.1838
C9A C 1.2203(6) 0.1438(5) -0.1653(4)
H7A H 1.2249 0.1971 -0.2439
C10A C 1.2839(7) 0.0153(5) -0.1390(5)
H8A H 1.3352 -0.0197 -0.1990
C11A C 1.2717(6) -0.0645(4) -0.0209(4)
H9A H 1.3126 -0.1539 -0.0025
C12A C 1.2013(5) -0.0148(4) 0.0689(4)
C13A C 1.1413(5) 0.1238(4) 0.0397(4)
C14A C 1.1820(6) -0.1090(4) 0.1953(4)
C15A C 0.1441(6) 0.7567(4) 0.5771(4)
H10A H 0.0827 0.6797 0.6016
C16A C 0.3488(7) 0.8998(5) 0.4886(5)
H11A H 0.4543 0.9406 0.4415
C17A C 0.2109(7) 0.9525(5) 0.5531(5)
H12A H 0.2048 1.0368 0.5583
C18A C 0.4133(7) 0.6833(5) 0.4468(5)
H13A H 0.3550 0.6775 0.3909
H14A H 0.5284 0.7202 0.4023
C19A C 0.4413(7) 0.5456(5) 0.5314(4)
H15A H 0.4964 0.5512 0.5890
H16A H 0.3267 0.5069 0.5739
N1A N 1.1493(4) 0.1967(3) -0.0782(3)
N2A N 0.0798(5) 0.8617(3) 0.6103(3)
N3A N 0.3056(5) 0.7752(4) 0.5051(3)
O1A O 1.6100(4) 0.8166(3) -0.2284(3)
O1A_2 O -0.3900(4) 0.8166(3) 0.7716(3)
O2A O 1.8043(4) 0.6476(3) -0.2298(4)
O2A_2 O -0.1957(4) 0.6476(3) 0.7702(4)
O4A O 1.0782(4) 0.1848(3) 0.1114(3)
O4_2 O -0.0782(4) 0.8152(3) 0.8886(3)
O6A O 1.1618(5) -0.0623(3) 0.2773(3)
O6_2 O -0.1618(5) 1.0623(3) 0.7227(3)
O7A O 1.1848(5) -0.2299(3) 0.2141(3)
O3 O 1.9045(8) 0.4918(6) -0.3691(6)
H17 H 1.9038 0.5285 -0.4464
H18 H 1.8751 0.4054 -0.3414
O5 O 0.8477(9) -0.2763(7) 0.4349(6)
H19 H 0.9476 -0.2301 0.4085
H20 H 0.8866 -0.3497 0.4111
loop_
_geom_bond_atom_site_label_1
_geom_bond_atom_site_label_2
_geom_bond_site_symmetry_1
_geom_bond_site_symmetry_2
Zn1 N2 1_555 1_555
C1 C2 1_555 1_555
C2 C3 1_555 1_555
C3 H1 1_555 1_555
C4 C3 1_555 1_555
H2 C4 1_555 1_555
C5 C4 1_555 1_555
C6 C5 1_555 1_555
H3 C6 1_555 1_555
C7 C2 1_555 1_555
H4 C7 1_555 1_555
C8 C5 1_555 1_555
H5 C8 1_555 1_555
H6 C8 1_555 1_555
C9 H7 1_555 1_555
C10 C9 1_555 1_555
H8 C10 1_555 1_555
C11 C10 1_555 1_555
H9 C11 1_555 1_555
C12 C11 1_555 1_555
C13 C12 1_555 1_555
C14 C12 1_555 1_555
C15 H10 1_555 1_555
C16 H11 1_555 1_555
C17 C16 1_555 1_555
H12 C17 1_555 1_555
C18 H13 1_555 1_555
H14 C18 1_555 1_555
C19 C18 1_555 1_555
H15 C19 1_555 1_555
H16 C19 1_555 1_555
N1 C8 1_555 1_555
N2 C15 1_555 1_555
N3 C15 1_555 1_555
O1 Zn1 1_555 1_555
O2 Zn1 1_555 1_555
O3 H17 1_555 1_555
H18 O3 1_555 1_555
O4 C13 1_555 1_555
O5 H19 1_555 1_555
H20 O5 1_555 1_555
O6 C14 1_555 1_555
O7 C14 1_555 1_555
Zn1A N2A 1_555 1_555
Zn1A_2 O4 1_555 1_555
C1A C2A 1_555 1_555
C2A C3A 1_555 1_555
C3A H1A 1_555 1_555
C4A C3A 1_555 1_555
H2A C4A 1_555 1_555
C5A C4A 1_555 1_555
C6A C5A 1_555 1_555
H3A C6A 1_555 1_555
C7A C2A 1_555 1_555
H4A C7A 1_555 1_555
C8A C5A 1_555 1_555
H5A C8A 1_555 1_555
H6A C8A 1_555 1_555
C9A H7A 1_555 1_555
C10A C9A 1_555 1_555
H8A C10A 1_555 1_555
C11A C10A 1_555 1_555
H9A C11A 1_555 1_555
C12A C11A 1_555 1_555
C13A C12A 1_555 1_555
C14A C12A 1_555 1_555
C15A H10A 1_555 1_555
C16A H11A 1_555 1_555
C17A C16A 1_555 1_555
H12A C17A 1_555 1_555
C18A H13A 1_555 1_555
H14A C18A 1_555 1_555
C19A C19 1_555 1_555
H15A C19A 1_555 1_555
H16A C19A 1_555 1_555
N1A C8A 1_555 1_555
N2A C15A 1_555 1_555
N3A C15A 1_555 1_555
O1A Zn1A_2 1_555 1_555
O1A_2 Zn1A 1_555 1_555
O2A Zn1A_2 1_555 1_555
O2A_2 Zn1A 1_555 1_555
O4A Zn1 1_555 1_555
O4_2 Zn1A 1_555 1_555
O6A Zn1 1_555 1_555
O6_2 Zn1A 1_555 1_555
O7A C14A 1_555 1_555
C1 O1 1_555 1_555
C1 O2 1_555 1_555
C6 C7 1_555 1_555
C9 N1 1_555 1_555
C13 N1 1_555 1_555
C16 N3 1_555 1_555
C17 N2 1_555 1_555
C18 N3 1_555 1_555
O6 Zn1A_2 1_555 1_555
C1A O1A 1_555 1_555
C1A O2A 1_555 1_555
C6A C7A 1_555 1_555
C9A N1A 1_555 1_555
C13A N1A 1_555 1_555
C13A O4A 1_555 1_555
C14A O6A 1_555 1_555
C16A N3A 1_555 1_555
C17A N2A 1_555 1_555
C18A C19A 1_555 1_555
C18A N3A 1_555 1_555

#END
