
#######################################################################
#
#                 Cambridge Crystallographic Data Centre
#                                CCDC 
#
#######################################################################
#
# If this CIF has been generated from an entry in the Cambridge 
# Structural Database, then it will include bibliographic, chemical, 
# crystal, experimental, refinement or atomic coordinate data resulting 
# from the CCDC's data processing and validation procedures.
#
#######################################################################

data_SEHFIW
_symmetry_cell_setting           monoclinic
_symmetry_space_group_name_H-M   'C 2/c'
_symmetry_Int_Tables_number      15
_space_group_name_Hall           '-C 2yn'
loop_
_symmetry_equiv_pos_site_id
_symmetry_equiv_pos_as_xyz
1 x,y,z
2 -x,y,1/2-z
3 1/2+x,1/2+y,z
4 1/2-x,1/2+y,1/2-z
5 -x,-y,-z
6 x,-y,1/2+z
7 1/2-x,1/2-y,-z
8 1/2+x,1/2-y,1/2+z
_cell_length_a                   28.951(3)
_cell_length_b                   7.6653(3)
_cell_length_c                   21.991(4)
_cell_angle_alpha                90
_cell_angle_beta                 128.355(18)
_cell_angle_gamma                90
_cell_volume                     3826.96
loop_
_atom_site_label
_atom_site_type_symbol
_atom_site_fract_x
_atom_site_fract_y
_atom_site_fract_z
Zn1 Zn 0.09682(2) 1.02688(5) 0.51108(3)
C1 C 0.13909(19) 1.0873(5) 0.6750(3)
C2 C 0.20107(17) 1.1191(4) 0.7034(2)
C3 C 0.24645(19) 1.1164(5) 0.7813(2)
H1 H 0.2383 1.0922 0.8152
C4 C 0.3047(2) 1.1489(5) 0.8117(2)
H2 H 0.3351 1.1446 0.8649
C5 C 0.31552(19) 1.1866(5) 0.7617(2)
H3 H 0.3539 1.2101 0.7810
C6 C 0.21338(17) 1.1571(4) 0.6507(2)
C7 C 0.28598(17) 1.2379(4) 0.6327(2)
H4 H 0.3186 1.3195 0.6598
H5 H 0.2524 1.2974 0.5875
C8 C 0.30223(16) 1.0852(4) 0.6055(2)
C9 C 0.29763(17) 0.9138(4) 0.6199(2)
H6 H 0.2817 0.8879 0.6448
C10 C -0.05690(18) 1.5218(5) 0.2918(2)
H7 H -0.0832 1.5852 0.2971
H8 H -0.0800 1.4362 0.2509
C11 C 0.32366(18) 1.1200(5) 0.5657(2)
H9 H 0.3264 1.2350 0.5548
C12 C 0.34108(18) 0.9881(5) 0.5420(2)
H10 H 0.3547 1.0144 0.5144
C13 C 0.33853(16) 0.8156(4) 0.5589(2)
C14 C 0.31644(18) 0.7794(5) 0.5978(2)
H11 H 0.3141 0.6645 0.6093
C15 C 0.36245(17) 0.6740(5) 0.5386(2)
C16 C 0.01154(18) 1.2758(5) 0.3774(2)
H12 H 0.0019 1.1969 0.3390
C17 C 0.04984(19) 1.3961(5) 0.4841(2)
H13 H 0.0736 1.4146 0.5373
C18 C -0.0293(2) 1.6465(5) 0.2701(2)
H14 H -0.0593 1.7181 0.2265
H15 H -0.0016 1.7223 0.3134
N1 N 0.27154(14) 1.1909(4) 0.68387(18)
N2 N 0.05085(14) 1.2472(4) 0.45253(18)
N3 N -0.01232(14) 1.4329(4) 0.36431(18)
N4 N 0.01245(16) 1.5129(4) 0.4332(2)
O1 O 0.13144(14) 1.1004(4) 0.72413(18)
O2 O 0.09898(12) 1.0481(3) 0.60488(16)
O4 O 0.17687(12) 1.1658(3) 0.57884(15)
O5 O 0.01601(11) 0.8890(3) 0.44895(17)
H18 H -0.0200 0.9252 0.4301
H19 H 0.0147 0.7729 0.4453
O6 O 0.36494(12) 0.7002(3) 0.48379(15)
O7 O 0.38123(13) 0.5353(3) 0.57632(16)
O8 O 0.0000 1.5454(5) 0.2500
Zn1A Zn -0.09682(2) 1.02688(5) -0.01108(3)
Zn1F Zn 0.40318(2) 0.47312(5) 0.48892(3)
C1F C 0.36091(19) 0.4127(5) 0.3250(3)
C2F C 0.29893(17) 0.3809(4) 0.2966(2)
C3F C 0.25355(19) 0.3836(5) 0.2187(2)
H1F H 0.2617 0.4078 0.1848
C4F C 0.1953(2) 0.3511(5) 0.1883(2)
H2F H 0.1649 0.3554 0.1351
C5F C 0.18448(19) 0.3134(5) 0.2383(2)
H3F H 0.1461 0.2899 0.2190
C6F C 0.28662(17) 0.3429(4) 0.3493(2)
C7F C 0.21402(17) 0.2621(4) 0.3673(2)
H4F H 0.1814 0.1805 0.3402
H5F H 0.2476 0.2026 0.4125
C8F C 0.19777(16) 0.4148(4) 0.3945(2)
C9F C 0.20237(17) 0.5862(4) 0.3801(2)
H6F H 0.2183 0.6121 0.3552
C10A C 0.05690(18) 1.5218(5) 0.2082(2)
H7A H 0.0832 1.5852 0.2029
H8A H 0.0800 1.4362 0.2491
C11F C 0.17634(18) 0.3800(5) 0.4343(2)
H9F H 0.1736 0.2650 0.4452
C12F C 0.15892(18) 0.5119(5) 0.4580(2)
H10F H 0.1453 0.4856 0.4856
C13F C 0.16147(16) 0.6844(4) 0.4411(2)
C14F C 0.18356(18) 0.7206(5) 0.4022(2)
H11F H 0.1859 0.8355 0.3907
C15F C 0.13755(17) 0.8260(5) 0.4614(2)
C16A C -0.01154(18) 1.2758(5) 0.1226(2)
H12A H -0.0019 1.1969 0.1610
C17A C -0.04984(19) 1.3961(5) 0.0159(2)
H13A H -0.0736 1.4146 -0.0373
C18A C 0.0293(2) 1.6465(5) 0.2299(2)
H14A H 0.0593 1.7181 0.2735
H15A H 0.0016 1.7223 0.1866
N1F N 0.22846(14) 0.3091(4) 0.31613(18)
N2A N -0.05085(14) 1.2472(4) 0.04747(18)
N3A N 0.01232(14) 1.4329(4) 0.13569(18)
N4A N -0.01245(16) 1.5129(4) 0.0668(2)
O1F O 0.36856(14) 0.3996(4) 0.27587(18)
O2F O 0.40102(12) 0.4519(3) 0.39512(16)
O2A O -0.09898(12) 1.0481(3) -0.10488(16)
O4F O 0.32313(12) 0.3342(3) 0.42116(15)
O4A O -0.17687(12) 1.1658(3) -0.07884(15)
O5A O -0.01601(11) 0.8890(3) 0.05105(17)
H18A H 0.0200 0.9252 0.0699
H19A H -0.0147 0.7729 0.0547
O6F O 0.13506(12) 0.7998(3) 0.51621(15)
O6G O -0.13506(12) 0.7998(3) -0.01621(15)
O7F O 0.11877(13) 0.9647(3) 0.42368(16)
O7G O -0.11877(13) 0.9647(3) 0.07632(16)
O3 O 0.07836(13) 0.9119(3) 0.77556(17)
H16 H 0.0902 0.9534 0.8212
H17 H 0.0877 0.9901 0.7547
loop_
_geom_bond_atom_site_label_1
_geom_bond_atom_site_label_2
_geom_bond_site_symmetry_1
_geom_bond_site_symmetry_2
Zn1 N2 1_555 1_555
C1 C2 1_555 1_555
C2 C3 1_555 1_555
C3 H1 1_555 1_555
C4 C3 1_555 1_555
H2 C4 1_555 1_555
C5 C4 1_555 1_555
H3 C5 1_555 1_555
C6 C2 1_555 1_555
C7 H4 1_555 1_555
H5 C7 1_555 1_555
C8 C7 1_555 1_555
C9 C8 1_555 1_555
H6 C9 1_555 1_555
C10 H7 1_555 1_555
H8 C10 1_555 1_555
C11 C8 1_555 1_555
H9 C11 1_555 1_555
C12 C11 1_555 1_555
H10 C12 1_555 1_555
C13 C12 1_555 1_555
C14 C9 1_555 1_555
H11 C14 1_555 1_555
C15 C13 1_555 1_555
C16 H12 1_555 1_555
C17 H13 1_555 1_555
C18 C10 1_555 1_555
H14 C18 1_555 1_555
H15 C18 1_555 1_555
N1 C5 1_555 1_555
N2 C16 1_555 1_555
N3 C10 1_555 1_555
N4 C17 1_555 1_555
O1 C1 1_555 1_555
O2 Zn1 1_555 1_555
O3 H16 1_555 1_555
H17 O3 1_555 1_555
O4 Zn1 1_555 1_555
O5 Zn1 1_555 1_555
H18 O5 1_555 1_555
H19 O5 1_555 1_555
O6 C15 1_555 1_555
O7 C15 1_555 1_555
O8 C18 1_555 1_555
Zn1A N2A 1_555 1_555
Zn1F O6 1_555 1_555
C1F C2F 1_555 1_555
C2F C3F 1_555 1_555
C3F H1F 1_555 1_555
C4F C3F 1_555 1_555
H2F C4F 1_555 1_555
C5F C4F 1_555 1_555
H3F C5F 1_555 1_555
C6F C2F 1_555 1_555
C7F H4F 1_555 1_555
H5F C7F 1_555 1_555
C8F C7F 1_555 1_555
C9F C8F 1_555 1_555
H6F C9F 1_555 1_555
C10A H7A 1_555 1_555
H8A C10A 1_555 1_555
C11F C8F 1_555 1_555
H9F C11F 1_555 1_555
C12F C11F 1_555 1_555
H10F C12F 1_555 1_555
C13F C12F 1_555 1_555
C14F C9F 1_555 1_555
H11F C14F 1_555 1_555
C15F C13F 1_555 1_555
C16A H12A 1_555 1_555
C17A H13A 1_555 1_555
C18A O8 1_555 1_555
H14A C18A 1_555 1_555
H15A C18A 1_555 1_555
N1F C5F 1_555 1_555
N2A C16A 1_555 1_555
N3A C10A 1_555 1_555
N4A C17A 1_555 1_555
O1F C1F 1_555 1_555
O2F Zn1F 1_555 1_555
O2A Zn1A 1_555 1_555
O4F Zn1F 1_555 1_555
O4A Zn1A 1_555 1_555
O5A Zn1A 1_555 1_555
H18A O5A 1_555 1_555
H19A O5A 1_555 1_555
O6F Zn1 1_555 1_555
O6G Zn1A 1_555 1_555
O7F Zn1 1_555 1_555
O7G Zn1A 1_555 1_555
C1 O2 1_555 1_555
C6 N1 1_555 1_555
C6 O4 1_555 1_555
C7 N1 1_555 1_555
C13 C14 1_555 1_555
C16 N3 1_555 1_555
C17 N2 1_555 1_555
N3 N4 1_555 1_555
O7 Zn1F 1_555 1_555
C1F O2F 1_555 1_555
C6F N1F 1_555 1_555
C6F O4F 1_555 1_555
C7F N1F 1_555 1_555
C10A C18A 1_555 1_555
C13F C14F 1_555 1_555
C15F O6F 1_555 1_555
C15F O7F 1_555 1_555
C16A N3A 1_555 1_555
C17A N2A 1_555 1_555
N3A N4A 1_555 1_555

#END
