
#######################################################################
#
#                 Cambridge Crystallographic Data Centre
#                                CCDC 
#
#######################################################################
#
# If this CIF has been generated from an entry in the Cambridge 
# Structural Database, then it will include bibliographic, chemical, 
# crystal, experimental, refinement or atomic coordinate data resulting 
# from the CCDC's data processing and validation procedures.
#
#######################################################################

data_SEHGOD
_symmetry_cell_setting           triclinic
_symmetry_space_group_name_H-M   'P -1'
_symmetry_Int_Tables_number      2
_space_group_name_Hall           '-P 1'
loop_
_symmetry_equiv_pos_site_id
_symmetry_equiv_pos_as_xyz
1 x,y,z
2 -x,-y,-z
_cell_length_a                   9.6198(5)
_cell_length_b                   10.3436(6)
_cell_length_c                   10.9062(6)
_cell_angle_alpha                68.259(5)
_cell_angle_beta                 85.928(4)
_cell_angle_gamma                86.388(4)
_cell_volume                     1004.68
loop_
_atom_site_label
_atom_site_type_symbol
_atom_site_fract_x
_atom_site_fract_y
_atom_site_fract_z
Ni1 Ni 1.0000 0.0000 0.5000
Ni2 Ni 1.0000 -0.5000 1.5000
C1 C 1.2133(4) -0.3987(4) 1.2765(4)
C2 C 1.2610(4) -0.3742(4) 1.1354(4)
C3 C 1.1688(4) -0.3726(4) 1.0431(4)
H1 H 1.0771 -0.3966 1.0705
C4 C 1.2100(4) -0.3363(4) 0.9119(4)
H2 H 1.1453 -0.3339 0.8515
C5 C 1.3473(4) -0.3031(4) 0.8681(4)
C6 C 1.4399(4) -0.3112(5) 0.9617(4)
H3 H 1.5331 -0.2937 0.9354
C7 C 1.3990(4) -0.3442(5) 1.0927(4)
H4 H 1.4638 -0.3465 1.1529
C8 C 1.3922(4) -0.2516(4) 0.7236(4)
H5 H 1.4851 -0.2891 0.7122
H6 H 1.3290 -0.2831 0.6760
C9 C 1.5075(4) -0.0334(4) 0.6779(4)
H7 H 1.5882 -0.0873 0.7072
C10 C 1.5094(4) 0.1060(4) 0.6449(5)
H8 H 1.5908 0.1484 0.6481
C11 C 1.3870(4) 0.1841(4) 0.6064(4)
H9 H 1.3855 0.2794 0.5883
C12 C 1.2685(3) 0.1250(4) 0.5944(3)
C13 C 1.2686(3) -0.0218(4) 0.6215(3)
C14 C 1.1391(4) 0.2170(4) 0.5579(3)
C15 C 1.1376(4) 0.2099(4) 0.2386(4)
H10 H 1.1250 0.2869 0.2635
C16 C 1.1755(4) 0.2153(4) 0.1157(4)
H11 H 1.1926 0.2946 0.0411
C17 C 1.1495(4) -0.0009(4) 0.2481(4)
H12 H 1.1469 -0.0975 0.2787
C18 C 1.1971(4) 0.0307(5) 0.0126(4)
H13 H 1.2329 -0.0652 0.0435
H14 H 1.2634 0.0867 -0.0541
C19 C 1.0569(4) 0.0400(5) -0.0489(4)
H15 H 1.0263 0.1372 -0.0875
H16 H 1.0699 0.0043 -0.1198
N1 N 1.3919(3) -0.0966(3) 0.6695(3)
N2 N 1.1200(3) 0.0729(3) 0.3228(3)
N3 N 1.1837(3) 0.0789(4) 0.1229(3)
O1 O 1.0919(3) -0.4395(3) 1.3125(3)
O2 O 1.2960(3) -0.3739(4) 1.3474(3)
O3 O 1.1709(2) -0.0889(2) 0.6088(2)
O4 O 1.0312(2) 0.1751(2) 0.5281(3)
O5 O 1.1432(2) -0.3974(2) 1.5637(3)
H17 H 1.0825 -0.3237 1.5410
H18 H 1.1994 -0.3866 1.4923
O6 O 1.1445(3) 0.3364(3) 0.5592(3)
Ni1_2 Ni 1.0000 -1.0000 2.5000
Ni1_3 Ni 1.0000 0.0000 -0.5000
Ni2_2 Ni 1.0000 -1.5000 2.5000
Ni2_3 Ni 1.0000 0.5000 0.5000
C1A C 0.7867(4) -0.6013(4) 1.7235(4)
C2A C 0.7390(4) -0.6258(4) 1.8646(4)
C3A C 0.8312(4) -0.6274(4) 1.9569(4)
H1A H 0.9229 -0.6034 1.9295
C4A C 0.7900(4) -0.6637(4) 2.0881(4)
H2A H 0.8547 -0.6661 2.1485
C5A C 0.6527(4) -0.6969(4) 2.1319(4)
C6A C 0.5601(4) -0.6888(5) 2.0383(4)
H3A H 0.4669 -0.7063 2.0646
C7A C 0.6010(4) -0.6558(5) 1.9073(4)
H4A H 0.5362 -0.6535 1.8471
C8A C 0.6078(4) -0.7484(4) 2.2764(4)
H5A H 0.5149 -0.7109 2.2878
H6A H 0.6710 -0.7169 2.3240
C9A C 0.4925(4) -0.9666(4) 2.3221(4)
H7A H 0.4118 -0.9127 2.2928
C10A C 0.4906(4) -1.1060(4) 2.3551(5)
H8A H 0.4092 -1.1484 2.3519
C11A C 0.6130(4) -1.1841(4) 2.3936(4)
H9A H 0.6145 -1.2794 2.4117
C12A C 0.7315(3) -1.1250(4) 2.4056(3)
C13A C 0.7314(3) -0.9782(4) 2.3785(3)
C14A C 0.8609(4) -1.2170(4) 2.4421(3)
C15A C 0.8624(4) -0.2099(4) -0.2386(4)
H10A H 0.8750 -0.2869 -0.2635
C16A C 0.8245(4) -0.2153(4) -0.1157(4)
H11A H 0.8074 -0.2946 -0.0411
C17A C 0.8505(4) 0.0009(4) -0.2481(4)
H12A H 0.8531 0.0975 -0.2787
C18A C 0.8029(4) -0.0307(5) -0.0126(4)
H13A H 0.7671 0.0652 -0.0435
H14A H 0.7366 -0.0867 0.0541
C19A C 0.9431(4) -0.0400(5) 0.0489(4)
H15A H 0.9737 -0.1372 0.0875
H16A H 0.9301 -0.0043 0.1198
N1A N 0.6081(3) -0.9034(3) 2.3305(3)
N2A N 0.8800(3) -0.0729(3) -0.3228(3)
N2A_2 N 0.8800(3) -0.0729(3) 0.6772(3)
N3A N 0.8163(3) -0.0789(4) -0.1229(3)
O1A O 0.9081(3) -0.5605(3) 1.6875(3)
O2A O 0.7040(3) -0.6261(4) 1.6526(3)
O3A O 0.8291(2) -0.9111(2) 2.3912(2)
O3A_2 O 0.8291(2) 0.0889(2) 0.3912(2)
O4A O 0.9688(2) -1.1751(2) 2.4719(3)
O4A_2 O 0.9688(2) -0.1751(2) 0.4719(3)
O5A O 0.8568(2) -0.6026(2) 1.4363(3)
H17A H 0.9175 -0.6763 1.4590
H18A H 0.8006 -0.6134 1.5077
O6A O 0.8555(3) -1.3364(3) 2.4408(3)
O6_2 O 1.1445(3) -0.6636(3) 1.5592(3)
O6A_2 O 0.8555(3) -0.3364(3) 1.4408(3)
O7 O 1.4582(7) 0.5108(9) 0.5890(8)
O8 O 1.2357(5) 0.3744(4) -0.1966(3)
H19 H 1.2775 0.4204 -0.1546
H20 H 1.2961 0.3781 -0.2648
loop_
_geom_bond_atom_site_label_1
_geom_bond_atom_site_label_2
_geom_bond_site_symmetry_1
_geom_bond_site_symmetry_2
Ni1 N2 1_555 1_555
Ni2 O1 1_555 1_555
C1 C2 1_555 1_555
C2 C3 1_555 1_555
C3 H1 1_555 1_555
C4 C3 1_555 1_555
H2 C4 1_555 1_555
C5 C4 1_555 1_555
C6 C5 1_555 1_555
H3 C6 1_555 1_555
C7 C2 1_555 1_555
H4 C7 1_555 1_555
C8 C5 1_555 1_555
H5 C8 1_555 1_555
H6 C8 1_555 1_555
C9 H7 1_555 1_555
C10 C9 1_555 1_555
H8 C10 1_555 1_555
C11 C10 1_555 1_555
H9 C11 1_555 1_555
C12 C11 1_555 1_555
C13 C12 1_555 1_555
C14 C12 1_555 1_555
C15 H10 1_555 1_555
C16 C15 1_555 1_555
H11 C16 1_555 1_555
C17 H12 1_555 1_555
C18 H13 1_555 1_555
H14 C18 1_555 1_555
C19 C18 1_555 1_555
H15 C19 1_555 1_555
H16 C19 1_555 1_555
N1 C8 1_555 1_555
N2 C15 1_555 1_555
N3 C16 1_555 1_555
O1 C1 1_555 1_555
O2 C1 1_555 1_555
O3 Ni1 1_555 1_555
O4 Ni1 1_555 1_555
O5 Ni2 1_555 1_555
H17 O5 1_555 1_555
H18 O5 1_555 1_555
O6 C14 1_555 1_555
O8 H19 1_555 1_555
H20 O8 1_555 1_555
Ni1_2 O3A 1_555 1_555
Ni1_3 N2A 1_555 1_555
Ni2_2 O6A 1_555 1_555
Ni2_3 O6 1_555 1_555
C1A C2A 1_555 1_555
C2A C3A 1_555 1_555
C3A H1A 1_555 1_555
C4A C3A 1_555 1_555
H2A C4A 1_555 1_555
C5A C4A 1_555 1_555
C6A C5A 1_555 1_555
H3A C6A 1_555 1_555
C7A C2A 1_555 1_555
H4A C7A 1_555 1_555
C8A C5A 1_555 1_555
H5A C8A 1_555 1_555
H6A C8A 1_555 1_555
C9A H7A 1_555 1_555
C10A C9A 1_555 1_555
H8A C10A 1_555 1_555
C11A C10A 1_555 1_555
H9A C11A 1_555 1_555
C12A C11A 1_555 1_555
C13A C12A 1_555 1_555
C14A C12A 1_555 1_555
C15A H10A 1_555 1_555
C16A C15A 1_555 1_555
H11A C16A 1_555 1_555
C17A H12A 1_555 1_555
C18A H13A 1_555 1_555
H14A C18A 1_555 1_555
C19A C19 1_555 1_555
H15A C19A 1_555 1_555
H16A C19A 1_555 1_555
N1A C8A 1_555 1_555
N2A C15A 1_555 1_555
N2A_2 Ni1 1_555 1_555
N3A C16A 1_555 1_555
O1A Ni2 1_555 1_555
O2A C1A 1_555 1_555
O3A C13A 1_555 1_555
O3A_2 Ni1 1_555 1_555
O4A Ni1_2 1_555 1_555
O4A_2 Ni1 1_555 1_555
O5A Ni2 1_555 1_555
H17A O5A 1_555 1_555
H18A O5A 1_555 1_555
O6A C14A 1_555 1_555
O6_2 Ni2 1_555 1_555
O6A_2 Ni2 1_555 1_555
C6 C7 1_555 1_555
C9 N1 1_555 1_555
C13 N1 1_555 1_555
C13 O3 1_555 1_555
C14 O4 1_555 1_555
C17 N2 1_555 1_555
C17 N3 1_555 1_555
C18 N3 1_555 1_555
C1A O1A 1_555 1_555
C6A C7A 1_555 1_555
C9A N1A 1_555 1_555
C13A N1A 1_555 1_555
C14A O4A 1_555 1_555
C17A N2A 1_555 1_555
C17A N3A 1_555 1_555
C18A C19A 1_555 1_555
C18A N3A 1_555 1_555

#END
