
#######################################################################
#
#                 Cambridge Crystallographic Data Centre
#                                CCDC 
#
#######################################################################
#
# If this CIF has been generated from an entry in the Cambridge 
# Structural Database, then it will include bibliographic, chemical, 
# crystal, experimental, refinement or atomic coordinate data resulting 
# from the CCDC's data processing and validation procedures.
#
#######################################################################

data_SEHGET
_symmetry_cell_setting           triclinic
_symmetry_space_group_name_H-M   'P -1'
_symmetry_Int_Tables_number      2
_space_group_name_Hall           '-P 1'
loop_
_symmetry_equiv_pos_site_id
_symmetry_equiv_pos_as_xyz
1 x,y,z
2 -x,-y,-z
_cell_length_a                   11.5330(6)
_cell_length_b                   14.2920(6)
_cell_length_c                   29.3170(8)
_cell_angle_alpha                92.071(3)
_cell_angle_beta                 90.977(3)
_cell_angle_gamma                103.047(4)
_cell_volume                     4702.91
loop_
_atom_site_label
_atom_site_type_symbol
_atom_site_fract_x
_atom_site_fract_y
_atom_site_fract_z
Cd1 Cd -0.09738(4) 1.25428(3) 1.154029(13)
Cd2 Cd -0.11828(4) 0.63924(3) 0.955682(14)
Cd3 Cd -0.13759(4) 0.03240(3) 0.754457(13)
Cd4 Cd 0.10474(4) 1.14417(3) 1.648290(13)
Cd5 Cd 0.12833(4) 0.55751(3) 1.448150(14)
C1 C -0.2381(5) 1.1032(5) 1.1050(2)
C2 C -0.3022(5) 1.0201(4) 1.0741(2)
C3 C -0.3356(6) 0.9280(4) 1.0894(2)
H1 H -0.3216 0.9164 1.1197
C4 C -0.3904(6) 0.8522(4) 1.0595(2)
H2 H -0.4139 0.7906 1.0703
C5 C -0.4104(5) 0.8675(4) 1.0136(2)
C6 C -0.3759(6) 0.9599(4) 0.9988(2)
H3 H -0.3878 0.9718 0.9683
C7 C -0.3232(5) 1.0359(4) 1.0290(2)
H4 H -0.3021 1.0979 1.0186
C8 C -0.4687(6) 0.7847(4) 0.9812(2)
H5 H -0.4605 0.7246 0.9938
H6 H -0.5529 0.7831 0.9779
C9 C -0.3032(5) 0.7726(4) 0.93199(19)
C10 C -0.2459(5) 0.7945(4) 0.88925(19)
C11 C -0.3032(5) 0.8308(4) 0.8556(2)
H7 H -0.2660 0.8439 0.8279
C12 C -0.4156(6) 0.8490(5) 0.8613(2)
H8 H -0.4535 0.8736 0.8378
C13 C -0.4685(5) 0.8302(5) 0.9016(2)
H9 H -0.5437 0.8421 0.9059
C14 C -0.1232(5) 0.7800(4) 0.88177(19)
C15 C -0.0140(5) 1.2394(4) 1.25769(18)
H10 H 0.0424 1.2064 1.2477
C16 C -0.1548(6) 1.3141(5) 1.2583(2)
H11 H -0.2154 1.3425 1.2485
C17 C -0.1196(6) 1.3113(5) 1.3019(2)
H12 H -0.1501 1.3373 1.3273
C18 C 0.0419(6) 1.2423(5) 1.34000(19)
H13 H 0.1046 1.2989 1.3474
H14 H 0.0795 1.1905 1.3310
C19 C -0.0288(6) 1.2150(5) 1.3821(2)
H15 H -0.0930 1.1594 1.3748
H16 H -0.0640 1.2676 1.3921
C20 C 0.0478(6) 1.1920(5) 1.42039(19)
H17 H 0.0823 1.1388 1.4107
H18 H 0.1124 1.2473 1.4277
C21 C -0.0244(6) 1.1661(5) 1.4620(2)
H19 H -0.0591 1.2194 1.4713
H20 H -0.0890 1.1110 1.4544
C22 C 0.0292(6) 1.1639(4) 1.5448(2)
H21 H -0.0276 1.1965 1.5547
C23 C 0.1702(6) 1.0877(4) 1.5439(2)
H22 H 0.2301 1.0583 1.5536
C24 C 0.1359(7) 1.0934(5) 1.5002(2)
H23 H 0.1667 1.0684 1.4746
C25 C -0.2619(6) 0.4870(5) 0.9061(2)
C26 C -0.3253(5) 0.4098(4) 0.8720(2)
C27 C -0.3681(7) 0.3148(5) 0.8837(3)
H24 H -0.3623 0.2980 0.9138
C28 C -0.4194(6) 0.2452(4) 0.8507(2)
H25 H -0.4487 0.1824 0.8592
C29 C -0.4279(6) 0.2670(5) 0.8057(2)
C30 C -0.3858(5) 0.3621(4) 0.7940(2)
H26 H -0.3914 0.3787 0.7638
C31 C -0.3357(5) 0.4320(4) 0.8269(2)
H27 H -0.3086 0.4951 0.8185
C32 C -0.4836(5) 0.1899(5) 0.7697(3)
H28 H -0.4838 0.1271 0.7813
H29 H -0.5656 0.1931 0.7639
C33 C -0.4603(7) 0.2438(5) 0.6912(3)
H30 H -0.5338 0.2599 0.6931
C34 C -0.3985(7) 0.2629(5) 0.6533(3)
H31 H -0.4281 0.2919 0.6293
C35 C -0.2883(6) 0.2384(4) 0.6506(2)
H32 H -0.2448 0.2506 0.6242
C36 C -0.2432(5) 0.1969(4) 0.6858(2)
C37 C -0.3092(5) 0.1732(4) 0.7267(2)
C38 C -0.1192(5) 0.1791(4) 0.6822(2)
C39 C -0.2376(5) 1.7041(5) 1.3014(2)
C40 C -0.2996(5) 1.6218(4) 1.2709(2)
C41 C -0.3368(6) 1.5304(5) 1.2868(2)
H33 H -0.3269 1.5195 1.3175
C42 C -0.3888(6) 1.4553(5) 1.2568(3)
H34 H -0.4163 1.3943 1.2679
C43 C -0.4008(5) 1.4690(4) 1.2108(2)
C44 C -0.3648(5) 1.5603(4) 1.1948(2)
H35 H -0.3749 1.5710 1.1640
C45 C -0.3135(5) 1.6358(4) 1.2249(2)
H36 H -0.2878 1.6971 1.2139
C46 C -0.4566(5) 1.3855(5) 1.1784(2)
H37 H -0.5413 1.3820 1.1750
H38 H -0.4464 1.3259 1.1909
C47 C -0.4583(6) 1.4312(5) 1.0987(3)
H39 H -0.5353 1.4396 1.1026
C48 C -0.4050(7) 1.4528(5) 1.0593(3)
H40 H -0.4436 1.4773 1.0360
C49 C -0.2884(6) 1.4380(4) 1.0535(2)
H41 H -0.2515 1.4518 1.0258
C50 C -0.2292(5) 1.4040(4) 1.0876(2)
C51 C -0.2868(5) 1.3795(4) 1.1299(2)
C52 C -0.1031(5) 1.3949(4) 1.0813(2)
C53 C 0.0886(5) 0.9967(4) 1.71966(19)
C54 C 0.2147(5) 0.9868(4) 1.71749(18)
C55 C 0.2637(6) 0.9498(4) 1.7526(2)
H42 H 0.2188 0.9345 1.7785
C56 C 0.3786(6) 0.9333(5) 1.7521(3)
H43 H 0.4100 0.9076 1.7769
C57 C 0.4425(6) 0.9563(5) 1.7141(3)
H44 H 0.5189 0.9456 1.7127
C58 C 0.2847(5) 1.0133(4) 1.6778(2)
C59 C 0.4652(6) 1.0083(5) 1.6357(3)
H45 H 0.5478 1.0075 1.6421
H46 H 0.4630 1.0705 1.6240
C60 C 0.4133(5) 0.9303(4) 1.6001(2)
C61 C 0.4173(6) 0.9507(5) 1.5549(2)
H47 H 0.4531 1.0123 1.5463
C62 C 0.3687(7) 0.8807(5) 1.5219(3)
H48 H 0.3691 0.8965 1.4914
C63 C 0.3197(5) 0.7879(5) 1.5335(2)
C64 C 0.3207(5) 0.7656(4) 1.5791(2)
H49 H 0.2902 0.7029 1.5875
C65 C 0.3672(5) 0.8367(4) 1.6122(2)
H50 H 0.3673 0.8214 1.6428
C66 C 0.2624(6) 0.7120(6) 1.4994(2)
C67 C -0.1009(5) -0.4069(4) 0.4813(2)
C68 C -0.2249(5) -0.3923(4) 0.48235(19)
C69 C -0.2671(5) -0.3511(4) 0.4461(2)
H51 H -0.2194 -0.3371 0.4209
C70 C -0.3786(6) -0.3294(5) 0.4455(2)
H52 H -0.4057 -0.3017 0.4204
C71 C -0.4470(6) -0.3499(4) 0.4828(2)
H53 H -0.5211 -0.3344 0.4836
C72 C -0.2992(5) -0.4183(4) 0.5210(2)
C73 C -0.4799(5) -0.4061(4) 0.5602(2)
H54 H -0.4828 -0.4696 0.5714
H55 H -0.5607 -0.4020 0.5525
C74 C -0.4289(5) -0.3307(4) 0.5977(2)
C75 C -0.3799(5) -0.2359(4) 0.5877(2)
H56 H -0.3775 -0.2180 0.5575
C76 C -0.3348(5) -0.1682(4) 0.6218(2)
H57 H -0.3036 -0.1048 0.6147
C77 C -0.3360(5) -0.1946(4) 0.6670(2)
C78 C -0.3844(5) -0.2886(4) 0.6771(2)
H58 H -0.3852 -0.3067 0.7073
C79 C -0.4313(6) -0.3560(4) 0.6431(2)
H59 H -0.4649 -0.4189 0.6504
C80 C -0.2757(5) -0.1218(5) 0.7039(2)
C81 C -0.0525(5) 0.0199(4) 0.8574(2)
H60 H 0.0020 -0.0149 0.8474
C82 C -0.1926(6) 0.0965(5) 0.8580(2)
H61 H -0.2535 0.1246 0.8484
C83 C -0.1507(7) 0.0977(5) 0.9018(2)
H62 H -0.1774 0.1264 0.9273
C84 C 0.0167(6) 0.0341(6) 0.9383(2)
H63 H 0.0760 0.0935 0.9443
H64 H 0.0584 -0.0146 0.9284
C85 C -0.0425(6) 0.0048(6) 0.9812(2)
H65 H -0.0989 -0.0562 0.9758
H66 H -0.0868 0.0520 0.9908
C86 C 0.1917(6) 0.4994(5) 1.3444(2)
H67 H 0.2523 0.4708 1.3541
C87 C 0.1539(6) 0.5022(5) 1.3003(2)
H68 H 0.1829 0.4761 1.2746
C88 C 0.0509(6) 0.5765(4) 1.34503(19)
H69 H -0.0039 0.6111 1.3548
C89 C -0.0086(6) 0.5701(5) 1.2631(2)
H70 H -0.0472 0.6210 1.2726
H71 H -0.0706 0.5129 1.2561
C90 C 0.0569(5) 0.5980(5) 1.2210(2)
H72 H 0.0966 0.5479 1.2114
H73 H 0.1174 0.6565 1.2274
C91 C -0.0262(5) 0.6144(5) 1.18250(19)
H74 H -0.0869 0.5560 1.1764
H75 H -0.0658 0.6646 1.1922
C92 C 0.0377(6) 0.6422(5) 1.1401(2)
H76 H 0.0985 0.7005 1.1465
H77 H 0.0776 0.5920 1.1307
C93 C -0.0294(6) 0.6297(4) 1.05903(19)
H78 H 0.0253 0.5949 1.0493
C94 C -0.1699(6) 0.7044(5) 1.0598(2)
H79 H -0.2322 0.7314 1.0504
C95 C -0.1276(7) 0.7059(5) 1.1027(2)
H80 H -0.1545 0.7346 1.1282
N1 N -0.4141(4) 0.7944(4) 0.93595(17)
N2 N -0.4017(4) 1.3969(3) 1.13353(18)
N3 N -0.4193(4) 0.2013(4) 0.7270(2)
N4 N -0.0888(4) 1.2692(3) 1.23033(16)
N5 N -0.0288(4) 1.2621(3) 1.30166(15)
N6 N 0.0469(5) 1.1430(4) 1.50065(16)
N7 N 0.1026(5) 1.1322(3) 1.57208(16)
N8 N -0.1305(4) 0.0470(3) 0.83052(16)
N9 N -0.0617(5) 0.0487(4) 0.90090(17)
N10 N 0.3979(4) 0.9944(4) 1.67834(19)
N11 N -0.4080(4) -0.3929(3) 0.51892(16)
N12 N 0.1256(4) 0.5457(4) 1.37226(16)
N13 N 0.0647(4) 0.5510(4) 1.30135(15)
N14 N -0.0388(4) 0.6583(4) 1.10247(16)
N15 N -0.1060(5) 0.6562(4) 1.03180(16)
O1 O -0.2316(4) 1.1861(3) 1.09278(17)
O2 O -0.1903(4) 1.0851(3) 1.14111(15)
O3 O -0.2631(4) 0.7362(3) 0.96505(13)
O4 O -0.0545(3) 0.7747(3) 0.91509(14)
O5 O -0.0909(4) 0.7747(3) 0.84096(13)
O6 O -0.0675(4) 1.3932(3) 1.04056(14)
O7 O -0.0372(3) 1.3923(3) 1.11504(13)
O8 O -0.2464(4) 1.3454(3) 1.16352(14)
O9 O -0.2207(5) 0.4632(3) 0.94253(17)
O10 O -0.2502(4) 0.5724(3) 0.89633(16)
O11 O -0.2266(4) 1.7884(3) 1.28830(17)
O12 O -0.1977(4) 1.6872(3) 1.33928(16)
O13 O -0.0617(3) 0.1691(3) 0.71753(13)
O14 O -0.0794(4) 0.1784(3) 0.64303(15)
O15 O -0.2818(4) 0.1318(3) 0.76056(14)
O16 O 0.0423(4) 0.9930(3) 1.75786(14)
O17 O 0.0324(3) 1.0045(3) 1.68348(13)
O18 O 0.2546(4) 1.0516(3) 1.64345(14)
O19 O -0.2447(4) -0.1483(3) 0.74086(16)
O20 O -0.2581(4) -0.0335(3) 0.69440(16)
O21 O -0.2747(3) -0.4597(3) 0.55494(13)
O22 O -0.0468(3) -0.4194(3) 0.51821(14)
O23 O -0.0492(4) -0.4006(3) 0.44346(15)
O24 O 0.2324(5) 0.7352(4) 1.46068(17)
O25 O 0.2418(4) 0.6262(4) 1.50984(17)
Cd1A Cd 0.09738(4) 0.74572(3) 0.845971(13)
Cd2A Cd 0.11828(4) 1.36076(3) 1.044318(14)
Cd2_2 Cd -0.11828(4) 1.63924(3) 1.955682(14)
Cd3_2 Cd -0.13759(4) 1.03240(3) 1.754457(13)
Cd3A Cd 0.13759(4) -0.03240(3) 1.245543(13)
Cd3A_2 Cd 0.13759(4) 1.96760(3) 1.245543(13)
Cd4A Cd -0.10474(4) 1.85583(3) 1.351710(13)
Cd4_2 Cd 0.10474(4) 0.14417(3) 0.648290(13)
Cd4A_2 Cd -0.10474(4) 0.85583(3) 0.351710(13)
Cd5A Cd -0.12833(4) 1.44249(3) 0.551850(14)
Cd5A_2 Cd -0.12833(4) -0.55751(3) 0.551850(14)
Cd5_2 Cd 0.12833(4) -0.44249(3) 0.448150(14)
Cd5A_3 Cd -0.12833(4) 2.44249(3) 1.551850(14)
Cd5A_4 Cd -0.12833(4) 0.44249(3) 1.551850(14)
C1A C 0.2381(5) 0.8968(5) 0.8950(2)
C2A C 0.3022(5) 0.9799(4) 0.9259(2)
C3A C 0.3356(6) 1.0720(4) 0.9106(2)
H1A H 0.3216 1.0836 0.8803
C4A C 0.3904(6) 1.1478(4) 0.9405(2)
H2A H 0.4139 1.2094 0.9297
C5A C 0.4104(5) 1.1325(4) 0.9864(2)
C6A C 0.3759(6) 1.0401(4) 1.0012(2)
H3A H 0.3878 1.0282 1.0317
C7A C 0.3232(5) 0.9641(4) 0.9710(2)
H4A H 0.3021 0.9021 0.9814
C8A C 0.4687(6) 1.2153(4) 1.0188(2)
H5A H 0.4605 1.2754 1.0062
H6A H 0.5529 1.2169 1.0221
C9A C 0.3032(5) 1.2274(4) 1.06801(19)
C10A C 0.2459(5) 1.2055(4) 1.11075(19)
C11A C 0.3032(5) 1.1692(4) 1.1444(2)
H7A H 0.2660 1.1561 1.1721
C12A C 0.4156(6) 1.1510(5) 1.1387(2)
H8A H 0.4535 1.1264 1.1622
C13A C 0.4685(5) 1.1698(5) 1.0984(2)
H9A H 0.5437 1.1579 1.0941
C14A C 0.1232(5) 1.2200(4) 1.11823(19)
C15A C 0.0140(5) 0.7606(4) 0.74231(18)
H10A H -0.0424 0.7936 0.7523
C16A C 0.1548(6) 0.6859(5) 0.7417(2)
H11A H 0.2154 0.6575 0.7515
C17A C 0.1196(6) 0.6887(5) 0.6981(2)
H12A H 0.1501 0.6627 0.6727
C18A C -0.0419(6) 0.7577(5) 0.66000(19)
H13A H -0.1046 0.7011 0.6526
H14A H -0.0795 0.8095 0.6690
C19A C 0.0288(6) 0.7850(5) 0.6179(2)
H15A H 0.0930 0.8406 0.6252
H16A H 0.0640 0.7324 0.6079
C20A C -0.0478(6) 0.8080(5) 0.57961(19)
H17A H -0.0823 0.8612 0.5893
H18A H -0.1124 0.7527 0.5723
C21A C 0.0244(6) 0.8339(5) 0.5380(2)
H19A H 0.0591 0.7806 0.5287
H20A H 0.0890 0.8890 0.5456
C22A C -0.0292(6) 0.8361(4) 0.4552(2)
H21A H 0.0276 0.8035 0.4453
C23A C -0.1702(6) 0.9123(4) 0.4561(2)
H22A H -0.2301 0.9417 0.4464
C24A C -0.1359(7) 0.9066(5) 0.4998(2)
H23A H -0.1667 0.9316 0.5254
C25_2 C -0.2619(6) 1.4870(5) 1.9061(2)
C26_2 C -0.3253(5) 1.4098(4) 1.8720(2)
C27_2 C -0.3681(7) 1.3148(5) 1.8837(3)
H24_2 H -0.3623 1.2980 1.9138
C28_2 C -0.4194(6) 1.2452(4) 1.8507(2)
H25_2 H -0.4487 1.1824 1.8592
C29_2 C -0.4279(6) 1.2670(5) 1.8057(2)
C30_2 C -0.3858(5) 1.3621(4) 1.7940(2)
H26_2 H -0.3914 1.3787 1.7638
C31_2 C -0.3357(5) 1.4320(4) 1.8269(2)
H27_2 H -0.3086 1.4951 1.8185
C32_2 C -0.4836(5) 1.1899(5) 1.7697(3)
H28_2 H -0.4838 1.1271 1.7813
H29_2 H -0.5656 1.1931 1.7639
C33_2 C -0.4603(7) 1.2438(5) 1.6912(3)
H30_2 H -0.5338 1.2599 1.6931
C34_2 C -0.3985(7) 1.2629(5) 1.6533(3)
H31_2 H -0.4281 1.2919 1.6293
C35_2 C -0.2883(6) 1.2384(4) 1.6506(2)
H32_2 H -0.2448 1.2506 1.6242
C36_2 C -0.2432(5) 1.1969(4) 1.6858(2)
C37_2 C -0.3092(5) 1.1732(4) 1.7267(2)
C38_2 C -0.1192(5) 1.1791(4) 1.6822(2)
C39A C 0.2376(5) 0.2959(5) 0.6986(2)
C40A C 0.2996(5) 0.3782(4) 0.7291(2)
C41A C 0.3368(6) 0.4696(5) 0.7132(2)
H33A H 0.3269 0.4805 0.6825
C42A C 0.3888(6) 0.5447(5) 0.7432(3)
H34A H 0.4163 0.6057 0.7321
C43A C 0.4008(5) 0.5310(4) 0.7892(2)
C44A C 0.3648(5) 0.4397(4) 0.8052(2)
H35A H 0.3749 0.4290 0.8360
C45A C 0.3135(5) 0.3642(4) 0.7751(2)
H36A H 0.2878 0.3029 0.7861
C46A C 0.4566(5) 0.6145(5) 0.8216(2)
H37A H 0.5413 0.6180 0.8250
H38A H 0.4464 0.6741 0.8091
C47A C 0.4583(6) 0.5688(5) 0.9013(3)
H39A H 0.5353 0.5604 0.8974
C48A C 0.4050(7) 0.5472(5) 0.9407(3)
H40A H 0.4436 0.5227 0.9640
C49A C 0.2884(6) 0.5620(4) 0.9465(2)
H41A H 0.2515 0.5482 0.9742
C50A C 0.2292(5) 0.5960(4) 0.9124(2)
C51A C 0.2868(5) 0.6205(4) 0.8701(2)
C52A C 0.1031(5) 0.6051(4) 0.9187(2)
C53A C -0.0886(5) 2.0033(4) 1.28034(19)
C54A C -0.2147(5) 2.0132(4) 1.28251(18)
C55A C -0.2637(6) 2.0502(4) 1.2474(2)
H42A H -0.2188 2.0655 1.2215
C56A C -0.3786(6) 2.0667(5) 1.2479(3)
H43A H -0.4100 2.0924 1.2231
C57A C -0.4425(6) 2.0437(5) 1.2859(3)
H44A H -0.5189 2.0544 1.2873
C58A C -0.2847(5) 1.9867(4) 1.3222(2)
C59A C -0.4652(6) 1.9917(5) 1.3643(3)
H45A H -0.5478 1.9925 1.3579
H46A H -0.4630 1.9295 1.3760
C60A C -0.4133(5) 2.0697(4) 1.3999(2)
C61A C -0.4173(6) 2.0493(5) 1.4451(2)
H47A H -0.4531 1.9877 1.4537
C62A C -0.3687(7) 2.1193(5) 1.4781(3)
H48A H -0.3691 2.1035 1.5086
C63A C -0.3197(5) 2.2121(5) 1.4665(2)
C64A C -0.3207(5) 2.2344(4) 1.4209(2)
H49A H -0.2902 2.2971 1.4125
C65A C -0.3672(5) 2.1633(4) 1.3878(2)
H50A H -0.3673 2.1786 1.3572
C66A C -0.2624(6) 2.2880(6) 1.5006(2)
C67A C 0.1009(5) 0.4069(4) 1.5187(2)
C68A C 0.2249(5) 0.3923(4) 1.51765(19)
C69A C 0.2671(5) 0.3511(4) 1.5539(2)
H51A H 0.2194 0.3371 1.5791
C70A C 0.3786(6) 0.3294(5) 1.5545(2)
H52A H 0.4057 0.3017 1.5796
C71A C 0.4470(6) 0.3499(4) 1.5172(2)
H53A H 0.5211 0.3344 1.5164
C72A C 0.2992(5) 0.4183(4) 1.4790(2)
C73A C 0.4799(5) 0.4061(4) 1.4398(2)
H54A H 0.4828 0.4696 1.4286
H55A H 0.5607 0.4020 1.4475
C74A C 0.4289(5) 0.3307(4) 1.4023(2)
C75A C 0.3799(5) 0.2359(4) 1.4123(2)
H56A H 0.3775 0.2180 1.4425
C76A C 0.3348(5) 0.1682(4) 1.3782(2)
H57A H 0.3036 0.1048 1.3853
C77A C 0.3360(5) 0.1946(4) 1.3330(2)
C78A C 0.3844(5) 0.2886(4) 1.3229(2)
H58A H 0.3852 0.3067 1.2927
C79A C 0.4313(6) 0.3560(4) 1.3569(2)
H59A H 0.4649 0.4189 1.3496
C80A C 0.2757(5) 0.1218(5) 1.2961(2)
C81A C 0.0525(5) -0.0199(4) 1.1426(2)
H60A H -0.0020 0.0149 1.1526
C82A C 0.1926(6) -0.0965(5) 1.1420(2)
H61A H 0.2535 -0.1246 1.1516
C83A C 0.1507(7) -0.0977(5) 1.0982(2)
H62A H 0.1774 -0.1264 1.0727
C84A C -0.0167(6) -0.0341(6) 1.0617(2)
H63A H -0.0760 -0.0935 1.0557
H64A H -0.0584 0.0146 1.0716
C85A C 0.0425(6) -0.0048(6) 1.0188(2)
H65A H 0.0989 0.0562 1.0242
H66A H 0.0868 -0.0520 1.0092
C86A C -0.1917(6) 1.5006(5) 0.6556(2)
H67A H -0.2523 1.5292 0.6459
C87A C -0.1539(6) 1.4978(5) 0.6997(2)
H68A H -0.1829 1.5239 0.7254
C88A C -0.0509(6) 1.4235(4) 0.65497(19)
H69A H 0.0039 1.3889 0.6452
C89A C 0.0086(6) 1.4299(5) 0.7369(2)
H70A H 0.0472 1.3790 0.7274
H71A H 0.0706 1.4871 0.7439
C90A C -0.0569(5) 1.4020(5) 0.7790(2)
H72A H -0.0966 1.4521 0.7886
H73A H -0.1174 1.3435 0.7726
C91A C 0.0262(5) 1.3856(5) 0.81750(19)
H74A H 0.0869 1.4440 0.8236
H75A H 0.0658 1.3354 0.8078
C92A C -0.0377(6) 1.3578(5) 0.8599(2)
H76A H -0.0985 1.2995 0.8535
H77A H -0.0776 1.4080 0.8693
C93A C 0.0294(6) 1.3703(4) 0.94097(19)
H78A H -0.0253 1.4051 0.9507
C94A C 0.1699(6) 1.2956(5) 0.9402(2)
H79A H 0.2322 1.2686 0.9496
C95A C 0.1276(7) 1.2941(5) 0.8973(2)
H80A H 0.1545 1.2654 0.8718
N1A N 0.4141(4) 1.2056(4) 1.06405(17)
N2A N 0.4017(4) 0.6031(3) 0.86647(18)
N3_2 N -0.4193(4) 1.2013(4) 1.7270(2)
N4A N 0.0888(4) 0.7308(3) 0.76967(16)
N5A N 0.0288(4) 0.7379(3) 0.69834(15)
N6A N -0.0469(5) 0.8570(4) 0.49935(16)
N7A N -0.1026(5) 0.8678(3) 0.42792(16)
N7A_2 N -0.1026(5) 1.8678(3) 1.42792(16)
N8A N 0.1305(4) -0.0470(3) 1.16948(16)
N8_2 N -0.1305(4) 1.0470(3) 1.83052(16)
N9A N 0.0617(5) -0.0487(4) 1.09910(17)
N10A N -0.3979(4) 2.0056(4) 1.32166(19)
N11A N 0.4080(4) 0.3929(3) 1.48108(16)
N12A N -0.1256(4) 1.4543(4) 0.62774(16)
N13A N -0.0647(4) 1.4490(4) 0.69865(15)
N14A N 0.0388(4) 1.3417(4) 0.89753(16)
N15A N 0.1060(5) 1.3438(4) 0.96820(16)
O1A O 0.2316(4) 0.8139(3) 0.90722(17)
O2A O 0.1903(4) 0.9149(3) 0.85889(15)
O3A O 0.2631(4) 1.2638(3) 1.03495(13)
O4A O 0.0545(3) 1.2253(3) 1.08491(14)
O5A O 0.0909(4) 1.2253(3) 1.15904(13)
O6A O 0.0675(4) 0.6068(3) 0.95944(14)
O7A O 0.0372(3) 0.6077(3) 0.88496(13)
O8A O 0.2464(4) 0.6546(3) 0.83648(14)
O9_2 O -0.2207(5) 1.4632(3) 1.94253(17)
O9A O 0.2207(5) 1.5368(3) 1.05747(17)
O10_2 O -0.2502(4) 1.5724(3) 1.89633(16)
O10A O 0.2502(4) 1.4276(3) 1.10367(16)
O11A O 0.2266(4) 0.2116(3) 0.71170(17)
O11A_2 O 0.2266(4) 1.2116(3) 1.71170(17)
O12A O 0.1977(4) 0.3128(3) 0.66072(16)
O12A_2 O 0.1977(4) 1.3128(3) 1.66072(16)
O13_2 O -0.0617(3) 1.1691(3) 1.71753(13)
O14_2 O -0.0794(4) 1.1784(3) 1.64303(15)
O14A O 0.0794(4) 1.8216(3) 1.35697(15)
O15_2 O -0.2818(4) 1.1318(3) 1.76056(14)
O16A O -0.0423(4) 2.0070(3) 1.24214(14)
O16_2 O 0.0423(4) -0.0070(3) 0.75786(14)
O17A O -0.0324(3) 1.9955(3) 1.31652(13)
O18A O -0.2546(4) 1.9484(3) 1.35655(14)
O19A O 0.2447(4) 0.1483(3) 1.25914(16)
O19_2 O -0.2447(4) 0.8517(3) 1.74086(16)
O20A O 0.2581(4) 0.0335(3) 1.30560(16)
O20_2 O -0.2581(4) 0.9665(3) 1.69440(16)
O21A O 0.2747(3) 0.4597(3) 1.44506(13)
O21_2 O -0.2747(3) 1.5403(3) 0.55494(13)
O22A O 0.0468(3) 0.4194(3) 1.48179(14)
O22_2 O -0.0468(3) 1.5806(3) 0.51821(14)
O23A O 0.0492(4) 0.4006(3) 1.55654(15)
O23_2 O -0.0492(4) 0.5994(3) 1.44346(15)
O23A_2 O 0.0492(4) 1.4006(3) 0.55654(15)
O24A O -0.2324(5) 2.2648(4) 1.53932(17)
O24A_2 O -0.2324(5) 1.2648(4) 0.53932(17)
O25A O -0.2418(4) 2.3738(4) 1.49016(17)
O25A_2 O -0.2418(4) 1.3738(4) 0.49016(17)
O26 O -0.2398(5) 0.2556(4) 0.9823(2)
H81 H -0.1814 0.2515 1.0024
H82 H -0.2342 0.3172 0.9767
O27 O -0.2487(7) 0.0576(5) 0.5783(2)
H83 H -0.1996 0.0793 0.6002
H84 H -0.2569 0.1050 0.5628
O28 O 0.2167(8) -0.4583(6) 0.6142(3)
H85 H 0.1544 -0.4460 0.5977
H86 H 0.1892 -0.5232 0.6205
O29 O -0.2072(7) -0.1447(4) 0.1881(2)
H87 H -0.1372 -0.1063 0.2008
H88 H -0.2633 -0.1146 0.1992
O30 O -0.2590(4) 0.6543(3) 0.77728(16)
H89 H -0.2295 0.7132 0.7685
H90 H -0.2195 0.6438 0.8021
loop_
_geom_bond_atom_site_label_1
_geom_bond_atom_site_label_2
_geom_bond_site_symmetry_1
_geom_bond_site_symmetry_2
Cd1 N4 1_555 1_555
Cd2 N15 1_555 1_555
Cd3 N8 1_555 1_555
Cd4 N7 1_555 1_555
Cd5 N12 1_555 1_555
C1 C2 1_555 1_555
C2 C3 1_555 1_555
C3 H1 1_555 1_555
C4 C3 1_555 1_555
H2 C4 1_555 1_555
C5 C4 1_555 1_555
C6 C5 1_555 1_555
H3 C6 1_555 1_555
C7 C2 1_555 1_555
H4 C7 1_555 1_555
C8 C5 1_555 1_555
H5 C8 1_555 1_555
H6 C8 1_555 1_555
C9 C10 1_555 1_555
C10 C11 1_555 1_555
C11 H7 1_555 1_555
C12 C11 1_555 1_555
H8 C12 1_555 1_555
C13 C12 1_555 1_555
H9 C13 1_555 1_555
C14 C10 1_555 1_555
C15 H10 1_555 1_555
C16 H11 1_555 1_555
C17 C16 1_555 1_555
H12 C17 1_555 1_555
C18 H13 1_555 1_555
H14 C18 1_555 1_555
C19 C18 1_555 1_555
H15 C19 1_555 1_555
H16 C19 1_555 1_555
C20 C19 1_555 1_555
H17 C20 1_555 1_555
H18 C20 1_555 1_555
C21 C20 1_555 1_555
H19 C21 1_555 1_555
H20 C21 1_555 1_555
C22 H21 1_555 1_555
C23 H22 1_555 1_555
C24 C23 1_555 1_555
H23 C24 1_555 1_555
C25 C26 1_555 1_555
C26 C27 1_555 1_555
C27 H24 1_555 1_555
C28 C27 1_555 1_555
H25 C28 1_555 1_555
C29 C28 1_555 1_555
C30 C29 1_555 1_555
H26 C30 1_555 1_555
C31 C26 1_555 1_555
H27 C31 1_555 1_555
C32 C29 1_555 1_555
H28 C32 1_555 1_555
H29 C32 1_555 1_555
C33 H30 1_555 1_555
C34 C33 1_555 1_555
H31 C34 1_555 1_555
C35 C34 1_555 1_555
H32 C35 1_555 1_555
C36 C35 1_555 1_555
C37 C36 1_555 1_555
C38 C36 1_555 1_555
C39 C40 1_555 1_555
C40 C41 1_555 1_555
C41 H33 1_555 1_555
C42 C41 1_555 1_555
H34 C42 1_555 1_555
C43 C42 1_555 1_555
C44 C43 1_555 1_555
H35 C44 1_555 1_555
C45 C40 1_555 1_555
H36 C45 1_555 1_555
C46 C43 1_555 1_555
H37 C46 1_555 1_555
H38 C46 1_555 1_555
C47 H39 1_555 1_555
C48 C47 1_555 1_555
H40 C48 1_555 1_555
C49 C48 1_555 1_555
H41 C49 1_555 1_555
C50 C49 1_555 1_555
C51 C50 1_555 1_555
C52 C50 1_555 1_555
C53 C54 1_555 1_555
C54 C55 1_555 1_555
C55 H42 1_555 1_555
C56 C55 1_555 1_555
H43 C56 1_555 1_555
C57 C56 1_555 1_555
H44 C57 1_555 1_555
C58 C54 1_555 1_555
C59 H45 1_555 1_555
H46 C59 1_555 1_555
C60 C59 1_555 1_555
C61 C60 1_555 1_555
H47 C61 1_555 1_555
C62 C61 1_555 1_555
H48 C62 1_555 1_555
C63 C62 1_555 1_555
C64 C63 1_555 1_555
H49 C64 1_555 1_555
C65 C60 1_555 1_555
H50 C65 1_555 1_555
C66 C63 1_555 1_555
C67 C68 1_555 1_555
C68 C69 1_555 1_555
C69 H51 1_555 1_555
C70 C69 1_555 1_555
H52 C70 1_555 1_555
C71 C70 1_555 1_555
H53 C71 1_555 1_555
C72 C68 1_555 1_555
C73 H54 1_555 1_555
H55 C73 1_555 1_555
C74 C73 1_555 1_555
C75 C74 1_555 1_555
H56 C75 1_555 1_555
C76 C75 1_555 1_555
H57 C76 1_555 1_555
C77 C76 1_555 1_555
C78 C77 1_555 1_555
H58 C78 1_555 1_555
C79 C74 1_555 1_555
H59 C79 1_555 1_555
C80 C77 1_555 1_555
C81 H60 1_555 1_555
C82 H61 1_555 1_555
C83 C82 1_555 1_555
H62 C83 1_555 1_555
C84 H63 1_555 1_555
H64 C84 1_555 1_555
C85 C84 1_555 1_555
H65 C85 1_555 1_555
H66 C85 1_555 1_555
C86 H67 1_555 1_555
C87 C86 1_555 1_555
H68 C87 1_555 1_555
C88 H69 1_555 1_555
C89 H70 1_555 1_555
H71 C89 1_555 1_555
C90 C89 1_555 1_555
H72 C90 1_555 1_555
H73 C90 1_555 1_555
C91 C90 1_555 1_555
H74 C91 1_555 1_555
H75 C91 1_555 1_555
C92 C91 1_555 1_555
H76 C92 1_555 1_555
H77 C92 1_555 1_555
C93 H78 1_555 1_555
C94 H79 1_555 1_555
C95 C94 1_555 1_555
H80 C95 1_555 1_555
N1 C8 1_555 1_555
N2 C46 1_555 1_555
N3 C32 1_555 1_555
N4 C15 1_555 1_555
N5 C15 1_555 1_555
N6 C21 1_555 1_555
N7 C22 1_555 1_555
N8 C81 1_555 1_555
N9 C81 1_555 1_555
N10 C57 1_555 1_555
N11 C71 1_555 1_555
N12 C86 1_555 1_555
N13 C87 1_555 1_555
N14 C92 1_555 1_555
N15 C93 1_555 1_555
O1 Cd1 1_555 1_555
O2 Cd1 1_555 1_555
O3 Cd2 1_555 1_555
O4 Cd2 1_555 1_555
O5 C14 1_555 1_555
O6 C52 1_555 1_555
O7 Cd1 1_555 1_555
O8 Cd1 1_555 1_555
O9 Cd2 1_555 1_555
O10 Cd2 1_555 1_555
O11 C39 1_555 1_555
O12 C39 1_555 1_555
O13 Cd3 1_555 1_555
O14 C38 1_555 1_555
O15 Cd3 1_555 1_555
O16 C53 1_555 1_555
O17 Cd4 1_555 1_555
O18 Cd4 1_555 1_555
O19 Cd3 1_555 1_555
O20 Cd3 1_555 1_555
O21 C72 1_555 1_555
O22 C67 1_555 1_555
O23 C67 1_555 1_555
O24 Cd5 1_555 1_555
O25 Cd5 1_555 1_555
O26 H81 1_555 1_555
H82 O26 1_555 1_555
O27 H83 1_555 1_555
H84 O27 1_555 1_555
O28 H85 1_555 1_555
H86 O28 1_555 1_555
O29 H87 1_555 1_555
H88 O29 1_555 1_555
O30 H89 1_555 1_555
H90 O30 1_555 1_555
Cd1A O5 1_555 1_555
Cd2A O6 1_555 1_555
Cd2_2 O9_2 1_555 1_555
Cd3_2 O16 1_555 1_555
Cd3A N8A 1_555 1_555
Cd3A_2 O16A 1_555 1_555
Cd4A O11 1_555 1_555
Cd4_2 O14 1_555 1_555
Cd4A_2 N7A 1_555 1_555
Cd5A N12A 1_555 1_555
Cd5A_2 O21 1_555 1_555
Cd5_2 O23 1_555 1_555
Cd5A_3 O24A 1_555 1_555
Cd5A_4 O23A 1_555 1_555
C1A C2A 1_555 1_555
C2A C3A 1_555 1_555
C3A H1A 1_555 1_555
C4A C3A 1_555 1_555
H2A C4A 1_555 1_555
C5A C4A 1_555 1_555
C6A C5A 1_555 1_555
H3A C6A 1_555 1_555
C7A C2A 1_555 1_555
H4A C7A 1_555 1_555
C8A C5A 1_555 1_555
H5A C8A 1_555 1_555
H6A C8A 1_555 1_555
C9A C10A 1_555 1_555
C10A C11A 1_555 1_555
C11A H7A 1_555 1_555
C12A C11A 1_555 1_555
H8A C12A 1_555 1_555
C13A C12A 1_555 1_555
H9A C13A 1_555 1_555
C14A C10A 1_555 1_555
C15A H10A 1_555 1_555
C16A H11A 1_555 1_555
C17A C16A 1_555 1_555
H12A C17A 1_555 1_555
C18A H13A 1_555 1_555
H14A C18A 1_555 1_555
C19A C18A 1_555 1_555
H15A C19A 1_555 1_555
H16A C19A 1_555 1_555
C20A C19A 1_555 1_555
H17A C20A 1_555 1_555
H18A C20A 1_555 1_555
C21A C20A 1_555 1_555
H19A C21A 1_555 1_555
H20A C21A 1_555 1_555
C22A H21A 1_555 1_555
C23A H22A 1_555 1_555
C24A C23A 1_555 1_555
H23A C24A 1_555 1_555
C25_2 C26_2 1_555 1_555
C26_2 C27_2 1_555 1_555
C27_2 H24_2 1_555 1_555
C28_2 C27_2 1_555 1_555
H25_2 C28_2 1_555 1_555
C29_2 C28_2 1_555 1_555
C30_2 C29_2 1_555 1_555
H26_2 C30_2 1_555 1_555
C31_2 C26_2 1_555 1_555
H27_2 C31_2 1_555 1_555
C32_2 C29_2 1_555 1_555
H28_2 C32_2 1_555 1_555
H29_2 C32_2 1_555 1_555
C33_2 H30_2 1_555 1_555
C34_2 C33_2 1_555 1_555
H31_2 C34_2 1_555 1_555
C35_2 C34_2 1_555 1_555
H32_2 C35_2 1_555 1_555
C36_2 C35_2 1_555 1_555
C37_2 C36_2 1_555 1_555
C38_2 C36_2 1_555 1_555
C39A C40A 1_555 1_555
C40A C41A 1_555 1_555
C41A H33A 1_555 1_555
C42A C41A 1_555 1_555
H34A C42A 1_555 1_555
C43A C42A 1_555 1_555
C44A C43A 1_555 1_555
H35A C44A 1_555 1_555
C45A C40A 1_555 1_555
H36A C45A 1_555 1_555
C46A C43A 1_555 1_555
H37A C46A 1_555 1_555
H38A C46A 1_555 1_555
C47A H39A 1_555 1_555
C48A C47A 1_555 1_555
H40A C48A 1_555 1_555
C49A C48A 1_555 1_555
H41A C49A 1_555 1_555
C50A C49A 1_555 1_555
C51A C50A 1_555 1_555
C52A C50A 1_555 1_555
C53A C54A 1_555 1_555
C54A C55A 1_555 1_555
C55A H42A 1_555 1_555
C56A C55A 1_555 1_555
H43A C56A 1_555 1_555
C57A C56A 1_555 1_555
H44A C57A 1_555 1_555
C58A C54A 1_555 1_555
C59A H45A 1_555 1_555
H46A C59A 1_555 1_555
C60A C59A 1_555 1_555
C61A C60A 1_555 1_555
H47A C61A 1_555 1_555
C62A C61A 1_555 1_555
H48A C62A 1_555 1_555
C63A C62A 1_555 1_555
C64A C63A 1_555 1_555
H49A C64A 1_555 1_555
C65A C60A 1_555 1_555
H50A C65A 1_555 1_555
C66A C63A 1_555 1_555
C67A C68A 1_555 1_555
C68A C69A 1_555 1_555
C69A H51A 1_555 1_555
C70A C69A 1_555 1_555
H52A C70A 1_555 1_555
C71A C70A 1_555 1_555
H53A C71A 1_555 1_555
C72A C68A 1_555 1_555
C73A H54A 1_555 1_555
H55A C73A 1_555 1_555
C74A C73A 1_555 1_555
C75A C74A 1_555 1_555
H56A C75A 1_555 1_555
C76A C75A 1_555 1_555
H57A C76A 1_555 1_555
C77A C76A 1_555 1_555
C78A C77A 1_555 1_555
H58A C78A 1_555 1_555
C79A C74A 1_555 1_555
H59A C79A 1_555 1_555
C80A C77A 1_555 1_555
C81A H60A 1_555 1_555
C82A H61A 1_555 1_555
C83A C82A 1_555 1_555
H62A C83A 1_555 1_555
C84A H63A 1_555 1_555
H64A C84A 1_555 1_555
C85A C85 1_555 1_555
H65A C85A 1_555 1_555
H66A C85A 1_555 1_555
C86A H67A 1_555 1_555
C87A C86A 1_555 1_555
H68A C87A 1_555 1_555
C88A H69A 1_555 1_555
C89A H70A 1_555 1_555
H71A C89A 1_555 1_555
C90A C89A 1_555 1_555
H72A C90A 1_555 1_555
H73A C90A 1_555 1_555
C91A C90A 1_555 1_555
H74A C91A 1_555 1_555
H75A C91A 1_555 1_555
C92A C91A 1_555 1_555
H76A C92A 1_555 1_555
H77A C92A 1_555 1_555
C93A H78A 1_555 1_555
C94A H79A 1_555 1_555
C95A C94A 1_555 1_555
H80A C95A 1_555 1_555
N1A C8A 1_555 1_555
N2A C46A 1_555 1_555
N3_2 C32_2 1_555 1_555
N4A Cd1A 1_555 1_555
N5A C15A 1_555 1_555
N6A C21A 1_555 1_555
N7A C22A 1_555 1_555
N7A_2 Cd4A 1_555 1_555
N8A C81A 1_555 1_555
N8_2 Cd3_2 1_555 1_555
N9A C81A 1_555 1_555
N10A C57A 1_555 1_555
N11A C71A 1_555 1_555
N12A C86A 1_555 1_555
N13A C87A 1_555 1_555
N14A C92A 1_555 1_555
N15A Cd2A 1_555 1_555
O1A Cd1A 1_555 1_555
O2A Cd1A 1_555 1_555
O3A Cd2A 1_555 1_555
O4A Cd2A 1_555 1_555
O5A Cd1 1_555 1_555
O6A Cd2 1_555 1_555
O7A Cd1A 1_555 1_555
O8A Cd1A 1_555 1_555
O9_2 C25_2 1_555 1_555
O9A Cd2A 1_555 1_555
O10_2 Cd2_2 1_555 1_555
O10A Cd2A 1_555 1_555
O11A Cd4_2 1_555 1_555
O11A_2 Cd4 1_555 1_555
O12A Cd4_2 1_555 1_555
O12A_2 Cd4 1_555 1_555
O13_2 Cd3_2 1_555 1_555
O14_2 Cd4 1_555 1_555
O14A Cd4A 1_555 1_555
O15_2 Cd3_2 1_555 1_555
O16A C53A 1_555 1_555
O16_2 Cd3 1_555 1_555
O17A Cd4A 1_555 1_555
O18A Cd4A 1_555 1_555
O19A Cd3A 1_555 1_555
O19_2 Cd3_2 1_555 1_555
O20A Cd3A 1_555 1_555
O20_2 Cd3_2 1_555 1_555
O21A Cd5 1_555 1_555
O21_2 Cd5A 1_555 1_555
O22A Cd5 1_555 1_555
O22_2 Cd5A 1_555 1_555
O23A C67A 1_555 1_555
O23_2 Cd5 1_555 1_555
O23A_2 Cd5A 1_555 1_555
O24A C66A 1_555 1_555
O24A_2 Cd5A 1_555 1_555
O25A Cd5A_3 1_555 1_555
O25A_2 Cd5A 1_555 1_555
C1 O1 1_555 1_555
C1 O2 1_555 1_555
C6 C7 1_555 1_555
C9 N1 1_555 1_555
C9 O3 1_555 1_555
C13 N1 1_555 1_555
C14 O4 1_555 1_555
C16 N4 1_555 1_555
C17 N5 1_555 1_555
C18 N5 1_555 1_555
C22 N6 1_555 1_555
C23 N7 1_555 1_555
C24 N6 1_555 1_555
C25 O9 1_555 1_555
C25 O10 1_555 1_555
C30 C31 1_555 1_555
C33 N3 1_555 1_555
C37 N3 1_555 1_555
C37 O15 1_555 1_555
C38 O13 1_555 1_555
C44 C45 1_555 1_555
C47 N2 1_555 1_555
C51 N2 1_555 1_555
C51 O8 1_555 1_555
C52 O7 1_555 1_555
C53 O17 1_555 1_555
C58 N10 1_555 1_555
C58 O18 1_555 1_555
C59 N10 1_555 1_555
C64 C65 1_555 1_555
C66 O24 1_555 1_555
C66 O25 1_555 1_555
C72 N11 1_555 1_555
C73 N11 1_555 1_555
C78 C79 1_555 1_555
C80 O19 1_555 1_555
C80 O20 1_555 1_555
C82 N8 1_555 1_555
C83 N9 1_555 1_555
C84 N9 1_555 1_555
C88 N12 1_555 1_555
C88 N13 1_555 1_555
C89 N13 1_555 1_555
C93 N14 1_555 1_555
C94 N15 1_555 1_555
C95 N14 1_555 1_555
O12 Cd4A 1_555 1_555
O22 Cd5A_2 1_555 1_555
C1A O1A 1_555 1_555
C1A O2A 1_555 1_555
C6A C7A 1_555 1_555
C9A N1A 1_555 1_555
C9A O3A 1_555 1_555
C13A N1A 1_555 1_555
C14A O4A 1_555 1_555
C14A O5A 1_555 1_555
C15A N4A 1_555 1_555
C16A N4A 1_555 1_555
C17A N5A 1_555 1_555
C18A N5A 1_555 1_555
C22A N6A 1_555 1_555
C23A N7A 1_555 1_555
C24A N6A 1_555 1_555
C25_2 O10_2 1_555 1_555
C30_2 C31_2 1_555 1_555
C33_2 N3_2 1_555 1_555
C37_2 N3_2 1_555 1_555
C37_2 O15_2 1_555 1_555
C38_2 O13_2 1_555 1_555
C38_2 O14_2 1_555 1_555
C39A O11A 1_555 1_555
C39A O12A 1_555 1_555
C44A C45A 1_555 1_555
C47A N2A 1_555 1_555
C51A N2A 1_555 1_555
C51A O8A 1_555 1_555
C52A O6A 1_555 1_555
C52A O7A 1_555 1_555
C53A O17A 1_555 1_555
C58A N10A 1_555 1_555
C58A O18A 1_555 1_555
C59A N10A 1_555 1_555
C64A C65A 1_555 1_555
C66A O25A 1_555 1_555
C67A O22A 1_555 1_555
C72A N11A 1_555 1_555
C72A O21A 1_555 1_555
C73A N11A 1_555 1_555
C78A C79A 1_555 1_555
C80A O19A 1_555 1_555
C80A O20A 1_555 1_555
C82A N8A 1_555 1_555
C83A N9A 1_555 1_555
C84A C85A 1_555 1_555
C84A N9A 1_555 1_555
C88A N12A 1_555 1_555
C88A N13A 1_555 1_555
C89A N13A 1_555 1_555
C93A N14A 1_555 1_555
C93A N15A 1_555 1_555
C94A N15A 1_555 1_555
C95A N14A 1_555 1_555

#END
