
#######################################################################
#
#                 Cambridge Crystallographic Data Centre
#                                CCDC 
#
#######################################################################
#
# If this CIF has been generated from an entry in the Cambridge 
# Structural Database, then it will include bibliographic, chemical, 
# crystal, experimental, refinement or atomic coordinate data resulting 
# from the CCDC's data processing and validation procedures.
#
#######################################################################

data_SEHLUO
_symmetry_cell_setting           monoclinic
_symmetry_space_group_name_H-M   'C 2/c'
_symmetry_Int_Tables_number      15
_space_group_name_Hall           '-C 2yn'
loop_
_symmetry_equiv_pos_site_id
_symmetry_equiv_pos_as_xyz
1 x,y,z
2 -x,y,1/2-z
3 1/2+x,1/2+y,z
4 1/2-x,1/2+y,1/2-z
5 -x,-y,-z
6 x,-y,1/2+z
7 1/2-x,1/2-y,-z
8 1/2+x,1/2-y,1/2+z
_cell_length_a                   26.859(4)
_cell_length_b                   12.2673(18)
_cell_length_c                   17.083(3)
_cell_angle_alpha                90
_cell_angle_beta                 124.590(2)
_cell_angle_gamma                90
_cell_volume                     4633.69
loop_
_atom_site_label
_atom_site_type_symbol
_atom_site_fract_x
_atom_site_fract_y
_atom_site_fract_z
C1 C 0.52716(18) 0.6017(3) 0.4334(3)
H1 H 0.5530 0.5419 0.4583
C2 C 0.52260(18) 0.6667(3) 0.4942(2)
H2 H 0.5446 0.6497 0.5586
C3 C 0.48549(14) 0.7577(2) 0.4604(2)
C4 C 0.45596(15) 0.7784(3) 0.3649(2)
H3 H 0.4319 0.8403 0.3387
C5 C 0.46184(16) 0.7081(3) 0.3079(2)
H4 H 0.4404 0.7234 0.2432
C6 C 0.47669(13) 0.8281(2) 0.5223(2)
C7 C 0.49745(13) 0.7956(2) 0.6136(2)
H5 H 0.5204 0.7324 0.6388
C8 C 0.48419(13) 0.8566(2) 0.66724(19)
C9 C 0.45097(14) 0.9518(2) 0.6335(2)
H6 H 0.4429 0.9922 0.6712
C10 C 0.42971(13) 0.9863(2) 0.5413(2)
C11 C 0.44340(14) 0.9244(2) 0.4878(2)
H7 H 0.4299 0.9479 0.4270
C12 C 0.39026(14) 1.0841(2) 0.4970(2)
C13 C 0.3809(2) 1.1583(3) 0.5461(3)
H8 H 0.3989 1.1487 0.6109
C14 C 0.3445(2) 1.2489(4) 0.5002(3)
H9 H 0.3396 1.2985 0.5365
C15 C 0.3252(2) 1.1941(3) 0.3627(3)
H10 H 0.3060 1.2040 0.2976
C16 C 0.3601(2) 1.1031(3) 0.4024(3)
H11 H 0.3632 1.0536 0.3642
C17 C 0.39975(14) 0.3812(2) 0.1786(2)
C18 C 0.36149(13) 0.2926(2) 0.1101(2)
C19 C 0.35042(13) 0.2896(2) 0.0207(2)
H12 H 0.3673 0.3425 0.0034
C20 C 0.31445(12) 0.2085(2) -0.04371(19)
C21 C 0.28981(13) 0.1291(2) -0.0169(2)
H13 H 0.2654 0.0748 -0.0599
C22 C 0.30130(13) 0.1301(2) 0.0727(2)
C23 C 0.33700(13) 0.2128(2) 0.1359(2)
H14 H 0.3445 0.2144 0.1961
C24 C 0.27622(14) 0.0450(2) 0.1039(2)
C25 C 0.30239(13) 0.2086(2) -0.1411(2)
Co1 Co 0.5000 0.51889(4) 0.2500
Co2 Co 0.242699(19) 0.10031(3) -0.33437(3)
N1 N 0.49609(12) 0.6202(2) 0.33946(18)
N2 N 0.31651(12) 1.2687(2) 0.40877(18)
O1 O 0.43170(11) 0.43383(19) 0.15740(16)
O2 O 0.39955(13) 0.3999(2) 0.24934(17)
O3 O 0.32675(11) 0.28085(18) -0.15997(16)
O4 O 0.26842(10) 0.13401(17) -0.19804(14)
O5 O 0.29207(12) 0.04414(19) 0.18814(16)
O6 O 0.23886(10) -0.02478(17) 0.04627(15)
O7 O 0.5000 0.8060(2) 0.7500
O8 O 0.16965(12) 0.00876(19) -0.34759(18)
H15 H 0.1779 -0.0564 -0.3410
H16 H 0.1864 0.0170 -0.2935
O9 O 0.31660(10) 0.1952(2) -0.31113(16)
H17 H 0.3135 0.2615 -0.3010
H18 H 0.3312 0.1962 -0.2444
C1A C 0.47284(18) 0.6017(3) 1.0666(3)
H1A H 0.4470 0.5419 1.0417
C2A C 0.47740(18) 0.6667(3) 1.0058(2)
H2A H 0.4554 0.6497 0.9414
C3A C 0.51451(14) 0.7577(2) 1.0396(2)
C4A C 0.54404(15) 0.7784(3) 1.1351(2)
H3A H 0.5681 0.8403 1.1613
C5A C 0.53816(16) 0.7081(3) 1.1921(2)
H4A H 0.5596 0.7234 1.2568
C6A C 0.52331(13) 0.8281(2) 0.9777(2)
C7A C 0.50255(13) 0.7956(2) 0.8864(2)
H5A H 0.4796 0.7324 0.8612
C8A C 0.51581(13) 0.8566(2) 0.83276(19)
C9A C 0.54903(14) 0.9518(2) 0.8665(2)
H6A H 0.5571 0.9922 0.8288
C10A C 0.57029(13) 0.9863(2) 0.9587(2)
C11A C 0.55660(14) 0.9244(2) 1.0122(2)
H7A H 0.5701 0.9479 1.0730
C12A C 0.60974(14) 1.0841(2) 1.0030(2)
C13A C 0.6191(2) 1.1583(3) 0.9539(3)
H8A H 0.6011 1.1487 0.8891
C14A C 0.6555(2) 1.2489(4) 0.9998(3)
H9A H 0.6604 1.2985 0.9635
C15A C 0.6748(2) 1.1941(3) 1.1373(3)
H10A H 0.6940 1.2040 1.2024
C16A C 0.6399(2) 1.1031(3) 1.0976(3)
H11A H 0.6368 1.0536 1.1358
C17A C 0.60025(14) 0.3812(2) 0.3214(2)
C18A C 0.63851(13) 0.2926(2) 0.3899(2)
C19A C 0.64958(13) 0.2896(2) 0.4793(2)
H12A H 0.6327 0.3425 0.4966
C20A C 0.68555(12) 0.2085(2) 0.54371(19)
C21A C 0.71019(13) 0.1291(2) 0.5169(2)
H13A H 0.7346 0.0748 0.5599
C22A C 0.69870(13) 0.1301(2) 0.4273(2)
C23A C 0.66300(13) 0.2128(2) 0.3641(2)
H14A H 0.6555 0.2144 0.3039
C24A C 0.72378(14) 0.0450(2) 0.3961(2)
C25A C 0.69761(13) 0.2086(2) 0.6411(2)
Co1_2 Co 0.5000 0.51889(4) 1.2500
Co2A Co 0.757301(19) 0.10031(3) 0.83437(3)
Co2D Co 0.757301(19) -0.10031(3) 0.33437(3)
Co2E Co 0.242699(19) -0.10031(3) 0.16563(3)
Co2F Co 0.257301(19) 1.39969(3) 0.33437(3)
Co2G Co 0.742699(19) 1.39969(3) 1.16563(3)
N1A N 0.50391(12) 0.6202(2) 1.16054(18)
N1A_2 N 0.50391(12) 0.6202(2) 0.16054(18)
N2A N 0.68349(12) 1.2687(2) 1.09123(18)
N2F N 0.18349(12) 0.2313(2) -0.40877(18)
N2G N 0.81651(12) 0.2313(2) 0.90877(18)
O1A O 0.56830(11) 0.43383(19) 0.34260(16)
O2A O 0.60045(13) 0.3999(2) 0.25066(17)
O3A O 0.67325(11) 0.28085(18) 0.65997(16)
O4A O 0.73158(10) 0.13401(17) 0.69804(14)
O5A O 0.70793(12) 0.04414(19) 0.31186(16)
O5D O 0.70793(12) -0.04414(19) 0.81186(16)
O5E O 0.29207(12) -0.04414(19) -0.31186(16)
O6A O 0.76114(10) -0.02478(17) 0.45373(15)
O6D O 0.76114(10) 0.02478(17) 0.95373(15)
O6E O 0.23886(10) 0.02478(17) -0.45373(15)
O8A O 0.83035(12) 0.00876(19) 0.84759(18)
H15A H 0.8221 -0.0564 0.8410
H16A H 0.8136 0.0170 0.7935
O9A O 0.68340(10) 0.1952(2) 0.81113(16)
H17A H 0.6865 0.2615 0.8010
H18A H 0.6688 0.1962 0.7444
loop_
_geom_bond_atom_site_label_1
_geom_bond_atom_site_label_2
_geom_bond_site_symmetry_1
_geom_bond_site_symmetry_2
C1 H1 1_555 1_555
C2 C1 1_555 1_555
H2 C2 1_555 1_555
C3 C2 1_555 1_555
C4 C3 1_555 1_555
H3 C4 1_555 1_555
C5 C4 1_555 1_555
H4 C5 1_555 1_555
C6 C3 1_555 1_555
C7 C6 1_555 1_555
H5 C7 1_555 1_555
C8 C7 1_555 1_555
C9 C8 1_555 1_555
H6 C9 1_555 1_555
C10 C9 1_555 1_555
C11 C6 1_555 1_555
H7 C11 1_555 1_555
C12 C10 1_555 1_555
C13 C12 1_555 1_555
H8 C13 1_555 1_555
C14 C13 1_555 1_555
H9 C14 1_555 1_555
C15 H10 1_555 1_555
C16 C12 1_555 1_555
H11 C16 1_555 1_555
C17 C18 1_555 1_555
C18 C19 1_555 1_555
C19 H12 1_555 1_555
C20 C19 1_555 1_555
C21 C20 1_555 1_555
H13 C21 1_555 1_555
C22 C21 1_555 1_555
C23 C18 1_555 1_555
H14 C23 1_555 1_555
C24 C22 1_555 1_555
C25 C20 1_555 1_555
Co1 N1 1_555 1_555
Co2 O4 1_555 1_555
N1 C1 1_555 1_555
N2 C14 1_555 1_555
O1 C17 1_555 1_555
O2 C17 1_555 1_555
O3 C25 1_555 1_555
O4 C25 1_555 1_555
O5 C24 1_555 1_555
O6 C24 1_555 1_555
O7 C8 1_555 1_555
O8 Co2 1_555 1_555
H15 O8 1_555 1_555
H16 O8 1_555 1_555
O9 Co2 1_555 1_555
H17 O9 1_555 1_555
H18 O9 1_555 1_555
C1A H1A 1_555 1_555
C2A C1A 1_555 1_555
H2A C2A 1_555 1_555
C3A C2A 1_555 1_555
C4A C3A 1_555 1_555
H3A C4A 1_555 1_555
C5A C4A 1_555 1_555
H4A C5A 1_555 1_555
C6A C3A 1_555 1_555
C7A C6A 1_555 1_555
H5A C7A 1_555 1_555
C8A O7 1_555 1_555
C9A C8A 1_555 1_555
H6A C9A 1_555 1_555
C10A C9A 1_555 1_555
C11A C6A 1_555 1_555
H7A C11A 1_555 1_555
C12A C10A 1_555 1_555
C13A C12A 1_555 1_555
H8A C13A 1_555 1_555
C14A C13A 1_555 1_555
H9A C14A 1_555 1_555
C15A H10A 1_555 1_555
C16A C12A 1_555 1_555
H11A C16A 1_555 1_555
C17A C18A 1_555 1_555
C18A C19A 1_555 1_555
C19A H12A 1_555 1_555
C20A C19A 1_555 1_555
C21A C20A 1_555 1_555
H13A C21A 1_555 1_555
C22A C21A 1_555 1_555
C23A C18A 1_555 1_555
H14A C23A 1_555 1_555
C24A C22A 1_555 1_555
C25A C20A 1_555 1_555
Co1_2 N1A 1_555 1_555
Co2A N2G 1_555 1_555
Co2D O5A 1_555 1_555
Co2E O5 1_555 1_555
Co2F N2 1_555 1_555
Co2G N2A 1_555 1_555
N1A C1A 1_555 1_555
N1A_2 Co1 1_555 1_555
N2A C14A 1_555 1_555
N2F Co2 1_555 1_555
O1A Co1 1_555 1_555
O2A C17A 1_555 1_555
O3A C25A 1_555 1_555
O4A C25A 1_555 1_555
O5A C24A 1_555 1_555
O5D Co2A 1_555 1_555
O5E Co2 1_555 1_555
O6A C24A 1_555 1_555
O6D Co2A 1_555 1_555
O6E Co2 1_555 1_555
O8A Co2A 1_555 1_555
H15A O8A 1_555 1_555
H16A O8A 1_555 1_555
O9A Co2A 1_555 1_555
H17A O9A 1_555 1_555
H18A O9A 1_555 1_555
C5 N1 1_555 1_555
C10 C11 1_555 1_555
C15 C16 1_555 1_555
C15 N2 1_555 1_555
C22 C23 1_555 1_555
Co1 O1 1_555 1_555
O6 Co2E 1_555 1_555
C5A N1A 1_555 1_555
C7A C8A 1_555 1_555
C10A C11A 1_555 1_555
C15A C16A 1_555 1_555
C15A N2A 1_555 1_555
C17A O1A 1_555 1_555
C22A C23A 1_555 1_555
Co2A O4A 1_555 1_555
Co2D O6A 1_555 1_555

#END
