
#######################################################################
#
#                 Cambridge Crystallographic Data Centre
#                                CCDC 
#
#######################################################################
#
# If this CIF has been generated from an entry in the Cambridge 
# Structural Database, then it will include bibliographic, chemical, 
# crystal, experimental, refinement or atomic coordinate data resulting 
# from the CCDC's data processing and validation procedures.
#
#######################################################################

data_SEHLAT
_symmetry_cell_setting           monoclinic
_symmetry_space_group_name_H-M   'C 2/c'
_symmetry_Int_Tables_number      15
_space_group_name_Hall           '-C 2yn'
loop_
_symmetry_equiv_pos_site_id
_symmetry_equiv_pos_as_xyz
1 x,y,z
2 1/2+x,1/2+y,z
3 -x,y,1/2-z
4 1/2-x,1/2+y,1/2-z
5 -x,-y,-z
6 1/2-x,1/2-y,-z
7 x,-y,1/2+z
8 1/2+x,1/2-y,1/2+z
_cell_length_a                   26.08(1)
_cell_length_b                   11.574(6)
_cell_length_c                   24.64(1)
_cell_angle_alpha                90
_cell_angle_beta                 99.48(4)
_cell_angle_gamma                90
_cell_volume                     7336.01
loop_
_atom_site_label
_atom_site_type_symbol
_atom_site_fract_x
_atom_site_fract_y
_atom_site_fract_z
Co1 Co 0.08544(3) 0.16831(6) -0.33544(3)
Co2 Co 0.2500 0.2500 -0.5000
F1 F -0.0546(2) 0.4161(3) -0.3118(2)
F2 F 0.0128(2) 0.5254(3) -0.3069(2)
F3 F -0.0433(2) 0.5263(3) -0.3800(1)
F4 F 0.0007(2) 0.3377(4) -0.5309(1)
F5 F 0.0764(1) 0.2599(3) -0.5211(1)
F6 F 0.0091(1) 0.1539(3) -0.5228(1)
F7 F 0.2247(1) 0.4100(3) -0.3548(1)
F8 F 0.2473(2) 0.4424(4) -0.2689(1)
F9 F 0.1804(2) 0.5283(3) -0.3137(2)
F10 F 0.1708(2) 0.0980(4) -0.1496(2)
F11 F 0.0975(2) 0.1751(4) -0.1477(1)
F12 F 0.1663(2) 0.2769(4) -0.1304(1)
F13 F 0.3261(1) -0.0890(3) -0.5457(1)
F14 F 0.3825(2) -0.1021(4) -0.4743(2)
F15 F 0.3920(2) 0.0206(3) -0.5376(2)
F16 F 0.3442(2) 0.0597(4) -0.3132(1)
F17 F 0.2663(2) 0.1190(4) -0.3178(1)
F18 F 0.3270(2) 0.2384(4) -0.3144(2)
O1 O 0.1373(1) 0.0393(3) -0.3458(1)
O2 O 0.1933(1) 0.1214(3) -0.5108(1)
O3 O 0.4728(1) 0.4516(3) -0.6650(1)
O4 O 0.0344(1) 0.2971(3) -0.3241(1)
O5 O 0.0641(1) 0.1828(3) -0.4183(1)
O6 O 0.1424(1) 0.2899(3) -0.3377(1)
O7 O 0.1061(1) 0.1527(3) -0.2526(1)
O8 O 0.3019(2) 0.1308(3) -0.5174(1)
O9 O 0.2708(1) 0.2140(3) -0.4185(1)
N1 N 0.1527(2) 0.0265(4) -0.3932(2)
N2 N 0.1782(2) 0.0656(4) -0.4707(2)
N3 N 0.4868(2) 0.4859(4) -0.7104(2)
C1 C 0.1676(2) 0.1106(4) -0.4240(2)
C2 C 0.1632(2) -0.0592(4) -0.4775(2)
C3 C 0.1596(2) -0.0923(4) -0.4162(2)
C4 C 0.2033(2) -0.1236(5) -0.5029(2)
C5 C 0.1104(2) -0.0588(5) -0.5156(2)
C6 C 0.2098(2) -0.1403(5) -0.3839(2)
C7 C 0.1137(2) -0.1678(5) -0.4089(2)
C8 C 0.50000(1) 0.4209(7) -0.75000(1)
C9 C 0.5148(3) 0.6103(5) -0.7746(3)
C10 C 0.5736(3) 0.6360(6) -0.7573(3)
C11 C 0.4948(4) 0.6827(6) -0.8225(3)
C12 C -0.0191(3) 0.4570(5) -0.3408(3)
C13 C 0.0110(2) 0.3587(5) -0.3620(2)
C14 C 0.0101(2) 0.3489(5) -0.4188(2)
C15 C 0.0353(2) 0.2605(5) -0.4422(2)
C16 C 0.0303(3) 0.2549(6) -0.5046(2)
C17 C 0.2058(3) 0.4295(6) -0.3081(3)
C18 C 0.1701(2) 0.3308(5) -0.2962(2)
C19 C 0.1705(2) 0.3016(5) -0.2411(2)
C20 C 0.1386(2) 0.2179(5) -0.2240(2)
C21 C 0.1444(3) 0.1904(6) -0.1629(2)
C22 C 0.3579(2) -0.0272(5) -0.5101(3)
C23 C 0.3274(2) 0.0645(5) -0.4832(3)
C24 C 0.3304(2) 0.0633(5) -0.4260(2)
C25 C 0.3032(2) 0.1411(5) -0.3989(2)
C26 C 0.3108(3) 0.1380(6) -0.3354(3)
H1 H 0.1709(2) 0.1895(4) -0.4138(2)
H2 H 0.1932(2) -0.2022(5) -0.5067(2)
H3 H 0.2054(2) -0.0924(5) -0.5382(2)
H4 H 0.2366(2) -0.1180(5) -0.4799(2)
H5 H 0.0860(2) -0.0163(5) -0.4988(2)
H6 H 0.1140(2) -0.0239(5) -0.5497(2)
H7 H 0.0982(2) -0.1356(5) -0.5220(2)
H8 H 0.2064(2) -0.1458(5) -0.3461(2)
H9 H 0.2158(2) -0.2148(5) -0.3976(2)
H10 H 0.2385(2) -0.0915(5) -0.3876(2)
H11 H 0.0825(2) -0.1344(5) -0.4282(2)
H12 H 0.1180(2) -0.2427(5) -0.4230(2)
H13 H 0.1116(2) -0.1729(5) -0.3708(2)
H14 H 0.50000(1) 0.3290(7) -0.75000(1)
H15 H 0.5785(3) 0.7143(6) -0.7465(3)
H16 H 0.5920(3) 0.6204(6) -0.7868(3)
H17 H 0.5864(3) 0.5876(6) -0.7269(3)
H18 H 0.4593(4) 0.6630(6) -0.8348(3)
H19 H 0.5143(4) 0.6698(6) -0.8514(3)
H20 H 0.4972(4) 0.7616(6) -0.8122(3)
H21 H -0.0090(2) 0.4043(5) -0.4426(2)
H22 H 0.1943(2) 0.3404(5) -0.2136(2)
H23 H 0.3525(2) 0.0080(5) -0.4053(2)
Co1E Co 0.41456(3) 0.33169(6) -0.66456(3)
Co1G Co 0.58544(3) 0.33169(6) -0.83544(3)
F1E F 0.5546(2) 0.0839(3) -0.6882(2)
F2E F 0.4872(2) -0.0254(3) -0.6931(2)
F3E F 0.5433(2) -0.0263(3) -0.6200(1)
F4E F 0.4993(2) 0.1623(4) -0.4691(1)
F5E F 0.4236(1) 0.2401(3) -0.4789(1)
F6E F 0.4909(1) 0.3461(3) -0.4772(1)
F7E F 0.2753(1) 0.0900(3) -0.6452(1)
F8E F 0.2527(2) 0.0576(4) -0.7311(1)
F9E F 0.3196(2) -0.0283(3) -0.6863(2)
F10E F 0.3292(2) 0.4020(4) -0.8504(2)
F11E F 0.4025(2) 0.3249(4) -0.8523(1)
F12E F 0.3337(2) 0.2231(4) -0.8696(1)
F13E F 0.1739(1) 0.5890(3) -0.4543(1)
F14E F 0.1175(2) 0.6021(4) -0.5257(2)
F15E F 0.1080(2) 0.4794(3) -0.4624(2)
F16E F 0.1558(2) 0.4403(4) -0.6868(1)
F17E F 0.2337(2) 0.3810(4) -0.6822(1)
F18E F 0.1730(2) 0.2616(4) -0.6856(2)
O1E O 0.3627(1) 0.4607(3) -0.6542(1)
O2E O 0.3067(1) 0.3786(3) -0.4892(1)
O3E O 0.0272(1) 0.0484(3) -0.3350(1)
O3B O 0.5272(1) 0.4516(3) -0.8350(1)
O4E O 0.4656(1) 0.2029(3) -0.6759(1)
O5E O 0.4359(1) 0.3172(3) -0.5817(1)
O6E O 0.3576(1) 0.2101(3) -0.6623(1)
O7E O 0.3939(1) 0.3473(3) -0.7474(1)
O8E O 0.1981(2) 0.3692(3) -0.4826(1)
O9E O 0.2292(1) 0.2860(3) -0.5815(1)
N1E N 0.3473(2) 0.4735(4) -0.6068(2)
N2E N 0.3218(2) 0.4344(4) -0.5293(2)
N3B N 0.5132(2) 0.4859(4) -0.7896(2)
C1E C 0.3324(2) 0.3894(4) -0.5760(2)
C2E C 0.3368(2) 0.5592(4) -0.5225(2)
C3E C 0.3404(2) 0.5923(4) -0.5838(2)
C4E C 0.2967(2) 0.6236(5) -0.4971(2)
C5E C 0.3896(2) 0.5588(5) -0.4844(2)
C6E C 0.2902(2) 0.6403(5) -0.6161(2)
C7E C 0.3863(2) 0.6678(5) -0.5911(2)
C9B C 0.4852(3) 0.6103(5) -0.7254(3)
C10B C 0.4264(3) 0.6360(6) -0.7427(3)
C11B C 0.5052(4) 0.6827(6) -0.6775(3)
C12E C 0.5191(3) 0.0430(5) -0.6592(3)
C13E C 0.4890(2) 0.1413(5) -0.6380(2)
C14E C 0.4899(2) 0.1511(5) -0.5812(2)
C15E C 0.4647(2) 0.2395(5) -0.5578(2)
C16E C 0.4697(3) 0.2451(6) -0.4954(2)
C17E C 0.2942(3) 0.0705(6) -0.6919(3)
C18E C 0.3299(2) 0.1692(5) -0.7038(2)
C19E C 0.3295(2) 0.1984(5) -0.7589(2)
C20E C 0.3614(2) 0.2821(5) -0.7760(2)
C21E C 0.3556(3) 0.3096(6) -0.8371(2)
C22E C 0.1421(2) 0.5272(5) -0.4899(3)
C23E C 0.1726(2) 0.4355(5) -0.5168(3)
C24E C 0.1696(2) 0.4367(5) -0.5740(2)
C25E C 0.1968(2) 0.3589(5) -0.6011(2)
C26E C 0.1892(3) 0.3620(6) -0.6646(3)
H1E H 0.3291(2) 0.3105(4) -0.5862(2)
H2E H 0.3068(2) 0.7022(5) -0.4933(2)
H3E H 0.2946(2) 0.5924(5) -0.4618(2)
H4E H 0.2634(2) 0.6180(5) -0.5201(2)
H5E H 0.4140(2) 0.5163(5) -0.5012(2)
H6E H 0.3860(2) 0.5239(5) -0.4503(2)
H7E H 0.4018(2) 0.6356(5) -0.4780(2)
H8E H 0.2936(2) 0.6458(5) -0.6539(2)
H9E H 0.2842(2) 0.7148(5) -0.6024(2)
H10E H 0.2615(2) 0.5915(5) -0.6124(2)
H11E H 0.4175(2) 0.6344(5) -0.5718(2)
H12E H 0.3820(2) 0.7427(5) -0.5770(2)
H13E H 0.3884(2) 0.6729(5) -0.6292(2)
H15B H 0.4215(3) 0.7143(6) -0.7535(3)
H16B H 0.4080(3) 0.6204(6) -0.7132(3)
H17B H 0.4136(3) 0.5876(6) -0.7731(3)
H18B H 0.5407(4) 0.6630(6) -0.6652(3)
H19B H 0.4857(4) 0.6698(6) -0.6486(3)
H20B H 0.5028(4) 0.7616(6) -0.6878(3)
H21E H 0.5090(2) 0.0957(5) -0.5574(2)
H22E H 0.3057(2) 0.1596(5) -0.7864(2)
H23E H 0.1475(2) 0.4920(5) -0.5947(2)
loop_
_geom_bond_atom_site_label_1
_geom_bond_atom_site_label_2
_geom_bond_site_symmetry_1
_geom_bond_site_symmetry_2
Co1 O1 1_555 1_555
Co2 O2 1_555 1_555
F1 C12 1_555 1_555
F2 C12 1_555 1_555
F3 C12 1_555 1_555
F4 C16 1_555 1_555
F5 C16 1_555 1_555
F6 C16 1_555 1_555
F7 C17 1_555 1_555
F8 C17 1_555 1_555
F9 C17 1_555 1_555
F10 C21 1_555 1_555
F11 C21 1_555 1_555
F12 C21 1_555 1_555
F13 C22 1_555 1_555
F14 C22 1_555 1_555
F15 C22 1_555 1_555
F16 C26 1_555 1_555
F17 C26 1_555 1_555
F18 C26 1_555 1_555
O1 N1 1_555 1_555
O2 N2 1_555 1_555
O3 N3 1_555 1_555
O4 Co1 1_555 1_555
O5 Co1 1_555 1_555
O6 Co1 1_555 1_555
O7 Co1 1_555 1_555
O8 Co2 1_555 1_555
O9 Co2 1_555 1_555
N1 C1 1_555 1_555
N2 C1 1_555 1_555
N3 C8 1_555 1_555
C1 H1 1_555 1_555
C2 N2 1_555 1_555
C3 N1 1_555 1_555
C4 C2 1_555 1_555
C5 C2 1_555 1_555
C6 C3 1_555 1_555
C7 C3 1_555 1_555
C8 H14 1_555 1_555
C9 C10 1_555 1_555
C10 H15 1_555 1_555
C11 C9 1_555 1_555
C12 C13 1_555 1_555
C13 O4 1_555 1_555
C14 C13 1_555 1_555
C15 O5 1_555 1_555
C16 C15 1_555 1_555
C17 C18 1_555 1_555
C18 O6 1_555 1_555
C19 C18 1_555 1_555
C20 O7 1_555 1_555
C21 C20 1_555 1_555
C22 C23 1_555 1_555
C23 O8 1_555 1_555
C24 C23 1_555 1_555
C25 O9 1_555 1_555
C26 C25 1_555 1_555
H2 C4 1_555 1_555
H3 C4 1_555 1_555
H4 C4 1_555 1_555
H5 C5 1_555 1_555
H6 C5 1_555 1_555
H7 C5 1_555 1_555
H8 C6 1_555 1_555
H9 C6 1_555 1_555
H10 C6 1_555 1_555
H11 C7 1_555 1_555
H12 C7 1_555 1_555
H13 C7 1_555 1_555
H16 C10 1_555 1_555
H17 C10 1_555 1_555
H18 C11 1_555 1_555
H19 C11 1_555 1_555
H20 C11 1_555 1_555
H21 C14 1_555 1_555
H22 C19 1_555 1_555
H23 C24 1_555 1_555
Co1E O3 1_555 1_555
Co1G O3B 1_555 1_555
F1E C12E 1_555 1_555
F2E C12E 1_555 1_555
F3E C12E 1_555 1_555
F4E C16E 1_555 1_555
F5E C16E 1_555 1_555
F6E C16E 1_555 1_555
F7E C17E 1_555 1_555
F8E C17E 1_555 1_555
F9E C17E 1_555 1_555
F10E C21E 1_555 1_555
F11E C21E 1_555 1_555
F12E C21E 1_555 1_555
F13E C22E 1_555 1_555
F14E C22E 1_555 1_555
F15E C22E 1_555 1_555
F16E C26E 1_555 1_555
F17E C26E 1_555 1_555
F18E C26E 1_555 1_555
O1E Co1E 1_555 1_555
O2E Co2 1_555 1_555
O3E Co1 1_555 1_555
O3B N3B 1_555 1_555
O4E Co1E 1_555 1_555
O5E Co1E 1_555 1_555
O6E Co1E 1_555 1_555
O7E Co1E 1_555 1_555
O8E Co2 1_555 1_555
O9E Co2 1_555 1_555
N1E O1E 1_555 1_555
N2E O2E 1_555 1_555
N3B C8 1_555 1_555
C1E N1E 1_555 1_555
C2E N2E 1_555 1_555
C3E N1E 1_555 1_555
C4E C2E 1_555 1_555
C5E C2E 1_555 1_555
C6E C3E 1_555 1_555
C7E C3E 1_555 1_555
C9B N3 1_555 1_555
C10B C9B 1_555 1_555
C11B C9B 1_555 1_555
C12E C13E 1_555 1_555
C13E O4E 1_555 1_555
C14E C13E 1_555 1_555
C15E O5E 1_555 1_555
C16E C15E 1_555 1_555
C17E C18E 1_555 1_555
C18E O6E 1_555 1_555
C19E C18E 1_555 1_555
C20E O7E 1_555 1_555
C21E C20E 1_555 1_555
C22E C23E 1_555 1_555
C23E O8E 1_555 1_555
C24E C23E 1_555 1_555
C25E O9E 1_555 1_555
C26E C25E 1_555 1_555
H1E C1E 1_555 1_555
H2E C4E 1_555 1_555
H3E C4E 1_555 1_555
H4E C4E 1_555 1_555
H5E C5E 1_555 1_555
H6E C5E 1_555 1_555
H7E C5E 1_555 1_555
H8E C6E 1_555 1_555
H9E C6E 1_555 1_555
H10E C6E 1_555 1_555
H11E C7E 1_555 1_555
H12E C7E 1_555 1_555
H13E C7E 1_555 1_555
H15B C10B 1_555 1_555
H16B C10B 1_555 1_555
H17B C10B 1_555 1_555
H18B C11B 1_555 1_555
H19B C11B 1_555 1_555
H20B C11B 1_555 1_555
H21E C14E 1_555 1_555
H22E C19E 1_555 1_555
H23E C24E 1_555 1_555
C2 C3 1_555 1_555
C9 N3B 1_555 1_555
C9 C9B 1_555 1_555
C14 C15 1_555 1_555
C19 C20 1_555 1_555
C24 C25 1_555 1_555
N2E C1E 1_555 1_555
C2E C3E 1_555 1_555
C14E C15E 1_555 1_555
C19E C20E 1_555 1_555
C24E C25E 1_555 1_555

#END
