
#######################################################################
#
#                 Cambridge Crystallographic Data Centre
#                                CCDC 
#
#######################################################################
#
# If this CIF has been generated from an entry in the Cambridge 
# Structural Database, then it will include bibliographic, chemical, 
# crystal, experimental, refinement or atomic coordinate data resulting 
# from the CCDC's data processing and validation procedures.
#
#######################################################################

data_SEHMOJ
_symmetry_cell_setting           monoclinic
_symmetry_space_group_name_H-M   'P 21/c'
_symmetry_Int_Tables_number      14
_space_group_name_Hall           '-P 2ybc'
loop_
_symmetry_equiv_pos_site_id
_symmetry_equiv_pos_as_xyz
1 x,y,z
2 -x,1/2+y,1/2-z
3 -x,-y,-z
4 x,1/2-y,1/2+z
_cell_length_a                   14.2461(16)
_cell_length_b                   21.754(3)
_cell_length_c                   11.6482(13)
_cell_angle_alpha                90
_cell_angle_beta                 95.942(2)
_cell_angle_gamma                90
_cell_volume                     3590.49
loop_
_atom_site_label
_atom_site_type_symbol
_atom_site_fract_x
_atom_site_fract_y
_atom_site_fract_z
C1 C 0.6292(3) 0.4029(2) 1.2640(4)
H1 H 0.6036 0.3729 1.3083
C2 C 0.7120(3) 0.3900(2) 1.2175(4)
H2 H 0.7409 0.3519 1.2302
C3 C 0.7522(3) 0.4341(2) 1.1516(4)
C4 C 0.7066(3) 0.4903(2) 1.1394(4)
H3 H 0.7321 0.5219 1.0989
C5 C 0.6230(3) 0.4991(2) 1.1875(4)
H4 H 0.5925 0.5368 1.1767
C6 C 0.8392(3) 0.4217(2) 1.0951(4)
C7 C 0.9059(3) 0.3797(2) 1.1451(4)
H5 H 0.8958 0.3608 1.2144
C8 C 0.9867(3) 0.3655(2) 1.0933(4)
C9 C 1.0024(3) 0.3951(2) 0.9909(4)
H6 H 1.0563 0.3867 0.9550
C10 C 0.9369(3) 0.4372(2) 0.9434(4)
C11 C 0.8562(3) 0.4504(2) 0.9922(4)
H7 H 0.8129 0.4783 0.9570
C12 C 1.0515(3) 0.3179(3) 1.1480(5)
C13 C 1.0200(4) 0.2726(3) 1.2180(6)
H8 H 0.9567 0.2715 1.2310
C14 C 1.0811(4) 0.2294(3) 1.2686(6)
H9 H 1.0575 0.2004 1.3168
C15 C 1.2009(5) 0.2697(4) 1.1898(7)
H10 H 1.2650 0.2702 1.1806
C16 C 1.1450(4) 0.3161(3) 1.1339(6)
H11 H 1.1714 0.3450 1.0880
C17 C 0.9638(3) 0.4378(2) 0.7432(4)
C18 C 0.8970(3) 0.3954(2) 0.6996(4)
H12 H 0.8459 0.3862 0.7403
C19 C 0.9064(3) 0.3666(2) 0.5943(4)
C20 C 0.9832(3) 0.3822(3) 0.5345(4)
H13 H 0.9895 0.3637 0.4637
C21 C 1.0506(3) 0.4248(3) 0.5785(4)
C22 C 1.0403(3) 0.4527(3) 0.6853(4)
H14 H 1.0848 0.4810 0.7167
C23 C 0.8385(3) 0.3182(2) 0.5472(4)
C24 C 0.7461(4) 0.3160(3) 0.5727(6)
H15 H 0.7226 0.3467 0.6173
C25 C 0.6887(4) 0.2682(3) 0.5322(6)
H16 H 0.6273 0.2678 0.5524
C26 C 0.8031(4) 0.2256(3) 0.4407(5)
H17 H 0.8239 0.1948 0.3940
C27 C 0.8656(4) 0.2710(3) 0.4785(5)
H18 H 0.9269 0.2701 0.4576
C28 C 1.1342(3) 0.4391(3) 0.5167(5)
C29 C 1.2051(5) 0.4726(3) 0.5579(6)
H19 H 1.2035 0.4902 0.6304
C30 C 1.2834(5) 0.4834(4) 0.4986(6)
H20 H 1.3305 0.5089 0.5334
C31 C 1.2182(5) 0.4385(4) 0.3483(6)
H21 H 1.2188 0.4283 0.2709
C32 C 1.1357(5) 0.4281(4) 0.3989(5)
H22 H 1.0819 0.4139 0.3548
C33 C 0.4146(3) 0.35416(18) 1.1343(3)
C34 C 0.4367(3) 0.28700(19) 1.1177(3)
C35 C 0.4758(4) 0.2525(2) 1.2112(4)
H23 H 0.4882 0.2710 1.2832
C36 C 0.4966(4) 0.1907(2) 1.1981(4)
H24 H 0.5226 0.1681 1.2612
C37 C 0.4787(3) 0.16292(18) 1.0919(3)
C38 C 0.4371(3) 0.19609(19) 0.9990(4)
H25 H 0.4221 0.1768 0.9282
C39 C 0.4174(3) 0.2583(2) 1.0113(4)
H26 H 0.3912 0.2808 0.9480
C40 C 0.5086(3) 0.09657(18) 1.0765(3)
Cd1 Cd 0.434518(19) 0.468440(12) 1.31644(2)
N1 N 0.5841(3) 0.45591(18) 1.2490(3)
N2 N 1.1715(4) 0.2264(3) 1.2531(6)
N3 N 0.7142(3) 0.2229(2) 0.4669(5)
N4 N 1.2947(3) 0.4614(2) 0.4020(4)
O1 O 0.4064(2) 0.37154(12) 1.2347(2)
O2 O 0.4064(3) 0.38800(14) 1.0455(3)
O3 O 0.5341(3) 0.06793(15) 1.1675(3)
O4 O 0.5108(2) 0.07645(14) 0.9779(3)
O5 O 0.9533(3) 0.47014(14) 0.8436(3)
O6 O 0.3602(2) 0.49821(15) 1.1393(3)
H27 H 0.3176 0.4664 1.1096
H28 H 0.4067 0.5051 1.0866
Cd1_2 Cd 1.434518(19) 0.468440(12) 0.31644(2)
Cd1A Cd 0.565482(19) -0.031560(12) 1.18356(2)
Cd1C Cd 0.434518(19) 0.031560(12) 0.81644(2)
N4_2 N 0.2947(3) 0.4614(2) 1.4020(4)
O3A O 0.4659(3) 0.56793(15) 1.3325(3)
O4C O 0.5108(2) 0.42355(14) 1.4779(3)
O7 O 0.5853(3) 0.11067(18) 0.4452(3)
H29 H 0.5708 0.1311 0.5030
H30 H 0.6394 0.0945 0.4609
O8 O 0.7686(3) 0.6270(2) 0.1051(5)
H31 H 0.7185 0.6416 0.0696
H32 H 0.8129 0.6532 0.1049
loop_
_geom_bond_atom_site_label_1
_geom_bond_atom_site_label_2
_geom_bond_site_symmetry_1
_geom_bond_site_symmetry_2
C1 H1 1_555 1_555
C2 C1 1_555 1_555
H2 C2 1_555 1_555
C3 C2 1_555 1_555
C4 C3 1_555 1_555
H3 C4 1_555 1_555
C5 C4 1_555 1_555
H4 C5 1_555 1_555
C6 C3 1_555 1_555
C7 C6 1_555 1_555
H5 C7 1_555 1_555
C8 C7 1_555 1_555
C9 C8 1_555 1_555
H6 C9 1_555 1_555
C10 C9 1_555 1_555
C11 C6 1_555 1_555
H7 C11 1_555 1_555
C12 C8 1_555 1_555
C13 C12 1_555 1_555
H8 C13 1_555 1_555
C14 C13 1_555 1_555
H9 C14 1_555 1_555
C15 H10 1_555 1_555
C16 C12 1_555 1_555
H11 C16 1_555 1_555
C17 C18 1_555 1_555
C18 H12 1_555 1_555
C19 C18 1_555 1_555
C20 C19 1_555 1_555
H13 C20 1_555 1_555
C21 C20 1_555 1_555
C22 C17 1_555 1_555
H14 C22 1_555 1_555
C23 C19 1_555 1_555
C24 C23 1_555 1_555
H15 C24 1_555 1_555
C25 C24 1_555 1_555
H16 C25 1_555 1_555
C26 H17 1_555 1_555
C27 C23 1_555 1_555
H18 C27 1_555 1_555
C28 C21 1_555 1_555
C29 C28 1_555 1_555
H19 C29 1_555 1_555
C30 C29 1_555 1_555
H20 C30 1_555 1_555
C31 H21 1_555 1_555
C32 C28 1_555 1_555
H22 C32 1_555 1_555
C33 C34 1_555 1_555
C34 C35 1_555 1_555
C35 H23 1_555 1_555
C36 C35 1_555 1_555
H24 C36 1_555 1_555
C37 C36 1_555 1_555
C38 C37 1_555 1_555
H25 C38 1_555 1_555
C39 C34 1_555 1_555
H26 C39 1_555 1_555
C40 C37 1_555 1_555
Cd1 N1 1_555 1_555
N1 C1 1_555 1_555
N2 C14 1_555 1_555
N3 C25 1_555 1_555
N4 C30 1_555 1_555
O1 C33 1_555 1_555
O2 C33 1_555 1_555
O3 C40 1_555 1_555
O4 C40 1_555 1_555
O5 C10 1_555 1_555
O6 Cd1 1_555 1_555
H27 O6 1_555 1_555
H28 O6 1_555 1_555
O7 H29 1_555 1_555
H30 O7 1_555 1_555
O8 H31 1_555 1_555
H32 O8 1_555 1_555
Cd1_2 N4 1_555 1_555
Cd1A O3 1_555 1_555
Cd1C O4 1_555 1_555
N4_2 Cd1 1_555 1_555
O3A Cd1 1_555 1_555
O4C Cd1 1_555 1_555
C5 N1 1_555 1_555
C10 C11 1_555 1_555
C15 C16 1_555 1_555
C15 N2 1_555 1_555
C17 O5 1_555 1_555
C21 C22 1_555 1_555
C26 C27 1_555 1_555
C26 N3 1_555 1_555
C31 C32 1_555 1_555
C31 N4 1_555 1_555
C38 C39 1_555 1_555
Cd1 O1 1_555 1_555

#END
