
#######################################################################
#
#                 Cambridge Crystallographic Data Centre
#                                CCDC 
#
#######################################################################
#
# If this CIF has been generated from an entry in the Cambridge 
# Structural Database, then it will include bibliographic, chemical, 
# crystal, experimental, refinement or atomic coordinate data resulting 
# from the CCDC's data processing and validation procedures.
#
#######################################################################

data_SEHMEY
_symmetry_cell_setting           orthorhombic
_symmetry_space_group_name_H-M   'P n a 21'
_symmetry_Int_Tables_number      33
_space_group_name_Hall           'P 2c -2n'
loop_
_symmetry_equiv_pos_site_id
_symmetry_equiv_pos_as_xyz
1 x,y,z
2 -x,-y,1/2+z
3 1/2+x,1/2-y,z
4 1/2-x,1/2+y,1/2+z
_cell_length_a                   24.713(4)
_cell_length_b                   6.5565(10)
_cell_length_c                   12.5558(19)
_cell_angle_alpha                90
_cell_angle_beta                 90
_cell_angle_gamma                90
_cell_volume                     2034.43
loop_
_atom_site_label
_atom_site_type_symbol
_atom_site_fract_x
_atom_site_fract_y
_atom_site_fract_z
Ru1 Ru 0.350388(15) 0.99646(6) 0.38290(4)
Gd1 Gd 0.514858(8) 0.62146(3) 0.59983(2)
N1 N 0.27982(17) 1.1593(6) 0.3378(3)
N2 N 0.18341(19) 1.1433(7) 0.3416(4)
N3 N 0.28723(19) 0.8203(7) 0.4511(4)
N4 N 0.19186(19) 0.7892(7) 0.4617(4)
N5 N 0.33391(19) 0.7308(7) 0.1733(4)
N6 N 0.44259(19) 0.7255(7) 0.4787(4)
N7 N 0.4356(2) 1.2611(7) 0.2608(4)
N8 N 0.36613(17) 1.2501(7) 0.5980(6)
N9 N 0.55914(19) 0.9083(7) 0.4270(4)
O1 O 0.43496(16) 0.5215(6) 0.6979(3)
H1 H 0.4409 0.4584 0.7577
H2 H 0.4106 0.4482 0.6702
O2 O 0.60013(15) 0.4980(5) 0.5440(3)
H3 H 0.6220 0.4298 0.5798
H4 H 0.6179 0.5526 0.4949
O3 O 0.47241(15) 0.9530(5) 0.6660(3)
H5 H 0.4592 0.9564 0.7276
H6 H 0.4484 0.9962 0.6240
O4 O 0.53583(16) 0.3158(5) 0.7022(3)
H7 H 0.5607 0.3017 0.7447
H8 H 0.5206 0.2000 0.6971
O5 O 0.49382(18) 0.3347(6) 0.4887(4)
H9 H 0.5217 0.2714 0.4726
H10 H 0.4739 0.3388 0.4369
O6 O 0.55787(17) 0.9297(6) 0.5265(3)
O7 O 0.55270(19) 0.7352(7) 0.3901(4)
O8 O 0.5651(2) 1.0619(7) 0.3714(4)
C1 C 0.2324(2) 1.0735(8) 0.3665(5)
C2 C 0.1828(3) 1.3107(9) 0.2818(5)
H11 H 0.1486 1.3621 0.2597
C3 C 0.2279(3) 1.4127(9) 0.2503(5)
H12 H 0.2256 1.5351 0.2100
C4 C 0.2773(3) 1.3302(9) 0.2794(5)
H13 H 0.3098 1.3954 0.2576
C5 C 0.2369(3) 0.8844(8) 0.4294(5)
C6 C 0.2925(2) 0.6473(8) 0.5063(4)
H14 H 0.3278 0.5980 0.5219
C7 C 0.2485(2) 0.5389(9) 0.5410(5)
H15 H 0.2524 0.4144 0.5789
C8 C 0.1983(2) 0.6184(9) 0.5186(5)
H16 H 0.1671 0.5496 0.5443
C9 C 0.3408(2) 0.8242(7) 0.2473(4)
C10 C 0.4093(2) 0.8238(7) 0.4381(4)
C11 C 0.4043(2) 1.1686(7) 0.3065(4)
C12 C 0.3592(2) 1.1630(7) 0.5203(5)
Gd1A Gd 0.485142(8) 1.37854(3) 0.09983(2)
N7A N 0.5644(2) 0.7389(7) 0.7608(4)
loop_
_geom_bond_atom_site_label_1
_geom_bond_atom_site_label_2
_geom_bond_site_symmetry_1
_geom_bond_site_symmetry_2
Ru1 N1 1_555 1_555
Gd1 N6 1_555 1_555
N1 C1 1_555 1_555
N2 C1 1_555 1_555
N3 Ru1 1_555 1_555
N4 C5 1_555 1_555
N5 C9 1_555 1_555
N6 C10 1_555 1_555
N7 C11 1_555 1_555
N8 C12 1_555 1_555
N9 O6 1_555 1_555
O1 Gd1 1_555 1_555
H1 O1 1_555 1_555
H2 O1 1_555 1_555
O2 Gd1 1_555 1_555
H3 O2 1_555 1_555
H4 O2 1_555 1_555
O3 Gd1 1_555 1_555
H5 O3 1_555 1_555
H6 O3 1_555 1_555
O4 Gd1 1_555 1_555
H7 O4 1_555 1_555
H8 O4 1_555 1_555
O5 Gd1 1_555 1_555
H9 O5 1_555 1_555
H10 O5 1_555 1_555
O6 Gd1 1_555 1_555
O7 Gd1 1_555 1_555
O8 N9 1_555 1_555
C1 C5 1_555 1_555
C2 N2 1_555 1_555
H11 C2 1_555 1_555
C3 C2 1_555 1_555
H12 C3 1_555 1_555
C4 N1 1_555 1_555
H13 C4 1_555 1_555
C5 N3 1_555 1_555
C6 N3 1_555 1_555
H14 C6 1_555 1_555
C7 C6 1_555 1_555
H15 C7 1_555 1_555
C8 N4 1_555 1_555
H16 C8 1_555 1_555
C9 Ru1 1_555 1_555
C10 Ru1 1_555 1_555
C11 Ru1 1_555 1_555
C12 Ru1 1_555 1_555
Gd1A N7 1_555 1_555
N7A Gd1 1_555 1_555
N9 O7 1_555 1_555
C3 C4 1_555 1_555
C7 C8 1_555 1_555

#END
