
#######################################################################
#
#                 Cambridge Crystallographic Data Centre
#                                CCDC 
#
#######################################################################
#
# If this CIF has been generated from an entry in the Cambridge 
# Structural Database, then it will include bibliographic, chemical, 
# crystal, experimental, refinement or atomic coordinate data resulting 
# from the CCDC's data processing and validation procedures.
#
#######################################################################

data_SEHMEZ
_symmetry_cell_setting           monoclinic
_symmetry_space_group_name_H-M   'C 2/c'
_symmetry_Int_Tables_number      15
_space_group_name_Hall           '-C 2yn'
loop_
_symmetry_equiv_pos_site_id
_symmetry_equiv_pos_as_xyz
1 x,y,z
2 -x,y,1/2-z
3 1/2+x,1/2+y,z
4 1/2-x,1/2+y,1/2-z
5 -x,-y,-z
6 x,-y,1/2+z
7 1/2-x,1/2-y,-z
8 1/2+x,1/2-y,1/2+z
_cell_length_a                   18.833(5)
_cell_length_b                   13.696(3)
_cell_length_c                   30.322(8)
_cell_angle_alpha                90
_cell_angle_beta                 107.039(5)
_cell_angle_gamma                90
_cell_volume                     7477.85
loop_
_atom_site_label
_atom_site_type_symbol
_atom_site_fract_x
_atom_site_fract_y
_atom_site_fract_z
C1 C 0.1767(2) 1.0060(2) 0.34242(12)
H1 H 0.1969 1.0367 0.3707
C2 C 0.1421(2) 1.0635(2) 0.30462(12)
H2 H 0.1393 1.1308 0.3081
C3 C 0.1120(2) 1.0213(2) 0.26187(12)
C4 C 0.1164(2) 0.9201(2) 0.26029(12)
H3 H 0.0958 0.8877 0.2325
C5 C 0.1509(2) 0.8673(3) 0.29935(13)
H4 H 0.1524 0.7996 0.2971
C6 C 0.07947(19) 1.0816(2) 0.21999(11)
C7 C 0.1011(2) 1.1781(2) 0.21810(13)
H5 H 0.1358 1.2053 0.2436
C8 C 0.0720(2) 1.2350(2) 0.17889(13)
C9 C 0.0220(2) 1.1936(2) 0.14068(12)
H6 H 0.0016 1.2308 0.1144
C10 C 0.00251(19) 1.0971(2) 0.14180(11)
C11 C 0.02886(19) 1.0408(2) 0.18104(11)
H7 H 0.0131 0.9766 0.1815
C12 C 0.0941(2) 1.3394(3) 0.17798(14)
C13 C 0.1612(3) 1.3735(3) 0.20495(16)
H8 H 0.1957 1.3303 0.2231
C14 C 0.1776(3) 1.4715(4) 0.2052(2)
H9 H 0.2215 1.4937 0.2259
C15 C 0.0716(4) 1.5035(4) 0.1515(2)
H10 H 0.0403 1.5480 0.1319
C16 C 0.0476(3) 1.4058(3) 0.15073(16)
H11 H 0.0010 1.3871 0.1320
C17 C -0.0577(2) 1.0870(2) 0.06025(11)
C18 C -0.0008(2) 1.1060(2) 0.04281(11)
H12 H 0.0477 1.0959 0.0611
C19 C -0.0139(2) 1.1408(2) -0.00237(12)
C20 C -0.0882(2) 1.1557(2) -0.02802(12)
H13 H -0.0987 1.1819 -0.0575
C21 C -0.1457(2) 1.1325(2) -0.01072(12)
C22 C -0.1308(2) 1.0964(2) 0.03456(12)
H14 H -0.1691 1.0795 0.0467
C23 C 0.0473(2) 1.1577(2) -0.02257(12)
C24 C 0.1224(2) 1.1484(2) 0.00142(13)
H15 H 0.1362 1.1362 0.0330
C25 C 0.1757(2) 1.1568(2) -0.02027(13)
H16 H 0.2251 1.1496 -0.0028
C26 C 0.0897(2) 1.1885(3) -0.08852(13)
H17 H 0.0777 1.2042 -0.1197
C27 C 0.0333(2) 1.1807(3) -0.06896(13)
H18 H -0.0153 1.1909 -0.0870
C28 C -0.2244(2) 1.1465(3) -0.03886(12)
C29 C -0.2472(2) 1.2274(3) -0.06660(12)
H19 H -0.2135 1.2759 -0.0683
C30 C -0.3209(3) 1.2347(3) -0.09173(14)
H20 H -0.3354 1.2898 -0.1101
C31 C -0.3501(3) 1.0920(3) -0.06543(15)
H21 H -0.3851 1.0444 -0.0648
C32 C -0.2780(2) 1.0773(3) -0.03888(14)
H22 H -0.2654 1.0212 -0.0210
C33 C 0.3482(2) 0.9582(3) 0.44676(12)
C34 C 0.4266(2) 0.9800(2) 0.47343(12)
C35 C 0.4787(2) 0.9068(2) 0.48749(14)
H23 H 0.4649 0.8427 0.4792
C36 C 0.4498(2) 1.0738(3) 0.48665(14)
H24 H 0.4163 1.1250 0.4778
C37 C 0.2116(2) 0.6410(2) 0.36037(13)
C38 C 0.2387(2) 0.5430(2) 0.34976(12)
C39 C 0.1889(2) 0.4699(3) 0.33082(13)
H25 H 0.1381 0.4817 0.3234
C40 C 0.2146(2) 0.3786(3) 0.32275(14)
H26 H 0.1807 0.3296 0.3098
C41 C 0.2891(2) 0.3595(2) 0.33358(13)
C42 C 0.3385(2) 0.4321(2) 0.35294(12)
H27 H 0.3893 0.4196 0.3614
C43 C 0.3130(2) 0.5236(2) 0.35989(12)
H28 H 0.3471 0.5731 0.3717
C44 C 0.3178(3) 0.2590(3) 0.32692(18)
N1 N 0.18237(15) 0.90906(19) 0.34049(9)
N2 N 0.16113(17) 1.17491(18) -0.06550(10)
N3 N -0.3729(2) 1.1693(3) -0.09170(12)
N4 N 0.1343(4) 1.5347(3) 0.17778(19)
O1 O -0.04722(14) 1.04996(15) 0.10492(8)
O2 O 0.33298(14) 0.86942(18) 0.43587(9)
O3 O 0.30185(16) 1.0237(2) 0.43640(10)
O4 O 0.26314(15) 0.70153(16) 0.38034(10)
O5 O 0.14510(17) 0.65913(18) 0.34932(11)
O6 O 0.2734(2) 0.2025(2) 0.30106(17)
H29 H 0.2859 0.1460 0.3083
O7 O 0.3817(2) 0.2385(2) 0.34655(14)
Zn1 Zn 0.23673(2) 0.82908(3) 0.397734(14)
C1D C 0.8233(2) 0.9940(2) 0.65758(12)
H1D H 0.8031 0.9633 0.6293
C2D C 0.8579(2) 0.9365(2) 0.69538(12)
H2D H 0.8607 0.8692 0.6919
C3D C 0.8880(2) 0.9787(2) 0.73813(12)
C4D C 0.8836(2) 1.0799(2) 0.73971(12)
H3D H 0.9042 1.1123 0.7675
C5D C 0.8491(2) 1.1327(3) 0.70065(13)
H4D H 0.8476 1.2004 0.7029
C6D C 0.92053(19) 0.9184(2) 0.78001(11)
C7D C 0.8989(2) 0.8219(2) 0.78190(13)
H5D H 0.8642 0.7947 0.7564
C8D C 0.9280(2) 0.7650(2) 0.82111(13)
C9D C 0.9780(2) 0.8064(2) 0.85932(12)
H6D H 0.9984 0.7692 0.8856
C10D C 0.99749(19) 0.9029(2) 0.85820(11)
C11D C 0.97114(19) 0.9592(2) 0.81896(11)
H7D H 0.9869 1.0234 0.8185
C12D C 0.9059(2) 0.6606(3) 0.82202(14)
C13D C 0.8388(3) 0.6265(3) 0.79505(16)
H8D H 0.8043 0.6697 0.7769
C14D C 0.8224(3) 0.5285(4) 0.7948(2)
H9D H 0.7785 0.5063 0.7741
C15D C 0.9284(4) 0.4965(4) 0.8485(2)
H10D H 0.9597 0.4520 0.8681
C16D C 0.9524(3) 0.5942(3) 0.84927(16)
H11D H 0.9990 0.6129 0.8680
C17D C 1.0577(2) 0.9130(2) 0.93975(11)
C18D C 1.0008(2) 0.8940(2) 0.95719(11)
H12D H 0.9523 0.9041 0.9389
C19D C 1.0139(2) 0.8592(2) 1.00237(12)
C20D C 1.0882(2) 0.8443(2) 1.02802(12)
H13D H 1.0987 0.8181 1.0575
C21D C 1.1457(2) 0.8675(2) 1.01072(12)
C22D C 1.1308(2) 0.9036(2) 0.96544(12)
H14D H 1.1691 0.9205 0.9533
C23D C 0.9527(2) 0.8423(2) 1.02257(12)
C24D C 0.8776(2) 0.8516(2) 0.99858(13)
H15D H 0.8638 0.8638 0.9670
C25D C 0.8243(2) 0.8432(2) 1.02027(13)
H16D H 0.7749 0.8504 1.0028
C26D C 0.9103(2) 0.8115(3) 1.08852(13)
H17D H 0.9223 0.7958 1.1197
C27D C 0.9667(2) 0.8193(3) 1.06896(13)
H18D H 1.0153 0.8091 1.0870
C28D C 1.2244(2) 0.8535(3) 1.03886(12)
C29D C 1.2472(2) 0.7726(3) 1.06660(12)
H19D H 1.2135 0.7241 1.0683
C30D C 1.3209(3) 0.7653(3) 1.09173(14)
H20D H 1.3354 0.7102 1.1101
C31D C 1.3501(3) 0.9080(3) 1.06543(15)
H21D H 1.3851 0.9556 1.0648
C32D C 1.2780(2) 0.9227(3) 1.03888(14)
H22D H 1.2654 0.9788 1.0210
C33D C 0.6518(2) 1.0418(3) 0.55324(12)
C34D C 0.5734(2) 1.0200(2) 0.52657(12)
C35D C 0.5213(2) 1.0932(2) 0.51251(14)
H23D H 0.5351 1.1573 0.5208
C36D C 0.5502(2) 0.9262(3) 0.51335(14)
H24D H 0.5837 0.8750 0.5222
C37D C 0.7884(2) 1.3590(2) 0.63963(13)
C38D C 0.7613(2) 1.4570(2) 0.65024(12)
C39D C 0.8111(2) 1.5301(3) 0.66918(13)
H25D H 0.8619 1.5183 0.6766
C40D C 0.7854(2) 1.6214(3) 0.67725(14)
H26D H 0.8193 1.6704 0.6902
C41D C 0.7109(2) 1.6405(2) 0.66642(13)
C42D C 0.6615(2) 1.5679(2) 0.64706(12)
H27D H 0.6107 1.5804 0.6386
C43D C 0.6870(2) 1.4764(2) 0.64011(12)
H28D H 0.6529 1.4269 0.6283
C44D C 0.6822(3) 1.7410(3) 0.67308(18)
N1D N 0.81763(15) 1.09094(19) 0.65951(9)
N2D N 0.83887(17) 0.82509(18) 1.06550(10)
N2A N 0.83887(17) 1.17491(18) 0.56550(10)
N2E N 0.16113(17) 0.82509(18) 0.43450(10)
N3D N 1.3729(2) 0.8307(3) 1.09170(12)
N4D N 0.8657(4) 0.4653(3) 0.82222(19)
O1D O 1.04722(14) 0.95004(15) 0.89508(8)
O2D O 0.66702(14) 1.13058(18) 0.56413(9)
O3D O 0.69815(16) 0.9763(2) 0.56360(10)
O4D O 0.73686(15) 1.29847(16) 0.61966(10)
O5D O 0.85490(17) 1.34087(18) 0.65068(11)
O6D O 0.7266(2) 1.7975(2) 0.69894(17)
H29D H 0.7141 1.8540 0.6917
O7D O 0.6183(2) 1.7615(2) 0.65345(14)
Zn1D Zn 0.76327(2) 1.17092(3) 0.602266(14)
Zn1A Zn 0.76327(2) 0.82908(3) 1.102266(14)
Zn1E Zn 0.23673(2) 1.17092(3) -0.102266(14)
loop_
_geom_bond_atom_site_label_1
_geom_bond_atom_site_label_2
_geom_bond_site_symmetry_1
_geom_bond_site_symmetry_2
C1 H1 1_555 1_555
C2 C1 1_555 1_555
H2 C2 1_555 1_555
C3 C2 1_555 1_555
C4 C3 1_555 1_555
H3 C4 1_555 1_555
C5 C4 1_555 1_555
H4 C5 1_555 1_555
C6 C3 1_555 1_555
C7 C6 1_555 1_555
H5 C7 1_555 1_555
C8 C7 1_555 1_555
C9 C8 1_555 1_555
H6 C9 1_555 1_555
C10 C9 1_555 1_555
C11 C6 1_555 1_555
H7 C11 1_555 1_555
C12 C8 1_555 1_555
C13 C12 1_555 1_555
H8 C13 1_555 1_555
C14 C13 1_555 1_555
H9 C14 1_555 1_555
C15 H10 1_555 1_555
C16 C12 1_555 1_555
H11 C16 1_555 1_555
C17 C18 1_555 1_555
C18 H12 1_555 1_555
C19 C18 1_555 1_555
C20 C19 1_555 1_555
H13 C20 1_555 1_555
C21 C20 1_555 1_555
C22 C17 1_555 1_555
H14 C22 1_555 1_555
C23 C19 1_555 1_555
C24 C23 1_555 1_555
H15 C24 1_555 1_555
C25 C24 1_555 1_555
H16 C25 1_555 1_555
C26 H17 1_555 1_555
C27 C23 1_555 1_555
H18 C27 1_555 1_555
C28 C21 1_555 1_555
C29 C28 1_555 1_555
H19 C29 1_555 1_555
C30 C29 1_555 1_555
H20 C30 1_555 1_555
C31 H21 1_555 1_555
C32 C28 1_555 1_555
H22 C32 1_555 1_555
C33 C34 1_555 1_555
C34 C35 1_555 1_555
C35 H23 1_555 1_555
C36 C34 1_555 1_555
H24 C36 1_555 1_555
C37 C38 1_555 1_555
C38 C39 1_555 1_555
C39 H25 1_555 1_555
C40 C39 1_555 1_555
H26 C40 1_555 1_555
C41 C40 1_555 1_555
C42 C41 1_555 1_555
H27 C42 1_555 1_555
C43 C38 1_555 1_555
H28 C43 1_555 1_555
C44 C41 1_555 1_555
N1 C1 1_555 1_555
N2 C25 1_555 1_555
N3 C30 1_555 1_555
N4 C14 1_555 1_555
O1 C10 1_555 1_555
O2 C33 1_555 1_555
O3 C33 1_555 1_555
O4 C37 1_555 1_555
O5 C37 1_555 1_555
O6 C44 1_555 1_555
H29 O6 1_555 1_555
O7 C44 1_555 1_555
Zn1 N1 1_555 1_555
C1D H1D 1_555 1_555
C2D C1D 1_555 1_555
H2D C2D 1_555 1_555
C3D C2D 1_555 1_555
C4D C3D 1_555 1_555
H3D C4D 1_555 1_555
C5D C4D 1_555 1_555
H4D C5D 1_555 1_555
C6D C3D 1_555 1_555
C7D C6D 1_555 1_555
H5D C7D 1_555 1_555
C8D C7D 1_555 1_555
C9D C8D 1_555 1_555
H6D C9D 1_555 1_555
C10D C9D 1_555 1_555
C11D C6D 1_555 1_555
H7D C11D 1_555 1_555
C12D C8D 1_555 1_555
C13D C12D 1_555 1_555
H8D C13D 1_555 1_555
C14D C13D 1_555 1_555
H9D C14D 1_555 1_555
C15D H10D 1_555 1_555
C16D C12D 1_555 1_555
H11D C16D 1_555 1_555
C17D C18D 1_555 1_555
C18D H12D 1_555 1_555
C19D C18D 1_555 1_555
C20D C19D 1_555 1_555
H13D C20D 1_555 1_555
C21D C20D 1_555 1_555
C22D C17D 1_555 1_555
H14D C22D 1_555 1_555
C23D C19D 1_555 1_555
C24D C23D 1_555 1_555
H15D C24D 1_555 1_555
C25D C24D 1_555 1_555
H16D C25D 1_555 1_555
C26D H17D 1_555 1_555
C27D C23D 1_555 1_555
H18D C27D 1_555 1_555
C28D C21D 1_555 1_555
C29D C28D 1_555 1_555
H19D C29D 1_555 1_555
C30D C29D 1_555 1_555
H20D C30D 1_555 1_555
C31D H21D 1_555 1_555
C32D C28D 1_555 1_555
H22D C32D 1_555 1_555
C33D C34D 1_555 1_555
C34D C35D 1_555 1_555
C35D C36 1_555 1_555
H23D C35D 1_555 1_555
C36D C35 1_555 1_555
H24D C36D 1_555 1_555
C37D C38D 1_555 1_555
C38D C39D 1_555 1_555
C39D H25D 1_555 1_555
C40D C39D 1_555 1_555
H26D C40D 1_555 1_555
C41D C40D 1_555 1_555
C42D C41D 1_555 1_555
H27D C42D 1_555 1_555
C43D C38D 1_555 1_555
H28D C43D 1_555 1_555
C44D C41D 1_555 1_555
N1D C1D 1_555 1_555
N2D C25D 1_555 1_555
N2A Zn1D 1_555 1_555
N2E Zn1 1_555 1_555
N3D C30D 1_555 1_555
N4D C14D 1_555 1_555
O1D C10D 1_555 1_555
O2D C33D 1_555 1_555
O3D C33D 1_555 1_555
O4D C37D 1_555 1_555
O5D C37D 1_555 1_555
O6D C44D 1_555 1_555
H29D O6D 1_555 1_555
O7D C44D 1_555 1_555
Zn1D N1D 1_555 1_555
Zn1A N2D 1_555 1_555
Zn1E N2 1_555 1_555
C5 N1 1_555 1_555
C10 C11 1_555 1_555
C15 C16 1_555 1_555
C15 N4 1_555 1_555
C17 O1 1_555 1_555
C21 C22 1_555 1_555
C26 C27 1_555 1_555
C26 N2 1_555 1_555
C31 C32 1_555 1_555
C31 N3 1_555 1_555
C42 C43 1_555 1_555
O2 Zn1 1_555 1_555
O4 Zn1 1_555 1_555
C5D N1D 1_555 1_555
C10D C11D 1_555 1_555
C15D C16D 1_555 1_555
C15D N4D 1_555 1_555
C17D O1D 1_555 1_555
C21D C22D 1_555 1_555
C26D C27D 1_555 1_555
C26D N2D 1_555 1_555
C31D C32D 1_555 1_555
C31D N3D 1_555 1_555
C34D C36D 1_555 1_555
C42D C43D 1_555 1_555
O2D Zn1D 1_555 1_555
O4D Zn1D 1_555 1_555

#END
