
#######################################################################
#
#                 Cambridge Crystallographic Data Centre
#                                CCDC 
#
#######################################################################
#
# If this CIF has been generated from an entry in the Cambridge 
# Structural Database, then it will include bibliographic, chemical, 
# crystal, experimental, refinement or atomic coordinate data resulting 
# from the CCDC's data processing and validation procedures.
#
#######################################################################

data_SEHMID
_symmetry_cell_setting           triclinic
_symmetry_space_group_name_H-M   'P -1'
_symmetry_Int_Tables_number      2
_space_group_name_Hall           '-P 1'
loop_
_symmetry_equiv_pos_site_id
_symmetry_equiv_pos_as_xyz
1 x,y,z
2 -x,-y,-z
_cell_length_a                   10.239(10)
_cell_length_b                   14.746(6)
_cell_length_c                   16.5153(16)
_cell_angle_alpha                93.9830(15)
_cell_angle_beta                 101.4790(15)
_cell_angle_gamma                105.6240(15)
_cell_volume                     2333.29
loop_
_atom_site_label
_atom_site_type_symbol
_atom_site_fract_x
_atom_site_fract_y
_atom_site_fract_z
N1 N 0.8890(8) 0.2767(6) 0.3852(4)
N2 N 0.1035(7) 0.8192(5) 0.4584(4)
C1 C 0.0380(11) 0.2765(7) 0.1679(6)
H1 H -0.0131 0.2252 0.1891
C2 C 0.1703(11) 0.3218(7) 0.2105(6)
H2 H 0.2067 0.3004 0.2591
C3 C 0.2507(9) 0.3979(7) 0.1836(5)
C4 C 0.1862(10) 0.4249(7) 0.1124(6)
H3 H 0.2361 0.4763 0.0908
C5 C 0.0523(10) 0.3797(8) 0.0719(6)
H4 H 0.0114 0.4033 0.0258
C6 C 0.3948(9) 0.4472(7) 0.2245(6)
C7 C 0.4844(9) 0.3972(7) 0.2566(5)
H5 H 0.4508 0.3317 0.2541
C8 C 0.6233(10) 0.4420(7) 0.2924(5)
C9 C 0.6734(9) 0.5380(7) 0.2981(5)
H6 H 0.7667 0.5682 0.3223
C10 C 0.5864(10) 0.5903(6) 0.2682(5)
C11 C 0.4465(9) 0.5465(7) 0.2309(5)
H7 H 0.3883 0.5825 0.2106
C12 C 0.7173(9) 0.3841(6) 0.3257(5)
C13 C 0.6645(10) 0.2977(7) 0.3511(6)
H8 H 0.5695 0.2743 0.3480
C14 C 0.7529(11) 0.2459(7) 0.3813(6)
H9 H 0.7167 0.1880 0.3994
C15 C 0.9422(10) 0.3585(7) 0.3631(6)
H10 H 1.0378 0.3804 0.3679
C16 C 0.8605(10) 0.4127(7) 0.3331(6)
H11 H 0.9015 0.4708 0.3169
C17 C 0.5668(8) 0.7497(6) 0.2676(5)
C18 C 0.6025(9) 0.8217(6) 0.2196(5)
H12 H 0.6659 0.8201 0.1867
C19 C 0.5434(8) 0.8970(6) 0.2205(5)
C20 C 0.4447(9) 0.8949(6) 0.2681(5)
H13 H 0.4051 0.9447 0.2699
C21 C 0.4044(9) 0.8198(7) 0.3128(5)
C22 C 0.4678(9) 0.7458(6) 0.3126(5)
H14 H 0.4426 0.6954 0.3427
C23 C 0.2956(9) 0.8180(7) 0.3636(5)
C24 C 0.2885(9) 0.8987(7) 0.4039(6)
H15 H 0.3498 0.9567 0.3999
C25 C 0.1915(10) 0.8955(7) 0.4507(6)
H16 H 0.1899 0.9522 0.4784
C26 C 0.1028(9) 0.7357(6) 0.4156(5)
H17 H 0.0377 0.6793 0.4194
C27 C 0.1976(9) 0.7348(6) 0.3673(5)
H18 H 0.1954 0.6784 0.3374
C28 C 0.5889(9) 0.9762(6) 0.1749(5)
C29 C 0.6325(13) 0.9645(8) 0.1022(7)
H19 H 0.6212 0.9035 0.0773
C30 C 0.6915(12) 1.0400(8) 0.0662(7)
H20 H 0.7282 1.0291 0.0205
C31 C 0.6456(11) 1.1407(7) 0.1577(6)
H21 H 0.6438 1.2013 0.1762
C32 C 0.5920(12) 1.0683(7) 0.1993(6)
H22 H 0.5568 1.0812 0.2452
C33 C -0.1199(10) 0.2025(8) -0.1116(5)
C34 C -0.0756(10) 0.1355(7) -0.1664(5)
C35 C 0.0101(10) 0.1703(7) -0.2183(5)
H23 H 0.0477 0.2353 -0.2172
C36 C 0.0399(9) 0.1047(8) -0.2737(5)
H24 H 0.0955 0.1276 -0.3103
C37 C -0.0102(9) 0.0096(7) -0.2750(5)
C38 C -0.0913(11) -0.0234(7) -0.2207(6)
H25 H -0.1249 -0.0886 -0.2205
C39 C -0.1248(11) 0.0383(8) -0.1658(6)
H26 H -0.1796 0.0144 -0.1291
C40 C 0.0179(11) -0.0572(8) -0.3366(5)
C41 C 1.3597(10) 0.4906(7) 0.4909(6)
H27 H 1.2656 0.4855 0.4845
C42 C 1.4043(9) 0.4110(6) 0.4997(5)
C43 C 1.3080(10) 0.3173(7) 0.4988(6)
C44 C 1.4540(11) 0.5786(7) 0.4914(6)
H28 H 1.4218 0.6315 0.4857
N3 N -0.0220(8) 0.3016(5) 0.0975(5)
N4 N 0.6997(8) 1.1306(6) 0.0933(4)
O1 O 0.1092(7) -0.0289(5) -0.3769(4)
O2 O -0.0592(8) -0.1413(5) -0.3472(4)
O3 O -0.0843(8) 0.2878(5) -0.1116(4)
O4 O -0.1921(7) 0.1589(5) -0.0603(4)
O5 O 1.3565(7) 0.2500(5) 0.5079(5)
O6 O 1.1801(7) 0.3117(4) 0.4881(4)
O7 O 0.6457(6) 0.6865(5) 0.2712(4)
O8 O 1.1433(7) 0.1082(5) 0.5211(4)
H29 H 1.2197 0.1069 0.4960
H30 H 1.1020 0.0846 0.5657
Zn1 Zn -0.21739(11) 0.23801(8) 0.03032(6)
Zn2 Zn 1.02256(11) 0.19408(7) 0.45408(6)
O11 O -0.3564(8) 0.3022(6) -0.0002(5)
C45 C -0.4228(17) 0.4372(10) 0.0218(9)
O12 O -0.2398(8) 0.3963(6) 0.1127(5)
C46 C -0.3326(16) 0.3727(10) 0.0428(7)
C47 C -0.5367(16) 0.4101(10) -0.0416(8)
H35 H -0.5623 0.3497 -0.0714
C48 C -0.3811(15) 0.5262(13) 0.0638(9)
H36 H -0.3008 0.5457 0.1062
N1_2 N -0.1110(8) -0.7233(6) 0.3852(4)
N2_2 N -0.8965(7) -0.1808(5) 0.4584(4)
N2A N 0.8965(7) 0.1808(5) 0.5416(4)
N2A_2 N -0.1035(7) -0.8192(5) 0.5416(4)
C1_2 C -0.9620(11) -0.7235(7) 0.1679(6)
H1_2 H -1.0131 -0.7748 0.1891
C2_2 C -0.8297(11) -0.6782(7) 0.2105(6)
H2_2 H -0.7933 -0.6996 0.2591
C3_2 C -0.7493(9) -0.6021(7) 0.1836(5)
C4_2 C -0.8138(10) -0.5751(7) 0.1124(6)
H3_2 H -0.7639 -0.5237 0.0908
C5_2 C -0.9477(10) -0.6203(8) 0.0719(6)
H4_2 H -0.9886 -0.5967 0.0258
C6_2 C -0.6052(9) -0.5528(7) 0.2245(6)
C7_2 C -0.5156(9) -0.6028(7) 0.2566(5)
H5_2 H -0.5492 -0.6683 0.2541
C8_2 C -0.3767(10) -0.5580(7) 0.2924(5)
C9_2 C -0.3266(9) -0.4620(7) 0.2981(5)
H6_2 H -0.2333 -0.4318 0.3223
C10_2 C -0.4136(10) -0.4097(6) 0.2682(5)
C11_2 C -0.5535(9) -0.4535(7) 0.2309(5)
H7_2 H -0.6117 -0.4175 0.2106
C12_2 C -0.2827(9) -0.6159(6) 0.3257(5)
C13_2 C -0.3355(10) -0.7023(7) 0.3511(6)
H8_2 H -0.4305 -0.7257 0.3480
C14_2 C -0.2471(11) -0.7541(7) 0.3813(6)
H9_2 H -0.2833 -0.8120 0.3994
C15_2 C -0.0578(10) -0.6415(7) 0.3631(6)
H10_2 H 0.0378 -0.6196 0.3679
C16_2 C -0.1395(10) -0.5873(7) 0.3331(6)
H11_2 H -0.0985 -0.5292 0.3169
C17_2 C -0.4332(8) -0.2503(6) 0.2676(5)
C18_2 C -0.3975(9) -0.1783(6) 0.2196(5)
H12_2 H -0.3341 -0.1799 0.1867
C19_2 C -0.4566(8) -0.1030(6) 0.2205(5)
C20_2 C -0.5553(9) -0.1051(6) 0.2681(5)
H13_2 H -0.5949 -0.0553 0.2699
C21_2 C -0.5956(9) -0.1802(7) 0.3128(5)
C22_2 C -0.5322(9) -0.2542(6) 0.3126(5)
H14_2 H -0.5574 -0.3046 0.3427
C23_2 C -0.7044(9) -0.1820(7) 0.3636(5)
C24_2 C -0.7115(9) -0.1013(7) 0.4039(6)
H15_2 H -0.6502 -0.0433 0.3999
C25_2 C -0.8085(10) -0.1045(7) 0.4507(6)
H16_2 H -0.8101 -0.0478 0.4784
C26_2 C -0.8972(9) -0.2643(6) 0.4156(5)
H17_2 H -0.9623 -0.3207 0.4194
C27_2 C -0.8024(9) -0.2652(6) 0.3673(5)
H18_2 H -0.8046 -0.3216 0.3374
C28_2 C -0.4111(9) -0.0238(6) 0.1749(5)
C29_2 C -0.3675(13) -0.0355(8) 0.1022(7)
H19_2 H -0.3788 -0.0965 0.0773
C30_2 C -0.3085(12) 0.0400(8) 0.0662(7)
H20_2 H -0.2718 0.0291 0.0205
C31_2 C -0.3544(11) 0.1407(7) 0.1577(6)
H21_2 H -0.3562 0.2013 0.1762
C32_2 C -0.4080(12) 0.0683(7) 0.1993(6)
H22_2 H -0.4432 0.0812 0.2452
C33A C 1.1199(10) -0.2025(8) 0.1116(5)
C34A C 1.0756(10) -0.1355(7) 0.1664(5)
C35A C 0.9899(10) -0.1703(7) 0.2183(5)
H23A H 0.9523 -0.2353 0.2172
C36A C 0.9601(9) -0.1047(8) 0.2737(5)
H24A H 0.9045 -0.1276 0.3103
C37A C 1.0102(9) -0.0096(7) 0.2750(5)
C38A C 1.0913(11) 0.0234(7) 0.2207(6)
H25A H 1.1249 0.0886 0.2205
C39A C 1.1248(11) -0.0383(8) 0.1658(6)
H26A H 1.1796 -0.0144 0.1291
C40A C 0.9821(11) 0.0572(8) 0.3366(5)
C41A C 1.6403(10) 0.5094(7) 0.5091(6)
H27A H 1.7344 0.5145 0.5155
C42A C 1.5957(9) 0.5890(6) 0.5003(5)
C43A C 1.6920(10) 0.6827(7) 0.5012(6)
C44A C 1.5460(11) 0.4214(7) 0.5086(6)
H28A H 1.5782 0.3685 0.5143
N3_2 N -1.0220(8) -0.6984(5) 0.0975(5)
N4_2 N -0.3003(8) 0.1306(6) 0.0933(4)
N4_3 N -1.3003(8) -0.8694(6) 0.0933(4)
O1A O 0.8908(7) 0.0289(5) 0.3769(4)
O1A_2 O -0.1092(7) -0.9711(5) 0.3769(4)
O2A O 1.0592(8) 0.1413(5) 0.3472(4)
O2A_2 O 0.0592(8) -0.8587(5) 0.3472(4)
O3A O 1.0843(8) -0.2878(5) 0.1116(4)
O4A O 1.1921(7) -0.1589(5) 0.0603(4)
O4_2 O -1.1921(7) -0.8411(5) -0.0603(4)
O5A O 1.6435(7) 0.7500(5) 0.4921(5)
O6A O 1.8199(7) 0.6883(4) 0.5119(4)
O6_2 O 0.1801(7) -0.6883(4) 0.4881(4)
O7_2 O -0.3543(6) -0.3135(5) 0.2712(4)
O8_2 O 0.1433(7) -0.8918(5) 0.5211(4)
H29_2 H 0.2197 -0.8931 0.4960
H30_2 H 0.1020 -0.9154 0.5657
Zn1_2 Zn -1.21739(11) -0.76199(8) 0.03032(6)
Zn1_3 Zn 0.78261(11) 1.23801(8) 0.03032(6)
Zn1A Zn -0.78261(11) 0.76199(8) -0.03032(6)
Zn1A_2 Zn 1.21739(11) -0.23801(8) -0.03032(6)
Zn2_2 Zn 0.02256(11) -0.80592(7) 0.45408(6)
Zn2A Zn -0.02256(11) 0.80592(7) 0.54592(6)
Zn2A_2 Zn -0.02256(11) -0.19408(7) -0.45408(6)
Zn2A_3 Zn 1.97744(11) 0.80592(7) 0.54592(6)
Zn2A_4 Zn -1.02256(11) -0.19408(7) 0.54592(6)
O11A O -0.6436(8) 0.6978(6) 0.0002(5)
O11_2 O -1.3564(8) -0.6978(6) -0.0002(5)
C45A C -0.5772(17) 0.5628(10) -0.0218(9)
O12A O -0.7602(8) 0.6037(6) -0.1127(5)
C46A C -0.6674(16) 0.6273(10) -0.0428(7)
C47A C -0.4633(16) 0.5899(10) 0.0416(8)
H35A H -0.4377 0.6503 0.0714
C48A C -0.6189(15) 0.4738(13) -0.0638(9)
H36A H -0.6992 0.4543 -0.1062
O9 O 0.9843(11) 0.5652(7) 0.2084(6)
H31 H 1.0099 0.6274 0.1916
H32 H 0.9629 0.5181 0.1608
O10 O 0.3791(10) 0.1380(7) 0.3674(7)
H33 H 0.2799 0.1105 0.3532
H34 H 0.4108 0.1518 0.4269
loop_
_geom_bond_atom_site_label_1
_geom_bond_atom_site_label_2
_geom_bond_site_symmetry_1
_geom_bond_site_symmetry_2
N1 C14 1_555 1_555
N2 C25 1_555 1_555
C1 H1 1_555 1_555
C2 C1 1_555 1_555
H2 C2 1_555 1_555
C3 C2 1_555 1_555
C4 C3 1_555 1_555
H3 C4 1_555 1_555
C5 C4 1_555 1_555
H4 C5 1_555 1_555
C6 C3 1_555 1_555
C7 C6 1_555 1_555
H5 C7 1_555 1_555
C8 C7 1_555 1_555
C9 C8 1_555 1_555
H6 C9 1_555 1_555
C10 C9 1_555 1_555
C11 C6 1_555 1_555
H7 C11 1_555 1_555
C12 C8 1_555 1_555
C13 C12 1_555 1_555
H8 C13 1_555 1_555
C14 C13 1_555 1_555
H9 C14 1_555 1_555
C15 N1 1_555 1_555
H10 C15 1_555 1_555
C16 C12 1_555 1_555
H11 C16 1_555 1_555
C17 C18 1_555 1_555
C18 H12 1_555 1_555
C19 C18 1_555 1_555
C20 C19 1_555 1_555
H13 C20 1_555 1_555
C21 C20 1_555 1_555
C22 C17 1_555 1_555
H14 C22 1_555 1_555
C23 C21 1_555 1_555
C24 C23 1_555 1_555
H15 C24 1_555 1_555
C25 C24 1_555 1_555
H16 C25 1_555 1_555
C26 N2 1_555 1_555
H17 C26 1_555 1_555
C27 C23 1_555 1_555
H18 C27 1_555 1_555
C28 C19 1_555 1_555
C29 C28 1_555 1_555
H19 C29 1_555 1_555
C30 C29 1_555 1_555
H20 C30 1_555 1_555
C31 H21 1_555 1_555
C32 C28 1_555 1_555
H22 C32 1_555 1_555
C33 C34 1_555 1_555
C34 C35 1_555 1_555
C35 H23 1_555 1_555
C36 C35 1_555 1_555
H24 C36 1_555 1_555
C37 C36 1_555 1_555
C38 C37 1_555 1_555
H25 C38 1_555 1_555
C39 C34 1_555 1_555
H26 C39 1_555 1_555
C40 C37 1_555 1_555
C41 H27 1_555 1_555
C42 C41 1_555 1_555
C43 C42 1_555 1_555
C44 C41 1_555 1_555
H28 C44 1_555 1_555
N3 C1 1_555 1_555
N4 C30 1_555 1_555
O1 C40 1_555 1_555
O2 C40 1_555 1_555
O3 C33 1_555 1_555
O4 C33 1_555 1_555
O5 C43 1_555 1_555
O6 C43 1_555 1_555
O7 C10 1_555 1_555
O8 H29 1_555 1_555
H30 O8 1_555 1_555
Zn1 N3 1_555 1_555
Zn2 N1 1_555 1_555
O9 H31 1_555 1_555
H32 O9 1_555 1_555
O10 H33 1_555 1_555
H34 O10 1_555 1_555
O11 Zn1 1_555 1_555
C45 C46 1_555 1_555
O12 C46 1_555 1_555
C46 O11 1_555 1_555
C47 C45 1_555 1_555
H35 C47 1_555 1_555
C48 C45 1_555 1_555
H36 C48 1_555 1_555
N1_2 C14_2 1_555 1_555
N2_2 C25_2 1_555 1_555
N2A Zn2 1_555 1_555
N2A_2 Zn2_2 1_555 1_555
C1_2 H1_2 1_555 1_555
C2_2 C1_2 1_555 1_555
H2_2 C2_2 1_555 1_555
C3_2 C2_2 1_555 1_555
C4_2 C3_2 1_555 1_555
H3_2 C4_2 1_555 1_555
C5_2 C4_2 1_555 1_555
H4_2 C5_2 1_555 1_555
C6_2 C3_2 1_555 1_555
C7_2 C6_2 1_555 1_555
H5_2 C7_2 1_555 1_555
C8_2 C7_2 1_555 1_555
C9_2 C8_2 1_555 1_555
H6_2 C9_2 1_555 1_555
C10_2 C9_2 1_555 1_555
C11_2 C6_2 1_555 1_555
H7_2 C11_2 1_555 1_555
C12_2 C8_2 1_555 1_555
C13_2 C12_2 1_555 1_555
H8_2 C13_2 1_555 1_555
C14_2 C13_2 1_555 1_555
H9_2 C14_2 1_555 1_555
C15_2 N1_2 1_555 1_555
H10_2 C15_2 1_555 1_555
C16_2 C12_2 1_555 1_555
H11_2 C16_2 1_555 1_555
C17_2 C18_2 1_555 1_555
C18_2 H12_2 1_555 1_555
C19_2 C18_2 1_555 1_555
C20_2 C19_2 1_555 1_555
H13_2 C20_2 1_555 1_555
C21_2 C20_2 1_555 1_555
C22_2 C17_2 1_555 1_555
H14_2 C22_2 1_555 1_555
C23_2 C21_2 1_555 1_555
C24_2 C23_2 1_555 1_555
H15_2 C24_2 1_555 1_555
C25_2 C24_2 1_555 1_555
H16_2 C25_2 1_555 1_555
C26_2 N2_2 1_555 1_555
H17_2 C26_2 1_555 1_555
C27_2 C23_2 1_555 1_555
H18_2 C27_2 1_555 1_555
C28_2 C19_2 1_555 1_555
C29_2 C28_2 1_555 1_555
H19_2 C29_2 1_555 1_555
C30_2 C29_2 1_555 1_555
H20_2 C30_2 1_555 1_555
C31_2 H21_2 1_555 1_555
C32_2 C28_2 1_555 1_555
H22_2 C32_2 1_555 1_555
C33A C34A 1_555 1_555
C34A C35A 1_555 1_555
C35A H23A 1_555 1_555
C36A C35A 1_555 1_555
H24A C36A 1_555 1_555
C37A C36A 1_555 1_555
C38A C37A 1_555 1_555
H25A C38A 1_555 1_555
C39A C34A 1_555 1_555
H26A C39A 1_555 1_555
C40A C37A 1_555 1_555
C41A H27A 1_555 1_555
C42A C44 1_555 1_555
C43A C42A 1_555 1_555
C44A C42 1_555 1_555
H28A C44A 1_555 1_555
N3_2 C1_2 1_555 1_555
N4_2 Zn1 1_555 1_555
N4_3 Zn1_2 1_555 1_555
O1A Zn2 1_555 1_555
O1A_2 Zn2_2 1_555 1_555
O2A Zn2 1_555 1_555
O2A_2 Zn2_2 1_555 1_555
O3A C33A 1_555 1_555
O4A C33A 1_555 1_555
O4_2 Zn1_2 1_555 1_555
O5A C43A 1_555 1_555
O6A C43A 1_555 1_555
O6_2 Zn2_2 1_555 1_555
O7_2 C10_2 1_555 1_555
O8_2 H29_2 1_555 1_555
H30_2 O8_2 1_555 1_555
Zn1_2 N3_2 1_555 1_555
Zn1_3 N4 1_555 1_555
Zn1A O11A 1_555 1_555
Zn1A_2 O4A 1_555 1_555
Zn2_2 N1_2 1_555 1_555
Zn2A N2 1_555 1_555
Zn2A_2 O1 1_555 1_555
Zn2A_3 O6A 1_555 1_555
Zn2A_4 N2_2 1_555 1_555
O11A C46A 1_555 1_555
O11_2 Zn1_2 1_555 1_555
C45A C46A 1_555 1_555
O12A C46A 1_555 1_555
C47A C48 1_555 1_555
H35A C47A 1_555 1_555
C48A C47 1_555 1_555
H36A C48A 1_555 1_555
C5 N3 1_555 1_555
C10 C11 1_555 1_555
C15 C16 1_555 1_555
C17 O7 1_555 1_555
C21 C22 1_555 1_555
C26 C27 1_555 1_555
C31 C32 1_555 1_555
C31 N4 1_555 1_555
C38 C39 1_555 1_555
O2 Zn2A_2 1_555 1_555
O4 Zn1 1_555 1_555
O6 Zn2 1_555 1_555
O8 Zn2 1_555 1_555
C5_2 N3_2 1_555 1_555
C10_2 C11_2 1_555 1_555
C15_2 C16_2 1_555 1_555
C17_2 O7_2 1_555 1_555
C21_2 C22_2 1_555 1_555
C26_2 C27_2 1_555 1_555
C30_2 N4_2 1_555 1_555
C31_2 C32_2 1_555 1_555
C31_2 N4_2 1_555 1_555
C38A C39A 1_555 1_555
C40A O1A 1_555 1_555
C40A O2A 1_555 1_555
C41A C42A 1_555 1_555
C41A C44A 1_555 1_555
O8_2 Zn2_2 1_555 1_555
C45A C47A 1_555 1_555
C45A C48A 1_555 1_555

#END
