
#######################################################################
#
#                 Cambridge Crystallographic Data Centre
#                                CCDC 
#
#######################################################################
#
# If this CIF has been generated from an entry in the Cambridge 
# Structural Database, then it will include bibliographic, chemical, 
# crystal, experimental, refinement or atomic coordinate data resulting 
# from the CCDC's data processing and validation procedures.
#
#######################################################################

data_SEHNOJ
_symmetry_cell_setting           orthorhombic
_symmetry_space_group_name_H-M   'P n a 21'
_symmetry_Int_Tables_number      33
_space_group_name_Hall           'P 2c -2n'
loop_
_symmetry_equiv_pos_site_id
_symmetry_equiv_pos_as_xyz
1 x,y,z
2 -x,-y,1/2+z
3 1/2+x,1/2-y,z
4 1/2-x,1/2+y,1/2+z
_cell_length_a                   24.791(2)
_cell_length_b                   6.5425(6)
_cell_length_c                   12.4486(12)
_cell_angle_alpha                90
_cell_angle_beta                 90
_cell_angle_gamma                90
_cell_volume                     2019.1
loop_
_atom_site_label
_atom_site_type_symbol
_atom_site_fract_x
_atom_site_fract_y
_atom_site_fract_z
Ru1 Ru 0.349382(12) 0.99496(5) 0.38470(3)
Sm1 Sm 0.515812(7) 0.62023(3) 0.59882(2)
N1 N 0.27918(15) 1.1572(5) 0.3390(3)
N2 N 0.18332(16) 1.1369(6) 0.3412(3)
N3 N 0.28694(15) 0.8170(5) 0.4525(3)
N4 N 0.19180(15) 0.7834(6) 0.4614(3)
N5 N 0.33266(16) 0.7268(5) 0.1737(3)
N6 N 0.44091(16) 0.7227(6) 0.4805(3)
N7 N 0.43474(16) 1.2624(5) 0.2639(3)
N8 N 0.36585(14) 1.2505(5) 0.6010(4)
N9 N 0.55957(16) 0.9097(5) 0.4308(3)
O1 O 0.43628(14) 0.5155(4) 0.7017(2)
H1 H 0.4422 0.4524 0.7616
H2 H 0.4119 0.4421 0.6740
O2 O 0.60147(13) 0.4947(4) 0.5423(3)
H3 H 0.6234 0.4265 0.5782
H4 H 0.6193 0.5492 0.4932
O3 O 0.47316(13) 0.9564(4) 0.6656(3)
H5 H 0.4599 0.9598 0.7271
H6 H 0.4491 0.9996 0.6236
O4 O 0.53695(13) 0.3118(4) 0.7020(2)
H7 H 0.5618 0.2977 0.7445
H8 H 0.5218 0.1960 0.6970
O5 O 0.49510(14) 0.3318(5) 0.4837(3)
H9 H 0.5230 0.2685 0.4675
H10 H 0.4752 0.3359 0.4319
O6 O 0.56071(14) 0.9359(5) 0.5307(2)
O7 O 0.54907(14) 0.7352(5) 0.3958(3)
O8 O 0.56701(15) 1.0584(5) 0.3696(3)
C1 C 0.23164(18) 1.0696(6) 0.3670(4)
C2 C 0.1818(2) 1.3057(7) 0.2804(4)
H11 H 0.1478 1.3557 0.2570
C3 C 0.2278(2) 1.4097(7) 0.2505(4)
H12 H 0.2257 1.5330 0.2104
C4 C 0.2765(2) 1.3304(7) 0.2800(4)
H13 H 0.3088 1.3975 0.2589
C5 C 0.2368(2) 0.8797(6) 0.4308(4)
C6 C 0.2922(2) 0.6424(6) 0.5089(4)
H14 H 0.3273 0.5933 0.5260
C7 C 0.2478(2) 0.5341(7) 0.5422(4)
H15 H 0.2514 0.4099 0.5811
C8 C 0.1982(2) 0.6107(6) 0.5175(4)
H16 H 0.1671 0.5389 0.5411
C9 C 0.34006(17) 0.8246(6) 0.2485(4)
C10 C 0.40809(19) 0.8221(6) 0.4401(3)
C11 C 0.40315(18) 1.1664(6) 0.3090(3)
C12 C 0.35866(18) 1.1615(6) 0.5223(4)
Sm1A Sm 0.484188(7) 1.37977(3) 0.09882(2)
N7A N 0.56526(16) 0.7376(5) 0.7639(3)
loop_
_geom_bond_atom_site_label_1
_geom_bond_atom_site_label_2
_geom_bond_site_symmetry_1
_geom_bond_site_symmetry_2
Ru1 N1 1_555 1_555
Sm1 N6 1_555 1_555
N1 C1 1_555 1_555
N2 C1 1_555 1_555
N3 Ru1 1_555 1_555
N4 C5 1_555 1_555
N5 C9 1_555 1_555
N6 C10 1_555 1_555
N7 C11 1_555 1_555
N8 C12 1_555 1_555
N9 O6 1_555 1_555
O1 Sm1 1_555 1_555
H1 O1 1_555 1_555
H2 O1 1_555 1_555
O2 Sm1 1_555 1_555
H3 O2 1_555 1_555
H4 O2 1_555 1_555
O3 Sm1 1_555 1_555
H5 O3 1_555 1_555
H6 O3 1_555 1_555
O4 Sm1 1_555 1_555
H7 O4 1_555 1_555
H8 O4 1_555 1_555
O5 Sm1 1_555 1_555
H9 O5 1_555 1_555
H10 O5 1_555 1_555
O6 Sm1 1_555 1_555
O7 Sm1 1_555 1_555
O8 N9 1_555 1_555
C1 C5 1_555 1_555
C2 N2 1_555 1_555
H11 C2 1_555 1_555
C3 C2 1_555 1_555
H12 C3 1_555 1_555
C4 N1 1_555 1_555
H13 C4 1_555 1_555
C5 N3 1_555 1_555
C6 N3 1_555 1_555
H14 C6 1_555 1_555
C7 C6 1_555 1_555
H15 C7 1_555 1_555
C8 N4 1_555 1_555
H16 C8 1_555 1_555
C9 Ru1 1_555 1_555
C10 Ru1 1_555 1_555
C11 Ru1 1_555 1_555
C12 Ru1 1_555 1_555
Sm1A N7 1_555 1_555
N7A Sm1 1_555 1_555
N9 O7 1_555 1_555
C3 C4 1_555 1_555
C7 C8 1_555 1_555

#END
