
#######################################################################
#
#                 Cambridge Crystallographic Data Centre
#                                CCDC 
#
#######################################################################
#
# If this CIF has been generated from an entry in the Cambridge 
# Structural Database, then it will include bibliographic, chemical, 
# crystal, experimental, refinement or atomic coordinate data resulting 
# from the CCDC's data processing and validation procedures.
#
#######################################################################

data_SEHSEE
_symmetry_cell_setting           rhombohedral
_symmetry_space_group_name_H-M   'R -3 c'
_symmetry_Int_Tables_number      167
_space_group_name_Hall           '-R 3 2"c'
loop_
_symmetry_equiv_pos_site_id
_symmetry_equiv_pos_as_xyz
1 x,y,z
2 -y,x-y,z
3 -x+y,-x,z
4 y,x,1/2-z
5 2/3+x,1/3+y,1/3+z
6 2/3-y,1/3+x-y,1/3+z
7 2/3-x+y,1/3-x,1/3+z
8 2/3+y,1/3+x,5/6-z
9 1/3+x,2/3+y,2/3+z
10 1/3+y,2/3+x,1/6-z
11 x-y,-y,1/2-z
12 -x,-x+y,1/2-z
13 1/3-y,2/3+x-y,2/3+z
14 1/3-x+y,2/3-x,2/3+z
15 1/3+x-y,2/3-y,1/6-z
16 1/3-x,2/3-x+y,1/6-z
17 2/3+x-y,1/3-y,5/6-z
18 2/3-x,1/3-x+y,5/6-z
19 -x,-y,-z
20 y,-x+y,-z
21 x-y,x,-z
22 -y,-x,1/2+z
23 1/3-x,2/3-y,2/3-z
24 1/3+y,2/3-x+y,2/3-z
25 1/3+x-y,2/3+x,2/3-z
26 1/3-y,2/3-x,1/6+z
27 2/3-x,1/3-y,1/3-z
28 2/3-y,1/3-x,5/6+z
29 -x+y,y,1/2+z
30 x,x-y,1/2+z
31 2/3+y,1/3-x+y,1/3-z
32 2/3+x-y,1/3+x,1/3-z
33 2/3-x+y,1/3+y,5/6+z
34 2/3+x,1/3+x-y,5/6+z
35 1/3-x+y,2/3+y,1/6+z
36 1/3+x,2/3+x-y,1/6+z
_cell_length_a                   18.4070(14)
_cell_length_b                   18.4070(14)
_cell_length_c                   22.544(3)
_cell_angle_alpha                90
_cell_angle_beta                 90
_cell_angle_gamma                120
_cell_volume                     6614.97
loop_
_atom_site_label
_atom_site_type_symbol
_atom_site_fract_x
_atom_site_fract_y
_atom_site_fract_z
W1 W 0.11773(4) 0.51317(4) -0.33576(3)
W2 W 0.20891(4) 0.63056(4) -0.20675(3)
P1 P 0.3333 0.6667 -0.3333
O1 O 0.3333 0.6667 -0.2639(15)
O2 O 0.2685(13) 0.5795(13) -0.3541(9)
O3 O 0.3094(13) 0.7340(13) -0.1863(10)
O4 O 0.0165(9) 0.4401(10) -0.3370(8)
O5 O 0.1383(11) 0.5422(10) -0.2534(7)
O6 O 0.1790(10) 0.6996(11) -0.2525(7)
O7 O 0.1514(10) 0.6149(9) -0.1466(6)
O8 O 0.1132(15) 0.6117(10) -0.3466(8)
Cu1 Cu 0.08081(19) 0.6667 -0.0833
N1 N 0.1295(9) 0.7670(9) -0.1285(6)
C1 C 0.0836(10) 0.7859(10) -0.1638(7)
H1 H 0.0242 0.7533 -0.1625
C2 C 0.2111(11) 0.8136(11) -0.1306(8)
H2 H 0.2446 0.8013 -0.1051
W1A W 0.48683(4) 0.60456(6) -0.33576(3)
W1B W 0.39544(6) 0.88227(4) -0.33576(3)
W1DA W 0.17984(4) 0.72877(6) -0.33091(3)
W1EA W 0.27123(6) 0.45106(4) -0.33091(3)
W1Z W 0.54894(4) 0.82016(4) -0.33091(3)
W1P W 0.27123(6) 0.82016(4) 0.16909(3)
W1CA W 0.11773(4) 0.60456(6) 0.16424(3)
W2P W 0.24502(6) 0.70277(4) 0.04008(3)
W2DA W 0.29723(4) 0.75498(6) -0.45992(3)
W2B W 0.42165(6) 0.79109(4) -0.20675(3)
W2Z W 0.45776(4) 0.70277(4) -0.45992(3)
W2A W 0.36944(4) 0.57835(6) -0.20675(3)
W2EA W 0.24502(6) 0.54224(4) -0.45992(3)
W2V W 0.12442(4) 1.03611(4) -0.12658(3)
W2FA W 0.08832(6) 0.96389(4) -0.37342(3)
W2HA W -0.24502(6) 0.29723(4) -0.04008(3)
W2R W -0.20891(4) 0.36944(4) 0.20675(3)
W2G W 0.29723(4) 0.54224(4) 0.04008(3)
W2Q W 0.45776(4) 0.75498(6) 0.04008(3)
O1DA O 0.3334 0.6667 -0.4028(15)
O1G O 0.3334 0.6666 0.0972(15)
O2A O 0.4205(13) 0.6890(18) -0.3541(9)
O2B O 0.3110(18) 0.7315(13) -0.3541(9)
O2DA O 0.2462(13) 0.6443(18) -0.3126(9)
O2EA O 0.3557(18) 0.6018(13) -0.3126(9)
O2Z O 0.3982(13) 0.7538(13) -0.3126(9)
O2CA O 0.2685(13) 0.6890(18) 0.1459(9)
O3A O 0.2660(13) 0.5754(18) -0.1863(10)
O3P O 0.2421(18) 0.5993(13) 0.0196(10)
O3Q O 0.3573(13) 0.7579(18) 0.0196(10)
O3DA O 0.4007(13) 0.7579(18) -0.4804(10)
O3EA O 0.2421(18) 0.6427(13) -0.4804(10)
O3B O 0.4246(18) 0.6906(13) -0.1863(10)
O3Z O 0.3573(13) 0.5993(13) -0.4804(10)
O4A O 0.5599(10) 0.5764(13) -0.3370(8)
O4B O 0.4236(13) 0.9835(9) -0.3370(8)
O4DA O 0.1068(10) 0.7569(13) -0.3297(8)
O4EA O 0.2431(13) 0.3498(9) -0.3297(8)
O4Z O 0.6502(9) 0.8932(10) -0.3297(8)
O5P O 0.2628(15) 0.7911(10) 0.0867(7)
O5A O 0.4578(10) 0.5961(15) -0.2534(7)
O5B O 0.4039(15) 0.8617(11) -0.2534(7)
O5DA O 0.2089(10) 0.7372(15) -0.4133(7)
O5EA O 0.2628(15) 0.4716(11) -0.4133(7)
O5Z O 0.5284(11) 0.7911(10) -0.4133(7)
O6P O 0.1461(15) 0.6337(11) 0.0858(7)
O6EA O 0.1461(15) 0.5123(10) -0.4142(7)
O6Z O 0.4877(10) 0.6337(11) -0.4142(7)
O6DA O 0.3663(11) 0.8539(15) -0.4142(7)
O6A O 0.3004(11) 0.4794(15) -0.2525(7)
O6B O 0.5206(15) 0.8210(10) -0.2525(7)
O7P O 0.2032(13) 0.7184(9) -0.0201(6)
O7V O 0.1819(10) 1.0518(9) -0.1867(6)
O7FA O 0.1302(13) 0.9482(9) -0.3133(6)
O7HA O -0.2032(13) 0.2816(9) 0.0201(6)
O7R O -0.1514(10) 0.3851(9) 0.1466(6)
O7DA O 0.2816(9) 0.7968(13) -0.5201(6)
O7B O 0.4635(13) 0.8486(10) -0.1466(6)
O7Z O 0.5153(10) 0.7184(9) -0.5201(6)
O7A O 0.3851(9) 0.5365(13) -0.1466(6)
O8EA O 0.1682(18) 0.4465(15) -0.3201(8)
O8A O 0.3883(10) 0.5015(18) -0.3466(8)
O8Z O 0.5535(15) 0.7216(10) -0.3201(8)
O8B O 0.4985(18) 0.8868(15) -0.3466(8)
O8DA O 0.2784(10) 0.8318(18) -0.3201(8)
Cu1V Cu 0.25252(19) 1.0000 -0.2500
Cu1HA Cu -0.08078(19) 0.3334 0.0834
Cu1H Cu 0.41414(19) 1.3334 -0.4166
N1V N 0.2038(9) 0.8997(9) -0.2048(6)
N1P N 0.0292(13) 0.5663(9) -0.0382(6)
N1HA N -0.0292(13) 0.4337(9) 0.0382(6)
N1FA N 0.3042(13) 1.1003(9) -0.2952(6)
N1J N 0.3625(13) 1.2330(9) -0.3715(6)
N1R N -0.1295(9) 0.2330(9) 0.1285(6)
C1V C 0.2497(10) 0.8808(10) -0.1695(7)
C1P C -0.0356(14) 0.5474(10) -0.0029(7)
C1HA C 0.0356(14) 0.4526(10) 0.0029(7)
C1FA C 0.3690(14) 1.1192(10) -0.3305(7)
C1J C 0.2977(14) 1.2141(10) -0.3362(7)
H1V H 0.3091 0.9134 -0.1708
H1P H -0.0624 0.5800 -0.0042
H1HA H 0.0624 0.4200 0.0042
H1FA H 0.3958 1.0866 -0.3292
H1J H 0.2709 1.2467 -0.3375
C2V C 0.1222(11) 0.8531(11) -0.2027(8)
C2P C 0.0642(16) 0.5197(11) -0.0361(8)
C2HA C -0.0642(16) 0.4803(11) 0.0361(8)
C2FA C 0.2692(16) 1.1469(11) -0.2973(8)
C2J C 0.3975(16) 1.1864(11) -0.3694(8)
H2V H 0.0887 0.8654 -0.2282
H2P H 0.1100 0.5320 -0.0616
H2HA H -0.1100 0.4680 0.0616
H2FA H 0.2234 1.1346 -0.2718
H2J H 0.4433 1.1987 -0.3949
loop_
_geom_bond_atom_site_label_1
_geom_bond_atom_site_label_2
_geom_bond_site_symmetry_1
_geom_bond_site_symmetry_2
W1 O2 1_555 1_555
W2 O1 1_555 1_555
P1 O1 1_555 1_555
O1 W2B 1_555 1_555
O2 P1 1_555 1_555
O3 W2 1_555 1_555
O4 W1 1_555 1_555
O5 W1 1_555 1_555
O6 W2 1_555 1_555
O7 W2 1_555 1_555
O8 W1 1_555 1_555
Cu1 O7 1_555 1_555
N1 Cu1 1_555 1_555
C1 N1 1_555 1_555
H1 C1 1_555 1_555
C2 N1 1_555 1_555
H2 C2 1_555 1_555
W1A O2A 1_555 1_555
W1B O2B 1_555 1_555
W1DA O6 1_555 1_555
W1EA O2 1_555 1_555
W1Z O2A 1_555 1_555
W1P O2CA 1_555 1_555
W1CA O2CA 1_555 1_555
W2P O1G 1_555 1_555
W2DA O1DA 1_555 1_555
W2B O3 1_555 1_555
W2Z O1DA 1_555 1_555
W2A O1 1_555 1_555
W2EA O2 1_555 1_555
W2V O7V 1_555 1_555
W2FA O7FA 1_555 1_555
W2HA O7HA 1_555 1_555
W2R O7R 1_555 1_555
W2G O1G 1_555 1_555
W2Q O1G 1_555 1_555
O1DA P1 1_555 1_555
O2A P1 1_555 1_555
O2B P1 1_555 1_555
O2DA W1 1_555 1_555
O2EA P1 1_555 1_555
O2Z P1 1_555 1_555
O2CA W2P 1_555 1_555
O3A W2 1_555 1_555
O3P W2P 1_555 1_555
O3Q W2P 1_555 1_555
O3DA W2DA 1_555 1_555
O3EA W2DA 1_555 1_555
O3B W2B 1_555 1_555
O3Z W2Z 1_555 1_555
O4A W1A 1_555 1_555
O4B W1B 1_555 1_555
O4DA W1DA 1_555 1_555
O4EA W1EA 1_555 1_555
O4Z W1Z 1_555 1_555
O5P W1P 1_555 1_555
O5A W1A 1_555 1_555
O5B W1B 1_555 1_555
O5DA W1DA 1_555 1_555
O5EA W1EA 1_555 1_555
O5Z W1Z 1_555 1_555
O6P W1CA 1_555 1_555
O6EA W1 1_555 1_555
O6Z W1A 1_555 1_555
O6DA W1B 1_555 1_555
O6A W1EA 1_555 1_555
O6B W1Z 1_555 1_555
O7P Cu1 1_555 1_555
O7V Cu1V 1_555 1_555
O7FA Cu1V 1_555 1_555
O7HA Cu1HA 1_555 1_555
O7R Cu1HA 1_555 1_555
O7DA W2DA 1_555 1_555
O7B W2B 1_555 1_555
O7Z W2Z 1_555 1_555
O7A W2A 1_555 1_555
O8EA W1 1_555 1_555
O8A W1A 1_555 1_555
O8Z W1A 1_555 1_555
O8B W1B 1_555 1_555
O8DA W1B 1_555 1_555
Cu1V N1V 1_555 1_555
Cu1HA N1HA 1_555 1_555
Cu1H N1J 1_555 1_555
N1V C1V 1_555 1_555
N1P Cu1 1_555 1_555
N1HA C1HA 1_555 1_555
N1FA Cu1V 1_555 1_555
N1J C1J 1_555 1_555
N1R Cu1HA 1_555 1_555
C1V C2 1_555 1_555
C1P N1P 1_555 1_555
C1HA H1HA 1_555 1_555
C1FA N1FA 1_555 1_555
C1J H1J 1_555 1_555
H1V C1V 1_555 1_555
H1P C1P 1_555 1_555
H1FA C1FA 1_555 1_555
C2V C1 1_555 1_555
C2P N1P 1_555 1_555
C2HA N1HA 1_555 1_555
C2FA N1FA 1_555 1_555
C2J N1J 1_555 1_555
H2V C2V 1_555 1_555
H2P C2P 1_555 1_555
H2HA C2HA 1_555 1_555
H2FA C2FA 1_555 1_555
H2J C2J 1_555 1_555
W2 O5 1_555 1_555
W2 O2DA 1_555 1_555
P1 O2DA 1_555 1_555
O8 W1DA 1_555 1_555
W1A O2EA 1_555 1_555
W1B O2Z 1_555 1_555
W1DA O2B 1_555 1_555
W1DA O2DA 1_555 1_555
W1DA O8DA 1_555 1_555
W1EA O2EA 1_555 1_555
W1EA O8EA 1_555 1_555
W1EA O8A 1_555 1_555
W1Z O2Z 1_555 1_555
W1Z O8Z 1_555 1_555
W1Z O8B 1_555 1_555
W2P O5P 1_555 1_555
W2P O6P 1_555 1_555
W2P O7P 1_555 1_555
W2DA O2B 1_555 1_555
W2DA O5DA 1_555 1_555
W2DA O6DA 1_555 1_555
W2B O2Z 1_555 1_555
W2B O5B 1_555 1_555
W2B O6B 1_555 1_555
W2Z O2A 1_555 1_555
W2Z O3DA 1_555 1_555
W2Z O5Z 1_555 1_555
W2Z O6Z 1_555 1_555
W2A O2EA 1_555 1_555
W2A O3A 1_555 1_555
W2A O3B 1_555 1_555
W2A O5A 1_555 1_555
W2A O6A 1_555 1_555
W2EA O1DA 1_555 1_555
W2EA O3EA 1_555 1_555
W2EA O3Z 1_555 1_555
W2EA O5EA 1_555 1_555
W2EA O6EA 1_555 1_555
W2G O3P 1_555 1_555
W2Q O3Q 1_555 1_555
N1V C2V 1_555 1_555
C1P C2HA 1_555 1_555
C1HA C2P 1_555 1_555
C1FA C2J 1_555 1_555
C1J C2FA 1_555 1_555

#END
