
#######################################################################
#
#                 Cambridge Crystallographic Data Centre
#                                CCDC 
#
#######################################################################
#
# If this CIF has been generated from an entry in the Cambridge 
# Structural Database, then it will include bibliographic, chemical, 
# crystal, experimental, refinement or atomic coordinate data resulting 
# from the CCDC's data processing and validation procedures.
#
#######################################################################

data_SEHSAA
_symmetry_cell_setting           rhombohedral
_symmetry_space_group_name_H-M   'R 3 2'
_symmetry_Int_Tables_number      155
_space_group_name_Hall           'R 3 2"'
loop_
_symmetry_equiv_pos_site_id
_symmetry_equiv_pos_as_xyz
1 x,y,z
2 -y,x-y,z
3 -x+y,-x,z
4 y,x,-z
5 x-y,-y,-z
6 -x,-x+y,-z
7 2/3+x,1/3+y,1/3+z
8 2/3-y,1/3+x-y,1/3+z
9 2/3-x+y,1/3-x,1/3+z
10 2/3+y,1/3+x,1/3-z
11 2/3+x-y,1/3-y,1/3-z
12 2/3-x,1/3-x+y,1/3-z
13 1/3+x,2/3+y,2/3+z
14 1/3-y,2/3+x-y,2/3+z
15 1/3-x+y,2/3-x,2/3+z
16 1/3+y,2/3+x,2/3-z
17 1/3+x-y,2/3-y,2/3-z
18 1/3-x,2/3-x+y,2/3-z
_cell_length_a                   18.2047(13)
_cell_length_b                   18.2047(13)
_cell_length_c                   23.637(3)
_cell_angle_alpha                90
_cell_angle_beta                 90
_cell_angle_gamma                120.00
_cell_volume                     6784.07
loop_
_atom_site_label
_atom_site_type_symbol
_atom_site_fract_x
_atom_site_fract_y
_atom_site_fract_z
W1 W 0.55076(5) 0.72452(5) 0.91401(3)
W2 W 0.39996(5) 0.51302(5) 0.91329(3)
W3 W 0.42903(5) 0.63228(5) 1.03172(3)
W4 W 0.45418(5) 0.75676(5) 0.78712(3)
P1 P 0.3333 0.6667 0.9131(5)
O1 O 0.3333 0.6667 0.8462(9)
O2 O 0.3975(9) 0.6433(8) 0.9331(5)
O3 O 0.6419(9) 0.4009(9) 1.2410(6)
O4 O 0.6599(9) 0.7692(9) 0.9089(6)
O5 O 0.5349(9) 0.6973(9) 0.9926(5)
O6 O 0.3706(9) 0.5293(9) 0.8383(6)
O7 O 0.4115(10) 0.4268(10) 0.9065(7)
O8 O 0.5114(9) 0.6054(9) 0.9026(5)
O9 O 0.5374(10) 0.8207(9) 0.9280(6)
O10 O 0.4185(9) 0.5360(9) 0.9926(6)
O11 O 0.4609(10) 0.6215(9) 1.0964(6)
O12 O 0.5157(8) 0.7289(9) 0.8389(5)
O13 O 0.4235(8) 0.7319(8) 1.0394(5)
O14 O 0.8107(10) 0.5254(10) 1.2654(6)
Ag1 Ag 0.3333 0.4921(3) 1.1667
Ag2 Ag 0.6667 0.52518(14) 1.3333
N1 N 0.4342(12) 0.5038(12) 1.2209(7)
C1 C 0.4169(16) 0.4656(13) 1.2684(10)
H1 H 0.3609 0.4386 1.2831
C2 C 0.4847(11) 0.4648(11) 1.2989(7)
H2 H 0.4724 0.4352 1.3339
C3 C 0.5800(16) 0.5476(15) 1.2322(9)
H3 H 0.6368 0.5773 1.2188
C4 C 0.5156(14) 0.5497(14) 1.2025(9)
H4 H 0.5283 0.5832 1.1693
N2 N 0.5601(12) 0.5020(11) 1.2809(7)
W1A W 0.27548(5) 0.82624(7) 0.91401(3)
W1B W 0.17376(7) 0.44924(5) 0.91401(3)
W1K W 0.11591(5) 0.50709(7) 1.41932(3)
W1I W 0.39119(5) 0.88409(5) 1.41932(3)
W1J W 0.49291(7) 0.60881(5) 1.41932(3)
W2A W 0.48698(5) 0.88694(7) 0.91329(3)
W2B W 0.11306(7) 0.60004(5) 0.91329(3)
W2K W 0.26671(5) 0.44639(7) 1.42004(3)
W2I W 0.17969(5) 0.73329(5) 1.42004(3)
W2J W 0.55361(7) 0.82031(5) 1.42004(3)
W3K W 0.23764(5) 0.53658(7) 1.30161(3)
W3A W 0.36772(5) 0.79675(7) 1.03172(3)
W3B W 0.20325(7) 0.57097(5) 1.03172(3)
W3I W 0.29895(5) 0.76236(5) 1.30161(3)
W3J W 0.46342(7) 0.70105(5) 1.30161(3)
W3Q W 0.90430(5) 0.86992(7) 1.63495(3)
W3F W 1.09570(5) 0.96561(5) 1.36505(3)
W4K W 0.21249(5) 0.63591(7) 1.54621(3)
W4B W 0.30258(7) 0.54582(5) 0.78712(3)
W4J W 0.36409(7) 0.57657(5) 1.54621(3)
W4A W 0.24324(5) 0.69742(7) 0.78712(3)
W4I W 0.42343(5) 0.78751(5) 1.54621(3)
W4C W 0.75676(5) 0.45418(5) 1.21288(3)
W4E W 0.54582(5) 0.30258(7) 1.21288(3)
W4L W 0.78751(5) 0.42343(5) 1.45379(3)
W4M W 0.57657(5) 0.36409(7) 1.45379(3)
W4F W 0.12085(5) 0.09009(5) 1.12045(3)
W4G W -0.09009(5) 0.03075(7) 1.12045(3)
W4O W 0.09009(5) 0.12085(5) 0.87955(3)
W4Q W -0.12085(5) -0.03075(7) 0.87955(3)
P1K P 0.3334 0.6667 1.4202(5)
O1K O 0.3334 0.6667 1.4871(9)
O2A O 0.3567(8) 0.7542(12) 0.9331(5)
O2B O 0.2458(12) 0.6025(9) 0.9331(5)
O2K O 0.2692(9) 0.5791(12) 1.4002(5)
O2I O 0.3100(8) 0.7308(9) 1.4002(5)
O2J O 0.4209(12) 0.6900(8) 1.4002(5)
O3Q O 0.6914(9) 0.4257(13) 1.4257(6)
O3K O 0.0248(9) 0.0923(13) 1.0923(6)
O3L O -0.0248(9) 0.0676(9) 0.9077(6)
O3C O 0.4009(9) 0.6419(9) 0.7590(6)
O3E O 0.3581(9) 0.7590(13) 0.7590(6)
O3F O 0.3086(9) 0.7342(9) 1.5743(6)
O3G O 0.2658(9) 0.5743(13) 1.5743(6)
O3D O 0.2410(13) 0.5991(9) 0.7590(6)
O3H O 0.4257(13) 0.6914(9) 1.5743(6)
O3H_2 O 0.4257(13) 0.6914(9) 0.5743(6)
O4A O 0.2308(9) 0.8907(13) 0.9089(6)
O4B O 0.1093(13) 0.3401(9) 0.9089(6)
O4K O 0.0068(9) 0.4426(13) 1.4244(6)
O4I O 0.4359(9) 0.9932(9) 1.4244(6)
O4J O 0.5574(13) 0.5641(9) 1.4244(6)
O5K O 0.1318(9) 0.4957(13) 1.3407(5)
O5A O 0.3027(9) 0.8376(13) 0.9926(5)
O5B O 0.1624(13) 0.4651(9) 0.9926(5)
O5I O 0.3640(9) 0.8682(9) 1.3407(5)
O5J O 0.5043(13) 0.6360(9) 1.3407(5)
O6A O 0.4707(9) 0.8413(13) 0.8383(6)
O6B O 0.1587(13) 0.6294(9) 0.8383(6)
O6K O 0.2961(9) 0.4920(13) 1.4950(6)
O6I O 0.1960(9) 0.7039(9) 1.4950(6)
O6J O 0.5080(13) 0.8040(9) 1.4950(6)
O7A O 0.5732(10) 0.9847(14) 0.9065(7)
O7B O 0.0153(14) 0.5885(10) 0.9065(7)
O7K O 0.2552(10) 0.3486(14) 1.4268(7)
O7I O 0.0935(10) 0.7448(10) 1.4268(7)
O7J O 0.6514(14) 0.9065(10) 1.4268(7)
O8A O 0.3946(9) 0.9060(13) 0.9026(5)
O8B O 0.0940(13) 0.4886(9) 0.9026(5)
O8K O 0.1553(9) 0.4273(13) 1.4307(5)
O8I O 0.2721(9) 0.8447(9) 1.4307(5)
O8J O 0.5727(13) 0.7279(9) 1.4307(5)
O9B O 0.2833(13) 0.4626(10) 0.9280(6)
O9A O 0.1793(9) 0.7167(13) 0.9280(6)
O9K O 0.1293(10) 0.6166(13) 1.4053(6)
O9I O 0.4874(9) 0.8707(10) 1.4053(6)
O9J O 0.3834(13) 0.5126(9) 1.4053(6)
O10K O 0.2482(9) 0.4508(13) 1.3407(6)
O10A O 0.4640(9) 0.8825(13) 0.9926(6)
O10B O 0.1175(13) 0.5815(9) 0.9926(6)
O10I O 0.2027(9) 0.7518(9) 1.3407(6)
O10J O 0.5492(13) 0.7973(9) 1.3407(6)
O11K O 0.2058(10) 0.4939(13) 1.2369(6)
O11Q O 0.8724(10) 0.8273(13) 1.5703(6)
O11F O 1.1276(10) 0.9548(9) 1.4297(6)
O11L O -0.2058(10) 0.2882(9) 0.7631(6)
O11E O -0.4609(10) 0.1606(13) 0.9036(6)
O11A O 0.3785(9) 0.8394(13) 1.0964(6)
O11B O 0.1606(13) 0.5391(10) 1.0964(6)
O11I O 0.2882(9) 0.7942(10) 1.2369(6)
O11J O 0.5061(13) 0.7118(9) 1.2369(6)
O12A O 0.2711(9) 0.7868(12) 0.8389(5)
O12B O 0.2132(12) 0.4843(8) 0.8389(5)
O12K O 0.1510(8) 0.5465(12) 1.4944(5)
O12I O 0.3956(9) 0.8490(8) 1.4944(5)
O12J O 0.4535(12) 0.6044(9) 1.4944(5)
O13B O 0.3084(11) 0.5765(8) 1.0394(5)
O13K O 0.2432(8) 0.6417(11) 1.2939(5)
O13J O 0.3583(11) 0.6014(8) 1.2939(5)
O13A O 0.2681(8) 0.6916(11) 1.0394(5)
O13I O 0.3986(8) 0.7568(8) 1.2939(5)
O14Q O 0.5226(10) 0.3814(14) 1.4013(6)
O14K O -0.1440(10) 0.0480(14) 1.0679(6)
O14L O 0.1440(10) 0.1921(10) 0.9321(6)
O14C O 0.5254(10) 0.8107(10) 0.7346(6)
O14G O 0.1413(10) 0.6186(14) 1.5987(6)
O14D O 0.2853(14) 0.4746(10) 0.7346(6)
O14H O 0.3814(14) 0.5226(10) 1.5987(6)
O14E O 0.1893(10) 0.7147(14) 0.7346(6)
O14F O 0.4774(10) 0.8587(10) 1.5987(6)
O14H_2 O 0.3814(14) 0.5226(10) 0.5987(6)
Ag1Q Ag 1.0000 0.8255(3) 1.5000
Ag1L Ag -0.3334 0.1588(3) 0.8334
Ag2K Ag -0.0000 0.19181(14) 1.0000
Ag2C Ag 0.52518(14) 0.6667 0.6667
Ag2E Ag 0.3333 0.85848(14) 0.6667
Ag2E_2 Ag 1.3333 0.85848(14) 1.6667
Ag2E_3 Ag -0.6667 -0.14152(14) 0.6667
Ag2D Ag 0.14152(14) 0.47482(14) 1.6667
N1K N 0.2325(12) 0.4029(17) 1.1124(7)
N1Q N 0.8991(12) 0.7363(17) 1.4458(7)
N1L N -0.2325(12) 0.1705(12) 0.8876(7)
N1F N 1.1009(12) 0.8371(12) 1.5542(7)
N1E N -0.4342(12) 0.0696(17) 0.7791(7)
C1K C 0.2498(16) 0.3820(21) 1.0649(10)
C1Q C 0.9164(16) 0.7154(21) 1.3983(10)
C1L C -0.2498(16) 0.1323(13) 0.9351(10)
C1F C 1.0836(16) 0.7989(13) 1.6017(10)
C1E C -0.4169(16) 0.0487(21) 0.7316(10)
H1K H 0.3058 0.4110 1.0502
H1Q H 0.9724 0.7444 1.3836
H1L H -0.3058 0.1053 0.9498
H1F H 1.0276 0.7719 1.6164
H1E H -0.3609 0.0777 0.7169
C2K C 0.1820(11) 0.3134(16) 1.0344(7)
C2Q C 0.8486(11) 0.6468(16) 1.3678(7)
C2L C -0.1820(11) 0.1315(11) 0.9656(7)
C2F C 1.1514(11) 0.7981(11) 1.6322(7)
C2E C -0.4847(11) -0.0199(16) 0.7011(7)
H2K H 0.1943 0.2961 0.9994
H2Q H 0.8609 0.6295 1.3328
H2L H -0.1943 0.1019 1.0006
H2F H 1.1391 0.7685 1.6672
H2E H -0.4724 -0.0372 0.6661
C3K C 0.0867(16) 0.3009(22) 1.1011(9)
C3Q C 0.7533(16) 0.6343(22) 1.4345(9)
C3L C -0.0867(16) 0.2143(15) 0.8989(9)
C3F C 1.2467(16) 0.8809(15) 1.5655(9)
C3E C -0.5800(16) -0.0324(22) 0.7678(9)
H3K H 0.0299 0.2738 1.1145
H3Q H 0.6965 0.6072 1.4479
H3L H -0.0299 0.2440 0.8855
H3F H 1.3035 0.9106 1.5521
H3E H -0.6368 -0.0595 0.7812
C4K C 0.1511(14) 0.3674(20) 1.1308(9)
C4Q C 0.8177(14) 0.7008(20) 1.4642(9)
C4L C -0.1511(14) 0.2164(14) 0.8692(9)
C4F C 1.1823(14) 0.8830(14) 1.5358(9)
C4E C -0.5156(14) 0.0341(20) 0.7975(9)
H4K H 0.1384 0.3882 1.1640
H4Q H 0.8050 0.7216 1.4974
H4L H -0.1384 0.2499 0.8360
H4F H 1.1950 0.9165 1.5026
H4E H -0.5283 0.0549 0.8307
N2K N 0.1066(12) 0.2752(16) 1.0524(7)
N2Q N 0.7732(12) 0.6086(16) 1.3858(7)
N2L N -0.1066(12) 0.1687(11) 0.9476(7)
N2F N 1.2268(12) 0.8353(11) 1.6142(7)
N2E N -0.5601(12) -0.0581(16) 0.7191(7)
N2C N 0.5020(11) 0.5601(12) 0.7191(7)
N2H N 0.6086(16) 0.7732(12) 0.6142(7)
O15 O 0.3333 0.6667 1.1667
loop_
_geom_bond_atom_site_label_1
_geom_bond_atom_site_label_2
_geom_bond_site_symmetry_1
_geom_bond_site_symmetry_2
W1 O2 1_555 1_555
W2 O2 1_555 1_555
W3 O2 1_555 1_555
W4 O1 1_555 1_555
P1 O1 1_555 1_555
O1 W4B 1_555 1_555
O2 P1 1_555 1_555
O3 Ag2 1_555 1_555
O4 W1 1_555 1_555
O5 W1 1_555 1_555
O6 W2 1_555 1_555
O7 W2 1_555 1_555
O8 W1 1_555 1_555
O9 W1 1_555 1_555
O10 W2 1_555 1_555
O11 W3 1_555 1_555
O12 W1 1_555 1_555
O13 W3 1_555 1_555
O14 Ag2 1_555 1_555
Ag1 O11 1_555 1_555
Ag2 N2 1_555 1_555
N1 Ag1 1_555 1_555
C1 N1 1_555 1_555
H1 C1 1_555 1_555
C2 C1 1_555 1_555
H2 C2 1_555 1_555
C3 H3 1_555 1_555
C4 N1 1_555 1_555
H4 C4 1_555 1_555
N2 C2 1_555 1_555
W1A O2A 1_555 1_555
W1B O2B 1_555 1_555
W1K O2K 1_555 1_555
W1I O2I 1_555 1_555
W1J O2J 1_555 1_555
W2A O9 1_555 1_555
W2B O2B 1_555 1_555
W2K O2K 1_555 1_555
W2I O2I 1_555 1_555
W2J O2J 1_555 1_555
W3K O2K 1_555 1_555
W3A O13 1_555 1_555
W3B O2B 1_555 1_555
W3I O2I 1_555 1_555
W3J O2J 1_555 1_555
W3Q O11Q 1_555 1_555
W3F O11F 1_555 1_555
W4K O1K 1_555 1_555
W4B O6 1_555 1_555
W4J O1K 1_555 1_555
W4A O1 1_555 1_555
W4I O1K 1_555 1_555
W4C O3 1_555 1_555
W4E O3 1_555 1_555
W4L O3Q 1_555 1_555
W4M O3Q 1_555 1_555
W4F O3K 1_555 1_555
W4G O3K 1_555 1_555
W4O O3L 1_555 1_555
W4Q O3L 1_555 1_555
P1K O1K 1_555 1_555
O2A P1 1_555 1_555
O2B P1 1_555 1_555
O2K P1K 1_555 1_555
O2I P1K 1_555 1_555
O2J P1K 1_555 1_555
O3Q Ag2 1_555 1_555
O3K Ag2K 1_555 1_555
O3L Ag2K 1_555 1_555
O3C W4 1_555 1_555
O3E W4 1_555 1_555
O3F W4K 1_555 1_555
O3G W4K 1_555 1_555
O3D W4B 1_555 1_555
O3H W4J 1_555 1_555
O3H_2 Ag2C 1_555 1_555
O4A W1A 1_555 1_555
O4B W1B 1_555 1_555
O4K W1K 1_555 1_555
O4I W1I 1_555 1_555
O4J W1J 1_555 1_555
O5K W1K 1_555 1_555
O5A W1A 1_555 1_555
O5B W1B 1_555 1_555
O5I W1I 1_555 1_555
O5J W1J 1_555 1_555
O6A W4 1_555 1_555
O6B W2B 1_555 1_555
O6K W2K 1_555 1_555
O6I W2I 1_555 1_555
O6J W2J 1_555 1_555
O7A W2A 1_555 1_555
O7B W2B 1_555 1_555
O7K W2K 1_555 1_555
O7I W2I 1_555 1_555
O7J W2J 1_555 1_555
O8A W1A 1_555 1_555
O8B W1B 1_555 1_555
O8K W1K 1_555 1_555
O8I W1I 1_555 1_555
O8J W1J 1_555 1_555
O9B W2 1_555 1_555
O9A W1A 1_555 1_555
O9K W1K 1_555 1_555
O9I W1I 1_555 1_555
O9J W1J 1_555 1_555
O10K W2K 1_555 1_555
O10A W2A 1_555 1_555
O10B W2B 1_555 1_555
O10I W2I 1_555 1_555
O10J W2J 1_555 1_555
O11K Ag1 1_555 1_555
O11Q Ag1Q 1_555 1_555
O11F Ag1Q 1_555 1_555
O11L Ag1L 1_555 1_555
O11E Ag1L 1_555 1_555
O11A W3A 1_555 1_555
O11B W3B 1_555 1_555
O11I W3I 1_555 1_555
O11J W3J 1_555 1_555
O12A W1A 1_555 1_555
O12B W1B 1_555 1_555
O12K W1K 1_555 1_555
O12I W1I 1_555 1_555
O12J W1J 1_555 1_555
O13B W3 1_555 1_555
O13K W3K 1_555 1_555
O13J W3K 1_555 1_555
O13A W3A 1_555 1_555
O13I W3I 1_555 1_555
O14Q Ag2 1_555 1_555
O14K W4G 1_555 1_555
O14L W4O 1_555 1_555
O14C W4 1_555 1_555
O14G W4K 1_555 1_555
O14D W4B 1_555 1_555
O14H W4J 1_555 1_555
O14E W4A 1_555 1_555
O14F W4I 1_555 1_555
O14H_2 Ag2C 1_555 1_555
Ag1Q N1Q 1_555 1_555
Ag1L N1L 1_555 1_555
Ag2K O14K 1_555 1_555
Ag2C O3C 1_555 1_555
Ag2E O3E 1_555 1_555
Ag2E_2 N2F 1_555 1_555
Ag2E_3 N2E 1_555 1_555
Ag2D O3G 1_555 1_555
N1K Ag1 1_555 1_555
N1Q C1Q 1_555 1_555
N1L C1L 1_555 1_555
N1F Ag1Q 1_555 1_555
N1E Ag1L 1_555 1_555
C1K N1K 1_555 1_555
C1Q H1Q 1_555 1_555
C1L H1L 1_555 1_555
C1F N1F 1_555 1_555
C1E N1E 1_555 1_555
H1K C1K 1_555 1_555
H1F C1F 1_555 1_555
H1E C1E 1_555 1_555
C2K C1K 1_555 1_555
C2Q C1Q 1_555 1_555
C2L C1L 1_555 1_555
C2F C1F 1_555 1_555
C2E C1E 1_555 1_555
H2K C2K 1_555 1_555
H2Q C2Q 1_555 1_555
H2L C2L 1_555 1_555
H2F C2F 1_555 1_555
H2E C2E 1_555 1_555
C3K H3K 1_555 1_555
C3Q H3Q 1_555 1_555
C3L H3L 1_555 1_555
C3F H3F 1_555 1_555
C3E H3E 1_555 1_555
C4K N1K 1_555 1_555
C4Q N1Q 1_555 1_555
C4L N1L 1_555 1_555
C4F N1F 1_555 1_555
C4E N1E 1_555 1_555
H4K C4K 1_555 1_555
H4Q C4Q 1_555 1_555
H4L C4L 1_555 1_555
H4F C4F 1_555 1_555
H4E C4E 1_555 1_555
N2K Ag2K 1_555 1_555
N2Q Ag2 1_555 1_555
N2L Ag2K 1_555 1_555
N2F C2F 1_555 1_555
N2E C2E 1_555 1_555
N2C Ag2C 1_555 1_555
N2H Ag2C 1_555 1_555
W2 O8 1_555 1_555
W3 O5 1_555 1_555
W3 O10 1_555 1_555
W4 O12 1_555 1_555
O14 W4C 1_555 1_555
C3 C4 1_555 1_555
C3 N2 1_555 1_555
W1B O9B 1_555 1_555
W2A O2A 1_555 1_555
W2A O6A 1_555 1_555
W2A O8A 1_555 1_555
W2B O8B 1_555 1_555
W2B O9A 1_555 1_555
W2K O8K 1_555 1_555
W2K O9J 1_555 1_555
W2I O8I 1_555 1_555
W2I O9K 1_555 1_555
W2J O8J 1_555 1_555
W2J O9I 1_555 1_555
W3K O5K 1_555 1_555
W3K O10K 1_555 1_555
W3K O11K 1_555 1_555
W3A O2A 1_555 1_555
W3A O5A 1_555 1_555
W3A O10A 1_555 1_555
W3B O5B 1_555 1_555
W3B O10B 1_555 1_555
W3B O13B 1_555 1_555
W3B O13A 1_555 1_555
W3I O5I 1_555 1_555
W3I O10I 1_555 1_555
W3I O13K 1_555 1_555
W3J O5J 1_555 1_555
W3J O10J 1_555 1_555
W3J O13J 1_555 1_555
W3J O13I 1_555 1_555
W4K O6I 1_555 1_555
W4K O12K 1_555 1_555
W4B O3C 1_555 1_555
W4B O12B 1_555 1_555
W4J O3G 1_555 1_555
W4J O6K 1_555 1_555
W4J O12J 1_555 1_555
W4A O3E 1_555 1_555
W4A O3D 1_555 1_555
W4A O6B 1_555 1_555
W4A O12A 1_555 1_555
W4I O3F 1_555 1_555
W4I O3H 1_555 1_555
W4I O6J 1_555 1_555
W4I O12I 1_555 1_555
W4M O14Q 1_555 1_555
O14L Ag2K 1_555 1_555
O14C Ag2C 1_555 1_555
O14G Ag2D 1_555 1_555
O14E Ag2E 1_555 1_555
C2K N2K 1_555 1_555
C2Q N2Q 1_555 1_555
C2L N2L 1_555 1_555
C3K C4K 1_555 1_555
C3K N2K 1_555 1_555
C3Q C4Q 1_555 1_555
C3Q N2Q 1_555 1_555
C3L C4L 1_555 1_555
C3L N2L 1_555 1_555
C3F C4F 1_555 1_555
C3F N2F 1_555 1_555
C3E C4E 1_555 1_555
C3E N2E 1_555 1_555

#END
