
#######################################################################
#
#                 Cambridge Crystallographic Data Centre
#                                CCDC 
#
#######################################################################
#
# If this CIF has been generated from an entry in the Cambridge 
# Structural Database, then it will include bibliographic, chemical, 
# crystal, experimental, refinement or atomic coordinate data resulting 
# from the CCDC's data processing and validation procedures.
#
#######################################################################

data_SEHTAB
_symmetry_cell_setting           monoclinic
_symmetry_space_group_name_H-M   'P 21/n'
_symmetry_Int_Tables_number      14
_space_group_name_Hall           '-P 2yn'
loop_
_symmetry_equiv_pos_site_id
_symmetry_equiv_pos_as_xyz
1 x,y,z
2 1/2-x,1/2+y,1/2-z
3 -x,-y,-z
4 1/2+x,1/2-y,1/2+z
_cell_length_a                   10.782(2)
_cell_length_b                   15.510(3)
_cell_length_c                   10.881(2)
_cell_angle_alpha                90
_cell_angle_beta                 100.26(3)
_cell_angle_gamma                90
_cell_volume                     1790.52
loop_
_atom_site_label
_atom_site_type_symbol
_atom_site_fract_x
_atom_site_fract_y
_atom_site_fract_z
Yb1 Yb -0.143970(14) 0.102000(10) -0.398560(14)
S1 S -0.09890(13) 0.31442(8) -0.30407(13)
O1 O 0.7117(3) 0.1701(2) -0.2903(3)
O2 O 0.6360(3) 0.0632(2) -0.4118(3)
O3 O 0.2547(3) 0.3029(2) -0.0550(3)
O4 O 0.4500(3) 0.3386(2) -0.0611(3)
O5 O 0.1691(3) 0.0111(2) -0.4772(3)
O6 O 0.0604(2) 0.06320(19) -0.3382(3)
O7 O -0.1460(3) 0.0143(2) -0.2296(3)
O8 O -0.0467(3) 0.2243(2) -0.3009(3)
C1 C 0.6214(4) 0.1224(3) -0.3362(4)
C2 C 0.4948(4) 0.1378(3) -0.3029(4)
C3 C 0.4817(4) 0.2032(3) -0.2198(4)
H1 H 0.5518 0.2350 -0.1835
C4 C 0.3640(4) 0.2219(3) -0.1897(4)
C5 C 0.2597(4) 0.1743(3) -0.2431(4)
H2 H 0.1813 0.1864 -0.2229
C6 C 0.2719(4) 0.1083(3) -0.3269(4)
C7 C 0.3901(4) 0.0900(3) -0.3565(4)
H3 H 0.3986 0.0458 -0.4122
C8 C 0.3555(4) 0.2924(3) -0.0978(4)
C9 C 0.1580(3) 0.0570(3) -0.3855(4)
C10 C -0.0879(5) -0.0502(3) -0.1842(4)
C11 C -0.0332(7) -0.1570(4) -0.0199(6)
H4 H 0.0187 -0.1783 -0.0763
H5 H -0.0931 -0.2006 -0.0074
H6 H 0.0187 -0.1430 0.0587
C12 C -0.1832(6) -0.0400(4) 0.0007(5)
H7 H -0.2222 0.0094 -0.0432
H8 H -0.1357 -0.0223 0.0798
H9 H -0.2470 -0.0804 0.0140
C13 C 0.0333(9) 0.3807(5) -0.3156(10)
H10 H 0.0214 0.4367 -0.2821
H11 H 0.0415 0.3860 -0.4017
H12 H 0.1082 0.3550 -0.2692
C14 C -0.1135(9) 0.3400(5) -0.1504(6)
H13 H -0.0989 0.4005 -0.1364
H14 H -0.0529 0.3077 -0.0933
H15 H -0.1969 0.3258 -0.1375
N1 N -0.0999(5) -0.0804(3) -0.0724(4)
Yb1C Yb 0.356030(14) 0.398000(10) 0.101440(14)
Yb1B Yb 0.143970(14) -0.102000(10) -0.601440(14)
Yb1_2 Yb 0.856030(14) 0.102000(10) -0.398560(14)
O1_2 O -0.2883(3) 0.1701(2) -0.2903(3)
O2_2 O -0.3640(3) 0.0632(2) -0.4118(3)
O3C O -0.2453(3) 0.1971(2) -0.5550(3)
O4C O -0.0500(3) 0.1614(2) -0.5611(3)
O5B O -0.1691(3) -0.0111(2) -0.5228(3)
loop_
_geom_bond_atom_site_label_1
_geom_bond_atom_site_label_2
_geom_bond_site_symmetry_1
_geom_bond_site_symmetry_2
Yb1 O6 1_555 1_555
S1 O8 1_555 1_555
O1 C1 1_555 1_555
O2 C1 1_555 1_555
O3 C8 1_555 1_555
O4 C8 1_555 1_555
O5 C9 1_555 1_555
O6 C9 1_555 1_555
O7 Yb1 1_555 1_555
O8 Yb1 1_555 1_555
C1 C2 1_555 1_555
C2 C3 1_555 1_555
C3 H1 1_555 1_555
C4 C3 1_555 1_555
C5 C4 1_555 1_555
H2 C5 1_555 1_555
C6 C5 1_555 1_555
C7 C2 1_555 1_555
H3 C7 1_555 1_555
C8 C4 1_555 1_555
C9 C6 1_555 1_555
C10 O7 1_555 1_555
C11 H4 1_555 1_555
H5 C11 1_555 1_555
H6 C11 1_555 1_555
C12 H7 1_555 1_555
H8 C12 1_555 1_555
H9 C12 1_555 1_555
C13 S1 1_555 1_555
H10 C13 1_555 1_555
H11 C13 1_555 1_555
H12 C13 1_555 1_555
C14 S1 1_555 1_555
H13 C14 1_555 1_555
H14 C14 1_555 1_555
H15 C14 1_555 1_555
N1 C10 1_555 1_555
Yb1C O3 1_555 1_555
Yb1B O5 1_555 1_555
Yb1_2 O1 1_555 1_555
O1_2 Yb1 1_555 1_555
O2_2 Yb1 1_555 1_555
O3C Yb1 1_555 1_555
O4C Yb1 1_555 1_555
O5B Yb1 1_555 1_555
O2 Yb1_2 1_555 1_555
O4 Yb1C 1_555 1_555
C6 C7 1_555 1_555
C11 N1 1_555 1_555
C12 N1 1_555 1_555

#END
