
#######################################################################
#
#                 Cambridge Crystallographic Data Centre
#                                CCDC 
#
#######################################################################
#
# If this CIF has been generated from an entry in the Cambridge 
# Structural Database, then it will include bibliographic, chemical, 
# crystal, experimental, refinement or atomic coordinate data resulting 
# from the CCDC's data processing and validation procedures.
#
#######################################################################

data_SEHTIJ
_symmetry_cell_setting           monoclinic
_symmetry_space_group_name_H-M   'P 21/c'
_symmetry_Int_Tables_number      14
_space_group_name_Hall           '-P 2ybc'
loop_
_symmetry_equiv_pos_site_id
_symmetry_equiv_pos_as_xyz
1 x,y,z
2 -x,1/2+y,1/2-z
3 -x,-y,-z
4 x,1/2-y,1/2+z
_cell_length_a                   12.8518(6)
_cell_length_b                   10.4640(5)
_cell_length_c                   16.5329(8)
_cell_angle_alpha                90
_cell_angle_beta                 102.486(2)
_cell_angle_gamma                90
_cell_volume                     2170.78
loop_
_atom_site_label
_atom_site_type_symbol
_atom_site_fract_x
_atom_site_fract_y
_atom_site_fract_z
Ga1 Ga 0.32282(4) 0.22527(5) 0.76456(3)
Ga2 Ga 0.56414(4) 0.01851(5) 0.78552(3)
Ga3 Ga 0.18602(4) 0.51847(5) 0.77051(3)
Ga4 Ga 0.04010(4) 0.22832(5) 0.70583(3)
S1 S 0.44216(10) 0.09556(12) 0.85137(8)
S2 S 0.40517(10) 0.31484(12) 0.66935(8)
S3 S 0.70728(10) 0.14208(13) 0.78976(9)
S4 S 0.27837(9) 0.36731(11) 0.85642(7)
S5 S 0.11577(9) 0.64335(12) 0.86046(8)
S6 S 0.18140(9) 0.10348(12) 0.70333(8)
S7 S 0.05626(10) 0.43309(12) 0.66697(8)
N1 N 0.4973(3) 0.0094(4) 0.6636(2)
N2 N 0.4380(4) -0.1689(5) 0.5109(3)
N3 N 0.0384(3) 0.2310(4) 0.8268(2)
N4 N 0.0848(5) 0.3391(6) 0.9902(3)
C1 C 0.3995(4) -0.0718(6) 0.6403(3)
C2 C 0.3637(5) -0.0945(6) 0.5487(4)
C3 C -0.0368(4) 0.3193(5) 0.8543(4)
C4 C -0.0275(6) 0.3156(6) 0.9473(4)
H1 H 0.5517 -0.0252 0.6345
H2 H 0.4775 0.0983 0.6438
H3 H 0.1118 0.2542 0.8576
H4 H 0.0208 0.1426 0.8426
H5 H 0.4148 -0.1566 0.6683
H6 H 0.3403 -0.0289 0.6602
H7 H 0.2943 -0.1414 0.5388
H8 H 0.3531 -0.0095 0.5206
H9 H -0.0217 0.4083 0.8379
H10 H -0.1111 0.2951 0.8263
H11 H -0.0741 0.3831 0.9635
H12 H -0.0504 0.2298 0.9636
Ga2A Ga 0.43586(4) 0.51851(5) 0.71448(3)
Ga3A Ga 0.81398(4) 0.01847(5) 0.72949(3)
Ga4A Ga -0.04010(4) 0.72832(5) 0.79417(3)
S2A S 0.59483(10) -0.18516(12) 0.83065(8)
S3A S 0.29272(10) 0.64208(13) 0.71024(9)
S5A S -0.11577(9) 0.14335(12) 0.63954(8)
N5 N 0.3125(4) -0.1478(5) 0.9046(3)
N6 N 0.1994(4) 0.1117(6) 1.0240(3)
C5 C 0.2915(5) -0.0742(7) 0.9783(4)
C6 C 0.2186(5) 0.0354(6) 0.9521(4)
H13 H 0.2585 -0.1329 1.0133
H14 H 0.3607 -0.0412 1.0115
H15 H 0.1489 0.0020 0.9202
H16 H 0.2509 0.0927 0.9157
loop_
_geom_bond_atom_site_label_1
_geom_bond_atom_site_label_2
_geom_bond_site_symmetry_1
_geom_bond_site_symmetry_2
Ga1 S1 1_555 1_555
Ga2 S1 1_555 1_555
Ga3 S4 1_555 1_555
Ga4 S6 1_555 1_555
S2 Ga1 1_555 1_555
S3 Ga2 1_555 1_555
S4 Ga1 1_555 1_555
S5 Ga3 1_555 1_555
S6 Ga1 1_555 1_555
S7 Ga3 1_555 1_555
N1 Ga2 1_555 1_555
N2 C2 1_555 1_555
N3 Ga4 1_555 1_555
N4 C4 1_555 1_555
N5 C5 1_555 1_555
N6 C6 1_555 1_555
C1 N1 1_555 1_555
C2 C1 1_555 1_555
C3 N3 1_555 1_555
C4 C3 1_555 1_555
C5 C6 1_555 1_555
C6 H15 1_555 1_555
H1 N1 1_555 1_555
H2 N1 1_555 1_555
H3 N3 1_555 1_555
H4 N3 1_555 1_555
H5 C1 1_555 1_555
H6 C1 1_555 1_555
H7 C2 1_555 1_555
H8 C2 1_555 1_555
H9 C3 1_555 1_555
H10 C3 1_555 1_555
H11 C4 1_555 1_555
H12 C4 1_555 1_555
H13 C5 1_555 1_555
H14 C5 1_555 1_555
H16 C6 1_555 1_555
Ga2A S2 1_555 1_555
Ga3A S3 1_555 1_555
Ga4A S5 1_555 1_555
S2A Ga2 1_555 1_555
S3A Ga3 1_555 1_555
S5A Ga4 1_555 1_555
Ga4 S7 1_555 1_555
Ga2A S3A 1_555 1_555

#END
