
#######################################################################
#
#                 Cambridge Crystallographic Data Centre
#                                CCDC 
#
#######################################################################
#
# If this CIF has been generated from an entry in the Cambridge 
# Structural Database, then it will include bibliographic, chemical, 
# crystal, experimental, refinement or atomic coordinate data resulting 
# from the CCDC's data processing and validation procedures.
#
#######################################################################

data_SEHWOT
_symmetry_cell_setting           triclinic
_symmetry_space_group_name_H-M   'P -1'
_symmetry_Int_Tables_number      2
_space_group_name_Hall           '-P 1'
loop_
_symmetry_equiv_pos_site_id
_symmetry_equiv_pos_as_xyz
1 x,y,z
2 -x,-y,-z
_cell_length_a                   12.807(3)
_cell_length_b                   15.453(3)
_cell_length_c                   22.463(5)
_cell_angle_alpha                99.99(3)
_cell_angle_beta                 91.71(3)
_cell_angle_gamma                90.68(3)
_cell_volume                     4375.57
loop_
_atom_site_label
_atom_site_type_symbol
_atom_site_fract_x
_atom_site_fract_y
_atom_site_fract_z
Au1 Au -0.07779(5) 0.14536(4) 0.23540(2)
Au2 Au 0.60739(4) 0.83747(4) 0.32100(3)
Au3 Au -0.06894(4) 0.33685(4) 0.31040(3)
Au4 Au 0.61286(5) -0.35146(4) 0.23372(3)
P1 P 0.0027(3) 0.1878(2) 0.15537(17)
P2 P 0.4620(3) 0.8113(2) 0.37147(17)
P3 P 0.0765(3) 0.3107(2) 0.36473(16)
P4 P 0.5172(3) -0.3065(3) 0.15725(18)
C1 C -0.1541(11) 0.1006(9) 0.3032(6)
C2 C -0.2609(11) 0.1047(9) 0.3073(6)
C3 C -0.3159(12) 0.0792(11) 0.3530(7)
C4 C -0.2614(13) 0.0482(11) 0.3983(7)
C5 C -0.1553(13) 0.0396(10) 0.3973(7)
C6 C -0.1035(12) 0.0651(9) 0.3488(6)
F1 F -0.3190(7) 0.1363(6) 0.2644(4)
F2 F -0.4200(7) 0.0858(7) 0.3550(5)
F3 F -0.3126(8) 0.0208(7) 0.4440(4)
F4 F -0.0999(9) 0.0056(7) 0.4392(5)
F5 F 0.0013(7) 0.0588(7) 0.3495(5)
C7 C -0.0861(12) 0.2203(10) 0.1000(7)
C8 C -0.0521(15) 0.2610(12) 0.0539(8)
H1 H 0.0206 0.2710 0.0506
C9 C -0.1207(15) 0.2874(12) 0.0128(8)
H2 H -0.0944 0.3154 -0.0183
C10 C -0.2236(16) 0.2745(14) 0.0156(8)
H3 H -0.2697 0.2937 -0.0132
C11 C -0.2647(14) 0.2320(13) 0.0619(9)
H4 H -0.3376 0.2217 0.0643
C12 C -0.1931(14) 0.2061(12) 0.1034(8)
H5 H -0.2182 0.1781 0.1348
C13 C 0.0881(13) 0.1065(10) 0.1142(6)
C14 C 0.0426(17) 0.0290(11) 0.0847(8)
H6 H -0.0310 0.0209 0.0853
C15 C 0.104(2) -0.0379(13) 0.0540(9)
H7 H 0.0725 -0.0907 0.0324
C16 C 0.212(2) -0.0242(15) 0.0560(9)
H8 H 0.2557 -0.0692 0.0364
C17 C 0.2568(18) 0.0514(14) 0.0852(10)
H9 H 0.3303 0.0596 0.0847
C18 C 0.1963(15) 0.1177(12) 0.1163(8)
H10 H 0.2282 0.1697 0.1385
C19 C 0.0838(11) 0.2809(10) 0.1773(7)
C20 C 0.1317(11) 0.3473(10) 0.1958(6)
C21 C 0.1854(11) 0.4295(9) 0.2206(6)
C22 C 0.1292(12) 0.4979(10) 0.2540(7)
H11 H 0.0561 0.4917 0.2587
C23 C 0.1812(12) 0.5738(9) 0.2798(7)
H12 H 0.1443 0.6204 0.3028
C24 C 0.2864(11) 0.5829(9) 0.2724(6)
C25 C 0.3412(12) 0.5170(11) 0.2376(7)
H13 H 0.4136 0.5247 0.2317
C26 C 0.2908(12) 0.4412(10) 0.2118(7)
H14 H 0.3281 0.3961 0.1876
C27 C 0.3394(12) 0.6626(9) 0.3016(6)
C28 C 0.3849(12) 0.7256(10) 0.3285(7)
C29 C 0.4809(12) 0.7706(9) 0.4428(7)
C30 C 0.4065(14) 0.7812(11) 0.4863(8)
H15 H 0.3463 0.8147 0.4810
C31 C 0.4180(15) 0.7437(11) 0.5375(8)
H16 H 0.3666 0.7526 0.5675
C32 C 0.5034(16) 0.6937(12) 0.5453(8)
H17 H 0.5098 0.6663 0.5799
C33 C 0.5795(14) 0.6832(11) 0.5031(9)
H18 H 0.6396 0.6498 0.5088
C34 C 0.5681(14) 0.7209(11) 0.4530(8)
H19 H 0.6211 0.7132 0.4240
C35 C 0.3722(12) 0.9004(9) 0.3889(6)
C36 C 0.4129(13) 0.9818(10) 0.4201(7)
H20 H 0.4857 0.9898 0.4292
C37 C 0.3432(15) 1.0505(11) 0.4373(8)
H21 H 0.3692 1.1055 0.4586
C38 C 0.2420(15) 1.0398(11) 0.4244(8)
H22 H 0.1969 1.0879 0.4352
C39 C 0.2004(15) 0.9598(13) 0.3955(9)
H23 H 0.1271 0.9517 0.3887
C40 C 0.2679(13) 0.8918(10) 0.3767(7)
H24 H 0.2404 0.8379 0.3548
C41 C 0.7336(12) 0.8631(10) 0.2727(7)
C42 C 0.8358(13) 0.8472(12) 0.2919(9)
C43 C 0.9228(12) 0.8568(11) 0.2595(7)
C44 C 0.9105(12) 0.8888(10) 0.2070(7)
C45 C 0.8142(13) 0.9107(11) 0.1869(8)
C46 C 0.7291(12) 0.8974(10) 0.2195(7)
F6 F 0.8537(8) 0.8143(7) 0.3433(4)
F7 F 1.0199(8) 0.8372(8) 0.2776(5)
F8 F 0.9942(7) 0.8997(7) 0.1730(4)
F9 F 0.8006(8) 0.9438(7) 0.1358(5)
F10 F 0.6352(7) 0.9207(7) 0.2006(5)
C47 C -0.2062(12) 0.3624(10) 0.2650(6)
C48 C -0.3003(12) 0.3405(9) 0.2864(7)
C49 C -0.3954(12) 0.3515(11) 0.2552(8)
C50 C -0.3884(12) 0.3848(11) 0.2010(7)
C51 C -0.2940(12) 0.4081(10) 0.1801(8)
C52 C -0.2043(11) 0.3968(9) 0.2126(7)
F11 F -0.3084(8) 0.3084(7) 0.3367(4)
F12 F -0.4867(8) 0.3320(7) 0.2764(5)
F13 F -0.4800(7) 0.3949(7) 0.1693(5)
F14 F -0.2934(8) 0.4434(8) 0.1291(5)
F15 F -0.1151(7) 0.4209(7) 0.1902(5)
C53 C 0.1496(11) 0.2242(9) 0.3269(6)
C54 C 0.1936(11) 0.1615(9) 0.3027(7)
C55 C 0.0447(12) 0.2763(10) 0.4354(7)
C56 C -0.0561(13) 0.2617(11) 0.4488(8)
H25 H -0.1112 0.2713 0.4216
C57 C -0.0791(15) 0.2323(12) 0.5030(9)
H26 H -0.1496 0.2225 0.5124
C58 C 0.0006(15) 0.2181(13) 0.5421(8)
H27 H -0.0149 0.1987 0.5788
C59 C 0.1027(15) 0.2316(12) 0.5283(8)
H28 H 0.1575 0.2210 0.5554
C60 C 0.1260(13) 0.2606(11) 0.4754(7)
H29 H 0.1967 0.2700 0.4661
C61 C 0.1724(12) 0.3998(9) 0.3859(6)
C62 C 0.1421(14) 0.4758(11) 0.4227(7)
H30 H 0.0721 0.4819 0.4354
C63 C 0.2150(16) 0.5432(11) 0.4409(8)
H31 H 0.1950 0.5946 0.4674
C64 C 0.3169(16) 0.5365(12) 0.4209(10)
H32 H 0.3655 0.5836 0.4331
C65 C 0.3471(13) 0.4614(12) 0.3832(9)
H33 H 0.4165 0.4560 0.3694
C66 C 0.2726(13) 0.3923(11) 0.3657(8)
H34 H 0.2922 0.3403 0.3396
C67 C 0.7002(12) -0.3989(10) 0.3007(7)
C68 C 0.8092(11) -0.3902(9) 0.3062(6)
C69 C 0.8663(12) -0.4192(11) 0.3507(7)
C70 C 0.8133(14) -0.4613(11) 0.3937(8)
C71 C 0.7097(13) -0.4724(10) 0.3877(7)
C72 C 0.6538(12) -0.4409(10) 0.3409(7)
F16 F 0.8619(8) -0.3528(6) 0.2643(4)
F17 F 0.9694(7) -0.4086(7) 0.3542(4)
F18 F 0.8704(8) -0.4906(8) 0.4349(4)
F19 F 0.6599(9) -0.5134(7) 0.4272(5)
F20 F 0.5488(7) -0.4545(7) 0.3385(5)
C73 C 0.4402(11) -0.2157(10) 0.1804(7)
C74 C 0.3950(12) -0.1531(10) 0.1986(7)
C75 C 0.3419(12) -0.0717(9) 0.2245(6)
C76 C 0.4007(12) -0.0019(10) 0.2570(7)
H35 H 0.4742 -0.0072 0.2616
C77 C 0.3540(12) 0.0745(10) 0.2824(8)
H36 H 0.3946 0.1217 0.3048
C78 C 0.2458(11) 0.0823(9) 0.2750(6)
C79 C 0.1864(12) 0.0148(10) 0.2416(7)
H37 H 0.1133 0.0212 0.2359
C80 C 0.2356(12) -0.0647(9) 0.2156(7)
H38 H 0.1958 -0.1119 0.1927
C81 C 0.6044(14) -0.2720(11) 0.0991(7)
C82 C 0.7061(15) -0.2865(13) 0.1023(8)
H39 H 0.7348 -0.3148 0.1332
C83 C 0.7711(17) -0.2593(15) 0.0592(10)
H40 H 0.8445 -0.2667 0.0616
C84 C 0.7277(17) -0.2228(12) 0.0147(10)
H41 H 0.7710 -0.2058 -0.0151
C85 C 0.6208(18) -0.2093(12) 0.0112(9)
H42 H 0.5920 -0.1831 -0.0207
C86 C 0.5553(16) -0.2340(14) 0.0545(8)
H43 H 0.4820 -0.2253 0.0533
C87 C 0.4280(13) -0.3898(10) 0.1156(7)
C88 C 0.4699(16) -0.4671(11) 0.0860(8)
H44 H 0.5432 -0.4759 0.0870
C89 C 0.4024(17) -0.5314(12) 0.0549(9)
H45 H 0.4308 -0.5845 0.0344
C90 C 0.2952(18) -0.5212(12) 0.0527(9)
H46 H 0.2504 -0.5661 0.0311
C91 C 0.2557(17) -0.4443(13) 0.0824(10)
H47 H 0.1825 -0.4355 0.0812
C92 C 0.3213(14) -0.3789(12) 0.1143(8)
H48 H 0.2924 -0.3264 0.1353
Au2_2 Au 0.60739(4) -0.16253(4) 0.32100(3)
Au4_2 Au 0.61286(5) 0.64854(4) 0.23372(3)
Cl1 Cl 0.4978(6) 0.1766(4) 0.1531(3)
Cl2 Cl 0.5645(6) 0.0291(5) 0.0662(3)
C93 C 0.551(2) 0.0750(15) 0.1393(10)
H49 H 0.6205 0.0784 0.1598
H50 H 0.5067 0.0349 0.1582
Cl3 Cl 0.9424(6) 0.5352(4) 0.0663(3)
Cl4 Cl 1.0213(6) 0.6851(4) 0.1507(3)
C94 C 0.962(2) 0.5806(15) 0.1390(10)
H51 H 1.0069 0.5412 0.1588
H52 H 0.8944 0.5847 0.1590
loop_
_geom_bond_atom_site_label_1
_geom_bond_atom_site_label_2
_geom_bond_site_symmetry_1
_geom_bond_site_symmetry_2
Au1 Au3 1_555 1_555
Au2 P2 1_555 1_555
Au3 P3 1_555 1_555
Au4 P4 1_555 1_555
P1 Au1 1_555 1_555
P2 C28 1_555 1_555
P3 C53 1_555 1_555
P4 C73 1_555 1_555
C1 Au1 1_555 1_555
C2 C1 1_555 1_555
C3 C2 1_555 1_555
C4 C3 1_555 1_555
C5 C4 1_555 1_555
C6 C1 1_555 1_555
F1 C2 1_555 1_555
F2 C3 1_555 1_555
F3 C4 1_555 1_555
F4 C5 1_555 1_555
F5 C6 1_555 1_555
C7 P1 1_555 1_555
C8 C7 1_555 1_555
H1 C8 1_555 1_555
C9 C8 1_555 1_555
H2 C9 1_555 1_555
C10 C9 1_555 1_555
H3 C10 1_555 1_555
C11 C10 1_555 1_555
H4 C11 1_555 1_555
C12 C7 1_555 1_555
H5 C12 1_555 1_555
C13 P1 1_555 1_555
C14 C13 1_555 1_555
H6 C14 1_555 1_555
C15 C14 1_555 1_555
H7 C15 1_555 1_555
C16 C15 1_555 1_555
H8 C16 1_555 1_555
C17 C16 1_555 1_555
H9 C17 1_555 1_555
C18 C13 1_555 1_555
H10 C18 1_555 1_555
C19 P1 1_555 1_555
C20 C19 1_555 1_555
C21 C20 1_555 1_555
C22 C21 1_555 1_555
H11 C22 1_555 1_555
C23 C22 1_555 1_555
H12 C23 1_555 1_555
C24 C23 1_555 1_555
C25 C24 1_555 1_555
H13 C25 1_555 1_555
C26 C21 1_555 1_555
H14 C26 1_555 1_555
C27 C24 1_555 1_555
C28 C27 1_555 1_555
C29 P2 1_555 1_555
C30 C29 1_555 1_555
H15 C30 1_555 1_555
C31 C30 1_555 1_555
H16 C31 1_555 1_555
C32 C31 1_555 1_555
H17 C32 1_555 1_555
C33 C32 1_555 1_555
H18 C33 1_555 1_555
C34 C29 1_555 1_555
H19 C34 1_555 1_555
C35 P2 1_555 1_555
C36 C35 1_555 1_555
H20 C36 1_555 1_555
C37 C36 1_555 1_555
H21 C37 1_555 1_555
C38 C37 1_555 1_555
H22 C38 1_555 1_555
C39 C38 1_555 1_555
H23 C39 1_555 1_555
C40 C35 1_555 1_555
H24 C40 1_555 1_555
C41 Au2 1_555 1_555
C42 C41 1_555 1_555
C43 C42 1_555 1_555
C44 C43 1_555 1_555
C45 C44 1_555 1_555
C46 C41 1_555 1_555
F6 C42 1_555 1_555
F7 C43 1_555 1_555
F8 C44 1_555 1_555
F9 C45 1_555 1_555
F10 C46 1_555 1_555
C47 Au3 1_555 1_555
C48 C47 1_555 1_555
C49 C48 1_555 1_555
C50 C49 1_555 1_555
C51 C50 1_555 1_555
C52 C47 1_555 1_555
F11 C48 1_555 1_555
F12 C49 1_555 1_555
F13 C50 1_555 1_555
F14 C51 1_555 1_555
F15 C52 1_555 1_555
C53 C54 1_555 1_555
C54 C78 1_555 1_555
C55 P3 1_555 1_555
C56 C55 1_555 1_555
H25 C56 1_555 1_555
C57 C56 1_555 1_555
H26 C57 1_555 1_555
C58 C57 1_555 1_555
H27 C58 1_555 1_555
C59 C58 1_555 1_555
H28 C59 1_555 1_555
C60 C55 1_555 1_555
H29 C60 1_555 1_555
C61 P3 1_555 1_555
C62 C61 1_555 1_555
H30 C62 1_555 1_555
C63 C62 1_555 1_555
H31 C63 1_555 1_555
C64 C63 1_555 1_555
H32 C64 1_555 1_555
C65 C64 1_555 1_555
H33 C65 1_555 1_555
C66 C61 1_555 1_555
H34 C66 1_555 1_555
C67 Au4 1_555 1_555
C68 C67 1_555 1_555
C69 C68 1_555 1_555
C70 C69 1_555 1_555
C71 C70 1_555 1_555
C72 C67 1_555 1_555
F16 C68 1_555 1_555
F17 C69 1_555 1_555
F18 C70 1_555 1_555
F19 C71 1_555 1_555
F20 C72 1_555 1_555
C73 C74 1_555 1_555
C74 C75 1_555 1_555
C75 C76 1_555 1_555
C76 H35 1_555 1_555
C77 C76 1_555 1_555
H36 C77 1_555 1_555
C78 C77 1_555 1_555
C79 C78 1_555 1_555
H37 C79 1_555 1_555
C80 C75 1_555 1_555
H38 C80 1_555 1_555
C81 P4 1_555 1_555
C82 C81 1_555 1_555
H39 C82 1_555 1_555
C83 C82 1_555 1_555
H40 C83 1_555 1_555
C84 C83 1_555 1_555
H41 C84 1_555 1_555
C85 C84 1_555 1_555
H42 C85 1_555 1_555
C86 C81 1_555 1_555
H43 C86 1_555 1_555
C87 P4 1_555 1_555
C88 C87 1_555 1_555
H44 C88 1_555 1_555
C89 C88 1_555 1_555
H45 C89 1_555 1_555
C90 C89 1_555 1_555
H46 C90 1_555 1_555
C91 C90 1_555 1_555
H47 C91 1_555 1_555
C92 C87 1_555 1_555
H48 C92 1_555 1_555
Cl1 C93 1_555 1_555
Cl2 C93 1_555 1_555
C93 H49 1_555 1_555
H50 C93 1_555 1_555
Cl3 C94 1_555 1_555
Cl4 C94 1_555 1_555
C94 H51 1_555 1_555
H52 C94 1_555 1_555
Au2_2 Au4 1_555 1_555
Au4_2 Au2 1_555 1_555
C5 C6 1_555 1_555
C11 C12 1_555 1_555
C17 C18 1_555 1_555
C25 C26 1_555 1_555
C33 C34 1_555 1_555
C39 C40 1_555 1_555
C45 C46 1_555 1_555
C51 C52 1_555 1_555
C59 C60 1_555 1_555
C65 C66 1_555 1_555
C71 C72 1_555 1_555
C79 C80 1_555 1_555
C85 C86 1_555 1_555
C91 C92 1_555 1_555

#END
