
#######################################################################
#
#                 Cambridge Crystallographic Data Centre
#                                CCDC 
#
#######################################################################
#
# If this CIF has been generated from an entry in the Cambridge 
# Structural Database, then it will include bibliographic, chemical, 
# crystal, experimental, refinement or atomic coordinate data resulting 
# from the CCDC's data processing and validation procedures.
#
#######################################################################

data_SEHXOT
_symmetry_cell_setting           triclinic
_symmetry_space_group_name_H-M   'P -1'
_symmetry_Int_Tables_number      2
_space_group_name_Hall           '-P 1'
loop_
_symmetry_equiv_pos_site_id
_symmetry_equiv_pos_as_xyz
1 x,y,z
2 -x,-y,-z
_cell_length_a                   11.3894(13)
_cell_length_b                   11.5985(18)
_cell_length_c                   11.7351(17)
_cell_angle_alpha                77.968(10)
_cell_angle_beta                 61.694(8)
_cell_angle_gamma                86.258(9)
_cell_volume                     1333.85
loop_
_atom_site_label
_atom_site_type_symbol
_atom_site_fract_x
_atom_site_fract_y
_atom_site_fract_z
Eu1 Eu 0.92141(4) 0.88452(3) 0.67592(5)
O1 O 1.0347(5) 0.6940(4) 0.6678(6)
O2 O 0.8382(5) 0.6927(5) 0.6830(7)
O3 O 0.9633(5) 1.1097(4) 0.5547(5)
O4 O 0.8761(6) 1.0674(5) 0.7709(6)
O5 O 1.1478(5) 0.9463(5) 0.6017(6)
O6 O 0.7597(5) 0.9425(5) 0.6005(6)
O7 O 0.9544(6) 0.8329(6) 0.8727(6)
O8 O 0.7007(5) 0.8517(5) 0.8701(7)
N1 N 1.1244(8) 0.7915(9) 0.9155(9)
N2 N 0.5339(7) 0.8601(8) 1.0729(8)
C1 C 0.9412(7) 0.5084(7) 0.6770(8)
C2 C 1.0303(7) 0.4307(7) 0.7080(8)
C3 C 1.0262(7) 0.3079(7) 0.7020(8)
C4 C 0.9343(7) 0.2697(6) 0.6643(7)
C5 C 0.8522(7) 0.3479(7) 0.6348(8)
H1 H 0.7949 0.3225 0.6083
C6 C 0.8545(7) 0.4646(6) 0.6443(7)
H2 H 0.7951 0.5153 0.6280
C7 C 1.1224(9) 0.4636(8) 0.7454(9)
H3 H 1.1280 0.5420 0.7500
C8 C 1.2033(10) 0.3858(10) 0.7749(11)
H4 H 1.2630 0.4114 0.7984
C9 C 1.1967(11) 0.2672(8) 0.7699(12)
H5 H 1.2508 0.2133 0.7914
C10 C 1.1097(9) 0.2308(8) 0.7330(10)
H6 H 1.1068 0.1520 0.7286
C11 C 0.9383(7) 0.6376(6) 0.6796(8)
C12 C 0.9246(7) 1.1394(7) 0.6650(9)
C13 C 1.3754(8) 1.0001(7) 0.5008(10)
C14 C 1.4512(8) 1.1068(9) 0.4574(11)
C15 C 1.4238(8) 0.8947(9) 0.5402(11)
C16 C 1.3907(14) 1.2317(12) 0.4469(18)
H7 H 1.3035 1.2339 0.4598
C17 C 1.4217(15) 0.6644(15) 0.572(2)
H8 H 1.3793 0.5936 0.5842
C18 C 1.3686(13) 0.7717(14) 0.5471(16)
H9 H 1.2947 0.7707 0.5335
C19 C 1.2434(7) 1.0016(6) 0.5001(9)
C20 C 1.0272(10) 0.7628(10) 0.8996(10)
H10 H 1.0106 0.6830 0.9092
C21 C 1.1652(16) 0.9067(14) 0.9036(18)
H11 H 1.2394 0.9043 0.9214
H12 H 1.0927 0.9446 0.9656
H13 H 1.1915 0.9502 0.8155
C22 C 1.2078(13) 0.6962(16) 0.9420(14)
H14 H 1.2765 0.7300 0.9515
H15 H 1.2477 0.6556 0.8696
H16 H 1.1527 0.6414 1.0219
C23 C 0.6577(9) 0.8762(8) 0.9779(11)
H17 H 0.7183 0.9096 0.9950
C24 C 0.4359(9) 0.8085(11) 1.0492(14)
H18 H 0.3502 0.8019 1.1264
H19 H 0.4626 0.7316 1.0301
H20 H 0.4304 0.8580 0.9755
C25 C 0.4858(10) 0.8913(12) 1.2027(11)
H21 H 0.3920 0.8718 1.2554
H22 H 0.5011 0.9744 1.1910
H23 H 0.5330 0.8481 1.2463
C26 C 1.4518(18) 1.3339(19) 0.421(2)
H24 H 1.4158 1.4041 0.3995
Eu1A Eu 1.07859(4) 1.11548(3) 0.32408(5)
O3A O 1.0367(5) 0.8903(4) 0.4453(5)
O6A O 1.2403(5) 1.0575(5) 0.3995(6)
C4_2 C 0.9343(7) 1.2697(6) 0.6643(7)
C12_2 C 0.9246(7) 0.1394(7) 0.6650(9)
C14A C 1.5488(8) 0.8932(9) 0.5426(11)
C15A C 1.5762(8) 1.1053(9) 0.4598(11)
C17A C 1.5783(15) 1.3356(15) 0.428(2)
C19A C 0.7566(7) 0.9984(6) 0.4999(9)
C26A C 1.5482(18) 0.6661(19) 0.579(2)
loop_
_geom_bond_atom_site_label_1
_geom_bond_atom_site_label_2
_geom_bond_site_symmetry_1
_geom_bond_site_symmetry_2
Eu1 O1 1_555 1_555
O1 C11 1_555 1_555
O2 Eu1 1_555 1_555
O3 Eu1 1_555 1_555
O4 Eu1 1_555 1_555
O5 Eu1 1_555 1_555
O6 Eu1 1_555 1_555
O7 Eu1 1_555 1_555
O8 Eu1 1_555 1_555
N1 C20 1_555 1_555
N2 C23 1_555 1_555
C1 C2 1_555 1_555
C2 C3 1_555 1_555
C3 C4 1_555 1_555
C4 C5 1_555 1_555
C5 H1 1_555 1_555
C6 C1 1_555 1_555
H2 C6 1_555 1_555
C7 C2 1_555 1_555
H3 C7 1_555 1_555
C8 C7 1_555 1_555
H4 C8 1_555 1_555
C9 C8 1_555 1_555
H5 C9 1_555 1_555
C10 C3 1_555 1_555
H6 C10 1_555 1_555
C11 O2 1_555 1_555
C12 O3 1_555 1_555
C13 C14 1_555 1_555
C14 C16 1_555 1_555
C15 C13 1_555 1_555
C16 H7 1_555 1_555
C17 H8 1_555 1_555
C18 C15 1_555 1_555
H9 C18 1_555 1_555
C19 O5 1_555 1_555
C20 O7 1_555 1_555
H10 C20 1_555 1_555
C21 N1 1_555 1_555
H11 C21 1_555 1_555
H12 C21 1_555 1_555
H13 C21 1_555 1_555
C22 N1 1_555 1_555
H14 C22 1_555 1_555
H15 C22 1_555 1_555
H16 C22 1_555 1_555
C23 O8 1_555 1_555
H17 C23 1_555 1_555
C24 N2 1_555 1_555
H18 C24 1_555 1_555
H19 C24 1_555 1_555
H20 C24 1_555 1_555
C25 N2 1_555 1_555
H21 C25 1_555 1_555
H22 C25 1_555 1_555
H23 C25 1_555 1_555
C26 C16 1_555 1_555
H24 C26 1_555 1_555
Eu1A O3 1_555 1_555
O3A Eu1 1_555 1_555
O6A C19 1_555 1_555
C4_2 C12 1_555 1_555
C12_2 C4 1_555 1_555
C14A C15 1_555 1_555
C15A C14 1_555 1_555
C17A C26 1_555 1_555
C19A O6 1_555 1_555
C26A C17 1_555 1_555
O4 C12 1_555 1_555
C1 C11 1_555 1_555
C5 C6 1_555 1_555
C9 C10 1_555 1_555
C13 C19 1_555 1_555
C17 C18 1_555 1_555
Eu1A O3A 1_555 1_555
Eu1A O6A 1_555 1_555

#END
