
#######################################################################
#
#                 Cambridge Crystallographic Data Centre
#                                CCDC 
#
#######################################################################
#
# If this CIF has been generated from an entry in the Cambridge 
# Structural Database, then it will include bibliographic, chemical, 
# crystal, experimental, refinement or atomic coordinate data resulting 
# from the CCDC's data processing and validation procedures.
#
#######################################################################

data_SEHXEJ
_symmetry_cell_setting           triclinic
_symmetry_space_group_name_H-M   'P -1'
_symmetry_Int_Tables_number      2
_space_group_name_Hall           '-P 1'
loop_
_symmetry_equiv_pos_site_id
_symmetry_equiv_pos_as_xyz
1 x,y,z
2 -x,-y,-z
_cell_length_a                   11.5541(9)
_cell_length_b                   11.7802(10)
_cell_length_c                   23.5745(15)
_cell_angle_alpha                79.366(5)
_cell_angle_beta                 87.169(5)
_cell_angle_gamma                62.000(5)
_cell_volume                     2781.91
loop_
_atom_site_label
_atom_site_type_symbol
_atom_site_fract_x
_atom_site_fract_y
_atom_site_fract_z
La1 La 0.92760(3) 0.16521(3) 0.192997(12)
La2 La 1.08841(3) -0.19007(3) 0.309706(12)
O1 O 1.0377(4) 0.1617(4) 0.09459(17)
O2 O 0.9654(4) 0.0500(4) 0.30703(16)
C1 C 0.9434(6) 0.1805(6) 0.5022(2)
C2 C 0.9403(6) 0.1773(5) 0.0032(2)
O3 O 0.2509(4) -0.1083(4) 0.28119(18)
O4 O 0.8589(4) -0.1201(4) 0.27589(17)
O5 O 0.9538(5) 0.3712(4) 0.1663(2)
O6 O 0.7710(4) 0.0795(4) 0.22042(19)
C3 C 1.1955(8) 0.2767(8) -0.0532(3)
H1 H 1.2562 0.2974 -0.0396
O7 O 0.1591(4) 0.0902(4) 0.22432(18)
O8 O 1.0598(5) -0.3946(5) 0.3343(3)
O9 O 0.8436(4) 0.1679(5) 0.09384(18)
O10 O 0.8903(5) 0.2616(4) 0.28698(17)
O11 O 1.3148(4) -0.3917(4) 0.3225(2)
O12 O 0.7004(4) 0.3611(4) 0.1803(2)
N1 N 1.4742(6) -0.5926(6) 0.3162(3)
C4 C 1.1854(8) 0.2789(8) -0.1126(3)
H2 H 1.2392 0.3005 -0.1380
C5 C 1.0240(9) 0.3968(7) 0.1314(4)
H3 H 0.9993 0.4126 0.0926
C6 C 1.1188(7) 0.2450(7) -0.0153(3)
H4 H 1.1271 0.2449 0.0237
C7 C 1.2073(10) 0.2716(10) 0.4464(4)
H5 H 1.2636 0.2981 0.4597
C8 C 1.1205(9) 0.2469(8) 0.4833(3)
H6 H 1.1203 0.2578 0.5214
C9 C 0.6079(6) 0.0482(7) 0.1361(3)
H7 H 0.6869 0.0515 0.1348
N2 N 0.5351(6) 0.5648(6) 0.1796(3)
C10 C 0.4671(6) -0.0609(6) 0.2949(3)
H8 H 0.4384 -0.0894 0.3295
C11 C 0.2551(5) -0.0110(6) 0.2507(3)
N3 N 0.8846(8) -0.4304(7) 0.3485(4)
C12 C 1.0163(6) 0.2144(5) -0.0951(2)
C13 C 0.5603(5) 0.0180(5) 0.1904(2)
C14 C 1.0321(6) 0.1957(6) 0.4063(2)
C15 C 0.8566(6) 0.1439(6) -0.0195(2)
H9 H 0.8026 0.1208 0.0051
C16 C 0.9427(6) 0.1595(5) 0.3860(2)
C17 C 1.3531(7) -0.4996(6) 0.3099(3)
H10 H 1.2912 -0.5165 0.2947
C18 C 0.3881(5) -0.0166(5) 0.2452(2)
C19 C 0.9255(6) 0.1795(5) -0.1162(2)
N4 N 1.1274(8) 0.4043(6) 0.1422(4)
C20 C 0.6357(5) -0.0225(5) 0.2435(2)
C21 C 1.0257(6) 0.2121(6) -0.0345(2)
C22 C 0.8490(6) 0.1432(6) -0.0786(2)
H11 H 0.7921 0.1180 -0.0923
C23 C 0.8596(7) 0.1440(6) 0.4803(3)
H12 H 0.8019 0.1263 0.5046
C24 C 0.4945(11) 0.6961(9) 0.1906(6)
H13 H 0.4020 0.7493 0.1820
H14 H 0.5415 0.7342 0.1666
H15 H 0.5132 0.6911 0.2305
C25 C 0.8602(6) 0.1333(6) 0.4230(2)
H16 H 0.8034 0.1078 0.4094
C26 C 0.6586(7) 0.4723(7) 0.1887(3)
H17 H 0.7181 0.4940 0.2026
C27 C 1.5140(10) -0.7195(8) 0.3001(4)
H18 H 1.6065 -0.7740 0.3081
H19 H 1.4947 -0.7073 0.2596
H20 H 1.4670 -0.7605 0.3219
C28 C 0.4357(5) 0.0201(5) 0.1916(2)
C29 C 0.7663(5) -0.0208(6) 0.2467(2)
C30 C 1.0334(6) 0.2063(6) 0.4660(2)
C31 C 0.5399(7) 0.0725(8) 0.0860(3)
H21 H 0.5746 0.0885 0.0508
C32 C 0.8596(15) -0.4214(13) 0.2871(7)
H22 H 0.7839 -0.4328 0.2824
H23 H 0.9344 -0.4884 0.2723
H24 H 0.8443 -0.3372 0.2662
C33 C 0.9331(6) 0.1564(5) 0.3225(2)
C34 C 0.3662(6) 0.0495(6) 0.1374(3)
H25 H 0.2846 0.0518 0.1370
C35 C 1.0967(7) 0.2493(6) -0.1327(3)
H26 H 1.0892 0.2523 -0.1721
C36 C 0.9838(9) -0.4172(8) 0.3664(4)
H27 H 0.9965 -0.4256 0.4059
C37 C 0.9413(6) 0.1693(5) 0.0677(2)
O13 O 0.9467(4) 0.0766(4) -0.19622(15)
O14 O 0.8694(5) 0.2887(4) -0.21398(17)
C38 C 0.9132(5) 0.1829(5) -0.1800(2)
C39 C 0.5900(6) -0.0637(6) 0.2939(3)
H28 H 0.6414 -0.0940 0.3279
C40 C 1.1226(8) 0.2209(7) 0.3689(3)
H29 H 1.1228 0.2133 0.3304
C41 C 0.4362(8) 0.5362(9) 0.1585(4)
H30 H 0.3525 0.6133 0.1542
H31 H 0.4309 0.4675 0.1857
H32 H 0.4604 0.5092 0.1218
C42 C 0.4187(7) 0.0737(7) 0.0870(3)
H33 H 0.3730 0.0914 0.0524
C43 C 1.2078(10) 0.2556(10) 0.3886(4)
H34 H 1.2670 0.2689 0.3637
C44 C 1.5760(8) -0.5729(10) 0.3413(4)
H35 H 1.6589 -0.6505 0.3431
H36 H 1.5533 -0.5548 0.3795
H37 H 1.5823 -0.5005 0.3177
C45 C 1.2031(13) 0.4386(12) 0.0950(7)
H38 H 1.2782 0.4371 0.1115
H39 H 1.1482 0.5244 0.0735
H40 H 1.2316 0.3761 0.0696
C46 C 1.1787(12) 0.3769(11) 0.2014(7)
H41 H 1.2569 0.3865 0.2008
H42 H 1.1989 0.2891 0.2190
H43 H 1.1141 0.4372 0.2231
C47 C 0.7966(12) -0.4518(12) 0.3914(7)
H44 H 0.7295 -0.4586 0.3721
H45 H 0.7570 -0.3796 0.4116
H46 H 0.8461 -0.5312 0.4184
C48 C 0.9354(6) 0.1874(6) 0.5659(2)
O15 O 1.0268(5) 0.1841(5) 0.59349(18)
O16 O 0.8344(5) 0.1932(5) 0.59132(18)
La1A La 1.07240(3) -0.16521(3) -0.192997(12)
La1_2 La -0.07240(3) 0.16521(3) 0.192997(12)
La1_3 La 1.92760(3) 0.16521(3) 0.192997(12)
La1A_2 La 1.07240(3) -0.16521(3) 0.807003(12)
La2_2 La 0.08841(3) -0.19007(3) 0.309706(12)
La2A La 0.91159(3) 0.19007(3) -0.309706(12)
La2A_2 La 0.91159(3) 0.19007(3) 0.690294(12)
La2_3 La 2.08841(3) -0.19007(3) 0.309706(12)
O1A O 0.9623(4) -0.1617(4) -0.09459(17)
O2A O 1.0346(4) -0.0500(4) 0.69297(16)
O2A_2 O 1.0346(4) -0.0500(4) -0.30703(16)
O2_2 O -0.0346(4) 0.0500(4) 0.30703(16)
C1A C 1.0566(6) -0.1805(6) 0.4978(2)
C2A C 1.0597(6) -0.1773(5) -0.0032(2)
O3_2 O 1.2509(4) -0.1083(4) 0.28119(18)
O4_2 O 1.8589(4) -0.1201(4) 0.27589(17)
O4_3 O -0.1411(4) -0.1201(4) 0.27589(17)
O5A O 1.0462(5) -0.3712(4) -0.1663(2)
O6_2 O 1.7710(4) 0.0795(4) 0.22042(19)
O6A O 1.2290(4) -0.0795(4) -0.22042(19)
C3A C 0.8045(8) -0.2767(8) 0.0532(3)
H1A H 0.7438 -0.2974 0.0396
O7_2 O 1.1591(4) 0.0902(4) 0.22432(18)
O7A O 0.8409(4) -0.0902(4) -0.22432(18)
O8_2 O 0.0598(5) -0.3946(5) 0.3343(3)
O9A O 1.1564(4) -0.1679(5) -0.09384(18)
O10A O 1.1097(5) -0.2616(4) 0.71302(17)
O10A_2 O 1.1097(5) -0.2616(4) -0.28698(17)
O11_2 O 0.3148(4) -0.3917(4) 0.3225(2)
O12A O 1.2996(4) -0.3611(4) -0.1803(2)
N1_2 N 0.4742(6) -0.5926(6) 0.3162(3)
C4A C 0.8146(8) -0.2789(8) 0.1126(3)
H2A H 0.7608 -0.3005 0.1380
C5A C 0.9760(9) -0.3968(7) -0.1314(4)
H3A H 1.0007 -0.4126 -0.0926
C6A C 0.8812(7) -0.2450(7) 0.0153(3)
H4A H 0.8729 -0.2449 -0.0237
C7A C 0.7927(10) -0.2716(10) 0.5536(4)
H5A H 0.7364 -0.2981 0.5403
C8A C 0.8795(9) -0.2469(8) 0.5167(3)
H6A H 0.8797 -0.2578 0.4786
C9_2 C 1.6079(6) 0.0482(7) 0.1361(3)
H7_2 H 1.6869 0.0515 0.1348
N2A N 1.4649(6) -0.5648(6) -0.1796(3)
C10_2 C 1.4671(6) -0.0609(6) 0.2949(3)
H8_2 H 1.4384 -0.0894 0.3295
C11_2 C 1.2551(5) -0.0110(6) 0.2507(3)
N3_2 N -0.1154(8) -0.4304(7) 0.3485(4)
C12A C 0.9837(6) -0.2144(5) 0.0951(2)
C13_2 C 1.5603(5) 0.0180(5) 0.1904(2)
C14A C 0.9679(6) -0.1957(6) 0.5937(2)
C15A C 1.1434(6) -0.1439(6) 0.0195(2)
H9A H 1.1974 -0.1208 -0.0051
C16A C 1.0573(6) -0.1595(5) 0.6140(2)
C17_2 C 0.3531(7) -0.4996(6) 0.3099(3)
H10_2 H 0.2912 -0.5165 0.2947
C18_2 C 1.3881(5) -0.0166(5) 0.2452(2)
C19A C 1.0745(6) -0.1795(5) 0.1162(2)
N4A N 0.8726(8) -0.4043(6) -0.1422(4)
C20_2 C 1.6357(5) -0.0225(5) 0.2435(2)
C21A C 0.9743(6) -0.2121(6) 0.0345(2)
C22A C 1.1510(6) -0.1432(6) 0.0786(2)
H11A H 1.2079 -0.1180 0.0923
C23A C 1.1404(7) -0.1440(6) 0.5197(3)
H12A H 1.1981 -0.1263 0.4954
C24A C 1.5055(11) -0.6961(9) -0.1906(6)
H13A H 1.5980 -0.7493 -0.1820
H14A H 1.4585 -0.7342 -0.1666
H15A H 1.4868 -0.6911 -0.2305
C25A C 1.1398(6) -0.1333(6) 0.5770(2)
H16A H 1.1966 -0.1078 0.5906
C26A C 1.3414(7) -0.4723(7) -0.1887(3)
H17A H 1.2819 -0.4940 -0.2026
C27_2 C 0.5140(10) -0.7195(8) 0.3001(4)
H18_2 H 0.6065 -0.7740 0.3081
H19_2 H 0.4947 -0.7073 0.2596
H20_2 H 0.4670 -0.7605 0.3219
C28_2 C 1.4357(5) 0.0201(5) 0.1916(2)
C29_2 C 1.7663(5) -0.0208(6) 0.2467(2)
C30A C 0.9666(6) -0.2063(6) 0.5340(2)
C31_2 C 1.5399(7) 0.0725(8) 0.0860(3)
H21_2 H 1.5746 0.0885 0.0508
C32_2 C -0.1404(15) -0.4214(13) 0.2871(7)
H22_2 H -0.2161 -0.4328 0.2824
H23_2 H -0.0656 -0.4884 0.2723
H24_2 H -0.1557 -0.3372 0.2662
C33A C 1.0669(6) -0.1564(5) 0.6775(2)
C34_2 C 1.3662(6) 0.0495(6) 0.1374(3)
H25_2 H 1.2846 0.0518 0.1370
C35A C 0.9033(7) -0.2493(6) 0.1327(3)
H26A H 0.9108 -0.2523 0.1721
C36_2 C -0.0162(9) -0.4172(8) 0.3664(4)
H27_2 H -0.0035 -0.4256 0.4059
C37A C 1.0587(6) -0.1693(5) -0.0677(2)
O13A O 1.0533(4) -0.0766(4) 0.19622(15)
O13A_2 O 0.0533(4) -0.0766(4) 0.19622(15)
O14A O 1.1306(5) -0.2887(4) 0.21398(17)
O14A_2 O 0.1306(5) -0.2887(4) 0.21398(17)
C38A C 1.0868(5) -0.1829(5) 0.1800(2)
C39_2 C 1.5900(6) -0.0637(6) 0.2939(3)
H28_2 H 1.6414 -0.0940 0.3279
C40A C 0.8774(8) -0.2209(7) 0.6311(3)
H29A H 0.8772 -0.2133 0.6696
C41A C 1.5638(8) -0.5362(9) -0.1585(4)
H30A H 1.6475 -0.6133 -0.1542
H31A H 1.5691 -0.4675 -0.1857
H32A H 1.5396 -0.5092 -0.1218
C42_2 C 1.4187(7) 0.0737(7) 0.0870(3)
H33_2 H 1.3730 0.0914 0.0524
C43A C 0.7922(10) -0.2556(10) 0.6114(4)
H34A H 0.7330 -0.2689 0.6363
C44_2 C 0.5760(8) -0.5729(10) 0.3413(4)
H35_2 H 0.6589 -0.6505 0.3431
H36_2 H 0.5533 -0.5548 0.3795
H37_2 H 0.5823 -0.5005 0.3177
C45A C 0.7969(13) -0.4386(12) -0.0950(7)
H38A H 0.7218 -0.4371 -0.1115
H39A H 0.8518 -0.5244 -0.0735
H40A H 0.7684 -0.3761 -0.0696
C46A C 0.8213(12) -0.3769(11) -0.2014(7)
H41A H 0.7431 -0.3865 -0.2008
H42A H 0.8011 -0.2891 -0.2190
H43A H 0.8859 -0.4372 -0.2231
C47_2 C -0.2034(12) -0.4518(12) 0.3914(7)
H44_2 H -0.2705 -0.4586 0.3721
H45_2 H -0.2430 -0.3796 0.4116
H46_2 H -0.1539 -0.5312 0.4184
C48A C 1.0646(6) -0.1874(6) 0.4341(2)
O15A O 0.9732(5) -0.1841(5) 0.40651(18)
O15A_2 O -0.0268(5) -0.1841(5) 0.40651(18)
O16A O 1.1656(5) -0.1932(5) 0.40868(18)
O16A_2 O 0.1656(5) -0.1932(5) 0.40868(18)
O17 O 0.5000 0.5000 0.0000
O18 O 1.5000 0.0000 0.5000
loop_
_geom_bond_atom_site_label_1
_geom_bond_atom_site_label_2
_geom_bond_site_symmetry_1
_geom_bond_site_symmetry_2
La1 O1 1_555 1_555
La2 O2 1_555 1_555
O1 C37 1_555 1_555
O2 La1 1_555 1_555
C1 C23 1_555 1_555
C2 C15 1_555 1_555
O3 C11 1_555 1_555
O4 La2 1_555 1_555
O5 La1 1_555 1_555
O6 La1 1_555 1_555
C3 H1 1_555 1_555
O7 C11 1_555 1_555
O8 La2 1_555 1_555
O9 La1 1_555 1_555
O10 La1 1_555 1_555
O11 La2 1_555 1_555
O12 La1 1_555 1_555
N1 C17 1_555 1_555
C4 C3 1_555 1_555
H2 C4 1_555 1_555
C5 O5 1_555 1_555
H3 C5 1_555 1_555
C6 C3 1_555 1_555
H4 C6 1_555 1_555
C7 H5 1_555 1_555
C8 C7 1_555 1_555
H6 C8 1_555 1_555
C9 H7 1_555 1_555
N2 C24 1_555 1_555
C10 H8 1_555 1_555
C11 C18 1_555 1_555
N3 C32 1_555 1_555
C12 C19 1_555 1_555
C13 C9 1_555 1_555
C14 C16 1_555 1_555
C15 H9 1_555 1_555
C16 C25 1_555 1_555
C17 O11 1_555 1_555
H10 C17 1_555 1_555
C18 C10 1_555 1_555
C19 C22 1_555 1_555
N4 C5 1_555 1_555
C20 C13 1_555 1_555
C21 C2 1_555 1_555
C22 C15 1_555 1_555
H11 C22 1_555 1_555
C23 H12 1_555 1_555
C24 H13 1_555 1_555
H14 C24 1_555 1_555
H15 C24 1_555 1_555
C25 C23 1_555 1_555
H16 C25 1_555 1_555
C26 O12 1_555 1_555
H17 C26 1_555 1_555
C27 N1 1_555 1_555
H18 C27 1_555 1_555
H19 C27 1_555 1_555
H20 C27 1_555 1_555
C28 C13 1_555 1_555
C29 O4 1_555 1_555
C30 C1 1_555 1_555
C31 C9 1_555 1_555
H21 C31 1_555 1_555
C32 H22 1_555 1_555
H23 C32 1_555 1_555
H24 C32 1_555 1_555
C33 O2 1_555 1_555
C34 C28 1_555 1_555
H25 C34 1_555 1_555
C35 C4 1_555 1_555
H26 C35 1_555 1_555
C36 O8 1_555 1_555
H27 C36 1_555 1_555
C37 C2 1_555 1_555
O13 C38 1_555 1_555
O14 C38 1_555 1_555
C38 C19 1_555 1_555
C39 C10 1_555 1_555
H28 C39 1_555 1_555
C40 C14 1_555 1_555
H29 C40 1_555 1_555
C41 N2 1_555 1_555
H30 C41 1_555 1_555
H31 C41 1_555 1_555
H32 C41 1_555 1_555
C42 C31 1_555 1_555
H33 C42 1_555 1_555
C43 C7 1_555 1_555
H34 C43 1_555 1_555
C44 N1 1_555 1_555
H35 C44 1_555 1_555
H36 C44 1_555 1_555
H37 C44 1_555 1_555
C45 N4 1_555 1_555
H38 C45 1_555 1_555
H39 C45 1_555 1_555
H40 C45 1_555 1_555
C46 N4 1_555 1_555
H41 C46 1_555 1_555
H42 C46 1_555 1_555
H43 C46 1_555 1_555
C47 N3 1_555 1_555
H44 C47 1_555 1_555
H45 C47 1_555 1_555
H46 C47 1_555 1_555
C48 C1 1_555 1_555
O15 C48 1_555 1_555
O16 C48 1_555 1_555
La1A O13 1_555 1_555
La1_2 O7 1_555 1_555
La1_3 O6_2 1_555 1_555
La1A_2 O2A 1_555 1_555
La2_2 O3 1_555 1_555
La2A O13 1_555 1_555
La2A_2 O15 1_555 1_555
La2_3 O4_2 1_555 1_555
O1A La1A 1_555 1_555
O2A La2A_2 1_555 1_555
O2A_2 La1A 1_555 1_555
O2_2 La1_2 1_555 1_555
C1A C23A 1_555 1_555
C2A C15A 1_555 1_555
O3_2 La2 1_555 1_555
O4_2 C29_2 1_555 1_555
O4_3 La2_2 1_555 1_555
O5A La1A 1_555 1_555
O6_2 C29_2 1_555 1_555
O6A La1A 1_555 1_555
C3A H1A 1_555 1_555
O7_2 La1 1_555 1_555
O7A La1A 1_555 1_555
O8_2 La2_2 1_555 1_555
O9A La1A 1_555 1_555
O10A La1A_2 1_555 1_555
O10A_2 La1A 1_555 1_555
O11_2 La2_2 1_555 1_555
O12A La1A 1_555 1_555
N1_2 C17_2 1_555 1_555
C4A C3A 1_555 1_555
H2A C4A 1_555 1_555
C5A O5A 1_555 1_555
H3A C5A 1_555 1_555
C6A C3A 1_555 1_555
H4A C6A 1_555 1_555
C7A H5A 1_555 1_555
C8A C7A 1_555 1_555
H6A C8A 1_555 1_555
C9_2 H7_2 1_555 1_555
N2A C24A 1_555 1_555
C10_2 H8_2 1_555 1_555
C11_2 O3_2 1_555 1_555
N3_2 C32_2 1_555 1_555
C12A C19A 1_555 1_555
C13_2 C9_2 1_555 1_555
C14A C16A 1_555 1_555
C15A H9A 1_555 1_555
C16A C25A 1_555 1_555
C17_2 O11_2 1_555 1_555
H10_2 C17_2 1_555 1_555
C18_2 C10_2 1_555 1_555
C19A C22A 1_555 1_555
N4A C5A 1_555 1_555
C20_2 C13_2 1_555 1_555
C21A C2A 1_555 1_555
C22A C15A 1_555 1_555
H11A C22A 1_555 1_555
C23A H12A 1_555 1_555
C24A H13A 1_555 1_555
H14A C24A 1_555 1_555
H15A C24A 1_555 1_555
C25A C23A 1_555 1_555
H16A C25A 1_555 1_555
C26A O12A 1_555 1_555
H17A C26A 1_555 1_555
C27_2 N1_2 1_555 1_555
H18_2 C27_2 1_555 1_555
H19_2 C27_2 1_555 1_555
H20_2 C27_2 1_555 1_555
C28_2 C13_2 1_555 1_555
C29_2 C20_2 1_555 1_555
C30A C1A 1_555 1_555
C31_2 C9_2 1_555 1_555
H21_2 C31_2 1_555 1_555
C32_2 H22_2 1_555 1_555
H23_2 C32_2 1_555 1_555
H24_2 C32_2 1_555 1_555
C33A O2A 1_555 1_555
C34_2 C28_2 1_555 1_555
H25_2 C34_2 1_555 1_555
C35A C4A 1_555 1_555
H26A C35A 1_555 1_555
C36_2 O8_2 1_555 1_555
H27_2 C36_2 1_555 1_555
C37A O1A 1_555 1_555
O13A La1 1_555 1_555
O13A_2 La1_2 1_555 1_555
O14A La2 1_555 1_555
O14A_2 La2_2 1_555 1_555
C38A C19A 1_555 1_555
C39_2 C10_2 1_555 1_555
H28_2 C39_2 1_555 1_555
C40A C14A 1_555 1_555
H29A C40A 1_555 1_555
C41A N2A 1_555 1_555
H30A C41A 1_555 1_555
H31A C41A 1_555 1_555
H32A C41A 1_555 1_555
C42_2 C31_2 1_555 1_555
H33_2 C42_2 1_555 1_555
C43A C7A 1_555 1_555
H34A C43A 1_555 1_555
C44_2 N1_2 1_555 1_555
H35_2 C44_2 1_555 1_555
H36_2 C44_2 1_555 1_555
H37_2 C44_2 1_555 1_555
C45A N4A 1_555 1_555
H38A C45A 1_555 1_555
H39A C45A 1_555 1_555
H40A C45A 1_555 1_555
C46A N4A 1_555 1_555
H41A C46A 1_555 1_555
H42A C46A 1_555 1_555
H43A C46A 1_555 1_555
C47_2 N3_2 1_555 1_555
H44_2 C47_2 1_555 1_555
H45_2 C47_2 1_555 1_555
H46_2 C47_2 1_555 1_555
C48A C1A 1_555 1_555
O15A La2 1_555 1_555
O15A_2 La2_2 1_555 1_555
O16A La2 1_555 1_555
O16A_2 La2_2 1_555 1_555
La2 O13A 1_555 1_555
O6 C29 1_555 1_555
O9 C37 1_555 1_555
O10 C33 1_555 1_555
C6 C21 1_555 1_555
C8 C30 1_555 1_555
N2 C26 1_555 1_555
N3 C36 1_555 1_555
C12 C21 1_555 1_555
C12 C35 1_555 1_555
C14 C30 1_555 1_555
C16 C33 1_555 1_555
C18 C28 1_555 1_555
C20 C29 1_555 1_555
C20 C39 1_555 1_555
C34 C42 1_555 1_555
O14 La2A 1_555 1_555
C40 C43 1_555 1_555
O16 La2A_2 1_555 1_555
La2_2 O2_2 1_555 1_555
La2_2 O13A_2 1_555 1_555
La2A O2A_2 1_555 1_555
C2A C37A 1_555 1_555
O7_2 C11_2 1_555 1_555
O9A C37A 1_555 1_555
O10A C33A 1_555 1_555
C6A C21A 1_555 1_555
C8A C30A 1_555 1_555
N2A C26A 1_555 1_555
C11_2 C18_2 1_555 1_555
N3_2 C36_2 1_555 1_555
C12A C21A 1_555 1_555
C12A C35A 1_555 1_555
C14A C30A 1_555 1_555
C16A C33A 1_555 1_555
C18_2 C28_2 1_555 1_555
C20_2 C39_2 1_555 1_555
C34_2 C42_2 1_555 1_555
O13A C38A 1_555 1_555
O14A C38A 1_555 1_555
C40A C43A 1_555 1_555
C48A O15A 1_555 1_555
C48A O16A 1_555 1_555

#END
