
#######################################################################
#
#                 Cambridge Crystallographic Data Centre
#                                CCDC 
#
#######################################################################
#
# If this CIF has been generated from an entry in the Cambridge 
# Structural Database, then it will include bibliographic, chemical, 
# crystal, experimental, refinement or atomic coordinate data resulting 
# from the CCDC's data processing and validation procedures.
#
#######################################################################

data_SEHXAF
_symmetry_cell_setting           triclinic
_symmetry_space_group_name_H-M   'P -1'
_symmetry_Int_Tables_number      2
_space_group_name_Hall           '-P 1'
loop_
_symmetry_equiv_pos_site_id
_symmetry_equiv_pos_as_xyz
1 x,y,z
2 -x,-y,-z
_cell_length_a                   11.465(2)
_cell_length_b                   11.704(2)
_cell_length_c                   23.342(5)
_cell_angle_alpha                79.08(3)
_cell_angle_beta                 87.29(3)
_cell_angle_gamma                62.07(3)
_cell_volume                     2714.13
loop_
_atom_site_label
_atom_site_type_symbol
_atom_site_fract_x
_atom_site_fract_y
_atom_site_fract_z
C1 C -0.2568(7) 0.5132(7) 0.2501(3)
C2 C -0.3902(7) 0.5193(7) 0.2549(3)
C3 C -0.4683(8) 0.5622(8) 0.2043(3)
H1 H -0.4384 0.5893 0.1693
C4 C -0.5934(8) 0.5654(8) 0.2049(4)
H2 H -0.6450 0.5960 0.1704
C5 C -0.6397(7) 0.5240(7) 0.2558(3)
C6 C -0.5616(7) 0.4822(7) 0.3091(3)
C7 C -0.4375(7) 0.4816(7) 0.3090(3)
C8 C -0.3668(8) 0.4506(8) 0.3628(4)
H3 H -0.2846 0.4482 0.3631
C9 C -0.4199(10) 0.4241(11) 0.4143(4)
H4 H -0.3740 0.4056 0.4495
C10 C -0.5419(11) 0.4246(11) 0.4146(4)
H5 H -0.5767 0.4074 0.4501
C11 C -0.6099(8) 0.4496(9) 0.3645(4)
H6 H -0.6892 0.4458 0.3656
C12 C -0.7683(8) 0.5211(8) 0.2527(3)
C13 C 0.0584(8) 0.3324(7) 0.4299(3)
C14 C 0.0593(8) 0.3229(7) 0.4954(3)
C15 C 0.1460(8) 0.3565(8) 0.5176(3)
H7 H 0.2004 0.3791 0.4924
C16 C 0.1542(8) 0.3573(7) 0.5779(3)
H8 H 0.2125 0.3815 0.5918
C17 C 0.0770(8) 0.3227(7) 0.6154(3)
C18 C 0.0887(8) 0.3197(7) 0.6798(3)
C19 C -0.0156(8) 0.2864(7) 0.5946(3)
C20 C -0.0956(9) 0.2514(8) 0.6331(4)
H9 H -0.0877 0.2490 0.6728
C21 C -0.1862(11) 0.2203(10) 0.6128(4)
H10 H -0.2398 0.1981 0.6386
C22 C -0.1969(11) 0.2223(11) 0.5532(4)
H11 H -0.2584 0.2020 0.5394
C23 C -0.1171(9) 0.2541(9) 0.5149(4)
H12 H -0.1241 0.2526 0.4755
C24 C -0.0253(11) 0.1061(9) 0.3676(5)
H13 H 0.0005 0.0897 0.4068
C25 C -0.2011(14) 0.0614(15) 0.4028(8)
H14 H -0.2758 0.0601 0.3867
H15 H -0.2309 0.1245 0.4282
H16 H -0.1434 -0.0244 0.4246
C26 C -0.1859(18) 0.1268(15) 0.2983(8)
H17 H -0.2632 0.1145 0.2997
H18 H -0.1217 0.0690 0.2753
H19 H -0.2096 0.2165 0.2811
C27 C 0.3367(9) 0.0331(9) 0.3122(4)
H20 H 0.2754 0.0119 0.2989
C28 C 0.5024(15) -0.1893(12) 0.3098(8)
H21 H 0.5958 -0.2421 0.3181
H22 H 0.4823 -0.1842 0.2696
H23 H 0.4563 -0.2285 0.3345
C29 C 0.5652(12) -0.0349(12) 0.3421(6)
H24 H 0.6493 -0.1126 0.3454
H25 H 0.5428 -0.0109 0.3798
H26 H 0.5698 0.0359 0.3154
C30 C 0.142(2) 0.9221(14) 0.2109(8)
H27 H 0.2171 0.9370 0.2135
H28 H 0.1623 0.8361 0.2325
H29 H 0.0676 0.9874 0.2269
C31 C 0.1955(15) 0.9596(17) 0.1105(9)
H30 H 0.2604 0.9679 0.1314
H31 H 0.1437 1.0408 0.0840
H32 H 0.2390 0.8897 0.0889
C32 C 0.0147(13) 0.9146(10) 0.1334(5)
H33 H 0.0048 0.9186 0.0937
C33 C -0.3525(8) 0.9956(8) 0.1891(4)
H34 H -0.2893 1.0121 0.2042
C34 C -0.5812(11) 1.0665(13) 0.1604(6)
H35 H -0.6651 1.1439 0.1588
H36 H -0.5851 0.9936 0.1858
H37 H -0.5610 1.0468 0.1219
C35 C -0.5136(14) 1.2145(10) 0.2000(6)
H38 H -0.6070 1.2696 0.1926
H39 H -0.4670 1.2566 0.1777
H40 H -0.4922 1.2005 0.2409
C36 C -0.1248(12) 0.2583(12) 0.0145(4)
H41 H -0.1258 0.2490 -0.0241
C37 C -0.2122(13) 0.2342(15) 0.0525(6)
H42 H -0.2696 0.2089 0.0387
C38 C -0.2147(12) 0.2472(14) 0.1109(5)
H43 H -0.2735 0.2318 0.1360
C39 C -0.1246(12) 0.2848(11) 0.1307(4)
H44 H -0.1236 0.2934 0.1695
C40 C -0.0373(9) 0.3092(8) 0.0924(3)
C41 C -0.0353(9) 0.2965(9) 0.0332(4)
C42 C 0.0590(8) 0.3188(7) -0.0037(3)
C43 C 0.0678(8) 0.3130(7) -0.0685(3)
C44 C 0.1434(8) 0.3540(8) 0.0186(3)
H45 H 0.2033 0.3692 -0.0058
C45 C 0.1418(8) 0.3677(8) 0.0775(3)
H46 H 0.1992 0.3930 0.0915
C46 C 0.0568(8) 0.3440(7) 0.1133(3)
C47 C 0.0646(8) 0.3469(7) 0.1777(3)
C48 C -0.0245(8) 0.2889(7) 0.5336(3)
N1 N 0.4622(8) -0.0614(8) 0.3202(4)
N2 N -0.4755(8) 1.0900(8) 0.1834(4)
N3 N 0.1116(10) 0.9307(8) 0.1508(5)
N4 N -0.1311(10) 0.0974(9) 0.3564(5)
O1 O -0.0650(7) 0.8944(6) 0.1658(3)
O2 O -0.3149(6) 0.8877(6) 0.1761(3)
O3 O 0.2962(6) 0.1431(6) 0.3208(3)
O4 O 0.0436(7) 0.1339(6) 0.3314(3)
O5 O -0.2521(6) 0.6126(5) 0.2195(2)
O6 O -0.1586(5) 0.4102(5) 0.2760(2)
O7 O -0.0278(6) 0.3178(7) -0.0965(2)
O8 O 0.1668(7) 0.3088(7) -0.0936(2)
O9 O 0.1554(6) 0.3349(7) 0.4032(2)
O10 O -0.0377(6) 0.3387(6) 0.4029(2)
O11 O -0.7735(6) 0.4177(5) 0.2785(2)
O12 O -0.8647(5) 0.6221(5) 0.2240(2)
O13 O 0.0283(5) 0.4546(5) 0.1934(2)
O14 O 0.1106(7) 0.2392(5) 0.2137(2)
O15 O 0.1351(6) 0.2124(5) 0.7154(2)
O16 O 0.0515(5) 0.4268(5) 0.6967(2)
Nd1 Nd 0.07014(3) 0.33688(3) 0.305978(14)
Nd2 Nd -0.09064(4) 0.69013(3) 0.191045(14)
C1_2 C 0.7432(7) 0.5132(7) 0.2501(3)
C2_2 C 0.6098(7) 0.5193(7) 0.2549(3)
C3_2 C 0.5317(8) 0.5622(8) 0.2043(3)
H1_2 H 0.5616 0.5893 0.1693
C4_2 C 0.4066(8) 0.5654(8) 0.2049(4)
H2_2 H 0.3550 0.5960 0.1704
C5_2 C 0.3603(7) 0.5240(7) 0.2558(3)
C6_2 C 0.4384(7) 0.4822(7) 0.3091(3)
C7_2 C 0.5625(7) 0.4816(7) 0.3090(3)
C8_2 C 0.6332(8) 0.4506(8) 0.3628(4)
H3_2 H 0.7154 0.4482 0.3631
C9_2 C 0.5801(10) 0.4241(11) 0.4143(4)
H4_2 H 0.6260 0.4056 0.4495
C10_2 C 0.4581(11) 0.4246(11) 0.4146(4)
H5_2 H 0.4233 0.4074 0.4501
C11_2 C 0.3901(8) 0.4496(9) 0.3645(4)
H6_2 H 0.3108 0.4458 0.3656
C12_2 C 0.2317(8) 0.5211(8) 0.2527(3)
C13A C -0.0584(8) 0.6676(7) 0.5701(3)
C14A C -0.0593(8) 0.6771(7) 0.5046(3)
C15A C -0.1460(8) 0.6435(8) 0.4824(3)
H7A H -0.2004 0.6209 0.5076
C16A C -0.1542(8) 0.6427(7) 0.4221(3)
H8A H -0.2125 0.6185 0.4082
C17A C -0.0770(8) 0.6773(7) 0.3846(3)
C18A C -0.0887(8) 0.6803(7) 0.3202(3)
C19A C 0.0156(8) 0.7136(7) 0.4054(3)
C20A C 0.0956(9) 0.7486(8) 0.3669(4)
H9A H 0.0877 0.7510 0.3272
C21A C 0.1862(11) 0.7797(10) 0.3872(4)
H10A H 0.2398 0.8019 0.3614
C22A C 0.1969(11) 0.7777(11) 0.4468(4)
H11A H 0.2584 0.7980 0.4606
C23A C 0.1171(9) 0.7459(9) 0.4851(4)
H12A H 0.1241 0.7474 0.5245
C24_2 C 0.9747(11) 0.1061(9) 0.3676(5)
H13_2 H 1.0005 0.0897 0.4068
C25_2 C 0.7989(14) 0.0614(15) 0.4028(8)
H14_2 H 0.7242 0.0601 0.3867
H15_2 H 0.7691 0.1245 0.4282
H16_2 H 0.8566 -0.0244 0.4246
C26_2 C 0.8141(18) 0.1268(15) 0.2983(8)
H17_2 H 0.7368 0.1145 0.2997
H18_2 H 0.8783 0.0690 0.2753
H19_2 H 0.7904 0.2165 0.2811
C27_2 C 1.3367(9) 0.0331(9) 0.3122(4)
H20_2 H 1.2754 0.0119 0.2989
C28_2 C 1.5024(15) -0.1893(12) 0.3098(8)
H21_2 H 1.5958 -0.2421 0.3181
H22_2 H 1.4823 -0.1842 0.2696
H23_2 H 1.4563 -0.2285 0.3345
C29_2 C 1.5652(12) -0.0349(12) 0.3421(6)
H24_2 H 1.6493 -0.1126 0.3454
H25_2 H 1.5428 -0.0109 0.3798
H26_2 H 1.5698 0.0359 0.3154
C30_2 C 1.142(2) 0.9221(14) 0.2109(8)
H27_2 H 1.2171 0.9370 0.2135
H28_2 H 1.1623 0.8361 0.2325
H29_2 H 1.0676 0.9874 0.2269
C31_2 C 1.1955(15) 0.9596(17) 0.1105(9)
H30_2 H 1.2604 0.9679 0.1314
H31_2 H 1.1437 1.0408 0.0840
H32_2 H 1.2390 0.8897 0.0889
C32_2 C 1.0147(13) 0.9146(10) 0.1334(5)
H33_2 H 1.0048 0.9186 0.0937
C33_2 C 0.6475(8) 0.9956(8) 0.1891(4)
H34_2 H 0.7107 1.0121 0.2042
C34_2 C 0.4188(11) 1.0665(13) 0.1604(6)
H35_2 H 0.3349 1.1439 0.1588
H36_2 H 0.4149 0.9936 0.1858
H37_2 H 0.4390 1.0468 0.1219
C35_2 C 0.4864(14) 1.2145(10) 0.2000(6)
H38_2 H 0.3930 1.2696 0.1926
H39_2 H 0.5330 1.2566 0.1777
H40_2 H 0.5078 1.2005 0.2409
C36A C 0.1248(12) 0.7417(12) -0.0145(4)
H41A H 0.1258 0.7510 0.0241
C37A C 0.2122(13) 0.7658(15) -0.0525(6)
H42A H 0.2696 0.7911 -0.0387
C38A C 0.2147(12) 0.7528(14) -0.1109(5)
H43A H 0.2735 0.7682 -0.1360
C39A C 0.1246(12) 0.7152(11) -0.1307(4)
H44A H 0.1236 0.7066 -0.1695
C40A C 0.0373(9) 0.6908(8) -0.0924(3)
C41A C 0.0353(9) 0.7035(9) -0.0332(4)
C42A C -0.0590(8) 0.6812(7) 0.0037(3)
C43A C -0.0678(8) 0.6870(7) 0.0685(3)
C44A C -0.1434(8) 0.6460(8) -0.0186(3)
H45A H -0.2033 0.6308 0.0058
C45A C -0.1418(8) 0.6323(8) -0.0775(3)
H46A H -0.1992 0.6070 -0.0915
C46A C -0.0568(8) 0.6560(7) -0.1133(3)
C47A C -0.0646(8) 0.6531(7) -0.1777(3)
C48A C 0.0245(8) 0.7111(7) 0.4664(3)
N1_2 N 1.4622(8) -0.0614(8) 0.3202(4)
N2_2 N 0.5245(8) 1.0900(8) 0.1834(4)
N3_2 N 1.1116(10) 0.9307(8) 0.1508(5)
N4_2 N 0.8689(10) 0.0974(9) 0.3564(5)
O1_2 O 0.9350(7) 0.8944(6) 0.1658(3)
O2_2 O 0.6851(6) 0.8877(6) 0.1761(3)
O3_2 O 1.2962(6) 0.1431(6) 0.3208(3)
O4_2 O 1.0436(7) 0.1339(6) 0.3314(3)
O5_2 O 0.7479(6) 0.6126(5) 0.2195(2)
O6_2 O 0.8414(5) 0.4102(5) 0.2760(2)
O7A O 0.0278(6) 0.6822(7) 0.0965(2)
O7A_2 O 1.0278(6) 0.6822(7) 0.0965(2)
O8A O -0.1668(7) 0.6912(7) 0.0936(2)
O8A_2 O 0.8332(7) 0.6912(7) 0.0936(2)
O9A O -0.1554(6) 0.6651(7) 0.5968(2)
O9_2 O 1.1554(6) 0.3349(7) 0.4032(2)
O10A O 0.0377(6) 0.6613(6) 0.5971(2)
O10_2 O 0.9623(6) 0.3387(6) 0.4029(2)
O11_2 O 0.2265(6) 0.4177(5) 0.2785(2)
O11_3 O 1.2265(6) 0.4177(5) 0.2785(2)
O12_2 O 0.1353(5) 0.6221(5) 0.2240(2)
O12_3 O 1.1353(5) 0.6221(5) 0.2240(2)
O13A O -0.0283(5) 0.5454(5) -0.1934(2)
O13_2 O 1.0283(5) 0.4546(5) 0.1934(2)
O14A O -0.1106(7) 0.7608(5) -0.2137(2)
O14_2 O 1.1106(7) 0.2392(5) 0.2137(2)
O15A O -0.1351(6) 0.7876(5) 0.2846(2)
O15A_2 O 0.8649(6) 0.7876(5) 0.2846(2)
O16A O -0.0515(5) 0.5732(5) 0.3033(2)
O16A_2 O 0.9485(5) 0.5732(5) 0.3033(2)
Nd1_2 Nd 1.07014(3) 0.33688(3) 0.305978(14)
Nd1_3 Nd -0.92986(3) 0.33688(3) 0.305978(14)
Nd1A Nd -0.07014(3) 0.66312(3) 0.694022(14)
Nd1A_2 Nd -0.07014(3) 0.66312(3) -0.305978(14)
Nd2_2 Nd 0.90936(4) 0.69013(3) 0.191045(14)
Nd2A Nd 0.09064(4) 0.30987(3) -0.191045(14)
Nd2_3 Nd -1.09064(4) 0.69013(3) 0.191045(14)
Nd2A_2 Nd 0.09064(4) 0.30987(3) 0.808955(14)
O18 O 0.5000 0.0000 0.5000
O19 O 0.5000 0.5000 0.0000
O17? O -0.564(3) 0.988(3) -0.0096(15)
loop_
_geom_bond_atom_site_label_1
_geom_bond_atom_site_label_2
_geom_bond_site_symmetry_1
_geom_bond_site_symmetry_2
C1 C2 1_555 1_555
C2 C3 1_555 1_555
C3 H1 1_555 1_555
C4 C3 1_555 1_555
H2 C4 1_555 1_555
C5 C4 1_555 1_555
C6 C5 1_555 1_555
C7 C2 1_555 1_555
C8 C7 1_555 1_555
H3 C8 1_555 1_555
C9 C8 1_555 1_555
H4 C9 1_555 1_555
C10 C9 1_555 1_555
H5 C10 1_555 1_555
C11 C6 1_555 1_555
H6 C11 1_555 1_555
C12 C5 1_555 1_555
C13 C14 1_555 1_555
C14 C15 1_555 1_555
C15 H7 1_555 1_555
C16 C15 1_555 1_555
H8 C16 1_555 1_555
C17 C16 1_555 1_555
C18 C17 1_555 1_555
C19 C17 1_555 1_555
C20 C19 1_555 1_555
H9 C20 1_555 1_555
C21 C20 1_555 1_555
H10 C21 1_555 1_555
C22 C21 1_555 1_555
H11 C22 1_555 1_555
C23 C22 1_555 1_555
H12 C23 1_555 1_555
C24 H13 1_555 1_555
C25 H14 1_555 1_555
H15 C25 1_555 1_555
H16 C25 1_555 1_555
C26 H17 1_555 1_555
H18 C26 1_555 1_555
H19 C26 1_555 1_555
C27 H20 1_555 1_555
C28 H21 1_555 1_555
H22 C28 1_555 1_555
H23 C28 1_555 1_555
C29 H24 1_555 1_555
H25 C29 1_555 1_555
H26 C29 1_555 1_555
C30 H27 1_555 1_555
H28 C30 1_555 1_555
H29 C30 1_555 1_555
C31 H30 1_555 1_555
H31 C31 1_555 1_555
H32 C31 1_555 1_555
C32 H33 1_555 1_555
C33 H34 1_555 1_555
C34 H35 1_555 1_555
H36 C34 1_555 1_555
H37 C34 1_555 1_555
C35 H38 1_555 1_555
H39 C35 1_555 1_555
H40 C35 1_555 1_555
C36 H41 1_555 1_555
C37 C36 1_555 1_555
H42 C37 1_555 1_555
C38 C37 1_555 1_555
H43 C38 1_555 1_555
C39 C38 1_555 1_555
H44 C39 1_555 1_555
C40 C39 1_555 1_555
C41 C36 1_555 1_555
C42 C41 1_555 1_555
C43 C42 1_555 1_555
C44 C42 1_555 1_555
H45 C44 1_555 1_555
C45 C44 1_555 1_555
H46 C45 1_555 1_555
C46 C40 1_555 1_555
C47 C46 1_555 1_555
C48 C14 1_555 1_555
N1 C27 1_555 1_555
N2 C33 1_555 1_555
N3 C30 1_555 1_555
N4 C24 1_555 1_555
O1 C32 1_555 1_555
O2 C33 1_555 1_555
O3 C27 1_555 1_555
O4 C24 1_555 1_555
O5 C1 1_555 1_555
O6 C1 1_555 1_555
O7 C43 1_555 1_555
O8 C43 1_555 1_555
O9 C13 1_555 1_555
O10 C13 1_555 1_555
O11 C12 1_555 1_555
O12 C12 1_555 1_555
O13 C47 1_555 1_555
O14 C47 1_555 1_555
O15 C18 1_555 1_555
O16 C18 1_555 1_555
Nd1 O3 1_555 1_555
Nd2 O1 1_555 1_555
C1_2 C2_2 1_555 1_555
C2_2 C3_2 1_555 1_555
C3_2 H1_2 1_555 1_555
C4_2 C3_2 1_555 1_555
H2_2 C4_2 1_555 1_555
C5_2 C4_2 1_555 1_555
C6_2 C5_2 1_555 1_555
C7_2 C2_2 1_555 1_555
C8_2 C7_2 1_555 1_555
H3_2 C8_2 1_555 1_555
C9_2 C8_2 1_555 1_555
H4_2 C9_2 1_555 1_555
C10_2 C9_2 1_555 1_555
H5_2 C10_2 1_555 1_555
C11_2 C6_2 1_555 1_555
H6_2 C11_2 1_555 1_555
C12_2 C5_2 1_555 1_555
C13A C14A 1_555 1_555
C14A C15A 1_555 1_555
C15A H7A 1_555 1_555
C16A C15A 1_555 1_555
H8A C16A 1_555 1_555
C17A C16A 1_555 1_555
C18A C17A 1_555 1_555
C19A C17A 1_555 1_555
C20A C19A 1_555 1_555
H9A C20A 1_555 1_555
C21A C20A 1_555 1_555
H10A C21A 1_555 1_555
C22A C21A 1_555 1_555
H11A C22A 1_555 1_555
C23A C22A 1_555 1_555
H12A C23A 1_555 1_555
C24_2 H13_2 1_555 1_555
C25_2 H14_2 1_555 1_555
H15_2 C25_2 1_555 1_555
H16_2 C25_2 1_555 1_555
C26_2 H17_2 1_555 1_555
H18_2 C26_2 1_555 1_555
H19_2 C26_2 1_555 1_555
C27_2 H20_2 1_555 1_555
C28_2 H21_2 1_555 1_555
H22_2 C28_2 1_555 1_555
H23_2 C28_2 1_555 1_555
C29_2 H24_2 1_555 1_555
H25_2 C29_2 1_555 1_555
H26_2 C29_2 1_555 1_555
C30_2 H27_2 1_555 1_555
H28_2 C30_2 1_555 1_555
H29_2 C30_2 1_555 1_555
C31_2 H30_2 1_555 1_555
H31_2 C31_2 1_555 1_555
H32_2 C31_2 1_555 1_555
C32_2 H33_2 1_555 1_555
C33_2 H34_2 1_555 1_555
C34_2 H35_2 1_555 1_555
H36_2 C34_2 1_555 1_555
H37_2 C34_2 1_555 1_555
C35_2 H38_2 1_555 1_555
H39_2 C35_2 1_555 1_555
H40_2 C35_2 1_555 1_555
C36A H41A 1_555 1_555
C37A C36A 1_555 1_555
H42A C37A 1_555 1_555
C38A C37A 1_555 1_555
H43A C38A 1_555 1_555
C39A C38A 1_555 1_555
H44A C39A 1_555 1_555
C40A C39A 1_555 1_555
C41A C36A 1_555 1_555
C42A C41A 1_555 1_555
C43A C42A 1_555 1_555
C44A C42A 1_555 1_555
H45A C44A 1_555 1_555
C45A C44A 1_555 1_555
H46A C45A 1_555 1_555
C46A C40A 1_555 1_555
C47A C46A 1_555 1_555
C48A C14A 1_555 1_555
N1_2 C27_2 1_555 1_555
N2_2 C33_2 1_555 1_555
N3_2 C30_2 1_555 1_555
N4_2 C24_2 1_555 1_555
O1_2 C32_2 1_555 1_555
O2_2 C33_2 1_555 1_555
O3_2 C27_2 1_555 1_555
O4_2 C24_2 1_555 1_555
O5_2 C1_2 1_555 1_555
O6_2 C1_2 1_555 1_555
O7A Nd2 1_555 1_555
O7A_2 Nd2_2 1_555 1_555
O8A Nd2 1_555 1_555
O8A_2 Nd2_2 1_555 1_555
O9A C13A 1_555 1_555
O9_2 Nd1_2 1_555 1_555
O10A C13A 1_555 1_555
O10_2 Nd1_2 1_555 1_555
O11_2 Nd1 1_555 1_555
O11_3 Nd1_2 1_555 1_555
O12_2 Nd2 1_555 1_555
O12_3 Nd2_2 1_555 1_555
O13A C47A 1_555 1_555
O13_2 Nd1_2 1_555 1_555
O14A C47A 1_555 1_555
O14_2 Nd1_2 1_555 1_555
O15A Nd2 1_555 1_555
O15A_2 Nd2_2 1_555 1_555
O16A Nd1 1_555 1_555
O16A_2 Nd1_2 1_555 1_555
Nd1_2 O3_2 1_555 1_555
Nd1_3 O11 1_555 1_555
Nd1A O16 1_555 1_555
Nd1A_2 O13A 1_555 1_555
Nd2_2 O1_2 1_555 1_555
Nd2A O7 1_555 1_555
Nd2_3 O12 1_555 1_555
Nd2A_2 O15 1_555 1_555
C6 C7 1_555 1_555
C10 C11 1_555 1_555
C19 C48 1_555 1_555
C23 C48 1_555 1_555
C25 N4 1_555 1_555
C26 N4 1_555 1_555
C28 N1 1_555 1_555
C29 N1 1_555 1_555
C31 N3 1_555 1_555
C32 N3 1_555 1_555
C34 N2 1_555 1_555
C35 N2 1_555 1_555
C40 C41 1_555 1_555
C45 C46 1_555 1_555
O2 Nd2 1_555 1_555
O4 Nd1 1_555 1_555
O5 Nd2 1_555 1_555
O6 Nd1 1_555 1_555
O8 Nd2A 1_555 1_555
O9 Nd1 1_555 1_555
O10 Nd1 1_555 1_555
O13 Nd1 1_555 1_555
O13 Nd2 1_555 1_555
O14 Nd1 1_555 1_555
O16 Nd2A_2 1_555 1_555
Nd2 O16A 1_555 1_555
C6_2 C7_2 1_555 1_555
C10_2 C11_2 1_555 1_555
C12_2 O11_2 1_555 1_555
C12_2 O12_2 1_555 1_555
C18A O15A 1_555 1_555
C18A O16A 1_555 1_555
C19A C48A 1_555 1_555
C23A C48A 1_555 1_555
C25_2 N4_2 1_555 1_555
C26_2 N4_2 1_555 1_555
C28_2 N1_2 1_555 1_555
C29_2 N1_2 1_555 1_555
C31_2 N3_2 1_555 1_555
C32_2 N3_2 1_555 1_555
C34_2 N2_2 1_555 1_555
C35_2 N2_2 1_555 1_555
C40A C41A 1_555 1_555
C43A O7A 1_555 1_555
C43A O8A 1_555 1_555
C45A C46A 1_555 1_555
O2_2 Nd2_2 1_555 1_555
O4_2 Nd1_2 1_555 1_555
O5_2 Nd2_2 1_555 1_555
O6_2 Nd1_2 1_555 1_555
O9A Nd1A 1_555 1_555
O10A Nd1A 1_555 1_555
O13A Nd2A 1_555 1_555
O13_2 Nd2_2 1_555 1_555
O14A Nd1A_2 1_555 1_555
O16A_2 Nd2_2 1_555 1_555

#END
