
#######################################################################
#
#                 Cambridge Crystallographic Data Centre
#                                CCDC 
#
#######################################################################
#
# If this CIF has been generated from an entry in the Cambridge 
# Structural Database, then it will include bibliographic, chemical, 
# crystal, experimental, refinement or atomic coordinate data resulting 
# from the CCDC's data processing and validation procedures.
#
#######################################################################

data_SEHZIP
_symmetry_cell_setting           monoclinic
_symmetry_space_group_name_H-M   'P 21/c'
_symmetry_Int_Tables_number      14
_space_group_name_Hall           '-P 2ybc'
loop_
_symmetry_equiv_pos_site_id
_symmetry_equiv_pos_as_xyz
1 x,y,z
2 -x,1/2+y,1/2-z
3 -x,-y,-z
4 x,1/2-y,1/2+z
_cell_length_a                   10.1040(5)
_cell_length_b                   6.8627(3)
_cell_length_c                   13.8514(8)
_cell_angle_alpha                90
_cell_angle_beta                 94.673(2)
_cell_angle_gamma                90
_cell_volume                     957.273
loop_
_atom_site_label
_atom_site_type_symbol
_atom_site_fract_x
_atom_site_fract_y
_atom_site_fract_z
Cu1 Cu 0.07628(3) 0.11912(5) 0.81801(2)
O1 O 0.3159(2) 0.6231(3) 0.96257(16)
H1 H 0.2772 0.6315 1.0138
O2 O -0.0635(2) 0.3083(3) 0.77001(15)
O3 O -0.0929(2) 0.0860(3) 0.87940(16)
O4 O -0.2455(2) 0.3250(3) 0.85373(15)
N1 N 0.1950(2) -0.0019(3) 0.92146(17)
H2 H 0.1551 0.0104 0.9785
H3 H 0.1993 -0.1330 0.9082
N2 N 0.2150(2) 0.2014(4) 0.73388(17)
H4 H 0.2199 0.1071 0.6871
H5 H 0.1852 0.3133 0.7026
C1 C -0.1395(3) 0.2438(4) 0.8354(2)
C2 C 0.3344(3) 0.0715(4) 0.9389(2)
H6 H 0.3845 -0.0214 0.9839
C3 C 0.4013(3) 0.0740(4) 0.8438(2)
H7 H 0.3839 -0.0517 0.8100
H8 H 0.4985 0.0857 0.8586
C4 C 0.3537(3) 0.2400(4) 0.7759(2)
H9 H 0.4128 0.2446 0.7214
C5 C 0.3637(3) 0.4354(4) 0.8281(2)
H10 H 0.4584 0.4659 0.8455
H11 H 0.3269 0.5385 0.7837
C6 C 0.2899(3) 0.4372(4) 0.9194(2)
H12 H 0.1925 0.4227 0.9018
C7 C 0.3382(3) 0.2719(4) 0.9872(2)
H13 H 0.2824 0.2684 1.0427
H14 H 0.4305 0.3000 1.0131
Cu1A Cu -0.07628(3) 0.61912(5) 0.68199(2)
O2A O 0.0635(2) -0.1917(3) 0.72999(15)
loop_
_geom_bond_atom_site_label_1
_geom_bond_atom_site_label_2
_geom_bond_site_symmetry_1
_geom_bond_site_symmetry_2
Cu1 O2 1_555 1_555
O1 H1 1_555 1_555
O2 C1 1_555 1_555
O3 Cu1 1_555 1_555
O4 C1 1_555 1_555
N1 Cu1 1_555 1_555
H2 N1 1_555 1_555
H3 N1 1_555 1_555
N2 Cu1 1_555 1_555
H4 N2 1_555 1_555
H5 N2 1_555 1_555
C1 O3 1_555 1_555
C2 N1 1_555 1_555
H6 C2 1_555 1_555
C3 C2 1_555 1_555
H7 C3 1_555 1_555
H8 C3 1_555 1_555
C4 N2 1_555 1_555
H9 C4 1_555 1_555
C5 C4 1_555 1_555
H10 C5 1_555 1_555
H11 C5 1_555 1_555
C6 O1 1_555 1_555
H12 C6 1_555 1_555
C7 C2 1_555 1_555
H13 C7 1_555 1_555
H14 C7 1_555 1_555
Cu1A O2 1_555 1_555
O2A Cu1 1_555 1_555
C3 C4 1_555 1_555
C5 C6 1_555 1_555
C6 C7 1_555 1_555

#END
