
#######################################################################
#
#                 Cambridge Crystallographic Data Centre
#                                CCDC 
#
#######################################################################
#
# If this CIF has been generated from an entry in the Cambridge 
# Structural Database, then it will include bibliographic, chemical, 
# crystal, experimental, refinement or atomic coordinate data resulting 
# from the CCDC's data processing and validation procedures.
#
#######################################################################

data_SEJBEP
_symmetry_cell_setting           trigonal
_symmetry_space_group_name_H-M   'P 31 2 1'
_symmetry_Int_Tables_number      152
_space_group_name_Hall           'P 31 2"'
loop_
_symmetry_equiv_pos_site_id
_symmetry_equiv_pos_as_xyz
1 x,y,z
2 -y,x-y,1/3+z
3 -x+y,-x,2/3+z
4 y,x,-z
5 x-y,-y,2/3-z
6 -x,-x+y,1/3-z
_cell_length_a                   10.963(2)
_cell_length_b                   10.963(2)
_cell_length_c                   16.034(3)
_cell_angle_alpha                90
_cell_angle_beta                 90
_cell_angle_gamma                120
_cell_volume                     1668.9
loop_
_atom_site_label
_atom_site_type_symbol
_atom_site_fract_x
_atom_site_fract_y
_atom_site_fract_z
C1 C 0.6048(6) 0.8334(6) 0.0573(4)
C2 C 0.6082(6) 0.7336(6) 0.0050(3)
C3 C 0.4937(6) 0.6447(6) -0.0464(3)
H1 H 0.4969 0.5742 -0.0769
C4 C 0.3792(6) 0.6601(6) -0.0521(3)
H2 H 0.3027 0.5990 -0.0848
C5 C 0.3777(6) 0.7715(6) -0.0073(3)
H3 H 0.3042 0.7897 -0.0145
C6 C 0.4860(7) 0.8518(6) 0.0466(3)
C7 C 0.7152(7) 0.9021(7) 0.1211(4)
C8 C 0.4814(7) 0.9704(7) 0.0901(4)
C9 C 1.0405(6) 0.8656(6) 0.1001(4)
H4 H 1.0695 0.9230 0.0531
C10 C 1.0419(6) 0.7407(6) 0.0967(3)
H5 H 1.0704 0.7150 0.0484
C11 C 1.0000 0.6531(8) 0.1667
C12 C 1.1064(6) 0.3839(6) 0.1333(4)
H6 H 1.1828 0.3798 0.1113
C13 C 1.1065(7) 0.5070(8) 0.1303(4)
H7 H 1.1795 0.5841 0.1034
C14 C 1.0000 0.5195(8) 0.1667
Cu1 Cu 1.0000 1.08645(9) 0.1667
N1 N 1.0000 0.9089(6) 0.1667
N2 N 1.0000 0.2676(8) 0.1667
O1 O 0.8299(4) 1.0035(4) 0.0992(2)
O2 O 0.6854(5) 0.8534(4) 0.1911(2)
O3 O 0.5828(4) 1.0545(4) 0.1324(2)
O4 O 0.3717(4) 0.9753(4) 0.0797(2)
H8 H 0.3536 1.0364 0.0995
O5 O 0.7341(5) 0.7341(5) 0.0000
C1C C 0.8334(6) 0.6048(6) -0.0573(4)
C2C C 0.7336(6) 0.6082(6) -0.0050(3)
C3C C 0.6447(6) 0.4937(6) 0.0464(3)
H1C H 0.5742 0.4969 0.0769
C4C C 0.6601(6) 0.3792(6) 0.0521(3)
H2C H 0.5990 0.3027 0.0848
C5C C 0.7715(6) 0.3777(6) 0.0073(3)
H3C H 0.7897 0.3042 0.0145
C6C C 0.8518(6) 0.4860(7) -0.0466(3)
C7C C 0.9021(7) 0.7152(7) -0.1211(4)
C8C C 0.9704(7) 0.4814(7) -0.0901(4)
C9E C 0.9595(6) 0.8251(8) 0.2332(4)
H4E H 0.9305 0.8535 0.2802
C10E C 0.9581(6) 0.6988(8) 0.2366(3)
H5E H 0.9296 0.6446 0.2849
C12E C 0.8936(6) 0.2775(8) 0.2000(4)
H6E H 0.8172 0.1970 0.2220
C13E C 0.8935(7) 0.4005(11) 0.2030(4)
H7E H 0.8205 0.4046 0.2299
Cu1_2 Cu 1.0000 0.08645(9) 0.1667
Cu1B Cu 1.08645(9) 1.0000 -0.1666
N2_2 N 1.0000 1.2676(8) 0.1667
O1C O 1.0035(4) 0.8299(4) -0.0992(2)
O1E O 1.1701(4) 1.1736(6) 0.2341(2)
O2C O 0.8534(4) 0.6854(5) -0.1911(2)
O3C O 1.0545(4) 0.5828(4) -0.1324(2)
O4C O 0.9753(4) 0.3717(4) -0.0797(2)
H8C H 1.0364 0.3536 -0.0995
loop_
_geom_bond_atom_site_label_1
_geom_bond_atom_site_label_2
_geom_bond_site_symmetry_1
_geom_bond_site_symmetry_2
C1 C2 1_555 1_555
C2 C3 1_555 1_555
C3 H1 1_555 1_555
C4 C3 1_555 1_555
H2 C4 1_555 1_555
C5 C4 1_555 1_555
H3 C5 1_555 1_555
C6 C1 1_555 1_555
C7 C1 1_555 1_555
C8 C6 1_555 1_555
C9 H4 1_555 1_555
C10 C9 1_555 1_555
H5 C10 1_555 1_555
C11 C10 1_555 1_555
C12 H6 1_555 1_555
C13 C12 1_555 1_555
H7 C13 1_555 1_555
C14 C11 1_555 1_555
Cu1 N1 1_555 1_555
N1 C9 1_555 1_555
N2 C12 1_555 1_555
O1 C7 1_555 1_555
O2 C7 1_555 1_555
O3 C8 1_555 1_555
O4 C8 1_555 1_555
H8 O4 1_555 1_555
O5 C2 1_555 1_555
C1C C2C 1_555 1_555
C2C O5 1_555 1_555
C3C C2C 1_555 1_555
H1C C3C 1_555 1_555
C4C C3C 1_555 1_555
H2C C4C 1_555 1_555
C5C C4C 1_555 1_555
H3C C5C 1_555 1_555
C6C C1C 1_555 1_555
C7C C1C 1_555 1_555
C8C C6C 1_555 1_555
C9E N1 1_555 1_555
H4E C9E 1_555 1_555
C10E C11 1_555 1_555
H5E C10E 1_555 1_555
C12E N2 1_555 1_555
H6E C12E 1_555 1_555
C13E C14 1_555 1_555
H7E C13E 1_555 1_555
Cu1_2 N2 1_555 1_555
Cu1B O1C 1_555 1_555
N2_2 Cu1 1_555 1_555
O1C C7C 1_555 1_555
O1E Cu1 1_555 1_555
O2C C7C 1_555 1_555
O3C C8C 1_555 1_555
O4C C8C 1_555 1_555
H8C O4C 1_555 1_555
C5 C6 1_555 1_555
C13 C14 1_555 1_555
Cu1 O1 1_555 1_555
C5C C6C 1_555 1_555
C9E C10E 1_555 1_555
C12E C13E 1_555 1_555

#END
