
#######################################################################
#
#                 Cambridge Crystallographic Data Centre
#                                CCDC 
#
#######################################################################
#
# If this CIF has been generated from an entry in the Cambridge 
# Structural Database, then it will include bibliographic, chemical, 
# crystal, experimental, refinement or atomic coordinate data resulting 
# from the CCDC's data processing and validation procedures.
#
#######################################################################

data_SEJCAN
_symmetry_cell_setting           monoclinic
_symmetry_space_group_name_H-M   'P 21/n'
_symmetry_Int_Tables_number      14
_space_group_name_Hall           '-P 2yn'
loop_
_symmetry_equiv_pos_site_id
_symmetry_equiv_pos_as_xyz
1 x,y,z
2 1/2-x,1/2+y,1/2-z
3 -x,-y,-z
4 1/2+x,1/2-y,1/2+z
_cell_length_a                   8.5922(11)
_cell_length_b                   34.870(4)
_cell_length_c                   12.1899(14)
_cell_angle_alpha                90
_cell_angle_beta                 91.989(8)
_cell_angle_gamma                90
_cell_volume                     3650.02
loop_
_atom_site_label
_atom_site_type_symbol
_atom_site_fract_x
_atom_site_fract_y
_atom_site_fract_z
Co1 Co 0.35834(9) 0.15003(2) 0.95816(6)
Co2 Co 0.66747(9) -0.00066(2) 0.62678(6)
Co3 Co 0.96724(9) -0.15059(2) 0.30140(6)
N1 N 0.7617(6) 0.30292(14) 0.5389(4)
N2 N 0.5910(5) 0.17039(13) 0.6744(4)
N3 N 0.4376(5) 0.17453(13) 0.8188(4)
N4 N 0.4644(6) 0.21101(13) 0.7839(4)
N5 N 0.4413(5) 0.09993(12) 0.8632(4)
N6 N 0.5670(5) 0.04489(13) 0.7259(4)
N7 N 0.7532(5) -0.04472(12) 0.5202(4)
N8 N 0.8669(5) -0.10102(12) 0.3831(4)
N9 N 0.6754(6) -0.16861(13) 0.5606(4)
N10 N 0.7864(6) -0.21100(13) 0.4448(4)
N11 N 0.8187(6) -0.17483(13) 0.4099(4)
N12 N 0.5380(5) -0.30189(13) 0.7125(4)
O1 O 0.7210(5) 0.04073(10) 0.5171(3)
O2 O 0.5500(4) 0.02206(11) 0.3867(3)
O3 O 0.4165(5) 0.11873(12) 0.0989(3)
O4 O 0.5973(5) 0.15739(13) 0.0422(4)
O5 O 0.8974(5) 0.00043(11) 0.7082(3)
O6 O 0.7140(5) -0.03550(11) 0.7707(3)
O7 O 0.8540(5) -0.12960(12) 1.0801(4)
O8 O 1.0466(5) -0.11200(11) 1.1898(3)
O9 O 1.1540(5) -0.14451(12) 0.4080(3)
H1 H 1.2542 -0.1437 0.4083
H2 H 1.1265 -0.1315 0.4633
C1 C 0.6698(7) 0.30728(16) 0.6246(5)
H3 H 0.6530 0.3320 0.6501
C2 C 0.5988(7) 0.27758(17) 0.6772(5)
H4 H 0.5368 0.2824 0.7366
C3 C 0.6199(7) 0.24037(16) 0.6413(4)
C4 C 0.7130(8) 0.23586(17) 0.5519(5)
H5 H 0.7308 0.2114 0.5244
C5 C 0.7792(8) 0.26691(18) 0.5034(5)
H6 H 0.8396 0.2628 0.4427
C6 C 0.5550(6) 0.20718(16) 0.6992(5)
C7 C 0.5143(6) 0.15122(16) 0.7516(4)
C8 C 0.5139(6) 0.11028(15) 0.7707(4)
C9 C 0.5768(6) 0.08231(15) 0.7034(4)
H7 H 0.6272 0.0900 0.6408
C10 C 0.4907(7) 0.03523(17) 0.8161(5)
H8 H 0.4781 0.0094 0.8331
C11 C 0.4309(7) 0.06264(16) 0.8836(5)
H9 H 0.3810 0.0547 0.9462
C12 C 0.6564(6) 0.04392(14) 0.4229(4)
C13 C 0.7091(6) 0.07571(15) 0.3511(4)
C14 C 0.6130(7) 0.08862(16) 0.2658(4)
H10 H 0.5163 0.0772 0.2529
C15 C 0.6593(7) 0.11868(17) 0.1986(5)
C16 C 0.8043(8) 0.1350(2) 0.2172(5)
H11 H 0.8357 0.1551 0.1730
C17 C 0.9048(8) 0.1216(2) 0.3018(6)
H12 H 1.0032 0.1323 0.3127
C18 C 0.8561(7) 0.09218(19) 0.3691(5)
H13 H 0.9213 0.0834 0.4262
C19 C 0.5518(8) 0.13278(18) 0.1082(5)
C20 C 0.8527(7) -0.02374(16) 0.7766(5)
C21 C 0.9618(7) -0.03808(16) 0.8655(4)
C22 C 0.9156(7) -0.06686(15) 0.9356(5)
H14 H 0.8186 -0.0784 0.9252
C23 C 1.0159(6) -0.07860(16) 1.0225(4)
C24 C 1.1599(7) -0.06132(18) 1.0365(5)
H15 H 1.2260 -0.0686 1.0949
C25 C 1.2065(8) -0.0333(2) 0.9645(6)
H16 H 1.3049 -0.0224 0.9736
C26 C 1.1090(7) -0.02143(18) 0.8798(5)
H17 H 1.1407 -0.0024 0.8322
C27 C 0.9677(7) -0.10862(16) 1.1024(5)
C28 C 0.8455(6) -0.03640(16) 0.4376(5)
H18 H 0.8740 -0.0110 0.4266
C29 C 0.8995(7) -0.06388(15) 0.3685(5)
H19 H 0.9601 -0.0566 0.3102
C30 C 0.7758(6) -0.11015(15) 0.4667(5)
C31 C 0.7190(7) -0.08165(16) 0.5347(5)
H20 H 0.6554 -0.0886 0.5916
C32 C 0.7520(7) -0.15087(16) 0.4816(5)
C33 C 0.7011(7) -0.20590(16) 0.5333(5)
C34 C 0.6441(7) -0.23886(16) 0.5957(5)
C35 C 0.5420(7) -0.23428(17) 0.6803(5)
H21 H 0.5073 -0.2099 0.6987
C36 C 0.4919(7) -0.26598(17) 0.7373(5)
H22 H 0.4243 -0.2625 0.7944
C37 C 0.6376(7) -0.30571(16) 0.6300(5)
H23 H 0.6716 -0.3302 0.6126
C38 C 0.6909(7) -0.27569(15) 0.5710(5)
H24 H 0.7584 -0.2799 0.5142
Co1B Co 0.64166(9) -0.15003(2) 0.04184(6)
Co1_2 Co 0.35834(9) 0.15003(2) -0.04184(6)
Co1A Co 0.14166(9) -0.34997(2) 0.54184(6)
Co1B_2 Co 0.64166(9) -0.15003(2) 1.04184(6)
Co1C Co 0.85834(9) 0.34997(2) 0.45816(6)
Co2B Co 0.33253(9) 0.00066(2) 0.37322(6)
Co3B Co 0.03276(9) 0.15059(2) 0.69860(6)
Co3_2 Co 0.96724(9) -0.15059(2) 1.30140(6)
Co3A Co 0.53276(9) 0.34941(2) 0.19860(6)
Co3B_2 Co 0.03276(9) 0.15059(2) -0.30140(6)
Co3C Co 0.46724(9) -0.34941(2) 0.80140(6)
N1B N 0.2383(6) -0.30292(14) 0.4611(4)
N1A N 0.7383(6) -0.19708(14) -0.0389(4)
N1C N 0.2617(6) 0.19708(14) 1.0389(4)
N2B N 0.4090(5) -0.17039(13) 0.3256(4)
N3B N 0.5624(5) -0.17453(13) 0.1812(4)
N4B N 0.5356(6) -0.21101(13) 0.2161(4)
N5B N 0.5587(5) -0.09993(12) 0.1368(4)
N6B N 0.4330(5) -0.04489(13) 0.2741(4)
N7B N 0.2468(5) 0.04472(12) 0.4798(4)
N8B N 0.1331(5) 0.10102(12) 0.6169(4)
N9B N 0.3246(6) 0.16861(13) 0.4394(4)
N10B N 0.2136(6) 0.21100(13) 0.5552(4)
N11B N 0.1813(6) 0.17483(13) 0.5901(4)
N12B N 0.4620(5) 0.30189(13) 0.2875(4)
N12A N -0.0380(5) 0.19811(13) 0.7875(4)
N12C N 1.0380(5) -0.19811(13) 0.2125(4)
O1B O 0.2790(5) -0.04073(10) 0.4829(3)
O2B O 0.4500(4) -0.02206(11) 0.6133(3)
O3B O 0.5835(5) -0.11873(12) 0.9011(3)
O3_2 O 0.4165(5) 0.11873(12) 1.0989(3)
O3B_2 O 0.5835(5) -0.11873(12) -0.0989(3)
O4B O 0.4027(5) -0.15739(13) 0.9578(4)
O4_2 O 0.5973(5) 0.15739(13) 1.0422(4)
O4B_2 O 0.4027(5) -0.15739(13) -0.0422(4)
O5B O 0.1026(5) -0.00043(11) 0.2918(3)
O6B O 0.2860(5) 0.03550(11) 0.2293(3)
O7B O 0.1460(5) 0.12960(12) -0.0801(4)
O7_2 O 0.8540(5) -0.12960(12) 0.0801(4)
O7B_2 O 0.1460(5) 0.12960(12) 0.9199(4)
O8B O -0.0466(5) 0.11200(11) -0.1898(3)
O8_2 O 1.0466(5) -0.11200(11) 0.1898(3)
O8B_2 O -0.0466(5) 0.11200(11) 0.8102(3)
O9B O -0.1540(5) 0.14451(12) 0.5920(3)
H1B H -0.2542 0.1437 0.5917
H2B H -0.1265 0.1315 0.5367
C1B C 0.3302(7) -0.30728(16) 0.3754(5)
H3B H 0.3470 -0.3320 0.3499
C2B C 0.4012(7) -0.27758(17) 0.3228(5)
H4B H 0.4632 -0.2824 0.2634
C3B C 0.3801(7) -0.24037(16) 0.3587(4)
C4B C 0.2870(8) -0.23586(17) 0.4481(5)
H5B H 0.2692 -0.2114 0.4756
C5B C 0.2208(8) -0.26691(18) 0.4966(5)
H6B H 0.1604 -0.2628 0.5573
C6B C 0.4450(6) -0.20718(16) 0.3008(5)
C7B C 0.4857(6) -0.15122(16) 0.2484(4)
C8B C 0.4861(6) -0.11028(15) 0.2293(4)
C9B C 0.4232(6) -0.08231(15) 0.2966(4)
H7B H 0.3728 -0.0900 0.3592
C10B C 0.5093(7) -0.03523(17) 0.1839(5)
H8B H 0.5219 -0.0094 0.1669
C11B C 0.5691(7) -0.06264(16) 0.1164(5)
H9B H 0.6190 -0.0547 0.0538
C12B C 0.3436(6) -0.04392(14) 0.5771(4)
C13B C 0.2909(6) -0.07571(15) 0.6489(4)
C14B C 0.3870(7) -0.08862(16) 0.7342(4)
H10B H 0.4837 -0.0772 0.7471
C15B C 0.3407(7) -0.11868(17) 0.8014(5)
C16B C 0.1957(8) -0.1350(2) 0.7828(5)
H11B H 0.1643 -0.1551 0.8270
C17B C 0.0952(8) -0.1216(2) 0.6982(6)
H12B H -0.0032 -0.1323 0.6873
C18B C 0.1439(7) -0.09218(19) 0.6309(5)
H13B H 0.0787 -0.0834 0.5738
C19B C 0.4482(8) -0.13278(18) 0.8918(5)
C20B C 0.1473(7) 0.02374(16) 0.2234(5)
C21B C 0.0382(7) 0.03808(16) 0.1345(4)
C22B C 0.0844(7) 0.06686(15) 0.0644(5)
H14B H 0.1814 0.0784 0.0748
C23B C -0.0159(6) 0.07860(16) -0.0225(4)
C24B C -0.1599(7) 0.06132(18) -0.0365(5)
H15B H -0.2260 0.0686 -0.0949
C25B C -0.2065(8) 0.0333(2) 0.0355(6)
H16B H -0.3049 0.0224 0.0264
C26B C -0.1090(7) 0.02143(18) 0.1202(5)
H17B H -0.1407 0.0024 0.1678
C27B C 0.0323(7) 0.10862(16) -0.1024(5)
C28B C 0.1545(6) 0.03640(16) 0.5624(5)
H18B H 0.1260 0.0110 0.5734
C29B C 0.1005(7) 0.06388(15) 0.6315(5)
H19B H 0.0399 0.0566 0.6898
C30B C 0.2242(6) 0.11015(15) 0.5333(5)
C31B C 0.2810(7) 0.08165(16) 0.4653(5)
H20B H 0.3446 0.0886 0.4084
C32B C 0.2480(7) 0.15087(16) 0.5184(5)
C33B C 0.2989(7) 0.20590(16) 0.4667(5)
C34B C 0.3559(7) 0.23886(16) 0.4043(5)
C35B C 0.4580(7) 0.23428(17) 0.3197(5)
H21B H 0.4927 0.2099 0.3013
C36B C 0.5081(7) 0.26598(17) 0.2627(5)
H22B H 0.5757 0.2625 0.2056
C37B C 0.3624(7) 0.30571(16) 0.3700(5)
H23B H 0.3284 0.3302 0.3874
C38B C 0.3091(7) 0.27569(15) 0.4290(5)
H24B H 0.2416 0.2799 0.4858
loop_
_geom_bond_atom_site_label_1
_geom_bond_atom_site_label_2
_geom_bond_site_symmetry_1
_geom_bond_site_symmetry_2
Co1 N3 1_555 1_555
Co2 N6 1_555 1_555
Co3 N8 1_555 1_555
N1 C1 1_555 1_555
N2 C6 1_555 1_555
N3 N4 1_555 1_555
N4 C6 1_555 1_555
N5 Co1 1_555 1_555
N6 C9 1_555 1_555
N7 Co2 1_555 1_555
N8 C29 1_555 1_555
N9 C32 1_555 1_555
N10 N11 1_555 1_555
N11 Co3 1_555 1_555
N12 C36 1_555 1_555
O1 Co2 1_555 1_555
O2 C12 1_555 1_555
O3 C19 1_555 1_555
O4 C19 1_555 1_555
O5 Co2 1_555 1_555
O6 Co2 1_555 1_555
O7 C27 1_555 1_555
O8 C27 1_555 1_555
O9 Co3 1_555 1_555
H1 O9 1_555 1_555
H2 O9 1_555 1_555
C1 H3 1_555 1_555
C2 C1 1_555 1_555
H4 C2 1_555 1_555
C3 C2 1_555 1_555
C4 C3 1_555 1_555
H5 C4 1_555 1_555
C5 N1 1_555 1_555
H6 C5 1_555 1_555
C6 C3 1_555 1_555
C7 N2 1_555 1_555
C8 N5 1_555 1_555
C9 C8 1_555 1_555
H7 C9 1_555 1_555
C10 N6 1_555 1_555
H8 C10 1_555 1_555
C11 N5 1_555 1_555
H9 C11 1_555 1_555
C12 O1 1_555 1_555
C13 C12 1_555 1_555
C14 C13 1_555 1_555
H10 C14 1_555 1_555
C15 C14 1_555 1_555
C16 C15 1_555 1_555
H11 C16 1_555 1_555
C17 C16 1_555 1_555
H12 C17 1_555 1_555
C18 C13 1_555 1_555
H13 C18 1_555 1_555
C19 C15 1_555 1_555
C20 O5 1_555 1_555
C21 C20 1_555 1_555
C22 C21 1_555 1_555
H14 C22 1_555 1_555
C23 C22 1_555 1_555
C24 C23 1_555 1_555
H15 C24 1_555 1_555
C25 C24 1_555 1_555
H16 C25 1_555 1_555
C26 C21 1_555 1_555
H17 C26 1_555 1_555
C27 C23 1_555 1_555
C28 N7 1_555 1_555
H18 C28 1_555 1_555
C29 C28 1_555 1_555
H19 C29 1_555 1_555
C30 N8 1_555 1_555
C31 N7 1_555 1_555
H20 C31 1_555 1_555
C32 N11 1_555 1_555
C33 N9 1_555 1_555
C34 C33 1_555 1_555
C35 C34 1_555 1_555
H21 C35 1_555 1_555
C36 C35 1_555 1_555
H22 C36 1_555 1_555
C37 N12 1_555 1_555
H23 C37 1_555 1_555
C38 C34 1_555 1_555
H24 C38 1_555 1_555
Co1B N1A 1_555 1_555
Co1_2 O3 1_555 1_555
Co1A N1B 1_555 1_555
Co1B_2 O7 1_555 1_555
Co1C N1 1_555 1_555
Co2B O2 1_555 1_555
Co3B N8B 1_555 1_555
Co3_2 O8 1_555 1_555
Co3A N12B 1_555 1_555
Co3B_2 O8B 1_555 1_555
Co3C N12 1_555 1_555
N1B C1B 1_555 1_555
N1C Co1 1_555 1_555
N2B C6B 1_555 1_555
N3B Co1B 1_555 1_555
N4B N3B 1_555 1_555
N5B Co1B 1_555 1_555
N6B Co2B 1_555 1_555
N7B Co2B 1_555 1_555
N8B C29B 1_555 1_555
N9B C32B 1_555 1_555
N10B N11B 1_555 1_555
N11B Co3B 1_555 1_555
N12B C36B 1_555 1_555
N12A Co3B 1_555 1_555
N12C Co3 1_555 1_555
O1B Co2B 1_555 1_555
O2B Co2 1_555 1_555
O3B Co1B_2 1_555 1_555
O3_2 Co1 1_555 1_555
O3B_2 Co1B 1_555 1_555
O4B Co1B_2 1_555 1_555
O4_2 Co1 1_555 1_555
O4B_2 Co1B 1_555 1_555
O5B Co2B 1_555 1_555
O6B Co2B 1_555 1_555
O7B Co1_2 1_555 1_555
O7_2 Co1B 1_555 1_555
O7B_2 Co1 1_555 1_555
O8B C27B 1_555 1_555
O8_2 Co3 1_555 1_555
O8B_2 Co3B 1_555 1_555
O9B Co3B 1_555 1_555
H1B O9B 1_555 1_555
H2B O9B 1_555 1_555
C1B H3B 1_555 1_555
C2B C1B 1_555 1_555
H4B C2B 1_555 1_555
C3B C2B 1_555 1_555
C4B C3B 1_555 1_555
H5B C4B 1_555 1_555
C5B N1B 1_555 1_555
H6B C5B 1_555 1_555
C6B N4B 1_555 1_555
C7B N2B 1_555 1_555
C8B N5B 1_555 1_555
C9B N6B 1_555 1_555
H7B C9B 1_555 1_555
C10B N6B 1_555 1_555
H8B C10B 1_555 1_555
C11B N5B 1_555 1_555
H9B C11B 1_555 1_555
C12B O1B 1_555 1_555
C13B C12B 1_555 1_555
C14B C13B 1_555 1_555
H10B C14B 1_555 1_555
C15B C14B 1_555 1_555
C16B C15B 1_555 1_555
H11B C16B 1_555 1_555
C17B C16B 1_555 1_555
H12B C17B 1_555 1_555
C18B C13B 1_555 1_555
H13B C18B 1_555 1_555
C19B O3B 1_555 1_555
C20B O5B 1_555 1_555
C21B C20B 1_555 1_555
C22B C21B 1_555 1_555
H14B C22B 1_555 1_555
C23B C22B 1_555 1_555
C24B C23B 1_555 1_555
H15B C24B 1_555 1_555
C25B C24B 1_555 1_555
H16B C25B 1_555 1_555
C26B C21B 1_555 1_555
H17B C26B 1_555 1_555
C27B O7B 1_555 1_555
C28B N7B 1_555 1_555
H18B C28B 1_555 1_555
C29B C28B 1_555 1_555
H19B C29B 1_555 1_555
C30B N8B 1_555 1_555
C31B N7B 1_555 1_555
H20B C31B 1_555 1_555
C32B N11B 1_555 1_555
C33B N9B 1_555 1_555
C34B C33B 1_555 1_555
C35B C34B 1_555 1_555
H21B C35B 1_555 1_555
C36B C35B 1_555 1_555
H22B C36B 1_555 1_555
C37B N12B 1_555 1_555
H23B C37B 1_555 1_555
C38B C34B 1_555 1_555
H24B C38B 1_555 1_555
N3 C7 1_555 1_555
N10 C33 1_555 1_555
O4 Co1_2 1_555 1_555
O6 C20 1_555 1_555
C4 C5 1_555 1_555
C7 C8 1_555 1_555
C10 C11 1_555 1_555
C17 C18 1_555 1_555
C25 C26 1_555 1_555
C30 C31 1_555 1_555
C30 C32 1_555 1_555
C37 C38 1_555 1_555
N3B C7B 1_555 1_555
N10B C33B 1_555 1_555
O2B C12B 1_555 1_555
O4B C19B 1_555 1_555
O6B C20B 1_555 1_555
C3B C6B 1_555 1_555
C4B C5B 1_555 1_555
C7B C8B 1_555 1_555
C8B C9B 1_555 1_555
C10B C11B 1_555 1_555
C15B C19B 1_555 1_555
C17B C18B 1_555 1_555
C23B C27B 1_555 1_555
C25B C26B 1_555 1_555
C30B C31B 1_555 1_555
C30B C32B 1_555 1_555
C37B C38B 1_555 1_555

#END
