
#######################################################################
#
#                 Cambridge Crystallographic Data Centre
#                                CCDC 
#
#######################################################################
#
# If this CIF has been generated from an entry in the Cambridge 
# Structural Database, then it will include bibliographic, chemical, 
# crystal, experimental, refinement or atomic coordinate data resulting 
# from the CCDC's data processing and validation procedures.
#
#######################################################################

data_SEJNOL01
_symmetry_cell_setting           monoclinic
_symmetry_space_group_name_H-M   'P 21/n'
_symmetry_Int_Tables_number      14
_space_group_name_Hall           '-P 2yn'
loop_
_symmetry_equiv_pos_site_id
_symmetry_equiv_pos_as_xyz
1 x,y,z
2 1/2-x,1/2+y,1/2-z
3 -x,-y,-z
4 1/2+x,1/2-y,1/2+z
_cell_length_a                   20.364(4)
_cell_length_b                   7.6580(15)
_cell_length_c                   21.664(4)
_cell_angle_alpha                90
_cell_angle_beta                 91.41(3)
_cell_angle_gamma                90
_cell_volume                     3377.42
loop_
_atom_site_label
_atom_site_type_symbol
_atom_site_fract_x
_atom_site_fract_y
_atom_site_fract_z
Mn1 Mn 0.16195(2) 0.85636(7) -0.08519(2)
O1 O 0.07374(11) 0.8787(3) -0.10800(11)
C1 C 0.04298(17) 0.9668(5) -0.15475(16)
C2 C 0.07565(17) 1.0545(4) -0.20190(16)
C3 C 0.03782(19) 1.1456(5) -0.24704(19)
H1 H 0.0595 1.2049 -0.2792
C4 C -0.03003(19) 1.1505(6) -0.2454(2)
H2 H -0.0544 1.2154 -0.2755
C5 C -0.06211(19) 1.0605(5) -0.19986(19)
H3 H -0.1087 1.0609 -0.1991
C6 C -0.02591(18) 0.9691(5) -0.15502(18)
H4 H -0.0484 0.9071 -0.1240
N1 N 0.18594(13) 0.9805(4) -0.16020(13)
C7 C 0.14744(17) 1.0580(4) -0.20422(15)
C8 C 0.18884(18) 1.1407(5) -0.24577(18)
H5 H 0.1761 1.2059 -0.2814
C9 C 0.25230(18) 1.1079(5) -0.22420(17)
H6 H 0.2911 1.1476 -0.2432
N2 N 0.25064(13) 1.0114(4) -0.17228(13)
Mn2 Mn 0.31855(2) 0.94296(6) -0.10797(2)
O2 O 0.38197(11) 1.0079(3) -0.16352(11)
C10 C 0.44780(16) 1.0287(4) -0.15523(16)
C11 C 0.48517(16) 0.9429(5) -0.10870(16)
C12 C 0.55349(18) 0.9673(5) -0.10658(18)
H7 H 0.5792 0.9095 -0.0756
C13 C 0.58421(19) 1.0737(6) -0.14854(19)
H8 H 0.6306 1.0863 -0.1470
C14 C 0.54684(18) 1.1620(5) -0.19297(18)
H9 H 0.5677 1.2385 -0.2209
C15 C 0.47855(18) 1.1394(5) -0.19691(17)
H10 H 0.4533 1.1990 -0.2278
N3 N 0.38728(13) 0.8275(3) -0.05806(13)
C16 C 0.45385(16) 0.8351(4) -0.06174(16)
C17 C 0.48091(17) 0.7327(5) -0.01402(17)
H11 H 0.5262 0.7126 -0.0051
C18 C 0.42807(16) 0.6669(5) 0.01755(17)
H12 H 0.4312 0.5928 0.0527
N4 N 0.37145(13) 0.7239(4) -0.00921(13)
Mn3 Mn 0.27652(2) 0.70089(7) 0.01116(2)
O3 O 0.30091(11) 0.5859(3) 0.08349(11)
C19 C 0.26619(16) 0.5082(4) 0.12796(15)
C20 C 0.19681(16) 0.5111(4) 0.12999(15)
C21 C 0.16671(18) 0.4245(5) 0.17877(16)
H13 H 0.1202 0.4265 0.1810
C22 C 0.20315(18) 0.3355(5) 0.22404(16)
H14 H 0.1816 0.2765 0.2564
C23 C 0.27070(18) 0.3337(5) 0.22152(17)
H15 H 0.2958 0.2734 0.2524
C24 C 0.30242(17) 0.4192(5) 0.17425(16)
H16 H 0.3490 0.4176 0.1732
N5 N 0.18397(13) 0.6715(4) 0.03186(12)
C25 C 0.15649(16) 0.5988(4) 0.08182(15)
C26 C 0.08812(17) 0.6230(5) 0.07608(17)
H17 H 0.0557 0.5862 0.1041
C27 C 0.07804(17) 0.7121(5) 0.02075(17)
H18 H 0.0363 0.7471 0.0044
N6 N 0.13545(13) 0.7418(4) -0.00635(13)
O4 O 0.25293(10) 0.8220(3) -0.06369(10)
O5 O 0.16255(12) 1.1297(3) -0.03516(13)
H19 H 0.1932 1.2058 -0.0352
C28 C 0.1058(2) 1.2072(6) -0.0089(2)
H20 H 0.1177 1.3207 0.0091
H21 H 0.0891 1.1306 0.0234
H22 H 0.0718 1.2235 -0.0412
O6 O 0.17017(12) 0.5914(3) -0.13058(12)
H23 H 0.2038 0.5541 -0.1112
C29 C 0.1155(2) 0.4885(6) -0.1518(2)
H24 H 0.1315 0.3791 -0.1695
H25 H 0.0905 0.5535 -0.1835
H26 H 0.0872 0.4626 -0.1171
O7 O 0.27998(11) 0.9690(3) 0.05624(11)
H27 H 0.2781 1.0427 0.0269
C30 C 0.2333(2) 1.0195(5) 0.10260(18)
H28 H 0.2426 1.1392 0.1162
H29 H 0.2373 0.9401 0.1380
H30 H 0.1886 1.0133 0.0849
O8 O 0.30948(13) 1.1686(3) -0.05101(11)
O9 O 0.25933(13) 1.4229(3) -0.04575(13)
C31 C 0.30443(17) 1.3286(4) -0.06617(16)
C32 C 0.3532(2) 1.4031(5) -0.1099(2)
H31 H 0.3433 1.5267 -0.1173
H32 H 0.3504 1.3393 -0.1491
H33 H 0.3976 1.3918 -0.0920
Mn3_2 Mn 0.27652(2) 1.70089(7) 0.01116(2)
O9_2 O 0.25933(13) 0.4229(3) -0.04575(13)
loop_
_geom_bond_atom_site_label_1
_geom_bond_atom_site_label_2
_geom_bond_site_symmetry_1
_geom_bond_site_symmetry_2
Mn1 O1 1_555 1_555
O1 C1 1_555 1_555
C1 C2 1_555 1_555
C2 C3 1_555 1_555
C3 H1 1_555 1_555
C4 C3 1_555 1_555
H2 C4 1_555 1_555
C5 C4 1_555 1_555
H3 C5 1_555 1_555
C6 C1 1_555 1_555
H4 C6 1_555 1_555
N1 Mn1 1_555 1_555
C7 C2 1_555 1_555
C8 C7 1_555 1_555
H5 C8 1_555 1_555
C9 C8 1_555 1_555
H6 C9 1_555 1_555
N2 N1 1_555 1_555
Mn2 N2 1_555 1_555
O2 Mn2 1_555 1_555
C10 O2 1_555 1_555
C11 C10 1_555 1_555
C12 C11 1_555 1_555
H7 C12 1_555 1_555
C13 C12 1_555 1_555
H8 C13 1_555 1_555
C14 C13 1_555 1_555
H9 C14 1_555 1_555
C15 C10 1_555 1_555
H10 C15 1_555 1_555
N3 Mn2 1_555 1_555
C16 C11 1_555 1_555
C17 C16 1_555 1_555
H11 C17 1_555 1_555
C18 C17 1_555 1_555
H12 C18 1_555 1_555
N4 N3 1_555 1_555
Mn3 N4 1_555 1_555
O3 Mn3 1_555 1_555
C19 O3 1_555 1_555
C20 C19 1_555 1_555
C21 C20 1_555 1_555
H13 C21 1_555 1_555
C22 C21 1_555 1_555
H14 C22 1_555 1_555
C23 C22 1_555 1_555
H15 C23 1_555 1_555
C24 C19 1_555 1_555
H16 C24 1_555 1_555
N5 Mn3 1_555 1_555
C25 C20 1_555 1_555
C26 C25 1_555 1_555
H17 C26 1_555 1_555
C27 C26 1_555 1_555
H18 C27 1_555 1_555
N6 Mn1 1_555 1_555
O4 Mn1 1_555 1_555
O5 Mn1 1_555 1_555
H19 O5 1_555 1_555
C28 O5 1_555 1_555
H20 C28 1_555 1_555
H21 C28 1_555 1_555
H22 C28 1_555 1_555
O6 Mn1 1_555 1_555
H23 O6 1_555 1_555
C29 O6 1_555 1_555
H24 C29 1_555 1_555
H25 C29 1_555 1_555
H26 C29 1_555 1_555
O7 Mn3 1_555 1_555
H27 O7 1_555 1_555
C30 O7 1_555 1_555
H28 C30 1_555 1_555
H29 C30 1_555 1_555
H30 C30 1_555 1_555
O8 Mn2 1_555 1_555
O9 C31 1_555 1_555
C31 O8 1_555 1_555
C32 C31 1_555 1_555
H31 C32 1_555 1_555
H32 C32 1_555 1_555
H33 C32 1_555 1_555
Mn3_2 O9 1_555 1_555
O9_2 Mn3 1_555 1_555
C5 C6 1_555 1_555
N1 C7 1_555 1_555
C9 N2 1_555 1_555
Mn2 O4 1_555 1_555
C14 C15 1_555 1_555
N3 C16 1_555 1_555
C18 N4 1_555 1_555
Mn3 O4 1_555 1_555
C23 C24 1_555 1_555
N5 C25 1_555 1_555
N5 N6 1_555 1_555
C27 N6 1_555 1_555

#END
