
#######################################################################
#
#                 Cambridge Crystallographic Data Centre
#                                CCDC 
#
#######################################################################
#
# If this CIF has been generated from an entry in the Cambridge 
# Structural Database, then it will include bibliographic, chemical, 
# crystal, experimental, refinement or atomic coordinate data resulting 
# from the CCDC's data processing and validation procedures.
#
#######################################################################

data_SEJNUR
_symmetry_cell_setting           monoclinic
_symmetry_space_group_name_H-M   'P 21/n'
_symmetry_Int_Tables_number      14
_space_group_name_Hall           '-P 2yn'
loop_
_symmetry_equiv_pos_site_id
_symmetry_equiv_pos_as_xyz
1 x,y,z
2 1/2-x,1/2+y,1/2-z
3 -x,-y,-z
4 1/2+x,1/2-y,1/2+z
_cell_length_a                   7.8026(16)
_cell_length_b                   24.457(5)
_cell_length_c                   21.302(4)
_cell_angle_alpha                90
_cell_angle_beta                 99.23(3)
_cell_angle_gamma                90
_cell_volume                     4012.39
loop_
_atom_site_label
_atom_site_type_symbol
_atom_site_fract_x
_atom_site_fract_y
_atom_site_fract_z
Mn1 Mn 0.48560(7) 0.68968(2) 0.56316(2)
Mn2 Mn 0.19803(7) 0.64893(2) 0.44080(2)
Mn3 Mn 0.30760(7) 0.77907(2) 0.45511(2)
O1 O 0.3293(3) 0.70575(9) 0.48694(11)
O2 O 0.6431(4) 0.67385(11) 0.63554(13)
N1 N 0.4186(4) 0.61271(12) 0.55664(14)
N2 N 0.2984(4) 0.59526(12) 0.50707(14)
C1 C 0.6791(5) 0.62740(16) 0.66868(18)
C2 C 0.7995(5) 0.63067(17) 0.72510(19)
H1 H 0.8494 0.6642 0.7378
C3 C 0.8450(5) 0.58482(17) 0.76206(18)
H2 H 0.9240 0.5882 0.7995
C4 C 0.7756(5) 0.53408(16) 0.74448(18)
C5 C 0.6575(5) 0.53039(16) 0.68877(18)
H3 H 0.6108 0.4964 0.6762
C6 C 0.6057(5) 0.57596(15) 0.65071(17)
C7 C 0.4765(5) 0.56963(15) 0.59329(17)
C8 C 0.3911(5) 0.52291(16) 0.56681(19)
H4 H 0.4043 0.4873 0.5821
C9 C 0.2822(5) 0.54091(15) 0.51279(19)
H5 H 0.2091 0.5187 0.4848
C10 C 0.8262(6) 0.48364(18) 0.7848(2)
H6 H 0.9091 0.4936 0.8213
H7 H 0.8768 0.4570 0.7601
H8 H 0.7249 0.4684 0.7984
O3 O 0.0722(3) 0.59317(11) 0.39670(12)
N3 N 0.1128(4) 0.69898(12) 0.37190(14)
N4 N 0.1653(4) 0.75245(12) 0.37409(14)
C11 C -0.0399(5) 0.59197(17) 0.34118(17)
C12 C -0.1289(5) 0.54303(18) 0.3259(2)
H9 H -0.1108 0.5135 0.3536
C13 C -0.2446(5) 0.53825(19) 0.2692(2)
H10 H -0.3026 0.5053 0.2597
C14 C -0.2753(5) 0.5813(2) 0.22671(19)
C15 C -0.1882(5) 0.62952(18) 0.24219(18)
H11 H -0.2079 0.6587 0.2140
C16 C -0.0699(5) 0.63655(16) 0.29930(17)
C17 C 0.0108(5) 0.68984(16) 0.31481(16)
C18 C 0.0005(5) 0.73872(17) 0.28036(18)
H12 H -0.0592 0.7447 0.2395
C19 C 0.0967(5) 0.77621(17) 0.31919(18)
H13 H 0.1118 0.8126 0.3089
C20 C -0.4051(6) 0.5760(2) 0.1662(2)
H14 H -0.4094 0.6096 0.1427
H15 H -0.5178 0.5682 0.1766
H16 H -0.3704 0.5468 0.1408
O4 O 0.2928(4) 0.85054(10) 0.42575(12)
N5 N 0.4407(4) 0.80489(12) 0.53523(14)
N6 N 0.5345(4) 0.76925(12) 0.57673(14)
C21 C 0.2913(5) 0.89694(15) 0.45953(17)
C22 C 0.2064(5) 0.94261(16) 0.43022(19)
H17 H 0.1511 0.9401 0.3883
C23 C 0.2030(5) 0.99149(16) 0.4624(2)
H18 H 0.1430 1.0210 0.4419
C24 C 0.2862(5) 0.99771(16) 0.5240(2)
C25 C 0.3712(5) 0.95274(16) 0.55364(19)
H19 H 0.4270 0.9561 0.5954
C26 C 0.3761(5) 0.90244(15) 0.52290(17)
C27 C 0.4655(5) 0.85624(15) 0.55734(17)
C28 C 0.5797(6) 0.85353(16) 0.61523(19)
H20 H 0.6217 0.8826 0.6415
C29 C 0.6165(6) 0.79893(16) 0.62506(19)
H21 H 0.6882 0.7847 0.6603
C30 C 0.2820(6) 1.05145(17) 0.5596(2)
H22 H 0.2180 1.0781 0.5322
H23 H 0.3985 1.0642 0.5729
H24 H 0.2267 1.0460 0.5963
O5 O 0.6945(3) 0.68167(12) 0.49446(15)
O6 O 0.9757(3) 0.67761(10) 0.49222(14)
C31 C 0.8345(5) 0.65592(15) 0.49996(18)
C32 C 0.8355(6) 0.59617(17) 0.5157(2)
H25 H 0.7204 0.5848 0.5204
H26 H 0.9130 0.5898 0.5548
H27 H 0.8737 0.5757 0.4821
O7 O 0.4431(4) 0.63058(13) 0.39604(14)
H28 H 0.5280 0.6469 0.4184
C33 C 0.4530(7) 0.6415(2) 0.3314(2)
H29 H 0.5651 0.6309 0.3225
H30 H 0.4357 0.6799 0.3232
H31 H 0.3647 0.6211 0.3046
O8 O 0.5596(4) 0.76269(11) 0.41622(13)
H32 H 0.6344 0.7468 0.4436
C34 C 0.6387(7) 0.7927(2) 0.3726(3)
H33 H 0.7440 0.7748 0.3662
H34 H 0.6651 0.8288 0.3890
H35 H 0.5612 0.7950 0.3329
O9 O 0.0509(4) 0.78367(12) 0.49571(19)
H36 H 0.0270 0.7522 0.5089
C35 C -0.0324(10) 0.8210(2) 0.5235(5)
H37 H -0.1381 0.8057 0.5334
H38 H -0.0590 0.8516 0.4954
H39 H 0.0392 0.8329 0.5619
O10 O 0.2521(5) 0.7038(2) 0.61811(19)
H40 H 0.1695 0.7033 0.5868
C36 C 0.1856(13) 0.6693(5) 0.6576(4)
H41 H 0.0889 0.6864 0.6725
H42 H 0.2732 0.6606 0.6932
H43 H 0.1474 0.6363 0.6351
Mn2_2 Mn 1.19803(7) 0.64893(2) 0.44080(2)
O6_2 O -0.0243(3) 0.67761(10) 0.49222(14)
loop_
_geom_bond_atom_site_label_1
_geom_bond_atom_site_label_2
_geom_bond_site_symmetry_1
_geom_bond_site_symmetry_2
Mn1 O1 1_555 1_555
Mn2 O1 1_555 1_555
Mn3 O1 1_555 1_555
O2 Mn1 1_555 1_555
N1 Mn1 1_555 1_555
N2 Mn2 1_555 1_555
C1 O2 1_555 1_555
C2 C1 1_555 1_555
H1 C2 1_555 1_555
C3 C2 1_555 1_555
H2 C3 1_555 1_555
C4 C3 1_555 1_555
C5 C4 1_555 1_555
H3 C5 1_555 1_555
C6 C1 1_555 1_555
C7 N1 1_555 1_555
C8 C7 1_555 1_555
H4 C8 1_555 1_555
C9 N2 1_555 1_555
H5 C9 1_555 1_555
C10 C4 1_555 1_555
H6 C10 1_555 1_555
H7 C10 1_555 1_555
H8 C10 1_555 1_555
O3 Mn2 1_555 1_555
N3 Mn2 1_555 1_555
N4 Mn3 1_555 1_555
C11 O3 1_555 1_555
C12 C11 1_555 1_555
H9 C12 1_555 1_555
C13 C12 1_555 1_555
H10 C13 1_555 1_555
C14 C13 1_555 1_555
C15 C14 1_555 1_555
H11 C15 1_555 1_555
C16 C11 1_555 1_555
C17 N3 1_555 1_555
C18 C17 1_555 1_555
H12 C18 1_555 1_555
C19 N4 1_555 1_555
H13 C19 1_555 1_555
C20 C14 1_555 1_555
H14 C20 1_555 1_555
H15 C20 1_555 1_555
H16 C20 1_555 1_555
O4 Mn3 1_555 1_555
N5 Mn3 1_555 1_555
N6 Mn1 1_555 1_555
C21 O4 1_555 1_555
C22 C21 1_555 1_555
H17 C22 1_555 1_555
C23 C22 1_555 1_555
H18 C23 1_555 1_555
C24 C23 1_555 1_555
C25 C24 1_555 1_555
H19 C25 1_555 1_555
C26 C21 1_555 1_555
C27 N5 1_555 1_555
C28 C27 1_555 1_555
H20 C28 1_555 1_555
C29 N6 1_555 1_555
H21 C29 1_555 1_555
C30 C24 1_555 1_555
H22 C30 1_555 1_555
H23 C30 1_555 1_555
H24 C30 1_555 1_555
O5 Mn1 1_555 1_555
O6 C31 1_555 1_555
C31 O5 1_555 1_555
C32 C31 1_555 1_555
H25 C32 1_555 1_555
H26 C32 1_555 1_555
H27 C32 1_555 1_555
O7 Mn2 1_555 1_555
H28 O7 1_555 1_555
C33 O7 1_555 1_555
H29 C33 1_555 1_555
H30 C33 1_555 1_555
H31 C33 1_555 1_555
O8 Mn3 1_555 1_555
H32 O8 1_555 1_555
C34 O8 1_555 1_555
H33 C34 1_555 1_555
H34 C34 1_555 1_555
H35 C34 1_555 1_555
O9 Mn3 1_555 1_555
H36 O9 1_555 1_555
C35 O9 1_555 1_555
H37 C35 1_555 1_555
H38 C35 1_555 1_555
H39 C35 1_555 1_555
O10 Mn1 1_555 1_555
H40 O10 1_555 1_555
C36 O10 1_555 1_555
H41 C36 1_555 1_555
H42 C36 1_555 1_555
H43 C36 1_555 1_555
Mn2_2 O6 1_555 1_555
O6_2 Mn2 1_555 1_555
N1 N2 1_555 1_555
C5 C6 1_555 1_555
C6 C7 1_555 1_555
C8 C9 1_555 1_555
N3 N4 1_555 1_555
C15 C16 1_555 1_555
C16 C17 1_555 1_555
C18 C19 1_555 1_555
N5 N6 1_555 1_555
C25 C26 1_555 1_555
C26 C27 1_555 1_555
C28 C29 1_555 1_555

#END
