
#######################################################################
#
#                 Cambridge Crystallographic Data Centre
#                                CCDC 
#
#######################################################################
#
# If this CIF has been generated from an entry in the Cambridge 
# Structural Database, then it will include bibliographic, chemical, 
# crystal, experimental, refinement or atomic coordinate data resulting 
# from the CCDC's data processing and validation procedures.
#
#######################################################################

data_SEJNOL
_symmetry_cell_setting           monoclinic
_symmetry_space_group_name_H-M   'P 21/n'
_symmetry_Int_Tables_number      14
_space_group_name_Hall           '-P 2yn'
loop_
_symmetry_equiv_pos_site_id
_symmetry_equiv_pos_as_xyz
1 x,y,z
2 1/2-x,1/2+y,1/2-z
3 -x,-y,-z
4 1/2+x,1/2-y,1/2+z
_cell_length_a                   20.309(4)
_cell_length_b                   7.6251(15)
_cell_length_c                   21.554(4)
_cell_angle_alpha                90
_cell_angle_beta                 91.78(3)
_cell_angle_gamma                90
_cell_volume                     3336.2
loop_
_atom_site_label
_atom_site_type_symbol
_atom_site_fract_x
_atom_site_fract_y
_atom_site_fract_z
Mn1 Mn 0.181719(18) 0.05752(5) 0.108078(17)
Mn2 Mn 0.223720(18) 0.30009(5) -0.010999(17)
Mn3 Mn 0.338222(18) 0.14451(5) 0.085411(17)
O1 O 0.24729(8) 0.1787(2) 0.06390(8)
O2 O 0.11863(9) -0.0077(3) 0.16329(8)
N1 N 0.11295(10) 0.1729(3) 0.05811(10)
N2 N 0.12882(11) 0.2768(3) 0.00900(10)
C1 C 0.05246(13) -0.0284(3) 0.15526(12)
C2 C 0.02119(14) -0.1403(4) 0.19679(13)
H1 H 0.0460 -0.1996 0.2271
C3 C -0.04620(16) -0.1628(4) 0.19295(15)
H2 H -0.0665 -0.2373 0.2207
C4 C -0.08411(15) -0.0747(5) 0.14789(15)
H3 H -0.1296 -0.0885 0.1459
C5 C -0.05349(14) 0.0331(4) 0.10629(14)
H4 H -0.0789 0.0910 0.0760
C6 C 0.01493(13) 0.0576(3) 0.10851(12)
C7 C 0.04653(13) 0.1654(3) 0.06173(12)
C8 C 0.01940(13) 0.2676(4) 0.01396(14)
H5 H -0.0251 0.2877 0.0050
C9 C 0.07237(14) 0.3331(4) -0.01736(14)
H6 H 0.0692 0.4061 -0.0519
O3 O 0.19947(9) 0.4157(3) -0.08307(9)
N3 N 0.31610(10) 0.3292(3) -0.03113(10)
N4 N 0.36444(11) 0.2591(3) 0.00632(10)
C10 C 0.23407(13) 0.4930(3) -0.12755(12)
C11 C 0.19764(14) 0.5816(4) -0.17405(13)
H7 H 0.1519 0.5827 -0.1731
C12 C 0.22886(15) 0.6674(4) -0.22139(12)
H8 H 0.2040 0.7273 -0.2515
C13 C 0.29675(15) 0.6648(4) -0.22421(13)
H9 H 0.3176 0.7217 -0.2563
C14 C 0.33351(14) 0.5766(4) -0.17872(12)
H10 H 0.3792 0.5748 -0.1808
C15 C 0.30334(13) 0.4901(3) -0.12968(11)
C16 C 0.34408(13) 0.4020(3) -0.08161(11)
C17 C 0.41215(14) 0.3782(4) -0.07571(13)
H11 H 0.4439 0.4144 -0.1031
C18 C 0.42203(14) 0.2892(4) -0.02035(14)
H12 H 0.4629 0.2550 -0.0039
O4 O 0.42647(9) 0.1217(3) 0.10846(9)
N5 N 0.31414(11) 0.0197(3) 0.16026(10)
N6 N 0.24955(11) -0.0103(3) 0.17230(10)
C19 C 0.45752(14) 0.0335(4) 0.15468(12)
C20 C 0.52645(15) 0.0313(4) 0.15500(14)
H13 H 0.5484 0.0931 0.1247
C21 C 0.56250(15) -0.0613(5) 0.19960(16)
H14 H 0.6083 -0.0629 0.1988
C22 C 0.53019(17) -0.1521(4) 0.24572(17)
H15 H 0.5541 -0.2167 0.2753
C23 C 0.46217(15) -0.1454(4) 0.24721(14)
H16 H 0.4408 -0.2028 0.2789
C24 C 0.42480(14) -0.0540(3) 0.20200(12)
C25 C 0.35267(14) -0.0571(3) 0.20428(13)
C26 C 0.31124(15) -0.1405(4) 0.24596(14)
H17 H 0.3239 -0.2050 0.2810
C27 C 0.24781(15) -0.1071(4) 0.22429(13)
H18 H 0.2097 -0.1457 0.2428
O5 O 0.19059(11) -0.1681(2) 0.05113(9)
O6 O 0.24073(11) -0.4230(3) 0.04608(11)
C28 C 0.14727(19) -0.4013(4) 0.11031(17)
H19 H 0.1568 -0.5230 0.1176
H20 H 0.1035 -0.3897 0.0927
H21 H 0.1505 -0.3384 0.1489
C29 C 0.19586(14) -0.3273(3) 0.06603(13)
O7 O 0.22029(10) 0.0316(2) -0.05630(8)
H22 H 0.2194 -0.0471 -0.0284
C30 C 0.26645(17) -0.0177(4) -0.10246(14)
H23 H 0.2575 -0.1355 -0.1160
H24 H 0.3104 -0.0113 -0.0850
H25 H 0.2623 0.0606 -0.1372
O8 O 0.33765(10) -0.1290(3) 0.03508(10)
H26 H 0.3131 -0.2039 0.0522
C31 C 0.39413(17) -0.2054(5) 0.00905(18)
H27 H 0.3826 -0.3167 -0.0091
H28 H 0.4276 -0.2220 0.0410
H29 H 0.4105 -0.1292 -0.0224
O9 O 0.32981(10) 0.4087(3) 0.13098(9)
H30 H 0.3061 0.4720 0.1067
C32 C 0.38420(19) 0.5141(5) 0.15173(19)
H31 H 0.3682 0.6208 0.1695
H32 H 0.4111 0.5416 0.1172
H33 H 0.4099 0.4510 0.1824
Mn2_2 Mn 0.223720(18) -0.69991(5) -0.010999(17)
O6_2 O 0.24073(11) 0.5770(3) 0.04608(11)
loop_
_geom_bond_atom_site_label_1
_geom_bond_atom_site_label_2
_geom_bond_site_symmetry_1
_geom_bond_site_symmetry_2
Mn1 O1 1_555 1_555
Mn2 O1 1_555 1_555
Mn3 O1 1_555 1_555
O2 Mn1 1_555 1_555
N1 Mn1 1_555 1_555
N2 Mn2 1_555 1_555
C1 O2 1_555 1_555
C2 C1 1_555 1_555
H1 C2 1_555 1_555
C3 C2 1_555 1_555
H2 C3 1_555 1_555
C4 C3 1_555 1_555
H3 C4 1_555 1_555
C5 C4 1_555 1_555
H4 C5 1_555 1_555
C6 C1 1_555 1_555
C7 N1 1_555 1_555
C8 C7 1_555 1_555
H5 C8 1_555 1_555
C9 N2 1_555 1_555
H6 C9 1_555 1_555
O3 Mn2 1_555 1_555
N3 Mn2 1_555 1_555
N4 Mn3 1_555 1_555
C10 O3 1_555 1_555
C11 C10 1_555 1_555
H7 C11 1_555 1_555
C12 C11 1_555 1_555
H8 C12 1_555 1_555
C13 C12 1_555 1_555
H9 C13 1_555 1_555
C14 C13 1_555 1_555
H10 C14 1_555 1_555
C15 C10 1_555 1_555
C16 N3 1_555 1_555
C17 C16 1_555 1_555
H11 C17 1_555 1_555
C18 N4 1_555 1_555
H12 C18 1_555 1_555
O4 Mn3 1_555 1_555
N5 Mn3 1_555 1_555
N6 Mn1 1_555 1_555
C19 O4 1_555 1_555
C20 C19 1_555 1_555
H13 C20 1_555 1_555
C21 C20 1_555 1_555
H14 C21 1_555 1_555
C22 C21 1_555 1_555
H15 C22 1_555 1_555
C23 C22 1_555 1_555
H16 C23 1_555 1_555
C24 C19 1_555 1_555
C25 N5 1_555 1_555
C26 C25 1_555 1_555
H17 C26 1_555 1_555
C27 N6 1_555 1_555
H18 C27 1_555 1_555
O5 Mn1 1_555 1_555
O6 C29 1_555 1_555
C28 H19 1_555 1_555
H20 C28 1_555 1_555
H21 C28 1_555 1_555
C29 O5 1_555 1_555
O7 Mn2 1_555 1_555
H22 O7 1_555 1_555
C30 O7 1_555 1_555
H23 C30 1_555 1_555
H24 C30 1_555 1_555
H25 C30 1_555 1_555
O8 Mn3 1_555 1_555
H26 O8 1_555 1_555
C31 O8 1_555 1_555
H27 C31 1_555 1_555
H28 C31 1_555 1_555
H29 C31 1_555 1_555
O9 Mn3 1_555 1_555
H30 O9 1_555 1_555
C32 O9 1_555 1_555
H31 C32 1_555 1_555
H32 C32 1_555 1_555
H33 C32 1_555 1_555
Mn2_2 O6 1_555 1_555
O6_2 Mn2 1_555 1_555
N1 N2 1_555 1_555
C5 C6 1_555 1_555
C6 C7 1_555 1_555
C8 C9 1_555 1_555
N3 N4 1_555 1_555
C14 C15 1_555 1_555
C15 C16 1_555 1_555
C17 C18 1_555 1_555
N5 N6 1_555 1_555
C23 C24 1_555 1_555
C24 C25 1_555 1_555
C26 C27 1_555 1_555
C28 C29 1_555 1_555

#END
