
#######################################################################
#
#                 Cambridge Crystallographic Data Centre
#                                CCDC 
#
#######################################################################
#
# If this CIF has been generated from an entry in the Cambridge 
# Structural Database, then it will include bibliographic, chemical, 
# crystal, experimental, refinement or atomic coordinate data resulting 
# from the CCDC's data processing and validation procedures.
#
#######################################################################

data_SEJSIK
_symmetry_cell_setting           triclinic
_symmetry_space_group_name_H-M   'P -1'
_symmetry_Int_Tables_number      2
_space_group_name_Hall           '-P 1'
loop_
_symmetry_equiv_pos_site_id
_symmetry_equiv_pos_as_xyz
1 x,y,z
2 -x,-y,-z
_cell_length_a                   9.5072(10)
_cell_length_b                   10.2779(10)
_cell_length_c                   13.497(2)
_cell_angle_alpha                78.693(10)
_cell_angle_beta                 71.953(10)
_cell_angle_gamma                82.483(10)
_cell_volume                     1226.15
loop_
_atom_site_label
_atom_site_type_symbol
_atom_site_fract_x
_atom_site_fract_y
_atom_site_fract_z
C1 C 0.1315(8) 0.4819(7) 0.1640(6)
H1 H 0.037 0.521 0.203
H2 H 0.1118 0.412 0.1322
C2 C 0.2140(7) 0.5886(7) 0.0770(5)
H3 H 0.208 0.6698 0.1064
C3 C 0.1457(8) 0.6199(7) -0.0142(6)
H4 H 0.0428 0.6531 0.0107
H5 H 0.1492 0.5399 -0.0432
C4 C 0.2457(8) 0.5228(8) 0.2947(6)
H6 H 0.2107 0.4901 0.3699
H7 H 0.1863 0.6044 0.2801
C5 C 0.4059(9) 0.5555(7) 0.2675(6)
C6 C 0.1449(9) 0.3112(7) 0.3116(6)
H8 H 0.0401 0.3376 0.3383
H9 H 0.1851 0.2897 0.3712
C7 C 0.1623(8) 0.1881(7) 0.2615(6)
C8 C 0.1800(8) 0.8587(7) -0.0748(7)
H10 H 0.1422 0.9075 -0.1316
H11 H 0.0982 0.8535 -0.0102
C9 C 0.2970(8) 0.9369(7) -0.0635(6)
C10 C 0.2284(8) 0.7112(7) -0.2028(6)
H12 H 0.2313 0.6181 -0.2082
H13 H 0.1365 0.7547 -0.2142
C11 C 0.3581(8) 0.7738(7) -0.2878(6)
N1 N 0.2198(6) 0.4240(5) 0.2376(4)
N2 N 0.2307(6) 0.7217(6) -0.0967(5)
O1 O 0.3635(5) 0.5437(5) 0.0384(4)
O2 O 0.5067(6) 0.4947(5) 0.2061(4)
O3 O 0.3685(8) 0.2921(6) -0.0416(5)
O4 O 0.4261(7) 0.6458(7) 0.3103(6)
O5 O -0.0458(9) 0.1874(8) 0.5518(5)
O6 O 0.2732(6) 0.1746(5) 0.1829(4)
O8 O 0.0678(7) 0.1054(6) 0.3048(5)
O9 O 0.1167(7) -0.1260(7) 0.2260(6)
O10 O 0.4086(5) 0.8750(5) -0.0415(4)
O12 O 0.2709(7) 1.0608(5) -0.0724(6)
O14 O 0.4687(6) 0.7951(5) -0.2611(4)
O15 O 0.4226(8) -0.0410(6) 0.3534(5)
O16 O 0.3515(7) 0.7989(6) -0.3803(4)
O17 O -0.3654(9) -0.1685(8) 0.4694(6)
K1 K 0.4049(2) -0.08639(17) 0.16178(14)
K2 K -0.1776(2) 0.00890(19) 0.47205(16)
Nd1 Nd 0.47055(4) 0.33430(3) 0.10266(3)
H14 H 0.384(8) 0.347(6) -0.099(3)
H15 H 0.315(7) 0.235(6) -0.046(6)
H16 H -0.079(8) 0.169(8) 0.6185(18)
H17 H -0.092(8) 0.253(5) 0.524(6)
H20 H 0.106(8) -0.046(3) 0.236(6)
H21 H 0.040(5) -0.138(8) 0.210(6)
H26 H 0.447(8) 0.038(3) 0.331(6)
H27 H 0.493(6) -0.083(7) 0.375(6)
H28 H -0.432(6) -0.201(7) 0.523(4)
H29 H -0.348(9) -0.242(4) 0.448(6)
N2A N 0.7693(6) 0.2783(6) 0.0967(5)
O1A O 0.6365(5) 0.4563(5) -0.0384(4)
O5A O 0.0458(9) -0.1874(8) 0.4482(5)
O10A O 0.5914(5) 0.1250(5) 0.0415(4)
O10_2 O 0.4086(5) -0.1250(5) -0.0415(4)
O14A O 0.5313(6) 0.2049(5) 0.2611(4)
O15A O -0.4226(8) 0.0410(6) 0.6466(5)
O16A O -0.3515(7) 0.2011(6) 0.3803(4)
K1A K 0.5951(2) 1.08639(17) -0.16178(14)
K1_2 K 0.4049(2) 0.91361(17) 0.16178(14)
K2A K 0.1776(2) -0.00890(19) 0.52795(16)
K2A_2 K 0.1776(2) 0.99110(19) -0.47205(16)
Nd1A Nd 0.52945(4) 0.66570(3) -0.10266(3)
O7 O 0.2582(8) -0.3715(7) 0.5235(6)
H18 H 0.292(8) -0.329(7) 0.558(5)
H19 H 0.334(6) -0.373(8) 0.470(4)
O11 O 0.6967(9) -0.3784(7) 0.3541(7)
H22 H 0.714(9) -0.450(5) 0.393(5)
H23 H 0.613(5) -0.375(8) 0.343(6)
O13 O 0.8916(9) -0.2220(9) 0.1877(7)
H24 H 0.836(7) -0.175(7) 0.153(5)
H25 H 0.833(7) -0.270(7) 0.238(4)
loop_
_geom_bond_atom_site_label_1
_geom_bond_atom_site_label_2
_geom_bond_site_symmetry_1
_geom_bond_site_symmetry_2
C1 H1 1_555 1_555
H2 C1 1_555 1_555
C2 C1 1_555 1_555
H3 C2 1_555 1_555
C3 C2 1_555 1_555
H4 C3 1_555 1_555
H5 C3 1_555 1_555
C4 H6 1_555 1_555
H7 C4 1_555 1_555
C5 C4 1_555 1_555
C6 H8 1_555 1_555
H9 C6 1_555 1_555
C7 C6 1_555 1_555
C8 H10 1_555 1_555
H11 C8 1_555 1_555
C9 C8 1_555 1_555
C10 H12 1_555 1_555
H13 C10 1_555 1_555
C11 C10 1_555 1_555
N1 C1 1_555 1_555
N2 C3 1_555 1_555
O1 C2 1_555 1_555
O2 C5 1_555 1_555
O3 Nd1 1_555 1_555
O4 C5 1_555 1_555
O5 K2 1_555 1_555
O6 C7 1_555 1_555
O7 H18 1_555 1_555
O8 C7 1_555 1_555
O9 K1 1_555 1_555
O10 C9 1_555 1_555
O11 H22 1_555 1_555
O12 C9 1_555 1_555
O13 H24 1_555 1_555
O14 C11 1_555 1_555
O15 K1 1_555 1_555
O16 C11 1_555 1_555
O17 K2 1_555 1_555
K1 O6 1_555 1_555
K2 O8 1_555 1_555
Nd1 N1 1_555 1_555
H14 O3 1_555 1_555
H15 O3 1_555 1_555
H16 O5 1_555 1_555
H17 O5 1_555 1_555
H19 O7 1_555 1_555
H20 O9 1_555 1_555
H21 O9 1_555 1_555
H23 O11 1_555 1_555
H25 O13 1_555 1_555
H26 O15 1_555 1_555
H27 O15 1_555 1_555
H28 O17 1_555 1_555
H29 O17 1_555 1_555
N2A Nd1 1_555 1_555
O1A Nd1 1_555 1_555
O5A K2 1_555 1_555
O10A K1 1_555 1_555
O10_2 K1 1_555 1_555
O14A Nd1 1_555 1_555
O15A K2 1_555 1_555
O16A K2 1_555 1_555
K1A O10 1_555 1_555
K1_2 O10 1_555 1_555
K2A O5 1_555 1_555
K2A_2 O16 1_555 1_555
Nd1A N2 1_555 1_555
C4 N1 1_555 1_555
C6 N1 1_555 1_555
C8 N2 1_555 1_555
C10 N2 1_555 1_555
O1 Nd1 1_555 1_555
O1 Nd1A 1_555 1_555
O2 Nd1 1_555 1_555
O6 Nd1 1_555 1_555
O10 Nd1A 1_555 1_555
O14 Nd1A 1_555 1_555
O15 K2A 1_555 1_555
Nd1 O10A 1_555 1_555
O1A Nd1A 1_555 1_555
O5A K2A 1_555 1_555

#END
