
#######################################################################
#
#                 Cambridge Crystallographic Data Centre
#                                CCDC 
#
#######################################################################
#
# If this CIF has been generated from an entry in the Cambridge 
# Structural Database, then it will include bibliographic, chemical, 
# crystal, experimental, refinement or atomic coordinate data resulting 
# from the CCDC's data processing and validation procedures.
#
#######################################################################

data_SEJSUW
_symmetry_cell_setting           orthorhombic
_symmetry_space_group_name_H-M   'P 21 21 21'
_symmetry_Int_Tables_number      19
_space_group_name_Hall           'P 2ac 2ab'
loop_
_symmetry_equiv_pos_site_id
_symmetry_equiv_pos_as_xyz
1 x,y,z
2 1/2-x,-y,1/2+z
3 1/2+x,1/2-y,-z
4 -x,1/2+y,1/2-z
_cell_length_a                   7.7540(10)
_cell_length_b                   8.8750(10)
_cell_length_c                   8.9870(10)
_cell_angle_alpha                90
_cell_angle_beta                 90
_cell_angle_gamma                90
_cell_volume                     618.456
loop_
_atom_site_label
_atom_site_type_symbol
_atom_site_fract_x
_atom_site_fract_y
_atom_site_fract_z
Co1 Co 0.09368(4) 0.07047(4) -0.11082(3)
O1 O -0.4154(3) -0.10241(19) 0.2270(2)
O2 O -0.4238(3) -0.34586(19) 0.1751(2)
O3 O 0.0730(2) 0.3123(2) -0.0461(2)
H1 H 0.035(4) 0.363(4) -0.119(2)
H2 H 0.004(3) 0.317(4) 0.027(2)
O4 O 0.1669(2) -0.1184(2) 0.3028(2)
O5 O -0.1186(2) 0.0320(2) 0.0344(2)
H3 H -0.2302 0.0720 0.0157
O6 O 0.2080(2) 0.0030(2) 0.0882(2)
C1 C -0.0813(3) -0.0579(3) 0.1615(3)
H4 H -0.1355 -0.0094 0.2504
C2 C -0.3454(3) -0.2223(3) 0.1825(3)
C3 C 0.1135(3) -0.0588(3) 0.1836(2)
C4 C -0.1556(3) -0.2157(3) 0.1451(3)
H5 H -0.1386 -0.2504 0.0415
H6 H -0.0920 -0.2852 0.2115
Co1A Co 0.40632(4) -0.07047(4) 0.38918(3)
Co1A_2 Co -0.59368(4) -0.07047(4) 0.38918(3)
Co1B Co -0.40632(4) -0.57047(4) 0.11082(3)
O1A O -0.0846(3) 0.10241(19) -0.2730(2)
O2B O 0.0762(3) -0.15414(19) -0.1751(2)
O4A O 0.3331(2) 0.1184(2) -0.1972(2)
loop_
_geom_bond_atom_site_label_1
_geom_bond_atom_site_label_2
_geom_bond_site_symmetry_1
_geom_bond_site_symmetry_2
Co1 O3 1_555 1_555
O1 C2 1_555 1_555
O2 C2 1_555 1_555
O3 H1 1_555 1_555
H2 O3 1_555 1_555
O4 C3 1_555 1_555
O5 Co1 1_555 1_555
H3 O5 1_555 1_555
O6 Co1 1_555 1_555
C1 O5 1_555 1_555
H4 C1 1_555 1_555
C2 C4 1_555 1_555
C3 O6 1_555 1_555
C4 C1 1_555 1_555
H5 C4 1_555 1_555
H6 C4 1_555 1_555
Co1A O4 1_555 1_555
Co1A_2 O1 1_555 1_555
Co1B O2 1_555 1_555
O1A Co1 1_555 1_555
O2B Co1 1_555 1_555
O4A Co1 1_555 1_555
C1 C3 1_555 1_555

#END
