
#######################################################################
#
#                 Cambridge Crystallographic Data Centre
#                                CCDC 
#
#######################################################################
#
# If this CIF has been generated from an entry in the Cambridge 
# Structural Database, then it will include bibliographic, chemical, 
# crystal, experimental, refinement or atomic coordinate data resulting 
# from the CCDC's data processing and validation procedures.
#
#######################################################################

data_SEJTEH
_symmetry_cell_setting           monoclinic
_symmetry_space_group_name_H-M   'P 21/c'
_symmetry_Int_Tables_number      14
_space_group_name_Hall           '-P 2ybc'
loop_
_symmetry_equiv_pos_site_id
_symmetry_equiv_pos_as_xyz
1 x,y,z
2 -x,1/2+y,1/2-z
3 -x,-y,-z
4 x,1/2-y,1/2+z
_cell_length_a                   14.296(3)
_cell_length_b                   6.899(2)
_cell_length_c                   22.434(5)
_cell_angle_alpha                90
_cell_angle_beta                 119.66(5)
_cell_angle_gamma                90
_cell_volume                     1922.72
loop_
_atom_site_label
_atom_site_type_symbol
_atom_site_fract_x
_atom_site_fract_y
_atom_site_fract_z
Co1 Co -0.50664(5) -0.00037(11) 0.34432(3)
O1 O -0.6423(3) 0.1719(5) 0.45891(17)
O2 O -0.4227(3) 0.2260(5) 0.33523(17)
O3 O -0.5862(3) -0.2140(5) 0.37637(17)
O4 O -0.3440(3) 0.5664(5) 0.25052(16)
O5 O -0.4918(3) 0.3068(5) 0.22466(17)
C1 C -0.4242(4) 0.3222(7) 0.2876(2)
O6 O -0.3646(3) -0.1116(6) 0.42507(17)
C2 C -0.3321(4) 0.4690(7) 0.3107(2)
H1 H -0.3371 0.5660 0.3421
C3 C -0.8250(4) -0.1302(9) 0.3387(3)
H2 H -0.8136 -0.0226 0.3165
C4 C -0.2247(4) 0.3673(8) 0.3476(3)
C5 C -0.7387(4) -0.2106(8) 0.3964(2)
C6 C -0.6106(4) 0.0783(7) 0.4249(2)
C7 C -0.6245(4) -0.1435(7) 0.4211(2)
H3 H -0.5773 -0.1980 0.4680
O7 O -0.5636(3) 0.1529(5) 0.39527(17)
C8 C -0.2852(4) 0.7448(8) 0.2659(3)
H4 H -0.2959 0.8041 0.2233
H5 H -0.2084 0.7189 0.2962
H6 H -0.3110 0.8333 0.2888
C9 C -0.5579(5) -0.4164(8) 0.3876(3)
H7 H -0.5316 -0.4580 0.3567
H8 H -0.6215 -0.4927 0.3784
H9 H -0.5014 -0.4360 0.4353
C10 C -0.1941(4) 0.2487(9) 0.3106(3)
H10 H -0.2383 0.2386 0.2622
C11 C -0.7577(5) -0.3634(10) 0.4285(3)
H11 H -0.6995 -0.4198 0.4681
C12 C -0.1587(5) 0.3819(9) 0.4181(3)
H12 H -0.1786 0.4635 0.4440
C13 C -0.2575(4) -0.0571(9) 0.4427(3)
H13 H -0.2059 -0.1307 0.4831
H14 H -0.2475 0.0818 0.4531
H15 H -0.2457 -0.0852 0.4042
C14 C -0.9281(5) -0.2063(10) 0.3130(3)
H16 H -0.9865 -0.1533 0.2726
C15 C -0.8610(6) -0.4356(11) 0.4035(4)
H17 H -0.8734 -0.5397 0.4264
C16 C -0.0988(5) 0.1446(10) 0.3441(4)
H18 H -0.0779 0.0637 0.3184
C17 C -0.0627(5) 0.2764(11) 0.4509(4)
H19 H -0.0171 0.2876 0.4991
C18 C -0.9450(5) -0.3572(11) 0.3459(4)
H20 H -1.0155 -0.4080 0.3286
C19 C -0.0345(5) 0.1573(12) 0.4138(5)
H21 H 0.0298 0.0832 0.4364
H22 H -0.3507 -0.1456 0.4682
Co1A Co -0.49336(5) 0.49963(11) 0.15568(3)
O4A O -0.6560(3) 0.0664(5) 0.24948(16)
O5A O -0.5082(3) -0.1932(5) 0.27534(17)
loop_
_geom_bond_atom_site_label_1
_geom_bond_atom_site_label_2
_geom_bond_site_symmetry_1
_geom_bond_site_symmetry_2
Co1 O2 1_555 1_555
O1 C6 1_555 1_555
O2 C1 1_555 1_555
O3 Co1 1_555 1_555
O4 C2 1_555 1_555
O5 C1 1_555 1_555
C1 C2 1_555 1_555
O6 Co1 1_555 1_555
C2 H1 1_555 1_555
C3 H2 1_555 1_555
C4 C2 1_555 1_555
C5 C3 1_555 1_555
C6 C7 1_555 1_555
C7 O3 1_555 1_555
H3 C7 1_555 1_555
O7 Co1 1_555 1_555
C8 O4 1_555 1_555
H4 C8 1_555 1_555
H5 C8 1_555 1_555
H6 C8 1_555 1_555
C9 O3 1_555 1_555
H7 C9 1_555 1_555
H8 C9 1_555 1_555
H9 C9 1_555 1_555
C10 C4 1_555 1_555
H10 C10 1_555 1_555
C11 C5 1_555 1_555
H11 C11 1_555 1_555
C12 C4 1_555 1_555
H12 C12 1_555 1_555
C13 O6 1_555 1_555
H13 C13 1_555 1_555
H14 C13 1_555 1_555
H15 C13 1_555 1_555
C14 C3 1_555 1_555
H16 C14 1_555 1_555
C15 C11 1_555 1_555
H17 C15 1_555 1_555
C16 C10 1_555 1_555
H18 C16 1_555 1_555
C17 C12 1_555 1_555
H19 C17 1_555 1_555
C18 C14 1_555 1_555
H20 C18 1_555 1_555
C19 C16 1_555 1_555
H21 C19 1_555 1_555
H22 O6 1_555 1_555
Co1A O4 1_555 1_555
O4A Co1 1_555 1_555
O5A Co1 1_555 1_555
O5 Co1A 1_555 1_555
C5 C7 1_555 1_555
C6 O7 1_555 1_555
C15 C18 1_555 1_555
C17 C19 1_555 1_555

#END
