
#######################################################################
#
#                 Cambridge Crystallographic Data Centre
#                                CCDC 
#
#######################################################################
#
# If this CIF has been generated from an entry in the Cambridge 
# Structural Database, then it will include bibliographic, chemical, 
# crystal, experimental, refinement or atomic coordinate data resulting 
# from the CCDC's data processing and validation procedures.
#
#######################################################################

data_SEJTAD
_symmetry_cell_setting           orthorhombic
_symmetry_space_group_name_H-M   'P 21 21 21'
_symmetry_Int_Tables_number      19
_space_group_name_Hall           'P 2ac 2ab'
loop_
_symmetry_equiv_pos_site_id
_symmetry_equiv_pos_as_xyz
1 x,y,z
2 1/2-x,-y,1/2+z
3 1/2+x,1/2-y,-z
4 -x,1/2+y,1/2-z
_cell_length_a                   7.8600(10)
_cell_length_b                   8.9230(10)
_cell_length_c                   8.9840(10)
_cell_angle_alpha                90
_cell_angle_beta                 90
_cell_angle_gamma                90
_cell_volume                     630.091
loop_
_atom_site_label
_atom_site_type_symbol
_atom_site_fract_x
_atom_site_fract_y
_atom_site_fract_z
Fe1 Fe 0.09692(3) 0.07052(3) -0.11179(3)
O1 O -0.42195(18) -0.34299(15) 0.17398(16)
O2 O 0.07459(17) 0.31426(15) -0.04692(17)
H1 H 0.001(3) 0.315(3) 0.022(2)
H2 H 0.041(4) 0.366(3) -0.121(2)
O3 O -0.41632(17) -0.10081(14) 0.22693(16)
C1 C -0.0849(2) -0.05505(19) 0.1644(2)
H3 H -0.1400 -0.0060 0.2522
O4 O 0.20292(16) 0.00293(15) 0.09408(15)
C2 C 0.1078(2) -0.05631(19) 0.1889(2)
O5 O 0.15787(17) -0.11507(15) 0.30990(15)
C3 C -0.3458(2) -0.2200(2) 0.1834(2)
O6 O -0.11858(18) 0.03279(16) 0.03591(16)
H4 H -0.2283 0.0726 0.0156
C4 C -0.1569(2) -0.2129(2) 0.1484(2)
H5 H -0.1379 -0.2484 0.0453
H6 H -0.0950 -0.2812 0.2163
Fe1A Fe 0.40308(3) -0.07052(3) 0.38821(3)
Fe1B Fe -0.40308(3) -0.57052(3) 0.11179(3)
Fe1A_2 Fe -0.59692(3) -0.07052(3) 0.38821(3)
O1B O 0.07805(18) -0.15701(15) -0.17398(16)
O3A O -0.08368(17) 0.10081(14) -0.27307(16)
O5A O 0.34213(17) 0.11507(15) -0.19010(15)
loop_
_geom_bond_atom_site_label_1
_geom_bond_atom_site_label_2
_geom_bond_site_symmetry_1
_geom_bond_site_symmetry_2
Fe1 O2 1_555 1_555
O1 C3 1_555 1_555
O2 H1 1_555 1_555
H2 O2 1_555 1_555
O3 C3 1_555 1_555
C1 H3 1_555 1_555
O4 Fe1 1_555 1_555
C2 C1 1_555 1_555
O5 C2 1_555 1_555
C3 C4 1_555 1_555
O6 Fe1 1_555 1_555
H4 O6 1_555 1_555
C4 C1 1_555 1_555
H5 C4 1_555 1_555
H6 C4 1_555 1_555
Fe1A O5 1_555 1_555
Fe1B O1 1_555 1_555
Fe1A_2 O3 1_555 1_555
O1B Fe1 1_555 1_555
O3A Fe1 1_555 1_555
O5A Fe1 1_555 1_555
C1 O6 1_555 1_555
O4 C2 1_555 1_555

#END
