
#######################################################################
#
#                 Cambridge Crystallographic Data Centre
#                                CCDC 
#
#######################################################################
#
# If this CIF has been generated from an entry in the Cambridge 
# Structural Database, then it will include bibliographic, chemical, 
# crystal, experimental, refinement or atomic coordinate data resulting 
# from the CCDC's data processing and validation procedures.
#
#######################################################################

data_SEJTIL
_symmetry_cell_setting           monoclinic
_symmetry_space_group_name_H-M   'C c'
_symmetry_Int_Tables_number      9
_space_group_name_Hall           'C -2yc'
loop_
_symmetry_equiv_pos_site_id
_symmetry_equiv_pos_as_xyz
1 x,y,z
2 x,-y,1/2+z
3 1/2+x,1/2+y,z
4 1/2+x,1/2-y,1/2+z
_cell_length_a                   9.336(5)
_cell_length_b                   25.970(9)
_cell_length_c                   8.250(5)
_cell_angle_alpha                90
_cell_angle_beta                 106.045(5)
_cell_angle_gamma                90
_cell_volume                     1922.34
loop_
_atom_site_label
_atom_site_type_symbol
_atom_site_fract_x
_atom_site_fract_y
_atom_site_fract_z
Cu1 Cu -0.05962(9) 0.27298(3) 0.43434(9)
O1 O 0.0482(8) 0.2721(2) 0.2641(9)
O2 O 0.1689(6) 0.3125(2) 0.1052(7)
O3 O -0.0800(5) 0.3569(2) 0.3258(7)
O4 O 0.2524(6) 0.2467(2) 0.7613(6)
O5 O 0.1092(5) 0.3059(2) 0.5985(7)
O6 O 0.4396(8) 0.31584(18) 0.9327(9)
O7 O -0.1787(8) 0.2724(2) 0.5982(9)
H1 H -0.2805 0.2629 0.5565
C1 C 0.0884(8) 0.3120(3) 0.2035(9)
C2 C 0.0371(8) 0.3646(3) 0.2525(9)
H2 H 0.1222 0.3806 0.3392
C3 C -0.0067(8) 0.4008(3) 0.1014(9)
C4 C 0.0906(9) 0.4344(4) 0.0653(11)
H3 H 0.1891 0.4364 0.1378
C5 C 0.0486(11) 0.4666(4) -0.0779(13)
H4 H 0.1193 0.4890 -0.1044
C6 C -0.0954(13) 0.4651(4) -0.1783(13)
H5 H -0.1244 0.4867 -0.2749
C7 C -0.1967(12) 0.4332(5) -0.1412(12)
H6 H -0.2970 0.4330 -0.2094
C8 C -0.1523(10) 0.4001(3) -0.0006(12)
H7 H -0.2226 0.3772 0.0245
C9 C -0.0960(8) 0.3986(3) 0.4341(13)
H8 H -0.1789 0.3913 0.4820
H9 H -0.0038 0.4024 0.5254
H10 H -0.1162 0.4306 0.3685
C10 C 0.2212(9) 0.2908(3) 0.7150(9)
C11 C 0.3139(8) 0.3375(3) 0.8033(9)
H11 H 0.2519 0.3592 0.8581
C12 C 0.3717(8) 0.3697(3) 0.6870(9)
C13 C 0.3430(9) 0.4218(4) 0.6702(12)
H12 H 0.2834 0.4375 0.7328
C14 C 0.4014(12) 0.4521(4) 0.5606(16)
H13 H 0.3805 0.4879 0.5504
C15 C 0.4851(12) 0.4309(6) 0.4721(13)
H14 H 0.5229 0.4515 0.3982
C16 C 0.5172(10) 0.3788(5) 0.4875(11)
H15 H 0.5786 0.3635 0.4261
C17 C 0.4580(9) 0.3489(4) 0.5945(11)
H16 H 0.4784 0.3130 0.6030
C18 C 0.4937(9) 0.3502(4) 1.0709(10)
H17 H 0.5202 0.3832 1.0292
H18 H 0.5819 0.3352 1.1503
H19 H 0.4160 0.3558 1.1283
C19 C -0.1270(12) 0.2848(5) 0.7729(12)
H20 H -0.1474 0.3211 0.7895
H21 H -0.1785 0.2632 0.8365
H22 H -0.0194 0.2785 0.8130
Cu1C Cu 0.44038(9) 0.22702(3) 0.93434(9)
O4C O -0.2476(6) 0.2533(2) 0.2613(6)
O6C O -0.0604(8) 0.18416(18) 0.4327(9)
loop_
_geom_bond_atom_site_label_1
_geom_bond_atom_site_label_2
_geom_bond_site_symmetry_1
_geom_bond_site_symmetry_2
Cu1 O1 1_555 1_555
O1 C1 1_555 1_555
O2 C1 1_555 1_555
O3 Cu1 1_555 1_555
O4 C10 1_555 1_555
O5 Cu1 1_555 1_555
O6 C11 1_555 1_555
O7 Cu1 1_555 1_555
H1 O7 1_555 1_555
C1 C2 1_555 1_555
C2 O3 1_555 1_555
H2 C2 1_555 1_555
C3 C2 1_555 1_555
C4 C3 1_555 1_555
H3 C4 1_555 1_555
C5 C4 1_555 1_555
H4 C5 1_555 1_555
C6 C5 1_555 1_555
H5 C6 1_555 1_555
C7 C6 1_555 1_555
H6 C7 1_555 1_555
C8 C3 1_555 1_555
H7 C8 1_555 1_555
C9 O3 1_555 1_555
H8 C9 1_555 1_555
H9 C9 1_555 1_555
H10 C9 1_555 1_555
C10 O5 1_555 1_555
C11 C10 1_555 1_555
H11 C11 1_555 1_555
C12 C11 1_555 1_555
C13 C12 1_555 1_555
H12 C13 1_555 1_555
C14 C13 1_555 1_555
H13 C14 1_555 1_555
C15 C14 1_555 1_555
H14 C15 1_555 1_555
C16 C15 1_555 1_555
H15 C16 1_555 1_555
C17 C12 1_555 1_555
H16 C17 1_555 1_555
C18 O6 1_555 1_555
H17 C18 1_555 1_555
H18 C18 1_555 1_555
H19 C18 1_555 1_555
C19 O7 1_555 1_555
H20 C19 1_555 1_555
H21 C19 1_555 1_555
H22 C19 1_555 1_555
Cu1C O4 1_555 1_555
O4C Cu1 1_555 1_555
O6C Cu1 1_555 1_555
O6 Cu1C 1_555 1_555
C7 C8 1_555 1_555
C16 C17 1_555 1_555

#END
