
#######################################################################
#
#                 Cambridge Crystallographic Data Centre
#                                CCDC 
#
#######################################################################
#
# If this CIF has been generated from an entry in the Cambridge 
# Structural Database, then it will include bibliographic, chemical, 
# crystal, experimental, refinement or atomic coordinate data resulting 
# from the CCDC's data processing and validation procedures.
#
#######################################################################

data_SEJXIP
_symmetry_cell_setting           monoclinic
_symmetry_space_group_name_H-M   'P 2/c'
_symmetry_Int_Tables_number      13
_space_group_name_Hall           '-P 2yc'
loop_
_symmetry_equiv_pos_site_id
_symmetry_equiv_pos_as_xyz
1 x,y,z
2 -x,y,1/2-z
3 -x,-y,-z
4 x,-y,1/2+z
_cell_length_a                   13.6684(4)
_cell_length_b                   7.4084(2)
_cell_length_c                   23.4344(8)
_cell_angle_alpha                90
_cell_angle_beta                 101.6915(12)
_cell_angle_gamma                90
_cell_volume                     2323.76
loop_
_atom_site_label
_atom_site_type_symbol
_atom_site_fract_x
_atom_site_fract_y
_atom_site_fract_z
Sm1 Sm 0.28413(4) 0.54393(9) 0.84963(3)
Fe1 Fe 0.0000 1.0328(4) 0.7500
Fe2 Fe 0.5000 1.0510(4) 0.7500
O1 O 0.1566(6) 0.5598(15) 0.9050(4)
O2 O -0.5495(6) 0.5394(17) 0.9060(4)
O3 O 0.3055(7) 0.2836(14) 0.9136(4)
O4 O 0.3074(9) 0.8174(18) 0.9091(7)
N1 N 0.1541(8) 0.7287(18) 0.7879(6)
N2 N 0.0382(10) 1.042(2) 0.6250(6)
N3 N 0.1609(8) 1.3231(14) 0.7923(5)
N4 N 0.3719(10) 1.065(2) 0.6259(6)
N5 N 0.3709(8) 0.7581(16) 0.7927(5)
N6 N 0.0593(7) 0.5742(14) 0.9021(4)
N7 N -0.4533(7) 0.5507(19) 0.9039(5)
C1 C 0.0979(11) 0.8454(18) 0.7741(7)
C2 C 0.0259(10) 1.036(2) 0.6712(6)
C3 C 0.1011(9) 1.2130(18) 0.7742(6)
C4 C 0.4177(11) 1.057(2) 0.6717(6)
C5 C 0.4172(11) 0.8694(19) 0.7754(6)
C6 C 0.0260(9) 0.648(2) 0.9470(6)
H1 H 0.0714 0.6984 0.9780
C7 C -0.0727(9) 0.651(2) 0.9477(6)
H2 H -0.0936 0.7007 0.9797
C8 C -0.1438(9) 0.5827(17) 0.9020(6)
C9 C -0.1068(10) 0.521(2) 0.8539(6)
H3 H -0.1510 0.4771 0.8214
C10 C -0.0097(8) 0.5258(17) 0.8539(5)
H4 H 0.0120 0.4949 0.8200
C11 C -0.2514(9) 0.5734(18) 0.9026(5)
C12 C -0.2851(10) 0.562(3) 0.9545(6)
H5 H -0.2394 0.5614 0.9898
C13 C -0.3845(10) 0.552(3) 0.9542(6)
H6 H -0.4057 0.5449 0.9894
C14 C -0.4189(7) 0.5593(14) 0.8522(4)
H7 H -0.4645 0.5543 0.8168
C15 C -0.3238(10) 0.5743(18) 0.8522(5)
H8 H -0.3040 0.5861 0.8167
N8 N 0.3710(9) 0.3471(17) 0.7897(5)
C16 C 0.4172(9) 0.2363(18) 0.7743(6)
Sm1A Sm -0.28413(4) 0.54393(9) 0.65037(3)
Sm1_2 Sm -0.71587(4) 0.54393(9) 0.84963(3)
Sm1_3 Sm 0.28413(4) 1.54393(9) 0.84963(3)
Sm1A_2 Sm -0.28413(4) 1.54393(9) 0.65037(3)
Sm1_4 Sm 1.28413(4) 0.54393(9) 0.84963(3)
Fe2_2 Fe 0.5000 0.0510(4) 0.7500
Fe2_3 Fe -0.5000 1.0510(4) 0.7500
Fe2_4 Fe -0.5000 0.0510(4) 0.7500
O1_2 O 1.1566(6) 0.5598(15) 0.9050(4)
O1A O -0.1566(6) 0.5598(15) 0.5950(4)
O2_2 O 0.4505(6) 0.5394(17) 0.9060(4)
O2A O -0.4505(6) 0.5394(17) 0.5940(4)
O3A O -0.3055(7) 0.2836(14) 0.5864(4)
O4A O -0.3074(9) 0.8174(18) 0.5909(7)
N1A N -0.1541(8) 0.7287(18) 0.7121(6)
N2A N -0.0382(10) 1.042(2) 0.8750(6)
N3A N -0.1609(8) 1.3231(14) 0.7077(5)
N3_2 N 0.1609(8) 0.3231(14) 0.7923(5)
N3A_2 N -0.1609(8) 0.3231(14) 0.7077(5)
N4A N 0.6281(10) 1.065(2) 0.8741(6)
N5A N -0.3709(8) 0.7581(16) 0.7073(5)
N6_2 N 1.0593(7) 0.5742(14) 0.9021(4)
N7_2 N 0.5467(7) 0.5507(19) 0.9039(5)
C1A C -0.0979(11) 0.8454(18) 0.7259(7)
C2A C -0.0259(10) 1.036(2) 0.8288(6)
C3A C -0.1011(9) 1.2130(18) 0.7258(6)
C4A C 0.5823(11) 1.057(2) 0.8283(6)
C5A C -0.4172(11) 0.8694(19) 0.7246(6)
C5A_2 C 0.5828(11) 0.8694(19) 0.7246(6)
C6_2 C 1.0260(9) 0.648(2) 0.9470(6)
H1_2 H 1.0714 0.6984 0.9780
C7_2 C 0.9273(9) 0.651(2) 0.9477(6)
H2_2 H 0.9064 0.7007 0.9797
C8_2 C 0.8562(9) 0.5827(17) 0.9020(6)
C9_2 C 0.8932(10) 0.521(2) 0.8539(6)
H3_2 H 0.8490 0.4771 0.8214
C10_2 C 0.9903(8) 0.5258(17) 0.8539(5)
H4_2 H 1.0120 0.4949 0.8200
C11_2 C 0.7486(9) 0.5734(18) 0.9026(5)
C12_2 C 0.7149(10) 0.562(3) 0.9545(6)
H5_2 H 0.7606 0.5614 0.9898
C13_2 C 0.6155(10) 0.552(3) 0.9542(6)
H6_2 H 0.5943 0.5449 0.9894
C14_2 C 0.5811(7) 0.5593(14) 0.8522(4)
H7_2 H 0.5355 0.5543 0.8168
C15_2 C 0.6762(10) 0.5743(18) 0.8522(5)
H8_2 H 0.6960 0.5861 0.8167
N8A N -0.3710(9) 0.3471(17) 0.7103(5)
C16A C -0.4172(9) 0.2363(18) 0.7257(6)
C16_2 C 0.4172(9) 1.2363(18) 0.7743(6)
C16A_2 C 0.5828(9) 1.2363(18) 0.7257(6)
O5 O 0.1690(7) 0.0497(15) 0.9451(5)
O6 O 0.1788(9) -0.0934(17) 1.0501(5)
O7 O 0.4700(9) 0.0531(19) 0.9427(6)
loop_
_geom_bond_atom_site_label_1
_geom_bond_atom_site_label_2
_geom_bond_site_symmetry_1
_geom_bond_site_symmetry_2
Sm1 O1 1_555 1_555
Fe1 C1 1_555 1_555
Fe2 C4 1_555 1_555
O1 N6 1_555 1_555
O2 N7 1_555 1_555
O3 Sm1 1_555 1_555
O4 Sm1 1_555 1_555
N1 Sm1 1_555 1_555
N2 C2 1_555 1_555
N3 C3 1_555 1_555
N4 C4 1_555 1_555
N5 Sm1 1_555 1_555
N6 C6 1_555 1_555
N7 C13 1_555 1_555
C1 N1 1_555 1_555
C2 Fe1 1_555 1_555
C3 Fe1 1_555 1_555
C5 Fe2 1_555 1_555
C6 H1 1_555 1_555
C7 C6 1_555 1_555
H2 C7 1_555 1_555
C8 C7 1_555 1_555
C9 C8 1_555 1_555
H3 C9 1_555 1_555
C10 N6 1_555 1_555
H4 C10 1_555 1_555
C11 C8 1_555 1_555
C12 C11 1_555 1_555
H5 C12 1_555 1_555
C13 C12 1_555 1_555
H6 C13 1_555 1_555
C14 N7 1_555 1_555
H7 C14 1_555 1_555
C15 C11 1_555 1_555
H8 C15 1_555 1_555
N8 Sm1 1_555 1_555
C16 N8 1_555 1_555
Sm1A O1A 1_555 1_555
Sm1_2 O2 1_555 1_555
Sm1_3 N3 1_555 1_555
Sm1A_2 N3A 1_555 1_555
Sm1_4 O1_2 1_555 1_555
Fe2_2 C16 1_555 1_555
Fe2_3 C5A 1_555 1_555
Fe2_4 C16A 1_555 1_555
O1_2 N6_2 1_555 1_555
O2_2 Sm1 1_555 1_555
O2A Sm1A 1_555 1_555
O3A Sm1A 1_555 1_555
O4A Sm1A 1_555 1_555
N1A Sm1A 1_555 1_555
N2A C2A 1_555 1_555
N3A C3A 1_555 1_555
N3_2 Sm1 1_555 1_555
N3A_2 Sm1A 1_555 1_555
N4A C4A 1_555 1_555
N5A Sm1A 1_555 1_555
N6_2 C6_2 1_555 1_555
N7_2 O2_2 1_555 1_555
C1A Fe1 1_555 1_555
C2A Fe1 1_555 1_555
C3A Fe1 1_555 1_555
C4A Fe2 1_555 1_555
C5A N5A 1_555 1_555
C5A_2 Fe2 1_555 1_555
C6_2 H1_2 1_555 1_555
C7_2 C6_2 1_555 1_555
H2_2 C7_2 1_555 1_555
C8_2 C7_2 1_555 1_555
C9_2 C8_2 1_555 1_555
H3_2 C9_2 1_555 1_555
C10_2 N6_2 1_555 1_555
H4_2 C10_2 1_555 1_555
C11_2 C8_2 1_555 1_555
C12_2 C11_2 1_555 1_555
H5_2 C12_2 1_555 1_555
C13_2 N7_2 1_555 1_555
H6_2 C13_2 1_555 1_555
C14_2 N7_2 1_555 1_555
H7_2 C14_2 1_555 1_555
C15_2 C11_2 1_555 1_555
H8_2 C15_2 1_555 1_555
N8A Sm1A 1_555 1_555
C16A N8A 1_555 1_555
C16_2 Fe2 1_555 1_555
C16A_2 Fe2 1_555 1_555
N5 C5 1_555 1_555
C9 C10 1_555 1_555
C14 C15 1_555 1_555
N1A C1A 1_555 1_555
C9_2 C10_2 1_555 1_555
C12_2 C13_2 1_555 1_555
C14_2 C15_2 1_555 1_555

#END
