
#######################################################################
#
#                 Cambridge Crystallographic Data Centre
#                                CCDC 
#
#######################################################################
#
# If this CIF has been generated from an entry in the Cambridge 
# Structural Database, then it will include bibliographic, chemical, 
# crystal, experimental, refinement or atomic coordinate data resulting 
# from the CCDC's data processing and validation procedures.
#
#######################################################################

data_SEKKID
_symmetry_cell_setting           triclinic
_symmetry_space_group_name_H-M   'P -1'
_symmetry_Int_Tables_number      2
_space_group_name_Hall           '-P 1'
loop_
_symmetry_equiv_pos_site_id
_symmetry_equiv_pos_as_xyz
1 x,y,z
2 -x,-y,-z
_cell_length_a                   13.6122(19)
_cell_length_b                   14.567(2)
_cell_length_c                   15.716(3)
_cell_angle_alpha                112.253(3)
_cell_angle_beta                 105.561(3)
_cell_angle_gamma                102.386(3)
_cell_volume                     2598.02
loop_
_atom_site_label
_atom_site_type_symbol
_atom_site_fract_x
_atom_site_fract_y
_atom_site_fract_z
Ag1 Ag 0.30500(4) 0.68415(4) 0.86647(5)
Ag2 Ag 0.18043(4) 0.81765(4) 0.86704(4)
Ag3 Ag -0.17599(4) 0.14635(4) 0.62661(4)
Ag4 Ag -0.30932(4) 0.26917(4) 0.60565(4)
Sr1 Sr 0.68866(4) 0.75370(4) 0.61617(3)
Sr2 Sr 0.28628(4) 1.21732(4) 0.87291(3)
S1 S 0.81375(10) 1.01850(10) 0.88167(9)
S2 S 0.30979(11) 0.47431(11) 0.60634(10)
S3 S -0.33969(10) 0.47072(10) 0.79492(9)
S4 S -0.81881(10) -0.03631(10) 0.61168(9)
O1 O 0.8419(4) 0.7191(3) 0.7206(3)
H1 H 0.797(12) 0.681(13) 0.651(3)
H2 H 0.852(7) 0.740(7) 0.789(2)
O2 O 0.6232(4) 0.7591(4) 0.4365(3)
H3 H 0.631(9) 0.692(5) 0.405(8)
H4 H 0.569(5) 0.787(6) 0.415(6)
O3 O 0.6052(4) 0.6891(4) 0.7207(3)
H5 H 0.637(5) 0.641(4) 0.733(5)
H6 H 0.5296(17) 0.646(5) 0.684(5)
O4 O 0.8487(4) 0.8718(4) 0.6125(3)
H7 H 0.856(6) 0.850(6) 0.550(3)
H8 H 0.897(7) 0.944(3) 0.653(7)
O5 O 0.4915(3) 0.6177(4) 0.5035(3)
H9 H 0.446(6) 0.575(6) 0.522(6)
H10 H 0.458(6) 0.587(6) 0.4325(10)
O6 O 0.1436(4) 1.2533(4) 0.7584(3)
H11 H 0.135(6) 1.233(5) 0.6902(18)
H12 H 0.154(13) 1.325(4) 0.771(11)
O7 O 0.4037(4) 1.2766(4) 1.0585(3)
H13 H 0.360(6) 1.308(7) 1.090(6)
H14 H 0.423(5) 1.227(3) 1.079(4)
O8 O 0.4033(4) 1.2724(4) 0.7836(4)
H15 H 0.408(10) 1.226(8) 0.724(5)
H16 H 0.476(2) 1.321(4) 0.807(5)
O9 O 0.3655(4) 1.4202(3) 0.9624(3)
H17 H 0.378(6) 1.473(4) 1.027(2)
H18 H 0.374(5) 1.465(4) 0.931(4)
O10 O 0.1495(3) 1.2673(4) 0.9490(3)
H19 H 0.127(9) 1.325(6) 0.981(7)
H20 H 0.134(8) 1.239(8) 0.992(6)
O11 O 0.0913(3) 0.4277(3) 0.8953(3)
H21 H 0.1370 0.4773 0.8987
O12 O 0.1929(4) 1.0638(4) 0.8979(4)
H22 H 0.132(4) 1.002(3) 0.846(4)
H23 H 0.174(9) 1.068(9) 0.937(8)
O13 O 0.1681(3) 0.6000(3) 0.8917(3)
O14 O 0.3936(3) 0.5530(3) 0.8738(3)
H24 H 0.375(6) 0.506(5) 0.8055(17)
O15 O 0.0618(3) 0.6936(3) 0.8705(3)
O16 O 0.0532(3) 0.8637(4) 0.7565(3)
H25 H 0.057(5) 0.860(5) 0.695(3)
H26 H -0.017(3) 0.831(6) 0.755(6)
O17 O -0.0555(3) 0.0944(3) 0.7288(3)
H27 H -0.051(6) 0.093(6) 0.790(3)
H28 H 0.011(3) 0.140(4) 0.735(4)
O18 O -0.3899(3) 0.4054(3) 0.6881(2)
O19 O -0.3963(3) 0.4302(3) 0.8466(3)
O21 O -0.3232(3) 0.5814(3) 0.8240(3)
O23 O -0.0911(3) 0.5527(3) 0.6270(3)
H33 H -0.1363 0.4995 0.6189
O24 O -0.0538(3) 0.2832(3) 0.6343(3)
O25 O -0.1676(3) 0.3664(3) 0.6011(3)
O26 O 0.3518(3) 0.4365(4) 0.6761(3)
O27 O 0.3840(4) 0.5742(4) 0.6259(4)
O28 O 0.2741(3) 0.3934(3) 0.5052(3)
O29 O 0.4052(3) 1.0913(3) 0.8856(3)
O30 O 0.4332(3) 0.8079(3) 0.8663(3)
O31 O 0.3294(3) 0.9074(3) 0.8629(3)
O32 O 0.7871(3) 0.9220(3) 0.7936(3)
O33 O 0.8601(3) 1.0096(4) 0.9716(3)
O34 O 0.8822(3) 1.1109(3) 0.8850(3)
O35 O -0.4082(3) -0.1094(3) 0.6271(3)
H34 H -0.3644 -0.0589 0.6298
O36 O -0.3330(3) 0.0652(3) 0.6332(3)
O37 O -0.4381(3) 0.1597(3) 0.6158(3)
O38 O -0.7949(3) 0.0586(3) 0.7011(3)
O39 O -0.8914(3) -0.1305(3) 0.6037(3)
O40 O -0.8584(3) -0.0229(3) 0.5225(3)
C1 C -0.1197(4) 0.5400(4) 0.8452(3)
H35 H -0.1284 0.5992 0.8394
C2 C -0.2091(4) 0.4615(4) 0.8321(3)
C3 C -0.0950(4) 0.3644(4) 0.8647(4)
H36 H -0.0867 0.3059 0.8724
C4 C 0.0783(4) 0.6161(4) 0.8782(4)
C5 C -0.0053(4) 0.4412(4) 0.8760(4)
C6 C -0.0170(4) 0.5316(4) 0.8670(3)
C7 C -0.1957(4) 0.3735(4) 0.8424(4)
H37 H -0.2553 0.3209 0.8341
C8 C 0.0861(5) 0.6113(4) 0.6332(4)
H38 H 0.0783 0.6749 0.6386
C9 C 0.1811(4) 0.5960(4) 0.6310(4)
H39 H 0.2373 0.6488 0.6350
C10 C 0.0015(4) 0.5349(4) 0.6277(4)
C11 C 0.1114(4) 0.4243(4) 0.6195(4)
H40 H 0.1205 0.3614 0.6150
C12 C 0.1932(4) 0.5002(4) 0.6226(4)
C13 C 0.0145(4) 0.4397(4) 0.6228(3)
C14 C -0.0747(4) 0.3557(4) 0.6190(4)
C15 C 0.6807(4) 1.1361(4) 0.8942(4)
H41 H 0.7382 1.1896 0.9007
C16 C 0.5849(4) 1.1518(4) 0.8952(4)
H42 H 0.5783 1.2164 0.9029
C17 C 0.4986(4) 1.0735(4) 0.8850(4)
C18 C 0.6912(4) 1.0402(4) 0.8834(3)
C19 C 0.4180(4) 0.8910(4) 0.8680(3)
C20 C 0.5088(4) 0.9761(4) 0.8759(3)
C21 C 0.6058(4) 0.9605(4) 0.8737(4)
H43 H 0.6132 0.8960 0.8656
C22 C -0.5125(4) 0.0017(4) 0.6230(4)
C23 C -0.4217(4) 0.0821(4) 0.6234(4)
C24 C -0.5008(4) -0.0913(4) 0.6241(3)
C25 C -0.6108(4) 0.0174(4) 0.6188(4)
H44 H -0.6200 0.0783 0.6173
C26 C -0.5860(4) -0.1655(4) 0.6211(4)
H45 H -0.5774 -0.2269 0.6219
C27 C -0.6825(4) -0.1504(4) 0.6170(4)
H46 H -0.7394 -0.2014 0.6144
C28 C -0.6953(4) -0.0576(4) 0.6167(3)
Ag3A Ag -0.82401(4) -0.14635(4) 0.37339(4)
Sr1A Sr 0.31134(4) 0.24630(4) 0.38383(3)
Sr1_2 Sr -0.31134(4) -0.24630(4) 0.61617(3)
Sr2_2 Sr -0.71372(4) 0.21732(4) 0.87291(3)
O28A O 0.7259(3) 0.6066(3) 0.4948(3)
O35_2 O 0.5918(3) 0.8906(3) 0.6271(3)
H34_2 H 0.6356 0.9411 0.6298
O38_2 O 0.2051(3) 1.0586(3) 0.7011(3)
O40A O -0.1416(3) 0.0229(3) 0.4775(3)
O20 O 0.1016(3) 0.1661(3) 0.5603(3)
H29 H 0.113(4) 0.100(2) 0.536(4)
H30 H 0.036(6) 0.175(9) 0.528(7)
O22 O -1.0898(3) -0.1852(3) 0.9257(3)
H31 H -1.030(5) -0.210(7) 0.938(7)
H32 H -1.096(4) -0.117(2) 0.946(4)
loop_
_geom_bond_atom_site_label_1
_geom_bond_atom_site_label_2
_geom_bond_site_symmetry_1
_geom_bond_site_symmetry_2
Ag1 O13 1_555 1_555
Ag2 O15 1_555 1_555
Ag3 O17 1_555 1_555
Ag4 O18 1_555 1_555
Sr1 O1 1_555 1_555
Sr2 O6 1_555 1_555
S1 O32 1_555 1_555
S2 O26 1_555 1_555
S3 O18 1_555 1_555
S4 O38 1_555 1_555
O1 H1 1_555 1_555
H2 O1 1_555 1_555
O2 Sr1 1_555 1_555
H3 O2 1_555 1_555
H4 O2 1_555 1_555
O3 Sr1 1_555 1_555
H5 O3 1_555 1_555
H6 O3 1_555 1_555
O4 Sr1 1_555 1_555
H7 O4 1_555 1_555
H8 O4 1_555 1_555
O5 Sr1 1_555 1_555
H9 O5 1_555 1_555
H10 O5 1_555 1_555
O6 H11 1_555 1_555
H12 O6 1_555 1_555
O7 Sr2 1_555 1_555
H13 O7 1_555 1_555
H14 O7 1_555 1_555
O8 Sr2 1_555 1_555
H15 O8 1_555 1_555
H16 O8 1_555 1_555
O9 Sr2 1_555 1_555
H17 O9 1_555 1_555
H18 O9 1_555 1_555
O10 Sr2 1_555 1_555
H19 O10 1_555 1_555
H20 O10 1_555 1_555
O11 H21 1_555 1_555
O12 Sr2 1_555 1_555
H22 O12 1_555 1_555
H23 O12 1_555 1_555
O13 C4 1_555 1_555
O14 Ag1 1_555 1_555
H24 O14 1_555 1_555
O15 C4 1_555 1_555
O16 Ag2 1_555 1_555
H25 O16 1_555 1_555
H26 O16 1_555 1_555
O17 H27 1_555 1_555
H28 O17 1_555 1_555
O19 S3 1_555 1_555
O20 H29 1_555 1_555
H30 O20 1_555 1_555
O21 S3 1_555 1_555
O22 H31 1_555 1_555
H32 O22 1_555 1_555
O23 H33 1_555 1_555
O24 Ag3 1_555 1_555
O25 Ag4 1_555 1_555
O27 S2 1_555 1_555
O28 S2 1_555 1_555
O29 Sr2 1_555 1_555
O30 Ag1 1_555 1_555
O31 Ag2 1_555 1_555
O32 Sr1 1_555 1_555
O33 S1 1_555 1_555
O34 S1 1_555 1_555
O35 H34 1_555 1_555
O36 Ag3 1_555 1_555
O37 Ag4 1_555 1_555
O38 Sr2_2 1_555 1_555
O39 S4 1_555 1_555
O40 S4 1_555 1_555
C1 H35 1_555 1_555
C2 S3 1_555 1_555
C3 H36 1_555 1_555
C4 C6 1_555 1_555
C5 O11 1_555 1_555
C6 C1 1_555 1_555
C7 C2 1_555 1_555
H37 C7 1_555 1_555
C8 H38 1_555 1_555
C9 C8 1_555 1_555
H39 C9 1_555 1_555
C10 O23 1_555 1_555
C11 H40 1_555 1_555
C12 S2 1_555 1_555
C13 C10 1_555 1_555
C14 O24 1_555 1_555
C15 H41 1_555 1_555
C16 C15 1_555 1_555
H42 C16 1_555 1_555
C17 O29 1_555 1_555
C18 S1 1_555 1_555
C19 O30 1_555 1_555
C20 C17 1_555 1_555
C21 C18 1_555 1_555
H43 C21 1_555 1_555
C22 C23 1_555 1_555
C23 O36 1_555 1_555
C24 O35 1_555 1_555
C25 C22 1_555 1_555
H44 C25 1_555 1_555
C26 C24 1_555 1_555
H45 C26 1_555 1_555
C27 C26 1_555 1_555
H46 C27 1_555 1_555
C28 S4 1_555 1_555
Ag3A O40 1_555 1_555
Sr1A O28 1_555 1_555
Sr1_2 O35 1_555 1_555
O28A Sr1 1_555 1_555
O35_2 Sr1 1_555 1_555
H34_2 O35_2 1_555 1_555
O38_2 Sr2 1_555 1_555
O40A Ag3 1_555 1_555
O25 C14 1_555 1_555
O31 C19 1_555 1_555
O37 C23 1_555 1_555
C1 C2 1_555 1_555
C3 C5 1_555 1_555
C3 C7 1_555 1_555
C5 C6 1_555 1_555
C8 C10 1_555 1_555
C9 C12 1_555 1_555
C11 C12 1_555 1_555
C11 C13 1_555 1_555
C13 C14 1_555 1_555
C15 C18 1_555 1_555
C16 C17 1_555 1_555
C19 C20 1_555 1_555
C20 C21 1_555 1_555
C22 C24 1_555 1_555
C25 C28 1_555 1_555
C27 C28 1_555 1_555

#END
