
#######################################################################
#
#                 Cambridge Crystallographic Data Centre
#                                CCDC 
#
#######################################################################
#
# If this CIF has been generated from an entry in the Cambridge 
# Structural Database, then it will include bibliographic, chemical, 
# crystal, experimental, refinement or atomic coordinate data resulting 
# from the CCDC's data processing and validation procedures.
#
#######################################################################

data_SEKKEZ
_symmetry_cell_setting           triclinic
_symmetry_space_group_name_H-M   'P -1'
_symmetry_Int_Tables_number      2
_space_group_name_Hall           '-P 1'
loop_
_symmetry_equiv_pos_site_id
_symmetry_equiv_pos_as_xyz
1 x,y,z
2 -x,-y,-z
_cell_length_a                   7.896(4)
_cell_length_b                   8.048(4)
_cell_length_c                   11.884(6)
_cell_angle_alpha                105.423(4)
_cell_angle_beta                 102.466(4)
_cell_angle_gamma                93.548(4)
_cell_volume                     705.102
loop_
_atom_site_label
_atom_site_type_symbol
_atom_site_fract_x
_atom_site_fract_y
_atom_site_fract_z
Ag1 Ag 0.59806(3) 0.57637(2) 0.624279(19)
S1 S 0.26320(7) 1.43968(7) 0.74775(5)
O4 O 0.8554(3) 0.6438(3) 0.8132(2)
H7 H 0.948(4) 0.597(5) 0.781(3)
H8 H 0.831(5) 0.567(4) 0.857(3)
O7 O 0.1602(3) 0.8593(3) 0.30825(16)
H13 H 0.202(5) 0.781(5) 0.331(3)
O8 O 0.4597(2) 0.8097(2) 0.62502(15)
O9 O 0.3182(3) 0.6852(2) 0.43496(16)
O10 O 0.2142(2) 1.3699(2) 0.83912(15)
O11 O 0.1541(2) 1.5686(2) 0.71835(16)
O12 O 0.4490(2) 1.5047(2) 0.78151(16)
C1 C 0.1863(3) 0.9895(3) 0.4110(2)
C2 C 0.2821(3) 0.9753(3) 0.5215(2)
C3 C 0.3032(3) 1.1154(3) 0.6233(2)
H14 H 0.3668 1.1084 0.6971
C4 C 0.2306(3) 1.2650(3) 0.6160(2)
C5 C 0.1365(3) 1.2795(3) 0.5066(2)
H15 H 0.0883 1.3807 0.5021
C6 C 0.1155(3) 1.1415(3) 0.4048(2)
H16 H 0.0532 1.1502 0.3312
C7 C 0.3595(3) 0.8125(3) 0.5291(2)
Ag1A Ag 0.40194(3) 0.42363(2) 0.375721(19)
Ag1_2 Ag 0.59806(3) 1.57637(2) 0.624279(19)
Ag1A_2 Ag 0.40194(3) -0.57637(2) 0.375721(19)
S1A S 0.73680(7) -0.43968(7) 0.25225(5)
O4A O 0.1446(3) 0.3562(3) 0.1868(2)
H7A H 0.052(4) 0.403(5) 0.219(3)
H8A H 0.169(5) 0.433(4) 0.143(3)
O7A O 0.8398(3) 0.1407(3) 0.69175(16)
H13A H 0.798(5) 0.219(5) 0.669(3)
O8A O 0.5403(2) 0.1903(2) 0.37498(15)
O9A O 0.6818(3) 0.3148(2) 0.56504(16)
O10A O 0.7858(2) -0.3699(2) 0.16088(15)
O11A O 0.8459(2) -0.5686(2) 0.28165(16)
O12A O 0.5510(2) -0.5047(2) 0.21849(16)
O12_2 O 0.4490(2) 0.5047(2) 0.78151(16)
O12A_2 O 0.5510(2) 0.4953(2) 0.21849(16)
C1A C 0.8137(3) 0.0105(3) 0.5890(2)
C2A C 0.7179(3) 0.0247(3) 0.4785(2)
C3A C 0.6968(3) -0.1154(3) 0.3767(2)
H14A H 0.6332 -0.1084 0.3029
C4A C 0.7694(3) -0.2650(3) 0.3840(2)
C5A C 0.8635(3) -0.2795(3) 0.4934(2)
H15A H 0.9117 -0.3807 0.4979
C6A C 0.8845(3) -0.1415(3) 0.5952(2)
H16A H 0.9468 -0.1502 0.6688
C7A C 0.6405(3) 0.1875(3) 0.4709(2)
Mg1 Mg 0.5000 1.0000 1.0000
O1 O 0.3738(2) 1.0112(3) 1.13776(16)
H1 H 0.419(5) 1.064(5) 1.2213(12)
H2 H 0.2515(17) 0.989(6) 1.130(4)
O2 O 0.2708(2) 0.9116(2) 0.87257(16)
H3 H 0.170(3) 0.968(4) 0.882(3)
H4 H 0.237(5) 0.804(3) 0.811(3)
O3 O 0.4542(3) 1.2508(2) 0.99980(16)
H5 H 0.477(5) 1.334(4) 1.0771(16)
H6 H 0.376(4) 1.283(5) 0.938(3)
O1A O 0.6262(2) 0.9888(3) 0.86224(16)
H1A H 0.581(5) 0.936(5) 0.7787(12)
H2A H 0.7485(17) 1.011(6) 0.870(4)
O2A O 0.7292(2) 1.0884(2) 1.12743(16)
H3A H 0.830(3) 1.032(4) 1.118(3)
H4A H 0.763(5) 1.196(3) 1.189(3)
O3A O 0.5458(3) 0.7492(2) 1.00020(16)
H5A H 0.523(5) 0.666(4) 0.9229(16)
H6A H 0.624(4) 0.717(5) 1.062(3)
O5 O 0.7993(3) 0.4039(3) 0.9336(2)
H9 H 0.814(5) 0.466(5) 1.0163(14)
H10 H 0.686(4) 0.339(7) 0.914(5)
O6 O 0.0069(3) 1.0995(3) 0.91807(18)
H11 H -0.023(7) 1.181(5) 0.874(4)
H12 H 0.033(6) 1.162(5) 1.0010(14)
loop_
_geom_bond_atom_site_label_1
_geom_bond_atom_site_label_2
_geom_bond_site_symmetry_1
_geom_bond_site_symmetry_2
Ag1 O4 1_555 1_555
Mg1 O1 1_555 1_555
S1 O10 1_555 1_555
O1 H1 1_555 1_555
H2 O1 1_555 1_555
O2 Mg1 1_555 1_555
H3 O2 1_555 1_555
H4 O2 1_555 1_555
O3 Mg1 1_555 1_555
H5 O3 1_555 1_555
H6 O3 1_555 1_555
O4 H7 1_555 1_555
H8 O4 1_555 1_555
O5 H9 1_555 1_555
H10 O5 1_555 1_555
O6 H11 1_555 1_555
H12 O6 1_555 1_555
O7 H13 1_555 1_555
O8 Ag1 1_555 1_555
O9 C7 1_555 1_555
O11 S1 1_555 1_555
O12 S1 1_555 1_555
C1 O7 1_555 1_555
C2 C1 1_555 1_555
C3 C2 1_555 1_555
H14 C3 1_555 1_555
C4 S1 1_555 1_555
C5 C4 1_555 1_555
H15 C5 1_555 1_555
C6 C1 1_555 1_555
H16 C6 1_555 1_555
C7 O8 1_555 1_555
Ag1A O9 1_555 1_555
Ag1_2 O12 1_555 1_555
Ag1A_2 O12A 1_555 1_555
S1A O10A 1_555 1_555
O1A Mg1 1_555 1_555
H1A O1A 1_555 1_555
H2A O1A 1_555 1_555
O2A Mg1 1_555 1_555
H3A O2A 1_555 1_555
H4A O2A 1_555 1_555
O3A Mg1 1_555 1_555
H5A O3A 1_555 1_555
H6A O3A 1_555 1_555
O4A Ag1A 1_555 1_555
H7A O4A 1_555 1_555
H8A O4A 1_555 1_555
O7A H13A 1_555 1_555
O8A Ag1A 1_555 1_555
O9A Ag1 1_555 1_555
O11A S1A 1_555 1_555
O12A S1A 1_555 1_555
O12_2 Ag1 1_555 1_555
O12A_2 Ag1A 1_555 1_555
C1A O7A 1_555 1_555
C2A C1A 1_555 1_555
C3A C2A 1_555 1_555
H14A C3A 1_555 1_555
C4A S1A 1_555 1_555
C5A C4A 1_555 1_555
H15A C5A 1_555 1_555
C6A C1A 1_555 1_555
H16A C6A 1_555 1_555
C7A O8A 1_555 1_555
C2 C7 1_555 1_555
C3 C4 1_555 1_555
C5 C6 1_555 1_555
O9A C7A 1_555 1_555
C2A C7A 1_555 1_555
C3A C4A 1_555 1_555
C5A C6A 1_555 1_555

#END
