
#######################################################################
#
#                 Cambridge Crystallographic Data Centre
#                                CCDC 
#
#######################################################################
#
# If this CIF has been generated from an entry in the Cambridge 
# Structural Database, then it will include bibliographic, chemical, 
# crystal, experimental, refinement or atomic coordinate data resulting 
# from the CCDC's data processing and validation procedures.
#
#######################################################################

data_SEKLIE
_symmetry_cell_setting           monoclinic
_symmetry_space_group_name_H-M   'P 21/n'
_symmetry_Int_Tables_number      14
_space_group_name_Hall           '-P 2yn'
loop_
_symmetry_equiv_pos_site_id
_symmetry_equiv_pos_as_xyz
1 x,y,z
2 1/2-x,1/2+y,1/2-z
3 -x,-y,-z
4 1/2+x,1/2-y,1/2+z
_cell_length_a                   5.2544(4)
_cell_length_b                   14.3115(14)
_cell_length_c                   17.6796(18)
_cell_angle_alpha                90
_cell_angle_beta                 90.260(8)
_cell_angle_gamma                90
_cell_volume                     1329.46
loop_
_atom_site_label
_atom_site_type_symbol
_atom_site_fract_x
_atom_site_fract_y
_atom_site_fract_z
Mo1 Mo 0.27205(7) 0.42472(3) 0.07590(2)
Cu1 Cu 0.25208(11) 0.42135(4) -0.12077(3)
N1 N 0.6319(8) 0.2420(3) -0.2561(2)
H1 H 0.6411 0.2198 -0.3012
N2 N 0.4989(8) 0.3279(3) -0.1581(2)
N3 N 0.1346(8) 0.4145(3) -0.2323(2)
C1 C 0.7839(9) 0.2181(3) -0.1954(3)
C2 C 0.9889(11) 0.1577(4) -0.1880(3)
H2 H 1.0474 0.1237 -0.2292
C3 C 1.1031(11) 0.1494(4) -0.1187(3)
H3 H 1.2378 0.1080 -0.1122
C4 C 1.0181(11) 0.2032(4) -0.0567(3)
H4 H 1.0995 0.1975 -0.0102
C5 C 0.8116(12) 0.2654(4) -0.0645(3)
H5 H 0.7538 0.3004 -0.0237
C6 C 0.7001(10) 0.2723(3) -0.1339(3)
C7 C 0.4659(9) 0.3068(4) -0.2313(3)
C8 C 0.2663(10) 0.3527(4) -0.2745(3)
C9 C -0.0554(11) 0.4620(4) -0.2669(3)
H6 H -0.1503 0.5040 -0.2384
C10 C -0.1149(11) 0.4512(5) -0.3422(3)
H7 H -0.2453 0.4858 -0.3643
C11 C 0.0245(12) 0.3872(5) -0.3847(3)
H8 H -0.0109 0.3786 -0.4358
C12 C 0.2144(11) 0.3372(4) -0.3500(3)
H9 H 0.3072 0.2933 -0.3771
O1 O 0.3798(7) 0.4104(2) -0.01871(19)
O2 O 0.1296(8) 0.3201(3) 0.1036(2)
O3 O 0.0531(7) 0.5172(3) 0.0884(2)
O4 O 0.5260(7) 0.4440(3) 0.13835(19)
Cu1B Cu -0.25208(11) 0.57865(4) 0.12077(3)
Cu1B_2 Cu 0.74792(11) 0.57865(4) 0.12077(3)
O3B O -0.0531(7) 0.4828(3) -0.0884(2)
O4B O 0.4740(7) 0.5560(3) -0.13835(19)
loop_
_geom_bond_atom_site_label_1
_geom_bond_atom_site_label_2
_geom_bond_site_symmetry_1
_geom_bond_site_symmetry_2
Mo1 O1 1_555 1_555
Cu1 N2 1_555 1_555
N1 H1 1_555 1_555
N2 C6 1_555 1_555
N3 Cu1 1_555 1_555
C1 N1 1_555 1_555
C2 C1 1_555 1_555
H2 C2 1_555 1_555
C3 C2 1_555 1_555
H3 C3 1_555 1_555
C4 C3 1_555 1_555
H4 C4 1_555 1_555
C5 C4 1_555 1_555
H5 C5 1_555 1_555
C6 C1 1_555 1_555
C7 N1 1_555 1_555
C8 N3 1_555 1_555
C9 N3 1_555 1_555
H6 C9 1_555 1_555
C10 C9 1_555 1_555
H7 C10 1_555 1_555
C11 C10 1_555 1_555
H8 C11 1_555 1_555
C12 C8 1_555 1_555
H9 C12 1_555 1_555
O1 Cu1 1_555 1_555
O2 Mo1 1_555 1_555
O3 Mo1 1_555 1_555
O4 Mo1 1_555 1_555
Cu1B O3 1_555 1_555
Cu1B_2 O4 1_555 1_555
O3B Cu1 1_555 1_555
O4B Cu1 1_555 1_555
N2 C7 1_555 1_555
C5 C6 1_555 1_555
C7 C8 1_555 1_555
C11 C12 1_555 1_555

#END
