
#######################################################################
#
#                 Cambridge Crystallographic Data Centre
#                                CCDC 
#
#######################################################################
#
# If this CIF has been generated from an entry in the Cambridge 
# Structural Database, then it will include bibliographic, chemical, 
# crystal, experimental, refinement or atomic coordinate data resulting 
# from the CCDC's data processing and validation procedures.
#
#######################################################################

data_SEKMOL
_symmetry_cell_setting           monoclinic
_symmetry_space_group_name_H-M   'P 21/c'
_symmetry_Int_Tables_number      14
_space_group_name_Hall           '-P 2ybc'
loop_
_symmetry_equiv_pos_site_id
_symmetry_equiv_pos_as_xyz
1 x,y,z
2 -x,1/2+y,1/2-z
3 -x,-y,-z
4 x,1/2-y,1/2+z
_cell_length_a                   17.8141(8)
_cell_length_b                   11.6259(5)
_cell_length_c                   18.8636(9)
_cell_angle_alpha                90
_cell_angle_beta                 97.5130(10)
_cell_angle_gamma                90
_cell_volume                     3873.21
loop_
_atom_site_label
_atom_site_type_symbol
_atom_site_fract_x
_atom_site_fract_y
_atom_site_fract_z
Cl1 Cl 0.39383(7) 0.98548(11) 0.29218(7)
O6 O 0.4579(3) 0.9180(6) 0.2896(3)
O7 O 0.3328(3) 0.9146(4) 0.3065(2)
O8 O 0.4043(3) 1.0678(4) 0.3491(2)
O9 O 0.3733(2) 1.0397(4) 0.2251(2)
Cl2 Cl 0.10113(9) 0.08055(11) 0.21481(8)
O10 O 0.1508(3) 0.0693(5) 0.2813(3)
O11 O 0.0912(3) -0.0256(3) 0.1786(3)
O12 O 0.0299(2) 0.1189(4) 0.2320(2)
O13 O 0.1325(2) 0.1643(3) 0.1722(2)
Cd1 Cd 0.252986(17) 0.81901(2) 0.527196(17)
O1 O 0.14644(17) 0.8050(3) 0.60328(15)
O2 O 0.28749(17) 0.8256(3) 0.66218(16)
O3 O 0.39386(16) 0.8180(3) 0.56658(17)
O4 O 0.49675(17) 0.6942(3) 0.48153(17)
O5 O 0.39234(17) 0.5967(3) 0.36227(17)
N1 N 0.12992(18) 0.8414(3) 0.46295(19)
N2 N 0.2419(2) 0.5764(3) 0.35911(19)
N3 N 0.26483(19) 0.6234(3) 0.53553(19)
N4 N 0.27028(18) 0.0148(3) 0.52794(19)
C1 C 0.1205(3) 0.8597(4) 0.3928(2)
H1 H 0.1644 0.8649 0.3693
C2 C 0.0496(3) 0.8717(4) 0.3513(3)
H2 H 0.0459 0.8816 0.3009
C3 C -0.0131(3) 0.8688(4) 0.3841(3)
H3 H -0.0615 0.8763 0.3567
C4 C -0.0074(3) 0.8547(4) 0.4589(3)
C5 C -0.0703(3) 0.8556(5) 0.4975(4)
H4 H -0.1197 0.8654 0.4726
C6 C -0.0611(3) 0.8427(4) 0.5689(4)
H5 H -0.1041 0.8444 0.5938
C7 C 0.0111(3) 0.8269(4) 0.6070(3)
H6 H 0.0167 0.8186 0.6575
C8 C 0.0738(2) 0.8235(4) 0.5720(2)
C9 C 0.0660(2) 0.8396(3) 0.4965(2)
C10 C 0.1606(3) 0.8015(4) 0.6804(2)
H7 H 0.1236 0.7503 0.6996
H8 H 0.1561 0.8794 0.7005
C11 C 0.2380(3) 0.7572(4) 0.6993(3)
H9 H 0.2532 0.7625 0.7515
H10 H 0.2405 0.6755 0.6849
C12 C 0.3613(4) 0.7747(10) 0.6824(4)
H11 H 0.3616 0.6930 0.6677
H12 H 0.3762 0.7795 0.7348
C13 C 0.4137(5) 0.8445(10) 0.6435(4)
H13 H 0.4070 0.9276 0.6523
H14 H 0.4671 0.8235 0.6597
C16 C 0.4482(2) 0.8715(4) 0.5279(3)
H19 H 0.4658 0.9441 0.5520
H20 H 0.4240 0.8907 0.4791
C17 C 0.5154(3) 0.7941(4) 0.5230(3)
H21 H 0.5546 0.8379 0.5018
H22 H 0.5373 0.7708 0.5719
C18 C 0.4979(3) 0.7123(5) 0.4073(3)
H23 H 0.5496 0.7334 0.3984
H24 H 0.4634 0.7764 0.3906
C19 C 0.4733(3) 0.6051(5) 0.3671(3)
H25 H 0.4888 0.6079 0.3186
H26 H 0.4973 0.5371 0.3923
C20 C 0.3597(3) 0.4986(4) 0.3318(2)
C21 C 0.3992(3) 0.4141(4) 0.3027(3)
H27 H 0.4519 0.4229 0.3009
C22 C 0.3613(3) 0.3126(5) 0.2749(3)
H28 H 0.3893 0.2539 0.2551
C23 C 0.2858(3) 0.2984(4) 0.2761(2)
H29 H 0.2618 0.2293 0.2586
C24 C 0.2431(3) 0.3864(4) 0.3035(2)
C25 C 0.1645(3) 0.3785(4) 0.3058(3)
H30 H 0.1376 0.3117 0.2881
C26 C 0.1271(3) 0.4662(4) 0.3333(3)
H31 H 0.0741 0.4619 0.3348
C27 C 0.1685(3) 0.5632(4) 0.3595(2)
H32 H 0.1417 0.6237 0.3789
C28 C 0.2807(3) 0.4883(4) 0.3318(2)
C29 C 0.3264(2) 0.5695(3) 0.5179(2)
H33 H 0.3683 0.6150 0.5087
C30 C 0.3322(2) 0.4515(3) 0.5126(2)
H34 H 0.3768 0.4174 0.4993
C31 C 0.2719(2) 0.3838(3) 0.5269(2)
C32 C 0.2083(2) 0.4391(4) 0.5447(3)
H35 H 0.1659 0.3955 0.5548
C33 C 0.2064(2) 0.5575(4) 0.5478(2)
H36 H 0.1617 0.5937 0.5590
C34 C 0.2674(3) 0.0769(4) 0.5871(2)
H37 H 0.2647 0.0371 0.6307
C35 C 0.2681(3) 0.1963(3) 0.5885(2)
H38 H 0.2644 0.2366 0.6317
C36 C 0.2742(2) 0.2556(3) 0.5259(2)
C37 C 0.2805(2) 0.1917(4) 0.4652(2)
H39 H 0.2875 0.2291 0.4218
C38 C 0.2768(2) 0.0736(4) 0.4680(2)
H40 H 0.2790 0.0315 0.4251
O14 O 0.29497(16) 0.7872(2) 0.41743(15)
H41 H 0.2693 0.7340 0.3960
H42 H 0.2895 0.8476 0.3929
Cd1_2 Cd 0.252986(17) -0.18099(2) 0.527196(17)
N4_2 N 0.27028(18) 1.0148(3) 0.52794(19)
C14? C 0.3738(11) 0.848(2) 0.6816(12)
H15? H 0.3858 0.9294 0.6738
H16? H 0.3903 0.8282 0.7323
C15? C 0.4116(12) 0.774(3) 0.6347(12)
H17? H 0.4671 0.7747 0.6492
H18? H 0.3933 0.6936 0.6368
C39? C 0.0000 0.5000 0.5000
H43? H 0.0412 0.4614 0.5305
H44? H -0.0292 0.4430 0.4696
H45? H -0.0333 0.5386 0.5300
O15? O 0.0250(8) 0.5669(13) 0.4647(9)
H46? H 0.0673 0.5890 0.4851
loop_
_geom_bond_atom_site_label_1
_geom_bond_atom_site_label_2
_geom_bond_site_symmetry_1
_geom_bond_site_symmetry_2
Cd1 O1 1_555 1_555
O1 C8 1_555 1_555
O2 Cd1 1_555 1_555
O3 Cd1 1_555 1_555
O4 C17 1_555 1_555
O5 C19 1_555 1_555
N1 Cd1 1_555 1_555
N2 C27 1_555 1_555
N3 Cd1 1_555 1_555
N4 C34 1_555 1_555
C1 N1 1_555 1_555
H1 C1 1_555 1_555
C2 C1 1_555 1_555
H2 C2 1_555 1_555
C3 C2 1_555 1_555
H3 C3 1_555 1_555
C4 C3 1_555 1_555
C5 C4 1_555 1_555
H4 C5 1_555 1_555
C6 C5 1_555 1_555
H5 C6 1_555 1_555
C7 C6 1_555 1_555
H6 C7 1_555 1_555
C8 C7 1_555 1_555
C9 N1 1_555 1_555
C10 O1 1_555 1_555
H7 C10 1_555 1_555
H8 C10 1_555 1_555
C11 O2 1_555 1_555
H9 C11 1_555 1_555
H10 C11 1_555 1_555
C12 O2 1_555 1_555
H11 C12 1_555 1_555
H12 C12 1_555 1_555
C13 O3 1_555 1_555
H13 C13 1_555 1_555
H14 C13 1_555 1_555
C16 O3 1_555 1_555
H19 C16 1_555 1_555
H20 C16 1_555 1_555
C17 C16 1_555 1_555
H21 C17 1_555 1_555
H22 C17 1_555 1_555
C18 O4 1_555 1_555
H23 C18 1_555 1_555
H24 C18 1_555 1_555
C19 C18 1_555 1_555
H25 C19 1_555 1_555
H26 C19 1_555 1_555
C20 O5 1_555 1_555
C21 C20 1_555 1_555
H27 C21 1_555 1_555
C22 C21 1_555 1_555
H28 C22 1_555 1_555
C23 C22 1_555 1_555
H29 C23 1_555 1_555
C24 C23 1_555 1_555
C25 C24 1_555 1_555
H30 C25 1_555 1_555
C26 C25 1_555 1_555
H31 C26 1_555 1_555
C27 C26 1_555 1_555
H32 C27 1_555 1_555
C28 N2 1_555 1_555
C29 N3 1_555 1_555
H33 C29 1_555 1_555
C30 C29 1_555 1_555
H34 C30 1_555 1_555
C31 C30 1_555 1_555
C32 C31 1_555 1_555
H35 C32 1_555 1_555
C33 N3 1_555 1_555
H36 C33 1_555 1_555
C34 H37 1_555 1_555
C35 C34 1_555 1_555
H38 C35 1_555 1_555
C36 C31 1_555 1_555
C37 C36 1_555 1_555
H39 C37 1_555 1_555
C38 N4 1_555 1_555
H40 C38 1_555 1_555
Cl1 O6 1_555 1_555
O7 Cl1 1_555 1_555
O8 Cl1 1_555 1_555
O9 Cl1 1_555 1_555
Cl2 O10 1_555 1_555
O11 Cl2 1_555 1_555
O12 Cl2 1_555 1_555
O13 Cl2 1_555 1_555
O14 Cd1 1_555 1_555
H41 O14 1_555 1_555
H42 O14 1_555 1_555
Cd1_2 N4 1_555 1_555
N4_2 Cd1 1_555 1_555
C4 C9 1_555 1_555
C8 C9 1_555 1_555
C10 C11 1_555 1_555
C12 C13 1_555 1_555
C20 C28 1_555 1_555
C24 C28 1_555 1_555
C32 C33 1_555 1_555
C35 C36 1_555 1_555
C37 C38 1_555 1_555

#END
