
#######################################################################
#
#                 Cambridge Crystallographic Data Centre
#                                CCDC 
#
#######################################################################
#
# If this CIF has been generated from an entry in the Cambridge 
# Structural Database, then it will include bibliographic, chemical, 
# crystal, experimental, refinement or atomic coordinate data resulting 
# from the CCDC's data processing and validation procedures.
#
#######################################################################

data_SEKQUV
_symmetry_cell_setting           orthorhombic
_symmetry_space_group_name_H-M   'I b a m'
_symmetry_Int_Tables_number      72
_space_group_name_Hall           '-I 2 2c'
loop_
_symmetry_equiv_pos_site_id
_symmetry_equiv_pos_as_xyz
1 x,y,z
2 1/2+x,1/2+y,1/2+z
3 -x,-y,z
4 1/2-x,1/2+y,-z
5 1/2+x,1/2-y,-z
6 1/2-x,1/2-y,1/2+z
7 -x,y,1/2-z
8 x,-y,1/2-z
9 -x,-y,-z
10 1/2-x,1/2-y,1/2-z
11 x,y,-z
12 1/2+x,1/2-y,z
13 1/2-x,1/2+y,z
14 1/2+x,1/2+y,1/2-z
15 x,-y,1/2+z
16 -x,y,1/2+z
_cell_length_a                   13.3504(7)
_cell_length_b                   18.7993(10)
_cell_length_c                   21.6475(13)
_cell_angle_alpha                90
_cell_angle_beta                 90
_cell_angle_gamma                90
_cell_volume                     5433.05
loop_
_atom_site_label
_atom_site_type_symbol
_atom_site_fract_x
_atom_site_fract_y
_atom_site_fract_z
Mo1 Mo 0.09549(5) 0.42998(3) 0.0000
Mo2 Mo -0.07566(4) 0.42465(2) 0.10297(2)
Mo3 Mo -0.25423(6) 0.42035(4) 0.0000
Cu1 Cu 0.0000 0.36656(5) -0.2500
Cu2 Cu 0.17070(7) 0.5000 -0.2500
C1 C 0.1088(5) 0.2388(3) -0.1550(3)
H1 H 0.1061 0.2291 -0.1110
H2 H 0.0409 0.2381 -0.1708
C2 C 0.2579(4) 0.3996(3) -0.1604(3)
C3 C 0.1535(4) 0.3102(3) -0.1654(2)
C4 C 0.4427(6) 0.4100(5) -0.1582(7)
H3 H 0.4965 0.4402 -0.1449
H4 H 0.4484 0.3645 -0.1384
H5 H 0.4460 0.4040 -0.2022
C5 C 0.1703(6) 0.1817(4) -0.1869(5)
H6 H 0.1409 0.1360 -0.1793
H7 H 0.1715 0.1907 -0.2306
H8 H 0.2375 0.1824 -0.1711
C6 C 0.3456(5) 0.4430(4) -0.1414(4)
H9 H 0.3434 0.4500 -0.0971
H10 H 0.3410 0.4894 -0.1608
N1 N 0.1243(3) 0.3575(2) -0.20562(19)
N2 N 0.1913(3) 0.4144(2) -0.2029(2)
N3 N -0.2893(5) 0.3018(4) -0.4149(3)
H11 H -0.3374 0.3240 -0.4329
H12 H -0.2720 0.2601 -0.4275
N4 N 0.2374(3) 0.3343(2) -0.1365(2)
O1 O -0.3790(6) 0.4391(5) 0.0000
O2 O -0.2486(6) 0.3303(4) 0.0000
O3 O -0.0655(4) 0.4421(3) 0.0000
O4 O -0.2118(3) 0.4376(2) 0.0837(2)
O5 O -0.0750(3) 0.4447(2) 0.18093(19)
O6 O 0.2191(4) 0.4598(3) 0.0000
O7 O 0.0662(3) 0.4500(2) 0.08567(16)
O8 O 0.1036(5) 0.3401(3) 0.0000
O9 O -0.0656(3) 0.3348(2) 0.10083(19)
Mo1H Mo -0.09549(5) 0.57002(3) 0.0000
Mo2H Mo 0.07566(4) 0.57535(2) -0.10297(2)
Mo2B Mo 0.07566(4) 0.57535(2) 0.10297(2)
Mo2J Mo -0.07566(4) 0.42465(2) -0.10297(2)
Mo3H Mo 0.25423(6) 0.57965(4) 0.0000
Cu1N Cu 0.0000 0.63344(5) 0.2500
Cu1J Cu 0.0000 0.36656(5) 0.2500
Cu1B Cu 0.0000 0.63344(5) -0.2500
Cu2J Cu 0.17070(7) 0.5000 0.2500
Cu2O Cu -0.17070(7) 0.5000 0.2500
Cu2B Cu -0.17070(7) 0.5000 -0.2500
C1G C 0.1088(5) 0.7612(3) -0.3450(3)
C1B C -0.1088(5) 0.7612(3) -0.1550(3)
C1F C -0.1088(5) 0.2388(3) -0.3450(3)
H1G H 0.1061 0.7709 -0.3890
H1B H -0.1061 0.7709 -0.1110
H1F H -0.1061 0.2291 -0.3890
H2G H 0.0409 0.7619 -0.3292
H2B H -0.0409 0.7619 -0.1708
H2F H -0.0409 0.2381 -0.3292
C2G C 0.2579(4) 0.6004(3) -0.3396(3)
C2B C -0.2579(4) 0.6004(3) -0.1604(3)
C2F C -0.2579(4) 0.3996(3) -0.3396(3)
C3G C 0.1535(4) 0.6898(3) -0.3346(2)
C3B C -0.1535(4) 0.6898(3) -0.1654(2)
C3F C -0.1535(4) 0.3102(3) -0.3346(2)
C4G C 0.4427(6) 0.5900(5) -0.3418(7)
C4B C -0.4427(6) 0.5900(5) -0.1582(7)
C4F C -0.4427(6) 0.4100(5) -0.3418(7)
H3G H 0.4965 0.5598 -0.3551
H3B H -0.4965 0.5598 -0.1449
H3F H -0.4965 0.4402 -0.3551
H4G H 0.4484 0.6355 -0.3616
H4B H -0.4484 0.6355 -0.1384
H4F H -0.4484 0.3645 -0.3616
H5G H 0.4460 0.5960 -0.2978
H5B H -0.4460 0.5960 -0.2022
H5F H -0.4460 0.4040 -0.2978
C5G C 0.1703(6) 0.8183(4) -0.3131(5)
C5B C -0.1703(6) 0.8183(4) -0.1869(5)
C5F C -0.1703(6) 0.1817(4) -0.3131(5)
H6G H 0.1409 0.8640 -0.3207
H6B H -0.1409 0.8640 -0.1793
H6F H -0.1409 0.1360 -0.3207
H7G H 0.1715 0.8093 -0.2694
H7B H -0.1715 0.8093 -0.2306
H7F H -0.1715 0.1907 -0.2694
H8G H 0.2375 0.8176 -0.3289
H8B H -0.2375 0.8176 -0.1711
H8F H -0.2375 0.1824 -0.3289
C6G C 0.3456(5) 0.5570(4) -0.3586(4)
C6B C -0.3456(5) 0.5570(4) -0.1414(4)
C6F C -0.3456(5) 0.4430(4) -0.3586(4)
H9G H 0.3434 0.5500 -0.4029
H9B H -0.3434 0.5500 -0.0971
H9F H -0.3434 0.4500 -0.4029
H10G H 0.3410 0.5106 -0.3392
H10B H -0.3410 0.5106 -0.1608
H10F H -0.3410 0.4894 -0.3392
N1G N 0.1243(3) 0.6425(2) -0.29438(19)
N1B N -0.1243(3) 0.6425(2) -0.20562(19)
N1F N -0.1243(3) 0.3575(2) -0.29438(19)
N2G N 0.1913(3) 0.5856(2) -0.2971(2)
N2B N -0.1913(3) 0.5856(2) -0.2029(2)
N2F N -0.1913(3) 0.4144(2) -0.2971(2)
N3G N -0.2893(5) 0.6982(4) -0.0851(3)
N3B N 0.2893(5) 0.6982(4) -0.4149(3)
N3F N 0.2893(5) 0.3018(4) -0.0851(3)
H11G H -0.3374 0.6760 -0.0671
H11B H 0.3374 0.6760 -0.4329
H11F H 0.3374 0.3240 -0.0671
H12G H -0.2720 0.7399 -0.0725
H12B H 0.2720 0.7399 -0.4275
H12F H 0.2720 0.2601 -0.0725
N4G N 0.2374(3) 0.6657(2) -0.3635(2)
N4B N -0.2374(3) 0.6657(2) -0.1365(2)
N4F N -0.2374(3) 0.3343(2) -0.3635(2)
O1H O 0.3790(6) 0.5609(5) 0.0000
O2H O 0.2486(6) 0.6697(4) 0.0000
O3H O 0.0655(4) 0.5579(3) 0.0000
O4H O 0.2118(3) 0.5624(2) -0.0837(2)
O4B O 0.2118(3) 0.5624(2) 0.0837(2)
O4J O -0.2118(3) 0.4376(2) -0.0837(2)
O5B O 0.0750(3) 0.5553(2) 0.18093(19)
O5J O -0.0750(3) 0.4447(2) -0.18093(19)
O5O O 0.0750(3) 0.4447(2) -0.31907(19)
O5N O -0.0750(3) 0.5553(2) -0.31907(19)
O5H O 0.0750(3) 0.5553(2) -0.18093(19)
O6H O -0.2191(4) 0.5402(3) 0.0000
O7J O 0.0662(3) 0.4500(2) -0.08567(16)
O7H O -0.0662(3) 0.5500(2) -0.08567(16)
O7B O -0.0662(3) 0.5500(2) 0.08567(16)
O8H O -0.1036(5) 0.6599(3) 0.0000
O9B O 0.0656(3) 0.6652(2) 0.10083(19)
O9J O -0.0656(3) 0.3348(2) -0.10083(19)
O9H O 0.0656(3) 0.6652(2) -0.10083(19)
loop_
_geom_bond_atom_site_label_1
_geom_bond_atom_site_label_2
_geom_bond_site_symmetry_1
_geom_bond_site_symmetry_2
Mo1 O3 1_555 1_555
Mo2 O3 1_555 1_555
Mo3 O1 1_555 1_555
Cu1 N1 1_555 1_555
Cu2 N2 1_555 1_555
C1 H1 1_555 1_555
H2 C1 1_555 1_555
C2 C6 1_555 1_555
C3 C1 1_555 1_555
C4 H3 1_555 1_555
H4 C4 1_555 1_555
H5 C4 1_555 1_555
C5 C1 1_555 1_555
H6 C5 1_555 1_555
H7 C5 1_555 1_555
H8 C5 1_555 1_555
C6 C4 1_555 1_555
H9 C6 1_555 1_555
H10 C6 1_555 1_555
N1 C3 1_555 1_555
N2 C2 1_555 1_555
N3 H11 1_555 1_555
H12 N3 1_555 1_555
N4 C2 1_555 1_555
O2 Mo3 1_555 1_555
O3 Mo1H 1_555 1_555
O4 Mo2 1_555 1_555
O5 Mo2 1_555 1_555
O6 Mo1 1_555 1_555
O7 Mo1 1_555 1_555
O8 Mo1 1_555 1_555
O9 Mo2 1_555 1_555
Mo1H O3H 1_555 1_555
Mo2H O3H 1_555 1_555
Mo2B O7 1_555 1_555
Mo2J O3 1_555 1_555
Mo3H O6 1_555 1_555
Cu1N O5B 1_555 1_555
Cu1J O5 1_555 1_555
Cu1B N1G 1_555 1_555
Cu2J O5B 1_555 1_555
Cu2O O5 1_555 1_555
Cu2B N2B 1_555 1_555
C1G H1G 1_555 1_555
C1B H1B 1_555 1_555
C1F H1F 1_555 1_555
H2G C1G 1_555 1_555
H2B C1B 1_555 1_555
H2F C1F 1_555 1_555
C2G C6G 1_555 1_555
C2B C6B 1_555 1_555
C2F C6F 1_555 1_555
C3G C1G 1_555 1_555
C3B C1B 1_555 1_555
C3F C1F 1_555 1_555
C4G H3G 1_555 1_555
C4B H3B 1_555 1_555
C4F H3F 1_555 1_555
H4G C4G 1_555 1_555
H4B C4B 1_555 1_555
H4F C4F 1_555 1_555
H5G C4G 1_555 1_555
H5B C4B 1_555 1_555
H5F C4F 1_555 1_555
C5G C1G 1_555 1_555
C5B C1B 1_555 1_555
C5F C1F 1_555 1_555
H6G C5G 1_555 1_555
H6B C5B 1_555 1_555
H6F C5F 1_555 1_555
H7G C5G 1_555 1_555
H7B C5B 1_555 1_555
H7F C5F 1_555 1_555
H8G C5G 1_555 1_555
H8B C5B 1_555 1_555
H8F C5F 1_555 1_555
C6G C4G 1_555 1_555
C6B C4B 1_555 1_555
C6F C4F 1_555 1_555
H9G C6G 1_555 1_555
H9B C6B 1_555 1_555
H9F C6F 1_555 1_555
H10G C6G 1_555 1_555
H10B C6B 1_555 1_555
H10F C6F 1_555 1_555
N1G C3G 1_555 1_555
N1B Cu1B 1_555 1_555
N1F Cu1 1_555 1_555
N2G Cu2 1_555 1_555
N2B C2B 1_555 1_555
N2F Cu2B 1_555 1_555
N3G H11G 1_555 1_555
N3B H11B 1_555 1_555
N3F N4 1_555 1_555
H11F N3F 1_555 1_555
H12G N3G 1_555 1_555
H12B N3B 1_555 1_555
H12F N3F 1_555 1_555
N4G C2G 1_555 1_555
N4B C2B 1_555 1_555
N4F N3 1_555 1_555
O1H Mo3H 1_555 1_555
O2H Mo3H 1_555 1_555
O3H Mo1 1_555 1_555
O4H Mo2H 1_555 1_555
O4B Mo2B 1_555 1_555
O4J Mo3 1_555 1_555
O5B Mo2B 1_555 1_555
O5J Cu1 1_555 1_555
O5O Cu1 1_555 1_555
O5N Cu1B 1_555 1_555
O5H Cu2 1_555 1_555
O6H Mo3 1_555 1_555
O7J Mo1 1_555 1_555
O7H Mo1H 1_555 1_555
O7B Mo2 1_555 1_555
O8H Mo1H 1_555 1_555
O9B Mo2B 1_555 1_555
O9J Mo2J 1_555 1_555
O9H Mo2H 1_555 1_555
Mo2 O7 1_555 1_555
Mo3 O4 1_555 1_555
Cu2 O5O 1_555 1_555
C3 N4 1_555 1_555
N1 N2 1_555 1_555
Mo1H O6H 1_555 1_555
Mo1H O7B 1_555 1_555
Mo2H O5H 1_555 1_555
Mo2H O7J 1_555 1_555
Mo2H O7H 1_555 1_555
Mo2B O3H 1_555 1_555
Mo2B O7B 1_555 1_555
Mo2J O4J 1_555 1_555
Mo2J O5J 1_555 1_555
Mo2J O7J 1_555 1_555
Mo2J O7H 1_555 1_555
Mo3H O4H 1_555 1_555
Mo3H O4B 1_555 1_555
Cu1B O5H 1_555 1_555
Cu2B O5J 1_555 1_555
Cu2B O5N 1_555 1_555
C2G N2G 1_555 1_555
C2F N2F 1_555 1_555
C2F N4F 1_555 1_555
C3G N4G 1_555 1_555
C3B N1B 1_555 1_555
C3B N4B 1_555 1_555
C3F N1F 1_555 1_555
C3F N4F 1_555 1_555
N1G N2G 1_555 1_555
N1B N2B 1_555 1_555
N1F N2F 1_555 1_555
N3G N4B 1_555 1_555
N3B N4G 1_555 1_555

#END
