
#######################################################################
#
#                 Cambridge Crystallographic Data Centre
#                                CCDC 
#
#######################################################################
#
# If this CIF has been generated from an entry in the Cambridge 
# Structural Database, then it will include bibliographic, chemical, 
# crystal, experimental, refinement or atomic coordinate data resulting 
# from the CCDC's data processing and validation procedures.
#
#######################################################################

data_SEKQOP
_symmetry_cell_setting           monoclinic
_symmetry_space_group_name_H-M   'P 21/n'
_symmetry_Int_Tables_number      14
_space_group_name_Hall           '-P 2yn'
loop_
_symmetry_equiv_pos_site_id
_symmetry_equiv_pos_as_xyz
1 x,y,z
2 1/2-x,1/2+y,1/2-z
3 -x,-y,-z
4 1/2+x,1/2-y,1/2+z
_cell_length_a                   14.9949(10)
_cell_length_b                   12.6010(7)
_cell_length_c                   15.8868(10)
_cell_angle_alpha                90
_cell_angle_beta                 100.147(3)
_cell_angle_gamma                90
_cell_volume                     2954.87
loop_
_atom_site_label
_atom_site_type_symbol
_atom_site_fract_x
_atom_site_fract_y
_atom_site_fract_z
Mo1 Mo -0.07471(4) 0.39494(5) 0.01634(4)
Mo2 Mo 0.16533(4) 0.35897(5) 0.07028(3)
Mo3 Mo 0.13119(4) 0.39678(5) -0.15654(4)
Mo4 Mo -0.06591(4) 0.52871(5) -0.21378(3)
Cu1 Cu -0.40317(6) 0.51412(7) 0.12765(5)
Cu2 Cu -0.40839(6) 0.59016(7) -0.08638(5)
C1 C -0.3682(4) 0.3064(5) 0.0446(4)
C2 C -0.3689(6) 0.7536(7) 0.2336(5)
H1 H -0.3684 0.6834 0.2572
H2 H -0.4176 0.7936 0.2498
H3 H -0.3123 0.7881 0.2550
C3 C -0.4283(5) 0.4617(6) 0.3114(4)
C4 C -0.3485(6) 0.5120(8) 0.3646(5)
H4 H -0.3119 0.5452 0.3283
H5 H -0.3684 0.5644 0.4011
H6 H -0.3135 0.4589 0.3991
C5 C -0.3593(6) 0.2409(6) 0.1219(5)
H7 H -0.3700 0.2838 0.1690
H8 H -0.2993 0.2116 0.1344
H9 H -0.4028 0.1843 0.1128
C6 C -0.3999(6) 0.8673(6) -0.0689(5)
H10 H -0.4062 0.8245 -0.1196
H11 H -0.3460 0.9095 -0.0643
H12 H -0.4516 0.9130 -0.0722
C7 C -0.3700(4) 0.3549(5) -0.0884(4)
C8 C -0.3588(6) 0.3483(6) -0.1787(5)
H13 H -0.3714 0.4162 -0.2055
H14 H -0.4000 0.2965 -0.2078
H15 H -0.2978 0.3278 -0.1815
C9 C -0.6338(5) 0.3048(6) 0.2883(5)
H16 H -0.6666 0.2865 0.2327
H17 H -0.6143 0.2411 0.3194
H18 H -0.6723 0.3446 0.3189
C10 C -0.3815(4) 0.7469(6) 0.1399(4)
C11 C -0.5529(4) 0.3702(5) 0.2789(4)
C12 C -0.3936(4) 0.7977(5) 0.0071(4)
N1 N -0.3982(4) 0.6934(4) 0.0079(3)
N2 N -0.6194(5) 0.0587(5) -0.1106(5)
H19 H -0.6151 0.0109 -0.0715
H20 H -0.6257 0.0404 -0.1635
N3 N -0.3569(4) 0.2702(4) -0.0330(4)
N4 N -0.3839(4) 0.8341(4) 0.0883(4)
N5 N -0.3284(5) 0.1662(5) -0.0467(4)
H21 H -0.3173 0.1224 -0.0047
H22 H -0.3222 0.1465 -0.0972
N6 N -0.4483(4) 0.4574(5) 0.2279(3)
N7 N -0.3880(4) 0.4077(4) 0.0377(3)
N8 N -0.3891(4) 0.4382(4) -0.0470(3)
N9 N -0.5283(4) 0.3989(4) 0.2071(3)
N10 N -0.3894(4) 0.6612(4) 0.0934(3)
N11 N -0.5068(4) 0.5977(5) -0.4331(3)
H23 H -0.4631 0.6296 -0.4511
H24 H -0.5500 0.5696 -0.4690
N12 N -0.4923(4) 0.4086(4) 0.3450(3)
O1 O 0.1581(4) 0.2667(5) -0.1622(4)
O2 O -0.0388(4) 0.5819(5) -0.3046(3)
O3 O -0.1659(4) 0.3170(6) -0.0087(4)
O4 O 0.0173(3) 0.3160(4) 0.0034(3)
O5 O 0.1896(4) 0.2317(4) 0.0485(3)
O6 O -0.1654(3) 0.4646(4) -0.2481(3)
O7 O 0.0107(3) 0.4000(4) -0.2048(3)
O8 O -0.0802(4) 0.4923(4) -0.0714(3)
O9 O 0.2652(3) 0.4122(4) 0.1187(3)
O10 O 0.1647(4) 0.4279(5) -0.0415(3)
O11 O -0.0631(3) 0.4252(4) 0.1297(3)
O12 O 0.1092(3) 0.3447(3) 0.1677(3)
O13 O 0.1962(4) 0.4622(5) -0.2171(3)
Mo1B Mo 0.07471(4) 0.60506(5) -0.01634(4)
Mo2B Mo -0.16533(4) 0.64103(5) -0.07028(3)
Mo3B Mo -0.13119(4) 0.60322(5) 0.15654(4)
Mo4B Mo 0.06591(4) 0.47129(5) 0.21378(3)
Cu1B Cu -0.59683(6) 0.48588(7) -0.12765(5)
Cu2B Cu 0.40839(6) 0.40984(7) 0.08638(5)
Cu2B_2 Cu -0.59161(6) 0.40984(7) 0.08638(5)
C1B C -0.6318(4) 0.6936(5) -0.0446(4)
C2B C -0.6311(6) 0.2464(7) -0.2336(5)
H1B H -0.6316 0.3166 -0.2572
H2B H -0.5824 0.2064 -0.2498
H3B H -0.6877 0.2119 -0.2550
C3B C -0.5717(5) 0.5383(6) -0.3114(4)
C4B C -0.6515(6) 0.4880(8) -0.3646(5)
H4B H -0.6881 0.4548 -0.3283
H5B H -0.6316 0.4356 -0.4011
H6B H -0.6865 0.5411 -0.3991
C5B C -0.6407(6) 0.7591(6) -0.1219(5)
H7B H -0.6300 0.7162 -0.1690
H8B H -0.7007 0.7884 -0.1344
H9B H -0.5972 0.8157 -0.1128
C6B C -0.6001(6) 0.1327(6) 0.0689(5)
H10B H -0.5938 0.1755 0.1196
H11B H -0.6540 0.0905 0.0643
H12B H -0.5484 0.0870 0.0722
C7B C -0.6300(4) 0.6451(5) 0.0884(4)
C8B C -0.6412(6) 0.6517(6) 0.1787(5)
H13B H -0.6286 0.5838 0.2055
H14B H -0.6000 0.7035 0.2078
H15B H -0.7022 0.6722 0.1815
C9B C -0.3662(5) 0.6952(6) -0.2883(5)
H16B H -0.3334 0.7135 -0.2327
H17B H -0.3857 0.7589 -0.3194
H18B H -0.3277 0.6554 -0.3189
C10B C -0.6185(4) 0.2531(6) -0.1399(4)
C11B C -0.4471(4) 0.6298(5) -0.2789(4)
C12B C -0.6064(4) 0.2023(5) -0.0071(4)
N1B N -0.6018(4) 0.3066(4) -0.0079(3)
N2B N -0.3806(5) 0.9413(5) 0.1106(5)
H19B H -0.3849 0.9891 0.0715
H20B H -0.3743 0.9596 0.1635
N3B N -0.6431(4) 0.7298(4) 0.0330(4)
N4B N -0.6161(4) 0.1659(4) -0.0883(4)
N5B N -0.6716(5) 0.8338(5) 0.0467(4)
H21B H -0.6827 0.8776 0.0047
H22B H -0.6778 0.8535 0.0972
N6B N -0.5517(4) 0.5426(5) -0.2279(3)
N7B N -0.6120(4) 0.5923(4) -0.0377(3)
N8B N -0.6109(4) 0.5618(4) 0.0470(3)
N9B N -0.4717(4) 0.6011(4) -0.2071(3)
N10B N -0.6106(4) 0.3388(4) -0.0934(3)
N11B N -0.4932(4) 0.4023(5) 0.4331(3)
H23B H -0.5369 0.3704 0.4511
H24B H -0.4500 0.4304 0.4690
N12B N -0.5077(4) 0.5914(4) -0.3450(3)
O1B O -0.1581(4) 0.7333(5) 0.1622(4)
O2B O 0.0388(4) 0.4181(5) 0.3046(3)
O3B O 0.1659(4) 0.6830(6) 0.0087(4)
O4B O -0.0173(3) 0.6840(4) -0.0034(3)
O5B O -0.1896(4) 0.7683(4) -0.0485(3)
O6B O 0.1654(3) 0.5354(4) 0.2481(3)
O7B O -0.0107(3) 0.6000(4) 0.2048(3)
O8B O 0.0802(4) 0.5077(4) 0.0714(3)
O9B O -0.2652(3) 0.5878(4) -0.1187(3)
O9_2 O -0.7348(3) 0.4122(4) 0.1187(3)
O10B O -0.1647(4) 0.5721(5) 0.0415(3)
O11B O 0.0631(3) 0.5748(4) -0.1297(3)
O12B O -0.1092(3) 0.6553(3) -0.1677(3)
O13B O -0.1962(4) 0.5378(5) 0.2171(3)
O14 O -0.3200(5) 0.4858(5) -0.3951(5)
loop_
_geom_bond_atom_site_label_1
_geom_bond_atom_site_label_2
_geom_bond_site_symmetry_1
_geom_bond_site_symmetry_2
Mo1 O3 1_555 1_555
Mo2 O4 1_555 1_555
Mo3 O1 1_555 1_555
Mo4 O2 1_555 1_555
Cu1 N6 1_555 1_555
Cu2 N1 1_555 1_555
C1 C5 1_555 1_555
C2 H1 1_555 1_555
H2 C2 1_555 1_555
H3 C2 1_555 1_555
C3 C4 1_555 1_555
C4 H4 1_555 1_555
H5 C4 1_555 1_555
H6 C4 1_555 1_555
C5 H7 1_555 1_555
H8 C5 1_555 1_555
H9 C5 1_555 1_555
C6 H10 1_555 1_555
H11 C6 1_555 1_555
H12 C6 1_555 1_555
C7 C8 1_555 1_555
C8 H13 1_555 1_555
H14 C8 1_555 1_555
H15 C8 1_555 1_555
C9 H16 1_555 1_555
H17 C9 1_555 1_555
H18 C9 1_555 1_555
C10 C2 1_555 1_555
C11 C9 1_555 1_555
C12 C6 1_555 1_555
N1 C12 1_555 1_555
N2 H19 1_555 1_555
H20 N2 1_555 1_555
N3 C1 1_555 1_555
N4 C10 1_555 1_555
N5 N3 1_555 1_555
H21 N5 1_555 1_555
H22 N5 1_555 1_555
N6 C3 1_555 1_555
N7 Cu1 1_555 1_555
N8 Cu2 1_555 1_555
N9 C11 1_555 1_555
N10 Cu1 1_555 1_555
N11 H23 1_555 1_555
H24 N11 1_555 1_555
N12 C3 1_555 1_555
O4 Mo1 1_555 1_555
O5 Mo2 1_555 1_555
O6 Mo4 1_555 1_555
O7 Mo3 1_555 1_555
O8 Mo1 1_555 1_555
O9 Mo2 1_555 1_555
O10 Mo2 1_555 1_555
O11 Mo1 1_555 1_555
O12 Mo2 1_555 1_555
O13 Mo3 1_555 1_555
Mo1B O3B 1_555 1_555
Mo2B O8 1_555 1_555
Mo3B O1B 1_555 1_555
Mo4B O11 1_555 1_555
Cu1B N6B 1_555 1_555
Cu2B O9 1_555 1_555
Cu2B_2 N9 1_555 1_555
C1B C5B 1_555 1_555
C2B H1B 1_555 1_555
H2B C2B 1_555 1_555
H3B C2B 1_555 1_555
C3B C4B 1_555 1_555
C4B H4B 1_555 1_555
H5B C4B 1_555 1_555
H6B C4B 1_555 1_555
C5B H7B 1_555 1_555
H8B C5B 1_555 1_555
H9B C5B 1_555 1_555
C6B H10B 1_555 1_555
H11B C6B 1_555 1_555
H12B C6B 1_555 1_555
C7B C8B 1_555 1_555
C8B H13B 1_555 1_555
H14B C8B 1_555 1_555
H15B C8B 1_555 1_555
C9B H16B 1_555 1_555
H17B C9B 1_555 1_555
H18B C9B 1_555 1_555
C10B C2B 1_555 1_555
C11B C9B 1_555 1_555
C12B C6B 1_555 1_555
N1B Cu2B_2 1_555 1_555
N2B N4 1_555 1_555
H19B N2B 1_555 1_555
H20B N2B 1_555 1_555
N3B C1B 1_555 1_555
N4B N2 1_555 1_555
N5B N3B 1_555 1_555
H21B N5B 1_555 1_555
H22B N5B 1_555 1_555
N6B C3B 1_555 1_555
N7B Cu1B 1_555 1_555
N8B Cu2B_2 1_555 1_555
N9B Cu2 1_555 1_555
N10B Cu1B 1_555 1_555
N11B N12 1_555 1_555
H23B N11B 1_555 1_555
H24B N11B 1_555 1_555
N12B N11 1_555 1_555
O2B Mo4B 1_555 1_555
O4B Mo1B 1_555 1_555
O5B Mo2B 1_555 1_555
O6B Mo4B 1_555 1_555
O7B Mo3B 1_555 1_555
O8B Mo2 1_555 1_555
O9B Cu2 1_555 1_555
O9_2 Cu2B_2 1_555 1_555
O10B Mo2B 1_555 1_555
O11B Mo4 1_555 1_555
O12B Mo4 1_555 1_555
O13B Mo3B 1_555 1_555
Mo3 O10 1_555 1_555
Mo4 O7 1_555 1_555
Mo4 O8 1_555 1_555
C1 N7 1_555 1_555
C7 N3 1_555 1_555
C7 N8 1_555 1_555
C10 N10 1_555 1_555
C11 N12 1_555 1_555
C12 N4 1_555 1_555
N1 N10 1_555 1_555
N6 N9 1_555 1_555
N7 N8 1_555 1_555
O12 Mo4B 1_555 1_555
Mo1B O8B 1_555 1_555
Mo1B O11B 1_555 1_555
Mo2B O4B 1_555 1_555
Mo2B O9B 1_555 1_555
Mo2B O12B 1_555 1_555
Mo3B O10B 1_555 1_555
Mo4B O7B 1_555 1_555
Mo4B O8B 1_555 1_555
C1B N7B 1_555 1_555
C3B N12B 1_555 1_555
C7B N3B 1_555 1_555
C7B N8B 1_555 1_555
C10B N4B 1_555 1_555
C10B N10B 1_555 1_555
C11B N9B 1_555 1_555
C11B N12B 1_555 1_555
C12B N1B 1_555 1_555
C12B N4B 1_555 1_555
N1B N10B 1_555 1_555
N6B N9B 1_555 1_555
N7B N8B 1_555 1_555

#END
