
#######################################################################
#
#                 Cambridge Crystallographic Data Centre
#                                CCDC 
#
#######################################################################
#
# If this CIF has been generated from an entry in the Cambridge 
# Structural Database, then it will include bibliographic, chemical, 
# crystal, experimental, refinement or atomic coordinate data resulting 
# from the CCDC's data processing and validation procedures.
#
#######################################################################

data_SEKQIJ
_symmetry_cell_setting           triclinic
_symmetry_space_group_name_H-M   'P -1'
_symmetry_Int_Tables_number      2
_space_group_name_Hall           '-P 1'
loop_
_symmetry_equiv_pos_site_id
_symmetry_equiv_pos_as_xyz
1 x,y,z
2 -x,-y,-z
_cell_length_a                   10.801
_cell_length_b                   12.219
_cell_length_c                   17.6311(2)
_cell_angle_alpha                90.525(11)
_cell_angle_beta                 103.755(8)
_cell_angle_gamma                115.838(4)
_cell_volume                     2017.22
loop_
_atom_site_label
_atom_site_type_symbol
_atom_site_fract_x
_atom_site_fract_y
_atom_site_fract_z
Mo1 Mo -0.14549(3) -0.18112(3) 0.092654(18)
Mo2 Mo -0.09130(3) -0.09617(3) -0.092578(17)
Mo3 Mo 0.14050(4) -0.15436(3) 0.028460(19)
Mo4 Mo -0.38411(4) -0.12326(3) -0.026616(19)
Mo5 Mo 0.29560(3) -0.36961(3) 0.50371(2)
Mo6 Mo -0.05318(3) -0.59776(3) 0.410380(17)
Mo7 Mo 0.22310(4) -0.65516(3) 0.51435(2)
Mo8 Mo 0.02162(4) -0.31293(3) 0.397740(19)
Cu1 Cu 0.48431(5) -0.28792(5) 0.34339(3)
Cu2 Cu 0.26674(6) -0.23240(4) 0.22766(4)
Cu3 Cu -0.48076(6) -0.18618(5) 0.15930(3)
Cu4 Cu -0.27977(7) -0.27649(6) 0.27229(4)
C1 C -0.0412(5) -0.5204(4) 0.1583(3)
H1 H -0.0385 -0.4414 0.1527
H2 H -0.0593 -0.5618 0.1073
H3 H -0.1158 -0.5682 0.1820
C2 C -0.6080(4) -0.4437(4) 0.0813(2)
C3 C 0.7087(4) -0.0379(3) 0.4204(2)
C4 C 1.0178(4) 0.0147(4) 0.3504(3)
H4 H 1.0133 -0.0468 0.3141
H5 H 1.0369 0.0888 0.3267
H6 H 1.0928 0.0306 0.3974
C5 C 0.3294(5) 0.0651(4) 0.3058(3)
H7 H 0.2445 -0.0102 0.3014
H8 H 0.3733 0.0988 0.3602
H9 H 0.3048 0.1224 0.2771
C6 C 0.2657(4) -0.5462(3) 0.2773(2)
C7 C 0.7585(4) 0.1234(4) 0.2163(3)
H10 H 0.7724 0.0621 0.1901
H11 H 0.7629 0.1861 0.1832
H12 H 0.8319 0.1589 0.2649
C8 C 0.4296(4) 0.0409(3) 0.2732(2)
C9 C 0.0974(4) -0.5050(3) 0.2086(2)
C10 C -0.4658(4) -0.5032(4) 0.1602(2)
C11 C -0.7239(6) -0.4449(5) 0.0175(3)
H13 H -0.7226 -0.3658 0.0202
H14 H -0.7113 -0.4635 -0.0323
H15 H -0.8139 -0.5060 0.0228
C12 C 0.8799(4) -0.0290(3) 0.3704(2)
C13 C 0.6171(4) 0.0663(3) 0.2328(2)
C14 C -0.4004(5) -0.5789(4) 0.1992(3)
H16 H -0.4470 -0.6594 0.1700
H17 H -0.3008 -0.5417 0.2011
H18 H -0.4110 -0.5850 0.2517
C15 C 0.3422(5) -0.6170(4) 0.3109(3)
H19 H 0.4354 -0.5619 0.3433
H20 H 0.2896 -0.6737 0.3423
H21 H 0.3513 -0.6614 0.2691
C16 C 0.6289(5) -0.0036(4) 0.4651(3)
H22 H 0.6901 0.0758 0.4950
H23 H 0.5482 -0.0011 0.4292
H24 H 0.5964 -0.0630 0.5001
N1 N 0.7680(3) -0.1333(3) 0.34157(18)
N2 N 0.5253(3) -0.0501(3) 0.21563(18)
N3 N 0.3146(3) -0.4268(3) 0.28549(19)
N4 N 0.4066(3) -0.0663(3) 0.24148(18)
N5 N 0.5608(3) 0.1248(3) 0.26903(19)
H25 H 0.6012 0.2017 0.2864
N6 N -0.5162(4) -0.3514(3) 0.13605(19)
N7 N -0.4268(3) -0.3895(3) 0.18519(18)
N8 N 0.2074(3) -0.4004(3) 0.24162(18)
N9 N 0.1314(3) -0.5969(3) 0.2290(2)
H26 H 0.0773 -0.6739 0.2139
N10 N 0.6593(3) -0.1395(3) 0.37326(18)
N11 N 0.8465(4) 0.0328(3) 0.4199(2)
H27 H 0.9024 0.1040 0.4463
N12 N -0.5787(4) -0.5399(3) 0.0954(2)
H28 H -0.6235 -0.6113 0.0681
O1 O -0.3251(3) -0.2457(2) 0.01451(15)
O2 O -0.0687(3) -0.2047(2) -0.01586(14)
O3 O -0.1216(3) -0.0139(2) 0.02109(14)
O4 O 0.0622(3) -0.0664(2) 0.11718(14)
O5 O -0.1845(3) -0.1246(3) 0.16787(16)
O6 O -0.1442(3) -0.3130(3) 0.11959(18)
O7 O -0.0546(3) -0.1512(2) -0.16920(16)
O8 O -0.2776(3) -0.1630(2) -0.11673(15)
O9 O 0.1394(3) -0.2566(3) 0.09485(18)
O10 O 0.1617(3) -0.2117(3) -0.05247(18)
O11 O 0.3244(3) -0.0238(3) 0.07338(16)
O12 O -0.4124(3) -0.0802(3) 0.05776(17)
O13 O -0.5499(3) -0.2114(3) -0.08611(19)
O14 O 0.0859(3) -0.4410(2) 0.39282(15)
O15 O 0.3113(3) -0.5088(2) 0.46869(17)
O16 O 0.1104(3) -0.5277(2) 0.53593(14)
O17 O 0.1659(3) -0.3010(2) 0.52251(15)
O18 O 0.4079(3) -0.3233(3) 0.59592(19)
O19 O 0.3822(3) -0.2680(3) 0.44569(19)
O20 O -0.1818(3) -0.6403(2) 0.32382(16)
O21 O 0.0405(3) -0.6818(2) 0.40313(15)
O22 O -0.0481(3) -0.2350(2) 0.45957(16)
O23 O 0.3367(3) -0.6140(3) 0.60709(18)
O24 O 0.2605(3) -0.7560(3) 0.46972(19)
O25 O -0.1129(3) -0.3559(3) 0.31245(17)
O26 O 0.1600(3) -0.1912(3) 0.37883(18)
Mo1A Mo 0.14549(3) 0.18112(3) -0.092654(18)
Mo2A Mo 0.09130(3) 0.09617(3) 0.092578(17)
Mo3A Mo -0.14050(4) 0.15436(3) -0.028460(19)
Mo4A Mo 0.38411(4) 0.12326(3) 0.026616(19)
Mo5A Mo -0.29560(3) -0.63039(3) 0.49629(2)
Mo6A Mo 0.05318(3) -0.40224(3) 0.589620(17)
Mo7A Mo -0.22310(4) -0.34484(3) 0.48565(2)
Mo8A Mo -0.02162(4) -0.68707(3) 0.602260(19)
Cu1_2 Cu -0.51569(5) -0.28792(5) 0.34339(3)
Cu1A Cu -0.48431(5) -0.71208(5) 0.65661(3)
Cu2_2 Cu -0.73326(6) -0.23240(4) 0.22766(4)
Cu2A Cu -0.26674(6) 0.23240(4) -0.22766(4)
Cu3_2 Cu 0.51924(6) -0.18618(5) 0.15930(3)
Cu3A Cu 0.48076(6) 0.18618(5) -0.15930(3)
Cu4_2 Cu 0.72023(7) -0.27649(6) 0.27229(4)
Cu4A Cu 0.27977(7) -0.72351(6) 0.72771(4)
C1_2 C -1.0412(5) -0.5204(4) 0.1583(3)
H1_2 H -1.0385 -0.4414 0.1527
H2_2 H -1.0593 -0.5618 0.1073
H3_2 H -1.1158 -0.5682 0.1820
C2_2 C 0.3920(4) -0.4437(4) 0.0813(2)
C3_2 C -0.2913(4) -0.0379(3) 0.4204(2)
C4_2 C 0.0178(4) 0.0147(4) 0.3504(3)
H4_2 H 0.0133 -0.0468 0.3141
H5_2 H 0.0369 0.0888 0.3267
H6_2 H 0.0928 0.0306 0.3974
C5_2 C -0.6706(5) 0.0651(4) 0.3058(3)
H7_2 H -0.7555 -0.0102 0.3014
H8_2 H -0.6267 0.0988 0.3602
H9_2 H -0.6952 0.1224 0.2771
C6_2 C -0.7343(4) -0.5462(3) 0.2773(2)
C7_2 C -0.2415(4) 0.1234(4) 0.2163(3)
H10_2 H -0.2276 0.0621 0.1901
H11_2 H -0.2371 0.1861 0.1832
H12_2 H -0.1681 0.1589 0.2649
C8_2 C -0.5704(4) 0.0409(3) 0.2732(2)
C9_2 C -0.9026(4) -0.5050(3) 0.2086(2)
C10_2 C 0.5342(4) -0.5032(4) 0.1602(2)
C11_2 C 0.2761(6) -0.4449(5) 0.0175(3)
H13_2 H 0.2774 -0.3658 0.0202
H14_2 H 0.2887 -0.4635 -0.0323
H15_2 H 0.1861 -0.5060 0.0228
C12_2 C -0.1201(4) -0.0290(3) 0.3704(2)
C13_2 C -0.3829(4) 0.0663(3) 0.2328(2)
C14_2 C 0.5996(5) -0.5789(4) 0.1992(3)
H16_2 H 0.5530 -0.6594 0.1700
H17_2 H 0.6992 -0.5417 0.2011
H18_2 H 0.5890 -0.5850 0.2517
C15_2 C -0.6578(5) -0.6170(4) 0.3109(3)
H19_2 H -0.5646 -0.5619 0.3433
H20_2 H -0.7104 -0.6737 0.3423
H21_2 H -0.6487 -0.6614 0.2691
C16_2 C -0.3711(5) -0.0036(4) 0.4651(3)
H22_2 H -0.3099 0.0758 0.4950
H23_2 H -0.4518 -0.0011 0.4292
H24_2 H -0.4036 -0.0630 0.5001
N1_2 N -0.2320(3) -0.1333(3) 0.34157(18)
N2_2 N -0.4747(3) -0.0501(3) 0.21563(18)
N3_2 N -0.6854(3) -0.4268(3) 0.28549(19)
N4_2 N -0.5934(3) -0.0663(3) 0.24148(18)
N5_2 N -0.4392(3) 0.1248(3) 0.26903(19)
H25_2 H -0.3988 0.2017 0.2864
N6_2 N 0.4838(4) -0.3514(3) 0.13605(19)
N7_2 N 0.5732(3) -0.3895(3) 0.18519(18)
N8_2 N -0.7926(3) -0.4004(3) 0.24162(18)
N9_2 N -0.8686(3) -0.5969(3) 0.2290(2)
H26_2 H -0.9227 -0.6739 0.2139
N10_2 N -0.3407(3) -0.1395(3) 0.37326(18)
N11_2 N -0.1535(4) 0.0328(3) 0.4199(2)
H27_2 H -0.0976 0.1040 0.4463
N12_2 N 0.4213(4) -0.5399(3) 0.0954(2)
H28_2 H 0.3765 -0.6113 0.0681
O1A O 0.3251(3) 0.2457(2) -0.01451(15)
O2A O 0.0687(3) 0.2047(2) 0.01586(14)
O3A O 0.1216(3) 0.0139(2) -0.02109(14)
O4A O -0.0622(3) 0.0664(2) -0.11718(14)
O5A O 0.1845(3) 0.1246(3) -0.16787(16)
O6A O 0.1442(3) 0.3130(3) -0.11959(18)
O7A O 0.0546(3) 0.1512(2) 0.16920(16)
O8A O 0.2776(3) 0.1630(2) 0.11673(15)
O9A O -0.1394(3) 0.2566(3) -0.09485(18)
O9_2 O -0.8606(3) -0.2566(3) 0.09485(18)
O10A O -0.1617(3) 0.2117(3) 0.05247(18)
O11A O -0.3244(3) 0.0238(3) -0.07338(16)
O12_2 O 0.5876(3) -0.0802(3) 0.05776(17)
O12A O 0.4124(3) 0.0802(3) -0.05776(17)
O13A O 0.5499(3) 0.2114(3) 0.08611(19)
O14A O -0.0859(3) -0.5590(2) 0.60718(15)
O15A O -0.3113(3) -0.4912(2) 0.53131(17)
O16A O -0.1104(3) -0.4723(2) 0.46407(14)
O17A O -0.1659(3) -0.6990(2) 0.47749(15)
O18A O -0.4079(3) -0.6767(3) 0.40408(19)
O19A O -0.3822(3) -0.7320(3) 0.55431(19)
O19_2 O -0.6178(3) -0.2680(3) 0.44569(19)
O20A O 0.1818(3) -0.3597(2) 0.67618(16)
O21A O -0.0405(3) -0.3182(2) 0.59687(15)
O22A O 0.0481(3) -0.7650(2) 0.54043(16)
O23A O -0.3367(3) -0.3860(3) 0.39291(18)
O24A O -0.2605(3) -0.2440(3) 0.53028(19)
O25_2 O 0.8871(3) -0.3559(3) 0.31245(17)
O25A O 0.1129(3) -0.6441(3) 0.68755(17)
O26A O -0.1600(3) -0.8088(3) 0.62117(18)
loop_
_geom_bond_atom_site_label_1
_geom_bond_atom_site_label_2
_geom_bond_site_symmetry_1
_geom_bond_site_symmetry_2
Mo1 O1 1_555 1_555
Mo2 O2 1_555 1_555
Mo3 O2 1_555 1_555
Mo4 O1 1_555 1_555
Mo5 O14 1_555 1_555
Mo6 O14 1_555 1_555
Mo7 O15 1_555 1_555
Mo8 O14 1_555 1_555
Cu1 N3 1_555 1_555
Cu2 N4 1_555 1_555
Cu3 N6 1_555 1_555
Cu4 N7 1_555 1_555
C1 H1 1_555 1_555
H2 C1 1_555 1_555
H3 C1 1_555 1_555
C2 C11 1_555 1_555
C3 C16 1_555 1_555
C4 H4 1_555 1_555
H5 C4 1_555 1_555
H6 C4 1_555 1_555
C5 H7 1_555 1_555
H8 C5 1_555 1_555
H9 C5 1_555 1_555
C6 C15 1_555 1_555
C7 H10 1_555 1_555
H11 C7 1_555 1_555
H12 C7 1_555 1_555
C8 C5 1_555 1_555
C9 C1 1_555 1_555
C10 C14 1_555 1_555
C11 H13 1_555 1_555
H14 C11 1_555 1_555
H15 C11 1_555 1_555
C12 C4 1_555 1_555
C13 C7 1_555 1_555
C14 H16 1_555 1_555
H17 C14 1_555 1_555
H18 C14 1_555 1_555
C15 H19 1_555 1_555
H20 C15 1_555 1_555
H21 C15 1_555 1_555
C16 H22 1_555 1_555
H23 C16 1_555 1_555
H24 C16 1_555 1_555
N1 C12 1_555 1_555
N2 C13 1_555 1_555
N3 C6 1_555 1_555
N4 C8 1_555 1_555
N5 C8 1_555 1_555
H25 N5 1_555 1_555
N6 C2 1_555 1_555
N7 C10 1_555 1_555
N8 Cu2 1_555 1_555
N9 C6 1_555 1_555
H26 N9 1_555 1_555
N10 Cu1 1_555 1_555
N11 C3 1_555 1_555
H27 N11 1_555 1_555
N12 C2 1_555 1_555
H28 N12 1_555 1_555
O2 Mo1 1_555 1_555
O3 Mo1 1_555 1_555
O4 Mo1 1_555 1_555
O5 Mo1 1_555 1_555
O6 Mo1 1_555 1_555
O7 Mo2 1_555 1_555
O8 Mo2 1_555 1_555
O9 Mo3 1_555 1_555
O10 Mo3 1_555 1_555
O11 Mo3 1_555 1_555
O12 Mo4 1_555 1_555
O13 Mo4 1_555 1_555
O15 Mo5 1_555 1_555
O16 Mo5 1_555 1_555
O17 Mo5 1_555 1_555
O18 Mo5 1_555 1_555
O19 Mo5 1_555 1_555
O20 Mo6 1_555 1_555
O21 Mo6 1_555 1_555
O22 Mo8 1_555 1_555
O23 Mo7 1_555 1_555
O24 Mo7 1_555 1_555
O25 Mo8 1_555 1_555
O26 Mo8 1_555 1_555
Mo1A O1A 1_555 1_555
Mo2A O3 1_555 1_555
Mo3A O3 1_555 1_555
Mo4A O11 1_555 1_555
Mo5A O14A 1_555 1_555
Mo6A O16 1_555 1_555
Mo7A O22 1_555 1_555
Mo8A O16 1_555 1_555
Cu1_2 N3_2 1_555 1_555
Cu1A O19A 1_555 1_555
Cu2_2 N4_2 1_555 1_555
Cu2A O9A 1_555 1_555
Cu3_2 N2 1_555 1_555
Cu3A O12A 1_555 1_555
Cu4_2 N1 1_555 1_555
Cu4A O25A 1_555 1_555
C1_2 H1_2 1_555 1_555
H2_2 C1_2 1_555 1_555
H3_2 C1_2 1_555 1_555
C2_2 C11_2 1_555 1_555
C3_2 C16_2 1_555 1_555
C4_2 H4_2 1_555 1_555
H5_2 C4_2 1_555 1_555
H6_2 C4_2 1_555 1_555
C5_2 H7_2 1_555 1_555
H8_2 C5_2 1_555 1_555
H9_2 C5_2 1_555 1_555
C6_2 C15_2 1_555 1_555
C7_2 H10_2 1_555 1_555
H11_2 C7_2 1_555 1_555
H12_2 C7_2 1_555 1_555
C8_2 C5_2 1_555 1_555
C9_2 C1_2 1_555 1_555
C10_2 C14_2 1_555 1_555
C11_2 H13_2 1_555 1_555
H14_2 C11_2 1_555 1_555
H15_2 C11_2 1_555 1_555
C12_2 C4_2 1_555 1_555
C13_2 C7_2 1_555 1_555
C14_2 H16_2 1_555 1_555
H17_2 C14_2 1_555 1_555
H18_2 C14_2 1_555 1_555
C15_2 H19_2 1_555 1_555
H20_2 C15_2 1_555 1_555
H21_2 C15_2 1_555 1_555
C16_2 H22_2 1_555 1_555
H23_2 C16_2 1_555 1_555
H24_2 C16_2 1_555 1_555
N1_2 Cu4 1_555 1_555
N2_2 Cu3 1_555 1_555
N3_2 C6_2 1_555 1_555
N4_2 C8_2 1_555 1_555
N5_2 C8_2 1_555 1_555
H25_2 N5_2 1_555 1_555
N6_2 Cu3_2 1_555 1_555
N7_2 Cu4_2 1_555 1_555
N8_2 Cu2_2 1_555 1_555
N9_2 C6_2 1_555 1_555
H26_2 N9_2 1_555 1_555
N10_2 Cu1_2 1_555 1_555
N11_2 C3_2 1_555 1_555
H27_2 N11_2 1_555 1_555
N12_2 C2_2 1_555 1_555
H28_2 N12_2 1_555 1_555
O1A Mo4A 1_555 1_555
O2A Mo1A 1_555 1_555
O3A Mo2 1_555 1_555
O4A Mo2 1_555 1_555
O5A Mo1A 1_555 1_555
O6A Mo1A 1_555 1_555
O7A Mo2A 1_555 1_555
O8A Mo2A 1_555 1_555
O9A Mo3A 1_555 1_555
O9_2 Cu2_2 1_555 1_555
O10A Mo3A 1_555 1_555
O11A Mo4 1_555 1_555
O12_2 Cu3_2 1_555 1_555
O12A Mo4A 1_555 1_555
O13A Mo4A 1_555 1_555
O14A Mo6A 1_555 1_555
O15A Mo5A 1_555 1_555
O16A Mo6 1_555 1_555
O17A Mo6 1_555 1_555
O18A Mo5A 1_555 1_555
O19A Mo5A 1_555 1_555
O19_2 Cu1_2 1_555 1_555
O20A Mo6A 1_555 1_555
O21A Mo6A 1_555 1_555
O22A Mo7 1_555 1_555
O23A Mo7A 1_555 1_555
O24A Mo7A 1_555 1_555
O25_2 Cu4_2 1_555 1_555
O25A Mo8A 1_555 1_555
O26A Mo8A 1_555 1_555
Mo2 O3 1_555 1_555
Mo3 O4 1_555 1_555
Mo3 O3A 1_555 1_555
Mo4 O3 1_555 1_555
Mo4 O8 1_555 1_555
Mo6 O16 1_555 1_555
Mo7 O16 1_555 1_555
Mo7 O21 1_555 1_555
Mo8 O17 1_555 1_555
Mo8 O16A 1_555 1_555
Cu1 O19 1_555 1_555
Cu2 O9 1_555 1_555
Cu3 O12 1_555 1_555
Cu4 O25 1_555 1_555
C3 N10 1_555 1_555
C9 N8 1_555 1_555
C9 N9 1_555 1_555
C10 N12 1_555 1_555
C12 N11 1_555 1_555
C13 N5 1_555 1_555
N1 N10 1_555 1_555
N2 N4 1_555 1_555
N3 N8 1_555 1_555
N6 N7 1_555 1_555
O4 Mo2A 1_555 1_555
O17 Mo6A 1_555 1_555
Mo1A O3A 1_555 1_555
Mo1A O4A 1_555 1_555
Mo2A O2A 1_555 1_555
Mo2A O3A 1_555 1_555
Mo3A O2A 1_555 1_555
Mo3A O4A 1_555 1_555
Mo3A O11A 1_555 1_555
Mo4A O3A 1_555 1_555
Mo4A O8A 1_555 1_555
Mo5A O16A 1_555 1_555
Mo5A O17A 1_555 1_555
Mo6A O16A 1_555 1_555
Mo7A O15A 1_555 1_555
Mo7A O16A 1_555 1_555
Mo7A O21A 1_555 1_555
Mo8A O14A 1_555 1_555
Mo8A O17A 1_555 1_555
Mo8A O22A 1_555 1_555
C2_2 N6_2 1_555 1_555
C3_2 N10_2 1_555 1_555
C9_2 N8_2 1_555 1_555
C9_2 N9_2 1_555 1_555
C10_2 N7_2 1_555 1_555
C10_2 N12_2 1_555 1_555
C12_2 N1_2 1_555 1_555
C12_2 N11_2 1_555 1_555
C13_2 N2_2 1_555 1_555
C13_2 N5_2 1_555 1_555
N1_2 N10_2 1_555 1_555
N2_2 N4_2 1_555 1_555
N3_2 N8_2 1_555 1_555
N6_2 N7_2 1_555 1_555

#END
