
#######################################################################
#
#                 Cambridge Crystallographic Data Centre
#                                CCDC 
#
#######################################################################
#
# If this CIF has been generated from an entry in the Cambridge 
# Structural Database, then it will include bibliographic, chemical, 
# crystal, experimental, refinement or atomic coordinate data resulting 
# from the CCDC's data processing and validation procedures.
#
#######################################################################

data_SEKYOY
_symmetry_cell_setting           monoclinic
_symmetry_space_group_name_H-M   'C 2/c'
_symmetry_Int_Tables_number      15
_space_group_name_Hall           '-C 2yn'
loop_
_symmetry_equiv_pos_site_id
_symmetry_equiv_pos_as_xyz
1 x,y,z
2 -x,y,1/2-z
3 1/2+x,1/2+y,z
4 1/2-x,1/2+y,1/2-z
5 -x,-y,-z
6 x,-y,1/2+z
7 1/2-x,1/2-y,-z
8 1/2+x,1/2-y,1/2+z
_cell_length_a                   28.391(7)
_cell_length_b                   8.890(2)
_cell_length_c                   17.309(4)
_cell_angle_alpha                90
_cell_angle_beta                 126.430(4)
_cell_angle_gamma                90
_cell_volume                     3515
loop_
_atom_site_label
_atom_site_type_symbol
_atom_site_fract_x
_atom_site_fract_y
_atom_site_fract_z
Tb1 Tb 0.24775(3) 0.63922(7) 0.61984(5)
P1 P 0.37198(17) 0.7430(4) 0.6230(3)
P2 P 0.26746(17) 1.0435(4) 0.5687(3)
O1 O 0.3368(3) 0.6492(10) 0.6446(6)
O2 O 0.3394(4) 0.8288(9) 0.5292(6)
O3 O 0.4229(3) 0.6479(10) 0.6371(6)
H1 H 0.4225 0.6598 0.5887
O4 O 0.2541(4) 0.8900(9) 0.5844(6)
O5 O 0.2604(4) 1.0720(10) 0.4757(6)
O6 O 0.2309(3) 1.1620(9) 0.5803(5)
H2 H 0.2324 1.2466 0.5609
O7 O 0.3083(4) 0.7766(9) 0.7726(6)
O8 O 0.3075(4) 0.9612(10) 0.8592(6)
O9 O 0.1909(4) 0.7688(10) 0.6650(7)
O10 O 0.1921(4) 0.9495(10) 0.7558(6)
N1 N 0.3785(5) 0.9685(12) 0.7426(8)
H7 H 0.3518 0.9045 0.7377
C1 C 0.4136(5) 0.8740(17) 0.7219(9)
H8 H 0.4338 0.9415 0.7079
H9 H 0.4434 0.8217 0.7791
C2 C 0.3433(5) 1.0887(14) 0.6699(10)
H10 H 0.3412 1.1706 0.7026
H11 H 0.3650 1.1214 0.6468
C3 C 0.4170(7) 1.0299(17) 0.8460(11)
H12 H 0.3925 1.0855 0.8570
H13 H 0.4336 0.9482 0.8897
C4 C 0.4677(6) 1.1183(19) 0.8657(10)
C5 C 0.5232(7) 1.0606(17) 0.9130(11)
H14 H 0.5290 0.9599 0.9311
C6 C 0.5709(7) 1.144(2) 0.9352(11)
H15 H 0.6083 1.1022 0.9703
C7 C 0.5615(8) 1.289(2) 0.9038(11)
H16 H 0.5925 1.3466 0.9158
C8 C 0.5061(7) 1.3513(19) 0.8544(11)
H17 H 0.5001 1.4496 0.8319
C9 C 0.4599(7) 1.2698(17) 0.8380(11)
H18 H 0.4235 1.3150 0.8087
C10 C 0.2825(5) 0.8659(17) 0.7949(9)
C11 C 0.2157(6) 0.8617(18) 0.7326(9)
Tb1F Tb 0.25225(3) 0.86078(7) 0.38016(5)
Tb1C Tb 0.25225(3) 1.13922(7) 0.88016(5)
O2F O 0.1606(4) 0.6712(9) 0.4708(6)
O5F O 0.2396(4) 0.4280(10) 0.5243(6)
O8C O 0.1925(4) 0.4612(10) 0.6408(6)
O10C O 0.3079(4) 0.4495(10) 0.7442(6)
O11 O 0.4290(5) 0.6722(12) 0.4959(8)
H3 H 0.4573 0.6476 0.4937
H4 H 0.4017 0.7137 0.4438
O12 O 0.0758(5) 0.1063(12) 0.6051(8)
H5 H 0.0520 0.0617 0.6122
H6 H 0.0962 0.1687 0.6497
loop_
_geom_bond_atom_site_label_1
_geom_bond_atom_site_label_2
_geom_bond_site_symmetry_1
_geom_bond_site_symmetry_2
Tb1 O1 1_555 1_555
P1 O1 1_555 1_555
P2 O4 1_555 1_555
O2 P1 1_555 1_555
O3 P1 1_555 1_555
H1 O3 1_555 1_555
O4 Tb1 1_555 1_555
O5 P2 1_555 1_555
O6 P2 1_555 1_555
H2 O6 1_555 1_555
O7 Tb1 1_555 1_555
O8 C10 1_555 1_555
O9 Tb1 1_555 1_555
O10 C11 1_555 1_555
O11 H3 1_555 1_555
H4 O11 1_555 1_555
O12 H5 1_555 1_555
H6 O12 1_555 1_555
N1 H7 1_555 1_555
C1 P1 1_555 1_555
H8 C1 1_555 1_555
H9 C1 1_555 1_555
C2 P2 1_555 1_555
H10 C2 1_555 1_555
H11 C2 1_555 1_555
C3 N1 1_555 1_555
H12 C3 1_555 1_555
H13 C3 1_555 1_555
C4 C3 1_555 1_555
C5 C4 1_555 1_555
H14 C5 1_555 1_555
C6 C5 1_555 1_555
H15 C6 1_555 1_555
C7 C6 1_555 1_555
H16 C7 1_555 1_555
C8 C7 1_555 1_555
H17 C8 1_555 1_555
C9 C4 1_555 1_555
H18 C9 1_555 1_555
C10 O7 1_555 1_555
C11 O9 1_555 1_555
Tb1F O2 1_555 1_555
Tb1C O8 1_555 1_555
O2F Tb1 1_555 1_555
O5F Tb1 1_555 1_555
O8C Tb1 1_555 1_555
O10C Tb1 1_555 1_555
O5 Tb1F 1_555 1_555
O10 Tb1C 1_555 1_555
N1 C1 1_555 1_555
N1 C2 1_555 1_555
C8 C9 1_555 1_555
C10 C11 1_555 1_555

#END
