
#######################################################################
#
#                 Cambridge Crystallographic Data Centre
#                                CCDC 
#
#######################################################################
#
# If this CIF has been generated from an entry in the Cambridge 
# Structural Database, then it will include bibliographic, chemical, 
# crystal, experimental, refinement or atomic coordinate data resulting 
# from the CCDC's data processing and validation procedures.
#
#######################################################################

data_SELBER
_symmetry_cell_setting           monoclinic
_symmetry_space_group_name_H-M   'P 21/c'
_symmetry_Int_Tables_number      14
_space_group_name_Hall           '-P 2ybc'
loop_
_symmetry_equiv_pos_site_id
_symmetry_equiv_pos_as_xyz
1 x,y,z
2 -x,1/2+y,1/2-z
3 -x,-y,-z
4 x,1/2-y,1/2+z
_cell_length_a                   10.323(2)
_cell_length_b                   10.088(4)
_cell_length_c                   11.792(6)
_cell_angle_alpha                90.00
_cell_angle_beta                 92.21(3)
_cell_angle_gamma                90.00
_cell_volume                     1227.09
loop_
_atom_site_label
_atom_site_type_symbol
_atom_site_fract_x
_atom_site_fract_y
_atom_site_fract_z
Li1 Li 0.6866(3) 0.5251(3) 0.0750(2)
Li2 Li 0.5025(3) 0.1306(3) -0.2358(2)
S1 S 0.69631(3) 0.24503(4) -0.05093(3)
O1 O 0.64240(10) 0.37634(11) -0.02554(10)
O2 O 0.65803(11) 0.20662(13) -0.16631(10)
O3 O 0.66186(11) 0.14886(12) 0.03395(11)
O4 O 1.26526(10) 0.30723(11) -0.00651(10)
N1 N 1.13140(12) 0.47423(13) -0.14218(11)
C1 C 1.0673(2) 0.5573(2) -0.21025(14)
C2 C 0.9337(2) 0.5485(2) -0.23347(14)
C3 C 0.8642(2) 0.4520(2) -0.18279(13)
C4 C 0.86580(14) 0.26064(15) -0.04401(13)
C5 C 0.9386(2) 0.1771(2) 0.02491(13)
C6 C 1.0734(2) 0.1896(2) 0.03767(14)
C7 C 1.13912(15) 0.2888(2) -0.01683(13)
C8 C 1.06359(14) 0.37645(15) -0.09067(12)
C9 C 0.92758(14) 0.36233(15) -0.10646(12)
O5 O 0.44013(13) 0.26536(13) -0.34491(10)
O6 O 0.54556(11) 0.53667(12) 0.18473(11)
O7 O 0.37017(13) 0.1039(2) -0.13036(12)
H1 H 1.1164(20) 0.6275(22) -0.2413(17)
H2 H 0.8914(19) 0.6072(20) -0.2862(17)
H3 H 0.7727(18) 0.4439(18) -0.2007(15)
H4 H 0.8994(17) 0.1106(19) 0.0649(15)
H5 H 1.1196(19) 0.1327(21) 0.0859(17)
H6 H 0.3786(26) 0.2464(23) -0.3882(21)
H7 H 0.4987(26) 0.2910(25) -0.3861(21)
H8 H 0.4827(25) 0.5650(25) 0.1433(21)
H9 H 0.5586(21) 0.5967(24) 0.2341(20)
H10 H 0.3388(25) 0.1670(29) -0.0895(22)
H11 H 0.3650(26) 0.0370(30) -0.0923(23)
Li1B Li 1.3134(3) 0.4749(3) -0.0750(2)
Li2C Li 0.5025(3) 0.3694(3) 0.2642(2)
O4B O 0.73474(10) 0.69277(11) 0.00651(10)
N1B N 0.86860(12) 0.52577(13) 0.14218(11)
O6C O 0.54556(11) -0.03667(12) -0.31527(11)
H8C H 0.4827(25) -0.0650(25) -0.3567(21)
H9C H 0.5586(21) -0.0967(24) -0.2659(20)
loop_
_geom_bond_atom_site_label_1
_geom_bond_atom_site_label_2
_geom_bond_site_symmetry_1
_geom_bond_site_symmetry_2
Li1 O1 1_555 1_555
Li2 O2 1_555 1_555
S1 O1 1_555 1_555
O2 S1 1_555 1_555
O3 S1 1_555 1_555
O4 C7 1_555 1_555
N1 C1 1_555 1_555
C1 C2 1_555 1_555
C2 C3 1_555 1_555
C3 C9 1_555 1_555
C4 S1 1_555 1_555
C5 C4 1_555 1_555
C6 C5 1_555 1_555
C7 C6 1_555 1_555
C8 N1 1_555 1_555
C9 C4 1_555 1_555
O5 Li2 1_555 1_555
O6 Li1 1_555 1_555
O7 Li2 1_555 1_555
H1 C1 1_555 1_555
H2 C2 1_555 1_555
H3 C3 1_555 1_555
H4 C5 1_555 1_555
H5 C6 1_555 1_555
H6 O5 1_555 1_555
H7 O5 1_555 1_555
H8 O6 1_555 1_555
H9 O6 1_555 1_555
H10 O7 1_555 1_555
H11 O7 1_555 1_555
Li1B O4 1_555 1_555
Li2C O6 1_555 1_555
O4B Li1 1_555 1_555
N1B Li1 1_555 1_555
O6C Li2 1_555 1_555
H8C O6C 1_555 1_555
H9C O6C 1_555 1_555
N1 Li1B 1_555 1_555
C7 C8 1_555 1_555
C8 C9 1_555 1_555

#END
