
#######################################################################
#
#                 Cambridge Crystallographic Data Centre
#                                CCDC 
#
#######################################################################
#
# If this CIF has been generated from an entry in the Cambridge 
# Structural Database, then it will include bibliographic, chemical, 
# crystal, experimental, refinement or atomic coordinate data resulting 
# from the CCDC's data processing and validation procedures.
#
#######################################################################

data_SEMFEX
_symmetry_cell_setting           orthorhombic
_symmetry_space_group_name_H-M   'F d d d'
_symmetry_Int_Tables_number      70
_space_group_name_Hall           '-F 2uv 2vw'
loop_
_symmetry_equiv_pos_site_id
_symmetry_equiv_pos_as_xyz
1 x,y,z
2 1/4-x,1/4-y,z
3 x,1/4-y,1/4-z
4 1/4-x,y,1/4-z
5 x,1/2+y,1/2+z
6 1/4-x,3/4-y,1/2+z
7 x,3/4-y,3/4-z
8 1/4-x,1/2+y,3/4-z
9 1/2+x,y,1/2+z
10 3/4-x,1/4-y,1/2+z
11 1/2+x,1/4-y,3/4-z
12 3/4-x,y,3/4-z
13 1/2+x,1/2+y,z
14 3/4-x,3/4-y,z
15 1/2+x,3/4-y,1/4-z
16 3/4-x,1/2+y,1/4-z
17 -x,-y,-z
18 3/4+x,3/4+y,-z
19 -x,3/4+y,3/4+z
20 3/4+x,-y,3/4+z
21 -x,1/2-y,1/2-z
22 3/4+x,1/4+y,1/2-z
23 -x,1/4+y,1/4+z
24 3/4+x,1/2-y,1/4+z
25 1/2-x,-y,1/2-z
26 1/4+x,3/4+y,1/2-z
27 1/2-x,3/4+y,1/4+z
28 1/4+x,-y,1/4+z
29 1/2-x,1/2-y,-z
30 1/4+x,1/4+y,-z
31 1/2-x,1/4+y,3/4+z
32 1/4+x,1/2-y,3/4+z
_cell_length_a                   17.215(3)
_cell_length_b                   18.088(4)
_cell_length_c                   44.671(8)
_cell_angle_alpha                90
_cell_angle_beta                 90
_cell_angle_gamma                90
_cell_volume                     13909.9
loop_
_atom_site_label
_atom_site_type_symbol
_atom_site_fract_x
_atom_site_fract_y
_atom_site_fract_z
Co1 Co 0.7500 0.2500 0.0000
P1 P 1.00882(6) 0.1250 0.1250
P2 P 1.1250 0.23642(6) 0.1250
N1 N 1.05387(15) 0.19303(14) 0.11103(6)
N2 N 0.95197(17) 0.08874(15) 0.09867(6)
H1 H 0.9532 0.0413 0.0972
N3 N 1.16164(16) 0.29121(16) 0.09815(7)
N4 N 0.80918(18) 0.19333(16) 0.03545(7)
N5 N 1.05509(17) 0.42418(16) 0.03243(6)
O1 O 0.84399(16) 0.32125(14) -0.00124(6)
C1 C 1.12438(19) 0.33427(19) 0.07673(8)
C2 C 0.90294(19) 0.12452(18) 0.07876(8)
C3 C 0.8865(2) 0.2001(2) 0.08012(8)
H2 H 0.9064 0.2291 0.0955
C4 C 0.8404(2) 0.2308(2) 0.05838(9)
H3 H 0.8301 0.2811 0.0596
C5 C 1.0201(2) 0.3640(2) 0.04369(9)
H4 H 0.9709 0.3524 0.0365
C6 C 0.8228(3) 0.1202(2) 0.03511(9)
H5 H 0.8000 0.0923 0.0200
C7 C 1.0511(2) 0.3184(2) 0.06495(9)
H6 H 1.0237 0.2771 0.0715
C8 C 0.8681(2) 0.0840(2) 0.05562(9)
H7 H 0.8756 0.0333 0.0542
C9 C 0.8750 0.3750 -0.01438(12)
H8 H 0.8750 0.3750 -0.0352
C10 C 1.1622(3) 0.3952(3) 0.06440(13)
H9 H 1.2120 0.4074 0.0707
C11 C 1.1262(3) 0.4370(3) 0.04310(12)
H10 H 1.1532 0.4774 0.0355
H11 H 1.2050 0.3023 0.1016
Co1C Co 1.5000 0.2500 0.2500
Co1M Co 1.0000 0.5000 0.0000
Co1L Co 1.2500 -0.2500 0.0000
Co1B Co 0.7500 0.0000 0.2500
Co1O Co 1.0000 -0.2500 0.2500
Co1A Co 1.5000 0.0000 0.0000
Co1N Co 1.2500 0.5000 0.2500
Co1A_2 Co 0.5000 0.0000 0.0000
P1A P 1.24118(6) 0.1250 0.1250
P2A P 1.1250 0.01358(6) 0.1250
N1C N 1.19613(15) 0.19303(14) 0.13897(6)
N1A N 1.19613(15) 0.05697(14) 0.11103(6)
N1B N 1.05387(15) 0.05697(14) 0.13897(6)
N2C N 1.29803(17) 0.08874(15) 0.15133(6)
N2B N 0.95197(17) 0.16126(15) 0.15133(6)
N2A N 1.29803(17) 0.16126(15) 0.09867(6)
H1C H 1.2968 0.0413 0.1528
H1B H 0.9532 0.2087 0.1528
H1A H 1.2968 0.2087 0.0972
N3A N 1.08836(16) -0.04121(16) 0.09815(7)
N3B N 1.16164(16) -0.04121(16) 0.15185(7)
N3C N 1.08836(16) 0.29121(16) 0.15185(7)
N4C N 1.44082(18) 0.19333(16) 0.21455(7)
N4B N 0.80918(18) 0.05667(16) 0.21455(7)
N4A N 1.44082(18) 0.05667(16) 0.03545(7)
N4BA N 0.69082(18) 0.30667(16) -0.03545(7)
N4O N 0.94082(18) -0.30667(16) 0.21455(7)
N4AA N 1.05918(18) -0.19333(16) 0.28545(7)
N5A N 1.19491(17) -0.17418(16) 0.03243(6)
N5B N 1.05509(17) -0.17418(16) 0.21757(6)
N5C N 1.19491(17) 0.42418(16) 0.21757(6)
N5M N 0.69491(17) 0.32582(16) 0.03243(6)
N5Q N 0.80509(17) 0.17418(16) -0.03243(6)
N5V N 0.94491(17) -0.32582(16) 0.28243(6)
O1M O 0.90601(16) 0.42875(14) -0.00124(6)
O1BA O 0.65601(16) 0.17875(14) 0.00124(6)
O1Q O 0.59399(16) 0.07125(14) 0.00124(6)
O1O O 0.90601(16) -0.17875(14) 0.25124(6)
O1AA O 1.09399(16) -0.32125(14) 0.24876(6)
C1A C 1.12562(19) -0.08427(19) 0.07673(8)
C1B C 1.12438(19) -0.08427(19) 0.17327(8)
C1C C 1.12562(19) 0.33427(19) 0.17327(8)
C2C C 1.34706(19) 0.12452(18) 0.17124(8)
C2B C 0.90294(19) 0.12548(18) 0.17124(8)
C2A C 1.34706(19) 0.12548(18) 0.07876(8)
C3C C 1.3635(2) 0.2001(2) 0.16988(8)
C3B C 0.8865(2) 0.0499(2) 0.16988(8)
C3A C 1.3635(2) 0.0499(2) 0.08012(8)
H2C H 1.3436 0.2291 0.1545
H2B H 0.9064 0.0209 0.1545
H2A H 1.3436 0.0209 0.0955
C4C C 1.4096(2) 0.2308(2) 0.19162(9)
C4B C 0.8404(2) 0.0192(2) 0.19162(9)
C4A C 1.4096(2) 0.0192(2) 0.05838(9)
H3C H 1.4199 0.2811 0.1904
H3B H 0.8301 -0.0311 0.1904
H3A H 1.4199 -0.0311 0.0596
C5A C 1.2299(2) -0.1140(2) 0.04369(9)
C5B C 1.0201(2) -0.1140(2) 0.20631(9)
C5C C 1.2299(2) 0.3640(2) 0.20631(9)
H4A H 1.2791 -0.1024 0.0365
H4B H 0.9709 -0.1024 0.2135
H4C H 1.2791 0.3524 0.2135
C6C C 1.4272(3) 0.1202(2) 0.21489(9)
C6B C 0.8228(3) 0.1298(2) 0.21489(9)
C6A C 1.4272(3) 0.1298(2) 0.03511(9)
H5C H 1.4500 0.0923 0.2300
H5B H 0.8000 0.1577 0.2300
H5A H 1.4500 0.1577 0.0200
C7A C 1.1989(2) -0.0684(2) 0.06495(9)
C7B C 1.0511(2) -0.0684(2) 0.18505(9)
C7C C 1.1989(2) 0.3184(2) 0.18505(9)
H6A H 1.2263 -0.0271 0.0715
H6B H 1.0237 -0.0271 0.1785
H6C H 1.2263 0.2771 0.1785
C8C C 1.3819(2) 0.0840(2) 0.19438(9)
C8B C 0.8681(2) 0.1660(2) 0.19438(9)
C8A C 1.3819(2) 0.1660(2) 0.05562(9)
H7C H 1.3744 0.0333 0.1958
H7B H 0.8756 0.2167 0.1958
H7A H 1.3744 0.2167 0.0542
C9Q C 0.6250 0.1250 0.01438(12)
H8Q H 0.6250 0.1250 0.0352
C10A C 1.0878(3) -0.1452(3) 0.06440(13)
C10B C 1.1622(3) -0.1452(3) 0.18560(13)
C10C C 1.0878(3) 0.3952(3) 0.18560(13)
H9A H 1.0380 -0.1574 0.0707
H9B H 1.2120 -0.1574 0.1793
H9C H 1.0380 0.4074 0.1793
C11A C 1.1238(3) -0.1870(3) 0.04310(12)
C11B C 1.1262(3) -0.1870(3) 0.20690(12)
C11C C 1.1238(3) 0.4370(3) 0.20690(12)
H10A H 1.0968 -0.2274 0.0355
H10B H 1.1532 -0.2274 0.2145
H10C H 1.0968 0.4774 0.2145
H11A H 1.0450 -0.0523 0.1016
H11B H 1.2050 -0.0523 0.1484
H11C H 1.0450 0.3023 0.1484
Cl1 Cl 0.3750 0.8750 0.13694(5)
O3 O 0.4442(6) 0.9217(7) 0.1313(3)
O4 O 0.4066(5) 0.8168(5) 0.1529(2)
O3M O 0.3058(6) 0.8283(7) 0.1313(3)
O4M O 0.3434(5) 0.9332(5) 0.1529(2)
O2? O 0.3244(8) 0.9216(8) 0.1533(4)
O5? O 0.3436(7) 0.8664(8) 0.10769(18)
loop_
_geom_bond_atom_site_label_1
_geom_bond_atom_site_label_2
_geom_bond_site_symmetry_1
_geom_bond_site_symmetry_2
Co1 N4 1_555 1_555
P1 N1 1_555 1_555
P2 N1 1_555 1_555
N2 P1 1_555 1_555
H1 N2 1_555 1_555
N3 P2 1_555 1_555
N4 C4 1_555 1_555
N5 C5 1_555 1_555
O1 Co1 1_555 1_555
C1 N3 1_555 1_555
C2 N2 1_555 1_555
C3 C2 1_555 1_555
H2 C3 1_555 1_555
C4 C3 1_555 1_555
H3 C4 1_555 1_555
C5 H4 1_555 1_555
C6 N4 1_555 1_555
H5 C6 1_555 1_555
C7 C1 1_555 1_555
H6 C7 1_555 1_555
C8 C2 1_555 1_555
H7 C8 1_555 1_555
C9 O1 1_555 1_555
H8 C9 1_555 1_555
C10 C1 1_555 1_555
H9 C10 1_555 1_555
C11 N5 1_555 1_555
H10 C11 1_555 1_555
H11 N3 1_555 1_555
Cl1 O3 1_555 1_555
O4 Cl1 1_555 1_555
Co1C N4C 1_555 1_555
Co1M N5 1_555 1_555
Co1L N5A 1_555 1_555
Co1B N4B 1_555 1_555
Co1O N4O 1_555 1_555
Co1A N4A 1_555 1_555
Co1N N5C 1_555 1_555
Co1A_2 O1Q 1_555 1_555
P1A N1C 1_555 1_555
P2A N1A 1_555 1_555
N1C P2 1_555 1_555
N1A P1A 1_555 1_555
N1B P1 1_555 1_555
N2C P1A 1_555 1_555
N2B P1 1_555 1_555
N2A P1A 1_555 1_555
H1C N2C 1_555 1_555
H1B N2B 1_555 1_555
H1A N2A 1_555 1_555
N3A P2A 1_555 1_555
N3B P2A 1_555 1_555
N3C P2 1_555 1_555
N4C C4C 1_555 1_555
N4B C4B 1_555 1_555
N4A C4A 1_555 1_555
N4BA Co1 1_555 1_555
N4AA Co1O 1_555 1_555
N5A C5A 1_555 1_555
N5B Co1O 1_555 1_555
N5C C5C 1_555 1_555
N5M Co1 1_555 1_555
N5Q Co1 1_555 1_555
N5V Co1O 1_555 1_555
O1M C9 1_555 1_555
O1BA Co1 1_555 1_555
O1Q C9Q 1_555 1_555
O1O Co1O 1_555 1_555
O1AA Co1O 1_555 1_555
C1A N3A 1_555 1_555
C1B N3B 1_555 1_555
C1C N3C 1_555 1_555
C2C N2C 1_555 1_555
C2B N2B 1_555 1_555
C2A N2A 1_555 1_555
C3C C2C 1_555 1_555
C3B C2B 1_555 1_555
C3A C2A 1_555 1_555
H2C C3C 1_555 1_555
H2B C3B 1_555 1_555
H2A C3A 1_555 1_555
C4C C3C 1_555 1_555
C4B C3B 1_555 1_555
C4A C3A 1_555 1_555
H3C C4C 1_555 1_555
H3B C4B 1_555 1_555
H3A C4A 1_555 1_555
C5A H4A 1_555 1_555
C5B N5B 1_555 1_555
C5C H4C 1_555 1_555
H4B C5B 1_555 1_555
C6C N4C 1_555 1_555
C6B N4B 1_555 1_555
C6A N4A 1_555 1_555
H5C C6C 1_555 1_555
H5B C6B 1_555 1_555
H5A C6A 1_555 1_555
C7A C1A 1_555 1_555
C7B C1B 1_555 1_555
C7C C1C 1_555 1_555
H6A C7A 1_555 1_555
H6B C7B 1_555 1_555
H6C C7C 1_555 1_555
C8C C2C 1_555 1_555
C8B C2B 1_555 1_555
C8A C2A 1_555 1_555
H7C C8C 1_555 1_555
H7B C8B 1_555 1_555
H7A C8A 1_555 1_555
C9Q O1BA 1_555 1_555
H8Q C9Q 1_555 1_555
C10A C1A 1_555 1_555
C10B C1B 1_555 1_555
C10C C1C 1_555 1_555
H9A C10A 1_555 1_555
H9B C10B 1_555 1_555
H9C C10C 1_555 1_555
C11A N5A 1_555 1_555
C11B N5B 1_555 1_555
C11C N5C 1_555 1_555
H10A C11A 1_555 1_555
H10B C11B 1_555 1_555
H10C C11C 1_555 1_555
H11A N3A 1_555 1_555
H11B N3B 1_555 1_555
H11C N3C 1_555 1_555
O3M Cl1 1_555 1_555
O4M Cl1 1_555 1_555
C5 C7 1_555 1_555
C6 C8 1_555 1_555
C10 C11 1_555 1_555
Co1M O1M 1_555 1_555
P2A N1B 1_555 1_555
C5A C7A 1_555 1_555
C5B C7B 1_555 1_555
C5C C7C 1_555 1_555
C6C C8C 1_555 1_555
C6B C8B 1_555 1_555
C6A C8A 1_555 1_555
C10A C11A 1_555 1_555
C10B C11B 1_555 1_555
C10C C11C 1_555 1_555

#END
