
#######################################################################
#
#                 Cambridge Crystallographic Data Centre
#                                CCDC 
#
#######################################################################
#
# If this CIF has been generated from an entry in the Cambridge 
# Structural Database, then it will include bibliographic, chemical, 
# crystal, experimental, refinement or atomic coordinate data resulting 
# from the CCDC's data processing and validation procedures.
#
#######################################################################

data_SEMFIB
_symmetry_cell_setting           orthorhombic
_symmetry_space_group_name_H-M   'F d d d'
_symmetry_Int_Tables_number      70
_space_group_name_Hall           '-F 2uv 2vw'
loop_
_symmetry_equiv_pos_site_id
_symmetry_equiv_pos_as_xyz
1 x,y,z
2 1/4-x,1/4-y,z
3 x,1/4-y,1/4-z
4 1/4-x,y,1/4-z
5 x,1/2+y,1/2+z
6 1/4-x,3/4-y,1/2+z
7 x,3/4-y,3/4-z
8 1/4-x,1/2+y,3/4-z
9 1/2+x,y,1/2+z
10 3/4-x,1/4-y,1/2+z
11 1/2+x,1/4-y,3/4-z
12 3/4-x,y,3/4-z
13 1/2+x,1/2+y,z
14 3/4-x,3/4-y,z
15 1/2+x,3/4-y,1/4-z
16 3/4-x,1/2+y,1/4-z
17 -x,-y,-z
18 3/4+x,3/4+y,-z
19 -x,3/4+y,3/4+z
20 3/4+x,-y,3/4+z
21 -x,1/2-y,1/2-z
22 3/4+x,1/4+y,1/2-z
23 -x,1/4+y,1/4+z
24 3/4+x,1/2-y,1/4+z
25 1/2-x,-y,1/2-z
26 1/4+x,3/4+y,1/2-z
27 1/2-x,3/4+y,1/4+z
28 1/4+x,-y,1/4+z
29 1/2-x,1/2-y,-z
30 1/4+x,1/4+y,-z
31 1/2-x,1/4+y,3/4+z
32 1/4+x,1/2-y,3/4+z
_cell_length_a                   17.3043(5)
_cell_length_b                   18.3115(7)
_cell_length_c                   45.7907(17)
_cell_angle_alpha                90
_cell_angle_beta                 90
_cell_angle_gamma                90
_cell_volume                     14509.6
loop_
_atom_site_label
_atom_site_type_symbol
_atom_site_fract_x
_atom_site_fract_y
_atom_site_fract_z
Cd1 Cd -0.2500 0.0000 0.2500
P1 P 0.00965(6) 0.1250 0.1250
P2 P 0.1250 0.23501(6) 0.1250
N1 N 0.05437(15) 0.19205(15) 0.11130(6)
N2 N -0.04674(18) 0.08900(16) 0.09953(6)
H1 H -0.0455 0.0422 0.0983
N3 N 0.16165(17) 0.28842(16) 0.09879(7)
N4 N -0.1902(2) 0.1893(2) 0.03814(8)
N5 N 0.0566(2) 0.4169(2) 0.03382(8)
O1 O -0.1421(3) -0.0680(2) 0.25078(9)
C1 C 0.1242(2) 0.3308(2) 0.07757(8)
C2 C -0.0956(2) 0.12354(19) 0.07994(8)
C3 C -0.1147(2) 0.1973(2) 0.08179(9)
H2 H -0.0965 0.2259 0.0971
C4 C -0.1611(3) 0.2270(2) 0.06050(10)
H3 H -0.1730 0.2765 0.0618
C5 C 0.0211(3) 0.3592(3) 0.04482(10)
H4 H -0.0275 0.3474 0.0375
C6 C -0.1737(3) 0.1176(3) 0.03708(11)
H5 H -0.1943 0.0903 0.0218
C7 C 0.0516(3) 0.3155(2) 0.06641(10)
H6 H 0.0236 0.2759 0.0735
C8 C -0.1284(3) 0.0822(2) 0.05717(10)
H7 H -0.1195 0.0322 0.0558
C9 C -0.1250 -0.1250 0.26242(14)
H8 H -0.1250 -0.1250 0.2827
C10 C 0.1628(3) 0.3900(3) 0.06515(14)
H9 H 0.2125 0.4019 0.0711
C11 C 0.1268(3) 0.4302(3) 0.04414(15)
H10 H 0.1535 0.4699 0.0365
H11 H 0.2098 0.3089 0.1021
Cd1B Cd -0.2500 0.2500 0.0000
Cd1O Cd 0.0000 0.5000 0.0000
Cd1N Cd 0.2500 -0.2500 0.0000
Cd1M Cd 0.0000 -0.2500 0.2500
Cd1A Cd 0.5000 0.2500 0.2500
Cd1C Cd 0.5000 0.0000 0.0000
Cd1L Cd 0.2500 0.5000 0.2500
Cd1A_2 Cd -0.5000 0.2500 0.2500
P1A P 0.24035(6) 0.1250 0.1250
P2A P 0.1250 0.01499(6) 0.1250
N1C N 0.19563(15) 0.19205(15) 0.13870(6)
N1A N 0.19563(15) 0.05795(15) 0.11130(6)
N1B N 0.05437(15) 0.05795(15) 0.13870(6)
N2B N -0.04674(18) 0.16100(16) 0.15047(6)
N2C N 0.29674(18) 0.08900(16) 0.15047(6)
N2A N 0.29674(18) 0.16100(16) 0.09953(6)
H1B H -0.0455 0.2078 0.1517
H1C H 0.2955 0.0422 0.1517
H1A H 0.2955 0.2078 0.0983
N3A N 0.08835(17) -0.03842(16) 0.09879(7)
N3B N 0.16165(17) -0.03842(16) 0.15121(7)
N3C N 0.08835(17) 0.28842(16) 0.15121(7)
N4B N -0.1902(2) 0.0607(2) 0.21186(8)
N4C N 0.4402(2) 0.1893(2) 0.21186(8)
N4A N 0.4402(2) 0.0607(2) 0.03814(8)
N4Z N -0.3098(2) -0.0607(2) 0.28814(8)
N4N N 0.3098(2) 0.5607(2) 0.21186(8)
N4V N 0.1902(2) 0.4393(2) 0.28814(8)
N5A N 0.1934(2) -0.1669(2) 0.03382(8)
N5B N 0.0566(2) -0.1669(2) 0.21618(8)
N5C N 0.1934(2) 0.4169(2) 0.21618(8)
N5O N -0.3066(2) -0.0831(2) 0.21618(8)
N5W N -0.1934(2) 0.0831(2) 0.28382(8)
N5AA N 0.3066(2) 0.5831(2) 0.28382(8)
O1X O -0.3579(3) 0.0680(2) 0.24922(9)
O1M O -0.1079(3) -0.1820(2) 0.25078(9)
O1L O 0.3579(3) 0.4320(2) 0.25078(9)
O1T O 0.1421(3) 0.5680(2) 0.24922(9)
O1U O -0.3921(3) 0.1820(2) 0.24922(9)
C1A C 0.1258(2) -0.0808(2) 0.07757(8)
C1B C 0.1242(2) -0.0808(2) 0.17243(8)
C1C C 0.1258(2) 0.3308(2) 0.17243(8)
C2B C -0.0956(2) 0.12646(19) 0.17006(8)
C2C C 0.3456(2) 0.12354(19) 0.17006(8)
C2A C 0.3456(2) 0.12646(19) 0.07994(8)
C3B C -0.1147(2) 0.0527(2) 0.16821(9)
C3C C 0.3647(2) 0.1973(2) 0.16821(9)
C3A C 0.3647(2) 0.0527(2) 0.08179(9)
H2B H -0.0965 0.0241 0.1529
H2C H 0.3465 0.2259 0.1529
H2A H 0.3465 0.0241 0.0971
C4B C -0.1611(3) 0.0230(2) 0.18950(10)
C4C C 0.4111(3) 0.2270(2) 0.18950(10)
C4A C 0.4111(3) 0.0230(2) 0.06050(10)
H3B H -0.1730 -0.0265 0.1882
H3C H 0.4230 0.2765 0.1882
H3A H 0.4230 -0.0265 0.0618
C5A C 0.2289(3) -0.1092(3) 0.04482(10)
C5B C 0.0211(3) -0.1092(3) 0.20518(10)
C5C C 0.2289(3) 0.3592(3) 0.20518(10)
H4A H 0.2775 -0.0974 0.0375
H4B H -0.0275 -0.0974 0.2125
H4C H 0.2775 0.3474 0.2125
C6B C -0.1737(3) 0.1324(3) 0.21292(11)
C6C C 0.4237(3) 0.1176(3) 0.21292(11)
C6A C 0.4237(3) 0.1324(3) 0.03708(11)
H5B H -0.1943 0.1597 0.2282
H5C H 0.4443 0.0903 0.2282
H5A H 0.4443 0.1597 0.0218
C7A C 0.1984(3) -0.0655(2) 0.06641(10)
C7B C 0.0516(3) -0.0655(2) 0.18359(10)
C7C C 0.1984(3) 0.3155(2) 0.18359(10)
H6A H 0.2264 -0.0259 0.0735
H6B H 0.0236 -0.0259 0.1765
H6C H 0.2264 0.2759 0.1765
C8B C -0.1284(3) 0.1678(2) 0.19283(10)
C8C C 0.3784(3) 0.0822(2) 0.19283(10)
C8A C 0.3784(3) 0.1678(2) 0.05717(10)
H7B H -0.1195 0.2178 0.1942
H7C H 0.3695 0.0322 0.1942
H7A H 0.3695 0.2178 0.0558
C9U C -0.3750 0.1250 0.23758(14)
H8U H -0.3750 0.1250 0.2173
C10A C 0.0872(3) -0.1400(3) 0.06515(14)
C10B C 0.1628(3) -0.1400(3) 0.18485(14)
C10C C 0.0872(3) 0.3900(3) 0.18485(14)
H9A H 0.0375 -0.1519 0.0711
H9B H 0.2125 -0.1519 0.1789
H9C H 0.0375 0.4019 0.1789
C11A C 0.1232(3) -0.1802(3) 0.04414(15)
C11B C 0.1268(3) -0.1802(3) 0.20586(15)
C11C C 0.1232(3) 0.4302(3) 0.20586(15)
H10A H 0.0965 -0.2199 0.0365
H10B H 0.1535 -0.2199 0.2135
H10C H 0.0965 0.4699 0.2135
H11A H 0.0402 -0.0589 0.1021
H11B H 0.2098 -0.0589 0.1479
H11C H 0.0402 0.3089 0.1479
Cl1 Cl -0.6250 0.8750 0.13591(5)
O3 O -0.6954(5) 0.8331(6) 0.1298(3)
O4 O -0.6004(8) 0.8137(6) 0.1517(3)
O3M O -0.5546(5) 0.9169(6) 0.1298(3)
O4M O -0.6496(8) 0.9363(6) 0.1517(3)
O2? O -0.6742(7) 0.9230(7) 0.1510(3)
O5? O -0.5980(7) 0.8877(7) 0.10685(17)
loop_
_geom_bond_atom_site_label_1
_geom_bond_atom_site_label_2
_geom_bond_site_symmetry_1
_geom_bond_site_symmetry_2
Cd1 O1 1_555 1_555
P1 N1 1_555 1_555
P2 N1 1_555 1_555
N2 P1 1_555 1_555
H1 N2 1_555 1_555
N3 P2 1_555 1_555
N4 C4 1_555 1_555
N5 C5 1_555 1_555
O1 C9 1_555 1_555
C1 N3 1_555 1_555
C2 N2 1_555 1_555
C3 C2 1_555 1_555
H2 C3 1_555 1_555
C4 C3 1_555 1_555
H3 C4 1_555 1_555
C5 H4 1_555 1_555
C6 N4 1_555 1_555
H5 C6 1_555 1_555
C7 C1 1_555 1_555
H6 C7 1_555 1_555
C8 C2 1_555 1_555
H7 C8 1_555 1_555
C9 H8 1_555 1_555
C10 C1 1_555 1_555
H9 C10 1_555 1_555
C11 N5 1_555 1_555
H10 C11 1_555 1_555
H11 N3 1_555 1_555
Cl1 O3 1_555 1_555
O4 Cl1 1_555 1_555
Cd1B N4 1_555 1_555
Cd1O N5 1_555 1_555
Cd1N N5A 1_555 1_555
Cd1M N5B 1_555 1_555
Cd1A N4C 1_555 1_555
Cd1C N4A 1_555 1_555
Cd1L N4N 1_555 1_555
Cd1A_2 O1U 1_555 1_555
P1A N1C 1_555 1_555
P2A N1A 1_555 1_555
N1C P2 1_555 1_555
N1A P1A 1_555 1_555
N1B P1 1_555 1_555
N2B P1 1_555 1_555
N2C P1A 1_555 1_555
N2A P1A 1_555 1_555
H1B N2B 1_555 1_555
H1C N2C 1_555 1_555
H1A N2A 1_555 1_555
N3A P2A 1_555 1_555
N3B P2A 1_555 1_555
N3C P2 1_555 1_555
N4B Cd1 1_555 1_555
N4C C4C 1_555 1_555
N4A C4A 1_555 1_555
N4Z Cd1 1_555 1_555
N4V Cd1L 1_555 1_555
N5A C5A 1_555 1_555
N5B C5B 1_555 1_555
N5C Cd1L 1_555 1_555
N5O Cd1 1_555 1_555
N5W Cd1 1_555 1_555
N5AA Cd1L 1_555 1_555
O1X Cd1 1_555 1_555
O1M C9 1_555 1_555
O1L Cd1L 1_555 1_555
O1T Cd1L 1_555 1_555
O1U C9U 1_555 1_555
C1A N3A 1_555 1_555
C1B N3B 1_555 1_555
C1C N3C 1_555 1_555
C2B N2B 1_555 1_555
C2C N2C 1_555 1_555
C2A N2A 1_555 1_555
C3B C2B 1_555 1_555
C3C C2C 1_555 1_555
C3A C2A 1_555 1_555
H2B C3B 1_555 1_555
H2C C3C 1_555 1_555
H2A C3A 1_555 1_555
C4B N4B 1_555 1_555
C4C C3C 1_555 1_555
C4A C3A 1_555 1_555
H3B C4B 1_555 1_555
H3C C4C 1_555 1_555
H3A C4A 1_555 1_555
C5A H4A 1_555 1_555
C5B H4B 1_555 1_555
C5C N5C 1_555 1_555
H4C C5C 1_555 1_555
C6B N4B 1_555 1_555
C6C N4C 1_555 1_555
C6A N4A 1_555 1_555
H5B C6B 1_555 1_555
H5C C6C 1_555 1_555
H5A C6A 1_555 1_555
C7A C1A 1_555 1_555
C7B C1B 1_555 1_555
C7C C1C 1_555 1_555
H6A C7A 1_555 1_555
H6B C7B 1_555 1_555
H6C C7C 1_555 1_555
C8B C2B 1_555 1_555
C8C C2C 1_555 1_555
C8A C2A 1_555 1_555
H7B C8B 1_555 1_555
H7C C8C 1_555 1_555
H7A C8A 1_555 1_555
C9U O1X 1_555 1_555
H8U C9U 1_555 1_555
C10A C1A 1_555 1_555
C10B C1B 1_555 1_555
C10C C1C 1_555 1_555
H9A C10A 1_555 1_555
H9B C10B 1_555 1_555
H9C C10C 1_555 1_555
C11A N5A 1_555 1_555
C11B N5B 1_555 1_555
C11C N5C 1_555 1_555
H10A C11A 1_555 1_555
H10B C11B 1_555 1_555
H10C C11C 1_555 1_555
H11A N3A 1_555 1_555
H11B N3B 1_555 1_555
H11C N3C 1_555 1_555
O3M Cl1 1_555 1_555
O4M Cl1 1_555 1_555
C5 C7 1_555 1_555
C6 C8 1_555 1_555
C10 C11 1_555 1_555
Cd1M O1M 1_555 1_555
P2A N1B 1_555 1_555
C3B C4B 1_555 1_555
C5A C7A 1_555 1_555
C5B C7B 1_555 1_555
C5C C7C 1_555 1_555
C6B C8B 1_555 1_555
C6C C8C 1_555 1_555
C6A C8A 1_555 1_555
C10A C11A 1_555 1_555
C10B C11B 1_555 1_555
C10C C11C 1_555 1_555

#END
