
#######################################################################
#
#                 Cambridge Crystallographic Data Centre
#                                CCDC 
#
#######################################################################
#
# If this CIF has been generated from an entry in the Cambridge 
# Structural Database, then it will include bibliographic, chemical, 
# crystal, experimental, refinement or atomic coordinate data resulting 
# from the CCDC's data processing and validation procedures.
#
#######################################################################

data_SEMPIL
_symmetry_cell_setting           monoclinic
_symmetry_space_group_name_H-M   'P 21/c'
_symmetry_Int_Tables_number      14
_space_group_name_Hall           '-P 2ybc'
loop_
_symmetry_equiv_pos_site_id
_symmetry_equiv_pos_as_xyz
1 x,y,z
2 -x,1/2+y,1/2-z
3 -x,-y,-z
4 x,1/2-y,1/2+z
_cell_length_a                   22.577(6)
_cell_length_b                   11.905(2)
_cell_length_c                   14.423(6)
_cell_angle_alpha                90
_cell_angle_beta                 91.35(3)
_cell_angle_gamma                90
_cell_volume                     3875.53
loop_
_atom_site_label
_atom_site_type_symbol
_atom_site_fract_x
_atom_site_fract_y
_atom_site_fract_z
Gd1 Gd 0.587190(14) -0.03987(3) 0.74742(2)
Gd2 Gd 0.913345(14) -0.03954(3) 0.74575(2)
N1 N 0.4985(2) 0.0882(4) 0.8062(4)
C1 C 0.4848(3) 0.1916(5) 0.7752(4)
H1 H 0.506688 0.220762 0.724362
N2 N 0.4426(2) 0.2567(4) 0.8106(4)
C2 C 0.4121(3) 0.2156(5) 0.8819(4)
C3 C 0.4207(3) 0.1078(5) 0.9156(4)
H2 H 0.397198 0.077183 0.963985
C4 C 0.4656(3) 0.0465(5) 0.8751(4)
C5 C 0.4821(3) -0.0722(5) 0.9058(5)
O1 O 0.52345(19) -0.1189(4) 0.8593(3)
O2 O 0.4582(2) -0.1124(4) 0.9749(3)
C6 C 0.3680(3) 0.2945(6) 0.9255(5)
O3 O 0.3659(2) 0.3935(4) 0.8899(3)
O4 O 0.3388(2) 0.2630(4) 0.9926(4)
N3 N 0.6980(2) 0.0441(4) 0.7294(4)
C7 C 0.7515(3) -0.0030(5) 0.7425(4)
H3 H 0.752355 -0.078884 0.764888
N4 N 0.8024(2) 0.0447(4) 0.7278(4)
C8 C 0.8017(3) 0.1514(5) 0.6996(4)
C9 C 0.7495(3) 0.2111(5) 0.6873(4)
H4 H 0.749545 0.288977 0.670264
C10 C 0.6972(3) 0.1534(5) 0.7005(4)
C11 C 0.6384(3) 0.2055(5) 0.6850(5)
O5 O 0.59550(19) 0.1386(4) 0.6823(3)
O6 O 0.6353(2) 0.3093(4) 0.6757(4)
C12 C 0.8617(3) 0.2057(5) 0.6824(5)
O7 O 0.90522(19) 0.1388(4) 0.6792(3)
O8 O 0.8639(2) 0.3097(4) 0.6725(4)
N5 N 0.9430(2) -0.2424(4) 0.6867(4)
C13 C 0.9858(3) -0.3085(5) 0.7241(5)
H5 H 1.008715 -0.279638 0.775572
N6 N 0.9985(2) -0.4123(4) 0.6937(4)
C14 C 0.9657(3) -0.4529(5) 0.6240(4)
C15 C 0.9218(3) -0.3911(5) 0.5806(5)
H6 H 0.898362 -0.420443 0.52977
C16 C 0.9135(3) -0.2833(5) 0.6151(5)
C17 C 0.8716(3) -0.2008(6) 0.5678(5)
O9 O 0.8682(2) -0.1044(4) 0.6056(3)
O10 O 0.8456(2) -0.2332(4) 0.4981(4)
C18 C 0.9830(3) -0.5735(5) 0.5936(5)
O11 O 1.02280(19) -0.6197(4) 0.6413(3)
O12 O 0.9580(2) -0.6128(4) 0.5251(3)
O13 O 0.6529(2) -0.1720(4) 0.8225(3)
O14 O 0.6184(2) 0.0553(4) 0.8883(3)
O15 O 0.5064(2) -0.0255(4) 0.6360(3)
O16 O 0.8824(2) 0.0560(4) 0.8858(3)
O17 O 0.9967(2) -0.0273(4) 0.6369(3)
O18 O 0.8482(2) -0.1731(4) 0.8197(3)
Gd1A Gd 0.412810(14) 0.46013(3) 0.75258(2)
Gd2A Gd 1.086655(14) -0.53954(3) 0.75425(2)
N2A N 0.5574(2) -0.2433(4) 0.6894(4)
O3A O 0.6341(2) -0.1065(4) 0.6101(3)
N6A N 1.0015(2) 0.0877(4) 0.8063(4)
O11A O 0.97720(19) -0.1197(4) 0.8587(3)
O19 O 0.6964(4) -0.3685(6) 0.7530(7)
O20 O 0.7874(4) 0.1105(9) 0.9755(7)
O21 O 0.7026(4) 0.1204(9) 0.9840(7)
O22 O 0.4744(3) -0.1607(4) 0.4963(4)
O23 O 0.3870(3) -0.0254(5) 0.6960(5)
O24 O 0.3545(3) -0.0741(4) 0.5193(4)
O25 O 1.1493(3) -0.0750(5) 0.5238(4)
O26 O 0.7505(2) -0.3939(4) 0.9381(4)
O27 O 0.8073(4) -0.3614(6) 0.7455(7)
O28 O 0.9774(3) -0.8402(4) 0.5050(4)
O29 O 0.8871(2) 0.4739(4) 0.7999(4)
O30 O 1.2487(4) -0.1713(9) 0.5758(7)
O31 O 0.7578(4) -0.3976(6) 0.5862(7)
loop_
_geom_bond_atom_site_label_1
_geom_bond_atom_site_label_2
_geom_bond_site_symmetry_1
_geom_bond_site_symmetry_2
Gd1 N1 1_555 1_555
Gd2 N4 1_555 1_555
N1 C1 1_555 1_555
C1 H1 1_555 1_555
N2 C1 1_555 1_555
C2 N2 1_555 1_555
C3 C2 1_555 1_555
H2 C3 1_555 1_555
C4 N1 1_555 1_555
C5 C4 1_555 1_555
O1 Gd1 1_555 1_555
O2 C5 1_555 1_555
C6 C2 1_555 1_555
O3 C6 1_555 1_555
O4 C6 1_555 1_555
N3 Gd1 1_555 1_555
C7 N3 1_555 1_555
H3 C7 1_555 1_555
N4 C7 1_555 1_555
C8 N4 1_555 1_555
C9 C8 1_555 1_555
H4 C9 1_555 1_555
C10 N3 1_555 1_555
C11 C10 1_555 1_555
O5 Gd1 1_555 1_555
O6 C11 1_555 1_555
C12 C8 1_555 1_555
O7 Gd2 1_555 1_555
O8 C12 1_555 1_555
N5 Gd2 1_555 1_555
C13 N5 1_555 1_555
H5 C13 1_555 1_555
N6 C13 1_555 1_555
C14 N6 1_555 1_555
C15 C14 1_555 1_555
H6 C15 1_555 1_555
C16 N5 1_555 1_555
C17 C16 1_555 1_555
O9 Gd2 1_555 1_555
O10 C17 1_555 1_555
C18 C14 1_555 1_555
O11 C18 1_555 1_555
O12 C18 1_555 1_555
O13 Gd1 1_555 1_555
O14 Gd1 1_555 1_555
O15 Gd1 1_555 1_555
O16 Gd2 1_555 1_555
O17 Gd2 1_555 1_555
O18 Gd2 1_555 1_555
Gd1A N2 1_555 1_555
Gd2A N6 1_555 1_555
N2A Gd1 1_555 1_555
O3A Gd1 1_555 1_555
N6A Gd2 1_555 1_555
O11A Gd2 1_555 1_555
C3 C4 1_555 1_555
C5 O1 1_555 1_555
O3 Gd1A 1_555 1_555
C9 C10 1_555 1_555
C11 O5 1_555 1_555
C12 O7 1_555 1_555
C15 C16 1_555 1_555
C17 O9 1_555 1_555
O11 Gd2A 1_555 1_555

#END
