
#######################################################################
#
#                 Cambridge Crystallographic Data Centre
#                                CCDC 
#
#######################################################################
#
# If this CIF has been generated from an entry in the Cambridge 
# Structural Database, then it will include bibliographic, chemical, 
# crystal, experimental, refinement or atomic coordinate data resulting 
# from the CCDC's data processing and validation procedures.
#
#######################################################################

data_SEMQIK01
_symmetry_cell_setting           orthorhombic
_symmetry_space_group_name_H-M   'P 21 21 2'
_symmetry_Int_Tables_number      18
_space_group_name_Hall           'P 2 2ab'
loop_
_symmetry_equiv_pos_site_id
_symmetry_equiv_pos_as_xyz
1 x,y,z
2 -x,-y,z
3 1/2-x,1/2+y,-z
4 1/2+x,1/2-y,-z
_cell_length_a                   13.896(3)
_cell_length_b                   6.3507(12)
_cell_length_c                   8.3745(15)
_cell_angle_alpha                90
_cell_angle_beta                 90
_cell_angle_gamma                90
_cell_volume                     739.044
loop_
_atom_site_label
_atom_site_type_symbol
_atom_site_fract_x
_atom_site_fract_y
_atom_site_fract_z
Mn1 Mn 1.0000 0.0000 -0.03203(4)
N1 N 0.94124(11) 0.6857(3) 0.51328(19)
O1 O 0.94913(10) 0.2297(2) 0.14144(16)
O2 O 0.84653(9) 0.4322(2) 0.00447(16)
O3 O 0.94989(12) 0.2146(3) -0.22091(18)
O4 O 1.14291(11) 0.1468(3) -0.0499(2)
C1 C 0.89387(12) 0.3861(3) 0.1289(2)
C2 C 0.95273(12) 0.5565(3) 0.38800(19)
C3 C 0.88185(11) 0.5302(3) 0.27063(18)
C4 C 0.79844(13) 0.6492(3) 0.2856(2)
H1 H 0.7502 0.6370 0.2093
C5 C 0.78640(15) 0.7856(4) 0.4130(2)
H2 H 0.7308 0.8657 0.4237
C6 C 0.86002(15) 0.7985(4) 0.5236(3)
H3 H 0.8528 0.8900 0.6095
H4 H 0.988(3) 0.263(5) -0.314(3)
H5 H 0.9243(17) 0.317(5) -0.178(3)
H6 H 1.1886(17) 0.106(5) -0.018(3)
H7 H 1.1462(19) 0.272(5) -0.035(4)
Mn1_2 Mn 1.0000 1.0000 -0.03203(4)
N1A N 1.05876(11) 0.3143(3) 0.51328(19)
O1A O 1.05087(10) 0.7703(2) 0.14144(16)
O1A_2 O 1.05087(10) -0.2297(2) 0.14144(16)
O2A O 1.15347(9) 0.5678(2) 0.00447(16)
O3A O 1.05011(12) -0.2146(3) -0.22091(18)
O4A O 0.85709(11) -0.1468(3) -0.0499(2)
C1A C 1.10613(12) 0.6139(3) 0.1289(2)
C2A C 1.04727(12) 0.4435(3) 0.38800(19)
C3A C 1.11815(11) 0.4698(3) 0.27063(18)
C4A C 1.20156(13) 0.3508(3) 0.2856(2)
H1A H 1.2498 0.3630 0.2093
C5A C 1.21360(15) 0.2144(4) 0.4130(2)
H2A H 1.2692 0.1343 0.4237
C6A C 1.13998(15) 0.2015(4) 0.5236(3)
H3A H 1.1472 0.1100 0.6095
H4A H 1.012(3) -0.263(5) -0.314(3)
H5A H 1.0757(17) -0.317(5) -0.178(3)
H6A H 0.8114(17) -0.106(5) -0.018(3)
H7A H 0.8538(19) -0.272(5) -0.035(4)
loop_
_geom_bond_atom_site_label_1
_geom_bond_atom_site_label_2
_geom_bond_site_symmetry_1
_geom_bond_site_symmetry_2
Mn1 O1 1_555 1_555
N1 C2 1_555 1_555
O1 C1 1_555 1_555
O2 C1 1_555 1_555
O3 Mn1 1_555 1_555
O4 Mn1 1_555 1_555
C1 C3 1_555 1_555
C2 C3 1_555 1_555
C3 C4 1_555 1_555
C4 H1 1_555 1_555
C5 C4 1_555 1_555
H2 C5 1_555 1_555
C6 N1 1_555 1_555
H3 C6 1_555 1_555
H4 O3 1_555 1_555
H5 O3 1_555 1_555
H6 O4 1_555 1_555
H7 O4 1_555 1_555
Mn1_2 O1A 1_555 1_555
N1A C2A 1_555 1_555
O1A C1A 1_555 1_555
O1A_2 Mn1 1_555 1_555
O2A C1A 1_555 1_555
O3A Mn1 1_555 1_555
O4A Mn1 1_555 1_555
C1A C3A 1_555 1_555
C2A C2 1_555 1_555
C3A C2A 1_555 1_555
C4A C3A 1_555 1_555
H1A C4A 1_555 1_555
C5A C4A 1_555 1_555
H2A C5A 1_555 1_555
C6A N1A 1_555 1_555
H3A C6A 1_555 1_555
H4A O3A 1_555 1_555
H5A O3A 1_555 1_555
H6A O4A 1_555 1_555
H7A O4A 1_555 1_555
C5 C6 1_555 1_555
C5A C6A 1_555 1_555

#END
