
#######################################################################
#
#                 Cambridge Crystallographic Data Centre
#                                CCDC 
#
#######################################################################
#
# If this CIF has been generated from an entry in the Cambridge 
# Structural Database, then it will include bibliographic, chemical, 
# crystal, experimental, refinement or atomic coordinate data resulting 
# from the CCDC's data processing and validation procedures.
#
#######################################################################

data_SENCOE
_symmetry_cell_setting           monoclinic
_symmetry_space_group_name_H-M   'P 21/n'
_symmetry_Int_Tables_number      14
_space_group_name_Hall           '-P 2yn'
loop_
_symmetry_equiv_pos_site_id
_symmetry_equiv_pos_as_xyz
1 x,y,z
2 1/2-x,1/2+y,1/2-z
3 -x,-y,-z
4 1/2+x,1/2-y,1/2+z
_cell_length_a                   7.5731(15)
_cell_length_b                   18.615(4)
_cell_length_c                   8.6622(17)
_cell_angle_alpha                90
_cell_angle_beta                 112.36(3)
_cell_angle_gamma                90
_cell_volume                     1129.32
loop_
_atom_site_label
_atom_site_type_symbol
_atom_site_fract_x
_atom_site_fract_y
_atom_site_fract_z
C1 C -0.2279(5) 0.05885(17) -0.3825(4)
H1 H -0.1222 0.0518 -0.4105
C2 C -0.3986(6) 0.08417(19) -0.4869(4)
H2 H -0.4315 0.0978 -0.5976
C3 C -0.4085(5) 0.06183(19) -0.2440(4)
H3 H -0.4531 0.0575 -0.1582
C4 C -0.7141(5) 0.1090(2) -0.4524(6)
H4 H -0.7865 0.0736 -0.4188
H5 H -0.7683 0.1121 -0.5733
C5 C -0.7301(5) 0.17995(19) -0.3804(5)
H6 H -0.6485 0.2136 -0.4075
H7 H -0.6804 0.1752 -0.2598
C6 C -0.9266(5) 0.21185(18) -0.4359(5)
H8 H -0.9707 0.2235 -0.5537
H9 H -1.0133 0.1765 -0.4216
C7 C -0.9317(5) 0.2777(2) -0.3409(6)
H10 H -0.8824 0.2662 -0.2229
H11 H -0.8473 0.3133 -0.3582
C8 C -1.1693(5) 0.37844(18) -0.4314(4)
H12 H -1.0860 0.4123 -0.4451
C9 C -1.2801(6) 0.27749(19) -0.3776(6)
H13 H -1.2914 0.2301 -0.3485
C10 C -1.4169(6) 0.32848(19) -0.4194(6)
H14 H -1.5406 0.3215 -0.4245
N1 N -0.2338(4) 0.04515(14) -0.2291(3)
N2 N -0.5143(4) 0.08576(14) -0.3969(3)
N3 N -1.1213(4) 0.30949(15) -0.3866(4)
N4 N -1.3475(4) 0.39215(14) -0.4533(4)
Cl1 Cl -0.19300(12) 0.03980(5) 0.17500(11)
Co1 Co 0.0000 0.0000 0.0000
C1B C 0.2279(5) -0.05885(17) 0.3825(4)
H1B H 0.1222 -0.0518 0.4105
C2B C 0.3986(6) -0.08417(19) 0.4869(4)
H2B H 0.4315 -0.0978 0.5976
C3B C 0.4085(5) -0.06183(19) 0.2440(4)
H3B H 0.4531 -0.0575 0.1582
C4B C 0.7141(5) -0.1090(2) 0.4524(6)
H4B H 0.7865 -0.0736 0.4188
H5B H 0.7683 -0.1121 0.5733
C5B C 0.7301(5) -0.17995(19) 0.3804(5)
H6B H 0.6485 -0.2136 0.4075
H7B H 0.6804 -0.1752 0.2598
C6B C 0.9266(5) -0.21185(18) 0.4359(5)
H8B H 0.9707 -0.2235 0.5537
H9B H 1.0133 -0.1765 0.4216
C7B C 0.9317(5) -0.2777(2) 0.3409(6)
H10B H 0.8824 -0.2662 0.2229
H11B H 0.8473 -0.3133 0.3582
C8B C 1.1693(5) -0.37844(18) 0.4314(4)
H12B H 1.0860 -0.4123 0.4451
C9B C 1.2801(6) -0.27749(19) 0.3776(6)
H13B H 1.2914 -0.2301 0.3485
C10B C 1.4169(6) -0.32848(19) 0.4194(6)
H14B H 1.5406 -0.3215 0.4245
N1B N 0.2338(4) -0.04515(14) 0.2291(3)
N2B N 0.5143(4) -0.08576(14) 0.3969(3)
N3B N 1.1213(4) -0.30949(15) 0.3866(4)
N4B N 1.3475(4) -0.39215(14) 0.4533(4)
N4C N 0.1525(4) 0.10785(14) 0.0467(4)
N4A N -0.1525(4) -0.10785(14) -0.0467(4)
Cl1B Cl 0.19300(12) -0.03980(5) -0.17500(11)
Co1C Co -1.5000 0.5000 -0.5000
Co1C_2 Co 1.5000 -0.5000 0.5000
loop_
_geom_bond_atom_site_label_1
_geom_bond_atom_site_label_2
_geom_bond_site_symmetry_1
_geom_bond_site_symmetry_2
C1 H1 1_555 1_555
C2 C1 1_555 1_555
H2 C2 1_555 1_555
C3 H3 1_555 1_555
C4 H4 1_555 1_555
H5 C4 1_555 1_555
C5 C4 1_555 1_555
H6 C5 1_555 1_555
H7 C5 1_555 1_555
C6 C5 1_555 1_555
H8 C6 1_555 1_555
H9 C6 1_555 1_555
C7 C6 1_555 1_555
H10 C7 1_555 1_555
H11 C7 1_555 1_555
C8 H12 1_555 1_555
C9 H13 1_555 1_555
C10 C9 1_555 1_555
H14 C10 1_555 1_555
N1 C1 1_555 1_555
N2 C2 1_555 1_555
N3 C7 1_555 1_555
N4 C8 1_555 1_555
Cl1 Co1 1_555 1_555
Co1 N1 1_555 1_555
C1B H1B 1_555 1_555
C2B C1B 1_555 1_555
H2B C2B 1_555 1_555
C3B H3B 1_555 1_555
C4B H4B 1_555 1_555
H5B C4B 1_555 1_555
C5B C4B 1_555 1_555
H6B C5B 1_555 1_555
H7B C5B 1_555 1_555
C6B C5B 1_555 1_555
H8B C6B 1_555 1_555
H9B C6B 1_555 1_555
C7B C6B 1_555 1_555
H10B C7B 1_555 1_555
H11B C7B 1_555 1_555
C8B H12B 1_555 1_555
C9B H13B 1_555 1_555
C10B C9B 1_555 1_555
H14B C10B 1_555 1_555
N1B Co1 1_555 1_555
N2B C2B 1_555 1_555
N3B C7B 1_555 1_555
N4B C8B 1_555 1_555
N4C Co1 1_555 1_555
N4A Co1 1_555 1_555
Cl1B Co1 1_555 1_555
Co1C N4 1_555 1_555
Co1C_2 N4B 1_555 1_555
C3 N1 1_555 1_555
C3 N2 1_555 1_555
C4 N2 1_555 1_555
C8 N3 1_555 1_555
C9 N3 1_555 1_555
C10 N4 1_555 1_555
C1B N1B 1_555 1_555
C3B N1B 1_555 1_555
C3B N2B 1_555 1_555
C4B N2B 1_555 1_555
C8B N3B 1_555 1_555
C9B N3B 1_555 1_555
C10B N4B 1_555 1_555

#END
