
#######################################################################
#
#                 Cambridge Crystallographic Data Centre
#                                CCDC 
#
#######################################################################
#
# If this CIF has been generated from an entry in the Cambridge 
# Structural Database, then it will include bibliographic, chemical, 
# crystal, experimental, refinement or atomic coordinate data resulting 
# from the CCDC's data processing and validation procedures.
#
#######################################################################

data_SENDOF
_symmetry_cell_setting           orthorhombic
_symmetry_space_group_name_H-M   'P b c a'
_symmetry_Int_Tables_number      61
_space_group_name_Hall           '-P 2ac 2ab'
loop_
_symmetry_equiv_pos_site_id
_symmetry_equiv_pos_as_xyz
1 x,y,z
2 1/2-x,-y,1/2+z
3 -x,1/2+y,1/2-z
4 1/2+x,1/2-y,-z
5 -x,-y,-z
6 1/2+x,y,1/2-z
7 x,1/2-y,1/2+z
8 1/2-x,1/2+y,z
_cell_length_a                   16.7083(8)
_cell_length_b                   10.9160(5)
_cell_length_c                   21.0628(10)
_cell_angle_alpha                90
_cell_angle_beta                 90
_cell_angle_gamma                90
_cell_volume                     3841.6
loop_
_atom_site_label
_atom_site_type_symbol
_atom_site_fract_x
_atom_site_fract_y
_atom_site_fract_z
Cu1 Cu 0.056932(9) 0.568201(16) 0.474392(8)
O1 O 0.05740(6) 0.65792(10) 0.55584(5)
O2 O -0.04233(6) 0.54501(10) 0.59675(5)
O3 O 0.36955(6) 0.94838(10) 0.51213(5)
O4 O 0.46636(6) 0.83199(10) 0.55576(5)
N1 N 0.15502(8) 0.66760(13) 0.42811(6)
N2 N 0.19004(7) 0.77705(12) 0.61363(6)
H1 H 0.2148 0.7678 0.6524
H2 H 0.1775 0.6988 0.6065
C1 C 0.00775(8) 0.63137(13) 0.59956(6)
C2 C 0.00777(8) 0.70609(13) 0.65918(6)
C3 C 0.05971(8) 0.80532(13) 0.67011(7)
C4 C 0.05739(9) 0.86475(15) 0.72883(7)
H3 H 0.0936 0.9300 0.7369
C5 C 0.00329(10) 0.83055(16) 0.77578(7)
H4 H 0.0023 0.8723 0.8154
C6 C -0.04927(9) 0.73476(16) 0.76411(7)
H5 H -0.0871 0.7115 0.7955
C7 C -0.04656(8) 0.67308(14) 0.70668(7)
H6 H -0.0824 0.6070 0.6994
C8 C 0.11707(8) 0.85580(14) 0.62143(7)
H7 H 0.0893 0.8626 0.5801
H8 H 0.1338 0.9391 0.6344
C9 C 0.24772(8) 0.83222(15) 0.56741(7)
H9 H 0.2504 0.9218 0.5744
H10 H 0.2282 0.8180 0.5236
C10 C 0.33096(8) 0.77763(14) 0.57450(7)
H11 H 0.3431 0.7662 0.6201
H12 H 0.3324 0.6962 0.5539
C11 C 0.39399(8) 0.85928(14) 0.54494(7)
C12 C 0.20947(9) 0.70235(15) 0.40064(7)
C13 C 0.27916(11) 0.7486(2) 0.36618(9)
H13 H 0.2613 0.7982 0.3301
H14 H 0.3111 0.6796 0.3507
H15 H 0.3118 0.7992 0.3946
Cu1D Cu -0.056932(9) 0.431799(16) 0.525608(8)
Cu1G Cu 0.443068(9) 1.068201(16) 0.474392(8)
Cu1C Cu 0.556932(9) 0.931799(16) 0.525608(8)
O2D O 0.04233(6) 0.45499(10) 0.40325(5)
O3G O 0.13045(6) 0.44838(10) 0.51213(5)
O4C O -0.03364(6) 0.66801(10) 0.44424(5)
Cl1 Cl 0.20735(2) 0.98658(3) 0.217303(17)
O5 O 0.16689(10) 0.95366(14) 0.27470(7)
O6 O 0.27323(8) 0.90383(12) 0.20601(7)
O7 O 0.23720(7) 1.11037(11) 0.22273(6)
O8 O 0.15320(7) 0.97958(12) 0.16390(6)
N3 N 0.12257(18) 1.0343(2) 0.47627(11)
C14 C 0.08635(13) 0.98727(19) 0.43757(10)
C15 C 0.04166(12) 0.92501(18) 0.38874(9)
H16 H 0.0722 0.8542 0.3737
H17 H 0.0320 0.9813 0.3533
H18 H -0.0097 0.8973 0.4061
loop_
_geom_bond_atom_site_label_1
_geom_bond_atom_site_label_2
_geom_bond_site_symmetry_1
_geom_bond_site_symmetry_2
Cu1 O1 1_555 1_555
Cl1 O5 1_555 1_555
O1 C1 1_555 1_555
O2 C1 1_555 1_555
O3 C11 1_555 1_555
O4 C11 1_555 1_555
O6 Cl1 1_555 1_555
O7 Cl1 1_555 1_555
O8 Cl1 1_555 1_555
N1 Cu1 1_555 1_555
N2 H1 1_555 1_555
H2 N2 1_555 1_555
N3 C14 1_555 1_555
C1 C2 1_555 1_555
C2 C3 1_555 1_555
C3 C4 1_555 1_555
C4 H3 1_555 1_555
C5 C4 1_555 1_555
H4 C5 1_555 1_555
C6 C5 1_555 1_555
H5 C6 1_555 1_555
C7 C2 1_555 1_555
H6 C7 1_555 1_555
C8 N2 1_555 1_555
H7 C8 1_555 1_555
H8 C8 1_555 1_555
C9 N2 1_555 1_555
H9 C9 1_555 1_555
H10 C9 1_555 1_555
C10 C9 1_555 1_555
H11 C10 1_555 1_555
H12 C10 1_555 1_555
C11 C10 1_555 1_555
C12 N1 1_555 1_555
C13 C12 1_555 1_555
H13 C13 1_555 1_555
H14 C13 1_555 1_555
H15 C13 1_555 1_555
C14 C15 1_555 1_555
C15 H16 1_555 1_555
H17 C15 1_555 1_555
H18 C15 1_555 1_555
Cu1D Cu1 1_555 1_555
Cu1G O3 1_555 1_555
Cu1C O4 1_555 1_555
O2D Cu1 1_555 1_555
O3G Cu1 1_555 1_555
O4C Cu1 1_555 1_555
O2 Cu1D 1_555 1_555
C3 C8 1_555 1_555
C6 C7 1_555 1_555
Cu1G Cu1C 1_555 1_555

#END
