
#######################################################################
#
#                 Cambridge Crystallographic Data Centre
#                                CCDC 
#
#######################################################################
#
# If this CIF has been generated from an entry in the Cambridge 
# Structural Database, then it will include bibliographic, chemical, 
# crystal, experimental, refinement or atomic coordinate data resulting 
# from the CCDC's data processing and validation procedures.
#
#######################################################################

data_SENDIZ
_symmetry_cell_setting           triclinic
_symmetry_space_group_name_H-M   'P -1'
_symmetry_Int_Tables_number      2
_space_group_name_Hall           '-P 1'
loop_
_symmetry_equiv_pos_site_id
_symmetry_equiv_pos_as_xyz
1 x,y,z
2 -x,-y,-z
_cell_length_a                   7.1168(5)
_cell_length_b                   8.4491(6)
_cell_length_c                   9.5294(6)
_cell_angle_alpha                87.0330(10)
_cell_angle_beta                 77.3440(10)
_cell_angle_gamma                84.3370(10)
_cell_volume                     556.089
loop_
_atom_site_label
_atom_site_type_symbol
_atom_site_fract_x
_atom_site_fract_y
_atom_site_fract_z
Cu1 Cu 0.5000 0.5000 0.5000
S1 S 0.83780(10) -0.25966(7) 0.24513(7)
N1 N 0.7723(3) 0.3882(3) 0.4825(3)
N2 N 0.4769(4) 0.7176(3) 0.8822(3)
O1 O 0.6468(3) -0.3122(3) 0.3104(2)
O2 O 0.9907(3) -0.3631(3) 0.2932(2)
O3 O 0.8703(4) -0.2379(3) 0.0908(2)
O4 O 0.5561(3) 0.6234(2) 0.6565(2)
C1 C 0.8380(4) -0.0694(3) 0.3149(3)
C2 C 0.9140(4) 0.0548(3) 0.2277(3)
C3 C 0.8985(4) 0.2059(3) 0.2842(3)
C4 C 0.8081(4) 0.2306(3) 0.4261(3)
C5 C 0.7390(4) 0.1042(3) 0.5145(3)
C6 C 0.7533(4) -0.0457(3) 0.4595(3)
C7 C 0.4648(4) 0.6180(4) 0.7852(3)
C8 C 0.5897(6) 0.8538(4) 0.8463(4)
C9 C 0.3571(6) 0.7111(5) 1.0269(4)
H1 H 0.799(6) 0.382(5) 0.565(2)
H2 H 0.840(4) 0.456(3) 0.429(3)
H3 H 0.9750 0.0379 0.1322
H4 H 0.9492 0.2902 0.2262
H5 H 0.6829 0.1203 0.6110
H6 H 0.7065 -0.1305 0.5187
H7 H 0.3830 0.5375 0.8132
H8 H 0.6849 0.8349 0.7590
H9 H 0.6532 0.8697 0.9229
H10 H 0.5058 0.9470 0.8332
H11 H 0.2873 0.6180 1.0390
H12 H 0.2671 0.8043 1.0413
H13 H 0.4377 0.7068 1.0959
Cu1_2 Cu 0.5000 -0.5000 0.5000
Cu1_3 Cu 0.5000 1.5000 0.5000
S1A S 0.16220(10) 1.25966(7) 0.75487(7)
N1A N 0.2277(3) 0.6118(3) 0.5175(3)
N2A N 0.5231(4) 0.2824(3) 0.1178(3)
O1A O 0.3532(3) 1.3122(3) 0.6896(2)
O1_2 O 0.6468(3) 0.6878(3) 0.3104(2)
O1A_2 O 0.3532(3) 0.3122(3) 0.6896(2)
O2A O 0.0093(3) 1.3631(3) 0.7068(2)
O3A O 0.1297(4) 1.2379(3) 0.9092(2)
O4A O 0.4439(3) 0.3766(2) 0.3435(2)
C1A C 0.1620(4) 1.0694(3) 0.6851(3)
C2A C 0.0860(4) 0.9452(3) 0.7723(3)
C3A C 0.1015(4) 0.7941(3) 0.7158(3)
C4A C 0.1919(4) 0.7694(3) 0.5739(3)
C5A C 0.2610(4) 0.8958(3) 0.4855(3)
C6A C 0.2467(4) 1.0457(3) 0.5405(3)
C7A C 0.5352(4) 0.3820(4) 0.2148(3)
C8A C 0.4103(6) 0.1462(4) 0.1537(4)
C9A C 0.6429(6) 0.2889(5) -0.0269(4)
H1A H 0.201(6) 0.618(5) 0.435(2)
H2A H 0.160(4) 0.544(3) 0.571(3)
H3A H 0.0250 0.9621 0.8678
H4A H 0.0508 0.7098 0.7738
H5A H 0.3171 0.8797 0.3890
H6A H 0.2935 1.1305 0.4813
H7A H 0.6170 0.4625 0.1868
H8A H 0.3151 0.1651 0.2410
H9A H 0.3468 0.1303 0.0771
H10A H 0.4942 0.0530 0.1668
H11A H 0.7127 0.3820 -0.0390
H12A H 0.7329 0.1957 -0.0413
H13A H 0.5623 0.2932 -0.0959
loop_
_geom_bond_atom_site_label_1
_geom_bond_atom_site_label_2
_geom_bond_site_symmetry_1
_geom_bond_site_symmetry_2
Cu1 N1 1_555 1_555
S1 O1 1_555 1_555
N1 C4 1_555 1_555
N2 C7 1_555 1_555
O1 Cu1_2 1_555 1_555
O2 S1 1_555 1_555
O3 S1 1_555 1_555
O4 Cu1 1_555 1_555
C1 S1 1_555 1_555
C2 C1 1_555 1_555
C3 C2 1_555 1_555
C4 C3 1_555 1_555
C5 C4 1_555 1_555
C6 C1 1_555 1_555
C7 O4 1_555 1_555
C8 N2 1_555 1_555
C9 N2 1_555 1_555
H1 N1 1_555 1_555
H2 N1 1_555 1_555
H3 C2 1_555 1_555
H4 C3 1_555 1_555
H5 C5 1_555 1_555
H6 C6 1_555 1_555
H7 C7 1_555 1_555
H8 C8 1_555 1_555
H9 C8 1_555 1_555
H10 C8 1_555 1_555
H11 C9 1_555 1_555
H12 C9 1_555 1_555
H13 C9 1_555 1_555
Cu1_3 O1A 1_555 1_555
S1A O1A 1_555 1_555
N1A Cu1 1_555 1_555
N2A C7A 1_555 1_555
O1_2 Cu1 1_555 1_555
O1A_2 Cu1 1_555 1_555
O2A S1A 1_555 1_555
O3A S1A 1_555 1_555
O4A Cu1 1_555 1_555
C1A S1A 1_555 1_555
C2A C1A 1_555 1_555
C3A C2A 1_555 1_555
C4A N1A 1_555 1_555
C5A C4A 1_555 1_555
C6A C1A 1_555 1_555
C7A O4A 1_555 1_555
C8A N2A 1_555 1_555
C9A N2A 1_555 1_555
H1A N1A 1_555 1_555
H2A N1A 1_555 1_555
H3A C2A 1_555 1_555
H4A C3A 1_555 1_555
H5A C5A 1_555 1_555
H6A C6A 1_555 1_555
H7A C7A 1_555 1_555
H8A C8A 1_555 1_555
H9A C8A 1_555 1_555
H10A C8A 1_555 1_555
H11A C9A 1_555 1_555
H12A C9A 1_555 1_555
H13A C9A 1_555 1_555
C5 C6 1_555 1_555
C3A C4A 1_555 1_555
C5A C6A 1_555 1_555

#END
