
#######################################################################
#
#                 Cambridge Crystallographic Data Centre
#                                CCDC 
#
#######################################################################
#
# If this CIF has been generated from an entry in the Cambridge 
# Structural Database, then it will include bibliographic, chemical, 
# crystal, experimental, refinement or atomic coordinate data resulting 
# from the CCDC's data processing and validation procedures.
#
#######################################################################

data_SENGAV
_symmetry_cell_setting           monoclinic
_symmetry_space_group_name_H-M   'P 21/n'
_symmetry_Int_Tables_number      14
_space_group_name_Hall           '-P 2yn'
loop_
_symmetry_equiv_pos_site_id
_symmetry_equiv_pos_as_xyz
1 x,y,z
2 1/2-x,1/2+y,1/2-z
3 -x,-y,-z
4 1/2+x,1/2-y,1/2+z
_cell_length_a                   9.8000(11)
_cell_length_b                   16.5557(19)
_cell_length_c                   16.2705(19)
_cell_angle_alpha                90
_cell_angle_beta                 97.082(4)
_cell_angle_gamma                90
_cell_volume                     2619.68
loop_
_atom_site_label
_atom_site_type_symbol
_atom_site_fract_x
_atom_site_fract_y
_atom_site_fract_z
Mn1 Mn 0.0000 1.0000 0.5000
O1 O -0.0601(3) 0.95907(18) 0.61775(17)
H1 H -0.099(5) 0.913(2) 0.621(3)
H2 H -0.083(5) 0.991(2) 0.655(2)
N1 N 0.1844(3) 0.76115(16) 0.51970(17)
N2 N 0.0960(3) 0.74282(17) 0.45137(18)
N3 N 0.0752(3) 0.87313(16) 0.48600(17)
N4 N 0.1088(3) 0.55371(18) 0.84698(16)
N5 N 0.0604(3) 0.5468(2) 0.92120(18)
N6 N 0.2892(3) 0.53112(17) 0.93618(16)
N7 N 0.2683(3) 0.36082(17) 0.55242(18)
N8 N 0.2793(4) 0.28478(19) 0.5221(2)
N9 N 0.4743(4) 0.3192(2) 0.6023(2)
C1 C 0.2049(3) 0.62773(19) 0.5907(2)
C2 C 0.1449(4) 0.6331(2) 0.6647(2)
C3 C 0.0850(3) 0.5641(2) 0.6943(2)
C4 C 0.0900(3) 0.4897(2) 0.6540(2)
C5 C 0.1449(3) 0.4863(2) 0.5781(2)
C6 C 0.2022(3) 0.55507(19) 0.5465(2)
C7 C 0.2783(4) 0.7003(2) 0.5606(2)
H3 H 0.3343 0.7253 0.6078
H4 H 0.3405 0.6820 0.5216
C8 C 0.1503(5) 0.7112(2) 0.7124(2)
H5 H 0.0850 0.7491 0.6842
H6 H 0.2422 0.7337 0.7158
H7 H 0.1272 0.7012 0.7677
C9 C 0.0136(4) 0.5697(3) 0.7714(2)
H8 H -0.0257 0.6238 0.7749
H9 H -0.0619 0.5306 0.7676
C10 C 0.0421(5) 0.4127(3) 0.6933(2)
H10 H 0.0590 0.4172 0.7531
H11 H 0.0922 0.3669 0.6752
H12 H -0.0556 0.4052 0.6765
C11 C 0.1419(4) 0.4075(2) 0.5314(2)
H13 H 0.0632 0.3754 0.5443
H14 H 0.1294 0.4186 0.4718
C12 C 0.2663(4) 0.5502(2) 0.4666(2)
H15 H 0.3653 0.5455 0.4792
H16 H 0.2440 0.5987 0.4342
H17 H 0.2306 0.5033 0.4352
C13 C 0.0334(4) 0.8118(2) 0.4342(2)
H18 H -0.0356 0.8181 0.3891
C14 C 0.1701(4) 0.8378(2) 0.5382(2)
H19 H 0.2213 0.8641 0.5831
C15 C 0.1728(4) 0.5338(3) 0.9727(2)
H20 H 0.1721 0.5270 1.0300
C16 C 0.2433(3) 0.5444(2) 0.8569(2)
H21 H 0.2992 0.5467 0.8140
C17 C 0.4042(5) 0.2636(3) 0.5535(3)
H22 H 0.4419 0.2130 0.5428
C18 C 0.3843(4) 0.3794(2) 0.5998(3)
H23 H 0.4006 0.4287 0.6279
Mn1A Mn -0.5000 1.5000 0.0000
Mn1A_2 Mn 0.5000 0.5000 1.0000
O1B O 0.0601(3) 1.04093(18) 0.38225(17)
H1B H 0.099(5) 1.087(2) 0.379(3)
H2B H 0.083(5) 1.009(2) 0.345(2)
N1B N -0.1844(3) 1.23885(16) 0.48030(17)
N2B N -0.0960(3) 1.25718(17) 0.54863(18)
N3B N -0.0752(3) 1.12687(16) 0.51400(17)
N4B N -0.1088(3) 1.44629(18) 0.15302(16)
N5B N -0.0604(3) 1.4532(2) 0.07880(18)
N6B N -0.2892(3) 1.46888(17) 0.06382(16)
N6A N 0.2108(3) 1.03112(17) 0.56382(16)
N6C N -0.2108(3) 0.96888(17) 0.43618(16)
N7B N -0.2683(3) 1.63918(17) 0.44758(18)
N8B N -0.2793(4) 1.71522(19) 0.4779(2)
N9B N -0.4743(4) 1.6808(2) 0.3977(2)
C1B C -0.2049(3) 1.37227(19) 0.4093(2)
C2B C -0.1449(4) 1.3669(2) 0.3353(2)
C3B C -0.0850(3) 1.4359(2) 0.3057(2)
C4B C -0.0900(3) 1.5103(2) 0.3460(2)
C5B C -0.1449(3) 1.5137(2) 0.4219(2)
C6B C -0.2022(3) 1.44493(19) 0.4535(2)
C7B C -0.2783(4) 1.2997(2) 0.4394(2)
H3B H -0.3343 1.2747 0.3922
H4B H -0.3405 1.3180 0.4784
C8B C -0.1503(5) 1.2888(2) 0.2876(2)
H5B H -0.0850 1.2509 0.3158
H6B H -0.2422 1.2663 0.2842
H7B H -0.1272 1.2988 0.2323
C9B C -0.0136(4) 1.4303(3) 0.2286(2)
H8B H 0.0257 1.3762 0.2251
H9B H 0.0619 1.4694 0.2324
C10B C -0.0421(5) 1.5873(3) 0.3067(2)
H10B H -0.0590 1.5828 0.2469
H11B H -0.0922 1.6331 0.3248
H12B H 0.0556 1.5948 0.3235
C11B C -0.1419(4) 1.5925(2) 0.4686(2)
H13B H -0.0632 1.6246 0.4557
H14B H -0.1294 1.5814 0.5282
C12B C -0.2663(4) 1.4498(2) 0.5334(2)
H15B H -0.3653 1.4545 0.5208
H16B H -0.2440 1.4013 0.5658
H17B H -0.2306 1.4967 0.5648
C13B C -0.0334(4) 1.1882(2) 0.5658(2)
H18B H 0.0356 1.1819 0.6109
C14B C -0.1701(4) 1.1622(2) 0.4618(2)
H19B H -0.2213 1.1359 0.4169
C15B C -0.1728(4) 1.4662(3) 0.0273(2)
H20B H -0.1721 1.4730 -0.0300
C16B C -0.2433(3) 1.4556(2) 0.1431(2)
H21B H -0.2992 1.4533 0.1860
C17B C -0.4042(5) 1.7364(3) 0.4465(3)
H22B H -0.4419 1.7870 0.4572
C18B C -0.3843(4) 1.6206(2) 0.4002(3)
H23B H -0.4006 1.5713 0.3721
P1 P 0.60621(10) 0.60430(6) 0.70326(6)
F1 F 0.6527(3) 0.51248(16) 0.71269(18)
F2 F 0.4696(3) 0.5837(2) 0.74281(19)
F3 F 0.6831(3) 0.62095(19) 0.79411(14)
F4 F 0.5291(2) 0.58700(16) 0.61370(14)
F5 F 0.5601(3) 0.69535(15) 0.69628(17)
F6 F 0.7430(2) 0.62433(16) 0.66563(14)
O2 O -0.3262(6) 0.3154(3) 0.8777(2)
O3 O -0.2130(4) 0.8005(3) 0.7821(2)
O4 O 0.5028(9) 0.1398(5) 0.3960(6)
loop_
_geom_bond_atom_site_label_1
_geom_bond_atom_site_label_2
_geom_bond_site_symmetry_1
_geom_bond_site_symmetry_2
Mn1 O1 1_555 1_555
P1 F1 1_555 1_555
F2 P1 1_555 1_555
F3 P1 1_555 1_555
F4 P1 1_555 1_555
F5 P1 1_555 1_555
F6 P1 1_555 1_555
O1 H1 1_555 1_555
H2 O1 1_555 1_555
N1 N2 1_555 1_555
N2 C13 1_555 1_555
N3 Mn1 1_555 1_555
N4 N5 1_555 1_555
N5 C15 1_555 1_555
N6 C15 1_555 1_555
N7 N8 1_555 1_555
N8 C17 1_555 1_555
N9 C17 1_555 1_555
C1 C2 1_555 1_555
C2 C3 1_555 1_555
C3 C4 1_555 1_555
C4 C5 1_555 1_555
C5 C6 1_555 1_555
C6 C1 1_555 1_555
C7 N1 1_555 1_555
H3 C7 1_555 1_555
H4 C7 1_555 1_555
C8 C2 1_555 1_555
H5 C8 1_555 1_555
H6 C8 1_555 1_555
H7 C8 1_555 1_555
C9 N4 1_555 1_555
H8 C9 1_555 1_555
H9 C9 1_555 1_555
C10 C4 1_555 1_555
H10 C10 1_555 1_555
H11 C10 1_555 1_555
H12 C10 1_555 1_555
C11 N7 1_555 1_555
H13 C11 1_555 1_555
H14 C11 1_555 1_555
C12 C6 1_555 1_555
H15 C12 1_555 1_555
H16 C12 1_555 1_555
H17 C12 1_555 1_555
C13 N3 1_555 1_555
H18 C13 1_555 1_555
C14 N1 1_555 1_555
H19 C14 1_555 1_555
C15 H20 1_555 1_555
C16 N4 1_555 1_555
H21 C16 1_555 1_555
C17 H22 1_555 1_555
C18 N7 1_555 1_555
H23 C18 1_555 1_555
Mn1A N6B 1_555 1_555
Mn1A_2 N6 1_555 1_555
O1B Mn1 1_555 1_555
H1B O1B 1_555 1_555
H2B O1B 1_555 1_555
N1B N2B 1_555 1_555
N2B C13B 1_555 1_555
N3B Mn1 1_555 1_555
N4B N5B 1_555 1_555
N5B C15B 1_555 1_555
N6B C15B 1_555 1_555
N6A Mn1 1_555 1_555
N6C Mn1 1_555 1_555
N7B N8B 1_555 1_555
N8B C17B 1_555 1_555
N9B C17B 1_555 1_555
C1B C2B 1_555 1_555
C2B C3B 1_555 1_555
C3B C4B 1_555 1_555
C4B C5B 1_555 1_555
C5B C6B 1_555 1_555
C6B C1B 1_555 1_555
C7B N1B 1_555 1_555
H3B C7B 1_555 1_555
H4B C7B 1_555 1_555
C8B C2B 1_555 1_555
H5B C8B 1_555 1_555
H6B C8B 1_555 1_555
H7B C8B 1_555 1_555
C9B N4B 1_555 1_555
H8B C9B 1_555 1_555
H9B C9B 1_555 1_555
C10B C4B 1_555 1_555
H10B C10B 1_555 1_555
H11B C10B 1_555 1_555
H12B C10B 1_555 1_555
C11B N7B 1_555 1_555
H13B C11B 1_555 1_555
H14B C11B 1_555 1_555
C12B C6B 1_555 1_555
H15B C12B 1_555 1_555
H16B C12B 1_555 1_555
H17B C12B 1_555 1_555
C13B N3B 1_555 1_555
H18B C13B 1_555 1_555
C14B N1B 1_555 1_555
H19B C14B 1_555 1_555
C15B H20B 1_555 1_555
C16B N4B 1_555 1_555
H21B C16B 1_555 1_555
C17B H22B 1_555 1_555
C18B N7B 1_555 1_555
H23B C18B 1_555 1_555
N3 C14 1_555 1_555
N6 C16 1_555 1_555
N9 C18 1_555 1_555
C1 C7 1_555 1_555
C3 C9 1_555 1_555
C5 C11 1_555 1_555
N3B C14B 1_555 1_555
N6B C16B 1_555 1_555
N9B C18B 1_555 1_555
C1B C7B 1_555 1_555
C3B C9B 1_555 1_555
C5B C11B 1_555 1_555

#END
