
#######################################################################
#
#                 Cambridge Crystallographic Data Centre
#                                CCDC 
#
#######################################################################
#
# If this CIF has been generated from an entry in the Cambridge 
# Structural Database, then it will include bibliographic, chemical, 
# crystal, experimental, refinement or atomic coordinate data resulting 
# from the CCDC's data processing and validation procedures.
#
#######################################################################

data_SENHUQ
_symmetry_cell_setting           triclinic
_symmetry_space_group_name_H-M   'P -1'
_symmetry_Int_Tables_number      2
_space_group_name_Hall           '-P 1'
loop_
_symmetry_equiv_pos_site_id
_symmetry_equiv_pos_as_xyz
1 x,y,z
2 -x,-y,-z
_cell_length_a                   7.6502(10)
_cell_length_b                   8.3613(11)
_cell_length_c                   8.8582(11)
_cell_angle_alpha                62.799(2)
_cell_angle_beta                 87.299(2)
_cell_angle_gamma                87.423(2)
_cell_volume                     503.222
loop_
_atom_site_label
_atom_site_type_symbol
_atom_site_fract_x
_atom_site_fract_y
_atom_site_fract_z
Cd1 Cd 0.65675(2) 0.65123(2) 0.04059(2)
O1 O 0.5683(3) 0.3590(3) 0.1291(3)
N1 N 0.6737(3) 0.2152(3) 0.2140(3)
C1 C 0.7827(4) 0.1535(4) 0.1266(4)
H1 H 0.7902 0.2145 0.0087
C2 C 0.8827(4) -0.0007(4) 0.2140(4)
H2 H 0.9566 -0.0454 0.1549
C3 C 0.8730(4) -0.0883(4) 0.3887(4)
H3 H 0.9388 -0.1933 0.4484
C4 C 0.7647(4) -0.0187(4) 0.4744(4)
H4 H 0.7579 -0.0760 0.5925
C5 C 0.6665(4) 0.1359(4) 0.3846(4)
H5 H 0.5955 0.1852 0.4417
C6 C 0.3924(4) 0.8958(4) 0.1876(4)
S1 S 0.44223(11) 0.67862(10) 0.28389(10)
N2 N 0.3519(3) 1.0463(3) 0.1233(3)
C7 C 1.0438(4) 0.4549(4) 0.1982(4)
S2 S 0.89460(10) 0.54900(10) 0.27537(10)
N3 N 1.1498(4) 0.3876(4) 0.1474(3)
Cd1A Cd 0.34325(2) 0.34877(2) -0.04059(2)
Cd1_2 Cd -0.34325(2) 0.65123(2) 0.04059(2)
Cd1_3 Cd 0.65675(2) -0.34877(2) 0.04059(2)
Cd1A_2 Cd 0.34325(2) 1.34877(2) -0.04059(2)
Cd1A_3 Cd 1.34325(2) 0.34877(2) -0.04059(2)
O1A O 0.4317(3) 0.6410(3) -0.1291(3)
N1A N 0.3263(3) 0.7848(3) -0.2140(3)
C1A C 0.2173(4) 0.8465(4) -0.1266(4)
H1A H 0.2098 0.7855 -0.0087
C2A C 0.1173(4) 1.0007(4) -0.2140(4)
H2A H 0.0434 1.0454 -0.1549
C3A C 0.1270(4) 1.0883(4) -0.3887(4)
H3A H 0.0612 1.1933 -0.4484
C4A C 0.2353(4) 1.0187(4) -0.4744(4)
H4A H 0.2421 1.0760 -0.5925
C5A C 0.3335(4) 0.8641(4) -0.3846(4)
H5A H 0.4045 0.8148 -0.4417
C6A C 0.6076(4) 0.1042(4) -0.1876(4)
S1A S 0.55777(11) 0.32138(10) -0.28389(10)
N2A N 0.6481(3) -0.0463(3) -0.1233(3)
N2_2 N 0.3519(3) 0.0463(3) 0.1233(3)
N2A_2 N 0.6481(3) 0.9537(3) -0.1233(3)
C7A C -0.0438(4) 0.5451(4) -0.1982(4)
S2A S 0.10540(10) 0.45100(10) -0.27537(10)
N3A N -0.1498(4) 0.6124(4) -0.1474(3)
N3_2 N 0.1498(4) 0.3876(4) 0.1474(3)
N3A_2 N 0.8502(4) 0.6124(4) -0.1474(3)
loop_
_geom_bond_atom_site_label_1
_geom_bond_atom_site_label_2
_geom_bond_site_symmetry_1
_geom_bond_site_symmetry_2
Cd1 O1 1_555 1_555
O1 N1 1_555 1_555
N1 C1 1_555 1_555
C1 H1 1_555 1_555
C2 C1 1_555 1_555
H2 C2 1_555 1_555
C3 C2 1_555 1_555
H3 C3 1_555 1_555
C4 C3 1_555 1_555
H4 C4 1_555 1_555
C5 N1 1_555 1_555
H5 C5 1_555 1_555
C6 S1 1_555 1_555
S1 Cd1 1_555 1_555
N2 C6 1_555 1_555
C7 S2 1_555 1_555
S2 Cd1 1_555 1_555
N3 C7 1_555 1_555
Cd1A O1 1_555 1_555
Cd1_2 N3A 1_555 1_555
Cd1_3 N2A 1_555 1_555
Cd1A_2 N2 1_555 1_555
Cd1A_3 N3 1_555 1_555
O1A Cd1 1_555 1_555
N1A O1A 1_555 1_555
C1A N1A 1_555 1_555
H1A C1A 1_555 1_555
C2A C1A 1_555 1_555
H2A C2A 1_555 1_555
C3A C2A 1_555 1_555
H3A C3A 1_555 1_555
C4A C3A 1_555 1_555
H4A C4A 1_555 1_555
C5A N1A 1_555 1_555
H5A C5A 1_555 1_555
C6A S1A 1_555 1_555
S1A Cd1A 1_555 1_555
N2A C6A 1_555 1_555
N2_2 Cd1A 1_555 1_555
N2A_2 Cd1 1_555 1_555
C7A S2A 1_555 1_555
S2A Cd1A 1_555 1_555
N3A C7A 1_555 1_555
N3_2 Cd1A 1_555 1_555
N3A_2 Cd1 1_555 1_555
C4 C5 1_555 1_555
Cd1A O1A 1_555 1_555
C4A C5A 1_555 1_555

#END
