
#######################################################################
#
#                 Cambridge Crystallographic Data Centre
#                                CCDC 
#
#######################################################################
#
# If this CIF has been generated from an entry in the Cambridge 
# Structural Database, then it will include bibliographic, chemical, 
# crystal, experimental, refinement or atomic coordinate data resulting 
# from the CCDC's data processing and validation procedures.
#
#######################################################################

data_SENJAY
_symmetry_cell_setting           orthorhombic
_symmetry_space_group_name_H-M   'P 21 21 21'
_symmetry_Int_Tables_number      19
_space_group_name_Hall           'P 2ac 2ab'
loop_
_symmetry_equiv_pos_site_id
_symmetry_equiv_pos_as_xyz
1 x,y,z
2 1/2-x,-y,1/2+z
3 -x,1/2+y,1/2-z
4 1/2+x,1/2-y,-z
_cell_length_a                   7.5118(9)
_cell_length_b                   12.9507(16)
_cell_length_c                   13.1305(16)
_cell_angle_alpha                90
_cell_angle_beta                 90
_cell_angle_gamma                90
_cell_volume                     1277.38
loop_
_atom_site_label
_atom_site_type_symbol
_atom_site_fract_x
_atom_site_fract_y
_atom_site_fract_z
Mn1 Mn 0.66127(9) 0.10629(5) 0.56497(5)
C1 C 0.8571(11) 0.1459(5) 0.8182(4)
H1 H 0.8554 0.0749 0.8080
C2 C 0.8372(15) 0.1861(5) 0.9152(4)
H2 H 0.8209 0.1418 0.9702
C3 C 0.8411(13) 0.2892(5) 0.9307(5)
H3 H 0.8272 0.3167 0.9956
C4 C 0.8660(15) 0.3515(5) 0.8489(5)
H4 H 0.8704 0.4226 0.8581
C5 C 0.8844(13) 0.3117(5) 0.7541(5)
H5 H 0.9011 0.3555 0.6987
C6 C 0.4161(7) 0.2336(4) 0.7331(4)
C7 C 0.3355(8) 0.3774(4) 0.8213(4)
C8 C 1.0017(6) 0.0286(4) 0.4303(4)
C9 C 1.3000(6) 0.0262(4) 0.4416(4)
O1 O 0.8946(5) 0.1700(4) 0.6460(3)
O2 O 0.6579(7) 0.2525(3) 0.4735(3)
N1 N 0.8787(6) 0.2094(4) 0.7399(3)
N2 N 0.4824(7) 0.1856(4) 0.6703(4)
N3 N 0.3257(11) 0.2786(4) 0.8053(4)
N4 N 0.3296(8) 0.4622(4) 0.8455(4)
N5 N 0.8616(6) 0.0493(4) 0.4564(4)
N6 N 1.1544(6) 0.0003(4) 0.3947(4)
N7 N 1.4356(6) 0.0458(4) 0.4748(4)
H6 H 0.562(10) 0.273(5) 0.435(6)
H7 H 0.755(10) 0.264(5) 0.450(5)
Mn1_2 Mn 1.66127(9) 0.10629(5) 0.56497(5)
Mn1B Mn 0.33873(9) 0.60629(5) 0.93503(5)
N4B N 0.6704(8) -0.0378(4) 0.6545(4)
N7_2 N 0.4356(6) 0.0458(4) 0.4748(4)
loop_
_geom_bond_atom_site_label_1
_geom_bond_atom_site_label_2
_geom_bond_site_symmetry_1
_geom_bond_site_symmetry_2
Mn1 O1 1_555 1_555
C1 H1 1_555 1_555
C2 C1 1_555 1_555
H2 C2 1_555 1_555
C3 C2 1_555 1_555
H3 C3 1_555 1_555
C4 C3 1_555 1_555
H4 C4 1_555 1_555
C5 C4 1_555 1_555
H5 C5 1_555 1_555
C6 N2 1_555 1_555
C7 N3 1_555 1_555
C8 N5 1_555 1_555
C9 N6 1_555 1_555
O1 N1 1_555 1_555
O2 Mn1 1_555 1_555
N1 C1 1_555 1_555
N2 Mn1 1_555 1_555
N3 C6 1_555 1_555
N4 C7 1_555 1_555
N5 Mn1 1_555 1_555
N6 C8 1_555 1_555
N7 C9 1_555 1_555
H6 O2 1_555 1_555
H7 O2 1_555 1_555
Mn1_2 N7 1_555 1_555
Mn1B N4 1_555 1_555
N4B Mn1 1_555 1_555
N7_2 Mn1 1_555 1_555
C5 N1 1_555 1_555

#END
