
#######################################################################
#
#                 Cambridge Crystallographic Data Centre
#                                CCDC 
#
#######################################################################
#
# If this CIF has been generated from an entry in the Cambridge 
# Structural Database, then it will include bibliographic, chemical, 
# crystal, experimental, refinement or atomic coordinate data resulting 
# from the CCDC's data processing and validation procedures.
#
#######################################################################

data_SENJEB
_symmetry_cell_setting           monoclinic
_symmetry_space_group_name_H-M   'C 2/c'
_symmetry_Int_Tables_number      15
_space_group_name_Hall           '-C 2yn'
loop_
_symmetry_equiv_pos_site_id
_symmetry_equiv_pos_as_xyz
1 x,y,z
2 1/2+x,1/2+y,z
3 -x,y,1/2-z
4 1/2-x,1/2+y,1/2-z
5 -x,-y,-z
6 1/2-x,1/2-y,-z
7 x,-y,1/2+z
8 1/2+x,1/2-y,1/2+z
_cell_length_a                   13.735(3)
_cell_length_b                   12.088(2)
_cell_length_c                   9.942(2)
_cell_angle_alpha                90
_cell_angle_beta                 112.79(3)
_cell_angle_gamma                90
_cell_volume                     1521.79
loop_
_atom_site_label
_atom_site_type_symbol
_atom_site_fract_x
_atom_site_fract_y
_atom_site_fract_z
Zn1 Zn 0.78333(3) 0.57263(3) 0.30836(4)
N1 N 0.7458(2) 0.4137(2) 0.2726(3)
N2 N 0.7665(2) 0.7313(2) 0.2528(3)
C1 C 0.6346(3) 0.4597(3) 0.4029(4)
C2 C 0.6806(2) 0.3765(2) 0.3367(3)
C3 C 0.8275(2) 0.7632(2) 0.1791(3)
C4 C 0.8845(2) 0.6778(2) 0.1319(3)
C5 C 0.7759(3) 0.3239(2) 0.2204(4)
H1 H 0.8212 0.3257 0.1711
O1 O 0.5718(3) 0.4274(2) 0.4634(4)
H2 H 0.563(4) 0.3579(11) 0.467(5)
O2 O 0.6596(2) 0.55913(17) 0.3968(3)
O3 O 0.87303(19) 0.57898(16) 0.1671(3)
O4 O 0.93939(19) 0.70487(19) 0.0613(3)
O5 O 0.9072(2) 0.58122(18) 0.5023(3)
H3 H 0.9122 0.5371 0.5702
H4 H 0.9675 0.6107 0.5287
Zn1C Zn 0.71667(3) 0.07263(3) 0.19164(4)
Zn1C_2 Zn 0.71667(3) 1.07263(3) 0.19164(4)
N1C N 0.7542(2) 0.9137(2) 0.2274(3)
N2C N 0.7335(2) 0.2313(2) 0.2472(3)
N2C_2 N 0.7335(2) 1.2313(2) 0.2472(3)
C1C C 0.8654(3) 0.9597(3) 0.0971(4)
C2C C 0.8194(2) 0.8765(2) 0.1633(3)
C3C C 0.6725(2) 0.2632(2) 0.3209(3)
C4C C 0.6155(2) 0.1778(2) 0.3681(3)
C5C C 0.7241(3) 0.8239(2) 0.2796(4)
H1C H 0.6788 0.8257 0.3289
O1C O 0.9282(3) 0.9274(2) 0.0366(4)
H2C H 0.937(4) 0.8579(11) 0.033(5)
O2C O 0.8404(2) 1.05913(17) 0.1032(3)
O3C O 0.62697(19) 0.07898(16) 0.3329(3)
O3C_2 O 0.62697(19) 1.07898(16) 0.3329(3)
O4C O 0.56061(19) 0.20487(19) 0.4387(3)
O5C O 0.5928(2) 1.08122(18) -0.0023(3)
H3C H 0.5878 1.0371 -0.0702
H4C H 0.5325 1.1107 -0.0287
O6 O 0.9847(2) 0.77485(18) 0.6735(3)
loop_
_geom_bond_atom_site_label_1
_geom_bond_atom_site_label_2
_geom_bond_site_symmetry_1
_geom_bond_site_symmetry_2
Zn1 N1 1_555 1_555
N1 C2 1_555 1_555
N2 Zn1 1_555 1_555
C1 C2 1_555 1_555
C2 C3C 1_555 1_555
C3 N2 1_555 1_555
C4 C3 1_555 1_555
C5 N1 1_555 1_555
H1 C5 1_555 1_555
O1 C1 1_555 1_555
H2 O1 1_555 1_555
O2 Zn1 1_555 1_555
O3 Zn1 1_555 1_555
O4 C4 1_555 1_555
O5 Zn1 1_555 1_555
H3 O5 1_555 1_555
H4 O5 1_555 1_555
Zn1C N2C 1_555 1_555
Zn1C_2 N1C 1_555 1_555
N1C C2C 1_555 1_555
N2C C5 1_555 1_555
N2C_2 Zn1C_2 1_555 1_555
C1C C2C 1_555 1_555
C2C C3 1_555 1_555
C3C N2C 1_555 1_555
C4C C3C 1_555 1_555
C5C N2 1_555 1_555
H1C C5C 1_555 1_555
O1C C1C 1_555 1_555
H2C O1C 1_555 1_555
O2C Zn1C_2 1_555 1_555
O3C Zn1C 1_555 1_555
O3C_2 Zn1C_2 1_555 1_555
O4C C4C 1_555 1_555
O5C Zn1C_2 1_555 1_555
H3C O5C 1_555 1_555
H4C O5C 1_555 1_555
C1 O2 1_555 1_555
C4 O3 1_555 1_555
N1C C5C 1_555 1_555
C1C O2C 1_555 1_555
C4C O3C 1_555 1_555

#END
