
#######################################################################
#
#                 Cambridge Crystallographic Data Centre
#                                CCDC 
#
#######################################################################
#
# If this CIF has been generated from an entry in the Cambridge 
# Structural Database, then it will include bibliographic, chemical, 
# crystal, experimental, refinement or atomic coordinate data resulting 
# from the CCDC's data processing and validation procedures.
#
#######################################################################

data_SENKOM
_symmetry_cell_setting           triclinic
_symmetry_space_group_name_H-M   'P -1'
_symmetry_Int_Tables_number      2
_space_group_name_Hall           '-P 1'
loop_
_symmetry_equiv_pos_site_id
_symmetry_equiv_pos_as_xyz
1 x,y,z
2 -x,-y,-z
_cell_length_a                   6.8613(14)
_cell_length_b                   8.3961(17)
_cell_length_c                   14.610(3)
_cell_angle_alpha                105.08(3)
_cell_angle_beta                 98.70(3)
_cell_angle_gamma                94.15(3)
_cell_volume                     797.799
loop_
_atom_site_label
_atom_site_type_symbol
_atom_site_fract_x
_atom_site_fract_y
_atom_site_fract_z
Zn1 Zn 0.62636(7) 0.49775(5) 0.40543(3)
C1 C 0.6738(5) 0.3199(4) 0.2068(2)
O1 O 0.5929(4) 0.3555(3) 0.49540(17)
C2 C 0.3865(5) 0.3806(5) 0.1007(3)
O2 O 0.8173(4) 0.7024(3) 0.46620(18)
N1 N 0.4308(4) 0.4860(4) 0.2773(2)
C3 C 0.6305(6) 0.2071(5) 0.0273(3)
O3 O 0.4594(5) 0.1422(4) 0.36274(19)
N2 N 0.3504(5) 0.2694(5) -0.0773(2)
N3 N 0.7700(5) 0.3434(4) 0.3001(2)
C4 C 0.9125(6) 0.1455(5) 0.1433(3)
H1 H 0.9625 0.0799 0.0924
C5 C 0.5214(6) 0.0829(5) 0.5166(3)
H2 H 0.5524 0.1301 0.5828
N4 N 0.7017(5) 0.1121(5) -0.0536(3)
C6 C 0.5218(6) 0.1972(4) 0.4510(3)
C7 C 0.7403(6) 0.2235(5) 0.1256(3)
C8 C 0.4579(6) 0.2832(5) 0.0150(2)
C9 C 0.4935(5) 0.3987(4) 0.1947(2)
C10 C 0.9306(6) 0.2698(5) 0.3151(3)
H3 H 0.9960 0.2851 0.3778
C11 C 1.0060(6) 0.1682(6) 0.2379(3)
H4 H 1.1184 0.1165 0.2505
O4 O 0.8604(5) 0.7245(4) 0.31906(19)
C12 C 0.8851(5) 0.7798(5) 0.4092(3)
C13 C 0.9999(6) 0.9524(5) 0.4545(3)
H5 H 1.0755 0.9957 0.4169
C14 C 0.2655(6) 0.5575(5) 0.2676(3)
H6 H 0.2226 0.6161 0.3227
C15 C 0.1513(6) 0.5481(5) 0.1761(3)
H7 H 0.0372 0.6010 0.1718
C16 C 0.2127(6) 0.4585(5) 0.0930(3)
H8 H 0.1390 0.4503 0.0327
C17 C 0.5941(7) 0.1025(6) -0.1376(3)
H9 H 0.6349 0.0404 -0.1925
C18 C 0.4202(7) 0.1807(6) -0.1497(3)
H10 H 0.3530 0.1685 -0.2118
Zn1A Zn 0.37364(7) -0.49775(5) 0.59457(3)
Zn1A_2 Zn 0.37364(7) 0.50225(5) 0.59457(3)
Zn1_2 Zn 0.62636(7) -0.50225(5) 0.40543(3)
Zn1A_3 Zn 1.37364(7) 1.50225(5) 0.59457(3)
C1A C 0.3262(5) -0.3199(4) 0.7932(2)
O1A O 0.4071(4) -0.3555(3) 0.50460(17)
O1A_2 O 0.4071(4) 0.6445(3) 0.50460(17)
O1_2 O 0.5929(4) -0.6445(3) 0.49540(17)
C2A C 0.6135(5) -0.3806(5) 0.8993(3)
O2A O 1.1827(4) 1.2976(3) 0.53380(18)
O2A_2 O 0.1827(4) -0.7024(3) 0.53380(18)
N1A N 0.5692(4) -0.4860(4) 0.7227(2)
C3A C 0.3695(6) -0.2071(5) 0.9727(3)
O3A O 0.5406(5) -0.1422(4) 0.63726(19)
N2A N 0.6496(5) -0.2694(5) 1.0773(2)
N3A N 0.2300(5) -0.3434(4) 0.6999(2)
C4A C 0.0875(6) -0.1455(5) 0.8567(3)
H1A H 0.0375 -0.0799 0.9076
C5A C 0.4786(6) -0.0829(5) 0.4834(3)
H2A H 0.4476 -0.1301 0.4172
N4A N 0.2983(5) -0.1121(5) 1.0536(3)
C6A C 0.4782(6) -0.1972(4) 0.5490(3)
C7A C 0.2597(6) -0.2235(5) 0.8744(3)
C8A C 0.5421(6) -0.2832(5) 0.9850(2)
C9A C 0.5065(5) -0.3987(4) 0.8053(2)
C10A C 0.0694(6) -0.2698(5) 0.6849(3)
H3A H 0.0040 -0.2851 0.6222
C11A C -0.0060(6) -0.1682(6) 0.7621(3)
H4A H -0.1184 -0.1165 0.7495
O4A O 1.1396(5) 1.2755(4) 0.68094(19)
C12A C 1.1149(5) 1.2202(5) 0.5908(3)
C13A C 1.0001(6) 1.0476(5) 0.5455(3)
H5A H 0.9245 1.0043 0.5831
C14A C 0.7345(6) -0.5575(5) 0.7324(3)
H6A H 0.7774 -0.6161 0.6773
C15A C 0.8487(6) -0.5481(5) 0.8239(3)
H7A H 0.9628 -0.6010 0.8282
C16A C 0.7873(6) -0.4585(5) 0.9070(3)
H8A H 0.8610 -0.4503 0.9673
C17A C 0.4059(7) -0.1025(6) 1.1376(3)
H9A H 0.3651 -0.0404 1.1925
C18A C 0.5798(7) -0.1807(6) 1.1497(3)
H10A H 0.6470 -0.1685 1.2118
loop_
_geom_bond_atom_site_label_1
_geom_bond_atom_site_label_2
_geom_bond_site_symmetry_1
_geom_bond_site_symmetry_2
Zn1 O1 1_555 1_555
C1 N3 1_555 1_555
O1 C6 1_555 1_555
C2 C8 1_555 1_555
O2 Zn1 1_555 1_555
N1 Zn1 1_555 1_555
C3 N4 1_555 1_555
O3 C6 1_555 1_555
N2 C8 1_555 1_555
N3 Zn1 1_555 1_555
C4 H1 1_555 1_555
C5 H2 1_555 1_555
N4 C17 1_555 1_555
C6 C5 1_555 1_555
C7 C1 1_555 1_555
C8 C3 1_555 1_555
C9 C1 1_555 1_555
C10 N3 1_555 1_555
H3 C10 1_555 1_555
C11 C4 1_555 1_555
H4 C11 1_555 1_555
O4 C12 1_555 1_555
C12 O2 1_555 1_555
C13 C12 1_555 1_555
H5 C13 1_555 1_555
C14 N1 1_555 1_555
H6 C14 1_555 1_555
C15 C14 1_555 1_555
H7 C15 1_555 1_555
C16 C2 1_555 1_555
H8 C16 1_555 1_555
C17 H9 1_555 1_555
C18 N2 1_555 1_555
H10 C18 1_555 1_555
Zn1A O1A 1_555 1_555
Zn1A_2 O1 1_555 1_555
Zn1_2 O1A 1_555 1_555
Zn1A_3 O2A 1_555 1_555
C1A N3A 1_555 1_555
O1A C6A 1_555 1_555
O1A_2 Zn1 1_555 1_555
O1_2 Zn1A 1_555 1_555
C2A C8A 1_555 1_555
O2A C12A 1_555 1_555
O2A_2 Zn1A 1_555 1_555
N1A Zn1A 1_555 1_555
C3A N4A 1_555 1_555
O3A C6A 1_555 1_555
N2A C8A 1_555 1_555
N3A Zn1A 1_555 1_555
C4A H1A 1_555 1_555
C5A C5 1_555 1_555
H2A C5A 1_555 1_555
N4A C17A 1_555 1_555
C6A C5A 1_555 1_555
C7A C1A 1_555 1_555
C8A C3A 1_555 1_555
C9A C1A 1_555 1_555
C10A N3A 1_555 1_555
H3A C10A 1_555 1_555
C11A C4A 1_555 1_555
H4A C11A 1_555 1_555
O4A C12A 1_555 1_555
C12A C13A 1_555 1_555
C13A C13 1_555 1_555
H5A C13A 1_555 1_555
C14A N1A 1_555 1_555
H6A C14A 1_555 1_555
C15A C14A 1_555 1_555
H7A C15A 1_555 1_555
C16A C2A 1_555 1_555
H8A C16A 1_555 1_555
C17A H9A 1_555 1_555
C18A N2A 1_555 1_555
H10A C18A 1_555 1_555
C2 C9 1_555 1_555
N1 C9 1_555 1_555
C3 C7 1_555 1_555
C4 C7 1_555 1_555
C10 C11 1_555 1_555
C15 C16 1_555 1_555
C17 C18 1_555 1_555
Zn1A_2 O1A_2 1_555 1_555
Zn1_2 O1_2 1_555 1_555
C2A C9A 1_555 1_555
N1A C9A 1_555 1_555
C3A C7A 1_555 1_555
C4A C7A 1_555 1_555
C10A C11A 1_555 1_555
C15A C16A 1_555 1_555
C17A C18A 1_555 1_555

#END
