
#######################################################################
#
#                 Cambridge Crystallographic Data Centre
#                                CCDC 
#
#######################################################################
#
# If this CIF has been generated from an entry in the Cambridge 
# Structural Database, then it will include bibliographic, chemical, 
# crystal, experimental, refinement or atomic coordinate data resulting 
# from the CCDC's data processing and validation procedures.
#
#######################################################################

data_SENLAZ
_symmetry_cell_setting           orthorhombic
_symmetry_space_group_name_H-M   'I b a m'
_symmetry_Int_Tables_number      72
_space_group_name_Hall           '-I 2 2c'
loop_
_symmetry_equiv_pos_site_id
_symmetry_equiv_pos_as_xyz
1 x,y,z
2 1/2+x,1/2+y,1/2+z
3 -x,-y,z
4 x,-y,1/2-z
5 -x,y,1/2-z
6 1/2-x,1/2-y,1/2+z
7 1/2+x,1/2-y,-z
8 1/2-x,1/2+y,-z
9 -x,-y,-z
10 1/2-x,1/2-y,1/2-z
11 x,y,-z
12 -x,y,1/2+z
13 x,-y,1/2+z
14 1/2+x,1/2+y,1/2-z
15 1/2-x,1/2+y,z
16 1/2+x,1/2-y,z
_cell_length_a                   17.112(2)
_cell_length_b                   15.361(2)
_cell_length_c                   6.7380(10)
_cell_angle_alpha                90
_cell_angle_beta                 90
_cell_angle_gamma                90
_cell_volume                     1771.13
loop_
_atom_site_label
_atom_site_type_symbol
_atom_site_fract_x
_atom_site_fract_y
_atom_site_fract_z
Co1 Co 0.5000 0.5000 0.0000
N1 N 0.4179(2) 0.5000 0.2500
N2 N 0.3487(2) 0.5000 0.2500
N3 N 0.2809(2) 0.5000 0.2500
N4 N 0.5056(2) 0.3636(2) 0.0000
N5 N 0.5612(2) 0.2331(2) 0.0000
C1 C 0.4470(3) 0.3008(2) 0.0000
C2 C 0.3659(2) 0.3085(3) 0.0000
C3 C 0.3229(3) 0.2323(3) 0.0000
C4 C 0.3584(3) 0.1499(3) 0.0000
C5 C 0.4378(3) 0.1417(3) 0.0000
C6 C 0.4817(2) 0.2173(3) 0.0000
C7 C 0.5717(2) 0.3202(3) 0.0000
H1 H 0.597(2) 0.194(2) 0.0000
H2 H 0.3417 0.3627 0.0000
H3 H 0.2687 0.2357 0.0000
H4 H 0.3274 0.1002 0.0000
H5 H 0.4615 0.0872 0.0000
H6 H 0.6206 0.3467 0.0000
Co1K Co 0.5000 0.5000 0.5000
Co1K_2 Co 0.5000 0.5000 -0.5000
N1K N 0.5821(2) 0.5000 -0.2500
N1J N 0.4179(2) 0.5000 -0.2500
N1B N 0.5821(2) 0.5000 0.2500
N2K N 0.6513(2) 0.5000 -0.2500
N3K N 0.7191(2) 0.5000 -0.2500
N4H N 0.4944(2) 0.6364(2) 0.0000
N5H N 0.4388(2) 0.7669(2) 0.0000
C1H C 0.5530(3) 0.6992(2) 0.0000
C2H C 0.6341(2) 0.6915(3) 0.0000
C3H C 0.6771(3) 0.7677(3) 0.0000
C4H C 0.6416(3) 0.8501(3) 0.0000
C5H C 0.5622(3) 0.8583(3) 0.0000
C6H C 0.5183(2) 0.7827(3) 0.0000
C7H C 0.4283(2) 0.6798(3) 0.0000
H1H H 0.403(2) 0.806(2) 0.0000
H2H H 0.6583 0.6373 0.0000
H3H H 0.7313 0.7643 0.0000
H4H H 0.6726 0.8998 0.0000
H5H H 0.5385 0.9128 0.0000
H6H H 0.3794 0.6533 0.0000
O1 O 0.3363(3) 0.0929(3) 0.5000
H7 H 0.312(2) 0.080(3) 0.395(4)
H7J H 0.312(2) 0.080(3) 0.605(4)
loop_
_geom_bond_atom_site_label_1
_geom_bond_atom_site_label_2
_geom_bond_site_symmetry_1
_geom_bond_site_symmetry_2
Co1 N1 1_555 1_555
N1 N2 1_555 1_555
N2 N3 1_555 1_555
N4 Co1 1_555 1_555
N5 C6 1_555 1_555
C1 N4 1_555 1_555
C2 C1 1_555 1_555
C3 C2 1_555 1_555
C4 C3 1_555 1_555
C5 C4 1_555 1_555
C6 C1 1_555 1_555
C7 N4 1_555 1_555
H1 N5 1_555 1_555
H2 C2 1_555 1_555
H3 C3 1_555 1_555
H4 C4 1_555 1_555
H5 C5 1_555 1_555
H6 C7 1_555 1_555
O1 H7 1_555 1_555
Co1K N1 1_555 1_555
Co1K_2 N1K 1_555 1_555
N1K Co1 1_555 1_555
N1J Co1 1_555 1_555
N1B Co1 1_555 1_555
N2K N1K 1_555 1_555
N3K N2K 1_555 1_555
N4H Co1 1_555 1_555
N5H C6H 1_555 1_555
C1H N4H 1_555 1_555
C2H C1H 1_555 1_555
C3H C2H 1_555 1_555
C4H C3H 1_555 1_555
C5H C4H 1_555 1_555
C6H C1H 1_555 1_555
C7H N4H 1_555 1_555
H1H N5H 1_555 1_555
H2H C2H 1_555 1_555
H3H C3H 1_555 1_555
H4H C4H 1_555 1_555
H5H C5H 1_555 1_555
H6H C7H 1_555 1_555
H7J O1 1_555 1_555
N5 C7 1_555 1_555
C5 C6 1_555 1_555
Co1K N1B 1_555 1_555
Co1K_2 N1J 1_555 1_555
N5H C7H 1_555 1_555
C5H C6H 1_555 1_555

#END
