
#######################################################################
#
#                 Cambridge Crystallographic Data Centre
#                                CCDC 
#
#######################################################################
#
# If this CIF has been generated from an entry in the Cambridge 
# Structural Database, then it will include bibliographic, chemical, 
# crystal, experimental, refinement or atomic coordinate data resulting 
# from the CCDC's data processing and validation procedures.
#
#######################################################################

data_SENNOO
_symmetry_cell_setting           monoclinic
_symmetry_space_group_name_H-M   'P 21/n'
_symmetry_Int_Tables_number      14
_space_group_name_Hall           '-P 2yn'
loop_
_symmetry_equiv_pos_site_id
_symmetry_equiv_pos_as_xyz
1 x,y,z
2 1/2-x,1/2+y,1/2-z
3 -x,-y,-z
4 1/2+x,1/2-y,1/2+z
_cell_length_a                   15.618(6)
_cell_length_b                   10.026(3)
_cell_length_c                   15.987(6)
_cell_angle_alpha                90
_cell_angle_beta                 94.18(3)
_cell_angle_gamma                90
_cell_volume                     2496.68
loop_
_atom_site_label
_atom_site_type_symbol
_atom_site_fract_x
_atom_site_fract_y
_atom_site_fract_z
Sn1 Sn 0.29138(4) 0.1015(1) 0.22631(4)
O1 O 0.2316(4) 0.2871(6) 0.2957(4)
C1 C 0.1654(6) 0.3206(9) 0.3315(6)
O2 O 0.1449(4) 0.4412(6) 0.3423(4)
C2 C 0.1062(6) 0.2143(10) 0.3644(6)
C3 C 0.1320(6) 0.1704(9) 0.4524(6)
C4 C 0.1141(6) 0.0444(9) 0.4791(6)
C5 C 0.1334(6) 0.0031(11) 0.5606(7)
C6 C 0.1707(7) 0.0924(12) 0.6185(6)
C7 C 0.1883(7) 0.2217(11) 0.5927(7)
C8 C 0.1691(6) 0.2606(10) 0.5112(7)
C9 C 0.0125(7) 0.2566(12) 0.3545(9)
C10 C -0.0237(7) 0.3346(12) 0.4131(13)
C11 C -0.1110(11) 0.3722(16) 0.4059(18)
C12 C -0.1586(11) 0.3278(27) 0.3349(20)
C13 C -0.1257(11) 0.2575(32) 0.2764(13)
C14 C -0.0387(8) 0.2180(20) 0.2840(9)
C15 C 0.1678(7) 0.0774(11) 0.1604(7)
C16 C 0.1789(10) 0.0682(20) 0.0539(14)
C17 C 0.1032(16) 0.0333(21) 0.0124(17)
C18 C 0.1280(17) 0.0287(18) -0.0803(9)
C19 C 0.3204(6) 0.0165(10) 0.3488(6)
C20 C 0.3682(6) 0.1058(11) 0.4122(6)
C21 C 0.3780(7) 0.0476(11) 0.5001(7)
C22 C 0.4235(7) 0.1402(11) 0.5642(6)
C23 C 0.3762(7) 0.2451(10) 0.1775(6)
C24 C 0.4628(7) 0.2642(10) 0.2297(6)
C25 C 0.5196(6) 0.1421(9) 0.2330(7)
C26 C 0.6017(7) 0.1600(12) 0.2880(7)
H1 H 0.111 0.137 0.330
H2 H 0.088 -0.017 0.440
H3 H 0.121 -0.086 0.577
H4 H 0.184 0.067 0.675
H5 H 0.214 0.283 0.632
H6 H 0.181 0.350 0.494
H7 H 0.012 0.365 0.461
H8 H -0.133 0.423 0.451
H9 H -0.215 0.358 0.335
H10 H -0.164 0.237 0.230
H11 H -0.016 0.165 0.242
H12 H 0.142 -0.003 0.178
H13 H 0.132 0.150 0.173
H14 H 0.197 0.156 0.034
H15 H 0.223 0.007 0.042
H16 H 0.084 -0.050 0.027
H17 H 0.060 0.099 0.016
H18 H 0.163 -0.046 -0.089
H19 H 0.076 0.020 -0.119
H20 H 0.156 0.108 -0.095
H21 H 0.268 -0.009 0.370
H22 H 0.354 -0.061 0.342
H23 H 0.424 0.123 0.394
H24 H 0.338 0.188 0.414
H25 H 0.322 0.029 0.518
H26 H 0.410 -0.032 0.498
H27 H 0.433 0.097 0.617
H28 H 0.477 0.168 0.546
H29 H 0.389 0.218 0.572
H30 H 0.388 0.218 0.123
H31 H 0.347 0.329 0.175
H32 H 0.493 0.336 0.206
H33 H 0.451 0.287 0.285
H34 H 0.489 0.070 0.255
H35 H 0.534 0.122 0.178
H36 H 0.641 0.087 0.280
H37 H 0.630 0.241 0.275
H38 H 0.591 0.162 0.346
O2A O 0.3551(4) -0.0588(6) 0.1577(4)
Sn1A Sn 0.20862(4) 0.6015(1) 0.27369(4)
C1A C 0.3346(6) -0.1794(9) 0.1685(6)
O1A O 0.2684(4) 0.7871(6) 0.2043(4)
C15A C 0.3322(7) 0.5774(11) 0.3396(7)
C19A C 0.1796(6) 0.5165(10) 0.1512(6)
C23A C 0.1238(7) 0.7451(10) 0.3225(6)
O1A_2 O 0.2684(4) -0.2129(6) 0.2043(4)
C2A C 0.3938(6) -0.2857(10) 0.1356(6)
C16A C 0.3211(10) 0.5682(20) 0.4461(14)
H12A H 0.358 0.497 0.322
H13A H 0.368 0.650 0.327
C20A C 0.1318(6) 0.6058(11) 0.0878(6)
H21A H 0.232 0.491 0.130
H22A H 0.146 0.439 0.158
C24A C 0.0372(7) 0.7642(10) 0.2703(6)
H30A H 0.112 0.718 0.377
H31A H 0.153 0.829 0.325
Sn1A_2 Sn 0.20862(4) -0.3985(1) 0.27369(4)
C3A C 0.3680(6) -0.3296(9) 0.0476(6)
C9A C 0.4875(7) -0.2434(12) 0.1455(9)
H1A H 0.389 -0.363 0.170
C17A C 0.3968(16) 0.5333(21) 0.4876(17)
H14A H 0.303 0.656 0.466
H15A H 0.277 0.507 0.458
C21A C 0.1220(7) 0.5476(11) -0.0001(7)
H23A H 0.076 0.623 0.106
H24A H 0.162 0.688 0.086
C25A C -0.0196(6) 0.6421(9) 0.2670(7)
H32A H 0.007 0.836 0.294
H33A H 0.049 0.787 0.215
C4A C 0.3859(6) -0.4556(9) 0.0209(6)
C8A C 0.3309(6) -0.2394(10) -0.0112(7)
C10A C 0.5237(7) -0.1654(12) 0.0869(13)
C14A C 0.5387(8) -0.2820(20) 0.2160(9)
C18A C 0.3720(17) 0.5287(18) 0.5803(9)
H16A H 0.416 0.450 0.473
H17A H 0.440 0.599 0.484
C22A C 0.0765(7) 0.6402(11) -0.0642(6)
H25A H 0.178 0.529 -0.018
H26A H 0.090 0.468 0.002
C26A C -0.1017(7) 0.6600(12) 0.2120(7)
H34A H 0.011 0.570 0.245
H35A H -0.034 0.622 0.322
C5A C 0.3666(6) -0.4969(11) -0.0606(7)
H2A H 0.412 -0.517 0.060
C7A C 0.3117(7) -0.2783(11) -0.0927(7)
H6A H 0.319 -0.150 0.006
C11A C 0.6110(11) -0.1278(16) 0.0941(18)
H7A H 0.488 -0.135 0.039
C13A C 0.6257(11) -0.2425(32) 0.2236(13)
H11A H 0.516 -0.335 0.258
H18A H 0.337 0.454 0.589
H19A H 0.424 0.520 0.619
H20A H 0.344 0.608 0.595
H27A H 0.067 0.597 -0.117
H28A H 0.023 0.668 -0.046
H29A H 0.111 0.718 -0.072
H36A H -0.141 0.587 0.220
H37A H -0.130 0.741 0.225
H38A H -0.091 0.662 0.154
C6A C 0.3293(7) -0.4076(12) -0.1185(6)
H3A H 0.379 -0.586 -0.077
H5A H 0.286 -0.217 -0.132
C12A C 0.6586(11) -0.1722(27) 0.1651(20)
H8A H 0.633 -0.077 0.049
H10A H 0.664 -0.263 0.270
H4A H 0.316 -0.433 -0.175
H9A H 0.715 -0.142 0.165
loop_
_geom_bond_atom_site_label_1
_geom_bond_atom_site_label_2
_geom_bond_site_symmetry_1
_geom_bond_site_symmetry_2
Sn1 O1 1_555 1_555
O1 C1 1_555 1_555
C1 O2 1_555 1_555
O2 Sn1A 1_555 1_555
C2 C1 1_555 1_555
C3 C2 1_555 1_555
C4 C3 1_555 1_555
C5 C4 1_555 1_555
C6 C5 1_555 1_555
C7 C6 1_555 1_555
C8 C3 1_555 1_555
C9 C2 1_555 1_555
C10 C9 1_555 1_555
C11 C10 1_555 1_555
C12 C11 1_555 1_555
C13 C12 1_555 1_555
C14 C9 1_555 1_555
C15 Sn1 1_555 1_555
C16 C15 1_555 1_555
C17 C16 1_555 1_555
C18 C17 1_555 1_555
C19 Sn1 1_555 1_555
C20 C19 1_555 1_555
C21 C20 1_555 1_555
C22 C21 1_555 1_555
C23 Sn1 1_555 1_555
C24 C23 1_555 1_555
C25 C24 1_555 1_555
C26 C25 1_555 1_555
H1 C2 1_555 1_555
H2 C4 1_555 1_555
H3 C5 1_555 1_555
H4 C6 1_555 1_555
H5 C7 1_555 1_555
H6 C8 1_555 1_555
H7 C10 1_555 1_555
H8 C11 1_555 1_555
H9 C12 1_555 1_555
H10 C13 1_555 1_555
H11 C14 1_555 1_555
H12 C15 1_555 1_555
H13 C15 1_555 1_555
H14 C16 1_555 1_555
H15 C16 1_555 1_555
H16 C17 1_555 1_555
H17 C17 1_555 1_555
H18 C18 1_555 1_555
H19 C18 1_555 1_555
H20 C18 1_555 1_555
H21 C19 1_555 1_555
H22 C19 1_555 1_555
H23 C20 1_555 1_555
H24 C20 1_555 1_555
H25 C21 1_555 1_555
H26 C21 1_555 1_555
H27 C22 1_555 1_555
H28 C22 1_555 1_555
H29 C22 1_555 1_555
H30 C23 1_555 1_555
H31 C23 1_555 1_555
H32 C24 1_555 1_555
H33 C24 1_555 1_555
H34 C25 1_555 1_555
H35 C25 1_555 1_555
H36 C26 1_555 1_555
H37 C26 1_555 1_555
H38 C26 1_555 1_555
O2A Sn1 1_555 1_555
Sn1A O1A 1_555 1_555
C1A O2A 1_555 1_555
C15A Sn1A 1_555 1_555
C19A Sn1A 1_555 1_555
C23A Sn1A 1_555 1_555
O1A_2 C1A 1_555 1_555
C2A C1A 1_555 1_555
C16A C15A 1_555 1_555
H12A C15A 1_555 1_555
H13A C15A 1_555 1_555
C20A C19A 1_555 1_555
H21A C19A 1_555 1_555
H22A C19A 1_555 1_555
C24A C23A 1_555 1_555
H30A C23A 1_555 1_555
H31A C23A 1_555 1_555
Sn1A_2 O1A_2 1_555 1_555
C3A C2A 1_555 1_555
C9A C2A 1_555 1_555
H1A C2A 1_555 1_555
C17A C16A 1_555 1_555
H14A C16A 1_555 1_555
H15A C16A 1_555 1_555
C21A C20A 1_555 1_555
H23A C20A 1_555 1_555
H24A C20A 1_555 1_555
C25A C24A 1_555 1_555
H32A C24A 1_555 1_555
H33A C24A 1_555 1_555
C4A C3A 1_555 1_555
C8A C3A 1_555 1_555
C10A C9A 1_555 1_555
C14A C9A 1_555 1_555
C18A C17A 1_555 1_555
H16A C17A 1_555 1_555
H17A C17A 1_555 1_555
C22A C21A 1_555 1_555
H25A C21A 1_555 1_555
H26A C21A 1_555 1_555
C26A C25A 1_555 1_555
H34A C25A 1_555 1_555
H35A C25A 1_555 1_555
C5A C4A 1_555 1_555
H2A C4A 1_555 1_555
C7A C8A 1_555 1_555
H6A C8A 1_555 1_555
C11A C10A 1_555 1_555
H7A C10A 1_555 1_555
C13A C14A 1_555 1_555
H11A C14A 1_555 1_555
H18A C18A 1_555 1_555
H19A C18A 1_555 1_555
H20A C18A 1_555 1_555
H27A C22A 1_555 1_555
H28A C22A 1_555 1_555
H29A C22A 1_555 1_555
H36A C26A 1_555 1_555
H37A C26A 1_555 1_555
H38A C26A 1_555 1_555
C6A C5A 1_555 1_555
H3A C5A 1_555 1_555
H5A C7A 1_555 1_555
C12A C11A 1_555 1_555
H8A C11A 1_555 1_555
H10A C13A 1_555 1_555
H4A C6A 1_555 1_555
H9A C12A 1_555 1_555
C7 C8 1_555 1_555
C13 C14 1_555 1_555
C7A C6A 1_555 1_555
C13A C12A 1_555 1_555

#END
