
#######################################################################
#
#                 Cambridge Crystallographic Data Centre
#                                CCDC 
#
#######################################################################
#
# If this CIF has been generated from an entry in the Cambridge 
# Structural Database, then it will include bibliographic, chemical, 
# crystal, experimental, refinement or atomic coordinate data resulting 
# from the CCDC's data processing and validation procedures.
#
#######################################################################

data_SENTIQ
_symmetry_cell_setting           orthorhombic
_symmetry_space_group_name_H-M   'P 21 21 21'
_symmetry_Int_Tables_number      19
_space_group_name_Hall           'P 2ac 2ab'
loop_
_symmetry_equiv_pos_site_id
_symmetry_equiv_pos_as_xyz
1 x,y,z
2 1/2-x,-y,1/2+z
3 1/2+x,1/2-y,-z
4 -x,1/2+y,1/2-z
_cell_length_a                   5.7404(10)
_cell_length_b                   7.7327(14)
_cell_length_c                   17.870(3)
_cell_angle_alpha                90
_cell_angle_beta                 90
_cell_angle_gamma                90
_cell_volume                     793.228
loop_
_atom_site_label
_atom_site_type_symbol
_atom_site_fract_x
_atom_site_fract_y
_atom_site_fract_z
O1 O 0.4951(11) 1.0045(6) 0.4877(3)
O2 O 0.6130(12) 0.4698(7) 0.6330(3)
C1 C 0.6131(17) 0.9127(9) 0.5324(4)
Cu1 Cu 0.87852(19) 0.65508(10) 0.59097(5)
S1 S 1.1263(5) 1.1145(2) 0.65627(12)
O3 O 0.6405(12) 0.7530(6) 0.5239(3)
O4 O 1.1584(10) 0.6400(6) 0.6525(3)
N1 N 0.8049(11) 0.8655(7) 0.6531(3)
H1 H 0.6849 0.8417 0.6847
O5 O 1.3746(11) 0.7908(6) 0.7331(3)
C2 C 1.1977(15) 0.7719(9) 0.6949(5)
C3 C 0.9517(14) 1.0939(9) 0.5729(4)
H2 H 0.9152 1.2065 0.5521
H3 H 1.0319 1.0258 0.5353
C4 C 1.0124(14) 0.9132(9) 0.6964(4)
H4 H 0.9665 0.9344 0.7485
C5 C 0.7335(14) 1.0030(9) 0.5992(4)
H5 H 0.6270 1.0852 0.6231
H6 H 0.486(6) 0.522(6) 0.642(3)
H7 H 0.662(8) 0.418(7) 0.671(2)
O1B O 0.9951(11) 0.4955(6) 0.5123(3)
Cu1B Cu 0.37852(19) 0.84492(10) 0.40903(5)
O3B O 1.1405(12) 0.7470(6) 0.4761(3)
loop_
_geom_bond_atom_site_label_1
_geom_bond_atom_site_label_2
_geom_bond_site_symmetry_1
_geom_bond_site_symmetry_2
O1 C1 1_555 1_555
O2 Cu1 1_555 1_555
C1 O3 1_555 1_555
Cu1 O3 1_555 1_555
S1 C3 1_555 1_555
O3 Cu1B 1_555 1_555
O4 Cu1 1_555 1_555
N1 Cu1 1_555 1_555
H1 N1 1_555 1_555
O5 C2 1_555 1_555
C2 O4 1_555 1_555
C3 H2 1_555 1_555
H3 C3 1_555 1_555
C4 S1 1_555 1_555
H4 C4 1_555 1_555
C5 C1 1_555 1_555
H5 C5 1_555 1_555
H6 O2 1_555 1_555
H7 O2 1_555 1_555
O1B Cu1 1_555 1_555
Cu1B O1 1_555 1_555
O3B Cu1 1_555 1_555
N1 C4 1_555 1_555
N1 C5 1_555 1_555
C2 C4 1_555 1_555
C3 C5 1_555 1_555

#END
