
#######################################################################
#
#                 Cambridge Crystallographic Data Centre
#                                CCDC 
#
#######################################################################
#
# If this CIF has been generated from an entry in the Cambridge 
# Structural Database, then it will include bibliographic, chemical, 
# crystal, experimental, refinement or atomic coordinate data resulting 
# from the CCDC's data processing and validation procedures.
#
#######################################################################

data_SENTOW
_symmetry_cell_setting           monoclinic
_symmetry_space_group_name_H-M   'P 21'
_symmetry_Int_Tables_number      4
_space_group_name_Hall           'P 2yb'
loop_
_symmetry_equiv_pos_site_id
_symmetry_equiv_pos_as_xyz
1 x,y,z
2 -x,1/2+y,-z
_cell_length_a                   5.1721(10)
_cell_length_b                   9.773(2)
_cell_length_c                   9.867(2)
_cell_angle_alpha                90
_cell_angle_beta                 102.08(2)
_cell_angle_gamma                90
_cell_volume                     487.703
loop_
_atom_site_label
_atom_site_type_symbol
_atom_site_fract_x
_atom_site_fract_y
_atom_site_fract_z
O1 O 0.3362(18) 1.1617(11) 0.0328(12)
Cu1 Cu 0.4812(3) 0.74690(18) 0.10079(17)
O2 O 0.7987(16) 0.7378(17) 0.2473(10)
N1 N 0.330(3) 0.8530(13) 0.2414(13)
H1 H 0.1827 0.8080 0.2541
O3 O 0.1462(19) 0.7676(15) -0.0411(10)
O4 O 0.571(2) 0.9684(11) 0.0526(12)
C1 C 0.247(3) 0.9921(16) 0.1890(17)
H2 H 0.0600 0.9880 0.1428
O5 O 0.973(2) 0.7994(13) 0.4610(12)
C2 C 0.405(3) 1.0447(17) 0.0831(16)
C3 C 0.272(3) 1.0870(17) 0.3134(17)
H3 H 0.1246 1.0754 0.3590
H4 H 0.2809 1.1820 0.2862
S1 S 0.5828(10) 1.0320(5) 0.4254(5)
O6 O 0.322(3) 0.5359(16) 0.1996(15)
C4 C 0.516(3) 0.8548(17) 0.3729(18)
H5 H 0.4432 0.8057 0.4429
C5 C 0.789(3) 0.7905(16) 0.3603(15)
H6 H 0.142(10) 0.789(16) -0.125(5)
H7 H -0.001(10) 0.788(17) -0.021(5)
H8 H 0.34(3) 0.527(14) 0.287(2)
H9 H 0.18(2) 0.500(16) 0.161(9)
O1A O 0.6638(18) 0.6617(11) -0.0328(12)
Cu1A Cu 0.5188(3) 1.24690(18) -0.10079(17)
O7 O 0.140(3) 0.9038(15) 0.7227(13)
H10 H 0.09(3) 0.873(13) 0.641(6)
H11 H 0.19(4) 0.986(6) 0.718(14)
loop_
_geom_bond_atom_site_label_1
_geom_bond_atom_site_label_2
_geom_bond_site_symmetry_1
_geom_bond_site_symmetry_2
O1 C2 1_555 1_555
Cu1 O2 1_555 1_555
O2 C5 1_555 1_555
N1 Cu1 1_555 1_555
H1 N1 1_555 1_555
O3 Cu1 1_555 1_555
O4 Cu1 1_555 1_555
C1 N1 1_555 1_555
H2 C1 1_555 1_555
O5 C5 1_555 1_555
C2 O4 1_555 1_555
C3 C1 1_555 1_555
H3 C3 1_555 1_555
H4 C3 1_555 1_555
S1 C3 1_555 1_555
O6 Cu1 1_555 1_555
C4 N1 1_555 1_555
H5 C4 1_555 1_555
C5 C4 1_555 1_555
H6 O3 1_555 1_555
H7 O3 1_555 1_555
H8 O6 1_555 1_555
H9 O6 1_555 1_555
O7 H10 1_555 1_555
H11 O7 1_555 1_555
O1A Cu1 1_555 1_555
Cu1A O1 1_555 1_555
C1 C2 1_555 1_555
S1 C4 1_555 1_555

#END
