
#######################################################################
#
#                 Cambridge Crystallographic Data Centre
#                                CCDC 
#
#######################################################################
#
# If this CIF has been generated from an entry in the Cambridge 
# Structural Database, then it will include bibliographic, chemical, 
# crystal, experimental, refinement or atomic coordinate data resulting 
# from the CCDC's data processing and validation procedures.
#
#######################################################################

data_SENWAL
_symmetry_cell_setting           orthorhombic
_symmetry_space_group_name_H-M   'P 21 21 21'
_symmetry_Int_Tables_number      19
_space_group_name_Hall           'P 2ac 2ab'
loop_
_symmetry_equiv_pos_site_id
_symmetry_equiv_pos_as_xyz
1 x,y,z
2 1/2-x,-y,1/2+z
3 -x,1/2+y,1/2-z
4 1/2+x,1/2-y,-z
_cell_length_a                   13.385(3)
_cell_length_b                   14.712(3)
_cell_length_c                   15.573(3)
_cell_angle_alpha                90
_cell_angle_beta                 90
_cell_angle_gamma                90
_cell_volume                     3066.64
loop_
_atom_site_label
_atom_site_type_symbol
_atom_site_fract_x
_atom_site_fract_y
_atom_site_fract_z
Zn1 Zn -0.21248(9) 0.29730(8) 0.20923(7)
Zn2 Zn -0.04996(9) 0.44806(8) 0.09328(7)
O1 O -0.0932(6) 0.2241(5) 0.1974(5)
O2 O -0.0343(6) 0.3073(5) 0.0871(5)
O3 O 0.2233(6) 0.1842(5) -0.0977(5)
O4 O 0.3006(5) 0.0542(6) -0.0647(5)
O5 O 0.2192(6) -0.0976(5) 0.2156(5)
O6 O 0.0739(5) -0.0593(6) 0.2750(4)
C1 C 0.0439(8) 0.1688(7) 0.1199(6)
C2 C 0.1048(8) 0.1744(7) 0.0466(6)
H1 H 0.0966 0.2240 0.0082
C3 C 0.1755(8) 0.1101(8) 0.0294(7)
C4 C 0.1917(8) 0.0387(7) 0.0870(6)
H2 H 0.2433 -0.0043 0.0766
C5 C 0.1315(8) 0.0309(7) 0.1601(6)
C6 C 0.0587(9) 0.0962(8) 0.1756(7)
H3 H 0.0182 0.0911 0.2255
C7 C -0.0331(8) 0.2392(7) 0.1368(6)
C8 C 0.2388(8) 0.1143(8) -0.0495(7)
C9 C 0.1437(7) -0.0466(8) 0.2208(7)
N1 N -0.3177(8) 0.1924(8) 0.3264(7)
O7 O -0.3257(7) 0.2173(6) 0.2498(5)
O8 O -0.2422(8) 0.2149(8) 0.3675(6)
O9 O -0.3851(10) 0.1481(11) 0.3611(9)
O10 O -0.0712(6) 0.5893(5) 0.0920(5)
C10 C 0.0064(11) 0.6601(9) 0.0833(12)
H4 H 0.0280 0.6637 0.0226
H5 H 0.0652 0.6432 0.1184
C11 C -0.0309(14) 0.7504(12) 0.1114(12)
H6 H -0.0587 0.7830 0.0619
H7 H 0.0244 0.7857 0.1358
H8 H -0.0830 0.7423 0.1549
O11 O -0.0124(7) 0.4605(6) -0.0360(5)
C12 C 0.0272(13) 0.3919(11) -0.0943(10)
H9 H 0.0797 0.3561 -0.0650
H10 H 0.0574 0.4217 -0.1451
C13 C -0.0566(19) 0.3303(13) -0.1221(12)
H11 H -0.0787 0.2935 -0.0732
H12 H -0.0331 0.2902 -0.1681
H13 H -0.1126 0.3670 -0.1431
O12 O 0.1011(6) 0.4629(8) 0.1208(6)
C14 C 0.1527(14) 0.4239(15) 0.1941(12)
H14 H 0.1950 0.3732 0.1733
H15 H 0.1022 0.3976 0.2333
C15 C 0.215(3) 0.486(3) 0.243(2)
H16 H 0.2647 0.5135 0.2051
H17 H 0.2496 0.4517 0.2886
H18 H 0.1736 0.5330 0.2690
Zn1B Zn 0.21248(9) -0.20270(8) 0.29077(7)
Zn1C Zn 0.28752(9) 0.20270(8) -0.20923(7)
Zn2B Zn 0.04996(9) -0.05194(8) 0.40672(7)
Zn2C Zn 0.45004(9) 0.05194(8) -0.09328(7)
O3C O -0.2767(6) 0.3158(5) 0.0977(5)
O4C O -0.1994(5) 0.4458(6) 0.0647(5)
O5B O -0.2192(6) 0.4024(5) 0.2844(5)
O6B O -0.0739(5) 0.4407(6) 0.2250(4)
O13 O 0.2386(10) 0.5476(11) 1.0177(8)
H19 H 0.2538 0.5643 1.0676
C16 C 0.318(3) 0.513(3) 0.980(3)
H20 H 0.3777 0.5205 1.0165
H21 H 0.3302 0.5445 0.9243
C17 C 0.296(5) 0.419(5) 0.966(4)
H22 H 0.3386 0.3824 1.0036
H23 H 0.3101 0.4038 0.9059
H24 H 0.2260 0.4077 0.9788
O14 O 0.7619(8) 0.6623(8) 0.0178(7)
H25 H 0.7523 0.6689 -0.0352
C18 C 0.6724(14) 0.6743(18) 0.0614(14)
H26 H 0.6497 0.7377 0.0527
H27 H 0.6216 0.6337 0.0358
C19 C 0.6773(19) 0.658(3) 0.1475(15)
H28 H 0.6346 0.6055 0.1616
H29 H 0.6542 0.7112 0.1792
H30 H 0.7464 0.6439 0.1637
O15 O 0.9155(7) 0.5860(8) 0.8583(6)
H31 H 0.8701 0.5642 0.8273
C20 C 0.9934(12) 0.6199(12) 0.8055(11)
H32 H 1.0583 0.6097 0.8345
H33 H 0.9846 0.6862 0.7981
C21 C 0.9958(16) 0.5772(18) 0.7217(13)
H34 H 1.0076 0.5118 0.7285
H35 H 1.0497 0.6039 0.6874
H36 H 0.9318 0.5869 0.6927
loop_
_geom_bond_atom_site_label_1
_geom_bond_atom_site_label_2
_geom_bond_site_symmetry_1
_geom_bond_site_symmetry_2
Zn1 O1 1_555 1_555
Zn2 O2 1_555 1_555
O1 C7 1_555 1_555
O2 C7 1_555 1_555
O3 C8 1_555 1_555
O4 C8 1_555 1_555
O5 C9 1_555 1_555
O6 C9 1_555 1_555
C1 C2 1_555 1_555
C2 H1 1_555 1_555
C3 C2 1_555 1_555
C4 C3 1_555 1_555
H2 C4 1_555 1_555
C5 C4 1_555 1_555
C6 C1 1_555 1_555
H3 C6 1_555 1_555
C7 C1 1_555 1_555
C8 C3 1_555 1_555
C9 C5 1_555 1_555
N1 O7 1_555 1_555
O7 Zn1 1_555 1_555
O8 N1 1_555 1_555
O9 N1 1_555 1_555
O10 Zn2 1_555 1_555
C10 O10 1_555 1_555
H4 C10 1_555 1_555
H5 C10 1_555 1_555
C11 C10 1_555 1_555
H6 C11 1_555 1_555
H7 C11 1_555 1_555
H8 C11 1_555 1_555
O11 Zn2 1_555 1_555
C12 O11 1_555 1_555
H9 C12 1_555 1_555
H10 C12 1_555 1_555
C13 C12 1_555 1_555
H11 C13 1_555 1_555
H12 C13 1_555 1_555
H13 C13 1_555 1_555
O12 Zn2 1_555 1_555
C14 O12 1_555 1_555
H14 C14 1_555 1_555
H15 C14 1_555 1_555
C15 C14 1_555 1_555
H16 C15 1_555 1_555
H17 C15 1_555 1_555
H18 C15 1_555 1_555
O13 H19 1_555 1_555
C16 O13 1_555 1_555
H20 C16 1_555 1_555
H21 C16 1_555 1_555
C17 C16 1_555 1_555
H22 C17 1_555 1_555
H23 C17 1_555 1_555
H24 C17 1_555 1_555
O14 H25 1_555 1_555
C18 O14 1_555 1_555
H26 C18 1_555 1_555
H27 C18 1_555 1_555
C19 C18 1_555 1_555
H28 C19 1_555 1_555
H29 C19 1_555 1_555
H30 C19 1_555 1_555
O15 H31 1_555 1_555
C20 O15 1_555 1_555
H32 C20 1_555 1_555
H33 C20 1_555 1_555
C21 C20 1_555 1_555
H34 C21 1_555 1_555
H35 C21 1_555 1_555
H36 C21 1_555 1_555
Zn1B O5 1_555 1_555
Zn1C O3 1_555 1_555
Zn2B O6 1_555 1_555
Zn2C O4 1_555 1_555
O3C Zn1 1_555 1_555
O4C Zn2 1_555 1_555
O5B Zn1 1_555 1_555
O6B Zn2 1_555 1_555
C5 C6 1_555 1_555

#END
