
#######################################################################
#
#                 Cambridge Crystallographic Data Centre
#                                CCDC 
#
#######################################################################
#
# If this CIF has been generated from an entry in the Cambridge 
# Structural Database, then it will include bibliographic, chemical, 
# crystal, experimental, refinement or atomic coordinate data resulting 
# from the CCDC's data processing and validation procedures.
#
#######################################################################

data_SEPCEW
_symmetry_cell_setting           triclinic
_symmetry_space_group_name_H-M   'P 1'
_symmetry_Int_Tables_number      1
_space_group_name_Hall           'P 1'
loop_
_symmetry_equiv_pos_site_id
_symmetry_equiv_pos_as_xyz
1 x,y,z
_cell_length_a                   7.7670(10)
_cell_length_b                   10.1866(13)
_cell_length_c                   10.6547(13)
_cell_angle_alpha                95.967(15)
_cell_angle_beta                 100.439(14)
_cell_angle_gamma                111.198(14)
_cell_volume                     759.626
loop_
_atom_site_label
_atom_site_type_symbol
_atom_site_fract_x
_atom_site_fract_y
_atom_site_fract_z
Hg1 Hg 0.9294(1) -0.1249(1) 1.1454(1)
Hg2 Hg 0.5845(1) -0.4987(1) 0.9326(1)
Cl1 Cl 1.0197(4) 0.0390(3) 1.0016(2)
Cl2 Cl 1.0006(4) -0.1346(3) 1.3719(2)
Cl3 Cl 0.5623(3) -0.2582(3) 1.0520(2)
Cl4 Cl 0.9578(3) -0.3551(2) 1.0230(2)
Cl5 Cl 0.4966(4) -0.6419(3) 1.0912(2)
Cl6 Cl 0.5306(4) -0.4895(3) 0.7071(2)
Hg3 Hg 1.2608(1) 0.1867(1) 0.5430(1)
Cu1 Cu 0.7316(2) 0.1965(1) 0.0482(1)
Cl7 Cl 1.1168(4) 0.1785(3) 0.7141(2)
Cl8 Cl 1.4168(3) 0.1979(3) 0.3783(2)
O1 O 0.7617(9) 0.1467(7) 0.2185(6)
O2 O 0.9494(9) 0.2183(7) 0.4157(5)
O3 O 1.7090(9) 0.2448(7) 0.8745(6)
O4 O 1.5756(9) 0.1440(7) 0.6689(5)
N1 N 0.9851(11) 0.3526(9) 0.1177(7)
N2 N 1.6686(10) 0.9757(8) 0.4815(7)
N3 N 1.4937(10) 0.0275(8) 0.9672(6)
N4 N 0.8381(10) -0.6126(8) 0.5986(6)
C1 C 0.9155(11) 0.2291(9) 0.3004(8)
C2 C 1.0652(10) 0.3397(8) 0.2514(6)
C3 C 1.1536(11) 0.4852(9) 0.3467(8)
C4 C 1.3023(11) 0.6034(10) 0.3045(7)
C5 C 1.4077(12) 0.7333(10) 0.4154(8)
C6 C 1.5367(11) 0.8598(9) 0.3700(7)
C7 C 1.5988(11) 0.1379(9) 0.7873(7)
C8 C 1.5004(10) -0.0050(8) 0.8287(7)
C9 C 1.3080(11) -0.1028(9) 0.7402(7)
C10 C 1.2397(12) -0.2528(9) 0.7698(8)
C11 C 1.0668(12) -0.3592(10) 0.6690(8)
C12 C 0.9935(13) -0.5065(10) 0.7039(9)
Cu1_2 Cu 1.7316(2) 0.1965(1) 1.0482(1)
O3_2 O 0.7090(9) 0.2448(7) -0.1255(6)
N3_2 N 0.4937(10) 0.0275(8) -0.0328(6)
O5 O 0.7783(12) -0.1492(9) 0.7018(8)
O6 O -0.2709(13) -0.4656(10) 0.3972(9)
loop_
_geom_bond_atom_site_label_1
_geom_bond_atom_site_label_2
_geom_bond_site_symmetry_1
_geom_bond_site_symmetry_2
Hg1 Cl1 1_555 1_555
Hg2 Cl3 1_555 1_555
Hg3 Cl7 1_555 1_555
Cu1 O1 1_555 1_555
Cl2 Hg1 1_555 1_555
Cl3 Hg1 1_555 1_555
Cl4 Hg1 1_555 1_555
Cl5 Hg2 1_555 1_555
Cl6 Hg2 1_555 1_555
Cl8 Hg3 1_555 1_555
O1 C1 1_555 1_555
O2 Hg3 1_555 1_555
O3 C7 1_555 1_555
O4 Hg3 1_555 1_555
N1 Cu1 1_555 1_555
N2 C6 1_555 1_555
N3 C8 1_555 1_555
N4 C12 1_555 1_555
C1 O2 1_555 1_555
C2 N1 1_555 1_555
C3 C2 1_555 1_555
C4 C3 1_555 1_555
C5 C4 1_555 1_555
C6 C5 1_555 1_555
C7 O4 1_555 1_555
C8 C7 1_555 1_555
C9 C8 1_555 1_555
C10 C9 1_555 1_555
C11 C10 1_555 1_555
C12 C11 1_555 1_555
Cu1_2 O3 1_555 1_555
O3_2 Cu1 1_555 1_555
N3_2 Cu1 1_555 1_555
Hg2 Cl4 1_555 1_555
N3 Cu1_2 1_555 1_555
C1 C2 1_555 1_555

#END
