
#######################################################################
#
#                 Cambridge Crystallographic Data Centre
#                                CCDC 
#
#######################################################################
#
# If this CIF has been generated from an entry in the Cambridge 
# Structural Database, then it will include bibliographic, chemical, 
# crystal, experimental, refinement or atomic coordinate data resulting 
# from the CCDC's data processing and validation procedures.
#
#######################################################################

data_SEPMUW
_symmetry_cell_setting           triclinic
_symmetry_space_group_name_H-M   'P -1'
_symmetry_Int_Tables_number      2
_space_group_name_Hall           '-P 1'
loop_
_symmetry_equiv_pos_site_id
_symmetry_equiv_pos_as_xyz
1 x,y,z
2 -x,-y,-z
_cell_length_a                   9.823(2)
_cell_length_b                   10.348(2)
_cell_length_c                   11.015(2)
_cell_angle_alpha                74.27(3)
_cell_angle_beta                 67.58(3)
_cell_angle_gamma                76.32(3)
_cell_volume                     985.054
loop_
_atom_site_label
_atom_site_type_symbol
_atom_site_fract_x
_atom_site_fract_y
_atom_site_fract_z
Cu1 Cu 0.0000 0.0000 0.0000
Cu2 Cu 0.22103(3) 0.19639(3) -0.03639(3)
O1 O 0.0430(2) 0.1826(2) -0.06622(18)
O2 O 0.1903(2) 0.0186(2) 0.14079(18)
O3 O 0.3091(3) 0.2774(2) -0.3198(2)
O4 O 0.3547(2) 0.0954(2) -0.17303(19)
O5 O -0.0501(2) 0.0163(2) 0.18560(18)
N1 N 0.1001(2) 0.3253(2) 0.0902(2)
N2 N 0.3881(2) 0.2419(2) 0.0029(2)
N3 N 0.1596(4) 0.5947(3) 0.3550(3)
N4 N 0.4670(3) 0.5000(3) 0.2679(3)
C1 C 0.0606(3) 0.0143(3) 0.2193(2)
C2 C 0.0280(3) 0.0074(3) 0.3651(2)
C3 C -0.1122(3) -0.0076(4) 0.4570(3)
C4 C 0.1407(3) 0.0148(4) 0.4077(3)
C5 C 0.3614(3) 0.1582(3) -0.2914(3)
C6 C 0.4359(3) 0.0759(2) -0.3995(2)
C7 C 0.4774(4) -0.0622(3) -0.3681(3)
C8 C 0.4597(4) 0.1386(3) -0.5324(3)
C9 C 0.1814(3) 0.3726(3) 0.1375(3)
C10 C -0.0477(3) 0.3620(3) 0.1322(3)
H1 H -0.1051 0.3286 0.1007
C11 C -0.1178(3) 0.4493(3) 0.2224(3)
H2 H -0.2208 0.4731 0.2506
C12 C -0.0354(3) 0.4997(3) 0.2688(3)
H3 H -0.0814 0.5594 0.3274
C13 C 0.1201(3) 0.4605(3) 0.2275(3)
C14 C 0.2182(3) 0.5067(3) 0.2726(3)
C15 C 0.2532(5) 0.6319(4) 0.3938(4)
H4 H 0.2159 0.6918 0.4525
C16 C 0.4067(5) 0.5852(4) 0.3504(4)
H5 H 0.4675 0.6154 0.3808
C17 C 0.3742(3) 0.4596(3) 0.2273(3)
C18 C 0.4351(3) 0.3699(3) 0.1331(3)
C19 C 0.5884(3) 0.3223(3) 0.0806(3)
H6 H 0.6568 0.3500 0.1042
C20 C 0.6355(3) 0.2343(3) -0.0061(3)
H7 H 0.7362 0.2009 -0.0405
C21 C 0.5334(3) 0.1952(3) -0.0423(3)
H8 H 0.5671 0.1345 -0.0999
C22 C 0.3409(3) 0.3269(2) 0.0900(3)
Cu1_2 Cu 0.0000 0.0000 1.0000
Cu2A Cu -0.22103(3) -0.19639(3) 0.03639(3)
Cu2A_2 Cu -0.22103(3) -0.19639(3) 1.03639(3)
Cu2A_3 Cu 0.77897(3) -0.19639(3) -0.96361(3)
O1A O -0.0430(2) -0.1826(2) 0.06622(18)
O2A O -0.1903(2) -0.0186(2) 0.85921(18)
O2A_2 O -0.1903(2) -0.0186(2) -0.14079(18)
O3A O 0.6909(3) -0.2774(2) -0.6802(2)
O4A O 0.6453(2) -0.0954(2) -0.82697(19)
O4A_2 O -0.3547(2) -0.0954(2) 0.17303(19)
O5A O 0.0501(2) -0.0163(2) 0.81440(18)
O5A_2 O 0.0501(2) -0.0163(2) -0.18560(18)
N1A N -0.1001(2) -0.3253(2) -0.0902(2)
N2A N -0.3881(2) -0.2419(2) -0.0029(2)
N3A N -0.1596(4) -0.5947(3) -0.3550(3)
N4A N -0.4670(3) -0.5000(3) -0.2679(3)
C1A C -0.0606(3) -0.0143(3) 0.7807(2)
C2A C -0.0280(3) -0.0074(3) 0.6349(2)
C3A C 0.1122(3) 0.0076(4) 0.5430(3)
C4A C -0.1407(3) -0.0148(4) 0.5923(3)
C5A C 0.6386(3) -0.1582(3) -0.7086(3)
C6A C 0.5641(3) -0.0759(2) -0.6005(2)
C7A C 0.5226(4) 0.0622(3) -0.6319(3)
C8A C 0.5403(4) -0.1386(3) -0.4676(3)
C9A C -0.1814(3) -0.3726(3) -0.1375(3)
C10A C 0.0477(3) -0.3620(3) -0.1322(3)
H1A H 0.1051 -0.3286 -0.1007
C11A C 0.1178(3) -0.4493(3) -0.2224(3)
H2A H 0.2208 -0.4731 -0.2506
C12A C 0.0354(3) -0.4997(3) -0.2688(3)
H3A H 0.0814 -0.5594 -0.3274
C13A C -0.1201(3) -0.4605(3) -0.2275(3)
C14A C -0.2182(3) -0.5067(3) -0.2726(3)
C15A C -0.2532(5) -0.6319(4) -0.3938(4)
H4A H -0.2159 -0.6918 -0.4525
C16A C -0.4067(5) -0.5852(4) -0.3504(4)
H5A H -0.4675 -0.6154 -0.3808
C17A C -0.3742(3) -0.4596(3) -0.2273(3)
C18A C -0.4351(3) -0.3699(3) -0.1331(3)
C19A C -0.5884(3) -0.3223(3) -0.0806(3)
H6A H -0.6568 -0.3500 -0.1042
C20A C -0.6355(3) -0.2343(3) 0.0061(3)
H7A H -0.7362 -0.2009 0.0405
C21A C -0.5334(3) -0.1952(3) 0.0423(3)
H8A H -0.5671 -0.1345 0.0999
C22A C -0.3409(3) -0.3269(2) -0.0900(3)
loop_
_geom_bond_atom_site_label_1
_geom_bond_atom_site_label_2
_geom_bond_site_symmetry_1
_geom_bond_site_symmetry_2
Cu1 O1 1_555 1_555
Cu2 O1 1_555 1_555
O2 Cu2 1_555 1_555
O3 C5 1_555 1_555
O4 Cu2 1_555 1_555
O5 Cu1 1_555 1_555
N1 Cu2 1_555 1_555
N2 Cu2 1_555 1_555
N3 C14 1_555 1_555
N4 C16 1_555 1_555
C1 O2 1_555 1_555
C2 C1 1_555 1_555
C3 C2 1_555 1_555
C4 C2 1_555 1_555
C5 O4 1_555 1_555
C6 C5 1_555 1_555
C7 C6 1_555 1_555
C8 C6 1_555 1_555
C9 N1 1_555 1_555
C10 N1 1_555 1_555
H1 C10 1_555 1_555
C11 C10 1_555 1_555
H2 C11 1_555 1_555
C12 C11 1_555 1_555
H3 C12 1_555 1_555
C13 C9 1_555 1_555
C14 C13 1_555 1_555
C15 N3 1_555 1_555
H4 C15 1_555 1_555
C16 C15 1_555 1_555
H5 C16 1_555 1_555
C17 N4 1_555 1_555
C18 C17 1_555 1_555
C19 C18 1_555 1_555
H6 C19 1_555 1_555
C20 C19 1_555 1_555
H7 C20 1_555 1_555
C21 N2 1_555 1_555
H8 C21 1_555 1_555
C22 N2 1_555 1_555
Cu1_2 O5A 1_555 1_555
Cu2A O1A 1_555 1_555
Cu2A_2 O2A 1_555 1_555
Cu2A_3 O4A 1_555 1_555
O1A Cu1 1_555 1_555
O2A C1A 1_555 1_555
O2A_2 Cu2A 1_555 1_555
O3A C5A 1_555 1_555
O4A C5A 1_555 1_555
O4A_2 Cu2A 1_555 1_555
O5A C1A 1_555 1_555
O5A_2 Cu1 1_555 1_555
N1A Cu2A 1_555 1_555
N2A Cu2A 1_555 1_555
N3A C14A 1_555 1_555
N4A C16A 1_555 1_555
C1A C2A 1_555 1_555
C2A C3A 1_555 1_555
C3A C4 1_555 1_555
C4A C3 1_555 1_555
C5A C6A 1_555 1_555
C6A C7A 1_555 1_555
C7A C8 1_555 1_555
C8A C7 1_555 1_555
C9A N1A 1_555 1_555
C10A N1A 1_555 1_555
H1A C10A 1_555 1_555
C11A C10A 1_555 1_555
H2A C11A 1_555 1_555
C12A C11A 1_555 1_555
H3A C12A 1_555 1_555
C13A C9A 1_555 1_555
C14A C13A 1_555 1_555
C15A N3A 1_555 1_555
H4A C15A 1_555 1_555
C16A C15A 1_555 1_555
H5A C16A 1_555 1_555
C17A N4A 1_555 1_555
C18A C17A 1_555 1_555
C19A C18A 1_555 1_555
H6A C19A 1_555 1_555
C20A C19A 1_555 1_555
H7A C20A 1_555 1_555
C21A N2A 1_555 1_555
H8A C21A 1_555 1_555
C22A N2A 1_555 1_555
O5 C1 1_555 1_555
C9 C22 1_555 1_555
C12 C13 1_555 1_555
C14 C17 1_555 1_555
C18 C22 1_555 1_555
C20 C21 1_555 1_555
C2A C4A 1_555 1_555
C6A C8A 1_555 1_555
C9A C22A 1_555 1_555
C12A C13A 1_555 1_555
C14A C17A 1_555 1_555
C18A C22A 1_555 1_555
C20A C21A 1_555 1_555

#END
