
#######################################################################
#
#                 Cambridge Crystallographic Data Centre
#                                CCDC 
#
#######################################################################
#
# If this CIF has been generated from an entry in the Cambridge 
# Structural Database, then it will include bibliographic, chemical, 
# crystal, experimental, refinement or atomic coordinate data resulting 
# from the CCDC's data processing and validation procedures.
#
#######################################################################

data_SEPNEH
_symmetry_cell_setting           orthorhombic
_symmetry_space_group_name_H-M   'C 2 2 21'
_symmetry_Int_Tables_number      20
_space_group_name_Hall           'C 2n 2'
loop_
_symmetry_equiv_pos_site_id
_symmetry_equiv_pos_as_xyz
1 x,y,z
2 -x,-y,1/2+z
3 x,-y,-z
4 -x,y,1/2-z
5 1/2+x,1/2+y,z
6 1/2-x,1/2-y,1/2+z
7 1/2+x,1/2-y,-z
8 1/2-x,1/2+y,1/2-z
_cell_length_a                   10.2549(3)
_cell_length_b                   14.4208(7)
_cell_length_c                   21.6022(10)
_cell_angle_alpha                90
_cell_angle_beta                 90
_cell_angle_gamma                90
_cell_volume                     3194.62
loop_
_atom_site_label
_atom_site_type_symbol
_atom_site_fract_x
_atom_site_fract_y
_atom_site_fract_z
Cu1 Cu 0.75792(5) -0.02984(3) 0.08210(2)
O1 O 0.6407(3) -0.1080(2) 0.03501(16)
O2 O 0.6434(5) -0.0602(4) 0.1706(2)
H1 H 0.665(10) -0.094(7) 0.209(5)
H2 H 0.613(8) -0.027(5) 0.182(4)
O3 O 0.6530(3) -0.0809(2) -0.06697(16)
N1 N 0.3969(4) -0.5435(2) -0.12543(19)
N2 N 0.3937(3) -0.3649(2) -0.08924(18)
C1 C 0.3995(6) -0.6363(3) -0.1335(2)
H7 H 0.3307 -0.6718 -0.1185
C2 C 0.5013(6) -0.6803(3) -0.1635(3)
H8 H 0.5017 -0.7445 -0.1680
C3 C 0.6024(6) -0.6272(4) -0.1867(3)
H9 H 0.6716 -0.6552 -0.2074
C4 C 0.5993(5) -0.5325(4) -0.1789(3)
H10 H 0.6666 -0.4957 -0.1941
C5 C 0.4955(5) -0.4927(3) -0.1483(2)
C6 C 0.4839(5) -0.3896(3) -0.1402(2)
H11 H 0.5694 -0.3639 -0.1316
H12 H 0.4527 -0.3622 -0.1785
C7 C 0.4606(5) -0.3668(3) -0.0284(2)
H13 H 0.5036 -0.4263 -0.0238
H14 H 0.3952 -0.3622 0.0039
C8 C 0.5620(5) -0.2899(3) -0.0184(2)
H15 H 0.5945 -0.2928 0.0238
H16 H 0.6350 -0.2993 -0.0462
C9 C 0.5016(5) -0.1943(3) -0.0302(2)
H17 H 0.4331 -0.1844 0.0007
C10 C 0.4390(4) -0.1918(3) -0.0934(2)
H18 H 0.5056 -0.1986 -0.1249
H19 H 0.3967 -0.1323 -0.0995
C11 C 0.3381(4) -0.2696(3) -0.1002(2)
H20 H 0.2677 -0.2590 -0.0711
H21 H 0.3015 -0.2673 -0.1416
C12 C 0.6067(4) -0.1197(3) -0.0204(2)
Cu1B Cu 0.75792(5) 0.02984(3) -0.08210(2)
Cu1F Cu 0.25792(5) -0.47016(3) -0.08210(2)
Cu1D Cu 0.25792(5) 0.47016(3) 0.08210(2)
O1B O 0.6407(3) 0.1080(2) -0.03501(16)
O2B O 0.6434(5) 0.0602(4) -0.1706(2)
H1B H 0.665(10) 0.094(7) -0.209(5)
H2B H 0.613(8) 0.027(5) -0.182(4)
O3B O 0.6530(3) 0.0809(2) 0.06697(16)
N1B N 0.3969(4) 0.5435(2) 0.12543(19)
N1F N 0.8969(4) 0.0435(2) 0.12543(19)
N1D N 0.8969(4) -0.0435(2) -0.12543(19)
N2B N 0.3937(3) 0.3649(2) 0.08924(18)
N2F N 0.8937(3) -0.1351(2) 0.08924(18)
N2D N 0.8937(3) 0.1351(2) -0.08924(18)
C1B C 0.3995(6) 0.6363(3) 0.1335(2)
H7B H 0.3307 0.6718 0.1185
C2B C 0.5013(6) 0.6803(3) 0.1635(3)
H8B H 0.5017 0.7445 0.1680
C3B C 0.6024(6) 0.6272(4) 0.1867(3)
H9B H 0.6716 0.6552 0.2074
C4B C 0.5993(5) 0.5325(4) 0.1789(3)
H10B H 0.6666 0.4957 0.1941
C5B C 0.4955(5) 0.4927(3) 0.1483(2)
C6B C 0.4839(5) 0.3896(3) 0.1402(2)
H11B H 0.5694 0.3639 0.1316
H12B H 0.4527 0.3622 0.1785
C7B C 0.4606(5) 0.3668(3) 0.0284(2)
H13B H 0.5036 0.4263 0.0238
H14B H 0.3952 0.3622 -0.0039
C8B C 0.5620(5) 0.2899(3) 0.0184(2)
H15B H 0.5945 0.2928 -0.0238
H16B H 0.6350 0.2993 0.0462
C9B C 0.5016(5) 0.1943(3) 0.0302(2)
H17B H 0.4331 0.1844 -0.0007
C10B C 0.4390(4) 0.1918(3) 0.0934(2)
H18B H 0.5056 0.1986 0.1249
H19B H 0.3967 0.1323 0.0995
C11B C 0.3381(4) 0.2696(3) 0.1002(2)
H20B H 0.2677 0.2590 0.0711
H21B H 0.3015 0.2673 0.1416
C12B C 0.6067(4) 0.1197(3) 0.0204(2)
O4 O 1.2417(7) 0.3249(4) 0.2616(3)
H3 H 1.291(8) 0.289(6) 0.266(4)
H4 H 1.207(7) 0.329(5) 0.285(3)
O5 O 0.7105(5) -0.5013(5) 0.0488(3)
O7 O 0.8875(6) -0.5000 0.0000
N3 N 0.7690(6) -0.5000 0.0000
O5B O 0.7105(5) -0.4987(5) -0.0488(3)
O6 O 0.8733(8) 0.3866(6) 0.1300(4)
H5 H 0.855(5) 0.412(4) 0.114(2)
H6 H 0.935(11) 0.411(9) 0.135(6)
O8 O 1.6008(7) -0.1063(6) -0.2422(4)
O9 O 1.5000 -0.2292(5) -0.2500
N4 N 1.5000 -0.1459(4) -0.2500
O8C O 1.3992(7) -0.1063(6) -0.2578(4)
loop_
_geom_bond_atom_site_label_1
_geom_bond_atom_site_label_2
_geom_bond_site_symmetry_1
_geom_bond_site_symmetry_2
Cu1 O1 1_555 1_555
O1 C12 1_555 1_555
O2 Cu1 1_555 1_555
H1 O2 1_555 1_555
H2 O2 1_555 1_555
O3 C12 1_555 1_555
O4 H3 1_555 1_555
H4 O4 1_555 1_555
O5 N3 1_555 1_555
O6 H5 1_555 1_555
H6 O6 1_555 1_555
O7 N3 1_555 1_555
O8 N4 1_555 1_555
O9 N4 1_555 1_555
N1 C1 1_555 1_555
N2 C6 1_555 1_555
N3 O5B 1_555 1_555
N4 O8C 1_555 1_555
C1 H7 1_555 1_555
C2 C1 1_555 1_555
H8 C2 1_555 1_555
C3 C2 1_555 1_555
H9 C3 1_555 1_555
C4 C3 1_555 1_555
H10 C4 1_555 1_555
C5 N1 1_555 1_555
C6 C5 1_555 1_555
H11 C6 1_555 1_555
H12 C6 1_555 1_555
C7 N2 1_555 1_555
H13 C7 1_555 1_555
H14 C7 1_555 1_555
C8 C7 1_555 1_555
H15 C8 1_555 1_555
H16 C8 1_555 1_555
C9 C8 1_555 1_555
H17 C9 1_555 1_555
C10 C9 1_555 1_555
H18 C10 1_555 1_555
H19 C10 1_555 1_555
C11 N2 1_555 1_555
H20 C11 1_555 1_555
H21 C11 1_555 1_555
C12 C9 1_555 1_555
Cu1B O3 1_555 1_555
Cu1F N1 1_555 1_555
Cu1D N1B 1_555 1_555
O1B Cu1B 1_555 1_555
O2B Cu1B 1_555 1_555
H1B O2B 1_555 1_555
H2B O2B 1_555 1_555
O3B Cu1 1_555 1_555
N1B C1B 1_555 1_555
N1F Cu1 1_555 1_555
N1D Cu1B 1_555 1_555
N2B Cu1D 1_555 1_555
N2F Cu1 1_555 1_555
N2D Cu1B 1_555 1_555
C1B H7B 1_555 1_555
C2B C1B 1_555 1_555
H8B C2B 1_555 1_555
C3B C2B 1_555 1_555
H9B C3B 1_555 1_555
C4B C3B 1_555 1_555
H10B C4B 1_555 1_555
C5B N1B 1_555 1_555
C6B N2B 1_555 1_555
H11B C6B 1_555 1_555
H12B C6B 1_555 1_555
C7B N2B 1_555 1_555
H13B C7B 1_555 1_555
H14B C7B 1_555 1_555
C8B C7B 1_555 1_555
H15B C8B 1_555 1_555
H16B C8B 1_555 1_555
C9B C8B 1_555 1_555
H17B C9B 1_555 1_555
C10B C9B 1_555 1_555
H18B C10B 1_555 1_555
H19B C10B 1_555 1_555
C11B N2B 1_555 1_555
H20B C11B 1_555 1_555
H21B C11B 1_555 1_555
C12B O1B 1_555 1_555
N2 Cu1F 1_555 1_555
C4 C5 1_555 1_555
C10 C11 1_555 1_555
O3B C12B 1_555 1_555
C4B C5B 1_555 1_555
C5B C6B 1_555 1_555
C9B C12B 1_555 1_555
C10B C11B 1_555 1_555

#END
