
#######################################################################
#
#                 Cambridge Crystallographic Data Centre
#                                CCDC 
#
#######################################################################
#
# If this CIF has been generated from an entry in the Cambridge 
# Structural Database, then it will include bibliographic, chemical, 
# crystal, experimental, refinement or atomic coordinate data resulting 
# from the CCDC's data processing and validation procedures.
#
#######################################################################

data_SEPPAF
_symmetry_cell_setting           orthorhombic
_symmetry_space_group_name_H-M   'P c a 21'
_symmetry_Int_Tables_number      29
_space_group_name_Hall           'P 2c -2ac'
loop_
_symmetry_equiv_pos_site_id
_symmetry_equiv_pos_as_xyz
1 x,y,z
2 -x,-y,1/2+z
3 1/2+x,-y,z
4 1/2-x,y,1/2+z
_cell_length_a                   7.1454(15)
_cell_length_b                   16.836(4)
_cell_length_c                   10.562(3)
_cell_angle_alpha                90
_cell_angle_beta                 90
_cell_angle_gamma                90
_cell_volume                     1270.61
loop_
_atom_site_label
_atom_site_type_symbol
_atom_site_fract_x
_atom_site_fract_y
_atom_site_fract_z
Cu1 Cu 0.60898(18) 0.69178(7) 0.47998(10)
S1 S 0.9225(4) 0.68358(17) 0.5372(2)
N1 N 0.4603(12) 0.6123(5) 0.5970(9)
N2 N 0.3880(13) 0.6503(5) 0.6990(7)
N3 N 0.4591(11) 0.7683(4) 0.6015(7)
N4 N 0.4600(11) 0.8481(4) 0.5935(7)
N5 N 0.3973(12) 0.9728(5) 0.6756(7)
N6 N 0.3473(12) 1.0188(5) 0.7741(9)
N7 N 0.9041(13) 0.6918(6) 0.8012(9)
C1 C 0.4391(16) 0.5361(6) 0.6193(12)
H1 H 0.4740 0.4958 0.5640
C2 C 0.3566(15) 0.5239(6) 0.7379(12)
H2 H 0.3288 0.4756 0.7762
C3 C 0.3265(14) 0.5968(6) 0.7841(11)
H3 H 0.2723 0.6085 0.8620
C4 C 0.3870(15) 0.7336(6) 0.7022(8)
C5 C 0.3163(14) 0.7752(6) 0.8043(9)
H4 H 0.2696 0.7492 0.8753
C6 C 0.3181(15) 0.8548(6) 0.7964(8)
H5 H 0.2711 0.8856 0.8623
C7 C 0.3905(15) 0.8903(5) 0.6893(8)
C8 C 0.3622(16) 1.0921(6) 0.7311(11)
H6 H 0.3341 1.1373 0.7779
C9 C 0.4257(14) 1.0928(6) 0.6060(12)
H7 H 0.4503 1.1371 0.5561
C10 C 0.4437(13) 1.0168(6) 0.5731(9)
H8 H 0.4811 0.9976 0.4946
C11 C 0.9071(13) 0.6894(5) 0.6929(9)
Cu1C Cu 0.89102(18) 0.69178(7) 0.97998(10)
N7C N 0.5959(13) 0.6918(6) 0.3012(9)
loop_
_geom_bond_atom_site_label_1
_geom_bond_atom_site_label_2
_geom_bond_site_symmetry_1
_geom_bond_site_symmetry_2
Cu1 S1 1_555 1_555
S1 C11 1_555 1_555
N1 Cu1 1_555 1_555
N2 N1 1_555 1_555
N3 Cu1 1_555 1_555
N4 N3 1_555 1_555
N5 N6 1_555 1_555
N6 C8 1_555 1_555
N7 C11 1_555 1_555
C1 N1 1_555 1_555
H1 C1 1_555 1_555
C2 C1 1_555 1_555
H2 C2 1_555 1_555
C3 N2 1_555 1_555
H3 C3 1_555 1_555
C4 N2 1_555 1_555
C5 C4 1_555 1_555
H4 C5 1_555 1_555
C6 C5 1_555 1_555
H5 C6 1_555 1_555
C7 N4 1_555 1_555
C8 H6 1_555 1_555
C9 C8 1_555 1_555
H7 C9 1_555 1_555
C10 N5 1_555 1_555
H8 C10 1_555 1_555
Cu1C N7 1_555 1_555
N7C Cu1 1_555 1_555
N3 C4 1_555 1_555
N5 C7 1_555 1_555
C2 C3 1_555 1_555
C6 C7 1_555 1_555
C9 C10 1_555 1_555

#END
