
#######################################################################
#
#                 Cambridge Crystallographic Data Centre
#                                CCDC 
#
#######################################################################
#
# If this CIF has been generated from an entry in the Cambridge 
# Structural Database, then it will include bibliographic, chemical, 
# crystal, experimental, refinement or atomic coordinate data resulting 
# from the CCDC's data processing and validation procedures.
#
#######################################################################

data_SEPPIN
_symmetry_cell_setting           monoclinic
_symmetry_space_group_name_H-M   'C 2/c'
_symmetry_Int_Tables_number      15
_space_group_name_Hall           '-C 2yn'
loop_
_symmetry_equiv_pos_site_id
_symmetry_equiv_pos_as_xyz
1 x,y,z
2 1/2+x,1/2+y,z
3 -x,y,1/2-z
4 1/2-x,1/2+y,1/2-z
5 -x,-y,-z
6 1/2-x,1/2-y,-z
7 x,-y,1/2+z
8 1/2+x,1/2-y,1/2+z
_cell_length_a                   21.612(6)
_cell_length_b                   6.8779(18)
_cell_length_c                   11.031(3)
_cell_angle_alpha                90
_cell_angle_beta                 103.511(3)
_cell_angle_gamma                90
_cell_volume                     1594.33
loop_
_atom_site_label
_atom_site_type_symbol
_atom_site_fract_x
_atom_site_fract_y
_atom_site_fract_z
Mn1 Mn 0.36716(3) 0.15521(9) 0.27816(5)
O1 O 0.24949(14) -0.2199(5) 0.2258(3)
O2 O 0.29964(12) 0.0003(4) 0.1332(2)
O3 O 0.03432(13) -0.3003(4) 0.0995(3)
O4 O -0.02311(13) -0.1937(4) -0.0845(3)
O5 O 0.36665(13) -0.1153(4) 0.3861(3)
H1 H 0.3327(8) -0.183(3) 0.366(3)
H2 H 0.4014(7) -0.180(3) 0.402(3)
O6 O 0.42539(6) 0.0483(2) 0.15142(13)
H3 H 0.4045 0.0245 0.0766
H4 H 0.4611 0.1056 0.1573
N1 N 0.14038(6) -0.1582(2) 0.05619(13)
N2 N 0.13951(6) 0.0704(2) -0.15147(13)
C1 C 0.25262(6) -0.1014(2) 0.14226(13)
C2 C 0.19344(6) -0.0739(2) 0.03981(13)
C3 C 0.19300(6) 0.0414(2) -0.06342(13)
H5 H 0.2306 0.0999 -0.0717
C4 C 0.08746(19) -0.0188(7) -0.1355(4)
H6 H 0.0499 -0.0064 -0.1967
C5 C 0.08723(18) -0.1301(6) -0.0306(4)
C6 C 0.02712(18) -0.2162(6) -0.0038(4)
Mn1C Mn 0.13284(3) -0.34479(9) 0.22184(5)
Mn1E Mn 0.13284(3) 0.34479(9) -0.27816(5)
O3C O 0.46568(13) 0.1997(4) 0.4005(3)
N1C N 0.35962(6) 0.3418(2) 0.44381(13)
N2E N 0.36049(6) 0.4296(2) 0.15147(13)
loop_
_geom_bond_atom_site_label_1
_geom_bond_atom_site_label_2
_geom_bond_site_symmetry_1
_geom_bond_site_symmetry_2
Mn1 O2 1_555 1_555
O1 C1 1_555 1_555
O2 C1 1_555 1_555
O3 C6 1_555 1_555
O4 C6 1_555 1_555
O5 Mn1 1_555 1_555
H1 O5 1_555 1_555
H2 O5 1_555 1_555
O6 Mn1 1_555 1_555
H3 O6 1_555 1_555
H4 O6 1_555 1_555
N1 C2 1_555 1_555
N2 C3 1_555 1_555
C1 C2 1_555 1_555
C2 C3 1_555 1_555
C3 H5 1_555 1_555
C4 N2 1_555 1_555
H6 C4 1_555 1_555
C5 N1 1_555 1_555
C6 C5 1_555 1_555
Mn1C O3 1_555 1_555
Mn1E N2 1_555 1_555
O3C Mn1 1_555 1_555
N1C Mn1 1_555 1_555
N2E Mn1 1_555 1_555
N1 Mn1C 1_555 1_555
C4 C5 1_555 1_555

#END
