
#######################################################################
#
#                 Cambridge Crystallographic Data Centre
#                                CCDC 
#
#######################################################################
#
# If this CIF has been generated from an entry in the Cambridge 
# Structural Database, then it will include bibliographic, chemical, 
# crystal, experimental, refinement or atomic coordinate data resulting 
# from the CCDC's data processing and validation procedures.
#
#######################################################################

data_SEQCAS
_symmetry_cell_setting           monoclinic
_symmetry_space_group_name_H-M   'P 21/a'
_symmetry_Int_Tables_number      14
_space_group_name_Hall           '-P 2yab'
loop_
_symmetry_equiv_pos_site_id
_symmetry_equiv_pos_as_xyz
1 x,y,z
2 1/2-x,1/2+y,-z
3 -x,-y,-z
4 1/2+x,1/2-y,z
_cell_length_a                   8.391(2)
_cell_length_b                   10.152(3)
_cell_length_c                   24.115(6)
_cell_angle_alpha                90
_cell_angle_beta                 100.01(2)
_cell_angle_gamma                90
_cell_volume                     2022.98
loop_
_atom_site_label
_atom_site_type_symbol
_atom_site_fract_x
_atom_site_fract_y
_atom_site_fract_z
Ag1 Ag 0.0558(3) 0.0219(3) 0.0968(1)
Ag2 Ag -0.0464(3) -0.0288(3) 0.4035(1)
C1 C -0.4841(11) -0.1353(12) 0.0349(7)
C2 C -0.3285(10) -0.0952(11) 0.0558(6)
N1 N -0.2148(12) -0.0441(12) 0.0669(7)
C3 C -0.6211(13) -0.0990(13) 0.0555(8)
N2 N -0.6728(14) -0.0690(14) 0.0957(8)
C4 C -0.5159(13) -0.2050(12) -0.0144(6)
N3 N -0.5557(13) -0.2529(12) -0.0571(7)
N4 N 0.0195(10) 0.0110(9) 0.1914(4)
N5 N -0.0571(13) -0.0152(11) 0.2979(7)
C5 C -0.0194(13) 0.1202(11) 0.2199(6)
C6 C -0.0616(13) 0.2406(11) 0.1922(8)
C7 C -0.0815(13) 0.3563(12) 0.2220(7)
C8 C -0.1036(14) 0.3243(13) 0.2781(8)
C9 C -0.1204(14) 0.2053(11) 0.3045(8)
C10 C -0.0737(13) 0.1054(11) 0.2718(6)
C11 C 0.0276(13) -0.1129(11) 0.2767(7)
C12 C 0.0302(13) -0.2359(11) 0.3036(9)
C13 C 0.1132(13) -0.3333(12) 0.2793(7)
C14 C 0.1412(13) -0.3392(12) 0.2246(6)
C15 C 0.0951(13) -0.2217(11) 0.1961(8)
C16 C 0.0343(13) -0.1062(11) 0.2184(6)
C17 C 0.0224(12) -0.3474(12) 0.5408(7)
C18 C -0.1051(12) -0.3982(12) 0.5669(7)
N6 N -0.2284(11) -0.4348(11) 0.5795(6)
C19 C -0.0099(14) -0.2616(12) 0.4939(7)
N7 N -0.0253(13) -0.1999(12) 0.4532(7)
C20 C 0.1849(12) -0.3728(14) 0.5659(10)
N8 N 0.3189(11) -0.4117(12) 0.5794(7)
H1 H -0.0790(13) 0.2438(11) 0.1468(8)
H2 H -0.0805(13) 0.4548(12) 0.2051(7)
H3 H -0.1077(14) 0.4091(13) 0.3048(8)
H4 H -0.1630(14) 0.1927(11) 0.3439(8)
H5 H -0.0269(13) -0.2535(11) 0.3398(9)
H6 H 0.1614(13) -0.4136(12) 0.3066(7)
H7 H 0.1917(13) -0.4232(12) 0.2063(6)
H8 H 0.1071(13) -0.2183(11) 0.1522(8)
N2_2 N 0.3272(14) -0.0690(14) 0.0957(8)
Ag1_2 Ag -0.9442(3) 0.0219(3) 0.0968(1)
Ag1A Ag -0.5558(3) -0.4781(3) -0.0968(1)
Ag2A Ag -0.4536(3) -0.5288(3) 0.5965(1)
N6A N -0.2716(11) 0.0652(11) 0.4205(6)
N8A N 0.1811(11) 0.0883(12) 0.4206(7)
Ag2A_2 Ag 0.5464(3) -0.5288(3) 0.5965(1)
N3A N 0.0557(13) 0.2471(12) 0.0571(7)
loop_
_geom_bond_atom_site_label_1
_geom_bond_atom_site_label_2
_geom_bond_site_symmetry_1
_geom_bond_site_symmetry_2
Ag1 N1 1_555 1_555
Ag2 N5 1_555 1_555
C1 C2 1_555 1_555
C2 N1 1_555 1_555
C3 C1 1_555 1_555
N2 C3 1_555 1_555
C4 C1 1_555 1_555
N3 C4 1_555 1_555
N4 Ag1 1_555 1_555
N5 C10 1_555 1_555
C5 N4 1_555 1_555
C6 C5 1_555 1_555
C7 C6 1_555 1_555
C8 C7 1_555 1_555
C9 C8 1_555 1_555
C10 C5 1_555 1_555
C11 N5 1_555 1_555
C12 C11 1_555 1_555
C13 C12 1_555 1_555
C14 C13 1_555 1_555
C15 C14 1_555 1_555
C16 N4 1_555 1_555
C17 C18 1_555 1_555
C18 N6 1_555 1_555
N6 Ag2A 1_555 1_555
C19 C17 1_555 1_555
N7 Ag2 1_555 1_555
C20 C17 1_555 1_555
N8 C20 1_555 1_555
H1 C6 1_555 1_555
H2 C7 1_555 1_555
H3 C8 1_555 1_555
H4 C9 1_555 1_555
H5 C12 1_555 1_555
H6 C13 1_555 1_555
H7 C14 1_555 1_555
H8 C15 1_555 1_555
N2_2 Ag1 1_555 1_555
Ag1_2 N2 1_555 1_555
Ag1A N3 1_555 1_555
N6A Ag2 1_555 1_555
N8A Ag2 1_555 1_555
Ag2A_2 N8 1_555 1_555
N3A Ag1 1_555 1_555
C9 C10 1_555 1_555
C11 C16 1_555 1_555
C15 C16 1_555 1_555
C19 N7 1_555 1_555

#END
