
#######################################################################
#
#                 Cambridge Crystallographic Data Centre
#                                CCDC 
#
#######################################################################
#
# If this CIF has been generated from an entry in the Cambridge 
# Structural Database, then it will include bibliographic, chemical, 
# crystal, experimental, refinement or atomic coordinate data resulting 
# from the CCDC's data processing and validation procedures.
#
#######################################################################

data_SEQGUR
_symmetry_cell_setting           monoclinic
_symmetry_space_group_name_H-M   'P 21/c'
_symmetry_Int_Tables_number      14
_space_group_name_Hall           '-P 2ybc'
loop_
_symmetry_equiv_pos_site_id
_symmetry_equiv_pos_as_xyz
1 x,y,z
2 -x,1/2+y,1/2-z
3 -x,-y,-z
4 x,1/2-y,1/2+z
_cell_length_a                   4.8526(5)
_cell_length_b                   16.2068(17)
_cell_length_c                   24.048(2)
_cell_angle_alpha                90
_cell_angle_beta                 100.387(2)
_cell_angle_gamma                90
_cell_volume                     1860.26
loop_
_atom_site_label
_atom_site_type_symbol
_atom_site_fract_x
_atom_site_fract_y
_atom_site_fract_z
Zn1 Zn 0.20117(10) 0.48320(3) 0.68029(2)
N1 N 0.1360(8) 0.0914(2) 0.24221(15)
C1 C 0.2697(10) 0.0845(3) 0.2964(2)
H1 H 0.4181 0.0457 0.3050
C2 C 0.2007(10) 0.1310(3) 0.33970(19)
H2 H 0.2998 0.1242 0.3773
C3 C -0.0156(9) 0.1880(3) 0.32788(19)
C4 C -0.1509(9) 0.1957(3) 0.27223(19)
H3 H -0.2991 0.2342 0.2624
C5 C -0.0694(10) 0.1474(3) 0.23181(18)
H4 H -0.1641 0.1539 0.1939
N2 N -0.1063(8) 0.2391(2) 0.36733(15)
H5 H -0.2648 0.2656 0.3561
C6 C 0.0255(10) 0.2525(3) 0.42207(19)
O1 O 0.2372(7) 0.2166(2) 0.44510(13)
N3 N -0.1114(8) 0.3123(2) 0.44746(15)
H6 H -0.2671 0.3319 0.4273
C7 C -0.0306(9) 0.3449(3) 0.50120(18)
C8 C 0.1855(12) 0.3177(3) 0.5423(2)
H7 H 0.2948 0.2716 0.5352
C9 C 0.2424(12) 0.3571(3) 0.5931(2)
H8 H 0.3909 0.3364 0.6209
N4 N 0.1015(8) 0.4230(2) 0.60630(15)
C10 C -0.1092(12) 0.4488(4) 0.5667(2)
H9 H -0.2140 0.4955 0.5746
C11 C -0.1814(12) 0.4110(4) 0.5153(2)
H10 H -0.3375 0.4307 0.4890
O2 O 0.5896(6) 0.51855(19) 0.69769(14)
S1 S 0.6850(2) 0.59488(7) 0.67148(5)
O3 O 0.6167(6) 0.6683(2) 0.70093(14)
O4 O 0.5553(7) 0.5975(2) 0.61211(14)
O5 O 0.9941(6) 0.58682(18) 0.67742(13)
Zn1C Zn 0.20117(10) 0.01680(3) 0.18029(2)
Zn1_2 Zn 1.20117(10) 0.48320(3) 0.68029(2)
N1C N 0.1360(8) 0.4086(2) 0.74221(15)
O5_2 O -0.0059(6) 0.58682(18) 0.67742(13)
O6 O 0.7246(12) 0.2911(4) 0.1306(2)
H11 H 0.6339 0.2779 0.0987
C12 C 0.609(5) 0.3647(13) 0.1496(13)
H12 H 0.7428 0.3837 0.1832
H13 H 0.6121 0.4067 0.1198
C13 C 0.353(3) 0.3679(8) 0.1633(5)
H14 H 0.3534 0.4135 0.1907
H15 H 0.2188 0.3833 0.1288
O7 O 0.2551(12) 0.3035(4) 0.1843(2)
H16 H 0.3054 0.3036 0.2196
loop_
_geom_bond_atom_site_label_1
_geom_bond_atom_site_label_2
_geom_bond_site_symmetry_1
_geom_bond_site_symmetry_2
Zn1 N4 1_555 1_555
N1 C1 1_555 1_555
C1 H1 1_555 1_555
C2 C1 1_555 1_555
H2 C2 1_555 1_555
C3 C2 1_555 1_555
C4 C3 1_555 1_555
H3 C4 1_555 1_555
C5 N1 1_555 1_555
H4 C5 1_555 1_555
N2 C3 1_555 1_555
H5 N2 1_555 1_555
C6 N2 1_555 1_555
O1 C6 1_555 1_555
N3 C6 1_555 1_555
H6 N3 1_555 1_555
C7 N3 1_555 1_555
C8 C7 1_555 1_555
H7 C8 1_555 1_555
C9 C8 1_555 1_555
H8 C9 1_555 1_555
N4 C9 1_555 1_555
C10 N4 1_555 1_555
H9 C10 1_555 1_555
C11 C7 1_555 1_555
H10 C11 1_555 1_555
O2 Zn1 1_555 1_555
S1 O2 1_555 1_555
O3 S1 1_555 1_555
O4 S1 1_555 1_555
O5 S1 1_555 1_555
O6 H11 1_555 1_555
C12 O6 1_555 1_555
H12 C12 1_555 1_555
H13 C12 1_555 1_555
C13 C12 1_555 1_555
H14 C13 1_555 1_555
H15 C13 1_555 1_555
O7 C13 1_555 1_555
H16 O7 1_555 1_555
Zn1C N1 1_555 1_555
Zn1_2 O5 1_555 1_555
N1C Zn1 1_555 1_555
O5_2 Zn1 1_555 1_555
C4 C5 1_555 1_555
C10 C11 1_555 1_555

#END
