
#######################################################################
#
#                 Cambridge Crystallographic Data Centre
#                                CCDC 
#
#######################################################################
#
# If this CIF has been generated from an entry in the Cambridge 
# Structural Database, then it will include bibliographic, chemical, 
# crystal, experimental, refinement or atomic coordinate data resulting 
# from the CCDC's data processing and validation procedures.
#
#######################################################################

data_SEQGEB
_symmetry_cell_setting           orthorhombic
_symmetry_space_group_name_H-M   'P b c n'
_symmetry_Int_Tables_number      60
_space_group_name_Hall           '-P 2n 2ab'
loop_
_symmetry_equiv_pos_site_id
_symmetry_equiv_pos_as_xyz
1 x,y,z
2 1/2-x,1/2-y,1/2+z
3 -x,y,1/2-z
4 1/2+x,1/2-y,-z
5 -x,-y,-z
6 1/2+x,1/2+y,1/2-z
7 x,-y,1/2+z
8 1/2-x,1/2+y,z
_cell_length_a                   19.1929(13)
_cell_length_b                   7.1978(5)
_cell_length_c                   24.4277(17)
_cell_angle_alpha                90
_cell_angle_beta                 90
_cell_angle_gamma                90
_cell_volume                     3374.61
loop_
_atom_site_label
_atom_site_type_symbol
_atom_site_fract_x
_atom_site_fract_y
_atom_site_fract_z
C12 C 0.0751(3) 0.2458(8) 0.3001(2)
O2 O 0.04545(16) 0.3977(5) 0.32842(15)
H11 H 0.042(4) 0.162(9) 0.285(3)
H12 H 0.106(3) 0.174(9) 0.326(3)
H13 H 0.107(3) 0.259(9) 0.275(3)
H14 H 0.009(3) 0.378(8) 0.341(2)
Zn1 Zn 0.110954(17) 1.08231(5) 0.113250(13)
Cl1 Cl 0.00155(4) 1.01305(17) 0.08740(3)
Cl2 Cl 0.12343(4) 1.37593(12) 0.14162(3)
N1 N 0.13319(13) 0.9271(4) 0.18021(10)
C1 C 0.08718(16) 0.8021(5) 0.19924(13)
H1 H 0.0487 0.7734 0.1777
C2 C 0.09395(16) 0.7150(5) 0.24853(13)
H2 H 0.0603 0.6305 0.2599
C3 C 0.15120(15) 0.7522(5) 0.28193(12)
C4 C 0.20071(17) 0.8770(5) 0.26208(13)
H3 H 0.2406 0.9037 0.2822
C5 C 0.18936(17) 0.9597(6) 0.21218(13)
H4 H 0.2225 1.0436 0.1996
N2 N 0.15362(13) 0.6665(4) 0.33290(11)
H5 H 0.1176 0.6038 0.3427
C6 C 0.20877(15) 0.6729(5) 0.36927(12)
O1 O 0.26508(11) 0.7386(3) 0.35818(8)
N3 N 0.19187(13) 0.5966(4) 0.41927(11)
H6 H 0.1489 0.5691 0.4249
C7 C 0.23874(15) 0.5607(4) 0.46129(12)
C8 C 0.21182(15) 0.5124(5) 0.51265(12)
H7 H 0.1639 0.5066 0.5179
C9 C 0.25602(15) 0.4741(4) 0.55496(11)
H8 H 0.2370 0.4421 0.5887
N4 N 0.17400(12) 1.0196(3) 0.05022(10)
C10 C 0.14794(15) 0.9737(4) 0.00081(12)
H9 H 0.0998 0.9693 -0.0031
C11 C 0.31145(15) 0.5672(4) 0.45568(12)
H10 H 0.3318 0.5982 0.4224
C9A C 0.24398(15) 1.0259(4) 0.05496(11)
N4A N 0.32600(12) 0.4804(3) 0.55022(10)
C10A C 0.35206(15) 0.5263(4) 0.50081(12)
C11A C 0.18855(15) 0.9328(4) -0.04432(12)
C13? C -0.0061(3) 0.4203(10) 0.5285(3)
C14? C 0.0164(3) 0.4596(10) 0.4701(3)
O3? O 0.0577(2) 0.6231(6) 0.46642(18)
O4? O -0.0560(2) 0.5567(6) 0.54732(18)
loop_
_geom_bond_atom_site_label_1
_geom_bond_atom_site_label_2
_geom_bond_site_symmetry_1
_geom_bond_site_symmetry_2
Zn1 Cl1 1_555 1_555
Cl2 Zn1 1_555 1_555
N1 Zn1 1_555 1_555
C1 N1 1_555 1_555
H1 C1 1_555 1_555
C2 C1 1_555 1_555
H2 C2 1_555 1_555
C3 C2 1_555 1_555
C4 C3 1_555 1_555
H3 C4 1_555 1_555
C5 N1 1_555 1_555
H4 C5 1_555 1_555
N2 C3 1_555 1_555
H5 N2 1_555 1_555
C6 N2 1_555 1_555
O1 C6 1_555 1_555
N3 C6 1_555 1_555
H6 N3 1_555 1_555
C7 N3 1_555 1_555
C8 C7 1_555 1_555
H7 C8 1_555 1_555
C9 C8 1_555 1_555
H8 C9 1_555 1_555
N4 Zn1 1_555 1_555
C10 N4 1_555 1_555
H9 C10 1_555 1_555
C11 C7 1_555 1_555
H10 C11 1_555 1_555
C12 O2 1_555 1_555
O2 H14 1_555 1_555
H11 C12 1_555 1_555
H12 C12 1_555 1_555
H13 C12 1_555 1_555
C9A N4 1_555 1_555
N4A C9 1_555 1_555
C10A C11 1_555 1_555
C11A C10 1_555 1_555
C4 C5 1_555 1_555
N4A C10A 1_555 1_555

#END
