
#######################################################################
#
#                 Cambridge Crystallographic Data Centre
#                                CCDC 
#
#######################################################################
#
# If this CIF has been generated from an entry in the Cambridge 
# Structural Database, then it will include bibliographic, chemical, 
# crystal, experimental, refinement or atomic coordinate data resulting 
# from the CCDC's data processing and validation procedures.
#
#######################################################################

data_SEQGIF
_symmetry_cell_setting           orthorhombic
_symmetry_space_group_name_H-M   'P b c n'
_symmetry_Int_Tables_number      60
_space_group_name_Hall           '-P 2n 2ab'
loop_
_symmetry_equiv_pos_site_id
_symmetry_equiv_pos_as_xyz
1 x,y,z
2 1/2-x,1/2-y,1/2+z
3 -x,y,1/2-z
4 1/2+x,1/2-y,-z
5 -x,-y,-z
6 1/2+x,1/2+y,1/2-z
7 x,-y,1/2+z
8 1/2-x,1/2+y,z
_cell_length_a                   18.3464(17)
_cell_length_b                   6.8405(6)
_cell_length_c                   24.146(2)
_cell_angle_alpha                90
_cell_angle_beta                 90
_cell_angle_gamma                90
_cell_volume                     3030.29
loop_
_atom_site_label
_atom_site_type_symbol
_atom_site_fract_x
_atom_site_fract_y
_atom_site_fract_z
Zn1 Zn 0.099591(18) 0.41458(5) 0.379112(13)
Cl1 Cl -0.01379(4) 0.45719(11) 0.34619(3)
Cl2 Cl 0.12365(4) 0.11514(11) 0.41220(3)
N1 N 0.16814(13) 0.4688(3) 0.31502(10)
C1 C 0.14205(16) 0.5080(4) 0.26431(12)
H1 H 0.0918 0.5183 0.2602
C2 C 0.18479(16) 0.5340(4) 0.21804(12)
H2 H 0.1638 0.5585 0.1837
C3 C 0.26050(15) 0.5225(4) 0.22400(11)
C4 C 0.28810(15) 0.4823(4) 0.27678(12)
H3 H 0.3381 0.4741 0.2824
C5 C 0.24077(16) 0.4550(4) 0.32025(12)
H4 H 0.2600 0.4256 0.3549
N2 N 0.30946(14) 0.5478(4) 0.18120(10)
C6 C 0.29396(16) 0.6142(4) 0.12828(12)
O1 O 0.23342(11) 0.6608(3) 0.11323(8)
N3 N 0.35519(15) 0.6224(4) 0.09594(11)
C7 C 0.36131(16) 0.7121(4) 0.04470(12)
C8 C 0.30359(16) 0.7918(5) 0.01549(12)
H5 H 0.2563 0.7823 0.0290
C9 C 0.31736(17) 0.8853(5) -0.03379(13)
H6 H 0.2781 0.9392 -0.0528
N4 N 0.38376(13) 0.9035(3) -0.05616(10)
C10 C 0.43955(15) 0.8209(4) -0.02849(12)
H7 H 0.4861 0.8288 -0.0436
C11 C 0.43077(16) 0.7256(4) 0.02099(11)
H8 H 0.4707 0.6702 0.0387
H9 H 0.3532(19) 0.529(5) 0.1901(15)
H10 H 0.388(2) 0.578(6) 0.1077(18)
Zn1A Zn 0.400409(18) 1.08542(5) -0.120888(13)
N4A N 0.11624(13) 0.5965(3) 0.44384(10)
O2 O 0.1059(5) 0.7384(15) 0.0435(4)
O3 O 0.4543(3) 0.4182(7) 0.1697(2)
O4 O 0.4859(3) 0.4265(7) 0.1459(2)
O5 O 0.4615(3) 0.5894(7) 0.2463(2)
loop_
_geom_bond_atom_site_label_1
_geom_bond_atom_site_label_2
_geom_bond_site_symmetry_1
_geom_bond_site_symmetry_2
Zn1 Cl1 1_555 1_555
Cl2 Zn1 1_555 1_555
N1 Zn1 1_555 1_555
C1 N1 1_555 1_555
H1 C1 1_555 1_555
C2 C1 1_555 1_555
H2 C2 1_555 1_555
C3 C2 1_555 1_555
C4 C3 1_555 1_555
H3 C4 1_555 1_555
C5 N1 1_555 1_555
H4 C5 1_555 1_555
N2 C3 1_555 1_555
C6 N2 1_555 1_555
O1 C6 1_555 1_555
N3 C6 1_555 1_555
C7 N3 1_555 1_555
C8 C7 1_555 1_555
H5 C8 1_555 1_555
C9 C8 1_555 1_555
H6 C9 1_555 1_555
N4 C9 1_555 1_555
C10 N4 1_555 1_555
H7 C10 1_555 1_555
C11 C7 1_555 1_555
H8 C11 1_555 1_555
H9 N2 1_555 1_555
H10 N3 1_555 1_555
Zn1A N4 1_555 1_555
N4A Zn1 1_555 1_555
C4 C5 1_555 1_555
C10 C11 1_555 1_555

#END
