
#######################################################################
#
#                 Cambridge Crystallographic Data Centre
#                                CCDC 
#
#######################################################################
#
# If this CIF has been generated from an entry in the Cambridge 
# Structural Database, then it will include bibliographic, chemical, 
# crystal, experimental, refinement or atomic coordinate data resulting 
# from the CCDC's data processing and validation procedures.
#
#######################################################################

data_SEQGOL
_symmetry_cell_setting           monoclinic
_symmetry_space_group_name_H-M   'C 2/c'
_symmetry_Int_Tables_number      15
_space_group_name_Hall           '-C 2yn'
loop_
_symmetry_equiv_pos_site_id
_symmetry_equiv_pos_as_xyz
1 x,y,z
2 1/2+x,1/2+y,z
3 -x,y,1/2-z
4 1/2-x,1/2+y,1/2-z
5 -x,-y,-z
6 1/2-x,1/2-y,-z
7 x,-y,1/2+z
8 1/2+x,1/2-y,1/2+z
_cell_length_a                   10.7579(7)
_cell_length_b                   16.5516(11)
_cell_length_c                   19.2846(13)
_cell_angle_alpha                90
_cell_angle_beta                 96.3070(10)
_cell_angle_gamma                90
_cell_volume                     3413.04
loop_
_atom_site_label
_atom_site_type_symbol
_atom_site_fract_x
_atom_site_fract_y
_atom_site_fract_z
Zn1 Zn 0.258520(16) 0.001520(10) -0.308150(9)
N1 N 0.37634(13) 0.05279(8) -0.37227(7)
C1 C 0.34306(17) 0.11855(11) -0.41068(9)
C2 C 0.41562(16) 0.15319(11) -0.45734(9)
C3 C 0.53117(15) 0.11772(9) -0.46602(8)
C4 C 0.56558(15) 0.04873(10) -0.42688(8)
C5 C 0.48755(16) 0.01891(10) -0.38123(9)
N2 N 0.61151(13) 0.14634(8) -0.51186(7)
C6 C 0.60159(15) 0.22015(9) -0.54657(8)
O1 O 0.52001(11) 0.26905(7) -0.54041(6)
N3 N 0.69641(13) 0.22951(8) -0.58844(7)
C7 C 0.70859(14) 0.29196(9) -0.63515(8)
C8 C 0.62927(15) 0.35906(10) -0.64439(8)
C9 C 0.65074(15) 0.41555(10) -0.69419(8)
N4 N 0.74359(12) 0.41005(8) -0.73534(7)
C10 C 0.81985(15) 0.34560(10) -0.72571(8)
C11 C 0.80714(15) 0.28672(10) -0.67665(8)
O2 O 0.08838(12) -0.00536(7) -0.35478(7)
C12 C 0.07826(15) -0.05320(10) -0.40722(8)
O3 O 0.17069(11) -0.08525(7) -0.42985(6)
C13 C -0.05238(17) -0.06975(12) -0.44058(10)
O4 O 0.35261(11) -0.09527(7) -0.27814(6)
C14 C 0.31137(16) -0.12340(10) -0.22385(9)
O5 O 0.21885(15) -0.09622(9) -0.19999(8)
C15 C 0.3841(2) -0.19271(12) -0.18751(11)
H1 H 0.262(2) 0.1439(13) -0.4057(11)
H2 H 0.389(2) 0.2009(14) -0.4821(11)
H3 H 0.6463(18) 0.0220(12) -0.4295(10)
H4 H 0.5068(18) -0.0254(12) -0.3555(10)
H5 H 0.6713(18) 0.1173(12) -0.5180(10)
H6 H 0.7451(18) 0.1905(12) -0.5886(10)
H7 H 0.564(2) 0.3666(12) -0.6184(11)
H8 H 0.5985(18) 0.4602(13) -0.7004(10)
H9 H 0.8850(17) 0.3411(11) -0.7564(9)
H10 H 0.8665(18) 0.2413(12) -0.6734(10)
H11 H -0.090(2) -0.0187(15) -0.4560(12)
H12 H -0.105(2) -0.0909(15) -0.4075(13)
H13 H -0.0497(19) -0.1038(13) -0.4793(11)
H14 H 0.386(3) -0.2399(17) -0.2202(14)
H15 H 0.469(2) -0.1773(14) -0.1766(12)
H16 H 0.352(2) -0.2057(16) -0.1451(14)
Zn1G Zn 0.758520(16) 0.498480(10) -0.808150(9)
N4G N 0.24359(12) 0.08995(8) -0.23534(7)
O6 O 0.0000 -0.18210(14) -0.2500
H17 H -0.055(2) -0.1507(16) -0.2675(14)
H17B H 0.055(2) -0.1507(16) -0.2325(14)
loop_
_geom_bond_atom_site_label_1
_geom_bond_atom_site_label_2
_geom_bond_site_symmetry_1
_geom_bond_site_symmetry_2
Zn1 N1 1_555 1_555
N1 C1 1_555 1_555
C1 C2 1_555 1_555
C2 C3 1_555 1_555
C3 C4 1_555 1_555
C4 C5 1_555 1_555
C5 N1 1_555 1_555
N2 C3 1_555 1_555
C6 N2 1_555 1_555
O1 C6 1_555 1_555
N3 C6 1_555 1_555
C7 N3 1_555 1_555
C8 C7 1_555 1_555
C9 C8 1_555 1_555
N4 C9 1_555 1_555
C10 N4 1_555 1_555
C11 C7 1_555 1_555
O2 Zn1 1_555 1_555
C12 O2 1_555 1_555
O3 C12 1_555 1_555
C13 C12 1_555 1_555
O4 Zn1 1_555 1_555
C14 O4 1_555 1_555
O5 C14 1_555 1_555
C15 C14 1_555 1_555
O6 H17 1_555 1_555
H1 C1 1_555 1_555
H2 C2 1_555 1_555
H3 C4 1_555 1_555
H4 C5 1_555 1_555
H5 N2 1_555 1_555
H6 N3 1_555 1_555
H7 C8 1_555 1_555
H8 C9 1_555 1_555
H9 C10 1_555 1_555
H10 C11 1_555 1_555
H11 C13 1_555 1_555
H12 C13 1_555 1_555
H13 C13 1_555 1_555
H14 C15 1_555 1_555
H15 C15 1_555 1_555
H16 C15 1_555 1_555
Zn1G N4 1_555 1_555
N4G Zn1 1_555 1_555
H17B O6 1_555 1_555
C10 C11 1_555 1_555

#END
