
#######################################################################
#
#                 Cambridge Crystallographic Data Centre
#                                CCDC 
#
#######################################################################
#
# If this CIF has been generated from an entry in the Cambridge 
# Structural Database, then it will include bibliographic, chemical, 
# crystal, experimental, refinement or atomic coordinate data resulting 
# from the CCDC's data processing and validation procedures.
#
#######################################################################

data_SEQHAY
_symmetry_cell_setting           monoclinic
_symmetry_space_group_name_H-M   'P 21/c'
_symmetry_Int_Tables_number      14
_space_group_name_Hall           '-P 2ybc'
loop_
_symmetry_equiv_pos_site_id
_symmetry_equiv_pos_as_xyz
1 x,y,z
2 -x,1/2+y,1/2-z
3 -x,-y,-z
4 x,1/2-y,1/2+z
_cell_length_a                   9.2135(16)
_cell_length_b                   12.441(2)
_cell_length_c                   19.292(3)
_cell_angle_alpha                90
_cell_angle_beta                 95.447(4)
_cell_angle_gamma                90
_cell_volume                     2201.36
loop_
_atom_site_label
_atom_site_type_symbol
_atom_site_fract_x
_atom_site_fract_y
_atom_site_fract_z
Zn1 Zn 0.13803(10) -0.10818(7) 0.30100(5)
N1 N 0.1525(7) 0.0118(5) 0.3721(3)
C1 C 0.1637(8) -0.0133(6) 0.4406(4)
H1 H 0.1641 -0.0867 0.4541
C2 C 0.1747(9) 0.0652(6) 0.4914(4)
H2 H 0.1861 0.0455 0.5392
C3 C 0.1691(9) 0.1731(7) 0.4728(4)
H3 H 0.1730 0.2280 0.5071
C4 C 0.1578(8) 0.1979(6) 0.4028(4)
C5 C 0.1504(8) 0.1153(7) 0.3541(4)
H4 H 0.1436 0.1332 0.3060
N2 N 0.1462(7) 0.3036(5) 0.3772(3)
H5 H 0.0888 0.3155 0.3389
C6 C 0.2195(9) 0.3892(7) 0.4088(4)
O1 O 0.3067(6) 0.3816(4) 0.4601(3)
N3 N 0.1878(7) 0.4846(5) 0.3740(3)
H6 H 0.1151 0.4828 0.3410
C7 C 0.2574(9) 0.5828(6) 0.3852(4)
C8 C 0.3880(10) 0.5982(7) 0.4248(4)
H7 H 0.4361 0.5399 0.4491
C9 C 0.4481(9) 0.7008(6) 0.4284(4)
H8 H 0.5372 0.7137 0.4561
C10 C 0.3785(9) 0.7825(6) 0.3922(4)
H9 H 0.4228 0.8515 0.3934
N4 N 0.2497(7) 0.7692(5) 0.3547(3)
C11 C 0.1907(9) 0.6691(7) 0.3511(4)
H10 H 0.1001 0.6584 0.3241
O2 O -0.0505(6) -0.1689(4) 0.2628(3)
C12 C -0.1349(10) -0.1817(6) 0.3127(5)
O3 O -0.0925(7) -0.1724(5) 0.3743(3)
C13 C -0.2907(9) -0.2124(7) 0.2901(5)
H11 H -0.2963 -0.2899 0.2811
H12 H -0.3244 -0.1733 0.2475
H13 H -0.3525 -0.1940 0.3270
O4 O 0.0953(6) 0.0202(4) 0.2023(3)
C14 C 0.2012(10) -0.0323(7) 0.1825(5)
O5 O 0.2685(6) -0.1002(5) 0.2225(3)
C15 C 0.2511(11) -0.0126(8) 0.1131(5)
H14 H 0.1819 -0.0449 0.0773
H15 H 0.3476 -0.0448 0.1109
H16 H 0.2569 0.0650 0.1050
Zn1_2 Zn 0.13803(10) 0.89182(7) 0.30100(5)
N4_2 N 0.2497(7) -0.2308(5) 0.3547(3)
C16 C 0.6213(10) 0.1678(8) 0.3206(5)
H17 H 0.6210 0.2292 0.2871
Cl1 Cl 0.5424(3) 0.2118(3) 0.39367(16)
Cl2 Cl 0.5191(3) 0.06285(19) 0.27953(14)
Cl3 Cl 0.8029(3) 0.1271(2) 0.34091(16)
loop_
_geom_bond_atom_site_label_1
_geom_bond_atom_site_label_2
_geom_bond_site_symmetry_1
_geom_bond_site_symmetry_2
Zn1 N1 1_555 1_555
N1 C1 1_555 1_555
C1 H1 1_555 1_555
C2 C1 1_555 1_555
H2 C2 1_555 1_555
C3 C2 1_555 1_555
H3 C3 1_555 1_555
C4 C3 1_555 1_555
C5 N1 1_555 1_555
H4 C5 1_555 1_555
N2 C4 1_555 1_555
H5 N2 1_555 1_555
C6 N2 1_555 1_555
O1 C6 1_555 1_555
N3 C6 1_555 1_555
H6 N3 1_555 1_555
C7 N3 1_555 1_555
C8 C7 1_555 1_555
H7 C8 1_555 1_555
C9 C8 1_555 1_555
H8 C9 1_555 1_555
C10 C9 1_555 1_555
H9 C10 1_555 1_555
N4 C10 1_555 1_555
C11 C7 1_555 1_555
H10 C11 1_555 1_555
O2 Zn1 1_555 1_555
C12 O2 1_555 1_555
O3 C12 1_555 1_555
C13 C12 1_555 1_555
H11 C13 1_555 1_555
H12 C13 1_555 1_555
H13 C13 1_555 1_555
O4 Zn1 1_555 1_555
C14 O4 1_555 1_555
O5 Zn1 1_555 1_555
C15 C14 1_555 1_555
H14 C15 1_555 1_555
H15 C15 1_555 1_555
H16 C15 1_555 1_555
C16 H17 1_555 1_555
Cl1 C16 1_555 1_555
Cl2 C16 1_555 1_555
Cl3 C16 1_555 1_555
Zn1_2 N4 1_555 1_555
N4_2 Zn1 1_555 1_555
C4 C5 1_555 1_555
N4 C11 1_555 1_555
C14 O5 1_555 1_555

#END
