
#######################################################################
#
#                 Cambridge Crystallographic Data Centre
#                                CCDC 
#
#######################################################################
#
# If this CIF has been generated from an entry in the Cambridge 
# Structural Database, then it will include bibliographic, chemical, 
# crystal, experimental, refinement or atomic coordinate data resulting 
# from the CCDC's data processing and validation procedures.
#
#######################################################################

data_SEQHEC
_symmetry_cell_setting           triclinic
_symmetry_space_group_name_H-M   'P -1'
_symmetry_Int_Tables_number      2
_space_group_name_Hall           '-P 1'
loop_
_symmetry_equiv_pos_site_id
_symmetry_equiv_pos_as_xyz
1 x,y,z
2 -x,-y,-z
_cell_length_a                   8.240(3)
_cell_length_b                   14.790(4)
_cell_length_c                   14.532(6)
_cell_angle_alpha                112.694(11)
_cell_angle_beta                 95.567(13)
_cell_angle_gamma                97.10(2)
_cell_volume                     1600.99
loop_
_atom_site_label
_atom_site_type_symbol
_atom_site_fract_x
_atom_site_fract_y
_atom_site_fract_z
Fe1 Fe 0.5000 0.5000 1.0000
Fe2 Fe -0.5000 0.0000 1.0000
Fe3 Fe -1.5000 0.0000 0.5000
Au1 Au 0.0036(3) 0.2277(2) 0.9616(2)
Au2 Au 0.1043(4) 0.7065(2) 1.2259(2)
Au3 Au -1.0095(3) 0.0096(2) 0.7607(2)
O1 O -1.589(6) 0.098(4) 0.624(3)
N1 N 0.322(7) 0.376(4) 0.985(4)
N2 N 0.371(7) 0.599(4) 1.107(4)
N3 N -0.144(5) 0.817(3) 1.342(3)
N4 N 0.314(12) 0.360(6) 0.522(4)
N5 N -0.323(8) 0.095(5) 0.971(4)
N6 N -0.705(7) 0.020(4) 0.906(4)
N7 N -1.003(5) 0.261(5) 1.254(5)
N8 N -1.294(7) -0.025(4) 0.592(4)
N9 N -1.334(13) 0.475(5) 0.623(7)
C1 C 0.224(7) 0.314(4) 0.978(4)
C2 C 0.245(9) 0.636(5) 1.155(6)
C3 C -0.081(4) 0.760(3) 1.281(3)
N10 N 0.330(5) 0.508(3) 0.870(3)
C4 C 0.194(6) 0.554(4) 0.893(3)
H1 H 0.1758 0.5828 0.9593
C5 C 0.084(5) 0.557(4) 0.816(4)
H2 H -0.0078 0.5881 0.8307
C6 C 0.110(6) 0.514(4) 0.716(4)
H3 H 0.0366 0.5160 0.6645
C7 C 0.247(7) 0.468(4) 0.694(3)
C8 C 0.357(5) 0.464(3) 0.771(4)
H4 H 0.4481 0.4333 0.7556
C9 C 0.284(11) 0.409(6) 0.604(4)
C10 C -0.206(7) 0.137(4) 0.962(4)
C11 C -0.816(8) 0.017(5) 0.859(5)
N11 N -0.532(5) 0.134(2) 1.134(3)
C12 C -0.392(4) 0.200(3) 1.197(3)
H5 H -0.2873 0.1873 1.1837
C13 C -0.410(4) 0.284(3) 1.280(3)
H6 H -0.3167 0.3273 1.3218
C14 C -0.567(5) 0.302(3) 1.299(3)
H7 H -0.5789 0.3581 1.3548
C15 C -0.707(4) 0.237(3) 1.237(3)
C16 C -0.689(4) 0.153(3) 1.154(3)
H8 H -0.7824 0.1088 1.1118
C17 C -0.862(4) 0.256(4) 1.242(5)
C18 C -1.189(6) -0.003(4) 0.666(4)
N12 N -1.337(5) 0.128(3) 0.494(3)
C19 C -1.189(5) 0.113(3) 0.457(3)
H9 H -1.1625 0.0492 0.4332
C20 C -1.080(4) 0.192(4) 0.456(3)
H10 H -0.9810 0.1817 0.4319
C21 C -1.120(5) 0.287(3) 0.492(4)
H11 H -1.0472 0.3401 0.4917
C22 C -1.268(6) 0.303(3) 0.529(4)
C23 C -1.377(4) 0.223(3) 0.530(3)
H12 H -1.4763 0.2337 0.5542
C24 C -1.298(16) 0.397(4) 0.572(9)
C25 C -1.511(10) 0.120(6) 0.730(6)
Fe2_2 Fe 1.5000 1.0000 1.0000
Fe3_2 Fe 0.5000 0.0000 1.5000
Au1A Au 0.9964(3) 0.7723(2) 1.0384(2)
Au2A Au 0.8957(4) 0.2935(2) 0.7741(2)
Au3A Au 0.0095(3) -0.0096(2) 1.2393(2)
O1A O -1.411(6) -0.098(4) 0.376(3)
N1A N 0.678(7) 0.624(4) 1.015(4)
N2A N 0.629(7) 0.401(4) 0.893(4)
N3A N 1.144(5) 0.183(3) 0.658(3)
N4A N 0.686(12) 0.640(6) 1.478(4)
N5A N 1.323(8) 0.905(5) 1.029(4)
N5A_2 N -0.677(8) -0.095(5) 1.029(4)
N6A N -0.295(7) -0.020(4) 1.094(4)
N7A N 0.003(5) -0.261(5) 0.746(5)
N8A N 0.294(7) 0.025(4) 1.408(4)
N8A_2 N -1.706(7) 0.025(4) 0.408(4)
N9A N -1.666(13) -0.475(5) 0.377(7)
C1A C 0.776(7) 0.686(4) 1.022(4)
C2A C 0.755(9) 0.364(5) 0.845(6)
C3A C 1.081(4) 0.240(3) 0.719(3)
N10A N 0.670(5) 0.492(3) 1.130(3)
C4A C 0.806(6) 0.446(4) 1.107(3)
H1A H 0.8242 0.4172 1.0407
C5A C 0.916(5) 0.443(4) 1.184(4)
H2A H 1.0078 0.4119 1.1693
C6A C 0.890(6) 0.486(4) 1.284(4)
H3A H 0.9634 0.4840 1.3355
C7A C 0.753(7) 0.532(4) 1.306(3)
C8A C 0.643(5) 0.536(3) 1.229(4)
H4A H 0.5519 0.5667 1.2444
C9A C 0.716(11) 0.591(6) 1.396(4)
C10A C 1.206(7) 0.863(4) 1.038(4)
C11A C -0.184(8) -0.017(5) 1.141(5)
N11A N -0.468(5) -0.134(2) 0.866(3)
C12A C -0.608(4) -0.200(3) 0.803(3)
H5A H -0.7127 -0.1873 0.8163
C13A C -0.590(4) -0.284(3) 0.720(3)
H6A H -0.6833 -0.3273 0.6782
C14A C -0.433(5) -0.302(3) 0.701(3)
H7A H -0.4211 -0.3581 0.6452
C15A C -0.293(4) -0.237(3) 0.763(3)
C16A C -0.311(4) -0.153(3) 0.846(3)
H8A H -0.2176 -0.1088 0.8882
C17A C -0.138(4) -0.256(4) 0.758(5)
C18A C 0.189(6) 0.003(4) 1.334(4)
N12A N -1.663(5) -0.128(3) 0.506(3)
C19A C -1.811(5) -0.113(3) 0.543(3)
H9A H -1.8375 -0.0492 0.5668
C20A C -1.920(4) -0.192(4) 0.544(3)
H10A H -2.0190 -0.1817 0.5681
C21A C -1.880(5) -0.287(3) 0.508(4)
H11A H -1.9528 -0.3401 0.5083
C22A C -1.732(6) -0.303(3) 0.471(4)
C23A C -1.623(4) -0.223(3) 0.470(3)
H12A H -1.5237 -0.2337 0.4458
C24A C -1.702(16) -0.397(4) 0.428(9)
C25A C -1.489(10) -0.120(6) 0.270(6)
loop_
_geom_bond_atom_site_label_1
_geom_bond_atom_site_label_2
_geom_bond_site_symmetry_1
_geom_bond_site_symmetry_2
Fe1 N1 1_555 1_555
Fe2 N5 1_555 1_555
Fe3 O1 1_555 1_555
Au1 C1 1_555 1_555
Au2 C2 1_555 1_555
Au3 C11 1_555 1_555
O1 C25 1_555 1_555
N1 C1 1_555 1_555
N2 Fe1 1_555 1_555
N3 C3 1_555 1_555
N4 C9 1_555 1_555
N5 C10 1_555 1_555
N6 Fe2 1_555 1_555
N7 C17 1_555 1_555
N8 Fe3 1_555 1_555
N9 C24 1_555 1_555
C2 N2 1_555 1_555
C3 Au2 1_555 1_555
N10 Fe1 1_555 1_555
C4 N10 1_555 1_555
H1 C4 1_555 1_555
C5 C4 1_555 1_555
H2 C5 1_555 1_555
C6 C5 1_555 1_555
H3 C6 1_555 1_555
C7 C6 1_555 1_555
C8 N10 1_555 1_555
H4 C8 1_555 1_555
C9 C7 1_555 1_555
C10 Au1 1_555 1_555
C11 N6 1_555 1_555
N11 Fe2 1_555 1_555
C12 N11 1_555 1_555
H5 C12 1_555 1_555
C13 C12 1_555 1_555
H6 C13 1_555 1_555
C14 C13 1_555 1_555
H7 C14 1_555 1_555
C15 C14 1_555 1_555
C16 N11 1_555 1_555
H8 C16 1_555 1_555
C17 C15 1_555 1_555
C18 Au3 1_555 1_555
N12 Fe3 1_555 1_555
C19 N12 1_555 1_555
H9 C19 1_555 1_555
C20 C19 1_555 1_555
H10 C20 1_555 1_555
C21 C20 1_555 1_555
H11 C21 1_555 1_555
C22 C21 1_555 1_555
C23 N12 1_555 1_555
H12 C23 1_555 1_555
C24 C22 1_555 1_555
Fe2_2 N5A 1_555 1_555
Fe3_2 N8A 1_555 1_555
Au1A C1A 1_555 1_555
Au2A C2A 1_555 1_555
Au3A C11A 1_555 1_555
O1A Fe3 1_555 1_555
N1A Fe1 1_555 1_555
N2A Fe1 1_555 1_555
N3A C3A 1_555 1_555
N4A C9A 1_555 1_555
N5A C10A 1_555 1_555
N5A_2 Fe2 1_555 1_555
N6A Fe2 1_555 1_555
N7A C17A 1_555 1_555
N8A C18A 1_555 1_555
N8A_2 Fe3 1_555 1_555
N9A C24A 1_555 1_555
C1A N1A 1_555 1_555
C2A N2A 1_555 1_555
C3A Au2A 1_555 1_555
N10A Fe1 1_555 1_555
C4A N10A 1_555 1_555
H1A C4A 1_555 1_555
C5A C4A 1_555 1_555
H2A C5A 1_555 1_555
C6A C5A 1_555 1_555
H3A C6A 1_555 1_555
C7A C6A 1_555 1_555
C8A N10A 1_555 1_555
H4A C8A 1_555 1_555
C9A C7A 1_555 1_555
C10A Au1A 1_555 1_555
C11A N6A 1_555 1_555
N11A Fe2 1_555 1_555
C12A N11A 1_555 1_555
H5A C12A 1_555 1_555
C13A C12A 1_555 1_555
H6A C13A 1_555 1_555
C14A C13A 1_555 1_555
H7A C14A 1_555 1_555
C15A C14A 1_555 1_555
C16A N11A 1_555 1_555
H8A C16A 1_555 1_555
C17A C15A 1_555 1_555
C18A Au3A 1_555 1_555
N12A Fe3 1_555 1_555
C19A N12A 1_555 1_555
H9A C19A 1_555 1_555
C20A C19A 1_555 1_555
H10A C20A 1_555 1_555
C21A C20A 1_555 1_555
H11A C21A 1_555 1_555
C22A C21A 1_555 1_555
C23A N12A 1_555 1_555
H12A C23A 1_555 1_555
C24A C22A 1_555 1_555
C25A O1A 1_555 1_555
N8 C18 1_555 1_555
C7 C8 1_555 1_555
C15 C16 1_555 1_555
C22 C23 1_555 1_555
C7A C8A 1_555 1_555
C15A C16A 1_555 1_555
C22A C23A 1_555 1_555

#END
