
#######################################################################
#
#                 Cambridge Crystallographic Data Centre
#                                CCDC 
#
#######################################################################
#
# If this CIF has been generated from an entry in the Cambridge 
# Structural Database, then it will include bibliographic, chemical, 
# crystal, experimental, refinement or atomic coordinate data resulting 
# from the CCDC's data processing and validation procedures.
#
#######################################################################

data_SEQLOQ
_symmetry_cell_setting           orthorhombic
_symmetry_space_group_name_H-M   'F d d d'
_symmetry_Int_Tables_number      70
_space_group_name_Hall           '-F 2uv 2vw'
loop_
_symmetry_equiv_pos_site_id
_symmetry_equiv_pos_as_xyz
1 x,y,z
2 x,1/2+y,1/2+z
3 x,1/4-y,1/4-z
4 1/2+x,y,1/2+z
5 1/4-x,y,1/4-z
6 1/2+x,1/2+y,z
7 1/4-x,1/4-y,z
8 3/4-x,3/4-y,z
9 3/4-x,y,3/4-z
10 x,3/4-y,3/4-z
11 3/4-x,1/4-y,1/2+z
12 3/4-x,1/2+y,1/4-z
13 1/4-x,3/4-y,1/2+z
14 1/2+x,3/4-y,1/4-z
15 1/4-x,1/2+y,3/4-z
16 1/2+x,1/4-y,3/4-z
17 -x,-y,-z
18 -x,1/2-y,1/2-z
19 -x,3/4+y,3/4+z
20 1/2-x,-y,1/2-z
21 3/4+x,-y,3/4+z
22 1/2-x,1/2-y,-z
23 3/4+x,3/4+y,-z
24 1/4+x,1/4+y,-z
25 1/4+x,-y,1/4+z
26 -x,1/4+y,1/4+z
27 1/4+x,3/4+y,1/2-z
28 1/4+x,1/2-y,3/4+z
29 3/4+x,1/4+y,1/2-z
30 1/2-x,1/4+y,3/4+z
31 3/4+x,1/2-y,1/4+z
32 1/2-x,3/4+y,1/4+z
_cell_length_a                   16.607(5)
_cell_length_b                   28.742(9)
_cell_length_c                   52.334(16)
_cell_angle_alpha                90
_cell_angle_beta                 90
_cell_angle_gamma                90
_cell_volume                     24980
loop_
_atom_site_label
_atom_site_type_symbol
_atom_site_fract_x
_atom_site_fract_y
_atom_site_fract_z
Ag1 Ag 1.1250 0.55405(7) 0.6250
Ag2 Ag 0.8750 0.3750 0.72767(6)
N1 N 1.2381(7) 0.5843(5) 0.6026(3)
C1 C 1.2414(13) 0.6161(6) 0.5839(4)
H1 H 1.1918 0.6294 0.5786
C2 C 1.3071(14) 0.6308(7) 0.5724(4)
H2 H 1.3050 0.6525 0.5587
C3 C 1.3867(11) 0.6113(8) 0.5821(5)
H3 H 1.4364 0.6221 0.5753
C4 C 1.3853(9) 0.5800(7) 0.5994(4)
H4 H 1.4340 0.5662 0.6052
C5 C 1.3098(10) 0.5660(6) 0.6102(3)
N2 N 1.2410(7) 0.5179(4) 0.6401(2)
N3 N 1.2606(5) 0.4867(4) 0.6585(3)
C6 C 1.3392(9) 0.4819(6) 0.6597(3)
H5 H 1.3661 0.4617 0.6713
C7 C 1.3773(8) 0.5097(6) 0.6424(3)
H6 H 1.4331 0.5135 0.6391
C8 C 1.3077(10) 0.5321(6) 0.6305(3)
C9 C 1.1939(10) 0.4636(5) 0.6730(3)
H7 H 1.1546 0.4506 0.6607
H8 H 1.2165 0.4374 0.6830
C10 C 1.1519(10) 0.4952(6) 0.6904(3)
C11 C 1.0715(9) 0.4953(5) 0.6923(3)
H9 H 1.0421 0.4754 0.6812
C12 C 1.0289(10) 0.5222(6) 0.7091(3)
C13 C 1.0669(13) 0.5545(7) 0.7237(4)
H10 H 1.0387 0.5751 0.7347
C14 C 1.1553(15) 0.5551(10) 0.7213(5)
H11 H 1.1857 0.5771 0.7308
C15 C 1.1928(12) 0.5257(9) 0.7062(5)
H12 H 1.2500 0.5254 0.7061
C16 C 0.7702(11) 0.4506(8) 0.6801(4)
H13 H 0.8105 0.4322 0.6705
H14 H 0.7365 0.4677 0.6676
C17 C 0.8103(11) 0.4831(7) 0.6963(4)
C18 C 0.7716(12) 0.5133(9) 0.7133(6)
H15 H 0.7145 0.5159 0.7134
C19 C 0.8199(17) 0.5401(9) 0.7303(6)
H16 H 0.7939 0.5544 0.7444
C20 C 0.8956(15) 0.5461(8) 0.7279(5)
H17 H 0.9225 0.5691 0.7378
C21 C 0.9379(9) 0.5190(5) 0.7109(3)
C22 C 0.8974(10) 0.4872(6) 0.6966(3)
H18 H 0.9278 0.4665 0.6863
N4 N 0.7493(7) 0.3897(5) 0.7126(3)
N5 N 0.7177(8) 0.4183(7) 0.6956(4)
C23 C 0.6391(9) 0.4187(9) 0.6936(5)
H19 H 0.6064 0.4374 0.6829
C24 C 0.6160(10) 0.3859(9) 0.7108(5)
H20 H 0.5620 0.3769 0.7140
C25 C 0.6880(11) 0.3663(8) 0.7236(5)
N6 N 0.7791(11) 0.3302(7) 0.7522(5)
C26 C 0.7031(13) 0.3328(9) 0.7446(5)
C27 C 0.6396(16) 0.3078(12) 0.7556(7)
H21 H 0.5866 0.3163 0.7506
C28 C 0.646(2) 0.2761(15) 0.7711(8)
H22 H 0.6029 0.2565 0.7764
C29 C 0.730(3) 0.2725(12) 0.7802(8)
H23 H 0.7415 0.2489 0.7923
C30 C 0.793(2) 0.3014(12) 0.7724(8)
H24 H 0.8434 0.3009 0.7808
Ag2D Ag 1.3750 0.3750 0.52233(6)
N1D N 1.0119(7) 0.5843(5) 0.6474(3)
C1D C 1.0086(13) 0.6161(6) 0.6661(4)
H1D H 1.0582 0.6294 0.6714
C2D C 0.9429(14) 0.6308(7) 0.6776(4)
H2D H 0.9450 0.6525 0.6913
C3D C 0.8633(11) 0.6113(8) 0.6679(5)
H3D H 0.8136 0.6221 0.6747
C4D C 0.8647(9) 0.5800(7) 0.6506(4)
H4D H 0.8160 0.5662 0.6448
C5D C 0.9402(10) 0.5660(6) 0.6398(3)
N2D N 1.0090(7) 0.5179(4) 0.6099(2)
N3D N 0.9894(5) 0.4867(4) 0.5915(3)
C6D C 0.9108(9) 0.4819(6) 0.5903(3)
H5D H 0.8839 0.4617 0.5787
C7D C 0.8727(8) 0.5097(6) 0.6076(3)
H6D H 0.8169 0.5135 0.6109
C8D C 0.9423(10) 0.5321(6) 0.6195(3)
C9D C 1.0561(10) 0.4636(5) 0.5770(3)
H7D H 1.0954 0.4506 0.5893
H8D H 1.0335 0.4374 0.5670
C10D C 1.0981(10) 0.4952(6) 0.5596(3)
C11D C 1.1785(9) 0.4953(5) 0.5577(3)
H9D H 1.2079 0.4754 0.5688
C12D C 1.2211(10) 0.5222(6) 0.5409(3)
C13D C 1.1831(13) 0.5545(7) 0.5263(4)
H10D H 1.2113 0.5751 0.5153
C14D C 1.0947(15) 0.5551(10) 0.5287(5)
H11D H 1.0643 0.5771 0.5192
C15D C 1.0572(12) 0.5257(9) 0.5438(5)
H12D H 1.0000 0.5254 0.5439
C16D C 1.4798(11) 0.4506(8) 0.5699(4)
H13D H 1.4395 0.4322 0.5795
H14D H 1.5135 0.4677 0.5824
C17D C 1.4397(11) 0.4831(7) 0.5537(4)
C18D C 1.4784(12) 0.5133(9) 0.5367(6)
H15D H 1.5355 0.5159 0.5366
C19D C 1.4301(17) 0.5401(9) 0.5197(6)
H16D H 1.4561 0.5544 0.5056
C20D C 1.3544(15) 0.5461(8) 0.5221(5)
H17D H 1.3275 0.5691 0.5122
C21D C 1.3121(9) 0.5190(5) 0.5391(3)
C22D C 1.3526(10) 0.4872(6) 0.5534(3)
H18D H 1.3222 0.4665 0.5637
N4D N 1.5007(7) 0.3897(5) 0.5374(3)
N4G N 1.0007(7) 0.3603(5) 0.7126(3)
N5D N 1.5323(8) 0.4183(7) 0.5544(4)
C23D C 1.6109(9) 0.4187(9) 0.5564(5)
H19D H 1.6436 0.4374 0.5671
C24D C 1.6340(10) 0.3859(9) 0.5392(5)
H20D H 1.6880 0.3769 0.5360
C25D C 1.5620(11) 0.3663(8) 0.5264(5)
N6D N 1.4709(11) 0.3302(7) 0.4978(5)
N6G N 0.9709(11) 0.4198(7) 0.7522(5)
C26D C 1.5469(13) 0.3328(9) 0.5054(5)
C27D C 1.6104(16) 0.3078(12) 0.4944(7)
H21D H 1.6634 0.3163 0.4994
C28D C 1.604(2) 0.2761(15) 0.4789(8)
H22D H 1.6471 0.2565 0.4736
C29D C 1.520(3) 0.2725(12) 0.4698(8)
H23D H 1.5085 0.2489 0.4577
C30D C 1.457(2) 0.3014(12) 0.4776(8)
H24D H 1.4066 0.3009 0.4692
C31 C 0.5113(17) 0.1091(10) 0.8661(5)
H25 H 0.5542 0.1181 0.8542
H26 H 0.4608 0.1050 0.8567
H27 H 0.5258 0.0799 0.8745
N7 N 0.5011(13) 0.1452(8) 0.8852(4)
O1 O 0.4381(16) 0.1496(13) 0.8952(7)
O2 O 0.5590(16) 0.1646(10) 0.8923(4)
B1 B 0.1250 0.1250 0.9589(4)
F1 F 0.1751(8) 0.1035(6) 0.9421(3)
F2 F 0.1733(8) 0.1535(6) 0.9715(3)
F1F F 0.0749(8) 0.1465(6) 0.9421(3)
F2F F 0.0767(8) 0.0965(6) 0.9715(3)
B2 B 0.8750 0.2510(13) 0.8750
F3 F 0.9147(13) 0.2384(10) 0.8986(5)
F4 F 0.9338(8) 0.2842(8) 0.8678(4)
F3H F 0.8353(13) 0.2384(10) 0.8514(5)
F4H F 0.8162(8) 0.2842(8) 0.8822(4)
loop_
_geom_bond_atom_site_label_1
_geom_bond_atom_site_label_2
_geom_bond_site_symmetry_1
_geom_bond_site_symmetry_2
Ag1 N1 1_555 1_555
Ag2 N4 1_555 1_555
N1 C1 1_555 1_555
C1 H1 1_555 1_555
C2 C1 1_555 1_555
H2 C2 1_555 1_555
C3 C2 1_555 1_555
H3 C3 1_555 1_555
C4 C3 1_555 1_555
H4 C4 1_555 1_555
C5 N1 1_555 1_555
N2 Ag1 1_555 1_555
N3 N2 1_555 1_555
C6 N3 1_555 1_555
H5 C6 1_555 1_555
C7 C6 1_555 1_555
H6 C7 1_555 1_555
C8 C5 1_555 1_555
C9 N3 1_555 1_555
H7 C9 1_555 1_555
H8 C9 1_555 1_555
C10 C9 1_555 1_555
C11 C10 1_555 1_555
H9 C11 1_555 1_555
C12 C11 1_555 1_555
C13 C12 1_555 1_555
H10 C13 1_555 1_555
C14 C13 1_555 1_555
H11 C14 1_555 1_555
C15 C10 1_555 1_555
H12 C15 1_555 1_555
C16 H13 1_555 1_555
H14 C16 1_555 1_555
C17 C16 1_555 1_555
C18 C17 1_555 1_555
H15 C18 1_555 1_555
C19 C18 1_555 1_555
H16 C19 1_555 1_555
C20 C19 1_555 1_555
H17 C20 1_555 1_555
C21 C12 1_555 1_555
C22 C17 1_555 1_555
H18 C22 1_555 1_555
N4 N5 1_555 1_555
N5 C16 1_555 1_555
C23 N5 1_555 1_555
H19 C23 1_555 1_555
C24 C23 1_555 1_555
H20 C24 1_555 1_555
C25 N4 1_555 1_555
N6 Ag2 1_555 1_555
C26 C25 1_555 1_555
C27 C26 1_555 1_555
H21 C27 1_555 1_555
C28 C27 1_555 1_555
H22 C28 1_555 1_555
C29 C28 1_555 1_555
H23 C29 1_555 1_555
C30 N6 1_555 1_555
H24 C30 1_555 1_555
C31 H25 1_555 1_555
H26 C31 1_555 1_555
H27 C31 1_555 1_555
N7 C31 1_555 1_555
O1 N7 1_555 1_555
O2 N7 1_555 1_555
B1 F1 1_555 1_555
F2 B1 1_555 1_555
B2 F3 1_555 1_555
F4 B2 1_555 1_555
Ag2D N4D 1_555 1_555
N1D Ag1 1_555 1_555
C1D N1D 1_555 1_555
H1D C1D 1_555 1_555
C2D C1D 1_555 1_555
H2D C2D 1_555 1_555
C3D C2D 1_555 1_555
H3D C3D 1_555 1_555
C4D C3D 1_555 1_555
H4D C4D 1_555 1_555
C5D N1D 1_555 1_555
N2D Ag1 1_555 1_555
N3D N2D 1_555 1_555
C6D N3D 1_555 1_555
H5D C6D 1_555 1_555
C7D C6D 1_555 1_555
H6D C7D 1_555 1_555
C8D C5D 1_555 1_555
C9D N3D 1_555 1_555
H7D C9D 1_555 1_555
H8D C9D 1_555 1_555
C10D C9D 1_555 1_555
C11D C10D 1_555 1_555
H9D C11D 1_555 1_555
C12D C11D 1_555 1_555
C13D C12D 1_555 1_555
H10D C13D 1_555 1_555
C14D C13D 1_555 1_555
H11D C14D 1_555 1_555
C15D C10D 1_555 1_555
H12D C15D 1_555 1_555
C16D H13D 1_555 1_555
H14D C16D 1_555 1_555
C17D C16D 1_555 1_555
C18D C17D 1_555 1_555
H15D C18D 1_555 1_555
C19D C18D 1_555 1_555
H16D C19D 1_555 1_555
C20D C19D 1_555 1_555
H17D C20D 1_555 1_555
C21D C12D 1_555 1_555
C22D C17D 1_555 1_555
H18D C22D 1_555 1_555
N4D N5D 1_555 1_555
N4G Ag2 1_555 1_555
N5D C16D 1_555 1_555
C23D N5D 1_555 1_555
H19D C23D 1_555 1_555
C24D C23D 1_555 1_555
H20D C24D 1_555 1_555
C25D N4D 1_555 1_555
N6D Ag2D 1_555 1_555
N6G Ag2 1_555 1_555
C26D C25D 1_555 1_555
C27D C26D 1_555 1_555
H21D C27D 1_555 1_555
C28D C27D 1_555 1_555
H22D C28D 1_555 1_555
C29D C28D 1_555 1_555
H23D C29D 1_555 1_555
C30D N6D 1_555 1_555
H24D C30D 1_555 1_555
F1F B1 1_555 1_555
F2F B1 1_555 1_555
F3H B2 1_555 1_555
F4H B2 1_555 1_555
C4 C5 1_555 1_555
N2 C8 1_555 1_555
C7 C8 1_555 1_555
C14 C15 1_555 1_555
C20 C21 1_555 1_555
C21 C22 1_555 1_555
C24 C25 1_555 1_555
N6 C26 1_555 1_555
C29 C30 1_555 1_555
C4D C5D 1_555 1_555
N2D C8D 1_555 1_555
C7D C8D 1_555 1_555
C14D C15D 1_555 1_555
C20D C21D 1_555 1_555
C21D C22D 1_555 1_555
C24D C25D 1_555 1_555
N6D C26D 1_555 1_555
C29D C30D 1_555 1_555

#END
