
#######################################################################
#
#                 Cambridge Crystallographic Data Centre
#                                CCDC 
#
#######################################################################
#
# If this CIF has been generated from an entry in the Cambridge 
# Structural Database, then it will include bibliographic, chemical, 
# crystal, experimental, refinement or atomic coordinate data resulting 
# from the CCDC's data processing and validation procedures.
#
#######################################################################

data_SEQMUW
_symmetry_cell_setting           monoclinic
_symmetry_space_group_name_H-M   'P 21/c'
_symmetry_Int_Tables_number      14
_space_group_name_Hall           '-P 2ybc'
loop_
_symmetry_equiv_pos_site_id
_symmetry_equiv_pos_as_xyz
1 x,y,z
2 -x,1/2+y,1/2-z
3 -x,-y,-z
4 x,1/2-y,1/2+z
_cell_length_a                   11.062(4)
_cell_length_b                   12.069(6)
_cell_length_c                   22.68(2)
_cell_angle_alpha                90
_cell_angle_beta                 99.51(4)
_cell_angle_gamma                90
_cell_volume                     2986.33
loop_
_atom_site_label
_atom_site_type_symbol
_atom_site_fract_x
_atom_site_fract_y
_atom_site_fract_z
C28 C 0.037(3) -0.037(2) 1.052(1)
C29 C 0.109(3) 0.046(3) 1.037(1)
C30 C -0.069(2) -0.079(3) 1.019(1)
Br1 Br 0.0824(4) -0.0999(4) 1.1326(2)
H25 H -0.1173 -0.1390 1.0351
H26 H 0.1786 0.0728 1.0646
C30B C 0.069(2) 0.079(3) 0.981(1)
C28B C -0.037(3) 0.037(2) 0.948(1)
C29B C -0.109(3) -0.046(3) 0.963(1)
H26B H -0.1786 -0.0728 0.9354
Br1B Br -0.0824(4) 0.0999(4) 0.8674(2)
H25B H 0.1173 0.1390 0.9649
O1 O 0.701(1) -0.229(1) 0.1877(7)
O2 O 0.725(2) -0.178(2) 0.1024(6)
O3 O -0.176(2) -1.316(2) 0.1447(9)
O4 O 0.403(2) 0.063(2) 0.1237(8)
O5 O 0.532(2) 0.049(2) 0.0615(8)
O6 O -0.622(2) -0.841(2) 0.0434(9)
N1 N 0.501(2) 0.072(2) 0.7601(7)
N2 N 0.425(2) -0.195(2) 0.105(1)
N3 N -0.271(2) -0.950(2) 0.1702(8)
N4 N 0.751(2) -0.242(2) 0.1447(8)
N5 N 0.446(3) 0.082(3) 0.075(1)
Cd1 Cd 0.4306(2) 0.0727(2) 0.85124(8)
C1 C 0.420(2) -0.290(3) 0.132(1)
C2 C 0.330(3) -0.366(2) 0.113(1)
C3 C 0.249(2) -0.353(2) 0.060(1)
C4 C 0.260(2) -0.257(2) 0.031(1)
C5 C 0.345(2) -0.183(2) 0.056(1)
C6 C 0.153(2) -0.433(2) 0.033(1)
C7 C 0.116(3) -0.514(3) 0.077(1)
C8 C 0.162(2) -0.613(2) 0.083(1)
C9 C 0.150(3) -0.691(2) 0.131(1)
C10 C 0.063(2) -0.661(2) 0.168(1)
C11 C 0.010(2) -0.560(3) 0.162(1)
C12 C 0.037(3) -0.488(2) 0.117(1)
C13 C -0.245(3) -0.905(2) 0.222(1)
C14 C -0.142(3) -0.838(2) 0.239(1)
C15 C -0.070(3) -0.802(3) 0.201(1)
C16 C -0.112(3) -0.849(3) 0.143(1)
C17 C -0.213(2) -0.914(3) 0.134(1)
C18 C 0.039(3) -0.730(3) 0.217(1)
C19 C 0.453(3) 0.148(3) 0.723(1)
C20 C 0.496(3) 0.159(2) 0.669(1)
C21 C 0.592(3) 0.102(2) 0.658(1)
C22 C 0.649(3) 0.026(3) 0.699(1)
C23 C 0.595(2) 0.014(2) 0.750(1)
C24 C 0.659(3) 0.113(3) 0.600(1)
C25 C 0.572(2) 0.052(2) 0.545(1)
C26 C 0.474(3) 0.110(2) 0.511(1)
C27 C 0.597(2) -0.057(3) 0.537(1)
H1 H 0.4755 -0.3086 0.1672
H2 H 0.3242 -0.4328 0.1338
H3 H 0.2100 -0.2400 -0.0062
H4 H 0.3485 -0.1108 0.0373
H5 H 0.1834 -0.4720 0.0040
H6 H 0.0830 -0.3914 0.0185
H7 H 0.2063 -0.6428 0.0557
H8 H 0.1867 -0.7645 0.1335
H9 H -0.0459 -0.5305 0.1878
H10 H 0.0035 -0.4143 0.1137
H11 H -0.2942 -0.9156 0.2523
H12 H -0.144 -0.8187 0.2792
H13 H -0.2372 -0.9358 0.0946
H14 H -0.0663 -0.8335 0.1120
H15 H 0.0981 -0.7646 0.2462
H16 H 0.0156 -0.6600 0.2372
H17 H 0.3877 0.1948 0.7304
H18 H 0.4576 0.2054 0.6374
H19 H 0.7202 -0.0118 0.6912
H20 H 0.6283 -0.0422 0.7785
H21 H 0.6746 0.1887 0.5881
H22 H 0.4657 0.1922 0.5215
H23 H 0.7420 0.0774 0.6047
H24 H 0.6624 -0.0942 0.5627
C27B C 0.403(2) 0.057(3) 0.463(1)
C25B C 0.428(2) -0.052(2) 0.455(1)
C24B C 0.341(3) -0.113(3) 0.400(1)
C21B C 0.408(3) -0.102(2) 0.342(1)
C20B C 0.504(3) -0.159(2) 0.331(1)
C19B C 0.547(3) -0.148(3) 0.277(1)
N1B N 0.499(2) -0.072(2) 0.2399(7)
Cd1B Cd 0.5694(2) -0.0727(2) 0.14876(8)
Cd1B_2 Cd -0.4306(2) -1.0727(2) 0.14876(8)
O1_2 O -0.299(1) -1.229(1) 0.1877(7)
N4_2 N -0.249(2) -1.242(2) 0.1447(8)
O2_2 O -0.275(2) -1.178(2) 0.1024(6)
O4_2 O -0.597(2) -0.937(2) 0.1237(8)
N5_2 N -0.554(3) -0.918(3) 0.075(1)
O5_2 O -0.468(2) -0.951(2) 0.0615(8)
N1B_2 N -0.501(2) -1.072(2) 0.2399(7)
C19B_2 C -0.453(3) -1.148(3) 0.277(1)
C20B_2 C -0.496(3) -1.159(2) 0.331(1)
C21B_2 C -0.592(3) -1.102(2) 0.342(1)
C22B C -0.649(3) -1.026(3) 0.301(1)
C23B C -0.595(2) -1.014(2) 0.250(1)
H20B H -0.6283 -0.9578 0.2215
H19B H -0.7202 -0.9882 0.3088
C24B_2 C -0.659(3) -1.113(3) 0.400(1)
C25B_2 C -0.572(2) -1.052(2) 0.455(1)
C26B C -0.474(3) -1.110(2) 0.489(1)
C27_2 C -0.403(2) -1.057(3) 0.537(1)
C25_2 C -0.428(2) -0.948(2) 0.545(1)
C24_2 C -0.341(3) -0.887(3) 0.600(1)
C21_2 C -0.408(3) -0.898(2) 0.658(1)
C20_2 C -0.504(3) -0.841(2) 0.669(1)
C19_2 C -0.547(3) -0.852(3) 0.723(1)
N1_2 N -0.499(2) -0.928(2) 0.7601(7)
Cd1_2 Cd -0.5694(2) -0.9273(2) 0.85124(8)
C23_2 C -0.405(2) -0.986(2) 0.750(1)
C22_2 C -0.351(3) -0.974(3) 0.699(1)
H19_2 H -0.2798 -1.0118 0.6912
H20_2 H -0.3717 -1.0422 0.7785
H17_2 H -0.6123 -0.8052 0.7304
H18_2 H -0.5424 -0.7946 0.6374
H21_2 H -0.3254 -0.8113 0.5881
H23_2 H -0.2580 -0.9226 0.6047
C26_2 C -0.526(3) -0.890(2) 0.511(1)
H24_2 H -0.3376 -1.0942 0.5627
H22B H -0.4657 -1.1922 0.4785
C27B_2 C -0.597(2) -0.943(3) 0.463(1)
H21B H -0.6746 -1.1887 0.4119
H23B H -0.7420 -1.0774 0.3953
H18B H -0.4576 -1.2054 0.3626
H17B H -0.3877 -1.1948 0.2696
N2_2 N -0.575(2) -1.195(2) 0.105(1)
N3_2 N 0.729(2) 0.050(2) 0.1702(8)
O6_2 O 0.378(2) 0.159(2) 0.0434(9)
O3_2 O 0.824(2) -0.316(2) 0.1447(9)
C23B_2 C 0.405(2) -0.014(2) 0.250(1)
C22B_2 C 0.351(3) -0.026(3) 0.301(1)
H19B_2 H 0.2798 0.0118 0.3088
H20B_2 H 0.3717 0.0422 0.2215
H17B_2 H 0.6123 -0.1948 0.2696
H18B_2 H 0.5424 -0.2054 0.3626
H21B_2 H 0.3254 -0.1887 0.4119
H23B_2 H 0.2580 -0.0774 0.3953
C26B_2 C 0.526(3) -0.110(2) 0.489(1)
H24B H 0.3376 0.0942 0.4373
H24B_2 H -0.6624 -0.9058 0.4373
H22_2 H -0.5343 -0.8078 0.5215
loop_
_geom_bond_atom_site_label_1
_geom_bond_atom_site_label_2
_geom_bond_site_symmetry_1
_geom_bond_site_symmetry_2
O1 N4 1_555 1_555
O2 N4 1_555 1_555
O3 N4_2 1_555 1_555
O4 N5 1_555 1_555
O5 N5 1_555 1_555
O6 N5_2 1_555 1_555
N1 Cd1 1_555 1_555
N2 C1 1_555 1_555
N3 C13 1_555 1_555
N4 O3_2 1_555 1_555
N5 O6_2 1_555 1_555
C1 C2 1_555 1_555
C2 C3 1_555 1_555
C3 C4 1_555 1_555
C4 C5 1_555 1_555
C5 N2 1_555 1_555
C6 C3 1_555 1_555
C7 C6 1_555 1_555
C8 C7 1_555 1_555
C9 C8 1_555 1_555
C10 C9 1_555 1_555
C11 C10 1_555 1_555
C12 C7 1_555 1_555
C13 C14 1_555 1_555
C14 C15 1_555 1_555
C15 C16 1_555 1_555
C16 C17 1_555 1_555
C17 N3 1_555 1_555
C18 C10 1_555 1_555
C19 N1 1_555 1_555
C20 C19 1_555 1_555
C21 C20 1_555 1_555
C22 C21 1_555 1_555
C23 N1 1_555 1_555
C24 C21 1_555 1_555
C25 C24 1_555 1_555
C26 C25 1_555 1_555
C27 C25 1_555 1_555
C28 C29 1_555 1_555
C29 H26 1_555 1_555
C30 C28 1_555 1_555
Br1 C28 1_555 1_555
H1 C1 1_555 1_555
H2 C2 1_555 1_555
H3 C4 1_555 1_555
H4 C5 1_555 1_555
H5 C6 1_555 1_555
H6 C6 1_555 1_555
H7 C8 1_555 1_555
H8 C9 1_555 1_555
H9 C11 1_555 1_555
H10 C12 1_555 1_555
H11 C13 1_555 1_555
H12 C14 1_555 1_555
H13 C17 1_555 1_555
H14 C16 1_555 1_555
H15 C18 1_555 1_555
H16 C18 1_555 1_555
H17 C19 1_555 1_555
H18 C20 1_555 1_555
H19 C22 1_555 1_555
H20 C23 1_555 1_555
H21 C24 1_555 1_555
H22 C26 1_555 1_555
H23 C24 1_555 1_555
H24 C27 1_555 1_555
H25 C30 1_555 1_555
C27B C26 1_555 1_555
C25B C27B 1_555 1_555
C24B C25B 1_555 1_555
C21B C24B 1_555 1_555
C20B C21B 1_555 1_555
C19B C20B 1_555 1_555
N1B C19B 1_555 1_555
Cd1B O1 1_555 1_555
Cd1B_2 N3 1_555 1_555
O1_2 Cd1B_2 1_555 1_555
N4_2 O1_2 1_555 1_555
O2_2 Cd1B_2 1_555 1_555
O4_2 Cd1B_2 1_555 1_555
N5_2 O4_2 1_555 1_555
O5_2 Cd1B_2 1_555 1_555
N1B_2 Cd1B_2 1_555 1_555
C19B_2 N1B_2 1_555 1_555
C20B_2 C19B_2 1_555 1_555
C21B_2 C20B_2 1_555 1_555
C22B C21B_2 1_555 1_555
C23B N1B_2 1_555 1_555
H20B C23B 1_555 1_555
H19B C22B 1_555 1_555
C24B_2 C21B_2 1_555 1_555
C25B_2 C24B_2 1_555 1_555
C26B C25B_2 1_555 1_555
C27_2 C26B 1_555 1_555
C25_2 C27_2 1_555 1_555
C24_2 C25_2 1_555 1_555
C21_2 C24_2 1_555 1_555
C20_2 C21_2 1_555 1_555
C19_2 C20_2 1_555 1_555
N1_2 C19_2 1_555 1_555
Cd1_2 N1_2 1_555 1_555
C23_2 N1_2 1_555 1_555
C22_2 C21_2 1_555 1_555
H19_2 C22_2 1_555 1_555
H20_2 C23_2 1_555 1_555
H17_2 C19_2 1_555 1_555
H18_2 C20_2 1_555 1_555
H21_2 C24_2 1_555 1_555
H23_2 C24_2 1_555 1_555
C26_2 C25_2 1_555 1_555
H24_2 C27_2 1_555 1_555
H22B C26B 1_555 1_555
C27B_2 C25B_2 1_555 1_555
H21B C24B_2 1_555 1_555
H23B C24B_2 1_555 1_555
H18B C20B_2 1_555 1_555
H17B C19B_2 1_555 1_555
N2_2 Cd1B_2 1_555 1_555
N3_2 Cd1B 1_555 1_555
C23B_2 N1B 1_555 1_555
C22B_2 C21B 1_555 1_555
H19B_2 C22B_2 1_555 1_555
H20B_2 C23B_2 1_555 1_555
H17B_2 C19B 1_555 1_555
H18B_2 C20B 1_555 1_555
H21B_2 C24B 1_555 1_555
H23B_2 C24B 1_555 1_555
C26B_2 C27 1_555 1_555
H24B C27B 1_555 1_555
C30B C29 1_555 1_555
C28B C30B 1_555 1_555
C29B C30 1_555 1_555
H26B C29B 1_555 1_555
Br1B C28B 1_555 1_555
H25B C30B 1_555 1_555
H24B_2 C27B_2 1_555 1_555
H22_2 C26_2 1_555 1_555
O2 Cd1B 1_555 1_555
O4 Cd1B 1_555 1_555
O5 Cd1B 1_555 1_555
N2 Cd1B 1_555 1_555
C11 C12 1_555 1_555
C15 C18 1_555 1_555
C22 C23 1_555 1_555
C25B C26B_2 1_555 1_555
N1B Cd1B 1_555 1_555
N4_2 O2_2 1_555 1_555
N5_2 O5_2 1_555 1_555
C22B C23B 1_555 1_555
C23_2 C22_2 1_555 1_555
C26_2 C27B_2 1_555 1_555
C23B_2 C22B_2 1_555 1_555
C28B C29B 1_555 1_555

#END
