
#######################################################################
#
#                 Cambridge Crystallographic Data Centre
#                                CCDC 
#
#######################################################################
#
# If this CIF has been generated from an entry in the Cambridge 
# Structural Database, then it will include bibliographic, chemical, 
# crystal, experimental, refinement or atomic coordinate data resulting 
# from the CCDC's data processing and validation procedures.
#
#######################################################################

data_SEQMIK
_symmetry_cell_setting           monoclinic
_symmetry_space_group_name_H-M   'P 21/n'
_symmetry_Int_Tables_number      14
_space_group_name_Hall           '-P 2yn'
loop_
_symmetry_equiv_pos_site_id
_symmetry_equiv_pos_as_xyz
1 x,y,z
2 1/2-x,1/2+y,1/2-z
3 -x,-y,-z
4 1/2+x,1/2-y,1/2+z
_cell_length_a                   7.729(1)
_cell_length_b                   26.347(1)
_cell_length_c                   10.420(1)
_cell_angle_alpha                90
_cell_angle_beta                 95.78(1)
_cell_angle_gamma                90
_cell_volume                     2111.1
loop_
_atom_site_label
_atom_site_type_symbol
_atom_site_fract_x
_atom_site_fract_y
_atom_site_fract_z
O1 O 0.574(1) 0.1396(3) -0.0001(9)
O2 O 0.663(1) 0.2078(3) 0.0956(8)
O3 O 0.4273(9) 0.1758(2) 0.1433(6)
O4 O 0.847(2) 0.2743(4) 0.3062(10)
O5 O 0.693(1) 0.3191(4) 0.204(1)
O6 O 0.959(1) 0.3217(4) 0.186(1)
O7 O 0.4376(10) 0.3098(2) 0.4261(6)
O8 O 0.2066(9) 0.2309(3) 0.3130(8)
N1 N 0.3261(8) 0.3004(2) 0.1075(6)
N2 N 0.554(1) 0.1733(3) 0.0781(7)
N3 N 0.1203(8) 0.3003(2) -0.0748(6)
N4 N 0.837(1) 0.3062(3) 0.2257(9)
C1 C 0.361(1) 0.5144(4) -0.3270(8)
C2 C 0.362(1) 0.4614(3) -0.3231(8)
C3 C 0.324(1) 0.4354(3) -0.2190(8)
C4 C 0.2810(10) 0.4612(3) -0.1050(7)
C5 C 0.286(1) 0.5155(3) -0.1045(8)
C6 C 0.325(1) 0.5409(3) -0.2226(9)
C7 C 0.254(1) 0.5419(3) 0.0039(8)
C8 C 0.2161(10) 0.5184(3) 0.1148(8)
C9 C 0.202(1) 0.4636(3) 0.1159(7)
C10 C 0.2388(9) 0.4357(3) 0.0080(7)
C11 C 0.152(1) 0.4412(3) 0.2336(8)
C12 C 0.121(1) 0.4691(4) 0.3354(8)
C13 C 0.138(1) 0.5224(4) 0.3351(9)
C14 C 0.182(1) 0.5458(3) 0.2301(9)
C15 C 0.2336(10) 0.3794(3) 0.0092(7)
C16 C 0.3339(10) 0.3515(3) 0.1016(7)
C17 C 0.220(1) 0.2772(3) 0.0197(7)
C18 C 0.125(1) 0.3511(3) -0.0771(7)
C19 C 0.521(2) 0.3568(5) 0.464(1)
C20 C 0.142(2) 0.1881(5) 0.360(2)
Cd1 Cd 0.48886(7) 0.25207(2) 0.26349(5)
H1 H 0.3918 0.4435 -0.3961
H2 H 0.3831 0.5310 -0.4035
H3 H 0.3244 0.5770 -0.2263
H4 H 0.2587 0.5778 0.0018
H5 H 0.1920 0.5815 0.2310
H6 H 0.1202 0.5408 0.4094
H7 H 0.0875 0.4534 0.4095
H8 H 0.1390 0.4053 0.2389
H9 H 0.3274 0.3991 -0.2206
H10 H 0.4114 0.3688 0.1620
H11 H 0.0730 0.3691 -0.1488
H12 H 0.2097 0.2414 0.0204
H13 H 0.6397 0.3496 0.4883
H14 H 0.5101 0.3786 0.3912
H15 H 0.4676 0.3706 0.5322
H16 H 0.0251 0.1933 0.3679
H17 H 0.1618 0.1623 0.3019
H18 H 0.2060 0.1824 0.4412
H19 H 0.3434 0.3005 0.4754
H20 H 0.1224 0.2578 0.2973
N3C N 0.6203(8) 0.1997(2) 0.4252(6)
Cd1C Cd -0.01114(7) 0.24793(2) -0.23651(5)
loop_
_geom_bond_atom_site_label_1
_geom_bond_atom_site_label_2
_geom_bond_site_symmetry_1
_geom_bond_site_symmetry_2
O1 N2 1_555 1_555
O2 N2 1_555 1_555
O3 N2 1_555 1_555
O4 N4 1_555 1_555
O5 N4 1_555 1_555
O6 N4 1_555 1_555
O7 C19 1_555 1_555
O8 C20 1_555 1_555
N1 C16 1_555 1_555
N3 C17 1_555 1_555
C1 C2 1_555 1_555
C2 C3 1_555 1_555
C3 C4 1_555 1_555
C4 C5 1_555 1_555
C5 C6 1_555 1_555
C6 C1 1_555 1_555
C7 C5 1_555 1_555
C8 C7 1_555 1_555
C9 C8 1_555 1_555
C10 C4 1_555 1_555
C11 C9 1_555 1_555
C12 C11 1_555 1_555
C13 C12 1_555 1_555
C14 C8 1_555 1_555
C15 C10 1_555 1_555
C16 C15 1_555 1_555
C17 N1 1_555 1_555
C18 N3 1_555 1_555
C19 H13 1_555 1_555
C20 H16 1_555 1_555
Cd1 O3 1_555 1_555
H1 C2 1_555 1_555
H2 C1 1_555 1_555
H3 C6 1_555 1_555
H4 C7 1_555 1_555
H5 C14 1_555 1_555
H6 C13 1_555 1_555
H7 C12 1_555 1_555
H8 C11 1_555 1_555
H9 C3 1_555 1_555
H10 C16 1_555 1_555
H11 C18 1_555 1_555
H12 C17 1_555 1_555
H14 C19 1_555 1_555
H15 C19 1_555 1_555
H17 C20 1_555 1_555
H18 C20 1_555 1_555
H19 O7 1_555 1_555
H20 O8 1_555 1_555
N3C Cd1 1_555 1_555
Cd1C N3 1_555 1_555
O5 Cd1 1_555 1_555
O7 Cd1 1_555 1_555
O8 Cd1 1_555 1_555
N1 Cd1 1_555 1_555
C9 C10 1_555 1_555
C13 C14 1_555 1_555
C15 C18 1_555 1_555

#END
