
#######################################################################
#
#                 Cambridge Crystallographic Data Centre
#                                CCDC 
#
#######################################################################
#
# If this CIF has been generated from an entry in the Cambridge 
# Structural Database, then it will include bibliographic, chemical, 
# crystal, experimental, refinement or atomic coordinate data resulting 
# from the CCDC's data processing and validation procedures.
#
#######################################################################

data_SEQMAD
_symmetry_cell_setting           triclinic
_symmetry_space_group_name_H-M   'P -1'
_symmetry_Int_Tables_number      2
_space_group_name_Hall           '-P 1'
loop_
_symmetry_equiv_pos_site_id
_symmetry_equiv_pos_as_xyz
1 x,y,z
2 -x,-y,-z
_cell_length_a                   16.281(11)
_cell_length_b                   18.300(12)
_cell_length_c                   23.280(15)
_cell_angle_alpha                72.910(6)
_cell_angle_beta                 78.379(6)
_cell_angle_gamma                76.302(6)
_cell_volume                     6376.01
loop_
_atom_site_label
_atom_site_type_symbol
_atom_site_fract_x
_atom_site_fract_y
_atom_site_fract_z
Ag1 Ag 0.91026(11) 0.28494(8) 0.40611(7)
Ag2 Ag 1.48404(10) -0.19215(8) 0.17931(7)
Ag3 Ag 0.49126(10) 0.67722(8) 0.31347(7)
Ag4 Ag 1.17763(11) 0.27523(9) 0.12345(8)
N1 N 0.3596(5) 0.6767(6) 0.2883(4)
C1 C 0.3495(6) 0.6059(5) 0.2826(5)
C2 C 0.2752(7) 0.6004(6) 0.2648(5)
H1 H 0.2683 0.5520 0.2609
C3 C 0.2109(6) 0.6657(8) 0.2527(6)
H2 H 0.1600 0.6619 0.2405
C4 C 0.2209(6) 0.7364(6) 0.2584(6)
H3 H 0.1769 0.7811 0.2501
C5 C 0.2952(7) 0.7419(5) 0.2762(5)
H4 H 0.3021 0.7903 0.2801
N2 N 0.4886(6) 0.5513(4) 0.3132(5)
N3 N 0.5447(5) 0.4779(5) 0.3230(5)
C6 C 0.5044(7) 0.4237(4) 0.3117(6)
H5 H 0.5276 0.3701 0.3149
C7 C 0.4233(7) 0.4637(6) 0.2948(6)
H6 H 0.3827 0.4415 0.2847
C8 C 0.4135(5) 0.5426(5) 0.2957(6)
N4 N 0.3704(5) 0.2926(5) 0.7109(4)
C9 C 0.3484(6) 0.2592(6) 0.6711(4)
C10 C 0.2699(6) 0.2361(7) 0.6829(5)
H7 H 0.2548 0.2133 0.6557
C11 C 0.2134(5) 0.2464(7) 0.7345(5)
H8 H 0.1598 0.2307 0.7426
C12 C 0.2355(6) 0.2798(7) 0.7744(4)
H9 H 0.1969 0.2869 0.8097
C13 C 0.3139(7) 0.3029(6) 0.7625(4)
H10 H 0.3290 0.3257 0.7898
N5 N 0.4854(6) 0.2747(6) 0.6122(4)
N6 N 0.5338(5) 0.2580(7) 0.5580(4)
C14 C 0.4866(8) 0.2194(8) 0.5352(4)
H11 H 0.5038 0.2015 0.4995
C15 C 0.4090(7) 0.2122(8) 0.5753(6)
H12 H 0.3652 0.1886 0.5711
C16 C 0.4083(5) 0.2464(7) 0.6229(4)
N7 N 1.0267(6) 0.1930(5) 0.4387(5)
C17 C 1.0297(7) 0.1188(6) 0.4333(6)
C18 C 1.0957(8) 0.0584(5) 0.4535(6)
H13 H 1.0977 0.0076 0.4499
C19 C 1.1586(7) 0.0723(6) 0.4792(7)
H14 H 1.2037 0.0310 0.4930
C20 C 1.1557(8) 0.1466(7) 0.4846(7)
H15 H 1.1987 0.1561 0.5021
C21 C 1.0897(8) 0.2069(5) 0.4644(6)
H16 H 1.0876 0.2577 0.4681
N8 N 0.8944(6) 0.1691(4) 0.3960(5)
N9 N 0.8388(5) 0.1418(6) 0.3708(5)
C22 C 0.8761(7) 0.0643(6) 0.3679(7)
H17 H 0.8525 0.0319 0.3529
C23 C 0.9548(7) 0.0437(5) 0.3914(6)
H18 H 0.9932 -0.0049 0.3948
C24 C 0.9662(6) 0.1084(6) 0.4087(5)
C25 C 0.6242(9) 0.4688(8) 0.3385(9)
H19 H 0.6227 0.5053 0.3630
H20 H 0.6657 0.4811 0.3012
C26 C 0.6164(9) 0.2702(11) 0.5398(6)
H21 H 0.6557 0.2227 0.5584
H22 H 0.6231 0.3131 0.5553
C27 C 0.7646(9) 0.1882(8) 0.3511(7)
H23 H 0.7235 0.1541 0.3555
H24 H 0.7777 0.2130 0.3072
C28 C 0.6524(7) 0.3853(4) 0.3748(4)
C29 C 0.6226(7) 0.3665(5) 0.4367(4)
C30 C 0.6420(7) 0.2902(5) 0.4714(3)
C31 C 0.6912(7) 0.2328(4) 0.4443(4)
C32 C 0.7210(6) 0.2516(4) 0.3825(4)
C33 C 0.7016(7) 0.3278(5) 0.3477(3)
C34 C 0.5594(14) 0.4263(11) 0.4672(9)
H25 H 0.5885 0.4671 0.4678
H26 H 0.5384 0.4000 0.5089
H27 H 0.5112 0.4497 0.4443
C35 C 0.7089(13) 0.1452(8) 0.4813(8)
H28 H 0.7169 0.1116 0.4539
H29 H 0.6602 0.1346 0.5129
H30 H 0.7605 0.1346 0.5002
C36 C 0.7344(15) 0.3494(12) 0.2793(7)
H31 H 0.7427 0.4034 0.2665
H32 H 0.6925 0.3436 0.2568
H33 H 0.7888 0.3148 0.2710
N10 N 1.4628(7) -0.2971(5) 0.1527(5)
C37 C 1.3898(7) -0.2881(5) 0.1269(5)
C38 C 1.3735(8) -0.3501(7) 0.1108(6)
H34 H 1.3236 -0.3440 0.0933
C39 C 1.4301(9) -0.4211(6) 0.1204(6)
H35 H 1.4189 -0.4635 0.1094
C40 C 1.5030(8) -0.4301(5) 0.1462(6)
H36 H 1.5417 -0.4786 0.1527
C41 C 1.5194(7) -0.3681(6) 0.1623(5)
H37 H 1.5692 -0.3742 0.1798
N11 N 1.3543(6) -0.1566(6) 0.1371(5)
N12 N 1.2876(8) -0.0908(5) 0.1247(6)
C42 C 1.2277(8) -0.1106(7) 0.0979(7)
H38 H 1.1767 -0.0775 0.0850
C43 C 1.2575(9) -0.1886(7) 0.0938(8)
H39 H 1.2299 -0.2169 0.0776
C44 C 1.3357(8) -0.2170(5) 0.1180(6)
N13 N 1.1180(7) 0.4055(5) 0.1130(6)
C45 C 1.0401(8) 0.4289(6) 0.0910(6)
C46 C 0.9990(7) 0.5064(7) 0.0810(6)
H40 H 0.9458 0.5224 0.0659
C47 C 1.0359(9) 0.5605(5) 0.0930(7)
H41 H 1.0078 0.6135 0.0862
C48 C 1.1138(10) 0.5371(7) 0.1151(8)
H42 H 1.1390 0.5741 0.1233
C49 C 1.1549(8) 0.4596(8) 0.1251(7)
H43 H 1.2081 0.4436 0.1401
N14 N 1.0524(6) 0.2963(6) 0.0872(5)
N15 N 1.0029(8) 0.2529(5) 0.0712(6)
C50 C 0.9251(8) 0.3031(8) 0.0558(8)
H44 H 0.8800 0.2894 0.0434
C51 C 0.9266(8) 0.3776(7) 0.0622(8)
H45 H 0.8826 0.4224 0.0548
C52 C 1.0053(8) 0.3734(6) 0.0816(6)
N16 N 1.5139(7) 0.1226(6) -0.2492(4)
C53 C 1.4437(6) 0.0868(7) -0.2374(4)
C54 C 1.4339(7) 0.0460(7) -0.2765(6)
H46 H 1.3859 0.0215 -0.2685
C55 C 1.4942(9) 0.0409(7) -0.3275(5)
H47 H 1.4875 0.0129 -0.3542
C56 C 1.5644(8) 0.0767(7) -0.3392(4)
H48 H 1.6056 0.0732 -0.3741
C57 C 1.5742(6) 0.1175(6) -0.3001(5)
H49 H 1.6222 0.1420 -0.3082
N17 N 1.3967(6) 0.1374(6) -0.1476(5)
N18 N 1.3253(7) 0.1365(7) -0.1011(4)
C58 C 1.2708(7) 0.0926(9) -0.1111(6)
H50 H 1.2183 0.0825 -0.0869
C59 C 1.3086(9) 0.0665(9) -0.1639(6)
H51 H 1.2858 0.0358 -0.1811
C60 C 1.3864(8) 0.0942(8) -0.1864(4)
C61 C 1.2853(14) -0.0250(7) 0.1423(8)
H52 H 1.3439 -0.0216 0.1455
H53 H 1.2506 -0.0280 0.1828
C62 C 1.0300(9) 0.1757(9) 0.0735(10)
H54 H 1.0052 0.1648 0.0420
H55 H 1.0052 0.1456 0.1133
C63 C 1.3151(12) 0.1763(9) -0.0577(6)
H56 H 1.2878 0.2311 -0.0739
H57 H 1.3718 0.1759 -0.0484
C64 C 1.2472(7) 0.0468(6) 0.0970(4)
C65 C 1.1614(6) 0.0802(7) 0.1080(4)
C66 C 1.1252(5) 0.1437(7) 0.0649(5)
C67 C 1.1749(6) 0.1740(6) 0.0109(4)
C68 C 1.2607(6) 0.1407(6) 0.0000(4)
C69 C 1.2968(5) 0.0771(6) 0.0431(5)
C70 C 1.1049(14) 0.0496(13) 0.1687(8)
H58 H 1.0603 0.0926 0.1782
H59 H 1.1405 0.0283 0.2014
H60 H 1.0784 0.0088 0.1650
C71 C 1.1328(11) 0.2424(10) -0.0383(7)
H61 H 1.0732 0.2388 -0.0363
H62 H 1.1638 0.2395 -0.0786
H63 H 1.1351 0.2920 -0.0312
C72 C 1.3899(9) 0.0318(13) 0.0304(10)
H64 H 1.4177 0.0183 0.0668
H65 H 1.4222 0.0646 -0.0034
H66 H 1.3884 -0.0159 0.0199
N19 N 0.8252(7) 0.3606(5) 0.4699(4)
C73 C 0.8044(7) 0.4394(5) 0.4411(3)
C74 C 0.7577(8) 0.4914(5) 0.4743(5)
H67 H 0.7435 0.5452 0.4546
C75 C 0.7316(9) 0.4647(7) 0.5362(5)
H68 H 0.6997 0.5002 0.5588
C76 C 0.7524(10) 0.3859(7) 0.5649(3)
H69 H 0.7346 0.3677 0.6072
C77 C 0.7991(9) 0.3339(5) 0.5318(4)
H70 H 0.8133 0.2801 0.5514
N20 N 0.8852(7) 0.4081(4) 0.3497(4)
N21 N 0.9035(7) 0.4474(5) 0.2876(3)
C78 C 0.8597(8) 0.5259(5) 0.2794(4)
H71 H 0.8605 0.5654 0.2422
C79 C 0.8143(8) 0.5351(5) 0.3365(4)
H72 H 0.7795 0.5817 0.3442
C80 C 0.8301(7) 0.4622(6) 0.3799(3)
N22 N 1.3202(6) 0.2523(6) 0.0778(5)
C81 C 1.3724(7) 0.1915(7) 0.1132(4)
C82 C 1.4595(7) 0.1745(8) 0.0933(6)
H73 H 1.4951 0.1330 0.1175
C83 C 1.4944(6) 0.2184(10) 0.0382(6)
H74 H 1.5539 0.2068 0.0246
C84 C 1.4422(9) 0.2792(9) 0.0028(5)
H75 H 1.4660 0.3091 -0.0349
C85 C 1.3551(8) 0.2961(7) 0.0227(5)
H76 H 1.3194 0.3377 -0.0015
N23 N 1.2490(6) 0.1800(5) 0.1894(4)
N24 N 1.2261(5) 0.1276(6) 0.2458(4)
C86 C 1.2982(7) 0.0674(6) 0.2588(5)
H77 H 1.3008 0.0245 0.2938
C87 C 1.3657(5) 0.0826(6) 0.2104(5)
H78 H 1.4214 0.0517 0.2073
C88 C 1.3353(6) 0.1522(6) 0.1675(4)
N25 N 1.1273(8) 0.3565(9) 0.5803(7)
C89 C 1.1012(9) 0.3758(9) 0.5235(6)
C90 C 1.0155(10) 0.4042(10) 0.5173(6)
H79 H 0.9976 0.4174 0.4785
C91 C 0.9559(7) 0.4135(10) 0.5678(8)
H80 H 0.8973 0.4330 0.5635
C92 C 0.9820(10) 0.3943(11) 0.6245(6)
H81 H 0.9413 0.4007 0.6590
C93 C 1.0677(12) 0.3658(10) 0.6308(5)
H82 H 1.0855 0.3527 0.6696
N26 N 1.1543(7) 0.3751(8) 0.4279(6)
N27 N 1.2315(8) 0.3522(8) 0.3911(5)
C94 C 1.2969(7) 0.3214(9) 0.4287(7)
H83 H 1.3550 0.3017 0.4159
C95 C 1.2600(9) 0.3251(10) 0.4887(6)
H84 H 1.2892 0.3083 0.5231
C96 C 1.1719(9) 0.3583(10) 0.4882(5)
C97 C 0.9588(10) 0.4095(9) 0.2485(6)
H85 H 0.9764 0.4494 0.2118
H86 H 0.9265 0.3787 0.2358
C98 C 1.1491(9) 0.1435(7) 0.2825(7)
H87 H 1.1523 0.1081 0.3237
H88 H 1.1030 0.1328 0.2660
C99 C 1.2389(12) 0.3579(13) 0.3302(8)
H89 H 1.2954 0.3277 0.3180
H90 H 1.2387 0.4131 0.3081
C100 C 1.0393(6) 0.3553(5) 0.2698(5)
C101 C 1.0532(6) 0.2779(6) 0.2684(5)
C102 C 1.1265(7) 0.2269(4) 0.2873(6)
C103 C 1.1859(6) 0.2533(6) 0.3075(6)
C104 C 1.1720(7) 0.3307(7) 0.3089(6)
C105 C 1.0987(8) 0.3817(5) 0.2900(6)
C106 C 0.9891(10) 0.2440(9) 0.2467(8)
H91 H 0.9925 0.1888 0.2680
H92 H 1.0036 0.2494 0.2029
H93 H 0.9310 0.2725 0.2555
C107 C 1.2675(11) 0.1988(12) 0.3332(11)
H94 H 1.3179 0.2073 0.3028
H95 H 1.2614 0.1444 0.3427
H96 H 1.2741 0.2109 0.3702
C108 C 1.0837(16) 0.4703(8) 0.2862(12)
H97 H 1.0287 0.4963 0.2720
H98 H 1.1297 0.4932 0.2577
H99 H 1.0832 0.4772 0.3265
Ag2A Ag 1.51596(10) 0.19215(8) -0.17931(7)
Ag3A Ag 0.50874(10) 0.32278(8) 0.68653(7)
N4A N 0.6296(5) 0.7074(5) 0.2891(4)
N5A N 0.5146(6) 0.7253(6) 0.3878(4)
N16A N 1.4861(7) -0.1226(6) 0.2492(4)
N17A N 1.6033(6) -0.1374(6) 0.1476(5)
B1 B 0.8096(10) 0.0996(8) 0.6349(7)
F1 F 0.8844(9) 0.1070(9) 0.5961(9)
F2 F 0.7577(8) 0.1709(6) 0.6257(5)
F3 F 0.7711(9) 0.0490(7) 0.6218(6)
F4 F 0.8249(13) 0.0755(9) 0.6932(7)
B2 B 0.5195(12) 0.2062(11) 0.3404(10)
F5 F 0.5132(14) 0.1450(12) 0.3238(11)
F6 F 0.531(2) 0.1849(18) 0.3983(10)
F7 F 0.5859(11) 0.2356(11) 0.3068(10)
F8 F 0.4496(13) 0.2597(13) 0.3332(15)
loop_
_geom_bond_atom_site_label_1
_geom_bond_atom_site_label_2
_geom_bond_site_symmetry_1
_geom_bond_site_symmetry_2
Ag1 N7 1_555 1_555
Ag2 N10 1_555 1_555
Ag3 N1 1_555 1_555
Ag4 N13 1_555 1_555
N1 C1 1_555 1_555
C1 C2 1_555 1_555
C2 H1 1_555 1_555
C3 C2 1_555 1_555
H2 C3 1_555 1_555
C4 C3 1_555 1_555
H3 C4 1_555 1_555
C5 N1 1_555 1_555
H4 C5 1_555 1_555
N2 Ag3 1_555 1_555
N3 N2 1_555 1_555
C6 N3 1_555 1_555
H5 C6 1_555 1_555
C7 C6 1_555 1_555
H6 C7 1_555 1_555
C8 C1 1_555 1_555
N4 C9 1_555 1_555
C9 C10 1_555 1_555
C10 H7 1_555 1_555
C11 C10 1_555 1_555
H8 C11 1_555 1_555
C12 C11 1_555 1_555
H9 C12 1_555 1_555
C13 N4 1_555 1_555
H10 C13 1_555 1_555
N5 N6 1_555 1_555
N6 C14 1_555 1_555
C14 H11 1_555 1_555
C15 C14 1_555 1_555
H12 C15 1_555 1_555
C16 C9 1_555 1_555
N7 C17 1_555 1_555
C17 C18 1_555 1_555
C18 H13 1_555 1_555
C19 C18 1_555 1_555
H14 C19 1_555 1_555
C20 C19 1_555 1_555
H15 C20 1_555 1_555
C21 N7 1_555 1_555
H16 C21 1_555 1_555
N8 Ag1 1_555 1_555
N9 N8 1_555 1_555
C22 N9 1_555 1_555
H17 C22 1_555 1_555
C23 C22 1_555 1_555
H18 C23 1_555 1_555
C24 C17 1_555 1_555
C25 N3 1_555 1_555
H19 C25 1_555 1_555
H20 C25 1_555 1_555
C26 N6 1_555 1_555
H21 C26 1_555 1_555
H22 C26 1_555 1_555
C27 N9 1_555 1_555
H23 C27 1_555 1_555
H24 C27 1_555 1_555
C28 C25 1_555 1_555
C29 C28 1_555 1_555
C30 C26 1_555 1_555
C31 C30 1_555 1_555
C32 C27 1_555 1_555
C33 C28 1_555 1_555
C34 C29 1_555 1_555
H25 C34 1_555 1_555
H26 C34 1_555 1_555
H27 C34 1_555 1_555
C35 C31 1_555 1_555
H28 C35 1_555 1_555
H29 C35 1_555 1_555
H30 C35 1_555 1_555
C36 C33 1_555 1_555
H31 C36 1_555 1_555
H32 C36 1_555 1_555
H33 C36 1_555 1_555
N10 C37 1_555 1_555
C37 C38 1_555 1_555
C38 H34 1_555 1_555
C39 C38 1_555 1_555
H35 C39 1_555 1_555
C40 C39 1_555 1_555
H36 C40 1_555 1_555
C41 N10 1_555 1_555
H37 C41 1_555 1_555
N11 Ag2 1_555 1_555
N12 N11 1_555 1_555
C42 N12 1_555 1_555
H38 C42 1_555 1_555
C43 C42 1_555 1_555
H39 C43 1_555 1_555
C44 C37 1_555 1_555
N13 C45 1_555 1_555
C45 C46 1_555 1_555
C46 H40 1_555 1_555
C47 C46 1_555 1_555
H41 C47 1_555 1_555
C48 C47 1_555 1_555
H42 C48 1_555 1_555
C49 N13 1_555 1_555
H43 C49 1_555 1_555
N14 Ag4 1_555 1_555
N15 N14 1_555 1_555
C50 N15 1_555 1_555
H44 C50 1_555 1_555
C51 C50 1_555 1_555
H45 C51 1_555 1_555
C52 C45 1_555 1_555
N16 C53 1_555 1_555
C53 C54 1_555 1_555
C54 H46 1_555 1_555
C55 C54 1_555 1_555
H47 C55 1_555 1_555
C56 C55 1_555 1_555
H48 C56 1_555 1_555
C57 N16 1_555 1_555
H49 C57 1_555 1_555
N17 N18 1_555 1_555
N18 C58 1_555 1_555
C58 H50 1_555 1_555
C59 C58 1_555 1_555
H51 C59 1_555 1_555
C60 C53 1_555 1_555
C61 N12 1_555 1_555
H52 C61 1_555 1_555
H53 C61 1_555 1_555
C62 N15 1_555 1_555
H54 C62 1_555 1_555
H55 C62 1_555 1_555
C63 N18 1_555 1_555
H56 C63 1_555 1_555
H57 C63 1_555 1_555
C64 C61 1_555 1_555
C65 C64 1_555 1_555
C66 C62 1_555 1_555
C67 C66 1_555 1_555
C68 C63 1_555 1_555
C69 C64 1_555 1_555
C70 C65 1_555 1_555
H58 C70 1_555 1_555
H59 C70 1_555 1_555
H60 C70 1_555 1_555
C71 C67 1_555 1_555
H61 C71 1_555 1_555
H62 C71 1_555 1_555
H63 C71 1_555 1_555
C72 C69 1_555 1_555
H64 C72 1_555 1_555
H65 C72 1_555 1_555
H66 C72 1_555 1_555
N19 Ag1 1_555 1_555
C73 N19 1_555 1_555
C74 C73 1_555 1_555
H67 C74 1_555 1_555
C75 C74 1_555 1_555
H68 C75 1_555 1_555
C76 C75 1_555 1_555
H69 C76 1_555 1_555
C77 N19 1_555 1_555
H70 C77 1_555 1_555
N20 Ag1 1_555 1_555
N21 N20 1_555 1_555
C78 N21 1_555 1_555
H71 C78 1_555 1_555
C79 C78 1_555 1_555
H72 C79 1_555 1_555
C80 C73 1_555 1_555
N22 Ag4 1_555 1_555
C81 N22 1_555 1_555
C82 C81 1_555 1_555
H73 C82 1_555 1_555
C83 C82 1_555 1_555
H74 C83 1_555 1_555
C84 C83 1_555 1_555
H75 C84 1_555 1_555
C85 N22 1_555 1_555
H76 C85 1_555 1_555
N23 Ag4 1_555 1_555
N24 N23 1_555 1_555
C86 N24 1_555 1_555
H77 C86 1_555 1_555
C87 C86 1_555 1_555
H78 C87 1_555 1_555
C88 C81 1_555 1_555
N25 C89 1_555 1_555
C89 C90 1_555 1_555
C90 H79 1_555 1_555
C91 C90 1_555 1_555
H80 C91 1_555 1_555
C92 C91 1_555 1_555
H81 C92 1_555 1_555
C93 N25 1_555 1_555
H82 C93 1_555 1_555
N26 N27 1_555 1_555
N27 C94 1_555 1_555
C94 H83 1_555 1_555
C95 C94 1_555 1_555
H84 C95 1_555 1_555
C96 C89 1_555 1_555
C97 N21 1_555 1_555
H85 C97 1_555 1_555
H86 C97 1_555 1_555
C98 N24 1_555 1_555
H87 C98 1_555 1_555
H88 C98 1_555 1_555
C99 N27 1_555 1_555
H89 C99 1_555 1_555
H90 C99 1_555 1_555
C100 C97 1_555 1_555
C101 C100 1_555 1_555
C102 C98 1_555 1_555
C103 C102 1_555 1_555
C104 C99 1_555 1_555
C105 C100 1_555 1_555
C106 C101 1_555 1_555
H91 C106 1_555 1_555
H92 C106 1_555 1_555
H93 C106 1_555 1_555
C107 C103 1_555 1_555
H94 C107 1_555 1_555
H95 C107 1_555 1_555
H96 C107 1_555 1_555
C108 C105 1_555 1_555
H97 C108 1_555 1_555
H98 C108 1_555 1_555
H99 C108 1_555 1_555
B1 F1 1_555 1_555
F2 B1 1_555 1_555
F3 B1 1_555 1_555
F4 B1 1_555 1_555
B2 F5 1_555 1_555
F6 B2 1_555 1_555
F7 B2 1_555 1_555
F8 B2 1_555 1_555
Ag2A N16 1_555 1_555
Ag3A N4 1_555 1_555
N4A Ag3 1_555 1_555
N5A Ag3 1_555 1_555
N16A Ag2 1_555 1_555
N17A Ag2 1_555 1_555
C4 C5 1_555 1_555
N2 C8 1_555 1_555
C7 C8 1_555 1_555
C12 C13 1_555 1_555
N5 C16 1_555 1_555
N5 Ag3A 1_555 1_555
C15 C16 1_555 1_555
C20 C21 1_555 1_555
N8 C24 1_555 1_555
C23 C24 1_555 1_555
C29 C30 1_555 1_555
C31 C32 1_555 1_555
C32 C33 1_555 1_555
C40 C41 1_555 1_555
N11 C44 1_555 1_555
C43 C44 1_555 1_555
C48 C49 1_555 1_555
N14 C52 1_555 1_555
C51 C52 1_555 1_555
C56 C57 1_555 1_555
N17 C60 1_555 1_555
N17 Ag2A 1_555 1_555
C59 C60 1_555 1_555
C65 C66 1_555 1_555
C67 C68 1_555 1_555
C68 C69 1_555 1_555
C76 C77 1_555 1_555
N20 C80 1_555 1_555
C79 C80 1_555 1_555
C84 C85 1_555 1_555
N23 C88 1_555 1_555
C87 C88 1_555 1_555
C92 C93 1_555 1_555
N26 C96 1_555 1_555
C95 C96 1_555 1_555
C101 C102 1_555 1_555
C103 C104 1_555 1_555
C104 C105 1_555 1_555

#END
