
#######################################################################
#
#                 Cambridge Crystallographic Data Centre
#                                CCDC 
#
#######################################################################
#
# If this CIF has been generated from an entry in the Cambridge 
# Structural Database, then it will include bibliographic, chemical, 
# crystal, experimental, refinement or atomic coordinate data resulting 
# from the CCDC's data processing and validation procedures.
#
#######################################################################

data_SEQRUD
_symmetry_cell_setting           trigonal
_symmetry_space_group_name_H-M   'P -3 1 c'
_symmetry_Int_Tables_number      163
_space_group_name_Hall           "-P 3 2'c"
loop_
_symmetry_equiv_pos_site_id
_symmetry_equiv_pos_as_xyz
1 x,y,z
2 -y,x-y,z
3 -x+y,-x,z
4 -y,-x,1/2-z
5 x,x-y,1/2-z
6 -x+y,y,1/2-z
7 -x,-y,-z
8 y,-x+y,-z
9 x-y,x,-z
10 y,x,1/2+z
11 -x,-x+y,1/2+z
12 x-y,-y,1/2+z
_cell_length_a                   16.5254(3)
_cell_length_b                   16.5254(3)
_cell_length_c                   14.0982(6)
_cell_angle_alpha                90
_cell_angle_beta                 90
_cell_angle_gamma                120
_cell_volume                     3334.25
loop_
_atom_site_label
_atom_site_type_symbol
_atom_site_fract_x
_atom_site_fract_y
_atom_site_fract_z
C1 C 0.08594(14) 0.06326(14) 0.13345(14)
C2 C 0.20628(14) 0.22109(14) 0.12815(17)
C3 C 0.20347(17) 0.25581(16) 0.04201(18)
H1 H 0.1812 0.2168 -0.0106
C4 C 0.23400(18) 0.34954(16) 0.03343(18)
H2 H 0.2308 0.3739 -0.0250
C5 C 0.26941(14) 0.40772(15) 0.11126(18)
C6 C 0.27447(17) 0.37057(17) 0.19671(19)
H3 H 0.2999 0.4097 0.2489
C7 C 0.24238(17) 0.27622(17) 0.20641(17)
H4 H 0.2453 0.2510 0.2645
C8 C 0.30057(16) 0.50928(17) 0.1038(2)
N1 N 0.06794(11) -0.02497(11) 0.13307(12)
O1 O 0.33545(13) 0.56054(12) 0.17268(15)
O2 O 0.28959(13) 0.53673(12) 0.02287(16)
O3 O 0.17731(9) 0.12507(10) 0.13675(12)
O4 O 0.3333 0.6667 -0.1397(3)
Zn1 Zn 0.3333 0.6667 0.2500
Zn2 Zn 0.3333 0.6667 0.00024(4)
C1A C -0.06326(14) 0.02268(20) 0.13345(14)
C2A C -0.22109(14) -0.01481(20) 0.12815(17)
C3A C -0.25581(16) -0.05234(23) 0.04201(18)
H1A H -0.2168 -0.0356 -0.0106
C4A C -0.34954(16) -0.11554(24) 0.03343(18)
H2A H -0.3739 -0.1431 -0.0250
C5A C -0.40772(15) -0.13831(21) 0.11126(18)
C6A C -0.37057(17) -0.09610(24) 0.19671(19)
H3A H -0.4097 -0.1098 0.2489
C7A C -0.27622(17) -0.03384(24) 0.20641(17)
H4A H -0.2510 -0.0057 0.2645
C8A C -0.50928(17) -0.20871(23) 0.1038(2)
N1A N 0.02497(11) 0.09291(16) 0.13307(12)
O1A O -0.56054(12) -0.22509(18) 0.17268(15)
O2A O -0.53673(12) -0.24714(18) 0.02287(16)
O3A O -0.12507(10) 0.05224(13) 0.13675(12)
C1B C -0.02268(20) -0.08594(14) 0.13345(14)
C2B C 0.01481(20) -0.20628(14) 0.12815(17)
C3B C 0.05234(23) -0.20347(17) 0.04201(18)
H1B H 0.0356 -0.1812 -0.0106
C4B C 0.11554(24) -0.23400(18) 0.03343(18)
H2B H 0.1431 -0.2308 -0.0250
C5B C 0.13831(21) -0.26941(14) 0.11126(18)
C6B C 0.09610(24) -0.27447(17) 0.19671(19)
H3B H 0.1098 -0.2999 0.2489
C7B C 0.03384(24) -0.24238(17) 0.20641(17)
H4B H 0.0057 -0.2453 0.2645
C8B C 0.20871(23) -0.30057(16) 0.1038(2)
N1B N -0.09291(16) -0.06794(11) 0.13307(12)
O1B O 0.22509(18) -0.33545(13) 0.17268(15)
O2B O 0.24714(18) -0.28959(13) 0.02287(16)
O3B O -0.05224(13) -0.17731(9) 0.13675(12)
O4A O -0.6667 -0.3334 -0.1397(3)
Zn2A Zn -0.6667 -0.3334 0.00024(4)
C1D C 0.08594(14) 0.02268(20) 0.36655(14)
C2D C 0.20628(14) -0.01481(20) 0.37185(17)
C3D C 0.20347(17) -0.05234(23) 0.45799(18)
H1D H 0.1812 -0.0356 0.5106
C4D C 0.23400(18) -0.11554(24) 0.46657(18)
H2D H 0.2308 -0.1431 0.5250
C5D C 0.26941(14) -0.13831(21) 0.38874(18)
C6D C 0.27447(17) -0.09610(24) 0.30329(19)
H3D H 0.2999 -0.1098 0.2511
C7D C 0.24238(17) -0.03384(24) 0.29359(17)
H4D H 0.2453 -0.0057 0.2355
C8D C 0.30057(16) -0.20871(23) 0.3962(2)
N1D N 0.06794(11) 0.09291(16) 0.36693(12)
O1D O 0.33545(13) -0.22509(18) 0.32732(15)
O2D O 0.28959(13) -0.24714(18) 0.47713(16)
O3D O 0.17731(9) 0.05224(13) 0.36325(12)
C1C C -0.06326(14) -0.08594(14) 0.36655(14)
C2C C -0.22109(14) -0.20628(14) 0.37185(17)
C3C C -0.25581(16) -0.20347(17) 0.45799(18)
H1C H -0.2168 -0.1812 0.5106
C4C C -0.34954(16) -0.23400(18) 0.46657(18)
H2C H -0.3739 -0.2308 0.5250
C5C C -0.40772(15) -0.26941(14) 0.38874(18)
C6C C -0.37057(17) -0.27447(17) 0.30329(19)
H3C H -0.4097 -0.2999 0.2511
C7C C -0.27622(17) -0.24238(17) 0.29359(17)
H4C H -0.2510 -0.2453 0.2355
C8C C -0.50928(17) -0.30057(16) 0.3962(2)
N1C N 0.02497(11) -0.06794(11) 0.36693(12)
O1C O -0.56054(12) -0.33545(13) 0.32732(15)
O2C O -0.53673(12) -0.28959(13) 0.47713(16)
O3C O -0.12507(10) -0.17731(9) 0.36325(12)
C1E C -0.02268(20) 0.06326(14) 0.36655(14)
C2E C 0.01481(20) 0.22109(14) 0.37185(17)
C3E C 0.05234(23) 0.25581(16) 0.45799(18)
H1E H 0.0356 0.2168 0.5106
C4E C 0.11554(24) 0.34954(16) 0.46657(18)
H2E H 0.1431 0.3739 0.5250
C5E C 0.13831(21) 0.40772(15) 0.38874(18)
C6E C 0.09610(24) 0.37057(17) 0.30329(19)
H3E H 0.1098 0.4097 0.2511
C7E C 0.03384(24) 0.27622(17) 0.29359(17)
H4E H 0.0057 0.2510 0.2355
C8E C 0.20871(23) 0.50928(17) 0.3962(2)
N1E N -0.09291(16) -0.02497(11) 0.36693(12)
O1E O 0.22509(18) 0.56054(12) 0.32732(15)
O2E O 0.24714(18) 0.53673(12) 0.47713(16)
O3E O -0.05224(13) 0.12507(10) 0.36325(12)
O1A_2 O 0.43946(12) 0.77491(18) 0.17268(15)
O1B_2 O 0.22509(18) 0.66455(13) 0.17268(15)
O1C_2 O 0.43946(12) 0.66455(13) 0.32732(15)
O1D_2 O 0.33545(13) 0.77491(18) 0.32732(15)
O2_2 O -0.71041(13) -0.46327(12) 0.02287(16)
O2A_2 O 0.46327(12) 0.75286(18) 0.02287(16)
O2B_2 O -0.75286(18) -0.28959(13) 0.02287(16)
O2B_3 O 0.24714(18) 0.71041(13) 0.02287(16)
Zn1_2 Zn -0.6667 -0.3333 0.2500
Zn1_3 Zn 0.3333 -0.3333 0.2500
Zn2_2 Zn 0.3333 -0.3333 0.00024(4)
Zn2C Zn -0.6667 -0.3333 0.49976(4)
Zn2C_2 Zn 0.3333 -0.3333 0.49976(4)
Zn2C_3 Zn 0.3333 0.6667 0.49976(4)
loop_
_geom_bond_atom_site_label_1
_geom_bond_atom_site_label_2
_geom_bond_site_symmetry_1
_geom_bond_site_symmetry_2
C1 N1 1_555 1_555
C2 C3 1_555 1_555
C3 H1 1_555 1_555
C4 C3 1_555 1_555
H2 C4 1_555 1_555
C5 C4 1_555 1_555
C6 C5 1_555 1_555
H3 C6 1_555 1_555
C7 C2 1_555 1_555
H4 C7 1_555 1_555
C8 C5 1_555 1_555
N1 C1B 1_555 1_555
O1 C8 1_555 1_555
O2 C8 1_555 1_555
O3 C1 1_555 1_555
O4 Zn2 1_555 1_555
Zn1 O1 1_555 1_555
Zn2 O2 1_555 1_555
C1A N1A 1_555 1_555
C2A C3A 1_555 1_555
C3A H1A 1_555 1_555
C4A C3A 1_555 1_555
H2A C4A 1_555 1_555
C5A C4A 1_555 1_555
C6A C5A 1_555 1_555
H3A C6A 1_555 1_555
C7A C2A 1_555 1_555
H4A C7A 1_555 1_555
C8A C5A 1_555 1_555
N1A C1 1_555 1_555
O1A C8A 1_555 1_555
O2A C8A 1_555 1_555
O3A C1A 1_555 1_555
C1B N1B 1_555 1_555
C2B C3B 1_555 1_555
C3B H1B 1_555 1_555
C4B C3B 1_555 1_555
H2B C4B 1_555 1_555
C5B C4B 1_555 1_555
C6B C5B 1_555 1_555
H3B C6B 1_555 1_555
C7B C2B 1_555 1_555
H4B C7B 1_555 1_555
C8B C5B 1_555 1_555
N1B C1A 1_555 1_555
O1B C8B 1_555 1_555
O2B C8B 1_555 1_555
O3B C1B 1_555 1_555
O4A Zn2A 1_555 1_555
Zn2A O2A 1_555 1_555
C1D N1D 1_555 1_555
C2D C3D 1_555 1_555
C3D H1D 1_555 1_555
C4D C3D 1_555 1_555
H2D C4D 1_555 1_555
C5D C4D 1_555 1_555
C6D C5D 1_555 1_555
H3D C6D 1_555 1_555
C7D C2D 1_555 1_555
H4D C7D 1_555 1_555
C8D C5D 1_555 1_555
N1D C1E 1_555 1_555
O1D C8D 1_555 1_555
O2D C8D 1_555 1_555
O3D C1D 1_555 1_555
C1C N1C 1_555 1_555
C2C C3C 1_555 1_555
C3C H1C 1_555 1_555
C4C C3C 1_555 1_555
H2C C4C 1_555 1_555
C5C C4C 1_555 1_555
C6C C5C 1_555 1_555
H3C C6C 1_555 1_555
C7C C2C 1_555 1_555
H4C C7C 1_555 1_555
C8C C5C 1_555 1_555
N1C C1D 1_555 1_555
O1C C8C 1_555 1_555
O2C C8C 1_555 1_555
O3C C1C 1_555 1_555
C1E N1E 1_555 1_555
C2E C3E 1_555 1_555
C3E H1E 1_555 1_555
C4E C3E 1_555 1_555
H2E C4E 1_555 1_555
C5E C4E 1_555 1_555
C6E C5E 1_555 1_555
H3E C6E 1_555 1_555
C7E C2E 1_555 1_555
H4E C7E 1_555 1_555
C8E C5E 1_555 1_555
N1E C1C 1_555 1_555
O1E Zn1 1_555 1_555
O2E C8E 1_555 1_555
O3E C1E 1_555 1_555
O1A_2 Zn1 1_555 1_555
O1B_2 Zn1 1_555 1_555
O1C_2 Zn1 1_555 1_555
O1D_2 Zn1 1_555 1_555
O2_2 Zn2A 1_555 1_555
O2A_2 Zn2 1_555 1_555
O2B_2 Zn2A 1_555 1_555
O2B_3 Zn2 1_555 1_555
Zn1_2 O1A 1_555 1_555
Zn1_3 O1B 1_555 1_555
Zn2_2 O2B 1_555 1_555
Zn2C O2C 1_555 1_555
Zn2C_2 O2D 1_555 1_555
Zn2C_3 O2E 1_555 1_555
C2 O3 1_555 1_555
C6 C7 1_555 1_555
C2A O3A 1_555 1_555
C6A C7A 1_555 1_555
C2B O3B 1_555 1_555
C6B C7B 1_555 1_555
C2D O3D 1_555 1_555
C6D C7D 1_555 1_555
O1D Zn1_3 1_555 1_555
C2C O3C 1_555 1_555
C6C C7C 1_555 1_555
O1C Zn1_2 1_555 1_555
C2E O3E 1_555 1_555
C6E C7E 1_555 1_555
C8E O1E 1_555 1_555

#END
