
#######################################################################
#
#                 Cambridge Crystallographic Data Centre
#                                CCDC 
#
#######################################################################
#
# If this CIF has been generated from an entry in the Cambridge 
# Structural Database, then it will include bibliographic, chemical, 
# crystal, experimental, refinement or atomic coordinate data resulting 
# from the CCDC's data processing and validation procedures.
#
#######################################################################

data_SEQSUE
_symmetry_cell_setting           triclinic
_symmetry_space_group_name_H-M   'P -1'
_symmetry_Int_Tables_number      2
_space_group_name_Hall           '-P 1'
loop_
_symmetry_equiv_pos_site_id
_symmetry_equiv_pos_as_xyz
1 x,y,z
2 -x,-y,-z
_cell_length_a                   9.7011(5)
_cell_length_b                   9.7984(5)
_cell_length_c                   14.9629(7)
_cell_angle_alpha                89.705(4)
_cell_angle_beta                 79.165(4)
_cell_angle_gamma                68.680(5)
_cell_volume                     1298.24
loop_
_atom_site_label
_atom_site_type_symbol
_atom_site_fract_x
_atom_site_fract_y
_atom_site_fract_z
Ni1 Ni 0.70870(5) 0.29843(5) 0.15064(3)
Ni2 Ni 1.0000 1.0000 0.0000
O1 O 0.7238(4) 0.3441(3) 1.01579(19)
O2 O 0.8353(4) 0.1273(3) 0.9334(2)
O3 O 0.9357(4) 0.0752(4) 0.2798(2)
O4 O 0.7050(3) 0.2427(3) 0.28131(18)
O5 O 0.8999(5) 0.7143(4) -0.0309(2)
O6 O 0.8685(4) 0.8970(3) 0.0686(2)
O7 O 0.6599(13) 0.9487(8) 0.6938(4)
O8 O 0.7544(16) 0.7184(11) 0.7201(4)
O9 O 0.9319(3) 0.1470(3) 0.11465(18)
O10 O 0.6194(4) 0.1414(4) 0.1293(2)
N1 N 0.5125(4) 0.5421(4) 0.8128(2)
N2 N 0.7824(4) 0.4729(4) 0.1770(2)
C1 C 0.5850(5) 0.4729(5) 0.8778(3)
H1 H 0.5558 0.5189 0.9362
C2 C 0.7010(5) 0.3365(4) 0.8621(3)
C3 C 0.7510(5) 0.2697(5) 0.7740(3)
H2 H 0.8283 0.1779 0.7617
C4 C 0.6824(5) 0.3436(5) 0.7044(3)
C5 C 0.5653(5) 0.4784(5) 0.7278(3)
H3 H 0.5202 0.5280 0.6814
C6 C 0.7219(5) 0.2835(4) 0.6072(3)
C7 C 0.8683(5) 0.2105(5) 0.5614(3)
H4 H 0.9475 0.1901 0.5923
C8 C 0.8985(5) 0.1671(5) 0.4688(3)
H5 H 0.9975 0.1165 0.4386
C9 C 0.7814(5) 0.1988(4) 0.4213(3)
C10 C 0.6334(5) 0.2691(5) 0.4680(3)
H6 H 0.5541 0.2886 0.4372
C11 C 0.6036(5) 0.3102(5) 0.5603(3)
H7 H 0.5042 0.3558 0.5913
C12 C 0.7594(5) 0.2633(4) 0.9437(3)
C13 C 0.8117(5) 0.1670(4) 0.3196(3)
C14 C 0.8131(5) 0.5557(5) 0.1095(3)
H8 H 0.8204 0.5251 0.0494
C15 C 0.8339(5) 0.6848(5) 0.1269(3)
C16 C 0.8251(6) 0.7319(5) 0.2159(3)
H9 H 0.8384 0.8187 0.2282
C17 C 0.7959(5) 0.6465(5) 0.2864(3)
C18 C 0.7759(5) 0.5192(5) 0.2626(3)
H10 H 0.7567 0.4617 0.3093
C19 C 0.7796(5) 0.6902(5) 0.3841(3)
C20 C 0.7171(7) 0.8379(6) 0.4161(3)
H11 H 0.6893 0.9099 0.3752
C21 C 0.6957(7) 0.8788(6) 0.5073(4)
H12 H 0.6562 0.9779 0.5269
C22 C 0.7327(7) 0.7734(7) 0.5695(4)
C23 C 0.7959(7) 0.6262(7) 0.5383(4)
H13 H 0.8228 0.5545 0.5795
C24 C 0.8192(6) 0.5850(6) 0.4470(4)
H14 H 0.8618 0.4860 0.4274
C25 C 0.8695(5) 0.7710(5) 0.0484(3)
C26 C 0.7022(12) 0.8163(10) 0.6692(5)
Ni1A Ni 0.29130(5) 0.70157(5) 0.84936(3)
O1A O 0.2762(4) 0.6559(3) -0.01579(19)
O2A O 0.1647(4) 0.8727(3) 0.0666(2)
O3A O 0.0643(4) 0.9248(4) 0.7202(2)
O4A O 0.2950(3) 0.7573(3) 0.71869(18)
O5A O 0.1001(5) 0.2857(4) 1.0309(2)
O6A O 0.1315(4) 0.1030(3) 0.9314(2)
O7A O 0.3401(13) 0.0513(8) 0.3062(4)
O8A O 0.2456(16) 0.2816(11) 0.2799(4)
O9A O 0.0681(3) 0.8530(3) 0.88535(18)
O10A O 0.3806(4) 0.8586(4) 0.8707(2)
N1A N 0.4875(4) 0.4579(4) 0.1872(2)
N2A N 0.2176(4) 0.5271(4) 0.8230(2)
C1A C 0.4150(5) 0.5271(5) 0.1222(3)
H1A H 0.4442 0.4811 0.0638
C2A C 0.2990(5) 0.6635(4) 0.1379(3)
C3A C 0.2490(5) 0.7303(5) 0.2260(3)
H2A H 0.1717 0.8221 0.2383
C4A C 0.3176(5) 0.6564(5) 0.2956(3)
C5A C 0.4347(5) 0.5216(5) 0.2722(3)
H3A H 0.4798 0.4720 0.3186
C6A C 0.2781(5) 0.7165(4) 0.3928(3)
C7A C 0.1317(5) 0.7895(5) 0.4386(3)
H4A H 0.0525 0.8099 0.4077
C8A C 0.1015(5) 0.8329(5) 0.5312(3)
H5A H 0.0025 0.8835 0.5614
C9A C 0.2186(5) 0.8012(4) 0.5787(3)
C10A C 0.3666(5) 0.7309(5) 0.5320(3)
H6A H 0.4459 0.7114 0.5628
C11A C 0.3964(5) 0.6898(5) 0.4397(3)
H7A H 0.4958 0.6442 0.4087
C12A C 0.2406(5) 0.7367(4) 0.0563(3)
C13A C 0.1883(5) 0.8330(4) 0.6804(3)
C14A C 0.1869(5) 0.4443(5) 0.8905(3)
H8A H 0.1796 0.4749 0.9506
C15A C 0.1661(5) 0.3152(5) 0.8731(3)
C16A C 0.1749(6) 0.2681(5) 0.7841(3)
H9A H 0.1616 0.1813 0.7718
C17A C 0.2041(5) 0.3535(5) 0.7136(3)
C18A C 0.2241(5) 0.4808(5) 0.7374(3)
H10A H 0.2433 0.5383 0.6907
C19A C 0.2204(5) 0.3098(5) 0.6159(3)
C20A C 0.2829(7) 0.1621(6) 0.5839(3)
H11A H 0.3107 0.0901 0.6248
C21A C 0.3043(7) 0.1212(6) 0.4927(4)
H12A H 0.3438 0.0221 0.4731
C22A C 0.2673(7) 0.2266(7) 0.4305(4)
C23A C 0.2041(7) 0.3738(7) 0.4617(4)
H13A H 0.1772 0.4455 0.4205
C24A C 0.1808(6) 0.4150(6) 0.5530(4)
H14A H 0.1382 0.5140 0.5726
C25A C 0.1305(5) 0.2290(5) 0.9516(3)
C26A C 0.2978(12) 0.1837(10) 0.3308(5)
Ni1_2 Ni 0.70870(5) 0.29843(5) 1.15064(3)
Ni1A_2 Ni 0.29130(5) 0.70157(5) -0.15064(3)
Ni2_2 Ni 0.0000 0.0000 1.0000
Ni2_3 Ni 0.0000 1.0000 0.0000
Ni2_4 Ni 0.0000 1.0000 1.0000
Ni2_5 Ni 1.0000 0.0000 0.0000
Ni2_6 Ni 1.0000 0.0000 1.0000
O1_2 O 0.7238(4) 0.3441(3) 0.01579(19)
O1A_2 O 0.2762(4) 0.6559(3) 0.98421(19)
O2_2 O 0.8353(4) 1.1273(3) -0.0666(2)
O2A_2 O 1.1647(4) 0.8727(3) 0.0666(2)
O6A_2 O 1.1315(4) 1.1030(3) -0.0686(2)
O9_2 O 0.9319(3) 1.1470(3) 0.11465(18)
O9A_2 O 1.0681(3) 0.8530(3) -0.11465(18)
O11 O 0.3357(12) 0.0272(14) 0.1294(5)
loop_
_geom_bond_atom_site_label_1
_geom_bond_atom_site_label_2
_geom_bond_site_symmetry_1
_geom_bond_site_symmetry_2
Ni1 O4 1_555 1_555
Ni2 O6 1_555 1_555
O1 C12 1_555 1_555
O2 C12 1_555 1_555
O3 C13 1_555 1_555
O4 C13 1_555 1_555
O5 C25 1_555 1_555
O6 C25 1_555 1_555
O7 C26 1_555 1_555
O8 C26 1_555 1_555
O9 Ni1 1_555 1_555
O10 Ni1 1_555 1_555
N1 C1 1_555 1_555
N2 Ni1 1_555 1_555
C1 H1 1_555 1_555
C2 C1 1_555 1_555
C3 C2 1_555 1_555
H2 C3 1_555 1_555
C4 C3 1_555 1_555
C5 N1 1_555 1_555
H3 C5 1_555 1_555
C6 C4 1_555 1_555
C7 C6 1_555 1_555
H4 C7 1_555 1_555
C8 C7 1_555 1_555
H5 C8 1_555 1_555
C9 C8 1_555 1_555
C10 C9 1_555 1_555
H6 C10 1_555 1_555
C11 C6 1_555 1_555
H7 C11 1_555 1_555
C12 C2 1_555 1_555
C13 C9 1_555 1_555
C14 N2 1_555 1_555
H8 C14 1_555 1_555
C15 C14 1_555 1_555
C16 C15 1_555 1_555
H9 C16 1_555 1_555
C17 C16 1_555 1_555
C18 N2 1_555 1_555
H10 C18 1_555 1_555
C19 C17 1_555 1_555
C20 C19 1_555 1_555
H11 C20 1_555 1_555
C21 C20 1_555 1_555
H12 C21 1_555 1_555
C22 C21 1_555 1_555
C23 C22 1_555 1_555
H13 C23 1_555 1_555
C24 C19 1_555 1_555
H14 C24 1_555 1_555
C25 C15 1_555 1_555
C26 C22 1_555 1_555
Ni1A N1 1_555 1_555
O1A C12A 1_555 1_555
O2A C12A 1_555 1_555
O3A C13A 1_555 1_555
O4A Ni1A 1_555 1_555
O5A C25A 1_555 1_555
O6A C25A 1_555 1_555
O7A C26A 1_555 1_555
O8A C26A 1_555 1_555
O9A Ni1A 1_555 1_555
O10A Ni1A 1_555 1_555
N1A Ni1 1_555 1_555
N2A Ni1A 1_555 1_555
C1A N1A 1_555 1_555
H1A C1A 1_555 1_555
C2A C1A 1_555 1_555
C3A C2A 1_555 1_555
H2A C3A 1_555 1_555
C4A C3A 1_555 1_555
C5A N1A 1_555 1_555
H3A C5A 1_555 1_555
C6A C4A 1_555 1_555
C7A C6A 1_555 1_555
H4A C7A 1_555 1_555
C8A C7A 1_555 1_555
H5A C8A 1_555 1_555
C9A C8A 1_555 1_555
C10A C9A 1_555 1_555
H6A C10A 1_555 1_555
C11A C6A 1_555 1_555
H7A C11A 1_555 1_555
C12A C2A 1_555 1_555
C13A O4A 1_555 1_555
C14A N2A 1_555 1_555
H8A C14A 1_555 1_555
C15A C14A 1_555 1_555
C16A C15A 1_555 1_555
H9A C16A 1_555 1_555
C17A C16A 1_555 1_555
C18A N2A 1_555 1_555
H10A C18A 1_555 1_555
C19A C17A 1_555 1_555
C20A C19A 1_555 1_555
H11A C20A 1_555 1_555
C21A C20A 1_555 1_555
H12A C21A 1_555 1_555
C22A C21A 1_555 1_555
C23A C22A 1_555 1_555
H13A C23A 1_555 1_555
C24A C19A 1_555 1_555
H14A C24A 1_555 1_555
C25A C15A 1_555 1_555
C26A C22A 1_555 1_555
Ni1_2 O1 1_555 1_555
Ni1A_2 O1A 1_555 1_555
Ni2_2 O6A 1_555 1_555
Ni2_3 O2A 1_555 1_555
Ni2_4 O9A 1_555 1_555
Ni2_5 O9 1_555 1_555
Ni2_6 O2 1_555 1_555
O1_2 Ni1 1_555 1_555
O1A_2 Ni1A 1_555 1_555
O2_2 Ni2 1_555 1_555
O2A_2 Ni2 1_555 1_555
O6A_2 Ni2 1_555 1_555
O9_2 Ni2 1_555 1_555
O9A_2 Ni2 1_555 1_555
C4 C5 1_555 1_555
C10 C11 1_555 1_555
C17 C18 1_555 1_555
C23 C24 1_555 1_555
C4A C5A 1_555 1_555
C9A C13A 1_555 1_555
C10A C11A 1_555 1_555
C17A C18A 1_555 1_555
C23A C24A 1_555 1_555

#END
