
#######################################################################
#
#                 Cambridge Crystallographic Data Centre
#                                CCDC 
#
#######################################################################
#
# If this CIF has been generated from an entry in the Cambridge 
# Structural Database, then it will include bibliographic, chemical, 
# crystal, experimental, refinement or atomic coordinate data resulting 
# from the CCDC's data processing and validation procedures.
#
#######################################################################

data_SEQSEO
_symmetry_cell_setting           triclinic
_symmetry_space_group_name_H-M   'P -1'
_symmetry_Int_Tables_number      2
_space_group_name_Hall           '-P 1'
loop_
_symmetry_equiv_pos_site_id
_symmetry_equiv_pos_as_xyz
1 x,y,z
2 -x,-y,-z
_cell_length_a                   6.3725(4)
_cell_length_b                   7.7363(5)
_cell_length_c                   12.7332(10)
_cell_angle_alpha                74.359(6)
_cell_angle_beta                 83.755(6)
_cell_angle_gamma                83.938(5)
_cell_volume                     598.998
loop_
_atom_site_label
_atom_site_type_symbol
_atom_site_fract_x
_atom_site_fract_y
_atom_site_fract_z
Ni1 Ni 0.52420(6) 0.66740(6) 0.89139(3)
N1 N -0.2231(4) 0.5243(4) 0.8239(2)
O1 O 0.4319(4) 0.1835(4) 0.8883(2)
O2 O 0.3593(4) 0.4266(3) 0.95321(19)
O3 O -0.4096(4) 0.2649(4) 0.2580(2)
O4 O -0.0946(4) 0.1179(4) 0.2391(2)
O5 O 0.6961(4) 0.8916(4) 0.8561(3)
O6 O 0.2681(4) 0.8092(3) 0.9527(2)
C1 C -0.0350(5) 0.4894(5) 0.8664(3)
C2 C 0.1237(5) 0.3717(4) 0.8360(3)
C3 C 0.0913(5) 0.2938(4) 0.7527(3)
C4 C -0.0960(5) 0.3389(5) 0.7011(3)
C5 C -0.2502(5) 0.4517(5) 0.7416(3)
C6 C -0.1312(5) 0.2814(5) 0.6013(3)
C7 C 0.0389(6) 0.2501(5) 0.5297(3)
C8 C 0.0091(6) 0.2135(5) 0.4318(3)
C9 C -0.1945(5) 0.2146(4) 0.4023(3)
C10 C -0.3639(6) 0.2413(6) 0.4750(4)
C11 C -0.3329(6) 0.2714(7) 0.5744(3)
C12 C 0.3212(5) 0.3203(4) 0.8959(3)
C13 C -0.2336(5) 0.1960(5) 0.2910(3)
H1 H -0.013(6) 0.555(5) 0.918(3)
H2 H 0.198(6) 0.203(5) 0.732(3)
H3 H 0.125(7) 0.203(5) 0.382(3)
H4 H -0.387(6) 0.491(5) 0.707(3)
H5 H -0.438(8) 0.281(7) 0.619(4)
H6 H 0.171(7) 0.255(6) 0.548(4)
H7 H -0.495(8) 0.244(6) 0.454(4)
Ni1_2 Ni -0.47580(6) 0.66740(6) 0.89139(3)
Ni1A Ni -0.52420(6) 0.33260(6) 0.10861(3)
Ni1A_2 Ni 0.47580(6) 0.33260(6) 1.10861(3)
N1_2 N 0.7769(4) 0.5243(4) 0.8239(2)
O2A O 0.6407(4) 0.5734(3) 1.04679(19)
O3A O 0.4096(4) 0.7351(4) 0.7420(2)
loop_
_geom_bond_atom_site_label_1
_geom_bond_atom_site_label_2
_geom_bond_site_symmetry_1
_geom_bond_site_symmetry_2
Ni1 O2 1_555 1_555
N1 C1 1_555 1_555
O1 C12 1_555 1_555
O2 C12 1_555 1_555
O3 C13 1_555 1_555
O4 C13 1_555 1_555
O5 Ni1 1_555 1_555
O6 Ni1 1_555 1_555
C1 C2 1_555 1_555
C2 C3 1_555 1_555
C3 C4 1_555 1_555
C4 C5 1_555 1_555
C5 N1 1_555 1_555
C6 C4 1_555 1_555
C7 C6 1_555 1_555
C8 C7 1_555 1_555
C9 C8 1_555 1_555
C10 C9 1_555 1_555
C11 C6 1_555 1_555
C12 C2 1_555 1_555
C13 C9 1_555 1_555
H1 C1 1_555 1_555
H2 C3 1_555 1_555
H3 C8 1_555 1_555
H4 C5 1_555 1_555
H5 C11 1_555 1_555
H6 C7 1_555 1_555
H7 C10 1_555 1_555
Ni1_2 N1 1_555 1_555
Ni1A O3 1_555 1_555
Ni1A_2 O2 1_555 1_555
N1_2 Ni1 1_555 1_555
O2A Ni1 1_555 1_555
O3A Ni1 1_555 1_555
C10 C11 1_555 1_555
Ni1A_2 O2A 1_555 1_555

#END
