
#######################################################################
#
#                 Cambridge Crystallographic Data Centre
#                                CCDC 
#
#######################################################################
#
# If this CIF has been generated from an entry in the Cambridge 
# Structural Database, then it will include bibliographic, chemical, 
# crystal, experimental, refinement or atomic coordinate data resulting 
# from the CCDC's data processing and validation procedures.
#
#######################################################################

data_SEQSAK
_symmetry_cell_setting           trigonal
_symmetry_space_group_name_H-M   'P -3'
_symmetry_Int_Tables_number      147
_space_group_name_Hall           '-P 3'
loop_
_symmetry_equiv_pos_site_id
_symmetry_equiv_pos_as_xyz
1 x,y,z
2 -y,x-y,z
3 -x+y,-x,z
4 -x,-y,-z
5 y,-x+y,-z
6 x-y,x,-z
_cell_length_a                   17.0971(3)
_cell_length_b                   17.0971(3)
_cell_length_c                   13.6304(5)
_cell_angle_alpha                90
_cell_angle_beta                 90
_cell_angle_gamma                120
_cell_volume                     3450.52
loop_
_atom_site_label
_atom_site_type_symbol
_atom_site_fract_x
_atom_site_fract_y
_atom_site_fract_z
Cd2 Cd 0.3333 0.6667 0.81113(4)
Cd3 Cd 0.3333 0.6667 0.53775(7)
O4 O 0.4307(3) 0.7695(3) 0.9208(4)
O5 O 0.4590(5) 0.6843(5) 0.7548(8)
O6 O 0.46435(18) 0.7544(2) 0.6087(2)
O7 O 0.41924(17) 0.6909(4) 0.4174(9)
O8 O 0.86688(18) 0.83084(17) 0.6249(2)
N2 N 1.01533(10) 0.92829(15) 0.6229(2)
C9 C 0.64941(16) 0.75846(19) 0.73990(17)
H5 H 0.6223 0.7393 0.8010
C10 C 0.73987(15) 0.7843(2) 0.72757(18)
H6 H 0.7733 0.7825 0.7804
C11 C 0.78042(14) 0.81305(19) 0.63620(19)
C12 C 0.73050(13) 0.81588(17) 0.55718(18)
H7 H 0.7576 0.8351 0.4961
C13 C 0.64004(14) 0.78999(16) 0.56952(17)
H8 H 0.6066 0.7919 0.5167
C14 C 0.59949(15) 0.76129(17) 0.66089(16)
C15 C 0.5031(2) 0.7332(3) 0.6778(3)
C16 C 0.93490(11) 0.9206(2) 0.6262(2)
O5A O 1.3157(5) 0.7747(7) 0.7548(8)
O6A O 1.2456(2) 0.70995(27) 0.6087(2)
O8A O 1.16916(17) 1.03604(25) 0.6249(2)
N2A N 1.07171(15) 1.08704(18) 0.6229(2)
C9A C 1.24154(19) 0.89095(25) 0.73990(17)
H5A H 1.2607 0.8830 0.8010
C10A C 1.2157(2) 0.95557(25) 0.72757(18)
H6A H 1.2175 0.9908 0.7804
C11A C 1.18695(19) 0.96737(24) 0.63620(19)
C12A C 1.18412(17) 0.91462(21) 0.55718(18)
H7A H 1.1649 0.9225 0.4961
C13A C 1.21001(16) 0.85005(21) 0.56952(17)
H8A H 1.2081 0.8147 0.5167
C14A C 1.23871(17) 0.83820(23) 0.66089(16)
C15A C 1.2668(3) 0.7699(4) 0.6778(3)
C16A C 1.0794(2) 1.01430(23) 0.6262(2)
O5B O 1.2253(7) 1.5410(5) 0.7548(8)
O6B O 1.29005(27) 1.53565(18) 0.6087(2)
O8B O 0.96396(25) 1.13312(18) 0.6249(2)
N2B N 0.91296(18) 0.98467(10) 0.6229(2)
C9B C 1.10905(25) 1.35059(16) 0.73990(17)
H5B H 1.1170 1.3777 0.8010
C10B C 1.04443(25) 1.26013(15) 0.72757(18)
H6B H 1.0092 1.2267 0.7804
C11B C 1.03263(24) 1.21958(14) 0.63620(19)
C12B C 1.08538(21) 1.26950(13) 0.55718(18)
H7B H 1.0775 1.2424 0.4961
C13B C 1.14995(21) 1.35996(14) 0.56952(17)
H8B H 1.1853 1.3934 0.5167
C14B C 1.16180(23) 1.40051(15) 0.66089(16)
C15B C 1.2301(4) 1.4969(2) 0.6778(3)
C16B C 0.98570(23) 1.06510(11) 0.6262(2)
O4B O 0.3388(4) 0.5693(3) 0.9208(4)
O7B O 0.27166(43) 0.58076(17) 0.4174(9)
O4A O 0.2305(3) 0.6612(4) 0.9208(4)
O7A O 0.3091(4) 0.72834(43) 0.4174(9)
Cd2_2 Cd 1.3333 0.6667 0.81113(4)
Cd2_3 Cd 1.3333 1.6667 0.81113(4)
Cd3_2 Cd 1.3333 0.6667 0.53775(7)
Cd3_3 Cd 1.3333 1.6667 0.53775(7)
O5A_2 O 0.3157(5) 0.7747(7) 0.7548(8)
O5B_2 O 0.2253(7) 0.5410(5) 0.7548(8)
O6A_2 O 0.2456(2) 0.70995(27) 0.6087(2)
O6B_2 O 0.29005(27) 0.53565(18) 0.6087(2)
O9 O 0.9255(10) 0.4599(13) 0.6244(8)
Cd1 Cd 0.3333 0.6667 0.20795(6)
O1 O 0.2670(4) 0.5423(3) 0.1050(3)
O2 O 0.2308(4) 0.5237(3) 0.2470(4)
O3 O -0.04362(17) 0.12454(17) 0.1219(2)
N1 N 0.06524(10) 0.08555(16) 0.12089(19)
C1 C 0.12667(10) 0.35813(9) 0.06085(12)
H1 H 0.1551 0.3935 0.0061
C2 C 0.06270(10) 0.26733(10) 0.04947(12)
H2 H 0.0483 0.2419 -0.0129
C3 C 0.02021(10) 0.21449(10) 0.13131(13)
C4 C 0.04170(10) 0.25244(10) 0.22453(12)
H3 H 0.0133 0.2171 0.2793
C5 C 0.10566(10) 0.34323(10) 0.23591(12)
H4 H 0.1200 0.3686 0.2983
C6 C 0.14815(10) 0.39608(10) 0.15407(12)
C7 C 0.2132(3) 0.4912(3) 0.1643(4)
C8 C -0.01979(10) 0.06400(17) 0.1206(3)
O1A O -0.5423(3) -0.2753(5) 0.1050(3)
O2A O -0.5237(3) -0.2929(5) 0.2470(4)
O3A O -0.12454(17) -0.16816(24) 0.1219(2)
N1A N -0.08555(16) -0.02031(19) 0.12089(19)
C1A C -0.35813(9) -0.23146(13) 0.06085(12)
H1A H -0.3935 -0.2384 0.0061
C2A C -0.26733(10) -0.20463(14) 0.04947(12)
H2A H -0.2419 -0.1936 -0.0129
C3A C -0.21449(10) -0.19428(14) 0.13131(13)
C4A C -0.25244(10) -0.21074(14) 0.22453(12)
H3A H -0.2171 -0.2038 0.2793
C5A C -0.34323(10) -0.23757(14) 0.23591(12)
H4A H -0.3686 -0.2486 0.2983
C6A C -0.39608(10) -0.24793(14) 0.15407(12)
C7A C -0.4912(3) -0.2780(4) 0.1643(4)
C8A C -0.06400(17) -0.08379(20) 0.1206(3)
O1B O 0.2753(5) -0.2670(4) 0.1050(3)
O2B O 0.2929(5) -0.2308(4) 0.2470(4)
O3B O 0.16816(24) 0.04362(17) 0.1219(2)
N1B N 0.02031(19) -0.06524(10) 0.12089(19)
C1B C 0.23146(13) -0.12667(10) 0.06085(12)
H1B H 0.2384 -0.1551 0.0061
C2B C 0.20463(14) -0.06270(10) 0.04947(12)
H2B H 0.1936 -0.0483 -0.0129
C3B C 0.19428(14) -0.02021(10) 0.13131(13)
C4B C 0.21074(14) -0.04170(10) 0.22453(12)
H3B H 0.2038 -0.0133 0.2793
C5B C 0.23757(14) -0.10566(10) 0.23591(12)
H4B H 0.2486 -0.1200 0.2983
C6B C 0.24793(14) -0.14815(10) 0.15407(12)
C7B C 0.2780(4) -0.2132(3) 0.1643(4)
C8B C 0.08379(20) 0.01979(10) 0.1206(3)
Cd1_2 Cd -0.6667 -0.3333 0.20795(6)
Cd1_3 Cd 0.3333 -0.3333 0.20795(6)
O1A_2 O 0.4577(3) 0.7247(5) 0.1050(3)
O1B_2 O 0.2753(5) 0.7330(4) 0.1050(3)
O2A_2 O 0.4763(3) 0.7071(5) 0.2470(4)
O2B_2 O 0.2929(5) 0.7692(4) 0.2470(4)
loop_
_geom_bond_atom_site_label_1
_geom_bond_atom_site_label_2
_geom_bond_site_symmetry_1
_geom_bond_site_symmetry_2
Cd1 O1 1_555 1_555
O1 C7 1_555 1_555
O2 Cd1 1_555 1_555
O3 C3 1_555 1_555
N1 C8 1_555 1_555
C1 H1 1_555 1_555
C2 C1 1_555 1_555
H2 C2 1_555 1_555
C3 C2 1_555 1_555
C4 C3 1_555 1_555
H3 C4 1_555 1_555
C5 C4 1_555 1_555
H4 C5 1_555 1_555
C6 C1 1_555 1_555
C7 O2 1_555 1_555
C8 O3 1_555 1_555
Cd2 O4 1_555 1_555
Cd3 O6 1_555 1_555
O5 Cd2 1_555 1_555
O6 C15 1_555 1_555
O7 Cd3 1_555 1_555
O8 C11 1_555 1_555
N2 C16 1_555 1_555
C9 H5 1_555 1_555
C10 C9 1_555 1_555
H6 C10 1_555 1_555
C11 C10 1_555 1_555
C12 C11 1_555 1_555
H7 C12 1_555 1_555
C13 C12 1_555 1_555
H8 C13 1_555 1_555
C14 C9 1_555 1_555
C15 O5 1_555 1_555
C16 O8 1_555 1_555
O1A C7A 1_555 1_555
O2A C7A 1_555 1_555
O3A C3A 1_555 1_555
N1A C8 1_555 1_555
C1A H1A 1_555 1_555
C2A C1A 1_555 1_555
H2A C2A 1_555 1_555
C3A C2A 1_555 1_555
C4A C3A 1_555 1_555
H3A C4A 1_555 1_555
C5A C4A 1_555 1_555
H4A C5A 1_555 1_555
C6A C1A 1_555 1_555
C7A C6A 1_555 1_555
C8A O3A 1_555 1_555
O1B C7B 1_555 1_555
O2B C7B 1_555 1_555
O3B C3B 1_555 1_555
N1B C8A 1_555 1_555
C1B H1B 1_555 1_555
C2B C1B 1_555 1_555
H2B C2B 1_555 1_555
C3B C2B 1_555 1_555
C4B C3B 1_555 1_555
H3B C4B 1_555 1_555
C5B C4B 1_555 1_555
H4B C5B 1_555 1_555
C6B C1B 1_555 1_555
C7B C6B 1_555 1_555
C8B N1 1_555 1_555
Cd1_2 O1A 1_555 1_555
Cd1_3 O1B 1_555 1_555
O1A_2 Cd1 1_555 1_555
O1B_2 Cd1 1_555 1_555
O2A_2 Cd1 1_555 1_555
O2B_2 Cd1 1_555 1_555
O5A C15A 1_555 1_555
O6A C15A 1_555 1_555
O8A C11A 1_555 1_555
N2A C16A 1_555 1_555
C9A H5A 1_555 1_555
C10A C9A 1_555 1_555
H6A C10A 1_555 1_555
C11A C10A 1_555 1_555
C12A C11A 1_555 1_555
H7A C12A 1_555 1_555
C13A C12A 1_555 1_555
H8A C13A 1_555 1_555
C14A C9A 1_555 1_555
C15A C14A 1_555 1_555
C16A N2 1_555 1_555
O5B C15B 1_555 1_555
O6B C15B 1_555 1_555
O8B C11B 1_555 1_555
N2B C16 1_555 1_555
C9B H5B 1_555 1_555
C10B C9B 1_555 1_555
H6B C10B 1_555 1_555
C11B C10B 1_555 1_555
C12B C11B 1_555 1_555
H7B C12B 1_555 1_555
C13B C12B 1_555 1_555
H8B C13B 1_555 1_555
C14B C9B 1_555 1_555
C15B C14B 1_555 1_555
C16B N2A 1_555 1_555
O4B Cd2 1_555 1_555
O7B Cd3 1_555 1_555
O4A Cd2 1_555 1_555
O7A Cd3 1_555 1_555
Cd2_2 O5A 1_555 1_555
Cd2_3 O5B 1_555 1_555
Cd3_2 O6A 1_555 1_555
Cd3_3 O6B 1_555 1_555
O5A_2 Cd2 1_555 1_555
O5B_2 Cd2 1_555 1_555
O6A_2 Cd3 1_555 1_555
O6B_2 Cd3 1_555 1_555
C5 C6 1_555 1_555
C6 C7 1_555 1_555
C13 C14 1_555 1_555
C14 C15 1_555 1_555
O2A Cd1_2 1_555 1_555
N1A C8A 1_555 1_555
C5A C6A 1_555 1_555
O2B Cd1_3 1_555 1_555
O3B C8B 1_555 1_555
N1B C8B 1_555 1_555
C5B C6B 1_555 1_555
O8A C16A 1_555 1_555
C13A C14A 1_555 1_555
O8B C16B 1_555 1_555
N2B C16B 1_555 1_555
C13B C14B 1_555 1_555

#END
