
#######################################################################
#
#                 Cambridge Crystallographic Data Centre
#                                CCDC 
#
#######################################################################
#
# If this CIF has been generated from an entry in the Cambridge 
# Structural Database, then it will include bibliographic, chemical, 
# crystal, experimental, refinement or atomic coordinate data resulting 
# from the CCDC's data processing and validation procedures.
#
#######################################################################

data_SEQTOZ
_symmetry_cell_setting           triclinic
_symmetry_space_group_name_H-M   'P -1'
_symmetry_Int_Tables_number      2
_space_group_name_Hall           '-P 1'
loop_
_symmetry_equiv_pos_site_id
_symmetry_equiv_pos_as_xyz
1 x,y,z
2 -x,-y,-z
_cell_length_a                   14.056(2)
_cell_length_b                   18.053(2)
_cell_length_c                   19.335(2)
_cell_angle_alpha                111.129(12)
_cell_angle_beta                 93.381(11)
_cell_angle_gamma                109.639(13)
_cell_volume                     4218.68
loop_
_atom_site_label
_atom_site_type_symbol
_atom_site_fract_x
_atom_site_fract_y
_atom_site_fract_z
Co1 Co 0.42977(13) 0.89644(11) 0.23577(9)
Co2 Co -0.75864(14) -0.00648(11) 0.08881(10)
Co3 Co 0.59238(14) 0.77836(11) 0.19331(9)
O1 O 0.3876(7) 0.7988(6) 0.2753(5)
O2 O 0.4953(8) 0.7327(5) 0.2546(4)
O3 O 0.3971(6) 0.8156(5) 1.1252(5)
O4 O 0.4894(11) 0.7356(7) 1.0996(6)
O5 O -0.2866(6) -0.1279(5) 0.2802(5)
O6 O -0.4112(6) -0.0925(4) 0.2537(4)
O7 O 0.2341(8) 0.5801(6) 0.7717(5)
O8 O 0.2628(6) 0.5723(4) 0.4652(4)
O9 O -0.0933(6) 0.2671(4) 0.4964(4)
O10 O 0.2506(9) 0.9816(7) 0.9631(5)
O11 O 0.1112(7) 0.9462(5) 1.0066(5)
O12 O -0.7208(8) 0.1210(6) 0.1263(6)
O13 O -0.6033(9) 0.1047(7) 0.1824(9)
O14 O 0.2844(6) 0.9044(5) 0.2043(5)
O15 O 0.1795(6) 0.9596(5) 0.1684(5)
O16 O -0.0891(6) 0.8227(5) 0.6581(4)
O17 O -0.0602(7) 0.8210(5) 0.3934(4)
O18 O -0.4434(6) 0.5067(4) 0.3663(4)
O19 O 0.4961(6) 1.0012(5) 0.2056(5)
O20 O -0.6872(7) -0.0905(5) 0.0580(4)
O21 O 0.6410(7) 0.6773(5) 0.1597(5)
O22 O 0.7011(12) 0.8274(8) 0.1210(7)
O23 O 0.4414(6) 0.9893(7) 0.3497(6)
C1 C 0.2285(10) 0.6616(8) 0.8997(7)
H1 H 0.1624 0.6567 0.8830
C2 C 0.2705(13) 0.7047(8) 0.9756(7)
H2 H 0.2351 0.7296 1.0100
C3 C -0.3271(11) -0.0707(8) 0.2906(7)
C4 C 0.2776(13) 0.6257(8) 0.8478(7)
C5 C -0.1118(9) 0.1180(7) 0.4394(6)
H3 H -0.0461 0.1311 0.4646
C6 C 0.3831(11) 0.6117(7) 0.3975(7)
H4 H 0.4160 0.5810 0.4117
C7 C 0.4170(13) 0.6693(15) 0.9454(10)
H5 H 0.4816 0.6712 0.9622
C8 C 0.0315(9) 0.3928(8) 0.6806(6)
H6 H 0.0027 0.3316 0.6519
H7 H -0.0206 0.4110 0.7025
H8 H 0.0878 0.4075 0.7201
C9 C 0.2515(8) 0.6639(7) 0.4018(5)
H9 H 0.1926 0.6692 0.4188
C10 C -0.1699(10) 0.0394(7) 0.3911(6)
H10 H -0.1446 -0.0034 0.3854
C11 C 0.4200(11) 0.7593(11) 1.0816(8)
C12 C 0.3827(10) 0.7022(8) 0.3291(7)
C13 C 0.3731(16) 0.6265(12) 0.8683(10)
H11 H 0.4064 0.6001 0.8330
C14 C 0.2949(10) 0.7058(7) 0.3589(6)
H12 H 0.2640 0.7397 0.3483
C15 C 0.2944(9) 0.6132(8) 0.4205(7)
C16 C 0.4222(10) 0.7528(9) 0.2835(7)
C17 C 0.1146(8) 0.5267(7) 0.6596(6)
C18 C 0.1316(9) 0.5745(7) 0.7449(6)
H13 H 0.1301 0.6312 0.7581
H14 H 0.0800 0.5426 0.7658
C19 C 0.1358(7) 0.5242(6) 0.5345(5)
C20 C 0.0736(8) 0.3839(7) 0.4187(6)
H15 H 0.0445 0.3233 0.4064
H16 H 0.1383 0.3983 0.4028
H17 H 0.0270 0.3989 0.3931
C21 C 0.3672(12) 0.7092(9) 0.9984(7)
C22 C 0.4277(10) 0.6566(8) 0.3519(7)
H18 H 0.4890 0.6543 0.3375
C23 C 0.2095(10) 0.6651(7) 0.6478(7)
H19 H 0.2301 0.6853 0.6093
H20 H 0.2696 0.6791 0.6837
H21 H 0.1657 0.6921 0.6731
C24 C -0.2480(10) 0.1641(7) 0.4157(7)
H22 H -0.2749 0.2065 0.4248
C25 C -0.3041(8) 0.0788(7) 0.3643(6)
H23 H -0.3707 0.0648 0.3400
C26 C 0.1632(9) 0.5689(7) 0.4824(6)
H24 H 0.1112 0.5383 0.4359
H25 H 0.1647 0.6268 0.5060
C27 C 0.0908(7) 0.4335(6) 0.5041(5)
C28 C 0.0601(7) 0.3902(7) 0.5506(6)
C29 C -0.2666(10) 0.0153(6) 0.3478(6)
C30 C -0.1526(10) 0.1811(7) 0.4514(6)
C31 C 0.0704(7) 0.4373(7) 0.6288(5)
C32 C 0.1511(8) 0.5685(6) 0.6117(7)
C33 C 0.0157(8) 0.2936(6) 0.5193(5)
H26 H 0.0448 0.2701 0.4763
H27 H 0.0307 0.2740 0.5576
C34 C 0.1624(10) 0.8671(7) 0.3077(7)
H28 H 0.2264 0.8628 0.3111
C35 C 0.1513(15) 0.9507(10) 0.9517(9)
C36 C -0.3322(9) 0.6361(8) 0.5713(7)
H29 H -0.3158 0.6753 0.6235
H30 H -0.3056 0.5924 0.5662
H31 H -0.4058 0.6100 0.5538
C37 C 0.0419(9) 0.9067(6) 0.2547(6)
H32 H 0.0248 0.9303 0.2227
C38 C 0.0972(10) 0.8426(7) 0.3525(7)
H33 H 0.1162 0.8218 0.3863
C39 C 0.0844(11) 0.9162(8) 0.8744(7)
C40 C 0.1236(11) 0.8958(8) 0.8116(9)
H34 H 0.1923 0.9017 0.8174
C41 C -0.5715(10) 0.3911(7) 0.2651(7)
H35 H -0.5942 0.4303 0.2561
C42 C -0.0739(11) 0.8798(8) 0.7962(8)
H36 H -0.1423 0.8748 0.7926
C43 C -0.4449(9) 0.3613(7) 0.3279(7)
H37 H -0.3831 0.3813 0.3617
C44 C 0.1335(9) 0.8983(6) 0.2570(6)
C45 C -0.2683(8) 0.6791(8) 0.3997(7)
C46 C -0.0289(9) 0.8819(7) 0.2980(8)
H38 H -0.0928 0.8865 0.2950
C47 C 0.0695(10) 0.8669(8) 0.7396(7)
H39 H 0.1010 0.8545 0.6983
C48 C -0.2857(9) 0.6831(8) 0.5259(7)
C49 C -0.4975(10) 0.2717(8) 0.2820(8)
H40 H -0.4741 0.2318 0.2887
C50 C -0.2294(8) 0.7705(7) 0.5611(6)
C51 C -0.1627(9) 0.8162(7) 0.3879(6)
H41 H -0.2004 0.7836 0.3358
H42 H -0.1639 0.8734 0.4052
C52 C 0.2053(11) 0.9216(8) 0.2100(7)
C53 C -0.6472(17) 0.1511(10) 0.1691(12)
C54 C -0.1360(8) 0.9117(6) 0.5506(6)
H43 H -0.1155 0.9327 0.5125
H44 H -0.0759 0.9269 0.5872
H45 H -0.1814 0.9371 0.5755
C55 C -0.4884(9) 0.4197(7) 0.3209(6)
C56 C -0.2850(10) 0.6303(7) 0.3156(6)
H46 H -0.3241 0.5704 0.3023
H47 H -0.2195 0.6375 0.3011
H48 H -0.3222 0.6519 0.2898
C57 C -0.3433(9) 0.5397(6) 0.4135(7)
H49 H -0.2972 0.5191 0.3838
H50 H -0.3485 0.5198 0.4540
C58 C -0.3005(8) 0.6384(7) 0.4469(7)
C59 C -0.6223(9) 0.3042(8) 0.2216(6)
H51 H -0.6837 0.2852 0.1876
C60 C 0.0045(10) 0.8496(6) 0.3460(6)
C61 C -0.5850(9) 0.2450(7) 0.2270(6)
C62 C -0.1926(6) 0.8125(6) 0.5131(5)
C63 C -0.0190(14) 0.9097(8) 0.8671(6)
H52 H -0.0481 0.9254 0.9093
C64 C -0.1943(9) 0.8160(7) 0.6462(5)
H53 H -0.1979 0.8724 0.6647
H54 H -0.2356 0.7826 0.6712
C65 C -0.0416(10) 0.8559(6) 0.7290(7)
C66 C -0.2095(8) 0.7729(7) 0.4364(5)
Co1_2 Co -0.57023(13) -0.10356(11) 0.23577(9)
Co1_3 Co 0.42977(13) 0.89644(11) 1.23577(9)
Co2_2 Co 0.24136(14) 0.99352(11) 0.08881(10)
Co2_3 Co 0.24136(14) 0.99352(11) 1.08881(10)
Co3_2 Co -0.40762(14) -0.22164(11) 0.19331(9)
Co3_3 Co 0.59238(14) 0.77836(11) 1.19331(9)
O3_2 O 0.3971(6) 0.8156(5) 0.1252(5)
O4_2 O 0.4894(11) 0.7356(7) 0.0996(6)
O5_2 O 0.7134(6) 0.8721(5) 0.2802(5)
O6_2 O 0.5888(6) 0.9075(4) 0.2537(4)
O10_2 O -0.7494(9) -0.0184(7) -0.0369(5)
O11_2 O -0.8888(7) -0.0538(5) 0.0066(5)
O15_2 O -0.8205(6) -0.0404(5) 0.1684(5)
loop_
_geom_bond_atom_site_label_1
_geom_bond_atom_site_label_2
_geom_bond_site_symmetry_1
_geom_bond_site_symmetry_2
Co1 O1 1_555 1_555
Co2 O12 1_555 1_555
Co3 O2 1_555 1_555
O1 C16 1_555 1_555
O2 C16 1_555 1_555
O3 C11 1_555 1_555
O4 C11 1_555 1_555
O5 C3 1_555 1_555
O6 C3 1_555 1_555
O7 C4 1_555 1_555
O8 C15 1_555 1_555
O9 C30 1_555 1_555
O10 C35 1_555 1_555
O11 C35 1_555 1_555
O12 C53 1_555 1_555
O13 Co2 1_555 1_555
O14 Co1 1_555 1_555
O15 C52 1_555 1_555
O16 C64 1_555 1_555
O17 C51 1_555 1_555
O18 C55 1_555 1_555
O19 Co1 1_555 1_555
O20 Co2 1_555 1_555
O21 Co3 1_555 1_555
O22 Co3 1_555 1_555
O23 Co1 1_555 1_555
C1 H1 1_555 1_555
C2 C1 1_555 1_555
H2 C2 1_555 1_555
C3 C29 1_555 1_555
C4 C1 1_555 1_555
C5 H3 1_555 1_555
C6 H4 1_555 1_555
C7 H5 1_555 1_555
C8 H6 1_555 1_555
H7 C8 1_555 1_555
H8 C8 1_555 1_555
C9 H9 1_555 1_555
C10 C5 1_555 1_555
H10 C10 1_555 1_555
C11 C21 1_555 1_555
C12 C14 1_555 1_555
C13 C4 1_555 1_555
H11 C13 1_555 1_555
C14 C9 1_555 1_555
H12 C14 1_555 1_555
C15 C6 1_555 1_555
C16 C12 1_555 1_555
C17 C18 1_555 1_555
C18 O7 1_555 1_555
H13 C18 1_555 1_555
H14 C18 1_555 1_555
C19 C26 1_555 1_555
C20 H15 1_555 1_555
H16 C20 1_555 1_555
H17 C20 1_555 1_555
C21 C2 1_555 1_555
C22 C6 1_555 1_555
H18 C22 1_555 1_555
C23 H19 1_555 1_555
H20 C23 1_555 1_555
H21 C23 1_555 1_555
C24 H22 1_555 1_555
C25 C24 1_555 1_555
H23 C25 1_555 1_555
C26 O8 1_555 1_555
H24 C26 1_555 1_555
H25 C26 1_555 1_555
C27 C19 1_555 1_555
C28 C27 1_555 1_555
C29 C10 1_555 1_555
C30 C5 1_555 1_555
C31 C8 1_555 1_555
C32 C17 1_555 1_555
C33 O9 1_555 1_555
H26 C33 1_555 1_555
H27 C33 1_555 1_555
C34 H28 1_555 1_555
C35 C39 1_555 1_555
C36 H29 1_555 1_555
H30 C36 1_555 1_555
H31 C36 1_555 1_555
C37 H32 1_555 1_555
C38 C34 1_555 1_555
H33 C38 1_555 1_555
C39 C40 1_555 1_555
C40 H34 1_555 1_555
C41 H35 1_555 1_555
C42 H36 1_555 1_555
C43 H37 1_555 1_555
C44 C34 1_555 1_555
C45 C56 1_555 1_555
C46 C37 1_555 1_555
H38 C46 1_555 1_555
C47 C40 1_555 1_555
H39 C47 1_555 1_555
C48 C36 1_555 1_555
C49 C43 1_555 1_555
H40 C49 1_555 1_555
C50 C48 1_555 1_555
C51 H41 1_555 1_555
H42 C51 1_555 1_555
C52 O14 1_555 1_555
C53 O13 1_555 1_555
C54 H43 1_555 1_555
H44 C54 1_555 1_555
H45 C54 1_555 1_555
C55 C41 1_555 1_555
C56 H46 1_555 1_555
H47 C56 1_555 1_555
H48 C56 1_555 1_555
C57 O18 1_555 1_555
H49 C57 1_555 1_555
H50 C57 1_555 1_555
C58 C45 1_555 1_555
C59 C41 1_555 1_555
H51 C59 1_555 1_555
C60 O17 1_555 1_555
C61 C49 1_555 1_555
C62 C50 1_555 1_555
C63 C39 1_555 1_555
H52 C63 1_555 1_555
C64 C50 1_555 1_555
H53 C64 1_555 1_555
H54 C64 1_555 1_555
C65 O16 1_555 1_555
C66 C45 1_555 1_555
Co1_2 O6 1_555 1_555
Co1_3 O3 1_555 1_555
Co2_2 O15 1_555 1_555
Co2_3 O10 1_555 1_555
Co3_2 O5 1_555 1_555
Co3_3 O4 1_555 1_555
O3_2 Co1 1_555 1_555
O4_2 Co3 1_555 1_555
O5_2 Co3 1_555 1_555
O6_2 Co1 1_555 1_555
O10_2 Co2 1_555 1_555
O11_2 Co2 1_555 1_555
O15_2 Co2 1_555 1_555
Co3 O6_2 1_555 1_555
O6 Co3_2 1_555 1_555
O11 Co2_3 1_555 1_555
C7 C13 1_555 1_555
C7 C21 1_555 1_555
C9 C15 1_555 1_555
C12 C22 1_555 1_555
C17 C31 1_555 1_555
C19 C32 1_555 1_555
C20 C27 1_555 1_555
C23 C32 1_555 1_555
C24 C30 1_555 1_555
C25 C29 1_555 1_555
C28 C31 1_555 1_555
C28 C33 1_555 1_555
C37 C44 1_555 1_555
C38 C60 1_555 1_555
C42 C63 1_555 1_555
C42 C65 1_555 1_555
C43 C55 1_555 1_555
C44 C52 1_555 1_555
C46 C60 1_555 1_555
C47 C65 1_555 1_555
C48 C58 1_555 1_555
C51 C66 1_555 1_555
C53 C61 1_555 1_555
C54 C62 1_555 1_555
C57 C58 1_555 1_555
C59 C61 1_555 1_555
C62 C66 1_555 1_555

#END
