
#######################################################################
#
#                 Cambridge Crystallographic Data Centre
#                                CCDC 
#
#######################################################################
#
# If this CIF has been generated from an entry in the Cambridge 
# Structural Database, then it will include bibliographic, chemical, 
# crystal, experimental, refinement or atomic coordinate data resulting 
# from the CCDC's data processing and validation procedures.
#
#######################################################################

data_SEQTAL
_symmetry_cell_setting           monoclinic
_symmetry_space_group_name_H-M   'P 21/c'
_symmetry_Int_Tables_number      14
_space_group_name_Hall           '-P 2ybc'
loop_
_symmetry_equiv_pos_site_id
_symmetry_equiv_pos_as_xyz
1 x,y,z
2 -x,1/2+y,1/2-z
3 -x,-y,-z
4 x,1/2-y,1/2+z
_cell_length_a                   8.7530(6)
_cell_length_b                   35.440(3)
_cell_length_c                   17.9595(10)
_cell_angle_alpha                90
_cell_angle_beta                 91.812(7)
_cell_angle_gamma                90
_cell_volume                     5568.36
loop_
_atom_site_label
_atom_site_type_symbol
_atom_site_fract_x
_atom_site_fract_y
_atom_site_fract_z
Mn1 Mn 0.44524(12) 0.31688(3) 0.92038(5)
Mn2 Mn 0.08282(18) 0.31510(6) 1.01682(7)
Cl1 Cl 0.6583(3) 0.31053(14) 0.84479(16)
O1 O -0.1496(5) 0.43757(13) 0.6346(2)
O2 O -0.2631(5) 0.59209(12) 0.4852(2)
O3 O -0.4490(5) 0.43559(13) 0.3182(2)
O4 O 0.3007(8) 0.34725(16) 0.8551(3)
O5 O 0.0788(7) 0.34483(17) 0.9147(3)
O6 O -0.1844(11) 0.7680(2) 0.5199(5)
O7 O -0.4089(11) 0.76070(17) 0.5625(4)
O8 O -0.683(2) 0.3350(3) 0.0486(8)
O9 O -0.4556(18) 0.3503(3) 0.0100(6)
O10 O 0.0992(11) 0.2895(4) 1.1424(4)
O11 O -0.1314(8) 0.3013(5) 1.0008(8)
O12 O 0.0133(19) 0.3738(5) 1.0675(7)
C1 C -0.1757(6) 0.47317(16) 0.5219(3)
C2 C -0.2322(6) 0.50915(16) 0.5389(3)
C3 C -0.3252(6) 0.52757(16) 0.4851(3)
C4 C -0.3570(6) 0.51193(17) 0.4160(3)
C5 C -0.2986(6) 0.47579(18) 0.3994(3)
C6 C -0.2144(6) 0.45580(16) 0.4542(3)
C7 C -0.0670(6) 0.45417(18) 0.5761(3)
H1 H -0.0099 0.4348 0.5506
H2 H 0.0052 0.4725 0.5965
C8 C -0.1909(8) 0.5277(2) 0.6120(3)
H3 H -0.1270 0.5110 0.6415
H4 H -0.2823 0.5331 0.6381
H5 H -0.1368 0.5507 0.6031
C9 C -0.3843(7) 0.56692(16) 0.5017(3)
H6 H -0.4745 0.5725 0.4709
H7 H -0.4104 0.5690 0.5536
C10 C -0.4519(8) 0.53250(19) 0.3565(3)
H8 H -0.4623 0.5169 0.3129
H9 H -0.4022 0.5557 0.3439
H10 H -0.5513 0.5379 0.3750
C11 C -0.3167(7) 0.45870(18) 0.3228(3)
H11 H -0.3253 0.4786 0.2859
H12 H -0.2272 0.4437 0.3123
C12 C -0.1710(8) 0.41487(19) 0.4414(4)
H13 H -0.1151 0.4055 0.4843
H14 H -0.1084 0.4132 0.3985
H15 H -0.2619 0.4001 0.4331
C13 C -0.0680(7) 0.41892(19) 0.6880(3)
C14 C 0.0873(8) 0.41169(19) 0.6876(3)
H16 H 0.1446 0.4205 0.6485
C15 C 0.1579(8) 0.3916(2) 0.7445(4)
H17 H 0.2625 0.3872 0.7429
C16 C 0.0796(9) 0.3778(2) 0.8033(3)
C17 C -0.0764(10) 0.3851(2) 0.8035(4)
H18 H -0.1328 0.3764 0.8431
C18 C -0.1489(8) 0.4046(2) 0.7477(4)
H19 H -0.2538 0.4085 0.7493
C19 C 0.1580(13) 0.3548(2) 0.8613(4)
C20 C -0.2784(8) 0.62970(19) 0.5002(3)
C21 C -0.3992(8) 0.64462(19) 0.5349(4)
H20 H -0.4776 0.6290 0.5504
C22 C -0.4059(9) 0.6827(2) 0.5471(4)
H21 H -0.4905 0.6928 0.5702
C23 C -0.2909(11) 0.70662(19) 0.5262(4)
C24 C -0.1649(10) 0.6901(2) 0.4934(5)
H22 H -0.0823 0.7049 0.4805
C25 C -0.1624(9) 0.6523(2) 0.4801(4)
H23 H -0.0792 0.6418 0.4568
C26 C -0.2946(17) 0.7475(3) 0.5372(6)
C27 C -0.4756(9) 0.4159(2) 0.2531(4)
C28 C -0.3808(10) 0.4177(3) 0.1921(4)
H24 H -0.2950 0.4331 0.1926
C29 C -0.4192(15) 0.3956(3) 0.1308(5)
H25 H -0.3553 0.3961 0.0904
C30 C -0.544(2) 0.3735(3) 0.1264(6)
C31 C -0.6344(14) 0.3736(3) 0.1868(7)
H26 H -0.7228 0.3591 0.1849
C32 C -0.6023(10) 0.3937(2) 0.2490(4)
H27 H -0.6667 0.3924 0.2891
C33 C -0.575(2) 0.3507(4) 0.0565(8)
Mn1_2 Mn -0.55476(12) 0.31688(3) -0.07962(5)
Mn1A Mn -0.44524(12) 0.81688(3) 0.57962(5)
Mn2_2 Mn -0.91718(18) 0.31510(6) 0.01682(7)
Mn2A Mn -0.08282(18) 0.81510(6) 0.48318(7)
O6A O 0.1844(11) 0.2680(2) 0.9801(5)
O7A O 0.4089(11) 0.26070(17) 0.9375(4)
O8_2 O 0.317(2) 0.3350(3) 1.0486(8)
O9_2 O 0.5444(18) 0.3503(3) 1.0100(6)
loop_
_geom_bond_atom_site_label_1
_geom_bond_atom_site_label_2
_geom_bond_site_symmetry_1
_geom_bond_site_symmetry_2
Mn1 Cl1 1_555 1_555
Mn2 O5 1_555 1_555
O1 C7 1_555 1_555
O2 C9 1_555 1_555
O3 C11 1_555 1_555
O4 Mn1 1_555 1_555
O5 C19 1_555 1_555
O6 C26 1_555 1_555
O7 C26 1_555 1_555
O8 C33 1_555 1_555
O9 C33 1_555 1_555
O10 Mn2 1_555 1_555
O11 Mn2 1_555 1_555
O12 Mn2 1_555 1_555
C1 C2 1_555 1_555
C2 C3 1_555 1_555
C3 C4 1_555 1_555
C4 C5 1_555 1_555
C5 C6 1_555 1_555
C6 C1 1_555 1_555
C7 C1 1_555 1_555
H1 C7 1_555 1_555
H2 C7 1_555 1_555
C8 C2 1_555 1_555
H3 C8 1_555 1_555
H4 C8 1_555 1_555
H5 C8 1_555 1_555
C9 C3 1_555 1_555
H6 C9 1_555 1_555
H7 C9 1_555 1_555
C10 C4 1_555 1_555
H8 C10 1_555 1_555
H9 C10 1_555 1_555
H10 C10 1_555 1_555
C11 C5 1_555 1_555
H11 C11 1_555 1_555
H12 C11 1_555 1_555
C12 C6 1_555 1_555
H13 C12 1_555 1_555
H14 C12 1_555 1_555
H15 C12 1_555 1_555
C13 O1 1_555 1_555
C14 C13 1_555 1_555
H16 C14 1_555 1_555
C15 C14 1_555 1_555
H17 C15 1_555 1_555
C16 C15 1_555 1_555
C17 C16 1_555 1_555
H18 C17 1_555 1_555
C18 C13 1_555 1_555
H19 C18 1_555 1_555
C19 O4 1_555 1_555
C20 O2 1_555 1_555
C21 C20 1_555 1_555
H20 C21 1_555 1_555
C22 C21 1_555 1_555
H21 C22 1_555 1_555
C23 C22 1_555 1_555
C24 C23 1_555 1_555
H22 C24 1_555 1_555
C25 C20 1_555 1_555
H23 C25 1_555 1_555
C26 C23 1_555 1_555
C27 O3 1_555 1_555
C28 C27 1_555 1_555
H24 C28 1_555 1_555
C29 C28 1_555 1_555
H25 C29 1_555 1_555
C30 C29 1_555 1_555
C31 C30 1_555 1_555
H26 C31 1_555 1_555
C32 C27 1_555 1_555
H27 C32 1_555 1_555
C33 C30 1_555 1_555
Mn1_2 O9 1_555 1_555
Mn1A O7 1_555 1_555
Mn2_2 O8 1_555 1_555
Mn2A O6 1_555 1_555
O6A Mn2 1_555 1_555
O7A Mn1 1_555 1_555
O8_2 Mn2 1_555 1_555
O9_2 Mn1 1_555 1_555
C16 C19 1_555 1_555
C17 C18 1_555 1_555
C24 C25 1_555 1_555
C31 C32 1_555 1_555

#END
