
#######################################################################
#
#                 Cambridge Crystallographic Data Centre
#                                CCDC 
#
#######################################################################
#
# If this CIF has been generated from an entry in the Cambridge 
# Structural Database, then it will include bibliographic, chemical, 
# crystal, experimental, refinement or atomic coordinate data resulting 
# from the CCDC's data processing and validation procedures.
#
#######################################################################

data_SEQYEU
_symmetry_cell_setting           triclinic
_symmetry_space_group_name_H-M   'P -1'
_symmetry_Int_Tables_number      2
_space_group_name_Hall           '-P 1'
loop_
_symmetry_equiv_pos_site_id
_symmetry_equiv_pos_as_xyz
1 x,y,z
2 -x,-y,-z
_cell_length_a                   8.9318(8)
_cell_length_b                   11.1272(9)
_cell_length_c                   11.2538(10)
_cell_angle_alpha                116.636(2)
_cell_angle_beta                 100.8770(10)
_cell_angle_gamma                94.3770(10)
_cell_volume                     965.17
loop_
_atom_site_label
_atom_site_type_symbol
_atom_site_fract_x
_atom_site_fract_y
_atom_site_fract_z
Cu1 Cu 0.68041(8) 0.32503(6) 0.13577(6)
Cu2 Cu 0.5000 0.0000 0.0000
Mo1 Mo 0.96781(5) 0.61272(4) 0.31499(4)
N1 N 0.8106(5) 0.5494(4) 0.0996(4)
N2 N 0.6988(5) 0.4316(4) 0.0348(4)
N3 N 0.6694(5) 0.5375(4) -0.0867(4)
N4 N 0.6025(5) 0.5738(5) -0.1863(5)
H1 H 0.5190 0.5239 -0.2476
H2 H 0.6449 0.6460 -0.1860
N5 N 0.6331(5) 0.2542(4) 0.2579(4)
N6 N 0.5713(5) 0.1186(4) 0.2078(4)
N7 N 0.5750(5) 0.2298(4) 0.4243(4)
N8 N 0.5499(5) 0.2647(5) 0.5552(4)
H3 H 0.5739 0.3484 0.6187
H4 H 0.5107 0.2021 0.5713
O1 O 0.8331(4) 0.4722(4) 0.2863(4)
C1 C 0.6156(6) 0.4280(5) -0.0753(5)
H5 H 0.5314 0.3599 -0.1368
C2 C 0.7916(6) 0.6104(5) 0.0221(5)
H6 H 0.8528 0.6909 0.0398
C3 C 0.5388(6) 0.1056(5) 0.3106(5)
H7 H 0.4975 0.0241 0.3063
C4 C 0.6355(6) 0.3193(5) 0.3883(5)
H8 H 0.6728 0.4121 0.4465
O2 O 0.5694(5) 0.1586(3) -0.0144(3)
H9 H 0.5484 0.1539 -0.0934
O3 O 0.2530(5) 0.1081(5) 0.0524(5)
H10 H 0.2406 0.1046 0.1240
H11 H 0.1674 0.1163 0.0112
Mo2 Mo 0.82528(5) 0.90212(4) 0.38076(4)
Mo3 Mo 1.14318(5) 0.90837(4) 0.26702(4)
Mo4 Mo 1.08500(5) 1.22240(4) 0.37784(4)
O4 O 1.0028(4) 0.7850(3) 0.2978(3)
O5 O 0.9948(4) 1.0309(3) 0.3934(3)
O6 O 0.7944(4) 0.7488(3) 0.4074(3)
O7 O 0.7011(4) 0.8514(4) 0.2248(4)
O8 O 0.7357(4) 1.0180(4) 0.4982(4)
O9 O 1.2270(4) 1.0940(4) 0.3199(4)
O10 O 1.0398(4) 0.8621(4) 0.1043(4)
O11 O 1.3038(4) 0.8318(4) 0.2465(4)
O12 O 1.0535(4) 0.6916(4) 0.5016(3)
O13 O 1.1141(4) 0.5449(4) 0.2474(4)
O14 O 0.9555(4) 1.1700(4) 0.2253(4)
O15 O 1.2059(5) 1.3625(4) 0.4032(4)
Cu1A Cu 0.31959(8) -0.32503(6) -0.13577(6)
Mo1A Mo 0.03219(5) -0.61272(4) -0.31499(4)
N1A N 0.1894(5) -0.5494(4) -0.0996(4)
N2A N 0.3012(5) -0.4316(4) -0.0348(4)
N3A N 0.3306(5) -0.5375(4) 0.0867(4)
N4A N 0.3975(5) -0.5738(5) 0.1863(5)
H1A H 0.4810 -0.5239 0.2476
H2A H 0.3551 -0.6460 0.1860
N5A N 0.3669(5) -0.2542(4) -0.2579(4)
N6A N 0.4287(5) -0.1186(4) -0.2078(4)
N7A N 0.4250(5) -0.2298(4) -0.4243(4)
N8A N 0.4501(5) -0.2647(5) -0.5552(4)
H3A H 0.4261 -0.3484 -0.6187
H4A H 0.4893 -0.2021 -0.5713
O1A O 0.1669(4) -0.4722(4) -0.2863(4)
C1A C 0.3844(6) -0.4280(5) 0.0753(5)
H5A H 0.4686 -0.3599 0.1368
C2A C 0.2084(6) -0.6104(5) -0.0221(5)
H6A H 0.1472 -0.6909 -0.0398
C3A C 0.4612(6) -0.1056(5) -0.3106(5)
H7A H 0.5025 -0.0241 -0.3063
C4A C 0.3645(6) -0.3193(5) -0.3883(5)
H8A H 0.3272 -0.4121 -0.4465
O2A O 0.4306(5) -0.1586(3) 0.0144(3)
H9A H 0.4516 -0.1539 0.0934
O3A O 0.7470(5) -0.1081(5) -0.0524(5)
H10A H 0.7594 -0.1046 -0.1240
H11A H 0.8326 -0.1163 -0.0112
Mo2A Mo 0.17472(5) -0.90212(4) -0.38076(4)
Mo3A Mo -0.14318(5) -0.90837(4) -0.26702(4)
Mo4A Mo -0.08500(5) -1.22240(4) -0.37784(4)
O4A O -0.0028(4) -0.7850(3) -0.2978(3)
O5A O 0.0052(4) -1.0309(3) -0.3934(3)
O6A O 0.2056(4) -0.7488(3) -0.4074(3)
O7A O 0.2989(4) -0.8514(4) -0.2248(4)
O8A O 0.2643(4) -1.0180(4) -0.4982(4)
O9A O -0.2270(4) -1.0940(4) -0.3199(4)
O10A O -0.0398(4) -0.8621(4) -0.1043(4)
O11A O -0.3038(4) -0.8318(4) -0.2465(4)
O12A O -0.0535(4) -0.6916(4) -0.5016(3)
O13A O -0.1141(4) -0.5449(4) -0.2474(4)
O14A O 0.0445(4) -1.1700(4) -0.2253(4)
O15A O -0.2059(5) -1.3625(4) -0.4032(4)
Mo2_2 Mo -0.17472(5) -1.09788(4) -0.61924(4)
Mo2A_2 Mo 1.17472(5) 1.09788(4) 0.61924(4)
Mo3_2 Mo 0.14318(5) -1.09163(4) -0.73298(4)
Mo3A_2 Mo 0.85682(5) 1.09163(4) 0.73298(4)
Mo4_2 Mo 0.08500(5) -0.77760(4) -0.62216(4)
Mo4A_2 Mo 0.91500(5) 0.77760(4) 0.62216(4)
O5_2 O -0.0052(4) -0.9691(3) -0.6066(3)
O5A_2 O 1.0052(4) 0.9691(3) 0.6066(3)
O6_2 O -0.2056(4) -1.2512(3) -0.5926(3)
O6A_2 O 1.2056(4) 1.2512(3) 0.5926(3)
O8_2 O -0.2643(4) -0.9820(4) -0.5018(4)
O8A_2 O 1.2643(4) 0.9820(4) 0.5018(4)
O12_2 O 0.0535(4) -1.3084(4) -0.4984(3)
O12A_2 O 0.9465(4) 1.3084(4) 0.4984(3)
loop_
_geom_bond_atom_site_label_1
_geom_bond_atom_site_label_2
_geom_bond_site_symmetry_1
_geom_bond_site_symmetry_2
Cu1 N2 1_555 1_555
Cu2 N6 1_555 1_555
Mo1 N1 1_555 1_555
N1 N2 1_555 1_555
N2 C1 1_555 1_555
N3 N4 1_555 1_555
N4 H1 1_555 1_555
H2 N4 1_555 1_555
N5 Cu1 1_555 1_555
N6 N5 1_555 1_555
N7 N8 1_555 1_555
N8 H3 1_555 1_555
H4 N8 1_555 1_555
O1 Cu1 1_555 1_555
C1 N3 1_555 1_555
H5 C1 1_555 1_555
C2 N1 1_555 1_555
H6 C2 1_555 1_555
C3 N6 1_555 1_555
H7 C3 1_555 1_555
C4 N5 1_555 1_555
H8 C4 1_555 1_555
O2 Cu1 1_555 1_555
H9 O2 1_555 1_555
O3 Cu2 1_555 1_555
H10 O3 1_555 1_555
H11 O3 1_555 1_555
Mo2 O4 1_555 1_555
Mo3 O4 1_555 1_555
Mo4 O5 1_555 1_555
O4 Mo1 1_555 1_555
O5 Mo2 1_555 1_555
O6 Mo1 1_555 1_555
O7 Mo2 1_555 1_555
O8 Mo2 1_555 1_555
O9 Mo3 1_555 1_555
O10 Mo3 1_555 1_555
O11 Mo3 1_555 1_555
O12 Mo1 1_555 1_555
O13 Mo1 1_555 1_555
O14 Mo4 1_555 1_555
O15 Mo4 1_555 1_555
Cu1A N2A 1_555 1_555
Mo1A N1A 1_555 1_555
N1A N2A 1_555 1_555
N2A C1A 1_555 1_555
N3A N4A 1_555 1_555
N4A H1A 1_555 1_555
H2A N4A 1_555 1_555
N5A Cu1A 1_555 1_555
N6A Cu2 1_555 1_555
N7A N8A 1_555 1_555
N8A H3A 1_555 1_555
H4A N8A 1_555 1_555
O1A Cu1A 1_555 1_555
C1A N3A 1_555 1_555
H5A C1A 1_555 1_555
C2A N1A 1_555 1_555
H6A C2A 1_555 1_555
C3A N6A 1_555 1_555
H7A C3A 1_555 1_555
C4A N5A 1_555 1_555
H8A C4A 1_555 1_555
O2A Cu2 1_555 1_555
H9A O2A 1_555 1_555
O3A Cu2 1_555 1_555
H10A O3A 1_555 1_555
H11A O3A 1_555 1_555
Mo2A O4A 1_555 1_555
Mo3A O4A 1_555 1_555
Mo4A O5A 1_555 1_555
O4A Mo1A 1_555 1_555
O5A Mo2A 1_555 1_555
O6A Mo1A 1_555 1_555
O7A Mo2A 1_555 1_555
O8A Mo2A 1_555 1_555
O9A Mo3A 1_555 1_555
O10A Mo3A 1_555 1_555
O11A Mo3A 1_555 1_555
O12A Mo1A 1_555 1_555
O13A Mo1A 1_555 1_555
O14A Mo4A 1_555 1_555
O15A Mo4A 1_555 1_555
Mo2_2 O5A 1_555 1_555
Mo2A_2 O5 1_555 1_555
Mo3_2 O8A 1_555 1_555
Mo3A_2 O8 1_555 1_555
Mo4_2 O6A 1_555 1_555
Mo4A_2 O6 1_555 1_555
O5_2 Mo2A 1_555 1_555
O5A_2 Mo2 1_555 1_555
O6_2 Mo4A 1_555 1_555
O6A_2 Mo4 1_555 1_555
O8_2 Mo3A 1_555 1_555
O8A_2 Mo3 1_555 1_555
O12_2 Mo4A 1_555 1_555
O12A_2 Mo4 1_555 1_555
Cu2 O2 1_555 1_555
Mo1 O1 1_555 1_555
N3 C2 1_555 1_555
N7 C3 1_555 1_555
N7 C4 1_555 1_555
Mo2 O6 1_555 1_555
Mo3 O5 1_555 1_555
Mo4 O9 1_555 1_555
O12 Mo4A_2 1_555 1_555
Cu1A O2A 1_555 1_555
Mo1A O1A 1_555 1_555
N3A C2A 1_555 1_555
N5A N6A 1_555 1_555
N7A C3A 1_555 1_555
N7A C4A 1_555 1_555
Mo2A O6A 1_555 1_555
Mo3A O5A 1_555 1_555
Mo4A O9A 1_555 1_555
O12A Mo4_2 1_555 1_555
Mo2_2 O5_2 1_555 1_555
Mo2_2 O6_2 1_555 1_555
Mo2_2 O8_2 1_555 1_555
Mo2A_2 O5A_2 1_555 1_555
Mo2A_2 O6A_2 1_555 1_555
Mo2A_2 O8A_2 1_555 1_555
Mo3_2 O5_2 1_555 1_555
Mo3A_2 O5A_2 1_555 1_555
Mo4_2 O5_2 1_555 1_555
Mo4A_2 O5A_2 1_555 1_555

#END
