
#######################################################################
#
#                 Cambridge Crystallographic Data Centre
#                                CCDC 
#
#######################################################################
#
# If this CIF has been generated from an entry in the Cambridge 
# Structural Database, then it will include bibliographic, chemical, 
# crystal, experimental, refinement or atomic coordinate data resulting 
# from the CCDC's data processing and validation procedures.
#
#######################################################################

data_SERKUW
_symmetry_cell_setting           triclinic
_symmetry_space_group_name_H-M   'P -1'
_symmetry_Int_Tables_number      2
_space_group_name_Hall           '-P 1'
loop_
_symmetry_equiv_pos_site_id
_symmetry_equiv_pos_as_xyz
1 x,y,z
2 -x,-y,-z
_cell_length_a                   10.292(4)
_cell_length_b                   10.794(4)
_cell_length_c                   11.399(5)
_cell_angle_alpha                98.894(5)
_cell_angle_beta                 102.360(6)
_cell_angle_gamma                90.319(5)
_cell_volume                     1221.13
loop_
_atom_site_label
_atom_site_type_symbol
_atom_site_fract_x
_atom_site_fract_y
_atom_site_fract_z
Ag1 Ag 0.40011(5) 0.66720(5) 0.06491(5)
Ag2 Ag 0.04718(6) 0.65589(6) 0.02462(7)
N1 N 0.1531(5) 0.8289(5) 0.1298(5)
N2 N 0.2930(5) 0.8264(5) 0.1722(5)
C1 C -0.1231(7) 0.9339(6) 0.0834(7)
H1 H -0.1175 0.8528 0.0434
C2 C -0.2426(7) 0.9912(7) 0.0671(7)
H2 H -0.3178 0.9480 0.0171
C3 C -0.2529(6) 1.1122(6) 0.1239(6)
C4 C -0.3768(7) 1.1758(7) 0.1065(7)
C5 C -0.4759(8) 1.2297(8) 0.0953(8)
H3 H -0.5501 1.2332 0.1300
C6 C -0.1398(7) 1.1747(7) 0.2019(7)
H4 H -0.1460 1.2553 0.2425
C7 C -0.0193(7) 1.1171(7) 0.2186(7)
H5 H 0.0560 1.1591 0.2695
C8 C -0.0115(6) 0.9954(6) 0.1586(6)
C9 C 0.1180(6) 0.9387(6) 0.1734(6)
C10 C 0.3294(6) 0.9328(6) 0.2379(6)
C11 C 0.4599(6) 0.9851(6) 0.3057(6)
C12 C 0.5700(8) 0.9102(8) 0.3112(9)
H6 H 0.5618 0.8284 0.2693
C13 C 0.6931(7) 0.9601(8) 0.3810(8)
H7 H 0.7674 0.9111 0.3846
C14 C 0.7058(7) 1.0784(7) 0.4432(7)
C15 C 0.8334(8) 1.1298(8) 0.5190(8)
C16 C 0.9303(9) 1.1726(9) 0.5836(9)
H8 H 1.0086 1.2071 0.6358
C17 C 0.5965(8) 1.1533(8) 0.4326(9)
H9 H 0.6052 1.2359 0.4723
C18 C 0.4755(8) 1.1059(7) 0.3639(8)
H10 H 0.4028 1.1572 0.3568
C19 C 0.7611(10) 0.5513(8) 0.3143(8)
C20 C 0.2394(9) 0.4533(9) 0.3423(8)
O1 O 0.2249(4) 1.0088(4) 0.2445(4)
O2 O 0.3412(6) 0.4950(7) 0.1652(6)
O3 O 0.2404(6) 0.2919(6) 0.1539(6)
O4 O 0.1018(5) 0.4682(6) 0.1286(5)
O5 O 0.8591(6) 0.6642(5) 0.1689(6)
O6 O 0.6243(6) 0.6079(9) 0.1182(6)
O7 O 0.7826(6) 0.4480(5) 0.1008(5)
F1 F 0.6773(9) 0.4645(7) 0.3230(6)
F2 F 0.8782(8) 0.5143(8) 0.3659(6)
F3 F 0.7419(8) 0.6559(6) 0.3805(5)
F4 F 0.1430(8) 0.3922(8) 0.3692(6)
F5 F 0.3553(7) 0.4192(8) 0.4008(5)
F6 F 0.2289(10) 0.5699(7) 0.3824(7)
S1 S 0.23146(16) 0.42543(17) 0.18048(15)
S2 S 0.75557(16) 0.57027(16) 0.15879(15)
Ag1A Ag -0.40011(5) 1.33280(5) -0.06491(5)
Ag1A_2 Ag 0.59989(5) 0.33280(5) -0.06491(5)
Ag2A Ag -0.04718(6) 0.34411(6) -0.02462(7)
Ag2_2 Ag 1.04718(6) 0.65589(6) 0.02462(7)
Ag2A_2 Ag 0.95282(6) 0.34411(6) -0.02462(7)
C4A C 0.3768(7) 0.8242(7) -0.1065(7)
C5A C 0.4759(8) 0.7703(8) -0.0953(8)
H3A H 0.5501 0.7668 -0.1300
O4A O -0.1018(5) 0.5318(6) -0.1286(5)
O5_2 O -0.1409(6) 0.6642(5) 0.1689(6)
O7A O 0.2174(6) 0.5520(5) -0.1008(5)
loop_
_geom_bond_atom_site_label_1
_geom_bond_atom_site_label_2
_geom_bond_site_symmetry_1
_geom_bond_site_symmetry_2
Ag1 N2 1_555 1_555
Ag2 N1 1_555 1_555
N1 N2 1_555 1_555
N2 C10 1_555 1_555
C1 H1 1_555 1_555
C2 C1 1_555 1_555
H2 C2 1_555 1_555
C3 C2 1_555 1_555
C4 C3 1_555 1_555
C5 C4 1_555 1_555
H3 C5 1_555 1_555
C6 C3 1_555 1_555
H4 C6 1_555 1_555
C7 C6 1_555 1_555
H5 C7 1_555 1_555
C8 C1 1_555 1_555
C9 N1 1_555 1_555
C10 C11 1_555 1_555
C11 C12 1_555 1_555
C12 H6 1_555 1_555
C13 C12 1_555 1_555
H7 C13 1_555 1_555
C14 C13 1_555 1_555
C15 C14 1_555 1_555
C16 C15 1_555 1_555
H8 C16 1_555 1_555
C17 C14 1_555 1_555
H9 C17 1_555 1_555
C18 C11 1_555 1_555
H10 C18 1_555 1_555
C19 F1 1_555 1_555
C20 F4 1_555 1_555
O1 C9 1_555 1_555
O2 Ag1 1_555 1_555
O3 S1 1_555 1_555
O4 Ag2 1_555 1_555
O5 S2 1_555 1_555
O6 Ag1 1_555 1_555
O7 S2 1_555 1_555
F2 C19 1_555 1_555
F3 C19 1_555 1_555
F5 C20 1_555 1_555
F6 C20 1_555 1_555
S1 C20 1_555 1_555
S2 C19 1_555 1_555
Ag1A C4 1_555 1_555
Ag1A_2 O7 1_555 1_555
Ag2A O4 1_555 1_555
Ag2_2 O5 1_555 1_555
Ag2A_2 O7 1_555 1_555
C4A Ag1 1_555 1_555
C5A Ag1 1_555 1_555
H3A C5A 1_555 1_555
O4A Ag2 1_555 1_555
O5_2 Ag2 1_555 1_555
O7A Ag1 1_555 1_555
Ag2 O7A 1_555 1_555
C5 Ag1A 1_555 1_555
C7 C8 1_555 1_555
C8 C9 1_555 1_555
C10 O1 1_555 1_555
C17 C18 1_555 1_555
O2 S1 1_555 1_555
O4 S1 1_555 1_555
O6 S2 1_555 1_555
Ag2A O4A 1_555 1_555
C4A C5A 1_555 1_555

#END
