
#######################################################################
#
#                 Cambridge Crystallographic Data Centre
#                                CCDC 
#
#######################################################################
#
# If this CIF has been generated from an entry in the Cambridge 
# Structural Database, then it will include bibliographic, chemical, 
# crystal, experimental, refinement or atomic coordinate data resulting 
# from the CCDC's data processing and validation procedures.
#
#######################################################################

data_SERLIL
_symmetry_cell_setting           orthorhombic
_symmetry_space_group_name_H-M   'C m c a'
_symmetry_Int_Tables_number      64
_space_group_name_Hall           '-C 2ac 2'
loop_
_symmetry_equiv_pos_site_id
_symmetry_equiv_pos_as_xyz
1 x,y,z
2 1/2+x,1/2+y,z
3 -x,1/2-y,1/2+z
4 -x,1/2+y,1/2-z
5 x,-y,-z
6 1/2-x,-y,1/2+z
7 1/2-x,y,1/2-z
8 1/2+x,1/2-y,-z
9 -x,-y,-z
10 1/2-x,1/2-y,-z
11 x,1/2+y,1/2-z
12 x,1/2-y,1/2+z
13 -x,y,z
14 1/2+x,y,1/2-z
15 1/2+x,-y,1/2+z
16 1/2-x,1/2+y,z
_cell_length_a                   19.128(3)
_cell_length_b                   12.6042(18)
_cell_length_c                   28.003(4)
_cell_angle_alpha                90
_cell_angle_beta                 90
_cell_angle_gamma                90
_cell_volume                     6751.33
loop_
_atom_site_label
_atom_site_type_symbol
_atom_site_fract_x
_atom_site_fract_y
_atom_site_fract_z
Ag1 Ag 0.40449(3) 0.13524(4) 0.371927(19)
N1 N 0.4636(2) -0.0152(4) 0.34686(18)
N2 N 0.4636(2) 0.2843(4) 0.39986(17)
C1 C 0.4441(3) -0.1101(5) 0.3352(2)
C2 C 0.3747(3) -0.1542(5) 0.3285(2)
C3 C 0.3644(3) -0.2620(5) 0.3330(2)
H1 H 0.4016 -0.3062 0.3409
C4 C 0.2985(4) -0.3038(5) 0.3257(3)
H2 H 0.2915 -0.3765 0.3286
C5 C 0.2428(3) -0.2387(5) 0.3140(2)
C6 C 0.1747(4) -0.2806(6) 0.3032(2)
C7 C 0.1204(4) -0.3121(7) 0.2901(3)
H3 H 0.0970 -0.3155 0.2610
C8 C 0.2535(4) -0.1295(5) 0.3103(3)
H4 H 0.2163 -0.0848 0.3031
C9 C 0.3192(3) -0.0881(5) 0.3172(2)
H5 H 0.3264 -0.0154 0.3144
C10 C 0.4443(3) 0.3751(4) 0.4171(2)
C11 C 0.3751(3) 0.4201(5) 0.4245(2)
C12 C 0.3164(3) 0.3556(5) 0.4257(3)
H6 H 0.3210 0.2825 0.4224
C13 C 0.2511(3) 0.4006(5) 0.4317(2)
H7 H 0.2116 0.3574 0.4324
C14 C 0.2439(3) 0.5088(5) 0.43688(19)
C15 C 0.1753(3) 0.5539(5) 0.4445(2)
C16 C 0.1209(4) 0.5867(6) 0.4546(3)
H8 H 0.0962 0.5925 0.4831
C17 C 0.3030(4) 0.5717(5) 0.4370(3)
H9 H 0.2984 0.6445 0.4413
C18 C 0.3683(3) 0.5286(5) 0.4308(3)
H10 H 0.4076 0.5719 0.4310
O1 O 0.5000 0.4363(4) 0.4287(2)
O2 O 0.5000 -0.1746(5) 0.3275(2)
Ag1L Ag 0.59551(3) 0.13524(4) 0.371927(19)
Ag1O Ag 0.09551(3) -0.36476(4) 0.371927(19)
Ag1O_2 Ag 0.09551(3) 0.63524(4) 0.371927(19)
Ag1A Ag 0.90449(3) -0.36476(4) 0.371927(19)
Ag1A_2 Ag 0.90449(3) 0.63524(4) 0.371927(19)
N1L N 0.5364(2) -0.0152(4) 0.34686(18)
N2L N 0.5364(2) 0.2843(4) 0.39986(17)
C1L C 0.5559(3) -0.1101(5) 0.3352(2)
C2L C 0.6253(3) -0.1542(5) 0.3285(2)
C3L C 0.6356(3) -0.2620(5) 0.3330(2)
H1L H 0.5984 -0.3062 0.3409
C4L C 0.7015(4) -0.3038(5) 0.3257(3)
H2L H 0.7085 -0.3765 0.3286
C5L C 0.7572(3) -0.2387(5) 0.3140(2)
C6L C 0.8253(4) -0.2806(6) 0.3032(2)
C6O C 0.3253(4) 0.2194(6) 0.3032(2)
C6A C 0.6747(4) 0.2194(6) 0.3032(2)
C7L C 0.8796(4) -0.3121(7) 0.2901(3)
C7O C 0.3796(4) 0.1879(7) 0.2901(3)
C7A C 0.6204(4) 0.1879(7) 0.2901(3)
H3L H 0.9030 -0.3155 0.2610
H3O H 0.4030 0.1845 0.2610
H3A H 0.5970 0.1845 0.2610
C8L C 0.7465(4) -0.1295(5) 0.3103(3)
H4L H 0.7837 -0.0848 0.3031
C9L C 0.6808(3) -0.0881(5) 0.3172(2)
H5L H 0.6736 -0.0154 0.3144
C10L C 0.5557(3) 0.3751(4) 0.4171(2)
C11L C 0.6249(3) 0.4201(5) 0.4245(2)
C12L C 0.6836(3) 0.3556(5) 0.4257(3)
H6L H 0.6790 0.2825 0.4224
C13L C 0.7489(3) 0.4006(5) 0.4317(2)
H7L H 0.7884 0.3574 0.4324
C14L C 0.7561(3) 0.5088(5) 0.43688(19)
C15L C 0.8247(3) 0.5539(5) 0.4445(2)
C15O C 0.3247(3) 0.0539(5) 0.4445(2)
C15A C 0.6753(3) 0.0539(5) 0.4445(2)
C16L C 0.8791(4) 0.5867(6) 0.4546(3)
C16O C 0.3791(4) 0.0867(6) 0.4546(3)
C16A C 0.6209(4) 0.0867(6) 0.4546(3)
H8L H 0.9038 0.5925 0.4831
H8O H 0.4038 0.0925 0.4831
H8A H 0.5962 0.0925 0.4831
C17L C 0.6970(4) 0.5717(5) 0.4370(3)
H9L H 0.7016 0.6445 0.4413
C18L C 0.6317(3) 0.5286(5) 0.4308(3)
H10L H 0.5924 0.5719 0.4310
B1 B 0.5000 0.9930(13) 0.2083(5)
F1 F 0.5000 1.0809(8) 0.2351(3)
F2 F 0.5000 1.0081(12) 0.1667(4)
F3 F 0.4221(9) 0.9851(14) 0.1982(10)
F3L F 0.5779(9) 0.9851(14) 0.1982(10)
B2 B 1.0000 0.7189(13) 0.5452(5)
F5 F 1.0000 0.7641(17) 0.5053(4)
F6 F 1.0000 0.6197(10) 0.5357(8)
F7 F 0.9253(7) 0.7180(10) 0.5618(6)
F7L F 1.0747(7) 0.7180(10) 0.5618(6)
F4? F 0.5000 0.9031(12) 0.2290(6)
F8? F 1.0000 0.7699(17) 0.5790(5)
loop_
_geom_bond_atom_site_label_1
_geom_bond_atom_site_label_2
_geom_bond_site_symmetry_1
_geom_bond_site_symmetry_2
Ag1 N1 1_555 1_555
N1 C1 1_555 1_555
N2 Ag1 1_555 1_555
C1 C2 1_555 1_555
C2 C3 1_555 1_555
C3 H1 1_555 1_555
C4 C3 1_555 1_555
H2 C4 1_555 1_555
C5 C4 1_555 1_555
C6 C5 1_555 1_555
C7 C6 1_555 1_555
H3 C7 1_555 1_555
C8 C5 1_555 1_555
H4 C8 1_555 1_555
C9 C2 1_555 1_555
H5 C9 1_555 1_555
C10 N2 1_555 1_555
C11 C10 1_555 1_555
C12 C11 1_555 1_555
H6 C12 1_555 1_555
C13 C12 1_555 1_555
H7 C13 1_555 1_555
C14 C13 1_555 1_555
C15 C14 1_555 1_555
C16 C15 1_555 1_555
H8 C16 1_555 1_555
C17 C14 1_555 1_555
H9 C17 1_555 1_555
C18 C11 1_555 1_555
H10 C18 1_555 1_555
O1 C10 1_555 1_555
O2 C1 1_555 1_555
B1 F1 1_555 1_555
B2 F5 1_555 1_555
F2 B1 1_555 1_555
F3 B1 1_555 1_555
F6 B2 1_555 1_555
F7 B2 1_555 1_555
Ag1L N1L 1_555 1_555
Ag1O C6 1_555 1_555
Ag1O_2 C15 1_555 1_555
Ag1A C6L 1_555 1_555
Ag1A_2 C15L 1_555 1_555
N1L N1 1_555 1_555
N2L N2 1_555 1_555
C1L O2 1_555 1_555
C2L C1L 1_555 1_555
C3L C2L 1_555 1_555
H1L C3L 1_555 1_555
C4L C3L 1_555 1_555
H2L C4L 1_555 1_555
C5L C4L 1_555 1_555
C6L C5L 1_555 1_555
C6O Ag1 1_555 1_555
C6A Ag1L 1_555 1_555
C7L Ag1A 1_555 1_555
C7O Ag1 1_555 1_555
C7A Ag1L 1_555 1_555
H3L C7L 1_555 1_555
H3O C7O 1_555 1_555
H3A C7A 1_555 1_555
C8L C5L 1_555 1_555
H4L C8L 1_555 1_555
C9L C2L 1_555 1_555
H5L C9L 1_555 1_555
C10L O1 1_555 1_555
C11L C10L 1_555 1_555
C12L C11L 1_555 1_555
H6L C12L 1_555 1_555
C13L C12L 1_555 1_555
H7L C13L 1_555 1_555
C14L C13L 1_555 1_555
C15L C14L 1_555 1_555
C15O Ag1 1_555 1_555
C15A Ag1L 1_555 1_555
C16L Ag1A_2 1_555 1_555
C16O Ag1 1_555 1_555
C16A Ag1L 1_555 1_555
H8L C16L 1_555 1_555
H8O C16O 1_555 1_555
H8A C16A 1_555 1_555
C17L C14L 1_555 1_555
H9L C17L 1_555 1_555
C18L C11L 1_555 1_555
H10L C18L 1_555 1_555
F3L B1 1_555 1_555
F7L B2 1_555 1_555
C7 Ag1O 1_555 1_555
C8 C9 1_555 1_555
C16 Ag1O_2 1_555 1_555
C17 C18 1_555 1_555
Ag1L N2L 1_555 1_555
N1L C1L 1_555 1_555
N2L C10L 1_555 1_555
C6L C7L 1_555 1_555
C6O C7O 1_555 1_555
C6A C7A 1_555 1_555
C8L C9L 1_555 1_555
C15L C16L 1_555 1_555
C15O C16O 1_555 1_555
C15A C16A 1_555 1_555
C17L C18L 1_555 1_555

#END
