
#######################################################################
#
#                 Cambridge Crystallographic Data Centre
#                                CCDC 
#
#######################################################################
#
# If this CIF has been generated from an entry in the Cambridge 
# Structural Database, then it will include bibliographic, chemical, 
# crystal, experimental, refinement or atomic coordinate data resulting 
# from the CCDC's data processing and validation procedures.
#
#######################################################################

data_SERLOR
_symmetry_cell_setting           triclinic
_symmetry_space_group_name_H-M   'P -1'
_symmetry_Int_Tables_number      2
_space_group_name_Hall           '-P 1'
loop_
_symmetry_equiv_pos_site_id
_symmetry_equiv_pos_as_xyz
1 x,y,z
2 -x,-y,-z
_cell_length_a                   9.0605(13)
_cell_length_b                   10.4956(15)
_cell_length_c                   10.8085(16)
_cell_angle_alpha                101.666(2)
_cell_angle_beta                 109.269(2)
_cell_angle_gamma                100.944(2)
_cell_volume                     912.886
loop_
_atom_site_label
_atom_site_type_symbol
_atom_site_fract_x
_atom_site_fract_y
_atom_site_fract_z
Ag1 Ag 0.67498(2) 0.54425(2) -0.027623(19)
N1 N 0.4553(2) 0.3996(2) -0.2163(2)
N2 N 0.3142(2) 0.3558(2) -0.1898(2)
C1 C 0.6787(3) 0.4083(3) -0.3743(3)
H1 H 0.7332 0.4391 -0.2798
C2 C 0.7642(3) 0.4158(3) -0.4590(3)
H2 H 0.8764 0.4535 -0.4207
C3 C 0.6855(3) 0.3683(3) -0.5991(3)
H3 H 0.7444 0.3746 -0.6548
C4 C 0.5178(3) 0.3108(3) -0.6572(3)
C5 C 0.4348(4) 0.2554(3) -0.8028(3)
C6 C 0.3670(5) 0.2057(4) -0.9219(3)
H4 H 0.3136 0.1665 -1.0158
C7 C 0.4301(3) 0.3051(2) -0.5732(3)
H5 H 0.3177 0.2684 -0.6115
C8 C 0.5108(3) 0.3542(2) -0.4320(2)
C9 C 0.4166(3) 0.3481(2) -0.3456(2)
C10 C 0.2023(3) 0.2813(2) -0.3055(2)
C11 C 0.0362(3) 0.2009(3) -0.3402(3)
C12 C -0.0662(3) 0.1405(2) -0.4759(3)
H6 H -0.0306 0.1543 -0.5448
C13 C -0.2224(3) 0.0593(2) -0.5096(3)
C14 C -0.3336(3) -0.0047(3) -0.6487(3)
C15 C -0.4323(4) -0.0613(3) -0.7585(3)
H7 H -0.5106 -0.1062 -0.8456
C16 C -0.2721(3) 0.0378(3) -0.4044(3)
H8 H -0.3753 -0.0176 -0.4253
C17 C -0.1694(4) 0.0979(4) -0.2706(3)
H9 H -0.2037 0.0827 -0.2013
C18 C -0.0160(4) 0.1804(4) -0.2372(3)
H10 H 0.0520 0.2221 -0.1460
C19 C 0.9014(4) 0.2016(3) 0.1347(3)
O1 O 0.2576(2) 0.27331(17) -0.40872(16)
O2 O 0.7796(3) 0.3189(3) -0.0444(2)
O3 O 1.0727(3) 0.3776(2) 0.0706(2)
O4 O 0.9083(3) 0.4528(2) 0.1911(3)
S1 S 0.91772(8) 0.35574(7) 0.08183(7)
F1 F 1.0099(4) 0.2244(3) 0.2596(2)
F2 F 0.9268(4) 0.1048(2) 0.0536(3)
F3 F 0.7564(3) 0.1563(3) 0.1362(3)
Ag1A Ag 0.32502(2) 0.45575(2) 0.027623(19)
Ag1A_2 Ag 0.32502(2) 0.45575(2) -0.972377(19)
Ag1A_3 Ag 1.32502(2) 0.45575(2) 0.027623(19)
N2A N 0.6858(2) 0.6442(2) 0.1898(2)
C5A C 0.5652(4) 0.7446(3) -0.1972(3)
C6A C 0.6330(5) 0.7943(4) -0.0781(3)
H4A H 0.6864 0.8335 0.0158
O3A O 0.9273(3) 0.6224(2) -0.0706(2)
loop_
_geom_bond_atom_site_label_1
_geom_bond_atom_site_label_2
_geom_bond_site_symmetry_1
_geom_bond_site_symmetry_2
Ag1 N1 1_555 1_555
N1 N2 1_555 1_555
N2 C10 1_555 1_555
C1 H1 1_555 1_555
C2 C1 1_555 1_555
H2 C2 1_555 1_555
C3 C2 1_555 1_555
H3 C3 1_555 1_555
C4 C3 1_555 1_555
C5 C4 1_555 1_555
C6 C5 1_555 1_555
H4 C6 1_555 1_555
C7 C4 1_555 1_555
H5 C7 1_555 1_555
C8 C1 1_555 1_555
C9 N1 1_555 1_555
C10 C11 1_555 1_555
C11 C12 1_555 1_555
C12 H6 1_555 1_555
C13 C12 1_555 1_555
C14 C13 1_555 1_555
C15 C14 1_555 1_555
H7 C15 1_555 1_555
C16 C13 1_555 1_555
H8 C16 1_555 1_555
C17 C16 1_555 1_555
H9 C17 1_555 1_555
C18 C11 1_555 1_555
H10 C18 1_555 1_555
C19 S1 1_555 1_555
O1 C9 1_555 1_555
O2 Ag1 1_555 1_555
O3 S1 1_555 1_555
O4 S1 1_555 1_555
S1 O2 1_555 1_555
F1 C19 1_555 1_555
F2 C19 1_555 1_555
F3 C19 1_555 1_555
Ag1A N2 1_555 1_555
Ag1A_2 C5 1_555 1_555
Ag1A_3 O3 1_555 1_555
N2A Ag1 1_555 1_555
C5A Ag1 1_555 1_555
C6A Ag1 1_555 1_555
H4A C6A 1_555 1_555
O3A Ag1 1_555 1_555
C6 Ag1A_2 1_555 1_555
C7 C8 1_555 1_555
C8 C9 1_555 1_555
C10 O1 1_555 1_555
C17 C18 1_555 1_555
C5A C6A 1_555 1_555

#END
