
#######################################################################
#
#                 Cambridge Crystallographic Data Centre
#                                CCDC 
#
#######################################################################
#
# If this CIF has been generated from an entry in the Cambridge 
# Structural Database, then it will include bibliographic, chemical, 
# crystal, experimental, refinement or atomic coordinate data resulting 
# from the CCDC's data processing and validation procedures.
#
#######################################################################

data_SERLEH
_symmetry_cell_setting           orthorhombic
_symmetry_space_group_name_H-M   'C m c a'
_symmetry_Int_Tables_number      64
_space_group_name_Hall           '-C 2ac 2'
loop_
_symmetry_equiv_pos_site_id
_symmetry_equiv_pos_as_xyz
1 x,y,z
2 1/2+x,1/2+y,z
3 -x,1/2-y,1/2+z
4 -x,1/2+y,1/2-z
5 x,-y,-z
6 1/2-x,-y,1/2+z
7 1/2-x,y,1/2-z
8 1/2+x,1/2-y,-z
9 -x,-y,-z
10 1/2-x,1/2-y,-z
11 x,1/2+y,1/2-z
12 x,1/2-y,1/2+z
13 -x,y,z
14 1/2+x,y,1/2-z
15 1/2+x,-y,1/2+z
16 1/2-x,1/2+y,z
_cell_length_a                   19.059(9)
_cell_length_b                   12.922(6)
_cell_length_c                   15.609(7)
_cell_angle_alpha                90
_cell_angle_beta                 90
_cell_angle_gamma                90
_cell_volume                     3844.19
loop_
_atom_site_label
_atom_site_type_symbol
_atom_site_fract_x
_atom_site_fract_y
_atom_site_fract_z
Ag1 Ag 0.90395(7) 0.0000 0.0000
N1 N 0.9633(3) 0.1392(5) 0.0533(5)
C1 C 0.9442(4) 0.2319(6) 0.0728(6)
C2 C 0.8745(4) 0.2758(6) 0.0850(6)
C3 C 0.8667(5) 0.3831(8) 0.0846(8)
H1 H 0.9050 0.4262 0.0750
C4 C 0.8006(5) 0.4242(8) 0.0986(8)
H2 H 0.7947 0.4956 0.0979
C5 C 0.7440(5) 0.3624(7) 0.1135(7)
C6 C 0.6753(5) 0.4071(8) 0.1337(8)
C7 C 0.6221(6) 0.4409(10) 0.1530(9)
H3 H 0.5977 0.4452 0.2044
C8 C 0.7519(5) 0.2542(8) 0.1139(8)
H4 H 0.7136 0.2111 0.1232
C9 C 0.8173(5) 0.2139(7) 0.1004(8)
H5 H 0.8233 0.1425 0.1016
O1 O 1.0000 0.2947(6) 0.0860(6)
Ag1L Ag 1.09605(7) 0.0000 0.0000
Ag1O Ag 0.59605(7) 0.5000 0.0000
Ag1A Ag 1.40395(7) 0.5000 0.0000
N1L N 1.0367(3) 0.1392(5) 0.0533(5)
N1D N 0.9633(3) -0.1392(5) -0.0533(5)
C1L C 1.0558(4) 0.2319(6) 0.0728(6)
C2L C 1.1255(4) 0.2758(6) 0.0850(6)
C3L C 1.1333(5) 0.3831(8) 0.0846(8)
H1L H 1.0950 0.4262 0.0750
C4L C 1.1994(5) 0.4242(8) 0.0986(8)
H2L H 1.2053 0.4956 0.0979
C5L C 1.2560(5) 0.3624(7) 0.1135(7)
C6L C 1.3247(5) 0.4071(8) 0.1337(8)
C6O C 0.8247(5) -0.0929(8) 0.1337(8)
C6I C 0.8247(5) 0.0929(8) -0.1337(8)
C7L C 1.3779(6) 0.4409(10) 0.1530(9)
C7O C 0.8779(6) -0.0591(10) 0.1530(9)
C7I C 0.8779(6) 0.0591(10) -0.1530(9)
H3L H 1.4023 0.4452 0.2044
H3O H 0.9023 -0.0548 0.2044
H3I H 0.9023 0.0548 -0.2044
C8L C 1.2481(5) 0.2542(8) 0.1139(8)
H4L H 1.2864 0.2111 0.1232
C9L C 1.1827(5) 0.2139(7) 0.1004(8)
H5L H 1.1767 0.1425 0.1016
F1 F 0.0674(11) 0.1139(13) 0.3987(13)
F2 F 0.0000 0.2735(11) 0.3847(10)
F3 F 0.0644(11) 0.1836(15) 0.2549(11)
F4 F 0.0000 0.0185(9) 0.2796(10)
Sb1 Sb 0.0000 0.14742(8) 0.33139(6)
F1L F -0.0674(11) 0.1139(13) 0.3987(13)
F3L F -0.0644(11) 0.1836(15) 0.2549(11)
loop_
_geom_bond_atom_site_label_1
_geom_bond_atom_site_label_2
_geom_bond_site_symmetry_1
_geom_bond_site_symmetry_2
Ag1 N1 1_555 1_555
N1 C1 1_555 1_555
C1 C2 1_555 1_555
C2 C3 1_555 1_555
C3 H1 1_555 1_555
C4 C3 1_555 1_555
H2 C4 1_555 1_555
C5 C4 1_555 1_555
C6 C5 1_555 1_555
C7 C6 1_555 1_555
H3 C7 1_555 1_555
C8 C5 1_555 1_555
H4 C8 1_555 1_555
C9 C2 1_555 1_555
H5 C9 1_555 1_555
O1 C1 1_555 1_555
F1 Sb1 1_555 1_555
F2 Sb1 1_555 1_555
F3 Sb1 1_555 1_555
F4 Sb1 1_555 1_555
Sb1 F1L 1_555 1_555
Ag1L N1L 1_555 1_555
Ag1O C6 1_555 1_555
Ag1A C6L 1_555 1_555
N1L N1 1_555 1_555
N1D Ag1 1_555 1_555
C1L O1 1_555 1_555
C2L C1L 1_555 1_555
C3L C2L 1_555 1_555
H1L C3L 1_555 1_555
C4L C3L 1_555 1_555
H2L C4L 1_555 1_555
C5L C4L 1_555 1_555
C6L C5L 1_555 1_555
C6O Ag1 1_555 1_555
C6I Ag1 1_555 1_555
C7L Ag1A 1_555 1_555
C7O Ag1 1_555 1_555
C7I Ag1 1_555 1_555
H3L C7L 1_555 1_555
H3O C7O 1_555 1_555
H3I C7I 1_555 1_555
C8L C5L 1_555 1_555
H4L C8L 1_555 1_555
C9L C2L 1_555 1_555
H5L C9L 1_555 1_555
F3L Sb1 1_555 1_555
C7 Ag1O 1_555 1_555
C8 C9 1_555 1_555
N1L C1L 1_555 1_555
C6L C7L 1_555 1_555
C6O C7O 1_555 1_555
C6I C7I 1_555 1_555
C8L C9L 1_555 1_555

#END
