
#######################################################################
#
#                 Cambridge Crystallographic Data Centre
#                                CCDC 
#
#######################################################################
#
# If this CIF has been generated from an entry in the Cambridge 
# Structural Database, then it will include bibliographic, chemical, 
# crystal, experimental, refinement or atomic coordinate data resulting 
# from the CCDC's data processing and validation procedures.
#
#######################################################################

data_SERLAD
_symmetry_cell_setting           monoclinic
_symmetry_space_group_name_H-M   'P 21/c'
_symmetry_Int_Tables_number      14
_space_group_name_Hall           '-P 2ybc'
loop_
_symmetry_equiv_pos_site_id
_symmetry_equiv_pos_as_xyz
1 x,y,z
2 -x,1/2+y,1/2-z
3 -x,-y,-z
4 x,1/2-y,1/2+z
_cell_length_a                   8.5153(16)
_cell_length_b                   19.722(4)
_cell_length_c                   10.320(2)
_cell_angle_alpha                90
_cell_angle_beta                 105.307(3)
_cell_angle_gamma                90
_cell_volume                     1671.65
loop_
_atom_site_label
_atom_site_type_symbol
_atom_site_fract_x
_atom_site_fract_y
_atom_site_fract_z
Ag1 Ag 0.38026(9) 0.46038(4) 0.35841(9)
N1 N 0.3119(6) 0.5672(3) 0.4002(5)
N2 N 0.4184(6) 0.6035(3) 0.5033(6)
C1 C 0.0053(8) 0.5358(4) 0.1878(7)
H1 H 0.0558 0.4990 0.2383
C2 C -0.1305(9) 0.5260(4) 0.0836(8)
H2 H -0.1723 0.4826 0.0638
C3 C -0.2059(8) 0.5803(4) 0.0078(7)
C4 C -0.3588(9) 0.5718(4) -0.0933(7)
C5 C -0.4879(11) 0.5705(5) -0.1659(8)
H3 H -0.5919 0.5780 -0.1559
C6 C -0.1415(9) 0.6445(4) 0.0357(8)
H4 H -0.1895 0.6811 -0.0169
C7 C -0.0053(9) 0.6543(4) 0.1422(8)
H5 H 0.0370 0.6977 0.1624
C8 C 0.0672(8) 0.6002(3) 0.2177(7)
C9 C 0.2080(8) 0.6104(3) 0.3335(6)
C10 C 0.3706(8) 0.6662(3) 0.4900(6)
C11 C 0.4365(8) 0.7256(3) 0.5688(7)
C12 C 0.5796(9) 0.7211(4) 0.6716(8)
H6 H 0.6328 0.6797 0.6904
C13 C 0.6425(9) 0.7771(4) 0.7451(8)
H7 H 0.7374 0.7731 0.8144
C14 C 0.5684(8) 0.8390(3) 0.7186(7)
C15 C 0.6444(9) 0.8979(4) 0.7913(8)
C16 C 0.7149(10) 0.9439(4) 0.8507(8)
H8 H 0.7710 0.9805 0.8980
C17 C 0.4265(9) 0.8438(4) 0.6161(8)
H9 H 0.3747 0.8855 0.5967
C18 C 0.3610(8) 0.7875(4) 0.5425(7)
H10 H 0.2649 0.7914 0.4744
Cl1 Cl -0.0134(2) 0.36289(10) 0.3553(2)
O1 O 0.2379(5) 0.6737(2) 0.3841(4)
O2 O 0.1208(7) 0.3853(3) 0.3140(7)
O3 O 0.0335(10) 0.3111(3) 0.4524(8)
O4 O -0.1312(13) 0.3389(7) 0.2513(10)
O5 O -0.0755(11) 0.4169(4) 0.4140(9)
Ag1B Ag 0.61974(9) 0.53962(4) 0.64159(9)
Ag1B_2 Ag -0.38026(9) 0.53962(4) -0.35841(9)
N2B N 0.5816(6) 0.3965(3) 0.4967(6)
C4B C 0.3588(9) 0.4282(4) 0.0933(7)
C5B C 0.4879(11) 0.4295(5) 0.1659(8)
H3B H 0.5919 0.4220 0.1559
loop_
_geom_bond_atom_site_label_1
_geom_bond_atom_site_label_2
_geom_bond_site_symmetry_1
_geom_bond_site_symmetry_2
Ag1 N1 1_555 1_555
N1 N2 1_555 1_555
N2 C10 1_555 1_555
C1 H1 1_555 1_555
C2 C1 1_555 1_555
H2 C2 1_555 1_555
C3 C2 1_555 1_555
C4 C3 1_555 1_555
C5 C4 1_555 1_555
H3 C5 1_555 1_555
C6 C3 1_555 1_555
H4 C6 1_555 1_555
C7 C6 1_555 1_555
H5 C7 1_555 1_555
C8 C1 1_555 1_555
C9 N1 1_555 1_555
C10 C11 1_555 1_555
C11 C12 1_555 1_555
C12 H6 1_555 1_555
C13 C12 1_555 1_555
H7 C13 1_555 1_555
C14 C13 1_555 1_555
C15 C14 1_555 1_555
C16 C15 1_555 1_555
H8 C16 1_555 1_555
C17 C14 1_555 1_555
H9 C17 1_555 1_555
C18 C11 1_555 1_555
H10 C18 1_555 1_555
Cl1 O2 1_555 1_555
O1 C9 1_555 1_555
O2 Ag1 1_555 1_555
O3 Cl1 1_555 1_555
O4 Cl1 1_555 1_555
O5 Cl1 1_555 1_555
Ag1B N2 1_555 1_555
Ag1B_2 C4 1_555 1_555
N2B Ag1 1_555 1_555
C4B Ag1 1_555 1_555
C5B Ag1 1_555 1_555
H3B C5B 1_555 1_555
C5 Ag1B_2 1_555 1_555
C7 C8 1_555 1_555
C8 C9 1_555 1_555
C10 O1 1_555 1_555
C17 C18 1_555 1_555
C4B C5B 1_555 1_555

#END
