
#######################################################################
#
#                 Cambridge Crystallographic Data Centre
#                                CCDC 
#
#######################################################################
#
# If this CIF has been generated from an entry in the Cambridge 
# Structural Database, then it will include bibliographic, chemical, 
# crystal, experimental, refinement or atomic coordinate data resulting 
# from the CCDC's data processing and validation procedures.
#
#######################################################################

data_SERMOS
_symmetry_cell_setting           orthorhombic
_symmetry_space_group_name_H-M   'P b c a'
_symmetry_Int_Tables_number      61
_space_group_name_Hall           '-P 2ac 2ab'
loop_
_symmetry_equiv_pos_site_id
_symmetry_equiv_pos_as_xyz
1 x,y,z
2 1/2-x,-y,1/2+z
3 -x,1/2+y,1/2-z
4 1/2+x,1/2-y,-z
5 -x,-y,-z
6 1/2+x,y,1/2-z
7 x,1/2-y,1/2+z
8 1/2-x,1/2+y,z
_cell_length_a                   8.3397(5)
_cell_length_b                   18.6714(11)
_cell_length_c                   33.578(2)
_cell_angle_alpha                90
_cell_angle_beta                 90
_cell_angle_gamma                90
_cell_volume                     5228.56
loop_
_atom_site_label
_atom_site_type_symbol
_atom_site_fract_x
_atom_site_fract_y
_atom_site_fract_z
Re1 Re 0.30433(7) 1.06947(2) 0.141491(15)
Ru1 Ru 0.28955(10) 0.88132(4) 0.11251(2)
Ru2 Ru 0.29330(10) 1.26598(4) 0.11588(2)
O1 O 0.0735(9) 0.9087(3) 0.0891(2)
O2 O 0.5027(9) 0.8521(3) 0.1366(2)
O3 O 0.3792(8) 0.8635(3) 0.0575(2)
O4 O 0.2014(8) 0.8978(4) 0.1677(2)
O5 O 0.3660(9) 0.9974(4) 0.1127(2)
O6 O 0.0942(13) 1.0694(5) 0.1441(5)
O7 O 0.3664(10) 1.1499(4) 0.1197(2)
O8 O -0.0066(8) 0.7954(3) 0.0928(2)
O9 O 0.4216(9) 0.7380(3) 0.1392(2)
O10 O 0.2991(9) 0.7491(4) 0.0606(2)
O11 O 0.1164(9) 0.7850(4) 0.1708(2)
C1 C -0.0329(13) 0.8601(6) 0.0859(3)
C2 C 0.5284(13) 0.7867(6) 0.1438(3)
C3 C 0.3672(13) 0.8004(6) 0.0425(3)
C4 C 0.1299(13) 0.8477(6) 0.1849(3)
C5 C -0.1996(14) 0.8825(6) 0.0752(4)
H1 H -0.2509 0.9001 0.0992
H2 H -0.2577 0.8401 0.0669
C6 C -0.221(2) 0.9384(7) 0.0433(4)
H3 H -0.3317 0.9541 0.0419
H4 H -0.1533 0.9797 0.0485
C7 C 0.6930(14) 0.7656(6) 0.1578(4)
H5 H 0.7390 0.8052 0.1725
H6 H 0.7603 0.7572 0.1347
C8 C 0.6958(15) 0.7006(7) 0.1834(4)
H7 H 0.6345 0.6622 0.1712
H8 H 0.8051 0.6842 0.1873
C9 C 0.4429(16) 0.7851(7) 0.0037(3)
H9 H 0.4140 0.7371 -0.0047
H10 H 0.5585 0.7868 0.0066
C10 C 0.3908(17) 0.8394(8) -0.0289(4)
H11 H 0.3950 0.8880 -0.0188
H12 H 0.4596 0.8358 -0.0521
C11 C 0.0572(14) 0.8629(6) 0.2259(3)
H13 H -0.0124 0.8237 0.2336
H14 H 0.1420 0.8669 0.2455
C12 C -0.0377(16) 0.9317(6) 0.2245(4)
H15 H -0.0782 0.9433 0.2508
H16 H 0.0299 0.9708 0.2156
O12 O -0.1646(11) 0.9217(4) 0.1981(3)
C13 C -0.2471(19) 0.9841(8) 0.1894(5)
H17 H -0.2690 1.0096 0.2136
H18 H -0.3463 0.9724 0.1764
H19 H -0.1833 1.0135 0.1721
O13 O -0.1763(14) 0.9052(7) 0.0087(4)
C14 C -0.209(3) 0.9560(12) -0.0238(7)
H20 H -0.3214 0.9679 -0.0239
H21 H -0.1812 0.9345 -0.0488
H22 H -0.1473 0.9987 -0.0199
C15 C 0.608(3) 0.6636(11) 0.2458(6)
H23 H 0.5313 0.6304 0.2351
H24 H 0.5703 0.6810 0.2710
H25 H 0.7089 0.6397 0.2494
C16 C 0.173(2) 0.8626(12) -0.0684(7)
H26 H 0.2420 0.9034 -0.0710
H27 H 0.0662 0.8784 -0.0622
H28 H 0.1713 0.8365 -0.0931
O14 O 0.6272(14) 0.7209(6) 0.2196(4)
O15 O 0.2278(13) 0.8194(6) -0.0388(4)
O16 O 0.3830(19) 1.0583(8) 0.1870(5)
Ru1G Ru 0.21045(10) 1.38132(4) 0.11251(2)
Ru2G Ru 0.20670(10) 0.76598(4) 0.11588(2)
O8G O 0.5066(8) 1.2954(3) 0.0928(2)
O9G O 0.0784(9) 1.2380(3) 0.1392(2)
O10G O 0.2009(9) 1.2491(4) 0.0606(2)
O11G O 0.3836(9) 1.2850(4) 0.1708(2)
loop_
_geom_bond_atom_site_label_1
_geom_bond_atom_site_label_2
_geom_bond_site_symmetry_1
_geom_bond_site_symmetry_2
Re1 O5 1_555 1_555
Ru1 O1 1_555 1_555
Ru2 O7 1_555 1_555
O1 C1 1_555 1_555
O2 Ru1 1_555 1_555
O3 Ru1 1_555 1_555
O4 Ru1 1_555 1_555
O5 Ru1 1_555 1_555
O6 Re1 1_555 1_555
O7 Re1 1_555 1_555
O8 C1 1_555 1_555
O9 C2 1_555 1_555
O10 C3 1_555 1_555
O11 C4 1_555 1_555
C1 C5 1_555 1_555
C2 O2 1_555 1_555
C3 O3 1_555 1_555
C4 O4 1_555 1_555
C5 H1 1_555 1_555
H2 C5 1_555 1_555
C6 C5 1_555 1_555
H3 C6 1_555 1_555
H4 C6 1_555 1_555
C7 C2 1_555 1_555
H5 C7 1_555 1_555
H6 C7 1_555 1_555
C8 C7 1_555 1_555
H7 C8 1_555 1_555
H8 C8 1_555 1_555
C9 C3 1_555 1_555
H9 C9 1_555 1_555
H10 C9 1_555 1_555
C10 C9 1_555 1_555
H11 C10 1_555 1_555
H12 C10 1_555 1_555
C11 C4 1_555 1_555
H13 C11 1_555 1_555
H14 C11 1_555 1_555
C12 C11 1_555 1_555
H15 C12 1_555 1_555
H16 C12 1_555 1_555
O12 C12 1_555 1_555
C13 O12 1_555 1_555
H17 C13 1_555 1_555
H18 C13 1_555 1_555
H19 C13 1_555 1_555
O13 C6 1_555 1_555
C14 O13 1_555 1_555
H20 C14 1_555 1_555
H21 C14 1_555 1_555
H22 C14 1_555 1_555
C15 H23 1_555 1_555
H24 C15 1_555 1_555
H25 C15 1_555 1_555
C16 H26 1_555 1_555
H27 C16 1_555 1_555
H28 C16 1_555 1_555
O14 C8 1_555 1_555
O15 C10 1_555 1_555
O16 Re1 1_555 1_555
Ru1G Ru2 1_555 1_555
Ru2G Ru1 1_555 1_555
O8G Ru2 1_555 1_555
O9G Ru2 1_555 1_555
O10G Ru2 1_555 1_555
O11G Ru2 1_555 1_555
O8 Ru2G 1_555 1_555
O9 Ru2G 1_555 1_555
O10 Ru2G 1_555 1_555
O11 Ru2G 1_555 1_555
C15 O14 1_555 1_555
C16 O15 1_555 1_555

#END
