
#######################################################################
#
#                 Cambridge Crystallographic Data Centre
#                                CCDC 
#
#######################################################################
#
# If this CIF has been generated from an entry in the Cambridge 
# Structural Database, then it will include bibliographic, chemical, 
# crystal, experimental, refinement or atomic coordinate data resulting 
# from the CCDC's data processing and validation procedures.
#
#######################################################################

data_SERMAE
_symmetry_cell_setting           monoclinic
_symmetry_space_group_name_H-M   'P 21/c'
_symmetry_Int_Tables_number      14
_space_group_name_Hall           '-P 2ybc'
loop_
_symmetry_equiv_pos_site_id
_symmetry_equiv_pos_as_xyz
1 x,y,z
2 -x,1/2+y,1/2-z
3 -x,-y,-z
4 x,1/2-y,1/2+z
_cell_length_a                   8.1460(10)
_cell_length_b                   17.326(2)
_cell_length_c                   30.345(4)
_cell_angle_alpha                90
_cell_angle_beta                 97.71
_cell_angle_gamma                90
_cell_volume                     4244.1
loop_
_atom_site_label
_atom_site_type_symbol
_atom_site_fract_x
_atom_site_fract_y
_atom_site_fract_z
Ag1 Ag 0.10315(3) 1.085176(14) 0.141771(9)
Ag2 Ag 0.07609(3) 0.868762(14) 0.144747(8)
N1 N 0.3085(3) 1.00883(15) 0.11697(9)
N2 N 0.2973(3) 0.92874(15) 0.11745(9)
N3 N 0.1209(3) 1.01877(13) 0.20894(9)
N4 N 0.1129(3) 0.93777(14) 0.20920(8)
O1 O 0.1531(3) 0.97762(11) 0.27834(7)
O2 O 0.5072(3) 0.96118(13) 0.08305(8)
O3 O -0.0969(3) 0.98081(15) 0.11202(10)
C1 C 0.4163(4) 0.90261(19) 0.09762(11)
C2 C 0.4634(4) 0.82303(19) 0.09054(11)
C3 C 0.5518(5) 0.8046(2) 0.05565(13)
H1 H 0.5816 0.8429 0.0368
C4 C 0.5942(6) 0.7286(2) 0.04960(15)
H2 H 0.6540 0.7159 0.0266
C5 C 0.5500(6) 0.6718(2) 0.07674(14)
H3 H 0.5780 0.6208 0.0717
C6 C 0.4630(5) 0.6896(2) 0.11203(13)
C7 C 0.4204(7) 0.6307(2) 0.14184(15)
C8 C 0.3829(9) 0.5837(3) 0.16570(19)
H4 H 0.3527 0.5459 0.1849
C9 C 0.4217(5) 0.7658(2) 0.11848(12)
H5 H 0.3648 0.7786 0.1421
C10 C 0.4332(4) 1.02576(18) 0.09676(11)
C11 C 0.5046(4) 1.1008(2) 0.08914(12)
C12 C 0.4706(4) 1.1620(2) 0.11623(12)
H6 H 0.4067 1.1538 0.1390
C13 C 0.5317(5) 1.2349(2) 0.10943(13)
C14 C 0.4966(5) 1.2974(2) 0.13802(15)
C15 C 0.4650(7) 1.3464(3) 0.16181(18)
H7 H 0.4398 1.3855 0.1808
C16 C 0.6296(5) 1.2455(2) 0.07548(15)
H8 H 0.6704 1.2944 0.0704
C17 C 0.6662(5) 1.1845(2) 0.04954(15)
H9 H 0.7342 1.1923 0.0277
C18 C 0.6027(5) 1.1112(2) 0.05565(13)
H10 H 0.6256 1.0702 0.0377
C19 C 0.1469(4) 1.03929(17) 0.25040(11)
C20 C 0.1743(4) 1.11704(17) 0.26831(10)
C21 C 0.2707(4) 1.16730(18) 0.24667(11)
H11 H 0.3176 1.1508 0.2220
C22 C 0.2958(4) 1.24190(19) 0.26226(13)
H12 H 0.3606 1.2755 0.2481
C23 C 0.2266(4) 1.26685(19) 0.29831(12)
H13 H 0.2432 1.3174 0.3082
C24 C 0.1312(4) 1.21671(18) 0.32026(11)
C25 C 0.0616(5) 1.24269(19) 0.35884(12)
C26 C 0.0099(6) 1.2585(2) 0.39299(13)
H14 H 0.0066 1.2368 0.4209
C27 C 0.1053(4) 1.14094(18) 0.30526(11)
H15 H 0.0426 1.1070 0.3199
C28 C 0.1332(4) 0.91666(17) 0.25008(11)
C29 C 0.1468(4) 0.83800(17) 0.26751(10)
C30 C 0.0690(4) 0.81585(18) 0.30320(10)
H16 H 0.0074 0.8513 0.3171
C31 C 0.0836(4) 0.73964(17) 0.31824(10)
C32 C 0.0011(4) 0.71704(18) 0.35546(11)
C33 C -0.0634(5) 0.7085(2) 0.38796(12)
H17 H -0.0862 0.7365 0.4126
C34 C 0.1776(4) 0.68731(18) 0.29727(12)
H18 H 0.1881 0.6366 0.3074
C35 C 0.2550(4) 0.71002(18) 0.26177(12)
H19 H 0.3170 0.6746 0.2479
C36 C 0.2409(4) 0.78491(18) 0.24670(11)
H20 H 0.2936 0.8002 0.2228
H31 H -0.184(3) 0.983(2) 0.1243(11)
H32 H -0.109(5) 0.976(3) 0.0839(4)
Ag1A Ag -0.10315(3) 0.585176(14) 0.358229(9)
Ag2A Ag -0.07609(3) 1.368762(14) 0.355253(8)
C25A C -0.0616(5) 0.74269(19) 0.14116(12)
C26A C -0.0099(6) 0.7585(2) 0.10701(13)
H14A H -0.0066 0.7368 0.0791
C32A C -0.0011(4) 1.21704(18) 0.14454(11)
C33A C 0.0634(5) 1.2085(2) 0.11204(12)
H17A H 0.0862 1.2365 0.0874
O4 O 0.5421(5) 1.04738(19) 0.21835(14)
O5 O 0.5157(5) 0.9171(2) 0.22869(16)
O6 O 0.6772(5) 0.9607(2) 0.17807(11)
O7 O 0.7641(5) 0.9760(3) 0.25277(13)
Cl1 Cl 0.62460(11) 0.97588(4) 0.21968(3)
O8 O 0.0357(5) 0.42286(17) 0.53903(10)
O9 O -0.0579(6) 0.3764(3) 0.46917(13)
O10 O 0.1990(5) 0.4324(2) 0.48191(14)
O11 O 0.1552(5) 0.31387(18) 0.51380(12)
Cl2 Cl 0.08319(14) 0.38712(6) 0.50117(3)
C37 C 0.0315(12) 0.9562(6) 0.4029(3)
H21 H -0.0486 0.9665 0.3788
C38 C 0.1934(10) 0.9724(4) 0.4020(3)
H22 H 0.2204 0.9943 0.3759
C39 C 0.3216(10) 0.9603(5) 0.4351(3)
H23 H 0.4309 0.9715 0.4317
C40 C 0.2780(10) 0.9304(6) 0.4740(3)
H24 H 0.3583 0.9235 0.4985
C41 C 0.1161(8) 0.9107(4) 0.4766(2)
C42 C -0.0103(10) 0.9217(5) 0.4437(3)
C43 C 0.0817(14) 0.8736(6) 0.5193(3)
H25 H -0.0292 0.8857 0.5244
H26 H 0.1587 0.8928 0.5435
H27 H 0.0936 0.8186 0.5171
C44 C -0.1746(14) 0.8942(8) 0.4524(4)
H28 H -0.1831 0.8397 0.4470
H29 H -0.2595 0.9206 0.4331
H30 H -0.1877 0.9045 0.4828
loop_
_geom_bond_atom_site_label_1
_geom_bond_atom_site_label_2
_geom_bond_site_symmetry_1
_geom_bond_site_symmetry_2
Ag1 N1 1_555 1_555
Ag2 N2 1_555 1_555
N1 N2 1_555 1_555
N2 C1 1_555 1_555
N3 Ag1 1_555 1_555
N4 Ag2 1_555 1_555
O1 C19 1_555 1_555
O2 C1 1_555 1_555
O3 Ag1 1_555 1_555
O4 Cl1 1_555 1_555
O5 Cl1 1_555 1_555
O6 Cl1 1_555 1_555
O7 Cl1 1_555 1_555
O8 Cl2 1_555 1_555
O9 Cl2 1_555 1_555
O10 Cl2 1_555 1_555
O11 Cl2 1_555 1_555
C1 C2 1_555 1_555
C2 C3 1_555 1_555
C3 H1 1_555 1_555
C4 C3 1_555 1_555
H2 C4 1_555 1_555
C5 C4 1_555 1_555
H3 C5 1_555 1_555
C6 C5 1_555 1_555
C7 C6 1_555 1_555
C8 C7 1_555 1_555
H4 C8 1_555 1_555
C9 C2 1_555 1_555
H5 C9 1_555 1_555
C10 N1 1_555 1_555
C11 C10 1_555 1_555
C12 C11 1_555 1_555
H6 C12 1_555 1_555
C13 C12 1_555 1_555
C14 C13 1_555 1_555
C15 C14 1_555 1_555
H7 C15 1_555 1_555
C16 C13 1_555 1_555
H8 C16 1_555 1_555
C17 C16 1_555 1_555
H9 C17 1_555 1_555
C18 C11 1_555 1_555
H10 C18 1_555 1_555
C19 N3 1_555 1_555
C20 C19 1_555 1_555
C21 C20 1_555 1_555
H11 C21 1_555 1_555
C22 C21 1_555 1_555
H12 C22 1_555 1_555
C23 C22 1_555 1_555
H13 C23 1_555 1_555
C24 C23 1_555 1_555
C25 C24 1_555 1_555
C26 C25 1_555 1_555
H14 C26 1_555 1_555
C27 C20 1_555 1_555
H15 C27 1_555 1_555
C28 N4 1_555 1_555
C29 C28 1_555 1_555
C30 C29 1_555 1_555
H16 C30 1_555 1_555
C31 C30 1_555 1_555
C32 C31 1_555 1_555
C33 C32 1_555 1_555
H17 C33 1_555 1_555
C34 C31 1_555 1_555
H18 C34 1_555 1_555
C35 C34 1_555 1_555
H19 C35 1_555 1_555
C36 C29 1_555 1_555
H20 C36 1_555 1_555
C37 H21 1_555 1_555
C38 C37 1_555 1_555
H22 C38 1_555 1_555
C39 C38 1_555 1_555
H23 C39 1_555 1_555
C40 C39 1_555 1_555
H24 C40 1_555 1_555
C41 C40 1_555 1_555
C42 C37 1_555 1_555
C43 C41 1_555 1_555
H25 C43 1_555 1_555
H26 C43 1_555 1_555
H27 C43 1_555 1_555
C44 C42 1_555 1_555
H28 C44 1_555 1_555
H29 C44 1_555 1_555
H30 C44 1_555 1_555
H31 O3 1_555 1_555
H32 O3 1_555 1_555
Ag1A C32 1_555 1_555
Ag2A C25 1_555 1_555
C25A Ag2 1_555 1_555
C26A Ag2 1_555 1_555
H14A C26A 1_555 1_555
C32A Ag1 1_555 1_555
C33A Ag1 1_555 1_555
H17A C33A 1_555 1_555
Ag2 O3 1_555 1_555
N3 N4 1_555 1_555
O1 C28 1_555 1_555
O2 C10 1_555 1_555
C6 C9 1_555 1_555
C17 C18 1_555 1_555
C24 C27 1_555 1_555
C26 Ag2A 1_555 1_555
C33 Ag1A 1_555 1_555
C35 C36 1_555 1_555
C41 C42 1_555 1_555
C25A C26A 1_555 1_555
C32A C33A 1_555 1_555

#END
