
#######################################################################
#
#                 Cambridge Crystallographic Data Centre
#                                CCDC 
#
#######################################################################
#
# If this CIF has been generated from an entry in the Cambridge 
# Structural Database, then it will include bibliographic, chemical, 
# crystal, experimental, refinement or atomic coordinate data resulting 
# from the CCDC's data processing and validation procedures.
#
#######################################################################

data_SESBUP
_symmetry_cell_setting           tetragonal
_symmetry_space_group_name_H-M   'P 41'
_symmetry_Int_Tables_number      76
_space_group_name_Hall           'P 4w'
loop_
_symmetry_equiv_pos_site_id
_symmetry_equiv_pos_as_xyz
1 x,y,z
2 -x,-y,1/2+z
3 -y,x,1/4+z
4 y,-x,3/4+z
_cell_length_a                   11.94560(10)
_cell_length_b                   11.94560(10)
_cell_length_c                   16.2905(4)
_cell_angle_alpha                90
_cell_angle_beta                 90
_cell_angle_gamma                90
_cell_volume                     2324.61
loop_
_atom_site_label
_atom_site_type_symbol
_atom_site_fract_x
_atom_site_fract_y
_atom_site_fract_z
Cu1 Cu 0.45551(8) 0.16225(8) 0.12746(6)
Si1 Si 0.32922(18) -0.34986(17) 0.27472(14)
Br1 Br 0.29611(7) 0.23777(7) 0.20400(6)
Br2 Br 0.50879(11) 0.10129(8) -0.00924(6)
S1 S 0.6852(2) 0.0658(2) 0.22043(16)
O1 O 0.5942(5) 0.1527(5) 0.2172(4)
N1 N 0.4117(5) 0.0053(5) 0.1637(4)
N2 N 0.6833(6) -0.4936(6) 0.3465(4)
C1 C 0.4094(7) -0.0131(6) 0.2453(5)
H1 H 0.4272 0.0467 0.2815
C2 C 0.3819(7) -0.1162(7) 0.2780(5)
H2 H 0.3793 -0.1243 0.3360
C3 C 0.3580(6) -0.2080(6) 0.2296(5)
C4 C 0.3605(7) -0.1861(7) 0.1437(5)
H3 H 0.3432 -0.2443 0.1060
C5 C 0.3876(7) -0.0814(6) 0.1149(5)
H4 H 0.3893 -0.0700 0.0572
C6 C 0.2540(8) -0.3300(8) 0.3737(7)
H5 H 0.2389 -0.4032 0.3986
H6 H 0.1832 -0.2910 0.3637
H7 H 0.3005 -0.2854 0.4110
C7 C 0.2486(7) -0.4376(7) 0.2018(6)
H8 H 0.2343 -0.5110 0.2266
H9 H 0.2918 -0.4473 0.1511
H10 H 0.1773 -0.4010 0.1892
C8 C 0.4723(7) -0.4107(7) 0.2979(5)
C9 C 0.5027(7) -0.5213(7) 0.2871(6)
H11 H 0.4513 -0.5714 0.2620
C10 C 0.6056(7) -0.5609(7) 0.3119(5)
H12 H 0.6225 -0.6380 0.3043
C11 C 0.6544(8) -0.3852(8) 0.3559(7)
H13 H 0.7072 -0.3359 0.3803
C12 C 0.5536(8) -0.3425(7) 0.3326(6)
H14 H 0.5387 -0.2651 0.3401
C13 C 0.6920(11) 0.0205(13) 0.3241(9)
H15 H 0.6254 -0.0241 0.3371
H16 H 0.6950 0.0859 0.3604
H17 H 0.7592 -0.0252 0.3321
C14 C 0.8103(10) 0.1424(11) 0.2198(9)
H18 H 0.8233 0.1728 0.1648
H19 H 0.8726 0.0933 0.2351
H20 H 0.8050 0.2041 0.2593
Cu1B Cu 0.83775(8) -0.54449(8) 0.37746(6)
N2C N 0.5064(6) 0.3167(6) 0.0965(4)
S2 S 0.0576(2) -0.1219(2) 0.2464(2)
O2 O -0.0499(7) -0.0861(7) 0.2859(6)
C15 C 0.0193(11) -0.2132(9) 0.1659(7)
H21 H -0.0069 -0.2843 0.1890
H22 H 0.0843 -0.2268 0.1306
H23 H -0.0409 -0.1791 0.1335
C16 C 0.0994(10) -0.0063(10) 0.1863(9)
H24 H 0.1226 0.0551 0.2223
H25 H 0.0365 0.0183 0.1521
H26 H 0.1622 -0.0281 0.1510
loop_
_geom_bond_atom_site_label_1
_geom_bond_atom_site_label_2
_geom_bond_site_symmetry_1
_geom_bond_site_symmetry_2
Cu1 Br1 1_555 1_555
Si1 C3 1_555 1_555
Br2 Cu1 1_555 1_555
S1 O1 1_555 1_555
O1 Cu1 1_555 1_555
N1 Cu1 1_555 1_555
N2 C10 1_555 1_555
C1 N1 1_555 1_555
H1 C1 1_555 1_555
C2 C1 1_555 1_555
H2 C2 1_555 1_555
C3 C2 1_555 1_555
C4 C3 1_555 1_555
H3 C4 1_555 1_555
C5 N1 1_555 1_555
H4 C5 1_555 1_555
C6 Si1 1_555 1_555
H5 C6 1_555 1_555
H6 C6 1_555 1_555
H7 C6 1_555 1_555
C7 Si1 1_555 1_555
H8 C7 1_555 1_555
H9 C7 1_555 1_555
H10 C7 1_555 1_555
C8 Si1 1_555 1_555
C9 C8 1_555 1_555
H11 C9 1_555 1_555
C10 C9 1_555 1_555
H12 C10 1_555 1_555
C11 N2 1_555 1_555
H13 C11 1_555 1_555
C12 C8 1_555 1_555
H14 C12 1_555 1_555
C13 S1 1_555 1_555
H15 C13 1_555 1_555
H16 C13 1_555 1_555
H17 C13 1_555 1_555
C14 S1 1_555 1_555
H18 C14 1_555 1_555
H19 C14 1_555 1_555
H20 C14 1_555 1_555
S2 O2 1_555 1_555
C15 S2 1_555 1_555
H21 C15 1_555 1_555
H22 C15 1_555 1_555
H23 C15 1_555 1_555
C16 S2 1_555 1_555
H24 C16 1_555 1_555
H25 C16 1_555 1_555
H26 C16 1_555 1_555
Cu1B N2 1_555 1_555
N2C Cu1 1_555 1_555
C4 C5 1_555 1_555
C11 C12 1_555 1_555

#END
