
#######################################################################
#
#                 Cambridge Crystallographic Data Centre
#                                CCDC 
#
#######################################################################
#
# If this CIF has been generated from an entry in the Cambridge 
# Structural Database, then it will include bibliographic, chemical, 
# crystal, experimental, refinement or atomic coordinate data resulting 
# from the CCDC's data processing and validation procedures.
#
#######################################################################

data_SESCEA
_symmetry_cell_setting           monoclinic
_symmetry_space_group_name_H-M   'P 21/n'
_symmetry_Int_Tables_number      14
_space_group_name_Hall           '-P 2yn'
loop_
_symmetry_equiv_pos_site_id
_symmetry_equiv_pos_as_xyz
1 x,y,z
2 1/2-x,1/2+y,1/2-z
3 -x,-y,-z
4 1/2+x,1/2-y,1/2+z
_cell_length_a                   12.1935(2)
_cell_length_b                   20.2551(3)
_cell_length_c                   15.1134(2)
_cell_angle_alpha                90
_cell_angle_beta                 97.9440(10)
_cell_angle_gamma                90
_cell_volume                     3696.9
loop_
_atom_site_label
_atom_site_type_symbol
_atom_site_fract_x
_atom_site_fract_y
_atom_site_fract_z
Cu1 Cu 0.31964(4) 0.12425(3) 0.28968(3)
Br1 Br 0.51937(3) 0.11800(3) 0.39061(3)
Si1 Si 0.10740(9) 0.37860(6) 0.49862(7)
N1 N 0.2535(3) 0.19597(17) 0.3607(2)
C1 C 0.1479(3) 0.2150(2) 0.3393(3)
H1 H 0.1031 0.1919 0.2950
Si2 Si 0.42706(9) 0.37397(6) 0.02125(7)
N2 N 0.1544(3) 0.55498(17) 0.3036(2)
C2 C 0.1028(3) 0.2673(2) 0.3800(3)
H2 H 0.0291 0.2785 0.3624
N3 N 0.3561(3) 0.19696(17) 0.2068(2)
C3 C 0.1649(3) 0.3037(2) 0.4466(3)
N4 N 0.2570(3) 0.55207(17) 0.1487(2)
C4 C 0.2747(4) 0.2838(2) 0.4680(3)
H3 H 0.3213 0.3064 0.5118
C5 C 0.3148(3) 0.2310(2) 0.4249(3)
H4 H 0.3884 0.2190 0.4411
C6 C -0.0431(3) 0.3676(2) 0.4992(3)
H5 H -0.0554 0.3314 0.5376
H6 H -0.0782 0.3585 0.4397
H7 H -0.0737 0.4072 0.5207
C7 C 0.1846(4) 0.3945(2) 0.6108(3)
H8 H 0.1744 0.3582 0.6496
H9 H 0.1575 0.4343 0.6347
H10 H 0.2619 0.3994 0.6063
C8 C 0.1282(3) 0.4501(2) 0.4228(3)
C9 C 0.2272(4) 0.4848(2) 0.4254(3)
H11 H 0.2871 0.4735 0.4677
C10 C 0.2384(4) 0.5356(2) 0.3667(3)
H12 H 0.3060 0.5574 0.3704
C11 C 0.0596(4) 0.5231(2) 0.3011(3)
H13 H 0.0009 0.5358 0.2586
C12 C 0.0425(3) 0.4722(2) 0.3575(3)
H14 H -0.0266 0.4521 0.3526
C13 C 0.2764(4) 0.2213(2) 0.1440(3)
H15 H 0.2063 0.2024 0.1387
C14 C 0.2937(4) 0.2721(2) 0.0881(3)
H16 H 0.2360 0.2867 0.0459
C15 C 0.3973(4) 0.3024(2) 0.0938(3)
C16 C 0.4774(4) 0.2777(2) 0.1589(3)
H17 H 0.5479 0.2962 0.1668
C17 C 0.4539(4) 0.2257(2) 0.2123(3)
H18 H 0.5104 0.2101 0.2548
C18 C 0.3607(4) 0.3602(2) -0.0955(3)
H19 H 0.3948 0.3231 -0.1203
H20 H 0.3697 0.3988 -0.1305
H21 H 0.2832 0.3515 -0.0959
C19 C 0.5795(3) 0.3850(2) 0.0322(3)
H22 H 0.6121 0.3476 0.0068
H23 H 0.6091 0.3888 0.0943
H24 H 0.5962 0.4244 0.0013
C20 C 0.3611(4) 0.4469(2) 0.0709(3)
C21 C 0.4159(4) 0.4844(2) 0.1403(3)
H25 H 0.4890 0.4747 0.1626
C22 C 0.3631(4) 0.5357(2) 0.1764(3)
H26 H 0.4026 0.5602 0.2221
C23 C 0.2030(4) 0.5154(2) 0.0832(3)
H27 H 0.1290 0.5250 0.0639
C24 C 0.2510(4) 0.4638(2) 0.0424(3)
H28 H 0.2100 0.4405 -0.0038
Cu1A Cu 0.18036(4) 0.62425(3) 0.21032(3)
N2A N 0.3456(3) 0.05498(17) 0.1964(2)
N4A N 0.2430(3) 0.05207(17) 0.3513(2)
S1 S 0.85889(14) 0.33840(9) 0.18056(11)
O1 O 0.8780(3) 0.3367(2) 0.2816(2)
C25 C 0.9918(6) 0.3232(4) 0.1466(4)
H29 H 1.0120 0.2778 0.1580
H30 H 1.0460 0.3513 0.1798
H31 H 0.9885 0.3322 0.0840
C26 C 0.8555(5) 0.4217(3) 0.1480(4)
H32 H 0.7877 0.4414 0.1605
H33 H 0.8596 0.4246 0.0852
H34 H 0.9172 0.4445 0.1806
Br2 Br 0.00598(3) 0.13259(3) 0.12560(3)
S2 S 0.65061(12) 0.41328(8) 0.35404(9)
O2 O 0.6307(3) 0.4112(2) 0.2540(2)
C27 C 0.5252(5) 0.4383(3) 0.3877(3)
H35 H 0.5122 0.4840 0.3728
H36 H 0.5288 0.4326 0.4511
H37 H 0.4658 0.4121 0.3577
C28 C 0.6466(5) 0.3307(3) 0.3910(4)
H38 H 0.7110 0.3077 0.3774
H39 H 0.5813 0.3095 0.3614
H40 H 0.6454 0.3301 0.4544
loop_
_geom_bond_atom_site_label_1
_geom_bond_atom_site_label_2
_geom_bond_site_symmetry_1
_geom_bond_site_symmetry_2
Cu1 Br1 1_555 1_555
Si1 C3 1_555 1_555
N1 Cu1 1_555 1_555
C1 N1 1_555 1_555
H1 C1 1_555 1_555
Si2 C15 1_555 1_555
N2 C10 1_555 1_555
C2 C1 1_555 1_555
H2 C2 1_555 1_555
N3 Cu1 1_555 1_555
C3 C2 1_555 1_555
N4 C22 1_555 1_555
C4 C3 1_555 1_555
H3 C4 1_555 1_555
C5 N1 1_555 1_555
H4 C5 1_555 1_555
C6 Si1 1_555 1_555
H5 C6 1_555 1_555
H6 C6 1_555 1_555
H7 C6 1_555 1_555
C7 Si1 1_555 1_555
H8 C7 1_555 1_555
H9 C7 1_555 1_555
H10 C7 1_555 1_555
C8 Si1 1_555 1_555
C9 C8 1_555 1_555
H11 C9 1_555 1_555
C10 C9 1_555 1_555
H12 C10 1_555 1_555
C11 N2 1_555 1_555
H13 C11 1_555 1_555
C12 C8 1_555 1_555
H14 C12 1_555 1_555
C13 N3 1_555 1_555
H15 C13 1_555 1_555
C14 C13 1_555 1_555
H16 C14 1_555 1_555
C15 C14 1_555 1_555
C16 C15 1_555 1_555
H17 C16 1_555 1_555
C17 N3 1_555 1_555
H18 C17 1_555 1_555
C18 Si2 1_555 1_555
H19 C18 1_555 1_555
H20 C18 1_555 1_555
H21 C18 1_555 1_555
C19 Si2 1_555 1_555
H22 C19 1_555 1_555
H23 C19 1_555 1_555
H24 C19 1_555 1_555
C20 Si2 1_555 1_555
C21 C20 1_555 1_555
H25 C21 1_555 1_555
C22 C21 1_555 1_555
H26 C22 1_555 1_555
C23 N4 1_555 1_555
H27 C23 1_555 1_555
C24 C20 1_555 1_555
H28 C24 1_555 1_555
S1 O1 1_555 1_555
C25 S1 1_555 1_555
H29 C25 1_555 1_555
H30 C25 1_555 1_555
H31 C25 1_555 1_555
C26 S1 1_555 1_555
H32 C26 1_555 1_555
H33 C26 1_555 1_555
H34 C26 1_555 1_555
S2 O2 1_555 1_555
C27 S2 1_555 1_555
H35 C27 1_555 1_555
H36 C27 1_555 1_555
H37 C27 1_555 1_555
C28 S2 1_555 1_555
H38 C28 1_555 1_555
H39 C28 1_555 1_555
H40 C28 1_555 1_555
Cu1A N2 1_555 1_555
N2A Cu1 1_555 1_555
N4A Cu1 1_555 1_555
N4 Cu1A 1_555 1_555
C4 C5 1_555 1_555
C11 C12 1_555 1_555
C16 C17 1_555 1_555
C23 C24 1_555 1_555

#END
