
#######################################################################
#
#                 Cambridge Crystallographic Data Centre
#                                CCDC 
#
#######################################################################
#
# If this CIF has been generated from an entry in the Cambridge 
# Structural Database, then it will include bibliographic, chemical, 
# crystal, experimental, refinement or atomic coordinate data resulting 
# from the CCDC's data processing and validation procedures.
#
#######################################################################

data_SESCIE
_symmetry_cell_setting           monoclinic
_symmetry_space_group_name_H-M   'C 2/c'
_symmetry_Int_Tables_number      15
_space_group_name_Hall           '-C 2yn'
loop_
_symmetry_equiv_pos_site_id
_symmetry_equiv_pos_as_xyz
1 x,y,z
2 -x,y,1/2-z
3 1/2+x,1/2+y,z
4 1/2-x,1/2+y,1/2-z
5 -x,-y,-z
6 x,-y,1/2+z
7 1/2-x,1/2-y,-z
8 1/2+x,1/2-y,1/2+z
_cell_length_a                   18.3107(4)
_cell_length_b                   16.6058(4)
_cell_length_c                   11.7604(3)
_cell_angle_alpha                90
_cell_angle_beta                 99.501(2)
_cell_angle_gamma                90
_cell_volume                     3526.86
loop_
_atom_site_label
_atom_site_type_symbol
_atom_site_fract_x
_atom_site_fract_y
_atom_site_fract_z
Si1 Si 0.35308(9) 0.24534(12) 0.69378(15)
Cu1 Cu 0.0000 0.32059(6) 0.7500
Br1 Br 0.0000 0.47638(5) 0.7500
N1 N 0.1045(3) 0.3027(3) 0.7148(5)
N2 N 0.4585(3) 0.2003(3) 1.0804(5)
C1 C 0.1579(3) 0.3586(4) 0.7410(6)
H1 H 0.1445 0.4102 0.7659
C2 C 0.2308(4) 0.3444(4) 0.7332(6)
H2 H 0.2665 0.3859 0.7517
C3 C 0.2524(3) 0.2698(4) 0.6984(5)
C4 C 0.1973(4) 0.2126(5) 0.6705(6)
H3 H 0.2094 0.1604 0.6461
C5 C 0.1239(4) 0.2317(4) 0.6784(6)
H4 H 0.0866 0.1922 0.6568
C6 C 0.4578(4) 0.1420(5) 1.0023(6)
H5 H 0.4790 0.0911 1.0253
C7 C 0.4266(4) 0.1547(5) 0.8876(6)
H6 H 0.4264 0.1118 0.8343
C8 C 0.3961(3) 0.2267(4) 0.8490(5)
C9 C 0.3981(4) 0.2863(4) 0.9330(6)
H7 H 0.3774 0.3377 0.9119
C10 C 0.4292(4) 0.2722(4) 1.0459(6)
H8 H 0.4301 0.3143 1.1008
C11 C 0.3589(4) 0.1513(5) 0.6090(6)
H9 H 0.4109 0.1386 0.6071
H10 H 0.3326 0.1590 0.5301
H11 H 0.3361 0.1067 0.6452
C12 C 0.3985(4) 0.3341(6) 0.6403(7)
H12 H 0.4505 0.3215 0.6376
H13 H 0.3958 0.3798 0.6921
H14 H 0.3732 0.3479 0.5627
Si1A Si -0.35308(9) 0.24534(12) 0.80622(15)
N1A N -0.1045(3) 0.3027(3) 0.7852(5)
N2A N -0.4585(3) 0.2003(3) 0.4196(5)
C1A C -0.1579(3) 0.3586(4) 0.7590(6)
H1A H -0.1445 0.4102 0.7341
C2A C -0.2308(4) 0.3444(4) 0.7668(6)
H2A H -0.2665 0.3859 0.7483
C3A C -0.2524(3) 0.2698(4) 0.8016(5)
C4A C -0.1973(4) 0.2126(5) 0.8295(6)
H3A H -0.2094 0.1604 0.8539
C5A C -0.1239(4) 0.2317(4) 0.8216(6)
H4A H -0.0866 0.1922 0.8432
C6A C -0.4578(4) 0.1420(5) 0.4977(6)
H5A H -0.4790 0.0911 0.4747
C7A C -0.4266(4) 0.1547(5) 0.6124(6)
H6A H -0.4264 0.1118 0.6657
C8A C -0.3961(3) 0.2267(4) 0.6510(5)
C9A C -0.3981(4) 0.2863(4) 0.5670(6)
H7A H -0.3774 0.3377 0.5881
C10A C -0.4292(4) 0.2722(4) 0.4541(6)
H8A H -0.4301 0.3143 0.3992
C11A C -0.3589(4) 0.1513(5) 0.8910(6)
H9A H -0.4109 0.1386 0.8929
H10A H -0.3326 0.1590 0.9699
H11A H -0.3361 0.1067 0.8548
C12A C -0.3985(4) 0.3341(6) 0.8597(7)
H12A H -0.4505 0.3215 0.8624
H13A H -0.3958 0.3798 0.8079
H14A H -0.3732 0.3479 0.9373
Cu1F Cu -0.5000 0.17941(6) 0.2500
Cu1F_2 Cu 0.5000 0.17941(6) 1.2500
N2F N 0.0415(3) 0.2997(3) 0.9196(5)
N2G N -0.0415(3) 0.2997(3) 0.5804(5)
Br2 Br 0.0000 0.0587(2) 0.7500
O1 O -0.0312(3) 0.0175(3) 0.9079(5)
H15 H 0.0101 -0.0161 0.8923
H16 H -0.0598 0.0270 0.8458
O2 O 0.2475(16) 0.0691(16) 0.920(2)
H17 H 0.2676 0.0358 0.9694
C13 C 0.1684(15) 0.0531(15) 0.894(2)
H18 H 0.1498 0.0405 0.9656
H19 H 0.1594 0.0073 0.8412
H20 H 0.1428 0.1008 0.8582
O3 O 0.1562(5) -0.0056(3) 1.1253(7)
H21 H 0.1639 -0.0038 1.1977
C14 C 0.2245(11) -0.0023(17) 1.0845(19)
H22 H 0.2506 0.0474 1.1115
H23 H 0.2155 -0.0032 1.0000
H24 H 0.2548 -0.0489 1.1135
loop_
_geom_bond_atom_site_label_1
_geom_bond_atom_site_label_2
_geom_bond_site_symmetry_1
_geom_bond_site_symmetry_2
Si1 C3 1_555 1_555
Cu1 Br1 1_555 1_555
N1 Cu1 1_555 1_555
N2 C6 1_555 1_555
C1 N1 1_555 1_555
H1 C1 1_555 1_555
C2 C1 1_555 1_555
H2 C2 1_555 1_555
C3 C2 1_555 1_555
C4 C3 1_555 1_555
H3 C4 1_555 1_555
C5 N1 1_555 1_555
H4 C5 1_555 1_555
C6 H5 1_555 1_555
C7 C6 1_555 1_555
H6 C7 1_555 1_555
C8 Si1 1_555 1_555
C9 C8 1_555 1_555
H7 C9 1_555 1_555
C10 N2 1_555 1_555
H8 C10 1_555 1_555
C11 Si1 1_555 1_555
H9 C11 1_555 1_555
H10 C11 1_555 1_555
H11 C11 1_555 1_555
C12 Si1 1_555 1_555
H12 C12 1_555 1_555
H13 C12 1_555 1_555
H14 C12 1_555 1_555
O1 H15 1_555 1_555
H16 O1 1_555 1_555
O2 H17 1_555 1_555
C13 O2 1_555 1_555
H18 C13 1_555 1_555
H19 C13 1_555 1_555
H20 C13 1_555 1_555
O3 H21 1_555 1_555
C14 O3 1_555 1_555
H22 C14 1_555 1_555
H23 C14 1_555 1_555
H24 C14 1_555 1_555
Si1A C3A 1_555 1_555
N1A Cu1 1_555 1_555
N2A C6A 1_555 1_555
C1A N1A 1_555 1_555
H1A C1A 1_555 1_555
C2A C1A 1_555 1_555
H2A C2A 1_555 1_555
C3A C2A 1_555 1_555
C4A C3A 1_555 1_555
H3A C4A 1_555 1_555
C5A N1A 1_555 1_555
H4A C5A 1_555 1_555
C6A H5A 1_555 1_555
C7A C6A 1_555 1_555
H6A C7A 1_555 1_555
C8A Si1A 1_555 1_555
C9A C8A 1_555 1_555
H7A C9A 1_555 1_555
C10A N2A 1_555 1_555
H8A C10A 1_555 1_555
C11A Si1A 1_555 1_555
H9A C11A 1_555 1_555
H10A C11A 1_555 1_555
H11A C11A 1_555 1_555
C12A Si1A 1_555 1_555
H12A C12A 1_555 1_555
H13A C12A 1_555 1_555
H14A C12A 1_555 1_555
Cu1F N2A 1_555 1_555
Cu1F_2 N2 1_555 1_555
N2F Cu1 1_555 1_555
N2G Cu1 1_555 1_555
C4 C5 1_555 1_555
C7 C8 1_555 1_555
C9 C10 1_555 1_555
C4A C5A 1_555 1_555
C7A C8A 1_555 1_555
C9A C10A 1_555 1_555

#END
