
#######################################################################
#
#                 Cambridge Crystallographic Data Centre
#                                CCDC 
#
#######################################################################
#
# If this CIF has been generated from an entry in the Cambridge 
# Structural Database, then it will include bibliographic, chemical, 
# crystal, experimental, refinement or atomic coordinate data resulting 
# from the CCDC's data processing and validation procedures.
#
#######################################################################

data_SESCOJ
_symmetry_cell_setting           monoclinic
_symmetry_space_group_name_H-M   'P 21/n'
_symmetry_Int_Tables_number      14
_space_group_name_Hall           '-P 2yn'
loop_
_symmetry_equiv_pos_site_id
_symmetry_equiv_pos_as_xyz
1 x,y,z
2 1/2-x,1/2+y,1/2-z
3 -x,-y,-z
4 1/2+x,1/2-y,1/2+z
_cell_length_a                   7.4540(15)
_cell_length_b                   13.816(3)
_cell_length_c                   17.936(4)
_cell_angle_alpha                90
_cell_angle_beta                 92.88(3)
_cell_angle_gamma                90
_cell_volume                     1844.8
loop_
_atom_site_label
_atom_site_type_symbol
_atom_site_fract_x
_atom_site_fract_y
_atom_site_fract_z
Cu1 Cu 0.39119(3) 0.787032(18) 0.185737(13)
O1 O 0.8529(3) 0.92207(14) 0.64223(9)
O2 O 0.5313(2) 0.85108(15) 0.26608(8)
O3 O 0.5476(3) 0.72655(14) 0.34567(12)
O4 O 0.7535(2) 0.77803(11) 0.60390(8)
O6 O 0.2843(3) 0.93893(16) 0.13870(13)
C1 C 0.5632(3) 0.81304(18) 0.33022(13)
C2 C 0.6256(3) 0.88222(15) 0.39062(11)
C3 C 0.6644(3) 0.84716(15) 0.46217(11)
C4 C 0.7323(3) 0.90787(15) 0.51832(11)
C5 C 0.7601(3) 1.00438(17) 0.50266(13)
C6 C 0.7227(4) 1.03970(18) 0.43150(14)
C7 C 0.6547(3) 0.97879(17) 0.37584(12)
C8 C 0.1410(3) 0.8318(2) 0.30720(13)
C9 C 0.0248(4) 0.7869(3) 0.34981(16)
C10 C 0.1099(3) 0.6870(2) 0.26518(14)
C11 C 0.7838(3) 0.86843(17) 0.59443(11)
C12 C 0.6044(3) 0.79882(19) 0.04656(13)
C13 C 0.7759(4) 0.7982(2) 0.02536(15)
C14 C 0.7742(3) 0.78815(18) 0.14642(14)
N1 N 0.6035(2) 0.79227(13) 0.12317(10)
N2 N 0.1938(2) 0.76835(14) 0.25344(10)
N3 N 0.0063(3) 0.6957(2) 0.32325(14)
N4 N 0.8806(3) 0.79167(17) 0.08899(13)
H1 H 0.628(3) 1.002(2) 0.3249(14)
H2 H 0.741(4) 1.107(2) 0.4212(16)
H3 H 0.805(4) 1.045(2) 0.5398(16)
H4 H 0.649(3) 0.7841(18) 0.4711(13)
H5 H 0.118(4) 0.632(2) 0.2364(16)
H6 H -0.053(5) 0.652(3) 0.3347(19)
H7 H -0.027(5) 0.805(3) 0.388(2)
H8 H 0.185(4) 0.896(2) 0.3103(16)
H9 H 0.818(5) 0.804(2) -0.0211(19)
H10 H 0.976(4) 0.786(2) 0.0918(17)
H11 H 0.818(4) 0.7847(18) 0.1937(16)
H12 H 0.503(4) 0.8036(19) 0.0192(15)
H15 H 0.206(4) 0.971(2) 0.1604(18)
H16 H 0.246(5) 0.937(3) 0.0951(9)
Cu1C Cu 0.89119(3) 0.712968(18) 0.685737(13)
O4C O 0.2535(2) 0.72197(11) 0.10390(8)
O5 O 0.4827(3) 0.54792(15) 0.28759(11)
H13 H 0.499(5) 0.6069(16) 0.3059(19)
H14 H 0.456(6) 0.555(3) 0.2428(8)
O7 O 0.8296(4) 0.5228(2) 0.3516(2)
H17 H 0.752(4) 0.513(3) 0.3180(16)
H18 H 0.910(5) 0.485(3) 0.343(3)
O8 O 0.1517(5) 0.9322(3) 0.9839(3)
H19 H 0.236(5) 0.951(4) 0.957(2)
H20 H 0.150(11) 0.9922(16) 0.993(5)
loop_
_geom_bond_atom_site_label_1
_geom_bond_atom_site_label_2
_geom_bond_site_symmetry_1
_geom_bond_site_symmetry_2
Cu1 O2 1_555 1_555
O1 C11 1_555 1_555
O2 C1 1_555 1_555
O3 C1 1_555 1_555
O4 C11 1_555 1_555
O5 H13 1_555 1_555
O6 Cu1 1_555 1_555
O7 H17 1_555 1_555
O8 H19 1_555 1_555
C1 C2 1_555 1_555
C2 C3 1_555 1_555
C3 C4 1_555 1_555
C4 C5 1_555 1_555
C5 C6 1_555 1_555
C6 C7 1_555 1_555
C7 C2 1_555 1_555
C8 C9 1_555 1_555
C9 N3 1_555 1_555
C10 N2 1_555 1_555
C11 C4 1_555 1_555
C12 C13 1_555 1_555
C13 N4 1_555 1_555
C14 N1 1_555 1_555
N1 Cu1 1_555 1_555
N2 Cu1 1_555 1_555
N3 C10 1_555 1_555
N4 C14 1_555 1_555
H1 C7 1_555 1_555
H2 C6 1_555 1_555
H3 C5 1_555 1_555
H4 C3 1_555 1_555
H5 C10 1_555 1_555
H6 N3 1_555 1_555
H7 C9 1_555 1_555
H8 C8 1_555 1_555
H9 C13 1_555 1_555
H10 N4 1_555 1_555
H11 C14 1_555 1_555
H12 C12 1_555 1_555
H14 O5 1_555 1_555
H15 O6 1_555 1_555
H16 O6 1_555 1_555
H18 O7 1_555 1_555
H20 O8 1_555 1_555
Cu1C O4 1_555 1_555
O4C Cu1 1_555 1_555
C8 N2 1_555 1_555
C12 N1 1_555 1_555

#END
