
#######################################################################
#
#                 Cambridge Crystallographic Data Centre
#                                CCDC 
#
#######################################################################
#
# If this CIF has been generated from an entry in the Cambridge 
# Structural Database, then it will include bibliographic, chemical, 
# crystal, experimental, refinement or atomic coordinate data resulting 
# from the CCDC's data processing and validation procedures.
#
#######################################################################

data_SESDEA01
_symmetry_cell_setting           monoclinic
_symmetry_space_group_name_H-M   'P 21/c'
_symmetry_Int_Tables_number      14
_space_group_name_Hall           '-P 2ybc'
loop_
_symmetry_equiv_pos_site_id
_symmetry_equiv_pos_as_xyz
1 x,y,z
2 -x,1/2+y,1/2-z
3 -x,-y,-z
4 x,1/2-y,1/2+z
_cell_length_a                   12.0782(3)
_cell_length_b                   16.5903(5)
_cell_length_c                   8.8853(2)
_cell_angle_alpha                90
_cell_angle_beta                 109.33
_cell_angle_gamma                90
_cell_volume                     1680.08
loop_
_atom_site_label
_atom_site_type_symbol
_atom_site_fract_x
_atom_site_fract_y
_atom_site_fract_z
Eu1 Eu 0.547595(10) 0.117529(7) 0.066844(14)
O1 O 0.54478(17) 0.23534(12) -0.0945(2)
O2 O 0.72614(15) 0.21798(10) 0.1590(2)
O3 O 0.67393(19) 0.09145(12) -0.0991(2)
O4 O 0.55777(17) -0.01196(13) -0.1308(2)
O5 O 0.4067(2) 0.21006(15) 0.1172(3)
O6 O 0.60015(17) 0.14335(11) 0.3511(2)
O7 O 0.36865(17) 0.11409(10) -0.1599(2)
O8 O 0.68056(16) 0.01661(11) 0.1980(2)
C1 C 0.6096(2) 0.29662(15) -0.0611(3)
C2 C 0.7042(2) 0.29925(15) 0.0992(3)
C3 C 0.8351(2) 0.20446(15) 0.2750(3)
H1 H 0.3568 0.2382 0.0469
H2 H 0.4294 0.2405 0.1987
C4 C 0.3593(2) -0.02416(16) 0.1576(3)
H3 H 0.7753 0.3224 0.0893
H4 H 0.6794 0.3323 0.1722
C5 C 0.8913(2) 0.13408(16) 0.2631(3)
C6 C 0.8845(2) 0.25789(16) 0.3977(3)
C7 C 0.3066(3) 0.0141(2) 0.2717(4)
C8 C 0.9972(2) 0.11455(15) 0.3788(3)
H5 H 0.8585 0.0995 0.1776
H6 H 0.8469 0.3061 0.4035
C9 C 0.9914(2) 0.23880(17) 0.5127(3)
H7 H 0.2951 0.0711 0.2475
H8 H 0.3615 0.0090 0.3792
O9 O 0.19782(19) -0.02031(15) 0.2663(3)
H9 H 1.0348 0.0664 0.3720
C10 C 1.0465(2) 0.16682(15) 0.5040(3)
H10 H 1.0257 0.2746 0.5956
C11 C 0.1025(3) -0.00862(19) 0.1305(4)
O10 O 1.15112(15) 0.15102(11) 0.6263(2)
C12 C 0.0029(3) -0.05209(18) 0.1213(4)
C13 C 0.0994(3) 0.04411(19) 0.0077(4)
C14 C 1.1979(2) 0.07293(16) 0.6247(3)
H11 H 0.0046 -0.0874 0.2033
H12 H 0.1656 0.0739 0.0120
H13 H 1.2192 0.0669 0.5292
H14 H 1.1380 0.0332 0.6204
C15 C 1.3047(2) 0.05653(15) 0.7695(3)
O4B O 0.44223(17) 0.01196(13) 0.1308(2)
Eu1B Eu 0.452405(10) -0.117529(7) -0.066844(14)
C1C C 0.6096(2) 0.20338(15) 0.4389(3)
O6C O 0.60015(17) 0.35665(11) -0.1489(2)
O3B O 0.32607(19) -0.09145(12) 0.0991(2)
C2C C 0.7042(2) 0.20075(15) 0.5992(3)
O1C O 0.54478(17) 0.26466(12) 0.4055(2)
Eu1C Eu 0.547595(10) 0.382471(7) -0.433156(14)
H3C H 0.7753 0.1776 0.5893
H4C H 0.6794 0.1677 0.6722
O2C O 0.72614(15) 0.28202(10) 0.6590(2)
Eu1C_2 Eu 0.547595(10) 0.382471(7) 0.566844(14)
O2C_2 O 0.72614(15) 0.28202(10) -0.3410(2)
O4C O 0.55777(17) 0.51196(13) -0.6308(2)
O3C O 0.67393(19) 0.40855(12) -0.5991(2)
O4A O 0.44223(17) 0.48804(13) -0.3692(2)
O5C O 0.4067(2) 0.28994(15) -0.3828(3)
O1C_2 O 0.54478(17) 0.26466(12) -0.5945(2)
O7C O 0.36865(17) 0.38591(10) -0.6599(2)
O8C O 0.68056(16) 0.48339(11) -0.3020(2)
C3C C 0.8351(2) 0.29554(15) 0.7750(3)
H2C H 0.4294 0.2595 -0.3013
H1C H 0.3568 0.2618 -0.4531
C5C C 0.8913(2) 0.36592(16) 0.7631(3)
C6C C 0.8845(2) 0.24211(16) 0.8977(3)
H5C H 0.8585 0.4005 0.6776
C8C C 0.9972(2) 0.38545(15) 0.8788(3)
C9C C 0.9914(2) 0.26120(17) 1.0127(3)
H6C H 0.8469 0.1939 0.9035
C13B C -0.0994(3) -0.04411(19) -0.0077(4)
C12B C -0.0029(3) 0.05209(18) -0.1213(4)
C10C C 1.0465(2) 0.33318(15) 1.0040(3)
H9C H 1.0348 0.4336 0.8720
H10C H 1.0257 0.2254 1.0956
H12B H -0.1656 -0.0739 -0.0120
C11B C -0.1025(3) 0.00862(19) -0.1305(4)
H11B H -0.0046 0.0874 -0.2033
O7_2 O 1.36865(17) 0.11409(10) 0.8401(2)
O8B O 1.31944(16) -0.01661(11) 0.8020(2)
O10C O 1.15112(15) 0.34898(11) 1.1263(2)
O9B O -0.19782(19) 0.02031(15) -0.2663(3)
Eu1_2 Eu 1.547595(10) 0.117529(7) 1.066844(14)
Eu1B_2 Eu 1.452405(10) -0.117529(7) 0.933156(14)
C14C C 1.1979(2) 0.42707(16) 1.1247(3)
C7B C -0.3066(3) -0.0141(2) -0.2717(4)
H14C H 1.1380 0.4668 1.1204
C15C C 1.3047(2) 0.44347(15) 1.2695(3)
H13C H 1.2192 0.4331 1.0292
C4B C -0.3593(2) 0.02416(16) -0.1576(3)
H7B H -0.2951 -0.0711 -0.2475
H8B H -0.3615 -0.0090 -0.3792
O8A O 1.31944(16) 0.51661(11) 1.3020(2)
O7C_2 O 1.36865(17) 0.38591(10) 1.3401(2)
O4_2 O -0.44223(17) -0.01196(13) -0.1308(2)
O3_2 O -0.32607(19) 0.09145(12) -0.0991(2)
Eu1A Eu 1.452405(10) 0.617529(7) 1.433156(14)
Eu1C_3 Eu 1.547595(10) 0.382471(7) 1.566844(14)
Eu1_3 Eu -0.452405(10) 0.117529(7) 0.066844(14)
Eu1B_3 Eu -0.547595(10) -0.117529(7) -0.066844(14)
O11 O 0.2550(2) 0.28350(16) 0.8509(3)
H15 H 0.2102 0.2719 0.9042
H16 H 0.2483 0.2438 0.7881
loop_
_geom_bond_atom_site_label_1
_geom_bond_atom_site_label_2
_geom_bond_site_symmetry_1
_geom_bond_site_symmetry_2
Eu1 O1 1_555 1_555
O1 C1 1_555 1_555
O2 Eu1 1_555 1_555
O3 Eu1 1_555 1_555
O4 Eu1 1_555 1_555
O5 Eu1 1_555 1_555
O6 Eu1 1_555 1_555
O7 Eu1 1_555 1_555
O8 Eu1 1_555 1_555
C1 C2 1_555 1_555
C2 O2 1_555 1_555
C3 O2 1_555 1_555
H1 O5 1_555 1_555
H2 O5 1_555 1_555
C4 C7 1_555 1_555
H3 C2 1_555 1_555
H4 C2 1_555 1_555
C5 C3 1_555 1_555
C6 C3 1_555 1_555
C7 H7 1_555 1_555
C8 C5 1_555 1_555
H5 C5 1_555 1_555
H6 C6 1_555 1_555
C9 C6 1_555 1_555
H8 C7 1_555 1_555
O9 C7 1_555 1_555
H9 C8 1_555 1_555
C10 C8 1_555 1_555
H10 C9 1_555 1_555
C11 O9 1_555 1_555
O10 C10 1_555 1_555
C12 C11 1_555 1_555
C13 C11 1_555 1_555
C14 O10 1_555 1_555
H11 C12 1_555 1_555
H12 C13 1_555 1_555
H13 C14 1_555 1_555
H14 C14 1_555 1_555
C15 C14 1_555 1_555
O11 H15 1_555 1_555
H16 O11 1_555 1_555
O4B Eu1 1_555 1_555
Eu1B O4 1_555 1_555
C1C O6 1_555 1_555
O6C C1 1_555 1_555
O3B C4 1_555 1_555
C2C C1C 1_555 1_555
O1C C1C 1_555 1_555
Eu1C O6C 1_555 1_555
H3C C2C 1_555 1_555
H4C C2C 1_555 1_555
O2C C2C 1_555 1_555
Eu1C_2 O1C 1_555 1_555
O2C_2 Eu1C 1_555 1_555
O4C Eu1C 1_555 1_555
O3C Eu1C 1_555 1_555
O4A Eu1C 1_555 1_555
O5C Eu1C 1_555 1_555
O1C_2 Eu1C 1_555 1_555
O7C Eu1C 1_555 1_555
O8C Eu1C 1_555 1_555
C3C O2C 1_555 1_555
H2C O5C 1_555 1_555
H1C O5C 1_555 1_555
C5C C3C 1_555 1_555
C6C C3C 1_555 1_555
H5C C5C 1_555 1_555
C8C C5C 1_555 1_555
C9C C6C 1_555 1_555
H6C C6C 1_555 1_555
C13B C12 1_555 1_555
C12B C13 1_555 1_555
C10C C8C 1_555 1_555
H9C C8C 1_555 1_555
H10C C9C 1_555 1_555
H12B C13B 1_555 1_555
C11B C13B 1_555 1_555
H11B C12B 1_555 1_555
O7_2 C15 1_555 1_555
O8B C15 1_555 1_555
O10C C10C 1_555 1_555
O9B C11B 1_555 1_555
Eu1_2 O7_2 1_555 1_555
Eu1B_2 O8B 1_555 1_555
C14C O10C 1_555 1_555
C7B O9B 1_555 1_555
H14C C14C 1_555 1_555
C15C C14C 1_555 1_555
H13C C14C 1_555 1_555
C4B C7B 1_555 1_555
H7B C7B 1_555 1_555
H8B C7B 1_555 1_555
O8A C15C 1_555 1_555
O7C_2 C15C 1_555 1_555
O4_2 C4B 1_555 1_555
O3_2 C4B 1_555 1_555
Eu1A O8A 1_555 1_555
Eu1C_3 O7C_2 1_555 1_555
Eu1_3 O4_2 1_555 1_555
Eu1B_3 O4_2 1_555 1_555
C4 O4B 1_555 1_555
C9 C10 1_555 1_555
O4B Eu1B 1_555 1_555
Eu1B O3B 1_555 1_555
O2C Eu1C_2 1_555 1_555
C9C C10C 1_555 1_555
C12B C11B 1_555 1_555
O3_2 Eu1_3 1_555 1_555

#END
