
#######################################################################
#
#                 Cambridge Crystallographic Data Centre
#                                CCDC 
#
#######################################################################
#
# If this CIF has been generated from an entry in the Cambridge 
# Structural Database, then it will include bibliographic, chemical, 
# crystal, experimental, refinement or atomic coordinate data resulting 
# from the CCDC's data processing and validation procedures.
#
#######################################################################

data_SESDEA
_symmetry_cell_setting           monoclinic
_symmetry_space_group_name_H-M   'P 21/c'
_symmetry_Int_Tables_number      14
_space_group_name_Hall           '-P 2ybc'
loop_
_symmetry_equiv_pos_site_id
_symmetry_equiv_pos_as_xyz
1 x,y,z
2 -x,1/2+y,1/2-z
3 -x,-y,-z
4 x,1/2-y,1/2+z
_cell_length_a                   12.0580(10)
_cell_length_b                   16.5763(13)
_cell_length_c                   8.8841(7)
_cell_angle_alpha                90
_cell_angle_beta                 109.2520(10)
_cell_angle_gamma                90
_cell_volume                     1676.42
loop_
_atom_site_label
_atom_site_type_symbol
_atom_site_fract_x
_atom_site_fract_y
_atom_site_fract_z
Eu1 Eu 0.54770(3) 0.11746(2) 1.06668(4)
C1 C 0.3047(6) 0.0566(4) 0.7704(8)
C2 C 0.1975(6) 0.0725(4) 0.6241(9)
H1 H 0.2192 0.0663 0.5289
H2 H 0.1374 0.0329 0.6199
C3 C 0.0467(6) 0.1670(4) 0.5048(9)
C4 C -0.0031(7) 0.1149(5) 0.3780(9)
H3 H 0.0348 0.0669 0.3702
C5 C -0.1089(6) 0.1342(4) 0.2636(9)
H4 H -0.1419 0.0994 0.1785
C6 C -0.1651(6) 0.2044(4) 0.2750(8)
C7 C -0.1156(7) 0.2579(4) 0.3973(9)
H5 H -0.1532 0.3063 0.4028
C8 C -0.0091(7) 0.2389(4) 0.5123(9)
H6 H 0.0250 0.2748 0.5950
C9 C -0.2957(7) 0.2998(4) 0.0992(9)
H7 H -0.2246 0.3231 0.0894
H8 H -0.3211 0.3328 0.1719
C10 C -0.3909(6) 0.2963(4) -0.0625(8)
C11 C 0.3596(6) -0.0247(5) 1.1578(9)
C12 C 0.3065(8) 0.0147(6) 1.2719(11)
H9 H 0.3614 0.0102 1.3796
H10 H 0.2947 0.0716 1.2464
C13 C 0.1023(7) -0.0087(5) 1.1305(10)
C14 C 0.0992(8) 0.0441(5) 1.0078(11)
H11 H 0.1655 0.0741 1.0124
C15 C 0.0028(8) -0.0518(5) 1.1216(11)
H12 H 0.0041 -0.0868 1.2040
O1 O 0.3692(5) 0.1139(3) 0.8428(6)
O2 O 0.3189(4) -0.0165(3) 0.8021(6)
O3 O 0.1509(4) 0.1510(3) 0.6258(6)
O4 O -0.2738(4) 0.2184(3) 0.1585(6)
O5 O -0.4000(5) 0.3569(3) -0.1494(6)
O6 O -0.4552(5) 0.2350(3) -0.0951(7)
O7 O 0.4422(5) 0.0119(4) 1.1304(7)
O8 O 0.3249(5) -0.0914(3) 1.0987(7)
O9 O 0.1973(5) -0.0204(4) 1.2662(7)
O10 O 0.4075(6) 0.2108(4) 1.1179(8)
H13 H 0.4294 0.2578 1.1539
H14 H 0.3367 0.1961 1.0998
Eu1B Eu 0.45230(3) -0.11746(2) 0.93332(4)
Eu1_2 Eu -0.45230(3) 0.11746(2) 0.06668(4)
Eu1C Eu -0.45230(3) 0.38254(2) -0.43332(4)
Eu1_3 Eu -0.45230(3) 0.11746(2) 1.06668(4)
Eu1B_2 Eu -0.54770(3) -0.11746(2) 0.93332(4)
Eu1B_3 Eu 1.45230(3) -0.11746(2) 1.93332(4)
Eu1A Eu 1.45230(3) -0.38254(2) 2.43332(4)
C1B C 0.6953(6) -0.0566(4) 1.2296(8)
C2B C 0.8025(6) -0.0725(4) 1.3759(9)
H1B H 0.7808 -0.0663 1.4711
H2B H 0.8626 -0.0329 1.3801
C3B C 0.9533(6) -0.1670(4) 1.4952(9)
C4B C 1.0031(7) -0.1149(5) 1.6220(9)
H3B H 0.9652 -0.0669 1.6298
C5B C 1.1089(6) -0.1342(4) 1.7364(9)
H4B H 1.1419 -0.0994 1.8215
C6B C 1.1651(6) -0.2044(4) 1.7250(8)
C7B C 1.1156(7) -0.2579(4) 1.6027(9)
H5B H 1.1532 -0.3063 1.5972
C8B C 1.0091(7) -0.2389(4) 1.4877(9)
H6B H 0.9750 -0.2748 1.4050
C9B C 1.2957(7) -0.2998(4) 1.9008(9)
H7B H 1.2246 -0.3231 1.9106
H8B H 1.3211 -0.3328 1.8281
C10B C 1.3909(6) -0.2963(4) 2.0625(8)
C11B C -0.3596(6) 0.0247(5) 0.8422(9)
C12B C -0.3065(8) -0.0147(6) 0.7281(11)
H9B H -0.3614 -0.0102 0.6204
H10B H -0.2947 -0.0716 0.7536
C13B C -0.1023(7) 0.0087(5) 0.8695(10)
C14B C -0.0992(8) -0.0441(5) 0.9922(11)
H11B H -0.1655 -0.0741 0.9876
C15B C -0.0028(8) 0.0518(5) 0.8784(11)
H12B H -0.0041 0.0868 0.7960
O1B O 0.6308(5) -0.1139(3) 1.1572(6)
O2B O 0.6811(4) 0.0165(3) 1.1979(6)
O3B O 0.8491(4) -0.1510(3) 1.3742(6)
O4B O 1.2738(4) -0.2184(3) 1.8415(6)
O4_2 O 0.7262(4) 0.2184(3) 1.1585(6)
O4B_2 O 0.2738(4) -0.2184(3) 0.8415(6)
O5B O 1.4000(5) -0.3569(3) 2.1494(6)
O5C O 0.6000(5) 0.1431(3) 1.3506(6)
O5A O 0.4000(5) -0.1431(3) 0.6494(6)
O6B O 1.4552(5) -0.2350(3) 2.0951(7)
O6_2 O 0.5448(5) 0.2350(3) 0.9049(7)
O6B_2 O 0.4552(5) -0.2350(3) 1.0951(7)
O7B O -0.4422(5) -0.0119(4) 0.8696(7)
O7B_2 O 0.5578(5) -0.0119(4) 0.8696(7)
O8B O -0.3249(5) 0.0914(3) 0.9013(7)
O8B_2 O 0.6751(5) 0.0914(3) 0.9013(7)
O9B O -0.1973(5) 0.0204(4) 0.7338(7)
O10B O 0.5925(6) -0.2108(4) 0.8821(8)
H13B H 0.5706 -0.2578 0.8461
H14B H 0.6633 -0.1961 0.9002
O11 O 0.2547(6) 0.2831(4) 0.8520(8)
H15 H 0.2479 0.2427 0.9071
H16 H 0.1940 0.3091 0.7973
loop_
_geom_bond_atom_site_label_1
_geom_bond_atom_site_label_2
_geom_bond_site_symmetry_1
_geom_bond_site_symmetry_2
Eu1 O1 1_555 1_555
C1 C2 1_555 1_555
C2 H1 1_555 1_555
H2 C2 1_555 1_555
C3 C4 1_555 1_555
C4 H3 1_555 1_555
C5 C4 1_555 1_555
H4 C5 1_555 1_555
C6 C5 1_555 1_555
C7 C6 1_555 1_555
H5 C7 1_555 1_555
C8 C3 1_555 1_555
H6 C8 1_555 1_555
C9 H7 1_555 1_555
H8 C9 1_555 1_555
C10 C9 1_555 1_555
C11 C12 1_555 1_555
C12 H9 1_555 1_555
H10 C12 1_555 1_555
C13 C14 1_555 1_555
C14 H11 1_555 1_555
C15 C13 1_555 1_555
H12 C15 1_555 1_555
O1 C1 1_555 1_555
O2 C1 1_555 1_555
O3 C2 1_555 1_555
O4 C6 1_555 1_555
O5 C10 1_555 1_555
O6 C10 1_555 1_555
O7 Eu1 1_555 1_555
O8 C11 1_555 1_555
O9 C12 1_555 1_555
O10 Eu1 1_555 1_555
H13 O10 1_555 1_555
H14 O10 1_555 1_555
O11 H15 1_555 1_555
H16 O11 1_555 1_555
Eu1B O2 1_555 1_555
Eu1_2 O4 1_555 1_555
Eu1C O5 1_555 1_555
Eu1_3 O7B 1_555 1_555
Eu1B_2 O7B 1_555 1_555
Eu1B_3 O4B 1_555 1_555
Eu1A O5B 1_555 1_555
C1B C2B 1_555 1_555
C2B H1B 1_555 1_555
H2B C2B 1_555 1_555
C3B C4B 1_555 1_555
C4B H3B 1_555 1_555
C5B C4B 1_555 1_555
H4B C5B 1_555 1_555
C6B C5B 1_555 1_555
C7B C6B 1_555 1_555
H5B C7B 1_555 1_555
C8B C3B 1_555 1_555
H6B C8B 1_555 1_555
C9B H7B 1_555 1_555
H8B C9B 1_555 1_555
C10B C9B 1_555 1_555
C11B C12B 1_555 1_555
C12B H9B 1_555 1_555
H10B C12B 1_555 1_555
C13B C14B 1_555 1_555
C14B C15 1_555 1_555
H11B C14B 1_555 1_555
C15B C14 1_555 1_555
H12B C15B 1_555 1_555
O1B Eu1B 1_555 1_555
O2B Eu1 1_555 1_555
O3B C2B 1_555 1_555
O4B C6B 1_555 1_555
O4_2 Eu1 1_555 1_555
O4B_2 Eu1B 1_555 1_555
O5B C10B 1_555 1_555
O5C Eu1 1_555 1_555
O5A Eu1B 1_555 1_555
O6B Eu1B_3 1_555 1_555
O6_2 Eu1 1_555 1_555
O6B_2 Eu1B 1_555 1_555
O7B C11B 1_555 1_555
O7B_2 Eu1 1_555 1_555
O8B Eu1_3 1_555 1_555
O8B_2 Eu1 1_555 1_555
O9B C12B 1_555 1_555
O10B Eu1B 1_555 1_555
H13B O10B 1_555 1_555
H14B O10B 1_555 1_555
C3 O3 1_555 1_555
C7 C8 1_555 1_555
C9 O4 1_555 1_555
C11 O7 1_555 1_555
C13 O9 1_555 1_555
O6 Eu1_2 1_555 1_555
O7 Eu1B 1_555 1_555
O8 Eu1B 1_555 1_555
Eu1B O7B_2 1_555 1_555
C1B O1B 1_555 1_555
C1B O2B 1_555 1_555
C3B O3B 1_555 1_555
C7B C8B 1_555 1_555
C9B O4B 1_555 1_555
C10B O6B 1_555 1_555
C11B O8B 1_555 1_555
C13B C15B 1_555 1_555
C13B O9B 1_555 1_555

#END
