
#######################################################################
#
#                 Cambridge Crystallographic Data Centre
#                                CCDC 
#
#######################################################################
#
# If this CIF has been generated from an entry in the Cambridge 
# Structural Database, then it will include bibliographic, chemical, 
# crystal, experimental, refinement or atomic coordinate data resulting 
# from the CCDC's data processing and validation procedures.
#
#######################################################################

data_SESDIE
_symmetry_cell_setting           triclinic
_symmetry_space_group_name_H-M   'P -1'
_symmetry_Int_Tables_number      2
_space_group_name_Hall           '-P 1'
loop_
_symmetry_equiv_pos_site_id
_symmetry_equiv_pos_as_xyz
1 x,y,z
2 -x,-y,-z
_cell_length_a                   6.0674(5)
_cell_length_b                   10.6257(8)
_cell_length_c                   13.4681(10)
_cell_angle_alpha                111.9290(10)
_cell_angle_beta                 96.6840(10)
_cell_angle_gamma                97.7060(10)
_cell_volume                     784.999
loop_
_atom_site_label
_atom_site_type_symbol
_atom_site_fract_x
_atom_site_fract_y
_atom_site_fract_z
Er1 Er 0.42371(3) 0.36867(2) 0.290042(17)
C1 C 0.6338(9) 0.6801(6) 0.4819(4)
C2 C 0.6812(11) 0.8353(6) 0.5162(5)
H1 H 0.5885 0.8749 0.5695
H2 H 0.8381 0.8707 0.5519
C3 C 0.8026(10) 0.8760(6) 0.3666(4)
C4 C 0.7740(10) 0.9451(6) 0.2974(5)
H3 H 0.6560 0.9932 0.2998
C5 C 0.9194(10) 0.9429(6) 0.2254(5)
H4 H 0.8993 0.9893 0.1795
C6 C 1.0955(10) 0.8712(6) 0.2216(5)
C7 C 1.1283(10) 0.8064(6) 0.2927(5)
H5 H 1.2493 0.7609 0.2917
C8 C 0.9841(10) 0.8083(6) 0.3651(5)
H6 H 1.0080 0.7646 0.4126
C9 C 1.2397(12) 0.9401(6) 0.0878(5)
H7 H 1.0872 0.9217 0.0479
H8 H 1.3387 0.9132 0.0351
C10 C 1.3102(10) 1.0940(6) 0.1558(5)
C11 C -0.0777(9) 0.4050(6) 0.2102(4)
C12 C 0.0296(9) 0.4397(6) 0.1266(4)
H9 H -0.0224 0.3650 0.0555
H10 H -0.0127 0.5230 0.1232
C13 C 0.3853(8) 0.4798(6) 0.0755(4)
C14 C 0.5116(9) 0.6086(6) 0.0995(4)
H11 H 0.5185 0.6808 0.1662
C15 C 0.3713(10) 0.3712(6) -0.0219(4)
H12 H 0.2847 0.2852 -0.0361
O1 O 0.5376(7) 0.6031(4) 0.3869(3)
O2 O 0.6950(6) 0.6376(4) 0.5551(3)
O3 O 0.6410(7) 0.8820(4) 0.4313(3)
O4 O 1.4274(8) 1.1360(4) 0.2489(3)
O5 O 1.2508(9) 1.1764(5) 0.1180(4)
O6 O 1.2460(7) 0.8573(4) 0.1496(4)
O7 O 0.0514(7) 0.3924(5) 0.2855(3)
O8 O -0.2861(6) 0.3880(5) 0.1999(3)
O9 O 0.2706(6) 0.4601(4) 0.1557(3)
O10 O 0.7465(6) 0.3736(5) 0.4136(3)
H13 H 0.8719 0.4255 0.4210
H14 H 0.7355 0.3233 0.4499
Er1A Er 0.57629(3) 0.63133(2) 0.709958(17)
Er1_2 Er 1.42371(3) 1.36867(2) 0.290042(17)
Er1_3 Er -0.57629(3) 0.36867(2) 0.290042(17)
Er1A_2 Er 0.57629(3) 0.63133(2) -0.290042(17)
Er1A_3 Er 1.57629(3) 0.63133(2) -0.290042(17)
Er1A_4 Er -0.42371(3) -0.36867(2) 0.709958(17)
C1A C 0.3662(9) 0.3199(6) 0.5181(4)
C2A C 0.3188(11) 0.1647(6) 0.4838(5)
H1A H 0.4115 0.1251 0.4305
H2A H 0.1619 0.1293 0.4481
C3A C 0.1974(10) 0.1240(6) 0.6334(4)
C4A C 0.2260(10) 0.0549(6) 0.7026(5)
H3A H 0.3440 0.0068 0.7002
C5A C 0.0806(10) 0.0571(6) 0.7746(5)
H4A H 0.1007 0.0107 0.8205
C6A C -0.0955(10) 0.1288(6) 0.7784(5)
C7A C -0.1283(10) 0.1936(6) 0.7073(5)
H5A H -0.2493 0.2391 0.7083
C8A C 0.0159(10) 0.1917(6) 0.6349(5)
H6A H -0.0080 0.2354 0.5874
C9A C -0.2397(12) 0.0599(6) 0.9122(5)
H7A H -0.0872 0.0783 0.9521
H8A H -0.3387 0.0868 0.9649
C10A C -0.3102(10) -0.0940(6) 0.8442(5)
C11A C 1.0777(9) 0.5950(6) -0.2102(4)
C12A C 0.9704(9) 0.5603(6) -0.1266(4)
H9A H 1.0224 0.6350 -0.0555
H10A H 1.0127 0.4770 -0.1232
C13A C 0.6147(8) 0.5202(6) -0.0755(4)
C14A C 0.4884(9) 0.3914(6) -0.0995(4)
H11A H 0.4815 0.3192 -0.1662
C15A C 0.6287(10) 0.6288(6) 0.0219(4)
H12A H 0.7153 0.7148 0.0361
O1A O 0.4624(7) 0.3969(4) 0.6131(3)
O2A O 0.3050(6) 0.3624(4) 0.4449(3)
O3A O 0.3590(7) 0.1180(4) 0.5687(3)
O4A O -0.4274(8) -0.1360(4) 0.7511(3)
O4_2 O 0.4274(8) 0.1360(4) 0.2489(3)
O4A_2 O 0.5726(8) 0.8640(4) 0.7511(3)
O5A O -0.2508(9) -0.1764(5) 0.8820(4)
O5_2 O 0.2508(9) 0.1764(5) 0.1180(4)
O5A_2 O 0.7492(9) 0.8236(5) 0.8820(4)
O6A O -0.2460(7) 0.1427(4) 0.8504(4)
O7A O 0.9486(7) 0.6076(5) -0.2855(3)
O7A_2 O 0.9486(7) 0.6076(5) 0.7145(3)
O8A O 1.2861(6) 0.6120(5) -0.1999(3)
O8_2 O 0.7139(6) 0.3880(5) 0.1999(3)
O8A_2 O 0.2861(6) 0.6120(5) 0.8001(3)
O9A O 0.7294(6) 0.5399(4) -0.1557(3)
O9A_2 O 0.7294(6) 0.5399(4) 0.8443(3)
O10A O 0.2535(6) 0.6264(5) 0.5864(3)
H13A H 0.1281 0.5745 0.5790
H14A H 0.2645 0.6767 0.5501
loop_
_geom_bond_atom_site_label_1
_geom_bond_atom_site_label_2
_geom_bond_site_symmetry_1
_geom_bond_site_symmetry_2
Er1 O1 1_555 1_555
C1 C2 1_555 1_555
C2 H1 1_555 1_555
H2 C2 1_555 1_555
C3 C4 1_555 1_555
C4 H3 1_555 1_555
C5 C4 1_555 1_555
H4 C5 1_555 1_555
C6 C5 1_555 1_555
C7 C6 1_555 1_555
H5 C7 1_555 1_555
C8 C3 1_555 1_555
H6 C8 1_555 1_555
C9 H7 1_555 1_555
H8 C9 1_555 1_555
C10 C9 1_555 1_555
C11 C12 1_555 1_555
C12 H9 1_555 1_555
H10 C12 1_555 1_555
C13 C14 1_555 1_555
C14 H11 1_555 1_555
C15 C13 1_555 1_555
H12 C15 1_555 1_555
O1 C1 1_555 1_555
O2 C1 1_555 1_555
O3 C2 1_555 1_555
O4 C10 1_555 1_555
O5 C10 1_555 1_555
O6 C6 1_555 1_555
O7 Er1 1_555 1_555
O8 C11 1_555 1_555
O9 Er1 1_555 1_555
O10 Er1 1_555 1_555
H13 O10 1_555 1_555
H14 O10 1_555 1_555
Er1A O2 1_555 1_555
Er1_2 O4 1_555 1_555
Er1_3 O8 1_555 1_555
Er1A_2 O7A 1_555 1_555
Er1A_3 O8A 1_555 1_555
Er1A_4 O4A 1_555 1_555
C1A C2A 1_555 1_555
C2A H1A 1_555 1_555
H2A C2A 1_555 1_555
C3A C4A 1_555 1_555
C4A H3A 1_555 1_555
C5A C4A 1_555 1_555
H4A C5A 1_555 1_555
C6A C5A 1_555 1_555
C7A C6A 1_555 1_555
H5A C7A 1_555 1_555
C8A C3A 1_555 1_555
H6A C8A 1_555 1_555
C9A H7A 1_555 1_555
H8A C9A 1_555 1_555
C10A C9A 1_555 1_555
C11A C12A 1_555 1_555
C12A H9A 1_555 1_555
H10A C12A 1_555 1_555
C13A C14A 1_555 1_555
C14A C15 1_555 1_555
H11A C14A 1_555 1_555
C15A C14 1_555 1_555
H12A C15A 1_555 1_555
O1A Er1A 1_555 1_555
O2A Er1 1_555 1_555
O3A C2A 1_555 1_555
O4A C10A 1_555 1_555
O4_2 Er1 1_555 1_555
O4A_2 Er1A 1_555 1_555
O5A Er1A_4 1_555 1_555
O5_2 Er1 1_555 1_555
O5A_2 Er1A 1_555 1_555
O6A C6A 1_555 1_555
O7A C11A 1_555 1_555
O7A_2 Er1A 1_555 1_555
O8A C11A 1_555 1_555
O8_2 Er1 1_555 1_555
O8A_2 Er1A 1_555 1_555
O9A Er1A_2 1_555 1_555
O9A_2 Er1A 1_555 1_555
O10A Er1A 1_555 1_555
H13A O10A 1_555 1_555
H14A O10A 1_555 1_555
C3 O3 1_555 1_555
C7 C8 1_555 1_555
C9 O6 1_555 1_555
C11 O7 1_555 1_555
C12 O9 1_555 1_555
C13 O9 1_555 1_555
O5 Er1_2 1_555 1_555
C1A O1A 1_555 1_555
C1A O2A 1_555 1_555
C3A O3A 1_555 1_555
C7A C8A 1_555 1_555
C9A O6A 1_555 1_555
C10A O5A 1_555 1_555
C12A O9A 1_555 1_555
C13A C15A 1_555 1_555
C13A O9A 1_555 1_555

#END
