
#######################################################################
#
#                 Cambridge Crystallographic Data Centre
#                                CCDC 
#
#######################################################################
#
# If this CIF has been generated from an entry in the Cambridge 
# Structural Database, then it will include bibliographic, chemical, 
# crystal, experimental, refinement or atomic coordinate data resulting 
# from the CCDC's data processing and validation procedures.
#
#######################################################################

data_SESJOQ
_symmetry_cell_setting           monoclinic
_symmetry_space_group_name_H-M   'P 21/c'
_symmetry_Int_Tables_number      14
_space_group_name_Hall           '-P 2ybc'
loop_
_symmetry_equiv_pos_site_id
_symmetry_equiv_pos_as_xyz
1 x,y,z
2 -x,1/2+y,1/2-z
3 -x,-y,-z
4 x,1/2-y,1/2+z
_cell_length_a                   17.2337(14)
_cell_length_b                   14.7012(8)
_cell_length_c                   16.4273(12)
_cell_angle_alpha                90
_cell_angle_beta                 101.409(5)
_cell_angle_gamma                90
_cell_volume                     4079.72
loop_
_atom_site_label
_atom_site_type_symbol
_atom_site_fract_x
_atom_site_fract_y
_atom_site_fract_z
Pb1 Pb 0.75986(4) 0.26490(4) 0.09253(4)
Pb2 Pb 0.76238(4) 0.25348(4) 0.34356(4)
I1 I 0.84621(7) 0.12378(8) 0.22481(7)
I2 I 0.82275(7) 0.41419(8) 0.23693(9)
I3 I 0.61299(6) 0.25685(7) 0.18682(7)
I4 I 0.69398(9) 0.41064(9) -0.05657(9)
I5 I 0.67484(7) 0.11678(8) -0.04249(7)
I6 I 0.90944(7) 0.24560(9) -0.00229(8)
Pb2C Pb 0.76238(4) 0.24652(4) -0.15644(4)
I4C I 0.69398(9) 0.08936(9) 0.44343(9)
I5C I 0.67484(7) 0.38322(8) 0.45751(7)
I6C I 0.90944(7) 0.25440(9) 0.49771(8)
Ni1 Ni 0.24847(11) 0.25607(12) 0.19411(13)
N1 N 0.3251(7) 0.3426(8) 0.2711(7)
N2 N 0.3437(6) 0.1687(7) 0.2386(7)
N3 N 0.3046(8) 0.2842(8) 0.0928(8)
N4 N 0.1934(7) 0.1623(9) 0.1076(8)
N5 N 0.1573(8) 0.3478(10) 0.1686(9)
N6 N 0.1837(7) 0.2188(10) 0.2836(10)
C1 C 0.3115(10) 0.4302(10) 0.2870(11)
H1 H 0.2600 0.4517 0.2712
C2 C 0.3667(14) 0.4880(13) 0.3238(12)
H2 H 0.3545 0.5484 0.3323
C3 C 0.4446(13) 0.4543(13) 0.3495(13)
H3 H 0.4850 0.4922 0.3759
C4 C 0.4598(10) 0.3635(12) 0.3346(11)
H4 H 0.5105 0.3396 0.3501
C5 C 0.3973(8) 0.3097(9) 0.2962(9)
C6 C 0.4070(8) 0.2122(10) 0.2853(9)
C7 C 0.4743(8) 0.1624(11) 0.3169(10)
H5 H 0.5190 0.1917 0.3463
C8 C 0.4755(10) 0.0701(11) 0.3054(11)
H6 H 0.5199 0.0360 0.3282
C9 C 0.4092(9) 0.0291(11) 0.2590(12)
H7 H 0.4084 -0.0334 0.2506
C10 C 0.3457(8) 0.0794(10) 0.2260(10)
H8 H 0.3021 0.0511 0.1935
C11 C 0.3618(10) 0.3415(14) 0.0965(11)
H9 H 0.3644 0.3914 0.1317
C12 C 0.4223(12) 0.3302(16) 0.0472(12)
H10 H 0.4607 0.3742 0.0457
C13 C 0.4194(15) 0.2548(16) 0.0050(13)
H11 H 0.4612 0.2414 -0.0213
C14 C 0.3556(12) 0.1916(16) -0.0027(12)
H12 H 0.3528 0.1404 -0.0364
C15 C 0.2976(10) 0.2107(13) 0.0428(11)
C16 C 0.2260(10) 0.1499(11) 0.0411(10)
C17 C 0.1997(10) 0.0910(14) -0.0231(11)
H13 H 0.2245 0.0852 -0.0682
C18 C 0.1347(14) 0.0416(14) -0.0160(13)
H14 H 0.1152 -0.0001 -0.0575
C19 C 0.0956(12) 0.0501(13) 0.0503(14)
H15 H 0.0504 0.0171 0.0540
C20 C 0.1315(10) 0.1145(11) 0.1126(12)
H16 H 0.1089 0.1221 0.1591
C21 C 0.1435(13) 0.4088(12) 0.1128(12)
H17 H 0.1820 0.4148 0.0806
C22 C 0.0800(12) 0.4677(16) 0.0929(14)
H18 H 0.0770 0.5130 0.0529
C23 C 0.0219(14) 0.4529(19) 0.1378(16)
H19 H -0.0243 0.4872 0.1281
C24 C 0.0341(12) 0.3847(15) 0.1986(15)
H20 H -0.0045 0.3755 0.2301
C25 C 0.0981(9) 0.3327(15) 0.2131(13)
C26 C 0.1163(10) 0.2634(12) 0.2843(12)
C27 C 0.0673(15) 0.2429(14) 0.3354(14)
H21 H 0.0187 0.2722 0.3298
C28 C 0.0885(14) 0.1800(16) 0.3946(16)
H22 H 0.0549 0.1662 0.4308
C29 C 0.1587(14) 0.137(2) 0.4017(15)
H23 H 0.1749 0.0951 0.4444
C30 C 0.2061(11) 0.1548(12) 0.3451(11)
H24 H 0.2535 0.1235 0.3484
loop_
_geom_bond_atom_site_label_1
_geom_bond_atom_site_label_2
_geom_bond_site_symmetry_1
_geom_bond_site_symmetry_2
Pb1 I1 1_555 1_555
Pb2 I1 1_555 1_555
I2 Pb1 1_555 1_555
I3 Pb1 1_555 1_555
I4 Pb1 1_555 1_555
I5 Pb1 1_555 1_555
I6 Pb1 1_555 1_555
Ni1 N1 1_555 1_555
N1 C1 1_555 1_555
N2 Ni1 1_555 1_555
N3 Ni1 1_555 1_555
N4 Ni1 1_555 1_555
N5 Ni1 1_555 1_555
N6 Ni1 1_555 1_555
C1 H1 1_555 1_555
C2 C1 1_555 1_555
H2 C2 1_555 1_555
C3 C2 1_555 1_555
H3 C3 1_555 1_555
C4 C3 1_555 1_555
H4 C4 1_555 1_555
C5 N1 1_555 1_555
C6 N2 1_555 1_555
C7 C6 1_555 1_555
H5 C7 1_555 1_555
C8 C7 1_555 1_555
H6 C8 1_555 1_555
C9 C8 1_555 1_555
H7 C9 1_555 1_555
C10 N2 1_555 1_555
H8 C10 1_555 1_555
C11 N3 1_555 1_555
H9 C11 1_555 1_555
C12 C11 1_555 1_555
H10 C12 1_555 1_555
C13 C12 1_555 1_555
H11 C13 1_555 1_555
C14 C13 1_555 1_555
H12 C14 1_555 1_555
C15 N3 1_555 1_555
C16 N4 1_555 1_555
C17 C16 1_555 1_555
H13 C17 1_555 1_555
C18 C17 1_555 1_555
H14 C18 1_555 1_555
C19 C18 1_555 1_555
H15 C19 1_555 1_555
C20 N4 1_555 1_555
H16 C20 1_555 1_555
C21 N5 1_555 1_555
H17 C21 1_555 1_555
C22 C21 1_555 1_555
H18 C22 1_555 1_555
C23 C22 1_555 1_555
H19 C23 1_555 1_555
C24 C23 1_555 1_555
H20 C24 1_555 1_555
C25 N5 1_555 1_555
C26 N6 1_555 1_555
C27 C26 1_555 1_555
H21 C27 1_555 1_555
C28 C27 1_555 1_555
H22 C28 1_555 1_555
C29 C28 1_555 1_555
H23 C29 1_555 1_555
C30 N6 1_555 1_555
H24 C30 1_555 1_555
Pb2C I4 1_555 1_555
I4C Pb2 1_555 1_555
I5C Pb2 1_555 1_555
I6C Pb2 1_555 1_555
Pb2 I2 1_555 1_555
Pb2 I3 1_555 1_555
I5 Pb2C 1_555 1_555
I6 Pb2C 1_555 1_555
C4 C5 1_555 1_555
C5 C6 1_555 1_555
C9 C10 1_555 1_555
C14 C15 1_555 1_555
C15 C16 1_555 1_555
C19 C20 1_555 1_555
C24 C25 1_555 1_555
C25 C26 1_555 1_555
C29 C30 1_555 1_555

#END
