
#######################################################################
#
#                 Cambridge Crystallographic Data Centre
#                                CCDC 
#
#######################################################################
#
# If this CIF has been generated from an entry in the Cambridge 
# Structural Database, then it will include bibliographic, chemical, 
# crystal, experimental, refinement or atomic coordinate data resulting 
# from the CCDC's data processing and validation procedures.
#
#######################################################################

data_SESSEO
_symmetry_cell_setting           triclinic
_symmetry_space_group_name_H-M   'P -1'
_symmetry_Int_Tables_number      2
_space_group_name_Hall           '-P 1'
loop_
_symmetry_equiv_pos_site_id
_symmetry_equiv_pos_as_xyz
1 x,y,z
2 -x,-y,-z
_cell_length_a                   11.223(2)
_cell_length_b                   13.540(2)
_cell_length_c                   15.035(3)
_cell_angle_alpha                113.01(1)
_cell_angle_beta                 95.42(1)
_cell_angle_gamma                103.66(1)
_cell_volume                     1998.4
loop_
_atom_site_label
_atom_site_type_symbol
_atom_site_fract_x
_atom_site_fract_y
_atom_site_fract_z
Ca1 Ca 0.8496(1) 0.3537(1) 0.0140(1)
Ca2 Ca 0.4435(1) 0.3443(1) 0.0766(1)
O1 O 0.6595(3) 0.3038(3) 0.0651(2)
O2 O 0.4884(3) 0.1648(2) 0.0349(2)
C1 C 0.6060(4) 0.2074(4) 0.0576(3)
C2 C 0.6862(4) 0.1406(4) 0.0814(3)
C3 C 0.6303(5) 0.0983(4) 0.1529(3)
C4 C 0.7135(5) 0.0576(4) 0.2068(4)
S1 S 0.6355(1) 0.0168(1) 0.2934(1)
C5 C 0.5398(7) -0.1223(5) 0.2115(4)
N1 N 0.6832(3) 0.0442(3) -0.0117(3)
C6 C 0.7336(4) 0.0581(4) -0.0841(3)
O3 O 0.7943(3) 0.1526(3) -0.0755(2)
C7 C 0.7116(5) -0.0443(4) -0.1788(4)
O4 O 0.8520(3) 0.5344(3) 0.1309(2)
O5 O 0.9931(3) 0.6185(3) 0.0683(2)
C8 C 0.9089(4) 0.6177(4) 0.1179(3)
C9 C 0.8737(5) 0.7254(4) 0.1659(3)
C10 C 0.9112(5) 0.7738(4) 0.2799(4)
C11 C 0.8776(5) 0.8834(4) 0.3348(4)
S2 S 0.9957(2) 1.0065(1) 0.3472(1)
C12 C 0.9526(6) 1.1149(5) 0.4375(5)
N2 N 0.9252(4) 0.8061(3) 0.1294(3)
C13 C 0.8570(5) 0.8243(4) 0.0628(3)
O6 O 0.7443(3) 0.7802(3) 0.0304(3)
C14 C 0.9299(5) 0.9086(4) 0.0312(4)
O7 O 0.4327(3) 0.3373(2) 0.2259(2)
O8 O 0.3778(3) 0.4467(3) 0.3601(2)
C15 C 0.4577(5) 0.4094(4) 0.3138(3)
C16 C 0.5944(4) 0.4487(4) 0.3682(3)
C17 C 0.6206(5) 0.3641(4) 0.4057(4)
C18 C 0.7592(5) 0.3870(5) 0.4457(4)
S3 S 0.8578(1) 0.3793(1) 0.3564(1)
C19 C 0.9153(5) 0.5217(5) 0.3741(5)
N3 N 0.6284(4) 0.5586(3) 0.4531(3)
C20 C 0.6519(5) 0.6552(4) 0.4418(4)
O9 O 0.6513(3) 0.6589(3) 0.3604(2)
C21 C 0.6808(5) 0.7627(4) 0.5345(4)
O10 O 0.7298(3) 0.3938(3) -0.0939(2)
O11 O 0.6775(3) 0.5349(3) -0.1102(2)
C22 C 0.7381(4) 0.4660(4) -0.1289(3)
C23 C 0.8268(5) 0.4644(4) -0.1995(3)
C24 C 0.7925(5) 0.3472(4) -0.2868(3)
C25 C 0.6578(4) 0.3056(4) -0.3429(4)
S4 S 0.6272(2) 0.1802(1) -0.4570(1)
C26 C 0.6631(6) 0.0816(4) -0.4154(5)
N4 N 0.8317(3) 0.5522(3) -0.2327(3)
C27 C 0.9247(4) 0.6484(4) -0.1927(3)
O12 O 1.0173(3) 0.6692(3) -0.1283(2)
C28 C 0.9099(5) 0.7350(4) -0.2288(4)
O13 O 0.6096(3) 0.5220(2) 0.1659(2)
O14 O 0.4892(3) 0.3714(3) -0.0617(2)
O5A O 1.0069(3) 0.3815(3) -0.0683(2)
O12A O 0.9827(3) 0.3308(3) 0.1283(2)
O6A O 0.2557(3) 0.2198(3) -0.0304(3)
O11A O 0.3225(3) 0.4651(3) 0.1102(2)
Ca1A Ca 1.1504(1) 0.6463(1) -0.0140(1)
Ca2A Ca 0.5565(1) 0.6557(1) -0.0766(1)
loop_
_geom_bond_atom_site_label_1
_geom_bond_atom_site_label_2
_geom_bond_site_symmetry_1
_geom_bond_site_symmetry_2
Ca1 O1 1_555 1_555
Ca2 O1 1_555 1_555
O1 C1 1_555 1_555
O2 Ca2 1_555 1_555
C1 O2 1_555 1_555
C2 C1 1_555 1_555
C3 C2 1_555 1_555
C4 C3 1_555 1_555
S1 C4 1_555 1_555
C5 S1 1_555 1_555
N1 C2 1_555 1_555
C6 N1 1_555 1_555
O3 Ca1 1_555 1_555
C7 C6 1_555 1_555
O4 Ca1 1_555 1_555
O5 C8 1_555 1_555
C8 O4 1_555 1_555
C9 C8 1_555 1_555
C10 C9 1_555 1_555
C11 C10 1_555 1_555
S2 C11 1_555 1_555
C12 S2 1_555 1_555
N2 C9 1_555 1_555
C13 N2 1_555 1_555
O6 C13 1_555 1_555
C14 C13 1_555 1_555
O7 Ca2 1_555 1_555
O8 C15 1_555 1_555
C15 O7 1_555 1_555
C16 C15 1_555 1_555
C17 C16 1_555 1_555
C18 C17 1_555 1_555
S3 C18 1_555 1_555
C19 S3 1_555 1_555
N3 C16 1_555 1_555
C20 N3 1_555 1_555
O9 C20 1_555 1_555
C21 C20 1_555 1_555
O10 Ca1 1_555 1_555
O11 C22 1_555 1_555
C22 O10 1_555 1_555
C23 C22 1_555 1_555
C24 C23 1_555 1_555
C25 C24 1_555 1_555
S4 C25 1_555 1_555
C26 S4 1_555 1_555
N4 C23 1_555 1_555
C27 N4 1_555 1_555
O12 C27 1_555 1_555
C28 C27 1_555 1_555
O13 Ca2 1_555 1_555
O14 Ca2 1_555 1_555
O5A Ca1 1_555 1_555
O12A Ca1 1_555 1_555
O6A Ca2 1_555 1_555
O11A Ca2 1_555 1_555
Ca1A O5 1_555 1_555
Ca2A O6 1_555 1_555
C6 O3 1_555 1_555
O11 Ca2A 1_555 1_555
O12 Ca1A 1_555 1_555

#END
