
#######################################################################
#
#                 Cambridge Crystallographic Data Centre
#                                CCDC 
#
#######################################################################
#
# If this CIF has been generated from an entry in the Cambridge 
# Structural Database, then it will include bibliographic, chemical, 
# crystal, experimental, refinement or atomic coordinate data resulting 
# from the CCDC's data processing and validation procedures.
#
#######################################################################

data_SETCUQ01
_symmetry_cell_setting           monoclinic
_symmetry_space_group_name_H-M   'P 21/n'
_symmetry_Int_Tables_number      14
_space_group_name_Hall           '-P 2yn'
loop_
_symmetry_equiv_pos_site_id
_symmetry_equiv_pos_as_xyz
1 x,y,z
2 1/2-x,1/2+y,1/2-z
3 -x,-y,-z
4 1/2+x,1/2-y,1/2+z
_cell_length_a                   6.1015(12)
_cell_length_b                   20.065(4)
_cell_length_c                   6.2962(13)
_cell_angle_alpha                90
_cell_angle_beta                 108.14(3)
_cell_angle_gamma                90
_cell_volume                     732.511
loop_
_atom_site_label
_atom_site_type_symbol
_atom_site_fract_x
_atom_site_fract_y
_atom_site_fract_z
Ag1 Ag 0.82659(8) 0.02290(3) -0.28679(7)
C1 C 0.5225(9) 0.0865(3) 0.0312(9)
C2 C 0.3427(10) 0.1242(3) -0.1369(9)
C3 C 0.1433(10) 0.1431(3) -0.0877(11)
H1 H 0.1212 0.1299 0.0491
C4 C -0.0216(11) 0.1812(3) -0.2400(12)
H2 H -0.1556 0.1946 -0.2049
C5 C 0.0042(11) 0.2002(3) -0.4435(12)
H3 H -0.1102 0.2265 -0.5461
C6 C 0.1991(12) 0.1803(3) -0.4934(11)
H4 H 0.2182 0.1926 -0.6322
C7 C 0.3672(11) 0.1423(3) -0.3428(10)
H5 H 0.4997 0.1285 -0.3799
N1 N 0.7105(8) 0.0583(2) 0.0023(7)
N2 N 0.8271(8) 0.0330(2) 0.2036(8)
N3 N 0.7135(8) 0.0453(3) 0.3450(8)
N4 N 0.5180(8) 0.0791(3) 0.2415(8)
Ag1_2 Ag 0.82659(8) 0.02290(3) 0.71321(7)
Ag1B Ag 1.17341(8) -0.02290(3) 0.28679(7)
N2B N 1.1729(8) -0.0330(2) -0.2036(8)
N3_2 N 0.7135(8) 0.0453(3) -0.6550(8)
loop_
_geom_bond_atom_site_label_1
_geom_bond_atom_site_label_2
_geom_bond_site_symmetry_1
_geom_bond_site_symmetry_2
Ag1 N1 1_555 1_555
C1 C2 1_555 1_555
C2 C3 1_555 1_555
C3 H1 1_555 1_555
C4 C3 1_555 1_555
H2 C4 1_555 1_555
C5 C4 1_555 1_555
H3 C5 1_555 1_555
C6 C5 1_555 1_555
H4 C6 1_555 1_555
C7 C2 1_555 1_555
H5 C7 1_555 1_555
N1 C1 1_555 1_555
N2 N1 1_555 1_555
N3 N2 1_555 1_555
N4 C1 1_555 1_555
Ag1_2 N3 1_555 1_555
Ag1B N2 1_555 1_555
N2B Ag1 1_555 1_555
N3_2 Ag1 1_555 1_555
C6 C7 1_555 1_555
N3 N4 1_555 1_555

#END
