
#######################################################################
#
#                 Cambridge Crystallographic Data Centre
#                                CCDC 
#
#######################################################################
#
# If this CIF has been generated from an entry in the Cambridge 
# Structural Database, then it will include bibliographic, chemical, 
# crystal, experimental, refinement or atomic coordinate data resulting 
# from the CCDC's data processing and validation procedures.
#
#######################################################################

data_SETFII
_symmetry_cell_setting           triclinic
_symmetry_space_group_name_H-M   'P -1'
_symmetry_Int_Tables_number      2
_space_group_name_Hall           '-P 1'
loop_
_symmetry_equiv_pos_site_id
_symmetry_equiv_pos_as_xyz
1 x,y,z
2 -x,-y,-z
_cell_length_a                   12.3141(2)
_cell_length_b                   12.6252(2)
_cell_length_c                   13.9290(3)
_cell_angle_alpha                79.5330(10)
_cell_angle_beta                 82.7510(10)
_cell_angle_gamma                85.5610(10)
_cell_volume                     2109.16
loop_
_atom_site_label
_atom_site_type_symbol
_atom_site_fract_x
_atom_site_fract_y
_atom_site_fract_z
Mn1 Mn 0.21090(6) 0.21590(4) 0.22188(4)
K1 K 0.27610(8) 0.41902(6) 0.35936(6)
O1 O 0.1065(2) 0.30098(18) 0.32495(17)
O2 O -0.0312(2) 0.3583(2) 0.42504(18)
O3 O 0.0928(2) 0.09748(18) 0.28089(18)
O4 O -0.0279(3) -0.28677(19) 0.32562(19)
O5 O -0.1729(2) -0.30546(19) 0.44925(18)
O6 O 0.3360(3) 0.19636(19) 0.32396(17)
O7 O 0.5100(2) 0.2183(2) 0.3408(2)
O8 O 0.3113(2) 0.0851(2) 0.17192(18)
O9 O 0.3920(2) -0.2283(2) -0.0184(2)
O10 O 0.5722(3) -0.2905(2) -0.0016(2)
O11 O 0.2833(2) 0.36678(19) 0.17225(16)
O12 O 0.3457(2) 0.5151(2) 0.07886(18)
O13 O 0.1365(2) 0.26023(18) 0.08816(18)
O14 O -0.1573(2) 0.23164(19) -0.13449(18)
O15 O -0.1698(2) 0.39577(19) -0.24020(18)
N1 N -0.1718(3) 0.0682(2) 0.4924(2)
N2 N 0.6301(3) -0.0276(3) 0.1985(2)
N3 N 0.1297(3) 0.5388(2) -0.1179(2)
C1 C 0.0171(3) 0.2865(3) 0.3818(3)
C2 C -0.0320(3) 0.1788(3) 0.3966(2)
C3 C 0.0107(3) 0.0928(3) 0.3454(2)
C4 C -0.0453(3) -0.0073(3) 0.3726(2)
C5 C -0.0040(4) -0.0961(3) 0.3265(3)
C6 C -0.0538(3) -0.1902(3) 0.3577(2)
C7 C -0.0956(4) -0.3632(3) 0.3881(3)
C8 C -0.1399(3) -0.2016(3) 0.4320(2)
C9 C -0.1845(4) -0.1197(3) 0.4775(3)
C10 C -0.1339(3) -0.0199(3) 0.4472(2)
C11 C -0.1200(3) 0.1607(3) 0.4657(3)
C12 C -0.2679(4) 0.0614(3) 0.5685(3)
C13 C -0.3741(4) 0.0657(3) 0.5242(3)
H1 H -0.4358 0.0645 0.5762
H2 H -0.3752 0.0032 0.4918
H3 H -0.3804 0.1322 0.4760
C14 C 0.4384(4) 0.1756(3) 0.3070(3)
C15 C 0.4764(3) 0.0915(3) 0.2438(2)
C16 C 0.4079(4) 0.0498(3) 0.1859(2)
C17 C 0.4562(3) -0.0403(3) 0.1392(2)
C18 C 0.3903(4) -0.0885(3) 0.0839(3)
C19 C 0.4374(4) -0.1706(3) 0.0394(3)
C20 C 0.4788(4) -0.3040(3) -0.0483(3)
C21 C 0.5448(4) -0.2076(3) 0.0480(3)
C22 C 0.6119(5) -0.1647(3) 0.0997(3)
C23 C 0.5663(4) -0.0776(3) 0.1461(3)
C24 C 0.5822(4) 0.0531(3) 0.2444(3)
C25 C 0.7478(4) -0.0576(4) 0.2024(4)
C26 C 0.8186(4) -0.0139(4) 0.1088(4)
H4 H 0.8960 -0.0297 0.1183
H5 H 0.8041 0.0643 0.0924
H6 H 0.8014 -0.0480 0.0551
C27 C 0.2838(3) 0.4383(3) 0.0959(2)
C28 C 0.2072(3) 0.4341(3) 0.0220(2)
C29 C 0.1375(3) 0.3471(3) 0.0245(3)
C30 C 0.0637(3) 0.3626(3) -0.0504(2)
C31 C -0.0096(3) 0.2802(3) -0.0511(3)
C32 C -0.0823(3) 0.2983(3) -0.1178(2)
C33 C -0.2185(5) 0.2927(3) -0.2093(4)
C34 C -0.0893(3) 0.3959(3) -0.1831(3)
C35 C -0.0206(3) 0.4768(3) -0.1870(3)
C36 C 0.0573(3) 0.4594(3) -0.1188(2)
C37 C 0.1991(4) 0.5242(3) -0.0495(3)
C38 C 0.1246(4) 0.6409(3) -0.1907(3)
C39 C 0.2122(4) 0.7175(3) -0.1895(3)
H7 H 0.2025 0.7820 -0.2395
H8 H 0.2846 0.6820 -0.2037
H9 H 0.2064 0.7384 -0.1246
O16 O 0.4335(3) 0.5493(2) 0.2364(2)
C40 C 0.5435(5) 0.5143(4) 0.2308(4)
H10 H 0.5764 0.5288 0.1623
H11 H 0.5500 0.4366 0.2558
H12 H 0.5817 0.5527 0.2705
O17 O 0.4344(3) 0.3390(3) 0.4807(3)
C41 C 0.4317(5) 0.2835(4) 0.5791(4)
H13 H 0.5057 0.2771 0.5993
H14 H 0.4052 0.2113 0.5836
H15 H 0.3824 0.3237 0.6223
O18 O 0.2214(3) 0.5775(3) 0.4760(3)
C42 C 0.3033(5) 0.5838(4) 0.5350(5)
H16 H 0.3123 0.6595 0.5378
H17 H 0.3725 0.5516 0.5072
H18 H 0.2827 0.5445 0.6015
H19 H 0.402(5) 0.535(4) 0.181(4)
H20 H 0.462(4) 0.298(4) 0.440(4)
H21 H 0.160(5) 0.595(4) 0.502(4)
H22 H 0.052(3) -0.084(3) 0.277(3)
H23 H -0.243(3) -0.132(3) 0.531(3)
H24 H -0.052(3) -0.410(3) 0.430(3)
H25 H -0.135(3) -0.394(3) 0.347(3)
H26 H -0.145(3) 0.212(3) 0.501(2)
H27 H -0.256(3) -0.008(3) 0.620(2)
H28 H -0.264(3) 0.125(3) 0.603(3)
H29 H 0.318(3) -0.061(3) 0.081(2)
H30 H 0.679(4) -0.190(3) 0.103(3)
H31 H 0.627(3) 0.075(3) 0.277(2)
H32 H 0.495(3) -0.285(3) -0.124(3)
H33 H 0.448(3) -0.375(3) -0.027(3)
H34 H 0.768(4) -0.028(3) 0.261(3)
H35 H 0.760(3) -0.131(3) 0.218(3)
H36 H -0.002(3) 0.214(3) -0.007(3)
H37 H -0.203(3) 0.261(3) -0.263(3)
H38 H -0.293(4) 0.308(3) -0.182(3)
H39 H -0.027(3) 0.542(3) -0.231(3)
H40 H 0.248(3) 0.582(3) -0.053(2)
H41 H 0.131(3) 0.617(3) -0.253(3)
H42 H 0.058(3) 0.674(3) -0.177(3)
K1A K -0.27610(8) -0.41902(6) 0.64064(6)
K1A_2 K -0.27610(8) 0.58098(6) -0.35936(6)
O5A O 0.1729(2) 0.30546(19) 0.55075(18)
O15A O 0.1698(2) 0.60423(19) 0.24020(18)
loop_
_geom_bond_atom_site_label_1
_geom_bond_atom_site_label_2
_geom_bond_site_symmetry_1
_geom_bond_site_symmetry_2
Mn1 O1 1_555 1_555
K1 O1 1_555 1_555
O1 C1 1_555 1_555
O2 C1 1_555 1_555
O3 Mn1 1_555 1_555
O4 C6 1_555 1_555
O5 C7 1_555 1_555
O6 Mn1 1_555 1_555
O7 C14 1_555 1_555
O8 Mn1 1_555 1_555
O9 C19 1_555 1_555
O10 C20 1_555 1_555
O11 Mn1 1_555 1_555
O12 C27 1_555 1_555
O13 Mn1 1_555 1_555
O14 C32 1_555 1_555
O15 C33 1_555 1_555
N1 C10 1_555 1_555
N2 C23 1_555 1_555
N3 C36 1_555 1_555
C1 C2 1_555 1_555
C2 C3 1_555 1_555
C3 O3 1_555 1_555
C4 C3 1_555 1_555
C5 C4 1_555 1_555
C6 C5 1_555 1_555
C7 O4 1_555 1_555
C8 O5 1_555 1_555
C9 C8 1_555 1_555
C10 C4 1_555 1_555
C11 N1 1_555 1_555
C12 N1 1_555 1_555
C13 C12 1_555 1_555
H1 C13 1_555 1_555
H2 C13 1_555 1_555
H3 C13 1_555 1_555
C14 O6 1_555 1_555
C15 C14 1_555 1_555
C16 O8 1_555 1_555
C17 C16 1_555 1_555
C18 C17 1_555 1_555
C19 C18 1_555 1_555
C20 O9 1_555 1_555
C21 O10 1_555 1_555
C22 C21 1_555 1_555
C23 C17 1_555 1_555
C24 N2 1_555 1_555
C25 N2 1_555 1_555
C26 C25 1_555 1_555
H4 C26 1_555 1_555
H5 C26 1_555 1_555
H6 C26 1_555 1_555
C27 O11 1_555 1_555
C28 C27 1_555 1_555
C29 O13 1_555 1_555
C30 C29 1_555 1_555
C31 C30 1_555 1_555
C32 C31 1_555 1_555
C33 O14 1_555 1_555
C34 O15 1_555 1_555
C35 C34 1_555 1_555
C36 C30 1_555 1_555
C37 N3 1_555 1_555
C38 N3 1_555 1_555
C39 C38 1_555 1_555
H7 C39 1_555 1_555
H8 C39 1_555 1_555
H9 C39 1_555 1_555
O16 K1 1_555 1_555
C40 O16 1_555 1_555
H10 C40 1_555 1_555
H11 C40 1_555 1_555
H12 C40 1_555 1_555
O17 K1 1_555 1_555
C41 O17 1_555 1_555
H13 C41 1_555 1_555
H14 C41 1_555 1_555
H15 C41 1_555 1_555
O18 K1 1_555 1_555
C42 O18 1_555 1_555
H16 C42 1_555 1_555
H17 C42 1_555 1_555
H18 C42 1_555 1_555
H19 O16 1_555 1_555
H20 O17 1_555 1_555
H21 O18 1_555 1_555
H22 C5 1_555 1_555
H23 C9 1_555 1_555
H24 C7 1_555 1_555
H25 C7 1_555 1_555
H26 C11 1_555 1_555
H27 C12 1_555 1_555
H28 C12 1_555 1_555
H29 C18 1_555 1_555
H30 C22 1_555 1_555
H31 C24 1_555 1_555
H32 C20 1_555 1_555
H33 C20 1_555 1_555
H34 C25 1_555 1_555
H35 C25 1_555 1_555
H36 C31 1_555 1_555
H37 C33 1_555 1_555
H38 C33 1_555 1_555
H39 C35 1_555 1_555
H40 C37 1_555 1_555
H41 C38 1_555 1_555
H42 C38 1_555 1_555
K1A O5 1_555 1_555
K1A_2 O15 1_555 1_555
O5A K1 1_555 1_555
O15A K1 1_555 1_555
K1 O6 1_555 1_555
K1 O11 1_555 1_555
C2 C11 1_555 1_555
C6 C8 1_555 1_555
C9 C10 1_555 1_555
C15 C16 1_555 1_555
C15 C24 1_555 1_555
C19 C21 1_555 1_555
C22 C23 1_555 1_555
C28 C29 1_555 1_555
C28 C37 1_555 1_555
C32 C34 1_555 1_555
C35 C36 1_555 1_555

#END
