
#######################################################################
#
#                 Cambridge Crystallographic Data Centre
#                                CCDC 
#
#######################################################################
#
# If this CIF has been generated from an entry in the Cambridge 
# Structural Database, then it will include bibliographic, chemical, 
# crystal, experimental, refinement or atomic coordinate data resulting 
# from the CCDC's data processing and validation procedures.
#
#######################################################################

data_SETFAZ
_symmetry_cell_setting           monoclinic
_symmetry_space_group_name_H-M   'P 21/c'
_symmetry_Int_Tables_number      14
_space_group_name_Hall           '-P 2ybc'
loop_
_symmetry_equiv_pos_site_id
_symmetry_equiv_pos_as_xyz
1 x,y,z
2 -x,1/2+y,1/2-z
3 -x,-y,-z
4 x,1/2-y,1/2+z
_cell_length_a                   8.6818(17)
_cell_length_b                   7.8022(16)
_cell_length_c                   30.968(6)
_cell_angle_alpha                90
_cell_angle_beta                 95.27(3)
_cell_angle_gamma                90
_cell_volume                     2088.82
loop_
_atom_site_label
_atom_site_type_symbol
_atom_site_fract_x
_atom_site_fract_y
_atom_site_fract_z
C1 C 0.1687(5) 0.2986(6) 0.73657(15)
C2 C 0.1010(5) 0.4481(6) 0.71048(15)
H1 H -0.0087 0.4545 0.7140
H2 H 0.1119 0.4266 0.6801
C3 C 0.1738(6) 0.6196(6) 0.72261(15)
H3 H 0.1130 0.7095 0.7076
H4 H 0.1706 0.6376 0.7535
C4 C 0.3369(5) 0.6341(5) 0.71182(13)
C5 C 0.2173(6) -0.0034(6) 0.87933(15)
H5 H 0.2058 -0.0934 0.8596
C6 C 0.1530(7) -0.0185(7) 0.91811(17)
H6 H 0.0989 -0.1169 0.9244
C7 C 0.1703(7) 0.1159(7) 0.94796(16)
H7 H 0.1284 0.1075 0.9745
C8 C 0.2501(6) 0.2615(6) 0.93777(14)
C9 C 0.3133(5) 0.2650(5) 0.89771(13)
C10 C 0.4001(5) 0.4130(5) 0.88498(12)
C11 C 0.5328(6) 0.5404(6) 0.83269(14)
H8 H 0.5693 0.5377 0.8054
C12 C 0.5603(7) 0.6857(6) 0.85834(16)
H9 H 0.6159 0.7774 0.8485
C13 C 0.5053(7) 0.6921(6) 0.89786(16)
H10 H 0.5229 0.7886 0.9152
C14 C 0.4228(6) 0.5550(6) 0.91247(13)
C15 C 0.3547(6) 0.5556(6) 0.95388(13)
C16 C 0.2701(6) 0.4100(7) 0.96631(13)
C17 C 0.2216(7) 0.5495(8) 1.02874(15)
C18 C 0.3077(7) 0.6920(7) 1.01627(15)
C19 C 0.3243(8) 0.8376(8) 1.04357(17)
H11 H 0.3806 0.9318 1.0354
C20 C 0.2579(9) 0.8397(11) 1.0818(2)
H12 H 0.2681 0.9356 1.0997
C21 C 0.1750(9) 0.6984(12) 1.09397(18)
H13 H 0.1315 0.7017 1.1203
C22 C 0.1544(8) 0.5541(10) 1.06890(16)
H14 H 0.0980 0.4615 1.0779
N1 N 0.4560(4) 0.4050(4) 0.84584(11)
N2 N 0.2953(5) 0.1355(5) 0.86886(12)
N3 N 0.2040(5) 0.4069(6) 1.00327(12)
N4 N 0.3752(5) 0.6932(5) 0.97869(12)
O1 O 0.2278(4) 0.3294(4) 0.77472(10)
O2 O 0.1612(4) 0.1528(4) 0.71977(11)
O3 O 0.3003(4) -0.0376(4) 0.78083(10)
O4 O 0.3794(4) 0.5638(4) 0.67832(9)
O6 O 0.4358(4) 0.7225(4) 0.73540(10)
Co1 Co 0.39350(7) 0.18197(7) 0.809548(17)
H17 H 0.230(5) 0.002(6) 0.7585(13)
H18 H 0.349(6) -0.125(5) 0.7674(15)
O4A O 0.6206(4) 0.0638(4) 0.82168(9)
O6A O 0.5642(4) 0.2225(4) 0.76460(10)
Co1A Co 0.60650(7) 0.68197(7) 0.690452(17)
O5 O -0.0779(8) 0.0431(9) 0.65845(14)
H15 H 0.006(7) 0.077(13) 0.677(2)
H16 H -0.139(9) -0.017(12) 0.676(2)
loop_
_geom_bond_atom_site_label_1
_geom_bond_atom_site_label_2
_geom_bond_site_symmetry_1
_geom_bond_site_symmetry_2
C1 C2 1_555 1_555
C2 H1 1_555 1_555
H2 C2 1_555 1_555
C3 C2 1_555 1_555
H3 C3 1_555 1_555
H4 C3 1_555 1_555
C4 C3 1_555 1_555
C5 H5 1_555 1_555
C6 C5 1_555 1_555
H6 C6 1_555 1_555
C7 C6 1_555 1_555
H7 C7 1_555 1_555
C8 C7 1_555 1_555
C9 C8 1_555 1_555
C10 C9 1_555 1_555
C11 H8 1_555 1_555
C12 C11 1_555 1_555
H9 C12 1_555 1_555
C13 C12 1_555 1_555
H10 C13 1_555 1_555
C14 C10 1_555 1_555
C15 C14 1_555 1_555
C16 C8 1_555 1_555
C17 C18 1_555 1_555
C18 C19 1_555 1_555
C19 H11 1_555 1_555
C20 C19 1_555 1_555
H12 C20 1_555 1_555
C21 C20 1_555 1_555
H13 C21 1_555 1_555
C22 C17 1_555 1_555
H14 C22 1_555 1_555
N1 C10 1_555 1_555
N2 C5 1_555 1_555
N3 C16 1_555 1_555
N4 C15 1_555 1_555
O1 C1 1_555 1_555
O2 C1 1_555 1_555
O3 Co1 1_555 1_555
O4 C4 1_555 1_555
O5 H15 1_555 1_555
H16 O5 1_555 1_555
O6 C4 1_555 1_555
Co1 N1 1_555 1_555
H17 O3 1_555 1_555
H18 O3 1_555 1_555
O4A Co1 1_555 1_555
O6A Co1 1_555 1_555
Co1A O4 1_555 1_555
C9 N2 1_555 1_555
C11 N1 1_555 1_555
C13 C14 1_555 1_555
C15 C16 1_555 1_555
C17 N3 1_555 1_555
C18 N4 1_555 1_555
C21 C22 1_555 1_555
N2 Co1 1_555 1_555
O1 Co1 1_555 1_555
O6 Co1A 1_555 1_555

#END
