
#######################################################################
#
#                 Cambridge Crystallographic Data Centre
#                                CCDC 
#
#######################################################################
#
# If this CIF has been generated from an entry in the Cambridge 
# Structural Database, then it will include bibliographic, chemical, 
# crystal, experimental, refinement or atomic coordinate data resulting 
# from the CCDC's data processing and validation procedures.
#
#######################################################################

data_SETFUT
_symmetry_cell_setting           orthorhombic
_symmetry_space_group_name_H-M   'P 21 21 21'
_symmetry_Int_Tables_number      19
_space_group_name_Hall           'P 2ac 2ab'
loop_
_symmetry_equiv_pos_site_id
_symmetry_equiv_pos_as_xyz
1 x,y,z
2 1/2-x,-y,1/2+z
3 -x,1/2+y,1/2-z
4 1/2+x,1/2-y,-z
_cell_length_a                   6.8711(14)
_cell_length_b                   14.010(3)
_cell_length_c                   14.915(3)
_cell_angle_alpha                90
_cell_angle_beta                 90
_cell_angle_gamma                90
_cell_volume                     1435.78
loop_
_atom_site_label
_atom_site_type_symbol
_atom_site_fract_x
_atom_site_fract_y
_atom_site_fract_z
C1 C 0.1232(6) -0.1346(2) 0.1350(2)
C2 C 0.1289(5) -0.0677(2) 0.2147(2)
C3 C 0.1382(5) -0.0997(2) 0.3061(2)
C4 C 0.1443(6) -0.1984(3) 0.3302(2)
H1 H 0.1481 -0.2446 0.2855
C5 C 0.1448(7) -0.2259(3) 0.4187(3)
H2 H 0.1489 -0.2905 0.4331
C6 C 0.1390(7) -0.1579(3) 0.4875(2)
H3 H 0.1379 -0.1777 0.5470
C7 C 0.1350(6) -0.0633(2) 0.4678(2)
H4 H 0.1334 -0.0189 0.5141
C8 C 0.1331(5) -0.0308(2) 0.3769(2)
C9 C 0.1350(6) 0.0683(2) 0.3554(2)
C10 C 0.1271(6) 0.1454(2) 0.4255(2)
C11 C 0.1370(6) 0.0965(2) 0.2671(2)
H5 H 0.1451 0.1611 0.2533
C12 C 0.1267(6) 0.0289(2) 0.1974(2)
H6 H 0.1184 0.0499 0.1384
C13 C 0.3690(7) -0.4939(3) 0.1593(3)
C14 C 0.3652(8) -0.5614(4) 0.0788(3)
H7 H 0.3584 -0.6262 0.0995
H8 H 0.4813 -0.5527 0.0439
H9 H 0.2534 -0.5476 0.0424
C15 C 0.3585(8) -0.6341(3) 0.2587(4)
H10 H 0.3535 -0.6423 0.3226
H11 H 0.4738 -0.6641 0.2356
H12 H 0.2457 -0.6629 0.2320
C16 C 0.3687(8) -0.4680(4) 0.3172(3)
H13 H 0.3628 -0.5045 0.3717
H14 H 0.2598 -0.4252 0.3147
H15 H 0.4875 -0.4320 0.3158
N1 N 0.3622(6) -0.5346(3) 0.2379(3)
O1 O 0.3777(5) -0.4076(2) 0.14796(19)
O2 O 0.2231(4) -0.2091(2) 0.13878(16)
O3 O 0.0165(4) -0.10789(19) 0.07050(16)
O4 O -0.0056(4) 0.14516(19) 0.48339(17)
O5 O 0.2538(4) 0.21140(18) 0.42118(16)
Cd1 Cd 0.39104(4) -0.299776(18) 0.039401(15)
O3C O 0.5165(4) -0.39211(19) -0.07050(16)
O4A O 0.5056(4) -0.14516(19) -0.01661(17)
O5A O 0.2462(4) -0.21140(18) -0.07882(16)
O5B O 0.7462(4) -0.28860(18) 0.07882(16)
Cd1C Cd -0.10896(4) -0.200224(18) -0.039401(15)
Cd1A Cd 0.10896(4) 0.299776(18) 0.539401(15)
Cd1B Cd 0.60896(4) 0.200224(18) 0.460599(15)
loop_
_geom_bond_atom_site_label_1
_geom_bond_atom_site_label_2
_geom_bond_site_symmetry_1
_geom_bond_site_symmetry_2
C1 C2 1_555 1_555
C2 C3 1_555 1_555
C3 C4 1_555 1_555
C4 H1 1_555 1_555
C5 C4 1_555 1_555
H2 C5 1_555 1_555
C6 C5 1_555 1_555
H3 C6 1_555 1_555
C7 C6 1_555 1_555
H4 C7 1_555 1_555
C8 C3 1_555 1_555
C9 C8 1_555 1_555
C10 C9 1_555 1_555
C11 C9 1_555 1_555
H5 C11 1_555 1_555
C12 C2 1_555 1_555
H6 C12 1_555 1_555
C13 C14 1_555 1_555
C14 H7 1_555 1_555
H8 C14 1_555 1_555
H9 C14 1_555 1_555
C15 H10 1_555 1_555
H11 C15 1_555 1_555
H12 C15 1_555 1_555
C16 H13 1_555 1_555
H14 C16 1_555 1_555
H15 C16 1_555 1_555
N1 C13 1_555 1_555
O1 C13 1_555 1_555
O2 C1 1_555 1_555
O3 C1 1_555 1_555
O4 C10 1_555 1_555
O5 C10 1_555 1_555
Cd1 O1 1_555 1_555
O3C Cd1 1_555 1_555
O4A Cd1 1_555 1_555
O5A Cd1 1_555 1_555
O5B Cd1 1_555 1_555
Cd1C O3 1_555 1_555
Cd1A O4 1_555 1_555
Cd1B O5 1_555 1_555
C7 C8 1_555 1_555
C11 C12 1_555 1_555
C15 N1 1_555 1_555
C16 N1 1_555 1_555
O2 Cd1 1_555 1_555
O5 Cd1A 1_555 1_555
O5A Cd1C 1_555 1_555

#END
