
#######################################################################
#
#                 Cambridge Crystallographic Data Centre
#                                CCDC 
#
#######################################################################
#
# If this CIF has been generated from an entry in the Cambridge 
# Structural Database, then it will include bibliographic, chemical, 
# crystal, experimental, refinement or atomic coordinate data resulting 
# from the CCDC's data processing and validation procedures.
#
#######################################################################

data_SETKIM
_symmetry_cell_setting           monoclinic
_symmetry_space_group_name_H-M   'P 21/n'
_symmetry_Int_Tables_number      14
_space_group_name_Hall           '-P 2yn'
loop_
_symmetry_equiv_pos_site_id
_symmetry_equiv_pos_as_xyz
1 x,y,z
2 1/2-x,1/2+y,1/2-z
3 -x,-y,-z
4 1/2+x,1/2-y,1/2+z
_cell_length_a                   7.7362(14)
_cell_length_b                   10.8978(19)
_cell_length_c                   21.528(4)
_cell_angle_alpha                90
_cell_angle_beta                 96.732(4)
_cell_angle_gamma                90
_cell_volume                     1802.46
loop_
_atom_site_label
_atom_site_type_symbol
_atom_site_fract_x
_atom_site_fract_y
_atom_site_fract_z
Zn1 Zn 0.41310(6) -0.52904(4) 0.221110(19)
N1 N 0.3508(4) -0.5822(3) 0.12386(14)
C1 C 0.3853(6) -0.6965(4) 0.10692(19)
H1 H 0.4270 -0.7524 0.1377
C2 C 0.3617(7) -0.7347(4) 0.04608(19)
H2 H 0.3866 -0.8152 0.0359
C3 C 0.3009(6) -0.6527(4) 0.00009(18)
H3 H 0.2852 -0.6768 -0.0416
C4 C 0.2631(5) -0.5334(3) 0.01677(17)
C5 C 0.2895(5) -0.5027(3) 0.07975(17)
H4 H 0.2634 -0.4234 0.0916
N2 N 0.1933(5) -0.4550(3) -0.03140(14)
H5 H 0.1535 -0.4897 -0.0660
C6 C 0.1813(6) -0.3310(4) -0.02981(17)
O1 O 0.2250(5) -0.2697(3) 0.01713(12)
N3 N 0.1146(5) -0.2812(3) -0.08578(14)
H6 H 0.0852 -0.3319 -0.1158
C7 C 0.0890(5) -0.1560(3) -0.09959(17)
C8 C 0.0268(5) -0.1263(3) -0.16043(17)
H7 H 0.0075 -0.1901 -0.1891
N4 N -0.0073(4) -0.0129(3) -0.18087(14)
C9 C 0.0232(6) 0.0786(4) -0.13933(18)
H8 H 0.0017 0.1590 -0.1525
C10 C 0.0850(7) 0.0572(4) -0.07821(19)
H9 H 0.1028 0.1228 -0.0505
C11 C 0.1213(6) -0.0600(4) -0.05715(19)
H10 H 0.1660 -0.0748 -0.0158
O2 O 0.1813(3) -0.4201(2) 0.21887(12)
S1 S -0.00631(12) -0.44424(8) 0.19932(4)
O3 O -0.0375(3) -0.5776(2) 0.20275(13)
O4 O -0.1079(3) -0.3807(2) 0.24257(13)
O5 O -0.0549(4) -0.4013(3) 0.13569(12)
O6 O 0.5448(4) -0.3718(3) 0.19838(15)
H11 H 0.6483 -0.3783 0.2114
O7 O 0.6340(4) -0.6418(3) 0.22611(15)
H12 H 0.7152 -0.6033 0.2143
O8 O 0.2696(4) -0.6774(3) 0.24952(15)
H13 H 0.1653 -0.6622 0.2423
H18 H 0.521(6) -0.324(4) 0.1716(19)
H19 H 0.637(5) -0.712(4) 0.2366(17)
H20 H 0.284(6) -0.742(4) 0.257(2)
Zn1C Zn -0.08690(6) 0.02904(4) -0.278890(19)
N4C N 0.4927(4) -0.4871(3) 0.31913(14)
C12 C 0.4672(9) -0.0747(6) 0.1218(3)
H14 H 0.3547 -0.0566 0.1341
H15 H 0.4832 -0.0291 0.0847
H16 H 0.5558 -0.0523 0.1548
O9 O 0.4787(6) -0.2007(3) 0.10946(17)
H17 H 0.3937 -0.2222 0.0856
loop_
_geom_bond_atom_site_label_1
_geom_bond_atom_site_label_2
_geom_bond_site_symmetry_1
_geom_bond_site_symmetry_2
Zn1 N1 1_555 1_555
N1 C1 1_555 1_555
C1 H1 1_555 1_555
C2 C1 1_555 1_555
H2 C2 1_555 1_555
C3 C2 1_555 1_555
H3 C3 1_555 1_555
C4 C3 1_555 1_555
C5 N1 1_555 1_555
H4 C5 1_555 1_555
N2 C4 1_555 1_555
H5 N2 1_555 1_555
C6 N2 1_555 1_555
O1 C6 1_555 1_555
N3 C6 1_555 1_555
H6 N3 1_555 1_555
C7 N3 1_555 1_555
C8 C7 1_555 1_555
H7 C8 1_555 1_555
N4 C8 1_555 1_555
C9 N4 1_555 1_555
H8 C9 1_555 1_555
C10 C9 1_555 1_555
H9 C10 1_555 1_555
C11 C7 1_555 1_555
H10 C11 1_555 1_555
O2 Zn1 1_555 1_555
S1 O2 1_555 1_555
O3 S1 1_555 1_555
O4 S1 1_555 1_555
O5 S1 1_555 1_555
O6 Zn1 1_555 1_555
H11 O6 1_555 1_555
O7 Zn1 1_555 1_555
H12 O7 1_555 1_555
O8 Zn1 1_555 1_555
H13 O8 1_555 1_555
C12 H14 1_555 1_555
H15 C12 1_555 1_555
H16 C12 1_555 1_555
O9 C12 1_555 1_555
H17 O9 1_555 1_555
H18 O6 1_555 1_555
H19 O7 1_555 1_555
H20 O8 1_555 1_555
Zn1C N4 1_555 1_555
N4C Zn1 1_555 1_555
C4 C5 1_555 1_555
C10 C11 1_555 1_555

#END
