
#######################################################################
#
#                 Cambridge Crystallographic Data Centre
#                                CCDC 
#
#######################################################################
#
# If this CIF has been generated from an entry in the Cambridge 
# Structural Database, then it will include bibliographic, chemical, 
# crystal, experimental, refinement or atomic coordinate data resulting 
# from the CCDC's data processing and validation procedures.
#
#######################################################################

data_SETLUA
_symmetry_cell_setting           monoclinic
_symmetry_space_group_name_H-M   'P 21/c'
_symmetry_Int_Tables_number      14
_space_group_name_Hall           '-P 2ybc'
loop_
_symmetry_equiv_pos_site_id
_symmetry_equiv_pos_as_xyz
1 x,y,z
2 -x,1/2+y,1/2-z
3 -x,-y,-z
4 x,1/2-y,1/2+z
_cell_length_a                   10.2230(5)
_cell_length_b                   8.4175(4)
_cell_length_c                   15.6710(8)
_cell_angle_alpha                90
_cell_angle_beta                 107.6236(15)
_cell_angle_gamma                90
_cell_volume                     1285.23
loop_
_atom_site_label
_atom_site_type_symbol
_atom_site_fract_x
_atom_site_fract_y
_atom_site_fract_z
I1 I 0.991798(15) 0.801872(18) 1.092020(10)
Cu1 Cu 0.5000 1.0000 1.0000
Cu2 Cu 0.87441(3) 1.05606(3) 1.00849(2)
S1 S 0.65224(6) 0.98680(6) 0.91568(4)
S2 S 0.53441(6) 0.73398(7) 0.99298(4)
N1 N 0.7052(2) 0.6769(2) 0.89587(14)
N2 N 0.8456(2) 1.2264(2) 1.08970(15)
C1 C 0.6408(2) 0.7818(2) 0.92976(16)
C2 C 0.6948(2) 0.5044(2) 0.90770(17)
C3 C 0.6292(2) 0.4261(2) 0.81738(17)
C4 C 0.7066(2) 0.4671(2) 0.75082(17)
C5 C 0.7231(2) 0.6472(3) 0.74491(17)
C6 C 0.7892(2) 0.7183(2) 0.83735(17)
C7 C 0.8166(2) 1.3278(2) 1.12845(17)
C8 C 0.7788(3) 1.4581(3) 1.17738(18)
H1 H 0.6386 0.4830 0.9480
H2 H 0.7874 0.4593 0.9355
H3 H 0.5328 0.4620 0.7932
H4 H 0.6288 0.3095 0.8252
H5 H 0.6557 0.4249 0.6910
H6 H 0.7982 0.4163 0.7700
H7 H 0.7809 0.6707 0.7059
H8 H 0.6320 0.6964 0.7178
H9 H 0.8833 0.6759 0.8629
H10 H 0.7952 0.8352 0.8327
H11 H 0.8535 1.5360 1.1939
H12 H 0.7622 1.4168 1.2317
H13 H 0.6952 1.5092 1.1395
I1B I 0.008202(15) 1.198128(18) 0.907980(10)
Cu2B Cu 0.12559(3) 0.94394(3) 0.99151(2)
S1B S 0.34776(6) 1.01320(6) 1.08432(4)
S2B S 0.46559(6) 1.26602(7) 1.00702(4)
N1B N 0.2948(2) 1.3231(2) 1.10413(14)
N2B N 0.1544(2) 0.7736(2) 0.91030(15)
C1B C 0.3592(2) 1.2182(2) 1.07024(16)
C2B C 0.3052(2) 1.4956(2) 1.09230(17)
C3B C 0.3708(2) 1.5739(2) 1.18262(17)
C4B C 0.2934(2) 1.5329(2) 1.24918(17)
C5B C 0.2769(2) 1.3528(3) 1.25509(17)
C6B C 0.2108(2) 1.2817(2) 1.16265(17)
C7B C 0.1834(2) 0.6722(2) 0.87155(17)
C8B C 0.2212(3) 0.5419(3) 0.82262(18)
H1B H 0.3614 1.5170 1.0520
H2B H 0.2126 1.5407 1.0645
H3B H 0.4672 1.5380 1.2068
H4B H 0.3712 1.6905 1.1748
H5B H 0.3443 1.5751 1.3090
H6B H 0.2018 1.5837 1.2300
H7B H 0.2191 1.3293 1.2941
H8B H 0.3680 1.3036 1.2822
H9B H 0.1167 1.3241 1.1371
H10B H 0.2048 1.1648 1.1673
H11B H 0.1465 0.4640 0.8061
H12B H 0.2378 0.5832 0.7683
H13B H 0.3048 0.4908 0.8605
I1_2 I -0.008202(15) 0.801872(18) 1.092020(10)
I1B_2 I 1.008202(15) 1.198128(18) 0.907980(10)
Cu2_2 Cu -0.12559(3) 1.05606(3) 1.00849(2)
Cu2B_2 Cu 1.12559(3) 0.94394(3) 0.99151(2)
loop_
_geom_bond_atom_site_label_1
_geom_bond_atom_site_label_2
_geom_bond_site_symmetry_1
_geom_bond_site_symmetry_2
I1 Cu2 1_555 1_555
Cu1 S1 1_555 1_555
Cu2 S1 1_555 1_555
S1 C1 1_555 1_555
S2 Cu1 1_555 1_555
N1 C1 1_555 1_555
N2 Cu2 1_555 1_555
C1 S2 1_555 1_555
C2 N1 1_555 1_555
C3 C2 1_555 1_555
C4 C3 1_555 1_555
C5 C4 1_555 1_555
C6 N1 1_555 1_555
C7 N2 1_555 1_555
C8 C7 1_555 1_555
H1 C2 1_555 1_555
H2 C2 1_555 1_555
H3 C3 1_555 1_555
H4 C3 1_555 1_555
H5 C4 1_555 1_555
H6 C4 1_555 1_555
H7 C5 1_555 1_555
H8 C5 1_555 1_555
H9 C6 1_555 1_555
H10 C6 1_555 1_555
H11 C8 1_555 1_555
H12 C8 1_555 1_555
H13 C8 1_555 1_555
I1B Cu2B 1_555 1_555
Cu2B S1B 1_555 1_555
S1B Cu1 1_555 1_555
S2B Cu1 1_555 1_555
N1B C1B 1_555 1_555
N2B Cu2B 1_555 1_555
C1B S1B 1_555 1_555
C2B N1B 1_555 1_555
C3B C2B 1_555 1_555
C4B C3B 1_555 1_555
C5B C4B 1_555 1_555
C6B N1B 1_555 1_555
C7B N2B 1_555 1_555
C8B C7B 1_555 1_555
H1B C2B 1_555 1_555
H2B C2B 1_555 1_555
H3B C3B 1_555 1_555
H4B C3B 1_555 1_555
H5B C4B 1_555 1_555
H6B C4B 1_555 1_555
H7B C5B 1_555 1_555
H8B C5B 1_555 1_555
H9B C6B 1_555 1_555
H10B C6B 1_555 1_555
H11B C8B 1_555 1_555
H12B C8B 1_555 1_555
H13B C8B 1_555 1_555
I1_2 Cu2B 1_555 1_555
I1B_2 Cu2 1_555 1_555
Cu2_2 I1B 1_555 1_555
Cu2B_2 I1 1_555 1_555
C5 C6 1_555 1_555
S2B C1B 1_555 1_555
C5B C6B 1_555 1_555
I1_2 Cu2_2 1_555 1_555
I1B_2 Cu2B_2 1_555 1_555

#END
