
#######################################################################
#
#                 Cambridge Crystallographic Data Centre
#                                CCDC 
#
#######################################################################
#
# If this CIF has been generated from an entry in the Cambridge 
# Structural Database, then it will include bibliographic, chemical, 
# crystal, experimental, refinement or atomic coordinate data resulting 
# from the CCDC's data processing and validation procedures.
#
#######################################################################

data_SETMAH
_symmetry_cell_setting           monoclinic
_symmetry_space_group_name_H-M   'P 21/n'
_symmetry_Int_Tables_number      14
_space_group_name_Hall           '-P 2yn'
loop_
_symmetry_equiv_pos_site_id
_symmetry_equiv_pos_as_xyz
1 x,y,z
2 1/2-x,1/2+y,1/2-z
3 -x,-y,-z
4 1/2+x,1/2-y,1/2+z
_cell_length_a                   10.1626(9)
_cell_length_b                   8.3861(6)
_cell_length_c                   15.5139(14)
_cell_angle_alpha                90
_cell_angle_beta                 109.851(3)
_cell_angle_gamma                90
_cell_volume                     1243.6
loop_
_atom_site_label
_atom_site_type_symbol
_atom_site_fract_x
_atom_site_fract_y
_atom_site_fract_z
Br1 Br 0.08777(3) 0.68523(3) 1.084277(19)
Cu1 Cu 0.5000 0.5000 1.0000
Cu2 Cu 0.14121(4) 0.44621(4) 1.01180(2)
S1 S 0.26294(7) 0.51675(8) 0.91470(5)
S2 S 0.46120(7) 0.76760(8) 0.99387(5)
N1 N 0.1914(3) 0.8281(3) 0.89932(16)
N2 N 0.2428(3) 0.2739(3) 1.09530(17)
C1 C 0.2900(3) 0.7221(3) 0.93143(18)
C2 C 0.2152(3) 1.0009(3) 0.9129(2)
C3 C 0.1881(3) 1.0815(4) 0.8210(2)
C4 C 0.0146(3) 0.8648(4) 0.7477(2)
C5 C 0.0466(3) 0.7892(4) 0.8423(2)
C6 C 0.0415(3) 1.0435(4) 0.7557(2)
C7 C 0.3019(3) 0.1665(4) 1.1338(2)
C8 C 0.3777(4) 0.0282(4) 1.1833(3)
H1 H 0.3109 1.0205 0.9522
H2 H 0.1532 1.0446 0.9426
H3 H 0.2567 1.0455 0.7944
H4 H 0.1983 1.1960 0.8297
H5 H -0.0825 0.8452 0.7112
H6 H 0.0727 0.8159 0.7168
H7 H 0.0302 1.0867 0.6956
H8 H -0.0269 1.0943 0.7776
H9 H -0.0179 0.8295 0.8710
H10 H 0.0352 0.6744 0.8362
H11 H 0.3260 -0.0190 1.2183
H12 H 0.4681 0.0610 1.2237
H13 H 0.3890 -0.0485 1.1403
Br1B Br -0.08777(3) 0.31477(3) 0.915723(19)
Cu2B Cu -0.14121(4) 0.55379(4) 0.98820(2)
S1B S -0.26294(7) 0.48325(8) 1.08530(5)
S2B S -0.46120(7) 0.23240(8) 1.00613(5)
N1B N -0.1914(3) 0.1719(3) 1.10068(16)
N2B N -0.2428(3) 0.7261(3) 0.90470(17)
C1B C -0.2900(3) 0.2779(3) 1.06857(18)
C2B C -0.2152(3) -0.0009(3) 1.0871(2)
C3B C -0.1881(3) -0.0815(4) 1.1790(2)
C4B C -0.0146(3) 0.1352(4) 1.2523(2)
C5B C -0.0466(3) 0.2108(4) 1.1577(2)
C6B C -0.0415(3) -0.0435(4) 1.2443(2)
C7B C -0.3019(3) 0.8335(4) 0.8662(2)
C8B C -0.3777(4) 0.9718(4) 0.8167(3)
H1B H -0.3109 -0.0205 1.0478
H2B H -0.1532 -0.0446 1.0574
H3B H -0.2567 -0.0455 1.2056
H4B H -0.1983 -0.1960 1.1703
H5B H 0.0825 0.1548 1.2888
H6B H -0.0727 0.1841 1.2832
H7B H -0.0302 -0.0867 1.3044
H8B H 0.0269 -0.0943 1.2224
H9B H 0.0179 0.1705 1.1290
H10B H -0.0352 0.3256 1.1638
H11B H -0.3260 1.0190 0.7817
H12B H -0.4681 0.9390 0.7763
H13B H -0.3890 1.0485 0.8597
Cu1_2 Cu -0.5000 0.5000 1.0000
S1B_2 S 0.73706(7) 0.48325(8) 1.08530(5)
S2B_2 S 0.53880(7) 0.23240(8) 1.00613(5)
loop_
_geom_bond_atom_site_label_1
_geom_bond_atom_site_label_2
_geom_bond_site_symmetry_1
_geom_bond_site_symmetry_2
Br1 Cu2 1_555 1_555
Cu1 S1 1_555 1_555
Cu2 S1 1_555 1_555
S1 C1 1_555 1_555
S2 Cu1 1_555 1_555
N1 C1 1_555 1_555
N2 Cu2 1_555 1_555
C1 S2 1_555 1_555
C2 N1 1_555 1_555
C3 C2 1_555 1_555
C4 C5 1_555 1_555
C5 N1 1_555 1_555
C6 C3 1_555 1_555
C7 N2 1_555 1_555
C8 C7 1_555 1_555
H1 C2 1_555 1_555
H2 C2 1_555 1_555
H3 C3 1_555 1_555
H4 C3 1_555 1_555
H5 C4 1_555 1_555
H6 C4 1_555 1_555
H7 C6 1_555 1_555
H8 C6 1_555 1_555
H9 C5 1_555 1_555
H10 C5 1_555 1_555
H11 C8 1_555 1_555
H12 C8 1_555 1_555
H13 C8 1_555 1_555
Br1B Cu2 1_555 1_555
Cu2B Br1 1_555 1_555
S1B Cu2B 1_555 1_555
S2B C1B 1_555 1_555
N1B C1B 1_555 1_555
N2B Cu2B 1_555 1_555
C1B S1B 1_555 1_555
C2B N1B 1_555 1_555
C3B C2B 1_555 1_555
C4B C5B 1_555 1_555
C5B N1B 1_555 1_555
C6B C3B 1_555 1_555
C7B N2B 1_555 1_555
C8B C7B 1_555 1_555
H1B C2B 1_555 1_555
H2B C2B 1_555 1_555
H3B C3B 1_555 1_555
H4B C3B 1_555 1_555
H5B C4B 1_555 1_555
H6B C4B 1_555 1_555
H7B C6B 1_555 1_555
H8B C6B 1_555 1_555
H9B C5B 1_555 1_555
H10B C5B 1_555 1_555
H11B C8B 1_555 1_555
H12B C8B 1_555 1_555
H13B C8B 1_555 1_555
Cu1_2 S1B 1_555 1_555
S1B_2 Cu1 1_555 1_555
S2B_2 Cu1 1_555 1_555
C4 C6 1_555 1_555
Br1B Cu2B 1_555 1_555
S2B Cu1_2 1_555 1_555
C4B C6B 1_555 1_555

#END
