
#######################################################################
#
#                 Cambridge Crystallographic Data Centre
#                                CCDC 
#
#######################################################################
#
# If this CIF has been generated from an entry in the Cambridge 
# Structural Database, then it will include bibliographic, chemical, 
# crystal, experimental, refinement or atomic coordinate data resulting 
# from the CCDC's data processing and validation procedures.
#
#######################################################################

data_SETPOY
_symmetry_cell_setting           orthorhombic
_symmetry_space_group_name_H-M   'P 21 21 21'
_symmetry_Int_Tables_number      19
_space_group_name_Hall           'P 2ac 2ab'
loop_
_symmetry_equiv_pos_site_id
_symmetry_equiv_pos_as_xyz
1 x,y,z
2 1/2-x,-y,1/2+z
3 -x,1/2+y,1/2-z
4 1/2+x,1/2-y,-z
_cell_length_a                   10.283(3)
_cell_length_b                   13.703(3)
_cell_length_c                   16.698(4)
_cell_angle_alpha                90
_cell_angle_beta                 90
_cell_angle_gamma                90
_cell_volume                     2352.88
loop_
_atom_site_label
_atom_site_type_symbol
_atom_site_fract_x
_atom_site_fract_y
_atom_site_fract_z
In1 In 0.67362(3) 0.75296(3) 0.77589(2)
S1 S 0.61601(15) 0.69354(9) 0.64288(9)
S2 S 0.69380(17) 0.69669(9) 0.91554(9)
N1 N 1.1573(6) 1.1299(3) 0.7504(3)
N2 N 0.4391(5) 0.7745(2) 0.8021(3)
N3 N 0.6195(5) 0.9125(2) 0.7926(3)
N4 N 0.7177(5) 0.9813(3) 0.7864(3)
O1 O 0.8480(5) 0.8455(2) 0.7589(3)
C1 C 0.4852(6) 0.7672(4) 0.6105(3)
C2 C 0.4992(7) 0.8681(4) 0.6005(4)
H1 H 0.5782 0.8993 0.6150
C3 C 0.3962(9) 0.9225(4) 0.5693(4)
H2 H 0.4057 0.9911 0.5629
C4 C 0.2828(9) 0.8791(5) 0.5478(5)
H3 H 0.2145 0.9173 0.5258
C5 C 0.2660(7) 0.7794(4) 0.5579(4)
H4 H 0.1870 0.7489 0.5423
C6 C 0.3649(6) 0.7255(3) 0.5906(4)
H5 H 0.3516 0.6579 0.6001
C7 C 0.6658(6) 0.8120(3) 0.9623(3)
C8 C 0.7641(7) 0.8801(4) 0.9675(3)
H6 H 0.8483 0.8651 0.9475
C9 C 0.7399(8) 0.9715(4) 1.0024(4)
H7 H 0.8075 1.0186 1.0057
C10 C 0.6182(7) 0.9928(4) 1.0317(4)
H8 H 0.6022 1.0546 1.0554
C11 C 0.5174(7) 0.9240(4) 1.0269(4)
H9 H 0.4332 0.9393 1.0468
C12 C 0.5420(6) 0.8337(4) 0.9930(4)
H10 H 0.4749 0.7861 0.9905
C13 C 1.1544(7) 1.0428(3) 0.7133(4)
H11 H 1.2266 1.0249 0.6809
C14 C 1.0521(7) 0.9778(4) 0.7198(4)
H12 H 1.0560 0.9161 0.6939
C15 C 0.9428(7) 1.0037(4) 0.7649(4)
C16 C 0.9466(7) 1.0934(4) 0.8054(4)
H13 H 0.8755 1.1133 0.8378
C17 C 1.0544(6) 1.1523(4) 0.7977(4)
H14 H 1.0568 1.2117 0.8270
C18 C 0.8292(7) 0.9374(3) 0.7697(4)
C19 C 0.5077(6) 0.9403(3) 0.8138(3)
H15 H 0.4905 1.0072 0.8240
C20 C 0.4055(6) 0.8672(3) 0.8223(4)
C21 C 0.2820(7) 0.8899(4) 0.8516(4)
H16 H 0.2614 0.9552 0.8660
C22 C 0.1906(7) 0.8180(4) 0.8595(4)
H17 H 0.1058 0.8325 0.8785
C23 C 0.2251(7) 0.7232(4) 0.8389(4)
H18 H 0.1644 0.6713 0.8438
C24 C 0.3506(6) 0.7058(4) 0.8109(4)
H19 H 0.3736 0.6408 0.7974
In1B In 1.32638(3) 1.25296(3) 0.72411(2)
N1B N 0.8427(6) 0.6299(3) 0.7496(3)
loop_
_geom_bond_atom_site_label_1
_geom_bond_atom_site_label_2
_geom_bond_site_symmetry_1
_geom_bond_site_symmetry_2
In1 S1 1_555 1_555
S1 C1 1_555 1_555
S2 In1 1_555 1_555
N1 C13 1_555 1_555
N2 In1 1_555 1_555
N3 In1 1_555 1_555
N4 N3 1_555 1_555
O1 In1 1_555 1_555
C1 C2 1_555 1_555
C2 H1 1_555 1_555
C3 C2 1_555 1_555
H2 C3 1_555 1_555
C4 C3 1_555 1_555
H3 C4 1_555 1_555
C5 C4 1_555 1_555
H4 C5 1_555 1_555
C6 C1 1_555 1_555
H5 C6 1_555 1_555
C7 S2 1_555 1_555
C8 C7 1_555 1_555
H6 C8 1_555 1_555
C9 C8 1_555 1_555
H7 C9 1_555 1_555
C10 C9 1_555 1_555
H8 C10 1_555 1_555
C11 C10 1_555 1_555
H9 C11 1_555 1_555
C12 C7 1_555 1_555
H10 C12 1_555 1_555
C13 H11 1_555 1_555
C14 C13 1_555 1_555
H12 C14 1_555 1_555
C15 C14 1_555 1_555
C16 C15 1_555 1_555
H13 C16 1_555 1_555
C17 N1 1_555 1_555
H14 C17 1_555 1_555
C18 N4 1_555 1_555
C19 N3 1_555 1_555
H15 C19 1_555 1_555
C20 N2 1_555 1_555
C21 C20 1_555 1_555
H16 C21 1_555 1_555
C22 C21 1_555 1_555
H17 C22 1_555 1_555
C23 C22 1_555 1_555
H18 C23 1_555 1_555
C24 N2 1_555 1_555
H19 C24 1_555 1_555
In1B N1 1_555 1_555
N1B In1 1_555 1_555
O1 C18 1_555 1_555
C5 C6 1_555 1_555
C11 C12 1_555 1_555
C15 C18 1_555 1_555
C16 C17 1_555 1_555
C19 C20 1_555 1_555
C23 C24 1_555 1_555

#END
