
#######################################################################
#
#                 Cambridge Crystallographic Data Centre
#                                CCDC 
#
#######################################################################
#
# If this CIF has been generated from an entry in the Cambridge 
# Structural Database, then it will include bibliographic, chemical, 
# crystal, experimental, refinement or atomic coordinate data resulting 
# from the CCDC's data processing and validation procedures.
#
#######################################################################

data_SETPUE
_symmetry_cell_setting           monoclinic
_symmetry_space_group_name_H-M   'P 21/c'
_symmetry_Int_Tables_number      14
_space_group_name_Hall           '-P 2ybc'
loop_
_symmetry_equiv_pos_site_id
_symmetry_equiv_pos_as_xyz
1 x,y,z
2 -x,1/2+y,1/2-z
3 -x,-y,-z
4 x,1/2-y,1/2+z
_cell_length_a                   10.922(2)
_cell_length_b                   13.515(3)
_cell_length_c                   22.180(3)
_cell_angle_alpha                90
_cell_angle_beta                 119.18(3)
_cell_angle_gamma                90
_cell_volume                     2858.51
loop_
_atom_site_label
_atom_site_type_symbol
_atom_site_fract_x
_atom_site_fract_y
_atom_site_fract_z
In1 In 0.797001(15) 0.738044(9) 0.735461(7)
S1 S 0.65763(6) 0.80200(4) 0.61706(3)
S2 S 0.96763(6) 0.80169(4) 0.84895(3)
O1 O 0.65071(18) 0.64010(10) 0.74900(9)
N1 N 0.9888(2) 0.72192(13) 0.70888(9)
N2 N 0.83171(19) 0.57777(12) 0.71645(9)
N3 N 0.7423(2) 0.50691(12) 0.71744(9)
C1 C 1.0642(2) 0.79549(16) 0.70280(12)
H1 H 1.0505 0.8608 0.7142
C2 C 1.1606(3) 0.78044(17) 0.68073(12)
H2 H 1.2118 0.8345 0.6767
C3 C 1.1818(3) 0.68537(17) 0.66441(13)
H3 H 1.2482 0.6730 0.6493
C4 C 1.1045(2) 0.60851(16) 0.67048(12)
H4 H 1.1168 0.5426 0.6596
C5 C 1.0090(2) 0.62980(15) 0.69273(11)
C6 C 0.9210(2) 0.55288(15) 0.69791(11)
H5 H 0.9300 0.4859 0.6877
C7 C 0.6539(2) 0.54908(15) 0.73427(11)
C8 C 0.5472(2) 0.48205(14) 0.73597(11)
C9 C 0.5242(2) 0.38699(15) 0.70816(11)
H6 H 0.5749 0.3637 0.6863
C10 C 0.4683(2) 0.51292(15) 0.76601(11)
H7 H 0.4789 0.5780 0.7841
C11 C 1.1238(2) 0.73499(16) 0.86985(11)
C12 C 1.1280(2) 0.63222(16) 0.87273(11)
H8 H 1.0449 0.5961 0.8612
C13 C 1.2532(2) 0.58174(16) 0.89235(11)
H9 H 1.2537 0.5115 0.8934
C14 C 1.3773(2) 0.63231(16) 0.91046(11)
C15 C 1.5141(3) 0.57812(18) 0.93523(12)
H10 H 1.4952 0.5092 0.9197
H11 H 1.5672 0.5801 0.9858
H12 H 1.5687 0.6099 0.9163
C16 C 1.3719(3) 0.73500(17) 0.90720(12)
H13 H 1.4552 0.7712 0.9191
C17 C 1.2470(3) 0.78613(17) 0.88686(12)
H14 H 1.2460 0.8563 0.8846
C18 C 0.6985(3) 0.71816(16) 0.56738(11)
C19 C 0.7810(3) 0.74859(16) 0.53915(12)
H15 H 0.8178 0.8139 0.5475
C20 C 0.8104(3) 0.68465(18) 0.49890(12)
H16 H 0.8663 0.7070 0.4796
C21 C 0.7593(3) 0.58837(19) 0.48648(12)
C22 C 0.7955(4) 0.5184(2) 0.44437(15)
H17 H 0.8443 0.5548 0.4241
H18 H 0.7092 0.4894 0.4074
H19 H 0.8564 0.4656 0.4742
C23 C 0.6770(3) 0.55806(17) 0.51470(12)
H20 H 0.6417 0.4923 0.5070
C24 C 0.6447(3) 0.62222(17) 0.55432(11)
H21 H 0.5862 0.6005 0.5723
N4 N 0.3530(2) 0.35564(12) 0.74369(9)
C25 C 0.4270(2) 0.32739(15) 0.71274(11)
H22 H 0.4113 0.2631 0.6931
C26 C 0.3738(2) 0.44785(15) 0.76931(11)
H23 H 0.3213 0.4694 0.7907
In1A In 0.202999(15) 0.238044(9) 0.764539(7)
N4A N 0.6470(2) 0.85564(12) 0.75631(9)
O2 O 0.2752(6) 0.7863(7) 0.5489(3)
H24 H 0.1928 0.7725 0.5393
C27 C 0.3623(8) 0.7163(6) 0.5900(4)
H25 H 0.4425 0.7105 0.5818
H26 H 0.3126 0.6529 0.5800
H27 H 0.3956 0.7342 0.6383
O5 O 0.1472(6) 1.0531(4) 0.5733(3)
C30 C 0.0825(9) 0.9884(5) 0.5908(3)
O2B O -0.2752(6) 1.2137(7) 0.4511(3)
H24B H -0.1928 1.2275 0.4607
C27B C -0.3623(8) 1.2837(6) 0.4100(4)
H25B H -0.4425 1.2895 0.4182
H26B H -0.3126 1.3471 0.4200
H27B H -0.3956 1.2658 0.3617
O5B O -0.1472(6) 0.9469(4) 0.4267(3)
C30B C -0.0825(9) 1.0116(5) 0.4092(3)
O3? O 0.3359(9) 0.8363(6) 0.5980(4)
C28? C 0.257(7) 0.819(6) 0.532(3)
O4? O 0.2740(10) 0.8618(7) 0.5630(5)
C29? C 0.3618(15) 0.7943(12) 0.6163(7)
O6? O 0.1692(8) 1.0090(5) 0.5312(4)
O7? O 0.1192(18) 0.9375(12) 0.5266(9)
O8? O 0.0227(19) 1.0952(12) 0.5324(9)
loop_
_geom_bond_atom_site_label_1
_geom_bond_atom_site_label_2
_geom_bond_site_symmetry_1
_geom_bond_site_symmetry_2
In1 S1 1_555 1_555
S1 C18 1_555 1_555
S2 In1 1_555 1_555
O1 In1 1_555 1_555
N1 In1 1_555 1_555
N2 In1 1_555 1_555
N3 N2 1_555 1_555
C1 N1 1_555 1_555
H1 C1 1_555 1_555
C2 C1 1_555 1_555
H2 C2 1_555 1_555
C3 C2 1_555 1_555
H3 C3 1_555 1_555
C4 C3 1_555 1_555
H4 C4 1_555 1_555
C5 N1 1_555 1_555
C6 N2 1_555 1_555
H5 C6 1_555 1_555
C7 O1 1_555 1_555
C8 C7 1_555 1_555
C9 C8 1_555 1_555
H6 C9 1_555 1_555
C10 C8 1_555 1_555
H7 C10 1_555 1_555
C11 S2 1_555 1_555
C12 C11 1_555 1_555
H8 C12 1_555 1_555
C13 C12 1_555 1_555
H9 C13 1_555 1_555
C14 C13 1_555 1_555
C15 C14 1_555 1_555
H10 C15 1_555 1_555
H11 C15 1_555 1_555
H12 C15 1_555 1_555
C16 C14 1_555 1_555
H13 C16 1_555 1_555
C17 C11 1_555 1_555
H14 C17 1_555 1_555
C18 C19 1_555 1_555
C19 H15 1_555 1_555
C20 C19 1_555 1_555
H16 C20 1_555 1_555
C21 C20 1_555 1_555
C22 C21 1_555 1_555
H17 C22 1_555 1_555
H18 C22 1_555 1_555
H19 C22 1_555 1_555
C23 C21 1_555 1_555
H20 C23 1_555 1_555
C24 C18 1_555 1_555
H21 C24 1_555 1_555
N4 C25 1_555 1_555
C25 C9 1_555 1_555
H22 C25 1_555 1_555
C26 C10 1_555 1_555
H23 C26 1_555 1_555
O2 H24 1_555 1_555
C27 O2 1_555 1_555
H25 C27 1_555 1_555
H26 C27 1_555 1_555
H27 C27 1_555 1_555
O5 C30 1_555 1_555
In1A N4 1_555 1_555
N4A In1 1_555 1_555
O2B H24B 1_555 1_555
C27B O2B 1_555 1_555
H25B C27B 1_555 1_555
H26B C27B 1_555 1_555
H27B C27B 1_555 1_555
O5B C30B 1_555 1_555
N3 C7 1_555 1_555
C4 C5 1_555 1_555
C5 C6 1_555 1_555
C16 C17 1_555 1_555
C23 C24 1_555 1_555
N4 C26 1_555 1_555

#END
