
#######################################################################
#
#                 Cambridge Crystallographic Data Centre
#                                CCDC 
#
#######################################################################
#
# If this CIF has been generated from an entry in the Cambridge 
# Structural Database, then it will include bibliographic, chemical, 
# crystal, experimental, refinement or atomic coordinate data resulting 
# from the CCDC's data processing and validation procedures.
#
#######################################################################

data_SETQAL
_symmetry_cell_setting           monoclinic
_symmetry_space_group_name_H-M   'C c'
_symmetry_Int_Tables_number      9
_space_group_name_Hall           'C -2yc'
loop_
_symmetry_equiv_pos_site_id
_symmetry_equiv_pos_as_xyz
1 x,y,z
2 x,-y,1/2+z
3 1/2+x,1/2+y,z
4 1/2+x,1/2-y,1/2+z
_cell_length_a                   20.5266(3)
_cell_length_b                   9.1925(2)
_cell_length_c                   6.8763(2)
_cell_angle_alpha                90
_cell_angle_beta                 113.084(1)
_cell_angle_gamma                90
_cell_volume                     1193.61
loop_
_atom_site_label
_atom_site_type_symbol
_atom_site_fract_x
_atom_site_fract_y
_atom_site_fract_z
Fe1 Fe -0.0041(21) 0.0053(6) -0.0388(94)
O1 O 0.0617 0.1267 -0.3643
O2 O 0.0790 0.0973 -0.0302
O3 O 0.4106 0.3651 -0.0606
O4 O 0.4278 0.3356 0.2735
C1 C 0.1763 0.1844 -0.1050
C2 C 0.2025 0.2154 -0.2554
C3 C 0.2710 0.2622 -0.1958
C4 C 0.3132 0.2780 0.0142
C5 C 0.2870 0.2470 0.1646
C6 C 0.2185 0.2002 0.1050
C7 C 0.1021 0.1337 -0.1696
C8 C 0.3874 0.3287 0.0788
H1 H 0.1723 0.2041 -0.4056
H2 H 0.2897 0.2843 -0.3034
H3 H 0.3173 0.2583 0.3149
H4 H 0.1998 0.1780 0.2126
O5 O -0.0032(24) -0.0969(5) -0.297(10)
Fe1A Fe -0.0041(21) -0.0053(6) -0.5388(94)
Fe1B Fe 0.4959(21) 0.5053(6) -0.0388(94)
Fe1C Fe 0.4959(21) 0.4947(6) 0.4612(94)
O1A O 0.0617 -0.1267 0.1357
O3B O -0.0894 -0.1349 -0.0606
O4C O -0.0722 0.1644 -0.2265
O5A O -0.0032(24) 0.0969(5) 0.203(10)
H5 H -1.1103 -0.5276 -0.1079
C9 C -0.8426 -0.5296 0.3954
C10 C -0.9195 -0.5290 0.2508
C11 C -0.9704 -0.5226 0.3332
C12 C -1.0406 -0.5221 0.2011
C13 C -1.0600 -0.5280 -0.0134
C14 C -1.0092 -0.5344 -0.0958
C15 C -0.9390 -0.5349 0.0363
H6 H -0.9565 -0.5184 0.4867
C16 C -1.0963 -0.5150 0.2914
H7 H -1.0231 -0.5386 -0.2493
H8 H -0.9026 -0.5395 -0.0227
loop_
_geom_bond_atom_site_label_1
_geom_bond_atom_site_label_2
_geom_bond_site_symmetry_1
_geom_bond_site_symmetry_2
Fe1 O2 1_555 1_555
O1 C7 1_555 1_555
O2 C7 1_555 1_555
O3 C8 1_555 1_555
O4 C8 1_555 1_555
C1 C2 1_555 1_555
C2 C3 1_555 1_555
C3 C4 1_555 1_555
C4 C5 1_555 1_555
C5 C6 1_555 1_555
C6 C1 1_555 1_555
C7 C1 1_555 1_555
C8 C4 1_555 1_555
H1 C2 1_555 1_555
H2 C3 1_555 1_555
H3 C5 1_555 1_555
H4 C6 1_555 1_555
O5 Fe1 1_555 1_555
H5 C13 1_555 1_555
C9 C10 1_555 1_555
C10 C11 1_555 1_555
C11 C12 1_555 1_555
C12 C13 1_555 1_555
C13 C14 1_555 1_555
C14 C15 1_555 1_555
C15 C10 1_555 1_555
H6 C11 1_555 1_555
C16 C12 1_555 1_555
H7 C14 1_555 1_555
H8 C15 1_555 1_555
Fe1A O1 1_555 1_555
Fe1B O3 1_555 1_555
Fe1C O4 1_555 1_555
O1A Fe1 1_555 1_555
O3B Fe1 1_555 1_555
O4C Fe1 1_555 1_555
O5A Fe1 1_555 1_555
O5 Fe1A 1_555 1_555

#END
