
#######################################################################
#
#                 Cambridge Crystallographic Data Centre
#                                CCDC 
#
#######################################################################
#
# If this CIF has been generated from an entry in the Cambridge 
# Structural Database, then it will include bibliographic, chemical, 
# crystal, experimental, refinement or atomic coordinate data resulting 
# from the CCDC's data processing and validation procedures.
#
#######################################################################

data_SETQIT
_symmetry_cell_setting           monoclinic
_symmetry_space_group_name_H-M   'C c'
_symmetry_Int_Tables_number      9
_space_group_name_Hall           'C -2yc'
loop_
_symmetry_equiv_pos_site_id
_symmetry_equiv_pos_as_xyz
1 x,y,z
2 x,-y,1/2+z
3 1/2+x,1/2+y,z
4 1/2+x,1/2-y,1/2+z
_cell_length_a                   20.5308(2)
_cell_length_b                   9.1709(2)
_cell_length_c                   6.8801(2)
_cell_angle_alpha                90
_cell_angle_beta                 113.072(1)
_cell_angle_gamma                90
_cell_volume                     1191.81
loop_
_atom_site_label
_atom_site_type_symbol
_atom_site_fract_x
_atom_site_fract_y
_atom_site_fract_z
Fe1 Fe 0.0054(28) 0.0038(5) -0.046(26)
O1 O 0.0714 0.1253 -0.3759
O2 O 0.0885 0.0973 -0.0419
O3 O 0.4201 0.3615 -0.0733
O4 O 0.4372 0.3335 0.2607
C1 C 0.1858 0.1830 -0.1171
C2 C 0.2118 0.2150 -0.2675
C3 C 0.2803 0.2614 -0.2080
C4 C 0.3228 0.2758 0.0019
C5 C 0.2968 0.2438 0.1523
C6 C 0.2283 0.1974 0.0928
C7 C 0.1117 0.1328 -0.1813
C8 C 0.3969 0.3260 0.0661
H1 H 0.1814 0.2047 -0.4177
H2 H 0.2990 0.2843 -0.3157
H3 H 0.3272 0.2541 0.3025
H4 H 0.2096 0.1745 0.2005
O5 O 0.0067(30) -0.0989(5) -0.304(26)
Fe1A Fe 0.0054(28) -0.0038(5) -0.546(26)
Fe1B Fe 0.5054(28) 0.5038(5) -0.046(26)
Fe1C Fe 0.5054(28) 0.4962(5) 0.454(26)
O1A O 0.0714 -0.1253 0.1241
O3B O -0.0799 -0.1385 -0.0733
O4C O -0.0628 0.1665 -0.2393
O5A O 0.0067(30) 0.0989(5) 0.196(26)
C9 C 0.0686 0.4909 0.4346
C10 C -0.0033 0.4699 0.3503
C11 C -0.0404 0.4759 0.4776
C12 C -0.0058 0.5029 0.6893
C13 C 0.0660 0.5239 0.7737
C14 C 0.1032 0.5180 0.6463
H5 H -0.0280 0.4506 0.1988
C15 C -0.0465 0.5094 0.8288
C16 C 0.1092 0.4844 0.2952
H6 H -0.0918 0.4608 0.4173
H7 H 0.0908 0.5433 0.9251
H8 H 0.1546 0.5330 0.7067
loop_
_geom_bond_atom_site_label_1
_geom_bond_atom_site_label_2
_geom_bond_site_symmetry_1
_geom_bond_site_symmetry_2
Fe1 O2 1_555 1_555
O1 C7 1_555 1_555
O2 C7 1_555 1_555
O3 C8 1_555 1_555
O4 C8 1_555 1_555
C1 C2 1_555 1_555
C2 C3 1_555 1_555
C3 C4 1_555 1_555
C4 C5 1_555 1_555
C5 C6 1_555 1_555
C6 C1 1_555 1_555
C7 C1 1_555 1_555
C8 C4 1_555 1_555
H1 C2 1_555 1_555
H2 C3 1_555 1_555
H3 C5 1_555 1_555
H4 C6 1_555 1_555
O5 Fe1 1_555 1_555
C9 C10 1_555 1_555
C10 C11 1_555 1_555
C11 C12 1_555 1_555
C12 C13 1_555 1_555
C13 C14 1_555 1_555
C14 C9 1_555 1_555
H5 C10 1_555 1_555
C15 C12 1_555 1_555
C16 C9 1_555 1_555
H6 C11 1_555 1_555
H7 C13 1_555 1_555
H8 C14 1_555 1_555
Fe1A O1 1_555 1_555
Fe1B O3 1_555 1_555
Fe1C O4 1_555 1_555
O1A Fe1 1_555 1_555
O3B Fe1 1_555 1_555
O4C Fe1 1_555 1_555
O5A Fe1 1_555 1_555
O5 Fe1A 1_555 1_555

#END
