
#######################################################################
#
#                 Cambridge Crystallographic Data Centre
#                                CCDC 
#
#######################################################################
#
# If this CIF has been generated from an entry in the Cambridge 
# Structural Database, then it will include bibliographic, chemical, 
# crystal, experimental, refinement or atomic coordinate data resulting 
# from the CCDC's data processing and validation procedures.
#
#######################################################################

data_SETQOZ
_symmetry_cell_setting           monoclinic
_symmetry_space_group_name_H-M   'C 2/c'
_symmetry_Int_Tables_number      15
_space_group_name_Hall           '-C 2yc'
loop_
_symmetry_equiv_pos_site_id
_symmetry_equiv_pos_as_xyz
1 x,y,z
2 -x,y,1/2-z
3 1/2-x,1/2+y,1/2-z
4 1/2+x,1/2+y,z
5 -x,-y,-z
6 x,-y,1/2+z
7 1/2+x,1/2-y,1/2+z
8 1/2-x,1/2-y,-z
_cell_length_a                   15.86272(30)
_cell_length_b                   15.99594(29)
_cell_length_c                   13.80696(19)
_cell_angle_alpha                90
_cell_angle_beta                 115.30892(89)
_cell_angle_gamma                90
_cell_volume                     3167.1
loop_
_atom_site_label
_atom_site_type_symbol
_atom_site_fract_x
_atom_site_fract_y
_atom_site_fract_z
Fe1 Fe 0.000 -0.00104(26) 0.750
O1 O 0.094942 0.081998 0.595903
O2 O 0.086811 0.087668 0.750868
O3 O 0.417379 0.408878 0.756527
O4 O 0.415418 0.409570 0.914868
C1 C 0.189050 0.182665 0.722337
C2 C 0.221537 0.215176 0.651671
C3 C 0.286125 0.279539 0.683876
C4 C 0.318225 0.311392 0.786746
C5 C 0.285738 0.278881 0.857412
C6 C 0.221150 0.214518 0.825207
C7 C 0.120492 0.114345 0.688152
C8 C 0.386783 0.379712 0.820931
H1 H 0.198821 0.192635 0.578875
H2 H 0.309114 0.302545 0.633869
H3 H 0.308453 0.301422 0.930208
H4 H 0.198160 0.191512 0.875214
Fe2 Fe 0.000 0.000 1
O5 O 0.06242(27) 0.00259(79) 0.90765(26)
O5D O -0.06242(27) -0.00259(79) 1.09235(26)
O1A O -0.094942 0.081998 0.904097
O2A O -0.086811 0.087668 0.749132
O3A O -0.417379 0.408878 0.743473
O4A O -0.415418 0.409570 0.585132
C1A C -0.189050 0.182665 0.777663
C2A C -0.221537 0.215176 0.848329
C3A C -0.286125 0.279539 0.816124
C4A C -0.318225 0.311392 0.713254
C5A C -0.285738 0.278881 0.642588
C6A C -0.221150 0.214518 0.674793
C7A C -0.120492 0.114345 0.811848
C8A C -0.386783 0.379712 0.679069
H1A H -0.198821 0.192635 0.921125
H2A H -0.309114 0.302545 0.866131
H3A H -0.308453 0.301422 0.569792
H4A H -0.198160 0.191512 0.624786
Fe1D Fe 0.000 0.00104(26) 1.250
Fe1B Fe -0.500 0.49896(26) 0.750
Fe1B_2 Fe 0.500 0.49896(26) 0.750
O1E O 0.094942 -0.081998 1.095903
O3B O 0.082621 -0.091122 0.743473
O3C O -0.082621 -0.091122 0.756527
O4G O 0.084582 0.090430 1.085132
O4C O -0.084582 -0.090430 0.914868
Fe2A Fe 0.000 0.000 0.5
Fe2G Fe 0.500 0.500 1
Fe2B Fe -0.500 0.500 0.5
O5A O -0.06242(27) 0.00259(79) 0.59235(26)
C9 C 1.020692 0.691922 -0.064837
H5 H 0.792143 0.483028 -0.000102
C10 C 0.955764 0.632577 -0.046446
C11 C 0.946948 0.634902 0.050172
C12 C 0.886347 0.579513 0.067336
C13 C 0.834563 0.521800 -0.012117
C14 C 0.843379 0.519475 -0.108735
C15 C 0.903979 0.574864 -0.125899
H6 H 0.983197 0.675302 0.105789
C16 C 0.876902 0.582004 0.170856
H7 H 0.807130 0.479076 -0.164352
H8 H 0.910151 0.573236 -0.193532
loop_
_geom_bond_atom_site_label_1
_geom_bond_atom_site_label_2
_geom_bond_site_symmetry_1
_geom_bond_site_symmetry_2
Fe1 O2 1_555 1_555
O1 C7 1_555 1_555
O2 C7 1_555 1_555
O3 C8 1_555 1_555
O4 C8 1_555 1_555
C1 C2 1_555 1_555
C2 C3 1_555 1_555
C3 C4 1_555 1_555
C4 C5 1_555 1_555
C5 C6 1_555 1_555
C6 C1 1_555 1_555
C7 C1 1_555 1_555
C8 C4 1_555 1_555
H1 C2 1_555 1_555
H2 C3 1_555 1_555
H3 C5 1_555 1_555
H4 C6 1_555 1_555
Fe2 O5 1_555 1_555
O5 Fe1 1_555 1_555
C9 C10 1_555 1_555
H5 C13 1_555 1_555
C10 C11 1_555 1_555
C11 C12 1_555 1_555
C12 C13 1_555 1_555
C13 C14 1_555 1_555
C14 C15 1_555 1_555
C15 C10 1_555 1_555
H6 C11 1_555 1_555
C16 C12 1_555 1_555
H7 C14 1_555 1_555
H8 C15 1_555 1_555
O5D Fe2 1_555 1_555
O1A Fe2 1_555 1_555
O2A Fe1 1_555 1_555
O3A C8A 1_555 1_555
O4A C8A 1_555 1_555
C1A C2A 1_555 1_555
C2A C3A 1_555 1_555
C3A C4A 1_555 1_555
C4A C5A 1_555 1_555
C5A C6A 1_555 1_555
C6A C1A 1_555 1_555
C7A O1A 1_555 1_555
C8A C4A 1_555 1_555
H1A C2A 1_555 1_555
H2A C3A 1_555 1_555
H3A C5A 1_555 1_555
H4A C6A 1_555 1_555
Fe1D O5D 1_555 1_555
Fe1B O3A 1_555 1_555
Fe1B_2 O3 1_555 1_555
O1E Fe2 1_555 1_555
O3B Fe1 1_555 1_555
O3C Fe1 1_555 1_555
O4G Fe2 1_555 1_555
O4C Fe2 1_555 1_555
Fe2A O1 1_555 1_555
Fe2G O4 1_555 1_555
Fe2B O4A 1_555 1_555
O5A Fe1 1_555 1_555
O2A C7A 1_555 1_555
C1A C7A 1_555 1_555
Fe2A O5A 1_555 1_555

#END
