
#######################################################################
#
#                 Cambridge Crystallographic Data Centre
#                                CCDC 
#
#######################################################################
#
# If this CIF has been generated from an entry in the Cambridge 
# Structural Database, then it will include bibliographic, chemical, 
# crystal, experimental, refinement or atomic coordinate data resulting 
# from the CCDC's data processing and validation procedures.
#
#######################################################################

data_SETXIA
_symmetry_cell_setting           cubic
_symmetry_space_group_name_H-M   'P n -3 n'
_symmetry_Int_Tables_number      222
_space_group_name_Hall           '-P 4a 2bc 3'
loop_
_symmetry_equiv_pos_site_id
_symmetry_equiv_pos_as_xyz
1 x,y,z
2 1/2-y,x,z
3 1/2-x,1/2-y,z
4 y,1/2-x,z
5 x,1/2-y,1/2-z
6 y,x,1/2-z
7 1/2-x,y,1/2-z
8 1/2-y,1/2-x,1/2-z
9 z,x,y
10 1/2-x,z,y
11 1/2-z,1/2-x,y
12 x,1/2-z,y
13 z,1/2-x,1/2-y
14 x,z,1/2-y
15 1/2-z,x,1/2-y
16 1/2-x,1/2-z,1/2-y
17 y,z,x
18 1/2-z,1/2-y,1/2-x
19 1/2-z,y,x
20 z,y,1/2-x
21 z,1/2-y,x
22 y,1/2-z,1/2-x
23 1/2-y,1/2-z,x
24 1/2-y,z,1/2-x
25 -x,-y,-z
26 1/2+y,-x,-z
27 1/2+x,1/2+y,-z
28 -y,1/2+x,-z
29 -x,1/2+y,1/2+z
30 -y,-x,1/2+z
31 1/2+x,-y,1/2+z
32 1/2+y,1/2+x,1/2+z
33 -z,-x,-y
34 1/2+x,-z,-y
35 1/2+z,1/2+x,-y
36 -x,1/2+z,-y
37 -z,1/2+x,1/2+y
38 -x,-z,1/2+y
39 1/2+z,-x,1/2+y
40 1/2+x,1/2+z,1/2+y
41 -y,-z,-x
42 1/2+z,1/2+y,1/2+x
43 1/2+z,-y,-x
44 -z,-y,1/2+x
45 -z,1/2+y,-x
46 -y,1/2+z,1/2+x
47 1/2+y,1/2+z,-x
48 1/2+y,-z,1/2+x
_cell_length_a                   19.6630(3)
_cell_length_b                   19.6630(3)
_cell_length_c                   19.6630(3)
_cell_angle_alpha                90
_cell_angle_beta                 90
_cell_angle_gamma                90
_cell_volume                     7602.38
loop_
_atom_site_label
_atom_site_type_symbol
_atom_site_fract_x
_atom_site_fract_y
_atom_site_fract_z
Mo2 Mo 0.7500 0.2500 0.0000
O4 O 0.7710(7) 0.1772(7) 0.0513(7)
O4B O 0.7290(7) 0.3228(7) 0.0513(7)
O4Y O 0.6772(7) 0.2290(7) -0.0513(7)
O4AA O 0.8228(7) 0.2710(7) -0.0513(7)
Cu1 Cu 0.5674(3) 0.2500 0.2500
Mo1 Mo 0.36819(15) 0.2500 0.2500
C1 C 0.5552(4) 0.0449(4) 0.0102(4)
C2 C 0.6141(5) 0.0938(5) 0.0230(5)
H1 H 0.6519 0.0693 0.0431
H2 H 0.6292 0.1131 -0.0198
C3 C 0.6155(6) 0.1635(6) 0.1291(7)
H3 H 0.6515 0.1423 0.1513
C4 C 0.5357(8) 0.2286(7) 0.1049(7)
H4 H 0.5048 0.2644 0.1073
N1 N 0.5787(8) 0.2149(5) 0.1539(5)
N2 N 0.5924(5) 0.1477(4) 0.0683(4)
N3 N 0.5395(6) 0.1891(6) 0.0536(6)
O1 O 0.4507(8) 0.2500 0.2500
O2 O 0.3499(5) 0.2500 0.1501(5)
O3 O 0.2500 0.2500 0.2500
C1HA C 0.5102(4) 0.0552(4) -0.0449(4)
C2HA C 0.5230(5) 0.1141(5) -0.0938(5)
H1HA H 0.5431 0.1519 -0.0693
H2HA H 0.4802 0.1292 -0.1131
C3HA C 0.6291(7) 0.1155(6) -0.1635(6)
H3HA H 0.6513 0.1515 -0.1423
C4HA C 0.6049(7) 0.0357(8) -0.2286(7)
H4HA H 0.6073 0.0048 -0.2644
N1HA N 0.6539(5) 0.0787(8) -0.2149(5)
N2HA N 0.5683(4) 0.0924(5) -0.1477(4)
N3HA N 0.5536(6) 0.0395(6) -0.1891(6)
C1UA C 0.5449(4) -0.0102(4) 0.0552(4)
C2UA C 0.5938(5) -0.0230(5) 0.1141(5)
H1UA H 0.5693 -0.0431 0.1519
H2UA H 0.6131 0.0198 0.1292
C3UA C 0.6635(6) -0.1291(7) 0.1155(6)
H3UA H 0.6423 -0.1513 0.1515
C4UA C 0.7286(7) -0.1049(7) 0.0357(8)
H4UA H 0.7644 -0.1073 0.0048
N1UA N 0.7149(5) -0.1539(5) 0.0787(8)
N2UA N 0.6477(4) -0.0683(4) 0.0924(5)
N3UA N 0.6891(6) -0.0536(6) 0.0395(6)
C1J C 0.4898(4) -0.0552(4) 0.0449(4)
C2J C 0.4770(5) -0.1141(5) 0.0938(5)
H1J H 0.4569 -0.1519 0.0693
H2J H 0.5198 -0.1292 0.1131
C3J C 0.3709(7) -0.1155(6) 0.1635(6)
H3J H 0.3487 -0.1515 0.1423
C4J C 0.3951(7) -0.0357(8) 0.2286(7)
H4J H 0.3927 -0.0048 0.2644
N1J N 0.3461(5) -0.0787(8) 0.2149(5)
N2J N 0.4317(4) -0.0924(5) 0.1477(4)
N3J N 0.4464(6) -0.0395(6) 0.1891(6)
C1W C 0.4551(4) 0.0102(4) -0.0552(4)
C2W C 0.4062(5) 0.0230(5) -0.1141(5)
H1W H 0.4307 0.0431 -0.1519
H2W H 0.3869 -0.0198 -0.1292
C3W C 0.3365(6) 0.1291(7) -0.1155(6)
H3W H 0.3577 0.1513 -0.1515
C4W C 0.2714(7) 0.1049(7) -0.0357(8)
H4W H 0.2356 0.1073 -0.0048
N1W N 0.2851(5) 0.1539(5) -0.0787(8)
N2W N 0.3523(4) 0.0683(4) -0.0924(5)
N3W N 0.3109(6) 0.0536(6) -0.0395(6)
C1X C 0.4448(4) -0.0449(4) -0.0102(4)
C2X C 0.3859(5) -0.0938(5) -0.0230(5)
H1X H 0.3481 -0.0693 -0.0431
H2X H 0.3708 -0.1131 0.0198
C3X C 0.3845(6) -0.1635(6) -0.1291(7)
H3X H 0.3485 -0.1423 -0.1513
C4X C 0.4643(8) -0.2286(7) -0.1049(7)
H4X H 0.4952 -0.2644 -0.1073
N1X N 0.4213(8) -0.2149(5) -0.1539(5)
N2X N 0.4076(5) -0.1477(4) -0.0683(4)
N3X N 0.4605(6) -0.1891(6) -0.0536(6)
Cu1A Cu 0.2500 0.5674(3) 0.2500
Mo1A Mo 0.2500 0.36819(15) 0.2500
C1A C 0.4551(4) 0.5552(4) 0.0102(4)
C2A C 0.4062(5) 0.6141(5) 0.0230(5)
H1A H 0.4307 0.6519 0.0431
H2A H 0.3869 0.6292 -0.0198
C3A C 0.3365(6) 0.6155(6) 0.1291(7)
H3A H 0.3577 0.6515 0.1513
C4A C 0.2714(7) 0.5357(8) 0.1049(7)
H4A H 0.2356 0.5048 0.1073
N1A N 0.2851(5) 0.5787(8) 0.1539(5)
N2A N 0.3523(4) 0.5924(5) 0.0683(4)
N3A N 0.3109(6) 0.5395(6) 0.0536(6)
O1A O 0.2500 0.4507(8) 0.2500
O2A O 0.2500 0.3499(5) 0.1501(5)
C1IA C 0.4448(4) 0.5102(4) -0.0449(4)
C2IA C 0.3859(5) 0.5230(5) -0.0938(5)
H1IA H 0.3481 0.5431 -0.0693
H2IA H 0.3708 0.4802 -0.1131
C3IA C 0.3845(6) 0.6291(7) -0.1635(6)
H3IA H 0.3485 0.6513 -0.1423
C4IA C 0.4643(8) 0.6049(7) -0.2286(7)
H4IA H 0.4952 0.6073 -0.2644
N1IA N 0.4213(8) 0.6539(5) -0.2149(5)
N2IA N 0.4076(5) 0.5683(4) -0.1477(4)
N3IA N 0.4605(6) 0.5536(6) -0.1891(6)
C1OA C 0.5102(4) 0.5449(4) 0.0552(4)
C2OA C 0.5230(5) 0.5938(5) 0.1141(5)
H1OA H 0.5431 0.5693 0.1519
H2OA H 0.4802 0.6131 0.1292
C3OA C 0.6291(7) 0.6635(6) 0.1155(6)
H3OA H 0.6513 0.6423 0.1515
C4OA C 0.6049(7) 0.7286(7) 0.0357(8)
H4OA H 0.6073 0.7644 0.0048
N1OA N 0.6539(5) 0.7149(5) 0.0787(8)
N2OA N 0.5683(4) 0.6477(4) 0.0924(5)
N3OA N 0.5536(6) 0.6891(6) 0.0395(6)
C1K C 0.5552(4) 0.4898(4) 0.0449(4)
C2K C 0.6141(5) 0.4770(5) 0.0938(5)
H1K H 0.6519 0.4569 0.0693
H2K H 0.6292 0.5198 0.1131
C3K C 0.6155(6) 0.3709(7) 0.1635(6)
H3K H 0.6515 0.3487 0.1423
C4K C 0.5357(8) 0.3951(7) 0.2286(7)
H4K H 0.5048 0.3927 0.2644
N1K N 0.5787(8) 0.3461(5) 0.2149(5)
N2K N 0.5924(5) 0.4317(4) 0.1477(4)
N3K N 0.5395(6) 0.4464(6) 0.1891(6)
C1Q C 0.4898(4) 0.4551(4) -0.0552(4)
C2Q C 0.4770(5) 0.4062(5) -0.1141(5)
H1Q H 0.4569 0.4307 -0.1519
H2Q H 0.5198 0.3869 -0.1292
C3Q C 0.3709(7) 0.3365(6) -0.1155(6)
H3Q H 0.3487 0.3577 -0.1515
C4Q C 0.3951(7) 0.2714(7) -0.0357(8)
H4Q H 0.3927 0.2356 -0.0048
N1Q N 0.3461(5) 0.2851(5) -0.0787(8)
N2Q N 0.4317(4) 0.3523(4) -0.0924(5)
N3Q N 0.4464(6) 0.3109(6) -0.0395(6)
C1Y C 0.5449(4) 0.4448(4) -0.0102(4)
C2Y C 0.5938(5) 0.3859(5) -0.0230(5)
H1Y H 0.5693 0.3481 -0.0431
H2Y H 0.6131 0.3708 0.0198
C3Y C 0.6635(6) 0.3845(6) -0.1291(7)
H3Y H 0.6423 0.3485 -0.1513
C4Y C 0.7286(7) 0.4643(8) -0.1049(7)
H4Y H 0.7644 0.4952 -0.1073
N1Y N 0.7149(5) 0.4213(8) -0.1539(5)
N2Y N 0.6477(4) 0.4076(5) -0.0683(4)
N3Y N 0.6891(6) 0.4605(6) -0.0536(6)
Cu1B Cu -0.0674(3) 0.2500 0.2500
Mo1B Mo 0.13181(15) 0.2500 0.2500
C1B C -0.0552(4) 0.4551(4) 0.0102(4)
C2B C -0.1141(5) 0.4062(5) 0.0230(5)
H1B H -0.1519 0.4307 0.0431
H2B H -0.1292 0.3869 -0.0198
C3B C -0.1155(6) 0.3365(6) 0.1291(7)
H3B H -0.1515 0.3577 0.1513
C4B C -0.0357(8) 0.2714(7) 0.1049(7)
H4B H -0.0048 0.2356 0.1073
N1B N -0.0787(8) 0.2851(5) 0.1539(5)
N2B N -0.0924(5) 0.3523(4) 0.0683(4)
N3B N -0.0395(6) 0.3109(6) 0.0536(6)
O1B O 0.0493(8) 0.2500 0.2500
O2B O 0.1501(5) 0.2500 0.1501(5)
C1FA C -0.0102(4) 0.4448(4) -0.0449(4)
C2FA C -0.0230(5) 0.3859(5) -0.0938(5)
H1FA H -0.0431 0.3481 -0.0693
H2FA H 0.0198 0.3708 -0.1131
C3FA C -0.1291(7) 0.3845(6) -0.1635(6)
H3FA H -0.1513 0.3485 -0.1423
C4FA C -0.1049(7) 0.4643(8) -0.2286(7)
H4FA H -0.1073 0.4952 -0.2644
N1FA N -0.1539(5) 0.4213(8) -0.2149(5)
N2FA N -0.0683(4) 0.4076(5) -0.1477(4)
N3FA N -0.0536(6) 0.4605(6) -0.1891(6)
C1SA C -0.0449(4) 0.5102(4) 0.0552(4)
C2SA C -0.0938(5) 0.5230(5) 0.1141(5)
H1SA H -0.0693 0.5431 0.1519
H2SA H -0.1131 0.4802 0.1292
C3SA C -0.1635(6) 0.6291(7) 0.1155(6)
H3SA H -0.1423 0.6513 0.1515
C4SA C -0.2286(7) 0.6049(7) 0.0357(8)
H4SA H -0.2644 0.6073 0.0048
N1SA N -0.2149(5) 0.6539(5) 0.0787(8)
N2SA N -0.1477(4) 0.5683(4) 0.0924(5)
N3SA N -0.1891(6) 0.5536(6) 0.0395(6)
C1H C 0.0102(4) 0.5552(4) 0.0449(4)
C2H C 0.0230(5) 0.6141(5) 0.0938(5)
H1H H 0.0431 0.6519 0.0693
H2H H -0.0198 0.6292 0.1131
C3H C 0.1291(7) 0.6155(6) 0.1635(6)
H3H H 0.1513 0.6515 0.1423
C4H C 0.1049(7) 0.5357(8) 0.2286(7)
H4H H 0.1073 0.5048 0.2644
N1H N 0.1539(5) 0.5787(8) 0.2149(5)
N2H N 0.0683(4) 0.5924(5) 0.1477(4)
N3H N 0.0536(6) 0.5395(6) 0.1891(6)
C1U C 0.0449(4) 0.4898(4) -0.0552(4)
C2U C 0.0938(5) 0.4770(5) -0.1141(5)
H1U H 0.0693 0.4569 -0.1519
H2U H 0.1131 0.5198 -0.1292
C3U C 0.1635(6) 0.3709(7) -0.1155(6)
H3U H 0.1423 0.3487 -0.1515
C4U C 0.2286(7) 0.3951(7) -0.0357(8)
H4U H 0.2644 0.3927 -0.0048
N1U N 0.2149(5) 0.3461(5) -0.0787(8)
N2U N 0.1477(4) 0.4317(4) -0.0924(5)
N3U N 0.1891(6) 0.4464(6) -0.0395(6)
C1Z C 0.0552(4) 0.5449(4) -0.0102(4)
C2Z C 0.1141(5) 0.5938(5) -0.0230(5)
H1Z H 0.1519 0.5693 -0.0431
H2Z H 0.1292 0.6131 0.0198
C3Z C 0.1155(6) 0.6635(6) -0.1291(7)
H3Z H 0.1515 0.6423 -0.1513
C4Z C 0.0357(8) 0.7286(7) -0.1049(7)
H4Z H 0.0048 0.7644 -0.1073
N1Z N 0.0787(8) 0.7149(5) -0.1539(5)
N2Z N 0.0924(5) 0.6477(4) -0.0683(4)
N3Z N 0.0395(6) 0.6891(6) -0.0536(6)
Cu1C Cu 0.2500 -0.0674(3) 0.2500
Mo1C Mo 0.2500 0.13181(15) 0.2500
C1C C 0.0449(4) -0.0552(4) 0.0102(4)
C2C C 0.0938(5) -0.1141(5) 0.0230(5)
H1C H 0.0693 -0.1519 0.0431
H2C H 0.1131 -0.1292 -0.0198
C3C C 0.1635(6) -0.1155(6) 0.1291(7)
H3C H 0.1423 -0.1515 0.1513
C4C C 0.2286(7) -0.0357(8) 0.1049(7)
H4C H 0.2644 -0.0048 0.1073
N1C N 0.2149(5) -0.0787(8) 0.1539(5)
N2C N 0.1477(4) -0.0924(5) 0.0683(4)
N3C N 0.1891(6) -0.0395(6) 0.0536(6)
O1C O 0.2500 0.0493(8) 0.2500
O2C O 0.2500 0.1501(5) 0.1501(5)
C1GA C 0.0552(4) -0.0102(4) -0.0449(4)
C2GA C 0.1141(5) -0.0230(5) -0.0938(5)
H1GA H 0.1519 -0.0431 -0.0693
H2GA H 0.1292 0.0198 -0.1131
C3GA C 0.1155(6) -0.1291(7) -0.1635(6)
H3GA H 0.1515 -0.1513 -0.1423
C4GA C 0.0357(8) -0.1049(7) -0.2286(7)
H4GA H 0.0048 -0.1073 -0.2644
N1GA N 0.0787(8) -0.1539(5) -0.2149(5)
N2GA N 0.0924(5) -0.0683(4) -0.1477(4)
N3GA N 0.0395(6) -0.0536(6) -0.1891(6)
C1QA C -0.0102(4) -0.0449(4) 0.0552(4)
C2QA C -0.0230(5) -0.0938(5) 0.1141(5)
H1QA H -0.0431 -0.0693 0.1519
H2QA H 0.0198 -0.1131 0.1292
C3QA C -0.1291(7) -0.1635(6) 0.1155(6)
H3QA H -0.1513 -0.1423 0.1515
C4QA C -0.1049(7) -0.2286(7) 0.0357(8)
H4QA H -0.1073 -0.2644 0.0048
N1QA N -0.1539(5) -0.2149(5) 0.0787(8)
N2QA N -0.0683(4) -0.1477(4) 0.0924(5)
N3QA N -0.0536(6) -0.1891(6) 0.0395(6)
C1I C -0.0552(4) 0.0102(4) 0.0449(4)
C2I C -0.1141(5) 0.0230(5) 0.0938(5)
H1I H -0.1519 0.0431 0.0693
H2I H -0.1292 -0.0198 0.1131
C3I C -0.1155(6) 0.1291(7) 0.1635(6)
H3I H -0.1515 0.1513 0.1423
C4I C -0.0357(8) 0.1049(7) 0.2286(7)
H4I H -0.0048 0.1073 0.2644
N1I N -0.0787(8) 0.1539(5) 0.2149(5)
N2I N -0.0924(5) 0.0683(4) 0.1477(4)
N3I N -0.0395(6) 0.0536(6) 0.1891(6)
C1S C 0.0102(4) 0.0449(4) -0.0552(4)
C2S C 0.0230(5) 0.0938(5) -0.1141(5)
H1S H 0.0431 0.0693 -0.1519
H2S H -0.0198 0.1131 -0.1292
C3S C 0.1291(7) 0.1635(6) -0.1155(6)
H3S H 0.1513 0.1423 -0.1515
C4S C 0.1049(7) 0.2286(7) -0.0357(8)
H4S H 0.1073 0.2644 -0.0048
N1S N 0.1539(5) 0.2149(5) -0.0787(8)
N2S N 0.0683(4) 0.1477(4) -0.0924(5)
N3S N 0.0536(6) 0.1891(6) -0.0395(6)
C1AA C -0.0449(4) 0.0552(4) -0.0102(4)
C2AA C -0.0938(5) 0.1141(5) -0.0230(5)
H1AA H -0.0693 0.1519 -0.0431
H2AA H -0.1131 0.1292 0.0198
C3AA C -0.1635(6) 0.1155(6) -0.1291(7)
H3AA H -0.1423 0.1515 -0.1513
C4AA C -0.2286(7) 0.0357(8) -0.1049(7)
H4AA H -0.2644 0.0048 -0.1073
N1AA N -0.2149(5) 0.0787(8) -0.1539(5)
N2AA N -0.1477(4) 0.0924(5) -0.0683(4)
N3AA N -0.1891(6) 0.0395(6) -0.0536(6)
O2D O 0.3499(5) 0.2500 0.3499(5)
O2E O 0.2500 0.3499(5) 0.3499(5)
O2F O 0.1501(5) 0.2500 0.3499(5)
O2G O 0.2500 0.1501(5) 0.3499(5)
O2H O 0.1501(5) 0.3499(5) 0.2500
O2I O 0.1501(5) 0.1501(5) 0.2500
O2J O 0.3499(5) 0.1501(5) 0.2500
O2K O 0.3499(5) 0.3499(5) 0.2500
Cu1P Cu 0.2500 0.2500 0.5674(3)
Mo1P Mo 0.2500 0.2500 0.36819(15)
O1P O 0.2500 0.2500 0.4507(8)
Cu1Q Cu 0.2500 0.2500 -0.0674(3)
Mo1Q Mo 0.2500 0.2500 0.13181(15)
O1Q O 0.2500 0.2500 0.0493(8)
Cu1X Cu 0.4326(3) -0.2500 -0.2500
Cu1X_2 Cu 0.4326(3) 0.7500 -0.2500
Cu1Y Cu -0.2500 0.4326(3) -0.2500
Cu1Y_2 Cu 0.7500 0.4326(3) -0.2500
Cu1Z Cu 0.0674(3) -0.2500 -0.2500
Cu1Z_2 Cu 0.0674(3) 0.7500 -0.2500
Cu1AA Cu -0.2500 0.0674(3) -0.2500
Cu1AA_2 Cu 0.7500 0.0674(3) -0.2500
Cu1OA Cu -0.2500 -0.2500 0.0674(3)
Cu1OA_2 Cu -0.2500 0.7500 0.0674(3)
Cu1OA_3 Cu 0.7500 -0.2500 0.0674(3)
Cu1OA_4 Cu 0.7500 0.7500 0.0674(3)
N1D N 0.5787(8) 0.2851(5) 0.3461(5)
N1E N 0.2149(5) 0.5787(8) 0.3461(5)
N1F N -0.0787(8) 0.2149(5) 0.3461(5)
N1G N 0.2851(5) -0.0787(8) 0.3461(5)
N1L N 0.1539(5) -0.0787(8) 0.2851(5)
N1M N 0.5787(8) 0.1539(5) 0.2851(5)
N1N N 0.3461(5) 0.5787(8) 0.2851(5)
N1O N -0.0787(8) 0.3461(5) 0.2851(5)
N1P N 0.2149(5) 0.1539(5) 0.5787(8)
N1R N 0.3461(5) 0.2149(5) 0.5787(8)
N1T N 0.1539(5) 0.2851(5) 0.5787(8)
N1V N 0.2851(5) 0.3461(5) 0.5787(8)
Cu2? Cu 0.6066(5) 0.2500 0.2500
loop_
_geom_bond_atom_site_label_1
_geom_bond_atom_site_label_2
_geom_bond_site_symmetry_1
_geom_bond_site_symmetry_2
Cu1 N1 1_555 1_555
Mo1 O1 1_555 1_555
C1 C2 1_555 1_555
C2 H1 1_555 1_555
H2 C2 1_555 1_555
C3 H3 1_555 1_555
C4 H4 1_555 1_555
N1 C3 1_555 1_555
N2 C2 1_555 1_555
N3 C4 1_555 1_555
O1 Cu1 1_555 1_555
O2 Mo1 1_555 1_555
O3 Mo1 1_555 1_555
Mo2 O4 1_555 1_555
C1HA C1 1_555 1_555
C2HA C1HA 1_555 1_555
H1HA C2HA 1_555 1_555
H2HA C2HA 1_555 1_555
C3HA H3HA 1_555 1_555
C4HA H4HA 1_555 1_555
N1HA C3HA 1_555 1_555
N2HA C2HA 1_555 1_555
N3HA C4HA 1_555 1_555
C1UA C1 1_555 1_555
C2UA C1UA 1_555 1_555
H1UA C2UA 1_555 1_555
H2UA C2UA 1_555 1_555
C3UA H3UA 1_555 1_555
C4UA H4UA 1_555 1_555
N1UA C3UA 1_555 1_555
N2UA C2UA 1_555 1_555
N3UA C4UA 1_555 1_555
C1J C1UA 1_555 1_555
C2J C1J 1_555 1_555
H1J C2J 1_555 1_555
H2J C2J 1_555 1_555
C3J H3J 1_555 1_555
C4J H4J 1_555 1_555
N1J C3J 1_555 1_555
N2J C2J 1_555 1_555
N3J C4J 1_555 1_555
C1W C1HA 1_555 1_555
C2W C1W 1_555 1_555
H1W C2W 1_555 1_555
H2W C2W 1_555 1_555
C3W H3W 1_555 1_555
C4W H4W 1_555 1_555
N1W C3W 1_555 1_555
N2W C2W 1_555 1_555
N3W C4W 1_555 1_555
C1X C1J 1_555 1_555
C2X C1X 1_555 1_555
H1X C2X 1_555 1_555
H2X C2X 1_555 1_555
C3X H3X 1_555 1_555
C4X H4X 1_555 1_555
N1X C3X 1_555 1_555
N2X C2X 1_555 1_555
N3X C4X 1_555 1_555
Cu1A N1A 1_555 1_555
Mo1A O3 1_555 1_555
C1A C2A 1_555 1_555
C2A H1A 1_555 1_555
H2A C2A 1_555 1_555
C3A H3A 1_555 1_555
C4A H4A 1_555 1_555
N1A C3A 1_555 1_555
N2A C2A 1_555 1_555
N3A C4A 1_555 1_555
O1A Cu1A 1_555 1_555
O2A Mo1A 1_555 1_555
C1IA C1A 1_555 1_555
C2IA C1IA 1_555 1_555
H1IA C2IA 1_555 1_555
H2IA C2IA 1_555 1_555
C3IA H3IA 1_555 1_555
C4IA H4IA 1_555 1_555
N1IA C3IA 1_555 1_555
N2IA C2IA 1_555 1_555
N3IA C4IA 1_555 1_555
C1OA C1A 1_555 1_555
C2OA C1OA 1_555 1_555
H1OA C2OA 1_555 1_555
H2OA C2OA 1_555 1_555
C3OA H3OA 1_555 1_555
C4OA H4OA 1_555 1_555
N1OA C3OA 1_555 1_555
N2OA C2OA 1_555 1_555
N3OA C4OA 1_555 1_555
C1K C1OA 1_555 1_555
C2K C1K 1_555 1_555
H1K C2K 1_555 1_555
H2K C2K 1_555 1_555
C3K H3K 1_555 1_555
C4K H4K 1_555 1_555
N1K Cu1 1_555 1_555
N2K C2K 1_555 1_555
N3K C4K 1_555 1_555
C1Q C1IA 1_555 1_555
C2Q C1Q 1_555 1_555
H1Q C2Q 1_555 1_555
H2Q C2Q 1_555 1_555
C3Q H3Q 1_555 1_555
C4Q H4Q 1_555 1_555
N1Q C3Q 1_555 1_555
N2Q C2Q 1_555 1_555
N3Q C4Q 1_555 1_555
C1Y C1K 1_555 1_555
C2Y C1Y 1_555 1_555
H1Y C2Y 1_555 1_555
H2Y C2Y 1_555 1_555
C3Y H3Y 1_555 1_555
C4Y H4Y 1_555 1_555
N1Y C3Y 1_555 1_555
N2Y C2Y 1_555 1_555
N3Y C4Y 1_555 1_555
Cu1B N1B 1_555 1_555
Mo1B O3 1_555 1_555
C1B C2B 1_555 1_555
C2B H1B 1_555 1_555
H2B C2B 1_555 1_555
C3B H3B 1_555 1_555
C4B H4B 1_555 1_555
N1B C3B 1_555 1_555
N2B C2B 1_555 1_555
N3B C4B 1_555 1_555
O1B Cu1B 1_555 1_555
O2B Mo1B 1_555 1_555
C1FA C1B 1_555 1_555
C2FA C1FA 1_555 1_555
H1FA C2FA 1_555 1_555
H2FA C2FA 1_555 1_555
C3FA H3FA 1_555 1_555
C4FA H4FA 1_555 1_555
N1FA C3FA 1_555 1_555
N2FA C2FA 1_555 1_555
N3FA C4FA 1_555 1_555
C1SA C1B 1_555 1_555
C2SA C1SA 1_555 1_555
H1SA C2SA 1_555 1_555
H2SA C2SA 1_555 1_555
C3SA H3SA 1_555 1_555
C4SA H4SA 1_555 1_555
N1SA C3SA 1_555 1_555
N2SA C2SA 1_555 1_555
N3SA C4SA 1_555 1_555
C1H C1SA 1_555 1_555
C2H C1H 1_555 1_555
H1H C2H 1_555 1_555
H2H C2H 1_555 1_555
C3H H3H 1_555 1_555
C4H H4H 1_555 1_555
N1H Cu1A 1_555 1_555
N2H C2H 1_555 1_555
N3H C4H 1_555 1_555
C1U C1FA 1_555 1_555
C2U C1U 1_555 1_555
H1U C2U 1_555 1_555
H2U C2U 1_555 1_555
C3U H3U 1_555 1_555
C4U H4U 1_555 1_555
N1U C3U 1_555 1_555
N2U C2U 1_555 1_555
N3U C4U 1_555 1_555
C1Z C1H 1_555 1_555
C2Z C1Z 1_555 1_555
H1Z C2Z 1_555 1_555
H2Z C2Z 1_555 1_555
C3Z H3Z 1_555 1_555
C4Z H4Z 1_555 1_555
N1Z C3Z 1_555 1_555
N2Z C2Z 1_555 1_555
N3Z C4Z 1_555 1_555
Cu1C N1J 1_555 1_555
Mo1C O3 1_555 1_555
C1C C2C 1_555 1_555
C2C H1C 1_555 1_555
H2C C2C 1_555 1_555
C3C H3C 1_555 1_555
C4C H4C 1_555 1_555
N1C Cu1C 1_555 1_555
N2C C2C 1_555 1_555
N3C C4C 1_555 1_555
O1C Cu1C 1_555 1_555
O2C Mo1C 1_555 1_555
C1GA C1C 1_555 1_555
C2GA C1GA 1_555 1_555
H1GA C2GA 1_555 1_555
H2GA C2GA 1_555 1_555
C3GA H3GA 1_555 1_555
C4GA H4GA 1_555 1_555
N1GA C3GA 1_555 1_555
N2GA C2GA 1_555 1_555
N3GA C4GA 1_555 1_555
C1QA C1C 1_555 1_555
C2QA C1QA 1_555 1_555
H1QA C2QA 1_555 1_555
H2QA C2QA 1_555 1_555
C3QA H3QA 1_555 1_555
C4QA H4QA 1_555 1_555
N1QA C3QA 1_555 1_555
N2QA C2QA 1_555 1_555
N3QA C4QA 1_555 1_555
C1I C1QA 1_555 1_555
C2I C1I 1_555 1_555
H1I C2I 1_555 1_555
H2I C2I 1_555 1_555
C3I H3I 1_555 1_555
C4I H4I 1_555 1_555
N1I Cu1B 1_555 1_555
N2I C2I 1_555 1_555
N3I C4I 1_555 1_555
C1S C1GA 1_555 1_555
C2S C1S 1_555 1_555
H1S C2S 1_555 1_555
H2S C2S 1_555 1_555
C3S H3S 1_555 1_555
C4S H4S 1_555 1_555
N1S C3S 1_555 1_555
N2S C2S 1_555 1_555
N3S C4S 1_555 1_555
C1AA C1I 1_555 1_555
C2AA C1AA 1_555 1_555
H1AA C2AA 1_555 1_555
H2AA C2AA 1_555 1_555
C3AA H3AA 1_555 1_555
C4AA H4AA 1_555 1_555
N1AA C3AA 1_555 1_555
N2AA C2AA 1_555 1_555
N3AA C4AA 1_555 1_555
O2D Mo1 1_555 1_555
O2E Mo1A 1_555 1_555
O2F Mo1B 1_555 1_555
O2G Mo1C 1_555 1_555
O2H Mo1A 1_555 1_555
O2I Mo1B 1_555 1_555
O2J Mo1 1_555 1_555
O2K Mo1 1_555 1_555
Cu1P O1P 1_555 1_555
Mo1P O3 1_555 1_555
O1P Mo1P 1_555 1_555
Cu1Q N1W 1_555 1_555
Mo1Q O2 1_555 1_555
O1Q Cu1Q 1_555 1_555
Cu1X N1X 1_555 1_555
Cu1X_2 N1IA 1_555 1_555
Cu1Y N1FA 1_555 1_555
Cu1Y_2 N1Y 1_555 1_555
Cu1Z N1GA 1_555 1_555
Cu1Z_2 N1Z 1_555 1_555
Cu1AA N1AA 1_555 1_555
Cu1AA_2 N1HA 1_555 1_555
Cu1OA N1QA 1_555 1_555
Cu1OA_2 N1SA 1_555 1_555
Cu1OA_3 N1UA 1_555 1_555
Cu1OA_4 N1OA 1_555 1_555
N1D Cu1 1_555 1_555
N1E Cu1A 1_555 1_555
N1F Cu1B 1_555 1_555
N1G Cu1C 1_555 1_555
N1L Cu1C 1_555 1_555
N1M Cu1 1_555 1_555
N1N Cu1A 1_555 1_555
N1O Cu1B 1_555 1_555
N1P Cu1P 1_555 1_555
N1R Cu1P 1_555 1_555
N1T Cu1P 1_555 1_555
N1V Cu1P 1_555 1_555
O4B Mo2 1_555 1_555
O4Y Mo2 1_555 1_555
O4AA Mo2 1_555 1_555
C3 N2 1_555 1_555
C4 N1 1_555 1_555
N2 N3 1_555 1_555
O3 Mo1Q 1_555 1_555
C3HA N2HA 1_555 1_555
C4HA N1HA 1_555 1_555
N2HA N3HA 1_555 1_555
C3UA N2UA 1_555 1_555
C4UA N1UA 1_555 1_555
N2UA N3UA 1_555 1_555
C3J N2J 1_555 1_555
C4J N1J 1_555 1_555
N2J N3J 1_555 1_555
C1W C1X 1_555 1_555
C3W N2W 1_555 1_555
C4W N1W 1_555 1_555
N2W N3W 1_555 1_555
C3X N2X 1_555 1_555
C4X N1X 1_555 1_555
N2X N3X 1_555 1_555
Mo1A O1A 1_555 1_555
Mo1A O2K 1_555 1_555
C3A N2A 1_555 1_555
C4A N1A 1_555 1_555
N2A N3A 1_555 1_555
O2A Mo1Q 1_555 1_555
C3IA N2IA 1_555 1_555
C4IA N1IA 1_555 1_555
N2IA N3IA 1_555 1_555
C3OA N2OA 1_555 1_555
C4OA N1OA 1_555 1_555
N2OA N3OA 1_555 1_555
C3K N1K 1_555 1_555
C3K N2K 1_555 1_555
C4K N1K 1_555 1_555
N2K N3K 1_555 1_555
C1Q C1Y 1_555 1_555
C3Q N2Q 1_555 1_555
C4Q N1Q 1_555 1_555
N1Q Cu1Q 1_555 1_555
N2Q N3Q 1_555 1_555
C3Y N2Y 1_555 1_555
C4Y N1Y 1_555 1_555
N2Y N3Y 1_555 1_555
Mo1B O1B 1_555 1_555
Mo1B O2H 1_555 1_555
C3B N2B 1_555 1_555
C4B N1B 1_555 1_555
N2B N3B 1_555 1_555
O2B Mo1Q 1_555 1_555
C3FA N2FA 1_555 1_555
C4FA N1FA 1_555 1_555
N2FA N3FA 1_555 1_555
C3SA N2SA 1_555 1_555
C4SA N1SA 1_555 1_555
N2SA N3SA 1_555 1_555
C3H N1H 1_555 1_555
C3H N2H 1_555 1_555
C4H N1H 1_555 1_555
N2H N3H 1_555 1_555
C1U C1Z 1_555 1_555
C3U N2U 1_555 1_555
C4U N1U 1_555 1_555
N1U Cu1Q 1_555 1_555
N2U N3U 1_555 1_555
C3Z N2Z 1_555 1_555
C4Z N1Z 1_555 1_555
N2Z N3Z 1_555 1_555
Mo1C O1C 1_555 1_555
Mo1C O2I 1_555 1_555
Mo1C O2J 1_555 1_555
C3C N1C 1_555 1_555
C3C N2C 1_555 1_555
C4C N1C 1_555 1_555
N2C N3C 1_555 1_555
O2C Mo1Q 1_555 1_555
C3GA N2GA 1_555 1_555
C4GA N1GA 1_555 1_555
N2GA N3GA 1_555 1_555
C3QA N2QA 1_555 1_555
C4QA N1QA 1_555 1_555
N2QA N3QA 1_555 1_555
C3I N1I 1_555 1_555
C3I N2I 1_555 1_555
C4I N1I 1_555 1_555
N2I N3I 1_555 1_555
C1S C1AA 1_555 1_555
C3S N2S 1_555 1_555
C4S N1S 1_555 1_555
N1S Cu1Q 1_555 1_555
N2S N3S 1_555 1_555
C3AA N2AA 1_555 1_555
C4AA N1AA 1_555 1_555
N2AA N3AA 1_555 1_555
O2D Mo1P 1_555 1_555
O2E Mo1P 1_555 1_555
O2F Mo1P 1_555 1_555
O2G Mo1P 1_555 1_555
Mo1Q O1Q 1_555 1_555

#END
