
#######################################################################
#
#                 Cambridge Crystallographic Data Centre
#                                CCDC 
#
#######################################################################
#
# If this CIF has been generated from an entry in the Cambridge 
# Structural Database, then it will include bibliographic, chemical, 
# crystal, experimental, refinement or atomic coordinate data resulting 
# from the CCDC's data processing and validation procedures.
#
#######################################################################

data_SETXEW
_symmetry_cell_setting           monoclinic
_symmetry_space_group_name_H-M   'C 2/c'
_symmetry_Int_Tables_number      15
_space_group_name_Hall           '-C 2yn'
loop_
_symmetry_equiv_pos_site_id
_symmetry_equiv_pos_as_xyz
1 x,y,z
2 -x,y,1/2-z
3 1/2+x,1/2+y,z
4 1/2-x,1/2+y,1/2-z
5 -x,-y,-z
6 x,-y,1/2+z
7 1/2-x,1/2-y,-z
8 1/2+x,1/2-y,1/2+z
_cell_length_a                   26.7741(7)
_cell_length_b                   10.0535(3)
_cell_length_c                   22.0865(7)
_cell_angle_alpha                90
_cell_angle_beta                 97.275(3)
_cell_angle_gamma                90
_cell_volume                     5897.24
loop_
_atom_site_label
_atom_site_type_symbol
_atom_site_fract_x
_atom_site_fract_y
_atom_site_fract_z
Zn1 Zn 0.10045(2) 0.66797(6) 0.49271(2)
Zn2 Zn 0.5000 0.5000 0.5000
Mo1 Mo 0.201300(14) 0.47477(4) 0.437397(19)
Mo2 Mo 0.307516(15) 0.54722(4) 0.519330(19)
Mo3 Mo 0.391588(14) 0.31742(4) 0.554357(18)
Mo4 Mo 0.294419(14) 0.23590(4) 0.450337(18)
Mo5 Mo 0.476257(14) 0.13720(4) 0.471728(18)
C1 C 0.02615(18) 0.5268(5) 0.7477(2)
C2 C 0.05180(18) 0.6477(5) 0.7467(2)
C3 C 0.02572(18) 0.7676(5) 0.7479(2)
C4 C 0.0523(2) 0.3956(5) 0.7438(2)
H1 H 0.0309 0.3356 0.7177
H2 H 0.0832 0.4084 0.7259
C5 C 0.07366(17) 0.3938(5) 0.8586(2)
H3 H 0.0736 0.4849 0.8656
C6 C 0.0791(2) 0.1874(6) 0.8696(3)
H4 H 0.0845 0.1046 0.8880
C7 C 0.1082(2) 0.6456(5) 0.7451(2)
H5 H 0.1238 0.7169 0.7704
H6 H 0.1219 0.5619 0.7617
C8 C 0.09203(19) 0.6486(5) 0.6294(2)
H7 H 0.0580 0.6267 0.6244
C9 C 0.1650(2) 0.6946(6) 0.6134(3)
H8 H 0.1924 0.7134 0.5928
C10 C 0.0541(2) 0.8968(5) 0.7461(2)
H9 H 0.0377 0.9645 0.7679
H10 H 0.0881 0.8853 0.7665
C11 C 0.0231(2) 0.9287(5) 0.6345(2)
H11 H -0.0073 0.8832 0.6331
C12 C 0.0831(2) 1.0401(6) 0.6112(3)
H12 H 0.1033 1.0899 0.5885
N1 N 0.08352(14) 0.3022(4) 0.90101(17)
N2 N 0.06386(16) 0.3373(4) 0.8047(2)
N3 N 0.06655(19) 0.2022(5) 0.8107(2)
N4 N 0.11856(15) 0.6711(4) 0.58476(18)
N5 N 0.12017(17) 0.6614(4) 0.6826(2)
N6 N 0.16813(19) 0.6886(5) 0.6736(2)
N7 N 0.03876(15) 0.9894(4) 0.58760(18)
N8 N 0.05612(16) 0.9410(4) 0.68348(18)
N9 N 0.0955(2) 1.0135(5) 0.6690(2)
H13 H 0.1223 1.0366 0.6923
O1 O 0.16771(12) 0.5798(3) 0.47939(16)
O2 O 0.17623(13) 0.4991(4) 0.36357(16)
O3 O 0.16920(11) 0.3158(3) 0.46026(15)
O4 O 0.26368(12) 0.5692(3) 0.44351(16)
O5 O 0.27700(13) 0.6368(3) 0.56798(17)
O6 O 0.35663(12) 0.6454(3) 0.50363(16)
O7 O 0.34553(12) 0.4382(3) 0.58321(14)
O8 O 0.43605(12) 0.4362(3) 0.53944(15)
O9 O 0.41681(13) 0.2466(4) 0.62128(16)
O10 O 0.41737(13) 0.1968(3) 0.49525(16)
O11 O 0.33905(11) 0.3774(3) 0.47071(14)
O12 O 0.32533(12) 0.1341(3) 0.40722(16)
O13 O 0.24879(11) 0.1177(3) 0.48538(14)
O14 O 0.25070(12) 0.3167(3) 0.39646(15)
O15 O 0.51190(13) 0.2824(3) 0.48955(17)
O16 O 0.46580(13) 0.1224(4) 0.39483(16)
O17 O 0.45931(12) -0.0394(3) 0.50569(16)
C1A C -0.02615(18) 0.5268(5) 0.7523(2)
C2A C -0.05180(18) 0.6477(5) 0.7533(2)
C3A C -0.02572(18) 0.7676(5) 0.7521(2)
C4A C -0.0523(2) 0.3956(5) 0.7562(2)
H1A H -0.0309 0.3356 0.7823
H2A H -0.0832 0.4084 0.7741
C5A C -0.07366(17) 0.3938(5) 0.6414(2)
H3A H -0.0736 0.4849 0.6344
C6A C -0.0791(2) 0.1874(6) 0.6304(3)
H4A H -0.0845 0.1046 0.6120
C7A C -0.1082(2) 0.6456(5) 0.7549(2)
H5A H -0.1238 0.7169 0.7296
H6A H -0.1219 0.5619 0.7383
C8A C -0.09203(19) 0.6486(5) 0.8706(2)
H7A H -0.0580 0.6267 0.8756
C9A C -0.1650(2) 0.6946(6) 0.8866(3)
H8A H -0.1924 0.7134 0.9072
C10A C -0.0541(2) 0.8968(5) 0.7539(2)
H9A H -0.0377 0.9645 0.7321
H10A H -0.0881 0.8853 0.7335
C11A C -0.0231(2) 0.9287(5) 0.8655(2)
H11A H 0.0073 0.8832 0.8669
C12A C -0.0831(2) 1.0401(6) 0.8888(3)
H12A H -0.1033 1.0899 0.9115
N1A N -0.08352(14) 0.3022(4) 0.59899(17)
N2A N -0.06386(16) 0.3373(4) 0.6953(2)
N3A N -0.06655(19) 0.2022(5) 0.6893(2)
N4A N -0.11856(15) 0.6711(4) 0.91524(18)
N5A N -0.12017(17) 0.6614(4) 0.8174(2)
N6A N -0.16813(19) 0.6886(5) 0.8264(2)
N7A N -0.03876(15) 0.9894(4) 0.91240(18)
N8A N -0.05612(16) 0.9410(4) 0.81652(18)
N9A N -0.0955(2) 1.0135(5) 0.8310(2)
H13A H -0.1223 1.0366 0.8077
Zn1A Zn -0.10045(2) 0.66797(6) 1.00729(2)
Mo1A Mo -0.201300(14) 0.47477(4) 1.062603(19)
Mo2A Mo -0.307516(15) 0.54722(4) 0.980670(19)
Mo3A Mo -0.391588(14) 0.31742(4) 0.945643(18)
Mo4A Mo -0.294419(14) 0.23590(4) 1.049663(18)
Mo5A Mo -0.476257(14) 0.13720(4) 1.028272(18)
O1A O -0.16771(12) 0.5798(3) 1.02061(16)
O2A O -0.17623(13) 0.4991(4) 1.13643(16)
O3A O -0.16920(11) 0.3158(3) 1.03974(15)
O4A O -0.26368(12) 0.5692(3) 1.05649(16)
O5A O -0.27700(13) 0.6368(3) 0.93202(17)
O6A O -0.35663(12) 0.6454(3) 0.99637(16)
O7A O -0.34553(12) 0.4382(3) 0.91679(14)
O8A O -0.43605(12) 0.4362(3) 0.96056(15)
O9A O -0.41681(13) 0.2466(4) 0.87872(16)
O10A O -0.41737(13) 0.1968(3) 1.00475(16)
O11A O -0.33905(11) 0.3774(3) 1.02929(14)
O12A O -0.32533(12) 0.1341(3) 1.09278(16)
O13A O -0.24879(11) 0.1177(3) 1.01462(14)
O14A O -0.25070(12) 0.3167(3) 1.10354(15)
O15A O -0.51190(13) 0.2824(3) 1.01045(17)
O16A O -0.46580(13) 0.1224(4) 1.10517(16)
O17A O -0.45931(12) -0.0394(3) 0.99431(16)
Zn1B Zn 0.60045(2) 0.16797(6) 0.49271(2)
Zn1C Zn -0.60045(2) 0.16797(6) 1.00729(2)
Zn1D Zn -0.10045(2) 0.33203(6) 0.50729(2)
Zn1E Zn 0.10045(2) 0.33203(6) 0.99271(2)
Zn1F Zn 0.39955(2) -0.16797(6) 0.50729(2)
Zn1F_2 Zn 0.39955(2) 0.83203(6) 0.50729(2)
Zn1G Zn -0.39955(2) -0.16797(6) 0.99271(2)
Zn1G_2 Zn -0.39955(2) 0.83203(6) 0.99271(2)
Zn2A Zn -0.5000 0.5000 1.0000
Zn2B Zn 0.0000 1.0000 0.5000
Zn2C Zn 0.0000 1.0000 1.0000
Mo1F Mo 0.298700(14) 0.02523(4) 0.562603(19)
Mo1G Mo -0.298700(14) 0.02523(4) 0.937397(19)
Mo2F Mo 0.192484(15) -0.04722(4) 0.480670(19)
Mo2G Mo -0.192484(15) -0.04722(4) 1.019330(19)
Mo3F Mo 0.108412(14) 0.18258(4) 0.445643(18)
Mo3G Mo -0.108412(14) 0.18258(4) 1.054357(18)
Mo4F Mo 0.205581(14) 0.26410(4) 0.549663(18)
Mo4G Mo -0.205581(14) 0.26410(4) 0.950337(18)
Mo5B Mo -0.023743(14) 0.63720(4) 0.471728(18)
Mo5C Mo 0.023743(14) 0.63720(4) 1.028272(18)
Mo5D Mo 0.523743(14) -0.13720(4) 0.528272(18)
Mo5E Mo -0.523743(14) -0.13720(4) 0.971728(18)
N1D N -0.08352(14) 0.6978(4) 1.09899(17)
N1E N 0.08352(14) 0.6978(4) 0.40101(17)
N7B N 0.53876(15) 0.4894(4) 0.58760(18)
N7F N 0.46124(15) 0.5106(4) 0.41240(18)
O3F O 0.33080(11) 0.1842(3) 0.53974(15)
O3G O -0.33080(11) 0.1842(3) 0.96026(15)
O6F O 0.14337(12) 0.8546(3) 0.49637(16)
O6G O -0.14337(12) 0.8546(3) 1.00363(16)
O8D O 0.56395(12) 0.5638(3) 0.46056(15)
O13F O 0.25121(11) 0.3823(3) 0.51462(14)
O13G O -0.25121(11) 0.3823(3) 0.98538(14)
O15D O 0.48810(13) 0.7176(3) 0.51045(17)
O17D O 0.54069(12) 0.0394(3) 0.49431(16)
O17E O -0.54069(12) 0.0394(3) 1.00569(16)
O17F O 0.04069(12) 0.5394(3) 0.49431(16)
O17G O -0.04069(12) 0.5394(3) 1.00569(16)
O18 O 0.1911(2) 0.8741(6) 0.8090(2)
O19 O 0.1793(5) 0.6156(12) 0.2220(5)
O21 O 0.2181(5) 0.7859(14) 0.3057(6)
O23 O 0.2424(9) 1.039(2) 0.7263(11)
O24 O 0.2280(7) 0.8279(19) 0.7371(8)
O20? O 0.1534(7) 0.725(2) 0.2073(8)
O22? O 0.2162(6) 0.9783(15) 0.6924(7)
loop_
_geom_bond_atom_site_label_1
_geom_bond_atom_site_label_2
_geom_bond_site_symmetry_1
_geom_bond_site_symmetry_2
Zn1 N4 1_555 1_555
Zn2 O8 1_555 1_555
Mo1 O1 1_555 1_555
Mo2 O4 1_555 1_555
Mo3 O7 1_555 1_555
Mo4 O11 1_555 1_555
Mo5 O10 1_555 1_555
C1 C2 1_555 1_555
C2 C3 1_555 1_555
C3 C10 1_555 1_555
C4 C1 1_555 1_555
H1 C4 1_555 1_555
H2 C4 1_555 1_555
C5 H3 1_555 1_555
C6 H4 1_555 1_555
C7 C2 1_555 1_555
H5 C7 1_555 1_555
H6 C7 1_555 1_555
C8 H7 1_555 1_555
C9 H8 1_555 1_555
C10 H9 1_555 1_555
H10 C10 1_555 1_555
C11 H11 1_555 1_555
C12 H12 1_555 1_555
N1 C5 1_555 1_555
N2 C4 1_555 1_555
N3 C6 1_555 1_555
N4 C8 1_555 1_555
N5 C7 1_555 1_555
N6 C9 1_555 1_555
N7 C11 1_555 1_555
N8 C10 1_555 1_555
N9 C12 1_555 1_555
H13 N9 1_555 1_555
O1 Zn1 1_555 1_555
O2 Mo1 1_555 1_555
O3 Mo1 1_555 1_555
O4 Mo1 1_555 1_555
O5 Mo2 1_555 1_555
O6 Mo2 1_555 1_555
O7 Mo2 1_555 1_555
O8 Mo3 1_555 1_555
O9 Mo3 1_555 1_555
O10 Mo3 1_555 1_555
O11 Mo2 1_555 1_555
O12 Mo4 1_555 1_555
O13 Mo4 1_555 1_555
O14 Mo1 1_555 1_555
O15 Zn2 1_555 1_555
O16 Mo5 1_555 1_555
O17 Mo5 1_555 1_555
C1A C1 1_555 1_555
C2A C1A 1_555 1_555
C3A C3 1_555 1_555
C4A C1A 1_555 1_555
H1A C4A 1_555 1_555
H2A C4A 1_555 1_555
C5A H3A 1_555 1_555
C6A H4A 1_555 1_555
C7A C2A 1_555 1_555
H5A C7A 1_555 1_555
H6A C7A 1_555 1_555
C8A H7A 1_555 1_555
C9A H8A 1_555 1_555
C10A C3A 1_555 1_555
H9A C10A 1_555 1_555
H10A C10A 1_555 1_555
C11A H11A 1_555 1_555
C12A H12A 1_555 1_555
N1A C5A 1_555 1_555
N2A C4A 1_555 1_555
N3A C6A 1_555 1_555
N4A C8A 1_555 1_555
N5A C7A 1_555 1_555
N6A C9A 1_555 1_555
N7A C11A 1_555 1_555
N8A C10A 1_555 1_555
N9A C12A 1_555 1_555
H13A N9A 1_555 1_555
Zn1A N4A 1_555 1_555
Mo1A O1A 1_555 1_555
Mo2A O4A 1_555 1_555
Mo3A O7A 1_555 1_555
Mo4A O11A 1_555 1_555
Mo5A O10A 1_555 1_555
O1A Zn1A 1_555 1_555
O2A Mo1A 1_555 1_555
O3A Mo1A 1_555 1_555
O4A Mo1A 1_555 1_555
O5A Mo2A 1_555 1_555
O6A Mo2A 1_555 1_555
O7A Mo2A 1_555 1_555
O8A Mo3A 1_555 1_555
O9A Mo3A 1_555 1_555
O10A Mo3A 1_555 1_555
O11A Mo2A 1_555 1_555
O12A Mo4A 1_555 1_555
O13A Mo4A 1_555 1_555
O14A Mo1A 1_555 1_555
O15A Mo5A 1_555 1_555
O16A Mo5A 1_555 1_555
O17A Mo5A 1_555 1_555
Zn1B Mo5 1_555 1_555
Zn1C Mo5A 1_555 1_555
Zn1D N1A 1_555 1_555
Zn1E N1 1_555 1_555
Zn1F O17 1_555 1_555
Zn1F_2 O6 1_555 1_555
Zn1G O17A 1_555 1_555
Zn1G_2 O6A 1_555 1_555
Zn2A O8A 1_555 1_555
Zn2B N7 1_555 1_555
Zn2C N7A 1_555 1_555
Mo1F O13 1_555 1_555
Mo1G O13A 1_555 1_555
Mo2F O13 1_555 1_555
Mo2G O13A 1_555 1_555
Mo3F O3 1_555 1_555
Mo3G O3A 1_555 1_555
Mo4F O3 1_555 1_555
Mo4G O3A 1_555 1_555
Mo5B Zn1 1_555 1_555
Mo5C Zn1A 1_555 1_555
Mo5D O17 1_555 1_555
Mo5E O17A 1_555 1_555
N1D Zn1A 1_555 1_555
N1E Zn1 1_555 1_555
N7B Zn2 1_555 1_555
N7F Zn2 1_555 1_555
O3F Mo3 1_555 1_555
O3G Mo3A 1_555 1_555
O6F Zn1 1_555 1_555
O6G Zn1A 1_555 1_555
O8D Zn2 1_555 1_555
O13F Mo1 1_555 1_555
O13G Mo1A 1_555 1_555
O15D Zn2 1_555 1_555
O17D Mo5 1_555 1_555
O17E Mo5A 1_555 1_555
O17F Zn1 1_555 1_555
O17G Zn1A 1_555 1_555
Mo2 O13F 1_555 1_555
Mo3 O11 1_555 1_555
Mo4 O14 1_555 1_555
Mo4 O3F 1_555 1_555
Mo4 O13F 1_555 1_555
Mo5 O15 1_555 1_555
C5 N2 1_555 1_555
C6 N1 1_555 1_555
C8 N5 1_555 1_555
C9 N4 1_555 1_555
C11 N8 1_555 1_555
C12 N7 1_555 1_555
N2 N3 1_555 1_555
N5 N6 1_555 1_555
N8 N9 1_555 1_555
O13 Mo4F 1_555 1_555
C2A C3A 1_555 1_555
C5A N2A 1_555 1_555
C6A N1A 1_555 1_555
C8A N5A 1_555 1_555
C9A N4A 1_555 1_555
C11A N8A 1_555 1_555
C12A N7A 1_555 1_555
N2A N3A 1_555 1_555
N5A N6A 1_555 1_555
N8A N9A 1_555 1_555
Mo2A O13G 1_555 1_555
Mo3A O11A 1_555 1_555
Mo4A O14A 1_555 1_555
Mo4A O3G 1_555 1_555
Mo4A O13G 1_555 1_555
O13A Mo4G 1_555 1_555
O15A Zn2A 1_555 1_555
Zn1B O17D 1_555 1_555
Zn1C O17E 1_555 1_555
Zn1F Mo5D 1_555 1_555
Zn1G Mo5E 1_555 1_555
Mo1F O3F 1_555 1_555
Mo1G O3G 1_555 1_555
Mo4F O13F 1_555 1_555
Mo4G O13G 1_555 1_555
Mo5B O17F 1_555 1_555
Mo5C O17G 1_555 1_555
Mo5D O17D 1_555 1_555
Mo5E O17E 1_555 1_555

#END
