
#######################################################################
#
#                 Cambridge Crystallographic Data Centre
#                                CCDC 
#
#######################################################################
#
# If this CIF has been generated from an entry in the Cambridge 
# Structural Database, then it will include bibliographic, chemical, 
# crystal, experimental, refinement or atomic coordinate data resulting 
# from the CCDC's data processing and validation procedures.
#
#######################################################################

data_SEVPAK
_symmetry_cell_setting           triclinic
_symmetry_space_group_name_H-M   'P -1'
_symmetry_Int_Tables_number      2
_space_group_name_Hall           '-P 1'
loop_
_symmetry_equiv_pos_site_id
_symmetry_equiv_pos_as_xyz
1 x,y,z
2 -x,-y,-z
_cell_length_a                   7.792(3)
_cell_length_b                   9.587(4)
_cell_length_c                   14.788(4)
_cell_angle_alpha                82.34(3)
_cell_angle_beta                 82.68(2)
_cell_angle_gamma                73.47(3)
_cell_volume                     1044.92
loop_
_atom_site_label
_atom_site_type_symbol
_atom_site_fract_x
_atom_site_fract_y
_atom_site_fract_z
Cu1 Cu 0.2747(1) 0.1367(1) 0.1824(1)
N1 N 0.0489(6) 0.1169(5) 0.2591(3)
O1 O 0.3266(6) -0.0532(4) 0.0864(3)
N2 N 0.3998(6) 0.0117(5) 0.2871(3)
N3 N 0.4956(7) 0.1845(5) 0.1121(4)
N4 N 0.1403(6) 0.2880(5) 0.0904(3)
C1 C 0.2701(8) 0.3185(6) 0.0142(4)
C2 C 0.2693(7) 0.0248(6) 0.3675(3)
C3 C 0.4372(8) 0.3205(6) 0.0519(4)
C4 C 0.0978(8) 0.0098(6) 0.3403(4)
Cu2 Cu 0.8266(1) 0.5402(1) 0.5094(1)
Cu3 Cu 0.5053(1) 0.6924(1) 0.4870(1)
S1 S 0.7442(2) 0.7836(1) 0.4334(1)
S2 S 0.9890(2) 0.4281(1) 0.3744(1)
S3 S 0.6747(2) 0.3846(1) 0.5906(1)
S4 S 0.3861(2) 0.7704(1) 0.6257(1)
O2 O 0.8293(5) 0.9170(4) 0.1941(3)
O3 O 0.4791(5) 0.2843(4) 0.8068(3)
C5 C 0.5284(6) 0.4645(5) 0.6771(3)
O4 O 0.2526(5) 0.6220(4) 0.8429(3)
C6 C 0.8422(6) 0.7296(5) 0.3304(3)
C7 C 0.4264(6) 0.6087(5) 0.6894(3)
O5 O 1.0679(6) 0.5942(4) 0.1439(3)
C8 C 0.8723(6) 0.7945(5) 0.2363(3)
C9 C 0.3539(6) 0.5614(5) 0.7825(3)
C10 C 0.4623(6) 0.4064(5) 0.7656(3)
C11 C 0.9420(6) 0.5879(5) 0.3077(3)
C12 C 0.9821(7) 0.6435(5) 0.2122(3)
Cu2A Cu 1.1734(1) 0.4598(1) 0.4906(1)
Cu3A Cu 0.4947(1) 0.3076(1) 0.5130(1)
S2A S 1.0110(2) 0.5719(1) 0.6256(1)
S3A S 0.3253(2) 0.6154(1) 0.4094(1)
O6 O 0.9374(6) 0.1552(6) 0.9738(3)
loop_
_geom_bond_atom_site_label_1
_geom_bond_atom_site_label_2
_geom_bond_site_symmetry_1
_geom_bond_site_symmetry_2
Cu1 N1 1_555 1_555
N1 C4 1_555 1_555
O1 Cu1 1_555 1_555
N2 Cu1 1_555 1_555
N3 Cu1 1_555 1_555
N4 Cu1 1_555 1_555
C1 N4 1_555 1_555
C2 N2 1_555 1_555
C3 N3 1_555 1_555
C4 C2 1_555 1_555
Cu2 Cu3 1_555 1_555
Cu3 S1 1_555 1_555
S1 Cu2 1_555 1_555
S2 Cu2 1_555 1_555
S3 Cu2 1_555 1_555
S4 Cu3 1_555 1_555
O2 C8 1_555 1_555
O3 C10 1_555 1_555
C5 S3 1_555 1_555
O4 C9 1_555 1_555
C6 S1 1_555 1_555
C7 S4 1_555 1_555
O5 C12 1_555 1_555
C8 C6 1_555 1_555
C9 C7 1_555 1_555
C10 C5 1_555 1_555
C11 S2 1_555 1_555
C12 C8 1_555 1_555
Cu2A Cu2 1_555 1_555
Cu3A S3 1_555 1_555
S2A Cu2 1_555 1_555
S3A Cu3 1_555 1_555
C1 C3 1_555 1_555
S2 Cu2A 1_555 1_555
C5 C7 1_555 1_555
C6 C11 1_555 1_555
C9 C10 1_555 1_555
C11 C12 1_555 1_555
Cu2A S2A 1_555 1_555

#END
