
#######################################################################
#
#                 Cambridge Crystallographic Data Centre
#                                CCDC 
#
#######################################################################
#
# If this CIF has been generated from an entry in the Cambridge 
# Structural Database, then it will include bibliographic, chemical, 
# crystal, experimental, refinement or atomic coordinate data resulting 
# from the CCDC's data processing and validation procedures.
#
#######################################################################

data_SEVSUI01
_symmetry_cell_setting           orthorhombic
_symmetry_space_group_name_H-M   'P 21 21 21'
_symmetry_Int_Tables_number      19
_space_group_name_Hall           'P 2ac 2ab'
loop_
_symmetry_equiv_pos_site_id
_symmetry_equiv_pos_as_xyz
1 x,y,z
2 1/2-x,-y,1/2+z
3 1/2+x,1/2-y,-z
4 -x,1/2+y,1/2-z
_cell_length_a                   5.0564(3)
_cell_length_b                   7.2691(4)
_cell_length_c                   20.1787(11)
_cell_angle_alpha                90
_cell_angle_beta                 90
_cell_angle_gamma                90
_cell_volume                     741.678
loop_
_atom_site_label
_atom_site_type_symbol
_atom_site_fract_x
_atom_site_fract_y
_atom_site_fract_z
Ag1 Ag 0.91973(4) 0.13285(3) 0.294821(10)
S1 S 0.65177(12) -0.01633(8) 0.18503(3)
O1 O 0.8403(4) 0.3672(3) 0.20742(9)
O2 O 0.5292(4) 0.5070(3) 0.14879(11)
N1 N 0.8370(5) 0.0953(3) 0.06804(10)
N2 N 1.0474(4) -0.1580(3) 0.12029(10)
C1 C 0.8669(4) -0.0238(3) 0.11715(11)
C2 C 1.0064(6) 0.0781(4) 0.01746(13)
H1 H 0.9924 0.1589 -0.0181
C3 C 1.2003(6) -0.0542(4) 0.01600(13)
H2 H 1.3168 -0.0642 -0.0195
C4 C 0.6278(5) 0.3713(4) 0.17497(11)
C5 C 1.2141(5) -0.1705(4) 0.06916(13)
H3 H 1.3438 -0.2612 0.0697
C6 C 0.4714(5) 0.1921(3) 0.16937(12)
H4 H 0.3976 0.1851 0.1251
H5 H 0.3244 0.1979 0.2002
Ag1C Ag 1.08027(4) 0.63285(3) 0.205179(10)
Ag1C_2 Ag 1.08027(4) -0.36715(3) 0.205179(10)
O1C O 1.1597(4) -0.1328(3) 0.29258(9)
N2C N 0.9526(4) 0.3420(3) 0.37971(10)
loop_
_geom_bond_atom_site_label_1
_geom_bond_atom_site_label_2
_geom_bond_site_symmetry_1
_geom_bond_site_symmetry_2
Ag1 S1 1_555 1_555
S1 C1 1_555 1_555
O1 Ag1 1_555 1_555
O2 C4 1_555 1_555
N1 C1 1_555 1_555
N2 C1 1_555 1_555
C2 N1 1_555 1_555
H1 C2 1_555 1_555
C3 C2 1_555 1_555
H2 C3 1_555 1_555
C4 O1 1_555 1_555
C5 N2 1_555 1_555
H3 C5 1_555 1_555
C6 S1 1_555 1_555
H4 C6 1_555 1_555
H5 C6 1_555 1_555
Ag1C O1 1_555 1_555
Ag1C_2 N2 1_555 1_555
O1C Ag1 1_555 1_555
N2C Ag1 1_555 1_555
C3 C5 1_555 1_555
C4 C6 1_555 1_555
Ag1C_2 O1C 1_555 1_555

#END
