
#######################################################################
#
#                 Cambridge Crystallographic Data Centre
#                                CCDC 
#
#######################################################################
#
# If this CIF has been generated from an entry in the Cambridge 
# Structural Database, then it will include bibliographic, chemical, 
# crystal, experimental, refinement or atomic coordinate data resulting 
# from the CCDC's data processing and validation procedures.
#
#######################################################################

data_SEVSUI
_symmetry_cell_setting           orthorhombic
_symmetry_space_group_name_H-M   'P 21 21 21'
_symmetry_Int_Tables_number      19
_space_group_name_Hall           'P 2ac 2ab'
loop_
_symmetry_equiv_pos_site_id
_symmetry_equiv_pos_as_xyz
1 x,y,z
2 1/2-x,-y,1/2+z
3 1/2+x,1/2-y,-z
4 -x,1/2+y,1/2-z
_cell_length_a                   7.2966(12)
_cell_length_b                   5.0707(9)
_cell_length_c                   20.238(3)
_cell_angle_alpha                90
_cell_angle_beta                 90
_cell_angle_gamma                90
_cell_volume                     748.783
loop_
_atom_site_label
_atom_site_type_symbol
_atom_site_fract_x
_atom_site_fract_y
_atom_site_fract_z
Ag1 Ag 0.88281(9) 0.16981(13) -0.04484(3)
S1 S 0.7334(3) -0.0984(4) 0.06505(10)
O1 O 1.2571(8) -0.2210(14) 0.1016(3)
O2 O 1.1158(8) 0.0917(12) 0.0422(3)
N1 N 0.5915(8) 0.2978(13) 0.1296(3)
N2 N 0.8463(10) 0.0863(15) 0.1814(3)
C1 C 0.5778(12) 0.4622(18) 0.1807(4)
H1 H 0.4860 0.5894 0.1806
C2 C 0.6961(13) 0.4492(19) 0.2341(4)
H2 H 0.6863 0.5649 0.2696
C3 C 0.8284(12) 0.2574(18) 0.2320(4)
H3 H 0.9097 0.2446 0.2672
C4 C 0.7263(10) 0.1160(15) 0.1328(4)
C5 C 0.9421(11) -0.2770(16) 0.0807(4)
H4 H 0.9353 -0.3497 0.1249
H5 H 0.9475 -0.4244 0.0502
C6 C 1.1206(12) -0.1235(15) 0.0748(4)
Ag1B Ag 1.38281(9) 0.33019(13) 0.04484(3)
Ag1B_2 Ag 0.38281(9) 0.33019(13) 0.04484(3)
O2B O 0.6158(8) 0.4083(12) -0.0422(3)
N1B N 1.0915(8) 0.2022(13) -0.1296(3)
loop_
_geom_bond_atom_site_label_1
_geom_bond_atom_site_label_2
_geom_bond_site_symmetry_1
_geom_bond_site_symmetry_2
Ag1 S1 1_555 1_555
S1 C4 1_555 1_555
O1 C6 1_555 1_555
O2 Ag1 1_555 1_555
N1 C1 1_555 1_555
N2 C3 1_555 1_555
C1 H1 1_555 1_555
C2 C1 1_555 1_555
H2 C2 1_555 1_555
C3 C2 1_555 1_555
H3 C3 1_555 1_555
C4 N1 1_555 1_555
C5 S1 1_555 1_555
H4 C5 1_555 1_555
H5 C5 1_555 1_555
C6 O2 1_555 1_555
Ag1B O2 1_555 1_555
Ag1B_2 N1 1_555 1_555
O2B Ag1 1_555 1_555
N1B Ag1 1_555 1_555
N2 C4 1_555 1_555
C5 C6 1_555 1_555
Ag1B_2 O2B 1_555 1_555

#END
