
#######################################################################
#
#                 Cambridge Crystallographic Data Centre
#                                CCDC 
#
#######################################################################
#
# If this CIF has been generated from an entry in the Cambridge 
# Structural Database, then it will include bibliographic, chemical, 
# crystal, experimental, refinement or atomic coordinate data resulting 
# from the CCDC's data processing and validation procedures.
#
#######################################################################

data_SEVVEU
_symmetry_cell_setting           triclinic
_symmetry_space_group_name_H-M   'P -1'
_symmetry_Int_Tables_number      2
_space_group_name_Hall           '-P 1'
loop_
_symmetry_equiv_pos_site_id
_symmetry_equiv_pos_as_xyz
1 x,y,z
2 -x,-y,-z
_cell_length_a                   7.649(3)
_cell_length_b                   9.859(2)
_cell_length_c                   11.171(3)
_cell_angle_alpha                106.90(2)
_cell_angle_beta                 104.40(3)
_cell_angle_gamma                107.20(3)
_cell_volume                     716.527
loop_
_atom_site_label
_atom_site_type_symbol
_atom_site_fract_x
_atom_site_fract_y
_atom_site_fract_z
Er1 Er 0.0615(1) 0.1177(1) 0.2940(1)
O1 O -0.0477(5) -0.1373(3) 0.2961(3)
O2 O -0.1948(5) -0.1270(3) 0.1051(3)
O3 O -0.0076(5) -0.6338(3) 0.3070(3)
O4 O -0.0626(5) -0.8135(3) 0.1162(3)
O5 O -0.2364(5) 0.0850(4) 0.3299(4)
O6 O 0.3430(5) 0.0740(3) 0.4095(3)
O7 O 0.3518(4) 0.3223(3) 0.3377(4)
O8 O 0.1474(5) 0.2532(4) 0.5230(3)
O9 O 0.1961(6) 0.0199(5) 0.1377(4)
O10 O -0.4714(5) -0.8221(3) -0.3114(3)
O11 O -0.4676(5) -0.5992(4) -0.3207(3)
C1 C -0.1942(5) -0.3729(4) 0.0986(4)
C2 C -0.1242(5) -0.4507(4) 0.1716(4)
C3 C -0.1529(5) -0.6041(4) 0.1042(4)
C4 C -0.2526(5) -0.6769(4) -0.0344(4)
C5 C -0.3226(5) -0.5989(4) -0.1069(3)
C6 C -0.2928(5) -0.4444(4) -0.0398(4)
C7 C -0.1466(5) -0.2044(4) 0.1693(4)
C8 C -0.0697(5) -0.6868(4) 0.1806(4)
C9 C -0.4265(5) -0.6790(4) -0.2562(4)
O3_2 O -0.0076(5) 0.3662(3) 0.3070(3)
O4_2 O -0.0626(5) 0.1865(3) 0.1162(3)
Er1_2 Er 0.0615(1) -0.8823(1) 0.2940(1)
O12 O 0.7386(6) 0.3631(4) 0.4552(4)
loop_
_geom_bond_atom_site_label_1
_geom_bond_atom_site_label_2
_geom_bond_site_symmetry_1
_geom_bond_site_symmetry_2
Er1 O1 1_555 1_555
O1 C7 1_555 1_555
O2 Er1 1_555 1_555
O3 C8 1_555 1_555
O4 C8 1_555 1_555
O5 Er1 1_555 1_555
O6 Er1 1_555 1_555
O7 Er1 1_555 1_555
O8 Er1 1_555 1_555
O9 Er1 1_555 1_555
O10 C9 1_555 1_555
O11 C9 1_555 1_555
C1 C2 1_555 1_555
C2 C3 1_555 1_555
C3 C4 1_555 1_555
C4 C5 1_555 1_555
C5 C6 1_555 1_555
C6 C1 1_555 1_555
C7 O2 1_555 1_555
C8 C3 1_555 1_555
C9 C5 1_555 1_555
O3_2 Er1 1_555 1_555
O4_2 Er1 1_555 1_555
Er1_2 O3 1_555 1_555
O4 Er1_2 1_555 1_555
C1 C7 1_555 1_555

#END
