
#######################################################################
#
#                 Cambridge Crystallographic Data Centre
#                                CCDC 
#
#######################################################################
#
# If this CIF has been generated from an entry in the Cambridge 
# Structural Database, then it will include bibliographic, chemical, 
# crystal, experimental, refinement or atomic coordinate data resulting 
# from the CCDC's data processing and validation procedures.
#
#######################################################################

data_SEVVAR
_symmetry_cell_setting           monoclinic
_symmetry_space_group_name_H-M   'C c'
_symmetry_Int_Tables_number      9
_space_group_name_Hall           'C -2yc'
loop_
_symmetry_equiv_pos_site_id
_symmetry_equiv_pos_as_xyz
1 x,y,z
2 x,-y,1/2+z
3 1/2+x,1/2+y,z
4 1/2+x,1/2-y,1/2+z
_cell_length_a                   21.708(4)
_cell_length_b                   25.104(5)
_cell_length_c                   7.7259(15)
_cell_angle_alpha                90
_cell_angle_beta                 98.32(3)
_cell_angle_gamma                90
_cell_volume                     4165.98
loop_
_atom_site_label
_atom_site_type_symbol
_atom_site_fract_x
_atom_site_fract_y
_atom_site_fract_z
Mn1 Mn 0.45454(3) 0.18857(2) 0.42073(6)
Mn2 Mn 0.33499(3) 0.14319(2) 0.14599(6)
Mn3 Mn 0.34754(3) 0.27147(2) 0.22078(6)
O1 O 0.37954(11) 0.20103(9) 0.2638(3)
O2 O 0.53078(12) 0.17688(11) 0.5618(4)
N1 N 0.44803(14) 0.11250(12) 0.3760(4)
N2 N 0.39963(14) 0.09275(12) 0.2606(4)
C1 C 0.56283(16) 0.13269(15) 0.6103(4)
C2 C 0.62046(18) 0.13830(18) 0.7172(5)
H1 H 0.6346 0.1722 0.7514
C3 C 0.65651(17) 0.09492(17) 0.7726(5)
H2 H 0.6948 0.1003 0.8416
C4 C 0.63747(18) 0.04297(17) 0.7285(5)
C5 C 0.58010(17) 0.03699(15) 0.6203(5)
H3 H 0.5660 0.0029 0.5886
C6 C 0.54333(17) 0.08089(14) 0.5584(4)
C7 C 0.48563(16) 0.07176(14) 0.4365(4)
C8 C 0.46125(19) 0.02509(15) 0.3574(5)
H4 H 0.4777 -0.0091 0.3730
C9 C 0.40726(18) 0.04025(15) 0.2502(5)
H5 H 0.3804 0.0172 0.1815
C10 C 0.67715(19) -0.00488(18) 0.7880(6)
H6 H 0.7144 0.0066 0.8609
H7 H 0.6880 -0.0233 0.6878
H8 H 0.6543 -0.0284 0.8531
O3 O 0.29345(12) 0.08555(10) 0.0374(3)
N3 N 0.26822(14) 0.18946(12) 0.0421(4)
N4 N 0.26954(14) 0.24285(12) 0.0807(4)
C11 C 0.23946(17) 0.08104(15) -0.0712(5)
C12 C 0.22420(19) 0.03067(16) -0.1408(5)
H9 H 0.2520 0.0026 -0.1149
C13 C 0.16849(18) 0.02183(16) -0.2474(5)
H10 H 0.1595 -0.0122 -0.2919
C14 C 0.12532(18) 0.06247(17) -0.2902(5)
C15 C 0.14091(17) 0.11306(16) -0.2227(5)
H11 H 0.1128 0.1408 -0.2494
C16 C 0.19760(16) 0.12331(15) -0.1161(4)
C17 C 0.21269(16) 0.17776(14) -0.0553(5)
C18 C 0.17843(18) 0.22505(16) -0.0819(5)
H12 H 0.1389 0.2292 -0.1451
C19 C 0.21588(17) 0.26459(15) 0.0058(5)
H13 H 0.2053 0.3004 0.0115
C20 C 0.0650(2) 0.0525(2) -0.4095(6)
H14 H 0.0413 0.0849 -0.4242
H15 H 0.0415 0.0257 -0.3589
H16 H 0.0738 0.0404 -0.5213
O4 O 0.31594(12) 0.33919(10) 0.1918(4)
N5 N 0.42281(15) 0.30042(12) 0.3599(4)
N6 N 0.46765(14) 0.26727(12) 0.4429(4)
C21 C 0.34352(17) 0.38721(14) 0.2123(5)
C22 C 0.31046(18) 0.43131(15) 0.1370(5)
H17 H 0.2712 0.4263 0.0730
C23 C 0.3348(2) 0.48206(14) 0.1556(6)
H18 H 0.3120 0.5106 0.1034
C24 C 0.3931(2) 0.49103(14) 0.2513(5)
C25 C 0.42643(18) 0.44813(14) 0.3228(5)
H19 H 0.4658 0.4538 0.3852
C26 C 0.40319(17) 0.39564(14) 0.3050(4)
C27 C 0.44173(16) 0.35141(14) 0.3830(5)
C28 C 0.50160(18) 0.35178(15) 0.4842(5)
H20 H 0.5263 0.3811 0.5203
C29 C 0.51523(18) 0.29749(16) 0.5177(5)
H21 H 0.5517 0.2846 0.5819
C30 C 0.4181(2) 0.54704(15) 0.2813(6)
H22 H 0.4588 0.5457 0.3491
H23 H 0.3907 0.5673 0.3431
H24 H 0.4207 0.5636 0.1706
O5 O 0.40069(14) 0.18825(10) 0.6506(3)
O6 O 0.38892(13) 0.16905(11) 0.9222(3)
C31 C 0.39117(18) 0.15490(15) 0.7641(5)
C32 C 0.3827(2) 0.09729(16) 0.7223(5)
H25 H 0.3852 0.0917 0.6006
H26 H 0.3428 0.0859 0.7474
H27 H 0.4148 0.0772 0.7920
O7 O 0.50107(15) 0.18835(13) 0.1607(4)
H28 H 0.4691 0.1869 0.0829
C33 C 0.5411(3) 0.1470(3) 0.0978(7)
H29 H 0.5283 0.1119 0.1312
H30 H 0.5377 0.1484 -0.0287
C34 C 0.6025(3) 0.1571(3) 0.1737(8)
H31 H 0.6296 0.1308 0.1348
H32 H 0.6054 0.1555 0.2988
H33 H 0.6148 0.1918 0.1397
O8 O 0.28302(13) 0.14185(11) 0.3868(4)
H34 H 0.2828 0.1737 0.4239
C35 C 0.22163(19) 0.12140(18) 0.3895(6)
H35 H 0.2211 0.1017 0.4972
H36 H 0.2117 0.0966 0.2930
C36 C 0.1728(2) 0.1631(2) 0.3761(7)
H37 H 0.1329 0.1467 0.3775
H38 H 0.1725 0.1825 0.2689
H39 H 0.1813 0.1871 0.4734
O9 O 0.39140(14) 0.27499(11) -0.0273(4)
H40 H 0.4029 0.2437 -0.0503
C37 C 0.43231(19) 0.31193(17) -0.0936(5)
H41 H 0.4225 0.3476 -0.0574
H42 H 0.4247 0.3109 -0.2204
C38 C 0.4991(2) 0.3015(2) -0.0347(6)
H43 H 0.5237 0.3276 -0.0842
H44 H 0.5095 0.2666 -0.0723
H45 H 0.5074 0.3034 0.0906
O10 O 0.30487(13) 0.25481(12) 0.4874(4)
H46 H 0.3358 0.2547 0.5686
C39 C 0.2591(2) 0.28848(19) 0.5504(6)
H47 H 0.2389 0.2685 0.6339
H48 H 0.2275 0.2975 0.4528
C40 C 0.2844(2) 0.33831(19) 0.6347(6)
H49 H 0.2513 0.3585 0.6726
H50 H 0.3036 0.3589 0.5524
H51 H 0.3149 0.3299 0.7338
Mn2_2 Mn 0.33499(3) 0.14319(2) 1.14599(6)
O6_2 O 0.38892(13) 0.16905(11) -0.0778(3)
loop_
_geom_bond_atom_site_label_1
_geom_bond_atom_site_label_2
_geom_bond_site_symmetry_1
_geom_bond_site_symmetry_2
Mn1 O1 1_555 1_555
Mn2 O1 1_555 1_555
Mn3 O1 1_555 1_555
O2 Mn1 1_555 1_555
N1 Mn1 1_555 1_555
N2 Mn2 1_555 1_555
C1 O2 1_555 1_555
C2 C1 1_555 1_555
H1 C2 1_555 1_555
C3 C2 1_555 1_555
H2 C3 1_555 1_555
C4 C3 1_555 1_555
C5 C4 1_555 1_555
H3 C5 1_555 1_555
C6 C1 1_555 1_555
C7 N1 1_555 1_555
C8 C7 1_555 1_555
H4 C8 1_555 1_555
C9 N2 1_555 1_555
H5 C9 1_555 1_555
C10 C4 1_555 1_555
H6 C10 1_555 1_555
H7 C10 1_555 1_555
H8 C10 1_555 1_555
O3 Mn2 1_555 1_555
N3 Mn2 1_555 1_555
N4 Mn3 1_555 1_555
C11 O3 1_555 1_555
C12 C11 1_555 1_555
H9 C12 1_555 1_555
C13 C12 1_555 1_555
H10 C13 1_555 1_555
C14 C13 1_555 1_555
C15 C14 1_555 1_555
H11 C15 1_555 1_555
C16 C11 1_555 1_555
C17 N3 1_555 1_555
C18 C17 1_555 1_555
H12 C18 1_555 1_555
C19 N4 1_555 1_555
H13 C19 1_555 1_555
C20 C14 1_555 1_555
H14 C20 1_555 1_555
H15 C20 1_555 1_555
H16 C20 1_555 1_555
O4 Mn3 1_555 1_555
N5 Mn3 1_555 1_555
N6 Mn1 1_555 1_555
C21 O4 1_555 1_555
C22 C21 1_555 1_555
H17 C22 1_555 1_555
C23 C22 1_555 1_555
H18 C23 1_555 1_555
C24 C23 1_555 1_555
C25 C24 1_555 1_555
H19 C25 1_555 1_555
C26 C21 1_555 1_555
C27 N5 1_555 1_555
C28 C27 1_555 1_555
H20 C28 1_555 1_555
C29 N6 1_555 1_555
H21 C29 1_555 1_555
C30 C24 1_555 1_555
H22 C30 1_555 1_555
H23 C30 1_555 1_555
H24 C30 1_555 1_555
O5 Mn1 1_555 1_555
O6 C31 1_555 1_555
C31 O5 1_555 1_555
C32 C31 1_555 1_555
H25 C32 1_555 1_555
H26 C32 1_555 1_555
H27 C32 1_555 1_555
O7 Mn1 1_555 1_555
H28 O7 1_555 1_555
C33 O7 1_555 1_555
H29 C33 1_555 1_555
H30 C33 1_555 1_555
C34 C33 1_555 1_555
H31 C34 1_555 1_555
H32 C34 1_555 1_555
H33 C34 1_555 1_555
O8 Mn2 1_555 1_555
H34 O8 1_555 1_555
C35 O8 1_555 1_555
H35 C35 1_555 1_555
H36 C35 1_555 1_555
C36 C35 1_555 1_555
H37 C36 1_555 1_555
H38 C36 1_555 1_555
H39 C36 1_555 1_555
O9 Mn3 1_555 1_555
H40 O9 1_555 1_555
C37 O9 1_555 1_555
H41 C37 1_555 1_555
H42 C37 1_555 1_555
C38 C37 1_555 1_555
H43 C38 1_555 1_555
H44 C38 1_555 1_555
H45 C38 1_555 1_555
O10 Mn3 1_555 1_555
H46 O10 1_555 1_555
C39 O10 1_555 1_555
H47 C39 1_555 1_555
H48 C39 1_555 1_555
C40 C39 1_555 1_555
H49 C40 1_555 1_555
H50 C40 1_555 1_555
H51 C40 1_555 1_555
Mn2_2 O6 1_555 1_555
O6_2 Mn2 1_555 1_555
N1 N2 1_555 1_555
C5 C6 1_555 1_555
C6 C7 1_555 1_555
C8 C9 1_555 1_555
N3 N4 1_555 1_555
C15 C16 1_555 1_555
C16 C17 1_555 1_555
C18 C19 1_555 1_555
N5 N6 1_555 1_555
C25 C26 1_555 1_555
C26 C27 1_555 1_555
C28 C29 1_555 1_555

#END
