
#######################################################################
#
#                 Cambridge Crystallographic Data Centre
#                                CCDC 
#
#######################################################################
#
# If this CIF has been generated from an entry in the Cambridge 
# Structural Database, then it will include bibliographic, chemical, 
# crystal, experimental, refinement or atomic coordinate data resulting 
# from the CCDC's data processing and validation procedures.
#
#######################################################################

data_SEVZUQ
_symmetry_cell_setting           monoclinic
_symmetry_space_group_name_H-M   'P 21'
_symmetry_Int_Tables_number      4
_space_group_name_Hall           'P 2yb'
loop_
_symmetry_equiv_pos_site_id
_symmetry_equiv_pos_as_xyz
1 x,y,z
2 -x,1/2+y,-z
_cell_length_a                   10.7650(5)
_cell_length_b                   16.6683(7)
_cell_length_c                   14.6753(7)
_cell_angle_alpha                90
_cell_angle_beta                 100.662(4)
_cell_angle_gamma                90
_cell_volume                     2587.79
loop_
_atom_site_label
_atom_site_type_symbol
_atom_site_fract_x
_atom_site_fract_y
_atom_site_fract_z
C1 C -0.0797(4) 0.7751(3) 0.5692(3)
H1 H -0.0994 0.7238 0.5460
C2 C 0.0460(4) 0.7966(3) 0.5929(3)
H2 H 0.1096 0.7599 0.5883
C3 C 0.0753(4) 0.8746(3) 0.6241(3)
C4 C -0.0224(4) 0.9245(3) 0.6380(3)
H3 H -0.0052 0.9757 0.6625
C5 C -0.1451(4) 0.8978(3) 0.6153(3)
H4 H -0.2100 0.9312 0.6262
C6 C 0.2103(4) 0.9034(3) 0.6361(3)
H5 H 0.2445 0.8892 0.5816
H6 H 0.2121 0.9614 0.6418
C7 C 0.4296(4) 0.8747(3) 0.7206(3)
H7 H 0.4476 0.9306 0.7073
C8 C 0.4658(4) 0.8221(3) 0.6440(3)
C9 C 0.5044(4) 0.8537(3) 0.8184(3)
H8 H 0.4531 0.8707 0.8636
C10 C 0.6284(4) 0.9022(4) 0.8380(4)
H9 H 0.6745 0.8890 0.8986
H10 H 0.6093 0.9585 0.8352
H11 H 0.6787 0.8893 0.7923
C11 C 0.5274(5) 0.7647(4) 0.8312(3)
H12 H 0.4487 0.7365 0.8148
H13 H 0.5637 0.7539 0.8947
H14 H 0.5844 0.7472 0.7920
C12 C 0.5664(4) 0.4157(3) 0.5551(3)
H15 H 0.6142 0.3708 0.5465
C13 C 0.6267(4) 0.4886(3) 0.5709(3)
H16 H 0.7135 0.4920 0.5736
C14 C 0.5583(4) 0.5568(3) 0.5829(3)
C15 C 0.4307(4) 0.5470(3) 0.5870(3)
H17 H 0.3829 0.5905 0.6002
C16 C 0.3752(4) 0.4709(3) 0.5711(3)
H18 H 0.2902 0.4648 0.5740
C17 C 0.6160(4) 0.6388(3) 0.5847(3)
H19 H 0.6006 0.6673 0.6392
H20 H 0.7068 0.6336 0.5896
C18 C 0.5784(5) 0.6469(3) 0.4117(3)
H21 H 0.6105 0.5924 0.4259
C19 C 0.6746(4) 0.6925(3) 0.3663(3)
C20 C 0.4559(7) 0.6411(4) 0.3386(5)
H22 H 0.4858 0.6169 0.2857
C21 C 0.3683(7) 0.5804(6) 0.3610(6)
H23 H 0.4152 0.5362 0.3920
H24 H 0.3157 0.5618 0.3049
H25 H 0.3163 0.6035 0.4007
C22 C 0.4066(5) 0.7190(4) 0.3007(4)
H26 H 0.3802 0.7501 0.3489
H27 H 0.3357 0.7104 0.2514
H28 H 0.4716 0.7474 0.2772
N1 N -0.1748(3) 0.8248(2) 0.5779(2)
N2 N 0.4411(3) 0.4064(3) 0.5516(3)
N3 N 0.2910(3) 0.8673(3) 0.7203(3)
H29 H 0.2733 0.8915 0.7712
H30 H 0.2712 0.8150 0.7233
N4 N 0.5638(4) 0.6862(2) 0.5004(3)
H31 H 0.4794 0.6917 0.4991
O1 O 0.5766(3) 0.8356(2) 0.6290(2)
O2 O 0.3890(3) 0.7724(2) 0.6019(2)
O3 O 0.7078(3) 0.7630(2) 0.3958(2)
O4 O 0.7129(4) 0.6607(3) 0.3003(3)
Zn1 Zn 0.64239(4) 0.80302(3) 0.51264(3)
N1_2 N 0.8252(3) 0.8248(2) 0.5779(2)
N2A N 0.5589(3) 0.9064(3) 0.4484(3)
Zn1_2 Zn -0.35761(4) 0.80302(3) 0.51264(3)
Zn1A Zn 0.35761(4) 0.30302(3) 0.48736(3)
C23 C 0.0673(4) 0.4362(3) 0.0013(3)
H32 H 0.1060 0.3929 -0.0221
C24 C 0.1337(4) 0.5075(3) 0.0175(3)
H33 H 0.2150 0.5118 0.0050
C25 C 0.0770(4) 0.5727(3) 0.0530(3)
C26 C -0.0437(5) 0.5617(3) 0.0739(3)
H34 H -0.0835 0.6031 0.0997
C27 C -0.1031(5) 0.4875(3) 0.0551(3)
H35 H -0.1829 0.4803 0.0696
C28 C 0.1403(4) 0.6538(3) 0.0615(3)
H36 H 0.1387 0.6757 0.1225
H37 H 0.2280 0.6475 0.0556
C29 C 0.0845(4) 0.6885(3) -0.1075(3)
H38 H 0.1205 0.6344 -0.1067
C30 C 0.1732(4) 0.7465(3) -0.1470(3)
C31 C -0.0440(4) 0.6879(3) -0.1738(3)
H39 H -0.0272 0.6768 -0.2360
C32 C -0.1085(4) 0.7698(3) -0.1781(3)
H40 H -0.1326 0.7810 -0.1196
H41 H -0.1823 0.7695 -0.2261
H42 H -0.0510 0.8104 -0.1912
C33 C -0.1326(4) 0.6219(3) -0.1518(4)
H43 H -0.0898 0.5711 -0.1481
H44 H -0.2064 0.6198 -0.1998
H45 H -0.1573 0.6332 -0.0935
C34 C -0.5695(4) 0.7978(3) 0.0627(3)
H46 H -0.5913 0.7586 0.0175
C35 C -0.4425(4) 0.8101(3) 0.0995(3)
H47 H -0.3811 0.7793 0.0789
C36 C -0.4071(4) 0.8685(3) 0.1669(3)
C37 C -0.5041(4) 0.9115(3) 0.1959(3)
H48 H -0.4852 0.9506 0.2415
C38 C -0.6291(4) 0.8954(3) 0.1561(3)
H49 H -0.6927 0.9243 0.1763
C39 C -0.2702(4) 0.8886(3) 0.2025(3)
H50 H -0.2330 0.9091 0.1518
H51 H -0.2651 0.9305 0.2490
C40 C -0.0550(4) 0.8294(3) 0.2563(3)
H52 H -0.0367 0.8866 0.2670
C41 C -0.0169(4) 0.8052(3) 0.1647(3)
C42 C 0.1436(4) 0.8191(4) 0.3766(3)
H53 H 0.1902 0.8229 0.3270
H54 H 0.1893 0.7863 0.4252
H55 H 0.1322 0.8717 0.4003
C43 C 0.0150(4) 0.7816(3) 0.3405(3)
H56 H -0.0348 0.7869 0.3898
C44 C 0.0252(5) 0.6915(3) 0.3212(4)
H57 H -0.0563 0.6712 0.2930
H58 H 0.0544 0.6637 0.3785
H59 H 0.0838 0.6833 0.2801
N5 N -0.0504(4) 0.4268(2) 0.0176(3)
N6 N -0.6618(3) 0.8403(2) 0.0901(2)
N7 N 0.0774(3) 0.7109(2) -0.0102(3)
H60 H -0.0059 0.7126 -0.0060
N8 N -0.1961(3) 0.8170(2) 0.2442(2)
H61 H -0.2181 0.7742 0.2075
H62 H -0.2163 0.8064 0.2998
O5 O 0.2102(3) 0.8104(2) -0.10252(19)
O6 O 0.2009(3) 0.7278(2) -0.2230(2)
O7 O 0.0918(2) 0.8276(2) 0.1535(2)
O8 O -0.0955(3) 0.7653(2) 0.1087(2)
Zn2 Zn 0.15244(4) 0.82488(3) 0.02446(3)
N5A N 0.0504(4) 0.9268(2) -0.0176(3)
N6_2 N 0.3382(3) 0.8403(2) 0.0901(2)
Zn2_2 Zn -0.84756(4) 0.82488(3) 0.02446(3)
Zn2A Zn -0.15244(4) 0.32488(3) -0.02446(3)
Cl1 Cl 0.00884(11) 0.54068(8) 0.57471(9)
O9 O -0.0994(3) 0.5426(3) 0.4996(3)
O10 O 0.0670(4) 0.4625(2) 0.5805(3)
O11 O 0.0989(4) 0.5998(3) 0.5585(4)
O12 O -0.0355(5) 0.5567(4) 0.6601(4)
Cl2 Cl 0.47134(15) 0.07914(10) 1.02254(11)
O13 O 0.3830(5) 0.1302(3) 0.9680(4)
O14 O 0.5950(6) 0.1074(4) 1.0286(5)
O15 O 0.4432(5) 0.0776(3) 1.1154(4)
O16 O 0.4618(7) -0.0008(3) 0.9840(4)
O17 O 0.7040(4) 0.5214(2) 0.2002(3)
O18 O 0.2939(4) 0.5686(3) 0.7582(3)
loop_
_geom_bond_atom_site_label_1
_geom_bond_atom_site_label_2
_geom_bond_site_symmetry_1
_geom_bond_site_symmetry_2
C1 H1 1_555 1_555
C2 C1 1_555 1_555
H2 C2 1_555 1_555
C3 C2 1_555 1_555
C4 C3 1_555 1_555
H3 C4 1_555 1_555
C5 C4 1_555 1_555
H4 C5 1_555 1_555
C6 C3 1_555 1_555
H5 C6 1_555 1_555
H6 C6 1_555 1_555
C7 H7 1_555 1_555
C8 C7 1_555 1_555
C9 C7 1_555 1_555
H8 C9 1_555 1_555
C10 C9 1_555 1_555
H9 C10 1_555 1_555
H10 C10 1_555 1_555
H11 C10 1_555 1_555
C11 C9 1_555 1_555
H12 C11 1_555 1_555
H13 C11 1_555 1_555
H14 C11 1_555 1_555
C12 H15 1_555 1_555
C13 C12 1_555 1_555
H16 C13 1_555 1_555
C14 C13 1_555 1_555
C15 C14 1_555 1_555
H17 C15 1_555 1_555
C16 C15 1_555 1_555
H18 C16 1_555 1_555
C17 C14 1_555 1_555
H19 C17 1_555 1_555
H20 C17 1_555 1_555
C18 H21 1_555 1_555
C19 C18 1_555 1_555
C20 C18 1_555 1_555
H22 C20 1_555 1_555
C21 C20 1_555 1_555
H23 C21 1_555 1_555
H24 C21 1_555 1_555
H25 C21 1_555 1_555
C22 C20 1_555 1_555
H26 C22 1_555 1_555
H27 C22 1_555 1_555
H28 C22 1_555 1_555
N1 C1 1_555 1_555
N2 C12 1_555 1_555
N3 C6 1_555 1_555
H29 N3 1_555 1_555
H30 N3 1_555 1_555
N4 C17 1_555 1_555
H31 N4 1_555 1_555
O1 C8 1_555 1_555
O2 C8 1_555 1_555
O3 C19 1_555 1_555
O4 C19 1_555 1_555
Zn1 N4 1_555 1_555
C23 H32 1_555 1_555
C24 C23 1_555 1_555
H33 C24 1_555 1_555
C25 C24 1_555 1_555
C26 C25 1_555 1_555
H34 C26 1_555 1_555
C27 C26 1_555 1_555
H35 C27 1_555 1_555
C28 C25 1_555 1_555
H36 C28 1_555 1_555
H37 C28 1_555 1_555
C29 H38 1_555 1_555
C30 C29 1_555 1_555
C31 C29 1_555 1_555
H39 C31 1_555 1_555
C32 C31 1_555 1_555
H40 C32 1_555 1_555
H41 C32 1_555 1_555
H42 C32 1_555 1_555
C33 C31 1_555 1_555
H43 C33 1_555 1_555
H44 C33 1_555 1_555
H45 C33 1_555 1_555
C34 H46 1_555 1_555
C35 C34 1_555 1_555
H47 C35 1_555 1_555
C36 C35 1_555 1_555
C37 C36 1_555 1_555
H48 C37 1_555 1_555
C38 C37 1_555 1_555
H49 C38 1_555 1_555
C39 C36 1_555 1_555
H50 C39 1_555 1_555
H51 C39 1_555 1_555
C40 H52 1_555 1_555
C41 C40 1_555 1_555
C42 H53 1_555 1_555
H54 C42 1_555 1_555
H55 C42 1_555 1_555
C43 C40 1_555 1_555
H56 C43 1_555 1_555
C44 C43 1_555 1_555
H57 C44 1_555 1_555
H58 C44 1_555 1_555
H59 C44 1_555 1_555
N5 C23 1_555 1_555
N6 C34 1_555 1_555
N7 C28 1_555 1_555
H60 N7 1_555 1_555
N8 C39 1_555 1_555
H61 N8 1_555 1_555
H62 N8 1_555 1_555
O5 C30 1_555 1_555
O6 C30 1_555 1_555
O7 C41 1_555 1_555
O8 C41 1_555 1_555
Zn2 N7 1_555 1_555
Cl1 O9 1_555 1_555
O10 Cl1 1_555 1_555
O11 Cl1 1_555 1_555
O12 Cl1 1_555 1_555
Cl2 O13 1_555 1_555
O14 Cl2 1_555 1_555
O15 Cl2 1_555 1_555
O16 Cl2 1_555 1_555
N1_2 Zn1 1_555 1_555
N2A Zn1 1_555 1_555
Zn1_2 N1 1_555 1_555
Zn1A N2 1_555 1_555
N5A Zn2 1_555 1_555
N6_2 Zn2 1_555 1_555
Zn2_2 N6 1_555 1_555
Zn2A N5 1_555 1_555
C5 N1 1_555 1_555
C7 N3 1_555 1_555
C16 N2 1_555 1_555
C18 N4 1_555 1_555
O1 Zn1 1_555 1_555
O3 Zn1 1_555 1_555
C27 N5 1_555 1_555
C29 N7 1_555 1_555
C38 N6 1_555 1_555
C40 N8 1_555 1_555
C42 C43 1_555 1_555
O5 Zn2 1_555 1_555
O7 Zn2 1_555 1_555

#END
