
#######################################################################
#
#                 Cambridge Crystallographic Data Centre
#                                CCDC 
#
#######################################################################
#
# If this CIF has been generated from an entry in the Cambridge 
# Structural Database, then it will include bibliographic, chemical, 
# crystal, experimental, refinement or atomic coordinate data resulting 
# from the CCDC's data processing and validation procedures.
#
#######################################################################

data_SEWBEC
_symmetry_cell_setting           monoclinic
_symmetry_space_group_name_H-M   'P 21/c'
_symmetry_Int_Tables_number      14
_space_group_name_Hall           '-P 2ybc'
loop_
_symmetry_equiv_pos_site_id
_symmetry_equiv_pos_as_xyz
1 x,y,z
2 -x,1/2+y,1/2-z
3 -x,-y,-z
4 x,1/2-y,1/2+z
_cell_length_a                   12.9701(19)
_cell_length_b                   20.592(3)
_cell_length_c                   7.3759(10)
_cell_angle_alpha                90
_cell_angle_beta                 102.660(2)
_cell_angle_gamma                90
_cell_volume                     1922.06
loop_
_atom_site_label
_atom_site_type_symbol
_atom_site_fract_x
_atom_site_fract_y
_atom_site_fract_z
Mn1 Mn 0.77554(3) 0.246509(18) 0.04945(5)
Cl1 Cl 1.14734(7) 0.31214(5) 0.58056(13)
Cl2 Cl 0.84461(7) 0.45168(4) 0.13251(11)
Cl3 Cl 0.43121(7) 0.27020(4) -0.40362(14)
Cl4 Cl 0.58944(8) 0.03200(4) -0.21078(17)
O1 O 0.91338(14) 0.29764(9) 0.2008(2)
O2 O 0.88582(14) 0.32242(9) 0.4804(2)
O3 O 0.64595(15) 0.18935(10) -0.0928(2)
O4 O 0.65765(15) 0.18793(9) -0.3906(2)
O5 O 0.78583(17) 0.18731(8) 0.3089(2)
C1 C 0.92740(19) 0.33138(12) 0.3459(3)
C2 C 1.0029(2) 0.38772(12) 0.3582(3)
C3 C 0.9722(2) 0.44517(13) 0.2640(4)
C4 C 1.0401(3) 0.49759(15) 0.2754(5)
H1 H 1.0180 0.5359 0.2120
C5 C 1.1407(4) 0.49195(19) 0.3822(6)
H2 H 1.1869 0.5269 0.3906
C6 C 1.1741(3) 0.4359(2) 0.4763(5)
H3 H 1.2425 0.4326 0.5481
C7 C 1.1051(2) 0.38448(15) 0.4635(4)
C8 C 0.6115(2) 0.17766(12) -0.2616(4)
C9 C 0.5021(2) 0.14865(12) -0.3142(3)
C10 C 0.4148(2) 0.18703(14) -0.3822(4)
C11 C 0.3142(2) 0.16179(17) -0.4325(4)
H4 H 0.2571 0.1888 -0.4793
C12 C 0.2993(3) 0.09682(18) -0.4128(5)
H5 H 0.2315 0.0796 -0.4464
C13 C 0.3825(3) 0.05666(17) -0.3446(5)
H6 H 0.3716 0.0125 -0.3310
C14 C 0.4831(2) 0.08248(14) -0.2959(4)
H7 H 0.8472(10) 0.1706(13) 0.337(5)
H8 H 0.7341(13) 0.1608(11) 0.290(4)
Mn1C Mn 0.77554(3) 0.253491(18) 0.54945(5)
Mn1C_2 Mn 0.77554(3) 0.253491(18) -0.45055(5)
O2C O 0.88582(14) 0.17758(9) -0.0196(2)
O4C O 0.65765(15) 0.31207(9) 0.1094(2)
O5C O 0.78583(17) 0.31269(8) -0.1911(2)
H7C H 0.8472(10) 0.3294(13) -0.163(5)
H8C H 0.7341(13) 0.3392(11) -0.210(4)
O6 O -0.0078(2) 0.15342(11) 0.3965(3)
H9 H -0.002(3) 0.1709(16) 0.502(2)
H10 H 0.015(3) 0.1748(16) 0.315(4)
O7 O 0.6197(2) 0.11036(13) 0.2608(5)
H11 H 0.590(3) 0.126(2) 0.343(4)
H12 H 0.596(3) 0.121(2) 0.150(2)
loop_
_geom_bond_atom_site_label_1
_geom_bond_atom_site_label_2
_geom_bond_site_symmetry_1
_geom_bond_site_symmetry_2
Mn1 O1 1_555 1_555
Cl1 C7 1_555 1_555
Cl2 C3 1_555 1_555
Cl3 C10 1_555 1_555
Cl4 C14 1_555 1_555
O1 C1 1_555 1_555
O2 C1 1_555 1_555
O3 Mn1 1_555 1_555
O4 C8 1_555 1_555
O5 Mn1 1_555 1_555
C1 C2 1_555 1_555
C2 C3 1_555 1_555
C3 C4 1_555 1_555
C4 H1 1_555 1_555
C5 C4 1_555 1_555
H2 C5 1_555 1_555
C6 C5 1_555 1_555
H3 C6 1_555 1_555
C7 C2 1_555 1_555
C8 O3 1_555 1_555
C9 C8 1_555 1_555
C10 C9 1_555 1_555
C11 C10 1_555 1_555
H4 C11 1_555 1_555
C12 C11 1_555 1_555
H5 C12 1_555 1_555
C13 C12 1_555 1_555
H6 C13 1_555 1_555
C14 C9 1_555 1_555
O6 H9 1_555 1_555
O7 H11 1_555 1_555
H7 O5 1_555 1_555
H8 O5 1_555 1_555
H10 O6 1_555 1_555
H12 O7 1_555 1_555
Mn1C O2 1_555 1_555
Mn1C_2 O4 1_555 1_555
O2C Mn1 1_555 1_555
O4C Mn1 1_555 1_555
O5C Mn1 1_555 1_555
H7C O5C 1_555 1_555
H8C O5C 1_555 1_555
O5 Mn1C 1_555 1_555
C6 C7 1_555 1_555
C13 C14 1_555 1_555
Mn1C_2 O5C 1_555 1_555

#END
