
#######################################################################
#
#                 Cambridge Crystallographic Data Centre
#                                CCDC 
#
#######################################################################
#
# If this CIF has been generated from an entry in the Cambridge 
# Structural Database, then it will include bibliographic, chemical, 
# crystal, experimental, refinement or atomic coordinate data resulting 
# from the CCDC's data processing and validation procedures.
#
#######################################################################

data_SEWBIG
_symmetry_cell_setting           monoclinic
_symmetry_space_group_name_H-M   'C 2/c'
_symmetry_Int_Tables_number      15
_space_group_name_Hall           '-C 2yn'
loop_
_symmetry_equiv_pos_site_id
_symmetry_equiv_pos_as_xyz
1 x,y,z
2 1/2+x,1/2+y,z
3 -x,y,1/2-z
4 1/2-x,1/2+y,1/2-z
5 -x,-y,-z
6 1/2-x,1/2-y,-z
7 x,-y,1/2+z
8 1/2+x,1/2-y,1/2+z
_cell_length_a                   9.9388(12)
_cell_length_b                   13.1073(15)
_cell_length_c                   19.807(2)
_cell_angle_alpha                90
_cell_angle_beta                 101.770(2)
_cell_angle_gamma                90
_cell_volume                     2526.02
loop_
_atom_site_label
_atom_site_type_symbol
_atom_site_fract_x
_atom_site_fract_y
_atom_site_fract_z
O7 O -0.0151(3) 0.7396(2) 0.19377(14)
O8 O 0.1112(3) 0.3576(2) 0.27069(14)
C5 C 0.0000 0.6955(4) 0.2500
C6 C 0.0539(12) 0.5801(8) 0.2504(10)
C7 C 0.005(2) 0.5174(7) 0.2270(6)
C8 C 0.0000 0.4025(4) 0.2500
O7B O 0.0151(3) 0.7396(2) 0.30623(14)
O8B O -0.1112(3) 0.3576(2) 0.22931(14)
C6B C -0.0539(12) 0.5801(8) 0.2496(10)
C7B C -0.005(2) 0.5174(7) 0.2730(6)
Cd1 Cd 0.0000 1.03711(2) 0.2500
Cd2 Cd 0.49956(2) 1.147410(15) 0.513000(11)
O1 O 0.1143(2) 0.91910(18) 0.19637(12)
H1 H 0.0719 0.8609 0.1938
H2 H 0.2014 0.9142 0.2087
O2 O 0.1162(3) 1.16809(18) 0.20808(12)
H3 H 0.1075 1.1765 0.1634
H4 H 0.1079 1.2271 0.2277
O3 O 0.6250(2) 1.1639(2) 0.42911(13)
H5 H 0.7118 1.1707 0.4325
H6 H 0.5847 1.1862 0.3877
O4 O 0.3423(2) 1.1423(2) 0.58415(13)
H7 H 0.3594 1.1425 0.6285
H8 H 0.2595 1.1445 0.5678
O5 O 0.5995(2) 1.29825(15) 0.56522(11)
O6 O 0.4206(2) 1.31840(16) 0.48047(12)
N1 N 0.1738(2) 1.0242(2) 0.34653(13)
N2 N 0.3449(2) 1.06199(19) 0.43348(13)
N3 N 0.3444(2) 0.95825(19) 0.42362(13)
C1 C 0.2412(3) 0.9400(2) 0.37198(16)
H9 H 0.2174 0.8750 0.3549
C2 C 0.2420(3) 1.0975(2) 0.38678(16)
H10 H 0.2190 1.1663 0.3822
C3 C 0.5187(3) 1.3557(2) 0.52280(16)
C4 C 0.5503(3) 1.4680(2) 0.52538(17)
H11 H 0.5513 1.4926 0.5717
H12 H 0.6417 1.4777 0.5163
Cd2B Cd -0.49956(2) 1.147410(15) -0.013000(11)
Cd2D Cd 0.50044(2) 0.852590(15) 0.487000(11)
Cd2D_2 Cd 0.50044(2) 1.852590(15) 0.487000(11)
Cd2F Cd -0.50044(2) 0.852590(15) 0.013000(11)
O1B O -0.1143(2) 0.91910(18) 0.30363(12)
H1B H -0.0719 0.8609 0.3062
H2B H -0.2014 0.9142 0.2913
O2B O -0.1162(3) 1.16809(18) 0.29192(12)
H3B H -0.1075 1.1765 0.3366
H4B H -0.1079 1.2271 0.2723
O3B O -0.6250(2) 1.1639(2) 0.07089(13)
H5B H -0.7118 1.1707 0.0675
H6B H -0.5847 1.1862 0.1123
O4B O -0.3423(2) 1.1423(2) -0.08415(13)
H7B H -0.3594 1.1425 -0.1285
H8B H -0.2595 1.1445 -0.0678
O5D O 0.4005(2) 1.70175(15) 0.43478(11)
O5B O -0.5995(2) 1.29825(15) -0.06522(11)
O6D O 0.5794(2) 1.68160(16) 0.51953(12)
O6B O -0.4206(2) 1.31840(16) 0.01953(12)
N1B N -0.1738(2) 1.0242(2) 0.15347(13)
N2B N -0.3449(2) 1.06199(19) 0.06652(13)
N3B N -0.3444(2) 0.95825(19) 0.07638(13)
N3D N 0.6556(2) 1.04175(19) 0.57638(13)
N3F N -0.6556(2) 1.04175(19) -0.07638(13)
C1B C -0.2412(3) 0.9400(2) 0.12802(16)
H9B H -0.2174 0.8750 0.1451
C2B C -0.2420(3) 1.0975(2) 0.11322(16)
H10B H -0.2190 1.1663 0.1178
C3D C 0.4813(3) 1.6443(2) 0.47720(16)
C4D C 0.4497(3) 1.5320(2) 0.47462(17)
H11D H 0.4487 1.5074 0.4283
H12D H 0.3583 1.5223 0.4837
loop_
_geom_bond_atom_site_label_1
_geom_bond_atom_site_label_2
_geom_bond_site_symmetry_1
_geom_bond_site_symmetry_2
Cd1 O1 1_555 1_555
Cd2 O3 1_555 1_555
O1 H1 1_555 1_555
H2 O1 1_555 1_555
O2 Cd1 1_555 1_555
H3 O2 1_555 1_555
H4 O2 1_555 1_555
O3 H5 1_555 1_555
H6 O3 1_555 1_555
O4 Cd2 1_555 1_555
H7 O4 1_555 1_555
H8 O4 1_555 1_555
O5 Cd2 1_555 1_555
O6 Cd2 1_555 1_555
O7 C5 1_555 1_555
O8 C8 1_555 1_555
N1 Cd1 1_555 1_555
N2 Cd2 1_555 1_555
N3 N2 1_555 1_555
C1 N1 1_555 1_555
H9 C1 1_555 1_555
C2 N1 1_555 1_555
H10 C2 1_555 1_555
C3 O5 1_555 1_555
C4 C3 1_555 1_555
H11 C4 1_555 1_555
H12 C4 1_555 1_555
C5 C6 1_555 1_555
C6 C7 1_555 1_555
C7 C8 1_555 1_555
C8 O8B 1_555 1_555
Cd2B O3B 1_555 1_555
Cd2D N3 1_555 1_555
Cd2D_2 O5D 1_555 1_555
Cd2F N3B 1_555 1_555
O1B Cd1 1_555 1_555
H1B O1B 1_555 1_555
H2B O1B 1_555 1_555
O2B Cd1 1_555 1_555
H3B O2B 1_555 1_555
H4B O2B 1_555 1_555
O3B H5B 1_555 1_555
H6B O3B 1_555 1_555
O4B Cd2B 1_555 1_555
H7B O4B 1_555 1_555
H8B O4B 1_555 1_555
O5D C3D 1_555 1_555
O5B Cd2B 1_555 1_555
O6D Cd2D_2 1_555 1_555
O6B Cd2B 1_555 1_555
O7B C5 1_555 1_555
N1B Cd1 1_555 1_555
N2B Cd2B 1_555 1_555
N3B N2B 1_555 1_555
N3D Cd2 1_555 1_555
N3F Cd2B 1_555 1_555
C1B N1B 1_555 1_555
H9B C1B 1_555 1_555
C2B N1B 1_555 1_555
H10B C2B 1_555 1_555
C3D O6D 1_555 1_555
C4D C4 1_555 1_555
H11D C4D 1_555 1_555
H12D C4D 1_555 1_555
C6B C5 1_555 1_555
C7B C6 1_555 1_555
O6 C3 1_555 1_555
N2 C2 1_555 1_555
N3 C1 1_555 1_555
C6 C6B 1_555 1_555
C7 C6B 1_555 1_555
C7 C7B 1_555 1_555
C8 C7B 1_555 1_555
N2B C2B 1_555 1_555
N3B C1B 1_555 1_555
C3D C4D 1_555 1_555
C6B C7B 1_555 1_555

#END
