
#######################################################################
#
#                 Cambridge Crystallographic Data Centre
#                                CCDC 
#
#######################################################################
#
# If this CIF has been generated from an entry in the Cambridge 
# Structural Database, then it will include bibliographic, chemical, 
# crystal, experimental, refinement or atomic coordinate data resulting 
# from the CCDC's data processing and validation procedures.
#
#######################################################################

data_SEWJUB
_symmetry_cell_setting           triclinic
_symmetry_space_group_name_H-M   'P -1'
_symmetry_Int_Tables_number      2
_space_group_name_Hall           '-P 1'
loop_
_symmetry_equiv_pos_site_id
_symmetry_equiv_pos_as_xyz
1 x,y,z
2 -x,-y,-z
_cell_length_a                   9.5553(4)
_cell_length_b                   9.6390(5)
_cell_length_c                   12.4046(6)
_cell_angle_alpha                69.4820(10)
_cell_angle_beta                 70.6980(10)
_cell_angle_gamma                87.2930(10)
_cell_volume                     1006.83
loop_
_atom_site_label
_atom_site_type_symbol
_atom_site_fract_x
_atom_site_fract_y
_atom_site_fract_z
Cd1 Cd 0.194424(19) 0.55482(2) 0.347057(16)
Cd2 Cd 0.5000 0.5000 0.5000
O1 O 0.2923(2) 0.3376(2) 0.3518(2)
O2 O 0.4752(2) 0.3152(2) 0.4317(2)
F1 F 0.3406(3) 0.0244(2) 0.4340(2)
C1 C 0.3990(3) 0.2802(3) 0.3810(2)
F2 F 0.5727(3) 0.0993(3) 0.3493(2)
C2 C 0.4374(4) 0.1378(4) 0.3511(3)
F3 F 0.4279(3) 0.1522(3) 0.2426(2)
O3 O 0.4186(2) 0.6865(3) 0.22018(19)
O4 O 0.5969(2) 0.6611(2) 0.30628(18)
C3 C 0.5424(3) 0.7114(3) 0.2238(2)
C4 C 0.6456(3) 0.8276(4) 0.1056(3)
F4 F 0.7869(2) 0.8034(4) 0.0844(2)
F5 F 0.6291(5) 0.9592(3) 0.1076(3)
F6 F 0.6220(3) 0.8273(4) 0.0066(2)
O5 O 0.2676(2) 0.5675(2) 0.50198(16)
O6 O 0.0273(2) 0.5821(3) 0.56922(19)
C5 C 0.1501(3) 0.5819(3) 0.5834(2)
C6 C 0.1637(3) 0.6036(4) 0.6935(3)
H1 H 0.2680 0.6004 0.6893
H2 H 0.1031 0.5243 0.7676
H3 H 0.1288 0.7001 0.6957
O7 O 0.0916(2) 0.7792(2) 0.29939(18)
C7 C 0.1669(4) 0.9080(4) 0.2963(4)
H4 H 0.2552 0.9446 0.2214
H5 H 0.1995 0.8830 0.3684
C8 C 0.0563(6) 1.0226(6) 0.2976(7)
H6 H 0.0265 1.0403 0.3758
H7 H 0.0991 1.1176 0.2298
C9 C -0.0727(5) 0.9635(5) 0.2827(6)
H8 H -0.0664 1.0018 0.1959
H9 H -0.1666 0.9916 0.3318
C10 C -0.0656(3) 0.7998(4) 0.3270(3)
H10 H -0.1194 0.7553 0.4160
H11 H -0.1092 0.7543 0.2840
O8 O 0.1849(2) 0.5739(2) 0.15308(17)
C11 C 0.2702(5) 0.4818(5) 0.0907(3)
H12 H 0.2294 0.3770 0.1339
H13 H 0.3751 0.4879 0.0867
C12 C 0.2605(7) 0.5380(6) -0.0346(4)
H14 H 0.2013 0.4651 -0.0451
H15 H 0.3610 0.5556 -0.0968
C13 C 0.1863(5) 0.6803(5) -0.0476(3)
H16 H 0.2438 0.7607 -0.1239
H17 H 0.0842 0.6682 -0.0480
C14 C 0.1837(6) 0.7131(4) 0.0613(3)
H18 H 0.2719 0.7792 0.0415
H19 H 0.0930 0.7626 0.0899
Cd1A Cd -0.194424(19) 0.44518(2) 0.652943(16)
O1A O -0.2923(2) 0.6624(2) 0.6482(2)
O2A O -0.4752(2) 0.6848(2) 0.5683(2)
F1A F -0.3406(3) 0.9756(2) 0.5660(2)
C1A C -0.3990(3) 0.7198(3) 0.6190(2)
F2A F -0.5727(3) 0.9007(3) 0.6507(2)
C2A C -0.4374(4) 0.8622(4) 0.6489(3)
F3A F -0.4279(3) 0.8478(3) 0.7574(2)
O3A O -0.4186(2) 0.3135(3) 0.77982(19)
O4A O -0.5969(2) 0.3389(2) 0.69372(18)
C3A C -0.5424(3) 0.2886(3) 0.7762(2)
C4A C -0.6456(3) 0.1724(4) 0.8944(3)
F4A F -0.7869(2) 0.1966(4) 0.9156(2)
F5A F -0.6291(5) 0.0408(3) 0.8924(3)
F6A F -0.6220(3) 0.1727(4) 0.9934(2)
O5A O -0.2676(2) 0.4325(2) 0.49802(16)
O6A O -0.0273(2) 0.4179(3) 0.43078(19)
C5A C -0.1501(3) 0.4181(3) 0.4166(2)
C6A C -0.1637(3) 0.3964(4) 0.3065(3)
H1A H -0.2680 0.3996 0.3107
H2A H -0.1031 0.4757 0.2324
H3A H -0.1288 0.2999 0.3043
O7A O -0.0916(2) 0.2208(2) 0.70061(18)
C7A C -0.1669(4) 0.0920(4) 0.7037(4)
H4A H -0.2552 0.0554 0.7786
H5A H -0.1995 0.1170 0.6316
C8A C -0.0563(6) -0.0226(6) 0.7024(7)
H6A H -0.0265 -0.0403 0.6242
H7A H -0.0991 -0.1176 0.7702
C9A C 0.0727(5) 0.0365(5) 0.7173(6)
H8A H 0.0664 -0.0018 0.8041
H9A H 0.1666 0.0084 0.6682
C10A C 0.0656(3) 0.2002(4) 0.6730(3)
H10A H 0.1194 0.2447 0.5840
H11A H 0.1092 0.2457 0.7160
O8A O -0.1849(2) 0.4261(2) 0.84692(17)
C11A C -0.2702(5) 0.5182(5) 0.9093(3)
H12A H -0.2294 0.6230 0.8661
H13A H -0.3751 0.5121 0.9133
C12A C -0.2605(7) 0.4620(6) 1.0346(4)
H14A H -0.2013 0.5349 1.0451
H15A H -0.3610 0.4444 1.0968
C13A C -0.1863(5) 0.3197(5) 1.0476(3)
H16A H -0.2438 0.2393 1.1239
H17A H -0.0842 0.3318 1.0480
C14A C -0.1837(6) 0.2869(4) 0.9387(3)
H18A H -0.2719 0.2208 0.9585
H19A H -0.0930 0.2374 0.9101
Cd2_2 Cd -0.5000 0.5000 0.5000
O2A_2 O 0.5248(2) 0.6848(2) 0.5683(2)
O4A_2 O 0.4031(2) 0.3389(2) 0.69372(18)
O5A_2 O 0.7324(2) 0.4325(2) 0.49802(16)
loop_
_geom_bond_atom_site_label_1
_geom_bond_atom_site_label_2
_geom_bond_site_symmetry_1
_geom_bond_site_symmetry_2
Cd1 O1 1_555 1_555
Cd2 O2 1_555 1_555
O1 C1 1_555 1_555
O2 C1 1_555 1_555
F1 C2 1_555 1_555
C1 C2 1_555 1_555
F2 C2 1_555 1_555
C2 F3 1_555 1_555
O3 Cd1 1_555 1_555
O4 Cd2 1_555 1_555
C3 O3 1_555 1_555
C4 C3 1_555 1_555
F4 C4 1_555 1_555
F5 C4 1_555 1_555
F6 C4 1_555 1_555
O5 Cd1 1_555 1_555
O6 Cd1 1_555 1_555
C5 O5 1_555 1_555
C6 C5 1_555 1_555
H1 C6 1_555 1_555
H2 C6 1_555 1_555
H3 C6 1_555 1_555
O7 Cd1 1_555 1_555
C7 O7 1_555 1_555
H4 C7 1_555 1_555
H5 C7 1_555 1_555
C8 C7 1_555 1_555
H6 C8 1_555 1_555
H7 C8 1_555 1_555
C9 C8 1_555 1_555
H8 C9 1_555 1_555
H9 C9 1_555 1_555
C10 O7 1_555 1_555
H10 C10 1_555 1_555
H11 C10 1_555 1_555
O8 Cd1 1_555 1_555
C11 O8 1_555 1_555
H12 C11 1_555 1_555
H13 C11 1_555 1_555
C12 C11 1_555 1_555
H14 C12 1_555 1_555
H15 C12 1_555 1_555
C13 C12 1_555 1_555
H16 C13 1_555 1_555
H17 C13 1_555 1_555
C14 O8 1_555 1_555
H18 C14 1_555 1_555
H19 C14 1_555 1_555
Cd1A O6 1_555 1_555
O1A Cd1A 1_555 1_555
O2A C1A 1_555 1_555
F1A C2A 1_555 1_555
C1A O1A 1_555 1_555
F2A C2A 1_555 1_555
C2A C1A 1_555 1_555
F3A C2A 1_555 1_555
O3A Cd1A 1_555 1_555
O4A C3A 1_555 1_555
C3A O3A 1_555 1_555
C4A C3A 1_555 1_555
F4A C4A 1_555 1_555
F5A C4A 1_555 1_555
F6A C4A 1_555 1_555
O5A Cd1A 1_555 1_555
O6A Cd1 1_555 1_555
C5A O5A 1_555 1_555
C6A C5A 1_555 1_555
H1A C6A 1_555 1_555
H2A C6A 1_555 1_555
H3A C6A 1_555 1_555
O7A Cd1A 1_555 1_555
C7A O7A 1_555 1_555
H4A C7A 1_555 1_555
H5A C7A 1_555 1_555
C8A C7A 1_555 1_555
H6A C8A 1_555 1_555
H7A C8A 1_555 1_555
C9A C8A 1_555 1_555
H8A C9A 1_555 1_555
H9A C9A 1_555 1_555
C10A O7A 1_555 1_555
H10A C10A 1_555 1_555
H11A C10A 1_555 1_555
O8A Cd1A 1_555 1_555
C11A O8A 1_555 1_555
H12A C11A 1_555 1_555
H13A C11A 1_555 1_555
C12A C11A 1_555 1_555
H14A C12A 1_555 1_555
H15A C12A 1_555 1_555
C13A C12A 1_555 1_555
H16A C13A 1_555 1_555
H17A C13A 1_555 1_555
C14A O8A 1_555 1_555
H18A C14A 1_555 1_555
H19A C14A 1_555 1_555
Cd2_2 O2A 1_555 1_555
O2A_2 Cd2 1_555 1_555
O4A_2 Cd2 1_555 1_555
O5A_2 Cd2 1_555 1_555
Cd2 O5 1_555 1_555
O4 C3 1_555 1_555
O6 C5 1_555 1_555
C9 C10 1_555 1_555
C13 C14 1_555 1_555
Cd1A O6A 1_555 1_555
O4A Cd2_2 1_555 1_555
O5A Cd2_2 1_555 1_555
O6A C5A 1_555 1_555
C9A C10A 1_555 1_555
C13A C14A 1_555 1_555

#END
