
#######################################################################
#
#                 Cambridge Crystallographic Data Centre
#                                CCDC 
#
#######################################################################
#
# If this CIF has been generated from an entry in the Cambridge 
# Structural Database, then it will include bibliographic, chemical, 
# crystal, experimental, refinement or atomic coordinate data resulting 
# from the CCDC's data processing and validation procedures.
#
#######################################################################

data_SEWTOF
_symmetry_cell_setting           monoclinic
_symmetry_space_group_name_H-M   'P 21/n'
_symmetry_Int_Tables_number      14
_space_group_name_Hall           '-P 2yn'
loop_
_symmetry_equiv_pos_site_id
_symmetry_equiv_pos_as_xyz
1 x,y,z
2 1/2-x,1/2+y,1/2-z
3 -x,-y,-z
4 1/2+x,1/2-y,1/2+z
_cell_length_a                   11.0976(11)
_cell_length_b                   21.503(2)
_cell_length_c                   11.5931(12)
_cell_angle_alpha                90
_cell_angle_beta                 117.417(2)
_cell_angle_gamma                90
_cell_volume                     2455.75
loop_
_atom_site_label
_atom_site_type_symbol
_atom_site_fract_x
_atom_site_fract_y
_atom_site_fract_z
Cu1 Cu 0.05342(3) 0.159339(14) 0.98613(3)
F1 F 0.5022(2) 0.13632(11) 0.7783(2)
F2 F 0.3112(2) 0.15087(10) 0.61480(19)
F3 F 0.4029(2) 0.22511(9) 0.7470(2)
F4 F -0.2830(2) 0.13842(11) 1.30111(19)
F5 F -0.39381(18) 0.07343(8) 1.1495(2)
F6 F -0.39741(19) 0.17077(8) 1.1048(2)
N1 N -0.1732(2) 0.15487(10) 1.0761(2)
N2 N -0.0604(2) 0.13329(10) 1.0728(2)
N3 N 0.1354(2) 0.07719(10) 1.0623(2)
N4 N 0.1784(2) 0.14491(10) 0.9035(2)
N5 N 0.2190(2) 0.17765(11) 0.8269(2)
N6 N 0.2285(2) 0.21412(10) 1.1666(2)
N7 N 0.4193(2) 0.27726(10) 1.3565(2)
C1 C -0.1969(3) 0.11571(13) 1.1542(3)
C2 C -0.1013(3) 0.06791(13) 1.2018(3)
H1 H -0.0957 0.0346 1.2579
C3 C -0.0169(3) 0.08112(12) 1.1472(3)
C4 C 0.0971(3) 0.04910(12) 1.1440(3)
C5 C 0.1632(3) -0.00470(12) 1.2093(3)
H2 H 0.1371 -0.0251 1.2670
C6 C 0.2678(3) -0.02778(13) 1.1882(3)
H3 H 0.3170 -0.0632 1.2352
C7 C 0.3015(3) 0.00026(12) 1.0993(3)
H4 H 0.3705 -0.0166 1.0818
C8 C 0.2317(3) 0.05381(12) 1.0365(3)
C9 C 0.2522(3) 0.09136(12) 0.9425(3)
C10 C 0.3403(3) 0.08789(12) 0.8899(3)
H5 H 0.4027 0.0557 0.8990
C11 C 0.3160(3) 0.14286(13) 0.8203(3)
C12 C 0.3829(3) 0.16453(14) 0.7423(3)
C13 C -0.3166(3) 0.12529(14) 1.1762(3)
C14 C 0.3653(3) 0.19620(14) 1.1866(3)
H6 H 0.3686 0.1987 1.1028
H7 H 0.3837 0.1526 1.2172
C15 C 0.4758(3) 0.23862(14) 1.2866(3)
H8 H 0.5512 0.2128 1.3499
H9 H 0.5126 0.2660 1.2417
C16 C 0.2249(3) 0.20398(14) 1.2914(3)
H10 H 0.2237 0.1588 1.3071
H11 H 0.1407 0.2223 1.2863
C17 C 0.3493(3) 0.23380(13) 1.4060(3)
H12 H 0.3195 0.2567 1.4624
H13 H 0.4132 0.2008 1.4586
C18 C 0.2142(3) 0.28173(13) 1.1409(3)
H14 H 0.1202 0.2946 1.1181
H15 H 0.2309 0.2911 1.0659
C19 C 0.3144(3) 0.31900(13) 1.2600(3)
H16 H 0.3589 0.3513 1.2319
H17 H 0.2643 0.3401 1.3008
Cu1C Cu 0.55342(3) 0.340661(14) 1.48613(3)
N7C N -0.0807(2) 0.22274(10) 0.8565(2)
N8 N 0.9714(4) 0.07924(16) 0.5918(3)
C20 C 1.0015(4) 0.18222(16) 0.4913(4)
H18 H 1.0087 0.1734 0.4118
H19 H 1.0840 0.2034 0.5540
H20 H 0.9226 0.2090 0.4706
C21 C 0.9851(4) 0.12397(17) 0.5473(3)
N9 N 0.0500(4) 0.41126(15) 0.9807(4)
C22 C 0.1677(4) 0.50313(16) 0.9292(4)
H21 H 0.1647 0.5398 0.9781
H22 H 0.1204 0.5123 0.8360
H23 H 0.2625 0.4924 0.9546
C23 C 0.1020(4) 0.45128(17) 0.9573(3)
loop_
_geom_bond_atom_site_label_1
_geom_bond_atom_site_label_2
_geom_bond_site_symmetry_1
_geom_bond_site_symmetry_2
Cu1 N2 1_555 1_555
F1 C12 1_555 1_555
F2 C12 1_555 1_555
F3 C12 1_555 1_555
F4 C13 1_555 1_555
F5 C13 1_555 1_555
F6 C13 1_555 1_555
N1 N2 1_555 1_555
N2 C3 1_555 1_555
N3 Cu1 1_555 1_555
N4 Cu1 1_555 1_555
N5 N4 1_555 1_555
N6 Cu1 1_555 1_555
N7 C15 1_555 1_555
C1 N1 1_555 1_555
C2 C1 1_555 1_555
H1 C2 1_555 1_555
C3 C2 1_555 1_555
C4 N3 1_555 1_555
C5 C4 1_555 1_555
H2 C5 1_555 1_555
C6 C5 1_555 1_555
H3 C6 1_555 1_555
C7 C6 1_555 1_555
H4 C7 1_555 1_555
C8 N3 1_555 1_555
C9 N4 1_555 1_555
C10 C9 1_555 1_555
H5 C10 1_555 1_555
C11 N5 1_555 1_555
C12 C11 1_555 1_555
C13 C1 1_555 1_555
C14 N6 1_555 1_555
H6 C14 1_555 1_555
H7 C14 1_555 1_555
C15 C14 1_555 1_555
H8 C15 1_555 1_555
H9 C15 1_555 1_555
C16 N6 1_555 1_555
H10 C16 1_555 1_555
H11 C16 1_555 1_555
C17 N7 1_555 1_555
H12 C17 1_555 1_555
H13 C17 1_555 1_555
C18 N6 1_555 1_555
H14 C18 1_555 1_555
H15 C18 1_555 1_555
C19 N7 1_555 1_555
H16 C19 1_555 1_555
H17 C19 1_555 1_555
N8 C21 1_555 1_555
C20 H18 1_555 1_555
H19 C20 1_555 1_555
H20 C20 1_555 1_555
C21 C20 1_555 1_555
N9 C23 1_555 1_555
C22 H21 1_555 1_555
H22 C22 1_555 1_555
H23 C22 1_555 1_555
C23 C22 1_555 1_555
Cu1C N7 1_555 1_555
N7C Cu1 1_555 1_555
C3 C4 1_555 1_555
C7 C8 1_555 1_555
C8 C9 1_555 1_555
C10 C11 1_555 1_555
C16 C17 1_555 1_555
C18 C19 1_555 1_555

#END
