
#######################################################################
#
#                 Cambridge Crystallographic Data Centre
#                                CCDC 
#
#######################################################################
#
# If this CIF has been generated from an entry in the Cambridge 
# Structural Database, then it will include bibliographic, chemical, 
# crystal, experimental, refinement or atomic coordinate data resulting 
# from the CCDC's data processing and validation procedures.
#
#######################################################################

data_SEWWOH
_symmetry_cell_setting           monoclinic
_symmetry_space_group_name_H-M   'P 21/c'
_symmetry_Int_Tables_number      14
_space_group_name_Hall           '-P 2ybc'
loop_
_symmetry_equiv_pos_site_id
_symmetry_equiv_pos_as_xyz
1 x,y,z
2 -x,1/2+y,1/2-z
3 -x,-y,-z
4 x,1/2-y,1/2+z
_cell_length_a                   9.1784(6)
_cell_length_b                   34.681(2)
_cell_length_c                   6.4578(4)
_cell_angle_alpha                90
_cell_angle_beta                 92.190(2)
_cell_angle_gamma                90
_cell_volume                     2054.12
loop_
_atom_site_label
_atom_site_type_symbol
_atom_site_fract_x
_atom_site_fract_y
_atom_site_fract_z
K1 K 0.16439(5) 0.206527(14) 0.69487(8)
K2 K 0.99785(4) 0.042999(14) 0.24836(7)
O2 O 1.29857(16) 0.05991(4) 0.3480(3)
H3 H 1.352(2) 0.0776(5) 0.311(4)
H4 H 1.333(2) 0.0381(4) 0.334(4)
O3 O 1.00682(16) 0.10866(6) 0.5715(3)
H5 H 1.077(2) 0.1065(9) 0.655(3)
H6 H 1.030(3) 0.1245(6) 0.483(3)
O4 O -0.13176(17) 0.18949(4) 0.5885(3)
H7 H -0.196(2) 0.1745(6) 0.626(4)
H8 H -0.172(3) 0.2106(4) 0.603(4)
O5 O 0.84656(13) 0.02248(4) 0.6005(2)
O6 O 0.49460(15) 0.19310(4) 0.7408(2)
O7 O 0.14107(13) 0.02367(4) 0.8940(2)
N1 N 0.49476(14) 0.07998(4) 0.7457(2)
N2 N 0.73661(16) 0.07930(5) 0.6635(3)
H9 H 0.8152(15) 0.0913(6) 0.641(3)
N3 N 0.61283(15) 0.02002(4) 0.7026(2)
N4 N 0.37536(16) 0.02293(4) 0.8023(3)
H10 H 0.370(2) -0.0015(3) 0.803(3)
N5 N 0.24638(15) 0.08172(4) 0.8339(2)
N6 N 0.36533(15) 0.13851(4) 0.7707(2)
N7 N 0.62240(15) 0.13812(4) 0.7022(2)
C1 C 0.73772(19) 0.03935(5) 0.6524(3)
C2 C 0.49912(17) 0.04022(5) 0.7476(3)
C3 C 0.24661(19) 0.04253(5) 0.8464(3)
C4 C 0.36542(17) 0.10080(5) 0.7833(3)
C5 C 0.49265(18) 0.15763(5) 0.7373(3)
C6 C 0.61884(17) 0.10088(5) 0.7027(3)
O8 O 0.66450(14) 0.05742(4) 0.1847(2)
O9 O 0.30222(13) 0.22626(4) 0.3314(2)
O10 O 1.00862(13) 0.22809(4) 0.0427(2)
N8 N 0.65655(14) 0.17055(4) 0.1847(2)
N9 N 0.78994(16) 0.11288(4) 0.1581(2)
N10 N 0.53241(15) 0.11171(4) 0.2254(2)
N11 N 0.40849(15) 0.16855(4) 0.2720(2)
N12 N 0.53343(16) 0.22761(4) 0.2269(3)
H11 H 0.527(2) 0.2520(3) 0.227(3)
N13 N 0.77103(15) 0.23055(4) 0.1278(2)
N14 N 0.89900(16) 0.17169(4) 0.1060(3)
H12 H 0.9832(15) 0.1616(6) 0.107(3)
C7 C 0.66127(19) 0.09314(5) 0.1899(3)
C8 C 0.52884(18) 0.14971(5) 0.2291(3)
C9 C 0.40710(18) 0.20749(5) 0.2803(3)
C10 C 0.65804(18) 0.21047(5) 0.1776(3)
C11 C 0.89834(19) 0.21144(5) 0.0901(3)
C12 C 0.78290(18) 0.15010(5) 0.1511(3)
K1C K 0.16439(5) 0.293473(14) 0.19487(8)
K1_2 K 1.16439(5) 0.206527(14) -0.30513(8)
K1C_2 K 1.16439(5) 0.293473(14) 0.19487(8)
K2B K 1.00215(4) -0.042999(14) 0.75164(7)
K2_2 K -0.00215(4) 0.042999(14) 1.24836(7)
K2B_2 K 0.00215(4) -0.042999(14) 0.75164(7)
O5B O 1.15344(13) -0.02248(4) 0.3995(2)
O7_2 O 1.14107(13) 0.02367(4) -0.1060(2)
O7B O 0.85893(13) -0.02367(4) 0.1060(2)
O9C O 0.30222(13) 0.27374(4) 0.8314(2)
O10_2 O 0.00862(13) 0.22809(4) 1.0427(2)
O10C O 0.00862(13) 0.27191(4) 0.5427(2)
O1 O 1.14457(15) 0.13134(5) 0.1685(3)
H1 H 1.2186(17) 0.1442(6) 0.197(4)
H2 H 1.162(3) 0.1197(7) 0.060(2)
loop_
_geom_bond_atom_site_label_1
_geom_bond_atom_site_label_2
_geom_bond_site_symmetry_1
_geom_bond_site_symmetry_2
K1 O4 1_555 1_555
K2 O2 1_555 1_555
O1 H1 1_555 1_555
H2 O1 1_555 1_555
O2 H3 1_555 1_555
H4 O2 1_555 1_555
O3 K2 1_555 1_555
H5 O3 1_555 1_555
H6 O3 1_555 1_555
O4 H7 1_555 1_555
H8 O4 1_555 1_555
O5 K2 1_555 1_555
O6 K1 1_555 1_555
O7 C3 1_555 1_555
N1 C2 1_555 1_555
N2 H9 1_555 1_555
N3 C1 1_555 1_555
N4 H10 1_555 1_555
N5 C3 1_555 1_555
N6 K1 1_555 1_555
N7 C5 1_555 1_555
C1 O5 1_555 1_555
C2 N3 1_555 1_555
C3 N4 1_555 1_555
C4 N1 1_555 1_555
C5 O6 1_555 1_555
C6 N1 1_555 1_555
O8 K2 1_555 1_555
O9 K1 1_555 1_555
O10 C11 1_555 1_555
N8 C8 1_555 1_555
N9 K2 1_555 1_555
N10 C7 1_555 1_555
N11 C8 1_555 1_555
N12 H11 1_555 1_555
N13 C10 1_555 1_555
N14 H12 1_555 1_555
C7 O8 1_555 1_555
C8 N10 1_555 1_555
C9 O9 1_555 1_555
C10 N8 1_555 1_555
C11 N13 1_555 1_555
C12 N8 1_555 1_555
K1C O9 1_555 1_555
K1_2 O10 1_555 1_555
K1C_2 O10 1_555 1_555
K2B O5 1_555 1_555
K2_2 O7 1_555 1_555
K2B_2 O7 1_555 1_555
O5B K2 1_555 1_555
O7_2 K2 1_555 1_555
O7B K2 1_555 1_555
O9C K1 1_555 1_555
O10_2 K1 1_555 1_555
O10C K1 1_555 1_555
N2 C1 1_555 1_555
N2 C6 1_555 1_555
N4 C2 1_555 1_555
N5 C4 1_555 1_555
N6 C4 1_555 1_555
N6 C5 1_555 1_555
N7 C6 1_555 1_555
N9 C7 1_555 1_555
N9 C12 1_555 1_555
N11 C9 1_555 1_555
N12 C9 1_555 1_555
N12 C10 1_555 1_555
N14 C11 1_555 1_555
N14 C12 1_555 1_555
K1C O10C 1_555 1_555
K2B O5B 1_555 1_555

#END
