
#######################################################################
#
#                 Cambridge Crystallographic Data Centre
#                                CCDC 
#
#######################################################################
#
# If this CIF has been generated from an entry in the Cambridge 
# Structural Database, then it will include bibliographic, chemical, 
# crystal, experimental, refinement or atomic coordinate data resulting 
# from the CCDC's data processing and validation procedures.
#
#######################################################################

data_SEWWIB
_symmetry_cell_setting           triclinic
_symmetry_space_group_name_H-M   'P -1'
_symmetry_Int_Tables_number      2
_space_group_name_Hall           '-P 1'
loop_
_symmetry_equiv_pos_site_id
_symmetry_equiv_pos_as_xyz
1 x,y,z
2 -x,-y,-z
_cell_length_a                   12.3097(4)
_cell_length_b                   14.6623(4)
_cell_length_c                   20.7619(7)
_cell_angle_alpha                94.9620(10)
_cell_angle_beta                 101.635(2)
_cell_angle_gamma                105.2810(10)
_cell_volume                     3501.64
loop_
_atom_site_label
_atom_site_type_symbol
_atom_site_fract_x
_atom_site_fract_y
_atom_site_fract_z
Cl1 Cl 0.19555(7) 0.40489(8) 0.34124(5)
Cl2 Cl 0.36174(9) 0.38526(8) 0.23506(4)
C1 C 0.3418(3) 0.4714(3) 0.35115(18)
H1 H 0.3447 0.5286 0.3286
H2 H 0.3772 0.4937 0.3991
C2 C 0.4104(3) 0.4147(3) 0.32337(17)
H3 H 0.4030 0.3551 0.3434
H4 H 0.4932 0.4519 0.3351
Cl3 Cl 0.18000(11) 0.12866(11) 0.27206(5)
Cl4 Cl 0.25157(17) -0.01026(13) 0.16545(9)
H7 H 0.2954 0.1492 0.1644
H8 H 0.1918 0.0937 0.1028
C7 C 0.1373(4) 0.1264(4) 0.1854(2)
H13 H 0.0593 0.0807 0.1680
H14 H 0.1330 0.1906 0.1760
C8 C 0.2214(7) 0.0974(4) 0.1513(4)
Sn1 Sn 0.781164(12) 1.403197(10) 0.322582(7)
Sn2 Sn 0.728746(13) 1.100247(10) 0.169929(7)
Sn3 Sn 0.302975(13) 1.124189(11) 0.465848(7)
Sn4 Sn 0.43969(2) 0.72130(2) 0.156063(14)
Sn5 Sn 0.11976(3) 0.76469(3) 0.36254(2)
Sn7 Sn 1.192300(14) 1.372540(11) 0.023130(8)
O1 O 0.62421(15) 1.31632(11) 0.35036(9)
O2 O 0.54732(16) 0.87697(13) 0.17666(9)
O3 O 0.23861(15) 0.92462(11) 0.40742(9)
O4 O 1.32751(17) 1.56098(14) 0.11623(11)
O5 O 0.87862(16) 1.18809(12) 0.13428(9)
O6 O 0.99260(15) 1.61641(12) 0.33144(9)
N1 N 0.60543(16) 1.17504(13) 0.28855(9)
N2 N 0.57611(16) 1.02644(13) 0.22815(9)
N3 N 0.44313(18) 0.88756(14) 0.25250(10)
N4 N 0.34012(17) 0.90166(13) 0.33113(10)
N5 N 0.36356(16) 1.05657(12) 0.38926(9)
N6 N 0.49118(16) 1.19080(13) 0.36842(10)
N7 N 0.46965(15) 1.04008(13) 0.30967(9)
N8 N 1.22376(18) 1.58471(15) 0.19128(11)
N9 N 1.16631(16) 1.44198(13) 0.11254(9)
N10 N 1.02272(16) 1.31113(13) 0.12310(10)
N11 N 0.90824(16) 1.32581(13) 0.20324(9)
N12 N 0.94874(15) 1.47080(12) 0.27100(9)
N13 N 1.11043(17) 1.60227(14) 0.26394(10)
N14 N 1.06280(15) 1.45613(12) 0.19399(9)
C11 C 0.57468(18) 1.22766(14) 0.33513(11)
C12 C 0.55185(17) 1.08198(14) 0.27466(10)
C13 C 0.52180(19) 0.93017(16) 0.21903(11)
C14 C 0.41603(18) 0.94082(15) 0.29713(11)
C15 C 0.31321(18) 0.95837(15) 0.37560(11)
C16 C 0.44267(17) 1.09868(14) 0.35608(10)
C17 C 1.2417(2) 1.53116(17) 0.14089(12)
C18 C 1.08229(17) 1.40049(14) 0.14272(10)
C19 C 0.93544(19) 1.27467(15) 0.15403(11)
C20 C 0.97119(17) 1.41598(14) 0.22320(10)
C21 C 1.01725(18) 1.56343(15) 0.28867(11)
C22 C 1.13379(19) 1.55006(15) 0.21684(11)
C23 C 0.7890(2) 1.52033(16) 0.39573(13)
H21 H 0.8710 1.5585 0.4128
H22 H 0.7468 1.5622 0.3736
C24 C 0.7383(3) 1.4898(2) 0.45504(14)
H23 H 0.6553 1.4570 0.4393
H24 H 0.7494 1.5466 0.4871
H25 H 0.7776 1.4466 0.4765
C25 C 0.8893(2) 1.32321(16) 0.36875(11)
H26 H 0.8414 1.2669 0.3833
H27 H 0.9288 1.3002 0.3364
C26 C 0.9796(2) 1.3866(2) 0.42888(14)
H28 H 1.0228 1.4447 0.4148
H29 H 1.0333 1.3515 0.4475
H30 H 0.9405 1.4039 0.4627
C27 C 0.6821(2) 1.40954(17) 0.22671(12)
H31 H 0.7137 1.3824 0.1918
H32 H 0.6008 1.3708 0.2213
C28 C 0.6856(3) 1.5127(2) 0.21858(16)
H33 H 0.6483 1.5377 0.2507
H34 H 0.6445 1.5148 0.1734
H35 H 0.7664 1.5518 0.2265
C29 C 0.8437(2) 1.10002(17) 0.26237(12)
H36 H 0.9202 1.1462 0.2654
H37 H 0.8125 1.1207 0.2997
C30 C 0.8585(3) 1.0007(2) 0.26836(16)
H38 H 0.7824 0.9542 0.2625
H39 H 0.9063 1.0014 0.3124
H40 H 0.8965 0.9828 0.2341
C31 C 0.7153(5) 0.9791(3) 0.09849(19)
H41 H 0.7493 0.9340 0.1225
H42 H 0.6321 0.9460 0.0797
C32 C 0.7725(5) 1.0008(4) 0.0416(3)
H43 H 0.7509 1.0517 0.0191
H44 H 0.7509 0.9422 0.0096
H45 H 0.8563 1.0203 0.0603
C35 C 0.6171(2) 1.18152(18) 0.12974(13)
H51 H 0.5906 1.2113 0.1660
H52 H 0.6603 1.2332 0.1090
C36 C 0.5119(3) 1.1173(3) 0.0777(2)
H53 H 0.5383 1.0864 0.0426
H54 H 0.4635 1.1561 0.0584
H55 H 0.4667 1.0684 0.0989
C37 C 0.3731(2) 1.0662(2) 0.55068(13)
H56 H 0.4243 1.0293 0.5380
H57 H 0.4212 1.1195 0.5860
C38 C 0.2806(3) 1.0015(2) 0.57848(15)
H58 H 0.2317 1.0383 0.5930
H59 H 0.3177 0.9762 0.6164
H60 H 0.2327 0.9484 0.5439
C39 C 0.1173(2) 1.0796(2) 0.43223(14)
H61 H 0.0951 1.0338 0.3906
H62 H 0.0836 1.0457 0.4660
C40 C 0.0661(3) 1.1614(2) 0.41973(14)
H63 H 0.0922 1.2095 0.4597
H64 H -0.0186 1.1373 0.4088
H65 H 0.0916 1.1905 0.3826
C41 C 0.3707(3) 1.2771(2) 0.47170(16)
H66 H 0.4380 1.2911 0.4510
H67 H 0.3106 1.3018 0.4459
C42 C 0.4078(5) 1.3288(3) 0.5421(2)
H68 H 0.3402 1.3203 0.5615
H69 H 0.4428 1.3970 0.5420
H70 H 0.4647 1.3026 0.5685
C43 C 0.5488(3) 0.7003(2) 0.09075(15)
H71 H 0.5227 0.6324 0.0700
H72 H 0.5393 0.7396 0.0547
C44 C 0.6771(3) 0.7260(2) 0.12517(17)
H73 H 0.7008 0.7893 0.1520
H74 H 0.7229 0.7266 0.0916
H75 H 0.6898 0.6784 0.1540
H76 H 0.2217 0.7001 0.0934
H77 H 0.2683 0.8023 0.1395
H80 H 0.3289 0.7639 0.0158
C47 C 0.2991(17) 0.771(2) 0.1060(8)
C48 C 0.2974(14) 0.7676(12) 0.0321(8)
H84 H 0.2629 0.8160 0.0143
H85 H 0.2514 0.7041 0.0083
C49 C 0.4906(2) 0.68632(19) 0.25250(14)
H86 H 0.4359 0.6981 0.2791
H87 H 0.4841 0.6172 0.2484
C50 C 0.6133(3) 0.7421(2) 0.29004(17)
H88 H 0.6683 0.7313 0.2642
H89 H 0.6309 0.7204 0.3333
H90 H 0.6196 0.8104 0.2968
C51 C 0.0139(2) 0.78941(17) 0.42928(12)
H91 H 0.0019 0.7364 0.4560
H92 H 0.0560 0.8492 0.4603
C52 C -0.1032(3) 0.7972(2) 0.39445(15)
H93 H -0.0922 0.8516 0.3697
H94 H -0.1473 0.8068 0.4275
H95 H -0.1456 0.7384 0.3636
C53 C 0.0779(2) 0.81316(19) 0.26845(12)
H96 H 0.0882 0.8828 0.2768
H97 H 0.1344 0.8035 0.2427
C54 C -0.0434(3) 0.7654(2) 0.22556(15)
H98 H -0.0539 0.6968 0.2146
H99 H -0.0535 0.7937 0.1845
H100 H -0.1008 0.7750 0.2500
C55 C 0.2566(2) 0.71171(18) 0.40779(13)
H101 H 0.2259 0.6419 0.4069
H102 H 0.3160 0.7220 0.3812
C56 C 0.3142(3) 0.7585(3) 0.47945(17)
H103 H 0.3540 0.8260 0.4802
H104 H 0.3704 0.7261 0.4988
H105 H 0.2551 0.7533 0.5054
C57 C 1.3250(3) 1.3086(2) 0.05999(14)
H106 H 1.3087 1.2796 0.0996
H107 H 1.3235 1.2568 0.0257
C58 C 1.4453(3) 1.3800(3) 0.07862(16)
H108 H 1.4594 1.4130 0.0407
H109 H 1.5036 1.3460 0.0905
H110 H 1.4505 1.4268 0.1166
C59 C 1.0270(3) 1.2774(3) -0.02943(16)
H111 H 0.9656 1.2984 -0.0136
H112 H 1.0167 1.2832 -0.0773
C60 C 1.0105(5) 1.1738(3) -0.0220(2)
H113 H 1.0683 1.1511 -0.0396
H114 H 0.9327 1.1360 -0.0466
H115 H 1.0198 1.1669 0.0252
C61 C 1.2369(5) 1.4839(12) -0.0357(10)
H117 H 1.2467 1.4556 -0.0785
C62 C 1.1462(5) 1.5379(4) -0.0499(3)
H119 H 1.1690 1.5852 -0.0789
H120 H 1.1405 1.5704 -0.0080
H121 H 1.2932 1.5441 -0.0018
H125 H 1.0903 1.5185 -0.0510
Sn4_2 Sn 1.43969(2) 1.72130(2) 0.156063(14)
Sn5_2 Sn 1.11976(3) 1.76469(3) 0.36254(2)
O4_2 O 0.32751(17) 0.56098(14) 0.11623(11)
O6_2 O -0.00740(15) 0.61641(12) 0.33144(9)
C3? C 0.1373(4) 0.1264(4) 0.1854(2)
H5? H 0.0593 0.0807 0.1680
H6? H 0.1330 0.1906 0.1760
C4? C 0.2214(7) 0.0974(4) 0.1513(4)
Cl5? Cl 0.18000(11) 0.12866(11) 0.27206(5)
Cl6? Cl 0.2896(3) 0.0494(3) 0.15147(16)
C5? C 0.1373(4) 0.1264(4) 0.1854(2)
H9? H 0.0569 0.1308 0.1743
H10? H 0.1876 0.1835 0.1730
C6? C 0.1427(5) 0.0393(6) 0.1448(4)
H11? H 0.1028 0.0355 0.0978
H12? H 0.1049 -0.0190 0.1618
Cl7? Cl 0.18000(11) 0.12866(11) 0.27206(5)
Cl8? Cl 0.3539(8) 0.1678(9) 0.2018(6)
H15? H 0.2112 0.1125 0.1052
H16? H 0.2139 0.0284 0.1504
Cl9? Cl 0.18000(11) 0.12866(11) 0.27206(5)
Cl10? Cl 0.1374(15) 0.0816(11) 0.0683(5)
C9? C 0.1373(4) 0.1264(4) 0.1854(2)
H17? H 0.0569 0.1308 0.1743
H18? H 0.1876 0.1835 0.1730
C10? C 0.1427(5) 0.0393(6) 0.1448(4)
H19? H 0.0757 -0.0166 0.1430
H20? H 0.2157 0.0231 0.1610
Sn6? Sn 0.43969(2) 0.72130(2) 0.156063(14)
Sn8? Sn 0.728746(13) 1.100247(10) 0.169929(7)
Sn9? Sn 0.192300(14) 0.372539(11) 0.023132(8)
Sn10? Sn 0.4120(2) 0.7351(2) 0.14332(16)
Sn11? Sn 0.0961(3) 0.7695(4) 0.3549(3)
C33? C 0.7038(9) 0.9924(7) 0.0862(4)
H46? H 0.6481 0.9330 0.0919
H47? H 0.6683 1.0140 0.0453
C34? C 0.8121(9) 0.9693(7) 0.0761(5)
H48? H 0.8560 1.0289 0.0641
H49? H 0.7888 0.9185 0.0379
H50? H 0.8607 0.9513 0.1135
C45? C 0.2881(6) 0.7586(8) 0.1077(4)
C46? C 0.3092(6) 0.8071(5) 0.0473(3)
H78? H 0.3733 0.8661 0.0616
H79? H 0.2390 0.8223 0.0257
H81? H 0.2246 0.7299 0.1116
H82? H 0.3089 0.8371 0.1260
H83? H 0.3768 0.7806 0.0261
H116? H 0.3121 0.5298 -0.0122
H118? H 0.0709 0.4926 -0.0719
C63? C 0.2463(16) 0.486(4) -0.033(3)
H122? H 0.2961 0.4675 -0.0607
C64? C 0.1441(18) 0.5070(14) -0.0776(9)
H123? H 0.1039 0.4524 -0.1126
H124? H 0.1724 0.5639 -0.0978
loop_
_geom_bond_atom_site_label_1
_geom_bond_atom_site_label_2
_geom_bond_site_symmetry_1
_geom_bond_site_symmetry_2
Cl1 C1 1_555 1_555
Cl2 C2 1_555 1_555
C1 H1 1_555 1_555
H2 C1 1_555 1_555
C2 C1 1_555 1_555
H3 C2 1_555 1_555
H4 C2 1_555 1_555
Cl3 C7 1_555 1_555
Cl4 C8 1_555 1_555
H7 C8 1_555 1_555
H8 C8 1_555 1_555
C7 H13 1_555 1_555
H14 C7 1_555 1_555
C8 C7 1_555 1_555
Sn1 O1 1_555 1_555
Sn2 O5 1_555 1_555
Sn3 N5 1_555 1_555
Sn4 O2 1_555 1_555
Sn5 O3 1_555 1_555
Sn7 N9 1_555 1_555
O1 C11 1_555 1_555
O2 C13 1_555 1_555
O3 C15 1_555 1_555
O4 C17 1_555 1_555
O5 C19 1_555 1_555
O6 C21 1_555 1_555
N1 C11 1_555 1_555
N2 Sn2 1_555 1_555
N3 C13 1_555 1_555
N4 C14 1_555 1_555
N5 C15 1_555 1_555
N6 C11 1_555 1_555
N7 C12 1_555 1_555
N8 C17 1_555 1_555
N9 C17 1_555 1_555
N10 C18 1_555 1_555
N11 C19 1_555 1_555
N12 Sn1 1_555 1_555
N13 C21 1_555 1_555
N14 C18 1_555 1_555
C12 N1 1_555 1_555
C13 N2 1_555 1_555
C14 N3 1_555 1_555
C15 N4 1_555 1_555
C16 N5 1_555 1_555
C18 N9 1_555 1_555
C19 N10 1_555 1_555
C20 N11 1_555 1_555
C21 N12 1_555 1_555
C22 N8 1_555 1_555
C23 Sn1 1_555 1_555
H21 C23 1_555 1_555
H22 C23 1_555 1_555
C24 C23 1_555 1_555
H23 C24 1_555 1_555
H24 C24 1_555 1_555
H25 C24 1_555 1_555
C25 Sn1 1_555 1_555
H26 C25 1_555 1_555
H27 C25 1_555 1_555
C26 C25 1_555 1_555
H28 C26 1_555 1_555
H29 C26 1_555 1_555
H30 C26 1_555 1_555
C27 Sn1 1_555 1_555
H31 C27 1_555 1_555
H32 C27 1_555 1_555
C28 C27 1_555 1_555
H33 C28 1_555 1_555
H34 C28 1_555 1_555
H35 C28 1_555 1_555
C29 Sn2 1_555 1_555
H36 C29 1_555 1_555
H37 C29 1_555 1_555
C30 C29 1_555 1_555
H38 C30 1_555 1_555
H39 C30 1_555 1_555
H40 C30 1_555 1_555
C31 Sn2 1_555 1_555
H41 C31 1_555 1_555
H42 C31 1_555 1_555
C32 C31 1_555 1_555
H43 C32 1_555 1_555
H44 C32 1_555 1_555
H45 C32 1_555 1_555
C35 Sn2 1_555 1_555
H51 C35 1_555 1_555
H52 C35 1_555 1_555
C36 C35 1_555 1_555
H53 C36 1_555 1_555
H54 C36 1_555 1_555
H55 C36 1_555 1_555
C37 Sn3 1_555 1_555
H56 C37 1_555 1_555
H57 C37 1_555 1_555
C38 C37 1_555 1_555
H58 C38 1_555 1_555
H59 C38 1_555 1_555
H60 C38 1_555 1_555
C39 Sn3 1_555 1_555
H61 C39 1_555 1_555
H62 C39 1_555 1_555
C40 C39 1_555 1_555
H63 C40 1_555 1_555
H64 C40 1_555 1_555
H65 C40 1_555 1_555
C41 Sn3 1_555 1_555
H66 C41 1_555 1_555
H67 C41 1_555 1_555
C42 C41 1_555 1_555
H68 C42 1_555 1_555
H69 C42 1_555 1_555
H70 C42 1_555 1_555
C43 Sn4 1_555 1_555
H71 C43 1_555 1_555
H72 C43 1_555 1_555
C44 C43 1_555 1_555
H73 C44 1_555 1_555
H74 C44 1_555 1_555
H75 C44 1_555 1_555
H76 C47 1_555 1_555
H77 C47 1_555 1_555
H80 C48 1_555 1_555
C47 Sn4 1_555 1_555
C48 C47 1_555 1_555
H84 C48 1_555 1_555
H85 C48 1_555 1_555
C49 Sn4 1_555 1_555
H86 C49 1_555 1_555
H87 C49 1_555 1_555
C50 C49 1_555 1_555
H88 C50 1_555 1_555
H89 C50 1_555 1_555
H90 C50 1_555 1_555
C51 Sn5 1_555 1_555
H91 C51 1_555 1_555
H92 C51 1_555 1_555
C52 C51 1_555 1_555
H93 C52 1_555 1_555
H94 C52 1_555 1_555
H95 C52 1_555 1_555
C53 Sn5 1_555 1_555
H96 C53 1_555 1_555
H97 C53 1_555 1_555
C54 C53 1_555 1_555
H98 C54 1_555 1_555
H99 C54 1_555 1_555
H100 C54 1_555 1_555
C55 Sn5 1_555 1_555
H101 C55 1_555 1_555
H102 C55 1_555 1_555
C56 C55 1_555 1_555
H103 C56 1_555 1_555
H104 C56 1_555 1_555
H105 C56 1_555 1_555
C57 Sn7 1_555 1_555
H106 C57 1_555 1_555
H107 C57 1_555 1_555
C58 C57 1_555 1_555
H108 C58 1_555 1_555
H109 C58 1_555 1_555
H110 C58 1_555 1_555
C59 Sn7 1_555 1_555
H111 C59 1_555 1_555
H112 C59 1_555 1_555
C60 C59 1_555 1_555
H113 C60 1_555 1_555
H114 C60 1_555 1_555
H115 C60 1_555 1_555
C61 Sn7 1_555 1_555
H117 C61 1_555 1_555
C62 C61 1_555 1_555
H119 C62 1_555 1_555
H120 C62 1_555 1_555
H121 C61 1_555 1_555
H125 C62 1_555 1_555
Sn4_2 O4 1_555 1_555
Sn5_2 O6 1_555 1_555
O4_2 Sn4 1_555 1_555
O6_2 Sn5 1_555 1_555
N2 C12 1_555 1_555
N6 C16 1_555 1_555
N7 C14 1_555 1_555
N7 C16 1_555 1_555
N12 C20 1_555 1_555
N13 C22 1_555 1_555
N14 C20 1_555 1_555
N14 C22 1_555 1_555

#END
