
#######################################################################
#
#                 Cambridge Crystallographic Data Centre
#                                CCDC 
#
#######################################################################
#
# If this CIF has been generated from an entry in the Cambridge 
# Structural Database, then it will include bibliographic, chemical, 
# crystal, experimental, refinement or atomic coordinate data resulting 
# from the CCDC's data processing and validation procedures.
#
#######################################################################

data_SEWWAU
_symmetry_cell_setting           triclinic
_symmetry_space_group_name_H-M   'P -1'
_symmetry_Int_Tables_number      2
_space_group_name_Hall           '-P 1'
loop_
_symmetry_equiv_pos_site_id
_symmetry_equiv_pos_as_xyz
1 x,y,z
2 -x,-y,-z
_cell_length_a                   7.310(4)
_cell_length_b                   10.068(7)
_cell_length_c                   17.074(13)
_cell_angle_alpha                101.53(6)
_cell_angle_beta                 96.20(5)
_cell_angle_gamma                104.51(6)
_cell_volume                     1175.3
loop_
_atom_site_label
_atom_site_type_symbol
_atom_site_fract_x
_atom_site_fract_y
_atom_site_fract_z
C1 C 0.6159(8) 0.4035(6) 0.5707(4)
C2 C 0.7803(9) 0.5170(7) 0.4848(4)
H1 H 0.8124 0.5175 0.4336
C3 C 0.8618(10) 0.6363(7) 0.5467(4)
H2 H 0.9411 0.718 0.538
C4 C 0.8184(9) 0.6265(7) 0.6215(4)
H3 H 0.8748 0.7031 0.6651
C5 C 0.3882(9) 0.2840(7) 0.6487(4)
H4 H 0.2519 0.2414 0.6301
H5 H 0.4063 0.3786 0.681
C6 C 0.4662(8) 0.1965(6) 0.7011(4)
H6 H 0.4457 0.1014 0.669
H7 H 0.6031 0.238 0.7185
C7 C 0.4653(8) 0.2630(6) 0.8469(4)
C8 C 0.7467(9) 0.4009(7) 0.9260(4)
H8 H 0.8725 0.4552 0.9309
C9 C 0.6774(10) 0.3798(8) 0.9951(4)
H9 H 0.7536 0.4135 1.046
C10 C 0.4904(10) 0.3068(7) 0.9844(4)
H10 H 0.4358 0.2977 1.0305
C11 C 0.1840(8) 0.0882(6) 0.7568(4)
H11 H 0.1742 0.041 0.8011
H12 H 0.173 0.0171 0.7076
C12 C 0.0170(9) 0.1523(7) 0.7484(4)
H13 H 0.0144 0.2129 0.7999
H14 H 0.0327 0.2091 0.7086
C13 C -0.2784(8) -0.0094(6) 0.7720(4)
C14 C -0.3587(9) -0.0044(7) 0.8973(4)
H15 H -0.3291 0.0297 0.9532
C15 C -0.5358(9) -0.0984(8) 0.8646(4)
H16 H -0.6259 -0.1259 0.897
C16 C -0.5722(9) -0.1491(6) 0.7828(4)
H17 H -0.6887 -0.215 0.7591
N1 N 0.6992(7) 0.5127(5) 0.6351(3)
N2 N 0.4848(8) 0.2916(5) 0.5795(3)
H18 H 0.4548 0.2171 0.5405
N3 N 0.6582(7) 0.4016(5) 0.4949(3)
N4 N 1.1958(9) 0.5209(6) 0.7780(4)
N5 N 0.0474(7) 0.2101(5) 1.1119(3)
N6 N 0.7808(9) 0.0630(6) 0.5231(4)
N7 N 0.3738(7) 0.1906(5) 0.7717(3)
N8 N 0.6441(7) 0.3480(5) 0.8524(3)
N9 N 0.3787(7) 0.2468(5) 0.9123(3)
N10 N -0.1609(7) 0.0403(6) 0.7231(3)
H19 H -0.194 0.0022 0.6721
N11 N -0.2288(7) 0.0398(5) 0.8529(3)
N12 N -0.4463(7) -0.1073(5) 0.7356(3)
O1 O 1.0697(8) 0.4930(7) 0.8213(4)
O2 O 1.3661(8) 0.5390(7) 0.8072(4)
O3 O 1.1520(9) 0.5325(7) 0.7089(3)
O4 O -0.0549(8) 0.1125(5) 1.0549(3)
O5 O 0.1698(9) 0.3060(6) 1.0965(5)
O6 O 0.0230(9) 0.2112(6) 1.1815(3)
O7 O 0.7264(11) 0.0559(7) 0.4512(3)
O8 O 0.7487(8) -0.0491(6) 0.5488(3)
O9 O 0.8702(10) 0.1775(6) 0.5685(4)
Ag1 Ag 0.74900(9) 0.50448(6) 0.76762(3)
Ag2 Ag 0.07516(7) 0.14506(6) 0.92799(3)
Ag3 Ag 0.54021(8) 0.21995(6) 0.39207(3)
N12A N 0.4463(7) 0.1073(5) 0.2644(3)
O4A O 0.0549(8) -0.1125(5) 0.9451(3)
O5A O 0.8302(9) 0.6940(6) 0.9035(5)
Ag1A Ag 0.25100(9) 0.49552(6) 1.23238(3)
Ag2A Ag -0.07516(7) -0.14506(6) 1.07201(3)
Ag3A Ag -0.54021(8) -0.21995(6) 0.60793(3)
loop_
_geom_bond_atom_site_label_1
_geom_bond_atom_site_label_2
_geom_bond_site_symmetry_1
_geom_bond_site_symmetry_2
C1 N1 1_555 1_555
C2 H1 1_555 1_555
C3 C2 1_555 1_555
H2 C3 1_555 1_555
C4 C3 1_555 1_555
H3 C4 1_555 1_555
C5 H4 1_555 1_555
H5 C5 1_555 1_555
C6 C5 1_555 1_555
H6 C6 1_555 1_555
H7 C6 1_555 1_555
C7 N7 1_555 1_555
C8 H8 1_555 1_555
C9 C8 1_555 1_555
H9 C9 1_555 1_555
C10 C9 1_555 1_555
H10 C10 1_555 1_555
C11 H11 1_555 1_555
H12 C11 1_555 1_555
C12 C11 1_555 1_555
H13 C12 1_555 1_555
H14 C12 1_555 1_555
C13 N10 1_555 1_555
C14 H15 1_555 1_555
C15 C14 1_555 1_555
H16 C15 1_555 1_555
C16 C15 1_555 1_555
H17 C16 1_555 1_555
N1 C4 1_555 1_555
N2 C1 1_555 1_555
H18 N2 1_555 1_555
N3 C1 1_555 1_555
N4 O1 1_555 1_555
N5 O4 1_555 1_555
N6 O7 1_555 1_555
N7 C6 1_555 1_555
N8 C7 1_555 1_555
N9 C7 1_555 1_555
N10 C12 1_555 1_555
H19 N10 1_555 1_555
N11 C13 1_555 1_555
N12 C13 1_555 1_555
O1 Ag1 1_555 1_555
O2 N4 1_555 1_555
O3 N4 1_555 1_555
O4 Ag2 1_555 1_555
O5 N5 1_555 1_555
O6 N5 1_555 1_555
O7 Ag3 1_555 1_555
O8 N6 1_555 1_555
O9 N6 1_555 1_555
Ag1 N1 1_555 1_555
Ag2 N9 1_555 1_555
Ag3 N3 1_555 1_555
N12A Ag3 1_555 1_555
O4A Ag2 1_555 1_555
O5A Ag1 1_555 1_555
Ag1A O5 1_555 1_555
Ag2A O4 1_555 1_555
Ag3A N12 1_555 1_555
C2 N3 1_555 1_555
C5 N2 1_555 1_555
C8 N8 1_555 1_555
C10 N9 1_555 1_555
C11 N7 1_555 1_555
C14 N11 1_555 1_555
C16 N12 1_555 1_555
N8 Ag1 1_555 1_555
N11 Ag2 1_555 1_555
O4A Ag2A 1_555 1_555

#END
