
#######################################################################
#
#                 Cambridge Crystallographic Data Centre
#                                CCDC 
#
#######################################################################
#
# If this CIF has been generated from an entry in the Cambridge 
# Structural Database, then it will include bibliographic, chemical, 
# crystal, experimental, refinement or atomic coordinate data resulting 
# from the CCDC's data processing and validation procedures.
#
#######################################################################

data_SEWWUN
_symmetry_cell_setting           monoclinic
_symmetry_space_group_name_H-M   'P 21/n'
_symmetry_Int_Tables_number      14
_space_group_name_Hall           '-P 2yn'
loop_
_symmetry_equiv_pos_site_id
_symmetry_equiv_pos_as_xyz
1 x,y,z
2 1/2-x,1/2+y,1/2-z
3 -x,-y,-z
4 1/2+x,1/2-y,1/2+z
_cell_length_a                   7.4048(5)
_cell_length_b                   15.5081(9)
_cell_length_c                   9.5745(6)
_cell_angle_alpha                90
_cell_angle_beta                 109.259(7)
_cell_angle_gamma                90
_cell_volume                     1037.95
loop_
_atom_site_label
_atom_site_type_symbol
_atom_site_fract_x
_atom_site_fract_y
_atom_site_fract_z
N1 N 0.2477(2) 0.52430(10) 0.49421(17)
C1 C 0.3901(3) 0.49895(13) 0.6258(2)
N2 N 0.4125(2) 0.41645(11) 0.66100(19)
C2 C 0.2896(3) 0.35760(13) 0.5713(2)
N3 N 0.1503(2) 0.37990(11) 0.4398(2)
C3 C 0.1305(3) 0.46148(13) 0.4012(2)
N4 N -0.0029(2) 0.48515(11) 0.2755(2)
C4 C -0.0224(3) 0.56900(13) 0.2367(2)
N5 N 0.0952(3) 0.63015(12) 0.3285(2)
H1 H 0.088(4) 0.678(2) 0.297(3)
C5 C 0.2292(3) 0.61078(12) 0.4596(2)
N6 N 0.3306(3) 0.67060(11) 0.5459(2)
C6 C 0.4675(3) 0.64300(14) 0.6765(2)
N7 N 0.5007(2) 0.55818(12) 0.7124(2)
O1 O 0.3017(2) 0.28062(10) 0.61076(19)
O2 O -0.1442(2) 0.59491(11) 0.12138(17)
O3 O 0.5646(2) 0.69809(10) 0.7640(2)
K1 K 0.05297(7) 0.33988(3) 0.10588(6)
K2 K 0.46417(7) 0.30304(4) 0.93125(6)
O4 O -0.2745(3) 0.43328(14) -0.0398(2)
H2 H -0.336(5) 0.454(3) -0.122(3)
H3 H -0.240(5) 0.477(2) 0.015(4)
N3C N 0.6503(2) 0.12010(11) 0.9398(2)
N6A N 0.1694(3) 0.17060(11) 0.9541(2)
O1C O -0.1983(2) 0.21938(10) 0.11076(19)
O1C_2 O 0.8017(2) 0.21938(10) 1.11076(19)
O2B O 0.1442(2) 0.40509(11) -0.12138(17)
O2B_2 O 0.1442(2) 0.40509(11) 0.87862(17)
O3B O 0.4354(2) 0.30191(10) 0.2360(2)
O3B_2 O 0.4354(2) 0.30191(10) 1.2360(2)
K1C K 0.55297(7) 0.16012(3) 0.60588(6)
K1B K -0.05297(7) 0.66012(3) -0.10588(6)
K1B_2 K 0.94703(7) 0.66012(3) 0.89412(6)
K1_2 K 0.05297(7) 0.33988(3) 1.10588(6)
K2C K -0.03583(7) 0.19696(4) 0.43125(6)
K2A K 0.03583(7) 0.80304(4) 0.56875(6)
K2B K -0.46417(7) 0.69696(4) 0.06875(6)
K2B_2 K 0.53583(7) 0.69696(4) 1.06875(6)
K2_2 K 0.46417(7) 0.30304(4) -0.06875(6)
K2_3 K -0.53583(7) 0.30304(4) -0.06875(6)
O4_2 O 0.7255(3) 0.43328(14) 0.9602(2)
loop_
_geom_bond_atom_site_label_1
_geom_bond_atom_site_label_2
_geom_bond_site_symmetry_1
_geom_bond_site_symmetry_2
N1 C1 1_555 1_555
C1 N2 1_555 1_555
N2 C2 1_555 1_555
C2 N3 1_555 1_555
N3 C3 1_555 1_555
C3 N1 1_555 1_555
N4 C3 1_555 1_555
C4 N4 1_555 1_555
N5 C4 1_555 1_555
H1 N5 1_555 1_555
C5 N1 1_555 1_555
N6 C5 1_555 1_555
C6 N6 1_555 1_555
N7 C1 1_555 1_555
O1 C2 1_555 1_555
O2 C4 1_555 1_555
O3 C6 1_555 1_555
K1 N3 1_555 1_555
K2 N2 1_555 1_555
O4 K1 1_555 1_555
H2 O4 1_555 1_555
H3 O4 1_555 1_555
N3C K2 1_555 1_555
N6A K2 1_555 1_555
O1C K1 1_555 1_555
O1C_2 K2 1_555 1_555
O2B K1 1_555 1_555
O2B_2 K2 1_555 1_555
O3B K1 1_555 1_555
O3B_2 K2 1_555 1_555
K1C O1 1_555 1_555
K1B O2 1_555 1_555
K1B_2 O3 1_555 1_555
K1_2 O2B_2 1_555 1_555
K2C N3 1_555 1_555
K2A N6 1_555 1_555
K2B O2 1_555 1_555
K2B_2 O3 1_555 1_555
K2_2 O2B 1_555 1_555
K2_3 O4 1_555 1_555
O4_2 K2 1_555 1_555
N4 K1 1_555 1_555
N5 C5 1_555 1_555
C6 N7 1_555 1_555
O1 K2 1_555 1_555
O1 K2C 1_555 1_555
N3C K1C 1_555 1_555
O1C K2C 1_555 1_555
O1C K2_3 1_555 1_555
O3B K2_2 1_555 1_555
O3B_2 K1_2 1_555 1_555

#END
