
#######################################################################
#
#                 Cambridge Crystallographic Data Centre
#                                CCDC 
#
#######################################################################
#
# If this CIF has been generated from an entry in the Cambridge 
# Structural Database, then it will include bibliographic, chemical, 
# crystal, experimental, refinement or atomic coordinate data resulting 
# from the CCDC's data processing and validation procedures.
#
#######################################################################

data_SEWXUO01
_symmetry_cell_setting           tetragonal
_symmetry_space_group_name_H-M   'P -4 n 2'
_symmetry_Int_Tables_number      118
_space_group_name_Hall           'P -4 -2n'
loop_
_symmetry_equiv_pos_site_id
_symmetry_equiv_pos_as_xyz
1 x,y,z
2 y,-x,-z
3 -x,-y,z
4 -y,x,-z
5 1/2-x,1/2+y,1/2+z
6 1/2+y,1/2+x,1/2-z
7 1/2+x,1/2-y,1/2+z
8 1/2-y,1/2-x,1/2-z
_cell_length_a                   10.616(4)
_cell_length_b                   10.616(4)
_cell_length_c                   17.008(6)
_cell_angle_alpha                90
_cell_angle_beta                 90
_cell_angle_gamma                90
_cell_volume                     1916.79
loop_
_atom_site_label
_atom_site_type_symbol
_atom_site_fract_x
_atom_site_fract_y
_atom_site_fract_z
La1 La 0.0000 0.5000 0.2500
Cr1 Cr 0.5000 0.5000 0.0000
Co1 Co 0.0000 0.5000 0.0292
O1 O -0.0291 0.3544 -0.0441
O2 O -0.0478 0.3825 0.1228
O3 O 0.2202 0.4192 0.1985
N1 N -0.1784 0.3216 0.2500
N2 N 0.2000 0.4630 0.0188
N3 N 0.5000 0.5000 -0.1910
C1 C -0.1300 0.1764 -0.0997
C2 C -0.1002 0.2625 -0.0312
C3 C -0.1541 0.2328 0.0429
C4 C -0.1312 0.2950 0.1129
C5 C -0.2061 0.2602 0.1835
C6 C -0.3009 0.1684 0.1819
C7 C -0.3628 0.1372 0.2500
C8 C 0.3060 0.4738 0.0089
C9 C 0.5000 0.5000 -0.1215
H1 H -0.1698 0.2226 -0.1410
H2 H -0.0538 0.1404 -0.1200
H3 H -0.1842 0.1103 -0.0834
H4 H -0.2119 0.1636 0.0446
H5 H -0.3218 0.1256 0.1335
H6 H -0.4261 0.0739 0.2500
La1A La 0.5000 1.0000 -0.2500
Cr1D Cr 0.0000 1.0000 0.5000
Cr1D_2 Cr 0.0000 0.0000 0.5000
Cr1D_3 Cr 0.0000 1.0000 -0.5000
Cr1D_4 Cr 1.0000 1.0000 -0.5000
Co1E Co 0.0000 0.5000 0.4708
Co1A Co 0.5000 1.0000 -0.0292
Co1_2 Co 1.0000 0.5000 0.0292
Co1A_2 Co 0.5000 0.0000 -0.0292
Co1D Co 0.5000 1.0000 -0.4708
O1B O 0.0291 0.6456 -0.0441
O1E O -0.1456 0.4709 0.5441
O1G O 0.1456 0.5291 0.5441
O1A O 0.3544 1.0291 0.0441
O1C O 0.6456 0.9709 0.0441
O1D O 0.5291 0.8544 -0.5441
O1F O 0.4709 1.1456 -0.5441
O2B O 0.0478 0.6175 0.1228
O2E O -0.1175 0.4522 0.3772
O2G O 0.1175 0.5478 0.3772
O2A O 0.3825 1.0478 -0.1228
O2C O 0.6175 0.9522 -0.1228
O2D O 0.5478 0.8825 -0.3772
O2F O 0.4522 1.1175 -0.3772
O3B O -0.2202 0.5808 0.1985
O3E O -0.0808 0.7202 0.3015
O3G O 0.0808 0.2798 0.3015
O3A O 0.4192 0.7798 -0.1985
O3C O 0.5808 1.2202 -0.1985
O3D O 0.2798 0.9192 -0.3015
O3F O 0.7202 1.0808 -0.3015
N1B N 0.1784 0.6784 0.2500
N1A N 0.3216 1.1784 -0.2500
N1C N 0.6784 0.8216 -0.2500
N2B N -0.2000 0.5370 0.0188
N2A N 0.4630 0.8000 -0.0188
N2B_2 N 0.8000 0.5370 0.0188
N2C N 0.5370 0.2000 -0.0188
N2E N -0.0370 0.7000 0.4812
N2G N 0.0370 0.3000 0.4812
N2C_2 N 0.5370 1.2000 -0.0188
N2D N 0.3000 0.9630 -0.4812
N2F N 0.7000 1.0370 -0.4812
N3A N 0.5000 0.5000 0.1910
N3D N 0.0000 1.0000 0.3090
N3E N 0.0000 1.0000 0.6910
C1B C 0.1300 0.8236 -0.0997
C1E C -0.3236 0.3700 0.5997
C1G C 0.3236 0.6300 0.5997
C1A C 0.1764 1.1300 0.0997
C1C C 0.8236 0.8700 0.0997
C1D C 0.6300 0.6764 -0.5997
C1F C 0.3700 1.3236 -0.5997
C2B C 0.1002 0.7375 -0.0312
C2E C -0.2375 0.3998 0.5312
C2G C 0.2375 0.6002 0.5312
C2A C 0.2625 1.1002 0.0312
C2C C 0.7375 0.8998 0.0312
C2D C 0.6002 0.7625 -0.5312
C2F C 0.3998 1.2375 -0.5312
C3B C 0.1541 0.7672 0.0429
C3E C -0.2672 0.3459 0.4571
C3G C 0.2672 0.6541 0.4571
C3A C 0.2328 1.1541 -0.0429
C3C C 0.7672 0.8459 -0.0429
C3D C 0.6541 0.7328 -0.4571
C3F C 0.3459 1.2672 -0.4571
C4B C 0.1312 0.7050 0.1129
C4E C -0.2050 0.3688 0.3871
C4G C 0.2050 0.6312 0.3871
C4A C 0.2950 1.1312 -0.1129
C4C C 0.7050 0.8688 -0.1129
C4D C 0.6312 0.7950 -0.3871
C4F C 0.3688 1.2050 -0.3871
C5E C -0.2398 0.2939 0.3165
C5B C 0.2061 0.7398 0.1835
C5G C 0.2398 0.7061 0.3165
C5A C 0.2602 1.2061 -0.1835
C5C C 0.7398 0.7939 -0.1835
C5F C 0.2939 1.2398 -0.3165
C5D C 0.7061 0.7602 -0.3165
C6E C -0.3316 0.1991 0.3181
C6B C 0.3009 0.8316 0.1819
C6G C 0.3316 0.8009 0.3181
C6A C 0.1684 1.3009 -0.1819
C6C C 0.8316 0.6991 -0.1819
C6F C 0.1991 1.3316 -0.3181
C6D C 0.8009 0.6684 -0.3181
C7B C 0.3628 0.8628 0.2500
C7A C 0.1372 1.3628 -0.2500
C7C C 0.8628 0.6372 -0.2500
C8A C 0.4738 0.6940 -0.0089
C8B C 0.6940 0.5262 0.0089
C8C C 0.5262 0.3060 -0.0089
C8E C -0.0262 0.8060 0.4911
C8G C 0.0262 0.1940 0.4911
C8D C 0.1940 0.9738 0.5089
C8F C -0.1940 1.0262 0.5089
C8G_2 C 0.0262 1.1940 0.4911
C8D_2 C 0.1940 0.9738 -0.4911
C8F_2 C 0.8060 1.0262 -0.4911
C9A C 0.5000 0.5000 0.1215
C9D C 0.0000 1.0000 0.3785
C9E C 0.0000 1.0000 0.6215
H1B H 0.1698 0.7774 -0.1410
H1E H -0.2774 0.3302 0.6410
H1G H 0.2774 0.6698 0.6410
H1A H 0.2226 1.1698 0.1410
H1C H 0.7774 0.8302 0.1410
H1D H 0.6698 0.7226 -0.6410
H1F H 0.3302 1.2774 -0.6410
H2B H 0.0538 0.8596 -0.1200
H2E H -0.3596 0.4462 0.6200
H2G H 0.3596 0.5538 0.6200
H2A H 0.1404 1.0538 0.1200
H2C H 0.8596 0.9462 0.1200
H2D H 0.5538 0.6404 -0.6200
H2F H 0.4462 1.3596 -0.6200
H3B H 0.1842 0.8897 -0.0834
H3E H -0.3897 0.3158 0.5834
H3G H 0.3897 0.6842 0.5834
H3A H 0.1103 1.1842 0.0834
H3C H 0.8897 0.8158 0.0834
H3D H 0.6842 0.6103 -0.5834
H3F H 0.3158 1.3897 -0.5834
H4B H 0.2119 0.8364 0.0446
H4E H -0.3364 0.2881 0.4554
H4G H 0.3364 0.7119 0.4554
H4A H 0.1636 1.2119 -0.0446
H4C H 0.8364 0.7881 -0.0446
H4D H 0.7119 0.6636 -0.4554
H4F H 0.2881 1.3364 -0.4554
H5E H -0.3744 0.1782 0.3665
H5B H 0.3218 0.8744 0.1335
H5G H 0.3744 0.8218 0.3665
H5A H 0.1256 1.3218 -0.1335
H5C H 0.8744 0.6782 -0.1335
H5F H 0.1782 1.3744 -0.3665
H5D H 0.8218 0.6256 -0.3665
H6B H 0.4261 0.9261 0.2500
H6A H 0.0739 1.4261 -0.2500
H6C H 0.9261 0.5739 -0.2500
loop_
_geom_bond_atom_site_label_1
_geom_bond_atom_site_label_2
_geom_bond_site_symmetry_1
_geom_bond_site_symmetry_2
La1 O2 1_555 1_555
Cr1 C8 1_555 1_555
Co1 O1 1_555 1_555
O1 C2 1_555 1_555
O2 Co1 1_555 1_555
O3 La1 1_555 1_555
N1 La1 1_555 1_555
N2 Co1 1_555 1_555
N3 C9 1_555 1_555
C1 C2 1_555 1_555
C2 C3 1_555 1_555
C3 C4 1_555 1_555
C4 O2 1_555 1_555
C5 N1 1_555 1_555
C6 C5 1_555 1_555
C7 C6 1_555 1_555
C8 N2 1_555 1_555
C9 Cr1 1_555 1_555
H1 C1 1_555 1_555
H2 C1 1_555 1_555
H3 C1 1_555 1_555
H4 C3 1_555 1_555
H5 C6 1_555 1_555
H6 C7 1_555 1_555
La1A O2A 1_555 1_555
Cr1D C8E 1_555 1_555
Cr1D_2 C8G 1_555 1_555
Cr1D_3 C8D_2 1_555 1_555
Cr1D_4 C8F_2 1_555 1_555
Co1E O1E 1_555 1_555
Co1A O1A 1_555 1_555
Co1_2 N2B_2 1_555 1_555
Co1A_2 N2C 1_555 1_555
Co1D O1D 1_555 1_555
O1B Co1 1_555 1_555
O1E C2E 1_555 1_555
O1G Co1E 1_555 1_555
O1A C2A 1_555 1_555
O1C Co1A 1_555 1_555
O1D C2D 1_555 1_555
O1F Co1D 1_555 1_555
O2B La1 1_555 1_555
O2E La1 1_555 1_555
O2G La1 1_555 1_555
O2A Co1A 1_555 1_555
O2C La1A 1_555 1_555
O2D La1A 1_555 1_555
O2F La1A 1_555 1_555
O3B La1 1_555 1_555
O3E La1 1_555 1_555
O3G La1 1_555 1_555
O3A La1A 1_555 1_555
O3C La1A 1_555 1_555
O3D La1A 1_555 1_555
O3F La1A 1_555 1_555
N1B La1 1_555 1_555
N1A La1A 1_555 1_555
N1C La1A 1_555 1_555
N2B Co1 1_555 1_555
N2A Co1A 1_555 1_555
N2B_2 C8B 1_555 1_555
N2C C8C 1_555 1_555
N2E Co1E 1_555 1_555
N2G Co1E 1_555 1_555
N2C_2 Co1A 1_555 1_555
N2D Co1D 1_555 1_555
N2F Co1D 1_555 1_555
N3A C9A 1_555 1_555
N3D C9D 1_555 1_555
N3E C9E 1_555 1_555
C1B C2B 1_555 1_555
C1E C2E 1_555 1_555
C1G C2G 1_555 1_555
C1A C2A 1_555 1_555
C1C C2C 1_555 1_555
C1D C2D 1_555 1_555
C1F C2F 1_555 1_555
C2B O1B 1_555 1_555
C2E C3E 1_555 1_555
C2G O1G 1_555 1_555
C2A C3A 1_555 1_555
C2C O1C 1_555 1_555
C2D C3D 1_555 1_555
C2F O1F 1_555 1_555
C3B C2B 1_555 1_555
C3E C4E 1_555 1_555
C3G C2G 1_555 1_555
C3A C4A 1_555 1_555
C3C C2C 1_555 1_555
C3D C4D 1_555 1_555
C3F C2F 1_555 1_555
C4B O2B 1_555 1_555
C4E O2E 1_555 1_555
C4G O2G 1_555 1_555
C4A O2A 1_555 1_555
C4C O2C 1_555 1_555
C4D O2D 1_555 1_555
C4F O2F 1_555 1_555
C5E N1 1_555 1_555
C5B N1B 1_555 1_555
C5G N1B 1_555 1_555
C5A N1A 1_555 1_555
C5C N1C 1_555 1_555
C5F N1A 1_555 1_555
C5D N1C 1_555 1_555
C6E C7 1_555 1_555
C6B C5B 1_555 1_555
C6G C5G 1_555 1_555
C6A C5A 1_555 1_555
C6C C5C 1_555 1_555
C6F C5F 1_555 1_555
C6D C5D 1_555 1_555
C7B C6B 1_555 1_555
C7A C6A 1_555 1_555
C7C C6C 1_555 1_555
C8A Cr1 1_555 1_555
C8B Cr1 1_555 1_555
C8C Cr1 1_555 1_555
C8E N2E 1_555 1_555
C8G N2G 1_555 1_555
C8D Cr1D 1_555 1_555
C8F Cr1D 1_555 1_555
C8G_2 Cr1D 1_555 1_555
C8D_2 N2D 1_555 1_555
C8F_2 N2F 1_555 1_555
C9A Cr1 1_555 1_555
C9D Cr1D 1_555 1_555
C9E Cr1D 1_555 1_555
H1B C1B 1_555 1_555
H1E C1E 1_555 1_555
H1G C1G 1_555 1_555
H1A C1A 1_555 1_555
H1C C1C 1_555 1_555
H1D C1D 1_555 1_555
H1F C1F 1_555 1_555
H2B C1B 1_555 1_555
H2E C1E 1_555 1_555
H2G C1G 1_555 1_555
H2A C1A 1_555 1_555
H2C C1C 1_555 1_555
H2D C1D 1_555 1_555
H2F C1F 1_555 1_555
H3B C1B 1_555 1_555
H3E C1E 1_555 1_555
H3G C1G 1_555 1_555
H3A C1A 1_555 1_555
H3C C1C 1_555 1_555
H3D C1D 1_555 1_555
H3F C1F 1_555 1_555
H4B C3B 1_555 1_555
H4E C3E 1_555 1_555
H4G C3G 1_555 1_555
H4A C3A 1_555 1_555
H4C C3C 1_555 1_555
H4D C3D 1_555 1_555
H4F C3F 1_555 1_555
H5E C6E 1_555 1_555
H5B C6B 1_555 1_555
H5G C6G 1_555 1_555
H5A C6A 1_555 1_555
H5C C6C 1_555 1_555
H5F C6F 1_555 1_555
H5D C6D 1_555 1_555
H6B C7B 1_555 1_555
H6A C7A 1_555 1_555
H6C C7C 1_555 1_555
Co1 O2B 1_555 1_555
C4 C5 1_555 1_555
Co1E O2E 1_555 1_555
Co1E O2G 1_555 1_555
Co1A O2C 1_555 1_555
Co1D O2D 1_555 1_555
Co1D O2F 1_555 1_555
N2A C8A 1_555 1_555
C3B C4B 1_555 1_555
C3G C4G 1_555 1_555
C3C C4C 1_555 1_555
C3F C4F 1_555 1_555
C4B C5B 1_555 1_555
C4E C5E 1_555 1_555
C4G C5G 1_555 1_555
C4A C5A 1_555 1_555
C4C C5C 1_555 1_555
C4D C5D 1_555 1_555
C4F C5F 1_555 1_555
C5E C6E 1_555 1_555
C6G C7B 1_555 1_555
C6F C7A 1_555 1_555
C6D C7C 1_555 1_555

#END
