
#######################################################################
#
#                 Cambridge Crystallographic Data Centre
#                                CCDC 
#
#######################################################################
#
# If this CIF has been generated from an entry in the Cambridge 
# Structural Database, then it will include bibliographic, chemical, 
# crystal, experimental, refinement or atomic coordinate data resulting 
# from the CCDC's data processing and validation procedures.
#
#######################################################################

data_SEWYAW
_symmetry_cell_setting           monoclinic
_symmetry_space_group_name_H-M   'C c'
_symmetry_Int_Tables_number      9
_space_group_name_Hall           'C -2yc'
loop_
_symmetry_equiv_pos_site_id
_symmetry_equiv_pos_as_xyz
1 x,y,z
2 x,-y,1/2+z
3 1/2+x,1/2+y,z
4 1/2+x,1/2-y,1/2+z
_cell_length_a                   11.1835(3)
_cell_length_b                   31.5719(9)
_cell_length_c                   14.7373(4)
_cell_angle_alpha                90
_cell_angle_beta                 91.6320(10)
_cell_angle_gamma                90
_cell_volume                     5201.4
loop_
_atom_site_label
_atom_site_type_symbol
_atom_site_fract_x
_atom_site_fract_y
_atom_site_fract_z
P5 P 0.76024(13) 0.04705(4) 0.35136(9)
F1 F 0.6360(3) 0.06617(10) 0.3835(2)
F2 F 0.6891(3) 0.00589(11) 0.3150(3)
F3 F 0.8844(3) 0.02751(11) 0.3192(2)
F4 F 0.8255(4) 0.08911(13) 0.3823(3)
F5 F 0.7818(4) 0.02587(15) 0.4471(2)
F6 F 0.7366(4) 0.06788(13) 0.2530(2)
C41 C 0.796(2) 0.4320(7) 0.8970(14)
O9 O 0.7708(13) 0.4668(4) 0.8366(8)
C42 C 0.833(2) 0.4686(8) 0.7514(15)
C43 C 0.8916(12) 0.4488(4) 0.7265(9)
C44 C 0.7375(16) 0.4252(6) 0.9438(15)
C1 C -0.1423(5) 0.07779(18) 0.7934(4)
H1 H -0.1999 0.0577 0.8069
C2 C 0.5934(6) 0.03391(18) 1.0576(5)
H2 H 0.6316 0.0177 1.1025
C3 C 0.0002(7) 0.0467(2) 1.0015(5)
H3 H -0.0428 0.0320 0.9567
C4 C 0.1024(6) 0.0705(2) 0.9789(4)
H4 H 0.1294 0.0720 0.9199
C5 C -0.0344(6) 0.0453(2) 1.0887(4)
H5 H -0.1007 0.0294 1.1042
C6 C 0.0592(4) 0.34877(15) 0.7656(3)
H6 H 0.0516 0.3769 0.7474
C7 C 0.0593(4) 0.31623(15) 0.7019(3)
H7 H 0.0515 0.3224 0.6403
C8 C 0.0705(4) 0.33842(14) 0.8564(3)
H8 H 0.0688 0.3601 0.8991
Ag1 Ag 0.59670(2) 0.218912(9) 0.53546(2)
P1 P 0.41688(9) 0.20116(3) 0.75796(7)
P2 P 0.18058(9) 0.19158(3) 0.82087(7)
P3 P 0.51317(9) 0.17593(3) 0.93605(7)
P4 P 0.27073(9) 0.15901(3) 0.99086(7)
C9 C 0.3700(4) 0.33882(14) 0.5650(3)
H9 H 0.3473 0.3608 0.5263
O1 O 0.6017(2) 0.21243(9) 0.97380(19)
O2 O 0.0951(2) 0.22764(9) 0.86057(18)
O3 O 0.1042(3) 0.16888(9) 0.74122(17)
N1 N 0.4618(3) 0.26524(12) 0.9501(2)
O4 O 0.6052(3) 0.13876(9) 0.9601(2)
O5 O 0.4122(3) 0.17125(9) 0.66954(18)
C10 C 0.5682(5) 0.06994(16) 0.6781(4)
H10 H 0.5639 0.0434 0.7052
C11 C 0.4401(4) 0.27412(12) 0.6726(3)
O6 O 0.2645(3) 0.11329(9) 1.03562(18)
C12 C 0.6536(4) 0.28136(14) 1.0215(3)
H11 H 0.7283 0.2716 1.0414
C13 C 0.0204(4) 0.13772(13) 0.7596(3)
C14 C 0.4859(5) 0.10099(15) 0.6973(3)
H12 H 0.4245 0.0959 0.7371
N2 N 0.5826(3) 0.14995(12) 0.5982(2)
N3 N 0.4973(3) 0.17853(11) 0.8310(2)
O7 O 0.4885(3) 0.24204(9) 0.72668(18)
O8 O 0.1926(3) 0.18864(9) 1.05398(18)
C15 C 0.2858(4) 0.24517(18) 1.2949(3)
H13 H 0.3061 0.2595 1.3484
C16 C 0.4326(5) 0.30622(15) 0.9613(3)
H14 H 0.3567 0.3149 0.9417
C17 C 0.3902(4) 0.30927(14) 0.7135(3)
H15 H 0.3809 0.3105 0.7759
N4 N 0.2015(3) 0.15737(11) 0.8968(2)
N5 N 0.2850(3) 0.21552(11) 0.7744(2)
C18 C 0.5085(5) 0.33626(16) 1.0003(3)
H16 H 0.4848 0.3643 1.0060
C19 C 0.4976(4) 0.14001(14) 0.6552(3)
C20 C 0.4187(4) 0.30250(13) 0.5310(3)
H17 H 0.4276 0.3003 0.4686
C21 C 0.6615(4) 0.11929(15) 0.5799(3)
H18 H 0.7221 0.1253 0.5399
C22 C 0.3551(4) 0.34228(14) 0.6580(3)
H19 H 0.3218 0.3666 0.6823
C23 C 0.2301(4) 0.20627(15) 1.1363(3)
N6 N 0.4042(3) 0.17298(11) 1.0001(2)
N7 N 0.4546(3) 0.26960(11) 0.5844(2)
N8 N 0.1259(4) 0.09053(13) 1.1347(3)
C24 C 0.5688(4) 0.25439(13) 0.9810(3)
C25 C 0.6209(4) 0.32310(14) 1.0304(3)
H20 H 0.6742 0.3425 1.0566
C26 C 0.2469(4) 0.18129(16) 1.2128(3)
H21 H 0.2400 0.1520 1.2098
C27 C 0.2746(4) 0.20187(18) 1.2949(3)
H22 H 0.2851 0.1865 1.3484
C28 C 0.6575(5) 0.07907(15) 0.6175(3)
H23 H 0.7134 0.0586 0.6025
N9 N 0.4814(4) 0.08231(13) 0.9214(3)
C29 C 0.0274(6) 0.0671(2) 1.1527(4)
H24 H 0.0016 0.0661 1.2121
C30 C 0.4507(5) 0.04148(17) 0.9369(4)
H25 H 0.3904 0.0295 0.9004
C31 C 0.5672(4) 0.09740(14) 0.9741(3)
C32 C 0.5036(5) 0.01662(16) 1.0035(4)
H26 H 0.4792 -0.0112 1.0118
C33 C 0.1587(4) 0.09116(14) 1.0493(3)
C34 C 0.2668(4) 0.26742(16) 1.2146(3)
H27 H 0.2746 0.2967 1.2154
C35 C -0.1570(5) 0.11985(18) 0.8172(3)
H28 H -0.2270 0.1275 0.8456
N10 N -0.0759(4) 0.15024(12) 0.8018(3)
C36 C 0.0437(5) 0.09723(15) 0.7315(3)
H29 H 0.1135 0.0906 0.7016
C37 C -0.0410(6) 0.06655(17) 0.7495(4)
H30 H -0.0290 0.0386 0.7319
C38 C 0.6259(5) 0.07564(18) 1.0442(4)
H31 H 0.6846 0.0886 1.0806
N11 N 0.0841(3) 0.29829(11) 0.8859(2)
N12 N 0.2375(3) 0.24810(13) 1.1352(2)
C39 C 0.0850(4) 0.26784(13) 0.8231(3)
C40 C 0.0709(4) 0.27488(14) 0.7307(3)
H32 H 0.0694 0.2525 0.6895
Ag1C Ag 0.09670(2) 0.281088(9) 1.03546(2)
N11C N 0.5841(3) 0.20171(11) 0.3859(2)
N12C N 0.7375(3) 0.25190(13) 0.6352(2)
N13? N 0.8131(16) 0.4022(6) 0.9455(14)
C45? C 0.730(2) 0.4367(8) 0.9817(15)
C46? C 0.6385(19) 0.4526(7) 0.9591(17)
N14? N 0.7605(16) 0.5150(5) 0.7103(13)
C47? C 0.8173(11) 0.4862(4) 0.7222(9)
C48? C 0.787(3) 0.5036(9) 0.6950(17)
loop_
_geom_bond_atom_site_label_1
_geom_bond_atom_site_label_2
_geom_bond_site_symmetry_1
_geom_bond_site_symmetry_2
C1 H1 1_555 1_555
C2 H2 1_555 1_555
C3 H3 1_555 1_555
C4 C3 1_555 1_555
H4 C4 1_555 1_555
C5 C3 1_555 1_555
H5 C5 1_555 1_555
C6 H6 1_555 1_555
C7 C6 1_555 1_555
H7 C7 1_555 1_555
C8 C6 1_555 1_555
H8 C8 1_555 1_555
Ag1 N2 1_555 1_555
P1 O5 1_555 1_555
P2 O2 1_555 1_555
P3 O1 1_555 1_555
P4 O6 1_555 1_555
C9 H9 1_555 1_555
O1 C24 1_555 1_555
O2 C39 1_555 1_555
O3 P2 1_555 1_555
N1 C16 1_555 1_555
O4 P3 1_555 1_555
O5 C19 1_555 1_555
C10 H10 1_555 1_555
C11 O7 1_555 1_555
O6 C33 1_555 1_555
C12 H11 1_555 1_555
C13 O3 1_555 1_555
C14 C10 1_555 1_555
H12 C14 1_555 1_555
N2 C19 1_555 1_555
N3 P1 1_555 1_555
O7 P1 1_555 1_555
O8 P4 1_555 1_555
C15 H13 1_555 1_555
C16 H14 1_555 1_555
C17 C11 1_555 1_555
H15 C17 1_555 1_555
N4 P2 1_555 1_555
N5 P1 1_555 1_555
C18 C16 1_555 1_555
H16 C18 1_555 1_555
C19 C14 1_555 1_555
C20 C9 1_555 1_555
H17 C20 1_555 1_555
C21 N2 1_555 1_555
H18 C21 1_555 1_555
C22 C9 1_555 1_555
H19 C22 1_555 1_555
C23 O8 1_555 1_555
N6 P3 1_555 1_555
N7 Ag1 1_555 1_555
N8 C29 1_555 1_555
C24 N1 1_555 1_555
C25 C12 1_555 1_555
H20 C25 1_555 1_555
C26 C23 1_555 1_555
H21 C26 1_555 1_555
C27 C15 1_555 1_555
H22 C27 1_555 1_555
C28 C10 1_555 1_555
H23 C28 1_555 1_555
N9 C30 1_555 1_555
C29 C5 1_555 1_555
H24 C29 1_555 1_555
C30 H25 1_555 1_555
C31 O4 1_555 1_555
C32 C2 1_555 1_555
H26 C32 1_555 1_555
C33 C4 1_555 1_555
C34 C15 1_555 1_555
H27 C34 1_555 1_555
C35 C1 1_555 1_555
H28 C35 1_555 1_555
N10 C13 1_555 1_555
C36 C13 1_555 1_555
H29 C36 1_555 1_555
C37 C1 1_555 1_555
H30 C37 1_555 1_555
C38 C2 1_555 1_555
H31 C38 1_555 1_555
N11 C8 1_555 1_555
N12 C23 1_555 1_555
C39 N11 1_555 1_555
C40 C7 1_555 1_555
H32 C40 1_555 1_555
P5 F1 1_555 1_555
F2 P5 1_555 1_555
F3 P5 1_555 1_555
F4 P5 1_555 1_555
F5 P5 1_555 1_555
F6 P5 1_555 1_555
C41 O9 1_555 1_555
O9 C42 1_555 1_555
C42 C43 1_555 1_555
C44 C41 1_555 1_555
Ag1C N11 1_555 1_555
N11C Ag1 1_555 1_555
N12C Ag1 1_555 1_555
P2 N5 1_555 1_555
P3 N3 1_555 1_555
P4 N4 1_555 1_555
P4 N6 1_555 1_555
C11 N7 1_555 1_555
C12 C24 1_555 1_555
C17 C22 1_555 1_555
C18 C25 1_555 1_555
C20 N7 1_555 1_555
C21 C28 1_555 1_555
N8 C33 1_555 1_555
C26 C27 1_555 1_555
N9 C31 1_555 1_555
C30 C32 1_555 1_555
C31 C38 1_555 1_555
C34 N12 1_555 1_555
C35 N10 1_555 1_555
C36 C37 1_555 1_555
N12 Ag1C 1_555 1_555
C39 C40 1_555 1_555

#END
