
#######################################################################
#
#                 Cambridge Crystallographic Data Centre
#                                CCDC 
#
#######################################################################
#
# If this CIF has been generated from an entry in the Cambridge 
# Structural Database, then it will include bibliographic, chemical, 
# crystal, experimental, refinement or atomic coordinate data resulting 
# from the CCDC's data processing and validation procedures.
#
#######################################################################

data_SEWYAV01
_symmetry_cell_setting           tetragonal
_symmetry_space_group_name_H-M   'P -4 n 2'
_symmetry_Int_Tables_number      118
_space_group_name_Hall           'P -4 -2n'
loop_
_symmetry_equiv_pos_site_id
_symmetry_equiv_pos_as_xyz
1 x,y,z
2 y,-x,-z
3 -x,-y,z
4 -y,x,-z
5 1/2-x,1/2+y,1/2+z
6 1/2+y,1/2+x,1/2-z
7 1/2+x,1/2-y,1/2+z
8 1/2-y,1/2-x,1/2-z
_cell_length_a                   10.636(2)
_cell_length_b                   10.636(2)
_cell_length_c                   16.878(2)
_cell_angle_alpha                90
_cell_angle_beta                 90
_cell_angle_gamma                90
_cell_volume                     1909.32
loop_
_atom_site_label
_atom_site_type_symbol
_atom_site_fract_x
_atom_site_fract_y
_atom_site_fract_z
Gd1 Gd 0.0000 0.5000 0.2500
Cr1 Cr 0.5000 0.5000 0.0000
Co1 Co 0.0000 0.5000 0.0285
O1 O -0.0274 0.3549 -0.0462
O2 O -0.0436 0.3841 0.1238
O3 O 0.2068 0.4220 0.1962
N1 N -0.1745 0.3255 0.2500
N2 N 0.1996 0.4641 0.0185
N3 N 0.5000 0.5000 -0.1910
C1 C -0.1268 0.1760 -0.1008
C2 C -0.0962 0.2625 -0.0322
C3 C -0.1472 0.2346 0.0420
C4 C -0.1258 0.2964 0.1122
C5 C -0.2015 0.2620 0.1836
C6 C -0.2952 0.1694 0.1812
C7 C -0.3600 0.1400 0.2500
C8 C 0.3060 0.4739 0.0076
C9 C 0.5000 0.5000 -0.1228
H1 H -0.1681 0.2201 -0.1424
H2 H -0.0500 0.1397 -0.1224
H3 H -0.1796 0.1075 -0.0845
H4 H -0.2066 0.1663 0.0454
H5 H -0.3202 0.1307 0.1301
H6 H -0.4238 0.0762 0.2500
Gd1A Gd 0.5000 0.0000 -0.2500
Cr1D Cr 0.0000 1.0000 0.5000
Cr1D_2 Cr 0.0000 0.0000 0.5000
Cr1D_3 Cr 0.0000 0.0000 -0.5000
Cr1D_4 Cr 1.0000 0.0000 -0.5000
Co1A Co 0.5000 0.0000 -0.0285
Co1A_2 Co 0.5000 1.0000 -0.0285
Co1E Co 0.0000 0.5000 0.4715
Co1_2 Co 1.0000 0.5000 0.0285
Co1D Co 0.5000 0.0000 -0.4715
O1E O -0.1451 0.4726 0.5462
O1B O 0.0274 0.6451 -0.0462
O1G O 0.1451 0.5274 0.5462
O1A O 0.3549 0.0274 0.0462
O1C O 0.6451 -0.0274 0.0462
O1D O 0.5274 -0.1451 -0.5462
O1F O 0.4726 0.1451 -0.5462
O2E O -0.1159 0.4564 0.3762
O2B O 0.0436 0.6159 0.1238
O2G O 0.1159 0.5436 0.3762
O2A O 0.3841 0.0436 -0.1238
O2C O 0.6159 -0.0436 -0.1238
O2D O 0.5436 -0.1159 -0.3762
O2F O 0.4564 0.1159 -0.3762
O3B O -0.2068 0.5780 0.1962
O3G O 0.0780 0.2932 0.3038
O3E O -0.0780 0.7068 0.3038
O3A O 0.4220 -0.2068 -0.1962
O3C O 0.5780 0.2068 -0.1962
O3D O 0.2932 -0.0780 -0.3038
O3F O 0.7068 0.0780 -0.3038
N1B N 0.1745 0.6745 0.2500
N1A N 0.3255 0.1745 -0.2500
N1C N 0.6745 -0.1745 -0.2500
N2A N 0.4641 0.8004 -0.0185
N2B N -0.1996 0.5359 0.0185
N2C N 0.5359 0.1996 -0.0185
N2A_2 N 0.4641 -0.1996 -0.0185
N2E N -0.0359 0.6996 0.4815
N2G N 0.0359 0.3004 0.4815
N2B_2 N 0.8004 0.5359 0.0185
N2D N 0.3004 -0.0359 -0.4815
N2F N 0.6996 0.0359 -0.4815
N3A N 0.5000 0.5000 0.1910
N3D N 0.0000 1.0000 0.3090
N3E N 0.0000 1.0000 0.6910
C1E C -0.3240 0.3732 0.6008
C1B C 0.1268 0.8240 -0.1008
C1G C 0.3240 0.6268 0.6008
C1A C 0.1760 0.1268 0.1008
C1C C 0.8240 -0.1268 0.1008
C1D C 0.6268 -0.3240 -0.6008
C1F C 0.3732 0.3240 -0.6008
C2E C -0.2375 0.4038 0.5322
C2B C 0.0962 0.7375 -0.0322
C2G C 0.2375 0.5962 0.5322
C2A C 0.2625 0.0962 0.0322
C2C C 0.7375 -0.0962 0.0322
C2D C 0.5962 -0.2375 -0.5322
C2F C 0.4038 0.2375 -0.5322
C3E C -0.2654 0.3528 0.4580
C3B C 0.1472 0.7654 0.0420
C3G C 0.2654 0.6472 0.4580
C3A C 0.2346 0.1472 -0.0420
C3C C 0.7654 -0.1472 -0.0420
C3D C 0.6472 -0.2654 -0.4580
C3F C 0.3528 0.2654 -0.4580
C4E C -0.2036 0.3742 0.3878
C4B C 0.1258 0.7036 0.1122
C4G C 0.2036 0.6258 0.3878
C4A C 0.2964 0.1258 -0.1122
C4C C 0.7036 -0.1258 -0.1122
C4D C 0.6258 -0.2036 -0.3878
C4F C 0.3742 0.2036 -0.3878
C5E C -0.2380 0.2985 0.3164
C5B C 0.2015 0.7380 0.1836
C5G C 0.2380 0.7015 0.3164
C5A C 0.2620 0.2015 -0.1836
C5C C 0.7380 -0.2015 -0.1836
C5F C 0.2985 0.2380 -0.3164
C5D C 0.7015 -0.2380 -0.3164
C6E C -0.3306 0.2048 0.3188
C6B C 0.2952 0.8306 0.1812
C6G C 0.3306 0.7952 0.3188
C6A C 0.1694 0.2952 -0.1812
C6C C 0.8306 -0.2952 -0.1812
C6F C 0.2048 0.3306 -0.3188
C6D C 0.7952 -0.3306 -0.3188
C7B C 0.3600 0.8600 0.2500
C7A C 0.1400 0.3600 -0.2500
C7C C 0.8600 -0.3600 -0.2500
C8A C 0.4739 0.6940 -0.0076
C8C C 0.5261 0.3060 -0.0076
C8B C 0.6940 0.5261 0.0076
C8E C -0.0261 0.8060 0.4924
C8G C 0.0261 0.1940 0.4924
C8D C 0.1940 0.9739 0.5076
C8F C -0.1940 1.0261 0.5076
C8G_2 C 0.0261 1.1940 0.4924
C8D_2 C 0.1940 -0.0261 -0.4924
C8F_2 C 0.8060 0.0261 -0.4924
C9A C 0.5000 0.5000 0.1228
C9D C 0.0000 1.0000 0.3772
C9E C 0.0000 1.0000 0.6228
H1E H -0.2799 0.3319 0.6424
H1B H 0.1681 0.7799 -0.1424
H1G H 0.2799 0.6681 0.6424
H1A H 0.2201 0.1681 0.1424
H1C H 0.7799 -0.1681 0.1424
H1D H 0.6681 -0.2799 -0.6424
H1F H 0.3319 0.2799 -0.6424
H2E H -0.3603 0.4500 0.6224
H2B H 0.0500 0.8603 -0.1224
H2G H 0.3603 0.5500 0.6224
H2A H 0.1397 0.0500 0.1224
H2C H 0.8603 -0.0500 0.1224
H2D H 0.5500 -0.3603 -0.6224
H2F H 0.4500 0.3603 -0.6224
H3E H -0.3925 0.3204 0.5845
H3B H 0.1796 0.8925 -0.0845
H3G H 0.3925 0.6796 0.5845
H3A H 0.1075 0.1796 0.0845
H3C H 0.8925 -0.1796 0.0845
H3D H 0.6796 -0.3925 -0.5845
H3F H 0.3204 0.3925 -0.5845
H4E H -0.3337 0.2934 0.4546
H4B H 0.2066 0.8337 0.0454
H4G H 0.3337 0.7066 0.4546
H4A H 0.1663 0.2066 -0.0454
H4C H 0.8337 -0.2066 -0.0454
H4D H 0.7066 -0.3337 -0.4546
H4F H 0.2934 0.3337 -0.4546
H5E H -0.3693 0.1798 0.3699
H5B H 0.3202 0.8693 0.1301
H5G H 0.3693 0.8202 0.3699
H5A H 0.1307 0.3202 -0.1301
H5C H 0.8693 -0.3202 -0.1301
H5F H 0.1798 0.3693 -0.3699
H5D H 0.8202 -0.3693 -0.3699
H6B H 0.4238 0.9238 0.2500
H6A H 0.0762 0.4238 -0.2500
H6C H 0.9238 -0.4238 -0.2500
loop_
_geom_bond_atom_site_label_1
_geom_bond_atom_site_label_2
_geom_bond_site_symmetry_1
_geom_bond_site_symmetry_2
Gd1 O2 1_555 1_555
Cr1 C8 1_555 1_555
Co1 O1 1_555 1_555
O1 C2 1_555 1_555
O2 Co1 1_555 1_555
O3 Gd1 1_555 1_555
N1 Gd1 1_555 1_555
N2 Co1 1_555 1_555
N3 C9 1_555 1_555
C1 C2 1_555 1_555
C2 C3 1_555 1_555
C3 C4 1_555 1_555
C4 O2 1_555 1_555
C5 N1 1_555 1_555
C6 C5 1_555 1_555
C7 C6 1_555 1_555
C8 N2 1_555 1_555
C9 Cr1 1_555 1_555
H1 C1 1_555 1_555
H2 C1 1_555 1_555
H3 C1 1_555 1_555
H4 C3 1_555 1_555
H5 C6 1_555 1_555
H6 C7 1_555 1_555
Gd1A O2A 1_555 1_555
Cr1D C8E 1_555 1_555
Cr1D_2 C8G 1_555 1_555
Cr1D_3 C8D_2 1_555 1_555
Cr1D_4 C8F_2 1_555 1_555
Co1A O1A 1_555 1_555
Co1A_2 N2A 1_555 1_555
Co1E O1E 1_555 1_555
Co1_2 N2B_2 1_555 1_555
Co1D O1D 1_555 1_555
O1E C2E 1_555 1_555
O1B Co1 1_555 1_555
O1G Co1E 1_555 1_555
O1A C2A 1_555 1_555
O1C Co1A 1_555 1_555
O1D C2D 1_555 1_555
O1F Co1D 1_555 1_555
O2E Gd1 1_555 1_555
O2B Gd1 1_555 1_555
O2G Gd1 1_555 1_555
O2A Co1A 1_555 1_555
O2C Gd1A 1_555 1_555
O2D Gd1A 1_555 1_555
O2F Gd1A 1_555 1_555
O3B Gd1 1_555 1_555
O3G Gd1 1_555 1_555
O3E Gd1 1_555 1_555
O3A Gd1A 1_555 1_555
O3C Gd1A 1_555 1_555
O3D Gd1A 1_555 1_555
O3F Gd1A 1_555 1_555
N1B Gd1 1_555 1_555
N1A Gd1A 1_555 1_555
N1C Gd1A 1_555 1_555
N2A C8A 1_555 1_555
N2B Co1 1_555 1_555
N2C Co1A 1_555 1_555
N2A_2 Co1A 1_555 1_555
N2E Co1E 1_555 1_555
N2G Co1E 1_555 1_555
N2B_2 C8B 1_555 1_555
N2D Co1D 1_555 1_555
N2F Co1D 1_555 1_555
N3A C9A 1_555 1_555
N3D C9D 1_555 1_555
N3E C9E 1_555 1_555
C1E C2E 1_555 1_555
C1B C2B 1_555 1_555
C1G C2G 1_555 1_555
C1A C2A 1_555 1_555
C1C C2C 1_555 1_555
C1D C2D 1_555 1_555
C1F C2F 1_555 1_555
C2E C3E 1_555 1_555
C2B O1B 1_555 1_555
C2G O1G 1_555 1_555
C2A C3A 1_555 1_555
C2C O1C 1_555 1_555
C2D C3D 1_555 1_555
C2F O1F 1_555 1_555
C3E C4E 1_555 1_555
C3B C2B 1_555 1_555
C3G C2G 1_555 1_555
C3A C4A 1_555 1_555
C3C C2C 1_555 1_555
C3D C4D 1_555 1_555
C3F C2F 1_555 1_555
C4E O2E 1_555 1_555
C4B O2B 1_555 1_555
C4G O2G 1_555 1_555
C4A O2A 1_555 1_555
C4C O2C 1_555 1_555
C4D O2D 1_555 1_555
C4F O2F 1_555 1_555
C5E N1 1_555 1_555
C5B N1B 1_555 1_555
C5G N1B 1_555 1_555
C5A N1A 1_555 1_555
C5C N1C 1_555 1_555
C5F N1A 1_555 1_555
C5D N1C 1_555 1_555
C6E C7 1_555 1_555
C6B C5B 1_555 1_555
C6G C5G 1_555 1_555
C6A C5A 1_555 1_555
C6C C5C 1_555 1_555
C6F C5F 1_555 1_555
C6D C5D 1_555 1_555
C7B C6B 1_555 1_555
C7A C6A 1_555 1_555
C7C C6C 1_555 1_555
C8A Cr1 1_555 1_555
C8C Cr1 1_555 1_555
C8B Cr1 1_555 1_555
C8E N2E 1_555 1_555
C8G N2G 1_555 1_555
C8D Cr1D 1_555 1_555
C8F Cr1D 1_555 1_555
C8G_2 Cr1D 1_555 1_555
C8D_2 N2D 1_555 1_555
C8F_2 N2F 1_555 1_555
C9A Cr1 1_555 1_555
C9D Cr1D 1_555 1_555
C9E Cr1D 1_555 1_555
H1E C1E 1_555 1_555
H1B C1B 1_555 1_555
H1G C1G 1_555 1_555
H1A C1A 1_555 1_555
H1C C1C 1_555 1_555
H1D C1D 1_555 1_555
H1F C1F 1_555 1_555
H2E C1E 1_555 1_555
H2B C1B 1_555 1_555
H2G C1G 1_555 1_555
H2A C1A 1_555 1_555
H2C C1C 1_555 1_555
H2D C1D 1_555 1_555
H2F C1F 1_555 1_555
H3E C1E 1_555 1_555
H3B C1B 1_555 1_555
H3G C1G 1_555 1_555
H3A C1A 1_555 1_555
H3C C1C 1_555 1_555
H3D C1D 1_555 1_555
H3F C1F 1_555 1_555
H4E C3E 1_555 1_555
H4B C3B 1_555 1_555
H4G C3G 1_555 1_555
H4A C3A 1_555 1_555
H4C C3C 1_555 1_555
H4D C3D 1_555 1_555
H4F C3F 1_555 1_555
H5E C6E 1_555 1_555
H5B C6B 1_555 1_555
H5G C6G 1_555 1_555
H5A C6A 1_555 1_555
H5C C6C 1_555 1_555
H5F C6F 1_555 1_555
H5D C6D 1_555 1_555
H6B C7B 1_555 1_555
H6A C7A 1_555 1_555
H6C C7C 1_555 1_555
Co1 O2B 1_555 1_555
C4 C5 1_555 1_555
Co1A O2C 1_555 1_555
Co1E O2E 1_555 1_555
Co1E O2G 1_555 1_555
Co1D O2D 1_555 1_555
Co1D O2F 1_555 1_555
N2C C8C 1_555 1_555
C3B C4B 1_555 1_555
C3G C4G 1_555 1_555
C3C C4C 1_555 1_555
C3F C4F 1_555 1_555
C4E C5E 1_555 1_555
C4B C5B 1_555 1_555
C4G C5G 1_555 1_555
C4A C5A 1_555 1_555
C4C C5C 1_555 1_555
C4D C5D 1_555 1_555
C4F C5F 1_555 1_555
C5E C6E 1_555 1_555
C6G C7B 1_555 1_555
C6F C7A 1_555 1_555
C6D C7C 1_555 1_555

#END
