
#######################################################################
#
#                 Cambridge Crystallographic Data Centre
#                                CCDC 
#
#######################################################################
#
# If this CIF has been generated from an entry in the Cambridge 
# Structural Database, then it will include bibliographic, chemical, 
# crystal, experimental, refinement or atomic coordinate data resulting 
# from the CCDC's data processing and validation procedures.
#
#######################################################################

data_SEYDAB
_symmetry_cell_setting           orthorhombic
_symmetry_space_group_name_H-M   'P 21 21 21'
_symmetry_Int_Tables_number      19
_space_group_name_Hall           'P 2ac 2ab'
loop_
_symmetry_equiv_pos_site_id
_symmetry_equiv_pos_as_xyz
1 x,y,z
2 1/2+x,1/2-y,-z
3 -x,1/2+y,1/2-z
4 1/2-x,-y,1/2+z
_cell_length_a                   6.198(1)
_cell_length_b                   12.576(2)
_cell_length_c                   13.422(2)
_cell_angle_alpha                90
_cell_angle_beta                 90
_cell_angle_gamma                90
_cell_volume                     1046.19
loop_
_atom_site_label
_atom_site_type_symbol
_atom_site_fract_x
_atom_site_fract_y
_atom_site_fract_z
Ag1 Ag -0.40484(5) 0.32914(2) -0.14162(2)
S1 S -0.9519(1) 0.4394(1) 0.2408(1)
O1 O -1.2923(5) 0.1319(2) 0.2775(2)
O2 O -1.7445(5) 0.3370(3) 0.4632(2)
O3 O -0.6261(6) 0.2804(3) 0.0012(3)
O4 O -0.6059(5) 0.3052(3) 0.1589(2)
O5 O -0.4193(7) 0.4024(3) 0.0583(4)
N1 N -1.0388(4) 0.3176(2) 0.2407(2)
N2 N -1.1443(4) 0.4921(2) 0.3108(2)
N3 N -1.4601(4) 0.4219(2) 0.3916(2)
N4 N -1.5219(4) 0.2353(2) 0.3695(2)
N5 N -0.5499(4) 0.3312(2) 0.0724(2)
C1 C -1.2175(5) 0.3144(2) 0.2943(2)
C2 C -1.2783(4) 0.4138(2) 0.3341(2)
C3 C -1.5852(5) 0.3324(3) 0.4110(2)
C4 C -1.3426(5) 0.2181(2) 0.3115(2)
C5 C -1.6572(7) 0.1436(3) 0.3947(3)
C6 C -1.5261(7) 0.5238(3) 0.4349(3)
H1 H -1.582(9) 0.076(5) 0.363(5)
H2 H -1.643(9) 0.132(5) 0.463(5)
H3 H -1.793(9) 0.157(5) 0.377(5)
H4 H -1.628(9) 0.520(5) 0.487(5)
H5 H -1.515(9) 0.564(5) 0.399(5)
H6 H -1.386(9) 0.553(5) 0.471(5)
Ag1A Ag -0.90484(5) 0.17086(2) 0.14162(2)
O3A O -1.1261(6) 0.2196(3) -0.0012(3)
Ag1C Ag -1.09516(5) 0.67086(2) 0.35838(2)
N2B N -0.8557(4) -0.0079(2) 0.1892(2)
loop_
_geom_bond_atom_site_label_1
_geom_bond_atom_site_label_2
_geom_bond_site_symmetry_1
_geom_bond_site_symmetry_2
Ag1 O3 1_555 1_555
S1 N1 1_555 1_555
O1 C4 1_555 1_555
O2 C3 1_555 1_555
O3 N5 1_555 1_555
O4 N5 1_555 1_555
O5 N5 1_555 1_555
N1 C1 1_555 1_555
N2 S1 1_555 1_555
N3 C2 1_555 1_555
N4 C3 1_555 1_555
C1 C2 1_555 1_555
C2 N2 1_555 1_555
C3 N3 1_555 1_555
C4 N4 1_555 1_555
C5 N4 1_555 1_555
C6 N3 1_555 1_555
H1 C5 1_555 1_555
H2 C5 1_555 1_555
H3 C5 1_555 1_555
H4 C6 1_555 1_555
H5 C6 1_555 1_555
H6 C6 1_555 1_555
Ag1A O4 1_555 1_555
O3A Ag1A 1_555 1_555
Ag1C N2 1_555 1_555
N2B Ag1A 1_555 1_555
N1 Ag1A 1_555 1_555
C1 C4 1_555 1_555

#END
