
#######################################################################
#
#                 Cambridge Crystallographic Data Centre
#                                CCDC 
#
#######################################################################
#
# If this CIF has been generated from an entry in the Cambridge 
# Structural Database, then it will include bibliographic, chemical, 
# crystal, experimental, refinement or atomic coordinate data resulting 
# from the CCDC's data processing and validation procedures.
#
#######################################################################

data_SEYFAD01
_symmetry_cell_setting           triclinic
_symmetry_space_group_name_H-M   'P 1'
_symmetry_Int_Tables_number      1
_space_group_name_Hall           'P 1'
loop_
_symmetry_equiv_pos_site_id
_symmetry_equiv_pos_as_xyz
1 x,y,z
_cell_length_a                   6.0100(10)
_cell_length_b                   6.6680(10)
_cell_length_c                   8.4980(10)
_cell_angle_alpha                74.640(10)
_cell_angle_beta                 74.250(10)
_cell_angle_gamma                80.910(10)
_cell_volume                     314.698
loop_
_atom_site_label
_atom_site_type_symbol
_atom_site_fract_x
_atom_site_fract_y
_atom_site_fract_z
Cd1 Cd -0.27434(4) 0.05988(4) 0.33739(3)
Cd2 Cd -0.37302(4) 0.43612(4) 0.92438(3)
O1 O -0.4108(22) 0.3474(19) 0.4495(12)
O2 O -0.4523(11) 0.4981(9) 0.6603(9)
O3 O -0.2119(13) -0.0018(11) 0.6113(9)
O4 O -0.2403(15) 0.1373(13) 0.8279(9)
C1 C -0.3820(15) 0.3471(13) 0.5926(11)
C2 C -0.2621(14) 0.1432(11) 0.6869(9)
O5 O -0.5537(11) 0.1879(11) 0.1650(9)
O6 O -0.8704(13) 0.0232(10) 0.2978(9)
O7 O -0.7856(12) 0.4648(10) -0.0354(8)
O8 O -1.1106(11) 0.3013(10) 0.0925(8)
C3 C -0.7675(13) 0.1710(13) 0.1908(11)
C4 C -0.9017(12) 0.3296(12) 0.0722(10)
O9 O -0.1742(17) -0.2393(13) 0.2570(12)
H1 H -0.0325(68) -0.303(10) 0.274(12)
H2 H -0.267(11) -0.3464(79) 0.283(13)
O10 O -0.5897(16) -0.1094(12) 0.5163(12)
H3 H -0.700(14) -0.127(13) 0.466(12)
H4 H -0.555(19) -0.2401(60) 0.580(12)
O11 O -0.0446(16) 0.6067(13) 0.7449(10)
H5 H -0.069(18) 0.7498(35) 0.728(12)
H6 H 0.044(16) 0.565(11) 0.823(11)
O12 O -0.4840(23) 0.7400(22) 1.0380(15)
H7 H -0.6029(98) 0.738(15) 1.1330(66)
H8 H -0.3615(90) 0.784(15) 1.0616(94)
Cd2_2 Cd -0.37302(4) 0.43612(4) -0.07562(3)
O7_2 O -0.7856(12) 0.4648(10) 0.9646(8)
O8_2 O -0.1106(11) 0.3013(10) 0.0925(8)
Cd1_2 Cd -1.27434(4) 0.05988(4) 0.33739(3)
O6_2 O 0.1296(13) 0.0232(10) 0.2978(9)
Cd2_3 Cd -1.37302(4) 0.43612(4) -0.07562(3)
O5_2 O -0.5537(11) 0.1879(11) 1.1650(9)
O8_3 O -0.1106(11) 0.3013(10) 1.0925(8)
O13 O 0.1242(21) -0.5023(21) 0.4298(15)
H9 H 0.2709(83) -0.571(14) 0.421(11)
H10 H 0.099(14) -0.443(13) 0.5197(80)
O14 O 0.2457(14) 0.0040(13) -0.1570(14)
H11 H 0.141(14) -0.095(12) -0.1069(83)
H12 H 0.259(16) 0.026(14) -0.2704(31)
loop_
_geom_bond_atom_site_label_1
_geom_bond_atom_site_label_2
_geom_bond_site_symmetry_1
_geom_bond_site_symmetry_2
Cd1 O1 1_555 1_555
Cd2 O2 1_555 1_555
O1 C1 1_555 1_555
O2 C1 1_555 1_555
O3 Cd1 1_555 1_555
O4 Cd2 1_555 1_555
C1 C2 1_555 1_555
C2 O3 1_555 1_555
O5 Cd1 1_555 1_555
O6 C3 1_555 1_555
O7 C4 1_555 1_555
O8 C4 1_555 1_555
C3 O5 1_555 1_555
C4 C3 1_555 1_555
O9 Cd1 1_555 1_555
H1 O9 1_555 1_555
H2 O9 1_555 1_555
O10 Cd1 1_555 1_555
H3 O10 1_555 1_555
H4 O10 1_555 1_555
O11 Cd2 1_555 1_555
H5 O11 1_555 1_555
H6 O11 1_555 1_555
O12 Cd2 1_555 1_555
H7 O12 1_555 1_555
H8 O12 1_555 1_555
O13 H9 1_555 1_555
H10 O13 1_555 1_555
O14 H11 1_555 1_555
H12 O14 1_555 1_555
Cd2_2 O5 1_555 1_555
O7_2 Cd2 1_555 1_555
O8_2 Cd1 1_555 1_555
Cd1_2 O6 1_555 1_555
O6_2 Cd1 1_555 1_555
Cd2_3 O8 1_555 1_555
O5_2 Cd2 1_555 1_555
O8_3 Cd2 1_555 1_555
O4 C2 1_555 1_555
O7 Cd2_2 1_555 1_555
O8 Cd1_2 1_555 1_555
Cd2_2 O8_2 1_555 1_555

#END
