
#######################################################################
#
#                 Cambridge Crystallographic Data Centre
#                                CCDC 
#
#######################################################################
#
# If this CIF has been generated from an entry in the Cambridge 
# Structural Database, then it will include bibliographic, chemical, 
# crystal, experimental, refinement or atomic coordinate data resulting 
# from the CCDC's data processing and validation procedures.
#
#######################################################################

data_SEYFAD03
_symmetry_cell_setting           triclinic
_symmetry_space_group_name_H-M   'P -1'
_symmetry_Int_Tables_number      2
_space_group_name_Hall           '-P 1'
loop_
_symmetry_equiv_pos_site_id
_symmetry_equiv_pos_as_xyz
1 x,y,z
2 -x,-y,-z
_cell_length_a                   5.998(4)
_cell_length_b                   6.592(3)
_cell_length_c                   8.459(4)
_cell_angle_alpha                74.674(5)
_cell_angle_beta                 74.278(4)
_cell_angle_gamma                81.171(5)
_cell_volume                     309.287
loop_
_atom_site_label
_atom_site_type_symbol
_atom_site_fract_x
_atom_site_fract_y
_atom_site_fract_z
Cd1 Cd 0.95077(3) 0.19148(3) 0.29424(2)
O1 O 0.7789(4) -0.0566(4) 0.5363(3)
O2 O 0.4563(4) -0.2246(4) 0.6660(3)
O3 O 1.1202(4) -0.2514(4) -0.0248(3)
O4 O 1.0848(5) -0.1070(4) 0.1919(3)
O5 O 1.2773(4) 0.3563(4) 0.1124(3)
O6 O 0.8467(5) 0.4988(5) 0.3842(4)
C1 C 1.0598(6) -0.1033(5) 0.0474(4)
C2 C 0.5672(6) -0.0816(5) 0.5598(4)
H2 H 0.934(11) 0.591(9) 0.364(9)
H4 H 0.731(8) 0.557(10) 0.352(9)
H5 H 1.358(8) 0.347(9) 0.178(6)
H6 H 1.258(18) 0.487(4) 0.080(13)
Cd1A Cd 0.04923(3) -0.19148(3) 0.70576(2)
Cd1A_2 Cd 1.04923(3) -0.19148(3) 0.70576(2)
Cd1A_3 Cd 1.04923(3) -0.19148(3) -0.29424(2)
Cd1_2 Cd -0.04923(3) 0.19148(3) 0.29424(2)
O1A O 0.2211(4) 0.0566(4) 0.4637(3)
O1A_2 O 1.2211(4) 0.0566(4) 0.4637(3)
O1_2 O -0.2211(4) -0.0566(4) 0.5363(3)
O2A O 0.5437(4) 0.2246(4) 0.3340(3)
O3A O 0.8798(4) 0.2514(4) 0.0248(3)
O3_2 O 0.1202(4) -0.2514(4) 0.9752(3)
O4A O 0.9152(5) 0.1070(4) -0.1919(3)
O4A_2 O -0.0848(5) 0.1070(4) 0.8081(3)
O5A O -0.2773(4) -0.3563(4) 0.8876(3)
O6A O 0.1533(5) -0.4988(5) 0.6158(4)
C1A C 0.9402(6) 0.1033(5) -0.0474(4)
C2A C 0.4328(6) 0.0816(5) 0.4402(4)
H2A H 0.066(11) -0.591(9) 0.636(9)
H4A H 0.269(8) -0.557(10) 0.648(9)
H5A H -0.358(8) -0.347(9) 0.822(6)
H6A H -0.258(18) -0.487(4) 0.920(13)
O7 O 1.5642(5) -0.2368(5) 0.2010(4)
H1 H 1.424(4) -0.217(12) 0.211(9)
H3 H 1.594(15) -0.283(13) 0.116(7)
loop_
_geom_bond_atom_site_label_1
_geom_bond_atom_site_label_2
_geom_bond_site_symmetry_1
_geom_bond_site_symmetry_2
Cd1 O1 1_555 1_555
O1 C2 1_555 1_555
O2 C2 1_555 1_555
O3 C1 1_555 1_555
O4 Cd1 1_555 1_555
O5 Cd1 1_555 1_555
O6 Cd1 1_555 1_555
O7 H1 1_555 1_555
C1 O4 1_555 1_555
C2 C2A 1_555 1_555
H2 O6 1_555 1_555
H3 O7 1_555 1_555
H4 O6 1_555 1_555
H5 O5 1_555 1_555
H6 O5 1_555 1_555
Cd1A O2 1_555 1_555
Cd1A_2 O1 1_555 1_555
Cd1A_3 O3 1_555 1_555
Cd1_2 O1A 1_555 1_555
O1A Cd1A 1_555 1_555
O1A_2 Cd1 1_555 1_555
O1_2 Cd1A 1_555 1_555
O2A Cd1 1_555 1_555
O3A Cd1 1_555 1_555
O3_2 Cd1A 1_555 1_555
O4A Cd1A_3 1_555 1_555
O4A_2 Cd1A 1_555 1_555
O5A Cd1A 1_555 1_555
O6A Cd1A 1_555 1_555
C1A C1 1_555 1_555
C2A O1A 1_555 1_555
H2A O6A 1_555 1_555
H4A O6A 1_555 1_555
H5A O5A 1_555 1_555
H6A O5A 1_555 1_555
Cd1A_2 O1A_2 1_555 1_555
Cd1_2 O1_2 1_555 1_555
O2A C2A 1_555 1_555
O3A C1A 1_555 1_555
O4A C1A 1_555 1_555

#END
