
#######################################################################
#
#                 Cambridge Crystallographic Data Centre
#                                CCDC 
#
#######################################################################
#
# If this CIF has been generated from an entry in the Cambridge 
# Structural Database, then it will include bibliographic, chemical, 
# crystal, experimental, refinement or atomic coordinate data resulting 
# from the CCDC's data processing and validation procedures.
#
#######################################################################

data_SEYFAD
_symmetry_cell_setting           triclinic
_symmetry_space_group_name_H-M   'P -1'
_symmetry_Int_Tables_number      2
_space_group_name_Hall           '-P 1'
loop_
_symmetry_equiv_pos_site_id
_symmetry_equiv_pos_as_xyz
1 x,y,z
2 -x,-y,-z
_cell_length_a                   6.006(1)
_cell_length_b                   6.663(1)
_cell_length_c                   8.497(1)
_cell_angle_alpha                74.76(1)
_cell_angle_beta                 74.39(1)
_cell_angle_gamma                80.94(1)
_cell_volume                     314.595
loop_
_atom_site_label
_atom_site_type_symbol
_atom_site_fract_x
_atom_site_fract_y
_atom_site_fract_z
Cd1 Cd 0.04982(2) 0.31206(2) 0.20619(2)
O1 O 0.2220(3) 0.5549(3) -0.0366(2)
O2 O 0.5411(3) 0.7197(3) -0.1667(2)
C1 C 0.4334(3) 0.5797(3) -0.0594(3)
O3 O -0.0853(3) 0.6061(3) 0.3092(2)
O4 O -0.1208(3) 0.7506(3) 0.5246(2)
C2 C -0.0598(3) 0.6000(3) 0.4535(2)
O5 O -0.2728(3) 0.1418(3) 0.3852(2)
O6 O 0.1533(4) 0.0075(3) 0.1122(3)
C1A C 0.5666(3) 0.4203(3) 0.0594(3)
O1A O 0.7780(3) 0.4451(3) 0.0366(2)
O2A O 0.4589(3) 0.2803(3) 0.1667(2)
C2A C 0.0598(3) 0.4000(3) 0.5465(2)
O3A O 0.0853(3) 0.3939(3) 0.6908(2)
O4A O 0.1208(3) 0.2494(3) 0.4754(2)
Cd1A Cd 0.95018(2) 0.68794(2) -0.20619(2)
O5A O 1.2728(3) 0.8582(3) -0.3852(2)
O6A O 0.8467(4) 0.9925(3) -0.1122(3)
O1A_2 O -0.2220(3) 0.4451(3) 0.0366(2)
Cd1A_2 Cd -0.04982(2) 0.68794(2) -0.20619(2)
Cd1A_3 Cd -0.04982(2) 0.68794(2) 0.79381(2)
Cd1_2 Cd 1.04982(2) 0.31206(2) 0.20619(2)
O1_2 O 1.2220(3) 0.5549(3) -0.0366(2)
O3A_2 O 1.0853(3) 0.3939(3) -0.3092(2)
O4_2 O 0.8792(3) 0.7506(3) -0.4754(2)
O7 O 0.4382(4) -0.2550(4) 0.2954(3)
loop_
_geom_bond_atom_site_label_1
_geom_bond_atom_site_label_2
_geom_bond_site_symmetry_1
_geom_bond_site_symmetry_2
Cd1 O1 1_555 1_555
O1 C1 1_555 1_555
O2 C1 1_555 1_555
C1 C1A 1_555 1_555
O3 Cd1 1_555 1_555
O4 C2 1_555 1_555
C2 O3 1_555 1_555
O5 Cd1 1_555 1_555
O6 Cd1 1_555 1_555
C1A O1A 1_555 1_555
O1A Cd1A 1_555 1_555
O2A Cd1 1_555 1_555
C2A C2 1_555 1_555
O3A C2A 1_555 1_555
O4A Cd1 1_555 1_555
Cd1A O2 1_555 1_555
O5A Cd1A 1_555 1_555
O6A Cd1A 1_555 1_555
O1A_2 Cd1 1_555 1_555
Cd1A_2 O1 1_555 1_555
Cd1A_3 O4 1_555 1_555
Cd1_2 O1A 1_555 1_555
O1_2 Cd1A 1_555 1_555
O3A_2 Cd1A 1_555 1_555
O4_2 Cd1A 1_555 1_555
C1A O2A 1_555 1_555
C2A O4A 1_555 1_555
O3A Cd1A_3 1_555 1_555
O1A_2 Cd1A_2 1_555 1_555
Cd1_2 O1_2 1_555 1_555

#END
