
#######################################################################
#
#                 Cambridge Crystallographic Data Centre
#                                CCDC 
#
#######################################################################
#
# If this CIF has been generated from an entry in the Cambridge 
# Structural Database, then it will include bibliographic, chemical, 
# crystal, experimental, refinement or atomic coordinate data resulting 
# from the CCDC's data processing and validation procedures.
#
#######################################################################

data_SEYHUB
_symmetry_cell_setting           monoclinic
_symmetry_space_group_name_H-M   'P 21/c'
_symmetry_Int_Tables_number      14
_space_group_name_Hall           '-P 2ybc'
loop_
_symmetry_equiv_pos_site_id
_symmetry_equiv_pos_as_xyz
1 x,y,z
2 -x,1/2+y,1/2-z
3 -x,-y,-z
4 x,1/2-y,1/2+z
_cell_length_a                   12.631(3)
_cell_length_b                   18.890(4)
_cell_length_c                   11.552(2)
_cell_angle_alpha                90
_cell_angle_beta                 109.82(3)
_cell_angle_gamma                90
_cell_volume                     2593.03
loop_
_atom_site_label
_atom_site_type_symbol
_atom_site_fract_x
_atom_site_fract_y
_atom_site_fract_z
Bi1 Bi 0.076677(8) 0.497979(5) 0.849895(9)
O1 O 0.12688(17) 0.62530(11) 0.85432(18)
O2 O 0.20180(17) 0.55496(10) 1.01250(19)
O3 O 0.30463(18) 0.62217(12) 1.23633(19)
O4 O 0.1167(2) 0.62339(14) 1.1981(2)
O5 O 0.17973(17) 0.40443(11) 0.94851(19)
O6 O 0.06420(17) 0.43124(10) 1.04818(19)
O7 O 0.36102(17) 0.32047(10) 1.07737(19)
O8 O 0.4066(2) 0.42093(13) 1.1880(2)
O9 O 0.2202(2) 0.50124(10) 0.7798(2)
O10 O 0.09116(16) 0.42696(11) 0.66842(19)
O11 O 0.14059(16) 0.34829(10) 0.49670(18)
O12 O 0.03962(18) 0.43555(11) 0.3776(2)
C1 C 0.1894(2) 0.61707(14) 0.9640(3)
C2 C 0.2496(2) 0.67930(14) 1.0350(3)
C3 C 0.2541(3) 0.74042(16) 0.9685(3)
H1 H 0.2165 0.7412 0.8820
C4 C 0.3125(3) 0.79982(17) 1.0266(3)
H2 H 0.3160 0.8407 0.9801
C5 C 0.3659(3) 0.79937(17) 1.1531(3)
H3 H 0.4062 0.8400 1.1932
C6 C 0.3606(3) 0.73991(17) 1.2211(3)
H4 H 0.3970 0.7399 1.3078
C7 C 0.3022(2) 0.68039(15) 1.1625(3)
C8 C 0.2065(3) 0.59576(18) 1.2428(3)
C9 C 0.2305(3) 0.5284(2) 1.3141(4)
H5 H 0.1674 0.5171 1.3420
H6 H 0.2994 0.5338 1.3855
H7 H 0.2407 0.4901 1.2616
C10 C 0.1397(2) 0.39224(13) 1.0349(2)
C11 C 0.1833(2) 0.33063(14) 1.1187(3)
C12 C 0.1134(2) 0.30146(15) 1.1779(3)
H8 H 0.0417 0.3220 1.1656
C13 C 0.1471(3) 0.24288(15) 1.2545(3)
H9 H 0.0977 0.2228 1.2918
C14 C 0.2524(3) 0.21400(14) 1.2762(3)
H10 H 0.2760 0.1746 1.3300
C15 C 0.3238(2) 0.24228(14) 1.2197(3)
H11 H 0.3967 0.2228 1.2357
C16 C 0.2885(2) 0.29913(14) 1.1398(3)
C17 C 0.4119(3) 0.38461(16) 1.1055(3)
C18 C 0.4742(3) 0.4015(2) 1.0189(3)
H12 H 0.4248 0.4280 0.9484
H13 H 0.4976 0.3573 0.9900
H14 H 0.5408 0.4300 1.0618
C19 C 0.1846(2) 0.45557(13) 0.6910(2)
C20 C 0.2629(2) 0.43901(14) 0.6230(2)
C21 C 0.3683(2) 0.47200(15) 0.6594(3)
H15 H 0.3859 0.5070 0.7221
C22 C 0.4475(3) 0.45453(17) 0.6057(3)
H16 H 0.5191 0.4768 0.6324
C23 C 0.4218(3) 0.40434(18) 0.5129(3)
H17 H 0.4761 0.3924 0.4759
C24 C 0.3173(2) 0.37135(15) 0.4734(3)
H18 H 0.2996 0.3373 0.4090
C25 C 0.2391(2) 0.38867(14) 0.5288(2)
C26 C 0.0428(2) 0.37937(15) 0.4279(3)
C27 C -0.0550(3) 0.33435(19) 0.4256(3)
H19 H -0.0604 0.3326 0.5082
H20 H -0.0444 0.2864 0.3992
H21 H -0.1243 0.3546 0.3680
Bi1B Bi -0.076677(8) 0.502021(5) 0.150105(9)
Bi1B_2 Bi -0.076677(8) 0.502021(5) 1.150105(9)
O6B O -0.06420(17) 0.56876(10) 0.95182(19)
O12B O -0.03962(18) 0.56445(11) 0.6224(2)
loop_
_geom_bond_atom_site_label_1
_geom_bond_atom_site_label_2
_geom_bond_site_symmetry_1
_geom_bond_site_symmetry_2
Bi1 O1 1_555 1_555
O1 C1 1_555 1_555
O2 Bi1 1_555 1_555
O3 C7 1_555 1_555
O4 C8 1_555 1_555
O5 Bi1 1_555 1_555
O6 Bi1 1_555 1_555
O7 C16 1_555 1_555
O8 C17 1_555 1_555
O9 Bi1 1_555 1_555
O10 Bi1 1_555 1_555
O11 C25 1_555 1_555
O12 C26 1_555 1_555
C1 O2 1_555 1_555
C2 C1 1_555 1_555
C3 C2 1_555 1_555
H1 C3 1_555 1_555
C4 C3 1_555 1_555
H2 C4 1_555 1_555
C5 C4 1_555 1_555
H3 C5 1_555 1_555
C6 C5 1_555 1_555
H4 C6 1_555 1_555
C7 C2 1_555 1_555
C8 O3 1_555 1_555
C9 C8 1_555 1_555
H5 C9 1_555 1_555
H6 C9 1_555 1_555
H7 C9 1_555 1_555
C10 O5 1_555 1_555
C11 C10 1_555 1_555
C12 C11 1_555 1_555
H8 C12 1_555 1_555
C13 C12 1_555 1_555
H9 C13 1_555 1_555
C14 C13 1_555 1_555
H10 C14 1_555 1_555
C15 C14 1_555 1_555
H11 C15 1_555 1_555
C16 C11 1_555 1_555
C17 O7 1_555 1_555
C18 C17 1_555 1_555
H12 C18 1_555 1_555
H13 C18 1_555 1_555
H14 C18 1_555 1_555
C19 O9 1_555 1_555
C20 C19 1_555 1_555
C21 C20 1_555 1_555
H15 C21 1_555 1_555
C22 C21 1_555 1_555
H16 C22 1_555 1_555
C23 C22 1_555 1_555
H17 C23 1_555 1_555
C24 C23 1_555 1_555
H18 C24 1_555 1_555
C25 C20 1_555 1_555
C26 O11 1_555 1_555
C27 C26 1_555 1_555
H19 C27 1_555 1_555
H20 C27 1_555 1_555
H21 C27 1_555 1_555
Bi1B O12 1_555 1_555
Bi1B_2 O6 1_555 1_555
O6B Bi1 1_555 1_555
O12B Bi1 1_555 1_555
O6 C10 1_555 1_555
O10 C19 1_555 1_555
C6 C7 1_555 1_555
C15 C16 1_555 1_555
C24 C25 1_555 1_555
Bi1B_2 O6B 1_555 1_555

#END
