
#######################################################################
#
#                 Cambridge Crystallographic Data Centre
#                                CCDC 
#
#######################################################################
#
# If this CIF has been generated from an entry in the Cambridge 
# Structural Database, then it will include bibliographic, chemical, 
# crystal, experimental, refinement or atomic coordinate data resulting 
# from the CCDC's data processing and validation procedures.
#
#######################################################################

data_SEYJOX
_symmetry_cell_setting           triclinic
_symmetry_space_group_name_H-M   'P -1'
_symmetry_Int_Tables_number      2
_space_group_name_Hall           '-P 1'
loop_
_symmetry_equiv_pos_site_id
_symmetry_equiv_pos_as_xyz
1 x,y,z
2 -x,-y,-z
_cell_length_a                   11.313(2)
_cell_length_b                   11.826(2)
_cell_length_c                   13.416(3)
_cell_angle_alpha                103.917(4)
_cell_angle_beta                 112.404(3)
_cell_angle_gamma                93.820(3)
_cell_volume                     1585.45
loop_
_atom_site_label
_atom_site_type_symbol
_atom_site_fract_x
_atom_site_fract_y
_atom_site_fract_z
Mn1 Mn 0.5000 0.5000 0.0000
Mn2 Mn 0.57064(13) 0.81454(12) -0.00635(12)
C1 C 0.3578(10) 0.9451(9) 0.0469(9)
C2 C 0.2490(10) 0.8537(8) 0.0332(8)
C3 C 0.1192(9) 0.8668(9) -0.0163(8)
H1 H 0.1000 0.9359 -0.0391
C4 C 0.0172(10) 0.7808(9) -0.0332(9)
H2 H -0.0702 0.7903 -0.0698
C5 C 0.0429(9) 0.6844(9) 0.0025(9)
H3 H -0.0265 0.6268 -0.0075
C6 C 0.1732(9) 0.6684(8) 0.0550(8)
C7 C 0.2774(9) 0.7519(8) 0.0696(8)
C8 C 0.4087(10) 0.7206(8) 0.1159(9)
C9 C 0.2483(9) 0.5576(8) 0.1899(8)
C10 C 0.2329(10) 0.6394(9) 0.2757(8)
H4 H 0.1879 0.7025 0.2604
C11 C 0.2848(10) 0.6279(9) 0.3860(8)
H5 H 0.2800 0.6852 0.4469
C12 C 0.3418(10) 0.5321(10) 0.4023(9)
H6 H 0.3739 0.5215 0.4754
C13 C 0.3544(10) 0.4490(9) 0.3150(9)
H7 H 0.3955 0.3836 0.3295
C14 C 0.3087(9) 0.4611(8) 0.2109(8)
C15 C 0.3382(9) 0.3802(9) 0.1220(8)
C16 C 0.2053(9) 0.4635(8) -0.1687(8)
H8 H 0.1951 0.4612 -0.1022
C17 C 0.0976(10) 0.4650(10) -0.2619(9)
H9 H 0.0140 0.4589 -0.2606
C18 C 0.1122(10) 0.4756(9) -0.3570(8)
C19 C -0.0009(10) 0.4889(9) -0.4567(8)
H10 H -0.0835 0.4794 -0.4538
C20 C 0.2327(9) 0.4759(8) -0.3596(8)
H11 H 0.2455 0.4808 -0.4245
C21 C 0.3378(9) 0.4684(8) -0.2606(8)
H12 H 0.4211 0.4657 -0.2617
C22 C 0.8663(9) 0.8505(9) 0.1547(9)
H13 H 0.8732 0.8512 0.0864
C23 C 0.9799(10) 0.8605(9) 0.2487(8)
H14 H 1.0611 0.8681 0.2432
C24 C 0.9758(10) 0.8595(9) 0.3491(8)
C25 C 0.8495(10) 0.8518(9) 0.3525(9)
H15 H 0.8397 0.8522 0.4198
C26 C 0.7416(9) 0.8436(8) 0.2524(8)
H16 H 0.6585 0.8404 0.2546
C27 C 1.0906(10) 0.8610(9) 0.4478(9)
H17 H 1.1728 0.8842 0.4481
C28 C 1.0901(10) 0.8327(9) 0.5369(9)
H18 H 1.0071 0.8172 0.5378
C29 C 1.1991(10) 0.8221(10) 0.6337(8)
C30 C 1.3301(10) 0.8517(9) 0.6519(8)
H19 H 1.3531 0.8834 0.6017
C31 C 1.4266(9) 0.8321(8) 0.7491(9)
H20 H 1.5149 0.8527 0.7621
C32 C 1.2811(10) 0.7587(8) 0.8037(8)
H21 H 1.2640 0.7248 0.8553
C33 C 1.1784(10) 0.7744(9) 0.7153(8)
H22 H 1.0924 0.7534 0.7081
N1 N 0.7480(7) 0.8401(7) 0.1546(7)
N2 N 1.4040(8) 0.7890(7) 0.8201(7)
N3 N 0.3237(7) 0.4652(7) -0.1685(7)
O1 O 0.3207(6) 1.0338(5) 0.0197(6)
O2 O 0.4693(6) 0.9230(5) 0.0807(6)
O3 O 0.4649(6) 0.7330(6) 0.2163(6)
O4 O 0.4569(6) 0.6809(6) 0.0424(6)
O5 O 0.3293(7) 0.2730(6) 0.1138(5)
O6 O 0.3756(6) 0.4266(6) 0.0598(6)
O7 O 0.1924(6) 0.5619(5) 0.0791(5)
C16A C -0.2053(9) 0.5365(8) -0.8313(8)
H8A H -0.1951 0.5388 -0.8978
C17A C -0.0976(10) 0.5350(10) -0.7381(9)
H9A H -0.0140 0.5411 -0.7394
C18A C -0.1122(10) 0.5244(9) -0.6430(8)
C19A C 0.0009(10) 0.5111(9) -0.5433(8)
H10A H 0.0835 0.5206 -0.5462
C20A C -0.2327(9) 0.5241(8) -0.6404(8)
H11A H -0.2455 0.5192 -0.5755
C21A C -0.3378(9) 0.5316(8) -0.7394(8)
H12A H -0.4211 0.5343 -0.7383
N3A N -0.3237(7) 0.5348(7) -0.8315(7)
Mn2A Mn 0.42936(13) 0.18546(12) 0.00635(12)
C1A C 0.6422(10) 0.0549(9) -0.0469(9)
C2A C 0.7510(10) 0.1463(8) -0.0332(8)
C3A C 0.8808(9) 0.1332(9) 0.0163(8)
H1A H 0.9000 0.0641 0.0391
C4A C 0.9828(10) 0.2192(9) 0.0332(9)
H2A H 1.0702 0.2097 0.0698
C5A C 0.9571(9) 0.3156(9) -0.0025(9)
H3A H 1.0265 0.3732 0.0075
C6A C 0.8268(9) 0.3316(8) -0.0550(8)
C7A C 0.7226(9) 0.2481(8) -0.0696(8)
C8A C 0.5913(10) 0.2794(8) -0.1159(9)
C9A C 0.7517(9) 0.4424(8) -0.1899(8)
C10A C 0.7671(10) 0.3606(9) -0.2757(8)
H4A H 0.8121 0.2975 -0.2604
C11A C 0.7152(10) 0.3721(9) -0.3860(8)
H5A H 0.7200 0.3148 -0.4469
C12A C 0.6582(10) 0.4679(10) -0.4023(9)
H6A H 0.6261 0.4785 -0.4754
C13A C 0.6456(10) 0.5510(9) -0.3150(9)
H7A H 0.6045 0.6164 -0.3295
C14A C 0.6913(9) 0.5389(8) -0.2109(8)
C15A C 0.6618(9) 0.6198(9) -0.1220(8)
C22A C 0.1337(9) 0.1495(9) -0.1547(9)
H13A H 0.1268 0.1488 -0.0864
C23A C 0.0201(10) 0.1395(9) -0.2487(8)
H14A H -0.0611 0.1319 -0.2432
C24A C 0.0242(10) 0.1405(9) -0.3491(8)
C25A C 0.1505(10) 0.1482(9) -0.3525(9)
H15A H 0.1603 0.1478 -0.4198
C26A C 0.2584(9) 0.1564(8) -0.2524(8)
H16A H 0.3415 0.1596 -0.2546
C27A C -0.0906(10) 0.1390(9) -0.4478(9)
H17A H -0.1728 0.1158 -0.4481
C28A C -0.0901(10) 0.1673(9) -0.5369(9)
H18A H -0.0071 0.1828 -0.5378
C29A C -0.1991(10) 0.1779(10) -0.6337(8)
C30A C -0.3301(10) 0.1483(9) -0.6519(8)
H19A H -0.3531 0.1166 -0.6017
C31A C -0.4266(9) 0.1679(8) -0.7491(9)
H20A H -0.5149 0.1473 -0.7621
C32A C -0.2811(10) 0.2413(8) -0.8037(8)
H21A H -0.2640 0.2752 -0.8553
C33A C -0.1784(10) 0.2256(9) -0.7153(8)
H22A H -0.0924 0.2466 -0.7081
N1A N 0.2520(7) 0.1599(7) -0.1546(7)
N2A N -0.4040(8) 0.2110(7) -0.8201(7)
O1A O 0.6793(6) -0.0338(5) -0.0197(6)
O2A O 0.5307(6) 0.0770(5) -0.0807(6)
O3A O 0.5351(6) 0.2670(6) -0.2163(6)
O4A O 0.5431(6) 0.3191(6) -0.0424(6)
O5A O 0.6707(7) 0.7270(6) -0.1138(5)
O6A O 0.6244(6) 0.5734(6) -0.0598(6)
O7A O 0.8076(6) 0.4381(5) -0.0791(5)
Mn1_2 Mn -0.5000 0.5000 -1.0000
Mn2_2 Mn 0.57064(13) -0.18546(12) -0.00635(12)
Mn2_3 Mn 1.57064(13) 0.81454(12) 0.99365(12)
Mn2A_2 Mn -0.57064(13) 0.18546(12) -0.99365(12)
Mn2A_3 Mn 0.42936(13) 1.18546(12) 0.00635(12)
N2_2 N 0.4040(8) 0.7890(7) -0.1799(7)
N2A_2 N 0.5960(8) 0.2110(7) 0.1799(7)
N3A_2 N 0.6763(7) 0.5348(7) 0.1685(7)
O1_2 O 0.3207(6) 0.0338(5) 0.0197(6)
O1A_2 O 0.6793(6) 0.9662(5) -0.0197(6)
C34 C 0.2096(13) 0.0961(12) 0.2544(11)
H23 H 0.1683 0.0619 0.1751
C35 C 0.3116(14) 0.0419(12) 0.3187(12)
H24 H 0.3361 -0.0262 0.2828
C36 C 0.3723(12) 0.0917(12) 0.4336(11)
C37 C 0.3311(12) 0.1933(11) 0.4845(11)
H25 H 0.3733 0.2320 0.5630
C38 C 0.2305(13) 0.2319(12) 0.4170(12)
H26 H 0.1974 0.2929 0.4533
C39 C 0.4775(14) 0.0520(13) 0.5097(13)
H27 H 0.5217 0.1050 0.5833
N4 N 0.1692(10) 0.1926(10) 0.3002(9)
C34A C 0.7904(13) -0.0961(12) 0.7456(11)
H23A H 0.8317 -0.0619 0.8249
C35A C 0.6884(14) -0.0419(12) 0.6813(12)
H24A H 0.6639 0.0262 0.7172
C36A C 0.6277(12) -0.0917(12) 0.5664(11)
C37A C 0.6689(12) -0.1933(11) 0.5155(11)
H25A H 0.6267 -0.2320 0.4370
C38A C 0.7695(13) -0.2319(12) 0.5830(12)
H26A H 0.8026 -0.2929 0.5467
C39A C 0.5225(14) -0.0520(13) 0.4903(13)
H27A H 0.4783 -0.1050 0.4167
N4A N 0.8308(10) -0.1926(10) 0.6998(9)
loop_
_geom_bond_atom_site_label_1
_geom_bond_atom_site_label_2
_geom_bond_site_symmetry_1
_geom_bond_site_symmetry_2
Mn1 N3 1_555 1_555
Mn2 N1 1_555 1_555
C1 C2 1_555 1_555
C2 C3 1_555 1_555
C3 H1 1_555 1_555
C4 C3 1_555 1_555
H2 C4 1_555 1_555
C5 C4 1_555 1_555
H3 C5 1_555 1_555
C6 C5 1_555 1_555
C7 C2 1_555 1_555
C8 C7 1_555 1_555
C9 C10 1_555 1_555
C10 H4 1_555 1_555
C11 C10 1_555 1_555
H5 C11 1_555 1_555
C12 C11 1_555 1_555
H6 C12 1_555 1_555
C13 C12 1_555 1_555
H7 C13 1_555 1_555
C14 C9 1_555 1_555
C15 C14 1_555 1_555
C16 H8 1_555 1_555
C17 C16 1_555 1_555
H9 C17 1_555 1_555
C18 C17 1_555 1_555
C19 C18 1_555 1_555
H10 C19 1_555 1_555
C20 C18 1_555 1_555
H11 C20 1_555 1_555
C21 C20 1_555 1_555
H12 C21 1_555 1_555
C22 H13 1_555 1_555
C23 C22 1_555 1_555
H14 C23 1_555 1_555
C24 C23 1_555 1_555
C25 C24 1_555 1_555
H15 C25 1_555 1_555
C26 C25 1_555 1_555
H16 C26 1_555 1_555
C27 C24 1_555 1_555
H17 C27 1_555 1_555
C28 C27 1_555 1_555
H18 C28 1_555 1_555
C29 C28 1_555 1_555
C30 C29 1_555 1_555
H19 C30 1_555 1_555
C31 C30 1_555 1_555
H20 C31 1_555 1_555
C32 H21 1_555 1_555
C33 C29 1_555 1_555
H22 C33 1_555 1_555
N1 C22 1_555 1_555
N2 C31 1_555 1_555
N3 C16 1_555 1_555
O1 C1 1_555 1_555
O2 Mn2 1_555 1_555
O3 C8 1_555 1_555
O4 Mn1 1_555 1_555
O5 C15 1_555 1_555
O6 Mn1 1_555 1_555
O7 C6 1_555 1_555
C34 H23 1_555 1_555
C35 C34 1_555 1_555
H24 C35 1_555 1_555
C36 C35 1_555 1_555
C37 C36 1_555 1_555
H25 C37 1_555 1_555
C38 C37 1_555 1_555
H26 C38 1_555 1_555
C39 C36 1_555 1_555
H27 C39 1_555 1_555
N4 C34 1_555 1_555
C16A H8A 1_555 1_555
C17A C16A 1_555 1_555
H9A C17A 1_555 1_555
C18A C17A 1_555 1_555
C19A C19 1_555 1_555
H10A C19A 1_555 1_555
C20A C18A 1_555 1_555
H11A C20A 1_555 1_555
C21A C20A 1_555 1_555
H12A C21A 1_555 1_555
N3A C16A 1_555 1_555
Mn2A O5 1_555 1_555
C1A C2A 1_555 1_555
C2A C3A 1_555 1_555
C3A H1A 1_555 1_555
C4A C3A 1_555 1_555
H2A C4A 1_555 1_555
C5A C4A 1_555 1_555
H3A C5A 1_555 1_555
C6A C5A 1_555 1_555
C7A C2A 1_555 1_555
C8A C7A 1_555 1_555
C9A C10A 1_555 1_555
C10A H4A 1_555 1_555
C11A C10A 1_555 1_555
H5A C11A 1_555 1_555
C12A C11A 1_555 1_555
H6A C12A 1_555 1_555
C13A C12A 1_555 1_555
H7A C13A 1_555 1_555
C14A C9A 1_555 1_555
C15A C14A 1_555 1_555
C22A H13A 1_555 1_555
C23A C22A 1_555 1_555
H14A C23A 1_555 1_555
C24A C23A 1_555 1_555
C25A C24A 1_555 1_555
H15A C25A 1_555 1_555
C26A C25A 1_555 1_555
H16A C26A 1_555 1_555
C27A C24A 1_555 1_555
H17A C27A 1_555 1_555
C28A C27A 1_555 1_555
H18A C28A 1_555 1_555
C29A C28A 1_555 1_555
C30A C29A 1_555 1_555
H19A C30A 1_555 1_555
C31A C30A 1_555 1_555
H20A C31A 1_555 1_555
C32A H21A 1_555 1_555
C33A C29A 1_555 1_555
H22A C33A 1_555 1_555
N1A Mn2A 1_555 1_555
N2A C31A 1_555 1_555
O1A C1A 1_555 1_555
O2A Mn2A 1_555 1_555
O3A C8A 1_555 1_555
O4A Mn1 1_555 1_555
O5A Mn2 1_555 1_555
O6A Mn1 1_555 1_555
O7A C6A 1_555 1_555
Mn1_2 N3A 1_555 1_555
Mn2_2 O1A 1_555 1_555
Mn2_3 N2 1_555 1_555
Mn2A_2 N2A 1_555 1_555
Mn2A_3 O1 1_555 1_555
N2_2 Mn2 1_555 1_555
N2A_2 Mn2A 1_555 1_555
N3A_2 Mn1 1_555 1_555
O1_2 Mn2A 1_555 1_555
O1A_2 Mn2 1_555 1_555
C34A H23A 1_555 1_555
C35A C34A 1_555 1_555
H24A C35A 1_555 1_555
C36A C35A 1_555 1_555
C37A C36A 1_555 1_555
H25A C37A 1_555 1_555
C38A C37A 1_555 1_555
H26A C38A 1_555 1_555
C39A C39 1_555 1_555
H27A C39A 1_555 1_555
N4A C34A 1_555 1_555
Mn2 O4 1_555 1_555
C1 O2 1_555 1_555
C6 C7 1_555 1_555
C8 O4 1_555 1_555
C9 O7 1_555 1_555
C13 C14 1_555 1_555
C15 O6 1_555 1_555
C21 N3 1_555 1_555
C26 N1 1_555 1_555
C32 C33 1_555 1_555
C32 N2 1_555 1_555
C38 N4 1_555 1_555
C18A C19A 1_555 1_555
C21A N3A 1_555 1_555
Mn2A O4A 1_555 1_555
C1A O2A 1_555 1_555
C6A C7A 1_555 1_555
C8A O4A 1_555 1_555
C9A O7A 1_555 1_555
C13A C14A 1_555 1_555
C15A O5A 1_555 1_555
C15A O6A 1_555 1_555
C22A N1A 1_555 1_555
C26A N1A 1_555 1_555
C32A C33A 1_555 1_555
C32A N2A 1_555 1_555
C36A C39A 1_555 1_555
C38A N4A 1_555 1_555

#END
