
#######################################################################
#
#                 Cambridge Crystallographic Data Centre
#                                CCDC 
#
#######################################################################
#
# If this CIF has been generated from an entry in the Cambridge 
# Structural Database, then it will include bibliographic, chemical, 
# crystal, experimental, refinement or atomic coordinate data resulting 
# from the CCDC's data processing and validation procedures.
#
#######################################################################

data_SEYJOX01
_symmetry_cell_setting           triclinic
_symmetry_space_group_name_H-M   'P -1'
_symmetry_Int_Tables_number      2
_space_group_name_Hall           '-P 1'
loop_
_symmetry_equiv_pos_site_id
_symmetry_equiv_pos_as_xyz
1 x,y,z
2 -x,-y,-z
_cell_length_a                   11.4021(15)
_cell_length_b                   11.888(3)
_cell_length_c                   13.5025(16)
_cell_angle_alpha                103.486(3)
_cell_angle_beta                 112.845(2)
_cell_angle_gamma                93.903(3)
_cell_volume                     1614.27
loop_
_atom_site_label
_atom_site_type_symbol
_atom_site_fract_x
_atom_site_fract_y
_atom_site_fract_z
C1 C -0.1427(6) 0.9434(5) 0.0474(5)
C2 C -0.2498(6) 0.8520(5) 0.0358(5)
C3 C -0.3770(6) 0.8667(6) -0.0123(5)
H1 H -0.3944 0.9351 -0.0330
C4 C -0.4776(7) 0.7845(6) -0.0302(6)
H2 H -0.5625 0.7949 -0.0652
C5 C -0.4507(6) 0.6846(5) 0.0050(5)
H3 H -0.5177 0.6276 -0.0055
C6 C -0.3249(6) 0.6707(5) 0.0553(5)
C7 C -0.2211(6) 0.7515(5) 0.0697(5)
C8 C -0.0884(6) 0.7213(5) 0.1146(5)
C9 C -0.2509(6) 0.5566(5) 0.1880(5)
C10 C -0.2669(7) 0.6363(6) 0.2720(6)
H4 H -0.3092 0.6988 0.2578
C11 C -0.2176(8) 0.6206(7) 0.3795(6)
H5 H -0.2251 0.6745 0.4379
C12 C -0.1583(8) 0.5263(7) 0.3994(6)
H6 H -0.1270 0.5165 0.4710
C13 C -0.1448(7) 0.4460(6) 0.3141(6)
H7 H -0.1053 0.3821 0.3282
C14 C -0.1902(6) 0.4605(5) 0.2069(5)
C15 C -0.1593(6) 0.3796(6) 0.1201(5)
C16 C -0.2935(7) 0.4658(6) -0.1701(5)
H8 H -0.3045 0.4613 -0.1062
C17 C -0.4008(7) 0.4709(6) -0.2628(5)
H9 H -0.4812 0.4691 -0.2602
C18 C -0.3886(6) 0.4786(6) -0.3592(5)
C19 C -0.4995(7) 0.4900(6) -0.4539(5)
H10 H -0.5787 0.4823 -0.4490
C20 C -0.2654(7) 0.4784(6) -0.3556(5)
H11 H -0.2513 0.4827 -0.4181
C21 C -0.1647(6) 0.4719(6) -0.2618(5)
H12 H -0.0838 0.4707 -0.2631
C22 C 0.3650(7) 0.8519(7) 0.1536(6)
H13 H 0.3720 0.8544 0.0878
C23 C 0.4758(7) 0.8591(7) 0.2457(6)
H14 H 0.5550 0.8642 0.2408
C24 C 0.4705(6) 0.8586(6) 0.3470(5)
C25 C 0.3491(7) 0.8531(6) 0.3474(6)
H15 H 0.3404 0.8543 0.4132
C26 C 0.2419(7) 0.8459(6) 0.2522(6)
H16 H 0.1621 0.8440 0.2561
C27 C 0.5883(7) 0.8588(6) 0.4447(5)
H17 H 0.6676 0.8791 0.4430
C28 C 0.5890(7) 0.8318(6) 0.5357(6)
H18 H 0.5087 0.8177 0.5375
C29 C 0.6990(7) 0.8217(6) 0.6322(5)
C30 C 0.8289(7) 0.8486(6) 0.6515(5)
H19 H 0.8499 0.8773 0.6009
C31 C 0.9241(7) 0.8333(6) 0.7430(5)
H20 H 1.0094 0.8522 0.7534
C32 C 0.7769(7) 0.7650(6) 0.8013(5)
H21 H 0.7587 0.7346 0.8523
C33 C 0.6762(7) 0.7796(6) 0.7128(5)
H22 H 0.5920 0.7616 0.7056
Mn1 Mn 0.0000 0.5000 0.0000
Mn2 Mn 0.06964(8) 0.81537(7) -0.00839(7)
N1 N 0.2463(5) 0.8414(4) 0.1526(4)
N2 N 0.9011(5) 0.7917(4) 0.8199(4)
N3 N -0.1762(5) 0.4671(4) -0.1678(4)
O1 O -0.1754(4) 1.0355(4) 0.0241(4)
O2 O -0.0297(4) 0.9215(3) 0.0777(3)
O3 O -0.0328(4) 0.7317(4) 0.2157(4)
O4 O -0.0438(4) 0.6796(3) 0.0414(3)
O5 O -0.1661(5) 0.2741(4) 0.1141(4)
O6 O -0.1228(5) 0.4263(4) 0.0595(4)
O7 O -0.3026(4) 0.5619(3) 0.0781(3)
C16A C -0.7065(7) 0.5342(6) -0.8299(5)
H8A H -0.6955 0.5387 -0.8938
C17A C -0.5992(7) 0.5291(6) -0.7372(5)
H9A H -0.5188 0.5309 -0.7398
C18A C -0.6114(6) 0.5214(6) -0.6408(5)
C19A C -0.5005(7) 0.5100(6) -0.5461(5)
H10A H -0.4213 0.5177 -0.5510
C20A C -0.7346(7) 0.5216(6) -0.6444(5)
H11A H -0.7487 0.5173 -0.5819
C21A C -0.8353(6) 0.5281(6) -0.7382(5)
H12A H -0.9162 0.5293 -0.7369
N3A N -0.8238(5) 0.5329(4) -0.8322(4)
C1A C 0.1427(6) 0.0566(5) -0.0474(5)
C2A C 0.2498(6) 0.1480(5) -0.0358(5)
C3A C 0.3770(6) 0.1333(6) 0.0123(5)
H1A H 0.3944 0.0649 0.0330
C4A C 0.4776(7) 0.2155(6) 0.0302(6)
H2A H 0.5625 0.2051 0.0652
C5A C 0.4507(6) 0.3154(5) -0.0050(5)
H3A H 0.5177 0.3724 0.0055
C6A C 0.3249(6) 0.3293(5) -0.0553(5)
C7A C 0.2211(6) 0.2485(5) -0.0697(5)
C8A C 0.0884(6) 0.2787(5) -0.1146(5)
C9A C 0.2509(6) 0.4434(5) -0.1880(5)
C10A C 0.2669(7) 0.3637(6) -0.2720(6)
H4A H 0.3092 0.3012 -0.2578
C11A C 0.2176(8) 0.3794(7) -0.3795(6)
H5A H 0.2251 0.3255 -0.4379
C12A C 0.1583(8) 0.4737(7) -0.3994(6)
H6A H 0.1270 0.4835 -0.4710
C13A C 0.1448(7) 0.5540(6) -0.3141(6)
H7A H 0.1053 0.6179 -0.3282
C14A C 0.1902(6) 0.5395(5) -0.2069(5)
C15A C 0.1593(6) 0.6204(6) -0.1201(5)
C22A C -0.3650(7) 0.1481(7) -0.1536(6)
H13A H -0.3720 0.1456 -0.0878
C23A C -0.4758(7) 0.1409(7) -0.2457(6)
H14A H -0.5550 0.1358 -0.2408
C24A C -0.4705(6) 0.1414(6) -0.3470(5)
C25A C -0.3491(7) 0.1469(6) -0.3474(6)
H15A H -0.3404 0.1457 -0.4132
C26A C -0.2419(7) 0.1541(6) -0.2522(6)
H16A H -0.1621 0.1560 -0.2561
C27A C -0.5883(7) 0.1412(6) -0.4447(5)
H17A H -0.6676 0.1209 -0.4430
C28A C -0.5890(7) 0.1682(6) -0.5357(6)
H18A H -0.5087 0.1823 -0.5375
C29A C -0.6990(7) 0.1783(6) -0.6322(5)
C30A C -0.8289(7) 0.1514(6) -0.6515(5)
H19A H -0.8499 0.1227 -0.6009
C31A C -0.9241(7) 0.1667(6) -0.7430(5)
H20A H -1.0094 0.1478 -0.7534
C32A C -0.7769(7) 0.2350(6) -0.8013(5)
H21A H -0.7587 0.2654 -0.8523
C33A C -0.6762(7) 0.2204(6) -0.7128(5)
H22A H -0.5920 0.2384 -0.7056
Mn2A Mn -0.06964(8) 0.18463(7) 0.00839(7)
N1A N -0.2463(5) 0.1586(4) -0.1526(4)
N2A N -0.9011(5) 0.2083(4) -0.8199(4)
O1A O 0.1754(4) -0.0355(4) -0.0241(4)
O2A O 0.0297(4) 0.0785(3) -0.0777(3)
O3A O 0.0328(4) 0.2683(4) -0.2157(4)
O4A O 0.0438(4) 0.3204(3) -0.0414(3)
O5A O 0.1661(5) 0.7259(4) -0.1141(4)
O6A O 0.1228(5) 0.5737(4) -0.0595(4)
O7A O 0.3026(4) 0.4381(3) -0.0781(3)
Mn1_2 Mn -1.0000 0.5000 -1.0000
Mn2_2 Mn 0.06964(8) -0.18463(7) -0.00839(7)
Mn2_3 Mn 1.06964(8) 0.81537(7) 0.99161(7)
Mn2A_2 Mn -1.06964(8) 0.18463(7) -0.99161(7)
Mn2A_3 Mn -0.06964(8) 1.18463(7) 0.00839(7)
N2_2 N -0.0989(5) 0.7917(4) -0.1801(4)
N2A_2 N 0.0989(5) 0.2083(4) 0.1801(4)
N3A_2 N 0.1762(5) 0.5329(4) 0.1678(4)
O1_2 O -0.1754(4) 0.0355(4) 0.0241(4)
O1A_2 O 0.1754(4) 0.9645(4) -0.0241(4)
C34 C 0.7287(11) 0.2309(8) 0.4161(10)
H23 H 0.7004 0.2947 0.4489
C35 C 0.8336(10) 0.1885(9) 0.4862(8)
H24 H 0.8756 0.2240 0.5629
C36 C 0.8701(9) 0.0913(9) 0.4342(8)
C37 C 0.8078(11) 0.0441(9) 0.3193(8)
H25 H 0.8317 -0.0214 0.2840
C38 C 0.7106(12) 0.0943(9) 0.2577(9)
H26 H 0.6727 0.0647 0.1801
C39 C 0.9829(12) 0.0467(9) 0.5172(10)
H27 H 1.0246 0.0898 0.5922
N4 N 0.6690(8) 0.1844(8) 0.3060(8)
C34A C 1.2713(11) -0.2309(8) 0.5839(10)
H23A H 1.2996 -0.2947 0.5511
C35A C 1.1664(10) -0.1885(9) 0.5138(8)
H24A H 1.1244 -0.2240 0.4371
C36A C 1.1299(9) -0.0913(9) 0.5658(8)
C37A C 1.1922(11) -0.0441(9) 0.6807(8)
H25A H 1.1683 0.0214 0.7160
C38A C 1.2894(12) -0.0943(9) 0.7423(9)
H26A H 1.3273 -0.0647 0.8199
C39A C 1.0171(12) -0.0467(9) 0.4828(10)
H27A H 0.9754 -0.0898 0.4078
N4A N 1.3310(8) -0.1844(8) 0.6940(8)
loop_
_geom_bond_atom_site_label_1
_geom_bond_atom_site_label_2
_geom_bond_site_symmetry_1
_geom_bond_site_symmetry_2
C1 C2 1_555 1_555
C2 C3 1_555 1_555
C3 H1 1_555 1_555
C4 C3 1_555 1_555
H2 C4 1_555 1_555
C5 C4 1_555 1_555
H3 C5 1_555 1_555
C6 C5 1_555 1_555
C7 C2 1_555 1_555
C8 C7 1_555 1_555
C9 C10 1_555 1_555
C10 H4 1_555 1_555
C11 C10 1_555 1_555
H5 C11 1_555 1_555
C12 C11 1_555 1_555
H6 C12 1_555 1_555
C13 C12 1_555 1_555
H7 C13 1_555 1_555
C14 C9 1_555 1_555
C15 C14 1_555 1_555
C16 H8 1_555 1_555
C17 C16 1_555 1_555
H9 C17 1_555 1_555
C18 C17 1_555 1_555
C19 C18 1_555 1_555
H10 C19 1_555 1_555
C20 C18 1_555 1_555
H11 C20 1_555 1_555
C21 C20 1_555 1_555
H12 C21 1_555 1_555
C22 H13 1_555 1_555
C23 C22 1_555 1_555
H14 C23 1_555 1_555
C24 C23 1_555 1_555
C25 C24 1_555 1_555
H15 C25 1_555 1_555
C26 C25 1_555 1_555
H16 C26 1_555 1_555
C27 C24 1_555 1_555
H17 C27 1_555 1_555
C28 C27 1_555 1_555
H18 C28 1_555 1_555
C29 C28 1_555 1_555
C30 C29 1_555 1_555
H19 C30 1_555 1_555
C31 C30 1_555 1_555
H20 C31 1_555 1_555
C32 H21 1_555 1_555
C33 C29 1_555 1_555
H22 C33 1_555 1_555
Mn1 N3 1_555 1_555
Mn2 N1 1_555 1_555
N1 C22 1_555 1_555
N2 C31 1_555 1_555
N3 C16 1_555 1_555
O1 C1 1_555 1_555
O2 C1 1_555 1_555
O3 C8 1_555 1_555
O4 C8 1_555 1_555
O5 C15 1_555 1_555
O6 C15 1_555 1_555
O7 C6 1_555 1_555
C34 H23 1_555 1_555
C35 C34 1_555 1_555
H24 C35 1_555 1_555
C36 C35 1_555 1_555
C37 C36 1_555 1_555
H25 C37 1_555 1_555
C38 C37 1_555 1_555
H26 C38 1_555 1_555
C39 C36 1_555 1_555
H27 C39 1_555 1_555
N4 C34 1_555 1_555
C16A H8A 1_555 1_555
C17A C16A 1_555 1_555
H9A C17A 1_555 1_555
C18A C17A 1_555 1_555
C19A C19 1_555 1_555
H10A C19A 1_555 1_555
C20A C18A 1_555 1_555
H11A C20A 1_555 1_555
C21A C20A 1_555 1_555
H12A C21A 1_555 1_555
N3A C16A 1_555 1_555
C1A C2A 1_555 1_555
C2A C3A 1_555 1_555
C3A H1A 1_555 1_555
C4A C3A 1_555 1_555
H2A C4A 1_555 1_555
C5A C4A 1_555 1_555
H3A C5A 1_555 1_555
C6A C5A 1_555 1_555
C7A C2A 1_555 1_555
C8A C7A 1_555 1_555
C9A C10A 1_555 1_555
C10A H4A 1_555 1_555
C11A C10A 1_555 1_555
H5A C11A 1_555 1_555
C12A C11A 1_555 1_555
H6A C12A 1_555 1_555
C13A C12A 1_555 1_555
H7A C13A 1_555 1_555
C14A C9A 1_555 1_555
C15A C14A 1_555 1_555
C22A H13A 1_555 1_555
C23A C22A 1_555 1_555
H14A C23A 1_555 1_555
C24A C23A 1_555 1_555
C25A C24A 1_555 1_555
H15A C25A 1_555 1_555
C26A C25A 1_555 1_555
H16A C26A 1_555 1_555
C27A C24A 1_555 1_555
H17A C27A 1_555 1_555
C28A C27A 1_555 1_555
H18A C28A 1_555 1_555
C29A C28A 1_555 1_555
C30A C29A 1_555 1_555
H19A C30A 1_555 1_555
C31A C30A 1_555 1_555
H20A C31A 1_555 1_555
C32A H21A 1_555 1_555
C33A C29A 1_555 1_555
H22A C33A 1_555 1_555
Mn2A O5 1_555 1_555
N1A C22A 1_555 1_555
N2A C31A 1_555 1_555
O1A C1A 1_555 1_555
O2A C1A 1_555 1_555
O3A C8A 1_555 1_555
O4A Mn1 1_555 1_555
O5A Mn2 1_555 1_555
O6A Mn1 1_555 1_555
O7A C6A 1_555 1_555
Mn1_2 N3A 1_555 1_555
Mn2_2 O1A 1_555 1_555
Mn2_3 N2 1_555 1_555
Mn2A_2 N2A 1_555 1_555
Mn2A_3 O1 1_555 1_555
N2_2 Mn2 1_555 1_555
N2A_2 Mn2A 1_555 1_555
N3A_2 Mn1 1_555 1_555
O1_2 Mn2A 1_555 1_555
O1A_2 Mn2 1_555 1_555
C34A H23A 1_555 1_555
C35A C34A 1_555 1_555
H24A C35A 1_555 1_555
C36A C35A 1_555 1_555
C37A C36A 1_555 1_555
H25A C37A 1_555 1_555
C38A C37A 1_555 1_555
H26A C38A 1_555 1_555
C39A C39 1_555 1_555
H27A C39A 1_555 1_555
N4A C34A 1_555 1_555
C6 C7 1_555 1_555
C9 O7 1_555 1_555
C13 C14 1_555 1_555
C21 N3 1_555 1_555
C26 N1 1_555 1_555
C32 C33 1_555 1_555
C32 N2 1_555 1_555
Mn1 O4 1_555 1_555
Mn1 O6 1_555 1_555
Mn2 O2 1_555 1_555
Mn2 O4 1_555 1_555
C38 N4 1_555 1_555
C18A C19A 1_555 1_555
C21A N3A 1_555 1_555
C6A C7A 1_555 1_555
C8A O4A 1_555 1_555
C9A O7A 1_555 1_555
C13A C14A 1_555 1_555
C15A O5A 1_555 1_555
C15A O6A 1_555 1_555
C26A N1A 1_555 1_555
C32A C33A 1_555 1_555
C32A N2A 1_555 1_555
Mn2A N1A 1_555 1_555
Mn2A O2A 1_555 1_555
Mn2A O4A 1_555 1_555
C36A C39A 1_555 1_555
C38A N4A 1_555 1_555

#END
