
#######################################################################
#
#                 Cambridge Crystallographic Data Centre
#                                CCDC 
#
#######################################################################
#
# If this CIF has been generated from an entry in the Cambridge 
# Structural Database, then it will include bibliographic, chemical, 
# crystal, experimental, refinement or atomic coordinate data resulting 
# from the CCDC's data processing and validation procedures.
#
#######################################################################

data_SEYKUD
_symmetry_cell_setting           orthorhombic
_symmetry_space_group_name_H-M   'P n a 21'
_symmetry_Int_Tables_number      33
_space_group_name_Hall           'P 2c -2n'
loop_
_symmetry_equiv_pos_site_id
_symmetry_equiv_pos_as_xyz
1 x,y,z
2 -x,-y,1/2+z
3 1/2+x,1/2-y,z
4 1/2-x,1/2+y,1/2+z
_cell_length_a                   8.6162(17)
_cell_length_b                   8.9554(18)
_cell_length_c                   15.297(3)
_cell_angle_alpha                90
_cell_angle_beta                 90
_cell_angle_gamma                90
_cell_volume                     1180.34
loop_
_atom_site_label
_atom_site_type_symbol
_atom_site_fract_x
_atom_site_fract_y
_atom_site_fract_z
C1 C -0.5943(5) 0.5065(7) 0.5837(10)
C2 C -0.0213(8) 0.7123(4) 0.3304(4)
N1 N -0.0547(5) 0.6404(5) 0.4069(3)
N2 N -0.4318(4) 0.5067(5) 0.5821(6)
N3 N 0.0247(5) 0.6404(5) 0.2546(3)
N4 N -0.6695(5) 0.6090(5) 0.6403(3)
N5 N -0.0197(8) 0.8733(4) 0.3282(4)
N6 N -0.6753(5) 0.4060(5) 0.5343(3)
O1 O -0.0635(6) 0.7172(5) 0.4750(3)
O2 O -0.0704(5) 0.5026(4) 0.4089(4)
O3 O -0.3590(6) 0.5385(6) 0.6485(3)
O4 O 0.0622(5) 0.5069(4) 0.2550(4)
O5 O -0.3654(7) 0.4719(7) 0.5141(4)
O6 O 0.1028(7) 0.9329(5) 0.3042(3)
O7 O -0.5969(4) 0.7190(4) 0.6660(3)
O8 O -0.1342(6) 0.9389(5) 0.3523(3)
O9 O -0.8061(5) 0.5851(5) 0.6617(3)
O10 O -0.8132(5) 0.4331(6) 0.5154(3)
O11 O 0.0274(6) 0.7131(5) 0.1855(3)
O12 O -0.6064(4) 0.2962(4) 0.5034(3)
O13 O -0.6368(4) 0.7460(4) 0.8606(3)
Ag1 Ag -0.08249(4) 0.50181(6) 0.58299(5)
Ag2 Ag -0.38275(4) 0.74237(7) 0.78844(5)
H1 H -0.6409 0.6524 0.8755
H2 H -0.6375 0.8396 0.8850
O4A O -0.0622(5) 0.4931(4) 0.7550(4)
O9B O -0.3061(5) 0.9149(5) 0.6617(3)
O10_2 O 0.1868(5) 0.4331(6) 0.5154(3)
O11A O -0.0274(6) 0.2869(5) 0.6855(3)
O13B O -0.1368(4) 0.7540(4) 0.8606(3)
Ag1A Ag 0.08249(4) 0.49819(6) 0.08299(5)
Ag1_2 Ag -1.08249(4) 0.50181(6) 0.58299(5)
Ag2B Ag -0.88275(4) 0.75763(7) 0.78844(5)
H1B H -0.1409 0.8476 0.8755
H2B H -0.1375 0.6604 0.8850
loop_
_geom_bond_atom_site_label_1
_geom_bond_atom_site_label_2
_geom_bond_site_symmetry_1
_geom_bond_site_symmetry_2
C1 N2 1_555 1_555
C2 N1 1_555 1_555
N1 O1 1_555 1_555
N2 O3 1_555 1_555
N3 C2 1_555 1_555
N4 C1 1_555 1_555
N5 C2 1_555 1_555
N6 C1 1_555 1_555
O1 Ag1 1_555 1_555
O2 N1 1_555 1_555
O3 Ag1 1_555 1_555
O4 N3 1_555 1_555
O5 N2 1_555 1_555
O6 N5 1_555 1_555
O7 N4 1_555 1_555
O8 N5 1_555 1_555
O9 N4 1_555 1_555
O10 N6 1_555 1_555
O11 N3 1_555 1_555
O12 N6 1_555 1_555
O13 Ag2 1_555 1_555
Ag1 O2 1_555 1_555
Ag2 O7 1_555 1_555
H1 O13 1_555 1_555
H2 O13 1_555 1_555
O4A Ag1 1_555 1_555
O9B Ag2 1_555 1_555
O10_2 Ag1 1_555 1_555
O11A Ag1 1_555 1_555
O13B Ag2 1_555 1_555
Ag1A O4 1_555 1_555
Ag1_2 O10 1_555 1_555
Ag2B O9 1_555 1_555
H1B O13B 1_555 1_555
H2B O13B 1_555 1_555
O5 Ag1 1_555 1_555
O11 Ag1A 1_555 1_555
O13 Ag2B 1_555 1_555

#END
