
#######################################################################
#
#                 Cambridge Crystallographic Data Centre
#                                CCDC 
#
#######################################################################
#
# If this CIF has been generated from an entry in the Cambridge 
# Structural Database, then it will include bibliographic, chemical, 
# crystal, experimental, refinement or atomic coordinate data resulting 
# from the CCDC's data processing and validation procedures.
#
#######################################################################

data_SEYNAM
_symmetry_cell_setting           tetragonal
_symmetry_space_group_name_H-M   'P 43'
_symmetry_Int_Tables_number      78
_space_group_name_Hall           'P 4cw'
loop_
_symmetry_equiv_pos_site_id
_symmetry_equiv_pos_as_xyz
1 x,y,z
2 -x,-y,1/2+z
3 -y,x,3/4+z
4 y,-x,1/4+z
_cell_length_a                   11.2374(11)
_cell_length_b                   11.2374(11)
_cell_length_c                   37.096(6)
_cell_angle_alpha                90
_cell_angle_beta                 90
_cell_angle_gamma                90
_cell_volume                     4684.45
loop_
_atom_site_label
_atom_site_type_symbol
_atom_site_fract_x
_atom_site_fract_y
_atom_site_fract_z
Cu1 Cu -0.50600(6) 0.49983(10) 0.68583(5)
Cu2 Cu -0.30325(9) 0.69699(9) 0.56054(6)
O1 O -0.3909(5) 0.6178(5) 0.59742(17)
O2 O -0.3828(5) 0.6091(5) 0.52314(17)
O3 O -0.5135(5) 0.4908(5) 0.6226(2)
O4 O -0.5081(5) 0.4876(5) 0.4975(2)
N1 N -0.2047(7) 0.7709(8) 0.5999(3)
N2 N -0.2262(8) 0.7942(6) 0.5213(3)
N3 N -0.6919(4) 0.4997(6) 0.6866(2)
N4 N -0.5125(5) 0.3154(5) 0.68534(19)
N5 N 0.1531(10) 0.8663(13) 0.7533(3)
N6 N -0.1310(12) 1.1522(10) 0.3670(4)
N7 N -1.3221(4) 0.4993(6) 0.6866(2)
N8 N -0.5115(4) -0.3156(6) 0.6877(2)
C1 C -0.0834(10) 0.7644(12) 0.5993(3)
H1 H -0.0456 0.7397 0.5783
C2 C -0.0170(8) 0.7924(12) 0.6281(3)
H2 H 0.0655 0.7934 0.6261
C3 C -0.0687(8) 0.8194(8) 0.6604(3)
C4 C -0.1860(9) 0.8291(11) 0.6605(4)
H3 H -0.2245 0.8545 0.6814
C5 C -0.2520(9) 0.8022(10) 0.6304(3)
H4 H -0.3345 0.8067 0.6320
C6 C 0.0071(7) 0.8389(8) 0.6932(3)
C7 C 0.1310(10) 0.8406(17) 0.6916(5)
H5 H 0.1684 0.8374 0.6692
C8 C 0.1954(12) 0.846(2) 0.7208(4)
H6 H 0.2771 0.8359 0.7184
C9 C 0.0383(15) 0.8705(18) 0.7551(4)
H7 H 0.0040 0.8830 0.7776
C10 C -0.0368(10) 0.8577(14) 0.7258(4)
H8 H -0.1187 0.8622 0.7290
C11 C -0.2301(13) 0.9131(8) 0.5227(3)
H9 H -0.2483 0.9495 0.5446
C12 C -0.2083(11) 0.9836(8) 0.4932(3)
H10 H -0.2133 1.0659 0.4954
C13 C -0.1794(8) 0.9339(8) 0.4608(3)
C14 C -0.1742(10) 0.8104(8) 0.4591(4)
H11 H -0.1548 0.7713 0.4378
C15 C -0.1991(10) 0.7477(9) 0.4906(4)
H12 H -0.1959 0.6651 0.4894
C16 C -0.1616(9) 1.0103(8) 0.4283(3)
C17 C -0.1619(15) 1.1291(9) 0.4302(4)
H13 H -0.1699 1.1671 0.4523
C18 C -0.1502(19) 1.1949(13) 0.3989(6)
H14 H -0.1567 1.2771 0.4010
C19 C -0.1327(18) 1.0378(16) 0.3658(4)
H15 H -0.1251 1.0031 0.3431
C20 C -0.1446(15) 0.9616(10) 0.3946(4)
H16 H -0.1412 0.8796 0.3914
C21 C -0.7543(7) 0.4818(9) 0.6559(2)
H17 H -0.7122 0.4670 0.6348
C22 C -0.8770(7) 0.4844(10) 0.6541(2)
H18 H -0.9162 0.4771 0.6321
C23 C -0.9395(5) 0.4979(8) 0.6856(2)
C24 C -0.8751(7) 0.5168(10) 0.7157(2)
H19 H -0.9139 0.5309 0.7374
C25 C -0.7534(7) 0.5155(10) 0.7147(2)
H20 H -0.7130 0.5271 0.7363
C26 C -1.0718(6) 0.4993(7) 0.6862(3)
C27 C -1.1371(6) 0.5316(8) 0.7154(2)
H21 H -1.0982 0.5541 0.7365
C28 C -1.2593(7) 0.5317(9) 0.7147(2)
H22 H -1.2997 0.5562 0.7352
C29 C -1.2590(7) 0.4694(8) 0.6564(2)
H23 H -1.3000 0.4491 0.6355
C30 C -1.1340(6) 0.4683(7) 0.6560(2)
H24 H -1.0935 0.4465 0.6351
C31 C -0.4712(7) 0.2500(8) 0.6562(2)
H25 H -0.4415 0.2902 0.6363
C32 C -0.4729(7) 0.1278(8) 0.6560(3)
H26 H -0.4460 0.0865 0.6358
C33 C -0.5146(6) 0.0661(7) 0.6856(3)
C34 C -0.5574(7) 0.1331(7) 0.7144(2)
H27 H -0.5867 0.0956 0.7349
C35 C -0.5559(7) 0.2556(7) 0.7122(2)
H28 H -0.5883 0.2983 0.7313
C36 C -0.5142(6) -0.0651(8) 0.6863(3)
C37 C -0.5559(7) -0.1334(8) 0.6572(2)
H29 H -0.5854 -0.0960 0.6367
C38 C -0.5532(6) -0.2533(7) 0.6590(2)
H30 H -0.5817 -0.2959 0.6394
C39 C -0.4728(7) -0.2505(7) 0.7147(2)
H31 H -0.4428 -0.2900 0.7348
C40 C -0.4736(7) -0.1311(8) 0.7154(2)
H32 H -0.4464 -0.0917 0.7358
C41 C -0.4634(7) 0.5333(6) 0.5250(2)
C42 C -0.5113(9) 0.4880(9) 0.5604(5)
H33 H -0.5969 0.4989 0.5597
H34 H -0.4972 0.4029 0.5608
C43 C -0.4697(6) 0.5357(7) 0.5956(2)
Cu1B Cu -0.49983(10) 0.49400(6) 0.43583(5)
Cu1_2 Cu -1.50600(6) 0.49983(10) 0.68583(5)
Cu1_3 Cu -0.50600(6) -0.50017(10) 0.68583(5)
O4C O -0.5124(5) 0.5081(5) 0.7475(2)
N7_2 N -0.3221(4) 0.4993(6) 0.6866(2)
N8_2 N -0.5115(4) 0.6844(6) 0.6877(2)
Cl1 Cl -0.2269(3) 0.7329(4) 0.31200(12)
O5 O -0.2413(15) 0.687(2) 0.2826(3)
O6 O -0.240(3) 0.8498(16) 0.2961(7)
O7 O -0.3247(10) 0.7273(16) 0.3338(4)
O8 O -0.1249(9) 0.7357(16) 0.3312(4)
Cl2 Cl -0.2264(3) 1.2678(4) 1.05942(12)
O9 O -0.2204(15) 1.371(2) 1.0797(6)
O10 O -0.1353(16) 1.2603(15) 1.0381(4)
O11 O -0.2236(14) 1.183(3) 1.0818(5)
O12 O -0.3254(11) 1.2681(11) 1.0371(3)
O13 O 0.0731(16) 0.421(3) 0.5533(7)
O14 O -0.1444(8) 0.5313(8) 0.5546(3)
O15 O -0.4700(8) 0.8614(9) 0.5667(3)
O16 O -0.277(4) 1.236(3) 0.3101(8)
O17 O -0.6184(18) 1.083(2) 0.5730(8)
C44 C -0.516(3) 1.069(4) 0.5549(10)
loop_
_geom_bond_atom_site_label_1
_geom_bond_atom_site_label_2
_geom_bond_site_symmetry_1
_geom_bond_site_symmetry_2
Cu1 O3 1_555 1_555
Cu2 O1 1_555 1_555
Cl1 O5 1_555 1_555
Cl2 O9 1_555 1_555
O1 C43 1_555 1_555
O2 Cu2 1_555 1_555
O3 C43 1_555 1_555
O4 C41 1_555 1_555
O6 Cl1 1_555 1_555
O7 Cl1 1_555 1_555
O8 Cl1 1_555 1_555
O10 Cl2 1_555 1_555
O11 Cl2 1_555 1_555
O12 Cl2 1_555 1_555
O17 C44 1_555 1_555
N1 Cu2 1_555 1_555
N2 Cu2 1_555 1_555
N3 Cu1 1_555 1_555
N4 Cu1 1_555 1_555
N5 C8 1_555 1_555
N6 C18 1_555 1_555
N7 C28 1_555 1_555
N8 C38 1_555 1_555
C1 N1 1_555 1_555
H1 C1 1_555 1_555
C2 C1 1_555 1_555
H2 C2 1_555 1_555
C3 C2 1_555 1_555
C4 C3 1_555 1_555
H3 C4 1_555 1_555
C5 N1 1_555 1_555
H4 C5 1_555 1_555
C6 C3 1_555 1_555
C7 C6 1_555 1_555
H5 C7 1_555 1_555
C8 C7 1_555 1_555
H6 C8 1_555 1_555
C9 N5 1_555 1_555
H7 C9 1_555 1_555
C10 C6 1_555 1_555
H8 C10 1_555 1_555
C11 N2 1_555 1_555
H9 C11 1_555 1_555
C12 C11 1_555 1_555
H10 C12 1_555 1_555
C13 C12 1_555 1_555
C14 C13 1_555 1_555
H11 C14 1_555 1_555
C15 N2 1_555 1_555
H12 C15 1_555 1_555
C16 C13 1_555 1_555
C17 C16 1_555 1_555
H13 C17 1_555 1_555
C18 C17 1_555 1_555
H14 C18 1_555 1_555
C19 N6 1_555 1_555
H15 C19 1_555 1_555
C20 C16 1_555 1_555
H16 C20 1_555 1_555
C21 N3 1_555 1_555
H17 C21 1_555 1_555
C22 C21 1_555 1_555
H18 C22 1_555 1_555
C23 C22 1_555 1_555
C24 C23 1_555 1_555
H19 C24 1_555 1_555
C25 N3 1_555 1_555
H20 C25 1_555 1_555
C26 C23 1_555 1_555
C27 C26 1_555 1_555
H21 C27 1_555 1_555
C28 C27 1_555 1_555
H22 C28 1_555 1_555
C29 N7 1_555 1_555
H23 C29 1_555 1_555
C30 C26 1_555 1_555
H24 C30 1_555 1_555
C31 N4 1_555 1_555
H25 C31 1_555 1_555
C32 C31 1_555 1_555
H26 C32 1_555 1_555
C33 C32 1_555 1_555
C34 C33 1_555 1_555
H27 C34 1_555 1_555
C35 N4 1_555 1_555
H28 C35 1_555 1_555
C36 C33 1_555 1_555
C37 C36 1_555 1_555
H29 C37 1_555 1_555
C38 C37 1_555 1_555
H30 C38 1_555 1_555
C39 N8 1_555 1_555
H31 C39 1_555 1_555
C40 C36 1_555 1_555
H32 C40 1_555 1_555
C41 O2 1_555 1_555
C42 C41 1_555 1_555
H33 C42 1_555 1_555
H34 C42 1_555 1_555
C43 C42 1_555 1_555
Cu1B O4 1_555 1_555
Cu1_2 N7 1_555 1_555
Cu1_3 N8 1_555 1_555
O4C Cu1 1_555 1_555
N7_2 Cu1 1_555 1_555
N8_2 Cu1 1_555 1_555
C4 C5 1_555 1_555
C9 C10 1_555 1_555
C14 C15 1_555 1_555
C19 C20 1_555 1_555
C24 C25 1_555 1_555
C29 C30 1_555 1_555
C34 C35 1_555 1_555
C39 C40 1_555 1_555

#END
