
#######################################################################
#
#                 Cambridge Crystallographic Data Centre
#                                CCDC 
#
#######################################################################
#
# If this CIF has been generated from an entry in the Cambridge 
# Structural Database, then it will include bibliographic, chemical, 
# crystal, experimental, refinement or atomic coordinate data resulting 
# from the CCDC's data processing and validation procedures.
#
#######################################################################

data_SEYNEP
_symmetry_cell_setting           orthorhombic
_symmetry_space_group_name_H-M   'P b c n'
_symmetry_Int_Tables_number      60
_space_group_name_Hall           '-P 2n 2ab'
loop_
_symmetry_equiv_pos_site_id
_symmetry_equiv_pos_as_xyz
1 x,y,z
2 1/2-x,1/2-y,1/2+z
3 1/2+x,1/2-y,-z
4 -x,y,1/2-z
5 -x,-y,-z
6 1/2+x,1/2+y,1/2-z
7 1/2-x,1/2+y,z
8 x,-y,1/2+z
_cell_length_a                   17.166(2)
_cell_length_b                   11.261(2)
_cell_length_c                   28.631(2)
_cell_angle_alpha                90
_cell_angle_beta                 90
_cell_angle_gamma                90
_cell_volume                     5534.55
loop_
_atom_site_label
_atom_site_type_symbol
_atom_site_fract_x
_atom_site_fract_y
_atom_site_fract_z
Pt1 Pt -0.5000 0.1049(1) 0.2500
Pt2 Pt -0.2617 0.3112(1) 0.1967
Ag1 Ag -0.3461(1) 0.0749(2) 0.2072(1)
S1 S -0.4929(3) -0.0204(4) 0.3143(2)
S2 S -0.4882(3) 0.2300(4) 0.3137(2)
S3 S -0.3122(2) 0.1986(4) 0.1356(2)
S4 S -0.3676(2) 0.4038(4) 0.2315(2)
S5 S -0.2091(2) 0.4182(4) 0.2581(2)
S6 S -0.1537(2) 0.2266(5) 0.1620(2)
N1 N -0.4680(7) 0.1037(12) 0.3935(4)
N2 N -0.1946(8) 0.1023(15) 0.0858(6)
N3 N -0.3208(7) 0.5291(12) 0.3073(5)
C1 C -0.4807(7) 0.1039(15) 0.3466(6)
C2 C -0.4610(11) -0.0061(16) 0.4199(6)
C3 C -0.5448(11) -0.0441(19) 0.4408(7)
C4 C -0.4676(12) 0.2180(18) 0.4196(7)
C5 C -0.3852(13) 0.2576(22) 0.4308(10)
C6 C -0.2155(9) 0.1600(14) 0.1228(6)
C7 C -0.2537(13) 0.0680(20) 0.0412(12)
C8 C -0.2600(15) -0.0500(33) 0.0547(12)
C9 C -0.1047(11) 0.0928(18) 0.0720(8)
C10 C -0.0770(12) -0.0094(20) 0.0984(9)
C11 C -0.3043(8) 0.4656(14) 0.2700(6)
C12 C -0.2593(10) 0.5804(19) 0.3380(8)
C13 C -0.2377(13) 0.4882(24) 0.3760(9)
C14 C -0.4064(10) 0.5547(16) 0.3186(7)
C15 C -0.4264(11) 0.6775(19) 0.3005(9)
S1C S -0.5071(3) -0.0204(4) 0.1857(2)
S2C S -0.5118(3) 0.2300(4) 0.1863(2)
N1C N -0.5320(7) 0.1037(12) 0.1065(4)
C1C C -0.5193(7) 0.1039(15) 0.1534(6)
C2C C -0.5390(11) -0.0061(16) 0.0801(6)
C3C C -0.4552(11) -0.0441(19) 0.0592(7)
C4C C -0.5324(12) 0.2180(18) 0.0804(7)
C5C C -0.6148(13) 0.2576(22) 0.0692(10)
Ag1C Ag -0.6539(1) 0.0749(2) 0.2928(1)
S3C S -0.6878(2) 0.1986(4) 0.3644(2)
S6C S -0.8463(2) 0.2266(5) 0.3380(2)
N2C N -0.8054(8) 0.1023(15) 0.4142(6)
C6C C -0.7845(9) 0.1600(14) 0.3772(6)
C7C C -0.7463(13) 0.0680(20) 0.4588(12)
C8C C -0.7400(15) -0.0500(33) 0.4453(12)
C9C C -0.8953(11) 0.0928(18) 0.4280(8)
C10C C -0.9230(12) -0.0094(20) 0.4016(9)
S5E S -0.7091(2) -0.0818(4) 0.2419(2)
Pt2C Pt -0.7383 0.3112(1) 0.3033
S5F S -0.2909(2) -0.0818(4) 0.2581(2)
S4C S -0.6324(2) 0.4038(4) 0.2685(2)
S5C S -0.7909(2) 0.4182(4) 0.2419(2)
Ag1F Ag -0.1539(1) 0.5749(2) 0.2072(1)
C11C C -0.6957(8) 0.4656(14) 0.2300(6)
Ag1E Ag -0.8461(1) 0.5749(2) 0.2928(1)
N3C N -0.6792(7) 0.5291(12) 0.1927(5)
C12C C -0.7407(10) 0.5804(19) 0.1620(8)
C14C C -0.5936(10) 0.5547(16) 0.1814(7)
C13C C -0.7623(13) 0.4882(24) 0.1240(9)
C15C C -0.5736(11) 0.6775(19) 0.1995(9)
Cl1 Cl -0.1217(3) -0.1904(5) -0.0425(2)
O1 O -0.0917(12) -0.2524(23) -0.0072(7)
O2 O -0.1175(14) -0.0666(15) -0.0384(9)
O3 O -0.0857(16) -0.2164(21) -0.0853(7)
O4 O -0.1970(13) -0.2158(26) -0.0483(11)
loop_
_geom_bond_atom_site_label_1
_geom_bond_atom_site_label_2
_geom_bond_site_symmetry_1
_geom_bond_site_symmetry_2
Pt1 Ag1 1_555 1_555
Pt2 Ag1 1_555 1_555
Ag1 S3 1_555 1_555
S1 Pt1 1_555 1_555
S2 Pt1 1_555 1_555
S3 Pt2 1_555 1_555
S4 Pt2 1_555 1_555
S5 Pt2 1_555 1_555
S6 Pt2 1_555 1_555
N1 C1 1_555 1_555
N2 C6 1_555 1_555
N3 C11 1_555 1_555
C1 S1 1_555 1_555
C2 N1 1_555 1_555
C3 C2 1_555 1_555
C4 N1 1_555 1_555
C5 C4 1_555 1_555
C6 S3 1_555 1_555
C7 N2 1_555 1_555
C8 C7 1_555 1_555
C9 N2 1_555 1_555
C10 C9 1_555 1_555
C11 S4 1_555 1_555
C12 N3 1_555 1_555
C13 C12 1_555 1_555
C14 N3 1_555 1_555
C15 C14 1_555 1_555
Cl1 O1 1_555 1_555
O2 Cl1 1_555 1_555
O3 Cl1 1_555 1_555
O4 Cl1 1_555 1_555
S1C Pt1 1_555 1_555
S2C Pt1 1_555 1_555
N1C C1C 1_555 1_555
C1C S1C 1_555 1_555
C2C N1C 1_555 1_555
C3C C2C 1_555 1_555
C4C N1C 1_555 1_555
C5C C4C 1_555 1_555
Ag1C Pt1 1_555 1_555
S3C Ag1C 1_555 1_555
S6C C6C 1_555 1_555
N2C C6C 1_555 1_555
C6C S3C 1_555 1_555
C7C N2C 1_555 1_555
C8C C7C 1_555 1_555
C9C N2C 1_555 1_555
C10C C9C 1_555 1_555
S5E Ag1C 1_555 1_555
Pt2C Ag1C 1_555 1_555
S5F Ag1 1_555 1_555
S4C Pt2C 1_555 1_555
S5C Pt2C 1_555 1_555
Ag1F S5 1_555 1_555
C11C S4C 1_555 1_555
Ag1E S5C 1_555 1_555
N3C C11C 1_555 1_555
C12C N3C 1_555 1_555
C14C N3C 1_555 1_555
C13C C12C 1_555 1_555
C15C C14C 1_555 1_555
S2 C1 1_555 1_555
S5 C11 1_555 1_555
S6 C6 1_555 1_555
S2C C1C 1_555 1_555
S3C Pt2C 1_555 1_555
S6C Pt2C 1_555 1_555
S5C C11C 1_555 1_555

#END
