
#######################################################################
#
#                 Cambridge Crystallographic Data Centre
#                                CCDC 
#
#######################################################################
#
# If this CIF has been generated from an entry in the Cambridge 
# Structural Database, then it will include bibliographic, chemical, 
# crystal, experimental, refinement or atomic coordinate data resulting 
# from the CCDC's data processing and validation procedures.
#
#######################################################################

data_SEYQAO
_symmetry_cell_setting           triclinic
_symmetry_space_group_name_H-M   'P -1'
_symmetry_Int_Tables_number      2
_space_group_name_Hall           '-P 1'
loop_
_symmetry_equiv_pos_site_id
_symmetry_equiv_pos_as_xyz
1 x,y,z
2 -x,-y,-z
_cell_length_a                   9.261(1)
_cell_length_b                   9.455(1)
_cell_length_c                   12.487(1)
_cell_angle_alpha                83.93(1)
_cell_angle_beta                 88.01(1)
_cell_angle_gamma                61.03(1)
_cell_volume                     951.049
loop_
_atom_site_label
_atom_site_type_symbol
_atom_site_fract_x
_atom_site_fract_y
_atom_site_fract_z
Zn1 Zn 0.5730(1) -0.1446(1) -0.2376(1)
Zn2 Zn 0.2432(1) 0.5105(1) -0.2418(1)
O1 O 0.3918(3) 0.0603(2) -0.3275(2)
O2 O 0.5574(2) 0.0353(2) -0.1493(2)
O3 O 0.7713(2) -0.3357(2) -0.1501(2)
O4 O 0.7710(2) -0.1502(2) -0.3286(2)
O5 O 0.5418(3) -0.2980(2) -0.3323(2)
O6 O 0.3955(3) -0.1833(3) -0.1493(2)
O7 O 0.2523(3) 0.3290(2) -0.3272(2)
O8 O 0.4082(3) -0.4397(3) -0.3342(2)
O9 O 1.0447(2) -0.4715(2) -0.1492(2)
O10 O 0.4264(3) 0.3049(2) -0.1520(2)
O11 O 1.0450(2) -0.2954(2) -0.3340(2)
O12 O 0.2650(3) -0.3282(3) -0.1475(2)
C1 C 0.4443(3) -0.3452(3) -0.2950(2)
C2 C 0.3603(3) -0.2791(3) -0.1869(2)
C3 C 0.9086(3) -0.3650(3) -0.1882(2)
C4 C 0.9089(3) -0.2610(3) -0.2936(2)
C5 C 0.3575(3) 0.1898(3) -0.2898(2)
C6 C 0.4561(3) 0.1761(3) -0.1870(2)
O8_2 O 0.4082(3) 0.5603(3) -0.3342(2)
O9_2 O 0.0447(2) 0.5285(2) -0.1492(2)
O11_2 O 0.0450(2) 0.7046(2) -0.3340(2)
O12_2 O 0.2650(3) 0.6718(3) -0.1475(2)
Zn2_2 Zn 0.2432(1) -0.4895(1) -0.2418(1)
Zn2_3 Zn 1.2432(1) -0.4895(1) -0.2418(1)
O13 O 0.7953(3) -0.0041(3) 0.4724(2)
O14 O 0.1786(4) -0.5377(3) -0.5443(2)
O15 O 0.2055(4) 0.0577(4) -0.0175(3)
N1 N -0.1064(3) 0.3145(3) -0.0536(2)
N2 N -0.1312(3) 0.2251(3) -0.4350(2)
C7 C -0.1915(4) 0.2160(4) -0.3242(2)
C8 C -0.1069(4) 0.2591(4) -0.2439(2)
C9 C -0.1851(4) 0.2722(4) -0.1353(2)
loop_
_geom_bond_atom_site_label_1
_geom_bond_atom_site_label_2
_geom_bond_site_symmetry_1
_geom_bond_site_symmetry_2
Zn1 O1 1_555 1_555
Zn2 O7 1_555 1_555
O1 C5 1_555 1_555
O2 Zn1 1_555 1_555
O3 Zn1 1_555 1_555
O4 Zn1 1_555 1_555
O5 Zn1 1_555 1_555
O6 Zn1 1_555 1_555
O7 C5 1_555 1_555
O8 C1 1_555 1_555
O9 C3 1_555 1_555
O10 Zn2 1_555 1_555
O11 C4 1_555 1_555
O12 C2 1_555 1_555
C1 O5 1_555 1_555
C2 O6 1_555 1_555
C3 O3 1_555 1_555
C4 O4 1_555 1_555
C5 C6 1_555 1_555
C6 O2 1_555 1_555
N1 C9 1_555 1_555
N2 C7 1_555 1_555
C7 C8 1_555 1_555
C8 C9 1_555 1_555
O8_2 Zn2 1_555 1_555
O9_2 Zn2 1_555 1_555
O11_2 Zn2 1_555 1_555
O12_2 Zn2 1_555 1_555
Zn2_2 O8 1_555 1_555
Zn2_3 O9 1_555 1_555
O10 C6 1_555 1_555
O11 Zn2_3 1_555 1_555
O12 Zn2_2 1_555 1_555
C1 C2 1_555 1_555
C3 C4 1_555 1_555

#END
