
#######################################################################
#
#                 Cambridge Crystallographic Data Centre
#                                CCDC 
#
#######################################################################
#
# If this CIF has been generated from an entry in the Cambridge 
# Structural Database, then it will include bibliographic, chemical, 
# crystal, experimental, refinement or atomic coordinate data resulting 
# from the CCDC's data processing and validation procedures.
#
#######################################################################

data_SEYQUJ
_symmetry_cell_setting           rhombohedral
_symmetry_space_group_name_H-M   'R -3 c'
_symmetry_Int_Tables_number      167
_space_group_name_Hall           '-R 3 2"c'
loop_
_symmetry_equiv_pos_site_id
_symmetry_equiv_pos_as_xyz
1 x,y,z
2 -y,x-y,z
3 -x+y,-x,z
4 y,x,1/2-z
5 2/3+x,1/3+y,1/3+z
6 2/3-y,1/3+x-y,1/3+z
7 2/3-x+y,1/3-x,1/3+z
8 2/3+y,1/3+x,5/6-z
9 1/3+x,2/3+y,2/3+z
10 1/3+y,2/3+x,1/6-z
11 x-y,-y,1/2-z
12 -x,-x+y,1/2-z
13 1/3-y,2/3+x-y,2/3+z
14 1/3-x+y,2/3-x,2/3+z
15 1/3+x-y,2/3-y,1/6-z
16 1/3-x,2/3-x+y,1/6-z
17 2/3+x-y,1/3-y,5/6-z
18 2/3-x,1/3-x+y,5/6-z
19 -x,-y,-z
20 y,-x+y,-z
21 x-y,x,-z
22 -y,-x,1/2+z
23 1/3-x,2/3-y,2/3-z
24 1/3+y,2/3-x+y,2/3-z
25 1/3+x-y,2/3+x,2/3-z
26 1/3-y,2/3-x,1/6+z
27 2/3-x,1/3-y,1/3-z
28 2/3-y,1/3-x,5/6+z
29 -x+y,y,1/2+z
30 x,x-y,1/2+z
31 2/3+y,1/3-x+y,1/3-z
32 2/3+x-y,1/3+x,1/3-z
33 2/3-x+y,1/3+y,5/6+z
34 2/3+x,1/3+x-y,5/6+z
35 1/3-x+y,2/3+y,1/6+z
36 1/3+x,2/3+x-y,1/6+z
_cell_length_a                   14.1806(3)
_cell_length_b                   14.1806(3)
_cell_length_c                   50.045(1)
_cell_angle_alpha                90
_cell_angle_beta                 90
_cell_angle_gamma                120.00
_cell_volume                     8715.26
loop_
_atom_site_label
_atom_site_type_symbol
_atom_site_fract_x
_atom_site_fract_y
_atom_site_fract_z
K1 K 0.3333 0.6667 0.03500(2)
B1 B 0.3333 0.6667 -0.03895(12)
H1 H 0.3333 0.6667 -0.0589
N1 N 0.4292(2) 0.6540(2) -0.02995(5)
C1 C 0.5580(2) 0.6626(2) -0.00534(6)
N2 N 0.4793(2) 0.6893(2) -0.00586(5)
C2 C 0.5574(3) 0.6100(3) -0.02907(6)
H2 H 0.6041 0.5826 -0.0338
N3 N 0.9346(3) 0.8255(2) 0.09529(5)
C3 C 0.4761(3) 0.6066(3) -0.04389(6)
H3 H 0.4553 0.5758 -0.0612
C4 C 0.6339(2) 0.6952(2) 0.01721(6)
C5 C 0.6537(3) 0.7824(3) 0.03373(6)
H4 H 0.6133 0.8186 0.0311
C6 C 0.7309(3) 0.8177(3) 0.05395(7)
H5 H 0.7448 0.8785 0.0647
C7 C 0.7880(3) 0.7619(3) 0.05819(6)
C8 C 0.7681(3) 0.6740(3) 0.04223(7)
H6 H 0.8066 0.6361 0.0452
C9 C 0.6917(3) 0.6418(3) 0.02199(6)
H7 H 0.6785 0.5816 0.0111
C10 C 0.8697(3) 0.7974(3) 0.07899(7)
K1I K 1.0000 1.0000 0.13167(2)
K1I_2 K 0.0000 1.0000 0.13167(2)
K1I_3 K 0.0000 -0.0000 0.13167(2)
N1A N 0.3460(2) 0.7752(3) -0.02995(5)
N1B N 0.2248(3) 0.5708(2) -0.02995(5)
C1A C 0.3374(2) 0.8954(3) -0.00534(6)
C1B C 0.1046(3) 0.4420(2) -0.00534(6)
N2A N 0.3107(2) 0.7900(3) -0.00586(5)
N2B N 0.2100(3) 0.5207(2) -0.00586(5)
C2A C 0.3900(3) 0.9474(4) -0.02907(6)
C2B C 0.0526(4) 0.4426(3) -0.02907(6)
H2A H 0.4174 1.0215 -0.0338
H2B H -0.0215 0.3959 -0.0338
N3A N 0.1745(2) 1.1091(4) 0.09529(5)
N3B N -0.1091(4) 0.0654(3) 0.09529(5)
N3I N 0.1588(2) 0.6013(3) 0.07138(5)
N3N N 0.4424(4) 0.8412(2) 0.07138(5)
N3O N 0.3987(3) 0.5576(4) 0.07138(5)
C3A C 0.3934(3) 0.8695(4) -0.04389(6)
C3B C 0.1305(4) 0.5239(3) -0.04389(6)
H3A H 0.4242 0.8795 -0.0612
H3B H 0.1205 0.5447 -0.0612
C4A C 0.3048(2) 0.9387(3) 0.01721(6)
C4B C 0.0613(3) 0.3661(2) 0.01721(6)
C5A C 0.2176(3) 0.8713(4) 0.03373(6)
C5B C 0.1287(4) 0.3463(3) 0.03373(6)
H4A H 0.1814 0.7947 0.0311
H4B H 0.2053 0.3867 0.0311
C6A C 0.1823(3) 0.9132(4) 0.05395(7)
C6B C 0.0868(4) 0.2691(3) 0.05395(7)
H5A H 0.1215 0.8663 0.0647
H5B H 0.1337 0.2552 0.0647
C7A C 0.2381(3) 1.0261(4) 0.05819(6)
C7B C -0.0261(4) 0.2120(3) 0.05819(6)
C8A C 0.3260(3) 1.0941(4) 0.04223(7)
C8B C -0.0941(4) 0.2319(3) 0.04223(7)
H6A H 0.3639 1.1705 0.0452
H6B H -0.1705 0.1934 0.0452
C9A C 0.3582(3) 1.0499(4) 0.02199(6)
C9B C -0.0499(4) 0.3083(3) 0.02199(6)
H7A H 0.4184 1.0969 0.0111
H7B H -0.0969 0.3215 0.0111
C10A C 0.2026(3) 1.0723(4) 0.07899(7)
C10B C -0.0723(4) 0.1303(3) 0.07899(7)
loop_
_geom_bond_atom_site_label_1
_geom_bond_atom_site_label_2
_geom_bond_site_symmetry_1
_geom_bond_site_symmetry_2
K1 N2 1_555 1_555
B1 H1 1_555 1_555
N1 B1 1_555 1_555
C1 N2 1_555 1_555
N2 N1 1_555 1_555
C2 C1 1_555 1_555
H2 C2 1_555 1_555
N3 C10 1_555 1_555
C3 N1 1_555 1_555
H3 C3 1_555 1_555
C4 C1 1_555 1_555
C5 C4 1_555 1_555
H4 C5 1_555 1_555
C6 C5 1_555 1_555
H5 C6 1_555 1_555
C7 C6 1_555 1_555
C8 C7 1_555 1_555
H6 C8 1_555 1_555
C9 C4 1_555 1_555
H7 C9 1_555 1_555
C10 C7 1_555 1_555
K1I N3 1_555 1_555
K1I_2 N3A 1_555 1_555
K1I_3 N3B 1_555 1_555
N1A B1 1_555 1_555
N1B B1 1_555 1_555
C1A N2A 1_555 1_555
C1B N2B 1_555 1_555
N2A K1 1_555 1_555
N2B K1 1_555 1_555
C2A C1A 1_555 1_555
C2B C1B 1_555 1_555
H2A C2A 1_555 1_555
H2B C2B 1_555 1_555
N3A C10A 1_555 1_555
N3B C10B 1_555 1_555
N3I K1 1_555 1_555
N3N K1 1_555 1_555
N3O K1 1_555 1_555
C3A N1A 1_555 1_555
C3B N1B 1_555 1_555
H3A C3A 1_555 1_555
H3B C3B 1_555 1_555
C4A C1A 1_555 1_555
C4B C1B 1_555 1_555
C5A C4A 1_555 1_555
C5B C4B 1_555 1_555
H4A C5A 1_555 1_555
H4B C5B 1_555 1_555
C6A C5A 1_555 1_555
C6B C5B 1_555 1_555
H5A C6A 1_555 1_555
H5B C6B 1_555 1_555
C7A C6A 1_555 1_555
C7B C6B 1_555 1_555
C8A C7A 1_555 1_555
C8B C7B 1_555 1_555
H6A C8A 1_555 1_555
H6B C8B 1_555 1_555
C9A C4A 1_555 1_555
C9B C4B 1_555 1_555
H7A C9A 1_555 1_555
H7B C9B 1_555 1_555
C10A C7A 1_555 1_555
C10B C7B 1_555 1_555
C2 C3 1_555 1_555
C8 C9 1_555 1_555
N1A N2A 1_555 1_555
N1B N2B 1_555 1_555
C2A C3A 1_555 1_555
C2B C3B 1_555 1_555
C8A C9A 1_555 1_555
C8B C9B 1_555 1_555

#END
