
#######################################################################
#
#                 Cambridge Crystallographic Data Centre
#                                CCDC 
#
#######################################################################
#
# If this CIF has been generated from an entry in the Cambridge 
# Structural Database, then it will include bibliographic, chemical, 
# crystal, experimental, refinement or atomic coordinate data resulting 
# from the CCDC's data processing and validation procedures.
#
#######################################################################

data_SEYVAU
_symmetry_cell_setting           monoclinic
_symmetry_space_group_name_H-M   'P 21/c'
_symmetry_Int_Tables_number      14
_space_group_name_Hall           '-P 2ybc'
loop_
_symmetry_equiv_pos_site_id
_symmetry_equiv_pos_as_xyz
1 x,y,z
2 -x,1/2+y,1/2-z
3 -x,-y,-z
4 x,1/2-y,1/2+z
_cell_length_a                   8.8134(17)
_cell_length_b                   13.460(3)
_cell_length_c                   5.2446(10)
_cell_angle_alpha                90
_cell_angle_beta                 106.399(2)
_cell_angle_gamma                90
_cell_volume                     596.848
loop_
_atom_site_label
_atom_site_type_symbol
_atom_site_fract_x
_atom_site_fract_y
_atom_site_fract_z
Ag1 Ag 0.27626(2) 0.685240(18) 0.18581(5)
O1 O 0.5145(2) 0.65673(18) 0.4726(4)
O2 O 0.3595(2) 0.62492(15) 0.7316(4)
N1 N 0.7858(2) 0.61061(15) 0.8751(4)
N2 N 1.0364(2) 0.65146(17) 0.9644(4)
C1 C 0.4914(3) 0.62951(18) 0.6862(5)
C2 C 0.6299(3) 0.5970(2) 0.9146(6)
H1 H 0.6264 0.6337 1.0721
H2 H 0.6167 0.5272 0.9490
C3 C 0.9069(3) 0.65791(19) 1.0427(5)
H3 H 0.9007 0.6911 1.1949
C4 C 0.9954(3) 0.5955(2) 0.7360(5)
H4 H 1.0633 0.5781 0.6360
C5 C 0.8409(3) 0.56963(19) 0.6789(5)
H5 H 0.7837 0.5317 0.5356
Ag1_2 Ag 1.27626(2) 0.685240(18) 1.18581(5)
N2_2 N 0.0364(2) 0.65146(17) -0.0356(4)
loop_
_geom_bond_atom_site_label_1
_geom_bond_atom_site_label_2
_geom_bond_site_symmetry_1
_geom_bond_site_symmetry_2
Ag1 O1 1_555 1_555
O1 C1 1_555 1_555
O2 C1 1_555 1_555
N1 C2 1_555 1_555
N2 C3 1_555 1_555
C1 C2 1_555 1_555
C2 H1 1_555 1_555
H2 C2 1_555 1_555
C3 N1 1_555 1_555
H3 C3 1_555 1_555
C4 N2 1_555 1_555
H4 C4 1_555 1_555
C5 N1 1_555 1_555
H5 C5 1_555 1_555
Ag1_2 N2 1_555 1_555
N2_2 Ag1 1_555 1_555
C4 C5 1_555 1_555

#END
