
#######################################################################
#
#                 Cambridge Crystallographic Data Centre
#                                CCDC 
#
#######################################################################
#
# If this CIF has been generated from an entry in the Cambridge 
# Structural Database, then it will include bibliographic, chemical, 
# crystal, experimental, refinement or atomic coordinate data resulting 
# from the CCDC's data processing and validation procedures.
#
#######################################################################

data_SEYVEY
_symmetry_cell_setting           monoclinic
_symmetry_space_group_name_H-M   'P 21/n'
_symmetry_Int_Tables_number      14
_space_group_name_Hall           '-P 2yn'
loop_
_symmetry_equiv_pos_site_id
_symmetry_equiv_pos_as_xyz
1 x,y,z
2 1/2-x,1/2+y,1/2-z
3 -x,-y,-z
4 1/2+x,1/2-y,1/2+z
_cell_length_a                   8.4289(16)
_cell_length_b                   5.1470(10)
_cell_length_c                   12.466(2)
_cell_angle_alpha                90
_cell_angle_beta                 92.667(2)
_cell_angle_gamma                90
_cell_volume                     540.234
loop_
_atom_site_label
_atom_site_type_symbol
_atom_site_fract_x
_atom_site_fract_y
_atom_site_fract_z
Cd1 Cd 1.0000 0.0000 1.0000
N1 N 1.4465(2) -0.0107(3) 0.83260(16)
N2 N 1.2301(2) 0.0773(4) 0.91737(15)
O1 O 1.55085(19) 0.2313(3) 0.65010(12)
O2 O 1.63164(17) -0.1473(3) 0.58405(12)
C1 C 1.5784(3) -0.0066(4) 0.6553(2)
C2 C 1.5544(2) -0.1425(4) 0.76291(17)
H1 H 1.5144 -0.3163 0.7486
H2 H 1.6570 -0.1596 0.8009
C3 C 1.2978(2) -0.0844(5) 0.85150(18)
H3 H 1.2487 -0.2312 0.8219
C4 C 1.3426(3) 0.2646(5) 0.94119(17)
H4 H 1.3290 0.4062 0.9862
C5 C 1.4764(3) 0.2113(4) 0.88910(18)
H5 H 1.5699 0.3074 0.8915
Cd1C Cd 1.5000 0.5000 0.5000
Cd1C_2 Cd 1.5000 -0.5000 0.5000
Cd1C_3 Cd 0.5000 -0.5000 1.5000
Cd1C_4 Cd 0.5000 0.5000 1.5000
N1B N 0.5535(2) 0.0107(3) 1.16740(16)
N2B N 0.7699(2) -0.0773(4) 1.08263(15)
O1B O 0.44915(19) -0.2313(3) 1.34990(12)
O1C O 1.05085(19) 0.2687(3) 1.15010(12)
O1A O 0.94915(19) -0.2687(3) 0.84990(12)
O2B O 0.36836(17) 0.1473(3) 1.41595(12)
O2C O 1.13164(17) -0.3527(3) 1.08405(12)
O2A O 0.86836(17) 0.3527(3) 0.91595(12)
C1B C 0.4216(3) 0.0066(4) 1.3447(2)
C2B C 0.4456(2) 0.1425(4) 1.23709(17)
H1B H 0.4856 0.3163 1.2514
H2B H 0.3430 0.1596 1.1991
C3B C 0.7022(2) 0.0844(5) 1.14850(18)
H3B H 0.7513 0.2312 1.1781
C4B C 0.6574(3) -0.2646(5) 1.05881(17)
H4B H 0.6710 -0.4062 1.0138
C5B C 0.5236(3) -0.2113(4) 1.11090(18)
H5B H 0.4301 -0.3074 1.1085
loop_
_geom_bond_atom_site_label_1
_geom_bond_atom_site_label_2
_geom_bond_site_symmetry_1
_geom_bond_site_symmetry_2
Cd1 N2 1_555 1_555
N1 C2 1_555 1_555
N2 C3 1_555 1_555
O1 C1 1_555 1_555
O2 C1 1_555 1_555
C1 C2 1_555 1_555
C2 H1 1_555 1_555
H2 C2 1_555 1_555
C3 N1 1_555 1_555
H3 C3 1_555 1_555
C4 N2 1_555 1_555
H4 C4 1_555 1_555
C5 N1 1_555 1_555
H5 C5 1_555 1_555
Cd1C O1 1_555 1_555
Cd1C_2 O2 1_555 1_555
Cd1C_3 O1B 1_555 1_555
Cd1C_4 O2B 1_555 1_555
N1B C2B 1_555 1_555
N2B Cd1 1_555 1_555
O1B C1B 1_555 1_555
O1C Cd1 1_555 1_555
O1A Cd1 1_555 1_555
O2B C1B 1_555 1_555
O2C Cd1 1_555 1_555
O2A Cd1 1_555 1_555
C1B C2B 1_555 1_555
C2B H1B 1_555 1_555
H2B C2B 1_555 1_555
C3B N1B 1_555 1_555
H3B C3B 1_555 1_555
C4B N2B 1_555 1_555
H4B C4B 1_555 1_555
C5B N1B 1_555 1_555
H5B C5B 1_555 1_555
C4 C5 1_555 1_555
N2B C3B 1_555 1_555
C4B C5B 1_555 1_555

#END
