
#######################################################################
#
#                 Cambridge Crystallographic Data Centre
#                                CCDC 
#
#######################################################################
#
# If this CIF has been generated from an entry in the Cambridge 
# Structural Database, then it will include bibliographic, chemical, 
# crystal, experimental, refinement or atomic coordinate data resulting 
# from the CCDC's data processing and validation procedures.
#
#######################################################################

data_SEYVIC
_symmetry_cell_setting           monoclinic
_symmetry_space_group_name_H-M   'C c'
_symmetry_Int_Tables_number      9
_space_group_name_Hall           'C -2yc'
loop_
_symmetry_equiv_pos_site_id
_symmetry_equiv_pos_as_xyz
1 x,y,z
2 x,-y,1/2+z
3 1/2+x,1/2+y,z
4 1/2+x,1/2-y,1/2+z
_cell_length_a                   9.005(5)
_cell_length_b                   16.512(9)
_cell_length_c                   9.172(5)
_cell_angle_alpha                90
_cell_angle_beta                 117.276(7)
_cell_angle_gamma                90
_cell_volume                     1212.15
loop_
_atom_site_label
_atom_site_type_symbol
_atom_site_fract_x
_atom_site_fract_y
_atom_site_fract_z
Zn1 Zn 0.12559(5) 0.10875(3) 0.07953(6)
N1 N -0.1399(5) 0.2826(3) 0.1872(5)
N2 N 0.0292(5) 0.1987(3) 0.1536(5)
N3 N 0.6151(5) 0.0745(3) 0.4458(5)
N4 N 0.3503(5) 0.0848(3) 0.2691(6)
O1 O -0.3838(5) 0.3646(2) 0.3700(5)
O2 O -0.1558(6) 0.2891(3) 0.4796(6)
O3 O 1.0291(4) -0.0012(2) 0.5704(5)
O4 O 0.7824(5) -0.0515(2) 0.4038(6)
C1 C -0.2689(6) 0.3223(3) 0.3661(6)
C2 C -0.2874(6) 0.3152(3) 0.1918(6)
H1 H -0.3110 0.3684 0.1413
H2 H -0.3821 0.2805 0.1276
C3 C -0.1233(7) 0.2101(4) 0.1336(7)
H3 H -0.2088 0.1722 0.0878
C4 C 0.1131(6) 0.2696(3) 0.2206(7)
H4 H 0.2239 0.2802 0.2466
C5 C 0.0105(7) 0.3209(3) 0.2426(8)
H5 H 0.0364 0.3727 0.2870
C6 C 0.8724(6) 0.0026(3) 0.4921(6)
C7 C 0.7957(6) 0.0800(3) 0.5178(7)
H6 H 0.8409 0.0906 0.6344
H7 H 0.8257 0.1251 0.4688
C8 C 0.5028(6) 0.1078(3) 0.3062(6)
H8 H 0.5294 0.1430 0.2426
C9 C 0.3657(6) 0.0344(3) 0.3944(7)
H9 H 0.2776 0.0095 0.4033
C10 C 0.5276(7) 0.0266(4) 0.5016(7)
H10 H 0.5720 -0.0051 0.5958
Zn1C Zn -0.37441(5) 0.39125(3) 0.57953(6)
Zn1A Zn 1.12559(5) -0.10875(3) 0.57953(6)
O1C O 0.1162(5) 0.1354(2) -0.1300(5)
O3A O 0.0291(4) 0.0012(2) 0.0704(5)
loop_
_geom_bond_atom_site_label_1
_geom_bond_atom_site_label_2
_geom_bond_site_symmetry_1
_geom_bond_site_symmetry_2
Zn1 N2 1_555 1_555
N1 C2 1_555 1_555
N2 C3 1_555 1_555
N3 C7 1_555 1_555
N4 Zn1 1_555 1_555
O1 C1 1_555 1_555
O2 C1 1_555 1_555
O3 C6 1_555 1_555
O4 C6 1_555 1_555
C1 C2 1_555 1_555
C2 H1 1_555 1_555
H2 C2 1_555 1_555
C3 N1 1_555 1_555
H3 C3 1_555 1_555
C4 N2 1_555 1_555
H4 C4 1_555 1_555
C5 N1 1_555 1_555
H5 C5 1_555 1_555
C6 C7 1_555 1_555
C7 H6 1_555 1_555
H7 C7 1_555 1_555
C8 N3 1_555 1_555
H8 C8 1_555 1_555
C9 N4 1_555 1_555
H9 C9 1_555 1_555
C10 N3 1_555 1_555
H10 C10 1_555 1_555
Zn1C O1 1_555 1_555
Zn1A O3 1_555 1_555
O1C Zn1 1_555 1_555
O3A Zn1 1_555 1_555
N4 C8 1_555 1_555
C4 C5 1_555 1_555
C9 C10 1_555 1_555

#END
