
#######################################################################
#
#                 Cambridge Crystallographic Data Centre
#                                CCDC 
#
#######################################################################
#
# If this CIF has been generated from an entry in the Cambridge 
# Structural Database, then it will include bibliographic, chemical, 
# crystal, experimental, refinement or atomic coordinate data resulting 
# from the CCDC's data processing and validation procedures.
#
#######################################################################

data_SEYVAU01
_symmetry_cell_setting           monoclinic
_symmetry_space_group_name_H-M   'P 21/c'
_symmetry_Int_Tables_number      14
_space_group_name_Hall           '-P 2ybc'
loop_
_symmetry_equiv_pos_site_id
_symmetry_equiv_pos_as_xyz
1 x,y,z
2 -x,1/2+y,1/2-z
3 -x,-y,-z
4 x,1/2-y,1/2+z
_cell_length_a                   8.8291(16)
_cell_length_b                   13.493(2)
_cell_length_c                   5.2520(10)
_cell_angle_alpha                90
_cell_angle_beta                 106.338(2)
_cell_angle_gamma                90
_cell_volume                     600.411
loop_
_atom_site_label
_atom_site_type_symbol
_atom_site_fract_x
_atom_site_fract_y
_atom_site_fract_z
Ag1 Ag 0.27611(3) 0.31490(2) 0.18563(5)
C1 C -0.1584(4) 0.4301(2) -0.3205(6)
H1 H -0.2150 0.4679 -0.4637
C2 C -0.0056(4) 0.4045(3) -0.2645(6)
H2 H 0.0620 0.4219 -0.3649
C3 C -0.0929(4) 0.3420(2) 0.0416(6)
H3 H -0.0991 0.3084 0.1931
C4 C -0.3699(4) 0.4027(3) -0.0860(7)
H4 H -0.3830 0.4723 -0.0515
H5 H -0.3730 0.3662 0.0716
C5 C -0.5092(4) 0.3704(2) -0.3125(6)
N1 N -0.2149(3) 0.38948(19) -0.1249(5)
N2 N 0.0360(3) 0.3486(2) -0.0353(5)
O1 O -0.4857(3) 0.3432(2) -0.5276(5)
O2 O -0.6404(3) 0.37502(19) -0.2685(5)
Ag1C Ag 0.27611(3) 0.18510(2) -0.31437(5)
Ag1C_2 Ag 0.27611(3) 0.18510(2) 0.68563(5)
Ag1_2 Ag -0.72389(3) 0.31490(2) -0.81437(5)
O1_2 O 0.5143(3) 0.3432(2) 0.4724(5)
loop_
_geom_bond_atom_site_label_1
_geom_bond_atom_site_label_2
_geom_bond_site_symmetry_1
_geom_bond_site_symmetry_2
Ag1 N2 1_555 1_555
C1 H1 1_555 1_555
C2 C1 1_555 1_555
H2 C2 1_555 1_555
C3 H3 1_555 1_555
C4 H4 1_555 1_555
H5 C4 1_555 1_555
C5 C4 1_555 1_555
N1 C1 1_555 1_555
N2 C2 1_555 1_555
O1 C5 1_555 1_555
O2 C5 1_555 1_555
Ag1C Ag1 1_555 1_555
Ag1C_2 Ag1 1_555 1_555
Ag1_2 O1 1_555 1_555
O1_2 Ag1 1_555 1_555
C3 N1 1_555 1_555
C3 N2 1_555 1_555
C4 N1 1_555 1_555

#END
