
#######################################################################
#
#                 Cambridge Crystallographic Data Centre
#                                CCDC 
#
#######################################################################
#
# If this CIF has been generated from an entry in the Cambridge 
# Structural Database, then it will include bibliographic, chemical, 
# crystal, experimental, refinement or atomic coordinate data resulting 
# from the CCDC's data processing and validation procedures.
#
#######################################################################

data_SEYWIC
_symmetry_cell_setting           monoclinic
_symmetry_space_group_name_H-M   'P 21/c'
_symmetry_Int_Tables_number      14
_space_group_name_Hall           '-P 2ybc'
loop_
_symmetry_equiv_pos_site_id
_symmetry_equiv_pos_as_xyz
1 x,y,z
2 -x,1/2+y,1/2-z
3 -x,-y,-z
4 x,1/2-y,1/2+z
_cell_length_a                   8.348(1)
_cell_length_b                   8.269(1)
_cell_length_c                   15.220(2)
_cell_angle_alpha                90
_cell_angle_beta                 103.29(1)
_cell_angle_gamma                90
_cell_volume                     1022.49
loop_
_atom_site_label
_atom_site_type_symbol
_atom_site_fract_x
_atom_site_fract_y
_atom_site_fract_z
Zn1 Zn 0.69540(4) 0.16143(4) 0.25374(2)
Cl1 Cl 0.8917(1) 0.1632(1) 0.17278(5)
Cl2 Cl 0.7522(1) -0.0128(1) 0.36956(7)
P1 P 0.60118(8) 0.46545(8) 0.36098(4)
O1 O 0.4898(2) 0.3537(2) 0.3972(1)
O2 O 0.6895(2) 0.3839(2) 0.2958(1)
O3 O 0.4791(2) 0.1225(2) 0.1778(1)
N1 N 0.7225(3) 0.6822(3) 0.4969(2)
N2 N 0.7496(4) 0.8570(4) 0.6872(2)
C1 C 0.7692(3) 0.5346(3) 0.4520(2)
C2 C 0.8659(3) 0.7591(4) 0.5605(2)
C3 C 0.8143(4) 0.9043(4) 0.6075(2)
H1 H 0.802(4) 0.457(4) 0.495(2)
H2 H 0.860(4) 0.559(4) 0.427(2)
H3 H 0.680(4) 0.750(4) 0.452(2)
H4 H 0.647(4) 0.655(4) 0.530(3)
H5 H 0.902(4) 0.672(4) 0.605(2)
H6 H 0.941(4) 0.793(4) 0.524(2)
H7 H 0.724(4) 0.972(4) 0.564(2)
H8 H 0.915(4) 0.970(4) 0.636(2)
H9 H 0.845(6) 0.809(5) 0.7353
H10 H 0.723(5) 0.945(5) 0.709(3)
H11 H 0.666(5) 0.794(5) 0.666(3)
O3A O 0.5209(2) 0.6225(2) 0.3222(1)
P1A P 0.39882(8) -0.03455(8) 0.13902(4)
Zn1A Zn 0.30460(4) 0.66143(4) 0.24626(2)
O1A O 0.5102(2) -0.1463(2) 0.1028(1)
O2A O 0.3105(2) -0.1161(2) 0.2042(1)
C1A C 0.2308(3) 0.0346(3) 0.0480(2)
Cl1A Cl 0.1083(1) 0.6632(1) 0.32722(5)
Cl2A Cl 0.2478(1) 0.4872(1) 0.13044(7)
O2A_2 O 0.3105(2) 0.8839(2) 0.2042(1)
Zn1A_2 Zn 0.30460(4) -0.33857(4) 0.24626(2)
N1A N 0.2775(3) 0.1822(3) 0.0031(2)
H1A H 0.198(4) -0.043(4) 0.005(2)
H2A H 0.140(4) 0.059(4) 0.073(2)
C2A C 0.1341(3) 0.2591(4) -0.0605(2)
H3A H 0.320(4) 0.250(4) 0.048(2)
H4A H 0.353(4) 0.155(4) -0.030(3)
C3A C 0.1857(4) 0.4043(4) -0.1075(2)
H5A H 0.098(4) 0.172(4) -0.105(2)
H6A H 0.059(4) 0.293(4) -0.024(2)
N2A N 0.2504(4) 0.3570(4) -0.1872(2)
H7A H 0.276(4) 0.472(4) -0.064(2)
H8A H 0.085(4) 0.470(4) -0.136(2)
H9A H 0.155(6) 0.309(5) -0.2353
H10A H 0.277(5) 0.445(5) -0.209(3)
H11A H 0.334(5) 0.294(5) -0.166(3)
loop_
_geom_bond_atom_site_label_1
_geom_bond_atom_site_label_2
_geom_bond_site_symmetry_1
_geom_bond_site_symmetry_2
Zn1 Cl1 1_555 1_555
Cl2 Zn1 1_555 1_555
P1 O1 1_555 1_555
O2 Zn1 1_555 1_555
O3 Zn1 1_555 1_555
N1 C1 1_555 1_555
N2 C3 1_555 1_555
C1 P1 1_555 1_555
C2 N1 1_555 1_555
C3 C2 1_555 1_555
H1 C1 1_555 1_555
H2 C1 1_555 1_555
H3 N1 1_555 1_555
H4 N1 1_555 1_555
H5 C2 1_555 1_555
H6 C2 1_555 1_555
H7 C3 1_555 1_555
H8 C3 1_555 1_555
H9 N2 1_555 1_555
H10 N2 1_555 1_555
H11 N2 1_555 1_555
O3A P1 1_555 1_555
P1A O3 1_555 1_555
Zn1A O3A 1_555 1_555
O1A P1A 1_555 1_555
O2A P1A 1_555 1_555
C1A P1A 1_555 1_555
Cl1A Zn1A 1_555 1_555
Cl2A Zn1A 1_555 1_555
O2A_2 Zn1A 1_555 1_555
Zn1A_2 O2A 1_555 1_555
N1A C1A 1_555 1_555
H1A C1A 1_555 1_555
H2A C1A 1_555 1_555
C2A N1A 1_555 1_555
H3A N1A 1_555 1_555
H4A N1A 1_555 1_555
C3A C2A 1_555 1_555
H5A C2A 1_555 1_555
H6A C2A 1_555 1_555
N2A C3A 1_555 1_555
H7A C3A 1_555 1_555
H8A C3A 1_555 1_555
H9A N2A 1_555 1_555
H10A N2A 1_555 1_555
H11A N2A 1_555 1_555
P1 O2 1_555 1_555

#END
