
#######################################################################
#
#                 Cambridge Crystallographic Data Centre
#                                CCDC 
#
#######################################################################
#
# If this CIF has been generated from an entry in the Cambridge 
# Structural Database, then it will include bibliographic, chemical, 
# crystal, experimental, refinement or atomic coordinate data resulting 
# from the CCDC's data processing and validation procedures.
#
#######################################################################

data_SEYZUS
_symmetry_cell_setting           monoclinic
_symmetry_space_group_name_H-M   'P 2/c'
_symmetry_Int_Tables_number      13
_space_group_name_Hall           '-P 2yc'
loop_
_symmetry_equiv_pos_site_id
_symmetry_equiv_pos_as_xyz
1 x,y,z
2 -x,y,1/2-z
3 -x,-y,-z
4 x,-y,1/2+z
_cell_length_a                   11.068(2)
_cell_length_b                   8.6860(17)
_cell_length_c                   11.189(2)
_cell_angle_alpha                90
_cell_angle_beta                 118.47(3)
_cell_angle_gamma                90
_cell_volume                     945.588
loop_
_atom_site_label
_atom_site_type_symbol
_atom_site_fract_x
_atom_site_fract_y
_atom_site_fract_z
Tb1 Tb 0.5000 0.60980(4) 0.7500
N1 N 0.5000 0.9475(8) 0.7500
N2 N 1.1144(5) 0.8401(7) 1.1974(5)
O1 O 0.6999(4) 0.5652(6) 0.9380(4)
O2 O 0.8092(5) 0.5219(6) 1.1591(4)
O3 O 0.5908(5) 0.8702(5) 0.8467(5)
O4 O 0.5000 1.0894(7) 0.7500
O5 O 0.3857(5) 0.6888(6) 0.8741(5)
O6 O 0.4290(5) 0.3846(5) 0.8251(6)
C1 C 0.8015(6) 0.5825(7) 1.0548(6)
C2 C 0.9182(5) 0.6804(7) 1.0666(5)
C3 C 0.9418(6) 0.6938(8) 0.9558(6)
H1 H 0.8833 0.6453 0.8743
C4 C 1.0520(7) 0.7789(9) 0.9662(7)
H2 H 1.0699 0.7879 0.8933
C5 C 1.1347(7) 0.8504(9) 1.0895(7)
H3 H 1.2086 0.9087 1.0974
C6 C 1.0089(5) 0.7544(6) 1.1881(5)
H4 H 0.358(6) 0.782(7) 0.877(6)
H7 H 0.341(10) 0.635(10) 0.870(10)
H8 H 0.363(9) 0.407(14) 0.839(14)
H9 H 0.435(15) 0.309(10) 0.781(12)
Tb1_2 Tb 1.5000 0.60980(4) 1.7500
N2A N 0.8856(5) 0.8401(7) 1.3026(5)
O1A O 1.3001(4) 0.5652(6) 1.5620(4)
O1A_2 O 0.3001(4) 0.5652(6) 0.5620(4)
O2A O 1.1908(5) 0.5219(6) 1.3409(4)
O3A O 0.4092(5) 0.8702(5) 0.6533(5)
O5A O 0.6143(5) 0.6888(6) 0.6259(5)
O6A O 0.5710(5) 0.3846(5) 0.6749(6)
C1A C 1.1985(6) 0.5825(7) 1.4452(6)
C2A C 1.0818(5) 0.6804(7) 1.4334(5)
C3A C 1.0582(6) 0.6938(8) 1.5442(6)
H1A H 1.1167 0.6453 1.6257
C4A C 0.9480(7) 0.7789(9) 1.5338(7)
H2A H 0.9301 0.7879 1.6067
C5A C 0.8653(7) 0.8504(9) 1.4105(7)
H3A H 0.7914 0.9087 1.4026
C6A C 0.9911(5) 0.7544(6) 1.3119(5)
H4A H 0.642(6) 0.782(7) 0.623(6)
H7A H 0.659(10) 0.635(10) 0.630(10)
H8A H 0.637(9) 0.407(14) 0.661(14)
H9A H 0.565(15) 0.309(10) 0.719(12)
O7 O 0.3121(8) 0.9697(7) 0.8951(7)
H5 H 0.336(7) 1.000(7) 0.955(7)
H6 H 0.257(10) 1.016(11) 0.847(9)
loop_
_geom_bond_atom_site_label_1
_geom_bond_atom_site_label_2
_geom_bond_site_symmetry_1
_geom_bond_site_symmetry_2
Tb1 O1 1_555 1_555
N1 O3 1_555 1_555
N2 C5 1_555 1_555
O1 C1 1_555 1_555
O2 C1 1_555 1_555
O3 Tb1 1_555 1_555
O4 N1 1_555 1_555
O5 Tb1 1_555 1_555
O6 Tb1 1_555 1_555
O7 H5 1_555 1_555
C1 C2 1_555 1_555
C2 C3 1_555 1_555
C3 H1 1_555 1_555
C4 C3 1_555 1_555
H2 C4 1_555 1_555
C5 C4 1_555 1_555
H3 C5 1_555 1_555
C6 N2 1_555 1_555
H4 O5 1_555 1_555
H6 O7 1_555 1_555
H7 O5 1_555 1_555
H8 O6 1_555 1_555
H9 O6 1_555 1_555
Tb1_2 O1A 1_555 1_555
N2A C5A 1_555 1_555
O1A C1A 1_555 1_555
O1A_2 Tb1 1_555 1_555
O2A C1A 1_555 1_555
O3A Tb1 1_555 1_555
O5A Tb1 1_555 1_555
O6A Tb1 1_555 1_555
C1A C2A 1_555 1_555
C2A C3A 1_555 1_555
C3A H1A 1_555 1_555
C4A C3A 1_555 1_555
H2A C4A 1_555 1_555
C5A C4A 1_555 1_555
H3A C5A 1_555 1_555
C6A C6 1_555 1_555
H4A O5A 1_555 1_555
H7A O5A 1_555 1_555
H8A O6A 1_555 1_555
H9A O6A 1_555 1_555
N1 O3A 1_555 1_555
C2 C6 1_555 1_555
N2A C6A 1_555 1_555
C2A C6A 1_555 1_555

#END
