
#######################################################################
#
#                 Cambridge Crystallographic Data Centre
#                                CCDC 
#
#######################################################################
#
# If this CIF has been generated from an entry in the Cambridge 
# Structural Database, then it will include bibliographic, chemical, 
# crystal, experimental, refinement or atomic coordinate data resulting 
# from the CCDC's data processing and validation procedures.
#
#######################################################################

data_SEZGUZ
_symmetry_cell_setting           triclinic
_symmetry_space_group_name_H-M   'P -1'
_symmetry_Int_Tables_number      2
_space_group_name_Hall           '-P 1'
loop_
_symmetry_equiv_pos_site_id
_symmetry_equiv_pos_as_xyz
1 x,y,z
2 -x,-y,-z
_cell_length_a                   8.312(2)
_cell_length_b                   10.903(3)
_cell_length_c                   8.201(2)
_cell_angle_alpha                92.53(2)
_cell_angle_beta                 113.77(2)
_cell_angle_gamma                91.40(2)
_cell_volume                     678.787
loop_
_atom_site_label
_atom_site_type_symbol
_atom_site_fract_x
_atom_site_fract_y
_atom_site_fract_z
Cu1 Cu 0.45198(5) 0.24391(3) 0.23831(5)
S1 S 0.8500(1) 0.28354(7) 0.1713(1)
F1 F 0.8464(4) 0.3776(3) -0.1151(4)
F2 F 0.6057(3) 0.3884(2) -0.0866(4)
F3 F 0.6774(6) 0.2187(3) -0.1618(4)
O1 O 0.7153(3) 0.2183(2) 0.2057(3)
O2 O 0.9924(3) 0.2116(2) 0.1771(4)
O3 O 0.9014(4) 0.4029(2) 0.2609(4)
N1 N 0.2891(3) 0.2121(2) -0.0160(3)
N2 N 0.0558(4) 0.1609(3) -0.3701(4)
N3 N 0.4812(3) 0.3981(2) 0.3842(3)
N4 N 0.4794(3) 0.0968(2) 0.3885(3)
C1 C 0.7388(6) 0.3163(4) -0.0607(5)
C2 C 0.2211(4) 0.3006(3) -0.1269(4)
C3 C 0.1087(5) 0.2746(3) -0.3000(5)
C4 C 0.1226(5) 0.0734(3) -0.2584(5)
C5 C 0.2382(5) 0.0973(3) -0.0847(4)
C6 C 0.6310(4) 0.4660(3) 0.4578(4)
C7 C 0.3514(4) 0.4332(3) 0.4273(4)
C8 C 0.3448(4) 0.0446(3) 0.4126(4)
C9 C 0.6349(4) 0.0511(3) 0.4777(4)
H1 H 0.256(4) 0.391(3) -0.074(5)
H2 H 0.062(5) 0.333(3) -0.374(5)
H3 H 0.096(4) -0.006(3) -0.308(4)
H4 H 0.279(5) 0.028(4) -0.013(5)
H5 H 0.719(5) 0.443(3) 0.428(5)
H6 H 0.249(4) 0.393(3) 0.377(4)
H7 H 0.245(5) 0.076(3) 0.362(5)
H8 H 0.732(4) 0.089(3) 0.470(4)
C7A C 0.6486(4) 0.5668(3) 0.5727(4)
C6A C 0.3690(4) 0.5340(3) 0.5422(4)
C9A C 0.3651(4) -0.0511(3) 0.5223(4)
C8A C 0.6552(4) -0.0446(3) 0.5874(4)
N3A N 0.5188(3) 0.6019(2) 0.6158(3)
H6A H 0.751(4) 0.607(3) 0.623(4)
H5A H 0.281(5) 0.557(3) 0.572(5)
N4A N 0.5206(3) -0.0968(2) 0.6115(3)
H8A H 0.268(4) -0.089(3) 0.530(4)
H7A H 0.755(5) -0.076(3) 0.638(5)
Cu1A Cu 0.54802(5) 0.75609(3) 0.76169(5)
Cu1A_2 Cu 0.54802(5) -0.24391(3) 0.76169(5)
O1A O 0.2847(3) 0.7817(2) 0.7943(3)
N1A N 0.7109(3) 0.7879(2) 1.0160(3)
N4A_2 N 0.5206(3) 0.9032(2) 0.6115(3)
S1A S 0.1500(1) 0.71646(7) 0.8287(1)
C2A C 0.7789(4) 0.6994(3) 1.1269(4)
C5A C 0.7618(5) 0.9027(3) 1.0847(4)
O2A O 0.0076(3) 0.7884(2) 0.8229(4)
O3A O 0.0986(4) 0.5971(2) 0.7391(4)
C1A C 0.2612(6) 0.6837(4) 1.0607(5)
C3A C 0.8913(5) 0.7254(3) 1.3000(5)
H1A H 0.744(4) 0.609(3) 1.074(5)
C4A C 0.8774(5) 0.9266(3) 1.2584(5)
H4A H 0.721(5) 0.972(4) 1.013(5)
F1A F 0.1536(4) 0.6224(3) 1.1151(4)
F2A F 0.3943(3) 0.6116(2) 1.0866(4)
F3A F 0.3226(6) 0.7813(3) 1.1618(4)
N2A N 0.9442(4) 0.8391(3) 1.3701(4)
H2A H 0.938(5) 0.667(3) 1.374(5)
H3A H 0.904(4) 1.006(3) 1.308(4)
loop_
_geom_bond_atom_site_label_1
_geom_bond_atom_site_label_2
_geom_bond_site_symmetry_1
_geom_bond_site_symmetry_2
Cu1 O1 1_555 1_555
S1 O1 1_555 1_555
F1 C1 1_555 1_555
F2 C1 1_555 1_555
F3 C1 1_555 1_555
O2 S1 1_555 1_555
O3 S1 1_555 1_555
N1 Cu1 1_555 1_555
N2 C3 1_555 1_555
N3 Cu1 1_555 1_555
N4 Cu1 1_555 1_555
C1 S1 1_555 1_555
C2 N1 1_555 1_555
C3 C2 1_555 1_555
C4 N2 1_555 1_555
C5 N1 1_555 1_555
C6 N3 1_555 1_555
C7 N3 1_555 1_555
C8 N4 1_555 1_555
C9 N4 1_555 1_555
H1 C2 1_555 1_555
H2 C3 1_555 1_555
H3 C4 1_555 1_555
H4 C5 1_555 1_555
H5 C6 1_555 1_555
H6 C7 1_555 1_555
H7 C8 1_555 1_555
H8 C9 1_555 1_555
C7A C6 1_555 1_555
C6A C7 1_555 1_555
C9A C8 1_555 1_555
C8A C9 1_555 1_555
N3A C7A 1_555 1_555
H6A C7A 1_555 1_555
H5A C6A 1_555 1_555
N4A C9A 1_555 1_555
H8A C9A 1_555 1_555
H7A C8A 1_555 1_555
Cu1A N3A 1_555 1_555
Cu1A_2 N4A 1_555 1_555
O1A Cu1A 1_555 1_555
N1A Cu1A 1_555 1_555
N4A_2 Cu1A 1_555 1_555
S1A O1A 1_555 1_555
C2A N1A 1_555 1_555
C5A N1A 1_555 1_555
O2A S1A 1_555 1_555
O3A S1A 1_555 1_555
C1A S1A 1_555 1_555
C3A C2A 1_555 1_555
H1A C2A 1_555 1_555
C4A C5A 1_555 1_555
H4A C5A 1_555 1_555
F1A C1A 1_555 1_555
F2A C1A 1_555 1_555
F3A C1A 1_555 1_555
N2A C3A 1_555 1_555
H2A C3A 1_555 1_555
H3A C4A 1_555 1_555
C4 C5 1_555 1_555
C6A N3A 1_555 1_555
C8A N4A 1_555 1_555
C4A N2A 1_555 1_555

#END
