
#######################################################################
#
#                 Cambridge Crystallographic Data Centre
#                                CCDC 
#
#######################################################################
#
# If this CIF has been generated from an entry in the Cambridge 
# Structural Database, then it will include bibliographic, chemical, 
# crystal, experimental, refinement or atomic coordinate data resulting 
# from the CCDC's data processing and validation procedures.
#
#######################################################################

data_SEZGAG
_symmetry_cell_setting           monoclinic
_symmetry_space_group_name_H-M   'P 21/c'
_symmetry_Int_Tables_number      14
_space_group_name_Hall           '-P 2ybc'
loop_
_symmetry_equiv_pos_site_id
_symmetry_equiv_pos_as_xyz
1 x,y,z
2 -x,1/2+y,1/2-z
3 -x,-y,-z
4 x,1/2-y,1/2+z
_cell_length_a                   7.7060(14)
_cell_length_b                   17.585(3)
_cell_length_c                   8.9774(16)
_cell_angle_alpha                90
_cell_angle_beta                 111.025(3)
_cell_angle_gamma                90
_cell_volume                     1135.54
loop_
_atom_site_label
_atom_site_type_symbol
_atom_site_fract_x
_atom_site_fract_y
_atom_site_fract_z
Ni1 Ni 0.0000 0.5000 0.5000
O1 O 0.5432(2) 0.42574(10) 0.81130(19)
N1 N 0.15817(19) 0.40950(8) 0.12622(16)
N2 N 0.03217(19) 0.45485(8) 0.29387(16)
N3 N 0.8369(2) 0.20236(8) 0.17490(17)
N4 N 0.95754(19) 0.11085(8) 0.07417(16)
N5 N 0.2881(2) 0.48929(8) 0.61877(18)
C1 C 0.2971(3) 0.38130(11) 0.0629(2)
H1 H 0.3599 0.4251 0.0344
H2 H 0.2339 0.3517 -0.0356
C2 C 0.4413(2) 0.33153(10) 0.1823(2)
H3 H 0.3776 0.2949 0.2292
H4 H 0.5230 0.3638 0.2698
C3 C 0.5605(2) 0.28765(10) 0.1071(2)
H5 H 0.4812 0.2523 0.0250
H6 H 0.6193 0.3236 0.0547
C4 C 0.7096(3) 0.24321(11) 0.2353(2)
H7 H 0.7825 0.2788 0.3201
H8 H 0.6489 0.2061 0.2838
C5 C 0.1888(2) 0.43517(10) 0.2759(2)
H9 H 0.3081 0.4386 0.3577
C6 C -0.1057(2) 0.44150(9) 0.1484(2)
H10 H -0.2345 0.4503 0.1246
C7 C -0.0303(2) 0.41389(10) 0.0441(2)
H11 H -0.0949 0.4003 -0.0642
C8 C 0.8151(2) 0.13119(9) 0.1136(2)
H12 H 0.7103 0.0998 0.1007
C9 C 1.0757(2) 0.17191(10) 0.1108(2)
H13 H 1.1911 0.1742 0.0950
C10 C 1.0029(2) 0.22895(10) 0.1732(2)
H14 H 1.0567 0.2774 0.2084
C11 C 0.4120(2) 0.45727(10) 0.7128(2)
Ni1C Ni 1.0000 0.0000 0.0000
Ni1C_2 Ni -1.0000 1.0000 1.0000
O1B O -0.5432(2) 0.57426(10) 0.18870(19)
N1B N -0.15817(19) 0.59050(8) 0.87378(16)
N2B N -0.03217(19) 0.54515(8) 0.70613(16)
N3B N -0.8369(2) 0.79764(8) 0.82510(17)
N4B N -0.95754(19) 0.88915(8) 0.92583(16)
N4C N -0.04246(19) 0.38915(8) 0.57417(16)
N4A N 0.04246(19) 0.61085(8) 0.42583(16)
N5B N -0.2881(2) 0.51071(8) 0.38123(18)
C1B C -0.2971(3) 0.61870(11) 0.9371(2)
H1B H -0.3599 0.5749 0.9656
H2B H -0.2339 0.6483 1.0356
C2B C -0.4413(2) 0.66847(10) 0.8177(2)
H3B H -0.3776 0.7051 0.7708
H4B H -0.5230 0.6362 0.7302
C3B C -0.5605(2) 0.71235(10) 0.8929(2)
H5B H -0.4812 0.7477 0.9750
H6B H -0.6193 0.6764 0.9453
C4B C -0.7096(3) 0.75679(11) 0.7647(2)
H7B H -0.7825 0.7212 0.6799
H8B H -0.6489 0.7939 0.7162
C5B C -0.1888(2) 0.56483(10) 0.7241(2)
H9B H -0.3081 0.5614 0.6423
C6B C 0.1057(2) 0.55850(9) 0.8516(2)
H10B H 0.2345 0.5497 0.8754
C7B C 0.0303(2) 0.58611(10) 0.9559(2)
H11B H 0.0949 0.5997 1.0642
C8B C -0.8151(2) 0.86881(9) 0.8864(2)
H12B H -0.7103 0.9002 0.8993
C9B C -1.0757(2) 0.82809(10) 0.8892(2)
H13B H -1.1911 0.8258 0.9050
C10B C -1.0029(2) 0.77105(10) 0.8268(2)
H14B H -1.0567 0.7226 0.7916
C11B C -0.4120(2) 0.54273(10) 0.2872(2)
loop_
_geom_bond_atom_site_label_1
_geom_bond_atom_site_label_2
_geom_bond_site_symmetry_1
_geom_bond_site_symmetry_2
Ni1 N2 1_555 1_555
O1 C11 1_555 1_555
N1 C1 1_555 1_555
N2 C5 1_555 1_555
N3 C4 1_555 1_555
N4 C8 1_555 1_555
N5 Ni1 1_555 1_555
C1 H1 1_555 1_555
H2 C1 1_555 1_555
C2 C1 1_555 1_555
H3 C2 1_555 1_555
H4 C2 1_555 1_555
C3 C2 1_555 1_555
H5 C3 1_555 1_555
H6 C3 1_555 1_555
C4 C3 1_555 1_555
H7 C4 1_555 1_555
H8 C4 1_555 1_555
C5 N1 1_555 1_555
H9 C5 1_555 1_555
C6 N2 1_555 1_555
H10 C6 1_555 1_555
C7 N1 1_555 1_555
H11 C7 1_555 1_555
C8 N3 1_555 1_555
H12 C8 1_555 1_555
C9 N4 1_555 1_555
H13 C9 1_555 1_555
C10 N3 1_555 1_555
H14 C10 1_555 1_555
C11 N5 1_555 1_555
Ni1C N4 1_555 1_555
Ni1C_2 N4B 1_555 1_555
O1B C11B 1_555 1_555
N1B C1B 1_555 1_555
N2B Ni1 1_555 1_555
N3B C4B 1_555 1_555
N4B C8B 1_555 1_555
N4C Ni1 1_555 1_555
N4A Ni1 1_555 1_555
N5B Ni1 1_555 1_555
C1B H1B 1_555 1_555
H2B C1B 1_555 1_555
C2B C1B 1_555 1_555
H3B C2B 1_555 1_555
H4B C2B 1_555 1_555
C3B C2B 1_555 1_555
H5B C3B 1_555 1_555
H6B C3B 1_555 1_555
C4B C3B 1_555 1_555
H7B C4B 1_555 1_555
H8B C4B 1_555 1_555
C5B N1B 1_555 1_555
H9B C5B 1_555 1_555
C6B N2B 1_555 1_555
H10B C6B 1_555 1_555
C7B N1B 1_555 1_555
H11B C7B 1_555 1_555
C8B N3B 1_555 1_555
H12B C8B 1_555 1_555
C9B N4B 1_555 1_555
H13B C9B 1_555 1_555
C10B N3B 1_555 1_555
H14B C10B 1_555 1_555
C11B N5B 1_555 1_555
C6 C7 1_555 1_555
C9 C10 1_555 1_555
N2B C5B 1_555 1_555
C6B C7B 1_555 1_555
C9B C10B 1_555 1_555

#END
