
#######################################################################
#
#                 Cambridge Crystallographic Data Centre
#                                CCDC 
#
#######################################################################
#
# If this CIF has been generated from an entry in the Cambridge 
# Structural Database, then it will include bibliographic, chemical, 
# crystal, experimental, refinement or atomic coordinate data resulting 
# from the CCDC's data processing and validation procedures.
#
#######################################################################

data_SEZHUB
_symmetry_cell_setting           monoclinic
_symmetry_space_group_name_H-M   'P 21/c'
_symmetry_Int_Tables_number      14
_space_group_name_Hall           '-P 2ybc'
loop_
_symmetry_equiv_pos_site_id
_symmetry_equiv_pos_as_xyz
1 x,y,z
2 -x,1/2+y,1/2-z
3 -x,-y,-z
4 x,1/2-y,1/2+z
_cell_length_a                   9.8470(17)
_cell_length_b                   17.733(3)
_cell_length_c                   11.146(2)
_cell_angle_alpha                90
_cell_angle_beta                 105.732(3)
_cell_angle_gamma                90
_cell_volume                     1873.37
loop_
_atom_site_label
_atom_site_type_symbol
_atom_site_fract_x
_atom_site_fract_y
_atom_site_fract_z
Sn1 Sn 0.53223(7) 0.19966(3) 0.14262(5)
F1 F 0.3152(7) -0.0370(3) 0.2338(5)
F2 F 0.1551(7) -0.1018(3) 0.3641(6)
F3 F 0.1259(6) -0.0376(3) 0.5742(6)
F4 F 0.2610(7) 0.0900(3) 0.6573(5)
O1 O 0.4000(6) 0.1622(3) 0.2470(4)
O2 O 0.5585(7) 0.0710(3) 0.2748(5)
O3 O 0.5552(6) 0.1795(3) 0.5122(5)
O4 O 0.3898(7) 0.2097(3) 0.6020(5)
C1 C 0.4561(10) 0.0987(5) 0.2964(7)
C2 C 0.3763(9) 0.0620(4) 0.3786(6)
C3 C 0.3062(9) -0.0040(4) 0.3392(7)
C4 C 0.2217(9) -0.0372(4) 0.4045(7)
C5 C 0.2073(9) -0.0040(5) 0.5108(8)
C6 C 0.2767(9) 0.0609(4) 0.5513(7)
C7 C 0.3607(8) 0.0950(4) 0.4875(6)
C8 C 0.4430(10) 0.1659(4) 0.5342(7)
C9 C 0.7078(11) 0.2375(6) 0.2756(10)
H1 H 0.7105 0.2921 0.2810
H2 H 0.7139 0.2163 0.3570
C10 C 0.8273(12) 0.2053(7) 0.2183(13)
H3 H 0.8120 0.1521 0.1996
H4 H 0.8263 0.2318 0.1418
C11 C 0.9663(12) 0.2172(8) 0.3142(14)
H5 H 0.9694 0.1882 0.3888
H6 H 0.9787 0.2701 0.3368
C12 C 1.0845(16) 0.1906(9) 0.2558(19)
H7 H 1.1750 0.2026 0.3112
H8 H 1.0742 0.2158 0.1775
H9 H 1.0775 0.1371 0.2425
C13 C 0.4925(10) 0.1354(5) -0.0233(9)
H10 H 0.4703 0.1697 -0.0938
H11 H 0.5782 0.1088 -0.0244
C14 C 0.3719(9) 0.0775(5) -0.0410(8)
H12 H 0.3714 0.0455 -0.1117
H13 H 0.3891 0.0457 0.0324
C15 C 0.2331(10) 0.1137(6) -0.0617(10)
H14 H 0.2189 0.1482 -0.1315
H15 H 0.2317 0.1430 0.0115
C16 C 0.1109(12) 0.0563(8) -0.0883(12)
H16 H 0.0229 0.0826 -0.1021
H17 H 0.1227 0.0231 -0.0182
H18 H 0.1113 0.0274 -0.1611
Sn1C Sn 0.53223(7) 0.30034(3) 0.64262(5)
O3C O 0.5552(6) 0.3205(3) 0.0122(5)
O4C O 0.3898(7) 0.2903(3) 0.1020(5)
loop_
_geom_bond_atom_site_label_1
_geom_bond_atom_site_label_2
_geom_bond_site_symmetry_1
_geom_bond_site_symmetry_2
Sn1 O1 1_555 1_555
F1 C3 1_555 1_555
F2 C4 1_555 1_555
F3 C5 1_555 1_555
F4 C6 1_555 1_555
O1 C1 1_555 1_555
O2 Sn1 1_555 1_555
O3 C8 1_555 1_555
O4 C8 1_555 1_555
C1 O2 1_555 1_555
C2 C1 1_555 1_555
C3 C2 1_555 1_555
C4 C3 1_555 1_555
C5 C4 1_555 1_555
C6 C5 1_555 1_555
C7 C2 1_555 1_555
C8 C7 1_555 1_555
C9 Sn1 1_555 1_555
H1 C9 1_555 1_555
H2 C9 1_555 1_555
C10 C9 1_555 1_555
H3 C10 1_555 1_555
H4 C10 1_555 1_555
C11 C10 1_555 1_555
H5 C11 1_555 1_555
H6 C11 1_555 1_555
C12 C11 1_555 1_555
H7 C12 1_555 1_555
H8 C12 1_555 1_555
H9 C12 1_555 1_555
C13 Sn1 1_555 1_555
H10 C13 1_555 1_555
H11 C13 1_555 1_555
C14 C13 1_555 1_555
H12 C14 1_555 1_555
H13 C14 1_555 1_555
C15 C14 1_555 1_555
H14 C15 1_555 1_555
H15 C15 1_555 1_555
C16 C15 1_555 1_555
H16 C16 1_555 1_555
H17 C16 1_555 1_555
H18 C16 1_555 1_555
Sn1C O3 1_555 1_555
O3C Sn1 1_555 1_555
O4C Sn1 1_555 1_555
O4 Sn1C 1_555 1_555
C6 C7 1_555 1_555

#END
