
#######################################################################
#
#                 Cambridge Crystallographic Data Centre
#                                CCDC 
#
#######################################################################
#
# If this CIF has been generated from an entry in the Cambridge 
# Structural Database, then it will include bibliographic, chemical, 
# crystal, experimental, refinement or atomic coordinate data resulting 
# from the CCDC's data processing and validation procedures.
#
#######################################################################

data_SEZHEM
_symmetry_cell_setting           hexagonal
_symmetry_space_group_name_H-M   'P 63'
_symmetry_Int_Tables_number      173
_space_group_name_Hall           'P 6c'
loop_
_symmetry_equiv_pos_site_id
_symmetry_equiv_pos_as_xyz
1 x,y,z
2 -y,x-y,z
3 -x+y,-x,z
4 -x,-y,1/2+z
5 y,-x+y,1/2+z
6 x-y,x,1/2+z
_cell_length_a                   15.6464(4)
_cell_length_b                   15.6464(4)
_cell_length_c                   19.7878(15)
_cell_angle_alpha                90
_cell_angle_beta                 90
_cell_angle_gamma                120
_cell_volume                     4195.24
loop_
_atom_site_label
_atom_site_type_symbol
_atom_site_fract_x
_atom_site_fract_y
_atom_site_fract_z
Zn1 Zn 0.57719(13) 0.10549(12) 0.15553(14)
Zn2 Zn 0.45628(12) -0.16047(13) 0.3211(3)
Zn3 Zn 0.52834(13) 0.10709(12) 0.44020(16)
N1 N 0.6932(8) 0.0787(7) 0.1487(8)
N2 N 0.6053(7) -0.1080(8) 0.3190(12)
N3 N 0.3858(8) 0.0750(8) 0.4670(7)
N4 N 0.9056(7) -0.0750(7) 0.1503(5)
N5 N 0.9731(5) 0.0717(5) 0.3188(4)
N6 N 0.0195(8) -0.0771(8) 0.4819(6)
C1 C 0.6738(9) -0.0173(10) 0.1514(9)
H1 H 0.6092 -0.0693 0.1542
C2 C 0.7468(10) -0.0342(9) 0.1499(8)
H2 H 0.7320 -0.0996 0.1482
C3 C 0.7864(9) 0.1542(9) 0.1513(9)
H3 H 0.7982 0.2186 0.1520
C4 C 0.8631(9) 0.1377(9) 0.1528(9)
H4 H 0.9274 0.1906 0.1552
C5 C 0.8454(9) 0.0385(8) 0.1507(8)
C6 C 0.9275(9) 0.0203(8) 0.1530(6)
C7 C 0.6318(9) -0.1783(8) 0.3107(10)
H5 H 0.5837 -0.2441 0.3050
C8 C 0.7274(7) -0.1518(8) 0.3107(8)
H6 H 0.7445 -0.2005 0.3059
C9 C 0.6730(7) -0.0133(8) 0.3257(10)
H7 H 0.6533 0.0336 0.3290
C10 C 0.7744(6) 0.0171(7) 0.3277(6)
H8 H 0.8217 0.0826 0.3356
C11 C 0.8012(7) -0.0553(7) 0.3175(7)
C12 C 0.9059(6) -0.0257(6) 0.3183(5)
C13 C 0.3099(13) -0.0193(13) 0.4681(9)
H9 H 0.3230 -0.0708 0.4629
C14 C 0.2129(11) -0.0408(10) 0.4767(8)
H10 H 0.1619 -0.1057 0.4812
C15 C 0.3664(12) 0.1467(10) 0.4722(8)
H11 H 0.4187 0.2113 0.4736
C16 C 0.2710(11) 0.1304(10) 0.4758(7)
H12 H 0.2589 0.1829 0.4765
C17 C 0.1949(8) 0.0347(9) 0.4782(6)
C18 C 0.0896(11) 0.0161(11) 0.4826(6)
P1 P 0.6667 0.3333 0.1569(7)
H13 H 0.6667 0.3333 0.2251(13)
P2 P 0.6667 0.3333 0.4735(7)
H14 H 0.6667 0.3333 0.4052
P3 P 0.3333 -0.3333 0.4275(5)
H15 H 0.3333 -0.3333 0.3508
P4 P 0.3333 -0.3333 0.2260(7)
H16 H 0.3333 -0.3333 0.1577
P5 P 0.4636(2) 0.0326(2) 0.2953(4)
P6 P 0.4322(3) 0.0354(4) 0.0289(3)
O1 O 0.5941(8) 0.2354(8) 0.1725(10)
O2 O 0.6328(8) 0.2281(7) 0.4766(10)
O3 O 0.4181(11) -0.2370(9) 0.4040(12)
O4 O 0.4315(13) -0.2505(12) 0.2391(11)
O5 O 0.5467(9) 0.1070(11) 0.3468(9)
O6 O 0.4090(8) -0.0676(9) 0.3320(14)
O7 O 0.3841(7) 0.0662(8) 0.2938(11)
O8 O 0.4969(7) 0.0229(7) 0.2342(9)
O9 O 0.5140(10) 0.0504(10) 0.0731(7)
O10 O 0.414(2) -0.0296(19) -0.0292(12)
O11 O 0.4366(15) 0.1339(17) 0.0086(12)
O12 O 0.3372(11) -0.0049(16) 0.0700(11)
N1A N 0.9213(7) -0.3855(11) 0.1487(8)
N4A N 1.0750(7) -0.0194(10) 0.1503(5)
C1A C 1.0173(10) -0.3089(13) 0.1514(9)
H1A H 1.0693 -0.3215 0.1542
C2A C 1.0342(9) -0.2190(13) 0.1499(8)
H2A H 1.0996 -0.1684 0.1482
C3A C 0.8458(9) -0.3678(13) 0.1513(9)
H3A H 0.7814 -0.4204 0.1520
C4A C 0.8623(9) -0.2746(13) 0.1528(9)
H4A H 0.8094 -0.2632 0.1552
C5A C 0.9615(8) -0.1931(12) 0.1507(8)
C6A C 0.9797(8) -0.0928(12) 0.1530(6)
N1B N 1.3855(11) 0.3068(8) 0.1487(8)
N4B N 1.0194(10) 0.0944(7) 0.1503(5)
C1B C 1.3089(13) 0.3262(9) 0.1514(9)
H1B H 1.3215 0.3908 0.1542
C2B C 1.2190(13) 0.2532(10) 0.1499(8)
H2B H 1.1684 0.2680 0.1482
C3B C 1.3678(13) 0.2136(9) 0.1513(9)
H3B H 1.4204 0.2018 0.1520
C4B C 1.2746(13) 0.1369(9) 0.1528(9)
H4B H 1.2632 0.0726 0.1552
C5B C 1.1931(12) 0.1546(9) 0.1507(8)
C6B C 1.0928(12) 0.0725(9) 0.1530(6)
N2A N 1.1080(8) -0.2867(11) 0.3190(12)
N5A N 0.9283(5) -0.0986(7) 0.3188(4)
C7A C 1.1783(8) -0.1899(12) 0.3107(10)
H5A H 1.2441 -0.1722 0.3050
C8A C 1.1518(8) -0.1208(11) 0.3107(8)
H6A H 1.2005 -0.0550 0.3059
C9A C 1.0133(8) -0.3137(11) 0.3257(10)
H7A H 0.9664 -0.3803 0.3290
C10A C 0.9829(7) -0.2427(9) 0.3277(6)
H8A H 0.9174 -0.2609 0.3356
C11A C 1.0553(7) -0.1435(10) 0.3175(7)
C12A C 1.0257(6) -0.0684(8) 0.3183(5)
N2B N 1.2867(11) 0.3947(7) 0.3190(12)
N5B N 1.0986(7) 0.0269(5) 0.3188(4)
C7B C 1.1899(12) 0.3682(9) 0.3107(10)
H5B H 1.1722 0.4163 0.3050
C8B C 1.1208(11) 0.2726(7) 0.3107(8)
H6B H 1.0550 0.2555 0.3059
C9B C 1.3137(11) 0.3270(7) 0.3257(10)
H7B H 1.3803 0.3467 0.3290
C10B C 1.2427(9) 0.2256(6) 0.3277(6)
H8B H 1.2609 0.1783 0.3356
C11B C 1.1435(10) 0.1988(7) 0.3175(7)
C12B C 1.0684(8) 0.0941(6) 0.3183(5)
N3A N -0.0750(8) 0.3108(11) 0.4670(7)
N6A N 0.0771(8) 0.0966(11) 0.4819(6)
C13A C 0.0193(13) 0.3292(18) 0.4681(9)
H9A H 0.0708 0.3938 0.4629
C14A C 0.0408(10) 0.2537(15) 0.4767(8)
H10A H 0.1057 0.2676 0.4812
C15A C -0.1467(10) 0.2197(16) 0.4722(8)
H11A H -0.2113 0.2074 0.4736
C16A C -0.1304(10) 0.1406(15) 0.4758(7)
H12A H -0.1829 0.0760 0.4765
C17A C -0.0347(9) 0.1602(12) 0.4782(6)
C18A C -0.0161(11) 0.0735(16) 0.4826(6)
N3B N -0.3108(11) -0.3858(8) 0.4670(7)
N6B N -0.0966(11) -0.0195(8) 0.4819(6)
C13B C -0.3292(18) -0.3099(13) 0.4681(9)
H9B H -0.3938 -0.3230 0.4629
C14B C -0.2537(15) -0.2129(11) 0.4767(8)
H10B H -0.2676 -0.1619 0.4812
C15B C -0.2197(16) -0.3664(12) 0.4722(8)
H11B H -0.2074 -0.4187 0.4736
C16B C -0.1406(15) -0.2710(11) 0.4758(7)
H12B H -0.0760 -0.2589 0.4765
C17B C -0.1602(12) -0.1949(8) 0.4782(6)
C18B C -0.0735(16) -0.0896(11) 0.4826(6)
O1A O 0.7646(8) 0.3587(11) 0.1725(10)
O1B O 0.6413(11) 0.4059(8) 0.1725(10)
O2A O 0.7719(7) 0.4047(11) 0.4766(10)
O2B O 0.5953(11) 0.3672(8) 0.4766(10)
O3A O 0.2370(9) -0.3449(14) 0.4040(12)
O3B O 0.3449(14) -0.4181(11) 0.4040(12)
O4A O 0.2505(12) -0.3180(18) 0.2391(11)
O4B O 0.3180(18) -0.4315(13) 0.2391(11)
Zn1A Zn -0.10549(12) -0.52830(18) 0.15553(14)
Zn2A Zn 0.16047(13) -0.38325(18) 0.3211(3)
Zn3A Zn -0.10709(12) -0.57875(18) 0.44020(16)
P5A P -0.0326(2) -0.5690(3) 0.2953(4)
P6A P -0.0354(4) -0.6032(5) 0.0289(3)
O5A O -0.1070(11) -0.5603(14) 0.3468(9)
O6A O 0.0676(9) -0.5234(12) 0.3320(14)
O7A O -0.0662(8) -0.6821(11) 0.2938(11)
O8A O -0.0229(7) -0.5260(10) 0.2342(9)
O9A O -0.0504(10) -0.5364(14) 0.0731(7)
O10A O 0.0296(19) -0.5564(28) -0.0292(12)
O11A O -0.1339(17) -0.6973(23) 0.0086(12)
O12A O 0.0049(16) -0.6579(19) 0.0700(11)
Zn1C Zn 0.42281(13) -0.10549(12) 0.65553(14)
Zn2C Zn 0.54372(12) 0.16047(13) 0.8211(3)
Zn3C Zn 0.47166(13) -0.10709(12) 0.94020(16)
P5C P 0.5364(2) -0.0326(2) 0.7953(4)
P6C P 0.5678(3) -0.0354(4) 0.5289(3)
O5C O 0.4533(9) -0.1070(11) 0.8468(9)
O6C O 0.5910(8) 0.0676(9) 0.8320(14)
O7C O 0.6159(7) -0.0662(8) 0.7938(11)
O8C O 0.5031(7) -0.0229(7) 0.7342(9)
O9C O 0.4860(10) -0.0504(10) 0.5731(7)
O10C O 0.586(2) 0.0296(19) 0.4708(12)
O11C O 0.5634(15) -0.1339(17) 0.5086(12)
O12C O 0.6628(11) 0.0049(16) 0.5700(11)
Zn1A_2 Zn 0.89451(12) -0.52830(18) 0.15553(14)
Zn1A_3 Zn 0.89451(12) 0.47170(18) 0.15553(14)
Zn1B Zn 0.52830(18) 0.42281(13) 0.15553(14)
Zn1B_2 Zn 1.52830(18) 0.42281(13) 0.15553(14)
Zn2A_2 Zn 1.16047(13) -0.38325(18) 0.3211(3)
Zn2B Zn 0.38325(18) -0.45628(12) 0.3211(3)
Zn2B_2 Zn 1.38325(18) 0.54372(12) 0.3211(3)
Zn3A_2 Zn -0.10709(12) 0.42125(18) 0.44020(16)
Zn3A_3 Zn 0.89291(12) 0.42125(18) 0.44020(16)
Zn3B Zn -0.42125(18) -0.52834(13) 0.44020(16)
Zn3B_2 Zn 0.57875(18) 0.47166(13) 0.44020(16)
Zn3C_2 Zn 0.47166(13) -0.10709(12) -0.05980(16)
Zn3D Zn 0.10709(12) -0.42125(18) -0.05980(16)
N1A_2 N -0.0787(7) -0.3855(11) 0.1487(8)
N1C N 0.3068(8) -0.0787(7) 0.6487(8)
N2A_2 N 0.1080(8) -0.2867(11) 0.3190(12)
N2C N 0.3947(7) 0.1080(8) 0.8190(12)
N3A_2 N -0.0750(8) -0.6892(11) 0.4670(7)
N3C N 0.6142(8) -0.0750(8) 0.9670(7)
O1A_2 O -0.2354(8) -0.6413(11) 0.1725(10)
O1C O 0.4059(8) -0.2354(8) 0.6725(10)
O2A_2 O -0.2281(7) -0.5953(11) 0.4766(10)
O2C O 0.3672(8) -0.2281(7) 0.9766(10)
O3C O 0.5819(11) 0.2370(9) 0.9040(12)
O4C O 0.5685(13) 0.2505(12) 0.7391(11)
O10_2 O 0.414(2) -0.0296(19) 0.9708(12)
O10D O -0.0296(19) -0.4436(28) 0.4708(12)
O13 O 0.7424(7) 0.2196(8) 0.3088(9)
H17 H 0.7834 0.2023 0.3219
H18 H 0.6862 0.1936 0.2899
O14 O 0.2927(16) -0.134(3) 0.1545(19)
H19 H 0.3406 -0.1103 0.1822
H20 H 0.3014 -0.1478 0.1989
loop_
_geom_bond_atom_site_label_1
_geom_bond_atom_site_label_2
_geom_bond_site_symmetry_1
_geom_bond_site_symmetry_2
Zn1 N1 1_555 1_555
Zn2 N2 1_555 1_555
Zn3 N3 1_555 1_555
N1 C1 1_555 1_555
N2 C7 1_555 1_555
N3 C13 1_555 1_555
N4 C6 1_555 1_555
N5 C12 1_555 1_555
N6 C18 1_555 1_555
C1 H1 1_555 1_555
C2 C1 1_555 1_555
H2 C2 1_555 1_555
C3 N1 1_555 1_555
H3 C3 1_555 1_555
C4 C3 1_555 1_555
H4 C4 1_555 1_555
C5 C2 1_555 1_555
C6 C5 1_555 1_555
C7 H5 1_555 1_555
C8 C7 1_555 1_555
H6 C8 1_555 1_555
C9 N2 1_555 1_555
H7 C9 1_555 1_555
C10 C9 1_555 1_555
H8 C10 1_555 1_555
C11 C8 1_555 1_555
C12 C11 1_555 1_555
C13 H9 1_555 1_555
C14 C13 1_555 1_555
H10 C14 1_555 1_555
C15 N3 1_555 1_555
H11 C15 1_555 1_555
C16 C15 1_555 1_555
H12 C16 1_555 1_555
C17 C14 1_555 1_555
C18 C17 1_555 1_555
P1 H13 1_555 1_555
P2 H14 1_555 1_555
P3 H15 1_555 1_555
P4 H16 1_555 1_555
P5 O5 1_555 1_555
P6 O9 1_555 1_555
O1 Zn1 1_555 1_555
O2 Zn3 1_555 1_555
O3 Zn2 1_555 1_555
O4 Zn2 1_555 1_555
O5 Zn3 1_555 1_555
O6 Zn2 1_555 1_555
O7 P5 1_555 1_555
O8 Zn1 1_555 1_555
O9 Zn1 1_555 1_555
O10 P6 1_555 1_555
O11 P6 1_555 1_555
O12 P6 1_555 1_555
O13 H17 1_555 1_555
H18 O13 1_555 1_555
O14 H19 1_555 1_555
H20 O14 1_555 1_555
N1A C1A 1_555 1_555
N4A C6A 1_555 1_555
C1A H1A 1_555 1_555
C2A C1A 1_555 1_555
H2A C2A 1_555 1_555
C3A N1A 1_555 1_555
H3A C3A 1_555 1_555
C4A C3A 1_555 1_555
H4A C4A 1_555 1_555
C5A C2A 1_555 1_555
C6A N4 1_555 1_555
N1B C1B 1_555 1_555
N4B C6 1_555 1_555
C1B H1B 1_555 1_555
C2B C1B 1_555 1_555
H2B C2B 1_555 1_555
C3B N1B 1_555 1_555
H3B C3B 1_555 1_555
C4B C3B 1_555 1_555
H4B C4B 1_555 1_555
C5B C2B 1_555 1_555
C6B N4A 1_555 1_555
N2A C7A 1_555 1_555
N5A C12 1_555 1_555
C7A H5A 1_555 1_555
C8A C7A 1_555 1_555
H6A C8A 1_555 1_555
C9A N2A 1_555 1_555
H7A C9A 1_555 1_555
C10A C9A 1_555 1_555
H8A C10A 1_555 1_555
C11A C8A 1_555 1_555
C12A N5A 1_555 1_555
N2B C7B 1_555 1_555
N5B C12A 1_555 1_555
C7B H5B 1_555 1_555
C8B C7B 1_555 1_555
H6B C8B 1_555 1_555
C9B N2B 1_555 1_555
H7B C9B 1_555 1_555
C10B C9B 1_555 1_555
H8B C10B 1_555 1_555
C11B C8B 1_555 1_555
C12B N5 1_555 1_555
N3A C13A 1_555 1_555
N6A C18 1_555 1_555
C13A H9A 1_555 1_555
C14A C13A 1_555 1_555
H10A C14A 1_555 1_555
C15A N3A 1_555 1_555
H11A C15A 1_555 1_555
C16A C15A 1_555 1_555
H12A C16A 1_555 1_555
C17A C14A 1_555 1_555
C18A N6A 1_555 1_555
N3B C13B 1_555 1_555
N6B C18A 1_555 1_555
C13B H9B 1_555 1_555
C14B C13B 1_555 1_555
H10B C14B 1_555 1_555
C15B N3B 1_555 1_555
H11B C15B 1_555 1_555
C16B C15B 1_555 1_555
H12B C16B 1_555 1_555
C17B C14B 1_555 1_555
C18B N6 1_555 1_555
O1A P1 1_555 1_555
O1B P1 1_555 1_555
O2A P2 1_555 1_555
O2B P2 1_555 1_555
O3A P3 1_555 1_555
O3B P3 1_555 1_555
O4A P4 1_555 1_555
O4B P4 1_555 1_555
Zn1A O8A 1_555 1_555
Zn2A O3A 1_555 1_555
Zn3A O5A 1_555 1_555
P5A O5A 1_555 1_555
P6A O9A 1_555 1_555
O6A Zn2A 1_555 1_555
O7A P5A 1_555 1_555
O8A P5A 1_555 1_555
O9A Zn1A 1_555 1_555
O10A P6A 1_555 1_555
O11A P6A 1_555 1_555
O12A P6A 1_555 1_555
Zn1C O8C 1_555 1_555
Zn2C O6C 1_555 1_555
Zn3C O5C 1_555 1_555
P5C O5C 1_555 1_555
P6C O9C 1_555 1_555
O6C P5C 1_555 1_555
O7C P5C 1_555 1_555
O8C P5C 1_555 1_555
O9C Zn1C 1_555 1_555
O10C Zn3 1_555 1_555
O11C P6C 1_555 1_555
O12C P6C 1_555 1_555
Zn1A_2 N1A 1_555 1_555
Zn1A_3 O1A 1_555 1_555
Zn1B O1B 1_555 1_555
Zn1B_2 N1B 1_555 1_555
Zn2A_2 N2A 1_555 1_555
Zn2B O3B 1_555 1_555
Zn2B_2 N2B 1_555 1_555
Zn3A_2 N3A 1_555 1_555
Zn3A_3 O2A 1_555 1_555
Zn3B N3B 1_555 1_555
Zn3B_2 O2B 1_555 1_555
Zn3C_2 O10 1_555 1_555
Zn3D O10A 1_555 1_555
N1A_2 Zn1A 1_555 1_555
N1C Zn1C 1_555 1_555
N2A_2 Zn2A 1_555 1_555
N2C Zn2C 1_555 1_555
N3A_2 Zn3A 1_555 1_555
N3C Zn3C 1_555 1_555
O1A_2 Zn1A 1_555 1_555
O1C Zn1C 1_555 1_555
O2A_2 Zn3A 1_555 1_555
O2C Zn3C 1_555 1_555
O3C Zn2C 1_555 1_555
O4C Zn2C 1_555 1_555
O10_2 Zn3C 1_555 1_555
O10D Zn3A 1_555 1_555
C4 C5 1_555 1_555
C10 C11 1_555 1_555
C16 C17 1_555 1_555
P1 O1 1_555 1_555
P2 O2 1_555 1_555
P3 O3 1_555 1_555
P4 O4 1_555 1_555
P5 O6 1_555 1_555
P5 O8 1_555 1_555
C4A C5A 1_555 1_555
C5A C6A 1_555 1_555
N4B C6B 1_555 1_555
C4B C5B 1_555 1_555
C5B C6B 1_555 1_555
C10A C11A 1_555 1_555
C11A C12A 1_555 1_555
N5B C12B 1_555 1_555
C10B C11B 1_555 1_555
C11B C12B 1_555 1_555
C16A C17A 1_555 1_555
C17A C18A 1_555 1_555
N6B C18B 1_555 1_555
C16B C17B 1_555 1_555
C17B C18B 1_555 1_555
O4A Zn2A 1_555 1_555
O4B Zn2B 1_555 1_555
P5A O6A 1_555 1_555
P6C O10C 1_555 1_555

#END
