
#######################################################################
#
#                 Cambridge Crystallographic Data Centre
#                                CCDC 
#
#######################################################################
#
# If this CIF has been generated from an entry in the Cambridge 
# Structural Database, then it will include bibliographic, chemical, 
# crystal, experimental, refinement or atomic coordinate data resulting 
# from the CCDC's data processing and validation procedures.
#
#######################################################################

data_SEZLEP
_symmetry_cell_setting           monoclinic
_symmetry_space_group_name_H-M   'P 21/n'
_symmetry_Int_Tables_number      14
_space_group_name_Hall           '-P 2yn'
loop_
_symmetry_equiv_pos_site_id
_symmetry_equiv_pos_as_xyz
1 x,y,z
2 1/2-x,1/2+y,1/2-z
3 -x,-y,-z
4 1/2+x,1/2-y,1/2+z
_cell_length_a                   8.5814(17)
_cell_length_b                   19.426(4)
_cell_length_c                   10.118(2)
_cell_angle_alpha                90
_cell_angle_beta                 96.62(3)
_cell_angle_gamma                90
_cell_volume                     1675.45
loop_
_atom_site_label
_atom_site_type_symbol
_atom_site_fract_x
_atom_site_fract_y
_atom_site_fract_z
Cd1 Cd 0.62575(3) 0.126499(13) -0.00522(2)
C1 C 0.5187(4) 0.09638(18) 0.2509(3)
C2 C 0.4269(4) 0.08147(17) 0.3648(3)
C3 C 0.2763(4) 0.0551(2) 0.3427(3)
H1 H 0.2317 0.0460 0.2562
C4 C 0.1916(5) 0.0421(2) 0.4486(4)
H2 H 0.0908 0.0240 0.4332
C5 C 0.2567(4) 0.0560(2) 0.5771(4)
H3 H 0.1993 0.0476 0.6480
C6 C 0.4068(4) 0.08246(18) 0.6005(3)
C7 C 0.4910(4) 0.09442(17) 0.4950(3)
H4 H 0.5926 0.1115 0.5111
C8 C 0.4787(5) 0.09777(19) 0.7409(3)
C9 C 0.4551(5) 0.2715(2) -0.0865(4)
H5 H 0.4486 0.2583 -0.1753
C10 C 0.4217(5) 0.3304(2) 0.0894(5)
H6 H 0.3900 0.3638 0.1466
C11 C 0.5107(5) 0.2741(2) 0.1236(4)
H7 H 0.5520 0.2627 0.2098
C12 C 0.9356(5) 0.2230(2) 0.0358(5)
H8 H 0.8739 0.2623 0.0369
C13 C 1.0914(5) 0.2224(3) 0.0541(6)
H9 H 1.1573 0.2601 0.0718
C14 C 1.0032(5) 0.1198(2) 0.0178(6)
H10 H 1.0006 0.0724 0.0043
N1 N 0.5306(3) 0.23666(16) 0.0119(3)
N2 N 0.3883(4) 0.32837(18) -0.0434(4)
H11 H 0.3341 0.3581 -0.0920
N3 N 0.8796(3) 0.15874(17) 0.0155(3)
N4 N 1.1341(4) 0.1569(2) 0.0420(5)
H12 H 1.2286 0.1414 0.0486
O1 O 0.6579(3) 0.11455(15) 0.2694(2)
O2 O 0.4465(3) 0.09048(13) 0.1340(2)
O3 O 0.4025(4) 0.08487(16) 0.8356(2)
O4 O 0.6113(4) 0.12435(16) 0.7584(2)
O5 O 0.7222(3) 0.01162(13) 0.0089(2)
H13 H 0.705(5) -0.007(2) 0.084(2)
H14 H 0.675(5) -0.0156(18) -0.050(3)
Cd1_2 Cd 0.62575(3) 0.126499(13) 0.99478(2)
O3_2 O 0.4025(4) 0.08487(16) -0.1644(2)
O4_2 O 0.6113(4) 0.12435(16) -0.2416(2)
loop_
_geom_bond_atom_site_label_1
_geom_bond_atom_site_label_2
_geom_bond_site_symmetry_1
_geom_bond_site_symmetry_2
Cd1 N1 1_555 1_555
C1 C2 1_555 1_555
C2 C3 1_555 1_555
C3 H1 1_555 1_555
C4 C3 1_555 1_555
H2 C4 1_555 1_555
C5 C4 1_555 1_555
H3 C5 1_555 1_555
C6 C5 1_555 1_555
C7 C2 1_555 1_555
H4 C7 1_555 1_555
C8 C6 1_555 1_555
C9 H5 1_555 1_555
C10 H6 1_555 1_555
C11 C10 1_555 1_555
H7 C11 1_555 1_555
C12 H8 1_555 1_555
C13 C12 1_555 1_555
H9 C13 1_555 1_555
C14 H10 1_555 1_555
N1 C9 1_555 1_555
N2 C9 1_555 1_555
H11 N2 1_555 1_555
N3 Cd1 1_555 1_555
N4 C13 1_555 1_555
H12 N4 1_555 1_555
O1 C1 1_555 1_555
O2 Cd1 1_555 1_555
O3 C8 1_555 1_555
O4 C8 1_555 1_555
O5 Cd1 1_555 1_555
H13 O5 1_555 1_555
H14 O5 1_555 1_555
Cd1_2 O3 1_555 1_555
O3_2 Cd1 1_555 1_555
O4_2 Cd1 1_555 1_555
C1 O2 1_555 1_555
C6 C7 1_555 1_555
C10 N2 1_555 1_555
C11 N1 1_555 1_555
C12 N3 1_555 1_555
C14 N3 1_555 1_555
C14 N4 1_555 1_555
O4 Cd1_2 1_555 1_555

#END
