
#######################################################################
#
#                 Cambridge Crystallographic Data Centre
#                                CCDC 
#
#######################################################################
#
# If this CIF has been generated from an entry in the Cambridge 
# Structural Database, then it will include bibliographic, chemical, 
# crystal, experimental, refinement or atomic coordinate data resulting 
# from the CCDC's data processing and validation procedures.
#
#######################################################################

data_SEZNIV01
_symmetry_cell_setting           triclinic
_symmetry_space_group_name_H-M   'P -1'
_symmetry_Int_Tables_number      2
_space_group_name_Hall           '-P 1'
loop_
_symmetry_equiv_pos_site_id
_symmetry_equiv_pos_as_xyz
1 x,y,z
2 -x,-y,-z
_cell_length_a                   7.6740(3)
_cell_length_b                   11.9230(5)
_cell_length_c                   14.7590(9)
_cell_angle_alpha                76.154(4)
_cell_angle_beta                 75.793(5)
_cell_angle_gamma                89.003(4)
_cell_volume                     1269.84
loop_
_atom_site_label
_atom_site_type_symbol
_atom_site_fract_x
_atom_site_fract_y
_atom_site_fract_z
Mn1 Mn 0.27196(5) 0.54371(4) 0.41584(3)
O1 O 0.0878(2) 0.42600(17) 0.39133(13)
O2 O -0.0970(2) 0.33467(16) 0.53257(13)
O3 O 0.4909(2) 0.64818(18) 0.43222(13)
O4 O 0.7479(3) 0.5626(2) 0.44602(15)
O5 O 0.2290(4) 0.2308(3) 0.12918(19)
O6 O 0.0821(4) 0.0729(2) 0.14161(19)
O7 O -0.2718(5) -0.1327(2) 0.4525(2)
O8 O -0.3553(5) -0.0412(3) 0.5644(2)
O9 O 1.0994(3) 0.5287(3) 0.1181(2)
O10 O 1.0965(4) 0.6697(3) -0.00399(19)
O11 O 0.7787(4) 1.0125(2) 0.04186(17)
O12 O 0.6376(4) 1.0223(2) 0.18562(19)
N1 N 0.4700(3) 0.4497(2) 0.31642(15)
N2 N 0.3213(3) 0.6519(2) 0.26116(15)
N3 N 0.1214(4) 0.1510(3) 0.1748(2)
N4 N -0.2689(5) -0.0481(3) 0.4846(2)
N5 N 1.0512(3) 0.6234(3) 0.0814(2)
N6 N 0.7266(4) 0.9707(2) 0.12895(18)
C1 C -0.0114(3) 0.3441(2) 0.44673(19)
C2 C -0.0328(3) 0.2410(2) 0.4056(2)
C3 C 0.0566(3) 0.2429(3) 0.3112(2)
H1 H 0.1316 0.3077 0.2718
C4 C 0.0336(4) 0.1478(3) 0.2760(2)
C5 C -0.0713(4) 0.0519(3) 0.3302(2)
H2 H -0.0848 -0.0124 0.3045
C6 C -0.1561(4) 0.0528(3) 0.4235(2)
C7 C -0.1418(4) 0.1467(3) 0.4622(2)
H3 H -0.2056 0.1459 0.5263
C8 C 0.6526(3) 0.6271(3) 0.40181(19)
C9 C 0.7420(3) 0.6875(2) 0.29906(19)
C10 C 0.8653(3) 0.6305(3) 0.2411(2)
H4 H 0.9034 0.5560 0.2668
C11 C 0.9300(3) 0.6857(3) 0.1451(2)
C12 C 0.8890(4) 0.7974(3) 0.10500(19)
H5 H 0.9370 0.8340 0.0389
C13 C 0.7738(4) 0.8524(3) 0.16698(19)
C14 C 0.6953(3) 0.7988(2) 0.26185(18)
H6 H 0.6107 0.8375 0.3010
C15 C 0.5157(4) 0.3412(3) 0.3477(2)
H7 H 0.5040 0.3120 0.4148
C16 C 0.5795(4) 0.2694(3) 0.2866(2)
H8 H 0.6100 0.1925 0.3112
C17 C 0.5976(4) 0.3123(3) 0.1893(2)
H9 H 0.6400 0.2650 0.1457
C18 C 0.5536(4) 0.4245(3) 0.1556(2)
H10 H 0.5679 0.4559 0.0885
C19 C 0.4876(3) 0.4913(2) 0.22129(19)
C20 C 0.4316(3) 0.6108(2) 0.19150(18)
C21 C 0.4888(4) 0.6775(3) 0.0976(2)
H11 H 0.5674 0.6470 0.0497
C22 C 0.4308(4) 0.7878(3) 0.0747(2)
H12 H 0.4683 0.8345 0.0108
C23 C 0.3165(4) 0.8299(3) 0.1463(2)
H13 H 0.2733 0.9056 0.1323
C24 C 0.2668(3) 0.7600(2) 0.2379(2)
H14 H 0.1904 0.7897 0.2871
Mn1A Mn -0.27196(5) 0.45629(4) 0.58416(3)
Mn1A_2 Mn 0.72804(5) 0.45629(4) 0.58416(3)
O2A O 0.0970(2) 0.66533(16) 0.46743(13)
O4A O 0.2521(3) 0.4374(2) 0.55398(15)
loop_
_geom_bond_atom_site_label_1
_geom_bond_atom_site_label_2
_geom_bond_site_symmetry_1
_geom_bond_site_symmetry_2
Mn1 O1 1_555 1_555
O1 C1 1_555 1_555
O2 C1 1_555 1_555
O3 Mn1 1_555 1_555
O4 C8 1_555 1_555
O5 N3 1_555 1_555
O6 N3 1_555 1_555
O7 N4 1_555 1_555
O8 N4 1_555 1_555
O9 N5 1_555 1_555
O10 N5 1_555 1_555
O11 N6 1_555 1_555
O12 N6 1_555 1_555
N1 Mn1 1_555 1_555
N2 Mn1 1_555 1_555
N3 C4 1_555 1_555
N4 C6 1_555 1_555
N5 C11 1_555 1_555
N6 C13 1_555 1_555
C1 C2 1_555 1_555
C2 C3 1_555 1_555
C3 H1 1_555 1_555
C4 C3 1_555 1_555
C5 C4 1_555 1_555
H2 C5 1_555 1_555
C6 C5 1_555 1_555
C7 C2 1_555 1_555
H3 C7 1_555 1_555
C8 O3 1_555 1_555
C9 C8 1_555 1_555
C10 C9 1_555 1_555
H4 C10 1_555 1_555
C11 C10 1_555 1_555
C12 C11 1_555 1_555
H5 C12 1_555 1_555
C13 C12 1_555 1_555
C14 C9 1_555 1_555
H6 C14 1_555 1_555
C15 N1 1_555 1_555
H7 C15 1_555 1_555
C16 C15 1_555 1_555
H8 C16 1_555 1_555
C17 C16 1_555 1_555
H9 C17 1_555 1_555
C18 C17 1_555 1_555
H10 C18 1_555 1_555
C19 N1 1_555 1_555
C20 N2 1_555 1_555
C21 C20 1_555 1_555
H11 C21 1_555 1_555
C22 C21 1_555 1_555
H12 C22 1_555 1_555
C23 C22 1_555 1_555
H13 C23 1_555 1_555
C24 N2 1_555 1_555
H14 C24 1_555 1_555
Mn1A O2 1_555 1_555
Mn1A_2 O4 1_555 1_555
O2A Mn1 1_555 1_555
O4A Mn1 1_555 1_555
C6 C7 1_555 1_555
C13 C14 1_555 1_555
C18 C19 1_555 1_555
C19 C20 1_555 1_555
C23 C24 1_555 1_555

#END
