
#######################################################################
#
#                 Cambridge Crystallographic Data Centre
#                                CCDC 
#
#######################################################################
#
# If this CIF has been generated from an entry in the Cambridge 
# Structural Database, then it will include bibliographic, chemical, 
# crystal, experimental, refinement or atomic coordinate data resulting 
# from the CCDC's data processing and validation procedures.
#
#######################################################################

data_SEZNIV
_symmetry_cell_setting           triclinic
_symmetry_space_group_name_H-M   'P -1'
_symmetry_Int_Tables_number      2
_space_group_name_Hall           '-P 1'
loop_
_symmetry_equiv_pos_site_id
_symmetry_equiv_pos_as_xyz
1 x,y,z
2 -x,-y,-z
_cell_length_a                   7.8100(5)
_cell_length_b                   11.9700(4)
_cell_length_c                   14.7695(3)
_cell_angle_alpha                103.834(3)
_cell_angle_beta                 104.393(3)
_cell_angle_gamma                90.169(3)
_cell_volume                     1295.75
loop_
_atom_site_label
_atom_site_type_symbol
_atom_site_fract_x
_atom_site_fract_y
_atom_site_fract_z
Mn1 Mn 0.27297(4) 0.04131(3) 0.58413(2)
O1 O 0.4926(2) 0.14433(16) 0.56730(12)
O2 O 0.7470(3) 0.06908(19) 0.55183(13)
O3 O 0.6478(6) 0.5202(3) 0.8170(3)
O4 O 0.7802(5) 0.5083(3) 0.95874(19)
O5 O 1.0905(4) 0.0325(3) 0.8799(3)
O6 O 1.0929(6) 0.1715(4) 1.0015(2)
O7 O 0.1068(2) 0.16237(14) 0.53174(12)
O8 O -0.0830(2) 0.07221(15) 0.39219(12)
O9 O -0.0975(6) 0.4286(4) 0.1463(3)
O10 O -0.2323(5) 0.2680(4) 0.1333(2)
O11 O 0.3519(6) 0.5428(3) 0.5660(3)
O12 O 0.2728(7) 0.6312(3) 0.4541(3)
N1 N 0.4654(3) -0.05014(18) 0.68421(13)
N2 N 0.3243(3) 0.14950(17) 0.73943(13)
N3 N 0.7301(5) 0.4692(3) 0.8727(2)
N4 N 1.0439(4) 0.1239(4) 0.9159(2)
N5 N 0.2685(6) 0.5478(3) 0.4860(3)
N6 N -0.1307(6) 0.3488(4) 0.1790(3)
C1 C 0.5137(4) -0.1568(2) 0.65319(18)
H1 H 0.4993 -0.1861 0.5873
C2 C 0.5833(4) -0.2247(3) 0.7139(2)
H2 H 0.6133 -0.2990 0.6896
C3 C 0.6081(5) -0.1816(3) 0.8109(2)
H3 H 0.6559 -0.2261 0.8536
C4 C 0.5617(4) -0.0721(3) 0.84453(18)
H4 H 0.5788 -0.0412 0.9104
C5 C 0.2694(4) 0.2554(2) 0.76242(19)
H5 H 0.1952 0.2836 0.7143
C6 C 0.3189(4) 0.3250(3) 0.8554(2)
H6 H 0.2777 0.3984 0.8695
C7 C 0.4284(4) 0.2848(3) 0.9258(2)
H7 H 0.4631 0.3304 0.9887
C8 C 0.4872(4) 0.1762(3) 0.90345(17)
H8 H 0.5631 0.1475 0.9506
C9 C 0.4892(3) -0.0078(2) 0.77955(15)
C10 C 0.4316(3) 0.1099(2) 0.80903(15)
C11 C 0.7405(3) 0.1884(2) 0.70068(15)
C12 C 0.6962(3) 0.2983(2) 0.73835(17)
H9 H 0.6151 0.3359 0.7003
C13 C 0.7750(4) 0.3510(3) 0.83374(18)
C14 C 0.8860(4) 0.2973(3) 0.89399(18)
H10 H 0.9326 0.3330 0.9589
C15 C 0.9260(4) 0.1880(3) 0.85439(19)
C16 C 0.8593(3) 0.1328(3) 0.75767(18)
H11 H 0.8938 0.0603 0.7320
C17 C 0.6523(3) 0.1282(2) 0.59720(15)
C18 C 0.1566(5) 0.4458(2) 0.4255(2)
C19 C 0.1453(4) 0.3521(2) 0.4630(2)
H12 H 0.2108 0.3527 0.5250
C20 C 0.0353(3) 0.2573(2) 0.40705(17)
C21 C -0.0565(4) 0.2563(3) 0.3138(2)
H13 H -0.1305 0.1926 0.2753
C22 C -0.0368(5) 0.3514(3) 0.2785(2)
C23 C 0.0685(5) 0.4480(3) 0.3336(3)
H14 H 0.0793 0.5119 0.3095
C24 C 0.0180(3) 0.1546(2) 0.44746(16)
Mn1A Mn 0.72703(4) -0.04131(3) 0.41587(2)
Mn1A_2 Mn -0.27297(4) -0.04131(3) 0.41587(2)
O2A O 0.2530(3) -0.06908(19) 0.44817(13)
O8A O 0.0830(2) -0.07221(15) 0.60781(12)
loop_
_geom_bond_atom_site_label_1
_geom_bond_atom_site_label_2
_geom_bond_site_symmetry_1
_geom_bond_site_symmetry_2
Mn1 O1 1_555 1_555
O1 C17 1_555 1_555
O2 C17 1_555 1_555
O3 N3 1_555 1_555
O4 N3 1_555 1_555
O5 N4 1_555 1_555
O6 N4 1_555 1_555
O7 Mn1 1_555 1_555
O8 C24 1_555 1_555
O9 N6 1_555 1_555
O10 N6 1_555 1_555
O11 N5 1_555 1_555
O12 N5 1_555 1_555
N1 Mn1 1_555 1_555
N2 Mn1 1_555 1_555
N3 C13 1_555 1_555
N4 C15 1_555 1_555
N5 C18 1_555 1_555
N6 C22 1_555 1_555
C1 N1 1_555 1_555
H1 C1 1_555 1_555
C2 C1 1_555 1_555
H2 C2 1_555 1_555
C3 C2 1_555 1_555
H3 C3 1_555 1_555
C4 C3 1_555 1_555
H4 C4 1_555 1_555
C5 N2 1_555 1_555
H5 C5 1_555 1_555
C6 C5 1_555 1_555
H6 C6 1_555 1_555
C7 C6 1_555 1_555
H7 C7 1_555 1_555
C8 C7 1_555 1_555
H8 C8 1_555 1_555
C9 N1 1_555 1_555
C10 N2 1_555 1_555
C11 C12 1_555 1_555
C12 H9 1_555 1_555
C13 C12 1_555 1_555
C14 C13 1_555 1_555
H10 C14 1_555 1_555
C15 C14 1_555 1_555
C16 C11 1_555 1_555
H11 C16 1_555 1_555
C17 C11 1_555 1_555
C18 C19 1_555 1_555
C19 H12 1_555 1_555
C20 C19 1_555 1_555
C21 C20 1_555 1_555
H13 C21 1_555 1_555
C22 C21 1_555 1_555
C23 C18 1_555 1_555
H14 C23 1_555 1_555
C24 O7 1_555 1_555
Mn1A O2 1_555 1_555
Mn1A_2 O8 1_555 1_555
O2A Mn1 1_555 1_555
O8A Mn1 1_555 1_555
C4 C9 1_555 1_555
C8 C10 1_555 1_555
C9 C10 1_555 1_555
C15 C16 1_555 1_555
C20 C24 1_555 1_555
C22 C23 1_555 1_555

#END
