
#######################################################################
#
#                 Cambridge Crystallographic Data Centre
#                                CCDC 
#
#######################################################################
#
# If this CIF has been generated from an entry in the Cambridge 
# Structural Database, then it will include bibliographic, chemical, 
# crystal, experimental, refinement or atomic coordinate data resulting 
# from the CCDC's data processing and validation procedures.
#
#######################################################################

data_SEZQIZ
_symmetry_cell_setting           monoclinic
_symmetry_space_group_name_H-M   'P 21/c'
_symmetry_Int_Tables_number      14
_space_group_name_Hall           '-P 2ybc'
loop_
_symmetry_equiv_pos_site_id
_symmetry_equiv_pos_as_xyz
1 x,y,z
2 -x,1/2+y,1/2-z
3 -x,-y,-z
4 x,1/2-y,1/2+z
_cell_length_a                   12.856(8)
_cell_length_b                   16.588(10)
_cell_length_c                   6.988(4)
_cell_angle_alpha                90
_cell_angle_beta                 98.018(7)
_cell_angle_gamma                90
_cell_volume                     1475.66
loop_
_atom_site_label
_atom_site_type_symbol
_atom_site_fract_x
_atom_site_fract_y
_atom_site_fract_z
Tb1 Tb 0.54276(5) 0.60086(4) 0.20476(8)
O1 O 0.5668(7) 0.7303(5) 0.0962(13)
O2 O 0.5222(7) 0.8566(5) 0.0155(13)
O3 O 0.3604(7) 0.9847(5) 0.1378(12)
O4 O 0.4530(7) 0.9351(5) 0.4012(12)
O5 O 0.6670(7) 0.5787(5) 0.0046(13)
O6 O 0.8278(8) 0.5397(7) -0.0378(17)
O7 O 1.0278(9) 0.6336(7) 0.0759(17)
O8 O 1.0341(9) 0.5193(8) 0.2425(16)
H1 H 1.057(10) 0.506(8) 0.144(11)
O9 O 0.3996(7) 0.5266(5) 0.2734(14)
N1 N 0.3756(8) 0.7027(7) 0.1848(14)
C1 C 0.4053(10) 0.7796(8) 0.1692(18)
C2 C 0.5059(11) 0.7904(8) 0.0922(19)
C3 C 0.3442(11) 0.8435(7) 0.2169(19)
C4 C 0.3890(10) 0.9274(8) 0.2486(19)
C5 C 0.2425(11) 0.8283(8) 0.2611(18)
H2 H 0.1991 0.8701 0.2906
C6 C 0.2103(12) 0.7503(8) 0.259(2)
H3 H 0.1422 0.7382 0.2806
C7 C 0.2780(10) 0.6886(8) 0.2254(17)
H4 H 0.2552 0.6356 0.2309
N2 N 0.7352(9) 0.6373(7) 0.3525(16)
C8 C 0.8074(11) 0.6113(8) 0.2486(19)
C9 C 0.7663(12) 0.5740(8) 0.0540(19)
C10 C 0.9149(11) 0.6164(8) 0.310(2)
C11 C 0.9953(12) 0.5918(10) 0.189(2)
C12 C 0.9475(11) 0.6476(9) 0.492(2)
H5 H 1.0186 0.6515 0.5391
C13 C 0.8734(12) 0.6726(9) 0.602(2)
H6 H 0.8937 0.6925 0.7265
C14 C 0.7687(10) 0.6680(8) 0.5276(18)
H7 H 0.7192 0.6870 0.6017
Tb1A Tb 0.45724(5) 1.10086(4) 0.29524(8)
Tb1C Tb 0.54276(5) 0.89914(4) -0.29524(8)
Tb1C_2 Tb 0.54276(5) 0.89914(4) 0.70476(8)
O2C O 0.5222(7) 0.6434(5) 0.5155(13)
O3A O 0.6396(7) 0.4847(5) 0.3622(12)
O4A O 0.5470(7) 0.4351(5) 0.0988(12)
O4C O 0.4530(7) 0.5649(5) -0.0988(12)
loop_
_geom_bond_atom_site_label_1
_geom_bond_atom_site_label_2
_geom_bond_site_symmetry_1
_geom_bond_site_symmetry_2
Tb1 O1 1_555 1_555
O1 C2 1_555 1_555
O2 C2 1_555 1_555
O3 C4 1_555 1_555
O4 C4 1_555 1_555
O5 Tb1 1_555 1_555
O6 C9 1_555 1_555
O7 C11 1_555 1_555
O8 H1 1_555 1_555
O9 Tb1 1_555 1_555
N1 Tb1 1_555 1_555
C1 N1 1_555 1_555
C2 C1 1_555 1_555
C3 C1 1_555 1_555
C4 C3 1_555 1_555
C5 C3 1_555 1_555
H2 C5 1_555 1_555
C6 C5 1_555 1_555
H3 C6 1_555 1_555
C7 N1 1_555 1_555
H4 C7 1_555 1_555
N2 Tb1 1_555 1_555
C8 N2 1_555 1_555
C9 O5 1_555 1_555
C10 C8 1_555 1_555
C11 O8 1_555 1_555
C12 C10 1_555 1_555
H5 C12 1_555 1_555
C13 C12 1_555 1_555
H6 C13 1_555 1_555
C14 N2 1_555 1_555
H7 C14 1_555 1_555
Tb1A O3 1_555 1_555
Tb1C O2 1_555 1_555
Tb1C_2 O4 1_555 1_555
O2C Tb1 1_555 1_555
O3A Tb1 1_555 1_555
O4A Tb1 1_555 1_555
O4C Tb1 1_555 1_555
O4 Tb1A 1_555 1_555
C6 C7 1_555 1_555
C8 C9 1_555 1_555
C10 C11 1_555 1_555
C13 C14 1_555 1_555

#END
