
#######################################################################
#
#                 Cambridge Crystallographic Data Centre
#                                CCDC 
#
#######################################################################
#
# If this CIF has been generated from an entry in the Cambridge 
# Structural Database, then it will include bibliographic, chemical, 
# crystal, experimental, refinement or atomic coordinate data resulting 
# from the CCDC's data processing and validation procedures.
#
#######################################################################

data_SEZSOH
_symmetry_cell_setting           triclinic
_symmetry_space_group_name_H-M   'P -1'
_symmetry_Int_Tables_number      2
_space_group_name_Hall           '-P 1'
loop_
_symmetry_equiv_pos_site_id
_symmetry_equiv_pos_as_xyz
1 x,y,z
2 -x,-y,-z
_cell_length_a                   13.1431(8)
_cell_length_b                   13.4151(10)
_cell_length_c                   13.7079(9)
_cell_angle_alpha                62.032(2)
_cell_angle_beta                 64.1690(10)
_cell_angle_gamma                83.174(2)
_cell_volume                     1910.22
loop_
_atom_site_label
_atom_site_type_symbol
_atom_site_fract_x
_atom_site_fract_y
_atom_site_fract_z
Cu1 Cu 0.50980(3) 0.91287(3) 0.67359(3)
Cu2 Cu 0.65311(3) 0.94478(3) 0.44496(3)
Cu3 Cu 0.43310(3) 0.84080(3) 0.56307(3)
S1 S 0.59427(5) 0.75978(5) 0.54070(6)
S2 S 0.61556(5) 1.07634(6) 0.59610(6)
S3 S 0.67683(5) 1.06167(5) 0.24849(5)
N1 N 0.56685(17) 0.75924(18) 0.74627(19)
N2 N 0.64559(19) 0.60234(19) 0.7146(2)
N3 N 0.6183(2) 0.61007(19) 0.8956(2)
N4 N 0.5468(2) 0.7692(2) 0.9158(2)
H1 H 0.5317 0.8312 0.8799
N5 N 0.6986(2) 0.4620(2) 0.8576(2)
N6 N 0.78233(17) 1.00247(18) 0.45563(18)
N7 N 0.83650(19) 1.13883(19) 0.4934(2)
N8 N 0.97892(18) 1.0670(2) 0.3669(2)
N9 N 0.9178(2) 0.9346(2) 0.3337(2)
H2 H 0.8596 0.9116 0.3355
N10 N 1.0266(2) 1.2031(2) 0.4006(2)
N11 N 0.71465(17) 1.23274(18) 0.28000(18)
N12 N 0.87224(17) 1.19068(18) 0.13749(18)
N13 N 0.89565(18) 1.34034(18) 0.17785(19)
N14 N 0.7347(2) 1.3754(2) 0.3187(2)
H3 H 0.6699 1.3494 0.3653
N15 N 1.04757(19) 1.28882(19) 0.0511(2)
C1 C 0.6023(2) 0.7005(2) 0.6821(2)
C2 C 0.6523(2) 0.5603(2) 0.8219(3)
C3 C 0.5783(2) 0.7085(2) 0.8532(2)
C4 C 0.5529(2) 0.7483(3) 1.0239(3)
C5 C 0.5497(4) 0.8404(4) 1.0439(3)
H4 H 0.5430 0.9117 0.9875
C6 C 0.5565(5) 0.8281(5) 1.1470(4)
H5 H 0.5574 0.8915 1.1576
C7 C 0.5618(4) 0.7234(5) 1.2332(4)
H6 H 0.5644 0.7148 1.3034
C8 C 0.5633(3) 0.6320(4) 1.2149(3)
H7 H 0.5676 0.5608 1.2732
C9 C 0.5587(3) 0.6421(3) 1.1105(3)
H8 H 0.5595 0.5785 1.0996
C10 C 0.7429(4) 0.4062(3) 0.7796(4)
H9 H 0.6845 0.3944 0.7607
H10 H 0.7664 0.3344 0.8219
H11 H 0.8067 0.4534 0.7050
C11 C 0.7120(3) 0.4102(3) 0.9702(3)
H12 H 0.6541 0.4309 1.0284
H13 H 0.7856 0.4362 0.9536
H14 H 0.7053 0.3291 1.0032
C12 C 0.7600(2) 1.0709(2) 0.5083(2)
C13 C 0.8952(2) 1.0044(2) 0.3865(2)
C14 C 0.9454(2) 1.1340(2) 0.4211(2)
C15 C 1.0229(2) 0.9258(2) 0.2466(2)
C16 C 1.1245(3) 0.9279(3) 0.2540(3)
H15 H 1.1260 0.9376 0.3163
C17 C 1.2242(3) 0.9155(3) 0.1672(3)
H16 H 1.2924 0.9159 0.1722
C18 C 1.2225(3) 0.9026(3) 0.0741(3)
H17 H 1.2899 0.8965 0.0151
C19 C 1.1225(3) 0.8987(3) 0.0684(3)
H18 H 1.1213 0.8883 0.0065
C20 C 1.0223(3) 0.9104(2) 0.1546(3)
H19 H 0.9541 0.9077 0.1502
C21 C 1.0001(3) 1.2869(3) 0.4445(4)
H20 H 0.9194 1.2810 0.4910
H21 H 1.0261 1.3615 0.3759
H22 H 1.0373 1.2736 0.4955
C22 C 1.1453(3) 1.2018(3) 0.3268(3)
H23 H 1.1549 1.1343 0.3173
H24 H 1.1897 1.2029 0.3664
H25 H 1.1700 1.2674 0.2477
C23 C 0.7632(2) 1.1743(2) 0.2164(2)
C24 C 0.9357(2) 1.2726(2) 0.1236(2)
C25 C 0.7862(2) 1.3155(2) 0.2548(2)
C26 C 0.7826(3) 1.4516(2) 0.3349(3)
C27 C 0.8874(3) 1.5144(3) 0.2544(3)
H26 H 0.9325 1.5063 0.1847
C28 C 0.9259(4) 1.5904(3) 0.2776(4)
H27 H 0.9971 1.6317 0.2240
C29 C 0.8594(5) 1.6041(4) 0.3786(5)
H28 H 0.8848 1.6554 0.3930
C30 C 0.7554(5) 1.5422(4) 0.4587(4)
H29 H 0.7107 1.5511 0.5280
C31 C 0.7156(4) 1.4659(3) 0.4373(4)
H30 H 0.6444 1.4248 0.4917
C32 C 1.1212(3) 1.3740(3) 0.0343(3)
H31 H 1.0926 1.3809 0.1081
H32 H 1.1228 1.4457 -0.0321
H33 H 1.1967 1.3516 0.0158
C33 C 1.1034(2) 1.2146(3) -0.0033(3)
H34 H 1.0468 1.1650 0.0094
H35 H 1.1510 1.1702 0.0347
H36 H 1.1489 1.2597 -0.0895
Cu1A Cu 0.49020(3) 1.08713(3) 0.32641(3)
Cu2A Cu 0.34689(3) 1.05522(3) 0.55504(3)
Cu3A Cu 0.56690(3) 1.15920(3) 0.43693(3)
S1A S 0.40573(5) 1.24022(5) 0.45930(6)
S2A S 0.38444(5) 0.92366(6) 0.40390(6)
S3A S 0.32317(5) 0.93833(5) 0.75151(5)
N1A N 0.43315(17) 1.24076(18) 0.25373(19)
N2A N 0.35441(19) 1.39766(19) 0.2854(2)
N3A N 0.3817(2) 1.38993(19) 0.1044(2)
N4A N 0.4532(2) 1.2308(2) 0.0842(2)
H1A H 0.4683 1.1688 0.1201
N5A N 0.3014(2) 1.5380(2) 0.1424(2)
N6A N 0.21767(17) 0.99753(18) 0.54437(18)
N7A N 0.16350(19) 0.86117(19) 0.5066(2)
N8A N 0.02108(18) 0.9330(2) 0.6331(2)
N9A N 0.0822(2) 1.0654(2) 0.6663(2)
H2A H 0.1404 1.0884 0.6645
N10A N -0.0266(2) 0.7969(2) 0.5994(2)
N11A N 0.28535(17) 0.76726(18) 0.72000(18)
N12A N 0.12776(17) 0.80932(18) 0.86251(18)
N13A N 0.10435(18) 0.65966(18) 0.82215(19)
N14A N 0.2653(2) 0.6246(2) 0.6813(2)
H3A H 0.3301 0.6506 0.6347
N15A N -0.04757(19) 0.71118(19) 0.9489(2)
C1A C 0.3977(2) 1.2995(2) 0.3179(2)
C2A C 0.3477(2) 1.4397(2) 0.1781(3)
C3A C 0.4217(2) 1.2915(2) 0.1468(2)
C4A C 0.4471(2) 1.2517(3) -0.0239(3)
C5A C 0.4503(4) 1.1596(4) -0.0439(3)
H4A H 0.4570 1.0883 0.0125
C6A C 0.4435(5) 1.1719(5) -0.1470(4)
H5A H 0.4426 1.1085 -0.1576
C7A C 0.4382(4) 1.2766(5) -0.2332(4)
H6A H 0.4356 1.2852 -0.3034
C8A C 0.4367(3) 1.3680(4) -0.2149(3)
H7A H 0.4324 1.4392 -0.2732
C9A C 0.4413(3) 1.3579(3) -0.1105(3)
H8A H 0.4405 1.4215 -0.0996
C10A C 0.2571(4) 1.5938(3) 0.2204(4)
H9A H 0.3155 1.6056 0.2393
H10A H 0.2336 1.6656 0.1781
H11A H 0.1933 1.5466 0.2950
C11A C 0.2880(3) 1.5898(3) 0.0298(3)
H12A H 0.3459 1.5691 -0.0284
H13A H 0.2144 1.5638 0.0464
H14A H 0.2947 1.6709 -0.0032
C12A C 0.2400(2) 0.9291(2) 0.4917(2)
C13A C 0.1048(2) 0.9956(2) 0.6135(2)
C14A C 0.0546(2) 0.8660(2) 0.5789(2)
C15A C -0.0229(2) 1.0742(2) 0.7534(2)
C16A C -0.1245(3) 1.0721(3) 0.7460(3)
H15A H -0.1260 1.0624 0.6837
C17A C -0.2242(3) 1.0845(3) 0.8328(3)
H16A H -0.2924 1.0841 0.8278
C18A C -0.2225(3) 1.0974(3) 0.9259(3)
H17A H -0.2899 1.1035 0.9849
C19A C -0.1225(3) 1.1013(3) 0.9316(3)
H18A H -0.1213 1.1117 0.9935
C20A C -0.0223(3) 1.0896(2) 0.8454(3)
H19A H 0.0459 1.0923 0.8498
C21A C -0.0001(3) 0.7131(3) 0.5555(4)
H20A H 0.0806 0.7190 0.5090
H21A H -0.0261 0.6385 0.6241
H22A H -0.0373 0.7264 0.5045
C22A C -0.1453(3) 0.7982(3) 0.6732(3)
H23A H -0.1549 0.8657 0.6827
H24A H -0.1897 0.7971 0.6336
H25A H -0.1700 0.7326 0.7523
C23A C 0.2368(2) 0.8257(2) 0.7836(2)
C24A C 0.0643(2) 0.7274(2) 0.8764(2)
C25A C 0.2138(2) 0.6845(2) 0.7452(2)
C26A C 0.2174(3) 0.5484(2) 0.6651(3)
C27A C 0.1126(3) 0.4856(3) 0.7456(3)
H26A H 0.0675 0.4937 0.8153
C28A C 0.0741(4) 0.4096(3) 0.7224(4)
H27A H 0.0029 0.3683 0.7760
C29A C 0.1406(5) 0.3959(4) 0.6214(5)
H28A H 0.1152 0.3446 0.6070
C30A C 0.2446(5) 0.4578(4) 0.5413(4)
H29A H 0.2893 0.4489 0.4720
C31A C 0.2844(4) 0.5341(3) 0.5627(4)
H30A H 0.3556 0.5752 0.5083
C32A C -0.1212(3) 0.6260(3) 0.9657(3)
H31A H -0.0926 0.6191 0.8919
H32A H -0.1228 0.5543 1.0321
H33A H -0.1967 0.6484 0.9842
C33A C -0.1034(2) 0.7854(3) 1.0033(3)
H34A H -0.0468 0.8350 0.9906
H35A H -0.1510 0.8298 0.9653
H36A H -0.1489 0.7403 1.0895
loop_
_geom_bond_atom_site_label_1
_geom_bond_atom_site_label_2
_geom_bond_site_symmetry_1
_geom_bond_site_symmetry_2
Cu1 S2 1_555 1_555
Cu2 S1 1_555 1_555
Cu3 S1 1_555 1_555
S1 C1 1_555 1_555
S2 C12 1_555 1_555
S3 Cu2 1_555 1_555
N1 Cu1 1_555 1_555
N2 C1 1_555 1_555
N3 C2 1_555 1_555
N4 H1 1_555 1_555
N5 C2 1_555 1_555
N6 Cu2 1_555 1_555
N7 C12 1_555 1_555
N8 C13 1_555 1_555
N9 H2 1_555 1_555
N10 C14 1_555 1_555
N11 C23 1_555 1_555
N12 C23 1_555 1_555
N13 C24 1_555 1_555
N14 H3 1_555 1_555
N15 C24 1_555 1_555
C1 N1 1_555 1_555
C2 N2 1_555 1_555
C3 N1 1_555 1_555
C4 N4 1_555 1_555
C5 C4 1_555 1_555
H4 C5 1_555 1_555
C6 C5 1_555 1_555
H5 C6 1_555 1_555
C7 C6 1_555 1_555
H6 C7 1_555 1_555
C8 C7 1_555 1_555
H7 C8 1_555 1_555
C9 C4 1_555 1_555
H8 C9 1_555 1_555
C10 N5 1_555 1_555
H9 C10 1_555 1_555
H10 C10 1_555 1_555
H11 C10 1_555 1_555
C11 N5 1_555 1_555
H12 C11 1_555 1_555
H13 C11 1_555 1_555
H14 C11 1_555 1_555
C12 N6 1_555 1_555
C13 N6 1_555 1_555
C14 N7 1_555 1_555
C15 N9 1_555 1_555
C16 C15 1_555 1_555
H15 C16 1_555 1_555
C17 C16 1_555 1_555
H16 C17 1_555 1_555
C18 C17 1_555 1_555
H17 C18 1_555 1_555
C19 C18 1_555 1_555
H18 C19 1_555 1_555
C20 C15 1_555 1_555
H19 C20 1_555 1_555
C21 N10 1_555 1_555
H20 C21 1_555 1_555
H21 C21 1_555 1_555
H22 C21 1_555 1_555
C22 N10 1_555 1_555
H23 C22 1_555 1_555
H24 C22 1_555 1_555
H25 C22 1_555 1_555
C23 S3 1_555 1_555
C24 N12 1_555 1_555
C25 N11 1_555 1_555
C26 N14 1_555 1_555
C27 C26 1_555 1_555
H26 C27 1_555 1_555
C28 C27 1_555 1_555
H27 C28 1_555 1_555
C29 C28 1_555 1_555
H28 C29 1_555 1_555
C30 C29 1_555 1_555
H29 C30 1_555 1_555
C31 C26 1_555 1_555
H30 C31 1_555 1_555
C32 N15 1_555 1_555
H31 C32 1_555 1_555
H32 C32 1_555 1_555
H33 C32 1_555 1_555
C33 N15 1_555 1_555
H34 C33 1_555 1_555
H35 C33 1_555 1_555
H36 C33 1_555 1_555
Cu1A S3 1_555 1_555
Cu2A S1A 1_555 1_555
Cu3A S2 1_555 1_555
S1A Cu3A 1_555 1_555
S2A Cu3 1_555 1_555
S3A Cu1 1_555 1_555
N1A Cu1A 1_555 1_555
N2A C1A 1_555 1_555
N3A C2A 1_555 1_555
N4A H1A 1_555 1_555
N5A C2A 1_555 1_555
N6A Cu2A 1_555 1_555
N7A C12A 1_555 1_555
N8A C13A 1_555 1_555
N9A H2A 1_555 1_555
N10A C14A 1_555 1_555
N11A Cu3 1_555 1_555
N12A C23A 1_555 1_555
N13A C24A 1_555 1_555
N14A H3A 1_555 1_555
N15A C24A 1_555 1_555
C1A S1A 1_555 1_555
C2A N2A 1_555 1_555
C3A N1A 1_555 1_555
C4A N4A 1_555 1_555
C5A C4A 1_555 1_555
H4A C5A 1_555 1_555
C6A C5A 1_555 1_555
H5A C6A 1_555 1_555
C7A C6A 1_555 1_555
H6A C7A 1_555 1_555
C8A C7A 1_555 1_555
H7A C8A 1_555 1_555
C9A C4A 1_555 1_555
H8A C9A 1_555 1_555
C10A N5A 1_555 1_555
H9A C10A 1_555 1_555
H10A C10A 1_555 1_555
H11A C10A 1_555 1_555
C11A N5A 1_555 1_555
H12A C11A 1_555 1_555
H13A C11A 1_555 1_555
H14A C11A 1_555 1_555
C12A S2A 1_555 1_555
C13A N6A 1_555 1_555
C14A N7A 1_555 1_555
C15A N9A 1_555 1_555
C16A C15A 1_555 1_555
H15A C16A 1_555 1_555
C17A C16A 1_555 1_555
H16A C17A 1_555 1_555
C18A C17A 1_555 1_555
H17A C18A 1_555 1_555
C19A C18A 1_555 1_555
H18A C19A 1_555 1_555
C20A C15A 1_555 1_555
H19A C20A 1_555 1_555
C21A N10A 1_555 1_555
H20A C21A 1_555 1_555
H21A C21A 1_555 1_555
H22A C21A 1_555 1_555
C22A N10A 1_555 1_555
H23A C22A 1_555 1_555
H24A C22A 1_555 1_555
H25A C22A 1_555 1_555
C23A S3A 1_555 1_555
C24A N12A 1_555 1_555
C25A N11A 1_555 1_555
C26A N14A 1_555 1_555
C27A C26A 1_555 1_555
H26A C27A 1_555 1_555
C28A C27A 1_555 1_555
H27A C28A 1_555 1_555
C29A C28A 1_555 1_555
H28A C29A 1_555 1_555
C30A C29A 1_555 1_555
H29A C30A 1_555 1_555
C31A C26A 1_555 1_555
H30A C31A 1_555 1_555
C32A N15A 1_555 1_555
H31A C32A 1_555 1_555
H32A C32A 1_555 1_555
H33A C32A 1_555 1_555
C33A N15A 1_555 1_555
H34A C33A 1_555 1_555
H35A C33A 1_555 1_555
H36A C33A 1_555 1_555
N3 C3 1_555 1_555
N4 C3 1_555 1_555
N8 C14 1_555 1_555
N9 C13 1_555 1_555
N11 Cu3A 1_555 1_555
N13 C25 1_555 1_555
N14 C25 1_555 1_555
C8 C9 1_555 1_555
C19 C20 1_555 1_555
C30 C31 1_555 1_555
Cu1A S2A 1_555 1_555
Cu2A S3A 1_555 1_555
N1A C1A 1_555 1_555
N3A C3A 1_555 1_555
N4A C3A 1_555 1_555
N6A C12A 1_555 1_555
N8A C14A 1_555 1_555
N9A C13A 1_555 1_555
N11A C23A 1_555 1_555
N13A C25A 1_555 1_555
N14A C25A 1_555 1_555
C8A C9A 1_555 1_555
C19A C20A 1_555 1_555
C30A C31A 1_555 1_555

#END
