
#######################################################################
#
#                 Cambridge Crystallographic Data Centre
#                                CCDC 
#
#######################################################################
#
# If this CIF has been generated from an entry in the Cambridge 
# Structural Database, then it will include bibliographic, chemical, 
# crystal, experimental, refinement or atomic coordinate data resulting 
# from the CCDC's data processing and validation procedures.
#
#######################################################################

data_SEZVUO
_symmetry_cell_setting           triclinic
_symmetry_space_group_name_H-M   'P -1'
_symmetry_Int_Tables_number      2
_space_group_name_Hall           '-P 1'
loop_
_symmetry_equiv_pos_site_id
_symmetry_equiv_pos_as_xyz
1 x,y,z
2 -x,-y,-z
_cell_length_a                   5.606(2)
_cell_length_b                   7.343(3)
_cell_length_c                   21.258(7)
_cell_angle_alpha                97.31(3)
_cell_angle_beta                 96.98(3)
_cell_angle_gamma                90.43(4)
_cell_volume                     861.303
loop_
_atom_site_label
_atom_site_type_symbol
_atom_site_fract_x
_atom_site_fract_y
_atom_site_fract_z
Ca1 Ca 0.1303(2) -0.24977(14) 0.00003(5)
P1 P 0.2791(2) 0.1064(2) -0.09437(6)
P2 P 0.6301(2) -0.3960(2) -0.09378(6)
O1 O 0.5497(6) 0.1217(5) -0.0752(2)
O2 O 0.1649(7) 0.2953(5) -0.1062(2)
O3 O 0.1431(6) 0.0332(5) -0.0459(2)
O4 O 0.3738(6) -0.3787(5) -0.0776(2)
O5 O 0.7332(7) -0.2076(6) -0.1072(2)
O6 O 0.8054(6) -0.4636(5) -0.0428(2)
C1 C 0.2217(10) -0.0322(8) -0.1715(2)
C2 C -0.0072(10) 0.0033(8) -0.2146(3)
C3 C -0.0412(11) -0.1397(9) -0.2742(3)
C4 C -0.2529(12) -0.1111(9) -0.3233(3)
C5 C -0.2736(13) -0.2582(10) -0.3818(3)
C6 C -0.483(2) -0.2317(12) -0.4325(4)
C7 C 0.6383(10) -0.5402(7) -0.1688(2)
C8 C 0.4464(11) -0.5038(8) -0.2226(3)
C9 C 0.4402(11) -0.6441(9) -0.2821(3)
C10 C 0.2334(12) -0.6182(9) -0.3337(3)
C11 C 0.2207(14) -0.7615(11) -0.3928(3)
C12 C 0.011(2) -0.7331(14) -0.4430(4)
H1 H 0.234(12) 0.389(10) -0.095(3)
H2 H 0.676(13) -0.115(11) -0.094(4)
H3 H 0.363(11) -0.019(8) -0.191(3)
H4 H 0.205(9) -0.142(8) -0.163(2)
H5 H -0.135(10) -0.009(8) -0.190(3)
H6 H 0.017(10) 0.127(9) -0.226(3)
H7 H 0.100(11) -0.147(8) -0.295(3)
H8 H -0.063(11) -0.250(10) -0.258(3)
H9 H -0.387(12) -0.105(9) -0.306(3)
H10 H -0.231(11) 0.001(9) -0.335(3)
H11 H -0.133(14) -0.283(11) -0.395(3)
H12 H -0.302(15) -0.378(13) -0.363(4)
H13 H -0.626(14) -0.232(10) -0.415(4)
H14 H -0.462(14) -0.120(11) -0.446(4)
H15 H -0.49(2) -0.362(13) -0.469(4)
H16 H 0.790(11) -0.536(8) -0.179(3)
H17 H 0.619(9) -0.652(8) -0.160(2)
H18 H 0.486(11) -0.397(9) -0.235(3)
H19 H 0.313(10) -0.497(7) -0.209(2)
H20 H 0.415(11) -0.760(9) -0.269(3)
H21 H 0.584(10) -0.630(8) -0.300(3)
H22 H 0.084(11) -0.614(8) -0.319(3)
H23 H 0.245(11) -0.496(9) -0.346(3)
H24 H 0.361(12) -0.760(9) -0.410(3)
H25 H 0.20(2) -0.888(3) -0.381(4)
H26 H 0.024(13) -0.820(10) -0.474(4)
H27 H 0.03(2) -0.600(14) -0.461(4)
H28 H -0.137(15) -0.732(11) -0.428(4)
O3A O -0.1431(6) -0.0332(5) 0.0459(2)
O6A O 0.1946(6) -0.5364(5) 0.0428(2)
O6_2 O -0.1946(6) -0.4636(5) -0.0428(2)
Ca1A Ca -0.1303(2) 0.24977(14) -0.00003(5)
O1A O 0.4503(6) -0.1217(5) 0.0752(2)
Ca1A_2 Ca 0.8697(2) 0.24977(14) -0.00003(5)
Ca1_2 Ca 1.1303(2) -0.24977(14) 0.00003(5)
Ca1A_3 Ca 0.8697(2) -0.75023(14) -0.00003(5)
loop_
_geom_bond_atom_site_label_1
_geom_bond_atom_site_label_2
_geom_bond_site_symmetry_1
_geom_bond_site_symmetry_2
Ca1 O3 1_555 1_555
P1 O1 1_555 1_555
P2 O4 1_555 1_555
O1 Ca1A_2 1_555 1_555
O2 P1 1_555 1_555
O3 P1 1_555 1_555
O4 Ca1 1_555 1_555
O5 P2 1_555 1_555
O6 P2 1_555 1_555
C1 P1 1_555 1_555
C2 C1 1_555 1_555
C3 C2 1_555 1_555
C4 C3 1_555 1_555
C5 C4 1_555 1_555
C6 C5 1_555 1_555
C7 P2 1_555 1_555
C8 C7 1_555 1_555
C9 C8 1_555 1_555
C10 C9 1_555 1_555
C11 C10 1_555 1_555
C12 C11 1_555 1_555
H1 O2 1_555 1_555
H2 O5 1_555 1_555
H3 C1 1_555 1_555
H4 C1 1_555 1_555
H5 C2 1_555 1_555
H6 C2 1_555 1_555
H7 C3 1_555 1_555
H8 C3 1_555 1_555
H9 C4 1_555 1_555
H10 C4 1_555 1_555
H11 C5 1_555 1_555
H12 C5 1_555 1_555
H13 C6 1_555 1_555
H14 C6 1_555 1_555
H15 C6 1_555 1_555
H16 C7 1_555 1_555
H17 C7 1_555 1_555
H18 C8 1_555 1_555
H19 C8 1_555 1_555
H20 C9 1_555 1_555
H21 C9 1_555 1_555
H22 C10 1_555 1_555
H23 C10 1_555 1_555
H24 C11 1_555 1_555
H25 C11 1_555 1_555
H26 C12 1_555 1_555
H27 C12 1_555 1_555
H28 C12 1_555 1_555
O3A Ca1 1_555 1_555
O6A Ca1 1_555 1_555
O6_2 Ca1 1_555 1_555
Ca1A O3 1_555 1_555
O1A Ca1 1_555 1_555
Ca1_2 O6 1_555 1_555
Ca1A_3 O6 1_555 1_555
O3A Ca1A 1_555 1_555

#END
