
#######################################################################
#
#                 Cambridge Crystallographic Data Centre
#                                CCDC 
#
#######################################################################
#
# If this CIF has been generated from an entry in the Cambridge 
# Structural Database, then it will include bibliographic, chemical, 
# crystal, experimental, refinement or atomic coordinate data resulting 
# from the CCDC's data processing and validation procedures.
#
#######################################################################

data_SEZYOL
_symmetry_cell_setting           monoclinic
_symmetry_space_group_name_H-M   'P 21'
_symmetry_Int_Tables_number      4
_space_group_name_Hall           'P 2yb'
loop_
_symmetry_equiv_pos_site_id
_symmetry_equiv_pos_as_xyz
1 x,y,z
2 -x,1/2+y,-z
_cell_length_a                   6.832(1)
_cell_length_b                   16.765(3)
_cell_length_c                   8.410(2)
_cell_angle_alpha                90
_cell_angle_beta                 106.53(3)
_cell_angle_gamma                90
_cell_volume                     923.458
loop_
_atom_site_label
_atom_site_type_symbol
_atom_site_fract_x
_atom_site_fract_y
_atom_site_fract_z
Ca1 Ca -0.5396(2) -0.31948(4) 0.1186(1)
O1 O -0.381(1) -0.4572(3) 0.1316(6)
O2 O -0.683(1) -0.4607(3) 0.1532(6)
N1 N -0.465(1) -0.7180(3) 0.1252(6)
C1 C -0.494(1) -0.6404(3) 0.0806(6)
O3 O -0.479(1) -0.6791(3) -0.1890(6)
N2 N -0.494(1) -0.5988(3) 0.3428(7)
O4 O -0.566(1) -0.5542(3) -0.1533(6)
C2 C -0.504(1) -0.5830(3) 0.1896(9)
C3 C -0.455(1) -0.7342(3) 0.2853(7)
C4 C -0.468(1) -0.6773(3) 0.3925(8)
C5 C -0.520(1) -0.6211(3) -0.1050(8)
C6 C -0.523(1) -0.4940(3) 0.1461(7)
Ca2 Ca -0.0416(2) -0.45346(4) 0.1176(1)
O5 O -0.190(1) -0.3082(3) 0.1532(6)
O6 O 0.128(1) -0.3141(3) 0.1337(6)
N3 N 0.037(1) -0.0517(4) 0.1233(7)
C7 C -0.024(1) -0.2755(4) 0.1570(7)
C8 C 0.027(1) -0.0963(4) 0.3931(7)
O7 O 0.025(1) -0.0890(2) -0.1921(6)
O8 O -0.070(1) -0.2150(3) -0.1535(6)
N4 N 0.005(1) -0.1708(4) 0.3509(7)
C9 C 0.052(1) -0.0359(4) 0.2786(9)
C10 C 0.010(1) -0.1276(3) 0.0707(8)
C11 C -0.002(1) -0.1884(3) 0.1889(6)
C12 C -0.008(1) -0.1426(4) -0.1080(6)
O9 O -0.692(1) -0.3855(3) -0.1535(7)
O10 O -0.198(1) -0.3874(3) -0.1544(7)
O13 O -0.435(1) -0.3371(3) 0.4117(7)
O14 O 0.062(1) -0.4307(4) 0.4137(7)
H1 H -0.87(7) -0.36(2) -0.20(4)
H2 H -0.698(9) -0.434(3) -0.157(6)
H3 H -0.57(3) -0.320(9) 0.40(2)
H4 H -0.28(4) -0.325(9) 0.40(3)
H5 H -0.28(1) -0.406(4) -0.224(9)
H6 H -0.18(7) -0.35(2) -0.12(4)
H7 H 0.206(7) -0.443(3) 0.476(6)
H8 H 0.033(9) -0.388(4) 0.468(7)
H13 H -0.40(1) -0.784(5) 0.331(9)
H14 H -0.459(6) -0.687(2) 0.511(4)
H15 H 0.055(9) 0.025(3) 0.305(7)
H16 H -0.001(9) -0.09(4) 0.52(9)
N1A N -0.535(1) -0.2180(3) -0.1252(6)
O3A O -0.521(1) -0.1791(3) 0.1890(6)
O6_2 O -0.872(1) -0.3141(3) 0.1337(6)
Ca1A Ca -0.4604(2) -0.81948(4) -0.1186(1)
Ca1_2 Ca 0.4604(2) -0.31948(4) 0.1186(1)
Ca2_2 Ca -1.0416(2) -0.45346(4) 0.1176(1)
Ca2A Ca 0.0416(2) 0.04654(4) -0.1176(1)
O2_2 O 0.317(1) -0.4607(3) 0.1532(6)
N3A N -0.037(1) -0.5517(4) -0.1233(7)
O7A O -0.025(1) -0.5890(2) 0.1921(6)
O11 O -0.457(1) 0.0201(3) -0.5683(7)
H9 H -0.45(2) 0.003(9) -0.65(2)
H10 H -0.48(18) -0.02(9) -0.50(8)
O12 O -0.955(1) -0.7894(4) 0.4272(8)
H11 H -0.94(1) -0.759(5) 0.34(1)
H12 H -0.970(6) -0.748(2) 0.505(4)
loop_
_geom_bond_atom_site_label_1
_geom_bond_atom_site_label_2
_geom_bond_site_symmetry_1
_geom_bond_site_symmetry_2
Ca1 O1 1_555 1_555
O1 C6 1_555 1_555
O2 Ca1 1_555 1_555
N1 C1 1_555 1_555
C1 C2 1_555 1_555
O3 C5 1_555 1_555
N2 C2 1_555 1_555
O4 C5 1_555 1_555
C2 C6 1_555 1_555
C3 N1 1_555 1_555
C4 N2 1_555 1_555
C5 C1 1_555 1_555
C6 O2 1_555 1_555
Ca2 O1 1_555 1_555
O5 Ca1 1_555 1_555
O6 Ca2 1_555 1_555
N3 C9 1_555 1_555
C7 O5 1_555 1_555
C8 N4 1_555 1_555
O7 C12 1_555 1_555
O8 C12 1_555 1_555
N4 C11 1_555 1_555
C9 C8 1_555 1_555
C10 N3 1_555 1_555
C11 C7 1_555 1_555
C12 C10 1_555 1_555
O9 Ca1 1_555 1_555
O10 Ca2 1_555 1_555
O11 H9 1_555 1_555
O12 H11 1_555 1_555
O13 Ca1 1_555 1_555
O14 Ca2 1_555 1_555
H1 O9 1_555 1_555
H2 O9 1_555 1_555
H3 O13 1_555 1_555
H4 O13 1_555 1_555
H5 O10 1_555 1_555
H6 O10 1_555 1_555
H7 O14 1_555 1_555
H8 O14 1_555 1_555
H10 O11 1_555 1_555
H12 O12 1_555 1_555
H13 C3 1_555 1_555
H14 C4 1_555 1_555
H15 C9 1_555 1_555
H16 C8 1_555 1_555
N1A Ca1 1_555 1_555
O3A Ca1 1_555 1_555
O6_2 Ca1 1_555 1_555
Ca1A N1 1_555 1_555
Ca1_2 O6 1_555 1_555
Ca2_2 O2 1_555 1_555
Ca2A N3 1_555 1_555
O2_2 Ca2 1_555 1_555
N3A Ca2 1_555 1_555
O7A Ca2 1_555 1_555
O3 Ca1A 1_555 1_555
C3 C4 1_555 1_555
Ca2 O5 1_555 1_555
O6 C7 1_555 1_555
O7 Ca2A 1_555 1_555
C10 C11 1_555 1_555
O6_2 Ca2_2 1_555 1_555
Ca1_2 O2_2 1_555 1_555

#END
