
#######################################################################
#
#                 Cambridge Crystallographic Data Centre
#                                CCDC 
#
#######################################################################
#
# If this CIF has been generated from an entry in the Cambridge 
# Structural Database, then it will include bibliographic, chemical, 
# crystal, experimental, refinement or atomic coordinate data resulting 
# from the CCDC's data processing and validation procedures.
#
#######################################################################

data_SGLACU01
_symmetry_cell_setting           monoclinic
_symmetry_space_group_name_H-M   'C 2/c'
_symmetry_Int_Tables_number      15
_space_group_name_Hall           '-C 2yn'
loop_
_symmetry_equiv_pos_site_id
_symmetry_equiv_pos_as_xyz
1 x,y,z
2 1/2+x,1/2+y,z
3 -x,y,1/2-z
4 1/2-x,1/2+y,1/2-z
5 -x,-y,-z
6 1/2-x,1/2-y,-z
7 x,-y,1/2+z
8 1/2+x,1/2-y,1/2+z
_cell_length_a                   17.030(3)
_cell_length_b                   6.665(1)
_cell_length_c                   17.469(5)
_cell_angle_alpha                90
_cell_angle_beta                 111.13(1)
_cell_angle_gamma                90
_cell_volume                     1849.5
loop_
_atom_site_label
_atom_site_type_symbol
_atom_site_fract_x
_atom_site_fract_y
_atom_site_fract_z
Cu1 Cu 0.12177(3) 0.09233(9) 0.20431(3)
O1 O 0.00669(4) 0.17006(12) 0.14914(5)
O2 O 0.22996(4) -0.04832(12) 0.24576(5)
O3 O 0.15642(5) 0.37912(12) 0.28347(5)
O4 O 0.09484(5) -0.03166(12) 0.29722(5)
N1 N 0.15266(3) 0.14282(7) 0.10974(3)
C1 C 0.27431(4) -0.03560(10) 0.20111(4)
C2 C 0.24067(4) 0.09799(10) 0.12535(4)
C3 C 0.10235(4) 0.18757(10) 0.03717(4)
C4 C 0.01418(4) 0.23492(10) 0.01529(4)
C5 C -0.02954(4) 0.29369(10) -0.06641(4)
C6 C -0.11364(4) 0.34745(11) -0.09378(4)
C7 C -0.15571(4) 0.34333(11) -0.03801(4)
C8 C -0.11435(4) 0.28401(11) 0.04274(4)
C9 C -0.02865(4) 0.22758(10) 0.07162(4)
H1 H 0.06770(11) -0.16090(25) 0.28527(12)
H2 H 0.05742(10) 0.05339(25) 0.31749(10)
H4 H 0.24936(11) 0.02549(28) 0.07276(10)
H5 H 0.27722(10) 0.23817(26) 0.13999(12)
H6 H 0.12675(10) 0.19285(28) -0.01305(10)
H7 H 0.00473(11) 0.30197(28) -0.10824(10)
H8 H -0.14606(11) 0.39756(30) -0.15610(10)
H9 H -0.22169(10) 0.38834(31) -0.05853(12)
H10 H -0.14596(10) 0.28313(29) 0.08689(11)
C1C C 0.22569(4) 0.46440(10) 0.29889(4)
O3C O 0.34358(5) -0.12088(12) 0.21653(5)
O2C O 0.27004(4) 0.45168(12) 0.25424(5)
C2C C 0.25933(4) 0.59799(10) 0.37465(4)
Cu1C Cu 0.37823(3) -0.40767(9) 0.29569(3)
Cu1C_2 Cu 0.37823(3) 0.59233(9) 0.29569(3)
N1C N 0.34734(3) 0.64282(7) 0.39026(3)
H4C H 0.25064(11) 0.52549(28) 0.42724(10)
H5C H 0.22278(10) 0.73817(26) 0.36001(12)
C3C C 0.39765(4) 0.68757(10) 0.46283(4)
C4C C 0.48582(4) 0.73492(10) 0.48471(4)
H6C H 0.37325(10) 0.69285(28) 0.51305(10)
C5C C 0.52954(4) 0.79369(10) 0.56641(4)
C9C C 0.52865(4) 0.72758(10) 0.42838(4)
C6C C 0.61364(4) 0.84745(11) 0.59378(4)
H7C H 0.49527(11) 0.80197(28) 0.60824(10)
C7C C 0.65571(4) 0.84333(11) 0.53801(4)
H8C H 0.64606(11) 0.89756(30) 0.65610(10)
O1C O 0.49331(4) 0.67006(12) 0.35086(5)
O3C_2 O 0.34358(5) 0.87912(12) 0.21653(5)
O4C O 0.40516(5) 0.46834(12) 0.20278(5)
C8C C 0.61435(4) 0.78401(11) 0.45726(4)
H9C H 0.72169(10) 0.88834(31) 0.55853(12)
H1C H 0.43230(11) 0.33910(25) 0.21473(12)
H2C H 0.44258(10) 0.55339(25) 0.18251(10)
H10C H 0.64596(10) 0.78313(29) 0.41311(11)
O5 O 0.50000 0.09434(19) 0.25000
H3 H 0.45317(12) 0.00578(29) 0.24289(14)
H3B H 0.54683(12) 0.00578(29) 0.25711(14)
loop_
_geom_bond_atom_site_label_1
_geom_bond_atom_site_label_2
_geom_bond_site_symmetry_1
_geom_bond_site_symmetry_2
Cu1 O1 1_555 1_555
O1 C9 1_555 1_555
O2 Cu1 1_555 1_555
O3 Cu1 1_555 1_555
O4 Cu1 1_555 1_555
O5 H3 1_555 1_555
N1 Cu1 1_555 1_555
C1 O2 1_555 1_555
C2 N1 1_555 1_555
C3 N1 1_555 1_555
C4 C3 1_555 1_555
C5 C4 1_555 1_555
C6 C5 1_555 1_555
C7 C6 1_555 1_555
C8 C7 1_555 1_555
C9 C4 1_555 1_555
H1 O4 1_555 1_555
H2 O4 1_555 1_555
H4 C2 1_555 1_555
H5 C2 1_555 1_555
H6 C3 1_555 1_555
H7 C5 1_555 1_555
H8 C6 1_555 1_555
H9 C7 1_555 1_555
H10 C8 1_555 1_555
C1C O3 1_555 1_555
O3C C1 1_555 1_555
O2C C1C 1_555 1_555
C2C C1C 1_555 1_555
Cu1C O3C 1_555 1_555
Cu1C_2 O2C 1_555 1_555
N1C C2C 1_555 1_555
H4C C2C 1_555 1_555
H5C C2C 1_555 1_555
C3C N1C 1_555 1_555
C4C C3C 1_555 1_555
H6C C3C 1_555 1_555
C5C C4C 1_555 1_555
C9C C4C 1_555 1_555
C6C C5C 1_555 1_555
H7C C5C 1_555 1_555
C7C C6C 1_555 1_555
H8C C6C 1_555 1_555
H3B O5 1_555 1_555
O1C Cu1C_2 1_555 1_555
O3C_2 Cu1C_2 1_555 1_555
O4C Cu1C_2 1_555 1_555
C8C C9C 1_555 1_555
H9C C7C 1_555 1_555
H1C O4C 1_555 1_555
H2C O4C 1_555 1_555
H10C C8C 1_555 1_555
C1 C2 1_555 1_555
C8 C9 1_555 1_555
Cu1C_2 N1C 1_555 1_555
C9C O1C 1_555 1_555
C7C C8C 1_555 1_555

#END
