
#######################################################################
#
#                 Cambridge Crystallographic Data Centre
#                                CCDC 
#
#######################################################################
#
# If this CIF has been generated from an entry in the Cambridge 
# Structural Database, then it will include bibliographic, chemical, 
# crystal, experimental, refinement or atomic coordinate data resulting 
# from the CCDC's data processing and validation procedures.
#
#######################################################################

data_SGLUTM01
_symmetry_cell_setting           orthorhombic
_symmetry_space_group_name_H-M   'P 21 21 21'
_symmetry_Int_Tables_number      19
_space_group_name_Hall           'P 2ac 2ab'
loop_
_symmetry_equiv_pos_site_id
_symmetry_equiv_pos_as_xyz
1 x,y,z
2 1/2+x,1/2-y,-z
3 -x,1/2+y,1/2-z
4 1/2-x,-y,1/2+z
_cell_length_a                   15.237(8)
_cell_length_b                   17.937(9)
_cell_length_c                   5.562(4)
_cell_angle_alpha                90
_cell_angle_beta                 90
_cell_angle_gamma                90
_cell_volume                     1520.13
loop_
_atom_site_label
_atom_site_type_symbol
_atom_site_fract_x
_atom_site_fract_y
_atom_site_fract_z
C1 C 0.5560(2) 0.2186(2) 0.5161(6)
C2 C 0.6305(2) 0.1633(2) 0.4646(6)
C3 C 0.5979(2) 0.0959(2) 0.3252(7)
C4 C 0.6712(2) 0.0412(2) 0.2580(7)
C5 C 0.6411(2) -0.0162(2) 0.0757(6)
N1 N 0.6740(2) 0.1418(1) 0.6980(5)
O1 O 0.5486(1) 0.2440(1) 0.7245(4)
O2 O 0.5092(1) 0.2359(1) 0.3398(4)
O3 O 0.6521(1) -0.0844(1) 0.1255(5)
O4 O 0.6086(2) 0.0068(1) -0.1196(5)
C6 C 0.7921(2) 0.2794(2) 1.1487(6)
C7 C 0.8600(2) 0.3274(2) 1.0157(6)
C8 C 0.8948(2) 0.3926(2) 1.1633(7)
C9 C 0.8225(2) 0.4513(2) 1.2252(7)
C10 C 0.8589(2) 0.5087(2) 1.4045(6)
N2 N 0.8211(2) 0.3542(2) 0.7828(5)
O5 O 0.7226(1) 0.2640(1) 1.0409(5)
O6 O 0.8128(1) 0.2589(1) 1.3585(4)
O7 O 0.8521(2) 0.5770(1) 1.3532(5)
O8 O 0.8905(2) 0.4852(1) 1.6020(5)
O9 O 0.4369(2) 0.3889(1) 0.9339(5)
O10 O 0.5658(2) 0.3966(1) 1.4024(5)
Na1 Na 0.5769(1) 0.3204(1) 1.0499(3)
Na2 Na 0.4317(1) 0.3252(1) 0.5672(3)
H1 H 0.680(3) 0.192(2) 0.357(9)
H2 H 0.566(3) 0.114(2) 0.161(9)
H3 H 0.549(3) 0.066(2) 0.434(9)
H4 H 0.694(3) 0.012(3) 0.418(10)
H5 H 0.727(3) 0.072(2) 0.181(9)
H6 H 0.638(3) 0.096(3) 0.782(10)
H7 H 0.675(3) 0.189(3) 0.818(10)
H8 H 0.741(3) 0.124(3) 0.666(10)
H9 H 0.914(3) 0.290(2) 0.971(9)
H10 H 0.947(3) 0.421(2) 1.065(9)
H11 H 0.922(3) 0.372(2) 1.331(9)
H12 H 0.768(3) 0.424(2) 1.304(9)
H13 H 0.805(3) 0.480(3) 1.064(10)
H14 H 0.823(3) 0.310(3) 0.651(10)
H15 H 0.859(3) 0.401(3) 0.716(10)
H16 H 0.754(3) 0.372(3) 0.810(10)
H17 H 0.426(3) 0.432(3) 0.847(10)
H18 H 0.400(3) 0.393(2) 1.043(9)
H19 H 0.565(3) 0.437(3) 1.346(9)
H20 H 0.597(3) 0.399(2) 1.544(9)
Na1_2 Na 0.5769(1) 0.3204(1) 0.0499(3)
Na2B Na 0.5683(1) -0.1748(1) -0.0672(3)
Na2A Na 0.9317(1) 0.1748(1) 1.4328(3)
Na1C Na 0.9231(1) 0.6796(1) 1.5499(3)
Na2_2 Na 0.4317(1) 0.3252(1) 1.5672(3)
O2_2 O 0.5092(1) 0.2359(1) 1.3398(4)
O7C O 0.6479(2) 0.4230(1) 0.8532(5)
O3B O 0.3479(1) 0.4156(1) 0.3745(5)
O6A O 0.3128(1) 0.2411(1) 0.6415(4)
O10_2 O 0.5658(2) 0.3966(1) 0.4024(5)
H19_2 H 0.565(3) 0.437(3) 0.346(9)
H20_2 H 0.597(3) 0.399(2) 0.544(9)
loop_
_geom_bond_atom_site_label_1
_geom_bond_atom_site_label_2
_geom_bond_site_symmetry_1
_geom_bond_site_symmetry_2
C1 C2 1_555 1_555
C2 C3 1_555 1_555
C3 C4 1_555 1_555
C4 C5 1_555 1_555
C5 O3 1_555 1_555
N1 C2 1_555 1_555
O1 C1 1_555 1_555
O2 C1 1_555 1_555
O3 Na2B 1_555 1_555
O4 C5 1_555 1_555
C6 C7 1_555 1_555
C7 C8 1_555 1_555
C8 C9 1_555 1_555
C9 C10 1_555 1_555
C10 O7 1_555 1_555
N2 C7 1_555 1_555
O5 C6 1_555 1_555
O6 C6 1_555 1_555
O7 Na1C 1_555 1_555
O8 C10 1_555 1_555
O9 Na1 1_555 1_555
O10 Na1 1_555 1_555
Na1 O1 1_555 1_555
Na2 O1 1_555 1_555
H1 C2 1_555 1_555
H2 C3 1_555 1_555
H3 C3 1_555 1_555
H4 C4 1_555 1_555
H5 C4 1_555 1_555
H6 N1 1_555 1_555
H7 N1 1_555 1_555
H8 N1 1_555 1_555
H9 C7 1_555 1_555
H10 C8 1_555 1_555
H11 C8 1_555 1_555
H12 C9 1_555 1_555
H13 C9 1_555 1_555
H14 N2 1_555 1_555
H15 N2 1_555 1_555
H16 N2 1_555 1_555
H17 O9 1_555 1_555
H18 O9 1_555 1_555
H19 O10 1_555 1_555
H20 O10 1_555 1_555
Na1_2 O2 1_555 1_555
Na2A O6 1_555 1_555
Na2_2 O10 1_555 1_555
O2_2 Na1 1_555 1_555
O7C Na1 1_555 1_555
O3B Na2 1_555 1_555
O6A Na2 1_555 1_555
O10_2 Na2 1_555 1_555
H19_2 O10_2 1_555 1_555
H20_2 O10_2 1_555 1_555
O2 Na2 1_555 1_555
O5 Na1 1_555 1_555
O9 Na2 1_555 1_555
Na1_2 O10_2 1_555 1_555
Na2_2 O2_2 1_555 1_555

#END
