
#######################################################################
#
#                 Cambridge Crystallographic Data Centre
#                                CCDC 
#
#######################################################################
#
# If this CIF has been generated from an entry in the Cambridge 
# Structural Database, then it will include bibliographic, chemical, 
# crystal, experimental, refinement or atomic coordinate data resulting 
# from the CCDC's data processing and validation procedures.
#
#######################################################################

data_SIBCOV
_symmetry_cell_setting           monoclinic
_symmetry_space_group_name_H-M   'P 21/c'
_symmetry_Int_Tables_number      14
_space_group_name_Hall           '-P 2ybc'
loop_
_symmetry_equiv_pos_site_id
_symmetry_equiv_pos_as_xyz
1 x,y,z
2 -x,1/2+y,1/2-z
3 -x,-y,-z
4 x,1/2-y,1/2+z
_cell_length_a                   17.644(4)
_cell_length_b                   13.702(3)
_cell_length_c                   14.450(7)
_cell_angle_alpha                90
_cell_angle_beta                 114.02(3)
_cell_angle_gamma                90
_cell_volume                     3190.89
loop_
_atom_site_label
_atom_site_type_symbol
_atom_site_fract_x
_atom_site_fract_y
_atom_site_fract_z
Mo1 Mo 0.9300(1) 0.0891(1) 0.9257(1)
Mo2 Mo 0.9004(1) -0.162(1) 0.8965(1)
Mo3 Mo 0.9683(1) 0.0345(1) 1.1757(1)
Mo4 Mo 0.7960(1) -0.0391(1) 0.9967(1)
O1 O 0.9430(3) -0.0473(3) 1.0250(3)
O2 O 0.9219(3) -0.0171(3) 0.8325(3)
O3 O 0.9773(3) 0.1448(3) 1.0607(3)
O4 O 0.8277(3) 0.0833(3) 0.9138(3)
O5 O 0.7995(3) -0.1062(3) 0.8808(3)
O6 O 0.8535(3) 0.0522(3) 1.1040(4)
O7 O 0.9349(3) 0.1864(3) 0.8566(3)
O8 O 0.9703(3) -0.0719(4) 1.2374(4)
O9 O 0.9943(3) 0.1232(4) 1.2655(4)
O10 O 0.9079(3) -0.2537(3) 0.9797(4)
O11 O 0.8771(3) -0.2181(4) 0.7836(4)
O12 O 0.8076(3) -0.1396(4) 1.0710(4)
O13 O 0.6960(3) -0.0073(4) 0.9573(5)
Na1 Na 1.0660(2) 0.2335(2) 0.8380(2)
Mo1B Mo 1.0700(1) -0.0891(1) 1.0743(1)
O1B O 1.0570(3) 0.0473(3) 0.9750(3)
O2B O 1.0781(3) 0.0171(3) 1.1675(3)
O3B O 1.0227(3) -0.1448(3) 0.9393(3)
Mo2B Mo 1.0996(1) 0.162(1) 1.1035(1)
Mo3B Mo 1.0317(1) -0.0345(1) 0.8243(1)
O6B O 1.1465(3) -0.0522(3) 0.8960(4)
Mo4B Mo 1.2040(1) 0.0391(1) 1.0033(1)
O4B O 1.1723(3) -0.0833(3) 1.0862(3)
O7B O 1.0651(3) -0.1864(3) 1.1434(3)
Na1B Na 0.9340(2) -0.2335(2) 1.1620(2)
Na1C Na 1.0660(2) 0.2665(2) 1.3380(2)
O11B O 1.1229(3) 0.2181(4) 1.2164(4)
O5B O 1.2005(3) 0.1062(3) 1.1192(3)
O12B O 1.1924(3) 0.1396(4) 0.9290(4)
O13B O 1.3040(3) 0.0073(4) 1.0427(5)
O10B O 1.0921(3) 0.2537(3) 1.0203(4)
Na1A Na 0.9340(2) -0.2665(2) 0.6620(2)
O7A O 1.0651(3) -0.3136(3) 0.6434(3)
O8C O 0.9703(3) -0.4281(4) 0.7374(4)
O9B O 1.0057(3) -0.1232(4) 0.7345(4)
O10C O 0.9079(3) -0.2463(3) 0.4797(4)
O12C O 0.8076(3) -0.3604(4) 0.5710(4)
O8B O 1.0297(3) 0.0719(4) 0.7626(4)
O9C O 0.9943(3) 0.3768(4) 0.7655(4)
O11A O 1.1229(3) 0.2819(4) 0.7164(4)
O14 O 0.6880(4) -0.0690(5) 0.5198(5)
O15 O 0.6712(4) -0.1055(5) 0.3203(6)
O16 O 0.7900(6) 0.0343(6) 0.3362(7)
O17 O 0.8286(4) 0.1161(5) 0.5158(5)
O18 O 0.5735(5) 0.1275(5) 0.2830(5)
Na2 Na 0.6915(2) 0.0565(3) 0.4064(3)
N1 N 0.7041(5) 0.1316(6) 0.5905(6)
C1 C 0.6337(6) 0.1944(7) 0.5523(6)
C2 C 0.5554(7) 0.1525(8) 0.5085(7)
C3 C 0.4859(7) 0.213(1) 0.4709(8)
C4 C 0.495(1) 0.313(1) 0.473(1)
C5 C 0.571(1) 0.3515(9) 0.514(1)
C6 C 0.6397(7) 0.2935(8) 0.5534(8)
C7 C 0.6969(9) 0.0434(9) 0.6466(8)
C8 C 0.7347(8) -0.0445(8) 0.6235(8)
C9 C 0.7165(8) -0.1579(8) 0.4950(9)
C10 C 0.6646(8) -0.1796(8) 0.3858(9)
C11 C 0.7335(8) -0.121(1) 0.286(1)
C12 C 0.771(1) -0.044(1) 0.267(1)
C13 C 0.8739(9) 0.045(1) 0.401(1)
C14 C 0.8863(9) 0.117(1) 0.474(1)
C15 C 0.8323(9) 0.1895(9) 0.5861(9)
C16 C 0.7851(7) 0.174(1) 0.639(1)
C17 C 0.6653(7) 0.2635(8) 0.3162(8)
C18 C 0.5791(7) 0.2303(8) 0.2686(8)
C19 C 0.4888(7) 0.0911(9) 0.235(1)
C20 C 0.4850(8) -0.007(1) 0.259(1)
loop_
_geom_bond_atom_site_label_1
_geom_bond_atom_site_label_2
_geom_bond_site_symmetry_1
_geom_bond_site_symmetry_2
Mo1 O1 1_555 1_555
Mo2 O1 1_555 1_555
Mo3 O1 1_555 1_555
Mo4 O1 1_555 1_555
O1 Mo1B 1_555 1_555
O2 Mo1 1_555 1_555
O3 Mo1 1_555 1_555
O4 Mo1 1_555 1_555
O5 Mo2 1_555 1_555
O6 Mo3 1_555 1_555
O7 Mo1 1_555 1_555
O8 Mo3 1_555 1_555
O9 Mo3 1_555 1_555
O10 Mo2 1_555 1_555
O11 Mo2 1_555 1_555
O12 Mo4 1_555 1_555
O13 Mo4 1_555 1_555
O14 Na2 1_555 1_555
O15 Na2 1_555 1_555
O16 Na2 1_555 1_555
O17 Na2 1_555 1_555
O18 Na2 1_555 1_555
Na1 O7 1_555 1_555
Na2 N1 1_555 1_555
N1 C1 1_555 1_555
C1 C2 1_555 1_555
C2 C3 1_555 1_555
C3 C4 1_555 1_555
C4 C5 1_555 1_555
C5 C6 1_555 1_555
C6 C1 1_555 1_555
C7 N1 1_555 1_555
C8 O14 1_555 1_555
C9 O14 1_555 1_555
C10 O15 1_555 1_555
C11 O15 1_555 1_555
C12 O16 1_555 1_555
C13 O16 1_555 1_555
C14 O17 1_555 1_555
C15 O17 1_555 1_555
C16 N1 1_555 1_555
C17 C18 1_555 1_555
C18 O18 1_555 1_555
C19 O18 1_555 1_555
C20 C19 1_555 1_555
Mo1B O1B 1_555 1_555
O1B Mo1 1_555 1_555
O2B Mo3 1_555 1_555
O3B Mo2 1_555 1_555
Mo2B O3 1_555 1_555
Mo3B O2 1_555 1_555
O6B Mo3B 1_555 1_555
Mo4B O1B 1_555 1_555
O4B Mo1B 1_555 1_555
O7B Mo1B 1_555 1_555
Na1B O8 1_555 1_555
Na1C O9 1_555 1_555
O11B Mo2B 1_555 1_555
O5B Mo2B 1_555 1_555
O12B Na1 1_555 1_555
O13B Mo4B 1_555 1_555
O10B Na1 1_555 1_555
Na1A O11 1_555 1_555
O7A Na1A 1_555 1_555
O8C Na1A 1_555 1_555
O9B Mo3B 1_555 1_555
O10C Na1A 1_555 1_555
O12C Na1A 1_555 1_555
O8B Na1 1_555 1_555
O9C Na1 1_555 1_555
O11A Na1 1_555 1_555
Mo2 O2 1_555 1_555
Mo3 O3 1_555 1_555
Mo4 O5 1_555 1_555
Mo4 O4 1_555 1_555
Mo4 O6 1_555 1_555
O10 Na1B 1_555 1_555
O12 Na1B 1_555 1_555
C7 C8 1_555 1_555
C9 C10 1_555 1_555
C11 C12 1_555 1_555
C13 C14 1_555 1_555
C15 C16 1_555 1_555
Mo1B O3B 1_555 1_555
Mo1B O2B 1_555 1_555
O1B Mo3B 1_555 1_555
O1B Mo2B 1_555 1_555
O2B Mo2B 1_555 1_555
O3B Mo3B 1_555 1_555
Mo2B O10B 1_555 1_555
Mo3B O8B 1_555 1_555
O6B Mo4B 1_555 1_555
Mo4B O4B 1_555 1_555
Mo4B O12B 1_555 1_555
Mo4B O5B 1_555 1_555
O7B Na1B 1_555 1_555
Na1C O11B 1_555 1_555
Na1A O9B 1_555 1_555

#END
