
#######################################################################
#
#                 Cambridge Crystallographic Data Centre
#                                CCDC 
#
#######################################################################
#
# If this CIF has been generated from an entry in the Cambridge 
# Structural Database, then it will include bibliographic, chemical, 
# crystal, experimental, refinement or atomic coordinate data resulting 
# from the CCDC's data processing and validation procedures.
#
#######################################################################

data_SIBDUD
_symmetry_cell_setting           monoclinic
_symmetry_space_group_name_H-M   'P 21/n'
_symmetry_Int_Tables_number      14
_space_group_name_Hall           '-P 2yn'
loop_
_symmetry_equiv_pos_site_id
_symmetry_equiv_pos_as_xyz
1 x,y,z
2 1/2-x,1/2+y,1/2-z
3 -x,-y,-z
4 1/2+x,1/2-y,1/2+z
_cell_length_a                   17.3530(3)
_cell_length_b                   21.8357(4)
_cell_length_c                   21.2915(3)
_cell_angle_alpha                90
_cell_angle_beta                 96.5020(10)
_cell_angle_gamma                90
_cell_volume                     8015.77
loop_
_atom_site_label
_atom_site_type_symbol
_atom_site_fract_x
_atom_site_fract_y
_atom_site_fract_z
Mo1 Mo 0.87309(4) 0.30511(3) 0.24265(3)
Cu1 Cu 0.45065(5) 0.29464(4) 0.18677(4)
Cu2 Cu 0.48078(5) 0.14253(4) 0.16864(4)
S1 S 0.75446(11) 0.26151(10) 0.19467(9)
S2 S 0.81335(12) 0.28468(10) 0.33710(9)
S3 S 0.92021(13) 0.26121(12) 0.15159(10)
S4 S 0.97572(12) 0.24567(10) 0.29545(10)
S5 S 0.83865(14) 0.38746(10) 0.17105(11)
S6 S 0.93335(12) 0.38699(9) 0.30497(10)
P1 P 0.35186(11) 0.26737(9) 0.24235(10)
P2 P 0.37319(11) 0.12838(9) 0.21786(9)
P3 P 0.45978(11) 0.16045(8) 0.06318(9)
P4 P 0.44368(11) 0.29942(9) 0.07961(9)
N1 N 0.5670(4) 0.1930(3) 0.2135(3)
N2 N 0.6421(5) 0.2200(5) 0.4044(4)
N3 N 1.0477(6) 0.1475(5) 0.0899(5)
N4 N 1.1350(5) 0.1378(4) 0.2831(4)
N5 N 0.8445(6) 0.5550(5) 0.1455(6)
N6 N 0.9633(4) 0.5570(3) 0.3149(3)
N7 N 0.5385(4) 0.3438(3) 0.2288(3)
C1 C 0.6246(5) 0.2139(3) 0.2339(4)
C2 C 0.6981(4) 0.2414(3) 0.2537(3)
C3 C 0.7240(4) 0.2507(3) 0.3156(4)
C4 C 0.6786(5) 0.2336(4) 0.3652(4)
C5 C 1.0241(6) 0.1749(5) 0.1289(5)
C6 C 0.9939(5) 0.2101(4) 0.1766(4)
C7 C 1.0197(5) 0.2040(4) 0.2393(4)
C8 C 1.0833(5) 0.1659(4) 0.2622(5)
C9 C 0.9415(4) 0.5109(4) 0.2928(4)
C10 C 0.9138(4) 0.4551(3) 0.2644(4)
C11 C 0.8726(5) 0.4546(4) 0.2063(4)
C12 C 0.8567(6) 0.5103(5) 0.1717(5)
C13 C 0.3068(4) 0.1939(3) 0.2189(4)
H1 H 0.2790 0.1984 0.1770
H2 H 0.2688 0.1845 0.2476
C14 C 0.2683(5) 0.3194(3) 0.2254(4)
C15 C 0.1963(5) 0.3082(4) 0.2448(5)
H3 H 0.1897 0.2745 0.2704
C16 C 0.1339(6) 0.3459(5) 0.2270(5)
H4 H 0.0855 0.3373 0.2397
C17 C 0.1440(7) 0.3960(5) 0.1902(5)
H5 H 0.1024 0.4219 0.1782
C18 C 0.2146(8) 0.4081(5) 0.1713(5)
H6 H 0.2210 0.4423 0.1464
C19 C 0.2776(6) 0.3699(4) 0.1888(5)
H7 H 0.3257 0.3786 0.1757
C20 C 0.3701(5) 0.2665(4) 0.3288(4)
C21 C 0.3256(5) 0.2339(4) 0.3674(4)
H8 H 0.2849 0.2098 0.3492
C22 C 0.3406(6) 0.2367(5) 0.4327(4)
H9 H 0.3098 0.2147 0.4577
C23 C 0.3993(7) 0.2710(6) 0.4599(5)
H10 H 0.4101 0.2720 0.5037
C24 C 0.4430(8) 0.3046(8) 0.4229(6)
H11 H 0.4824 0.3296 0.4418
C25 C 0.4292(6) 0.3015(6) 0.3567(5)
H12 H 0.4605 0.3235 0.3320
C26 C 0.3881(5) 0.1032(3) 0.3002(4)
C27 C 0.3279(5) 0.0789(4) 0.3304(4)
H13 H 0.2793 0.0734 0.3078
C28 C 0.3395(7) 0.0631(4) 0.3930(5)
H14 H 0.2988 0.0475 0.4132
C29 C 0.4126(8) 0.0704(5) 0.4261(5)
H15 H 0.4209 0.0595 0.4686
C30 C 0.4727(7) 0.0937(6) 0.3965(5)
H16 H 0.5214 0.0989 0.4189
C31 C 0.4605(5) 0.1092(5) 0.3341(4)
H17 H 0.5016 0.1241 0.3140
C32 C 0.3110(4) 0.0694(3) 0.1776(4)
C33 C 0.3310(5) 0.0085(4) 0.1877(5)
H18 H 0.3733 -0.0015 0.2167
C34 C 0.2888(7) -0.0378(4) 0.1551(5)
H19 H 0.3023 -0.0786 0.1630
C35 C 0.2281(7) -0.0239(5) 0.1121(6)
H20 H 0.2001 -0.0550 0.0901
C36 C 0.2078(6) 0.0358(5) 0.1007(6)
H21 H 0.1663 0.0453 0.0708
C37 C 0.2488(5) 0.0823(4) 0.1337(5)
H22 H 0.2340 0.1228 0.1260
C38 C 0.4054(4) 0.2304(3) 0.0392(3)
H23 H 0.4057 0.2360 -0.0059
H24 H 0.3520 0.2250 0.0473
C39 C 0.3770(4) 0.3603(4) 0.0489(4)
C40 C 0.3107(5) 0.3511(4) 0.0076(4)
H25 H 0.2965 0.3116 -0.0053
C41 C 0.2651(6) 0.4003(5) -0.0147(5)
H26 H 0.2207 0.3937 -0.0427
C42 C 0.2853(7) 0.4580(5) 0.0043(5)
H27 H 0.2545 0.4908 -0.0111
C43 C 0.3501(7) 0.4687(4) 0.0457(6)
H28 H 0.3632 0.5084 0.0587
C44 C 0.3962(6) 0.4196(4) 0.0681(5)
H29 H 0.4403 0.4265 0.0963
C45 C 0.5290(4) 0.3197(3) 0.0403(3)
C46 C 0.5227(5) 0.3302(5) -0.0238(4)
H30 H 0.4748 0.3256 -0.0477
C47 C 0.5865(6) 0.3473(5) -0.0533(5)
H31 H 0.5816 0.3534 -0.0968
C48 C 0.6567(6) 0.3551(5) -0.0182(5)
H32 H 0.6997 0.3674 -0.0375
C49 C 0.6633(5) 0.3451(5) 0.0444(5)
H33 H 0.7111 0.3503 0.0682
C50 C 0.6001(5) 0.3270(4) 0.0739(4)
H34 H 0.6062 0.3198 0.1172
C51 C 0.4027(4) 0.1008(3) 0.0197(3)
C52 C 0.4208(6) 0.0410(4) 0.0351(5)
H35 H 0.4602 0.0327 0.0673
C53 C 0.3816(6) -0.0070(4) 0.0034(6)
H36 H 0.3939 -0.0472 0.0151
C54 C 0.3257(7) 0.0044(5) -0.0442(5)
H37 H 0.3002 -0.0279 -0.0663
C55 C 0.3068(8) 0.0625(5) -0.0598(6)
H38 H 0.2681 0.0701 -0.0929
C56 C 0.3437(7) 0.1111(5) -0.0277(5)
H39 H 0.3286 0.1510 -0.0382
C57 C 0.5456(4) 0.1658(3) 0.0208(3)
C58 C 0.5400(5) 0.1676(5) -0.0446(4)
H40 H 0.4914 0.1668 -0.0680
C59 C 0.6057(6) 0.1704(5) -0.0754(5)
H41 H 0.6012 0.1713 -0.1194
C60 C 0.6774(6) 0.1720(5) -0.0415(6)
H42 H 0.7216 0.1743 -0.0625
C61 C 0.6845(5) 0.1702(5) 0.0228(5)
H43 H 0.7336 0.1714 0.0455
C62 C 0.6188(5) 0.1665(4) 0.0551(4)
H44 H 0.6240 0.1645 0.0990
C63 C 0.5893(5) 0.3731(4) 0.2472(5)
C64 C 0.6571(6) 0.4104(4) 0.2701(6)
H45 H 0.7029 0.3925 0.2564
H46 H 0.6623 0.4119 0.3154
H47 H 0.6505 0.4511 0.2534
Cu2A Cu 1.01922(5) 0.64253(4) 0.33136(4)
N6A N 0.5367(4) 0.0570(3) 0.1851(3)
N8 N 0.2125(6) 0.2396(6) 0.0760(5)
C65 C 0.1585(7) 0.2687(6) 0.0627(5)
C66 C 0.0910(7) 0.3062(6) 0.0447(5)
H48 H 0.0630 0.2900 0.0069
H49 H 0.1071 0.3473 0.0371
H50 H 0.0582 0.3061 0.0780
O2 O 0.5217(16) 0.4585(13) 0.3459(11)
C71 C 0.537(2) 0.465(2) 0.4127(11)
H61 H 0.4905 0.4562 0.4326
H62 H 0.5536 0.5064 0.4236
C72 C 0.600(2) 0.4200(17) 0.4340(13)
H63 H 0.5984 0.3866 0.4045
H64 H 0.5924 0.4046 0.4751
H65 H 0.6495 0.4400 0.4360
C73 C 0.460(2) 0.497(2) 0.3201(13)
H66 H 0.4747 0.5392 0.3261
H67 H 0.4146 0.4890 0.3416
C74 C 0.442(2) 0.4832(18) 0.2515(13)
H68 H 0.4683 0.5124 0.2276
H69 H 0.3873 0.4859 0.2398
H70 H 0.4598 0.4427 0.2429
O3 O 0.6460(6) 0.5522(4) 0.2145(5)
C75 C 0.5760(11) 0.5176(9) 0.1213(9)
H71 H 0.5540 0.5298 0.0798
H72 H 0.5360 0.5016 0.1442
H73 H 0.6146 0.4866 0.1178
C76 C 0.6114(10) 0.5696(8) 0.1543(8)
H74 H 0.6504 0.5869 0.1302
H75 H 0.5724 0.6007 0.1585
C77 C 0.6802(9) 0.6006(7) 0.2502(7)
H76 H 0.6407 0.6305 0.2571
H77 H 0.7178 0.6205 0.2266
C78 C 0.7178(10) 0.5809(8) 0.3095(8)
H78 H 0.7093 0.5378 0.3145
H79 H 0.6970 0.6029 0.3429
H80 H 0.7724 0.5887 0.3113
O1? O 0.503(2) 0.491(2) 0.363(2)
C67? C 0.575(3) 0.517(3) 0.391(3)
H51? H 0.5727 0.5610 0.3886
H52? H 0.6170 0.5024 0.3688
C68? C 0.586(3) 0.496(4) 0.459(3)
H53? H 0.6381 0.5043 0.4761
H54? H 0.5756 0.4531 0.4607
H55? H 0.5506 0.5181 0.4821
C69? C 0.487(3) 0.508(3) 0.299(2)
H56? H 0.5270 0.4921 0.2747
H57? H 0.4852 0.5519 0.2945
C70? C 0.410(3) 0.480(3) 0.275(2)
H58? H 0.3869 0.5033 0.2394
H59? H 0.3765 0.4815 0.3081
H60? H 0.4171 0.4386 0.2627
loop_
_geom_bond_atom_site_label_1
_geom_bond_atom_site_label_2
_geom_bond_site_symmetry_1
_geom_bond_site_symmetry_2
Mo1 S1 1_555 1_555
Cu1 P1 1_555 1_555
Cu2 P2 1_555 1_555
S1 C2 1_555 1_555
S2 Mo1 1_555 1_555
S3 Mo1 1_555 1_555
S4 Mo1 1_555 1_555
S5 Mo1 1_555 1_555
S6 Mo1 1_555 1_555
P1 C13 1_555 1_555
P2 C13 1_555 1_555
P3 Cu2 1_555 1_555
P4 Cu1 1_555 1_555
N1 Cu2 1_555 1_555
N2 C4 1_555 1_555
N3 C5 1_555 1_555
N4 C8 1_555 1_555
N5 C12 1_555 1_555
N6 C9 1_555 1_555
N7 Cu1 1_555 1_555
N8 C65 1_555 1_555
C1 N1 1_555 1_555
C2 C1 1_555 1_555
C3 S2 1_555 1_555
C4 C3 1_555 1_555
C5 C6 1_555 1_555
C6 S3 1_555 1_555
C7 S4 1_555 1_555
C8 C7 1_555 1_555
C9 C10 1_555 1_555
C10 S6 1_555 1_555
C11 S5 1_555 1_555
C12 C11 1_555 1_555
C13 H1 1_555 1_555
H2 C13 1_555 1_555
C14 P1 1_555 1_555
C15 C14 1_555 1_555
H3 C15 1_555 1_555
C16 C15 1_555 1_555
H4 C16 1_555 1_555
C17 C16 1_555 1_555
H5 C17 1_555 1_555
C18 C17 1_555 1_555
H6 C18 1_555 1_555
C19 C14 1_555 1_555
H7 C19 1_555 1_555
C20 P1 1_555 1_555
C21 C20 1_555 1_555
H8 C21 1_555 1_555
C22 C21 1_555 1_555
H9 C22 1_555 1_555
C23 C22 1_555 1_555
H10 C23 1_555 1_555
C24 C23 1_555 1_555
H11 C24 1_555 1_555
C25 C20 1_555 1_555
H12 C25 1_555 1_555
C26 P2 1_555 1_555
C27 C26 1_555 1_555
H13 C27 1_555 1_555
C28 C27 1_555 1_555
H14 C28 1_555 1_555
C29 C28 1_555 1_555
H15 C29 1_555 1_555
C30 C29 1_555 1_555
H16 C30 1_555 1_555
C31 C26 1_555 1_555
H17 C31 1_555 1_555
C32 P2 1_555 1_555
C33 C32 1_555 1_555
H18 C33 1_555 1_555
C34 C33 1_555 1_555
H19 C34 1_555 1_555
C35 C34 1_555 1_555
H20 C35 1_555 1_555
C36 C35 1_555 1_555
H21 C36 1_555 1_555
C37 C32 1_555 1_555
H22 C37 1_555 1_555
C38 P3 1_555 1_555
H23 C38 1_555 1_555
H24 C38 1_555 1_555
C39 P4 1_555 1_555
C40 C39 1_555 1_555
H25 C40 1_555 1_555
C41 C40 1_555 1_555
H26 C41 1_555 1_555
C42 C41 1_555 1_555
H27 C42 1_555 1_555
C43 C42 1_555 1_555
H28 C43 1_555 1_555
C44 C39 1_555 1_555
H29 C44 1_555 1_555
C45 P4 1_555 1_555
C46 C45 1_555 1_555
H30 C46 1_555 1_555
C47 C46 1_555 1_555
H31 C47 1_555 1_555
C48 C47 1_555 1_555
H32 C48 1_555 1_555
C49 C48 1_555 1_555
H33 C49 1_555 1_555
C50 C45 1_555 1_555
H34 C50 1_555 1_555
C51 P3 1_555 1_555
C52 C51 1_555 1_555
H35 C52 1_555 1_555
C53 C52 1_555 1_555
H36 C53 1_555 1_555
C54 C53 1_555 1_555
H37 C54 1_555 1_555
C55 C54 1_555 1_555
H38 C55 1_555 1_555
C56 C51 1_555 1_555
H39 C56 1_555 1_555
C57 P3 1_555 1_555
C58 C57 1_555 1_555
H40 C58 1_555 1_555
C59 C58 1_555 1_555
H41 C59 1_555 1_555
C60 C59 1_555 1_555
H42 C60 1_555 1_555
C61 C60 1_555 1_555
H43 C61 1_555 1_555
C62 C57 1_555 1_555
H44 C62 1_555 1_555
C63 N7 1_555 1_555
C64 C63 1_555 1_555
H45 C64 1_555 1_555
H46 C64 1_555 1_555
H47 C64 1_555 1_555
C65 C66 1_555 1_555
C66 H48 1_555 1_555
H49 C66 1_555 1_555
H50 C66 1_555 1_555
O2 C71 1_555 1_555
C71 H61 1_555 1_555
H62 C71 1_555 1_555
C72 C71 1_555 1_555
H63 C72 1_555 1_555
H64 C72 1_555 1_555
H65 C72 1_555 1_555
C73 O2 1_555 1_555
H66 C73 1_555 1_555
H67 C73 1_555 1_555
C74 C73 1_555 1_555
H68 C74 1_555 1_555
H69 C74 1_555 1_555
H70 C74 1_555 1_555
O3 C76 1_555 1_555
C75 H71 1_555 1_555
H72 C75 1_555 1_555
H73 C75 1_555 1_555
C76 C75 1_555 1_555
H74 C76 1_555 1_555
H75 C76 1_555 1_555
C77 O3 1_555 1_555
H76 C77 1_555 1_555
H77 C77 1_555 1_555
C78 C77 1_555 1_555
H78 C78 1_555 1_555
H79 C78 1_555 1_555
H80 C78 1_555 1_555
Cu2A N6 1_555 1_555
N6A Cu2 1_555 1_555
P4 C38 1_555 1_555
C2 C3 1_555 1_555
C6 C7 1_555 1_555
C10 C11 1_555 1_555
C18 C19 1_555 1_555
C24 C25 1_555 1_555
C30 C31 1_555 1_555
C36 C37 1_555 1_555
C43 C44 1_555 1_555
C49 C50 1_555 1_555
C55 C56 1_555 1_555
C61 C62 1_555 1_555

#END
