
#######################################################################
#
#                 Cambridge Crystallographic Data Centre
#                                CCDC 
#
#######################################################################
#
# If this CIF has been generated from an entry in the Cambridge 
# Structural Database, then it will include bibliographic, chemical, 
# crystal, experimental, refinement or atomic coordinate data resulting 
# from the CCDC's data processing and validation procedures.
#
#######################################################################

data_SIBDOY
_symmetry_cell_setting           triclinic
_symmetry_space_group_name_H-M   'P -1'
_symmetry_Int_Tables_number      2
_space_group_name_Hall           '-P 1'
loop_
_symmetry_equiv_pos_site_id
_symmetry_equiv_pos_as_xyz
1 x,y,z
2 -x,-y,-z
_cell_length_a                   7.47630(10)
_cell_length_b                   8.37070(10)
_cell_length_c                   9.01210(10)
_cell_angle_alpha                93.2460(10)
_cell_angle_beta                 113.2910(10)
_cell_angle_gamma                105.2300(10)
_cell_volume                     491.575
loop_
_atom_site_label
_atom_site_type_symbol
_atom_site_fract_x
_atom_site_fract_y
_atom_site_fract_z
C1 C 0.7225(3) -0.1524(2) 0.6068(2)
H1 H 0.6855 -0.2508 0.6454
C2 C 0.6317(3) -0.1538(2) 0.4408(2)
H2 H 0.5352 -0.2512 0.3692
C3 C 0.6854(3) -0.0089(2) 0.3817(2)
H3 H 0.6273 -0.0074 0.2697
C4 C 0.8277(2) 0.1347(2) 0.49261(19)
C5 C 0.9128(2) 0.1248(2) 0.65821(19)
H4 H 1.0097 0.2205 0.7325
C6 C 0.8877(3) 0.2929(2) 0.4371(2)
H5 H 0.8618 0.2917 0.3272
C7 C 0.6050(2) -0.27730(18) 0.95974(18)
C8 C 0.4600(2) -0.45397(19) 0.92935(19)
H6 H 0.4426 -0.5175 0.8286
H7 H 0.3269 -0.4471 0.9155
Cd1 Cd 1.0000 0.0000 1.0000
N1 N 0.8624(2) -0.01510(17) 0.71582(16)
N2 N 0.9747(3) 0.43156(18) 0.53778(18)
O1 O 0.77674(17) -0.26574(14) 0.95918(16)
O2 O 0.5532(2) -0.15466(17) 0.9852(2)
O3 O 1.17857(19) -0.19066(18) 0.98797(19)
H8 H 1.174(4) -0.267(3) 1.059(3)
H9 H 1.307(3) -0.159(3) 0.992(3)
C1A C 1.2775(3) 1.1524(2) 0.3932(2)
H1A H 1.3145 1.2508 0.3546
C2A C 1.3683(3) 1.1538(2) 0.5592(2)
H2A H 1.4648 1.2512 0.6308
C3A C 1.3146(3) 1.0089(2) 0.6183(2)
H3A H 1.3727 1.0074 0.7303
C4A C 1.1723(2) 0.8653(2) 0.50739(19)
C5A C 1.0872(2) 0.8752(2) 0.34179(19)
H4A H 0.9903 0.7795 0.2675
C6A C 1.1123(3) 0.7071(2) 0.5629(2)
H5A H 1.1382 0.7083 0.6728
N1A N 1.1376(2) 1.01510(17) 0.28418(16)
N2A N 1.0253(3) 0.56844(18) 0.46222(18)
C7A C 0.3950(2) -0.72270(18) 1.04026(18)
C8A C 0.5400(2) -0.54603(19) 1.07065(19)
H6A H 0.5574 -0.4825 1.1714
H7A H 0.6731 -0.5529 1.0845
O1A O 0.22326(17) -0.73426(14) 1.04082(16)
O2A O 0.4468(2) -0.84534(17) 1.0148(2)
O3A O 0.82143(19) 0.19066(18) 1.01203(19)
H8A H 0.826(4) 0.267(3) 0.941(3)
H9A H 0.693(3) 0.159(3) 1.008(3)
Cd1_2 Cd 0.0000 -1.0000 1.0000
Cd1_3 Cd 1.0000 1.0000 0.0000
N1A_2 N 1.1376(2) 0.01510(17) 1.28418(16)
O1A_2 O 1.22326(17) 0.26574(14) 1.04082(16)
O4 O 0.8092(2) -0.55503(18) 0.8098(2)
H10 H 0.812(4) -0.459(3) 0.862(3)
H11 H 0.887(4) -0.531(4) 0.754(3)
loop_
_geom_bond_atom_site_label_1
_geom_bond_atom_site_label_2
_geom_bond_site_symmetry_1
_geom_bond_site_symmetry_2
C1 H1 1_555 1_555
C2 C1 1_555 1_555
H2 C2 1_555 1_555
C3 C2 1_555 1_555
H3 C3 1_555 1_555
C4 C3 1_555 1_555
C5 C4 1_555 1_555
H4 C5 1_555 1_555
C6 C4 1_555 1_555
H5 C6 1_555 1_555
C7 C8 1_555 1_555
C8 H6 1_555 1_555
H7 C8 1_555 1_555
Cd1 N1 1_555 1_555
N1 C1 1_555 1_555
N2 C6 1_555 1_555
O1 C7 1_555 1_555
O2 C7 1_555 1_555
O3 Cd1 1_555 1_555
H8 O3 1_555 1_555
H9 O3 1_555 1_555
O4 H10 1_555 1_555
H11 O4 1_555 1_555
C1A H1A 1_555 1_555
C2A C1A 1_555 1_555
H2A C2A 1_555 1_555
C3A C2A 1_555 1_555
H3A C3A 1_555 1_555
C4A C3A 1_555 1_555
C5A C4A 1_555 1_555
H4A C5A 1_555 1_555
C6A C4A 1_555 1_555
H5A C6A 1_555 1_555
N1A C1A 1_555 1_555
N2A N2 1_555 1_555
C7A C8A 1_555 1_555
C8A C8 1_555 1_555
H6A C8A 1_555 1_555
H7A C8A 1_555 1_555
O1A C7A 1_555 1_555
O2A C7A 1_555 1_555
O3A Cd1 1_555 1_555
H8A O3A 1_555 1_555
H9A O3A 1_555 1_555
Cd1_2 O1A 1_555 1_555
Cd1_3 N1A 1_555 1_555
N1A_2 Cd1 1_555 1_555
O1A_2 Cd1 1_555 1_555
C5 N1 1_555 1_555
Cd1 O1 1_555 1_555
C5A N1A 1_555 1_555
C6A N2A 1_555 1_555

#END
