
#######################################################################
#
#                 Cambridge Crystallographic Data Centre
#                                CCDC 
#
#######################################################################
#
# If this CIF has been generated from an entry in the Cambridge 
# Structural Database, then it will include bibliographic, chemical, 
# crystal, experimental, refinement or atomic coordinate data resulting 
# from the CCDC's data processing and validation procedures.
#
#######################################################################

data_SIBDIS
_symmetry_cell_setting           triclinic
_symmetry_space_group_name_H-M   'P -1'
_symmetry_Int_Tables_number      2
_space_group_name_Hall           '-P 1'
loop_
_symmetry_equiv_pos_site_id
_symmetry_equiv_pos_as_xyz
1 x,y,z
2 -x,-y,-z
_cell_length_a                   10.6965(5)
_cell_length_b                   10.9917(5)
_cell_length_c                   11.8093(5)
_cell_angle_alpha                99.715(2)
_cell_angle_beta                 98.778(2)
_cell_angle_gamma                92.825(2)
_cell_volume                     1348.49
loop_
_atom_site_label
_atom_site_type_symbol
_atom_site_fract_x
_atom_site_fract_y
_atom_site_fract_z
C1 C 1.2659(3) 0.0797(3) 0.9081(3)
H1 H 1.3044 0.0662 0.9805
C2 C 1.3410(3) 0.1125(3) 0.8328(3)
H2 H 1.4288 0.1198 0.8536
C3 C 1.2855(3) 0.1348(3) 0.7258(3)
H3 H 1.3353 0.1571 0.6735
C4 C 1.1538(3) 0.1233(2) 0.6973(2)
C5 C 1.0861(3) 0.0891(2) 0.7794(2)
H4 H 0.9980 0.0819 0.7615
C6 C 1.0860(3) 0.1459(3) 0.5862(3)
H5 H 1.1315 0.1578 0.5273
C7 C 0.8072(3) 0.2024(3) 0.4506(3)
H6 H 0.7673 0.2103 0.5158
C8 C 0.7388(3) 0.2275(3) 0.3403(3)
C9 C 0.6182(3) 0.2682(4) 0.3323(4)
H7 H 0.5787 0.2816 0.3977
C10 C 0.5568(3) 0.2889(4) 0.2265(4)
H8 H 0.4758 0.3170 0.2197
C11 C 0.6172(3) 0.2675(3) 0.1322(3)
H9 H 0.5743 0.2787 0.0605
C12 C 0.7928(3) 0.2122(3) 0.2400(3)
H10 H 0.8749 0.1870 0.2449
C13 C 1.2277(2) 0.0338(3) 1.2245(2)
H11 H 1.2319 -0.0492 1.1936
C14 C 1.3071(2) 0.0845(3) 1.3284(2)
C15 C 1.3021(2) 0.2077(3) 1.3734(3)
H12 H 1.3535 0.2444 1.4428
C16 C 1.2192(3) 0.2758(3) 1.3132(3)
H13 H 1.2150 0.3596 1.3411
C17 C 1.1432(3) 0.2193(3) 1.2123(3)
H14 H 1.0873 0.2665 1.1734
C18 C 1.3919(2) 0.0032(3) 1.3848(2)
H15 H 1.3933 -0.0791 1.3501
N1 N 1.1386(2) 0.0660(2) 0.8819(2)
N2 N 0.9683(3) 0.1495(2) 0.5693(2)
N3 N 0.9199(3) 0.1701(2) 0.4579(2)
N4 N 0.7354(3) 0.2310(3) 0.1378(2)
N5 N 1.1455(2) 0.0997(2) 1.1669(2)
N6 N 1.4623(2) 0.0454(2) 1.4799(2)
O1 O 1.09647(19) -0.1793(2) 1.01263(19)
Cd1 Cd 1.0000 0.0000 1.0000
H16 H 1.1575 -0.2106 0.9644
H17 H 1.0421 -0.2456 1.0201
C13A C 1.7723(2) -0.0338(3) 1.7755(2)
H11A H 1.7681 0.0492 1.8064
C14A C 1.6929(2) -0.0845(3) 1.6716(2)
C15A C 1.6979(2) -0.2077(3) 1.6266(3)
H12A H 1.6465 -0.2444 1.5572
C16A C 1.7808(3) -0.2758(3) 1.6868(3)
H13A H 1.7850 -0.3596 1.6589
C17A C 1.8568(3) -0.2193(3) 1.7877(3)
H14A H 1.9127 -0.2665 1.8266
C18A C 1.6081(2) -0.0032(3) 1.6152(2)
H15A H 1.6067 0.0791 1.6499
N5A N 1.8545(2) -0.0997(2) 1.8331(2)
N6A N 1.5377(2) -0.0454(2) 1.5201(2)
C1A C 0.7341(3) -0.0797(3) 1.0919(3)
H1A H 0.6956 -0.0662 1.0195
C2A C 0.6590(3) -0.1125(3) 1.1672(3)
H2A H 0.5712 -0.1198 1.1464
C3A C 0.7145(3) -0.1348(3) 1.2742(3)
H3A H 0.6647 -0.1571 1.3265
C4A C 0.8462(3) -0.1233(2) 1.3027(2)
C5A C 0.9139(3) -0.0891(2) 1.2206(2)
H4A H 1.0020 -0.0819 1.2385
C6A C 0.9140(3) -0.1459(3) 1.4138(3)
H5A H 0.8685 -0.1578 1.4727
C7A C 1.1928(3) -0.2024(3) 1.5494(3)
H6A H 1.2327 -0.2103 1.4842
C8A C 1.2612(3) -0.2275(3) 1.6597(3)
C9A C 1.3818(3) -0.2682(4) 1.6677(4)
H7A H 1.4213 -0.2816 1.6023
C10A C 1.4432(3) -0.2889(4) 1.7735(4)
H8A H 1.5242 -0.3170 1.7803
C11A C 1.3828(3) -0.2675(3) 1.8678(3)
H9A H 1.4257 -0.2787 1.9395
C12A C 1.2072(3) -0.2122(3) 1.7600(3)
H10A H 1.1251 -0.1870 1.7551
N1A N 0.8614(2) -0.0660(2) 1.1181(2)
N2A N 1.0317(3) -0.1495(2) 1.4307(2)
N3A N 1.0801(3) -0.1701(2) 1.5421(2)
N4A N 1.2646(3) -0.2310(3) 1.8622(2)
O1A O 0.90353(19) 0.1793(2) 0.98737(19)
H16A H 0.8425 0.2106 1.0356
H17A H 0.9579 0.2456 0.9799
N5A_2 N 0.8545(2) -0.0997(2) 0.8331(2)
Cd1_2 Cd 2.0000 0.0000 2.0000
C19 C 0.9849(3) 0.4596(3) 0.6275(3)
H18 H 0.8970 0.4462 0.6121
C20 C 1.0527(3) 0.4403(2) 0.7392(3)
C21 C 0.9849(3) 0.3905(3) 0.8137(3)
H19 H 0.8977 0.3739 0.7911
C22 C 1.2377(4) 0.4422(3) 0.8793(4)
H20 H 1.3243 0.4603 0.9051
C23 C 1.1627(4) 0.3934(3) 0.9480(4)
H21 H 1.2011 0.3794 1.0204
C24 C 1.1832(4) 0.4639(3) 0.7718(4)
H22 H 1.2324 0.4936 0.7224
N7 N 1.0421(3) 0.4940(3) 0.5511(3)
N8 N 1.0381(3) 0.3650(3) 0.9168(3)
C19A C 1.0151(3) 0.5404(3) 0.3725(3)
H18A H 1.1030 0.5538 0.3879
C20A C 0.9473(3) 0.5597(2) 0.2608(3)
C21A C 1.0151(3) 0.6095(3) 0.1863(3)
H19A H 1.1023 0.6261 0.2089
C22A C 0.7623(4) 0.5578(3) 0.1207(4)
H20A H 0.6757 0.5397 0.0949
C23A C 0.8373(4) 0.6066(3) 0.0520(4)
H21A H 0.7989 0.6206 -0.0204
C24A C 0.8168(4) 0.5361(3) 0.2282(4)
H22A H 0.7676 0.5064 0.2776
N7A N 0.9579(3) 0.5060(3) 0.4489(3)
N8A N 0.9619(3) 0.6350(3) 0.0832(3)
O2 O 0.5219(4) 0.6339(6) 0.3108(7)
O3 O 0.3773(12) 0.5264(7) 0.1790(8)
O4 O 0.3669(8) 0.7222(4) 0.2004(7)
O5 O 0.3228(6) 0.6061(17) 0.3118(12)
Cl1 Cl 0.40262(9) 0.62383(9) 0.24724(12)
loop_
_geom_bond_atom_site_label_1
_geom_bond_atom_site_label_2
_geom_bond_site_symmetry_1
_geom_bond_site_symmetry_2
C1 H1 1_555 1_555
C2 C1 1_555 1_555
H2 C2 1_555 1_555
C3 C2 1_555 1_555
H3 C3 1_555 1_555
C4 C3 1_555 1_555
C5 C4 1_555 1_555
H4 C5 1_555 1_555
C6 C4 1_555 1_555
H5 C6 1_555 1_555
C7 H6 1_555 1_555
C8 C7 1_555 1_555
C9 C8 1_555 1_555
H7 C9 1_555 1_555
C10 C9 1_555 1_555
H8 C10 1_555 1_555
C11 C10 1_555 1_555
H9 C11 1_555 1_555
C12 C8 1_555 1_555
H10 C12 1_555 1_555
C13 H11 1_555 1_555
C14 C13 1_555 1_555
C15 C14 1_555 1_555
H12 C15 1_555 1_555
C16 C15 1_555 1_555
H13 C16 1_555 1_555
C17 C16 1_555 1_555
H14 C17 1_555 1_555
C18 C14 1_555 1_555
H15 C18 1_555 1_555
N1 C1 1_555 1_555
N2 C6 1_555 1_555
N3 C7 1_555 1_555
N4 C11 1_555 1_555
N5 C13 1_555 1_555
N6 C18 1_555 1_555
O1 Cd1 1_555 1_555
Cd1 N1 1_555 1_555
H16 O1 1_555 1_555
H17 O1 1_555 1_555
C19 H18 1_555 1_555
C20 C19 1_555 1_555
C21 C20 1_555 1_555
H19 C21 1_555 1_555
C22 H20 1_555 1_555
C23 C22 1_555 1_555
H21 C23 1_555 1_555
C24 C20 1_555 1_555
H22 C24 1_555 1_555
N7 C19 1_555 1_555
N8 C21 1_555 1_555
O2 Cl1 1_555 1_555
O3 Cl1 1_555 1_555
O4 Cl1 1_555 1_555
O5 Cl1 1_555 1_555
C13A H11A 1_555 1_555
C14A C13A 1_555 1_555
C15A C14A 1_555 1_555
H12A C15A 1_555 1_555
C16A C15A 1_555 1_555
H13A C16A 1_555 1_555
C17A C16A 1_555 1_555
H14A C17A 1_555 1_555
C18A C14A 1_555 1_555
H15A C18A 1_555 1_555
N5A C13A 1_555 1_555
N6A N6 1_555 1_555
C1A H1A 1_555 1_555
C2A C1A 1_555 1_555
H2A C2A 1_555 1_555
C3A C2A 1_555 1_555
H3A C3A 1_555 1_555
C4A C3A 1_555 1_555
C5A C4A 1_555 1_555
H4A C5A 1_555 1_555
C6A C4A 1_555 1_555
H5A C6A 1_555 1_555
C7A H6A 1_555 1_555
C8A C7A 1_555 1_555
C9A C8A 1_555 1_555
H7A C9A 1_555 1_555
C10A C9A 1_555 1_555
H8A C10A 1_555 1_555
C11A C10A 1_555 1_555
H9A C11A 1_555 1_555
C12A C8A 1_555 1_555
H10A C12A 1_555 1_555
N1A Cd1 1_555 1_555
N2A C6A 1_555 1_555
N3A C7A 1_555 1_555
N4A C11A 1_555 1_555
O1A Cd1 1_555 1_555
H16A O1A 1_555 1_555
H17A O1A 1_555 1_555
N5A_2 Cd1 1_555 1_555
Cd1_2 N5A 1_555 1_555
C19A H18A 1_555 1_555
C20A C19A 1_555 1_555
C21A C20A 1_555 1_555
H19A C21A 1_555 1_555
C22A H20A 1_555 1_555
C23A C22A 1_555 1_555
H21A C23A 1_555 1_555
C24A C20A 1_555 1_555
H22A C24A 1_555 1_555
N7A N7 1_555 1_555
N8A C21A 1_555 1_555
C5 N1 1_555 1_555
C12 N4 1_555 1_555
C17 N5 1_555 1_555
N2 N3 1_555 1_555
N5 Cd1 1_555 1_555
C22 C24 1_555 1_555
C23 N8 1_555 1_555
C17A N5A 1_555 1_555
C18A N6A 1_555 1_555
C1A N1A 1_555 1_555
C5A N1A 1_555 1_555
C12A N4A 1_555 1_555
N2A N3A 1_555 1_555
C19A N7A 1_555 1_555
C22A C24A 1_555 1_555
C23A N8A 1_555 1_555

#END
