
#######################################################################
#
#                 Cambridge Crystallographic Data Centre
#                                CCDC 
#
#######################################################################
#
# If this CIF has been generated from an entry in the Cambridge 
# Structural Database, then it will include bibliographic, chemical, 
# crystal, experimental, refinement or atomic coordinate data resulting 
# from the CCDC's data processing and validation procedures.
#
#######################################################################

data_SIBFOY
_symmetry_cell_setting           triclinic
_symmetry_space_group_name_H-M   'P -1'
_symmetry_Int_Tables_number      2
_space_group_name_Hall           '-P 1'
loop_
_symmetry_equiv_pos_site_id
_symmetry_equiv_pos_as_xyz
1 x,y,z
2 -x,-y,-z
_cell_length_a                   15.331(4)
_cell_length_b                   15.555(4)
_cell_length_c                   16.833(5)
_cell_angle_alpha                105.48(2)
_cell_angle_beta                 96.48(2)
_cell_angle_gamma                110.2(2)
_cell_volume                     3536.15
loop_
_atom_site_label
_atom_site_type_symbol
_atom_site_fract_x
_atom_site_fract_y
_atom_site_fract_z
La1 La 0.4902(1) 0.5217(1) 0.8718(1)
La2 La 0.5137(1) 0.5722(2) 0.6390(1)
O1 O 0.6264(8) 0.4687(12) 0.8824(3)
O2 O 0.5720(8) 0.4633(14) 0.9930(4)
O3 O 0.4050(5) 0.5681(18) 0.7412(4)
O4 O 0.3118(8) 0.4900(15) 0.8082(6)
O5 O 0.4998(7) 0.7020(13) 0.9130(5)
O6 O 0.6097(6) 0.6806(14) 0.9886(4)
O7 O 0.6074(7) 0.6100(16) 0.7984(6)
O8 O 0.6962(9) 0.6343(19) 0.7054(5)
O9 O 0.4671(5) 0.4168(13) 0.7170(4)
O10 O 0.3902(7) 0.3988(18) 0.5916(4)
O11 O 0.3822(7) 0.6102(19) 0.5682(5)
O12 O 0.4309(15) 0.5269(15) 0.4705(11)
O13 O 0.6157(7) 0.6878(18) 0.5700(5)
O14 O 0.5267(7) 0.7729(19) 0.7416(4)
O15 O 0.3852(5) 0.3526(11) 0.8633(3)
C1 C 0.6267(6) 0.4455(15) 0.9475(4)
C2 C 0.6885(5) 0.3971(12) 0.9687(3)
C3 C 0.6161(6) 0.2813(14) 0.9256(4)
C4 C 0.6982(7) 0.2303(18) 0.9423(5)
C5 C 0.8147(6) 0.3064(17) 0.9357(5)
C6 C 0.8509(9) 0.3970(14) 0.9852(6)
C7 C 0.7880(6) 0.4419(15) 0.9536(4)
C8 C 0.3248(9) 0.5416(11) 0.7587(10)
C9 C 0.2532(10) 0.5744(14) 0.7217(13)
C10 C 0.2208(12) 0.6279(13) 0.7994(17)
C11 C 0.1441(14) 0.6611(17) 0.7646(18)
C12 C 0.0633(15) 0.5747(13) 0.6914(11)
C13 C 0.0983(13) 0.5278(9) 0.6272(15)
C14 C 0.1715(12) 0.4932(8) 0.6593(14)
C15 C 0.5749(8) 0.7325(8) 0.9663(12)
C16 C 0.6365(13) 0.8468(14) 0.9942(18)
C17 C 0.5745(11) 0.9037(13) 1.0239(13)
C18 C 0.6246(16) 1.0102(18) 1.0409(17)
C19 C 0.7393(12) 1.0479(12) 1.1060(16)
C20 C 0.7943(12) 0.9842(14) 1.0759(13)
C21 C 0.7276(13) 0.8730(15) 1.0580(16)
C22 C 0.6900(15) 0.6411(14) 0.7837(18)
C23 C 0.7789(17) 0.6907(14) 0.8575(13)
C24 C 0.8322(9) 0.7988(13) 0.8572(14)
C25 C 0.9292(10) 0.8464(15) 0.9242(11)
C26 C 0.9873(14) 0.7856(12) 0.9095(15)
C27 C 0.9262(11) 0.6764(15) 0.9077(13)
C28 C 0.8417(9) 0.6400(13) 0.8475(17)
C29 C 0.4010(13) 0.3645(16) 0.6502(13)
C30 C 0.3379(14) 0.2663(17) 0.6438(11)
C31 C 0.3729(12) 0.1919(15) 0.5944(14)
C32 C 0.3037(16) 0.1133(19) 0.6041(14)
C33 C 0.1880(11) 0.0928(11) 0.5484(14)
C34 C 0.1485(10) 0.1419(15) 0.5882(13)
C35 C 0.2348(13) 0.2477(13) 0.6045(17)
C36 C 0.3812(12) 0.5752(12) 0.4911(18)
C37 C 0.3212(15) 0.5879(16) 0.4251(11)
C38 C 0.2301(11) 0.5938(16) 0.4408(13)
C39 C 0.1830(10) 0.6153(15) 0.3952(13)
C40 C 0.2478(9) 0.6950(16) 0.3405(15)
C41 C 0.3233(8) 0.6737(13) 0.3181(12)
C42 C 0.3762(7) 0.6641(13) 0.3953(16)
O2A O 0.4280(8) 0.5367(14) 1.0070(4)
O12A O 0.5691(15) 0.4731(15) 0.5295(11)
La1A La 0.5098(1) 0.4783(1) 1.1282(1)
La2A La 0.4863(1) 0.4278(2) 0.3610(1)
O16 O 0.1563(15) 0.3190(15) 0.3575(10)
O17 O 0.1877(6) 0.1974(17) 0.3671(4)
C43 C 0.1313(12) 0.2359(9) 0.3721(13)
C44 C 0.0388(14) 0.1916(14) 0.3934(15)
C45 C -0.0418(9) 0.1538(15) 0.3127(12)
C46 C -0.1371(13) 0.1163(17) 0.3425(17)
C47 C -0.1408(12) 0.1986(13) 0.4241(16)
C48 C -0.0673(11) 0.2151(15) 0.4905(14)
C49 C 0.0327(10) 0.2683(16) 0.4683(16)
O18 O 0.1954(7) 0.2632(18) 0.8061(5)
O19 O 0.1399(6) 0.3797(13) 0.8233(5)
C50 C 0.1292(9) 0.2911(14) 0.8133(12)
C51 C 0.0247(14) 0.2276(12) 0.8108(14)
C52 C 0.0164(11) 0.1332(14) 0.8338(15)
C53 C -0.0839(12) 0.0573(14) 0.8120(16)
C54 C -0.1419(18) 0.0364(15) 0.7198(13)
C55 C -0.1355(17) 0.1287(16) 0.6997(17)
C56 C -0.0317(15) 0.2064(18) 0.7192(14)
loop_
_geom_bond_atom_site_label_1
_geom_bond_atom_site_label_2
_geom_bond_site_symmetry_1
_geom_bond_site_symmetry_2
La1 O1 1_555 1_555
La2 O3 1_555 1_555
O1 C1 1_555 1_555
O2 La1 1_555 1_555
O3 La1 1_555 1_555
O4 La1 1_555 1_555
O5 La1 1_555 1_555
O6 La1 1_555 1_555
O7 La1 1_555 1_555
O8 La2 1_555 1_555
O9 La1 1_555 1_555
O10 La2 1_555 1_555
O11 La2 1_555 1_555
O12 La2 1_555 1_555
O13 La2 1_555 1_555
O14 La2 1_555 1_555
O15 La1 1_555 1_555
O16 C43 1_555 1_555
O17 C43 1_555 1_555
O18 C50 1_555 1_555
O19 C50 1_555 1_555
C1 O2 1_555 1_555
C2 C1 1_555 1_555
C3 C2 1_555 1_555
C4 C3 1_555 1_555
C5 C4 1_555 1_555
C6 C5 1_555 1_555
C7 C2 1_555 1_555
C8 O3 1_555 1_555
C9 C8 1_555 1_555
C10 C9 1_555 1_555
C11 C10 1_555 1_555
C12 C11 1_555 1_555
C13 C12 1_555 1_555
C14 C9 1_555 1_555
C15 O5 1_555 1_555
C16 C15 1_555 1_555
C17 C16 1_555 1_555
C18 C17 1_555 1_555
C19 C18 1_555 1_555
C20 C19 1_555 1_555
C21 C16 1_555 1_555
C22 O7 1_555 1_555
C23 C22 1_555 1_555
C24 C23 1_555 1_555
C25 C24 1_555 1_555
C26 C25 1_555 1_555
C27 C26 1_555 1_555
C28 C23 1_555 1_555
C29 O9 1_555 1_555
C30 C29 1_555 1_555
C31 C30 1_555 1_555
C32 C31 1_555 1_555
C33 C32 1_555 1_555
C34 C33 1_555 1_555
C35 C30 1_555 1_555
C36 O11 1_555 1_555
C37 C36 1_555 1_555
C38 C37 1_555 1_555
C39 C38 1_555 1_555
C40 C39 1_555 1_555
C41 C40 1_555 1_555
C42 C37 1_555 1_555
C43 C44 1_555 1_555
C44 C45 1_555 1_555
C45 C46 1_555 1_555
C46 C47 1_555 1_555
C47 C48 1_555 1_555
C48 C49 1_555 1_555
C49 C44 1_555 1_555
C50 C51 1_555 1_555
C51 C52 1_555 1_555
C52 C53 1_555 1_555
C53 C54 1_555 1_555
C54 C55 1_555 1_555
C55 C56 1_555 1_555
C56 C51 1_555 1_555
O2A La1 1_555 1_555
O12A La2 1_555 1_555
La1A O2 1_555 1_555
La2A O12 1_555 1_555
La2 O7 1_555 1_555
La2 O9 1_555 1_555
O4 C8 1_555 1_555
O6 C15 1_555 1_555
O8 C22 1_555 1_555
O10 C29 1_555 1_555
O12 C36 1_555 1_555
C6 C7 1_555 1_555
C13 C14 1_555 1_555
C20 C21 1_555 1_555
C27 C28 1_555 1_555
C34 C35 1_555 1_555
C41 C42 1_555 1_555
O2A La1A 1_555 1_555
O12A La2A 1_555 1_555

#END
