
#######################################################################
#
#                 Cambridge Crystallographic Data Centre
#                                CCDC 
#
#######################################################################
#
# If this CIF has been generated from an entry in the Cambridge 
# Structural Database, then it will include bibliographic, chemical, 
# crystal, experimental, refinement or atomic coordinate data resulting 
# from the CCDC's data processing and validation procedures.
#
#######################################################################

data_SIBYUY
_symmetry_cell_setting           monoclinic
_symmetry_space_group_name_H-M   'P 21/c'
_symmetry_Int_Tables_number      14
_space_group_name_Hall           '-P 2ybc'
loop_
_symmetry_equiv_pos_site_id
_symmetry_equiv_pos_as_xyz
1 x,y,z
2 -x,1/2+y,1/2-z
3 -x,-y,-z
4 x,1/2-y,1/2+z
_cell_length_a                   13.242(3)
_cell_length_b                   11.758(2)
_cell_length_c                   11.508(2)
_cell_angle_alpha                90
_cell_angle_beta                 108.00(3)
_cell_angle_gamma                90
_cell_volume                     1704.09
loop_
_atom_site_label
_atom_site_type_symbol
_atom_site_fract_x
_atom_site_fract_y
_atom_site_fract_z
Mn1 Mn 0.59083(3) 0.20536(3) 0.04865(3)
Cl1 Cl 0.03859(5) 0.35613(6) -0.06398(6)
Cl2 Cl 1.09794(5) -0.08438(6) 0.20747(6)
O1 O 0.46559(11) 0.15831(12) 0.07862(12)
O2 O 0.67003(11) 0.08953(12) 0.14966(12)
N1 N 0.51809(14) 0.33398(14) -0.05764(13)
N2 N 0.71756(14) 0.26471(14) 0.01283(14)
N3 N 0.55922(16) 0.10219(16) -0.12309(15)
H1 H 0.5226 0.0410 -0.1279
N4 N 0.62656(16) 0.15602(16) -0.29357(15)
C1 C 0.37161(17) 0.20712(17) 0.04456(17)
C2 C 0.29186(17) 0.16113(19) 0.08742(18)
H2 H 0.3072 0.0978 0.1382
C3 C 0.19205(18) 0.20714(19) 0.05631(19)
H3 H 0.1414 0.1765 0.0881
C4 C 0.16645(17) 0.29931(19) -0.02250(19)
C5 C 0.24058(17) 0.34512(18) -0.06874(18)
H4 H 0.2220 0.4053 -0.1237
C6 C 0.34505(17) 0.30228(17) -0.03426(18)
C7 C 0.42086(18) 0.36009(17) -0.08185(17)
H5 H 0.3961 0.4212 -0.1343
C8 C 0.58726(17) 0.39348(18) -0.11733(18)
H6 H 0.5691 0.4736 -0.1262
H7 H 0.5768 0.3620 -0.1981
C9 C 0.70196(18) 0.37955(18) -0.0405(2)
H8 H 0.7479 0.3906 -0.0909
H9 H 0.7200 0.4361 0.0240
C10 C 0.80660(18) 0.21306(18) 0.03538(18)
H10 H 0.8583 0.2471 0.0078
C11 C 0.83361(17) 0.10705(18) 0.09970(18)
C12 C 0.93451(17) 0.0617(2) 0.11496(19)
H11 H 0.9793 0.0978 0.0783
C13 C 0.96872(17) -0.0341(2) 0.18222(19)
C14 C 0.90121(19) -0.08999(19) 0.23538(19)
H12 H 0.9238 -0.1560 0.2804
C15 C 0.80211(18) -0.04824(19) 0.22154(18)
H13 H 0.7581 -0.0868 0.2574
C16 C 0.76449(17) 0.05125(18) 0.15477(17)
C17 C 0.59158(17) 0.12714(17) -0.21608(19)
Mn1C Mn 0.59083(3) 0.29464(3) -0.45135(3)
N4C N 0.62656(16) 0.34398(16) 0.20643(15)
loop_
_geom_bond_atom_site_label_1
_geom_bond_atom_site_label_2
_geom_bond_site_symmetry_1
_geom_bond_site_symmetry_2
Mn1 O1 1_555 1_555
Cl1 C4 1_555 1_555
Cl2 C13 1_555 1_555
O1 C1 1_555 1_555
O2 Mn1 1_555 1_555
N1 Mn1 1_555 1_555
N2 Mn1 1_555 1_555
N3 Mn1 1_555 1_555
H1 N3 1_555 1_555
N4 C17 1_555 1_555
C1 C2 1_555 1_555
C2 H2 1_555 1_555
C3 C2 1_555 1_555
H3 C3 1_555 1_555
C4 C3 1_555 1_555
C5 C4 1_555 1_555
H4 C5 1_555 1_555
C6 C1 1_555 1_555
C7 N1 1_555 1_555
H5 C7 1_555 1_555
C8 N1 1_555 1_555
H6 C8 1_555 1_555
H7 C8 1_555 1_555
C9 N2 1_555 1_555
H8 C9 1_555 1_555
H9 C9 1_555 1_555
C10 N2 1_555 1_555
H10 C10 1_555 1_555
C11 C10 1_555 1_555
C12 C11 1_555 1_555
H11 C12 1_555 1_555
C13 C12 1_555 1_555
C14 C13 1_555 1_555
H12 C14 1_555 1_555
C15 C14 1_555 1_555
H13 C15 1_555 1_555
C16 O2 1_555 1_555
C17 N3 1_555 1_555
Mn1C N4 1_555 1_555
N4C Mn1 1_555 1_555
C5 C6 1_555 1_555
C6 C7 1_555 1_555
C8 C9 1_555 1_555
C11 C16 1_555 1_555
C15 C16 1_555 1_555

#END
