
#######################################################################
#
#                 Cambridge Crystallographic Data Centre
#                                CCDC 
#
#######################################################################
#
# If this CIF has been generated from an entry in the Cambridge 
# Structural Database, then it will include bibliographic, chemical, 
# crystal, experimental, refinement or atomic coordinate data resulting 
# from the CCDC's data processing and validation procedures.
#
#######################################################################

data_SIBYOS
_symmetry_cell_setting           triclinic
_symmetry_space_group_name_H-M   'P -1'
_symmetry_Int_Tables_number      2
_space_group_name_Hall           '-P 1'
loop_
_symmetry_equiv_pos_site_id
_symmetry_equiv_pos_as_xyz
1 x,y,z
2 -x,-y,-z
_cell_length_a                   11.488(2)
_cell_length_b                   12.250(3)
_cell_length_c                   14.796(3)
_cell_angle_alpha                88.16(3)
_cell_angle_beta                 70.75(3)
_cell_angle_gamma                85.56(3)
_cell_volume                     1959.85
loop_
_atom_site_label
_atom_site_type_symbol
_atom_site_fract_x
_atom_site_fract_y
_atom_site_fract_z
Mn1 Mn 0.36301(4) 0.50232(4) 0.48366(4)
Mn2 Mn 0.04306(4) 0.86674(4) 0.52050(4)
Cl1 Cl 0.44678(12) 0.66619(12) -0.00699(8)
Cl2 Cl 0.16299(14) 0.53703(15) 0.98942(9)
Cl3 Cl 0.14654(11) 0.89600(11) 0.01570(8)
Cl4 Cl -0.19911(13) 0.78627(14) 1.03515(9)
O1 O 0.40457(19) 0.61764(18) 0.39696(16)
O2 O 0.41985(19) 0.56658(18) 0.57585(16)
O3 O -0.03847(18) 0.92554(19) 0.43489(16)
O4 O -0.10247(18) 0.85506(18) 0.62424(16)
N1 N 0.3304(2) 0.4091(2) 0.3896(2)
N2 N 0.3318(2) 0.3682(2) 0.5631(2)
N3 N 0.2029(2) 0.9027(2) 0.4268(2)
N4 N 0.1462(2) 0.8383(2) 0.6042(2)
C1 C 0.1119(3) 0.6274(3) 0.5086(3)
C2 C 0.4142(3) 0.6235(3) 0.3052(3)
C3 C 0.4617(3) 0.7160(3) 0.2529(3)
H2 H 0.4872 0.7704 0.2831
C4 C 0.4717(3) 0.7292(3) 0.1591(3)
H3 H 0.5024 0.7923 0.1261
C5 C 0.4357(3) 0.6474(4) 0.1129(3)
C6 C 0.3927(3) 0.5543(4) 0.1603(3)
H4 H 0.3699 0.5000 0.1282
C7 C 0.3821(3) 0.5387(3) 0.2570(3)
C8 C 0.3400(3) 0.4378(3) 0.3033(3)
H5 H 0.3172 0.3879 0.2672
C9 C 0.2799(4) 0.3045(3) 0.4308(3)
H6 H 0.3010 0.2491 0.3815
H7 H 0.1906 0.3138 0.4582
C10 C 0.3360(3) 0.2696(3) 0.5081(3)
H8 H 0.2889 0.2140 0.5494
H9 H 0.4207 0.2400 0.4795
C11 C 0.3006(3) 0.3680(3) 0.6543(3)
H10 H 0.2778 0.3025 0.6865
C12 C 0.2984(3) 0.4628(3) 0.7114(3)
C13 C 0.2413(3) 0.4568(4) 0.8104(3)
H11 H 0.2056 0.3931 0.8382
C14 C 0.2378(4) 0.5445(4) 0.8668(3)
C15 C 0.2957(3) 0.6382(4) 0.8271(3)
H12 H 0.2937 0.6968 0.8662
C16 C 0.3560(3) 0.6448(3) 0.7303(3)
H13 H 0.3961 0.7073 0.7042
C17 C 0.3576(3) 0.5574(3) 0.6705(2)
C18 C 0.0069(3) 0.9104(3) 0.3406(2)
C19 C -0.0757(3) 0.9120(3) 0.2879(3)
H14 H -0.1603 0.9170 0.3202
C20 C -0.0332(3) 0.9062(3) 0.1895(3)
H15 H -0.0890 0.9074 0.1561
C21 C 0.0933(4) 0.8985(3) 0.1401(3)
C22 C 0.1767(3) 0.8959(3) 0.1881(3)
H16 H 0.2609 0.8898 0.1543
C23 C 0.1356(3) 0.9024(3) 0.2887(2)
C24 C 0.2262(3) 0.9100(3) 0.3366(3)
H17 H 0.3070 0.9211 0.2989
C25 C 0.2979(3) 0.9190(3) 0.4713(3)
H18 H 0.2882 0.9930 0.4954
H19 H 0.3799 0.9073 0.4246
C26 C 0.2804(3) 0.8368(3) 0.5526(3)
H20 H 0.3122 0.7642 0.5278
H21 H 0.3237 0.8569 0.5952
C27 C 0.1061(3) 0.8209(3) 0.6946(3)
H22 H 0.1650 0.8096 0.7252
C28 C -0.0216(3) 0.8172(3) 0.7535(3)
C29 C -0.0481(4) 0.8006(3) 0.8525(3)
H23 H 0.0163 0.7894 0.8775
C30 C -0.1670(4) 0.8008(4) 0.9121(3)
C31 C -0.2634(4) 0.8168(3) 0.8756(3)
H24 H -0.3445 0.8157 0.9165
C32 C -0.2400(3) 0.8343(3) 0.7798(3)
H25 H -0.3059 0.8463 0.7565
C33 C -0.1195(3) 0.8347(3) 0.7162(2)
N5 N 0.0659(2) 0.6984(2) 0.4717(2)
N6 N 0.1679(2) 0.5562(2) 0.5441(2)
H26 H 0.1261 0.5259 0.5969
Mn1A Mn 0.63699(4) 0.49768(4) 0.51634(4)
O2A O 0.58015(19) 0.43342(18) 0.42415(16)
Cl5 Cl 0.58300(9) 0.02619(9) 0.26590(8)
O5 O 0.4978(3) 0.1027(3) 0.3304(3)
O6 O 0.5237(3) -0.0141(3) 0.2060(3)
O7 O 0.6131(3) -0.0639(3) 0.3212(3)
O8 O 0.6921(2) 0.0772(3) 0.2148(2)
O9 O 0.0237(3) 0.3931(3) 0.6697(2)
H1 H -0.0042 0.3510 0.6413
C34 C -0.0535(4) 0.4045(6) 0.7615(4)
H27 H -0.0178 0.3640 0.8037
H28 H -0.1316 0.3771 0.7671
H29 H -0.0655 0.4806 0.7784
loop_
_geom_bond_atom_site_label_1
_geom_bond_atom_site_label_2
_geom_bond_site_symmetry_1
_geom_bond_site_symmetry_2
Mn1 O1 1_555 1_555
Mn2 O3 1_555 1_555
Cl1 C5 1_555 1_555
Cl2 C14 1_555 1_555
Cl3 C21 1_555 1_555
Cl4 C30 1_555 1_555
Cl5 O5 1_555 1_555
O1 C2 1_555 1_555
O2 Mn1 1_555 1_555
O3 C18 1_555 1_555
O4 Mn2 1_555 1_555
O6 Cl5 1_555 1_555
O7 Cl5 1_555 1_555
O8 Cl5 1_555 1_555
O9 H1 1_555 1_555
N1 Mn1 1_555 1_555
N2 Mn1 1_555 1_555
N3 Mn2 1_555 1_555
N4 Mn2 1_555 1_555
C1 N5 1_555 1_555
C2 C3 1_555 1_555
C3 H2 1_555 1_555
C4 C3 1_555 1_555
H3 C4 1_555 1_555
C5 C4 1_555 1_555
C6 C5 1_555 1_555
H4 C6 1_555 1_555
C7 C2 1_555 1_555
C8 N1 1_555 1_555
H5 C8 1_555 1_555
C9 N1 1_555 1_555
H6 C9 1_555 1_555
H7 C9 1_555 1_555
C10 N2 1_555 1_555
H8 C10 1_555 1_555
H9 C10 1_555 1_555
C11 N2 1_555 1_555
H10 C11 1_555 1_555
C12 C11 1_555 1_555
C13 C12 1_555 1_555
H11 C13 1_555 1_555
C14 C13 1_555 1_555
C15 C14 1_555 1_555
H12 C15 1_555 1_555
C16 C15 1_555 1_555
H13 C16 1_555 1_555
C17 O2 1_555 1_555
C18 C19 1_555 1_555
C19 H14 1_555 1_555
C20 C19 1_555 1_555
H15 C20 1_555 1_555
C21 C20 1_555 1_555
C22 C21 1_555 1_555
H16 C22 1_555 1_555
C23 C18 1_555 1_555
C24 N3 1_555 1_555
H17 C24 1_555 1_555
C25 N3 1_555 1_555
H18 C25 1_555 1_555
H19 C25 1_555 1_555
C26 N4 1_555 1_555
H20 C26 1_555 1_555
H21 C26 1_555 1_555
C27 N4 1_555 1_555
H22 C27 1_555 1_555
C28 C27 1_555 1_555
C29 C28 1_555 1_555
H23 C29 1_555 1_555
C30 C29 1_555 1_555
C31 C30 1_555 1_555
H24 C31 1_555 1_555
C32 C31 1_555 1_555
H25 C32 1_555 1_555
C33 O4 1_555 1_555
N5 Mn2 1_555 1_555
N6 Mn1 1_555 1_555
H26 N6 1_555 1_555
C34 O9 1_555 1_555
H27 C34 1_555 1_555
H28 C34 1_555 1_555
H29 C34 1_555 1_555
Mn1A O2 1_555 1_555
O2A Mn1 1_555 1_555
C1 N6 1_555 1_555
C6 C7 1_555 1_555
C7 C8 1_555 1_555
C9 C10 1_555 1_555
C12 C17 1_555 1_555
C16 C17 1_555 1_555
C22 C23 1_555 1_555
C23 C24 1_555 1_555
C25 C26 1_555 1_555
C28 C33 1_555 1_555
C32 C33 1_555 1_555
Mn1A O2A 1_555 1_555

#END
