
#######################################################################
#
#                 Cambridge Crystallographic Data Centre
#                                CCDC 
#
#######################################################################
#
# If this CIF has been generated from an entry in the Cambridge 
# Structural Database, then it will include bibliographic, chemical, 
# crystal, experimental, refinement or atomic coordinate data resulting 
# from the CCDC's data processing and validation procedures.
#
#######################################################################

data_SIBYIM
_symmetry_cell_setting           triclinic
_symmetry_space_group_name_H-M   'P -1'
_symmetry_Int_Tables_number      2
_space_group_name_Hall           '-P 1'
loop_
_symmetry_equiv_pos_site_id
_symmetry_equiv_pos_as_xyz
1 x,y,z
2 -x,-y,-z
_cell_length_a                   11.323(2)
_cell_length_b                   12.298(3)
_cell_length_c                   13.463(3)
_cell_angle_alpha                83.36(3)
_cell_angle_beta                 74.31(3)
_cell_angle_gamma                87.01(3)
_cell_volume                     1792.34
loop_
_atom_site_label
_atom_site_type_symbol
_atom_site_fract_x
_atom_site_fract_y
_atom_site_fract_z
Mn1 Mn 0.94906(3) -0.36911(3) -0.02150(3)
Mn2 Mn 0.63669(3) -0.00399(3) 0.03043(3)
O1 O 1.08138(14) -0.34368(13) -0.13948(12)
O2 O 1.04656(14) -0.43133(13) 0.06603(12)
O3 O 0.58124(14) -0.05786(13) -0.07650(12)
O4 O 0.59914(15) -0.13002(13) 0.12400(13)
N1 N 0.82783(17) -0.33878(15) -0.10388(15)
N2 N 0.79951(18) -0.41659(16) 0.08783(16)
N3 N 0.66218(18) 0.14154(15) -0.05220(17)
N4 N 0.66508(18) 0.07974(16) 0.13870(17)
N5 N 0.9351(2) -0.20647(17) 0.02785(18)
N6 N 0.82863(18) -0.04444(17) -0.03174(17)
H1 H 0.8698 0.0008 -0.0809
C1 C 1.0816(2) -0.31665(19) -0.23777(19)
C2 C 1.1950(3) -0.3064(2) -0.3126(2)
H2 H 1.2675 -0.3177 -0.2926
C3 C 1.1992(3) -0.2796(3) -0.4163(2)
H3 H 1.2750 -0.2714 -0.4649
C4 C 1.0934(3) -0.2646(3) -0.4492(2)
H4 H 1.0977 -0.2475 -0.5192
C5 C 0.9825(3) -0.2753(3) -0.3774(2)
H5 H 0.9111 -0.2652 -0.3993
C6 C 0.9731(2) -0.3015(2) -0.2709(2)
C7 C 0.8537(2) -0.3145(2) -0.2029(2)
H6 H 0.7881 -0.3046 -0.2325
C8 C 0.6992(2) -0.3462(2) -0.0421(2)
H7 H 0.6476 -0.3650 -0.0842
H8 H 0.6702 -0.2768 -0.0157
C9 C 0.6953(2) -0.4350(2) 0.0472(2)
H9 H 0.6188 -0.4302 0.1007
H10 H 0.7023 -0.5069 0.0228
C10 C 0.7911(2) -0.4288(2) 0.1855(2)
H11 H 0.7148 -0.4450 0.2309
C11 C 0.8925(2) -0.4191(2) 0.2289(2)
C12 C 0.8669(3) -0.4171(2) 0.3372(2)
H12 H 0.7858 -0.4164 0.3769
C13 C 0.9592(3) -0.4160(3) 0.3846(2)
H13 H 0.9412 -0.4126 0.4558
C14 C 1.0807(3) -0.4202(2) 0.3250(2)
H14 H 1.1438 -0.4208 0.3572
C15 C 1.1088(3) -0.4236(2) 0.2191(2)
H15 H 1.1904 -0.4268 0.1808
C16 C 1.0155(2) -0.42221(18) 0.16905(19)
C17 C 0.6378(2) -0.03268(19) -0.17758(18)
C18 C 0.6418(2) -0.1087(2) -0.2472(2)
H16 H 0.6088 -0.1774 -0.2231
C19 C 0.6947(3) -0.0829(3) -0.3523(2)
H17 H 0.6994 -0.1356 -0.3975
C20 C 0.7404(3) 0.0199(3) -0.3910(2)
H18 H 0.7741 0.0370 -0.4618
C21 C 0.7356(3) 0.0961(2) -0.3236(2)
H19 H 0.7648 0.1658 -0.3498
C22 C 0.6878(2) 0.0724(2) -0.2163(2)
C23 C 0.6855(2) 0.1569(2) -0.1509(2)
H20 H 0.7022 0.2277 -0.1825
C24 C 0.6588(3) 0.2317(2) 0.0112(2)
H21 H 0.5747 0.2559 0.0396
H22 H 0.7044 0.2931 -0.0306
C25 C 0.7158(3) 0.1889(2) 0.0973(2)
H23 H 0.8043 0.1836 0.0710
H24 H 0.6962 0.2378 0.1514
C26 C 0.6479(2) 0.0448(2) 0.2354(2)
H25 H 0.6618 0.0937 0.2785
C27 C 0.6096(2) -0.0614(2) 0.2822(2)
C28 C 0.5938(3) -0.0856(3) 0.3905(2)
H26 H 0.6076 -0.0313 0.4285
C29 C 0.5586(3) -0.1868(3) 0.4404(2)
H27 H 0.5489 -0.2011 0.5115
C30 C 0.5376(3) -0.2679(3) 0.3841(2)
H28 H 0.5143 -0.3369 0.4178
C31 C 0.5505(2) -0.2476(2) 0.2791(2)
H29 H 0.5346 -0.3027 0.2430
C32 C 0.5878(2) -0.1444(2) 0.22541(19)
C33 C 0.8867(2) -0.1275(2) -0.00352(19)
Mn2A Mn 0.36331(3) 0.00399(3) -0.03043(3)
O3A O 0.41876(14) 0.05786(13) 0.07650(12)
Cl1 Cl 0.43356(7) 0.42734(7) 0.29470(7)
O5 O 0.5015(4) 0.3567(4) 0.2202(4)
O6 O 0.4013(3) 0.5191(3) 0.2323(3)
O7 O 0.5127(3) 0.4609(3) 0.3460(3)
O8 O 0.3306(3) 0.3728(3) 0.3554(3)
O9 O 1.0382(2) -0.13191(19) 0.18144(18)
C34 C 0.9472(5) -0.0012(6) 0.2957(6)
C35 C 0.9457(4) -0.1104(4) 0.2708(4)
loop_
_geom_bond_atom_site_label_1
_geom_bond_atom_site_label_2
_geom_bond_site_symmetry_1
_geom_bond_site_symmetry_2
Mn1 O1 1_555 1_555
Mn2 O3 1_555 1_555
Cl1 O5 1_555 1_555
O1 C1 1_555 1_555
O2 Mn1 1_555 1_555
O3 C17 1_555 1_555
O4 Mn2 1_555 1_555
O6 Cl1 1_555 1_555
O7 Cl1 1_555 1_555
O8 Cl1 1_555 1_555
O9 C35 1_555 1_555
N1 Mn1 1_555 1_555
N2 Mn1 1_555 1_555
N3 Mn2 1_555 1_555
N4 Mn2 1_555 1_555
N5 Mn1 1_555 1_555
N6 Mn2 1_555 1_555
H1 N6 1_555 1_555
C1 C2 1_555 1_555
C2 H2 1_555 1_555
C3 C2 1_555 1_555
H3 C3 1_555 1_555
C4 C3 1_555 1_555
H4 C4 1_555 1_555
C5 C4 1_555 1_555
H5 C5 1_555 1_555
C6 C1 1_555 1_555
C7 N1 1_555 1_555
H6 C7 1_555 1_555
C8 N1 1_555 1_555
H7 C8 1_555 1_555
H8 C8 1_555 1_555
C9 N2 1_555 1_555
H9 C9 1_555 1_555
H10 C9 1_555 1_555
C10 N2 1_555 1_555
H11 C10 1_555 1_555
C11 C10 1_555 1_555
C12 C11 1_555 1_555
H12 C12 1_555 1_555
C13 C12 1_555 1_555
H13 C13 1_555 1_555
C14 C13 1_555 1_555
H14 C14 1_555 1_555
C15 C14 1_555 1_555
H15 C15 1_555 1_555
C16 O2 1_555 1_555
C17 C18 1_555 1_555
C18 H16 1_555 1_555
C19 C18 1_555 1_555
H17 C19 1_555 1_555
C20 C19 1_555 1_555
H18 C20 1_555 1_555
C21 C20 1_555 1_555
H19 C21 1_555 1_555
C22 C17 1_555 1_555
C23 N3 1_555 1_555
H20 C23 1_555 1_555
C24 N3 1_555 1_555
H21 C24 1_555 1_555
H22 C24 1_555 1_555
C25 N4 1_555 1_555
H23 C25 1_555 1_555
H24 C25 1_555 1_555
C26 N4 1_555 1_555
H25 C26 1_555 1_555
C27 C26 1_555 1_555
C28 C27 1_555 1_555
H26 C28 1_555 1_555
C29 C28 1_555 1_555
H27 C29 1_555 1_555
C30 C29 1_555 1_555
H28 C30 1_555 1_555
C31 C30 1_555 1_555
H29 C31 1_555 1_555
C32 O4 1_555 1_555
C33 N5 1_555 1_555
C34 C35 1_555 1_555
Mn2A O3 1_555 1_555
O3A Mn2 1_555 1_555
N6 C33 1_555 1_555
C5 C6 1_555 1_555
C6 C7 1_555 1_555
C8 C9 1_555 1_555
C11 C16 1_555 1_555
C15 C16 1_555 1_555
C21 C22 1_555 1_555
C22 C23 1_555 1_555
C24 C25 1_555 1_555
C27 C32 1_555 1_555
C31 C32 1_555 1_555
Mn2A O3A 1_555 1_555

#END
