
#######################################################################
#
#                 Cambridge Crystallographic Data Centre
#                                CCDC 
#
#######################################################################
#
# If this CIF has been generated from an entry in the Cambridge 
# Structural Database, then it will include bibliographic, chemical, 
# crystal, experimental, refinement or atomic coordinate data resulting 
# from the CCDC's data processing and validation procedures.
#
#######################################################################

data_SIBZEJ
_symmetry_cell_setting           triclinic
_symmetry_space_group_name_H-M   'P -1'
_symmetry_Int_Tables_number      2
_space_group_name_Hall           '-P 1'
loop_
_symmetry_equiv_pos_site_id
_symmetry_equiv_pos_as_xyz
1 x,y,z
2 -x,-y,-z
_cell_length_a                   11.467(2)
_cell_length_b                   12.162(2)
_cell_length_c                   13.927(3)
_cell_angle_alpha                78.48(3)
_cell_angle_beta                 77.98(3)
_cell_angle_gamma                86.01(3)
_cell_volume                     1860.63
loop_
_atom_site_label
_atom_site_type_symbol
_atom_site_fract_x
_atom_site_fract_y
_atom_site_fract_z
Mn1 Mn 0.64917(5) 0.00239(4) 0.48293(4)
Mn2 Mn 0.94421(4) -0.37361(4) 0.52246(4)
F1 F 0.8631(4) -0.0326(3) -0.0070(2)
F2 F 0.4908(3) -0.1365(3) 0.98491(19)
F3 F 1.1810(2) -0.2737(2) 0.02721(17)
F4 F 0.8577(3) -0.3535(3) 1.0211(2)
O1 O 0.6676(2) -0.09199(18) 0.39066(17)
O2 O 0.53133(19) -0.08522(18) 0.57974(17)
O3 O 1.08249(19) -0.41316(18) 0.43352(17)
O4 O 1.0197(2) -0.38992(18) 0.63149(17)
N1 N 0.7430(3) 0.1204(2) 0.3849(2)
N2 N 0.6243(2) 0.1188(2) 0.5677(2)
N3 N 0.8476(2) -0.3825(2) 0.4220(2)
N4 N 0.7849(2) -0.3603(2) 0.6086(2)
N5 N 0.8037(3) -0.0638(2) 0.5454(2)
H2 H 0.8104 -0.0439 0.5998
N6 N 0.9566(3) -0.1925(2) 0.4738(2)
C1 C 0.7163(3) -0.0729(3) 0.2940(3)
C2 C 0.7041(4) -0.1538(3) 0.2380(3)
H3 H 0.6618 -0.2181 0.2692
C3 C 0.7537(4) -0.1395(4) 0.1373(3)
H4 H 0.7456 -0.1937 0.1008
C4 C 0.8154(5) -0.0438(5) 0.0920(3)
C5 C 0.8283(4) 0.0374(4) 0.1420(3)
H5 H 0.8709 0.1010 0.1090
C6 C 0.7771(3) 0.0252(3) 0.2441(3)
C7 C 0.7886(4) 0.1152(3) 0.2940(3)
H6 H 0.8336 0.1755 0.2565
C8 C 0.7650(4) 0.2164(3) 0.4294(3)
H7 H 0.7772 0.2840 0.3784
H8 H 0.8357 0.2011 0.4585
C9 C 0.6564(4) 0.2321(3) 0.5096(3)
H9 H 0.6748 0.2793 0.5527
H10 H 0.5908 0.2672 0.4794
C10 C 0.5936(3) 0.0993(3) 0.6618(3)
H11 H 0.5952 0.1583 0.6949
C11 C 0.5560(3) -0.0087(3) 0.7218(3)
C12 C 0.5428(4) -0.0251(4) 0.8264(3)
H12 H 0.5617 0.0317 0.8560
C13 C 0.5029(5) -0.1229(4) 0.8835(3)
C14 C 0.4736(4) -0.2088(4) 0.8435(3)
H13 H 0.4460 -0.2755 0.8851
C15 C 0.4850(3) -0.1961(3) 0.7422(3)
H14 H 0.4650 -0.2544 0.7149
C16 C 0.5267(3) -0.0957(3) 0.6791(3)
C17 C 1.1024(3) -0.3740(3) 0.3344(3)
C18 C 1.2204(3) -0.3638(3) 0.2821(3)
H15 H 1.2823 -0.3806 0.3169
C19 C 1.2464(4) -0.3293(3) 0.1797(3)
H16 H 1.3251 -0.3217 0.1456
C20 C 1.1547(4) -0.3066(3) 0.1291(3)
C21 C 1.0379(4) -0.3161(3) 0.1755(3)
H17 H 0.9777 -0.3009 0.1387
C22 C 1.0100(3) -0.3493(3) 0.2800(3)
C23 C 0.8867(3) -0.3682(3) 0.3276(3)
H18 H 0.8322 -0.3700 0.2870
C24 C 0.7220(3) -0.4100(3) 0.4676(3)
H19 H 0.7147 -0.4903 0.4915
H20 H 0.6715 -0.3862 0.4189
C25 C 0.6855(3) -0.3476(3) 0.5543(3)
H21 H 0.6697 -0.2688 0.5294
H22 H 0.6137 -0.3789 0.5986
C26 C 0.7649(3) -0.3553(3) 0.7016(3)
H23 H 0.6858 -0.3461 0.7328
C27 C 0.8530(3) -0.3627(3) 0.7620(3)
C28 C 0.8159(4) -0.3541(4) 0.8639(3)
H24 H 0.7356 -0.3421 0.8899
C29 C 0.8955(4) -0.3632(4) 0.9231(3)
C30 C 1.0145(4) -0.3849(3) 0.8908(3)
H25 H 1.0676 -0.3926 0.9342
C31 C 1.0533(4) -0.3950(3) 0.7926(3)
H26 H 1.1337 -0.4111 0.7702
C32 C 0.9762(3) -0.3819(3) 0.7255(3)
C33 C 0.8844(3) -0.1283(3) 0.5102(3)
Mn1A Mn 0.35083(5) -0.00239(4) 0.51707(4)
O2A O 0.46867(19) 0.08522(18) 0.42026(17)
Cl1 Cl 0.56937(10) 0.53178(10) 0.25785(10)
O5 O 0.4937(3) 0.4864(3) 0.2106(3)
O6 O 0.5031(3) 0.6007(3) 0.3234(3)
O7 O 0.6196(4) 0.4360(3) 0.3211(3)
O8 O 0.6669(4) 0.5865(4) 0.1993(3)
O9 O 0.8573(3) 0.0729(3) 0.6762(3)
H1 H 0.9153 0.1044 0.6387
C34 C 0.8867(6) 0.0261(6) 0.7655(5)
H27 H 0.9572 0.0599 0.7720
H28 H 0.9014 -0.0531 0.7688
H29 H 0.8222 0.0385 0.8189
loop_
_geom_bond_atom_site_label_1
_geom_bond_atom_site_label_2
_geom_bond_site_symmetry_1
_geom_bond_site_symmetry_2
Mn1 O1 1_555 1_555
Mn2 O3 1_555 1_555
Cl1 O5 1_555 1_555
F1 C4 1_555 1_555
F2 C13 1_555 1_555
F3 C20 1_555 1_555
F4 C29 1_555 1_555
O1 C1 1_555 1_555
O2 Mn1 1_555 1_555
O3 C17 1_555 1_555
O4 Mn2 1_555 1_555
O6 Cl1 1_555 1_555
O7 Cl1 1_555 1_555
O8 Cl1 1_555 1_555
O9 H1 1_555 1_555
N1 Mn1 1_555 1_555
N2 Mn1 1_555 1_555
N3 Mn2 1_555 1_555
N4 Mn2 1_555 1_555
N5 Mn1 1_555 1_555
H2 N5 1_555 1_555
N6 Mn2 1_555 1_555
C1 C2 1_555 1_555
C2 H3 1_555 1_555
C3 C2 1_555 1_555
H4 C3 1_555 1_555
C4 C3 1_555 1_555
C5 C4 1_555 1_555
H5 C5 1_555 1_555
C6 C1 1_555 1_555
C7 N1 1_555 1_555
H6 C7 1_555 1_555
C8 N1 1_555 1_555
H7 C8 1_555 1_555
H8 C8 1_555 1_555
C9 N2 1_555 1_555
H9 C9 1_555 1_555
H10 C9 1_555 1_555
C10 N2 1_555 1_555
H11 C10 1_555 1_555
C11 C10 1_555 1_555
C12 C11 1_555 1_555
H12 C12 1_555 1_555
C13 C12 1_555 1_555
C14 C13 1_555 1_555
H13 C14 1_555 1_555
C15 C14 1_555 1_555
H14 C15 1_555 1_555
C16 O2 1_555 1_555
C17 C18 1_555 1_555
C18 H15 1_555 1_555
C19 C18 1_555 1_555
H16 C19 1_555 1_555
C20 C19 1_555 1_555
C21 C20 1_555 1_555
H17 C21 1_555 1_555
C22 C17 1_555 1_555
C23 N3 1_555 1_555
H18 C23 1_555 1_555
C24 N3 1_555 1_555
H19 C24 1_555 1_555
H20 C24 1_555 1_555
C25 N4 1_555 1_555
H21 C25 1_555 1_555
H22 C25 1_555 1_555
C26 N4 1_555 1_555
H23 C26 1_555 1_555
C27 C26 1_555 1_555
C28 C27 1_555 1_555
H24 C28 1_555 1_555
C29 C28 1_555 1_555
C30 C29 1_555 1_555
H25 C30 1_555 1_555
C31 C30 1_555 1_555
H26 C31 1_555 1_555
C32 O4 1_555 1_555
C33 N5 1_555 1_555
C34 O9 1_555 1_555
H27 C34 1_555 1_555
H28 C34 1_555 1_555
H29 C34 1_555 1_555
Mn1A O2 1_555 1_555
O2A Mn1 1_555 1_555
N6 C33 1_555 1_555
C5 C6 1_555 1_555
C6 C7 1_555 1_555
C8 C9 1_555 1_555
C11 C16 1_555 1_555
C15 C16 1_555 1_555
C21 C22 1_555 1_555
C22 C23 1_555 1_555
C24 C25 1_555 1_555
C27 C32 1_555 1_555
C31 C32 1_555 1_555
Mn1A O2A 1_555 1_555

#END
