
#######################################################################
#
#                 Cambridge Crystallographic Data Centre
#                                CCDC 
#
#######################################################################
#
# If this CIF has been generated from an entry in the Cambridge 
# Structural Database, then it will include bibliographic, chemical, 
# crystal, experimental, refinement or atomic coordinate data resulting 
# from the CCDC's data processing and validation procedures.
#
#######################################################################

data_SIBZAF
_symmetry_cell_setting           triclinic
_symmetry_space_group_name_H-M   'P -1'
_symmetry_Int_Tables_number      2
_space_group_name_Hall           '-P 1'
loop_
_symmetry_equiv_pos_site_id
_symmetry_equiv_pos_as_xyz
1 x,y,z
2 -x,-y,-z
_cell_length_a                   11.428(2)
_cell_length_b                   12.224(2)
_cell_length_c                   14.095(3)
_cell_angle_alpha                85.83(3)
_cell_angle_beta                 73.45(3)
_cell_angle_gamma                86.31(3)
_cell_volume                     1880.48
loop_
_atom_site_label
_atom_site_type_symbol
_atom_site_fract_x
_atom_site_fract_y
_atom_site_fract_z
Mn1 Mn 0.63787(3) 0.49778(3) 0.02190(3)
Mn2 Mn 0.95761(3) 0.13268(3) -0.02454(3)
F1 F 0.5353(2) 0.33026(17) 0.51244(13)
F2 F 0.7850(2) 0.4966(2) -0.47538(14)
F3 F 0.9019(2) 0.1074(2) 0.46661(13)
F4 F 1.1612(2) 0.22469(19) -0.52977(13)
O1 O 0.60221(16) 0.37738(13) 0.11265(12)
O2 O 0.57995(15) 0.43571(13) -0.07554(12)
O3 O 1.04379(15) 0.07069(13) 0.06466(12)
O4 O 1.09719(15) 0.14797(13) -0.13179(12)
N1 N 0.66571(19) 0.59026(16) 0.12270(17)
N2 N 0.66259(19) 0.63717(16) -0.06067(17)
N3 N 0.80158(18) 0.09619(16) 0.07408(16)
N4 N 0.84902(19) 0.16282(15) -0.11138(16)
N5 N 0.82991(19) 0.45425(17) -0.03751(16)
H2 H 0.8699 0.4949 -0.0870
N6 N 0.9406(2) 0.29870(17) 0.02397(16)
C1 C 0.5886(2) 0.3705(2) 0.20978(19)
C2 C 0.5474(2) 0.2727(2) 0.2626(2)
H3 H 0.5306 0.2156 0.2290
C3 C 0.5312(3) 0.2591(2) 0.3628(2)
H4 H 0.5049 0.1931 0.3969
C4 C 0.5544(3) 0.3444(3) 0.4121(2)
C5 C 0.5925(3) 0.4416(3) 0.3656(2)
H5 H 0.6071 0.4978 0.4013
C6 C 0.6100(2) 0.4574(2) 0.2622(2)
C7 C 0.6498(2) 0.5624(2) 0.2150(2)
H6 H 0.6651 0.6143 0.2545
C8 C 0.7150(3) 0.6974(2) 0.0800(2)
H7 H 0.8033 0.6904 0.0544
H8 H 0.6944 0.7510 0.1303
C9 C 0.6584(3) 0.7333(2) -0.0032(2)
H9 H 0.5745 0.7602 0.0239
H10 H 0.7039 0.7918 -0.0451
C10 C 0.6874(2) 0.6440(2) -0.1551(2)
H11 H 0.7060 0.7123 -0.1877
C11 C 0.6884(2) 0.5526(2) -0.2145(2)
C12 C 0.7379(3) 0.5660(3) -0.3174(2)
H12 H 0.7709 0.6322 -0.3461
C13 C 0.7376(3) 0.4820(3) -0.3749(2)
C14 C 0.6898(3) 0.3828(3) -0.3368(2)
H13 H 0.6921 0.3264 -0.3783
C15 C 0.6383(2) 0.3679(2) -0.2358(2)
H14 H 0.6042 0.3015 -0.2091
C16 C 0.6370(2) 0.4523(2) -0.1733(2)
C17 C 1.0047(2) 0.08540(19) 0.16308(18)
C18 C 1.0926(3) 0.08400(19) 0.2155(2)
H15 H 1.1753 0.0779 0.1816
C19 C 1.0571(3) 0.0916(2) 0.3169(2)
H16 H 1.1155 0.0906 0.3514
C20 C 0.9357(3) 0.1006(3) 0.3666(2)
C21 C 0.8473(3) 0.1015(2) 0.3197(2)
H17 H 0.7653 0.1067 0.3557
C22 C 0.8805(2) 0.0944(2) 0.21605(19)
C23 C 0.7855(2) 0.0865(2) 0.1684(2)
H18 H 0.7071 0.0736 0.2086
C24 C 0.7025(2) 0.0792(2) 0.02995(19)
H19 H 0.6235 0.0906 0.0779
H20 H 0.7087 0.0052 0.0078
C25 C 0.7178(2) 0.1622(2) -0.0566(2)
H21 H 0.6706 0.1428 -0.0997
H22 H 0.6890 0.2345 -0.0332
C26 C 0.8829(3) 0.1806(2) -0.2057(2)
H23 H 0.8217 0.1914 -0.2375
C27 C 1.0062(3) 0.1853(2) -0.2665(2)
C28 C 1.0270(3) 0.2045(2) -0.3704(2)
H24 H 0.9614 0.2154 -0.3973
C29 C 1.1423(4) 0.2067(3) -0.4297(2)
C30 C 1.2430(3) 0.1912(3) -0.3939(2)
H25 H 1.3214 0.1945 -0.4371
C31 C 1.2260(3) 0.1708(2) -0.2929(2)
H26 H 1.2934 0.1583 -0.2684
C32 C 1.1079(3) 0.16875(19) -0.22750(19)
C33 C 0.8904(2) 0.3747(2) -0.00705(19)
Mn1A Mn 0.36213(3) 0.50222(3) -0.02190(3)
O2A O 0.42005(15) 0.56429(13) 0.07554(12)
Cl1 Cl 0.43006(7) 0.96350(7) 0.25158(7)
O5 O 0.3245(2) 0.9095(2) 0.3041(2)
O6 O 0.5101(3) 0.8876(2) 0.1865(2)
O7 O 0.4968(3) 1.0012(2) 0.3105(2)
O8 O 0.3983(2) 1.0542(2) 0.1904(2)
O9 O 1.0385(2) 0.37568(17) 0.17455(16)
H1 H 1.0377 0.3099 0.1670
C34 C 0.9429(4) 0.5185(3) 0.2786(3)
H27 H 0.8799 0.5336 0.3384
H28 H 0.9254 0.5606 0.2237
H29 H 1.0202 0.5380 0.2850
C35 C 0.9476(4) 0.4034(3) 0.2619(3)
H30 H 0.9639 0.3612 0.3181
H31 H 0.8687 0.3837 0.2571
loop_
_geom_bond_atom_site_label_1
_geom_bond_atom_site_label_2
_geom_bond_site_symmetry_1
_geom_bond_site_symmetry_2
Mn1 O1 1_555 1_555
Mn2 O3 1_555 1_555
Cl1 O5 1_555 1_555
F1 C4 1_555 1_555
F2 C13 1_555 1_555
F3 C20 1_555 1_555
F4 C29 1_555 1_555
O1 C1 1_555 1_555
O2 Mn1 1_555 1_555
O3 C17 1_555 1_555
O4 Mn2 1_555 1_555
O6 Cl1 1_555 1_555
O7 Cl1 1_555 1_555
O8 Cl1 1_555 1_555
O9 H1 1_555 1_555
N1 Mn1 1_555 1_555
N2 Mn1 1_555 1_555
N3 Mn2 1_555 1_555
N4 Mn2 1_555 1_555
N5 Mn1 1_555 1_555
H2 N5 1_555 1_555
N6 Mn2 1_555 1_555
C1 C2 1_555 1_555
C2 H3 1_555 1_555
C3 C2 1_555 1_555
H4 C3 1_555 1_555
C4 C3 1_555 1_555
C5 C4 1_555 1_555
H5 C5 1_555 1_555
C6 C1 1_555 1_555
C7 N1 1_555 1_555
H6 C7 1_555 1_555
C8 N1 1_555 1_555
H7 C8 1_555 1_555
H8 C8 1_555 1_555
C9 N2 1_555 1_555
H9 C9 1_555 1_555
H10 C9 1_555 1_555
C10 N2 1_555 1_555
H11 C10 1_555 1_555
C11 C10 1_555 1_555
C12 C11 1_555 1_555
H12 C12 1_555 1_555
C13 C12 1_555 1_555
C14 C13 1_555 1_555
H13 C14 1_555 1_555
C15 C14 1_555 1_555
H14 C15 1_555 1_555
C16 O2 1_555 1_555
C17 C18 1_555 1_555
C18 H15 1_555 1_555
C19 C18 1_555 1_555
H16 C19 1_555 1_555
C20 C19 1_555 1_555
C21 C20 1_555 1_555
H17 C21 1_555 1_555
C22 C17 1_555 1_555
C23 N3 1_555 1_555
H18 C23 1_555 1_555
C24 N3 1_555 1_555
H19 C24 1_555 1_555
H20 C24 1_555 1_555
C25 N4 1_555 1_555
H21 C25 1_555 1_555
H22 C25 1_555 1_555
C26 N4 1_555 1_555
H23 C26 1_555 1_555
C27 C26 1_555 1_555
C28 C27 1_555 1_555
H24 C28 1_555 1_555
C29 C28 1_555 1_555
C30 C29 1_555 1_555
H25 C30 1_555 1_555
C31 C30 1_555 1_555
H26 C31 1_555 1_555
C32 O4 1_555 1_555
C33 N5 1_555 1_555
C34 H27 1_555 1_555
H28 C34 1_555 1_555
H29 C34 1_555 1_555
C35 O9 1_555 1_555
H30 C35 1_555 1_555
H31 C35 1_555 1_555
Mn1A O2 1_555 1_555
O2A Mn1 1_555 1_555
N6 C33 1_555 1_555
C5 C6 1_555 1_555
C6 C7 1_555 1_555
C8 C9 1_555 1_555
C11 C16 1_555 1_555
C15 C16 1_555 1_555
C21 C22 1_555 1_555
C22 C23 1_555 1_555
C24 C25 1_555 1_555
C27 C32 1_555 1_555
C31 C32 1_555 1_555
C34 C35 1_555 1_555
Mn1A O2A 1_555 1_555

#END
