
#######################################################################
#
#                 Cambridge Crystallographic Data Centre
#                                CCDC 
#
#######################################################################
#
# If this CIF has been generated from an entry in the Cambridge 
# Structural Database, then it will include bibliographic, chemical, 
# crystal, experimental, refinement or atomic coordinate data resulting 
# from the CCDC's data processing and validation procedures.
#
#######################################################################

data_SICCEO
_symmetry_cell_setting           monoclinic
_symmetry_space_group_name_H-M   'P 21/c'
_symmetry_Int_Tables_number      14
_space_group_name_Hall           '-P 2ybc'
loop_
_symmetry_equiv_pos_site_id
_symmetry_equiv_pos_as_xyz
1 x,y,z
2 -x,1/2+y,1/2-z
3 -x,-y,-z
4 x,1/2-y,1/2+z
_cell_length_a                   7.7163(13)
_cell_length_b                   14.477(3)
_cell_length_c                   17.439(3)
_cell_angle_alpha                90
_cell_angle_beta                 101.818(2)
_cell_angle_gamma                90
_cell_volume                     1906.8
loop_
_atom_site_label
_atom_site_type_symbol
_atom_site_fract_x
_atom_site_fract_y
_atom_site_fract_z
C1 C 1.2985(7) -0.1729(3) 0.3688(3)
C2 C 0.9531(7) 0.0767(4) 0.2710(3)
C3 C 1.1111(7) 0.0213(4) 0.3110(3)
H1 H 1.1435 -0.0202 0.2726
H2 H 1.2092 0.0636 0.3272
C4 C 1.0916(9) -0.0346(4) 0.3805(4)
H3 H 0.9923 -0.0765 0.3655
H4 H 1.0651 0.0064 0.4206
C5 C 1.2560(9) -0.0900(4) 0.4144(3)
H5 H 1.3567 -0.0485 0.4215
H6 H 1.2454 -0.1112 0.4660
C6 C -0.4374(6) 0.5803(3) 0.4211(3)
H7 H -0.4647 0.6276 0.4527
C7 C -0.3097(6) 0.5173(3) 0.4534(3)
H8 H -0.2541 0.5225 0.5058
C8 C -0.2640(6) 0.4470(3) 0.4087(3)
C9 C -0.3586(6) 0.4403(3) 0.3317(3)
H9 H -0.3364 0.3923 0.2996
C10 C -0.4843(6) 0.5052(3) 0.3039(3)
H10 H -0.5464 0.4996 0.2525
C11 C -0.1209(5) 0.3788(3) 0.4397(2)
C12 C -0.1027(6) 0.3449(4) 0.5152(3)
H11 H -0.1781 0.3649 0.5471
C13 C 0.0286(7) 0.2809(4) 0.5427(3)
H12 H 0.0398 0.2572 0.5931
C14 C 0.1435(6) 0.2518(3) 0.4963(3)
H13 H 0.2299 0.2081 0.5153
C15 C 0.1308(6) 0.2878(3) 0.4208(2)
C16 C -0.0051(6) 0.3504(3) 0.3935(3)
H14 H -0.0183 0.3735 0.3429
C17 C 0.2614(6) 0.2623(3) 0.3729(2)
C18 C 0.4304(6) 0.2313(3) 0.4068(3)
H15 H 0.4631 0.2252 0.4610
C19 C 0.5490(6) 0.2096(3) 0.3608(3)
H16 H 0.6602 0.1879 0.3851
C20 C 0.3499(6) 0.2481(3) 0.2500(3)
H17 H 0.3211 0.2543 0.1958
C21 C 0.2235(6) 0.2704(3) 0.2918(3)
H18 H 0.1126 0.2908 0.2659
N1 N -0.5238(5) 0.5769(3) 0.3467(2)
N2 N 0.5131(5) 0.2179(2) 0.2827(2)
O1 O 1.1932(5) -0.1978(3) 0.3093(2)
O2 O 1.4317(7) -0.2172(4) 0.3938(2)
O3 O 0.8489(5) 0.1054(3) 0.3081(2)
O4 O 0.9354(5) 0.0974(3) 0.1998(3)
Zn1 Zn 0.69062(7) 0.17828(3) 0.21255(3)
N1A N 0.5238(5) 0.0769(3) 0.1533(2)
O1A O 0.8068(5) 0.3022(3) 0.1907(2)
O2A O 0.5683(7) 0.2828(4) 0.1062(2)
Zn1A Zn -0.69062(7) 0.67828(3) 0.28745(3)
Zn1A_2 Zn 1.30938(7) -0.32172(3) 0.28745(3)
loop_
_geom_bond_atom_site_label_1
_geom_bond_atom_site_label_2
_geom_bond_site_symmetry_1
_geom_bond_site_symmetry_2
C1 C5 1_555 1_555
C2 C3 1_555 1_555
C3 H1 1_555 1_555
H2 C3 1_555 1_555
C4 C3 1_555 1_555
H3 C4 1_555 1_555
H4 C4 1_555 1_555
C5 C4 1_555 1_555
H5 C5 1_555 1_555
H6 C5 1_555 1_555
C6 H7 1_555 1_555
C7 C6 1_555 1_555
H8 C7 1_555 1_555
C8 C7 1_555 1_555
C9 C8 1_555 1_555
H9 C9 1_555 1_555
C10 C9 1_555 1_555
H10 C10 1_555 1_555
C11 C8 1_555 1_555
C12 C11 1_555 1_555
H11 C12 1_555 1_555
C13 C12 1_555 1_555
H12 C13 1_555 1_555
C14 C13 1_555 1_555
H13 C14 1_555 1_555
C15 C14 1_555 1_555
C16 C11 1_555 1_555
H14 C16 1_555 1_555
C17 C15 1_555 1_555
C18 C17 1_555 1_555
H15 C18 1_555 1_555
C19 C18 1_555 1_555
H16 C19 1_555 1_555
C20 H17 1_555 1_555
C21 C17 1_555 1_555
H18 C21 1_555 1_555
N1 C6 1_555 1_555
N2 C19 1_555 1_555
O1 C1 1_555 1_555
O2 C1 1_555 1_555
O3 C2 1_555 1_555
O4 C2 1_555 1_555
Zn1 N2 1_555 1_555
N1A Zn1 1_555 1_555
O1A Zn1 1_555 1_555
O2A Zn1 1_555 1_555
Zn1A N1 1_555 1_555
Zn1A_2 O1 1_555 1_555
C10 N1 1_555 1_555
C15 C16 1_555 1_555
C20 C21 1_555 1_555
C20 N2 1_555 1_555
O2 Zn1A_2 1_555 1_555
O3 Zn1 1_555 1_555
O4 Zn1 1_555 1_555

#END
