
#######################################################################
#
#                 Cambridge Crystallographic Data Centre
#                                CCDC 
#
#######################################################################
#
# If this CIF has been generated from an entry in the Cambridge 
# Structural Database, then it will include bibliographic, chemical, 
# crystal, experimental, refinement or atomic coordinate data resulting 
# from the CCDC's data processing and validation procedures.
#
#######################################################################

data_SICDIT
_symmetry_cell_setting           triclinic
_symmetry_space_group_name_H-M   'P -1'
_symmetry_Int_Tables_number      2
_space_group_name_Hall           '-P 1'
loop_
_symmetry_equiv_pos_site_id
_symmetry_equiv_pos_as_xyz
1 x,y,z
2 -x,-y,-z
_cell_length_a                   8.2982(17)
_cell_length_b                   8.4293(17)
_cell_length_c                   13.305(3)
_cell_angle_alpha                75.08(3)
_cell_angle_beta                 84.37(3)
_cell_angle_gamma                78.89(3)
_cell_volume                     881.274
loop_
_atom_site_label
_atom_site_type_symbol
_atom_site_fract_x
_atom_site_fract_y
_atom_site_fract_z
Zn1 Zn -0.01198(8) 0.37472(10) 0.17809(6)
O1 O 0.2204(5) 0.3495(6) 0.0931(4)
O2 O 0.9155(5) -0.3605(6) 0.1349(4)
O3 O 0.1906(6) 0.0906(7) 0.1942(4)
O4 O 0.6528(6) -0.4169(6) 0.1849(5)
N1 N 0.1467(7) 0.4111(8) 0.2973(4)
N2 N -0.1296(7) 0.2597(8) 0.3252(5)
N3 N 0.8564(6) 0.3069(7) 0.0588(4)
H1 H 0.8179 0.4118 0.0486
H2 H 0.9609 0.2730 0.0552
C1 C 0.0994(9) 0.3421(9) 0.3998(5)
C2 C 0.3644(11) 0.4987(12) 0.3667(7)
H3 H 0.4526 0.5558 0.3521
C3 C 0.1798(9) 0.3457(10) 0.4876(6)
C4 C -0.0527(7) 0.2601(8) 0.4141(5)
C5 C -0.0224(11) 0.1948(12) 0.6081(7)
H4 H -0.0610 0.1517 0.6758
C6 C 0.2749(8) 0.4837(11) 0.2825(6)
H5 H 0.3108 0.5281 0.2144
C7 C -0.2550(14) 0.1192(12) 0.5303(7)
H6 H -0.2960 0.0715 0.5965
C8 C 0.3193(8) 0.4287(12) 0.4677(6)
H7 H 0.3779 0.4349 0.5223
C9 C -0.2592(10) 0.2013(11) 0.3388(6)
H8 H -0.3124 0.2075 0.2792
C10 C 0.1106(15) 0.2617(14) 0.5915(6)
H9 H 0.1673 0.2566 0.6495
C11 C -0.1101(9) 0.1885(10) 0.5189(6)
C12 C -0.3392(11) 0.1218(11) 0.4408(8)
H10 H -0.4351 0.0780 0.4454
C13 C 0.7520(7) -0.3147(9) 0.1529(5)
C14 C 0.2783(8) 0.1911(9) 0.1361(5)
C15 C 0.4620(8) 0.1254(9) 0.1214(5)
C16 C 0.6906(7) -0.1172(8) 0.1317(5)
C17 C 0.8078(8) 0.0073(8) 0.1049(5)
H11 H 0.9206 -0.0311 0.1028
C18 C 0.7454(7) 0.1876(8) 0.0822(5)
C19 C 0.5688(7) 0.2435(8) 0.0884(5)
H12 H 0.5258 0.3569 0.0708
C20 C 0.5214(8) -0.0551(9) 0.1423(5)
H13 H 0.4471 -0.1286 0.1626
Zn1_2 Zn 0.98802(8) -0.62528(10) 0.17809(6)
Zn1_3 Zn 0.98802(8) 0.37472(10) 0.17809(6)
O2_2 O -0.0845(5) 0.6395(6) 0.1349(4)
N3_2 N -0.1436(6) 0.3069(7) 0.0588(4)
loop_
_geom_bond_atom_site_label_1
_geom_bond_atom_site_label_2
_geom_bond_site_symmetry_1
_geom_bond_site_symmetry_2
Zn1 O1 1_555 1_555
O1 C14 1_555 1_555
O2 C13 1_555 1_555
O3 C14 1_555 1_555
O4 C13 1_555 1_555
N1 Zn1 1_555 1_555
N2 Zn1 1_555 1_555
N3 H1 1_555 1_555
H2 N3 1_555 1_555
C1 N1 1_555 1_555
C2 H3 1_555 1_555
C3 C1 1_555 1_555
C4 N2 1_555 1_555
C5 H4 1_555 1_555
C6 N1 1_555 1_555
H5 C6 1_555 1_555
C7 H6 1_555 1_555
C8 C2 1_555 1_555
H7 C8 1_555 1_555
C9 N2 1_555 1_555
H8 C9 1_555 1_555
C10 C3 1_555 1_555
H9 C10 1_555 1_555
C11 C4 1_555 1_555
C12 C7 1_555 1_555
H10 C12 1_555 1_555
C13 C16 1_555 1_555
C14 C15 1_555 1_555
C15 C19 1_555 1_555
C16 C17 1_555 1_555
C17 H11 1_555 1_555
C18 N3 1_555 1_555
C19 C18 1_555 1_555
H12 C19 1_555 1_555
C20 C15 1_555 1_555
H13 C20 1_555 1_555
Zn1_2 O2 1_555 1_555
Zn1_3 N3 1_555 1_555
O2_2 Zn1 1_555 1_555
N3_2 Zn1 1_555 1_555
C1 C4 1_555 1_555
C2 C6 1_555 1_555
C3 C8 1_555 1_555
C5 C10 1_555 1_555
C5 C11 1_555 1_555
C7 C11 1_555 1_555
C9 C12 1_555 1_555
C16 C20 1_555 1_555
C17 C18 1_555 1_555

#END
