
#######################################################################
#
#                 Cambridge Crystallographic Data Centre
#                                CCDC 
#
#######################################################################
#
# If this CIF has been generated from an entry in the Cambridge 
# Structural Database, then it will include bibliographic, chemical, 
# crystal, experimental, refinement or atomic coordinate data resulting 
# from the CCDC's data processing and validation procedures.
#
#######################################################################

data_SICDEP
_symmetry_cell_setting           monoclinic
_symmetry_space_group_name_H-M   'P 21/n'
_symmetry_Int_Tables_number      14
_space_group_name_Hall           '-P 2yn'
loop_
_symmetry_equiv_pos_site_id
_symmetry_equiv_pos_as_xyz
1 x,y,z
2 1/2-x,1/2+y,1/2-z
3 -x,-y,-z
4 1/2+x,1/2-y,1/2+z
_cell_length_a                   11.231(2)
_cell_length_b                   12.599(3)
_cell_length_c                   13.981(3)
_cell_angle_alpha                90
_cell_angle_beta                 99.25(3)
_cell_angle_gamma                90
_cell_volume                     1952.58
loop_
_atom_site_label
_atom_site_type_symbol
_atom_site_fract_x
_atom_site_fract_y
_atom_site_fract_z
Mn1 Mn 0.86668(5) 0.87631(5) 0.02389(4)
O1 O 1.0140(3) 0.9032(2) 0.1340(2)
C1 C 1.0690(3) 0.9889(3) 0.1533(3)
C2 C 1.2152(4) 1.0869(3) 0.2773(3)
H1 H 1.1994 1.1481 0.2402
C3 C 1.1550(3) 0.9937(3) 0.2480(3)
N1 N 1.3581(4) 1.1838(3) 0.3938(3)
C4 C 1.3003(4) 1.0895(3) 0.3629(3)
N2 N 0.7399(3) 1.0101(3) 0.0421(3)
N3 N 0.7528(3) 0.8236(3) 0.1393(3)
C5 C 0.6636(4) 0.8926(4) 0.1518(3)
C6 C 0.6563(4) 0.9908(4) 0.1004(3)
C7 C 0.7354(5) 1.1028(4) -0.0032(4)
H2 H 0.7942 1.1178 -0.0411
C8 C 0.5790(5) 0.8703(5) 0.2143(4)
C9 C 0.5881(6) 0.7732(6) 0.2619(5)
H3 H 0.5333 0.7556 0.3027
C10 C 0.4800(5) 1.0395(5) 0.1716(5)
H4 H 0.4192 1.0878 0.1779
C11 C 0.5653(4) 1.0639(4) 0.1109(4)
C12 C 0.4859(6) 0.9459(6) 0.2211(5)
H5 H 0.4282 0.9310 0.2601
C13 C 0.7598(5) 0.7327(5) 0.1865(4)
H6 H 0.8214 0.6858 0.1786
C14 C 0.6775(7) 0.7033(6) 0.2490(5)
H7 H 0.6842 0.6380 0.2804
C15 C 0.6468(5) 1.1793(5) 0.0030(5)
H8 H 0.6458 1.2427 -0.0311
C16 C 0.5627(5) 1.1590(5) 0.0598(4)
H9 H 0.5029 1.2088 0.0647
O2 O 1.0589(3) 1.0687(2) 0.09892(19)
C17 C 1.1771(3) 0.9017(3) 0.3038(3)
H10 H 1.1332 0.8402 0.2860
C18 C 1.2651(3) 0.9024(3) 0.3862(3)
C19 C 1.2973(4) 0.8018(3) 0.4387(3)
C20 C 1.3244(4) 0.9964(3) 0.4162(3)
H11 H 1.3810 0.9971 0.4727
O3 O 1.3956(3) 0.7952(2) 0.4968(2)
O4 O 1.2286(3) 0.7223(2) 0.4223(2)
H12 H 1.428(5) 1.180(5) 0.436(4)
H13 H 1.357(4) 1.238(4) 0.347(3)
Mn1B Mn 1.13332(5) 1.12369(5) -0.02389(4)
Mn1C Mn 1.36668(5) 0.62369(5) 0.52389(4)
O2B O 0.9411(3) 0.9313(2) -0.09892(19)
O3C O 0.8956(3) 0.7048(2) -0.0032(2)
O4C O 0.7286(3) 0.7777(2) -0.0777(2)
loop_
_geom_bond_atom_site_label_1
_geom_bond_atom_site_label_2
_geom_bond_site_symmetry_1
_geom_bond_site_symmetry_2
Mn1 O1 1_555 1_555
O1 C1 1_555 1_555
C1 C3 1_555 1_555
C2 H1 1_555 1_555
C3 C2 1_555 1_555
N1 C4 1_555 1_555
C4 C2 1_555 1_555
N2 Mn1 1_555 1_555
N3 Mn1 1_555 1_555
C5 N3 1_555 1_555
C6 N2 1_555 1_555
C7 N2 1_555 1_555
H2 C7 1_555 1_555
C8 C5 1_555 1_555
C9 C8 1_555 1_555
H3 C9 1_555 1_555
C10 H4 1_555 1_555
C11 C6 1_555 1_555
C12 C8 1_555 1_555
H5 C12 1_555 1_555
C13 N3 1_555 1_555
H6 C13 1_555 1_555
C14 C9 1_555 1_555
H7 C14 1_555 1_555
C15 C7 1_555 1_555
H8 C15 1_555 1_555
C16 C11 1_555 1_555
H9 C16 1_555 1_555
O2 C1 1_555 1_555
C17 C3 1_555 1_555
H10 C17 1_555 1_555
C18 C17 1_555 1_555
C19 C18 1_555 1_555
C20 C4 1_555 1_555
H11 C20 1_555 1_555
O3 C19 1_555 1_555
O4 C19 1_555 1_555
H12 N1 1_555 1_555
H13 N1 1_555 1_555
Mn1B O2 1_555 1_555
Mn1C O3 1_555 1_555
O2B Mn1 1_555 1_555
O3C Mn1 1_555 1_555
O4C Mn1 1_555 1_555
C5 C6 1_555 1_555
C10 C11 1_555 1_555
C10 C12 1_555 1_555
C13 C14 1_555 1_555
C15 C16 1_555 1_555
C18 C20 1_555 1_555
O4 Mn1C 1_555 1_555

#END
