
#######################################################################
#
#                 Cambridge Crystallographic Data Centre
#                                CCDC 
#
#######################################################################
#
# If this CIF has been generated from an entry in the Cambridge 
# Structural Database, then it will include bibliographic, chemical, 
# crystal, experimental, refinement or atomic coordinate data resulting 
# from the CCDC's data processing and validation procedures.
#
#######################################################################

data_SICFIV
_symmetry_cell_setting           orthorhombic
_symmetry_space_group_name_H-M   'P 21 21 21'
_symmetry_Int_Tables_number      19
_space_group_name_Hall           'P 2ac 2ab'
loop_
_symmetry_equiv_pos_site_id
_symmetry_equiv_pos_as_xyz
1 x,y,z
2 1/2-x,-y,1/2+z
3 1/2+x,1/2-y,-z
4 -x,1/2+y,1/2-z
_cell_length_a                   8.067(4)
_cell_length_b                   11.694(5)
_cell_length_c                   25.916(5)
_cell_angle_alpha                90
_cell_angle_beta                 90
_cell_angle_gamma                90
_cell_volume                     2444.8
loop_
_atom_site_label
_atom_site_type_symbol
_atom_site_fract_x
_atom_site_fract_y
_atom_site_fract_z
Zn1 Zn 0.73143(3) 0.46554(2) 0.675870(9)
O1 O 0.5998(3) 0.51009(16) 0.61585(7)
O2 O 0.5384(3) 0.32683(17) 0.61047(8)
O3 O -0.1012(3) 0.53677(18) 0.23827(7)
O4 O -0.1711(4) 0.7119(2) 0.26195(9)
N1 N 0.9117(2) 0.35484(16) 0.66001(7)
N2 N 1.0348(3) 0.19468(17) 0.63795(8)
N3 N 0.9515(2) -0.21174(16) 0.66968(8)
N4 N 0.8448(3) -0.37999(17) 0.68646(8)
C1 C 0.5244(3) 0.4252(2) 0.59595(9)
C2 C 1.0589(3) 0.0766(2) 0.62567(9)
C3 C 1.1766(3) -0.0588(2) 0.56853(8)
H1 H 1.2393 -0.0762 0.5395
C4 C 0.4145(3) 0.4545(2) 0.55030(9)
C5 C 0.3579(3) 0.3697(2) 0.51770(10)
H2 H 0.3853 0.2938 0.5243
C6 C 0.2611(4) 0.3962(2) 0.47548(9)
H3 H 0.2237 0.3377 0.4541
C7 C 0.8343(4) -0.3122(2) 0.73014(10)
H4 H 0.7902 -0.3350 0.7617
C8 C 0.2181(3) 0.5093(2) 0.46414(9)
C9 C 0.2716(4) 0.5935(2) 0.49814(11)
H5 H 0.2421 0.6693 0.4924
C10 C 0.3689(4) 0.5655(2) 0.54057(11)
H6 H 0.4039 0.6231 0.5628
C11 C -0.1080(3) 0.6194(2) 0.27074(10)
C12 C -0.0310(3) 0.5928(2) 0.32223(10)
C13 C -0.0098(3) 0.4799(2) 0.33727(9)
H7 H -0.0450 0.4214 0.3156
C14 C 0.0633(3) 0.4534(2) 0.38409(9)
H8 H 0.0730 0.3773 0.3940
C15 C 0.1227(3) 0.5396(2) 0.41669(9)
C16 C 0.0989(3) 0.6522(2) 0.40125(10)
H9 H 0.1368 0.7111 0.4223
C17 C 0.0197(3) 0.6790(2) 0.35514(10)
H10 H 0.0009 0.7551 0.3464
C18 C 1.1515(3) 0.2812(2) 0.63408(11)
H11 H 1.2617 0.2737 0.6240
C19 C 1.0738(3) 0.3780(2) 0.64775(11)
H12 H 1.1225 0.4501 0.6488
C20 C 0.8937(3) 0.2432(2) 0.65443(10)
H13 H 0.7962 0.2035 0.6611
C21 C 1.1486(3) 0.0481(2) 0.58151(10)
H14 H 1.1897 0.1064 0.5607
C22 C 0.9923(3) -0.00786(19) 0.65562(9)
H15 H 0.9305 0.0095 0.6849
C23 C 1.0197(3) -0.1200(2) 0.64104(9)
C24 C 1.1147(4) -0.1404(2) 0.59725(11)
H16 H 1.1353 -0.2158 0.5879
C25 C 0.9147(3) -0.3166(2) 0.65121(10)
H17 H 0.9363 -0.3406 0.6177
C26 C 0.8974(4) -0.2090(2) 0.71996(10)
H18 H 0.9034 -0.1473 0.7425
Zn1_2 Zn 0.73143(3) -0.53446(2) 0.675870(9)
Zn1A Zn -0.23143(3) 0.53446(2) 0.175870(9)
O3A O 0.6012(3) 0.46323(18) 0.73827(7)
N4_2 N 0.8448(3) 0.62001(17) 0.68646(8)
O5 O -0.2537(3) 0.9433(2) 0.26621(11)
H19 H -0.2641 0.9163 0.2965
H20 H -0.1635 0.9806 0.2641
O6 O 0.3251(3) 0.8894(2) 0.46408(9)
H21 H 0.3230 0.9037 0.4962
H22 H 0.2393 0.9186 0.4504
loop_
_geom_bond_atom_site_label_1
_geom_bond_atom_site_label_2
_geom_bond_site_symmetry_1
_geom_bond_site_symmetry_2
Zn1 O1 1_555 1_555
O1 C1 1_555 1_555
O2 C1 1_555 1_555
O3 C11 1_555 1_555
O4 C11 1_555 1_555
N1 Zn1 1_555 1_555
N2 C2 1_555 1_555
N3 C23 1_555 1_555
N4 C7 1_555 1_555
C1 C4 1_555 1_555
C2 C21 1_555 1_555
C3 H1 1_555 1_555
C4 C5 1_555 1_555
C5 H2 1_555 1_555
C6 C5 1_555 1_555
H3 C6 1_555 1_555
C7 H4 1_555 1_555
C8 C6 1_555 1_555
C9 C8 1_555 1_555
H5 C9 1_555 1_555
C10 C4 1_555 1_555
H6 C10 1_555 1_555
C11 C12 1_555 1_555
C12 C13 1_555 1_555
C13 H7 1_555 1_555
C14 C13 1_555 1_555
H8 C14 1_555 1_555
C15 C8 1_555 1_555
C16 C15 1_555 1_555
H9 C16 1_555 1_555
C17 C12 1_555 1_555
H10 C17 1_555 1_555
C18 N2 1_555 1_555
H11 C18 1_555 1_555
C19 N1 1_555 1_555
H12 C19 1_555 1_555
C20 N1 1_555 1_555
H13 C20 1_555 1_555
C21 C3 1_555 1_555
H14 C21 1_555 1_555
C22 C2 1_555 1_555
H15 C22 1_555 1_555
C23 C22 1_555 1_555
C24 C3 1_555 1_555
H16 C24 1_555 1_555
C25 N3 1_555 1_555
H17 C25 1_555 1_555
C26 N3 1_555 1_555
H18 C26 1_555 1_555
O5 H19 1_555 1_555
H20 O5 1_555 1_555
O6 H21 1_555 1_555
H22 O6 1_555 1_555
Zn1_2 N4 1_555 1_555
Zn1A O3 1_555 1_555
O3A Zn1 1_555 1_555
N4_2 Zn1 1_555 1_555
N2 C20 1_555 1_555
N4 C25 1_555 1_555
C7 C26 1_555 1_555
C9 C10 1_555 1_555
C14 C15 1_555 1_555
C16 C17 1_555 1_555
C18 C19 1_555 1_555
C23 C24 1_555 1_555

#END
