
#######################################################################
#
#                 Cambridge Crystallographic Data Centre
#                                CCDC 
#
#######################################################################
#
# If this CIF has been generated from an entry in the Cambridge 
# Structural Database, then it will include bibliographic, chemical, 
# crystal, experimental, refinement or atomic coordinate data resulting 
# from the CCDC's data processing and validation procedures.
#
#######################################################################

data_SICFER
_symmetry_cell_setting           monoclinic
_symmetry_space_group_name_H-M   'P 21/n'
_symmetry_Int_Tables_number      14
_space_group_name_Hall           '-P 2yn'
loop_
_symmetry_equiv_pos_site_id
_symmetry_equiv_pos_as_xyz
1 x,y,z
2 1/2-x,1/2+y,1/2-z
3 -x,-y,-z
4 1/2+x,1/2-y,1/2+z
_cell_length_a                   8.813(5)
_cell_length_b                   20.004(5)
_cell_length_c                   9.686(5)
_cell_angle_alpha                90
_cell_angle_beta                 95.740(5)
_cell_angle_gamma                90
_cell_volume                     1699.03
loop_
_atom_site_label
_atom_site_type_symbol
_atom_site_fract_x
_atom_site_fract_y
_atom_site_fract_z
Zn1 Zn 0.00565(2) 0.892281(10) 0.61323(2)
S1 S 0.14145(5) 0.69985(2) 0.91362(4)
N1 N 0.10205(16) 0.87200(8) 0.43875(15)
C1 C 0.58630(19) 0.93191(8) 0.12283(17)
N2 N 0.23961(16) 0.87041(7) 0.26239(14)
N3 N 0.72645(16) 0.96437(7) 0.16658(14)
O1 O 0.30099(14) 0.58136(7) 1.04238(14)
O2 O 0.11140(18) 0.54843(7) 1.16107(17)
C2 C 0.08795(19) 0.65214(8) 1.04889(17)
N4 N 0.89089(16) 1.03332(7) 0.27589(15)
C3 C -0.0948(2) 0.73551(9) 1.02840(18)
H1 H -0.1795 0.7594 1.0509
C4 C 0.34822(19) 0.88801(8) 0.16916(17)
N5 N 0.4256(2) 0.88029(10) -0.05935(17)
C5 C 0.1722(2) 0.58929(9) 1.09060(18)
O3 O 0.03710(18) 0.80830(7) 0.71765(14)
O4 O -0.12599(18) 0.85497(7) 0.84943(15)
C6 C -0.0101(2) 0.75321(9) 0.92333(18)
C7 C 0.0709(2) 0.81400(10) 0.3646(2)
H2 H 0.0025 0.7812 0.3865
C8 C 0.48114(18) 0.92046(8) 0.21683(16)
H3 H 0.4994 0.9341 0.3088
C9 C 0.2040(2) 0.90493(9) 0.37444(17)
H4 H 0.2455 0.9461 0.4024
C10 C -0.0405(2) 0.67729(9) 1.09912(18)
H5 H -0.0867 0.6581 1.1717
C11 C 0.9641(2) 0.99622(9) 0.18252(19)
H6 H 1.0665 1.0002 0.1685
C12 C 0.3234(2) 0.86979(11) 0.03072(19)
H7 H 0.2316 0.8494 -0.0006
C13 C 0.74783(19) 1.01288(9) 0.26328(17)
H8 H 0.6721 1.0296 0.3141
C14 C -0.0376(2) 0.81022(9) 0.82465(18)
C15 C 0.8651(2) 0.95331(10) 0.11468(19)
H9 H 0.8857 0.9226 0.0469
C16 C 0.5558(2) 0.91068(11) -0.01381(19)
H10 H 0.6285 0.9179 -0.0755
C17 C 0.1545(2) 0.81204(9) 0.25573(19)
H11 H 0.1551 0.7784 0.1896
Zn1B Zn 0.99435(2) 1.107719(10) 0.38677(2)
Zn1C Zn 0.50565(2) 0.607719(10) 1.11323(2)
O1C O -0.19901(14) 0.91864(7) 0.54238(14)
N4B N 0.10911(16) 0.96668(7) 0.72411(15)
loop_
_geom_bond_atom_site_label_1
_geom_bond_atom_site_label_2
_geom_bond_site_symmetry_1
_geom_bond_site_symmetry_2
Zn1 N1 1_555 1_555
S1 C2 1_555 1_555
N1 C7 1_555 1_555
C1 N3 1_555 1_555
N2 C4 1_555 1_555
N3 C13 1_555 1_555
O1 C5 1_555 1_555
O2 C5 1_555 1_555
C2 C5 1_555 1_555
N4 C11 1_555 1_555
C3 H1 1_555 1_555
C4 C8 1_555 1_555
N5 C12 1_555 1_555
O3 Zn1 1_555 1_555
O4 C14 1_555 1_555
C6 S1 1_555 1_555
C7 H2 1_555 1_555
C8 C1 1_555 1_555
H3 C8 1_555 1_555
C9 N1 1_555 1_555
H4 C9 1_555 1_555
C10 C2 1_555 1_555
H5 C10 1_555 1_555
C11 H6 1_555 1_555
C12 C4 1_555 1_555
H7 C12 1_555 1_555
C13 N4 1_555 1_555
H8 C13 1_555 1_555
C14 O3 1_555 1_555
C15 N3 1_555 1_555
H9 C15 1_555 1_555
C16 C1 1_555 1_555
H10 C16 1_555 1_555
C17 N2 1_555 1_555
H11 C17 1_555 1_555
Zn1B N4 1_555 1_555
Zn1C O1 1_555 1_555
O1C Zn1 1_555 1_555
N4B Zn1 1_555 1_555
N2 C9 1_555 1_555
C3 C6 1_555 1_555
C3 C10 1_555 1_555
N5 C16 1_555 1_555
C6 C14 1_555 1_555
C7 C17 1_555 1_555
C11 C15 1_555 1_555

#END
