
#######################################################################
#
#                 Cambridge Crystallographic Data Centre
#                                CCDC 
#
#######################################################################
#
# If this CIF has been generated from an entry in the Cambridge 
# Structural Database, then it will include bibliographic, chemical, 
# crystal, experimental, refinement or atomic coordinate data resulting 
# from the CCDC's data processing and validation procedures.
#
#######################################################################

data_SICGIW
_symmetry_cell_setting           monoclinic
_symmetry_space_group_name_H-M   'P 21/c'
_symmetry_Int_Tables_number      14
_space_group_name_Hall           '-P 2ybc'
loop_
_symmetry_equiv_pos_site_id
_symmetry_equiv_pos_as_xyz
1 x,y,z
2 -x,1/2+y,1/2-z
3 -x,-y,-z
4 x,1/2-y,1/2+z
_cell_length_a                   8.1712(16)
_cell_length_b                   13.958(3)
_cell_length_c                   7.4441(15)
_cell_angle_alpha                90
_cell_angle_beta                 111.08(3)
_cell_angle_gamma                90
_cell_volume                     792.209
loop_
_atom_site_label
_atom_site_type_symbol
_atom_site_fract_x
_atom_site_fract_y
_atom_site_fract_z
C1 C 0.5110(5) 0.2320(2) 0.5188(6)
H1 H 0.6268 0.2352 0.5257
C2 C 0.2660(4) 0.1758(2) 0.4929(5)
H2 H 0.1722 0.1349 0.4786
C3 C 0.1133(5) 0.3312(3) 0.5047(5)
H3 H 0.1556 0.3816 0.5999
H4 H 0.0299 0.2929 0.5393
C4 C 0.0206(4) 0.3760(3) 0.3091(5)
H5 H 0.0031 0.3273 0.2109
H6 H 0.0955 0.4252 0.2878
C5 C -0.1555(4) 0.4202(2) 0.2861(5)
Co1 Co -0.5000 0.5000 0.0000
N1 N 0.2611(4) 0.2706(2) 0.5096(4)
N2 N 0.4204(4) 0.3083(2) 0.5270(4)
N3 N 0.4229(4) 0.14772(19) 0.4996(4)
O1 O -0.2373(3) 0.45776(17) 0.1220(3)
O2 O -0.2111(3) 0.41614(19) 0.4208(4)
O3 O -0.5227(3) 0.51064(17) 0.2742(3)
H7 H -0.4473 0.4738 0.3521
H8 H -0.5090 0.5666 0.3227
C1B C -1.5110(5) 0.7680(2) -0.5188(6)
H1B H -1.6268 0.7648 -0.5257
C2B C -1.2660(4) 0.8242(2) -0.4929(5)
H2B H -1.1722 0.8651 -0.4786
C3B C -1.1133(5) 0.6688(3) -0.5047(5)
H3B H -1.1556 0.6184 -0.5999
H4B H -1.0299 0.7071 -0.5393
C4B C -1.0206(4) 0.6240(3) -0.3091(5)
H5B H -1.0031 0.6727 -0.2109
H6B H -1.0955 0.5748 -0.2878
C5B C -0.8445(4) 0.5798(2) -0.2861(5)
N1B N -1.2611(4) 0.7294(2) -0.5096(4)
N2B N -1.4204(4) 0.6917(2) -0.5270(4)
N3B N -1.4229(4) 0.85228(19) -0.4996(4)
O1B O -0.7627(3) 0.54224(17) -0.1220(3)
O2B O -0.7889(3) 0.58386(19) -0.4208(4)
O3B O -0.4773(3) 0.48936(17) -0.2742(3)
H7B H -0.5527 0.5262 -0.3521
H8B H -0.4910 0.4334 -0.3227
Co1A Co -1.5000 1.0000 -0.5000
Co1A_2 Co 0.5000 0.0000 0.5000
N3A N -0.4229(4) 0.64772(19) 0.0004(4)
N3C N -0.5771(4) 0.35228(19) -0.0004(4)
O4 O 0.8645(3) 0.3656(2) 0.8202(4)
H9 H 0.8325 0.4131 0.8710
H10 H 0.8276 0.3748 0.6993
loop_
_geom_bond_atom_site_label_1
_geom_bond_atom_site_label_2
_geom_bond_site_symmetry_1
_geom_bond_site_symmetry_2
C1 H1 1_555 1_555
C2 H2 1_555 1_555
C3 H3 1_555 1_555
H4 C3 1_555 1_555
C4 C3 1_555 1_555
H5 C4 1_555 1_555
H6 C4 1_555 1_555
C5 C4 1_555 1_555
Co1 O1 1_555 1_555
N1 C2 1_555 1_555
N2 C1 1_555 1_555
N3 C1 1_555 1_555
O1 C5 1_555 1_555
O2 C5 1_555 1_555
O3 Co1 1_555 1_555
H7 O3 1_555 1_555
H8 O3 1_555 1_555
O4 H9 1_555 1_555
H10 O4 1_555 1_555
C1B H1B 1_555 1_555
C2B H2B 1_555 1_555
C3B H3B 1_555 1_555
H4B C3B 1_555 1_555
C4B C3B 1_555 1_555
H5B C4B 1_555 1_555
H6B C4B 1_555 1_555
C5B C4B 1_555 1_555
N1B C2B 1_555 1_555
N2B C1B 1_555 1_555
N3B C1B 1_555 1_555
O1B Co1 1_555 1_555
O2B C5B 1_555 1_555
O3B Co1 1_555 1_555
H7B O3B 1_555 1_555
H8B O3B 1_555 1_555
Co1A N3B 1_555 1_555
Co1A_2 N3 1_555 1_555
N3A Co1 1_555 1_555
N3C Co1 1_555 1_555
C2 N3 1_555 1_555
C3 N1 1_555 1_555
N1 N2 1_555 1_555
C2B N3B 1_555 1_555
C3B N1B 1_555 1_555
C5B O1B 1_555 1_555
N1B N2B 1_555 1_555

#END
