
#######################################################################
#
#                 Cambridge Crystallographic Data Centre
#                                CCDC 
#
#######################################################################
#
# If this CIF has been generated from an entry in the Cambridge 
# Structural Database, then it will include bibliographic, chemical, 
# crystal, experimental, refinement or atomic coordinate data resulting 
# from the CCDC's data processing and validation procedures.
#
#######################################################################

data_SICGOC
_symmetry_cell_setting           monoclinic
_symmetry_space_group_name_H-M   'P 21/c'
_symmetry_Int_Tables_number      14
_space_group_name_Hall           '-P 2ybc'
loop_
_symmetry_equiv_pos_site_id
_symmetry_equiv_pos_as_xyz
1 x,y,z
2 -x,1/2+y,1/2-z
3 -x,-y,-z
4 x,1/2-y,1/2+z
_cell_length_a                   9.3914(19)
_cell_length_b                   13.175(3)
_cell_length_c                   14.500(5)
_cell_angle_alpha                90
_cell_angle_beta                 116.38(2)
_cell_angle_gamma                90
_cell_volume                     1607.28
loop_
_atom_site_label
_atom_site_type_symbol
_atom_site_fract_x
_atom_site_fract_y
_atom_site_fract_z
C1 C 0.2235(10) 0.0164(5) 0.0755(5)
H1 H 0.2551 0.0836 0.0771
C2 C 0.1596(8) -0.1204(5) 0.1212(5)
H2 H 0.1373 -0.1706 0.1580
C3 C 0.1001(9) -0.2192(5) -0.0417(5)
H3 H 0.0130 -0.2001 -0.1070
H4 H 0.0618 -0.2719 -0.0115
C4 C 0.2340(9) -0.2615(5) -0.0610(6)
H5 H 0.2773 -0.2079 -0.0869
H6 H 0.3182 -0.2854 0.0035
C5 C 0.1788(10) -0.3476(5) -0.1372(5)
C6 C 0.2297(10) 0.2040(6) 0.4241(6)
H7 H 0.1941 0.2487 0.3688
C7 C 0.3127(9) 0.0716(5) 0.5118(5)
H8 H 0.3474 0.0057 0.5328
C8 C 0.3350(10) 0.1365(5) 0.6804(5)
H9 H 0.3666 0.0677 0.7049
H10 H 0.2377 0.1513 0.6857
C9 C 0.4629(9) 0.2088(5) 0.7488(5)
H11 H 0.5395 0.2151 0.7212
H12 H 0.5175 0.1775 0.8161
C10 C 0.4149(9) 0.3149(5) 0.7640(5)
Cu1 Cu 0.24548(10) 0.03572(6) 0.28925(6)
N1 N 0.1472(7) -0.1313(4) 0.0263(4)
N2 N 0.1907(8) -0.0422(5) -0.0032(4)
N3 N 0.2083(7) -0.0274(4) 0.1551(4)
N4 N 0.3033(7) 0.1424(4) 0.5721(4)
N5 N 0.2493(8) 0.2301(5) 0.5172(5)
N6 N 0.2667(7) 0.1056(4) 0.4174(4)
O1 O 0.2857(6) -0.4043(3) -0.1393(3)
O2 O 0.0357(7) -0.3562(5) -0.1941(5)
O3 O 0.2692(6) 0.3301(3) 0.7374(3)
O4 O 0.5191(6) 0.3801(4) 0.8039(4)
O5 O -0.0522(6) 0.0365(4) 0.2250(4)
H13 H -0.0922 0.0538 0.1620
H14 H -0.0810 -0.0239 0.2286
Cu1C Cu 0.24548(10) -0.53572(6) -0.21075(6)
Cu1C_2 Cu 0.24548(10) 0.46428(6) 0.78925(6)
O1C O 0.2857(6) -0.0957(3) 0.3607(3)
O3C O 0.2692(6) 0.1699(3) 0.2374(3)
O4C O 0.5191(6) 0.1199(4) 0.3039(4)
O6 O 0.8307(8) 0.3484(5) 0.8322(6)
H15 H 0.8137 0.3930 0.8684
H16 H 0.7712 0.3618 0.7693
O7 O 0.0000 1.0000 0.5000
H17 H 0.0900 1.0137 0.5023
H17B H -0.0900 0.9863 0.4977
H18? H -0.0511 0.9665 0.4449
loop_
_geom_bond_atom_site_label_1
_geom_bond_atom_site_label_2
_geom_bond_site_symmetry_1
_geom_bond_site_symmetry_2
C1 H1 1_555 1_555
C2 H2 1_555 1_555
C3 H3 1_555 1_555
H4 C3 1_555 1_555
C4 C3 1_555 1_555
H5 C4 1_555 1_555
H6 C4 1_555 1_555
C5 C4 1_555 1_555
C6 H7 1_555 1_555
C7 H8 1_555 1_555
C8 H9 1_555 1_555
H10 C8 1_555 1_555
C9 C8 1_555 1_555
H11 C9 1_555 1_555
H12 C9 1_555 1_555
C10 C9 1_555 1_555
Cu1 N3 1_555 1_555
N1 C2 1_555 1_555
N2 C1 1_555 1_555
N3 C1 1_555 1_555
N4 C7 1_555 1_555
N5 C6 1_555 1_555
N6 C6 1_555 1_555
O1 C5 1_555 1_555
O2 C5 1_555 1_555
O3 C10 1_555 1_555
O4 C10 1_555 1_555
O5 Cu1 1_555 1_555
H13 O5 1_555 1_555
H14 O5 1_555 1_555
O6 H15 1_555 1_555
H16 O6 1_555 1_555
O7 H17 1_555 1_555
Cu1C O1 1_555 1_555
Cu1C_2 O3 1_555 1_555
O1C Cu1 1_555 1_555
O3C Cu1 1_555 1_555
O4C Cu1 1_555 1_555
H17B O7 1_555 1_555
C2 N3 1_555 1_555
C3 N1 1_555 1_555
C7 N6 1_555 1_555
C8 N4 1_555 1_555
Cu1 N6 1_555 1_555
N1 N2 1_555 1_555
N4 N5 1_555 1_555
O4 Cu1C_2 1_555 1_555

#END
