
#######################################################################
#
#                 Cambridge Crystallographic Data Centre
#                                CCDC 
#
#######################################################################
#
# If this CIF has been generated from an entry in the Cambridge 
# Structural Database, then it will include bibliographic, chemical, 
# crystal, experimental, refinement or atomic coordinate data resulting 
# from the CCDC's data processing and validation procedures.
#
#######################################################################

data_SICHES
_symmetry_cell_setting           orthorhombic
_symmetry_space_group_name_H-M   'P 21 21 21'
_symmetry_Int_Tables_number      19
_space_group_name_Hall           'P 2ac 2ab'
loop_
_symmetry_equiv_pos_site_id
_symmetry_equiv_pos_as_xyz
1 x,y,z
2 1/2-x,-y,1/2+z
3 1/2+x,1/2-y,-z
4 -x,1/2+y,1/2-z
_cell_length_a                   7.5237(3)
_cell_length_b                   11.2547(5)
_cell_length_c                   29.578(2)
_cell_angle_alpha                90
_cell_angle_beta                 90
_cell_angle_gamma                90
_cell_volume                     2504.58
loop_
_atom_site_label
_atom_site_type_symbol
_atom_site_fract_x
_atom_site_fract_y
_atom_site_fract_z
Sb1 Sb 0.49069(2) 0.453618(13) 0.300405(4)
Na1 Na -0.02477(15) 0.58761(9) 0.28162(3)
O1 O 0.5907(2) 0.46244(17) 0.23339(5)
O2 O 0.3899(2) 0.53999(18) 0.35764(5)
O3 O 0.2889(2) 0.53946(18) 0.26940(5)
O4 O 0.6771(2) 0.58039(16) 0.30940(5)
O5 O 0.3280(2) 0.44384(17) 0.15306(5)
O6 O 0.6636(2) 0.59082(17) 0.43074(6)
O7 O -0.0557(2) 0.43321(19) 0.22823(6)
H1 H -0.1627(15) 0.433(3) 0.2234(10)
O8 O 1.0427(3) 0.5847(2) 0.35522(6)
H2 H 1.1485(15) 0.579(3) 0.3598(10)
N1 N 0.8425(3) 0.8412(2) 0.07803(8)
N2 N 0.1587(3) 1.0301(2) 0.46558(7)
N3 N 0.7787(3) 0.6937(2) 0.13550(7)
N4 N 0.2166(3) 0.8475(2) 0.42444(7)
N5 N 0.6408(4) 0.9027(2) 0.02445(8)
H3 H 0.544(4) 0.904(3) 0.0112(9)
H4 H 0.715(4) 0.943(3) 0.0151(10)
N6 N 0.3610(3) 1.1189(2) 0.51395(8)
H5 H 0.456(4) 1.120(3) 0.5287(9)
H6 H 0.278(4) 1.168(3) 0.5204(10)
N7 N 0.3809(3) 0.7270(2) 0.06943(8)
N8 N 0.6159(3) 0.9170(2) 0.48588(8)
N9 N 0.4781(3) 0.61236(17) 0.12670(6)
N10 N 0.5164(3) 0.77185(17) 0.43973(6)
C1 C 0.4877(4) 0.5094(2) 0.15789(7)
H7 H 0.590(4) 0.464(3) 0.1505(10)
C2 C 0.5035(4) 0.64941(19) 0.42077(7)
H8 H 0.403(4) 0.612(3) 0.4357(10)
C3 C 0.5019(4) 0.5492(2) 0.20726(6)
H9 H 0.559(4) 0.631(3) 0.2088(9)
C4 C 0.4775(4) 0.6465(2) 0.36929(7)
H10 H 0.416(4) 0.714(3) 0.3609(10)
C5 C 0.3056(3) 0.5494(3) 0.22193(7)
H11 H 0.251(4) 0.622(3) 0.2106(9)
C6 C 0.6699(3) 0.6371(2) 0.35194(8)
H12 H 0.718(4) 0.712(3) 0.3497(10)
C7 C 0.2330(3) 0.4420(2) 0.19582(7)
H13 H 0.267(4) 0.368(3) 0.2132(9)
C8 C 0.7641(3) 0.5676(2) 0.38993(8)
H14 H 0.755(4) 0.486(3) 0.3837(9)
C9 C 0.0348(3) 0.4411(3) 0.18556(8)
H15 H 0.006(5) 0.512(2) 0.1712(8)
H16 H 0.007(5) 0.374(2) 0.1674(8)
C10 C 0.9549(3) 0.6048(3) 0.39682(9)
H17 H 1.010(4) 0.566(2) 0.4198(9)
H18 H 0.962(4) 0.685(3) 0.4054(9)
C11 C 0.8807(4) 0.7725(3) 0.11378(9)
H19 H 0.984(5) 0.779(2) 0.1252(8)
C12 C 0.1190(4) 0.9405(3) 0.43753(9)
H20 H 0.006(4) 0.939(2) 0.4248(8)
C13 C 0.6161(4) 0.6875(2) 0.11622(8)
C14 C 0.3801(4) 0.8527(2) 0.44360(8)
C15 C 0.5540(3) 0.7570(2) 0.08038(9)
C16 C 0.4421(3) 0.9412(2) 0.47240(8)
C17 C 0.6764(4) 0.8359(2) 0.06017(8)
C18 C 0.3224(3) 1.0329(2) 0.48459(8)
C19 C 0.3425(4) 0.6404(3) 0.09747(9)
H21 H 0.238(4) 0.598(3) 0.0989(10)
C20 C 0.6523(4) 0.8154(3) 0.46586(9)
H22 H 0.750(4) 0.770(3) 0.4678(10)
O9 O -0.0617(3) 0.7252(2) 0.22601(7)
H23 H -0.046(4) 0.7963(10) 0.2292(9)
H24 H -0.109(4) 0.724(3) 0.2012(5)
Na1_2 Na 0.97523(15) 0.58761(9) 0.28162(3)
O4_2 O -0.3229(2) 0.58039(16) 0.30940(5)
O8_2 O 0.0427(3) 0.5847(2) 0.35522(6)
H2_2 H 0.1485(15) 0.579(3) 0.3598(10)
loop_
_geom_bond_atom_site_label_1
_geom_bond_atom_site_label_2
_geom_bond_site_symmetry_1
_geom_bond_site_symmetry_2
Sb1 O1 1_555 1_555
Na1 O3 1_555 1_555
O1 C3 1_555 1_555
O2 Sb1 1_555 1_555
O3 Sb1 1_555 1_555
O4 Sb1 1_555 1_555
O5 C1 1_555 1_555
O6 C2 1_555 1_555
O7 Na1 1_555 1_555
H1 O7 1_555 1_555
O8 H2 1_555 1_555
N1 C11 1_555 1_555
N2 C12 1_555 1_555
N3 C11 1_555 1_555
N4 C12 1_555 1_555
N5 H3 1_555 1_555
H4 N5 1_555 1_555
N6 H5 1_555 1_555
H6 N6 1_555 1_555
N7 C15 1_555 1_555
N8 C16 1_555 1_555
N9 C1 1_555 1_555
N10 C2 1_555 1_555
C1 H7 1_555 1_555
C2 H8 1_555 1_555
C3 C1 1_555 1_555
H9 C3 1_555 1_555
C4 O2 1_555 1_555
H10 C4 1_555 1_555
C5 O3 1_555 1_555
H11 C5 1_555 1_555
C6 O4 1_555 1_555
H12 C6 1_555 1_555
C7 O5 1_555 1_555
H13 C7 1_555 1_555
C8 O6 1_555 1_555
H14 C8 1_555 1_555
C9 O7 1_555 1_555
H15 C9 1_555 1_555
H16 C9 1_555 1_555
C10 O8 1_555 1_555
H17 C10 1_555 1_555
H18 C10 1_555 1_555
C11 H19 1_555 1_555
C12 H20 1_555 1_555
C13 N3 1_555 1_555
C14 N4 1_555 1_555
C15 C13 1_555 1_555
C16 C14 1_555 1_555
C17 N1 1_555 1_555
C18 N2 1_555 1_555
C19 N7 1_555 1_555
H21 C19 1_555 1_555
C20 N8 1_555 1_555
H22 C20 1_555 1_555
O9 Na1 1_555 1_555
H23 O9 1_555 1_555
H24 O9 1_555 1_555
Na1_2 O4 1_555 1_555
O4_2 Na1 1_555 1_555
O8_2 Na1 1_555 1_555
H2_2 O8_2 1_555 1_555
O8 Na1_2 1_555 1_555
N5 C17 1_555 1_555
N6 C18 1_555 1_555
N9 C13 1_555 1_555
N9 C19 1_555 1_555
N10 C14 1_555 1_555
N10 C20 1_555 1_555
C2 C4 1_555 1_555
C3 C5 1_555 1_555
C4 C6 1_555 1_555
C5 C7 1_555 1_555
C6 C8 1_555 1_555
C7 C9 1_555 1_555
C8 C10 1_555 1_555
C15 C17 1_555 1_555
C16 C18 1_555 1_555

#END
