
#######################################################################
#
#                 Cambridge Crystallographic Data Centre
#                                CCDC 
#
#######################################################################
#
# If this CIF has been generated from an entry in the Cambridge 
# Structural Database, then it will include bibliographic, chemical, 
# crystal, experimental, refinement or atomic coordinate data resulting 
# from the CCDC's data processing and validation procedures.
#
#######################################################################

data_SIDFIV
_symmetry_cell_setting           monoclinic
_symmetry_space_group_name_H-M   'C 2/c'
_symmetry_Int_Tables_number      15
_space_group_name_Hall           '-C 2yn'
loop_
_symmetry_equiv_pos_site_id
_symmetry_equiv_pos_as_xyz
1 x,y,z
2 1/2+x,1/2+y,z
3 -x,y,1/2-z
4 1/2-x,1/2+y,1/2-z
5 -x,-y,-z
6 1/2-x,1/2-y,-z
7 x,-y,1/2+z
8 1/2+x,1/2-y,1/2+z
_cell_length_a                   19.7990(4)
_cell_length_b                   14.9440(3)
_cell_length_c                   19.8800(3)
_cell_angle_alpha                90
_cell_angle_beta                 119.5701(11)
_cell_angle_gamma                90
_cell_volume                     5115.9
loop_
_atom_site_label
_atom_site_type_symbol
_atom_site_fract_x
_atom_site_fract_y
_atom_site_fract_z
Ni1 Ni 0.26712(2) -0.00035(3) 0.33326(2)
Fe1 Fe 0.26830(3) 0.07514(3) 0.08428(3)
N1 N 0.37487(17) 0.0407(2) 0.38506(16)
N2 N 0.3230(2) -0.1070(2) 0.31490(18)
N3 N 0.1561(2) -0.0411(3) 0.2765(2)
H1 H 0.1404 -0.0172 0.2289
N4 N 0.25710(18) 0.1217(2) 0.37573(16)
C1 C 0.4277(2) -0.0095(3) 0.3801(2)
C2 C 0.3958(2) -0.0953(3) 0.3397(2)
C3 C 0.2820(3) -0.1878(3) 0.2756(3)
H2 H 0.2997 -0.2365 0.3127
H3 H 0.2955 -0.2026 0.2362
C4 C 0.1969(4) -0.1816(4) 0.2390(4)
H4 H 0.1800 -0.1641 0.1860
H5 H 0.1798 -0.2430 0.2362
C5 C 0.1505(5) -0.1330(6) 0.2592(9)
H6 H 0.1539 -0.1632 0.3039
H7 H 0.0978 -0.1422 0.2175
C6 C 0.1146(3) 0.0973(5) 0.3133(3)
H8 H 0.0744 0.1086 0.3267
H9 H 0.0976 0.1266 0.2640
C7 C 0.1834(3) 0.1490(3) 0.3704(3)
H10 H 0.1748 0.2118 0.3565
H11 H 0.1879 0.1426 0.4210
C8 C 0.1107(4) 0.0063(6) 0.2981(8)
H12 H 0.1169 -0.0230 0.3443
H13 H 0.0576 -0.0049 0.2581
C9 C 0.3208(2) 0.1638(2) 0.4155(2)
C10 C 0.3904(2) 0.1212(2) 0.41804(19)
C11 C 0.4650(3) 0.1568(3) 0.4495(3)
H14 H 0.483(3) 0.216(4) 0.475(3)
C12 C 0.5203(3) 0.1060(4) 0.4452(3)
H15 H 0.574(4) 0.126(4) 0.467(4)
C13 C 0.5041(2) 0.0231(3) 0.4104(3)
H16 H 0.541(3) -0.007(3) 0.409(3)
C14 C 0.4475(3) -0.1628(3) 0.3306(3)
H17 H 0.4439 -0.2192 0.3517
H18 H 0.5002 -0.1421 0.3575
H19 H 0.4311 -0.1699 0.2767
C15 C 0.3307(3) 0.2464(3) 0.4608(3)
H20 H 0.2829 0.2795 0.4376
H21 H 0.3710 0.2825 0.4611
H22 H 0.3446 0.2308 0.5129
N5 N 0.3508(2) 0.1377(3) 0.1310(2)
O1 O 0.4050(3) 0.1806(3) 0.1640(3)
N6 N 0.2526(2) 0.0577(2) 0.22965(17)
C16 C 0.2565(2) 0.0668(2) 0.1745(2)
N7 N 0.27751(19) -0.0550(2) 0.43529(17)
C17 C 0.2739(2) -0.0646(2) 0.4905(2)
N8 N 0.1179(3) -0.0356(3) 0.0028(3)
C18 C 0.1745(3) 0.0039(3) 0.0331(2)
N9 N 0.1578(3) 0.2300(3) 0.0208(3)
C19 C 0.2007(3) 0.1725(3) 0.0459(2)
N10 N 0.3536(3) -0.1067(3) 0.1291(3)
C20 C 0.3222(2) -0.0393(3) 0.1135(2)
Fe1F Fe 0.26830(3) -0.07514(3) 0.58428(3)
C17F C 0.2739(2) 0.0646(2) -0.0095(2)
O2 O 0.0263(8) 0.1435(9) 0.0591(12)
C21 C 0.0431(18) 0.078(3) 0.1034(17)
H23 H 0.0975 0.0903 0.1388
H24 H 0.0171 0.0950 0.1320
C22 C 0.042(2) -0.004(5) 0.1087(16)
H25 H 0.0656 -0.0203 0.1622
H26 H 0.0715 -0.0298 0.0867
H27 H -0.0101 -0.0249 0.0814
loop_
_geom_bond_atom_site_label_1
_geom_bond_atom_site_label_2
_geom_bond_site_symmetry_1
_geom_bond_site_symmetry_2
Ni1 N1 1_555 1_555
Fe1 N5 1_555 1_555
N1 C1 1_555 1_555
N2 Ni1 1_555 1_555
N3 Ni1 1_555 1_555
H1 N3 1_555 1_555
N4 Ni1 1_555 1_555
C1 C2 1_555 1_555
C2 N2 1_555 1_555
C3 N2 1_555 1_555
H2 C3 1_555 1_555
H3 C3 1_555 1_555
C4 C3 1_555 1_555
H4 C4 1_555 1_555
H5 C4 1_555 1_555
C5 N3 1_555 1_555
H6 C5 1_555 1_555
H7 C5 1_555 1_555
C6 H8 1_555 1_555
H9 C6 1_555 1_555
C7 N4 1_555 1_555
H10 C7 1_555 1_555
H11 C7 1_555 1_555
C8 N3 1_555 1_555
H12 C8 1_555 1_555
H13 C8 1_555 1_555
C9 N4 1_555 1_555
C10 N1 1_555 1_555
C11 C10 1_555 1_555
H14 C11 1_555 1_555
C12 C11 1_555 1_555
H15 C12 1_555 1_555
C13 C1 1_555 1_555
H16 C13 1_555 1_555
C14 C2 1_555 1_555
H17 C14 1_555 1_555
H18 C14 1_555 1_555
H19 C14 1_555 1_555
C15 C9 1_555 1_555
H20 C15 1_555 1_555
H21 C15 1_555 1_555
H22 C15 1_555 1_555
N5 O1 1_555 1_555
N6 Ni1 1_555 1_555
C16 Fe1 1_555 1_555
N7 Ni1 1_555 1_555
C17 N7 1_555 1_555
N8 C18 1_555 1_555
C18 Fe1 1_555 1_555
N9 C19 1_555 1_555
C19 Fe1 1_555 1_555
N10 C20 1_555 1_555
C20 Fe1 1_555 1_555
O2 C21 1_555 1_555
C21 H23 1_555 1_555
H24 C21 1_555 1_555
C22 C21 1_555 1_555
H25 C22 1_555 1_555
H26 C22 1_555 1_555
H27 C22 1_555 1_555
Fe1F C17 1_555 1_555
C17F Fe1 1_555 1_555
C4 C5 1_555 1_555
C6 C7 1_555 1_555
C6 C8 1_555 1_555
C9 C10 1_555 1_555
C12 C13 1_555 1_555
N6 C16 1_555 1_555

#END
