
#######################################################################
#
#                 Cambridge Crystallographic Data Centre
#                                CCDC 
#
#######################################################################
#
# If this CIF has been generated from an entry in the Cambridge 
# Structural Database, then it will include bibliographic, chemical, 
# crystal, experimental, refinement or atomic coordinate data resulting 
# from the CCDC's data processing and validation procedures.
#
#######################################################################

data_SIDGAP
_symmetry_cell_setting           monoclinic
_symmetry_space_group_name_H-M   'P 21/c'
_symmetry_Int_Tables_number      14
_space_group_name_Hall           '-P 2ybc'
loop_
_symmetry_equiv_pos_site_id
_symmetry_equiv_pos_as_xyz
1 x,y,z
2 -x,1/2+y,1/2-z
3 -x,-y,-z
4 x,1/2-y,1/2+z
_cell_length_a                   20.6100(8)
_cell_length_b                   6.3284(3)
_cell_length_c                   7.6108(3)
_cell_angle_alpha                90
_cell_angle_beta                 94.404(4)
_cell_angle_gamma                90
_cell_volume                     989.733
loop_
_atom_site_label
_atom_site_type_symbol
_atom_site_fract_x
_atom_site_fract_y
_atom_site_fract_z
Mn1 Mn 0.0000 0.5000 0.5000
O1 O 0.04706(9) 0.4165(3) 0.7551(2)
O2 O 0.08097(9) 0.1020(3) 0.8554(3)
O3 O 0.43313(13) 0.4508(5) 0.6067(4)
O4 O -0.05579(10) 0.2027(3) 0.4681(3)
H1 H -0.046(2) 0.136(7) 0.388(6)
H2 H -0.0587(19) 0.132(7) 0.560(6)
N1 N 0.17307(13) 0.5340(4) 0.6930(3)
H3 H 0.1454(18) 0.610(6) 0.657(5)
C1 C 0.09219(12) 0.2792(4) 0.7912(3)
C2 C 0.15872(13) 0.3369(4) 0.7577(3)
C3 C 0.21442(13) 0.2205(5) 0.7809(4)
H4 H 0.2180 0.0837 0.8252
C4 C 0.26602(13) 0.3475(5) 0.7245(4)
C5 C 0.33268(14) 0.3097(6) 0.7102(4)
H5 H 0.3520 0.1835 0.7488
C6 C 0.36835(16) 0.4666(6) 0.6367(5)
C7 C 0.33928(16) 0.6601(6) 0.5815(5)
H6 H 0.3648 0.7626 0.5330
C8 C 0.27503(16) 0.7016(5) 0.5970(4)
H7 H 0.2566 0.8302 0.5613
C9 C 0.23786(14) 0.5421(5) 0.6690(4)
C10 C 0.46469(19) 0.2579(8) 0.6525(7)
H8 H 0.5094 0.2658 0.6257
H9 H 0.4435 0.1447 0.5867
H10 H 0.4626 0.2324 0.7763
O1B O -0.04706(9) 0.5835(3) 0.2449(2)
O2B O -0.08097(9) 0.8980(3) 0.1446(3)
O3B O -0.43313(13) 0.5492(5) 0.3933(4)
O4B O 0.05579(10) 0.7973(3) 0.5319(3)
H1B H 0.046(2) 0.864(7) 0.612(6)
H2B H 0.0587(19) 0.868(7) 0.440(6)
N1B N -0.17307(13) 0.4660(4) 0.3070(3)
H3B H -0.1454(18) 0.390(6) 0.343(5)
C1B C -0.09219(12) 0.7208(4) 0.2088(3)
C2B C -0.15872(13) 0.6631(4) 0.2423(3)
C3B C -0.21442(13) 0.7795(5) 0.2191(4)
H4B H -0.2180 0.9163 0.1748
C4B C -0.26602(13) 0.6525(5) 0.2755(4)
C5B C -0.33268(14) 0.6903(6) 0.2898(4)
H5B H -0.3520 0.8165 0.2512
C6B C -0.36835(16) 0.5334(6) 0.3633(5)
C7B C -0.33928(16) 0.3399(6) 0.4185(5)
H6B H -0.3648 0.2374 0.4670
C8B C -0.27503(16) 0.2984(5) 0.4030(4)
H7B H -0.2566 0.1698 0.4387
C9B C -0.23786(14) 0.4579(5) 0.3310(4)
C10B C -0.46469(19) 0.7421(8) 0.3475(7)
H8B H -0.5094 0.7342 0.3743
H9B H -0.4435 0.8553 0.4133
H10B H -0.4626 0.7676 0.2237
Mn1A Mn 0.0000 0.0000 1.0000
Mn1A_2 Mn 0.0000 1.0000 0.0000
O2A O -0.08097(9) 0.6020(3) 0.6446(3)
O2C O 0.08097(9) 0.3980(3) 0.3554(3)
loop_
_geom_bond_atom_site_label_1
_geom_bond_atom_site_label_2
_geom_bond_site_symmetry_1
_geom_bond_site_symmetry_2
Mn1 O1 1_555 1_555
O1 C1 1_555 1_555
O2 C1 1_555 1_555
O3 C6 1_555 1_555
O4 Mn1 1_555 1_555
H1 O4 1_555 1_555
H2 O4 1_555 1_555
N1 H3 1_555 1_555
C1 C2 1_555 1_555
C2 N1 1_555 1_555
C3 C2 1_555 1_555
H4 C3 1_555 1_555
C4 C3 1_555 1_555
C5 C4 1_555 1_555
H5 C5 1_555 1_555
C6 C5 1_555 1_555
C7 C6 1_555 1_555
H6 C7 1_555 1_555
C8 C7 1_555 1_555
H7 C8 1_555 1_555
C9 N1 1_555 1_555
C10 O3 1_555 1_555
H8 C10 1_555 1_555
H9 C10 1_555 1_555
H10 C10 1_555 1_555
O1B Mn1 1_555 1_555
O2B C1B 1_555 1_555
O3B C6B 1_555 1_555
O4B Mn1 1_555 1_555
H1B O4B 1_555 1_555
H2B O4B 1_555 1_555
N1B H3B 1_555 1_555
C1B O1B 1_555 1_555
C2B N1B 1_555 1_555
C3B C2B 1_555 1_555
H4B C3B 1_555 1_555
C4B C3B 1_555 1_555
C5B C4B 1_555 1_555
H5B C5B 1_555 1_555
C6B C5B 1_555 1_555
C7B C6B 1_555 1_555
H6B C7B 1_555 1_555
C8B C7B 1_555 1_555
H7B C8B 1_555 1_555
C9B N1B 1_555 1_555
C10B O3B 1_555 1_555
H8B C10B 1_555 1_555
H9B C10B 1_555 1_555
H10B C10B 1_555 1_555
Mn1A O2 1_555 1_555
Mn1A_2 O2B 1_555 1_555
O2A Mn1 1_555 1_555
O2C Mn1 1_555 1_555
C4 C9 1_555 1_555
C8 C9 1_555 1_555
C1B C2B 1_555 1_555
C4B C9B 1_555 1_555
C8B C9B 1_555 1_555

#END
