
#######################################################################
#
#                 Cambridge Crystallographic Data Centre
#                                CCDC 
#
#######################################################################
#
# If this CIF has been generated from an entry in the Cambridge 
# Structural Database, then it will include bibliographic, chemical, 
# crystal, experimental, refinement or atomic coordinate data resulting 
# from the CCDC's data processing and validation procedures.
#
#######################################################################

data_SIDJOF
_symmetry_cell_setting           trigonal
_symmetry_space_group_name_H-M   'P -3 1 c'
_symmetry_Int_Tables_number      163
_space_group_name_Hall           "-P 3 2'c"
loop_
_symmetry_equiv_pos_site_id
_symmetry_equiv_pos_as_xyz
1 x,y,z
2 -y,x-y,z
3 -x+y,-x,z
4 x,x-y,1/2-z
5 -x+y,y,1/2-z
6 -y,-x,1/2-z
7 -x,-y,-z
8 y,-x+y,-z
9 x-y,x,-z
10 -x,-x+y,1/2+z
11 x-y,-y,1/2+z
12 y,x,1/2+z
_cell_length_a                   13.5355(12)
_cell_length_b                   13.5355(12)
_cell_length_c                   15.0984(18)
_cell_angle_alpha                90
_cell_angle_beta                 90
_cell_angle_gamma                120
_cell_volume                     2395.58
loop_
_atom_site_label
_atom_site_type_symbol
_atom_site_fract_x
_atom_site_fract_y
_atom_site_fract_z
Mn2 Mn 0.6667 0.3333 0.2500
O5 O 0.66761(15) 0.20317(16) 0.33498(12)
H7 H 0.6483 0.2127 0.3873
H8 H 0.7340 0.2104 0.3400
O5A O 0.79683(16) 0.46444(22) 0.33498(12)
O5B O 0.53556(22) 0.33239(15) 0.33498(12)
O5C O 0.66761(15) 0.46444(22) 0.16502(12)
O5D O 0.53556(22) 0.20317(16) 0.16502(12)
O5E O 0.79683(16) 0.33239(15) 0.16502(12)
H7A H 0.7873 0.4356 0.3873
H7B H 0.5644 0.3517 0.3873
H7C H 0.6483 0.4356 0.1127
H7D H 0.5644 0.2127 0.1127
H7E H 0.7873 0.3517 0.1127
H8A H 0.7896 0.5236 0.3400
H8B H 0.4764 0.2660 0.3400
H8C H 0.7340 0.5236 0.1600
H8D H 0.4764 0.2104 0.1600
H8E H 0.7896 0.2660 0.1600
Mn1 Mn 0.6667 0.3333 0.57848(5)
C1 C 1.0802(2) 0.1153(2) 0.37640(17)
H1 H 1.1343 0.1926 0.3761
C2 C 0.9658(2) 0.0812(2) 0.37662(16)
C3 C 0.9212(2) 0.1629(2) 0.38076(18)
C4 C 0.9537(2) 0.3469(2) 0.4272(2)
H2 H 0.9243 0.3569 0.3714
H3 H 1.0190 0.4198 0.4433
C5 C 0.8637(2) 0.31361(19) 0.49677(18)
N1 N 0.9921(2) 0.26421(19) 0.41440(17)
H4 H 1.0636 0.2823 0.4294
O1 O 0.81298(15) 0.37043(14) 0.49711(12)
O2 O 0.8447(2) 0.23584(18) 0.55026(14)
O3 O 0.82375(17) 0.13331(17) 0.35652(16)
O4 O 0.52476(17) 0.30457(19) 0.66774(14)
H5 H 0.4659 0.2391 0.6581
H6 H 0.5081 0.3570 0.6579
Mn1B Mn 1.6666 0.3333 0.57848(5)
Mn1_2 Mn 0.6667 -0.6667 0.57848(5)
Mn1_3 Mn 0.6667 1.3333 0.57848(5)
Mn1_4 Mn 1.6667 1.3333 0.57848(5)
C1A C 0.8847(2) -0.0351(3) 0.37640(17)
C1B C 1.0351(3) -0.0802(2) 0.37640(17)
C1A_2 C 0.8847(2) 0.9649(3) 0.37640(17)
C1B_2 C 1.0351(3) 0.9198(2) 0.37640(17)
C1_2 C 1.0802(2) 1.1153(2) 0.37640(17)
H1A H 0.8074 -0.0583 0.3761
H1B H 1.0583 -0.1343 0.3761
H1A_2 H 0.8074 0.9417 0.3761
H1B_2 H 1.0583 0.8657 0.3761
H1_2 H 1.1343 1.1926 0.3761
C2A C 0.9188(2) -0.1154(3) 0.37662(16)
C2B C 1.1154(3) 0.0342(2) 0.37662(16)
C2A_2 C 0.9188(2) 0.8846(3) 0.37662(16)
C2B_2 C 1.1154(3) 1.0342(2) 0.37662(16)
C2_2 C 0.9658(2) 1.0812(2) 0.37662(16)
C3B C 1.2417(3) 0.0788(2) 0.38076(18)
C3A C 0.8371(2) -0.2417(3) 0.38076(18)
C3A_2 C 0.8371(2) 0.7583(3) 0.38076(18)
C3_2 C 0.9212(2) 1.1629(2) 0.38076(18)
C3B_2 C 1.2417(3) 1.0788(2) 0.38076(18)
C4B C 1.3932(3) 0.0463(2) 0.4272(2)
C4A C 0.6531(2) -0.3932(3) 0.4272(2)
C4A_2 C 0.6531(2) 0.6068(3) 0.4272(2)
C4_2 C 0.9537(2) 1.3469(2) 0.4272(2)
C4B_2 C 1.3932(3) 1.0463(2) 0.4272(2)
H2B H 1.4326 0.0757 0.3714
H2A H 0.6431 -0.4326 0.3714
H2A_2 H 0.6431 0.5674 0.3714
H2_2 H 0.9243 1.3569 0.3714
H2B_2 H 1.4326 1.0757 0.3714
H3B H 1.4008 -0.0190 0.4433
H3A H 0.5802 -0.4008 0.4433
H3A_2 H 0.5802 0.5992 0.4433
H3_2 H 1.0190 1.4198 0.4433
H3B_2 H 1.4008 0.9810 0.4433
C5B C 1.44991(28) 0.1363(2) 0.49677(18)
C5A C 0.68639(19) -0.44991(28) 0.49677(18)
C5A_2 C 0.68639(19) 0.55009(28) 0.49677(18)
C5_2 C 0.8637(2) 1.31361(19) 0.49677(18)
C5B_2 C 1.44991(28) 1.1363(2) 0.49677(18)
N1B N 1.27211(28) 0.0079(2) 0.41440(17)
N1A N 0.73579(19) -0.27211(28) 0.41440(17)
N1A_2 N 0.73579(19) 0.72789(28) 0.41440(17)
N1_2 N 0.9921(2) 1.26421(19) 0.41440(17)
N1B_2 N 1.27211(28) 1.0079(2) 0.41440(17)
H4B H 1.2187 -0.0636 0.4294
H4A H 0.7177 -0.2187 0.4294
H4A_2 H 0.7177 0.7813 0.4294
H4_2 H 1.0636 1.2823 0.4294
H4B_2 H 1.2187 0.9364 0.4294
O1B O 1.55745(21) 0.18702(15) 0.49711(12)
O1A O 0.62957(14) -0.55745(21) 0.49711(12)
O1A_2 O 0.62957(14) 0.44255(21) 0.49711(12)
O1_2 O 0.81298(15) 1.37043(14) 0.49711(12)
O1B_2 O 1.55745(21) 1.18702(15) 0.49711(12)
O1B_3 O 0.55745(21) 0.18702(15) 0.49711(12)
O1_3 O 1.81298(15) 0.37043(14) 0.49711(12)
O1A_3 O 1.62957(14) 0.44255(21) 0.49711(12)
O2B O 1.39114(27) 0.1553(2) 0.55026(14)
O2A O 0.76416(18) -0.39114(27) 0.55026(14)
O2A_2 O 0.76416(18) 0.60886(27) 0.55026(14)
O2_2 O 0.8447(2) 1.23584(18) 0.55026(14)
O2B_2 O 1.39114(27) 1.1553(2) 0.55026(14)
O3B O 1.30956(24) 0.17625(17) 0.35652(16)
O3A O 0.86669(17) -0.30956(24) 0.35652(16)
O3A_2 O 0.86669(17) 0.69044(24) 0.35652(16)
O3_2 O 0.82375(17) 1.13331(17) 0.35652(16)
O3B_2 O 1.30956(24) 1.17625(17) 0.35652(16)
O4A O 0.69543(19) 0.22019(25) 0.66774(14)
O4B O 0.77981(25) 0.47524(17) 0.66774(14)
O4B_2 O 1.77981(25) 0.47524(17) 0.66774(14)
O4_2 O 1.52476(17) 0.30457(19) 0.66774(14)
O4A_2 O 1.69543(19) 0.22019(25) 0.66774(14)
H5A H 0.7609 0.2268 0.6581
H5B H 0.7732 0.5341 0.6581
H5B_2 H 1.7732 0.5341 0.6581
H5_2 H 1.4659 0.2391 0.6581
H5A_2 H 1.7609 0.2268 0.6581
H6A H 0.6430 0.1511 0.6579
H6B H 0.8489 0.4919 0.6579
H6B_2 H 1.8489 0.4919 0.6579
H6_2 H 1.5081 0.3570 0.6579
H6A_2 H 1.6430 0.1511 0.6579
O6? O 0.4731(16) 0.4298(14) 0.7801(5)
H9? H 0.4072 0.3845 0.8022
H10? H 0.4709 0.4838 0.7520
loop_
_geom_bond_atom_site_label_1
_geom_bond_atom_site_label_2
_geom_bond_site_symmetry_1
_geom_bond_site_symmetry_2
Mn1 O1 1_555 1_555
Mn2 O5 1_555 1_555
C1 H1 1_555 1_555
C2 C1 1_555 1_555
C3 C2 1_555 1_555
C4 H2 1_555 1_555
H3 C4 1_555 1_555
C5 C4 1_555 1_555
N1 C3 1_555 1_555
H4 N1 1_555 1_555
O1 C5 1_555 1_555
O2 C5 1_555 1_555
O3 C3 1_555 1_555
O4 Mn1 1_555 1_555
H5 O4 1_555 1_555
H6 O4 1_555 1_555
O5 H7 1_555 1_555
H8 O5 1_555 1_555
Mn1B O1B 1_555 1_555
Mn1_2 O1A 1_555 1_555
Mn1_3 O1_2 1_555 1_555
Mn1_4 O1B_2 1_555 1_555
C1A C2 1_555 1_555
C1B H1B 1_555 1_555
C1A_2 H1A_2 1_555 1_555
C1B_2 H1B_2 1_555 1_555
C1_2 H1_2 1_555 1_555
H1A C1A 1_555 1_555
C2A C1A 1_555 1_555
C2B C1 1_555 1_555
C2A_2 C1A_2 1_555 1_555
C2B_2 C1B_2 1_555 1_555
C2_2 C1A_2 1_555 1_555
C3B C2B 1_555 1_555
C3A C2A 1_555 1_555
C3A_2 C2A_2 1_555 1_555
C3_2 C2_2 1_555 1_555
C3B_2 C2B_2 1_555 1_555
C4B H2B 1_555 1_555
C4A H2A 1_555 1_555
C4A_2 H2A_2 1_555 1_555
C4_2 H2_2 1_555 1_555
C4B_2 H2B_2 1_555 1_555
H3B C4B 1_555 1_555
H3A C4A 1_555 1_555
H3A_2 C4A_2 1_555 1_555
H3_2 C4_2 1_555 1_555
H3B_2 C4B_2 1_555 1_555
C5B C4B 1_555 1_555
C5A C4A 1_555 1_555
C5A_2 C4A_2 1_555 1_555
C5_2 C4_2 1_555 1_555
C5B_2 C4B_2 1_555 1_555
N1B C3B 1_555 1_555
N1A C3A 1_555 1_555
N1A_2 C3A_2 1_555 1_555
N1_2 C3_2 1_555 1_555
N1B_2 C3B_2 1_555 1_555
H4B N1B 1_555 1_555
H4A N1A 1_555 1_555
H4A_2 N1A_2 1_555 1_555
H4_2 N1_2 1_555 1_555
H4B_2 N1B_2 1_555 1_555
O1B C5B 1_555 1_555
O1A C5A 1_555 1_555
O1A_2 Mn1 1_555 1_555
O1_2 C5_2 1_555 1_555
O1B_2 C5B_2 1_555 1_555
O1B_3 Mn1 1_555 1_555
O1_3 Mn1B 1_555 1_555
O1A_3 Mn1B 1_555 1_555
O2B C5B 1_555 1_555
O2A C5A 1_555 1_555
O2A_2 C5A_2 1_555 1_555
O2_2 C5_2 1_555 1_555
O2B_2 C5B_2 1_555 1_555
O3B C3B 1_555 1_555
O3A C3A 1_555 1_555
O3A_2 C3A_2 1_555 1_555
O3_2 C3_2 1_555 1_555
O3B_2 C3B_2 1_555 1_555
O4A Mn1 1_555 1_555
O4B Mn1 1_555 1_555
O4B_2 Mn1B 1_555 1_555
O4_2 Mn1B 1_555 1_555
O4A_2 Mn1B 1_555 1_555
H5A O4A 1_555 1_555
H5B O4B 1_555 1_555
H5B_2 O4B_2 1_555 1_555
H5_2 O4_2 1_555 1_555
H5A_2 O4A_2 1_555 1_555
H6A O4A 1_555 1_555
H6B O4B 1_555 1_555
H6B_2 O4B_2 1_555 1_555
H6_2 O4_2 1_555 1_555
H6A_2 O4A_2 1_555 1_555
O5A Mn2 1_555 1_555
O5B Mn2 1_555 1_555
O5C Mn2 1_555 1_555
O5D Mn2 1_555 1_555
O5E Mn2 1_555 1_555
H7A O5A 1_555 1_555
H7B O5B 1_555 1_555
H7C O5C 1_555 1_555
H7D O5D 1_555 1_555
H7E O5E 1_555 1_555
H8A O5A 1_555 1_555
H8B O5B 1_555 1_555
H8C O5C 1_555 1_555
H8D O5D 1_555 1_555
H8E O5E 1_555 1_555
C4 N1 1_555 1_555
C1B C2A 1_555 1_555
C1B C2B 1_555 1_555
C1B_2 C2A_2 1_555 1_555
C1_2 C2B_2 1_555 1_555
C1_2 C2_2 1_555 1_555
C4B N1B 1_555 1_555
C4A N1A 1_555 1_555
C4A_2 N1A_2 1_555 1_555
C4_2 N1_2 1_555 1_555
C4B_2 N1B_2 1_555 1_555
C5A_2 O1A_2 1_555 1_555

#END
