
#######################################################################
#
#                 Cambridge Crystallographic Data Centre
#                                CCDC 
#
#######################################################################
#
# If this CIF has been generated from an entry in the Cambridge 
# Structural Database, then it will include bibliographic, chemical, 
# crystal, experimental, refinement or atomic coordinate data resulting 
# from the CCDC's data processing and validation procedures.
#
#######################################################################

data_SIDJIZ
_symmetry_cell_setting           trigonal
_symmetry_space_group_name_H-M   'P -3 1 c'
_symmetry_Int_Tables_number      163
_space_group_name_Hall           "-P 3 2'c"
loop_
_symmetry_equiv_pos_site_id
_symmetry_equiv_pos_as_xyz
1 x,y,z
2 -y,x-y,z
3 -x+y,-x,z
4 -x+y,y,1/2-z
5 x,x-y,1/2-z
6 -y,-x,1/2-z
7 -x,-y,-z
8 y,-x+y,-z
9 x-y,x,-z
10 x-y,-y,1/2+z
11 -x,-x+y,1/2+z
12 y,x,1/2+z
_cell_length_a                   13.416(2)
_cell_length_b                   13.416(2)
_cell_length_c                   14.883(4)
_cell_angle_alpha                90
_cell_angle_beta                 90
_cell_angle_gamma                120
_cell_volume                     2319.89
loop_
_atom_site_label
_atom_site_type_symbol
_atom_site_fract_x
_atom_site_fract_y
_atom_site_fract_z
Zn1 Zn 0.6667 0.3333 0.57909(4)
C1 C 1.0801(3) 0.1161(3) 0.3752(2)
H1 H 1.1341 0.1942 0.3750
C2 C 0.9641(3) 0.0803(3) 0.3753(2)
C3 C 0.9196(3) 0.1623(3) 0.3806(2)
C4 C 0.9519(3) 0.3482(3) 0.4278(3)
H2 H 0.9224 0.3588 0.3712
H3 H 1.0173 0.4218 0.4446
C5 C 0.8598(3) 0.3125(3) 0.4984(2)
N1 N 0.9898(2) 0.2654(2) 0.4142(2)
H4 H 1.0624 0.2845 0.4288
O1 O 0.80699(18) 0.36832(18) 0.49803(15)
O2 O 0.8424(2) 0.2351(2) 0.55190(18)
O3 O 0.8209(2) 0.1333(2) 0.35603(18)
O4 O 0.5311(2) 0.3089(2) 0.66605(18)
H5 H 0.4722 0.2434 0.6565
H6 H 0.5144 0.3613 0.6563
Zn1B Zn 1.6666 0.3333 0.57909(4)
Zn1_2 Zn 0.6667 -0.6667 0.57909(4)
Zn1_3 Zn 0.6667 1.3333 0.57909(4)
Zn1_4 Zn 1.6667 1.3333 0.57909(4)
C1A C 0.8839(3) -0.0360(4) 0.3752(2)
C1B C 1.0360(4) -0.0801(3) 0.3752(2)
C1A_2 C 0.8839(3) 0.9640(4) 0.3752(2)
C1B_2 C 1.0360(4) 0.9199(3) 0.3752(2)
C1_2 C 1.0801(3) 1.1161(3) 0.3752(2)
H1A H 0.8058 -0.0601 0.3750
H1B H 1.0601 -0.1341 0.3750
H1A_2 H 0.8058 0.9399 0.3750
H1B_2 H 1.0601 0.8659 0.3750
H1_2 H 1.1341 1.1942 0.3750
C2A C 0.9197(3) -0.1162(4) 0.3753(2)
C2B C 1.1162(4) 0.0359(3) 0.3753(2)
C2A_2 C 0.9197(3) 0.8838(4) 0.3753(2)
C2B_2 C 1.1162(4) 1.0359(3) 0.3753(2)
C2_2 C 0.9641(3) 1.0803(3) 0.3753(2)
C3B C 1.2427(4) 0.0804(3) 0.3806(2)
C3A C 0.8377(3) -0.2427(4) 0.3806(2)
C3A_2 C 0.8377(3) 0.7573(4) 0.3806(2)
C3_2 C 0.9196(3) 1.1623(3) 0.3806(2)
C3B_2 C 1.2427(4) 1.0804(3) 0.3806(2)
C4B C 1.3963(4) 0.0481(3) 0.4278(3)
C4A C 0.6518(3) -0.3963(4) 0.4278(3)
C4A_2 C 0.6518(3) 0.6037(4) 0.4278(3)
C4_2 C 0.9519(3) 1.3482(3) 0.4278(3)
C4B_2 C 1.3963(4) 1.0481(3) 0.4278(3)
H2B H 1.4364 0.0776 0.3712
H2A H 0.6412 -0.4364 0.3712
H2A_2 H 0.6412 0.5636 0.3712
H2_2 H 0.9224 1.3588 0.3712
H2B_2 H 1.4364 1.0776 0.3712
H3B H 1.4045 -0.0173 0.4446
H3A H 0.5782 -0.4045 0.4446
H3A_2 H 0.5782 0.5955 0.4446
H3_2 H 1.0173 1.4218 0.4446
H3B_2 H 1.4045 0.9827 0.4446
C5B C 1.4527(4) 0.1402(3) 0.4984(2)
C5A C 0.6875(3) -0.4527(4) 0.4984(2)
C5A_2 C 0.6875(3) 0.5473(4) 0.4984(2)
C5_2 C 0.8598(3) 1.3125(3) 0.4984(2)
C5B_2 C 1.4527(4) 1.1402(3) 0.4984(2)
N1B N 1.2756(3) 0.0102(2) 0.4142(2)
N1A N 0.7346(2) -0.2756(3) 0.4142(2)
N1A_2 N 0.7346(2) 0.7244(3) 0.4142(2)
N1_2 N 0.9898(2) 1.2654(2) 0.4142(2)
N1B_2 N 1.2756(3) 1.0102(2) 0.4142(2)
H4B H 1.2221 -0.0624 0.4288
H4A H 0.7155 -0.2221 0.4288
H4A_2 H 0.7155 0.7779 0.4288
H4_2 H 1.0624 1.2845 0.4288
H4B_2 H 1.2221 0.9376 0.4288
O1B O 1.56133(25) 0.19301(18) 0.49803(15)
O1A O 0.63168(18) -0.56133(25) 0.49803(15)
O1A_2 O 0.63168(18) 0.43867(25) 0.49803(15)
O1_2 O 0.80699(18) 1.36832(18) 0.49803(15)
O1B_2 O 1.56133(25) 1.19301(18) 0.49803(15)
O1B_3 O 0.56133(25) 0.19301(18) 0.49803(15)
O1_3 O 1.80699(18) 0.36832(18) 0.49803(15)
O1A_3 O 1.63168(18) 0.43867(25) 0.49803(15)
O2B O 1.3927(3) 0.1576(2) 0.55190(18)
O2A O 0.7649(2) -0.3927(3) 0.55190(18)
O2A_2 O 0.7649(2) 0.6073(3) 0.55190(18)
O2_2 O 0.8424(2) 1.2351(2) 0.55190(18)
O2B_2 O 1.3927(3) 1.1576(2) 0.55190(18)
O3B O 1.3124(3) 0.1791(2) 0.35603(18)
O3A O 0.8667(2) -0.3124(3) 0.35603(18)
O3A_2 O 0.8667(2) 0.6876(3) 0.35603(18)
O3_2 O 0.8209(2) 1.1333(2) 0.35603(18)
O3B_2 O 1.3124(3) 1.1791(2) 0.35603(18)
O4A O 0.6911(2) 0.2222(3) 0.66605(18)
O4B O 0.7778(3) 0.4689(2) 0.66605(18)
O4B_2 O 1.7778(3) 0.4689(2) 0.66605(18)
O4_2 O 1.5311(2) 0.3089(2) 0.66605(18)
O4A_2 O 1.6911(2) 0.2222(3) 0.66605(18)
H5A H 0.7566 0.2288 0.6565
H5B H 0.7712 0.5278 0.6565
H5B_2 H 1.7712 0.5278 0.6565
H5_2 H 1.4722 0.2434 0.6565
H5A_2 H 1.7566 0.2288 0.6565
H6A H 0.6387 0.1531 0.6563
H6B H 0.8469 0.4856 0.6563
H6B_2 H 1.8469 0.4856 0.6563
H6_2 H 1.5144 0.3613 0.6563
H6A_2 H 1.6387 0.1531 0.6563
Zn2 Zn 0.6667 0.3333 0.2500
O5 O 0.66731(18) 0.20661(19) 0.33179(15)
H7 H 0.6480 0.2161 0.3841
H8 H 0.7337 0.2139 0.3368
O5A O 0.79339(19) 0.46070(26) 0.33179(15)
O5B O 0.53930(26) 0.33269(18) 0.33179(15)
O5C O 0.53930(26) 0.20661(19) 0.16821(15)
O5D O 0.66731(18) 0.46070(26) 0.16821(15)
O5E O 0.79339(19) 0.33269(18) 0.16821(15)
H7A H 0.7839 0.4319 0.3841
H7B H 0.5681 0.3520 0.3841
H7C H 0.5681 0.2161 0.1159
H7D H 0.6480 0.4319 0.1159
H7E H 0.7839 0.3520 0.1159
H8A H 0.7861 0.5198 0.3368
H8B H 0.4802 0.2663 0.3368
H8C H 0.4802 0.2139 0.1632
H8D H 0.7337 0.5198 0.1632
H8E H 0.7861 0.2663 0.1632
O6 O 0.4658(13) 0.4244(13) 0.7845(7)
H9? H 0.3999 0.3791 0.8066
H10? H 0.4636 0.4784 0.7563
loop_
_geom_bond_atom_site_label_1
_geom_bond_atom_site_label_2
_geom_bond_site_symmetry_1
_geom_bond_site_symmetry_2
Zn1 O1 1_555 1_555
Zn2 O5 1_555 1_555
C1 H1 1_555 1_555
C2 C1 1_555 1_555
C3 C2 1_555 1_555
C4 H2 1_555 1_555
H3 C4 1_555 1_555
C5 C4 1_555 1_555
N1 C3 1_555 1_555
H4 N1 1_555 1_555
O1 C5 1_555 1_555
O2 C5 1_555 1_555
O3 C3 1_555 1_555
O4 Zn1 1_555 1_555
H5 O4 1_555 1_555
H6 O4 1_555 1_555
O5 H7 1_555 1_555
H8 O5 1_555 1_555
Zn1B O1B 1_555 1_555
Zn1_2 O1A 1_555 1_555
Zn1_3 O1_2 1_555 1_555
Zn1_4 O1B_2 1_555 1_555
C1A C2 1_555 1_555
C1B H1B 1_555 1_555
C1A_2 H1A_2 1_555 1_555
C1B_2 H1B_2 1_555 1_555
C1_2 H1_2 1_555 1_555
H1A C1A 1_555 1_555
C2A C1A 1_555 1_555
C2B C1 1_555 1_555
C2A_2 C1A_2 1_555 1_555
C2B_2 C1B_2 1_555 1_555
C2_2 C1A_2 1_555 1_555
C3B C2B 1_555 1_555
C3A C2A 1_555 1_555
C3A_2 C2A_2 1_555 1_555
C3_2 C2_2 1_555 1_555
C3B_2 C2B_2 1_555 1_555
C4B H2B 1_555 1_555
C4A H2A 1_555 1_555
C4A_2 H2A_2 1_555 1_555
C4_2 H2_2 1_555 1_555
C4B_2 H2B_2 1_555 1_555
H3B C4B 1_555 1_555
H3A C4A 1_555 1_555
H3A_2 C4A_2 1_555 1_555
H3_2 C4_2 1_555 1_555
H3B_2 C4B_2 1_555 1_555
C5B C4B 1_555 1_555
C5A C4A 1_555 1_555
C5A_2 C4A_2 1_555 1_555
C5_2 C4_2 1_555 1_555
C5B_2 C4B_2 1_555 1_555
N1B C3B 1_555 1_555
N1A C3A 1_555 1_555
N1A_2 C3A_2 1_555 1_555
N1_2 C3_2 1_555 1_555
N1B_2 C3B_2 1_555 1_555
H4B N1B 1_555 1_555
H4A N1A 1_555 1_555
H4A_2 N1A_2 1_555 1_555
H4_2 N1_2 1_555 1_555
H4B_2 N1B_2 1_555 1_555
O1B C5B 1_555 1_555
O1A C5A 1_555 1_555
O1A_2 Zn1 1_555 1_555
O1_2 C5_2 1_555 1_555
O1B_2 C5B_2 1_555 1_555
O1B_3 Zn1 1_555 1_555
O1_3 Zn1B 1_555 1_555
O1A_3 Zn1B 1_555 1_555
O2B C5B 1_555 1_555
O2A C5A 1_555 1_555
O2A_2 C5A_2 1_555 1_555
O2_2 C5_2 1_555 1_555
O2B_2 C5B_2 1_555 1_555
O3B C3B 1_555 1_555
O3A C3A 1_555 1_555
O3A_2 C3A_2 1_555 1_555
O3_2 C3_2 1_555 1_555
O3B_2 C3B_2 1_555 1_555
O4A Zn1 1_555 1_555
O4B Zn1 1_555 1_555
O4B_2 Zn1B 1_555 1_555
O4_2 Zn1B 1_555 1_555
O4A_2 Zn1B 1_555 1_555
H5A O4A 1_555 1_555
H5B O4B 1_555 1_555
H5B_2 O4B_2 1_555 1_555
H5_2 O4_2 1_555 1_555
H5A_2 O4A_2 1_555 1_555
H6A O4A 1_555 1_555
H6B O4B 1_555 1_555
H6B_2 O4B_2 1_555 1_555
H6_2 O4_2 1_555 1_555
H6A_2 O4A_2 1_555 1_555
O5A Zn2 1_555 1_555
O5B Zn2 1_555 1_555
O5C Zn2 1_555 1_555
O5D Zn2 1_555 1_555
O5E Zn2 1_555 1_555
H7A O5A 1_555 1_555
H7B O5B 1_555 1_555
H7C O5C 1_555 1_555
H7D O5D 1_555 1_555
H7E O5E 1_555 1_555
H8A O5A 1_555 1_555
H8B O5B 1_555 1_555
H8C O5C 1_555 1_555
H8D O5D 1_555 1_555
H8E O5E 1_555 1_555
C4 N1 1_555 1_555
C1B C2A 1_555 1_555
C1B C2B 1_555 1_555
C1B_2 C2A_2 1_555 1_555
C1_2 C2B_2 1_555 1_555
C1_2 C2_2 1_555 1_555
C4B N1B 1_555 1_555
C4A N1A 1_555 1_555
C4A_2 N1A_2 1_555 1_555
C4_2 N1_2 1_555 1_555
C4B_2 N1B_2 1_555 1_555
C5A_2 O1A_2 1_555 1_555

#END
