
#######################################################################
#
#                 Cambridge Crystallographic Data Centre
#                                CCDC 
#
#######################################################################
#
# If this CIF has been generated from an entry in the Cambridge 
# Structural Database, then it will include bibliographic, chemical, 
# crystal, experimental, refinement or atomic coordinate data resulting 
# from the CCDC's data processing and validation procedures.
#
#######################################################################

data_SIDJOG
_symmetry_cell_setting           monoclinic
_symmetry_space_group_name_H-M   'C 2/c'
_symmetry_Int_Tables_number      15
_space_group_name_Hall           '-C 2yn'
loop_
_symmetry_equiv_pos_site_id
_symmetry_equiv_pos_as_xyz
1 x,y,z
2 -x,y,1/2-z
3 1/2+x,1/2+y,z
4 1/2-x,1/2+y,1/2-z
5 -x,-y,-z
6 x,-y,1/2+z
7 1/2-x,1/2-y,-z
8 1/2+x,1/2-y,1/2+z
_cell_length_a                   18.0502(7)
_cell_length_b                   12.1923(3)
_cell_length_c                   15.6893(7)
_cell_angle_alpha                90
_cell_angle_beta                 117.445(2)
_cell_angle_gamma                90
_cell_volume                     3064.2
loop_
_atom_site_label
_atom_site_type_symbol
_atom_site_fract_x
_atom_site_fract_y
_atom_site_fract_z
Zn1 Zn 0.330681(13) 0.313208(18) 0.539529(16)
S1 S 0.27443(3) 0.01323(5) 0.76772(4)
N1 N 0.42461(10) 0.42273(13) 0.58122(12)
N2 N 0.46683(13) 0.70388(15) 0.53314(17)
H1 H 0.5078 0.7495 0.5560
O1 O 0.37275(9) 0.20970(13) 0.65446(11)
O2 O 0.24664(9) 0.13033(12) 0.59443(10)
O3 O 0.37312(10) -0.19837(12) 0.97507(11)
O4 O 0.24741(9) -0.11712(12) 0.90873(11)
C1 C 0.32120(13) 0.14301(17) 0.65780(15)
C2 C 0.34911(12) 0.07232(17) 0.74422(15)
C3 C 0.42722(14) 0.04171(19) 0.80961(16)
H2 H 0.4757 0.0673 0.8094
C4 C 0.42659(13) -0.03318(18) 0.87770(16)
H3 H 0.4746 -0.0640 0.9262
C5 C 0.34808(13) -0.05562(17) 0.86489(15)
C6 C 0.32055(13) -0.12916(17) 0.92111(15)
C7 C 0.41348(13) 0.52378(16) 0.54334(16)
H4 H 0.3609 0.5431 0.4953
C8 C 0.47767(13) 0.60108(17) 0.57319(17)
C9 C 0.55469(14) 0.5701(2) 0.64803(19)
H5 H 0.5988 0.6197 0.6719
C10 C 0.56539(14) 0.4671(2) 0.68637(18)
H6 H 0.6167 0.4465 0.7363
C11 C 0.49997(13) 0.39401(19) 0.65068(16)
H7 H 0.5082 0.3231 0.6753
C12 C 0.38889(16) 0.7375(2) 0.4539(2)
H8 H 0.3742 0.6857 0.4016
H9 H 0.3966 0.8086 0.4314
C13 C 0.31714(15) 0.74499(18) 0.47837(19)
C14 C 0.32963(17) 0.7727(2) 0.5698(2)
H10 H 0.3832 0.7880 0.6176
C15 C 0.23703(17) 0.7222(2) 0.4096(2)
H11 H 0.2275 0.7031 0.3480
N1F N 0.07539(10) 1.07727(13) 0.41878(12)
N2F N 0.03317(13) 0.79612(15) 0.46686(17)
H1F H -0.0078 0.7505 0.4440
C7F C 0.08652(13) 0.97622(16) 0.45666(16)
H4F H 0.1391 0.9569 0.5047
C8F C 0.02233(13) 0.89892(17) 0.42681(17)
C9F C -0.05469(14) 0.9299(2) 0.35197(19)
H5F H -0.0988 0.8803 0.3281
C10F C -0.06539(14) 1.0329(2) 0.31363(18)
H6F H -0.1167 1.0535 0.2637
C11F C 0.00003(13) 1.10599(19) 0.34932(16)
H7F H -0.0082 1.1769 0.3247
C12F C 0.11111(16) 0.7625(2) 0.5461(2)
H8F H 0.1258 0.8143 0.5984
H9F H 0.1034 0.6914 0.5686
C13F C 0.18286(15) 0.75501(18) 0.52163(19)
C14F C 0.17037(17) 0.7273(2) 0.4302(2)
H10F H 0.1168 0.7120 0.3824
C15F C 0.26297(17) 0.7778(2) 0.5904(2)
H11F H 0.2725 0.7969 0.6520
Zn1F Zn 0.169319(13) 0.186792(18) 0.460471(16)
S1F S 0.22557(3) 0.48677(5) 0.23228(4)
O1F O 0.12725(9) 0.29030(13) 0.34554(11)
O2F O 0.25336(9) 0.36967(12) 0.40557(10)
O3F O 0.12688(10) 0.69837(12) 0.02493(11)
O4F O 0.25259(9) 0.61712(12) 0.09127(11)
C1F C 0.17880(13) 0.35699(17) 0.34220(15)
C2F C 0.15089(12) 0.42768(17) 0.25578(15)
C3F C 0.07278(14) 0.45829(19) 0.19039(16)
H2F H 0.0243 0.4327 0.1906
C4F C 0.07341(13) 0.53318(18) 0.12230(16)
H3F H 0.0254 0.5640 0.0738
C5F C 0.15192(13) 0.55562(17) 0.13511(15)
C6F C 0.17945(13) 0.62916(17) 0.07889(15)
Zn1C Zn 0.169319(13) -0.186792(18) 0.960471(16)
Zn1C_2 Zn 0.169319(13) 0.813208(18) -0.039529(16)
Zn1E Zn 0.330681(13) -0.313208(18) 1.039529(16)
Zn1E_2 Zn 0.330681(13) 0.686792(18) 0.039529(16)
Zn1F_2 Zn 0.169319(13) 1.186792(18) 0.460471(16)
N1F_2 N 0.07539(10) 0.07727(13) 0.41878(12)
O3C O 0.12688(10) 0.30163(12) 0.52493(11)
O3E O 0.37312(10) 0.19837(12) 0.47507(11)
O4C O 0.25259(9) 0.38288(12) 0.59127(11)
O4E O 0.24741(9) 0.11712(12) 0.40873(11)
loop_
_geom_bond_atom_site_label_1
_geom_bond_atom_site_label_2
_geom_bond_site_symmetry_1
_geom_bond_site_symmetry_2
Zn1 N1 1_555 1_555
S1 C2 1_555 1_555
N1 C7 1_555 1_555
N2 H1 1_555 1_555
O1 Zn1 1_555 1_555
O2 C1 1_555 1_555
O3 C6 1_555 1_555
O4 C6 1_555 1_555
C1 O1 1_555 1_555
C2 C1 1_555 1_555
C3 C2 1_555 1_555
H2 C3 1_555 1_555
C4 C3 1_555 1_555
H3 C4 1_555 1_555
C5 S1 1_555 1_555
C6 C5 1_555 1_555
C7 H4 1_555 1_555
C8 N2 1_555 1_555
C9 C8 1_555 1_555
H5 C9 1_555 1_555
C10 C9 1_555 1_555
H6 C10 1_555 1_555
C11 N1 1_555 1_555
H7 C11 1_555 1_555
C12 N2 1_555 1_555
H8 C12 1_555 1_555
H9 C12 1_555 1_555
C13 C12 1_555 1_555
C14 C13 1_555 1_555
H10 C14 1_555 1_555
C15 C13 1_555 1_555
H11 C15 1_555 1_555
N1F C7F 1_555 1_555
N2F H1F 1_555 1_555
C7F H4F 1_555 1_555
C8F N2F 1_555 1_555
C9F C8F 1_555 1_555
H5F C9F 1_555 1_555
C10F C9F 1_555 1_555
H6F C10F 1_555 1_555
C11F N1F 1_555 1_555
H7F C11F 1_555 1_555
C12F N2F 1_555 1_555
H8F C12F 1_555 1_555
H9F C12F 1_555 1_555
C13F C12F 1_555 1_555
C14F C15 1_555 1_555
H10F C14F 1_555 1_555
C15F C14 1_555 1_555
H11F C15F 1_555 1_555
Zn1F O2 1_555 1_555
S1F C2F 1_555 1_555
O1F Zn1F 1_555 1_555
O2F Zn1 1_555 1_555
O3F C6F 1_555 1_555
O4F C6F 1_555 1_555
C1F O1F 1_555 1_555
C2F C1F 1_555 1_555
C3F C2F 1_555 1_555
H2F C3F 1_555 1_555
C4F C3F 1_555 1_555
H3F C4F 1_555 1_555
C5F S1F 1_555 1_555
C6F C5F 1_555 1_555
Zn1C O4 1_555 1_555
Zn1C_2 O3F 1_555 1_555
Zn1E O3 1_555 1_555
Zn1E_2 O4F 1_555 1_555
Zn1F_2 N1F 1_555 1_555
N1F_2 Zn1F 1_555 1_555
O3C Zn1F 1_555 1_555
O3E Zn1 1_555 1_555
O4C Zn1 1_555 1_555
O4E Zn1F 1_555 1_555
C4 C5 1_555 1_555
C7 C8 1_555 1_555
C10 C11 1_555 1_555
C7F C8F 1_555 1_555
C10F C11F 1_555 1_555
C13F C14F 1_555 1_555
C13F C15F 1_555 1_555
O2F C1F 1_555 1_555
C4F C5F 1_555 1_555

#END
