
#######################################################################
#
#                 Cambridge Crystallographic Data Centre
#                                CCDC 
#
#######################################################################
#
# If this CIF has been generated from an entry in the Cambridge 
# Structural Database, then it will include bibliographic, chemical, 
# crystal, experimental, refinement or atomic coordinate data resulting 
# from the CCDC's data processing and validation procedures.
#
#######################################################################

data_SIDJUL
_symmetry_cell_setting           trigonal
_symmetry_space_group_name_H-M   'P -3 1 c'
_symmetry_Int_Tables_number      163
_space_group_name_Hall           "-P 3 2'c"
loop_
_symmetry_equiv_pos_site_id
_symmetry_equiv_pos_as_xyz
1 x,y,z
2 -y,x-y,z
3 -x+y,-x,z
4 x,x-y,1/2-z
5 -x+y,y,1/2-z
6 -y,-x,1/2-z
7 -x,-y,-z
8 y,-x+y,-z
9 x-y,x,-z
10 -x,-x+y,1/2+z
11 x-y,-y,1/2+z
12 y,x,1/2+z
_cell_length_a                   13.409(2)
_cell_length_b                   13.409(2)
_cell_length_c                   14.802(3)
_cell_angle_alpha                90
_cell_angle_beta                 90
_cell_angle_gamma                120
_cell_volume                     2304.86
loop_
_atom_site_label
_atom_site_type_symbol
_atom_site_fract_x
_atom_site_fract_y
_atom_site_fract_z
Ni2 Ni 0.6667 0.3333 0.2500
O5 O 0.66745(18) 0.20664(19) 0.33168(16)
H6 H 0.6482 0.2162 0.3840
H7 H 0.7339 0.2139 0.3367
O5A O 0.79336(19) 0.46081(26) 0.33168(16)
O5B O 0.53919(26) 0.33255(18) 0.33168(16)
O5C O 0.66745(18) 0.46081(26) 0.16832(16)
O5D O 0.53919(26) 0.20664(19) 0.16832(16)
O5E O 0.79336(19) 0.33255(18) 0.16832(16)
H6A H 0.7838 0.4320 0.3840
H6B H 0.5680 0.3518 0.3840
H6C H 0.6482 0.4320 0.1160
H6D H 0.5680 0.2162 0.1160
H6E H 0.7838 0.3518 0.1160
H7A H 0.7861 0.5200 0.3367
H7B H 0.4800 0.2661 0.3367
H7C H 0.7339 0.5200 0.1633
H7D H 0.4800 0.2139 0.1633
H7E H 0.7861 0.2661 0.1633
Ni1 Ni 0.6667 0.3333 0.57910(5)
C1 C 1.0801(2) 0.1165(2) 0.3750(2)
H1 H 1.1341 0.1947 0.3747
C2 C 0.9645(2) 0.0806(2) 0.37522(19)
C3 C 0.9199(3) 0.1621(3) 0.3810(2)
C4 C 0.9517(3) 0.3481(3) 0.4273(3)
H2 H 0.9221 0.3585 0.3704
H3 H 1.0171 0.4217 0.4442
C5 C 0.8599(3) 0.3126(2) 0.4983(2)
N1 N 0.9908(2) 0.2655(2) 0.4141(2)
O1 O 0.80704(18) 0.36848(18) 0.49814(15)
O2 O 0.8423(2) 0.2354(2) 0.55232(19)
O3 O 0.8207(2) 0.1332(2) 0.3559(2)
O4 O 0.5311(2) 0.3090(2) 0.66611(19)
H4 H 0.4722 0.2435 0.6565
H5 H 0.5144 0.3614 0.6563
Ni1B Ni 1.6666 0.3333 0.57910(5)
Ni1_2 Ni 0.6667 -0.6667 0.57910(5)
Ni1_3 Ni 0.6667 1.3333 0.57910(5)
Ni1_4 Ni 1.6667 1.3333 0.57910(5)
C1A C 0.8835(2) -0.0364(3) 0.3750(2)
C1B C 1.0364(3) -0.0801(2) 0.3750(2)
C1A_2 C 0.8835(2) 0.9636(3) 0.3750(2)
C1B_2 C 1.0364(3) 0.9199(2) 0.3750(2)
C1_2 C 1.0801(2) 1.1165(2) 0.3750(2)
H1A H 0.8053 -0.0606 0.3747
H1B H 1.0606 -0.1341 0.3747
H1A_2 H 0.8053 0.9394 0.3747
H1B_2 H 1.0606 0.8659 0.3747
H1_2 H 1.1341 1.1947 0.3747
C2A C 0.9194(2) -0.1161(3) 0.37522(19)
C2B C 1.1161(3) 0.0355(2) 0.37522(19)
C2A_2 C 0.9194(2) 0.8839(3) 0.37522(19)
C2B_2 C 1.1161(3) 1.0355(2) 0.37522(19)
C2_2 C 0.9645(2) 1.0806(2) 0.37522(19)
C3B C 1.2422(4) 0.0801(3) 0.3810(2)
C3A C 0.8379(3) -0.2422(4) 0.3810(2)
C3A_2 C 0.8379(3) 0.7578(4) 0.3810(2)
C3_2 C 0.9199(3) 1.1621(3) 0.3810(2)
C3B_2 C 1.2422(4) 1.0801(3) 0.3810(2)
C4B C 1.3964(4) 0.0483(3) 0.4273(3)
C4A C 0.6519(3) -0.3964(4) 0.4273(3)
C4A_2 C 0.6519(3) 0.6036(4) 0.4273(3)
C4_2 C 0.9517(3) 1.3481(3) 0.4273(3)
C4B_2 C 1.3964(4) 1.0483(3) 0.4273(3)
H2B H 1.4364 0.0779 0.3704
H2A H 0.6415 -0.4364 0.3704
H2A_2 H 0.6415 0.5636 0.3704
H2_2 H 0.9221 1.3585 0.3704
H2B_2 H 1.4364 1.0779 0.3704
H3B H 1.4046 -0.0171 0.4442
H3A H 0.5783 -0.4046 0.4442
H3A_2 H 0.5783 0.5954 0.4442
H3_2 H 1.0171 1.4217 0.4442
H3B_2 H 1.4046 0.9829 0.4442
C5B C 1.4527(4) 0.1401(3) 0.4983(2)
C5A C 0.6874(2) -0.4527(4) 0.4983(2)
C5A_2 C 0.6874(2) 0.5473(4) 0.4983(2)
C5_2 C 0.8599(3) 1.3126(2) 0.4983(2)
C5B_2 C 1.4527(4) 1.1401(3) 0.4983(2)
N1B N 1.2747(3) 0.0092(2) 0.4141(2)
N1A N 0.7345(2) -0.2747(3) 0.4141(2)
N1A_2 N 0.7345(2) 0.7253(3) 0.4141(2)
N1_2 N 0.9908(2) 1.2655(2) 0.4141(2)
N1B_2 N 1.2747(3) 1.0092(2) 0.4141(2)
O1B O 1.56144(25) 0.19296(18) 0.49814(15)
O1A O 0.63152(18) -0.56144(25) 0.49814(15)
O1A_2 O 0.63152(18) 0.43856(25) 0.49814(15)
O1_2 O 0.80704(18) 1.36848(18) 0.49814(15)
O1B_2 O 1.56144(25) 1.19296(18) 0.49814(15)
O1B_3 O 0.56144(25) 0.19296(18) 0.49814(15)
O1_3 O 1.80704(18) 0.36848(18) 0.49814(15)
O1A_3 O 1.63152(18) 0.43856(25) 0.49814(15)
O2B O 1.3931(3) 0.1577(2) 0.55232(19)
O2A O 0.7646(2) -0.3931(3) 0.55232(19)
O2A_2 O 0.7646(2) 0.6069(3) 0.55232(19)
O2_2 O 0.8423(2) 1.2354(2) 0.55232(19)
O2B_2 O 1.3931(3) 1.1577(2) 0.55232(19)
O3B O 1.3125(3) 0.1793(2) 0.3559(2)
O3A O 0.8668(2) -0.3125(3) 0.3559(2)
O3A_2 O 0.8668(2) 0.6875(3) 0.3559(2)
O3_2 O 0.8207(2) 1.1332(2) 0.3559(2)
O3B_2 O 1.3125(3) 1.1793(2) 0.3559(2)
O4A O 0.6910(2) 0.2221(3) 0.66611(19)
O4B O 0.7779(3) 0.4689(2) 0.66611(19)
O4B_2 O 1.7779(3) 0.4689(2) 0.66611(19)
O4_2 O 1.5311(2) 0.3090(2) 0.66611(19)
O4A_2 O 1.6910(2) 0.2221(3) 0.66611(19)
H4A H 0.7565 0.2287 0.6565
H4B H 0.7713 0.5278 0.6565
H4B_2 H 1.7713 0.5278 0.6565
H4_2 H 1.4722 0.2435 0.6565
H4A_2 H 1.7565 0.2287 0.6565
H5A H 0.6386 0.1530 0.6563
H5B H 0.8470 0.4856 0.6563
H5B_2 H 1.8470 0.4856 0.6563
H5_2 H 1.5144 0.3614 0.6563
H5A_2 H 1.6386 0.1530 0.6563
O6? O 0.4702(15) 0.4285(15) 0.7836(8)
H8? H 0.4043 0.3831 0.8057
H9? H 0.4680 0.4825 0.7554
loop_
_geom_bond_atom_site_label_1
_geom_bond_atom_site_label_2
_geom_bond_site_symmetry_1
_geom_bond_site_symmetry_2
Ni1 O1 1_555 1_555
Ni2 O5 1_555 1_555
C1 H1 1_555 1_555
C2 C1 1_555 1_555
C3 C2 1_555 1_555
C4 H2 1_555 1_555
H3 C4 1_555 1_555
C5 C4 1_555 1_555
N1 C3 1_555 1_555
O1 C5 1_555 1_555
O2 C5 1_555 1_555
O3 C3 1_555 1_555
O4 Ni1 1_555 1_555
H4 O4 1_555 1_555
H5 O4 1_555 1_555
O5 H6 1_555 1_555
H7 O5 1_555 1_555
Ni1B O1B 1_555 1_555
Ni1_2 O1A 1_555 1_555
Ni1_3 O1_2 1_555 1_555
Ni1_4 O1B_2 1_555 1_555
C1A C2 1_555 1_555
C1B H1B 1_555 1_555
C1A_2 H1A_2 1_555 1_555
C1B_2 H1B_2 1_555 1_555
C1_2 H1_2 1_555 1_555
H1A C1A 1_555 1_555
C2A C1A 1_555 1_555
C2B C1 1_555 1_555
C2A_2 C1A_2 1_555 1_555
C2B_2 C1B_2 1_555 1_555
C2_2 C1A_2 1_555 1_555
C3B C2B 1_555 1_555
C3A C2A 1_555 1_555
C3A_2 C2A_2 1_555 1_555
C3_2 C2_2 1_555 1_555
C3B_2 C2B_2 1_555 1_555
C4B H2B 1_555 1_555
C4A H2A 1_555 1_555
C4A_2 H2A_2 1_555 1_555
C4_2 H2_2 1_555 1_555
C4B_2 H2B_2 1_555 1_555
H3B C4B 1_555 1_555
H3A C4A 1_555 1_555
H3A_2 C4A_2 1_555 1_555
H3_2 C4_2 1_555 1_555
H3B_2 C4B_2 1_555 1_555
C5B C4B 1_555 1_555
C5A C4A 1_555 1_555
C5A_2 C4A_2 1_555 1_555
C5_2 C4_2 1_555 1_555
C5B_2 C4B_2 1_555 1_555
N1B C3B 1_555 1_555
N1A C3A 1_555 1_555
N1A_2 C3A_2 1_555 1_555
N1_2 C3_2 1_555 1_555
N1B_2 C3B_2 1_555 1_555
O1B C5B 1_555 1_555
O1A C5A 1_555 1_555
O1A_2 Ni1 1_555 1_555
O1_2 C5_2 1_555 1_555
O1B_2 C5B_2 1_555 1_555
O1B_3 Ni1 1_555 1_555
O1_3 Ni1B 1_555 1_555
O1A_3 Ni1B 1_555 1_555
O2B C5B 1_555 1_555
O2A C5A 1_555 1_555
O2A_2 C5A_2 1_555 1_555
O2_2 C5_2 1_555 1_555
O2B_2 C5B_2 1_555 1_555
O3B C3B 1_555 1_555
O3A C3A 1_555 1_555
O3A_2 C3A_2 1_555 1_555
O3_2 C3_2 1_555 1_555
O3B_2 C3B_2 1_555 1_555
O4A Ni1 1_555 1_555
O4B Ni1 1_555 1_555
O4B_2 Ni1B 1_555 1_555
O4_2 Ni1B 1_555 1_555
O4A_2 Ni1B 1_555 1_555
H4A O4A 1_555 1_555
H4B O4B 1_555 1_555
H4B_2 O4B_2 1_555 1_555
H4_2 O4_2 1_555 1_555
H4A_2 O4A_2 1_555 1_555
H5A O4A 1_555 1_555
H5B O4B 1_555 1_555
H5B_2 O4B_2 1_555 1_555
H5_2 O4_2 1_555 1_555
H5A_2 O4A_2 1_555 1_555
O5A Ni2 1_555 1_555
O5B Ni2 1_555 1_555
O5C Ni2 1_555 1_555
O5D Ni2 1_555 1_555
O5E Ni2 1_555 1_555
H6A O5A 1_555 1_555
H6B O5B 1_555 1_555
H6C O5C 1_555 1_555
H6D O5D 1_555 1_555
H6E O5E 1_555 1_555
H7A O5A 1_555 1_555
H7B O5B 1_555 1_555
H7C O5C 1_555 1_555
H7D O5D 1_555 1_555
H7E O5E 1_555 1_555
C4 N1 1_555 1_555
C1B C2A 1_555 1_555
C1B C2B 1_555 1_555
C1B_2 C2A_2 1_555 1_555
C1_2 C2B_2 1_555 1_555
C1_2 C2_2 1_555 1_555
C4B N1B 1_555 1_555
C4A N1A 1_555 1_555
C4A_2 N1A_2 1_555 1_555
C4_2 N1_2 1_555 1_555
C4B_2 N1B_2 1_555 1_555
C5A_2 O1A_2 1_555 1_555

#END
