
#######################################################################
#
#                 Cambridge Crystallographic Data Centre
#                                CCDC 
#
#######################################################################
#
# If this CIF has been generated from an entry in the Cambridge 
# Structural Database, then it will include bibliographic, chemical, 
# crystal, experimental, refinement or atomic coordinate data resulting 
# from the CCDC's data processing and validation procedures.
#
#######################################################################

data_SIDJUM
_symmetry_cell_setting           monoclinic
_symmetry_space_group_name_H-M   'P 21/m'
_symmetry_Int_Tables_number      11
_space_group_name_Hall           '-P 2yb'
loop_
_symmetry_equiv_pos_site_id
_symmetry_equiv_pos_as_xyz
1 x,y,z
2 -x,1/2+y,-z
3 -x,-y,-z
4 x,1/2-y,z
_cell_length_a                   7.2970(6)
_cell_length_b                   15.7569(16)
_cell_length_c                   10.1351(11)
_cell_angle_alpha                90
_cell_angle_beta                 98.9210(10)
_cell_angle_gamma                90
_cell_volume                     1151.22
loop_
_atom_site_label
_atom_site_type_symbol
_atom_site_fract_x
_atom_site_fract_y
_atom_site_fract_z
Pb1 Pb 0.84126(3) 0.2500 0.49387(2)
N1 N 0.6648(5) -0.0846(3) 0.7130(5)
H1 H 0.6474 -0.1385 0.7081
N2 N 0.7834(5) 0.0860(3) 0.4973(4)
O1 O 0.5800(6) 0.2500 0.6065(4)
O2 O 0.8375(6) 0.2500 0.7507(5)
O3 O 0.5798(6) 0.2500 1.3129(4)
O4 O 0.8367(6) 0.2500 1.2252(4)
C1 C 0.6653(9) 0.2500 0.7235(6)
C2 C 0.6649(9) 0.2500 1.2130(6)
C3 C 0.5559(8) 0.2500 0.8378(6)
C4 C 0.6472(8) 0.2500 0.9675(6)
H2 H 0.7762 0.2500 0.9821
C5 C 0.5550(8) 0.2500 1.0765(6)
C6 C 0.3621(8) 0.2500 1.0528(7)
H3 H 0.2965 0.2500 1.1245
C7 C 0.2676(9) 0.2500 0.9247(7)
H4 H 0.1386 0.2500 0.9103
C8 C 0.3632(9) 0.2500 0.8167(6)
H5 H 0.2983 0.2500 0.7301
C9 C 0.6479(6) -0.0423(3) 0.8358(5)
H6 H 0.5787 -0.0785 0.8879
H7 H 0.5774 0.0095 0.8157
C10 C 0.8316(6) -0.0206(3) 0.9188(5)
C11 C 0.8483(6) 0.0498(3) 1.0011(5)
H8 H 0.7454 0.0844 1.0025
C12 C 0.9874(7) -0.0704(3) 0.9190(5)
H9 H 0.9813 -0.1183 0.8648
C13 C 0.7445(6) 0.0439(3) 0.6035(5)
H10 H 0.7421 0.0739 0.6822
C14 C 0.7075(6) -0.0426(3) 0.6025(5)
C15 C 0.7140(6) -0.0856(3) 0.4837(6)
H11 H 0.6881 -0.1434 0.4776
C16 C 0.7584(7) -0.0428(4) 0.3761(6)
H12 H 0.7669 -0.0715 0.2971
C17 C 0.7906(7) 0.0435(4) 0.3858(5)
H13 H 0.8183 0.0726 0.3115
N1B N 1.3352(5) 0.0846(3) 1.2870(5)
H1B H 1.3526 0.1385 1.2919
N2B N 1.2166(5) -0.0860(3) 1.5027(4)
C9B C 1.3521(6) 0.0423(3) 1.1642(5)
H6B H 1.4213 0.0785 1.1121
H7B H 1.4226 -0.0095 1.1843
C10B C 1.1684(6) 0.0206(3) 1.0812(5)
C11B C 1.1517(6) -0.0498(3) 0.9989(5)
H8B H 1.2546 -0.0844 0.9975
C12B C 1.0126(7) 0.0704(3) 1.0810(5)
H9B H 1.0187 0.1183 1.1352
C13B C 1.2555(6) -0.0439(3) 1.3965(5)
H10B H 1.2579 -0.0739 1.3178
C14B C 1.2925(6) 0.0426(3) 1.3975(5)
C15B C 1.2860(6) 0.0856(3) 1.5163(6)
H11B H 1.3119 0.1434 1.5224
C16B C 1.2416(7) 0.0428(4) 1.6239(6)
H12B H 1.2331 0.0715 1.7029
C17B C 1.2094(7) -0.0435(4) 1.6142(5)
H13B H 1.1817 -0.0726 1.6885
Pb1_2 Pb 0.84126(3) 0.2500 1.49387(2)
Pb1A Pb 1.15874(3) -0.2500 1.50613(2)
N2C N 0.7834(5) 0.4140(3) 0.4973(4)
O3_2 O 0.5798(6) 0.2500 0.3129(4)
O4_2 O 0.8367(6) 0.2500 0.2252(4)
loop_
_geom_bond_atom_site_label_1
_geom_bond_atom_site_label_2
_geom_bond_site_symmetry_1
_geom_bond_site_symmetry_2
Pb1 N2 1_555 1_555
N1 H1 1_555 1_555
N2 C13 1_555 1_555
O1 Pb1 1_555 1_555
O2 Pb1 1_555 1_555
O3 C2 1_555 1_555
O4 C2 1_555 1_555
C1 O1 1_555 1_555
C2 C5 1_555 1_555
C3 C1 1_555 1_555
C4 C3 1_555 1_555
H2 C4 1_555 1_555
C5 C4 1_555 1_555
C6 C5 1_555 1_555
H3 C6 1_555 1_555
C7 C6 1_555 1_555
H4 C7 1_555 1_555
C8 C3 1_555 1_555
H5 C8 1_555 1_555
C9 N1 1_555 1_555
H6 C9 1_555 1_555
H7 C9 1_555 1_555
C10 C9 1_555 1_555
C11 C10 1_555 1_555
H8 C11 1_555 1_555
C12 C10 1_555 1_555
H9 C12 1_555 1_555
C13 H10 1_555 1_555
C14 N1 1_555 1_555
C15 C14 1_555 1_555
H11 C15 1_555 1_555
C16 C15 1_555 1_555
H12 C16 1_555 1_555
C17 N2 1_555 1_555
H13 C17 1_555 1_555
N1B H1B 1_555 1_555
N2B C13B 1_555 1_555
C9B N1B 1_555 1_555
H6B C9B 1_555 1_555
H7B C9B 1_555 1_555
C10B C9B 1_555 1_555
C11B C12 1_555 1_555
H8B C11B 1_555 1_555
C12B C11 1_555 1_555
H9B C12B 1_555 1_555
C13B H10B 1_555 1_555
C14B N1B 1_555 1_555
C15B C14B 1_555 1_555
H11B C15B 1_555 1_555
C16B C15B 1_555 1_555
H12B C16B 1_555 1_555
C17B N2B 1_555 1_555
H13B C17B 1_555 1_555
Pb1_2 O3 1_555 1_555
Pb1A N2B 1_555 1_555
N2C Pb1 1_555 1_555
O3_2 Pb1 1_555 1_555
O4_2 Pb1 1_555 1_555
O2 C1 1_555 1_555
O4 Pb1_2 1_555 1_555
C7 C8 1_555 1_555
C13 C14 1_555 1_555
C16 C17 1_555 1_555
C10B C11B 1_555 1_555
C10B C12B 1_555 1_555
C13B C14B 1_555 1_555
C16B C17B 1_555 1_555

#END
