
#######################################################################
#
#                 Cambridge Crystallographic Data Centre
#                                CCDC 
#
#######################################################################
#
# If this CIF has been generated from an entry in the Cambridge 
# Structural Database, then it will include bibliographic, chemical, 
# crystal, experimental, refinement or atomic coordinate data resulting 
# from the CCDC's data processing and validation procedures.
#
#######################################################################

data_SIDJEV
_symmetry_cell_setting           monoclinic
_symmetry_space_group_name_H-M   'C 2/m'
_symmetry_Int_Tables_number      12
_space_group_name_Hall           '-C 2y'
loop_
_symmetry_equiv_pos_site_id
_symmetry_equiv_pos_as_xyz
1 x,y,z
2 1/2+x,1/2+y,z
3 -x,y,-z
4 1/2-x,1/2+y,-z
5 -x,-y,-z
6 1/2-x,1/2-y,-z
7 x,-y,z
8 1/2+x,1/2-y,z
_cell_length_a                   10.224(2)
_cell_length_b                   32.116(6)
_cell_length_c                   21.038(4)
_cell_angle_alpha                90
_cell_angle_beta                 97.93(3)
_cell_angle_gamma                90
_cell_volume                     6841.85
loop_
_atom_site_label
_atom_site_type_symbol
_atom_site_fract_x
_atom_site_fract_y
_atom_site_fract_z
O14 O 0.5000 0.2041(2) 0.0000
Cu1 Cu 0.93017(9) 0.0000 0.41212(5)
Cu2 Cu 0.44915(10) 0.0000 0.37414(5)
Cu3 Cu 0.99328(9) 0.0000 0.27969(5)
Cu4 Cu 0.43252(8) 0.0000 0.10767(5)
Cu5 Cu 0.33649(18) 0.5000 0.03088(6)
Gd1 Gd 0.5000 0.240424(8) 0.5000
Gd2 Gd 0.375366(17) 0.253331(6) 0.206002(10)
Cl1 Cl 1.14938(14) 0.0000 0.38827(9)
Cl2 Cl 0.5000 0.0000 0.5000
Cl3 Cl 0.76630(15) 0.0000 0.29920(9)
Cl4 Cl 0.19780(14) 0.0000 0.09067(9)
Cl5 Cl 0.5000 0.0000 0.0000
C1 C 0.7685(4) 0.06597(13) 0.4529(2)
H1 H 0.7152 0.0439 0.4619
C2 C 0.7247(4) 0.10597(13) 0.4606(2)
H2 H 0.6428 0.1105 0.4738
C3 C 0.8033(3) 0.13951(12) 0.44854(19)
C4 C 0.9236(4) 0.13089(13) 0.4279(2)
H3 H 0.9790 0.1525 0.4191
C5 C 0.9601(4) 0.09012(13) 0.4207(2)
H4 H 1.0408 0.0848 0.4066
C6 C 0.7614(4) 0.18322(12) 0.46074(18)
C7 C 0.5259(4) 0.08022(14) 0.3240(2)
H5 H 0.5805 0.0649 0.3009
C8 C 0.5295(4) 0.12280(13) 0.3204(2)
H6 H 0.5853 0.1357 0.2951
C9 C 0.4494(4) 0.14681(13) 0.35482(19)
C10 C 0.3674(4) 0.12516(13) 0.3907(2)
H7 H 0.3113 0.1397 0.4140
C11 C 0.3690(4) 0.08264(13) 0.3917(2)
H8 H 0.3128 0.0690 0.4160
C12 C 0.4520(4) 0.19331(13) 0.35345(19)
C13 C 1.1519(4) 0.06825(14) 0.2428(2)
H9 H 1.2103 0.0474 0.2343
C14 C 1.1917(4) 0.10913(13) 0.2406(2)
H10 H 1.2757 0.1156 0.2313
C15 C 1.1055(4) 0.14059(12) 0.25245(19)
C16 C 0.9813(4) 0.12935(13) 0.2656(2)
H11 H 0.9200 0.1496 0.2728
C17 C 0.9498(4) 0.08775(13) 0.2678(2)
H12 H 0.8668 0.0806 0.2776
C18 C 1.1436(4) 0.18541(12) 0.24859(19)
C19 C 0.4004(4) 0.08805(14) 0.1282(2)
H13 H 0.3120 0.0818 0.1150
C20 C 0.4357(4) 0.12917(13) 0.1372(2)
H14 H 0.3728 0.1502 0.1299
C21 C 0.5670(4) 0.13862(13) 0.15715(19)
C22 C 0.6563(4) 0.10653(13) 0.1663(2)
H15 H 0.7454 0.1120 0.1789
C23 C 0.6128(4) 0.06626(15) 0.1567(2)
H16 H 0.6741 0.0448 0.1637
C24 C 0.6107(4) 0.18261(12) 0.1713(2)
C25 C 0.4577(6) 0.42284(18) 0.0807(3)
H17 H 0.5253 0.4403 0.0988
C26 C 0.4742(5) 0.38075(16) 0.0888(2)
H18 H 0.5510 0.3702 0.1121
C27 C 0.3762(4) 0.35417(13) 0.0620(2)
C28 C 0.2648(5) 0.37148(15) 0.0284(2)
H19 H 0.1967 0.3545 0.0093
C29 C 0.2548(6) 0.41421(18) 0.0233(3)
H20 H 0.1778 0.4254 0.0013
C30 C 0.3878(4) 0.30734(14) 0.0716(2)
N1 N 0.8849(3) 0.05756(11) 0.43309(18)
N2 N 0.4468(3) 0.05948(11) 0.35948(18)
N3 N 1.0324(3) 0.05710(11) 0.25654(19)
N4 N 0.4864(3) 0.05651(11) 0.13764(18)
N5 N 0.3498(5) 0.44023(14) 0.0483(2)
O1 O 0.6480(3) 0.18864(9) 0.47460(15)
O2 O 0.8430(2) 0.21203(8) 0.45625(14)
O3 O 0.5053(3) 0.21155(9) 0.31149(16)
O4 O 0.3968(3) 0.21239(8) 0.39624(13)
O5 O 1.2561(3) 0.19376(9) 0.23504(15)
O6 O 1.0597(3) 0.21228(9) 0.25970(15)
O7 O 0.5227(3) 0.21006(9) 0.16907(16)
O8 O 0.7310(3) 0.18890(10) 0.18577(16)
O9 O 0.4536(3) 0.29426(10) 0.12311(15)
O10 O 0.3294(5) 0.28522(12) 0.0290(2)
O11 O 0.3938(3) 0.27529(9) 0.59027(14)
O12 O 0.2934(3) 0.27768(10) 0.30633(14)
O13 O 0.2301(3) 0.22835(11) 0.11222(16)
C1F C 0.7685(4) -0.06597(13) 0.4529(2)
H1F H 0.7152 -0.0439 0.4619
C2F C 0.7247(4) -0.10597(13) 0.4606(2)
H2F H 0.6428 -0.1105 0.4738
C3F C 0.8033(3) -0.13951(12) 0.44854(19)
C4F C 0.9236(4) -0.13089(13) 0.4279(2)
H3F H 0.9790 -0.1525 0.4191
C5F C 0.9601(4) -0.09012(13) 0.4207(2)
H4F H 1.0408 -0.0848 0.4066
C6F C 0.7614(4) -0.18322(12) 0.46074(18)
N1F N 0.8849(3) -0.05756(11) 0.43309(18)
O1F O 0.6480(3) -0.18864(9) 0.47460(15)
O2F O 0.8430(2) -0.21203(8) 0.45625(14)
Gd1F Gd 0.5000 -0.240424(8) 0.5000
C13F C 1.1519(4) -0.06825(14) 0.2428(2)
H9F H 1.2103 -0.0474 0.2343
C14F C 1.1917(4) -0.10913(13) 0.2406(2)
H10F H 1.2757 -0.1156 0.2313
C15F C 1.1055(4) -0.14059(12) 0.25245(19)
C16F C 0.9813(4) -0.12935(13) 0.2656(2)
H11F H 0.9200 -0.1496 0.2728
C17F C 0.9498(4) -0.08775(13) 0.2678(2)
H12F H 0.8668 -0.0806 0.2776
C18F C 1.1436(4) -0.18541(12) 0.24859(19)
N3F N 1.0324(3) -0.05710(11) 0.25654(19)
O5F O 1.2561(3) -0.19376(9) 0.23504(15)
O6F O 1.0597(3) -0.21228(9) 0.25970(15)
C1G C 0.2685(4) 0.43403(13) 0.4529(2)
H1G H 0.2152 0.4561 0.4619
C2G C 0.2247(4) 0.39403(13) 0.4606(2)
H2G H 0.1428 0.3895 0.4738
C3G C 0.3033(3) 0.36049(12) 0.44854(19)
C4G C 0.4236(4) 0.36911(13) 0.4279(2)
H3G H 0.4790 0.3475 0.4191
C5G C 0.4601(4) 0.40988(13) 0.4207(2)
H4G H 0.5408 0.4152 0.4066
C6G C 0.2614(4) 0.31678(12) 0.46074(18)
N1G N 0.3849(3) 0.44244(11) 0.43309(18)
O1G O 0.1480(3) 0.31136(9) 0.47460(15)
O2G O 0.3430(2) 0.28797(8) 0.45625(14)
C1B C 0.2315(4) 0.06597(13) 0.5471(2)
H1B H 0.2848 0.0439 0.5381
C2B C 0.2753(4) 0.10597(13) 0.5394(2)
H2B H 0.3572 0.1105 0.5262
C3B C 0.1967(3) 0.13951(12) 0.55146(19)
C4B C 0.0764(4) 0.13089(13) 0.5721(2)
H3B H 0.0210 0.1525 0.5809
C5B C 0.0399(4) 0.09012(13) 0.5793(2)
H4B H -0.0408 0.0848 0.5934
C6B C 0.2386(4) 0.18322(12) 0.53926(18)
N1B N 0.1151(3) 0.05756(11) 0.56691(18)
O1B O 0.3520(3) 0.18864(9) 0.52540(15)
O2B O 0.1570(2) 0.21203(8) 0.54375(14)
C7B C 0.4741(4) 0.08022(14) 0.6760(2)
H5B H 0.4195 0.0649 0.6991
C8B C 0.4705(4) 0.12280(13) 0.6796(2)
H6B H 0.4147 0.1357 0.7049
C9B C 0.5506(4) 0.14681(13) 0.64518(19)
C10B C 0.6326(4) 0.12516(13) 0.6093(2)
H7B H 0.6887 0.1397 0.5860
C11B C 0.6310(4) 0.08264(13) 0.6083(2)
H8B H 0.6872 0.0690 0.5840
C12B C 0.5480(4) 0.19331(13) 0.64655(19)
N2B N 0.5532(3) 0.05948(11) 0.64052(18)
O3B O 0.4947(3) 0.21155(9) 0.68851(16)
O4B O 0.6032(3) 0.21239(8) 0.60376(13)
O11B O 0.6062(3) 0.27529(9) 0.40973(14)
C7F C 0.5259(4) -0.08022(14) 0.3240(2)
H5F H 0.5805 -0.0649 0.3009
C8F C 0.5295(4) -0.12280(13) 0.3204(2)
H6F H 0.5853 -0.1357 0.2951
C9F C 0.4494(4) -0.14681(13) 0.35482(19)
C10F C 0.3674(4) -0.12516(13) 0.3907(2)
H7F H 0.3113 -0.1397 0.4140
C11F C 0.3690(4) -0.08264(13) 0.3917(2)
H8F H 0.3128 -0.0690 0.4160
C12F C 0.4520(4) -0.19331(13) 0.35345(19)
N2F N 0.4468(3) -0.05948(11) 0.35948(18)
O3F O 0.5053(3) -0.21155(9) 0.31149(16)
O4F O 0.3968(3) -0.21239(8) 0.39624(13)
O11F O 0.3938(3) -0.27529(9) 0.59027(14)
C7D C 0.4741(4) -0.08022(14) 0.6760(2)
H5D H 0.4195 -0.0649 0.6991
C8D C 0.4705(4) -0.12280(13) 0.6796(2)
H6D H 0.4147 -0.1357 0.7049
C9D C 0.5506(4) -0.14681(13) 0.64518(19)
C10D C 0.6326(4) -0.12516(13) 0.6093(2)
H7D H 0.6887 -0.1397 0.5860
C11D C 0.6310(4) -0.08264(13) 0.6083(2)
H8D H 0.6872 -0.0690 0.5840
C12D C 0.5480(4) -0.19331(13) 0.64655(19)
N2D N 0.5532(3) -0.05948(11) 0.64052(18)
O3D O 0.4947(3) -0.21155(9) 0.68851(16)
O4D O 0.6032(3) -0.21239(8) 0.60376(13)
O11D O 0.6062(3) -0.27529(9) 0.40973(14)
Cu1G Cu 0.43017(9) 0.5000 0.41212(5)
Cu2B Cu 0.55085(10) 0.0000 0.62586(5)
Gd2B Gd 0.624634(17) 0.253331(6) 0.793998(10)
Gd2F Gd 0.375366(17) -0.253331(6) 0.206002(10)
Gd2D Gd 0.624634(17) -0.253331(6) 0.793998(10)
C13_2 C 0.1519(4) 0.06825(14) 0.2428(2)
H9_2 H 0.2103 0.0474 0.2343
C14_2 C 0.1917(4) 0.10913(13) 0.2406(2)
H10_2 H 0.2757 0.1156 0.2313
C15_2 C 0.1055(4) 0.14059(12) 0.25245(19)
C16_2 C -0.0187(4) 0.12935(13) 0.2656(2)
H11_2 H -0.0800 0.1496 0.2728
C17_2 C -0.0502(4) 0.08775(13) 0.2678(2)
H12_2 H -0.1332 0.0806 0.2776
C18_2 C 0.1436(4) 0.18541(12) 0.24859(19)
N3_2 N 0.0324(3) 0.05710(11) 0.25654(19)
O5_2 O 0.2561(3) 0.19376(9) 0.23504(15)
O6_2 O 0.0597(3) 0.21228(9) 0.25970(15)
C13G C 0.6519(4) 0.43175(14) 0.2428(2)
H9G H 0.7103 0.4526 0.2343
C14G C 0.6917(4) 0.39087(13) 0.2406(2)
H10G H 0.7757 0.3844 0.2313
C15G C 0.6055(4) 0.35941(12) 0.25245(19)
C16G C 0.4813(4) 0.37065(13) 0.2656(2)
H11G H 0.4200 0.3504 0.2728
C17G C 0.4498(4) 0.41225(13) 0.2678(2)
H12G H 0.3668 0.4194 0.2776
C18G C 0.6436(4) 0.31459(12) 0.24859(19)
N3G N 0.5324(3) 0.44290(11) 0.25654(19)
O5G O 0.7561(3) 0.30624(9) 0.23504(15)
O6G O 0.5597(3) 0.28772(9) 0.25970(15)
C19G C -0.0996(4) 0.41195(14) 0.1282(2)
H13G H -0.1880 0.4182 0.1150
C20G C -0.0643(4) 0.37083(13) 0.1372(2)
H14G H -0.1272 0.3498 0.1299
C21G C 0.0670(4) 0.36138(13) 0.15715(19)
C22G C 0.1563(4) 0.39347(13) 0.1663(2)
H15G H 0.2454 0.3880 0.1789
C23G C 0.1128(4) 0.43374(15) 0.1567(2)
H16G H 0.1741 0.4552 0.1637
C24G C 0.1107(4) 0.31739(12) 0.1713(2)
N4G N -0.0136(3) 0.44349(11) 0.13764(18)
O7G O 0.0227(3) 0.28994(9) 0.16907(16)
O8G O 0.2310(3) 0.31110(10) 0.18577(16)
Cl1G Cl 0.64938(14) 0.5000 0.38827(9)
Cl3G Cl 0.26630(15) 0.5000 0.29920(9)
C19B C 0.5996(4) 0.08805(14) 0.8718(2)
H13B H 0.6880 0.0818 0.8850
C20B C 0.5643(4) 0.12917(13) 0.8628(2)
H14B H 0.6272 0.1502 0.8701
C21B C 0.4330(4) 0.13862(13) 0.84285(19)
C22B C 0.3437(4) 0.10653(13) 0.8337(2)
H15B H 0.2546 0.1120 0.8211
C23B C 0.3872(4) 0.06626(15) 0.8433(2)
H16B H 0.3259 0.0448 0.8363
C24B C 0.3893(4) 0.18261(12) 0.8287(2)
N4B N 0.5136(3) 0.05651(11) 0.86236(18)
O7B O 0.4773(3) 0.21006(9) 0.83093(16)
O8B O 0.2690(3) 0.18890(10) 0.81423(16)
C25B C 0.5423(6) 0.42284(18) 0.9193(3)
H17B H 0.4747 0.4403 0.9012
C26B C 0.5258(5) 0.38075(16) 0.9112(2)
H18B H 0.4490 0.3702 0.8879
C27B C 0.6238(4) 0.35417(13) 0.9380(2)
C28B C 0.7352(5) 0.37148(15) 0.9716(2)
H19B H 0.8033 0.3545 0.9907
C29B C 0.7452(6) 0.41421(18) 0.9767(3)
H20B H 0.8222 0.4254 0.9987
C30B C 0.6122(4) 0.30734(14) 0.9284(2)
N5B N 0.6502(5) 0.44023(14) 0.9517(2)
O9B O 0.5464(3) 0.29426(10) 0.87689(15)
O10B O 0.6706(5) 0.28522(12) 0.9710(2)
O12B O 0.7066(3) 0.27768(10) 0.69367(14)
O13B O 0.7699(3) 0.22835(11) 0.88778(16)
C19E C 1.0996(4) 0.41195(14) 0.8718(2)
H13E H 1.1880 0.4182 0.8850
C20E C 1.0643(4) 0.37083(13) 0.8628(2)
H14E H 1.1272 0.3498 0.8701
C21E C 0.9330(4) 0.36138(13) 0.84285(19)
C22E C 0.8437(4) 0.39347(13) 0.8337(2)
H15E H 0.7546 0.3880 0.8211
C23E C 0.8872(4) 0.43374(15) 0.8433(2)
H16E H 0.8259 0.4552 0.8363
C24E C 0.8893(4) 0.31739(12) 0.8287(2)
N4E N 1.0136(3) 0.44349(11) 0.86236(18)
O7E O 0.9773(3) 0.28994(9) 0.83093(16)
O8E O 0.7690(3) 0.31110(10) 0.81423(16)
C25F C 0.4577(6) -0.42284(18) 0.0807(3)
H17F H 0.5253 -0.4403 0.0988
C26F C 0.4742(5) -0.38075(16) 0.0888(2)
H18F H 0.5510 -0.3702 0.1121
C27F C 0.3762(4) -0.35417(13) 0.0620(2)
C28F C 0.2648(5) -0.37148(15) 0.0284(2)
H19F H 0.1967 -0.3545 0.0093
C29F C 0.2548(6) -0.41421(18) 0.0233(3)
H20F H 0.1778 -0.4254 0.0013
C30F C 0.3878(4) -0.30734(14) 0.0716(2)
N5F N 0.3498(5) -0.44023(14) 0.0483(2)
O9F O 0.4536(3) -0.29426(10) 0.12311(15)
O10F O 0.3294(5) -0.28522(12) 0.0290(2)
O12F O 0.2934(3) -0.27768(10) 0.30633(14)
O13F O 0.2301(3) -0.22835(11) 0.11222(16)
C25D C 0.5423(6) -0.42284(18) 0.9193(3)
H17D H 0.4747 -0.4403 0.9012
C26D C 0.5258(5) -0.38075(16) 0.9112(2)
H18D H 0.4490 -0.3702 0.8879
C27D C 0.6238(4) -0.35417(13) 0.9380(2)
C28D C 0.7352(5) -0.37148(15) 0.9716(2)
H19D H 0.8033 -0.3545 0.9907
C29D C 0.7452(6) -0.41421(18) 0.9767(3)
H20D H 0.8222 -0.4254 0.9987
C30D C 0.6122(4) -0.30734(14) 0.9284(2)
N5D N 0.6502(5) -0.44023(14) 0.9517(2)
O9D O 0.5464(3) -0.29426(10) 0.87689(15)
O10D O 0.6706(5) -0.28522(12) 0.9710(2)
O12D O 0.7066(3) -0.27768(10) 0.69367(14)
O13D O 0.7699(3) -0.22835(11) 0.88778(16)
Cu3G Cu 0.49328(9) 0.5000 0.27969(5)
Cu4G Cu -0.06748(8) 0.5000 0.10767(5)
Cu5B Cu 0.66351(18) 0.5000 0.96912(6)
Cl4E Cl 0.30220(14) 0.5000 -0.09067(9)
N4F N 0.4864(3) -0.05651(11) 0.13764(18)
N5F_2 N 0.3498(5) 0.55977(14) 0.0483(2)
O2E O 0.6570(2) 0.28797(8) 0.54375(14)
Cu5E Cu 0.16351(18) 0.0000 -0.03088(6)
Cu4D Cu 0.56748(8) 0.0000 -0.10767(5)
Gd1G Gd 1.0000 0.259576(8) 0.5000
Gd2_2 Gd 1.375366(17) 0.253331(6) 0.206002(10)
Gd2G Gd 0.875366(17) 0.246669(6) 0.206002(10)
Gd1A Gd 1.0000 -0.259576(8) 0.5000
O2A O 0.3430(2) -0.28797(8) 0.45625(14)
O1D O 0.3520(3) -0.18864(9) 0.52540(15)
O2C O 0.6570(2) -0.28797(8) 0.54375(14)
Gd2F_2 Gd 1.375366(17) -0.253331(6) 0.206002(10)
Gd2A Gd 0.875366(17) -0.246669(6) 0.206002(10)
Gd1G_2 Gd 0.0000 0.259576(8) 0.5000
Cu1B Cu 0.06983(9) 0.0000 0.58788(5)
N1A N 0.3849(3) 0.55756(11) 0.43309(18)
O5B O 0.7439(3) 0.19376(9) 0.76496(15)
O6E O 0.4403(3) 0.28772(9) 0.74030(15)
O7F O 0.5227(3) -0.21006(9) 0.16907(16)
O5F_2 O 0.2561(3) -0.19376(9) 0.23504(15)
O6A O 0.5597(3) -0.28772(9) 0.25970(15)
O8A O 0.2310(3) -0.31110(10) 0.18577(16)
O7D O 0.4773(3) -0.21006(9) 0.83093(16)
O5D O 0.7439(3) -0.19376(9) 0.76496(15)
O6C O 0.4403(3) -0.28772(9) 0.74030(15)
O8C O 0.7690(3) -0.31110(10) 0.81423(16)
Cu3_2 Cu -0.00672(9) 0.0000 0.27969(5)
Gd2G_2 Gd -0.124634(17) 0.246669(6) 0.206002(10)
Cu4B Cu 0.56748(8) 0.0000 0.89233(5)
Gd2E Gd 0.124634(17) 0.246669(6) 0.793998(10)
Cu4E Cu 1.06748(8) 0.5000 0.89233(5)
Gd2E_2 Gd 1.124634(17) 0.246669(6) 0.793998(10)
Cu5F Cu 0.33649(18) -0.5000 0.03088(6)
Cu5D Cu 0.66351(18) -0.5000 0.96912(6)
N3A N 0.5324(3) 0.55710(11) 0.25654(19)
Cl4G Cl -0.30220(14) 0.5000 0.09067(9)
Cl5G Cl 0.0000 0.5000 0.0000
N4A N -0.0136(3) 0.55651(11) 0.13764(18)
Cl4G_2 Cl 0.69780(14) 0.5000 1.09067(9)
N5D_2 N 0.6502(5) 0.55977(14) 0.9517(2)
Cu4E_2 Cu 0.06748(8) 0.5000 -0.10767(5)
loop_
_geom_bond_atom_site_label_1
_geom_bond_atom_site_label_2
_geom_bond_site_symmetry_1
_geom_bond_site_symmetry_2
Cu1 Cl1 1_555 1_555
Cu2 Cl2 1_555 1_555
Cu3 Cl1 1_555 1_555
Cu4 Cl4 1_555 1_555
Cu5 N5 1_555 1_555
Gd1 O1 1_555 1_555
Gd2 O3 1_555 1_555
Cl2 Cu2B 1_555 1_555
Cl3 Cu1 1_555 1_555
Cl4 Cu5E 1_555 1_555
Cl5 Cu4 1_555 1_555
C1 H1 1_555 1_555
C2 C1 1_555 1_555
H2 C2 1_555 1_555
C3 C2 1_555 1_555
C4 C3 1_555 1_555
H3 C4 1_555 1_555
C5 C4 1_555 1_555
H4 C5 1_555 1_555
C6 C3 1_555 1_555
C7 H5 1_555 1_555
C8 C7 1_555 1_555
H6 C8 1_555 1_555
C9 C8 1_555 1_555
C10 C9 1_555 1_555
H7 C10 1_555 1_555
C11 C10 1_555 1_555
H8 C11 1_555 1_555
C12 C9 1_555 1_555
C13 H9 1_555 1_555
C14 C13 1_555 1_555
H10 C14 1_555 1_555
C15 C14 1_555 1_555
C16 C15 1_555 1_555
H11 C16 1_555 1_555
C17 C16 1_555 1_555
H12 C17 1_555 1_555
C18 C15 1_555 1_555
C19 H13 1_555 1_555
C20 C19 1_555 1_555
H14 C20 1_555 1_555
C21 C20 1_555 1_555
C22 C21 1_555 1_555
H15 C22 1_555 1_555
C23 C22 1_555 1_555
H16 C23 1_555 1_555
C24 C21 1_555 1_555
C25 H17 1_555 1_555
C26 C25 1_555 1_555
H18 C26 1_555 1_555
C27 C26 1_555 1_555
C28 C27 1_555 1_555
H19 C28 1_555 1_555
C29 C28 1_555 1_555
H20 C29 1_555 1_555
C30 C27 1_555 1_555
N1 Cu1 1_555 1_555
N2 Cu2 1_555 1_555
N3 Cu3 1_555 1_555
N4 Cu4 1_555 1_555
N5 C25 1_555 1_555
O1 C6 1_555 1_555
O2 C6 1_555 1_555
O3 C12 1_555 1_555
O4 Gd1 1_555 1_555
O5 C18 1_555 1_555
O6 C18 1_555 1_555
O7 Gd2 1_555 1_555
O8 C24 1_555 1_555
O9 Gd2 1_555 1_555
O10 C30 1_555 1_555
O11 Gd1 1_555 1_555
O12 Gd2 1_555 1_555
O13 Gd2 1_555 1_555
C1F H1F 1_555 1_555
C2F C1F 1_555 1_555
H2F C2F 1_555 1_555
C3F C2F 1_555 1_555
C4F C3F 1_555 1_555
H3F C4F 1_555 1_555
C5F C4F 1_555 1_555
H4F C5F 1_555 1_555
C6F C3F 1_555 1_555
N1F Cu1 1_555 1_555
O1F C6F 1_555 1_555
O2F C6F 1_555 1_555
Gd1F O1F 1_555 1_555
C13F H9F 1_555 1_555
C14F C13F 1_555 1_555
H10F C14F 1_555 1_555
C15F C14F 1_555 1_555
C16F C15F 1_555 1_555
H11F C16F 1_555 1_555
C17F C16F 1_555 1_555
H12F C17F 1_555 1_555
C18F C15F 1_555 1_555
N3F Cu3 1_555 1_555
O5F C18F 1_555 1_555
O6F C18F 1_555 1_555
C1G H1G 1_555 1_555
C2G C1G 1_555 1_555
H2G C2G 1_555 1_555
C3G C2G 1_555 1_555
C4G C3G 1_555 1_555
H3G C4G 1_555 1_555
C5G C4G 1_555 1_555
H4G C5G 1_555 1_555
C6G C3G 1_555 1_555
N1G C1G 1_555 1_555
O1G C6G 1_555 1_555
O2G Gd1 1_555 1_555
C1B H1B 1_555 1_555
C2B C1B 1_555 1_555
H2B C2B 1_555 1_555
C3B C2B 1_555 1_555
C4B C3B 1_555 1_555
H3B C4B 1_555 1_555
C5B C4B 1_555 1_555
H4B C5B 1_555 1_555
C6B C3B 1_555 1_555
N1B C1B 1_555 1_555
O1B Gd1 1_555 1_555
O2B C6B 1_555 1_555
C7B H5B 1_555 1_555
C8B C7B 1_555 1_555
H6B C8B 1_555 1_555
C9B C8B 1_555 1_555
C10B C9B 1_555 1_555
H7B C10B 1_555 1_555
C11B C10B 1_555 1_555
H8B C11B 1_555 1_555
C12B C9B 1_555 1_555
N2B C7B 1_555 1_555
O3B C12B 1_555 1_555
O4B Gd1 1_555 1_555
O11B Gd1 1_555 1_555
C7F H5F 1_555 1_555
C8F C7F 1_555 1_555
H6F C8F 1_555 1_555
C9F C8F 1_555 1_555
C10F C9F 1_555 1_555
H7F C10F 1_555 1_555
C11F C10F 1_555 1_555
H8F C11F 1_555 1_555
C12F C9F 1_555 1_555
N2F Cu2 1_555 1_555
O3F C12F 1_555 1_555
O4F Gd1F 1_555 1_555
O11F Gd1F 1_555 1_555
C7D H5D 1_555 1_555
C8D C7D 1_555 1_555
H6D C8D 1_555 1_555
C9D C8D 1_555 1_555
C10D C9D 1_555 1_555
H7D C10D 1_555 1_555
C11D C10D 1_555 1_555
H8D C11D 1_555 1_555
C12D C9D 1_555 1_555
N2D C7D 1_555 1_555
O3D C12D 1_555 1_555
O4D Gd1F 1_555 1_555
O11D Gd1F 1_555 1_555
Cu1G N1G 1_555 1_555
Cu2B N2B 1_555 1_555
Gd2B O3B 1_555 1_555
Gd2F O3F 1_555 1_555
Gd2D O3D 1_555 1_555
C13_2 H9_2 1_555 1_555
C14_2 C13_2 1_555 1_555
H10_2 C14_2 1_555 1_555
C15_2 C14_2 1_555 1_555
C16_2 C15_2 1_555 1_555
H11_2 C16_2 1_555 1_555
C17_2 C16_2 1_555 1_555
H12_2 C17_2 1_555 1_555
C18_2 C15_2 1_555 1_555
N3_2 C13_2 1_555 1_555
O5_2 Gd2 1_555 1_555
O6_2 C18_2 1_555 1_555
C13G H9G 1_555 1_555
C14G C13G 1_555 1_555
H10G C14G 1_555 1_555
C15G C14G 1_555 1_555
C16G C15G 1_555 1_555
H11G C16G 1_555 1_555
C17G C16G 1_555 1_555
H12G C17G 1_555 1_555
C18G C15G 1_555 1_555
N3G C13G 1_555 1_555
O5G C18G 1_555 1_555
O6G Gd2 1_555 1_555
C19G H13G 1_555 1_555
C20G C19G 1_555 1_555
H14G C20G 1_555 1_555
C21G C20G 1_555 1_555
C22G C21G 1_555 1_555
H15G C22G 1_555 1_555
C23G C22G 1_555 1_555
H16G C23G 1_555 1_555
C24G C21G 1_555 1_555
N4G C19G 1_555 1_555
O7G C24G 1_555 1_555
O8G Gd2 1_555 1_555
Cl1G Cu1G 1_555 1_555
Cl3G Cu1G 1_555 1_555
C19B H13B 1_555 1_555
C20B C19B 1_555 1_555
H14B C20B 1_555 1_555
C21B C20B 1_555 1_555
C22B C21B 1_555 1_555
H15B C22B 1_555 1_555
C23B C22B 1_555 1_555
H16B C23B 1_555 1_555
C24B C21B 1_555 1_555
N4B C19B 1_555 1_555
O7B Gd2B 1_555 1_555
O8B C24B 1_555 1_555
C25B H17B 1_555 1_555
C26B C25B 1_555 1_555
H18B C26B 1_555 1_555
C27B C26B 1_555 1_555
C28B C27B 1_555 1_555
H19B C28B 1_555 1_555
C29B C28B 1_555 1_555
H20B C29B 1_555 1_555
C30B C27B 1_555 1_555
N5B C25B 1_555 1_555
O9B Gd2B 1_555 1_555
O10B C30B 1_555 1_555
O12B Gd2B 1_555 1_555
O13B Gd2B 1_555 1_555
C19E H13E 1_555 1_555
C20E C19E 1_555 1_555
H14E C20E 1_555 1_555
C21E C20E 1_555 1_555
C22E C21E 1_555 1_555
H15E C22E 1_555 1_555
C23E C22E 1_555 1_555
H16E C23E 1_555 1_555
C24E C21E 1_555 1_555
N4E C19E 1_555 1_555
O7E C24E 1_555 1_555
O8E Gd2B 1_555 1_555
C25F H17F 1_555 1_555
C26F C25F 1_555 1_555
H18F C26F 1_555 1_555
C27F C26F 1_555 1_555
C28F C27F 1_555 1_555
H19F C28F 1_555 1_555
C29F C28F 1_555 1_555
H20F C29F 1_555 1_555
C30F C27F 1_555 1_555
N5F C25F 1_555 1_555
O9F Gd2F 1_555 1_555
O10F C30F 1_555 1_555
O12F Gd2F 1_555 1_555
O13F Gd2F 1_555 1_555
C25D H17D 1_555 1_555
C26D C25D 1_555 1_555
H18D C26D 1_555 1_555
C27D C26D 1_555 1_555
C28D C27D 1_555 1_555
H19D C28D 1_555 1_555
C29D C28D 1_555 1_555
H20D C29D 1_555 1_555
C30D C27D 1_555 1_555
N5D C25D 1_555 1_555
O9D Gd2D 1_555 1_555
O10D C30D 1_555 1_555
O12D Gd2D 1_555 1_555
O13D Gd2D 1_555 1_555
Cu3G N3G 1_555 1_555
Cu4G N4G 1_555 1_555
Cu5B N5B 1_555 1_555
Cl4E Cu5 1_555 1_555
N4F Cu4 1_555 1_555
N5F_2 Cu5 1_555 1_555
O2E Gd1 1_555 1_555
Cu4D Cl5 1_555 1_555
Gd1G O2 1_555 1_555
Gd2_2 O5 1_555 1_555
Gd2G O6 1_555 1_555
Gd1A O2F 1_555 1_555
O2A Gd1F 1_555 1_555
O1D Gd1F 1_555 1_555
O2C Gd1F 1_555 1_555
Gd2F_2 O5F 1_555 1_555
Gd2A O6F 1_555 1_555
Gd1G_2 O1G 1_555 1_555
Cu1B N1B 1_555 1_555
N1A Cu1G 1_555 1_555
O5B Gd2B 1_555 1_555
O6E Gd2B 1_555 1_555
O7F Gd2F 1_555 1_555
O5F_2 Gd2F 1_555 1_555
O6A Gd2F 1_555 1_555
O8A Gd2F 1_555 1_555
O7D Gd2D 1_555 1_555
O5D Gd2D 1_555 1_555
O6C Gd2D 1_555 1_555
O8C Gd2D 1_555 1_555
Cu3_2 N3_2 1_555 1_555
Gd2G_2 O6_2 1_555 1_555
Cu4B N4B 1_555 1_555
Gd2E O8B 1_555 1_555
Cu4E N4E 1_555 1_555
Gd2E_2 O7E 1_555 1_555
Cu5F N5F 1_555 1_555
Cu5D N5D 1_555 1_555
N3A Cu3G 1_555 1_555
Cl4G Cu4G 1_555 1_555
Cl5G Cu4G 1_555 1_555
N4A Cu4G 1_555 1_555
Cl4G_2 Cu5B 1_555 1_555
N5D_2 Cu5B 1_555 1_555
Cu4E_2 Cl4E 1_555 1_555
Cu3 Cl3 1_555 1_555
C1 N1 1_555 1_555
C5 N1 1_555 1_555
C7 N2 1_555 1_555
C11 N2 1_555 1_555
C12 O4 1_555 1_555
C13 N3 1_555 1_555
C17 N3 1_555 1_555
C19 N4 1_555 1_555
C23 N4 1_555 1_555
C24 O7 1_555 1_555
C29 N5 1_555 1_555
C30 O9 1_555 1_555
O8 Gd2G 1_555 1_555
C1F N1F 1_555 1_555
C5F N1F 1_555 1_555
C13F N3F 1_555 1_555
C17F N3F 1_555 1_555
C5G N1G 1_555 1_555
C6G O2G 1_555 1_555
C5B N1B 1_555 1_555
C6B O1B 1_555 1_555
O2B Gd1G_2 1_555 1_555
C11B N2B 1_555 1_555
C12B O4B 1_555 1_555
C7F N2F 1_555 1_555
C11F N2F 1_555 1_555
C12F O4F 1_555 1_555
C11D N2D 1_555 1_555
C12D O4D 1_555 1_555
N2D Cu2B 1_555 1_555
C17_2 N3_2 1_555 1_555
C18_2 O5_2 1_555 1_555
C17G N3G 1_555 1_555
C18G O6G 1_555 1_555
O5G Gd2G 1_555 1_555
C23G N4G 1_555 1_555
C24G O8G 1_555 1_555
O7G Gd2G_2 1_555 1_555
Cl1G Cu3G 1_555 1_555
Cl3G Cu3G 1_555 1_555
C23B N4B 1_555 1_555
C24B O7B 1_555 1_555
C29B N5B 1_555 1_555
C30B O9B 1_555 1_555
C23E N4E 1_555 1_555
C24E O8E 1_555 1_555
C29F N5F 1_555 1_555
C30F O9F 1_555 1_555
C29D N5D 1_555 1_555
C30D O9D 1_555 1_555
Cl5G Cu4E_2 1_555 1_555

#END
