
#######################################################################
#
#                 Cambridge Crystallographic Data Centre
#                                CCDC 
#
#######################################################################
#
# If this CIF has been generated from an entry in the Cambridge 
# Structural Database, then it will include bibliographic, chemical, 
# crystal, experimental, refinement or atomic coordinate data resulting 
# from the CCDC's data processing and validation procedures.
#
#######################################################################

data_SIDKAS
_symmetry_cell_setting           trigonal
_symmetry_space_group_name_H-M   'P -3 1 c'
_symmetry_Int_Tables_number      163
_space_group_name_Hall           "-P 3 2'c"
loop_
_symmetry_equiv_pos_site_id
_symmetry_equiv_pos_as_xyz
1 x,y,z
2 -y,x-y,z
3 -x+y,-x,z
4 x,x-y,1/2-z
5 -x+y,y,1/2-z
6 -y,-x,1/2-z
7 -x,-y,-z
8 y,-x+y,-z
9 x-y,x,-z
10 -x,-x+y,1/2+z
11 x-y,-y,1/2+z
12 y,x,1/2+z
_cell_length_a                   13.4793(12)
_cell_length_b                   13.4793(12)
_cell_length_c                   14.936(3)
_cell_angle_alpha                90
_cell_angle_beta                 90
_cell_angle_gamma                120
_cell_volume                     2350.17
loop_
_atom_site_label
_atom_site_type_symbol
_atom_site_fract_x
_atom_site_fract_y
_atom_site_fract_z
Co2 Co 0.6667 0.3333 0.2500
O5 O 0.6676(2) 0.2066(2) 0.33183(17)
H7 H 0.6484 0.2161 0.3841
H8 H 0.7341 0.2139 0.3368
O5A O 0.7934(2) 0.4610(3) 0.33183(17)
O5B O 0.5390(3) 0.3324(2) 0.33183(17)
O5C O 0.6676(2) 0.4610(3) 0.16817(17)
O5D O 0.5390(3) 0.2066(2) 0.16817(17)
O5E O 0.7934(2) 0.3324(2) 0.16817(17)
H7A H 0.7839 0.4323 0.3841
H7B H 0.5677 0.3516 0.3841
H7C H 0.6484 0.4323 0.1159
H7D H 0.5677 0.2161 0.1159
H7E H 0.7839 0.3516 0.1159
H8A H 0.7861 0.5202 0.3368
H8B H 0.4798 0.2659 0.3368
H8C H 0.7341 0.5202 0.1632
H8D H 0.4798 0.2139 0.1632
H8E H 0.7861 0.2659 0.1632
Co1 Co 0.6667 0.3333 0.57909(5)
C1 C 1.0801(3) 0.1165(3) 0.3749(2)
H1 H 1.1337 0.1943 0.3742
C2 C 0.9641(3) 0.0802(3) 0.3755(2)
C3 C 0.9195(3) 0.1622(3) 0.3809(2)
C4 C 0.9519(3) 0.3482(3) 0.4276(3)
H2 H 0.9227 0.3587 0.3712
H3 H 1.0170 0.4213 0.4445
C5 C 0.8596(3) 0.3124(3) 0.4984(2)
N1 N 0.9909(3) 0.2650(2) 0.4146(2)
H4 H 1.0628 0.2836 0.4295
O1 O 0.8075(2) 0.3689(2) 0.49802(17)
O2 O 0.8418(3) 0.2350(3) 0.5519(2)
O3 O 0.8208(2) 0.1331(2) 0.3560(2)
O4 O 0.5313(3) 0.3091(3) 0.6662(2)
H5 H 0.4724 0.2436 0.6566
H6 H 0.5146 0.3615 0.6564
Co1B Co 1.6666 0.3333 0.57909(5)
Co1_2 Co 0.6667 -0.6667 0.57909(5)
Co1_3 Co 0.6667 1.3333 0.57909(5)
Co1_4 Co 1.6667 1.3333 0.57909(5)
C1A C 0.8835(3) -0.0364(4) 0.3749(2)
C1B C 1.0364(4) -0.0801(3) 0.3749(2)
C1A_2 C 0.8835(3) 0.9636(4) 0.3749(2)
C1B_2 C 1.0364(4) 0.9199(3) 0.3749(2)
C1_2 C 1.0801(3) 1.1165(3) 0.3749(2)
H1A H 0.8057 -0.0606 0.3742
H1B H 1.0606 -0.1337 0.3742
H1A_2 H 0.8057 0.9394 0.3742
H1B_2 H 1.0606 0.8663 0.3742
H1_2 H 1.1337 1.1943 0.3742
C2A C 0.9198(3) -0.1161(4) 0.3755(2)
C2B C 1.1161(4) 0.0359(3) 0.3755(2)
C2A_2 C 0.9198(3) 0.8839(4) 0.3755(2)
C2B_2 C 1.1161(4) 1.0359(3) 0.3755(2)
C2_2 C 0.9641(3) 1.0802(3) 0.3755(2)
C3B C 1.2427(4) 0.0805(3) 0.3809(2)
C3A C 0.8378(3) -0.2427(4) 0.3809(2)
C3A_2 C 0.8378(3) 0.7573(4) 0.3809(2)
C3_2 C 0.9195(3) 1.1622(3) 0.3809(2)
C3B_2 C 1.2427(4) 1.0805(3) 0.3809(2)
C4B C 1.3963(4) 0.0481(3) 0.4276(3)
C4A C 0.6518(3) -0.3963(4) 0.4276(3)
C4A_2 C 0.6518(3) 0.6037(4) 0.4276(3)
C4_2 C 0.9519(3) 1.3482(3) 0.4276(3)
C4B_2 C 1.3963(4) 1.0481(3) 0.4276(3)
H2B H 1.4360 0.0773 0.3712
H2A H 0.6413 -0.4360 0.3712
H2A_2 H 0.6413 0.5640 0.3712
H2_2 H 0.9227 1.3587 0.3712
H2B_2 H 1.4360 1.0773 0.3712
H3B H 1.4043 -0.0170 0.4445
H3A H 0.5787 -0.4043 0.4445
H3A_2 H 0.5787 0.5957 0.4445
H3_2 H 1.0170 1.4213 0.4445
H3B_2 H 1.4043 0.9830 0.4445
C5B C 1.4528(4) 0.1404(3) 0.4984(2)
C5A C 0.6876(3) -0.4528(4) 0.4984(2)
C5A_2 C 0.6876(3) 0.5472(4) 0.4984(2)
C5_2 C 0.8596(3) 1.3124(3) 0.4984(2)
C5B_2 C 1.4528(4) 1.1404(3) 0.4984(2)
N1B N 1.2741(4) 0.0091(3) 0.4146(2)
N1A N 0.7350(2) -0.2741(4) 0.4146(2)
N1A_2 N 0.7350(2) 0.7259(4) 0.4146(2)
N1_2 N 0.9909(3) 1.2650(2) 0.4146(2)
N1B_2 N 1.2741(4) 1.0091(3) 0.4146(2)
H4B H 1.2208 -0.0628 0.4295
H4A H 0.7164 -0.2208 0.4295
H4A_2 H 0.7164 0.7792 0.4295
H4_2 H 1.0628 1.2836 0.4295
H4B_2 H 1.2208 0.9372 0.4295
O1B O 1.5614(3) 0.1925(2) 0.49802(17)
O1A O 0.6311(2) -0.5614(3) 0.49802(17)
O1A_2 O 0.6311(2) 0.4386(3) 0.49802(17)
O1_2 O 0.8075(2) 1.3689(2) 0.49802(17)
O1B_2 O 1.5614(3) 1.1925(2) 0.49802(17)
O1B_3 O 0.5614(3) 0.1925(2) 0.49802(17)
O1_3 O 1.8075(2) 0.3689(2) 0.49802(17)
O1A_3 O 1.6311(2) 0.4386(3) 0.49802(17)
O2B O 1.3932(4) 0.1582(3) 0.5519(2)
O2A O 0.7650(3) -0.3932(4) 0.5519(2)
O2A_2 O 0.7650(3) 0.6068(4) 0.5519(2)
O2_2 O 0.8418(3) 1.2350(3) 0.5519(2)
O2B_2 O 1.3932(4) 1.1582(3) 0.5519(2)
O3B O 1.3123(3) 0.1792(2) 0.3560(2)
O3A O 0.8669(2) -0.3123(3) 0.3560(2)
O3A_2 O 0.8669(2) 0.6877(3) 0.3560(2)
O3_2 O 0.8208(2) 1.1331(2) 0.3560(2)
O3B_2 O 1.3123(3) 1.1792(2) 0.3560(2)
O4A O 0.6909(3) 0.2222(4) 0.6662(2)
O4B O 0.7778(4) 0.4687(3) 0.6662(2)
O4B_2 O 1.7778(4) 0.4687(3) 0.6662(2)
O4_2 O 1.5313(3) 0.3091(3) 0.6662(2)
O4A_2 O 1.6909(3) 0.2222(4) 0.6662(2)
H5A H 0.7564 0.2288 0.6566
H5B H 0.7712 0.5276 0.6566
H5B_2 H 1.7712 0.5276 0.6566
H5_2 H 1.4724 0.2436 0.6566
H5A_2 H 1.7564 0.2288 0.6566
H6A H 0.6385 0.1531 0.6564
H6B H 0.8469 0.4854 0.6564
H6B_2 H 1.8469 0.4854 0.6564
H6_2 H 1.5146 0.3615 0.6564
H6A_2 H 1.6385 0.1531 0.6564
O6? O 0.4706(17) 0.4293(16) 0.7838(8)
H9? H 0.4047 0.3840 0.8059
H10? H 0.4684 0.4833 0.7557
loop_
_geom_bond_atom_site_label_1
_geom_bond_atom_site_label_2
_geom_bond_site_symmetry_1
_geom_bond_site_symmetry_2
Co1 O1 1_555 1_555
Co2 O5 1_555 1_555
C1 H1 1_555 1_555
C2 C1 1_555 1_555
C3 C2 1_555 1_555
C4 H2 1_555 1_555
H3 C4 1_555 1_555
C5 C4 1_555 1_555
N1 C3 1_555 1_555
H4 N1 1_555 1_555
O1 C5 1_555 1_555
O2 C5 1_555 1_555
O3 C3 1_555 1_555
O4 Co1 1_555 1_555
H5 O4 1_555 1_555
H6 O4 1_555 1_555
O5 H7 1_555 1_555
H8 O5 1_555 1_555
Co1B O1B 1_555 1_555
Co1_2 O1A 1_555 1_555
Co1_3 O1_2 1_555 1_555
Co1_4 O1B_2 1_555 1_555
C1A C2 1_555 1_555
C1B H1B 1_555 1_555
C1A_2 H1A_2 1_555 1_555
C1B_2 H1B_2 1_555 1_555
C1_2 H1_2 1_555 1_555
H1A C1A 1_555 1_555
C2A C1A 1_555 1_555
C2B C1 1_555 1_555
C2A_2 C1A_2 1_555 1_555
C2B_2 C1B_2 1_555 1_555
C2_2 C1A_2 1_555 1_555
C3B C2B 1_555 1_555
C3A C2A 1_555 1_555
C3A_2 C2A_2 1_555 1_555
C3_2 C2_2 1_555 1_555
C3B_2 C2B_2 1_555 1_555
C4B H2B 1_555 1_555
C4A H2A 1_555 1_555
C4A_2 H2A_2 1_555 1_555
C4_2 H2_2 1_555 1_555
C4B_2 H2B_2 1_555 1_555
H3B C4B 1_555 1_555
H3A C4A 1_555 1_555
H3A_2 C4A_2 1_555 1_555
H3_2 C4_2 1_555 1_555
H3B_2 C4B_2 1_555 1_555
C5B C4B 1_555 1_555
C5A C4A 1_555 1_555
C5A_2 C4A_2 1_555 1_555
C5_2 C4_2 1_555 1_555
C5B_2 C4B_2 1_555 1_555
N1B C3B 1_555 1_555
N1A C3A 1_555 1_555
N1A_2 C3A_2 1_555 1_555
N1_2 C3_2 1_555 1_555
N1B_2 C3B_2 1_555 1_555
H4B N1B 1_555 1_555
H4A N1A 1_555 1_555
H4A_2 N1A_2 1_555 1_555
H4_2 N1_2 1_555 1_555
H4B_2 N1B_2 1_555 1_555
O1B C5B 1_555 1_555
O1A C5A 1_555 1_555
O1A_2 Co1 1_555 1_555
O1_2 C5_2 1_555 1_555
O1B_2 C5B_2 1_555 1_555
O1B_3 Co1 1_555 1_555
O1_3 Co1B 1_555 1_555
O1A_3 Co1B 1_555 1_555
O2B C5B 1_555 1_555
O2A C5A 1_555 1_555
O2A_2 C5A_2 1_555 1_555
O2_2 C5_2 1_555 1_555
O2B_2 C5B_2 1_555 1_555
O3B C3B 1_555 1_555
O3A C3A 1_555 1_555
O3A_2 C3A_2 1_555 1_555
O3_2 C3_2 1_555 1_555
O3B_2 C3B_2 1_555 1_555
O4A Co1 1_555 1_555
O4B Co1 1_555 1_555
O4B_2 Co1B 1_555 1_555
O4_2 Co1B 1_555 1_555
O4A_2 Co1B 1_555 1_555
H5A O4A 1_555 1_555
H5B O4B 1_555 1_555
H5B_2 O4B_2 1_555 1_555
H5_2 O4_2 1_555 1_555
H5A_2 O4A_2 1_555 1_555
H6A O4A 1_555 1_555
H6B O4B 1_555 1_555
H6B_2 O4B_2 1_555 1_555
H6_2 O4_2 1_555 1_555
H6A_2 O4A_2 1_555 1_555
O5A Co2 1_555 1_555
O5B Co2 1_555 1_555
O5C Co2 1_555 1_555
O5D Co2 1_555 1_555
O5E Co2 1_555 1_555
H7A O5A 1_555 1_555
H7B O5B 1_555 1_555
H7C O5C 1_555 1_555
H7D O5D 1_555 1_555
H7E O5E 1_555 1_555
H8A O5A 1_555 1_555
H8B O5B 1_555 1_555
H8C O5C 1_555 1_555
H8D O5D 1_555 1_555
H8E O5E 1_555 1_555
C4 N1 1_555 1_555
C1B C2A 1_555 1_555
C1B C2B 1_555 1_555
C1B_2 C2A_2 1_555 1_555
C1_2 C2B_2 1_555 1_555
C1_2 C2_2 1_555 1_555
C4B N1B 1_555 1_555
C4A N1A 1_555 1_555
C4A_2 N1A_2 1_555 1_555
C4_2 N1_2 1_555 1_555
C4B_2 N1B_2 1_555 1_555
C5A_2 O1A_2 1_555 1_555

#END
