
#######################################################################
#
#                 Cambridge Crystallographic Data Centre
#                                CCDC 
#
#######################################################################
#
# If this CIF has been generated from an entry in the Cambridge 
# Structural Database, then it will include bibliographic, chemical, 
# crystal, experimental, refinement or atomic coordinate data resulting 
# from the CCDC's data processing and validation procedures.
#
#######################################################################

data_SIDKEX
_symmetry_cell_setting           monoclinic
_symmetry_space_group_name_H-M   'C 2/c'
_symmetry_Int_Tables_number      15
_space_group_name_Hall           '-C 2yn'
loop_
_symmetry_equiv_pos_site_id
_symmetry_equiv_pos_as_xyz
1 x,y,z
2 -x,y,1/2-z
3 1/2+x,1/2+y,z
4 1/2-x,1/2+y,1/2-z
5 -x,-y,-z
6 x,-y,1/2+z
7 1/2-x,1/2-y,-z
8 1/2+x,1/2-y,1/2+z
_cell_length_a                   12.5331(4)
_cell_length_b                   13.4857(5)
_cell_length_c                   12.0851(4)
_cell_angle_alpha                90
_cell_angle_beta                 107.3040(10)
_cell_angle_gamma                90
_cell_volume                     1950.15
loop_
_atom_site_label
_atom_site_type_symbol
_atom_site_fract_x
_atom_site_fract_y
_atom_site_fract_z
Cd1 Cd 0.0000 0.5000 0.5000
N1 N 0.08852(17) 0.37746(14) 0.42531(16)
N2 N 0.28826(16) 0.36456(14) 0.25568(15)
H1 H 0.3448 0.3206 0.2705
O1 O -0.05111(15) 0.57979(13) 0.32029(13)
O2 O -0.08768(16) 0.70511(12) 0.17292(14)
O3 O -0.15656(14) 0.40184(13) 0.47323(14)
H2 H -0.1432 0.3513 0.5172
H3 H -0.1833 0.3836 0.4031
S1 S 0.0000 0.64218(6) 0.2500
C1 C 0.16197(19) 0.40360(16) 0.36907(18)
H4 H 0.1763 0.4707 0.3627
C2 C 0.21733(19) 0.33563(17) 0.32013(18)
C3 C 0.1963(2) 0.23509(17) 0.3328(2)
H5 H 0.2328 0.1867 0.3027
C4 C 0.1210(2) 0.20861(18) 0.3901(2)
H6 H 0.1055 0.1421 0.3984
C5 C 0.0685(2) 0.28112(18) 0.4352(2)
H7 H 0.0175 0.2624 0.4737
C6 C 0.3382(2) 0.46411(19) 0.2737(2)
H8 H 0.2785 0.5124 0.2616
H9 H 0.3756 0.4757 0.2152
C7 C 0.4205(2) 0.48211(18) 0.3909(2)
C8 C 0.5131(2) 0.42051(17) 0.4330(2)
H10 H 0.5228 0.3668 0.3886
C9 C 0.4088(2) 0.56214(17) 0.4599(2)
H11 H 0.3479 0.6045 0.4338
N1D N 0.91148(17) 0.62254(14) 0.57469(16)
N2D N 0.71174(16) 0.63544(14) 0.74432(15)
H1D H 0.6552 0.6794 0.7295
C1D C 0.83803(19) 0.59640(16) 0.63093(18)
H4D H 0.8237 0.5293 0.6373
C2D C 0.78267(19) 0.66437(17) 0.67987(18)
C3D C 0.8037(2) 0.76491(17) 0.6672(2)
H5D H 0.7672 0.8133 0.6973
C4D C 0.8790(2) 0.79139(18) 0.6099(2)
H6D H 0.8945 0.8579 0.6016
C5D C 0.9315(2) 0.71888(18) 0.5648(2)
H7D H 0.9825 0.7376 0.5263
C6D C 0.6618(2) 0.53589(19) 0.7263(2)
H8D H 0.7215 0.4876 0.7384
H9D H 0.6244 0.5243 0.7848
C7D C 0.5795(2) 0.51789(18) 0.6091(2)
C8D C 0.4869(2) 0.57949(17) 0.5670(2)
H10D H 0.4772 0.6332 0.6114
C9D C 0.5912(2) 0.43786(17) 0.5401(2)
H11D H 0.6521 0.3955 0.5662
O1A O 0.05111(15) 0.57979(13) 0.17971(13)
O2A O 0.08768(16) 0.70511(12) 0.32708(14)
O3D O 0.15656(14) 0.59816(13) 0.52677(14)
H2D H 0.1432 0.6487 0.4828
H3D H 0.1833 0.6164 0.5969
Cd1_2 Cd 1.0000 0.5000 0.5000
Cd1A Cd 0.0000 0.5000 0.0000
N1D_2 N -0.08852(17) 0.62254(14) 0.57469(16)
O1D O 0.05111(15) 0.42021(13) 0.67971(13)
loop_
_geom_bond_atom_site_label_1
_geom_bond_atom_site_label_2
_geom_bond_site_symmetry_1
_geom_bond_site_symmetry_2
Cd1 N1 1_555 1_555
N1 C1 1_555 1_555
N2 H1 1_555 1_555
O1 Cd1 1_555 1_555
O2 S1 1_555 1_555
O3 Cd1 1_555 1_555
H2 O3 1_555 1_555
H3 O3 1_555 1_555
S1 O1 1_555 1_555
C1 H4 1_555 1_555
C2 N2 1_555 1_555
C3 C2 1_555 1_555
H5 C3 1_555 1_555
C4 C3 1_555 1_555
H6 C4 1_555 1_555
C5 N1 1_555 1_555
H7 C5 1_555 1_555
C6 N2 1_555 1_555
H8 C6 1_555 1_555
H9 C6 1_555 1_555
C7 C6 1_555 1_555
C8 C7 1_555 1_555
H10 C8 1_555 1_555
C9 C7 1_555 1_555
H11 C9 1_555 1_555
N1D C1D 1_555 1_555
N2D H1D 1_555 1_555
C1D H4D 1_555 1_555
C2D N2D 1_555 1_555
C3D C2D 1_555 1_555
H5D C3D 1_555 1_555
C4D C3D 1_555 1_555
H6D C4D 1_555 1_555
C5D N1D 1_555 1_555
H7D C5D 1_555 1_555
C6D N2D 1_555 1_555
H8D C6D 1_555 1_555
H9D C6D 1_555 1_555
C7D C6D 1_555 1_555
C8D C9 1_555 1_555
H10D C8D 1_555 1_555
C9D C8 1_555 1_555
H11D C9D 1_555 1_555
O1A S1 1_555 1_555
O2A S1 1_555 1_555
O3D Cd1 1_555 1_555
H2D O3D 1_555 1_555
H3D O3D 1_555 1_555
Cd1_2 N1D 1_555 1_555
Cd1A O1A 1_555 1_555
N1D_2 Cd1 1_555 1_555
O1D Cd1 1_555 1_555
C1 C2 1_555 1_555
C4 C5 1_555 1_555
C1D C2D 1_555 1_555
C4D C5D 1_555 1_555
C7D C8D 1_555 1_555
C7D C9D 1_555 1_555

#END
