
#######################################################################
#
#                 Cambridge Crystallographic Data Centre
#                                CCDC 
#
#######################################################################
#
# If this CIF has been generated from an entry in the Cambridge 
# Structural Database, then it will include bibliographic, chemical, 
# crystal, experimental, refinement or atomic coordinate data resulting 
# from the CCDC's data processing and validation procedures.
#
#######################################################################

data_SIDLUO
_symmetry_cell_setting           triclinic
_symmetry_space_group_name_H-M   'P -1'
_symmetry_Int_Tables_number      2
_space_group_name_Hall           '-P 1'
loop_
_symmetry_equiv_pos_site_id
_symmetry_equiv_pos_as_xyz
1 x,y,z
2 -x,-y,-z
_cell_length_a                   9.6706(8)
_cell_length_b                   11.0066(9)
_cell_length_c                   12.2565(10)
_cell_angle_alpha                63.5430(10)
_cell_angle_beta                 69.7420(10)
_cell_angle_gamma                73.9200(10)
_cell_volume                     1083.95
loop_
_atom_site_label
_atom_site_type_symbol
_atom_site_fract_x
_atom_site_fract_y
_atom_site_fract_z
Co1 Co 0.0000 1.0000 0.0000
Co2 Co 0.12063(6) 0.66330(5) 0.03835(5)
O1 O 0.3033(3) 0.7134(3) 0.0551(3)
O2 O 0.1721(3) 0.9035(3) 0.0822(3)
O3 O 0.4543(3) 1.0420(3) 0.2662(3)
O4 O 0.8685(3) 0.6535(3) 0.0352(3)
O5 O 0.9298(3) 0.8055(2) 0.0723(3)
O6 O 0.1660(3) 0.7642(3) 0.8516(3)
O7 O 0.1118(3) 0.9853(3) 0.8266(3)
O8 O 0.2695(3) 0.4965(3) 0.0035(3)
N1 N 0.0517(4) 0.5347(3) 0.2270(3)
N2 N -0.0877(4) 0.4732(4) 0.4230(3)
C1 C 0.2866(5) 0.8165(4) 0.0804(4)
C2 C 0.4106(4) 0.8380(4) 0.1142(4)
C3 C 0.3754(4) 0.9231(4) 0.1785(4)
H1 H 0.2752 0.9636 0.2021
C4 C 0.4868(5) 0.9487(4) 0.2084(4)
C5 C 0.6331(4) 0.8929(4) 0.1736(4)
H2 H 0.7084 0.9112 0.1952
C6 C 0.6694(4) 0.8097(4) 0.1068(4)
C7 C 0.5574(4) 0.7813(4) 0.0781(4)
H3 H 0.5817 0.7230 0.0337
C8 C 0.3806(4) 0.9997(4) 0.3926(4)
C9 C 0.3668(5) 0.8638(4) 0.4705(4)
H4 H 0.4059 0.7939 0.4379
C10 C 0.2944(5) 0.8319(4) 0.5973(4)
H5 H 0.2840 0.7389 0.6511
C11 C 0.2375(5) 0.9301(4) 0.6476(4)
C12 C 0.2532(5) 1.0668(4) 0.5669(4)
H6 H 0.2147 1.1367 0.5994
C13 C 0.3239(5) 1.1002(4) 0.4410(4)
H7 H 0.3337 1.1933 0.3869
C14 C 0.8303(4) 0.7531(4) 0.0674(4)
C15 C 0.1663(4) 0.8912(4) 0.7860(4)
C16 C 0.0615(5) 0.3942(5) 0.2819(5)
H8 H 0.1203 0.3335 0.2416
C17 C -0.0399(5) 0.5782(5) 0.3155(4)
H9 H -0.0683 0.6719 0.3044
C18 C -0.0248(5) 0.3555(5) 0.4011(5)
H10 H -0.0393 0.2644 0.4589
C19 C -0.2106(5) 0.4858(6) 0.5300(4)
H11 H -0.2089 0.5692 0.5409
H12 H -0.1969 0.4056 0.6079
C20 C -0.3604(5) 0.4942(4) 0.5112(4)
C21 C -0.4840(5) 0.4842(4) 0.6132(4)
H13 H -0.4729 0.4729 0.6914
C22 C -0.3768(5) 0.5094(4) 0.3982(4)
H14 H -0.2923 0.5154 0.3282
H15 H 0.332(5) 0.539(5) -0.066(4)
H16 H 0.234(6) 0.447(5) -0.018(5)
N1A N -1.0517(4) 0.4653(3) 0.7730(3)
N2A N -0.9123(4) 0.5268(4) 0.5770(3)
C16A C -1.0615(5) 0.6058(5) 0.7181(5)
H8A H -1.1203 0.6665 0.7584
C17A C -0.9601(5) 0.4218(5) 0.6845(4)
H9A H -0.9317 0.3281 0.6956
C18A C -0.9752(5) 0.6445(5) 0.5989(5)
H10A H -0.9607 0.7356 0.5411
C19A C -0.7894(5) 0.5142(6) 0.4700(4)
H11A H -0.7911 0.4308 0.4591
H12A H -0.8031 0.5944 0.3921
C20A C -0.6396(5) 0.5058(4) 0.4888(4)
C21A C -0.5160(5) 0.5158(4) 0.3868(4)
H13A H -0.5271 0.5271 0.3086
C22A C -0.6232(5) 0.4906(4) 0.6018(4)
H14A H -0.7077 0.4846 0.6718
Co2A Co -1.12063(6) 0.33670(5) 0.96165(5)
O1A O -1.3033(3) 0.2866(3) 0.9449(3)
O2A O -1.1721(3) 0.0965(3) 0.9178(3)
O3A O -1.4543(3) -0.0420(3) 0.7338(3)
O4A O -1.8685(3) 0.3465(3) 0.9648(3)
O5A O -1.9298(3) 0.1945(2) 0.9277(3)
O6A O -1.1660(3) 0.2358(3) 0.1484(3)
O7A O -1.1118(3) 0.0147(3) 0.1734(3)
O8A O -1.2695(3) 0.5035(3) 0.9965(3)
C1A C -1.2866(5) 0.1835(4) 0.9196(4)
C2A C -1.4106(4) 0.1620(4) 0.8858(4)
C3A C -1.3754(4) 0.0769(4) 0.8215(4)
H1A H -1.2752 0.0364 0.7979
C4A C -1.4868(5) 0.0513(4) 0.7916(4)
C5A C -1.6331(4) 0.1071(4) 0.8264(4)
H2A H -1.7084 0.0888 0.8048
C6A C -1.6694(4) 0.1903(4) 0.8932(4)
C7A C -1.5574(4) 0.2187(4) 0.9219(4)
H3A H -1.5817 0.2770 0.9663
C8A C -1.3806(4) 0.0003(4) 0.6074(4)
C9A C -1.3668(5) 0.1362(4) 0.5295(4)
H4A H -1.4059 0.2061 0.5621
C10A C -1.2944(5) 0.1681(4) 0.4027(4)
H5A H -1.2840 0.2611 0.3489
C11A C -1.2375(5) 0.0699(4) 0.3524(4)
C12A C -1.2532(5) -0.0668(4) 0.4331(4)
H6A H -1.2147 -0.1367 0.4006
C13A C -1.3239(5) -0.1002(4) 0.5590(4)
H7A H -1.3337 -0.1933 0.6131
C14A C -1.8303(4) 0.2469(4) 0.9326(4)
C15A C -1.1663(4) 0.1088(4) 0.2140(4)
H15A H -1.332(5) 0.461(5) 1.066(4)
H16A H -1.234(6) 0.553(5) 1.018(5)
Co1_2 Co -2.0000 0.0000 1.0000
Co1_3 Co -1.0000 0.0000 0.0000
Co1_4 Co -1.0000 0.0000 1.0000
Co1_5 Co 0.0000 1.0000 1.0000
Co1_6 Co 1.0000 1.0000 0.0000
Co2_2 Co 0.12063(6) 0.66330(5) 1.03835(5)
Co2_3 Co 1.12063(6) 0.66330(5) 0.03835(5)
Co2A_2 Co -2.12063(6) 0.33670(5) 0.96165(5)
Co2A_3 Co -1.12063(6) 0.33670(5) -0.03835(5)
O2A_2 O -0.1721(3) 1.0965(3) -0.0822(3)
O5_2 O -0.0702(3) 0.8055(2) 0.0723(3)
O5A_2 O -0.9298(3) 0.1945(2) 0.9277(3)
O5A_3 O 0.0702(3) 1.1945(2) -0.0723(3)
O6_2 O 0.1660(3) 0.7642(3) -0.1484(3)
O6A_2 O -1.1660(3) 0.2358(3) 1.1484(3)
O7_2 O 0.1118(3) 0.9853(3) -0.1734(3)
O7A_2 O -0.1118(3) 1.0147(3) 0.1734(3)
O9 O 0.5189(4) 0.6129(5) -0.1673(4)
H17 H 0.590(5) 0.567(6) -0.128(5)
H18 H 0.510(7) 0.673(5) -0.135(6)
loop_
_geom_bond_atom_site_label_1
_geom_bond_atom_site_label_2
_geom_bond_site_symmetry_1
_geom_bond_site_symmetry_2
Co1 O2 1_555 1_555
Co2 O1 1_555 1_555
O1 C1 1_555 1_555
O2 C1 1_555 1_555
O3 C4 1_555 1_555
O4 C14 1_555 1_555
O5 C14 1_555 1_555
O6 C15 1_555 1_555
O7 C15 1_555 1_555
O8 Co2 1_555 1_555
N1 Co2 1_555 1_555
N2 C17 1_555 1_555
C1 C2 1_555 1_555
C2 C3 1_555 1_555
C3 H1 1_555 1_555
C4 C3 1_555 1_555
C5 C4 1_555 1_555
H2 C5 1_555 1_555
C6 C5 1_555 1_555
C7 C2 1_555 1_555
H3 C7 1_555 1_555
C8 O3 1_555 1_555
C9 C8 1_555 1_555
H4 C9 1_555 1_555
C10 C9 1_555 1_555
H5 C10 1_555 1_555
C11 C10 1_555 1_555
C12 C11 1_555 1_555
H6 C12 1_555 1_555
C13 C8 1_555 1_555
H7 C13 1_555 1_555
C14 C6 1_555 1_555
C15 C11 1_555 1_555
C16 N1 1_555 1_555
H8 C16 1_555 1_555
C17 N1 1_555 1_555
H9 C17 1_555 1_555
C18 N2 1_555 1_555
H10 C18 1_555 1_555
C19 N2 1_555 1_555
H11 C19 1_555 1_555
H12 C19 1_555 1_555
C20 C19 1_555 1_555
C21 C20 1_555 1_555
H13 C21 1_555 1_555
C22 C20 1_555 1_555
H14 C22 1_555 1_555
H15 O8 1_555 1_555
H16 O8 1_555 1_555
O9 H17 1_555 1_555
H18 O9 1_555 1_555
N1A C16A 1_555 1_555
N2A C17A 1_555 1_555
C16A H8A 1_555 1_555
C17A N1A 1_555 1_555
H9A C17A 1_555 1_555
C18A N2A 1_555 1_555
H10A C18A 1_555 1_555
C19A N2A 1_555 1_555
H11A C19A 1_555 1_555
H12A C19A 1_555 1_555
C20A C19A 1_555 1_555
C21A C22 1_555 1_555
H13A C21A 1_555 1_555
C22A C21 1_555 1_555
H14A C22A 1_555 1_555
Co2A N1A 1_555 1_555
O1A Co2A 1_555 1_555
O2A C1A 1_555 1_555
O3A C4A 1_555 1_555
O4A C14A 1_555 1_555
O5A C14A 1_555 1_555
O6A C15A 1_555 1_555
O7A C15A 1_555 1_555
O8A Co2A 1_555 1_555
C1A O1A 1_555 1_555
C2A C1A 1_555 1_555
C3A C2A 1_555 1_555
H1A C3A 1_555 1_555
C4A C3A 1_555 1_555
C5A C4A 1_555 1_555
H2A C5A 1_555 1_555
C6A C5A 1_555 1_555
C7A C2A 1_555 1_555
H3A C7A 1_555 1_555
C8A O3A 1_555 1_555
C9A C8A 1_555 1_555
H4A C9A 1_555 1_555
C10A C9A 1_555 1_555
H5A C10A 1_555 1_555
C11A C10A 1_555 1_555
C12A C11A 1_555 1_555
H6A C12A 1_555 1_555
C13A C8A 1_555 1_555
H7A C13A 1_555 1_555
C14A C6A 1_555 1_555
C15A C11A 1_555 1_555
H15A O8A 1_555 1_555
H16A O8A 1_555 1_555
Co1_2 O5A 1_555 1_555
Co1_3 O7A 1_555 1_555
Co1_4 O2A 1_555 1_555
Co1_5 O7 1_555 1_555
Co1_6 O5 1_555 1_555
Co2_2 O6 1_555 1_555
Co2_3 O5 1_555 1_555
Co2A_2 O5A 1_555 1_555
Co2A_3 O6A 1_555 1_555
O2A_2 Co1 1_555 1_555
O5_2 Co1 1_555 1_555
O5A_2 Co2A 1_555 1_555
O5A_3 Co1 1_555 1_555
O6_2 Co2 1_555 1_555
O6A_2 Co2A 1_555 1_555
O7_2 Co1 1_555 1_555
O7A_2 Co1 1_555 1_555
Co2 O5_2 1_555 1_555
C6 C7 1_555 1_555
C12 C13 1_555 1_555
C16 C18 1_555 1_555
C16A C18A 1_555 1_555
C20A C21A 1_555 1_555
C20A C22A 1_555 1_555
C6A C7A 1_555 1_555
C12A C13A 1_555 1_555
Co1_4 O5A_2 1_555 1_555

#END
