
#######################################################################
#
#                 Cambridge Crystallographic Data Centre
#                                CCDC 
#
#######################################################################
#
# If this CIF has been generated from an entry in the Cambridge 
# Structural Database, then it will include bibliographic, chemical, 
# crystal, experimental, refinement or atomic coordinate data resulting 
# from the CCDC's data processing and validation procedures.
#
#######################################################################

data_SIDLIC
_symmetry_cell_setting           triclinic
_symmetry_space_group_name_H-M   'P -1'
_symmetry_Int_Tables_number      2
_space_group_name_Hall           '-P 1'
loop_
_symmetry_equiv_pos_site_id
_symmetry_equiv_pos_as_xyz
1 x,y,z
2 -x,-y,-z
_cell_length_a                   9.6355(11)
_cell_length_b                   12.1928(13)
_cell_length_c                   23.234(3)
_cell_angle_alpha                82.255(2)
_cell_angle_beta                 78.694(2)
_cell_angle_gamma                71.046(2)
_cell_volume                     2524.07
loop_
_atom_site_label
_atom_site_type_symbol
_atom_site_fract_x
_atom_site_fract_y
_atom_site_fract_z
C1 C -0.6261(5) 0.7029(4) 0.2489(2)
C2 C -0.3329(5) 0.5666(4) -0.0643(2)
C3 C -0.2248(6) 0.4627(5) -0.0508(2)
H1 H -0.1684 0.4142 -0.0814
C4 C -0.3551(5) 0.6032(4) -0.1269(2)
C5 C 0.1201(5) 0.2773(4) 0.2499(2)
C6 C -0.0374(5) 0.3273(4) 0.27741(19)
C7 C -0.1512(5) 0.3005(4) 0.2593(2)
H2 H -0.1286 0.2485 0.2294
C8 C -0.2986(5) 0.3500(4) 0.2851(2)
C9 C -0.3300(5) 0.4235(4) 0.3301(2)
H3 H -0.4300 0.4586 0.3476
C10 C -0.2152(5) 0.4453(4) 0.34920(19)
C11 C -0.0692(5) 0.3987(4) 0.32333(19)
H4 H 0.0085 0.4151 0.3367
C12 C -0.2144(5) 0.4910(4) 0.4468(2)
C13 C -0.2677(6) 0.5748(5) 0.4871(2)
H5 H -0.3231 0.6515 0.4750
C14 C -0.2426(6) 0.5500(5) 0.5442(2)
H6 H -0.2803 0.6093 0.5709
C15 C -0.1624(5) 0.4386(4) 0.5632(2)
C16 C -0.1064(6) 0.3545(4) 0.5228(2)
H7 H -0.0508 0.2780 0.5351
C17 C -0.1302(6) 0.3802(4) 0.4645(2)
H8 H -0.0890 0.3222 0.4371
C18 C -0.1409(5) 0.4087(4) 0.6268(2)
C19 C -0.4275(5) 0.3302(4) 0.2649(2)
C20 C 0.3316(5) 0.1722(4) 0.3567(2)
H9 H 0.3251 0.2521 0.3536
C21 C 0.2851(6) 0.1217(4) 0.4114(2)
H10 H 0.2462 0.1670 0.4444
C22 C 0.2960(5) 0.0046(4) 0.4172(2)
C23 C 0.3540(5) -0.0576(4) 0.3678(2)
H11 H 0.3649 -0.1382 0.3701
C24 C 0.3960(5) -0.0005(4) 0.3149(2)
H12 H 0.4346 -0.0442 0.2812
C25 C 0.2501(6) -0.0548(5) 0.4758(2)
H13 H 0.1942 -0.1066 0.4701
H14 H 0.1835 0.0045 0.5024
C26 C 0.3849(6) -0.1256(4) 0.5040(2)
H15 H 0.4429 -0.0740 0.5079
H16 H 0.4492 -0.1865 0.4778
C27 C 0.3434(6) -0.1833(4) 0.5646(2)
H17 H 0.2930 -0.2401 0.5605
H18 H 0.4353 -0.2264 0.5810
C28 C 0.2430(6) -0.0963(4) 0.6067(2)
C29 C 0.0976(6) -0.0896(4) 0.6277(2)
H19 H 0.0574 -0.1438 0.6168
C30 C 0.0090(6) -0.0053(4) 0.6644(2)
H20 H -0.0914 -0.0032 0.6780
C31 C 0.2003(5) 0.0685(5) 0.6611(2)
H21 H 0.2379 0.1240 0.6724
C32 C 0.2930(6) -0.0138(5) 0.6246(2)
H22 H 0.3929 -0.0144 0.6112
C33 C 0.1658(5) 0.8150(4) 0.1401(2)
H23 H 0.2000 0.7324 0.1440
C34 C 0.1772(5) 0.8699(4) 0.0847(2)
H24 H 0.2181 0.8250 0.0515
C35 C 0.1298(6) 0.9900(4) 0.0766(2)
C36 C 0.0732(6) 1.0483(4) 0.1272(2)
H25 H 0.0391 1.1309 0.1243
C37 C 0.0654(6) 0.9894(4) 0.1813(2)
H26 H 0.0278 1.0330 0.2150
C38 C 0.1335(7) 1.0549(5) 0.0153(2)
H27 H 0.1829 0.9974 -0.0144
H28 H 0.0299 1.0929 0.0083
C39 C 0.2122(6) 1.1457(4) 0.0062(2)
H29 H 0.3158 1.1092 0.0136
H30 H 0.1613 1.2058 0.0345
C40 C 0.2130(6) 1.2028(4) -0.0573(2)
H31 H 0.1096 1.2342 -0.0653
H32 H 0.2542 1.2685 -0.0613
C41 C 0.3042(6) 1.1172(4) -0.1019(2)
C42 C 0.4573(6) 1.0661(5) -0.1038(2)
H33 H 0.5078 1.0893 -0.0786
C43 C 0.5344(6) 0.9822(5) -0.1421(2)
H34 H 0.6379 0.9472 -0.1419
C44 C 0.3287(5) 1.0002(4) -0.1803(2)
H35 H 0.2824 0.9800 -0.2080
C45 C 0.2426(6) 1.0846(4) -0.1422(2)
H36 H 0.1400 1.1198 -0.1443
N1 N 0.3855(4) 0.1129(3) 0.30813(17)
N2 N 0.0577(4) 0.0734(3) 0.68165(17)
N3 N 0.1083(4) 0.8726(3) 0.18946(17)
N4 N 0.4710(4) 0.9471(3) -0.17983(17)
O1 O -0.6730(3) 0.7939(3) 0.27509(15)
O2 O -0.7174(3) 0.6535(3) 0.24025(13)
O3 O -0.3158(3) 0.5243(3) -0.16166(13)
O4 O -0.4119(4) 0.7110(3) -0.13988(14)
O5 O 0.2151(3) 0.3255(3) 0.25831(14)
O6 O 0.1637(4) 0.1903(3) 0.22078(15)
O7 O -0.2535(3) 0.5257(3) 0.39187(14)
O8 O -0.0920(4) 0.3022(3) 0.64251(14)
O9 O -0.1776(3) 0.4930(3) 0.65878(13)
O10 O -0.4040(4) 0.2405(3) 0.23843(15)
O11 O -0.5503(3) 0.4055(3) 0.27738(15)
C46 C -0.0750(5) 0.6471(4) 0.23515(19)
C47 C -0.2053(5) 0.6309(4) 0.2142(2)
C48 C -0.3524(5) 0.6822(4) 0.2393(2)
H37 H -0.3753 0.7362 0.2683
C49 C -0.4659(5) 0.6538(4) 0.2217(2)
C50 C -0.4344(5) 0.5788(4) 0.1778(2)
H38 H -0.5121 0.5589 0.1665
C51 C -0.2882(5) 0.5329(4) 0.15057(19)
C52 C -0.1735(5) 0.5558(4) 0.1698(2)
H39 H -0.0733 0.5203 0.1527
C53 C -0.2853(5) 0.4973(4) 0.0512(2)
C54 C -0.3960(5) 0.5991(4) 0.0389(2)
H40 H -0.4569 0.6454 0.0696
C55 C -0.4162(6) 0.6320(4) -0.0186(2)
H41 H -0.4906 0.7026 -0.0271
C56 C -0.1989(6) 0.4294(4) 0.0062(2)
H42 H -0.1221 0.3603 0.0145
O12 O 0.0449(3) 0.5669(3) 0.22557(14)
O13 O -0.0933(3) 0.7398(3) 0.25831(14)
O14 O -0.2500(3) 0.4556(3) 0.10665(14)
Co1 Co 0.24678(7) 0.49023(5) 0.25153(3)
Co2 Co 0.41226(7) 0.20527(5) 0.22239(3)
Co3 Co 0.08725(7) 0.77997(5) 0.27538(3)
N2A N -0.0577(4) 0.9266(3) 0.31835(17)
N4A N 0.5290(4) 0.0529(3) 0.17983(17)
O1_2 O 0.3270(3) 0.7939(3) 0.27509(15)
O2_2 O 0.2826(3) 0.6535(3) 0.24025(13)
O3A O 0.3158(3) 0.4757(3) 0.16166(13)
O4A O 0.4119(4) 0.2890(3) 0.13988(14)
O8A O 0.0920(4) 0.6978(3) 0.35749(14)
O9A O 0.1776(3) 0.5070(3) 0.34122(13)
O10_2 O 0.5960(4) 0.2405(3) 0.23843(15)
O11_2 O 0.4497(3) 0.4055(3) 0.27738(15)
Co1_2 Co -0.75322(7) 0.49023(5) 0.25153(3)
Co1A Co -0.24678(7) 0.50977(5) -0.25153(3)
Co1A_2 Co -0.24678(7) 0.50977(5) 0.74847(3)
Co2_2 Co -0.58774(7) 0.20527(5) 0.22239(3)
Co2A Co -0.41226(7) 0.79473(5) -0.22239(3)
Co2A_2 Co 0.58774(7) 0.79473(5) -0.22239(3)
Co3_2 Co -0.91275(7) 0.77997(5) 0.27538(3)
Co3A Co -0.08725(7) 0.22003(5) 0.72462(3)
O15 O -0.7329(7) 0.7958(6) -0.0858(3)
loop_
_geom_bond_atom_site_label_1
_geom_bond_atom_site_label_2
_geom_bond_site_symmetry_1
_geom_bond_site_symmetry_2
C1 O1 1_555 1_555
C2 C3 1_555 1_555
C3 H1 1_555 1_555
C4 C2 1_555 1_555
C5 C6 1_555 1_555
C6 C7 1_555 1_555
C7 H2 1_555 1_555
C8 C7 1_555 1_555
C9 C8 1_555 1_555
H3 C9 1_555 1_555
C10 C9 1_555 1_555
C11 C6 1_555 1_555
H4 C11 1_555 1_555
C12 C13 1_555 1_555
C13 H5 1_555 1_555
C14 C13 1_555 1_555
H6 C14 1_555 1_555
C15 C14 1_555 1_555
C16 C15 1_555 1_555
H7 C16 1_555 1_555
C17 C12 1_555 1_555
H8 C17 1_555 1_555
C18 C15 1_555 1_555
C19 C8 1_555 1_555
C20 H9 1_555 1_555
C21 C20 1_555 1_555
H10 C21 1_555 1_555
C22 C21 1_555 1_555
C23 C22 1_555 1_555
H11 C23 1_555 1_555
C24 C23 1_555 1_555
H12 C24 1_555 1_555
C25 C22 1_555 1_555
H13 C25 1_555 1_555
H14 C25 1_555 1_555
C26 C25 1_555 1_555
H15 C26 1_555 1_555
H16 C26 1_555 1_555
C27 C26 1_555 1_555
H17 C27 1_555 1_555
H18 C27 1_555 1_555
C28 C27 1_555 1_555
C29 C28 1_555 1_555
H19 C29 1_555 1_555
C30 C29 1_555 1_555
H20 C30 1_555 1_555
C31 H21 1_555 1_555
C32 C28 1_555 1_555
H22 C32 1_555 1_555
C33 H23 1_555 1_555
C34 C33 1_555 1_555
H24 C34 1_555 1_555
C35 C34 1_555 1_555
C36 C35 1_555 1_555
H25 C36 1_555 1_555
C37 C36 1_555 1_555
H26 C37 1_555 1_555
C38 C35 1_555 1_555
H27 C38 1_555 1_555
H28 C38 1_555 1_555
C39 C38 1_555 1_555
H29 C39 1_555 1_555
H30 C39 1_555 1_555
C40 C39 1_555 1_555
H31 C40 1_555 1_555
H32 C40 1_555 1_555
C41 C40 1_555 1_555
C42 C41 1_555 1_555
H33 C42 1_555 1_555
C43 C42 1_555 1_555
H34 C43 1_555 1_555
C44 H35 1_555 1_555
C45 C41 1_555 1_555
H36 C45 1_555 1_555
N1 C20 1_555 1_555
N2 C30 1_555 1_555
N3 C33 1_555 1_555
N4 C43 1_555 1_555
O1 Co3_2 1_555 1_555
O2 C1 1_555 1_555
O3 C4 1_555 1_555
O4 C4 1_555 1_555
O5 C5 1_555 1_555
O6 C5 1_555 1_555
O7 C10 1_555 1_555
O8 C18 1_555 1_555
O9 C18 1_555 1_555
O10 C19 1_555 1_555
O11 C19 1_555 1_555
C46 C47 1_555 1_555
C47 C48 1_555 1_555
C48 H37 1_555 1_555
C49 C1 1_555 1_555
C50 C49 1_555 1_555
H38 C50 1_555 1_555
C51 C50 1_555 1_555
C52 C47 1_555 1_555
H39 C52 1_555 1_555
C53 C54 1_555 1_555
C54 H40 1_555 1_555
C55 C2 1_555 1_555
H41 C55 1_555 1_555
C56 C3 1_555 1_555
H42 C56 1_555 1_555
O12 C46 1_555 1_555
O13 C46 1_555 1_555
O14 C51 1_555 1_555
Co1 O5 1_555 1_555
Co2 N1 1_555 1_555
Co3 N3 1_555 1_555
N2A Co3 1_555 1_555
N4A Co2 1_555 1_555
O1_2 Co3 1_555 1_555
O2_2 Co1 1_555 1_555
O3A Co1 1_555 1_555
O4A Co2 1_555 1_555
O8A Co3 1_555 1_555
O9A Co1 1_555 1_555
O10_2 Co2 1_555 1_555
O11_2 Co1 1_555 1_555
Co1_2 O2 1_555 1_555
Co1A O3 1_555 1_555
Co1A_2 O9 1_555 1_555
Co2_2 O10 1_555 1_555
Co2A O4 1_555 1_555
Co2A_2 N4 1_555 1_555
Co3_2 O2 1_555 1_555
Co3A N2 1_555 1_555
C10 C11 1_555 1_555
C12 O7 1_555 1_555
C16 C17 1_555 1_555
C24 N1 1_555 1_555
C31 C32 1_555 1_555
C31 N2 1_555 1_555
C37 N3 1_555 1_555
C44 C45 1_555 1_555
C44 N4 1_555 1_555
O5 Co2 1_555 1_555
O8 Co3A 1_555 1_555
O11 Co1_2 1_555 1_555
C48 C49 1_555 1_555
C51 C52 1_555 1_555
C53 C56 1_555 1_555
C53 O14 1_555 1_555
C54 C55 1_555 1_555
O12 Co1 1_555 1_555
O13 Co3 1_555 1_555
Co3 O2_2 1_555 1_555

#END
