
#######################################################################
#
#                 Cambridge Crystallographic Data Centre
#                                CCDC 
#
#######################################################################
#
# If this CIF has been generated from an entry in the Cambridge 
# Structural Database, then it will include bibliographic, chemical, 
# crystal, experimental, refinement or atomic coordinate data resulting 
# from the CCDC's data processing and validation procedures.
#
#######################################################################

data_SIDMEZ
_symmetry_cell_setting           triclinic
_symmetry_space_group_name_H-M   'P -1'
_symmetry_Int_Tables_number      2
_space_group_name_Hall           '-P 1'
loop_
_symmetry_equiv_pos_site_id
_symmetry_equiv_pos_as_xyz
1 x,y,z
2 -x,-y,-z
_cell_length_a                   10.6774(5)
_cell_length_b                   10.8538(5)
_cell_length_c                   13.5266(10)
_cell_angle_alpha                91.5320(10)
_cell_angle_beta                 95.8120(10)
_cell_angle_gamma                118.4180(10)
_cell_volume                     1366.58
loop_
_atom_site_label
_atom_site_type_symbol
_atom_site_fract_x
_atom_site_fract_y
_atom_site_fract_z
C1 C 0.2781(2) 0.6013(2) 0.34852(17)
C2 C 0.1698(2) 0.4555(2) 0.30466(17)
C3 C 0.1886(2) 0.4028(2) 0.21547(18)
H1 H 0.2714 0.4570 0.1841
C4 C 0.0864(2) 0.2714(2) 0.17312(17)
C5 C -0.0333(2) 0.1889(2) 0.21908(17)
H2 H -0.1013 0.0972 0.1904
C6 C -0.0528(2) 0.2418(2) 0.30782(17)
C7 C 0.0484(2) 0.3750(2) 0.35006(17)
H3 H 0.0346 0.4113 0.4103
C8 C -0.1878(2) 0.1542(2) 0.35369(18)
C9 C 0.0045(2) 0.1883(2) 0.00198(18)
C10 C 0.0221(3) 0.1259(2) -0.08251(18)
H4 H 0.0987 0.1043 -0.0808
C11 C -0.0723(3) 0.0950(3) -0.16978(18)
H5 H -0.0588 0.0542 -0.2280
C12 C -0.1867(3) 0.1237(2) -0.17200(18)
C13 C -0.2016(3) 0.1860(3) -0.08621(18)
H6 H -0.2789 0.2064 -0.0871
C14 C -0.1073(3) 0.2193(3) 0.00062(19)
H7 H -0.1190 0.2628 0.0583
C15 C -0.2905(3) 0.0954(2) -0.26361(19)
C16 C 0.5762(3) 0.8501(3) 0.0958(2)
H8 H 0.5607 0.9293 0.0940
C17 C 0.6094(3) 0.6817(3) 0.1472(2)
H9 H 0.6218 0.6194 0.1901
C18 C 0.6105(3) 0.6759(3) 0.0473(2)
H10 H 0.6233 0.6101 0.0078
C19 C 0.5565(3) 0.8010(3) -0.0901(2)
H11 H 0.6292 0.7978 -0.1285
H12 H 0.5618 0.8942 -0.0955
C20 C 0.4083(3) 0.6872(3) -0.1346(2)
C21 C 0.3775(3) 0.6553(3) -0.2377(2)
H13 H 0.4498 0.7049 -0.2788
C22 C 0.2429(3) 0.5523(3) -0.2811(2)
C23 C 0.1364(3) 0.4825(3) -0.2212(2)
H14 H 0.0432 0.4136 -0.2506
C24 C 0.1656(3) 0.5128(3) -0.1192(2)
H15 H 0.0926 0.4644 -0.0783
C25 C 0.3009(3) 0.6136(3) -0.0763(2)
H16 H 0.3206 0.6327 -0.0059
C26 C 0.2160(4) 0.5079(3) -0.3920(2)
H17 H 0.1234 0.5001 -0.4214
H18 H 0.2933 0.5792 -0.4260
C27 C 0.3276(3) 0.3518(3) -0.3911(2)
H19 H 0.4240 0.4259 -0.3837
C28 C 0.1438(3) 0.1480(3) -0.4018(2)
H20 H 0.0855 0.0489 -0.4037
C29 C 0.0941(3) 0.2413(3) -0.4124(2)
H21 H -0.0036 0.2204 -0.4223
N1 N 0.5877(2) 0.7918(2) 0.17751(16)
N2 N 0.5892(2) 0.7841(2) 0.01446(16)
N3 N 0.2917(2) 0.2183(2) -0.38777(16)
N4 N 0.2122(3) 0.3715(2) -0.40613(17)
O1 O 0.23546(17) 0.66576(17) 0.40303(13)
O2 O 0.40268(17) 0.64675(17) 0.32587(13)
O3 O -0.19607(17) 0.19980(17) 0.43848(12)
O4 O -0.28070(18) 0.04567(17) 0.30354(13)
O5 O -0.40268(18) 0.10031(19) -0.25392(13)
O6 O -0.25717(18) 0.06836(18) -0.34651(12)
O7 O 0.10792(17) 0.22197(17) 0.08358(12)
O8 O 0.54283(17) 0.91034(17) 0.46904(12)
H22 H 0.562(3) 0.854(2) 0.5031(18)
Co1 Co 0.56226(3) 0.85068(3) 0.32576(2)
Co2 Co 0.34180(3) 0.87608(3) 0.46689(2)
N3A N 0.7083(2) 0.7817(2) 0.38777(16)
O3A O 0.19607(17) 0.80020(17) 0.56152(12)
O4_2 O 0.71930(18) 1.04567(17) 0.30354(13)
O5A O 0.40268(18) 0.89969(19) 0.25392(13)
O6A O 0.25717(18) 0.93164(18) 0.34651(12)
O8A O 0.45717(17) 1.08966(17) 0.53096(12)
Co1_2 Co -0.43774(3) -0.14932(3) 0.32576(2)
Co1A Co -0.56226(3) 0.14932(3) -0.32576(2)
Co1A_2 Co 0.43774(3) 0.14932(3) -0.32576(2)
Co2A Co -0.34180(3) 0.12392(3) -0.46689(2)
Co2A_2 Co -0.34180(3) 0.12392(3) 0.53311(2)
Co2A_3 Co 0.65820(3) 1.12392(3) 0.53311(2)
O9 O 0.3342(3) 1.2176(3) 0.37189(19)
loop_
_geom_bond_atom_site_label_1
_geom_bond_atom_site_label_2
_geom_bond_site_symmetry_1
_geom_bond_site_symmetry_2
C1 C2 1_555 1_555
C2 C3 1_555 1_555
C3 H1 1_555 1_555
C4 C3 1_555 1_555
C5 C4 1_555 1_555
H2 C5 1_555 1_555
C6 C5 1_555 1_555
C7 C2 1_555 1_555
H3 C7 1_555 1_555
C8 C6 1_555 1_555
C9 C10 1_555 1_555
C10 H4 1_555 1_555
C11 C10 1_555 1_555
H5 C11 1_555 1_555
C12 C11 1_555 1_555
C13 C12 1_555 1_555
H6 C13 1_555 1_555
C14 C9 1_555 1_555
H7 C14 1_555 1_555
C15 C12 1_555 1_555
C16 H8 1_555 1_555
C17 H9 1_555 1_555
C18 C17 1_555 1_555
H10 C18 1_555 1_555
C19 H11 1_555 1_555
H12 C19 1_555 1_555
C20 C19 1_555 1_555
C21 C20 1_555 1_555
H13 C21 1_555 1_555
C22 C21 1_555 1_555
C23 C22 1_555 1_555
H14 C23 1_555 1_555
C24 C23 1_555 1_555
H15 C24 1_555 1_555
C25 C20 1_555 1_555
H16 C25 1_555 1_555
C26 C22 1_555 1_555
H17 C26 1_555 1_555
H18 C26 1_555 1_555
C27 H19 1_555 1_555
C28 H20 1_555 1_555
C29 C28 1_555 1_555
H21 C29 1_555 1_555
N1 C16 1_555 1_555
N2 C16 1_555 1_555
N3 C27 1_555 1_555
N4 C26 1_555 1_555
O1 C1 1_555 1_555
O2 C1 1_555 1_555
O3 C8 1_555 1_555
O4 C8 1_555 1_555
O5 C15 1_555 1_555
O6 C15 1_555 1_555
O7 C4 1_555 1_555
O8 H22 1_555 1_555
Co1 N1 1_555 1_555
Co2 O1 1_555 1_555
N3A Co1 1_555 1_555
O3A Co2 1_555 1_555
O4_2 Co1 1_555 1_555
O5A Co1 1_555 1_555
O6A Co2 1_555 1_555
O8A Co2 1_555 1_555
Co1_2 O4 1_555 1_555
Co1A O5 1_555 1_555
Co1A_2 N3 1_555 1_555
Co2A O6 1_555 1_555
Co2A_2 O3 1_555 1_555
Co2A_3 O8 1_555 1_555
C6 C7 1_555 1_555
C9 O7 1_555 1_555
C13 C14 1_555 1_555
C17 N1 1_555 1_555
C18 N2 1_555 1_555
C19 N2 1_555 1_555
C24 C25 1_555 1_555
C27 N4 1_555 1_555
C28 N3 1_555 1_555
C29 N4 1_555 1_555
O2 Co1 1_555 1_555
O8 Co1 1_555 1_555
O8 Co2 1_555 1_555
O8A Co2A_3 1_555 1_555

#END
