
#######################################################################
#
#                 Cambridge Crystallographic Data Centre
#                                CCDC 
#
#######################################################################
#
# If this CIF has been generated from an entry in the Cambridge 
# Structural Database, then it will include bibliographic, chemical, 
# crystal, experimental, refinement or atomic coordinate data resulting 
# from the CCDC's data processing and validation procedures.
#
#######################################################################

data_SIDMAV
_symmetry_cell_setting           triclinic
_symmetry_space_group_name_H-M   'P -1'
_symmetry_Int_Tables_number      2
_space_group_name_Hall           '-P 1'
loop_
_symmetry_equiv_pos_site_id
_symmetry_equiv_pos_as_xyz
1 x,y,z
2 -x,-y,-z
_cell_length_a                   9.5727(11)
_cell_length_b                   11.6322(13)
_cell_length_c                   12.3114(13)
_cell_angle_alpha                86.020(2)
_cell_angle_beta                 76.379(2)
_cell_angle_gamma                78.833(2)
_cell_volume                     1306.7
loop_
_atom_site_label
_atom_site_type_symbol
_atom_site_fract_x
_atom_site_fract_y
_atom_site_fract_z
C1 C 0.4926(7) -0.2521(6) -0.1200(6)
C2 C 0.4148(7) -0.1283(5) -0.0861(6)
C3 C 0.3771(8) -0.0437(6) -0.1636(6)
H1 H 0.4089 -0.0608 -0.2408
C4 C 0.2949(8) 0.0647(6) -0.1327(6)
H2 H 0.2686 0.1207 -0.1877
C5 C 0.2511(7) 0.0911(6) -0.0206(6)
C6 C 0.2951(7) 0.0091(6) 0.0574(6)
H3 H 0.2697 0.0287 0.1341
C7 C 0.3746(7) -0.0999(6) 0.0267(6)
H4 H 0.4019 -0.1554 0.0817
C8 C 0.1373(7) 0.2909(5) -0.0472(5)
C9 C -0.0031(7) 0.3307(6) -0.0608(5)
H5 H -0.0796 0.2897 -0.0267
C10 C -0.0308(7) 0.4329(5) -0.1259(5)
C11 C 0.0830(7) 0.4897(6) -0.1773(5)
H6 H 0.0655 0.5568 -0.2242
C12 C 0.2242(7) 0.4480(6) -0.1602(5)
C13 C 0.2506(7) 0.3480(5) -0.0949(5)
H7 H 0.3459 0.3191 -0.0832
C14 C 0.3515(7) 0.5082(5) -0.2103(6)
C15 C -0.1863(7) 0.4741(6) -0.1388(6)
C16 C 0.8138(7) 0.7061(6) -0.4232(6)
H8 H 0.8265 0.7297 -0.3544
C17 C 0.7407(8) 0.6241(6) -0.5442(6)
H9 H 0.6911 0.5776 -0.5771
C18 C 0.8404(8) 0.6875(6) -0.6015(6)
H10 H 0.8717 0.6947 -0.6804
C19 C 0.9904(7) 0.8194(6) -0.5472(6)
H11 H 1.0800 0.7831 -0.6006
H12 H 1.0181 0.8331 -0.4772
C20 C 0.9282(8) 0.9351(6) -0.5953(6)
C21 C 1.0039(8) 0.9809(6) -0.6944(6)
H13 H 1.0948 0.9378 -0.7328
C22 C 0.9481(9) 1.0883(6) -0.7373(6)
H14 H 1.0011 1.1189 -0.8046
C23 C 0.8154(9) 1.1515(7) -0.6825(6)
H15 H 0.7778 1.2258 -0.7116
C24 C 0.7362(8) 1.1054(6) -0.5838(6)
C25 C 0.7925(7) 0.9985(6) -0.5423(6)
H16 H 0.7381 0.9668 -0.4762
C26 C 0.5915(8) 1.1751(6) -0.5248(6)
H17 H 0.5486 1.2290 -0.5791
H18 H 0.5230 1.1212 -0.4929
C27 C 0.6340(7) 1.3552(6) -0.4449(6)
H19 H 0.6366 1.4020 -0.5115
C28 C 0.6146(7) 1.2046(6) -0.3270(6)
H20 H 0.6025 1.1294 -0.2952
C29 C 0.6385(7) 1.2960(6) -0.2752(6)
H21 H 0.6452 1.2951 -0.1994
N1 N 0.7220(6) 0.6371(5) -0.4306(5)
N2 N 0.8872(6) 0.7389(5) -0.5235(5)
N3 N 0.6519(6) 1.3912(5) -0.3500(5)
N4 N 0.6113(6) 1.2432(5) -0.4346(5)
O1 O 0.5119(5) -0.3244(4) -0.0402(4)
O2 O 0.5316(5) -0.2721(4) -0.2231(4)
O3 O 0.4554(4) 0.4954(4) -0.1598(4)
O4 O 0.3586(5) 0.5623(4) -0.3021(4)
O5 O -0.2028(4) 0.5379(4) -0.2236(4)
O6 O -0.2831(5) 0.4380(4) -0.0657(4)
O7 O 0.1597(5) 0.1916(4) 0.0230(4)
Co1 Co 0.5000 0.5000 0.0000
Co2 Co 0.61191(10) 0.56246(8) -0.28513(8)
C1A C -0.4926(7) 1.2521(6) 0.1200(6)
C2A C -0.4148(7) 1.1283(5) 0.0861(6)
C3A C -0.3771(8) 1.0437(6) 0.1636(6)
H1A H -0.4089 1.0608 0.2408
C4A C -0.2949(8) 0.9353(6) 0.1327(6)
H2A H -0.2686 0.8793 0.1877
C5A C -0.2511(7) 0.9089(6) 0.0206(6)
C6A C -0.2951(7) 0.9909(6) -0.0574(6)
H3A H -0.2697 0.9713 -0.1341
C7A C -0.3746(7) 1.0999(6) -0.0267(6)
H4A H -0.4019 1.1554 -0.0817
C8A C -0.1373(7) 0.7091(5) 0.0472(5)
C9A C 0.0031(7) 0.6693(6) 0.0608(5)
H5A H 0.0796 0.7103 0.0267
C10A C 0.0308(7) 0.5671(5) 0.1259(5)
C11A C -0.0830(7) 0.5103(6) 0.1773(5)
H6A H -0.0655 0.4432 0.2242
C12A C -0.2242(7) 0.5520(6) 0.1602(5)
C13A C -0.2506(7) 0.6520(5) 0.0949(5)
H7A H -0.3459 0.6809 0.0832
C14A C -0.3515(7) 0.4918(5) 0.2103(6)
C15A C 0.1863(7) 0.5259(6) 0.1388(6)
C16A C -0.8138(7) 0.2939(6) 0.4232(6)
H8A H -0.8265 0.2703 0.3544
C17A C -0.7407(8) 0.3759(6) 0.5442(6)
H9A H -0.6911 0.4224 0.5771
C18A C -0.8404(8) 0.3125(6) 0.6015(6)
H10A H -0.8717 0.3053 0.6804
C19A C -0.9904(7) 0.1806(6) 0.5472(6)
H11A H -1.0800 0.2169 0.6006
H12A H -1.0181 0.1669 0.4772
C20A C -0.9282(8) 0.0649(6) 0.5953(6)
C21A C -1.0039(8) 0.0191(6) 0.6944(6)
H13A H -1.0948 0.0622 0.7328
C22A C -0.9481(9) -0.0883(6) 0.7373(6)
H14A H -1.0011 -0.1189 0.8046
C23A C -0.8154(9) -0.1515(7) 0.6825(6)
H15A H -0.7778 -0.2258 0.7116
C24A C -0.7362(8) -0.1054(6) 0.5838(6)
C25A C -0.7925(7) 0.0015(6) 0.5423(6)
H16A H -0.7381 0.0332 0.4762
C26A C -0.5915(8) -0.1751(6) 0.5248(6)
H17A H -0.5486 -0.2290 0.5791
H18A H -0.5230 -0.1212 0.4929
C27A C -0.6340(7) -0.3552(6) 0.4449(6)
H19A H -0.6366 -0.4020 0.5115
C28A C -0.6146(7) -0.2046(6) 0.3270(6)
H20A H -0.6025 -0.1294 0.2952
C29A C -0.6385(7) -0.2960(6) 0.2752(6)
H21A H -0.6452 -0.2951 0.1994
N1A N -0.7220(6) 0.3629(5) 0.4306(5)
N2A N -0.8872(6) 0.2611(5) 0.5235(5)
N3A N -0.6519(6) -0.3912(5) 0.3500(5)
N4A N -0.6113(6) -0.2432(5) 0.4346(5)
O1A O -0.5119(5) 1.3244(4) 0.0402(4)
O2A O -0.5316(5) 1.2721(4) 0.2231(4)
O3A O -0.4554(4) 0.5046(4) 0.1598(4)
O4A O -0.3586(5) 0.4377(4) 0.3021(4)
O5A O 0.2028(4) 0.4621(4) 0.2236(4)
O6A O 0.2831(5) 0.5620(4) 0.0657(4)
O7A O -0.1597(5) 0.8084(4) -0.0230(4)
Co2A Co -0.61191(10) 0.43754(8) 0.28513(8)
N3_2 N 0.6519(6) 0.3912(5) -0.3500(5)
N3A_2 N -0.6519(6) 0.6088(5) 0.3500(5)
O1_2 O 0.5119(5) 0.6756(4) -0.0402(4)
O1A_2 O 0.4881(5) 0.3244(4) 0.0402(4)
O2_2 O 0.5316(5) 0.7279(4) -0.2231(4)
O2A_2 O -0.5316(5) 0.2721(4) 0.2231(4)
O3A_2 O 0.5446(4) 0.5046(4) 0.1598(4)
O5_2 O 0.7972(4) 0.5379(4) -0.2236(4)
O5A_2 O -0.7972(4) 0.4621(4) 0.2236(4)
O6_2 O 0.7169(5) 0.4380(4) -0.0657(4)
Co1_2 Co -0.5000 0.5000 0.0000
Co1_3 Co -0.5000 1.5000 0.0000
Co1_4 Co 0.5000 -0.5000 0.0000
Co2_2 Co -0.38809(10) 0.56246(8) -0.28513(8)
Co2_3 Co 0.61191(10) -0.43754(8) -0.28513(8)
Co2_4 Co 0.61191(10) 1.56246(8) -0.28513(8)
Co2A_2 Co -0.61191(10) -0.56246(8) 0.28513(8)
Co2A_3 Co -0.61191(10) 1.43754(8) 0.28513(8)
Co2A_4 Co 0.38809(10) 0.43754(8) 0.28513(8)
loop_
_geom_bond_atom_site_label_1
_geom_bond_atom_site_label_2
_geom_bond_site_symmetry_1
_geom_bond_site_symmetry_2
C1 C2 1_555 1_555
C2 C3 1_555 1_555
C3 H1 1_555 1_555
C4 C3 1_555 1_555
H2 C4 1_555 1_555
C5 C4 1_555 1_555
C6 C5 1_555 1_555
H3 C6 1_555 1_555
C7 C2 1_555 1_555
H4 C7 1_555 1_555
C8 C9 1_555 1_555
C9 H5 1_555 1_555
C10 C9 1_555 1_555
C11 C10 1_555 1_555
H6 C11 1_555 1_555
C12 C11 1_555 1_555
C13 C8 1_555 1_555
H7 C13 1_555 1_555
C14 C12 1_555 1_555
C15 C10 1_555 1_555
C16 H8 1_555 1_555
C17 H9 1_555 1_555
C18 C17 1_555 1_555
H10 C18 1_555 1_555
C19 H11 1_555 1_555
H12 C19 1_555 1_555
C20 C19 1_555 1_555
C21 C20 1_555 1_555
H13 C21 1_555 1_555
C22 C21 1_555 1_555
H14 C22 1_555 1_555
C23 C22 1_555 1_555
H15 C23 1_555 1_555
C24 C23 1_555 1_555
C25 C20 1_555 1_555
H16 C25 1_555 1_555
C26 C24 1_555 1_555
H17 C26 1_555 1_555
H18 C26 1_555 1_555
C27 H19 1_555 1_555
C28 H20 1_555 1_555
C29 C28 1_555 1_555
H21 C29 1_555 1_555
N1 C16 1_555 1_555
N2 C16 1_555 1_555
N3 C27 1_555 1_555
N4 C26 1_555 1_555
O1 C1 1_555 1_555
O2 C1 1_555 1_555
O3 C14 1_555 1_555
O4 C14 1_555 1_555
O5 C15 1_555 1_555
O6 C15 1_555 1_555
O7 C5 1_555 1_555
Co1 O3 1_555 1_555
Co2 N1 1_555 1_555
C1A C2A 1_555 1_555
C2A C3A 1_555 1_555
C3A H1A 1_555 1_555
C4A C3A 1_555 1_555
H2A C4A 1_555 1_555
C5A C4A 1_555 1_555
C6A C5A 1_555 1_555
H3A C6A 1_555 1_555
C7A C2A 1_555 1_555
H4A C7A 1_555 1_555
C8A C9A 1_555 1_555
C9A H5A 1_555 1_555
C10A C9A 1_555 1_555
C11A C10A 1_555 1_555
H6A C11A 1_555 1_555
C12A C11A 1_555 1_555
C13A C8A 1_555 1_555
H7A C13A 1_555 1_555
C14A C12A 1_555 1_555
C15A C10A 1_555 1_555
C16A H8A 1_555 1_555
C17A H9A 1_555 1_555
C18A C17A 1_555 1_555
H10A C18A 1_555 1_555
C19A H11A 1_555 1_555
H12A C19A 1_555 1_555
C20A C19A 1_555 1_555
C21A C20A 1_555 1_555
H13A C21A 1_555 1_555
C22A C21A 1_555 1_555
H14A C22A 1_555 1_555
C23A C22A 1_555 1_555
H15A C23A 1_555 1_555
C24A C23A 1_555 1_555
C25A C20A 1_555 1_555
H16A C25A 1_555 1_555
C26A C24A 1_555 1_555
H17A C26A 1_555 1_555
H18A C26A 1_555 1_555
C27A H19A 1_555 1_555
C28A H20A 1_555 1_555
C29A C28A 1_555 1_555
H21A C29A 1_555 1_555
N1A C16A 1_555 1_555
N2A C16A 1_555 1_555
N3A C27A 1_555 1_555
N4A C26A 1_555 1_555
O1A C1A 1_555 1_555
O2A C1A 1_555 1_555
O3A C14A 1_555 1_555
O4A C14A 1_555 1_555
O5A C15A 1_555 1_555
O6A Co1 1_555 1_555
O7A C5A 1_555 1_555
Co2A N1A 1_555 1_555
N3_2 Co2 1_555 1_555
N3A_2 Co2A 1_555 1_555
O1_2 Co1 1_555 1_555
O1A_2 Co1 1_555 1_555
O2_2 Co2 1_555 1_555
O2A_2 Co2A 1_555 1_555
O3A_2 Co1 1_555 1_555
O5_2 Co2 1_555 1_555
O5A_2 Co2A 1_555 1_555
O6_2 Co1 1_555 1_555
Co1_2 O6 1_555 1_555
Co1_3 O1A 1_555 1_555
Co1_4 O1 1_555 1_555
Co2_2 O5 1_555 1_555
Co2_3 O2 1_555 1_555
Co2_4 N3 1_555 1_555
Co2A_2 N3A 1_555 1_555
Co2A_3 O2A 1_555 1_555
Co2A_4 O5A 1_555 1_555
C6 C7 1_555 1_555
C8 O7 1_555 1_555
C12 C13 1_555 1_555
C17 N1 1_555 1_555
C18 N2 1_555 1_555
C19 N2 1_555 1_555
C24 C25 1_555 1_555
C27 N4 1_555 1_555
C28 N4 1_555 1_555
C29 N3 1_555 1_555
O3 Co2 1_555 1_555
C6A C7A 1_555 1_555
C8A O7A 1_555 1_555
C12A C13A 1_555 1_555
C15A O6A 1_555 1_555
C17A N1A 1_555 1_555
C18A N2A 1_555 1_555
C19A N2A 1_555 1_555
C24A C25A 1_555 1_555
C27A N4A 1_555 1_555
C28A N4A 1_555 1_555
C29A N3A 1_555 1_555
O3A Co2A 1_555 1_555
O3A Co1_2 1_555 1_555
O3A_2 Co2A_4 1_555 1_555

#END
