
#######################################################################
#
#                 Cambridge Crystallographic Data Centre
#                                CCDC 
#
#######################################################################
#
# If this CIF has been generated from an entry in the Cambridge 
# Structural Database, then it will include bibliographic, chemical, 
# crystal, experimental, refinement or atomic coordinate data resulting 
# from the CCDC's data processing and validation procedures.
#
#######################################################################

data_SIDPUR
_symmetry_cell_setting           monoclinic
_symmetry_space_group_name_H-M   'P 21/c'
_symmetry_Int_Tables_number      14
_space_group_name_Hall           '-P 2ybc'
loop_
_symmetry_equiv_pos_site_id
_symmetry_equiv_pos_as_xyz
1 x,y,z
2 -x,1/2+y,1/2-z
3 -x,-y,-z
4 x,1/2-y,1/2+z
_cell_length_a                   12.666(4)
_cell_length_b                   7.293(3)
_cell_length_c                   25.035(7)
_cell_angle_alpha                90
_cell_angle_beta                 98.98(4)
_cell_angle_gamma                90
_cell_volume                     2284.22
loop_
_atom_site_label
_atom_site_type_symbol
_atom_site_fract_x
_atom_site_fract_y
_atom_site_fract_z
Na1 Na 0.33312(10) 0.8866(2) 0.44312(5)
Na2 Na 0.12974(9) 0.57808(17) 0.48038(5)
O1 O 0.39402(17) 0.7878(3) 0.52998(8)
O2 O 0.26776(16) 0.6019(3) 0.55172(8)
C1 C 0.3486(2) 0.7031(5) 0.56376(12)
C2 C 0.3936(2) 0.7262(4) 0.62204(11)
H1 H 0.4563 0.7933 0.6311
C3 C 0.3480(2) 0.6553(4) 0.66144(11)
H2 H 0.2858 0.5891 0.6502
C4 C 0.3812(2) 0.6658(4) 0.72013(11)
C5 C 0.3130(2) 0.5976(4) 0.75411(11)
H3 H 0.2477 0.5472 0.7390
C6 C 0.3404(2) 0.6032(4) 0.80966(11)
C7 C 0.4396(2) 0.6732(4) 0.83234(11)
C8 C 0.5075(2) 0.7389(4) 0.79906(11)
H4 H 0.5738 0.7856 0.8142
C9 C 0.4790(2) 0.7368(4) 0.74365(11)
H5 H 0.5258 0.7834 0.7219
O3 O 0.27681(15) 0.5463(3) 0.84624(8)
C10 C 0.1704(2) 0.4944(5) 0.82536(12)
H6 H 0.1340 0.4583 0.8546
H7 H 0.1337 0.5963 0.8065
H8 H 0.1714 0.3935 0.8008
O4 O 0.46180(17) 0.6767(3) 0.88757(8)
H9 H 0.528(3) 0.710(5) 0.8988(14)
O5 O 0.16506(17) 0.4491(3) 0.06473(8)
O6 O 0.02410(16) 0.5765(3) 0.09305(8)
C11 C 0.1150(2) 0.5074(4) 0.10141(12)
C12 C 0.1691(2) 0.4847(4) 0.15868(11)
H10 H 0.2402 0.4478 0.1652
C13 C 0.1189(2) 0.5155(4) 0.19976(12)
H11 H 0.0489 0.5567 0.1909
C14 C 0.1575(2) 0.4940(4) 0.25752(11)
C15 C 0.0861(2) 0.5203(4) 0.29383(11)
H12 H 0.0150 0.5467 0.2806
C16 C 0.1180(2) 0.5080(4) 0.34902(11)
C17 C 0.2248(2) 0.4692(5) 0.36886(11)
C18 C 0.2956(2) 0.4409(5) 0.33344(12)
H13 H 0.3666 0.4144 0.3467
C19 C 0.2624(2) 0.4511(4) 0.27814(12)
H14 H 0.3111 0.4290 0.2546
O7 O 0.05232(16) 0.5353(3) 0.38677(8)
C20 C -0.0592(2) 0.5220(5) 0.36935(13)
H15 H -0.0963 0.5439 0.3994
H16 H -0.0763 0.4015 0.3551
H17 H -0.0808 0.6116 0.3417
O8 O 0.25339(18) 0.4685(4) 0.42370(8)
H18 H 0.309(3) 0.392(6) 0.4334(17)
O9 O 0.3913(2) 1.2020(4) 0.46265(9)
H19 H 0.469(4) 1.205(5) 0.4632(15)
H20 H 0.380(4) 1.212(7) 0.4899(17)
O10 O 0.03909(18) 0.3022(3) 0.49564(9)
H21 H 0.018(3) 0.249(5) 0.4700(15)
H22 H 0.073(3) 0.226(5) 0.5185(15)
O11 O 0.15982(18) 0.8987(3) 0.46169(9)
H23 H 0.106(3) 0.942(5) 0.4414(15)
H24 H 0.162(3) 0.935(5) 0.4931(16)
Na1C Na 0.33312(10) 0.6134(2) 0.94312(5)
Na2B Na -0.12974(9) 0.42192(17) 0.51962(5)
O3C O 0.27681(15) 0.9537(3) 0.34624(8)
O4C O 0.46180(17) 0.8233(3) 0.38757(8)
H9C H 0.528(3) 0.790(5) 0.3988(14)
O10B O -0.03909(18) 0.6978(3) 0.50436(9)
H21B H -0.018(3) 0.751(5) 0.5300(15)
H22B H -0.073(3) 0.774(5) 0.4815(15)
O12 O 0.65810(18) 0.7479(4) 0.43144(10)
H25 H 0.680(3) 0.634(6) 0.4327(15)
H26 H 0.712(3) 0.820(5) 0.4278(15)
loop_
_geom_bond_atom_site_label_1
_geom_bond_atom_site_label_2
_geom_bond_site_symmetry_1
_geom_bond_site_symmetry_2
Na1 O1 1_555 1_555
Na2 O2 1_555 1_555
O1 C1 1_555 1_555
O2 C1 1_555 1_555
C1 C2 1_555 1_555
C2 H1 1_555 1_555
C3 C2 1_555 1_555
H2 C3 1_555 1_555
C4 C3 1_555 1_555
C5 C4 1_555 1_555
H3 C5 1_555 1_555
C6 C5 1_555 1_555
C7 C6 1_555 1_555
C8 C7 1_555 1_555
H4 C8 1_555 1_555
C9 C4 1_555 1_555
H5 C9 1_555 1_555
O3 C6 1_555 1_555
C10 O3 1_555 1_555
H6 C10 1_555 1_555
H7 C10 1_555 1_555
H8 C10 1_555 1_555
O4 C7 1_555 1_555
H9 O4 1_555 1_555
O5 C11 1_555 1_555
O6 C11 1_555 1_555
C11 C12 1_555 1_555
C12 H10 1_555 1_555
C13 C12 1_555 1_555
H11 C13 1_555 1_555
C14 C13 1_555 1_555
C15 C14 1_555 1_555
H12 C15 1_555 1_555
C16 C15 1_555 1_555
C17 C16 1_555 1_555
C18 C17 1_555 1_555
H13 C18 1_555 1_555
C19 C14 1_555 1_555
H14 C19 1_555 1_555
O7 Na2 1_555 1_555
C20 O7 1_555 1_555
H15 C20 1_555 1_555
H16 C20 1_555 1_555
H17 C20 1_555 1_555
O8 Na2 1_555 1_555
H18 O8 1_555 1_555
O9 Na1 1_555 1_555
H19 O9 1_555 1_555
H20 O9 1_555 1_555
O10 Na2 1_555 1_555
H21 O10 1_555 1_555
H22 O10 1_555 1_555
O11 Na1 1_555 1_555
H23 O11 1_555 1_555
H24 O11 1_555 1_555
O12 H25 1_555 1_555
H26 O12 1_555 1_555
Na1C O3 1_555 1_555
Na2B O10 1_555 1_555
O3C Na1 1_555 1_555
O4C Na1 1_555 1_555
H9C O4C 1_555 1_555
O10B Na2 1_555 1_555
H21B O10B 1_555 1_555
H22B O10B 1_555 1_555
Na2 O11 1_555 1_555
C8 C9 1_555 1_555
O4 Na1C 1_555 1_555
C16 O7 1_555 1_555
C17 O8 1_555 1_555
C18 C19 1_555 1_555
Na2B O10B 1_555 1_555

#END
