
#######################################################################
#
#                 Cambridge Crystallographic Data Centre
#                                CCDC 
#
#######################################################################
#
# If this CIF has been generated from an entry in the Cambridge 
# Structural Database, then it will include bibliographic, chemical, 
# crystal, experimental, refinement or atomic coordinate data resulting 
# from the CCDC's data processing and validation procedures.
#
#######################################################################

data_SIDRUT
_symmetry_cell_setting           monoclinic
_symmetry_space_group_name_H-M   'P 21/n'
_symmetry_Int_Tables_number      14
_space_group_name_Hall           '-P 2yn'
loop_
_symmetry_equiv_pos_site_id
_symmetry_equiv_pos_as_xyz
1 x,y,z
2 1/2-x,1/2+y,1/2-z
3 -x,-y,-z
4 1/2+x,1/2-y,1/2+z
_cell_length_a                   4.8424(17)
_cell_length_b                   10.413(4)
_cell_length_c                   17.690(6)
_cell_angle_alpha                90
_cell_angle_beta                 94.056(7)
_cell_angle_gamma                90
_cell_volume                     889.765
loop_
_atom_site_label
_atom_site_type_symbol
_atom_site_fract_x
_atom_site_fract_y
_atom_site_fract_z
Tl1 Tl 0.96173(11) 0.16937(5) 0.93684(3)
O1 O 0.756(2) -0.0573(9) 0.9376(6)
O2 O 0.405(2) 0.0543(10) 0.8836(7)
O3 O -0.271(3) -0.1827(11) 0.7173(7)
O4 O -0.314(3) -0.3874(12) 0.7311(7)
O5 O 0.361(3) -0.6231(11) 0.8890(8)
O6 O 0.708(2) -0.5204(11) 0.9444(7)
N1 N -0.203(3) -0.2894(14) 0.7467(8)
N2 N 0.492(3) -0.5224(12) 0.9065(7)
C1 C 0.527(3) -0.0496(13) 0.9021(8)
C2 C 0.389(3) -0.1740(12) 0.8761(9)
C3 C 0.171(3) -0.1723(15) 0.8242(9)
H1 H 0.1043 -0.0953 0.8034
C4 C 0.045(4) -0.2901(14) 0.8021(9)
C5 C 0.150(3) -0.4072(14) 0.8271(8)
H2 H 0.0727 -0.4844 0.8098
C6 C 0.375(3) -0.4038(13) 0.8787(8)
C7 C 0.496(3) -0.2897(14) 0.9029(9)
H3 H 0.6506 -0.2906 0.9373
Tl1B Tl 1.03827(11) -0.16937(5) 1.06316(3)
Tl1_2 Tl -0.03827(11) 0.16937(5) 0.93684(3)
Tl1A Tl -0.46173(11) -0.33063(5) 0.56316(3)
Tl1_3 Tl -0.03827(11) -0.83063(5) 0.93684(3)
Tl1_4 Tl 0.96173(11) -0.83063(5) 0.93684(3)
O1B O 1.244(2) 0.0573(9) 1.0624(6)
O2_2 O 1.405(2) 0.0543(10) 0.8836(7)
O3A O 0.771(3) 0.3173(11) 0.7827(7)
O4A O 0.814(3) 0.1126(12) 0.7689(7)
O5_2 O 1.361(3) 0.3769(11) 0.8890(8)
O6_2 O 0.708(2) 0.4796(11) 0.9444(7)
loop_
_geom_bond_atom_site_label_1
_geom_bond_atom_site_label_2
_geom_bond_site_symmetry_1
_geom_bond_site_symmetry_2
Tl1 O1 1_555 1_555
O1 C1 1_555 1_555
O2 Tl1 1_555 1_555
O3 N1 1_555 1_555
O4 N1 1_555 1_555
O5 N2 1_555 1_555
O6 N2 1_555 1_555
N1 C4 1_555 1_555
N2 C6 1_555 1_555
C1 O2 1_555 1_555
C2 C1 1_555 1_555
C3 C2 1_555 1_555
H1 C3 1_555 1_555
C4 C3 1_555 1_555
C5 C4 1_555 1_555
H2 C5 1_555 1_555
C6 C5 1_555 1_555
C7 C2 1_555 1_555
H3 C7 1_555 1_555
Tl1B O1 1_555 1_555
Tl1_2 O2 1_555 1_555
Tl1A O3 1_555 1_555
Tl1_3 O5 1_555 1_555
Tl1_4 O6 1_555 1_555
O1B Tl1 1_555 1_555
O2_2 Tl1 1_555 1_555
O3A Tl1 1_555 1_555
O4A Tl1 1_555 1_555
O5_2 Tl1 1_555 1_555
O6_2 Tl1 1_555 1_555
O4 Tl1A 1_555 1_555
C6 C7 1_555 1_555
Tl1B O1B 1_555 1_555

#END
