
#######################################################################
#
#                 Cambridge Crystallographic Data Centre
#                                CCDC 
#
#######################################################################
#
# If this CIF has been generated from an entry in the Cambridge 
# Structural Database, then it will include bibliographic, chemical, 
# crystal, experimental, refinement or atomic coordinate data resulting 
# from the CCDC's data processing and validation procedures.
#
#######################################################################

data_SIDWOS
_symmetry_cell_setting           monoclinic
_symmetry_space_group_name_H-M   'P 21/n'
_symmetry_Int_Tables_number      14
_space_group_name_Hall           '-P 2yn'
loop_
_symmetry_equiv_pos_site_id
_symmetry_equiv_pos_as_xyz
1 x,y,z
2 1/2-x,1/2+y,1/2-z
3 -x,-y,-z
4 1/2+x,1/2-y,1/2+z
_cell_length_a                   13.0410(10)
_cell_length_b                   7.4238(6)
_cell_length_c                   19.892(2)
_cell_angle_alpha                90
_cell_angle_beta                 93.237(2)
_cell_angle_gamma                90
_cell_volume                     1922.75
loop_
_atom_site_label
_atom_site_type_symbol
_atom_site_fract_x
_atom_site_fract_y
_atom_site_fract_z
Ag1 Ag 0.310760(9) 0.400922(18) 0.712012(6)
P1 P 0.48873(3) 0.31621(6) 0.70834(2)
C1 C 0.55189(12) 0.3541(2) 0.62978(8)
C2 C 0.52561(14) 0.2467(3) 0.57400(9)
C3 C 0.56793(16) 0.2780(3) 0.51258(9)
C4 C 0.63675(17) 0.4157(3) 0.50560(10)
C5 C 0.66336(17) 0.5255(3) 0.56041(11)
C6 C 0.62098(14) 0.4954(3) 0.62207(9)
C7 C 0.57291(12) 0.4336(2) 0.77007(8)
C8 C 0.53967(14) 0.5969(2) 0.79610(9)
C9 C 0.60223(16) 0.6934(3) 0.84271(10)
C10 C 0.69795(16) 0.6258(3) 0.86405(10)
C11 C 0.73141(13) 0.4634(3) 0.83867(9)
C12 C 0.66998(13) 0.3678(3) 0.79167(9)
C13 C 0.51033(14) 0.0777(2) 0.72621(10)
S1 S 0.28375(3) 0.76454(5) 0.69020(2)
S2 S 0.16159(3) 0.46510(5) 0.62531(2)
C14 C 0.18899(11) 0.6920(2) 0.63136(7)
N1 N 0.14132(10) 0.80931(18) 0.58949(6)
C15 C 0.16268(12) 1.0038(2) 0.59267(8)
C16 C 0.25105(15) 1.0552(2) 0.54971(10)
C17 C 0.06893(13) 0.7504(2) 0.53424(8)
C18 C -0.04029(14) 0.7342(3) 0.55646(9)
H1 H 0.47849 0.14970 0.57870
H2 H 0.54854 0.20332 0.47501
H3 H 0.66665 0.43641 0.46345
H4 H 0.71103 0.62233 0.55584
H5 H 0.63941 0.57108 0.65960
H6 H 0.47365 0.64301 0.78180
H7 H 0.57930 0.80556 0.85977
H8 H 0.74053 0.68995 0.89635
H9 H 0.79691 0.41706 0.85375
H10 H 0.69390 0.25705 0.77398
H11 H 0.47925 0.04521 0.76680
H12 H 0.58169 0.05282 0.73087
H13 H 0.48013 0.00633 0.69021
H14 H 0.17916 1.03693 0.63819
H15 H 0.10243 1.06755 0.57679
H16 H 0.26329 1.18095 0.55264
H17 H 0.23487 1.02287 0.50410
H18 H 0.31160 0.99224 0.56550
H19 H 0.09040 0.63587 0.51827
H20 H 0.07022 0.83524 0.49825
H21 H -0.08504 0.69653 0.52008
H22 H -0.06250 0.84871 0.57229
H23 H -0.04233 0.64934 0.59231
Ag1A Ag 0.189240(9) 0.900922(18) 0.787988(6)
S1A S 0.21625(3) 0.26454(5) 0.80980(2)
loop_
_geom_bond_atom_site_label_1
_geom_bond_atom_site_label_2
_geom_bond_site_symmetry_1
_geom_bond_site_symmetry_2
Ag1 P1 1_555 1_555
P1 C1 1_555 1_555
C1 C2 1_555 1_555
C2 C3 1_555 1_555
C3 C4 1_555 1_555
C4 C5 1_555 1_555
C5 C6 1_555 1_555
C6 C1 1_555 1_555
C7 P1 1_555 1_555
C8 C7 1_555 1_555
C9 C8 1_555 1_555
C10 C9 1_555 1_555
C11 C10 1_555 1_555
C12 C7 1_555 1_555
C13 P1 1_555 1_555
S1 Ag1 1_555 1_555
S2 Ag1 1_555 1_555
C14 S1 1_555 1_555
N1 C14 1_555 1_555
C15 N1 1_555 1_555
C16 C15 1_555 1_555
C17 N1 1_555 1_555
C18 C17 1_555 1_555
H1 C2 1_555 1_555
H2 C3 1_555 1_555
H3 C4 1_555 1_555
H4 C5 1_555 1_555
H5 C6 1_555 1_555
H6 C8 1_555 1_555
H7 C9 1_555 1_555
H8 C10 1_555 1_555
H9 C11 1_555 1_555
H10 C12 1_555 1_555
H11 C13 1_555 1_555
H12 C13 1_555 1_555
H13 C13 1_555 1_555
H14 C15 1_555 1_555
H15 C15 1_555 1_555
H16 C16 1_555 1_555
H17 C16 1_555 1_555
H18 C16 1_555 1_555
H19 C17 1_555 1_555
H20 C17 1_555 1_555
H21 C18 1_555 1_555
H22 C18 1_555 1_555
H23 C18 1_555 1_555
Ag1A S1 1_555 1_555
S1A Ag1 1_555 1_555
C11 C12 1_555 1_555
S2 C14 1_555 1_555

#END
