
#######################################################################
#
#                 Cambridge Crystallographic Data Centre
#                                CCDC 
#
#######################################################################
#
# If this CIF has been generated from an entry in the Cambridge 
# Structural Database, then it will include bibliographic, chemical, 
# crystal, experimental, refinement or atomic coordinate data resulting 
# from the CCDC's data processing and validation procedures.
#
#######################################################################

data_SIDWUZ
_symmetry_cell_setting           monoclinic
_symmetry_space_group_name_H-M   'P 21/c'
_symmetry_Int_Tables_number      14
_space_group_name_Hall           '-P 2ybc'
loop_
_symmetry_equiv_pos_site_id
_symmetry_equiv_pos_as_xyz
1 x,y,z
2 -x,1/2+y,1/2-z
3 -x,-y,-z
4 x,1/2-y,1/2+z
_cell_length_a                   13.0114(3)
_cell_length_b                   11.4886(2)
_cell_length_c                   19.3697(5)
_cell_angle_alpha                90
_cell_angle_beta                 100.042(1)
_cell_angle_gamma                90
_cell_volume                     2851.08
loop_
_atom_site_label
_atom_site_type_symbol
_atom_site_fract_x
_atom_site_fract_y
_atom_site_fract_z
K1 K -0.13599(3) 0.02504(4) 0.06960(2)
K2 K -0.35537(3) -0.11445(4) -0.02377(2)
O1 O -0.22156(12) -0.20403(13) 0.09805(8)
N1 N 0.15332(13) 0.10913(15) 0.05126(9)
H1 H 0.1493(16) 0.173(2) 0.0316(11)
N2 N -0.65626(12) -0.05754(14) -0.07618(9)
H2 H -0.6566(17) -0.0056(19) -0.1070(12)
C1 C 0.09920(13) 0.11294(16) 0.10502(9)
C2 C 0.09816(14) 0.01171(16) 0.14883(10)
C3 C 0.04074(15) 0.01120(18) 0.20292(10)
H3 H 0.0393(17) -0.054(2) 0.2312(12)
C4 C -0.01892(16) 0.10629(18) 0.21687(10)
H4 H -0.0583(18) 0.1042(19) 0.2542(12)
C5 C -0.01741(15) 0.20550(18) 0.17593(10)
H5 H -0.0589(17) 0.2700(19) 0.1849(11)
C6 C 0.03969(14) 0.21221(16) 0.12179(9)
C7 C 0.15807(15) -0.09570(17) 0.13327(11)
H6 H 0.2131(16) -0.0666(17) 0.1105(10)
C8 C 0.08844(19) -0.1747(2) 0.08103(14)
H7 H 0.0398(18) -0.2108(19) 0.1046(11)
H8 H 0.130(2) -0.238(2) 0.0649(14)
H9 H 0.050(2) -0.133(2) 0.0410(14)
C9 C 0.20526(19) -0.1643(2) 0.19830(14)
H10 H 0.249(2) -0.223(2) 0.1856(13)
H11 H 0.1511(19) -0.205(2) 0.2213(13)
H12 H 0.249(2) -0.115(2) 0.2331(14)
C10 C 0.04491(15) 0.32565(17) 0.08211(10)
H13 H 0.0458(17) 0.3108(19) 0.0319(12)
C11 C 0.14717(19) 0.3892(2) 0.10934(14)
H14 H 0.155(2) 0.460(2) 0.0832(14)
H15 H 0.146(2) 0.417(2) 0.1563(14)
H16 H 0.208(2) 0.337(2) 0.1114(13)
C12 C -0.0473(2) 0.4079(2) 0.08328(13)
H17 H -0.0467(19) 0.438(2) 0.1310(14)
H18 H -0.041(2) 0.477(2) 0.0515(14)
H19 H -0.115(2) 0.368(2) 0.0668(14)
C13 C -0.59266(13) -0.14488(15) -0.09020(9)
C14 C -0.57788(14) -0.24445(15) -0.04436(9)
C15 C -0.50979(15) -0.33317(16) -0.05563(10)
H20 H -0.5000(17) -0.400(2) -0.0226(12)
C16 C -0.45407(16) -0.33024(17) -0.11084(11)
H21 H -0.4099(18) -0.393(2) -0.1180(12)
C17 C -0.46901(15) -0.23577(17) -0.15651(10)
H22 H -0.4296(18) -0.2328(19) -0.1950(12)
C18 C -0.53526(14) -0.14403(16) -0.14774(9)
C19 C -0.54832(15) -0.04212(16) -0.19847(10)
H23 H -0.5517(14) 0.0285(17) -0.1704(10)
C20 C -0.45510(18) -0.0233(2) -0.23580(12)
H24 H -0.4602(19) 0.049(2) -0.2615(13)
H25 H -0.4531(19) -0.084(2) -0.2719(13)
H26 H -0.386(2) -0.023(2) -0.2039(13)
C21 C -0.64852(17) -0.0527(2) -0.25235(11)
H27 H -0.7065(18) -0.0713(19) -0.2306(12)
H28 H -0.641(2) -0.116(2) -0.2827(14)
H29 H -0.665(2) 0.024(2) -0.2789(14)
C22 C -0.63375(15) -0.24862(16) 0.01782(10)
H30 H -0.6980(16) -0.2031(17) 0.0041(10)
C23 C -0.66104(19) -0.37129(19) 0.03901(13)
H31 H -0.598(2) -0.415(2) 0.0593(13)
H32 H -0.7066(19) -0.366(2) 0.0758(13)
H33 H -0.700(2) -0.415(2) -0.0030(14)
C24 C -0.56870(18) -0.1861(2) 0.08046(11)
H34 H -0.5079(19) -0.234(2) 0.0973(12)
H35 H -0.605(2) -0.176(2) 0.1214(14)
H36 H -0.545(2) -0.107(2) 0.0660(14)
C25 C -0.1981(2) -0.1957(2) 0.17323(12)
H37 H -0.117(2) -0.208(2) 0.1900(14)
H38 H -0.215(2) -0.117(2) 0.1885(14)
C26 C -0.2579(2) -0.2935(2) 0.19952(13)
H39 H -0.226(2) -0.320(2) 0.2430(15)
H40 H -0.332(3) -0.264(3) 0.2031(16)
C27 C -0.2209(3) -0.3264(2) 0.08345(14)
H41 H -0.260(2) -0.341(3) 0.0365(16)
H42 H -0.147(3) -0.350(3) 0.0814(16)
C28 C -0.2629(2) -0.3866(2) 0.14218(14)
H43 H -0.333(3) -0.409(3) 0.1251(16)
H44 H -0.223(2) -0.451(3) 0.1576(16)
K1B K -0.86401(3) -0.02504(4) -0.06960(2)
K1B_2 K 0.13599(3) -0.02504(4) -0.06960(2)
K2B K -0.64463(3) 0.11445(4) 0.02377(2)
K2B_2 K 0.35537(3) 0.11445(4) 0.02377(2)
N1B N -0.15332(13) -0.10913(15) -0.05126(9)
N2B N -0.34374(12) 0.05754(14) 0.07618(9)
loop_
_geom_bond_atom_site_label_1
_geom_bond_atom_site_label_2
_geom_bond_site_symmetry_1
_geom_bond_site_symmetry_2
K1 O1 1_555 1_555
K2 O1 1_555 1_555
O1 C25 1_555 1_555
N1 H1 1_555 1_555
N2 H2 1_555 1_555
C1 K1 1_555 1_555
C2 K1 1_555 1_555
C3 K1 1_555 1_555
H3 C3 1_555 1_555
C4 K1 1_555 1_555
H4 C4 1_555 1_555
C5 K1 1_555 1_555
H5 C5 1_555 1_555
C6 K1 1_555 1_555
C7 C2 1_555 1_555
H6 C7 1_555 1_555
C8 C7 1_555 1_555
H7 C8 1_555 1_555
H8 C8 1_555 1_555
H9 C8 1_555 1_555
C9 C7 1_555 1_555
H10 C9 1_555 1_555
H11 C9 1_555 1_555
H12 C9 1_555 1_555
C10 C6 1_555 1_555
H13 C10 1_555 1_555
C11 C10 1_555 1_555
H14 C11 1_555 1_555
H15 C11 1_555 1_555
H16 C11 1_555 1_555
C12 C10 1_555 1_555
H17 C12 1_555 1_555
H18 C12 1_555 1_555
H19 C12 1_555 1_555
C13 K2 1_555 1_555
C14 K2 1_555 1_555
C15 K2 1_555 1_555
H20 C15 1_555 1_555
C16 K2 1_555 1_555
H21 C16 1_555 1_555
C17 K2 1_555 1_555
H22 C17 1_555 1_555
C18 K2 1_555 1_555
C19 C18 1_555 1_555
H23 C19 1_555 1_555
C20 C19 1_555 1_555
H24 C20 1_555 1_555
H25 C20 1_555 1_555
H26 C20 1_555 1_555
C21 C19 1_555 1_555
H27 C21 1_555 1_555
H28 C21 1_555 1_555
H29 C21 1_555 1_555
C22 C14 1_555 1_555
H30 C22 1_555 1_555
C23 C22 1_555 1_555
H31 C23 1_555 1_555
H32 C23 1_555 1_555
H33 C23 1_555 1_555
C24 C22 1_555 1_555
H34 C24 1_555 1_555
H35 C24 1_555 1_555
H36 C24 1_555 1_555
C25 H37 1_555 1_555
H38 C25 1_555 1_555
C26 C25 1_555 1_555
H39 C26 1_555 1_555
H40 C26 1_555 1_555
C27 O1 1_555 1_555
H41 C27 1_555 1_555
H42 C27 1_555 1_555
C28 C26 1_555 1_555
H43 C28 1_555 1_555
H44 C28 1_555 1_555
K1B N2 1_555 1_555
K1B_2 N1 1_555 1_555
K2B N2 1_555 1_555
K2B_2 N1 1_555 1_555
N1B K1 1_555 1_555
N2B K1 1_555 1_555
K2 N1B 1_555 1_555
K2 N2B 1_555 1_555
N1 C1 1_555 1_555
N2 C13 1_555 1_555
C1 C2 1_555 1_555
C1 C6 1_555 1_555
C2 C3 1_555 1_555
C3 C4 1_555 1_555
C4 C5 1_555 1_555
C5 C6 1_555 1_555
C13 C14 1_555 1_555
C13 C18 1_555 1_555
C14 C15 1_555 1_555
C15 C16 1_555 1_555
C16 C17 1_555 1_555
C17 C18 1_555 1_555
C27 C28 1_555 1_555

#END
