
#######################################################################
#
#                 Cambridge Crystallographic Data Centre
#                                CCDC 
#
#######################################################################
#
# If this CIF has been generated from an entry in the Cambridge 
# Structural Database, then it will include bibliographic, chemical, 
# crystal, experimental, refinement or atomic coordinate data resulting 
# from the CCDC's data processing and validation procedures.
#
#######################################################################

data_SIDXEJ
_symmetry_cell_setting           monoclinic
_symmetry_space_group_name_H-M   'P 21/c'
_symmetry_Int_Tables_number      14
_space_group_name_Hall           '-P 2ybc'
loop_
_symmetry_equiv_pos_site_id
_symmetry_equiv_pos_as_xyz
1 x,y,z
2 -x,1/2+y,1/2-z
3 -x,-y,-z
4 x,1/2-y,1/2+z
_cell_length_a                   14.880(2)
_cell_length_b                   12.035(2)
_cell_length_c                   18.025(2)
_cell_angle_alpha                90
_cell_angle_beta                 101.090(10)
_cell_angle_gamma                90
_cell_volume                     3167.65
loop_
_atom_site_label
_atom_site_type_symbol
_atom_site_fract_x
_atom_site_fract_y
_atom_site_fract_z
Ag1 Ag 0.79984(3) 0.47055(4) 0.74330(3)
S1 S 0.75811(12) 0.50815(14) 0.59544(9)
S2 S 0.65800(12) 0.60241(16) 0.70722(9)
C1 C 0.6706(4) 0.5890(5) 0.6164(3)
N1 N 0.6152(4) 0.6430(4) 0.5614(3)
C2 C 0.5318(5) 0.7034(6) 0.5749(4)
C3 C 0.5497(7) 0.8214(7) 0.5889(6)
C4 C 0.6299(6) 0.6457(7) 0.4817(4)
C5 C 0.5769(8) 0.5617(9) 0.4354(5)
P1 P 0.77355(10) 0.30489(12) 0.81466(8)
C6 C 0.7397(4) 0.3352(4) 0.9044(3)
C7 C 0.7222(5) 0.4440(5) 0.9200(4)
C8 C 0.6983(6) 0.4693(6) 0.9892(5)
C9 C 0.6923(6) 0.3905(8) 1.0416(4)
C10 C 0.7089(5) 0.2838(7) 1.0263(4)
C11 C 0.7322(5) 0.2564(5) 0.9581(3)
C12 C 0.6833(4) 0.2109(5) 0.7691(3)
C13 C 0.6059(5) 0.2560(6) 0.7268(4)
C14 C 0.5344(6) 0.1878(10) 0.6942(5)
C15 C 0.5386(7) 0.0794(10) 0.7012(5)
C16 C 0.6160(7) 0.0310(7) 0.7406(5)
C17 C 0.6887(5) 0.0971(6) 0.7759(4)
C18 C 0.8752(4) 0.2175(4) 0.8420(3)
C19 C 0.9159(4) 0.1877(4) 0.7738(3)
C20 C 1.0027(4) 0.1186(4) 0.7942(3)
P2 P 1.05129(10) 0.06542(11) 0.71507(7)
C21 C 1.0532(4) 0.1866(4) 0.6543(3)
C22 C 1.1376(4) 0.2360(5) 0.6549(3)
C23 C 1.1439(6) 0.3310(6) 0.6115(4)
C24 C 1.0663(7) 0.3738(5) 0.5678(4)
C25 C 0.9837(6) 0.3250(6) 0.5671(4)
C26 C 0.9759(5) 0.2315(5) 0.6091(3)
C27 C 0.9613(4) -0.0228(4) 0.6623(3)
C28 C 0.9649(4) -0.0484(5) 0.5883(3)
C29 C 0.9036(5) -0.1240(6) 0.5485(3)
C30 C 0.8406(5) -0.1746(5) 0.5827(4)
C31 C 0.8362(4) -0.1505(5) 0.6559(4)
C32 C 0.8963(4) -0.0740(5) 0.6957(3)
H1 H 0.51228 0.67144 0.61917
H2 H 0.48057 0.69324 0.53329
H3 H 0.49534 0.85903 0.59895
H4 H 0.56360 0.85500 0.54388
H5 H 0.59786 0.83274 0.62943
H6 H 0.69398 0.63583 0.47937
H7 H 0.61386 0.71948 0.45796
H8 H 0.58499 0.56107 0.38554
H9 H 0.51189 0.57557 0.43564
H10 H 0.59114 0.49117 0.45866
H11 H 0.72839 0.50205 0.88255
H12 H 0.68348 0.54829 0.99863
H13 H 0.67795 0.41193 1.09074
H14 H 0.70308 0.22633 1.06362
H15 H 0.74699 0.17995 0.94736
H16 H 0.60013 0.33860 0.71945
H17 H 0.47857 0.22150 0.66460
H18 H 0.48553 0.03255 0.67759
H19 H 0.61874 -0.04996 0.74385
H20 H 0.74464 0.06264 0.80724
H21 H 0.92111 0.25632 0.87923
H22 H 0.86031 0.15068 0.86716
H23 H 0.87094 0.14651 0.73843
H24 H 0.92844 0.25490 0.74844
H25 H 1.04935 0.16375 0.82616
H26 H 0.99107 0.05667 0.82507
H27 H 1.19274 0.20335 0.68710
H28 H 1.20400 0.36736 0.61296
H29 H 1.07028 0.43824 0.53659
H30 H 0.92915 0.35778 0.53606
H31 H 0.91562 0.19695 0.60785
H32 H 1.01086 -0.01236 0.56357
H33 H 0.90642 -0.14300 0.49633
H34 H 0.79755 -0.22862 0.55450
H35 H 0.79069 -0.18638 0.68050
H36 H 0.89188 -0.05618 0.74797
Ag1A Ag 1.20016(3) -0.02945(4) 0.75670(3)
P2A P 0.94871(10) 0.56542(11) 0.78493(7)
loop_
_geom_bond_atom_site_label_1
_geom_bond_atom_site_label_2
_geom_bond_site_symmetry_1
_geom_bond_site_symmetry_2
Ag1 S1 1_555 1_555
S1 C1 1_555 1_555
S2 Ag1 1_555 1_555
C1 S2 1_555 1_555
N1 C1 1_555 1_555
C2 N1 1_555 1_555
C3 C2 1_555 1_555
C4 N1 1_555 1_555
C5 C4 1_555 1_555
P1 Ag1 1_555 1_555
C6 P1 1_555 1_555
C7 C6 1_555 1_555
C8 C7 1_555 1_555
C9 C8 1_555 1_555
C10 C9 1_555 1_555
C11 C6 1_555 1_555
C12 P1 1_555 1_555
C13 C12 1_555 1_555
C14 C13 1_555 1_555
C15 C14 1_555 1_555
C16 C15 1_555 1_555
C17 C12 1_555 1_555
C18 P1 1_555 1_555
C19 C18 1_555 1_555
C20 C19 1_555 1_555
P2 C20 1_555 1_555
C21 P2 1_555 1_555
C22 C21 1_555 1_555
C23 C22 1_555 1_555
C24 C23 1_555 1_555
C25 C24 1_555 1_555
C26 C21 1_555 1_555
C27 P2 1_555 1_555
C28 C27 1_555 1_555
C29 C28 1_555 1_555
C30 C29 1_555 1_555
C31 C30 1_555 1_555
C32 C27 1_555 1_555
H1 C2 1_555 1_555
H2 C2 1_555 1_555
H3 C3 1_555 1_555
H4 C3 1_555 1_555
H5 C3 1_555 1_555
H6 C4 1_555 1_555
H7 C4 1_555 1_555
H8 C5 1_555 1_555
H9 C5 1_555 1_555
H10 C5 1_555 1_555
H11 C7 1_555 1_555
H12 C8 1_555 1_555
H13 C9 1_555 1_555
H14 C10 1_555 1_555
H15 C11 1_555 1_555
H16 C13 1_555 1_555
H17 C14 1_555 1_555
H18 C15 1_555 1_555
H19 C16 1_555 1_555
H20 C17 1_555 1_555
H21 C18 1_555 1_555
H22 C18 1_555 1_555
H23 C19 1_555 1_555
H24 C19 1_555 1_555
H25 C20 1_555 1_555
H26 C20 1_555 1_555
H27 C22 1_555 1_555
H28 C23 1_555 1_555
H29 C24 1_555 1_555
H30 C25 1_555 1_555
H31 C26 1_555 1_555
H32 C28 1_555 1_555
H33 C29 1_555 1_555
H34 C30 1_555 1_555
H35 C31 1_555 1_555
H36 C32 1_555 1_555
Ag1A P2 1_555 1_555
P2A Ag1 1_555 1_555
C10 C11 1_555 1_555
C16 C17 1_555 1_555
C25 C26 1_555 1_555
C31 C32 1_555 1_555

#END
