
#######################################################################
#
#                 Cambridge Crystallographic Data Centre
#                                CCDC 
#
#######################################################################
#
# If this CIF has been generated from an entry in the Cambridge 
# Structural Database, then it will include bibliographic, chemical, 
# crystal, experimental, refinement or atomic coordinate data resulting 
# from the CCDC's data processing and validation procedures.
#
#######################################################################

data_SIDXUZ
_symmetry_cell_setting           triclinic
_symmetry_space_group_name_H-M   'P -1'
_symmetry_Int_Tables_number      2
_space_group_name_Hall           '-P 1'
loop_
_symmetry_equiv_pos_site_id
_symmetry_equiv_pos_as_xyz
1 x,y,z
2 -x,-y,-z
_cell_length_a                   9.7722(10)
_cell_length_b                   13.5302(14)
_cell_length_c                   15.0554(16)
_cell_angle_alpha                65.8730(10)
_cell_angle_beta                 82.1740(10)
_cell_angle_gamma                80.0810(10)
_cell_volume                     1784.78
loop_
_atom_site_label
_atom_site_type_symbol
_atom_site_fract_x
_atom_site_fract_y
_atom_site_fract_z
Nd1 Nd 0.290691(12) 1.037563(9) 0.449280(8)
Nd2 Nd 0.163776(12) 0.552139(9) 1.539542(8)
S1 S 0.13641(7) 1.33120(5) 0.04462(4)
S2 S 0.34824(7) 1.16021(5) 0.00001(4)
S3 S 0.50230(8) 1.09036(5) -0.15526(5)
S4 S 0.28635(8) 0.71251(6) 0.81015(5)
S5 S 0.22629(8) 0.58357(6) 1.02203(5)
S6 S 0.31639(9) 0.47883(6) 1.22337(5)
S7 S -0.15250(7) 0.98472(5) 0.23980(4)
S8 S -0.24403(7) 1.08428(6) 0.03387(4)
S9 S -0.16643(7) 1.20129(6) -0.17928(4)
O1 O 0.1928(2) 1.19908(15) 0.32398(12)
O2 O 0.0506(2) 1.33711(18) 0.22883(15)
O3 O 0.59211(18) 1.13583(13) -0.42967(12)
O4 O 0.63819(19) 0.99678(14) -0.28968(12)
O5 O 0.45250(17) 0.94891(13) 0.59416(12)
O6 O 0.26888(17) 0.86482(14) 0.61573(12)
O7 O 0.2532(2) 0.46143(17) 1.41777(14)
O8 O 0.39170(18) 0.57091(15) 1.42366(13)
O9 O 0.10084(18) 0.96037(16) 0.43026(13)
O10 O -0.10966(17) 0.91203(13) 0.44165(11)
O11 O -0.12868(19) 1.29078(15) -0.37834(12)
O12 O 0.02177(18) 1.40611(14) -0.40652(12)
O13 O 0.3536(2) 1.20423(15) 0.46770(15)
H1 H 0.3251 1.2706 0.4413
H2 H 0.4147 1.1938 0.5055
O14 O -0.0220(2) 0.68876(17) 1.56304(14)
H3 H -0.0466 0.6957 1.6158
H4 H -0.0531 0.7449 1.5168
O15 O 0.1263(2) 0.52031(15) 1.71484(12)
H5 H 0.1638 0.4648 1.7581
H6 H 0.0714 0.5568 1.7409
O16 O 0.33729(18) 0.40460(14) 1.62156(12)
H7 H 0.4209 0.4098 1.6025
H8 H 0.3321 0.3597 1.6798
O17 O 0.2988(2) 0.67883(16) 1.56093(14)
H9 H 0.2507 0.7095 1.5942
H10 H 0.3397 0.7218 1.5125
N1 N 0.2383(2) 1.33525(17) -0.13134(14)
N2 N 0.3239(2) 1.27770(17) -0.18094(14)
N3 N 0.4573(2) 0.6622(2) 0.95715(16)
N4 N 0.4649(2) 0.6057(2) 1.05852(16)
N5 N -0.0015(2) 1.09721(19) 0.07290(15)
N6 N -0.0041(2) 1.15007(19) -0.02852(15)
C1 C 0.1471(3) 1.26126(19) 0.24189(17)
C2 C 0.2192(3) 1.2399(2) 0.15488(17)
H11 H 0.2154 1.1648 0.1651
H12 H 0.3164 1.2506 0.1479
C3 C 0.2397(2) 1.28371(18) -0.03706(17)
C4 C 0.3872(3) 1.18604(19) -0.12190(17)
C5 C 0.5151(3) 1.1657(2) -0.28570(18)
H13 H 0.4225 1.1948 -0.3084
H14 H 0.5669 1.2265 -0.3019
C6 C 0.5873(2) 1.09253(19) -0.33618(17)
C7 C 0.3766(2) 0.87427(18) 0.64635(16)
C8 C 0.4226(3) 0.7974(2) 0.74652(18)
H15 H 0.4384 0.8389 0.7828
H16 H 0.5088 0.7522 0.7403
C9 C 0.3409(3) 0.6554(2) 0.92898(18)
C10 C 0.3540(3) 0.5603(2) 1.09974(18)
C11 C 0.4260(3) 0.5238(2) 1.28379(19)
H17 H 0.5150 0.4777 1.2937
H18 H 0.4427 0.5983 1.2437
C12 C 0.3528(2) 0.5171(2) 1.38175(17)
C13 C -0.0051(2) 0.95835(19) 0.39336(16)
C14 C -0.0063(3) 1.0145(2) 0.28291(18)
H19 H -0.0119 1.0928 0.2633
H20 H 0.0799 0.9901 0.2532
C15 C -0.1174(3) 1.0582(2) 0.11433(17)
C16 C -0.1221(3) 1.14892(19) -0.05812(17)
C17 C -0.0248(3) 1.2819(2) -0.24036(17)
H21 H 0.0644 1.2365 -0.2266
H22 H -0.0280 1.3405 -0.2184
C18 C -0.0448(2) 1.32777(18) -0.34800(17)
Nd1A Nd 0.709309(12) 0.962437(9) -0.449280(8)
Nd1A_2 Nd 0.709309(12) 0.962437(9) 0.550720(8)
Nd1A_3 Nd -0.290691(12) 0.962437(9) 0.550720(8)
Nd2A Nd -0.163776(12) 1.447861(9) -0.539542(8)
Nd2_2 Nd 0.163776(12) 1.552139(9) -0.460458(8)
O3A O 0.40789(18) 0.86417(13) 0.42967(12)
O4A O 0.36181(19) 1.00322(14) 0.28968(12)
O5A O 0.54750(17) 1.05109(13) 0.40584(12)
O10A O 0.10966(17) 1.08797(13) 0.55835(11)
O11A O 0.12868(19) 0.70922(15) 1.37834(12)
O12_2 O 0.02177(18) 0.40611(14) 1.59348(12)
O12A O -0.02177(18) 0.59389(14) 1.40652(12)
loop_
_geom_bond_atom_site_label_1
_geom_bond_atom_site_label_2
_geom_bond_site_symmetry_1
_geom_bond_site_symmetry_2
Nd1 O1 1_555 1_555
Nd2 O7 1_555 1_555
S1 C2 1_555 1_555
S2 C3 1_555 1_555
S3 C4 1_555 1_555
S4 C8 1_555 1_555
S5 C9 1_555 1_555
S6 C10 1_555 1_555
S7 C14 1_555 1_555
S8 C15 1_555 1_555
S9 C16 1_555 1_555
O1 C1 1_555 1_555
O2 C1 1_555 1_555
O3 C6 1_555 1_555
O4 C6 1_555 1_555
O5 Nd1 1_555 1_555
O6 Nd1 1_555 1_555
O7 C12 1_555 1_555
O8 Nd2 1_555 1_555
O9 Nd1 1_555 1_555
O10 C13 1_555 1_555
O11 C18 1_555 1_555
O12 C18 1_555 1_555
O13 Nd1 1_555 1_555
H1 O13 1_555 1_555
H2 O13 1_555 1_555
O14 Nd2 1_555 1_555
H3 O14 1_555 1_555
H4 O14 1_555 1_555
O15 Nd2 1_555 1_555
H5 O15 1_555 1_555
H6 O15 1_555 1_555
O16 Nd2 1_555 1_555
H7 O16 1_555 1_555
H8 O16 1_555 1_555
O17 Nd2 1_555 1_555
H9 O17 1_555 1_555
H10 O17 1_555 1_555
N1 N2 1_555 1_555
N2 C4 1_555 1_555
N3 N4 1_555 1_555
N4 C10 1_555 1_555
N5 N6 1_555 1_555
N6 C16 1_555 1_555
C1 C2 1_555 1_555
C2 H11 1_555 1_555
H12 C2 1_555 1_555
C3 S1 1_555 1_555
C4 S2 1_555 1_555
C5 S3 1_555 1_555
H13 C5 1_555 1_555
H14 C5 1_555 1_555
C6 C5 1_555 1_555
C7 O5 1_555 1_555
C8 C7 1_555 1_555
H15 C8 1_555 1_555
H16 C8 1_555 1_555
C9 S4 1_555 1_555
C10 S5 1_555 1_555
C11 S6 1_555 1_555
H17 C11 1_555 1_555
H18 C11 1_555 1_555
C12 O8 1_555 1_555
C13 O9 1_555 1_555
C14 C13 1_555 1_555
H19 C14 1_555 1_555
H20 C14 1_555 1_555
C15 S7 1_555 1_555
C16 S8 1_555 1_555
C17 S9 1_555 1_555
H21 C17 1_555 1_555
H22 C17 1_555 1_555
C18 C17 1_555 1_555
Nd1A O3 1_555 1_555
Nd1A_2 O5 1_555 1_555
Nd1A_3 O10 1_555 1_555
Nd2A O11 1_555 1_555
Nd2_2 O12 1_555 1_555
O3A Nd1 1_555 1_555
O4A Nd1 1_555 1_555
O5A Nd1 1_555 1_555
O10A Nd1 1_555 1_555
O11A Nd2 1_555 1_555
O12_2 Nd2 1_555 1_555
O12A Nd2 1_555 1_555
O4 Nd1A 1_555 1_555
O6 C7 1_555 1_555
O12 Nd2A 1_555 1_555
N1 C3 1_555 1_555
N3 C9 1_555 1_555
N5 C15 1_555 1_555
C11 C12 1_555 1_555
Nd1A_2 O5A 1_555 1_555

#END
