
#######################################################################
#
#                 Cambridge Crystallographic Data Centre
#                                CCDC 
#
#######################################################################
#
# If this CIF has been generated from an entry in the Cambridge 
# Structural Database, then it will include bibliographic, chemical, 
# crystal, experimental, refinement or atomic coordinate data resulting 
# from the CCDC's data processing and validation procedures.
#
#######################################################################

data_SIDYAG
_symmetry_cell_setting           triclinic
_symmetry_space_group_name_H-M   'P -1'
_symmetry_Int_Tables_number      2
_space_group_name_Hall           '-P 1'
loop_
_symmetry_equiv_pos_site_id
_symmetry_equiv_pos_as_xyz
1 x,y,z
2 -x,-y,-z
_cell_length_a                   9.5634(12)
_cell_length_b                   13.6973(18)
_cell_length_c                   14.9352(19)
_cell_angle_alpha                64.6500(10)
_cell_angle_beta                 82.3050(10)
_cell_angle_gamma                81.1270(10)
_cell_volume                     1741.81
loop_
_atom_site_label
_atom_site_type_symbol
_atom_site_fract_x
_atom_site_fract_y
_atom_site_fract_z
Er1 Er 0.207111(12) 0.466754(9) 0.549385(9)
Er2 Er 0.364145(13) 0.936709(9) -0.546565(9)
S1 S 0.35320(9) 0.17016(6) 0.95919(6)
S2 S 0.14577(8) 0.33915(6) 1.00559(5)
S3 S -0.00165(9) 0.40557(6) 1.16405(6)
S4 S 0.22866(10) 0.78458(7) 0.18659(6)
S5 S 0.28696(9) 0.91718(8) -0.03124(6)
S6 S 0.18341(11) 1.02402(8) -0.23451(6)
S7 S 0.65515(8) 0.51974(6) 0.75582(5)
S8 S 0.74876(8) 0.41930(7) 0.96541(6)
S9 S 0.66908(9) 0.30037(7) 1.18313(6)
O1 O 0.2977(2) 0.31330(18) 0.67426(15)
O2 O 0.4281(3) 0.16593(19) 0.77051(17)
O3 O -0.0969(2) 0.36923(16) 1.43781(15)
O4 O -0.1388(2) 0.50104(17) 1.29118(16)
O5 O 0.0486(2) 0.54802(16) 0.40650(14)
O6 O 0.2394(2) 0.62781(17) 0.38595(15)
O7 O 0.2050(3) 0.9491(2) -0.41752(17)
O8 O 0.0629(3) 1.10397(19) -0.45978(18)
O9 O 0.3966(2) 0.54149(19) 0.56381(16)
O10 O 0.6137(2) 0.58895(17) 0.54958(14)
O11 O 0.5959(2) 0.22533(16) 1.38975(15)
O12 O 0.4906(2) 0.08364(16) 1.41382(15)
O13 O 0.1399(2) 0.31267(18) 0.53445(19)
H1 H 0.0729 0.3183 0.5018
H2 H 0.1778 0.2491 0.5586
O14 O 0.5499(2) 0.81628(19) -0.57148(17)
H3 H 0.5505 0.7509 -0.5315
H4 H 0.5742 0.8201 -0.6287
O15 O 0.3994(2) 0.98368(18) -0.71861(16)
H5 H 0.4522 0.9447 -0.7422
H6 H 0.3575 1.0358 -0.7635
O16 O 0.1878(2) 1.07482(18) -0.61711(16)
H7 H 0.1770 1.1252 -0.6733
H8 H 0.1438 1.0926 -0.5734
O17 O 0.2160(3) 0.82687(19) -0.55810(19)
H9 H 0.1350 0.8308 -0.5306
H10 H 0.2454 0.7633 -0.5489
N1 N 0.2583(3) 0.1645(2) 1.13852(18)
N2 N 0.1754(3) 0.2198(2) 1.18950(18)
N3 N 0.0500(3) 0.8378(2) 0.0397(2)
N4 N 0.0393(3) 0.8955(3) -0.0628(2)
N5 N 0.5006(3) 0.4047(2) 0.92723(19)
N6 N 0.5040(3) 0.3513(2) 1.03046(19)
C1 C 0.3397(3) 0.2463(2) 0.7580(2)
C2 C 0.2734(3) 0.2667(2) 0.8472(2)
H11 H 0.1723 0.2607 0.8546
H12 H 0.2861 0.3398 0.8367
C3 C 0.2545(3) 0.2169(2) 1.0424(2)
C4 C 0.1110(3) 0.3117(2) 1.1300(2)
C5 C -0.0158(4) 0.3308(2) 1.2974(2)
H13 H -0.0699 0.2697 1.3160
H14 H 0.0780 0.3030 1.3214
C6 C -0.0897(3) 0.4071(2) 1.3430(2)
C7 C 0.1290(3) 0.6222(2) 0.3536(2)
C8 C 0.0855(3) 0.7019(3) 0.2517(2)
H15 H 0.0003 0.7478 0.2581
H16 H 0.0654 0.6629 0.2147
C9 C 0.1719(3) 0.8437(3) 0.0660(2)
C10 C 0.1531(3) 0.9412(3) -0.1073(2)
C11 C 0.0603(3) 0.9799(3) -0.2882(2)
H17 H 0.0594 0.9016 -0.2548
H18 H -0.0350 1.0141 -0.2820
C12 C 0.1122(3) 1.0139(3) -0.3967(2)
C13 C 0.5045(3) 0.5439(2) 0.6006(2)
C14 C 0.5045(3) 0.4900(3) 0.7127(2)
H19 H 0.4173 0.5152 0.7414
H20 H 0.5074 0.4120 0.7353
C15 C 0.6192(3) 0.4449(2) 0.8842(2)
C16 C 0.6248(3) 0.3530(2) 1.0597(2)
C17 C 0.5248(3) 0.2176(3) 1.2451(2)
H21 H 0.5318 0.1577 1.2259
H22 H 0.4341 0.2608 1.2273
C18 C 0.5373(3) 0.1756(2) 1.3546(2)
Er1A Er -0.207111(12) 0.533246(9) 1.450615(9)
Er1A_2 Er -0.207111(12) 0.533246(9) 0.450615(9)
Er1A_3 Er 0.792889(12) 0.533246(9) 0.450615(9)
Er2A Er 0.635855(13) 0.063291(9) 1.546565(9)
Er2_2 Er 0.364145(13) -0.063291(9) 1.453435(9)
O3A O 0.0969(2) 0.63077(16) 0.56219(15)
O4A O 0.1388(2) 0.49896(17) 0.70882(16)
O5A O -0.0486(2) 0.45198(16) 0.59350(14)
O10A O 0.3863(2) 0.41105(17) 0.45042(14)
O11A O 0.4041(2) 0.77467(16) -0.38975(15)
O12_2 O 0.4906(2) 1.08364(16) -0.58618(15)
O12A O 0.5094(2) 0.91636(16) -0.41382(15)
loop_
_geom_bond_atom_site_label_1
_geom_bond_atom_site_label_2
_geom_bond_site_symmetry_1
_geom_bond_site_symmetry_2
Er1 O1 1_555 1_555
Er2 O7 1_555 1_555
S1 C2 1_555 1_555
S2 C3 1_555 1_555
S3 C4 1_555 1_555
S4 C8 1_555 1_555
S5 C9 1_555 1_555
S6 C10 1_555 1_555
S7 C14 1_555 1_555
S8 C15 1_555 1_555
S9 C16 1_555 1_555
O1 C1 1_555 1_555
O2 C1 1_555 1_555
O3 C6 1_555 1_555
O4 C6 1_555 1_555
O5 Er1 1_555 1_555
O6 Er1 1_555 1_555
O7 C12 1_555 1_555
O8 C12 1_555 1_555
O9 Er1 1_555 1_555
O10 C13 1_555 1_555
O11 C18 1_555 1_555
O12 C18 1_555 1_555
O13 Er1 1_555 1_555
H1 O13 1_555 1_555
H2 O13 1_555 1_555
O14 Er2 1_555 1_555
H3 O14 1_555 1_555
H4 O14 1_555 1_555
O15 Er2 1_555 1_555
H5 O15 1_555 1_555
H6 O15 1_555 1_555
O16 Er2 1_555 1_555
H7 O16 1_555 1_555
H8 O16 1_555 1_555
O17 Er2 1_555 1_555
H9 O17 1_555 1_555
H10 O17 1_555 1_555
N1 N2 1_555 1_555
N2 C4 1_555 1_555
N3 N4 1_555 1_555
N4 C10 1_555 1_555
N5 N6 1_555 1_555
N6 C16 1_555 1_555
C1 C2 1_555 1_555
C2 H11 1_555 1_555
H12 C2 1_555 1_555
C3 S1 1_555 1_555
C4 S2 1_555 1_555
C5 S3 1_555 1_555
H13 C5 1_555 1_555
H14 C5 1_555 1_555
C6 C5 1_555 1_555
C7 O5 1_555 1_555
C8 C7 1_555 1_555
H15 C8 1_555 1_555
H16 C8 1_555 1_555
C9 S4 1_555 1_555
C10 S5 1_555 1_555
C11 S6 1_555 1_555
H17 C11 1_555 1_555
H18 C11 1_555 1_555
C12 C11 1_555 1_555
C13 O9 1_555 1_555
C14 C13 1_555 1_555
H19 C14 1_555 1_555
H20 C14 1_555 1_555
C15 S7 1_555 1_555
C16 S8 1_555 1_555
C17 S9 1_555 1_555
H21 C17 1_555 1_555
H22 C17 1_555 1_555
C18 C17 1_555 1_555
Er1A O3 1_555 1_555
Er1A_2 O5 1_555 1_555
Er1A_3 O10 1_555 1_555
Er2A O11 1_555 1_555
Er2_2 O12 1_555 1_555
O3A Er1 1_555 1_555
O4A Er1 1_555 1_555
O5A Er1 1_555 1_555
O10A Er1 1_555 1_555
O11A Er2 1_555 1_555
O12_2 Er2 1_555 1_555
O12A Er2 1_555 1_555
O4 Er1A 1_555 1_555
O6 C7 1_555 1_555
O12 Er2A 1_555 1_555
N1 C3 1_555 1_555
N3 C9 1_555 1_555
N5 C15 1_555 1_555
Er1A_2 O5A 1_555 1_555

#END
