
#######################################################################
#
#                 Cambridge Crystallographic Data Centre
#                                CCDC 
#
#######################################################################
#
# If this CIF has been generated from an entry in the Cambridge 
# Structural Database, then it will include bibliographic, chemical, 
# crystal, experimental, refinement or atomic coordinate data resulting 
# from the CCDC's data processing and validation procedures.
#
#######################################################################

data_SIFVIO
_symmetry_cell_setting           monoclinic
_symmetry_space_group_name_H-M   'P 2/c'
_symmetry_Int_Tables_number      13
_space_group_name_Hall           '-P 2yc'
loop_
_symmetry_equiv_pos_site_id
_symmetry_equiv_pos_as_xyz
1 x,y,z
2 -x,y,1/2-z
3 -x,-y,-z
4 x,-y,1/2+z
_cell_length_a                   11.119(2)
_cell_length_b                   17.365(4)
_cell_length_c                   18.3179(19)
_cell_angle_alpha                90
_cell_angle_beta                 81.104(14)
_cell_angle_gamma                90
_cell_volume                     3494.3
loop_
_atom_site_label
_atom_site_type_symbol
_atom_site_fract_x
_atom_site_fract_y
_atom_site_fract_z
Ag1 Ag 0.000 0.24305(4) 0.250
Ag2 Ag 0.000 0.74260(11) 0.250
N1 N -0.0593(6) 0.1870(3) 0.4155(3)
N2 N 0.0126(6) 0.3019(3) 0.4099(3)
O1 O 0.3208(10) 0.6090(7) 0.2941(10)
O2 O 0.1538(17) 0.6243(6) 0.2328(7)
O3 O 0.1163(17) 0.6695(5) 0.3460(9)
O4 O -0.1089(7) -0.1852(4) 0.3553(5)
O5 O -0.3219(7) -0.1454(4) 0.3697(5)
O6 O -0.1874(9) -0.1282(4) 0.2565(4)
S1 S 0.1896(2) 0.61554(14) 0.30775(16)
S2 S -0.19826(17) -0.13194(10) 0.33437(11)
C1 C -0.0181(6) 0.2432(4) 0.3664(4)
C2 C -0.0061(8) 0.2808(4) 0.4850(4)
H1 H 0.0096 0.3111 0.5244
C3 C -0.0501(8) 0.2102(5) 0.4893(4)
H2 H -0.071 0.1811 0.532
C4 C 0.0555(7) 0.3770(4) 0.3838(4)
C5 C -0.0302(7) 0.4369(4) 0.3824(4)
C6 C 0.0134(7) 0.5097(4) 0.3569(4)
H3 H -0.0408 0.5498 0.3537
C7 C 0.1352(7) 0.5212(4) 0.3370(4)
C8 C 0.2212(8) 0.4637(5) 0.3411(5)
H4 H 0.3038 0.4747 0.3295
C9 C 0.1821(8) 0.3884(5) 0.3631(5)
C10 C -0.1657(7) 0.4235(5) 0.4089(5)
H5 H -0.1769 0.3719 0.4304
C11 C -0.2382(10) 0.4300(11) 0.3455(8)
H6 H -0.3228 0.4212 0.3636
H7 H -0.2097 0.3923 0.3085
H8 H -0.228 0.4806 0.3244
C12 C -0.2129(11) 0.4833(8) 0.4683(7)
H9 H -0.1684 0.4787 0.509
H10 H -0.2978 0.4745 0.4853
H11 H -0.2018 0.5341 0.4476
C13 C 0.2727(9) 0.3240(7) 0.3713(6)
H12 H 0.235 0.2815 0.4018
C14 C 0.3910(17) 0.3647(12) 0.4072(11)
H13 H 0.3619 0.3842 0.4558
H14 H 0.4248 0.4062 0.3759
H15 H 0.4526 0.3266 0.4101
C15 C 0.3393(17) 0.2980(10) 0.3039(8)
H16 H 0.3922 0.2567 0.3134
H17 H 0.3871 0.3397 0.2802
H18 H 0.284 0.28 0.2722
C16 C -0.0939(7) 0.1095(4) 0.3976(3)
C17 C -0.0019(6) 0.0555(4) 0.3760(3)
C18 C -0.0335(6) -0.0186(4) 0.3568(4)
H19 H 0.0266 -0.0547 0.341
C19 C -0.1564(7) -0.0382(4) 0.3616(4)
C20 C -0.2470(7) 0.0148(4) 0.3880(4)
H20 H -0.3282 -0.0001 0.3934
C21 C -0.2182(6) 0.0896(4) 0.4062(4)
C22 C 0.1341(7) 0.0758(4) 0.3755(4)
H21 H 0.1372 0.1274 0.3967
C23 C 0.1922(9) 0.0196(6) 0.4256(6)
H22 H 0.1462 0.0204 0.4744
H23 H 0.2744 0.0352 0.4276
H24 H 0.192 -0.0315 0.4057
C24 C 0.2017(8) 0.0789(6) 0.2973(5)
H25 H 0.1624 0.1149 0.2691
H26 H 0.2015 0.0287 0.2753
H27 H 0.2842 0.0949 0.298
C25 C -0.3187(8) 0.1489(5) 0.4343(5)
H28 H -0.2834 0.1848 0.4664
C26 C -0.4279(10) 0.1126(7) 0.4809(6)
H29 H -0.4017 0.0832 0.5199
H30 H -0.4684 0.0793 0.4506
H31 H -0.4829 0.1523 0.5017
C27 C -0.3479(12) 0.1956(8) 0.3687(7)
H32 H -0.274 0.2163 0.3418
H33 H -0.4019 0.2371 0.3862
H34 H -0.3862 0.163 0.3368
N1A N 0.0593(6) 0.1870(3) 0.0845(3)
N2A N -0.0126(6) 0.3019(3) 0.0901(3)
O1A O -0.3208(10) 0.6090(7) 0.2059(10)
O2A O -0.1538(17) 0.6243(6) 0.2672(7)
O3A O -0.1163(17) 0.6695(5) 0.1540(9)
O4A O 0.1089(7) -0.1852(4) 0.1447(5)
O5A O 0.3219(7) -0.1454(4) 0.1303(5)
O6A O 0.1874(9) -0.1282(4) 0.2435(4)
S1A S -0.1896(2) 0.61554(14) 0.19225(16)
S2A S 0.19826(17) -0.13194(10) 0.16563(11)
C1A C 0.0181(6) 0.2432(4) 0.1336(4)
C2A C 0.0061(8) 0.2808(4) 0.0150(4)
H1A H -0.0096 0.3111 -0.0244
C3A C 0.0501(8) 0.2102(5) 0.0107(4)
H2A H 0.071 0.1811 -0.032
C4A C -0.0555(7) 0.3770(4) 0.1162(4)
C5A C 0.0302(7) 0.4369(4) 0.1176(4)
C6A C -0.0134(7) 0.5097(4) 0.1431(4)
H3A H 0.0408 0.5498 0.1463
C7A C -0.1352(7) 0.5212(4) 0.1630(4)
C8A C -0.2212(8) 0.4637(5) 0.1589(5)
H4A H -0.3038 0.4747 0.1705
C9A C -0.1821(8) 0.3884(5) 0.1369(5)
C10A C 0.1657(7) 0.4235(5) 0.0911(5)
H5A H 0.1769 0.3719 0.0696
C11A C 0.2382(10) 0.4300(11) 0.1545(8)
H6A H 0.3228 0.4212 0.1364
H7A H 0.2097 0.3923 0.1915
H8A H 0.228 0.4806 0.1756
C12A C 0.2129(11) 0.4833(8) 0.0317(7)
H9A H 0.1684 0.4787 -0.009
H10A H 0.2978 0.4745 0.0147
H11A H 0.2018 0.5341 0.0524
C13A C -0.2727(9) 0.3240(7) 0.1287(6)
H12A H -0.235 0.2815 0.0982
C14A C -0.3910(17) 0.3647(12) 0.0928(11)
H13A H -0.3619 0.3842 0.0442
H14A H -0.4248 0.4062 0.1241
H15A H -0.4526 0.3266 0.0899
C15A C -0.3393(17) 0.2980(10) 0.1961(8)
H16A H -0.3922 0.2567 0.1866
H17A H -0.3871 0.3397 0.2198
H18A H -0.284 0.28 0.2278
C16A C 0.0939(7) 0.1095(4) 0.1024(3)
C17A C 0.0019(6) 0.0555(4) 0.1240(3)
C18A C 0.0335(6) -0.0186(4) 0.1432(4)
H19A H -0.0266 -0.0547 0.159
C19A C 0.1564(7) -0.0382(4) 0.1384(4)
C20A C 0.2470(7) 0.0148(4) 0.1120(4)
H20A H 0.3282 -0.0001 0.1066
C21A C 0.2182(6) 0.0896(4) 0.0938(4)
C22A C -0.1341(7) 0.0758(4) 0.1245(4)
H21A H -0.1372 0.1274 0.1033
C23A C -0.1922(9) 0.0196(6) 0.0744(6)
H22A H -0.1462 0.0204 0.0256
H23A H -0.2744 0.0352 0.0724
H24A H -0.192 -0.0315 0.0943
C24A C -0.2017(8) 0.0789(6) 0.2027(5)
H25A H -0.1624 0.1149 0.2309
H26A H -0.2015 0.0287 0.2247
H27A H -0.2842 0.0949 0.202
C25A C 0.3187(8) 0.1489(5) 0.0657(5)
H28A H 0.2834 0.1848 0.0336
C26A C 0.4279(10) 0.1126(7) 0.0191(6)
H29A H 0.4017 0.0832 -0.0199
H30A H 0.4684 0.0793 0.0494
H31A H 0.4829 0.1523 -0.0017
C27A C 0.3479(12) 0.1956(8) 0.1313(7)
H32A H 0.274 0.2163 0.1582
H33A H 0.4019 0.2371 0.1138
H34A H 0.3862 0.163 0.1632
Ag2_2 Ag 0.000 -0.25740(11) 0.250
O4_2 O -0.1089(7) 0.8148(4) 0.3553(5)
O4A_2 O 0.1089(7) 0.8148(4) 0.1447(5)
Na1 Na -0.4993(2) -0.20710(15) 0.34891(12)
O7 O -0.5 -0.2938(7) 0.250
O8 O -0.7213(6) -0.1925(4) 0.3649(4)
O9? O 0.238(3) 0.6513(15) 0.3800(15)
O10? O 0.271(3) 0.6207(16) 0.2566(15)
O11? O 0.086(5) 0.661(3) 0.297(3)
loop_
_geom_bond_atom_site_label_1
_geom_bond_atom_site_label_2
_geom_bond_site_symmetry_1
_geom_bond_site_symmetry_2
Ag1 C1 1_555 1_555
Ag2 O2 1_555 1_555
N1 C1 1_555 1_555
N2 C1 1_555 1_555
O1 S1 1_555 1_555
O2 S1 1_555 1_555
O3 Ag2 1_555 1_555
O4 S2 1_555 1_555
O5 S2 1_555 1_555
O6 S2 1_555 1_555
S1 O3 1_555 1_555
S2 C19 1_555 1_555
C2 N2 1_555 1_555
H1 C2 1_555 1_555
C3 N1 1_555 1_555
H2 C3 1_555 1_555
C4 N2 1_555 1_555
C5 C4 1_555 1_555
C6 C5 1_555 1_555
H3 C6 1_555 1_555
C7 S1 1_555 1_555
C8 C7 1_555 1_555
H4 C8 1_555 1_555
C9 C4 1_555 1_555
C10 C5 1_555 1_555
H5 C10 1_555 1_555
C11 C10 1_555 1_555
H6 C11 1_555 1_555
H7 C11 1_555 1_555
H8 C11 1_555 1_555
C12 C10 1_555 1_555
H9 C12 1_555 1_555
H10 C12 1_555 1_555
H11 C12 1_555 1_555
C13 C9 1_555 1_555
H12 C13 1_555 1_555
C14 C13 1_555 1_555
H13 C14 1_555 1_555
H14 C14 1_555 1_555
H15 C14 1_555 1_555
C15 C13 1_555 1_555
H16 C15 1_555 1_555
H17 C15 1_555 1_555
H18 C15 1_555 1_555
C16 N1 1_555 1_555
C17 C16 1_555 1_555
C18 C17 1_555 1_555
H19 C18 1_555 1_555
C19 C18 1_555 1_555
C20 C19 1_555 1_555
H20 C20 1_555 1_555
C21 C16 1_555 1_555
C22 C17 1_555 1_555
H21 C22 1_555 1_555
C23 C22 1_555 1_555
H22 C23 1_555 1_555
H23 C23 1_555 1_555
H24 C23 1_555 1_555
C24 C22 1_555 1_555
H25 C24 1_555 1_555
H26 C24 1_555 1_555
H27 C24 1_555 1_555
C25 C21 1_555 1_555
H28 C25 1_555 1_555
C26 C25 1_555 1_555
H29 C26 1_555 1_555
H30 C26 1_555 1_555
H31 C26 1_555 1_555
C27 C25 1_555 1_555
H32 C27 1_555 1_555
H33 C27 1_555 1_555
H34 C27 1_555 1_555
N1A C1A 1_555 1_555
N2A C1A 1_555 1_555
O1A S1A 1_555 1_555
O2A Ag2 1_555 1_555
O3A Ag2 1_555 1_555
O4A S2A 1_555 1_555
O5A S2A 1_555 1_555
O6A S2A 1_555 1_555
S1A O2A 1_555 1_555
S2A C19A 1_555 1_555
C1A Ag1 1_555 1_555
C2A N2A 1_555 1_555
H1A C2A 1_555 1_555
C3A N1A 1_555 1_555
H2A C3A 1_555 1_555
C4A N2A 1_555 1_555
C5A C4A 1_555 1_555
C6A C5A 1_555 1_555
H3A C6A 1_555 1_555
C7A S1A 1_555 1_555
C8A C7A 1_555 1_555
H4A C8A 1_555 1_555
C9A C4A 1_555 1_555
C10A C5A 1_555 1_555
H5A C10A 1_555 1_555
C11A C10A 1_555 1_555
H6A C11A 1_555 1_555
H7A C11A 1_555 1_555
H8A C11A 1_555 1_555
C12A C10A 1_555 1_555
H9A C12A 1_555 1_555
H10A C12A 1_555 1_555
H11A C12A 1_555 1_555
C13A C9A 1_555 1_555
H12A C13A 1_555 1_555
C14A C13A 1_555 1_555
H13A C14A 1_555 1_555
H14A C14A 1_555 1_555
H15A C14A 1_555 1_555
C15A C13A 1_555 1_555
H16A C15A 1_555 1_555
H17A C15A 1_555 1_555
H18A C15A 1_555 1_555
C16A N1A 1_555 1_555
C17A C16A 1_555 1_555
C18A C17A 1_555 1_555
H19A C18A 1_555 1_555
C19A C18A 1_555 1_555
C20A C19A 1_555 1_555
H20A C20A 1_555 1_555
C21A C16A 1_555 1_555
C22A C17A 1_555 1_555
H21A C22A 1_555 1_555
C23A C22A 1_555 1_555
H22A C23A 1_555 1_555
H23A C23A 1_555 1_555
H24A C23A 1_555 1_555
C24A C22A 1_555 1_555
H25A C24A 1_555 1_555
H26A C24A 1_555 1_555
H27A C24A 1_555 1_555
C25A C21A 1_555 1_555
H28A C25A 1_555 1_555
C26A C25A 1_555 1_555
H29A C26A 1_555 1_555
H30A C26A 1_555 1_555
H31A C26A 1_555 1_555
C27A C25A 1_555 1_555
H32A C27A 1_555 1_555
H33A C27A 1_555 1_555
H34A C27A 1_555 1_555
Ag2_2 O4 1_555 1_555
O4_2 Ag2 1_555 1_555
O4A_2 Ag2 1_555 1_555
C2 C3 1_555 1_555
C6 C7 1_555 1_555
C8 C9 1_555 1_555
C20 C21 1_555 1_555
O3A S1A 1_555 1_555
O4A Ag2_2 1_555 1_555
C2A C3A 1_555 1_555
C6A C7A 1_555 1_555
C8A C9A 1_555 1_555
C20A C21A 1_555 1_555

#END
