
#######################################################################
#
#                 Cambridge Crystallographic Data Centre
#                                CCDC 
#
#######################################################################
#
# If this CIF has been generated from an entry in the Cambridge 
# Structural Database, then it will include bibliographic, chemical, 
# crystal, experimental, refinement or atomic coordinate data resulting 
# from the CCDC's data processing and validation procedures.
#
#######################################################################

data_SIGNEC
_symmetry_cell_setting           monoclinic
_symmetry_space_group_name_H-M   'P c'
_symmetry_Int_Tables_number      7
_space_group_name_Hall           'P -2yc'
loop_
_symmetry_equiv_pos_site_id
_symmetry_equiv_pos_as_xyz
1 x,y,z
2 x,-y,1/2+z
_cell_length_a                   4.7600(10)
_cell_length_b                   11.030(2)
_cell_length_c                   9.880(2)
_cell_angle_alpha                90
_cell_angle_beta                 100.94(3)
_cell_angle_gamma                90
_cell_volume                     509.301
loop_
_atom_site_label
_atom_site_type_symbol
_atom_site_fract_x
_atom_site_fract_y
_atom_site_fract_z
Cs1 Cs 0.5800(4) 0.09211(5) 0.6089(2)
O1 O 0.386(4) -0.4646(13) 0.4452(15)
O2 O -0.215(4) -0.4589(17) 0.7854(14)
O3 O 0.125(4) -0.0956(6) 0.616(3)
O4 O 0.224(5) -0.123(2) 0.352(3)
O5 O 0.557(4) -0.243(3) 0.391(2)
O6 O 0.276(5) -0.6500(16) 0.571(3)
O7 O -0.047(4) -0.6551(15) 0.6860(13)
O8 O -0.392(5) -0.259(2) 0.8396(17)
O9 O -0.072(7) -0.1263(17) 0.846(2)
N1 N 0.334(3) -0.2106(15) 0.4129(13)
N2 N 0.099(5) -0.5954(7) 0.5926(14)
N3 N -0.189(5) -0.2215(15) 0.7969(15)
C1 C 0.218(5) -0.2807(16) 0.5204(17)
C2 C 0.230(4) -0.4074(12) 0.5240(18)
C3 C 0.068(7) -0.4683(7) 0.609(3)
C4 C -0.076(6) -0.3995(17) 0.701(2)
C5 C -0.051(4) -0.2756(19) 0.7058(18)
C6 C 0.105(6) -0.2071(9) 0.604(2)
H1 H 0.4283 -0.5313 0.4881
H2 H -0.2947 -0.5330 0.7235
Cs1_2 Cs -0.4200(4) 0.09211(5) 0.6089(2)
Cs1A Cs -0.4200(4) -0.09211(5) 0.1089(2)
Cs1A_2 Cs 0.5800(4) -0.09211(5) 0.1089(2)
Cs1_3 Cs 0.5800(4) -0.90789(5) 0.6089(2)
Cs1_4 Cs -0.4200(4) -0.90789(5) 0.6089(2)
Cs1A_3 Cs -0.4200(4) -0.09211(5) 1.1089(2)
Cs1A_4 Cs 0.5800(4) -0.09211(5) 1.1089(2)
O3_2 O 1.125(4) -0.0956(6) 0.616(3)
O4A O 0.224(5) 0.123(2) 0.852(3)
O4A_2 O 1.224(5) 0.123(2) 0.852(3)
O5A O 0.557(4) 0.243(3) 0.891(2)
O6_2 O 0.276(5) 0.3500(16) 0.571(3)
O7_2 O 0.953(4) 0.3449(15) 0.6860(13)
O8A O 0.608(5) 0.259(2) 0.3396(17)
O9_2 O 0.928(7) -0.1263(17) 0.846(2)
O9A O -0.072(7) 0.1263(17) 0.346(2)
O9A_2 O 0.928(7) 0.1263(17) 0.346(2)
loop_
_geom_bond_atom_site_label_1
_geom_bond_atom_site_label_2
_geom_bond_site_symmetry_1
_geom_bond_site_symmetry_2
Cs1 O3 1_555 1_555
O1 C2 1_555 1_555
O2 C4 1_555 1_555
O3 C6 1_555 1_555
O4 Cs1 1_555 1_555
O5 N1 1_555 1_555
O6 N2 1_555 1_555
O7 N2 1_555 1_555
O8 N3 1_555 1_555
O9 N3 1_555 1_555
N1 O4 1_555 1_555
N2 C3 1_555 1_555
N3 C5 1_555 1_555
C1 N1 1_555 1_555
C2 C1 1_555 1_555
C3 C2 1_555 1_555
C4 C3 1_555 1_555
C5 C4 1_555 1_555
C6 C1 1_555 1_555
H1 O1 1_555 1_555
H2 O2 1_555 1_555
Cs1_2 O3 1_555 1_555
Cs1A O4 1_555 1_555
Cs1A_2 O4 1_555 1_555
Cs1_3 O6 1_555 1_555
Cs1_4 O7 1_555 1_555
Cs1A_3 O8 1_555 1_555
Cs1A_4 O9 1_555 1_555
O3_2 Cs1 1_555 1_555
O4A Cs1 1_555 1_555
O4A_2 Cs1 1_555 1_555
O5A Cs1 1_555 1_555
O6_2 Cs1 1_555 1_555
O7_2 Cs1 1_555 1_555
O8A Cs1 1_555 1_555
O9_2 Cs1 1_555 1_555
O9A Cs1 1_555 1_555
O9A_2 Cs1 1_555 1_555
O5 Cs1A_2 1_555 1_555
O9 Cs1_2 1_555 1_555
O9 Cs1A_3 1_555 1_555
C5 C6 1_555 1_555
Cs1_2 O4A 1_555 1_555
Cs1_2 O9A 1_555 1_555
Cs1A O9A 1_555 1_555
Cs1A_2 O9A_2 1_555 1_555
Cs1A_4 O4A 1_555 1_555
Cs1A_4 O9_2 1_555 1_555

#END
