
#######################################################################
#
#                 Cambridge Crystallographic Data Centre
#                                CCDC 
#
#######################################################################
#
# If this CIF has been generated from an entry in the Cambridge 
# Structural Database, then it will include bibliographic, chemical, 
# crystal, experimental, refinement or atomic coordinate data resulting 
# from the CCDC's data processing and validation procedures.
#
#######################################################################

data_SIGSIL
_symmetry_cell_setting           triclinic
_symmetry_space_group_name_H-M   'P -1'
_symmetry_Int_Tables_number      2
_space_group_name_Hall           '-P 1'
loop_
_symmetry_equiv_pos_site_id
_symmetry_equiv_pos_as_xyz
1 x,y,z
2 -x,-y,-z
_cell_length_a                   11.291(8)
_cell_length_b                   14.462(11)
_cell_length_c                   14.797(11)
_cell_angle_alpha                100.774(12)
_cell_angle_beta                 106.743(12)
_cell_angle_gamma                96.121(12)
_cell_volume                     2239.67
loop_
_atom_site_label
_atom_site_type_symbol
_atom_site_fract_x
_atom_site_fract_y
_atom_site_fract_z
Sn1 Sn -0.29193(6) 0.60809(5) 0.25676(5)
Sn2 Sn -0.09796(6) 0.44523(4) 0.24191(5)
Sn3 Sn 0.05352(6) 0.66048(4) 0.26723(5)
Sn4 Sn -0.76231(6) 0.46951(4) 0.25096(5)
N1 N -0.2662(8) 0.8618(6) 0.0741(8)
N2 N -0.4659(10) 0.9039(8) 0.0670(9)
N3 N -0.5005(9) 0.7776(6) 0.4548(7)
N4 N -0.6052(10) 0.9061(7) 0.4918(10)
N5 N -0.9905(9) 0.1291(6) 0.0381(9)
N6 N -1.2057(10) 0.0930(7) 0.0290(10)
O1 O -0.2325(7) 0.7632(5) 0.2730(6)
O2 O -0.0390(7) 0.7942(5) 0.2698(7)
O3 O -0.5266(6) 0.5950(5) 0.2516(5)
O4 O -0.7080(6) 0.6268(4) 0.2649(5)
O5 O -0.8778(6) 0.3353(4) 0.2400(5)
O6 O -0.7043(8) 0.2758(5) 0.2395(6)
O7 O -0.1162(5) 0.5865(4) 0.2540(5)
O8 O -0.2912(6) 0.4586(4) 0.2410(5)
O9 O 0.0802(5) 0.5180(4) 0.2554(4)
S1 S -0.3032(3) 0.9479(2) 0.2400(2)
S2 S -0.6318(3) 0.84224(19) 0.3090(2)
S3 S -1.0452(3) 0.1449(2) 0.2034(3)
C1 C -0.1390(11) 0.8185(7) 0.2759(7)
C2 C -0.1465(9) 0.9214(7) 0.2800(8)
H1 H -0.0997 0.9439 0.2404
H2 H -0.1057 0.9571 0.3463
C3 C -0.3491(12) 0.8998(7) 0.1147(9)
C4 C -0.5006(13) 0.8717(9) -0.0301(13)
H3 H -0.5813 0.8751 -0.0670
C5 C -0.4236(14) 0.8351(9) -0.0751(10)
H4 H -0.4510 0.8129 -0.1422
C6 C -0.3067(13) 0.8307(8) -0.0231(11)
H5 H -0.2526 0.8059 -0.0545
C7 C -0.5980(10) 0.6524(8) 0.2597(7)
C8 C -0.5562(10) 0.7542(6) 0.2550(7)
H6 H -0.5718 0.7563 0.1875
H7 H -0.4664 0.7713 0.2871
C9 C -0.5700(10) 0.8412(7) 0.4311(8)
C10 C -0.5608(16) 0.9073(12) 0.5893(11)
H8 H -0.5819 0.9507 0.6345
C11 C -0.4827(14) 0.8413(12) 0.6192(12)
H9 H -0.4498 0.8404 0.6843
C12 C -0.4579(12) 0.7797(9) 0.5493(10)
H10 H -0.4074 0.7355 0.5682
C13 C -0.8160(13) 0.2674(8) 0.2400(8)
C14 C -0.8782(11) 0.1705(7) 0.2441(9)
H11 H -0.8493 0.1642 0.3107
H12 H -0.8483 0.1218 0.2059
C15 C -1.0822(12) 0.1202(6) 0.0761(9)
C16 C -1.2365(14) 0.0717(9) -0.0666(12)
H13 H -1.3212 0.0533 -0.1021
C17 C -1.1519(14) 0.0751(8) -0.1170(11)
H14 H -1.1746 0.0588 -0.1843
C18 C -1.0296(12) 0.1052(8) -0.0572(11)
H15 H -0.9682 0.1091 -0.0875
C19 C -0.2691(10) 0.6339(8) 0.4052(7)
H16 H -0.3467 0.6457 0.4157
H17 H -0.2049 0.6886 0.4388
H18 H -0.2451 0.5792 0.4292
C20 C -0.3850(10) 0.6015(9) 0.1093(7)
H19 H -0.4699 0.6113 0.1013
H20 H -0.3854 0.5400 0.0711
H21 H -0.3422 0.6503 0.0884
C21 C -0.1571(10) 0.3686(7) 0.0978(7)
H22 H -0.1675 0.4123 0.0557
H23 H -0.2356 0.3274 0.0843
H24 H -0.0953 0.3309 0.0871
C22 C -0.0575(11) 0.4010(7) 0.3711(8)
H25 H -0.0335 0.4558 0.4244
H26 H 0.0101 0.3652 0.3762
H27 H -0.1305 0.3614 0.3726
C23 C 0.0505(10) 0.6731(7) 0.1264(8)
H28 H 0.1295 0.7079 0.1296
H29 H -0.0158 0.7064 0.1004
H30 H 0.0366 0.6105 0.0852
C24 C 0.1469(9) 0.7094(8) 0.4168(7)
H31 H 0.2280 0.7453 0.4269
H32 H 0.1566 0.6557 0.4463
H33 H 0.0986 0.7494 0.4455
C25 C -0.7594(9) 0.4327(7) 0.1075(6)
H34 H -0.8391 0.4369 0.0639
H35 H -0.7434 0.3685 0.0936
H36 H -0.6944 0.4757 0.0993
C26 C -0.6450(9) 0.4822(7) 0.3939(7)
H37 H -0.6896 0.5014 0.4386
H38 H -0.5717 0.5292 0.4074
H39 H -0.6204 0.4217 0.4007
C27 C -0.3907(10) 0.3884(8) 0.2352(12)
H40 H -0.3652 0.3269 0.2278
H41 H -0.4616 0.3882 0.1805
H42 H -0.4134 0.4020 0.2935
Sn3_2 Sn -0.94648(6) 0.66048(4) 0.26723(5)
Sn4_2 Sn 0.23769(6) 0.46951(4) 0.25096(5)
O4_2 O 0.2920(6) 0.6268(4) 0.2649(5)
O9_2 O -0.9198(5) 0.5180(4) 0.2554(4)
O10 O 0.1628(16) 0.0394(9) 0.4793(11)
C28 C 0.2122(17) 0.0338(13) 0.4005(12)
H43 H 0.305(2) 0.041(8) 0.415(3)
H44 H 0.195(9) 0.082(5) 0.361(5)
H45 H 0.185(8) -0.026(4) 0.349(4)
H46 H 0.1493 -0.0139 0.5020
loop_
_geom_bond_atom_site_label_1
_geom_bond_atom_site_label_2
_geom_bond_site_symmetry_1
_geom_bond_site_symmetry_2
Sn1 O1 1_555 1_555
Sn2 O7 1_555 1_555
Sn3 O2 1_555 1_555
Sn4 O4 1_555 1_555
N1 C3 1_555 1_555
N2 C3 1_555 1_555
N3 C9 1_555 1_555
N4 C9 1_555 1_555
N5 C15 1_555 1_555
N6 C15 1_555 1_555
O1 C1 1_555 1_555
O2 C1 1_555 1_555
O3 Sn1 1_555 1_555
O4 C7 1_555 1_555
O5 Sn4 1_555 1_555
O6 C13 1_555 1_555
O7 Sn1 1_555 1_555
O8 Sn1 1_555 1_555
O9 Sn2 1_555 1_555
O10 C28 1_555 1_555
S1 C2 1_555 1_555
S2 C8 1_555 1_555
S3 C14 1_555 1_555
C1 C2 1_555 1_555
C2 H1 1_555 1_555
H2 C2 1_555 1_555
C3 S1 1_555 1_555
C4 N2 1_555 1_555
H3 C4 1_555 1_555
C5 C4 1_555 1_555
H4 C5 1_555 1_555
C6 N1 1_555 1_555
H5 C6 1_555 1_555
C7 O3 1_555 1_555
C8 C7 1_555 1_555
H6 C8 1_555 1_555
H7 C8 1_555 1_555
C9 S2 1_555 1_555
C10 N4 1_555 1_555
H8 C10 1_555 1_555
C11 C10 1_555 1_555
H9 C11 1_555 1_555
C12 N3 1_555 1_555
H10 C12 1_555 1_555
C13 O5 1_555 1_555
C14 C13 1_555 1_555
H11 C14 1_555 1_555
H12 C14 1_555 1_555
C15 S3 1_555 1_555
C16 N6 1_555 1_555
H13 C16 1_555 1_555
C17 C16 1_555 1_555
H14 C17 1_555 1_555
C18 N5 1_555 1_555
H15 C18 1_555 1_555
C19 Sn1 1_555 1_555
H16 C19 1_555 1_555
H17 C19 1_555 1_555
H18 C19 1_555 1_555
C20 Sn1 1_555 1_555
H19 C20 1_555 1_555
H20 C20 1_555 1_555
H21 C20 1_555 1_555
C21 Sn2 1_555 1_555
H22 C21 1_555 1_555
H23 C21 1_555 1_555
H24 C21 1_555 1_555
C22 Sn2 1_555 1_555
H25 C22 1_555 1_555
H26 C22 1_555 1_555
H27 C22 1_555 1_555
C23 Sn3 1_555 1_555
H28 C23 1_555 1_555
H29 C23 1_555 1_555
H30 C23 1_555 1_555
C24 Sn3 1_555 1_555
H31 C24 1_555 1_555
H32 C24 1_555 1_555
H33 C24 1_555 1_555
C25 Sn4 1_555 1_555
H34 C25 1_555 1_555
H35 C25 1_555 1_555
H36 C25 1_555 1_555
C26 Sn4 1_555 1_555
H37 C26 1_555 1_555
H38 C26 1_555 1_555
H39 C26 1_555 1_555
C27 O8 1_555 1_555
H40 C27 1_555 1_555
H41 C27 1_555 1_555
H42 C27 1_555 1_555
C28 H43 1_555 1_555
H44 C28 1_555 1_555
H45 C28 1_555 1_555
H46 O10 1_555 1_555
Sn3_2 O4 1_555 1_555
Sn4_2 O9 1_555 1_555
O4_2 Sn3 1_555 1_555
O9_2 Sn4 1_555 1_555
Sn2 O8 1_555 1_555
Sn3 O7 1_555 1_555
Sn3 O9 1_555 1_555
C5 C6 1_555 1_555
C11 C12 1_555 1_555
C17 C18 1_555 1_555
Sn3_2 O9_2 1_555 1_555
Sn4_2 O4_2 1_555 1_555

#END
