
#######################################################################
#
#                 Cambridge Crystallographic Data Centre
#                                CCDC 
#
#######################################################################
#
# If this CIF has been generated from an entry in the Cambridge 
# Structural Database, then it will include bibliographic, chemical, 
# crystal, experimental, refinement or atomic coordinate data resulting 
# from the CCDC's data processing and validation procedures.
#
#######################################################################

data_SIHDUJ
_symmetry_cell_setting           triclinic
_symmetry_space_group_name_H-M   'P -1'
_symmetry_Int_Tables_number      2
_space_group_name_Hall           '-P 1'
loop_
_symmetry_equiv_pos_site_id
_symmetry_equiv_pos_as_xyz
1 x,y,z
2 -x,-y,-z
_cell_length_a                   12.6040(16)
_cell_length_b                   13.9039(17)
_cell_length_c                   14.6239(16)
_cell_angle_alpha                78.345(6)
_cell_angle_beta                 75.231(5)
_cell_angle_gamma                87.421(6)
_cell_volume                     2426.94
loop_
_atom_site_label
_atom_site_type_symbol
_atom_site_fract_x
_atom_site_fract_y
_atom_site_fract_z
Mo1 Mo 0.18575(4) 0.68367(3) 0.30313(3)
Mo2 Mo -0.17064(4) 0.48473(3) 0.32352(3)
Mo3 Mo -0.00794(4) 0.69433(3) 0.27460(3)
Mo4 Mo 0.17935(4) 0.29320(3) 0.40269(3)
Mo5 Mo -0.09037(4) 0.31173(3) 0.37635(3)
Mo6 Mo 0.29469(4) 0.45147(3) 0.37220(3)
Zn1 Zn 0.0000 0.5000 0.5000
Zn2 Zn 0.17924(5) 0.34523(5) 0.07855(4)
Zn3 Zn 0.61559(5) 0.77653(5) 0.18706(5)
Zn4 Zn -0.20829(5) 0.33905(5) 0.16209(5)
P1 P -0.15333(11) 0.65922(10) 0.12469(10)
P2 P 0.43029(11) 0.61859(10) 0.18655(10)
P3 P 0.09327(12) 0.17233(10) 0.26187(10)
P4 P 0.11022(11) 0.47560(10) 0.23443(10)
O1 O 0.5424(3) 0.6631(3) 0.1646(3)
O2 O 0.3398(3) 0.6927(3) 0.2128(3)
O3 O -0.2418(3) 0.7320(3) 0.1120(3)
O4 O 0.4211(3) 0.5873(3) 0.0909(3)
O5 O 0.4195(3) 0.5246(3) 0.2635(3)
O6 O 0.1885(3) 0.7896(3) 0.3394(3)
O7 O 0.0449(3) 0.6267(3) 0.3875(3)
O8 O -0.0462(3) 0.8033(3) 0.3027(3)
O9 O -0.0616(3) 0.7069(3) 0.1532(3)
O10 O -0.1975(3) 0.5651(3) 0.1990(3)
O11 O -0.0246(3) 0.2012(3) 0.3073(3)
O12 O 0.1701(3) 0.1907(3) 0.3230(3)
O13 O 0.0119(3) 0.2584(3) 0.4683(3)
O14 O 0.1323(3) 0.2196(3) 0.1579(3)
O15 O 0.1465(3) 0.4151(3) 0.4554(3)
O16 O 0.3732(3) 0.4154(3) 0.4503(3)
O17 O 0.2316(3) 0.2198(3) 0.4867(3)
O18 O 0.0933(3) 0.0600(3) 0.2625(3)
O19 O 0.3069(3) 0.3476(3) 0.3002(3)
O20 O -0.1045(3) 0.6262(3) 0.0263(3)
O21 O -0.1598(3) 0.6249(3) 0.3521(3)
O22 O 0.0051(3) 0.5374(3) 0.2472(3)
O23 O 0.1353(3) 0.7169(3) 0.1866(3)
O24 O 0.2609(3) 0.5923(3) 0.4025(3)
O25 O 0.1955(3) 0.5267(3) 0.2685(3)
O26 O -0.0984(3) 0.4340(3) 0.4289(3)
O27 O 0.0808(3) 0.3756(3) 0.3005(3)
O28 O -0.1325(3) 0.3736(3) 0.2578(3)
O29 O -0.2057(3) 0.2539(3) 0.4454(3)
O30 O -0.3033(3) 0.4630(3) 0.3815(3)
O31 O 0.1540(3) 0.4641(3) 0.1310(3)
O32 O 0.6467(3) 0.7267(3) 0.3208(3)
O33 O -0.1017(3) 0.4201(3) 0.0489(3)
O34 O -0.3261(3) 0.4442(3) 0.1373(3)
O35 O 0.3383(3) 0.3376(3) 0.0229(3)
C1 C 0.4197(5) 0.8517(5) 0.3373(5)
H1 H 0.4173 0.7885 0.3739
C2 C 0.3490(5) 0.9197(5) 0.3745(5)
H2 H 0.2997 0.9030 0.4346
C3 C 0.3525(5) 1.0145(5) 0.3200(5)
H3 H 0.3039 1.0617 0.3427
C4 C 0.4287(5) 1.0385(4) 0.2318(5)
C5 C 0.4963(5) 0.9647(5) 0.1989(4)
C6 C 0.5856(6) 1.0793(5) 0.0513(5)
C7 C 0.5755(5) 0.9831(4) 0.1079(4)
C8 C 0.5187(6) 1.1547(5) 0.0859(5)
H4 H 0.5272 1.2185 0.0499
C9 C 0.4412(6) 1.1351(5) 0.1722(5)
H5 H 0.3958 1.1853 0.1927
C10 C 0.7250(6) 1.0156(5) -0.0667(5)
H6 H 0.7754 1.0240 -0.1265
C11 C 0.7130(5) 0.9247(5) -0.0058(5)
H7 H 0.7573 0.8735 -0.0252
C12 C -0.0701(5) 0.1783(5) 0.0754(5)
H8 H -0.0327 0.2278 0.0266
C13 C -0.0332(5) 0.0810(5) 0.0776(4)
H9 H 0.0293 0.0675 0.0323
C14 C -0.1833(5) 0.0284(4) 0.2145(5)
C15 C -0.0885(5) 0.0076(5) 0.1454(5)
H10 H -0.0643 -0.0567 0.1469
C16 C -0.2125(5) 0.1292(4) 0.2082(4)
C17 C -0.3067(5) 0.1553(4) 0.2746(4)
C18 C -0.4188(5) 0.2789(4) 0.3293(5)
H11 H -0.4342 0.3455 0.3246
C19 C -0.4887(6) 0.2125(6) 0.3999(5)
H12 H -0.5497 0.2338 0.4417
C20 C -0.4652(6) 0.1145(5) 0.4062(5)
H13 H -0.5120 0.0687 0.4523
C21 C -0.3724(6) 0.0816(5) 0.3452(5)
C22 C -0.3411(6) -0.0177(5) 0.3455(5)
H14 H -0.3864 -0.0666 0.3887
C23 C -0.2513(6) -0.0440(5) 0.2880(5)
H15 H -0.2315 -0.1098 0.2948
C24 C 0.6627(6) 1.0942(5) -0.0395(5)
H16 H 0.6713 1.1556 -0.0801
N1 N 0.6396(4) 0.9076(4) 0.0807(4)
N2 N 0.4923(4) 0.8709(3) 0.2510(4)
N3 N -0.1550(4) 0.2015(4) 0.1393(4)
N4 N -0.3316(4) 0.2523(3) 0.2685(4)
Mo1A Mo -0.18575(4) 0.31633(3) 0.69687(3)
Mo2A Mo 0.17064(4) 0.51527(3) 0.67648(3)
Mo3A Mo 0.00794(4) 0.30567(3) 0.72540(3)
Mo4A Mo -0.17935(4) 0.70680(3) 0.59731(3)
Mo5A Mo 0.09037(4) 0.68827(3) 0.62365(3)
Mo6A Mo -0.29469(4) 0.54853(3) 0.62780(3)
Zn2A Zn -0.17924(5) 0.65477(5) 0.92145(4)
Zn2A_2 Zn -0.17924(5) 0.65477(5) -0.07855(4)
Zn2_2 Zn 0.17924(5) 0.34523(5) 1.07855(4)
Zn3A Zn -0.61559(5) 0.22347(5) 0.81294(5)
Zn3_2 Zn -0.38441(5) 0.77653(5) 0.18706(5)
Zn3A_2 Zn 0.38441(5) 0.22347(5) 0.81294(5)
Zn4A Zn 0.20829(5) 0.66095(5) 0.83791(5)
P1A P 0.15333(11) 0.34078(10) 0.87531(10)
P2A P -0.43029(11) 0.38141(10) 0.81345(10)
P3A P -0.09327(12) 0.82767(10) 0.73813(10)
P4A P -0.11022(11) 0.52440(10) 0.76557(10)
O1A O -0.5424(3) 0.3369(3) 0.8354(3)
O2A O -0.3398(3) 0.3073(3) 0.7872(3)
O3A O 0.2418(3) 0.2680(3) 0.8880(3)
O3_2 O 0.7582(3) 0.7320(3) 0.1120(3)
O3A_2 O -0.7582(3) 0.2680(3) 0.8880(3)
O4A O -0.4211(3) 0.4127(3) 0.9091(3)
O5A O -0.4195(3) 0.4754(3) 0.7365(3)
O6A O -0.1885(3) 0.2104(3) 0.6606(3)
O7A O -0.0449(3) 0.3733(3) 0.6125(3)
O8A O 0.0462(3) 0.1967(3) 0.6973(3)
O9A O 0.0616(3) 0.2931(3) 0.8468(3)
O10A O 0.1975(3) 0.4349(3) 0.8010(3)
O11A O 0.0246(3) 0.7988(3) 0.6927(3)
O12A O -0.1701(3) 0.8093(3) 0.6770(3)
O13A O -0.0119(3) 0.7416(3) 0.5317(3)
O14A O -0.1323(3) 0.7804(3) 0.8421(3)
O15A O -0.1465(3) 0.5849(3) 0.5446(3)
O16A O -0.3732(3) 0.5846(3) 0.5497(3)
O17A O -0.2316(3) 0.7802(3) 0.5133(3)
O18A O -0.0933(3) 0.9400(3) 0.7375(3)
O19A O -0.3069(3) 0.6524(3) 0.6998(3)
O20A O 0.1045(3) 0.3738(3) 0.9737(3)
O20A_2 O 0.1045(3) 0.3738(3) -0.0263(3)
O20_2 O -0.1045(3) 0.6262(3) 1.0263(3)
O21A O 0.1598(3) 0.3751(3) 0.6479(3)
O22A O -0.0051(3) 0.4626(3) 0.7528(3)
O23A O -0.1353(3) 0.2831(3) 0.8134(3)
O24A O -0.2609(3) 0.4077(3) 0.5975(3)
O25A O -0.1955(3) 0.4733(3) 0.7315(3)
O26A O 0.0984(3) 0.5660(3) 0.5711(3)
O27A O -0.0808(3) 0.6244(3) 0.6995(3)
O28A O 0.1325(3) 0.6264(3) 0.7422(3)
O29A O 0.2057(3) 0.7461(3) 0.5546(3)
O30A O 0.3033(3) 0.5370(3) 0.6185(3)
O31A O -0.1540(3) 0.5359(3) 0.8690(3)
O32A O -0.6467(3) 0.2733(3) 0.6792(3)
O33A O 0.1017(3) 0.5799(3) 0.9511(3)
O34A O 0.3261(3) 0.5558(3) 0.8627(3)
O35A O -0.3383(3) 0.6624(3) 0.9771(3)
C1A C -0.4197(5) 0.1483(5) 0.6627(5)
H1A H -0.4173 0.2115 0.6261
C2A C -0.3490(5) 0.0803(5) 0.6255(5)
H2A H -0.2997 0.0970 0.5654
C3A C -0.3525(5) -0.0145(5) 0.6800(5)
H3A H -0.3039 -0.0617 0.6573
C4A C -0.4287(5) -0.0385(4) 0.7682(5)
C5A C -0.4963(5) 0.0353(5) 0.8011(4)
C6A C -0.5856(6) -0.0793(5) 0.9487(5)
C7A C -0.5755(5) 0.0169(4) 0.8921(4)
C8A C -0.5187(6) -0.1547(5) 0.9141(5)
H4A H -0.5272 -0.2185 0.9501
C9A C -0.4412(6) -0.1351(5) 0.8278(5)
H5A H -0.3958 -0.1853 0.8073
C10A C -0.7250(6) -0.0156(5) 1.0667(5)
H6A H -0.7754 -0.0240 1.1265
C11A C -0.7130(5) 0.0753(5) 1.0058(5)
H7A H -0.7573 0.1265 1.0252
C12A C 0.0701(5) 0.8217(5) 0.9246(5)
H8A H 0.0327 0.7722 0.9734
C13A C 0.0332(5) 0.9190(5) 0.9224(4)
H9A H -0.0293 0.9325 0.9677
C14A C 0.1833(5) 0.9716(4) 0.7855(5)
C15A C 0.0885(5) 0.9924(5) 0.8546(5)
H10A H 0.0643 1.0567 0.8531
C16A C 0.2125(5) 0.8708(4) 0.7918(4)
C17A C 0.3067(5) 0.8447(4) 0.7254(4)
C18A C 0.4188(5) 0.7211(4) 0.6707(5)
H11A H 0.4342 0.6545 0.6754
C19A C 0.4887(6) 0.7875(6) 0.6001(5)
H12A H 0.5497 0.7662 0.5583
C20A C 0.4652(6) 0.8855(5) 0.5938(5)
H13A H 0.5120 0.9313 0.5477
C21A C 0.3724(6) 0.9184(5) 0.6548(5)
C22A C 0.3411(6) 1.0177(5) 0.6545(5)
H14A H 0.3864 1.0666 0.6113
C23A C 0.2513(6) 1.0440(5) 0.7120(5)
H15A H 0.2315 1.1098 0.7052
C24A C -0.6627(6) -0.0942(5) 1.0395(5)
H16A H -0.6713 -0.1556 1.0801
N1A N -0.6396(4) 0.0924(4) 0.9193(4)
N2A N -0.4923(4) 0.1291(3) 0.7490(4)
N3A N 0.1550(4) 0.7985(4) 0.8607(4)
N4A N 0.3316(4) 0.7477(3) 0.7315(4)
O36 O 0.2566(3) 0.6556(3) 0.0295(3)
O37 O 0.4661(3) 0.3893(3) 0.1272(3)
O38 O 0.4705(4) 0.6288(3) 0.4394(3)
loop_
_geom_bond_atom_site_label_1
_geom_bond_atom_site_label_2
_geom_bond_site_symmetry_1
_geom_bond_site_symmetry_2
Mo1 Mo3 1_555 1_555
Mo2 Mo5 1_555 1_555
Mo3 O7 1_555 1_555
Mo4 Mo6 1_555 1_555
Mo5 O11 1_555 1_555
Mo6 O5 1_555 1_555
Zn1 O7 1_555 1_555
Zn2 O14 1_555 1_555
Zn3 O1 1_555 1_555
Zn4 O28 1_555 1_555
P1 O3 1_555 1_555
P2 O1 1_555 1_555
P3 O11 1_555 1_555
P4 O22 1_555 1_555
O2 Mo1 1_555 1_555
O3 Zn3_2 1_555 1_555
O4 P2 1_555 1_555
O5 P2 1_555 1_555
O6 Mo1 1_555 1_555
O7 Mo1 1_555 1_555
O8 Mo3 1_555 1_555
O9 Mo3 1_555 1_555
O10 Mo2 1_555 1_555
O12 Mo4 1_555 1_555
O13 Mo4 1_555 1_555
O14 P3 1_555 1_555
O15 Mo4 1_555 1_555
O16 Mo6 1_555 1_555
O17 Mo4 1_555 1_555
O18 P3 1_555 1_555
O19 Mo4 1_555 1_555
O20 P1 1_555 1_555
O21 Mo2 1_555 1_555
O22 Mo2 1_555 1_555
O23 Mo1 1_555 1_555
O24 Mo1 1_555 1_555
O25 Mo1 1_555 1_555
O26 Mo2 1_555 1_555
O27 Mo4 1_555 1_555
O28 Mo2 1_555 1_555
O29 Mo5 1_555 1_555
O30 Mo2 1_555 1_555
O31 Zn2 1_555 1_555
O32 Zn3 1_555 1_555
O33 Zn4 1_555 1_555
O34 Zn4 1_555 1_555
O35 Zn2 1_555 1_555
C1 H1 1_555 1_555
C2 C1 1_555 1_555
H2 C2 1_555 1_555
C3 C2 1_555 1_555
H3 C3 1_555 1_555
C4 C3 1_555 1_555
C5 C4 1_555 1_555
C6 C7 1_555 1_555
C7 C5 1_555 1_555
C8 C6 1_555 1_555
H4 C8 1_555 1_555
C9 C4 1_555 1_555
H5 C9 1_555 1_555
C10 H6 1_555 1_555
C11 C10 1_555 1_555
H7 C11 1_555 1_555
C12 H8 1_555 1_555
C13 C12 1_555 1_555
H9 C13 1_555 1_555
C14 C15 1_555 1_555
C15 C13 1_555 1_555
H10 C15 1_555 1_555
C16 C14 1_555 1_555
C17 C16 1_555 1_555
C18 H11 1_555 1_555
C19 C18 1_555 1_555
H12 C19 1_555 1_555
C20 C19 1_555 1_555
H13 C20 1_555 1_555
C21 C17 1_555 1_555
C22 C21 1_555 1_555
H14 C22 1_555 1_555
C23 C14 1_555 1_555
H15 C23 1_555 1_555
C24 C6 1_555 1_555
H16 C24 1_555 1_555
N1 Zn3 1_555 1_555
N2 Zn3 1_555 1_555
N3 Zn4 1_555 1_555
N4 Zn4 1_555 1_555
Mo1A Mo3A 1_555 1_555
Mo2A Mo5A 1_555 1_555
Mo3A O7A 1_555 1_555
Mo4A Mo6A 1_555 1_555
Mo5A O11A 1_555 1_555
Mo6A O5A 1_555 1_555
Zn2A O14A 1_555 1_555
Zn2A_2 O20 1_555 1_555
Zn2_2 O20A 1_555 1_555
Zn3A O1A 1_555 1_555
Zn3A_2 O3A 1_555 1_555
Zn4A O28A 1_555 1_555
P1A O3A 1_555 1_555
P2A O1A 1_555 1_555
P3A O11A 1_555 1_555
P4A O22A 1_555 1_555
O2A Mo1A 1_555 1_555
O3_2 Zn3 1_555 1_555
O3A_2 Zn3A 1_555 1_555
O4A P2A 1_555 1_555
O5A P2A 1_555 1_555
O6A Mo1A 1_555 1_555
O7A Zn1 1_555 1_555
O8A Mo3A 1_555 1_555
O9A Mo3A 1_555 1_555
O10A Mo2A 1_555 1_555
O12A Mo4A 1_555 1_555
O13A Mo4A 1_555 1_555
O14A P3A 1_555 1_555
O15A Zn1 1_555 1_555
O16A Mo6A 1_555 1_555
O17A Mo4A 1_555 1_555
O18A P3A 1_555 1_555
O19A Mo4A 1_555 1_555
O20A P1A 1_555 1_555
O20A_2 Zn2 1_555 1_555
O20_2 Zn2A 1_555 1_555
O21A Mo2A 1_555 1_555
O22A Mo2A 1_555 1_555
O23A Mo1A 1_555 1_555
O24A Mo1A 1_555 1_555
O25A Mo1A 1_555 1_555
O26A Zn1 1_555 1_555
O27A Mo4A 1_555 1_555
O28A Mo2A 1_555 1_555
O29A Mo5A 1_555 1_555
O30A Mo2A 1_555 1_555
O31A Zn2A 1_555 1_555
O32A Zn3A 1_555 1_555
O33A Zn4A 1_555 1_555
O34A Zn4A 1_555 1_555
O35A Zn2A 1_555 1_555
C1A H1A 1_555 1_555
C2A C1A 1_555 1_555
H2A C2A 1_555 1_555
C3A C2A 1_555 1_555
H3A C3A 1_555 1_555
C4A C3A 1_555 1_555
C5A C4A 1_555 1_555
C6A C7A 1_555 1_555
C7A C5A 1_555 1_555
C8A C6A 1_555 1_555
H4A C8A 1_555 1_555
C9A C4A 1_555 1_555
H5A C9A 1_555 1_555
C10A H6A 1_555 1_555
C11A C10A 1_555 1_555
H7A C11A 1_555 1_555
C12A H8A 1_555 1_555
C13A C12A 1_555 1_555
H9A C13A 1_555 1_555
C14A C15A 1_555 1_555
C15A C13A 1_555 1_555
H10A C15A 1_555 1_555
C16A C14A 1_555 1_555
C17A C16A 1_555 1_555
C18A H11A 1_555 1_555
C19A C18A 1_555 1_555
H12A C19A 1_555 1_555
C20A C19A 1_555 1_555
H13A C20A 1_555 1_555
C21A C17A 1_555 1_555
C22A C21A 1_555 1_555
H14A C22A 1_555 1_555
C23A C14A 1_555 1_555
H15A C23A 1_555 1_555
C24A C6A 1_555 1_555
H16A C24A 1_555 1_555
N1A Zn3A 1_555 1_555
N2A Zn3A 1_555 1_555
N3A Zn4A 1_555 1_555
N4A Zn4A 1_555 1_555
Mo3 O21 1_555 1_555
Mo3 O22 1_555 1_555
Mo3 O23 1_555 1_555
Mo5 O13 1_555 1_555
Mo5 O26 1_555 1_555
Mo5 O27 1_555 1_555
Mo5 O28 1_555 1_555
Mo6 O15 1_555 1_555
Mo6 O19 1_555 1_555
Mo6 O24 1_555 1_555
Mo6 O25 1_555 1_555
Zn1 O15 1_555 1_555
Zn1 O26 1_555 1_555
P1 O9 1_555 1_555
P1 O10 1_555 1_555
P2 O2 1_555 1_555
P3 O12 1_555 1_555
P4 O25 1_555 1_555
P4 O27 1_555 1_555
P4 O31 1_555 1_555
C1 N2 1_555 1_555
C5 N2 1_555 1_555
C7 N1 1_555 1_555
C8 C9 1_555 1_555
C10 C24 1_555 1_555
C11 N1 1_555 1_555
C12 N3 1_555 1_555
C16 N3 1_555 1_555
C17 N4 1_555 1_555
C18 N4 1_555 1_555
C20 C21 1_555 1_555
C22 C23 1_555 1_555
Mo1A O7A 1_555 1_555
Mo2A O26A 1_555 1_555
Mo3A O21A 1_555 1_555
Mo3A O22A 1_555 1_555
Mo3A O23A 1_555 1_555
Mo4A O15A 1_555 1_555
Mo5A O13A 1_555 1_555
Mo5A O26A 1_555 1_555
Mo5A O27A 1_555 1_555
Mo5A O28A 1_555 1_555
Mo6A O15A 1_555 1_555
Mo6A O19A 1_555 1_555
Mo6A O24A 1_555 1_555
Mo6A O25A 1_555 1_555
P1A O9A 1_555 1_555
P1A O10A 1_555 1_555
P2A O2A 1_555 1_555
P3A O12A 1_555 1_555
P4A O25A 1_555 1_555
P4A O27A 1_555 1_555
P4A O31A 1_555 1_555
C1A N2A 1_555 1_555
C5A N2A 1_555 1_555
C7A N1A 1_555 1_555
C8A C9A 1_555 1_555
C10A C24A 1_555 1_555
C11A N1A 1_555 1_555
C12A N3A 1_555 1_555
C16A N3A 1_555 1_555
C17A N4A 1_555 1_555
C18A N4A 1_555 1_555
C20A C21A 1_555 1_555
C22A C23A 1_555 1_555

#END
