
#######################################################################
#
#                 Cambridge Crystallographic Data Centre
#                                CCDC 
#
#######################################################################
#
# If this CIF has been generated from an entry in the Cambridge 
# Structural Database, then it will include bibliographic, chemical, 
# crystal, experimental, refinement or atomic coordinate data resulting 
# from the CCDC's data processing and validation procedures.
#
#######################################################################

data_SIHKOK
_symmetry_cell_setting           triclinic
_symmetry_space_group_name_H-M   'P -1'
_symmetry_Int_Tables_number      2
_space_group_name_Hall           '-P 1'
loop_
_symmetry_equiv_pos_site_id
_symmetry_equiv_pos_as_xyz
1 x,y,z
2 -x,-y,-z
_cell_length_a                   9.0682(2)
_cell_length_b                   9.5114(3)
_cell_length_c                   14.0066(4)
_cell_angle_alpha                74.975(2)
_cell_angle_beta                 86.534(2)
_cell_angle_gamma                82.725(2)
_cell_volume                     1156.91
loop_
_atom_site_label
_atom_site_type_symbol
_atom_site_fract_x
_atom_site_fract_y
_atom_site_fract_z
Na1 Na 0.38021(15) 0.84584(18) -0.22409(11)
Nd1 Nd 0.222174(17) 0.435559(18) 0.158671(13)
Nd2 Nd -0.186940(17) 0.137850(18) -0.038450(13)
Nd3 Nd -0.267500(17) 0.226650(19) 0.496550(13)
P1 P 0.11107(8) 0.27961(9) -0.04589(7)
O1 O 0.1740(2) 0.3225(2) 0.03749(17)
O2 O -0.0469(2) 0.3563(2) -0.07312(17)
O3 O 0.0917(2) 0.1133(2) -0.02188(16)
O4 O -0.2072(2) 0.2926(3) 0.31506(17)
O5 O -0.0307(2) 0.3588(2) 0.20001(16)
O6 O 0.1444(2) 0.3875(3) 0.33637(18)
O7 O -0.0255(2) 0.3104(3) 0.45439(17)
O8 O 0.2898(3) 0.6585(3) 0.35875(18)
O9 O 0.2467(2) 0.6812(2) 0.20037(17)
O10 O 0.0782(2) 0.9324(2) 0.19334(17)
O11 O 0.1161(2) 0.9059(2) 0.35427(17)
O12 O -0.3844(2) 0.0327(2) -0.10517(17)
O13 O -0.6027(2) -0.0574(2) -0.07981(17)
O14 O 0.4809(2) 0.3499(2) 0.09866(17)
O15 O 0.6516(2) 0.3799(2) -0.02494(16)
O16 O -0.5284(2) 0.3168(2) 0.53419(19)
O17 O -0.6686(2) 0.5090(2) 0.56558(17)
O18 O -0.3857(2) 0.0130(2) 0.59208(17)
O19 O -0.5550(2) -0.1392(2) 0.59835(16)
O20 O 0.4343(2) 0.4190(3) 0.27693(19)
H1 H 0.4286 0.5016 0.3024
H2 H 0.4667 0.3348 0.3184
O21 O 0.2983(3) 0.1696(2) 0.22839(17)
H3 H 0.3112 0.1044 0.2872
H4 H 0.2968 0.0995 0.1969
O22 O -0.1425(2) 0.1547(2) 0.13260(16)
H5 H -0.0717 0.0824 0.1648
H6 H -0.1298 0.2404 0.1414
O23 O -0.1377(2) 0.0064(3) 0.45134(19)
H7 H -0.0598 -0.0359 0.4308
H8 H -0.1960 -0.0015 0.4024
C1 C -0.0823(3) 0.3320(3) 0.2869(3)
C2 C 0.0223(3) 0.3457(4) 0.3659(3)
C3 C 0.2319(3) 0.7222(3) 0.2793(3)
C4 C 0.1320(3) 0.8667(3) 0.2755(3)
C5 C -0.4967(3) -0.0072(3) -0.0533(2)
C6 C 0.5373(3) 0.4214(3) 0.0222(2)
C7 C -0.5571(3) 0.4490(4) 0.5288(2)
C8 C -0.4826(3) -0.0377(3) 0.5550(2)
C9 C 0.2371(4) 0.3207(4) -0.1499(3)
H13 H 0.3439 0.2604 -0.1442
H14 H 0.1808 0.3270 -0.2029
H15 H 0.2763 0.4192 -0.1616
Nd1A Nd -0.222174(17) 0.564441(18) -0.158671(13)
Nd1A_2 Nd 0.777826(17) 0.564441(18) -0.158671(13)
Nd2A Nd 0.186940(17) 0.862150(18) 0.038450(13)
Nd2A_2 Nd 0.186940(17) -0.137850(18) 0.038450(13)
Nd2A_3 Nd -0.813060(17) -0.137850(18) 0.038450(13)
Nd2_2 Nd 0.813060(17) 0.137850(18) -0.038450(13)
Nd2_3 Nd -0.186940(17) 1.137850(18) -0.038450(13)
Nd3A Nd 0.267500(17) 0.773350(19) 0.503450(13)
Nd3A_2 Nd -0.732500(17) 0.773350(19) 0.503450(13)
Nd3A_3 Nd -0.732500(17) -0.226650(19) 0.503450(13)
Nd3_2 Nd -0.267500(17) 0.226650(19) -0.503450(13)
Nd3A_4 Nd 0.267500(17) 0.773350(19) -0.496550(13)
P1A P -0.11107(8) 0.72039(9) 0.04589(7)
O1A O -0.1740(2) 0.6775(2) -0.03749(17)
O2A O 0.0469(2) 0.6437(2) 0.07312(17)
O3A O -0.0917(2) 0.8867(2) 0.02188(16)
O3A_2 O -0.0917(2) -0.1133(2) 0.02188(16)
O3_2 O 0.0917(2) 1.1133(2) -0.02188(16)
O4A O 0.2072(2) 0.7074(3) -0.31506(17)
O4A_2 O 0.2072(2) 0.7074(3) 0.68494(17)
O5A O 0.0307(2) 0.6412(2) -0.20001(16)
O6A O -0.1444(2) 0.6125(3) -0.33637(18)
O7A O 0.0255(2) 0.6896(3) -0.45439(17)
O7A_2 O 0.0255(2) 0.6896(3) 0.54561(17)
O8A O -0.2898(3) 0.3415(3) -0.35875(18)
O8A_2 O -0.2898(3) 0.3415(3) 0.64125(18)
O9A O -0.2467(2) 0.3188(2) -0.20037(17)
O10A O -0.0782(2) 0.0676(2) -0.19334(17)
O11A O -0.1161(2) 0.0941(2) -0.35427(17)
O11A_2 O -0.1161(2) 0.0941(2) 0.64573(17)
O12A O -0.6156(2) -0.0327(2) 0.10517(17)
O12A_2 O 0.3844(2) 0.9673(2) 0.10517(17)
O13A O -0.3973(2) 0.0574(2) 0.07981(17)
O13_2 O 0.3973(2) 0.9426(2) -0.07981(17)
O14A O 0.5191(2) 0.6501(2) -0.09866(17)
O14A_2 O -0.4809(2) 0.6501(2) -0.09866(17)
O15A O 0.3484(2) 0.6201(2) 0.02494(16)
O15_2 O -0.3484(2) 0.3799(2) -0.02494(16)
O16A O -0.4716(2) 0.6832(2) 0.46581(19)
O16A_2 O 0.5284(2) 0.6832(2) 0.46581(19)
O17A O -0.3314(2) 0.4910(2) 0.43442(17)
O17_2 O 0.3314(2) 0.5090(2) 0.56558(17)
O18A O -0.6143(2) -0.0130(2) 0.40792(17)
O18A_2 O 0.3857(2) 0.9870(2) 0.40792(17)
O19A O -0.4450(2) 0.1392(2) 0.40165(16)
O19_2 O 0.4450(2) 0.8608(2) 0.59835(16)
O20A O -0.4343(2) 0.5810(3) -0.27693(19)
H1A H -0.4286 0.4984 -0.3024
H2A H -0.4667 0.6652 -0.3184
O21A O -0.2983(3) 0.8304(2) -0.22839(17)
H3A H -0.3112 0.8956 -0.2872
H4A H -0.2968 0.9005 -0.1969
O22A O 0.1425(2) 0.8453(2) -0.13260(16)
H5A H 0.0717 0.9176 -0.1648
H6A H 0.1298 0.7596 -0.1414
O23A O 0.1377(2) 0.9936(3) 0.54866(19)
H7A H 0.0598 1.0359 0.5692
H8A H 0.1960 1.0015 0.5976
C1A C 0.0823(3) 0.6680(3) -0.2869(3)
C2A C -0.0223(3) 0.6543(4) -0.3659(3)
C3A C -0.2319(3) 0.2778(3) -0.2793(3)
C4A C -0.1320(3) 0.1333(3) -0.2755(3)
C5A C -0.5033(3) 0.0072(3) 0.0533(2)
C6A C 0.4627(3) 0.5786(3) -0.0222(2)
C7A C -0.4429(3) 0.5510(4) 0.4712(2)
C8A C -0.5174(3) 0.0377(3) 0.4450(2)
C9A C -0.2371(4) 0.6793(4) 0.1499(3)
H13A H -0.3439 0.7396 0.1442
H14A H -0.1808 0.6730 0.2029
H15A H -0.2763 0.5808 0.1616
O24 O 0.0965(3) -0.6636(3) 0.6294(2)
H9 H 0.1860 -0.6134 0.5996
H10 H 0.0453 -0.6548 0.5637
O25 O 0.3044(3) 1.0995(3) -0.3168(3)
H11 H 0.2039 1.1642 -0.3267
H12 H 0.3707 1.1597 -0.3658
loop_
_geom_bond_atom_site_label_1
_geom_bond_atom_site_label_2
_geom_bond_site_symmetry_1
_geom_bond_site_symmetry_2
Nd1 O1 1_555 1_555
Nd2 O2 1_555 1_555
Nd3 O4 1_555 1_555
P1 O1 1_555 1_555
O2 P1 1_555 1_555
O3 Nd2 1_555 1_555
O4 C1 1_555 1_555
O5 Nd1 1_555 1_555
O6 Nd1 1_555 1_555
O7 Nd3 1_555 1_555
O8 C3 1_555 1_555
O9 Nd1 1_555 1_555
O10 C4 1_555 1_555
O11 C4 1_555 1_555
O12 Nd2 1_555 1_555
O13 C5 1_555 1_555
O14 Nd1 1_555 1_555
O15 C6 1_555 1_555
O16 Nd3 1_555 1_555
O17 C7 1_555 1_555
O18 Nd3 1_555 1_555
O19 C8 1_555 1_555
O20 Nd1 1_555 1_555
H1 O20 1_555 1_555
H2 O20 1_555 1_555
O21 Nd1 1_555 1_555
H3 O21 1_555 1_555
H4 O21 1_555 1_555
O22 Nd2 1_555 1_555
H5 O22 1_555 1_555
H6 O22 1_555 1_555
O23 Nd3 1_555 1_555
H7 O23 1_555 1_555
H8 O23 1_555 1_555
O24 H9 1_555 1_555
H10 O24 1_555 1_555
O25 H11 1_555 1_555
H12 O25 1_555 1_555
C1 O5 1_555 1_555
C2 O6 1_555 1_555
C3 O9 1_555 1_555
C4 C3 1_555 1_555
C5 O12 1_555 1_555
C6 O14 1_555 1_555
C7 O16 1_555 1_555
C8 O18 1_555 1_555
C9 P1 1_555 1_555
H13 C9 1_555 1_555
H14 C9 1_555 1_555
H15 C9 1_555 1_555
Nd1A O2 1_555 1_555
Nd1A_2 O15 1_555 1_555
Nd2A O9 1_555 1_555
Nd2A_2 O3 1_555 1_555
Nd2A_3 O13 1_555 1_555
Nd2_2 O15 1_555 1_555
Nd2_3 O3A 1_555 1_555
Nd3A O8 1_555 1_555
Nd3A_2 O17 1_555 1_555
Nd3A_3 O19 1_555 1_555
Nd3_2 O8A 1_555 1_555
Nd3A_4 O4A 1_555 1_555
P1A O1A 1_555 1_555
O1A Nd1A 1_555 1_555
O2A Nd1 1_555 1_555
O3A Nd2A 1_555 1_555
O3A_2 Nd2 1_555 1_555
O3_2 Nd2A 1_555 1_555
O4A C1A 1_555 1_555
O4A_2 Nd3A 1_555 1_555
O5A Nd1A 1_555 1_555
O6A Nd1A 1_555 1_555
O7A Nd3A_4 1_555 1_555
O7A_2 Nd3A 1_555 1_555
O8A C3A 1_555 1_555
O8A_2 Nd3 1_555 1_555
O9A Nd2 1_555 1_555
O10A Nd2 1_555 1_555
O11A Nd3_2 1_555 1_555
O11A_2 Nd3 1_555 1_555
O12A Nd2A_3 1_555 1_555
O12A_2 Nd2A 1_555 1_555
O13A Nd2 1_555 1_555
O13_2 Nd2A 1_555 1_555
O14A Nd1A_2 1_555 1_555
O14A_2 Nd1A 1_555 1_555
O15A Nd1 1_555 1_555
O15_2 Nd2 1_555 1_555
O16A Nd3A_2 1_555 1_555
O16A_2 Nd3A 1_555 1_555
O17A Nd3 1_555 1_555
O17_2 Nd3A 1_555 1_555
O18A Nd3A_3 1_555 1_555
O18A_2 Nd3A 1_555 1_555
O19A Nd3 1_555 1_555
O19_2 Nd3A 1_555 1_555
O20A Nd1A 1_555 1_555
H1A O20A 1_555 1_555
H2A O20A 1_555 1_555
O21A Nd1A 1_555 1_555
H3A O21A 1_555 1_555
H4A O21A 1_555 1_555
O22A Nd2A 1_555 1_555
H5A O22A 1_555 1_555
H6A O22A 1_555 1_555
O23A Nd3A 1_555 1_555
H7A O23A 1_555 1_555
H8A O23A 1_555 1_555
C1A O5A 1_555 1_555
C2A O6A 1_555 1_555
C3A O9A 1_555 1_555
C4A O10A 1_555 1_555
C5A C5 1_555 1_555
C6A C6 1_555 1_555
C7A C7 1_555 1_555
C8A C8 1_555 1_555
C9A P1A 1_555 1_555
H13A C9A 1_555 1_555
H14A C9A 1_555 1_555
H15A C9A 1_555 1_555
P1 O3 1_555 1_555
O7 C2 1_555 1_555
O10 Nd2A 1_555 1_555
O11 Nd3A 1_555 1_555
C1 C2 1_555 1_555
Nd1A O9A 1_555 1_555
Nd1A O15_2 1_555 1_555
Nd2A O2A 1_555 1_555
Nd2A O15A 1_555 1_555
Nd2A_2 O3A_2 1_555 1_555
Nd2_3 O3_2 1_555 1_555
P1A O2A 1_555 1_555
P1A O3A 1_555 1_555
O7A C2A 1_555 1_555
O11A C4A 1_555 1_555
O12A C5A 1_555 1_555
O13A C5A 1_555 1_555
O14A C6A 1_555 1_555
O15A C6A 1_555 1_555
O16A C7A 1_555 1_555
O17A C7A 1_555 1_555
O18A C8A 1_555 1_555
O19A C8A 1_555 1_555
C1A C2A 1_555 1_555
C3A C4A 1_555 1_555

#END
