
#######################################################################
#
#                 Cambridge Crystallographic Data Centre
#                                CCDC 
#
#######################################################################
#
# If this CIF has been generated from an entry in the Cambridge 
# Structural Database, then it will include bibliographic, chemical, 
# crystal, experimental, refinement or atomic coordinate data resulting 
# from the CCDC's data processing and validation procedures.
#
#######################################################################

data_SIHKUQ
_symmetry_cell_setting           triclinic
_symmetry_space_group_name_H-M   'P -1'
_symmetry_Int_Tables_number      2
_space_group_name_Hall           '-P 1'
loop_
_symmetry_equiv_pos_site_id
_symmetry_equiv_pos_as_xyz
1 x,y,z
2 -x,-y,-z
_cell_length_a                   9.1254(11)
_cell_length_b                   9.5493(12)
_cell_length_c                   14.0728(17)
_cell_angle_alpha                75.086(2)
_cell_angle_beta                 86.611(2)
_cell_angle_gamma                82.545(2)
_cell_volume                     1174.57
loop_
_atom_site_label
_atom_site_type_symbol
_atom_site_fract_x
_atom_site_fract_y
_atom_site_fract_z
Na1 Na 0.3806(3) 0.8437(3) -0.22409(18)
Pr1 Pr 0.22191(3) 0.43454(3) 0.15837(2)
Pr2 Pr -0.18757(3) 0.13786(3) -0.03810(2)
Pr3 Pr -0.26700(3) 0.22640(3) 0.49614(2)
P1 P 0.11090(14) 0.27921(14) -0.04635(10)
O1 O 0.1756(4) 0.3206(4) 0.0367(3)
O2 O -0.0465(4) 0.3557(4) -0.0725(3)
O3 O 0.0923(4) 0.1143(4) -0.0222(3)
O4 O -0.2062(4) 0.2927(4) 0.3142(3)
O5 O -0.0309(4) 0.3573(4) 0.2004(3)
O6 O 0.1417(4) 0.3894(5) 0.3357(3)
O7 O -0.0252(4) 0.3117(5) 0.4528(3)
O8 O 0.2913(5) 0.6585(4) 0.3584(3)
O9 O 0.2480(4) 0.6816(4) 0.1998(3)
O10 O 0.0787(4) 0.9316(4) 0.1934(3)
O11 O 0.1154(4) 0.9057(4) 0.3540(3)
O12 O -0.3848(4) 0.0316(4) -0.1051(3)
O13 O -0.6029(4) -0.0577(4) -0.0799(3)
O14 O 0.4826(4) 0.3514(4) 0.0994(3)
O15 O 0.6516(4) 0.3802(4) -0.0237(3)
O16 O -0.5280(4) 0.3176(4) 0.5321(3)
O17 O -0.6681(4) 0.5085(4) 0.5652(3)
O18 O -0.3855(4) 0.0119(4) 0.5915(3)
O19 O -0.5554(4) -0.1373(4) 0.5984(3)
O20 O 0.4333(4) 0.4168(5) 0.2801(3)
O21 O 0.3020(4) 0.1655(4) 0.2291(3)
O22 O -0.1415(4) 0.1526(4) 0.1346(3)
O23 O -0.1363(4) 0.0054(5) 0.4486(3)
C1 C -0.0812(5) 0.3302(6) 0.2871(4)
C2 C 0.0219(6) 0.3473(6) 0.3651(4)
C3 C 0.2318(6) 0.7222(6) 0.2791(4)
C4 C 0.1316(5) 0.8659(6) 0.2755(4)
C5 C -0.4968(5) -0.0063(6) -0.0541(4)
C6 C 0.5390(5) 0.4222(6) 0.0224(4)
C7 C -0.5561(6) 0.4484(6) 0.5280(4)
C8 C -0.4828(6) -0.0361(6) 0.5543(4)
C9 C 0.2310(6) 0.3205(7) -0.1498(4)
H1 H 0.3176 0.2498 -0.1418
H2 H 0.2043 0.2994 -0.2026
H3 H 0.2915 0.3837 -0.1550
Pr1A Pr -0.22191(3) 0.56546(3) -0.15837(2)
Pr1A_2 Pr 0.77809(3) 0.56546(3) -0.15837(2)
Pr2A Pr 0.18757(3) 0.86214(3) 0.03810(2)
Pr2A_2 Pr 0.18757(3) -0.13786(3) 0.03810(2)
Pr2A_3 Pr -0.81243(3) -0.13786(3) 0.03810(2)
Pr2_2 Pr 0.81243(3) 0.13786(3) -0.03810(2)
Pr2_3 Pr -0.18757(3) 1.13786(3) -0.03810(2)
Pr3A Pr 0.26700(3) 0.77360(3) 0.50386(2)
Pr3A_2 Pr -0.73300(3) 0.77360(3) 0.50386(2)
Pr3A_3 Pr -0.73300(3) -0.22640(3) 0.50386(2)
Pr3_2 Pr -0.26700(3) 0.22640(3) -0.50386(2)
Pr3A_4 Pr 0.26700(3) 0.77360(3) -0.49614(2)
P1A P -0.11090(14) 0.72079(14) 0.04635(10)
O1A O -0.1756(4) 0.6794(4) -0.0367(3)
O2A O 0.0465(4) 0.6443(4) 0.0725(3)
O3A O -0.0923(4) 0.8857(4) 0.0222(3)
O3A_2 O -0.0923(4) -0.1143(4) 0.0222(3)
O3_2 O 0.0923(4) 1.1143(4) -0.0222(3)
O4A O 0.2062(4) 0.7073(4) -0.3142(3)
O4A_2 O 0.2062(4) 0.7073(4) 0.6858(3)
O5A O 0.0309(4) 0.6427(4) -0.2004(3)
O6A O -0.1417(4) 0.6106(5) -0.3357(3)
O7A O 0.0252(4) 0.6883(5) -0.4528(3)
O7A_2 O 0.0252(4) 0.6883(5) 0.5472(3)
O8A O -0.2913(5) 0.3415(4) -0.3584(3)
O8A_2 O -0.2913(5) 0.3415(4) 0.6416(3)
O9A O -0.2480(4) 0.3184(4) -0.1998(3)
O10A O -0.0787(4) 0.0684(4) -0.1934(3)
O11A O -0.1154(4) 0.0943(4) -0.3540(3)
O11A_2 O -0.1154(4) 0.0943(4) 0.6460(3)
O12A O -0.6152(4) -0.0316(4) 0.1051(3)
O12A_2 O 0.3848(4) 0.9684(4) 0.1051(3)
O13A O -0.3971(4) 0.0577(4) 0.0799(3)
O13_2 O 0.3971(4) 0.9423(4) -0.0799(3)
O14A O 0.5174(4) 0.6486(4) -0.0994(3)
O14A_2 O -0.4826(4) 0.6486(4) -0.0994(3)
O15A O 0.3484(4) 0.6198(4) 0.0237(3)
O15_2 O -0.3484(4) 0.3802(4) -0.0237(3)
O16A O -0.4720(4) 0.6824(4) 0.4679(3)
O16A_2 O 0.5280(4) 0.6824(4) 0.4679(3)
O17A O -0.3319(4) 0.4915(4) 0.4348(3)
O17_2 O 0.3319(4) 0.5085(4) 0.5652(3)
O18A O -0.6145(4) -0.0119(4) 0.4085(3)
O18A_2 O 0.3855(4) 0.9881(4) 0.4085(3)
O19A O -0.4446(4) 0.1373(4) 0.4016(3)
O19_2 O 0.4446(4) 0.8627(4) 0.5984(3)
O20A O -0.4333(4) 0.5832(5) -0.2801(3)
O21A O -0.3020(4) 0.8345(4) -0.2291(3)
O22A O 0.1415(4) 0.8474(4) -0.1346(3)
O23A O 0.1363(4) 0.9946(5) 0.5514(3)
C1A C 0.0812(5) 0.6698(6) -0.2871(4)
C2A C -0.0219(6) 0.6527(6) -0.3651(4)
C3A C -0.2318(6) 0.2778(6) -0.2791(4)
C4A C -0.1316(5) 0.1341(6) -0.2755(4)
C5A C -0.5032(5) 0.0063(6) 0.0541(4)
C6A C 0.4610(5) 0.5778(6) -0.0224(4)
C7A C -0.4439(6) 0.5516(6) 0.4720(4)
C8A C -0.5172(6) 0.0361(6) 0.4457(4)
C9A C -0.2310(6) 0.6795(7) 0.1498(4)
H1A H -0.3176 0.7502 0.1418
H2A H -0.2043 0.7006 0.2026
H3A H -0.2915 0.6163 0.1550
O24 O 0.1004(6) -0.6636(6) 0.6258(4)
O25 O 0.3058(7) 1.1026(6) -0.3179(5)
loop_
_geom_bond_atom_site_label_1
_geom_bond_atom_site_label_2
_geom_bond_site_symmetry_1
_geom_bond_site_symmetry_2
Pr1 O1 1_555 1_555
Pr2 O2 1_555 1_555
Pr3 O4 1_555 1_555
P1 O1 1_555 1_555
O2 P1 1_555 1_555
O3 Pr2 1_555 1_555
O4 C1 1_555 1_555
O5 Pr1 1_555 1_555
O6 Pr1 1_555 1_555
O7 Pr3 1_555 1_555
O8 C3 1_555 1_555
O9 Pr1 1_555 1_555
O10 C4 1_555 1_555
O11 C4 1_555 1_555
O12 Pr2 1_555 1_555
O13 C5 1_555 1_555
O14 Pr1 1_555 1_555
O15 C6 1_555 1_555
O16 Pr3 1_555 1_555
O17 C7 1_555 1_555
O18 Pr3 1_555 1_555
O19 C8 1_555 1_555
O20 Pr1 1_555 1_555
O21 Pr1 1_555 1_555
O22 Pr2 1_555 1_555
O23 Pr3 1_555 1_555
C1 O5 1_555 1_555
C2 O6 1_555 1_555
C3 O9 1_555 1_555
C4 C3 1_555 1_555
C5 O12 1_555 1_555
C6 O14 1_555 1_555
C7 O16 1_555 1_555
C8 O18 1_555 1_555
C9 P1 1_555 1_555
H1 C9 1_555 1_555
H2 C9 1_555 1_555
H3 C9 1_555 1_555
Pr1A O2 1_555 1_555
Pr1A_2 O15 1_555 1_555
Pr2A O9 1_555 1_555
Pr2A_2 O3 1_555 1_555
Pr2A_3 O13 1_555 1_555
Pr2_2 O15 1_555 1_555
Pr2_3 O3A 1_555 1_555
Pr3A O8 1_555 1_555
Pr3A_2 O17 1_555 1_555
Pr3A_3 O19 1_555 1_555
Pr3_2 O8A 1_555 1_555
Pr3A_4 O4A 1_555 1_555
P1A O1A 1_555 1_555
O1A Pr1A 1_555 1_555
O2A Pr1 1_555 1_555
O3A Pr2A 1_555 1_555
O3A_2 Pr2 1_555 1_555
O3_2 Pr2A 1_555 1_555
O4A C1A 1_555 1_555
O4A_2 Pr3A 1_555 1_555
O5A Pr1A 1_555 1_555
O6A Pr1A 1_555 1_555
O7A Pr3A_4 1_555 1_555
O7A_2 Pr3A 1_555 1_555
O8A C3A 1_555 1_555
O8A_2 Pr3 1_555 1_555
O9A Pr2 1_555 1_555
O10A Pr2 1_555 1_555
O11A Pr3_2 1_555 1_555
O11A_2 Pr3 1_555 1_555
O12A Pr2A_3 1_555 1_555
O12A_2 Pr2A 1_555 1_555
O13A Pr2 1_555 1_555
O13_2 Pr2A 1_555 1_555
O14A Pr1A_2 1_555 1_555
O14A_2 Pr1A 1_555 1_555
O15A Pr1 1_555 1_555
O15_2 Pr2 1_555 1_555
O16A Pr3A_2 1_555 1_555
O16A_2 Pr3A 1_555 1_555
O17A Pr3 1_555 1_555
O17_2 Pr3A 1_555 1_555
O18A Pr3A_3 1_555 1_555
O18A_2 Pr3A 1_555 1_555
O19A Pr3 1_555 1_555
O19_2 Pr3A 1_555 1_555
O20A Pr1A 1_555 1_555
O21A Pr1A 1_555 1_555
O22A Pr2A 1_555 1_555
O23A Pr3A 1_555 1_555
C1A O5A 1_555 1_555
C2A O6A 1_555 1_555
C3A O9A 1_555 1_555
C4A O10A 1_555 1_555
C5A C5 1_555 1_555
C6A C6 1_555 1_555
C7A C7 1_555 1_555
C8A C8 1_555 1_555
C9A P1A 1_555 1_555
H1A C9A 1_555 1_555
H2A C9A 1_555 1_555
H3A C9A 1_555 1_555
P1 O3 1_555 1_555
O7 C2 1_555 1_555
O10 Pr2A 1_555 1_555
O11 Pr3A 1_555 1_555
C1 C2 1_555 1_555
Pr1A O9A 1_555 1_555
Pr1A O15_2 1_555 1_555
Pr2A O2A 1_555 1_555
Pr2A O15A 1_555 1_555
Pr2A_2 O3A_2 1_555 1_555
Pr2_3 O3_2 1_555 1_555
P1A O2A 1_555 1_555
P1A O3A 1_555 1_555
O7A C2A 1_555 1_555
O11A C4A 1_555 1_555
O12A C5A 1_555 1_555
O13A C5A 1_555 1_555
O14A C6A 1_555 1_555
O15A C6A 1_555 1_555
O16A C7A 1_555 1_555
O17A C7A 1_555 1_555
O18A C8A 1_555 1_555
O19A C8A 1_555 1_555
C1A C2A 1_555 1_555
C3A C4A 1_555 1_555

#END
