
#######################################################################
#
#                 Cambridge Crystallographic Data Centre
#                                CCDC 
#
#######################################################################
#
# If this CIF has been generated from an entry in the Cambridge 
# Structural Database, then it will include bibliographic, chemical, 
# crystal, experimental, refinement or atomic coordinate data resulting 
# from the CCDC's data processing and validation procedures.
#
#######################################################################

data_SIHROR
_symmetry_cell_setting           monoclinic
_symmetry_space_group_name_H-M   'C 2/c'
_symmetry_Int_Tables_number      15
_space_group_name_Hall           '-C 2yn'
loop_
_symmetry_equiv_pos_site_id
_symmetry_equiv_pos_as_xyz
1 x,y,z
2 1/2+x,1/2+y,z
3 -x,y,1/2-z
4 1/2-x,1/2+y,1/2-z
5 -x,-y,-z
6 1/2-x,1/2-y,-z
7 x,-y,1/2+z
8 1/2+x,1/2-y,1/2+z
_cell_length_a                   24.9362(2)
_cell_length_b                   14.5323(2)
_cell_length_c                   17.4102(2)
_cell_angle_alpha                90
_cell_angle_beta                 95.91
_cell_angle_gamma                90
_cell_volume                     6275.58
loop_
_atom_site_label
_atom_site_type_symbol
_atom_site_fract_x
_atom_site_fract_y
_atom_site_fract_z
P1 P 0.5000 0.2556(3) 0.7500
Mo1 Mo 0.40949(5) 0.08143(10) 0.67619(8)
Mo2 Mo 0.36638(5) 0.26190(10) 0.80523(8)
Mo3 Mo 0.40620(5) 0.42889(9) 0.68582(8)
Mo4 Mo 0.46354(5) 0.08279(10) 0.88222(9)
Mo5 Mo 0.44557(6) 0.24881(10) 0.55320(7)
Mo6 Mo 0.45610(5) 0.42749(10) 0.87619(8)
O1 O 0.3040(4) 0.2434(9) 0.8319(7)
O2 O 0.3703(4) 0.1755(7) 0.7242(6)
O3 O 0.3518(4) 0.3578(7) 0.7300(6)
O4 O 0.4095(4) 0.1764(8) 0.8680(6)
O5 O 0.4756(4) 0.4615(7) 0.6595(6)
O6 O 0.3915(4) 0.3566(8) 0.8771(6)
O7 O 0.3999(4) 0.1541(7) 0.5822(5)
O8 O 0.4376(4) 0.0483(8) 0.7768(6)
O9 O 0.4693(4) 0.0248(7) 0.6344(7)
O10 O 0.4210(4) 0.4862(7) 0.7845(6)
O11 O 0.4070(4) 0.3357(7) 0.6094(6)
O12 O 0.4814(4) 0.1943(6) 0.6808(5)
O13 O 0.4531(3) 0.3166(6) 0.7699(5)
O14 O 0.4353(5) 0.0030(9) 0.9339(8)
O15 O 0.5040(4) 0.3336(7) 0.5673(6)
O16 O 0.5020(4) 0.1551(7) 0.9609(6)
O17 O 0.3664(4) 0.5087(8) 0.6395(7)
O18 O 0.4188(5) 0.2681(9) 0.4625(6)
O19 O 0.4470(5) 0.5076(9) 0.9422(7)
O20 O 0.3613(4) 0.0011(8) 0.6545(7)
Mo1B Mo 0.59051(5) 0.08143(10) 0.82381(8)
Mo2B Mo 0.63362(5) 0.26190(10) 0.69477(8)
Mo3B Mo 0.59380(5) 0.42889(9) 0.81418(8)
Mo4B Mo 0.53646(5) 0.08279(10) 0.61778(9)
Mo5B Mo 0.55443(6) 0.24881(10) 0.94680(7)
Mo6B Mo 0.54390(5) 0.42749(10) 0.62381(8)
O1B O 0.6960(4) 0.2434(9) 0.6681(7)
O2B O 0.6297(4) 0.1755(7) 0.7758(6)
O3B O 0.6482(4) 0.3578(7) 0.7700(6)
O4B O 0.5905(4) 0.1764(8) 0.6320(6)
O5B O 0.5244(4) 0.4615(7) 0.8405(6)
O6B O 0.6085(4) 0.3566(8) 0.6229(6)
O7B O 0.6001(4) 0.1541(7) 0.9178(5)
O8B O 0.5624(4) 0.0483(8) 0.7232(6)
O9B O 0.5307(4) 0.0248(7) 0.8656(7)
O10B O 0.5790(4) 0.4862(7) 0.7155(6)
O11B O 0.5930(4) 0.3357(7) 0.8906(6)
O12B O 0.5186(4) 0.1943(6) 0.8192(5)
O13B O 0.5469(3) 0.3166(6) 0.7301(5)
O14B O 0.5647(5) 0.0030(9) 0.5661(8)
O15B O 0.4960(4) 0.3336(7) 0.9327(6)
O16B O 0.4980(4) 0.1551(7) 0.5391(6)
O17B O 0.6336(4) 0.5087(8) 0.8605(7)
O18B O 0.5812(5) 0.2681(9) 1.0375(6)
O19B O 0.5530(5) 0.5076(9) 0.5578(7)
O20B O 0.6387(4) 0.0011(8) 0.8455(7)
Cu1 Cu 0.33392(11) 0.37707(16) 1.00047(13)
Cu2 Cu 0.22885(9) 0.14092(19) 0.8561(2)
Cu3 Cu 0.22787(9) 0.38475(15) 0.84502(13)
Cu4 Cu 0.33663(9) 0.13309(14) 1.00132(13)
Cu5 Cu 0.29161(9) 0.75821(13) 0.90932(13)
Cu6 Cu 0.53704(7) 0.25066(17) 1.16414(11)
C1 C 0.2575(6) -0.0533(11) 0.8670(10)
H1 H 0.2328 -0.0709 0.8259
C2 C 0.1356(6) 0.1853(10) 0.7487(9)
H2 H 0.1262 0.1239 0.7403
C3 C 0.1342(6) 0.3284(11) 0.7445(10)
H3 H 0.1239 0.3887 0.7329
C4 C 0.2601(6) 0.5724(10) 0.8669(9)
H4 H 0.2358 0.5915 0.8259
C5 C 0.3178(7) -0.0575(11) 0.9590(9)
H5 H 0.3440 -0.0788 0.9966
C6 C 0.3191(6) 0.5718(11) 0.9608(9)
H6 H 0.3451 0.5910 0.9997
C7 C 0.4355(6) 0.1843(12) 1.0918(10)
H7 H 0.4451 0.1231 1.1009
C8 C 0.4369(6) 0.3269(10) 1.0876(8)
H8 H 0.4483 0.3876 1.0944
N1 N 0.3059(5) 0.0301(8) 0.9490(8)
N2 N 0.2887(5) -0.1128(8) 0.9099(8)
N3 N 0.2912(6) 0.6303(9) 0.9114(7)
N4 N 0.3062(5) 0.4859(9) 0.9486(7)
N5 N 0.1057(5) 0.2564(9) 0.7187(7)
N6 N 0.2654(5) 0.0324(9) 0.8890(7)
N7 N 0.1795(5) 0.2123(9) 0.7913(8)
N8 N 0.1786(5) 0.3072(8) 0.7882(7)
N9 N 0.2671(5) 0.4856(9) 0.8869(7)
N10 N 0.3912(4) 0.3044(7) 1.0509(7)
N11 N 0.3891(5) 0.2101(9) 1.0544(8)
N12 N 0.4667(4) 0.2545(9) 1.1150(7)
Cu1G Cu 0.83392(11) 0.12293(16) 1.50047(13)
Cu1_2 Cu 0.33392(11) 1.37707(16) 1.00047(13)
Cu2_2 Cu 0.22885(9) 1.14092(19) 0.8561(2)
Cu2G Cu 0.72885(9) 0.35908(19) 1.3561(2)
Cu3G Cu 0.72787(9) 0.11525(15) 1.34502(13)
Cu4_2 Cu 0.33663(9) 1.13309(14) 1.00132(13)
Cu5_2 Cu 0.29161(9) -0.24179(13) 0.90932(13)
Cu5G Cu 0.79161(9) -0.25821(13) 1.40932(13)
Cu6G Cu 0.03704(7) 0.24934(17) 0.66414(11)
Cu6_2 Cu 0.53704(7) 1.25066(17) 1.16414(11)
C1_2 C 0.2575(6) 0.9467(11) 0.8670(10)
H1_2 H 0.2328 0.9291 0.8259
C2G C 0.6356(6) 0.3147(10) 1.2487(9)
H2G H 0.6262 0.3761 1.2403
C3G C 0.6342(6) 0.1716(11) 1.2445(10)
H3G H 0.6239 0.1113 1.2329
C4G C 0.7601(6) -0.0724(10) 1.3669(9)
H4G H 0.7358 -0.0915 1.3259
C5_2 C 0.3178(7) 0.9425(11) 0.9590(9)
H5_2 H 0.3440 0.9212 0.9966
C6G C 0.8191(6) -0.0718(11) 1.4608(9)
H6G H 0.8451 -0.0910 1.4997
C7_2 C 0.4355(6) 1.1843(12) 1.0918(10)
H7_2 H 0.4451 1.1231 1.1009
C8_2 C 0.4369(6) 1.3269(10) 1.0876(8)
H8_2 H 0.4483 1.3876 1.0944
N1_2 N 0.3059(5) 1.0301(8) 0.9490(8)
N2_2 N 0.2887(5) 0.8872(8) 0.9099(8)
N3G N 0.7912(6) -0.1303(9) 1.4114(7)
N3_2 N 0.2912(6) -0.3697(9) 0.9114(7)
N4G N 0.8062(5) 0.0141(9) 1.4486(7)
N5G N 0.6057(5) 0.2436(9) 1.2187(7)
N6_2 N 0.2654(5) 1.0324(9) 0.8890(7)
N7G N 0.6795(5) 0.2877(9) 1.2913(8)
N7_2 N 0.1795(5) 1.2123(9) 0.7913(8)
N8G N 0.6786(5) 0.1928(8) 1.2882(7)
N9G N 0.7671(5) 0.0144(9) 1.3869(7)
N10_2 N 0.3912(4) 1.3044(7) 1.0509(7)
N10G N 0.8912(4) 0.1956(7) 1.5509(7)
N11_2 N 0.3891(5) 1.2101(9) 1.0544(8)
N12_2 N 0.4667(4) 1.2545(9) 1.1150(7)
N12G N -0.0333(4) 0.2455(9) 0.6150(7)
O21 O 0.2500 0.2500 1.0000
loop_
_geom_bond_atom_site_label_1
_geom_bond_atom_site_label_2
_geom_bond_site_symmetry_1
_geom_bond_site_symmetry_2
P1 O12 1_555 1_555
Cu1 N4 1_555 1_555
Cu2 N6 1_555 1_555
Cu3 N8 1_555 1_555
Cu4 N1 1_555 1_555
Cu5 N3 1_555 1_555
Cu6 N12 1_555 1_555
Mo1 O2 1_555 1_555
Mo2 O1 1_555 1_555
Mo3 O3 1_555 1_555
Mo4 O4 1_555 1_555
Mo5 O7 1_555 1_555
Mo6 O6 1_555 1_555
C1 H1 1_555 1_555
C2 H2 1_555 1_555
C3 H3 1_555 1_555
C4 H4 1_555 1_555
C5 H5 1_555 1_555
C6 H6 1_555 1_555
C7 H7 1_555 1_555
C8 H8 1_555 1_555
N1 C5 1_555 1_555
N2 C1 1_555 1_555
N3 C4 1_555 1_555
N4 C6 1_555 1_555
N5 C2 1_555 1_555
N6 C1 1_555 1_555
N7 Cu2 1_555 1_555
N8 C3 1_555 1_555
N9 Cu3 1_555 1_555
N10 Cu1 1_555 1_555
N11 Cu4 1_555 1_555
N12 C7 1_555 1_555
O2 Mo2 1_555 1_555
O3 Mo2 1_555 1_555
O4 Mo2 1_555 1_555
O5 Mo3 1_555 1_555
O6 Mo2 1_555 1_555
O7 Mo1 1_555 1_555
O8 Mo1 1_555 1_555
O9 Mo1 1_555 1_555
O10 Mo3 1_555 1_555
O11 Mo3 1_555 1_555
O12 Mo1 1_555 1_555
O13 P1 1_555 1_555
O14 Mo4 1_555 1_555
O15 Mo5 1_555 1_555
O16 Mo4 1_555 1_555
O17 Mo3 1_555 1_555
O18 Mo5 1_555 1_555
O19 Mo6 1_555 1_555
O20 Mo1 1_555 1_555
Cu1G N4G 1_555 1_555
Cu1_2 N10_2 1_555 1_555
Cu2_2 N6_2 1_555 1_555
Cu2G N7G 1_555 1_555
Cu3G N8G 1_555 1_555
Cu4_2 N1_2 1_555 1_555
Cu5_2 N2 1_555 1_555
Cu5G N3G 1_555 1_555
Cu6G N5 1_555 1_555
Cu6_2 N12_2 1_555 1_555
Mo1B O2B 1_555 1_555
Mo2B O1B 1_555 1_555
Mo3B O3B 1_555 1_555
Mo4B O9 1_555 1_555
Mo5B O16 1_555 1_555
Mo6B O5 1_555 1_555
C1_2 H1_2 1_555 1_555
C2G H2G 1_555 1_555
C3G H3G 1_555 1_555
C4G H4G 1_555 1_555
C5_2 H5_2 1_555 1_555
C6G H6G 1_555 1_555
C7_2 H7_2 1_555 1_555
C8_2 H8_2 1_555 1_555
N1_2 C5_2 1_555 1_555
N2_2 Cu5 1_555 1_555
N3G C4G 1_555 1_555
N3_2 Cu5_2 1_555 1_555
N4G C6G 1_555 1_555
N5G Cu6 1_555 1_555
N6_2 C1_2 1_555 1_555
N7G C2G 1_555 1_555
N7_2 Cu2_2 1_555 1_555
N8G C3G 1_555 1_555
N9G Cu3G 1_555 1_555
N10_2 C8_2 1_555 1_555
N10G Cu1G 1_555 1_555
N11_2 Cu4_2 1_555 1_555
N12_2 C7_2 1_555 1_555
N12G Cu6G 1_555 1_555
O2B Mo2B 1_555 1_555
O3B Mo2B 1_555 1_555
O4B Mo2B 1_555 1_555
O5B Mo6 1_555 1_555
O6B Mo2B 1_555 1_555
O7B Mo1B 1_555 1_555
O8B Mo1B 1_555 1_555
O9B Mo4 1_555 1_555
O10B Mo3B 1_555 1_555
O11B Mo3B 1_555 1_555
O12B P1 1_555 1_555
O13B P1 1_555 1_555
O14B Mo4B 1_555 1_555
O15B Mo6 1_555 1_555
O16B Mo5 1_555 1_555
O17B Mo3B 1_555 1_555
O18B Mo5B 1_555 1_555
O19B Mo6B 1_555 1_555
O20B Mo1B 1_555 1_555
Mo2 O13 1_555 1_555
Mo3 O13 1_555 1_555
Mo4 O8 1_555 1_555
Mo4 O12B 1_555 1_555
Mo5 O11 1_555 1_555
Mo5 O12 1_555 1_555
Mo6 O10 1_555 1_555
Mo6 O13 1_555 1_555
C2 N7 1_555 1_555
C3 N5 1_555 1_555
C4 N9 1_555 1_555
C5 N2 1_555 1_555
C6 N3 1_555 1_555
C7 N11 1_555 1_555
C8 N10 1_555 1_555
C8 N12 1_555 1_555
N1 N6 1_555 1_555
N4 N9 1_555 1_555
N7 N8 1_555 1_555
N10 N11 1_555 1_555
O12 Mo4B 1_555 1_555
O15 Mo6B 1_555 1_555
Mo1B O9B 1_555 1_555
Mo1B O12B 1_555 1_555
Mo2B O13B 1_555 1_555
Mo3B O5B 1_555 1_555
Mo3B O13B 1_555 1_555
Mo4B O4B 1_555 1_555
Mo4B O8B 1_555 1_555
Mo4B O16B 1_555 1_555
Mo5B O7B 1_555 1_555
Mo5B O11B 1_555 1_555
Mo5B O12B 1_555 1_555
Mo5B O15B 1_555 1_555
Mo6B O6B 1_555 1_555
Mo6B O10B 1_555 1_555
Mo6B O13B 1_555 1_555
C1_2 N2_2 1_555 1_555
C2G N5G 1_555 1_555
C3G N5G 1_555 1_555
C4G N9G 1_555 1_555
C5_2 N2_2 1_555 1_555
C6G N3G 1_555 1_555
C7_2 N11_2 1_555 1_555
C8_2 N12_2 1_555 1_555
N1_2 N6_2 1_555 1_555
N4G N9G 1_555 1_555
N7G N8G 1_555 1_555
N10_2 N11_2 1_555 1_555

#END
