
#######################################################################
#
#                 Cambridge Crystallographic Data Centre
#                                CCDC 
#
#######################################################################
#
# If this CIF has been generated from an entry in the Cambridge 
# Structural Database, then it will include bibliographic, chemical, 
# crystal, experimental, refinement or atomic coordinate data resulting 
# from the CCDC's data processing and validation procedures.
#
#######################################################################

data_SIHRIL
_symmetry_cell_setting           monoclinic
_symmetry_space_group_name_H-M   'C 2/m'
_symmetry_Int_Tables_number      12
_space_group_name_Hall           '-C 2y'
loop_
_symmetry_equiv_pos_site_id
_symmetry_equiv_pos_as_xyz
1 x,y,z
2 1/2+x,1/2+y,z
3 -x,y,-z
4 1/2-x,1/2+y,-z
5 -x,-y,-z
6 1/2-x,1/2-y,-z
7 x,-y,z
8 1/2+x,1/2-y,z
_cell_length_a                   17.7379(12)
_cell_length_b                   14.5650(9)
_cell_length_c                   12.4096(7)
_cell_angle_alpha                90
_cell_angle_beta                 90.358(4)
_cell_angle_gamma                90
_cell_volume                     3205.99
loop_
_atom_site_label
_atom_site_type_symbol
_atom_site_fract_x
_atom_site_fract_y
_atom_site_fract_z
Cu1 Cu 0.59759(5) -0.5000 0.55521(6)
Cu2 Cu 0.74880(3) -0.37420(4) 0.18157(5)
Cu3 Cu 0.43304(3) -0.61896(4) 0.92825(5)
Cu4 Cu 0.81378(5) 0.0000 0.08283(7)
C1 C 0.7775(3) -0.1877(3) 0.1369(4)
H1 H 0.7388 -0.1712 0.1832
C2 C 0.8540(3) -0.2656(3) 0.0464(4)
H2 H 0.8796 -0.3150 0.0164
C3 C 0.5270(3) -0.5722(3) 0.7460(3)
H3 H 0.5357 -0.6330 0.7267
C4 C 0.6585(2) -0.4278(3) 0.3576(3)
H4 H 0.6508 -0.3670 0.3777
N1 N 0.7963(2) -0.2744(3) 0.1151(3)
N2 N 0.5517(3) -0.5000 0.6897(4)
N3 N 0.6361(3) -0.5000 0.4160(4)
N4 N 0.8704(2) -0.1795(3) 0.0263(3)
N5 N 0.69256(19) -0.4529(2) 0.2681(3)
N6 N 0.8201(2) -0.1280(3) 0.0852(3)
N7 N 0.48879(19) -0.5471(2) 0.8324(3)
Cu1A Cu 1.09759(5) 0.0000 -0.44479(6)
Cu1A_2 Cu 0.09759(5) -1.0000 1.55521(6)
Cu2F Cu 0.74880(3) -0.62580(4) 0.18157(5)
Cu2A Cu 0.24880(3) -0.87420(4) 1.18157(5)
Cu2G Cu 0.24880(3) -0.12580(4) 1.18157(5)
Cu2G_2 Cu 0.24880(3) -1.12580(4) 1.18157(5)
Cu3F Cu 0.43304(3) -0.38104(4) 0.92825(5)
Cu3A Cu 0.93304(3) -0.11896(4) -0.07175(5)
Cu3G Cu 0.93304(3) -0.88104(4) -0.07175(5)
Cu3G_2 Cu 0.93304(3) 0.11896(4) -0.07175(5)
Cu4A Cu 0.31378(5) -0.5000 1.08283(7)
Cu4_2 Cu 0.81378(5) -1.0000 0.08283(7)
C1A C 0.2775(3) -0.6877(3) 1.1369(4)
C1F C 0.7775(3) -0.8123(3) 0.1369(4)
C1G C 0.2775(3) -0.3123(3) 1.1369(4)
H1A H 0.2388 -0.6712 1.1832
H1F H 0.7388 -0.8288 0.1832
H1G H 0.2388 -0.3288 1.1832
C2A C 0.3540(3) -0.7656(3) 1.0464(4)
C2F C 0.8540(3) -0.7344(3) 0.0464(4)
C2G C 0.3540(3) -0.2344(3) 1.0464(4)
H2A H 0.3796 -0.8150 1.0164
H2F H 0.8796 -0.6850 0.0164
H2G H 0.3796 -0.1850 1.0164
C3F C 0.5270(3) -0.4278(3) 0.7460(3)
C3A C 1.0270(3) -0.0722(3) -0.2540(3)
C3G C 1.0270(3) 0.0722(3) -0.2540(3)
H3F H 0.5357 -0.3670 0.7267
H3A H 1.0357 -0.1330 -0.2733
H3G H 1.0357 0.1330 -0.2733
C4F C 0.6585(2) -0.5722(3) 0.3576(3)
C4A C 0.1585(2) -0.9278(3) 1.3576(3)
C4G C 0.1585(2) -1.0722(3) 1.3576(3)
H4F H 0.6508 -0.6330 0.3777
H4A H 0.1508 -0.8670 1.3777
H4G H 0.1508 -1.1330 1.3777
N1A N 0.2963(2) -0.7744(3) 1.1151(3)
N1F N 0.7963(2) -0.7256(3) 0.1151(3)
N1G N 0.2963(2) -0.2256(3) 1.1151(3)
N2A N 1.0517(3) 0.0000 -0.3103(4)
N3A N 0.1361(3) -1.0000 1.4160(4)
N3A_2 N 1.1361(3) 0.0000 -0.5840(4)
N4A N 0.3704(2) -0.6795(3) 1.0263(3)
N4F N 0.8704(2) -0.8205(3) 0.0263(3)
N4G N 0.3704(2) -0.3205(3) 1.0263(3)
N5F N 0.69256(19) -0.5471(2) 0.2681(3)
N5A N 0.19256(19) -0.9529(2) 1.2681(3)
N5G N 0.19256(19) -1.0471(2) 1.2681(3)
N5G_2 N 0.19256(19) -0.0471(2) 1.2681(3)
N6A N 0.3201(2) -0.6280(3) 1.0852(3)
N6F N 0.8201(2) -0.8720(3) 0.0852(3)
N6G N 0.3201(2) -0.3720(3) 1.0852(3)
N6F_2 N 0.8201(2) 0.1280(3) 0.0852(3)
N7F N 0.48879(19) -0.4529(2) 0.8324(3)
N7A N 0.98879(19) -0.0471(2) -0.1676(3)
N7G N 0.98879(19) 0.0471(2) -0.1676(3)
N7G_2 N 0.98879(19) -0.9529(2) -0.1676(3)
O13 O 0.6732(4) 0.0000 0.0952(5)
Mo1 Mo 0.91830(3) -0.5000 0.23953(4)
Mo2 Mo 1.05500(2) -0.33185(3) 0.30639(3)
Mo3 Mo 0.81246(3) -0.5000 0.60044(4)
Mo4 Mo 0.87245(2) -0.32065(3) 0.42573(3)
P1 P 1.0000 -0.5000 0.5000
O1 O 0.9731(3) -0.4399(3) 0.4066(4)
O2 O 0.9347(3) -0.4380(4) 0.5382(4)
O3 O 0.9993(2) -0.5882(3) 0.2224(4)
O4 O 0.8081(3) -0.5916(4) 0.4988(3)
O5 O 1.1365(3) -0.4116(3) 0.3051(3)
O6 O 0.8638(2) -0.4087(4) 0.3057(4)
O7 O 0.8110(3) -0.2417(3) 0.3869(4)
O8 O 0.9620(2) -0.2816(3) 0.3598(4)
O9 O 1.0963(3) -0.2802(3) 0.4391(3)
O10 O 0.8792(4) -0.5000 0.1171(4)
O11 O 0.7272(3) -0.5000 0.6538(4)
O12 O 1.0816(3) -0.2516(2) 0.2174(3)
Mo1D Mo 1.08170(3) -0.5000 0.76047(4)
Mo2F Mo 1.05500(2) -0.66815(3) 0.30639(3)
Mo2D Mo 0.94500(2) -0.66815(3) 0.69361(3)
Mo2B Mo 0.94500(2) -0.33185(3) 0.69361(3)
Mo3D Mo 1.18754(3) -0.5000 0.39956(4)
Mo4F Mo 0.87245(2) -0.67935(3) 0.42573(3)
Mo4D Mo 1.12755(2) -0.67935(3) 0.57427(3)
Mo4B Mo 1.12755(2) -0.32065(3) 0.57427(3)
O1F O 0.9731(3) -0.5601(3) 0.4066(4)
O1D O 1.0269(3) -0.5601(3) 0.5934(4)
O1B O 1.0269(3) -0.4399(3) 0.5934(4)
O2F O 0.9347(3) -0.5620(4) 0.5382(4)
O2D O 1.0653(3) -0.5620(4) 0.4618(4)
O2B O 1.0653(3) -0.4380(4) 0.4618(4)
O3F O 0.9993(2) -0.4118(3) 0.2224(4)
O3D O 1.0007(2) -0.4118(3) 0.7776(4)
O3B O 1.0007(2) -0.5882(3) 0.7776(4)
O4F O 0.8081(3) -0.4084(4) 0.4988(3)
O4D O 1.1919(3) -0.4084(4) 0.5012(3)
O4B O 1.1919(3) -0.5916(4) 0.5012(3)
O5B O 0.8635(3) -0.4116(3) 0.6949(3)
O5D O 0.8635(3) -0.5884(3) 0.6949(3)
O5F O 1.1365(3) -0.5884(3) 0.3051(3)
O6F O 0.8638(2) -0.5913(4) 0.3057(4)
O6D O 1.1362(2) -0.5913(4) 0.6943(4)
O6B O 1.1362(2) -0.4087(4) 0.6943(4)
O7F O 0.8110(3) -0.7583(3) 0.3869(4)
O7D O 1.1890(3) -0.7583(3) 0.6131(4)
O7B O 1.1890(3) -0.2417(3) 0.6131(4)
O8F O 0.9620(2) -0.7184(3) 0.3598(4)
O8D O 1.0380(2) -0.7184(3) 0.6402(4)
O8B O 1.0380(2) -0.2816(3) 0.6402(4)
O9B O 0.9037(3) -0.2802(3) 0.5609(3)
O9F O 1.0963(3) -0.7198(3) 0.4391(3)
O9D O 0.9037(3) -0.7198(3) 0.5609(3)
O10D O 1.1208(4) -0.5000 0.8829(4)
O11D O 1.2728(3) -0.5000 0.3462(4)
O12F O 1.0816(3) -0.7484(2) 0.2174(3)
O12D O 0.9184(3) -0.7484(2) 0.7826(3)
O12B O 0.9184(3) -0.2516(2) 0.7826(3)
loop_
_geom_bond_atom_site_label_1
_geom_bond_atom_site_label_2
_geom_bond_site_symmetry_1
_geom_bond_site_symmetry_2
Mo1 O1 1_555 1_555
Mo2 O1 1_555 1_555
Mo3 O2 1_555 1_555
Mo4 O1 1_555 1_555
Cu1 N2 1_555 1_555
Cu2 N1 1_555 1_555
Cu3 N7 1_555 1_555
Cu4 N6 1_555 1_555
P1 O1 1_555 1_555
C1 H1 1_555 1_555
C2 H2 1_555 1_555
C3 H3 1_555 1_555
C4 H4 1_555 1_555
N1 C1 1_555 1_555
N2 C3 1_555 1_555
N3 Cu1 1_555 1_555
N4 C2 1_555 1_555
N5 Cu2 1_555 1_555
N6 C1 1_555 1_555
N7 C3 1_555 1_555
O2 Mo4 1_555 1_555
O3 Mo1 1_555 1_555
O4 Mo3 1_555 1_555
O5 Mo2 1_555 1_555
O6 Mo1 1_555 1_555
O7 Mo4 1_555 1_555
O8 Mo2 1_555 1_555
O9 Mo2 1_555 1_555
O10 Mo1 1_555 1_555
O11 Mo3 1_555 1_555
O12 Mo2 1_555 1_555
Mo1D O1D 1_555 1_555
Mo2F O3 1_555 1_555
Mo2D O1D 1_555 1_555
Mo2B O2 1_555 1_555
Mo3D O5 1_555 1_555
Mo4F O4 1_555 1_555
Mo4D O1D 1_555 1_555
Mo4B O9 1_555 1_555
Cu1A N2A 1_555 1_555
Cu1A_2 N3A 1_555 1_555
Cu2F N1F 1_555 1_555
Cu2A N1A 1_555 1_555
Cu2G N1G 1_555 1_555
Cu2G_2 N5G 1_555 1_555
Cu3F N4G 1_555 1_555
Cu3A N4 1_555 1_555
Cu3G N4F 1_555 1_555
Cu3G_2 N7G 1_555 1_555
Cu4A N6A 1_555 1_555
Cu4_2 N6F 1_555 1_555
C1A H1A 1_555 1_555
C1F H1F 1_555 1_555
C1G H1G 1_555 1_555
C2A H2A 1_555 1_555
C2F H2F 1_555 1_555
C2G H2G 1_555 1_555
C3F N2 1_555 1_555
C3A H3A 1_555 1_555
C3G H3G 1_555 1_555
H3F C3F 1_555 1_555
C4F N3 1_555 1_555
C4A H4A 1_555 1_555
C4G H4G 1_555 1_555
H4F C4F 1_555 1_555
N1A C1A 1_555 1_555
N1F C1F 1_555 1_555
N1G C1G 1_555 1_555
N2A C3A 1_555 1_555
N3A C4A 1_555 1_555
N3A_2 Cu1A 1_555 1_555
N4A Cu3 1_555 1_555
N4F C2F 1_555 1_555
N4G C2G 1_555 1_555
N5F N5 1_555 1_555
N5A Cu2A 1_555 1_555
N5G C4G 1_555 1_555
N5G_2 Cu2G 1_555 1_555
N6A C1A 1_555 1_555
N6F C1F 1_555 1_555
N6G Cu4A 1_555 1_555
N6F_2 Cu4 1_555 1_555
N7F N7 1_555 1_555
N7A Cu3A 1_555 1_555
N7G C3G 1_555 1_555
N7G_2 Cu3G 1_555 1_555
O1F Mo1 1_555 1_555
O1D P1 1_555 1_555
O1B P1 1_555 1_555
O2F Mo3 1_555 1_555
O2D P1 1_555 1_555
O2B Mo2 1_555 1_555
O3F Mo1 1_555 1_555
O3D Mo1D 1_555 1_555
O3B Mo1D 1_555 1_555
O4F Mo3 1_555 1_555
O4D Mo3D 1_555 1_555
O4B Mo3D 1_555 1_555
O5B Mo3 1_555 1_555
O5D Mo3 1_555 1_555
O5F Mo2F 1_555 1_555
O6F Mo1 1_555 1_555
O6D Mo1D 1_555 1_555
O6B Mo1D 1_555 1_555
O7F Mo4F 1_555 1_555
O7D Mo4D 1_555 1_555
O7B Mo4B 1_555 1_555
O8F Mo2F 1_555 1_555
O8D Mo2D 1_555 1_555
O8B Mo2B 1_555 1_555
O9B Mo4 1_555 1_555
O9F Mo2F 1_555 1_555
O9D Mo2D 1_555 1_555
O10D Mo1D 1_555 1_555
O11D Mo3D 1_555 1_555
O12F Mo2F 1_555 1_555
O12D Mo2D 1_555 1_555
O12B Mo2B 1_555 1_555
Mo2 O3F 1_555 1_555
Mo4 O6 1_555 1_555
Mo4 O8 1_555 1_555
Mo4 O4F 1_555 1_555
P1 O2 1_555 1_555
P1 O1F 1_555 1_555
P1 O2F 1_555 1_555
P1 O2B 1_555 1_555
C2 N1 1_555 1_555
C4 N3 1_555 1_555
C4 N5 1_555 1_555
N4 N6 1_555 1_555
Mo1D O1B 1_555 1_555
Mo2F O1F 1_555 1_555
Mo2F O2D 1_555 1_555
Mo2D O2F 1_555 1_555
Mo2D O3B 1_555 1_555
Mo2D O5D 1_555 1_555
Mo2B O1B 1_555 1_555
Mo2B O3D 1_555 1_555
Mo2B O5B 1_555 1_555
Mo2B O9B 1_555 1_555
Mo3D O2D 1_555 1_555
Mo3D O2B 1_555 1_555
Mo3D O5F 1_555 1_555
Mo4F O1F 1_555 1_555
Mo4F O2F 1_555 1_555
Mo4F O6F 1_555 1_555
Mo4F O8F 1_555 1_555
Mo4F O9D 1_555 1_555
Mo4D O2D 1_555 1_555
Mo4D O4B 1_555 1_555
Mo4D O6D 1_555 1_555
Mo4D O8D 1_555 1_555
Mo4D O9F 1_555 1_555
Mo4B O1B 1_555 1_555
Mo4B O2B 1_555 1_555
Mo4B O4D 1_555 1_555
Mo4B O6B 1_555 1_555
Mo4B O8B 1_555 1_555
Cu2F N5F 1_555 1_555
Cu3F N7F 1_555 1_555
C1G N6G 1_555 1_555
C2A N1A 1_555 1_555
C2A N4A 1_555 1_555
C2F N1F 1_555 1_555
C2G N1G 1_555 1_555
C3F N7F 1_555 1_555
C3A N7A 1_555 1_555
C3G N2A 1_555 1_555
C4F N5F 1_555 1_555
C4A N5A 1_555 1_555
C4G N3A 1_555 1_555
N4A N6A 1_555 1_555
N4F N6F 1_555 1_555
N4G N6G 1_555 1_555
N5A N5G 1_555 1_555
N7A N7G 1_555 1_555

#END
