
#######################################################################
#
#                 Cambridge Crystallographic Data Centre
#                                CCDC 
#
#######################################################################
#
# If this CIF has been generated from an entry in the Cambridge 
# Structural Database, then it will include bibliographic, chemical, 
# crystal, experimental, refinement or atomic coordinate data resulting 
# from the CCDC's data processing and validation procedures.
#
#######################################################################

data_SIHRUY
_symmetry_cell_setting           triclinic
_symmetry_space_group_name_H-M   'P -1'
_symmetry_Int_Tables_number      2
_space_group_name_Hall           '-P 1'
loop_
_symmetry_equiv_pos_site_id
_symmetry_equiv_pos_as_xyz
1 x,y,z
2 -x,-y,-z
_cell_length_a                   13.2254(8)
_cell_length_b                   14.6731(9)
_cell_length_c                   17.1748(10)
_cell_angle_alpha                98.663(2)
_cell_angle_beta                 109.9000(10)
_cell_angle_gamma                103.784(2)
_cell_volume                     2944.02
loop_
_atom_site_label
_atom_site_type_symbol
_atom_site_fract_x
_atom_site_fract_y
_atom_site_fract_z
Cu1 Cu 0.92397(3) 0.64181(3) 0.66597(3)
N1 N 1.0067(2) 0.66026(18) 0.79276(17)
N2 N 0.8380(2) 0.63171(18) 0.54146(17)
N3 N 0.7797(2) 0.56166(18) 0.67004(17)
N4 N 0.8702(2) -0.2012(2) 0.71566(18)
O1 O 0.84057(18) 0.31340(15) 0.71814(14)
C1 C 0.6075(3) 0.9881(2) 0.4394(2)
C2 C 0.8786(3) 0.0380(2) 0.7191(2)
H1 H 0.9242 0.0297 0.6894
O2 O 1.05154(19) 0.98263(16) 0.62722(16)
N5 N 0.6915(2) 0.77274(18) 0.40918(17)
H2 H 0.6608 0.7661 0.3549
N6 N 1.0671(2) 0.71979(18) 0.65682(17)
O3 O 1.3006(2) 0.58203(18) 0.83715(15)
O4 O 0.7463(2) 0.88320(17) 0.53793(15)
C3 C 1.1983(3) 0.8753(2) 0.6804(2)
N7 N 1.2265(2) 0.97554(18) 0.70506(19)
H3 H 1.2952 1.0088 0.7381
C4 C 0.7343(2) 0.6989(2) 0.4348(2)
N8 N 1.1923(2) 1.12131(18) 0.71646(18)
H4 H 1.2589 1.1419 0.7566
N9 N 0.6834(2) 0.33797(18) 0.73258(17)
H5 H 0.6276 0.3140 0.7462
N10 N 0.9717(2) 1.4837(2) 0.63374(19)
N11 N 0.7453(2) 0.21662(18) 0.78011(17)
H6 H 0.7058 0.2190 0.8107
N12 N 1.2834(2) 0.6712(2) 0.95048(18)
H7 H 1.3193 0.6992 1.0042
N13 N 1.4518(2) 0.6488(2) 0.96560(18)
H8 H 1.4750 0.6909 1.0136
N14 N 1.8556(3) 0.4624(2) 0.9207(2)
N15 N 0.5342(5) 1.3319(4) 0.4850(4)
C5 C 0.7851(2) 0.1368(2) 0.7737(2)
C6 C 0.8349(3) -0.0368(2) 0.7510(2)
C7 C 0.6822(3) 0.5812(2) 0.6382(2)
H9 H 0.6812 0.6350 0.6158
C8 C 0.8043(3) 0.7063(2) 0.5182(2)
H10 H 0.8284 0.7646 0.5592
C9 C 1.0986(3) 0.8163(2) 0.6806(2)
H11 H 1.0522 0.8456 0.6981
C10 C 0.5845(3) 0.4437(2) 0.6703(2)
H12 H 0.5185 0.4044 0.6711
C11 C 1.0460(3) 1.3390(2) 0.6613(2)
C12 C 0.7631(2) 0.2916(2) 0.7423(2)
C13 C 0.7046(3) 0.6139(2) 0.3734(2)
H13 H 0.6600 0.6077 0.3166
C14 C 0.6928(3) 0.8552(2) 0.4610(2)
C15 C 0.6850(3) 0.4216(2) 0.7022(2)
C16 C 1.6980(3) 0.5301(3) 0.9366(2)
C17 C 0.9587(3) 0.6857(2) 0.8470(2)
H14 H 0.8854 0.6891 0.8247
C18 C 1.1484(3) 1.0234(2) 0.6786(2)
C19 C 1.5853(3) 0.4801(3) 0.8866(2)
H15 H 1.5657 0.4208 0.8481
C20 C 1.1342(3) 0.6777(2) 0.6314(2)
H16 H 1.1114 0.6105 0.6126
C21 C 1.1222(3) 0.7015(3) 0.9682(2)
H17 H 1.1614 0.7167 1.0272
C22 C 1.2687(3) 0.8308(2) 0.6576(2)
H18 H 1.3375 0.8676 0.6593
C23 C 0.7816(3) 0.4839(2) 0.7022(2)
H19 H 0.8500 0.4715 0.7253
C24 C 1.7859(3) 0.4910(3) 0.9284(2)
C25 C 0.7698(3) -0.0229(2) 0.7978(2)
H20 H 0.7433 -0.0715 0.8217
C26 C 1.1375(3) 1.1908(2) 0.6951(2)
C27 C 0.4868(3) 1.0885(3) 0.4070(2)
H21 H 0.4187 1.0964 0.3744
C28 C 1.5305(3) 0.6065(3) 0.9511(2)
C29 C 1.1771(3) 1.2785(2) 0.7567(2)
H22 H 1.2347 1.2873 0.8094
C30 C 1.1116(3) 0.6531(2) 0.8261(2)
H23 H 1.1444 0.6340 0.7890
C31 C 1.0026(3) 1.4180(2) 0.6445(2)
C32 C 1.5013(3) 0.5181(2) 0.8937(2)
H24 H 1.4256 0.4843 0.8600
C33 C 0.7447(3) 0.0629(2) 0.8088(2)
H25 H 0.7007 0.0718 0.8398
C34 C 0.8061(3) 0.5489(2) 0.4816(2)
H26 H 0.8286 0.4970 0.4980
C35 C 1.1726(3) 0.6730(2) 0.9133(2)
C36 C 1.0065(3) 1.2514(2) 0.5996(2)
H27 H 0.9492 1.2426 0.5468
C37 C 0.7419(3) 0.5379(2) 0.3974(2)
H28 H 0.7235 0.4804 0.3569
C38 C 1.6439(3) 0.6562(3) 1.0008(2)
H29 H 1.6637 0.7160 1.0387
C39 C 1.1316(3) 1.3524(2) 0.7401(2)
H30 H 1.1582 1.4107 0.7814
C40 C 1.0149(3) 0.7067(3) 0.9342(2)
H31 H 0.9798 0.7244 0.9701
C41 C 0.8549(3) 0.1241(2) 0.7312(2)
H32 H 0.8860 0.1741 0.7107
C42 C 0.5055(3) 1.0013(2) 0.3909(2)
H33 H 0.4497 0.9499 0.3471
C43 C 0.6892(3) 1.0646(2) 0.5074(2)
H34 H 0.7560 1.0562 0.5419
C44 C 1.0519(3) 1.1774(2) 0.6163(2)
H35 H 1.0252 1.1190 0.5749
C45 C 0.5702(3) 1.1653(3) 0.4725(2)
C46 C 0.5830(3) 0.5234(2) 0.6379(2)
H36 H 0.5160 0.5384 0.6160
C47 C 1.3415(3) 0.6296(3) 0.9108(2)
C48 C 1.2351(3) 0.7307(3) 0.6322(3)
H37 H 1.2808 0.6994 0.6158
C49 C 1.7274(3) 0.6183(3) 0.9949(2)
H38 H 1.8029 0.6514 1.0295
C50 C 0.6698(3) 1.1523(3) 0.5226(2)
H39 H 0.7244 1.2035 0.5672
C51 C 0.5505(4) 1.2559(4) 0.4826(3)
C52 C 0.8546(3) -0.1286(2) 0.7325(2)
N16 N 0.6225(2) 0.89964(19) 0.41358(17)
H40 H 0.5825 0.8686 0.3610
Cu1_2 Cu 0.92397(3) -0.35819(3) 0.66597(3)
Cu1_3 Cu 0.92397(3) 1.64181(3) 0.66597(3)
N4_2 N 0.8702(2) 0.7988(2) 0.71566(18)
N10_2 N 0.9717(2) 0.4837(2) 0.63374(19)
S1 S 0.51000(6) 0.80504(6) 0.18235(5)
O5 O 0.52155(18) 0.75057(16) 0.24952(14)
O6 O 0.54337(19) 0.90842(16) 0.22431(15)
O7 O 0.58137(18) 0.78726(17) 0.13683(15)
O8 O 0.39004(18) 0.77149(16) 0.12313(14)
loop_
_geom_bond_atom_site_label_1
_geom_bond_atom_site_label_2
_geom_bond_site_symmetry_1
_geom_bond_site_symmetry_2
Cu1 N1 1_555 1_555
N1 C17 1_555 1_555
N2 Cu1 1_555 1_555
N3 Cu1 1_555 1_555
N4 C52 1_555 1_555
O1 C12 1_555 1_555
C1 C42 1_555 1_555
C2 H1 1_555 1_555
O2 C18 1_555 1_555
N5 H2 1_555 1_555
N6 Cu1 1_555 1_555
O3 C47 1_555 1_555
O4 C14 1_555 1_555
C3 N7 1_555 1_555
N7 H3 1_555 1_555
C4 N5 1_555 1_555
N8 H4 1_555 1_555
N9 H5 1_555 1_555
N10 C31 1_555 1_555
N11 H6 1_555 1_555
N12 H7 1_555 1_555
N13 H8 1_555 1_555
N14 C24 1_555 1_555
N15 C51 1_555 1_555
C5 N11 1_555 1_555
C6 C2 1_555 1_555
C7 N3 1_555 1_555
H9 C7 1_555 1_555
C8 N2 1_555 1_555
H10 C8 1_555 1_555
C9 N6 1_555 1_555
H11 C9 1_555 1_555
C10 H12 1_555 1_555
C11 C31 1_555 1_555
C12 N9 1_555 1_555
C13 C4 1_555 1_555
H13 C13 1_555 1_555
C14 N5 1_555 1_555
C15 N9 1_555 1_555
C16 C19 1_555 1_555
C17 H14 1_555 1_555
C18 N7 1_555 1_555
C19 H15 1_555 1_555
C20 N6 1_555 1_555
H16 C20 1_555 1_555
C21 H17 1_555 1_555
C22 C3 1_555 1_555
H18 C22 1_555 1_555
C23 N3 1_555 1_555
H19 C23 1_555 1_555
C24 C16 1_555 1_555
C25 C6 1_555 1_555
H20 C25 1_555 1_555
C26 N8 1_555 1_555
C27 H21 1_555 1_555
C28 N13 1_555 1_555
C29 C26 1_555 1_555
H22 C29 1_555 1_555
C30 N1 1_555 1_555
H23 C30 1_555 1_555
C32 C19 1_555 1_555
H24 C32 1_555 1_555
C33 C5 1_555 1_555
H25 C33 1_555 1_555
C34 N2 1_555 1_555
H26 C34 1_555 1_555
C35 N12 1_555 1_555
C36 C11 1_555 1_555
H27 C36 1_555 1_555
C37 C13 1_555 1_555
H28 C37 1_555 1_555
C38 C28 1_555 1_555
H29 C38 1_555 1_555
C39 C11 1_555 1_555
H30 C39 1_555 1_555
C40 C17 1_555 1_555
H31 C40 1_555 1_555
C41 C2 1_555 1_555
H32 C41 1_555 1_555
C42 C27 1_555 1_555
H33 C42 1_555 1_555
C43 C1 1_555 1_555
H34 C43 1_555 1_555
C44 C26 1_555 1_555
H35 C44 1_555 1_555
C45 C27 1_555 1_555
C46 C7 1_555 1_555
H36 C46 1_555 1_555
C47 N12 1_555 1_555
C48 C20 1_555 1_555
H37 C48 1_555 1_555
C49 C16 1_555 1_555
H38 C49 1_555 1_555
C50 C43 1_555 1_555
H39 C50 1_555 1_555
C51 C45 1_555 1_555
C52 C6 1_555 1_555
N16 C1 1_555 1_555
H40 N16 1_555 1_555
S1 O5 1_555 1_555
O6 S1 1_555 1_555
O7 S1 1_555 1_555
O8 S1 1_555 1_555
Cu1_2 N4 1_555 1_555
Cu1_3 N10 1_555 1_555
N4_2 Cu1 1_555 1_555
N10_2 Cu1 1_555 1_555
C3 C9 1_555 1_555
C4 C8 1_555 1_555
N8 C18 1_555 1_555
N11 C12 1_555 1_555
N13 C47 1_555 1_555
C5 C41 1_555 1_555
C10 C15 1_555 1_555
C10 C46 1_555 1_555
C14 N16 1_555 1_555
C15 C23 1_555 1_555
C21 C35 1_555 1_555
C21 C40 1_555 1_555
C22 C48 1_555 1_555
C25 C33 1_555 1_555
C28 C32 1_555 1_555
C29 C39 1_555 1_555
C30 C35 1_555 1_555
C34 C37 1_555 1_555
C36 C44 1_555 1_555
C38 C49 1_555 1_555
C45 C50 1_555 1_555

#END
