
#######################################################################
#
#                 Cambridge Crystallographic Data Centre
#                                CCDC 
#
#######################################################################
#
# If this CIF has been generated from an entry in the Cambridge 
# Structural Database, then it will include bibliographic, chemical, 
# crystal, experimental, refinement or atomic coordinate data resulting 
# from the CCDC's data processing and validation procedures.
#
#######################################################################

data_SIJBUJ
_symmetry_cell_setting           triclinic
_symmetry_space_group_name_H-M   'P -1'
_symmetry_Int_Tables_number      2
_space_group_name_Hall           '-P 1'
loop_
_symmetry_equiv_pos_site_id
_symmetry_equiv_pos_as_xyz
1 x,y,z
2 -x,-y,-z
_cell_length_a                   8.553(2)
_cell_length_b                   9.809(2)
_cell_length_c                   10.562(3)
_cell_angle_alpha                93.984(4)
_cell_angle_beta                 103.786(4)
_cell_angle_gamma                104.416(4)
_cell_volume                     825.639
loop_
_atom_site_label
_atom_site_type_symbol
_atom_site_fract_x
_atom_site_fract_y
_atom_site_fract_z
Cd1 Cd 0.42661(4) 0.14026(4) 0.37640(3)
S1 S -0.27210(13) 0.19273(12) 0.69579(10)
C1 C 0.7291(6) 0.0468(5) 0.2894(5)
C2 C 0.8350(7) 0.0310(6) 0.2132(5)
C3 C 0.8120(6) 0.0801(6) 0.0936(5)
C4 C 0.6888(6) 0.1467(5) 0.0531(5)
C5 C 0.5874(5) 0.1615(4) 0.1355(4)
C6 C 0.4492(5) 0.2317(4) 0.0979(4)
C7 C 0.4221(7) 0.2918(6) -0.0180(5)
C8 C 0.2893(8) 0.3502(7) -0.0491(5)
C9 C 0.1886(8) 0.3475(7) 0.0343(6)
C10 C 0.2247(7) 0.2876(6) 0.1486(5)
C11 C 0.2489(5) 0.2695(5) 0.5048(4)
C12 C 0.1475(5) 0.3319(4) 0.5758(4)
C13 C 0.1912(5) 0.4798(4) 0.6170(4)
C14 C 0.0898(6) 0.5346(5) 0.6791(5)
C15 C -0.0503(6) 0.4482(5) 0.7019(4)
C16 C 0.0050(6) 0.2468(5) 0.5998(4)
C17 C -0.0933(5) 0.3028(4) 0.6631(4)
N1 N 0.3531(5) 0.2315(4) 0.1800(4)
N2 N 0.6069(4) 0.1110(4) 0.2522(3)
O1 O 0.3765(4) 0.3496(3) 0.4828(3)
O2 O 0.2050(4) 0.1375(3) 0.4657(3)
O3 O 0.3274(4) 0.5702(4) 0.5983(4)
O4 O -0.2175(4) 0.0848(3) 0.7686(3)
O5 O -0.3426(4) 0.2824(4) 0.7647(3)
O6 O -0.3842(4) 0.1199(4) 0.5669(3)
H1 H 0.674(6) 0.187(5) -0.028(5)
H2 H 0.877(6) 0.071(5) 0.047(4)
H3 H 0.912(6) -0.014(5) 0.239(5)
H4 H 0.734(6) 0.007(5) 0.369(5)
H5 H 0.265(6) 0.386(6) -0.126(5)
H6 H 0.159(7) 0.283(5) 0.205(5)
H7 H -0.023(5) 0.170(5) 0.581(4)
H8 H -0.121(6) 0.475(5) 0.741(4)
H9 H 0.114(5) 0.627(5) 0.701(4)
H10 H 0.366(7) 0.529(6) 0.561(5)
H11 H 0.090(7) 0.382(6) 0.016(5)
H12 H 0.495(7) 0.292(6) -0.075(5)
Cd1A Cd -0.42661(4) -0.14026(4) 0.62360(3)
Cd1_2 Cd -0.57339(4) 0.14026(4) 0.37640(3)
O4A O 0.2175(4) -0.0848(3) 0.2314(3)
O6_2 O 0.6158(4) 0.1199(4) 0.5669(3)
O6A O 0.3842(4) -0.1199(4) 0.4331(3)
loop_
_geom_bond_atom_site_label_1
_geom_bond_atom_site_label_2
_geom_bond_site_symmetry_1
_geom_bond_site_symmetry_2
Cd1 N1 1_555 1_555
S1 C17 1_555 1_555
C1 C2 1_555 1_555
C2 C3 1_555 1_555
C3 C4 1_555 1_555
C4 C5 1_555 1_555
C5 C6 1_555 1_555
C6 C7 1_555 1_555
C7 C8 1_555 1_555
C8 C9 1_555 1_555
C9 C10 1_555 1_555
C10 N1 1_555 1_555
C11 C12 1_555 1_555
C12 C13 1_555 1_555
C13 C14 1_555 1_555
C14 C15 1_555 1_555
C15 C17 1_555 1_555
C16 C12 1_555 1_555
C17 C16 1_555 1_555
N1 C6 1_555 1_555
N2 Cd1 1_555 1_555
O1 Cd1 1_555 1_555
O2 Cd1 1_555 1_555
O3 C13 1_555 1_555
O4 S1 1_555 1_555
O5 S1 1_555 1_555
O6 S1 1_555 1_555
H1 C4 1_555 1_555
H2 C3 1_555 1_555
H3 C2 1_555 1_555
H4 C1 1_555 1_555
H5 C8 1_555 1_555
H6 C10 1_555 1_555
H7 C16 1_555 1_555
H8 C15 1_555 1_555
H9 C14 1_555 1_555
H10 O3 1_555 1_555
H11 C9 1_555 1_555
H12 C7 1_555 1_555
Cd1A O4 1_555 1_555
Cd1_2 O6 1_555 1_555
O4A Cd1 1_555 1_555
O6_2 Cd1 1_555 1_555
O6A Cd1 1_555 1_555
C1 N2 1_555 1_555
C5 N2 1_555 1_555
C11 O1 1_555 1_555
C11 O2 1_555 1_555
O6 Cd1A 1_555 1_555

#END
