
#######################################################################
#
#                 Cambridge Crystallographic Data Centre
#                                CCDC 
#
#######################################################################
#
# If this CIF has been generated from an entry in the Cambridge 
# Structural Database, then it will include bibliographic, chemical, 
# crystal, experimental, refinement or atomic coordinate data resulting 
# from the CCDC's data processing and validation procedures.
#
#######################################################################

data_SIJCUK
_symmetry_cell_setting           triclinic
_symmetry_space_group_name_H-M   'P -1'
_symmetry_Int_Tables_number      2
_space_group_name_Hall           '-P 1'
loop_
_symmetry_equiv_pos_site_id
_symmetry_equiv_pos_as_xyz
1 x,y,z
2 -x,-y,-z
_cell_length_a                   8.5804(11)
_cell_length_b                   9.0078(12)
_cell_length_c                   12.3245(16)
_cell_angle_alpha                83.530(11)
_cell_angle_beta                 75.266(11)
_cell_angle_gamma                79.467(11)
_cell_volume                     903.523
loop_
_atom_site_label
_atom_site_type_symbol
_atom_site_fract_x
_atom_site_fract_y
_atom_site_fract_z
C1 C 0.7670(4) 0.5982(5) 0.2797(3)
C2 C 0.7558(5) 0.7364(5) 0.2182(3)
H1 H 0.8274 0.8009 0.2216
C3 C 0.6456(5) 0.7854(4) 0.1521(3)
C4 C 0.3359(6) 0.7074(6) 0.4334(4)
H2 H 0.2422 0.7546 0.4862
H3 H 0.4017 0.7822 0.3960
H4 H 0.3989 0.6309 0.4725
C5 C 0.8996(5) 0.5468(5) 0.3421(4)
H5 H 0.8882 0.4482 0.3788
H6 H 0.8907 0.6170 0.3973
H7 H 1.0044 0.5424 0.2899
C6 C 0.6476(5) 0.9379(5) 0.0881(4)
H8 H 0.5650 0.9555 0.0461
H9 H 0.7527 0.9402 0.0374
H10 H 0.6264 1.0152 0.1400
O1 O 0.6712(3) 0.5027(3) 0.2870(3)
O2 O 0.2839(3) 0.6402(3) 0.3528(2)
O3 O 0.5388(3) 0.7095(3) 0.1387(2)
C7 C 0.2751(5) 0.3797(4) 0.1206(3)
H11 H 0.3266 0.2902 0.1504
C8 C 0.1470(5) 0.3732(4) 0.0728(3)
H12 H 0.1133 0.2808 0.0729
C9 C 0.0687(4) 0.5023(4) 0.0250(3)
C10 C 0.1302(5) 0.6359(5) 0.0255(4)
H13 H 0.0862 0.7251 -0.0093
C11 C 0.2556(5) 0.6367(5) 0.0771(4)
H14 H 0.2913 0.7278 0.0785
C12 C 0.3430(5) 0.2841(4) 0.3788(4)
H15 H 0.2449 0.3495 0.3819
C13 C 0.3475(5) 0.1619(4) 0.4582(3)
H16 H 0.2533 0.1461 0.5123
C14 C 0.4921(4) 0.0637(4) 0.4565(3)
C15 C 0.6251(5) 0.0869(4) 0.3679(3)
H17 H 0.7222 0.0188 0.3594
C16 C 0.6118(5) 0.2120(4) 0.2925(3)
H18 H 0.7028 0.2274 0.2352
Cu1 Cu 0.49231(5) 0.51995(5) 0.21700(4)
N1 N 0.3284(4) 0.5090(4) 0.1259(3)
N2 N 0.4745(4) 0.3115(4) 0.2981(3)
C1A C -0.7670(4) 0.4018(5) -0.2797(3)
C2A C -0.7558(5) 0.2636(5) -0.2182(3)
H1A H -0.8274 0.1991 -0.2216
C3A C -0.6456(5) 0.2146(4) -0.1521(3)
C4A C -0.3359(6) 0.2926(6) -0.4334(4)
H2A H -0.2422 0.2454 -0.4862
H3A H -0.4017 0.2178 -0.3960
H4A H -0.3989 0.3691 -0.4725
C5A C -0.8996(5) 0.4532(5) -0.3421(4)
H5A H -0.8882 0.5518 -0.3788
H6A H -0.8907 0.3830 -0.3973
H7A H -1.0044 0.4576 -0.2899
C6A C -0.6476(5) 0.0621(5) -0.0881(4)
H8A H -0.5650 0.0445 -0.0461
H9A H -0.7527 0.0598 -0.0374
H10A H -0.6264 -0.0152 -0.1400
O1A O -0.6712(3) 0.4973(3) -0.2870(3)
O2A O -0.2839(3) 0.3598(3) -0.3528(2)
O3A O -0.5388(3) 0.2905(3) -0.1387(2)
C7A C -0.2751(5) 0.6203(4) -0.1206(3)
H11A H -0.3266 0.7098 -0.1504
C8A C -0.1470(5) 0.6268(4) -0.0728(3)
H12A H -0.1133 0.7192 -0.0729
C9A C -0.0687(4) 0.4977(4) -0.0250(3)
C10A C -0.1302(5) 0.3641(5) -0.0255(4)
H13A H -0.0862 0.2749 0.0093
C11A C -0.2556(5) 0.3633(5) -0.0771(4)
H14A H -0.2913 0.2722 -0.0785
C12A C 0.6570(5) -0.2841(4) 0.6212(4)
H15A H 0.7551 -0.3495 0.6181
C13A C 0.6525(5) -0.1619(4) 0.5418(3)
H16A H 0.7467 -0.1461 0.4877
C14A C 0.5079(4) -0.0637(4) 0.5435(3)
C15A C 0.3749(5) -0.0869(4) 0.6321(3)
H17A H 0.2778 -0.0188 0.6406
C16A C 0.3882(5) -0.2120(4) 0.7075(3)
H18A H 0.2972 -0.2274 0.7648
Cu1A Cu -0.49231(5) 0.48005(5) -0.21700(4)
Cu1A_2 Cu 0.50769(5) -0.51995(5) 0.78300(4)
N1A N -0.3284(4) 0.4910(4) -0.1259(3)
N2A N 0.5255(4) -0.3115(4) 0.7019(3)
N2A_2 N -0.4745(4) 0.6885(4) -0.2981(3)
O4 O 0.2531(4) 1.0097(4) 0.2159(3)
O5 O 0.0188(5) 1.1504(4) 0.3212(3)
O6 O 0.0041(5) 1.0420(5) 0.1603(3)
O7 O 0.0374(4) 0.8873(4) 0.3214(3)
Cl1 Cl 0.07882(11) 1.02347(11) 0.25484(9)
loop_
_geom_bond_atom_site_label_1
_geom_bond_atom_site_label_2
_geom_bond_site_symmetry_1
_geom_bond_site_symmetry_2
C1 C2 1_555 1_555
C2 H1 1_555 1_555
C3 C2 1_555 1_555
C4 H2 1_555 1_555
H3 C4 1_555 1_555
H4 C4 1_555 1_555
C5 C1 1_555 1_555
H5 C5 1_555 1_555
H6 C5 1_555 1_555
H7 C5 1_555 1_555
C6 C3 1_555 1_555
H8 C6 1_555 1_555
H9 C6 1_555 1_555
H10 C6 1_555 1_555
O1 C1 1_555 1_555
O2 C4 1_555 1_555
O3 C3 1_555 1_555
C7 H11 1_555 1_555
C8 C7 1_555 1_555
H12 C8 1_555 1_555
C9 C8 1_555 1_555
C10 C9 1_555 1_555
H13 C10 1_555 1_555
C11 C10 1_555 1_555
H14 C11 1_555 1_555
C12 H15 1_555 1_555
C13 C12 1_555 1_555
H16 C13 1_555 1_555
C14 C13 1_555 1_555
C15 C14 1_555 1_555
H17 C15 1_555 1_555
C16 C15 1_555 1_555
H18 C16 1_555 1_555
O4 Cl1 1_555 1_555
O5 Cl1 1_555 1_555
O6 Cl1 1_555 1_555
O7 Cl1 1_555 1_555
Cu1 O1 1_555 1_555
N1 C7 1_555 1_555
N2 C12 1_555 1_555
C1A C2A 1_555 1_555
C2A H1A 1_555 1_555
C3A C2A 1_555 1_555
C4A H2A 1_555 1_555
H3A C4A 1_555 1_555
H4A C4A 1_555 1_555
C5A C1A 1_555 1_555
H5A C5A 1_555 1_555
H6A C5A 1_555 1_555
H7A C5A 1_555 1_555
C6A C3A 1_555 1_555
H8A C6A 1_555 1_555
H9A C6A 1_555 1_555
H10A C6A 1_555 1_555
O1A C1A 1_555 1_555
O2A C4A 1_555 1_555
O3A C3A 1_555 1_555
C7A H11A 1_555 1_555
C8A C7A 1_555 1_555
H12A C8A 1_555 1_555
C9A C9 1_555 1_555
C10A C9A 1_555 1_555
H13A C10A 1_555 1_555
C11A C10A 1_555 1_555
H14A C11A 1_555 1_555
C12A H15A 1_555 1_555
C13A C12A 1_555 1_555
H16A C13A 1_555 1_555
C14A C14 1_555 1_555
C15A C14A 1_555 1_555
H17A C15A 1_555 1_555
C16A C15A 1_555 1_555
H18A C16A 1_555 1_555
Cu1A O1A 1_555 1_555
Cu1A_2 N2A 1_555 1_555
N1A C7A 1_555 1_555
N2A C12A 1_555 1_555
N2A_2 Cu1A 1_555 1_555
O2 Cu1 1_555 1_555
O3 Cu1 1_555 1_555
C11 N1 1_555 1_555
C16 N2 1_555 1_555
Cu1 N1 1_555 1_555
Cu1 N2 1_555 1_555
O2A Cu1A 1_555 1_555
O3A Cu1A 1_555 1_555
C8A C9A 1_555 1_555
C11A N1A 1_555 1_555
C13A C14A 1_555 1_555
C16A N2A 1_555 1_555
Cu1A N1A 1_555 1_555

#END
