
#######################################################################
#
#                 Cambridge Crystallographic Data Centre
#                                CCDC 
#
#######################################################################
#
# If this CIF has been generated from an entry in the Cambridge 
# Structural Database, then it will include bibliographic, chemical, 
# crystal, experimental, refinement or atomic coordinate data resulting 
# from the CCDC's data processing and validation procedures.
#
#######################################################################

data_SIJDUM
_symmetry_cell_setting           cubic
_symmetry_space_group_name_H-M   'F d -3 c'
_symmetry_Int_Tables_number      228
_space_group_name_Hall           '-F 4ud 2vw 3'
loop_
_symmetry_equiv_pos_site_id
_symmetry_equiv_pos_as_xyz
1 x,y,z
2 1/4-x,3/4-y,1/2+z
3 3/4-x,1/2+y,1/4-z
4 1/2+x,1/4-y,3/4-z
5 z,x,y
6 1/2+z,1/4-x,3/4-y
7 1/4-z,3/4-x,1/2+y
8 3/4-z,1/2+x,1/4-y
9 y,z,x
10 3/4-y,1/2+z,1/4-x
11 1/2+y,1/4-z,3/4-x
12 1/4-y,3/4-z,1/2+x
13 3/4+y,1/4+x,-z
14 1/2-y,1/2-x,1/2-z
15 1/4+y,-x,3/4+z
16 -y,3/4+x,1/4+z
17 3/4+x,1/4+z,-y
18 -x,3/4+z,1/4+y
19 1/2-x,1/2-z,1/2-y
20 1/4+x,-z,3/4+y
21 3/4+z,1/4+y,-x
22 1/4+z,-y,3/4+x
23 -z,3/4+y,1/4+x
24 1/2-z,1/2-y,1/2-x
25 x,1/2+y,1/2+z
26 1/4-x,1/4-y,z
27 3/4-x,y,3/4-z
28 1/2+x,3/4-y,1/4-z
29 z,1/2+x,1/2+y
30 1/2+z,3/4-x,1/4-y
31 1/4-z,1/4-x,y
32 3/4-z,x,3/4-y
33 y,1/2+z,1/2+x
34 3/4-y,z,3/4-x
35 1/2+y,3/4-z,1/4-x
36 1/4-y,1/4-z,x
37 3/4+y,3/4+x,1/2-z
38 1/2-y,-x,-z
39 1/4+y,1/2-x,1/4+z
40 -y,1/4+x,3/4+z
41 3/4+x,3/4+z,1/2-y
42 -x,1/4+z,3/4+y
43 1/2-x,-z,-y
44 1/4+x,1/2-z,1/4+y
45 3/4+z,3/4+y,1/2-x
46 1/4+z,1/2-y,1/4+x
47 -z,1/4+y,3/4+x
48 1/2-z,-y,-x
49 1/2+x,y,1/2+z
50 3/4-x,3/4-y,z
51 1/4-x,1/2+y,3/4-z
52 x,1/4-y,1/4-z
53 1/2+z,x,1/2+y
54 z,1/4-x,1/4-y
55 3/4-z,3/4-x,y
56 1/4-z,1/2+x,3/4-y
57 1/2+y,z,1/2+x
58 1/4-y,1/2+z,3/4-x
59 y,1/4-z,1/4-x
60 3/4-y,3/4-z,x
61 1/4+y,1/4+x,1/2-z
62 -y,1/2-x,-z
63 3/4+y,-x,1/4+z
64 1/2-y,3/4+x,3/4+z
65 1/4+x,1/4+z,1/2-y
66 1/2-x,3/4+z,3/4+y
67 -x,1/2-z,-y
68 3/4+x,-z,1/4+y
69 1/4+z,1/4+y,1/2-x
70 3/4+z,-y,1/4+x
71 1/2-z,3/4+y,3/4+x
72 -z,1/2-y,-x
73 1/2+x,1/2+y,z
74 3/4-x,1/4-y,1/2+z
75 1/4-x,y,1/4-z
76 x,3/4-y,3/4-z
77 1/2+z,1/2+x,y
78 z,3/4-x,3/4-y
79 3/4-z,1/4-x,1/2+y
80 1/4-z,x,1/4-y
81 1/2+y,1/2+z,x
82 1/4-y,z,1/4-x
83 y,3/4-z,3/4-x
84 3/4-y,1/4-z,1/2+x
85 1/4+y,3/4+x,-z
86 -y,-x,1/2-z
87 3/4+y,1/2-x,3/4+z
88 1/2-y,1/4+x,1/4+z
89 1/4+x,3/4+z,-y
90 1/2-x,1/4+z,1/4+y
91 -x,-z,1/2-y
92 3/4+x,1/2-z,3/4+y
93 1/4+z,3/4+y,-x
94 3/4+z,1/2-y,3/4+x
95 1/2-z,1/4+y,1/4+x
96 -z,-y,1/2-x
97 -x,-y,-z
98 3/4+x,1/4+y,1/2-z
99 1/4+x,1/2-y,3/4+z
100 1/2-x,3/4+y,1/4+z
101 -z,-x,-y
102 1/2-z,3/4+x,1/4+y
103 3/4+z,1/4+x,1/2-y
104 1/4+z,1/2-x,3/4+y
105 -y,-z,-x
106 1/4+y,1/2-z,3/4+x
107 1/2-y,3/4+z,1/4+x
108 3/4+y,1/4+z,1/2-x
109 1/4-y,3/4-x,z
110 1/2+y,1/2+x,1/2+z
111 3/4-y,x,1/4-z
112 y,1/4-x,3/4-z
113 1/4-x,3/4-z,y
114 x,1/4-z,3/4-y
115 1/2+x,1/2+z,1/2+y
116 3/4-x,z,1/4-y
117 1/4-z,3/4-y,x
118 3/4-z,y,1/4-x
119 z,1/4-y,3/4-x
120 1/2+z,1/2+y,1/2+x
121 -x,1/2-y,1/2-z
122 3/4+x,3/4+y,-z
123 1/4+x,-y,1/4+z
124 1/2-x,1/4+y,3/4+z
125 -z,1/2-x,1/2-y
126 1/2-z,1/4+x,3/4+y
127 3/4+z,3/4+x,-y
128 1/4+z,-x,1/4+y
129 -y,1/2-z,1/2-x
130 1/4+y,-z,1/4+x
131 1/2-y,1/4+z,3/4+x
132 3/4+y,3/4+z,-x
133 1/4-y,1/4-x,1/2+z
134 1/2+y,x,z
135 3/4-y,1/2+x,3/4-z
136 y,3/4-x,1/4-z
137 1/4-x,1/4-z,1/2+y
138 x,3/4-z,1/4-y
139 1/2+x,z,y
140 3/4-x,1/2+z,3/4-y
141 1/4-z,1/4-y,1/2+x
142 3/4-z,1/2+y,3/4-x
143 z,3/4-y,1/4-x
144 1/2+z,y,x
145 1/2-x,-y,1/2-z
146 1/4+x,1/4+y,-z
147 3/4+x,1/2-y,1/4+z
148 -x,3/4+y,3/4+z
149 1/2-z,-x,1/2-y
150 -z,3/4+x,3/4+y
151 1/4+z,1/4+x,-y
152 3/4+z,1/2-x,1/4+y
153 1/2-y,-z,1/2-x
154 3/4+y,1/2-z,1/4+x
155 -y,3/4+z,3/4+x
156 1/4+y,1/4+z,-x
157 3/4-y,3/4-x,1/2+z
158 y,1/2+x,z
159 1/4-y,x,3/4-z
160 1/2+y,1/4-x,1/4-z
161 3/4-x,3/4-z,1/2+y
162 1/2+x,1/4-z,1/4-y
163 x,1/2+z,y
164 1/4-x,z,3/4-y
165 3/4-z,3/4-y,1/2+x
166 1/4-z,y,3/4-x
167 1/2+z,1/4-y,1/4-x
168 z,1/2+y,x
169 1/2-x,1/2-y,-z
170 1/4+x,3/4+y,1/2-z
171 3/4+x,-y,3/4+z
172 -x,1/4+y,1/4+z
173 1/2-z,1/2-x,-y
174 -z,1/4+x,1/4+y
175 1/4+z,3/4+x,1/2-y
176 3/4+z,-x,3/4+y
177 1/2-y,1/2-z,-x
178 3/4+y,-z,3/4+x
179 -y,1/4+z,1/4+x
180 1/4+y,3/4+z,1/2-x
181 3/4-y,1/4-x,z
182 y,x,1/2+z
183 1/4-y,1/2+x,1/4-z
184 1/2+y,3/4-x,3/4-z
185 3/4-x,1/4-z,y
186 1/2+x,3/4-z,3/4-y
187 x,z,1/2+y
188 1/4-x,1/2+z,1/4-y
189 3/4-z,1/4-y,x
190 1/4-z,1/2+y,1/4-x
191 1/2+z,3/4-y,3/4-x
192 z,y,1/2+x
_cell_length_a                   62.779(7)
_cell_length_b                   62.779(7)
_cell_length_c                   62.779(7)
_cell_angle_alpha                90
_cell_angle_beta                 90
_cell_angle_gamma                90
_cell_volume                     247425
loop_
_atom_site_label
_atom_site_type_symbol
_atom_site_fract_x
_atom_site_fract_y
_atom_site_fract_z
Zn1 Zn 0.668532(9) 0.288606(8) 0.034656(11)
Zn2 Zn 0.630794(11) 0.326385(10) 0.045467(13)
O1 O 0.66141(5) 0.29754(4) 0.00645(6)
O2 O 0.63684(7) 0.32126(8) 0.01486(7)
O3 O 0.59891(6) 0.36104(7) -0.03947(8)
O4 O 0.60604(8) 0.35708(9) -0.07180(10)
O5 O 0.66353(5) 0.30736(6) -0.09314(7)
O6 O 0.68586(5) 0.29696(7) -0.06758(6)
C1 C 0.64557(7) 0.31840(7) -0.02158(9)
C2 C 0.62916(8) 0.33267(7) -0.02674(10)
H1 H 0.6201 0.3384 -0.0160
C3 C 0.62666(8) 0.33794(9) -0.04750(11)
C4 C 0.63894(7) 0.32879(7) -0.06345(10)
H2 H 0.6364 0.3320 -0.0780
C5 C 0.65558(6) 0.31435(7) -0.05754(9)
C6 C 0.65850(6) 0.31009(7) -0.03616(9)
H3 H 0.6699 0.3011 -0.0318
C7 C 0.64787(8) 0.31183(9) 0.00162(12)
C8 C 0.60940(10) 0.35299(10) -0.05381(13)
C9 C 0.66969(7) 0.30557(8) -0.07393(10)
O7 O 0.61635(6) 0.30089(7) 0.05262(8)
O8 O 0.64438(8) 0.28042(6) 0.05235(7)
C10 C 0.61139(10) 0.26451(10) 0.05560(12)
C11 C 0.61977(12) 0.24471(11) 0.05148(12)
H4 H 0.6345 0.2430 0.0482
C12 C 0.60660(15) 0.22777(14) 0.05217(13)
H5 H 0.6118 0.2143 0.0476
C13 C 0.58613(16) 0.22929(13) 0.05914(14)
C14 C 0.57738(14) 0.24883(16) 0.06454(19)
H6 H 0.5629 0.2503 0.0686
C15 C 0.59076(14) 0.26566(14) 0.06361(17)
H7 H 0.5858 0.2790 0.0687
C16 C 0.62470(10) 0.28326(10) 0.05312(11)
C17 C 0.56944(15) 0.21067(16) 0.0578(2)
O9 O 0.69069(5) 0.26797(4) 0.04110(5)
O10 O 0.66956(5) 0.24880(5) 0.02016(6)
C18 C 0.5541(2) 0.20784(19) 0.07153(17)
H8 H 0.5532 0.2171 0.0835
C19 C 0.70253(5) 0.23375(5) 0.03216(5)
C20 C 0.70250(5) 0.21828(5) 0.01662(5)
H9 H 0.6917 0.2185 0.0060
C21 C 0.68637(6) 0.25179(7) 0.03047(7)
O7CA O 0.55262(8) 0.13365(6) -0.05089(7)
O8CA O 0.55235(7) 0.10562(8) -0.03042(6)
C10CA C 0.55560(12) 0.13861(10) -0.01451(10)
C11CA C 0.55148(12) 0.13023(12) 0.00529(11)
H4CA H 0.5482 0.1155 0.0070
C12CA C 0.55217(13) 0.14340(15) 0.02223(14)
H5CA H 0.5476 0.1382 0.0357
C13CA C 0.55914(14) 0.16387(16) 0.02071(13)
C14CA C 0.56454(19) 0.17262(14) 0.00117(16)
H6CA H 0.5686 0.1871 -0.0003
C15CA C 0.56361(17) 0.15924(14) -0.01566(14)
H7CA H 0.5687 0.1642 -0.0290
C16CA C 0.55312(11) 0.12530(10) -0.03326(10)
C17CA C 0.5578(2) 0.18056(15) 0.03933(16)
C18CA C 0.57153(17) 0.1959(2) 0.04216(19)
H8CA H 0.5835 0.1968 0.0329
O7EC O 0.44911(7) 0.19738(8) 0.11635(6)
O8EC O 0.46958(6) 0.19765(7) 0.14438(8)
C10EC C 0.48549(10) 0.19440(12) 0.11139(10)
C11EC C 0.50529(11) 0.19852(12) 0.11977(12)
H4EC H 0.5070 0.2018 0.1345
C12EC C 0.52223(14) 0.19783(13) 0.10660(15)
H5EC H 0.5357 0.2024 0.1118
C13EC C 0.52071(13) 0.19086(14) 0.08613(16)
C14EC C 0.50117(16) 0.18546(19) 0.07738(14)
H6EC H 0.4997 0.1814 0.0629
C15EC C 0.48434(14) 0.18639(17) 0.09076(14)
H7EC H 0.4710 0.1813 0.0858
C16EC C 0.46674(10) 0.19688(11) 0.12470(10)
C17EC C 0.53933(16) 0.1922(2) 0.06944(15)
C18EC C 0.54216(19) 0.17847(17) 0.0541(2)
H8EC H 0.5329 0.1665 0.0532
O9G O 0.70890(5) 0.19069(5) -0.01797(4)
O10G O 0.72984(6) 0.16956(5) 0.00120(5)
C19G C 0.71784(5) 0.20253(5) 0.01625(5)
C20G C 0.73338(5) 0.20250(5) 0.03172(5)
H9G H 0.7440 0.1917 0.0315
C21G C 0.71953(7) 0.18637(6) -0.00179(7)
O9J O 0.76797(4) 0.20890(5) 0.05931(5)
O10J O 0.74880(5) 0.22984(6) 0.08044(5)
C19J C 0.73375(5) 0.21784(5) 0.04747(5)
C20J C 0.71828(5) 0.23338(5) 0.04750(5)
H9J H 0.7185 0.2440 0.0583
C21J C 0.75179(7) 0.21953(7) 0.06363(6)
Zn1G Zn 0.715344(11) 0.168532(9) -0.038606(8)
Zn2G Zn 0.704533(13) 0.130794(11) -0.076385(10)
O1G O 0.74355(6) 0.16141(5) -0.04754(4)
O2G O 0.73514(7) 0.13684(7) -0.07126(8)
O3G O 0.78947(8) 0.09891(6) -0.11104(7)
O4G O 0.82180(10) 0.10604(8) -0.10708(9)
O5G O 0.84314(7) 0.16353(5) -0.05736(6)
O6G O 0.81758(6) 0.18586(5) -0.04696(7)
C1G C 0.77158(9) 0.14557(7) -0.06840(7)
C2G C 0.77674(10) 0.12916(8) -0.08267(7)
H1G H 0.7660 0.1201 -0.0884
C3G C 0.79750(11) 0.12666(8) -0.08794(9)
C4G C 0.81345(10) 0.13894(7) -0.07879(7)
H2G H 0.8280 0.1364 -0.0820
C5G C 0.80754(9) 0.15558(6) -0.06435(7)
C6G C 0.78616(9) 0.15850(6) -0.06009(7)
H3G H 0.7818 0.1699 -0.0511
C7G C 0.74838(12) 0.14787(8) -0.06183(9)
C8G C 0.80381(13) 0.10940(10) -0.10299(10)
C9G C 0.82393(10) 0.16969(7) -0.05557(8)
Zn1J Zn 0.788606(8) 0.215344(11) 0.081468(9)
Zn2J Zn 0.826385(10) 0.204533(13) 0.119206(11)
O1J O 0.79754(4) 0.24355(6) 0.08859(5)
O2J O 0.82126(8) 0.23514(7) 0.11316(7)
O3J O 0.86104(7) 0.28947(8) 0.15109(6)
O4J O 0.85708(9) 0.32180(10) 0.14396(8)
O5J O 0.80736(6) 0.34314(7) 0.08647(5)
O6J O 0.79696(7) 0.31758(6) 0.06414(5)
C1J C 0.81840(7) 0.27158(9) 0.10443(7)
C2J C 0.83267(7) 0.27674(10) 0.12084(8)
H1J H 0.8384 0.2660 0.1299
C3J C 0.83794(9) 0.29750(11) 0.12334(8)
C4J C 0.82879(7) 0.31345(10) 0.11106(7)
H2J H 0.8320 0.3280 0.1136
C5J C 0.81435(7) 0.30754(9) 0.09442(6)
C6J C 0.81009(7) 0.28616(9) 0.09150(6)
H3J H 0.8011 0.2818 0.0801
C7J C 0.81183(9) 0.24838(12) 0.10213(8)
C8J C 0.85299(10) 0.30381(13) 0.14060(10)
C9J C 0.80557(8) 0.32393(10) 0.08031(7)
Zn1CA Zn 0.534656(11) 0.081468(9) -0.038606(8)
Zn1EC Zn 0.461394(8) 0.215344(11) 0.168532(9)
Zn1LF Zn 0.831468(9) 0.211394(8) -0.034656(11)
Zn1SF Zn 0.784656(11) 0.331468(9) 0.038606(8)
Zn1VF Zn 0.711394(8) 0.284656(11) -0.081468(9)
Zn2CA Zn 0.545467(13) 0.119206(11) -0.076385(10)
Zn2RA Zn 0.795467(13) 0.076385(10) -0.130794(11)
Zn2LB Zn 0.880794(11) 0.295467(13) 0.173615(10)
Zn2EC Zn 0.423615(10) 0.204533(13) 0.130794(11)
Zn2FC Zn 0.576385(10) 0.380794(11) -0.045467(13)
Zn2LF Zn 0.869206(11) 0.173615(10) -0.045467(13)
Zn2SF Zn 0.795467(13) 0.369206(11) 0.076385(10)
Zn2VF Zn 0.673615(10) 0.295467(13) -0.119206(11)
O3RA O 0.71053(8) 0.11104(7) -0.09891(6)
O3LB O 0.84891(6) 0.21053(8) 0.13896(7)
O3FC O 0.61104(7) 0.34891(6) 0.03947(8)
O5LF O 0.83647(5) 0.19264(6) 0.09314(7)
O5SF O 0.65686(7) 0.33647(5) 0.05736(6)
O5VF O 0.69264(6) 0.15686(7) -0.08647(5)
O6LF O 0.81414(5) 0.20304(7) 0.06758(6)
O6SF O 0.68242(6) 0.31414(5) 0.04696(7)
O6VF O 0.70304(7) 0.18242(6) -0.06414(5)
O7G O 0.69738(8) 0.11635(6) -0.05089(7)
O7J O 0.80089(7) 0.19738(8) 0.13365(6)
O8G O 0.69765(7) 0.14438(8) -0.03042(6)
O8J O 0.78042(6) 0.19765(7) 0.10562(8)
loop_
_geom_bond_atom_site_label_1
_geom_bond_atom_site_label_2
_geom_bond_site_symmetry_1
_geom_bond_site_symmetry_2
Zn1 O1 1_555 1_555
Zn2 O2 1_555 1_555
O1 C7 1_555 1_555
O2 C7 1_555 1_555
O3 C8 1_555 1_555
O4 C8 1_555 1_555
O5 C9 1_555 1_555
O6 C9 1_555 1_555
C1 C2 1_555 1_555
C2 H1 1_555 1_555
C3 C2 1_555 1_555
C4 C3 1_555 1_555
H2 C4 1_555 1_555
C5 C4 1_555 1_555
C6 C1 1_555 1_555
H3 C6 1_555 1_555
C7 C1 1_555 1_555
C8 C3 1_555 1_555
C9 C5 1_555 1_555
O7 Zn2 1_555 1_555
O8 Zn1 1_555 1_555
C10 C11 1_555 1_555
C11 H4 1_555 1_555
C12 C11 1_555 1_555
H5 C12 1_555 1_555
C13 C12 1_555 1_555
C14 C13 1_555 1_555
H6 C14 1_555 1_555
C15 C10 1_555 1_555
H7 C15 1_555 1_555
C16 O7 1_555 1_555
C17 C13 1_555 1_555
O9 Zn1 1_555 1_555
O10 C21 1_555 1_555
C18 C17 1_555 1_555
H8 C18 1_555 1_555
C19 C20 1_555 1_555
C20 H9 1_555 1_555
C21 O9 1_555 1_555
O7CA C16CA 1_555 1_555
O8CA C16CA 1_555 1_555
C10CA C11CA 1_555 1_555
C11CA H4CA 1_555 1_555
C12CA C11CA 1_555 1_555
H5CA C12CA 1_555 1_555
C13CA C12CA 1_555 1_555
C14CA C13CA 1_555 1_555
H6CA C14CA 1_555 1_555
C15CA C10CA 1_555 1_555
H7CA C15CA 1_555 1_555
C16CA C10CA 1_555 1_555
C17CA C13CA 1_555 1_555
C18CA C17 1_555 1_555
H8CA C18CA 1_555 1_555
O7EC C16EC 1_555 1_555
O8EC C16EC 1_555 1_555
C10EC C11EC 1_555 1_555
C11EC H4EC 1_555 1_555
C12EC C11EC 1_555 1_555
H5EC C12EC 1_555 1_555
C13EC C12EC 1_555 1_555
C14EC C13EC 1_555 1_555
H6EC C14EC 1_555 1_555
C15EC C10EC 1_555 1_555
H7EC C15EC 1_555 1_555
C16EC C10EC 1_555 1_555
C17EC C18 1_555 1_555
C18EC C17CA 1_555 1_555
H8EC C18EC 1_555 1_555
O9G C21G 1_555 1_555
O10G C21G 1_555 1_555
C19G C20 1_555 1_555
C20G C19G 1_555 1_555
H9G C20G 1_555 1_555
C21G C19G 1_555 1_555
O9J C21J 1_555 1_555
O10J C21J 1_555 1_555
C19J C20G 1_555 1_555
C20J C19 1_555 1_555
H9J C20J 1_555 1_555
C21J C19J 1_555 1_555
Zn1G O9G 1_555 1_555
Zn2G O2G 1_555 1_555
O1G Zn1G 1_555 1_555
O2G C7G 1_555 1_555
O3G C8G 1_555 1_555
O4G C8G 1_555 1_555
O5G C9G 1_555 1_555
O6G C9G 1_555 1_555
C1G C2G 1_555 1_555
C2G H1G 1_555 1_555
C3G C2G 1_555 1_555
C4G C3G 1_555 1_555
H2G C4G 1_555 1_555
C5G C4G 1_555 1_555
C6G C1G 1_555 1_555
H3G C6G 1_555 1_555
C7G O1G 1_555 1_555
C8G C3G 1_555 1_555
C9G C5G 1_555 1_555
Zn1J O9J 1_555 1_555
Zn2J O2J 1_555 1_555
O1J Zn1J 1_555 1_555
O2J C7J 1_555 1_555
O3J C8J 1_555 1_555
O4J C8J 1_555 1_555
O5J C9J 1_555 1_555
O6J C9J 1_555 1_555
C1J C2J 1_555 1_555
C2J H1J 1_555 1_555
C3J C2J 1_555 1_555
C4J C3J 1_555 1_555
H2J C4J 1_555 1_555
C5J C4J 1_555 1_555
C6J C1J 1_555 1_555
H3J C6J 1_555 1_555
C7J O1J 1_555 1_555
C8J C3J 1_555 1_555
C9J C5J 1_555 1_555
Zn1CA O8CA 1_555 1_555
Zn1EC O8EC 1_555 1_555
Zn1LF O6G 1_555 1_555
Zn1SF O6J 1_555 1_555
Zn1VF O6 1_555 1_555
Zn2CA O7CA 1_555 1_555
Zn2RA O3G 1_555 1_555
Zn2LB O3J 1_555 1_555
Zn2EC O7EC 1_555 1_555
Zn2FC O3 1_555 1_555
Zn2LF O5G 1_555 1_555
Zn2SF O5J 1_555 1_555
Zn2VF O5 1_555 1_555
O3RA Zn2G 1_555 1_555
O3LB Zn2J 1_555 1_555
O3FC Zn2 1_555 1_555
O5LF Zn2J 1_555 1_555
O5SF Zn2 1_555 1_555
O5VF Zn2G 1_555 1_555
O6LF Zn1J 1_555 1_555
O6SF Zn1 1_555 1_555
O6VF Zn1G 1_555 1_555
O7G Zn2G 1_555 1_555
O7J Zn2J 1_555 1_555
O8G Zn1G 1_555 1_555
O8J Zn1J 1_555 1_555
C5 C6 1_555 1_555
O8 C16 1_555 1_555
C10 C16 1_555 1_555
C14 C15 1_555 1_555
C19 C21 1_555 1_555
C14CA C15CA 1_555 1_555
C17CA C18CA 1_555 1_555
C13EC C17EC 1_555 1_555
C14EC C15EC 1_555 1_555
C17EC C18EC 1_555 1_555
C19J C20J 1_555 1_555
C1G C7G 1_555 1_555
C5G C6G 1_555 1_555
C1J C7J 1_555 1_555
C5J C6J 1_555 1_555

#END
