
#######################################################################
#
#                 Cambridge Crystallographic Data Centre
#                                CCDC 
#
#######################################################################
#
# If this CIF has been generated from an entry in the Cambridge 
# Structural Database, then it will include bibliographic, chemical, 
# crystal, experimental, refinement or atomic coordinate data resulting 
# from the CCDC's data processing and validation procedures.
#
#######################################################################

data_SIJGAU
_symmetry_cell_setting           monoclinic
_symmetry_space_group_name_H-M   'P 21/n'
_symmetry_Int_Tables_number      14
_space_group_name_Hall           '-P 2yn'
loop_
_symmetry_equiv_pos_site_id
_symmetry_equiv_pos_as_xyz
1 x,y,z
2 1/2-x,1/2+y,1/2-z
3 -x,-y,-z
4 1/2+x,1/2-y,1/2+z
_cell_length_a                   11.298(2)
_cell_length_b                   9.767(2)
_cell_length_c                   13.588(3)
_cell_angle_alpha                90.00
_cell_angle_beta                 100.09(3)
_cell_angle_gamma                90.00
_cell_volume                     1476.21
loop_
_atom_site_label
_atom_site_type_symbol
_atom_site_fract_x
_atom_site_fract_y
_atom_site_fract_z
Cu1 Cu 0.61699(2) 0.41612(2) 0.143156(18)
S1 S 0.61567(5) 0.28174(6) 0.32185(4)
O1 O 0.50462(14) 0.54209(16) 0.17964(11)
N1 N 0.72431(15) 0.27714(18) 0.09685(12)
N2 N 0.49349(15) 0.31719(17) 0.05024(11)
N3 N 0.75017(18) 0.0460(2) 0.31258(15)
C1 C 0.8407(2) 0.2582(3) 0.12765(18)
H1 H 0.8809 0.3142 0.1781
C2 C 0.9053(2) 0.1581(3) 0.0876(2)
H2 H 0.9867 0.1462 0.1124
C3 C 0.8493(2) 0.0777(3) 0.01215(19)
H3 H 0.8927 0.0123 -0.0162
C4 C 0.7251(2) 0.0938(2) -0.02313(16)
C5 C 0.6586(2) 0.0169(3) -0.10152(17)
H4 H 0.6964 -0.0503 -0.1334
C6 C 0.5387(2) 0.0413(3) -0.13054(16)
H5 H 0.4957 -0.0094 -0.1828
C7 C 0.4790(2) 0.1404(2) -0.08365(15)
H6 H 0.3973 0.1556 -0.1053
C8 C 0.54026(18) 0.2154(2) -0.00596(14)
C9 C 0.66546(18) 0.1944(2) 0.02321(13)
C10 C 0.37861(18) 0.3332(2) 0.04458(15)
H7 H 0.3285 0.2723 0.0043
C11 C 0.3230(2) 0.4357(2) 0.09454(15)
C12 C 0.1959(2) 0.4394(3) 0.07645(19)
H8 H 0.1538 0.3718 0.0366
C13 C 0.1335(2) 0.5383(4) 0.1153(2)
H9 H 0.0499 0.5385 0.1027
C14 C 0.1975(2) 0.6398(3) 0.17445(17)
H10 H 0.1557 0.7096 0.1999
C15 C 0.3203(2) 0.6388(3) 0.19582(16)
H11 H 0.3601 0.7070 0.2365
C16 C 0.3882(2) 0.5363(2) 0.15747(15)
C17 C 0.69404(17) 0.1433(2) 0.31571(14)
Cu1A Cu 0.88301(2) -0.08388(2) 0.356844(18)
N3A N 0.74983(18) 0.5460(2) 0.18742(15)
loop_
_geom_bond_atom_site_label_1
_geom_bond_atom_site_label_2
_geom_bond_site_symmetry_1
_geom_bond_site_symmetry_2
Cu1 S1 1_555 1_555
S1 C17 1_555 1_555
O1 Cu1 1_555 1_555
N1 Cu1 1_555 1_555
N2 Cu1 1_555 1_555
N3 C17 1_555 1_555
C1 N1 1_555 1_555
H1 C1 1_555 1_555
C2 C1 1_555 1_555
H2 C2 1_555 1_555
C3 C2 1_555 1_555
H3 C3 1_555 1_555
C4 C3 1_555 1_555
C5 C4 1_555 1_555
H4 C5 1_555 1_555
C6 C5 1_555 1_555
H5 C6 1_555 1_555
C7 C6 1_555 1_555
H6 C7 1_555 1_555
C8 N2 1_555 1_555
C9 N1 1_555 1_555
C10 N2 1_555 1_555
H7 C10 1_555 1_555
C11 C10 1_555 1_555
C12 C11 1_555 1_555
H8 C12 1_555 1_555
C13 C12 1_555 1_555
H9 C13 1_555 1_555
C14 C13 1_555 1_555
H10 C14 1_555 1_555
C15 C14 1_555 1_555
H11 C15 1_555 1_555
C16 O1 1_555 1_555
Cu1A N3 1_555 1_555
N3A Cu1 1_555 1_555
C4 C9 1_555 1_555
C7 C8 1_555 1_555
C8 C9 1_555 1_555
C11 C16 1_555 1_555
C15 C16 1_555 1_555

#END
