
#######################################################################
#
#                 Cambridge Crystallographic Data Centre
#                                CCDC 
#
#######################################################################
#
# If this CIF has been generated from an entry in the Cambridge 
# Structural Database, then it will include bibliographic, chemical, 
# crystal, experimental, refinement or atomic coordinate data resulting 
# from the CCDC's data processing and validation procedures.
#
#######################################################################

data_SIJHIE
_symmetry_cell_setting           monoclinic
_symmetry_space_group_name_H-M   'C 2/c'
_symmetry_Int_Tables_number      15
_space_group_name_Hall           '-C 2yn'
loop_
_symmetry_equiv_pos_site_id
_symmetry_equiv_pos_as_xyz
1 x,y,z
2 -x,y,1/2-z
3 1/2+x,1/2+y,z
4 1/2-x,1/2+y,1/2-z
5 -x,-y,-z
6 x,-y,1/2+z
7 1/2-x,1/2-y,-z
8 1/2+x,1/2-y,1/2+z
_cell_length_a                   20.048(4)
_cell_length_b                   12.245(2)
_cell_length_c                   29.217(6)
_cell_angle_alpha                90
_cell_angle_beta                 108.84(3)
_cell_angle_gamma                90
_cell_volume                     6788.15
loop_
_atom_site_label
_atom_site_type_symbol
_atom_site_fract_x
_atom_site_fract_y
_atom_site_fract_z
C1 C 0.1957(6) 0.4419(9) 0.1497(4)
C2 C 0.2112(6) 0.5508(10) 0.1370(4)
H1 H 0.2399 0.5951 0.1613
C3 C 0.1871(6) 0.5904(9) 0.0932(4)
H2 H 0.1631 0.5412 0.0693
C4 C 0.1929(6) 0.7020(10) 0.0769(4)
C5 C 0.2207(7) 0.7847(10) 0.1091(5)
H3 H 0.2379 0.7701 0.1421
C6 C 0.2230(7) 0.8915(11) 0.0921(5)
H4 H 0.2399 0.9463 0.1149
C7 C 0.1757(6) 0.8389(10) 0.0132(4)
C8 C 0.1542(8) 0.8700(12) -0.0351(5)
H5 H 0.1564 0.9429 -0.0434
C9 C 0.1295(9) 0.7913(13) -0.0708(5)
H6 H 0.1191 0.8097 -0.1032
C10 C 0.1202(8) 0.6845(12) -0.0574(5)
H7 H 0.0993 0.6339 -0.0815
C11 C 0.1408(7) 0.6516(11) -0.0104(5)
H8 H 0.1358 0.5789 -0.0028
C12 C 0.1695(6) 0.7278(9) 0.0266(4)
C13 C 0.1334(5) 0.1420(9) 0.2587(4)
C14 C 0.1177(6) 0.0933(11) 0.2951(4)
H9 H 0.1320 0.1253 0.3256
C15 C 0.0771(14) -0.012(2) 0.2871(10)
C16 C 0.0596(11) -0.078(2) 0.3269(8)
C17 C 0.1080(10) -0.0965(13) 0.3708(5)
H10 H 0.1503 -0.0588 0.3776
C18 C 0.1013(8) -0.1644(12) 0.4063(5)
H11 H 0.1375 -0.1767 0.4352
C19 C -0.0136(10) -0.1977(17) 0.3517(7)
C20 C -0.0786(9) -0.249(2) 0.3411(9)
H12 H -0.0855 -0.2926 0.3653
C21 C -0.1327(11) -0.243(2) 0.2992(8)
H13 H -0.1753 -0.2788 0.2942
C22 C -0.1199(11) -0.1784(19) 0.2646(10)
H14 H -0.1555 -0.1729 0.2349
C23 C -0.0585(10) -0.121(2) 0.2701(8)
C24 C -0.0040(9) -0.1356(16) 0.3140(7)
C25 C -0.2149(6) 0.6775(10) 0.1535(5)
H15 H -0.2293 0.7373 0.1330
C26 C -0.1541(6) 0.6231(9) 0.1544(5)
H16 H -0.1274 0.6467 0.1356
C27 C -0.2354(5) 0.5591(9) 0.2085(4)
H17 H -0.2632 0.5363 0.2268
C28 C 0.0721(8) 0.0469(11) 0.1078(5)
H18 H 0.0860 0.0123 0.1378
C29 C 0.0430(8) -0.0165(10) 0.0668(4)
H19 H 0.0407 -0.0920 0.0695
C30 C 0.0175(6) 0.0325(9) 0.0221(4)
C31 C 0.0246(8) 0.1433(11) 0.0208(4)
H20 H 0.0096 0.1806 -0.0085
C32 C 0.0543(8) 0.1991(11) 0.0635(5)
H21 H 0.0556 0.2749 0.0620
C33 C -0.0087(5) 0.3009(9) 0.1861(4)
H22 H -0.0081 0.2250 0.1876
C34 C -0.0675(6) 0.3549(9) 0.1881(4)
H23 H -0.1055 0.3166 0.1919
C35 C -0.0692(6) 0.4694(9) 0.1845(4)
C36 C -0.0100(6) 0.5217(10) 0.1800(5)
H24 H -0.0089 0.5974 0.1781
C37 C 0.0466(6) 0.4612(10) 0.1784(5)
H25 H 0.0852 0.4974 0.1746
C38 C -0.1334(6) 0.5309(10) 0.1848(4)
C39 C -0.1755(6) 0.4991(9) 0.2109(4)
H26 H -0.1641 0.4373 0.2304
Cd1 Cd 0.14573(4) 0.24911(8) 0.17651(3)
N1 N 0.2034(6) 0.9193(9) 0.0469(4)
N2 N 0.0362(9) -0.2126(15) 0.3954(6)
N3 N -0.2546(5) 0.6469(7) 0.1813(3)
N4 N 0.0811(5) 0.1529(8) 0.1067(3)
N5 N 0.0487(5) 0.3530(8) 0.1819(3)
O1 O 0.2118(4) 0.4152(6) 0.1943(3)
O2 O 0.1638(4) 0.3740(6) 0.1173(3)
O3 O 0.1024(4) 0.1088(6) 0.2153(3)
O4 O 0.1754(4) 0.2183(6) 0.2661(3)
C28D C -0.0721(8) -0.0469(11) -0.1078(5)
H18D H -0.0860 -0.0123 -0.1378
C29D C -0.0430(8) 0.0165(10) -0.0668(4)
H19D H -0.0407 0.0920 -0.0695
C30D C -0.0175(6) -0.0325(9) -0.0221(4)
C31D C -0.0246(8) -0.1433(11) -0.0208(4)
H20D H -0.0096 -0.1806 0.0085
C32D C -0.0543(8) -0.1991(11) -0.0635(5)
H21D H -0.0556 -0.2749 -0.0620
N4D N -0.0811(5) -0.1529(8) -0.1067(3)
C1D C -0.1957(6) -0.4419(9) -0.1497(4)
C2D C -0.2112(6) -0.5508(10) -0.1370(4)
H1D H -0.2399 -0.5951 -0.1613
C3D C -0.1871(6) -0.5904(9) -0.0932(4)
H2D H -0.1631 -0.5412 -0.0693
C4D C -0.1929(6) -0.7020(10) -0.0769(4)
C5D C -0.2207(7) -0.7847(10) -0.1091(5)
H3D H -0.2379 -0.7701 -0.1421
C6D C -0.2230(7) -0.8915(11) -0.0921(5)
H4D H -0.2399 -0.9463 -0.1149
C7D C -0.1757(6) -0.8389(10) -0.0132(4)
C8D C -0.1542(8) -0.8700(12) 0.0351(5)
H5D H -0.1564 -0.9429 0.0434
C9D C -0.1295(9) -0.7913(13) 0.0708(5)
H6D H -0.1191 -0.8097 0.1032
C10D C -0.1202(8) -0.6845(12) 0.0574(5)
H7D H -0.0993 -0.6339 0.0815
C11D C -0.1408(7) -0.6516(11) 0.0104(5)
H8D H -0.1358 -0.5789 0.0028
C12D C -0.1695(6) -0.7278(9) -0.0266(4)
C13D C -0.1334(5) -0.1420(9) -0.2587(4)
C14D C -0.1177(6) -0.0933(11) -0.2951(4)
H9D H -0.1320 -0.1253 -0.3256
C15D C -0.0771(14) 0.012(2) -0.2871(10)
C16D C -0.0596(11) 0.078(2) -0.3269(8)
C17D C -0.1080(10) 0.0965(13) -0.3708(5)
H10D H -0.1503 0.0588 -0.3776
C18D C -0.1013(8) 0.1644(12) -0.4063(5)
H11D H -0.1375 0.1767 -0.4352
C19D C 0.0136(10) 0.1977(17) -0.3517(7)
C20D C 0.0786(9) 0.249(2) -0.3411(9)
H12D H 0.0855 0.2926 -0.3653
C21D C 0.1327(11) 0.243(2) -0.2992(8)
H13D H 0.1753 0.2788 -0.2942
C22D C 0.1199(11) 0.1784(19) -0.2646(10)
H14D H 0.1555 0.1729 -0.2349
C23D C 0.0585(10) 0.121(2) -0.2701(8)
C24D C 0.0040(9) 0.1356(16) -0.3140(7)
C25D C 0.2149(6) -0.6775(10) -0.1535(5)
H15D H 0.2293 -0.7373 -0.1330
C26D C 0.1541(6) -0.6231(9) -0.1544(5)
H16D H 0.1274 -0.6467 -0.1356
C27D C 0.2354(5) -0.5591(9) -0.2085(4)
H17D H 0.2632 -0.5363 -0.2268
C33D C 0.0087(5) -0.3009(9) -0.1861(4)
H22D H 0.0081 -0.2250 -0.1876
C34D C 0.0675(6) -0.3549(9) -0.1881(4)
H23D H 0.1055 -0.3166 -0.1919
C35D C 0.0692(6) -0.4694(9) -0.1845(4)
C36D C 0.0100(6) -0.5217(10) -0.1800(5)
H24D H 0.0089 -0.5974 -0.1781
C37D C -0.0466(6) -0.4612(10) -0.1784(5)
H25D H -0.0852 -0.4974 -0.1746
C38D C 0.1334(6) -0.5309(10) -0.1848(4)
C39D C 0.1755(6) -0.4991(9) -0.2109(4)
H26D H 0.1641 -0.4373 -0.2304
Cd1D Cd -0.14573(4) -0.24911(8) -0.17651(3)
N1D N -0.2034(6) -0.9193(9) -0.0469(4)
N2D N -0.0362(9) 0.2126(15) -0.3954(6)
N3D N 0.2546(5) -0.6469(7) -0.1813(3)
N5D N -0.0487(5) -0.3530(8) -0.1819(3)
O1D O -0.2118(4) -0.4152(6) -0.1943(3)
O2D O -0.1638(4) -0.3740(6) -0.1173(3)
O3D O -0.1024(4) -0.1088(6) -0.2153(3)
O4D O -0.1754(4) -0.2183(6) -0.2661(3)
Cd1B Cd -0.35427(4) 0.74911(8) 0.17651(3)
Cd1F Cd 0.35427(4) -0.74911(8) -0.17651(3)
N3B N 0.2454(5) 0.1469(7) 0.1813(3)
N3F N -0.2454(5) -0.1469(7) -0.1813(3)
O5 O 0.2184(12) 0.1262(12) 0.0117(8)
H27 H 0.2173 0.0607 0.0211
H28 H 0.2507 0.1316 -0.0011
O6 O 0.1857(11) 0.3344(13) 0.0283(6)
H29 H 0.1799 0.3133 0.0545
H30 H 0.1530 0.3095 0.0041
loop_
_geom_bond_atom_site_label_1
_geom_bond_atom_site_label_2
_geom_bond_site_symmetry_1
_geom_bond_site_symmetry_2
C1 C2 1_555 1_555
C2 H1 1_555 1_555
C3 C2 1_555 1_555
H2 C3 1_555 1_555
C4 C3 1_555 1_555
C5 C4 1_555 1_555
H3 C5 1_555 1_555
C6 C5 1_555 1_555
H4 C6 1_555 1_555
C7 C8 1_555 1_555
C8 H5 1_555 1_555
C9 C8 1_555 1_555
H6 C9 1_555 1_555
C10 C9 1_555 1_555
H7 C10 1_555 1_555
C11 C10 1_555 1_555
H8 C11 1_555 1_555
C12 C4 1_555 1_555
C13 C14 1_555 1_555
C14 H9 1_555 1_555
C15 C14 1_555 1_555
C16 C15 1_555 1_555
C17 C16 1_555 1_555
H10 C17 1_555 1_555
C18 C17 1_555 1_555
H11 C18 1_555 1_555
C19 C20 1_555 1_555
C20 H12 1_555 1_555
C21 C20 1_555 1_555
H13 C21 1_555 1_555
C22 C21 1_555 1_555
H14 C22 1_555 1_555
C23 C22 1_555 1_555
C24 C16 1_555 1_555
C25 H15 1_555 1_555
C26 C25 1_555 1_555
H16 C26 1_555 1_555
C27 H17 1_555 1_555
C28 H18 1_555 1_555
C29 C28 1_555 1_555
H19 C29 1_555 1_555
C30 C29 1_555 1_555
C31 C30 1_555 1_555
H20 C31 1_555 1_555
C32 C31 1_555 1_555
H21 C32 1_555 1_555
C33 H22 1_555 1_555
C34 C33 1_555 1_555
H23 C34 1_555 1_555
C35 C34 1_555 1_555
C36 C35 1_555 1_555
H24 C36 1_555 1_555
C37 C36 1_555 1_555
H25 C37 1_555 1_555
C38 C26 1_555 1_555
C39 C27 1_555 1_555
H26 C39 1_555 1_555
Cd1 N4 1_555 1_555
N1 C6 1_555 1_555
N2 C18 1_555 1_555
N3 C25 1_555 1_555
N4 C28 1_555 1_555
N5 C33 1_555 1_555
O1 C1 1_555 1_555
O2 C1 1_555 1_555
O3 C13 1_555 1_555
O4 C13 1_555 1_555
O5 H27 1_555 1_555
H28 O5 1_555 1_555
O6 H29 1_555 1_555
H30 O6 1_555 1_555
C28D H18D 1_555 1_555
C29D C28D 1_555 1_555
H19D C29D 1_555 1_555
C30D C30 1_555 1_555
C31D C30D 1_555 1_555
H20D C31D 1_555 1_555
C32D C31D 1_555 1_555
H21D C32D 1_555 1_555
N4D C28D 1_555 1_555
C1D C2D 1_555 1_555
C2D H1D 1_555 1_555
C3D C2D 1_555 1_555
H2D C3D 1_555 1_555
C4D C3D 1_555 1_555
C5D C4D 1_555 1_555
H3D C5D 1_555 1_555
C6D C5D 1_555 1_555
H4D C6D 1_555 1_555
C7D C8D 1_555 1_555
C8D H5D 1_555 1_555
C9D C8D 1_555 1_555
H6D C9D 1_555 1_555
C10D C9D 1_555 1_555
H7D C10D 1_555 1_555
C11D C10D 1_555 1_555
H8D C11D 1_555 1_555
C12D C4D 1_555 1_555
C13D C14D 1_555 1_555
C14D H9D 1_555 1_555
C15D C14D 1_555 1_555
C16D C15D 1_555 1_555
C17D C16D 1_555 1_555
H10D C17D 1_555 1_555
C18D C17D 1_555 1_555
H11D C18D 1_555 1_555
C19D C20D 1_555 1_555
C20D H12D 1_555 1_555
C21D C20D 1_555 1_555
H13D C21D 1_555 1_555
C22D C21D 1_555 1_555
H14D C22D 1_555 1_555
C23D C22D 1_555 1_555
C24D C16D 1_555 1_555
C25D H15D 1_555 1_555
C26D C25D 1_555 1_555
H16D C26D 1_555 1_555
C27D H17D 1_555 1_555
C33D H22D 1_555 1_555
C34D C33D 1_555 1_555
H23D C34D 1_555 1_555
C35D C34D 1_555 1_555
C36D C35D 1_555 1_555
H24D C36D 1_555 1_555
C37D C36D 1_555 1_555
H25D C37D 1_555 1_555
C38D C26D 1_555 1_555
C39D C27D 1_555 1_555
H26D C39D 1_555 1_555
Cd1D N4D 1_555 1_555
N1D C6D 1_555 1_555
N2D C18D 1_555 1_555
N3D C25D 1_555 1_555
N5D C33D 1_555 1_555
O1D C1D 1_555 1_555
O2D C1D 1_555 1_555
O3D C13D 1_555 1_555
O4D C13D 1_555 1_555
Cd1B N3 1_555 1_555
Cd1F N3D 1_555 1_555
N3B Cd1 1_555 1_555
N3F Cd1D 1_555 1_555
C7 C12 1_555 1_555
C7 N1 1_555 1_555
C11 C12 1_555 1_555
C19 C24 1_555 1_555
C19 N2 1_555 1_555
C23 C24 1_555 1_555
C27 N3 1_555 1_555
C32 N4 1_555 1_555
C35 C38 1_555 1_555
C37 N5 1_555 1_555
C38 C39 1_555 1_555
Cd1 N5 1_555 1_555
Cd1 O1 1_555 1_555
Cd1 O2 1_555 1_555
Cd1 O3 1_555 1_555
Cd1 O4 1_555 1_555
C29D C30D 1_555 1_555
C32D N4D 1_555 1_555
C7D C12D 1_555 1_555
C7D N1D 1_555 1_555
C11D C12D 1_555 1_555
C19D C24D 1_555 1_555
C19D N2D 1_555 1_555
C23D C24D 1_555 1_555
C27D N3D 1_555 1_555
C35D C38D 1_555 1_555
C37D N5D 1_555 1_555
C38D C39D 1_555 1_555
Cd1D N5D 1_555 1_555
Cd1D O1D 1_555 1_555
Cd1D O2D 1_555 1_555
Cd1D O3D 1_555 1_555
Cd1D O4D 1_555 1_555

#END
