
#######################################################################
#
#                 Cambridge Crystallographic Data Centre
#                                CCDC 
#
#######################################################################
#
# If this CIF has been generated from an entry in the Cambridge 
# Structural Database, then it will include bibliographic, chemical, 
# crystal, experimental, refinement or atomic coordinate data resulting 
# from the CCDC's data processing and validation procedures.
#
#######################################################################

data_SIJHAW
_symmetry_cell_setting           monoclinic
_symmetry_space_group_name_H-M   'C 2/c'
_symmetry_Int_Tables_number      15
_space_group_name_Hall           '-C 2yn'
loop_
_symmetry_equiv_pos_site_id
_symmetry_equiv_pos_as_xyz
1 x,y,z
2 -x,y,1/2-z
3 1/2+x,1/2+y,z
4 1/2-x,1/2+y,1/2-z
5 -x,-y,-z
6 x,-y,1/2+z
7 1/2-x,1/2-y,-z
8 1/2+x,1/2-y,1/2+z
_cell_length_a                   24.217(13)
_cell_length_b                   11.868(7)
_cell_length_c                   10.137(6)
_cell_angle_alpha                90
_cell_angle_beta                 102.156(8)
_cell_angle_gamma                90
_cell_volume                     2848.12
loop_
_atom_site_label
_atom_site_type_symbol
_atom_site_fract_x
_atom_site_fract_y
_atom_site_fract_z
Cd1 Cd 0.0000 0.03011(3) 0.7500
O1 O 0.07910(12) 0.0460(3) 0.6668(3)
O2 O 0.05890(12) -0.0449(2) 0.4674(3)
C1 C 0.09137(16) 0.0083(3) 0.5592(4)
C2 C 0.17552(17) -0.0158(3) 0.4550(4)
H1 H 0.1527 -0.0580 0.3875
C3 C 0.0000 0.4670(4) 0.7500
N1 N 0.0000 0.2305(4) 0.7500
N2 N 0.0000 0.8306(4) 0.7500
C4 C 0.15172(18) 0.0290(3) 0.5493(4)
H2 H 0.1736 0.0760 0.6130
N3 N 0.35111(16) 0.0268(3) 0.4328(5)
C5 C 0.0000 0.5932(4) 0.7500
C6 C 0.23563(17) -0.0032(4) 0.4499(4)
C7 C 0.26472(16) -0.0900(4) 0.3926(4)
C8 C 0.26612(17) 0.0915(4) 0.4991(4)
H3 H 0.2492 0.1481 0.5402
C9 C 0.24001(18) -0.1962(3) 0.3475(4)
H4 H 0.2022 -0.2094 0.3480
C10 C 0.02007(18) 0.6548(4) 0.8682(4)
H5 H 0.0347 0.6177 0.9488
C11 C 0.01796(19) 0.7710(3) 0.8643(4)
H6 H 0.0295 0.8102 0.9448
C12 C 0.32229(17) -0.0713(4) 0.3880(4)
C13 C 0.32314(18) 0.1029(4) 0.4872(5)
H7 H 0.3421 0.1686 0.5200
C14 C 0.3285(2) -0.2598(5) 0.2998(5)
H8 H 0.3493 -0.3169 0.2707
C15 C 0.2713(2) -0.2788(4) 0.3037(5)
H9 H 0.2548 -0.3480 0.2763
C16 C 0.35339(19) -0.1591(5) 0.3379(5)
H10 H 0.3907 -0.1468 0.3317
C17 C 0.04499(19) 0.4061(3) 0.8227(5)
H11 H 0.0764 0.4431 0.8725
C18 C 0.04288(19) 0.2886(3) 0.8208(5)
H12 H 0.0731 0.2490 0.8718
C10A C -0.02007(18) 0.6548(4) 0.6318(4)
H5A H -0.0347 0.6177 0.5512
C11A C -0.01796(19) 0.7710(3) 0.6357(4)
H6A H -0.0295 0.8102 0.5552
C17A C -0.04499(19) 0.4061(3) 0.6773(5)
H11A H -0.0764 0.4431 0.6275
C18A C -0.04288(19) 0.2886(3) 0.6792(5)
H12A H -0.0731 0.2490 0.6282
O1A O -0.07910(12) 0.0460(3) 0.8332(3)
O2A O -0.05890(12) -0.0449(2) 1.0326(3)
C1A C -0.09137(16) 0.0083(3) 0.9408(4)
C2A C -0.17552(17) -0.0158(3) 1.0450(4)
H1A H -0.1527 -0.0580 1.1125
C4A C -0.15172(18) 0.0290(3) 0.9507(4)
H2A H -0.1736 0.0760 0.8870
N3A N -0.35111(16) 0.0268(3) 1.0672(5)
C6A C -0.23563(17) -0.0032(4) 1.0501(4)
C7A C -0.26472(16) -0.0900(4) 1.1074(4)
C8A C -0.26612(17) 0.0915(4) 1.0009(4)
H3A H -0.2492 0.1481 0.9598
C9A C -0.24001(18) -0.1962(3) 1.1525(4)
H4A H -0.2022 -0.2094 1.1520
C12A C -0.32229(17) -0.0713(4) 1.1120(4)
C13A C -0.32314(18) 0.1029(4) 1.0128(5)
H7A H -0.3421 0.1686 0.9800
C14A C -0.3285(2) -0.2598(5) 1.2002(5)
H8A H -0.3493 -0.3169 1.2293
C15A C -0.2713(2) -0.2788(4) 1.1963(5)
H9A H -0.2548 -0.3480 1.2237
C16A C -0.35339(19) -0.1591(5) 1.1621(5)
H10A H -0.3907 -0.1468 1.1683
Cd1_2 Cd 0.0000 1.03011(3) 0.7500
Cd1D Cd 0.0000 -0.03011(3) 0.2500
Cd1D_2 Cd 0.0000 -0.03011(3) 1.2500
O2D O -0.05890(12) 0.0449(2) 0.5326(3)
O2E O 0.05890(12) 0.0449(2) 0.9674(3)
N2_2 N 0.0000 -0.1694(4) 0.7500
loop_
_geom_bond_atom_site_label_1
_geom_bond_atom_site_label_2
_geom_bond_site_symmetry_1
_geom_bond_site_symmetry_2
Cd1 O1 1_555 1_555
O1 C1 1_555 1_555
O2 C1 1_555 1_555
C1 C4 1_555 1_555
C2 H1 1_555 1_555
C3 C5 1_555 1_555
N1 Cd1 1_555 1_555
N2 C11 1_555 1_555
C4 C2 1_555 1_555
H2 C4 1_555 1_555
N3 C12 1_555 1_555
C5 C10 1_555 1_555
C6 C2 1_555 1_555
C7 C6 1_555 1_555
C8 C6 1_555 1_555
H3 C8 1_555 1_555
C9 C7 1_555 1_555
H4 C9 1_555 1_555
C10 H5 1_555 1_555
C11 C10 1_555 1_555
H6 C11 1_555 1_555
C12 C7 1_555 1_555
C13 N3 1_555 1_555
H7 C13 1_555 1_555
C14 H8 1_555 1_555
C15 C9 1_555 1_555
H9 C15 1_555 1_555
C16 C12 1_555 1_555
H10 C16 1_555 1_555
C17 C3 1_555 1_555
H11 C17 1_555 1_555
C18 N1 1_555 1_555
H12 C18 1_555 1_555
C10A C5 1_555 1_555
H5A C10A 1_555 1_555
C11A N2 1_555 1_555
H6A C11A 1_555 1_555
C17A C3 1_555 1_555
H11A C17A 1_555 1_555
C18A N1 1_555 1_555
H12A C18A 1_555 1_555
O1A Cd1 1_555 1_555
O2A C1A 1_555 1_555
C1A O1A 1_555 1_555
C2A H1A 1_555 1_555
C4A C1A 1_555 1_555
H2A C4A 1_555 1_555
N3A C12A 1_555 1_555
C6A C2A 1_555 1_555
C7A C6A 1_555 1_555
C8A C6A 1_555 1_555
H3A C8A 1_555 1_555
C9A C7A 1_555 1_555
H4A C9A 1_555 1_555
C12A C7A 1_555 1_555
C13A N3A 1_555 1_555
H7A C13A 1_555 1_555
C14A H8A 1_555 1_555
C15A C9A 1_555 1_555
H9A C15A 1_555 1_555
C16A C12A 1_555 1_555
H10A C16A 1_555 1_555
Cd1_2 N2 1_555 1_555
Cd1D O2 1_555 1_555
Cd1D_2 O2A 1_555 1_555
O2D Cd1 1_555 1_555
O2E Cd1 1_555 1_555
N2_2 Cd1 1_555 1_555
C8 C13 1_555 1_555
C14 C15 1_555 1_555
C14 C16 1_555 1_555
C17 C18 1_555 1_555
C10A C11A 1_555 1_555
C17A C18A 1_555 1_555
C2A C4A 1_555 1_555
C8A C13A 1_555 1_555
C14A C15A 1_555 1_555
C14A C16A 1_555 1_555

#END
