
#######################################################################
#
#                 Cambridge Crystallographic Data Centre
#                                CCDC 
#
#######################################################################
#
# If this CIF has been generated from an entry in the Cambridge 
# Structural Database, then it will include bibliographic, chemical, 
# crystal, experimental, refinement or atomic coordinate data resulting 
# from the CCDC's data processing and validation procedures.
#
#######################################################################

data_SIJKOM
_symmetry_cell_setting           monoclinic
_symmetry_space_group_name_H-M   'C 2/c'
_symmetry_Int_Tables_number      15
_space_group_name_Hall           '-C 2yn'
loop_
_symmetry_equiv_pos_site_id
_symmetry_equiv_pos_as_xyz
1 x,y,z
2 1/2+x,1/2+y,z
3 -x,y,1/2-z
4 1/2-x,1/2+y,1/2-z
5 -x,-y,-z
6 1/2-x,1/2-y,-z
7 x,-y,1/2+z
8 1/2+x,1/2-y,1/2+z
_cell_length_a                   18.694(4)
_cell_length_b                   12.899(4)
_cell_length_c                   12.535(3)
_cell_angle_alpha                90
_cell_angle_beta                 108.991(7)
_cell_angle_gamma                90
_cell_volume                     2858.09
loop_
_atom_site_label
_atom_site_type_symbol
_atom_site_fract_x
_atom_site_fract_y
_atom_site_fract_z
C1 C 0.4183(2) 0.6753(3) 0.9421(4)
C2 C 0.4823(2) 0.6846(3) 1.0399(4)
H1 H 0.4783 0.7173 1.1038
C3 C 0.5512(2) 0.6449(3) 1.0404(3)
C4 C 0.5566(2) 0.5950(3) 0.9474(3)
H2 H 0.6033 0.5682 0.9495
C5 C 0.4947(2) 0.5824(3) 0.8488(3)
C6 C 0.4271(2) 0.6253(3) 0.8494(3)
H3 H 0.3854 0.6204 0.7842
C7 C 0.3444(2) 0.7181(3) 0.9418(3)
C8 C 0.6194(2) 0.6540(3) 1.1454(3)
C9 C 0.5000 0.5192(5) 0.7500
H4 H 0.4558 0.4747 0.7240
H5 H 0.5442 0.4747 0.7760
C10 C 0.2570(3) 1.0384(4) 0.8563(4)
H6 H 0.2414 1.0454 0.7782
C11 C 0.2904(2) 1.1113(3) 0.9306(4)
H7 H 0.3011 1.1784 0.9131
C12 C 0.2803(2) 0.9786(3) 1.0206(4)
H8 H 0.2836 0.9352 1.0812
C13 C 0.3377(2) 1.1288(4) 1.1369(3)
H9 H 0.3113 1.1081 1.1885
H10 H 0.3289 1.2023 1.1225
C14 C 0.4227(2) 1.1107(4) 1.1940(3)
C15 C 0.4491(2) 1.1075(3) 1.3085(4)
H11 H 0.4158 1.1048 1.3497
C16 C 0.4723(3) 1.1085(4) 1.1363(5)
H12 H 0.4540 1.1077 1.0579
N1 N 0.24952(16) 0.9503(2) 0.9145(3)
N2 N 0.3057(2) 1.0734(3) 1.0324(3)
O1 O 0.29119(16) 0.7225(2) 0.8483(2)
O2 O 0.33679(15) 0.7465(2) 1.0327(2)
O3 O 0.61138(18) 0.7015(2) 1.2278(2)
O4 O 0.68018(16) 0.6150(2) 1.1466(3)
Zn1 Zn 0.20589(3) 0.81226(4) 0.85361(4)
C1B C 0.5817(2) 0.6753(3) 0.5579(4)
C2B C 0.5177(2) 0.6846(3) 0.4601(4)
H1B H 0.5217 0.7173 0.3962
C3B C 0.4488(2) 0.6449(3) 0.4596(3)
C4B C 0.4434(2) 0.5950(3) 0.5526(3)
H2B H 0.3967 0.5682 0.5505
C5B C 0.5053(2) 0.5824(3) 0.6512(3)
C6B C 0.5729(2) 0.6253(3) 0.6506(3)
H3B H 0.6146 0.6204 0.7158
C7B C 0.6556(2) 0.7181(3) 0.5582(3)
C8B C 0.3806(2) 0.6540(3) 0.3546(3)
C10B C 0.7430(3) 1.0384(4) 1.6437(4)
H6B H 0.7586 1.0454 1.7218
C11B C 0.7096(2) 1.1113(3) 1.5694(4)
H7B H 0.6989 1.1784 1.5869
C12B C 0.7197(2) 0.9786(3) 1.4794(4)
H8B H 0.7164 0.9352 1.4188
C13B C 0.6623(2) 1.1288(4) 1.3631(3)
H9B H 0.6887 1.1081 1.3115
H10B H 0.6711 1.2023 1.3775
C14B C 0.5773(2) 1.1107(4) 1.3060(3)
C15B C 0.5509(2) 1.1075(3) 1.1915(4)
H11B H 0.5842 1.1048 1.1503
C16B C 0.5277(3) 1.1085(4) 1.3637(5)
H12B H 0.5460 1.1077 1.4421
N1B N 0.75048(16) 0.9503(2) 1.5855(3)
N2B N 0.6943(2) 1.0734(3) 1.4676(3)
O1B O 0.70881(16) 0.7225(2) 0.6517(2)
O1B_2 O 0.70881(16) 0.7225(2) 1.6517(2)
O2B O 0.66321(15) 0.7465(2) 0.4673(2)
O2E O 0.16321(15) 0.7535(2) 0.9673(2)
O2G O 0.83679(15) 0.7535(2) 1.5327(2)
O3B O 0.38862(18) 0.7015(2) 0.2722(2)
O3G O 0.11138(18) 0.7985(2) 0.7278(2)
O3E O 0.88862(18) 0.7985(2) 1.7722(2)
O4B O 0.31982(16) 0.6150(2) 0.3534(3)
Zn1B Zn 0.79411(3) 0.81226(4) 1.64639(4)
Zn1E Zn 0.29411(3) 0.68774(4) 1.14639(4)
Zn1G Zn 0.70589(3) 0.68774(4) 1.35361(4)
Zn1B_2 Zn 0.79411(3) 0.81226(4) 0.64639(4)
Zn1G_2 Zn 0.70589(3) 0.68774(4) 0.35361(4)
Zn1E_2 Zn 0.29411(3) 0.68774(4) 0.14639(4)
O5 O 0.5998(3) 0.8795(5) 0.2502(5)
H13 H 0.6041 0.8146 0.2422
H14 H 0.5613 0.9019 0.1981
loop_
_geom_bond_atom_site_label_1
_geom_bond_atom_site_label_2
_geom_bond_site_symmetry_1
_geom_bond_site_symmetry_2
C1 C2 1_555 1_555
C2 H1 1_555 1_555
C3 C2 1_555 1_555
C4 C3 1_555 1_555
H2 C4 1_555 1_555
C5 C4 1_555 1_555
C6 C1 1_555 1_555
H3 C6 1_555 1_555
C7 C1 1_555 1_555
C8 C3 1_555 1_555
C9 C5 1_555 1_555
H4 C9 1_555 1_555
H5 C9 1_555 1_555
C10 H6 1_555 1_555
C11 C10 1_555 1_555
H7 C11 1_555 1_555
C12 H8 1_555 1_555
C13 H9 1_555 1_555
H10 C13 1_555 1_555
C14 C13 1_555 1_555
C15 C14 1_555 1_555
H11 C15 1_555 1_555
C16 C14 1_555 1_555
H12 C16 1_555 1_555
N1 C10 1_555 1_555
N2 C11 1_555 1_555
O1 C7 1_555 1_555
O2 C7 1_555 1_555
O3 C8 1_555 1_555
O4 C8 1_555 1_555
O5 H13 1_555 1_555
H14 O5 1_555 1_555
Zn1 N1 1_555 1_555
C1B C2B 1_555 1_555
C2B H1B 1_555 1_555
C3B C2B 1_555 1_555
C4B C3B 1_555 1_555
H2B C4B 1_555 1_555
C5B C9 1_555 1_555
C6B C1B 1_555 1_555
H3B C6B 1_555 1_555
C7B C1B 1_555 1_555
C8B C3B 1_555 1_555
C10B H6B 1_555 1_555
C11B C10B 1_555 1_555
H7B C11B 1_555 1_555
C12B H8B 1_555 1_555
C13B H9B 1_555 1_555
H10B C13B 1_555 1_555
C14B C13B 1_555 1_555
C15B C16 1_555 1_555
H11B C15B 1_555 1_555
C16B C15 1_555 1_555
H12B C16B 1_555 1_555
N1B C10B 1_555 1_555
N2B C11B 1_555 1_555
O1B C7B 1_555 1_555
O1B_2 Zn1B 1_555 1_555
O2B C7B 1_555 1_555
O2E Zn1 1_555 1_555
O2G Zn1B 1_555 1_555
O3B C8B 1_555 1_555
O3G Zn1 1_555 1_555
O3E Zn1B 1_555 1_555
O4B C8B 1_555 1_555
Zn1B N1B 1_555 1_555
Zn1E O2 1_555 1_555
Zn1G O3 1_555 1_555
Zn1B_2 O1B 1_555 1_555
Zn1G_2 O2B 1_555 1_555
Zn1E_2 O3B 1_555 1_555
C5 C6 1_555 1_555
C12 N1 1_555 1_555
C12 N2 1_555 1_555
C13 N2 1_555 1_555
O1 Zn1 1_555 1_555
C4B C5B 1_555 1_555
C5B C6B 1_555 1_555
C12B N1B 1_555 1_555
C12B N2B 1_555 1_555
C13B N2B 1_555 1_555
C14B C15B 1_555 1_555
C14B C16B 1_555 1_555

#END
