
#######################################################################
#
#                 Cambridge Crystallographic Data Centre
#                                CCDC 
#
#######################################################################
#
# If this CIF has been generated from an entry in the Cambridge 
# Structural Database, then it will include bibliographic, chemical, 
# crystal, experimental, refinement or atomic coordinate data resulting 
# from the CCDC's data processing and validation procedures.
#
#######################################################################

data_SIJKAY
_symmetry_cell_setting           triclinic
_symmetry_space_group_name_H-M   'P -1'
_symmetry_Int_Tables_number      2
_space_group_name_Hall           '-P 1'
loop_
_symmetry_equiv_pos_site_id
_symmetry_equiv_pos_as_xyz
1 x,y,z
2 -x,-y,-z
_cell_length_a                   7.6523(8)
_cell_length_b                   9.5220(10)
_cell_length_c                   10.7629(8)
_cell_angle_alpha                112.019(6)
_cell_angle_beta                 92.828(7)
_cell_angle_gamma                100.950(9)
_cell_volume                     707.512
loop_
_atom_site_label
_atom_site_type_symbol
_atom_site_fract_x
_atom_site_fract_y
_atom_site_fract_z
Co1 Co 0.0000 0.5000 0.5000
C1 C -0.0760(3) 0.9789(2) 0.87213(19)
C2 C -0.0430(3) 0.8513(2) 0.89554(19)
C3 C -0.0315(3) 1.1257(3) 0.9760(2)
C4 C -0.1691(3) 0.9575(3) 0.7385(2)
C5 C -0.0729(3) 0.6917(2) 0.78263(19)
C6 C 0.3733(3) 0.5956(3) 0.7336(2)
C7 C 0.1786(3) 0.4491(3) 0.8232(2)
C8 C 0.4610(3) 0.6879(3) 0.8602(2)
C9 C 0.2647(3) 0.5389(3) 0.9511(2)
C10 C 0.4077(3) 0.6641(2) 0.9741(2)
C11 C 0.4985(3) 0.7693(2) 1.1112(2)
C12 C 0.6017(3) 0.9160(3) 1.1357(2)
C13 C 0.4869(3) 0.7284(3) 1.2220(2)
C14 C 0.6836(3) 1.0146(3) 1.2623(2)
C15 C 0.5713(3) 0.8284(3) 1.3479(2)
N1 N 0.2306(2) 0.4796(2) 0.71676(17)
N2 N 0.6661(2) 0.9705(2) 1.36657(17)
O1 O -0.0894(3) 1.0596(2) 0.69271(18)
O2 O -0.3042(2) 0.8596(2) 0.68352(16)
O3 O 0.00634(19) 0.68811(16) 0.68194(13)
O4 O -0.1658(2) 0.57941(17) 0.79856(14)
O5 O 0.1428(2) 0.39271(17) 0.59438(14)
O6 O 0.7409(2) 1.07183(18) 1.48892(15)
O7 O -0.2368(2) 0.3751(2) 0.53651(17)
H1 H -0.055(3) 1.213(3) 0.959(2)
H2 H 0.427(3) 0.633(3) 1.213(2)
H3 H 0.618(3) 0.954(3) 1.069(2)
H4 H 0.403(3) 0.611(3) 0.654(3)
H5 H 0.558(3) 0.765(3) 0.866(2)
H6 H 0.569(3) 0.805(3) 1.423(2)
H7 H 0.757(3) 1.109(3) 1.282(2)
H8 H 0.225(3) 0.515(3) 1.021(2)
H9 H 0.077(3) 0.367(3) 0.802(2)
H10 H -0.232(4) 0.280(4) 0.521(3)
H11 H -0.229(4) 0.423(4) 0.617(3)
H12 H -0.149(5) 1.047(4) 0.622(4)
Co1_2 Co 0.0000 1.5000 1.5000
C1A C 0.0760(3) 1.0211(2) 1.12787(19)
C2A C 0.0430(3) 1.1487(2) 1.10446(19)
C3A C 0.0315(3) 0.8743(3) 1.0240(2)
C4A C 0.1691(3) 1.0425(3) 1.2615(2)
C5A C 0.0729(3) 1.3083(2) 1.21737(19)
C6A C -0.3733(3) 0.4044(3) 0.2664(2)
C7A C -0.1786(3) 0.5509(3) 0.1768(2)
C8A C -0.4610(3) 0.3121(3) 0.1398(2)
C9A C -0.2647(3) 0.4611(3) 0.0489(2)
C10A C -0.4077(3) 0.3359(2) 0.0259(2)
C11A C -0.4985(3) 0.2307(2) -0.1112(2)
C12A C -0.6017(3) 0.0840(3) -0.1357(2)
C13A C -0.4869(3) 0.2716(3) -0.2220(2)
C14A C -0.6836(3) -0.0146(3) -0.2623(2)
C15A C -0.5713(3) 0.1716(3) -0.3479(2)
N1A N -0.2306(2) 0.5204(2) 0.28324(17)
N2A N -0.6661(2) 0.0295(2) -0.36657(17)
O1A O 0.0894(3) 0.9404(2) 1.30729(18)
O2A O 0.3042(2) 1.1404(2) 1.31648(16)
O3A O -0.00634(19) 1.31189(16) 1.31806(13)
O3A_2 O -0.00634(19) 0.31189(16) 0.31806(13)
O4A O 0.1658(2) 1.42059(17) 1.20144(14)
O5A O -0.1428(2) 0.60729(17) 0.40562(14)
O6A O -0.7409(2) -0.07183(18) -0.48892(15)
O7A O 0.2368(2) 0.6249(2) 0.46349(17)
H1A H 0.055(3) 0.787(3) 1.041(2)
H2A H -0.427(3) 0.367(3) -0.213(2)
H3A H -0.618(3) 0.046(3) -0.069(2)
H4A H -0.403(3) 0.389(3) 0.346(3)
H5A H -0.558(3) 0.235(3) 0.134(2)
H6A H -0.569(3) 0.195(3) -0.423(2)
H7A H -0.757(3) -0.109(3) -0.282(2)
H8A H -0.225(3) 0.485(3) -0.021(2)
H9A H -0.077(3) 0.633(3) 0.198(2)
H10A H 0.232(4) 0.720(4) 0.479(3)
H11A H 0.229(4) 0.577(4) 0.383(3)
H12A H 0.149(5) 0.953(4) 1.378(4)
loop_
_geom_bond_atom_site_label_1
_geom_bond_atom_site_label_2
_geom_bond_site_symmetry_1
_geom_bond_site_symmetry_2
Co1 O3 1_555 1_555
C1 C2 1_555 1_555
C2 C5 1_555 1_555
C3 C1 1_555 1_555
C4 C1 1_555 1_555
C5 O3 1_555 1_555
C6 C8 1_555 1_555
C7 C9 1_555 1_555
C8 C10 1_555 1_555
C9 C10 1_555 1_555
C10 C11 1_555 1_555
C11 C12 1_555 1_555
C12 C14 1_555 1_555
C13 C11 1_555 1_555
C14 N2 1_555 1_555
C15 C13 1_555 1_555
N1 C6 1_555 1_555
N2 C15 1_555 1_555
O1 C4 1_555 1_555
O2 C4 1_555 1_555
O4 C5 1_555 1_555
O5 Co1 1_555 1_555
O6 N2 1_555 1_555
O7 Co1 1_555 1_555
H1 C3 1_555 1_555
H2 C13 1_555 1_555
H3 C12 1_555 1_555
H4 C6 1_555 1_555
H5 C8 1_555 1_555
H6 C15 1_555 1_555
H7 C14 1_555 1_555
H8 C9 1_555 1_555
H9 C7 1_555 1_555
H10 O7 1_555 1_555
H11 O7 1_555 1_555
H12 O1 1_555 1_555
Co1_2 O3A 1_555 1_555
C1A C2A 1_555 1_555
C2A C3 1_555 1_555
C3A C2 1_555 1_555
C4A C1A 1_555 1_555
C5A C2A 1_555 1_555
C6A C8A 1_555 1_555
C7A C9A 1_555 1_555
C8A C10A 1_555 1_555
C9A C10A 1_555 1_555
C10A C11A 1_555 1_555
C11A C12A 1_555 1_555
C12A C14A 1_555 1_555
C13A C11A 1_555 1_555
C14A N2A 1_555 1_555
C15A C13A 1_555 1_555
N1A C6A 1_555 1_555
N2A C15A 1_555 1_555
O1A C4A 1_555 1_555
O2A C4A 1_555 1_555
O3A C5A 1_555 1_555
O3A_2 Co1 1_555 1_555
O4A C5A 1_555 1_555
O5A Co1 1_555 1_555
O6A N2A 1_555 1_555
O7A Co1 1_555 1_555
H1A C3A 1_555 1_555
H2A C13A 1_555 1_555
H3A C12A 1_555 1_555
H4A C6A 1_555 1_555
H5A C8A 1_555 1_555
H6A C15A 1_555 1_555
H7A C14A 1_555 1_555
H8A C9A 1_555 1_555
H9A C7A 1_555 1_555
H10A O7A 1_555 1_555
H11A O7A 1_555 1_555
H12A O1A 1_555 1_555
C7 N1 1_555 1_555
N1 O5 1_555 1_555
C1A C3A 1_555 1_555
C7A N1A 1_555 1_555
N1A O5A 1_555 1_555

#END
