
#######################################################################
#
#                 Cambridge Crystallographic Data Centre
#                                CCDC 
#
#######################################################################
#
# If this CIF has been generated from an entry in the Cambridge 
# Structural Database, then it will include bibliographic, chemical, 
# crystal, experimental, refinement or atomic coordinate data resulting 
# from the CCDC's data processing and validation procedures.
#
#######################################################################

data_SIJKEC
_symmetry_cell_setting           monoclinic
_symmetry_space_group_name_H-M   'P 21/c'
_symmetry_Int_Tables_number      14
_space_group_name_Hall           '-P 2ybc'
loop_
_symmetry_equiv_pos_site_id
_symmetry_equiv_pos_as_xyz
1 x,y,z
2 -x,1/2+y,1/2-z
3 -x,-y,-z
4 x,1/2-y,1/2+z
_cell_length_a                   10.9277(9)
_cell_length_b                   11.1926(6)
_cell_length_c                   12.7187(9)
_cell_angle_alpha                90
_cell_angle_beta                 97.006(6)
_cell_angle_gamma                90
_cell_volume                     1544
loop_
_atom_site_label
_atom_site_type_symbol
_atom_site_fract_x
_atom_site_fract_y
_atom_site_fract_z
Co1 Co 0.04717(4) 0.23112(4) 0.34445(4)
C1 C 0.3748(3) 0.0141(3) 0.4642(3)
C2 C 0.4640(3) 0.0765(3) 0.4178(3)
C3 C 0.4107(3) -0.0634(3) 0.5481(3)
C4 C 0.2411(3) 0.0310(3) 0.4181(3)
C5 C 0.3182(3) -0.1203(3) 0.6113(3)
C6 C 0.3188(3) 0.3770(4) 0.3808(4)
C7 C 0.2304(3) 0.5633(4) 0.4027(3)
C8 C 0.4293(4) 0.4288(4) 0.3705(3)
C9 C 0.3406(3) 0.6173(4) 0.3940(3)
C10 C 0.4446(3) 0.5513(3) 0.3761(3)
C11 C 0.5655(3) 0.6070(3) 0.3646(3)
C12 C 0.6690(3) 0.5373(4) 0.3533(3)
C13 C 0.5824(3) 0.7297(4) 0.3644(3)
C14 C 0.7802(3) 0.5884(4) 0.3376(3)
C15 C 0.6929(3) 0.7797(4) 0.3488(3)
N1 N 0.2198(3) 0.4430(3) 0.3954(2)
N2 N 0.7883(2) 0.7085(3) 0.3320(2)
O1 O 0.20932(19) 0.1374(2) 0.3996(2)
O2 O 0.1752(2) -0.0590(2) 0.3989(2)
O3 O 0.3306(2) -0.2278(2) 0.6360(2)
O4 O 0.2370(2) -0.0511(2) 0.6355(2)
O5 O 0.1137(2) 0.3910(2) 0.4076(2)
O6 O 0.89312(19) 0.7591(2) 0.3090(2)
O7 O -0.0283(3) 0.2142(3) 0.4909(2)
O8 O -0.0251(3) 0.0670(3) 0.2960(2)
O9 O -0.1222(3) 0.3084(3) 0.2882(3)
H1 H 0.442(3) 0.128(3) 0.359(3)
H2 H 0.307(3) 0.297(4) 0.385(3)
H3 H 0.148(3) 0.610(4) 0.419(3)
H4 H 0.020(4) 0.217(4) 0.552(4)
H5 H 0.495(3) 0.375(4) 0.358(3)
H6 H -0.072(4) 0.166(4) 0.506(4)
H7 H 0.346(3) 0.703(3) 0.399(3)
H8 H 0.657(3) 0.451(3) 0.348(3)
H9 H 0.517(3) 0.779(3) 0.373(3)
H10 H 0.866(3) 0.543(3) 0.346(3)
H11 H 0.706(3) 0.857(3) 0.347(3)
H12 H 0.017(3) 0.019(4) 0.327(3)
H13 H -0.097(4) 0.060(4) 0.305(3)
H14 H -0.175(4) 0.282(4) 0.306(4)
H15 H -0.140(4) 0.343(5) 0.224(5)
Co1B Co 0.95283(4) -0.23112(4) 0.65555(4)
Co1A Co 0.95283(4) 0.73112(4) 0.15555(4)
Co1A_2 Co 0.95283(4) -0.26888(4) 0.15555(4)
C1B C 0.6252(3) -0.0141(3) 0.5358(3)
C2B C 0.5360(3) -0.0765(3) 0.5822(3)
C3B C 0.5893(3) 0.0634(3) 0.4519(3)
C4B C 0.7589(3) -0.0310(3) 0.5819(3)
C5B C 0.6818(3) 0.1203(3) 0.3887(3)
C6A C 0.6812(3) -0.1230(4) 0.1192(4)
C7A C 0.7696(3) 0.0633(4) 0.0973(3)
C8A C 0.5707(4) -0.0712(4) 0.1295(3)
C9A C 0.6594(3) 0.1173(4) 0.1060(3)
C10A C 0.5554(3) 0.0513(3) 0.1239(3)
C11A C 0.4345(3) 0.1070(3) 0.1354(3)
C12A C 0.3310(3) 0.0373(4) 0.1467(3)
C13A C 0.4176(3) 0.2297(4) 0.1356(3)
C14A C 0.2198(3) 0.0884(4) 0.1624(3)
C15A C 0.3071(3) 0.2797(4) 0.1512(3)
N1A N 0.7802(3) -0.0570(3) 0.1046(2)
N2A N 0.2117(2) 0.2085(3) 0.1680(2)
O1B O 0.79068(19) -0.1374(2) 0.6004(2)
O2B O 0.8248(2) 0.0590(2) 0.6011(2)
O3B O 0.6694(2) 0.2278(2) 0.3640(2)
O4B O 0.7630(2) 0.0511(2) 0.3645(2)
O5A O 0.8863(2) -0.1090(2) 0.0924(2)
O5B O 0.8863(2) -0.3910(2) 0.5924(2)
O6A O 0.10688(19) 0.2591(2) 0.1910(2)
O6C O 0.89312(19) -0.2591(2) 0.8090(2)
O7B O 1.0283(3) -0.2142(3) 0.5091(2)
O8B O 1.0251(3) -0.0670(3) 0.7040(2)
O9B O 1.1222(3) -0.3084(3) 0.7118(3)
H1B H 0.558(3) -0.128(3) 0.641(3)
H2A H 0.693(3) -0.203(4) 0.115(3)
H3A H 0.852(3) 0.110(4) 0.081(3)
H4B H 0.980(4) -0.217(4) 0.448(4)
H5A H 0.505(3) -0.125(4) 0.142(3)
H6B H 1.072(4) -0.166(4) 0.494(4)
H7A H 0.654(3) 0.203(3) 0.101(3)
H8A H 0.343(3) -0.049(3) 0.152(3)
H9A H 0.483(3) 0.279(3) 0.127(3)
H10A H 0.134(3) 0.043(3) 0.154(3)
H11A H 0.294(3) 0.357(3) 0.153(3)
H12B H 0.983(3) -0.019(4) 0.673(3)
H13B H 1.097(4) -0.060(4) 0.695(3)
H14B H 1.175(4) -0.282(4) 0.694(4)
H15B H 1.140(4) -0.343(5) 0.776(5)
loop_
_geom_bond_atom_site_label_1
_geom_bond_atom_site_label_2
_geom_bond_site_symmetry_1
_geom_bond_site_symmetry_2
Co1 O1 1_555 1_555
C1 C2 1_555 1_555
C2 H1 1_555 1_555
C3 C1 1_555 1_555
C4 C1 1_555 1_555
C5 C3 1_555 1_555
C6 C8 1_555 1_555
C7 C9 1_555 1_555
C8 C10 1_555 1_555
C9 C10 1_555 1_555
C10 C11 1_555 1_555
C11 C12 1_555 1_555
C12 C14 1_555 1_555
C13 C11 1_555 1_555
C14 N2 1_555 1_555
C15 C13 1_555 1_555
N1 C6 1_555 1_555
N2 C15 1_555 1_555
O1 C4 1_555 1_555
O2 C4 1_555 1_555
O3 C5 1_555 1_555
O4 C5 1_555 1_555
O5 Co1 1_555 1_555
O6 N2 1_555 1_555
O7 Co1 1_555 1_555
O8 Co1 1_555 1_555
O9 Co1 1_555 1_555
H2 C6 1_555 1_555
H3 C7 1_555 1_555
H4 O7 1_555 1_555
H5 C8 1_555 1_555
H6 O7 1_555 1_555
H7 C9 1_555 1_555
H8 C12 1_555 1_555
H9 C13 1_555 1_555
H10 C14 1_555 1_555
H11 C15 1_555 1_555
H12 O8 1_555 1_555
H13 O8 1_555 1_555
H14 O9 1_555 1_555
H15 O9 1_555 1_555
Co1B O1B 1_555 1_555
Co1A O6 1_555 1_555
Co1A_2 O5A 1_555 1_555
C1B C2B 1_555 1_555
C2B C3 1_555 1_555
C3B C2 1_555 1_555
C4B C1B 1_555 1_555
C5B C3B 1_555 1_555
C6A C8A 1_555 1_555
C7A C9A 1_555 1_555
C8A C10A 1_555 1_555
C9A C10A 1_555 1_555
C10A C11A 1_555 1_555
C11A C12A 1_555 1_555
C12A C14A 1_555 1_555
C13A C11A 1_555 1_555
C14A N2A 1_555 1_555
C15A C13A 1_555 1_555
N1A C6A 1_555 1_555
N2A C15A 1_555 1_555
O1B C4B 1_555 1_555
O2B C4B 1_555 1_555
O3B C5B 1_555 1_555
O4B C5B 1_555 1_555
O5A N1A 1_555 1_555
O5B Co1B 1_555 1_555
O6A Co1 1_555 1_555
O6C Co1B 1_555 1_555
O7B Co1B 1_555 1_555
O8B Co1B 1_555 1_555
O9B Co1B 1_555 1_555
H1B C2B 1_555 1_555
H2A C6A 1_555 1_555
H3A C7A 1_555 1_555
H4B O7B 1_555 1_555
H5A C8A 1_555 1_555
H6B O7B 1_555 1_555
H7A C9A 1_555 1_555
H8A C12A 1_555 1_555
H9A C13A 1_555 1_555
H10A C14A 1_555 1_555
H11A C15A 1_555 1_555
H12B O8B 1_555 1_555
H13B O8B 1_555 1_555
H14B O9B 1_555 1_555
H15B O9B 1_555 1_555
C7 N1 1_555 1_555
N1 O5 1_555 1_555
C1B C3B 1_555 1_555
C7A N1A 1_555 1_555
N2A O6A 1_555 1_555

#END
