
#######################################################################
#
#                 Cambridge Crystallographic Data Centre
#                                CCDC 
#
#######################################################################
#
# If this CIF has been generated from an entry in the Cambridge 
# Structural Database, then it will include bibliographic, chemical, 
# crystal, experimental, refinement or atomic coordinate data resulting 
# from the CCDC's data processing and validation procedures.
#
#######################################################################

data_SIJKIG
_symmetry_cell_setting           triclinic
_symmetry_space_group_name_H-M   'P -1'
_symmetry_Int_Tables_number      2
_space_group_name_Hall           '-P 1'
loop_
_symmetry_equiv_pos_site_id
_symmetry_equiv_pos_as_xyz
1 x,y,z
2 -x,-y,-z
_cell_length_a                   8.2675(16)
_cell_length_b                   11.014(2)
_cell_length_c                   11.281(2)
_cell_angle_alpha                77.077(3)
_cell_angle_beta                 84.154(3)
_cell_angle_gamma                70.740(3)
_cell_volume                     944.733
loop_
_atom_site_label
_atom_site_type_symbol
_atom_site_fract_x
_atom_site_fract_y
_atom_site_fract_z
C1 C 0.1658(4) 0.2044(3) 0.7694(3)
C2 C 0.0806(4) 0.2259(3) 0.6631(3)
H1 H -0.0180 0.2020 0.6669
C3 C 0.1375(4) 0.2811(3) 0.5530(3)
C4 C 0.2852(4) 0.3197(3) 0.5463(3)
H2 H 0.3246 0.3577 0.4717
C5 C 0.3719(4) 0.3007(3) 0.6522(3)
C6 C 0.3119(4) 0.2435(3) 0.7628(3)
H3 H 0.3695 0.2311 0.8334
C7 C 0.5310(4) 0.3412(3) 0.6472(3)
H4 H 0.5554 0.3776 0.5633
H5 H 0.6273 0.2637 0.6743
C8 C 0.5156(4) 0.4417(3) 0.7246(3)
C9 C 0.3613(4) 0.5398(3) 0.7369(3)
H6 H 0.2642 0.5420 0.7003
C10 C 0.3505(4) 0.6347(3) 0.8031(3)
C11 C 0.4938(4) 0.6314(3) 0.8605(3)
H7 H 0.4874 0.6956 0.9038
C12 C 0.6460(4) 0.5308(3) 0.8522(3)
C13 C 0.6570(4) 0.4373(3) 0.7843(3)
H8 H 0.7603 0.3709 0.7789
C14 C 0.0985(4) 0.1413(3) 0.8861(3)
C15 C 0.0421(4) 0.2920(3) 0.4441(3)
C16 C 0.1827(4) 0.7371(3) 0.8184(3)
C17 C 0.8026(4) 0.5188(3) 0.9157(3)
C18 C -0.1935(4) 0.0216(3) 0.6174(3)
H9 H -0.0957 0.0469 0.5982
C19 C -0.2972(4) 0.0350(3) 0.5242(3)
H10 H -0.2705 0.0706 0.4448
C20 C -0.4431(4) -0.0053(3) 0.5494(3)
C21 C -0.4757(4) -0.0564(3) 0.6710(3)
H11 H -0.5704 -0.0853 0.6924
C22 C -0.3669(4) -0.0639(3) 0.7593(3)
H12 H -0.3920 -0.0969 0.8398
N1 N -0.2257(3) -0.0258(2) 0.7343(2)
O1 O -0.0374(3) 0.11203(19) 0.88345(19)
O2 O 0.1774(3) 0.12150(19) 0.98228(18)
O3 O -0.0807(3) 0.2528(2) 0.4519(2)
O4 O 0.1033(3) 0.3454(2) 0.34009(19)
H13 H 0.0462 0.3472 0.2840
O5 O 0.9379(3) 0.43169(19) 0.90678(19)
O6 O 0.7790(3) 0.6090(2) 0.9803(2)
H14 H 0.8706 0.6023 1.0072
O7 O 0.1843(3) 0.8501(2) 0.8280(2)
O8 O 0.0455(3) 0.7098(2) 0.82655(19)
Zn1 Zn -0.05795(4) -0.06005(3) 0.86915(3)
C1A C -0.1658(4) -0.2044(3) 1.2306(3)
C2A C -0.0806(4) -0.2259(3) 1.3369(3)
H1A H 0.0180 -0.2020 1.3331
C3A C -0.1375(4) -0.2811(3) 1.4470(3)
C4A C -0.2852(4) -0.3197(3) 1.4537(3)
H2A H -0.3246 -0.3577 1.5283
C5A C -0.3719(4) -0.3007(3) 1.3478(3)
C6A C -0.3119(4) -0.2435(3) 1.2372(3)
H3A H -0.3695 -0.2311 1.1666
C7A C -0.5310(4) -0.3412(3) 1.3528(3)
H4A H -0.5554 -0.3776 1.4367
H5A H -0.6273 -0.2637 1.3257
C8A C -0.5156(4) -0.4417(3) 1.2754(3)
C9A C -0.3613(4) -0.5398(3) 1.2631(3)
H6A H -0.2642 -0.5420 1.2997
C10A C -0.3505(4) -0.6347(3) 1.1969(3)
C11A C -0.4938(4) -0.6314(3) 1.1395(3)
H7A H -0.4874 -0.6956 1.0962
C12A C -0.6460(4) -0.5308(3) 1.1478(3)
C13A C -0.6570(4) -0.4373(3) 1.2157(3)
H8A H -0.7603 -0.3709 1.2211
C14A C -0.0985(4) -0.1413(3) 1.1139(3)
C15A C -0.0421(4) -0.2920(3) 1.5559(3)
C16A C -0.1827(4) -0.7371(3) 1.1816(3)
C17A C -0.8026(4) -0.5188(3) 1.0843(3)
C18A C -0.8065(4) -0.0216(3) 0.3826(3)
H9A H -0.9043 -0.0469 0.4018
C19A C -0.7028(4) -0.0350(3) 0.4758(3)
H10A H -0.7295 -0.0706 0.5552
C20A C -0.5569(4) 0.0053(3) 0.4506(3)
C21A C -0.5243(4) 0.0564(3) 0.3290(3)
H11A H -0.4296 0.0853 0.3076
C22A C -0.6331(4) 0.0639(3) 0.2407(3)
H12A H -0.6080 0.0969 0.1602
N1A N -0.7743(3) 0.0258(2) 0.2657(2)
O1A O 0.0374(3) -0.11203(19) 1.11655(19)
O1A_2 O -0.9626(3) -0.11203(19) 0.11655(19)
O2A O -0.1774(3) -0.12150(19) 1.01772(18)
O2_2 O -0.8226(3) 0.12150(19) -0.01772(18)
O3A O 0.0807(3) -0.2528(2) 1.5481(2)
O4A O -0.1033(3) -0.3454(2) 1.65991(19)
H13A H -0.0462 -0.3472 1.7160
O5A O -0.9379(3) -0.43169(19) 1.09322(19)
O6A O -0.7790(3) -0.6090(2) 1.0197(2)
H14A H -0.8706 -0.6023 0.9928
O7A O -0.1843(3) -0.8501(2) 1.1720(2)
O7_2 O 0.1843(3) -0.1499(2) 0.8280(2)
O7A_2 O -1.1843(3) 0.1499(2) 0.1720(2)
O8A O -0.0455(3) -0.7098(2) 1.17345(19)
Zn1A Zn -0.94205(4) 0.06005(3) 0.13085(3)
Zn1A_2 Zn 0.05795(4) 0.06005(3) 1.13085(3)
Zn1_2 Zn -0.05795(4) 0.93995(3) 0.86915(3)
Zn1A_3 Zn 0.05795(4) -0.93995(3) 1.13085(3)
loop_
_geom_bond_atom_site_label_1
_geom_bond_atom_site_label_2
_geom_bond_site_symmetry_1
_geom_bond_site_symmetry_2
C1 C2 1_555 1_555
C2 H1 1_555 1_555
C3 C2 1_555 1_555
C4 C3 1_555 1_555
H2 C4 1_555 1_555
C5 C4 1_555 1_555
C6 C1 1_555 1_555
H3 C6 1_555 1_555
C7 C5 1_555 1_555
H4 C7 1_555 1_555
H5 C7 1_555 1_555
C8 C7 1_555 1_555
C9 C8 1_555 1_555
H6 C9 1_555 1_555
C10 C9 1_555 1_555
C11 C10 1_555 1_555
H7 C11 1_555 1_555
C12 C11 1_555 1_555
C13 C8 1_555 1_555
H8 C13 1_555 1_555
C14 C1 1_555 1_555
C15 C3 1_555 1_555
C16 C10 1_555 1_555
C17 C12 1_555 1_555
C18 H9 1_555 1_555
C19 C18 1_555 1_555
H10 C19 1_555 1_555
C20 C19 1_555 1_555
C21 C20 1_555 1_555
H11 C21 1_555 1_555
C22 C21 1_555 1_555
H12 C22 1_555 1_555
N1 C18 1_555 1_555
O1 C14 1_555 1_555
O2 C14 1_555 1_555
O3 C15 1_555 1_555
O4 C15 1_555 1_555
H13 O4 1_555 1_555
O5 C17 1_555 1_555
O6 C17 1_555 1_555
H14 O6 1_555 1_555
O7 C16 1_555 1_555
O8 C16 1_555 1_555
Zn1 N1 1_555 1_555
C1A C2A 1_555 1_555
C2A H1A 1_555 1_555
C3A C2A 1_555 1_555
C4A C3A 1_555 1_555
H2A C4A 1_555 1_555
C5A C4A 1_555 1_555
C6A C1A 1_555 1_555
H3A C6A 1_555 1_555
C7A C5A 1_555 1_555
H4A C7A 1_555 1_555
H5A C7A 1_555 1_555
C8A C7A 1_555 1_555
C9A C8A 1_555 1_555
H6A C9A 1_555 1_555
C10A C9A 1_555 1_555
C11A C10A 1_555 1_555
H7A C11A 1_555 1_555
C12A C11A 1_555 1_555
C13A C8A 1_555 1_555
H8A C13A 1_555 1_555
C14A C1A 1_555 1_555
C15A C3A 1_555 1_555
C16A C10A 1_555 1_555
C17A C12A 1_555 1_555
C18A H9A 1_555 1_555
C19A C18A 1_555 1_555
H10A C19A 1_555 1_555
C20A C20 1_555 1_555
C21A C20A 1_555 1_555
H11A C21A 1_555 1_555
C22A C21A 1_555 1_555
H12A C22A 1_555 1_555
N1A C18A 1_555 1_555
O1A C14A 1_555 1_555
O1A_2 Zn1A 1_555 1_555
O2A Zn1 1_555 1_555
O2_2 Zn1A 1_555 1_555
O3A C15A 1_555 1_555
O4A C15A 1_555 1_555
H13A O4A 1_555 1_555
O5A C17A 1_555 1_555
O6A C17A 1_555 1_555
H14A O6A 1_555 1_555
O7A C16A 1_555 1_555
O7_2 Zn1 1_555 1_555
O7A_2 Zn1A 1_555 1_555
O8A C16A 1_555 1_555
Zn1A N1A 1_555 1_555
Zn1A_2 O2 1_555 1_555
Zn1_2 O7 1_555 1_555
Zn1A_3 O7A 1_555 1_555
C5 C6 1_555 1_555
C12 C13 1_555 1_555
C22 N1 1_555 1_555
O1 Zn1 1_555 1_555
C5A C6A 1_555 1_555
C12A C13A 1_555 1_555
C14A O2A 1_555 1_555
C19A C20A 1_555 1_555
C22A N1A 1_555 1_555
O1A Zn1A_2 1_555 1_555

#END
