
#######################################################################
#
#                 Cambridge Crystallographic Data Centre
#                                CCDC 
#
#######################################################################
#
# If this CIF has been generated from an entry in the Cambridge 
# Structural Database, then it will include bibliographic, chemical, 
# crystal, experimental, refinement or atomic coordinate data resulting 
# from the CCDC's data processing and validation procedures.
#
#######################################################################

data_SIJLIH
_symmetry_cell_setting           monoclinic
_symmetry_space_group_name_H-M   'P 21/c'
_symmetry_Int_Tables_number      14
_space_group_name_Hall           '-P 2ybc'
loop_
_symmetry_equiv_pos_site_id
_symmetry_equiv_pos_as_xyz
1 x,y,z
2 -x,1/2+y,1/2-z
3 -x,-y,-z
4 x,1/2-y,1/2+z
_cell_length_a                   13.017(2)
_cell_length_b                   12.4950(14)
_cell_length_c                   14.208(2)
_cell_angle_alpha                90
_cell_angle_beta                 108.619(7)
_cell_angle_gamma                90
_cell_volume                     2189.95
loop_
_atom_site_label
_atom_site_type_symbol
_atom_site_fract_x
_atom_site_fract_y
_atom_site_fract_z
Zn1 Zn 0.12364(3) 0.78243(3) 0.17292(3)
Zn2 Zn -0.67525(4) 0.57751(3) -0.17564(4)
O1 O -0.5812(2) 0.7052(2) -0.1488(2)
O2 O -0.6663(3) 0.5710(3) -0.0205(3)
H1 H -0.6216 0.5258 0.0083
H2 H -0.716(3) 0.569(3) -0.024(3)
O3 O -0.4703(2) 0.5685(2) -0.1041(2)
O4 O 0.1739(2) 0.8757(2) 0.2842(2)
H3 H 0.143(5) 0.865(4) 0.326(4)
O6 O -0.0305(2) 0.8081(3) 0.1149(2)
O7 O -0.0650(2) 0.6623(2) 0.0216(2)
O9 O -0.1834(3) 1.1866(3) -0.0663(3)
O10 O -0.3220(3) 1.0936(3) -0.1649(2)
O11 O -0.3773(2) 1.0271(2) -0.0082(2)
N1 N 0.1729(3) 0.6291(2) 0.2096(2)
N2 N 0.3136(3) 0.0841(2) 0.2992(2)
C1 C -0.3972(3) 0.7453(3) -0.0674(3)
C2 C -0.2898(3) 0.7114(3) -0.0327(2)
H6 H -0.2728 0.6398 -0.0377
C3 C -0.2083(3) 0.7846(3) 0.0094(3)
C4 C -0.2338(3) 0.8924(3) 0.0162(3)
H7 H -0.1789 0.9419 0.0433
C5 C -0.3416(3) 0.9252(3) -0.0177(3)
C6 C -0.4224(3) 0.8517(3) -0.0609(3)
H8 H -0.4941 0.8742 -0.0856
C7 C -0.4873(3) 0.6672(3) -0.1096(3)
C8 C -0.0931(3) 0.7470(3) 0.0503(3)
C9 C -0.3022(3) 1.1115(3) 0.0075(3)
H9 H -0.3346 1.1764 0.0228
H10 H -0.2391 1.0948 0.0640
C10 C -0.2666(4) 1.1306(3) -0.0841(3)
C11 C 0.1034(3) 0.5548(3) 0.2183(3)
H11 H 0.0327 0.5752 0.2116
C12 C 0.1320(4) 0.4482(3) 0.2371(3)
H12 H 0.0814 0.3985 0.2435
C13 C 0.2361(3) 0.4166(3) 0.2463(3)
C14 C 0.3096(3) 0.4946(3) 0.2399(3)
H13 H 0.3812 0.4765 0.2481
C15 C 0.2754(3) 0.5986(3) 0.2213(3)
H14 H 0.3251 0.6501 0.2167
C16 C 0.2662(3) 0.3016(3) 0.2645(3)
C17 C 0.1874(4) 0.2239(3) 0.2277(3)
H15 H 0.1172 0.2437 0.1910
C18 C 0.2138(4) 0.1171(3) 0.2459(3)
H16 H 0.1602 0.0660 0.2202
C19 C 0.3903(3) 0.1584(3) 0.3326(3)
H17 H 0.4601 0.1366 0.3686
C20 C 0.3700(3) 0.2674(3) 0.3156(3)
H18 H 0.4259 0.3167 0.3384
Zn1B Zn -0.12364(3) 1.21757(3) -0.17292(3)
Zn2C Zn 0.32475(4) 0.92249(3) 0.32436(4)
Zn2A Zn -0.32475(4) 1.07751(3) -0.32436(4)
Zn2C_2 Zn 0.32475(4) -0.07751(3) 0.32436(4)
O4C O -0.8261(2) 0.6243(2) -0.2158(2)
H3C H -0.857(5) 0.635(4) -0.174(4)
O9B O 0.1834(3) 0.8134(3) 0.0663(3)
O10A O -0.6780(3) 0.5936(3) -0.3351(2)
N2C N -0.6864(3) 0.4159(2) -0.2008(2)
O5 O 0.1145(3) 0.9388(4) 0.4666(3)
H4 H 0.105(6) 0.857(6) 0.462(5)
H5 H 0.088(6) 1.001(6) 0.473(5)
O8 O -0.0083(12) 1.0667(15) 0.0822(12)
loop_
_geom_bond_atom_site_label_1
_geom_bond_atom_site_label_2
_geom_bond_site_symmetry_1
_geom_bond_site_symmetry_2
Zn1 O4 1_555 1_555
Zn2 O1 1_555 1_555
O1 C7 1_555 1_555
O2 Zn2 1_555 1_555
H1 O2 1_555 1_555
H2 O2 1_555 1_555
O3 C7 1_555 1_555
O4 H3 1_555 1_555
O5 H4 1_555 1_555
H5 O5 1_555 1_555
O6 Zn1 1_555 1_555
O7 C8 1_555 1_555
O9 C10 1_555 1_555
O10 C10 1_555 1_555
O11 C5 1_555 1_555
N1 Zn1 1_555 1_555
N2 C18 1_555 1_555
C1 C2 1_555 1_555
C2 H6 1_555 1_555
C3 C2 1_555 1_555
C4 C3 1_555 1_555
H7 C4 1_555 1_555
C5 C4 1_555 1_555
C6 C1 1_555 1_555
H8 C6 1_555 1_555
C7 C1 1_555 1_555
C8 O6 1_555 1_555
C9 O11 1_555 1_555
H9 C9 1_555 1_555
H10 C9 1_555 1_555
C10 C9 1_555 1_555
C11 N1 1_555 1_555
H11 C11 1_555 1_555
C12 C11 1_555 1_555
H12 C12 1_555 1_555
C13 C12 1_555 1_555
C14 C13 1_555 1_555
H13 C14 1_555 1_555
C15 N1 1_555 1_555
H14 C15 1_555 1_555
C16 C13 1_555 1_555
C17 C16 1_555 1_555
H15 C17 1_555 1_555
C18 C17 1_555 1_555
H16 C18 1_555 1_555
C19 N2 1_555 1_555
H17 C19 1_555 1_555
C20 C16 1_555 1_555
H18 C20 1_555 1_555
Zn1B O9 1_555 1_555
Zn2C O4 1_555 1_555
Zn2A O10 1_555 1_555
Zn2C_2 N2 1_555 1_555
O4C Zn2 1_555 1_555
H3C O4C 1_555 1_555
O9B Zn1 1_555 1_555
O10A Zn2 1_555 1_555
N2C Zn2 1_555 1_555
C3 C8 1_555 1_555
C5 C6 1_555 1_555
C14 C15 1_555 1_555
C19 C20 1_555 1_555

#END
