
#######################################################################
#
#                 Cambridge Crystallographic Data Centre
#                                CCDC 
#
#######################################################################
#
# If this CIF has been generated from an entry in the Cambridge 
# Structural Database, then it will include bibliographic, chemical, 
# crystal, experimental, refinement or atomic coordinate data resulting 
# from the CCDC's data processing and validation procedures.
#
#######################################################################

data_SIJLAZ
_symmetry_cell_setting           monoclinic
_symmetry_space_group_name_H-M   'C 2/c'
_symmetry_Int_Tables_number      15
_space_group_name_Hall           '-C 2yn'
loop_
_symmetry_equiv_pos_site_id
_symmetry_equiv_pos_as_xyz
1 x,y,z
2 1/2+x,1/2+y,z
3 -x,y,1/2-z
4 1/2-x,1/2+y,1/2-z
5 -x,-y,-z
6 1/2-x,1/2-y,-z
7 x,-y,1/2+z
8 1/2+x,1/2-y,1/2+z
_cell_length_a                   18.277(3)
_cell_length_b                   9.8838(18)
_cell_length_c                   15.724(3)
_cell_angle_alpha                90
_cell_angle_beta                 102.4630(10)
_cell_angle_gamma                90
_cell_volume                     2773.55
loop_
_atom_site_label
_atom_site_type_symbol
_atom_site_fract_x
_atom_site_fract_y
_atom_site_fract_z
C1 C 0.9094(3) 0.5650(6) 0.9266(4)
C2 C 0.9588(3) 0.6649(6) 0.9588(4)
H1 H 0.9495 0.7192 1.0036
C3 C 1.0226(3) 0.6883(5) 0.9269(4)
C4 C 1.0363(3) 0.6023(5) 0.8592(3)
H2 H 1.0792 0.6149 0.8374
C5 C 0.9863(3) 0.5000(5) 0.8254(4)
C6 C 0.9240(3) 0.4799(6) 0.8602(4)
H3 H 0.8913 0.4094 0.8396
C7 C 0.8414(3) 0.5448(5) 0.9614(3)
C8 C 1.0788(3) 0.7985(6) 0.9593(4)
C9 C 1.0000 0.4135(8) 0.7500
H4 H 0.9569 0.3558 0.7296
H5 H 1.0431 0.3558 0.7704
C10 C 0.7386(4) 0.4085(6) 1.2010(4)
H6 H 0.7737 0.3707 1.2505
H7 H 0.6883 0.3960 1.2106
C11 C 0.7545(3) 0.5614(6) 1.1930(4)
H8 H 0.7475 0.6070 1.2452
H9 H 0.8064 0.5730 1.1893
Cd1 Cd 0.70184(2) 0.47772(4) 1.00260(3)
N1 N 0.7460(2) 0.3371(4) 1.1200(2)
H10 H 0.7194 0.2598 1.1142
H11 H 0.7944 0.3163 1.1225
N2 N 0.7051(2) 0.6272(5) 1.1150(3)
H12 H 0.7243 0.7071 1.1033
H13 H 0.6587 0.6410 1.1242
O1 O 0.8244(2) 0.6222(4) 1.0148(3)
O2 O 0.7995(2) 0.4427(4) 0.9340(2)
O3 O 1.07501(18) 0.8565(4) 1.0267(2)
O4 O 1.12629(19) 0.8251(4) 0.9149(2)
O5 O 0.6492(2) 0.6405(4) 0.9014(2)
H14 H 0.6033 0.6220 0.8815
H15 H 0.6528 0.7178 0.9256
C1B C 1.0906(3) 0.5650(6) 0.5734(4)
C2B C 1.0412(3) 0.6649(6) 0.5412(4)
H1B H 1.0505 0.7192 0.4964
C3B C 0.9774(3) 0.6883(5) 0.5731(4)
C4B C 0.9637(3) 0.6023(5) 0.6408(3)
H2B H 0.9208 0.6149 0.6626
C5B C 1.0137(3) 0.5000(5) 0.6746(4)
C6B C 1.0760(3) 0.4799(6) 0.6398(4)
H3B H 1.1087 0.4094 0.6604
C7B C 1.1586(3) 0.5448(5) 0.5386(3)
C8B C 0.9212(3) 0.7985(6) 0.5407(4)
C10B C 1.2614(4) 0.4085(6) 0.2990(4)
H6B H 1.2263 0.3707 0.2495
H7B H 1.3117 0.3960 0.2894
C11B C 1.2455(3) 0.5614(6) 0.3070(4)
H8B H 1.2525 0.6070 0.2548
H9B H 1.1936 0.5730 0.3107
Cd1B Cd 1.29816(2) 0.47772(4) 0.49740(3)
Cd1A Cd 1.20184(2) 0.97772(4) 1.00260(3)
Cd1C Cd 0.79816(2) 0.97772(4) 0.49740(3)
N1B N 1.2540(2) 0.3371(4) 0.3800(2)
H10B H 1.2806 0.2598 0.3858
H11B H 1.2056 0.3163 0.3775
N2B N 1.2949(2) 0.6272(5) 0.3850(3)
H12B H 1.2757 0.7071 0.3967
H13B H 1.3413 0.6410 0.3758
O1B O 1.1756(2) 0.6222(4) 0.4852(3)
O2B O 1.2005(2) 0.4427(4) 0.5660(2)
O3B O 0.92499(18) 0.8565(4) 0.4733(2)
O3A O 0.57501(18) 0.3565(4) 1.0267(2)
O3C O 1.42499(18) 0.3565(4) 0.4733(2)
O4B O 0.87371(19) 0.8251(4) 0.5851(2)
O4A O 0.62629(19) 0.3251(4) 0.9149(2)
O4C O 1.37371(19) 0.3251(4) 0.5851(2)
O5B O 1.3508(2) 0.6405(4) 0.5986(2)
H14B H 1.3967 0.6220 0.6185
H15B H 1.3472 0.7178 0.5744
O6 O 0.4969(2) 0.5986(4) 0.8432(2)
H16 H 0.5437 0.6112 0.8611
H17 H 0.4755 0.6027 0.8861
O7 O 0.0836(2) 0.8655(4) 0.7374(2)
H18 H 0.0727 0.8982 0.7831
H19 H 0.0791 0.9266 0.6985
loop_
_geom_bond_atom_site_label_1
_geom_bond_atom_site_label_2
_geom_bond_site_symmetry_1
_geom_bond_site_symmetry_2
C1 C2 1_555 1_555
C2 H1 1_555 1_555
C3 C2 1_555 1_555
C4 C3 1_555 1_555
H2 C4 1_555 1_555
C5 C4 1_555 1_555
C6 C1 1_555 1_555
H3 C6 1_555 1_555
C7 C1 1_555 1_555
C8 C3 1_555 1_555
C9 C5 1_555 1_555
H4 C9 1_555 1_555
H5 C9 1_555 1_555
C10 H6 1_555 1_555
H7 C10 1_555 1_555
C11 C10 1_555 1_555
H8 C11 1_555 1_555
H9 C11 1_555 1_555
Cd1 N1 1_555 1_555
N1 C10 1_555 1_555
H10 N1 1_555 1_555
H11 N1 1_555 1_555
N2 C11 1_555 1_555
H12 N2 1_555 1_555
H13 N2 1_555 1_555
O1 C7 1_555 1_555
O2 C7 1_555 1_555
O3 C8 1_555 1_555
O4 C8 1_555 1_555
O5 Cd1 1_555 1_555
H14 O5 1_555 1_555
H15 O5 1_555 1_555
O6 H16 1_555 1_555
H17 O6 1_555 1_555
O7 H18 1_555 1_555
H19 O7 1_555 1_555
C1B C2B 1_555 1_555
C2B H1B 1_555 1_555
C3B C2B 1_555 1_555
C4B C3B 1_555 1_555
H2B C4B 1_555 1_555
C5B C9 1_555 1_555
C6B C1B 1_555 1_555
H3B C6B 1_555 1_555
C7B C1B 1_555 1_555
C8B C3B 1_555 1_555
C10B H6B 1_555 1_555
H7B C10B 1_555 1_555
C11B C10B 1_555 1_555
H8B C11B 1_555 1_555
H9B C11B 1_555 1_555
Cd1B N1B 1_555 1_555
Cd1A O3 1_555 1_555
Cd1C O3B 1_555 1_555
N1B C10B 1_555 1_555
H10B N1B 1_555 1_555
H11B N1B 1_555 1_555
N2B C11B 1_555 1_555
H12B N2B 1_555 1_555
H13B N2B 1_555 1_555
O1B C7B 1_555 1_555
O2B C7B 1_555 1_555
O3B C8B 1_555 1_555
O3A Cd1 1_555 1_555
O3C Cd1B 1_555 1_555
O4B C8B 1_555 1_555
O4A Cd1 1_555 1_555
O4C Cd1B 1_555 1_555
O5B Cd1B 1_555 1_555
H14B O5B 1_555 1_555
H15B O5B 1_555 1_555
C5 C6 1_555 1_555
Cd1 N2 1_555 1_555
Cd1 O1 1_555 1_555
Cd1 O2 1_555 1_555
O4 Cd1A 1_555 1_555
C4B C5B 1_555 1_555
C5B C6B 1_555 1_555
Cd1B N2B 1_555 1_555
Cd1B O1B 1_555 1_555
Cd1B O2B 1_555 1_555
Cd1C O4B 1_555 1_555

#END
