
#######################################################################
#
#                 Cambridge Crystallographic Data Centre
#                                CCDC 
#
#######################################################################
#
# If this CIF has been generated from an entry in the Cambridge 
# Structural Database, then it will include bibliographic, chemical, 
# crystal, experimental, refinement or atomic coordinate data resulting 
# from the CCDC's data processing and validation procedures.
#
#######################################################################

data_SIJLON
_symmetry_cell_setting           triclinic
_symmetry_space_group_name_H-M   'P -1'
_symmetry_Int_Tables_number      2
_space_group_name_Hall           '-P 1'
loop_
_symmetry_equiv_pos_site_id
_symmetry_equiv_pos_as_xyz
1 x,y,z
2 -x,-y,-z
_cell_length_a                   8.3945(7)
_cell_length_b                   10.2207(9)
_cell_length_c                   18.3523(17)
_cell_angle_alpha                104.241(2)
_cell_angle_beta                 101.498(2)
_cell_angle_gamma                92.684(2)
_cell_volume                     1487.93
loop_
_atom_site_label
_atom_site_type_symbol
_atom_site_fract_x
_atom_site_fract_y
_atom_site_fract_z
Cd1 Cd 0.38363(13) 0.36256(10) 0.10956(6)
Cd2 Cd 0.5000 1.0000 0.5000
O1 O 0.5333(14) 0.5552(9) 0.1997(6)
O2 O 0.5898(13) 0.3338(9) 0.0398(6)
H1 H 0.5813 0.3538 -0.0010
H2 H 0.6205 0.2801 0.0471
O3 O 0.3941(13) 0.5961(9) 0.0937(6)
O4 O 0.5302(16) 0.7785(12) 0.5087(8)
H3 H 0.4813 0.7045 0.4845
H4 H 0.6050 0.7889 0.4873
O5 O 0.3500(13) 1.0915(9) 0.0953(6)
O6 O 0.5403(12) 1.2433(9) 0.1803(6)
O7 O 0.8838(13) 0.9999(10) 0.3400(6)
O8 O 0.7219(14) 0.9924(12) 0.4523(7)
O9 O 0.7963(17) 0.7889(15) 0.4547(10)
N1 N -0.291(2) 0.3977(17) 0.4696(9)
N2 N 0.1976(14) 0.3700(12) 0.1922(6)
N3 N 0.6544(15) 1.0770(14) 0.6296(7)
N4 N 1.1824(15) 1.3004(12) 0.9989(7)
C1 C -0.328(3) 0.4530(18) 0.4111(11)
H5 H -0.4248 0.4943 0.4068
C2 C -0.239(2) 0.4555(16) 0.3562(10)
H6 H -0.2740 0.4977 0.3172
C3 C -0.052(2) 0.3343(16) 0.4224(10)
H7 H 0.0456 0.2943 0.4293
C4 C -0.150(3) 0.336(2) 0.4718(12)
H8 H -0.1206 0.2915 0.5103
C5 C -0.093(2) 0.3919(14) 0.3610(9)
C6 C 0.007(2) 0.3864(15) 0.3025(9)
C7 C 0.176(2) 0.3915(17) 0.3222(10)
H9 H 0.2286 0.4022 0.3732
C8 C 0.264(2) 0.3807(18) 0.2660(10)
H10 H 0.3770 0.3809 0.2802
C9 C -0.066(2) 0.3697(16) 0.2259(10)
H11 H -0.1789 0.3640 0.2097
C10 C 0.035(2) 0.3616(15) 0.1735(9)
H12 H -0.0144 0.3494 0.1219
C11 C 0.700(2) 1.2064(17) 0.6628(8)
H13 H 0.6623 1.2690 0.6358
C12 C 0.7980(19) 1.2547(15) 0.7346(9)
H14 H 0.8248 1.3475 0.7554
C13 C 0.709(2) 0.9928(17) 0.6694(10)
H15 H 0.6755 0.9010 0.6475
C14 C 0.8118(19) 1.0277(15) 0.7406(8)
H16 H 0.8498 0.9613 0.7644
C15 C 0.8579(18) 1.1634(16) 0.7763(8)
C16 C 0.9706(17) 1.2094(13) 0.8536(8)
C17 C 0.9701(18) 1.1441(14) 0.9097(8)
H17 H 0.8979 1.0670 0.9002
C18 C 1.077(2) 1.1915(15) 0.9815(9)
H18 H 1.0736 1.1445 1.0187
C19 C 1.079(2) 1.3248(16) 0.8725(9)
H19 H 1.0827 1.3734 0.8361
C20 C 1.182(2) 1.3693(15) 0.9444(9)
H20 H 1.2521 1.4481 0.9558
C21 C 0.5569(18) 0.7849(11) 0.1895(8)
C22 C 0.4906(16) 0.8775(11) 0.1535(8)
H21 H 0.4053 0.8509 0.1103
C23 C 0.5537(16) 1.0138(13) 0.1830(8)
C24 C 0.6831(17) 1.0482(13) 0.2459(7)
H22 H 0.7264 1.1384 0.2653
C25 C 0.7497(17) 0.9532(14) 0.2806(7)
C26 C 0.6841(17) 0.8214(13) 0.2537(8)
H23 H 0.7246 0.7566 0.2783
C27 C 0.4892(16) 0.6360(14) 0.1585(8)
C28 C 0.4753(19) 1.1246(13) 0.1497(9)
C29 C 0.9284(18) 0.9140(16) 0.3894(9)
H24 H 1.0319 0.9515 0.4244
H25 H 0.9436 0.8255 0.3585
C30 C 0.7982(19) 0.8962(17) 0.4373(8)
Cd1A Cd 0.61637(13) 1.63744(10) 0.89044(6)
Cd1_2 Cd 0.38363(13) 1.36256(10) 0.10956(6)
Cd1_3 Cd 1.38363(13) 1.36256(10) 1.10956(6)
Cd1A_2 Cd 0.61637(13) 0.63744(10) 0.89044(6)
Cd1A_3 Cd -0.38363(13) 0.63744(10) -0.10956(6)
O1A O 0.4667(14) 1.4448(9) 0.8003(6)
O2A O 0.4102(13) 1.6662(9) 0.9602(6)
H1A H 0.4187 1.6462 1.0010
H2A H 0.3795 1.7199 0.9529
O3A O 0.6059(13) 1.4039(9) 0.9063(6)
O4A O 0.4698(16) 1.2215(12) 0.4913(8)
H3A H 0.5187 1.2955 0.5155
H4A H 0.3950 1.2111 0.5127
O5A O 0.6500(13) 0.9085(9) 0.9047(6)
O6A O 0.4597(12) 0.7567(9) 0.8197(6)
O6_2 O 0.5403(12) 0.2433(9) 0.1803(6)
O6A_2 O 0.4597(12) 1.7567(9) 0.8197(6)
O7A O 0.1162(13) 1.0001(10) 0.6600(6)
O8A O 0.2781(14) 1.0076(12) 0.5477(7)
O9A O 0.2037(17) 1.2111(15) 0.5453(10)
N1A N 1.291(2) 1.6023(17) 0.5304(9)
N2A N 0.8024(14) 1.6300(12) 0.8078(6)
N3A N 0.3456(15) 0.9230(14) 0.3704(7)
N4A N -0.1824(15) 0.6996(12) 0.0011(7)
N4_2 N 0.1824(15) 0.3004(12) -0.0011(7)
N4A_2 N 0.8176(15) 1.6996(12) 1.0011(7)
C1A C 1.328(3) 1.5470(18) 0.5889(11)
H5A H 1.4248 1.5057 0.5932
C2A C 1.239(2) 1.5445(16) 0.6438(10)
H6A H 1.2740 1.5023 0.6828
C3A C 1.052(2) 1.6657(16) 0.5776(10)
H7A H 0.9544 1.7057 0.5707
C4A C 1.150(3) 1.664(2) 0.5282(12)
H8A H 1.1206 1.7085 0.4897
C5A C 1.093(2) 1.6081(14) 0.6390(9)
C6A C 0.993(2) 1.6136(15) 0.6975(9)
C7A C 0.824(2) 1.6085(17) 0.6778(10)
H9A H 0.7714 1.5978 0.6268
C8A C 0.736(2) 1.6193(18) 0.7340(10)
H10A H 0.6230 1.6191 0.7198
C9A C 1.066(2) 1.6303(16) 0.7741(10)
H11A H 1.1789 1.6360 0.7903
C10A C 0.965(2) 1.6384(15) 0.8265(9)
H12A H 1.0144 1.6506 0.8781
C11A C 0.300(2) 0.7936(17) 0.3372(8)
H13A H 0.3377 0.7310 0.3642
C12A C 0.2020(19) 0.7453(15) 0.2654(9)
H14A H 0.1752 0.6525 0.2446
C13A C 0.291(2) 1.0072(17) 0.3306(10)
H15A H 0.3245 1.0990 0.3525
C14A C 0.1882(19) 0.9723(15) 0.2594(8)
H16A H 0.1502 1.0387 0.2356
C15A C 0.1421(18) 0.8366(16) 0.2237(8)
C16A C 0.0294(17) 0.7906(13) 0.1464(8)
C17A C 0.0299(18) 0.8559(14) 0.0903(8)
H17A H 0.1021 0.9330 0.0998
C18A C -0.077(2) 0.8085(15) 0.0185(9)
H18A H -0.0736 0.8555 -0.0187
C19A C -0.079(2) 0.6752(16) 0.1275(9)
H19A H -0.0827 0.6266 0.1639
C20A C -0.182(2) 0.6307(15) 0.0556(9)
H20A H -0.2521 0.5519 0.0442
C21A C 0.4431(18) 1.2151(11) 0.8105(8)
C22A C 0.5094(16) 1.1225(11) 0.8465(8)
H21A H 0.5947 1.1491 0.8897
C23A C 0.4463(16) 0.9862(13) 0.8170(8)
C24A C 0.3169(17) 0.9518(13) 0.7541(7)
H22A H 0.2736 0.8616 0.7347
C25A C 0.2503(17) 1.0468(14) 0.7194(7)
C26A C 0.3159(17) 1.1786(13) 0.7463(8)
H23A H 0.2754 1.2434 0.7217
C27A C 0.5108(16) 1.3640(14) 0.8415(8)
C28A C 0.5247(19) 0.8754(13) 0.8503(9)
C29A C 0.0716(18) 1.0860(16) 0.6106(9)
H24A H -0.0319 1.0485 0.5756
H25A H 0.0564 1.1745 0.6415
C30A C 0.2018(19) 1.1038(17) 0.5627(8)
O10 O 0.7404(16) 0.0951(12) 0.0414(7)
loop_
_geom_bond_atom_site_label_1
_geom_bond_atom_site_label_2
_geom_bond_site_symmetry_1
_geom_bond_site_symmetry_2
Cd1 O1 1_555 1_555
Cd2 O4 1_555 1_555
O1 C27 1_555 1_555
O2 Cd1 1_555 1_555
H1 O2 1_555 1_555
H2 O2 1_555 1_555
O3 Cd1 1_555 1_555
O4 H3 1_555 1_555
H4 O4 1_555 1_555
O5 C28 1_555 1_555
O6 C28 1_555 1_555
O7 C25 1_555 1_555
O8 Cd2 1_555 1_555
O9 C30 1_555 1_555
N1 C1 1_555 1_555
N2 Cd1 1_555 1_555
N3 Cd2 1_555 1_555
N4 C18 1_555 1_555
C1 H5 1_555 1_555
C2 C1 1_555 1_555
H6 C2 1_555 1_555
C3 H7 1_555 1_555
C4 N1 1_555 1_555
H8 C4 1_555 1_555
C5 C2 1_555 1_555
C6 C5 1_555 1_555
C7 C6 1_555 1_555
H9 C7 1_555 1_555
C8 N2 1_555 1_555
H10 C8 1_555 1_555
C9 C6 1_555 1_555
H11 C9 1_555 1_555
C10 N2 1_555 1_555
H12 C10 1_555 1_555
C11 N3 1_555 1_555
H13 C11 1_555 1_555
C12 C11 1_555 1_555
H14 C12 1_555 1_555
C13 N3 1_555 1_555
H15 C13 1_555 1_555
C14 C13 1_555 1_555
H16 C14 1_555 1_555
C15 C12 1_555 1_555
C16 C15 1_555 1_555
C17 C16 1_555 1_555
H17 C17 1_555 1_555
C18 C17 1_555 1_555
H18 C18 1_555 1_555
C19 C16 1_555 1_555
H19 C19 1_555 1_555
C20 N4 1_555 1_555
H20 C20 1_555 1_555
C21 C22 1_555 1_555
C22 H21 1_555 1_555
C23 C22 1_555 1_555
C24 C23 1_555 1_555
H22 C24 1_555 1_555
C25 C24 1_555 1_555
C26 C21 1_555 1_555
H23 C26 1_555 1_555
C27 O3 1_555 1_555
C28 C23 1_555 1_555
C29 O7 1_555 1_555
H24 C29 1_555 1_555
H25 C29 1_555 1_555
C30 O8 1_555 1_555
Cd1A O1A 1_555 1_555
Cd1_2 O6 1_555 1_555
Cd1_3 N4 1_555 1_555
Cd1A_2 O6A 1_555 1_555
Cd1A_3 N4A 1_555 1_555
O1A C27A 1_555 1_555
O2A Cd1A 1_555 1_555
H1A O2A 1_555 1_555
H2A O2A 1_555 1_555
O3A Cd1A 1_555 1_555
O4A Cd2 1_555 1_555
H3A O4A 1_555 1_555
H4A O4A 1_555 1_555
O5A C28A 1_555 1_555
O6A C28A 1_555 1_555
O6_2 Cd1 1_555 1_555
O6A_2 Cd1A 1_555 1_555
O7A C25A 1_555 1_555
O8A Cd2 1_555 1_555
O9A C30A 1_555 1_555
N1A C1A 1_555 1_555
N2A Cd1A 1_555 1_555
N3A Cd2 1_555 1_555
N4A C18A 1_555 1_555
N4_2 Cd1 1_555 1_555
N4A_2 Cd1A 1_555 1_555
C1A H5A 1_555 1_555
C2A C1A 1_555 1_555
H6A C2A 1_555 1_555
C3A H7A 1_555 1_555
C4A N1A 1_555 1_555
H8A C4A 1_555 1_555
C5A C2A 1_555 1_555
C6A C5A 1_555 1_555
C7A C6A 1_555 1_555
H9A C7A 1_555 1_555
C8A N2A 1_555 1_555
H10A C8A 1_555 1_555
C9A C6A 1_555 1_555
H11A C9A 1_555 1_555
C10A N2A 1_555 1_555
H12A C10A 1_555 1_555
C11A N3A 1_555 1_555
H13A C11A 1_555 1_555
C12A C11A 1_555 1_555
H14A C12A 1_555 1_555
C13A N3A 1_555 1_555
H15A C13A 1_555 1_555
C14A C13A 1_555 1_555
H16A C14A 1_555 1_555
C15A C12A 1_555 1_555
C16A C15A 1_555 1_555
C17A C16A 1_555 1_555
H17A C17A 1_555 1_555
C18A C17A 1_555 1_555
H18A C18A 1_555 1_555
C19A C16A 1_555 1_555
H19A C19A 1_555 1_555
C20A N4A 1_555 1_555
H20A C20A 1_555 1_555
C21A C22A 1_555 1_555
C22A H21A 1_555 1_555
C23A C22A 1_555 1_555
C24A C23A 1_555 1_555
H22A C24A 1_555 1_555
C25A C24A 1_555 1_555
C26A C21A 1_555 1_555
H23A C26A 1_555 1_555
C27A O3A 1_555 1_555
C28A C23A 1_555 1_555
C29A O7A 1_555 1_555
H24A C29A 1_555 1_555
H25A C29A 1_555 1_555
C30A O8A 1_555 1_555
C3 C4 1_555 1_555
C3 C5 1_555 1_555
C7 C8 1_555 1_555
C9 C10 1_555 1_555
C14 C15 1_555 1_555
C19 C20 1_555 1_555
C21 C27 1_555 1_555
C25 C26 1_555 1_555
C29 C30 1_555 1_555
C3A C4A 1_555 1_555
C3A C5A 1_555 1_555
C7A C8A 1_555 1_555
C9A C10A 1_555 1_555
C14A C15A 1_555 1_555
C19A C20A 1_555 1_555
C21A C27A 1_555 1_555
C25A C26A 1_555 1_555
C29A C30A 1_555 1_555

#END
