
#######################################################################
#
#                 Cambridge Crystallographic Data Centre
#                                CCDC 
#
#######################################################################
#
# If this CIF has been generated from an entry in the Cambridge 
# Structural Database, then it will include bibliographic, chemical, 
# crystal, experimental, refinement or atomic coordinate data resulting 
# from the CCDC's data processing and validation procedures.
#
#######################################################################

data_SIJLUT
_symmetry_cell_setting           triclinic
_symmetry_space_group_name_H-M   'P -1'
_symmetry_Int_Tables_number      2
_space_group_name_Hall           '-P 1'
loop_
_symmetry_equiv_pos_site_id
_symmetry_equiv_pos_as_xyz
1 x,y,z
2 -x,-y,-z
_cell_length_a                   11.5513(4)
_cell_length_b                   12.2888(4)
_cell_length_c                   13.3152(5)
_cell_angle_alpha                64.5410(10)
_cell_angle_beta                 72.4970(10)
_cell_angle_gamma                62.5390(10)
_cell_volume                     1501.83
loop_
_atom_site_label
_atom_site_type_symbol
_atom_site_fract_x
_atom_site_fract_y
_atom_site_fract_z
Cd1 Cd 0.60836(4) -0.12816(4) 0.95602(4)
Cd2 Cd 0.66670(4) 0.15316(5) 0.74372(4)
O1 O 0.3110(6) -0.1404(6) 0.9543(4)
O2 O 0.5818(4) 0.0772(4) 0.9206(4)
H1 H 0.6101 0.0887 0.9473
O3 O 0.4789(5) -0.0971(6) 0.8364(4)
O5 O -0.1276(5) 0.0900(6) 0.8116(5)
O6 O -0.1277(5) 0.1326(6) 0.6347(5)
O7 O 0.3401(5) 0.1044(5) 0.4580(4)
O8 O 0.2480(5) 0.1177(5) 0.2179(4)
O9 O 0.3438(5) -0.0524(5) 0.3615(4)
N1 N 0.6583(6) -0.3535(6) 1.0452(5)
N2 N 0.8105(6) -0.2307(6) 1.0350(5)
N3 N 0.4502(6) 0.2903(6) 0.6940(5)
N4 N 0.6268(7) 0.3779(6) 0.6945(6)
C1 C 0.5800(8) -0.4104(8) 1.0535(6)
H2 H 0.4987 -0.3586 1.0271
C2 C 0.6169(10) -0.5467(9) 1.1011(8)
H3 H 0.5609 -0.5843 1.1054
C3 C 0.7358(11) -0.6234(9) 1.1409(7)
H4 H 0.7615 -0.7136 1.1718
C4 C 0.8192(8) -0.5651(7) 1.1348(6)
C5 C 0.9460(9) -0.6384(8) 1.1721(7)
H5 H 0.9763 -0.7290 1.2024
C6 C 1.0222(9) -0.5783(9) 1.1641(7)
H6 H 1.1048 -0.6285 1.1881
C7 C 0.9792(8) -0.4383(8) 1.1193(6)
C8 C 1.0543(8) -0.3716(10) 1.1107(7)
H7 H 1.1372 -0.4186 1.1344
C9 C 1.0080(8) -0.2394(10) 1.0682(7)
H8 H 1.0564 -0.1946 1.0649
C10 C 0.8847(8) -0.1723(9) 1.0294(7)
H9 H 0.8536 -0.0817 0.9981
C11 C 0.8552(7) -0.3634(7) 1.0801(6)
C12 C 0.7751(7) -0.4278(7) 1.0862(6)
C13 C 0.7137(11) 0.4200(11) 0.6940(9)
H10 H 0.7934 0.3593 0.7205
C14 C 0.6894(15) 0.5528(13) 0.6549(11)
H11 H 0.7521 0.5792 0.6566
C15 C 0.5760(15) 0.6426(11) 0.6148(10)
H12 H 0.5609 0.7308 0.5881
C16 C 0.4788(11) 0.6033(8) 0.6130(7)
C17 C 0.3573(13) 0.6911(9) 0.5739(7)
H13 H 0.3373 0.7804 0.5478
C18 C 0.2677(12) 0.6479(9) 0.5733(8)
H14 H 0.1886 0.7081 0.5455
C19 C 0.2945(10) 0.5098(9) 0.6155(7)
C20 C 0.2073(9) 0.4568(11) 0.6207(8)
H15 H 0.1249 0.5122 0.5973
C21 C 0.2416(9) 0.3264(10) 0.6594(8)
H16 H 0.1844 0.2914 0.6612
C22 C 0.3646(8) 0.2449(8) 0.6968(6)
H17 H 0.3874 0.1550 0.7247
C23 C 0.4166(8) 0.4209(7) 0.6539(6)
C24 C 0.5118(10) 0.4668(8) 0.6554(6)
C25 C 0.2863(6) -0.0328(7) 0.7620(6)
C26 C 0.1517(7) -0.0035(7) 0.7828(6)
H18 H 0.1111 -0.0263 0.8563
C27 C 0.0766(7) 0.0608(7) 0.6928(6)
C28 C 0.1384(7) 0.0934(7) 0.5828(6)
H19 H 0.0900 0.1326 0.5232
C29 C 0.2709(6) 0.0675(6) 0.5626(5)
C30 C 0.3456(6) 0.0032(6) 0.6521(5)
H20 H 0.4354 -0.0154 0.6377
C31 C 0.3641(6) -0.0966(7) 0.8587(5)
C32 C -0.0688(7) 0.0958(7) 0.7169(6)
C33 C 0.2796(7) 0.1634(7) 0.3588(5)
H21 H 0.3187 0.2237 0.3028
H22 H 0.1870 0.2136 0.3754
C34 C 0.2926(6) 0.0664(7) 0.3100(5)
Cd1A Cd 0.39164(4) 0.12816(4) 1.04398(4)
Cd1A_2 Cd 0.39164(4) 0.12816(4) 0.04398(4)
Cd2_2 Cd -0.33330(4) 0.15316(5) 0.74372(4)
Cd2A Cd 0.33330(4) -0.15316(5) 0.25628(4)
O2A O 0.4182(4) -0.0772(4) 1.0794(4)
H1A H 0.3899 -0.0887 1.0527
O5_2 O 0.8724(5) 0.0900(6) 0.8116(5)
O6_2 O 0.8723(5) 0.1326(6) 0.6347(5)
O8A O 0.7520(5) -0.1177(5) 0.7821(4)
O9A O 0.6562(5) 0.0524(5) 0.6385(4)
O4 O -0.013(2) 0.098(2) 0.417(2)
loop_
_geom_bond_atom_site_label_1
_geom_bond_atom_site_label_2
_geom_bond_site_symmetry_1
_geom_bond_site_symmetry_2
Cd1 O2 1_555 1_555
Cd2 O2 1_555 1_555
O1 C31 1_555 1_555
O2 H1 1_555 1_555
O3 Cd1 1_555 1_555
O5 C32 1_555 1_555
O6 C32 1_555 1_555
O7 C29 1_555 1_555
O8 C34 1_555 1_555
O9 C34 1_555 1_555
N1 Cd1 1_555 1_555
N2 Cd1 1_555 1_555
N3 Cd2 1_555 1_555
N4 Cd2 1_555 1_555
C1 N1 1_555 1_555
H2 C1 1_555 1_555
C2 C1 1_555 1_555
H3 C2 1_555 1_555
C3 C2 1_555 1_555
H4 C3 1_555 1_555
C4 C3 1_555 1_555
C5 C4 1_555 1_555
H5 C5 1_555 1_555
C6 C5 1_555 1_555
H6 C6 1_555 1_555
C7 C6 1_555 1_555
C8 C7 1_555 1_555
H7 C8 1_555 1_555
C9 C8 1_555 1_555
H8 C9 1_555 1_555
C10 N2 1_555 1_555
H9 C10 1_555 1_555
C11 N2 1_555 1_555
C12 N1 1_555 1_555
C13 N4 1_555 1_555
H10 C13 1_555 1_555
C14 C13 1_555 1_555
H11 C14 1_555 1_555
C15 C14 1_555 1_555
H12 C15 1_555 1_555
C16 C15 1_555 1_555
C17 C16 1_555 1_555
H13 C17 1_555 1_555
C18 C17 1_555 1_555
H14 C18 1_555 1_555
C19 C18 1_555 1_555
C20 C19 1_555 1_555
H15 C20 1_555 1_555
C21 C20 1_555 1_555
H16 C21 1_555 1_555
C22 N3 1_555 1_555
H17 C22 1_555 1_555
C23 N3 1_555 1_555
C24 N4 1_555 1_555
C25 C26 1_555 1_555
C26 H18 1_555 1_555
C27 C26 1_555 1_555
C28 C27 1_555 1_555
H19 C28 1_555 1_555
C29 C28 1_555 1_555
C30 C25 1_555 1_555
H20 C30 1_555 1_555
C31 O3 1_555 1_555
C32 C27 1_555 1_555
C33 O7 1_555 1_555
H21 C33 1_555 1_555
H22 C33 1_555 1_555
C34 C33 1_555 1_555
Cd1A O2 1_555 1_555
Cd1A_2 O8 1_555 1_555
Cd2_2 O5 1_555 1_555
Cd2A O9 1_555 1_555
O2A Cd1 1_555 1_555
H1A O2A 1_555 1_555
O5_2 Cd2 1_555 1_555
O6_2 Cd2 1_555 1_555
O8A Cd1 1_555 1_555
O9A Cd2 1_555 1_555
O6 Cd2_2 1_555 1_555
C4 C12 1_555 1_555
C7 C11 1_555 1_555
C9 C10 1_555 1_555
C11 C12 1_555 1_555
C16 C24 1_555 1_555
C19 C23 1_555 1_555
C21 C22 1_555 1_555
C23 C24 1_555 1_555
C25 C31 1_555 1_555
C29 C30 1_555 1_555
Cd1A O2A 1_555 1_555

#END
