
#######################################################################
#
#                 Cambridge Crystallographic Data Centre
#                                CCDC 
#
#######################################################################
#
# If this CIF has been generated from an entry in the Cambridge 
# Structural Database, then it will include bibliographic, chemical, 
# crystal, experimental, refinement or atomic coordinate data resulting 
# from the CCDC's data processing and validation procedures.
#
#######################################################################

data_SIJMAA
_symmetry_cell_setting           monoclinic
_symmetry_space_group_name_H-M   'P 21/n'
_symmetry_Int_Tables_number      14
_space_group_name_Hall           '-P 2yn'
loop_
_symmetry_equiv_pos_site_id
_symmetry_equiv_pos_as_xyz
1 x,y,z
2 1/2-x,1/2+y,1/2-z
3 -x,-y,-z
4 1/2+x,1/2-y,1/2+z
_cell_length_a                   9.424(18)
_cell_length_b                   14.37(3)
_cell_length_c                   15.40(3)
_cell_angle_alpha                90
_cell_angle_beta                 104.87(6)
_cell_angle_gamma                90
_cell_volume                     2015.67
loop_
_atom_site_label
_atom_site_type_symbol
_atom_site_fract_x
_atom_site_fract_y
_atom_site_fract_z
Zn1 Zn -0.57789(4) 0.13206(3) 0.15016(3)
Zn2 Zn -0.59393(4) -0.13118(3) -0.00249(3)
O2 O -0.7484(3) -0.1039(2) 0.05345(18)
O3 O -0.4053(3) 0.07963(18) 0.11690(16)
O4 O -0.6321(3) -0.0216(2) 0.17420(17)
N1 N -0.7549(3) 0.1708(2) 0.2045(2)
N2 N -0.4770(4) 0.1435(2) 0.2894(2)
C1 C -0.8936(5) 0.1821(3) 0.1579(3)
H1 H -0.9160 0.1759 0.0958
C2 C -1.0062(5) 0.2025(4) 0.1974(4)
H2 H -1.1022 0.2103 0.1630
C3 C -0.9707(6) 0.2108(4) 0.2894(4)
H3 H -1.0432 0.2254 0.3183
C4 C -0.8283(6) 0.1974(4) 0.3387(3)
H4 H -0.8042 0.2020 0.4010
C5 C -0.7219(5) 0.1772(3) 0.2948(2)
C6 C -0.5657(5) 0.1629(3) 0.3422(3)
C7 C -0.5111(6) 0.1678(4) 0.4345(3)
H5 H -0.5732 0.1809 0.4712
C8 C -0.3627(7) 0.1529(4) 0.4715(3)
H6 H -0.3244 0.1557 0.5334
C9 C -0.2733(6) 0.1341(3) 0.4175(4)
H7 H -0.1734 0.1244 0.4416
C10 C -0.3339(5) 0.1296(3) 0.3258(3)
H8 H -0.2732 0.1166 0.2883
C11 C -0.8806(4) -0.0677(2) 0.1588(2)
C12 C -1.0116(4) -0.0885(2) 0.0970(2)
H9 H -1.0131 -0.0974 0.0369
C13 C -0.8792(4) -0.0517(2) 0.2483(2)
H10 H -0.7921 -0.0357 0.2899
C14 C -0.7413(4) -0.0630(3) 0.1282(2)
C15 C -1.0084(4) -0.0596(2) 0.2749(2)
C16 C -1.1394(4) -0.0820(2) 0.2143(2)
H11 H -1.2254 -0.0875 0.2330
C17 C -1.1400(4) -0.0962(2) 0.1241(2)
C18 C -1.2814(4) -0.1162(2) 0.0545(2)
O5 O -1.2746(3) -0.12441(19) -0.02436(16)
O6 O -1.3963(3) -0.12342(18) 0.08227(17)
O7 O -0.9978(3) -0.04099(18) 0.36475(15)
C19 C -1.0950(4) -0.0902(3) 0.4060(2)
H12 H -1.0878 -0.0637 0.4649
H13 H -1.1950 -0.0815 0.3703
C20 C -1.0630(4) -0.1938(2) 0.4162(2)
O8 O -0.9737(3) -0.22820(19) 0.37836(18)
O9 O -1.1333(3) -0.23491(19) 0.46435(18)
Zn1B Zn -1.42211(4) -0.13206(3) -0.15016(3)
Zn1A Zn -0.92211(4) -0.36794(3) 0.34984(3)
Zn2B Zn -0.40607(4) 0.13118(3) 0.00249(3)
Zn2_2 Zn -1.59393(4) -0.13118(3) -0.00249(3)
Zn2C Zn -1.09393(4) -0.36882(3) 0.49751(3)
O3B O -0.5947(3) -0.07963(18) -0.11690(16)
O5B O -0.7254(3) 0.12441(19) 0.02436(16)
O6_2 O -0.3963(3) -0.12342(18) 0.08227(17)
O8A O -0.5263(3) 0.27180(19) 0.12164(18)
O9C O -0.6333(3) -0.26509(19) -0.03565(18)
O1 O -0.4715(13) -0.0810(8) 0.3488(7)
loop_
_geom_bond_atom_site_label_1
_geom_bond_atom_site_label_2
_geom_bond_site_symmetry_1
_geom_bond_site_symmetry_2
Zn1 O3 1_555 1_555
Zn2 O2 1_555 1_555
O2 C14 1_555 1_555
O3 Zn2B 1_555 1_555
O4 Zn1 1_555 1_555
N1 Zn1 1_555 1_555
N2 Zn1 1_555 1_555
C1 N1 1_555 1_555
H1 C1 1_555 1_555
C2 C1 1_555 1_555
H2 C2 1_555 1_555
C3 C2 1_555 1_555
H3 C3 1_555 1_555
C4 C3 1_555 1_555
H4 C4 1_555 1_555
C5 N1 1_555 1_555
C6 N2 1_555 1_555
C7 C6 1_555 1_555
H5 C7 1_555 1_555
C8 C7 1_555 1_555
H6 C8 1_555 1_555
C9 C8 1_555 1_555
H7 C9 1_555 1_555
C10 N2 1_555 1_555
H8 C10 1_555 1_555
C11 C12 1_555 1_555
C12 H9 1_555 1_555
C13 C11 1_555 1_555
H10 C13 1_555 1_555
C14 O4 1_555 1_555
C15 C13 1_555 1_555
C16 C15 1_555 1_555
H11 C16 1_555 1_555
C17 C12 1_555 1_555
C18 C17 1_555 1_555
O5 C18 1_555 1_555
O6 C18 1_555 1_555
O7 C15 1_555 1_555
C19 O7 1_555 1_555
H12 C19 1_555 1_555
H13 C19 1_555 1_555
C20 C19 1_555 1_555
O8 C20 1_555 1_555
O9 C20 1_555 1_555
Zn1B O5 1_555 1_555
Zn1A O8 1_555 1_555
Zn2_2 O6 1_555 1_555
Zn2C O9 1_555 1_555
O3B Zn2 1_555 1_555
O5B Zn1 1_555 1_555
O6_2 Zn2 1_555 1_555
O8A Zn1 1_555 1_555
O9C Zn2 1_555 1_555
C4 C5 1_555 1_555
C5 C6 1_555 1_555
C9 C10 1_555 1_555
C11 C14 1_555 1_555
C16 C17 1_555 1_555

#END
