
#######################################################################
#
#                 Cambridge Crystallographic Data Centre
#                                CCDC 
#
#######################################################################
#
# If this CIF has been generated from an entry in the Cambridge 
# Structural Database, then it will include bibliographic, chemical, 
# crystal, experimental, refinement or atomic coordinate data resulting 
# from the CCDC's data processing and validation procedures.
#
#######################################################################

data_SIJMEE
_symmetry_cell_setting           triclinic
_symmetry_space_group_name_H-M   'P -1'
_symmetry_Int_Tables_number      2
_space_group_name_Hall           '-P 1'
loop_
_symmetry_equiv_pos_site_id
_symmetry_equiv_pos_as_xyz
1 x,y,z
2 -x,-y,-z
_cell_length_a                   8.7001(2)
_cell_length_b                   10.0485(2)
_cell_length_c                   14.2342(3)
_cell_angle_alpha                105.9560(12)
_cell_angle_beta                 94.3267(12)
_cell_angle_gamma                107.7168(12)
_cell_volume                     1122.38
loop_
_atom_site_label
_atom_site_type_symbol
_atom_site_fract_x
_atom_site_fract_y
_atom_site_fract_z
Ag1 Ag 0.0000 0.0000 0.0000
Ag2 Ag 0.0000 0.0000 0.5000
N1 N -0.0283(3) 0.0193(2) 0.35113(15)
N2 N -0.0128(3) -0.0104(2) 0.15146(15)
C1 C -0.1565(3) -0.0777(3) 0.17912(19)
C2 C -0.2985(3) -0.1629(3) 0.1063(2)
H1 H -0.2933 -0.1778 0.0380
C3 C -0.4429(3) -0.2233(3) 0.1350(2)
H2 H -0.5381 -0.2795 0.0861
C4 C -0.4531(3) -0.2038(3) 0.2361(2)
H3 H -0.5548 -0.2462 0.2546
C5 C -0.3160(3) -0.1233(3) 0.3079(2)
H4 H -0.3228 -0.1107 0.3759
C6 C -0.1660(3) -0.0601(3) 0.28029(19)
C7 C 0.1090(3) 0.0828(3) 0.32344(19)
C8 C 0.2556(3) 0.1679(3) 0.40257(19)
C9 C 0.3930(3) 0.1257(3) 0.4044(2)
H5 H 0.3957 0.0423 0.3539
C10 C 0.5267(4) 0.2058(4) 0.4802(2)
H6 H 0.6199 0.1754 0.4826
C11 C 0.5248(4) 0.3292(4) 0.5520(2)
H7 H 0.6182 0.3854 0.6023
C12 C 0.3880(4) 0.3716(4) 0.5513(2)
H8 H 0.3868 0.4560 0.6015
C13 C 0.2518(4) 0.2902(3) 0.4767(2)
H9 H 0.1567 0.3179 0.4765
C14 C 0.1166(3) 0.0701(3) 0.22146(19)
C15 C 0.2695(3) 0.1488(3) 0.19103(18)
C16 C 0.3615(3) 0.0709(3) 0.1403(2)
H10 H 0.3255 -0.0333 0.1229
C17 C 0.5068(3) 0.1467(3) 0.1151(2)
H11 H 0.5710 0.0940 0.0815
C18 C 0.5580(3) 0.2976(3) 0.1388(2)
H12 H 0.6573 0.3486 0.1214
C19 C 0.4651(3) 0.3753(3) 0.1880(2)
H13 H 0.4996 0.4793 0.2032
C20 C 0.3217(3) 0.3010(3) 0.2147(2)
H14 H 0.2589 0.3543 0.2494
O6 O -0.1109(3) 0.2173(2) 0.06261(17)
H19 H -0.0980 0.2451 0.1273
C22 C -0.0305(5) 0.3444(4) 0.0351(3)
H20 H -0.0802 0.4199 0.0593
H21 H -0.0423 0.3174 -0.0374
H22 H 0.0861 0.3830 0.0643
Ag2_2 Ag 0.0000 0.0000 -0.5000
N1A N 0.0283(3) -0.0193(2) -0.35113(15)
N1A_2 N 0.0283(3) -0.0193(2) 0.64887(15)
N2A N 0.0128(3) 0.0104(2) -0.15146(15)
C1A C 0.1565(3) 0.0777(3) -0.17912(19)
C2A C 0.2985(3) 0.1629(3) -0.1063(2)
H1A H 0.2933 0.1778 -0.0380
C3A C 0.4429(3) 0.2233(3) -0.1350(2)
H2A H 0.5381 0.2795 -0.0861
C4A C 0.4531(3) 0.2038(3) -0.2361(2)
H3A H 0.5548 0.2462 -0.2546
C5A C 0.3160(3) 0.1233(3) -0.3079(2)
H4A H 0.3228 0.1107 -0.3759
C6A C 0.1660(3) 0.0601(3) -0.28029(19)
C7A C -0.1090(3) -0.0828(3) -0.32344(19)
C8A C -0.2556(3) -0.1679(3) -0.40257(19)
C9A C -0.3930(3) -0.1257(3) -0.4044(2)
H5A H -0.3957 -0.0423 -0.3539
C10A C -0.5267(4) -0.2058(4) -0.4802(2)
H6A H -0.6199 -0.1754 -0.4826
C11A C -0.5248(4) -0.3292(4) -0.5520(2)
H7A H -0.6182 -0.3854 -0.6023
C12A C -0.3880(4) -0.3716(4) -0.5513(2)
H8A H -0.3868 -0.4560 -0.6015
C13A C -0.2518(4) -0.2902(3) -0.4767(2)
H9A H -0.1567 -0.3179 -0.4765
C14A C -0.1166(3) -0.0701(3) -0.22146(19)
C15A C -0.2695(3) -0.1488(3) -0.19103(18)
C16A C -0.3615(3) -0.0709(3) -0.1403(2)
H10A H -0.3255 0.0333 -0.1229
C17A C -0.5068(3) -0.1467(3) -0.1151(2)
H11A H -0.5710 -0.0940 -0.0815
C18A C -0.5580(3) -0.2976(3) -0.1388(2)
H12A H -0.6573 -0.3486 -0.1214
C19A C -0.4651(3) -0.3753(3) -0.1880(2)
H13A H -0.4996 -0.4793 -0.2032
C20A C -0.3217(3) -0.3010(3) -0.2147(2)
H14A H -0.2589 -0.3543 -0.2494
O6A O 0.1109(3) -0.2173(2) -0.06261(17)
H19A H 0.0980 -0.2451 -0.1273
C22A C 0.0305(5) -0.3444(4) -0.0351(3)
H20A H 0.0802 -0.4199 -0.0593
H21A H 0.0423 -0.3174 0.0374
H22A H -0.0861 -0.3830 -0.0643
Cl1 Cl -0.06610(8) 0.31414(8) 0.70606(6)
O1 O -0.1401(3) 0.4283(2) 0.72156(17)
O2 O -0.1368(3) 0.2177(3) 0.76074(17)
O3 O -0.1008(3) 0.2325(3) 0.60126(18)
O4 O 0.1065(3) 0.3795(3) 0.7390(2)
O5 O 0.9336(3) 0.2969(3) 0.27239(17)
H15 H 0.9988 0.3962 0.2844
C21 C 0.8200(4) 0.2992(4) 0.3398(3)
H16 H 0.8729 0.3060 0.4050
H17 H 0.7245 0.2088 0.3148
H18 H 0.7846 0.3845 0.3457
loop_
_geom_bond_atom_site_label_1
_geom_bond_atom_site_label_2
_geom_bond_site_symmetry_1
_geom_bond_site_symmetry_2
Ag1 N2 1_555 1_555
Ag2 N1 1_555 1_555
N1 C6 1_555 1_555
N2 C1 1_555 1_555
C1 C2 1_555 1_555
C2 H1 1_555 1_555
C3 C2 1_555 1_555
H2 C3 1_555 1_555
C4 C3 1_555 1_555
H3 C4 1_555 1_555
C5 C4 1_555 1_555
H4 C5 1_555 1_555
C6 C1 1_555 1_555
C7 N1 1_555 1_555
C8 C7 1_555 1_555
C9 C8 1_555 1_555
H5 C9 1_555 1_555
C10 C9 1_555 1_555
H6 C10 1_555 1_555
C11 C10 1_555 1_555
H7 C11 1_555 1_555
C12 C11 1_555 1_555
H8 C12 1_555 1_555
C13 C8 1_555 1_555
H9 C13 1_555 1_555
C14 N2 1_555 1_555
C15 C14 1_555 1_555
C16 C15 1_555 1_555
H10 C16 1_555 1_555
C17 C16 1_555 1_555
H11 C17 1_555 1_555
C18 C17 1_555 1_555
H12 C18 1_555 1_555
C19 C18 1_555 1_555
H13 C19 1_555 1_555
C20 C15 1_555 1_555
H14 C20 1_555 1_555
Cl1 O1 1_555 1_555
O2 Cl1 1_555 1_555
O3 Cl1 1_555 1_555
O4 Cl1 1_555 1_555
O5 H15 1_555 1_555
C21 O5 1_555 1_555
H16 C21 1_555 1_555
H17 C21 1_555 1_555
H18 C21 1_555 1_555
O6 Ag1 1_555 1_555
H19 O6 1_555 1_555
C22 O6 1_555 1_555
H20 C22 1_555 1_555
H21 C22 1_555 1_555
H22 C22 1_555 1_555
Ag2_2 N1A 1_555 1_555
N1A C6A 1_555 1_555
N1A_2 Ag2 1_555 1_555
N2A Ag1 1_555 1_555
C1A N2A 1_555 1_555
C2A C1A 1_555 1_555
H1A C2A 1_555 1_555
C3A C2A 1_555 1_555
H2A C3A 1_555 1_555
C4A C3A 1_555 1_555
H3A C4A 1_555 1_555
C5A C4A 1_555 1_555
H4A C5A 1_555 1_555
C6A C1A 1_555 1_555
C7A N1A 1_555 1_555
C8A C7A 1_555 1_555
C9A C8A 1_555 1_555
H5A C9A 1_555 1_555
C10A C9A 1_555 1_555
H6A C10A 1_555 1_555
C11A C10A 1_555 1_555
H7A C11A 1_555 1_555
C12A C11A 1_555 1_555
H8A C12A 1_555 1_555
C13A C8A 1_555 1_555
H9A C13A 1_555 1_555
C14A N2A 1_555 1_555
C15A C14A 1_555 1_555
C16A C15A 1_555 1_555
H10A C16A 1_555 1_555
C17A C16A 1_555 1_555
H11A C17A 1_555 1_555
C18A C17A 1_555 1_555
H12A C18A 1_555 1_555
C19A C18A 1_555 1_555
H13A C19A 1_555 1_555
C20A C15A 1_555 1_555
H14A C20A 1_555 1_555
O6A Ag1 1_555 1_555
H19A O6A 1_555 1_555
C22A O6A 1_555 1_555
H20A C22A 1_555 1_555
H21A C22A 1_555 1_555
H22A C22A 1_555 1_555
C5 C6 1_555 1_555
C7 C14 1_555 1_555
C12 C13 1_555 1_555
C19 C20 1_555 1_555
C5A C6A 1_555 1_555
C7A C14A 1_555 1_555
C12A C13A 1_555 1_555
C19A C20A 1_555 1_555

#END
