
#######################################################################
#
#                 Cambridge Crystallographic Data Centre
#                                CCDC 
#
#######################################################################
#
# If this CIF has been generated from an entry in the Cambridge 
# Structural Database, then it will include bibliographic, chemical, 
# crystal, experimental, refinement or atomic coordinate data resulting 
# from the CCDC's data processing and validation procedures.
#
#######################################################################

data_SIJNEF
_symmetry_cell_setting           triclinic
_symmetry_space_group_name_H-M   'P -1'
_symmetry_Int_Tables_number      2
_space_group_name_Hall           '-P 1'
loop_
_symmetry_equiv_pos_site_id
_symmetry_equiv_pos_as_xyz
1 x,y,z
2 -x,-y,-z
_cell_length_a                   10.2077(6)
_cell_length_b                   8.0135(5)
_cell_length_c                   6.3337(4)
_cell_angle_alpha                97.701(4)
_cell_angle_beta                 97.213(4)
_cell_angle_gamma                108.767(4)
_cell_volume                     478.205
loop_
_atom_site_label
_atom_site_type_symbol
_atom_site_fract_x
_atom_site_fract_y
_atom_site_fract_z
Ni1 Ni 0.5454(3) 0.2078(4) -0.4605(5)
Ni2 Ni 0.50000 0.00000 0.00000
O1 O 0.7424(7) 0.261(3) -0.2861(14)
O2 O 0.6791(12) 0.2144(15) 0.030(2)
O3 O 1.3502(7) 0.184(2) 0.3919(14)
O4 O 1.3911(17) 0.1701(18) 0.042(2)
O5 O 0.4504(11) 0.0029(8) -0.3178(6)
O6 O 0.5202(19) 0.3863(18) -0.2237(20)
O7 O 0.6445(17) 0.4161(16) -0.597(3)
C1 C 0.7782(10) 0.260(3) -0.0808(16)
C2 C 0.9215(11) 0.240(3) 0.0066(15)
C3 C 0.9717(13) 0.235(3) 0.2232(16)
C4 C 1.1055(14) 0.225(4) 0.2836(19)
C5 C 1.1846(13) 0.226(3) 0.1177(16)
C6 C 1.1528(12) 0.265(4) -0.087(2)
C7 C 1.0166(11) 0.269(3) -0.139(2)
C8 C 1.3253(15) 0.203(3) 0.1948(12)
H1 H 0.35127 -0.00469 -0.33669
H2 H 0.73274 0.47355 -0.49024
H3 H 0.67087 0.35719 -0.72904
H4 H 0.45249 0.43798 -0.28988
H5 H 0.47391 0.31780 -0.11625
H6 H 0.90048 0.22790 0.33996
H7 H 1.14216 0.20291 0.44231
H8 H 1.22622 0.27910 -0.19932
H9 H 0.97933 0.29313 -0.29718
Ni1A Ni 0.4546(3) -0.2078(4) 0.4605(5)
Ni1_2 Ni 1.5454(3) 0.2078(4) 0.5395(5)
Ni1A_2 Ni 0.4546(3) -0.2078(4) -0.5395(5)
Ni1A_3 Ni -0.5454(3) -0.2078(4) -0.5395(5)
Ni1_3 Ni 0.5454(3) 0.2078(4) 0.5395(5)
Ni2_2 Ni 1.50000 0.00000 0.00000
Ni2_3 Ni -0.50000 0.00000 0.00000
O1A O 0.2576(7) -0.261(3) 0.2861(14)
O2A O 0.3209(12) -0.2144(15) -0.030(2)
O3A O -0.3502(7) -0.184(2) -0.3919(14)
O3_2 O 0.3502(7) 0.184(2) -0.6081(14)
O3A_2 O 0.6498(7) -0.184(2) 0.6081(14)
O4A O -0.3911(17) -0.1701(18) -0.042(2)
O4_2 O 0.3911(17) 0.1701(18) 0.042(2)
O4A_2 O 0.6089(17) -0.1701(18) -0.042(2)
O5A O 0.5496(11) -0.0029(8) 0.3178(6)
O5A_2 O 0.5496(11) -0.0029(8) -0.6822(6)
O5_2 O 0.4504(11) 0.0029(8) 0.6822(6)
O6A O 0.4798(19) -0.3863(18) 0.2237(20)
O7A O 0.3555(17) -0.4161(16) 0.597(3)
C1A C 0.2218(10) -0.260(3) 0.0808(16)
C2A C 0.0785(11) -0.240(3) -0.0066(15)
C3A C 0.0283(13) -0.235(3) -0.2232(16)
C4A C -0.1055(14) -0.225(4) -0.2836(19)
C5A C -0.1846(13) -0.226(3) -0.1177(16)
C6A C -0.1528(12) -0.265(4) 0.087(2)
C7A C -0.0166(11) -0.269(3) 0.139(2)
C8A C -0.3253(15) -0.203(3) -0.1948(12)
H1A H 0.64873 0.00469 0.33669
H1A_2 H 0.64873 0.00469 -0.66331
H1_2 H 0.35127 -0.00469 0.66331
H2A H 0.26726 -0.47355 0.49024
H3A H 0.32913 -0.35719 0.72904
H4A H 0.54751 -0.43798 0.28988
H5A H 0.52609 -0.31780 0.11625
H6A H 0.09952 -0.22790 -0.33996
H7A H -0.14216 -0.20291 -0.44231
H8A H -0.22622 -0.27910 0.19932
H9A H 0.02067 -0.29313 0.29718
loop_
_geom_bond_atom_site_label_1
_geom_bond_atom_site_label_2
_geom_bond_site_symmetry_1
_geom_bond_site_symmetry_2
Ni1 O1 1_555 1_555
Ni2 O2 1_555 1_555
O1 C1 1_555 1_555
O2 C1 1_555 1_555
O3 C8 1_555 1_555
O4 C8 1_555 1_555
O5 Ni1 1_555 1_555
O6 Ni1 1_555 1_555
O7 Ni1 1_555 1_555
C1 C2 1_555 1_555
C2 C3 1_555 1_555
C3 C4 1_555 1_555
C4 C5 1_555 1_555
C5 C6 1_555 1_555
C6 C7 1_555 1_555
C7 C2 1_555 1_555
C8 C5 1_555 1_555
H1 O5 1_555 1_555
H2 O7 1_555 1_555
H3 O7 1_555 1_555
H4 O6 1_555 1_555
H5 O6 1_555 1_555
H6 C3 1_555 1_555
H7 C4 1_555 1_555
H8 C6 1_555 1_555
H9 C7 1_555 1_555
Ni1A O1A 1_555 1_555
Ni1_2 O3 1_555 1_555
Ni1A_2 O5 1_555 1_555
Ni1A_3 O3A 1_555 1_555
Ni1_3 O5A 1_555 1_555
Ni2_2 O4 1_555 1_555
Ni2_3 O4A 1_555 1_555
O1A C1A 1_555 1_555
O2A Ni2 1_555 1_555
O3A C8A 1_555 1_555
O3_2 Ni1 1_555 1_555
O3A_2 Ni1A 1_555 1_555
O4A C8A 1_555 1_555
O4_2 Ni2 1_555 1_555
O4A_2 Ni2 1_555 1_555
O5A Ni2 1_555 1_555
O5A_2 Ni1 1_555 1_555
O5_2 Ni1A 1_555 1_555
O6A Ni1A 1_555 1_555
O7A Ni1A 1_555 1_555
C1A O2A 1_555 1_555
C2A C1A 1_555 1_555
C3A C2A 1_555 1_555
C4A C3A 1_555 1_555
C5A C4A 1_555 1_555
C6A C5A 1_555 1_555
C7A C2A 1_555 1_555
C8A C5A 1_555 1_555
H1A O5A 1_555 1_555
H1A_2 O5A_2 1_555 1_555
H1_2 O5_2 1_555 1_555
H2A O7A 1_555 1_555
H3A O7A 1_555 1_555
H4A O6A 1_555 1_555
H5A O6A 1_555 1_555
H6A C3A 1_555 1_555
H7A C4A 1_555 1_555
H8A C6A 1_555 1_555
H9A C7A 1_555 1_555
Ni2 O5 1_555 1_555
Ni1A O5A 1_555 1_555
Ni1A_2 O5A_2 1_555 1_555
Ni1_3 O5_2 1_555 1_555
C6A C7A 1_555 1_555

#END
