
#######################################################################
#
#                 Cambridge Crystallographic Data Centre
#                                CCDC 
#
#######################################################################
#
# If this CIF has been generated from an entry in the Cambridge 
# Structural Database, then it will include bibliographic, chemical, 
# crystal, experimental, refinement or atomic coordinate data resulting 
# from the CCDC's data processing and validation procedures.
#
#######################################################################

data_SIJNAB01
_symmetry_cell_setting           monoclinic
_symmetry_space_group_name_H-M   'P 21/c'
_symmetry_Int_Tables_number      14
_space_group_name_Hall           '-P 2ybc'
loop_
_symmetry_equiv_pos_site_id
_symmetry_equiv_pos_as_xyz
1 x,y,z
2 -x,1/2+y,1/2-z
3 -x,-y,-z
4 x,1/2-y,1/2+z
_cell_length_a                   13.488(3)
_cell_length_b                   7.0677(19)
_cell_length_c                   21.235(4)
_cell_angle_alpha                90
_cell_angle_beta                 96.279(12)
_cell_angle_gamma                90
_cell_volume                     2012.17
loop_
_atom_site_label
_atom_site_type_symbol
_atom_site_fract_x
_atom_site_fract_y
_atom_site_fract_z
Ag1 Ag 0.90855(5) 0.40623(11) 0.05324(3)
Ag2 Ag 0.85433(6) 0.36036(12) 0.39457(3)
C1 C 0.8062(5) 0.3949(11) 0.1810(3)
C2 C 0.9795(6) 0.4166(11) 0.2034(3)
C3 C 1.0762(6) 0.4299(12) 0.1828(4)
H1 H 1.0830 0.4405 0.1398
C4 C 1.1586(6) 0.4272(12) 0.2257(4)
H2 H 1.2216 0.4332 0.2120
C5 C 1.1493(6) 0.4154(12) 0.2904(4)
H3 H 1.2064 0.4135 0.3193
C6 C 1.0577(6) 0.4068(12) 0.3117(4)
H4 H 1.0529 0.3981 0.3549
C7 C 0.9696(6) 0.4110(11) 0.2686(3)
C8 C 0.7976(6) 0.4038(10) 0.2478(3)
C9 C 0.7209(6) 0.3637(12) 0.1322(3)
C10 C 0.7225(7) 0.2161(13) 0.0903(3)
H5 H 0.7790 0.1400 0.0920
C11 C 0.6418(8) 0.1771(15) 0.0454(4)
H6 H 0.6436 0.0782 0.0167
C12 C 0.5585(8) 0.2925(18) 0.0455(5)
H7 H 0.5030 0.2668 0.0169
C13 C 0.5545(7) 0.4408(17) 0.0855(5)
H8 H 0.4978 0.5164 0.0834
C14 C 0.6355(6) 0.4790(14) 0.1296(4)
H9 H 0.6334 0.5805 0.1573
C15 C 0.7012(6) 0.4037(12) 0.2757(3)
C16 C 0.6238(6) 0.2742(13) 0.2590(4)
H10 H 0.6298 0.1856 0.2273
C17 C 0.5398(7) 0.2785(14) 0.2894(4)
H11 H 0.4893 0.1918 0.2777
C18 C 0.5273(7) 0.4046(17) 0.3361(4)
H12 H 0.4694 0.4040 0.3562
C19 C 0.6028(7) 0.5350(14) 0.3533(4)
H13 H 0.5952 0.6224 0.3851
C20 C 0.6884(6) 0.5361(12) 0.3238(3)
H14 H 0.7381 0.6245 0.3355
N1 N 0.8956(5) 0.4039(9) 0.1598(3)
N2 N 0.8784(5) 0.4057(9) 0.2906(3)
N3 N 0.7451(6) 0.4944(13) -0.0588(4)
N4 N 0.9193(6) 0.8440(11) -0.0040(3)
O1 O 0.8252(5) 0.3932(10) -0.0457(3)
O2 O 0.7227(5) 0.6118(10) -0.0211(3)
O3 O 0.6968(5) 0.4709(13) -0.1105(3)
O4 O 0.9344(5) 0.8278(10) -0.0608(3)
O5 O 0.8635(5) 0.9690(11) 0.0106(4)
O6 O 0.9645(5) 0.7382(10) 0.0360(3)
Ag2C Ag 0.85433(6) 0.13964(12) -0.10543(3)
Ag2C_2 Ag 0.85433(6) 1.13964(12) -0.10543(3)
O1C O 0.8252(5) 0.1068(10) 0.4543(3)
O4C O 0.9344(5) 0.6722(10) 0.4392(3)
loop_
_geom_bond_atom_site_label_1
_geom_bond_atom_site_label_2
_geom_bond_site_symmetry_1
_geom_bond_site_symmetry_2
Ag1 N1 1_555 1_555
Ag2 N2 1_555 1_555
C1 C8 1_555 1_555
C2 C3 1_555 1_555
C3 H1 1_555 1_555
C4 C3 1_555 1_555
H2 C4 1_555 1_555
C5 C4 1_555 1_555
H3 C5 1_555 1_555
C6 C5 1_555 1_555
H4 C6 1_555 1_555
C7 C2 1_555 1_555
C8 C15 1_555 1_555
C9 C1 1_555 1_555
C10 C9 1_555 1_555
H5 C10 1_555 1_555
C11 C10 1_555 1_555
H6 C11 1_555 1_555
C12 C11 1_555 1_555
H7 C12 1_555 1_555
C13 C12 1_555 1_555
H8 C13 1_555 1_555
C14 C9 1_555 1_555
H9 C14 1_555 1_555
C15 C16 1_555 1_555
C16 H10 1_555 1_555
C17 C16 1_555 1_555
H11 C17 1_555 1_555
C18 C17 1_555 1_555
H12 C18 1_555 1_555
C19 C18 1_555 1_555
H13 C19 1_555 1_555
C20 C15 1_555 1_555
H14 C20 1_555 1_555
N1 C1 1_555 1_555
N2 C7 1_555 1_555
N3 O1 1_555 1_555
N4 O4 1_555 1_555
O1 Ag1 1_555 1_555
O2 N3 1_555 1_555
O3 N3 1_555 1_555
O4 Ag2C_2 1_555 1_555
O5 N4 1_555 1_555
O6 Ag1 1_555 1_555
Ag2C O1 1_555 1_555
O1C Ag2 1_555 1_555
O4C Ag2 1_555 1_555
C2 N1 1_555 1_555
C6 C7 1_555 1_555
C8 N2 1_555 1_555
C13 C14 1_555 1_555
C19 C20 1_555 1_555
N4 O6 1_555 1_555

#END
