
#######################################################################
#
#                 Cambridge Crystallographic Data Centre
#                                CCDC 
#
#######################################################################
#
# If this CIF has been generated from an entry in the Cambridge 
# Structural Database, then it will include bibliographic, chemical, 
# crystal, experimental, refinement or atomic coordinate data resulting 
# from the CCDC's data processing and validation procedures.
#
#######################################################################

data_SIJNOP
_symmetry_cell_setting           orthorhombic
_symmetry_space_group_name_H-M   'P b c a'
_symmetry_Int_Tables_number      61
_space_group_name_Hall           '-P 2ac 2ab'
loop_
_symmetry_equiv_pos_site_id
_symmetry_equiv_pos_as_xyz
1 x,y,z
2 1/2-x,-y,1/2+z
3 -x,1/2+y,1/2-z
4 1/2+x,1/2-y,-z
5 -x,-y,-z
6 1/2+x,y,1/2-z
7 x,1/2-y,1/2+z
8 1/2-x,1/2+y,z
_cell_length_a                   10.8773(6)
_cell_length_b                   17.9472(9)
_cell_length_c                   20.5134(11)
_cell_angle_alpha                90
_cell_angle_beta                 90
_cell_angle_gamma                90
_cell_volume                     4004.57
loop_
_atom_site_label
_atom_site_type_symbol
_atom_site_fract_x
_atom_site_fract_y
_atom_site_fract_z
Zn1 Zn 0.98397(2) 0.127424(12) 0.740518(12)
O1 O 1.08081(14) 0.19826(8) 0.79344(7)
O2 O 1.12268(15) 0.10735(9) 0.86439(8)
O3 O 0.89062(14) 0.05140(8) 0.78987(7)
O4 O 0.85063(15) 0.13859(9) 0.86406(8)
O5 O 0.61262(14) 0.07858(9) 0.81098(8)
O6 O 0.46763(18) 0.01784(15) 0.86379(12)
O7 O 1.35577(15) 0.18090(9) 0.80837(8)
O8 O 1.49213(17) 0.25489(14) 0.85511(11)
C1 C 1.12405(19) 0.17297(13) 0.84773(10)
C2 C 1.1693(2) 0.23099(12) 0.89452(10)
C3 C 1.2906(2) 0.25695(13) 0.89611(11)
C4 C 1.3219(3) 0.30996(15) 0.94255(13)
H1 H 1.4021 0.3279 0.9441
C5 C 1.2368(3) 0.33648(18) 0.98633(15)
H2 H 1.2595 0.3721 1.0169
C6 C 1.1182(3) 0.31029(16) 0.98484(14)
H3 H 1.0608 0.3278 1.0147
C7 C 1.0844(2) 0.25811(14) 0.93907(12)
H4 H 1.0038 0.2409 0.9380
C8 C 0.84710(19) 0.07364(13) 0.84463(11)
C9 C 0.7982(2) 0.01463(12) 0.88958(10)
C10 C 0.8835(2) -0.02240(15) 0.92824(13)
H5 H 0.9669 -0.0130 0.9225
C11 C 0.8464(3) -0.07267(17) 0.97477(15)
H6 H 0.9044 -0.0971 1.0003
C12 C 0.7233(3) -0.08671(19) 0.98346(15)
H7 H 0.6978 -0.1200 1.0154
C13 C 0.6374(3) -0.05134(15) 0.94474(13)
H8 H 0.5543 -0.0616 0.9506
C14 C 0.6732(2) -0.00078(13) 0.89718(11)
C15 C 0.5762(2) 0.03415(14) 0.85552(12)
C16 C 1.3882(2) 0.22923(14) 0.85071(12)
Zn1E Zn 0.48397(2) 0.127424(12) 0.759482(12)
Zn1E_2 Zn 1.48397(2) 0.127424(12) 0.759482(12)
O5E O 1.11262(14) 0.07858(9) 0.68902(8)
O7E O 0.85577(15) 0.18090(9) 0.69163(8)
N1 N 0.2595(2) 0.49216(14) 0.80867(14)
N2 N 0.2305(2) 0.25426(13) 0.69113(12)
C17 C 0.3262(2) 0.42752(12) 0.78330(13)
H9 H 0.3676 0.4022 0.8189
H10 H 0.3881 0.4440 0.7525
C18 C 0.2392(2) 0.37379(11) 0.74981(11)
H11 H 0.1937 0.3461 0.7825
H12 H 0.1806 0.4017 0.7239
C19 C 0.3075(2) 0.31971(13) 0.70627(13)
H13 H 0.3305 0.3445 0.6661
H14 H 0.3822 0.3035 0.7279
H15 H 0.208(3) 0.4779(16) 0.8422(15)
H16 H 0.310(3) 0.5250(18) 0.8302(15)
H17 H 0.214(4) 0.514(2) 0.773(2)
H18 H 0.206(3) 0.2346(19) 0.7264(18)
H19 H 0.160(3) 0.2662(14) 0.6665(13)
H20 H 0.272(3) 0.2200(16) 0.6670(14)
loop_
_geom_bond_atom_site_label_1
_geom_bond_atom_site_label_2
_geom_bond_site_symmetry_1
_geom_bond_site_symmetry_2
Zn1 O1 1_555 1_555
O1 C1 1_555 1_555
O2 C1 1_555 1_555
O3 Zn1 1_555 1_555
O4 C8 1_555 1_555
O5 C15 1_555 1_555
O6 C15 1_555 1_555
O7 C16 1_555 1_555
O8 C16 1_555 1_555
N1 C17 1_555 1_555
N2 C19 1_555 1_555
C1 C2 1_555 1_555
C2 C3 1_555 1_555
C3 C4 1_555 1_555
C4 H1 1_555 1_555
C5 C4 1_555 1_555
H2 C5 1_555 1_555
C6 C5 1_555 1_555
H3 C6 1_555 1_555
C7 C2 1_555 1_555
H4 C7 1_555 1_555
C8 O3 1_555 1_555
C9 C8 1_555 1_555
C10 C9 1_555 1_555
H5 C10 1_555 1_555
C11 C10 1_555 1_555
H6 C11 1_555 1_555
C12 C11 1_555 1_555
H7 C12 1_555 1_555
C13 C12 1_555 1_555
H8 C13 1_555 1_555
C14 C9 1_555 1_555
C15 C14 1_555 1_555
C16 C3 1_555 1_555
C17 H9 1_555 1_555
H10 C17 1_555 1_555
C18 C17 1_555 1_555
H11 C18 1_555 1_555
H12 C18 1_555 1_555
C19 C18 1_555 1_555
H13 C19 1_555 1_555
H14 C19 1_555 1_555
H15 N1 1_555 1_555
H16 N1 1_555 1_555
H17 N1 1_555 1_555
H18 N2 1_555 1_555
H19 N2 1_555 1_555
H20 N2 1_555 1_555
Zn1E O5 1_555 1_555
Zn1E_2 O7 1_555 1_555
O5E Zn1 1_555 1_555
O7E Zn1 1_555 1_555
C6 C7 1_555 1_555
C13 C14 1_555 1_555

#END
