
#######################################################################
#
#                 Cambridge Crystallographic Data Centre
#                                CCDC 
#
#######################################################################
#
# If this CIF has been generated from an entry in the Cambridge 
# Structural Database, then it will include bibliographic, chemical, 
# crystal, experimental, refinement or atomic coordinate data resulting 
# from the CCDC's data processing and validation procedures.
#
#######################################################################

data_SIJNAB
_symmetry_cell_setting           monoclinic
_symmetry_space_group_name_H-M   'P 21/c'
_symmetry_Int_Tables_number      14
_space_group_name_Hall           '-P 2ybc'
loop_
_symmetry_equiv_pos_site_id
_symmetry_equiv_pos_as_xyz
1 x,y,z
2 -x,1/2+y,1/2-z
3 -x,-y,-z
4 x,1/2-y,1/2+z
_cell_length_a                   13.3039(2)
_cell_length_b                   7.00040(10)
_cell_length_c                   21.1996(4)
_cell_angle_alpha                90
_cell_angle_beta                 96.5097(7)
_cell_angle_gamma                90
_cell_volume                     1961.64
loop_
_atom_site_label
_atom_site_type_symbol
_atom_site_fract_x
_atom_site_fract_y
_atom_site_fract_z
Ag1 Ag 0.144308(19) 0.13979(3) 0.106191(11)
Ag2 Ag 0.087896(18) 0.09287(3) 0.446437(10)
N1 N 0.1193(2) 0.0895(3) 0.21013(11)
N2 N 0.10069(19) 0.0902(3) 0.33991(11)
C1 C 0.0165(2) 0.0801(4) 0.29659(14)
C2 C -0.0810(2) 0.0672(4) 0.31725(15)
H1 H -0.0881 0.0579 0.3612
C3 C -0.1649(2) 0.0684(4) 0.27336(16)
H2 H -0.2302 0.0587 0.2872
C4 C -0.1556(3) 0.0839(4) 0.20825(16)
H3 H -0.2148 0.0913 0.1788
C5 C -0.0620(2) 0.0886(4) 0.18652(15)
H4 H -0.0564 0.0937 0.1423
C6 C 0.0253(2) 0.0856(4) 0.23092(14)
C7 C 0.2010(2) 0.0922(4) 0.25238(14)
C8 C 0.2988(2) 0.0913(4) 0.22469(14)
C9 C 0.3104(2) -0.0381(4) 0.17531(14)
H5 H 0.2581 -0.1271 0.1626
C10 C 0.3973(2) -0.0369(4) 0.14510(15)
H6 H 0.4047 -0.1254 0.1120
C11 C 0.4736(3) 0.0934(4) 0.16317(16)
H7 H 0.5332 0.0949 0.1424
C12 C 0.4626(2) 0.2221(4) 0.21190(14)
H8 H 0.5148 0.3117 0.2241
C13 C 0.3761(2) 0.2211(4) 0.24287(14)
H9 H 0.3697 0.3086 0.2764
C14 C 0.1909(2) 0.0997(4) 0.31934(14)
C15 C 0.2796(2) 0.1290(4) 0.36778(14)
C16 C 0.2765(2) 0.2783(4) 0.41108(14)
H10 H 0.2175 0.3549 0.4105
C17 C 0.3598(3) 0.3149(5) 0.45513(15)
H11 H 0.3574 0.4161 0.4848
C18 C 0.4456(3) 0.2051(5) 0.45595(16)
H12 H 0.5030 0.2327 0.4855
C19 C 0.4489(2) 0.0538(5) 0.41378(16)
H13 H 0.5082 -0.0222 0.4146
C20 C 0.3657(2) 0.0142(5) 0.37065(14)
H14 H 0.3671 -0.0919 0.3428
N3 N 0.25378(19) 0.4999(4) 0.05935(12)
O1 O 0.17259(18) 0.3967(3) 0.04554(10)
O2 O 0.27573(19) 0.6178(3) 0.02087(12)
O3 O 0.30326(19) 0.4722(4) 0.11135(12)
Ag2C Ag 0.087896(18) 0.40713(3) -0.053563(10)
O1C O 0.17259(18) 0.1033(3) 0.54554(10)
N4 N 0.08137(19) -0.1513(3) 0.00417(12)
O4 O 0.06554(19) -0.1813(4) 0.06094(10)
O5 O 0.0378(2) -0.2534(3) -0.03880(11)
O6 O 0.13759(19) -0.0194(4) -0.00706(13)
loop_
_geom_bond_atom_site_label_1
_geom_bond_atom_site_label_2
_geom_bond_site_symmetry_1
_geom_bond_site_symmetry_2
Ag1 N1 1_555 1_555
Ag2 N2 1_555 1_555
N1 C6 1_555 1_555
N2 C1 1_555 1_555
C1 C2 1_555 1_555
C2 H1 1_555 1_555
C3 C2 1_555 1_555
H2 C3 1_555 1_555
C4 C3 1_555 1_555
H3 C4 1_555 1_555
C5 C4 1_555 1_555
H4 C5 1_555 1_555
C6 C1 1_555 1_555
C7 N1 1_555 1_555
C8 C7 1_555 1_555
C9 C8 1_555 1_555
H5 C9 1_555 1_555
C10 C9 1_555 1_555
H6 C10 1_555 1_555
C11 C10 1_555 1_555
H7 C11 1_555 1_555
C12 C11 1_555 1_555
H8 C12 1_555 1_555
C13 C8 1_555 1_555
H9 C13 1_555 1_555
C14 N2 1_555 1_555
C15 C14 1_555 1_555
C16 C15 1_555 1_555
H10 C16 1_555 1_555
C17 C16 1_555 1_555
H11 C17 1_555 1_555
C18 C17 1_555 1_555
H12 C18 1_555 1_555
C19 C18 1_555 1_555
H13 C19 1_555 1_555
C20 C15 1_555 1_555
H14 C20 1_555 1_555
N3 O1 1_555 1_555
O1 Ag1 1_555 1_555
O2 N3 1_555 1_555
O3 N3 1_555 1_555
N4 O4 1_555 1_555
O5 N4 1_555 1_555
O6 N4 1_555 1_555
Ag2C O1 1_555 1_555
O1C Ag2 1_555 1_555
C5 C6 1_555 1_555
C7 C14 1_555 1_555
C12 C13 1_555 1_555
C19 C20 1_555 1_555

#END
