
#######################################################################
#
#                 Cambridge Crystallographic Data Centre
#                                CCDC 
#
#######################################################################
#
# If this CIF has been generated from an entry in the Cambridge 
# Structural Database, then it will include bibliographic, chemical, 
# crystal, experimental, refinement or atomic coordinate data resulting 
# from the CCDC's data processing and validation procedures.
#
#######################################################################

data_SIJPAD01
_symmetry_cell_setting           orthorhombic
_symmetry_space_group_name_H-M   'P c c n'
_symmetry_Int_Tables_number      56
_space_group_name_Hall           '-P 2ab 2ac'
loop_
_symmetry_equiv_pos_site_id
_symmetry_equiv_pos_as_xyz
1 x,y,z
2 1/2-x,1/2-y,z
3 1/2+x,-y,1/2-z
4 -x,1/2+y,1/2-z
5 -x,-y,-z
6 1/2+x,1/2+y,-z
7 1/2-x,y,1/2+z
8 x,1/2-y,1/2+z
_cell_length_a                   21.9810(3)
_cell_length_b                   22.0058(3)
_cell_length_c                   9.37090(10)
_cell_angle_alpha                90
_cell_angle_beta                 90
_cell_angle_gamma                90
_cell_volume                     4532.79
loop_
_atom_site_label
_atom_site_type_symbol
_atom_site_fract_x
_atom_site_fract_y
_atom_site_fract_z
O1 O 0.2500 0.7500 0.2626(18)
Na1 Na 0.2500 0.7500 0.5302(3)
O2 O 0.12303(14) 0.75565(16) 0.5478(3)
O3 O 0.30450(15) 0.64082(16) 0.5173(4)
O4 O 0.18833(14) 0.64447(16) 0.5346(4)
C1 C 0.1106(2) 0.8112(2) 0.6172(5)
H1 H 0.1319 0.8126 0.7078
H2 H 0.0673 0.8145 0.6359
C2 C 0.2744(2) 0.5992(2) 0.4343(5)
C3 C 0.1090(2) 0.7040(2) 0.6322(5)
H3 H 0.0661 0.7043 0.6573
H4 H 0.1326 0.7048 0.7197
C4 C 0.2107(2) 0.6010(2) 0.4452(5)
C5 C 0.1235(2) 0.6483(2) 0.5493(5)
H5 H 0.1082 0.6126 0.5987
H6 H 0.1045 0.6502 0.4560
C6 C 0.1763(2) 0.5609(2) 0.3650(5)
H7 H 0.1341 0.5610 0.3727
C7 C 0.2663(3) 0.5189(2) 0.2620(6)
H8 H 0.2848 0.4917 0.1998
C8 C 0.3020(2) 0.5585(2) 0.3445(5)
H9 H 0.3442 0.5571 0.3383
C9 C 0.2050(3) 0.5205(3) 0.2729(6)
H10 H 0.1817 0.4941 0.2181
C10 C 0.3692(2) 0.6373(2) 0.5246(6)
H11 H 0.3868 0.6409 0.4301
H12 H 0.3817 0.5988 0.5656
O2A O 0.37697(14) 0.74435(16) 0.5478(3)
O3A O 0.19550(15) 0.85918(16) 0.5173(4)
O4A O 0.31167(14) 0.85553(16) 0.5346(4)
C1A C 0.3894(2) 0.6888(2) 0.6172(5)
H1A H 0.3681 0.6874 0.7078
H2A H 0.4327 0.6855 0.6359
C2A C 0.2256(2) 0.9008(2) 0.4343(5)
C3A C 0.3910(2) 0.7960(2) 0.6322(5)
H3A H 0.4339 0.7957 0.6573
H4A H 0.3674 0.7952 0.7197
C4A C 0.2893(2) 0.8990(2) 0.4452(5)
C5A C 0.3765(2) 0.8517(2) 0.5493(5)
H5A H 0.3918 0.8874 0.5987
H6A H 0.3955 0.8498 0.4560
C6A C 0.3237(2) 0.9391(2) 0.3650(5)
H7A H 0.3659 0.9390 0.3727
C7A C 0.2337(3) 0.9811(2) 0.2620(6)
H8A H 0.2152 1.0083 0.1998
C8A C 0.1980(2) 0.9415(2) 0.3445(5)
H9A H 0.1558 0.9429 0.3383
C9A C 0.2950(3) 0.9795(3) 0.2729(6)
H10A H 0.3183 1.0059 0.2181
C10A C 0.1308(2) 0.8627(2) 0.5246(6)
H11A H 0.1132 0.8591 0.4301
H12A H 0.1183 0.9012 0.5656
O1F O 0.2500 0.7500 0.7626(18)
Na1F Na 0.2500 0.7500 0.0302(3)
I1 I 0.0000 0.5000 0.5000
I2 I 0.00467(2) 0.47387(3) 0.19441(5)
I2D I -0.00467(2) 0.52613(3) 0.80559(5)
Na2 Na -0.2500 0.7500 0.6027(3)
O5 O -0.13705(15) 0.71011(15) 0.6254(4)
O6 O -0.26662(14) 0.87378(14) 0.5923(3)
O7 O -0.14781(14) 0.82541(15) 0.5862(4)
C11 C -0.0976(2) 0.7456(3) 0.7006(5)
C12 C -0.1031(2) 0.8079(2) 0.6783(5)
C13 C -0.1287(2) 0.6461(2) 0.6301(5)
H13 H -0.1343 0.6312 0.7267
H14 H -0.0879 0.6356 0.5992
C14 C -0.1602(2) 0.8888(2) 0.5768(6)
H15 H -0.1283 0.9089 0.5234
H16 H -0.1617 0.9064 0.6717
C15 C -0.0225(2) 0.8248(3) 0.8479(6)
H17 H 0.0026 0.8513 0.8978
C16 C -0.0178(2) 0.7639(3) 0.8702(6)
H18 H 0.0105 0.7492 0.9354
C17 C -0.2203(2) 0.8975(2) 0.5033(5)
H19 H -0.2273 0.9404 0.4860
H20 H -0.2203 0.8766 0.4122
C18 C -0.0547(2) 0.7233(3) 0.7968(5)
H21 H -0.0508 0.6817 0.8116
C19 C -0.3252(2) 0.8818(2) 0.5323(5)
H22 H -0.3271 0.8624 0.4394
H23 H -0.3337 0.9247 0.5202
C20 C -0.0644(2) 0.8476(3) 0.7517(6)
H24 H -0.0669 0.8892 0.7358
O8 O -0.2500 0.7500 0.8559(17)
O5A O -0.36295(15) 0.78989(15) 0.6254(4)
O6A O -0.23338(14) 0.62622(14) 0.5923(3)
O7A O -0.35219(14) 0.67459(15) 0.5862(4)
C11A C -0.4024(2) 0.7544(3) 0.7006(5)
C12A C -0.3969(2) 0.6921(2) 0.6783(5)
C13A C -0.3713(2) 0.8539(2) 0.6301(5)
H13A H -0.3657 0.8688 0.7267
H14A H -0.4121 0.8644 0.5992
C14A C -0.3398(2) 0.6112(2) 0.5768(6)
H15A H -0.3717 0.5911 0.5234
H16A H -0.3383 0.5936 0.6717
C15A C -0.4775(2) 0.6752(3) 0.8479(6)
H17A H -0.5026 0.6487 0.8978
C16A C -0.4822(2) 0.7361(3) 0.8702(6)
H18A H -0.5105 0.7508 0.9354
C17A C -0.2797(2) 0.6025(2) 0.5033(5)
H19A H -0.2727 0.5596 0.4860
H20A H -0.2797 0.6234 0.4122
C18A C -0.4453(2) 0.7767(3) 0.7968(5)
H21A H -0.4492 0.8183 0.8116
C19A C -0.1748(2) 0.6182(2) 0.5323(5)
H22A H -0.1729 0.6376 0.4394
H23A H -0.1663 0.5753 0.5202
C20A C -0.4356(2) 0.6524(3) 0.7517(6)
H24A H -0.4331 0.6108 0.7358
Na2F Na -0.2500 0.7500 1.1027(3)
O8F O -0.2500 0.7500 0.3559(17)
loop_
_geom_bond_atom_site_label_1
_geom_bond_atom_site_label_2
_geom_bond_site_symmetry_1
_geom_bond_site_symmetry_2
O1 Na1 1_555 1_555
Na1 O2 1_555 1_555
O2 C1 1_555 1_555
O3 Na1 1_555 1_555
O4 Na1 1_555 1_555
C1 H1 1_555 1_555
H2 C1 1_555 1_555
C2 O3 1_555 1_555
C3 O2 1_555 1_555
H3 C3 1_555 1_555
H4 C3 1_555 1_555
C4 O4 1_555 1_555
C5 O4 1_555 1_555
H5 C5 1_555 1_555
H6 C5 1_555 1_555
C6 C4 1_555 1_555
H7 C6 1_555 1_555
C7 H8 1_555 1_555
C8 C2 1_555 1_555
H9 C8 1_555 1_555
C9 C6 1_555 1_555
H10 C9 1_555 1_555
C10 O3 1_555 1_555
H11 C10 1_555 1_555
H12 C10 1_555 1_555
I1 I2 1_555 1_555
Na2 O5 1_555 1_555
O5 C11 1_555 1_555
O6 Na2 1_555 1_555
O7 Na2 1_555 1_555
C11 C12 1_555 1_555
C12 O7 1_555 1_555
C13 O5 1_555 1_555
H13 C13 1_555 1_555
H14 C13 1_555 1_555
C14 O7 1_555 1_555
H15 C14 1_555 1_555
H16 C14 1_555 1_555
C15 H17 1_555 1_555
C16 C15 1_555 1_555
H18 C16 1_555 1_555
C17 O6 1_555 1_555
H19 C17 1_555 1_555
H20 C17 1_555 1_555
C18 C11 1_555 1_555
H21 C18 1_555 1_555
C19 O6 1_555 1_555
H22 C19 1_555 1_555
H23 C19 1_555 1_555
C20 C12 1_555 1_555
H24 C20 1_555 1_555
O8 Na2 1_555 1_555
O2A Na1 1_555 1_555
O3A Na1 1_555 1_555
O4A Na1 1_555 1_555
C1A C10 1_555 1_555
H1A C1A 1_555 1_555
H2A C1A 1_555 1_555
C2A O3A 1_555 1_555
C3A O2A 1_555 1_555
H3A C3A 1_555 1_555
H4A C3A 1_555 1_555
C4A O4A 1_555 1_555
C5A O4A 1_555 1_555
H5A C5A 1_555 1_555
H6A C5A 1_555 1_555
C6A C4A 1_555 1_555
H7A C6A 1_555 1_555
C7A H8A 1_555 1_555
C8A C2A 1_555 1_555
H9A C8A 1_555 1_555
C9A C6A 1_555 1_555
H10A C9A 1_555 1_555
C10A C1 1_555 1_555
H11A C10A 1_555 1_555
H12A C10A 1_555 1_555
O1F Na1 1_555 1_555
Na1F O1 1_555 1_555
I2D I1 1_555 1_555
O5A Na2 1_555 1_555
O6A Na2 1_555 1_555
O7A Na2 1_555 1_555
C11A O5A 1_555 1_555
C12A O7A 1_555 1_555
C13A C19 1_555 1_555
H13A C13A 1_555 1_555
H14A C13A 1_555 1_555
C14A O7A 1_555 1_555
H15A C14A 1_555 1_555
H16A C14A 1_555 1_555
C15A H17A 1_555 1_555
C16A C15A 1_555 1_555
H18A C16A 1_555 1_555
C17A O6A 1_555 1_555
H19A C17A 1_555 1_555
H20A C17A 1_555 1_555
C18A C11A 1_555 1_555
H21A C18A 1_555 1_555
C19A C13 1_555 1_555
H22A C19A 1_555 1_555
H23A C19A 1_555 1_555
C20A C12A 1_555 1_555
H24A C20A 1_555 1_555
Na2F O8 1_555 1_555
O8F Na2 1_555 1_555
C2 C4 1_555 1_555
C3 C5 1_555 1_555
C7 C8 1_555 1_555
C7 C9 1_555 1_555
C14 C17 1_555 1_555
C15 C20 1_555 1_555
C16 C18 1_555 1_555
O2A C1A 1_555 1_555
O3A C10A 1_555 1_555
C2A C4A 1_555 1_555
C3A C5A 1_555 1_555
C7A C8A 1_555 1_555
C7A C9A 1_555 1_555
O5A C13A 1_555 1_555
O6A C19A 1_555 1_555
C11A C12A 1_555 1_555
C14A C17A 1_555 1_555
C15A C20A 1_555 1_555
C16A C18A 1_555 1_555

#END
