
#######################################################################
#
#                 Cambridge Crystallographic Data Centre
#                                CCDC 
#
#######################################################################
#
# If this CIF has been generated from an entry in the Cambridge 
# Structural Database, then it will include bibliographic, chemical, 
# crystal, experimental, refinement or atomic coordinate data resulting 
# from the CCDC's data processing and validation procedures.
#
#######################################################################

data_SIJPAC
_symmetry_cell_setting           triclinic
_symmetry_space_group_name_H-M   'P -1'
_symmetry_Int_Tables_number      2
_space_group_name_Hall           '-P 1'
loop_
_symmetry_equiv_pos_site_id
_symmetry_equiv_pos_as_xyz
1 x,y,z
2 -x,-y,-z
_cell_length_a                   4.586(1)
_cell_length_b                   8.539(4)
_cell_length_c                   8.525(3)
_cell_angle_alpha                87.66(5)
_cell_angle_beta                 89.21(3)
_cell_angle_gamma                89.80(2)
_cell_volume                     333.526
loop_
_atom_site_label
_atom_site_type_symbol
_atom_site_fract_x
_atom_site_fract_y
_atom_site_fract_z
C1 C 0.8310(4) 0.0318(2) 0.8659(2)
C2 C 0.8912(4) 0.1507(2) 0.9687(2)
C3 C 0.9431(4) -0.1179(2) 0.8985(2)
C4 C 0.6422(4) 0.0653(2) 0.7256(2)
C5 C 0.7970(4) 0.3187(2) 0.9367(2)
O1 O 0.4810(3) 0.1801(2) 0.7221(2)
O2 O 0.6598(4) -0.0326(2) 0.6148(2)
O3 O 0.9235(3) 0.4010(2) 0.8361(2)
O4 O 0.5869(3) 0.3649(2) 1.0265(2)
O5 O 0.3996(4) 0.5657(2) 0.6606(2)
O6 O 0.0847(4) 0.3095(2) 0.4820(2)
Li1 Li 0.2294(8) 0.3525(4) 0.6881(4)
H1 H 0.8967(42) -0.2013(22) 0.8297(24)
H2 H 0.5667(90) -0.0170(53) 0.5355(49)
H3 H 0.521(17) 0.4451(61) 1.0132(92)
H4 H 0.3998(54) 0.5933(28) 0.7495(30)
H5 H 0.5657(81) 0.5885(40) 0.6212(42)
H6 H -0.0617(69) 0.3397(37) 0.4442(41)
H7 H 0.1001(64) 0.2245(32) 0.4675(36)
C3A C 1.0569(4) 0.1179(2) 1.1015(2)
C2A C 1.1088(4) -0.1507(2) 1.0313(2)
Li1_2 Li 1.2294(8) 0.3525(4) 0.6881(4)
O3_2 O -0.0765(3) 0.4010(2) 0.8361(2)
C1A C 1.1690(4) -0.0318(2) 1.1341(2)
H1A H 1.1033(42) 0.2013(22) 1.1703(24)
C5A C 1.2030(4) -0.3187(2) 1.0633(2)
C4A C 1.3578(4) -0.0653(2) 1.2744(2)
O3A O 1.0765(3) -0.4010(2) 1.1639(2)
O4A O 1.4131(3) -0.3649(2) 0.9735(2)
O1A O 1.5190(3) -0.1801(2) 1.2779(2)
O2A O 1.3402(4) 0.0326(2) 1.3852(2)
Li1A Li 0.7706(8) -0.3525(4) 1.3119(4)
H3A H 1.479(17) -0.4451(61) 0.9868(92)
Li1A_2 Li 1.7706(8) -0.3525(4) 1.3119(4)
H2A H 1.4333(90) 0.0170(53) 1.4645(49)
O1A_2 O 0.5190(3) -0.1801(2) 1.2779(2)
O5A O 0.6004(4) -0.5657(2) 1.3394(2)
O6A O 0.9153(4) -0.3095(2) 1.5180(2)
H4A H 0.6002(54) -0.5933(28) 1.2505(30)
H5A H 0.4343(81) -0.5885(40) 1.3788(42)
H6A H 1.0617(69) -0.3397(37) 1.5558(41)
H7A H 0.8999(64) -0.2245(32) 1.5325(36)
loop_
_geom_bond_atom_site_label_1
_geom_bond_atom_site_label_2
_geom_bond_site_symmetry_1
_geom_bond_site_symmetry_2
C1 C2 1_555 1_555
C2 C5 1_555 1_555
C3 C1 1_555 1_555
C4 C1 1_555 1_555
C5 O3 1_555 1_555
O1 C4 1_555 1_555
O2 C4 1_555 1_555
O3 Li1_2 1_555 1_555
O4 C5 1_555 1_555
O5 Li1 1_555 1_555
O6 Li1 1_555 1_555
Li1 O1 1_555 1_555
H1 C3 1_555 1_555
H2 O2 1_555 1_555
H3 O4 1_555 1_555
H4 O5 1_555 1_555
H5 O5 1_555 1_555
H6 O6 1_555 1_555
H7 O6 1_555 1_555
C3A C2 1_555 1_555
C2A C3 1_555 1_555
O3_2 Li1 1_555 1_555
C1A C3A 1_555 1_555
H1A C3A 1_555 1_555
C5A C2A 1_555 1_555
C4A C1A 1_555 1_555
O3A C5A 1_555 1_555
O4A C5A 1_555 1_555
O1A C4A 1_555 1_555
O2A C4A 1_555 1_555
Li1A O3A 1_555 1_555
H3A O4A 1_555 1_555
Li1A_2 O1A 1_555 1_555
H2A O2A 1_555 1_555
O1A_2 Li1A 1_555 1_555
O5A Li1A 1_555 1_555
O6A Li1A 1_555 1_555
H4A O5A 1_555 1_555
H5A O5A 1_555 1_555
H6A O6A 1_555 1_555
H7A O6A 1_555 1_555
C2A C1A 1_555 1_555

#END
