
#######################################################################
#
#                 Cambridge Crystallographic Data Centre
#                                CCDC 
#
#######################################################################
#
# If this CIF has been generated from an entry in the Cambridge 
# Structural Database, then it will include bibliographic, chemical, 
# crystal, experimental, refinement or atomic coordinate data resulting 
# from the CCDC's data processing and validation procedures.
#
#######################################################################

data_SIJQEI
_symmetry_cell_setting           monoclinic
_symmetry_space_group_name_H-M   'C 2/c'
_symmetry_Int_Tables_number      15
_space_group_name_Hall           '-C 2yn'
loop_
_symmetry_equiv_pos_site_id
_symmetry_equiv_pos_as_xyz
1 x,y,z
2 1/2+x,1/2+y,z
3 -x,y,1/2-z
4 1/2-x,1/2+y,1/2-z
5 -x,-y,-z
6 1/2-x,1/2-y,-z
7 x,-y,1/2+z
8 1/2+x,1/2-y,1/2+z
_cell_length_a                   9.9773(6)
_cell_length_b                   4.5466(3)
_cell_length_c                   21.0161(14)
_cell_angle_alpha                90
_cell_angle_beta                 95.6148(19)
_cell_angle_gamma                90
_cell_volume                     948.775
loop_
_atom_site_label
_atom_site_type_symbol
_atom_site_fract_x
_atom_site_fract_y
_atom_site_fract_z
Ba1 Ba 1.00000 0.0514(3) 0.25000
P1 P 0.8201(4) -0.5131(11) 0.34881(16)
O1 O 0.9474(7) -0.3923(17) 0.3247(3)
O2 O 0.7007(8) -0.2800(15) 0.3455(4)
O3 O 0.7594(8) -0.7833(13) 0.3133(3)
C1 C 0.8585(12) -0.598(3) 0.4320(6)
C2 C 0.7285(14) -0.710(2) 0.4654(5)
H1 H 0.92578 -0.75072 0.43722
H2 H 0.89253 -0.42597 0.45501
H3 H 0.66176 -0.55817 0.46303
H4 H 0.69183 -0.88238 0.44284
Ba1_2 Ba 1.00000 -0.9486(3) 0.25000
Ba1A Ba 0.50000 -0.4486(3) 0.25000
Ba1G Ba 0.50000 -1.5514(3) 0.75000
Ba1G_2 Ba 0.50000 -0.5514(3) 0.75000
Ba1F Ba 1.00000 -1.0514(3) 0.75000
P1E P 0.6799(4) -0.9869(11) 0.65119(16)
O1E O 0.5526(7) -1.1077(17) 0.6753(3)
O1_2 O 0.9474(7) 0.6077(17) 0.3247(3)
O1B O 1.0526(7) -0.3923(17) 0.1753(3)
O1B_2 O 1.0526(7) 0.6077(17) 0.1753(3)
O2E O 0.7993(8) -1.2200(15) 0.6545(4)
O2A O 1.2007(8) 0.2200(15) 0.3455(4)
O2C O 0.7993(8) 0.2200(15) 0.1545(4)
O3E O 0.7406(8) -0.7167(13) 0.6867(3)
O3_2 O 0.7594(8) 0.2167(13) 0.3133(3)
O3B O 1.2406(8) 0.2167(13) 0.1867(3)
C1E C 0.6415(12) -0.902(3) 0.5680(6)
C2E C 0.7715(14) -0.790(2) 0.5346(5)
H1E H 0.57422 -0.74928 0.56278
H2E H 0.60747 -1.07403 0.54499
H3E H 0.83824 -0.94183 0.53697
H4E H 0.80817 -0.61762 0.55716
loop_
_geom_bond_atom_site_label_1
_geom_bond_atom_site_label_2
_geom_bond_site_symmetry_1
_geom_bond_site_symmetry_2
Ba1 O1 1_555 1_555
P1 O1 1_555 1_555
O1 Ba1_2 1_555 1_555
O2 P1 1_555 1_555
O3 P1 1_555 1_555
C1 P1 1_555 1_555
C2 C1 1_555 1_555
H1 C1 1_555 1_555
H2 C1 1_555 1_555
H3 C2 1_555 1_555
H4 C2 1_555 1_555
Ba1_2 O3 1_555 1_555
Ba1A O2 1_555 1_555
Ba1G O1E 1_555 1_555
Ba1G_2 O1E 1_555 1_555
Ba1F O2E 1_555 1_555
P1E O1E 1_555 1_555
O1_2 Ba1 1_555 1_555
O1B Ba1 1_555 1_555
O1B_2 Ba1 1_555 1_555
O2E P1E 1_555 1_555
O2A Ba1 1_555 1_555
O2C Ba1 1_555 1_555
O3E Ba1G_2 1_555 1_555
O3_2 Ba1 1_555 1_555
O3B Ba1 1_555 1_555
C1E P1E 1_555 1_555
C2E C2 1_555 1_555
H1E C1E 1_555 1_555
H2E C1E 1_555 1_555
H3E C2E 1_555 1_555
H4E C2E 1_555 1_555
Ba1_2 O1B 1_555 1_555
P1E O3E 1_555 1_555
C1E C2E 1_555 1_555

#END
