
#######################################################################
#
#                 Cambridge Crystallographic Data Centre
#                                CCDC 
#
#######################################################################
#
# If this CIF has been generated from an entry in the Cambridge 
# Structural Database, then it will include bibliographic, chemical, 
# crystal, experimental, refinement or atomic coordinate data resulting 
# from the CCDC's data processing and validation procedures.
#
#######################################################################

data_SIJROT
_symmetry_cell_setting           triclinic
_symmetry_space_group_name_H-M   'P -1'
_symmetry_Int_Tables_number      2
_space_group_name_Hall           '-P 1'
loop_
_symmetry_equiv_pos_site_id
_symmetry_equiv_pos_as_xyz
1 x,y,z
2 -x,-y,-z
_cell_length_a                   9.2018(18)
_cell_length_b                   12.148(2)
_cell_length_c                   24.678(5)
_cell_angle_alpha                84.98(3)
_cell_angle_beta                 84.63(3)
_cell_angle_gamma                70.99(3)
_cell_volume                     2591.93
loop_
_atom_site_label
_atom_site_type_symbol
_atom_site_fract_x
_atom_site_fract_y
_atom_site_fract_z
Cu1 Cu 0.37576(2) 0.217873(16) 0.465201(8)
Cu2 Cu -0.00700(2) 0.947490(18) 0.105050(7)
C1 C 0.13522(19) 0.38012(14) 0.39892(7)
H1 H 0.0976 0.4127 0.4322
C2 C 0.0580(2) 0.43138(15) 0.35298(7)
H2 H -0.0295 0.4966 0.3558
C3 C 0.1109(2) 0.38572(14) 0.30310(7)
C4 C 0.2393(2) 0.28564(15) 0.30215(7)
H3 H 0.2773 0.2499 0.2696
C5 C 0.3097(2) 0.24005(15) 0.34952(7)
H4 H 0.3958 0.1735 0.3480
C6 C 0.03443(19) 0.44182(15) 0.25274(7)
C7 C -0.0438(2) 0.56112(16) 0.24864(7)
H5 H -0.0489 0.6055 0.2780
C8 C -0.1137(2) 0.61474(16) 0.20220(7)
H6 H -0.1650 0.6946 0.2005
C9 C -0.10812(19) 0.55012(15) 0.15769(7)
C10 C -0.0331(2) 0.43090(16) 0.16143(7)
H7 H -0.0308 0.3863 0.1324
C11 C 0.0388(2) 0.37764(16) 0.20845(7)
H8 H 0.0905 0.2978 0.2102
C12 C -0.18025(19) 0.60786(15) 0.10775(6)
C13 C -0.2485(2) 0.74074(16) 0.03181(7)
C14 C -0.3225(2) 0.64657(16) 0.02980(7)
C15 C -0.3463(2) 0.86570(17) 0.02199(8)
H9 H -0.4395 0.8811 0.0452
H10 H -0.3713 0.8796 -0.0154
H11 H -0.2906 0.9162 0.0299
C16 C -0.0989(2) 0.7162(2) -0.00596(9)
H12 H -0.0362 0.6364 0.0002
H13 H -0.0431 0.7667 0.0018
H14 H -0.1245 0.7303 -0.0433
C17 C -0.4931(2) 0.6875(2) 0.05450(10)
H15 H -0.4981 0.7224 0.0883
H16 H -0.5295 0.6215 0.0609
H17 H -0.5565 0.7436 0.0294
C18 C -0.3134(3) 0.5921(2) -0.02287(8)
H18 H -0.2084 0.5672 -0.0377
H19 H -0.3763 0.6480 -0.0481
H20 H -0.3495 0.5260 -0.0166
C19 C 0.5124(2) 0.17455(15) 0.57824(7)
H21 H 0.6191 0.1725 0.5735
H22 H 0.5022 0.1237 0.6099
C20 C 0.4120(2) 0.29669(16) 0.58849(7)
H23 H 0.4451 0.3218 0.6201
H24 H 0.3067 0.2971 0.5968
C21 C 0.4158(2) 0.38301(16) 0.54058(7)
H25 H 0.3773 0.4617 0.5528
H26 H 0.5213 0.3689 0.5257
C22 C 0.1827(2) 0.70811(15) 0.13313(7)
H27 H 0.1559 0.6964 0.0992
C23 C 0.2737(2) 0.61397(17) 0.16171(7)
H28 H 0.3047 0.5404 0.1479
C24 C 0.32014(19) 0.62947(15) 0.21223(6)
C25 C 0.2635(2) 0.73971(16) 0.23088(7)
H29 H 0.2871 0.7534 0.2650
C26 C 0.1720(2) 0.82997(16) 0.19927(7)
H30 H 0.1379 0.9044 0.2122
C27 C 0.4275(2) 0.53036(15) 0.24319(7)
C28 C 0.5436(2) 0.44630(18) 0.21667(7)
H31 H 0.5550 0.4519 0.1788
C29 C 0.6439(2) 0.35372(17) 0.24477(7)
H32 H 0.7223 0.2990 0.2256
C30 C 0.6290(2) 0.34122(15) 0.30129(6)
C31 C 0.5164(2) 0.42873(15) 0.32836(7)
H33 H 0.5078 0.4246 0.3663
C32 C 0.4164(2) 0.52219(16) 0.29999(7)
H34 H 0.3416 0.5796 0.3190
C33 C 0.72900(19) 0.23854(14) 0.33027(6)
C34 C 0.90949(19) 0.05259(14) 0.34807(7)
C35 C 0.85882(18) 0.11349(14) 0.40166(6)
C36 C 0.8290(2) -0.03452(17) 0.33980(9)
H35 H 0.7199 0.0005 0.3469
H36 H 0.8655 -0.1018 0.3644
H37 H 0.8504 -0.0576 0.3029
C37 C 1.0835(2) -0.00094(19) 0.33674(8)
H38 H 1.1046 -0.0370 0.3025
H39 H 1.1244 -0.0586 0.3653
H40 H 1.1309 0.0591 0.3353
C38 C 0.8198(2) 0.04017(17) 0.44962(7)
H41 H 0.7499 0.0030 0.4393
H42 H 0.7723 0.0889 0.4792
H43 H 0.9123 -0.0182 0.4609
C39 C 0.9700(2) 0.17257(18) 0.41755(8)
H44 H 0.9322 0.2087 0.4514
H45 H 0.9783 0.2308 0.3896
H46 H 1.0695 0.1154 0.4217
C40 C -0.06968(18) 1.05275(14) 0.00353(6)
C41 C -0.3040(2) 1.09129(17) 0.15916(7)
H47 H -0.3580 1.1176 0.1937
H48 H -0.3650 1.0548 0.1416
C42 C -0.2884(2) 1.19473(17) 0.12374(7)
H49 H -0.2040 1.2164 0.1352
H50 H -0.3820 1.2602 0.1288
C43 C -0.2594(2) 1.17095(16) 0.06413(7)
H51 H -0.3486 1.1574 0.0516
H52 H -0.2456 1.2390 0.0435
C44 C 0.51862(18) 0.01918(14) 0.52608(6)
N1 N 0.26046(15) 0.28659(12) 0.39775(5)
N2 N -0.23818(17) 0.55730(12) 0.07230(6)
N3 N -0.19785(16) 0.71784(12) 0.08912(5)
N4 N 0.47404(15) 0.13023(11) 0.53027(5)
N5 N 0.32065(17) 0.37155(12) 0.49779(6)
H53 H 0.3233 0.4255 0.4706
H54 H 0.2226 0.3895 0.5119
N6 N 0.12957(16) 0.81516(12) 0.15032(5)
N7 N 0.84921(16) 0.15376(12) 0.30790(5)
N8 N 0.71811(16) 0.20993(12) 0.38482(5)
N9 N -0.15255(16) 1.00468(13) 0.16930(5)
H55 H -0.1691 0.9424 0.1880
H56 H -0.1052 1.0358 0.1911
N10 N -0.12328(15) 1.06995(11) 0.05378(5)
O1 O -0.24655(17) 0.45441(11) 0.07729(6)
O5 O -0.16035(15) 0.79415(11) 0.11233(5)
O6 O 0.58770(13) -0.06152(9) 0.56054(4)
O7 O 0.89959(16) 0.14899(12) 0.25787(5)
O8 O 0.61249(14) 0.26365(11) 0.42014(4)
O9 O -0.12203(14) 1.11431(10) -0.03925(4)
O10 O 0.13283(17) 1.09401(15) 0.13656(8)
O11 O 0.3905(2) 0.97716(17) 0.13015(8)
O12 O 0.32782(18) 1.17785(16) 0.12459(8)
O13 O 0.2888(2) 1.08133(17) 0.20580(6)
Cl1 Cl 0.28568(6) 1.08189(5) 0.14879(2)
Cu1A Cu 0.62424(2) -0.217873(16) 0.534799(8)
Cu2A Cu 1.00700(2) -0.947490(18) 0.894950(7)
Cu2A_2 Cu 0.00700(2) 1.052510(18) -0.105050(7)
C1A C 0.86478(19) -0.38012(14) 0.60108(7)
H1A H 0.9024 -0.4127 0.5678
C2A C 0.9420(2) -0.43138(15) 0.64702(7)
H2A H 1.0295 -0.4966 0.6442
C3A C 0.8891(2) -0.38572(14) 0.69690(7)
C4A C 0.7607(2) -0.28564(15) 0.69785(7)
H3A H 0.7227 -0.2499 0.7304
C5A C 0.6903(2) -0.24005(15) 0.65048(7)
H4A H 0.6042 -0.1735 0.6520
C6A C 0.96557(19) -0.44182(15) 0.74726(7)
C7A C 1.0438(2) -0.56112(16) 0.75136(7)
H5A H 1.0489 -0.6055 0.7220
C8A C 1.1137(2) -0.61474(16) 0.79780(7)
H6A H 1.1650 -0.6946 0.7995
C9A C 1.10812(19) -0.55012(15) 0.84231(7)
C10A C 1.0331(2) -0.43090(16) 0.83857(7)
H7A H 1.0308 -0.3863 0.8676
C11A C 0.9612(2) -0.37764(16) 0.79155(7)
H8A H 0.9095 -0.2978 0.7898
C12A C 1.18025(19) -0.60786(15) 0.89225(6)
C13A C 1.2485(2) -0.74074(16) 0.96819(7)
C14A C 1.3225(2) -0.64657(16) 0.97020(7)
C15A C 1.3463(2) -0.86570(17) 0.97801(8)
H9A H 1.4395 -0.8811 0.9548
H10A H 1.3713 -0.8796 1.0154
H11A H 1.2906 -0.9162 0.9701
C16A C 1.0989(2) -0.7162(2) 1.00596(9)
H12A H 1.0362 -0.6364 0.9998
H13A H 1.0431 -0.7667 0.9982
H14A H 1.1245 -0.7303 1.0433
C17A C 1.4931(2) -0.6875(2) 0.94550(10)
H15A H 1.4981 -0.7224 0.9117
H16A H 1.5295 -0.6215 0.9391
H17A H 1.5565 -0.7436 0.9706
C18A C 1.3134(3) -0.5921(2) 1.02287(8)
H18A H 1.2084 -0.5672 1.0377
H19A H 1.3763 -0.6480 1.0481
H20A H 1.3495 -0.5260 1.0166
C19A C 0.4876(2) -0.17455(15) 0.42176(7)
H21A H 0.3809 -0.1725 0.4265
H22A H 0.4978 -0.1237 0.3901
C20A C 0.5880(2) -0.29669(16) 0.41151(7)
H23A H 0.5549 -0.3218 0.3799
H24A H 0.6933 -0.2971 0.4032
C21A C 0.5842(2) -0.38301(16) 0.45942(7)
H25A H 0.6227 -0.4617 0.4472
H26A H 0.4787 -0.3689 0.4743
C22A C 0.8173(2) -0.70811(15) 0.86687(7)
H27A H 0.8441 -0.6964 0.9008
C23A C 0.7263(2) -0.61397(17) 0.83829(7)
H28A H 0.6953 -0.5404 0.8521
C24A C 0.67986(19) -0.62947(15) 0.78777(6)
C25A C 0.7365(2) -0.73971(16) 0.76912(7)
H29A H 0.7129 -0.7534 0.7350
C26A C 0.8280(2) -0.82997(16) 0.80073(7)
H30A H 0.8621 -0.9044 0.7878
C27A C 0.5725(2) -0.53036(15) 0.75681(7)
C28A C 0.4564(2) -0.44630(18) 0.78333(7)
H31A H 0.4450 -0.4519 0.8212
C29A C 0.3561(2) -0.35372(17) 0.75523(7)
H32A H 0.2777 -0.2990 0.7744
C30A C 0.3710(2) -0.34122(15) 0.69871(6)
C31A C 0.4836(2) -0.42873(15) 0.67164(7)
H33A H 0.4922 -0.4246 0.6337
C32A C 0.5836(2) -0.52219(16) 0.70001(7)
H34A H 0.6584 -0.5796 0.6810
C33A C 0.27100(19) -0.23854(14) 0.66973(6)
C34A C 0.09051(19) -0.05259(14) 0.65193(7)
C35A C 0.14118(18) -0.11349(14) 0.59834(6)
C36A C 0.1710(2) 0.03452(17) 0.66020(9)
H35A H 0.2801 -0.0005 0.6531
H36A H 0.1345 0.1018 0.6356
H37A H 0.1496 0.0576 0.6971
C37A C -0.0835(2) 0.00094(19) 0.66326(8)
H38A H -0.1046 0.0370 0.6975
H39A H -0.1244 0.0586 0.6347
H40A H -0.1309 -0.0591 0.6647
C38A C 0.1802(2) -0.04017(17) 0.55038(7)
H41A H 0.2501 -0.0030 0.5607
H42A H 0.2277 -0.0889 0.5208
H43A H 0.0877 0.0182 0.5391
C39A C 0.0300(2) -0.17257(18) 0.58245(8)
H44A H 0.0678 -0.2087 0.5486
H45A H 0.0217 -0.2308 0.6104
H46A H -0.0695 -0.1154 0.5783
C40A C 0.06968(18) 0.94725(14) -0.00353(6)
C41A C 0.3040(2) 0.90871(17) -0.15916(7)
H47A H 0.3580 0.8824 -0.1937
H48A H 0.3650 0.9452 -0.1416
C42A C 0.2884(2) 0.80527(17) -0.12374(7)
H49A H 0.2040 0.7836 -0.1352
H50A H 0.3820 0.7398 -0.1288
C43A C 0.2594(2) 0.82905(16) -0.06413(7)
H51A H 0.3486 0.8426 -0.0516
H52A H 0.2456 0.7610 -0.0435
C44A C 0.48138(18) -0.01918(14) 0.47392(6)
N1A N 0.73954(15) -0.28659(12) 0.60225(5)
N2A N 1.23818(17) -0.55730(12) 0.92770(6)
N3A N 1.19785(16) -0.71784(12) 0.91088(5)
N4A N 0.52596(15) -0.13023(11) 0.46973(5)
N5A N 0.67935(17) -0.37155(12) 0.50221(6)
H53A H 0.6767 -0.4255 0.5294
H54A H 0.7774 -0.3895 0.4881
N6A N 0.87043(16) -0.81516(12) 0.84968(5)
N7A N 0.15079(16) -0.15376(12) 0.69210(5)
N8A N 0.28189(16) -0.20993(12) 0.61518(5)
N9A N 0.15255(16) 0.99532(13) -0.16930(5)
N9A_2 N 1.15255(16) -1.00468(13) 0.83070(5)
H55A H 0.1691 1.0576 -0.1880
H55A_2 H 1.1691 -0.9424 0.8120
H56A H 0.1052 0.9642 -0.1911
H56A_2 H 1.1052 -1.0358 0.8089
N10A N 0.12328(15) 0.93005(11) -0.05378(5)
N10A_2 N 1.12328(15) -1.06995(11) 0.94622(5)
O1A O 1.24655(17) -0.45441(11) 0.92271(6)
O5A O 1.16035(15) -0.79415(11) 0.88767(5)
O6A O 0.41230(13) 0.06152(9) 0.43946(4)
O7A O 0.10041(16) -0.14899(12) 0.74213(5)
O8A O 0.38751(14) -0.26365(11) 0.57986(4)
O9A O 0.12203(14) 0.88569(10) 0.03925(4)
O9_2 O 0.87797(14) -0.88569(10) 0.96075(4)
O10A O 0.86717(17) -1.09401(15) 0.86344(8)
O11A O 0.6095(2) -0.97716(17) 0.86985(8)
O12A O 0.67218(18) -1.17785(16) 0.87541(8)
O13A O 0.7112(2) -1.08133(17) 0.79420(6)
Cl1A Cl 0.71432(6) -1.08189(5) 0.85121(2)
O2 O 0.4944(10) 0.9354(11) 0.2775(3)
O14 O 0.0242(2) 0.62505(19) 0.46933(10)
O15 O 0.25660(18) 0.59298(14) 0.42333(7)
O16 O 0.0441(2) 0.68984(16) 0.37834(8)
O17 O 0.1155(2) 0.78256(13) 0.44548(7)
Cl2 Cl 0.10645(6) 0.67470(4) 0.43054(2)
O3? O 0.6211(4) 0.8814(3) 0.22544(14)
O4? O 0.5722(4) 0.8517(5) 0.26590(17)
loop_
_geom_bond_atom_site_label_1
_geom_bond_atom_site_label_2
_geom_bond_site_symmetry_1
_geom_bond_site_symmetry_2
Cu1 N1 1_555 1_555
Cu2 N6 1_555 1_555
C1 H1 1_555 1_555
C2 C1 1_555 1_555
H2 C2 1_555 1_555
C3 C2 1_555 1_555
C4 C3 1_555 1_555
H3 C4 1_555 1_555
C5 C4 1_555 1_555
H4 C5 1_555 1_555
C6 C3 1_555 1_555
C7 C6 1_555 1_555
H5 C7 1_555 1_555
C8 C7 1_555 1_555
H6 C8 1_555 1_555
C9 C8 1_555 1_555
C10 C9 1_555 1_555
H7 C10 1_555 1_555
C11 C6 1_555 1_555
H8 C11 1_555 1_555
C12 C9 1_555 1_555
C13 C14 1_555 1_555
C14 C17 1_555 1_555
C15 C13 1_555 1_555
H9 C15 1_555 1_555
H10 C15 1_555 1_555
H11 C15 1_555 1_555
C16 C13 1_555 1_555
H12 C16 1_555 1_555
H13 C16 1_555 1_555
H14 C16 1_555 1_555
C17 H15 1_555 1_555
H16 C17 1_555 1_555
H17 C17 1_555 1_555
C18 C14 1_555 1_555
H18 C18 1_555 1_555
H19 C18 1_555 1_555
H20 C18 1_555 1_555
C19 H21 1_555 1_555
H22 C19 1_555 1_555
C20 C19 1_555 1_555
H23 C20 1_555 1_555
H24 C20 1_555 1_555
C21 C20 1_555 1_555
H25 C21 1_555 1_555
H26 C21 1_555 1_555
C22 H27 1_555 1_555
C23 C22 1_555 1_555
H28 C23 1_555 1_555
C24 C23 1_555 1_555
C25 C24 1_555 1_555
H29 C25 1_555 1_555
C26 C25 1_555 1_555
H30 C26 1_555 1_555
C27 C24 1_555 1_555
C28 C27 1_555 1_555
H31 C28 1_555 1_555
C29 C28 1_555 1_555
H32 C29 1_555 1_555
C30 C29 1_555 1_555
C31 C30 1_555 1_555
H33 C31 1_555 1_555
C32 C27 1_555 1_555
H34 C32 1_555 1_555
C33 C30 1_555 1_555
C34 C35 1_555 1_555
C35 C38 1_555 1_555
C36 C34 1_555 1_555
H35 C36 1_555 1_555
H36 C36 1_555 1_555
H37 C36 1_555 1_555
C37 C34 1_555 1_555
H38 C37 1_555 1_555
H39 C37 1_555 1_555
H40 C37 1_555 1_555
C38 H41 1_555 1_555
H42 C38 1_555 1_555
H43 C38 1_555 1_555
C39 C35 1_555 1_555
H44 C39 1_555 1_555
H45 C39 1_555 1_555
H46 C39 1_555 1_555
C40 N10 1_555 1_555
C41 H47 1_555 1_555
H48 C41 1_555 1_555
C42 C41 1_555 1_555
H49 C42 1_555 1_555
H50 C42 1_555 1_555
C43 C42 1_555 1_555
H51 C43 1_555 1_555
H52 C43 1_555 1_555
C44 N4 1_555 1_555
N1 C1 1_555 1_555
N2 C12 1_555 1_555
N3 C12 1_555 1_555
N4 Cu1 1_555 1_555
N5 Cu1 1_555 1_555
H53 N5 1_555 1_555
H54 N5 1_555 1_555
N6 C22 1_555 1_555
N7 C33 1_555 1_555
N8 C33 1_555 1_555
N9 Cu2 1_555 1_555
H55 N9 1_555 1_555
H56 N9 1_555 1_555
N10 Cu2 1_555 1_555
O1 N2 1_555 1_555
O5 Cu2 1_555 1_555
O6 C44 1_555 1_555
O7 N7 1_555 1_555
O8 Cu1 1_555 1_555
O9 C40 1_555 1_555
O10 Cu2 1_555 1_555
O11 Cl1 1_555 1_555
O12 Cl1 1_555 1_555
O13 Cl1 1_555 1_555
O14 Cl2 1_555 1_555
O15 Cl2 1_555 1_555
O16 Cl2 1_555 1_555
O17 Cl2 1_555 1_555
Cl1 O10 1_555 1_555
Cu1A O6 1_555 1_555
Cu2A N6A 1_555 1_555
Cu2A_2 O9 1_555 1_555
C1A H1A 1_555 1_555
C2A C1A 1_555 1_555
H2A C2A 1_555 1_555
C3A C2A 1_555 1_555
C4A C3A 1_555 1_555
H3A C4A 1_555 1_555
C5A C4A 1_555 1_555
H4A C5A 1_555 1_555
C6A C3A 1_555 1_555
C7A C6A 1_555 1_555
H5A C7A 1_555 1_555
C8A C7A 1_555 1_555
H6A C8A 1_555 1_555
C9A C8A 1_555 1_555
C10A C9A 1_555 1_555
H7A C10A 1_555 1_555
C11A C6A 1_555 1_555
H8A C11A 1_555 1_555
C12A C9A 1_555 1_555
C13A C14A 1_555 1_555
C14A C17A 1_555 1_555
C15A C13A 1_555 1_555
H9A C15A 1_555 1_555
H10A C15A 1_555 1_555
H11A C15A 1_555 1_555
C16A C13A 1_555 1_555
H12A C16A 1_555 1_555
H13A C16A 1_555 1_555
H14A C16A 1_555 1_555
C17A H15A 1_555 1_555
H16A C17A 1_555 1_555
H17A C17A 1_555 1_555
C18A C14A 1_555 1_555
H18A C18A 1_555 1_555
H19A C18A 1_555 1_555
H20A C18A 1_555 1_555
C19A H21A 1_555 1_555
H22A C19A 1_555 1_555
C20A C19A 1_555 1_555
H23A C20A 1_555 1_555
H24A C20A 1_555 1_555
C21A C20A 1_555 1_555
H25A C21A 1_555 1_555
H26A C21A 1_555 1_555
C22A H27A 1_555 1_555
C23A C22A 1_555 1_555
H28A C23A 1_555 1_555
C24A C23A 1_555 1_555
C25A C24A 1_555 1_555
H29A C25A 1_555 1_555
C26A C25A 1_555 1_555
H30A C26A 1_555 1_555
C27A C24A 1_555 1_555
C28A C27A 1_555 1_555
H31A C28A 1_555 1_555
C29A C28A 1_555 1_555
H32A C29A 1_555 1_555
C30A C29A 1_555 1_555
C31A C30A 1_555 1_555
H33A C31A 1_555 1_555
C32A C27A 1_555 1_555
H34A C32A 1_555 1_555
C33A C30A 1_555 1_555
C34A C35A 1_555 1_555
C35A C38A 1_555 1_555
C36A C34A 1_555 1_555
H35A C36A 1_555 1_555
H36A C36A 1_555 1_555
H37A C36A 1_555 1_555
C37A C34A 1_555 1_555
H38A C37A 1_555 1_555
H39A C37A 1_555 1_555
H40A C37A 1_555 1_555
C38A H41A 1_555 1_555
H42A C38A 1_555 1_555
H43A C38A 1_555 1_555
C39A C35A 1_555 1_555
H44A C39A 1_555 1_555
H45A C39A 1_555 1_555
H46A C39A 1_555 1_555
C40A C40 1_555 1_555
C41A H47A 1_555 1_555
H48A C41A 1_555 1_555
C42A C41A 1_555 1_555
H49A C42A 1_555 1_555
H50A C42A 1_555 1_555
C43A C42A 1_555 1_555
H51A C43A 1_555 1_555
H52A C43A 1_555 1_555
C44A C44 1_555 1_555
N1A Cu1A 1_555 1_555
N2A C12A 1_555 1_555
N3A C12A 1_555 1_555
N4A Cu1A 1_555 1_555
N5A Cu1A 1_555 1_555
H53A N5A 1_555 1_555
H54A N5A 1_555 1_555
N6A C22A 1_555 1_555
N7A C33A 1_555 1_555
N8A C33A 1_555 1_555
N9A Cu2A_2 1_555 1_555
N9A_2 Cu2A 1_555 1_555
H55A N9A 1_555 1_555
H55A_2 N9A_2 1_555 1_555
H56A N9A 1_555 1_555
H56A_2 N9A_2 1_555 1_555
N10A Cu2A_2 1_555 1_555
N10A_2 Cu2A 1_555 1_555
O1A N2A 1_555 1_555
O5A Cu2A 1_555 1_555
O6A Cu1 1_555 1_555
O7A N7A 1_555 1_555
O8A Cu1A 1_555 1_555
O9A Cu2 1_555 1_555
O9_2 Cu2A 1_555 1_555
O10A Cu2A 1_555 1_555
O11A Cl1A 1_555 1_555
O12A Cl1A 1_555 1_555
O13A Cl1A 1_555 1_555
Cl1A O10A 1_555 1_555
C5 N1 1_555 1_555
C10 C11 1_555 1_555
C13 N3 1_555 1_555
C14 N2 1_555 1_555
C19 N4 1_555 1_555
C21 N5 1_555 1_555
C26 N6 1_555 1_555
C31 C32 1_555 1_555
C34 N7 1_555 1_555
C35 N8 1_555 1_555
C41 N9 1_555 1_555
C43 N10 1_555 1_555
N3 O5 1_555 1_555
N8 O8 1_555 1_555
C1A N1A 1_555 1_555
C5A N1A 1_555 1_555
C10A C11A 1_555 1_555
C13A N3A 1_555 1_555
C14A N2A 1_555 1_555
C19A N4A 1_555 1_555
C21A N5A 1_555 1_555
C26A N6A 1_555 1_555
C31A C32A 1_555 1_555
C34A N7A 1_555 1_555
C35A N8A 1_555 1_555
C40A N10A 1_555 1_555
C40A O9A 1_555 1_555
C41A N9A 1_555 1_555
C43A N10A 1_555 1_555
C44A N4A 1_555 1_555
C44A O6A 1_555 1_555
N3A O5A 1_555 1_555
N8A O8A 1_555 1_555

#END
