
#######################################################################
#
#                 Cambridge Crystallographic Data Centre
#                                CCDC 
#
#######################################################################
#
# If this CIF has been generated from an entry in the Cambridge 
# Structural Database, then it will include bibliographic, chemical, 
# crystal, experimental, refinement or atomic coordinate data resulting 
# from the CCDC's data processing and validation procedures.
#
#######################################################################

data_SIJREJ
_symmetry_cell_setting           monoclinic
_symmetry_space_group_name_H-M   'P 21/c'
_symmetry_Int_Tables_number      14
_space_group_name_Hall           '-P 2ybc'
loop_
_symmetry_equiv_pos_site_id
_symmetry_equiv_pos_as_xyz
1 x,y,z
2 -x,1/2+y,1/2-z
3 -x,-y,-z
4 x,1/2-y,1/2+z
_cell_length_a                   5.8976(5)
_cell_length_b                   5.8184(5)
_cell_length_c                   23.7875(19)
_cell_angle_alpha                90
_cell_angle_beta                 90.5730(10)
_cell_angle_gamma                90
_cell_volume                     816.218
loop_
_atom_site_label
_atom_site_type_symbol
_atom_site_fract_x
_atom_site_fract_y
_atom_site_fract_z
Zn1 Zn 0.25523(7) 0.91826(7) 0.034043(17)
N1 N 0.3646(5) 0.5429(5) 0.10981(11)
O1 O 0.3777(5) 0.6307(4) 0.05759(10)
O2 O 0.1044(5) 0.9688(4) 0.10265(10)
O3 O -0.0914(6) 0.8433(6) 0.17513(13)
O4 O 0.8381(4) 0.4266(4) 0.06812(11)
O5 O 0.6086(4) 0.1399(4) 0.04057(10)
O6 O 0.1296(5) 1.2080(4) 0.00556(10)
C1 C 0.0609(7) 0.8256(7) 0.14137(15)
C2 C 0.2152(6) 0.6154(6) 0.14900(14)
C3 C 0.2118(7) 0.4995(7) 0.19996(15)
H1 H 0.1109 0.5459 0.2275
C4 C 0.3555(7) 0.3159(7) 0.21069(15)
H2 H 0.3502 0.2383 0.2448
C5 C 0.5069(7) 0.2503(6) 0.16966(15)
H3 H 0.6082 0.1307 0.1764
C6 C 0.5070(6) 0.3632(6) 0.11877(14)
C7 C 0.6659(6) 0.3081(6) 0.07179(14)
H4 H 0.064(9) 1.287(8) 0.0303(17)
H5 H 0.202(8) 1.293(8) -0.0168(19)
Zn1_2 Zn 0.25523(7) -0.08174(7) 0.034043(17)
Zn1B Zn 0.74477(7) 0.08174(7) -0.034043(17)
O5_2 O 0.6086(4) 1.1399(4) 0.04057(10)
O5B O 0.3914(4) 0.8601(4) -0.04057(10)
loop_
_geom_bond_atom_site_label_1
_geom_bond_atom_site_label_2
_geom_bond_site_symmetry_1
_geom_bond_site_symmetry_2
Zn1 O1 1_555 1_555
N1 O1 1_555 1_555
O2 Zn1 1_555 1_555
O3 C1 1_555 1_555
O4 C7 1_555 1_555
O5 C7 1_555 1_555
O6 Zn1 1_555 1_555
C1 O2 1_555 1_555
C2 N1 1_555 1_555
C3 C2 1_555 1_555
H1 C3 1_555 1_555
C4 C3 1_555 1_555
H2 C4 1_555 1_555
C5 C4 1_555 1_555
H3 C5 1_555 1_555
C6 N1 1_555 1_555
C7 C6 1_555 1_555
H4 O6 1_555 1_555
H5 O6 1_555 1_555
Zn1_2 O5 1_555 1_555
Zn1B O5 1_555 1_555
O5_2 Zn1 1_555 1_555
O5B Zn1 1_555 1_555
C1 C2 1_555 1_555
C5 C6 1_555 1_555

#END
