
#######################################################################
#
#                 Cambridge Crystallographic Data Centre
#                                CCDC 
#
#######################################################################
#
# If this CIF has been generated from an entry in the Cambridge 
# Structural Database, then it will include bibliographic, chemical, 
# crystal, experimental, refinement or atomic coordinate data resulting 
# from the CCDC's data processing and validation procedures.
#
#######################################################################

data_SIJRIN01
_symmetry_cell_setting           monoclinic
_symmetry_space_group_name_H-M   'P 21/c'
_symmetry_Int_Tables_number      14
_space_group_name_Hall           '-P 2ybc'
loop_
_symmetry_equiv_pos_site_id
_symmetry_equiv_pos_as_xyz
1 x,y,z
2 -x,1/2+y,1/2-z
3 -x,-y,-z
4 x,1/2-y,1/2+z
_cell_length_a                   3.6410(6)
_cell_length_b                   12.6301(17)
_cell_length_c                   12.1194(13)
_cell_angle_alpha                90
_cell_angle_beta                 94.057(13)
_cell_angle_gamma                90
_cell_volume                     555.929
loop_
_atom_site_label
_atom_site_type_symbol
_atom_site_fract_x
_atom_site_fract_y
_atom_site_fract_z
Cu1 Cu 1.0000 1.0000 0.5000
O1 O 0.6212(14) 0.8918(4) 0.4752(4)
O2 O 1.0668(13) 0.9660(4) 0.6520(4)
O3 O 0.9286(14) 0.8899(4) 0.8083(4)
N1 N 0.6048(15) 0.8042(5) 0.5385(5)
C1 C 0.7315(19) 0.8007(6) 0.6470(6)
C2 C 0.6923(18) 0.7043(6) 0.7031(6)
H1 H 0.7825 0.6991 0.7766
C3 C 0.5232(19) 0.6166(6) 0.6522(6)
H2 H 0.5012 0.5531 0.6900
C4 C 0.3890(19) 0.6273(6) 0.5431(6)
H3 H 0.2698 0.5707 0.5069
C5 C 0.4305(18) 0.7202(6) 0.4885(6)
H4 H 0.3373 0.7263 0.4153
C6 C 0.9219(17) 0.8928(6) 0.7072(6)
O1B O 0.3788(14) 1.1082(4) 0.5248(4)
O2B O -0.0668(13) 1.0340(4) 0.3480(4)
O3B O 0.0714(14) 1.1101(4) 0.1917(4)
N1B N 0.3952(15) 1.1958(5) 0.4615(5)
C1B C 0.2685(19) 1.1993(6) 0.3530(6)
C2B C 0.3077(18) 1.2957(6) 0.2969(6)
H1B H 0.2175 1.3009 0.2234
C3B C 0.4768(19) 1.3834(6) 0.3478(6)
H2B H 0.4988 1.4469 0.3100
C4B C 0.6110(19) 1.3727(6) 0.4569(6)
H3B H 0.7302 1.4293 0.4931
C5B C 0.5695(18) 1.2798(6) 0.5115(6)
H4B H 0.6627 1.2737 0.5847
C6B C 0.0781(17) 1.1072(6) 0.2928(6)
Cu1_2 Cu 0.0000 1.0000 0.5000
O1_2 O 1.6212(14) 0.8918(4) 0.4752(4)
O1B_2 O 1.3788(14) 1.1082(4) 0.5248(4)
O2B_2 O 0.9332(13) 1.0340(4) 0.3480(4)
loop_
_geom_bond_atom_site_label_1
_geom_bond_atom_site_label_2
_geom_bond_site_symmetry_1
_geom_bond_site_symmetry_2
Cu1 O1 1_555 1_555
O1 N1 1_555 1_555
O2 Cu1 1_555 1_555
O3 C6 1_555 1_555
N1 C1 1_555 1_555
C1 C2 1_555 1_555
C2 H1 1_555 1_555
C3 C2 1_555 1_555
H2 C3 1_555 1_555
C4 C3 1_555 1_555
H3 C4 1_555 1_555
C5 N1 1_555 1_555
H4 C5 1_555 1_555
C6 O2 1_555 1_555
O1B Cu1 1_555 1_555
O2B C6B 1_555 1_555
O3B C6B 1_555 1_555
N1B O1B 1_555 1_555
C1B N1B 1_555 1_555
C2B C1B 1_555 1_555
H1B C2B 1_555 1_555
C3B C2B 1_555 1_555
H2B C3B 1_555 1_555
C4B C3B 1_555 1_555
H3B C4B 1_555 1_555
C5B N1B 1_555 1_555
H4B C5B 1_555 1_555
C6B C1B 1_555 1_555
Cu1_2 O1 1_555 1_555
O1_2 Cu1 1_555 1_555
O1B_2 Cu1 1_555 1_555
O2B_2 Cu1 1_555 1_555
C1 C6 1_555 1_555
C4 C5 1_555 1_555
O1B Cu1_2 1_555 1_555
O2B Cu1_2 1_555 1_555
C4B C5B 1_555 1_555

#END
