
#######################################################################
#
#                 Cambridge Crystallographic Data Centre
#                                CCDC 
#
#######################################################################
#
# If this CIF has been generated from an entry in the Cambridge 
# Structural Database, then it will include bibliographic, chemical, 
# crystal, experimental, refinement or atomic coordinate data resulting 
# from the CCDC's data processing and validation procedures.
#
#######################################################################

data_SIJYEQ
_symmetry_cell_setting           triclinic
_symmetry_space_group_name_H-M   'P -1'
_symmetry_Int_Tables_number      2
_space_group_name_Hall           '-P 1'
loop_
_symmetry_equiv_pos_site_id
_symmetry_equiv_pos_as_xyz
1 x,y,z
2 -x,-y,-z
_cell_length_a                   6.9073(4)
_cell_length_b                   6.9917(4)
_cell_length_c                   10.3561(6)
_cell_angle_alpha                87.178(1)
_cell_angle_beta                 83.233(1)
_cell_angle_gamma                69.576(1)
_cell_volume                     465.412
loop_
_atom_site_label
_atom_site_type_symbol
_atom_site_fract_x
_atom_site_fract_y
_atom_site_fract_z
Ca1 Ca 1.24900(6) 0.26165(5) 1.04449(3)
O1 O 1.3914(2) -0.0852(2) 1.10507(14)
O2 O 0.8406(2) -0.0906(2) 1.12226(14)
O3 O 1.0983(2) -0.3763(2) 1.06934(13)
O4 O 0.9269(2) -0.2750(2) 1.73901(13)
O5 O 1.6018(2) -0.3941(2) 1.14958(15)
O6 O 0.6819(2) -0.2328(3) 1.60677(15)
H1 H 0.609(7) -0.236(6) 1.683(4)
O7 O 1.5286(2) 0.2604(2) 1.17312(14)
H2 H 1.565(6) 0.366(6) 1.169(4)
H3 H 1.632(5) 0.155(5) 1.158(3)
C1 C 0.8722(3) -0.2543(3) 1.62926(18)
C2 C 1.0145(3) -0.2540(3) 1.51112(18)
C3 C 0.9457(3) -0.2312(3) 1.38738(18)
C4 C 1.2196(3) -0.2775(3) 1.52276(18)
C5 C 1.2874(3) -0.2559(3) 1.28952(17)
C6 C 1.3548(3) -0.2773(3) 1.41279(18)
C7 C 1.0824(3) -0.2352(3) 1.27717(17)
C8 C 1.4355(3) -0.2444(3) 1.17287(17)
C9 C 1.0037(3) -0.2311(3) 1.14724(18)
H4 H 0.804(4) -0.225(4) 1.379(2)
H5 H 1.276(5) -0.291(5) 1.601(3)
H6 H 1.488(5) -0.293(5) 1.419(3)
Ca1A Ca 1.75100(6) -0.26165(5) 0.95551(3)
Ca1A_2 Ca 0.75100(6) -0.26165(5) 0.95551(3)
Ca1_2 Ca 1.24900(6) -0.73835(5) 1.04449(3)
Ca1A_3 Ca 0.75100(6) -0.26165(5) 1.95551(3)
O1A O 1.6086(2) 0.0852(2) 0.89493(14)
O2A O 1.1594(2) 0.0906(2) 0.87774(14)
O3_2 O 1.0983(2) 0.6237(2) 1.06934(13)
O3A O 0.9017(2) 0.3763(2) 0.93066(13)
O4A O 1.0731(2) 0.2750(2) 1.26099(13)
O5A O 1.3982(2) 0.3941(2) 0.85042(15)
loop_
_geom_bond_atom_site_label_1
_geom_bond_atom_site_label_2
_geom_bond_site_symmetry_1
_geom_bond_site_symmetry_2
Ca1 O1 1_555 1_555
O1 C8 1_555 1_555
O2 C9 1_555 1_555
O3 C9 1_555 1_555
O4 C1 1_555 1_555
O5 C8 1_555 1_555
O6 H1 1_555 1_555
O7 Ca1 1_555 1_555
H2 O7 1_555 1_555
H3 O7 1_555 1_555
C1 O6 1_555 1_555
C2 C1 1_555 1_555
C3 C2 1_555 1_555
C4 C2 1_555 1_555
C5 C6 1_555 1_555
C6 C4 1_555 1_555
C7 C3 1_555 1_555
C8 C5 1_555 1_555
C9 C7 1_555 1_555
H4 C3 1_555 1_555
H5 C4 1_555 1_555
H6 C6 1_555 1_555
Ca1A O1 1_555 1_555
Ca1A_2 O2 1_555 1_555
Ca1_2 O3 1_555 1_555
Ca1A_3 O4 1_555 1_555
O1A Ca1 1_555 1_555
O2A Ca1 1_555 1_555
O3_2 Ca1 1_555 1_555
O3A Ca1 1_555 1_555
O4A Ca1 1_555 1_555
O5A Ca1 1_555 1_555
O3 Ca1A_2 1_555 1_555
O5 Ca1A 1_555 1_555
C5 C7 1_555 1_555
Ca1A O1A 1_555 1_555

#END
