
#######################################################################
#
#                 Cambridge Crystallographic Data Centre
#                                CCDC 
#
#######################################################################
#
# If this CIF has been generated from an entry in the Cambridge 
# Structural Database, then it will include bibliographic, chemical, 
# crystal, experimental, refinement or atomic coordinate data resulting 
# from the CCDC's data processing and validation procedures.
#
#######################################################################

data_SIKBIZ
_symmetry_cell_setting           triclinic
_symmetry_space_group_name_H-M   'P -1'
_symmetry_Int_Tables_number      2
_space_group_name_Hall           '-P 1'
loop_
_symmetry_equiv_pos_site_id
_symmetry_equiv_pos_as_xyz
1 x,y,z
2 -x,-y,-z
_cell_length_a                   10.5387(8)
_cell_length_b                   10.7309(8)
_cell_length_c                   12.8111(14)
_cell_angle_alpha                105.788(8)
_cell_angle_beta                 108.142(8)
_cell_angle_gamma                98.441(6)
_cell_volume                     1281.68
loop_
_atom_site_label
_atom_site_type_symbol
_atom_site_fract_x
_atom_site_fract_y
_atom_site_fract_z
Zn1 Zn 0.55462(5) 0.38270(5) 0.50733(5)
C1 C 0.1659(5) 0.1103(5) 0.0038(5)
C2 C 0.2467(5) 0.1789(5) 0.1204(5)
H1 H 0.3284 0.1574 0.1545
C3 C 0.2061(4) 0.2796(5) 0.1862(4)
C4 C 0.0844(4) 0.3102(5) 0.1349(4)
H2 H 0.0584 0.3798 0.1778
C5 C 0.0004(5) 0.2380(5) 0.0198(4)
C6 C 0.0417(5) 0.1385(5) -0.0461(4)
H3 H -0.0139 0.0907 -0.1236
C7 C 0.2195(8) 0.0101(6) -0.0644(6)
C8 C 0.3018(4) 0.3580(5) 0.3080(4)
C9 C -0.1735(5) 0.3559(6) 0.0293(5)
H4 H -0.1111 0.4437 0.0559
H5 H -0.1780 0.3347 0.0972
C10 C -0.3152(5) 0.3558(6) -0.0470(4)
C11 C -0.4250(5) 0.2450(6) -0.0884(5)
H6 H -0.4107 0.1676 -0.0724
C12 C -0.5565(5) 0.2480(5) -0.1538(5)
H7 H -0.6293 0.1726 -0.1803
C13 C -0.5813(4) 0.3615(5) -0.1803(4)
C14 C -0.4704(5) 0.4722(5) -0.1385(4)
H8 H -0.4842 0.5498 -0.1543
C15 C -0.3394(5) 0.4689(5) -0.0734(4)
H9 H -0.2664 0.5441 -0.0469
C16 C -0.7241(4) 0.3664(4) -0.2452(4)
C17 C -0.8321(5) 0.3111(5) -0.2162(5)
H10 H -0.8133 0.2677 -0.1615
C18 C -0.9652(5) 0.3195(6) -0.2669(5)
H11 H -1.0353 0.2802 -0.2475
C19 C -0.9943(5) 0.3851(6) -0.3452(5)
H12 H -1.0838 0.3922 -0.3783
C20 C -0.8901(5) 0.4411(5) -0.3751(5)
H13 H -0.9098 0.4874 -0.4274
C21 C -0.7557(4) 0.4292(4) -0.3283(4)
C22 C -0.6565(4) 0.4753(5) -0.3813(4)
C23 C 0.6570(4) 0.2054(5) 0.6465(5)
H14 H 0.6616 0.2669 0.7154
C24 C 0.6970(4) 0.0971(4) 0.6423(4)
H15 H 0.7351 0.0669 0.7037
C25 C 0.6185(4) 0.1125(5) 0.4685(5)
H16 H 0.5933 0.0918 0.3883
C26 C 0.7188(5) -0.0822(5) 0.4876(5)
H17 H 0.6584 -0.1348 0.4080
H18 H 0.7156 -0.1370 0.5361
C27 C 0.8653(4) -0.0412(4) 0.4929(5)
C28 C 0.8944(5) 0.0254(6) 0.4230(5)
H19 H 0.8224 0.0430 0.3699
C29 C 1.0285(5) 0.0676(5) 0.4289(5)
H20 H 1.0460 0.1131 0.3805
N1 N 0.6075(3) 0.2216(3) 0.5409(3)
N2 N 0.6709(3) 0.0382(4) 0.5287(4)
O1 O 0.3874(3) 0.3017(3) 0.3586(3)
O2 O 0.2944(3) 0.4745(3) 0.3519(3)
O3 O 0.3408(5) 0.0032(5) -0.0232(4)
O4 O 0.1371(5) -0.0653(4) -0.1673(4)
H21 H 0.1767 -0.1164 -0.1970
O5 O -0.1245(3) 0.2582(4) -0.0371(3)
O6 O -0.5790(3) 0.4031(3) -0.4034(3)
O7 O -0.6617(3) 0.5821(3) -0.4038(3)
C23A C 1.3430(4) -0.2054(5) 0.3535(5)
H14A H 1.3384 -0.2669 0.2846
C24A C 1.3030(4) -0.0971(4) 0.3577(4)
H15A H 1.2649 -0.0669 0.2963
C25A C 1.3815(4) -0.1125(5) 0.5315(5)
H16A H 1.4067 -0.0918 0.6117
C26A C 1.2812(5) 0.0822(5) 0.5124(5)
H17A H 1.3416 0.1348 0.5920
H18A H 1.2844 0.1370 0.4639
C27A C 1.1347(4) 0.0412(4) 0.5071(5)
C28A C 1.1056(5) -0.0254(6) 0.5770(5)
H19A H 1.1776 -0.0430 0.6301
C29A C 0.9715(5) -0.0676(5) 0.5711(5)
H20A H 0.9540 -0.1131 0.6195
N1A N 1.3925(3) -0.2216(3) 0.4591(3)
N2A N 1.3291(3) -0.0382(4) 0.4713(4)
Zn1A Zn -0.55462(5) 0.61730(5) -0.50733(5)
C1A C -0.1659(5) 0.8897(5) -0.0038(5)
C2A C -0.2467(5) 0.8211(5) -0.1204(5)
H1A H -0.3284 0.8426 -0.1545
C3A C -0.2061(4) 0.7204(5) -0.1862(4)
C4A C -0.0844(4) 0.6898(5) -0.1349(4)
H2A H -0.0584 0.6202 -0.1778
C5A C -0.0004(5) 0.7620(5) -0.0198(4)
C6A C -0.0417(5) 0.8615(5) 0.0461(4)
H3A H 0.0139 0.9093 0.1236
C7A C -0.2195(8) 0.9899(6) 0.0644(6)
C8A C -0.3018(4) 0.6420(5) -0.3080(4)
C9A C 0.1735(5) 0.6441(6) -0.0293(5)
H4A H 0.1111 0.5563 -0.0559
H5A H 0.1780 0.6653 -0.0972
C10A C 0.3152(5) 0.6442(6) 0.0470(4)
C11A C 0.4250(5) 0.7550(6) 0.0884(5)
H6A H 0.4107 0.8324 0.0724
C12A C 0.5565(5) 0.7520(5) 0.1538(5)
H7A H 0.6293 0.8274 0.1803
C13A C 0.5813(4) 0.6385(5) 0.1803(4)
C14A C 0.4704(5) 0.5278(5) 0.1385(4)
H8A H 0.4842 0.4502 0.1543
C15A C 0.3394(5) 0.5311(5) 0.0734(4)
H9A H 0.2664 0.4559 0.0469
C16A C 0.7241(4) 0.6336(4) 0.2452(4)
C17A C 0.8321(5) 0.6889(5) 0.2162(5)
H10A H 0.8133 0.7323 0.1615
C18A C 0.9652(5) 0.6805(6) 0.2669(5)
H11A H 1.0353 0.7198 0.2475
C19A C 0.9943(5) 0.6149(6) 0.3452(5)
H12A H 1.0838 0.6078 0.3783
C20A C 0.8901(5) 0.5589(5) 0.3751(5)
H13A H 0.9098 0.5126 0.4274
C21A C 0.7557(4) 0.5708(4) 0.3283(4)
C22A C 0.6565(4) 0.5247(5) 0.3813(4)
O1A O -0.3874(3) 0.6983(3) -0.3586(3)
O2A O -0.2944(3) 0.5255(3) -0.3519(3)
O3A O -0.3408(5) 0.9968(5) 0.0232(4)
O4A O -0.1371(5) 1.0653(4) 0.1673(4)
H21A H -0.1767 1.1164 0.1970
O5A O 0.1245(3) 0.7418(4) 0.0371(3)
O6A O 0.5790(3) 0.5969(3) 0.4034(3)
O7A O 0.6617(3) 0.4179(3) 0.4038(3)
Zn1_2 Zn -0.44538(5) 0.38270(5) -0.49267(5)
Zn1A_2 Zn 0.44538(5) 0.61730(5) 0.49267(5)
Zn1A_3 Zn 1.44538(5) -0.38270(5) 0.49267(5)
N1A_2 N -0.6075(3) 0.7784(3) -0.5409(3)
O2_2 O -0.7056(3) 0.4745(3) -0.6481(3)
O2A_2 O 0.7056(3) 0.5255(3) 0.6481(3)
O6_2 O 0.4210(3) 0.4031(3) 0.5966(3)
O6A_2 O -0.4210(3) 0.5969(3) -0.5966(3)
O8 O 0.6604(6) 0.1807(6) 0.2332(5)
loop_
_geom_bond_atom_site_label_1
_geom_bond_atom_site_label_2
_geom_bond_site_symmetry_1
_geom_bond_site_symmetry_2
Zn1 N1 1_555 1_555
C1 C2 1_555 1_555
C2 H1 1_555 1_555
C3 C2 1_555 1_555
C4 C3 1_555 1_555
H2 C4 1_555 1_555
C5 C4 1_555 1_555
C6 C1 1_555 1_555
H3 C6 1_555 1_555
C7 C1 1_555 1_555
C8 C3 1_555 1_555
C9 H4 1_555 1_555
H5 C9 1_555 1_555
C10 C9 1_555 1_555
C11 C10 1_555 1_555
H6 C11 1_555 1_555
C12 C11 1_555 1_555
H7 C12 1_555 1_555
C13 C12 1_555 1_555
C14 C13 1_555 1_555
H8 C14 1_555 1_555
C15 C10 1_555 1_555
H9 C15 1_555 1_555
C16 C13 1_555 1_555
C17 C16 1_555 1_555
H10 C17 1_555 1_555
C18 C17 1_555 1_555
H11 C18 1_555 1_555
C19 C18 1_555 1_555
H12 C19 1_555 1_555
C20 C19 1_555 1_555
H13 C20 1_555 1_555
C21 C16 1_555 1_555
C22 C21 1_555 1_555
C23 H14 1_555 1_555
C24 C23 1_555 1_555
H15 C24 1_555 1_555
C25 H16 1_555 1_555
C26 H17 1_555 1_555
H18 C26 1_555 1_555
C27 C26 1_555 1_555
C28 C27 1_555 1_555
H19 C28 1_555 1_555
C29 C28 1_555 1_555
H20 C29 1_555 1_555
N1 C23 1_555 1_555
N2 C24 1_555 1_555
O1 Zn1 1_555 1_555
O2 C8 1_555 1_555
O3 C7 1_555 1_555
O4 C7 1_555 1_555
H21 O4 1_555 1_555
O5 C5 1_555 1_555
O6 C22 1_555 1_555
O7 C22 1_555 1_555
C23A H14A 1_555 1_555
C24A C23A 1_555 1_555
H15A C24A 1_555 1_555
C25A H16A 1_555 1_555
C26A H17A 1_555 1_555
H18A C26A 1_555 1_555
C27A C29 1_555 1_555
C28A C27A 1_555 1_555
H19A C28A 1_555 1_555
C29A C27 1_555 1_555
H20A C29A 1_555 1_555
N1A C23A 1_555 1_555
N2A C24A 1_555 1_555
Zn1A O7 1_555 1_555
C1A C2A 1_555 1_555
C2A H1A 1_555 1_555
C3A C2A 1_555 1_555
C4A C3A 1_555 1_555
H2A C4A 1_555 1_555
C5A C4A 1_555 1_555
C6A C1A 1_555 1_555
H3A C6A 1_555 1_555
C7A C1A 1_555 1_555
C8A C3A 1_555 1_555
C9A H4A 1_555 1_555
H5A C9A 1_555 1_555
C10A C9A 1_555 1_555
C11A C10A 1_555 1_555
H6A C11A 1_555 1_555
C12A C11A 1_555 1_555
H7A C12A 1_555 1_555
C13A C12A 1_555 1_555
C14A C13A 1_555 1_555
H8A C14A 1_555 1_555
C15A C10A 1_555 1_555
H9A C15A 1_555 1_555
C16A C13A 1_555 1_555
C17A C16A 1_555 1_555
H10A C17A 1_555 1_555
C18A C17A 1_555 1_555
H11A C18A 1_555 1_555
C19A C18A 1_555 1_555
H12A C19A 1_555 1_555
C20A C19A 1_555 1_555
H13A C20A 1_555 1_555
C21A C16A 1_555 1_555
C22A C21A 1_555 1_555
O1A Zn1A 1_555 1_555
O2A C8A 1_555 1_555
O3A C7A 1_555 1_555
O4A C7A 1_555 1_555
H21A O4A 1_555 1_555
O5A C5A 1_555 1_555
O6A C22A 1_555 1_555
O7A Zn1 1_555 1_555
Zn1_2 O6 1_555 1_555
Zn1A_2 O2 1_555 1_555
Zn1A_3 N1A 1_555 1_555
N1A_2 Zn1A 1_555 1_555
O2_2 Zn1A 1_555 1_555
O2A_2 Zn1 1_555 1_555
O6_2 Zn1 1_555 1_555
O6A_2 Zn1A 1_555 1_555
C5 C6 1_555 1_555
C8 O1 1_555 1_555
C9 O5 1_555 1_555
C14 C15 1_555 1_555
C20 C21 1_555 1_555
C25 N1 1_555 1_555
C25 N2 1_555 1_555
C26 N2 1_555 1_555
C25A N1A 1_555 1_555
C25A N2A 1_555 1_555
C26A C27A 1_555 1_555
C26A N2A 1_555 1_555
C28A C29A 1_555 1_555
C5A C6A 1_555 1_555
C8A O1A 1_555 1_555
C9A O5A 1_555 1_555
C14A C15A 1_555 1_555
C20A C21A 1_555 1_555
C22A O7A 1_555 1_555
O2A Zn1_2 1_555 1_555
O6A Zn1A_2 1_555 1_555

#END
