
#######################################################################
#
#                 Cambridge Crystallographic Data Centre
#                                CCDC 
#
#######################################################################
#
# If this CIF has been generated from an entry in the Cambridge 
# Structural Database, then it will include bibliographic, chemical, 
# crystal, experimental, refinement or atomic coordinate data resulting 
# from the CCDC's data processing and validation procedures.
#
#######################################################################

data_SIKCEW
_symmetry_cell_setting           monoclinic
_symmetry_space_group_name_H-M   'P 2/n'
_symmetry_Int_Tables_number      13
_space_group_name_Hall           '-P 2yac'
loop_
_symmetry_equiv_pos_site_id
_symmetry_equiv_pos_as_xyz
1 x,y,z
2 1/2-x,y,1/2-z
3 -x,-y,-z
4 1/2+x,-y,1/2+z
_cell_length_a                   9.842(2)
_cell_length_b                   12.262(3)
_cell_length_c                   20.186(4)
_cell_angle_alpha                90
_cell_angle_beta                 97.577(19)
_cell_angle_gamma                90
_cell_volume                     2414.83
loop_
_atom_site_label
_atom_site_type_symbol
_atom_site_fract_x
_atom_site_fract_y
_atom_site_fract_z
Zn1 Zn -0.2500 0.82246(8) -0.2500
Zn2 Zn 0.02808(6) 0.61484(5) -0.17735(3)
C1 C -0.3266(8) 0.6494(8) -0.0670(4)
C2 C -0.2549(9) 0.5739(8) -0.0241(4)
H1 H -0.1782 0.5392 -0.0366
C3 C -0.2974(8) 0.5508(8) 0.0364(4)
C4 C -0.4146(9) 0.5988(8) 0.0535(4)
H2 H -0.4446 0.5814 0.0940
C5 C -0.4872(8) 0.6716(7) 0.0115(4)
C6 C -0.4454(9) 0.6978(8) -0.0477(4)
H3 H -0.4952 0.7479 -0.0757
C7 C -0.2829(8) 0.6758(8) -0.1330(4)
C8 C -0.2147(9) 0.4761(8) 0.0858(4)
C9 C -0.6833(10) 0.7890(9) -0.0086(4)
H4 H -0.7209 0.7524 -0.0496
H5 H -0.6270 0.8493 -0.0201
C10 C -0.7963(9) 0.8303(9) 0.0270(4)
C11 C -0.9010(10) 0.7609(9) 0.0416(5)
H6 H -0.8974 0.6874 0.0306
C12 C -1.0080(10) 0.7981(9) 0.0716(4)
H7 H -1.0757 0.7498 0.0811
C13 C -1.0172(9) 0.9107(8) 0.0886(4)
C14 C -0.9147(9) 0.9801(8) 0.0726(4)
H8 H -0.9202 1.0544 0.0809
C15 C -0.8052(9) 0.9396(9) 0.0445(4)
H9 H -0.7348 0.9868 0.0369
C16 C -1.1405(8) 0.9543(8) 0.1149(4)
C17 C -1.2656(10) 0.9043(9) 0.0972(5)
H10 H -1.2679 0.8403 0.0723
C18 C -1.3867(10) 0.9437(11) 0.1141(5)
H11 H -1.4690 0.9075 0.1013
C19 C -1.3822(11) 1.0422(11) 0.1519(5)
H12 H -1.4623 1.0706 0.1648
C20 C -1.2629(11) 1.0938(9) 0.1690(5)
H13 H -1.2622 1.1599 0.1916
C21 C -1.1379(9) 1.0502(8) 0.1534(4)
C22 C -1.0117(10) 1.1066(9) 0.1824(4)
C23 C 0.0529(14) 0.3906(12) -0.2589(6)
H14 H 0.1246 0.4178 -0.2797
C24 C 0.0030(14) 0.2866(14) -0.2640(7)
H15 H 0.0333 0.2303 -0.2893
C25 C -0.1106(11) 0.3813(8) -0.2001(5)
H16 H -0.1755 0.4015 -0.1728
C26 C -0.1906(12) 0.1908(11) -0.2214(6)
H17 H -0.2272 0.1930 -0.1791
H18 H -0.1390 0.1236 -0.2228
N1 N -0.0195(9) 0.4467(7) -0.2185(4)
N2 N -0.1004(10) 0.2813(7) -0.2249(4)
O1 O -0.3405(6) 0.7572(6) -0.1637(3)
O2 O -0.1934(7) 0.6189(6) -0.1549(3)
O3 O -0.0981(7) 0.4457(6) 0.0720(3)
O4 O -0.2572(6) 0.4486(6) 0.1383(3)
O5 O -0.6020(7) 0.7142(6) 0.0347(3)
O6 O -0.9988(9) 1.2058(7) 0.1736(4)
O7 O -0.9188(7) 1.0558(6) 0.2181(3)
O8 O 0.0922(7) 0.6702(7) -0.2800(3)
H19 H 0.033(9) 0.699(7) -0.312(4)
H20 H 0.084(10) 0.5996(18) -0.279(2)
C23A C -0.5529(14) 0.3906(12) -0.2411(6)
H14A H -0.6246 0.4178 -0.2203
C24A C -0.5030(14) 0.2866(14) -0.2360(7)
H15A H -0.5333 0.2303 -0.2107
C25A C -0.3894(11) 0.3813(8) -0.2999(5)
H16A H -0.3245 0.4015 -0.3272
C26A C -0.3094(12) 0.1908(11) -0.2786(6)
H17A H -0.2728 0.1930 -0.3209
H18A H -0.3610 0.1236 -0.2772
N1A N -0.4805(9) 0.4467(7) -0.2815(4)
N2A N -0.3996(10) 0.2813(7) -0.2751(4)
Zn2A Zn -0.52808(6) 0.61484(5) -0.32265(3)
C1A C -0.1734(8) 0.6494(8) -0.4330(4)
C2A C -0.2451(9) 0.5739(8) -0.4759(4)
H1A H -0.3218 0.5392 -0.4634
C3A C -0.2026(8) 0.5508(8) -0.5364(4)
C4A C -0.0854(9) 0.5988(8) -0.5535(4)
H2A H -0.0554 0.5814 -0.5940
C5A C -0.0128(8) 0.6716(7) -0.5115(4)
C6A C -0.0546(9) 0.6978(8) -0.4523(4)
H3A H -0.0048 0.7479 -0.4243
C7A C -0.2171(8) 0.6758(8) -0.3670(4)
C8A C -0.2853(9) 0.4761(8) -0.5858(4)
C9A C 0.1833(10) 0.7890(9) -0.4914(4)
H4A H 0.2209 0.7524 -0.4504
H5A H 0.1270 0.8493 -0.4799
C10A C 0.2963(9) 0.8303(9) -0.5270(4)
C11A C 0.4010(10) 0.7609(9) -0.5416(5)
H6A H 0.3974 0.6874 -0.5306
C12A C 0.5080(10) 0.7981(9) -0.5716(4)
H7A H 0.5757 0.7498 -0.5811
C13A C 0.5172(9) 0.9107(8) -0.5886(4)
C14A C 0.4147(9) 0.9801(8) -0.5726(4)
H8A H 0.4202 1.0544 -0.5809
C15A C 0.3052(9) 0.9396(9) -0.5445(4)
H9A H 0.2348 0.9868 -0.5369
C16A C 0.6405(8) 0.9543(8) -0.6149(4)
C17A C 0.7656(10) 0.9043(9) -0.5972(5)
H10A H 0.7679 0.8403 -0.5723
C18A C 0.8867(10) 0.9437(11) -0.6141(5)
H11A H 0.9690 0.9075 -0.6013
C19A C 0.8822(11) 1.0422(11) -0.6519(5)
H12A H 0.9623 1.0706 -0.6648
C20A C 0.7629(11) 1.0938(9) -0.6690(5)
H13A H 0.7622 1.1599 -0.6916
C21A C 0.6379(9) 1.0502(8) -0.6534(4)
C22A C 0.5117(10) 1.1066(9) -0.6824(4)
O1A O -0.1595(6) 0.7572(6) -0.3363(3)
O2A O -0.3066(7) 0.6189(6) -0.3451(3)
O3A O -0.4019(7) 0.4457(6) -0.5720(3)
O4A O -0.2428(6) 0.4486(6) -0.6383(3)
O5A O 0.1020(7) 0.7142(6) -0.5347(3)
O6A O 0.4988(9) 1.2058(7) -0.6736(4)
O7A O 0.4188(7) 1.0558(6) -0.7181(3)
O8A O -0.5922(7) 0.6702(7) -0.2200(3)
H19A H -0.533(9) 0.699(7) -0.188(4)
H20A H -0.584(10) 0.5996(18) -0.221(2)
Zn1B Zn -0.7500 1.17754(8) 0.2500
Zn1B_2 Zn 0.2500 1.17754(8) -0.7500
Zn2B Zn -1.02808(6) 1.38516(5) 0.17735(3)
Zn2B_2 Zn -0.02808(6) 0.38516(5) 0.17735(3)
Zn2C Zn -0.47192(6) 0.38516(5) -0.67735(3)
Zn2C_2 Zn 0.52808(6) 1.38516(5) -0.67735(3)
O3B O 0.0981(7) 0.5543(6) -0.0720(3)
O3C O -0.5981(7) 0.5543(6) -0.4280(3)
O4B O 0.2572(6) 0.5514(6) -0.1383(3)
O4C O -0.7572(6) 0.5514(6) -0.3617(3)
O6B O -0.0012(9) 0.7942(7) -0.1736(4)
O6C O -0.4988(9) 0.7942(7) -0.3264(4)
O7B O -0.0812(7) 0.9442(6) -0.2181(3)
O7C O -0.4188(7) 0.9442(6) -0.2819(3)
loop_
_geom_bond_atom_site_label_1
_geom_bond_atom_site_label_2
_geom_bond_site_symmetry_1
_geom_bond_site_symmetry_2
Zn1 O1 1_555 1_555
Zn2 N1 1_555 1_555
C1 C2 1_555 1_555
C2 H1 1_555 1_555
C3 C2 1_555 1_555
C4 C3 1_555 1_555
H2 C4 1_555 1_555
C5 C4 1_555 1_555
C6 C1 1_555 1_555
H3 C6 1_555 1_555
C7 C1 1_555 1_555
C8 C3 1_555 1_555
C9 H4 1_555 1_555
H5 C9 1_555 1_555
C10 C9 1_555 1_555
C11 C10 1_555 1_555
H6 C11 1_555 1_555
C12 C11 1_555 1_555
H7 C12 1_555 1_555
C13 C12 1_555 1_555
C14 C13 1_555 1_555
H8 C14 1_555 1_555
C15 C10 1_555 1_555
H9 C15 1_555 1_555
C16 C13 1_555 1_555
C17 C16 1_555 1_555
H10 C17 1_555 1_555
C18 C17 1_555 1_555
H11 C18 1_555 1_555
C19 C18 1_555 1_555
H12 C19 1_555 1_555
C20 C19 1_555 1_555
H13 C20 1_555 1_555
C21 C16 1_555 1_555
C22 C21 1_555 1_555
C23 H14 1_555 1_555
C24 C23 1_555 1_555
H15 C24 1_555 1_555
C25 H16 1_555 1_555
C26 H17 1_555 1_555
H18 C26 1_555 1_555
N1 C23 1_555 1_555
N2 C24 1_555 1_555
O1 C7 1_555 1_555
O2 Zn2 1_555 1_555
O3 C8 1_555 1_555
O4 C8 1_555 1_555
O5 C5 1_555 1_555
O6 C22 1_555 1_555
O7 C22 1_555 1_555
O8 Zn2 1_555 1_555
H19 O8 1_555 1_555
H20 O8 1_555 1_555
C23A H14A 1_555 1_555
C24A C23A 1_555 1_555
H15A C24A 1_555 1_555
C25A H16A 1_555 1_555
C26A C26 1_555 1_555
H17A C26A 1_555 1_555
H18A C26A 1_555 1_555
N1A C23A 1_555 1_555
N2A C24A 1_555 1_555
Zn2A N1A 1_555 1_555
C1A C2A 1_555 1_555
C2A H1A 1_555 1_555
C3A C2A 1_555 1_555
C4A C3A 1_555 1_555
H2A C4A 1_555 1_555
C5A C4A 1_555 1_555
C6A C1A 1_555 1_555
H3A C6A 1_555 1_555
C7A C1A 1_555 1_555
C8A C3A 1_555 1_555
C9A H4A 1_555 1_555
H5A C9A 1_555 1_555
C10A C9A 1_555 1_555
C11A C10A 1_555 1_555
H6A C11A 1_555 1_555
C12A C11A 1_555 1_555
H7A C12A 1_555 1_555
C13A C12A 1_555 1_555
C14A C13A 1_555 1_555
H8A C14A 1_555 1_555
C15A C10A 1_555 1_555
H9A C15A 1_555 1_555
C16A C13A 1_555 1_555
C17A C16A 1_555 1_555
H10A C17A 1_555 1_555
C18A C17A 1_555 1_555
H11A C18A 1_555 1_555
C19A C18A 1_555 1_555
H12A C19A 1_555 1_555
C20A C19A 1_555 1_555
H13A C20A 1_555 1_555
C21A C16A 1_555 1_555
C22A C21A 1_555 1_555
O1A Zn1 1_555 1_555
O2A Zn2A 1_555 1_555
O3A C8A 1_555 1_555
O4A C8A 1_555 1_555
O5A C5A 1_555 1_555
O6A C22A 1_555 1_555
O7A C22A 1_555 1_555
O8A Zn2A 1_555 1_555
H19A O8A 1_555 1_555
H20A O8A 1_555 1_555
Zn1B O7 1_555 1_555
Zn1B_2 O7A 1_555 1_555
Zn2B O6 1_555 1_555
Zn2B_2 O3 1_555 1_555
Zn2C O3A 1_555 1_555
Zn2C_2 O6A 1_555 1_555
O3B Zn2 1_555 1_555
O3C Zn2A 1_555 1_555
O4B Zn2 1_555 1_555
O4C Zn2A 1_555 1_555
O6B Zn2 1_555 1_555
O6C Zn2A 1_555 1_555
O7B Zn1 1_555 1_555
O7C Zn1 1_555 1_555
C5 C6 1_555 1_555
C7 O2 1_555 1_555
C9 O5 1_555 1_555
C14 C15 1_555 1_555
C20 C21 1_555 1_555
C25 N1 1_555 1_555
C25 N2 1_555 1_555
C26 N2 1_555 1_555
O4 Zn2B_2 1_555 1_555
C25A N1A 1_555 1_555
C25A N2A 1_555 1_555
C26A N2A 1_555 1_555
C5A C6A 1_555 1_555
C7A O1A 1_555 1_555
C7A O2A 1_555 1_555
C9A O5A 1_555 1_555
C14A C15A 1_555 1_555
C20A C21A 1_555 1_555
O4A Zn2C 1_555 1_555

#END
