
#######################################################################
#
#                 Cambridge Crystallographic Data Centre
#                                CCDC 
#
#######################################################################
#
# If this CIF has been generated from an entry in the Cambridge 
# Structural Database, then it will include bibliographic, chemical, 
# crystal, experimental, refinement or atomic coordinate data resulting 
# from the CCDC's data processing and validation procedures.
#
#######################################################################

data_SIKCAS
_symmetry_cell_setting           monoclinic
_symmetry_space_group_name_H-M   'P 2/n'
_symmetry_Int_Tables_number      13
_space_group_name_Hall           '-P 2yac'
loop_
_symmetry_equiv_pos_site_id
_symmetry_equiv_pos_as_xyz
1 x,y,z
2 1/2-x,y,1/2-z
3 -x,-y,-z
4 1/2+x,-y,1/2+z
_cell_length_a                   9.8520(4)
_cell_length_b                   12.2410(5)
_cell_length_c                   20.2090(8)
_cell_angle_alpha                90
_cell_angle_beta                 97.445(4)
_cell_angle_gamma                90
_cell_volume                     2416.63
loop_
_atom_site_label
_atom_site_type_symbol
_atom_site_fract_x
_atom_site_fract_y
_atom_site_fract_z
Cd1 Cd 0.7500 0.32245(3) 0.7500
Cd2 Cd 0.47200(3) 0.11484(2) 0.677367(15)
C1 C 0.8279(4) 0.1485(3) 0.5668(2)
C2 C 0.7544(4) 0.0755(3) 0.5242(2)
H1 H 0.6761 0.0428 0.5365
C3 C 0.7973(4) 0.0509(3) 0.46290(19)
C4 C 0.9151(4) 0.0974(3) 0.4461(2)
H2 H 0.9456 0.0788 0.4059
C5 C 0.9888(4) 0.1713(3) 0.4881(2)
C6 C 0.9446(4) 0.1985(3) 0.5484(2)
H3 H 0.9924 0.2497 0.5763
C7 C 0.7818(4) 0.1765(3) 0.6330(2)
C8 C 0.7137(4) -0.0238(3) 0.4151(2)
C9 C 1.1822(4) 0.2897(4) 0.5089(2)
H4 H 1.2183 0.2532 0.5500
H5 H 1.1262 0.3506 0.5197
C10 C 1.2976(4) 0.3298(4) 0.4731(2)
C11 C 1.4022(4) 0.2607(3) 0.4592(2)
H6 H 1.3998 0.1873 0.4708
C12 C 1.5090(4) 0.2995(3) 0.4285(2)
H7 H 1.5765 0.2514 0.4185
C13 C 1.5180(4) 0.4100(3) 0.41210(19)
C14 C 1.4146(4) 0.4790(3) 0.42747(19)
H8 H 1.4193 0.5532 0.4182
C15 C 1.3049(4) 0.4393(4) 0.4562(2)
H9 H 1.2350 0.4865 0.4643
C16 C 1.6404(4) 0.4533(3) 0.3847(2)
C17 C 1.7672(4) 0.4036(4) 0.4039(2)
H10 H 1.7710 0.3408 0.4300
C18 C 1.8870(4) 0.4451(4) 0.3850(2)
H11 H 1.9695 0.4084 0.3962
C19 C 1.8829(5) 0.5414(5) 0.3495(2)
H12 H 1.9634 0.5714 0.3380
C20 C 1.7604(4) 0.5933(4) 0.3311(2)
H13 H 1.7588 0.6590 0.3079
C21 C 1.6390(4) 0.5490(3) 0.34666(19)
C22 C 1.5106(4) 0.6074(3) 0.3173(2)
C23 C 0.4459(5) -0.1127(5) 0.7583(3)
H14 H 0.3729 -0.0868 0.7787
C24 C 0.4950(6) -0.2146(5) 0.7635(3)
H15 H 0.4633 -0.2715 0.7879
C25 C 0.6109(5) -0.1197(4) 0.7001(2)
H16 H 0.6752 -0.1007 0.6722
C26 C 0.6923(5) -0.3108(4) 0.7218(3)
H17 H 0.7296 -0.3073 0.6797
H18 H 0.6413 -0.3785 0.7226
N1 N 0.5194(4) -0.0523(3) 0.71837(18)
N2 N 0.6003(4) -0.2190(3) 0.72625(19)
O1 O 0.6933(3) 0.1189(2) 0.65467(14)
O2 O 0.8412(3) 0.2572(2) 0.66510(14)
O3 O 0.5990(3) -0.0537(2) 0.42810(14)
O4 O 0.7567(3) -0.0509(2) 0.36117(14)
O5 O 1.1021(3) 0.2151(2) 0.46522(14)
O6 O 1.4183(3) 0.5555(3) 0.28213(15)
O7 O 1.4984(4) 0.7068(2) 0.32777(19)
O8 O 0.4074(3) 0.1679(3) 0.77919(14)
H19 H 0.366(4) 0.131(3) 0.8063(15)
H20 H 0.477(3) 0.204(3) 0.7976(17)
C23A C 1.0541(5) -0.1127(5) 0.7417(3)
H14A H 1.1271 -0.0868 0.7213
C24A C 1.0050(6) -0.2146(5) 0.7365(3)
H15A H 1.0367 -0.2715 0.7121
C25A C 0.8891(5) -0.1197(4) 0.7999(2)
H16A H 0.8248 -0.1007 0.8278
C26A C 0.8077(5) -0.3108(4) 0.7782(3)
H17A H 0.7704 -0.3073 0.8203
H18A H 0.8587 -0.3785 0.7774
N1A N 0.9806(4) -0.0523(3) 0.78163(18)
N2A N 0.8997(4) -0.2190(3) 0.77375(19)
Cd2A Cd 1.02800(3) 0.11484(2) 0.822633(15)
C1A C 0.6721(4) 0.1485(3) 0.9332(2)
C2A C 0.7456(4) 0.0755(3) 0.9758(2)
H1A H 0.8239 0.0428 0.9635
C3A C 0.7027(4) 0.0509(3) 1.03710(19)
C4A C 0.5849(4) 0.0974(3) 1.0539(2)
H2A H 0.5544 0.0788 1.0941
C5A C 0.5112(4) 0.1713(3) 1.0119(2)
C6A C 0.5554(4) 0.1985(3) 0.9516(2)
H3A H 0.5076 0.2497 0.9237
C7A C 0.7182(4) 0.1765(3) 0.8670(2)
C8A C 0.7863(4) -0.0238(3) 1.0849(2)
C9A C 0.3178(4) 0.2897(4) 0.9911(2)
H4A H 0.2817 0.2532 0.9500
H5A H 0.3738 0.3506 0.9803
C10A C 0.2024(4) 0.3298(4) 1.0269(2)
C11A C 0.0978(4) 0.2607(3) 1.0408(2)
H6A H 0.1002 0.1873 1.0292
C12A C -0.0090(4) 0.2995(3) 1.0715(2)
H7A H -0.0765 0.2514 1.0815
C13A C -0.0180(4) 0.4100(3) 1.08790(19)
C14A C 0.0854(4) 0.4790(3) 1.07253(19)
H8A H 0.0807 0.5532 1.0818
C15A C 0.1951(4) 0.4393(4) 1.0438(2)
H9A H 0.2650 0.4865 1.0357
C16A C -0.1404(4) 0.4533(3) 1.1153(2)
C17A C -0.2672(4) 0.4036(4) 1.0961(2)
H10A H -0.2710 0.3408 1.0700
C18A C -0.3870(4) 0.4451(4) 1.1150(2)
H11A H -0.4695 0.4084 1.1038
C19A C -0.3829(5) 0.5414(5) 1.1505(2)
H12A H -0.4634 0.5714 1.1620
C20A C -0.2604(4) 0.5933(4) 1.1689(2)
H13A H -0.2588 0.6590 1.1921
C21A C -0.1390(4) 0.5490(3) 1.15334(19)
C22A C -0.0106(4) 0.6074(3) 1.1827(2)
O1A O 0.8067(3) 0.1189(2) 0.84533(14)
O2A O 0.6588(3) 0.2572(2) 0.83490(14)
O3A O 0.9010(3) -0.0537(2) 1.07190(14)
O4A O 0.7433(3) -0.0509(2) 1.13883(14)
O5A O 0.3979(3) 0.2151(2) 1.03478(14)
O6A O 0.0817(3) 0.5555(3) 1.21787(15)
O7A O 0.0016(4) 0.7068(2) 1.17223(19)
O8A O 1.0926(3) 0.1679(3) 0.72081(14)
H19A H 1.134(4) 0.131(3) 0.6937(15)
H20A H 1.023(3) 0.204(3) 0.7024(17)
Cd1B Cd 0.2500 0.67755(3) 1.2500
Cd1B_2 Cd 1.2500 0.67755(3) 0.2500
Cd2B Cd 0.52800(3) -0.11484(2) 0.322633(15)
Cd2B_2 Cd 1.52800(3) 0.88516(2) 0.322633(15)
Cd2C Cd -0.02800(3) 0.88516(2) 1.177367(15)
Cd2C_2 Cd 0.97200(3) -0.11484(2) 1.177367(15)
O3B O 0.4010(3) 0.0537(2) 0.57190(14)
O3C O 1.0990(3) 0.0537(2) 0.92810(14)
O4B O 0.2433(3) 0.0509(2) 0.63883(14)
O4C O 1.2567(3) 0.0509(2) 0.86117(14)
O6B O 0.5817(3) 0.4445(3) 0.71787(15)
O6C O 0.9183(3) 0.4445(3) 0.78213(15)
O7B O 0.5016(4) 0.2932(2) 0.67223(19)
O7C O 0.9984(4) 0.2932(2) 0.82777(19)
loop_
_geom_bond_atom_site_label_1
_geom_bond_atom_site_label_2
_geom_bond_site_symmetry_1
_geom_bond_site_symmetry_2
Cd1 O2 1_555 1_555
Cd2 N1 1_555 1_555
C1 C2 1_555 1_555
C2 H1 1_555 1_555
C3 C2 1_555 1_555
C4 C3 1_555 1_555
H2 C4 1_555 1_555
C5 C4 1_555 1_555
C6 C1 1_555 1_555
H3 C6 1_555 1_555
C7 C1 1_555 1_555
C8 C3 1_555 1_555
C9 H4 1_555 1_555
H5 C9 1_555 1_555
C10 C9 1_555 1_555
C11 C10 1_555 1_555
H6 C11 1_555 1_555
C12 C11 1_555 1_555
H7 C12 1_555 1_555
C13 C12 1_555 1_555
C14 C13 1_555 1_555
H8 C14 1_555 1_555
C15 C10 1_555 1_555
H9 C15 1_555 1_555
C16 C13 1_555 1_555
C17 C16 1_555 1_555
H10 C17 1_555 1_555
C18 C17 1_555 1_555
H11 C18 1_555 1_555
C19 C18 1_555 1_555
H12 C19 1_555 1_555
C20 C19 1_555 1_555
H13 C20 1_555 1_555
C21 C16 1_555 1_555
C22 C21 1_555 1_555
C23 H14 1_555 1_555
C24 C23 1_555 1_555
H15 C24 1_555 1_555
C25 H16 1_555 1_555
C26 H17 1_555 1_555
H18 C26 1_555 1_555
N1 C23 1_555 1_555
N2 C24 1_555 1_555
O1 Cd2 1_555 1_555
O2 C7 1_555 1_555
O3 C8 1_555 1_555
O4 C8 1_555 1_555
O5 C5 1_555 1_555
O6 C22 1_555 1_555
O7 C22 1_555 1_555
O8 Cd2 1_555 1_555
H19 O8 1_555 1_555
H20 O8 1_555 1_555
C23A H14A 1_555 1_555
C24A C23A 1_555 1_555
H15A C24A 1_555 1_555
C25A H16A 1_555 1_555
C26A C26 1_555 1_555
H17A C26A 1_555 1_555
H18A C26A 1_555 1_555
N1A C23A 1_555 1_555
N2A C24A 1_555 1_555
Cd2A N1A 1_555 1_555
C1A C2A 1_555 1_555
C2A H1A 1_555 1_555
C3A C2A 1_555 1_555
C4A C3A 1_555 1_555
H2A C4A 1_555 1_555
C5A C4A 1_555 1_555
C6A C1A 1_555 1_555
H3A C6A 1_555 1_555
C7A C1A 1_555 1_555
C8A C3A 1_555 1_555
C9A H4A 1_555 1_555
H5A C9A 1_555 1_555
C10A C9A 1_555 1_555
C11A C10A 1_555 1_555
H6A C11A 1_555 1_555
C12A C11A 1_555 1_555
H7A C12A 1_555 1_555
C13A C12A 1_555 1_555
C14A C13A 1_555 1_555
H8A C14A 1_555 1_555
C15A C10A 1_555 1_555
H9A C15A 1_555 1_555
C16A C13A 1_555 1_555
C17A C16A 1_555 1_555
H10A C17A 1_555 1_555
C18A C17A 1_555 1_555
H11A C18A 1_555 1_555
C19A C18A 1_555 1_555
H12A C19A 1_555 1_555
C20A C19A 1_555 1_555
H13A C20A 1_555 1_555
C21A C16A 1_555 1_555
C22A C21A 1_555 1_555
O1A Cd2A 1_555 1_555
O2A Cd1 1_555 1_555
O3A C8A 1_555 1_555
O4A C8A 1_555 1_555
O5A C5A 1_555 1_555
O6A C22A 1_555 1_555
O7A C22A 1_555 1_555
O8A Cd2A 1_555 1_555
H19A O8A 1_555 1_555
H20A O8A 1_555 1_555
Cd1B O6A 1_555 1_555
Cd1B_2 O6 1_555 1_555
Cd2B O3 1_555 1_555
Cd2B_2 O7 1_555 1_555
Cd2C O7A 1_555 1_555
Cd2C_2 O3A 1_555 1_555
O3B Cd2 1_555 1_555
O3C Cd2A 1_555 1_555
O4B Cd2 1_555 1_555
O4C Cd2A 1_555 1_555
O6B Cd1 1_555 1_555
O6C Cd1 1_555 1_555
O7B Cd1 1_555 1_555
O7C Cd1 1_555 1_555
Cd2 O7B 1_555 1_555
C5 C6 1_555 1_555
C7 O1 1_555 1_555
C9 O5 1_555 1_555
C14 C15 1_555 1_555
C20 C21 1_555 1_555
C25 N1 1_555 1_555
C25 N2 1_555 1_555
C26 N2 1_555 1_555
O4 Cd2B 1_555 1_555
O7 Cd1B_2 1_555 1_555
C25A N1A 1_555 1_555
C25A N2A 1_555 1_555
C26A N2A 1_555 1_555
Cd2A O7C 1_555 1_555
C5A C6A 1_555 1_555
C7A O1A 1_555 1_555
C7A O2A 1_555 1_555
C9A O5A 1_555 1_555
C14A C15A 1_555 1_555
C20A C21A 1_555 1_555
O4A Cd2C_2 1_555 1_555
O7A Cd1B 1_555 1_555

#END
