
#######################################################################
#
#                 Cambridge Crystallographic Data Centre
#                                CCDC 
#
#######################################################################
#
# If this CIF has been generated from an entry in the Cambridge 
# Structural Database, then it will include bibliographic, chemical, 
# crystal, experimental, refinement or atomic coordinate data resulting 
# from the CCDC's data processing and validation procedures.
#
#######################################################################

data_SIKCIA
_symmetry_cell_setting           monoclinic
_symmetry_space_group_name_H-M   'P 21/n'
_symmetry_Int_Tables_number      14
_space_group_name_Hall           '-P 2yn'
loop_
_symmetry_equiv_pos_site_id
_symmetry_equiv_pos_as_xyz
1 x,y,z
2 1/2-x,1/2+y,1/2-z
3 -x,-y,-z
4 1/2+x,1/2-y,1/2+z
_cell_length_a                   13.1370(7)
_cell_length_b                   15.3527(7)
_cell_length_c                   24.3497(11)
_cell_angle_alpha                90
_cell_angle_beta                 105.103(5)
_cell_angle_gamma                90
_cell_volume                     4741.42
loop_
_atom_site_label
_atom_site_type_symbol
_atom_site_fract_x
_atom_site_fract_y
_atom_site_fract_z
Zn1 Zn 0.04532(5) 0.21272(4) 0.35398(2)
Zn2 Zn 0.00522(5) 0.34021(4) 0.25470(2)
Zn3 Zn 0.09453(5) 0.13817(4) 0.23398(2)
C1 C -0.2387(4) 0.3371(3) 0.35305(19)
C2 C -0.2885(4) 0.4094(4) 0.3250(2)
H1 H -0.2571 0.4398 0.3008
C3 C -0.3843(4) 0.4382(4) 0.3320(2)
C4 C -0.4314(4) 0.3923(3) 0.36734(19)
H2 H -0.4963 0.4101 0.3720
C5 C -0.3816(4) 0.3188(3) 0.3962(2)
C6 C -0.2842(4) 0.2919(3) 0.38965(19)
H3 H -0.2502 0.2440 0.4097
C7 C -0.1369(4) 0.3076(3) 0.3419(2)
C8 C -0.4358(5) 0.5183(4) 0.3006(2)
C9 C -0.3940(5) 0.2032(4) 0.4610(2)
H4 H -0.3298 0.2185 0.4894
H5 H -0.3771 0.1596 0.4360
C10 C -0.4737(4) 0.1678(4) 0.4895(2)
C11 C -0.5802(5) 0.1795(5) 0.4669(2)
H6 H -0.6035 0.2129 0.4342
C12 C -0.6533(5) 0.1429(4) 0.4918(2)
H7 H -0.7248 0.1521 0.4756
C13 C -0.6213(4) 0.0927(4) 0.54048(19)
C14 C -0.5141(5) 0.0811(4) 0.5635(2)
H8 H -0.4904 0.0482 0.5965
C15 C -0.4418(4) 0.1183(4) 0.5380(2)
H9 H -0.3701 0.1095 0.5540
C16 C -0.7013(4) 0.0498(4) 0.5646(2)
C17 C -0.7839(5) 0.0063(5) 0.5277(2)
H10 H -0.7876 0.0058 0.4891
C18 C -0.8606(6) -0.0360(5) 0.5466(3)
H11 H -0.9158 -0.0634 0.5206
C19 C -0.8559(5) -0.0380(5) 0.6033(3)
H12 H -0.9077 -0.0670 0.6159
C20 C -0.7752(5) 0.0025(4) 0.6411(2)
H13 H -0.7716 0.0002 0.6797
C21 C -0.6980(4) 0.0475(3) 0.62273(19)
C22 C -0.6204(4) 0.0963(4) 0.6669(2)
C23 C 0.1617(4) -0.0395(3) 0.35266(18)
C24 C 0.1059(4) -0.0877(3) 0.38371(19)
H14 H 0.0590 -0.0597 0.4005
C25 C 0.1197(4) -0.1757(3) 0.3896(2)
C26 C 0.1914(4) -0.2188(3) 0.36527(19)
H15 H 0.2023 -0.2785 0.3703
C27 C 0.2457(4) -0.1715(3) 0.33363(18)
C28 C 0.2310(4) -0.0820(3) 0.32757(18)
H16 H 0.2679 -0.0503 0.3065
C29 C 0.1444(4) 0.0558(3) 0.34513(19)
C30 C 0.3188(4) -0.2157(4) 0.30473(19)
C31 C -0.0235(5) -0.1931(4) 0.4319(2)
H17 H -0.0718 -0.1677 0.3987
H18 H -0.0003 -0.1473 0.4599
C32 C -0.0784(5) -0.2624(4) 0.4560(2)
C33 C -0.1855(5) -0.2701(4) 0.4377(2)
H19 H -0.2231 -0.2359 0.4077
C34 C -0.2377(5) -0.3283(4) 0.4634(2)
H20 H -0.3109 -0.3316 0.4512
C35 C -0.1846(5) -0.3821(4) 0.5071(2)
C36 C -0.0761(5) -0.3768(4) 0.5230(2)
H21 H -0.0378 -0.4139 0.5510
C37 C -0.0231(5) -0.3170(4) 0.4977(2)
H22 H 0.0502 -0.3140 0.5091
C38 C -0.2438(4) -0.4403(4) 0.5366(2)
C39 C -0.3131(5) -0.5003(4) 0.5051(2)
H23 H -0.3213 -0.5033 0.4660
C40 C -0.3702(5) -0.5557(4) 0.5297(2)
H24 H -0.4166 -0.5954 0.5075
C41 C -0.3586(5) -0.5523(4) 0.5873(2)
H25 H -0.3976 -0.5892 0.6043
C42 C -0.2891(4) -0.4941(4) 0.6195(2)
H26 H -0.2802 -0.4931 0.6587
C43 C -0.2319(4) -0.4368(3) 0.59547(19)
C44 C -0.1597(4) -0.3738(4) 0.6336(2)
O1 O -0.0889(3) 0.2447(2) 0.36996(13)
O2 O -0.1085(3) 0.3475(2) 0.30377(16)
O3 O -0.3869(4) 0.5607(3) 0.27241(19)
O4 O -0.5262(3) 0.5378(2) 0.30619(15)
O5 O -0.4371(3) 0.2784(3) 0.42914(15)
O6 O -0.5661(3) 0.0540(3) 0.71017(13)
O7 O -0.6118(3) 0.1759(3) 0.66530(15)
O8 O 0.0925(3) 0.0935(2) 0.37517(13)
O9 O 0.1823(3) 0.0938(2) 0.30892(14)
O10 O 0.3762(3) -0.1679(3) 0.28474(17)
O11 O 0.3166(3) -0.2976(2) 0.30302(14)
O12 O 0.0643(3) -0.2292(2) 0.41665(16)
O13 O -0.1090(3) -0.4012(2) 0.68092(14)
O14 O -0.1564(3) -0.2959(2) 0.61661(13)
O15 O 0.0046(3) 0.2100(2) 0.26900(13)
H27 H -0.050(3) 0.181(3) 0.2558(19)
Zn1B Zn -0.04532(5) -0.21272(4) 0.64602(2)
Zn2A Zn 0.49478(5) -0.15979(4) 0.24530(2)
Zn2B Zn -0.00522(5) -0.34021(4) 0.74530(2)
Zn2C Zn -0.49478(5) 0.15979(4) 0.75470(2)
Zn3A Zn -0.59453(5) 0.63817(4) 0.26602(2)
Zn3A_2 Zn 0.40547(5) -0.36183(4) 0.26602(2)
O4A O 0.0262(3) 0.0378(2) 0.19381(15)
O6C O -0.0661(3) 0.4460(3) 0.21017(13)
O7C O -0.1118(3) 0.3241(3) 0.16530(15)
O10A O 0.1238(3) 0.3321(3) 0.21526(17)
O11A O 0.1834(3) 0.2024(2) 0.19698(14)
O13B O 0.1090(3) 0.4012(2) 0.31908(14)
O14B O 0.1564(3) 0.2959(2) 0.38339(13)
C45 C -0.3365(7) 0.1505(6) 0.2471(3)
C46 C -0.3291(11) 0.2330(8) 0.2144(5)
C47 C -0.4899(11) 0.1678(8) 0.2828(6)
C48 C -0.5726(9) 0.1265(8) 0.3014(5)
C49 C -0.5049(6) 0.1019(5) 0.1810(4)
H28 H -0.5701 0.0709 0.1793
H29 H -0.5236 0.1596 0.1654
C50 C -0.4483(8) 0.0562(5) 0.1449(3)
H30 H -0.4922 0.0531 0.1067
H31 H -0.4310 -0.0016 0.1593
H32 H -0.3848 0.0873 0.1452
N1 N -0.4449(5) 0.1108(4) 0.2419(2)
O16 O -0.527(3) -0.688(2) 0.6342(13)
H33 H -0.54(2) -0.645(10) 0.653(9)
C51? C -0.369(2) 0.2530(19) 0.2232(12)
C52? C -0.566(3) 0.136(2) 0.2528(13)
loop_
_geom_bond_atom_site_label_1
_geom_bond_atom_site_label_2
_geom_bond_site_symmetry_1
_geom_bond_site_symmetry_2
Zn1 O1 1_555 1_555
Zn2 O2 1_555 1_555
Zn3 O9 1_555 1_555
C1 C2 1_555 1_555
C2 H1 1_555 1_555
C3 C2 1_555 1_555
C4 C3 1_555 1_555
H2 C4 1_555 1_555
C5 C4 1_555 1_555
C6 C1 1_555 1_555
H3 C6 1_555 1_555
C7 C1 1_555 1_555
C8 C3 1_555 1_555
C9 H4 1_555 1_555
H5 C9 1_555 1_555
C10 C9 1_555 1_555
C11 C10 1_555 1_555
H6 C11 1_555 1_555
C12 C11 1_555 1_555
H7 C12 1_555 1_555
C13 C12 1_555 1_555
C14 C13 1_555 1_555
H8 C14 1_555 1_555
C15 C10 1_555 1_555
H9 C15 1_555 1_555
C16 C13 1_555 1_555
C17 C16 1_555 1_555
H10 C17 1_555 1_555
C18 C17 1_555 1_555
H11 C18 1_555 1_555
C19 C18 1_555 1_555
H12 C19 1_555 1_555
C20 C19 1_555 1_555
H13 C20 1_555 1_555
C21 C16 1_555 1_555
C22 C21 1_555 1_555
C23 C24 1_555 1_555
C24 H14 1_555 1_555
C25 C24 1_555 1_555
C26 C25 1_555 1_555
H15 C26 1_555 1_555
C27 C26 1_555 1_555
C28 C23 1_555 1_555
H16 C28 1_555 1_555
C29 C23 1_555 1_555
C30 C27 1_555 1_555
C31 H17 1_555 1_555
H18 C31 1_555 1_555
C32 C31 1_555 1_555
C33 C32 1_555 1_555
H19 C33 1_555 1_555
C34 C33 1_555 1_555
H20 C34 1_555 1_555
C35 C34 1_555 1_555
C36 C35 1_555 1_555
H21 C36 1_555 1_555
C37 C32 1_555 1_555
H22 C37 1_555 1_555
C38 C35 1_555 1_555
C39 C38 1_555 1_555
H23 C39 1_555 1_555
C40 C39 1_555 1_555
H24 C40 1_555 1_555
C41 C40 1_555 1_555
H25 C41 1_555 1_555
C42 C41 1_555 1_555
H26 C42 1_555 1_555
C43 C38 1_555 1_555
C44 C43 1_555 1_555
O1 C7 1_555 1_555
O2 C7 1_555 1_555
O3 C8 1_555 1_555
O4 C8 1_555 1_555
O5 C5 1_555 1_555
O6 C22 1_555 1_555
O7 C22 1_555 1_555
O8 Zn1 1_555 1_555
O9 C29 1_555 1_555
O10 C30 1_555 1_555
O11 C30 1_555 1_555
O12 C25 1_555 1_555
O13 C44 1_555 1_555
O14 C44 1_555 1_555
O15 Zn1 1_555 1_555
H27 O15 1_555 1_555
C45 C46 1_555 1_555
C47 C48 1_555 1_555
C49 H28 1_555 1_555
H29 C49 1_555 1_555
C50 C49 1_555 1_555
H30 C50 1_555 1_555
H31 C50 1_555 1_555
H32 C50 1_555 1_555
N1 C45 1_555 1_555
O16 H33 1_555 1_555
Zn1B O14 1_555 1_555
Zn2A O10 1_555 1_555
Zn2B O13 1_555 1_555
Zn2C O6 1_555 1_555
Zn3A O4 1_555 1_555
Zn3A_2 O11 1_555 1_555
O4A Zn3 1_555 1_555
O6C Zn2 1_555 1_555
O7C Zn2 1_555 1_555
O10A Zn2 1_555 1_555
O11A Zn3 1_555 1_555
O13B Zn2 1_555 1_555
O14B Zn1 1_555 1_555
Zn2 O15 1_555 1_555
Zn3 O15 1_555 1_555
C5 C6 1_555 1_555
C9 O5 1_555 1_555
C14 C15 1_555 1_555
C20 C21 1_555 1_555
C27 C28 1_555 1_555
C29 O8 1_555 1_555
C31 O12 1_555 1_555
C36 C37 1_555 1_555
C42 C43 1_555 1_555
O7 Zn2C 1_555 1_555
C47 N1 1_555 1_555
C49 N1 1_555 1_555

#END
