
#######################################################################
#
#                 Cambridge Crystallographic Data Centre
#                                CCDC 
#
#######################################################################
#
# If this CIF has been generated from an entry in the Cambridge 
# Structural Database, then it will include bibliographic, chemical, 
# crystal, experimental, refinement or atomic coordinate data resulting 
# from the CCDC's data processing and validation procedures.
#
#######################################################################

data_SIKFEY
_symmetry_cell_setting           triclinic
_symmetry_space_group_name_H-M   'P -1'
_symmetry_Int_Tables_number      2
_space_group_name_Hall           '-P 1'
loop_
_symmetry_equiv_pos_site_id
_symmetry_equiv_pos_as_xyz
1 x,y,z
2 -x,-y,-z
_cell_length_a                   9.2756(3)
_cell_length_b                   11.3191(4)
_cell_length_c                   12.4673(4)
_cell_angle_alpha                69.600(2)
_cell_angle_beta                 80.473(2)
_cell_angle_gamma                87.955(2)
_cell_volume                     1209.6
loop_
_atom_site_label
_atom_site_type_symbol
_atom_site_fract_x
_atom_site_fract_y
_atom_site_fract_z
C1 C 0.8993(5) 0.9534(4) 0.6934(3)
H1 H 0.8775 0.9989 0.6203
C2 C 0.9297(5) 1.0191(4) 0.7620(4)
H2 H 0.9303 1.1068 0.7341
C3 C 0.9596(4) 0.9539(4) 0.8731(3)
C4 C 0.9592(5) 0.8233(4) 0.9069(4)
H3 H 0.9792 0.7752 0.9800
C5 C 0.9296(5) 0.7653(4) 0.8333(3)
H4 H 0.9303 0.6778 0.8583
C6 C 0.9926(5) 1.0240(4) 0.9455(3)
H5 H 1.0041 1.1111 0.9104
C7 C 1.1899(4) 0.7536(4) 0.5882(4)
H6 H 1.1777 0.8114 0.6266
C8 C 1.3248(4) 0.6990(4) 0.5770(4)
H7 H 1.4002 0.7202 0.6082
C9 C 1.3480(4) 0.6143(4) 0.5205(4)
C10 C 1.2315(4) 0.5915(4) 0.4720(4)
H8 H 1.2424 0.5375 0.4297
C11 C 1.1024(4) 0.6481(4) 0.4867(4)
H9 H 1.0266 0.6314 0.4533
C12 C 1.4884(5) 0.5488(4) 0.5151(4)
C13 C 0.7472(4) 0.8409(4) 0.4388(3)
C14 C 0.6569(4) 0.9102(4) 0.3488(3)
C15 C 0.5959(4) 1.0220(4) 0.3513(3)
H10 H 0.6081 1.0506 0.4107
C16 C 0.5170(5) 1.0921(4) 0.2672(4)
H11 H 0.4752 1.1671 0.2700
C17 C 0.5013(4) 1.0502(4) 0.1804(3)
C18 C 0.5547(5) 0.9378(4) 0.1775(4)
H12 H 0.5390 0.9092 0.1188
C19 C 0.6329(5) 0.8661(4) 0.2629(4)
H13 H 0.6689 0.7886 0.2623
C20 C 0.5025(4) 1.2314(4) 0.0125(3)
C21 C 0.4249(5) 1.3262(4) -0.0514(4)
H14 H 0.3234 1.3195 -0.0397
C22 C 0.4952(5) 1.4320(4) -0.1331(4)
H15 H 0.4401 1.4967 -0.1750
C23 C 0.6441(4) 1.4445(4) -0.1545(3)
C24 C 0.7220(5) 1.3473(5) -0.0902(4)
H16 H 0.8236 1.3531 -0.1037
C25 C 0.6531(5) 1.2415(5) -0.0062(4)
H17 H 0.7075 1.1775 0.0374
C26 C 0.7216(4) 1.5584(4) -0.2425(3)
N1 N 1.0771(3) 0.7269(3) 0.5466(3)
N2 N 0.8995(3) 0.8288(3) 0.7262(3)
Cu1 Cu 0.86131(5) 0.74206(4) 0.61316(4)
O1 O 0.7838(3) 0.8971(3) 0.5021(2)
O2 O 0.7859(3) 0.7297(2) 0.4529(2)
O3 O 0.4267(3) 1.1249(3) 0.0908(2)
O4 O 0.6539(3) 1.6555(3) -0.2901(2)
O5 O 0.8602(3) 1.5573(2) -0.2723(2)
H18 H 1.558(4) 0.581(4) 0.527(4)
C1A C 1.1007(5) 1.0466(4) 1.3066(3)
H1A H 1.1225 1.0011 1.3797
C2A C 1.0703(5) 0.9809(4) 1.2380(4)
H2A H 1.0697 0.8932 1.2659
C3A C 1.0404(4) 1.0461(4) 1.1269(3)
C4A C 1.0408(5) 1.1767(4) 1.0931(4)
H3A H 1.0208 1.2248 1.0200
C5A C 1.0704(5) 1.2347(4) 1.1667(3)
H4A H 1.0697 1.3222 1.1417
C6A C 1.0074(5) 0.9760(4) 1.0545(3)
H5A H 0.9959 0.8889 1.0896
C7A C 1.8101(4) 0.2464(4) 0.4118(4)
H6A H 1.8223 0.1886 0.3734
C8A C 1.6752(4) 0.3010(4) 0.4230(4)
H7A H 1.5998 0.2798 0.3918
C9A C 1.6520(4) 0.3857(4) 0.4795(4)
C10A C 1.7685(4) 0.4085(4) 0.5280(4)
H8A H 1.7576 0.4625 0.5703
C11A C 1.8976(4) 0.3519(4) 0.5133(4)
H9A H 1.9734 0.3686 0.5467
C12A C 1.5116(5) 0.4512(4) 0.4849(4)
C13_2 C 0.7472(4) -0.1591(4) 1.4388(3)
C14_2 C 0.6569(4) -0.0898(4) 1.3488(3)
C15_2 C 0.5959(4) 0.0220(4) 1.3513(3)
H10_2 H 0.6081 0.0506 1.4107
C16_2 C 0.5170(5) 0.0921(4) 1.2672(4)
H11_2 H 0.4752 0.1671 1.2700
C17_2 C 0.5013(4) 0.0502(4) 1.1804(3)
C18_2 C 0.5547(5) -0.0622(4) 1.1775(4)
H12_2 H 0.5390 -0.0908 1.1188
C19_2 C 0.6329(5) -0.1339(4) 1.2629(4)
H13_2 H 0.6689 -0.2114 1.2623
C20_2 C 0.5025(4) 0.2314(4) 1.0125(3)
C21_2 C 0.4249(5) 0.3262(4) 0.9486(4)
H14_2 H 0.3234 0.3195 0.9603
C22_2 C 0.4952(5) 0.4320(4) 0.8669(4)
H15_2 H 0.4401 0.4967 0.8250
C23_2 C 0.6441(4) 0.4445(4) 0.8455(3)
C24_2 C 0.7220(5) 0.3473(5) 0.9098(4)
H16_2 H 0.8236 0.3531 0.8963
C25_2 C 0.6531(5) 0.2415(5) 0.9938(4)
H17_2 H 0.7075 0.1775 1.0374
C26_2 C 0.7216(4) 0.5584(4) 0.7575(3)
N1A N 1.9229(3) 0.2731(3) 0.4534(3)
N2A N 1.1005(3) 1.1712(3) 1.2738(3)
N2A_2 N 2.1005(3) 0.1712(3) 0.2738(3)
Cu1A Cu 2.13869(5) 0.25794(4) 0.38684(4)
Cu1_2 Cu 0.86131(5) 1.74206(4) -0.38684(4)
Cu1A_2 Cu 1.13869(5) 1.25794(4) 1.38684(4)
Cu1_3 Cu 0.86131(5) -0.25794(4) 1.61316(4)
O1_2 O 0.7838(3) -0.1029(3) 1.5021(2)
O1A O 2.2162(3) 0.1029(3) 0.4979(2)
O2_2 O 0.7859(3) -0.2703(2) 1.4529(2)
O2A O 2.2141(3) 0.2703(2) 0.5471(2)
O3_2 O 0.4267(3) 0.1249(3) 1.0908(2)
O4_2 O 0.6539(3) 0.6555(3) 0.7099(2)
O4A O 2.3461(3) 0.3445(3) 0.2901(2)
O5_2 O 0.8602(3) 0.5573(2) 0.7277(2)
O5A O 2.1398(3) 0.4427(2) 0.2723(2)
H18A H 1.442(4) 0.419(4) 0.473(4)
O6 O 0.0806(6) 0.3554(6) 0.7601(5)
H19 H 0.093(7) 0.395(5) 0.803(5)
H20 H 0.05(3) 0.399(10) 0.701(14)
loop_
_geom_bond_atom_site_label_1
_geom_bond_atom_site_label_2
_geom_bond_site_symmetry_1
_geom_bond_site_symmetry_2
C1 H1 1_555 1_555
C2 C1 1_555 1_555
H2 C2 1_555 1_555
C3 C2 1_555 1_555
C4 C3 1_555 1_555
H3 C4 1_555 1_555
C5 C4 1_555 1_555
H4 C5 1_555 1_555
C6 C3 1_555 1_555
H5 C6 1_555 1_555
C7 H6 1_555 1_555
C8 C7 1_555 1_555
H7 C8 1_555 1_555
C9 C8 1_555 1_555
C10 C9 1_555 1_555
H8 C10 1_555 1_555
C11 C10 1_555 1_555
H9 C11 1_555 1_555
C12 C9 1_555 1_555
C13 C14 1_555 1_555
C14 C15 1_555 1_555
C15 H10 1_555 1_555
C16 C15 1_555 1_555
H11 C16 1_555 1_555
C17 C16 1_555 1_555
C18 C17 1_555 1_555
H12 C18 1_555 1_555
C19 C14 1_555 1_555
H13 C19 1_555 1_555
C20 C21 1_555 1_555
C21 H14 1_555 1_555
C22 C21 1_555 1_555
H15 C22 1_555 1_555
C23 C22 1_555 1_555
C24 C23 1_555 1_555
H16 C24 1_555 1_555
C25 C20 1_555 1_555
H17 C25 1_555 1_555
C26 C23 1_555 1_555
N1 C7 1_555 1_555
N2 C1 1_555 1_555
Cu1 N1 1_555 1_555
O1 C13 1_555 1_555
O2 C13 1_555 1_555
O3 C17 1_555 1_555
O4 C26 1_555 1_555
O5 C26 1_555 1_555
O6 H19 1_555 1_555
H18 C12 1_555 1_555
H20 O6 1_555 1_555
C1A H1A 1_555 1_555
C2A C1A 1_555 1_555
H2A C2A 1_555 1_555
C3A C2A 1_555 1_555
C4A C3A 1_555 1_555
H3A C4A 1_555 1_555
C5A C4A 1_555 1_555
H4A C5A 1_555 1_555
C6A C6 1_555 1_555
H5A C6A 1_555 1_555
C7A H6A 1_555 1_555
C8A C7A 1_555 1_555
H7A C8A 1_555 1_555
C9A C8A 1_555 1_555
C10A C9A 1_555 1_555
H8A C10A 1_555 1_555
C11A C10A 1_555 1_555
H9A C11A 1_555 1_555
C12A C12 1_555 1_555
C13_2 C14_2 1_555 1_555
C14_2 C15_2 1_555 1_555
C15_2 H10_2 1_555 1_555
C16_2 C15_2 1_555 1_555
H11_2 C16_2 1_555 1_555
C17_2 C16_2 1_555 1_555
C18_2 C17_2 1_555 1_555
H12_2 C18_2 1_555 1_555
C19_2 C14_2 1_555 1_555
H13_2 C19_2 1_555 1_555
C20_2 C21_2 1_555 1_555
C21_2 H14_2 1_555 1_555
C22_2 C21_2 1_555 1_555
H15_2 C22_2 1_555 1_555
C23_2 C22_2 1_555 1_555
C24_2 C23_2 1_555 1_555
H16_2 C24_2 1_555 1_555
C25_2 C20_2 1_555 1_555
H17_2 C25_2 1_555 1_555
C26_2 C23_2 1_555 1_555
N1A C7A 1_555 1_555
N2A C1A 1_555 1_555
N2A_2 Cu1A 1_555 1_555
Cu1A N1A 1_555 1_555
Cu1_2 O4 1_555 1_555
Cu1A_2 N2A 1_555 1_555
Cu1_3 O1_2 1_555 1_555
O1_2 C13_2 1_555 1_555
O1A Cu1A 1_555 1_555
O2_2 C13_2 1_555 1_555
O2A Cu1A 1_555 1_555
O3_2 C17_2 1_555 1_555
O4_2 Cu1 1_555 1_555
O4A Cu1A 1_555 1_555
O5_2 Cu1 1_555 1_555
O5A Cu1A 1_555 1_555
H18A C12A 1_555 1_555
C5 N2 1_555 1_555
C11 N1 1_555 1_555
C18 C19 1_555 1_555
C20 O3 1_555 1_555
C24 C25 1_555 1_555
N2 Cu1 1_555 1_555
Cu1 O1 1_555 1_555
Cu1 O2 1_555 1_555
O5 Cu1_2 1_555 1_555
C3A C6A 1_555 1_555
C5A N2A 1_555 1_555
C9A C12A 1_555 1_555
C11A N1A 1_555 1_555
C18_2 C19_2 1_555 1_555
C20_2 O3_2 1_555 1_555
C24_2 C25_2 1_555 1_555
C26_2 O4_2 1_555 1_555
C26_2 O5_2 1_555 1_555
Cu1_3 O2_2 1_555 1_555

#END
