
#######################################################################
#
#                 Cambridge Crystallographic Data Centre
#                                CCDC 
#
#######################################################################
#
# If this CIF has been generated from an entry in the Cambridge 
# Structural Database, then it will include bibliographic, chemical, 
# crystal, experimental, refinement or atomic coordinate data resulting 
# from the CCDC's data processing and validation procedures.
#
#######################################################################

data_SIKGEA
_symmetry_cell_setting           trigonal
_symmetry_space_group_name_H-M   'P 31 1 2'
_symmetry_Int_Tables_number      151
_space_group_name_Hall           "P 31 2' (0,0,4)"
loop_
_symmetry_equiv_pos_site_id
_symmetry_equiv_pos_as_xyz
1 x,y,z
2 -y,x-y,1/3+z
3 -x+y,-x,2/3+z
4 -y,-x,2/3-z
5 x,x-y,-z
6 -x+y,y,1/3-z
_cell_length_a                   10.8055(15)
_cell_length_b                   10.8055(15)
_cell_length_c                   12.637(3)
_cell_angle_alpha                90
_cell_angle_beta                 90
_cell_angle_gamma                120
_cell_volume                     1277.8
loop_
_atom_site_label
_atom_site_type_symbol
_atom_site_fract_x
_atom_site_fract_y
_atom_site_fract_z
Cu1 Cu 0.99773(9) 0.49887(5) 0.5000
N1 N 1.1474(6) 0.4953(6) 0.5980(3)
N2 N 0.8712(5) 0.3430(5) 0.4015(3)
C1 C 1.2481(6) 0.5989(6) 0.6313(4)
H1 H 1.2613 0.6870 0.6097
C2 C 1.1327(9) 0.3586(6) 0.6340(4)
H2 H 1.0569 0.2726 0.6102
C3 C 0.7531(7) 0.2206(7) 0.4377(4)
H3 H 0.7390 0.2025 0.5099
C4 C 0.8689(7) 0.3384(9) 0.2962(5)
H4 H 0.9469 0.4160 0.2647
N1E N 1.3479(8) 0.4953(6) 0.7353(3)
C1E C 1.3508(8) 0.5989(6) 0.7020(4)
H1E H 1.4257 0.6870 0.7236
C2E C 1.2259(11) 0.3586(6) 0.6993(4)
H2E H 1.2157 0.2726 0.7231
N2C N 0.6570(5) 0.1288(5) 0.2652(3)
C3C C 0.7794(7) 0.2469(7) 0.2290(4)
H3C H 0.7975 0.2610 0.1568
C4C C 0.6616(9) 0.1311(7) 0.3705(5)
H4C H 0.5840 0.0531 0.4020
Cu1A Cu 1.50113(5) 0.49886(10) 0.8333
Cu1B Cu 0.50114(10) 0.00227(9) 0.1667
N1D N 1.1474(6) 0.6521(8) 0.4020(3)
N2D N 0.8712(5) 0.5282(7) 0.5985(3)
loop_
_geom_bond_atom_site_label_1
_geom_bond_atom_site_label_2
_geom_bond_site_symmetry_1
_geom_bond_site_symmetry_2
Cu1 N1 1_555 1_555
N1 C1 1_555 1_555
N2 Cu1 1_555 1_555
C1 H1 1_555 1_555
C2 N1 1_555 1_555
H2 C2 1_555 1_555
C3 N2 1_555 1_555
H3 C3 1_555 1_555
C4 N2 1_555 1_555
H4 C4 1_555 1_555
N1E C1E 1_555 1_555
C1E C1 1_555 1_555
H1E C1E 1_555 1_555
C2E C2 1_555 1_555
H2E C2E 1_555 1_555
N2C C3C 1_555 1_555
C3C C4 1_555 1_555
H3C C3C 1_555 1_555
C4C C3 1_555 1_555
H4C C4C 1_555 1_555
Cu1A N1E 1_555 1_555
Cu1B N2C 1_555 1_555
N1D Cu1 1_555 1_555
N2D Cu1 1_555 1_555
N1E C2E 1_555 1_555
N2C C4C 1_555 1_555

#END
