
#######################################################################
#
#                 Cambridge Crystallographic Data Centre
#                                CCDC 
#
#######################################################################
#
# If this CIF has been generated from an entry in the Cambridge 
# Structural Database, then it will include bibliographic, chemical, 
# crystal, experimental, refinement or atomic coordinate data resulting 
# from the CCDC's data processing and validation procedures.
#
#######################################################################

data_SIKGID
_symmetry_cell_setting           monoclinic
_symmetry_space_group_name_H-M   'P 21/c'
_symmetry_Int_Tables_number      14
_space_group_name_Hall           '-P 2ybc'
loop_
_symmetry_equiv_pos_site_id
_symmetry_equiv_pos_as_xyz
1 x,y,z
2 -x,1/2+y,1/2-z
3 -x,-y,-z
4 x,1/2-y,1/2+z
_cell_length_a                   14.2599(10)
_cell_length_b                   6.6329(5)
_cell_length_c                   12.5568(10)
_cell_angle_alpha                90
_cell_angle_beta                 95.069(4)
_cell_angle_gamma                90
_cell_volume                     1183.03
loop_
_atom_site_label
_atom_site_type_symbol
_atom_site_fract_x
_atom_site_fract_y
_atom_site_fract_z
Cd1 Cd 0.395980(16) 0.46378(4) 0.56140(2)
Cd2 Cd 0.5000 0.0000 0.5000
Cl1 Cl 0.43780(6) 0.15106(13) 0.67977(7)
O1 O 0.25440(16) 0.2951(4) 0.4918(2)
O2 O 0.28429(16) 0.5993(4) 0.4326(2)
O3 O 0.48528(15) 0.3131(3) 0.43947(19)
O4 O 0.34427(16) -0.0279(4) 0.4236(2)
N1 N -0.3301(2) 0.3412(5) 0.3061(3)
H1 H -0.348(3) 0.406(7) 0.247(4)
H2 H -0.352(3) 0.228(7) 0.307(4)
C1 C 0.2280(2) 0.4529(5) 0.4399(3)
C2 C 0.1299(2) 0.4715(5) 0.3910(3)
H3 H 0.1112 0.5897 0.3519
C3 C 0.0672(2) 0.3242(6) 0.4011(3)
H4 H 0.0912 0.2036 0.4339
C4 C -0.0337(2) 0.3258(5) 0.3678(3)
C5 C -0.0884(2) 0.1579(5) 0.3874(3)
H5 H -0.0584 0.0405 0.4174
C6 C -0.1856(2) 0.1574(5) 0.3643(3)
H6 H -0.2213 0.0407 0.3778
C7 C -0.2298(2) 0.3284(5) 0.3214(3)
C8 C -0.1765(2) 0.4940(5) 0.2971(3)
H7 H -0.2067 0.6083 0.2640
C9 C -0.0795(2) 0.4951(5) 0.3205(3)
H8 H -0.0440 0.6107 0.3045
Cd1B Cd 0.604020(16) -0.46378(4) 0.43860(2)
Cd1B_2 Cd 0.604020(16) 0.53622(4) 0.43860(2)
Cd1B_3 Cd -0.395980(16) 0.53622(4) 0.43860(2)
Cd1_2 Cd 0.395980(16) -0.53622(4) 0.56140(2)
Cl1B Cl 0.56220(6) -0.15106(13) 0.32023(7)
O1B O -0.25440(16) 0.7049(4) 0.5082(2)
O1B_2 O 0.74560(16) -0.2951(4) 0.5082(2)
O2B O -0.28429(16) 0.4007(4) 0.5674(2)
O2B_2 O 0.71571(16) -0.5993(4) 0.5674(2)
O3B O 0.51472(15) -0.3131(3) 0.56053(19)
O3B_2 O 0.51472(15) 0.6869(3) 0.56053(19)
O3_2 O 0.48528(15) -0.6869(3) 0.43947(19)
O4B O 0.65573(16) 0.0279(4) 0.5764(2)
N1B N 0.3301(2) 0.6588(5) 0.6939(3)
N1_2 N 0.6699(2) -0.6588(5) 0.3061(3)
H1B H 0.348(3) 0.594(7) 0.753(4)
H1_2 H 0.652(3) -0.594(7) 0.247(4)
H2B H 0.352(3) 0.772(7) 0.693(4)
H2_2 H 0.648(3) -0.772(7) 0.307(4)
C1B C -0.2280(2) 0.5471(5) 0.5601(3)
C2B C -0.1299(2) 0.5285(5) 0.6090(3)
H3B H -0.1112 0.4103 0.6481
C3B C -0.0672(2) 0.6758(6) 0.5989(3)
H4B H -0.0912 0.7964 0.5661
C4B C 0.0337(2) 0.6742(5) 0.6322(3)
C5B C 0.0884(2) 0.8421(5) 0.6126(3)
H5B H 0.0584 0.9595 0.5826
C6B C 0.1856(2) 0.8426(5) 0.6357(3)
H6B H 0.2213 0.9593 0.6222
C7B C 0.2298(2) 0.6716(5) 0.6786(3)
C8B C 0.1765(2) 0.5060(5) 0.7029(3)
H7B H 0.2067 0.3917 0.7360
C9B C 0.0795(2) 0.5049(5) 0.6795(3)
H8B H 0.0440 0.3893 0.6955
loop_
_geom_bond_atom_site_label_1
_geom_bond_atom_site_label_2
_geom_bond_site_symmetry_1
_geom_bond_site_symmetry_2
Cd1 Cl1 1_555 1_555
Cd2 Cl1 1_555 1_555
O1 Cd1 1_555 1_555
O2 Cd1 1_555 1_555
O3 Cd1 1_555 1_555
O4 Cd2 1_555 1_555
N1 H1 1_555 1_555
H2 N1 1_555 1_555
C1 O1 1_555 1_555
C2 C1 1_555 1_555
H3 C2 1_555 1_555
C3 C2 1_555 1_555
H4 C3 1_555 1_555
C4 C3 1_555 1_555
C5 C4 1_555 1_555
H5 C5 1_555 1_555
C6 C5 1_555 1_555
H6 C6 1_555 1_555
C7 N1 1_555 1_555
C8 C7 1_555 1_555
H7 C8 1_555 1_555
C9 C4 1_555 1_555
H8 C9 1_555 1_555
Cd1B Cl1B 1_555 1_555
Cd1B_2 O3 1_555 1_555
Cd1B_3 N1 1_555 1_555
Cd1_2 O3B 1_555 1_555
Cl1B Cd2 1_555 1_555
O1B Cd1B_3 1_555 1_555
O1B_2 Cd1B 1_555 1_555
O2B Cd1B_3 1_555 1_555
O2B_2 Cd1B 1_555 1_555
O3B Cd2 1_555 1_555
O3B_2 Cd1 1_555 1_555
O3_2 Cd1B 1_555 1_555
O4B Cd2 1_555 1_555
N1B Cd1 1_555 1_555
N1_2 Cd1B 1_555 1_555
H1B N1B 1_555 1_555
H1_2 N1_2 1_555 1_555
H2B N1B 1_555 1_555
H2_2 N1_2 1_555 1_555
C1B O1B 1_555 1_555
C2B C1B 1_555 1_555
H3B C2B 1_555 1_555
C3B C2B 1_555 1_555
H4B C3B 1_555 1_555
C4B C3B 1_555 1_555
C5B C4B 1_555 1_555
H5B C5B 1_555 1_555
C6B C5B 1_555 1_555
H6B C6B 1_555 1_555
C7B N1B 1_555 1_555
C8B C7B 1_555 1_555
H7B C8B 1_555 1_555
C9B C4B 1_555 1_555
H8B C9B 1_555 1_555
Cd2 O3 1_555 1_555
O2 C1 1_555 1_555
C6 C7 1_555 1_555
C8 C9 1_555 1_555
Cd1B O3B 1_555 1_555
Cd1B_2 O3B_2 1_555 1_555
Cd1_2 O3_2 1_555 1_555
O2B C1B 1_555 1_555
C6B C7B 1_555 1_555
C8B C9B 1_555 1_555

#END
