
#######################################################################
#
#                 Cambridge Crystallographic Data Centre
#                                CCDC 
#
#######################################################################
#
# If this CIF has been generated from an entry in the Cambridge 
# Structural Database, then it will include bibliographic, chemical, 
# crystal, experimental, refinement or atomic coordinate data resulting 
# from the CCDC's data processing and validation procedures.
#
#######################################################################

data_SIKJED01
_symmetry_cell_setting           monoclinic
_symmetry_space_group_name_H-M   'P 21/c'
_symmetry_Int_Tables_number      14
_space_group_name_Hall           '-P 2ybc'
loop_
_symmetry_equiv_pos_site_id
_symmetry_equiv_pos_as_xyz
1 x,y,z
2 -x,1/2+y,1/2-z
3 -x,-y,-z
4 x,1/2-y,1/2+z
_cell_length_a                   10.3114(8)
_cell_length_b                   11.1349(6)
_cell_length_c                   6.5747(5)
_cell_angle_alpha                90
_cell_angle_beta                 94.746(6)
_cell_angle_gamma                90
_cell_volume                     752.295
loop_
_atom_site_label
_atom_site_type_symbol
_atom_site_fract_x
_atom_site_fract_y
_atom_site_fract_z
C1 C 0.2754(4) 0.3073(4) 0.2844(6)
C2 C 0.1900(4) 0.4026(4) 0.3028(6)
C3 C 0.0625(5) 0.3765(4) 0.3394(6)
H1 H 0.0029 0.4383 0.3505
C4 C 0.0245(5) 0.2586(5) 0.3594(7)
H2 H -0.0605 0.2399 0.3849
C5 C 0.1149(5) 0.1695(4) 0.3410(7)
H3 H 0.0896 0.0901 0.3563
C6 C 0.4154(5) 0.3304(4) 0.2413(7)
C7 C 0.2273(5) 0.5330(4) 0.2797(7)
N1 N 0.2386(4) 0.1923(3) 0.3018(5)
O1 O 0.4839(4) 0.2435(4) 0.1958(6)
O2 O 0.4497(4) 0.4367(4) 0.2552(9)
O3 O 0.2505(5) 0.5903(4) 0.4417(6)
O4 O 0.2212(4) 0.5725(3) 0.1018(6)
Ag1 Ag 0.37240(4) 0.03962(4) 0.24816(7)
Ag2 Ag 0.33575(4) 0.71743(4) -0.02492(7)
O1B O 0.5161(4) 0.7565(4) -0.1958(6)
O2A O 0.5503(4) -0.0633(4) 0.2448(9)
O3C O 0.2505(5) -0.0903(4) -0.0583(6)
O3C_2 O 0.2505(5) 0.9097(4) -0.0583(6)
Ag1A Ag 0.62760(4) 0.53962(4) 0.25184(7)
Ag1C Ag 0.37240(4) 0.46038(4) 0.74816(7)
Ag2B Ag 0.66425(4) 0.28257(4) 0.02492(7)
Ag2C Ag 0.33575(4) 0.78257(4) 0.47508(7)
loop_
_geom_bond_atom_site_label_1
_geom_bond_atom_site_label_2
_geom_bond_site_symmetry_1
_geom_bond_site_symmetry_2
C1 C2 1_555 1_555
C2 C3 1_555 1_555
C3 H1 1_555 1_555
C4 C3 1_555 1_555
H2 C4 1_555 1_555
C5 C4 1_555 1_555
H3 C5 1_555 1_555
C6 C1 1_555 1_555
C7 C2 1_555 1_555
N1 C1 1_555 1_555
O1 C6 1_555 1_555
O2 C6 1_555 1_555
O3 C7 1_555 1_555
O4 C7 1_555 1_555
Ag1 N1 1_555 1_555
Ag2 O4 1_555 1_555
O1B Ag2 1_555 1_555
O2A Ag1 1_555 1_555
O3C Ag1 1_555 1_555
O3C_2 Ag2 1_555 1_555
Ag1A O2 1_555 1_555
Ag1C O3 1_555 1_555
Ag2B O1 1_555 1_555
Ag2C O3 1_555 1_555
C5 N1 1_555 1_555
O1 Ag1 1_555 1_555

#END
