
#######################################################################
#
#                 Cambridge Crystallographic Data Centre
#                                CCDC 
#
#######################################################################
#
# If this CIF has been generated from an entry in the Cambridge 
# Structural Database, then it will include bibliographic, chemical, 
# crystal, experimental, refinement or atomic coordinate data resulting 
# from the CCDC's data processing and validation procedures.
#
#######################################################################

data_SIKJED02
_symmetry_cell_setting           monoclinic
_symmetry_space_group_name_H-M   'P 21/c'
_symmetry_Int_Tables_number      14
_space_group_name_Hall           '-P 2ybc'
loop_
_symmetry_equiv_pos_site_id
_symmetry_equiv_pos_as_xyz
1 x,y,z
2 -x,1/2+y,1/2-z
3 -x,-y,-z
4 x,1/2-y,1/2+z
_cell_length_a                   10.263(5)
_cell_length_b                   11.1576(15)
_cell_length_c                   6.5396(14)
_cell_angle_alpha                90
_cell_angle_beta                 95.775(4)
_cell_angle_gamma                90
_cell_volume                     745.052
loop_
_atom_site_label
_atom_site_type_symbol
_atom_site_fract_x
_atom_site_fract_y
_atom_site_fract_z
Ag1 Ag 0.63026(4) -0.03832(3) 0.25085(7)
C1 C 0.7733(5) -0.5325(4) 0.2205(8)
N1 N 0.7626(4) -0.1921(3) 0.1957(6)
C2 C 0.8122(5) -0.4024(4) 0.1963(7)
C3 C 0.7259(5) -0.3079(4) 0.2149(7)
C4 C 0.8860(5) -0.1697(4) 0.1555(8)
H1 H 0.9116(5) -0.0887(4) 0.1390(8)
C5 C 0.9782(5) -0.2596(5) 0.1367(8)
H2 H 1.0650(5) -0.2408(5) 0.1090(8)
C6 C 0.9395(5) -0.3772(4) 0.1597(8)
H3 H 1.0005(5) -0.4406(4) 0.1502(8)
O1 O 0.7815(4) -0.5718(3) 0.4017(6)
O2 O 0.7491(4) -0.5912(3) 0.0568(6)
Ag2 Ag 0.33667(4) -0.28475(3) 0.47215(6)
O3 O 0.5167(4) -0.2423(3) 0.3032(6)
O4 O 0.5510(4) -0.4370(3) 0.2440(7)
C7 C 0.5852(5) -0.3293(4) 0.2585(7)
Ag1A Ag 0.36974(4) -0.53832(3) 0.24915(7)
Ag1C Ag 0.63026(4) -0.46168(3) -0.24915(7)
O1B O 0.2185(4) -0.4282(3) 0.5983(6)
O2A O 0.2509(4) -0.0912(3) 0.4432(6)
O2C O 0.7491(4) 0.0912(3) 0.5568(6)
Ag2A Ag 0.66333(4) -0.78475(3) 0.02785(6)
Ag2A_2 Ag 0.66333(4) 0.21525(3) 0.02785(6)
Ag2B Ag 0.66333(4) -0.71525(3) 0.52785(6)
O4A O 0.4490(4) 0.0630(3) 0.2560(7)
loop_
_geom_bond_atom_site_label_1
_geom_bond_atom_site_label_2
_geom_bond_site_symmetry_1
_geom_bond_site_symmetry_2
Ag1 N1 1_555 1_555
C1 C2 1_555 1_555
N1 C3 1_555 1_555
C2 C3 1_555 1_555
C3 C7 1_555 1_555
C4 N1 1_555 1_555
H1 C4 1_555 1_555
C5 C4 1_555 1_555
H2 C5 1_555 1_555
C6 C2 1_555 1_555
H3 C6 1_555 1_555
O1 C1 1_555 1_555
O2 C1 1_555 1_555
Ag2 O3 1_555 1_555
O3 Ag1 1_555 1_555
O4 C7 1_555 1_555
C7 O3 1_555 1_555
Ag1A Ag2 1_555 1_555
Ag1C O2 1_555 1_555
O1B Ag2 1_555 1_555
O2A Ag2 1_555 1_555
O2C Ag1 1_555 1_555
Ag2A O2 1_555 1_555
Ag2A_2 Ag1 1_555 1_555
Ag2B O1 1_555 1_555
O4A Ag1 1_555 1_555
C5 C6 1_555 1_555
O4 Ag1A 1_555 1_555

#END
