
#######################################################################
#
#                 Cambridge Crystallographic Data Centre
#                                CCDC 
#
#######################################################################
#
# If this CIF has been generated from an entry in the Cambridge 
# Structural Database, then it will include bibliographic, chemical, 
# crystal, experimental, refinement or atomic coordinate data resulting 
# from the CCDC's data processing and validation procedures.
#
#######################################################################

data_SIKJED
_symmetry_cell_setting           monoclinic
_symmetry_space_group_name_H-M   'P 21/c'
_symmetry_Int_Tables_number      14
_space_group_name_Hall           '-P 2ybc'
loop_
_symmetry_equiv_pos_site_id
_symmetry_equiv_pos_as_xyz
1 x,y,z
2 -x,1/2+y,1/2-z
3 -x,-y,-z
4 x,1/2-y,1/2+z
_cell_length_a                   11.2172(13)
_cell_length_b                   10.7363(12)
_cell_length_c                   6.6863(8)
_cell_angle_alpha                90
_cell_angle_beta                 106.542(2)
_cell_angle_gamma                90
_cell_volume                     771.911
loop_
_atom_site_label
_atom_site_type_symbol
_atom_site_fract_x
_atom_site_fract_y
_atom_site_fract_z
Ag1 Ag 0.87880(3) 0.53109(3) 1.19960(6)
O1 O 0.7464(3) 1.0925(3) 0.8992(5)
O2 O 0.9766(3) 0.7451(3) 1.3135(5)
O3 O 0.7256(3) 1.0784(3) 1.2223(5)
N1 N 0.7435(3) 0.6815(3) 1.0632(5)
O4 O 0.9440(3) 0.9385(3) 1.1945(6)
C1 C 0.7771(4) 0.8021(4) 1.0927(6)
C2 C 0.6935(4) 0.8981(4) 1.0145(6)
C3 C 0.9108(4) 0.8302(4) 1.2119(7)
C4 C 0.5381(4) 0.7431(4) 0.8773(7)
H1 H 0.4571 0.7211 0.8047
C5 C 0.6259(4) 0.6531(4) 0.9585(7)
H2 H 0.6029 0.5697 0.9402
C6 C 0.5725(4) 0.8661(4) 0.9056(6)
H3 H 0.5146 0.9282 0.8516
C7 C 0.7282(4) 1.0353(4) 1.0514(8)
Ag2 Ag 0.84703(3) 1.28639(4) 0.93194(6)
Ag1A Ag 1.12120(3) 1.03109(3) 1.30040(6)
Ag1C Ag 0.87880(3) 0.96891(3) 0.69960(6)
O1C O 0.7464(3) 0.4075(3) 1.3992(5)
O2A O 1.0234(3) 1.2451(3) 1.1865(5)
O3C O 0.7256(3) 1.4216(3) 0.7223(5)
O4A O 1.0560(3) 0.4385(3) 1.3055(6)
Ag2A Ag 1.15297(3) 0.78639(4) 1.56806(6)
Ag2C Ag 0.84703(3) 1.21361(4) 1.43194(6)
loop_
_geom_bond_atom_site_label_1
_geom_bond_atom_site_label_2
_geom_bond_site_symmetry_1
_geom_bond_site_symmetry_2
Ag1 O2 1_555 1_555
O1 C7 1_555 1_555
O2 C3 1_555 1_555
O3 C7 1_555 1_555
N1 Ag1 1_555 1_555
O4 C3 1_555 1_555
C1 N1 1_555 1_555
C2 C1 1_555 1_555
C3 C1 1_555 1_555
C4 H1 1_555 1_555
C5 N1 1_555 1_555
H2 C5 1_555 1_555
C6 C2 1_555 1_555
H3 C6 1_555 1_555
C7 C2 1_555 1_555
Ag2 O1 1_555 1_555
Ag1A O4 1_555 1_555
Ag1C O1 1_555 1_555
O1C Ag1 1_555 1_555
O2A Ag2 1_555 1_555
O3C Ag2 1_555 1_555
O4A Ag1 1_555 1_555
Ag2A O2 1_555 1_555
Ag2C O3 1_555 1_555
C4 C5 1_555 1_555
C4 C6 1_555 1_555
Ag1A O2A 1_555 1_555

#END
