
#######################################################################
#
#                 Cambridge Crystallographic Data Centre
#                                CCDC 
#
#######################################################################
#
# If this CIF has been generated from an entry in the Cambridge 
# Structural Database, then it will include bibliographic, chemical, 
# crystal, experimental, refinement or atomic coordinate data resulting 
# from the CCDC's data processing and validation procedures.
#
#######################################################################

data_SIKJUS
_symmetry_cell_setting           triclinic
_symmetry_space_group_name_H-M   'P -1'
_symmetry_Int_Tables_number      2
_space_group_name_Hall           '-P 1'
loop_
_symmetry_equiv_pos_site_id
_symmetry_equiv_pos_as_xyz
1 x,y,z
2 -x,-y,-z
_cell_length_a                   5.619(2)
_cell_length_b                   13.208(5)
_cell_length_c                   14.041(6)
_cell_angle_alpha                76.959(10)
_cell_angle_beta                 85.155(10)
_cell_angle_gamma                77.745(10)
_cell_volume                     991.322
loop_
_atom_site_label
_atom_site_type_symbol
_atom_site_fract_x
_atom_site_fract_y
_atom_site_fract_z
Cu1 Cu 0.99617(8) 0.11017(3) 0.43785(3)
Cu2 Cu 0.5000 0.0000 0.5000
O1 O 0.7964(5) 0.0329(2) 0.5391(2)
H1 H 0.772(8) 0.058(3) 0.591(2)
O2 O 0.7718(5) -0.7554(2) 1.4179(2)
O3 O 0.2357(7) 0.1533(3) 0.5496(3)
H2 H 0.258(10) 0.143(4) 0.6110(10)
H3 H 0.206(12) 0.206(5) 0.535(5)
O4 O 0.9704(7) -0.6540(3) 1.4773(3)
O5 O 0.7926(5) -0.1642(2) 0.6726(2)
O7 O 0.4209(5) -0.0661(2) 0.63440(19)
N1 N 0.2965(6) -0.3956(3) 1.2977(2)
N2 N 0.2927(7) -0.2614(3) 0.9721(2)
C1 C 0.6201(8) -0.5717(3) 1.3861(3)
C2 C 0.6453(8) -0.4707(3) 1.3915(3)
H4 H 0.7718 -0.4619 1.4256
C3 C 0.4810(8) -0.3836(3) 1.3458(3)
H5 H 0.4986 -0.3158 1.3485
C4 C 0.2653(8) -0.4932(3) 1.2938(3)
H6 H 0.1351 -0.5005 1.2609
C5 C 0.4247(8) -0.5811(3) 1.3379(3)
H7 H 0.4013 -0.6481 1.3355
C6 C 0.8061(8) -0.6683(3) 1.4316(3)
C7 C 0.1247(8) -0.2995(3) 1.2473(3)
H8 H 0.0944 -0.2468 1.2874
H9 H -0.0294 -0.3186 1.2404
C8 C 0.2243(8) -0.2513(3) 1.1462(3)
H10 H 0.1400 -0.1781 1.1266
H11 H 0.3959 -0.2514 1.1501
C9 C 0.1944(9) -0.3106(4) 1.0693(3)
H12 H 0.2794 -0.3837 1.0882
H13 H 0.0230 -0.3105 1.0649
C10 C 0.1514(9) -0.1799(4) 0.9136(3)
H14 H -0.0047 -0.1525 0.9355
C11 C 0.2358(8) -0.1368(4) 0.8218(3)
H15 H 0.1365 -0.0815 0.7810
C12 C 0.4707(8) -0.1769(3) 0.7907(3)
C13 C 0.6144(8) -0.2587(3) 0.8533(3)
H16 H 0.7739 -0.2853 0.8345
C14 C 0.5196(9) -0.3006(4) 0.9435(3)
H17 H 0.6145 -0.3568 0.9851
C15 C 0.5706(7) -0.1322(3) 0.6911(3)
Cu1A Cu 0.00383(8) -0.11017(3) 0.56215(3)
Cu1A_2 Cu 1.00383(8) -0.11017(3) 0.56215(3)
Cu1_2 Cu 0.99617(8) -0.88983(3) 1.43785(3)
Cu1_3 Cu -0.00383(8) 0.11017(3) 0.43785(3)
Cu1A_3 Cu 0.00383(8) 0.88983(3) -0.43785(3)
O1A O 0.2036(5) -0.0329(2) 0.4609(2)
O1A_2 O 1.2036(5) -0.0329(2) 0.4609(2)
O1_2 O -0.2036(5) 0.0329(2) 0.5391(2)
H1A H 0.228(8) -0.058(3) 0.409(2)
H1A_2 H 1.228(8) -0.058(3) 0.409(2)
H1_2 H -0.228(8) 0.058(3) 0.591(2)
O2A O 0.2282(5) 0.7554(2) -0.4179(2)
O2_2 O 0.7718(5) 0.2446(2) 0.4179(2)
O2A_2 O 0.2282(5) -0.2446(2) 0.5821(2)
O3A O 0.7643(7) -0.1533(3) 0.4504(3)
O3_2 O 1.2357(7) 0.1533(3) 0.5496(3)
O3A_2 O -0.2357(7) -0.1533(3) 0.4504(3)
H2A H 0.742(10) -0.143(4) 0.3890(10)
H2_2 H 1.258(10) 0.143(4) 0.6110(10)
H2A_2 H -0.258(10) -0.143(4) 0.3890(10)
H3A H 0.794(12) -0.206(5) 0.465(5)
H3_2 H 1.206(12) 0.206(5) 0.535(5)
H3A_2 H -0.206(12) -0.206(5) 0.465(5)
O4A O 0.0296(7) 0.6540(3) -0.4773(3)
O5A O 0.2074(5) 0.1642(2) 0.3274(2)
O5A_2 O 1.2074(5) 0.1642(2) 0.3274(2)
O5_2 O -0.2074(5) -0.1642(2) 0.6726(2)
O7A O 0.5791(5) 0.0661(2) 0.36560(19)
N1A N 0.7035(6) 0.3956(3) -0.2977(2)
N2A N 0.7073(7) 0.2614(3) 0.0279(2)
C1A C 0.3799(8) 0.5717(3) -0.3861(3)
C2A C 0.3547(8) 0.4707(3) -0.3915(3)
H4A H 0.2282 0.4619 -0.4256
C3A C 0.5190(8) 0.3836(3) -0.3458(3)
H5A H 0.5014 0.3158 -0.3485
C4A C 0.7347(8) 0.4932(3) -0.2938(3)
H6A H 0.8649 0.5005 -0.2609
C5A C 0.5753(8) 0.5811(3) -0.3379(3)
H7A H 0.5987 0.6481 -0.3355
C6A C 0.1939(8) 0.6683(3) -0.4316(3)
C7A C 0.8753(8) 0.2995(3) -0.2473(3)
H8A H 0.9056 0.2468 -0.2874
H9A H 1.0294 0.3186 -0.2404
C8A C 0.7757(8) 0.2513(3) -0.1462(3)
H10A H 0.8600 0.1781 -0.1266
H11A H 0.6041 0.2514 -0.1501
C9A C 0.8056(9) 0.3106(4) -0.0693(3)
H12A H 0.7206 0.3837 -0.0882
H13A H 0.9770 0.3105 -0.0649
C10A C 0.8486(9) 0.1799(4) 0.0864(3)
H14A H 1.0047 0.1525 0.0645
C11A C 0.7642(8) 0.1368(4) 0.1782(3)
H15A H 0.8635 0.0815 0.2190
C12A C 0.5293(8) 0.1769(3) 0.2093(3)
C13A C 0.3856(8) 0.2587(3) 0.1467(3)
H16A H 0.2261 0.2853 0.1655
C14A C 0.4804(9) 0.3006(4) 0.0565(3)
H17A H 0.3855 0.3568 0.0149
C15A C 0.4294(7) 0.1322(3) 0.3089(3)
O6 O 1.316(4) 0.0842(15) -0.0197(14)
O8 O 1.281(3) -0.4711(5) 0.9291(6)
O9 O 1.0998(8) -0.4016(3) 0.8031(3)
O10 O 1.2374(7) -0.5703(3) 0.8424(3)
N3 N 1.1992(8) -0.4804(3) 0.8599(3)
O11 O 1.319(2) -0.1153(7) 0.3058(5)
O12 O 1.6423(13) -0.1271(6) 0.2350(8)
O13 O 1.3374(12) -0.0133(4) 0.1775(6)
N4 N 1.4428(12) -0.0818(4) 0.2318(4)
loop_
_geom_bond_atom_site_label_1
_geom_bond_atom_site_label_2
_geom_bond_site_symmetry_1
_geom_bond_site_symmetry_2
Cu1 O1 1_555 1_555
Cu2 O1 1_555 1_555
O1 H1 1_555 1_555
O2 C6 1_555 1_555
O3 Cu2 1_555 1_555
H2 O3 1_555 1_555
H3 O3 1_555 1_555
O4 C6 1_555 1_555
O5 C15 1_555 1_555
O7 Cu2 1_555 1_555
O8 N3 1_555 1_555
O9 N3 1_555 1_555
O10 N3 1_555 1_555
O11 N4 1_555 1_555
O12 N4 1_555 1_555
O13 N4 1_555 1_555
N1 C3 1_555 1_555
N2 C9 1_555 1_555
C1 C2 1_555 1_555
C2 H4 1_555 1_555
C3 C2 1_555 1_555
H5 C3 1_555 1_555
C4 N1 1_555 1_555
H6 C4 1_555 1_555
C5 C1 1_555 1_555
H7 C5 1_555 1_555
C6 C1 1_555 1_555
C7 N1 1_555 1_555
H8 C7 1_555 1_555
H9 C7 1_555 1_555
C8 C7 1_555 1_555
H10 C8 1_555 1_555
H11 C8 1_555 1_555
C9 C8 1_555 1_555
H12 C9 1_555 1_555
H13 C9 1_555 1_555
C10 N2 1_555 1_555
H14 C10 1_555 1_555
C11 C10 1_555 1_555
H15 C11 1_555 1_555
C12 C11 1_555 1_555
C13 C12 1_555 1_555
H16 C13 1_555 1_555
C14 N2 1_555 1_555
H17 C14 1_555 1_555
C15 O7 1_555 1_555
Cu1A O1A 1_555 1_555
Cu1A_2 O1 1_555 1_555
Cu1_2 O2 1_555 1_555
Cu1_3 O3 1_555 1_555
Cu1A_3 O2A 1_555 1_555
O1A Cu2 1_555 1_555
O1A_2 Cu1 1_555 1_555
O1_2 Cu1A 1_555 1_555
H1A O1A 1_555 1_555
H1A_2 O1A_2 1_555 1_555
H1_2 O1_2 1_555 1_555
O2A C6A 1_555 1_555
O2_2 Cu1 1_555 1_555
O2A_2 Cu1A 1_555 1_555
O3A Cu2 1_555 1_555
O3_2 Cu1 1_555 1_555
O3A_2 Cu1A 1_555 1_555
H2A O3A 1_555 1_555
H2_2 O3_2 1_555 1_555
H2A_2 O3A_2 1_555 1_555
H3A O3A 1_555 1_555
H3_2 O3_2 1_555 1_555
H3A_2 O3A_2 1_555 1_555
O4A C6A 1_555 1_555
O5A Cu1_3 1_555 1_555
O5A_2 Cu1 1_555 1_555
O5_2 Cu1A 1_555 1_555
O7A Cu2 1_555 1_555
N1A C3A 1_555 1_555
N2A C9A 1_555 1_555
C1A C2A 1_555 1_555
C2A H4A 1_555 1_555
C3A C2A 1_555 1_555
H5A C3A 1_555 1_555
C4A N1A 1_555 1_555
H6A C4A 1_555 1_555
C5A C1A 1_555 1_555
H7A C5A 1_555 1_555
C6A C1A 1_555 1_555
C7A N1A 1_555 1_555
H8A C7A 1_555 1_555
H9A C7A 1_555 1_555
C8A C7A 1_555 1_555
H10A C8A 1_555 1_555
H11A C8A 1_555 1_555
C9A C8A 1_555 1_555
H12A C9A 1_555 1_555
H13A C9A 1_555 1_555
C10A N2A 1_555 1_555
H14A C10A 1_555 1_555
C11A C10A 1_555 1_555
H15A C11A 1_555 1_555
C12A C11A 1_555 1_555
C13A C12A 1_555 1_555
H16A C13A 1_555 1_555
C14A N2A 1_555 1_555
H17A C14A 1_555 1_555
C15A O5A 1_555 1_555
O5 Cu1A_2 1_555 1_555
C4 C5 1_555 1_555
C12 C15 1_555 1_555
C13 C14 1_555 1_555
Cu1A_2 O1A_2 1_555 1_555
Cu1A_2 O3A 1_555 1_555
Cu1_3 O1A 1_555 1_555
Cu1_3 O1_2 1_555 1_555
O7A C15A 1_555 1_555
C4A C5A 1_555 1_555
C12A C15A 1_555 1_555
C13A C14A 1_555 1_555

#END
