
#######################################################################
#
#                 Cambridge Crystallographic Data Centre
#                                CCDC 
#
#######################################################################
#
# If this CIF has been generated from an entry in the Cambridge 
# Structural Database, then it will include bibliographic, chemical, 
# crystal, experimental, refinement or atomic coordinate data resulting 
# from the CCDC's data processing and validation procedures.
#
#######################################################################

data_SIKKIH
_symmetry_cell_setting           monoclinic
_symmetry_space_group_name_H-M   'P 21/c'
_symmetry_Int_Tables_number      14
_space_group_name_Hall           '-P 2ybc'
loop_
_symmetry_equiv_pos_site_id
_symmetry_equiv_pos_as_xyz
1 x,y,z
2 -x,1/2+y,1/2-z
3 -x,-y,-z
4 x,1/2-y,1/2+z
_cell_length_a                   14.4065(8)
_cell_length_b                   23.8055(13)
_cell_length_c                   26.6367(14)
_cell_angle_alpha                90
_cell_angle_beta                 96.905(1)
_cell_angle_gamma                90
_cell_volume                     9068.9
loop_
_atom_site_label
_atom_site_type_symbol
_atom_site_fract_x
_atom_site_fract_y
_atom_site_fract_z
Ag1 Ag 0.64480(4) 0.66734(2) 0.38668(2)
Ag2 Ag -0.5000 0.5000 0.0000
Ru1 Ru 0.24341(3) 0.82324(2) 0.092170(18)
Ru2 Ru 0.09891(3) 0.48236(2) 0.208772(18)
N1 N 0.3310(3) 0.8169(2) 0.15442(19)
C1 C 0.3663(4) 0.8641(3) 0.1777(2)
C2 C 0.4192(5) 0.8615(3) 0.2243(3)
H1 H 0.4436 0.8949 0.2402
C3 C 0.4369(5) 0.8098(3) 0.2479(3)
C4 C 0.4007(5) 0.7614(3) 0.2229(3)
H2 H 0.4127 0.7256 0.2380
C5 C 0.3476(4) 0.7659(3) 0.1763(2)
N2 N 0.2854(4) 0.9059(2) 0.10317(19)
C6 C 0.3412(4) 0.9150(2) 0.1481(2)
C7 C 0.3698(5) 0.9686(3) 0.1629(3)
H3 H 0.4077 0.9743 0.1943
C8 C 0.3431(5) 1.0138(3) 0.1320(3)
H4 H 0.3595 1.0511 0.1424
C9 C 0.2921(5) 1.0037(3) 0.0858(3)
H5 H 0.2767 1.0338 0.0628
C10 C 0.2640(5) 0.9506(3) 0.0731(2)
H6 H 0.2273 0.9447 0.0414
N3 N 0.2369(3) 0.7383(2) 0.10575(19)
C11 C 0.2969(4) 0.7206(3) 0.1467(2)
C12 C 0.3054(5) 0.6643(3) 0.1587(2)
H7 H 0.3483 0.6522 0.1864
C13 C 0.2506(5) 0.6256(3) 0.1297(3)
H8 H 0.2561 0.5867 0.1373
C14 C 0.1885(5) 0.6438(3) 0.0903(3)
H9 H 0.1493 0.6177 0.0708
C15 C 0.1831(5) 0.6997(3) 0.0790(3)
H10 H 0.1400 0.7119 0.0514
N4 N 0.5916(4) 0.7542(3) 0.3600(2)
C16 C 0.5411(5) 0.7605(3) 0.3151(2)
H11 H 0.5412 0.7302 0.2919
C17 C 0.4886(6) 0.8073(3) 0.2992(3)
C18 C 0.4805(7) 0.8513(4) 0.3350(3)
H12 H 0.4415 0.8830 0.3267
C19 C 0.5323(7) 0.8461(4) 0.3831(3)
H13 H 0.5310 0.8752 0.4074
C20 C 0.5847(7) 0.7984(4) 0.3945(3)
H14 H 0.6181 0.7952 0.4274
N5 N 1.1523(4) 0.6682(2) 0.53120(19)
C21 C 1.0619(4) 0.6564(3) 0.5373(2)
C22 C 0.9972(5) 0.6487(3) 0.4956(3)
H15 H 0.9342 0.6403 0.5000
C23 C 1.0231(5) 0.6530(3) 0.4463(2)
C24 C 1.1171(5) 0.6655(3) 0.4422(2)
H16 H 1.1378 0.6689 0.4098
C25 C 1.1794(4) 0.6731(3) 0.4853(2)
N6 N 1.1213(4) 0.6652(2) 0.62472(19)
C26 C 1.0446(5) 0.6564(3) 0.5904(2)
C27 C 0.9562(5) 0.6517(4) 0.6060(3)
H17 H 0.9033 0.6450 0.5818
C28 C 0.9455(5) 0.6568(4) 0.6564(3)
H18 H 0.8851 0.6543 0.6673
C29 C 1.0232(5) 0.6655(3) 0.6911(3)
H19 H 1.0174 0.6688 0.7262
C30 C 1.1099(5) 0.6695(3) 0.6739(2)
H20 H 1.1634 0.6754 0.6978
N7 N 1.3265(3) 0.6911(2) 0.53526(19)
C31 C 1.2797(4) 0.6879(3) 0.4874(2)
C32 C 1.3235(5) 0.7006(3) 0.4453(2)
H21 H 1.2903 0.6975 0.4124
C33 C 1.4153(5) 0.7179(3) 0.4515(3)
H22 H 1.4455 0.7275 0.4229
C34 C 1.4636(5) 0.7212(3) 0.4998(3)
H23 H 1.5272 0.7327 0.5047
C35 C 1.4174(4) 0.7074(3) 0.5406(2)
H24 H 1.4505 0.7093 0.5736
N8 N 0.7897(4) 0.6445(2) 0.3692(2)
C36 C 0.8583(5) 0.6518(3) 0.4067(2)
H25 H 0.8417 0.6616 0.4390
C37 C 0.9526(4) 0.6459(3) 0.4017(2)
C38 C 0.9768(5) 0.6337(3) 0.3539(2)
H26 H 1.0405 0.6309 0.3483
C39 C 0.9058(5) 0.6256(3) 0.3147(2)
H27 H 0.9204 0.6166 0.2818
C40 C 0.8143(5) 0.6305(3) 0.3235(2)
H28 H 0.7664 0.6239 0.2964
N9 N 0.1915(4) 0.5046(2) 0.2662(2)
C41 C 0.1633(4) 0.5116(2) 0.3121(2)
C42 C 0.2250(5) 0.5305(3) 0.3525(2)
H29 H 0.2046 0.5357 0.3848
C43 C 0.3181(4) 0.5418(3) 0.3451(2)
C44 C 0.3452(4) 0.5328(3) 0.2976(2)
H30 H 0.4081 0.5396 0.2920
C45 C 0.2809(4) 0.5141(3) 0.2580(2)
N10 N 0.0164(4) 0.4833(2) 0.2669(2)
C46 C 0.0631(5) 0.4974(3) 0.3128(2)
C47 C 0.0194(5) 0.4979(3) 0.3561(3)
H31 H 0.0534 0.5070 0.3878
C48 C -0.0751(5) 0.4849(3) 0.3526(3)
H32 H -0.1064 0.4843 0.3820
C49 C -0.1227(5) 0.4729(4) 0.3060(3)
H33 H -0.1878 0.4650 0.3029
C50 C -0.0759(5) 0.4722(3) 0.2640(3)
H34 H -0.1095 0.4636 0.2321
N11 N 0.2195(4) 0.4869(2) 0.17394(19)
C51 C 0.2975(4) 0.5020(3) 0.2056(2)
C52 C 0.3842(5) 0.5050(3) 0.1879(3)
H35 H 0.4376 0.5164 0.2100
C53 C 0.3927(6) 0.4916(4) 0.1391(3)
H36 H 0.4522 0.4927 0.1272
C54 C 0.3143(6) 0.4763(4) 0.1071(3)
H37 H 0.3189 0.4676 0.0727
C55 C 0.2291(5) 0.4738(3) 0.1258(3)
H38 H 0.1755 0.4625 0.1039
N12 N 0.5285(4) 0.6132(2) 0.4127(2)
C56 C 0.4601(5) 0.5959(3) 0.3770(3)
H39 H 0.4625 0.6078 0.3432
C57 C 0.3863(5) 0.5615(3) 0.3869(3)
C58 C 0.3823(5) 0.5457(3) 0.4375(3)
H40 H 0.3333 0.5224 0.4464
C59 C 0.4521(5) 0.5650(3) 0.4741(3)
H41 H 0.4504 0.5559 0.5087
C60 C 0.5237(5) 0.5975(3) 0.4600(3)
H42 H 0.5719 0.6092 0.4853
N13 N 0.0004(4) 0.4613(2) 0.1538(2)
C61 C -0.0534(5) 0.5015(3) 0.1300(2)
C62 C -0.1297(5) 0.4870(3) 0.0960(3)
H43 H -0.1661 0.5154 0.0780
C63 C -0.1532(5) 0.4309(3) 0.0883(3)
C64 C -0.0972(5) 0.3897(3) 0.1142(3)
H44 H -0.1124 0.3510 0.1098
C65 C -0.0194(5) 0.4061(3) 0.1462(3)
N14 N 0.0487(4) 0.5608(2) 0.1849(2)
C66 C -0.0236(5) 0.5584(3) 0.1458(2)
C67 C -0.0650(5) 0.6070(3) 0.1255(3)
H45 H -0.1145 0.6047 0.0985
C68 C -0.0354(6) 0.6584(3) 0.1438(3)
H46 H -0.0635 0.6918 0.1296
C69 C 0.0365(5) 0.6611(3) 0.1834(3)
H47 H 0.0586 0.6963 0.1969
C70 C 0.0749(5) 0.6118(3) 0.2026(3)
H48 H 0.1231 0.6139 0.2302
N15 N 0.1132(4) 0.3959(2) 0.2093(2)
C71 C 0.0492(5) 0.3689(3) 0.1753(3)
C72 C 0.0517(6) 0.3119(3) 0.1686(3)
H49 H 0.0058 0.2939 0.1455
C73 C 0.1223(7) 0.2807(4) 0.1960(4)
H50 H 0.1255 0.2412 0.1915
C74 C 0.1872(7) 0.3078(4) 0.2298(4)
H51 H 0.2360 0.2873 0.2488
C75 C 0.1804(5) 0.3654(3) 0.2356(3)
H52 H 0.2250 0.3840 0.2590
N16 N -0.3915(6) 0.4391(3) 0.0143(4)
C76 C -0.3123(7) 0.4512(4) 0.0446(4)
H53 H -0.3072 0.4871 0.0603
C77 C -0.2381(5) 0.4144(3) 0.0543(3)
C78 C -0.2480(6) 0.3614(4) 0.0325(3)
H54 H -0.1998 0.3341 0.0387
C79 C -0.3301(6) 0.3494(4) 0.0015(4)
H55 H -0.3384 0.3133 -0.0137
C80 C -0.3980(6) 0.3880(4) -0.0073(4)
H56 H -0.4524 0.3790 -0.0296
Ag1B Ag -1.64480(4) 0.33266(2) -0.38668(2)
Ru1B Ru -1.24341(3) 0.17676(2) -0.092170(18)
Ru1C Ru 1.24341(3) 0.67676(2) 0.592170(18)
Ru1A Ru -2.24341(3) 0.32324(2) -0.592170(18)
Ru2B Ru -1.09891(3) 0.51764(2) -0.208772(18)
N1B N -1.3310(3) 0.1831(2) -0.15442(19)
C1B C -1.3663(4) 0.1359(3) -0.1777(2)
C2B C -1.4192(5) 0.1385(3) -0.2243(3)
H1B H -1.4436 0.1051 -0.2402
C3B C -1.4369(5) 0.1902(3) -0.2479(3)
C4B C -1.4007(5) 0.2386(3) -0.2229(3)
H2B H -1.4127 0.2744 -0.2380
C5B C -1.3476(4) 0.2341(3) -0.1763(2)
N2B N -1.2854(4) 0.0941(2) -0.10317(19)
C6B C -1.3412(4) 0.0850(2) -0.1481(2)
C7B C -1.3698(5) 0.0314(3) -0.1629(3)
H3B H -1.4077 0.0257 -0.1943
C8B C -1.3431(5) -0.0138(3) -0.1320(3)
H4B H -1.3595 -0.0511 -0.1424
C9B C -1.2921(5) -0.0037(3) -0.0858(3)
H5B H -1.2767 -0.0338 -0.0628
C10B C -1.2640(5) 0.0494(3) -0.0731(2)
H6B H -1.2273 0.0553 -0.0414
N3B N -1.2369(3) 0.2617(2) -0.10575(19)
C11B C -1.2969(4) 0.2794(3) -0.1467(2)
C12B C -1.3054(5) 0.3357(3) -0.1587(2)
H7B H -1.3483 0.3478 -0.1864
C13B C -1.2506(5) 0.3744(3) -0.1297(3)
H8B H -1.2561 0.4133 -0.1373
C14B C -1.1885(5) 0.3562(3) -0.0903(3)
H9B H -1.1493 0.3823 -0.0708
C15B C -1.1831(5) 0.3003(3) -0.0790(3)
H10B H -1.1400 0.2881 -0.0514
N4B N -1.5916(4) 0.2458(3) -0.3600(2)
C16B C -1.5411(5) 0.2395(3) -0.3151(2)
H11B H -1.5412 0.2698 -0.2919
C17B C -1.4886(6) 0.1927(3) -0.2992(3)
C18B C -1.4805(7) 0.1487(4) -0.3350(3)
H12B H -1.4415 0.1170 -0.3267
C19B C -1.5323(7) 0.1539(4) -0.3831(3)
H13B H -1.5310 0.1248 -0.4074
C20B C -1.5847(7) 0.2016(4) -0.3945(3)
H14B H -1.6181 0.2048 -0.4274
N5B N -2.1523(4) 0.3318(2) -0.53120(19)
N5C N 0.1523(4) 0.8318(2) 0.03120(19)
N5A N -1.1523(4) 0.1682(2) -0.03120(19)
C21B C -2.0619(4) 0.3436(3) -0.5373(2)
C22B C -1.9972(5) 0.3513(3) -0.4956(3)
H15B H -1.9342 0.3597 -0.5000
C23B C -2.0231(5) 0.3470(3) -0.4463(2)
C24B C -2.1171(5) 0.3345(3) -0.4422(2)
H16B H -2.1378 0.3311 -0.4098
C25B C -2.1794(4) 0.3269(3) -0.4853(2)
N6B N -2.1213(4) 0.3348(2) -0.62472(19)
N6C N 0.1213(4) 0.8348(2) 0.12472(19)
N6A N -1.1213(4) 0.1652(2) -0.12472(19)
C26B C -2.0446(5) 0.3436(3) -0.5904(2)
C27B C -1.9562(5) 0.3483(4) -0.6060(3)
H17B H -1.9033 0.3550 -0.5818
C28B C -1.9455(5) 0.3432(4) -0.6564(3)
H18B H -1.8851 0.3457 -0.6673
C29B C -2.0232(5) 0.3345(3) -0.6911(3)
H19B H -2.0174 0.3312 -0.7262
C30B C -2.1099(5) 0.3305(3) -0.6739(2)
H20B H -2.1634 0.3246 -0.6978
N7B N -2.3265(3) 0.3089(2) -0.53526(19)
N7C N 0.3265(3) 0.8089(2) 0.03526(19)
N7A N -1.3265(3) 0.1911(2) -0.03526(19)
C31B C -2.2797(4) 0.3121(3) -0.4874(2)
C32B C -2.3235(5) 0.2994(3) -0.4453(2)
H21B H -2.2903 0.3025 -0.4124
C33B C -2.4153(5) 0.2821(3) -0.4515(3)
H22B H -2.4455 0.2725 -0.4229
C34B C -2.4636(5) 0.2788(3) -0.4998(3)
H23B H -2.5272 0.2673 -0.5047
C35B C -2.4174(4) 0.2926(3) -0.5406(2)
H24B H -2.4505 0.2907 -0.5736
N8B N -1.7897(4) 0.3555(2) -0.3692(2)
C36B C -1.8583(5) 0.3482(3) -0.4067(2)
H25B H -1.8417 0.3384 -0.4390
C37B C -1.9526(4) 0.3541(3) -0.4017(2)
C38B C -1.9768(5) 0.3663(3) -0.3539(2)
H26B H -2.0405 0.3691 -0.3483
C39B C -1.9058(5) 0.3744(3) -0.3147(2)
H27B H -1.9204 0.3834 -0.2818
C40B C -1.8143(5) 0.3695(3) -0.3235(2)
H28B H -1.7664 0.3761 -0.2964
N9B N -1.1915(4) 0.4954(2) -0.2662(2)
C41B C -1.1633(4) 0.4884(2) -0.3121(2)
C42B C -1.2250(5) 0.4695(3) -0.3525(2)
H29B H -1.2046 0.4643 -0.3848
C43B C -1.3181(4) 0.4582(3) -0.3451(2)
C44B C -1.3452(4) 0.4672(3) -0.2976(2)
H30B H -1.4081 0.4604 -0.2920
C45B C -1.2809(4) 0.4859(3) -0.2580(2)
N10B N -1.0164(4) 0.5167(2) -0.2669(2)
C46B C -1.0631(5) 0.5026(3) -0.3128(2)
C47B C -1.0194(5) 0.5021(3) -0.3561(3)
H31B H -1.0534 0.4930 -0.3878
C48B C -0.9249(5) 0.5151(3) -0.3526(3)
H32B H -0.8936 0.5157 -0.3820
C49B C -0.8773(5) 0.5271(4) -0.3060(3)
H33B H -0.8122 0.5350 -0.3029
C50B C -0.9241(5) 0.5278(3) -0.2640(3)
H34B H -0.8905 0.5364 -0.2321
N11B N -1.2195(4) 0.5131(2) -0.17394(19)
C51B C -1.2975(4) 0.4980(3) -0.2056(2)
C52B C -1.3842(5) 0.4950(3) -0.1879(3)
H35B H -1.4376 0.4836 -0.2100
C53B C -1.3927(6) 0.5084(4) -0.1391(3)
H36B H -1.4522 0.5073 -0.1272
C54B C -1.3143(6) 0.5237(4) -0.1071(3)
H37B H -1.3189 0.5324 -0.0727
C55B C -1.2291(5) 0.5262(3) -0.1258(3)
H38B H -1.1755 0.5375 -0.1039
N12B N -1.5285(4) 0.3868(2) -0.4127(2)
C56B C -1.4601(5) 0.4041(3) -0.3770(3)
H39B H -1.4625 0.3922 -0.3432
C57B C -1.3863(5) 0.4385(3) -0.3869(3)
C58B C -1.3823(5) 0.4543(3) -0.4375(3)
H40B H -1.3333 0.4776 -0.4464
C59B C -1.4521(5) 0.4350(3) -0.4741(3)
H41B H -1.4504 0.4441 -0.5087
C60B C -1.5237(5) 0.4025(3) -0.4600(3)
H42B H -1.5719 0.3908 -0.4853
N13B N -1.0004(4) 0.5387(2) -0.1538(2)
C61B C -0.9466(5) 0.4985(3) -0.1300(2)
C62B C -0.8703(5) 0.5130(3) -0.0960(3)
H43B H -0.8339 0.4846 -0.0780
C63B C -0.8468(5) 0.5691(3) -0.0883(3)
C64B C -0.9028(5) 0.6103(3) -0.1142(3)
H44B H -0.8876 0.6490 -0.1098
C65B C -0.9806(5) 0.5939(3) -0.1462(3)
N14B N -1.0487(4) 0.4392(2) -0.1849(2)
C66B C -0.9764(5) 0.4416(3) -0.1458(2)
C67B C -0.9350(5) 0.3930(3) -0.1255(3)
H45B H -0.8855 0.3953 -0.0985
C68B C -0.9646(6) 0.3416(3) -0.1438(3)
H46B H -0.9365 0.3082 -0.1296
C69B C -1.0365(5) 0.3389(3) -0.1834(3)
H47B H -1.0586 0.3037 -0.1969
C70B C -1.0749(5) 0.3882(3) -0.2026(3)
H48B H -1.1231 0.3861 -0.2302
N15B N -1.1132(4) 0.6041(2) -0.2093(2)
C71B C -1.0492(5) 0.6311(3) -0.1753(3)
C72B C -1.0517(6) 0.6881(3) -0.1686(3)
H49B H -1.0058 0.7061 -0.1455
C73B C -1.1223(7) 0.7193(4) -0.1960(4)
H50B H -1.1255 0.7588 -0.1915
C74B C -1.1872(7) 0.6922(4) -0.2298(4)
H51B H -1.2360 0.7127 -0.2488
C75B C -1.1804(5) 0.6346(3) -0.2356(3)
H52B H -1.2250 0.6160 -0.2590
N16B N -0.6085(6) 0.5609(3) -0.0143(4)
C76B C -0.6877(7) 0.5488(4) -0.0446(4)
H53B H -0.6928 0.5129 -0.0603
C77B C -0.7619(5) 0.5856(3) -0.0543(3)
C78B C -0.7520(6) 0.6386(4) -0.0325(3)
H54B H -0.8002 0.6659 -0.0387
C79B C -0.6699(6) 0.6506(4) -0.0015(4)
H55B H -0.6616 0.6867 0.0137
C80B C -0.6020(6) 0.6120(4) 0.0073(4)
H56B H -0.5476 0.6210 0.0296
P1 P 0.19644(15) 0.73519(10) 0.30589(7)
F1 F 0.0867(3) 0.7302(3) 0.28740(19)
F2 F 0.1723(4) 0.7576(2) 0.35952(16)
F3 F 0.1976(6) 0.7968(3) 0.2855(2)
F4 F 0.3054(3) 0.7378(3) 0.32491(18)
F5 F 0.2177(4) 0.7137(3) 0.25268(18)
F6 F 0.1936(4) 0.6730(2) 0.32661(18)
P2 P 0.0605(4) 0.3245(3) 0.01801(17)
F7 F 0.1474(10) 0.3531(8) -0.0071(5)
F8 F -0.0035(9) 0.3691(6) -0.0101(5)
F9 F 0.1248(9) 0.2788(7) 0.0454(5)
F10 F 0.0381(7) 0.2840(5) -0.0276(4)
F11 F 0.0849(8) 0.3657(6) 0.0639(4)
F12 F -0.0282(6) 0.2985(4) 0.0367(4)
P3 P 0.62712(15) 0.63143(10) 0.63207(9)
F13 F 0.5433(6) 0.5972(4) 0.6064(3)
F14 F 0.7018(7) 0.5886(3) 0.6198(4)
F15 F 0.6199(4) 0.5995(3) 0.6836(2)
F16 F 0.5554(4) 0.6783(3) 0.6467(2)
F17 F 0.7088(5) 0.6700(3) 0.6589(3)
F18 F 0.6348(4) 0.6648(2) 0.5809(2)
P4 P 0.6743(5) 0.5048(3) 0.1848(3)
F19 F 0.7153(12) 0.5428(8) 0.2320(7)
F20 F 0.6086(12) 0.5578(7) 0.1848(5)
F21 F 0.6127(11) 0.4830(7) 0.1441(7)
F22 F 0.7206(9) 0.4489(5) 0.2086(6)
F23 F 0.6021(13) 0.4724(8) 0.2140(7)
F24 F 0.7499(8) 0.5276(6) 0.1702(6)
N17 N 0.5473(6) 0.6277(4) 0.2505(3)
O1 O 0.5942(7) 0.6025(7) 0.2793(4)
O2 O 0.5800(8) 0.6640(4) 0.2213(4)
O3 O 0.4648(5) 0.6252(3) 0.2506(3)
O4 O 0.7069(6) 0.7011(5) 0.4785(3)
O5 O 0.689(2) 0.7992(8) 0.5248(9)
O6 O 0.7663(5) 0.6017(5) 0.5222(3)
O7 O 0.4744(8) 0.3217(5) 0.8860(4)
O8 O 0.3421(13) 0.4057(6) 0.9947(5)
O9 O 0.7288(12) 0.7824(6) 0.6193(5)
O10 O 0.7558(7) 0.6435(6) 0.1961(4)
O11 O 0.5851(9) 0.5709(5) 0.0852(5)
O12 O 0.0540(15) 0.5063(14) 0.0200(9)
P5? P 0.0000 0.5000 0.5000
F25? F 0.0022(15) 0.4501(7) 0.4571(7)
F26? F 0.0866(13) 0.5269(9) 0.4748(7)
F27? F -0.0768(8) 0.5308(4) 0.4689(4)
N18? N -0.0756(10) 0.5024(7) 0.5091(5)
O13? O -0.1462(7) 0.4942(4) 0.5307(3)
O14? O 0.0035(11) 0.4898(9) 0.5290(7)
O15? O -0.0768(8) 0.5308(4) 0.4689(4)
loop_
_geom_bond_atom_site_label_1
_geom_bond_atom_site_label_2
_geom_bond_site_symmetry_1
_geom_bond_site_symmetry_2
Ag1 N4 1_555 1_555
Ag2 N16 1_555 1_555
Ru1 N1 1_555 1_555
Ru2 N9 1_555 1_555
N1 C1 1_555 1_555
C1 C2 1_555 1_555
C2 H1 1_555 1_555
C3 C2 1_555 1_555
C4 C3 1_555 1_555
H2 C4 1_555 1_555
C5 N1 1_555 1_555
N2 Ru1 1_555 1_555
C6 C1 1_555 1_555
C7 C6 1_555 1_555
H3 C7 1_555 1_555
C8 C7 1_555 1_555
H4 C8 1_555 1_555
C9 C8 1_555 1_555
H5 C9 1_555 1_555
C10 N2 1_555 1_555
H6 C10 1_555 1_555
N3 Ru1 1_555 1_555
C11 C5 1_555 1_555
C12 C11 1_555 1_555
H7 C12 1_555 1_555
C13 C12 1_555 1_555
H8 C13 1_555 1_555
C14 C13 1_555 1_555
H9 C14 1_555 1_555
C15 N3 1_555 1_555
H10 C15 1_555 1_555
N4 C16 1_555 1_555
C16 H11 1_555 1_555
C17 C3 1_555 1_555
C18 C17 1_555 1_555
H12 C18 1_555 1_555
C19 C18 1_555 1_555
H13 C19 1_555 1_555
C20 N4 1_555 1_555
H14 C20 1_555 1_555
N5 C21 1_555 1_555
C21 C22 1_555 1_555
C22 H15 1_555 1_555
C23 C22 1_555 1_555
C24 C23 1_555 1_555
H16 C24 1_555 1_555
C25 N5 1_555 1_555
N6 C26 1_555 1_555
C26 C21 1_555 1_555
C27 C26 1_555 1_555
H17 C27 1_555 1_555
C28 C27 1_555 1_555
H18 C28 1_555 1_555
C29 C28 1_555 1_555
H19 C29 1_555 1_555
C30 N6 1_555 1_555
H20 C30 1_555 1_555
N7 C31 1_555 1_555
C31 C25 1_555 1_555
C32 C31 1_555 1_555
H21 C32 1_555 1_555
C33 C32 1_555 1_555
H22 C33 1_555 1_555
C34 C33 1_555 1_555
H23 C34 1_555 1_555
C35 N7 1_555 1_555
H24 C35 1_555 1_555
N8 Ag1 1_555 1_555
C36 N8 1_555 1_555
H25 C36 1_555 1_555
C37 C23 1_555 1_555
C38 C37 1_555 1_555
H26 C38 1_555 1_555
C39 C38 1_555 1_555
H27 C39 1_555 1_555
C40 N8 1_555 1_555
H28 C40 1_555 1_555
N9 C41 1_555 1_555
C41 C42 1_555 1_555
C42 H29 1_555 1_555
C43 C42 1_555 1_555
C44 C43 1_555 1_555
H30 C44 1_555 1_555
C45 N9 1_555 1_555
N10 Ru2 1_555 1_555
C46 C41 1_555 1_555
C47 C46 1_555 1_555
H31 C47 1_555 1_555
C48 C47 1_555 1_555
H32 C48 1_555 1_555
C49 C48 1_555 1_555
H33 C49 1_555 1_555
C50 N10 1_555 1_555
H34 C50 1_555 1_555
N11 Ru2 1_555 1_555
C51 C45 1_555 1_555
C52 C51 1_555 1_555
H35 C52 1_555 1_555
C53 C52 1_555 1_555
H36 C53 1_555 1_555
C54 C53 1_555 1_555
H37 C54 1_555 1_555
C55 N11 1_555 1_555
H38 C55 1_555 1_555
N12 Ag1 1_555 1_555
C56 N12 1_555 1_555
H39 C56 1_555 1_555
C57 C43 1_555 1_555
C58 C57 1_555 1_555
H40 C58 1_555 1_555
C59 C58 1_555 1_555
H41 C59 1_555 1_555
C60 N12 1_555 1_555
H42 C60 1_555 1_555
N13 Ru2 1_555 1_555
C61 N13 1_555 1_555
C62 C61 1_555 1_555
H43 C62 1_555 1_555
C63 C62 1_555 1_555
C64 C63 1_555 1_555
H44 C64 1_555 1_555
C65 N13 1_555 1_555
N14 Ru2 1_555 1_555
C66 C61 1_555 1_555
C67 C66 1_555 1_555
H45 C67 1_555 1_555
C68 C67 1_555 1_555
H46 C68 1_555 1_555
C69 C68 1_555 1_555
H47 C69 1_555 1_555
C70 N14 1_555 1_555
H48 C70 1_555 1_555
N15 Ru2 1_555 1_555
C71 C65 1_555 1_555
C72 C71 1_555 1_555
H49 C72 1_555 1_555
C73 C72 1_555 1_555
H50 C73 1_555 1_555
C74 C73 1_555 1_555
H51 C74 1_555 1_555
C75 N15 1_555 1_555
H52 C75 1_555 1_555
N16 C76 1_555 1_555
C76 H53 1_555 1_555
C77 C63 1_555 1_555
C78 C77 1_555 1_555
H54 C78 1_555 1_555
C79 C78 1_555 1_555
H55 C79 1_555 1_555
C80 N16 1_555 1_555
H56 C80 1_555 1_555
P1 F1 1_555 1_555
F2 P1 1_555 1_555
F3 P1 1_555 1_555
F4 P1 1_555 1_555
F5 P1 1_555 1_555
F6 P1 1_555 1_555
P2 F7 1_555 1_555
F8 P2 1_555 1_555
F9 P2 1_555 1_555
F10 P2 1_555 1_555
F11 P2 1_555 1_555
F12 P2 1_555 1_555
P3 F13 1_555 1_555
F14 P3 1_555 1_555
F15 P3 1_555 1_555
F16 P3 1_555 1_555
F17 P3 1_555 1_555
F18 P3 1_555 1_555
P4 F19 1_555 1_555
F20 P4 1_555 1_555
F21 P4 1_555 1_555
F22 P4 1_555 1_555
F23 P4 1_555 1_555
F24 P4 1_555 1_555
N17 O1 1_555 1_555
O2 N17 1_555 1_555
O3 N17 1_555 1_555
Ag1B N4B 1_555 1_555
Ru1B N1B 1_555 1_555
Ru1C N5 1_555 1_555
Ru1A N5B 1_555 1_555
Ru2B N9B 1_555 1_555
N1B C1B 1_555 1_555
C1B C2B 1_555 1_555
C2B H1B 1_555 1_555
C3B C2B 1_555 1_555
C4B C3B 1_555 1_555
H2B C4B 1_555 1_555
C5B N1B 1_555 1_555
N2B Ru1B 1_555 1_555
C6B C1B 1_555 1_555
C7B C6B 1_555 1_555
H3B C7B 1_555 1_555
C8B C7B 1_555 1_555
H4B C8B 1_555 1_555
C9B C8B 1_555 1_555
H5B C9B 1_555 1_555
C10B N2B 1_555 1_555
H6B C10B 1_555 1_555
N3B Ru1B 1_555 1_555
C11B C5B 1_555 1_555
C12B C11B 1_555 1_555
H7B C12B 1_555 1_555
C13B C12B 1_555 1_555
H8B C13B 1_555 1_555
C14B C13B 1_555 1_555
H9B C14B 1_555 1_555
C15B N3B 1_555 1_555
H10B C15B 1_555 1_555
N4B C16B 1_555 1_555
C16B H11B 1_555 1_555
C17B C3B 1_555 1_555
C18B C17B 1_555 1_555
H12B C18B 1_555 1_555
C19B C18B 1_555 1_555
H13B C19B 1_555 1_555
C20B N4B 1_555 1_555
H14B C20B 1_555 1_555
N5B C21B 1_555 1_555
N5C Ru1 1_555 1_555
N5A Ru1B 1_555 1_555
C21B C22B 1_555 1_555
C22B H15B 1_555 1_555
C23B C22B 1_555 1_555
C24B C23B 1_555 1_555
H16B C24B 1_555 1_555
C25B N5B 1_555 1_555
N6B Ru1A 1_555 1_555
N6C Ru1 1_555 1_555
N6A Ru1B 1_555 1_555
C26B C21B 1_555 1_555
C27B C26B 1_555 1_555
H17B C27B 1_555 1_555
C28B C27B 1_555 1_555
H18B C28B 1_555 1_555
C29B C28B 1_555 1_555
H19B C29B 1_555 1_555
C30B N6B 1_555 1_555
H20B C30B 1_555 1_555
N7B Ru1A 1_555 1_555
N7C Ru1 1_555 1_555
N7A Ru1B 1_555 1_555
C31B C25B 1_555 1_555
C32B C31B 1_555 1_555
H21B C32B 1_555 1_555
C33B C32B 1_555 1_555
H22B C33B 1_555 1_555
C34B C33B 1_555 1_555
H23B C34B 1_555 1_555
C35B N7B 1_555 1_555
H24B C35B 1_555 1_555
N8B Ag1B 1_555 1_555
C36B N8B 1_555 1_555
H25B C36B 1_555 1_555
C37B C23B 1_555 1_555
C38B C37B 1_555 1_555
H26B C38B 1_555 1_555
C39B C38B 1_555 1_555
H27B C39B 1_555 1_555
C40B N8B 1_555 1_555
H28B C40B 1_555 1_555
N9B C41B 1_555 1_555
C41B C42B 1_555 1_555
C42B H29B 1_555 1_555
C43B C42B 1_555 1_555
C44B C43B 1_555 1_555
H30B C44B 1_555 1_555
C45B N9B 1_555 1_555
N10B Ru2B 1_555 1_555
C46B C41B 1_555 1_555
C47B C46B 1_555 1_555
H31B C47B 1_555 1_555
C48B C47B 1_555 1_555
H32B C48B 1_555 1_555
C49B C48B 1_555 1_555
H33B C49B 1_555 1_555
C50B N10B 1_555 1_555
H34B C50B 1_555 1_555
N11B Ru2B 1_555 1_555
C51B C45B 1_555 1_555
C52B C51B 1_555 1_555
H35B C52B 1_555 1_555
C53B C52B 1_555 1_555
H36B C53B 1_555 1_555
C54B C53B 1_555 1_555
H37B C54B 1_555 1_555
C55B N11B 1_555 1_555
H38B C55B 1_555 1_555
N12B Ag1B 1_555 1_555
C56B N12B 1_555 1_555
H39B C56B 1_555 1_555
C57B C43B 1_555 1_555
C58B C57B 1_555 1_555
H40B C58B 1_555 1_555
C59B C58B 1_555 1_555
H41B C59B 1_555 1_555
C60B N12B 1_555 1_555
H42B C60B 1_555 1_555
N13B Ru2B 1_555 1_555
C61B N13B 1_555 1_555
C62B C61B 1_555 1_555
H43B C62B 1_555 1_555
C63B C62B 1_555 1_555
C64B C63B 1_555 1_555
H44B C64B 1_555 1_555
C65B N13B 1_555 1_555
N14B Ru2B 1_555 1_555
C66B C61B 1_555 1_555
C67B C66B 1_555 1_555
H45B C67B 1_555 1_555
C68B C67B 1_555 1_555
H46B C68B 1_555 1_555
C69B C68B 1_555 1_555
H47B C69B 1_555 1_555
C70B N14B 1_555 1_555
H48B C70B 1_555 1_555
N15B Ru2B 1_555 1_555
C71B C65B 1_555 1_555
C72B C71B 1_555 1_555
H49B C72B 1_555 1_555
C73B C72B 1_555 1_555
H50B C73B 1_555 1_555
C74B C73B 1_555 1_555
H51B C74B 1_555 1_555
C75B N15B 1_555 1_555
H52B C75B 1_555 1_555
N16B Ag2 1_555 1_555
C76B N16B 1_555 1_555
H53B C76B 1_555 1_555
C77B C63B 1_555 1_555
C78B C77B 1_555 1_555
H54B C78B 1_555 1_555
C79B C78B 1_555 1_555
H55B C79B 1_555 1_555
C80B N16B 1_555 1_555
H56B C80B 1_555 1_555
C4 C5 1_555 1_555
N2 C6 1_555 1_555
C9 C10 1_555 1_555
N3 C11 1_555 1_555
C14 C15 1_555 1_555
C16 C17 1_555 1_555
C19 C20 1_555 1_555
C24 C25 1_555 1_555
N6 Ru1C 1_555 1_555
C29 C30 1_555 1_555
N7 Ru1C 1_555 1_555
C34 C35 1_555 1_555
C36 C37 1_555 1_555
C39 C40 1_555 1_555
C44 C45 1_555 1_555
N10 C46 1_555 1_555
C49 C50 1_555 1_555
N11 C51 1_555 1_555
C54 C55 1_555 1_555
C56 C57 1_555 1_555
C59 C60 1_555 1_555
C64 C65 1_555 1_555
N14 C66 1_555 1_555
C69 C70 1_555 1_555
N15 C71 1_555 1_555
C74 C75 1_555 1_555
C76 C77 1_555 1_555
C79 C80 1_555 1_555
C4B C5B 1_555 1_555
N2B C6B 1_555 1_555
C9B C10B 1_555 1_555
N3B C11B 1_555 1_555
C14B C15B 1_555 1_555
C16B C17B 1_555 1_555
C19B C20B 1_555 1_555
C24B C25B 1_555 1_555
N6B C26B 1_555 1_555
C29B C30B 1_555 1_555
N7B C31B 1_555 1_555
C34B C35B 1_555 1_555
C36B C37B 1_555 1_555
C39B C40B 1_555 1_555
C44B C45B 1_555 1_555
N10B C46B 1_555 1_555
C49B C50B 1_555 1_555
N11B C51B 1_555 1_555
C54B C55B 1_555 1_555
C56B C57B 1_555 1_555
C59B C60B 1_555 1_555
C64B C65B 1_555 1_555
N14B C66B 1_555 1_555
C69B C70B 1_555 1_555
N15B C71B 1_555 1_555
C74B C75B 1_555 1_555
C76B C77B 1_555 1_555
C79B C80B 1_555 1_555

#END
