
#######################################################################
#
#                 Cambridge Crystallographic Data Centre
#                                CCDC 
#
#######################################################################
#
# If this CIF has been generated from an entry in the Cambridge 
# Structural Database, then it will include bibliographic, chemical, 
# crystal, experimental, refinement or atomic coordinate data resulting 
# from the CCDC's data processing and validation procedures.
#
#######################################################################

data_SIKKON
_symmetry_cell_setting           tetragonal
_symmetry_space_group_name_H-M   'P -4 21 c'
_symmetry_Int_Tables_number      114
_space_group_name_Hall           'P -4 2n'
loop_
_symmetry_equiv_pos_site_id
_symmetry_equiv_pos_as_xyz
1 x,y,z
2 -x,-y,z
3 y,-x,-z
4 -y,x,-z
5 1/2-x,1/2+y,1/2-z
6 1/2+x,1/2-y,1/2-z
7 1/2-y,1/2-x,1/2+z
8 1/2+y,1/2+x,1/2+z
_cell_length_a                   17.949(3)
_cell_length_b                   17.949(3)
_cell_length_c                   13.045(3)
_cell_angle_alpha                90
_cell_angle_beta                 90
_cell_angle_gamma                90
_cell_volume                     4202.66
loop_
_atom_site_label
_atom_site_type_symbol
_atom_site_fract_x
_atom_site_fract_y
_atom_site_fract_z
Cu1 Cu 0.5000 0.5000 0.23096(3)
Cu2 Cu 0.0000 0.5000 1.01385(3)
N1 N 0.41151(10) 0.46075(10) 0.31707(16)
N2 N 0.04322(11) 0.08635(10) 0.35231(18)
N3 N 0.20164(11) 0.30441(10) 0.44510(18)
N4 N 0.11634(10) 0.30083(10) 0.58340(17)
N5 N 0.20620(10) 0.39798(10) 0.57358(17)
N6 N 0.06386(11) 0.44604(11) 0.90252(17)
N7 N 0.05694(12) 0.57674(13) 1.08272(19)
C1 C 0.37078(13) 0.40351(13) 0.2810(2)
H1 H 0.3838 0.3827 0.2165
C2 C 0.31067(13) 0.37344(13) 0.3334(2)
H2 H 0.2829 0.3337 0.3042
C3 C 0.29147(12) 0.40153(12) 0.42811(19)
C4 C 0.33153(13) 0.46186(13) 0.4649(2)
H3 H 0.3191 0.4838 0.5289
C5 C 0.38990(13) 0.48979(13) 0.4070(2)
H4 H 0.4161 0.5319 0.4325
C6 C 0.11177(14) 0.11053(15) 0.3266(2)
H5 H 0.1377 0.0851 0.2736
C7 C 0.14600(14) 0.16986(14) 0.3729(2)
H6 H 0.1945 0.1846 0.3520
C8 C 0.10976(13) 0.20804(12) 0.4499(2)
C9 C 0.03943(13) 0.18297(12) 0.4793(2)
H7 H 0.0132 0.2066 0.5336
C10 C 0.00867(13) 0.12318(12) 0.42813(18)
H8 H -0.0397 0.1072 0.4477
C11 C 0.14472(12) 0.27481(12) 0.4968(2)
C12 C 0.15003(12) 0.36219(12) 0.61971(19)
C13 C 0.22977(12) 0.36666(12) 0.48687(19)
C14 C 0.02867(13) 0.39197(13) 0.8494(2)
H9 H -0.0165 0.3724 0.8761
C15 C 0.05495(13) 0.36388(13) 0.7586(2)
H10 H 0.0282 0.3259 0.7237
C16 C 0.12110(12) 0.39142(12) 0.7179(2)
C17 C 0.15809(13) 0.44649(12) 0.7729(2)
H11 H 0.2039 0.4661 0.7485
C18 C 0.12780(13) 0.47221(13) 0.8626(2)
H12 H 0.1533 0.5105 0.8985
C19 C 0.08265(14) 0.63071(16) 1.1097(2)
C20 C 0.11453(16) 0.70143(15) 1.1433(3)
H13 H 0.0869 0.7427 1.1121
H14 H 0.1669 0.7040 1.1223
H15 H 0.1113 0.7050 1.2182
Cu1D Cu 0.0000 0.0000 0.26904(3)
Cu1D_2 Cu 1.0000 1.0000 0.26904(3)
Cu2_2 Cu 1.0000 0.5000 1.01385(3)
N1A N 0.58849(10) 0.53925(10) 0.31707(16)
N2A N 0.95678(11) 0.91365(10) 0.35231(18)
N2D N 0.45678(11) 0.58635(10) 0.14769(18)
N2E N 0.54322(11) 0.41365(10) 0.14769(18)
N3A N 0.79836(11) 0.69559(10) 0.44510(18)
N4A N 0.88366(10) 0.69917(10) 0.58340(17)
N5A N 0.79380(10) 0.60202(10) 0.57358(17)
N6A N 0.93614(11) 0.55396(11) 0.90252(17)
N6A_2 N -0.06386(11) 0.55396(11) 0.90252(17)
N7A N -0.05694(12) 0.42326(13) 1.08272(19)
C1A C 0.62922(13) 0.59649(13) 0.2810(2)
H1A H 0.6162 0.6173 0.2165
C2A C 0.68933(13) 0.62656(13) 0.3334(2)
H2A H 0.7171 0.6663 0.3042
C3A C 0.70853(12) 0.59847(12) 0.42811(19)
C4A C 0.66847(13) 0.53814(13) 0.4649(2)
H3A H 0.6809 0.5162 0.5289
C5A C 0.61010(13) 0.51021(13) 0.4070(2)
H4A H 0.5839 0.4681 0.4325
C6A C 0.88823(14) 0.88947(15) 0.3266(2)
H5A H 0.8623 0.9149 0.2736
C7A C 0.85400(14) 0.83014(14) 0.3729(2)
H6A H 0.8055 0.8154 0.3520
C8A C 0.89024(13) 0.79196(12) 0.4499(2)
C9A C 0.96057(13) 0.81703(12) 0.4793(2)
H7A H 0.9868 0.7934 0.5336
C10A C 0.99133(13) 0.87682(12) 0.42813(18)
H8A H 1.0397 0.8928 0.4477
C11A C 0.85528(12) 0.72519(12) 0.4968(2)
C12A C 0.84997(12) 0.63781(12) 0.61971(19)
C13A C 0.77023(12) 0.63334(12) 0.48687(19)
C14A C 0.97133(13) 0.60803(13) 0.8494(2)
H9A H 1.0165 0.6276 0.8761
C15A C 0.94505(13) 0.63612(13) 0.7586(2)
H10A H 0.9718 0.6741 0.7237
C16A C 0.87890(12) 0.60858(12) 0.7179(2)
C17A C 0.84191(13) 0.55351(12) 0.7729(2)
H11A H 0.7961 0.5339 0.7485
C18A C 0.87220(13) 0.52779(13) 0.8626(2)
H12A H 0.8467 0.4895 0.8985
C19A C -0.08265(14) 0.36929(16) 1.1097(2)
C20A C -0.11453(16) 0.29857(15) 1.1433(3)
H13A H -0.0869 0.2573 1.1121
H14A H -0.1669 0.2960 1.1223
H15A H -0.1113 0.2950 1.2182
Cl1 Cl 0.26885(3) 0.15928(3) 0.13883(5)
O1 O 0.33936(11) 0.16354(14) 0.08693(19)
O2 O 0.21141(11) 0.13714(11) 0.06868(18)
O3 O 0.25069(11) 0.23077(11) 0.18159(17)
O4 O 0.27424(12) 0.10510(10) 0.22023(18)
loop_
_geom_bond_atom_site_label_1
_geom_bond_atom_site_label_2
_geom_bond_site_symmetry_1
_geom_bond_site_symmetry_2
Cu1 N1 1_555 1_555
Cu2 N6 1_555 1_555
Cl1 O1 1_555 1_555
O2 Cl1 1_555 1_555
O3 Cl1 1_555 1_555
O4 Cl1 1_555 1_555
N1 C1 1_555 1_555
N2 C6 1_555 1_555
N3 C11 1_555 1_555
N4 C11 1_555 1_555
N5 C12 1_555 1_555
N6 C14 1_555 1_555
N7 Cu2 1_555 1_555
C1 H1 1_555 1_555
C2 C1 1_555 1_555
H2 C2 1_555 1_555
C3 C2 1_555 1_555
C4 C3 1_555 1_555
H3 C4 1_555 1_555
C5 N1 1_555 1_555
H4 C5 1_555 1_555
C6 H5 1_555 1_555
C7 C6 1_555 1_555
H6 C7 1_555 1_555
C8 C7 1_555 1_555
C9 C8 1_555 1_555
H7 C9 1_555 1_555
C10 N2 1_555 1_555
H8 C10 1_555 1_555
C11 C8 1_555 1_555
C12 N4 1_555 1_555
C13 N3 1_555 1_555
C14 H9 1_555 1_555
C15 C14 1_555 1_555
H10 C15 1_555 1_555
C16 C12 1_555 1_555
C17 C16 1_555 1_555
H11 C17 1_555 1_555
C18 N6 1_555 1_555
H12 C18 1_555 1_555
C19 N7 1_555 1_555
C20 C19 1_555 1_555
H13 C20 1_555 1_555
H14 C20 1_555 1_555
H15 C20 1_555 1_555
Cu1D N2 1_555 1_555
Cu1D_2 N2A 1_555 1_555
Cu2_2 N6A 1_555 1_555
N1A Cu1 1_555 1_555
N2A C6A 1_555 1_555
N2D Cu1 1_555 1_555
N2E Cu1 1_555 1_555
N3A C11A 1_555 1_555
N4A C11A 1_555 1_555
N5A C12A 1_555 1_555
N6A C14A 1_555 1_555
N6A_2 Cu2 1_555 1_555
N7A Cu2 1_555 1_555
C1A N1A 1_555 1_555
H1A C1A 1_555 1_555
C2A C1A 1_555 1_555
H2A C2A 1_555 1_555
C3A C2A 1_555 1_555
C4A C3A 1_555 1_555
H3A C4A 1_555 1_555
C5A N1A 1_555 1_555
H4A C5A 1_555 1_555
C6A H5A 1_555 1_555
C7A C6A 1_555 1_555
H6A C7A 1_555 1_555
C8A C7A 1_555 1_555
C9A C8A 1_555 1_555
H7A C9A 1_555 1_555
C10A N2A 1_555 1_555
H8A C10A 1_555 1_555
C11A C8A 1_555 1_555
C12A N4A 1_555 1_555
C13A N3A 1_555 1_555
C14A H9A 1_555 1_555
C15A C14A 1_555 1_555
H10A C15A 1_555 1_555
C16A C12A 1_555 1_555
C17A C16A 1_555 1_555
H11A C17A 1_555 1_555
C18A N6A 1_555 1_555
H12A C18A 1_555 1_555
C19A N7A 1_555 1_555
C20A C19A 1_555 1_555
H13A C20A 1_555 1_555
H14A C20A 1_555 1_555
H15A C20A 1_555 1_555
N5 C13 1_555 1_555
C3 C13 1_555 1_555
C4 C5 1_555 1_555
C9 C10 1_555 1_555
C15 C16 1_555 1_555
C17 C18 1_555 1_555
N5A C13A 1_555 1_555
C3A C13A 1_555 1_555
C4A C5A 1_555 1_555
C9A C10A 1_555 1_555
C15A C16A 1_555 1_555
C17A C18A 1_555 1_555

#END
