
#######################################################################
#
#                 Cambridge Crystallographic Data Centre
#                                CCDC 
#
#######################################################################
#
# If this CIF has been generated from an entry in the Cambridge 
# Structural Database, then it will include bibliographic, chemical, 
# crystal, experimental, refinement or atomic coordinate data resulting 
# from the CCDC's data processing and validation procedures.
#
#######################################################################

data_SIKROU
_symmetry_cell_setting           orthorhombic
_symmetry_space_group_name_H-M   'P 21 21 21'
_symmetry_Int_Tables_number      19
_space_group_name_Hall           'P 2ac 2ab'
loop_
_symmetry_equiv_pos_site_id
_symmetry_equiv_pos_as_xyz
1 x,y,z
2 1/2-x,-y,1/2+z
3 -x,1/2+y,1/2-z
4 1/2+x,1/2-y,-z
_cell_length_a                   5.962(3)
_cell_length_b                   11.224(6)
_cell_length_c                   13.664(7)
_cell_angle_alpha                90
_cell_angle_beta                 90
_cell_angle_gamma                90
_cell_volume                     914.361
loop_
_atom_site_label
_atom_site_type_symbol
_atom_site_fract_x
_atom_site_fract_y
_atom_site_fract_z
Mg1 Mg 0.52718(19) -0.16289(10) 0.96469(8)
S1 S 0.94975(16) 0.24995(7) 0.85467(6)
O1 O 0.8851(4) -0.1842(2) 0.97052(19)
O2 O 1.2141(5) -0.1034(3) 0.9356(2)
O3 O 1.0546(7) 0.2279(3) 0.7611(2)
O4 O 0.7075(5) 0.2634(3) 0.8445(2)
O5 O 1.0562(7) 0.3456(3) 0.9075(3)
O6 O 0.5407(5) -0.2478(2) 0.83052(19)
H1 H 0.4346 -0.2615 0.7905
H2 H 0.6660 -0.2617 0.8031
O7 O 0.5295(6) -0.0896(2) 1.1017(2)
H3 H 0.5036 -0.1234 1.1562
H4 H 0.5464 -0.0151 1.1105
N1 N 0.6499(5) 0.0032(3) 0.9025(3)
H7 H 0.5939 -0.0027 0.8408
H8 H 0.6044 0.0756 0.9251
C1 C 1.0067(6) -0.1004(3) 0.9370(3)
C2 C 0.8934(6) 0.0082(3) 0.8902(3)
H9 H 0.9242 0.0050 0.8198
C3 C 0.9972(7) 0.1216(3) 0.9291(3)
H10 H 1.1577 0.1097 0.9355
H11 H 0.9377 0.1369 0.9939
Mg1C Mg 1.02718(19) -0.33711(10) 1.03531(8)
Mg1_2 Mg 1.52718(19) -0.16289(10) 0.96469(8)
O1C O 0.3851(4) -0.3158(2) 1.02948(19)
O2_2 O 0.2141(5) -0.1034(3) 0.9356(2)
O8 O 0.4927(9) 0.4932(3) 0.8142(3)
H5 H 0.5238 0.5621 0.8360
H6 H 0.5640 0.4275 0.8143
loop_
_geom_bond_atom_site_label_1
_geom_bond_atom_site_label_2
_geom_bond_site_symmetry_1
_geom_bond_site_symmetry_2
Mg1 O1 1_555 1_555
S1 O3 1_555 1_555
O1 C1 1_555 1_555
O2 C1 1_555 1_555
O4 S1 1_555 1_555
O5 S1 1_555 1_555
O6 Mg1 1_555 1_555
H1 O6 1_555 1_555
H2 O6 1_555 1_555
O7 Mg1 1_555 1_555
H3 O7 1_555 1_555
H4 O7 1_555 1_555
O8 H5 1_555 1_555
H6 O8 1_555 1_555
N1 Mg1 1_555 1_555
H7 N1 1_555 1_555
H8 N1 1_555 1_555
C1 C2 1_555 1_555
C2 N1 1_555 1_555
H9 C2 1_555 1_555
C3 S1 1_555 1_555
H10 C3 1_555 1_555
H11 C3 1_555 1_555
Mg1C O1 1_555 1_555
Mg1_2 O2 1_555 1_555
O1C Mg1 1_555 1_555
O2_2 Mg1 1_555 1_555
C2 C3 1_555 1_555

#END
