
#######################################################################
#
#                 Cambridge Crystallographic Data Centre
#                                CCDC 
#
#######################################################################
#
# If this CIF has been generated from an entry in the Cambridge 
# Structural Database, then it will include bibliographic, chemical, 
# crystal, experimental, refinement or atomic coordinate data resulting 
# from the CCDC's data processing and validation procedures.
#
#######################################################################

data_SIKSAH
_symmetry_cell_setting           monoclinic
_symmetry_space_group_name_H-M   'C 2/c'
_symmetry_Int_Tables_number      15
_space_group_name_Hall           '-C 2yn'
loop_
_symmetry_equiv_pos_site_id
_symmetry_equiv_pos_as_xyz
1 x,y,z
2 1/2+x,1/2+y,z
3 -x,y,1/2-z
4 1/2-x,1/2+y,1/2-z
5 -x,-y,-z
6 1/2-x,1/2-y,-z
7 x,-y,1/2+z
8 1/2+x,1/2-y,1/2+z
_cell_length_a                   15.6912(9)
_cell_length_b                   25.9394(15)
_cell_length_c                   6.7332(4)
_cell_angle_alpha                90
_cell_angle_beta                 114.7700(10)
_cell_angle_gamma                90
_cell_volume                     2488.41
loop_
_atom_site_label
_atom_site_type_symbol
_atom_site_fract_x
_atom_site_fract_y
_atom_site_fract_z
Cd1 Cd 0.09206(3) 0.038606(15) 0.00707(7)
O1 O 0.1196(4) 0.08571(17) 0.3519(8)
O2 O 0.1055(3) 0.12900(18) 0.0580(8)
O3 O 0.1239(9) 0.3574(3) 0.3523(19)
O4 O 0.1032(9) 0.3152(3) 0.0643(19)
O5 O 0.0697(3) 0.03416(14) -0.3450(7)
H1 H 0.0988 0.0585 -0.3808
N1 N 0.2557(4) 0.03151(19) 0.1165(8)
N2 N 0.1154(8) 0.3175(3) 0.255(2)
C1 C 0.1232(6) 0.2689(3) 0.3724(16)
C2 C 0.1157(6) 0.2232(3) 0.2628(13)
H2 H 0.1060 0.2233 0.1168
C3 C 0.1227(5) 0.1774(2) 0.3720(11)
C4 C 0.1366(7) 0.1788(3) 0.5886(13)
H3 H 0.1407 0.1481 0.6636
C5 C 0.1445(9) 0.2253(4) 0.6953(16)
H4 H 0.1543 0.2257 0.8414
C6 C 0.1379(8) 0.2709(3) 0.5863(18)
H5 H 0.1433 0.3024 0.6568
C7 C 0.1155(4) 0.1274(2) 0.2533(11)
C8 C 0.3048(4) 0.0749(3) 0.1449(12)
H6 H 0.2736 0.1062 0.1270
C9 C 0.4002(4) 0.0756(2) 0.1996(12)
H7 H 0.4315 0.1069 0.2203
C10 C 0.4492(4) 0.0299(2) 0.2238(9)
C11 C 0.3977(4) -0.0152(2) 0.1957(10)
H8 H 0.4274 -0.0470 0.2133
C12 C 0.3022(4) -0.0131(2) 0.1415(9)
H9 H 0.2691 -0.0439 0.1217
Cd1F Cd 0.09206(3) -0.038606(15) 0.50707(7)
Cd1F_2 Cd 0.09206(3) -0.038606(15) -0.49293(7)
Cd1B Cd -0.09206(3) 0.038606(15) -0.50707(7)
Cd1B_2 Cd 0.90794(3) 0.038606(15) 0.49293(7)
Cd1D Cd -0.09206(3) -0.038606(15) -0.00707(7)
O1F O 0.1196(4) -0.08571(17) 0.8519(8)
O2F O 0.1055(3) -0.12900(18) 0.5580(8)
O3F O 0.1239(9) -0.3574(3) 0.8523(19)
O4F O 0.1032(9) -0.3152(3) 0.5643(19)
O5F O 0.0697(3) -0.03416(14) 0.1550(7)
O5B O -0.0697(3) 0.03416(14) -0.1550(7)
O5_2 O 0.0697(3) 0.03416(14) 0.6550(7)
O5D O -0.0697(3) -0.03416(14) 0.3450(7)
H1F H 0.0988 -0.0585 0.1192
H1B H -0.0988 0.0585 -0.1192
H1_2 H 0.0988 0.0585 0.6192
H1D H -0.0988 -0.0585 0.3808
N1B N 0.7443(4) 0.03151(19) 0.3835(8)
N1F N 0.2557(4) -0.03151(19) 0.6165(8)
N2F N 0.1154(8) -0.3175(3) 0.755(2)
C1F C 0.1232(6) -0.2689(3) 0.8724(16)
C2F C 0.1157(6) -0.2232(3) 0.7628(13)
H2F H 0.1060 -0.2233 0.6168
C3F C 0.1227(5) -0.1774(2) 0.8720(11)
C4F C 0.1366(7) -0.1788(3) 1.0886(13)
H3F H 0.1407 -0.1481 1.1636
C5F C 0.1445(9) -0.2253(4) 1.1953(16)
H4F H 0.1543 -0.2257 1.3414
C6F C 0.1379(8) -0.2709(3) 1.0863(18)
H5F H 0.1433 -0.3024 1.1568
C7F C 0.1155(4) -0.1274(2) 0.7533(11)
C8B C 0.6952(4) 0.0749(3) 0.3551(12)
H6B H 0.7264 0.1062 0.3730
C9B C 0.5998(4) 0.0756(2) 0.3004(12)
H7B H 0.5685 0.1069 0.2797
C10B C 0.5508(4) 0.0299(2) 0.2762(9)
C11B C 0.6023(4) -0.0152(2) 0.3043(10)
H8B H 0.5726 -0.0470 0.2867
C12B C 0.6978(4) -0.0131(2) 0.3585(9)
H9B H 0.7309 -0.0439 0.3783
loop_
_geom_bond_atom_site_label_1
_geom_bond_atom_site_label_2
_geom_bond_site_symmetry_1
_geom_bond_site_symmetry_2
Cd1 O1 1_555 1_555
O1 C7 1_555 1_555
O2 Cd1 1_555 1_555
O3 N2 1_555 1_555
O4 N2 1_555 1_555
O5 Cd1 1_555 1_555
H1 O5 1_555 1_555
N1 Cd1 1_555 1_555
N2 C1 1_555 1_555
C1 C2 1_555 1_555
C2 H2 1_555 1_555
C3 C2 1_555 1_555
C4 C3 1_555 1_555
H3 C4 1_555 1_555
C5 C4 1_555 1_555
H4 C5 1_555 1_555
C6 C1 1_555 1_555
H5 C6 1_555 1_555
C7 O2 1_555 1_555
C8 N1 1_555 1_555
H6 C8 1_555 1_555
C9 C8 1_555 1_555
H7 C9 1_555 1_555
C10 C9 1_555 1_555
C11 C10 1_555 1_555
H8 C11 1_555 1_555
C12 N1 1_555 1_555
H9 C12 1_555 1_555
Cd1F O1F 1_555 1_555
Cd1F_2 O5 1_555 1_555
Cd1B O5 1_555 1_555
Cd1B_2 N1B 1_555 1_555
Cd1D O5F 1_555 1_555
O1F C7F 1_555 1_555
O2F Cd1F 1_555 1_555
O3F N2F 1_555 1_555
O4F N2F 1_555 1_555
O5F Cd1 1_555 1_555
O5B Cd1 1_555 1_555
O5_2 Cd1F 1_555 1_555
O5D Cd1F 1_555 1_555
H1F O5F 1_555 1_555
H1B O5B 1_555 1_555
H1_2 O5_2 1_555 1_555
H1D O5D 1_555 1_555
N1B C8B 1_555 1_555
N1F Cd1F 1_555 1_555
N2F C1F 1_555 1_555
C1F C2F 1_555 1_555
C2F H2F 1_555 1_555
C3F C2F 1_555 1_555
C4F C3F 1_555 1_555
H3F C4F 1_555 1_555
C5F C4F 1_555 1_555
H4F C5F 1_555 1_555
C6F C1F 1_555 1_555
H5F C6F 1_555 1_555
C7F O2F 1_555 1_555
C8B H6B 1_555 1_555
C9B C8B 1_555 1_555
H7B C9B 1_555 1_555
C10B C10 1_555 1_555
C11B C10B 1_555 1_555
H8B C11B 1_555 1_555
C12B N1B 1_555 1_555
H9B C12B 1_555 1_555
C3 C7 1_555 1_555
C5 C6 1_555 1_555
C11 C12 1_555 1_555
Cd1F O5F 1_555 1_555
Cd1B O5B 1_555 1_555
Cd1D O5B 1_555 1_555
Cd1D O5D 1_555 1_555
C3F C7F 1_555 1_555
C5F C6F 1_555 1_555
C9B C10B 1_555 1_555
C11B C12B 1_555 1_555

#END
