
#######################################################################
#
#                 Cambridge Crystallographic Data Centre
#                                CCDC 
#
#######################################################################
#
# If this CIF has been generated from an entry in the Cambridge 
# Structural Database, then it will include bibliographic, chemical, 
# crystal, experimental, refinement or atomic coordinate data resulting 
# from the CCDC's data processing and validation procedures.
#
#######################################################################

data_SIKSEL
_symmetry_cell_setting           monoclinic
_symmetry_space_group_name_H-M   'C 2/c'
_symmetry_Int_Tables_number      15
_space_group_name_Hall           '-C 2yn'
loop_
_symmetry_equiv_pos_site_id
_symmetry_equiv_pos_as_xyz
1 x,y,z
2 1/2+x,1/2+y,z
3 -x,y,1/2-z
4 1/2-x,1/2+y,1/2-z
5 -x,-y,-z
6 1/2-x,1/2-y,-z
7 x,-y,1/2+z
8 1/2+x,1/2-y,1/2+z
_cell_length_a                   21.3546(17)
_cell_length_b                   11.8841(7)
_cell_length_c                   22.1588(16)
_cell_angle_alpha                90
_cell_angle_beta                 108.058(3)
_cell_angle_gamma                90
_cell_volume                     5346.47
loop_
_atom_site_label
_atom_site_type_symbol
_atom_site_fract_x
_atom_site_fract_y
_atom_site_fract_z
Mn1 Mn 0.0000 0.87783(5) 0.2500
S1 S -0.09707(4) 0.88578(7) 0.35825(3)
O1 O -0.12502(13) 0.7740(2) 0.35292(13)
O2 O -0.04848(10) 0.89391(19) 0.32455(10)
O3 O -0.14430(13) 0.9732(3) 0.34426(14)
N1 N 0.07078(10) 0.74335(19) 0.30229(11)
N2 N 0.16921(11) 0.6645(2) 0.34556(12)
N3 N 0.35812(13) 0.6532(2) 0.17190(12)
N4 N 0.42423(11) 0.5039(2) 0.19335(10)
C1 C 0.06608(13) 0.6618(2) 0.34608(13)
C2 C 0.01322(17) 0.6286(3) 0.36561(18)
H1 H -0.0297(18) 0.659(3) 0.3482(17)
C3 C 0.0242(2) 0.5449(3) 0.4114(2)
H2 H -0.010(2) 0.515(4) 0.426(2)
C4 C 0.0853(2) 0.4945(3) 0.4357(2)
H3 H 0.089(2) 0.433(4) 0.4637(19)
C5 C 0.13839(19) 0.5267(3) 0.41789(17)
H4 H 0.1758(17) 0.495(3) 0.4333(17)
C6 C 0.12774(14) 0.6121(2) 0.37288(15)
C7 C 0.13308(14) 0.7413(3) 0.30436(14)
H5 H 0.1534(14) 0.796(2) 0.2811(13)
C8 C 0.23984(17) 0.6381(4) 0.3603(2)
H6 H 0.245(2) 0.557(4) 0.349(2)
H7 H 0.257(2) 0.635(3) 0.406(2)
C9 C 0.27690(14) 0.7188(3) 0.33201(16)
C10 C 0.31039(18) 0.8096(3) 0.36722(17)
C11 C 0.3032(3) 0.8405(5) 0.4314(2)
H8 H 0.3300 0.9049 0.4482
H9 H 0.3170 0.7783 0.4601
H10 H 0.2579 0.8579 0.4264
C12 C 0.35127(19) 0.8715(3) 0.3433(2)
H11 H 0.376(2) 0.934(3) 0.3688(19)
C13 C 0.35859(15) 0.8518(3) 0.28432(18)
C14 C 0.4077(2) 0.9208(4) 0.2632(2)
H12 H 0.4071 0.8972 0.2216
H13 H 0.4511 0.9100 0.2925
H14 H 0.3961 0.9990 0.2622
C15 C 0.32046(15) 0.7688(2) 0.24709(15)
C16 C 0.3207(2) 0.7536(3) 0.17984(18)
H15 H 0.3456(17) 0.821(3) 0.1664(17)
H16 H 0.275(2) 0.739(3) 0.1555(18)
C17 C 0.35061(14) 0.6019(3) 0.11418(14)
C18 C 0.31326(17) 0.6302(3) 0.05269(16)
H17 H 0.286(2) 0.696(4) 0.0461(19)
C19 C 0.31752(17) 0.5608(4) 0.00503(16)
H18 H 0.2936(16) 0.584(3) -0.0408(17)
C20 C 0.35647(16) 0.4639(3) 0.01820(16)
H19 H 0.3607(16) 0.418(3) -0.0162(17)
C21 C 0.39380(14) 0.4356(3) 0.07913(14)
H20 H 0.4211(17) 0.368(3) 0.0874(16)
C22 C 0.39157(13) 0.5069(2) 0.12791(13)
C23 C 0.40199(15) 0.5910(3) 0.21613(15)
H21 H 0.4152(19) 0.617(3) 0.258(2)
C24 C 0.28034(14) 0.6994(2) 0.27095(16)
C25 C 0.24147(17) 0.6052(3) 0.2310(2)
H22 H 0.2496 0.6038 0.1907
H23 H 0.1953 0.6169 0.2244
H24 H 0.2547 0.5348 0.2524
C26 C 0.0028(2) 1.1949(3) 0.45730(18)
H25 H -0.002(2) 1.272(4) 0.436(2)
C27 C -0.0257(2) 1.0994(3) 0.43036(17)
H26 H -0.0501 1.0988 0.3876
C28 C -0.01875(14) 0.9964(3) 0.46749(14)
C29 C -0.04921(16) 0.8954(3) 0.44113(15)
C30 C -0.0415(2) 0.8021(3) 0.47789(17)
H27 H -0.058(2) 0.718(4) 0.459(2)
Mn1A Mn 0.5000 0.37783(5) 0.2500
Mn1F Mn 0.0000 1.12217(5) 0.7500
Mn1A_2 Mn -0.5000 0.37783(5) 0.2500
S1D S 0.09707(4) 1.11422(7) 0.64175(3)
O1D O 0.12502(13) 1.2260(2) 0.64708(13)
O2D O 0.04848(10) 1.10609(19) 0.67545(10)
O2B O 0.04848(10) 0.89391(19) 0.17545(10)
O3D O 0.14430(13) 1.0268(3) 0.65574(14)
N1B N -0.07078(10) 0.74335(19) 0.19771(11)
N2B N -0.16921(11) 0.6645(2) 0.15444(12)
N3B N -0.35812(13) 0.6532(2) 0.32810(12)
N4B N -0.42423(11) 0.5039(2) 0.30665(10)
N4A N -0.07577(11) 1.0039(2) 0.19335(10)
N4C N 0.07577(11) 1.0039(2) 0.30665(10)
C1B C -0.06608(13) 0.6618(2) 0.15392(13)
C2B C -0.01322(17) 0.6286(3) 0.13439(18)
H1B H 0.0297(18) 0.659(3) 0.1518(17)
C3B C -0.0242(2) 0.5449(3) 0.0886(2)
H2B H 0.010(2) 0.515(4) 0.074(2)
C4B C -0.0853(2) 0.4945(3) 0.0643(2)
H3B H -0.089(2) 0.433(4) 0.0363(19)
C5B C -0.13839(19) 0.5267(3) 0.08211(17)
H4B H -0.1758(17) 0.495(3) 0.0667(17)
C6B C -0.12774(14) 0.6121(2) 0.12712(15)
C7B C -0.13308(14) 0.7413(3) 0.19564(14)
H5B H -0.1534(14) 0.796(2) 0.2189(13)
C8B C -0.23984(17) 0.6381(4) 0.1397(2)
H6B H -0.245(2) 0.557(4) 0.151(2)
H7B H -0.257(2) 0.635(3) 0.094(2)
C9B C -0.27690(14) 0.7188(3) 0.16799(16)
C10B C -0.31039(18) 0.8096(3) 0.13278(17)
C11B C -0.3032(3) 0.8405(5) 0.0686(2)
H8B H -0.3300 0.9049 0.0518
H9B H -0.3170 0.7783 0.0399
H10B H -0.2579 0.8579 0.0736
C12B C -0.35127(19) 0.8715(3) 0.1567(2)
H11B H -0.376(2) 0.934(3) 0.1312(19)
C13B C -0.35859(15) 0.8518(3) 0.21568(18)
C14B C -0.4077(2) 0.9208(4) 0.2368(2)
H12B H -0.4071 0.8972 0.2784
H13B H -0.4511 0.9100 0.2075
H14B H -0.3961 0.9990 0.2378
C15B C -0.32046(15) 0.7688(2) 0.25291(15)
C16B C -0.3207(2) 0.7536(3) 0.32016(18)
H15B H -0.3456(17) 0.821(3) 0.3336(17)
H16B H -0.275(2) 0.739(3) 0.3445(18)
C17B C -0.35061(14) 0.6019(3) 0.38582(14)
C18B C -0.31326(17) 0.6302(3) 0.44731(16)
H17B H -0.286(2) 0.696(4) 0.4539(19)
C19B C -0.31752(17) 0.5608(4) 0.49497(16)
H18B H -0.2936(16) 0.584(3) 0.5408(17)
C20B C -0.35647(16) 0.4639(3) 0.48180(16)
H19B H -0.3607(16) 0.418(3) 0.5162(17)
C21B C -0.39380(14) 0.4356(3) 0.42087(14)
H20B H -0.4211(17) 0.368(3) 0.4126(16)
C22B C -0.39157(13) 0.5069(2) 0.37209(13)
C23B C -0.40199(15) 0.5910(3) 0.28387(15)
H21B H -0.4152(19) 0.617(3) 0.242(2)
C24B C -0.28034(14) 0.6994(2) 0.22905(16)
C25B C -0.24147(17) 0.6052(3) 0.2690(2)
H22B H -0.2496 0.6038 0.3093
H23B H -0.1953 0.6169 0.2756
H24B H -0.2547 0.5348 0.2476
C26D C -0.0028(2) 0.8051(3) 0.54270(18)
H25D H 0.002(2) 0.728(4) 0.564(2)
C27D C 0.0257(2) 0.9006(3) 0.56964(17)
H26D H 0.0501 0.9012 0.6124
C28D C 0.01875(14) 1.0036(3) 0.53251(14)
C29D C 0.04921(16) 1.1046(3) 0.55887(15)
C30D C 0.0415(2) 1.1979(3) 0.52211(17)
H27D H 0.058(2) 1.282(4) 0.541(2)
loop_
_geom_bond_atom_site_label_1
_geom_bond_atom_site_label_2
_geom_bond_site_symmetry_1
_geom_bond_site_symmetry_2
Mn1 O2 1_555 1_555
S1 O1 1_555 1_555
O2 S1 1_555 1_555
O3 S1 1_555 1_555
N1 Mn1 1_555 1_555
N2 C6 1_555 1_555
N3 C16 1_555 1_555
N4 C22 1_555 1_555
C1 N1 1_555 1_555
C2 C1 1_555 1_555
H1 C2 1_555 1_555
C3 C2 1_555 1_555
H2 C3 1_555 1_555
C4 C3 1_555 1_555
H3 C4 1_555 1_555
C5 C4 1_555 1_555
H4 C5 1_555 1_555
C6 C1 1_555 1_555
C7 N1 1_555 1_555
H5 C7 1_555 1_555
C8 N2 1_555 1_555
H6 C8 1_555 1_555
H7 C8 1_555 1_555
C9 C8 1_555 1_555
C10 C9 1_555 1_555
C11 C10 1_555 1_555
H8 C11 1_555 1_555
H9 C11 1_555 1_555
H10 C11 1_555 1_555
C12 C10 1_555 1_555
H11 C12 1_555 1_555
C13 C12 1_555 1_555
C14 C13 1_555 1_555
H12 C14 1_555 1_555
H13 C14 1_555 1_555
H14 C14 1_555 1_555
C15 C13 1_555 1_555
C16 C15 1_555 1_555
H15 C16 1_555 1_555
H16 C16 1_555 1_555
C17 N3 1_555 1_555
C18 C17 1_555 1_555
H17 C18 1_555 1_555
C19 C18 1_555 1_555
H18 C19 1_555 1_555
C20 C19 1_555 1_555
H19 C20 1_555 1_555
C21 C20 1_555 1_555
H20 C21 1_555 1_555
C22 C17 1_555 1_555
C23 N3 1_555 1_555
H21 C23 1_555 1_555
C24 C9 1_555 1_555
C25 C24 1_555 1_555
H22 C25 1_555 1_555
H23 C25 1_555 1_555
H24 C25 1_555 1_555
C26 H25 1_555 1_555
C27 C26 1_555 1_555
H26 C27 1_555 1_555
C28 C27 1_555 1_555
C29 S1 1_555 1_555
C30 C29 1_555 1_555
H27 C30 1_555 1_555
Mn1A N4 1_555 1_555
Mn1F O2D 1_555 1_555
Mn1A_2 N4B 1_555 1_555
S1D O1D 1_555 1_555
O2D S1D 1_555 1_555
O2B Mn1 1_555 1_555
O3D S1D 1_555 1_555
N1B Mn1 1_555 1_555
N2B C6B 1_555 1_555
N3B C16B 1_555 1_555
N4B C22B 1_555 1_555
N4A Mn1 1_555 1_555
N4C Mn1 1_555 1_555
C1B N1B 1_555 1_555
C2B C1B 1_555 1_555
H1B C2B 1_555 1_555
C3B C2B 1_555 1_555
H2B C3B 1_555 1_555
C4B C3B 1_555 1_555
H3B C4B 1_555 1_555
C5B C4B 1_555 1_555
H4B C5B 1_555 1_555
C6B C1B 1_555 1_555
C7B N1B 1_555 1_555
H5B C7B 1_555 1_555
C8B N2B 1_555 1_555
H6B C8B 1_555 1_555
H7B C8B 1_555 1_555
C9B C8B 1_555 1_555
C10B C9B 1_555 1_555
C11B C10B 1_555 1_555
H8B C11B 1_555 1_555
H9B C11B 1_555 1_555
H10B C11B 1_555 1_555
C12B C10B 1_555 1_555
H11B C12B 1_555 1_555
C13B C12B 1_555 1_555
C14B C13B 1_555 1_555
H12B C14B 1_555 1_555
H13B C14B 1_555 1_555
H14B C14B 1_555 1_555
C15B C13B 1_555 1_555
C16B C15B 1_555 1_555
H15B C16B 1_555 1_555
H16B C16B 1_555 1_555
C17B N3B 1_555 1_555
C18B C17B 1_555 1_555
H17B C18B 1_555 1_555
C19B C18B 1_555 1_555
H18B C19B 1_555 1_555
C20B C19B 1_555 1_555
H19B C20B 1_555 1_555
C21B C20B 1_555 1_555
H20B C21B 1_555 1_555
C22B C17B 1_555 1_555
C23B N3B 1_555 1_555
H21B C23B 1_555 1_555
C24B C9B 1_555 1_555
C25B C24B 1_555 1_555
H22B C25B 1_555 1_555
H23B C25B 1_555 1_555
H24B C25B 1_555 1_555
C26D C30 1_555 1_555
H25D C26D 1_555 1_555
C27D C26D 1_555 1_555
H26D C27D 1_555 1_555
C28D C28 1_555 1_555
C29D S1D 1_555 1_555
C30D C26 1_555 1_555
H27D C30D 1_555 1_555
N2 C7 1_555 1_555
N4 C23 1_555 1_555
C5 C6 1_555 1_555
C15 C24 1_555 1_555
C21 C22 1_555 1_555
C28 C29 1_555 1_555
N2B C7B 1_555 1_555
N4B C23B 1_555 1_555
C5B C6B 1_555 1_555
C15B C24B 1_555 1_555
C21B C22B 1_555 1_555
C27D C28D 1_555 1_555
C28D C29D 1_555 1_555
C29D C30D 1_555 1_555

#END
