
#######################################################################
#
#                 Cambridge Crystallographic Data Centre
#                                CCDC 
#
#######################################################################
#
# If this CIF has been generated from an entry in the Cambridge 
# Structural Database, then it will include bibliographic, chemical, 
# crystal, experimental, refinement or atomic coordinate data resulting 
# from the CCDC's data processing and validation procedures.
#
#######################################################################

data_SIKYUH
_symmetry_cell_setting           monoclinic
_symmetry_space_group_name_H-M   'P 21/n'
_symmetry_Int_Tables_number      14
_space_group_name_Hall           '-P 2yn'
loop_
_symmetry_equiv_pos_site_id
_symmetry_equiv_pos_as_xyz
1 x,y,z
2 1/2-x,1/2+y,1/2-z
3 -x,-y,-z
4 1/2+x,1/2-y,1/2+z
_cell_length_a                   11.451(2)
_cell_length_b                   16.845(3)
_cell_length_c                   12.168(2)
_cell_angle_alpha                90
_cell_angle_beta                 111.12(3)
_cell_angle_gamma                90
_cell_volume                     2189.45
loop_
_atom_site_label
_atom_site_type_symbol
_atom_site_fract_x
_atom_site_fract_y
_atom_site_fract_z
Tb1 Tb 0.37193(2) 0.023740(14) 0.08203(2)
O1 O 0.5390(3) 0.1095(2) 0.1283(3)
O2 O 0.6568(3) 0.0982(2) 0.0168(3)
O3 O 0.9894(3) 0.4367(2) 0.2810(3)
O4 O 0.8852(3) 0.4419(2) 0.4031(3)
C1 C 0.6262(4) 0.1322(3) 0.0939(4)
C2 C 0.6959(5) 0.2061(3) 0.1484(4)
C3 C 0.6620(5) 0.2491(3) 0.2313(4)
H1 H 0.5940 0.2326 0.2501
C4 C 0.7290(5) 0.3157(3) 0.2853(4)
H2 H 0.7059 0.3436 0.3403
C5 C 0.8319(4) 0.3415(3) 0.2573(4)
C6 C 0.8627(5) 0.2992(3) 0.1736(4)
H3 H 0.9283 0.3169 0.1519
C7 C 0.7984(4) 0.2313(3) 0.1216(4)
H4 H 0.8236 0.2025 0.0687
C8 C 0.9068(5) 0.4110(3) 0.3174(4)
O5 O 0.2664(3) 0.1512(2) 0.0750(3)
H5 H 0.1967 0.1498 0.0232
C9 C 0.3169(8) 0.2296(5) 0.0822(7)
H6 H 0.2530 0.2678 0.0773
H7 H 0.3460 0.2377 0.0183
H8 H 0.3854 0.2358 0.1557
O6 O 0.4167(3) 0.0756(2) 0.2851(3)
H9 H 0.3819 0.1189 0.2780
C10 C 0.5301(6) 0.0775(4) 0.3831(5)
H10 H 0.5163 0.1023 0.4485
H11 H 0.5913 0.1072 0.3634
H12 H 0.5597 0.0243 0.4041
O7 O 0.2341(3) -0.0400(2) 0.1678(3)
H13 H 0.2055 0.0051 0.1601
C11 C 0.2597(6) -0.0660(5) 0.2840(5)
H14 H 0.1853 -0.0885 0.2903
H15 H 0.2867 -0.0217 0.3370
H16 H 0.3245 -0.1054 0.3041
O8 O 0.1491(3) 0.0172(2) -0.0565(3)
H17 H 0.0993 0.0488 -0.0465
C12 C 0.0968(6) -0.0159(4) -0.1733(5)
H18 H 0.0077 -0.0084 -0.2036
H19 H 0.1153 -0.0716 -0.1703
H20 H 0.1325 0.0102 -0.2239
Tb1B Tb 0.62807(2) -0.023740(14) -0.08203(2)
Tb1A Tb 1.12807(2) 0.523740(14) 0.41797(2)
Tb1C Tb 0.87193(2) 0.476260(14) 0.58203(2)
Tb1C_2 Tb -0.12807(2) -0.523740(14) -0.41797(2)
Tb1A_2 Tb 0.12807(2) -0.476260(14) -0.58203(2)
O1B O 0.4610(3) -0.1095(2) -0.1283(3)
O2B O 0.3432(3) -0.0982(2) -0.0168(3)
O3B O 0.0106(3) -0.4367(2) -0.2810(3)
O3A O 0.5106(3) -0.0633(2) 0.2190(3)
O3C O 0.4894(3) 0.0633(2) -0.2190(3)
O4B O 0.1148(3) -0.4419(2) -0.4031(3)
O4C O 0.3852(3) 0.0581(2) -0.0969(3)
O4A O 0.6148(3) -0.0581(2) 0.0969(3)
C1B C 0.3738(4) -0.1322(3) -0.0939(4)
C2B C 0.3041(5) -0.2061(3) -0.1484(4)
C3B C 0.3380(5) -0.2491(3) -0.2313(4)
H1B H 0.4060 -0.2326 -0.2501
C4B C 0.2710(5) -0.3157(3) -0.2853(4)
H2B H 0.2941 -0.3436 -0.3403
C5B C 0.1681(4) -0.3415(3) -0.2573(4)
C6B C 0.1373(5) -0.2992(3) -0.1736(4)
H3B H 0.0717 -0.3169 -0.1519
C7B C 0.2016(4) -0.2313(3) -0.1216(4)
H4B H 0.1764 -0.2025 -0.0687
C8B C 0.0932(5) -0.4110(3) -0.3174(4)
O5B O 0.7336(3) -0.1512(2) -0.0750(3)
H5B H 0.8033 -0.1498 -0.0232
C9B C 0.6831(8) -0.2296(5) -0.0822(7)
H6B H 0.7470 -0.2678 -0.0773
H7B H 0.6540 -0.2377 -0.0183
H8B H 0.6146 -0.2358 -0.1557
O6B O 0.5833(3) -0.0756(2) -0.2851(3)
H9B H 0.6181 -0.1189 -0.2780
C10B C 0.4699(6) -0.0775(4) -0.3831(5)
H10B H 0.4837 -0.1023 -0.4485
H11B H 0.4087 -0.1072 -0.3634
H12B H 0.4403 -0.0243 -0.4041
O7B O 0.7659(3) 0.0400(2) -0.1678(3)
H13B H 0.7945 -0.0051 -0.1601
C11B C 0.7403(6) 0.0660(5) -0.2840(5)
H14B H 0.8147 0.0885 -0.2903
H15B H 0.7133 0.0217 -0.3370
H16B H 0.6755 0.1054 -0.3041
O8B O 0.8509(3) -0.0172(2) 0.0565(3)
H17B H 0.9007 -0.0488 0.0465
C12B C 0.9032(6) 0.0159(4) 0.1733(5)
H18B H 0.9923 0.0084 0.2036
H19B H 0.8847 0.0716 0.1703
H20B H 0.8675 -0.0102 0.2239
Cl1 Cl 0.01633(13) -0.16037(9) 0.05186(14)
O9 O 0.3049(5) 0.2002(4) 0.3415(6)
H21 H 0.3468 0.2259 0.3995
C13 C 0.1776(7) 0.2208(5) 0.3095(7)
H22 H 0.1405 0.2260 0.2255
H23 H 0.1709 0.2704 0.3458
H24 H 0.1348 0.1802 0.3356
O10 O 0.0000 0.0000 -0.5000
H25 H -0.0190 0.0493 -0.4569
H25B H 0.0190 -0.0493 -0.5431
loop_
_geom_bond_atom_site_label_1
_geom_bond_atom_site_label_2
_geom_bond_site_symmetry_1
_geom_bond_site_symmetry_2
Tb1 O1 1_555 1_555
O1 C1 1_555 1_555
O2 C1 1_555 1_555
O3 C8 1_555 1_555
O4 C8 1_555 1_555
C1 C2 1_555 1_555
C2 C3 1_555 1_555
C3 H1 1_555 1_555
C4 C3 1_555 1_555
H2 C4 1_555 1_555
C5 C4 1_555 1_555
C6 C5 1_555 1_555
H3 C6 1_555 1_555
C7 C2 1_555 1_555
H4 C7 1_555 1_555
C8 C5 1_555 1_555
O5 Tb1 1_555 1_555
H5 O5 1_555 1_555
C9 O5 1_555 1_555
H6 C9 1_555 1_555
H7 C9 1_555 1_555
H8 C9 1_555 1_555
O6 Tb1 1_555 1_555
H9 O6 1_555 1_555
C10 O6 1_555 1_555
H10 C10 1_555 1_555
H11 C10 1_555 1_555
H12 C10 1_555 1_555
O7 Tb1 1_555 1_555
H13 O7 1_555 1_555
C11 O7 1_555 1_555
H14 C11 1_555 1_555
H15 C11 1_555 1_555
H16 C11 1_555 1_555
O8 Tb1 1_555 1_555
H17 O8 1_555 1_555
C12 O8 1_555 1_555
H18 C12 1_555 1_555
H19 C12 1_555 1_555
H20 C12 1_555 1_555
O9 H21 1_555 1_555
C13 O9 1_555 1_555
H22 C13 1_555 1_555
H23 C13 1_555 1_555
H24 C13 1_555 1_555
O10 H25 1_555 1_555
Tb1B O2 1_555 1_555
Tb1A O3 1_555 1_555
Tb1C O4 1_555 1_555
Tb1C_2 O3B 1_555 1_555
Tb1A_2 O4B 1_555 1_555
O1B Tb1B 1_555 1_555
O2B Tb1 1_555 1_555
O3B C8B 1_555 1_555
O3A Tb1 1_555 1_555
O3C Tb1B 1_555 1_555
O4B Tb1C_2 1_555 1_555
O4C Tb1 1_555 1_555
O4A Tb1 1_555 1_555
C1B O1B 1_555 1_555
C2B C1B 1_555 1_555
C3B C2B 1_555 1_555
H1B C3B 1_555 1_555
C4B C3B 1_555 1_555
H2B C4B 1_555 1_555
C5B C4B 1_555 1_555
C6B C5B 1_555 1_555
H3B C6B 1_555 1_555
C7B C2B 1_555 1_555
H4B C7B 1_555 1_555
C8B O4B 1_555 1_555
O5B Tb1B 1_555 1_555
H5B O5B 1_555 1_555
C9B O5B 1_555 1_555
H6B C9B 1_555 1_555
H7B C9B 1_555 1_555
H8B C9B 1_555 1_555
O6B Tb1B 1_555 1_555
H9B O6B 1_555 1_555
C10B O6B 1_555 1_555
H10B C10B 1_555 1_555
H11B C10B 1_555 1_555
H12B C10B 1_555 1_555
O7B Tb1B 1_555 1_555
H13B O7B 1_555 1_555
C11B O7B 1_555 1_555
H14B C11B 1_555 1_555
H15B C11B 1_555 1_555
H16B C11B 1_555 1_555
O8B Tb1B 1_555 1_555
H17B O8B 1_555 1_555
C12B O8B 1_555 1_555
H18B C12B 1_555 1_555
H19B C12B 1_555 1_555
H20B C12B 1_555 1_555
H25B O10 1_555 1_555
O4 Tb1A 1_555 1_555
C6 C7 1_555 1_555
Tb1B O4C 1_555 1_555
Tb1B O4A 1_555 1_555
O2B C1B 1_555 1_555
C5B C8B 1_555 1_555
C6B C7B 1_555 1_555

#END
