
#######################################################################
#
#                 Cambridge Crystallographic Data Centre
#                                CCDC 
#
#######################################################################
#
# If this CIF has been generated from an entry in the Cambridge 
# Structural Database, then it will include bibliographic, chemical, 
# crystal, experimental, refinement or atomic coordinate data resulting 
# from the CCDC's data processing and validation procedures.
#
#######################################################################

data_SIKYUI
_symmetry_cell_setting           monoclinic
_symmetry_space_group_name_H-M   'C 2'
_symmetry_Int_Tables_number      5
_space_group_name_Hall           'C 2y'
loop_
_symmetry_equiv_pos_site_id
_symmetry_equiv_pos_as_xyz
1 x,y,z
2 -x,y,-z
3 1/2+x,1/2+y,z
4 1/2-x,1/2+y,-z
_cell_length_a                   21.7120(6)
_cell_length_b                   7.3340(2)
_cell_length_c                   4.08070(10)
_cell_angle_alpha                90
_cell_angle_beta                 90.4660(10)
_cell_angle_gamma                90
_cell_volume                     649.772
loop_
_atom_site_label
_atom_site_type_symbol
_atom_site_fract_x
_atom_site_fract_y
_atom_site_fract_z
Cu1 Cu 0.0000 0.61439(9) 0.5000
C1 C 0.15267(17) 0.7146(6) 0.2560(10)
C2 C 0.20305(19) 0.8285(6) 0.2283(11)
H1 H 0.2388 0.7823 0.1241
C3 C 0.2045(2) 1.0065(7) 0.3442(11)
H2 H 0.2414 1.0742 0.3171
C4 C 0.1554(2) 1.0916(6) 0.4968(12)
H3 H 0.1600 1.2148 0.5644
C5 C 0.1001(2) 1.0040(6) 0.5547(11)
H4 H 0.0684 1.0710 0.6600
I1 I 0.0000 0.384101(2) 0.0000
O1 O 0.15839(14) 0.5425(5) 0.1291(9)
H5 H 0.1247 0.4869 0.1466
P1 P 0.08502(5) 0.78187(15) 0.4478(3)
C1A C -0.15267(17) 0.7146(6) 0.7440(10)
C2A C -0.20305(19) 0.8285(6) 0.7717(11)
H1A H -0.2388 0.7823 0.8759
C3A C -0.2045(2) 1.0065(7) 0.6558(11)
H2A H -0.2414 1.0742 0.6829
C4A C -0.1554(2) 1.0916(6) 0.5032(12)
H3A H -0.1600 1.2148 0.4356
C5A C -0.1001(2) 1.0040(6) 0.4453(11)
H4A H -0.0684 1.0710 0.3400
O1A O -0.15839(14) 0.5425(5) 0.8709(9)
H5A H -0.1247 0.4869 0.8534
P1A P -0.08502(5) 0.78187(15) 0.5522(3)
Cu1_2 Cu 0.0000 0.61439(9) -0.5000
I1_2 I 0.0000 0.384101(2) 1.0000
loop_
_geom_bond_atom_site_label_1
_geom_bond_atom_site_label_2
_geom_bond_site_symmetry_1
_geom_bond_site_symmetry_2
Cu1 I1 1_555 1_555
C1 C2 1_555 1_555
C2 H1 1_555 1_555
C3 C2 1_555 1_555
H2 C3 1_555 1_555
C4 C3 1_555 1_555
H3 C4 1_555 1_555
C5 C4 1_555 1_555
H4 C5 1_555 1_555
I1 Cu1_2 1_555 1_555
O1 C1 1_555 1_555
H5 O1 1_555 1_555
P1 Cu1 1_555 1_555
C1A C2A 1_555 1_555
C2A H1A 1_555 1_555
C3A C2A 1_555 1_555
H2A C3A 1_555 1_555
C4A C3A 1_555 1_555
H3A C4A 1_555 1_555
C5A C4A 1_555 1_555
H4A C5A 1_555 1_555
O1A C1A 1_555 1_555
H5A O1A 1_555 1_555
P1A Cu1 1_555 1_555
I1_2 Cu1 1_555 1_555
C1 P1 1_555 1_555
C5 P1 1_555 1_555
C1A P1A 1_555 1_555
C5A P1A 1_555 1_555

#END
