
#######################################################################
#
#                 Cambridge Crystallographic Data Centre
#                                CCDC 
#
#######################################################################
#
# If this CIF has been generated from an entry in the Cambridge 
# Structural Database, then it will include bibliographic, chemical, 
# crystal, experimental, refinement or atomic coordinate data resulting 
# from the CCDC's data processing and validation procedures.
#
#######################################################################

data_SIKYIW
_symmetry_cell_setting           monoclinic
_symmetry_space_group_name_H-M   'P 21/c'
_symmetry_Int_Tables_number      14
_space_group_name_Hall           '-P 2ybc'
loop_
_symmetry_equiv_pos_site_id
_symmetry_equiv_pos_as_xyz
1 x,y,z
2 -x,1/2+y,1/2-z
3 -x,-y,-z
4 x,1/2-y,1/2+z
_cell_length_a                   9.2488(10)
_cell_length_b                   17.7696(18)
_cell_length_c                   7.5714(7)
_cell_angle_alpha                90
_cell_angle_beta                 90.817(3)
_cell_angle_gamma                90
_cell_volume                     1244.21
loop_
_atom_site_label
_atom_site_type_symbol
_atom_site_fract_x
_atom_site_fract_y
_atom_site_fract_z
Cu1 Cu 0.78402(7) 0.20945(3) 0.07457(9)
Br1 Br 0.93422(6) 0.22095(3) 0.35426(7)
C1 C 0.8794(6) 0.0544(3) -0.1843(7)
C2 C 0.8935(6) -0.0217(3) -0.2199(8)
H1 H 0.9558 -0.0367 -0.3120
C3 C 0.8201(7) -0.0771(3) -0.1265(8)
H2 H 0.8352 -0.1282 -0.1583
C4 C 0.7263(7) -0.0619(3) 0.0104(7)
H3 H 0.6786 -0.1029 0.0651
C5 C 0.6989(7) 0.0098(3) 0.0708(8)
H4 H 0.6341 0.0153 0.1662
C6 C 0.5565(6) 0.3669(3) 0.0160(7)
C7 C 0.4221(6) 0.4006(3) 0.0014(7)
H5 H 0.4165 0.4499 -0.0465
C8 C 0.2956(6) 0.3663(3) 0.0529(7)
H6 H 0.2078 0.3935 0.0376
C9 C 0.2888(6) 0.2947(3) 0.1256(8)
H7 H 0.1971 0.2756 0.1585
C10 C 0.4093(6) 0.2499(3) 0.1521(7)
H8 H 0.3956 0.2010 0.1999
O1 O 0.9543(5) 0.1015(2) -0.2923(5)
H9 H 0.9745 0.1413 -0.2377
O2 O 0.6713(4) 0.4085(2) -0.0404(6)
H10 H 0.7460 0.3815 -0.0403
P1 P 0.77414(17) 0.08941(8) -0.01515(19)
P2 P 0.58231(16) 0.27738(8) 0.10407(19)
Cu1C Cu 0.78402(7) 0.29055(3) 0.57457(9)
Br1C Br 0.93422(6) 0.27905(3) -0.14574(7)
loop_
_geom_bond_atom_site_label_1
_geom_bond_atom_site_label_2
_geom_bond_site_symmetry_1
_geom_bond_site_symmetry_2
Cu1 Br1 1_555 1_555
Br1 Cu1C 1_555 1_555
C1 C2 1_555 1_555
C2 H1 1_555 1_555
C3 C2 1_555 1_555
H2 C3 1_555 1_555
C4 C3 1_555 1_555
H3 C4 1_555 1_555
C5 C4 1_555 1_555
H4 C5 1_555 1_555
C6 C7 1_555 1_555
C7 H5 1_555 1_555
C8 C7 1_555 1_555
H6 C8 1_555 1_555
C9 C8 1_555 1_555
H7 C9 1_555 1_555
C10 C9 1_555 1_555
H8 C10 1_555 1_555
O1 C1 1_555 1_555
H9 O1 1_555 1_555
O2 C6 1_555 1_555
H10 O2 1_555 1_555
P1 Cu1 1_555 1_555
P2 Cu1 1_555 1_555
Br1C Cu1 1_555 1_555
C1 P1 1_555 1_555
C5 P1 1_555 1_555
C6 P2 1_555 1_555
C10 P2 1_555 1_555

#END
