
#######################################################################
#
#                 Cambridge Crystallographic Data Centre
#                                CCDC 
#
#######################################################################
#
# If this CIF has been generated from an entry in the Cambridge 
# Structural Database, then it will include bibliographic, chemical, 
# crystal, experimental, refinement or atomic coordinate data resulting 
# from the CCDC's data processing and validation procedures.
#
#######################################################################

data_SIKYIV
_symmetry_cell_setting           monoclinic
_symmetry_space_group_name_H-M   'P 21/n'
_symmetry_Int_Tables_number      14
_space_group_name_Hall           '-P 2yn'
loop_
_symmetry_equiv_pos_site_id
_symmetry_equiv_pos_as_xyz
1 x,y,z
2 1/2-x,1/2+y,1/2-z
3 -x,-y,-z
4 1/2+x,1/2-y,1/2+z
_cell_length_a                   11.573(2)
_cell_length_b                   16.726(3)
_cell_length_c                   12.162(2)
_cell_angle_alpha                90
_cell_angle_beta                 110.55(3)
_cell_angle_gamma                90
_cell_volume                     2204.39
loop_
_atom_site_label
_atom_site_type_symbol
_atom_site_fract_x
_atom_site_fract_y
_atom_site_fract_z
Eu1 Eu 0.37384(5) 0.02497(3) 0.08089(5)
O1 O 0.5366(7) 0.1166(5) 0.1238(7)
O2 O 0.6543(7) 0.1010(4) 0.0150(6)
O3 O 0.9944(7) 0.4375(5) 0.2756(7)
O4 O 0.8960(7) 0.4472(4) 0.4024(7)
C1 C 0.6226(11) 0.1367(7) 0.0888(10)
C2 C 0.6965(11) 0.2091(7) 0.1460(10)
C3 C 0.6621(11) 0.2527(7) 0.2271(10)
H1 H 0.5943 0.2371 0.2461
C4 C 0.7311(11) 0.3205(7) 0.2802(10)
H2 H 0.7079 0.3502 0.3337
C5 C 0.8340(10) 0.3436(6) 0.2532(10)
C6 C 0.8663(11) 0.2998(7) 0.1679(10)
H3 H 0.9323 0.3159 0.1464
C7 C 0.7981(11) 0.2329(7) 0.1175(10)
H4 H 0.8204 0.2031 0.0635
C8 C 0.9160(12) 0.4147(7) 0.3133(11)
O5 O 0.2653(7) 0.1544(4) 0.0685(7)
H5 H 0.1965 0.1520 0.0177
C9 C 0.3125(18) 0.2358(11) 0.0749(16)
H6 H 0.2477 0.2730 0.0700
H7 H 0.3413 0.2448 0.0109
H8 H 0.3794 0.2431 0.1480
O6 O 0.4139(8) 0.0806(5) 0.2832(7)
H9 H 0.3796 0.1242 0.2767
C10 C 0.5257(14) 0.0822(10) 0.3808(12)
H10 H 0.5118 0.1070 0.4463
H11 H 0.5864 0.1122 0.3609
H12 H 0.5547 0.0286 0.4013
O7 O 0.2316(8) -0.0370(5) 0.1673(7)
H13 H 0.2027 0.0084 0.1571
C11 C 0.2501(16) -0.0610(10) 0.2809(13)
H14 H 0.1749 -0.0831 0.2845
H15 H 0.2744 -0.0159 0.3327
H16 H 0.3138 -0.1009 0.3044
O8 O 0.1550(7) 0.0178(5) -0.0607(7)
H17 H 0.1056 0.0494 -0.0505
C12 C 0.1013(13) -0.0195(8) -0.1732(12)
H18 H 0.0135 -0.0115 -0.2016
H19 H 0.1189 -0.0757 -0.1661
H20 H 0.1353 0.0037 -0.2273
Eu1B Eu 0.62616(5) -0.02497(3) -0.08089(5)
Eu1A Eu 1.12616(5) 0.52497(3) 0.41911(5)
Eu1C Eu 0.87384(5) 0.47503(3) 0.58089(5)
Eu1C_2 Eu -0.12616(5) -0.52497(3) -0.41911(5)
Eu1A_2 Eu 0.12616(5) -0.47503(3) -0.58089(5)
O1B O 0.4634(7) -0.1166(5) -0.1238(7)
O2B O 0.3457(7) -0.1010(4) -0.0150(6)
O3B O 0.0056(7) -0.4375(5) -0.2756(7)
O3A O 0.5056(7) -0.0625(5) 0.2244(7)
O3C O 0.4944(7) 0.0625(5) -0.2244(7)
O4B O 0.1040(7) -0.4472(4) -0.4024(7)
O4C O 0.3960(7) 0.0528(4) -0.0976(7)
O4A O 0.6040(7) -0.0528(4) 0.0976(7)
C1B C 0.3774(11) -0.1367(7) -0.0888(10)
C2B C 0.3035(11) -0.2091(7) -0.1460(10)
C3B C 0.3379(11) -0.2527(7) -0.2271(10)
H1B H 0.4057 -0.2371 -0.2461
C4B C 0.2689(11) -0.3205(7) -0.2802(10)
H2B H 0.2921 -0.3502 -0.3337
C5B C 0.1660(10) -0.3436(6) -0.2532(10)
C6B C 0.1337(11) -0.2998(7) -0.1679(10)
H3B H 0.0677 -0.3159 -0.1464
C7B C 0.2019(11) -0.2329(7) -0.1175(10)
H4B H 0.1796 -0.2031 -0.0635
C8B C 0.0840(12) -0.4147(7) -0.3133(11)
O5B O 0.7347(7) -0.1544(4) -0.0685(7)
H5B H 0.8035 -0.1520 -0.0177
C9B C 0.6875(18) -0.2358(11) -0.0749(16)
H6B H 0.7523 -0.2730 -0.0700
H7B H 0.6587 -0.2448 -0.0109
H8B H 0.6206 -0.2431 -0.1480
O6B O 0.5861(8) -0.0806(5) -0.2832(7)
H9B H 0.6204 -0.1242 -0.2767
C10B C 0.4743(14) -0.0822(10) -0.3808(12)
H10B H 0.4882 -0.1070 -0.4463
H11B H 0.4136 -0.1122 -0.3609
H12B H 0.4453 -0.0286 -0.4013
O7B O 0.7684(8) 0.0370(5) -0.1673(7)
H13B H 0.7973 -0.0084 -0.1571
C11B C 0.7499(16) 0.0610(10) -0.2809(13)
H14B H 0.8251 0.0831 -0.2845
H15B H 0.7256 0.0159 -0.3327
H16B H 0.6862 0.1009 -0.3044
O8B O 0.8450(7) -0.0178(5) 0.0607(7)
H17B H 0.8944 -0.0494 0.0505
C12B C 0.8987(13) 0.0195(8) 0.1732(12)
H18B H 0.9865 0.0115 0.2016
H19B H 0.8811 0.0757 0.1661
H20B H 0.8647 -0.0037 0.2273
Cl1 Cl 0.0152(3) -0.1572(2) 0.0522(3)
O9 O 0.3011(12) 0.2087(8) 0.3344(12)
H21 H 0.3436 0.2337 0.3925
C13 C 0.1745(17) 0.2301(12) 0.3061(15)
H22 H 0.1361 0.2356 0.2226
H23 H 0.1693 0.2800 0.3432
H24 H 0.1331 0.1892 0.3336
O10 O 0.0000 0.0000 -0.5000
H25 H -0.0416 -0.0005 -0.5731
H25B H 0.0416 0.0005 -0.4269
loop_
_geom_bond_atom_site_label_1
_geom_bond_atom_site_label_2
_geom_bond_site_symmetry_1
_geom_bond_site_symmetry_2
Eu1 O1 1_555 1_555
O1 C1 1_555 1_555
O2 C1 1_555 1_555
O3 C8 1_555 1_555
O4 C8 1_555 1_555
C1 C2 1_555 1_555
C2 C3 1_555 1_555
C3 H1 1_555 1_555
C4 C3 1_555 1_555
H2 C4 1_555 1_555
C5 C4 1_555 1_555
C6 C5 1_555 1_555
H3 C6 1_555 1_555
C7 C2 1_555 1_555
H4 C7 1_555 1_555
C8 C5 1_555 1_555
O5 Eu1 1_555 1_555
H5 O5 1_555 1_555
C9 O5 1_555 1_555
H6 C9 1_555 1_555
H7 C9 1_555 1_555
H8 C9 1_555 1_555
O6 Eu1 1_555 1_555
H9 O6 1_555 1_555
C10 O6 1_555 1_555
H10 C10 1_555 1_555
H11 C10 1_555 1_555
H12 C10 1_555 1_555
O7 Eu1 1_555 1_555
H13 O7 1_555 1_555
C11 O7 1_555 1_555
H14 C11 1_555 1_555
H15 C11 1_555 1_555
H16 C11 1_555 1_555
O8 Eu1 1_555 1_555
H17 O8 1_555 1_555
C12 O8 1_555 1_555
H18 C12 1_555 1_555
H19 C12 1_555 1_555
H20 C12 1_555 1_555
O9 H21 1_555 1_555
C13 O9 1_555 1_555
H22 C13 1_555 1_555
H23 C13 1_555 1_555
H24 C13 1_555 1_555
O10 H25 1_555 1_555
Eu1B O2 1_555 1_555
Eu1A O3 1_555 1_555
Eu1C O4 1_555 1_555
Eu1C_2 O3B 1_555 1_555
Eu1A_2 O4B 1_555 1_555
O1B Eu1B 1_555 1_555
O2B Eu1 1_555 1_555
O3B C8B 1_555 1_555
O3A Eu1 1_555 1_555
O3C Eu1B 1_555 1_555
O4B Eu1C_2 1_555 1_555
O4C Eu1 1_555 1_555
O4A Eu1 1_555 1_555
C1B O1B 1_555 1_555
C2B C1B 1_555 1_555
C3B C2B 1_555 1_555
H1B C3B 1_555 1_555
C4B C3B 1_555 1_555
H2B C4B 1_555 1_555
C5B C4B 1_555 1_555
C6B C5B 1_555 1_555
H3B C6B 1_555 1_555
C7B C2B 1_555 1_555
H4B C7B 1_555 1_555
C8B O4B 1_555 1_555
O5B Eu1B 1_555 1_555
H5B O5B 1_555 1_555
C9B O5B 1_555 1_555
H6B C9B 1_555 1_555
H7B C9B 1_555 1_555
H8B C9B 1_555 1_555
O6B Eu1B 1_555 1_555
H9B O6B 1_555 1_555
C10B O6B 1_555 1_555
H10B C10B 1_555 1_555
H11B C10B 1_555 1_555
H12B C10B 1_555 1_555
O7B Eu1B 1_555 1_555
H13B O7B 1_555 1_555
C11B O7B 1_555 1_555
H14B C11B 1_555 1_555
H15B C11B 1_555 1_555
H16B C11B 1_555 1_555
O8B Eu1B 1_555 1_555
H17B O8B 1_555 1_555
C12B O8B 1_555 1_555
H18B C12B 1_555 1_555
H19B C12B 1_555 1_555
H20B C12B 1_555 1_555
H25B O10 1_555 1_555
O4 Eu1A 1_555 1_555
C6 C7 1_555 1_555
Eu1B O4C 1_555 1_555
Eu1B O4A 1_555 1_555
O2B C1B 1_555 1_555
C5B C8B 1_555 1_555
C6B C7B 1_555 1_555

#END
