
#######################################################################
#
#                 Cambridge Crystallographic Data Centre
#                                CCDC 
#
#######################################################################
#
# If this CIF has been generated from an entry in the Cambridge 
# Structural Database, then it will include bibliographic, chemical, 
# crystal, experimental, refinement or atomic coordinate data resulting 
# from the CCDC's data processing and validation procedures.
#
#######################################################################

data_SIKZES
_symmetry_cell_setting           triclinic
_symmetry_space_group_name_H-M   'P -1'
_symmetry_Int_Tables_number      2
_space_group_name_Hall           '-P 1'
loop_
_symmetry_equiv_pos_site_id
_symmetry_equiv_pos_as_xyz
1 x,y,z
2 -x,-y,-z
_cell_length_a                   10.019(2)
_cell_length_b                   10.545(2)
_cell_length_c                   11.263(2)
_cell_angle_alpha                93.07(3)
_cell_angle_beta                 104.27(3)
_cell_angle_gamma                118.08(3)
_cell_volume                     997.269
loop_
_atom_site_label
_atom_site_type_symbol
_atom_site_fract_x
_atom_site_fract_y
_atom_site_fract_z
Gd1 Gd 0.73540(4) 0.62372(3) -0.94408(3)
O1 O 0.6223(6) 0.5438(5) -1.1614(4)
O2 O 0.3553(6) 0.4423(5) -1.2275(4)
O3 O 0.4839(6) 0.3425(5) -1.0054(4)
O4 O 0.7324(6) 0.3967(5) -0.9698(5)
O5 O 0.8565(6) 0.8412(5) -1.0468(5)
O6 O 0.9510(6) 0.6956(6) -1.0461(5)
O7 O 1.0030(6) 0.8570(5) -1.1657(5)
N1 N 0.9383(7) 0.7991(6) -1.0881(6)
C1 C 0.4893(9) 0.4936(8) -1.2462(6)
C2 C 0.4945(8) 0.4975(8) -1.3772(6)
C3 C 0.6376(9) 0.5477(8) -1.4025(7)
H1 H 0.7305 0.5798 -1.3369
C4 C 0.3550(9) 0.4490(8) -1.4759(7)
H2 H 0.2580 0.4148 -1.4604
C5 C 0.5883(9) 0.3047(8) -0.9921(6)
C6 C 0.5388(9) 0.1454(8) -0.9982(7)
C7 C 0.3934(9) 0.0448(8) -0.9893(7)
H3 H 0.3214 0.0742 -0.9810
C8 C 0.6460(9) 0.0995(8) -1.0073(8)
H4 H 0.7458 0.1674 -1.0111
O8 O 0.8513(7) 0.8577(5) -0.8000(5)
H5 H 0.9077 0.9315 -0.8231
C9 C 0.8240(15) 0.8998(11) -0.6876(10)
H6 H 0.8931 1.0033 -0.6563
H7 H 0.8456 0.8473 -0.6256
H8 H 0.7153 0.8768 -0.7066
O9 O 0.9755(6) 0.6625(6) -0.7902(5)
H9 H 0.9936 0.6945 -0.7166
C10 C 1.0829(11) 0.6091(11) -0.8000(9)
H10 H 1.1671 0.6437 -0.7224
H11 H 1.1271 0.6446 -0.8659
H12 H 1.0255 0.5039 -0.8182
Gd1A Gd 0.26460(4) 0.37628(3) -2.05592(3)
Gd1A_2 Gd 0.26460(4) 0.37628(3) -1.05592(3)
Gd1_2 Gd 0.73540(4) 0.62372(3) -1.94408(3)
Gd1_3 Gd 0.73540(4) -0.37628(3) -0.94408(3)
Gd1A_3 Gd 0.26460(4) -0.62372(3) -1.05592(3)
O1A O 0.3777(6) 0.4562(5) -1.8386(4)
O2A O 0.6447(6) 0.5577(5) -1.7725(4)
O2A_2 O 0.6447(6) 0.5577(5) -0.7725(4)
O2_2 O 0.3553(6) 0.4423(5) -2.2275(4)
O3A O 0.5161(6) -0.3425(5) -0.9946(4)
O3A_2 O 0.5161(6) 0.6575(5) -0.9946(4)
O3_2 O 0.4839(6) 0.3425(5) -2.0054(4)
O3A_3 O 0.5161(6) 0.6575(5) -1.9946(4)
O4A O 0.2676(6) -0.3967(5) -1.0302(5)
O4A_2 O 0.2676(6) 0.6033(5) -2.0302(5)
O5A O 0.1435(6) 0.1588(5) -1.9532(5)
O6A O 0.0490(6) 0.3044(6) -1.9539(5)
O7A O -0.0030(6) 0.1430(5) -1.8343(5)
N1A N 0.0617(7) 0.2009(6) -1.9119(6)
C1A C 0.5107(9) 0.5064(8) -1.7538(6)
C2A C 0.5055(8) 0.5025(8) -1.6228(6)
C3A C 0.3624(9) 0.4523(8) -1.5975(7)
H1A H 0.2695 0.4202 -1.6631
C4A C 0.6450(9) 0.5510(8) -1.5241(7)
H2A H 0.7420 0.5852 -1.5396
C5A C 0.4117(9) -0.3047(8) -1.0079(6)
C6A C 0.4612(9) -0.1454(8) -1.0018(7)
C7A C 0.6066(9) -0.0448(8) -1.0107(7)
H3A H 0.6786 -0.0742 -1.0190
C8A C 0.3540(9) -0.0995(8) -0.9927(8)
H4A H 0.2542 -0.1674 -0.9889
O8A O 0.1487(7) 0.1423(5) -2.2000(5)
H5A H 0.0923 0.0685 -2.1769
C9A C 0.1760(15) 0.1002(11) -2.3124(10)
H6A H 0.1069 -0.0033 -2.3437
H7A H 0.1544 0.1527 -2.3744
H8A H 0.2847 0.1232 -2.2934
O9A O 0.0245(6) 0.3375(6) -2.2098(5)
H9A H 0.0064 0.3055 -2.2834
C10A C -0.0829(11) 0.3909(11) -2.2000(9)
H10A H -0.1671 0.3563 -2.2776
H11A H -0.1271 0.3554 -2.1341
H12A H -0.0255 0.4961 -2.1818
N2 N 1.054(2) 0.707(2) -0.5361(14)
C11 C 1.1088(18) 0.6978(17) -0.4224(13)
C12 C 1.226(2) 0.714(2) -0.3103(15)
H13 H 1.1781 0.6860 -0.2452
H14 H 1.3103 0.8145 -0.2849
H15 H 1.2691 0.6526 -0.3259
O10 O 1.800(3) 1.081(3) -0.387(2)
H16 H 1.7721 1.1548 -0.4074
H17 H 1.8549 1.0704 -0.4425
O11? O 1.659(4) 0.928(4) -0.366(3)
H18? H 1.5849 0.9479 -0.3399
H19? H 1.6873 0.8711 -0.3126
loop_
_geom_bond_atom_site_label_1
_geom_bond_atom_site_label_2
_geom_bond_site_symmetry_1
_geom_bond_site_symmetry_2
Gd1 O1 1_555 1_555
O1 C1 1_555 1_555
O2 C1 1_555 1_555
O3 Gd1 1_555 1_555
O4 Gd1 1_555 1_555
O5 Gd1 1_555 1_555
O6 Gd1 1_555 1_555
O7 N1 1_555 1_555
N1 O5 1_555 1_555
C1 C2 1_555 1_555
C2 C3 1_555 1_555
C3 H1 1_555 1_555
C4 C2 1_555 1_555
H2 C4 1_555 1_555
C5 O3 1_555 1_555
C6 C5 1_555 1_555
C7 C6 1_555 1_555
H3 C7 1_555 1_555
C8 C6 1_555 1_555
H4 C8 1_555 1_555
O8 Gd1 1_555 1_555
H5 O8 1_555 1_555
C9 O8 1_555 1_555
H6 C9 1_555 1_555
H7 C9 1_555 1_555
H8 C9 1_555 1_555
O9 Gd1 1_555 1_555
H9 O9 1_555 1_555
C10 O9 1_555 1_555
H10 C10 1_555 1_555
H11 C10 1_555 1_555
H12 C10 1_555 1_555
N2 C11 1_555 1_555
C11 C12 1_555 1_555
C12 H13 1_555 1_555
H14 C12 1_555 1_555
H15 C12 1_555 1_555
O10 H16 1_555 1_555
H17 O10 1_555 1_555
Gd1A O1A 1_555 1_555
Gd1A_2 O2 1_555 1_555
Gd1_2 O2A 1_555 1_555
Gd1_3 O3A 1_555 1_555
Gd1A_3 O3A 1_555 1_555
O1A C1A 1_555 1_555
O2A C1A 1_555 1_555
O2A_2 Gd1 1_555 1_555
O2_2 Gd1A 1_555 1_555
O3A C5A 1_555 1_555
O3A_2 Gd1 1_555 1_555
O3_2 Gd1A 1_555 1_555
O3A_3 Gd1A 1_555 1_555
O4A Gd1A_3 1_555 1_555
O4A_2 Gd1A 1_555 1_555
O5A Gd1A 1_555 1_555
O6A Gd1A 1_555 1_555
O7A N1A 1_555 1_555
N1A O5A 1_555 1_555
C1A C2A 1_555 1_555
C2A C3A 1_555 1_555
C3A C4 1_555 1_555
H1A C3A 1_555 1_555
C4A C3 1_555 1_555
H2A C4A 1_555 1_555
C5A O4A 1_555 1_555
C6A C5A 1_555 1_555
C7A C8 1_555 1_555
H3A C7A 1_555 1_555
C8A C7 1_555 1_555
H4A C8A 1_555 1_555
O8A Gd1A 1_555 1_555
H5A O8A 1_555 1_555
C9A O8A 1_555 1_555
H6A C9A 1_555 1_555
H7A C9A 1_555 1_555
H8A C9A 1_555 1_555
O9A Gd1A 1_555 1_555
H9A O9A 1_555 1_555
C10A O9A 1_555 1_555
H10A C10A 1_555 1_555
H11A C10A 1_555 1_555
H12A C10A 1_555 1_555
O3 Gd1A_2 1_555 1_555
O4 C5 1_555 1_555
O6 N1 1_555 1_555
Gd1A_2 O3A_2 1_555 1_555
Gd1_2 O3_2 1_555 1_555
Gd1_2 O3A_3 1_555 1_555
O6A N1A 1_555 1_555
C2A C4A 1_555 1_555
C6A C7A 1_555 1_555
C6A C8A 1_555 1_555

#END
