
#######################################################################
#
#                 Cambridge Crystallographic Data Centre
#                                CCDC 
#
#######################################################################
#
# If this CIF has been generated from an entry in the Cambridge 
# Structural Database, then it will include bibliographic, chemical, 
# crystal, experimental, refinement or atomic coordinate data resulting 
# from the CCDC's data processing and validation procedures.
#
#######################################################################

data_SILBOF
_symmetry_cell_setting           monoclinic
_symmetry_space_group_name_H-M   'C 2/c'
_symmetry_Int_Tables_number      15
_space_group_name_Hall           '-C 2yn'
loop_
_symmetry_equiv_pos_site_id
_symmetry_equiv_pos_as_xyz
1 x,y,z
2 1/2+x,1/2+y,z
3 -x,y,1/2-z
4 1/2-x,1/2+y,1/2-z
5 -x,-y,-z
6 1/2-x,1/2-y,-z
7 x,-y,1/2+z
8 1/2+x,1/2-y,1/2+z
_cell_length_a                   21.683(6)
_cell_length_b                   10.387(3)
_cell_length_c                   19.289(5)
_cell_angle_alpha                90
_cell_angle_beta                 114.760(5)
_cell_angle_gamma                90
_cell_volume                     3944.92
loop_
_atom_site_label
_atom_site_type_symbol
_atom_site_fract_x
_atom_site_fract_y
_atom_site_fract_z
Ti1 Ti 0.57470(5) 0.92737(9) 0.52203(6)
O1 O 0.5259(2) 1.0745(3) 0.5537(2)
O2 O 0.5944(2) 1.0351(4) 0.4569(3)
O3 O 0.5928(2) 0.7696(4) 0.4919(3)
O4 O 0.6532(2) 0.9453(4) 0.6056(3)
N1 N 0.5322(3) 0.8115(4) 0.5947(3)
H1 H 0.4922 0.8502 0.5888
H2 H 0.5211 0.7310 0.5730
C1 C 0.6426(6) 0.6772(8) 0.5091(6)
H3 H 0.6873 0.7228 0.5305
C2 C 0.6537(4) 1.0529(11) 0.4449(5)
H4 H 0.6940 1.0206 0.4902
C3 C 0.7196(4) 0.9652(9) 0.6565(7)
H5 H 0.7376 0.9322 0.6199
C4 C 0.7532(6) 0.8748(14) 0.7092(8)
H6 H 0.7560 0.9017 0.7591
H7 H 0.7992 0.8646 0.7121
H8 H 0.7290 0.7927 0.6947
C5 C 0.7469(5) 1.0923(9) 0.6577(8)
H9 H 0.7181 1.1384 0.6110
H10 H 0.7930 1.0851 0.6607
H11 H 0.7481 1.1396 0.7022
C6 C 0.5725(5) 1.2884(6) 0.5905(5)
H12 H 0.5962 1.2787 0.5573
H13 H 0.5999 1.3416 0.6346
H14 H 0.5284 1.3297 0.5620
C7 C 0.5617(4) 1.1567(6) 0.6177(4)
H15 H 0.6073 1.1177 0.6477
C8 C 0.5249(5) 1.1661(7) 0.6703(4)
H16 H 0.4809 1.2083 0.6430
H17 H 0.5525 1.2166 0.7156
H18 H 0.5179 1.0795 0.6858
C9 C 0.6613(6) 1.1980(15) 0.4362(7)
H19 H 0.6189 1.2324 0.3972
H20 H 0.6984 1.2135 0.4209
H21 H 0.6715 1.2409 0.4851
C10 C 0.6442(9) 0.5854(11) 0.5640(8)
H22 H 0.6534 0.6290 0.6124
H23 H 0.6800 0.5222 0.5717
H24 H 0.6002 0.5415 0.5460
C11 C 0.5717(3) 0.7926(6) 0.6757(4)
H25 H 0.5850 0.8780 0.7003
H26 H 0.6138 0.7459 0.6834
C12 C 0.5353(3) 0.7191(5) 0.7150(3)
C13 C 0.5349(5) 0.5852(6) 0.7157(4)
H27 H 0.5589 0.5390 0.6923
C14 C 0.5000 0.7835(7) 0.7500
H28 H 0.5000 0.8750 0.7500
C15 C 0.5000 0.5185(9) 0.7500
H29 H 0.5000 0.4271 0.7500
C16 C 0.6372(12) 0.6092(18) 0.4397(9)
H30 H 0.6107 0.6613 0.3947
H31 H 0.6146 0.5261 0.4361
H32 H 0.6828 0.5948 0.4422
C17 C 0.6466(6) 0.9768(17) 0.3744(7)
H33 H 0.6320 0.8888 0.3782
H34 H 0.6905 0.9744 0.3711
H35 H 0.6128 1.0182 0.3286
Ti1D Ti 0.42530(5) 1.07263(9) 0.47797(6)
Ti1B Ti 0.42530(5) 0.92737(9) 0.97797(6)
O1D O 0.4741(2) 0.9255(3) 0.4463(2)
O2D O 0.4056(2) 0.9649(4) 0.5431(3)
O3D O 0.4072(2) 1.2304(4) 0.5081(3)
O4D O 0.3468(2) 1.0547(4) 0.3944(3)
N1B N 0.4678(3) 0.8115(4) 0.9053(3)
N1D N 0.4678(3) 1.1885(4) 0.4053(3)
H1B H 0.5078 0.8502 0.9112
H1D H 0.5078 1.1498 0.4112
H2B H 0.4789 0.7310 0.9270
H2D H 0.4789 1.2690 0.4270
C1D C 0.3574(6) 1.3228(8) 0.4909(6)
H3D H 0.3127 1.2772 0.4695
C2D C 0.3463(4) 0.9471(11) 0.5551(5)
H4D H 0.3060 0.9794 0.5098
C3D C 0.2804(4) 1.0348(9) 0.3435(7)
H5D H 0.2624 1.0678 0.3801
C4D C 0.2468(6) 1.1252(14) 0.2908(8)
H6D H 0.2440 1.0983 0.2409
H7D H 0.2008 1.1354 0.2879
H8D H 0.2710 1.2073 0.3053
C5D C 0.2531(5) 0.9077(9) 0.3423(8)
H9D H 0.2819 0.8616 0.3890
H10D H 0.2070 0.9149 0.3393
H11D H 0.2519 0.8604 0.2978
C6D C 0.4275(5) 0.7116(6) 0.4095(5)
H12D H 0.4038 0.7213 0.4427
H13D H 0.4001 0.6584 0.3654
H14D H 0.4716 0.6703 0.4380
C7D C 0.4383(4) 0.8433(6) 0.3823(4)
H15D H 0.3927 0.8823 0.3523
C8D C 0.4751(5) 0.8339(7) 0.3297(4)
H16D H 0.5191 0.7917 0.3570
H17D H 0.4475 0.7834 0.2844
H18D H 0.4821 0.9205 0.3142
C9D C 0.3387(6) 0.8020(15) 0.5638(7)
H19D H 0.3811 0.7676 0.6028
H20D H 0.3016 0.7865 0.5791
H21D H 0.3285 0.7591 0.5149
C10D C 0.3558(9) 1.4146(11) 0.4360(8)
H22D H 0.3466 1.3710 0.3876
H23D H 0.3200 1.4778 0.4283
H24D H 0.3998 1.4585 0.4540
C11B C 0.4283(3) 0.7926(6) 0.8243(4)
H25B H 0.4150 0.8780 0.7997
H26B H 0.3862 0.7459 0.8166
C12B C 0.4647(3) 0.7191(5) 0.7850(3)
C13B C 0.4651(5) 0.5852(6) 0.7843(4)
H27B H 0.4411 0.5390 0.8077
C16D C 0.3628(12) 1.3908(18) 0.5603(9)
H30D H 0.3893 1.3387 0.6053
H31D H 0.3854 1.4739 0.5639
H32D H 0.3172 1.4052 0.5578
C17D C 0.3534(6) 1.0232(17) 0.6256(7)
H33D H 0.3680 1.1112 0.6218
H34D H 0.3095 1.0256 0.6289
H35D H 0.3872 0.9818 0.6714
loop_
_geom_bond_atom_site_label_1
_geom_bond_atom_site_label_2
_geom_bond_site_symmetry_1
_geom_bond_site_symmetry_2
Ti1 O1 1_555 1_555
O1 C7 1_555 1_555
O2 Ti1 1_555 1_555
O3 Ti1 1_555 1_555
O4 Ti1 1_555 1_555
N1 Ti1 1_555 1_555
H1 N1 1_555 1_555
H2 N1 1_555 1_555
C1 O3 1_555 1_555
H3 C1 1_555 1_555
C2 O2 1_555 1_555
H4 C2 1_555 1_555
C3 O4 1_555 1_555
H5 C3 1_555 1_555
C4 C3 1_555 1_555
H6 C4 1_555 1_555
H7 C4 1_555 1_555
H8 C4 1_555 1_555
C5 C3 1_555 1_555
H9 C5 1_555 1_555
H10 C5 1_555 1_555
H11 C5 1_555 1_555
C6 H12 1_555 1_555
H13 C6 1_555 1_555
H14 C6 1_555 1_555
C7 C6 1_555 1_555
H15 C7 1_555 1_555
C8 C7 1_555 1_555
H16 C8 1_555 1_555
H17 C8 1_555 1_555
H18 C8 1_555 1_555
C9 C2 1_555 1_555
H19 C9 1_555 1_555
H20 C9 1_555 1_555
H21 C9 1_555 1_555
C10 C1 1_555 1_555
H22 C10 1_555 1_555
H23 C10 1_555 1_555
H24 C10 1_555 1_555
C11 N1 1_555 1_555
H25 C11 1_555 1_555
H26 C11 1_555 1_555
C12 C11 1_555 1_555
C13 C12 1_555 1_555
H27 C13 1_555 1_555
C14 C12 1_555 1_555
H28 C14 1_555 1_555
C15 C13 1_555 1_555
H29 C15 1_555 1_555
C16 C1 1_555 1_555
H30 C16 1_555 1_555
H31 C16 1_555 1_555
H32 C16 1_555 1_555
C17 C2 1_555 1_555
H33 C17 1_555 1_555
H34 C17 1_555 1_555
H35 C17 1_555 1_555
Ti1D O1 1_555 1_555
Ti1B N1B 1_555 1_555
O1D Ti1 1_555 1_555
O2D Ti1D 1_555 1_555
O3D Ti1D 1_555 1_555
O4D Ti1D 1_555 1_555
N1B H1B 1_555 1_555
N1D Ti1D 1_555 1_555
H1D N1D 1_555 1_555
H2B N1B 1_555 1_555
H2D N1D 1_555 1_555
C1D O3D 1_555 1_555
H3D C1D 1_555 1_555
C2D O2D 1_555 1_555
H4D C2D 1_555 1_555
C3D O4D 1_555 1_555
H5D C3D 1_555 1_555
C4D C3D 1_555 1_555
H6D C4D 1_555 1_555
H7D C4D 1_555 1_555
H8D C4D 1_555 1_555
C5D C3D 1_555 1_555
H9D C5D 1_555 1_555
H10D C5D 1_555 1_555
H11D C5D 1_555 1_555
C6D H12D 1_555 1_555
H13D C6D 1_555 1_555
H14D C6D 1_555 1_555
C7D O1D 1_555 1_555
H15D C7D 1_555 1_555
C8D C7D 1_555 1_555
H16D C8D 1_555 1_555
H17D C8D 1_555 1_555
H18D C8D 1_555 1_555
C9D C2D 1_555 1_555
H19D C9D 1_555 1_555
H20D C9D 1_555 1_555
H21D C9D 1_555 1_555
C10D C1D 1_555 1_555
H22D C10D 1_555 1_555
H23D C10D 1_555 1_555
H24D C10D 1_555 1_555
C11B N1B 1_555 1_555
H25B C11B 1_555 1_555
H26B C11B 1_555 1_555
C12B C14 1_555 1_555
C13B C15 1_555 1_555
H27B C13B 1_555 1_555
C16D C1D 1_555 1_555
H30D C16D 1_555 1_555
H31D C16D 1_555 1_555
H32D C16D 1_555 1_555
C17D C2D 1_555 1_555
H33D C17D 1_555 1_555
H34D C17D 1_555 1_555
H35D C17D 1_555 1_555
Ti1D O1D 1_555 1_555
C6D C7D 1_555 1_555
C11B C12B 1_555 1_555
C12B C13B 1_555 1_555

#END
