
#######################################################################
#
#                 Cambridge Crystallographic Data Centre
#                                CCDC 
#
#######################################################################
#
# If this CIF has been generated from an entry in the Cambridge 
# Structural Database, then it will include bibliographic, chemical, 
# crystal, experimental, refinement or atomic coordinate data resulting 
# from the CCDC's data processing and validation procedures.
#
#######################################################################

data_SILBIZ
_symmetry_cell_setting           triclinic
_symmetry_space_group_name_H-M   'P -1'
_symmetry_Int_Tables_number      2
_space_group_name_Hall           '-P 1'
loop_
_symmetry_equiv_pos_site_id
_symmetry_equiv_pos_as_xyz
1 x,y,z
2 -x,-y,-z
_cell_length_a                   8.7185(14)
_cell_length_b                   9.4747(15)
_cell_length_c                   11.7188(19)
_cell_angle_alpha                110.982(3)
_cell_angle_beta                 95.184(3)
_cell_angle_gamma                98.534(3)
_cell_volume                     882.98
loop_
_atom_site_label
_atom_site_type_symbol
_atom_site_fract_x
_atom_site_fract_y
_atom_site_fract_z
Ti1 Ti 0.61151(8) 0.61134(8) 0.63421(6)
O1 O 0.4692(3) 0.3986(3) 0.5409(2)
O2 O 0.7595(3) 0.7849(3) 0.6746(3)
O3 O 0.6793(3) 0.5617(3) 0.7646(2)
O4 O 0.4473(3) 0.7037(3) 0.6950(3)
N1 N 0.7889(4) 0.4777(4) 0.5296(3)
H1 H 0.8002 0.4021 0.5600
H2 H 0.7423 0.4282 0.4483
C1 C 0.9470(4) 0.5546(4) 0.5292(4)
H3 H 0.9958 0.6189 0.6155
H4 H 0.9390 0.6243 0.4838
C2 C 0.4318(5) 0.2690(4) 0.5764(4)
H5 H 0.3549 0.1877 0.5072
C3 C 0.4331(5) 0.8073(5) 0.8139(4)
H6 H 0.5387 0.8416 0.8667
C4 C 0.5759(5) 0.2005(5) 0.5933(4)
H7 H 0.6274 0.1803 0.5197
H8 H 0.5435 0.1038 0.6053
H9 H 0.6493 0.2734 0.6660
C5 C 0.3530(6) 0.3103(6) 0.6902(4)
H10 H 0.4265 0.3875 0.7606
H11 H 0.3210 0.2178 0.7082
H12 H 0.2602 0.3523 0.6757
C6 C 0.8025(6) 0.6065(6) 0.8641(4)
H13 H 0.8650 0.7082 0.8728
C7 C 0.9100(6) 0.4925(8) 0.8413(5)
H14 H 0.8536 0.3947 0.8406
H15 H 1.0011 0.5327 0.9072
H16 H 0.9454 0.4759 0.7613
C8 C 0.9296(6) 0.9896(6) 0.6469(5)
H17 H 1.0228 0.9425 0.6385
H18 H 0.9621 1.1020 0.6853
H19 H 0.8681 0.9610 0.5650
C9 C 0.8317(10) 0.9338(7) 0.7261(5)
H20 H 0.7390 0.9812 0.7154
C10 C 0.8737(7) 1.0090(6) 0.8556(5)
H21 H 0.7929 0.9715 0.8965
H22 H 0.8828 1.1204 0.8786
H23 H 0.9746 0.9873 0.8817
C11 C 0.3800(8) 0.9463(6) 0.8021(6)
H24 H 0.4578 0.9976 0.7671
H25 H 0.3690 1.0180 0.8840
H26 H 0.2786 0.9138 0.7477
C12 C 0.7349(7) 0.6266(7) 0.9808(5)
H27 H 0.6704 0.7059 0.9954
H28 H 0.8203 0.6582 1.0505
H29 H 0.6698 0.5289 0.9728
C13 C 0.3223(8) 0.7287(7) 0.8725(6)
H30 H 0.2157 0.7054 0.8272
H31 H 0.3247 0.7965 0.9587
H32 H 0.3539 0.6327 0.8700
Ti1A Ti 0.38849(8) 0.38866(8) 0.36579(6)
Ti1A_2 Ti 1.38849(8) 0.38866(8) 0.36579(6)
O1A O 0.5308(3) 0.6014(3) 0.4591(2)
O2A O 0.2405(3) 0.2151(3) 0.3254(3)
O3A O 0.3207(3) 0.4383(3) 0.2354(2)
O4A O 0.5527(3) 0.2963(3) 0.3050(3)
N1A N 1.2111(4) 0.5223(4) 0.4704(3)
N1A_2 N 0.2111(4) 0.5223(4) 0.4704(3)
H1A H 1.1998 0.5979 0.4400
H1A_2 H 0.1998 0.5979 0.4400
H2A H 1.2577 0.5718 0.5517
H2A_2 H 0.2577 0.5718 0.5517
C1A C 1.0530(4) 0.4454(4) 0.4708(4)
H3A H 1.0042 0.3811 0.3845
H4A H 1.0610 0.3757 0.5162
C2A C 0.5682(5) 0.7310(4) 0.4236(4)
H5A H 0.6451 0.8123 0.4928
C3A C 0.5669(5) 0.1927(5) 0.1861(4)
H6A H 0.4613 0.1584 0.1333
C4A C 0.4241(5) 0.7995(5) 0.4067(4)
H7A H 0.3726 0.8197 0.4803
H8A H 0.4565 0.8962 0.3947
H9A H 0.3507 0.7266 0.3340
C5A C 0.6470(6) 0.6897(6) 0.3098(4)
H10A H 0.5735 0.6125 0.2394
H11A H 0.6790 0.7822 0.2918
H12A H 0.7398 0.6477 0.3243
C6A C 0.1975(6) 0.3935(6) 0.1359(4)
H13A H 0.1350 0.2918 0.1272
C7A C 0.0900(6) 0.5075(8) 0.1587(5)
H14A H 0.1464 0.6053 0.1594
H15A H -0.0011 0.4673 0.0928
H16A H 0.0546 0.5241 0.2387
C8A C 0.0704(6) 0.0104(6) 0.3531(5)
H17A H -0.0228 0.0575 0.3615
H18A H 0.0379 -0.1020 0.3147
H19A H 0.1319 0.0390 0.4350
C9A C 0.1683(10) 0.0662(7) 0.2739(5)
H20A H 0.2610 0.0188 0.2846
C10A C 0.1263(7) -0.0090(6) 0.1444(5)
H21A H 0.2071 0.0285 0.1035
H22A H 0.1172 -0.1204 0.1214
H23A H 0.0254 0.0127 0.1183
C11A C 0.6200(8) 0.0537(6) 0.1979(6)
H24A H 0.5422 0.0024 0.2329
H25A H 0.6310 -0.0180 0.1160
H26A H 0.7214 0.0862 0.2523
C12A C 0.2651(7) 0.3734(7) 0.0192(5)
H27A H 0.3296 0.2941 0.0046
H28A H 0.1797 0.3418 -0.0505
H29A H 0.3302 0.4711 0.0272
C13A C 0.6777(8) 0.2713(7) 0.1275(6)
H30A H 0.7843 0.2946 0.1728
H31A H 0.6753 0.2035 0.0413
H32A H 0.6461 0.3673 0.1300
loop_
_geom_bond_atom_site_label_1
_geom_bond_atom_site_label_2
_geom_bond_site_symmetry_1
_geom_bond_site_symmetry_2
Ti1 O1 1_555 1_555
O1 C2 1_555 1_555
O2 Ti1 1_555 1_555
O3 Ti1 1_555 1_555
O4 Ti1 1_555 1_555
N1 Ti1 1_555 1_555
H1 N1 1_555 1_555
H2 N1 1_555 1_555
C1 N1 1_555 1_555
H3 C1 1_555 1_555
H4 C1 1_555 1_555
C2 H5 1_555 1_555
C3 O4 1_555 1_555
H6 C3 1_555 1_555
C4 C2 1_555 1_555
H7 C4 1_555 1_555
H8 C4 1_555 1_555
H9 C4 1_555 1_555
C5 C2 1_555 1_555
H10 C5 1_555 1_555
H11 C5 1_555 1_555
H12 C5 1_555 1_555
C6 O3 1_555 1_555
H13 C6 1_555 1_555
C7 C6 1_555 1_555
H14 C7 1_555 1_555
H15 C7 1_555 1_555
H16 C7 1_555 1_555
C8 H17 1_555 1_555
H18 C8 1_555 1_555
H19 C8 1_555 1_555
C9 O2 1_555 1_555
H20 C9 1_555 1_555
C10 C9 1_555 1_555
H21 C10 1_555 1_555
H22 C10 1_555 1_555
H23 C10 1_555 1_555
C11 C3 1_555 1_555
H24 C11 1_555 1_555
H25 C11 1_555 1_555
H26 C11 1_555 1_555
C12 C6 1_555 1_555
H27 C12 1_555 1_555
H28 C12 1_555 1_555
H29 C12 1_555 1_555
C13 C3 1_555 1_555
H30 C13 1_555 1_555
H31 C13 1_555 1_555
H32 C13 1_555 1_555
Ti1A O1 1_555 1_555
Ti1A_2 N1A 1_555 1_555
O1A Ti1 1_555 1_555
O2A Ti1A 1_555 1_555
O3A Ti1A 1_555 1_555
O4A Ti1A 1_555 1_555
N1A H1A 1_555 1_555
N1A_2 Ti1A 1_555 1_555
H1A_2 N1A_2 1_555 1_555
H2A N1A 1_555 1_555
H2A_2 N1A_2 1_555 1_555
C1A C1 1_555 1_555
H3A C1A 1_555 1_555
H4A C1A 1_555 1_555
C2A O1A 1_555 1_555
H5A C2A 1_555 1_555
C3A O4A 1_555 1_555
H6A C3A 1_555 1_555
C4A C2A 1_555 1_555
H7A C4A 1_555 1_555
H8A C4A 1_555 1_555
H9A C4A 1_555 1_555
C5A C2A 1_555 1_555
H10A C5A 1_555 1_555
H11A C5A 1_555 1_555
H12A C5A 1_555 1_555
C6A O3A 1_555 1_555
H13A C6A 1_555 1_555
C7A C6A 1_555 1_555
H14A C7A 1_555 1_555
H15A C7A 1_555 1_555
H16A C7A 1_555 1_555
C8A H17A 1_555 1_555
H18A C8A 1_555 1_555
H19A C8A 1_555 1_555
C9A O2A 1_555 1_555
H20A C9A 1_555 1_555
C10A C9A 1_555 1_555
H21A C10A 1_555 1_555
H22A C10A 1_555 1_555
H23A C10A 1_555 1_555
C11A C3A 1_555 1_555
H24A C11A 1_555 1_555
H25A C11A 1_555 1_555
H26A C11A 1_555 1_555
C12A C6A 1_555 1_555
H27A C12A 1_555 1_555
H28A C12A 1_555 1_555
H29A C12A 1_555 1_555
C13A C3A 1_555 1_555
H30A C13A 1_555 1_555
H31A C13A 1_555 1_555
H32A C13A 1_555 1_555
C8 C9 1_555 1_555
Ti1A O1A 1_555 1_555
N1A C1A 1_555 1_555
C8A C9A 1_555 1_555

#END
