
#######################################################################
#
#                 Cambridge Crystallographic Data Centre
#                                CCDC 
#
#######################################################################
#
# If this CIF has been generated from an entry in the Cambridge 
# Structural Database, then it will include bibliographic, chemical, 
# crystal, experimental, refinement or atomic coordinate data resulting 
# from the CCDC's data processing and validation procedures.
#
#######################################################################

data_SILBUL
_symmetry_cell_setting           monoclinic
_symmetry_space_group_name_H-M   'P 21/a'
_symmetry_Int_Tables_number      14
_space_group_name_Hall           '-P 2yab'
loop_
_symmetry_equiv_pos_site_id
_symmetry_equiv_pos_as_xyz
1 x,y,z
2 1/2-x,1/2+y,-z
3 -x,-y,-z
4 1/2+x,1/2-y,z
_cell_length_a                   12.0057(10)
_cell_length_b                   18.2046(14)
_cell_length_c                   19.0057(15)
_cell_angle_alpha                90
_cell_angle_beta                 77.797(2)
_cell_angle_gamma                90
_cell_volume                     4060.01
loop_
_atom_site_label
_atom_site_type_symbol
_atom_site_fract_x
_atom_site_fract_y
_atom_site_fract_z
Ti1 Ti 0.42368(6) 0.55614(3) 0.45932(3)
Ti2 Ti 0.89458(6) 0.50748(3) -0.04438(4)
O1 O 0.5871(2) 0.53334(12) 0.47278(13)
O2 O 0.9703(2) 0.55766(12) 0.03157(13)
O3 O 0.3995(2) 0.62134(12) 0.53614(13)
O4 O 0.9857(3) 0.55913(14) -0.11852(16)
O5 O 0.4693(3) 0.62116(14) 0.38634(14)
N1 N 0.8059(3) 0.44748(17) 0.05818(19)
H1 H 0.8623 0.4233 0.0751
H2 H 0.7784 0.4833 0.0914
O6 O 0.2768(3) 0.54701(16) 0.44906(17)
O7 O 0.8364(3) 0.43979(17) -0.09684(17)
N2 N 0.4685(3) 0.46252(17) 0.37774(18)
H3 H 0.5229 0.4343 0.3926
H4 H 0.4044 0.4338 0.3824
C1 C 0.6560(4) 0.3677(3) 0.1356(2)
H5 H 0.7147 0.3466 0.1592
H6 H 0.6020 0.3280 0.1307
C2 C 0.5917(5) 0.4279(2) 0.1837(2)
H7 H 0.6464 0.4672 0.1884
H8 H 0.5343 0.4494 0.1592
C3 C 0.7130(4) 0.3944(2) 0.0613(3)
H9 H 0.7436 0.3512 0.0319
H10 H 0.6542 0.4171 0.0387
C4 C 0.5333(5) 0.4048(3) 0.2567(2)
H11 H 0.5880 0.3740 0.2770
C5 C 0.4329(5) 0.3606(3) 0.2571(3)
H12 H 0.3727 0.3916 0.2451
H13 H 0.4064 0.3392 0.3051
H14 H 0.4518 0.3212 0.2215
C6 C 0.5076(5) 0.4752(3) 0.3044(3)
H15 H 0.5780 0.5049 0.2977
H16 H 0.4498 0.5048 0.2868
O8 O 0.7725(3) 0.56928(17) -0.02732(19)
C7 C 0.3394(4) 0.68856(19) 0.5501(2)
H17 H 0.3172 0.7058 0.5050
C8 C 0.6864(4) 0.5761(2) 0.4418(3)
H18 H 0.6502 0.6061 0.4085
C9 C 0.9701(5) 0.5862(3) -0.1844(3)
H19 H 0.8893 0.5784 -0.1885
C10 C 0.7103(6) 0.6348(3) 0.4847(3)
H20 H 0.6428 0.6662 0.4980
H21 H 0.7739 0.6637 0.4574
H22 H 0.7308 0.6153 0.5283
C11 C 0.4142(5) 0.7446(2) 0.5732(3)
H23 H 0.4445 0.7253 0.6136
H24 H 0.3700 0.7893 0.5883
H25 H 0.4774 0.7562 0.5329
C12 C 0.2322(4) 0.6753(3) 0.6075(3)
H26 H 0.1858 0.6375 0.5909
H27 H 0.1884 0.7211 0.6165
H28 H 0.2534 0.6589 0.6520
C13 C 0.9789(6) 0.6893(2) 0.0266(4)
H29 H 1.0618 0.6915 0.0212
H30 H 0.9441 0.7330 0.0523
H31 H 0.9600 0.6874 -0.0211
C14 C 0.7676(5) 0.5398(3) 0.3879(3)
H32 H 0.8093 0.5762 0.3544
H33 H 0.7283 0.5057 0.3616
H34 H 0.8212 0.5126 0.4105
C15 C 0.1948(5) 0.5591(3) 0.4104(4)
H35 H 0.2407 0.5795 0.3644
C16 C 0.9371(6) 0.6263(2) 0.0657(3)
H36 H 0.8661 0.6274 0.0461
C17 C 0.1454(6) 0.4923(3) 0.3847(4)
H37 H 0.2069 0.4608 0.3589
H38 H 0.0955 0.5064 0.3522
H39 H 0.1011 0.4654 0.4259
C18 C 1.0485(6) 0.5490(4) -0.2458(3)
H40 H 1.1276 0.5562 -0.2414
H41 H 1.0377 0.5701 -0.2913
H42 H 1.0315 0.4963 -0.2447
C19 C 0.6669(5) 0.5948(3) -0.0339(4)
H43 H 0.6330 0.5567 -0.0608
C20 C 0.7156(8) 0.4502(4) -0.1808(4)
H44 H 0.6364 0.4332 -0.1714
H45 H 0.7499 0.4443 -0.2321
H46 H 0.7174 0.5021 -0.1676
C21 C 0.3924(7) 0.7273(3) 0.3403(4)
H47 H 0.3480 0.7104 0.3058
H48 H 0.4263 0.7752 0.3250
H49 H 0.3424 0.7319 0.3881
C22 C 0.8722(6) 0.6226(3) 0.1380(3)
H50 H 0.9213 0.6059 0.1700
H51 H 0.8091 0.5879 0.1404
H52 H 0.8417 0.6713 0.1531
C23 C 0.1155(6) 0.6178(4) 0.4338(5)
H53 H 0.0626 0.6033 0.4783
H54 H 0.0726 0.6282 0.3964
H55 H 0.1572 0.6619 0.4426
C24 C 0.4771(6) 0.6776(4) 0.3433(4)
H56 H 0.5196 0.7096 0.3713
C25 C 0.9965(9) 0.6690(3) -0.1868(4)
H57 H 0.9472 0.6932 -0.1457
H58 H 0.9825 0.6899 -0.2317
H59 H 1.0764 0.6764 -0.1845
C26 C 0.7609(7) 0.3308(3) -0.1360(5)
H60 H 0.8179 0.3071 -0.1736
H61 H 0.6843 0.3186 -0.1427
H62 H 0.7698 0.3133 -0.0887
C27 C 0.5896(5) 0.6020(4) 0.0385(5)
H63 H 0.5761 0.5534 0.0609
H64 H 0.5169 0.6235 0.0332
H65 H 0.6252 0.6339 0.0690
C28 C 0.6723(9) 0.6622(5) -0.0745(4)
H66 H 0.7153 0.6989 -0.0536
H67 H 0.5949 0.6804 -0.0728
H68 H 0.7104 0.6530 -0.1246
C29 C 0.7763(8) 0.4090(3) -0.1403(5)
H69 H 0.8443 0.4052 -0.1809
C30 C 0.5715(7) 0.6715(5) 0.2778(4)
H70 H 0.6260 0.6339 0.2859
H71 H 0.6106 0.7188 0.2684
H72 H 0.5397 0.6578 0.2362
Ti1B Ti 0.57632(6) 0.44386(3) 0.54068(3)
Ti2B Ti 1.10542(6) 0.49252(3) 0.04438(4)
O1B O 0.4129(2) 0.46666(12) 0.52722(13)
O2B O 1.0297(2) 0.44234(12) -0.03157(13)
loop_
_geom_bond_atom_site_label_1
_geom_bond_atom_site_label_2
_geom_bond_site_symmetry_1
_geom_bond_site_symmetry_2
Ti1 O1 1_555 1_555
Ti2 O2 1_555 1_555
O1 C8 1_555 1_555
O2 C16 1_555 1_555
O3 Ti1 1_555 1_555
O4 Ti2 1_555 1_555
O5 Ti1 1_555 1_555
N1 Ti2 1_555 1_555
H1 N1 1_555 1_555
H2 N1 1_555 1_555
O6 Ti1 1_555 1_555
O7 Ti2 1_555 1_555
N2 Ti1 1_555 1_555
H3 N2 1_555 1_555
H4 N2 1_555 1_555
C1 H5 1_555 1_555
H6 C1 1_555 1_555
C2 C1 1_555 1_555
H7 C2 1_555 1_555
H8 C2 1_555 1_555
C3 N1 1_555 1_555
H9 C3 1_555 1_555
H10 C3 1_555 1_555
C4 C2 1_555 1_555
H11 C4 1_555 1_555
C5 C4 1_555 1_555
H12 C5 1_555 1_555
H13 C5 1_555 1_555
H14 C5 1_555 1_555
C6 N2 1_555 1_555
H15 C6 1_555 1_555
H16 C6 1_555 1_555
O8 Ti2 1_555 1_555
C7 O3 1_555 1_555
H17 C7 1_555 1_555
C8 H18 1_555 1_555
C9 O4 1_555 1_555
H19 C9 1_555 1_555
C10 C8 1_555 1_555
H20 C10 1_555 1_555
H21 C10 1_555 1_555
H22 C10 1_555 1_555
C11 C7 1_555 1_555
H23 C11 1_555 1_555
H24 C11 1_555 1_555
H25 C11 1_555 1_555
C12 C7 1_555 1_555
H26 C12 1_555 1_555
H27 C12 1_555 1_555
H28 C12 1_555 1_555
C13 H29 1_555 1_555
H30 C13 1_555 1_555
H31 C13 1_555 1_555
C14 C8 1_555 1_555
H32 C14 1_555 1_555
H33 C14 1_555 1_555
H34 C14 1_555 1_555
C15 O6 1_555 1_555
H35 C15 1_555 1_555
C16 C13 1_555 1_555
H36 C16 1_555 1_555
C17 C15 1_555 1_555
H37 C17 1_555 1_555
H38 C17 1_555 1_555
H39 C17 1_555 1_555
C18 C9 1_555 1_555
H40 C18 1_555 1_555
H41 C18 1_555 1_555
H42 C18 1_555 1_555
C19 O8 1_555 1_555
H43 C19 1_555 1_555
C20 H44 1_555 1_555
H45 C20 1_555 1_555
H46 C20 1_555 1_555
C21 H47 1_555 1_555
H48 C21 1_555 1_555
H49 C21 1_555 1_555
C22 C16 1_555 1_555
H50 C22 1_555 1_555
H51 C22 1_555 1_555
H52 C22 1_555 1_555
C23 C15 1_555 1_555
H53 C23 1_555 1_555
H54 C23 1_555 1_555
H55 C23 1_555 1_555
C24 O5 1_555 1_555
H56 C24 1_555 1_555
C25 C9 1_555 1_555
H57 C25 1_555 1_555
H58 C25 1_555 1_555
H59 C25 1_555 1_555
C26 H60 1_555 1_555
H61 C26 1_555 1_555
H62 C26 1_555 1_555
C27 C19 1_555 1_555
H63 C27 1_555 1_555
H64 C27 1_555 1_555
H65 C27 1_555 1_555
C28 C19 1_555 1_555
H66 C28 1_555 1_555
H67 C28 1_555 1_555
H68 C28 1_555 1_555
C29 O7 1_555 1_555
H69 C29 1_555 1_555
C30 C24 1_555 1_555
H70 C30 1_555 1_555
H71 C30 1_555 1_555
H72 C30 1_555 1_555
Ti1B O1 1_555 1_555
Ti2B O2 1_555 1_555
O1B Ti1 1_555 1_555
O2B Ti2 1_555 1_555
C1 C3 1_555 1_555
C4 C6 1_555 1_555
C20 C29 1_555 1_555
C21 C24 1_555 1_555
C26 C29 1_555 1_555
Ti1B O1B 1_555 1_555
Ti2B O2B 1_555 1_555

#END
