
#######################################################################
#
#                 Cambridge Crystallographic Data Centre
#                                CCDC 
#
#######################################################################
#
# If this CIF has been generated from an entry in the Cambridge 
# Structural Database, then it will include bibliographic, chemical, 
# crystal, experimental, refinement or atomic coordinate data resulting 
# from the CCDC's data processing and validation procedures.
#
#######################################################################

data_SILJON01
_symmetry_cell_setting           monoclinic
_symmetry_space_group_name_H-M   'P 21/n'
_symmetry_Int_Tables_number      14
_space_group_name_Hall           '-P 2yn'
loop_
_symmetry_equiv_pos_site_id
_symmetry_equiv_pos_as_xyz
1 x,y,z
2 1/2-x,1/2+y,1/2-z
3 -x,-y,-z
4 1/2+x,1/2-y,1/2+z
_cell_length_a                   9.456(1)
_cell_length_b                   14.966(3)
_cell_length_c                   18.166(4)
_cell_angle_alpha                90
_cell_angle_beta                 93.74(1)
_cell_angle_gamma                90
_cell_volume                     2565.35
loop_
_atom_site_label
_atom_site_type_symbol
_atom_site_fract_x
_atom_site_fract_y
_atom_site_fract_z
Dy1 Dy 0.195701(18) 0.583911(12) 0.500576(9)
Cu1 Cu 0.5000 0.0000 0.5000
O1 O 0.2280(3) 0.43001(18) 0.50421(17)
O2 O 0.0274(3) 0.3543(2) 0.50973(19)
O3 O 0.3581(3) -0.05366(19) 0.42852(15)
O4 O 0.1845(3) -0.1225(2) 0.48600(15)
O5 O 0.3964(3) 0.56810(18) 0.41742(14)
O6 O 0.2726(3) 0.69240(19) 0.41176(15)
O7 O 0.1052(4) 0.5477(2) 0.61110(16)
O8 O -0.0907(3) 0.4660(2) 0.61044(16)
O9 O 0.2216(3) 0.7219(2) 0.56835(17)
O10 O 0.4068(3) 0.5705(2) 0.57715(16)
N1 N 0.3863(3) 0.1131(2) 0.49738(16)
N2 N 0.0145(4) -0.1238(3) 0.2173(2)
N3 N 0.5756(5) 0.7292(3) 0.1969(2)
N4 N 0.0917(4) 0.4501(4) 0.8722(2)
C1 C 0.4533(4) 0.1926(3) 0.4982(2)
H1 H 0.5517 0.1933 0.4988
C2 C 0.3828(4) 0.2722(3) 0.4983(2)
H2 H 0.4329 0.3257 0.4987
C3 C 0.2366(4) 0.2729(3) 0.4979(2)
C4 C 0.1649(4) 0.1919(3) 0.4943(2)
H3 H 0.0664 0.1900 0.4919
C5 C 0.2442(4) 0.1140(3) 0.4944(2)
H4 H 0.1964 0.0597 0.4924
C6 C 0.1574(4) 0.3599(3) 0.5038(2)
C7 C 0.1288(6) -0.0714(4) 0.2280(3)
H5 H 0.1616 -0.0417 0.1875
C8 C 0.2008(5) -0.0592(3) 0.2961(2)
H6 H 0.2775 -0.0202 0.3008
C9 C 0.1591(4) -0.1045(3) 0.3564(2)
C10 C 0.0435(4) -0.1607(3) 0.3463(2)
H7 H 0.0117 -0.1931 0.3857
C11 C -0.0242(5) -0.1681(3) 0.2768(3)
H8 H -0.1016 -0.2064 0.2709
C12 C 0.2395(4) -0.0932(3) 0.4307(2)
C13 C 0.6322(6) 0.6681(4) 0.2435(3)
H9 H 0.7200 0.6444 0.2337
C14 C 0.5697(5) 0.6376(4) 0.3052(3)
H10 H 0.6148 0.5950 0.3357
C15 C 0.4397(4) 0.6712(3) 0.3210(2)
C16 C 0.3780(5) 0.7340(3) 0.2730(2)
H11 H 0.2901 0.7584 0.2814
C17 C 0.4488(6) 0.7599(4) 0.2122(3)
H12 H 0.4051 0.8014 0.1801
C18 C 0.3660(4) 0.6428(3) 0.3878(2)
C19 C 0.1568(5) 0.5134(4) 0.8384(3)
H13 H 0.2187 0.5495 0.8671
C20 C 0.1418(5) 0.5311(4) 0.7644(2)
H14 H 0.1930 0.5767 0.7438
C21 C 0.0486(4) 0.4793(3) 0.7215(2)
C22 C -0.0190(4) 0.4097(3) 0.7547(2)
H15 H -0.0812 0.3723 0.7275
C23 C 0.0088(5) 0.3974(4) 0.8296(3)
H16 H -0.0334 0.3490 0.8516
C24 C 0.0185(4) 0.4987(3) 0.6407(2)
H17 H 0.223(5) 0.7683(18) 0.545(2)
H18 H 0.178(4) 0.734(3) 0.6043(15)
H19 H 0.468(4) 0.533(2) 0.572(3)
H20 H 0.433(6) 0.592(4) 0.6169(17)
Dy1B Dy 0.804299(18) -0.583911(12) 0.499424(9)
Dy1B_2 Dy -0.195701(18) 0.416089(12) 0.499424(9)
Dy1_2 Dy 1.195701(18) -0.416089(12) 0.500576(9)
O1B O 0.7720(3) -0.43001(18) 0.49579(17)
O2B O 0.9726(3) -0.3543(2) 0.49027(19)
O2B_2 O -0.0274(3) 0.6457(2) 0.49027(19)
O2_2 O 1.0274(3) -0.6457(2) 0.50973(19)
O3B O 0.6419(3) 0.05366(19) 0.57148(15)
O4B O 0.8155(3) 0.1225(2) 0.51400(15)
O5B O 0.6036(3) -0.56810(18) 0.58258(14)
O6B O 0.7274(3) -0.69240(19) 0.58824(15)
O7B O -0.1052(4) 0.4523(2) 0.38890(16)
O7B_2 O 0.8948(4) -0.5477(2) 0.38890(16)
O8B O 0.0907(3) 0.5340(2) 0.38956(16)
O8_2 O 0.9093(3) -0.5340(2) 0.61044(16)
O9B O 0.7784(3) -0.7219(2) 0.43165(17)
O10B O 0.5932(3) -0.5705(2) 0.42285(16)
N1B N 0.6137(3) -0.1131(2) 0.50262(16)
N2B N 0.9855(4) 0.1238(3) 0.7827(2)
N3B N 0.4244(5) -0.7292(3) 0.8031(2)
N4B N -0.0917(4) 0.5499(4) 0.1278(2)
C1B C 0.5467(4) -0.1926(3) 0.5018(2)
H1B H 0.4483 -0.1933 0.5012
C2B C 0.6172(4) -0.2722(3) 0.5017(2)
H2B H 0.5671 -0.3257 0.5013
C3B C 0.7634(4) -0.2729(3) 0.5021(2)
C4B C 0.8351(4) -0.1919(3) 0.5057(2)
H3B H 0.9336 -0.1900 0.5081
C5B C 0.7558(4) -0.1140(3) 0.5056(2)
H4B H 0.8036 -0.0597 0.5076
C6B C 0.8426(4) -0.3599(3) 0.4962(2)
C7B C 0.8712(6) 0.0714(4) 0.7720(3)
H5B H 0.8384 0.0417 0.8125
C8B C 0.7992(5) 0.0592(3) 0.7039(2)
H6B H 0.7225 0.0202 0.6992
C9B C 0.8409(4) 0.1045(3) 0.6436(2)
C10B C 0.9565(4) 0.1607(3) 0.6537(2)
H7B H 0.9883 0.1931 0.6143
C11B C 1.0242(5) 0.1681(3) 0.7232(3)
H8B H 1.1016 0.2064 0.7291
C12B C 0.7605(4) 0.0932(3) 0.5693(2)
C13B C 0.3678(6) -0.6681(4) 0.7565(3)
H9B H 0.2800 -0.6444 0.7663
C14B C 0.4303(5) -0.6376(4) 0.6948(3)
H10B H 0.3852 -0.5950 0.6643
C15B C 0.5603(4) -0.6712(3) 0.6790(2)
C16B C 0.6220(5) -0.7340(3) 0.7270(2)
H11B H 0.7099 -0.7584 0.7186
C17B C 0.5512(6) -0.7599(4) 0.7878(3)
H12B H 0.5949 -0.8014 0.8199
C18B C 0.6340(4) -0.6428(3) 0.6122(2)
C19B C -0.1568(5) 0.4866(4) 0.1616(3)
H13B H -0.2187 0.4505 0.1329
C20B C -0.1418(5) 0.4689(4) 0.2356(2)
H14B H -0.1930 0.4233 0.2562
C21B C -0.0486(4) 0.5207(3) 0.2785(2)
C22B C 0.0190(4) 0.5903(3) 0.2453(2)
H15B H 0.0812 0.6277 0.2725
C23B C -0.0088(5) 0.6026(4) 0.1704(3)
H16B H 0.0334 0.6510 0.1484
C24B C -0.0185(4) 0.5013(3) 0.3593(2)
H17B H 0.777(5) -0.7683(18) 0.455(2)
H18B H 0.822(4) -0.734(3) 0.3957(15)
H19B H 0.532(4) -0.533(2) 0.428(3)
H20B H 0.567(6) -0.592(4) 0.3831(17)
loop_
_geom_bond_atom_site_label_1
_geom_bond_atom_site_label_2
_geom_bond_site_symmetry_1
_geom_bond_site_symmetry_2
Dy1 O1 1_555 1_555
Cu1 O3 1_555 1_555
O1 C6 1_555 1_555
O2 C6 1_555 1_555
O3 C12 1_555 1_555
O4 C12 1_555 1_555
O5 Dy1 1_555 1_555
O6 Dy1 1_555 1_555
O7 Dy1 1_555 1_555
O8 C24 1_555 1_555
O9 Dy1 1_555 1_555
O10 Dy1 1_555 1_555
N1 Cu1 1_555 1_555
N2 C7 1_555 1_555
N3 C13 1_555 1_555
N4 C19 1_555 1_555
C1 N1 1_555 1_555
H1 C1 1_555 1_555
C2 C1 1_555 1_555
H2 C2 1_555 1_555
C3 C2 1_555 1_555
C4 C3 1_555 1_555
H3 C4 1_555 1_555
C5 N1 1_555 1_555
H4 C5 1_555 1_555
C6 C3 1_555 1_555
C7 H5 1_555 1_555
C8 C7 1_555 1_555
H6 C8 1_555 1_555
C9 C8 1_555 1_555
C10 C9 1_555 1_555
H7 C10 1_555 1_555
C11 N2 1_555 1_555
H8 C11 1_555 1_555
C12 C9 1_555 1_555
C13 H9 1_555 1_555
C14 C13 1_555 1_555
H10 C14 1_555 1_555
C15 C14 1_555 1_555
C16 C15 1_555 1_555
H11 C16 1_555 1_555
C17 N3 1_555 1_555
H12 C17 1_555 1_555
C18 O5 1_555 1_555
C19 H13 1_555 1_555
C20 C19 1_555 1_555
H14 C20 1_555 1_555
C21 C20 1_555 1_555
C22 C21 1_555 1_555
H15 C22 1_555 1_555
C23 N4 1_555 1_555
H16 C23 1_555 1_555
C24 O7 1_555 1_555
H17 O9 1_555 1_555
H18 O9 1_555 1_555
H19 O10 1_555 1_555
H20 O10 1_555 1_555
Dy1B O1B 1_555 1_555
Dy1B_2 O2 1_555 1_555
Dy1_2 O2B 1_555 1_555
O1B C6B 1_555 1_555
O2B C6B 1_555 1_555
O2B_2 Dy1 1_555 1_555
O2_2 Dy1B 1_555 1_555
O3B Cu1 1_555 1_555
O4B C12B 1_555 1_555
O5B Dy1B 1_555 1_555
O6B Dy1B 1_555 1_555
O7B Dy1B_2 1_555 1_555
O7B_2 Dy1B 1_555 1_555
O8B Dy1 1_555 1_555
O8_2 Dy1B 1_555 1_555
O9B Dy1B 1_555 1_555
O10B Dy1B 1_555 1_555
N1B Cu1 1_555 1_555
N2B C7B 1_555 1_555
N3B C13B 1_555 1_555
N4B C19B 1_555 1_555
C1B N1B 1_555 1_555
H1B C1B 1_555 1_555
C2B C1B 1_555 1_555
H2B C2B 1_555 1_555
C3B C2B 1_555 1_555
C4B C3B 1_555 1_555
H3B C4B 1_555 1_555
C5B N1B 1_555 1_555
H4B C5B 1_555 1_555
C6B C3B 1_555 1_555
C7B H5B 1_555 1_555
C8B C7B 1_555 1_555
H6B C8B 1_555 1_555
C9B C8B 1_555 1_555
C10B C9B 1_555 1_555
H7B C10B 1_555 1_555
C11B N2B 1_555 1_555
H8B C11B 1_555 1_555
C12B O3B 1_555 1_555
C13B H9B 1_555 1_555
C14B C13B 1_555 1_555
H10B C14B 1_555 1_555
C15B C14B 1_555 1_555
C16B C15B 1_555 1_555
H11B C16B 1_555 1_555
C17B N3B 1_555 1_555
H12B C17B 1_555 1_555
C18B O5B 1_555 1_555
C19B H13B 1_555 1_555
C20B C19B 1_555 1_555
H14B C20B 1_555 1_555
C21B C20B 1_555 1_555
C22B C21B 1_555 1_555
H15B C22B 1_555 1_555
C23B N4B 1_555 1_555
H16B C23B 1_555 1_555
C24B O7B 1_555 1_555
H17B O9B 1_555 1_555
H18B O9B 1_555 1_555
H19B O10B 1_555 1_555
H20B O10B 1_555 1_555
O6 C18 1_555 1_555
O8 Dy1B_2 1_555 1_555
C4 C5 1_555 1_555
C10 C11 1_555 1_555
C15 C18 1_555 1_555
C16 C17 1_555 1_555
C21 C24 1_555 1_555
C22 C23 1_555 1_555
O6B C18B 1_555 1_555
O8B C24B 1_555 1_555
C4B C5B 1_555 1_555
C9B C12B 1_555 1_555
C10B C11B 1_555 1_555
C15B C18B 1_555 1_555
C16B C17B 1_555 1_555
C21B C24B 1_555 1_555
C22B C23B 1_555 1_555

#END
