
#######################################################################
#
#                 Cambridge Crystallographic Data Centre
#                                CCDC 
#
#######################################################################
#
# If this CIF has been generated from an entry in the Cambridge 
# Structural Database, then it will include bibliographic, chemical, 
# crystal, experimental, refinement or atomic coordinate data resulting 
# from the CCDC's data processing and validation procedures.
#
#######################################################################

data_SILLAB
_symmetry_cell_setting           orthorhombic
_symmetry_space_group_name_H-M   'F d d 2'
_symmetry_Int_Tables_number      43
_space_group_name_Hall           'F 2 -2d'
loop_
_symmetry_equiv_pos_site_id
_symmetry_equiv_pos_as_xyz
1 x,y,z
2 -x,-y,z
3 1/4+x,1/4-y,1/4+z
4 1/4-x,1/4+y,1/4+z
5 x,1/2+y,1/2+z
6 -x,1/2-y,1/2+z
7 1/4+x,3/4-y,3/4+z
8 1/4-x,3/4+y,3/4+z
9 1/2+x,y,1/2+z
10 1/2-x,-y,1/2+z
11 3/4+x,1/4-y,3/4+z
12 3/4-x,1/4+y,3/4+z
13 1/2+x,1/2+y,z
14 1/2-x,1/2-y,z
15 3/4+x,3/4-y,1/4+z
16 3/4-x,3/4+y,1/4+z
_cell_length_a                   30.626(5)
_cell_length_b                   12.981(2)
_cell_length_c                   17.164(2)
_cell_angle_alpha                90
_cell_angle_beta                 90
_cell_angle_gamma                90
_cell_volume                     6823.65
loop_
_atom_site_label
_atom_site_type_symbol
_atom_site_fract_x
_atom_site_fract_y
_atom_site_fract_z
Sn1 Sn 0.411524(8) -0.002008(19) 0.26150(5)
C1 C 0.43775(19) 0.1345(4) 0.2137(4)
H1 H 0.4312 0.1915 0.2474
H2 H 0.4251 0.1466 0.1634
H3 H 0.4688 0.1276 0.2087
C2 C 0.4509(2) -0.0989(5) 0.3309(4)
H4 H 0.4442 -0.0880 0.3848
H5 H 0.4811 -0.0832 0.3218
H6 H 0.4454 -0.1695 0.3175
C3 C 0.3535(2) -0.0753(5) 0.2245(4)
H7 H 0.3308 -0.0634 0.2622
H8 H 0.3585 -0.1480 0.2196
H9 H 0.3447 -0.0477 0.1751
O1 O 0.38557(11) 0.0726(2) 0.3650(2)
O2 O 0.33660(11) 0.1547(2) 0.2914(2)
O3 O 0.30486(15) 0.6794(3) 0.3896(2)
C4 C 0.35365(15) 0.1367(3) 0.3546(3)
C5 C 0.33861(13) 0.1881(3) 0.4283(3)
C6 C 0.35136(15) 0.1499(3) 0.5001(3)
H10 H 0.3703 0.0939 0.5021
C7 C 0.33636(18) 0.1936(5) 0.5696(3)
H11 H 0.3450 0.1670 0.6176
C8 C 0.3084(2) 0.2772(5) 0.5656(3)
H12 H 0.2977 0.3059 0.6115
C9 C 0.29629(16) 0.3184(4) 0.4959(3)
H13 H 0.2778 0.3753 0.4950
C10 C 0.31093(15) 0.2770(4) 0.4268(3)
N1 N 0.29828(13) 0.3157(3) 0.3544(3)
H14 H 0.3021(18) 0.279(5) 0.310(3)
C11 C 0.29327(14) 0.4169(3) 0.3321(3)
C12 C 0.27589(17) 0.4271(4) 0.2514(3)
H15 H 0.2878 0.3724 0.2194
H16 H 0.2444 0.4190 0.2526
C13 C 0.2869(2) 0.5299(4) 0.2148(3)
H17 H 0.2701 0.5385 0.1673
H18 H 0.3177 0.5313 0.2012
C14 C 0.27695(19) 0.6178(4) 0.2700(4)
H19 H 0.2884 0.6812 0.2482
H20 H 0.2455 0.6253 0.2745
C15 C 0.29602(15) 0.6024(3) 0.3502(3)
C16 C 0.30212(16) 0.4990(3) 0.3778(3)
H21 H 0.3124 0.4883 0.4282
Sn1O Sn 0.338476(8) 0.747992(19) 0.51150(5)
O3K O 0.44514(15) -0.0706(3) 0.1396(2)
loop_
_geom_bond_atom_site_label_1
_geom_bond_atom_site_label_2
_geom_bond_site_symmetry_1
_geom_bond_site_symmetry_2
Sn1 C1 1_555 1_555
C1 H1 1_555 1_555
H2 C1 1_555 1_555
H3 C1 1_555 1_555
C2 Sn1 1_555 1_555
H4 C2 1_555 1_555
H5 C2 1_555 1_555
H6 C2 1_555 1_555
C3 Sn1 1_555 1_555
H7 C3 1_555 1_555
H8 C3 1_555 1_555
H9 C3 1_555 1_555
O1 Sn1 1_555 1_555
O2 C4 1_555 1_555
O3 C15 1_555 1_555
C4 O1 1_555 1_555
C5 C4 1_555 1_555
C6 C5 1_555 1_555
H10 C6 1_555 1_555
C7 C6 1_555 1_555
H11 C7 1_555 1_555
C8 C7 1_555 1_555
H12 C8 1_555 1_555
C9 C8 1_555 1_555
H13 C9 1_555 1_555
C10 C5 1_555 1_555
N1 C10 1_555 1_555
H14 N1 1_555 1_555
C11 N1 1_555 1_555
C12 C11 1_555 1_555
H15 C12 1_555 1_555
H16 C12 1_555 1_555
C13 C12 1_555 1_555
H17 C13 1_555 1_555
H18 C13 1_555 1_555
C14 C13 1_555 1_555
H19 C14 1_555 1_555
H20 C14 1_555 1_555
C15 C14 1_555 1_555
C16 C11 1_555 1_555
H21 C16 1_555 1_555
Sn1O O3 1_555 1_555
O3K Sn1 1_555 1_555
C9 C10 1_555 1_555
C15 C16 1_555 1_555

#END
