
#######################################################################
#
#                 Cambridge Crystallographic Data Centre
#                                CCDC 
#
#######################################################################
#
# If this CIF has been generated from an entry in the Cambridge 
# Structural Database, then it will include bibliographic, chemical, 
# crystal, experimental, refinement or atomic coordinate data resulting 
# from the CCDC's data processing and validation procedures.
#
#######################################################################

data_SILVUF
_symmetry_cell_setting           orthorhombic
_symmetry_space_group_name_H-M   'P n a 21'
_symmetry_Int_Tables_number      33
_space_group_name_Hall           'P 2c -2n'
loop_
_symmetry_equiv_pos_site_id
_symmetry_equiv_pos_as_xyz
1 x,y,z
2 -x,-y,1/2+z
3 1/2+x,1/2-y,z
4 1/2-x,1/2+y,1/2+z
_cell_length_a                   18.908(4)
_cell_length_b                   12.014(2)
_cell_length_c                   6.3685(13)
_cell_angle_alpha                90
_cell_angle_beta                 90
_cell_angle_gamma                90
_cell_volume                     1446.67
loop_
_atom_site_label
_atom_site_type_symbol
_atom_site_fract_x
_atom_site_fract_y
_atom_site_fract_z
Co1 Co 0.58489(2) 0.37977(4) 0.81148(10)
O1 O 0.57437(16) 0.2373(2) 0.6343(5)
O2 O 0.56006(18) 0.0562(2) 0.5806(6)
O3 O 0.59367(14) 0.5412(2) 0.9471(5)
O4 O 0.49223(15) 0.5437(2) 1.1272(5)
O5 O 0.50825(16) 0.3308(2) 1.0273(5)
H1 H 0.5086 0.2784 1.1163
H2 H 0.4983 0.3956 1.0733
N1 N 0.66885(18) 0.4293(3) 0.6150(6)
N2 N 0.67416(19) 0.3116(3) 0.9751(6)
C1 C 0.6659(3) 0.4838(4) 0.4355(7)
H3 H 0.6218 0.5067 0.3880
C2 C 0.7245(2) 0.5094(3) 0.3127(10)
H4 H 0.7193 0.5481 0.1871
C3 C 0.7901(2) 0.4762(4) 0.3807(8)
H5 H 0.8301 0.4913 0.3007
C4 C 0.7962(2) 0.4191(4) 0.5731(8)
C5 C 0.8627(3) 0.3794(4) 0.6570(9)
H6 H 0.9045 0.3951 0.5862
C6 C 0.8646(2) 0.3205(4) 0.8352(10)
H7 H 0.9080 0.2957 0.8852
C7 C 0.8015(2) 0.2944(4) 0.9519(8)
C8 C 0.8010(3) 0.2328(4) 1.1383(8)
H8 H 0.8432 0.2066 1.1942
C9 C 0.7387(3) 0.2112(4) 1.2382(8)
H9 H 0.7382 0.1696 1.3614
C10 C 0.6751(2) 0.2524(3) 1.1525(8)
H10 H 0.6327 0.2380 1.2214
C11 C 0.7362(2) 0.3326(4) 0.8765(7)
C12 C 0.7338(2) 0.3958(4) 0.6843(8)
C13 C 0.5675(2) 0.1395(4) 0.6949(8)
H11 H 0.5679 0.1275 0.8391
C14 C 0.5454(2) 0.5899(4) 1.0437(7)
H12 H 0.5488 0.6669 1.0554
Co1A Co 0.41511(2) 0.62023(4) 1.31148(10)
O4A O 0.50777(15) 0.4563(2) 0.6272(5)
O6 O 0.49393(19) 0.1397(2) 0.2288(6)
H13 H 0.4752 0.0902 0.1500
H14 H 0.5149 0.1157 0.3384
loop_
_geom_bond_atom_site_label_1
_geom_bond_atom_site_label_2
_geom_bond_site_symmetry_1
_geom_bond_site_symmetry_2
Co1 O1 1_555 1_555
O1 C13 1_555 1_555
O2 C13 1_555 1_555
O3 Co1 1_555 1_555
O4 C14 1_555 1_555
O5 Co1 1_555 1_555
H1 O5 1_555 1_555
H2 O5 1_555 1_555
N1 Co1 1_555 1_555
N2 Co1 1_555 1_555
C1 N1 1_555 1_555
H3 C1 1_555 1_555
C2 C1 1_555 1_555
H4 C2 1_555 1_555
C3 C2 1_555 1_555
H5 C3 1_555 1_555
C4 C3 1_555 1_555
C5 C4 1_555 1_555
H6 C5 1_555 1_555
C6 C5 1_555 1_555
H7 C6 1_555 1_555
C7 C6 1_555 1_555
C8 C7 1_555 1_555
H8 C8 1_555 1_555
C9 C8 1_555 1_555
H9 C9 1_555 1_555
C10 N2 1_555 1_555
H10 C10 1_555 1_555
C11 N2 1_555 1_555
C12 N1 1_555 1_555
C13 H11 1_555 1_555
C14 O3 1_555 1_555
H12 C14 1_555 1_555
O6 H13 1_555 1_555
H14 O6 1_555 1_555
Co1A O4 1_555 1_555
O4A Co1 1_555 1_555
C4 C12 1_555 1_555
C7 C11 1_555 1_555
C9 C10 1_555 1_555
C11 C12 1_555 1_555

#END
