
#######################################################################
#
#                 Cambridge Crystallographic Data Centre
#                                CCDC 
#
#######################################################################
#
# If this CIF has been generated from an entry in the Cambridge 
# Structural Database, then it will include bibliographic, chemical, 
# crystal, experimental, refinement or atomic coordinate data resulting 
# from the CCDC's data processing and validation procedures.
#
#######################################################################

data_SILVUF01
_symmetry_cell_setting           orthorhombic
_symmetry_space_group_name_H-M   'P n a 21'
_symmetry_Int_Tables_number      33
_space_group_name_Hall           'P 2c -2n'
loop_
_symmetry_equiv_pos_site_id
_symmetry_equiv_pos_as_xyz
1 x,y,z
2 -x,-y,1/2+z
3 1/2+x,1/2-y,z
4 1/2-x,1/2+y,1/2+z
_cell_length_a                   19.0714(6)
_cell_length_b                   12.0458(4)
_cell_length_c                   6.4145(2)
_cell_angle_alpha                90
_cell_angle_beta                 90
_cell_angle_gamma                90
_cell_volume                     1473.6
loop_
_atom_site_label
_atom_site_type_symbol
_atom_site_fract_x
_atom_site_fract_y
_atom_site_fract_z
Co1 Co 0.583278(15) 0.37799(3) 0.68268(10)
N1 N 0.67160(12) 0.3104(2) 0.5164(5)
C1 C 0.73182(15) 0.3943(3) 0.8030(6)
C2 C 0.85924(17) 0.3807(4) 0.8266(9)
H1 H 0.9009 0.3970 0.8952
C3 C 0.86129(17) 0.3219(3) 0.6510(10)
H2 H 0.9044 0.2975 0.6012
C4 C 0.79854(17) 0.2948(3) 0.5355(7)
C5 C 0.79401(16) 0.4197(3) 0.9129(7)
O1 O 0.59252(9) 0.53954(16) 0.5474(4)
N2 N 0.66786(11) 0.4269(2) 0.8751(5)
C6 C 0.67263(17) 0.2519(3) 0.3410(6)
H3 H 0.6305 0.2374 0.2730
C7 C 0.72332(16) 0.5086(3) 1.1729(8)
H4 H 0.7187 0.5470 1.2978
C8 C 0.66472(16) 0.4817(3) 1.0537(6)
H5 H 0.6209 0.5035 1.1023
C9 C 0.73375(15) 0.3323(3) 0.6137(6)
C10 C 0.7973(2) 0.2338(3) 0.3510(8)
H6 H 0.8390 0.2083 0.2931
C11 C 0.7351(2) 0.2114(3) 0.2552(6)
H7 H 0.7341 0.1695 0.1335
C12 C 0.78734(18) 0.4773(3) 1.1022(7)
H8 H 0.8272 0.4940 1.1798
O2 O 0.57201(10) 0.23409(18) 0.8542(4)
C13 C 0.56545(16) 0.1381(3) 0.7939(7)
H9 H 0.5660 0.1260 0.6507
O3 O 0.55817(15) 0.0558(2) 0.9084(5)
O4 O 0.49252(10) 0.54590(15) 0.3690(4)
C14 C 0.54580(15) 0.5885(2) 0.4491(5)
H10 H 0.5510 0.6649 0.4336
O5 O 0.50740(12) 0.3320(2) 0.4653(4)
H11 H 0.4941 0.3871 0.4016
H13 H 0.5071(18) 0.281(3) 0.400(7)
Co1A Co 0.416722(15) 0.62201(3) 0.18268(10)
O4A O 0.50748(10) 0.45410(15) 0.8690(4)
O6 O 0.5082(3) 0.8582(3) 0.7596(6)
H12 H 0.522(2) 0.912(4) 0.811(9)
H14 H 0.483(3) 0.873(5) 0.688(14)
loop_
_geom_bond_atom_site_label_1
_geom_bond_atom_site_label_2
_geom_bond_site_symmetry_1
_geom_bond_site_symmetry_2
Co1 N1 1_555 1_555
N1 C6 1_555 1_555
C1 C5 1_555 1_555
C2 H1 1_555 1_555
C3 C2 1_555 1_555
H2 C3 1_555 1_555
C4 C3 1_555 1_555
C5 C2 1_555 1_555
O1 Co1 1_555 1_555
N2 Co1 1_555 1_555
C6 H3 1_555 1_555
C7 H4 1_555 1_555
C8 N2 1_555 1_555
H5 C8 1_555 1_555
C9 N1 1_555 1_555
C10 C4 1_555 1_555
H6 C10 1_555 1_555
C11 C6 1_555 1_555
H7 C11 1_555 1_555
C12 C5 1_555 1_555
H8 C12 1_555 1_555
O2 Co1 1_555 1_555
C13 O2 1_555 1_555
H9 C13 1_555 1_555
O3 C13 1_555 1_555
O4 C14 1_555 1_555
C14 O1 1_555 1_555
H10 C14 1_555 1_555
O5 Co1 1_555 1_555
H11 O5 1_555 1_555
O6 H12 1_555 1_555
H13 O5 1_555 1_555
H14 O6 1_555 1_555
Co1A O4 1_555 1_555
O4A Co1 1_555 1_555
C1 N2 1_555 1_555
C1 C9 1_555 1_555
C4 C9 1_555 1_555
C7 C8 1_555 1_555
C7 C12 1_555 1_555
C10 C11 1_555 1_555

#END
