
#######################################################################
#
#                 Cambridge Crystallographic Data Centre
#                                CCDC 
#
#######################################################################
#
# If this CIF has been generated from an entry in the Cambridge 
# Structural Database, then it will include bibliographic, chemical, 
# crystal, experimental, refinement or atomic coordinate data resulting 
# from the CCDC's data processing and validation procedures.
#
#######################################################################

data_SILWAM
_symmetry_cell_setting           monoclinic
_symmetry_space_group_name_H-M   'P 21/n'
_symmetry_Int_Tables_number      14
_space_group_name_Hall           '-P 2yn'
loop_
_symmetry_equiv_pos_site_id
_symmetry_equiv_pos_as_xyz
1 x,y,z
2 1/2-x,1/2+y,1/2-z
3 -x,-y,-z
4 1/2+x,1/2-y,1/2+z
_cell_length_a                   8.7554(18)
_cell_length_b                   17.940(4)
_cell_length_c                   16.116(3)
_cell_angle_alpha                90
_cell_angle_beta                 104.65(3)
_cell_angle_gamma                90
_cell_volume                     2449.07
loop_
_atom_site_label
_atom_site_type_symbol
_atom_site_fract_x
_atom_site_fract_y
_atom_site_fract_z
C1 C -0.0628(3) 0.14907(16) 0.89714(17)
C2 C 0.0462(4) 0.09492(19) 0.9508(2)
H1 H -0.0049 0.0716 0.9902
H2 H 0.1394 0.1203 0.9822
H3 H 0.0748 0.0576 0.9147
C3 C -0.2843(4) 0.2071(2) 0.8369(2)
H4 H -0.3902 0.2207 0.8210
C4 C -0.1646(3) 0.23935(19) 0.81210(19)
H5 H -0.1740 0.2799 0.7752
C5 C 0.1416(4) 0.29497(18) 1.00860(19)
H6 H 0.0352 0.3051 0.9852
C6 C 0.2215(4) 0.3096(2) 1.0897(2)
H7 H 0.1819 0.3315 1.1322
C7 C 0.3821(3) 0.25763(16) 1.02174(17)
C8 C 0.5277(4) 0.2251(2) 1.0070(2)
H8 H 0.5976 0.2116 1.0610
H9 H 0.5784 0.2609 0.9788
H10 H 0.5017 0.1815 0.9717
C9 C 0.3097(3) 0.34777(15) 0.78098(17)
C10 C 0.4314(3) 0.40035(15) 0.76376(17)
C11 C 0.5341(4) 0.37354(18) 0.7172(2)
H11 H 0.5226 0.3250 0.6964
C12 C 0.6531(4) 0.4179(2) 0.7015(2)
H12 H 0.7201 0.3994 0.6699
C13 C 0.6715(4) 0.4893(2) 0.7328(2)
H13 H 0.7528 0.5189 0.7236
C14 C 0.5691(4) 0.51740(18) 0.7781(2)
H14 H 0.5817 0.5662 0.7981
C15 C 0.4473(3) 0.47388(15) 0.79433(17)
C16 C 0.3490(3) 0.50494(15) 0.84949(17)
C17 C 0.3339(4) 0.46496(17) 0.92179(19)
H15 H 0.3793 0.4179 0.9322
C18 C 0.2531(5) 0.4938(2) 0.9781(2)
H16 H 0.2425 0.4659 1.0249
C19 C 0.1889(5) 0.5637(2) 0.9645(2)
H17 H 0.1351 0.5834 1.0024
C20 C 0.2040(5) 0.60497(19) 0.8946(2)
H18 H 0.1615 0.6527 0.8863
C21 C 0.2815(3) 0.57618(15) 0.83676(17)
C22 C 0.2822(3) 0.62358(15) 0.75948(18)
N1 N 0.2424(3) 0.26251(13) 0.96545(14)
N2 N 0.3718(3) 0.28605(15) 1.09724(15)
H19 H 0.4479 0.2889 1.1429
N3 N -0.0259(2) 0.20308(13) 0.84973(13)
N4 N -0.2186(3) 0.15028(15) 0.89015(16)
H20 H -0.2689 0.1201 0.9152
O1 O 0.1663(2) 0.36111(11) 0.75780(13)
O2 O 0.3644(2) 0.28816(10) 0.82080(11)
O4 O 0.2146(3) 0.60283(11) 0.68615(13)
O6 O 0.3503(2) 0.68677(10) 0.77385(11)
Cu1 Cu 0.18444(3) 0.234302(17) 0.841723(19)
O6A O 0.1497(2) 0.18677(10) 0.72615(11)
Cu1A Cu 0.31556(3) 0.734302(17) 0.658277(19)
O3 O -0.3240(3) 0.03831(16) 0.9770(2)
H21 H -0.343(4) 0.040(2) 1.0252(14)
H22 H -0.387(3) 0.0107(17) 0.9426(16)
O5 O 0.0770(3) 0.46838(15) 0.63200(15)
H23 H 0.098(4) 0.4360(15) 0.6711(19)
H24 H 0.117(5) 0.5101(13) 0.653(2)
loop_
_geom_bond_atom_site_label_1
_geom_bond_atom_site_label_2
_geom_bond_site_symmetry_1
_geom_bond_site_symmetry_2
C1 C2 1_555 1_555
C2 H1 1_555 1_555
H2 C2 1_555 1_555
H3 C2 1_555 1_555
C3 H4 1_555 1_555
C4 C3 1_555 1_555
H5 C4 1_555 1_555
C5 H6 1_555 1_555
C6 C5 1_555 1_555
H7 C6 1_555 1_555
C7 C8 1_555 1_555
C8 H8 1_555 1_555
H9 C8 1_555 1_555
H10 C8 1_555 1_555
C9 C10 1_555 1_555
C10 C11 1_555 1_555
C11 H11 1_555 1_555
C12 C11 1_555 1_555
H12 C12 1_555 1_555
C13 C12 1_555 1_555
H13 C13 1_555 1_555
C14 C13 1_555 1_555
H14 C14 1_555 1_555
C15 C10 1_555 1_555
C16 C15 1_555 1_555
C17 C16 1_555 1_555
H15 C17 1_555 1_555
C18 C17 1_555 1_555
H16 C18 1_555 1_555
C19 C18 1_555 1_555
H17 C19 1_555 1_555
C20 C19 1_555 1_555
H18 C20 1_555 1_555
C21 C16 1_555 1_555
C22 C21 1_555 1_555
N1 C5 1_555 1_555
N2 C6 1_555 1_555
H19 N2 1_555 1_555
N3 C1 1_555 1_555
N4 C1 1_555 1_555
H20 N4 1_555 1_555
O1 C9 1_555 1_555
O2 C9 1_555 1_555
O3 H21 1_555 1_555
O4 C22 1_555 1_555
O5 H23 1_555 1_555
O6 C22 1_555 1_555
Cu1 N1 1_555 1_555
H22 O3 1_555 1_555
H24 O5 1_555 1_555
O6A Cu1 1_555 1_555
Cu1A O6 1_555 1_555
C3 N4 1_555 1_555
C4 N3 1_555 1_555
C7 N1 1_555 1_555
C7 N2 1_555 1_555
C14 C15 1_555 1_555
C20 C21 1_555 1_555
N3 Cu1 1_555 1_555
O2 Cu1 1_555 1_555

#END
