
#######################################################################
#
#                 Cambridge Crystallographic Data Centre
#                                CCDC 
#
#######################################################################
#
# If this CIF has been generated from an entry in the Cambridge 
# Structural Database, then it will include bibliographic, chemical, 
# crystal, experimental, refinement or atomic coordinate data resulting 
# from the CCDC's data processing and validation procedures.
#
#######################################################################

data_SIMZUL
_symmetry_cell_setting           orthorhombic
_symmetry_space_group_name_H-M   'P c a 21'
_symmetry_Int_Tables_number      29
_space_group_name_Hall           'P 2c -2ac'
loop_
_symmetry_equiv_pos_site_id
_symmetry_equiv_pos_as_xyz
1 x,y,z
2 -x,-y,1/2+z
3 1/2+x,-y,z
4 1/2-x,y,1/2+z
_cell_length_a                   19.6653(18)
_cell_length_b                   11.3358(11)
_cell_length_c                   14.1097(12)
_cell_angle_alpha                90
_cell_angle_beta                 90
_cell_angle_gamma                90
_cell_volume                     3145.36
loop_
_atom_site_label
_atom_site_type_symbol
_atom_site_fract_x
_atom_site_fract_y
_atom_site_fract_z
Zn1 Zn 0.86766(6) 0.80805(11) 0.36820(12)
Cl1 Cl 0.90873(16) 0.6272(3) 0.3579(3)
Cl2 Cl 0.85698(16) 0.9052(3) 0.5061(2)
N1 N 0.4225(5) 0.4331(8) 0.0631(8)
N2 N 0.5687(4) 0.8122(9) 0.2205(7)
N3 N 0.3334(5) 0.5318(9) 0.1335(8)
N4 N 0.2504(6) 0.6399(11) 0.2130(11)
N5 N 0.1881(8) 0.6900(16) 0.2225(15)
N6 N 0.4036(5) 0.2300(8) 0.0550(7)
N7 N 0.3791(5) 0.0313(7) 0.0502(7)
N8 N 0.3957(6) -0.0804(9) 0.0282(8)
N9 N 0.7723(5) 0.8119(8) 0.3153(6)
N10 N 0.4282(5) 1.0812(9) 0.2924(7)
C1 C 0.4689(6) 0.5226(10) 0.0985(10)
C2 C 0.4729(6) 0.6270(10) 0.0505(8)
H1 H 0.4512 0.6351 -0.0077
C3 C 0.5090(6) 0.7207(10) 0.0880(8)
H2 H 0.5124 0.7913 0.0547
C4 C 0.5400(6) 0.7087(10) 0.1750(9)
C5 C 0.5388(6) 0.6012(11) 0.2212(9)
H3 H 0.5621 0.5916 0.2780
C6 C 0.5027(8) 0.5081(11) 0.1827(10)
H4 H 0.5014 0.4358 0.2138
C7 C 0.3524(6) 0.4579(10) 0.0643(11)
C8 C 0.3081(8) 0.4157(12) -0.0048(12)
H5 H 0.3229 0.3642 -0.0518
C9 C 0.2415(9) 0.4533(13) -0.0008(16)
H6 H 0.2109 0.4278 -0.0467
C10 C 0.2185(8) 0.5296(15) 0.0716(16)
H7 H 0.1737 0.5556 0.0756
C11 C 0.2670(8) 0.5621(12) 0.1349(12)
C12 C 0.1915(14) 0.749(2) 0.302(2)
H8 H 0.1557 0.7946 0.3248
C13 C 0.2535(13) 0.7389(16) 0.3490(19)
H9 H 0.2672 0.7720 0.4062
C14 C 0.2900(10) 0.6650(15) 0.2871(14)
H10 H 0.3342 0.6381 0.2963
C15 C 0.4482(7) 0.3199(11) 0.0455(11)
C16 C 0.5154(7) 0.3029(12) 0.0181(10)
H11 H 0.5450 0.3662 0.0111
C17 C 0.5363(7) 0.1900(12) 0.0018(11)
H12 H 0.5808 0.1765 -0.0174
C18 C 0.4935(7) 0.0966(13) 0.0129(10)
H13 H 0.5083 0.0192 0.0059
C19 C 0.4269(6) 0.1231(10) 0.0351(8)
C20 C 0.3402(7) -0.1431(12) 0.0528(11)
H14 H 0.3367 -0.2245 0.0463
C21 C 0.2883(7) -0.0711(12) 0.0893(10)
H15 H 0.2459 -0.0938 0.1118
C22 C 0.3144(7) 0.0388(12) 0.0841(10)
H16 H 0.2919 0.1080 0.1008
C23 C 0.7258(5) 0.8864(9) 0.3494(8)
H17 H 0.7399 0.9402 0.3951
C24 C 0.6592(5) 0.8896(11) 0.3221(8)
H18 H 0.6292 0.9413 0.3517
C25 C 0.6354(5) 0.8136(10) 0.2481(7)
C26 C 0.6838(6) 0.7377(10) 0.2128(8)
H19 H 0.6714 0.6851 0.1653
C27 C 0.7497(5) 0.7367(9) 0.2450(9)
H20 H 0.7802 0.6834 0.2185
C28 C 0.4103(6) 0.9641(11) 0.2891(9)
H21 H 0.3664 0.9431 0.3068
C29 C 0.4547(6) 0.8757(10) 0.2608(9)
H22 H 0.4394 0.7985 0.2546
C30 C 0.5220(5) 0.9032(10) 0.2417(8)
C31 C 0.5402(6) 1.0221(10) 0.2386(9)
H23 H 0.5829 1.0454 0.2173
C32 C 0.4923(6) 1.1050(10) 0.2683(8)
H24 H 0.5062 1.1833 0.2716
Zn1B Zn 0.36766(6) 1.19195(11) 0.36820(12)
N10B N 0.9282(5) 0.9188(9) 0.2924(7)
loop_
_geom_bond_atom_site_label_1
_geom_bond_atom_site_label_2
_geom_bond_site_symmetry_1
_geom_bond_site_symmetry_2
Zn1 Cl1 1_555 1_555
Cl2 Zn1 1_555 1_555
N1 C1 1_555 1_555
N2 C4 1_555 1_555
N3 C7 1_555 1_555
N4 N5 1_555 1_555
N5 C12 1_555 1_555
N6 C15 1_555 1_555
N7 N8 1_555 1_555
N8 C20 1_555 1_555
N9 Zn1 1_555 1_555
N10 C28 1_555 1_555
C1 C2 1_555 1_555
C2 H1 1_555 1_555
C3 C2 1_555 1_555
H2 C3 1_555 1_555
C4 C3 1_555 1_555
C5 C4 1_555 1_555
H3 C5 1_555 1_555
C6 C1 1_555 1_555
H4 C6 1_555 1_555
C7 N1 1_555 1_555
C8 C7 1_555 1_555
H5 C8 1_555 1_555
C9 C8 1_555 1_555
H6 C9 1_555 1_555
C10 C9 1_555 1_555
H7 C10 1_555 1_555
C11 N3 1_555 1_555
C12 H8 1_555 1_555
C13 C12 1_555 1_555
H9 C13 1_555 1_555
C14 N4 1_555 1_555
H10 C14 1_555 1_555
C15 N1 1_555 1_555
C16 C15 1_555 1_555
H11 C16 1_555 1_555
C17 C16 1_555 1_555
H12 C17 1_555 1_555
C18 C17 1_555 1_555
H13 C18 1_555 1_555
C19 N6 1_555 1_555
C20 H14 1_555 1_555
C21 C20 1_555 1_555
H15 C21 1_555 1_555
C22 N7 1_555 1_555
H16 C22 1_555 1_555
C23 N9 1_555 1_555
H17 C23 1_555 1_555
C24 C23 1_555 1_555
H18 C24 1_555 1_555
C25 N2 1_555 1_555
C26 C25 1_555 1_555
H19 C26 1_555 1_555
C27 N9 1_555 1_555
H20 C27 1_555 1_555
C28 H21 1_555 1_555
C29 C28 1_555 1_555
H22 C29 1_555 1_555
C30 N2 1_555 1_555
C31 C30 1_555 1_555
H23 C31 1_555 1_555
C32 N10 1_555 1_555
H24 C32 1_555 1_555
Zn1B N10 1_555 1_555
N10B Zn1 1_555 1_555
N4 C11 1_555 1_555
N7 C19 1_555 1_555
C5 C6 1_555 1_555
C10 C11 1_555 1_555
C13 C14 1_555 1_555
C18 C19 1_555 1_555
C21 C22 1_555 1_555
C24 C25 1_555 1_555
C26 C27 1_555 1_555
C29 C30 1_555 1_555
C31 C32 1_555 1_555

#END
