
#######################################################################
#
#                 Cambridge Crystallographic Data Centre
#                                CCDC 
#
#######################################################################
#
# If this CIF has been generated from an entry in the Cambridge 
# Structural Database, then it will include bibliographic, chemical, 
# crystal, experimental, refinement or atomic coordinate data resulting 
# from the CCDC's data processing and validation procedures.
#
#######################################################################

data_SIMZOD
_symmetry_cell_setting           triclinic
_symmetry_space_group_name_H-M   'P 1'
_symmetry_Int_Tables_number      1
_space_group_name_Hall           'P 1'
loop_
_symmetry_equiv_pos_site_id
_symmetry_equiv_pos_as_xyz
1 x,y,z
_cell_length_a                   4.998(1)
_cell_length_b                   5.345(1)
_cell_length_c                   6.784(1)
_cell_angle_alpha                90.18(1)
_cell_angle_beta                 103.15(1)
_cell_angle_gamma                98.75(1)
_cell_volume                     174.289
loop_
_atom_site_label
_atom_site_type_symbol
_atom_site_fract_x
_atom_site_fract_y
_atom_site_fract_z
O1 O 0.49960 0.81290 0.79300
O2 O 0.7877(4) 0.8650(3) 1.0998(2)
O3 O -0.1371(4) 1.3822(4) 0.7422(3)
O4 O 0.3444(3) 1.5458(3) 1.3937(2)
N1 N 0.1108(4) 1.4676(4) 1.0658(3)
N2 N 0.2179(4) 1.1672(3) 0.8631(3)
C1 C 0.5862(5) 0.9119(4) 0.9665(3)
C2 C 0.4265(4) 1.1144(4) 1.0190(3)
C3 C 0.4783(4) 1.2363(4) 1.2011(3)
C4 C 0.0526(4) 1.3415(4) 0.8804(3)
C5 C 0.3137(4) 1.4239(4) 1.2318(3)
O5 O 0.9545(4) 0.8390(3) 0.5045(3)
Li1 Li 0.6616(7) 0.6387(6) 0.6206(5)
H1 H -0.00139 1.59749 1.08308
H2 H 0.20010 1.07400 0.75410
H3 H 0.60850 1.18290 1.30700
H4 H 1.07810 0.74260 0.50080
Li1_2 Li -0.3384(7) 1.6387(6) 0.6206(5)
Li1_3 Li 0.6616(7) 1.6387(6) 1.6206(5)
O3_2 O 0.8629(4) 0.3822(4) 0.7422(3)
O4_2 O 0.3444(3) 0.5458(3) 0.3937(2)
loop_
_geom_bond_atom_site_label_1
_geom_bond_atom_site_label_2
_geom_bond_site_symmetry_1
_geom_bond_site_symmetry_2
O1 C1 1_555 1_555
O2 C1 1_555 1_555
O3 C4 1_555 1_555
O4 C5 1_555 1_555
N1 C4 1_555 1_555
N2 C2 1_555 1_555
C1 C2 1_555 1_555
C2 C3 1_555 1_555
C3 C5 1_555 1_555
C4 N2 1_555 1_555
C5 N1 1_555 1_555
O5 Li1 1_555 1_555
Li1 O1 1_555 1_555
H1 N1 1_555 1_555
H2 N2 1_555 1_555
H3 C3 1_555 1_555
H4 O5 1_555 1_555
Li1_2 O3 1_555 1_555
Li1_3 O4 1_555 1_555
O3_2 Li1 1_555 1_555
O4_2 Li1 1_555 1_555

#END
