
#######################################################################
#
#                 Cambridge Crystallographic Data Centre
#                                CCDC 
#
#######################################################################
#
# If this CIF has been generated from an entry in the Cambridge 
# Structural Database, then it will include bibliographic, chemical, 
# crystal, experimental, refinement or atomic coordinate data resulting 
# from the CCDC's data processing and validation procedures.
#
#######################################################################

data_SIMZOD01
_symmetry_cell_setting           triclinic
_symmetry_space_group_name_H-M   'P 1'
_symmetry_Int_Tables_number      1
_space_group_name_Hall           'P 1'
loop_
_symmetry_equiv_pos_site_id
_symmetry_equiv_pos_as_xyz
1 x,y,z
_cell_length_a                   4.9745(2)
_cell_length_b                   5.3035(2)
_cell_length_c                   6.7548(2)
_cell_angle_alpha                89.733(2)
_cell_angle_beta                 102.717(2)
_cell_angle_gamma                99.6012(13)
_cell_volume                     171.305
loop_
_atom_site_label
_atom_site_type_symbol
_atom_site_fract_x
_atom_site_fract_y
_atom_site_fract_z
O1 O 0.4976(3) 0.8088(2) 0.7934(2)
O2 O 0.7888(3) 0.8660(2) 1.10006(19)
O3 O -0.1398(3) 1.3798(3) 0.7411(2)
O4 O 0.3434(3) 1.5475(3) 1.3940(2)
O5 O 0.9590(3) 0.8413(3) 0.50562(19)
N1 N 0.1107(3) 1.4682(3) 1.0664(2)
N2 N 0.2182(3) 1.1671(3) 0.8621(2)
C1 C 0.5855(3) 0.9115(3) 0.9669(3)
C2 C 0.4264(3) 1.1143(3) 1.0188(3)
C3 C 0.4784(4) 1.2366(3) 1.2017(3)
C4 C 0.0518(3) 1.3416(3) 0.8802(3)
C5 C 0.3124(3) 1.4253(3) 1.2317(2)
Li1 Li 0.6638(7) 0.6384(6) 0.6212(5)
H1 H 0.0108 1.5639 1.0932
H2 H 0.1921 1.0859 0.7588
H3 H 0.6112 1.1938 1.3084
H4 H 1.0759 0.7589 0.4932
H5 H 0.8892 0.8639 0.3891
Li1_2 Li -0.3362(7) 1.6384(6) 0.6212(5)
Li1_3 Li 0.6638(7) 1.6384(6) 1.6212(5)
O3_2 O 0.8602(3) 0.3798(3) 0.7411(2)
O4_2 O 0.3434(3) 0.5475(3) 0.3940(2)
loop_
_geom_bond_atom_site_label_1
_geom_bond_atom_site_label_2
_geom_bond_site_symmetry_1
_geom_bond_site_symmetry_2
O1 C1 1_555 1_555
O2 C1 1_555 1_555
O3 C4 1_555 1_555
O4 C5 1_555 1_555
O5 Li1 1_555 1_555
N1 C4 1_555 1_555
N2 C2 1_555 1_555
C1 C2 1_555 1_555
C2 C3 1_555 1_555
C3 C5 1_555 1_555
C4 N2 1_555 1_555
C5 N1 1_555 1_555
Li1 O1 1_555 1_555
H1 N1 1_555 1_555
H2 N2 1_555 1_555
H3 C3 1_555 1_555
H4 O5 1_555 1_555
H5 O5 1_555 1_555
Li1_2 O3 1_555 1_555
Li1_3 O4 1_555 1_555
O3_2 Li1 1_555 1_555
O4_2 Li1 1_555 1_555

#END
