
#######################################################################
#
#                 Cambridge Crystallographic Data Centre
#                                CCDC 
#
#######################################################################
#
# If this CIF has been generated from an entry in the Cambridge 
# Structural Database, then it will include bibliographic, chemical, 
# crystal, experimental, refinement or atomic coordinate data resulting 
# from the CCDC's data processing and validation procedures.
#
#######################################################################

data_SINBEY
_symmetry_cell_setting           monoclinic
_symmetry_space_group_name_H-M   'P 21/n'
_symmetry_Int_Tables_number      14
_space_group_name_Hall           '-P 2yn'
loop_
_symmetry_equiv_pos_site_id
_symmetry_equiv_pos_as_xyz
1 x,y,z
2 1/2-x,1/2+y,1/2-z
3 -x,-y,-z
4 1/2+x,1/2-y,1/2+z
_cell_length_a                   10.5859(7)
_cell_length_b                   16.9380(14)
_cell_length_c                   19.398(2)
_cell_angle_alpha                90
_cell_angle_beta                 96.5450(10)
_cell_angle_gamma                90
_cell_volume                     3455.47
loop_
_atom_site_label
_atom_site_type_symbol
_atom_site_fract_x
_atom_site_fract_y
_atom_site_fract_z
Zn1 Zn 0.56155(10) 0.32834(7) 0.20157(7)
I1 I 0.61494(10) 0.39491(6) 0.09010(6)
I2 I 0.72111(9) 0.23891(7) 0.27076(6)
N1 N 0.7812(8) 0.6958(5) 0.6011(4)
N2 N 0.4309(7) 0.6289(5) 0.3663(4)
N3 N 0.8555(7) 0.5689(5) 0.5853(5)
N4 N 0.9154(8) 0.4424(5) 0.5593(6)
N5 N 0.9875(11) 0.3763(7) 0.5732(7)
N6 N 0.7222(7) 0.8270(5) 0.6078(4)
N7 N 0.6448(10) 0.9544(6) 0.6051(5)
N8 N 0.6605(13) 1.0336(7) 0.6102(7)
N9 N 0.5141(7) 0.4208(5) 0.2632(4)
N10 N 0.1118(7) 0.7729(5) 0.3163(5)
C1 C 0.6881(8) 0.6811(6) 0.5412(5)
C2 C 0.5901(9) 0.6290(7) 0.5465(5)
H1 H 0.5803 0.6056 0.5889
C3 C 0.5064(9) 0.6117(6) 0.4888(5)
H2 H 0.4427 0.5743 0.4914
C4 C 0.5177(8) 0.6499(5) 0.4276(5)
C5 C 0.6131(9) 0.7055(6) 0.4223(5)
H3 H 0.6195 0.7319 0.3808
C6 C 0.6975(9) 0.7202(6) 0.4803(5)
H4 H 0.7618 0.7572 0.4780
C7 C 0.8570(8) 0.6323(7) 0.6264(5)
C8 C 0.9259(11) 0.6326(8) 0.6928(6)
H5 H 0.9242 0.6758 0.7224
C9 C 0.9970(12) 0.5654(10) 0.7124(7)
H6 H 1.0459 0.5645 0.7553
C10 C 0.9969(11) 0.5005(9) 0.6702(8)
H7 H 1.0438 0.4556 0.6837
C11 C 0.9246(9) 0.5051(7) 0.6076(6)
C12 C 0.9560(14) 0.3315(9) 0.5192(10)
H8 H 0.9876 0.2808 0.5146
C13 C 0.8708(13) 0.3675(8) 0.4695(8)
H9 H 0.8383 0.3468 0.4267
C14 C 0.8435(11) 0.4406(8) 0.4966(7)
H10 H 0.7889 0.4793 0.4765
C15 C 0.8182(9) 0.7756(6) 0.6133(5)
C16 C 0.9456(10) 0.8001(7) 0.6258(6)
H11 H 1.0115 0.7635 0.6309
C17 C 0.9695(12) 0.8799(8) 0.6302(6)
H12 H 1.0528 0.8980 0.6383
C18 C 0.8726(12) 0.9321(8) 0.6228(6)
H13 H 0.8880 0.9861 0.6257
C19 C 0.7511(11) 0.9036(7) 0.6109(6)
C20 C 0.547(2) 1.0598(11) 0.6002(9)
H14 H 0.5278 1.1134 0.5997
C21 C 0.4542(18) 1.0017(13) 0.5903(10)
H15 H 0.3665 1.0080 0.5824
C22 C 0.5218(14) 0.9337(9) 0.5947(8)
H16 H 0.4893 0.8827 0.5913
C23 C 0.6061(10) 0.4669(7) 0.2963(7)
H17 H 0.6902 0.4511 0.2961
C24 C 0.5824(9) 0.5358(7) 0.3301(7)
H18 H 0.6489 0.5658 0.3519
C25 C 0.4554(8) 0.5597(5) 0.3312(5)
C26 C 0.3618(8) 0.5111(5) 0.2997(5)
H19 H 0.2767 0.5240 0.3010
C27 C 0.3938(9) 0.4440(6) 0.2665(5)
H20 H 0.3286 0.4127 0.2450
C28 C 0.1494(10) 0.7229(6) 0.2698(5)
H21 H 0.1024 0.7200 0.2263
C29 C 0.2538(9) 0.6755(6) 0.2829(5)
H22 H 0.2771 0.6420 0.2485
C30 C 0.3265(8) 0.6772(6) 0.3486(5)
C31 C 0.2908(9) 0.7341(6) 0.3947(6)
H23 H 0.3385 0.7408 0.4376
C32 C 0.1847(9) 0.7803(6) 0.3766(6)
H24 H 0.1632 0.8182 0.4079
Zn1A Zn -0.06155(10) 0.82834(7) 0.29843(7)
N10A N 0.3882(7) 0.2729(5) 0.1837(5)
loop_
_geom_bond_atom_site_label_1
_geom_bond_atom_site_label_2
_geom_bond_site_symmetry_1
_geom_bond_site_symmetry_2
Zn1 I1 1_555 1_555
I2 Zn1 1_555 1_555
N1 C1 1_555 1_555
N2 C4 1_555 1_555
N3 C7 1_555 1_555
N4 N5 1_555 1_555
N5 C12 1_555 1_555
N6 C15 1_555 1_555
N7 N8 1_555 1_555
N8 C20 1_555 1_555
N9 Zn1 1_555 1_555
N10 C28 1_555 1_555
C1 C2 1_555 1_555
C2 H1 1_555 1_555
C3 C2 1_555 1_555
H2 C3 1_555 1_555
C4 C3 1_555 1_555
C5 C4 1_555 1_555
H3 C5 1_555 1_555
C6 C1 1_555 1_555
H4 C6 1_555 1_555
C7 N1 1_555 1_555
C8 C7 1_555 1_555
H5 C8 1_555 1_555
C9 C8 1_555 1_555
H6 C9 1_555 1_555
C10 C9 1_555 1_555
H7 C10 1_555 1_555
C11 N3 1_555 1_555
C12 H8 1_555 1_555
C13 C12 1_555 1_555
H9 C13 1_555 1_555
C14 N4 1_555 1_555
H10 C14 1_555 1_555
C15 N1 1_555 1_555
C16 C15 1_555 1_555
H11 C16 1_555 1_555
C17 C16 1_555 1_555
H12 C17 1_555 1_555
C18 C17 1_555 1_555
H13 C18 1_555 1_555
C19 N6 1_555 1_555
C20 H14 1_555 1_555
C21 C20 1_555 1_555
H15 C21 1_555 1_555
C22 N7 1_555 1_555
H16 C22 1_555 1_555
C23 N9 1_555 1_555
H17 C23 1_555 1_555
C24 C23 1_555 1_555
H18 C24 1_555 1_555
C25 N2 1_555 1_555
C26 C25 1_555 1_555
H19 C26 1_555 1_555
C27 N9 1_555 1_555
H20 C27 1_555 1_555
C28 H21 1_555 1_555
C29 C28 1_555 1_555
H22 C29 1_555 1_555
C30 N2 1_555 1_555
C31 C30 1_555 1_555
H23 C31 1_555 1_555
C32 N10 1_555 1_555
H24 C32 1_555 1_555
Zn1A N10 1_555 1_555
N10A Zn1 1_555 1_555
N4 C11 1_555 1_555
N7 C19 1_555 1_555
C5 C6 1_555 1_555
C10 C11 1_555 1_555
C13 C14 1_555 1_555
C18 C19 1_555 1_555
C21 C22 1_555 1_555
C24 C25 1_555 1_555
C26 C27 1_555 1_555
C29 C30 1_555 1_555
C31 C32 1_555 1_555

#END
