
#######################################################################
#
#                 Cambridge Crystallographic Data Centre
#                                CCDC 
#
#######################################################################
#
# If this CIF has been generated from an entry in the Cambridge 
# Structural Database, then it will include bibliographic, chemical, 
# crystal, experimental, refinement or atomic coordinate data resulting 
# from the CCDC's data processing and validation procedures.
#
#######################################################################

data_SINBIC
_symmetry_cell_setting           monoclinic
_symmetry_space_group_name_H-M   'P 21/c'
_symmetry_Int_Tables_number      14
_space_group_name_Hall           '-P 2ybc'
loop_
_symmetry_equiv_pos_site_id
_symmetry_equiv_pos_as_xyz
1 x,y,z
2 -x,1/2+y,1/2-z
3 -x,-y,-z
4 x,1/2-y,1/2+z
_cell_length_a                   7.8210(5)
_cell_length_b                   44.970(3)
_cell_length_c                   11.0991(9)
_cell_angle_alpha                90
_cell_angle_beta                 134.490(2)
_cell_angle_gamma                90
_cell_volume                     2784.77
loop_
_atom_site_label
_atom_site_type_symbol
_atom_site_fract_x
_atom_site_fract_y
_atom_site_fract_z
Cd1 Cd 1.5000 0.5000 0.0000
Cl1 Cl 1.0491(3) 0.49962(5) -0.1964(2)
N1 N 0.5864(10) 0.66077(12) -0.0036(7)
N2 N 1.3174(10) 0.57464(12) 0.4122(6)
N3 N 0.3252(10) 0.69506(13) -0.0396(6)
N4 N 0.0650(10) 0.72982(13) -0.0886(7)
N5 N -0.0399(12) 0.74390(16) -0.0464(8)
N6 N 0.6928(9) 0.65633(11) -0.1507(6)
N7 N 0.8253(10) 0.64800(14) -0.2782(7)
N8 N 0.8527(14) 0.65549(18) -0.3821(8)
N9 N 1.5320(11) 0.53467(14) 0.1910(7)
N10 N 1.4627(10) 0.53820(12) 0.8271(6)
C1 C 0.7705(12) 0.63836(15) 0.1054(8)
C2 C 0.7226(12) 0.60866(15) 0.0556(8)
H1 H 0.5724 0.6031 -0.0470
C3 C 0.8991(12) 0.58768(15) 0.1590(8)
H2 H 0.8674 0.5677 0.1277
C4 C 1.1234(12) 0.59624(14) 0.3096(7)
C5 C 1.1667(12) 0.62535(15) 0.3611(8)
H3 H 1.3158 0.6310 0.4645
C6 C 0.9874(13) 0.64622(15) 0.2586(8)
H4 H 1.0152 0.6659 0.2946
C7 C 0.4653(12) 0.67114(14) 0.0408(8)
C8 C 0.4952(13) 0.65626(17) 0.1652(9)
H5 H 0.5881 0.6392 0.2170
C9 C 0.3802(14) 0.66813(17) 0.2078(9)
H6 H 0.4029 0.6593 0.2938
C10 C 0.2357(13) 0.69225(18) 0.1284(9)
H7 H 0.1566 0.7001 0.1559
C11 C 0.2138(11) 0.70449(15) 0.0039(7)
C12 C -0.1720(16) 0.7649(2) -0.1640(11)
H8 H -0.2669 0.7782 -0.1681
C13 C -0.1543(16) 0.76488(19) -0.2773(11)
H9 H -0.2297 0.7777 -0.3684
C14 C -0.0013(14) 0.74199(16) -0.2284(9)
H10 H 0.0476 0.7360 -0.2805
C15 C 0.5614(12) 0.67151(16) -0.1351(8)
C16 C 0.4224(17) 0.69611(19) -0.2387(11)
H11 H 0.3303 0.7065 -0.2285
C17 C 0.4277(17) 0.70416(18) -0.3548(11)
H12 H 0.3341 0.7201 -0.4258
C18 C 0.5623(14) 0.68996(16) -0.3708(9)
H13 H 0.5703 0.6961 -0.4467
C19 C 0.6891(12) 0.66533(16) -0.2656(8)
C20 C 0.9706(17) 0.6331(2) -0.3710(11)
H14 H 1.0131 0.6318 -0.4308
C21 C 1.0231(17) 0.6119(2) -0.2616(11)
H15 H 1.1094 0.5945 -0.2318
C22 C 0.9259(16) 0.6210(2) -0.2049(10)
H16 H 0.9271 0.6110 -0.1311
C23 C 1.4077(14) 0.56058(18) 0.1351(9)
H17 H 1.3629 0.5693 0.0404
C24 C 1.3436(14) 0.57473(17) 0.2071(9)
H18 H 1.2594 0.5926 0.1621
C25 C 1.4044(12) 0.56243(14) 0.3481(7)
C26 C 1.5384(11) 0.53644(14) 0.4092(7)
H19 H 1.5849 0.5270 0.5030
C27 C 1.6020(12) 0.52469(15) 0.3314(8)
H20 H 1.7032 0.5083 0.3820
C28 C 1.6366(12) 0.54136(14) 0.8286(7)
H21 H 1.7897 0.5346 0.9225
C29 C 1.5996(12) 0.55398(14) 0.6999(7)
H22 H 1.7272 0.5565 0.7099
C30 C 1.3701(12) 0.56308(14) 0.5536(8)
C31 C 1.1901(12) 0.56066(14) 0.5522(8)
H23 H 1.0359 0.5676 0.4608
C32 C 1.2464(13) 0.54785(15) 0.6889(8)
H24 H 1.1236 0.5458 0.6843
Cl1B Cl 1.9509(3) 0.50038(5) 0.1964(2)
N1B N 2.4136(10) 0.33923(12) 0.0036(7)
N2B N 1.6826(10) 0.42536(12) -0.4122(6)
N3B N 2.6748(10) 0.30494(13) 0.0396(6)
N4B N 2.9350(10) 0.27018(13) 0.0886(7)
N5B N 3.0399(12) 0.25610(16) 0.0464(8)
N6B N 2.3072(9) 0.34367(11) 0.1507(6)
N7B N 2.1747(10) 0.35200(14) 0.2782(7)
N8B N 2.1473(14) 0.34451(18) 0.3821(8)
N9B N 1.4680(11) 0.46533(14) -0.1910(7)
N10B N 1.5373(10) 0.46180(12) -0.8271(6)
C1B C 2.2295(12) 0.36164(15) -0.1054(8)
C2B C 2.2774(12) 0.39134(15) -0.0556(8)
H1B H 2.4276 0.3969 0.0470
C3B C 2.1009(12) 0.41232(15) -0.1590(8)
H2B H 2.1326 0.4323 -0.1277
C4B C 1.8766(12) 0.40376(14) -0.3096(7)
C5B C 1.8333(12) 0.37465(15) -0.3611(8)
H3B H 1.6842 0.3690 -0.4645
C6B C 2.0126(13) 0.35378(15) -0.2586(8)
H4B H 1.9848 0.3341 -0.2946
C7B C 2.5347(12) 0.32886(14) -0.0408(8)
C8B C 2.5048(13) 0.34374(17) -0.1652(9)
H5B H 2.4119 0.3608 -0.2170
C9B C 2.6198(14) 0.33187(17) -0.2078(9)
H6B H 2.5971 0.3407 -0.2938
C10B C 2.7643(13) 0.30775(18) -0.1284(9)
H7B H 2.8434 0.2999 -0.1559
C11B C 2.7862(11) 0.29551(15) -0.0039(7)
C12B C 3.1720(16) 0.2351(2) 0.1640(11)
H8B H 3.2669 0.2218 0.1681
C13B C 3.1543(16) 0.23512(19) 0.2773(11)
H9B H 3.2297 0.2223 0.3684
C14B C 3.0013(14) 0.25801(16) 0.2284(9)
H10B H 2.9524 0.2640 0.2805
C15B C 2.4386(12) 0.32849(16) 0.1351(8)
C16B C 2.5776(17) 0.30389(19) 0.2387(11)
H11B H 2.6697 0.2935 0.2285
C17B C 2.5723(17) 0.29584(18) 0.3548(11)
H12B H 2.6659 0.2799 0.4258
C18B C 2.4377(14) 0.31004(16) 0.3708(9)
H13B H 2.4297 0.3039 0.4467
C19B C 2.3109(12) 0.33467(16) 0.2656(8)
C20B C 2.0294(17) 0.3669(2) 0.3710(11)
H14B H 1.9869 0.3682 0.4308
C21B C 1.9769(17) 0.3881(2) 0.2616(11)
H15B H 1.8906 0.4055 0.2318
C22B C 2.0741(16) 0.3790(2) 0.2049(10)
H16B H 2.0729 0.3890 0.1311
C23B C 1.5923(14) 0.43942(18) -0.1351(9)
H17B H 1.6371 0.4307 -0.0404
C24B C 1.6564(14) 0.42527(17) -0.2071(9)
H18B H 1.7406 0.4074 -0.1621
C25B C 1.5956(12) 0.43757(14) -0.3481(7)
C26B C 1.4616(11) 0.46356(14) -0.4092(7)
H19B H 1.4151 0.4730 -0.5030
C27B C 1.3980(12) 0.47531(15) -0.3314(8)
H20B H 1.2968 0.4917 -0.3820
C28B C 1.3634(12) 0.45864(14) -0.8286(7)
H21B H 1.2103 0.4654 -0.9225
C29B C 1.4004(12) 0.44602(14) -0.6999(7)
H22B H 1.2728 0.4435 -0.7099
C30B C 1.6299(12) 0.43692(14) -0.5536(8)
C31B C 1.8099(12) 0.43934(14) -0.5522(8)
H23B H 1.9641 0.4324 -0.4608
C32B C 1.7536(13) 0.45215(15) -0.6889(8)
H24B H 1.8764 0.4542 -0.6843
Cd1_2 Cd 1.5000 0.5000 -1.0000
Cd1_3 Cd 1.5000 0.5000 1.0000
N10_2 N 1.4627(10) 0.53820(12) -0.1729(6)
N10B_2 N 1.5373(10) 0.46180(12) 0.1729(6)
loop_
_geom_bond_atom_site_label_1
_geom_bond_atom_site_label_2
_geom_bond_site_symmetry_1
_geom_bond_site_symmetry_2
Cd1 Cl1 1_555 1_555
N1 C1 1_555 1_555
N2 C4 1_555 1_555
N3 C7 1_555 1_555
N4 N5 1_555 1_555
N5 C12 1_555 1_555
N6 C15 1_555 1_555
N7 N8 1_555 1_555
N8 C20 1_555 1_555
N9 Cd1 1_555 1_555
N10 C28 1_555 1_555
C1 C2 1_555 1_555
C2 H1 1_555 1_555
C3 C2 1_555 1_555
H2 C3 1_555 1_555
C4 C3 1_555 1_555
C5 C4 1_555 1_555
H3 C5 1_555 1_555
C6 C1 1_555 1_555
H4 C6 1_555 1_555
C7 N1 1_555 1_555
C8 C7 1_555 1_555
H5 C8 1_555 1_555
C9 C8 1_555 1_555
H6 C9 1_555 1_555
C10 C9 1_555 1_555
H7 C10 1_555 1_555
C11 N3 1_555 1_555
C12 H8 1_555 1_555
C13 C12 1_555 1_555
H9 C13 1_555 1_555
C14 N4 1_555 1_555
H10 C14 1_555 1_555
C15 N1 1_555 1_555
C16 C15 1_555 1_555
H11 C16 1_555 1_555
C17 C16 1_555 1_555
H12 C17 1_555 1_555
C18 C17 1_555 1_555
H13 C18 1_555 1_555
C19 N6 1_555 1_555
C20 H14 1_555 1_555
C21 C20 1_555 1_555
H15 C21 1_555 1_555
C22 N7 1_555 1_555
H16 C22 1_555 1_555
C23 N9 1_555 1_555
H17 C23 1_555 1_555
C24 C23 1_555 1_555
H18 C24 1_555 1_555
C25 N2 1_555 1_555
C26 C25 1_555 1_555
H19 C26 1_555 1_555
C27 N9 1_555 1_555
H20 C27 1_555 1_555
C28 H21 1_555 1_555
C29 C28 1_555 1_555
H22 C29 1_555 1_555
C30 N2 1_555 1_555
C31 C30 1_555 1_555
H23 C31 1_555 1_555
C32 N10 1_555 1_555
H24 C32 1_555 1_555
Cl1B Cd1 1_555 1_555
N1B C1B 1_555 1_555
N2B C4B 1_555 1_555
N3B C7B 1_555 1_555
N4B N5B 1_555 1_555
N5B C12B 1_555 1_555
N6B C15B 1_555 1_555
N7B N8B 1_555 1_555
N8B C20B 1_555 1_555
N9B Cd1 1_555 1_555
N10B C28B 1_555 1_555
C1B C2B 1_555 1_555
C2B H1B 1_555 1_555
C3B C2B 1_555 1_555
H2B C3B 1_555 1_555
C4B C3B 1_555 1_555
C5B C4B 1_555 1_555
H3B C5B 1_555 1_555
C6B C1B 1_555 1_555
H4B C6B 1_555 1_555
C7B N1B 1_555 1_555
C8B C7B 1_555 1_555
H5B C8B 1_555 1_555
C9B C8B 1_555 1_555
H6B C9B 1_555 1_555
C10B C9B 1_555 1_555
H7B C10B 1_555 1_555
C11B N3B 1_555 1_555
C12B H8B 1_555 1_555
C13B C12B 1_555 1_555
H9B C13B 1_555 1_555
C14B N4B 1_555 1_555
H10B C14B 1_555 1_555
C15B N1B 1_555 1_555
C16B C15B 1_555 1_555
H11B C16B 1_555 1_555
C17B C16B 1_555 1_555
H12B C17B 1_555 1_555
C18B C17B 1_555 1_555
H13B C18B 1_555 1_555
C19B N6B 1_555 1_555
C20B H14B 1_555 1_555
C21B C20B 1_555 1_555
H15B C21B 1_555 1_555
C22B N7B 1_555 1_555
H16B C22B 1_555 1_555
C23B N9B 1_555 1_555
H17B C23B 1_555 1_555
C24B C23B 1_555 1_555
H18B C24B 1_555 1_555
C25B N2B 1_555 1_555
C26B C25B 1_555 1_555
H19B C26B 1_555 1_555
C27B N9B 1_555 1_555
H20B C27B 1_555 1_555
C28B H21B 1_555 1_555
C29B C28B 1_555 1_555
H22B C29B 1_555 1_555
C30B N2B 1_555 1_555
C31B C30B 1_555 1_555
H23B C31B 1_555 1_555
C32B N10B 1_555 1_555
H24B C32B 1_555 1_555
Cd1_2 N10B 1_555 1_555
Cd1_3 N10 1_555 1_555
N10_2 Cd1 1_555 1_555
N10B_2 Cd1 1_555 1_555
N4 C11 1_555 1_555
N7 C19 1_555 1_555
C5 C6 1_555 1_555
C10 C11 1_555 1_555
C13 C14 1_555 1_555
C18 C19 1_555 1_555
C21 C22 1_555 1_555
C24 C25 1_555 1_555
C26 C27 1_555 1_555
C29 C30 1_555 1_555
C31 C32 1_555 1_555
N4B C11B 1_555 1_555
N7B C19B 1_555 1_555
C5B C6B 1_555 1_555
C10B C11B 1_555 1_555
C13B C14B 1_555 1_555
C18B C19B 1_555 1_555
C21B C22B 1_555 1_555
C24B C25B 1_555 1_555
C26B C27B 1_555 1_555
C29B C30B 1_555 1_555
C31B C32B 1_555 1_555

#END
