
#######################################################################
#
#                 Cambridge Crystallographic Data Centre
#                                CCDC 
#
#######################################################################
#
# If this CIF has been generated from an entry in the Cambridge 
# Structural Database, then it will include bibliographic, chemical, 
# crystal, experimental, refinement or atomic coordinate data resulting 
# from the CCDC's data processing and validation procedures.
#
#######################################################################

data_SINBAU
_symmetry_cell_setting           monoclinic
_symmetry_space_group_name_H-M   'P 21/n'
_symmetry_Int_Tables_number      14
_space_group_name_Hall           '-P 2yn'
loop_
_symmetry_equiv_pos_site_id
_symmetry_equiv_pos_as_xyz
1 x,y,z
2 1/2-x,1/2+y,1/2-z
3 -x,-y,-z
4 1/2+x,1/2-y,1/2+z
_cell_length_a                   10.2118(9)
_cell_length_b                   18.3727(17)
_cell_length_c                   18.2062(16)
_cell_angle_alpha                90
_cell_angle_beta                 96.2340(10)
_cell_angle_gamma                90
_cell_volume                     3395.62
loop_
_atom_site_label
_atom_site_type_symbol
_atom_site_fract_x
_atom_site_fract_y
_atom_site_fract_z
Zn1 Zn 0.44312(14) 0.65703(6) 0.76517(7)
Br1 Br 0.35199(14) 0.61413(7) 0.87115(7)
Br2 Br 0.31878(15) 0.72188(7) 0.66896(9)
N1 N 0.1849(9) 0.2722(4) 0.4050(5)
N2 N 0.5811(9) 0.3589(4) 0.6281(5)
N3 N 0.1169(9) 0.3925(5) 0.4007(5)
N4 N 0.0630(10) 0.5141(5) 0.4039(6)
N5 N -0.0142(11) 0.5723(6) 0.3804(7)
N6 N 0.2474(10) 0.1513(4) 0.4026(5)
N7 N 0.3307(12) 0.0341(5) 0.4029(5)
N8 N 0.3113(14) -0.0404(5) 0.4037(6)
N9 N 0.5004(9) 0.5643(4) 0.7162(4)
N10 N 0.8928(10) 0.2159(4) 0.7015(5)
C1 C 0.2923(12) 0.2916(5) 0.4609(6)
C2 C 0.3884(12) 0.3397(6) 0.4457(6)
H1 H 0.3880 0.3580 0.3980
C3 C 0.4849(11) 0.3613(5) 0.4993(6)
H2 H 0.5490 0.3943 0.4882
C4 C 0.4867(11) 0.3339(5) 0.5699(6)
C5 C 0.3902(11) 0.2835(5) 0.5836(6)
H3 H 0.3919 0.2642 0.6309
C6 C 0.2924(11) 0.2609(5) 0.5305(6)
H4 H 0.2296 0.2269 0.5408
C7 C 0.1110(11) 0.3269(5) 0.3661(6)
C8 C 0.0408(12) 0.3154(6) 0.2997(6)
H5 H 0.0386 0.2695 0.2780
C9 C -0.0278(12) 0.3730(7) 0.2646(7)
H6 H -0.0760 0.3666 0.2187
C10 C -0.0231(13) 0.4403(7) 0.2993(7)
H7 H -0.0703 0.4797 0.2780
C11 C 0.0509(13) 0.4469(6) 0.3639(7)
C12 C 0.0275(17) 0.6211(7) 0.4313(9)
H8 H -0.0072 0.6680 0.4297
C13 C 0.1221(16) 0.6010(7) 0.4858(9)
H9 H 0.1619 0.6278 0.5255
C14 C 0.1428(15) 0.5288(6) 0.4656(8)
H10 H 0.2020 0.4965 0.4906
C15 C 0.1455(14) 0.1987(6) 0.3999(6)
C16 C 0.0144(14) 0.1769(6) 0.3956(7)
H11 H -0.0540 0.2104 0.3943
C17 C -0.0088(15) 0.1033(7) 0.3933(7)
H12 H -0.0954 0.0868 0.3887
C18 C 0.0929(15) 0.0525(7) 0.3975(7)
H13 H 0.0774 0.0026 0.3976
C19 C 0.2183(14) 0.0813(6) 0.4013(6)
C20 C 0.4379(19) -0.0635(8) 0.4046(8)
H14 H 0.4597 -0.1126 0.4057
C21 C 0.5319(16) -0.0099(8) 0.4040(8)
H15 H 0.6224 -0.0155 0.4039
C22 C 0.4605(16) 0.0547(7) 0.4035(7)
H16 H 0.4936 0.1019 0.4037
C23 C 0.4077(12) 0.5211(5) 0.6848(6)
H17 H 0.3211 0.5372 0.6828
C24 C 0.4295(12) 0.4529(5) 0.6541(6)
H18 H 0.3603 0.4256 0.6308
C25 C 0.5579(12) 0.4277(5) 0.6598(6)
C26 C 0.6602(11) 0.4717(5) 0.6916(5)
H19 H 0.7476 0.4571 0.6927
C27 C 0.6273(12) 0.5383(5) 0.7215(6)
H20 H 0.6941 0.5663 0.7462
C28 C 0.8533(12) 0.2701(5) 0.7459(6)
H21 H 0.8961 0.2744 0.7935
C29 C 0.7537(11) 0.3186(5) 0.7240(6)
H22 H 0.7328 0.3555 0.7557
C30 C 0.6849(11) 0.3118(5) 0.6541(6)
C31 C 0.7217(11) 0.2543(5) 0.6089(6)
H23 H 0.6770 0.2465 0.5623
C32 C 0.8268(12) 0.2094(5) 0.6358(6)
H24 H 0.8515 0.1725 0.6051
Zn1A Zn 1.05688(14) 0.15703(6) 0.73483(7)
N10A N 0.6072(10) 0.7159(4) 0.7985(5)
loop_
_geom_bond_atom_site_label_1
_geom_bond_atom_site_label_2
_geom_bond_site_symmetry_1
_geom_bond_site_symmetry_2
Zn1 Br1 1_555 1_555
Br2 Zn1 1_555 1_555
N1 C1 1_555 1_555
N2 C4 1_555 1_555
N3 C7 1_555 1_555
N4 N5 1_555 1_555
N5 C12 1_555 1_555
N6 C15 1_555 1_555
N7 N8 1_555 1_555
N8 C20 1_555 1_555
N9 Zn1 1_555 1_555
N10 C28 1_555 1_555
C1 C2 1_555 1_555
C2 H1 1_555 1_555
C3 C2 1_555 1_555
H2 C3 1_555 1_555
C4 C3 1_555 1_555
C5 C4 1_555 1_555
H3 C5 1_555 1_555
C6 C1 1_555 1_555
H4 C6 1_555 1_555
C7 N1 1_555 1_555
C8 C7 1_555 1_555
H5 C8 1_555 1_555
C9 C8 1_555 1_555
H6 C9 1_555 1_555
C10 C9 1_555 1_555
H7 C10 1_555 1_555
C11 N3 1_555 1_555
C12 H8 1_555 1_555
C13 C12 1_555 1_555
H9 C13 1_555 1_555
C14 N4 1_555 1_555
H10 C14 1_555 1_555
C15 N1 1_555 1_555
C16 C15 1_555 1_555
H11 C16 1_555 1_555
C17 C16 1_555 1_555
H12 C17 1_555 1_555
C18 C17 1_555 1_555
H13 C18 1_555 1_555
C19 N6 1_555 1_555
C20 H14 1_555 1_555
C21 C20 1_555 1_555
H15 C21 1_555 1_555
C22 N7 1_555 1_555
H16 C22 1_555 1_555
C23 N9 1_555 1_555
H17 C23 1_555 1_555
C24 C23 1_555 1_555
H18 C24 1_555 1_555
C25 N2 1_555 1_555
C26 C25 1_555 1_555
H19 C26 1_555 1_555
C27 N9 1_555 1_555
H20 C27 1_555 1_555
C28 H21 1_555 1_555
C29 C28 1_555 1_555
H22 C29 1_555 1_555
C30 N2 1_555 1_555
C31 C30 1_555 1_555
H23 C31 1_555 1_555
C32 N10 1_555 1_555
H24 C32 1_555 1_555
Zn1A N10 1_555 1_555
N10A Zn1 1_555 1_555
N4 C11 1_555 1_555
N7 C19 1_555 1_555
C5 C6 1_555 1_555
C10 C11 1_555 1_555
C13 C14 1_555 1_555
C18 C19 1_555 1_555
C21 C22 1_555 1_555
C24 C25 1_555 1_555
C26 C27 1_555 1_555
C29 C30 1_555 1_555
C31 C32 1_555 1_555

#END
