
#######################################################################
#
#                 Cambridge Crystallographic Data Centre
#                                CCDC 
#
#######################################################################
#
# If this CIF has been generated from an entry in the Cambridge 
# Structural Database, then it will include bibliographic, chemical, 
# crystal, experimental, refinement or atomic coordinate data resulting 
# from the CCDC's data processing and validation procedures.
#
#######################################################################

data_SINBUO
_symmetry_cell_setting           monoclinic
_symmetry_space_group_name_H-M   'P 21/n'
_symmetry_Int_Tables_number      14
_space_group_name_Hall           '-P 2yn'
loop_
_symmetry_equiv_pos_site_id
_symmetry_equiv_pos_as_xyz
1 x,y,z
2 1/2-x,1/2+y,1/2-z
3 -x,-y,-z
4 1/2+x,1/2-y,1/2+z
_cell_length_a                   10.8437(11)
_cell_length_b                   16.6662(16)
_cell_length_c                   19.6797(18)
_cell_angle_alpha                90
_cell_angle_beta                 96.6390(10)
_cell_angle_gamma                90
_cell_volume                     3532.73
loop_
_atom_site_label
_atom_site_type_symbol
_atom_site_fract_x
_atom_site_fract_y
_atom_site_fract_z
Cd1 Cd 0.41985(4) 0.32294(3) 0.80696(3)
I1 I 0.39228(5) 0.40128(3) 0.92457(3)
I2 I 0.25703(7) 0.22707(5) 0.73426(4)
N1 N 0.2306(5) 0.6957(3) 0.3970(3)
N2 N 0.5677(4) 0.6295(3) 0.6306(2)
N3 N 0.1542(5) 0.5685(3) 0.4150(3)
N4 N 0.0877(5) 0.4425(4) 0.4434(4)
N5 N 0.0145(6) 0.3760(4) 0.4314(4)
N6 N 0.2846(5) 0.8283(4) 0.3904(3)
N7 N 0.3561(6) 0.9595(4) 0.3921(3)
N8 N 0.3371(8) 1.0399(5) 0.3861(4)
N9 N 0.4741(5) 0.4226(3) 0.7351(3)
N10 N 0.8870(5) 0.7686(3) 0.6785(3)
C1 C 0.3199(5) 0.6818(4) 0.4560(3)
C2 C 0.4144(6) 0.6269(4) 0.4529(3)
H1 H 0.4227 0.6006 0.4120
C3 C 0.4966(6) 0.6107(4) 0.5102(3)
H2 H 0.5599 0.5734 0.5082
C4 C 0.4841(5) 0.6502(4) 0.5700(3)
C5 C 0.3941(6) 0.7065(4) 0.5736(3)
H3 H 0.3879 0.7340 0.6141
C6 C 0.3122(6) 0.7222(4) 0.5161(3)
H4 H 0.2508 0.7608 0.5182
C7 C 0.1561(6) 0.6298(4) 0.3726(3)
C8 C 0.0915(7) 0.6289(5) 0.3073(4)
H5 H 0.0950 0.6721 0.2777
C9 C 0.0226(7) 0.5622(6) 0.2882(4)
H6 H -0.0218 0.5603 0.2449
C10 C 0.0174(7) 0.4980(6) 0.3315(5)
H7 H -0.0289 0.4523 0.3187
C11 C 0.0844(6) 0.5051(5) 0.3946(4)
C12 C 0.0400(10) 0.3354(6) 0.4895(6)
H8 H 0.0023 0.2867 0.4975
C13 C 0.1259(8) 0.3707(6) 0.5364(5)
H9 H 0.1579 0.3513 0.5791
C14 C 0.1537(7) 0.4404(5) 0.5063(5)
H10 H 0.2081 0.4797 0.5253
C15 C 0.1926(6) 0.7762(4) 0.3849(3)
C16 C 0.0685(6) 0.7989(5) 0.3721(3)
H11 H 0.0055 0.7607 0.3674
C17 C 0.0415(7) 0.8794(5) 0.3667(4)
H12 H -0.0406 0.8963 0.3582
C18 C 0.1355(7) 0.9349(5) 0.3737(3)
H13 H 0.1193 0.9896 0.3706
C19 C 0.2543(7) 0.9059(4) 0.3857(3)
C20 C 0.4479(14) 1.0691(8) 0.3966(6)
H14 H 0.4644 1.1238 0.3964
C21 C 0.5383(12) 1.0126(9) 0.4079(6)
H15 H 0.6238 1.0202 0.4153
C22 C 0.4742(10) 0.9421(7) 0.4058(6)
H16 H 0.5080 0.8911 0.4129
C23 C 0.3889(6) 0.4694(5) 0.7020(4)
H17 H 0.3060 0.4551 0.7021
C24 C 0.4149(6) 0.5381(5) 0.6671(4)
H18 H 0.3511 0.5688 0.6446
C25 C 0.5389(5) 0.5609(4) 0.6662(3)
C26 C 0.6285(6) 0.5090(4) 0.6991(3)
H19 H 0.7125 0.5199 0.6984
C27 C 0.5925(5) 0.4427(4) 0.7321(3)
H20 H 0.6539 0.4096 0.7537
C28 C 0.8178(6) 0.7737(4) 0.6191(3)
H21 H 0.8417 0.8099 0.5871
C29 C 0.7127(6) 0.7290(4) 0.6012(3)
H22 H 0.6687 0.7342 0.5580
C30 C 0.6730(5) 0.6763(4) 0.6482(3)
C31 C 0.7403(6) 0.6737(4) 0.7129(3)
H23 H 0.7146 0.6414 0.7471
C32 C 0.8461(6) 0.7201(4) 0.7252(3)
H24 H 0.8914 0.7174 0.7683
Cd1A Cd 1.08015(4) 0.82294(3) 0.69304(3)
N10A N 0.6130(5) 0.2686(3) 0.8215(3)
loop_
_geom_bond_atom_site_label_1
_geom_bond_atom_site_label_2
_geom_bond_site_symmetry_1
_geom_bond_site_symmetry_2
Cd1 I1 1_555 1_555
I2 Cd1 1_555 1_555
N1 C1 1_555 1_555
N2 C4 1_555 1_555
N3 C7 1_555 1_555
N4 N5 1_555 1_555
N5 C12 1_555 1_555
N6 C15 1_555 1_555
N7 N8 1_555 1_555
N8 C20 1_555 1_555
N9 Cd1 1_555 1_555
N10 C28 1_555 1_555
C1 C2 1_555 1_555
C2 H1 1_555 1_555
C3 C2 1_555 1_555
H2 C3 1_555 1_555
C4 C3 1_555 1_555
C5 C4 1_555 1_555
H3 C5 1_555 1_555
C6 C1 1_555 1_555
H4 C6 1_555 1_555
C7 N1 1_555 1_555
C8 C7 1_555 1_555
H5 C8 1_555 1_555
C9 C8 1_555 1_555
H6 C9 1_555 1_555
C10 C9 1_555 1_555
H7 C10 1_555 1_555
C11 N3 1_555 1_555
C12 H8 1_555 1_555
C13 C12 1_555 1_555
H9 C13 1_555 1_555
C14 N4 1_555 1_555
H10 C14 1_555 1_555
C15 N1 1_555 1_555
C16 C15 1_555 1_555
H11 C16 1_555 1_555
C17 C16 1_555 1_555
H12 C17 1_555 1_555
C18 C17 1_555 1_555
H13 C18 1_555 1_555
C19 N6 1_555 1_555
C20 H14 1_555 1_555
C21 C20 1_555 1_555
H15 C21 1_555 1_555
C22 N7 1_555 1_555
H16 C22 1_555 1_555
C23 N9 1_555 1_555
H17 C23 1_555 1_555
C24 C23 1_555 1_555
H18 C24 1_555 1_555
C25 N2 1_555 1_555
C26 C25 1_555 1_555
H19 C26 1_555 1_555
C27 N9 1_555 1_555
H20 C27 1_555 1_555
C28 H21 1_555 1_555
C29 C28 1_555 1_555
H22 C29 1_555 1_555
C30 N2 1_555 1_555
C31 C30 1_555 1_555
H23 C31 1_555 1_555
C32 N10 1_555 1_555
H24 C32 1_555 1_555
Cd1A N10 1_555 1_555
N10A Cd1 1_555 1_555
N4 C11 1_555 1_555
N7 C19 1_555 1_555
C5 C6 1_555 1_555
C10 C11 1_555 1_555
C13 C14 1_555 1_555
C18 C19 1_555 1_555
C21 C22 1_555 1_555
C24 C25 1_555 1_555
C26 C27 1_555 1_555
C29 C30 1_555 1_555
C31 C32 1_555 1_555

#END
