
#######################################################################
#
#                 Cambridge Crystallographic Data Centre
#                                CCDC 
#
#######################################################################
#
# If this CIF has been generated from an entry in the Cambridge 
# Structural Database, then it will include bibliographic, chemical, 
# crystal, experimental, refinement or atomic coordinate data resulting 
# from the CCDC's data processing and validation procedures.
#
#######################################################################

data_SINBOI
_symmetry_cell_setting           monoclinic
_symmetry_space_group_name_H-M   'P 21/n'
_symmetry_Int_Tables_number      14
_space_group_name_Hall           '-P 2yn'
loop_
_symmetry_equiv_pos_site_id
_symmetry_equiv_pos_as_xyz
1 x,y,z
2 1/2-x,1/2+y,1/2-z
3 -x,-y,-z
4 1/2+x,1/2-y,1/2+z
_cell_length_a                   7.9001(7)
_cell_length_b                   44.620(3)
_cell_length_c                   8.0308(4)
_cell_angle_alpha                90
_cell_angle_beta                 91.642(2)
_cell_angle_gamma                90
_cell_volume                     2829.71
loop_
_atom_site_label
_atom_site_type_symbol
_atom_site_fract_x
_atom_site_fract_y
_atom_site_fract_z
Cd1 Cd 0.5000 0.5000 1.5000
Br1 Br 0.23653(7) 0.501121(16) 1.69977(6)
N1 N 0.4052(5) 0.66207(10) 0.4931(5)
N2 N 0.0939(5) 0.57648(11) 0.9069(5)
N3 N 0.6319(5) 0.69554(10) 0.4548(5)
N4 N 0.8453(6) 0.72959(11) 0.4037(5)
N5 N 0.9912(6) 0.74344(13) 0.4469(6)
N6 N 0.1512(5) 0.65783(11) 0.3454(5)
N7 N -0.1081(6) 0.64939(12) 0.2155(5)
N8 N -0.2380(7) 0.65715(15) 0.1087(6)
N9 N 0.3636(6) 0.53892(11) 1.3198(5)
N10 N -0.3418(6) 0.53583(12) 0.6856(5)
C1 C 0.3315(6) 0.63940(13) 0.6018(6)
C2 C 0.2708(7) 0.64816(13) 0.7539(6)
H1 H 0.2806 0.6680 0.7883
C3 C 0.1957(7) 0.62733(13) 0.8539(6)
H2 H 0.1531 0.6331 0.9557
C4 C 0.1833(6) 0.59791(12) 0.8041(6)
C5 C 0.2506(7) 0.58874(13) 0.6557(6)
H3 H 0.2464 0.5687 0.6242
C6 C 0.3247(7) 0.61001(14) 0.5540(6)
H4 H 0.3696 0.6042 0.4532
C7 C 0.5692(7) 0.67171(13) 0.5369(6)
C8 C 0.6655(7) 0.65702(15) 0.6626(7)
H5 H 0.6241 0.6402 0.7163
C9 C 0.8238(7) 0.66851(15) 0.7033(7)
H6 H 0.8880 0.6596 0.7886
C10 C 0.8885(7) 0.69256(15) 0.6217(7)
H7 H 0.9953 0.7002 0.6484
C11 C 0.7866(7) 0.70484(14) 0.4975(6)
C12 C 0.7716(7) 0.74154(14) 0.2645(7)
H8 H 0.6696 0.7356 0.2142
C13 C 0.8736(8) 0.76370(16) 0.2123(8)
H9 H 0.8586 0.7758 0.1188
C14 C 1.0072(9) 0.76435(17) 0.3306(8)
H10 H 1.0968 0.7778 0.3281
C15 C 0.2995(7) 0.67251(14) 0.3589(6)
C16 C 0.3362(9) 0.69641(16) 0.2542(8)
H11 H 0.4398 0.7063 0.2629
C17 C 0.2138(9) 0.70509(17) 0.1366(8)
H12 H 0.2350 0.7213 0.0676
C18 C 0.0640(7) 0.69041(14) 0.1201(7)
H13 H -0.0183 0.6960 0.0410
C19 C 0.0404(7) 0.66656(13) 0.2278(6)
C20 C -0.1400(9) 0.62346(17) 0.2947(8)
H14 H -0.0693 0.6138 0.3724
C21 C -0.2947(9) 0.6141(2) 0.2395(9)
H15 H -0.3527 0.5970 0.2721
C22 C -0.3474(9) 0.6351(2) 0.1251(8)
H16 H -0.4497 0.6340 0.0652
C23 C 0.4413(7) 0.54879(13) 1.1851(6)
H17 H 0.5583 0.5467 1.1820
C24 C 0.3586(7) 0.56192(13) 1.0499(6)
H18 H 0.4198 0.5686 0.9599
C25 C 0.1844(7) 0.56511(12) 1.0488(6)
C26 C 0.1009(7) 0.55588(12) 1.1917(6)
H19 H -0.0155 0.5584 1.1995
C27 C 0.1943(7) 0.54309(13) 1.3200(6)
H20 H 0.1369 0.5369 1.4135
C28 C -0.2678(7) 0.52582(14) 0.8270(6)
H21 H -0.3173 0.5094 0.8772
C29 C -0.1266(7) 0.53746(14) 0.9044(6)
H22 H -0.0777 0.5280 0.9972
C30 C -0.0560(7) 0.56397(13) 0.8418(6)
C31 C -0.1398(7) 0.57608(14) 0.7021(7)
H23 H -0.1041 0.5942 0.6582
C32 C -0.2749(8) 0.56126(16) 0.6293(7)
H24 H -0.3237 0.5696 0.5332
N1B N -0.4052(5) 0.33793(10) 1.5069(5)
N2B N -0.0939(5) 0.42352(11) 1.0931(5)
N3B N -0.6319(5) 0.30446(10) 1.5452(5)
N4B N -0.8453(6) 0.27041(11) 1.5963(5)
N5B N -0.9912(6) 0.25656(13) 1.5531(6)
N6B N -0.1512(5) 0.34217(11) 1.6546(5)
N7B N 0.1081(6) 0.35061(12) 1.7845(5)
N8B N 0.2380(7) 0.34285(15) 1.8913(6)
N9B N -0.3636(6) 0.46108(11) 0.6802(5)
N10B N 0.3418(6) 0.46417(12) 1.3144(5)
C1B C -0.3315(6) 0.36060(13) 1.3982(6)
C2B C -0.2708(7) 0.35184(13) 1.2461(6)
H1B H -0.2806 0.3320 1.2117
C3B C -0.1957(7) 0.37267(13) 1.1461(6)
H2B H -0.1531 0.3669 1.0443
C4B C -0.1833(6) 0.40209(12) 1.1959(6)
C5B C -0.2506(7) 0.41126(13) 1.3443(6)
H3B H -0.2464 0.4313 1.3758
C6B C -0.3247(7) 0.38999(14) 1.4460(6)
H4B H -0.3696 0.3958 1.5468
C7B C -0.5692(7) 0.32829(13) 1.4631(6)
C8B C -0.6655(7) 0.34298(15) 1.3374(7)
H5B H -0.6241 0.3598 1.2837
C9B C -0.8238(7) 0.33149(15) 1.2967(7)
H6B H -0.8880 0.3404 1.2114
C10B C -0.8885(7) 0.30744(15) 1.3783(7)
H7B H -0.9953 0.2998 1.3516
C11B C -0.7866(7) 0.29516(14) 1.5025(6)
C12B C -0.7716(7) 0.25846(14) 1.7355(7)
H8B H -0.6696 0.2644 1.7858
C13B C -0.8736(8) 0.23630(16) 1.7877(8)
H9B H -0.8586 0.2242 1.8812
C14B C -1.0072(9) 0.23565(17) 1.6694(8)
H10B H -1.0968 0.2222 1.6719
C15B C -0.2995(7) 0.32749(14) 1.6411(6)
C16B C -0.3362(9) 0.30359(16) 1.7458(8)
H11B H -0.4398 0.2937 1.7371
C17B C -0.2138(9) 0.29491(17) 1.8634(8)
H12B H -0.2350 0.2787 1.9324
C18B C -0.0640(7) 0.30959(14) 1.8799(7)
H13B H 0.0183 0.3040 1.9590
C19B C -0.0404(7) 0.33344(13) 1.7722(6)
C20B C 0.1400(9) 0.37654(17) 1.7053(8)
H14B H 0.0693 0.3862 1.6276
C21B C 0.2947(9) 0.3859(2) 1.7605(9)
H15B H 0.3527 0.4030 1.7279
C22B C 0.3474(9) 0.3649(2) 1.8749(8)
H16B H 0.4497 0.3660 1.9348
C23B C -0.4413(7) 0.45121(13) 0.8149(6)
H17B H -0.5583 0.4533 0.8180
C24B C -0.3586(7) 0.43808(13) 0.9501(6)
H18B H -0.4198 0.4314 1.0401
C25B C -0.1844(7) 0.43489(12) 0.9512(6)
C26B C -0.1009(7) 0.44412(12) 0.8083(6)
H19B H 0.0155 0.4416 0.8005
C27B C -0.1943(7) 0.45691(13) 0.6800(6)
H20B H -0.1369 0.4631 0.5865
C28B C 0.2678(7) 0.47418(14) 1.1730(6)
H21B H 0.3173 0.4906 1.1228
C29B C 0.1266(7) 0.46254(14) 1.0956(6)
H22B H 0.0777 0.4720 1.0028
C30B C 0.0560(7) 0.43603(13) 1.1582(6)
C31B C 0.1398(7) 0.42392(14) 1.2979(7)
H23B H 0.1041 0.4058 1.3418
C32B C 0.2749(8) 0.43874(16) 1.3707(7)
H24B H 0.3237 0.4304 1.4668
Br1B Br 0.76347(7) 0.498879(16) 1.30023(6)
Cd1_2 Cd -0.5000 0.5000 0.5000
N9B_2 N 0.6364(6) 0.46108(11) 1.6802(5)
N10_2 N 0.6582(6) 0.53583(12) 1.6856(5)
loop_
_geom_bond_atom_site_label_1
_geom_bond_atom_site_label_2
_geom_bond_site_symmetry_1
_geom_bond_site_symmetry_2
Cd1 Br1 1_555 1_555
N1 C1 1_555 1_555
N2 C4 1_555 1_555
N3 C7 1_555 1_555
N4 N5 1_555 1_555
N5 C14 1_555 1_555
N6 C15 1_555 1_555
N7 N8 1_555 1_555
N8 C22 1_555 1_555
N9 Cd1 1_555 1_555
N10 C28 1_555 1_555
C1 C2 1_555 1_555
C2 H1 1_555 1_555
C3 C2 1_555 1_555
H2 C3 1_555 1_555
C4 C3 1_555 1_555
C5 C4 1_555 1_555
H3 C5 1_555 1_555
C6 C1 1_555 1_555
H4 C6 1_555 1_555
C7 N1 1_555 1_555
C8 C7 1_555 1_555
H5 C8 1_555 1_555
C9 C8 1_555 1_555
H6 C9 1_555 1_555
C10 C9 1_555 1_555
H7 C10 1_555 1_555
C11 N3 1_555 1_555
C12 N4 1_555 1_555
H8 C12 1_555 1_555
C13 C12 1_555 1_555
H9 C13 1_555 1_555
C14 C13 1_555 1_555
H10 C14 1_555 1_555
C15 N1 1_555 1_555
C16 C15 1_555 1_555
H11 C16 1_555 1_555
C17 C16 1_555 1_555
H12 C17 1_555 1_555
C18 C17 1_555 1_555
H13 C18 1_555 1_555
C19 N6 1_555 1_555
C20 N7 1_555 1_555
H14 C20 1_555 1_555
C21 C20 1_555 1_555
H15 C21 1_555 1_555
C22 C21 1_555 1_555
H16 C22 1_555 1_555
C23 N9 1_555 1_555
H17 C23 1_555 1_555
C24 C23 1_555 1_555
H18 C24 1_555 1_555
C25 N2 1_555 1_555
C26 C25 1_555 1_555
H19 C26 1_555 1_555
C27 N9 1_555 1_555
H20 C27 1_555 1_555
C28 H21 1_555 1_555
C29 C28 1_555 1_555
H22 C29 1_555 1_555
C30 N2 1_555 1_555
C31 C30 1_555 1_555
H23 C31 1_555 1_555
C32 N10 1_555 1_555
H24 C32 1_555 1_555
N1B C1B 1_555 1_555
N2B C4B 1_555 1_555
N3B C7B 1_555 1_555
N4B N5B 1_555 1_555
N5B C14B 1_555 1_555
N6B C15B 1_555 1_555
N7B N8B 1_555 1_555
N8B C22B 1_555 1_555
N9B C23B 1_555 1_555
N10B Cd1 1_555 1_555
C1B C2B 1_555 1_555
C2B H1B 1_555 1_555
C3B C2B 1_555 1_555
H2B C3B 1_555 1_555
C4B C3B 1_555 1_555
C5B C4B 1_555 1_555
H3B C5B 1_555 1_555
C6B C1B 1_555 1_555
H4B C6B 1_555 1_555
C7B N1B 1_555 1_555
C8B C7B 1_555 1_555
H5B C8B 1_555 1_555
C9B C8B 1_555 1_555
H6B C9B 1_555 1_555
C10B C9B 1_555 1_555
H7B C10B 1_555 1_555
C11B N3B 1_555 1_555
C12B N4B 1_555 1_555
H8B C12B 1_555 1_555
C13B C12B 1_555 1_555
H9B C13B 1_555 1_555
C14B C13B 1_555 1_555
H10B C14B 1_555 1_555
C15B N1B 1_555 1_555
C16B C15B 1_555 1_555
H11B C16B 1_555 1_555
C17B C16B 1_555 1_555
H12B C17B 1_555 1_555
C18B C17B 1_555 1_555
H13B C18B 1_555 1_555
C19B N6B 1_555 1_555
C20B N7B 1_555 1_555
H14B C20B 1_555 1_555
C21B C20B 1_555 1_555
H15B C21B 1_555 1_555
C22B C21B 1_555 1_555
H16B C22B 1_555 1_555
C23B H17B 1_555 1_555
C24B C23B 1_555 1_555
H18B C24B 1_555 1_555
C25B N2B 1_555 1_555
C26B C25B 1_555 1_555
H19B C26B 1_555 1_555
C27B N9B 1_555 1_555
H20B C27B 1_555 1_555
C28B N10B 1_555 1_555
H21B C28B 1_555 1_555
C29B C28B 1_555 1_555
H22B C29B 1_555 1_555
C30B N2B 1_555 1_555
C31B C30B 1_555 1_555
H23B C31B 1_555 1_555
C32B N10B 1_555 1_555
H24B C32B 1_555 1_555
Br1B Cd1 1_555 1_555
Cd1_2 N10 1_555 1_555
N9B_2 Cd1 1_555 1_555
N10_2 Cd1 1_555 1_555
N4 C11 1_555 1_555
N7 C19 1_555 1_555
C5 C6 1_555 1_555
C10 C11 1_555 1_555
C18 C19 1_555 1_555
C24 C25 1_555 1_555
C26 C27 1_555 1_555
C29 C30 1_555 1_555
C31 C32 1_555 1_555
N4B C11B 1_555 1_555
N7B C19B 1_555 1_555
N9B Cd1_2 1_555 1_555
C5B C6B 1_555 1_555
C10B C11B 1_555 1_555
C18B C19B 1_555 1_555
C24B C25B 1_555 1_555
C26B C27B 1_555 1_555
C29B C30B 1_555 1_555
C31B C32B 1_555 1_555

#END
