
#######################################################################
#
#                 Cambridge Crystallographic Data Centre
#                                CCDC 
#
#######################################################################
#
# If this CIF has been generated from an entry in the Cambridge 
# Structural Database, then it will include bibliographic, chemical, 
# crystal, experimental, refinement or atomic coordinate data resulting 
# from the CCDC's data processing and validation procedures.
#
#######################################################################

data_SINCID
_symmetry_cell_setting           monoclinic
_symmetry_space_group_name_H-M   'C 2/c'
_symmetry_Int_Tables_number      15
_space_group_name_Hall           '-C 2yn'
loop_
_symmetry_equiv_pos_site_id
_symmetry_equiv_pos_as_xyz
1 x,y,z
2 -x,y,1/2-z
3 1/2+x,1/2+y,z
4 1/2-x,1/2+y,1/2-z
5 -x,-y,-z
6 x,-y,1/2+z
7 1/2-x,1/2-y,-z
8 1/2+x,1/2-y,1/2+z
_cell_length_a                   15.971(4)
_cell_length_b                   16.246(3)
_cell_length_c                   16.318(4)
_cell_angle_alpha                90
_cell_angle_beta                 103.582(14)
_cell_angle_gamma                90
_cell_volume                     4115.54
loop_
_atom_site_label
_atom_site_type_symbol
_atom_site_fract_x
_atom_site_fract_y
_atom_site_fract_z
Cd1 Cd 0.892042(17) 0.014934(16) 0.284873(16)
Cl1 Cl 0.72676(7) 0.01905(8) 0.22432(7)
Cl2 Cl 1.06540(7) 0.00240(8) 0.35351(6)
O1 O 0.8935(2) 0.15779(18) 0.31126(19)
O2 O 0.88244(18) 0.07656(15) 0.41626(17)
N1 N 0.8760(2) 0.88814(18) 0.3462(2)
N2 N 0.8315(2) 0.51136(17) 0.54204(19)
C1 C 0.9168(2) 0.8742(2) 0.4257(3)
H1 H 0.9529 0.9147 0.4550
C2 C 0.9071(2) 0.8012(2) 0.4666(2)
H2 H 0.9365 0.7932 0.5224
C3 C 0.8534(2) 0.7401(2) 0.4239(3)
C4 C 0.8093(3) 0.7555(3) 0.3412(3)
H3 H 0.7715 0.7169 0.3108
C5 C 0.8234(3) 0.8302(3) 0.3054(3)
H4 H 0.7946 0.8403 0.2498
C6 C 0.8442(2) 0.6602(2) 0.4653(2)
C7 C 0.9165(2) 0.6215(2) 0.5131(2)
H5 H 0.9703 0.6461 0.5196
C8 C 0.9097(2) 0.5472(2) 0.5508(2)
H6 H 0.9588 0.5215 0.5825
C9 C 0.7604(2) 0.5471(2) 0.4965(2)
H7 H 0.7072 0.5216 0.4912
C10 C 0.7654(2) 0.6213(2) 0.4574(2)
H8 H 0.7156 0.6455 0.4255
C11 C 0.8259(3) 0.4298(2) 0.5824(3)
H9 H 0.7688 0.4234 0.5925
H10 H 0.8671 0.4281 0.6365
C12 C 0.8435(2) 0.3587(2) 0.5288(2)
C13 C 0.8589(2) 0.2817(2) 0.5662(2)
H11 H 0.8611 0.2763 0.6234
C14 C 0.8710(2) 0.2132(2) 0.5207(2)
H12 H 0.8797 0.1620 0.5468
C15 C 0.8703(2) 0.2209(2) 0.4359(2)
C16 C 0.8572(2) 0.2982(2) 0.3982(2)
H13 H 0.8584 0.3041 0.3418
C17 C 0.8426(2) 0.3665(2) 0.4435(2)
H14 H 0.8322 0.4175 0.4172
C18 C 0.8831(2) 0.1469(2) 0.3854(2)
Cd1_2 Cd 0.892042(17) 1.014934(16) 0.284873(16)
Cd1A Cd 1.107958(17) 0.014934(16) 0.215127(16)
Cl2A Cl 0.93460(7) 0.00240(8) 0.14649(6)
N1_2 N 0.8760(2) -0.11186(18) 0.3462(2)
O4 O 0.9136(5) 0.7571(5) 0.6697(5)
O5 O 1.0000 0.2268(12) 0.7500
O7 O 0.9015(17) 0.5960(11) 0.7138(13)
O8 O 1.0375(13) 0.455(2) 0.6982(15)
O3? O 0.9705(11) 0.7412(11) 0.7142(10)
O6? O 0.9509(14) 0.5820(9) 0.7475(12)
O9? O 1.0387(5) 0.3974(7) 0.6783(5)
loop_
_geom_bond_atom_site_label_1
_geom_bond_atom_site_label_2
_geom_bond_site_symmetry_1
_geom_bond_site_symmetry_2
Cd1 Cl1 1_555 1_555
Cl2 Cd1 1_555 1_555
O1 Cd1 1_555 1_555
O2 Cd1 1_555 1_555
N1 C1 1_555 1_555
N2 C8 1_555 1_555
C1 H1 1_555 1_555
C2 C1 1_555 1_555
H2 C2 1_555 1_555
C3 C2 1_555 1_555
C4 C3 1_555 1_555
H3 C4 1_555 1_555
C5 N1 1_555 1_555
H4 C5 1_555 1_555
C6 C3 1_555 1_555
C7 C6 1_555 1_555
H5 C7 1_555 1_555
C8 C7 1_555 1_555
H6 C8 1_555 1_555
C9 N2 1_555 1_555
H7 C9 1_555 1_555
C10 C6 1_555 1_555
H8 C10 1_555 1_555
C11 N2 1_555 1_555
H9 C11 1_555 1_555
H10 C11 1_555 1_555
C12 C11 1_555 1_555
C13 C12 1_555 1_555
H11 C13 1_555 1_555
C14 C13 1_555 1_555
H12 C14 1_555 1_555
C15 C14 1_555 1_555
C16 C15 1_555 1_555
H13 C16 1_555 1_555
C17 C12 1_555 1_555
H14 C17 1_555 1_555
C18 O1 1_555 1_555
Cd1_2 N1 1_555 1_555
Cd1A Cl2 1_555 1_555
Cl2A Cd1 1_555 1_555
N1_2 Cd1 1_555 1_555
O2 C18 1_555 1_555
C4 C5 1_555 1_555
C9 C10 1_555 1_555
C15 C18 1_555 1_555
C16 C17 1_555 1_555
Cd1A Cl2A 1_555 1_555

#END
