
#######################################################################
#
#                 Cambridge Crystallographic Data Centre
#                                CCDC 
#
#######################################################################
#
# If this CIF has been generated from an entry in the Cambridge 
# Structural Database, then it will include bibliographic, chemical, 
# crystal, experimental, refinement or atomic coordinate data resulting 
# from the CCDC's data processing and validation procedures.
#
#######################################################################

data_SINHOO
_symmetry_cell_setting           monoclinic
_symmetry_space_group_name_H-M   'C 2/c'
_symmetry_Int_Tables_number      15
_space_group_name_Hall           '-C 2yn'
loop_
_symmetry_equiv_pos_site_id
_symmetry_equiv_pos_as_xyz
1 x,y,z
2 -x,y,1/2-z
3 1/2+x,1/2+y,z
4 1/2-x,1/2+y,1/2-z
5 -x,-y,-z
6 x,-y,1/2+z
7 1/2-x,1/2-y,-z
8 1/2+x,1/2-y,1/2+z
_cell_length_a                   25.339(9)
_cell_length_b                   6.056(2)
_cell_length_c                   17.683(6)
_cell_angle_alpha                90
_cell_angle_beta                 98.619(4)
_cell_angle_gamma                90
_cell_volume                     2682.86
loop_
_atom_site_label
_atom_site_type_symbol
_atom_site_fract_x
_atom_site_fract_y
_atom_site_fract_z
C1 C 0.0544(3) 0.4861(12) 0.9012(4)
H1 H 0.0324 0.5807 0.9237
C2 C 0.0866(2) 0.3435(13) 0.9476(4)
H2 H 0.0868 0.3449 1.0002
C3 C 0.1185(2) 0.1987(9) 0.9154(3)
C4 C 0.1174(2) 0.2097(10) 0.8381(3)
H3 H 0.1386 0.1161 0.8138
C5 C 0.0846(2) 0.3602(11) 0.7965(4)
H4 H 0.0846 0.3664 0.7439
C6 C 0.1538(2) 0.0365(10) 0.9658(3)
H5 H 0.1549 0.0795 1.0189
H6 H 0.1378 -0.1092 0.9596
C7 C 0.2517(2) 0.1563(9) 0.9751(3)
C8 C 0.2271(2) -0.1350(10) 0.9037(3)
C9 C 0.2813(2) -0.0919(10) 0.9059(3)
C10 C 0.3128(3) -0.2277(10) 0.8663(3)
H7 H 0.3490 -0.2005 0.8669
C11 C 0.2877(3) -0.4028(11) 0.8267(3)
H8 H 0.3076 -0.4979 0.8008
C12 C 0.2336(3) -0.4418(11) 0.8242(4)
H9 H 0.2182 -0.5613 0.7961
C13 C 0.2021(3) -0.3098(10) 0.8619(4)
H10 H 0.1657 -0.3360 0.8595
Hg1 Hg 0.0000 0.77000(6) 0.7500
I1 I -0.05707(3) 0.90708(11) 0.85377(3)
N1 N 0.05302(18) 0.4963(9) 0.8265(3)
N2 N 0.20830(17) 0.0240(8) 0.9488(3)
N3 N 0.29606(17) 0.0913(8) 0.9509(3)
C1F C 0.4456(3) 0.0139(12) 1.0988(4)
H1F H 0.4676 -0.0807 1.0763
C2F C 0.4134(2) 0.1565(13) 1.0524(4)
H2F H 0.4132 0.1551 0.9998
C3F C 0.3815(2) 0.3013(9) 1.0846(3)
C4F C 0.3826(2) 0.2903(10) 1.1619(3)
H3F H 0.3614 0.3839 1.1862
C5F C 0.4154(2) 0.1398(11) 1.2035(4)
H4F H 0.4154 0.1336 1.2561
C6F C 0.3462(2) 0.4635(10) 1.0342(3)
H5F H 0.3451 0.4205 0.9811
H6F H 0.3622 0.6092 1.0404
C7F C 0.2483(2) 0.3437(9) 1.0249(3)
C8F C 0.2729(2) 0.6350(10) 1.0963(3)
C9F C 0.2187(2) 0.5919(10) 1.0941(3)
C10F C 0.1872(3) 0.7277(10) 1.1337(3)
H7F H 0.1510 0.7005 1.1331
C11F C 0.2123(3) 0.9028(11) 1.1733(3)
H8F H 0.1924 0.9979 1.1992
C12F C 0.2664(3) 0.9418(11) 1.1758(4)
H9F H 0.2818 1.0613 1.2039
C13F C 0.2979(3) 0.8098(10) 1.1381(4)
H10F H 0.3343 0.8360 1.1405
N1F N 0.44698(18) 0.0037(9) 1.1735(3)
N2F N 0.29170(17) 0.4760(8) 1.0512(3)
N3F N 0.20394(17) 0.4087(8) 1.0491(3)
I1A I 0.05707(3) 0.90708(11) 0.64623(3)
Hg1F Hg 0.5000 -0.27000(6) 1.2500
N1A N -0.05302(18) 0.4963(9) 0.6735(3)
loop_
_geom_bond_atom_site_label_1
_geom_bond_atom_site_label_2
_geom_bond_site_symmetry_1
_geom_bond_site_symmetry_2
C1 H1 1_555 1_555
C2 C1 1_555 1_555
H2 C2 1_555 1_555
C3 C2 1_555 1_555
C4 C3 1_555 1_555
H3 C4 1_555 1_555
C5 C4 1_555 1_555
H4 C5 1_555 1_555
C6 C3 1_555 1_555
H5 C6 1_555 1_555
H6 C6 1_555 1_555
C7 N2 1_555 1_555
C8 C9 1_555 1_555
C9 C10 1_555 1_555
C10 H7 1_555 1_555
C11 C10 1_555 1_555
H8 C11 1_555 1_555
C12 C11 1_555 1_555
H9 C12 1_555 1_555
C13 C8 1_555 1_555
H10 C13 1_555 1_555
Hg1 I1 1_555 1_555
N1 C1 1_555 1_555
N2 C6 1_555 1_555
N3 C7 1_555 1_555
C1F H1F 1_555 1_555
C2F C1F 1_555 1_555
H2F C2F 1_555 1_555
C3F C2F 1_555 1_555
C4F C3F 1_555 1_555
H3F C4F 1_555 1_555
C5F C4F 1_555 1_555
H4F C5F 1_555 1_555
C6F C3F 1_555 1_555
H5F C6F 1_555 1_555
H6F C6F 1_555 1_555
C7F C7 1_555 1_555
C8F C9F 1_555 1_555
C9F C10F 1_555 1_555
C10F H7F 1_555 1_555
C11F C10F 1_555 1_555
H8F C11F 1_555 1_555
C12F C11F 1_555 1_555
H9F C12F 1_555 1_555
C13F C8F 1_555 1_555
H10F C13F 1_555 1_555
N1F C1F 1_555 1_555
N2F C6F 1_555 1_555
N3F C7F 1_555 1_555
I1A Hg1 1_555 1_555
Hg1F N1F 1_555 1_555
N1A Hg1 1_555 1_555
C5 N1 1_555 1_555
C8 N2 1_555 1_555
C9 N3 1_555 1_555
C12 C13 1_555 1_555
Hg1 N1 1_555 1_555
C5F N1F 1_555 1_555
C7F N2F 1_555 1_555
C8F N2F 1_555 1_555
C9F N3F 1_555 1_555
C12F C13F 1_555 1_555

#END
