
#######################################################################
#
#                 Cambridge Crystallographic Data Centre
#                                CCDC 
#
#######################################################################
#
# If this CIF has been generated from an entry in the Cambridge 
# Structural Database, then it will include bibliographic, chemical, 
# crystal, experimental, refinement or atomic coordinate data resulting 
# from the CCDC's data processing and validation procedures.
#
#######################################################################

data_SINHEE
_symmetry_cell_setting           monoclinic
_symmetry_space_group_name_H-M   'C 2/c'
_symmetry_Int_Tables_number      15
_space_group_name_Hall           '-C 2yn'
loop_
_symmetry_equiv_pos_site_id
_symmetry_equiv_pos_as_xyz
1 x,y,z
2 -x,y,1/2-z
3 1/2+x,1/2+y,z
4 1/2-x,1/2+y,1/2-z
5 -x,-y,-z
6 x,-y,1/2+z
7 1/2-x,1/2-y,-z
8 1/2+x,1/2-y,1/2+z
_cell_length_a                   29.641(15)
_cell_length_b                   4.953(2)
_cell_length_c                   16.932(8)
_cell_angle_alpha                90
_cell_angle_beta                 99.236(11)
_cell_angle_gamma                90
_cell_volume                     2453.59
loop_
_atom_site_label
_atom_site_type_symbol
_atom_site_fract_x
_atom_site_fract_y
_atom_site_fract_z
C1 C 0.04608(19) 0.6141(13) 0.3915(4)
H1 H 0.0153 0.6350 0.3954
C2 C 0.0770(2) 0.7553(10) 0.4436(4)
H2 H 0.0672 0.8723 0.4804
C3 C 0.12272(17) 0.7234(9) 0.4415(3)
C4 C 0.13442(16) 0.5511(11) 0.3852(3)
H3 H 0.1650 0.5216 0.3816
C5 C 0.10072(19) 0.4217(13) 0.3341(3)
H4 H 0.1095 0.3071 0.2958
C6 C 0.15835(16) 0.8771(9) 0.4984(3)
H5 H 0.1718 1.0157 0.4691
H6 H 0.1438 0.9652 0.5389
C7 C 0.23906(17) 0.6681(9) 0.5277(2)
C8 C 0.18701(16) 0.5128(9) 0.5949(2)
C9 C 0.22823(17) 0.3793(9) 0.6164(3)
C10 C 0.2318(2) 0.1755(10) 0.6743(3)
H7 H 0.2590 0.0818 0.6897
C11 C 0.1939(2) 0.1202(11) 0.7073(3)
H8 H 0.1953 -0.0150 0.7457
C12 C 0.1531(2) 0.2589(10) 0.6854(3)
H9 H 0.1281 0.2143 0.7097
C13 C 0.14858(17) 0.4585(11) 0.6292(3)
H10 H 0.1214 0.5525 0.6148
Cl1 Cl 0.04580(5) 0.0778(4) 0.15364(10)
Hg1 Hg 0.0000 0.19383(7) 0.2500
N1 N 0.05643(14) 0.4501(10) 0.3360(2)
N2 N 0.19419(14) 0.6973(7) 0.5371(2)
N3 N 0.26075(13) 0.4803(8) 0.5749(2)
C1F C 0.45392(19) 0.8859(13) 0.6085(4)
H1F H 0.4847 0.8650 0.6046
C2F C 0.4230(2) 0.7447(10) 0.5564(4)
H2F H 0.4328 0.6277 0.5196
C3F C 0.37728(17) 0.7766(9) 0.5585(3)
C4F C 0.36558(16) 0.9489(11) 0.6148(3)
H3F H 0.3350 0.9784 0.6184
C5F C 0.39928(19) 1.0783(13) 0.6659(3)
H4F H 0.3905 1.1929 0.7042
C6F C 0.34165(16) 0.6229(9) 0.5016(3)
H5F H 0.3282 0.4843 0.5309
H6F H 0.3562 0.5348 0.4611
C7F C 0.26094(17) 0.8319(9) 0.4723(2)
C8F C 0.31299(16) 0.9872(9) 0.4051(2)
C9F C 0.27177(17) 1.1207(9) 0.3836(3)
C10F C 0.2682(2) 1.3245(10) 0.3257(3)
H7F H 0.2410 1.4182 0.3103
C11F C 0.3061(2) 1.3798(11) 0.2927(3)
H8F H 0.3047 1.5150 0.2543
C12F C 0.3469(2) 1.2411(10) 0.3146(3)
H9F H 0.3719 1.2857 0.2903
C13F C 0.35142(17) 1.0415(11) 0.3708(3)
H10F H 0.3786 0.9475 0.3852
N1F N 0.44357(14) 1.0499(10) 0.6640(2)
N2F N 0.30581(14) 0.8027(7) 0.4629(2)
N3F N 0.23925(13) 1.0197(8) 0.4251(2)
Cl1A Cl -0.04580(5) 0.0778(4) 0.34636(10)
Hg1F Hg 0.5000 1.30617(7) 0.7500
N1A N -0.05643(14) 0.4501(10) 0.1640(2)
loop_
_geom_bond_atom_site_label_1
_geom_bond_atom_site_label_2
_geom_bond_site_symmetry_1
_geom_bond_site_symmetry_2
C1 H1 1_555 1_555
C2 C1 1_555 1_555
H2 C2 1_555 1_555
C3 C2 1_555 1_555
C4 C3 1_555 1_555
H3 C4 1_555 1_555
C5 C4 1_555 1_555
H4 C5 1_555 1_555
C6 C3 1_555 1_555
H5 C6 1_555 1_555
H6 C6 1_555 1_555
C7 N2 1_555 1_555
C8 C9 1_555 1_555
C9 C10 1_555 1_555
C10 H7 1_555 1_555
C11 C10 1_555 1_555
H8 C11 1_555 1_555
C12 C11 1_555 1_555
H9 C12 1_555 1_555
C13 C8 1_555 1_555
H10 C13 1_555 1_555
Cl1 Hg1 1_555 1_555
Hg1 N1 1_555 1_555
N1 C1 1_555 1_555
N2 C6 1_555 1_555
N3 C7 1_555 1_555
C1F H1F 1_555 1_555
C2F C1F 1_555 1_555
H2F C2F 1_555 1_555
C3F C2F 1_555 1_555
C4F C3F 1_555 1_555
H3F C4F 1_555 1_555
C5F C4F 1_555 1_555
H4F C5F 1_555 1_555
C6F C3F 1_555 1_555
H5F C6F 1_555 1_555
H6F C6F 1_555 1_555
C7F C7 1_555 1_555
C8F C9F 1_555 1_555
C9F C10F 1_555 1_555
C10F H7F 1_555 1_555
C11F C10F 1_555 1_555
H8F C11F 1_555 1_555
C12F C11F 1_555 1_555
H9F C12F 1_555 1_555
C13F C8F 1_555 1_555
H10F C13F 1_555 1_555
N1F C1F 1_555 1_555
N2F C6F 1_555 1_555
N3F C7F 1_555 1_555
Cl1A Hg1 1_555 1_555
Hg1F N1F 1_555 1_555
N1A Hg1 1_555 1_555
C5 N1 1_555 1_555
C8 N2 1_555 1_555
C9 N3 1_555 1_555
C12 C13 1_555 1_555
C5F N1F 1_555 1_555
C7F N2F 1_555 1_555
C8F N2F 1_555 1_555
C9F N3F 1_555 1_555
C12F C13F 1_555 1_555

#END
