
#######################################################################
#
#                 Cambridge Crystallographic Data Centre
#                                CCDC 
#
#######################################################################
#
# If this CIF has been generated from an entry in the Cambridge 
# Structural Database, then it will include bibliographic, chemical, 
# crystal, experimental, refinement or atomic coordinate data resulting 
# from the CCDC's data processing and validation procedures.
#
#######################################################################

data_SINHII
_symmetry_cell_setting           monoclinic
_symmetry_space_group_name_H-M   'C 2/c'
_symmetry_Int_Tables_number      15
_space_group_name_Hall           '-C 2yn'
loop_
_symmetry_equiv_pos_site_id
_symmetry_equiv_pos_as_xyz
1 x,y,z
2 -x,y,1/2-z
3 1/2+x,1/2+y,z
4 1/2-x,1/2+y,1/2-z
5 -x,-y,-z
6 x,-y,1/2+z
7 1/2-x,1/2-y,-z
8 1/2+x,1/2-y,1/2+z
_cell_length_a                   24.494(8)
_cell_length_b                   6.006(2)
_cell_length_c                   17.306(6)
_cell_angle_alpha                90
_cell_angle_beta                 95.796(4)
_cell_angle_gamma                90
_cell_volume                     2532.89
loop_
_atom_site_label
_atom_site_type_symbol
_atom_site_fract_x
_atom_site_fract_y
_atom_site_fract_z
C1 C 0.0507(2) 0.5005(10) 0.9059(3)
H1 H 0.0291 0.6031 0.9292
C2 C 0.0822(2) 0.3553(10) 0.9522(3)
H2 H 0.0819 0.3599 1.0058
C3 C 0.1150(2) 0.2002(8) 0.9183(3)
C4 C 0.1135(2) 0.2007(9) 0.8392(3)
H3 H 0.1346 0.0994 0.8144
C5 C 0.0808(3) 0.3517(10) 0.7964(3)
H4 H 0.0805 0.3497 0.7426
C6 C 0.1503(2) 0.0404(8) 0.9690(3)
H5 H 0.1509 0.0872 1.0227
H6 H 0.1339 -0.1067 0.9646
C7 C 0.2518(2) 0.1531(8) 0.9745(3)
C8 C 0.2264(2) -0.1381(8) 0.9033(3)
C9 C 0.2823(2) -0.1007(8) 0.9044(3)
C10 C 0.3151(3) -0.2426(8) 0.8651(3)
H7 H 0.3527 -0.2192 0.8657
C11 C 0.2895(3) -0.4189(9) 0.8256(3)
H8 H 0.3103 -0.5175 0.7992
C12 C 0.2334(3) -0.4529(9) 0.8241(3)
H9 H 0.2176 -0.5731 0.7963
C13 C 0.2000(3) -0.3131(8) 0.8627(3)
H10 H 0.1623 -0.3354 0.8614
Hg1 Hg 0.0000 0.77841(5) 0.7500
Br1 Br -0.05808(4) 0.90727(16) 0.84956(4)
N1 N 0.04965(17) 0.5005(8) 0.8282(2)
N2 N 0.20649(16) 0.0267(6) 0.9488(2)
N3 N 0.29770(18) 0.0830(6) 0.9497(2)
C1F C 0.4493(2) -0.0005(10) 1.0941(3)
H1F H 0.4709 -0.1031 1.0708
C2F C 0.4178(2) 0.1447(10) 1.0478(3)
H2F H 0.4181 0.1401 0.9942
C3F C 0.3850(2) 0.2998(8) 1.0817(3)
C4F C 0.3865(2) 0.2993(9) 1.1608(3)
H3F H 0.3654 0.4006 1.1856
C5F C 0.4192(3) 0.1483(10) 1.2036(3)
H4F H 0.4195 0.1503 1.2574
C6F C 0.3497(2) 0.4596(8) 1.0310(3)
H5F H 0.3491 0.4128 0.9773
H6F H 0.3661 0.6067 1.0354
C7F C 0.2482(2) 0.3469(8) 1.0255(3)
C8F C 0.2736(2) 0.6381(8) 1.0967(3)
C9F C 0.2177(2) 0.6007(8) 1.0956(3)
C10F C 0.1849(3) 0.7426(8) 1.1349(3)
H7F H 0.1473 0.7192 1.1343
C11F C 0.2105(3) 0.9189(9) 1.1744(3)
H8F H 0.1897 1.0175 1.2008
C12F C 0.2666(3) 0.9529(9) 1.1759(3)
H9F H 0.2824 1.0731 1.2037
C13F C 0.3000(3) 0.8131(8) 1.1373(3)
H10F H 0.3377 0.8354 1.1386
N1F N 0.45035(17) -0.0005(8) 1.1718(2)
N2F N 0.29351(16) 0.4733(6) 1.0512(2)
N3F N 0.20230(18) 0.4170(6) 1.0503(2)
Br1A Br 0.05808(4) 0.90727(16) 0.65044(4)
Hg1F Hg 0.5000 -0.27841(5) 1.2500
N1A N -0.04965(17) 0.5005(8) 0.6718(2)
loop_
_geom_bond_atom_site_label_1
_geom_bond_atom_site_label_2
_geom_bond_site_symmetry_1
_geom_bond_site_symmetry_2
C1 H1 1_555 1_555
C2 C1 1_555 1_555
H2 C2 1_555 1_555
C3 C2 1_555 1_555
C4 C3 1_555 1_555
H3 C4 1_555 1_555
C5 C4 1_555 1_555
H4 C5 1_555 1_555
C6 C3 1_555 1_555
H5 C6 1_555 1_555
H6 C6 1_555 1_555
C7 N2 1_555 1_555
C8 C9 1_555 1_555
C9 C10 1_555 1_555
C10 H7 1_555 1_555
C11 C10 1_555 1_555
H8 C11 1_555 1_555
C12 C11 1_555 1_555
H9 C12 1_555 1_555
C13 C8 1_555 1_555
H10 C13 1_555 1_555
Hg1 Br1 1_555 1_555
N1 C1 1_555 1_555
N2 C6 1_555 1_555
N3 C7 1_555 1_555
C1F H1F 1_555 1_555
C2F C1F 1_555 1_555
H2F C2F 1_555 1_555
C3F C2F 1_555 1_555
C4F C3F 1_555 1_555
H3F C4F 1_555 1_555
C5F C4F 1_555 1_555
H4F C5F 1_555 1_555
C6F C3F 1_555 1_555
H5F C6F 1_555 1_555
H6F C6F 1_555 1_555
C7F C7 1_555 1_555
C8F C9F 1_555 1_555
C9F C10F 1_555 1_555
C10F H7F 1_555 1_555
C11F C10F 1_555 1_555
H8F C11F 1_555 1_555
C12F C11F 1_555 1_555
H9F C12F 1_555 1_555
C13F C8F 1_555 1_555
H10F C13F 1_555 1_555
N1F C1F 1_555 1_555
N2F C6F 1_555 1_555
N3F C7F 1_555 1_555
Br1A Hg1 1_555 1_555
Hg1F N1F 1_555 1_555
N1A Hg1 1_555 1_555
C5 N1 1_555 1_555
C8 N2 1_555 1_555
C9 N3 1_555 1_555
C12 C13 1_555 1_555
Hg1 N1 1_555 1_555
C5F N1F 1_555 1_555
C7F N2F 1_555 1_555
C8F N2F 1_555 1_555
C9F N3F 1_555 1_555
C12F C13F 1_555 1_555

#END
