
#######################################################################
#
#                 Cambridge Crystallographic Data Centre
#                                CCDC 
#
#######################################################################
#
# If this CIF has been generated from an entry in the Cambridge 
# Structural Database, then it will include bibliographic, chemical, 
# crystal, experimental, refinement or atomic coordinate data resulting 
# from the CCDC's data processing and validation procedures.
#
#######################################################################

data_SINJIK
_symmetry_cell_setting           monoclinic
_symmetry_space_group_name_H-M   'C 2/c'
_symmetry_Int_Tables_number      15
_space_group_name_Hall           '-C 2yn'
loop_
_symmetry_equiv_pos_site_id
_symmetry_equiv_pos_as_xyz
1 x,y,z
2 -x,y,1/2-z
3 1/2+x,1/2+y,z
4 1/2-x,1/2+y,1/2-z
5 -x,-y,-z
6 x,-y,1/2+z
7 1/2-x,1/2-y,-z
8 1/2+x,1/2-y,1/2+z
_cell_length_a                   31.79(3)
_cell_length_b                   7.925(6)
_cell_length_c                   16.005(13)
_cell_angle_alpha                90
_cell_angle_beta                 97.69(3)
_cell_angle_gamma                90
_cell_volume                     3995.97
loop_
_atom_site_label
_atom_site_type_symbol
_atom_site_fract_x
_atom_site_fract_y
_atom_site_fract_z
Cu1 Cu 0.109132(10) 0.30029(4) 0.695410(18)
Cl1 Cl 0.05105(2) 0.44903(10) 0.64741(5)
N1 N 0.16459(7) 0.1941(2) 0.75086(13)
C1 C 0.19716(9) 0.1342(4) 0.71602(18)
H1 H 0.1960 0.1372 0.6577
C2 C 0.23308(9) 0.0670(4) 0.7640(2)
H2 H 0.2552 0.0249 0.7374
C3 C 0.23586(9) 0.0630(4) 0.8496(2)
H3 H 0.2600 0.0195 0.8818
C4 C 0.20220(8) 0.1247(3) 0.88875(17)
C5 C 0.16713(8) 0.1896(3) 0.83635(15)
C6 C 0.20146(10) 0.1260(4) 0.97815(18)
H4 H 0.2248 0.0849 1.0136
C7 C 0.16767(10) 0.1857(3) 1.01196(17)
H5 H 0.1681 0.1853 1.0702
C8 C 0.13105(9) 0.2496(3) 0.95917(15)
C9 C 0.13112(8) 0.2516(3) 0.87180(15)
C10 C 0.09436(10) 0.3073(3) 0.98932(17)
H6 H 0.0929 0.3090 1.0470
C11 C 0.06066(10) 0.3611(4) 0.93366(19)
H7 H 0.0359 0.3976 0.9531
C12 C 0.06358(9) 0.3610(3) 0.84764(18)
H8 H 0.0405 0.3988 0.8105
N2 N 0.09806(6) 0.3090(2) 0.81664(13)
C13 C 0.14488(9) 0.2787(3) 0.43121(16)
C14 C 0.11597(8) 0.2046(3) 0.36808(16)
C15 C 0.11784(9) 0.2112(3) 0.28176(15)
C16 C 0.13474(9) 0.2791(3) 0.51440(17)
N3 N 0.12696(8) 0.2807(3) 0.58229(15)
C17 C 0.18515(11) 0.3424(4) 0.41863(17)
N4 N 0.21808(10) 0.3930(5) 0.41061(18)
O1 O 0.08607(6) 0.1140(3) 0.39883(12)
C18 C 0.04102(10) 0.1324(5) 0.3638(2)
H9 H 0.0377 0.2240 0.3233
H10 H 0.0309 0.0294 0.3352
C19 C 0.01714(14) 0.1667(7) 0.4313(4)
H11 H -0.0118 0.1891 0.4088
H12 H 0.0289 0.2634 0.4622
H13 H 0.0183 0.0709 0.4682
C20 C 0.09473(10) 0.0948(3) 0.22534(17)
N5 N 0.07748(10) -0.0037(3) 0.18067(17)
C21 C 0.14346(9) 0.3290(3) 0.24406(17)
N6 N 0.16247(9) 0.4237(3) 0.21067(16)
Cu1E Cu 0.109132(10) -0.30029(4) 0.195410(18)
N5E N 0.07748(10) 0.0037(3) 0.68067(17)
loop_
_geom_bond_atom_site_label_1
_geom_bond_atom_site_label_2
_geom_bond_site_symmetry_1
_geom_bond_site_symmetry_2
Cu1 Cl1 1_555 1_555
N1 Cu1 1_555 1_555
C1 N1 1_555 1_555
H1 C1 1_555 1_555
C2 C1 1_555 1_555
H2 C2 1_555 1_555
C3 C2 1_555 1_555
H3 C3 1_555 1_555
C4 C3 1_555 1_555
C5 N1 1_555 1_555
C6 C4 1_555 1_555
H4 C6 1_555 1_555
C7 C6 1_555 1_555
H5 C7 1_555 1_555
C8 C7 1_555 1_555
C9 C5 1_555 1_555
C10 C8 1_555 1_555
H6 C10 1_555 1_555
C11 C10 1_555 1_555
H7 C11 1_555 1_555
C12 C11 1_555 1_555
H8 C12 1_555 1_555
N2 Cu1 1_555 1_555
C13 C14 1_555 1_555
C14 C15 1_555 1_555
C15 C20 1_555 1_555
C16 C13 1_555 1_555
N3 Cu1 1_555 1_555
C17 C13 1_555 1_555
N4 C17 1_555 1_555
O1 C14 1_555 1_555
C18 O1 1_555 1_555
H9 C18 1_555 1_555
H10 C18 1_555 1_555
C19 C18 1_555 1_555
H11 C19 1_555 1_555
H12 C19 1_555 1_555
H13 C19 1_555 1_555
C20 N5 1_555 1_555
N5 Cu1E 1_555 1_555
C21 C15 1_555 1_555
N6 C21 1_555 1_555
N5E Cu1 1_555 1_555
C4 C5 1_555 1_555
C8 C9 1_555 1_555
C9 N2 1_555 1_555
C12 N2 1_555 1_555
C16 N3 1_555 1_555

#END
