
#######################################################################
#
#                 Cambridge Crystallographic Data Centre
#                                CCDC 
#
#######################################################################
#
# If this CIF has been generated from an entry in the Cambridge 
# Structural Database, then it will include bibliographic, chemical, 
# crystal, experimental, refinement or atomic coordinate data resulting 
# from the CCDC's data processing and validation procedures.
#
#######################################################################

data_SINKIL
_symmetry_cell_setting           monoclinic
_symmetry_space_group_name_H-M   'P 21/c'
_symmetry_Int_Tables_number      14
_space_group_name_Hall           '-P 2ybc'
loop_
_symmetry_equiv_pos_site_id
_symmetry_equiv_pos_as_xyz
1 x,y,z
2 -x,1/2+y,1/2-z
3 -x,-y,-z
4 x,1/2-y,1/2+z
_cell_length_a                   11.4350(7)
_cell_length_b                   5.2040(2)
_cell_length_c                   16.4787(10)
_cell_angle_alpha                90
_cell_angle_beta                 124.283(4)
_cell_angle_gamma                90
_cell_volume                     810.244
loop_
_atom_site_label
_atom_site_type_symbol
_atom_site_fract_x
_atom_site_fract_y
_atom_site_fract_z
Zn1 Zn 0.33080(6) 0.27991(10) 0.89478(3)
P1 P 0.66266(13) 0.2061(2) 1.00075(8)
H1 H 0.736(5) 0.310(8) 0.969(3)
O1 O 0.5104(4) 0.2033(7) 0.9154(3)
O2 O 0.7216(4) -0.0625(6) 1.0359(2)
O3 O 0.6924(4) 0.3671(6) 1.0857(2)
N1 N 0.1939(4) 0.1978(7) 0.7486(3)
C1 C 0.2089(6) 0.3157(10) 0.6839(3)
H2 H 0.2717 0.4530 0.7050
C2 C 0.1355(7) 0.2440(8) 0.5863(4)
H3 H 0.1500 0.3310 0.5434
C3 C 0.0402(4) 0.0421(7) 0.5526(3)
C4 C 0.0229(5) -0.0763(9) 0.6204(3)
H4 H -0.0414 -0.2104 0.6010
C5 C 0.1006(5) 0.0045(9) 0.7162(3)
H5 H 0.0880 -0.0787 0.7607
N1B N -0.1939(4) -0.1978(7) 0.2514(3)
C1B C -0.2089(6) -0.3157(10) 0.3161(3)
H2B H -0.2717 -0.4530 0.2950
C2B C -0.1355(7) -0.2440(8) 0.4137(4)
H3B H -0.1500 -0.3310 0.4566
C3B C -0.0402(4) -0.0421(7) 0.4474(3)
C4B C -0.0229(5) 0.0763(9) 0.3796(3)
H4B H 0.0414 0.2104 0.3990
C5B C -0.1006(5) -0.0045(9) 0.2838(3)
H5B H -0.0880 0.0787 0.2393
Zn1B Zn -0.33080(6) -0.27991(10) 0.10522(3)
P1B P -0.66266(13) -0.2061(2) -0.00075(8)
H1B H -0.736(5) -0.310(8) 0.031(3)
O1B O -0.5104(4) -0.2033(7) 0.0846(3)
O2B O -0.7216(4) 0.0625(6) -0.0359(2)
O3B O -0.6924(4) -0.3671(6) -0.0857(2)
Zn1_2 Zn -0.66920(6) -0.72009(10) -0.10522(3)
Zn1_3 Zn -0.66920(6) 0.27991(10) -0.10522(3)
Zn1B_2 Zn 0.66920(6) -0.27991(10) 1.10522(3)
Zn1B_3 Zn 0.66920(6) 0.72009(10) 1.10522(3)
O2_2 O -0.2784(4) -0.0625(6) 0.0359(2)
O2B_2 O 0.2784(4) 0.0625(6) 0.9641(2)
O3_2 O -0.3076(4) -0.6329(6) 0.0857(2)
O3B_2 O 0.3076(4) 0.6329(6) 0.9143(2)
O4 O 0.4582(6) 0.7669(6) 0.7729(4)
H6 H 0.4740 0.8479 0.8188
H7 H 0.4631 0.9053 0.7473
loop_
_geom_bond_atom_site_label_1
_geom_bond_atom_site_label_2
_geom_bond_site_symmetry_1
_geom_bond_site_symmetry_2
Zn1 O1 1_555 1_555
P1 H1 1_555 1_555
O1 P1 1_555 1_555
O2 P1 1_555 1_555
O3 P1 1_555 1_555
N1 Zn1 1_555 1_555
C1 N1 1_555 1_555
H2 C1 1_555 1_555
C2 C1 1_555 1_555
H3 C2 1_555 1_555
C3 C2 1_555 1_555
C4 C3 1_555 1_555
H4 C4 1_555 1_555
C5 N1 1_555 1_555
H5 C5 1_555 1_555
O4 H6 1_555 1_555
H7 O4 1_555 1_555
N1B C1B 1_555 1_555
C1B H2B 1_555 1_555
C2B C1B 1_555 1_555
H3B C2B 1_555 1_555
C3B C3 1_555 1_555
C4B C3B 1_555 1_555
H4B C4B 1_555 1_555
C5B N1B 1_555 1_555
H5B C5B 1_555 1_555
Zn1B N1B 1_555 1_555
P1B H1B 1_555 1_555
O1B Zn1B 1_555 1_555
O2B P1B 1_555 1_555
O3B P1B 1_555 1_555
Zn1_2 O3B 1_555 1_555
Zn1_3 O2B 1_555 1_555
Zn1B_2 O2 1_555 1_555
Zn1B_3 O3 1_555 1_555
O2_2 Zn1B 1_555 1_555
O2B_2 Zn1 1_555 1_555
O3_2 Zn1B 1_555 1_555
O3B_2 Zn1 1_555 1_555
C4 C5 1_555 1_555
C2B C3B 1_555 1_555
C4B C5B 1_555 1_555
P1B O1B 1_555 1_555

#END
