
#######################################################################
#
#                 Cambridge Crystallographic Data Centre
#                                CCDC 
#
#######################################################################
#
# If this CIF has been generated from an entry in the Cambridge 
# Structural Database, then it will include bibliographic, chemical, 
# crystal, experimental, refinement or atomic coordinate data resulting 
# from the CCDC's data processing and validation procedures.
#
#######################################################################

data_SINKUX
_symmetry_cell_setting           monoclinic
_symmetry_space_group_name_H-M   'C 2'
_symmetry_Int_Tables_number      5
_space_group_name_Hall           'C 2y'
loop_
_symmetry_equiv_pos_site_id
_symmetry_equiv_pos_as_xyz
1 x,y,z
2 -x,y,-z
3 1/2+x,1/2+y,z
4 1/2-x,1/2+y,-z
_cell_length_a                   17.189(5)
_cell_length_b                   14.748(5)
_cell_length_c                   7.469(5)
_cell_angle_alpha                90
_cell_angle_beta                 100.047(5)
_cell_angle_gamma                90
_cell_volume                     1864.38
loop_
_atom_site_label
_atom_site_type_symbol
_atom_site_fract_x
_atom_site_fract_y
_atom_site_fract_z
Co1 Co 0.81556(4) 0.46921(4) 0.73132(8)
C1 C 0.8962(3) 0.2861(4) 0.7418(8)
H1 H 0.8446 0.2664 0.7393
C2 C 0.9539(3) 0.2221(4) 0.7477(8)
H2 H 0.9416 0.1608 0.7502
C3 C 1.0328(3) 0.2506(3) 0.7499(7)
C4 C 1.0455(4) 0.3429(4) 0.7455(10)
H3 H 1.0962 0.3654 0.7470
C5 C 0.9821(3) 0.4022(4) 0.7389(10)
H4 H 0.9916 0.4642 0.7340
C6 C 1.1456(4) 0.0335(4) 0.7290(10)
H5 H 1.1348 -0.0282 0.7171
C7 C 1.0837(4) 0.0920(4) 0.7358(10)
H6 H 1.0328 0.0695 0.7316
C8 C 1.0975(3) 0.1846(3) 0.7488(7)
C9 C 1.1745(3) 0.2130(4) 0.7589(9)
H7 H 1.1869 0.2743 0.7707
C10 C 1.2327(4) 0.1504(4) 0.7515(9)
H8 H 1.2840 0.1714 0.7557
N1 N 0.9092(3) 0.3747(3) 0.7392(6)
N2 N 1.2201(3) 0.0604(3) 0.7384(6)
O1 O 0.8546(2) 0.5470(2) 0.5286(5)
O2 O 0.8708(2) 0.6184(2) 0.2318(5)
O3 O 0.7664(2) 0.4955(2) 0.2407(5)
O4 O 0.7519(2) 0.3844(2) 0.5219(6)
H9 H 0.709(3) 0.358(4) 0.482(9)
H10 H 0.743(4) 0.416(4) 0.427(7)
O5 O 0.8918(2) 0.5471(2) 0.9244(5)
H11 H 0.879(4) 0.574(4) 1.018(7)
H12 H 0.909(4) 0.583(4) 0.857(8)
O6 O 0.7734(2) 0.3960(2) 0.9414(6)
H13 H 0.729(3) 0.367(4) 0.916(9)
H14 H 0.775(4) 0.420(4) 1.043(7)
P1 P 0.81339(8) 0.57363(8) 0.34004(18)
H15 H 0.756(4) 0.643(4) 0.333(8)
Co1B Co 1.31556(4) -0.03079(4) 0.73132(8)
N2B N 0.7201(3) 0.5604(3) 0.7384(6)
O7 O 0.5985(3) 0.4864(3) 0.2465(6)
O8 O 0.8727(3) 0.8013(3) 0.1537(7)
O9 O 0.9672(2) 0.6610(3) 0.7003(5)
O10 O 0.5950(3) 0.3247(3) 0.4617(6)
O11 O 0.5000 0.3771(4) 0.0000
loop_
_geom_bond_atom_site_label_1
_geom_bond_atom_site_label_2
_geom_bond_site_symmetry_1
_geom_bond_site_symmetry_2
Co1 N1 1_555 1_555
C1 H1 1_555 1_555
C2 C1 1_555 1_555
H2 C2 1_555 1_555
C3 C2 1_555 1_555
C4 C3 1_555 1_555
H3 C4 1_555 1_555
C5 C4 1_555 1_555
H4 C5 1_555 1_555
C6 H5 1_555 1_555
C7 C6 1_555 1_555
H6 C7 1_555 1_555
C8 C3 1_555 1_555
C9 C8 1_555 1_555
H7 C9 1_555 1_555
C10 C9 1_555 1_555
H8 C10 1_555 1_555
N1 C1 1_555 1_555
N2 C6 1_555 1_555
O1 Co1 1_555 1_555
O2 P1 1_555 1_555
O3 P1 1_555 1_555
O4 Co1 1_555 1_555
H9 O4 1_555 1_555
H10 O4 1_555 1_555
O5 Co1 1_555 1_555
H11 O5 1_555 1_555
H12 O5 1_555 1_555
O6 Co1 1_555 1_555
H13 O6 1_555 1_555
H14 O6 1_555 1_555
P1 O1 1_555 1_555
H15 P1 1_555 1_555
Co1B N2 1_555 1_555
N2B Co1 1_555 1_555
C5 N1 1_555 1_555
C7 C8 1_555 1_555
C10 N2 1_555 1_555

#END
