
#######################################################################
#
#                 Cambridge Crystallographic Data Centre
#                                CCDC 
#
#######################################################################
#
# If this CIF has been generated from an entry in the Cambridge 
# Structural Database, then it will include bibliographic, chemical, 
# crystal, experimental, refinement or atomic coordinate data resulting 
# from the CCDC's data processing and validation procedures.
#
#######################################################################

data_SINKOR
_symmetry_cell_setting           monoclinic
_symmetry_space_group_name_H-M   'C 2'
_symmetry_Int_Tables_number      5
_space_group_name_Hall           'C 2y'
loop_
_symmetry_equiv_pos_site_id
_symmetry_equiv_pos_as_xyz
1 x,y,z
2 -x,y,-z
3 1/2+x,1/2+y,z
4 1/2-x,1/2+y,-z
_cell_length_a                   16.696
_cell_length_b                   14.997
_cell_length_c                   7.400
_cell_angle_alpha                90
_cell_angle_beta                 104.42
_cell_angle_gamma                90
_cell_volume                     1794.51
loop_
_atom_site_label
_atom_site_type_symbol
_atom_site_fract_x
_atom_site_fract_y
_atom_site_fract_z
Ni1 Ni 0.31075(3) 0.24110(4) 0.22470(8)
C1 C 0.4797(4) 0.1729(4) 0.2344(10)
H1 H 0.4905 0.2336 0.2321
C2 C 0.5437(4) 0.1146(4) 0.2398(10)
H2 H 0.5961 0.1358 0.2397
C3 C 0.5291(3) 0.0233(4) 0.2453(8)
C4 C 0.4495(4) -0.0020(4) 0.2471(10)
H3 H 0.4365 -0.0621 0.2528
C5 C 0.3899(3) 0.0615(4) 0.2403(10)
H4 H 0.3368 0.0429 0.2414
C6 C 0.5953(3) -0.0423(4) 0.2436(8)
C7 C 0.6750(4) -0.0168(4) 0.2543(10)
H5 H 0.6896 0.0431 0.2671
C8 C 0.7337(4) -0.0806(4) 0.2460(10)
H6 H 0.7876 -0.0619 0.2539
C9 C 0.6407(4) -0.1920(4) 0.2173(11)
H7 H 0.6279 -0.2524 0.2040
C10 C 0.5788(4) -0.1318(4) 0.2258(11)
H8 H 0.5255 -0.1523 0.2193
N1 N 0.4040(3) 0.1478(3) 0.2323(7)
N2 N 0.7174(3) -0.1665(3) 0.2276(7)
O1 O 0.3486(2) 0.3150(3) 0.0274(5)
O2 O 0.3614(3) 0.3817(3) -0.2736(6)
O3 O 0.2550(3) 0.2608(3) -0.2730(6)
O4 O 0.3937(3) 0.3118(3) 0.4283(6)
H9 H 0.387(4) 0.332(5) 0.524(7)
H10 H 0.443(3) 0.343(5) 0.432(9)
O5 O 0.2743(3) 0.1698(3) 0.4308(6)
H11 H 0.282(5) 0.204(4) 0.519(9)
H12 H 0.238(4) 0.130(4) 0.392(10)
O6 O 0.2361(3) 0.1627(3) 0.0152(6)
H13 H 0.237(5) 0.162(6) -0.102(6)
H14 H 0.189(3) 0.143(5) -0.037(10)
P1 P 0.30397(9) 0.33826(11) -0.17087(19)
H15 H 0.239(4) 0.393(5) -0.188(10)
Ni1B Ni 0.81075(3) -0.25890(4) 0.22470(8)
N2B N 0.2174(3) 0.3335(3) 0.2276(7)
O7 O 0.4695(3) 0.4256(4) 0.2087(8)
O9 O 0.1403(9) 0.0628(10) 0.305(4)
O10 O 0.0753(4) 0.2520(7) 0.6551(11)
O11 O 0.0650(5) 0.1085(6) 0.9082(17)
O8? O 0.1452(8) 0.0574(10) 0.391(4)
loop_
_geom_bond_atom_site_label_1
_geom_bond_atom_site_label_2
_geom_bond_site_symmetry_1
_geom_bond_site_symmetry_2
Ni1 N1 1_555 1_555
C1 H1 1_555 1_555
C2 C1 1_555 1_555
H2 C2 1_555 1_555
C3 C2 1_555 1_555
C4 C3 1_555 1_555
H3 C4 1_555 1_555
C5 C4 1_555 1_555
H4 C5 1_555 1_555
C6 C3 1_555 1_555
C7 C6 1_555 1_555
H5 C7 1_555 1_555
C8 C7 1_555 1_555
H6 C8 1_555 1_555
C9 H7 1_555 1_555
C10 C6 1_555 1_555
H8 C10 1_555 1_555
N1 C1 1_555 1_555
N2 C8 1_555 1_555
O1 Ni1 1_555 1_555
O2 P1 1_555 1_555
O3 P1 1_555 1_555
O4 Ni1 1_555 1_555
H9 O4 1_555 1_555
H10 O4 1_555 1_555
O5 Ni1 1_555 1_555
H11 O5 1_555 1_555
H12 O5 1_555 1_555
O6 Ni1 1_555 1_555
H13 O6 1_555 1_555
H14 O6 1_555 1_555
P1 O1 1_555 1_555
H15 P1 1_555 1_555
Ni1B N2 1_555 1_555
N2B Ni1 1_555 1_555
C5 N1 1_555 1_555
C9 C10 1_555 1_555
C9 N2 1_555 1_555

#END
