
#######################################################################
#
#                 Cambridge Crystallographic Data Centre
#                                CCDC 
#
#######################################################################
#
# If this CIF has been generated from an entry in the Cambridge 
# Structural Database, then it will include bibliographic, chemical, 
# crystal, experimental, refinement or atomic coordinate data resulting 
# from the CCDC's data processing and validation procedures.
#
#######################################################################

data_SINKEH
_symmetry_cell_setting           monoclinic
_symmetry_space_group_name_H-M   'C 2/c'
_symmetry_Int_Tables_number      15
_space_group_name_Hall           '-C 2yn'
loop_
_symmetry_equiv_pos_site_id
_symmetry_equiv_pos_as_xyz
1 x,y,z
2 -x,y,1/2-z
3 1/2+x,1/2+y,z
4 1/2-x,1/2+y,1/2-z
5 -x,-y,-z
6 x,-y,1/2+z
7 1/2-x,1/2-y,-z
8 1/2+x,1/2-y,1/2+z
_cell_length_a                   14.824(2)
_cell_length_b                   17.755(2)
_cell_length_c                   9.8630(14)
_cell_angle_alpha                90
_cell_angle_beta                 118.615(2)
_cell_angle_gamma                90
_cell_volume                     2278.87
loop_
_atom_site_label
_atom_site_type_symbol
_atom_site_fract_x
_atom_site_fract_y
_atom_site_fract_z
Zn1 Zn 0.0000 0.32102(2) 0.2500
O1 O -0.06448(16) 0.24987(11) 0.0819(2)
O2 O -0.09822(18) 0.33641(12) -0.0958(2)
N1 N 0.10571(15) 0.39532(12) 0.2580(2)
N2 N 0.19119(18) 0.47834(14) 0.1929(3)
N3 N 0.21812(16) 0.48481(13) 0.3447(3)
C1 C 0.1228(2) 0.42483(17) 0.1454(3)
H1 H 0.0887 0.4083 0.0434
C2 C 0.16708(19) 0.43533(15) 0.3809(3)
H2 H 0.1733 0.4294 0.4787
C3 C 0.2945(2) 0.54076(18) 0.4423(4)
H3 H 0.2938 0.5449 0.5399
H4 H 0.2764 0.5895 0.3919
C4 C 0.4012(2) 0.51942(18) 0.4725(3)
C5 C 0.4475(2) 0.45430(19) 0.5490(4)
H5 H 0.4123 0.4226 0.5827
C6 C 0.4547(2) 0.56539(18) 0.4227(4)
H6 H 0.4249 0.6097 0.3699
C7 C -0.1040(2) 0.27247(17) -0.0576(3)
C8 C -0.1606(3) 0.21106(19) -0.1745(3)
H7 H -0.1132 0.1696 -0.1550
H8 H -0.2154 0.1925 -0.1563
C9 C -0.2066(2) 0.23223(15) -0.3426(3)
C10 C -0.1488(2) 0.23107(18) -0.4178(3)
H9 H -0.0796 0.2182 -0.3631
C11 C -0.3087(2) 0.25139(16) -0.4278(3)
H10 H -0.3498 0.2525 -0.3801
O1F O -0.43552(16) 0.25013(11) -1.0819(2)
O2F O -0.40178(18) 0.16359(12) -0.9042(2)
C7F C -0.3960(2) 0.22753(17) -0.9424(3)
C8F C -0.3394(3) 0.28894(19) -0.8255(3)
H7F H -0.3868 0.3304 -0.8450
H8F H -0.2846 0.3075 -0.8437
C9F C -0.2934(2) 0.26777(15) -0.6574(3)
C10F C -0.3512(2) 0.26893(18) -0.5822(3)
H9F H -0.4204 0.2818 -0.6369
C11F C -0.1913(2) 0.24861(16) -0.5722(3)
H10F H -0.1502 0.2475 -0.6199
N1D N 0.89429(15) 0.60468(12) 0.7420(2)
N2D N 0.80881(18) 0.52166(14) 0.8071(3)
N3D N 0.78188(16) 0.51519(13) 0.6553(3)
C1D C 0.8772(2) 0.57517(17) 0.8546(3)
H1D H 0.9113 0.5917 0.9566
C2D C 0.83292(19) 0.56467(15) 0.6191(3)
H2D H 0.8267 0.5706 0.5213
C3D C 0.7055(2) 0.45924(18) 0.5577(4)
H3D H 0.7062 0.4551 0.4601
H4D H 0.7236 0.4105 0.6081
C4D C 0.5988(2) 0.48058(18) 0.5275(3)
C5D C 0.5525(2) 0.54570(19) 0.4510(4)
H5D H 0.5877 0.5774 0.4173
C6D C 0.5453(2) 0.43461(18) 0.5773(4)
H6D H 0.5751 0.3903 0.6301
Zn1D Zn 1.0000 0.67898(2) 0.7500
Zn1F Zn -0.5000 0.17898(2) -1.2500
O1A O 0.06448(16) 0.24987(11) 0.4181(2)
N1A N -0.10571(15) 0.39532(12) 0.2420(2)
O3 O 0.5000 0.0855(2) 0.2500
H11 H 0.5265 0.1135 0.2084
H11A H 0.4735 0.1135 0.2916
H12? H 0.5264 0.1135 0.2084
loop_
_geom_bond_atom_site_label_1
_geom_bond_atom_site_label_2
_geom_bond_site_symmetry_1
_geom_bond_site_symmetry_2
Zn1 O1 1_555 1_555
O1 C7 1_555 1_555
O2 C7 1_555 1_555
N1 Zn1 1_555 1_555
N2 N3 1_555 1_555
N3 C2 1_555 1_555
C1 N1 1_555 1_555
H1 C1 1_555 1_555
C2 N1 1_555 1_555
H2 C2 1_555 1_555
C3 N3 1_555 1_555
H3 C3 1_555 1_555
H4 C3 1_555 1_555
C4 C3 1_555 1_555
C5 C4 1_555 1_555
H5 C5 1_555 1_555
C6 C4 1_555 1_555
H6 C6 1_555 1_555
C7 C8 1_555 1_555
C8 H7 1_555 1_555
H8 C8 1_555 1_555
C9 C8 1_555 1_555
C10 C9 1_555 1_555
H9 C10 1_555 1_555
C11 C9 1_555 1_555
H10 C11 1_555 1_555
O3 H11 1_555 1_555
O1F C7F 1_555 1_555
O2F C7F 1_555 1_555
C7F C8F 1_555 1_555
C8F H7F 1_555 1_555
H8F C8F 1_555 1_555
C9F C8F 1_555 1_555
C10F C11 1_555 1_555
H9F C10F 1_555 1_555
C11F C10 1_555 1_555
H10F C11F 1_555 1_555
N1D C1D 1_555 1_555
N2D N3D 1_555 1_555
N3D C2D 1_555 1_555
C1D N2D 1_555 1_555
H1D C1D 1_555 1_555
C2D N1D 1_555 1_555
H2D C2D 1_555 1_555
C3D N3D 1_555 1_555
H3D C3D 1_555 1_555
H4D C3D 1_555 1_555
C4D C3D 1_555 1_555
C5D C6 1_555 1_555
H5D C5D 1_555 1_555
C6D C5 1_555 1_555
H6D C6D 1_555 1_555
Zn1D N1D 1_555 1_555
Zn1F O1F 1_555 1_555
O1A Zn1 1_555 1_555
N1A Zn1 1_555 1_555
H11A O3 1_555 1_555
N2 C1 1_555 1_555
C9F C10F 1_555 1_555
C9F C11F 1_555 1_555
C4D C5D 1_555 1_555
C4D C6D 1_555 1_555

#END
