
#######################################################################
#
#                 Cambridge Crystallographic Data Centre
#                                CCDC 
#
#######################################################################
#
# If this CIF has been generated from an entry in the Cambridge 
# Structural Database, then it will include bibliographic, chemical, 
# crystal, experimental, refinement or atomic coordinate data resulting 
# from the CCDC's data processing and validation procedures.
#
#######################################################################

data_SINLOS
_symmetry_cell_setting           triclinic
_symmetry_space_group_name_H-M   'P -1'
_symmetry_Int_Tables_number      2
_space_group_name_Hall           '-P 1'
loop_
_symmetry_equiv_pos_site_id
_symmetry_equiv_pos_as_xyz
1 x,y,z
2 -x,-y,-z
_cell_length_a                   7.481(3)
_cell_length_b                   8.648(4)
_cell_length_c                   10.771(4)
_cell_angle_alpha                106.586(4)
_cell_angle_beta                 102.530(4)
_cell_angle_gamma                94.388(4)
_cell_volume                     644.76
loop_
_atom_site_label
_atom_site_type_symbol
_atom_site_fract_x
_atom_site_fract_y
_atom_site_fract_z
Tb1 Tb 0.74856(4) 0.75639(3) 0.58529(2)
O1 O 0.4137(7) 0.4167(6) 0.3372(5)
O2 O 0.4911(7) 0.6861(6) 0.4008(4)
O3 O 0.1576(9) 0.8243(7) -0.0050(5)
O4 O 0.8220(7) 0.5654(7) 0.4036(5)
O5 O 1.0329(7) 0.4125(6) 0.3404(4)
O6 O 1.0642(7) 0.8596(7) 0.5814(5)
O7 O 1.2351(7) 1.0202(6) 0.5072(5)
O8 O 0.8874(7) 0.9010(6) 0.8153(5)
H1 H 0.9507 0.8295 0.8572
H2 H 0.7929 0.9388 0.8591
O9 O 0.5292(7) 0.9217(7) 0.6628(5)
H3 H 0.4508 0.8625 0.6987
H4 H 0.4551 0.9489 0.5895
N1 N 0.1742(9) 0.5520(7) -0.0774(5)
H5 H 0.1208 0.5505 -0.1571
C1 C 0.2091(11) 0.7001(9) 0.0226(7)
C2 C 0.2882(11) 0.6960(9) 0.1539(7)
H6 H 0.3107 0.7908 0.2262
C3 C 0.3317(9) 0.5513(8) 0.1742(6)
C4 C 0.2970(10) 0.4063(8) 0.0677(6)
H7 H 0.3272 0.3097 0.0827
C5 C 0.2174(10) 0.4083(9) -0.0601(7)
C6 C 0.4172(9) 0.5519(9) 0.3153(7)
C7 C 0.1792(13) 0.2598(9) -0.1804(7)
H8 H 0.0601 0.2562 -0.2376
H9 H 0.1802 0.1639 -0.1524
H10 H 0.2728 0.2642 -0.2283
C8 C 0.9585(9) 0.4927(8) 0.4255(6)
C9 C 1.0872(9) 0.9649(8) 0.5259(7)
O4A O 1.1780(7) 0.4346(7) 0.5964(5)
O5A O 0.9671(7) 0.5875(6) 0.6596(4)
C8A C 1.0415(9) 0.5073(8) 0.5745(6)
O6A O 0.9358(7) 1.1404(7) 0.4186(5)
O7A O 0.7649(7) 0.9798(6) 0.4928(5)
C9A C 0.9128(9) 1.0351(8) 0.4741(7)
Tb1A Tb 0.25144(4) 0.24361(3) 0.41471(2)
O1A O 0.5863(7) 0.5833(6) 0.6628(5)
O2A O 0.5089(7) 0.3139(6) 0.5992(4)
O3A O 0.8424(9) 0.1757(7) 1.0050(5)
O8A O 0.1126(7) 0.0990(6) 0.1847(5)
H1A H 0.0493 0.1705 0.1428
H2A H 0.2071 0.0612 0.1409
O9A O 0.4708(7) 0.0783(7) 0.3372(5)
H3A H 0.5492 0.1375 0.3013
H4A H 0.5449 0.0511 0.4105
N1A N 0.8258(9) 0.4480(7) 1.0774(5)
H5A H 0.8792 0.4495 1.1571
C1A C 0.7909(11) 0.2999(9) 0.9774(7)
C2A C 0.7118(11) 0.3040(9) 0.8461(7)
H6A H 0.6893 0.2092 0.7738
C3A C 0.6683(9) 0.4487(8) 0.8258(6)
C4A C 0.7030(10) 0.5937(8) 0.9323(6)
H7A H 0.6728 0.6903 0.9173
C5A C 0.7826(10) 0.5917(9) 1.0601(7)
C6A C 0.5828(9) 0.4481(9) 0.6847(7)
C7A C 0.8208(13) 0.7402(9) 1.1804(7)
H8A H 0.9399 0.7438 1.2376
H9A H 0.8198 0.8361 1.1524
H10A H 0.7272 0.7358 1.2283
Tb1A_2 Tb 1.25144(4) 0.24361(3) 0.41471(2)
Tb1A_3 Tb 1.25144(4) 1.24361(3) 0.41471(2)
O4A_2 O 0.1780(7) 0.4346(7) 0.5964(5)
O5_2 O 0.0329(7) 0.4125(6) 0.3404(4)
O6A_2 O -0.0642(7) 0.1404(7) 0.4186(5)
O7_2 O 0.2351(7) 0.0202(6) 0.5072(5)
loop_
_geom_bond_atom_site_label_1
_geom_bond_atom_site_label_2
_geom_bond_site_symmetry_1
_geom_bond_site_symmetry_2
Tb1 O2 1_555 1_555
O1 C6 1_555 1_555
O2 C6 1_555 1_555
O3 C1 1_555 1_555
O4 Tb1 1_555 1_555
O5 C8 1_555 1_555
O6 Tb1 1_555 1_555
O7 C9 1_555 1_555
O8 Tb1 1_555 1_555
H1 O8 1_555 1_555
H2 O8 1_555 1_555
O9 Tb1 1_555 1_555
H3 O9 1_555 1_555
H4 O9 1_555 1_555
N1 H5 1_555 1_555
C1 N1 1_555 1_555
C2 C1 1_555 1_555
H6 C2 1_555 1_555
C3 C2 1_555 1_555
C4 C3 1_555 1_555
H7 C4 1_555 1_555
C5 N1 1_555 1_555
C6 C3 1_555 1_555
C7 C5 1_555 1_555
H8 C7 1_555 1_555
H9 C7 1_555 1_555
H10 C7 1_555 1_555
C8 O4 1_555 1_555
C9 O6 1_555 1_555
O4A C8A 1_555 1_555
O5A Tb1 1_555 1_555
C8A C8 1_555 1_555
O6A C9A 1_555 1_555
O7A Tb1 1_555 1_555
C9A C9 1_555 1_555
Tb1A O1 1_555 1_555
O1A Tb1 1_555 1_555
O2A Tb1A 1_555 1_555
O3A C1A 1_555 1_555
O8A Tb1A 1_555 1_555
H1A O8A 1_555 1_555
H2A O8A 1_555 1_555
O9A Tb1A 1_555 1_555
H3A O9A 1_555 1_555
H4A O9A 1_555 1_555
N1A H5A 1_555 1_555
C1A N1A 1_555 1_555
C2A C1A 1_555 1_555
H6A C2A 1_555 1_555
C3A C2A 1_555 1_555
C4A C3A 1_555 1_555
H7A C4A 1_555 1_555
C5A N1A 1_555 1_555
C6A O1A 1_555 1_555
C7A C5A 1_555 1_555
H8A C7A 1_555 1_555
H9A C7A 1_555 1_555
H10A C7A 1_555 1_555
Tb1A_2 O5 1_555 1_555
Tb1A_3 O7 1_555 1_555
O4A_2 Tb1A 1_555 1_555
O5_2 Tb1A 1_555 1_555
O6A_2 Tb1A 1_555 1_555
O7_2 Tb1A 1_555 1_555
C4 C5 1_555 1_555
O4A Tb1A_2 1_555 1_555
O5A C8A 1_555 1_555
O6A Tb1A_3 1_555 1_555
O7A C9A 1_555 1_555
O2A C6A 1_555 1_555
C3A C6A 1_555 1_555
C4A C5A 1_555 1_555

#END
