
#######################################################################
#
#                 Cambridge Crystallographic Data Centre
#                                CCDC 
#
#######################################################################
#
# If this CIF has been generated from an entry in the Cambridge 
# Structural Database, then it will include bibliographic, chemical, 
# crystal, experimental, refinement or atomic coordinate data resulting 
# from the CCDC's data processing and validation procedures.
#
#######################################################################

data_SINLEI
_symmetry_cell_setting           triclinic
_symmetry_space_group_name_H-M   'P -1'
_symmetry_Int_Tables_number      2
_space_group_name_Hall           '-P 1'
loop_
_symmetry_equiv_pos_site_id
_symmetry_equiv_pos_as_xyz
1 x,y,z
2 -x,-y,-z
_cell_length_a                   7.5491(5)
_cell_length_b                   8.7078(5)
_cell_length_c                   10.8240(7)
_cell_angle_alpha                106.6540(10)
_cell_angle_beta                 102.6600(10)
_cell_angle_gamma                94.3800(10)
_cell_volume                     657.693
loop_
_atom_site_label
_atom_site_type_symbol
_atom_site_fract_x
_atom_site_fract_y
_atom_site_fract_z
Eu1 Eu 0.747268(13) 0.756510(11) 0.585553(9)
O1 O 0.4889(2) 0.6859(2) 0.39876(16)
O2 O 0.4147(2) 0.4165(2) 0.33444(17)
O3 O 0.1565(3) 0.8225(2) -0.00578(18)
O4 O 1.0636(2) 0.8602(2) 0.58210(19)
O5 O 1.2347(2) 1.0196(2) 0.50838(18)
O6 O 0.9676(2) 0.58661(19) 0.65973(15)
O7 O 1.1789(2) 0.4369(2) 0.59693(16)
O8 O 0.5281(3) 0.9235(2) 0.66296(18)
H1 H 0.489(4) 0.905(4) 0.724(2)
H2 H 0.446(3) 0.952(4) 0.612(2)
O9 O 0.8860(3) 0.9015(2) 0.81742(16)
H3 H 0.972(3) 0.873(3) 0.867(2)
H4 H 0.857(4) 0.987(2) 0.862(3)
N1 N 0.1728(3) 0.5519(2) -0.07823(19)
H5 H 0.121(4) 0.554(4) -0.1582(15)
C1 C 0.4183(3) 0.5517(3) 0.3137(2)
C2 C 0.3314(3) 0.5518(3) 0.1733(2)
C3 C 0.2882(3) 0.6945(3) 0.1526(2)
H6 H 0.3148 0.7897 0.2240
C4 C 0.2028(4) 0.6972(3) 0.0220(2)
C5 C 0.2169(3) 0.4089(3) -0.0604(2)
C6 C 0.2957(3) 0.4068(3) 0.0659(2)
H7 H 0.3253 0.3107 0.0806
C7 C 0.1756(4) 0.2618(3) -0.1816(2)
H8 H 0.0545 0.2568 -0.2353
H9 H 0.1821 0.1661 -0.1546
H10 H 0.2637 0.2684 -0.2324
C8 C 1.0853(3) 0.9642(3) 0.5262(2)
C9 C 1.0423(3) 0.5068(3) 0.5741(2)
O4A O 0.9364(2) 1.1398(2) 0.41790(19)
O5A O 0.7653(2) 0.9804(2) 0.49162(18)
C8A C 0.9147(3) 1.0358(3) 0.4738(2)
O6A O 1.0324(2) 0.41339(19) 0.34027(15)
O7A O 0.8211(2) 0.5631(2) 0.40307(16)
C9A C 0.9577(3) 0.4932(3) 0.4259(2)
Eu1A Eu 0.252732(13) 0.243490(11) 0.414447(9)
O1A O 0.5111(2) 0.3141(2) 0.60124(16)
O2A O 0.5853(2) 0.5835(2) 0.66556(17)
O3A O 0.8435(3) 0.1775(2) 1.00578(18)
O8A O 0.4719(3) 0.0765(2) 0.33704(18)
H1A H 0.511(4) 0.095(4) 0.276(2)
H2A H 0.554(3) 0.048(4) 0.388(2)
O9A O 0.1140(3) 0.0985(2) 0.18258(16)
H3A H 0.028(3) 0.127(3) 0.133(2)
H4A H 0.143(4) 0.013(2) 0.138(3)
N1A N 0.8272(3) 0.4481(2) 1.07823(19)
H5A H 0.879(4) 0.446(4) 1.1582(15)
C1A C 0.5817(3) 0.4483(3) 0.6863(2)
C2A C 0.6686(3) 0.4482(3) 0.8267(2)
C3A C 0.7118(3) 0.3055(3) 0.8474(2)
H6A H 0.6852 0.2103 0.7760
C4A C 0.7972(4) 0.3028(3) 0.9780(2)
C5A C 0.7831(3) 0.5911(3) 1.0604(2)
C6A C 0.7043(3) 0.5932(3) 0.9341(2)
H7A H 0.6747 0.6893 0.9194
C7A C 0.8244(4) 0.7382(3) 1.1816(2)
H8A H 0.9455 0.7432 1.2353
H9A H 0.8179 0.8339 1.1546
H10A H 0.7363 0.7316 1.2324
Eu1A_2 Eu 1.252732(13) 0.243490(11) 0.414447(9)
Eu1A_3 Eu 1.252732(13) 1.243490(11) 0.414447(9)
O4A_2 O -0.0636(2) 0.1398(2) 0.41790(19)
O5_2 O 0.2347(2) 0.0196(2) 0.50838(18)
O6A_2 O 0.0324(2) 0.41339(19) 0.34027(15)
O7_2 O 0.1789(2) 0.4369(2) 0.59693(16)
O10 O 0.4692(8) 0.9625(7) -0.0857(5)
H11 H 0.4028 0.9406 -0.0383
H12 H 0.5650 1.0242 -0.0360
O11? O 0.3626(9) 0.8109(9) -0.1912(7)
H13? H 0.3083 0.7908 -0.1364
H14? H 0.4166 0.7324 -0.2199
loop_
_geom_bond_atom_site_label_1
_geom_bond_atom_site_label_2
_geom_bond_site_symmetry_1
_geom_bond_site_symmetry_2
Eu1 O1 1_555 1_555
O1 C1 1_555 1_555
O2 C1 1_555 1_555
O3 C4 1_555 1_555
O4 Eu1 1_555 1_555
O5 C8 1_555 1_555
O6 Eu1 1_555 1_555
O7 C9 1_555 1_555
O8 Eu1 1_555 1_555
H1 O8 1_555 1_555
H2 O8 1_555 1_555
O9 Eu1 1_555 1_555
H3 O9 1_555 1_555
H4 O9 1_555 1_555
N1 H5 1_555 1_555
C1 C2 1_555 1_555
C2 C3 1_555 1_555
C3 H6 1_555 1_555
C4 N1 1_555 1_555
C5 N1 1_555 1_555
C6 C2 1_555 1_555
H7 C6 1_555 1_555
C7 C5 1_555 1_555
H8 C7 1_555 1_555
H9 C7 1_555 1_555
H10 C7 1_555 1_555
C8 O4 1_555 1_555
C9 O6 1_555 1_555
O10 H11 1_555 1_555
H12 O10 1_555 1_555
O4A C8A 1_555 1_555
O5A Eu1 1_555 1_555
C8A C8 1_555 1_555
O6A C9A 1_555 1_555
O7A Eu1 1_555 1_555
C9A C9 1_555 1_555
Eu1A O2 1_555 1_555
O1A Eu1A 1_555 1_555
O2A Eu1 1_555 1_555
O3A C4A 1_555 1_555
O8A Eu1A 1_555 1_555
H1A O8A 1_555 1_555
H2A O8A 1_555 1_555
O9A Eu1A 1_555 1_555
H3A O9A 1_555 1_555
H4A O9A 1_555 1_555
N1A H5A 1_555 1_555
C1A O1A 1_555 1_555
C2A C1A 1_555 1_555
C3A C2A 1_555 1_555
H6A C3A 1_555 1_555
C4A N1A 1_555 1_555
C5A N1A 1_555 1_555
C6A C2A 1_555 1_555
H7A C6A 1_555 1_555
C7A C5A 1_555 1_555
H8A C7A 1_555 1_555
H9A C7A 1_555 1_555
H10A C7A 1_555 1_555
Eu1A_2 O7 1_555 1_555
Eu1A_3 O5 1_555 1_555
O4A_2 Eu1A 1_555 1_555
O5_2 Eu1A 1_555 1_555
O6A_2 Eu1A 1_555 1_555
O7_2 Eu1A 1_555 1_555
C3 C4 1_555 1_555
C5 C6 1_555 1_555
O4A Eu1A_3 1_555 1_555
O5A C8A 1_555 1_555
O6A Eu1A_2 1_555 1_555
O7A C9A 1_555 1_555
O2A C1A 1_555 1_555
C3A C4A 1_555 1_555
C5A C6A 1_555 1_555

#END
