
#######################################################################
#
#                 Cambridge Crystallographic Data Centre
#                                CCDC 
#
#######################################################################
#
# If this CIF has been generated from an entry in the Cambridge 
# Structural Database, then it will include bibliographic, chemical, 
# crystal, experimental, refinement or atomic coordinate data resulting 
# from the CCDC's data processing and validation procedures.
#
#######################################################################

data_SINLIM
_symmetry_cell_setting           triclinic
_symmetry_space_group_name_H-M   'P -1'
_symmetry_Int_Tables_number      2
_space_group_name_Hall           '-P 1'
loop_
_symmetry_equiv_pos_site_id
_symmetry_equiv_pos_as_xyz
1 x,y,z
2 -x,-y,-z
_cell_length_a                   7.569
_cell_length_b                   8.766
_cell_length_c                   10.893
_cell_angle_alpha                106.60
_cell_angle_beta                 102.73
_cell_angle_gamma                94.14
_cell_volume                     668.503
loop_
_atom_site_label
_atom_site_type_symbol
_atom_site_fract_x
_atom_site_fract_y
_atom_site_fract_z
Gd1 Gd 0.25212(3) 0.24368(2) 0.414513(19)
O1 O 0.5101(5) 0.3136(4) 0.6002(4)
O2 O 0.5857(5) 0.5834(4) 0.6637(4)
O3 O 0.8413(7) 0.1762(5) 1.0059(4)
O4 O 0.2348(5) 0.0200(5) 0.5076(4)
O5 O 0.0647(5) -0.1401(5) 0.5819(5)
O6 O 0.1781(6) 0.4361(5) 0.5972(4)
O7 O -0.0320(5) 0.5871(4) 0.6602(4)
O8 O 0.4727(6) 0.0782(5) 0.3377(4)
H1 H 0.5791 0.1245 0.3793
H2 H 0.4598 0.0637 0.2564
O9 O 0.1130(6) 0.0981(5) 0.1840(4)
H3 H 0.1946 0.0648 0.1462
H4 H 0.0580 0.1594 0.1472
N1 N 0.8262(7) 0.4480(5) 1.0787(4)
H5 H 0.8766 0.4492 1.1599
C1 C 0.5823(7) 0.4483(6) 0.6860(5)
C2 C 0.6672(7) 0.4466(6) 0.8254(5)
C3 C 0.7103(8) 0.3054(7) 0.8469(6)
H6 H 0.6838 0.2106 0.7763
C4 C 0.7962(8) 0.3029(7) 0.9780(5)
C5 C 0.7816(8) 0.5905(6) 1.0589(5)
C6 C 0.7034(7) 0.5932(6) 0.9339(5)
H7 H 0.6740 0.6888 0.9193
C7 C 0.8227(10) 0.7408(7) 1.1817(6)
H8 H 0.9420 0.7446 1.2367
H9 H 0.7325 0.7361 1.2307
H10 H 0.8190 0.8355 1.1541
C8 C 0.0862(7) -0.0360(6) 0.5260(5)
C9 C 0.0425(7) 0.5055(6) 0.5738(5)
O4A O -0.2348(5) -0.0200(5) 0.4924(4)
O5A O -0.0647(5) 0.1401(5) 0.4181(5)
C8A C -0.0862(7) 0.0360(6) 0.4740(5)
O6A O -0.1781(6) 0.5639(5) 0.4028(4)
O7A O 0.0320(5) 0.4129(4) 0.3398(4)
C9A C -0.0425(7) 0.4945(6) 0.4262(5)
Gd1A Gd -0.25212(3) -0.24368(2) 0.585487(19)
O1A O -0.5101(5) -0.3136(4) 0.3998(4)
O2A O -0.5857(5) -0.5834(4) 0.3363(4)
O3A O -0.8413(7) -0.1762(5) -0.0059(4)
O8A O -0.4727(6) -0.0782(5) 0.6623(4)
H1A H -0.5791 -0.1245 0.6207
H2A H -0.4598 -0.0637 0.7436
O9A O -0.1130(6) -0.0981(5) 0.8160(4)
H3A H -0.1946 -0.0648 0.8538
H4A H -0.0580 -0.1594 0.8528
N1A N -0.8262(7) -0.4480(5) -0.0787(4)
H5A H -0.8766 -0.4492 -0.1599
C1A C -0.5823(7) -0.4483(6) 0.3140(5)
C2A C -0.6672(7) -0.4466(6) 0.1746(5)
C3A C -0.7103(8) -0.3054(7) 0.1531(6)
H6A H -0.6838 -0.2106 0.2237
C4A C -0.7962(8) -0.3029(7) 0.0220(5)
C5A C -0.7816(8) -0.5905(6) -0.0589(5)
C6A C -0.7034(7) -0.5932(6) 0.0661(5)
H7A H -0.6740 -0.6888 0.0807
C7A C -0.8227(10) -0.7408(7) -0.1817(6)
H8A H -0.9420 -0.7446 -0.2367
H9A H -0.7325 -0.7361 -0.2307
H10A H -0.8190 -0.8355 -0.1541
Gd1_2 Gd -0.74788(3) -0.75632(2) 0.414513(19)
Gd1A_2 Gd -0.25212(3) 0.75632(2) 0.585487(19)
Gd1A_3 Gd 0.74788(3) 0.75632(2) 0.585487(19)
O2_2 O -0.4143(5) -0.4166(4) 0.6637(4)
O2A_2 O 0.4143(5) 0.4166(4) 0.3363(4)
O6A_2 O -0.1781(6) -0.4361(5) 0.4028(4)
O7_2 O -0.0320(5) -0.4129(4) 0.6602(4)
O10 O 0.528(2) 0.0378(19) 0.0855(13)
O11? O 0.637(2) 0.191(2) 0.1897(14)
loop_
_geom_bond_atom_site_label_1
_geom_bond_atom_site_label_2
_geom_bond_site_symmetry_1
_geom_bond_site_symmetry_2
Gd1 O1 1_555 1_555
O1 C1 1_555 1_555
O2 C1 1_555 1_555
O3 C4 1_555 1_555
O4 Gd1 1_555 1_555
O5 C8 1_555 1_555
O6 Gd1 1_555 1_555
O7 C9 1_555 1_555
O8 Gd1 1_555 1_555
H1 O8 1_555 1_555
H2 O8 1_555 1_555
O9 Gd1 1_555 1_555
H3 O9 1_555 1_555
H4 O9 1_555 1_555
N1 H5 1_555 1_555
C1 C2 1_555 1_555
C2 C3 1_555 1_555
C3 H6 1_555 1_555
C4 N1 1_555 1_555
C5 N1 1_555 1_555
C6 C2 1_555 1_555
H7 C6 1_555 1_555
C7 C5 1_555 1_555
H8 C7 1_555 1_555
H9 C7 1_555 1_555
H10 C7 1_555 1_555
C8 O4 1_555 1_555
C9 O6 1_555 1_555
O4A C8A 1_555 1_555
O5A Gd1 1_555 1_555
C8A C8 1_555 1_555
O6A C9A 1_555 1_555
O7A Gd1 1_555 1_555
C9A C9 1_555 1_555
Gd1A O5 1_555 1_555
O1A Gd1A 1_555 1_555
O2A C1A 1_555 1_555
O3A C4A 1_555 1_555
O8A Gd1A 1_555 1_555
H1A O8A 1_555 1_555
H2A O8A 1_555 1_555
O9A Gd1A 1_555 1_555
H3A O9A 1_555 1_555
H4A O9A 1_555 1_555
N1A H5A 1_555 1_555
C1A O1A 1_555 1_555
C2A C1A 1_555 1_555
C3A C2A 1_555 1_555
H6A C3A 1_555 1_555
C4A N1A 1_555 1_555
C5A N1A 1_555 1_555
C6A C2A 1_555 1_555
H7A C6A 1_555 1_555
C7A C5A 1_555 1_555
H8A C7A 1_555 1_555
H9A C7A 1_555 1_555
H10A C7A 1_555 1_555
Gd1_2 O2A 1_555 1_555
Gd1A_2 O7 1_555 1_555
Gd1A_3 O2 1_555 1_555
O2_2 Gd1A 1_555 1_555
O2A_2 Gd1 1_555 1_555
O6A_2 Gd1A 1_555 1_555
O7_2 Gd1A 1_555 1_555
C3 C4 1_555 1_555
C5 C6 1_555 1_555
O4A Gd1A 1_555 1_555
O5A C8A 1_555 1_555
O6A Gd1A_2 1_555 1_555
O7A C9A 1_555 1_555
C3A C4A 1_555 1_555
C5A C6A 1_555 1_555

#END
