
#######################################################################
#
#                 Cambridge Crystallographic Data Centre
#                                CCDC 
#
#######################################################################
#
# If this CIF has been generated from an entry in the Cambridge 
# Structural Database, then it will include bibliographic, chemical, 
# crystal, experimental, refinement or atomic coordinate data resulting 
# from the CCDC's data processing and validation procedures.
#
#######################################################################

data_SINLUY
_symmetry_cell_setting           triclinic
_symmetry_space_group_name_H-M   'P -1'
_symmetry_Int_Tables_number      2
_space_group_name_Hall           '-P 1'
loop_
_symmetry_equiv_pos_site_id
_symmetry_equiv_pos_as_xyz
1 x,y,z
2 -x,-y,-z
_cell_length_a                   7.4292(9)
_cell_length_b                   8.6094(11)
_cell_length_c                   10.7126(13)
_cell_angle_alpha                106.5520(10)
_cell_angle_beta                 102.3340(10)
_cell_angle_gamma                94.4210(10)
_cell_volume                     634.636
loop_
_atom_site_label
_atom_site_type_symbol
_atom_site_fract_x
_atom_site_fract_y
_atom_site_fract_z
Ho1 Ho 0.74947(6) 0.25611(5) 0.58503(4)
O1 O 0.4924(11) 0.1871(9) 0.4023(7)
O2 O 0.4140(11) -0.0842(10) 0.3389(8)
O3 O 0.1605(14) 0.3258(11) -0.0049(9)
O4 O 0.8220(11) 0.0686(10) 0.4033(7)
O5 O 1.0331(10) -0.0880(9) 0.3392(7)
O6 O 1.0666(10) 0.3575(10) 0.5803(9)
O7 O 1.2352(10) 0.5214(10) 0.5053(9)
O8 O 0.5309(12) 0.4192(10) 0.6623(8)
H1 H 0.4807 0.3697 0.7061
H2 H 0.4495 0.4415 0.6050
O9 O 0.8855(11) 0.3988(10) 0.8120(8)
H3 H 0.8599 0.4844 0.8619
H4 H 0.9701 0.3650 0.8586
N1 N 0.1772(14) 0.0526(12) -0.0767(10)
H5 H 0.1251 0.0522 -0.1587
C1 C 0.4182(14) 0.0518(13) 0.3168(11)
C2 C 0.3331(15) 0.0509(14) 0.1755(10)
C3 C 0.2901(16) 0.1969(14) 0.1554(11)
H6 H 0.3147 0.2929 0.2274
C4 C 0.2080(17) 0.1979(15) 0.0235(12)
C5 C 0.2211(17) -0.0935(14) -0.0599(11)
C6 C 0.2977(16) -0.0932(14) 0.0683(12)
H7 H 0.3264 -0.1904 0.0839
C7 C 0.181(2) -0.2402(15) -0.1785(11)
H8 H 0.1907 -0.3359 -0.1500
H9 H 0.2687 -0.2330 -0.2313
H10 H 0.0570 -0.2473 -0.2315
C8 C 0.9573(14) -0.0062(13) 0.4273(10)
C9 C 1.0860(14) 0.4648(14) 0.5250(11)
O4A O 1.1780(11) -0.0686(10) 0.5967(7)
O5A O 0.9669(10) 0.0880(9) 0.6608(7)
C8A C 1.0427(14) 0.0062(13) 0.5727(10)
O6A O 0.9334(10) 0.6425(10) 0.4197(9)
O7A O 0.7648(10) 0.4786(10) 0.4947(9)
C9A C 0.9140(14) 0.5352(14) 0.4750(11)
Ho1A Ho 0.25053(6) -0.25611(5) 0.41497(4)
O1A O 0.5076(11) -0.1871(9) 0.5977(7)
O2A O 0.5860(11) 0.0842(10) 0.6611(8)
O3A O 0.8395(14) -0.3258(11) 1.0049(9)
O8A O 0.4691(12) -0.4192(10) 0.3377(8)
H1A H 0.5193 -0.3697 0.2939
H2A H 0.5505 -0.4415 0.3950
O9A O 0.1145(11) -0.3988(10) 0.1880(8)
H3A H 0.1401 -0.4844 0.1381
H4A H 0.0299 -0.3650 0.1414
N1A N 0.8228(14) -0.0526(12) 1.0767(10)
H5A H 0.8749 -0.0522 1.1587
C1A C 0.5818(14) -0.0518(13) 0.6832(11)
C2A C 0.6669(15) -0.0509(14) 0.8245(10)
C3A C 0.7099(16) -0.1969(14) 0.8446(11)
H6A H 0.6853 -0.2929 0.7726
C4A C 0.7920(17) -0.1979(15) 0.9765(12)
C5A C 0.7789(17) 0.0935(14) 1.0599(11)
C6A C 0.7023(16) 0.0932(14) 0.9317(12)
H7A H 0.6736 0.1904 0.9161
C7A C 0.819(2) 0.2402(15) 1.1785(11)
H8A H 0.8093 0.3359 1.1500
H9A H 0.7313 0.2330 1.2313
H10A H 0.9430 0.2473 1.2315
Ho1A_2 Ho 1.25053(6) -0.25611(5) 0.41497(4)
Ho1A_3 Ho 1.25053(6) 0.74389(5) 0.41497(4)
O4A_2 O 0.1780(11) -0.0686(10) 0.5967(7)
O5_2 O 0.0331(10) -0.0880(9) 0.3392(7)
O6A_2 O -0.0666(10) -0.3575(10) 0.4197(9)
O7_2 O 0.2352(10) -0.4786(10) 0.5053(9)
loop_
_geom_bond_atom_site_label_1
_geom_bond_atom_site_label_2
_geom_bond_site_symmetry_1
_geom_bond_site_symmetry_2
Ho1 O1 1_555 1_555
O1 C1 1_555 1_555
O2 C1 1_555 1_555
O3 C4 1_555 1_555
O4 Ho1 1_555 1_555
O5 C8 1_555 1_555
O6 Ho1 1_555 1_555
O7 C9 1_555 1_555
O8 Ho1 1_555 1_555
H1 O8 1_555 1_555
H2 O8 1_555 1_555
O9 Ho1 1_555 1_555
H3 O9 1_555 1_555
H4 O9 1_555 1_555
N1 H5 1_555 1_555
C1 C2 1_555 1_555
C2 C3 1_555 1_555
C3 H6 1_555 1_555
C4 N1 1_555 1_555
C5 N1 1_555 1_555
C6 C2 1_555 1_555
H7 C6 1_555 1_555
C7 C5 1_555 1_555
H8 C7 1_555 1_555
H9 C7 1_555 1_555
H10 C7 1_555 1_555
C8 O4 1_555 1_555
C9 O6 1_555 1_555
O4A C8A 1_555 1_555
O5A Ho1 1_555 1_555
C8A C8 1_555 1_555
O6A C9A 1_555 1_555
O7A Ho1 1_555 1_555
C9A C9 1_555 1_555
Ho1A O2 1_555 1_555
O1A Ho1A 1_555 1_555
O2A Ho1 1_555 1_555
O3A C4A 1_555 1_555
O8A Ho1A 1_555 1_555
H1A O8A 1_555 1_555
H2A O8A 1_555 1_555
O9A Ho1A 1_555 1_555
H3A O9A 1_555 1_555
H4A O9A 1_555 1_555
N1A H5A 1_555 1_555
C1A O1A 1_555 1_555
C2A C1A 1_555 1_555
C3A C2A 1_555 1_555
H6A C3A 1_555 1_555
C4A N1A 1_555 1_555
C5A N1A 1_555 1_555
C6A C2A 1_555 1_555
H7A C6A 1_555 1_555
C7A C5A 1_555 1_555
H8A C7A 1_555 1_555
H9A C7A 1_555 1_555
H10A C7A 1_555 1_555
Ho1A_2 O5 1_555 1_555
Ho1A_3 O7 1_555 1_555
O4A_2 Ho1A 1_555 1_555
O5_2 Ho1A 1_555 1_555
O6A_2 Ho1A 1_555 1_555
O7_2 Ho1A 1_555 1_555
C3 C4 1_555 1_555
C5 C6 1_555 1_555
O4A Ho1A_2 1_555 1_555
O5A C8A 1_555 1_555
O6A Ho1A_3 1_555 1_555
O7A C9A 1_555 1_555
O2A C1A 1_555 1_555
C3A C4A 1_555 1_555
C5A C6A 1_555 1_555

#END
