
#######################################################################
#
#                 Cambridge Crystallographic Data Centre
#                                CCDC 
#
#######################################################################
#
# If this CIF has been generated from an entry in the Cambridge 
# Structural Database, then it will include bibliographic, chemical, 
# crystal, experimental, refinement or atomic coordinate data resulting 
# from the CCDC's data processing and validation procedures.
#
#######################################################################

data_SINMAF
_symmetry_cell_setting           triclinic
_symmetry_space_group_name_H-M   'P -1'
_symmetry_Int_Tables_number      2
_space_group_name_Hall           '-P 1'
loop_
_symmetry_equiv_pos_site_id
_symmetry_equiv_pos_as_xyz
1 x,y,z
2 -x,-y,-z
_cell_length_a                   7.5714(10)
_cell_length_b                   8.7324(12)
_cell_length_c                   10.8446(15)
_cell_angle_alpha                106.6710(10)
_cell_angle_beta                 102.6740(10)
_cell_angle_gamma                94.3700(10)
_cell_volume                     662.666
loop_
_atom_site_label
_atom_site_type_symbol
_atom_site_fract_x
_atom_site_fract_y
_atom_site_fract_z
Sm1 Sm 0.253593(15) 0.243495(13) 0.414266(11)
O1 O 0.1574(4) 0.8226(3) -0.0065(2)
O2 O 0.4886(3) 0.6861(2) 0.39779(18)
O3 O 0.4150(3) 0.4173(2) 0.33333(19)
O4 O 0.0330(3) 0.4140(2) 0.34032(17)
O5 O -0.1790(3) 0.5623(2) 0.40281(18)
O6 O -0.0633(3) 0.1398(2) 0.4180(2)
O7 O -0.2341(2) -0.0189(2) 0.4916(2)
O8 O 0.1140(3) 0.0981(2) 0.18127(19)
H1 H 0.0327 0.1387 0.1385
H2 H 0.1425 0.0118 0.1348
O9 O 0.4740(3) 0.0766(3) 0.3369(2)
H3 H 0.5048 0.0737 0.2656
H4 H 0.5601 0.0573 0.3927
N1 N 0.1723(3) 0.5518(3) -0.0787(2)
H5 H 0.1218 0.5506 -0.1582
C1 C 0.2030(4) 0.6975(3) 0.0216(3)
C2 C 0.2884(4) 0.6944(3) 0.1515(3)
H6 H 0.3153 0.7895 0.2228
C3 C 0.3315(3) 0.5524(3) 0.1726(3)
C4 C 0.2951(4) 0.4069(3) 0.0652(3)
H7 H 0.3243 0.3110 0.0798
C5 C 0.2162(4) 0.4092(3) -0.0608(3)
C6 C 0.4182(3) 0.5522(3) 0.3126(3)
C7 C 0.1740(5) 0.2625(3) -0.1816(3)
H8 H 0.0543 0.2592 -0.2360
H9 H 0.1775 0.1670 -0.1546
H10 H 0.2632 0.2673 -0.2317
C8 C -0.0422(3) 0.4933(3) 0.4263(2)
C9 C -0.0859(3) 0.0358(3) 0.4738(3)
O4A O -0.0330(3) 0.5860(2) 0.65968(17)
O5A O 0.1790(3) 0.4377(2) 0.59719(18)
C8A C 0.0422(3) 0.5067(3) 0.5737(2)
O6A O 0.0633(3) -0.1398(2) 0.5820(2)
O7A O 0.2341(2) 0.0189(2) 0.5084(2)
C9A C 0.0859(3) -0.0358(3) 0.5262(3)
Sm1A Sm -0.253593(15) -0.243495(13) 0.585734(11)
O1A O -0.1574(4) -0.8226(3) 1.0065(2)
O2A O -0.4886(3) -0.6861(2) 0.60221(18)
O3A O -0.4150(3) -0.4173(2) 0.66667(19)
O8A O -0.1140(3) -0.0981(2) 0.81873(19)
H1A H -0.0327 -0.1387 0.8615
H2A H -0.1425 -0.0118 0.8652
O9A O -0.4740(3) -0.0766(3) 0.6631(2)
H3A H -0.5048 -0.0737 0.7344
H4A H -0.5601 -0.0573 0.6073
N1A N -0.1723(3) -0.5518(3) 1.0787(2)
H5A H -0.1218 -0.5506 1.1582
C1A C -0.2030(4) -0.6975(3) 0.9784(3)
C2A C -0.2884(4) -0.6944(3) 0.8485(3)
H6A H -0.3153 -0.7895 0.7772
C3A C -0.3315(3) -0.5524(3) 0.8274(3)
C4A C -0.2951(4) -0.4069(3) 0.9348(3)
H7A H -0.3243 -0.3110 0.9202
C5A C -0.2162(4) -0.4092(3) 1.0608(3)
C6A C -0.4182(3) -0.5522(3) 0.6874(3)
C7A C -0.1740(5) -0.2625(3) 1.1816(3)
H8A H -0.0543 -0.2592 1.2360
H9A H -0.1775 -0.1670 1.1546
H10A H -0.2632 -0.2673 1.2317
Sm1_2 Sm -0.746407(15) -0.756505(13) 0.414266(11)
Sm1A_2 Sm -0.253593(15) 0.756505(13) 0.585734(11)
Sm1A_3 Sm 0.746407(15) 0.756505(13) 0.585734(11)
O2_2 O -0.5114(3) -0.3139(2) 0.39779(18)
O2A_2 O 0.5114(3) 0.3139(2) 0.60221(18)
O4A_2 O -0.0330(3) -0.4140(2) 0.65968(17)
O5_2 O -0.1790(3) -0.4377(2) 0.40281(18)
loop_
_geom_bond_atom_site_label_1
_geom_bond_atom_site_label_2
_geom_bond_site_symmetry_1
_geom_bond_site_symmetry_2
Sm1 O3 1_555 1_555
O1 C1 1_555 1_555
O2 C6 1_555 1_555
O3 C6 1_555 1_555
O4 Sm1 1_555 1_555
O5 C8 1_555 1_555
O6 Sm1 1_555 1_555
O7 C9 1_555 1_555
O8 Sm1 1_555 1_555
H1 O8 1_555 1_555
H2 O8 1_555 1_555
O9 Sm1 1_555 1_555
H3 O9 1_555 1_555
H4 O9 1_555 1_555
N1 H5 1_555 1_555
C1 N1 1_555 1_555
C2 C1 1_555 1_555
H6 C2 1_555 1_555
C3 C2 1_555 1_555
C4 C3 1_555 1_555
H7 C4 1_555 1_555
C5 N1 1_555 1_555
C6 C3 1_555 1_555
C7 C5 1_555 1_555
H8 C7 1_555 1_555
H9 C7 1_555 1_555
H10 C7 1_555 1_555
C8 O4 1_555 1_555
C9 O6 1_555 1_555
O4A C8A 1_555 1_555
O5A Sm1 1_555 1_555
C8A C8 1_555 1_555
O6A C9A 1_555 1_555
O7A Sm1 1_555 1_555
C9A C9 1_555 1_555
Sm1A O7 1_555 1_555
O1A C1A 1_555 1_555
O2A C6A 1_555 1_555
O3A Sm1A 1_555 1_555
O8A Sm1A 1_555 1_555
H1A O8A 1_555 1_555
H2A O8A 1_555 1_555
O9A Sm1A 1_555 1_555
H3A O9A 1_555 1_555
H4A O9A 1_555 1_555
N1A H5A 1_555 1_555
C1A N1A 1_555 1_555
C2A C1A 1_555 1_555
H6A C2A 1_555 1_555
C3A C2A 1_555 1_555
C4A C3A 1_555 1_555
H7A C4A 1_555 1_555
C5A N1A 1_555 1_555
C6A O3A 1_555 1_555
C7A C5A 1_555 1_555
H8A C7A 1_555 1_555
H9A C7A 1_555 1_555
H10A C7A 1_555 1_555
Sm1_2 O2A 1_555 1_555
Sm1A_2 O5 1_555 1_555
Sm1A_3 O2 1_555 1_555
O2_2 Sm1A 1_555 1_555
O2A_2 Sm1 1_555 1_555
O4A_2 Sm1A 1_555 1_555
O5_2 Sm1A 1_555 1_555
C4 C5 1_555 1_555
O4A Sm1A_2 1_555 1_555
O5A C8A 1_555 1_555
O6A Sm1A 1_555 1_555
O7A C9A 1_555 1_555
C3A C6A 1_555 1_555
C4A C5A 1_555 1_555

#END
