
#######################################################################
#
#                 Cambridge Crystallographic Data Centre
#                                CCDC 
#
#######################################################################
#
# If this CIF has been generated from an entry in the Cambridge 
# Structural Database, then it will include bibliographic, chemical, 
# crystal, experimental, refinement or atomic coordinate data resulting 
# from the CCDC's data processing and validation procedures.
#
#######################################################################

data_SINVAN
_symmetry_cell_setting           orthorhombic
_symmetry_space_group_name_H-M   'P 21 21 21'
_symmetry_Int_Tables_number      19
_space_group_name_Hall           'P 2ac 2ab'
loop_
_symmetry_equiv_pos_site_id
_symmetry_equiv_pos_as_xyz
1 x,y,z
2 1/2+x,1/2-y,-z
3 -x,1/2+y,1/2-z
4 1/2-x,-y,1/2+z
_cell_length_a                   9.625(3)
_cell_length_b                   9.641(3)
_cell_length_c                   16.634(5)
_cell_angle_alpha                90
_cell_angle_beta                 90
_cell_angle_gamma                90
_cell_volume                     1543.55
loop_
_atom_site_label
_atom_site_type_symbol
_atom_site_fract_x
_atom_site_fract_y
_atom_site_fract_z
Co1 Co 0.61434(3) 0.45861(3) 0.079624(19)
N1 N 1.0118(2) 0.4057(3) 0.18517(13)
N2 N 1.0530(2) 0.4970(3) 0.12698(16)
N3 N 0.8285(2) 0.4401(3) 0.11215(13)
N4 N 1.2063(2) 0.1917(2) 0.15307(13)
N5 N 1.1496(2) 0.0685(2) 0.17683(13)
N6 N 1.1662(2) 0.0792(2) 0.04262(12)
N7 N 0.6470(2) 0.6760(2) 0.06086(15)
N8 N 0.7515(3) 0.9066(3) 0.05867(17)
N9 N 0.9038(2) 1.0114(2) -0.04111(14)
N10 N 0.5848(2) 0.2428(2) 0.10016(12)
N11 N 0.5039(3) 0.0231(3) 0.15859(14)
N12 N 0.4414(2) -0.0067(2) 0.30058(13)
C1 C 0.9393(3) 0.5133(3) 0.0848(2)
H1 H 0.9349 0.5703 0.0398
C2 C 0.8786(3) 0.3730(3) 0.17530(15)
H2 H 0.8285 0.3123 0.2077
C3 C 1.1282(3) 0.0053(3) 0.10810(15)
H3 H 1.0900 -0.0831 0.1047
C4 C 1.2146(2) 0.1955(3) 0.07327(15)
H4 H 1.2494 0.2695 0.0435
C5 C 1.1074(3) 0.3599(3) 0.24741(15)
H5 H 1.0626 0.2900 0.2804
H6 H 1.1311 0.4377 0.2817
C6 C 1.2404(3) 0.2994(3) 0.21067(15)
H7 H 1.2923 0.3725 0.1841
H8 H 1.2983 0.2611 0.2529
C7 C 0.6976(3) 0.7834(3) 0.05554(16)
C8 C 0.8311(3) 0.9557(3) 0.00282(15)
C9 C 0.5483(3) 0.1420(3) 0.13063(15)
C10 C 0.4722(3) 0.0136(3) 0.23474(17)
Co1A Co 1.11434(3) 0.04139(3) -0.079624(19)
Co1A_2 Co 1.11434(3) 1.04139(3) -0.079624(19)
Co1B Co 0.38566(3) -0.04139(3) 0.420376(19)
N6A N 0.6662(2) 0.4208(2) -0.04262(12)
N9A N 0.4038(2) 0.4886(2) 0.04111(14)
N12B N 0.5586(2) 0.4933(2) 0.19942(13)
O1 O 1.2596(4) 0.6987(3) 0.1809(2)
H9 H 1.212(7) 0.655(9) 0.147(4)
H10 H 1.336(4) 0.712(7) 0.156(4)
loop_
_geom_bond_atom_site_label_1
_geom_bond_atom_site_label_2
_geom_bond_site_symmetry_1
_geom_bond_site_symmetry_2
Co1 N3 1_555 1_555
N1 N2 1_555 1_555
N2 C1 1_555 1_555
N3 C1 1_555 1_555
N4 N5 1_555 1_555
N5 C3 1_555 1_555
N6 C3 1_555 1_555
N7 Co1 1_555 1_555
N8 C7 1_555 1_555
N9 C8 1_555 1_555
N10 Co1 1_555 1_555
N11 C9 1_555 1_555
N12 C10 1_555 1_555
C1 H1 1_555 1_555
C2 N1 1_555 1_555
H2 C2 1_555 1_555
C3 H3 1_555 1_555
C4 N4 1_555 1_555
H4 C4 1_555 1_555
C5 N1 1_555 1_555
H5 C5 1_555 1_555
H6 C5 1_555 1_555
C6 N4 1_555 1_555
H7 C6 1_555 1_555
H8 C6 1_555 1_555
C7 N7 1_555 1_555
C8 N8 1_555 1_555
C9 N10 1_555 1_555
C10 N11 1_555 1_555
O1 H9 1_555 1_555
H10 O1 1_555 1_555
Co1A N6 1_555 1_555
Co1A_2 N9 1_555 1_555
Co1B N12 1_555 1_555
N6A Co1 1_555 1_555
N9A Co1 1_555 1_555
N12B Co1 1_555 1_555
N3 C2 1_555 1_555
N6 C4 1_555 1_555
C5 C6 1_555 1_555

#END
