
#######################################################################
#
#                 Cambridge Crystallographic Data Centre
#                                CCDC 
#
#######################################################################
#
# If this CIF has been generated from an entry in the Cambridge 
# Structural Database, then it will include bibliographic, chemical, 
# crystal, experimental, refinement or atomic coordinate data resulting 
# from the CCDC's data processing and validation procedures.
#
#######################################################################

data_SINXEU
_symmetry_cell_setting           triclinic
_symmetry_space_group_name_H-M   'P -1'
_symmetry_Int_Tables_number      2
_space_group_name_Hall           '-P 1'
loop_
_symmetry_equiv_pos_site_id
_symmetry_equiv_pos_as_xyz
1 x,y,z
2 -x,-y,-z
_cell_length_a                   9.731(5)
_cell_length_b                   10.121(5)
_cell_length_c                   18.651(9)
_cell_angle_alpha                103.946(14)
_cell_angle_beta                 100.75(2)
_cell_angle_gamma                96.233(16)
_cell_volume                     1728.6
loop_
_atom_site_label
_atom_site_type_symbol
_atom_site_fract_x
_atom_site_fract_y
_atom_site_fract_z
Zn1 Zn 0.77938(7) 0.16115(8) 0.30097(4)
O1 O 0.7071(4) 0.3296(4) 0.3496(2)
O2 O 0.6451(5) 0.0191(5) 0.3213(3)
O3 O 0.8863(6) 0.2935(6) 0.2232(3)
O4 O 0.7235(5) 0.1084(5) 0.1895(3)
N1 N 0.9631(5) 0.1661(6) 0.3678(3)
C1 C 0.6241(6) 0.3923(6) 0.3139(4)
C2 C 0.6253(7) -0.1080(7) 0.3129(3)
O5 O 0.6448(4) 0.5197(4) 0.3231(3)
C3 C 0.4916(6) 0.3097(6) 0.2592(3)
O6 O 0.7081(5) -0.1685(5) 0.3504(3)
C4 C 0.4925(6) -0.1887(6) 0.2591(4)
Zn2 Zn 0.77870(7) 0.66085(7) 0.30243(4)
C5 C 0.4503(6) 0.3408(7) 0.1897(4)
C6 C 0.4140(6) 0.2069(6) 0.2775(4)
C7 C 0.4118(6) -0.2949(6) 0.2779(3)
C8 C 0.4512(6) -0.1613(6) 0.1904(3)
H1 H 0.5044 0.4110 0.1780
C9 C 0.3261(6) 0.2649(7) 0.1375(3)
H2 H 0.4453 0.1833 0.3223
C10 C 0.2871(6) 0.1382(6) 0.2280(4)
N2 N 0.9626(5) -0.3339(6) 0.3685(3)
O7 O 0.9047(6) -0.2190(6) 0.2197(3)
O8 O 0.7207(5) -0.3786(5) 0.1928(2)
C11 C 0.2856(6) -0.3677(6) 0.2285(3)
H3 H 0.4428 -0.3164 0.3233
C12 C 0.3321(7) -0.2405(7) 0.1377(4)
H4 H 0.5030 -0.0894 0.1789
C13 C 0.2410(6) 0.1653(7) 0.1583(4)
C14 C 0.2901(7) 0.2849(7) 0.0592(4)
C15 C 0.1986(7) 0.0291(7) 0.2506(4)
C16 C 1.0809(7) -0.2471(7) 0.3814(4)
C17 C 0.9825(7) -0.4074(8) 0.4212(4)
C18 C 0.2513(7) -0.3386(7) 0.1596(3)
C19 C 0.1985(7) -0.4720(7) 0.2512(4)
C20 C 0.2945(6) -0.2258(6) 0.0598(3)
H5 H 0.1556 0.1185 0.1262
C21 C 0.3908(8) 0.3333(9) 0.0263(4)
C22 C 0.1509(8) 0.2544(10) 0.0187(5)
O9 O 0.2314(5) -0.0074(5) 0.3066(3)
O10 O 0.0765(5) -0.0216(6) 0.2000(3)
N3 N 1.1758(6) -0.2640(6) 0.4397(3)
H6 H 1.0967 -0.1833 0.3541
C23 C 1.1116(7) -0.3664(8) 0.4664(4)
H7 H 0.9153 -0.4766 0.4250
H8 H 0.1689 -0.3879 0.1256
O11 O 0.2332(5) -0.5057(5) 0.3098(3)
O12 O 0.0800(5) -0.5262(5) 0.2012(3)
C24 C 0.2235(7) -0.3390(8) 0.0000(4)
C25 C 0.3354(9) -0.1083(9) 0.0406(5)
H9 H 0.4823 0.3659 0.0553
C26 C 0.3618(9) 0.3361(8) -0.0502(5)
C27 C 0.1190(8) 0.2585(9) -0.0582(4)
H10 H 0.0782 0.2313 0.0417
C28 C 1.3207(7) -0.1909(8) 0.4712(4)
H11 H 1.1502 -0.3992 0.5069
H12 H 0.1959 -0.4218 0.0106
C29 C 0.1925(8) -0.3320(9) -0.0755(4)
C30 C 0.3096(10) -0.1031(10) -0.0350(4)
H13 H 0.3814 -0.0299 0.0785
C31 C 0.2237(7) 0.2953(7) -0.0920(4)
H14 H 0.4340 0.3648 -0.0722
H15 H 0.0256 0.2357 -0.0856
C32 C 1.4240(7) -0.2862(8) 0.4875(4)
H16 H 1.3228 -0.1218 0.5177
H17 H 1.3501 -0.1437 0.4357
C33 C 0.2341(7) -0.2084(7) -0.0910(4)
H18 H 0.1450 -0.4087 -0.1142
H19 H 0.3462 -0.0239 -0.0464
C34 C 0.1958(7) 0.2958(6) -0.1727(4)
H20 H 1.4156 -0.3604 0.4422
H21 H 1.4003 -0.3266 0.5266
C35 C 1.5770(6) -0.2107(7) 0.5132(4)
C36 C 0.2040(7) -0.2011(8) -0.1721(4)
H22 H 1.6012 -0.1702 0.4742
H23 H 1.5860 -0.1368 0.5588
C37 C 1.6789(7) -0.3100(7) 0.5290(4)
N4 N 1.8220(5) -0.2348(6) 0.5595(3)
H24 H 1.6502 -0.3563 0.5649
H25 H 1.6761 -0.3794 0.4825
C38 C 1.8879(7) -0.1320(8) 0.5360(4)
C39 C 1.9152(7) -0.2534(7) 0.6186(4)
H26 H 1.8492 -0.0983 0.4958
C40 C 2.0175(7) -0.0881(7) 0.5805(4)
H27 H 1.8975 -0.3171 0.6456
H28 H 2.0835 -0.0172 0.5774
Zn2_2 Zn 0.77870(7) -0.33915(7) 0.30243(4)
O5_2 O 0.6448(4) -0.4803(4) 0.3231(3)
O7A O 0.0953(6) 0.2190(6) -0.2197(3)
O8A O 0.2793(5) 0.3786(5) -0.1928(2)
O3A O 0.1137(6) -0.2935(6) -0.2232(3)
O4A O 0.2765(5) -0.1084(5) -0.1895(3)
Zn2A Zn 0.22130(7) 0.33915(7) -0.30243(4)
Zn1A Zn 0.22062(7) -0.16115(8) -0.30097(4)
N1A N 2.0369(5) -0.1661(6) 0.6322(3)
Zn1A_2 Zn 2.22062(7) -0.16115(8) 0.69903(4)
loop_
_geom_bond_atom_site_label_1
_geom_bond_atom_site_label_2
_geom_bond_site_symmetry_1
_geom_bond_site_symmetry_2
Zn1 O1 1_555 1_555
O1 C1 1_555 1_555
O2 Zn1 1_555 1_555
O3 Zn1 1_555 1_555
O4 Zn1 1_555 1_555
N1 Zn1 1_555 1_555
C1 O5 1_555 1_555
C2 O2 1_555 1_555
O5 Zn2 1_555 1_555
C3 C1 1_555 1_555
O6 C2 1_555 1_555
C4 C2 1_555 1_555
C5 C3 1_555 1_555
C6 C3 1_555 1_555
C7 C4 1_555 1_555
C8 C4 1_555 1_555
H1 C5 1_555 1_555
C9 C5 1_555 1_555
H2 C6 1_555 1_555
C10 C6 1_555 1_555
N2 C16 1_555 1_555
O7 Zn2_2 1_555 1_555
O8 Zn2_2 1_555 1_555
C11 C7 1_555 1_555
H3 C7 1_555 1_555
C12 C8 1_555 1_555
H4 C8 1_555 1_555
C13 C9 1_555 1_555
C14 C9 1_555 1_555
C15 C10 1_555 1_555
C16 N3 1_555 1_555
C17 N2 1_555 1_555
C18 C11 1_555 1_555
C19 C11 1_555 1_555
C20 C12 1_555 1_555
H5 C13 1_555 1_555
C21 C14 1_555 1_555
C22 C14 1_555 1_555
O9 C15 1_555 1_555
O10 C15 1_555 1_555
N3 C23 1_555 1_555
H6 C16 1_555 1_555
C23 C17 1_555 1_555
H7 C17 1_555 1_555
H8 C18 1_555 1_555
O11 C19 1_555 1_555
O12 C19 1_555 1_555
C24 C20 1_555 1_555
C25 C20 1_555 1_555
H9 C21 1_555 1_555
C26 C21 1_555 1_555
C27 C22 1_555 1_555
H10 C22 1_555 1_555
C28 N3 1_555 1_555
H11 C23 1_555 1_555
H12 C24 1_555 1_555
C29 C24 1_555 1_555
C30 C25 1_555 1_555
H13 C25 1_555 1_555
C31 C26 1_555 1_555
H14 C26 1_555 1_555
H15 C27 1_555 1_555
C32 C28 1_555 1_555
H16 C28 1_555 1_555
H17 C28 1_555 1_555
C33 C29 1_555 1_555
H18 C29 1_555 1_555
H19 C30 1_555 1_555
C34 C31 1_555 1_555
H20 C32 1_555 1_555
H21 C32 1_555 1_555
C35 C32 1_555 1_555
C36 C33 1_555 1_555
H22 C35 1_555 1_555
H23 C35 1_555 1_555
C37 C35 1_555 1_555
N4 C37 1_555 1_555
H24 C37 1_555 1_555
H25 C37 1_555 1_555
C38 N4 1_555 1_555
C39 N4 1_555 1_555
H26 C38 1_555 1_555
C40 C38 1_555 1_555
H27 C39 1_555 1_555
H28 C40 1_555 1_555
Zn2_2 O6 1_555 1_555
O5_2 Zn2_2 1_555 1_555
O7A C34 1_555 1_555
O8A C34 1_555 1_555
O3A C36 1_555 1_555
O4A C36 1_555 1_555
Zn2A O7A 1_555 1_555
Zn1A O3A 1_555 1_555
N1A C39 1_555 1_555
Zn1A_2 N1A 1_555 1_555
C10 C13 1_555 1_555
N2 Zn2_2 1_555 1_555
C12 C18 1_555 1_555
C27 C31 1_555 1_555
C30 C33 1_555 1_555
C40 N1A 1_555 1_555
O8A Zn2A 1_555 1_555
O4A Zn1A 1_555 1_555

#END
