
#######################################################################
#
#                 Cambridge Crystallographic Data Centre
#                                CCDC 
#
#######################################################################
#
# If this CIF has been generated from an entry in the Cambridge 
# Structural Database, then it will include bibliographic, chemical, 
# crystal, experimental, refinement or atomic coordinate data resulting 
# from the CCDC's data processing and validation procedures.
#
#######################################################################

data_SINXIY
_symmetry_cell_setting           cubic
_symmetry_space_group_name_H-M   'I -4 3 m'
_symmetry_Int_Tables_number      217
_space_group_name_Hall           'I -4 2 3'
loop_
_symmetry_equiv_pos_site_id
_symmetry_equiv_pos_as_xyz
1 x,y,z
2 y,-x,-z
3 -x,-y,z
4 -y,x,-z
5 -x,z,-y
6 x,-y,-z
7 -x,-z,y
8 -z,-y,x
9 -x,y,-z
10 z,-y,-x
11 z,x,y
12 y,z,x
13 -y,-z,x
14 z,-x,-y
15 -y,z,-x
16 -z,-x,y
17 -z,x,-y
18 y,-z,-x
19 -y,-x,z
20 y,x,z
21 x,-z,-y
22 x,z,y
23 -z,y,-x
24 z,y,x
25 1/2+x,1/2+y,1/2+z
26 1/2+y,1/2-x,1/2-z
27 1/2-x,1/2-y,1/2+z
28 1/2-y,1/2+x,1/2-z
29 1/2-x,1/2+z,1/2-y
30 1/2+x,1/2-y,1/2-z
31 1/2-x,1/2-z,1/2+y
32 1/2-z,1/2-y,1/2+x
33 1/2-x,1/2+y,1/2-z
34 1/2+z,1/2-y,1/2-x
35 1/2+z,1/2+x,1/2+y
36 1/2+y,1/2+z,1/2+x
37 1/2-y,1/2-z,1/2+x
38 1/2+z,1/2-x,1/2-y
39 1/2-y,1/2+z,1/2-x
40 1/2-z,1/2-x,1/2+y
41 1/2-z,1/2+x,1/2-y
42 1/2+y,1/2-z,1/2-x
43 1/2-y,1/2-x,1/2+z
44 1/2+y,1/2+x,1/2+z
45 1/2+x,1/2-z,1/2-y
46 1/2+x,1/2+z,1/2+y
47 1/2-z,1/2+y,1/2-x
48 1/2+z,1/2+y,1/2+x
_cell_length_a                   14.6436(8)
_cell_length_b                   14.6436(8)
_cell_length_c                   14.6436(8)
_cell_angle_alpha                90
_cell_angle_beta                 90
_cell_angle_gamma                90
_cell_volume                     3140.1
loop_
_atom_site_label
_atom_site_type_symbol
_atom_site_fract_x
_atom_site_fract_y
_atom_site_fract_z
O1 O 0.3896(6) 0.6104(6) 0.6104(6)
H2 H 0.3349(5) 0.5967(7) 0.5967(7)
H2N H 0.4033(7) 0.5967(7) 0.6651(5)
H2O H 0.4033(7) 0.6651(5) 0.5967(7)
Cd1 Cd 0.20994(8) 0.39866(6) 0.60134(6)
Si1 Si 0.0000 0.5000 0.5000
F1 F 0.3467(8) 0.3467(8) 0.6533(8)
F2 F 0.0000 0.5000 0.3859(17)
F3 F 0.0780(12) 0.4177(12) 0.4985(14)
F4 F 0.2852(13) 0.5000 0.5000
N1 N 0.2235(7) 0.2900(6) 0.4940(7)
N2 N 0.1821(7) 0.1821(7) 0.3919(11)
C1 C 0.1631(12) 0.2637(10) 0.4317(10)
H1 H 0.1121 0.2984 0.4165
F3B F -0.0780(12) 0.5823(12) 0.4985(14)
F2D F 0.0000 0.3859(17) 0.5000
F3D F -0.0780(12) 0.4985(14) 0.5823(12)
F2E F 0.0000 0.5000 0.6141(17)
F3E F 0.0780(12) 0.5823(12) 0.5015(14)
F2F F 0.0000 0.6141(17) 0.5000
F3F F -0.0780(12) 0.5015(14) 0.4177(12)
F3H F -0.0780(12) 0.4177(12) 0.5015(14)
F3T F 0.0780(12) 0.5015(14) 0.5823(12)
F3U F 0.0780(12) 0.4985(14) 0.4177(12)
N1S N 0.2900(6) 0.2235(7) 0.4940(7)
C1S C 0.2637(10) 0.1631(12) 0.4317(10)
H1S H 0.2984 0.1121 0.4165
Cd1B Cd -0.20994(8) 0.60134(6) 0.60134(6)
F4B F -0.2852(13) 0.5000 0.5000
N1B N -0.2235(7) 0.7100(6) 0.4940(7)
N2B N -0.1821(7) 0.8179(7) 0.3919(11)
C1B C -0.1631(12) 0.7363(10) 0.4317(10)
H1B H -0.1121 0.7016 0.4165
N1R N -0.2900(6) 0.7765(7) 0.4940(7)
C1R C -0.2637(10) 0.8369(12) 0.4317(10)
H1R H -0.2984 0.8879 0.4165
N1D N -0.2235(7) 0.4940(7) 0.7100(6)
N2D N -0.1821(7) 0.3919(11) 0.8179(7)
C1D C -0.1631(12) 0.4317(10) 0.7363(10)
H1D H -0.1121 0.4165 0.7016
N1N N -0.2900(6) 0.4940(7) 0.7765(7)
C1N C -0.2637(10) 0.4317(10) 0.8369(12)
H1N H -0.2984 0.4165 0.8879
Cd1E Cd 0.20994(8) 0.60134(6) 0.39866(6)
F1A F 0.3467(8) 0.6533(8) 0.3467(8)
N1E N 0.2235(7) 0.7100(6) 0.5060(7)
N2A N 0.1821(7) 0.8179(7) 0.6081(11)
C1E C 0.1631(12) 0.7363(10) 0.5683(10)
H1E H 0.1121 0.7016 0.5835
N1A N 0.2900(6) 0.7765(7) 0.5060(7)
C1A C 0.2637(10) 0.8369(12) 0.5683(10)
H1A H 0.2984 0.8879 0.5835
Cd1F Cd -0.20994(8) 0.39866(6) 0.39866(6)
Cd1G Cd 0.39866(6) 0.60134(6) 0.20994(8)
Si1G Si 0.5000 0.5000 0.0000
F2G F 0.6141(17) 0.5000 0.0000
F3G F 0.5015(14) 0.5823(12) 0.0780(12)
F4G F 0.5000 0.5000 0.2852(13)
N1G N 0.5060(7) 0.7100(6) 0.2235(7)
N2G N 0.6081(11) 0.8179(7) 0.1821(7)
C1G C 0.5683(10) 0.7363(10) 0.1631(12)
H1G H 0.5835 0.7016 0.1121
F3V F 0.5015(14) 0.4177(12) -0.0780(12)
F2L F 0.5000 0.6141(17) 0.0000
F3Q F 0.4177(12) 0.5015(14) -0.0780(12)
F2I F 0.3859(17) 0.5000 0.0000
F3W F 0.4985(14) 0.4177(12) 0.0780(12)
F2K F 0.5000 0.3859(17) 0.0000
F3N F 0.5823(12) 0.4985(14) -0.0780(12)
F3I F 0.4985(14) 0.5823(12) -0.0780(12)
F3K F 0.4177(12) 0.4985(14) 0.0780(12)
F3L F 0.5823(12) 0.5015(14) 0.0780(12)
N1O N 0.5060(7) 0.7765(7) 0.2900(6)
C1O C 0.5683(10) 0.8369(12) 0.2637(10)
H1O H 0.5835 0.8879 0.2984
N1H N -0.2235(7) 0.2900(6) 0.5060(7)
N2C N -0.1821(7) 0.1821(7) 0.6081(11)
C1H C -0.1631(12) 0.2637(10) 0.5683(10)
H1H H -0.1121 0.2984 0.5835
N1C N -0.2900(6) 0.2235(7) 0.5060(7)
C1C C -0.2637(10) 0.1631(12) 0.5683(10)
H1C H -0.2984 0.1121 0.5835
N1K N 0.2900(6) 0.4940(7) 0.2235(7)
N2K N 0.1821(7) 0.3919(11) 0.1821(7)
C1K C 0.2637(10) 0.4317(10) 0.1631(12)
H1K H 0.2984 0.4165 0.1121
N1U N 0.2235(7) 0.4940(7) 0.2900(6)
C1U C 0.1631(12) 0.4317(10) 0.2637(10)
H1U H 0.1121 0.4165 0.2984
Cd1L Cd 0.60134(6) 0.39866(6) 0.20994(8)
F1C F 0.6533(8) 0.3467(8) 0.3467(8)
N1L N 0.7100(6) 0.5060(7) 0.2235(7)
N2F N 0.8179(7) 0.6081(11) 0.1821(7)
C1L C 0.7363(10) 0.5683(10) 0.1631(12)
H1L H 0.7016 0.5835 0.1121
N1F N 0.7765(7) 0.5060(7) 0.2900(6)
C1F C 0.8369(12) 0.5683(10) 0.2637(10)
H1F H 0.8879 0.5835 0.2984
Cd1A Cd 0.39866(6) 0.79006(8) 0.39866(6)
Si1A Si 0.5000 1.0000 0.5000
F2O F 0.6141(17) 1.0000 0.5000
F3O F 0.5015(14) 0.9220(12) 0.4177(12)
F4A F 0.5000 0.7148(13) 0.5000
F3P F 0.5015(14) 1.0780(12) 0.5823(12)
F2R F 0.5000 1.0000 0.3859(17)
F3S F 0.4177(12) 1.0780(12) 0.4985(14)
F2J F 0.3859(17) 1.0000 0.5000
F3M F 0.4985(14) 0.9220(12) 0.5823(12)
F2A F 0.5000 1.0000 0.6141(17)
F3C F 0.5823(12) 1.0780(12) 0.5015(14)
F3J F 0.4985(14) 1.0780(12) 0.4177(12)
F3A F 0.4177(12) 0.9220(12) 0.5015(14)
F3R F 0.5823(12) 0.9220(12) 0.4985(14)
Cd1P Cd 0.39866(6) 0.20994(8) 0.60134(6)
F4C F 0.5000 0.2852(13) 0.5000
N1P N 0.5060(7) 0.2235(7) 0.7100(6)
N2P N 0.6081(11) 0.1821(7) 0.8179(7)
C1P C 0.5683(10) 0.1631(12) 0.7363(10)
H1P H 0.5835 0.1121 0.7016
N1V N 0.5060(7) 0.2900(6) 0.7765(7)
C1V C 0.5683(10) 0.2637(10) 0.8369(12)
H1V H 0.5835 0.2984 0.8879
Cd1Q Cd 0.39866(6) 0.39866(6) 0.79006(8)
F4I F 0.5000 0.5000 0.7148(13)
N1Q N 0.2900(6) 0.5060(7) 0.7765(7)
N2Q N 0.1821(7) 0.6081(11) 0.8179(7)
C1Q C 0.2637(10) 0.5683(10) 0.8369(12)
H1Q H 0.2984 0.5835 0.8879
N1T N 0.2235(7) 0.5060(7) 0.7100(6)
C1T C 0.1631(12) 0.5683(10) 0.7363(10)
H1T H 0.1121 0.5835 0.7016
Cd1M Cd 0.60134(6) 0.79006(8) 0.60134(6)
F1B F 0.6533(8) 0.6533(8) 0.6533(8)
N1R_2 N 0.7100(6) 0.7765(7) 0.4940(7)
N2B_2 N 0.8179(7) 0.8179(7) 0.3919(11)
C1R_2 C 0.7363(10) 0.8369(12) 0.4317(10)
H1R_2 H 0.7016 0.8879 0.4165
N1B_2 N 0.7765(7) 0.7100(6) 0.4940(7)
C1B_2 C 0.8369(12) 0.7363(10) 0.4317(10)
H1B_2 H 0.8879 0.7016 0.4165
N1W N 0.4940(7) 0.2900(6) 0.2235(7)
N2J N 0.3919(11) 0.1821(7) 0.1821(7)
C1W C 0.4317(10) 0.2637(10) 0.1631(12)
H1W H 0.4165 0.2984 0.1121
N1J N 0.4940(7) 0.2235(7) 0.2900(6)
C1J C 0.4317(10) 0.1631(12) 0.2637(10)
H1J H 0.4165 0.1121 0.2984
Cd1Y Cd -0.10134(6) 0.29006(8) 0.89866(6)
Cd1Z Cd 0.29006(8) 0.10134(6) 0.10134(6)
Cd1B_2 Cd 0.79006(8) 0.60134(6) 0.60134(6)
Cd1C Cd -0.39866(6) 0.20994(8) 0.39866(6)
Cd1C_2 Cd 0.60134(6) 0.20994(8) 0.39866(6)
Cd1C_3 Cd 0.60134(6) 1.20994(8) 0.39866(6)
Cd1F_2 Cd 0.79006(8) 0.39866(6) 0.39866(6)
Cd1I Cd -0.39866(6) 0.60134(6) 0.79006(8)
Cd1I_2 Cd 0.60134(6) 0.60134(6) -0.20994(8)
Cd1I_3 Cd 0.60134(6) 0.60134(6) 0.79006(8)
Cd1M_2 Cd -0.39866(6) 0.79006(8) 0.60134(6)
Cd1P_2 Cd 0.39866(6) 1.20994(8) 0.60134(6)
Cd1Q_2 Cd 0.39866(6) 0.39866(6) -0.20994(8)
Cd1X Cd 0.70994(8) 0.89866(6) 0.10134(6)
Cd1AA Cd 0.10134(6) 0.70994(8) 0.89866(6)
Cd1CA Cd 0.70994(8) 0.10134(6) 0.89866(6)
Cd1EA Cd -0.10134(6) 0.10134(6) 0.70994(8)
Cd1GA Cd 0.10134(6) 0.10134(6) 0.29006(8)
Cd1JA Cd 0.10134(6) 0.89866(6) 0.70994(8)
Cd1KA Cd 0.10134(6) 0.29006(8) 0.10134(6)
Cd1NA Cd 0.89866(6) 0.70994(8) 0.10134(6)
Cd1OA Cd -0.10134(6) 0.89866(6) 0.29006(8)
Cd1OA_2 Cd 0.89866(6) 0.89866(6) 0.29006(8)
F1B_2 F -0.3467(8) 0.6533(8) 0.6533(8)
F1C_2 F -0.3467(8) 0.3467(8) 0.3467(8)
F1Y F -0.1533(8) 0.1533(8) 0.8467(8)
F1Z F 0.1533(8) 0.1533(8) 0.1533(8)
F3P_2 F 0.5015(14) 0.0780(12) 0.5823(12)
F3Q_2 F 0.4177(12) 0.5015(14) 0.9220(12)
F3S_2 F 0.4177(12) 0.0780(12) 0.4985(14)
F3V_2 F 0.5015(14) 0.4177(12) 0.9220(12)
F3Y F -0.0823(12) 0.4220(12) 1.0015(14)
F3Z F 0.4220(12) 0.0823(12) -0.0015(14)
F3BA F 0.4220(12) -0.0015(14) 0.0823(12)
F3MA F 0.0015(14) 0.4220(12) 0.9177(12)
F4Y F 0.0000 0.2148(13) 1.0000
F4Z F 0.2148(13) 0.0000 0.0000
N1F_2 N -0.2235(7) 0.5060(7) 0.2900(6)
N1M N 0.4940(7) 0.7765(7) 0.7100(6)
N1Y N -0.2100(6) 0.2765(7) 1.0060(7)
N1Z N 0.2765(7) 0.2100(6) -0.0060(7)
N1BA N 0.2765(7) -0.0060(7) 0.2100(6)
N1MA N 0.0060(7) 0.2765(7) 0.7900(6)
N2Y N 0.6821(7) 0.3179(7) 0.1081(11)
N2Z N 0.3179(7) 0.3179(7) 0.8919(11)
N2AA N 0.3179(7) 0.6821(7) 0.1081(11)
N2BA N 0.3179(7) 0.8919(11) 0.3179(7)
N2DA N 0.3179(7) 0.1081(11) 0.6821(7)
N2EA N 0.1081(11) 0.3179(7) 0.6821(7)
N2GA N -0.1081(11) 0.3179(7) 0.3179(7)
N2HA N -0.1081(11) 0.6821(7) 0.6821(7)
N2IA N 0.6821(7) 0.8919(11) 0.6821(7)
N2NA N 0.1081(11) 0.6821(7) 0.3179(7)
loop_
_geom_bond_atom_site_label_1
_geom_bond_atom_site_label_2
_geom_bond_site_symmetry_1
_geom_bond_site_symmetry_2
Cd1 F1 1_555 1_555
Si1 F2 1_555 1_555
F1 Cd1P 1_555 1_555
F2 F3F 1_555 1_555
F3 Cd1 1_555 1_555
F4 Cd1 1_555 1_555
N1 Cd1 1_555 1_555
N2 C1 1_555 1_555
C1 N1 1_555 1_555
H1 C1 1_555 1_555
O1 H2 1_555 1_555
F3B Si1 1_555 1_555
F2D Si1 1_555 1_555
F3D Si1 1_555 1_555
F2E Si1 1_555 1_555
F3E Si1 1_555 1_555
F2F Si1 1_555 1_555
F3F Si1 1_555 1_555
F3H Si1 1_555 1_555
F3T Cd1 1_555 1_555
F3U Si1 1_555 1_555
N1S N1 1_555 1_555
C1S N2 1_555 1_555
H1S C1S 1_555 1_555
Cd1B F3B 1_555 1_555
F4B Cd1B 1_555 1_555
N1B Cd1B 1_555 1_555
N2B C1B 1_555 1_555
C1B N1B 1_555 1_555
H1B C1B 1_555 1_555
N1R N1B 1_555 1_555
C1R N2B 1_555 1_555
H1R C1R 1_555 1_555
N1D Cd1B 1_555 1_555
N2D C1D 1_555 1_555
C1D N1D 1_555 1_555
H1D C1D 1_555 1_555
N1N N1D 1_555 1_555
C1N N2D 1_555 1_555
H1N C1N 1_555 1_555
Cd1E F4 1_555 1_555
F1A Cd1E 1_555 1_555
N1E Cd1E 1_555 1_555
N2A C1E 1_555 1_555
C1E N1E 1_555 1_555
H1E C1E 1_555 1_555
N1A N1E 1_555 1_555
C1A N2A 1_555 1_555
H1A C1A 1_555 1_555
Cd1F F3F 1_555 1_555
Cd1G F1A 1_555 1_555
Si1G F2G 1_555 1_555
F2G F3N 1_555 1_555
F3G Cd1G 1_555 1_555
F4G Cd1G 1_555 1_555
N1G Cd1G 1_555 1_555
N2G C1G 1_555 1_555
C1G N1G 1_555 1_555
H1G C1G 1_555 1_555
F3V Si1G 1_555 1_555
F2L Si1G 1_555 1_555
F3Q Si1G 1_555 1_555
F2I Si1G 1_555 1_555
F3W Si1G 1_555 1_555
F2K Si1G 1_555 1_555
F3N Si1G 1_555 1_555
F3I Si1G 1_555 1_555
F3K Cd1G 1_555 1_555
F3L Si1G 1_555 1_555
N1O N1G 1_555 1_555
C1O N2G 1_555 1_555
H1O C1O 1_555 1_555
N1H Cd1F 1_555 1_555
N2C C1H 1_555 1_555
C1H N1H 1_555 1_555
H1H C1H 1_555 1_555
N1C N1H 1_555 1_555
C1C N2C 1_555 1_555
H1C C1C 1_555 1_555
N1K Cd1G 1_555 1_555
N2K C1K 1_555 1_555
C1K N1K 1_555 1_555
H1K C1K 1_555 1_555
N1U Cd1E 1_555 1_555
C1U N2K 1_555 1_555
H1U C1U 1_555 1_555
Cd1L F4G 1_555 1_555
F1C Cd1L 1_555 1_555
N1L Cd1L 1_555 1_555
N2F C1L 1_555 1_555
C1L N1L 1_555 1_555
H1L C1L 1_555 1_555
N1F N1L 1_555 1_555
C1F N2F 1_555 1_555
H1F C1F 1_555 1_555
Cd1A F1A 1_555 1_555
Si1A F2O 1_555 1_555
F2O F3C 1_555 1_555
F3O Cd1A 1_555 1_555
F4A Cd1A 1_555 1_555
F3P Si1A 1_555 1_555
F2R Si1A 1_555 1_555
F3S Si1A 1_555 1_555
F2J Si1A 1_555 1_555
F3M Si1A 1_555 1_555
F2A Si1A 1_555 1_555
F3C Si1A 1_555 1_555
F3J Si1A 1_555 1_555
F3A Cd1A 1_555 1_555
F3R Si1A 1_555 1_555
Cd1P N1S 1_555 1_555
F4C Cd1P 1_555 1_555
N1P Cd1P 1_555 1_555
N2P C1P 1_555 1_555
C1P N1P 1_555 1_555
H1P C1P 1_555 1_555
N1V N1P 1_555 1_555
C1V N2P 1_555 1_555
H1V C1V 1_555 1_555
Cd1Q F1 1_555 1_555
F4I Cd1Q 1_555 1_555
N1Q Cd1Q 1_555 1_555
N2Q C1Q 1_555 1_555
C1Q N1Q 1_555 1_555
H1Q C1Q 1_555 1_555
N1T Cd1 1_555 1_555
C1T N2Q 1_555 1_555
H1T C1T 1_555 1_555
Cd1M F4A 1_555 1_555
F1B Cd1M 1_555 1_555
N1R_2 Cd1M 1_555 1_555
N2B_2 C1R_2 1_555 1_555
C1R_2 N1R_2 1_555 1_555
H1R_2 C1R_2 1_555 1_555
N1B_2 N1R_2 1_555 1_555
C1B_2 N2B_2 1_555 1_555
H1B_2 C1B_2 1_555 1_555
N1W Cd1L 1_555 1_555
N2J C1W 1_555 1_555
C1W N1W 1_555 1_555
H1W C1W 1_555 1_555
N1J N1W 1_555 1_555
C1J N2J 1_555 1_555
H1J C1J 1_555 1_555
Cd1Y N2D 1_555 1_555
Cd1Z N2J 1_555 1_555
Cd1B_2 F1B 1_555 1_555
Cd1C N1C 1_555 1_555
Cd1C_2 F1C 1_555 1_555
Cd1C_3 F3C 1_555 1_555
Cd1F_2 F1C 1_555 1_555
Cd1I N1N 1_555 1_555
Cd1I_2 F3N 1_555 1_555
Cd1I_3 F4I 1_555 1_555
Cd1M_2 N1R 1_555 1_555
Cd1P_2 F3P 1_555 1_555
Cd1Q_2 F3V 1_555 1_555
Cd1X N2G 1_555 1_555
Cd1AA N2Q 1_555 1_555
Cd1CA N2P 1_555 1_555
Cd1EA N2C 1_555 1_555
Cd1GA N2 1_555 1_555
Cd1JA N2A 1_555 1_555
Cd1KA N2K 1_555 1_555
Cd1NA N2F 1_555 1_555
Cd1OA N2B 1_555 1_555
Cd1OA_2 N2B_2 1_555 1_555
F1B_2 Cd1B 1_555 1_555
F1C_2 Cd1F 1_555 1_555
F1Y Cd1Y 1_555 1_555
F1Z Cd1Z 1_555 1_555
F3P_2 Cd1P 1_555 1_555
F3Q_2 Cd1Q 1_555 1_555
F3S_2 Cd1P 1_555 1_555
F3V_2 Cd1Q 1_555 1_555
F3Y Cd1Y 1_555 1_555
F3Z Cd1Z 1_555 1_555
F3BA Cd1Z 1_555 1_555
F3MA Cd1Y 1_555 1_555
F4Y Cd1Y 1_555 1_555
F4Z Cd1Z 1_555 1_555
N1F_2 Cd1F 1_555 1_555
N1M Cd1M 1_555 1_555
N1Y Cd1Y 1_555 1_555
N1Z Cd1Z 1_555 1_555
N1BA Cd1Z 1_555 1_555
N1MA Cd1Y 1_555 1_555
N2Y Cd1L 1_555 1_555
N2Z Cd1Q 1_555 1_555
N2AA Cd1G 1_555 1_555
N2BA Cd1A 1_555 1_555
N2DA Cd1P 1_555 1_555
N2EA Cd1 1_555 1_555
N2GA Cd1F 1_555 1_555
N2HA Cd1B 1_555 1_555
N2IA Cd1M 1_555 1_555
N2NA Cd1E 1_555 1_555
H2N O1 1_555 1_555
H2O O1 1_555 1_555
Si1 F3 1_555 1_555
Si1 F3T 1_555 1_555
F2 F3U 1_555 1_555
F3 F2D 1_555 1_555
F3B F2F 1_555 1_555
F2D F3H 1_555 1_555
F3D F2E 1_555 1_555
F3D Cd1B 1_555 1_555
F2E F3T 1_555 1_555
F3E F2F 1_555 1_555
F3E Cd1E 1_555 1_555
F3H Cd1F 1_555 1_555
F3U Cd1E 1_555 1_555
N1S C1S 1_555 1_555
F4B Cd1F 1_555 1_555
N1R C1R 1_555 1_555
N1N C1N 1_555 1_555
N1A C1A 1_555 1_555
N1A Cd1A 1_555 1_555
Si1G F3G 1_555 1_555
Si1G F3K 1_555 1_555
F2G F3L 1_555 1_555
F3G F2L 1_555 1_555
F3V F2K 1_555 1_555
F2L F3I 1_555 1_555
F3Q F2I 1_555 1_555
F3Q Cd1Q_2 1_555 1_555
F2I F3K 1_555 1_555
F3W F2K 1_555 1_555
F3W Cd1L 1_555 1_555
F3I Cd1I_2 1_555 1_555
F3L Cd1L 1_555 1_555
N1O C1O 1_555 1_555
N1O Cd1A 1_555 1_555
N1C C1C 1_555 1_555
N1K N1U 1_555 1_555
N1U C1U 1_555 1_555
N1F C1F 1_555 1_555
N1F Cd1F_2 1_555 1_555
Si1A F3O 1_555 1_555
Si1A F3A 1_555 1_555
F2O F3R 1_555 1_555
F3O F2R 1_555 1_555
F3P F2A 1_555 1_555
F2R F3J 1_555 1_555
F3S F2J 1_555 1_555
F3S Cd1P_2 1_555 1_555
F2J F3A 1_555 1_555
F3M F2A 1_555 1_555
F3M Cd1M 1_555 1_555
F3J Cd1C_3 1_555 1_555
F3R Cd1M 1_555 1_555
F4C Cd1C_2 1_555 1_555
N1V C1V 1_555 1_555
N1V Cd1Q 1_555 1_555
N1Q N1T 1_555 1_555
N1T C1T 1_555 1_555
F1B Cd1I_3 1_555 1_555
N1B_2 C1B_2 1_555 1_555
N1B_2 Cd1B_2 1_555 1_555
N1J C1J 1_555 1_555
N1J Cd1C_2 1_555 1_555
Cd1C F1C_2 1_555 1_555
Cd1I F1B_2 1_555 1_555
Cd1M_2 F1B_2 1_555 1_555
Cd1EA F1Y 1_555 1_555
Cd1GA F1Z 1_555 1_555
Cd1KA F1Z 1_555 1_555

#END
