
#######################################################################
#
#                 Cambridge Crystallographic Data Centre
#                                CCDC 
#
#######################################################################
#
# If this CIF has been generated from an entry in the Cambridge 
# Structural Database, then it will include bibliographic, chemical, 
# crystal, experimental, refinement or atomic coordinate data resulting 
# from the CCDC's data processing and validation procedures.
#
#######################################################################

data_SINZIA
_symmetry_cell_setting           monoclinic
_symmetry_space_group_name_H-M   'P 2/c'
_symmetry_Int_Tables_number      13
_space_group_name_Hall           '-P 2yc'
loop_
_symmetry_equiv_pos_site_id
_symmetry_equiv_pos_as_xyz
1 x,y,z
2 -x,y,1/2-z
3 -x,-y,-z
4 x,-y,1/2+z
_cell_length_a                   14.909(3)
_cell_length_b                   7.1963(15)
_cell_length_c                   24.592(5)
_cell_angle_alpha                90
_cell_angle_beta                 104.312(2)
_cell_angle_gamma                90
_cell_volume                     2556.58
loop_
_atom_site_label
_atom_site_type_symbol
_atom_site_fract_x
_atom_site_fract_y
_atom_site_fract_z
C1 C 0.4146(3) 1.2879(7) 0.4166(2)
C2 C 0.3566(3) 1.1985(6) 0.36471(19)
C3 C 0.3790(3) 1.0242(6) 0.34713(19)
H1 H 0.4291 0.9592 0.3689
C4 C 0.3289(3) 0.9485(6) 0.2988(2)
H2 H 0.3460 0.8333 0.2875
C5 C 0.2530(3) 1.0381(6) 0.26605(17)
C6 C 0.2284(3) 1.2107(7) 0.2835(2)
H3 H 0.1762 1.2719 0.2626
C7 C 0.2807(3) 1.2896(7) 0.3310(2)
H4 H 0.2654 1.4075 0.3412
C8 C 0.1359(3) 0.7901(6) 0.23961(19)
H5 H 0.1101 0.8483 0.2674
H6 H 0.1763 0.6910 0.2566
H7 H 0.0869 0.7409 0.2102
C9 C 0.1912(3) 0.9344(6) 0.21498(19)
C10 C 0.1215(3) 1.0587(7) 0.1758(2)
H8 H 0.1537 1.1506 0.1597
H9 H 0.0831 1.1191 0.1966
H10 H 0.0835 0.9848 0.1465
C11 C 0.2508(3) 0.8456(6) 0.17897(19)
C12 C 0.3184(3) 0.9534(7) 0.16528(19)
H11 H 0.3301 1.0720 0.1804
C13 C 0.3690(3) 0.8863(6) 0.12900(19)
H12 H 0.4121 0.9639 0.1189
C14 C 0.3575(3) 0.7075(6) 0.10736(19)
C15 C 0.2882(3) 0.5973(7) 0.1210(2)
H13 H 0.2768 0.4781 0.1063
C16 C 0.2360(3) 0.6675(7) 0.1571(2)
H14 H 0.1910 0.5932 0.1664
C17 C 0.4121(3) 0.6358(7) 0.06815(18)
C18 C 0.7070(3) 1.0346(7) 0.5184(2)
H15 H 0.6706 0.9702 0.4881
C19 C 0.7509(3) 1.2253(7) 0.5865(2)
H16 H 0.7515 1.3205 0.6121
C20 C 0.8192(3) 1.1019(6) 0.5883(2)
H17 H 0.8755 1.0987 0.6150
C21 C 0.8516(3) 0.8424(6) 0.53228(19)
C22 C 0.8968(3) 0.7188(7) 0.5733(2)
H18 H 0.8898 0.7284 0.6097
C23 C 0.9526(3) 0.5801(7) 0.5596(2)
H19 H 0.9813 0.4996 0.5882
C24 C 0.9646(3) 0.5674(6) 0.5058(2)
C25 C 0.9193(3) 0.6911(6) 0.4649(2)
H20 H 0.9247 0.6875 0.4280
C26 C 0.8630(3) 0.8295(7) 0.4784(2)
H21 H 0.8331 0.9132 0.4510
Co1 Co 0.56078(4) 1.33794(8) 0.51174(2)
N1 N 0.6795(2) 1.1870(5) 0.54005(15)
N2 N 0.7926(3) 0.9841(5) 0.54501(16)
O1 O 0.4840(2) 1.2035(5) 0.44455(14)
O2 O 0.3884(2) 1.4452(5) 0.42984(14)
O3 O 0.47579(19) 0.7312(4) 0.06100(12)
O4 O 0.3835(2) 0.4824(4) 0.04411(14)
C18B C 1.2930(3) -0.0346(7) 0.4816(2)
H15B H 1.3294 0.0298 0.5119
C19B C 1.2491(3) -0.2253(7) 0.4135(2)
H16B H 1.2485 -0.3205 0.3879
C20B C 1.1808(3) -0.1019(6) 0.4117(2)
H17B H 1.1245 -0.0987 0.3850
C21B C 1.1484(3) 0.1576(6) 0.46772(19)
C22B C 1.1032(3) 0.2812(7) 0.4267(2)
H18B H 1.1102 0.2716 0.3903
C23B C 1.0474(3) 0.4199(7) 0.4404(2)
H19B H 1.0187 0.5004 0.4118
C24B C 1.0354(3) 0.4326(6) 0.4942(2)
C25B C 1.0807(3) 0.3089(6) 0.5351(2)
H20B H 1.0753 0.3125 0.5720
C26B C 1.1370(3) 0.1705(7) 0.5216(2)
H21B H 1.1669 0.0868 0.5490
N1B N 1.3205(2) -0.1870(5) 0.45995(15)
N2B N 1.2074(3) 0.0159(5) 0.45499(16)
C1B C 0.5854(3) 1.7121(7) 0.5834(2)
C2B C 0.6434(3) 1.8015(6) 0.63529(19)
C3B C 0.6210(3) 1.9758(6) 0.65287(19)
H1B H 0.5709 2.0408 0.6311
C4B C 0.6711(3) 2.0515(6) 0.7012(2)
H2B H 0.6540 2.1667 0.7125
C5B C 0.7470(3) 1.9619(6) 0.73395(17)
C6B C 0.7716(3) 1.7893(7) 0.7165(2)
H3B H 0.8238 1.7281 0.7374
C7B C 0.7193(3) 1.7104(7) 0.6690(2)
H4B H 0.7346 1.5925 0.6588
C8B C 0.8641(3) 2.2099(6) 0.76039(19)
H5B H 0.8899 2.1517 0.7326
H6B H 0.8237 2.3090 0.7434
H7B H 0.9131 2.2591 0.7898
C9B C 0.8088(3) 2.0656(6) 0.78502(19)
C10B C 0.8785(3) 1.9413(7) 0.8242(2)
H8B H 0.8463 1.8494 0.8403
H9B H 0.9169 1.8809 0.8034
H10B H 0.9165 2.0152 0.8535
C11B C 0.7492(3) 2.1544(6) 0.82103(19)
C12B C 0.6816(3) 2.0466(7) 0.83472(19)
H11B H 0.6699 1.9280 0.8196
C13B C 0.6310(3) 2.1137(6) 0.87100(19)
H12B H 0.5879 2.0361 0.8811
C14B C 0.6425(3) 2.2925(6) 0.89264(19)
C15B C 0.7118(3) 2.4027(7) 0.8790(2)
H13B H 0.7232 2.5219 0.8937
C16B C 0.7640(3) 2.3325(7) 0.8429(2)
H14B H 0.8090 2.4068 0.8336
C17B C 0.5879(3) 2.3642(7) 0.93185(18)
Co1B Co 0.43922(4) 1.66206(8) 0.48826(2)
O1B O 0.5160(2) 1.7965(5) 0.55545(14)
O2B O 0.6116(2) 1.5548(5) 0.57016(14)
O3B O 0.52421(19) 2.2688(4) 0.93900(12)
O4B O 0.6165(2) 2.5176(4) 0.95589(14)
Co1A Co 0.43922(4) 0.33794(8) -0.01174(2)
Co1A_2 Co 0.43922(4) 2.33794(8) 0.98826(2)
Co1B_2 Co 1.43922(4) -0.33794(8) 0.48826(2)
Co1C Co 0.56078(4) 0.66206(8) 0.01174(2)
Co1C_2 Co 0.56078(4) 2.66206(8) 1.01174(2)
N1B_2 N 0.3205(2) 1.8130(5) 0.45995(15)
O3A O 0.52421(19) 1.7312(4) 0.43900(12)
O3C O 0.47579(19) 1.2688(4) 0.56100(12)
O4A O 0.6165(2) 1.4824(4) 0.45589(14)
O4C O 0.3835(2) 1.5176(4) 0.54411(14)
O5 O 0.5000 0.1001(12) 0.2500
H22 H 0.4526 0.0325 0.2482
H22A H 0.5474 0.0325 0.2518
O6 O 0.5000 0.4977(12) 0.2500
H23 H 0.5155 0.6045 0.2408
H23A H 0.4845 0.6045 0.2592
O7 O 0.9651(6) 0.2795(12) 0.1975(4)
H24 H 0.9628 0.2282 0.2282
H25 H 0.9737 0.3956 0.2024
H26? H 0.5073 0.1172 0.2172
H27? H 0.5396 0.4602 0.2790
loop_
_geom_bond_atom_site_label_1
_geom_bond_atom_site_label_2
_geom_bond_site_symmetry_1
_geom_bond_site_symmetry_2
C1 C2 1_555 1_555
C2 C3 1_555 1_555
C3 H1 1_555 1_555
C4 C3 1_555 1_555
H2 C4 1_555 1_555
C5 C4 1_555 1_555
C6 C5 1_555 1_555
H3 C6 1_555 1_555
C7 C2 1_555 1_555
H4 C7 1_555 1_555
C8 H5 1_555 1_555
H6 C8 1_555 1_555
H7 C8 1_555 1_555
C9 C5 1_555 1_555
C10 C9 1_555 1_555
H8 C10 1_555 1_555
H9 C10 1_555 1_555
H10 C10 1_555 1_555
C11 C9 1_555 1_555
C12 C11 1_555 1_555
H11 C12 1_555 1_555
C13 C12 1_555 1_555
H12 C13 1_555 1_555
C14 C13 1_555 1_555
C15 C14 1_555 1_555
H13 C15 1_555 1_555
C16 C11 1_555 1_555
H14 C16 1_555 1_555
C17 C14 1_555 1_555
C18 H15 1_555 1_555
C19 H16 1_555 1_555
C20 C19 1_555 1_555
H17 C20 1_555 1_555
C21 C22 1_555 1_555
C22 H18 1_555 1_555
C23 C22 1_555 1_555
H19 C23 1_555 1_555
C24 C23 1_555 1_555
C25 C24 1_555 1_555
H20 C25 1_555 1_555
C26 C21 1_555 1_555
H21 C26 1_555 1_555
Co1 N1 1_555 1_555
N1 C18 1_555 1_555
N2 C18 1_555 1_555
O1 C1 1_555 1_555
O2 C1 1_555 1_555
O3 C17 1_555 1_555
O4 C17 1_555 1_555
O5 H22 1_555 1_555
O6 H23 1_555 1_555
O7 H24 1_555 1_555
H25 O7 1_555 1_555
C18B H15B 1_555 1_555
C19B H16B 1_555 1_555
C20B C19B 1_555 1_555
H17B C20B 1_555 1_555
C21B C22B 1_555 1_555
C22B H18B 1_555 1_555
C23B C22B 1_555 1_555
H19B C23B 1_555 1_555
C24B C24 1_555 1_555
C25B C24B 1_555 1_555
H20B C25B 1_555 1_555
C26B C21B 1_555 1_555
H21B C26B 1_555 1_555
N1B C18B 1_555 1_555
N2B C18B 1_555 1_555
C1B C2B 1_555 1_555
C2B C3B 1_555 1_555
C3B H1B 1_555 1_555
C4B C3B 1_555 1_555
H2B C4B 1_555 1_555
C5B C4B 1_555 1_555
C6B C5B 1_555 1_555
H3B C6B 1_555 1_555
C7B C2B 1_555 1_555
H4B C7B 1_555 1_555
C8B H5B 1_555 1_555
H6B C8B 1_555 1_555
H7B C8B 1_555 1_555
C9B C5B 1_555 1_555
C10B C9B 1_555 1_555
H8B C10B 1_555 1_555
H9B C10B 1_555 1_555
H10B C10B 1_555 1_555
C11B C9B 1_555 1_555
C12B C11B 1_555 1_555
H11B C12B 1_555 1_555
C13B C12B 1_555 1_555
H12B C13B 1_555 1_555
C14B C13B 1_555 1_555
C15B C14B 1_555 1_555
H13B C15B 1_555 1_555
C16B C11B 1_555 1_555
H14B C16B 1_555 1_555
C17B C14B 1_555 1_555
Co1B Co1 1_555 1_555
O1B C1B 1_555 1_555
O2B Co1 1_555 1_555
O3B C17B 1_555 1_555
O4B C17B 1_555 1_555
Co1A O4 1_555 1_555
Co1A_2 O3B 1_555 1_555
Co1B_2 N1B 1_555 1_555
Co1C O3 1_555 1_555
Co1C_2 O4B 1_555 1_555
N1B_2 Co1B 1_555 1_555
O3A Co1B 1_555 1_555
O3C Co1 1_555 1_555
O4A Co1 1_555 1_555
O4C Co1B 1_555 1_555
H22A O5 1_555 1_555
H23A O6 1_555 1_555
C6 C7 1_555 1_555
C8 C9 1_555 1_555
C15 C16 1_555 1_555
C19 N1 1_555 1_555
C20 N2 1_555 1_555
C21 N2 1_555 1_555
C25 C26 1_555 1_555
Co1 O1 1_555 1_555
O2 Co1B 1_555 1_555
C19B N1B 1_555 1_555
C20B N2B 1_555 1_555
C21B N2B 1_555 1_555
C23B C24B 1_555 1_555
C25B C26B 1_555 1_555
C1B O2B 1_555 1_555
C6B C7B 1_555 1_555
C8B C9B 1_555 1_555
C15B C16B 1_555 1_555
Co1B O1B 1_555 1_555
Co1A Co1C 1_555 1_555
Co1A_2 Co1C_2 1_555 1_555

#END
