
#######################################################################
#
#                 Cambridge Crystallographic Data Centre
#                                CCDC 
#
#######################################################################
#
# If this CIF has been generated from an entry in the Cambridge 
# Structural Database, then it will include bibliographic, chemical, 
# crystal, experimental, refinement or atomic coordinate data resulting 
# from the CCDC's data processing and validation procedures.
#
#######################################################################

data_SIPHOP
_symmetry_cell_setting           triclinic
_symmetry_space_group_name_H-M   'P -1'
_symmetry_Int_Tables_number      2
_space_group_name_Hall           '-P 1'
loop_
_symmetry_equiv_pos_site_id
_symmetry_equiv_pos_as_xyz
1 x,y,z
2 -x,-y,-z
_cell_length_a                   10.132(3)
_cell_length_b                   11.409(3)
_cell_length_c                   14.038(4)
_cell_angle_alpha                86.801(7)
_cell_angle_beta                 73.837(7)
_cell_angle_gamma                73.689(6)
_cell_volume                     1495.42
loop_
_atom_site_label
_atom_site_type_symbol
_atom_site_fract_x
_atom_site_fract_y
_atom_site_fract_z
Zn1 Zn 0.01721(3) 0.67044(2) 0.392585(18)
O1 O 0.21505(17) 0.56408(15) 0.36290(12)
N1 N -0.0032(2) 0.80535(17) 0.29030(13)
C1 C 0.7884(2) 0.6004(2) 0.39786(15)
O2 O 0.27046(17) 0.73254(15) 0.38954(12)
N2 N 0.04392(19) 1.25353(16) 0.47002(13)
C2 C 0.6887(2) 0.5330(2) 0.38232(15)
O3 O 0.92313(16) 0.54660(14) 0.37253(12)
C3 C 0.7307(2) 0.4073(2) 0.36498(16)
H1 H 0.8257 0.3610 0.3623
O4 O 0.73986(17) 0.70655(15) 0.43261(13)
C4 C 0.6326(2) 0.3496(2) 0.35154(17)
H2 H 0.6605 0.2636 0.3406
O5 O 0.2272(2) 1.03239(16) 0.04520(12)
C5 C 0.4940(2) 0.4174(2) 0.35409(16)
H3 H 0.4279 0.3776 0.3443
O6 O 0.25391(19) 1.27768(17) 0.11730(12)
C6 C 0.4516(2) 0.5436(2) 0.37105(16)
C7 C 0.5498(2) 0.6000(2) 0.38596(15)
H5 H 0.5213 0.6857 0.3988
C8 C 0.3030(2) 0.6206(2) 0.37530(16)
C9 C 0.1126(2) 0.8164(2) 0.21823(16)
H6 H 0.2032 0.7618 0.2171
C11 C -0.1471(3) 0.9746(2) 0.22343(18)
H12 H -0.2384 1.0295 0.2269
C12 C -0.0281(3) 0.9844(2) 0.14967(18)
H13 H -0.0369 1.0459 0.1016
C13 C 0.1050(3) 0.9037(2) 0.14604(16)
C14 C 0.2383(3) 0.9071(2) 0.06539(18)
H14 H 0.3247 0.8690 0.0880
H15 H 0.2445 0.8624 0.0051
C15 C 0.3165(3) 1.0613(2) -0.04053(16)
C16 C 0.4351(3) 0.9772(2) -0.09906(18)
H16 H 0.4618 0.8948 -0.0794
C17 C 0.5141(3) 1.0151(3) -0.18659(19)
H17 H 0.5944 0.9576 -0.2274
C18 C 0.4780(3) 1.1345(3) -0.21538(19)
H18 H 0.5330 1.1595 -0.2753
C19 C 0.3596(3) 1.2182(3) -0.15549(19)
H21 H 0.3349 1.3008 -0.1750
C20 C 0.2770(3) 1.1834(2) -0.06769(17)
C21 C 0.1429(3) 1.2694(2) -0.00761(17)
C22 C 0.0241(3) 1.3059(2) -0.04449(18)
H22 H 0.0319 1.2795 -0.1093
C23 C -0.1059(3) 1.3798(2) 0.0110(2)
H23 H -0.1864 1.4023 -0.0149
C24 C -0.1163(3) 1.4202(2) 0.1042(2)
H24 H -0.2052 1.4700 0.1429
C25 C 0.0012(3) 1.3893(2) 0.14235(18)
H25 H -0.0064 1.4192 0.2060
C26 C 0.1307(3) 1.3136(2) 0.08625(17)
C27 C 0.2469(3) 1.3177(2) 0.21365(17)
H26 H 0.2044 1.4074 0.2201
H27 H 0.3451 1.2999 0.2206
C28 C 0.1598(2) 1.2576(2) 0.29635(16)
C29 C 0.1206(2) 1.3033(2) 0.39278(16)
H28 H 0.1489 1.3725 0.4048
C30 C 0.0057(2) 1.1540(2) 0.45292(17)
H29 H -0.0481 1.1182 0.5071
C31 C 0.0423(3) 1.1029(2) 0.35949(18)
H30 H 0.0147 1.0325 0.3496
C32 C 0.1197(3) 1.1553(2) 0.27995(17)
H31 H 0.1452 1.1215 0.2148
C33 C -0.1314(3) 0.8837(2) 0.29229(17)
H32 H -0.2135 0.8763 0.3425
Zn1A Zn -0.01721(3) 1.32956(2) 0.607415(18)
Zn1_2 Zn 1.01721(3) 0.67044(2) 0.392585(18)
N2A N -0.04392(19) 0.74647(16) 0.52998(13)
O3_2 O -0.07687(16) 0.54660(14) 0.37253(12)
O7 O 0.4985(19) 1.3705(14) 0.0019(11)
H4 H 0.4849 1.3058 -0.0140
C10 C 0.5380(18) 1.4542(17) -0.1014(13)
H9 H 0.4611 1.5302 -0.0963
H10 H 0.5474 1.4070 -0.1603
H11 H 0.6281 1.4735 -0.1069
O8 O 0.4568(2) 0.12904(18) 0.41628(15)
H19 H 0.4108 0.0716 0.4199
H20 H 0.3983 0.1848 0.4577
O9 O 0.6783(2) 0.0653(2) 0.51476(19)
H7 H 0.627(5) 0.088(4) 0.485(4)
H8 H 0.687(5) 0.134(5) 0.546(4)
loop_
_geom_bond_atom_site_label_1
_geom_bond_atom_site_label_2
_geom_bond_site_symmetry_1
_geom_bond_site_symmetry_2
Zn1 O1 1_555 1_555
O1 C8 1_555 1_555
N1 Zn1 1_555 1_555
C1 C2 1_555 1_555
O2 C8 1_555 1_555
N2 C29 1_555 1_555
C2 C3 1_555 1_555
O3 C1 1_555 1_555
C3 H1 1_555 1_555
O4 C1 1_555 1_555
C4 C3 1_555 1_555
H2 C4 1_555 1_555
O5 C14 1_555 1_555
C5 C4 1_555 1_555
H3 C5 1_555 1_555
O6 C26 1_555 1_555
C6 C5 1_555 1_555
O7 H4 1_555 1_555
C7 C2 1_555 1_555
H5 C7 1_555 1_555
O8 H19 1_555 1_555
C8 C6 1_555 1_555
O9 H7 1_555 1_555
C9 N1 1_555 1_555
H6 C9 1_555 1_555
H8 O9 1_555 1_555
C10 O7 1_555 1_555
H9 C10 1_555 1_555
H10 C10 1_555 1_555
H11 C10 1_555 1_555
C11 H12 1_555 1_555
C12 C11 1_555 1_555
H13 C12 1_555 1_555
C13 C9 1_555 1_555
C14 C13 1_555 1_555
H14 C14 1_555 1_555
H15 C14 1_555 1_555
C15 O5 1_555 1_555
C16 C15 1_555 1_555
H16 C16 1_555 1_555
C17 C16 1_555 1_555
H17 C17 1_555 1_555
C18 C17 1_555 1_555
H18 C18 1_555 1_555
H20 O8 1_555 1_555
C19 C18 1_555 1_555
H21 C19 1_555 1_555
C20 C15 1_555 1_555
C21 C20 1_555 1_555
C22 C21 1_555 1_555
H22 C22 1_555 1_555
C23 C22 1_555 1_555
H23 C23 1_555 1_555
C24 C23 1_555 1_555
H24 C24 1_555 1_555
C25 C24 1_555 1_555
H25 C25 1_555 1_555
C26 C21 1_555 1_555
C27 O6 1_555 1_555
H26 C27 1_555 1_555
H27 C27 1_555 1_555
C28 C27 1_555 1_555
C29 C28 1_555 1_555
H28 C29 1_555 1_555
C30 N2 1_555 1_555
H29 C30 1_555 1_555
C31 C30 1_555 1_555
H30 C31 1_555 1_555
C32 C28 1_555 1_555
H31 C32 1_555 1_555
C33 N1 1_555 1_555
H32 C33 1_555 1_555
Zn1A N2 1_555 1_555
Zn1_2 O3 1_555 1_555
N2A Zn1 1_555 1_555
O3_2 Zn1 1_555 1_555
C6 C7 1_555 1_555
C11 C33 1_555 1_555
C12 C13 1_555 1_555
C19 C20 1_555 1_555
C25 C26 1_555 1_555
C31 C32 1_555 1_555

#END
