
#######################################################################
#
#                 Cambridge Crystallographic Data Centre
#                                CCDC 
#
#######################################################################
#
# If this CIF has been generated from an entry in the Cambridge 
# Structural Database, then it will include bibliographic, chemical, 
# crystal, experimental, refinement or atomic coordinate data resulting 
# from the CCDC's data processing and validation procedures.
#
#######################################################################

data_SIPHUV
_symmetry_cell_setting           monoclinic
_symmetry_space_group_name_H-M   'C 2/m'
_symmetry_Int_Tables_number      12
_space_group_name_Hall           '-C 2y'
loop_
_symmetry_equiv_pos_site_id
_symmetry_equiv_pos_as_xyz
1 x,y,z
2 1/2+x,1/2+y,z
3 -x,y,-z
4 1/2-x,1/2+y,-z
5 -x,-y,-z
6 1/2-x,1/2-y,-z
7 x,-y,z
8 1/2+x,1/2-y,z
_cell_length_a                   12.9512(10)
_cell_length_b                   31.835(2)
_cell_length_c                   8.6952(7)
_cell_angle_alpha                90
_cell_angle_beta                 100.022(2)
_cell_angle_gamma                90
_cell_volume                     3530.34
loop_
_atom_site_label
_atom_site_type_symbol
_atom_site_fract_x
_atom_site_fract_y
_atom_site_fract_z
Cd1 Cd 0.14991(7) 0.0000 0.54375(10)
O1 O -0.0069(7) 0.0000 0.6591(10)
O2 O 0.1404(8) 0.0000 0.8269(10)
O3 O 0.2742(8) 0.0000 0.3661(13)
O4 O 0.3343(7) 0.0000 0.6179(13)
O5 O 0.1219(7) 0.1801(3) 0.8868(9)
N1 N 0.1485(6) 0.0723(2) 0.5450(9)
C1 C 0.0425(12) 0.0000 0.7970(16)
C2 C -0.0196(11) 0.0000 0.9275(15)
H1 H -0.0923 0.0000 0.9005
C3 C 0.3463(12) 0.0000 0.4818(18)
C4 C 0.4599(10) 0.0000 0.4499(17)
H2 H 0.4687 0.0000 0.3460
C5 C 0.1749(8) 0.0934(4) 0.6822(13)
H3 H 0.1934 0.0776 0.7728
C6 C 0.1211(9) 0.0947(4) 0.4168(12)
H4 H 0.1032 0.0810 0.3215
C7 C 0.1184(11) 0.1386(4) 0.4204(14)
H5 H 0.0984 0.1538 0.3288
C8 C 0.1460(10) 0.1591(4) 0.5621(15)
H6 H 0.1439 0.1883 0.5659
C9 C 0.1762(9) 0.1366(4) 0.6965(12)
C10 C 0.2090(11) 0.1575(4) 0.8518(13)
H7 H 0.2313 0.1366 0.9318
H8 H 0.2671 0.1764 0.8478
C11 C 0.1376(11) 0.2030(4) 1.0255(12)
C12 C 0.0506(11) 0.2255(4) 1.0548(12)
C13 C 0.0619(13) 0.2484(4) 1.1917(15)
H9 H 0.0042 0.2626 1.2162
C14 C 0.1567(15) 0.2507(5) 1.2936(14)
H10 H 0.1629 0.2669 1.3837
C15 C 0.2422(13) 0.2286(4) 1.2597(16)
H11 H 0.3053 0.2300 1.3293
C16 C 0.2369(11) 0.2047(4) 1.1269(14)
H12 H 0.2950 0.1903 1.1043
Cd1D Cd -0.14991(7) 0.0000 1.45625(10)
Cd1D_2 Cd -0.14991(7) 0.0000 0.45625(10)
Cd1_2 Cd 0.14991(7) 0.0000 1.54375(10)
Cd1D_3 Cd 0.85009(7) 0.0000 0.45625(10)
O1D O 0.0069(7) 0.0000 1.3409(10)
O1D_2 O 0.0069(7) 0.0000 0.3409(10)
O1_2 O -0.0069(7) 0.0000 1.6591(10)
O2D O -0.1404(8) 0.0000 1.1731(10)
O3D O 0.7258(8) 0.0000 0.6339(13)
O3D_2 O -0.2742(8) 0.0000 1.6339(13)
O4D O 0.6657(7) 0.0000 0.3821(13)
O4D_2 O -0.3343(7) 0.0000 1.3821(13)
O5B O -0.1219(7) 0.1801(3) 1.1132(9)
O5F O 0.1219(7) -0.1801(3) 0.8868(9)
O5D O -0.1219(7) -0.1801(3) 1.1132(9)
N1B N -0.1485(6) 0.0723(2) 1.4550(9)
N1F N 0.1485(6) -0.0723(2) 0.5450(9)
N1D N -0.1485(6) -0.0723(2) 1.4550(9)
C1D C -0.0425(12) 0.0000 1.2030(16)
C2D C 0.0196(11) 0.0000 1.0725(15)
H1D H 0.0923 0.0000 1.0995
C3D C 0.6537(12) 0.0000 0.5182(18)
C4D C 0.5401(10) 0.0000 0.5501(17)
H2D H 0.5313 0.0000 0.6540
C5B C -0.1749(8) 0.0934(4) 1.3178(13)
C5F C 0.1749(8) -0.0934(4) 0.6822(13)
C5D C -0.1749(8) -0.0934(4) 1.3178(13)
H3B H -0.1934 0.0776 1.2272
H3F H 0.1934 -0.0776 0.7728
H3D H -0.1934 -0.0776 1.2272
C6B C -0.1211(9) 0.0947(4) 1.5832(12)
C6F C 0.1211(9) -0.0947(4) 0.4168(12)
C6D C -0.1211(9) -0.0947(4) 1.5832(12)
H4B H -0.1032 0.0810 1.6785
H4F H 0.1032 -0.0810 0.3215
H4D H -0.1032 -0.0810 1.6785
C7B C -0.1184(11) 0.1386(4) 1.5796(14)
C7F C 0.1184(11) -0.1386(4) 0.4204(14)
C7D C -0.1184(11) -0.1386(4) 1.5796(14)
H5B H -0.0984 0.1538 1.6712
H5F H 0.0984 -0.1538 0.3288
H5D H -0.0984 -0.1538 1.6712
C8B C -0.1460(10) 0.1591(4) 1.4379(15)
C8F C 0.1460(10) -0.1591(4) 0.5621(15)
C8D C -0.1460(10) -0.1591(4) 1.4379(15)
H6B H -0.1439 0.1883 1.4341
H6F H 0.1439 -0.1883 0.5659
H6D H -0.1439 -0.1883 1.4341
C9B C -0.1762(9) 0.1366(4) 1.3035(12)
C9F C 0.1762(9) -0.1366(4) 0.6965(12)
C9D C -0.1762(9) -0.1366(4) 1.3035(12)
C10B C -0.2090(11) 0.1575(4) 1.1482(13)
C10F C 0.2090(11) -0.1575(4) 0.8518(13)
C10D C -0.2090(11) -0.1575(4) 1.1482(13)
H7B H -0.2313 0.1366 1.0682
H7F H 0.2313 -0.1366 0.9318
H7D H -0.2313 -0.1366 1.0682
H8B H -0.2671 0.1764 1.1522
H8F H 0.2671 -0.1764 0.8478
H8D H -0.2671 -0.1764 1.1522
C11B C -0.1376(11) 0.2030(4) 0.9745(12)
C11F C 0.1376(11) -0.2030(4) 1.0255(12)
C11D C -0.1376(11) -0.2030(4) 0.9745(12)
C12B C -0.0506(11) 0.2255(4) 0.9452(12)
C12F C 0.0506(11) -0.2255(4) 1.0548(12)
C12D C -0.0506(11) -0.2255(4) 0.9452(12)
C13B C -0.0619(13) 0.2484(4) 0.8083(15)
C13F C 0.0619(13) -0.2484(4) 1.1917(15)
C13D C -0.0619(13) -0.2484(4) 0.8083(15)
H9B H -0.0042 0.2626 0.7838
H9F H 0.0042 -0.2626 1.2162
H9D H -0.0042 -0.2626 0.7838
C14B C -0.1567(15) 0.2507(5) 0.7064(14)
C14F C 0.1567(15) -0.2507(5) 1.2936(14)
C14D C -0.1567(15) -0.2507(5) 0.7064(14)
H10B H -0.1629 0.2669 0.6163
H10F H 0.1629 -0.2669 1.3837
H10D H -0.1629 -0.2669 0.6163
C15B C -0.2422(13) 0.2286(4) 0.7403(16)
C15F C 0.2422(13) -0.2286(4) 1.2597(16)
C15D C -0.2422(13) -0.2286(4) 0.7403(16)
H11B H -0.3053 0.2300 0.6707
H11F H 0.3053 -0.2300 1.3293
H11D H -0.3053 -0.2300 0.6707
C16B C -0.2369(11) 0.2047(4) 0.8731(14)
C16F C 0.2369(11) -0.2047(4) 1.1269(14)
C16D C -0.2369(11) -0.2047(4) 0.8731(14)
H12B H -0.2950 0.1903 0.8957
H12F H 0.2950 -0.1903 1.1043
H12D H -0.2950 -0.1903 0.8957
O6 O 0.2771(16) 0.0573(6) 0.108(2)
O7 O 0.411(2) 0.0361(13) 0.911(3)
loop_
_geom_bond_atom_site_label_1
_geom_bond_atom_site_label_2
_geom_bond_site_symmetry_1
_geom_bond_site_symmetry_2
Cd1 O1 1_555 1_555
O1 C1 1_555 1_555
O2 Cd1 1_555 1_555
O3 Cd1 1_555 1_555
O4 Cd1 1_555 1_555
O5 C10 1_555 1_555
N1 Cd1 1_555 1_555
C1 O2 1_555 1_555
C2 C1 1_555 1_555
H1 C2 1_555 1_555
C3 O3 1_555 1_555
C4 C3 1_555 1_555
H2 C4 1_555 1_555
C5 N1 1_555 1_555
H3 C5 1_555 1_555
C6 N1 1_555 1_555
H4 C6 1_555 1_555
C7 C6 1_555 1_555
H5 C7 1_555 1_555
C8 C7 1_555 1_555
H6 C8 1_555 1_555
C9 C5 1_555 1_555
C10 C9 1_555 1_555
H7 C10 1_555 1_555
H8 C10 1_555 1_555
C11 O5 1_555 1_555
C12 C11 1_555 1_555
C13 C12 1_555 1_555
H9 C13 1_555 1_555
C14 C13 1_555 1_555
H10 C14 1_555 1_555
C15 C14 1_555 1_555
H11 C15 1_555 1_555
C16 C11 1_555 1_555
H12 C16 1_555 1_555
Cd1D O1D 1_555 1_555
Cd1D_2 O1 1_555 1_555
Cd1_2 O1D 1_555 1_555
Cd1D_3 O3D 1_555 1_555
O1D C1D 1_555 1_555
O1D_2 Cd1 1_555 1_555
O1_2 Cd1D 1_555 1_555
O2D Cd1D 1_555 1_555
O3D C3D 1_555 1_555
O3D_2 Cd1D 1_555 1_555
O4D Cd1D_3 1_555 1_555
O4D_2 Cd1D 1_555 1_555
O5B C10B 1_555 1_555
O5F C10F 1_555 1_555
O5D C10D 1_555 1_555
N1B Cd1D 1_555 1_555
N1F Cd1 1_555 1_555
N1D Cd1D 1_555 1_555
C1D O2D 1_555 1_555
C2D C2 1_555 1_555
H1D C2D 1_555 1_555
C3D O4D 1_555 1_555
C4D C4 1_555 1_555
H2D C4D 1_555 1_555
C5B N1B 1_555 1_555
C5F N1F 1_555 1_555
C5D N1D 1_555 1_555
H3B C5B 1_555 1_555
H3F C5F 1_555 1_555
H3D C5D 1_555 1_555
C6B N1B 1_555 1_555
C6F N1F 1_555 1_555
C6D N1D 1_555 1_555
H4B C6B 1_555 1_555
H4F C6F 1_555 1_555
H4D C6D 1_555 1_555
C7B C6B 1_555 1_555
C7F C6F 1_555 1_555
C7D C6D 1_555 1_555
H5B C7B 1_555 1_555
H5F C7F 1_555 1_555
H5D C7D 1_555 1_555
C8B C7B 1_555 1_555
C8F C7F 1_555 1_555
C8D C7D 1_555 1_555
H6B C8B 1_555 1_555
H6F C8F 1_555 1_555
H6D C8D 1_555 1_555
C9B C5B 1_555 1_555
C9F C5F 1_555 1_555
C9D C5D 1_555 1_555
C10B C9B 1_555 1_555
C10F C9F 1_555 1_555
C10D C9D 1_555 1_555
H7B C10B 1_555 1_555
H7F C10F 1_555 1_555
H7D C10D 1_555 1_555
H8B C10B 1_555 1_555
H8F C10F 1_555 1_555
H8D C10D 1_555 1_555
C11B O5B 1_555 1_555
C11F O5F 1_555 1_555
C11D O5D 1_555 1_555
C12B C12 1_555 1_555
C12F C11F 1_555 1_555
C12D C11D 1_555 1_555
C13B C12B 1_555 1_555
C13F C12F 1_555 1_555
C13D C12D 1_555 1_555
H9B C13B 1_555 1_555
H9F C13F 1_555 1_555
H9D C13D 1_555 1_555
C14B C13B 1_555 1_555
C14F C13F 1_555 1_555
C14D C13D 1_555 1_555
H10B C14B 1_555 1_555
H10F C14F 1_555 1_555
H10D C14D 1_555 1_555
C15B C14B 1_555 1_555
C15F C14F 1_555 1_555
C15D C14D 1_555 1_555
H11B C15B 1_555 1_555
H11F C15F 1_555 1_555
H11D C15D 1_555 1_555
C16B C11B 1_555 1_555
C16F C11F 1_555 1_555
C16D C11D 1_555 1_555
H12B C16B 1_555 1_555
H12F C16F 1_555 1_555
H12D C16D 1_555 1_555
O4 C3 1_555 1_555
C8 C9 1_555 1_555
C15 C16 1_555 1_555
Cd1D_2 O1D_2 1_555 1_555
Cd1_2 O1_2 1_555 1_555
C1D C2D 1_555 1_555
C3D C4D 1_555 1_555
C8B C9B 1_555 1_555
C8F C9F 1_555 1_555
C8D C9D 1_555 1_555
C11B C12B 1_555 1_555
C12F C12D 1_555 1_555
C15B C16B 1_555 1_555
C15F C16F 1_555 1_555
C15D C16D 1_555 1_555

#END
