
#######################################################################
#
#                 Cambridge Crystallographic Data Centre
#                                CCDC 
#
#######################################################################
#
# If this CIF has been generated from an entry in the Cambridge 
# Structural Database, then it will include bibliographic, chemical, 
# crystal, experimental, refinement or atomic coordinate data resulting 
# from the CCDC's data processing and validation procedures.
#
#######################################################################

data_SIPHEE
_symmetry_cell_setting           monoclinic
_symmetry_space_group_name_H-M   'C 2/c'
_symmetry_Int_Tables_number      15
_space_group_name_Hall           '-C 2yn'
loop_
_symmetry_equiv_pos_site_id
_symmetry_equiv_pos_as_xyz
1 x,y,z
2 -x,y,1/2-z
3 1/2+x,1/2+y,z
4 1/2-x,1/2+y,1/2-z
5 -x,-y,-z
6 x,-y,1/2+z
7 1/2-x,1/2-y,-z
8 1/2+x,1/2-y,1/2+z
_cell_length_a                   42.005(1)
_cell_length_b                   6.838(1)
_cell_length_c                   23.807(1)
_cell_angle_alpha                90
_cell_angle_beta                 122.7(1)
_cell_angle_gamma                90
_cell_volume                     5754.33
loop_
_atom_site_label
_atom_site_type_symbol
_atom_site_fract_x
_atom_site_fract_y
_atom_site_fract_z
Na1 Na 0.16995(4) -0.7621(2) -0.39756(7)
Na2 Na 0.04767(4) -0.0319(2) -0.66433(7)
N1 N 0.11153(6) -0.2568(3) -0.40447(11)
C1 C 0.07793(7) -0.2546(4) -0.41037(12)
C2 C 0.04487(7) -0.2525(4) -0.47696(12)
C3 C 0.00955(7) -0.2485(4) -0.48670(12)
C4 C 0.00595(8) -0.2459(4) -0.43037(13)
C5 C 0.03667(7) -0.2500(4) -0.36672(13)
C6 C 0.07416(7) -0.2537(4) -0.35412(12)
C7 C 0.10739(8) -0.2565(4) -0.29041(12)
C8 C 0.14257(7) -0.2568(4) -0.28358(12)
C9 C 0.17849(8) -0.2560(4) -0.22089(13)
C10 C 0.21140(8) -0.2575(4) -0.21865(14)
C11 C 0.21175(7) -0.2593(4) -0.27854(13)
C12 C 0.17824(7) -0.2583(4) -0.33929(13)
C13 C 0.14302(7) -0.2577(4) -0.34298(12)
C14 C 0.17459(8) -0.2492(5) -0.40561(14)
O1 O 0.17249(7) -0.4206(3) -0.43134(11)
O2 O 0.17253 -0.0955 -0.43225
C15 C 0.05253(7) -0.2503(4) -0.53225(12)
O3 O 0.05668(7) -0.4248(3) -0.54938(11)
O4 O 0.05539(7) -0.0988(3) -0.55555(11)
C16 C 0.25010(8) -0.2601(4) -0.26888(14)
O5 O 0.24912(6) -0.2616(4) -0.32481(12)
O6 O 0.27846(6) -0.2574(5) -0.21460(12)
C17 C -0.02642(8) -0.2481(4) -0.55398(13)
O7 O -0.02175(6) -0.2574(4) -0.60360(10)
O8 O -0.05692(6) -0.2387(4) -0.56046(12)
S1 S 0.18051(2) -0.2504(1) -0.14426(3)
O9 O 0.15940(8) -0.0776(4) -0.14806(13)
O10 O 0.21967(8) -0.2388(6) -0.09188(13)
O11 O 0.16208(9) -0.4281(4) -0.14401(13)
S2 S 0.02924(2) -0.2512(1) -0.29939(3)
O12 O 0.04586(7) -0.4332(3) -0.26406(11)
O13 O -0.01106(6) -0.2419(4) -0.32938(12)
O14 O 0.04929(7) -0.0811(3) -0.25883(12)
O15 O 0.20111(14) -0.7659(6) -0.46104(27)
O16 O 0.10853(7) -0.7682(4) -0.49242(13)
O17 O 0.13811(8) -0.7570(5) -0.34148(14)
O18 O 0.10852(14) 0.0970(14) -0.60329(22)
O19 O 0.07903(11) -0.3849(7) -0.63415(17)
O20 O 0.00000 -0.2632(5) -0.75000
H1 H -0.0188 -0.2415 -0.4376
H2 H 0.1060 -0.2589 -0.2514
H3 H 0.2350 -0.2578 -0.1762
H4 H 0.0607 -0.4212 -0.5794
H5 H 0.2675 -0.2572 -0.3201
H6 H -0.0409 -0.2494 -0.6410
H7 H 0.0905 -0.6495 -0.5013
H8 H 0.0884 -0.8772 -0.5033
H9 H 0.1498 -0.7505 -0.2898
H10 H 0.1085 -0.7658 -0.3670
H11 H 0.1262 0.1295 -0.6119
H12 H 0.1158 -0.0287 -0.5933
H13 H 0.0540 -0.4528 -0.6569
H14 H 0.0950 -0.4085 -0.5824
H15 H 0.0119 -0.3508 -0.7633
H15A H -0.0119 -0.3508 -0.7367
O2_2 O 0.17253 -1.0955 -0.43225
O6C O 0.22154(6) -0.7574(5) -0.28540(12)
Na1_2 Na 0.16995(4) 0.2379(2) -0.39756(7)
Na1C Na 0.33005(4) -0.2621(2) -0.10244(7)
Na2D Na -0.04767(4) 0.0319(2) -0.33567(7)
Na2E Na 0.04767(4) 0.0319(2) -0.16433(7)
O13D O 0.01106(6) 0.2419(4) -0.67062(12)
O14E O 0.04929(7) 0.0811(3) -0.75883(12)
Na2A Na -0.04767(4) -0.0319(2) -0.83567(7)
O21 O 0.16080(17) -0.3531(7) -0.54895(20)
H16 H 0.1587 -0.1999 -0.5518
H17 H 0.1655 -0.3787 -0.5016
O22 O 0.22483(27) -0.1026(9) -0.50851(31)
O23 O 0.31690(7) -0.2537(4) -0.30813(14)
H18 H 0.3256 -0.3734 -0.3242
H19 H 0.3276 -0.1425 -0.3185
O24 O -0.08489(7) -0.2444(4) -0.72141(12)
H20 H -0.0783 -0.1187 -0.7384
H21 H -0.0823 -0.3642 -0.7463
loop_
_geom_bond_atom_site_label_1
_geom_bond_atom_site_label_2
_geom_bond_site_symmetry_1
_geom_bond_site_symmetry_2
Na1 O1 1_555 1_555
Na2 O4 1_555 1_555
N1 C1 1_555 1_555
C1 C2 1_555 1_555
C2 C3 1_555 1_555
C3 C4 1_555 1_555
C4 C5 1_555 1_555
C5 C6 1_555 1_555
C6 C1 1_555 1_555
C7 C6 1_555 1_555
C8 C7 1_555 1_555
C9 C8 1_555 1_555
C10 C9 1_555 1_555
C11 C10 1_555 1_555
C12 C11 1_555 1_555
C13 N1 1_555 1_555
C14 C12 1_555 1_555
O1 C14 1_555 1_555
O2 C14 1_555 1_555
C15 C2 1_555 1_555
O3 C15 1_555 1_555
O4 C15 1_555 1_555
C16 C11 1_555 1_555
O5 C16 1_555 1_555
O6 C16 1_555 1_555
C17 C3 1_555 1_555
O7 C17 1_555 1_555
O8 C17 1_555 1_555
S1 C9 1_555 1_555
O9 S1 1_555 1_555
O10 S1 1_555 1_555
O11 S1 1_555 1_555
S2 C5 1_555 1_555
O12 S2 1_555 1_555
O13 S2 1_555 1_555
O14 S2 1_555 1_555
O15 Na1 1_555 1_555
O16 Na1 1_555 1_555
O17 Na1 1_555 1_555
O18 Na2 1_555 1_555
O19 Na2 1_555 1_555
O20 Na2 1_555 1_555
O21 H16 1_555 1_555
O23 H18 1_555 1_555
O24 H20 1_555 1_555
H1 C4 1_555 1_555
H2 C7 1_555 1_555
H3 C10 1_555 1_555
H4 O3 1_555 1_555
H5 O5 1_555 1_555
H6 O7 1_555 1_555
H7 O16 1_555 1_555
H8 O16 1_555 1_555
H9 O17 1_555 1_555
H10 O17 1_555 1_555
H11 O18 1_555 1_555
H12 O18 1_555 1_555
H13 O19 1_555 1_555
H14 O19 1_555 1_555
H15 O20 1_555 1_555
H17 O21 1_555 1_555
H19 O23 1_555 1_555
H21 O24 1_555 1_555
H15A O20 1_555 1_555
O2_2 Na1 1_555 1_555
O6C Na1 1_555 1_555
Na1_2 O2 1_555 1_555
Na1C O6 1_555 1_555
Na2D O13 1_555 1_555
Na2E O14 1_555 1_555
O13D Na2 1_555 1_555
O14E Na2 1_555 1_555
Na2A O20 1_555 1_555
C8 C13 1_555 1_555
C12 C13 1_555 1_555

#END
