
#######################################################################
#
#                 Cambridge Crystallographic Data Centre
#                                CCDC 
#
#######################################################################
#
# If this CIF has been generated from an entry in the Cambridge 
# Structural Database, then it will include bibliographic, chemical, 
# crystal, experimental, refinement or atomic coordinate data resulting 
# from the CCDC's data processing and validation procedures.
#
#######################################################################

data_SIPWOE
_symmetry_cell_setting           monoclinic
_symmetry_space_group_name_H-M   'P 21/c'
_symmetry_Int_Tables_number      14
_space_group_name_Hall           '-P 2ybc'
loop_
_symmetry_equiv_pos_site_id
_symmetry_equiv_pos_as_xyz
1 x,y,z
2 -x,1/2+y,1/2-z
3 -x,-y,-z
4 x,1/2-y,1/2+z
_cell_length_a                   11.222(2)
_cell_length_b                   10.841(2)
_cell_length_c                   10.816(2)
_cell_angle_alpha                90
_cell_angle_beta                 98.37(3)
_cell_angle_gamma                90
_cell_volume                     1301.83
loop_
_atom_site_label
_atom_site_type_symbol
_atom_site_fract_x
_atom_site_fract_y
_atom_site_fract_z
Ni1 Ni 0.0000 1.0000 0.0000
C1 C 0.2420(3) 0.9029(3) -0.0385(3)
H1 H 0.1959 0.8313 -0.0631
C2 C 0.3635(3) 0.8977(3) -0.0367(3)
H2 H 0.4003 0.8235 -0.0590
C3 C 0.4333(2) 1.0007(3) -0.0023(3)
C4 C 0.3746(3) 1.1039(3) 0.0313(3)
H3 H 0.4185 1.1766 0.0576
C5 C 0.2518(3) 1.1007(3) 0.0263(3)
H4 H 0.2125 1.1731 0.0488
N1 N 0.1850(2) 1.0025(2) -0.0080(2)
O4 O 0.0194(2) 0.83318(19) 0.0836(2)
H10 H -0.022(3) 0.812(3) 0.140(3)
H11 H 0.047(3) 0.769(3) 0.057(3)
O5 O 0.0264(2) 1.0760(2) 0.1722(2)
H12 H -0.012(3) 1.043(3) 0.220(3)
H13 H 0.059(3) 1.140(3) 0.191(4)
Ni1_2 Ni 1.0000 1.0000 0.0000
C1B C 0.7580(3) 1.0971(3) 0.0385(3)
H1B H 0.8041 1.1687 0.0631
C2B C 0.6365(3) 1.1023(3) 0.0367(3)
H2B H 0.5997 1.1765 0.0590
C3B C 0.5667(2) 0.9993(3) 0.0023(3)
C4B C 0.6254(3) 0.8961(3) -0.0313(3)
H3B H 0.5815 0.8234 -0.0576
C5B C 0.7482(3) 0.8993(3) -0.0263(3)
H4B H 0.7875 0.8269 -0.0488
N1B N 0.8150(2) 0.9975(2) 0.0080(2)
N1B_2 N -0.1850(2) 0.9975(2) 0.0080(2)
O4B O -0.0194(2) 1.16682(19) -0.0836(2)
H10B H 0.022(3) 1.188(3) -0.140(3)
H11B H -0.047(3) 1.231(3) -0.057(3)
O5B O -0.0264(2) 0.9240(2) -0.1722(2)
H12B H 0.012(3) 0.957(3) -0.220(3)
H13B H -0.059(3) 0.860(3) -0.191(4)
C6 C 0.1713(3) 0.3825(3) 0.2069(3)
C7 C 0.3001(3) 0.3871(3) 0.2002(3)
H5 H 0.3471 0.3153 0.2213
C8 C 0.3537(3) 0.4864(3) 0.1663(3)
H6 H 0.3039 0.5553 0.1406
C9 C 0.4800(3) 0.5005(3) 0.1643(3)
C10 C 0.5442(3) 0.5982(3) 0.1399(3)
H7 H 0.5140 0.6783 0.1176
C11 C 0.6644(3) 0.5611(4) 0.1533(3)
H8 H 0.7317 0.6112 0.1431
C12 C 0.6667(3) 0.4428(4) 0.1828(3)
H9 H 0.7373 0.3933 0.1964
O1 O 0.10512(18) 0.47282(19) 0.1681(2)
O2 O 0.13149(18) 0.28815(18) 0.2527(2)
O3 O 0.5532(2) 0.4019(2) 0.1911(2)
O6 O 0.0964(2) 0.6340(2) 0.9745(2)
H14 H 0.117(3) 0.588(3) 1.037(3)
H15 H 0.044(3) 0.609(3) 0.921(3)
loop_
_geom_bond_atom_site_label_1
_geom_bond_atom_site_label_2
_geom_bond_site_symmetry_1
_geom_bond_site_symmetry_2
Ni1 N1 1_555 1_555
C1 H1 1_555 1_555
C2 C1 1_555 1_555
H2 C2 1_555 1_555
C3 C2 1_555 1_555
C4 C3 1_555 1_555
H3 C4 1_555 1_555
C5 C4 1_555 1_555
H4 C5 1_555 1_555
C6 C7 1_555 1_555
C7 H5 1_555 1_555
C8 C7 1_555 1_555
H6 C8 1_555 1_555
C9 C8 1_555 1_555
C10 C9 1_555 1_555
H7 C10 1_555 1_555
C11 C10 1_555 1_555
H8 C11 1_555 1_555
C12 C11 1_555 1_555
H9 C12 1_555 1_555
N1 C1 1_555 1_555
O1 C6 1_555 1_555
O2 C6 1_555 1_555
O3 C9 1_555 1_555
O4 Ni1 1_555 1_555
H10 O4 1_555 1_555
H11 O4 1_555 1_555
O5 Ni1 1_555 1_555
H12 O5 1_555 1_555
H13 O5 1_555 1_555
O6 H14 1_555 1_555
H15 O6 1_555 1_555
Ni1_2 N1B 1_555 1_555
C1B H1B 1_555 1_555
C2B C1B 1_555 1_555
H2B C2B 1_555 1_555
C3B C3 1_555 1_555
C4B C3B 1_555 1_555
H3B C4B 1_555 1_555
C5B C4B 1_555 1_555
H4B C5B 1_555 1_555
N1B C1B 1_555 1_555
N1B_2 Ni1 1_555 1_555
O4B Ni1 1_555 1_555
H10B O4B 1_555 1_555
H11B O4B 1_555 1_555
O5B Ni1 1_555 1_555
H12B O5B 1_555 1_555
H13B O5B 1_555 1_555
C5 N1 1_555 1_555
C12 O3 1_555 1_555
C2B C3B 1_555 1_555
C5B N1B 1_555 1_555

#END
