
#######################################################################
#
#                 Cambridge Crystallographic Data Centre
#                                CCDC 
#
#######################################################################
#
# If this CIF has been generated from an entry in the Cambridge 
# Structural Database, then it will include bibliographic, chemical, 
# crystal, experimental, refinement or atomic coordinate data resulting 
# from the CCDC's data processing and validation procedures.
#
#######################################################################

data_SIPWAQ
_symmetry_cell_setting           monoclinic
_symmetry_space_group_name_H-M   'C 2/c'
_symmetry_Int_Tables_number      15
_space_group_name_Hall           '-C 2yn'
loop_
_symmetry_equiv_pos_site_id
_symmetry_equiv_pos_as_xyz
1 x,y,z
2 1/2+x,1/2+y,z
3 -x,y,1/2-z
4 1/2-x,1/2+y,1/2-z
5 -x,-y,-z
6 1/2-x,1/2-y,-z
7 x,-y,1/2+z
8 1/2+x,1/2-y,1/2+z
_cell_length_a                   21.547(7)
_cell_length_b                   11.319(2)
_cell_length_c                   16.557(8)
_cell_angle_alpha                90.00
_cell_angle_beta                 129.66(3)
_cell_angle_gamma                90.00
_cell_volume                     3108.71
loop_
_atom_site_label
_atom_site_type_symbol
_atom_site_fract_x
_atom_site_fract_y
_atom_site_fract_z
Ni1 Ni 0.0000 0.58398(2) 0.2500
O1 O 0.10754(7) 0.57968(11) 0.16774(9)
O2 O 0.11830(6) 0.57186(9) 0.31067(8)
O3 O 0.04221(7) 0.59666(10) 0.40108(8)
H1 H 0.0792 0.5491 0.4472
H2 H -0.0005 0.5936 0.3942
N1 N 0.0000 0.39498(16) 0.2500
N2 N 0.0000 -0.22992(16) 0.2500
C1 C 0.14460(9) 0.55342(13) 0.26236(12)
C2 C 0.22598(9) 0.49661(14) 0.32187(12)
C3 C 0.29470(10) 0.55292(14) 0.40946(12)
C4 C 0.36900(10) 0.49899(15) 0.46118(12)
H3 H 0.4148 0.5370 0.5185
C5 C 0.37741(10) 0.39004(15) 0.43036(13)
C6 C 0.30822(10) 0.33564(15) 0.34371(12)
H4 H 0.3128 0.2627 0.3221
C7 C 0.23238(10) 0.38670(14) 0.28824(12)
C8 C 0.15930(10) 0.32237(15) 0.19525(13)
H5 H 0.1443 0.3554 0.1315
H6 H 0.1154 0.3307 0.1961
H7 H 0.1718 0.2401 0.1991
C9 C 0.28890(10) 0.66934(15) 0.44815(13)
H8 H 0.2656 0.6572 0.4812
H9 H 0.2556 0.7224 0.3900
H10 H 0.3418 0.7026 0.4979
C10 C 0.45841(10) 0.33104(17) 0.48993(14)
H11 H 0.4584 0.2589 0.5205
H12 H 0.4995 0.3828 0.5445
H13 H 0.4689 0.3138 0.4429
C11 C -0.06761(9) 0.33306(14) 0.17924(12)
H14 H -0.1150 0.3742 0.1295
C12 C -0.06981(9) 0.21113(14) 0.17714(12)
H15 H -0.1180 0.1718 0.1270
C13 C 0.0000 0.14751(19) 0.2500
C14 C 0.0000 0.01713(19) 0.2500
C15 C 0.05699(10) -0.04680(15) 0.25384(13)
H16 H 0.0963 -0.0078 0.2566
C16 C 0.05467(9) -0.16858(14) 0.25349(12)
H17 H 0.0930 -0.2100 0.2558
Ni1_2 Ni 0.0000 -0.41602(2) 0.2500
O1B O -0.10754(7) 0.57968(11) 0.33226(9)
O2B O -0.11830(6) 0.57186(9) 0.18933(8)
O3B O -0.04221(7) 0.59666(10) 0.09892(8)
H1B H -0.0792 0.5491 0.0528
H2B H 0.0005 0.5936 0.1058
N2_2 N 0.0000 0.77008(16) 0.2500
C1B C -0.14460(9) 0.55342(13) 0.23764(12)
C2B C -0.22598(9) 0.49661(14) 0.17813(12)
C3B C -0.29470(10) 0.55292(14) 0.09054(12)
C4B C -0.36900(10) 0.49899(15) 0.03882(12)
H3B H -0.4148 0.5370 -0.0185
C5B C -0.37741(10) 0.39004(15) 0.06964(13)
C6B C -0.30822(10) 0.33564(15) 0.15629(12)
H4B H -0.3128 0.2627 0.1779
C7B C -0.23238(10) 0.38670(14) 0.21176(12)
C8B C -0.15930(10) 0.32237(15) 0.30475(13)
H5B H -0.1443 0.3554 0.3685
H6B H -0.1154 0.3307 0.3039
H7B H -0.1718 0.2401 0.3009
C9B C -0.28890(10) 0.66934(15) 0.05185(13)
H8B H -0.2656 0.6572 0.0188
H9B H -0.2556 0.7224 0.1100
H10B H -0.3418 0.7026 0.0021
C10B C -0.45841(10) 0.33104(17) 0.01007(14)
H11B H -0.4584 0.2589 -0.0205
H12B H -0.4995 0.3828 -0.0445
H13B H -0.4689 0.3138 0.0571
C11B C 0.06761(9) 0.33306(14) 0.32076(12)
H14B H 0.1150 0.3742 0.3705
C12B C 0.06981(9) 0.21113(14) 0.32286(12)
H15B H 0.1180 0.1718 0.3730
C15B C -0.05699(10) -0.04680(15) 0.24616(13)
H16B H -0.0963 -0.0078 0.2434
C16B C -0.05467(9) -0.16858(14) 0.24651(12)
H17B H -0.0930 -0.2100 0.2442
O4 O 0.35050(7) 0.05916(11) 0.45259(9)
H18 H 0.3565 0.0633 0.4085
C17 C 0.26765(11) 0.04492(19) 0.40185(15)
H19 H 0.2615 0.0254 0.4529
H20 H 0.2457 -0.0175 0.3511
H21 H 0.2395 0.1172 0.3672
loop_
_geom_bond_atom_site_label_1
_geom_bond_atom_site_label_2
_geom_bond_site_symmetry_1
_geom_bond_site_symmetry_2
Ni1 O2 1_555 1_555
O1 C1 1_555 1_555
O2 C1 1_555 1_555
O3 Ni1 1_555 1_555
H1 O3 1_555 1_555
H2 O3 1_555 1_555
N1 Ni1 1_555 1_555
N2 C16 1_555 1_555
C1 C2 1_555 1_555
C2 C3 1_555 1_555
C3 C4 1_555 1_555
C4 H3 1_555 1_555
C5 C4 1_555 1_555
C6 C5 1_555 1_555
H4 C6 1_555 1_555
C7 C2 1_555 1_555
C8 C7 1_555 1_555
H5 C8 1_555 1_555
H6 C8 1_555 1_555
H7 C8 1_555 1_555
C9 C3 1_555 1_555
H8 C9 1_555 1_555
H9 C9 1_555 1_555
H10 C9 1_555 1_555
C10 C5 1_555 1_555
H11 C10 1_555 1_555
H12 C10 1_555 1_555
H13 C10 1_555 1_555
C11 N1 1_555 1_555
H14 C11 1_555 1_555
C12 C11 1_555 1_555
H15 C12 1_555 1_555
C13 C12 1_555 1_555
C14 C13 1_555 1_555
C15 C14 1_555 1_555
H16 C15 1_555 1_555
C16 C15 1_555 1_555
H17 C16 1_555 1_555
O4 H18 1_555 1_555
C17 O4 1_555 1_555
H19 C17 1_555 1_555
H20 C17 1_555 1_555
H21 C17 1_555 1_555
Ni1_2 N2 1_555 1_555
O1B C1B 1_555 1_555
O2B Ni1 1_555 1_555
O3B Ni1 1_555 1_555
H1B O3B 1_555 1_555
H2B O3B 1_555 1_555
N2_2 Ni1 1_555 1_555
C1B O2B 1_555 1_555
C2B C1B 1_555 1_555
C3B C2B 1_555 1_555
C4B C3B 1_555 1_555
H3B C4B 1_555 1_555
C5B C4B 1_555 1_555
C6B C5B 1_555 1_555
H4B C6B 1_555 1_555
C7B C2B 1_555 1_555
C8B C7B 1_555 1_555
H5B C8B 1_555 1_555
H6B C8B 1_555 1_555
H7B C8B 1_555 1_555
C9B C3B 1_555 1_555
H8B C9B 1_555 1_555
H9B C9B 1_555 1_555
H10B C9B 1_555 1_555
C10B C5B 1_555 1_555
H11B C10B 1_555 1_555
H12B C10B 1_555 1_555
H13B C10B 1_555 1_555
C11B N1 1_555 1_555
H14B C11B 1_555 1_555
C12B C13 1_555 1_555
H15B C12B 1_555 1_555
C15B C14 1_555 1_555
H16B C15B 1_555 1_555
C16B N2 1_555 1_555
H17B C16B 1_555 1_555
C6 C7 1_555 1_555
C6B C7B 1_555 1_555
C11B C12B 1_555 1_555
C15B C16B 1_555 1_555

#END
