
#######################################################################
#
#                 Cambridge Crystallographic Data Centre
#                                CCDC 
#
#######################################################################
#
# If this CIF has been generated from an entry in the Cambridge 
# Structural Database, then it will include bibliographic, chemical, 
# crystal, experimental, refinement or atomic coordinate data resulting 
# from the CCDC's data processing and validation procedures.
#
#######################################################################

data_SIPYAS01
_symmetry_cell_setting           triclinic
_symmetry_space_group_name_H-M   'P -1'
_symmetry_Int_Tables_number      2
_space_group_name_Hall           '-P 1'
loop_
_symmetry_equiv_pos_site_id
_symmetry_equiv_pos_as_xyz
1 x,y,z
2 -x,-y,-z
_cell_length_a                   9.078(3)
_cell_length_b                   9.282(3)
_cell_length_c                   13.677(3)
_cell_angle_alpha                71.75(1)
_cell_angle_beta                 66.70(1)
_cell_angle_gamma                86.09(2)
_cell_volume                     1003.17
loop_
_atom_site_label
_atom_site_type_symbol
_atom_site_fract_x
_atom_site_fract_y
_atom_site_fract_z
Br1 Br 0.10545(4) 0.10372(4) 0.06960(3)
Cu1 Cu 0.15590(5) 0.01391(5) -0.10007(4)
P1 P 0.2701(1) 0.2068(1) -0.25468(8)
N1 N 0.2818(3) -0.1751(3) -0.0642(3)
C1 C 0.2742(5) -0.2974(5) -0.0944(3)
C2 C 0.3571(5) -0.4243(5) -0.0722(4)
C3 C 0.4550(4) -0.4318(4) -0.0140(3)
C4 C 0.4652(5) -0.3042(4) 0.0161(4)
C5 C 0.3776(5) -0.1803(5) -0.0101(4)
C6 C 0.3108(4) 0.1707(4) -0.3869(3)
C7 C 0.1857(5) 0.0998(5) -0.3942(4)
C8 C 0.2082(7) 0.0767(7) -0.4942(5)
C9 C 0.3512(7) 0.1189(6) -0.5858(4)
C10 C 0.4762(6) 0.1852(5) -0.5785(4)
C11 C 0.4550(5) 0.2114(4) -0.4794(3)
C12 C 0.4694(4) 0.2647(4) -0.2723(3)
C13 C 0.5295(5) 0.4142(5) -0.3091(3)
C14 C 0.6834(5) 0.4488(5) -0.3223(4)
C15 C 0.7810(5) 0.3340(5) -0.2997(4)
C16 C 0.7235(5) 0.1838(5) -0.2634(4)
C17 C 0.5694(5) 0.1494(5) -0.2484(3)
C18 C 0.1698(4) 0.3862(4) -0.2720(3)
C19 C 0.0697(5) 0.4223(5) -0.1766(3)
C20 C -0.0045(5) 0.5581(5) -0.1865(4)
C21 C 0.0177(5) 0.6590(5) -0.2905(4)
C22 C 0.1156(5) 0.6233(5) -0.3863(4)
C23 C 0.1924(5) 0.4880(4) -0.3772(3)
H1 H 0.209(5) -0.285(5) -0.135(4)
H2 H 0.344(6) -0.508(6) -0.099(4)
H3 H 0.520(6) -0.305(5) 0.061(4)
H4 H 0.379(5) -0.094(5) 0.015(4)
H5 H 0.095(6) 0.069(6) -0.332(4)
H6 H 0.132(7) 0.046(7) -0.500(5)
H7 H 0.376(6) 0.107(6) -0.659(4)
H8 H 0.576(5) 0.210(5) -0.636(4)
H9 H 0.539(5) 0.252(5) -0.474(3)
H10 H 0.468(5) 0.490(5) -0.324(3)
H11 H 0.714(5) 0.545(5) -0.345(3)
H12 H 0.885(5) 0.351(5) -0.309(4)
H13 H 0.777(5) 0.111(5) -0.244(4)
H14 H 0.527(5) 0.050(5) -0.223(3)
H15 H 0.051(5) 0.352(5) -0.108(4)
H16 H -0.070(5) 0.581(5) -0.125(4)
H17 H -0.034(5) 0.754(5) -0.296(4)
H18 H 0.138(5) 0.687(5) -0.452(4)
H19 H 0.263(5) 0.474(5) -0.446(4)
Br1A Br -0.10545(4) -0.10372(4) -0.06960(3)
Cu1A Cu -0.15590(5) -0.01391(5) 0.10007(4)
Cu1A_2 Cu 0.84410(5) -1.01391(5) 0.10007(4)
P1A P -0.2701(1) -0.2068(1) 0.25468(8)
N1A N 0.7182(3) -0.8249(3) 0.0642(3)
N1A_2 N -0.2818(3) 0.1751(3) 0.0642(3)
C1A C 0.7258(5) -0.7026(5) 0.0944(3)
C2A C 0.6429(5) -0.5757(5) 0.0722(4)
C3A C 0.5450(4) -0.5682(4) 0.0140(3)
C4A C 0.5348(5) -0.6958(4) -0.0161(4)
C5A C 0.6224(5) -0.8197(5) 0.0101(4)
C6A C -0.3108(4) -0.1707(4) 0.3869(3)
C7A C -0.1857(5) -0.0998(5) 0.3942(4)
C8A C -0.2082(7) -0.0767(7) 0.4942(5)
C9A C -0.3512(7) -0.1189(6) 0.5858(4)
C10A C -0.4762(6) -0.1852(5) 0.5785(4)
C11A C -0.4550(5) -0.2114(4) 0.4794(3)
C12A C -0.4694(4) -0.2647(4) 0.2723(3)
C13A C -0.5295(5) -0.4142(5) 0.3091(3)
C14A C -0.6834(5) -0.4488(5) 0.3223(4)
C15A C -0.7810(5) -0.3340(5) 0.2997(4)
C16A C -0.7235(5) -0.1838(5) 0.2634(4)
C17A C -0.5694(5) -0.1494(5) 0.2484(3)
C18A C -0.1698(4) -0.3862(4) 0.2720(3)
C19A C -0.0697(5) -0.4223(5) 0.1766(3)
C20A C 0.0045(5) -0.5581(5) 0.1865(4)
C21A C -0.0177(5) -0.6590(5) 0.2905(4)
C22A C -0.1156(5) -0.6233(5) 0.3863(4)
C23A C -0.1924(5) -0.4880(4) 0.3772(3)
H1A H 0.791(5) -0.715(5) 0.135(4)
H2A H 0.656(6) -0.492(6) 0.099(4)
H3A H 0.480(6) -0.695(5) -0.061(4)
H4A H 0.621(5) -0.906(5) -0.015(4)
H5A H -0.095(6) -0.069(6) 0.332(4)
H6A H -0.132(7) -0.046(7) 0.500(5)
H7A H -0.376(6) -0.107(6) 0.659(4)
H8A H -0.576(5) -0.210(5) 0.636(4)
H9A H -0.539(5) -0.252(5) 0.474(3)
H10A H -0.468(5) -0.490(5) 0.324(3)
H11A H -0.714(5) -0.545(5) 0.345(3)
H12A H -0.885(5) -0.351(5) 0.309(4)
H13A H -0.777(5) -0.111(5) 0.244(4)
H14A H -0.527(5) -0.050(5) 0.223(3)
H15A H -0.051(5) -0.352(5) 0.108(4)
H16A H 0.070(5) -0.581(5) 0.125(4)
H17A H 0.034(5) -0.754(5) 0.296(4)
H18A H -0.138(5) -0.687(5) 0.452(4)
H19A H -0.263(5) -0.474(5) 0.446(4)
loop_
_geom_bond_atom_site_label_1
_geom_bond_atom_site_label_2
_geom_bond_site_symmetry_1
_geom_bond_site_symmetry_2
Br1 Cu1 1_555 1_555
Cu1 P1 1_555 1_555
P1 C6 1_555 1_555
N1 Cu1 1_555 1_555
C1 N1 1_555 1_555
C2 C1 1_555 1_555
C3 C2 1_555 1_555
C4 C3 1_555 1_555
C5 N1 1_555 1_555
C6 C7 1_555 1_555
C7 C8 1_555 1_555
C8 C9 1_555 1_555
C9 C10 1_555 1_555
C10 C11 1_555 1_555
C11 C6 1_555 1_555
C12 P1 1_555 1_555
C13 C12 1_555 1_555
C14 C13 1_555 1_555
C15 C14 1_555 1_555
C16 C15 1_555 1_555
C17 C12 1_555 1_555
C18 P1 1_555 1_555
C19 C18 1_555 1_555
C20 C19 1_555 1_555
C21 C20 1_555 1_555
C22 C21 1_555 1_555
C23 C18 1_555 1_555
H1 C1 1_555 1_555
H2 C2 1_555 1_555
H3 C4 1_555 1_555
H4 C5 1_555 1_555
H5 C7 1_555 1_555
H6 C8 1_555 1_555
H7 C9 1_555 1_555
H8 C10 1_555 1_555
H9 C11 1_555 1_555
H10 C13 1_555 1_555
H11 C14 1_555 1_555
H12 C15 1_555 1_555
H13 C16 1_555 1_555
H14 C17 1_555 1_555
H15 C19 1_555 1_555
H16 C20 1_555 1_555
H17 C21 1_555 1_555
H18 C22 1_555 1_555
H19 C23 1_555 1_555
Br1A Cu1 1_555 1_555
Cu1A Br1 1_555 1_555
Cu1A_2 N1A 1_555 1_555
P1A Cu1A 1_555 1_555
N1A C1A 1_555 1_555
N1A_2 Cu1A 1_555 1_555
C1A C2A 1_555 1_555
C2A C3A 1_555 1_555
C3A C3 1_555 1_555
C4A C3A 1_555 1_555
C5A N1A 1_555 1_555
C6A P1A 1_555 1_555
C7A C6A 1_555 1_555
C8A C7A 1_555 1_555
C9A C8A 1_555 1_555
C10A C9A 1_555 1_555
C11A C6A 1_555 1_555
C12A P1A 1_555 1_555
C13A C12A 1_555 1_555
C14A C13A 1_555 1_555
C15A C14A 1_555 1_555
C16A C15A 1_555 1_555
C17A C12A 1_555 1_555
C18A P1A 1_555 1_555
C19A C18A 1_555 1_555
C20A C19A 1_555 1_555
C21A C20A 1_555 1_555
C22A C21A 1_555 1_555
C23A C18A 1_555 1_555
H1A C1A 1_555 1_555
H2A C2A 1_555 1_555
H3A C4A 1_555 1_555
H4A C5A 1_555 1_555
H5A C7A 1_555 1_555
H6A C8A 1_555 1_555
H7A C9A 1_555 1_555
H8A C10A 1_555 1_555
H9A C11A 1_555 1_555
H10A C13A 1_555 1_555
H11A C14A 1_555 1_555
H12A C15A 1_555 1_555
H13A C16A 1_555 1_555
H14A C17A 1_555 1_555
H15A C19A 1_555 1_555
H16A C20A 1_555 1_555
H17A C21A 1_555 1_555
H18A C22A 1_555 1_555
H19A C23A 1_555 1_555
C4 C5 1_555 1_555
C16 C17 1_555 1_555
C22 C23 1_555 1_555
Br1A Cu1A 1_555 1_555
C4A C5A 1_555 1_555
C10A C11A 1_555 1_555
C16A C17A 1_555 1_555
C22A C23A 1_555 1_555

#END
