
#######################################################################
#
#                 Cambridge Crystallographic Data Centre
#                                CCDC 
#
#######################################################################
#
# If this CIF has been generated from an entry in the Cambridge 
# Structural Database, then it will include bibliographic, chemical, 
# crystal, experimental, refinement or atomic coordinate data resulting 
# from the CCDC's data processing and validation procedures.
#
#######################################################################

data_SIPYAS
_symmetry_cell_setting           triclinic
_symmetry_space_group_name_H-M   'P -1'
_symmetry_Int_Tables_number      2
_space_group_name_Hall           '-P 1'
loop_
_symmetry_equiv_pos_site_id
_symmetry_equiv_pos_as_xyz
1 x,y,z
2 -x,-y,-z
_cell_length_a                   9.122(3)
_cell_length_b                   9.322(3)
_cell_length_c                   13.201(4)
_cell_angle_alpha                106.440(4)
_cell_angle_beta                 105.965(5)
_cell_angle_gamma                94.167(5)
_cell_volume                     1021.25
loop_
_atom_site_label
_atom_site_type_symbol
_atom_site_fract_x
_atom_site_fract_y
_atom_site_fract_z
Cu1 Cu 0.44208(6) 0.01459(6) 0.10028(4)
Br1 Br 0.32728(5) 0.10178(5) -0.06925(4)
P1 P 0.48276(12) 0.20635(12) 0.25453(9)
N1 N 0.2797(4) -0.1745(4) 0.0643(3)
C1 C 0.3021(5) 0.2626(5) 0.2738(3)
C2 C 0.1801(5) 0.1469(5) 0.2511(4)
H1 H 0.1927 0.0463 0.2254
C3 C 0.0422(6) 0.1796(6) 0.2661(5)
H2 H -0.0373 0.1012 0.2518
C4 C 0.0206(6) 0.3265(7) 0.3019(5)
H3 H -0.0739 0.3478 0.3108
C5 C 0.1386(6) 0.4432(6) 0.3249(5)
H4 H 0.1245 0.5434 0.3500
C6 C 0.2783(5) 0.4103(5) 0.3103(4)
H5 H 0.3576 0.4893 0.3253
C7 C 0.5774(5) 0.1704(5) 0.3837(4)
C8 C 0.5293(6) 0.2102(5) 0.4781(4)
H6 H 0.4416 0.2556 0.4763
C9 C 0.6095(7) 0.1834(6) 0.5732(4)
H7 H 0.5748 0.2083 0.6350
C10 C 0.7395(8) 0.1206(7) 0.5772(6)
H8 H 0.7961 0.1064 0.6429
C11 C 0.7880(7) 0.0778(8) 0.4854(6)
H9 H 0.8766 0.0335 0.4887
C12 C 0.7065(6) 0.1000(6) 0.3883(5)
H10 H 0.7382 0.0677 0.3255
C13 C 0.5980(5) 0.3847(4) 0.2706(3)
C14 C 0.6813(5) 0.4873(5) 0.3733(4)
H11 H 0.6810 0.4655 0.4378
C15 C 0.7646(6) 0.6216(5) 0.3806(5)
H12 H 0.8200 0.6893 0.4500
C16 C 0.7666(6) 0.6560(6) 0.2872(5)
H13 H 0.8232 0.7465 0.2926
C17 C 0.6850(6) 0.5566(6) 0.1857(5)
H14 H 0.6845 0.5807 0.1219
C18 C 0.6027(5) 0.4202(5) 0.1764(4)
H15 H 0.5504 0.3520 0.1065
C19 C 0.1325(5) -0.1837(5) 0.0089(4)
H16 H 0.1034 -0.1017 -0.0142
C20 C 0.0202(5) -0.3054(5) -0.0168(5)
H17 H -0.0815 -0.3034 -0.0549
C21 C 0.0583(5) -0.4320(4) 0.0141(3)
C22 C 0.2131(5) -0.4224(5) 0.0718(4)
H18 H 0.2461 -0.5035 0.0946
C23 C 0.3171(5) -0.2954(6) 0.0956(4)
H19 H 0.4192 -0.2926 0.1355
Cu1A Cu 0.55792(6) -0.01459(6) -0.10028(4)
Cu1A_2 Cu -0.44208(6) -1.01459(6) -0.10028(4)
Br1A Br 0.67272(5) -0.10178(5) 0.06925(4)
P1A P 0.51724(12) -0.20635(12) -0.25453(9)
N1A N -0.2797(4) -0.8255(4) -0.0643(3)
N1A_2 N 0.7203(4) 0.1745(4) -0.0643(3)
C1A C 0.6979(5) -0.2626(5) -0.2738(3)
C2A C 0.8199(5) -0.1469(5) -0.2511(4)
H1A H 0.8073 -0.0463 -0.2254
C3A C 0.9578(6) -0.1796(6) -0.2661(5)
H2A H 1.0373 -0.1012 -0.2518
C4A C 0.9794(6) -0.3265(7) -0.3019(5)
H3A H 1.0739 -0.3478 -0.3108
C5A C 0.8614(6) -0.4432(6) -0.3249(5)
H4A H 0.8755 -0.5434 -0.3500
C6A C 0.7217(5) -0.4103(5) -0.3103(4)
H5A H 0.6424 -0.4893 -0.3253
C7A C 0.4226(5) -0.1704(5) -0.3837(4)
C8A C 0.4707(6) -0.2102(5) -0.4781(4)
H6A H 0.5584 -0.2556 -0.4763
C9A C 0.3905(7) -0.1834(6) -0.5732(4)
H7A H 0.4252 -0.2083 -0.6350
C10A C 0.2605(8) -0.1206(7) -0.5772(6)
H8A H 0.2039 -0.1064 -0.6429
C11A C 0.2120(7) -0.0778(8) -0.4854(6)
H9A H 0.1234 -0.0335 -0.4887
C12A C 0.2935(6) -0.1000(6) -0.3883(5)
H10A H 0.2618 -0.0677 -0.3255
C13A C 0.4020(5) -0.3847(4) -0.2706(3)
C14A C 0.3187(5) -0.4873(5) -0.3733(4)
H11A H 0.3190 -0.4655 -0.4378
C15A C 0.2354(6) -0.6216(5) -0.3806(5)
H12A H 0.1800 -0.6893 -0.4500
C16A C 0.2334(6) -0.6560(6) -0.2872(5)
H13A H 0.1768 -0.7465 -0.2926
C17A C 0.3150(6) -0.5566(6) -0.1857(5)
H14A H 0.3155 -0.5807 -0.1219
C18A C 0.3973(5) -0.4202(5) -0.1764(4)
H15A H 0.4496 -0.3520 -0.1065
C19A C -0.1325(5) -0.8163(5) -0.0089(4)
H16A H -0.1034 -0.8983 0.0142
C20A C -0.0202(5) -0.6946(5) 0.0168(5)
H17A H 0.0815 -0.6966 0.0549
C21A C -0.0583(5) -0.5680(4) -0.0141(3)
C22A C -0.2131(5) -0.5776(5) -0.0718(4)
H18A H -0.2461 -0.4965 -0.0946
C23A C -0.3171(5) -0.7046(6) -0.0956(4)
H19A H -0.4192 -0.7074 -0.1355
loop_
_geom_bond_atom_site_label_1
_geom_bond_atom_site_label_2
_geom_bond_site_symmetry_1
_geom_bond_site_symmetry_2
Cu1 Br1 1_555 1_555
Br1 Cu1A 1_555 1_555
P1 Cu1 1_555 1_555
N1 Cu1 1_555 1_555
C1 P1 1_555 1_555
C2 C1 1_555 1_555
H1 C2 1_555 1_555
C3 C2 1_555 1_555
H2 C3 1_555 1_555
C4 C3 1_555 1_555
H3 C4 1_555 1_555
C5 C4 1_555 1_555
H4 C5 1_555 1_555
C6 C1 1_555 1_555
H5 C6 1_555 1_555
C7 P1 1_555 1_555
C8 C7 1_555 1_555
H6 C8 1_555 1_555
C9 C8 1_555 1_555
H7 C9 1_555 1_555
C10 C9 1_555 1_555
H8 C10 1_555 1_555
C11 C10 1_555 1_555
H9 C11 1_555 1_555
C12 C7 1_555 1_555
H10 C12 1_555 1_555
C13 P1 1_555 1_555
C14 C13 1_555 1_555
H11 C14 1_555 1_555
C15 C14 1_555 1_555
H12 C15 1_555 1_555
C16 C15 1_555 1_555
H13 C16 1_555 1_555
C17 C16 1_555 1_555
H14 C17 1_555 1_555
C18 C13 1_555 1_555
H15 C18 1_555 1_555
C19 N1 1_555 1_555
H16 C19 1_555 1_555
C20 C19 1_555 1_555
H17 C20 1_555 1_555
C21 C20 1_555 1_555
C22 C21 1_555 1_555
H18 C22 1_555 1_555
C23 N1 1_555 1_555
H19 C23 1_555 1_555
Cu1A Br1A 1_555 1_555
Cu1A_2 N1A 1_555 1_555
Br1A Cu1 1_555 1_555
P1A Cu1A 1_555 1_555
N1A C19A 1_555 1_555
N1A_2 Cu1A 1_555 1_555
C1A P1A 1_555 1_555
C2A C1A 1_555 1_555
H1A C2A 1_555 1_555
C3A C2A 1_555 1_555
H2A C3A 1_555 1_555
C4A C3A 1_555 1_555
H3A C4A 1_555 1_555
C5A C4A 1_555 1_555
H4A C5A 1_555 1_555
C6A C1A 1_555 1_555
H5A C6A 1_555 1_555
C7A P1A 1_555 1_555
C8A C7A 1_555 1_555
H6A C8A 1_555 1_555
C9A C8A 1_555 1_555
H7A C9A 1_555 1_555
C10A C9A 1_555 1_555
H8A C10A 1_555 1_555
C11A C10A 1_555 1_555
H9A C11A 1_555 1_555
C12A C7A 1_555 1_555
H10A C12A 1_555 1_555
C13A P1A 1_555 1_555
C14A C13A 1_555 1_555
H11A C14A 1_555 1_555
C15A C14A 1_555 1_555
H12A C15A 1_555 1_555
C16A C15A 1_555 1_555
H13A C16A 1_555 1_555
C17A C16A 1_555 1_555
H14A C17A 1_555 1_555
C18A C13A 1_555 1_555
H15A C18A 1_555 1_555
C19A H16A 1_555 1_555
C20A C19A 1_555 1_555
H17A C20A 1_555 1_555
C21A C21 1_555 1_555
C22A C21A 1_555 1_555
H18A C22A 1_555 1_555
C23A N1A 1_555 1_555
H19A C23A 1_555 1_555
C5 C6 1_555 1_555
C11 C12 1_555 1_555
C17 C18 1_555 1_555
C22 C23 1_555 1_555
C5A C6A 1_555 1_555
C11A C12A 1_555 1_555
C17A C18A 1_555 1_555
C20A C21A 1_555 1_555
C22A C23A 1_555 1_555

#END
