
#######################################################################
#
#                 Cambridge Crystallographic Data Centre
#                                CCDC 
#
#######################################################################
#
# If this CIF has been generated from an entry in the Cambridge 
# Structural Database, then it will include bibliographic, chemical, 
# crystal, experimental, refinement or atomic coordinate data resulting 
# from the CCDC's data processing and validation procedures.
#
#######################################################################

data_SIPYIA
_symmetry_cell_setting           triclinic
_symmetry_space_group_name_H-M   'P -1'
_symmetry_Int_Tables_number      2
_space_group_name_Hall           '-P 1'
loop_
_symmetry_equiv_pos_site_id
_symmetry_equiv_pos_as_xyz
1 x,y,z
2 -x,-y,-z
_cell_length_a                   8.324(14)
_cell_length_b                   11.53(2)
_cell_length_c                   13.94(3)
_cell_angle_alpha                109.57(3)
_cell_angle_beta                 93.85(3)
_cell_angle_gamma                97.28(3)
_cell_volume                     1241.83
loop_
_atom_site_label
_atom_site_type_symbol
_atom_site_fract_x
_atom_site_fract_y
_atom_site_fract_z
Cu1 Cu 0.50199(13) 0.38127(8) 0.91250(5)
P1 P 0.3678(3) 0.30987(14) 0.75768(11)
Cl1 Cl 0.3373(3) 0.41287(15) 1.04972(12)
N1 N 0.6711(9) 0.2838(5) 0.9491(4)
C1 C 0.8244(12) 0.2967(7) 0.9262(5)
H1 H 0.8563 0.3580 0.8986
C2 C 0.9366(12) 0.2263(7) 0.9405(5)
H2 H 1.0417 0.2413 0.9239
C3 C 0.8953(11) 0.1313(7) 0.9801(5)
C4 C 0.7355(12) 0.1192(6) 1.0061(5)
H3 H 0.7004 0.0593 1.0345
C5 C 0.6320(11) 0.1947(6) 0.9900(5)
H4 H 0.5272 0.1843 1.0085
C6 C 1.0125(12) 0.0530(7) 0.9919(5)
H5 H 1.1202 0.0818 0.9873
C7 C 0.4957(11) 0.2669(6) 0.6536(4)
C8 C 0.4417(12) 0.1733(7) 0.5598(5)
H6 H 0.3365 0.1289 0.5472
C9 C 0.5486(15) 0.1469(8) 0.4843(6)
H7 H 0.5159 0.0824 0.4221
C10 C 0.7012(15) 0.2162(9) 0.5023(7)
H8 H 0.7709 0.1999 0.4517
C11 C 0.7512(13) 0.3090(9) 0.5944(7)
H9 H 0.8548 0.3556 0.6057
C12 C 0.6507(11) 0.3346(7) 0.6705(5)
H10 H 0.6868 0.3974 0.7332
C13 C 0.2534(10) 0.4191(5) 0.7257(5)
C14 C 0.1674(12) 0.4906(7) 0.8002(5)
H11 H 0.1714 0.4821 0.8643
C15 C 0.0756(14) 0.5746(9) 0.7799(8)
H12 H 0.0133 0.6180 0.8286
C16 C 0.0778(15) 0.5927(8) 0.6875(8)
H13 H 0.0214 0.6520 0.6754
C17 C 0.1603(13) 0.5258(9) 0.6140(8)
H14 H 0.1589 0.5387 0.5516
C18 C 0.2476(12) 0.4375(8) 0.6305(6)
H15 H 0.3022 0.3906 0.5788
C19 C 0.2177(12) 0.1680(6) 0.7282(5)
C20 C 0.2589(12) 0.0733(6) 0.7613(5)
H16 H 0.3615 0.0816 0.7960
C21 C 0.1463(18) -0.0337(8) 0.7424(7)
H17 H 0.1742 -0.0965 0.7652
C22 C -0.0012(19) -0.0483(9) 0.6924(8)
H18 H -0.0732 -0.1220 0.6788
C23 C -0.0480(15) 0.0440(10) 0.6606(9)
H19 H -0.1524 0.0347 0.6280
C24 C 0.0640(14) 0.1528(8) 0.6781(7)
H20 H 0.0342 0.2151 0.6555
Cu1A Cu 0.49801(13) 0.61873(8) 1.08750(5)
Cu1A_2 Cu 1.49801(13) -0.38127(8) 1.08750(5)
P1A P 0.6322(3) 0.69013(14) 1.24232(11)
Cl1A Cl 0.6627(3) 0.58713(15) 0.95028(12)
N1A N 1.3289(9) -0.2838(5) 1.0509(4)
N1A_2 N 0.3289(9) 0.7162(5) 1.0509(4)
C1A C 1.1756(12) -0.2967(7) 1.0738(5)
H1A H 1.1437 -0.3580 1.1014
C2A C 1.0634(12) -0.2263(7) 1.0595(5)
H2A H 0.9583 -0.2413 1.0761
C3A C 1.1047(11) -0.1313(7) 1.0199(5)
C4A C 1.2645(12) -0.1192(6) 0.9939(5)
H3A H 1.2996 -0.0593 0.9655
C5A C 1.3680(11) -0.1947(6) 1.0100(5)
H4A H 1.4728 -0.1843 0.9915
C6A C 0.9875(12) -0.0530(7) 1.0081(5)
H5A H 0.8798 -0.0818 1.0127
C7A C 0.5043(11) 0.7331(6) 1.3464(4)
C8A C 0.5583(12) 0.8267(7) 1.4402(5)
H6A H 0.6635 0.8711 1.4528
C9A C 0.4514(15) 0.8531(8) 1.5157(6)
H7A H 0.4841 0.9176 1.5779
C10A C 0.2988(15) 0.7838(9) 1.4977(7)
H8A H 0.2291 0.8001 1.5483
C11A C 0.2488(13) 0.6910(9) 1.4056(7)
H9A H 0.1452 0.6444 1.3943
C12A C 0.3493(11) 0.6654(7) 1.3295(5)
H10A H 0.3132 0.6026 1.2668
C13A C 0.7466(10) 0.5809(5) 1.2743(5)
C14A C 0.8326(12) 0.5094(7) 1.1998(5)
H11A H 0.8286 0.5179 1.1357
C15A C 0.9244(14) 0.4254(9) 1.2201(8)
H12A H 0.9867 0.3820 1.1714
C16A C 0.9222(15) 0.4073(8) 1.3125(8)
H13A H 0.9786 0.3480 1.3246
C17A C 0.8397(13) 0.4742(9) 1.3860(8)
H14A H 0.8411 0.4613 1.4484
C18A C 0.7524(12) 0.5625(8) 1.3695(6)
H15A H 0.6978 0.6094 1.4212
C19A C 0.7823(12) 0.8320(6) 1.2718(5)
C20A C 0.7411(12) 0.9267(6) 1.2387(5)
H16A H 0.6385 0.9184 1.2040
C21A C 0.8537(18) 1.0337(8) 1.2576(7)
H17A H 0.8258 1.0965 1.2348
C22A C 1.0012(19) 1.0483(9) 1.3076(8)
H18A H 1.0732 1.1220 1.3212
C23A C 1.0480(15) 0.9560(10) 1.3394(9)
H19A H 1.1524 0.9653 1.3720
C24A C 0.9360(14) 0.8472(8) 1.3219(7)
H20A H 0.9658 0.7849 1.3445
C25 C 0.4476(17) 0.2979(9) 0.2553(7)
H21 H 0.5648 0.3235 0.2701
H22 H 0.4092 0.3329 0.2054
Cl2 Cl 0.4072(5) 0.1362(3) 0.2005(2)
Cl3 Cl 0.3620(5) 0.3597(3) 0.3647(2)
loop_
_geom_bond_atom_site_label_1
_geom_bond_atom_site_label_2
_geom_bond_site_symmetry_1
_geom_bond_site_symmetry_2
Cu1 P1 1_555 1_555
P1 C7 1_555 1_555
Cl1 Cu1 1_555 1_555
N1 Cu1 1_555 1_555
C1 N1 1_555 1_555
H1 C1 1_555 1_555
C2 C1 1_555 1_555
H2 C2 1_555 1_555
C3 C2 1_555 1_555
C4 C3 1_555 1_555
H3 C4 1_555 1_555
C5 N1 1_555 1_555
H4 C5 1_555 1_555
C6 C3 1_555 1_555
H5 C6 1_555 1_555
C7 C8 1_555 1_555
C8 H6 1_555 1_555
C9 C8 1_555 1_555
H7 C9 1_555 1_555
C10 C9 1_555 1_555
H8 C10 1_555 1_555
C11 C10 1_555 1_555
H9 C11 1_555 1_555
C12 C7 1_555 1_555
H10 C12 1_555 1_555
C13 P1 1_555 1_555
C14 C13 1_555 1_555
H11 C14 1_555 1_555
C15 C14 1_555 1_555
H12 C15 1_555 1_555
C16 C15 1_555 1_555
H13 C16 1_555 1_555
C17 C16 1_555 1_555
H14 C17 1_555 1_555
C18 C13 1_555 1_555
H15 C18 1_555 1_555
C19 P1 1_555 1_555
C20 C19 1_555 1_555
H16 C20 1_555 1_555
C21 C20 1_555 1_555
H17 C21 1_555 1_555
C22 C21 1_555 1_555
H18 C22 1_555 1_555
C23 C22 1_555 1_555
H19 C23 1_555 1_555
C24 C19 1_555 1_555
H20 C24 1_555 1_555
C25 H21 1_555 1_555
H22 C25 1_555 1_555
Cl2 C25 1_555 1_555
Cl3 C25 1_555 1_555
Cu1A Cl1 1_555 1_555
Cu1A_2 N1A 1_555 1_555
P1A Cu1A 1_555 1_555
Cl1A Cu1 1_555 1_555
N1A C1A 1_555 1_555
N1A_2 Cu1A 1_555 1_555
C1A H1A 1_555 1_555
C2A C1A 1_555 1_555
H2A C2A 1_555 1_555
C3A C2A 1_555 1_555
C4A C3A 1_555 1_555
H3A C4A 1_555 1_555
C5A N1A 1_555 1_555
H4A C5A 1_555 1_555
C6A C6 1_555 1_555
H5A C6A 1_555 1_555
C7A P1A 1_555 1_555
C8A C7A 1_555 1_555
H6A C8A 1_555 1_555
C9A C8A 1_555 1_555
H7A C9A 1_555 1_555
C10A C9A 1_555 1_555
H8A C10A 1_555 1_555
C11A C10A 1_555 1_555
H9A C11A 1_555 1_555
C12A C7A 1_555 1_555
H10A C12A 1_555 1_555
C13A P1A 1_555 1_555
C14A C13A 1_555 1_555
H11A C14A 1_555 1_555
C15A C14A 1_555 1_555
H12A C15A 1_555 1_555
C16A C15A 1_555 1_555
H13A C16A 1_555 1_555
C17A C16A 1_555 1_555
H14A C17A 1_555 1_555
C18A C13A 1_555 1_555
H15A C18A 1_555 1_555
C19A P1A 1_555 1_555
C20A C19A 1_555 1_555
H16A C20A 1_555 1_555
C21A C20A 1_555 1_555
H17A C21A 1_555 1_555
C22A C21A 1_555 1_555
H18A C22A 1_555 1_555
C23A C22A 1_555 1_555
H19A C23A 1_555 1_555
C24A C19A 1_555 1_555
H20A C24A 1_555 1_555
C4 C5 1_555 1_555
C11 C12 1_555 1_555
C17 C18 1_555 1_555
C23 C24 1_555 1_555
Cu1A Cl1A 1_555 1_555
C3A C6A 1_555 1_555
C4A C5A 1_555 1_555
C11A C12A 1_555 1_555
C17A C18A 1_555 1_555
C23A C24A 1_555 1_555

#END
