
#######################################################################
#
#                 Cambridge Crystallographic Data Centre
#                                CCDC 
#
#######################################################################
#
# If this CIF has been generated from an entry in the Cambridge 
# Structural Database, then it will include bibliographic, chemical, 
# crystal, experimental, refinement or atomic coordinate data resulting 
# from the CCDC's data processing and validation procedures.
#
#######################################################################

data_SIPYUM
_symmetry_cell_setting           triclinic
_symmetry_space_group_name_H-M   'P -1'
_symmetry_Int_Tables_number      2
_space_group_name_Hall           '-P 1'
loop_
_symmetry_equiv_pos_site_id
_symmetry_equiv_pos_as_xyz
1 x,y,z
2 -x,-y,-z
_cell_length_a                   7.7257(12)
_cell_length_b                   8.3648(13)
_cell_length_c                   11.5516(18)
_cell_angle_alpha                76.654(2)
_cell_angle_beta                 82.088(2)
_cell_angle_gamma                63.636(2)
_cell_volume                     650.273
loop_
_atom_site_label
_atom_site_type_symbol
_atom_site_fract_x
_atom_site_fract_y
_atom_site_fract_z
Cu1 Cu 0.14532(5) 1.03637(5) -0.55119(3)
O1 O 0.2356(3) 0.9717(3) -0.3875(2)
O2 O -0.0115(4) 0.9105(4) -0.3011(2)
O3 O 0.1217(4) 0.8157(4) -0.0891(2)
O4 O 0.4241(3) 0.4687(3) 0.3554(2)
O5 O 0.0194(3) 0.7145(3) 0.5282(2)
O6 O 0.2624(3) 0.7799(3) 0.4378(2)
O7 O 0.7394(5) 0.5088(6) 0.2400(4)
O8 O 0.6171(6) 0.7950(6) 0.1723(4)
O9 O 0.3739(4) 1.0964(4) -0.6447(2)
H1 H 0.3652 1.1112 -0.7194
H2 H 0.4816 1.0790 -0.6213
N1 N 0.6101(6) 0.6458(6) 0.1952(3)
C1 C 0.1435(5) 0.9212(5) -0.2991(3)
C2 C 0.2349(5) 0.8728(5) -0.1810(3)
H3 H 0.3644 0.7760 -0.1836
H4 H 0.2442 0.9777 -0.1654
C3 C 0.2010(5) 0.7355(5) 0.0204(3)
C4 C 0.1005(6) 0.6584(6) 0.1033(4)
H5 H -0.0156 0.6654 0.0834
C5 C 0.1693(6) 0.5708(6) 0.2156(3)
H6 H 0.0989 0.5196 0.2703
C6 C 0.3419(5) 0.5581(5) 0.2479(3)
C7 C 0.4370(5) 0.6413(5) 0.1642(3)
C8 C 0.3712(6) 0.7300(6) 0.0510(3)
H7 H 0.4393 0.7844 -0.0031
C9 C 0.2927(5) 0.4804(5) 0.4564(3)
H8 H 0.3640 0.4045 0.5267
H9 H 0.2020 0.4350 0.4446
C10 C 0.1820(5) 0.6750(5) 0.4760(3)
Cu1A Cu -0.14532(5) 0.96363(5) -0.44881(3)
Cu1A_2 Cu -0.14532(5) 0.96363(5) 0.55119(3)
Cu1_2 Cu 0.14532(5) 1.03637(5) 0.44881(3)
O2A O 0.0115(4) 1.0895(4) -0.6989(2)
O5A O -0.0194(3) 1.2855(3) -0.5282(2)
O6_2 O 0.2624(3) 0.7799(3) -0.5622(2)
O10 O 0.2835(6) 0.1600(7) 0.1189(4)
H10 H 0.3368 0.0441 0.1260
H11 H 0.2145 0.2208 0.0577
loop_
_geom_bond_atom_site_label_1
_geom_bond_atom_site_label_2
_geom_bond_site_symmetry_1
_geom_bond_site_symmetry_2
Cu1 O1 1_555 1_555
O1 C1 1_555 1_555
O2 C1 1_555 1_555
O3 C2 1_555 1_555
O4 C6 1_555 1_555
O5 C10 1_555 1_555
O6 C10 1_555 1_555
O7 N1 1_555 1_555
O8 N1 1_555 1_555
O9 Cu1 1_555 1_555
H1 O9 1_555 1_555
H2 O9 1_555 1_555
N1 C7 1_555 1_555
C1 C2 1_555 1_555
C2 H3 1_555 1_555
H4 C2 1_555 1_555
C3 O3 1_555 1_555
C4 C3 1_555 1_555
H5 C4 1_555 1_555
C5 C4 1_555 1_555
H6 C5 1_555 1_555
C6 C5 1_555 1_555
C7 C6 1_555 1_555
C8 C3 1_555 1_555
H7 C8 1_555 1_555
C9 O4 1_555 1_555
H8 C9 1_555 1_555
H9 C9 1_555 1_555
C10 C9 1_555 1_555
O10 H10 1_555 1_555
H11 O10 1_555 1_555
Cu1A Cu1 1_555 1_555
Cu1A_2 O5 1_555 1_555
Cu1_2 O6 1_555 1_555
O2A Cu1 1_555 1_555
O5A Cu1 1_555 1_555
O6_2 Cu1 1_555 1_555
O2 Cu1A 1_555 1_555
C7 C8 1_555 1_555
Cu1A_2 Cu1_2 1_555 1_555

#END
