
#######################################################################
#
#                 Cambridge Crystallographic Data Centre
#                                CCDC 
#
#######################################################################
#
# If this CIF has been generated from an entry in the Cambridge 
# Structural Database, then it will include bibliographic, chemical, 
# crystal, experimental, refinement or atomic coordinate data resulting 
# from the CCDC's data processing and validation procedures.
#
#######################################################################

data_SIPZUN
_symmetry_cell_setting           orthorhombic
_symmetry_space_group_name_H-M   'P c c a'
_symmetry_Int_Tables_number      54
_space_group_name_Hall           '-P 2a 2ac'
loop_
_symmetry_equiv_pos_site_id
_symmetry_equiv_pos_as_xyz
1 x,y,z
2 1/2-x,-y,z
3 -x,y,1/2-z
4 1/2+x,-y,1/2-z
5 -x,-y,-z
6 1/2+x,y,-z
7 x,-y,1/2+z
8 1/2-x,y,1/2+z
_cell_length_a                   29.0590(16)
_cell_length_b                   10.0284(5)
_cell_length_c                   18.1396(10)
_cell_angle_alpha                90
_cell_angle_beta                 90
_cell_angle_gamma                90
_cell_volume                     5286.16
loop_
_atom_site_label
_atom_site_type_symbol
_atom_site_fract_x
_atom_site_fract_y
_atom_site_fract_z
C1 C 0.13123(11) 0.4809(3) 0.20763(19)
C2 C 0.14665(13) 0.5789(3) 0.0981(2)
C3 C 0.07201(11) 0.5070(3) 0.12829(19)
C4 C 0.19238(12) 0.4110(4) 0.2906(2)
H1 H 0.1966 0.4083 0.3437
H2 H 0.2110 0.4834 0.2714
C5 C 0.20867(11) 0.2792(4) 0.25792(19)
C6 C 0.22159(11) 0.6649(3) 0.06022(18)
H3 H 0.2390 0.6495 0.0154
H4 H 0.2335 0.6050 0.0977
C7 C 0.22882(11) 0.8066(3) 0.08480(17)
C8 C -0.00390(13) 0.4099(4) 0.14758(19)
H5 H -0.0151 0.4608 0.1893
H6 H 0.0120 0.3320 0.1665
C9 C -0.04332(13) 0.3640(4) 0.10126(19)
C10 C 0.10639(13) -0.0377(3) -0.24785(19)
H7 H 0.1048 -0.1274 -0.2608
C11 C 0.07110(14) 0.0155(4) -0.2064(2)
H8 H 0.0462 -0.0374 -0.1931
C12 C 0.07225(12) 0.1468(3) -0.18473(16)
C13 C 0.11042(12) 0.2172(3) -0.20554(18)
H9 H 0.1137 0.3054 -0.1908
C14 C 0.14405(13) 0.1574(3) -0.24752(18)
H10 H 0.1691 0.2094 -0.2615
C15 C 0.03437(12) 0.2105(4) -0.14001(17)
H11 H 0.0406 0.3055 -0.1384
H12 H 0.0059 0.1990 -0.1673
C16 C 0.02640(15) 0.1707(4) -0.0706(2)
H13 H 0.0086 0.0890 -0.0735
H14 H 0.0066 0.2372 -0.0481
C17 C 0.06479(14) 0.1457(4) -0.0182(2)
C18 C 0.09355(12) 0.2447(4) 0.00830(18)
H15 H 0.0891 0.3315 -0.0083
C19 C 0.12824(12) 0.2163(3) 0.05856(17)
H16 H 0.1469 0.2856 0.0748
C20 C 0.10860(12) -0.0036(4) 0.05816(18)
H17 H 0.1129 -0.0899 0.0756
C21 C 0.07462(12) 0.0187(3) 0.00776(19)
H18 H 0.0577 -0.0530 -0.0103
N1 N 0.16277(10) 0.5350(3) 0.16286(16)
N2 N 0.10026(10) 0.5704(3) 0.07933(17)
N3 N 0.08531(10) 0.4674(3) 0.19371(16)
N4 N 0.14448(10) 0.4363(3) 0.27362(15)
H19 H 0.1218 0.4203 0.3110
N5 N 0.17347(10) 0.6298(3) 0.04704(17)
H20 H 0.1622 0.6432 0.0038
N6 N 0.02906(10) 0.4888(3) 0.10606(17)
H21 H 0.0190 0.5294 0.0609
N7 N 0.13549(10) 0.0951(3) 0.08448(18)
N8 N 0.14297(10) 0.0330(3) -0.26992(17)
Ni1 Ni 0.190410(14) 0.04958(4) 0.15566(2)
O1 O 0.18329(8) 0.2262(2) 0.20999(14)
O2 O 0.24622(9) 0.2363(3) 0.27922(13)
O3 O 0.26945(8) 0.8490(2) 0.08012(14)
O4 O 0.19481(8) 0.8673(2) 0.10971(14)
O5 O -0.04612(9) 0.4044(2) 0.03704(13)
H22 H -0.0714 0.3816 0.0083
O6 O -0.07261(8) 0.2920(2) 0.13270(12)
O7 O 0.2500 0.0000 0.21917(19)
H23 H 0.2572 0.0656 0.2465
C1A C 0.36877(11) 0.5191(3) 0.20763(19)
C2A C 0.35335(13) 0.4211(3) 0.0981(2)
C3A C 0.42799(11) 0.4930(3) 0.12829(19)
C4A C 0.30762(12) 0.5890(4) 0.2906(2)
H1A H 0.3034 0.5917 0.3437
H2A H 0.2890 0.5166 0.2714
C5A C 0.29133(11) 0.7208(4) 0.25792(19)
C6A C 0.27841(11) 0.3351(3) 0.06022(18)
H3A H 0.2610 0.3505 0.0154
H4A H 0.2665 0.3950 0.0977
C7A C 0.27118(11) 0.1934(3) 0.08480(17)
C8A C 0.50390(13) 0.5901(4) 0.14758(19)
H5A H 0.5151 0.5392 0.1893
H6A H 0.4880 0.6680 0.1665
C9A C 0.54332(13) 0.6360(4) 0.10126(19)
C10F C 0.10639(13) 0.0377(3) 0.25215(19)
H7F H 0.1048 0.1274 0.2392
C11F C 0.07110(14) -0.0155(4) 0.2936(2)
H8F H 0.0462 0.0374 0.3069
C12F C 0.07225(12) -0.1468(3) 0.31527(16)
C13F C 0.11042(12) -0.2172(3) 0.29446(18)
H9F H 0.1137 -0.3054 0.3092
C14F C 0.14405(13) -0.1574(3) 0.25248(18)
H10F H 0.1691 -0.2094 0.2385
C15F C 0.03437(12) -0.2105(4) 0.35999(17)
H11F H 0.0406 -0.3055 0.3616
H12F H 0.0059 -0.1990 0.3327
C16F C 0.02640(15) -0.1707(4) 0.4294(2)
H13F H 0.0086 -0.0890 0.4265
H14F H 0.0066 -0.2372 0.4519
C17F C 0.06479(14) -0.1457(4) 0.4818(2)
C18F C 0.09355(12) -0.2447(4) 0.50830(18)
H15F H 0.0891 -0.3315 0.4917
C19F C 0.12824(12) -0.2163(3) 0.55856(17)
H16F H 0.1469 -0.2856 0.5748
C20F C 0.10860(12) 0.0036(4) 0.55816(18)
H17F H 0.1129 0.0899 0.5756
C21F C 0.07462(12) -0.0187(3) 0.50776(19)
H18F H 0.0577 0.0530 0.4897
N1A N 0.33723(10) 0.4650(3) 0.16286(16)
N2A N 0.39974(10) 0.4296(3) 0.07933(17)
N3A N 0.41469(10) 0.5326(3) 0.19371(16)
N4A N 0.35552(10) 0.5637(3) 0.27362(15)
H19A H 0.3782 0.5797 0.3110
N5A N 0.32653(10) 0.3702(3) 0.04704(17)
H20A H 0.3378 0.3568 0.0038
N6A N 0.47094(10) 0.5112(3) 0.10606(17)
H21A H 0.4810 0.4706 0.0609
N7F N 0.13549(10) -0.0951(3) 0.58448(18)
N8F N 0.14297(10) -0.0330(3) 0.23008(17)
N8_2 N 0.14297(10) 0.0330(3) 0.73008(17)
Ni1F Ni 0.190410(14) -0.04958(4) 0.65566(2)
Ni1F_2 Ni 0.190410(14) -0.04958(4) -0.34434(2)
Ni1A Ni 0.309590(14) 0.95042(4) 0.15566(2)
Ni1_2 Ni 0.190410(14) 1.04958(4) 0.15566(2)
Ni1A_2 Ni 0.309590(14) -0.04958(4) 0.15566(2)
O1A O 0.31671(8) 0.7738(2) 0.20999(14)
O1F O 0.18329(8) -0.2262(2) 0.70999(14)
O2A O 0.25378(9) 0.7637(3) 0.27922(13)
O3A O 0.23055(8) 0.1510(2) 0.08012(14)
O3G O 0.23055(8) -0.1510(2) 0.58012(14)
O4A O 0.30519(8) 0.1327(2) 0.10971(14)
O4_2 O 0.19481(8) -0.1327(2) 0.10971(14)
O4F O 0.19481(8) 0.1327(2) 0.60971(14)
O5A O 0.54612(9) 0.5956(2) 0.03704(13)
H22A H 0.5714 0.6184 0.0083
O6A O 0.57261(8) 0.7080(2) 0.13270(12)
O7F O 0.2500 0.0000 0.71917(19)
H23A H 0.2428 -0.0656 0.2465
H23F H 0.2572 -0.0656 0.7465
H23G H 0.2428 0.0656 0.7465
O8 O 0.29649(10) 0.0501(3) 0.43132(14)
H24 H 0.2874 -0.0195 0.4089
H25 H 0.2799 0.0633 0.4692
O9 O 0.15028(10) 0.7760(2) 0.92593(13)
H26 H 0.1224 0.7632 0.9139
H27 H 0.1544 0.8581 0.9358
O10 O 0.29457(9) 0.3191(2) 0.40554(13)
H28 H 0.2797 0.2925 0.3679
H29 H 0.3194 0.2747 0.4094
loop_
_geom_bond_atom_site_label_1
_geom_bond_atom_site_label_2
_geom_bond_site_symmetry_1
_geom_bond_site_symmetry_2
C1 N1 1_555 1_555
C2 N1 1_555 1_555
C3 N2 1_555 1_555
C4 H1 1_555 1_555
H2 C4 1_555 1_555
C5 C4 1_555 1_555
C6 H3 1_555 1_555
H4 C6 1_555 1_555
C7 C6 1_555 1_555
C8 H5 1_555 1_555
H6 C8 1_555 1_555
C9 C8 1_555 1_555
C10 H7 1_555 1_555
C11 C10 1_555 1_555
H8 C11 1_555 1_555
C12 C11 1_555 1_555
C13 C12 1_555 1_555
H9 C13 1_555 1_555
C14 C13 1_555 1_555
H10 C14 1_555 1_555
C15 C12 1_555 1_555
H11 C15 1_555 1_555
H12 C15 1_555 1_555
C16 C15 1_555 1_555
H13 C16 1_555 1_555
H14 C16 1_555 1_555
C17 C16 1_555 1_555
C18 C17 1_555 1_555
H15 C18 1_555 1_555
C19 C18 1_555 1_555
H16 C19 1_555 1_555
C20 H17 1_555 1_555
C21 C17 1_555 1_555
H18 C21 1_555 1_555
N2 C2 1_555 1_555
N3 C1 1_555 1_555
N4 C1 1_555 1_555
H19 N4 1_555 1_555
N5 C2 1_555 1_555
H20 N5 1_555 1_555
N6 C3 1_555 1_555
H21 N6 1_555 1_555
N7 C19 1_555 1_555
N8 C10 1_555 1_555
Ni1 N7 1_555 1_555
O1 C5 1_555 1_555
O2 C5 1_555 1_555
O3 C7 1_555 1_555
O4 C7 1_555 1_555
O5 C9 1_555 1_555
H22 O5 1_555 1_555
O6 C9 1_555 1_555
O7 Ni1 1_555 1_555
H23 O7 1_555 1_555
O8 H24 1_555 1_555
H25 O8 1_555 1_555
O9 H26 1_555 1_555
H27 O9 1_555 1_555
O10 H28 1_555 1_555
H29 O10 1_555 1_555
C1A N1A 1_555 1_555
C2A N1A 1_555 1_555
C3A N2A 1_555 1_555
C4A H1A 1_555 1_555
H2A C4A 1_555 1_555
C5A C4A 1_555 1_555
C6A H3A 1_555 1_555
H4A C6A 1_555 1_555
C7A C6A 1_555 1_555
C8A H5A 1_555 1_555
H6A C8A 1_555 1_555
C9A C8A 1_555 1_555
C10F H7F 1_555 1_555
C11F C10F 1_555 1_555
H8F C11F 1_555 1_555
C12F C11F 1_555 1_555
C13F C12F 1_555 1_555
H9F C13F 1_555 1_555
C14F C13F 1_555 1_555
H10F C14F 1_555 1_555
C15F C12F 1_555 1_555
H11F C15F 1_555 1_555
H12F C15F 1_555 1_555
C16F C15F 1_555 1_555
H13F C16F 1_555 1_555
H14F C16F 1_555 1_555
C17F C16F 1_555 1_555
C18F C17F 1_555 1_555
H15F C18F 1_555 1_555
C19F C18F 1_555 1_555
H16F C19F 1_555 1_555
C20F H17F 1_555 1_555
C21F C17F 1_555 1_555
H18F C21F 1_555 1_555
N2A C2A 1_555 1_555
N3A C1A 1_555 1_555
N4A C1A 1_555 1_555
H19A N4A 1_555 1_555
N5A C2A 1_555 1_555
H20A N5A 1_555 1_555
N6A C3A 1_555 1_555
H21A N6A 1_555 1_555
N7F C19F 1_555 1_555
N8F Ni1 1_555 1_555
N8_2 Ni1F 1_555 1_555
Ni1F N7F 1_555 1_555
Ni1F_2 N8 1_555 1_555
Ni1A O3 1_555 1_555
Ni1_2 O4 1_555 1_555
Ni1A_2 O7 1_555 1_555
O1A C5A 1_555 1_555
O1F Ni1F 1_555 1_555
O2A C5A 1_555 1_555
O3A Ni1 1_555 1_555
O3G Ni1F 1_555 1_555
O4A C7A 1_555 1_555
O4_2 Ni1 1_555 1_555
O4F Ni1F 1_555 1_555
O5A C9A 1_555 1_555
H22A O5A 1_555 1_555
O6A C9A 1_555 1_555
O7F Ni1F 1_555 1_555
H23A O7 1_555 1_555
H23F O7F 1_555 1_555
H23G O7F 1_555 1_555
C3 N3 1_555 1_555
C4 N4 1_555 1_555
C6 N5 1_555 1_555
C8 N6 1_555 1_555
C14 N8 1_555 1_555
C20 C21 1_555 1_555
C20 N7 1_555 1_555
Ni1 O1 1_555 1_555
C3A N3A 1_555 1_555
C4A N4A 1_555 1_555
C6A N5A 1_555 1_555
C7A O3A 1_555 1_555
C8A N6A 1_555 1_555
C10F N8F 1_555 1_555
C14F N8F 1_555 1_555
C20F C21F 1_555 1_555
C20F N7F 1_555 1_555
Ni1A O1A 1_555 1_555
Ni1A_2 O4A 1_555 1_555

#END
