
#######################################################################
#
#                 Cambridge Crystallographic Data Centre
#                                CCDC 
#
#######################################################################
#
# If this CIF has been generated from an entry in the Cambridge 
# Structural Database, then it will include bibliographic, chemical, 
# crystal, experimental, refinement or atomic coordinate data resulting 
# from the CCDC's data processing and validation procedures.
#
#######################################################################

data_SIPZAT
_symmetry_cell_setting           triclinic
_symmetry_space_group_name_H-M   'P -1'
_symmetry_Int_Tables_number      2
_space_group_name_Hall           '-P 1'
loop_
_symmetry_equiv_pos_site_id
_symmetry_equiv_pos_as_xyz
1 x,y,z
2 -x,-y,-z
_cell_length_a                   9.112(3)
_cell_length_b                   14.644(5)
_cell_length_c                   27.076(11)
_cell_angle_alpha                84.223(3)
_cell_angle_beta                 87.816(4)
_cell_angle_gamma                88.902(4)
_cell_volume                     3591.53
loop_
_atom_site_label
_atom_site_type_symbol
_atom_site_fract_x
_atom_site_fract_y
_atom_site_fract_z
Pr1 Pr 0.80938(3) 0.481249(16) 0.543356(9)
O1 O 0.7534(4) 0.5187(3) 0.45636(13)
O2 O 0.9653(4) 0.3821(3) 0.49703(15)
O3 O 0.6289(4) 0.3534(2) 0.53791(14)
O4 O 0.7722(4) 0.3372(2) 0.60149(15)
O5 O 0.9649(4) 0.5234(3) 0.41163(13)
O6 O 1.1646(5) 0.3543(3) 0.45216(17)
O7 O 1.3157(6) 0.1688(4) 0.4761(2)
O8 O 0.9177(6) 0.3710(3) 0.34343(19)
O9 O 0.7269(5) 0.2041(3) 0.70573(17)
C1 C 0.8286(6) 0.5267(3) 0.41595(19)
C2 C 0.7463(6) 0.5462(4) 0.36863(19)
C3 C 0.6194(6) 0.6007(4) 0.3683(2)
H1 H 0.5790 0.6192 0.3986
C4 C 0.5513(7) 0.6282(5) 0.3243(3)
H2 H 0.4663 0.6668 0.3244
C5 C 0.6059(7) 0.6002(6) 0.2812(2)
H3 H 0.5598 0.6201 0.2510
C6 C 0.7288(8) 0.5426(6) 0.2804(2)
H4 H 0.7646 0.5223 0.2499
C7 C 0.7996(6) 0.5144(4) 0.32411(19)
C8 C 0.9248(7) 0.4479(4) 0.3219(2)
C9 C 1.0542(7) 0.4774(4) 0.2881(2)
C10 C 1.0881(8) 0.5689(5) 0.2780(3)
H5 H 1.0285 0.6144 0.2920
C11 C 1.2075(8) 0.5943(6) 0.2478(3)
H6 H 1.2329 0.6572 0.2417
C12 C 1.2906(9) 0.5283(7) 0.2263(3)
H7 H 1.3706 0.5460 0.2041
C13 C 1.2584(10) 0.4377(7) 0.2368(4)
H8 H 1.3181 0.3926 0.2225
C14 C 1.1396(8) 0.4106(5) 0.2680(3)
H9 H 1.1175 0.3475 0.2754
C15 C 0.6823(6) 0.3051(3) 0.57497(19)
C16 C 0.6363(6) 0.2065(3) 0.5859(2)
C17 C 0.5457(6) 0.1689(4) 0.5543(2)
H10 H 0.5110 0.2057 0.5261
C18 C 0.5042(7) 0.0778(4) 0.5629(3)
H11 H 0.4417 0.0527 0.5406
C19 C 0.5531(8) 0.0241(4) 0.6034(3)
H12 H 0.5248 -0.0382 0.6094
C20 C 0.6455(7) 0.0618(4) 0.6363(3)
H13 H 0.6793 0.0247 0.6645
C21 C 0.6873(6) 0.1524(3) 0.6278(2)
C22 C 0.7838(6) 0.1855(4) 0.6662(2)
C23 C 0.9463(6) 0.1848(4) 0.6573(2)
C24 C 1.0097(7) 0.1723(4) 0.6108(2)
H14 H 0.9488 0.1634 0.5840
C25 C 1.1593(8) 0.1728(5) 0.6034(3)
H15 H 1.2025 0.1655 0.5715
C26 C 1.2473(8) 0.1840(5) 0.6433(3)
H16 H 1.3511 0.1832 0.6385
C27 C 1.1865(8) 0.1961(5) 0.6895(3)
H17 H 1.2480 0.2044 0.7162
C28 C 1.0361(7) 0.1964(4) 0.6969(2)
H18 H 0.9936 0.2043 0.7288
C29 C 1.0423(6) 0.3309(3) 0.4702(2)
C30 C 0.9838(6) 0.2398(3) 0.4602(2)
C31 C 0.8358(7) 0.2214(4) 0.4649(3)
H19 H 0.7688 0.2669 0.4752
C32 C 0.7839(9) 0.1372(5) 0.4546(3)
H20 H 0.6817 0.1253 0.4581
C33 C 0.8784(9) 0.0717(5) 0.4397(3)
H21 H 0.8420 0.0142 0.4326
C34 C 1.0274(8) 0.0883(4) 0.4348(3)
H22 H 1.0930 0.0418 0.4249
C35 C 1.0820(6) 0.1726(4) 0.4442(2)
C36 C 1.2436(7) 0.1865(4) 0.4401(2)
C37 C 1.3183(7) 0.2119(4) 0.3905(3)
C38 C 1.2580(9) 0.1951(6) 0.3471(3)
H23 H 1.1616 0.1714 0.3474
C39 C 1.3391(14) 0.2127(9) 0.3019(4)
H24 H 1.2994 0.2002 0.2714
C40 C 1.4784(16) 0.2489(10) 0.3031(5)
H25 H 1.5355 0.2601 0.2731
C41 C 1.5347(13) 0.2686(8) 0.3468(5)
H26 H 1.6283 0.2961 0.3464
C42 C 1.4598(8) 0.2498(6) 0.3907(4)
H27 H 1.5015 0.2618 0.4210
O19 O 0.5512(4) 0.5588(2) 0.53918(13)
H55 H 0.4642 0.5392 0.5444
H56 H 0.5482 0.6043 0.5171
O21 O 0.7095(5) 0.5250(3) 0.62698(16)
H59 H 0.739(6) 0.469(2) 0.635(3)
H60 H 0.615(2) 0.525(4) 0.631(3)
Pr1A Pr 1.19062(3) 0.518751(16) 0.456644(9)
O5A O 1.0351(4) 0.4766(3) 0.58837(13)
O6A O 0.8354(5) 0.6457(3) 0.54784(17)
Pr2 Pr 0.16496(3) 0.979567(17) 0.949548(9)
O10 O 0.3938(4) 0.8911(3) 0.92778(16)
O11 O 0.6655(4) 1.0226(3) 0.97375(13)
O12 O 0.1026(4) 0.8428(2) 1.00377(14)
O13 O -0.0720(4) 0.8594(2) 1.06271(14)
O14 O -0.0053(6) 0.7817(3) 1.17406(17)
O15 O 0.1694(5) 1.0058(2) 0.85845(13)
O16 O 0.1003(5) 0.8668(3) 0.88855(14)
O17 O 0.8942(4) 0.9808(2) 0.95885(13)
O18 O -0.0263(6) 0.6938(4) 0.8427(2)
C43 C 0.7643(5) 0.9991(3) 0.94417(18)
C44 C 0.0264(5) 0.8148(3) 1.04179(18)
C45 C 0.0587(6) 0.7173(3) 1.0642(2)
C46 C 0.1459(7) 0.6615(4) 1.0354(2)
H28 H 0.1836 0.6854 1.0036
C47 C 0.1773(8) 0.5710(5) 1.0532(3)
H29 H 0.2365 0.5334 1.0336
C48 C 0.1228(9) 0.5360(5) 1.0993(3)
H30 H 0.1437 0.4741 1.1113
C49 C 0.0375(8) 0.5913(4) 1.1279(3)
H31 H 0.0000 0.5671 1.1596
C50 C 0.0061(6) 0.6818(4) 1.1105(2)
C51 C -0.0759(7) 0.7392(4) 1.1469(2)
C52 C -0.2392(7) 0.7364(4) 1.1516(2)
C53 C -0.3153(10) 0.7996(5) 1.1778(3)
H32 H -0.2623 0.8441 1.1928
C54 C -0.4650(12) 0.7994(7) 1.1826(4)
H33 H -0.5144 0.8430 1.2012
C55 C -0.5434(10) 0.7381(8) 1.1611(4)
H34 H -0.6477 0.7388 1.1640
C56 C -0.4697(10) 0.6744(9) 1.1348(3)
H35 H -0.5240 0.6310 1.1194
C57 C -0.3195(9) 0.6728(7) 1.1304(3)
H36 H -0.2705 0.6276 1.1127
C58 C 0.5258(5) 0.8810(3) 0.91974(19)
C59 C 0.6077(6) 0.8038(3) 0.94658(19)
C60 C 0.5341(7) 0.7491(4) 0.9848(2)
H37 H 0.4352 0.7630 0.9941
C61 C 0.6069(9) 0.6747(5) 1.0090(3)
H38 H 0.5564 0.6366 1.0343
C62 C 0.7498(9) 0.6551(5) 0.9970(3)
H39 H 0.7989 0.6046 1.0144
C63 C 0.8241(7) 0.7093(4) 0.9591(3)
H40 H 0.9239 0.6958 0.9509
C64 C 0.7535(6) 0.7825(4) 0.9334(2)
H41 H 0.8034 0.8182 0.9069
C65 C 0.6064(5) 0.9409(4) 0.88065(19)
C66 C 0.5619(7) 0.9423(4) 0.8314(2)
H42 H 0.4765 0.9110 0.8240
C67 C 0.6458(8) 0.9906(5) 0.7940(2)
H43 H 0.6181 0.9908 0.7605
C68 C 0.7685(8) 1.0385(5) 0.8043(2)
H44 H 0.8251 1.0702 0.7780
C69 C 0.8093(7) 1.0401(4) 0.8534(2)
H45 H 0.8919 1.0743 0.8607
C70 C 0.7279(5) 0.9912(3) 0.89145(18)
C71 C 0.1308(6) 0.9246(4) 0.85187(19)
C72 C 0.1277(7) 0.8968(4) 0.8005(2)
C73 C 0.1417(9) 0.9635(5) 0.7609(2)
H46 H 0.1517 1.0259 0.7667
C74 C 0.1412(10) 0.9397(6) 0.7118(3)
H47 H 0.1513 0.9857 0.6846
C75 C 0.1261(10) 0.8499(6) 0.7036(3)
H48 H 0.1264 0.8332 0.6706
C76 C 0.1107(8) 0.7846(5) 0.7426(3)
H49 H 0.1014 0.7224 0.7362
C77 C 0.1080(7) 0.8054(4) 0.7916(2)
C78 C 0.0949(8) 0.7277(4) 0.8321(2)
C79 C 0.2285(8) 0.6856(4) 0.8539(3)
C80 C 0.3678(8) 0.7149(5) 0.8367(3)
H50 H 0.3769 0.7645 0.8114
C81 C 0.4933(10) 0.6725(6) 0.8564(3)
H51 H 0.5875 0.6920 0.8437
C82 C 0.4820(14) 0.6034(7) 0.8935(4)
H52 H 0.5684 0.5753 0.9071
C83 C 0.3471(15) 0.5739(6) 0.9116(4)
H53 H 0.3405 0.5257 0.9378
C84 C 0.2217(4) 0.6132(2) 0.89238(13)
H54 H 0.1288 0.5915 0.9051
O20 O 0.3802(4) 1.0881(3) 0.93692(17)
H57 H 0.382(6) 1.125(4) 0.9104(15)
H58 H 0.470(3) 1.078(4) 0.946(2)
Pr2A Pr 0.83504(3) 1.020433(17) 1.050452(9)
Pr2A_2 Pr -0.16496(3) 1.020433(17) 1.050452(9)
Pr2_2 Pr 1.16496(3) 0.979567(17) 0.949548(9)
O11A O 0.3345(4) 0.9774(3) 1.02625(13)
O13A O 0.0720(4) 1.1406(2) 0.93729(14)
O17_2 O -0.1058(4) 0.9808(2) 0.95885(13)
O17A O 0.1058(4) 1.0192(2) 1.04115(13)
loop_
_geom_bond_atom_site_label_1
_geom_bond_atom_site_label_2
_geom_bond_site_symmetry_1
_geom_bond_site_symmetry_2
Pr1 O1 1_555 1_555
Pr2 O10 1_555 1_555
O1 C1 1_555 1_555
O2 Pr1 1_555 1_555
O3 Pr1 1_555 1_555
O4 Pr1 1_555 1_555
O5 C1 1_555 1_555
O6 C29 1_555 1_555
O7 C36 1_555 1_555
O8 C8 1_555 1_555
O9 C22 1_555 1_555
O10 C58 1_555 1_555
O11 C43 1_555 1_555
O12 Pr2 1_555 1_555
O13 C44 1_555 1_555
O14 C51 1_555 1_555
O15 Pr2 1_555 1_555
O16 Pr2 1_555 1_555
O17 C43 1_555 1_555
O18 C78 1_555 1_555
C1 C2 1_555 1_555
C2 C3 1_555 1_555
C3 H1 1_555 1_555
C4 C3 1_555 1_555
H2 C4 1_555 1_555
C5 C4 1_555 1_555
H3 C5 1_555 1_555
C6 C5 1_555 1_555
H4 C6 1_555 1_555
C7 C2 1_555 1_555
C8 C7 1_555 1_555
C9 C8 1_555 1_555
C10 C9 1_555 1_555
H5 C10 1_555 1_555
C11 C10 1_555 1_555
H6 C11 1_555 1_555
C12 C11 1_555 1_555
H7 C12 1_555 1_555
C13 C12 1_555 1_555
H8 C13 1_555 1_555
C14 C9 1_555 1_555
H9 C14 1_555 1_555
C15 O3 1_555 1_555
C16 C15 1_555 1_555
C17 C16 1_555 1_555
H10 C17 1_555 1_555
C18 C17 1_555 1_555
H11 C18 1_555 1_555
C19 C18 1_555 1_555
H12 C19 1_555 1_555
C20 C19 1_555 1_555
H13 C20 1_555 1_555
C21 C16 1_555 1_555
C22 C21 1_555 1_555
C23 C22 1_555 1_555
C24 C23 1_555 1_555
H14 C24 1_555 1_555
C25 C24 1_555 1_555
H15 C25 1_555 1_555
C26 C25 1_555 1_555
H16 C26 1_555 1_555
C27 C26 1_555 1_555
H17 C27 1_555 1_555
C28 C23 1_555 1_555
H18 C28 1_555 1_555
C29 O2 1_555 1_555
C30 C29 1_555 1_555
C31 C30 1_555 1_555
H19 C31 1_555 1_555
C32 C31 1_555 1_555
H20 C32 1_555 1_555
C33 C32 1_555 1_555
H21 C33 1_555 1_555
C34 C33 1_555 1_555
H22 C34 1_555 1_555
C35 C30 1_555 1_555
C36 C35 1_555 1_555
C37 C36 1_555 1_555
C38 C37 1_555 1_555
H23 C38 1_555 1_555
C39 C38 1_555 1_555
H24 C39 1_555 1_555
C40 C39 1_555 1_555
H25 C40 1_555 1_555
C41 C40 1_555 1_555
H26 C41 1_555 1_555
C42 C37 1_555 1_555
H27 C42 1_555 1_555
C43 C70 1_555 1_555
C44 O12 1_555 1_555
C45 C44 1_555 1_555
C46 C45 1_555 1_555
H28 C46 1_555 1_555
C47 C46 1_555 1_555
H29 C47 1_555 1_555
C48 C47 1_555 1_555
H30 C48 1_555 1_555
C49 C48 1_555 1_555
H31 C49 1_555 1_555
C50 C45 1_555 1_555
C51 C50 1_555 1_555
C52 C51 1_555 1_555
C53 C52 1_555 1_555
H32 C53 1_555 1_555
C54 C53 1_555 1_555
H33 C54 1_555 1_555
C55 C54 1_555 1_555
H34 C55 1_555 1_555
C56 C55 1_555 1_555
H35 C56 1_555 1_555
C57 C52 1_555 1_555
H36 C57 1_555 1_555
C58 C59 1_555 1_555
C59 C60 1_555 1_555
C60 H37 1_555 1_555
C61 C60 1_555 1_555
H38 C61 1_555 1_555
C62 C61 1_555 1_555
H39 C62 1_555 1_555
C63 C62 1_555 1_555
H40 C63 1_555 1_555
C64 C59 1_555 1_555
H41 C64 1_555 1_555
C65 C58 1_555 1_555
C66 C65 1_555 1_555
H42 C66 1_555 1_555
C67 C66 1_555 1_555
H43 C67 1_555 1_555
C68 C67 1_555 1_555
H44 C68 1_555 1_555
C69 C68 1_555 1_555
H45 C69 1_555 1_555
C70 C65 1_555 1_555
C71 O15 1_555 1_555
C72 C71 1_555 1_555
C73 C72 1_555 1_555
H46 C73 1_555 1_555
C74 C73 1_555 1_555
H47 C74 1_555 1_555
C75 C74 1_555 1_555
H48 C75 1_555 1_555
C76 C75 1_555 1_555
H49 C76 1_555 1_555
C77 C72 1_555 1_555
C78 C77 1_555 1_555
C79 C78 1_555 1_555
C80 C79 1_555 1_555
H50 C80 1_555 1_555
C81 C80 1_555 1_555
H51 C81 1_555 1_555
C82 C81 1_555 1_555
H52 C82 1_555 1_555
C83 C82 1_555 1_555
H53 C83 1_555 1_555
C84 C79 1_555 1_555
H54 C84 1_555 1_555
O19 Pr1 1_555 1_555
H55 O19 1_555 1_555
H56 O19 1_555 1_555
O20 Pr2 1_555 1_555
H57 O20 1_555 1_555
H58 O20 1_555 1_555
O21 Pr1 1_555 1_555
H59 O21 1_555 1_555
H60 O21 1_555 1_555
Pr1A O5 1_555 1_555
Pr2A O11 1_555 1_555
Pr2A_2 O13 1_555 1_555
Pr2_2 O17 1_555 1_555
O5A Pr1 1_555 1_555
O6A Pr1 1_555 1_555
O11A Pr2 1_555 1_555
O13A Pr2 1_555 1_555
O17_2 Pr2 1_555 1_555
O17A Pr2 1_555 1_555
O4 C15 1_555 1_555
O6 Pr1A 1_555 1_555
O16 C71 1_555 1_555
O17 Pr2A 1_555 1_555
C6 C7 1_555 1_555
C13 C14 1_555 1_555
C20 C21 1_555 1_555
C27 C28 1_555 1_555
C34 C35 1_555 1_555
C41 C42 1_555 1_555
C49 C50 1_555 1_555
C56 C57 1_555 1_555
C63 C64 1_555 1_555
C69 C70 1_555 1_555
C76 C77 1_555 1_555
C83 C84 1_555 1_555
Pr2A_2 O17_2 1_555 1_555
Pr2A_2 O17A 1_555 1_555

#END
