
#######################################################################
#
#                 Cambridge Crystallographic Data Centre
#                                CCDC 
#
#######################################################################
#
# If this CIF has been generated from an entry in the Cambridge 
# Structural Database, then it will include bibliographic, chemical, 
# crystal, experimental, refinement or atomic coordinate data resulting 
# from the CCDC's data processing and validation procedures.
#
#######################################################################

data_SIPZEW
_symmetry_cell_setting           monoclinic
_symmetry_space_group_name_H-M   'P n'
_symmetry_Int_Tables_number      7
_space_group_name_Hall           'P -2yac'
loop_
_symmetry_equiv_pos_site_id
_symmetry_equiv_pos_as_xyz
1 x,y,z
2 1/2+x,-y,1/2+z
_cell_length_a                   7.2851(2)
_cell_length_b                   9.9062(3)
_cell_length_c                   9.1407(2)
_cell_angle_alpha                90
_cell_angle_beta                 98.207(1)
_cell_angle_gamma                90
_cell_volume                     652.907
loop_
_atom_site_label
_atom_site_type_symbol
_atom_site_fract_x
_atom_site_fract_y
_atom_site_fract_z
Cu1 Cu 0.4199(1) 1.0228(1) -0.0337(1)
S1 S 0.2278(1) 0.8534(1) -0.2891(1)
O1 O 0.2079(4) 0.9462(3) -0.1638(3)
O2 O 0.1670(4) 0.9252(3) -0.4316(3)
O3 O 0.4248(4) 0.8184(3) -0.2845(3)
O4 O 0.1110(4) 0.7352(3) -0.2784(3)
O5 O -0.2358(4) 0.8466(3) -0.3855(3)
N1 N -0.0625(5) 0.8216(3) -0.6783(4)
N2 N -0.0729(4) 0.1412(3) -1.4001(3)
C1 C -0.0703(6) 0.6937(4) -0.6313(4)
C2 C -0.0642(6) 0.5829(4) -0.7228(4)
C3 C -0.0447(6) 0.6017(4) -0.8716(4)
C4 C -0.0302(6) 0.7349(4) -0.9193(4)
C5 C -0.0398(5) 0.8407(4) -0.8211(4)
C6 C -0.0520(7) 0.4828(4) -0.9691(5)
C7 C -0.0372(7) 0.4853(4) -1.1123(5)
C8 C -0.0509(6) 0.3656(4) -1.2083(4)
C9 C -0.0963(5) 0.2367(3) -1.1625(4)
C10 C -0.1050(5) 0.1293(4) -1.2583(4)
C11 C -0.0289(6) 0.2640(4) -1.4459(4)
C12 C -0.0159(6) 0.3772(4) -1.3549(4)
H1 H -0.0804(6) 0.6787(4) -0.5323(4)
H2 H -0.0730(6) 0.4961(4) -0.6855(4)
H3 H -0.0141(6) 0.7525(4) -1.0165(4)
H4 H -0.0302(5) 0.9286(4) -0.8550(4)
H5 H -0.1208(5) 0.2235(3) -1.0664(4)
H6 H -0.1343(5) 0.0446(4) -1.2243(4)
H7 H -0.0059(6) 0.2740(4) -1.5428(4)
H8 H 0.0159(6) 0.4604(4) -1.3911(4)
H9 H -0.1632(67) 0.8078(44) -0.3278(49)
H10 H -0.330(13) 0.8413(70) -0.3524(75)
Cu1A Cu -0.0801(1) 0.9772(1) -0.5337(1)
O1A O -0.2921(4) 1.0538(3) -0.6638(3)
Cu1A_2 Cu -0.0801(1) -0.0228(1) -1.5337(1)
N2_2 N -0.0729(4) 1.1412(3) -0.4001(3)
loop_
_geom_bond_atom_site_label_1
_geom_bond_atom_site_label_2
_geom_bond_site_symmetry_1
_geom_bond_site_symmetry_2
Cu1 O1 1_555 1_555
S1 O1 1_555 1_555
O2 S1 1_555 1_555
O3 S1 1_555 1_555
O4 S1 1_555 1_555
O5 H9 1_555 1_555
N1 C1 1_555 1_555
N2 C10 1_555 1_555
C1 C2 1_555 1_555
C2 C3 1_555 1_555
C3 C4 1_555 1_555
C4 C5 1_555 1_555
C5 N1 1_555 1_555
C6 C3 1_555 1_555
C7 C6 1_555 1_555
C8 C7 1_555 1_555
C9 C8 1_555 1_555
C10 C9 1_555 1_555
C11 N2 1_555 1_555
C12 C8 1_555 1_555
H1 C1 1_555 1_555
H2 C2 1_555 1_555
H3 C4 1_555 1_555
H4 C5 1_555 1_555
H5 C9 1_555 1_555
H6 C10 1_555 1_555
H7 C11 1_555 1_555
H8 C12 1_555 1_555
H10 O5 1_555 1_555
Cu1A O2 1_555 1_555
O1A Cu1A 1_555 1_555
Cu1A_2 N2 1_555 1_555
N2_2 Cu1A 1_555 1_555
O5 Cu1A 1_555 1_555
N1 Cu1A 1_555 1_555
C11 C12 1_555 1_555

#END
