
#######################################################################
#
#                 Cambridge Crystallographic Data Centre
#                                CCDC 
#
#######################################################################
#
# If this CIF has been generated from an entry in the Cambridge 
# Structural Database, then it will include bibliographic, chemical, 
# crystal, experimental, refinement or atomic coordinate data resulting 
# from the CCDC's data processing and validation procedures.
#
#######################################################################

data_SIQBAW
_symmetry_cell_setting           orthorhombic
_symmetry_space_group_name_H-M   'P c c a'
_symmetry_Int_Tables_number      54
_space_group_name_Hall           '-P 2a 2ac'
loop_
_symmetry_equiv_pos_site_id
_symmetry_equiv_pos_as_xyz
1 x,y,z
2 1/2-x,-y,z
3 -x,y,1/2-z
4 1/2+x,-y,1/2-z
5 -x,-y,-z
6 1/2+x,y,-z
7 x,-y,1/2+z
8 1/2-x,y,1/2+z
_cell_length_a                   29.1836(17)
_cell_length_b                   10.0604(6)
_cell_length_c                   18.1377(10)
_cell_angle_alpha                90
_cell_angle_beta                 90
_cell_angle_gamma                90
_cell_volume                     5325.2
loop_
_atom_site_label
_atom_site_type_symbol
_atom_site_fract_x
_atom_site_fract_y
_atom_site_fract_z
C1 C 0.86959(13) 0.5203(4) 0.2073(2)
C2 C 0.85391(14) 0.4209(4) 0.0990(2)
C3 C 0.92909(12) 0.4955(4) 0.1294(2)
C4 C 0.80796(14) 0.5912(4) 0.2911(2)
H1 H 0.8040 0.5955 0.3441
H2 H 0.7892 0.5188 0.2727
C5 C 0.79192(13) 0.7183(4) 0.2577(2)
C6 C 0.77892(13) 0.3394(4) 0.0614(2)
H3 H 0.7629 0.3558 0.0154
H4 H 0.7656 0.3970 0.0986
C7 C 0.77135(12) 0.1956(4) 0.0839(2)
C8 C 1.00392(14) 0.5936(5) 0.1473(2)
H5 H 1.0153 0.5432 0.1891
H6 H 0.9883 0.6714 0.1664
C9 C 1.04362(14) 0.6377(5) 0.1013(2)
C10 C 0.89639(14) 0.9610(4) 0.2491(2)
H7 H 0.8983 0.8720 0.2355
C11 C 0.93150(15) 1.0174(5) 0.2906(2)
H8 H 0.9567 0.9659 0.3036
C12 C 0.92953(15) 1.1506(4) 0.3133(2)
C13 C 0.89200(13) 1.2171(4) 0.2928(2)
H9 H 0.8885 1.3051 0.3075
C14 C 0.85855(16) 1.1589(5) 0.2506(2)
H10 H 0.8336 1.2107 0.2368
C15 C 0.96775(14) 1.2125(4) 0.3575(2)
H11 H 0.9958 1.2044 0.3291
H12 H 0.9612 1.3067 0.3623
H13 H 0.8876 0.9166 0.5694
H14 H 0.9423 0.9518 0.4833
C16 C 0.97624(14) 1.1628(4) 0.4277(2)
H15 H 0.9980 1.2220 0.4514
H16 H 0.9914 1.0776 0.4219
C17 C 0.93737(14) 1.1436(4) 0.4793(2)
C18 C 0.90852(12) 1.2451(4) 0.50424(19)
H17 H 0.9127 1.3314 0.4872
C19 C 0.87350(14) 1.2184(4) 0.5545(2)
H18 H 0.8552 1.2878 0.5713
C20 C 0.89254(13) 0.9999(4) 0.5526(2)
C21 C 0.92639(15) 1.0198(4) 0.5027(2)
Co1 Co 0.810030(17) 0.94832(5) 0.15349(3)
N1 N 0.91515(11) 0.5350(3) 0.19372(19)
N2 N 0.83821(11) 0.4654(3) 0.16241(18)
N3 N 0.90010(11) 0.4302(3) 0.08028(18)
N4 N 0.85571(11) 0.5636(3) 0.27464(19)
H19 H 0.8759 0.5751 0.3086
N5 N 0.82588(11) 0.3731(3) 0.05234(18)
H20 H 0.8369 0.3590 0.0091
N6 N 0.97153(11) 0.5130(3) 0.10725(18)
H21 H 0.9803 0.4748 0.0673
N7 N 0.85956(11) 1.0335(3) 0.22820(18)
N8 N 0.86579(11) 1.0970(3) 0.57848(17)
O1 O 0.81720(9) 0.7737(3) 0.21165(15)
O2 O 0.75330(10) 0.7602(3) 0.27849(15)
O3 O 0.73123(8) 0.1555(3) 0.07883(14)
O4 O 0.80539(8) 0.1322(3) 0.10709(14)
O5 O 1.04575(10) 0.5944(3) 0.03694(15)
H22 H 1.0707 0.6164 0.0076
O6 O 1.07244(9) 0.7082(3) 0.13237(15)
O7 O 0.7500 1.0000 0.2204(2)
H23 H 0.7427 0.9342 0.2474
C1A C 0.63041(13) 0.4797(4) 0.2073(2)
C2A C 0.64609(14) 0.5791(4) 0.0990(2)
C3A C 0.57091(12) 0.5045(4) 0.1294(2)
C4A C 0.69204(14) 0.4088(4) 0.2911(2)
H1A H 0.6960 0.4045 0.3441
H2A H 0.7108 0.4812 0.2727
C5A C 0.70808(13) 0.2817(4) 0.2577(2)
C6A C 0.72108(13) 0.6606(4) 0.0614(2)
H3A H 0.7371 0.6442 0.0154
H4A H 0.7344 0.6030 0.0986
C7A C 0.72865(12) 0.8044(4) 0.0839(2)
C8A C 0.49608(14) 0.4064(5) 0.1473(2)
H5A H 0.4847 0.4568 0.1891
H6A H 0.5117 0.3286 0.1664
C9A C 0.45638(14) 0.3623(5) 0.1013(2)
C10F C 0.89639(14) 1.0390(4) -0.2509(2)
H7F H 0.8983 1.1280 -0.2645
C11F C 0.93150(15) 0.9826(5) -0.2094(2)
H8F H 0.9567 1.0341 -0.1964
C12F C 0.92953(15) 0.8494(4) -0.1867(2)
C13F C 0.89200(13) 0.7829(4) -0.2072(2)
H9F H 0.8885 0.6949 -0.1925
C14F C 0.85855(16) 0.8411(5) -0.2494(2)
H10F H 0.8336 0.7893 -0.2632
C15F C 0.96775(14) 0.7875(4) -0.1425(2)
H11F H 0.9958 0.7956 -0.1709
H12F H 0.9612 0.6933 -0.1377
H13F H 0.8876 1.0834 0.0694
H14F H 0.9423 1.0482 -0.0167
C16F C 0.97624(14) 0.8372(4) -0.0723(2)
H15F H 0.9980 0.7780 -0.0486
H16F H 0.9914 0.9224 -0.0781
C17F C 0.93737(14) 0.8564(4) -0.0207(2)
C18F C 0.90852(12) 0.7549(4) 0.00424(19)
H17F H 0.9127 0.6686 -0.0128
C19F C 0.87350(14) 0.7816(4) 0.0545(2)
H18F H 0.8552 0.7122 0.0713
C20F C 0.89254(13) 1.0001(4) 0.0526(2)
C21F C 0.92639(15) 0.9802(4) 0.0027(2)
Co1F Co 0.810030(17) 1.05168(5) -0.34651(3)
Co1F_2 Co 0.810030(17) 1.05168(5) 0.65349(3)
Co1A Co 0.689970(17) 0.05168(5) 0.15349(3)
Co1_2 Co 0.810030(17) -0.05168(5) 0.15349(3)
Co1A_2 Co 0.689970(17) 1.05168(5) 0.15349(3)
N1A N 0.58485(11) 0.4650(3) 0.19372(19)
N2A N 0.66179(11) 0.5346(3) 0.16241(18)
N3A N 0.59990(11) 0.5698(3) 0.08028(18)
N4A N 0.64429(11) 0.4364(3) 0.27464(19)
H19A H 0.6241 0.4249 0.3086
N5A N 0.67412(11) 0.6269(3) 0.05234(18)
H20A H 0.6631 0.6410 0.0091
N6A N 0.52847(11) 0.4870(3) 0.10725(18)
H21A H 0.5197 0.5252 0.0673
N7F N 0.85956(11) 0.9665(3) -0.27180(18)
N8F N 0.86579(11) 0.9030(3) 0.07848(17)
N8_2 N 0.86579(11) 1.0970(3) -0.42152(17)
O1A O 0.68280(9) 0.2263(3) 0.21165(15)
O1F O 0.81720(9) 1.2263(3) -0.28835(15)
O2A O 0.74670(10) 0.2398(3) 0.27849(15)
O3A O 0.76877(8) 0.8445(3) 0.07883(14)
O3G O 0.76877(8) 1.1555(3) -0.42117(14)
O4A O 0.69461(8) 0.8678(3) 0.10709(14)
O4_2 O 0.80539(8) 1.1322(3) 0.10709(14)
O4F O 0.80539(8) 0.8678(3) -0.39291(14)
O5A O 0.45425(10) 0.4056(3) 0.03694(15)
H22A H 0.4293 0.3836 0.0076
O6A O 0.42756(9) 0.2918(3) 0.13237(15)
O7F O 0.7500 1.0000 -0.2796(2)
H23A H 0.7573 1.0658 0.2474
H23F H 0.7427 1.0658 -0.2526
H23G H 0.7573 0.9342 -0.2526
O8 O 0.84758(9) 0.7881(3) 0.42098(14)
H24 H 0.8573 0.8539 0.3960
H25 H 0.8584 0.7165 0.4032
O9 O 0.70211(10) 0.9636(3) 0.43232(15)
H26 H 0.6933 0.9536 0.4767
H27 H 0.7069 1.0456 0.4239
O10 O 0.70414(9) 0.6796(3) 0.40304(14)
H28 H 0.7192 0.7025 0.3650
H29 H 0.6791 0.7226 0.4046
loop_
_geom_bond_atom_site_label_1
_geom_bond_atom_site_label_2
_geom_bond_site_symmetry_1
_geom_bond_site_symmetry_2
C1 N1 1_555 1_555
C2 N2 1_555 1_555
C3 N1 1_555 1_555
C4 H1 1_555 1_555
H2 C4 1_555 1_555
C5 C4 1_555 1_555
C6 H3 1_555 1_555
H4 C6 1_555 1_555
C7 C6 1_555 1_555
C8 H5 1_555 1_555
H6 C8 1_555 1_555
C9 C8 1_555 1_555
C10 H7 1_555 1_555
C11 C10 1_555 1_555
H8 C11 1_555 1_555
C12 C11 1_555 1_555
C13 C12 1_555 1_555
H9 C13 1_555 1_555
C14 C13 1_555 1_555
H10 C14 1_555 1_555
C15 C12 1_555 1_555
H11 C15 1_555 1_555
H12 C15 1_555 1_555
H13 C20 1_555 1_555
H14 C21 1_555 1_555
C16 C15 1_555 1_555
H15 C16 1_555 1_555
H16 C16 1_555 1_555
C17 C16 1_555 1_555
C18 C17 1_555 1_555
H17 C18 1_555 1_555
C19 C18 1_555 1_555
H18 C19 1_555 1_555
C20 C21 1_555 1_555
C21 C17 1_555 1_555
Co1 N7 1_555 1_555
N2 C1 1_555 1_555
N3 C2 1_555 1_555
N4 C1 1_555 1_555
H19 N4 1_555 1_555
N5 C2 1_555 1_555
H20 N5 1_555 1_555
N6 C3 1_555 1_555
H21 N6 1_555 1_555
N7 C10 1_555 1_555
N8 C19 1_555 1_555
O1 C5 1_555 1_555
O2 C5 1_555 1_555
O3 C7 1_555 1_555
O4 C7 1_555 1_555
O5 C9 1_555 1_555
H22 O5 1_555 1_555
O6 C9 1_555 1_555
O7 Co1 1_555 1_555
H23 O7 1_555 1_555
O8 H24 1_555 1_555
H25 O8 1_555 1_555
O9 H26 1_555 1_555
H27 O9 1_555 1_555
O10 H28 1_555 1_555
H29 O10 1_555 1_555
C1A N1A 1_555 1_555
C2A N2A 1_555 1_555
C3A N1A 1_555 1_555
C4A H1A 1_555 1_555
H2A C4A 1_555 1_555
C5A C4A 1_555 1_555
C6A H3A 1_555 1_555
H4A C6A 1_555 1_555
C7A C6A 1_555 1_555
C8A H5A 1_555 1_555
H6A C8A 1_555 1_555
C9A C8A 1_555 1_555
C10F H7F 1_555 1_555
C11F C10F 1_555 1_555
H8F C11F 1_555 1_555
C12F C11F 1_555 1_555
C13F C12F 1_555 1_555
H9F C13F 1_555 1_555
C14F C13F 1_555 1_555
H10F C14F 1_555 1_555
C15F C12F 1_555 1_555
H11F C15F 1_555 1_555
H12F C15F 1_555 1_555
H13F C20F 1_555 1_555
H14F C21F 1_555 1_555
C16F C15F 1_555 1_555
H15F C16F 1_555 1_555
H16F C16F 1_555 1_555
C17F C16F 1_555 1_555
C18F C17F 1_555 1_555
H17F C18F 1_555 1_555
C19F C18F 1_555 1_555
H18F C19F 1_555 1_555
C20F C21F 1_555 1_555
C21F C17F 1_555 1_555
Co1F N7F 1_555 1_555
Co1F_2 N8 1_555 1_555
Co1A O3 1_555 1_555
Co1_2 O4 1_555 1_555
Co1A_2 O7 1_555 1_555
N2A C1A 1_555 1_555
N3A C2A 1_555 1_555
N4A C1A 1_555 1_555
H19A N4A 1_555 1_555
N5A C2A 1_555 1_555
H20A N5A 1_555 1_555
N6A C3A 1_555 1_555
H21A N6A 1_555 1_555
N7F C10F 1_555 1_555
N8F Co1 1_555 1_555
N8_2 Co1F 1_555 1_555
O1A C5A 1_555 1_555
O1F Co1F 1_555 1_555
O2A C5A 1_555 1_555
O3A Co1 1_555 1_555
O3G Co1F 1_555 1_555
O4A C7A 1_555 1_555
O4_2 Co1 1_555 1_555
O4F Co1F 1_555 1_555
O5A C9A 1_555 1_555
H22A O5A 1_555 1_555
O6A C9A 1_555 1_555
O7F Co1F 1_555 1_555
H23A O7 1_555 1_555
H23F O7F 1_555 1_555
H23G O7F 1_555 1_555
C3 N3 1_555 1_555
C4 N4 1_555 1_555
C6 N5 1_555 1_555
C8 N6 1_555 1_555
C14 N7 1_555 1_555
C20 N8 1_555 1_555
Co1 O1 1_555 1_555
C3A N3A 1_555 1_555
C4A N4A 1_555 1_555
C6A N5A 1_555 1_555
C7A O3A 1_555 1_555
C8A N6A 1_555 1_555
C14F N7F 1_555 1_555
C19F N8F 1_555 1_555
C20F N8F 1_555 1_555
Co1A O1A 1_555 1_555
Co1A_2 O4A 1_555 1_555

#END
