
#######################################################################
#
#                 Cambridge Crystallographic Data Centre
#                                CCDC 
#
#######################################################################
#
# If this CIF has been generated from an entry in the Cambridge 
# Structural Database, then it will include bibliographic, chemical, 
# crystal, experimental, refinement or atomic coordinate data resulting 
# from the CCDC's data processing and validation procedures.
#
#######################################################################

data_SIQBEA
_symmetry_cell_setting           monoclinic
_symmetry_space_group_name_H-M   'P 21/n'
_symmetry_Int_Tables_number      14
_space_group_name_Hall           '-P 2yn'
loop_
_symmetry_equiv_pos_site_id
_symmetry_equiv_pos_as_xyz
1 x,y,z
2 1/2-x,1/2+y,1/2-z
3 -x,-y,-z
4 1/2+x,1/2-y,1/2+z
_cell_length_a                   10.473(2)
_cell_length_b                   17.597(4)
_cell_length_c                   14.503(3)
_cell_angle_alpha                90
_cell_angle_beta                 106.452(3)
_cell_angle_gamma                90
_cell_volume                     2563.38
loop_
_atom_site_label
_atom_site_type_symbol
_atom_site_fract_x
_atom_site_fract_y
_atom_site_fract_z
C1 C 0.5307(4) 0.6867(2) -0.6742(3)
C2 C 0.5274(4) 0.7061(2) -0.8267(3)
C3 C 0.3476(4) 0.7416(2) -0.7736(3)
C4 C 0.7212(4) 0.6208(2) -0.5704(3)
H1 H 0.7777 0.6501 -0.5998
H2 H 0.7655 0.6180 -0.5020
C5 C 0.7081(4) 0.5448(2) -0.6097(3)
C6 C 0.5520(4) 0.7494(2) -0.9799(3)
H3 H 0.4565 0.7479 -1.0093
H4 H 0.5950 0.7311 -1.0267
C7 C 0.5947(4) 0.8309(2) -0.9531(3)
C8 C 0.1454(4) 0.8039(2) -0.8628(3)
H5 H 0.1171 0.7665 -0.9137
H6 H 0.1935 0.8437 -0.8850
C9 C 0.0300(4) 0.8357(2) -0.8399(3)
C10 C 0.7408(4) 0.3709(2) 0.1428(3)
H7 H 0.7467 0.3234 0.1718
C11 C 0.7660(4) 0.3759(2) 0.0553(3)
H8 H 0.7862 0.3324 0.0258
C12 C 0.7613(4) 0.4439(2) 0.0122(3)
C13 C 0.7253(4) 0.5063(2) 0.0581(3)
H9 H 0.7189 0.5542 0.0302
C14 C 0.6988(4) 0.4967(2) 0.1462(3)
H10 H 0.6737 0.5387 0.1757
C15 C 0.7996(4) 0.4502(2) -0.0809(3)
H11 H 0.8952 0.4575 -0.0648
H12 H 0.7795 0.4022 -0.1147
C16 C 0.7355(4) 0.5110(2) -0.1470(3)
H13 H 0.7512 0.5596 -0.1142
H14 H 0.6402 0.5024 -0.1689
C17 C 0.7923(4) 0.5120(2) -0.2327(3)
C18 C 0.9031(4) 0.5558(2) -0.2332(3)
H15 H 0.9422 0.5869 -0.1810
C19 C 0.9551(4) 0.5534(2) -0.3103(3)
H16 H 1.0282 0.5838 -0.3091
C20 C 0.7978(4) 0.4684(2) -0.3871(3)
H17 H 0.7605 0.4379 -0.4403
C21 C 0.7400(4) 0.4690(2) -0.3133(3)
H18 H 0.6643 0.4399 -0.3180
Co1 Co 1.0000 0.5000 -0.5000
Co2 Co 0.66962(5) 0.41303(3) 0.31966(4)
N1 N 0.5955(3) 0.67908(19) -0.7400(2)
N2 N 0.4058(3) 0.73863(18) -0.8470(2)
N3 N 0.4096(3) 0.71792(19) -0.6869(3)
N4 N 0.5924(3) 0.6619(2) -0.5848(2)
H19 H 0.5350 0.6313 -0.5666
N5 N 0.5863(3) 0.69988(17) -0.8965(2)
H20 H 0.6491 0.6640 -0.8919
N6 N 0.2260(3) 0.77056(18) -0.7825(3)
H21 H 0.1964 0.7679 -0.7330
N7 N 0.7081(3) 0.43046(19) 0.1890(2)
N8 N 0.9050(3) 0.50957(16) -0.3863(2)
O1 O 0.8150(3) 0.50935(15) -0.60425(19)
O2 O 0.5996(2) 0.51522(13) -0.65047(18)
O3 O 0.6953(3) 0.83801(15) -0.8827(2)
O4 O 0.5291(2) 0.88235(14) -1.00388(18)
O5 O -0.0321(3) 0.85763(15) -0.9193(2)
O6 O -0.0098(3) 0.84922(15) -0.76746(19)
C1B C 1.4693(4) 0.3133(2) -0.3258(3)
C2B C 1.4726(4) 0.2939(2) -0.1733(3)
C3B C 1.6524(4) 0.2584(2) -0.2264(3)
C4B C 1.2788(4) 0.3792(2) -0.4296(3)
H1B H 1.2223 0.3499 -0.4002
H2B H 1.2345 0.3820 -0.4980
C5B C 1.2919(4) 0.4552(2) -0.3903(3)
C6B C 1.4480(4) 0.2506(2) -0.0201(3)
H3B H 1.5435 0.2521 0.0093
H4B H 1.4050 0.2689 0.0267
C7B C 1.4053(4) 0.1691(2) -0.0469(3)
C8B C 1.8546(4) 0.1961(2) -0.1372(3)
H5B H 1.8829 0.2335 -0.0863
H6B H 1.8065 0.1563 -0.1150
C9B C 1.9700(4) 0.1643(2) -0.1601(3)
C10B C 1.2592(4) 0.6291(2) -1.1428(3)
H7B H 1.2533 0.6766 -1.1718
C11B C 1.2340(4) 0.6241(2) -1.0553(3)
H8B H 1.2138 0.6676 -1.0258
C12B C 1.2387(4) 0.5561(2) -1.0122(3)
C13B C 1.2747(4) 0.4937(2) -1.0581(3)
H9B H 1.2811 0.4458 -1.0302
C14B C 1.3012(4) 0.5033(2) -1.1462(3)
H10B H 1.3263 0.4613 -1.1757
C15B C 1.2004(4) 0.5498(2) -0.9191(3)
H11B H 1.1048 0.5425 -0.9352
H12B H 1.2205 0.5978 -0.8853
C16B C 1.2645(4) 0.4890(2) -0.8530(3)
H13B H 1.2488 0.4404 -0.8858
H14B H 1.3598 0.4976 -0.8311
C17B C 1.2077(4) 0.4880(2) -0.7673(3)
C18B C 1.0969(4) 0.4442(2) -0.7668(3)
H15B H 1.0578 0.4131 -0.8190
C19B C 1.0449(4) 0.4466(2) -0.6897(3)
H16B H 0.9718 0.4162 -0.6909
C20B C 1.2022(4) 0.5316(2) -0.6129(3)
H17B H 1.2395 0.5621 -0.5597
C21B C 1.2600(4) 0.5310(2) -0.6867(3)
H18B H 1.3357 0.5601 -0.6820
Co1C Co 0.5000 1.0000 -1.0000
Co1C_2 Co 1.5000 0.0000 0.0000
Co2B Co 1.33038(5) 0.58697(3) -1.31966(4)
Co2_2 Co 0.66962(5) 0.41303(3) -0.68034(4)
Co2A Co 0.83038(5) 0.91303(3) -0.81966(4)
Co2A_2 Co -0.16962(5) 0.91303(3) -0.81966(4)
Co2B_2 Co 1.33038(5) 0.58697(3) -0.31966(4)
Co2C Co 1.16962(5) 0.08697(3) -0.18034(4)
Co2C_2 Co 2.16962(5) 0.08697(3) -0.18034(4)
N1B N 1.4045(3) 0.32092(19) -0.2600(2)
N2B N 1.5942(3) 0.26137(18) -0.1530(2)
N3B N 1.5904(3) 0.28208(19) -0.3131(3)
N4B N 1.4076(3) 0.3381(2) -0.4152(2)
H19B H 1.4650 0.3687 -0.4334
N5B N 1.4137(3) 0.30012(17) -0.1035(2)
H20B H 1.3509 0.3360 -0.1081
N6B N 1.7740(3) 0.22944(18) -0.2175(3)
H21B H 1.8036 0.2321 -0.2670
N7B N 1.2919(3) 0.56954(19) -1.1890(2)
N8B N 1.0950(3) 0.49043(16) -0.6137(2)
O1B O 1.1850(3) 0.49065(15) -0.39575(19)
O1_2 O 0.8150(3) 0.50935(15) 0.39575(19)
O1B_2 O 1.1850(3) 0.49065(15) -1.39575(19)
O2B O 1.4004(2) 0.48478(13) -0.34953(18)
O2_2 O 0.5996(2) 0.51522(13) 0.34953(18)
O2B_2 O 1.4004(2) 0.48478(13) -1.34953(18)
O3B O 1.3047(3) 0.16199(15) -0.1173(2)
O3A O 0.8047(3) 0.33801(15) 0.3827(2)
O3C O 1.1953(3) 0.66199(15) -1.3827(2)
O4B O 1.4709(2) 0.11765(14) 0.00388(18)
O4C O 1.0291(2) 0.61765(14) -0.50388(18)
O4A O 0.9709(2) 0.38235(14) -0.49612(18)
O5B O 2.0321(3) 0.14237(15) -0.0807(2)
O5A O 0.5321(3) 0.35763(15) 0.4193(2)
O5C O 1.4679(3) 0.64237(15) -1.4193(2)
O6B O 2.0098(3) 0.15078(15) -0.23254(19)
O6A O 0.5098(3) 0.34922(15) 0.26746(19)
O6C O 1.4902(3) 0.65078(15) -1.26746(19)
O7 O 0.1397(5) 0.3050(3) 0.0179(4)
H22 H 0.0991 0.3181 -0.0393
H23 H 0.0840 0.2877 0.0453
O8 O 0.6038(5) 0.1682(3) 0.2723(4)
H24 H 0.6022 0.1205 0.2625
H25 H 0.6732 0.1871 0.2620
loop_
_geom_bond_atom_site_label_1
_geom_bond_atom_site_label_2
_geom_bond_site_symmetry_1
_geom_bond_site_symmetry_2
C1 N1 1_555 1_555
C2 N1 1_555 1_555
C3 N2 1_555 1_555
C4 H1 1_555 1_555
H2 C4 1_555 1_555
C5 C4 1_555 1_555
C6 H3 1_555 1_555
H4 C6 1_555 1_555
C7 C6 1_555 1_555
C8 H5 1_555 1_555
H6 C8 1_555 1_555
C9 C8 1_555 1_555
C10 H7 1_555 1_555
C11 C10 1_555 1_555
H8 C11 1_555 1_555
C12 C11 1_555 1_555
C13 C12 1_555 1_555
H9 C13 1_555 1_555
C14 C13 1_555 1_555
H10 C14 1_555 1_555
C15 C12 1_555 1_555
H11 C15 1_555 1_555
H12 C15 1_555 1_555
C16 C15 1_555 1_555
H13 C16 1_555 1_555
H14 C16 1_555 1_555
C17 C16 1_555 1_555
C18 C17 1_555 1_555
H15 C18 1_555 1_555
C19 C18 1_555 1_555
H16 C19 1_555 1_555
C20 H17 1_555 1_555
C21 C17 1_555 1_555
H18 C21 1_555 1_555
Co1 N8 1_555 1_555
Co2 N7 1_555 1_555
N2 C2 1_555 1_555
N3 C1 1_555 1_555
N4 C1 1_555 1_555
H19 N4 1_555 1_555
N5 C2 1_555 1_555
H20 N5 1_555 1_555
N6 C3 1_555 1_555
H21 N6 1_555 1_555
N7 C10 1_555 1_555
N8 C19 1_555 1_555
O1 C5 1_555 1_555
O2 C5 1_555 1_555
O3 C7 1_555 1_555
O4 C7 1_555 1_555
O5 C9 1_555 1_555
O6 C9 1_555 1_555
O7 H22 1_555 1_555
H23 O7 1_555 1_555
O8 H24 1_555 1_555
H25 O8 1_555 1_555
C1B N1B 1_555 1_555
C2B N1B 1_555 1_555
C3B N2B 1_555 1_555
C4B H1B 1_555 1_555
H2B C4B 1_555 1_555
C5B C4B 1_555 1_555
C6B H3B 1_555 1_555
H4B C6B 1_555 1_555
C7B C6B 1_555 1_555
C8B H5B 1_555 1_555
H6B C8B 1_555 1_555
C9B C8B 1_555 1_555
C10B H7B 1_555 1_555
C11B C10B 1_555 1_555
H8B C11B 1_555 1_555
C12B C11B 1_555 1_555
C13B C12B 1_555 1_555
H9B C13B 1_555 1_555
C14B C13B 1_555 1_555
H10B C14B 1_555 1_555
C15B C12B 1_555 1_555
H11B C15B 1_555 1_555
H12B C15B 1_555 1_555
C16B C15B 1_555 1_555
H13B C16B 1_555 1_555
H14B C16B 1_555 1_555
C17B C16B 1_555 1_555
C18B C17B 1_555 1_555
H15B C18B 1_555 1_555
C19B C18B 1_555 1_555
H16B C19B 1_555 1_555
C20B H17B 1_555 1_555
C21B C17B 1_555 1_555
H18B C21B 1_555 1_555
Co1C O4 1_555 1_555
Co1C_2 O4B 1_555 1_555
Co2B N7B 1_555 1_555
Co2_2 O1 1_555 1_555
Co2A O3 1_555 1_555
Co2A_2 O5 1_555 1_555
Co2B_2 O1B 1_555 1_555
Co2C O3B 1_555 1_555
Co2C_2 O5B 1_555 1_555
N2B C2B 1_555 1_555
N3B C1B 1_555 1_555
N4B C1B 1_555 1_555
H19B N4B 1_555 1_555
N5B C2B 1_555 1_555
H20B N5B 1_555 1_555
N6B C3B 1_555 1_555
H21B N6B 1_555 1_555
N7B C10B 1_555 1_555
N8B Co1 1_555 1_555
O1B Co1 1_555 1_555
O1_2 Co2 1_555 1_555
O1B_2 Co2B 1_555 1_555
O2B C5B 1_555 1_555
O2_2 Co2 1_555 1_555
O2B_2 Co2B 1_555 1_555
O3B C7B 1_555 1_555
O3A Co2 1_555 1_555
O3C Co2B 1_555 1_555
O4B C7B 1_555 1_555
O4C Co1 1_555 1_555
O4A Co1 1_555 1_555
O5B C9B 1_555 1_555
O5A Co2 1_555 1_555
O5C Co2B 1_555 1_555
O6B C9B 1_555 1_555
O6A Co2 1_555 1_555
O6C Co2B 1_555 1_555
C3 N3 1_555 1_555
C4 N4 1_555 1_555
C6 N5 1_555 1_555
C8 N6 1_555 1_555
C14 N7 1_555 1_555
C20 C21 1_555 1_555
C20 N8 1_555 1_555
Co1 O1 1_555 1_555
O2 Co2_2 1_555 1_555
O6 Co2A_2 1_555 1_555
C3B N3B 1_555 1_555
C4B N4B 1_555 1_555
C5B O1B 1_555 1_555
C6B N5B 1_555 1_555
C8B N6B 1_555 1_555
C14B N7B 1_555 1_555
C19B N8B 1_555 1_555
C20B C21B 1_555 1_555
C20B N8B 1_555 1_555
Co2B_2 O2B 1_555 1_555
Co2C_2 O6B 1_555 1_555

#END
