
#######################################################################
#
#                 Cambridge Crystallographic Data Centre
#                                CCDC 
#
#######################################################################
#
# If this CIF has been generated from an entry in the Cambridge 
# Structural Database, then it will include bibliographic, chemical, 
# crystal, experimental, refinement or atomic coordinate data resulting 
# from the CCDC's data processing and validation procedures.
#
#######################################################################

data_SIQBUP
_symmetry_cell_setting           monoclinic
_symmetry_space_group_name_H-M   'P 21/c'
_symmetry_Int_Tables_number      14
_space_group_name_Hall           '-P 2ybc'
loop_
_symmetry_equiv_pos_site_id
_symmetry_equiv_pos_as_xyz
1 x,y,z
2 -x,1/2+y,1/2-z
3 -x,-y,-z
4 x,1/2-y,1/2+z
_cell_length_a                   10.584(5)
_cell_length_b                   11.633(2)
_cell_length_c                   13.072(6)
_cell_angle_alpha                90
_cell_angle_beta                 108.63(2)
_cell_angle_gamma                90
_cell_volume                     1525.14
loop_
_atom_site_label
_atom_site_type_symbol
_atom_site_fract_x
_atom_site_fract_y
_atom_site_fract_z
O1 O -0.540(5) 0.540(3) -0.979(2)
O1B O -0.460(5) 0.460(3) -1.021(2)
Mn1 Mn -0.500 0.0000 0.0000
O2 O -0.1404(8) -0.082(1) 0.1049(7)
O3 O -0.5819(8) -0.3617(8) 0.3852(6)
O4 O -0.399(1) -0.324(1) 0.380(1)
N1 N -0.3523(7) -0.1056(9) 0.1172(7)
N2 N -0.2982(9) -0.227(1) 0.2596(8)
N3 N -0.6030(7) -0.0986(8) 0.1042(6)
C1 C -0.3919(9) -0.168(1) 0.1880(8)
C2 C -0.168(1) -0.206(2) 0.242(1)
C3 C -0.131(1) -0.346(2) 0.237(2)
C4 C -0.068(2) -0.205(3) 0.302(2)
C5 C -0.104(2) -0.078(2) 0.357(1)
C6 C -0.019(2) -0.293(3) 0.394(2)
C7 C -0.215(1) -0.126(1) 0.146(1)
C8 C -0.5316(9) -0.1682(9) 0.1839(8)
C9 C -0.585(1) -0.231(1) 0.2502(8)
C10 C -0.724(1) -0.215(1) 0.231(1)
C11 C -0.733(1) -0.083(1) 0.0918(9)
C12 C -0.797(1) -0.141(1) 0.1530(9)
C13 C -0.518(1) -0.313(1) 0.345(1)
O3C O -0.5819(8) -0.1383(8) -0.1148(6)
O3A O -0.4181(8) 0.1383(8) 0.1148(6)
O2B O -0.8596(8) 0.082(1) -0.1049(7)
O3B O -0.4181(8) 0.3617(8) -0.3852(6)
O4B O -0.601(1) 0.324(1) -0.380(1)
N1B N -0.6477(7) 0.1056(9) -0.1172(7)
N2B N -0.7018(9) 0.227(1) -0.2596(8)
N3B N -0.3970(7) 0.0986(8) -0.1042(6)
C1B C -0.6081(9) 0.168(1) -0.1880(8)
C2B C -0.832(1) 0.206(2) -0.242(1)
C3B C -0.869(1) 0.346(2) -0.237(2)
C4B C -0.932(2) 0.205(3) -0.302(2)
C5B C -0.896(2) 0.078(2) -0.357(1)
C6B C -0.981(2) 0.293(3) -0.394(2)
C7B C -0.785(1) 0.126(1) -0.146(1)
C8B C -0.4684(9) 0.1682(9) -0.1839(8)
C9B C -0.415(1) 0.231(1) -0.2502(8)
C10B C -0.276(1) 0.215(1) -0.231(1)
C11B C -0.267(1) 0.083(1) -0.0918(9)
C12B C -0.203(1) 0.141(1) -0.1530(9)
C13B C -0.482(1) 0.313(1) -0.345(1)
Mn1A Mn -0.500 -0.5000 0.5000
Mn1C Mn -0.500 0.5000 -0.5000
loop_
_geom_bond_atom_site_label_1
_geom_bond_atom_site_label_2
_geom_bond_site_symmetry_1
_geom_bond_site_symmetry_2
Mn1 N1 1_555 1_555
O1 O1B 1_555 1_555
O2 C7 1_555 1_555
O3 C13 1_555 1_555
O4 C13 1_555 1_555
N1 C1 1_555 1_555
N2 C1 1_555 1_555
N3 Mn1 1_555 1_555
C1 C8 1_555 1_555
C2 N2 1_555 1_555
C3 C2 1_555 1_555
C4 C2 1_555 1_555
C5 C4 1_555 1_555
C6 C4 1_555 1_555
C7 N1 1_555 1_555
C8 N3 1_555 1_555
C9 C8 1_555 1_555
C10 C9 1_555 1_555
C11 N3 1_555 1_555
C12 C10 1_555 1_555
C13 C9 1_555 1_555
O3C Mn1 1_555 1_555
O3A Mn1 1_555 1_555
O2B C7B 1_555 1_555
O3B C13B 1_555 1_555
O4B C13B 1_555 1_555
N1B Mn1 1_555 1_555
N2B C1B 1_555 1_555
N3B Mn1 1_555 1_555
C1B N1B 1_555 1_555
C2B N2B 1_555 1_555
C3B C2B 1_555 1_555
C4B C2B 1_555 1_555
C5B C4B 1_555 1_555
C6B C4B 1_555 1_555
C7B N1B 1_555 1_555
C8B N3B 1_555 1_555
C9B C8B 1_555 1_555
C10B C9B 1_555 1_555
C11B N3B 1_555 1_555
C12B C10B 1_555 1_555
C13B C9B 1_555 1_555
Mn1A O3 1_555 1_555
Mn1C O3B 1_555 1_555
C2 C7 1_555 1_555
C11 C12 1_555 1_555
C1B C8B 1_555 1_555
C2B C7B 1_555 1_555
C11B C12B 1_555 1_555

#END
