
#######################################################################
#
#                 Cambridge Crystallographic Data Centre
#                                CCDC 
#
#######################################################################
#
# If this CIF has been generated from an entry in the Cambridge 
# Structural Database, then it will include bibliographic, chemical, 
# crystal, experimental, refinement or atomic coordinate data resulting 
# from the CCDC's data processing and validation procedures.
#
#######################################################################

data_SIQCOM
_symmetry_cell_setting           monoclinic
_symmetry_space_group_name_H-M   'P 21'
_symmetry_Int_Tables_number      4
_space_group_name_Hall           'P 2yb'
loop_
_symmetry_equiv_pos_site_id
_symmetry_equiv_pos_as_xyz
1 x,y,z
2 -x,1/2+y,-z
_cell_length_a                   13.079(4)
_cell_length_b                   13.853(3)
_cell_length_c                   14.263(4)
_cell_angle_alpha                90
_cell_angle_beta                 107.983(5)
_cell_angle_gamma                90
_cell_volume                     2457.97
loop_
_atom_site_label
_atom_site_type_symbol
_atom_site_fract_x
_atom_site_fract_y
_atom_site_fract_z
Cs1 Cs 0.25516(5) 0.89849(7) 0.26106(6)
Cd1 Cd 0.49763(5) 1.07175(4) 0.24330(4)
Cd2 Cd -0.01166(5) 0.72915(4) 0.26294(4)
C1 C 0.6025(9) 1.3611(7) 0.0720(7)
H1 H 0.5278 1.3579 0.0488
C2 C 0.6551(8) 1.4247(7) 0.0276(7)
C3 C 0.7670(10) 1.4310(8) 0.0668(9)
H2 H 0.8050 1.4737 0.0398
C4 C 0.8218(9) 1.3726(9) 0.1473(9)
H3 H 0.8960 1.3780 0.1740
C5 C 0.7670(9) 1.3073(8) 0.1873(8)
H4 H 0.8044 1.2675 0.2389
C6 C 0.6578(8) 1.3016(7) 0.1506(7)
C7 C 0.5938(9) 1.4776(8) -0.0628(6)
C8 C 0.5962(6) 1.2265(7) 0.1869(6)
C9 C 0.5935(7) 0.7821(7) 0.5011(7)
H5 H 0.5239 0.7959 0.5010
C10 C 0.6380(7) 0.8327(7) 0.4375(6)
C11 C 0.7404(8) 0.8094(8) 0.4363(7)
H6 H 0.7697 0.8404 0.3927
C12 C 0.7984(8) 0.7410(9) 0.4992(8)
H7 H 0.8685 0.7273 0.5005
C13 C 0.7526(10) 0.6915(8) 0.5617(8)
H8 H 0.7923 0.6435 0.6025
C14 C 0.6534(8) 0.7109(7) 0.5647(6)
C15 C 0.5749(7) 0.9091(6) 0.3739(7)
C16 C 0.6039(9) 0.6603(7) 0.6355(6)
C17 C -0.1154(8) 0.4399(8) 0.4358(7)
H9 H -0.0407 0.4394 0.4559
C18 C -0.1708(7) 0.3781(7) 0.4791(6)
C19 C -0.2807(9) 0.3737(9) 0.4468(9)
H10 H -0.3169 0.3295 0.4740
C20 C -0.3385(9) 0.4374(10) 0.3713(10)
H11 H -0.4132 0.4354 0.3496
C21 C -0.2857(9) 0.5019(9) 0.3299(10)
H12 H -0.3239 0.5445 0.2813
C22 C -0.1720(8) 0.5026(7) 0.3622(7)
C23 C -0.1128(7) 0.5799(8) 0.3234(6)
C24 C -0.1097(8) 0.3172(7) 0.5632(7)
C25 C -0.0648(7) 1.0235(7) 0.0330(7)
H13 H 0.0021 0.9978 0.0369
C26 C -0.1191(8) 0.9860(7) 0.0921(6)
C27 C -0.2202(8) 1.0241(8) 0.0866(8)
H14 H -0.2579 0.9988 0.1265
C28 C -0.2648(9) 1.0991(8) 0.0221(8)
H15 H -0.3319 1.1244 0.0180
C29 C -0.2055(9) 1.1350(8) -0.0362(7)
H16 H -0.2346 1.1855 -0.0791
C30 C -0.1055(8) 1.0998(7) -0.0341(6)
C31 C -0.0432(8) 1.1352(8) -0.0993(6)
C32 C -0.0754(8) 0.9002(7) 0.1546(6)
C33 C 0.3754(9) 0.5968(11) 0.3391(8)
H17 H 0.4475 0.6182 0.3749
H18 H 0.3814 0.5505 0.2900
C34 C 0.3296(8) 0.5465(8) 0.4094(7)
H19 H 0.3828 0.5005 0.4482
C35 C 0.2249(11) 0.4919(10) 0.3580(10)
H20 H 0.1982 0.4624 0.4067
H21 H 0.2388 0.4429 0.3159
H22 H 0.1723 0.5363 0.3193
N1 N 0.3090(7) 0.6203(7) 0.4768(6)
H23 H 0.3696 0.6518 0.5066
H24 H 0.2852 0.5915 0.5218
H25 H 0.2597 0.6619 0.4423
O1 O 0.4953(6) 1.4865(6) -0.0837(6)
O2 O 0.6463(6) 1.5100(6) -0.1175(5)
O3 O 0.6485(6) 1.1604(6) 0.2425(6)
O4 O 0.4928(5) 1.2261(6) 0.1579(5)
O5 O 0.4830(6) 0.9332(6) 0.3770(6)
O6 O 0.6145(6) 0.9527(5) 0.3139(5)
O7 O 0.6670(6) 0.6181(5) 0.7081(5)
O8 O 0.5058(5) 0.6643(5) 0.6190(5)
O9 O -0.1680(6) 0.6379(6) 0.2572(5)
O10 O -0.0157(5) 0.5851(7) 0.3559(6)
O11 O -0.0057(5) 0.3164(5) 0.5903(5)
O12 O -0.1579(6) 0.2722(6) 0.6130(5)
O13 O -0.1015(6) 1.1703(6) -0.1829(5)
O14 O 0.0527(6) 1.1328(6) -0.0715(5)
O15 O 0.0231(6) 0.8835(6) 0.1790(6)
O16 O -0.1390(5) 0.8458(5) 0.1812(5)
O17 O 0.3164(7) 0.6767(6) 0.2902(5)
H26 H 0.2542 0.6552 0.2854
Cs1A Cs -0.25516(5) 0.39849(7) 0.73894(6)
Cs1A_2 Cs 0.74484(5) 0.39849(7) 0.73894(6)
Cs1A_3 Cs 0.74484(5) 1.39849(7) -0.26106(6)
Cd1A Cd 0.50237(5) 0.57175(4) 0.75670(4)
Cd1A_2 Cd 0.50237(5) 1.57175(4) -0.24330(4)
Cd2A Cd 0.01166(5) 0.22915(4) 0.73706(4)
Cd2A_2 Cd 0.01166(5) 1.22915(4) -0.26294(4)
O1A O 0.5047(6) 0.9865(6) 0.0837(6)
O2A O 0.3537(6) 1.0100(6) 0.1175(5)
O7A O 0.3330(6) 1.1181(5) 0.2919(5)
O8A O 0.4942(5) 1.1643(5) 0.3810(5)
O11A O 0.0057(5) 0.8164(5) 0.4097(5)
O12A O 0.1579(6) 0.7722(6) 0.3870(5)
O13A O 0.1015(6) 0.6703(6) 0.1829(5)
C36 C 0.2835(10) 1.3595(10) 0.1234(9)
H27 H 0.3248 1.3524 0.0779
H28 H 0.2579 1.4256 0.1190
C37 C 0.1862(8) 1.2915(8) 0.0918(8)
H29 H 0.1433 1.3086 0.0245
C38 C 0.1130(13) 1.2957(13) 0.1573(13)
H30 H 0.0546 1.2511 0.1331
H31 H 0.0850 1.3599 0.1562
H32 H 0.1535 1.2788 0.2237
N2 N 0.2255(7) 1.1900(6) 0.0908(6)
H33 H 0.2677 1.1867 0.0524
H34 H 0.1696 1.1506 0.0675
H35 H 0.2626 1.1723 0.1518
O18 O 0.3510(9) 1.3426(8) 0.2193(8)
H36 H 0.4008 1.3075 0.2172
C39 C -0.3972(8) 0.6710(8) 0.0888(7)
H37 H -0.4126 0.6050 0.1027
H38 H -0.4530 0.6918 0.0300
C40 C -0.3989(7) 0.7350(7) 0.1748(6)
H39 H -0.3517 0.7060 0.2354
C41 C -0.5102(9) 0.7417(10) 0.1843(9)
H40 H -0.5087 0.7819 0.2395
H41 H -0.5347 0.6783 0.1942
H42 H -0.5582 0.7690 0.1252
N3 N -0.3566(6) 0.8324(6) 0.1643(6)
H43 H -0.3568 0.8687 0.2157
H44 H -0.3978 0.8598 0.1091
H45 H -0.2896 0.8272 0.1617
O19 O -0.2985(6) 0.6742(6) 0.0715(5)
H46 H -0.2503 0.6638 0.1231
C42 C 0.8790(11) 1.0493(16) 0.3668(11)
H47 H 0.8154 1.0638 0.3121
H48 H 0.8916 0.9804 0.3653
C43 C 0.9689(16) 1.098(2) 0.3495(13)
H49 H 0.9758 1.0779 0.2874
H50 H 1.0335 1.0829 0.4014
H51 H 0.9570 1.1668 0.3482
O20 O 0.8567(11) 1.0693(13) 0.4513(10)
H52 H 0.9128 1.0714 0.4973
loop_
_geom_bond_atom_site_label_1
_geom_bond_atom_site_label_2
_geom_bond_site_symmetry_1
_geom_bond_site_symmetry_2
Cs1 O5 1_555 1_555
Cd1 O3 1_555 1_555
Cd2 O9 1_555 1_555
C1 H1 1_555 1_555
C2 C1 1_555 1_555
C3 C2 1_555 1_555
H2 C3 1_555 1_555
C4 C3 1_555 1_555
H3 C4 1_555 1_555
C5 C4 1_555 1_555
H4 C5 1_555 1_555
C6 C1 1_555 1_555
C7 C2 1_555 1_555
C8 C6 1_555 1_555
C9 H5 1_555 1_555
C10 C9 1_555 1_555
C11 C10 1_555 1_555
H6 C11 1_555 1_555
C12 C11 1_555 1_555
H7 C12 1_555 1_555
C13 C12 1_555 1_555
H8 C13 1_555 1_555
C14 C9 1_555 1_555
C15 C10 1_555 1_555
C16 C14 1_555 1_555
C17 H9 1_555 1_555
C18 C17 1_555 1_555
C19 C18 1_555 1_555
H10 C19 1_555 1_555
C20 C19 1_555 1_555
H11 C20 1_555 1_555
C21 C20 1_555 1_555
H12 C21 1_555 1_555
C22 C17 1_555 1_555
C23 C22 1_555 1_555
C24 C18 1_555 1_555
C25 H13 1_555 1_555
C26 C25 1_555 1_555
C27 C26 1_555 1_555
H14 C27 1_555 1_555
C28 C27 1_555 1_555
H15 C28 1_555 1_555
C29 C28 1_555 1_555
H16 C29 1_555 1_555
C30 C25 1_555 1_555
C31 C30 1_555 1_555
C32 C26 1_555 1_555
C33 H17 1_555 1_555
H18 C33 1_555 1_555
C34 C33 1_555 1_555
H19 C34 1_555 1_555
C35 C34 1_555 1_555
H20 C35 1_555 1_555
H21 C35 1_555 1_555
H22 C35 1_555 1_555
N1 C34 1_555 1_555
H23 N1 1_555 1_555
H24 N1 1_555 1_555
H25 N1 1_555 1_555
O1 C7 1_555 1_555
O2 C7 1_555 1_555
O3 C8 1_555 1_555
O4 Cd1 1_555 1_555
O5 Cd1 1_555 1_555
O6 Cd1 1_555 1_555
O7 C16 1_555 1_555
O8 C16 1_555 1_555
O9 C23 1_555 1_555
O10 Cd2 1_555 1_555
O11 C24 1_555 1_555
O12 C24 1_555 1_555
O13 C31 1_555 1_555
O14 C31 1_555 1_555
O15 Cs1 1_555 1_555
O16 Cd2 1_555 1_555
O17 Cs1 1_555 1_555
H26 O17 1_555 1_555
C36 H27 1_555 1_555
H28 C36 1_555 1_555
C37 C36 1_555 1_555
H29 C37 1_555 1_555
C38 C37 1_555 1_555
H30 C38 1_555 1_555
H31 C38 1_555 1_555
H32 C38 1_555 1_555
N2 C37 1_555 1_555
H33 N2 1_555 1_555
H34 N2 1_555 1_555
H35 N2 1_555 1_555
O18 C36 1_555 1_555
H36 O18 1_555 1_555
C39 H37 1_555 1_555
H38 C39 1_555 1_555
C40 C39 1_555 1_555
H39 C40 1_555 1_555
C41 C40 1_555 1_555
H40 C41 1_555 1_555
H41 C41 1_555 1_555
H42 C41 1_555 1_555
N3 C40 1_555 1_555
H43 N3 1_555 1_555
H44 N3 1_555 1_555
H45 N3 1_555 1_555
O19 C39 1_555 1_555
H46 O19 1_555 1_555
C42 H47 1_555 1_555
H48 C42 1_555 1_555
C43 C42 1_555 1_555
H49 C43 1_555 1_555
H50 C43 1_555 1_555
H51 C43 1_555 1_555
O20 C42 1_555 1_555
H52 O20 1_555 1_555
Cs1A O12 1_555 1_555
Cs1A_2 O7 1_555 1_555
Cs1A_3 O2 1_555 1_555
Cd1A O7 1_555 1_555
Cd1A_2 O1 1_555 1_555
Cd2A O11 1_555 1_555
Cd2A_2 O13 1_555 1_555
O1A Cd1 1_555 1_555
O2A Cs1 1_555 1_555
O7A Cs1 1_555 1_555
O8A Cd1 1_555 1_555
O11A Cd2 1_555 1_555
O12A Cs1 1_555 1_555
O13A Cd2 1_555 1_555
Cd1 O2A 1_555 1_555
Cd1 O7A 1_555 1_555
Cd2 O15 1_555 1_555
Cd2 O12A 1_555 1_555
C5 C6 1_555 1_555
C8 O4 1_555 1_555
C13 C14 1_555 1_555
C15 O5 1_555 1_555
C15 O6 1_555 1_555
C21 C22 1_555 1_555
C23 O10 1_555 1_555
C29 C30 1_555 1_555
C32 O15 1_555 1_555
C32 O16 1_555 1_555
C33 O17 1_555 1_555
O2 Cd1A_2 1_555 1_555
O8 Cd1A 1_555 1_555
O12 Cd2A 1_555 1_555

#END
