
#######################################################################
#
#                 Cambridge Crystallographic Data Centre
#                                CCDC 
#
#######################################################################
#
# If this CIF has been generated from an entry in the Cambridge 
# Structural Database, then it will include bibliographic, chemical, 
# crystal, experimental, refinement or atomic coordinate data resulting 
# from the CCDC's data processing and validation procedures.
#
#######################################################################

data_SIQCUR
_symmetry_cell_setting           monoclinic
_symmetry_space_group_name_H-M   'P 21/n'
_symmetry_Int_Tables_number      14
_space_group_name_Hall           '-P 2yn'
loop_
_symmetry_equiv_pos_site_id
_symmetry_equiv_pos_as_xyz
1 x,y,z
2 1/2-x,1/2+y,1/2-z
3 -x,-y,-z
4 1/2+x,1/2-y,1/2+z
_cell_length_a                   10.1125(7)
_cell_length_b                   11.6950(8)
_cell_length_c                   27.4427(18)
_cell_angle_alpha                90
_cell_angle_beta                 94.8820(10)
_cell_angle_gamma                90
_cell_volume                     3233.76
loop_
_atom_site_label
_atom_site_type_symbol
_atom_site_fract_x
_atom_site_fract_y
_atom_site_fract_z
Cu1 Cu 0.20735(2) 0.52464(2) 0.475747(8)
O1 O 0.14013(16) 0.72354(15) 0.65174(5)
H1 H 0.1086 0.7095 0.6239
O2 O 0.12808(16) 0.64063(14) 0.56534(5)
O3 O 0.28438(15) 0.52214(13) 0.54356(5)
O4 O 0.62019(15) 0.97153(13) 0.90923(5)
O5 O 0.46586(17) 0.84167(14) 0.92109(5)
O6 O 0.33332(18) 0.75195(15) 0.84760(5)
H2 H 0.3624 0.7612 0.8761
O7 O 0.36409(15) 0.40204(14) 0.44872(5)
O8 O 0.30124(16) 0.66588(14) 0.46289(6)
O9 O 0.09542(14) 0.39566(13) 0.48990(5)
H3 H 0.0813 0.3863 0.5197
H4 H 0.0259 0.3890 0.4704
N1 N 0.3904(2) 0.26658(17) 0.39122(7)
N2 N 0.4861(2) 0.76344(16) 0.45043(7)
C1 C 0.2307(2) 0.58148(18) 0.57502(7)
C2 C 0.2939(2) 0.58240(18) 0.62631(7)
C3 C 0.4005(2) 0.51354(19) 0.63833(8)
H5 H 0.4312 0.4663 0.6144
C4 C 0.4654(2) 0.5116(2) 0.68555(8)
C5 C 0.5764(3) 0.4407(2) 0.69726(9)
H6 H 0.6073 0.3941 0.6732
C6 C 0.6390(3) 0.4394(3) 0.74313(10)
H7 H 0.7130 0.3933 0.7503
C7 C 0.5906(3) 0.5082(3) 0.77932(10)
H8 H 0.6325 0.5064 0.8108
C8 C 0.4839(3) 0.5777(2) 0.76958(8)
H9 H 0.4538 0.6216 0.7946
C9 C 0.4173(2) 0.58456(19) 0.72200(7)
C10 C 0.3084(2) 0.65918(18) 0.70990(7)
C11 C 0.2467(2) 0.65497(18) 0.66302(7)
C12 C 0.2550(2) 0.73863(19) 0.74784(7)
H10 H 0.1764 0.7765 0.7328
H11 H 0.2274 0.6922 0.7745
C13 C 0.3504(2) 0.82986(19) 0.76938(7)
C14 C 0.3986(2) 0.91842(18) 0.74015(7)
C15 C 0.3532(2) 0.9340(2) 0.69017(7)
H12 H 0.2901 0.8841 0.6755
C16 C 0.4002(3) 1.0203(2) 0.66330(8)
H13 H 0.3681 1.0288 0.6307
C17 C 0.4959(3) 1.0966(2) 0.68375(8)
H14 H 0.5281 1.1545 0.6648
C18 C 0.5415(2) 1.0853(2) 0.73170(8)
H15 H 0.6055 1.1359 0.7452
C19 C 0.4935(2) 0.99839(19) 0.76108(7)
C20 C 0.5348(2) 0.98979(19) 0.81113(8)
H16 H 0.5991 1.0399 0.8247
C21 C 0.4831(2) 0.90985(18) 0.84037(7)
C22 C 0.5258(2) 0.90722(19) 0.89399(7)
C23 C 0.3874(2) 0.83080(19) 0.81900(7)
C24 C 0.4957(3) 0.2069(2) 0.41973(10)
H17 H 0.5317 0.2553 0.4458
H18 H 0.5643 0.1872 0.3991
H19 H 0.4609 0.1385 0.4332
C25 C 0.3523(3) 0.2253(3) 0.34201(11)
H20 H 0.2791 0.2698 0.3277
H21 H 0.3265 0.1465 0.3434
H22 H 0.4261 0.2325 0.3224
C26 C 0.3370(2) 0.3590(2) 0.40839(9)
H23 H 0.2721 0.3954 0.3879
C27 C 0.6290(3) 0.7639(2) 0.44729(11)
H24 H 0.6652 0.6913 0.4580
H25 H 0.6685 0.8234 0.4678
H26 H 0.6476 0.7772 0.4140
C28 C 0.4149(3) 0.8706(2) 0.44461(12)
H27 H 0.3543 0.8673 0.4158
H28 H 0.4768 0.9319 0.4416
H29 H 0.3663 0.8837 0.4727
C29 C 0.4232(2) 0.6690(2) 0.46017(7)
H30 H 0.4718 0.6019 0.4652
Cu1C Cu 0.70735(2) 0.97536(2) 0.975747(8)
O4C O 0.12019(15) 0.52847(13) 0.40923(5)
O10 O 0.7566(3) 0.0394(2) 0.46174(10)
N3 N 0.9662(3) 0.0614(2) 0.43931(9)
C30 C 0.9554(4) -0.0356(4) 0.40805(17)
H31 H 0.8769 -0.0779 0.4138
H32 H 1.0320 -0.0835 0.4146
H33 H 0.9501 -0.0110 0.3746
C31 C 1.0865(4) 0.1265(3) 0.44023(17)
H34 H 1.0861 0.1716 0.4110
H35 H 1.1612 0.0756 0.4421
H36 H 1.0928 0.1761 0.4682
C32 C 0.8629(4) 0.0899(3) 0.46361(12)
H37 H 0.8722 0.1538 0.4838
loop_
_geom_bond_atom_site_label_1
_geom_bond_atom_site_label_2
_geom_bond_site_symmetry_1
_geom_bond_site_symmetry_2
Cu1 O3 1_555 1_555
O1 H1 1_555 1_555
O2 C1 1_555 1_555
O3 C1 1_555 1_555
O4 C22 1_555 1_555
O5 C22 1_555 1_555
O6 H2 1_555 1_555
O7 Cu1 1_555 1_555
O8 Cu1 1_555 1_555
O9 Cu1 1_555 1_555
H3 O9 1_555 1_555
H4 O9 1_555 1_555
N1 C24 1_555 1_555
N2 C27 1_555 1_555
C1 C2 1_555 1_555
C2 C3 1_555 1_555
C3 H5 1_555 1_555
C4 C3 1_555 1_555
C5 C4 1_555 1_555
H6 C5 1_555 1_555
C6 C5 1_555 1_555
H7 C6 1_555 1_555
C7 C6 1_555 1_555
H8 C7 1_555 1_555
C8 C7 1_555 1_555
H9 C8 1_555 1_555
C9 C4 1_555 1_555
C10 C9 1_555 1_555
C11 O1 1_555 1_555
C12 C10 1_555 1_555
H10 C12 1_555 1_555
H11 C12 1_555 1_555
C13 C12 1_555 1_555
C14 C13 1_555 1_555
C15 C14 1_555 1_555
H12 C15 1_555 1_555
C16 C15 1_555 1_555
H13 C16 1_555 1_555
C17 C16 1_555 1_555
H14 C17 1_555 1_555
C18 C17 1_555 1_555
H15 C18 1_555 1_555
C19 C14 1_555 1_555
C20 C19 1_555 1_555
H16 C20 1_555 1_555
C21 C20 1_555 1_555
C22 C21 1_555 1_555
C23 O6 1_555 1_555
C24 H17 1_555 1_555
H18 C24 1_555 1_555
H19 C24 1_555 1_555
C25 N1 1_555 1_555
H20 C25 1_555 1_555
H21 C25 1_555 1_555
H22 C25 1_555 1_555
C26 O7 1_555 1_555
H23 C26 1_555 1_555
C27 H24 1_555 1_555
H25 C27 1_555 1_555
H26 C27 1_555 1_555
C28 N2 1_555 1_555
H27 C28 1_555 1_555
H28 C28 1_555 1_555
H29 C28 1_555 1_555
C29 O8 1_555 1_555
H30 C29 1_555 1_555
O10 C32 1_555 1_555
N3 C30 1_555 1_555
C30 H31 1_555 1_555
H32 C30 1_555 1_555
H33 C30 1_555 1_555
C31 N3 1_555 1_555
H34 C31 1_555 1_555
H35 C31 1_555 1_555
H36 C31 1_555 1_555
C32 N3 1_555 1_555
H37 C32 1_555 1_555
Cu1C O4 1_555 1_555
O4C Cu1 1_555 1_555
N1 C26 1_555 1_555
N2 C29 1_555 1_555
C2 C11 1_555 1_555
C8 C9 1_555 1_555
C10 C11 1_555 1_555
C13 C23 1_555 1_555
C18 C19 1_555 1_555
C21 C23 1_555 1_555

#END
