
#######################################################################
#
#                 Cambridge Crystallographic Data Centre
#                                CCDC 
#
#######################################################################
#
# If this CIF has been generated from an entry in the Cambridge 
# Structural Database, then it will include bibliographic, chemical, 
# crystal, experimental, refinement or atomic coordinate data resulting 
# from the CCDC's data processing and validation procedures.
#
#######################################################################

data_SIQCUS
_symmetry_cell_setting           monoclinic
_symmetry_space_group_name_H-M   'P 21'
_symmetry_Int_Tables_number      4
_space_group_name_Hall           'P 2yb'
loop_
_symmetry_equiv_pos_site_id
_symmetry_equiv_pos_as_xyz
1 x,y,z
2 -x,1/2+y,-z
_cell_length_a                   13.075(4)
_cell_length_b                   13.860(3)
_cell_length_c                   14.256(4)
_cell_angle_alpha                90
_cell_angle_beta                 108.001(4)
_cell_angle_gamma                90
_cell_volume                     2457.01
loop_
_atom_site_label
_atom_site_type_symbol
_atom_site_fract_x
_atom_site_fract_y
_atom_site_fract_z
Cs1 Cs 0.24495(2) 0.86458(3) 0.23917(3)
Cd1 Cd 0.00238(2) 0.691420(17) 0.256867(18)
Cd2 Cd 0.511671(19) 1.033896(16) 0.237274(18)
C1 C -0.1012(3) 0.4024(3) 0.4276(3)
H1 H -0.0265 0.4043 0.4507
C2 C -0.1566(3) 0.3400(3) 0.4715(3)
C3 C -0.2680(4) 0.3339(3) 0.4324(3)
H2 H -0.3060 0.2917 0.4600
C4 C -0.3219(4) 0.3901(4) 0.3533(4)
H3 H -0.3962 0.3845 0.3265
C5 C -0.2664(3) 0.4550(3) 0.3130(3)
H4 H -0.3042 0.4941 0.2608
C6 C -0.1563(3) 0.4622(3) 0.3494(3)
C7 C -0.0961(4) 0.2858(3) 0.5626(3)
C8 C -0.0962(3) 0.5375(3) 0.3124(3)
C9 C -0.0933(3) 0.9809(3) -0.0006(3)
H5 H -0.0236 0.9668 -0.0002
C10 C -0.1377(3) 0.9313(3) 0.0617(3)
C11 C -0.2411(3) 0.9533(3) 0.0629(3)
H6 H -0.2713 0.9199 0.1044
C12 C -0.2986(3) 1.0254(4) 0.0019(3)
H7 H -0.3666 1.0424 0.0042
C13 C -0.2550(3) 1.0721(3) -0.0625(3)
H8 H -0.2956 1.1180 -0.1057
C14 C -0.1519(3) 1.0516(3) -0.0636(3)
C15 C -0.0740(3) 0.8531(3) 0.1273(3)
C16 C -0.1053(3) 1.1013(3) -0.1350(3)
C17 C 0.6165(3) 1.3221(3) 0.0646(3)
H9 H 0.5417 1.3221 0.0444
C18 C 0.6709(3) 1.3855(3) 0.0214(3)
C19 C 0.7799(4) 1.3877(4) 0.0531(4)
H10 H 0.8163 1.4300 0.0240
C20 C 0.8384(4) 1.3268(4) 0.1293(4)
H11 H 0.9131 1.3299 0.1520
C21 C 0.7842(4) 1.2624(4) 0.1704(4)
H12 H 0.8227 1.2211 0.2203
C22 C 0.6732(3) 1.2586(3) 0.1379(3)
C23 C 0.6134(3) 1.1847(3) 0.1767(3)
C24 C 0.6066(3) 1.4467(3) -0.0641(3)
C25 C 0.5627(3) 0.7382(3) 0.4666(3)
H13 H 0.4945 0.7618 0.4613
C26 C 0.6203(3) 0.7775(3) 0.4093(3)
C27 C 0.7193(3) 0.7380(3) 0.4144(3)
H14 H 0.7576 0.7627 0.3746
C28 C 0.7620(3) 0.6625(3) 0.4777(3)
H15 H 0.8278 0.6357 0.4796
C29 C 0.7060(3) 0.6273(3) 0.5381(3)
H16 H 0.7361 0.5786 0.5831
C30 C 0.6060(3) 0.6635(3) 0.5325(3)
C31 C 0.5424(3) 0.6259(3) 0.5996(3)
C32 C 0.5751(3) 0.8632(3) 0.3445(3)
C33 C 0.1229(4) 1.1648(3) 0.1622(3)
H17 H 0.1163 1.2098 0.2121
H18 H 0.0512 1.1427 0.1258
C34 C 0.1707(3) 1.2164(3) 0.0927(3)
H19 H 0.1171 1.2622 0.0539
C35 C 0.2733(4) 1.2717(3) 0.1422(4)
H20 H 0.2989 1.3013 0.0929
H21 H 0.3268 1.2281 0.1810
H22 H 0.2591 1.3206 0.1842
N1 N 0.1925(3) 1.1432(3) 0.0229(2)
H23 H 0.1325 1.1107 -0.0066
H24 H 0.2432 1.1024 0.0565
H25 H 0.2148 1.1734 -0.0224
O1 O 0.0050(2) 0.2771(2) 0.5828(2)
O2 O -0.1463(2) 0.2524(2) 0.6173(2)
O3 O -0.1490(3) 0.6024(2) 0.2562(2)
O4 O 0.0056(2) 0.5379(2) 0.34176(19)
O5 O 0.0169(2) 0.8302(2) 0.1233(2)
O6 O -0.1157(3) 0.8103(2) 0.1855(2)
O7 O -0.1672(2) 1.1446(2) -0.20766(19)
O8 O -0.0045(2) 1.0980(2) -0.1185(2)
O9 O 0.6654(2) 1.1270(2) 0.2428(2)
O10 O 0.5137(2) 1.1787(3) 0.1429(2)
O11 O 0.5062(2) 1.4468(2) -0.0896(2)
O12 O 0.6584(2) 1.4941(2) -0.1118(2)
O13 O 0.5997(2) 0.5921(2) 0.6826(2)
O14 O 0.4452(2) 0.6294(2) 0.5716(2)
O15 O 0.4782(2) 0.8790(3) 0.3202(2)
O16 O 0.6386(2) 0.9167(2) 0.3182(2)
O17 O 0.1856(2) 1.0844(2) 0.2093(2)
H26 H 0.2460 1.1045 0.2066
Cs1A Cs -0.24495(2) 0.36458(3) 0.76083(3)
Cs1A_2 Cs -0.24495(2) 1.36458(3) -0.23917(3)
Cs1A_3 Cs 0.75505(2) 1.36458(3) -0.23917(3)
Cd1A Cd -0.00238(2) 0.191420(17) 0.743133(18)
Cd1A_2 Cd -0.00238(2) 1.191420(17) -0.256867(18)
Cd2A Cd 0.488329(19) 0.533896(16) 0.762726(18)
Cd2A_2 Cd 0.488329(19) 1.533896(16) -0.237274(18)
O1A O -0.0050(2) 0.7771(2) 0.4172(2)
O2A O 0.1463(2) 0.7524(2) 0.3827(2)
O7A O 0.1672(2) 0.6446(2) 0.20766(19)
O8A O 0.0045(2) 0.5980(2) 0.1185(2)
O11A O 0.4938(2) 0.9468(2) 0.0896(2)
O12A O 0.3416(2) 0.9941(2) 0.1118(2)
O13A O 0.4003(2) 1.0921(2) 0.3174(2)
C36 C 0.2169(4) 0.4042(3) 0.3768(3)
H27 H 0.2432 0.3383 0.3816
H28 H 0.1761 0.4112 0.4228
C37 C 0.3126(3) 0.4722(3) 0.4072(3)
H29 H 0.3556 0.4555 0.4746
C38 C 0.3860(4) 0.4658(5) 0.3421(5)
H30 H 0.4446 0.5103 0.3657
H31 H 0.3457 0.4817 0.2754
H32 H 0.4137 0.4014 0.3445
N2 N 0.2752(3) 0.5731(2) 0.4081(2)
H33 H 0.2327 0.5771 0.4461
H34 H 0.2388 0.5911 0.3470
H35 H 0.3317 0.6117 0.4318
O18 O 0.1492(3) 0.4197(3) 0.2823(3)
H36 H 0.0993 0.4546 0.2845
C39 C 0.8979(3) 1.0908(3) 0.4109(3)
H37 H 0.9536 1.0690 0.4693
H38 H 0.9144 1.1567 0.3979
C40 C 0.8994(3) 1.0289(3) 0.3254(3)
H39 H 0.8531 1.0588 0.2649
C41 C 1.0125(3) 1.0216(4) 0.3178(3)
H40 H 1.0388 1.0851 0.3110
H41 H 1.0113 0.9834 0.2613
H42 H 1.0588 0.9917 0.3763
N3 N 0.8563(3) 0.9302(2) 0.3344(2)
H43 H 0.7898 0.9352 0.3381
H44 H 0.8982 0.9016 0.3886
H45 H 0.8553 0.8952 0.2818
O19 O 0.7978(2) 1.0893(2) 0.4300(2)
H46 H 0.7492 1.1001 0.3788
C42 C -0.3786(5) 0.7150(7) 0.1309(4)
H47 H -0.3943 0.7835 0.1295
H48 H -0.3145 0.7041 0.1863
C43 C -0.4658(5) 0.6650(6) 0.1515(5)
H49 H -0.4728 0.6876 0.2129
H50 H -0.4513 0.5969 0.1559
H51 H -0.5315 0.6771 0.0994
O20 O -0.3542(4) 0.6939(5) 0.0480(4)
H52 H -0.4095 0.6921 0.0011
loop_
_geom_bond_atom_site_label_1
_geom_bond_atom_site_label_2
_geom_bond_site_symmetry_1
_geom_bond_site_symmetry_2
Cs1 O5 1_555 1_555
Cd1 O3 1_555 1_555
Cd2 O9 1_555 1_555
C1 H1 1_555 1_555
C2 C1 1_555 1_555
C3 C2 1_555 1_555
H2 C3 1_555 1_555
C4 C3 1_555 1_555
H3 C4 1_555 1_555
C5 C4 1_555 1_555
H4 C5 1_555 1_555
C6 C1 1_555 1_555
C7 C2 1_555 1_555
C8 C6 1_555 1_555
C9 H5 1_555 1_555
C10 C9 1_555 1_555
C11 C10 1_555 1_555
H6 C11 1_555 1_555
C12 C11 1_555 1_555
H7 C12 1_555 1_555
C13 C12 1_555 1_555
H8 C13 1_555 1_555
C14 C9 1_555 1_555
C15 C10 1_555 1_555
C16 C14 1_555 1_555
C17 H9 1_555 1_555
C18 C17 1_555 1_555
C19 C18 1_555 1_555
H10 C19 1_555 1_555
C20 C19 1_555 1_555
H11 C20 1_555 1_555
C21 C20 1_555 1_555
H12 C21 1_555 1_555
C22 C17 1_555 1_555
C23 C22 1_555 1_555
C24 C18 1_555 1_555
C25 H13 1_555 1_555
C26 C25 1_555 1_555
C27 C26 1_555 1_555
H14 C27 1_555 1_555
C28 C27 1_555 1_555
H15 C28 1_555 1_555
C29 C28 1_555 1_555
H16 C29 1_555 1_555
C30 C25 1_555 1_555
C31 C30 1_555 1_555
C32 C26 1_555 1_555
C33 H17 1_555 1_555
H18 C33 1_555 1_555
C34 C33 1_555 1_555
H19 C34 1_555 1_555
C35 C34 1_555 1_555
H20 C35 1_555 1_555
H21 C35 1_555 1_555
H22 C35 1_555 1_555
N1 C34 1_555 1_555
H23 N1 1_555 1_555
H24 N1 1_555 1_555
H25 N1 1_555 1_555
O1 C7 1_555 1_555
O2 C7 1_555 1_555
O3 C8 1_555 1_555
O4 Cd1 1_555 1_555
O5 Cd1 1_555 1_555
O6 Cd1 1_555 1_555
O7 C16 1_555 1_555
O8 C16 1_555 1_555
O9 C23 1_555 1_555
O10 Cd2 1_555 1_555
O11 C24 1_555 1_555
O12 C24 1_555 1_555
O13 C31 1_555 1_555
O14 C31 1_555 1_555
O15 Cs1 1_555 1_555
O16 Cd2 1_555 1_555
O17 Cs1 1_555 1_555
H26 O17 1_555 1_555
C36 H27 1_555 1_555
H28 C36 1_555 1_555
C37 C36 1_555 1_555
H29 C37 1_555 1_555
C38 C37 1_555 1_555
H30 C38 1_555 1_555
H31 C38 1_555 1_555
H32 C38 1_555 1_555
N2 C37 1_555 1_555
H33 N2 1_555 1_555
H34 N2 1_555 1_555
H35 N2 1_555 1_555
O18 C36 1_555 1_555
H36 O18 1_555 1_555
C39 H37 1_555 1_555
H38 C39 1_555 1_555
C40 C39 1_555 1_555
H39 C40 1_555 1_555
C41 C40 1_555 1_555
H40 C41 1_555 1_555
H41 C41 1_555 1_555
H42 C41 1_555 1_555
N3 C40 1_555 1_555
H43 N3 1_555 1_555
H44 N3 1_555 1_555
H45 N3 1_555 1_555
O19 C39 1_555 1_555
H46 O19 1_555 1_555
C42 H47 1_555 1_555
H48 C42 1_555 1_555
C43 C42 1_555 1_555
H49 C43 1_555 1_555
H50 C43 1_555 1_555
H51 C43 1_555 1_555
O20 C42 1_555 1_555
H52 O20 1_555 1_555
Cs1A O2 1_555 1_555
Cs1A_2 O7 1_555 1_555
Cs1A_3 O12 1_555 1_555
Cd1A O1 1_555 1_555
Cd1A_2 O7 1_555 1_555
Cd2A O13 1_555 1_555
Cd2A_2 O11 1_555 1_555
O1A Cd1 1_555 1_555
O2A Cs1 1_555 1_555
O7A Cs1 1_555 1_555
O8A Cd1 1_555 1_555
O11A Cd2 1_555 1_555
O12A Cs1 1_555 1_555
O13A Cd2 1_555 1_555
Cd1 O2A 1_555 1_555
Cd1 O7A 1_555 1_555
Cd2 O15 1_555 1_555
Cd2 O12A 1_555 1_555
C5 C6 1_555 1_555
C8 O4 1_555 1_555
C13 C14 1_555 1_555
C15 O5 1_555 1_555
C15 O6 1_555 1_555
C21 C22 1_555 1_555
C23 O10 1_555 1_555
C29 C30 1_555 1_555
C32 O15 1_555 1_555
C32 O16 1_555 1_555
C33 O17 1_555 1_555
O2 Cd1A 1_555 1_555
O8 Cd1A_2 1_555 1_555
O12 Cd2A_2 1_555 1_555

#END
