
#######################################################################
#
#                 Cambridge Crystallographic Data Centre
#                                CCDC 
#
#######################################################################
#
# If this CIF has been generated from an entry in the Cambridge 
# Structural Database, then it will include bibliographic, chemical, 
# crystal, experimental, refinement or atomic coordinate data resulting 
# from the CCDC's data processing and validation procedures.
#
#######################################################################

data_SIQDIH
_symmetry_cell_setting           monoclinic
_symmetry_space_group_name_H-M   'P 21/c'
_symmetry_Int_Tables_number      14
_space_group_name_Hall           '-P 2ybc'
loop_
_symmetry_equiv_pos_site_id
_symmetry_equiv_pos_as_xyz
1 x,y,z
2 -x,1/2+y,1/2-z
3 -x,-y,-z
4 x,1/2-y,1/2+z
_cell_length_a                   14.1629(3)
_cell_length_b                   29.7964(6)
_cell_length_c                   18.2255(5)
_cell_angle_alpha                90
_cell_angle_beta                 110.7160(10)
_cell_angle_gamma                90
_cell_volume                     7193.95
loop_
_atom_site_label
_atom_site_type_symbol
_atom_site_fract_x
_atom_site_fract_y
_atom_site_fract_z
Co1 Co 0.44959(5) 0.58441(2) 1.00427(4)
Co2 Co 0.61212(6) 0.79841(3) 0.21882(4)
N1 N 0.3869(3) 0.56144(15) 0.8926(2)
N2 N 0.3744(4) 0.52339(15) 0.7868(3)
N3 N 0.6020(3) 0.73275(15) 0.2509(3)
N4 N 0.5445(3) 0.66483(15) 0.2570(2)
N5 N 1.4555(3) 0.65172(16) 0.9907(3)
N6 N 1.4472(4) 0.71991(17) 0.9451(3)
N7 N 0.6781(3) 0.82608(17) 0.3262(3)
N8 N 0.7108(4) 0.8377(2) 0.4521(3)
O1 O 0.6059(3) 0.59078(13) 1.1392(2)
O2 O 0.5859(3) 0.55962(13) 1.0253(2)
O3 O 1.2791(4) 0.59849(18) 1.0114(3)
O4 O 1.3920(3) 0.54932(15) 1.0720(2)
O5 O 0.7179(3) 0.78799(15) 0.1680(3)
O6 O 0.6720(3) 0.85793(15) 0.1659(2)
O7 O 1.4535(4) 0.81895(19) 0.2440(3)
O8 O 1.4775(3) 0.80783(15) 0.1340(3)
C1 C 0.6382(4) 0.56831(17) 1.0960(3)
C2 C 0.7441(4) 0.55023(16) 1.1264(3)
C3 C 0.7800(4) 0.52532(17) 1.0787(3)
H1 H 0.7388 0.5202 1.0270
C4 C 0.8761(4) 0.50777(19) 1.1062(3)
H2 H 0.8991 0.4912 1.0727
C5 C 0.9394(3) 0.51467(17) 1.1838(3)
C6 C 0.9028(4) 0.53994(18) 1.2312(3)
H3 H 0.9434 0.5449 1.2832
C7 C 0.8065(4) 0.55808(18) 1.2026(3)
H4 H 0.7838 0.5757 1.2351
C8 C 1.3068(5) 0.5669(2) 1.0568(4)
C9 C 1.2373(4) 0.54698(19) 1.0937(3)
C10 C 1.1536(4) 0.5698(2) 1.0945(3)
H5 H 1.1385 0.5976 1.0700
C11 C 1.0910(4) 0.5523(2) 1.1310(3)
H6 H 1.0359 0.5689 1.1322
C12 C 1.1101(4) 0.51008(18) 1.1660(3)
C13 C 1.1939(4) 0.48702(19) 1.1639(3)
H7 H 1.2079 0.4586 1.1862
C14 C 1.2569(4) 0.5054(2) 1.1291(3)
H8 H 1.3137 0.4896 1.1297
C15 C 1.0450(4) 0.49269(17) 1.2117(3)
C16 C 1.0281(4) 0.4413(2) 1.2028(4)
C17 C 1.1050(4) 0.5031(2) 1.2988(3)
C18 C 0.7237(5) 0.8289(2) 0.1504(4)
C19 C 0.7963(4) 0.8406(2) 0.1095(3)
C20 C 0.7957(4) 0.88303(19) 0.0810(3)
H9 H 0.7487 0.9037 0.0852
C21 C 0.8636(4) 0.89584(19) 0.0460(3)
H10 H 0.8614 0.9249 0.0269
C22 C 0.9345(4) 0.86625(18) 0.0390(3)
C23 C 0.9335(4) 0.8234(2) 0.0667(4)
H11 H 0.9797 0.8026 0.0615
C24 C 0.8666(5) 0.8102(2) 0.1018(4)
H12 H 0.8684 0.7810 0.1202
C25 C 1.4234(5) 0.8191(2) 0.1719(5)
C26 C 1.3152(4) 0.8325(2) 0.1259(4)
C27 C 1.2752(5) 0.8283(2) 0.0467(4)
H13 H 1.3146 0.8162 0.0201
C28 C 1.1777(5) 0.8413(2) 0.0048(4)
H14 H 1.1531 0.8384 -0.0495
C29 C 1.1156(4) 0.85867(18) 0.0417(3)
C30 C 1.1564(5) 0.8627(2) 0.1218(3)
H15 H 1.1175 0.8745 0.1489
C31 C 1.2551(5) 0.8495(2) 0.1628(4)
H16 H 1.2806 0.8523 0.2171
C32 C 1.0103(4) 0.87828(18) -0.0014(3)
C33 C 0.9633(5) 0.8605(3) -0.0862(4)
C34 C 1.0245(5) 0.9291(2) -0.0049(4)
C35 C 0.4317(4) 0.53258(19) 0.8607(3)
H17 H 0.4952 0.5202 0.8865
C36 C 0.2873(5) 0.5475(2) 0.7714(4)
H18 H 0.2325 0.5478 0.7245
C37 C 0.2957(4) 0.57055(19) 0.8368(3)
H19 H 0.2470 0.5896 0.8429
C38 C 0.4005(5) 0.49269(19) 0.7348(3)
H20 H 0.3494 0.4694 0.7178
H21 H 0.4643 0.4783 0.7638
C39 C 0.4090(5) 0.51536(19) 0.6635(3)
C40 C 0.3576(6) 0.5010(3) 0.5910(4)
H22 H 0.3127 0.4773 0.5848
C41 C 0.3676(6) 0.5195(3) 0.5254(4)
H23 H 0.3304 0.5076 0.4765
C42 C 0.4302(4) 0.55454(18) 0.5295(3)
C43 C 0.4818(6) 0.5696(3) 0.6036(4)
H24 H 0.5261 0.5936 0.6103
C44 C 0.4707(6) 0.5508(3) 0.6686(4)
H25 H 0.5068 0.5627 0.7177
C45 C 0.5215(4) 0.7079(2) 0.2384(3)
H26 H 0.4559 0.7189 0.2187
C46 C 0.6813(5) 0.7040(2) 0.2794(4)
H27 H 0.7490 0.7120 0.2946
C47 C 0.6463(5) 0.6616(2) 0.2823(4)
H28 H 0.6847 0.6357 0.2984
C48 C 0.4740(5) 0.62794(19) 0.2471(3)
H29 H 0.4930 0.6038 0.2195
H30 H 0.4072 0.6380 0.2145
C49 C 0.4688(4) 0.60962(17) 0.3235(3)
C50 C 0.3993(5) 0.5773(2) 0.3189(3)
H31 H 0.3586 0.5666 0.2700
C51 C 0.3880(5) 0.5601(2) 0.3855(3)
H32 H 0.3400 0.5378 0.3798
C52 C 0.4436(4) 0.57421(17) 0.4589(3)
C53 C 0.5149(4) 0.60685(19) 0.4633(3)
H33 H 0.5558 0.6174 0.5122
C54 C 0.5268(4) 0.62416(19) 0.3971(3)
H34 H 0.5753 0.6462 0.4024
C55 C 1.4454(4) 0.6765(2) 0.9295(3)
H35 H 1.4377 0.6650 0.8803
C56 C 1.4580(7) 0.7231(3) 1.0211(4)
H36 H 1.4601 0.7492 1.0495
C57 C 1.4652(8) 0.6807(3) 1.0475(4)
H37 H 1.4756 0.6729 1.0992
C58 C 1.4371(6) 0.7571(2) 0.8901(4)
H38 H 1.4734 0.7492 0.8558
H39 H 1.4699 0.7832 0.9199
C59 C 1.3325(4) 0.76980(18) 0.8406(3)
C60 C 1.2750(5) 0.73889(16) 0.7858(5)
H40 H 1.3004 0.7103 0.7836
C61 C 1.1796(5) 0.75067(19) 0.7343(4)
H41 H 1.1412 0.7300 0.6976
C62 C 1.1417(4) 0.7933(2) 0.7375(3)
C63 C 1.1992(4) 0.82425(14) 0.7923(3)
H42 H 1.1738 0.8528 0.7945
C64 C 1.2946(4) 0.81248(16) 0.8438(3)
H43 H 1.3330 0.8332 0.8805
C65 C 0.6859(4) 0.8076(2) 0.3943(4)
H44 H 0.6753 0.7773 0.4009
C66 C 0.6983(7) 0.8700(3) 0.3436(5)
H45 H 0.6981 0.8921 0.3074
C67 C 0.7186(8) 0.8775(3) 0.4202(5)
H46 H 0.7350 0.9048 0.4462
C68 C 0.7269(6) 0.8286(3) 0.5338(4)
H47 H 0.6904 0.8016 0.5369
H48 H 0.6987 0.8531 0.5545
C69 C 0.8362(6) 0.8228(2) 0.5850(4)
C70 C 0.9151(7) 0.8180(4) 0.5579(5)
H49 H 0.9018 0.8211 0.5044
C71 C 1.0137(6) 0.8087(3) 0.6066(5)
H50 H 1.0641 0.8050 0.5854
C72 C 1.0361(7) 0.8051(2) 0.6854(5)
C73 C 0.9585(9) 0.8093(4) 0.7114(5)
H51 H 0.9714 0.8063 0.7648
C74 C 0.8603(8) 0.8179(4) 0.6618(5)
H52 H 0.8098 0.8202 0.6832
F1 F 1.0005(3) 0.42844(11) 1.1279(2)
F2 F 0.9568(2) 0.42771(11) 1.2297(2)
F3 F 1.1099(2) 0.41698(11) 1.2414(2)
F4 F 1.0594(2) 0.48757(12) 1.34648(18)
F5 F 1.1969(2) 0.48470(11) 1.32364(18)
F6 F 1.1178(2) 0.54699(12) 1.31049(17)
F7 F 0.9663(3) 0.81608(14) -0.0886(2)
F8 F 0.8672(3) 0.87283(15) -0.1194(2)
F9 F 1.0108(3) 0.87605(14) -0.1333(2)
F10 F 0.9445(3) 0.95062(12) -0.0544(2)
F11 F 1.1013(3) 0.93940(12) -0.0284(2)
F12 F 1.0456(3) 0.94806(11) 0.0649(2)
Co1_2 Co 1.44959(5) 0.58441(2) 1.00427(4)
Co2_2 Co 1.61212(6) 0.79841(3) 0.21882(4)
N5_2 N 0.4555(3) 0.65172(16) 0.9907(3)
O4_2 O 0.3920(3) 0.54932(15) 1.0720(2)
O8_2 O 0.4775(3) 0.80783(15) 0.1340(3)
loop_
_geom_bond_atom_site_label_1
_geom_bond_atom_site_label_2
_geom_bond_site_symmetry_1
_geom_bond_site_symmetry_2
Co1 N1 1_555 1_555
Co2 N3 1_555 1_555
N1 C35 1_555 1_555
N2 C35 1_555 1_555
N3 C45 1_555 1_555
N4 C45 1_555 1_555
N5 C55 1_555 1_555
N6 C55 1_555 1_555
N7 Co2 1_555 1_555
N8 C65 1_555 1_555
O1 C1 1_555 1_555
O2 Co1 1_555 1_555
O3 C8 1_555 1_555
O4 C8 1_555 1_555
O5 Co2 1_555 1_555
O6 C18 1_555 1_555
O7 C25 1_555 1_555
O8 C25 1_555 1_555
C1 O2 1_555 1_555
C2 C1 1_555 1_555
C3 C2 1_555 1_555
H1 C3 1_555 1_555
C4 C3 1_555 1_555
H2 C4 1_555 1_555
C5 C4 1_555 1_555
C6 C5 1_555 1_555
H3 C6 1_555 1_555
C7 C2 1_555 1_555
H4 C7 1_555 1_555
C8 C9 1_555 1_555
C9 C10 1_555 1_555
C10 H5 1_555 1_555
C11 C10 1_555 1_555
H6 C11 1_555 1_555
C12 C11 1_555 1_555
C13 C12 1_555 1_555
H7 C13 1_555 1_555
C14 C9 1_555 1_555
H8 C14 1_555 1_555
C15 C5 1_555 1_555
C16 C15 1_555 1_555
C17 C15 1_555 1_555
C18 O5 1_555 1_555
C19 C18 1_555 1_555
C20 C19 1_555 1_555
H9 C20 1_555 1_555
C21 C20 1_555 1_555
H10 C21 1_555 1_555
C22 C21 1_555 1_555
C23 C22 1_555 1_555
H11 C23 1_555 1_555
C24 C19 1_555 1_555
H12 C24 1_555 1_555
C25 C26 1_555 1_555
C26 C27 1_555 1_555
C27 H13 1_555 1_555
C28 C27 1_555 1_555
H14 C28 1_555 1_555
C29 C28 1_555 1_555
C30 C29 1_555 1_555
H15 C30 1_555 1_555
C31 C26 1_555 1_555
H16 C31 1_555 1_555
C32 C22 1_555 1_555
C33 C32 1_555 1_555
C34 C32 1_555 1_555
C35 H17 1_555 1_555
C36 N2 1_555 1_555
H18 C36 1_555 1_555
C37 N1 1_555 1_555
H19 C37 1_555 1_555
C38 N2 1_555 1_555
H20 C38 1_555 1_555
H21 C38 1_555 1_555
C39 C38 1_555 1_555
C40 C39 1_555 1_555
H22 C40 1_555 1_555
C41 C40 1_555 1_555
H23 C41 1_555 1_555
C42 C41 1_555 1_555
C43 C42 1_555 1_555
H24 C43 1_555 1_555
C44 C39 1_555 1_555
H25 C44 1_555 1_555
C45 H26 1_555 1_555
C46 N3 1_555 1_555
H27 C46 1_555 1_555
C47 N4 1_555 1_555
H28 C47 1_555 1_555
C48 N4 1_555 1_555
H29 C48 1_555 1_555
H30 C48 1_555 1_555
C49 C48 1_555 1_555
C50 C49 1_555 1_555
H31 C50 1_555 1_555
C51 C50 1_555 1_555
H32 C51 1_555 1_555
C52 C42 1_555 1_555
C53 C52 1_555 1_555
H33 C53 1_555 1_555
C54 C49 1_555 1_555
H34 C54 1_555 1_555
C55 H35 1_555 1_555
C56 N6 1_555 1_555
H36 C56 1_555 1_555
C57 N5 1_555 1_555
H37 C57 1_555 1_555
C58 N6 1_555 1_555
H38 C58 1_555 1_555
H39 C58 1_555 1_555
C59 C58 1_555 1_555
C60 C59 1_555 1_555
H40 C60 1_555 1_555
C61 C60 1_555 1_555
H41 C61 1_555 1_555
C62 C61 1_555 1_555
C63 C62 1_555 1_555
H42 C63 1_555 1_555
C64 C59 1_555 1_555
H43 C64 1_555 1_555
C65 N7 1_555 1_555
H44 C65 1_555 1_555
C66 N7 1_555 1_555
H45 C66 1_555 1_555
C67 N8 1_555 1_555
H46 C67 1_555 1_555
C68 N8 1_555 1_555
H47 C68 1_555 1_555
H48 C68 1_555 1_555
C69 C68 1_555 1_555
C70 C69 1_555 1_555
H49 C70 1_555 1_555
C71 C70 1_555 1_555
H50 C71 1_555 1_555
C72 C62 1_555 1_555
C73 C72 1_555 1_555
H51 C73 1_555 1_555
C74 C69 1_555 1_555
H52 C74 1_555 1_555
F1 C16 1_555 1_555
F2 C16 1_555 1_555
F3 C16 1_555 1_555
F4 C17 1_555 1_555
F5 C17 1_555 1_555
F6 C17 1_555 1_555
F7 C33 1_555 1_555
F8 C33 1_555 1_555
F9 C33 1_555 1_555
F10 C34 1_555 1_555
F11 C34 1_555 1_555
F12 C34 1_555 1_555
Co1_2 N5 1_555 1_555
Co2_2 O8 1_555 1_555
N5_2 Co1 1_555 1_555
O4_2 Co1 1_555 1_555
O8_2 Co2 1_555 1_555
O4 Co1_2 1_555 1_555
C6 C7 1_555 1_555
C12 C15 1_555 1_555
C13 C14 1_555 1_555
C23 C24 1_555 1_555
C29 C32 1_555 1_555
C30 C31 1_555 1_555
C36 C37 1_555 1_555
C43 C44 1_555 1_555
C46 C47 1_555 1_555
C51 C52 1_555 1_555
C53 C54 1_555 1_555
C56 C57 1_555 1_555
C63 C64 1_555 1_555
C66 C67 1_555 1_555
C71 C72 1_555 1_555
C73 C74 1_555 1_555

#END
