
#######################################################################
#
#                 Cambridge Crystallographic Data Centre
#                                CCDC 
#
#######################################################################
#
# If this CIF has been generated from an entry in the Cambridge 
# Structural Database, then it will include bibliographic, chemical, 
# crystal, experimental, refinement or atomic coordinate data resulting 
# from the CCDC's data processing and validation procedures.
#
#######################################################################

data_SIQDIG
_symmetry_cell_setting           monoclinic
_symmetry_space_group_name_H-M   'P 2/n'
_symmetry_Int_Tables_number      13
_space_group_name_Hall           '-P 2yac'
loop_
_symmetry_equiv_pos_site_id
_symmetry_equiv_pos_as_xyz
1 x,y,z
2 1/2-x,y,1/2-z
3 -x,-y,-z
4 1/2+x,-y,1/2+z
_cell_length_a                   15.7420(9)
_cell_length_b                   9.3890(5)
_cell_length_c                   22.7454(13)
_cell_angle_alpha                90
_cell_angle_beta                 94.8190(10)
_cell_angle_gamma                90
_cell_volume                     3349.92
loop_
_atom_site_label
_atom_site_type_symbol
_atom_site_fract_x
_atom_site_fract_y
_atom_site_fract_z
Cd1 Cd 0.375977(12) 0.29110(2) 0.426929(8)
O1 O 0.33665(12) 0.4076(2) 0.33288(8)
O2 O 0.46596(12) 0.4416(2) 0.37324(7)
O3 O 0.58182(10) 0.5429(2) 0.31525(7)
H1 H 0.5606 0.4997 0.3417
O4 O 0.72496(13) 0.76188(18) 0.12073(9)
H2 H 0.7482 0.7888 0.0918
O5 O 0.80847(13) 0.7482(2) 0.03040(9)
O6 O 0.82724(12) 0.5431(2) -0.01305(8)
O7 O 0.24922(14) 0.1747(2) 0.40157(10)
N1 N 0.50310(14) 0.2321(2) 0.48156(9)
N2 N 0.44087(15) 0.1010(2) 0.38113(9)
N3 N 0.10579(19) 0.1979(4) 0.39150(15)
C1 C 0.41063(17) 0.4534(3) 0.32989(11)
C2 C 0.43565(15) 0.5217(3) 0.27450(10)
C3 C 0.52263(15) 0.5600(3) 0.26896(10)
C4 C 0.54880(14) 0.6116(3) 0.21688(10)
C5 C 0.48718(15) 0.6367(3) 0.16887(10)
C6 C 0.5079(2) 0.6973(3) 0.11451(13)
H3 H 0.5635 0.7262 0.1100
C7 C 0.4465(2) 0.7131(5) 0.06896(15)
H4 H 0.4614 0.7508 0.0334
C8 C 0.3617(2) 0.6741(5) 0.07429(16)
H5 H 0.3211 0.6858 0.0425
C9 C 0.3388(2) 0.6193(5) 0.12565(13)
H6 H 0.2823 0.5940 0.1290
C10 C 0.39991(17) 0.6000(3) 0.17447(11)
C11 C 0.37757(16) 0.5415(3) 0.22743(11)
H7 H 0.3212 0.5153 0.2307
C12 C 0.64333(15) 0.6388(3) 0.21216(10)
H8 H 0.6510 0.7388 0.2032
H9 H 0.6736 0.6203 0.2503
C13 C 0.68396(14) 0.5507(3) 0.16609(10)
C14 C 0.72320(14) 0.6177(3) 0.12178(10)
C15 C 0.76033(14) 0.5394(3) 0.07670(10)
C16 C 0.80170(15) 0.6142(3) 0.02864(11)
C17 C 0.75758(15) 0.3945(3) 0.07796(10)
H10 H 0.7815 0.3433 0.0485
C18 C 0.71963(16) 0.3202(3) 0.12246(11)
C19 C 0.7164(2) 0.1693(3) 0.12393(14)
H11 H 0.7387 0.1177 0.0939
C20 C 0.6820(2) 0.0987(3) 0.16786(15)
H12 H 0.6793 -0.0003 0.1675
C21 C 0.6504(2) 0.1757(3) 0.21382(14)
H13 H 0.6283 0.1270 0.2447
C22 C 0.65127(17) 0.3203(3) 0.21437(12)
H14 H 0.6301 0.3686 0.2457
C23 C 0.68393(14) 0.3990(3) 0.16810(10)
C24 C 0.52985(18) 0.2934(3) 0.53274(11)
H15 H 0.4973 0.3668 0.5467
C25 C 0.6027(2) 0.2538(3) 0.56570(13)
H16 H 0.6202 0.3012 0.6006
C26 C 0.64931(18) 0.1432(3) 0.54629(13)
H17 H 0.6982 0.1122 0.5684
C27 C 0.62328(17) 0.0781(3) 0.49370(12)
H18 H 0.6544 0.0027 0.4799
C28 C 0.55016(16) 0.1260(3) 0.46148(11)
C29 C 0.51872(17) 0.0617(3) 0.40385(11)
C30 C 0.5675(2) -0.0356(3) 0.37502(14)
H19 H 0.6218 -0.0605 0.3911
C31 C 0.5350(3) -0.0937(4) 0.32319(15)
H20 H 0.5673 -0.1579 0.3033
C32 C 0.4547(3) -0.0576(4) 0.30016(14)
H21 H 0.4310 -0.0985 0.2653
C33 C 0.4098(2) 0.0415(3) 0.33032(13)
H22 H 0.3557 0.0679 0.3146
C34 C 0.1816(3) 0.2340(4) 0.40803(19)
H23 H 0.1866 0.3198 0.4284
C35 C 0.0949(5) 0.0866(9) 0.3483(4)
H24 H 0.1472 0.0727 0.3303
H25 H 0.0506 0.1128 0.3187
H26 H 0.0794 -0.0001 0.3671
C36 C 0.0293(3) 0.2786(6) 0.4011(3)
H27 H 0.0439 0.3569 0.4272
H28 H -0.0108 0.2179 0.4184
H29 H 0.0044 0.3144 0.3640
Cd1C Cd 0.875977(12) 0.70890(2) -0.073071(8)
O6C O 0.32724(12) 0.4569(2) 0.48695(8)
O8 O 0.2500 0.2153(4) 0.2500
loop_
_geom_bond_atom_site_label_1
_geom_bond_atom_site_label_2
_geom_bond_site_symmetry_1
_geom_bond_site_symmetry_2
Cd1 O1 1_555 1_555
O1 C1 1_555 1_555
O2 Cd1 1_555 1_555
O3 H1 1_555 1_555
O4 H2 1_555 1_555
O5 C16 1_555 1_555
O6 C16 1_555 1_555
O7 Cd1 1_555 1_555
N1 Cd1 1_555 1_555
N2 Cd1 1_555 1_555
N3 C34 1_555 1_555
C1 O2 1_555 1_555
C2 C1 1_555 1_555
C3 O3 1_555 1_555
C4 C3 1_555 1_555
C5 C4 1_555 1_555
C6 C5 1_555 1_555
H3 C6 1_555 1_555
C7 C6 1_555 1_555
H4 C7 1_555 1_555
C8 C7 1_555 1_555
H5 C8 1_555 1_555
C9 C8 1_555 1_555
H6 C9 1_555 1_555
C10 C5 1_555 1_555
C11 C2 1_555 1_555
H7 C11 1_555 1_555
C12 C4 1_555 1_555
H8 C12 1_555 1_555
H9 C12 1_555 1_555
C13 C12 1_555 1_555
C14 O4 1_555 1_555
C15 C14 1_555 1_555
C16 C15 1_555 1_555
C17 C15 1_555 1_555
H10 C17 1_555 1_555
C18 C17 1_555 1_555
C19 C18 1_555 1_555
H11 C19 1_555 1_555
C20 C19 1_555 1_555
H12 C20 1_555 1_555
C21 C20 1_555 1_555
H13 C21 1_555 1_555
C22 C21 1_555 1_555
H14 C22 1_555 1_555
C23 C13 1_555 1_555
C24 N1 1_555 1_555
H15 C24 1_555 1_555
C25 C24 1_555 1_555
H16 C25 1_555 1_555
C26 C25 1_555 1_555
H17 C26 1_555 1_555
C27 C26 1_555 1_555
H18 C27 1_555 1_555
C28 N1 1_555 1_555
C29 N2 1_555 1_555
C30 C29 1_555 1_555
H19 C30 1_555 1_555
C31 C30 1_555 1_555
H20 C31 1_555 1_555
C32 C31 1_555 1_555
H21 C32 1_555 1_555
C33 N2 1_555 1_555
H22 C33 1_555 1_555
C34 O7 1_555 1_555
H23 C34 1_555 1_555
C35 N3 1_555 1_555
H24 C35 1_555 1_555
H25 C35 1_555 1_555
H26 C35 1_555 1_555
C36 N3 1_555 1_555
H27 C36 1_555 1_555
H28 C36 1_555 1_555
H29 C36 1_555 1_555
Cd1C O6 1_555 1_555
O6C Cd1 1_555 1_555
C2 C3 1_555 1_555
C9 C10 1_555 1_555
C10 C11 1_555 1_555
C13 C14 1_555 1_555
C18 C23 1_555 1_555
C22 C23 1_555 1_555
C27 C28 1_555 1_555
C28 C29 1_555 1_555
C32 C33 1_555 1_555

#END
