
#######################################################################
#
#                 Cambridge Crystallographic Data Centre
#                                CCDC 
#
#######################################################################
#
# If this CIF has been generated from an entry in the Cambridge 
# Structural Database, then it will include bibliographic, chemical, 
# crystal, experimental, refinement or atomic coordinate data resulting 
# from the CCDC's data processing and validation procedures.
#
#######################################################################

data_SIQDEC
_symmetry_cell_setting           monoclinic
_symmetry_space_group_name_H-M   'P 2/c'
_symmetry_Int_Tables_number      13
_space_group_name_Hall           '-P 2yc'
loop_
_symmetry_equiv_pos_site_id
_symmetry_equiv_pos_as_xyz
1 x,y,z
2 -x,y,1/2-z
3 -x,-y,-z
4 x,-y,1/2+z
_cell_length_a                   12.4015(12)
_cell_length_b                   9.7313(9)
_cell_length_c                   26.458(3)
_cell_angle_alpha                90
_cell_angle_beta                 96.2890(10)
_cell_angle_gamma                90
_cell_volume                     3173.81
loop_
_atom_site_label
_atom_site_type_symbol
_atom_site_fract_x
_atom_site_fract_y
_atom_site_fract_z
Zn1 Zn 0.25695(3) 0.60711(4) 0.167277(13)
O1 O 0.28429(17) 0.7682(2) 0.12353(7)
O2 O 0.2922(2) 0.6166(2) 0.06168(8)
O3 O 0.31175(18) 0.6962(2) -0.02808(7)
H1 H 0.3022 0.6439 -0.0047
O4 O 0.41164(16) 1.0389(2) -0.18329(8)
H2 H 0.4226 1.0882 -0.2073
O5 O 0.36894(19) 1.1979(2) -0.25903(8)
O6 O 0.20892(18) 1.3024(2) -0.27230(8)
O7 O 0.0956(2) 0.5731(3) 0.13240(10)
N1 N 0.4193(2) 0.5335(3) 0.17258(9)
N2 N 0.2456(3) 0.3952(3) 0.18864(12)
N3 N -0.0527(3) 0.6001(4) 0.07475(14)
C1 C 0.3379(3) 0.3214(3) 0.18929(12)
C2 C 0.1540(4) 0.3341(5) 0.19776(19)
H3 H 0.0908 0.3859 0.1971
C3 C 0.1506(5) 0.1939(6) 0.2083(2)
H4 H 0.0877 0.1528 0.2172
C4 C 0.2437(6) 0.1181(5) 0.2051(2)
H5 H 0.2418 0.0231 0.2087
C5 C 0.3370(4) 0.1796(4) 0.19679(15)
H6 H 0.4001 0.1284 0.1960
C6 C 0.4357(3) 0.3995(3) 0.18114(11)
C7 C 0.5048(3) 0.6121(4) 0.16528(14)
H7 H 0.4940 0.7054 0.1592
C8 C 0.6088(3) 0.5594(5) 0.16651(15)
H8 H 0.6667 0.6168 0.1616
C9 C 0.6252(4) 0.4246(5) 0.17492(16)
H9 H 0.6945 0.3879 0.1754
C10 C 0.5395(4) 0.3409(4) 0.18286(13)
H10 H 0.5499 0.2476 0.1892
C11 C 0.2992(2) 0.7362(3) 0.07807(12)
C12 C 0.3300(2) 0.8258(3) -0.00940(10)
C13 C 0.3502(2) 0.9304(3) -0.04232(10)
C14 C 0.3686(2) 1.0653(3) -0.02291(11)
C15 C 0.3975(2) 1.1767(3) -0.05318(12)
H11 H 0.4053 1.1620 -0.0873
C16 C 0.4141(3) 1.3058(3) -0.03315(13)
H12 H 0.4330 1.3771 -0.0539
C17 C 0.4029(3) 1.3321(3) 0.01821(13)
H13 H 0.4123 1.4205 0.0313
C18 C 0.3781(3) 1.2261(3) 0.04862(12)
H14 H 0.3720 1.2430 0.0828
C19 C 0.3615(2) 1.0918(3) 0.02963(11)
C20 C 0.3382(2) 0.9822(3) 0.06131(11)
H15 H 0.3327 0.9994 0.0955
C21 C 0.3235(2) 0.8511(3) 0.04335(11)
C22 C 0.3512(2) 0.8983(3) -0.09849(10)
H16 H 0.4234 0.9160 -0.1078
H17 H 0.3366 0.8011 -0.1037
C23 C 0.2701(2) 0.9792(3) -0.13414(10)
C24 C 0.3053(2) 1.0503(3) -0.17427(10)
C25 C 0.2340(2) 1.1396(3) -0.20574(10)
C26 C 0.2747(3) 1.2184(3) -0.24829(11)
C27 C 0.1291(3) 1.1515(3) -0.19555(11)
H18 H 0.0832 1.2117 -0.2149
C28 C 0.0881(3) 1.0761(3) -0.15683(12)
C29 C -0.0218(3) 1.0900(4) -0.14690(15)
H19 H -0.0673 1.1505 -0.1663
C30 C -0.0610(3) 1.0164(5) -0.10971(17)
H20 H -0.1326 1.0276 -0.1030
C31 C 0.0072(3) 0.9225(5) -0.08107(16)
H21 H -0.0206 0.8704 -0.0560
C32 C 0.1124(3) 0.9065(4) -0.08925(13)
H22 H 0.1552 0.8426 -0.0702
C33 C 0.1586(2) 0.9863(3) -0.12674(11)
C34 C 0.0503(3) 0.6175(5) 0.09249(18)
H23 H 0.0925 0.6690 0.0725
C35 C -0.1241(4) 0.5311(7) 0.1050(2)
H24 H -0.0872 0.5138 0.1382
H25 H -0.1467 0.4455 0.0892
H26 H -0.1865 0.5876 0.1080
C36 C -0.1017(5) 0.6658(9) 0.0284(3)
H27 H -0.1516 0.7353 0.0368
H28 H -0.1397 0.5983 0.0068
H29 H -0.0460 0.7072 0.0109
Zn1C Zn 0.25695(3) 1.39289(4) -0.332723(13)
O6C O 0.20892(18) 0.6976(2) 0.22770(8)
loop_
_geom_bond_atom_site_label_1
_geom_bond_atom_site_label_2
_geom_bond_site_symmetry_1
_geom_bond_site_symmetry_2
Zn1 O1 1_555 1_555
O1 C11 1_555 1_555
O2 C11 1_555 1_555
O3 H1 1_555 1_555
O4 H2 1_555 1_555
O5 C26 1_555 1_555
O6 C26 1_555 1_555
O7 Zn1 1_555 1_555
N1 Zn1 1_555 1_555
N2 Zn1 1_555 1_555
N3 C34 1_555 1_555
C1 N2 1_555 1_555
C2 N2 1_555 1_555
H3 C2 1_555 1_555
C3 C2 1_555 1_555
H4 C3 1_555 1_555
C4 C3 1_555 1_555
H5 C4 1_555 1_555
C5 C1 1_555 1_555
H6 C5 1_555 1_555
C6 N1 1_555 1_555
C7 N1 1_555 1_555
H7 C7 1_555 1_555
C8 C7 1_555 1_555
H8 C8 1_555 1_555
C9 C8 1_555 1_555
H9 C9 1_555 1_555
C10 C6 1_555 1_555
H10 C10 1_555 1_555
C11 C21 1_555 1_555
C12 O3 1_555 1_555
C13 C12 1_555 1_555
C14 C13 1_555 1_555
C15 C14 1_555 1_555
H11 C15 1_555 1_555
C16 C15 1_555 1_555
H12 C16 1_555 1_555
C17 C16 1_555 1_555
H13 C17 1_555 1_555
C18 C17 1_555 1_555
H14 C18 1_555 1_555
C19 C14 1_555 1_555
C20 C19 1_555 1_555
H15 C20 1_555 1_555
C21 C12 1_555 1_555
C22 C13 1_555 1_555
H16 C22 1_555 1_555
H17 C22 1_555 1_555
C23 C22 1_555 1_555
C24 O4 1_555 1_555
C25 C24 1_555 1_555
C26 C25 1_555 1_555
C27 C25 1_555 1_555
H18 C27 1_555 1_555
C28 C27 1_555 1_555
C29 C28 1_555 1_555
H19 C29 1_555 1_555
C30 C29 1_555 1_555
H20 C30 1_555 1_555
C31 C30 1_555 1_555
H21 C31 1_555 1_555
C32 C31 1_555 1_555
H22 C32 1_555 1_555
C33 C23 1_555 1_555
C34 O7 1_555 1_555
H23 C34 1_555 1_555
C35 N3 1_555 1_555
H24 C35 1_555 1_555
H25 C35 1_555 1_555
H26 C35 1_555 1_555
C36 N3 1_555 1_555
H27 C36 1_555 1_555
H28 C36 1_555 1_555
H29 C36 1_555 1_555
Zn1C O6 1_555 1_555
O6C Zn1 1_555 1_555
C1 C6 1_555 1_555
C4 C5 1_555 1_555
C9 C10 1_555 1_555
C18 C19 1_555 1_555
C20 C21 1_555 1_555
C23 C24 1_555 1_555
C28 C33 1_555 1_555
C32 C33 1_555 1_555

#END
