
#######################################################################
#
#                 Cambridge Crystallographic Data Centre
#                                CCDC 
#
#######################################################################
#
# If this CIF has been generated from an entry in the Cambridge 
# Structural Database, then it will include bibliographic, chemical, 
# crystal, experimental, refinement or atomic coordinate data resulting 
# from the CCDC's data processing and validation procedures.
#
#######################################################################

data_SIQFAA
_symmetry_cell_setting           monoclinic
_symmetry_space_group_name_H-M   'P 21/c'
_symmetry_Int_Tables_number      14
_space_group_name_Hall           '-P 2ybc'
loop_
_symmetry_equiv_pos_site_id
_symmetry_equiv_pos_as_xyz
1 x,y,z
2 -x,1/2+y,1/2-z
3 -x,-y,-z
4 x,1/2-y,1/2+z
_cell_length_a                   15.913(2)
_cell_length_b                   10.4978(16)
_cell_length_c                   22.979(3)
_cell_angle_alpha                90
_cell_angle_beta                 102.159(2)
_cell_angle_gamma                90
_cell_volume                     3752.56
loop_
_atom_site_label
_atom_site_type_symbol
_atom_site_fract_x
_atom_site_fract_y
_atom_site_fract_z
Zn1 Zn 0.31930(4) 0.78262(5) 0.50431(2)
O1 O 0.2811(2) 0.7421(4) 0.39854(18)
O2 O 0.2986(2) 0.9308(4) 0.44107(16)
O3 O 0.2801(3) 1.1325(3) 0.37956(15)
H1 H 0.2902 1.0863 0.4090
O4 O 0.1726(2) 1.4244(4) 0.17420(18)
H2 H 0.1622 1.4772 0.1473
O5 O 0.1995(2) 1.5708(3) 0.09083(16)
O6 O 0.3322(2) 1.5940(3) 0.07558(14)
O7 O 0.1911(2) 0.7517(4) 0.50607(16)
H3 H 0.1605 0.7582 0.4709
H4 H 0.1919 0.8181 0.5282
N1 N 0.3593(3) 0.6130(4) 0.55296(18)
N2 N 0.4537(3) 0.7706(3) 0.50183(17)
C1 C 0.3125(4) 0.5367(5) 0.5800(3)
H5 H 0.2533 0.5486 0.5727
C2 C 0.3490(4) 0.4397(6) 0.6188(3)
H6 H 0.3143 0.3892 0.6373
C3 C 0.4347(4) 0.4191(5) 0.6292(3)
H7 H 0.4596 0.3557 0.6556
C4 C 0.4854(3) 0.4936(5) 0.6003(2)
C5 C 0.5759(4) 0.4754(5) 0.6076(2)
H8 H 0.6028 0.4111 0.6325
C6 C 0.6226(3) 0.5492(5) 0.5791(2)
H9 H 0.6812 0.5342 0.5838
C7 C 0.5835(3) 0.6512(5) 0.5413(2)
C8 C 0.6286(4) 0.7331(6) 0.5108(3)
H10 H 0.6870 0.7206 0.5128
C9 C 0.5870(4) 0.8305(6) 0.4783(3)
H11 H 0.6171 0.8868 0.4589
C10 C 0.4992(4) 0.8461(5) 0.4740(2)
H12 H 0.4713 0.9122 0.4508
C11 C 0.4958(3) 0.6732(4) 0.5344(2)
C12 C 0.4455(3) 0.5908(4) 0.5640(2)
C13 C 0.2795(3) 0.8599(5) 0.3945(3)
C14 C 0.2534(3) 0.9248(5) 0.3350(2)
C15 C 0.2528(3) 1.0605(5) 0.3301(2)
C16 C 0.2273(3) 1.1215(5) 0.2756(2)
C17 C 0.1937(3) 1.0461(5) 0.2248(2)
C18 C 0.1529(3) 1.1015(6) 0.1695(2)
H13 H 0.1510 1.1896 0.1652
C19 C 0.1165(4) 1.0249(7) 0.1225(2)
H14 H 0.0891 1.0623 0.0868
C20 C 0.1194(4) 0.8929(7) 0.1268(3)
H15 H 0.0941 0.8431 0.0943
C21 C 0.1587(4) 0.8373(6) 0.1779(3)
H16 H 0.1624 0.7489 0.1798
C22 C 0.1948(3) 0.9106(5) 0.2293(2)
C23 C 0.2268(3) 0.8539(5) 0.2845(2)
H17 H 0.2301 0.7656 0.2870
C24 C 0.2313(3) 1.2667(5) 0.2733(2)
H18 H 0.2483 1.2981 0.3138
H19 H 0.1738 1.2982 0.2573
C25 C 0.2920(3) 1.3251(4) 0.2366(2)
C26 C 0.2595(3) 1.4019(4) 0.1889(2)
C27 C 0.3135(3) 1.4594(4) 0.1538(2)
C28 C 0.2791(3) 1.5474(4) 0.1036(2)
C29 C 0.4003(3) 1.4369(4) 0.1693(2)
H20 H 0.4358 1.4717 0.1461
C30 C 0.4370(3) 1.3638(4) 0.2186(2)
C31 C 0.5271(3) 1.3476(5) 0.2355(3)
H21 H 0.5625 1.3834 0.2125
C32 C 0.5624(4) 1.2800(5) 0.2852(3)
H22 H 0.6217 1.2694 0.2959
C33 C 0.5100(4) 1.2271(5) 0.3198(3)
H23 H 0.5349 1.1828 0.3542
C34 C 0.4225(3) 1.2382(5) 0.3046(2)
H24 H 0.3891 1.2001 0.3284
C35 C 0.3819(3) 1.3065(4) 0.2534(2)
Zn1C Zn 0.31930(4) 1.71738(5) 0.00431(2)
O6C O 0.3322(2) 0.9060(3) 0.57558(14)
C36 C 0.0989(14) 0.186(2) 0.5048(6)
H25 H 0.1149 0.2690 0.5209
H26 H 0.1428 0.1257 0.5214
H27 H 0.0455 0.1611 0.5147
C37 C 0.0467(9) 0.0874(13) 0.4094(8)
H28 H 0.0282 0.1142 0.3687
H29 H -0.0024 0.0625 0.4248
H30 H 0.0852 0.0164 0.4113
C38 C 0.1219(7) 0.2910(10) 0.4172(6)
H31 H 0.1145 0.2894 0.3760
N3 N 0.0893(4) 0.1889(7) 0.4435(4)
O8 O 0.1575(6) 0.3783(9) 0.4418(6)
C39 C 0.9847(6) 0.2620(9) 0.2149(5)
H32 H 0.9982 0.3273 0.1891
H33 H 1.0369 0.2282 0.2385
H34 H 0.9503 0.2975 0.2405
C40 C 0.9253(7) 0.0547(10) 0.2123(5)
H35 H 0.8832 0.0011 0.1878
H36 H 0.9051 0.0794 0.2472
H37 H 0.9784 0.0090 0.2238
C41 C 0.9102(5) 0.1763(8) 0.1214(3)
H38 H 0.8795 0.1101 0.0998
N4 N 0.9384(3) 0.1632(5) 0.1802(2)
O9 O 0.9240(3) 0.2735(5) 0.0951(2)
loop_
_geom_bond_atom_site_label_1
_geom_bond_atom_site_label_2
_geom_bond_site_symmetry_1
_geom_bond_site_symmetry_2
Zn1 O2 1_555 1_555
O1 C13 1_555 1_555
O2 C13 1_555 1_555
O3 H1 1_555 1_555
O4 H2 1_555 1_555
O5 C28 1_555 1_555
O6 C28 1_555 1_555
O7 Zn1 1_555 1_555
H3 O7 1_555 1_555
H4 O7 1_555 1_555
N1 Zn1 1_555 1_555
N2 Zn1 1_555 1_555
C1 N1 1_555 1_555
H5 C1 1_555 1_555
C2 C1 1_555 1_555
H6 C2 1_555 1_555
C3 C2 1_555 1_555
H7 C3 1_555 1_555
C4 C3 1_555 1_555
C5 C4 1_555 1_555
H8 C5 1_555 1_555
C6 C5 1_555 1_555
H9 C6 1_555 1_555
C7 C6 1_555 1_555
C8 C7 1_555 1_555
H10 C8 1_555 1_555
C9 C8 1_555 1_555
H11 C9 1_555 1_555
C10 N2 1_555 1_555
H12 C10 1_555 1_555
C11 N2 1_555 1_555
C12 N1 1_555 1_555
C13 C14 1_555 1_555
C14 C15 1_555 1_555
C15 O3 1_555 1_555
C16 C15 1_555 1_555
C17 C16 1_555 1_555
C18 C17 1_555 1_555
H13 C18 1_555 1_555
C19 C18 1_555 1_555
H14 C19 1_555 1_555
C20 C19 1_555 1_555
H15 C20 1_555 1_555
C21 C20 1_555 1_555
H16 C21 1_555 1_555
C22 C17 1_555 1_555
C23 C14 1_555 1_555
H17 C23 1_555 1_555
C24 C16 1_555 1_555
H18 C24 1_555 1_555
H19 C24 1_555 1_555
C25 C24 1_555 1_555
C26 O4 1_555 1_555
C27 C26 1_555 1_555
C28 C27 1_555 1_555
C29 C27 1_555 1_555
H20 C29 1_555 1_555
C30 C29 1_555 1_555
C31 C30 1_555 1_555
H21 C31 1_555 1_555
C32 C31 1_555 1_555
H22 C32 1_555 1_555
C33 C32 1_555 1_555
H23 C33 1_555 1_555
C34 C33 1_555 1_555
H24 C34 1_555 1_555
C35 C25 1_555 1_555
C36 H25 1_555 1_555
H26 C36 1_555 1_555
H27 C36 1_555 1_555
C37 H28 1_555 1_555
H29 C37 1_555 1_555
H30 C37 1_555 1_555
C38 H31 1_555 1_555
N3 C36 1_555 1_555
O8 C38 1_555 1_555
C39 H32 1_555 1_555
H33 C39 1_555 1_555
H34 C39 1_555 1_555
C40 H35 1_555 1_555
H36 C40 1_555 1_555
H37 C40 1_555 1_555
C41 H38 1_555 1_555
N4 C39 1_555 1_555
O9 C41 1_555 1_555
Zn1C O6 1_555 1_555
O6C Zn1 1_555 1_555
C4 C12 1_555 1_555
C7 C11 1_555 1_555
C9 C10 1_555 1_555
C11 C12 1_555 1_555
C21 C22 1_555 1_555
C22 C23 1_555 1_555
C25 C26 1_555 1_555
C30 C35 1_555 1_555
C34 C35 1_555 1_555
C37 N3 1_555 1_555
C38 N3 1_555 1_555
C40 N4 1_555 1_555
C41 N4 1_555 1_555

#END
