
#######################################################################
#
#                 Cambridge Crystallographic Data Centre
#                                CCDC 
#
#######################################################################
#
# If this CIF has been generated from an entry in the Cambridge 
# Structural Database, then it will include bibliographic, chemical, 
# crystal, experimental, refinement or atomic coordinate data resulting 
# from the CCDC's data processing and validation procedures.
#
#######################################################################

data_SIQFEE01
_symmetry_cell_setting           monoclinic
_symmetry_space_group_name_H-M   'P 2/c'
_symmetry_Int_Tables_number      13
_space_group_name_Hall           '-P 2yc'
loop_
_symmetry_equiv_pos_site_id
_symmetry_equiv_pos_as_xyz
1 x,y,z
2 -x,y,1/2-z
3 -x,-y,-z
4 x,-y,1/2+z
_cell_length_a                   11.6924(7)
_cell_length_b                   15.5292(9)
_cell_length_c                   19.1580(9)
_cell_angle_alpha                90
_cell_angle_beta                 109.159(3)
_cell_angle_gamma                90
_cell_volume                     3285.91
loop_
_atom_site_label
_atom_site_type_symbol
_atom_site_fract_x
_atom_site_fract_y
_atom_site_fract_z
Cd1 Cd 0.59709(3) 0.717105(19) 0.852904(16)
O1 O 0.7068(3) 0.8169(3) 0.8174(2)
O2 O 0.5930(3) 0.7611(2) 0.7139(2)
O3 O 0.8831(3) 0.9170(2) 0.81884(16)
H1 H 0.8414 0.8863 0.8356
O4 O 0.7566(3) 0.7008(2) 0.97224(17)
O5 O 0.5992(3) 0.7833(2) 0.96182(19)
O6 O 0.9094(3) 0.6685(2) 1.09720(17)
H2 H 0.8757 0.6669 1.0523
N1 N 0.6622(3) 0.5879(3) 0.8182(2)
N2 N 0.4872(4) 0.6040(3) 0.8817(2)
C1 C 0.8894(4) 0.9709(3) 0.7065(2)
C2 C 0.8327(4) 0.9205(3) 0.7440(2)
C3 C 0.7254(4) 0.8739(3) 0.7072(2)
C4 C 0.6718(4) 0.8849(3) 0.6323(3)
H3 H 0.6001 0.8558 0.6081
C5 C 0.7223(4) 0.9386(3) 0.5914(2)
C6 C 0.6638(5) 0.9536(4) 0.5151(3)
H4 H 0.5893 0.9279 0.4914
C7 C 0.7142(6) 1.0044(4) 0.4761(3)
H5 H 0.6728 1.0156 0.4265
C8 C 0.8283(6) 1.0404(4) 0.5101(3)
H6 H 0.8646 1.0726 0.4822
C9 C 0.8871(5) 1.0289(3) 0.5835(3)
H7 H 0.9629 1.0538 0.6050
C10 C 0.8356(4) 0.9799(3) 0.6280(2)
C11 C 1.0000 1.0221(4) 0.7500
H8 H 1.023(4) 1.058(3) 0.714(2)
C12 C 0.6699(4) 0.8143(3) 0.7474(3)
C13 C 0.8895(4) 0.7340(3) 1.2033(2)
C14 C 0.8483(4) 0.7226(3) 1.1281(2)
C15 C 0.7428(4) 0.7653(3) 1.0816(2)
C16 C 0.6824(4) 0.8200(3) 1.1129(2)
H9 H 0.6151 0.8494 1.0826
C17 C 0.7190(4) 0.8331(3) 1.1894(2)
C18 C 0.6535(5) 0.8881(4) 1.2209(3)
H10 H 0.5867 0.9177 1.1903
C19 C 0.6860(5) 0.8986(4) 1.2948(3)
H11 H 0.6416 0.9349 1.3147
C20 C 0.7874(5) 0.8543(4) 1.3415(3)
H12 H 0.8098 0.8618 1.3924
C21 C 0.8531(4) 0.8003(3) 1.3129(3)
H13 H 0.9190 0.7709 1.3448
C22 C 0.8228(4) 0.7882(3) 1.2356(2)
C23 C 1.0000 0.6841(5) 1.2500
H14 H 0.977(4) 0.651(3) 1.282(2)
C24 C 0.6963(4) 0.7499(3) 1.0004(2)
C25 C 0.7458(5) 0.5800(4) 0.7871(4)
H15 H 0.7792 0.6298 0.7748
C26 C 0.7874(7) 0.5010(5) 0.7714(5)
H16 H 0.8473 0.4982 0.7494
C27 C 0.7393(8) 0.4281(5) 0.7887(6)
H17 H 0.7651 0.3747 0.7778
C28 C 0.6513(6) 0.4331(4) 0.8227(5)
C29 C 0.5962(9) 0.3595(5) 0.8437(6)
H18 H 0.6226 0.3048 0.8366
C30 C 0.5083(9) 0.3675(5) 0.8732(7)
H19 H 0.4728 0.3181 0.8845
C31 C 0.4671(7) 0.4499(4) 0.8880(5)
C32 C 0.3755(7) 0.4616(5) 0.9173(6)
H20 H 0.3376 0.4140 0.9295
C33 C 0.3399(7) 0.5420(6) 0.9286(5)
H21 H 0.2779 0.5501 0.9483
C34 C 0.3984(6) 0.6124(4) 0.9099(4)
H22 H 0.3740 0.6676 0.9176
C35 C 0.5209(5) 0.5241(3) 0.8695(3)
C36 C 0.6145(5) 0.5159(3) 0.8362(3)
Cd1A Cd 1.40291(3) 0.717105(19) 0.647096(16)
Cd1A_2 Cd 0.40291(3) 0.717105(19) 0.647096(16)
Cd1_2 Cd 1.59709(3) 0.717105(19) 0.852904(16)
Cd1A_3 Cd 1.40291(3) 0.717105(19) 1.647096(16)
O1A O 1.2932(3) 0.8169(3) 0.6826(2)
O2A O 1.4070(3) 0.7611(2) 0.7861(2)
O2A_2 O 0.4070(3) 0.7611(2) 0.7861(2)
O2_2 O 1.5930(3) 0.7611(2) 0.7139(2)
O3A O 1.1169(3) 0.9170(2) 0.68116(16)
H1A H 1.1586 0.8863 0.6644
O4A O 1.2434(3) 0.7008(2) 1.52776(17)
O4A_2 O 1.2434(3) 0.7008(2) 0.52776(17)
O5A O 1.4008(3) 0.7833(2) 1.53818(19)
O5A_2 O 1.4008(3) 0.7833(2) 0.53818(19)
O6A O 1.0906(3) 0.6685(2) 1.40280(17)
H2A H 1.1243 0.6669 1.4477
N1A N 1.3378(3) 0.5879(3) 0.6818(2)
N2A N 1.5128(4) 0.6040(3) 0.6183(2)
C1A C 1.1106(4) 0.9709(3) 0.7935(2)
C2A C 1.1673(4) 0.9205(3) 0.7560(2)
C3A C 1.2746(4) 0.8739(3) 0.7928(2)
C4A C 1.3282(4) 0.8849(3) 0.8677(3)
H3A H 1.3999 0.8558 0.8919
C5A C 1.2777(4) 0.9386(3) 0.9086(2)
C6A C 1.3362(5) 0.9536(4) 0.9849(3)
H4A H 1.4107 0.9279 1.0086
C7A C 1.2858(6) 1.0044(4) 1.0239(3)
H5A H 1.3272 1.0156 1.0735
C8A C 1.1717(6) 1.0404(4) 0.9899(3)
H6A H 1.1354 1.0726 1.0178
C9A C 1.1129(5) 1.0289(3) 0.9165(3)
H7A H 1.0371 1.0538 0.8950
C10A C 1.1644(4) 0.9799(3) 0.8720(2)
H8A H 0.977(4) 1.058(3) 0.786(2)
C12A C 1.3301(4) 0.8143(3) 0.7526(3)
C13A C 1.1105(4) 0.7340(3) 1.2967(2)
C14A C 1.1517(4) 0.7226(3) 1.3719(2)
C15A C 1.2572(4) 0.7653(3) 1.4184(2)
C16A C 1.3176(4) 0.8200(3) 1.3871(2)
H9A H 1.3849 0.8494 1.4174
C17A C 1.2810(4) 0.8331(3) 1.3106(2)
C18A C 1.3465(5) 0.8881(4) 1.2791(3)
H10A H 1.4133 0.9177 1.3097
C19A C 1.3140(5) 0.8986(4) 1.2052(3)
H11A H 1.3584 0.9349 1.1853
C20A C 1.2126(5) 0.8543(4) 1.1585(3)
H12A H 1.1902 0.8618 1.1076
C21A C 1.1469(4) 0.8003(3) 1.1871(3)
H13A H 1.0810 0.7709 1.1552
C22A C 1.1772(4) 0.7882(3) 1.2644(2)
H14A H 1.023(4) 0.651(3) 1.218(2)
C24A C 1.3037(4) 0.7499(3) 1.4996(2)
C25A C 1.2542(5) 0.5800(4) 0.7129(4)
H15A H 1.2208 0.6298 0.7252
C26A C 1.2126(7) 0.5010(5) 0.7286(5)
H16A H 1.1527 0.4982 0.7506
C27A C 1.2607(8) 0.4281(5) 0.7113(6)
H17A H 1.2349 0.3747 0.7222
C28A C 1.3487(6) 0.4331(4) 0.6773(5)
C29A C 1.4038(9) 0.3595(5) 0.6563(6)
H18A H 1.3774 0.3048 0.6634
C30A C 1.4917(9) 0.3675(5) 0.6268(7)
H19A H 1.5272 0.3181 0.6155
C31A C 1.5329(7) 0.4499(4) 0.6120(5)
C32A C 1.6245(7) 0.4616(5) 0.5827(6)
H20A H 1.6624 0.4140 0.5705
C33A C 1.6601(7) 0.5420(6) 0.5714(5)
H21A H 1.7221 0.5501 0.5517
C34A C 1.6016(6) 0.6124(4) 0.5901(4)
H22A H 1.6260 0.6676 0.5824
C35A C 1.4791(5) 0.5241(3) 0.6305(3)
C36A C 1.3855(5) 0.5159(3) 0.6638(3)
O7 O 0.0561(13) 0.6534(13) 0.8269(12)
N3 N 0.0501(13) 0.6981(11) 0.9129(9)
C37 C 0.067(2) 0.7309(13) 0.8526(11)
C38 C 0.0685(19) 0.7724(10) 0.9583(9)
C39 C 0.037(2) 0.6154(12) 0.9464(13)
loop_
_geom_bond_atom_site_label_1
_geom_bond_atom_site_label_2
_geom_bond_site_symmetry_1
_geom_bond_site_symmetry_2
Cd1 O1 1_555 1_555
O1 C12 1_555 1_555
O2 Cd1 1_555 1_555
O3 H1 1_555 1_555
O4 Cd1 1_555 1_555
O5 Cd1 1_555 1_555
O6 H2 1_555 1_555
O7 C37 1_555 1_555
N1 Cd1 1_555 1_555
N2 Cd1 1_555 1_555
N3 C37 1_555 1_555
C1 C2 1_555 1_555
C2 O3 1_555 1_555
C3 C2 1_555 1_555
C4 C3 1_555 1_555
H3 C4 1_555 1_555
C5 C4 1_555 1_555
C6 C5 1_555 1_555
H4 C6 1_555 1_555
C7 C6 1_555 1_555
H5 C7 1_555 1_555
C8 C7 1_555 1_555
H6 C8 1_555 1_555
C9 C8 1_555 1_555
H7 C9 1_555 1_555
C10 C1 1_555 1_555
C11 C1 1_555 1_555
H8 C11 1_555 1_555
C12 O2 1_555 1_555
C13 C14 1_555 1_555
C14 O6 1_555 1_555
C15 C14 1_555 1_555
C16 C15 1_555 1_555
H9 C16 1_555 1_555
C17 C16 1_555 1_555
C18 C17 1_555 1_555
H10 C18 1_555 1_555
C19 C18 1_555 1_555
H11 C19 1_555 1_555
C20 C19 1_555 1_555
H12 C20 1_555 1_555
C21 C20 1_555 1_555
H13 C21 1_555 1_555
C22 C13 1_555 1_555
C23 C13 1_555 1_555
H14 C23 1_555 1_555
C24 O4 1_555 1_555
C25 N1 1_555 1_555
H15 C25 1_555 1_555
C26 C25 1_555 1_555
H16 C26 1_555 1_555
C27 C26 1_555 1_555
H17 C27 1_555 1_555
C28 C27 1_555 1_555
C29 C28 1_555 1_555
H18 C29 1_555 1_555
C30 C29 1_555 1_555
H19 C30 1_555 1_555
C31 C30 1_555 1_555
C32 C31 1_555 1_555
H20 C32 1_555 1_555
C33 C32 1_555 1_555
H21 C33 1_555 1_555
C34 N2 1_555 1_555
H22 C34 1_555 1_555
C35 N2 1_555 1_555
C36 N1 1_555 1_555
C38 N3 1_555 1_555
C39 N3 1_555 1_555
Cd1A O1A 1_555 1_555
Cd1A_2 O2 1_555 1_555
Cd1_2 O2A 1_555 1_555
Cd1A_3 O4A 1_555 1_555
O1A C12A 1_555 1_555
O2A Cd1A 1_555 1_555
O2A_2 Cd1 1_555 1_555
O2_2 Cd1A 1_555 1_555
O3A H1A 1_555 1_555
O4A C24A 1_555 1_555
O4A_2 Cd1A 1_555 1_555
O5A Cd1A_3 1_555 1_555
O5A_2 Cd1A 1_555 1_555
O6A H2A 1_555 1_555
N1A Cd1A 1_555 1_555
N2A Cd1A 1_555 1_555
C1A C11 1_555 1_555
C2A O3A 1_555 1_555
C3A C2A 1_555 1_555
C4A C3A 1_555 1_555
H3A C4A 1_555 1_555
C5A C4A 1_555 1_555
C6A C5A 1_555 1_555
H4A C6A 1_555 1_555
C7A C6A 1_555 1_555
H5A C7A 1_555 1_555
C8A C7A 1_555 1_555
H6A C8A 1_555 1_555
C9A C8A 1_555 1_555
H7A C9A 1_555 1_555
C10A C1A 1_555 1_555
H8A C11 1_555 1_555
C12A O2A 1_555 1_555
C13A C23 1_555 1_555
C14A O6A 1_555 1_555
C15A C14A 1_555 1_555
C16A C15A 1_555 1_555
H9A C16A 1_555 1_555
C17A C16A 1_555 1_555
C18A C17A 1_555 1_555
H10A C18A 1_555 1_555
C19A C18A 1_555 1_555
H11A C19A 1_555 1_555
C20A C19A 1_555 1_555
H12A C20A 1_555 1_555
C21A C20A 1_555 1_555
H13A C21A 1_555 1_555
C22A C13A 1_555 1_555
H14A C23 1_555 1_555
C24A O5A 1_555 1_555
C25A N1A 1_555 1_555
H15A C25A 1_555 1_555
C26A C25A 1_555 1_555
H16A C26A 1_555 1_555
C27A C26A 1_555 1_555
H17A C27A 1_555 1_555
C28A C27A 1_555 1_555
C29A C28A 1_555 1_555
H18A C29A 1_555 1_555
C30A C29A 1_555 1_555
H19A C30A 1_555 1_555
C31A C30A 1_555 1_555
C32A C31A 1_555 1_555
H20A C32A 1_555 1_555
C33A C32A 1_555 1_555
H21A C33A 1_555 1_555
C34A N2A 1_555 1_555
H22A C34A 1_555 1_555
C35A N2A 1_555 1_555
C36A N1A 1_555 1_555
O5 C24 1_555 1_555
C3 C12 1_555 1_555
C5 C10 1_555 1_555
C9 C10 1_555 1_555
C15 C24 1_555 1_555
C17 C22 1_555 1_555
C21 C22 1_555 1_555
C28 C36 1_555 1_555
C31 C35 1_555 1_555
C33 C34 1_555 1_555
C35 C36 1_555 1_555
Cd1A_2 O2A_2 1_555 1_555
Cd1_2 O2_2 1_555 1_555
C1A C2A 1_555 1_555
C3A C12A 1_555 1_555
C5A C10A 1_555 1_555
C9A C10A 1_555 1_555
C13A C14A 1_555 1_555
C15A C24A 1_555 1_555
C17A C22A 1_555 1_555
C21A C22A 1_555 1_555
C28A C36A 1_555 1_555
C31A C35A 1_555 1_555
C33A C34A 1_555 1_555
C35A C36A 1_555 1_555

#END
