
#######################################################################
#
#                 Cambridge Crystallographic Data Centre
#                                CCDC 
#
#######################################################################
#
# If this CIF has been generated from an entry in the Cambridge 
# Structural Database, then it will include bibliographic, chemical, 
# crystal, experimental, refinement or atomic coordinate data resulting 
# from the CCDC's data processing and validation procedures.
#
#######################################################################

data_SIQFUU
_symmetry_cell_setting           monoclinic
_symmetry_space_group_name_H-M   'P c'
_symmetry_Int_Tables_number      7
_space_group_name_Hall           'P -2yc'
loop_
_symmetry_equiv_pos_site_id
_symmetry_equiv_pos_as_xyz
1 x,y,z
2 x,-y,1/2+z
_cell_length_a                   10.864(2)
_cell_length_b                   5.116(1)
_cell_length_c                   12.282(2)
_cell_angle_alpha                90
_cell_angle_beta                 104.53(1)
_cell_angle_gamma                90
_cell_volume                     660.803
loop_
_atom_site_label
_atom_site_type_symbol
_atom_site_fract_x
_atom_site_fract_y
_atom_site_fract_z
Cu1 Cu 0.49893(4) 0.4292(2) 0.62014(4)
Cu2 Cu 0.19115(4) 1.0696(2) 0.42557(4)
N1 N 0.3805(8) 0.6775(17) 0.5468(7)
C1 C 0.3076(9) 0.8281(19) 0.5018(8)
N2 N 0.5592(7) 0.1488(15) 0.7230(6)
C2 C 0.5094(8) 0.0984(16) 0.8176(7)
H1 H 0.4430 0.2031 0.8273
C3 C 0.5505(8) -0.0846(16) 0.8915(8)
H2 H 0.5115 -0.1109 0.9498
C4 C 0.6532(8) -0.2419(16) 0.8833(8)
C5 C 0.7061(7) -0.1905(15) 0.7890(7)
H3 H 0.7741 -0.2879 0.7778
C6 C 0.6566(9) -0.006(2) 0.7207(7)
H4 H 0.6942 0.0224 0.6616
C7 C 0.7092(10) -0.4454(16) 0.9714(7)
O1 O 0.6645(7) -0.4728(14) 1.0533(6)
O2 O 0.8027(7) -0.5785(11) 0.9506(6)
N3 N 0.1288(7) 1.3475(15) 0.3174(6)
C8 C 0.1785(8) 1.3892(15) 0.2384(7)
H5 H 0.2488 1.2905 0.2336
C9 C 0.1308(9) 1.5859(17) 0.1533(8)
H6 H 0.1676 1.6060 0.0931
C10 C 0.0319(8) 1.7413(16) 0.1620(8)
C11 C -0.0134(7) 1.7107(14) 0.2510(7)
H7 H -0.0767 1.8228 0.2617
C12 C 0.0338(8) 1.5033(18) 0.3337(7)
H8 H -0.0004 1.4794 0.3953
C13 C -0.0213(10) 1.9462(16) 0.0734(8)
O3 O 0.0184(6) 1.9711(13) -0.0094(6)
O4 O -0.1096(7) 2.0798(11) 0.0917(6)
H9 H 0.824(5) -0.721(12) 0.995(4)
Cu1A Cu 0.49893(4) -0.4292(2) 1.12014(4)
Cu2A Cu 0.19115(4) 1.9304(2) -0.07443(4)
O1A O 0.6645(7) 0.4728(14) 0.5533(6)
O3A O 0.0184(6) 1.0289(13) 0.4906(6)
loop_
_geom_bond_atom_site_label_1
_geom_bond_atom_site_label_2
_geom_bond_site_symmetry_1
_geom_bond_site_symmetry_2
Cu1 N1 1_555 1_555
Cu2 C1 1_555 1_555
N1 C1 1_555 1_555
N2 Cu1 1_555 1_555
C2 N2 1_555 1_555
H1 C2 1_555 1_555
C3 C2 1_555 1_555
H2 C3 1_555 1_555
C4 C3 1_555 1_555
C5 C4 1_555 1_555
H3 C5 1_555 1_555
C6 N2 1_555 1_555
H4 C6 1_555 1_555
C7 C4 1_555 1_555
O1 C7 1_555 1_555
O2 C7 1_555 1_555
N3 Cu2 1_555 1_555
C8 N3 1_555 1_555
H5 C8 1_555 1_555
C9 C8 1_555 1_555
H6 C9 1_555 1_555
C10 C9 1_555 1_555
C11 C10 1_555 1_555
H7 C11 1_555 1_555
C12 N3 1_555 1_555
H8 C12 1_555 1_555
C13 C10 1_555 1_555
O3 C13 1_555 1_555
O4 C13 1_555 1_555
H9 O2 1_555 1_555
Cu1A O1 1_555 1_555
Cu2A O3 1_555 1_555
O1A Cu1 1_555 1_555
O3A Cu2 1_555 1_555
C5 C6 1_555 1_555
C11 C12 1_555 1_555

#END
