
#######################################################################
#
#                 Cambridge Crystallographic Data Centre
#                                CCDC 
#
#######################################################################
#
# If this CIF has been generated from an entry in the Cambridge 
# Structural Database, then it will include bibliographic, chemical, 
# crystal, experimental, refinement or atomic coordinate data resulting 
# from the CCDC's data processing and validation procedures.
#
#######################################################################

data_SIQFII
_symmetry_cell_setting           monoclinic
_symmetry_space_group_name_H-M   'P 2/c'
_symmetry_Int_Tables_number      13
_space_group_name_Hall           '-P 2yc'
loop_
_symmetry_equiv_pos_site_id
_symmetry_equiv_pos_as_xyz
1 x,y,z
2 -x,y,1/2-z
3 -x,-y,-z
4 x,-y,1/2+z
_cell_length_a                   14.6316(10)
_cell_length_b                   11.0803(8)
_cell_length_c                   11.7201(8)
_cell_angle_alpha                90
_cell_angle_beta                 108.2420(10)
_cell_angle_gamma                90
_cell_volume                     1804.6
loop_
_atom_site_label
_atom_site_type_symbol
_atom_site_fract_x
_atom_site_fract_y
_atom_site_fract_z
Cu1 Cu 0.5000 0.75300(2) 0.7500
O1 O 0.40111(10) 0.75884(11) 0.59057(13)
O2 O 0.29589(10) 0.63120(15) 0.62728(13)
O3 O 0.13281(10) 0.60012(15) 0.47610(13)
H1 H 0.1763 0.5963 0.5403
O4 O 0.38564(13) 0.77359(17) 0.87551(16)
N1 N 0.5000 0.93580(18) 0.7500
N2 N 0.5000 1.57285(19) 0.7500
N3 N 0.23347(16) 0.7181(3) 0.8600(3)
C1 C 0.25065(14) 0.73362(17) 0.44029(18)
C2 C 0.15864(13) 0.67642(18) 0.40120(18)
C3 C 0.09395(13) 0.6980(2) 0.28824(18)
C4 C 0.11975(14) 0.7797(2) 0.21041(18)
C5 C 0.05922(16) 0.8051(3) 0.0919(2)
H2 H 0.0005 0.7653 0.0623
C6 C 0.08542(19) 0.8862(3) 0.0212(2)
H3 H 0.0436 0.9025 -0.0551
C7 C 0.1743(2) 0.9461(3) 0.0607(2)
H4 H 0.1913 1.0011 0.0109
C8 C 0.23535(17) 0.9228(2) 0.1726(2)
H5 H 0.2945 0.9620 0.1988
C9 C 0.21030(14) 0.84007(19) 0.24990(19)
C10 C 0.27395(14) 0.81421(19) 0.36553(18)
H6 H 0.3332 0.8530 0.3915
C11 C 0.0000 0.6272(3) 0.2500
H7 H -0.0008 0.5752 0.3163
H8 H 0.0008 0.5752 0.1837
C12 C 0.32036(13) 0.70522(18) 0.56179(17)
C13 C 0.51995(13) 0.99867(16) 0.85247(16)
H9 H 0.5343 0.9564 0.9245
C14 C 0.52029(14) 1.12281(16) 0.85644(16)
H10 H 0.5340 1.1627 0.9297
C15 C 0.5000 1.1882(2) 0.7500
C16 C 0.5000 1.3215(2) 0.7500
C17 C 0.47079(15) 1.38691(17) 0.83369(18)
H11 H 0.4512 1.3471 0.8919
C18 C 0.47112(15) 1.51109(18) 0.82976(18)
H12 H 0.4502 1.5537 0.8853
C19 C 0.2657(3) 0.6455(4) 0.9690(4)
H13 H 0.3206 0.6833 1.0252
H14 H 0.2832 0.5664 0.9495
H15 H 0.2147 0.6391 1.0039
C20 C 0.1350(3) 0.7087(7) 0.7849(5)
H16 H 0.1204 0.7736 0.7278
H17 H 0.0933 0.7133 0.8338
H18 H 0.1254 0.6329 0.7431
C21 C 0.2986(2) 0.7777(3) 0.8250(2)
H19 H 0.2766 0.8261 0.7571
Cu1_2 Cu 0.5000 1.75300(2) 0.7500
Cu1_3 Cu -0.5000 0.75300(2) -0.2500
O1A O -0.40111(10) 0.75884(11) -0.09057(13)
O1A_2 O 0.59889(10) 0.75884(11) 0.90943(13)
O2A O -0.29589(10) 0.63120(15) -0.12728(13)
O3A O -0.13281(10) 0.60012(15) 0.02390(13)
H1A H -0.1763 0.5963 -0.0403
O4A O 0.61436(13) 0.77359(17) 0.62449(16)
N2_2 N 0.5000 0.57285(19) 0.7500
N3A N 0.76653(16) 0.7181(3) 0.6400(3)
C1A C -0.25065(14) 0.73362(17) 0.05971(18)
C2A C -0.15864(13) 0.67642(18) 0.09880(18)
C3A C -0.09395(13) 0.6980(2) 0.21176(18)
C4A C -0.11975(14) 0.7797(2) 0.28959(18)
C5A C -0.05922(16) 0.8051(3) 0.4081(2)
H2A H -0.0005 0.7653 0.4377
C6A C -0.08542(19) 0.8862(3) 0.4788(2)
H3A H -0.0436 0.9025 0.5551
C7A C -0.1743(2) 0.9461(3) 0.4393(2)
H4A H -0.1913 1.0011 0.4891
C8A C -0.23535(17) 0.9228(2) 0.3274(2)
H5A H -0.2945 0.9620 0.3012
C9A C -0.21030(14) 0.84007(19) 0.25010(19)
C10A C -0.27395(14) 0.81421(19) 0.13447(18)
H6A H -0.3332 0.8530 0.1085
C12A C -0.32036(13) 0.70522(18) -0.06179(17)
C13A C 0.48005(13) 0.99867(16) 0.64753(16)
H9A H 0.4657 0.9564 0.5755
C14A C 0.47971(14) 1.12281(16) 0.64356(16)
H10A H 0.4660 1.1627 0.5703
C17A C 0.52921(15) 1.38691(17) 0.66631(18)
H11A H 0.5488 1.3471 0.6081
C18A C 0.52888(15) 1.51109(18) 0.67024(18)
H12A H 0.5498 1.5537 0.6147
C19A C 0.7343(3) 0.6455(4) 0.5310(4)
H13A H 0.6794 0.6833 0.4748
H14A H 0.7168 0.5664 0.5505
H15A H 0.7853 0.6391 0.4961
C20A C 0.8650(3) 0.7087(7) 0.7151(5)
H16A H 0.8796 0.7736 0.7722
H17A H 0.9067 0.7133 0.6662
H18A H 0.8746 0.6329 0.7569
C21A C 0.7014(2) 0.7777(3) 0.6750(2)
H19A H 0.7234 0.8261 0.7429
loop_
_geom_bond_atom_site_label_1
_geom_bond_atom_site_label_2
_geom_bond_site_symmetry_1
_geom_bond_site_symmetry_2
Cu1 O1 1_555 1_555
O1 C12 1_555 1_555
O2 C12 1_555 1_555
O3 H1 1_555 1_555
O4 Cu1 1_555 1_555
N1 Cu1 1_555 1_555
N2 C18 1_555 1_555
N3 C19 1_555 1_555
C1 C2 1_555 1_555
C2 O3 1_555 1_555
C3 C2 1_555 1_555
C4 C3 1_555 1_555
C5 C4 1_555 1_555
H2 C5 1_555 1_555
C6 C5 1_555 1_555
H3 C6 1_555 1_555
C7 C6 1_555 1_555
H4 C7 1_555 1_555
C8 C7 1_555 1_555
H5 C8 1_555 1_555
C9 C4 1_555 1_555
C10 C1 1_555 1_555
H6 C10 1_555 1_555
C11 C3 1_555 1_555
H7 C11 1_555 1_555
H8 C11 1_555 1_555
C12 C1 1_555 1_555
C13 N1 1_555 1_555
H9 C13 1_555 1_555
C14 C13 1_555 1_555
H10 C14 1_555 1_555
C15 C14 1_555 1_555
C16 C15 1_555 1_555
C17 C16 1_555 1_555
H11 C17 1_555 1_555
C18 C17 1_555 1_555
H12 C18 1_555 1_555
C19 H13 1_555 1_555
H14 C19 1_555 1_555
H15 C19 1_555 1_555
C20 N3 1_555 1_555
H16 C20 1_555 1_555
H17 C20 1_555 1_555
H18 C20 1_555 1_555
C21 O4 1_555 1_555
H19 C21 1_555 1_555
Cu1_2 N2 1_555 1_555
Cu1_3 O1A 1_555 1_555
O1A C12A 1_555 1_555
O1A_2 Cu1 1_555 1_555
O2A C12A 1_555 1_555
O3A H1A 1_555 1_555
O4A Cu1 1_555 1_555
N2_2 Cu1 1_555 1_555
N3A C19A 1_555 1_555
C1A C2A 1_555 1_555
C2A O3A 1_555 1_555
C3A C11 1_555 1_555
C4A C3A 1_555 1_555
C5A C4A 1_555 1_555
H2A C5A 1_555 1_555
C6A C5A 1_555 1_555
H3A C6A 1_555 1_555
C7A C6A 1_555 1_555
H4A C7A 1_555 1_555
C8A C7A 1_555 1_555
H5A C8A 1_555 1_555
C9A C4A 1_555 1_555
C10A C1A 1_555 1_555
H6A C10A 1_555 1_555
C12A C1A 1_555 1_555
C13A N1 1_555 1_555
H9A C13A 1_555 1_555
C14A C15 1_555 1_555
H10A C14A 1_555 1_555
C17A C16 1_555 1_555
H11A C17A 1_555 1_555
C18A N2 1_555 1_555
H12A C18A 1_555 1_555
C19A H13A 1_555 1_555
H14A C19A 1_555 1_555
H15A C19A 1_555 1_555
C20A N3A 1_555 1_555
H16A C20A 1_555 1_555
H17A C20A 1_555 1_555
H18A C20A 1_555 1_555
C21A O4A 1_555 1_555
H19A C21A 1_555 1_555
N3 C21 1_555 1_555
C8 C9 1_555 1_555
C9 C10 1_555 1_555
N3A C21A 1_555 1_555
C2A C3A 1_555 1_555
C8A C9A 1_555 1_555
C9A C10A 1_555 1_555
C13A C14A 1_555 1_555
C17A C18A 1_555 1_555

#END
