
#######################################################################
#
#                 Cambridge Crystallographic Data Centre
#                                CCDC 
#
#######################################################################
#
# If this CIF has been generated from an entry in the Cambridge 
# Structural Database, then it will include bibliographic, chemical, 
# crystal, experimental, refinement or atomic coordinate data resulting 
# from the CCDC's data processing and validation procedures.
#
#######################################################################

data_SIQHUX
_symmetry_cell_setting           monoclinic
_symmetry_space_group_name_H-M   'P c'
_symmetry_Int_Tables_number      7
_space_group_name_Hall           'P -2yc'
loop_
_symmetry_equiv_pos_site_id
_symmetry_equiv_pos_as_xyz
1 x,y,z
2 x,-y,1/2+z
_cell_length_a                   10.1138(11)
_cell_length_b                   10.1505(10)
_cell_length_c                   11.9691(13)
_cell_angle_alpha                90
_cell_angle_beta                 98.300(4)
_cell_angle_gamma                90
_cell_volume                     1215.88
loop_
_atom_site_label
_atom_site_type_symbol
_atom_site_fract_x
_atom_site_fract_y
_atom_site_fract_z
Ni1 Ni 0.12795(9) 0.00797(5) 0.62163(8)
O1 O 0.0303(3) -0.0580(4) 0.7579(3)
O2 O -0.0793(3) 0.0427(4) 0.6117(3)
O3 O -0.6847(3) -0.0584(4) 0.6765(3)
O4 O -0.5764(5) 0.0377(6) 0.5500(5)
O5 O 0.1714(4) 0.0957(4) 0.4748(3)
H1 H 0.2547 0.0894 0.4721
H2 H 0.1282 0.0567 0.4181
N1 N 1.0725(4) 0.8301(4) 1.5428(4)
N2 N 0.9517(5) 0.6874(4) 1.4364(4)
N3 N 0.2927(5) 0.3309(4) 0.8139(4)
N4 N 0.1770(4) 0.1855(4) 0.7014(4)
C1 C 1.1362(8) 0.7112(6) 1.5582(6)
H3 H 1.2156 0.6947 1.6058
C2 C 1.0639(8) 0.6229(8) 1.4928(7)
H4 H 1.0847 0.5343 1.4860
C3 C 0.9728(5) 0.8109(5) 1.4633(4)
H5 H 0.9211 0.8792 1.4285
C4 C 0.8508(7) 0.6340(5) 1.3514(6)
C5 C 0.8366(14) 0.5014(6) 1.3377(11)
H6 H 0.8758 0.4402 1.3901
C6 C 0.7530(11) 0.4648(9) 1.2315(10)
H7 H 0.7656 0.3821 1.2012
C7 C 0.6614(8) 0.5419(6) 1.1770(7)
C8 C 0.6515(9) 0.6630(7) 1.2162(7)
H8 H 0.5814 0.7166 1.1846
C9 C 0.7423(8) 0.7102(8) 1.3017(7)
H9 H 0.7321 0.7953 1.3280
C10 C 0.5637(9) 0.4887(5) 1.0791(7)
C11 C 0.5571(9) 0.3533(6) 1.0622(7)
H10 H 0.6079 0.2965 1.1121
C12 C 0.4704(8) 0.3028(7) 0.9660(6)
H11 H 0.4741 0.2143 0.9466
C13 C 0.3844(7) 0.3838(6) 0.9046(5)
C14 C 0.3830(10) 0.5195(7) 0.9289(8)
H12 H 0.3207 0.5760 0.8892
C15 C 0.4776(8) 0.5642(6) 1.0137(6)
H13 H 0.4820 0.6545 1.0265
C16 C 0.2701(6) 0.2040(6) 0.7892(5)
H14 H 0.3154 0.1355 0.8297
C17 C 0.1392(9) 0.3068(7) 0.6662(7)
H15 H 0.0758 0.3262 0.6041
C18 C 0.2080(9) 0.3970(8) 0.7356(7)
H16 H 0.1986 0.4880 0.7302
C19 C -0.0795(6) -0.0230(5) 0.7034(5)
C20 C -0.2091(5) -0.0552(5) 0.7416(4)
C21 C -0.2111(5) -0.1165(6) 0.8465(4)
H17 H -0.1309 -0.1413 0.8894
C22 C -0.3272(5) -0.1402(7) 0.8866(5)
H18 H -0.3268 -0.1753 0.9584
C23 C -0.4518(5) -0.1101(7) 0.8161(5)
H19 H -0.5326 -0.1282 0.8414
C24 C -0.4503(5) -0.0553(5) 0.7129(4)
C25 C -0.3298(6) -0.0262(5) 0.6762(5)
H20 H -0.3301 0.0136 0.6062
C26 C -0.5834(6) -0.0228(6) 0.6397(5)
Ni1_2 Ni -0.87205(9) 0.00797(5) 0.62163(8)
Ni1_3 Ni 1.12795(9) 1.00797(5) 1.62163(8)
O3_2 O 0.3153(3) -0.0584(4) 0.6765(3)
N1_2 N 0.0725(4) -0.1699(4) 0.5428(4)
loop_
_geom_bond_atom_site_label_1
_geom_bond_atom_site_label_2
_geom_bond_site_symmetry_1
_geom_bond_site_symmetry_2
Ni1 O1 1_555 1_555
O1 C19 1_555 1_555
O2 Ni1 1_555 1_555
O3 C26 1_555 1_555
O4 C26 1_555 1_555
O5 Ni1 1_555 1_555
H1 O5 1_555 1_555
H2 O5 1_555 1_555
N1 C1 1_555 1_555
N2 C2 1_555 1_555
N3 C13 1_555 1_555
N4 Ni1 1_555 1_555
C1 H3 1_555 1_555
C2 C1 1_555 1_555
H4 C2 1_555 1_555
C3 N1 1_555 1_555
H5 C3 1_555 1_555
C4 N2 1_555 1_555
C5 C4 1_555 1_555
H6 C5 1_555 1_555
C6 C5 1_555 1_555
H7 C6 1_555 1_555
C7 C6 1_555 1_555
C8 C7 1_555 1_555
H8 C8 1_555 1_555
C9 C4 1_555 1_555
H9 C9 1_555 1_555
C10 C7 1_555 1_555
C11 C10 1_555 1_555
H10 C11 1_555 1_555
C12 C11 1_555 1_555
H11 C12 1_555 1_555
C13 C12 1_555 1_555
C14 C13 1_555 1_555
H12 C14 1_555 1_555
C15 C10 1_555 1_555
H13 C15 1_555 1_555
C16 N3 1_555 1_555
H14 C16 1_555 1_555
C17 N4 1_555 1_555
H15 C17 1_555 1_555
C18 N3 1_555 1_555
H16 C18 1_555 1_555
C19 O2 1_555 1_555
C20 C19 1_555 1_555
C21 C20 1_555 1_555
H17 C21 1_555 1_555
C22 C21 1_555 1_555
H18 C22 1_555 1_555
C23 C22 1_555 1_555
H19 C23 1_555 1_555
C24 C23 1_555 1_555
C25 C20 1_555 1_555
H20 C25 1_555 1_555
C26 C24 1_555 1_555
Ni1_2 O3 1_555 1_555
Ni1_3 N1 1_555 1_555
O3_2 Ni1 1_555 1_555
N1_2 Ni1 1_555 1_555
N2 C3 1_555 1_555
N4 C16 1_555 1_555
C8 C9 1_555 1_555
C14 C15 1_555 1_555
C17 C18 1_555 1_555
C24 C25 1_555 1_555

#END
