
#######################################################################
#
#                 Cambridge Crystallographic Data Centre
#                                CCDC 
#
#######################################################################
#
# If this CIF has been generated from an entry in the Cambridge 
# Structural Database, then it will include bibliographic, chemical, 
# crystal, experimental, refinement or atomic coordinate data resulting 
# from the CCDC's data processing and validation procedures.
#
#######################################################################

data_SIQKUA
_symmetry_cell_setting           triclinic
_symmetry_space_group_name_H-M   'P -1'
_symmetry_Int_Tables_number      2
_space_group_name_Hall           '-P 1'
loop_
_symmetry_equiv_pos_site_id
_symmetry_equiv_pos_as_xyz
1 x,y,z
2 -x,-y,-z
_cell_length_a                   9.6852(19)
_cell_length_b                   11.007(2)
_cell_length_c                   14.443(3)
_cell_angle_alpha                103.58(3)
_cell_angle_beta                 90.00(3)
_cell_angle_gamma                90.01(3)
_cell_volume                     1496.65
loop_
_atom_site_label
_atom_site_type_symbol
_atom_site_fract_x
_atom_site_fract_y
_atom_site_fract_z
Zn1 Zn 1.0000 0.5000 0.0000
Zn2 Zn 1.5000 1.0000 0.5000
S1 S 1.28666(18) 0.73500(16) 0.55481(10)
S2 S 0.78667(18) 0.76467(16) -0.05523(10)
O1 O 0.9701(4) 0.4147(4) 0.1137(2)
H1 H 0.9447 0.4643 0.1653
H2 H 0.8919 0.3788 0.1082
N1 N 0.9069(4) 0.6612(4) 0.0788(3)
N2 N 1.4054(4) 0.8387(4) 0.4220(3)
N3 N 1.4204(5) 0.8142(4) 0.3226(3)
N4 N 1.2980(4) 0.6635(4) 0.3596(3)
N5 N 0.7989(4) 0.8373(4) 0.1404(3)
N6 N 1.1979(4) 0.5675(4) 0.0532(3)
O2 O 1.4680(4) 1.0841(4) 0.3857(2)
H3 H 1.4548 1.0136 0.3473
H4 H 1.5000 1.1580 0.3993
N7 N 0.9200(5) 0.6862(4) 0.1774(3)
C1 C 1.3576(5) 0.7101(5) 0.2886(3)
C2 C 0.8334(5) 0.7503(5) 0.0559(4)
C3 C 1.2395(6) 0.5409(6) 0.3503(4)
C4 C 0.7388(6) 0.9574(5) 0.1488(4)
C5 C 1.3318(6) 0.7499(5) 0.4451(4)
C6 C 1.3434(6) 0.6559(5) 0.1856(4)
C7 C 1.3012(6) 0.5812(6) -0.0057(4)
H5 H 1.2871 0.5559 -0.0711
C8 C 0.8569(5) 0.7891(5) 0.2109(4)
C9 C 1.2194(6) 0.6053(5) 0.1473(3)
H6 H 1.1480 0.5972 0.1885
C10 C 1.1059(6) 0.5318(6) 0.3836(4)
H7 H 1.0564 0.6029 0.4128
C11 C 1.4494(6) 0.6695(5) 0.1242(4)
H8 H 1.5339 0.7035 0.1477
C12 C 0.8123(7) 1.0617(5) 0.1897(4)
H9 H 0.9015 1.0545 0.2117
C13 C 1.4261(6) 0.6311(6) 0.0271(4)
H10 H 1.4953 0.6392 -0.0157
C14 C 1.3133(7) 0.4389(6) 0.3101(4)
H11 H 1.4030 0.4469 0.2893
C15 C 0.7537(8) 1.1786(6) 0.1985(4)
H12 H 0.8049 1.2499 0.2246
C16 C 0.6049(6) 0.9688(6) 0.1159(4)
H13 H 0.5544 0.8982 0.0870
C17 C 1.2545(8) 0.3209(6) 0.2997(5)
H14 H 1.3044 0.2498 0.2713
C18 C 0.6221(8) 1.1901(7) 0.1695(5)
H15 H 0.5819 1.2688 0.1785
C19 C 1.1230(8) 0.3101(6) 0.3314(4)
H16 H 1.0843 0.2313 0.3253
C20 C 1.0485(7) 0.4134(6) 0.3718(4)
H17 H 0.9585 0.4049 0.3917
C21 C 0.5490(7) 1.0862(6) 0.1270(5)
H18 H 0.4600 1.0947 0.1052
C22 C 0.8429(6) 0.8434(5) 0.3154(4)
C23 C 0.7200(6) 0.8944(5) 0.3526(4)
H19 H 0.6493 0.9029 0.3110
C24 C 0.9500(6) 0.8304(5) 0.3755(4)
H20 H 1.0350 0.7980 0.3517
N8 N 0.6977(5) 0.9328(4) 0.4472(3)
C25 C 0.8020(6) 0.9179(5) 0.5051(4)
H21 H 0.7883 0.9434 0.5705
C26 C 0.9260(6) 0.8678(6) 0.4734(4)
H22 H 0.9944 0.8584 0.5164
S1A S 0.71334(18) 0.26500(16) -0.55481(10)
S2A S 1.21333(18) 0.23533(16) 0.05523(10)
O1A O 1.0299(4) 0.5853(4) -0.1137(2)
H1A H 1.0553 0.5357 -0.1653
H2A H 1.1081 0.6212 -0.1082
N1A N 1.0931(4) 0.3388(4) -0.0788(3)
N2A N 0.5946(4) 0.1613(4) -0.4220(3)
N3A N 0.5796(5) 0.1858(4) -0.3226(3)
N4A N 0.7020(4) 0.3365(4) -0.3596(3)
N5A N 1.2011(4) 0.1627(4) -0.1404(3)
N6A N 0.8021(4) 0.4325(4) -0.0532(3)
N7A N 1.0800(5) 0.3138(4) -0.1774(3)
C1A C 0.6424(5) 0.2899(5) -0.2886(3)
C2A C 1.1666(5) 0.2497(5) -0.0559(4)
C3A C 0.7605(6) 0.4591(6) -0.3503(4)
C4A C 1.2612(6) 0.0426(5) -0.1488(4)
C5A C 0.6682(6) 0.2501(5) -0.4451(4)
C6A C 0.6566(6) 0.3441(5) -0.1856(4)
C7A C 0.6988(6) 0.4188(6) 0.0057(4)
H5A H 0.7129 0.4441 0.0711
C8A C 1.1431(5) 0.2109(5) -0.2109(4)
C9A C 0.7806(6) 0.3947(5) -0.1473(3)
H6A H 0.8520 0.4028 -0.1885
C10A C 0.8941(6) 0.4682(6) -0.3836(4)
H7A H 0.9436 0.3971 -0.4128
C11A C 0.5506(6) 0.3305(5) -0.1242(4)
H8A H 0.4661 0.2965 -0.1477
C12A C 1.1877(7) -0.0617(5) -0.1897(4)
H9A H 1.0985 -0.0545 -0.2117
C13A C 0.5739(6) 0.3689(6) -0.0271(4)
H10A H 0.5047 0.3608 0.0157
C14A C 0.6867(7) 0.5611(6) -0.3101(4)
H11A H 0.5970 0.5531 -0.2893
C15A C 1.2463(8) -0.1786(6) -0.1985(4)
H12A H 1.1951 -0.2499 -0.2246
C16A C 1.3951(6) 0.0312(6) -0.1159(4)
H13A H 1.4456 0.1018 -0.0870
C17A C 0.7455(8) 0.6791(6) -0.2997(5)
H14A H 0.6956 0.7502 -0.2713
C18A C 1.3779(8) -0.1901(7) -0.1695(5)
H15A H 1.4181 -0.2688 -0.1785
C19A C 0.8770(8) 0.6899(6) -0.3314(4)
H16A H 0.9157 0.7687 -0.3253
C20A C 0.9515(7) 0.5866(6) -0.3718(4)
H17A H 1.0415 0.5951 -0.3917
C21A C 1.4510(7) -0.0862(6) -0.1270(5)
H18A H 1.5400 -0.0947 -0.1052
C22A C 1.1571(6) 0.1566(5) -0.3154(4)
C23A C 1.2800(6) 0.1056(5) -0.3526(4)
H19A H 1.3507 0.0971 -0.3110
C24A C 1.0500(6) 0.1696(5) -0.3755(4)
H20A H 0.9650 0.2020 -0.3517
N8A N 1.3023(5) 0.0672(4) -0.4472(3)
C25A C 1.1980(6) 0.0821(5) -0.5051(4)
H21A H 1.2117 0.0566 -0.5705
C26A C 1.0740(6) 0.1322(6) -0.4734(4)
H22A H 1.0056 0.1416 -0.5164
O2A O 1.5320(4) 0.9159(4) 0.6143(2)
H3A H 1.5452 0.9864 0.6527
H4A H 1.5000 0.8420 0.6007
Zn2_2 Zn 0.5000 0.0000 -0.5000
Zn2_3 Zn 0.5000 1.0000 0.5000
Zn2_4 Zn 1.5000 0.0000 -0.5000
N2A_2 N 1.5946(4) 1.1613(4) 0.5780(3)
N8_2 N 1.6977(5) 0.9328(4) 0.4472(3)
N8A_2 N 1.3023(5) 1.0672(4) 0.5528(3)
C27 C 1.1617(9) -0.0999(8) 0.0585(5)
N9 N 1.1883(11) -0.0200(8) 0.2384(6)
C28 C 1.1773(8) -0.0554(7) 0.1614(6)
N10 N 0.6896(10) 0.5180(8) 0.2616(6)
C29 C 0.6619(9) 0.5997(8) 0.4420(5)
C30 C 0.6788(8) 0.5549(8) 0.3400(6)
loop_
_geom_bond_atom_site_label_1
_geom_bond_atom_site_label_2
_geom_bond_site_symmetry_1
_geom_bond_site_symmetry_2
Zn1 O1 1_555 1_555
Zn2 N2 1_555 1_555
S1 C5 1_555 1_555
S2 C2 1_555 1_555
O1 H1 1_555 1_555
H2 O1 1_555 1_555
N1 Zn1 1_555 1_555
N2 N3 1_555 1_555
N3 C1 1_555 1_555
N4 C1 1_555 1_555
N5 C2 1_555 1_555
N6 Zn1 1_555 1_555
O2 Zn2 1_555 1_555
H3 O2 1_555 1_555
H4 O2 1_555 1_555
N7 N1 1_555 1_555
C1 C6 1_555 1_555
C2 N1 1_555 1_555
C3 N4 1_555 1_555
C4 N5 1_555 1_555
C5 N2 1_555 1_555
C6 C9 1_555 1_555
C7 N6 1_555 1_555
H5 C7 1_555 1_555
C8 N5 1_555 1_555
C9 N6 1_555 1_555
H6 C9 1_555 1_555
C10 C3 1_555 1_555
H7 C10 1_555 1_555
C11 C6 1_555 1_555
H8 C11 1_555 1_555
C12 C4 1_555 1_555
H9 C12 1_555 1_555
C13 C7 1_555 1_555
H10 C13 1_555 1_555
C14 C3 1_555 1_555
H11 C14 1_555 1_555
C15 C12 1_555 1_555
H12 C15 1_555 1_555
C16 C4 1_555 1_555
H13 C16 1_555 1_555
C17 C14 1_555 1_555
H14 C17 1_555 1_555
C18 C15 1_555 1_555
H15 C18 1_555 1_555
C19 C17 1_555 1_555
H16 C19 1_555 1_555
C20 C10 1_555 1_555
H17 C20 1_555 1_555
C21 C16 1_555 1_555
H18 C21 1_555 1_555
C22 C8 1_555 1_555
C23 C22 1_555 1_555
H19 C23 1_555 1_555
C24 C22 1_555 1_555
H20 C24 1_555 1_555
N8 C23 1_555 1_555
C25 N8 1_555 1_555
H21 C25 1_555 1_555
C26 C24 1_555 1_555
H22 C26 1_555 1_555
C27 C28 1_555 1_555
N9 C28 1_555 1_555
N10 C30 1_555 1_555
C29 C30 1_555 1_555
S1A C5A 1_555 1_555
S2A C2A 1_555 1_555
O1A Zn1 1_555 1_555
H1A O1A 1_555 1_555
H2A O1A 1_555 1_555
N1A Zn1 1_555 1_555
N2A N3A 1_555 1_555
N3A C1A 1_555 1_555
N4A C1A 1_555 1_555
N5A C2A 1_555 1_555
N6A Zn1 1_555 1_555
N7A N1A 1_555 1_555
C1A C6A 1_555 1_555
C2A N1A 1_555 1_555
C3A N4A 1_555 1_555
C4A N5A 1_555 1_555
C5A N2A 1_555 1_555
C6A C9A 1_555 1_555
C7A N6A 1_555 1_555
H5A C7A 1_555 1_555
C8A N5A 1_555 1_555
C9A N6A 1_555 1_555
H6A C9A 1_555 1_555
C10A C3A 1_555 1_555
H7A C10A 1_555 1_555
C11A C6A 1_555 1_555
H8A C11A 1_555 1_555
C12A C4A 1_555 1_555
H9A C12A 1_555 1_555
C13A C7A 1_555 1_555
H10A C13A 1_555 1_555
C14A C3A 1_555 1_555
H11A C14A 1_555 1_555
C15A C12A 1_555 1_555
H12A C15A 1_555 1_555
C16A C4A 1_555 1_555
H13A C16A 1_555 1_555
C17A C14A 1_555 1_555
H14A C17A 1_555 1_555
C18A C15A 1_555 1_555
H15A C18A 1_555 1_555
C19A C17A 1_555 1_555
H16A C19A 1_555 1_555
C20A C10A 1_555 1_555
H17A C20A 1_555 1_555
C21A C16A 1_555 1_555
H18A C21A 1_555 1_555
C22A C8A 1_555 1_555
C23A C22A 1_555 1_555
H19A C23A 1_555 1_555
C24A C22A 1_555 1_555
H20A C24A 1_555 1_555
N8A C23A 1_555 1_555
C25A N8A 1_555 1_555
H21A C25A 1_555 1_555
C26A C24A 1_555 1_555
H22A C26A 1_555 1_555
O2A Zn2 1_555 1_555
H3A O2A 1_555 1_555
H4A O2A 1_555 1_555
Zn2_2 N2A 1_555 1_555
Zn2_3 N8 1_555 1_555
Zn2_4 N8A 1_555 1_555
N2A_2 Zn2 1_555 1_555
N8_2 Zn2 1_555 1_555
N8A_2 Zn2 1_555 1_555
N4 C5 1_555 1_555
N7 C8 1_555 1_555
C11 C13 1_555 1_555
C18 C21 1_555 1_555
C19 C20 1_555 1_555
C25 C26 1_555 1_555
N4A C5A 1_555 1_555
N7A C8A 1_555 1_555
C11A C13A 1_555 1_555
C18A C21A 1_555 1_555
C19A C20A 1_555 1_555
C25A C26A 1_555 1_555

#END
