
#######################################################################
#
#                 Cambridge Crystallographic Data Centre
#                                CCDC 
#
#######################################################################
#
# If this CIF has been generated from an entry in the Cambridge 
# Structural Database, then it will include bibliographic, chemical, 
# crystal, experimental, refinement or atomic coordinate data resulting 
# from the CCDC's data processing and validation procedures.
#
#######################################################################

data_SIQKIO
_symmetry_cell_setting           monoclinic
_symmetry_space_group_name_H-M   'P 21/c'
_symmetry_Int_Tables_number      14
_space_group_name_Hall           '-P 2ybc'
loop_
_symmetry_equiv_pos_site_id
_symmetry_equiv_pos_as_xyz
1 x,y,z
2 -x,1/2+y,1/2-z
3 -x,-y,-z
4 x,1/2-y,1/2+z
_cell_length_a                   6.8875(14)
_cell_length_b                   22.067(4)
_cell_length_c                   9.5212(19)
_cell_angle_alpha                90
_cell_angle_beta                 96.31(3)
_cell_angle_gamma                90
_cell_volume                     1438.33
loop_
_atom_site_label
_atom_site_type_symbol
_atom_site_fract_x
_atom_site_fract_y
_atom_site_fract_z
Cu1 Cu 0.07398(3) 0.621668(10) 0.48884(3)
Cu2 Cu -0.21298(4) 0.526553(11) 0.52093(3)
Cl1 Cl -0.27438(6) 0.623302(19) 0.45363(5)
Cl2 Cl 0.14291(6) 0.54305(2) 0.66018(4)
N1 N 0.2201(2) 0.59159(7) 0.33173(16)
N2 N 0.4222(2) 0.58058(7) 0.17082(15)
C1 C 0.7829(3) 0.60796(9) -0.1517(2)
H1 H 0.8641 0.6149 -0.2219
C2 C 0.2978(3) 0.61922(8) 0.2292(2)
C3 C 0.5872(3) 0.62207(9) -0.1749(2)
H2 H 0.5364 0.6381 -0.2616
C4 C 0.7398(3) 0.57464(9) 0.0849(2)
H3 H 0.7905 0.5590 0.1719
C5 C 0.4648(3) 0.61267(9) -0.0705(2)
H4 H 0.3321 0.6214 -0.0870
C6 C 0.8588(3) 0.58315(10) -0.0225(2)
H5 H 0.9899 0.5722 -0.0079
C7 C 0.5449(3) 0.58998(8) 0.05922(18)
N3 N 0.2975(2) 0.53335(7) 0.34194(17)
C8 C 0.4174(3) 0.52846(8) 0.2456(2)
H6 H 0.4896 0.4939 0.2304
C9 C 0.2521(3) 0.68151(8) 0.18224(18)
C10 C 0.0640(3) 0.70404(9) 0.1858(2)
H7 H -0.0303 0.6810 0.2241
C11 C 0.3899(3) 0.71926(8) 0.1303(2)
H8 H 0.5191 0.7068 0.1317
C12 C 0.0187(3) 0.76138(9) 0.1315(2)
H9 H -0.1074 0.7760 0.1343
C13 C 0.3323(3) 0.77559(8) 0.0764(2)
H10 H 0.4248 0.7999 0.0397
N4 N 0.1493(2) 0.79678(7) 0.07470(17)
Cu1C Cu 0.07398(3) 0.878332(10) -0.01116(3)
Cu2B Cu 0.21298(4) 0.473447(11) 0.47907(3)
Cl2B Cl -0.14291(6) 0.45695(2) 0.33982(4)
N3B N -0.2975(2) 0.46665(7) 0.65806(17)
N4C N 0.1493(2) 0.70322(7) 0.57470(17)
loop_
_geom_bond_atom_site_label_1
_geom_bond_atom_site_label_2
_geom_bond_site_symmetry_1
_geom_bond_site_symmetry_2
Cu1 Cl1 1_555 1_555
Cu2 Cl1 1_555 1_555
Cl2 Cu1 1_555 1_555
N1 Cu1 1_555 1_555
N2 C2 1_555 1_555
C1 H1 1_555 1_555
C2 N1 1_555 1_555
C3 C1 1_555 1_555
H2 C3 1_555 1_555
C4 H3 1_555 1_555
C5 C3 1_555 1_555
H4 C5 1_555 1_555
C6 C1 1_555 1_555
H5 C6 1_555 1_555
C7 N2 1_555 1_555
N3 N1 1_555 1_555
C8 N2 1_555 1_555
H6 C8 1_555 1_555
C9 C2 1_555 1_555
C10 C9 1_555 1_555
H7 C10 1_555 1_555
C11 C9 1_555 1_555
H8 C11 1_555 1_555
C12 C10 1_555 1_555
H9 C12 1_555 1_555
C13 C11 1_555 1_555
H10 C13 1_555 1_555
N4 C12 1_555 1_555
Cu1C N4 1_555 1_555
Cu2B Cl2 1_555 1_555
Cl2B Cu2 1_555 1_555
N3B Cu2 1_555 1_555
N4C Cu1 1_555 1_555
Cu2 Cl2 1_555 1_555
C4 C6 1_555 1_555
C4 C7 1_555 1_555
C5 C7 1_555 1_555
N3 C8 1_555 1_555
N3 Cu2B 1_555 1_555
C13 N4 1_555 1_555
Cu2B Cl2B 1_555 1_555

#END
