
#######################################################################
#
#                 Cambridge Crystallographic Data Centre
#                                CCDC 
#
#######################################################################
#
# If this CIF has been generated from an entry in the Cambridge 
# Structural Database, then it will include bibliographic, chemical, 
# crystal, experimental, refinement or atomic coordinate data resulting 
# from the CCDC's data processing and validation procedures.
#
#######################################################################

data_SIQKOU
_symmetry_cell_setting           monoclinic
_symmetry_space_group_name_H-M   'P 21/n'
_symmetry_Int_Tables_number      14
_space_group_name_Hall           '-P 2yn'
loop_
_symmetry_equiv_pos_site_id
_symmetry_equiv_pos_as_xyz
1 x,y,z
2 1/2-x,1/2+y,1/2-z
3 -x,-y,-z
4 1/2+x,1/2-y,1/2+z
_cell_length_a                   11.032(2)
_cell_length_b                   9.7139(19)
_cell_length_c                   14.466(3)
_cell_angle_alpha                90
_cell_angle_beta                 103.65(3)
_cell_angle_gamma                90
_cell_volume                     1506.45
loop_
_atom_site_label
_atom_site_type_symbol
_atom_site_fract_x
_atom_site_fract_y
_atom_site_fract_z
Ni1 Ni 1.0000 1.0000 0.0000
S1 S 1.26451(5) 0.78660(6) -0.05509(3)
N1 N 1.33629(13) 0.79847(15) 0.14033(10)
N2 N 1.16119(13) 0.90618(15) 0.07882(9)
O1 O 0.91631(13) 0.96739(15) 0.11387(9)
H1 H 0.8450 0.9979 0.1003
N3 N 1.18586(13) 0.92025(15) 0.17708(10)
C1 C 1.25119(16) 0.83192(18) 0.05582(12)
C2 C 1.45751(16) 0.73780(19) 0.14916(12)
C3 C 1.29040(15) 0.85691(17) 0.21188(12)
C4 C 1.46792(19) 0.6046(2) 0.11738(15)
H2 H 1.3969 0.5543 0.0897
C5 C 1.56217(18) 0.8133(2) 0.18997(15)
H3 H 1.5544 0.9028 0.2107
C6 C 1.67942(19) 0.7548(3) 0.19993(17)
H4 H 1.7504 0.8051 0.2276
C7 C 1.6908(2) 0.6221(3) 0.16890(16)
H5 H 1.7695 0.5830 0.1760
C8 C 1.5857(2) 0.5472(3) 0.12737(18)
H6 H 1.5937 0.4581 0.1060
C9 C 1.34271(15) 0.84291(18) 0.31438(11)
C10 C 1.39479(16) 0.71974(18) 0.35331(12)
H7 H 1.4040 0.6491 0.3121
C11 C 1.33030(18) 0.9494(2) 0.37596(13)
H8 H 1.2970 1.0338 0.3523
N4 N 1.43236(13) 0.69731(15) 0.44688(10)
C12 C 1.41921(17) 0.8005(2) 0.50551(12)
H9 H 1.4453 0.7863 0.5708
C13 C 1.36864(19) 0.9271(2) 0.47325(13)
S1B S 0.73549(5) 1.21340(6) 0.05509(3)
N1B N 0.66371(13) 1.20153(15) -0.14033(10)
N2B N 0.83881(13) 1.09382(15) -0.07882(9)
O1B O 1.08369(13) 1.03261(15) -0.11387(9)
H1B H 1.1550 1.0021 -0.1003
N3B N 0.81414(13) 1.07975(15) -0.17708(10)
C1B C 0.74881(16) 1.16808(18) -0.05582(12)
C2B C 0.54249(16) 1.26220(19) -0.14916(12)
C3B C 0.70960(15) 1.14309(17) -0.21188(12)
C4B C 0.53208(19) 1.3954(2) -0.11738(15)
H2B H 0.6031 1.4457 -0.0897
C5B C 0.43783(18) 1.1867(2) -0.18997(15)
H3B H 0.4456 1.0972 -0.2107
C6B C 0.32058(19) 1.2452(3) -0.19993(17)
H4B H 0.2496 1.1949 -0.2276
C7B C 0.3092(2) 1.3779(3) -0.16890(16)
H5B H 0.2305 1.4170 -0.1760
C8B C 0.4143(2) 1.4528(3) -0.12737(18)
H6B H 0.4063 1.5419 -0.1060
C9B C 0.65729(15) 1.15709(18) -0.31438(11)
C10B C 0.60521(16) 1.28026(18) -0.35331(12)
H7B H 0.5960 1.3509 -0.3121
C11B C 0.66970(18) 1.0506(2) -0.37596(13)
H8B H 0.7030 0.9662 -0.3523
N4B N 0.56764(13) 1.30269(15) -0.44688(10)
C12B C 0.58079(17) 1.1995(2) -0.50551(12)
H9B H 0.5547 1.2137 -0.5708
C13B C 0.63136(19) 1.0729(2) -0.47325(13)
Ni1A Ni 0.5000 1.5000 -0.5000
Ni1A_2 Ni 1.5000 0.5000 0.5000
N4A N 1.06764(13) 1.19731(15) 0.05312(10)
N4C N 0.93236(13) 0.80269(15) -0.05312(10)
C14 C 1.4009(3) 1.1625(4) 0.0583(2)
C15 C 1.4461(3) 1.1784(3) 0.1605(2)
N5 N 1.4821(3) 1.1874(5) 0.2400(2)
loop_
_geom_bond_atom_site_label_1
_geom_bond_atom_site_label_2
_geom_bond_site_symmetry_1
_geom_bond_site_symmetry_2
Ni1 N2 1_555 1_555
S1 C1 1_555 1_555
N1 C1 1_555 1_555
N2 N3 1_555 1_555
O1 Ni1 1_555 1_555
H1 O1 1_555 1_555
N3 C3 1_555 1_555
C1 N2 1_555 1_555
C2 N1 1_555 1_555
C3 N1 1_555 1_555
C4 C2 1_555 1_555
H2 C4 1_555 1_555
C5 C2 1_555 1_555
H3 C5 1_555 1_555
C6 C5 1_555 1_555
H4 C6 1_555 1_555
C7 C6 1_555 1_555
H5 C7 1_555 1_555
C8 C4 1_555 1_555
H6 C8 1_555 1_555
C9 C3 1_555 1_555
C10 C9 1_555 1_555
H7 C10 1_555 1_555
C11 C9 1_555 1_555
H8 C11 1_555 1_555
N4 C10 1_555 1_555
C12 N4 1_555 1_555
H9 C12 1_555 1_555
C13 C11 1_555 1_555
C14 C15 1_555 1_555
C15 N5 1_555 1_555
S1B C1B 1_555 1_555
N1B C1B 1_555 1_555
N2B Ni1 1_555 1_555
O1B Ni1 1_555 1_555
H1B O1B 1_555 1_555
N3B N2B 1_555 1_555
C1B N2B 1_555 1_555
C2B N1B 1_555 1_555
C3B N1B 1_555 1_555
C4B C2B 1_555 1_555
H2B C4B 1_555 1_555
C5B C2B 1_555 1_555
H3B C5B 1_555 1_555
C6B C5B 1_555 1_555
H4B C6B 1_555 1_555
C7B C6B 1_555 1_555
H5B C7B 1_555 1_555
C8B C4B 1_555 1_555
H6B C8B 1_555 1_555
C9B C3B 1_555 1_555
C10B C9B 1_555 1_555
H7B C10B 1_555 1_555
C11B C9B 1_555 1_555
H8B C11B 1_555 1_555
N4B C10B 1_555 1_555
C12B N4B 1_555 1_555
H9B C12B 1_555 1_555
C13B C11B 1_555 1_555
Ni1A N4B 1_555 1_555
Ni1A_2 N4 1_555 1_555
N4A Ni1 1_555 1_555
N4C Ni1 1_555 1_555
C7 C8 1_555 1_555
C12 C13 1_555 1_555
N3B C3B 1_555 1_555
C7B C8B 1_555 1_555
C12B C13B 1_555 1_555

#END
