
#######################################################################
#
#                 Cambridge Crystallographic Data Centre
#                                CCDC 
#
#######################################################################
#
# If this CIF has been generated from an entry in the Cambridge 
# Structural Database, then it will include bibliographic, chemical, 
# crystal, experimental, refinement or atomic coordinate data resulting 
# from the CCDC's data processing and validation procedures.
#
#######################################################################

data_SIQSAN
_symmetry_cell_setting           orthorhombic
_symmetry_space_group_name_H-M   'P 21 21 21'
_symmetry_Int_Tables_number      19
_space_group_name_Hall           'P 2ac 2ab'
loop_
_symmetry_equiv_pos_site_id
_symmetry_equiv_pos_as_xyz
1 x,y,z
2 1/2-x,-y,1/2+z
3 1/2+x,1/2-y,-z
4 -x,1/2+y,1/2-z
_cell_length_a                   9.3582(8)
_cell_length_b                   17.674(2)
_cell_length_c                   18.8267(17)
_cell_angle_alpha                90
_cell_angle_beta                 90
_cell_angle_gamma                90
_cell_volume                     3113.88
loop_
_atom_site_label
_atom_site_type_symbol
_atom_site_fract_x
_atom_site_fract_y
_atom_site_fract_z
Hg1 Hg -0.09047(3) -0.680011(14) -1.044333(14)
C1 C -0.1200(7) -0.5834(3) -0.9779(3)
H1 H -0.0293 -0.5718 -0.9543
C2 C -0.2278(7) -0.6040(3) -0.9228(4)
C3 C -0.1827(7) -0.6471(3) -0.8584(3)
C4 C -0.2893(8) -0.6688(4) -0.8123(4)
H2 H -0.3841 -0.6587 -0.8237
C5 C -0.2579(10) -0.7056(4) -0.7489(4)
H3 H -0.3303 -0.7197 -0.7178
C6 C -0.1181(10) -0.7205(4) -0.7335(4)
C7 C -0.0103(10) -0.7008(4) -0.7780(4)
H4 H 0.0840 -0.7123 -0.7668
C8 C -0.0438(8) -0.6624(4) -0.8422(4)
H5 H 0.0288 -0.6477 -0.8729
C9 C -0.2611(7) -0.4323(3) -0.9756(4)
C10 C -0.3791(9) -0.3932(4) -1.0006(4)
H6 H -0.4135 -0.4026 -1.0461
C11 C -0.4456(9) -0.3401(4) -0.9579(6)
H7 H -0.5233 -0.3129 -0.9752
C12 C -0.3975(11) -0.3274(5) -0.8908(5)
H8 H -0.4441 -0.2924 -0.8621
C13 C -0.2797(10) -0.3663(5) -0.8647(5)
H9 H -0.2474 -0.3575 -0.8187
C14 C -0.2112(9) -0.4182(4) -0.9079(4)
H10 H -0.1310 -0.4437 -0.8912
C15 C -0.2884(7) -0.5261(3) -1.1036(4)
C16 C -0.2810(10) -0.4840(4) -1.1656(4)
H11 H -0.2149 -0.4449 -1.1694
C17 C -0.3701(10) -0.4996(5) -1.2210(4)
H12 H -0.3660 -0.4700 -1.2618
C18 C -0.4657(9) -0.5586(5) -1.2175(4)
H13 H -0.5235 -0.5700 -1.2562
C19 C -0.4750(8) -0.6007(4) -1.1557(4)
H14 H -0.5410 -0.6398 -1.1525
C20 C -0.3864(8) -0.5848(4) -1.0989(3)
H15 H -0.3924 -0.6135 -1.0575
C21 C -0.0131(7) -0.4617(4) -1.0654(4)
C22 C 0.0415(8) -0.3929(4) -1.0393(6)
H16 H -0.0081 -0.3664 -1.0045
C23 C 0.1683(11) -0.3649(6) -1.0653(7)
H17 H 0.2034 -0.3191 -1.0483
C24 C 0.2422(11) -0.4032(6) -1.1154(7)
H18 H 0.3286 -0.3839 -1.1318
C25 C 0.1914(11) -0.4704(6) -1.1424(5)
H19 H 0.2431 -0.4962 -1.1770
C26 C 0.0637(9) -0.4995(5) -1.1180(4)
H20 H 0.0286 -0.5445 -1.1368
N1 N -0.1144(8) -0.7366(4) -1.1873(3)
N2 N 0.2357(6) -0.7018(2) -1.0443(4)
O1 O -0.3529(5) -0.5858(3) -0.9311(3)
O2 O -0.1106(7) -0.7651(3) -1.1248(3)
O3 O -0.1007(10) -0.6679(3) -1.1933(3)
O4 O -0.1281(7) -0.7800(4) -1.2378(3)
O5 O 0.1568(6) -0.7379(3) -1.0052(3)
O6 O 0.1846(6) -0.6585(3) -1.0905(3)
O7 O 0.3684(4) -0.7087(2) -1.0390(3)
Cl1 Cl -0.0760(5) -0.76611(16) -0.65375(13)
P1 P -0.17373(18) -0.50234(9) -1.03018(9)
Hg1B Hg 0.40953(3) -0.819989(14) -0.955667(14)
O5B O -0.3432(6) -0.7621(3) -0.9948(3)
O7B O -0.1316(4) -0.7913(2) -0.9610(3)
C27 C -0.8791(14) -0.5031(8) -1.3300(6)
H21 H -0.8508 -0.5292 -1.2875
H22 H -0.9748 -0.5175 -1.3424
H23 H -0.8753 -0.4495 -1.3220
C28 C -0.8191(9) -0.4565(5) -1.4576(6)
H24 H -0.8348 -0.4104 -1.4317
H25 H -0.9064 -0.4717 -1.4802
H26 H -0.7468 -0.4484 -1.4930
O8 O -0.6154(6) -0.5066(4) -1.3762(4)
S1 S -0.7634(3) -0.52720(14) -1.39909(14)
loop_
_geom_bond_atom_site_label_1
_geom_bond_atom_site_label_2
_geom_bond_site_symmetry_1
_geom_bond_site_symmetry_2
Hg1 C1 1_555 1_555
C1 H1 1_555 1_555
C2 C1 1_555 1_555
C3 C2 1_555 1_555
C4 C3 1_555 1_555
H2 C4 1_555 1_555
C5 C4 1_555 1_555
H3 C5 1_555 1_555
C6 C5 1_555 1_555
C7 C6 1_555 1_555
H4 C7 1_555 1_555
C8 C3 1_555 1_555
H5 C8 1_555 1_555
C9 C10 1_555 1_555
C10 H6 1_555 1_555
C11 C10 1_555 1_555
H7 C11 1_555 1_555
C12 C11 1_555 1_555
H8 C12 1_555 1_555
C13 C12 1_555 1_555
H9 C13 1_555 1_555
C14 C9 1_555 1_555
H10 C14 1_555 1_555
C15 C16 1_555 1_555
C16 H11 1_555 1_555
C17 C16 1_555 1_555
H12 C17 1_555 1_555
C18 C17 1_555 1_555
H13 C18 1_555 1_555
C19 C18 1_555 1_555
H14 C19 1_555 1_555
C20 C15 1_555 1_555
H15 C20 1_555 1_555
C21 C22 1_555 1_555
C22 H16 1_555 1_555
C23 C22 1_555 1_555
H17 C23 1_555 1_555
C24 C23 1_555 1_555
H18 C24 1_555 1_555
C25 C24 1_555 1_555
H19 C25 1_555 1_555
C26 C21 1_555 1_555
H20 C26 1_555 1_555
C27 H21 1_555 1_555
H22 C27 1_555 1_555
H23 C27 1_555 1_555
C28 H24 1_555 1_555
H25 C28 1_555 1_555
H26 C28 1_555 1_555
N1 O2 1_555 1_555
N2 O5 1_555 1_555
O1 C2 1_555 1_555
O2 Hg1 1_555 1_555
O3 Hg1 1_555 1_555
O4 N1 1_555 1_555
O5 Hg1 1_555 1_555
O6 Hg1 1_555 1_555
O7 N2 1_555 1_555
O8 S1 1_555 1_555
Cl1 C6 1_555 1_555
P1 C1 1_555 1_555
S1 C27 1_555 1_555
Hg1B O5 1_555 1_555
O5B Hg1 1_555 1_555
O7B Hg1 1_555 1_555
C7 C8 1_555 1_555
C9 P1 1_555 1_555
C13 C14 1_555 1_555
C15 P1 1_555 1_555
C19 C20 1_555 1_555
C21 P1 1_555 1_555
C25 C26 1_555 1_555
C28 S1 1_555 1_555
N1 O3 1_555 1_555
N2 O6 1_555 1_555
O7 Hg1B 1_555 1_555

#END
