
#######################################################################
#
#                 Cambridge Crystallographic Data Centre
#                                CCDC 
#
#######################################################################
#
# If this CIF has been generated from an entry in the Cambridge 
# Structural Database, then it will include bibliographic, chemical, 
# crystal, experimental, refinement or atomic coordinate data resulting 
# from the CCDC's data processing and validation procedures.
#
#######################################################################

data_SIRDOO
_symmetry_cell_setting           monoclinic
_symmetry_space_group_name_H-M   'C 2/c'
_symmetry_Int_Tables_number      15
_space_group_name_Hall           '-C 2yn'
loop_
_symmetry_equiv_pos_site_id
_symmetry_equiv_pos_as_xyz
1 x,y,z
2 -x,y,1/2-z
3 1/2+x,1/2+y,z
4 1/2-x,1/2+y,1/2-z
5 -x,-y,-z
6 x,-y,1/2+z
7 1/2-x,1/2-y,-z
8 1/2+x,1/2-y,1/2+z
_cell_length_a                   19.802(9)
_cell_length_b                   17.476(8)
_cell_length_c                   17.360(8)
_cell_angle_alpha                90
_cell_angle_beta                 96.573(5)
_cell_angle_gamma                90
_cell_volume                     5968.11
loop_
_atom_site_label
_atom_site_type_symbol
_atom_site_fract_x
_atom_site_fract_y
_atom_site_fract_z
Cd1 Cd 0.24905(2) 0.89256(3) 0.49659(3)
Cd2 Cd 0.30034(2) 1.13532(3) 0.56457(3)
O1 O 0.3112(2) 0.9847(3) 0.5793(2)
O2 O 0.3422(2) 1.0709(3) 0.6708(3)
O3 O 0.2302(3) 0.9982(3) 0.9085(3)
O4 O 0.2399(2) 0.8753(3) 0.9483(3)
O5 O 0.2774(2) 0.7867(3) 0.5765(2)
O6 O 0.3350(2) 0.6755(3) 0.5795(3)
O7 O 0.5552(3) 0.7476(3) 0.4535(3)
O8 O 0.6065(2) 0.8570(3) 0.4963(3)
O9 O 0.3326(3) 1.2525(2) 0.6169(3)
H1 H 0.3101 1.2904 0.5969
H2 H 0.3696 1.2599 0.6005
N1 N 0.3377(3) 0.8803(3) 0.4265(3)
N2 N 0.1619(3) 0.9071(3) 0.5724(3)
N3 N 0.1955(3) 1.1315(3) 0.6181(3)
C1 C 0.3308(3) 0.9438(4) 0.7126(3)
C2 C 0.2973(3) 0.9621(4) 0.7773(3)
H3 H 0.2816 1.0118 0.7827
C3 C 0.2871(3) 0.9082(4) 0.8332(4)
C4 C 0.3121(3) 0.8348(4) 0.8248(4)
H4 H 0.3044 0.7972 0.8606
C5 C 0.3487(3) 0.8171(4) 0.7632(4)
H5 H 0.3669 0.7682 0.7599
C6 C 0.3587(3) 0.8712(3) 0.7062(3)
C7 C 0.3980(3) 0.7914(3) 0.5955(3)
C8 C 0.4490(3) 0.7752(4) 0.5485(4)
H6 H 0.4437 0.7336 0.5149
C9 C 0.5077(3) 0.8197(4) 0.5506(4)
C10 C 0.5156(3) 0.8815(4) 0.6014(4)
H7 H 0.5541 0.9122 0.6030
C11 C 0.4660(3) 0.8975(4) 0.6500(4)
H8 H 0.4724 0.9382 0.6847
C12 C 0.4066(3) 0.8535(3) 0.6477(3)
C13 C 0.3298(3) 1.0028(4) 0.6494(4)
C14 C 0.2495(3) 0.9307(4) 0.9012(4)
C15 C 0.3315(3) 0.7473(4) 0.5828(4)
C16 C 0.5602(3) 0.8054(4) 0.4946(4)
C17 C 0.3354(4) 0.8304(4) 0.3666(4)
H9 H 0.2980 0.7982 0.3570
C18 C 0.3873(4) 0.8255(5) 0.3190(4)
H10 H 0.3829 0.7928 0.2765
C19 C 0.4450(3) 0.8689(4) 0.3346(4)
C20 C 0.4478(3) 0.9190(4) 0.3979(4)
H11 H 0.4864 0.9486 0.4113
C21 C 0.3936(3) 0.9241(4) 0.4400(4)
H12 H 0.3956 0.9596 0.4801
C22 C 0.5023(4) 0.8663(4) 0.2872(4)
H13 H 0.5458 0.8646 0.3137
C23 C 0.0985(4) 0.9258(5) 0.5440(4)
H14 H 0.0905 0.9414 0.4925
C24 C 0.0439(4) 0.9230(5) 0.5877(5)
H15 H 0.0004 0.9358 0.5653
C25 C 0.0545(4) 0.9010(4) 0.6646(4)
C26 C 0.1205(4) 0.8822(5) 0.6940(4)
H16 H 0.1304 0.8676 0.7456
C27 C 0.1709(4) 0.8852(5) 0.6464(4)
H17 H 0.2144 0.8709 0.6671
C28 C -0.0023(4) 0.9007(5) 0.7121(5)
H18 H -0.0458 0.9005 0.6857
C29 C 0.1358(4) 1.1328(4) 0.5743(4)
H19 H 0.1357 1.1373 0.5209
C30 C 0.0740(4) 1.1279(4) 0.6035(5)
H20 H 0.0339 1.1299 0.5699
C31 C 0.0714(4) 1.1197(4) 0.6832(5)
C32 C 0.1344(4) 1.1157(4) 0.7294(5)
H21 H 0.1361 1.1074 0.7825
C33 C 0.1944(4) 1.1240(4) 0.6953(4)
H22 H 0.2355 1.1245 0.7272
C34 C 0.0049(5) 1.1184(4) 0.7133(5)
H23 H -0.0335 1.1174 0.6771
N1A N 0.6623(3) 0.8803(3) 0.0735(3)
C17A C 0.6646(4) 0.8304(4) 0.1334(4)
H9A H 0.7020 0.7982 0.1430
C18A C 0.6127(4) 0.8255(5) 0.1810(4)
H10A H 0.6171 0.7928 0.2235
C19A C 0.5550(3) 0.8689(4) 0.1654(4)
C20A C 0.5522(3) 0.9190(4) 0.1021(4)
H11A H 0.5136 0.9486 0.0887
C21A C 0.6064(3) 0.9241(4) 0.0600(4)
H12A H 0.6044 0.9596 0.0199
C22A C 0.4977(4) 0.8663(4) 0.2128(4)
H13A H 0.4542 0.8646 0.1863
N2A N -0.1619(3) 0.9071(3) 0.9276(3)
C23A C -0.0985(4) 0.9258(5) 0.9560(4)
H14A H -0.0905 0.9414 1.0075
C24A C -0.0439(4) 0.9230(5) 0.9123(5)
H15A H -0.0004 0.9358 0.9347
C25A C -0.0545(4) 0.9010(4) 0.8354(4)
C26A C -0.1205(4) 0.8822(5) 0.8060(4)
H16A H -0.1304 0.8676 0.7544
C27A C -0.1709(4) 0.8852(5) 0.8536(4)
H17A H -0.2144 0.8709 0.8329
C28A C 0.0023(4) 0.9007(5) 0.7879(5)
H18A H 0.0458 0.9005 0.8143
N3A N -0.1955(3) 1.1315(3) 0.8819(3)
C29A C -0.1358(4) 1.1328(4) 0.9257(4)
H19A H -0.1357 1.1373 0.9791
C30A C -0.0740(4) 1.1279(4) 0.8965(5)
H20A H -0.0339 1.1299 0.9301
C31A C -0.0714(4) 1.1197(4) 0.8168(5)
C32A C -0.1344(4) 1.1157(4) 0.7706(5)
H21A H -0.1361 1.1074 0.7175
C33A C -0.1944(4) 1.1240(4) 0.8047(4)
H22A H -0.2355 1.1245 0.7728
C34A C -0.0049(5) 1.1184(4) 0.7867(5)
H23A H 0.0335 1.1174 0.8229
Cd1A Cd -0.24905(2) 0.89256(3) 1.00341(3)
Cd2A Cd -0.30034(2) 1.13532(3) 0.93543(3)
O1A O -0.3112(2) 0.9847(3) 0.9207(2)
O2A O -0.3422(2) 1.0709(3) 0.8292(3)
O3A O -0.2302(3) 0.9982(3) 0.5915(3)
O4A O -0.2399(2) 0.8753(3) 0.5517(3)
O5A O -0.2774(2) 0.7867(3) 0.9235(2)
O6A O -0.3350(2) 0.6755(3) 0.9205(3)
O7A O -0.5552(3) 0.7476(3) 1.0465(3)
O8A O -0.6065(2) 0.8570(3) 1.0037(3)
O9A O -0.3326(3) 1.2525(2) 0.8831(3)
H1A H -0.3101 1.2904 0.9031
H2A H -0.3696 1.2599 0.8995
C1A C -0.3308(3) 0.9438(4) 0.7874(3)
C2A C -0.2973(3) 0.9621(4) 0.7227(3)
H3A H -0.2816 1.0118 0.7173
C3A C -0.2871(3) 0.9082(4) 0.6668(4)
C4A C -0.3121(3) 0.8348(4) 0.6752(4)
H4A H -0.3044 0.7972 0.6394
C5A C -0.3487(3) 0.8171(4) 0.7368(4)
H5A H -0.3669 0.7682 0.7401
C6A C -0.3587(3) 0.8712(3) 0.7938(3)
C7A C -0.3980(3) 0.7914(3) 0.9045(3)
C8A C -0.4490(3) 0.7752(4) 0.9515(4)
H6A H -0.4437 0.7336 0.9851
C9A C -0.5077(3) 0.8197(4) 0.9494(4)
C10A C -0.5156(3) 0.8815(4) 0.8986(4)
H7A H -0.5541 0.9122 0.8970
C11A C -0.4660(3) 0.8975(4) 0.8500(4)
H8A H -0.4724 0.9382 0.8153
C12A C -0.4066(3) 0.8535(3) 0.8523(3)
C13A C -0.3298(3) 1.0028(4) 0.8506(4)
C14A C -0.2495(3) 0.9307(4) 0.5988(4)
C15A C -0.3315(3) 0.7473(4) 0.9172(4)
C16A C -0.5602(3) 0.8054(4) 1.0054(4)
Cd1A_2 Cd 0.75095(2) 0.89256(3) 0.00341(3)
Cd1D Cd -0.24905(2) 1.10744(3) 0.50341(3)
Cd1E Cd 0.24905(2) 1.10744(3) 0.99659(3)
Cd1F Cd 0.25095(2) 0.60744(3) 0.50341(3)
Cd1G Cd -0.25095(2) 0.60744(3) 0.99659(3)
Cd2D Cd -0.30034(2) 0.86468(3) 0.43543(3)
Cd2D_2 Cd 0.69966(2) 0.86468(3) 0.43543(3)
Cd2E Cd -0.69966(2) 0.86468(3) 1.06457(3)
Cd2E_2 Cd 0.30034(2) 0.86468(3) 1.06457(3)
O3D O -0.2302(3) 1.0018(3) 1.0915(3)
O3E O 0.2302(3) 1.0018(3) 0.4085(3)
O4D O -0.2399(2) 1.1247(3) 1.0517(3)
O4E O 0.2399(2) 1.1247(3) 0.4483(3)
O6F O 0.1650(2) 0.8245(3) 0.4205(3)
O6G O -0.1650(2) 0.8245(3) 1.0795(3)
O8D O 0.3935(2) 1.1430(3) 0.5037(3)
O8E O -0.3935(2) 1.1430(3) 0.9963(3)
N1A_2 N -0.3377(3) 0.8803(3) 1.0735(3)
loop_
_geom_bond_atom_site_label_1
_geom_bond_atom_site_label_2
_geom_bond_site_symmetry_1
_geom_bond_site_symmetry_2
Cd1 O1 1_555 1_555
Cd2 O1 1_555 1_555
O1 C13 1_555 1_555
O2 Cd2 1_555 1_555
O3 C14 1_555 1_555
O4 C14 1_555 1_555
O5 Cd1 1_555 1_555
O6 C15 1_555 1_555
O7 C16 1_555 1_555
O8 C16 1_555 1_555
O9 Cd2 1_555 1_555
H1 O9 1_555 1_555
H2 O9 1_555 1_555
N1 Cd1 1_555 1_555
N2 Cd1 1_555 1_555
N3 Cd2 1_555 1_555
C1 C2 1_555 1_555
C2 H3 1_555 1_555
C3 C2 1_555 1_555
C4 C3 1_555 1_555
H4 C4 1_555 1_555
C5 C4 1_555 1_555
H5 C5 1_555 1_555
C6 C1 1_555 1_555
C7 C8 1_555 1_555
C8 H6 1_555 1_555
C9 C8 1_555 1_555
C10 C9 1_555 1_555
H7 C10 1_555 1_555
C11 C10 1_555 1_555
H8 C11 1_555 1_555
C12 C6 1_555 1_555
C13 O2 1_555 1_555
C14 C3 1_555 1_555
C15 O5 1_555 1_555
C16 C9 1_555 1_555
C17 N1 1_555 1_555
H9 C17 1_555 1_555
C18 C17 1_555 1_555
H10 C18 1_555 1_555
C19 C18 1_555 1_555
C20 C19 1_555 1_555
H11 C20 1_555 1_555
C21 N1 1_555 1_555
H12 C21 1_555 1_555
C22 C19 1_555 1_555
H13 C22 1_555 1_555
C23 N2 1_555 1_555
H14 C23 1_555 1_555
C24 C23 1_555 1_555
H15 C24 1_555 1_555
C25 C24 1_555 1_555
C26 C25 1_555 1_555
H16 C26 1_555 1_555
C27 N2 1_555 1_555
H17 C27 1_555 1_555
C28 C25 1_555 1_555
H18 C28 1_555 1_555
C29 N3 1_555 1_555
H19 C29 1_555 1_555
C30 C29 1_555 1_555
H20 C30 1_555 1_555
C31 C30 1_555 1_555
C32 C31 1_555 1_555
H21 C32 1_555 1_555
C33 N3 1_555 1_555
H22 C33 1_555 1_555
C34 C31 1_555 1_555
H23 C34 1_555 1_555
N1A C17A 1_555 1_555
C17A H9A 1_555 1_555
C18A C17A 1_555 1_555
H10A C18A 1_555 1_555
C19A C18A 1_555 1_555
C20A C19A 1_555 1_555
H11A C20A 1_555 1_555
C21A N1A 1_555 1_555
H12A C21A 1_555 1_555
C22A C22 1_555 1_555
H13A C22A 1_555 1_555
N2A C23A 1_555 1_555
C23A H14A 1_555 1_555
C24A C23A 1_555 1_555
H15A C24A 1_555 1_555
C25A C24A 1_555 1_555
C26A C25A 1_555 1_555
H16A C26A 1_555 1_555
C27A N2A 1_555 1_555
H17A C27A 1_555 1_555
C28A C28 1_555 1_555
H18A C28A 1_555 1_555
N3A C29A 1_555 1_555
C29A H19A 1_555 1_555
C30A C29A 1_555 1_555
H20A C30A 1_555 1_555
C31A C30A 1_555 1_555
C32A C31A 1_555 1_555
H21A C32A 1_555 1_555
C33A N3A 1_555 1_555
H22A C33A 1_555 1_555
C34A C34 1_555 1_555
H23A C34A 1_555 1_555
Cd1A N2A 1_555 1_555
Cd2A N3A 1_555 1_555
O1A Cd1A 1_555 1_555
O2A Cd2A 1_555 1_555
O3A C14A 1_555 1_555
O4A C14A 1_555 1_555
O5A Cd1A 1_555 1_555
O6A C15A 1_555 1_555
O7A C16A 1_555 1_555
O8A C16A 1_555 1_555
O9A Cd2A 1_555 1_555
H1A O9A 1_555 1_555
H2A O9A 1_555 1_555
C1A C2A 1_555 1_555
C2A H3A 1_555 1_555
C3A C2A 1_555 1_555
C4A C3A 1_555 1_555
H4A C4A 1_555 1_555
C5A C4A 1_555 1_555
H5A C5A 1_555 1_555
C6A C1A 1_555 1_555
C7A C8A 1_555 1_555
C8A H6A 1_555 1_555
C9A C8A 1_555 1_555
C10A C9A 1_555 1_555
H7A C10A 1_555 1_555
C11A C10A 1_555 1_555
H8A C11A 1_555 1_555
C12A C6A 1_555 1_555
C13A O1A 1_555 1_555
C14A C3A 1_555 1_555
C15A O5A 1_555 1_555
C16A C9A 1_555 1_555
Cd1A_2 N1A 1_555 1_555
Cd1D O3A 1_555 1_555
Cd1E O3 1_555 1_555
Cd1F O6 1_555 1_555
Cd1G O6A 1_555 1_555
Cd2D O4A 1_555 1_555
Cd2D_2 O8 1_555 1_555
Cd2E O8A 1_555 1_555
Cd2E_2 O4 1_555 1_555
O3D Cd1A 1_555 1_555
O3E Cd1 1_555 1_555
O4D Cd2A 1_555 1_555
O4E Cd2 1_555 1_555
O6F Cd1 1_555 1_555
O6G Cd1A 1_555 1_555
O8D Cd2 1_555 1_555
O8E Cd2A 1_555 1_555
N1A_2 Cd1A 1_555 1_555
C1 C13 1_555 1_555
C5 C6 1_555 1_555
C7 C12 1_555 1_555
C7 C15 1_555 1_555
C11 C12 1_555 1_555
C20 C21 1_555 1_555
C26 C27 1_555 1_555
C32 C33 1_555 1_555
C19A C22A 1_555 1_555
C20A C21A 1_555 1_555
C25A C28A 1_555 1_555
C26A C27A 1_555 1_555
C31A C34A 1_555 1_555
C32A C33A 1_555 1_555
Cd2A O1A 1_555 1_555
O2A C13A 1_555 1_555
C1A C13A 1_555 1_555
C5A C6A 1_555 1_555
C7A C12A 1_555 1_555
C7A C15A 1_555 1_555
C11A C12A 1_555 1_555

#END
