
#######################################################################
#
#                 Cambridge Crystallographic Data Centre
#                                CCDC 
#
#######################################################################
#
# If this CIF has been generated from an entry in the Cambridge 
# Structural Database, then it will include bibliographic, chemical, 
# crystal, experimental, refinement or atomic coordinate data resulting 
# from the CCDC's data processing and validation procedures.
#
#######################################################################

data_SIRHEI
_symmetry_cell_setting           triclinic
_symmetry_space_group_name_H-M   'P -1'
_symmetry_Int_Tables_number      2
_space_group_name_Hall           '-P 1'
loop_
_symmetry_equiv_pos_site_id
_symmetry_equiv_pos_as_xyz
1 x,y,z
2 -x,-y,-z
_cell_length_a                   7.417(7)
_cell_length_b                   11.431(10)
_cell_length_c                   14.033(12)
_cell_angle_alpha                85.180(6)
_cell_angle_beta                 76.960(6)
_cell_angle_gamma                81.250(7)
_cell_volume                     1144.07
loop_
_atom_site_label
_atom_site_type_symbol
_atom_site_fract_x
_atom_site_fract_y
_atom_site_fract_z
C1 C 0.1348(6) 0.1087(4) 0.9568(3)
C2 C 0.0356(7) 0.1449(4) 1.0455(3)
C3 C -0.0094(7) 0.2849(4) 0.9302(3)
C4 C 0.3320(7) -0.1145(4) 0.7710(3)
H1 H 0.3151 -0.1957 0.7929
H2 H 0.457 -0.1027 0.7745
C5 C 0.2562(6) -0.0028(4) 0.9222(3)
H3 H 0.2411 -0.0662 0.9726
H4 H 0.3865 0.009 0.9048
C6 C -0.0012(6) -0.0723(4) 0.8600(3)
H5 H -0.096 -0.0033 0.8641
H6 H -0.0137 -0.1187 0.8077
C7 C 0.2179(7) 0.0488(5) 0.5510(3)
H7 H 0.1727 0.1264 0.5343
C8 C 0.2614(9) -0.0336(5) 0.4805(4)
H8 H 0.2432 -0.0122 0.4176
C9 C 0.3066(7) -0.0912(4) 0.6665(3)
C10 C -0.0792(9) 0.4001(4) 0.8841(4)
H9 H -0.1602 0.4483 0.9335
H10 H -0.1471 0.3859 0.8365
H11 H 0.0247 0.4404 0.8525
C11 C 0.3525(9) -0.1780(5) 0.5996(4)
H12 H 0.3964 -0.2554 0.6176
C12 C 0.3313(10) -0.1469(5) 0.5039(4)
H13 H 0.3648 -0.2031 0.4565
N1 N 0.1915(5) -0.0313(3) 0.8343(2)
N2 N 0.1059(6) 0.1955(3) 0.8845(3)
N3 N 0.2385(6) 0.0209(3) 0.6436(3)
N4 N -0.0545(6) 0.2576(3) 1.0266(3)
H14 H -0.1273 0.3023 1.0697
O1 O 0.1846(7) 0.2747(3) 0.6702(3)
O2 O 0.6252(6) 0.1649(4) 0.8797(3)
O3 O 0.5251(6) 0.1217(5) 0.7419(3)
O4 O 0.5959(10) 0.3098(5) 0.7557(5)
Cu1 Cu 0.17450(8) 0.12831(5) 0.75370(4)
Cl1 Cl 0.64675(17) 0.18884(11) 0.77583(8)
O5 O 0.8361(5) 0.1512(4) 0.7279(3)
H15 H 0.237(9) 0.333(4) 0.686(6)
H16 H 0.082(7) 0.294(6) 0.645(6)
C1A C -0.1348(6) -0.1087(4) 1.0432(3)
C2A C -0.0356(7) -0.1449(4) 0.9545(3)
C3A C 0.0094(7) -0.2849(4) 1.0698(3)
C4A C -0.3320(7) 0.1145(4) 1.2290(3)
H1A H -0.3151 0.1957 1.2071
H2A H -0.457 0.1027 1.2255
C5A C -0.2562(6) 0.0028(4) 1.0778(3)
H3A H -0.2411 0.0662 1.0274
H4A H -0.3865 -0.009 1.0952
C6A C 0.0012(6) 0.0723(4) 1.1400(3)
H5A H 0.096 0.0033 1.1359
H6A H 0.0137 0.1187 1.1923
C7A C -0.2179(7) -0.0488(5) 1.4490(3)
H7A H -0.1727 -0.1264 1.4657
C8A C -0.2614(9) 0.0336(5) 1.5195(4)
H8A H -0.2432 0.0122 1.5824
C9A C -0.3066(7) 0.0912(4) 1.3335(3)
C10A C 0.0792(9) -0.4001(4) 1.1159(4)
H9A H 0.1602 -0.4483 1.0665
H10A H 0.1471 -0.3859 1.1635
H11A H -0.0247 -0.4404 1.1475
C11A C -0.3525(9) 0.1780(5) 1.4004(4)
H12A H -0.3964 0.2554 1.3824
C12A C -0.3313(10) 0.1469(5) 1.4961(4)
H13A H -0.3648 0.2031 1.5435
N1A N -0.1915(5) 0.0313(3) 1.1657(2)
N2A N -0.1059(6) -0.1955(3) 1.1155(3)
N3A N -0.2385(6) -0.0209(3) 1.3564(3)
N4A N 0.0545(6) -0.2576(3) 0.9734(3)
H14A H 0.1273 -0.3023 0.9303
O1A O -0.1846(7) -0.2747(3) 1.3298(3)
O2A O -0.6252(6) -0.1649(4) 1.1203(3)
O3A O -0.5251(6) -0.1217(5) 1.2581(3)
O4A O -0.5959(10) -0.3098(5) 1.2443(5)
Cu1A Cu -0.17450(8) -0.12831(5) 1.24630(4)
Cl1A Cl -0.64675(17) -0.18884(11) 1.22417(8)
O5A O -0.8361(5) -0.1512(4) 1.2721(3)
H15A H -0.237(9) -0.333(4) 1.314(6)
H16A H -0.082(7) -0.294(6) 1.355(6)
Cu1_2 Cu 1.17450(8) 0.12831(5) 0.75370(4)
Cu1A_2 Cu -1.17450(8) -0.12831(5) 1.24630(4)
O5_2 O -0.1639(5) 0.1512(4) 0.7279(3)
O5A_2 O 0.1639(5) -0.1512(4) 1.2721(3)
O6 O -0.3401(8) 0.4309(5) 1.1317(4)
H17 H -0.342(11) 0.497(4) 1.091(5)
H18 H -0.267(10) 0.431(6) 1.176(4)
O7 O 0.3123(9) 0.4830(5) 0.6819(4)
H19 H 0.404(9) 0.419(5) 0.668(5)
H20 H 0.296(11) 0.520(6) 0.624(3)
O8 O -0.052(2) 0.3660(11) 1.5562(11)
O10 O 0.3757(12) 0.3637(6) 0.9867(6)
H25 H 0.474(8) 0.405(7) 0.970(5)
H26 H 0.367(11) 0.322(7) 1.045(3)
Cl2 Cl 0.1693(3) 0.30914(15) 1.28079(16)
O11 O 0.1935(13) 0.1968(7) 1.3238(7)
O12 O 0.0204(17) 0.3319(7) 1.2377(9)
O13 O 0.250(5) 0.397(2) 1.303(2)
O14 O 0.287(3) 0.2863(16) 1.1819(14)
H21? H 0.058(10) 0.373(11) 1.519(9)
H22? H -0.111(16) 0.423(9) 1.594(9)
O9? O -0.372(3) 0.479(3) 1.5351(18)
H23? H -0.251(8) 0.450(13) 1.516(15)
H24? H -0.40(2) 0.556(5) 1.520(17)
O15? O 0.052(4) 0.384(2) 1.3510(18)
O16? O 0.330(4) 0.361(3) 1.264(2)
loop_
_geom_bond_atom_site_label_1
_geom_bond_atom_site_label_2
_geom_bond_site_symmetry_1
_geom_bond_site_symmetry_2
C1 C2 1_555 1_555
C2 N4 1_555 1_555
C3 C10 1_555 1_555
C4 H1 1_555 1_555
H2 C4 1_555 1_555
C5 C1 1_555 1_555
H3 C5 1_555 1_555
H4 C5 1_555 1_555
C6 H5 1_555 1_555
H6 C6 1_555 1_555
C7 H7 1_555 1_555
C8 C7 1_555 1_555
H8 C8 1_555 1_555
C9 C4 1_555 1_555
C10 H9 1_555 1_555
H10 C10 1_555 1_555
H11 C10 1_555 1_555
C11 C9 1_555 1_555
H12 C11 1_555 1_555
C12 C8 1_555 1_555
H13 C12 1_555 1_555
N1 C4 1_555 1_555
N2 C1 1_555 1_555
N3 C7 1_555 1_555
N4 C3 1_555 1_555
H14 N4 1_555 1_555
O1 Cu1 1_555 1_555
O2 Cl1 1_555 1_555
O3 Cu1 1_555 1_555
O4 Cl1 1_555 1_555
Cu1 N1 1_555 1_555
Cl1 O3 1_555 1_555
O5 Cl1 1_555 1_555
H15 O1 1_555 1_555
H16 O1 1_555 1_555
O6 H17 1_555 1_555
H18 O6 1_555 1_555
O7 H19 1_555 1_555
H20 O7 1_555 1_555
O10 H25 1_555 1_555
H26 O10 1_555 1_555
Cl2 O11 1_555 1_555
O12 Cl2 1_555 1_555
O13 Cl2 1_555 1_555
O14 Cl2 1_555 1_555
C1A C2A 1_555 1_555
C2A C6 1_555 1_555
C3A C10A 1_555 1_555
C4A H1A 1_555 1_555
H2A C4A 1_555 1_555
C5A C1A 1_555 1_555
H3A C5A 1_555 1_555
H4A C5A 1_555 1_555
C6A C2 1_555 1_555
H5A C6A 1_555 1_555
H6A C6A 1_555 1_555
C7A H7A 1_555 1_555
C8A C7A 1_555 1_555
H8A C8A 1_555 1_555
C9A C4A 1_555 1_555
C10A H9A 1_555 1_555
H10A C10A 1_555 1_555
H11A C10A 1_555 1_555
C11A C9A 1_555 1_555
H12A C11A 1_555 1_555
C12A C8A 1_555 1_555
H13A C12A 1_555 1_555
N1A C4A 1_555 1_555
N2A C1A 1_555 1_555
N3A C7A 1_555 1_555
N4A C2A 1_555 1_555
H14A N4A 1_555 1_555
O1A Cu1A 1_555 1_555
O2A Cl1A 1_555 1_555
O3A Cu1A 1_555 1_555
O4A Cl1A 1_555 1_555
Cu1A N1A 1_555 1_555
Cl1A O3A 1_555 1_555
O5A Cl1A 1_555 1_555
H15A O1A 1_555 1_555
H16A O1A 1_555 1_555
Cu1_2 O5 1_555 1_555
Cu1A_2 O5A 1_555 1_555
O5_2 Cu1 1_555 1_555
O5A_2 Cu1A 1_555 1_555
C3 N2 1_555 1_555
C5 N1 1_555 1_555
C6 N1 1_555 1_555
C9 N3 1_555 1_555
C11 C12 1_555 1_555
N2 Cu1 1_555 1_555
N3 Cu1 1_555 1_555
C3A N2A 1_555 1_555
C3A N4A 1_555 1_555
C5A N1A 1_555 1_555
C6A N1A 1_555 1_555
C9A N3A 1_555 1_555
C11A C12A 1_555 1_555
N2A Cu1A 1_555 1_555
N3A Cu1A 1_555 1_555

#END
