
#######################################################################
#
#                 Cambridge Crystallographic Data Centre
#                                CCDC 
#
#######################################################################
#
# If this CIF has been generated from an entry in the Cambridge 
# Structural Database, then it will include bibliographic, chemical, 
# crystal, experimental, refinement or atomic coordinate data resulting 
# from the CCDC's data processing and validation procedures.
#
#######################################################################

data_SIRJOS
_symmetry_cell_setting           triclinic
_symmetry_space_group_name_H-M   'P -1'
_symmetry_Int_Tables_number      2
_space_group_name_Hall           '-P 1'
loop_
_symmetry_equiv_pos_site_id
_symmetry_equiv_pos_as_xyz
1 x,y,z
2 -x,-y,-z
_cell_length_a                   6.121(3)
_cell_length_b                   9.295(3)
_cell_length_c                   11.073(2)
_cell_angle_alpha                107.39(2)
_cell_angle_beta                 98.28(3)
_cell_angle_gamma                98.28(4)
_cell_volume                     583.145
loop_
_atom_site_label
_atom_site_type_symbol
_atom_site_fract_x
_atom_site_fract_y
_atom_site_fract_z
Sn1 Sn 0.21877(9) 0.38133(5) 0.41879(5)
C1 C 0.4275(11) 0.6642(7) 0.3726(6)
C2 C 0.2313(11) 0.6991(7) 0.4172(6)
C3 C 0.1596(11) 0.8317(8) 0.4116(7)
C4 C 0.2765(12) 0.9306(7) 0.3602(6)
C5 C 0.4667(11) 0.8942(7) 0.3174(6)
C6 C 0.5475(11) 0.7616(8) 0.3206(6)
C7 C -0.1700(16) 0.3944(13) 0.1593(9)
C8 C -0.2519(21) 0.2818(19) 0.0269(11)
C9 C -0.0744(25) 0.2183(22) -0.0090(13)
C10 C 0.1191(19) 0.2801(17) 0.0911(10)
O1 O 0.4950(8) 0.5359(5) 0.3847(4)
O2 O 0.1167(8) 0.5955(5) 0.4604(4)
O3 O 0.5209(12) 1.1125(7) 0.2565(7)
O4 O 0.7689(11) 0.9715(8) 0.2333(8)
O5 O 0.0582(10) 0.3819(7) 0.1948(5)
N1 N 0.5933(11) 1.0003(8) 0.2656(7)
H1 H 0.0296(11) 0.8658(8) 0.4492(7)
H2 H 0.2344(12) 1.0398(7) 0.3519(6)
H3 H 0.6930(11) 0.7243(8) 0.2751(6)
H4 H -0.1778(16) 0.5011(13) 0.1592(9)
H5 H -0.2616(16) 0.3681(13) 0.2204(9)
H6 H -0.3008(21) 0.3360(19) -0.0348(11)
H7 H -0.3813(21) 0.2024(19) 0.0264(11)
H8 H -0.0433(25) 0.2354(22) -0.0904(13)
H9 H -0.1182(25) 0.1055(22) -0.0244(13)
H10 H 0.2397(19) 0.3337(17) 0.0587(10)
H11 H 0.1741(19) 0.1961(17) 0.1183(10)
O1A O 0.5050(8) 0.4641(5) 0.6153(4)
O2A O -0.1167(8) 0.4045(5) 0.5396(4)
Sn1A Sn 0.78123(9) 0.61867(5) 0.58121(5)
Sn1A_2 Sn -0.21877(9) 0.61867(5) 0.58121(5)
C2A C -0.2313(11) 0.3009(7) 0.5828(6)
C1A C -0.4275(11) 0.3358(7) 0.6274(6)
C3A C -0.1596(11) 0.1683(8) 0.5884(7)
C6A C -0.5475(11) 0.2384(8) 0.6794(6)
O1A_2 O -0.4950(8) 0.4641(5) 0.6153(4)
C4A C -0.2765(12) 0.0694(7) 0.6398(6)
H1A H -0.0296(11) 0.1342(8) 0.5508(7)
C5A C -0.4667(11) 0.1058(7) 0.6826(6)
H3A H -0.6930(11) 0.2757(8) 0.7249(6)
Sn1_2 Sn -0.78123(9) 0.38133(5) 0.41879(5)
H2A H -0.2344(12) -0.0398(7) 0.6481(6)
N1A N -0.5933(11) -0.0003(8) 0.7344(7)
O3A O -0.5209(12) -0.1125(7) 0.7435(7)
O4A O -0.7689(11) 0.0285(8) 0.7667(8)
O1_2 O -0.5050(8) 0.5359(5) 0.3847(4)
O5A O -0.0582(10) 0.6181(7) 0.8052(5)
C7A C 0.1700(16) 0.6056(13) 0.8407(9)
C10A C -0.1191(19) 0.7199(17) 0.9089(10)
C9A C 0.0744(25) 0.7817(22) 1.0090(13)
H10A H -0.2397(19) 0.6663(17) 0.9413(10)
H11A H -0.1741(19) 0.8039(17) 0.8817(10)
C8A C 0.2519(21) 0.7182(19) 0.9731(11)
H4A H 0.1778(16) 0.4989(13) 0.8408(9)
H5A H 0.2616(16) 0.6319(13) 0.7796(9)
H8A H 0.0433(25) 0.7646(22) 1.0904(13)
H9A H 0.1182(25) 0.8945(22) 1.0244(13)
H6A H 0.3008(21) 0.6640(19) 1.0348(11)
H7A H 0.3813(21) 0.7976(19) 0.9736(11)
loop_
_geom_bond_atom_site_label_1
_geom_bond_atom_site_label_2
_geom_bond_site_symmetry_1
_geom_bond_site_symmetry_2
Sn1 O1 1_555 1_555
C1 C2 1_555 1_555
C2 C3 1_555 1_555
C3 C4 1_555 1_555
C4 C5 1_555 1_555
C5 C6 1_555 1_555
C6 C1 1_555 1_555
C7 C8 1_555 1_555
C8 C9 1_555 1_555
C9 C10 1_555 1_555
C10 O5 1_555 1_555
O1 C1 1_555 1_555
O2 Sn1 1_555 1_555
O3 N1 1_555 1_555
O4 N1 1_555 1_555
O5 Sn1 1_555 1_555
N1 C5 1_555 1_555
H1 C3 1_555 1_555
H2 C4 1_555 1_555
H3 C6 1_555 1_555
H4 C7 1_555 1_555
H5 C7 1_555 1_555
H6 C8 1_555 1_555
H7 C8 1_555 1_555
H8 C9 1_555 1_555
H9 C9 1_555 1_555
H10 C10 1_555 1_555
H11 C10 1_555 1_555
O1A Sn1 1_555 1_555
O2A Sn1 1_555 1_555
Sn1A O1 1_555 1_555
Sn1A_2 O2 1_555 1_555
C2A O2A 1_555 1_555
C1A C2A 1_555 1_555
C3A C2A 1_555 1_555
C6A C1A 1_555 1_555
O1A_2 Sn1A_2 1_555 1_555
C4A C3A 1_555 1_555
H1A C3A 1_555 1_555
C5A C6A 1_555 1_555
H3A C6A 1_555 1_555
Sn1_2 O1A_2 1_555 1_555
H2A C4A 1_555 1_555
N1A C5A 1_555 1_555
O3A N1A 1_555 1_555
O4A N1A 1_555 1_555
O1_2 Sn1A_2 1_555 1_555
O5A Sn1A_2 1_555 1_555
C7A O5A 1_555 1_555
C10A O5A 1_555 1_555
C9A C10A 1_555 1_555
H10A C10A 1_555 1_555
H11A C10A 1_555 1_555
C8A C7A 1_555 1_555
H4A C7A 1_555 1_555
H5A C7A 1_555 1_555
H8A C9A 1_555 1_555
H9A C9A 1_555 1_555
H6A C8A 1_555 1_555
H7A C8A 1_555 1_555
C2 O2 1_555 1_555
C7 O5 1_555 1_555
O1A Sn1A 1_555 1_555
O2A Sn1A_2 1_555 1_555
C1A O1A_2 1_555 1_555
C4A C5A 1_555 1_555
Sn1_2 O1_2 1_555 1_555
C9A C8A 1_555 1_555

#END
