
#######################################################################
#
#                 Cambridge Crystallographic Data Centre
#                                CCDC 
#
#######################################################################
#
# If this CIF has been generated from an entry in the Cambridge 
# Structural Database, then it will include bibliographic, chemical, 
# crystal, experimental, refinement or atomic coordinate data resulting 
# from the CCDC's data processing and validation procedures.
#
#######################################################################

data_SIRMIR
_symmetry_cell_setting           triclinic
_symmetry_space_group_name_H-M   'P -1'
_symmetry_Int_Tables_number      2
_space_group_name_Hall           '-P 1'
loop_
_symmetry_equiv_pos_site_id
_symmetry_equiv_pos_as_xyz
1 x,y,z
2 -x,-y,-z
_cell_length_a                   8.820(3)
_cell_length_b                   12.306(4)
_cell_length_c                   12.586(4)
_cell_angle_alpha                108.488(3)
_cell_angle_beta                 90.368(3)
_cell_angle_gamma                94.269(3)
_cell_volume                     1291.32
loop_
_atom_site_label
_atom_site_type_symbol
_atom_site_fract_x
_atom_site_fract_y
_atom_site_fract_z
O1 O 0.6823(3) 1.1885(2) 0.5362(3)
O2 O 0.2913(3) 0.9614(2) 0.3041(2)
O3 O 0.8685(3) 1.0791(3) 0.3408(2)
La1 La 0.75732(2) 0.984525(17) 0.484494(17)
S1 S 0.58269(15) 0.45911(9) 0.69344(10)
S2 S 0.37678(15) 0.82436(9) 0.07023(9)
S3 S 0.81740(13) 0.65490(10) 0.68465(10)
S4 S 0.97861(14) 0.62262(9) 0.13522(9)
S5 S 0.81503(15) 0.40088(9) 0.13711(10)
S6 S 0.25461(17) 1.06392(10) 0.10599(10)
O4 O 0.6165(3) 0.7939(2) 0.4870(3)
O5 O 0.8412(3) 0.8255(2) 0.5721(3)
O6 O 0.5173(3) 0.9731(2) 0.3815(2)
O7 O 0.8182(3) 0.8197(2) 0.2939(2)
O8 O 1.0132(3) 0.8955(2) 0.4105(2)
C1 C 0.4298(4) 0.9502(3) 0.2963(3)
C2 C 0.9548(4) 0.8222(3) 0.3210(3)
N1 N 0.8941(4) 0.5630(3) 0.3169(3)
C3 C 0.8984(5) 0.5361(3) 0.2094(3)
N2 N 0.8228(4) 0.4754(3) 0.3514(3)
C4 C 0.7151(4) 0.7698(3) 0.5475(3)
C5 C 0.6730(5) 0.6703(4) 0.5893(4)
H1 H 0.6592 0.6001 0.5261
H2 H 0.5773 0.6819 0.6272
N3 N 0.2508(4) 0.9010(3) -0.0790(3)
C6 C 0.1827(5) 1.0797(4) -0.0166(4)
C7 C 0.2941(5) 0.9274(4) 0.0249(3)
N4 N 0.1832(4) 0.9879(3) -0.1034(3)
C8 C 0.7073(5) 0.5785(3) 0.7568(4)
N5 N 0.6251(5) 0.5342(3) 0.9060(3)
N6 N 0.7158(5) 0.6057(3) 0.8642(3)
C9 C 0.5010(5) 0.9109(4) 0.1838(3)
H3 H 0.5862 0.8673 0.1894
H4 H 0.5412 0.9782 0.1657
C10 C 1.0617(5) 0.7416(3) 0.2481(3)
H5 H 1.1206 0.7112 0.2961
H6 H 1.1325 0.7864 0.2167
C11 C 0.7762(5) 0.3862(3) 0.2672(4)
N7 N 0.7034(5) 0.2895(3) 0.2779(3)
H7 H 0.6855 0.2847 0.3434
H8 H 0.6750 0.2329 0.2191
N8 N 0.4462(5) 0.3753(3) 0.8472(4)
H9 H 0.4317 0.3753 0.9147
H10 H 0.3969 0.3246 0.7922
C12 C 0.5463(5) 0.4549(4) 0.8277(4)
N9 N 0.1324(5) 1.1785(3) -0.0220(4)
H11 H 0.0989 1.1827 -0.0847
H12 H 0.1339 1.2375 0.0374
H13 H 0.864(6) 1.045(4) 0.2691(18)
H14 H 0.740(4) 1.243(3) 0.523(4)
H15 H 0.953(4) 1.119(4) 0.364(4)
H16 H 0.587(2) 1.196(4) 0.527(4)
O2A O 0.7087(3) 1.0386(2) 0.6959(2)
La1A La 0.24268(2) 1.015475(17) 0.515506(17)
La1A_2 La 1.24268(2) 1.015475(17) 0.515506(17)
O6A O 0.4827(3) 1.0269(2) 0.6185(2)
O8A O 0.9868(3) 1.1045(2) 0.5895(2)
O9 O 0.1260(4) 0.6431(3) 0.4902(3)
H17 H 0.052(4) 0.628(4) 0.443(3)
H18 H 0.147(5) 0.594(3) 0.521(4)
loop_
_geom_bond_atom_site_label_1
_geom_bond_atom_site_label_2
_geom_bond_site_symmetry_1
_geom_bond_site_symmetry_2
O1 La1 1_555 1_555
O2 C1 1_555 1_555
O3 La1 1_555 1_555
La1 O4 1_555 1_555
S1 C8 1_555 1_555
S2 C7 1_555 1_555
S3 C5 1_555 1_555
S4 C3 1_555 1_555
S5 C3 1_555 1_555
S6 C6 1_555 1_555
O4 C4 1_555 1_555
O5 La1 1_555 1_555
O6 La1 1_555 1_555
O7 La1 1_555 1_555
O8 La1 1_555 1_555
C1 O6 1_555 1_555
C2 O7 1_555 1_555
N1 C3 1_555 1_555
N2 N1 1_555 1_555
C4 O5 1_555 1_555
C5 C4 1_555 1_555
H1 C5 1_555 1_555
H2 C5 1_555 1_555
N3 C7 1_555 1_555
C6 N4 1_555 1_555
C7 S6 1_555 1_555
N4 N3 1_555 1_555
C8 S3 1_555 1_555
N5 N6 1_555 1_555
N6 C8 1_555 1_555
C9 S2 1_555 1_555
H3 C9 1_555 1_555
H4 C9 1_555 1_555
C10 S4 1_555 1_555
H5 C10 1_555 1_555
H6 C10 1_555 1_555
C11 S5 1_555 1_555
N7 C11 1_555 1_555
H7 N7 1_555 1_555
H8 N7 1_555 1_555
N8 H9 1_555 1_555
H10 N8 1_555 1_555
C12 S1 1_555 1_555
N9 C6 1_555 1_555
H11 N9 1_555 1_555
H12 N9 1_555 1_555
H13 O3 1_555 1_555
H14 O1 1_555 1_555
H15 O3 1_555 1_555
H16 O1 1_555 1_555
O9 H17 1_555 1_555
H18 O9 1_555 1_555
O2A La1 1_555 1_555
La1A O2 1_555 1_555
La1A_2 O8 1_555 1_555
O6A La1 1_555 1_555
O8A La1 1_555 1_555
O6 La1A 1_555 1_555
O8 C2 1_555 1_555
C1 C9 1_555 1_555
C2 C10 1_555 1_555
N2 C11 1_555 1_555
N5 C12 1_555 1_555
N8 C12 1_555 1_555
La1A O6A 1_555 1_555
La1A_2 O8A 1_555 1_555

#END
