
#######################################################################
#
#                 Cambridge Crystallographic Data Centre
#                                CCDC 
#
#######################################################################
#
# If this CIF has been generated from an entry in the Cambridge 
# Structural Database, then it will include bibliographic, chemical, 
# crystal, experimental, refinement or atomic coordinate data resulting 
# from the CCDC's data processing and validation procedures.
#
#######################################################################

data_SIRMEN
_symmetry_cell_setting           triclinic
_symmetry_space_group_name_H-M   'P -1'
_symmetry_Int_Tables_number      2
_space_group_name_Hall           '-P 1'
loop_
_symmetry_equiv_pos_site_id
_symmetry_equiv_pos_as_xyz
1 x,y,z
2 -x,-y,-z
_cell_length_a                   8.834(4)
_cell_length_b                   12.283(5)
_cell_length_c                   12.510(5)
_cell_angle_alpha                108.543(3)
_cell_angle_beta                 90.076(3)
_cell_angle_gamma                94.688(3)
_cell_volume                     1282.12
loop_
_atom_site_label
_atom_site_type_symbol
_atom_site_fract_x
_atom_site_fract_y
_atom_site_fract_z
Nd1 Nd 0.23838(2) 0.016705(15) 1.017107(16)
C1 C 0.2851(4) 0.2261(3) 0.9521(3)
C2 C 0.3277(4) 0.3258(3) 0.9106(3)
H1 H 0.4215 0.3129 0.8700
H2 H 0.3459 0.3954 0.9748
C3 C 0.2922(4) 0.4225(3) 0.7462(3)
C4 C 0.4549(5) 0.5470(3) 0.6744(3)
C5 C 0.4393(4) -0.0487(3) 0.7996(3)
C6 C 0.5019(4) -0.0879(3) 0.6829(3)
H3 H 0.5884 -0.1312 0.6849
H4 H 0.5393 -0.0201 0.6638
C7 C 0.2915(4) -0.0722(3) 0.5268(3)
C8 C 0.1802(5) 0.0812(4) 0.4853(4)
C9 C 0.0433(4) 0.1759(3) 1.1768(3)
C10 C -0.0639(4) 0.2568(3) 1.2500(3)
H5 H -0.1355 0.2118 1.2812
H6 H -0.1216 0.2874 1.2016
C11 C 0.1017(4) 0.4630(3) 1.2901(3)
C12 C 0.2245(4) 0.6147(3) 1.2328(3)
N1 N 0.2837(4) 0.3954(3) 0.6385(3)
N2 N 0.3764(4) 0.4665(3) 0.5955(3)
N3 N 0.5557(4) 0.6265(3) 0.6537(3)
H7 H 0.5707 0.6255 0.5855
H8 H 0.6047 0.6780 0.7088
N4 N 0.2476(4) -0.0983(3) 0.4228(3)
N5 N 0.1797(4) -0.0116(3) 0.3977(3)
N6 N 0.1308(5) 0.1801(3) 0.4806(3)
H9 H 0.0967 0.1844 0.4178
H10 H 0.1333 0.2392 0.5405
N7 N 0.1065(4) 0.4372(3) 1.1825(3)
N8 N 0.1788(4) 0.5253(3) 1.1475(3)
N9 N 0.2983(4) 0.7116(3) 1.2227(3)
H11 H 0.3174 0.7165 1.1570
H12 H 0.3261 0.7683 1.2821
O1 O 0.3836(3) 0.1992(2) 1.0105(2)
O2 O 0.1579(3) 0.1714(2) 0.9290(2)
O3 O 0.5324(3) -0.0296(2) 0.8796(2)
O4 O 0.3024(3) -0.0345(2) 0.8124(2)
O5 O 0.1807(3) 0.1809(2) 1.2020(2)
O6 O -0.0156(2) 0.10038(18) 1.08774(18)
O7 O 0.1314(3) -0.0769(2) 1.1586(2)
O8 O 0.3150(3) -0.1823(2) 0.9652(2)
S1 S 0.18190(11) 0.34632(9) 0.81912(9)
S2 S 0.41742(13) 0.54307(9) 0.80895(9)
S3 S 0.37338(14) -0.17463(9) 0.57266(9)
S4 S 0.25260(15) 0.06554(10) 0.60861(9)
S5 S 0.01901(12) 0.37609(8) 1.36419(8)
S6 S 0.18470(14) 0.59882(9) 1.36333(9)
H13 H 0.048(3) -0.115(3) 1.136(3)
H14 H 0.142(4) -0.046(3) 1.2299(16)
H15 H 0.409(2) -0.189(4) 0.970(4)
H16 H 0.258(3) -0.234(3) 0.978(3)
Nd1A Nd -0.23838(2) -0.016705(15) 0.982893(16)
Nd1A_2 Nd 0.76162(2) -0.016705(15) 0.982893(16)
O3A O 0.4676(3) 0.0296(2) 1.1204(2)
O6A O 0.0156(2) -0.10038(18) 0.91226(18)
O9 O 0.1260(4) 0.6453(3) 0.9907(3)
H17 H 0.052(4) 0.629(4) 0.944(4)
H18 H 0.139(5) 0.595(3) 1.024(4)
loop_
_geom_bond_atom_site_label_1
_geom_bond_atom_site_label_2
_geom_bond_site_symmetry_1
_geom_bond_site_symmetry_2
Nd1 O1 1_555 1_555
C1 C2 1_555 1_555
C2 H1 1_555 1_555
H2 C2 1_555 1_555
C3 N1 1_555 1_555
C4 N2 1_555 1_555
C5 C6 1_555 1_555
C6 H3 1_555 1_555
H4 C6 1_555 1_555
C7 N4 1_555 1_555
C8 N5 1_555 1_555
C9 C10 1_555 1_555
C10 H5 1_555 1_555
H6 C10 1_555 1_555
C11 N7 1_555 1_555
C12 N8 1_555 1_555
N1 N2 1_555 1_555
N3 C4 1_555 1_555
H7 N3 1_555 1_555
H8 N3 1_555 1_555
N4 N5 1_555 1_555
N6 C8 1_555 1_555
H9 N6 1_555 1_555
H10 N6 1_555 1_555
N7 N8 1_555 1_555
N9 C12 1_555 1_555
H11 N9 1_555 1_555
H12 N9 1_555 1_555
O1 C1 1_555 1_555
O2 Nd1 1_555 1_555
O3 C5 1_555 1_555
O4 Nd1 1_555 1_555
O5 Nd1 1_555 1_555
O6 Nd1 1_555 1_555
O7 Nd1 1_555 1_555
O8 Nd1 1_555 1_555
S1 C2 1_555 1_555
S2 C3 1_555 1_555
S3 C6 1_555 1_555
S4 C7 1_555 1_555
S5 C10 1_555 1_555
S6 C11 1_555 1_555
H13 O7 1_555 1_555
H14 O7 1_555 1_555
H15 O8 1_555 1_555
H16 O8 1_555 1_555
O9 H17 1_555 1_555
H18 O9 1_555 1_555
Nd1A O6 1_555 1_555
Nd1A_2 O3 1_555 1_555
O3A Nd1 1_555 1_555
O6A Nd1 1_555 1_555
C1 O2 1_555 1_555
C3 S1 1_555 1_555
C4 S2 1_555 1_555
C5 O4 1_555 1_555
C7 S3 1_555 1_555
C8 S4 1_555 1_555
C9 O5 1_555 1_555
C9 O6 1_555 1_555
C11 S5 1_555 1_555
C12 S6 1_555 1_555
Nd1A O6A 1_555 1_555

#END
