
#######################################################################
#
#                 Cambridge Crystallographic Data Centre
#                                CCDC 
#
#######################################################################
#
# If this CIF has been generated from an entry in the Cambridge 
# Structural Database, then it will include bibliographic, chemical, 
# crystal, experimental, refinement or atomic coordinate data resulting 
# from the CCDC's data processing and validation procedures.
#
#######################################################################

data_SIRPOZ
_symmetry_cell_setting           monoclinic
_symmetry_space_group_name_H-M   'C c'
_symmetry_Int_Tables_number      9
_space_group_name_Hall           'C -2yc'
loop_
_symmetry_equiv_pos_site_id
_symmetry_equiv_pos_as_xyz
1 x,y,z
2 x,-y,1/2+z
3 1/2+x,1/2+y,z
4 1/2+x,1/2-y,1/2+z
_cell_length_a                   9.6194(13)
_cell_length_b                   41.055(5)
_cell_length_c                   6.5436(9)
_cell_angle_alpha                90
_cell_angle_beta                 132.651(8)
_cell_angle_gamma                90
_cell_volume                     1900.68
loop_
_atom_site_label
_atom_site_type_symbol
_atom_site_fract_x
_atom_site_fract_y
_atom_site_fract_z
Ca1 Ca -0.2396(4) 0.51952(7) -0.2197(6)
C1 C -0.3119(4) 0.36259(7) -0.0845(6)
C2 C -0.3722(4) 0.35058(7) 0.0432(6)
H1 H -0.4138 0.3649 0.1024
C3 C -0.3702(4) 0.31724(7) 0.0825(6)
H2 H -0.4106 0.3092 0.1679
C4 C -0.3080(4) 0.29591(7) -0.0059(6)
H3 H -0.3066 0.2736 0.0202
C5 C -0.2477(4) 0.30792(7) -0.1336(6)
H4 H -0.2060 0.2936 -0.1928
C6 C -0.2496(4) 0.34126(7) -0.1729(6)
H5 H -0.2093 0.3493 -0.2583
C7 C -0.314(4) 0.3968(6) -0.119(5)
H6 H -0.3347 0.4091 -0.0217
C8 C -0.293(2) 0.4145(4) -0.269(4)
H7 H -0.2705 0.4037 -0.3692
C9 C -0.3023(12) 0.4502(2) -0.2794(18)
O1 O -0.309(2) 0.4654(3) -0.448(3)
O2 O -0.311(2) 0.4655(3) -0.127(2)
O5 O 0.0262(17) 0.4994(3) 0.294(2)
O6 O -0.0442(16) 0.5672(3) -0.023(2)
O7 O -0.5560(18) 0.5403(4) -0.529(3)
Ca1A Ca -0.2396(4) 0.48048(7) -0.7197(6)
Ca1A_2 Ca -0.2396(4) 0.48048(7) 0.2803(6)
O1A O -0.309(2) 0.5346(3) 0.052(3)
O2A O -0.311(2) 0.5345(3) -0.627(2)
O5A O 0.0262(17) 0.5006(3) -0.206(2)
C10 C 0.2053(12) 0.3387(2) 0.0194(18)
C11 C 0.2677(12) 0.3179(2) 0.2351(18)
H8 H 0.3105 0.3264 0.4011
C12 C 0.2661(12) 0.2844(2) 0.2028(18)
H9 H 0.3079 0.2705 0.3470
C13 C 0.2022(12) 0.2718(2) -0.0452(18)
H10 H 0.2010 0.2494 -0.0671
C14 C 0.1398(12) 0.2926(2) -0.2609(18)
H11 H 0.0970 0.2841 -0.4269
C15 C 0.1413(12) 0.3261(2) -0.2286(18)
H12 H 0.0996 0.3400 -0.3728
C16 C 0.197(4) 0.3740(6) 0.036(6)
H13 H 0.1744 0.3858 -0.1054
C17 C 0.217(3) 0.3925(5) 0.230(5)
H14 H 0.2485 0.3819 0.3828
C18 C 0.192(3) 0.4273(5) 0.212(4)
O3 O 0.1995(18) 0.4406(3) 0.394(3)
O4 O 0.1979(19) 0.4419(3) 0.043(3)
loop_
_geom_bond_atom_site_label_1
_geom_bond_atom_site_label_2
_geom_bond_site_symmetry_1
_geom_bond_site_symmetry_2
Ca1 O1 1_555 1_555
C1 C2 1_555 1_555
C2 H1 1_555 1_555
C3 C2 1_555 1_555
H2 C3 1_555 1_555
C4 C3 1_555 1_555
H3 C4 1_555 1_555
C5 C4 1_555 1_555
H4 C5 1_555 1_555
C6 C1 1_555 1_555
H5 C6 1_555 1_555
C7 C1 1_555 1_555
H6 C7 1_555 1_555
C8 C7 1_555 1_555
H7 C8 1_555 1_555
C9 C8 1_555 1_555
C10 C11 1_555 1_555
C11 H8 1_555 1_555
C12 C11 1_555 1_555
H9 C12 1_555 1_555
C13 C12 1_555 1_555
H10 C13 1_555 1_555
C14 C13 1_555 1_555
H11 C14 1_555 1_555
C15 C10 1_555 1_555
H12 C15 1_555 1_555
C16 C10 1_555 1_555
H13 C16 1_555 1_555
C17 C16 1_555 1_555
H14 C17 1_555 1_555
C18 C17 1_555 1_555
O1 C9 1_555 1_555
O2 Ca1 1_555 1_555
O3 C18 1_555 1_555
O4 C18 1_555 1_555
O5 Ca1 1_555 1_555
O6 Ca1 1_555 1_555
O7 Ca1 1_555 1_555
Ca1A O1 1_555 1_555
Ca1A_2 O2 1_555 1_555
O1A Ca1 1_555 1_555
O2A Ca1 1_555 1_555
O5A Ca1 1_555 1_555
C5 C6 1_555 1_555
C9 O2 1_555 1_555
C14 C15 1_555 1_555
O5 Ca1A_2 1_555 1_555
Ca1A O2A 1_555 1_555
Ca1A O5A 1_555 1_555
Ca1A_2 O1A 1_555 1_555

#END
