
#######################################################################
#
#                 Cambridge Crystallographic Data Centre
#                                CCDC 
#
#######################################################################
#
# If this CIF has been generated from an entry in the Cambridge 
# Structural Database, then it will include bibliographic, chemical, 
# crystal, experimental, refinement or atomic coordinate data resulting 
# from the CCDC's data processing and validation procedures.
#
#######################################################################

data_SIRPEP
_symmetry_cell_setting           orthorhombic
_symmetry_space_group_name_H-M   'P 21 21 21'
_symmetry_Int_Tables_number      19
_space_group_name_Hall           'P 2ac 2ab'
loop_
_symmetry_equiv_pos_site_id
_symmetry_equiv_pos_as_xyz
1 x,y,z
2 1/2-x,-y,1/2+z
3 -x,1/2+y,1/2-z
4 1/2+x,1/2-y,-z
_cell_length_a                   7.253(2)
_cell_length_b                   12.144(4)
_cell_length_c                   16.001(5)
_cell_angle_alpha                90
_cell_angle_beta                 90
_cell_angle_gamma                90
_cell_volume                     1409.37
loop_
_atom_site_label
_atom_site_type_symbol
_atom_site_fract_x
_atom_site_fract_y
_atom_site_fract_z
Cu1 Cu -0.04038(6) 1.11972(3) 0.04043(3)
N1 N 0.0158(4) 1.0053(2) -0.03772(16)
O1 O -0.0933(4) 1.0209(2) 0.12730(14)
O2 O 0.1201(4) 1.2245(2) -0.01403(17)
O3 O 0.3364(4) 1.2672(2) -0.10538(16)
C1 C -0.0102(4) 0.8516(3) 0.05996(19)
C2 C -0.0754(4) 0.9148(3) 0.1286(2)
C3 C -0.1266(5) 0.8594(3) 0.2037(2)
H1 H -0.1725 0.9000 0.2484
C4 C -0.1097(6) 0.7496(3) 0.2110(2)
H2 H -0.1424 0.7164 0.2612
C5 C -0.0442(5) 0.6829(3) 0.1452(2)
C6 C 0.0016(4) 0.7328(3) 0.06744(19)
C7 C 0.0537(5) 0.6627(3) 0.0024(2)
H3 H 0.0843 0.6926 -0.0492
C8 C 0.0607(5) 0.5506(3) 0.0130(2)
H4 H 0.0914 0.5060 -0.0322
C9 C 0.0227(5) 0.5027(3) 0.0902(2)
H5 H 0.0337 0.4270 0.0977
C10 C -0.0306(6) 0.5683(3) 0.1540(2)
H6 H -0.0590 0.5365 0.2053
C11 C 0.0322(5) 0.9011(2) -0.01706(19)
H7 H 0.0772 0.8544 -0.0584
C12 C 0.0433(5) 1.0330(3) -0.1237(2)
C13 C 0.1303(4) 1.1310(3) -0.1459(2)
C14 C 0.1645(5) 1.1512(3) -0.2302(2)
H8 H 0.2255 1.2154 -0.2456
C15 C 0.1102(5) 1.0785(3) -0.2910(2)
H9 H 0.1343 1.0935 -0.3470
C16 C 0.0192(6) 0.9828(3) -0.2687(2)
H10 H -0.0180 0.9331 -0.3096
C17 C -0.0156(5) 0.9614(3) -0.1862(2)
H11 H -0.0797 0.8980 -0.1716
C18 C 0.1993(5) 1.2121(3) -0.0837(2)
Cu1C Cu 0.45962(6) 1.38028(3) -0.04043(3)
O3C O -0.1636(4) 1.2328(2) 0.10538(16)
loop_
_geom_bond_atom_site_label_1
_geom_bond_atom_site_label_2
_geom_bond_site_symmetry_1
_geom_bond_site_symmetry_2
Cu1 N1 1_555 1_555
N1 C11 1_555 1_555
O1 Cu1 1_555 1_555
O2 Cu1 1_555 1_555
O3 C18 1_555 1_555
C1 C2 1_555 1_555
C2 O1 1_555 1_555
C3 C2 1_555 1_555
H1 C3 1_555 1_555
C4 C3 1_555 1_555
H2 C4 1_555 1_555
C5 C4 1_555 1_555
C6 C1 1_555 1_555
C7 C6 1_555 1_555
H3 C7 1_555 1_555
C8 C7 1_555 1_555
H4 C8 1_555 1_555
C9 C8 1_555 1_555
H5 C9 1_555 1_555
C10 C5 1_555 1_555
H6 C10 1_555 1_555
C11 C1 1_555 1_555
H7 C11 1_555 1_555
C12 N1 1_555 1_555
C13 C12 1_555 1_555
C14 C13 1_555 1_555
H8 C14 1_555 1_555
C15 C14 1_555 1_555
H9 C15 1_555 1_555
C16 C15 1_555 1_555
H10 C16 1_555 1_555
C17 C12 1_555 1_555
H11 C17 1_555 1_555
C18 O2 1_555 1_555
Cu1C O3 1_555 1_555
O3C Cu1 1_555 1_555
C5 C6 1_555 1_555
C9 C10 1_555 1_555
C13 C18 1_555 1_555
C16 C17 1_555 1_555

#END
