
#######################################################################
#
#                 Cambridge Crystallographic Data Centre
#                                CCDC 
#
#######################################################################
#
# If this CIF has been generated from an entry in the Cambridge 
# Structural Database, then it will include bibliographic, chemical, 
# crystal, experimental, refinement or atomic coordinate data resulting 
# from the CCDC's data processing and validation procedures.
#
#######################################################################

data_SIRPUF
_symmetry_cell_setting           monoclinic
_symmetry_space_group_name_H-M   'C c'
_symmetry_Int_Tables_number      9
_space_group_name_Hall           'C -2yc'
loop_
_symmetry_equiv_pos_site_id
_symmetry_equiv_pos_as_xyz
1 x,y,z
2 x,-y,1/2+z
3 1/2+x,1/2+y,z
4 1/2+x,1/2-y,1/2+z
_cell_length_a                   42.188(2)
_cell_length_b                   3.9826(2)
_cell_length_c                   11.4451(6)
_cell_angle_alpha                90
_cell_angle_beta                 90.012(2)
_cell_angle_gamma                90
_cell_volume                     1922.98
loop_
_atom_site_label
_atom_site_type_symbol
_atom_site_fract_x
_atom_site_fract_y
_atom_site_fract_z
K1 K 0.24221(9) 0.0121(8) 0.4603(3)
K2 K 0.29444(9) -0.4984(8) 0.7103(3)
Br1 Br 0.48911(4) -0.0841(5) 0.43894(13)
Br2 Br 0.04758(4) -0.5079(7) 0.18830(14)
C1 C 0.39888(4) -0.2220(7) 0.29291(14)
C2 C 0.42328(4) -0.1052(7) 0.36372(14)
H1 H 0.4186 0.0176 0.4307
C3 C 0.45462(4) -0.1720(7) 0.33447(14)
C4 C 0.46157(4) -0.3556(7) 0.23441(14)
H2 H 0.4825 -0.4003 0.2148
C5 C 0.43718(4) -0.4724(7) 0.16361(14)
H3 H 0.4418 -0.5952 0.0967
C6 C 0.40583(4) -0.4056(7) 0.19286(14)
H4 H 0.3895 -0.4837 0.1455
C7 C 0.3661(5) -0.120(6) 0.325(2)
H5 H 0.3525 -0.0618 0.2646
C8 C 0.3541(4) -0.103(4) 0.4356(13)
H6 H 0.3670 -0.1503 0.4993
C9 C 0.3191(2) -0.006(2) 0.4550(7)
C10 C 0.1367(2) -0.689(2) 0.0436(7)
C11 C 0.1117(2) -0.585(2) 0.1140(7)
H7 H 0.1157 -0.4620 0.1814
C12 C 0.0808(2) -0.666(2) 0.0834(7)
C13 C 0.0748(2) -0.850(2) -0.0174(7)
H8 H 0.0541 -0.9034 -0.0378
C14 C 0.0998(2) -0.953(2) -0.0878(7)
H9 H 0.0958 -1.0760 -0.1552
C15 C 0.1308(2) -0.872(2) -0.0572(7)
H10 H 0.1475 -0.9417 -0.1043
C16 C 0.1704(4) -0.561(9) 0.076(2)
H11 H 0.1840 -0.5244 0.0135
C17 C 0.1823(6) -0.498(6) 0.1814(18)
H12 H 0.1685 -0.4557 0.2431
C18 C 0.2164(4) -0.493(4) 0.2028(16)
O1 O 0.3108(3) 0.006(2) 0.5601(10)
O2 O 0.3018(3) 0.013(3) 0.3671(10)
O3 O 0.2258(3) -0.496(3) 0.3091(9)
O4 O 0.2354(3) -0.505(3) 0.1174(9)
K1_2 K 0.24221(9) -0.9879(8) 0.4603(3)
K1A K 0.24221(9) -1.0121(8) -0.0397(3)
K1A_2 K 0.24221(9) -0.0121(8) -0.0397(3)
K2_2 K 0.29444(9) 0.5016(8) 0.7103(3)
K2A K 0.29444(9) -0.5016(8) 0.2103(3)
K2A_2 K 0.29444(9) 0.4984(8) 0.2103(3)
O1_2 O 0.3108(3) -0.994(2) 0.5601(10)
O2A O 0.3018(3) -1.013(3) 0.8671(10)
O2A_2 O 0.3018(3) -0.013(3) 0.8671(10)
O3_2 O 0.2258(3) 0.504(3) 0.3091(9)
O3A O 0.2258(3) -0.504(3) 0.8091(9)
O4A O 0.2354(3) -0.495(3) 0.6174(9)
O4A_2 O 0.2354(3) 0.505(3) 0.6174(9)
loop_
_geom_bond_atom_site_label_1
_geom_bond_atom_site_label_2
_geom_bond_site_symmetry_1
_geom_bond_site_symmetry_2
K1 O1 1_555 1_555
K2 O1 1_555 1_555
Br1 C3 1_555 1_555
Br2 C12 1_555 1_555
C1 C2 1_555 1_555
C2 H1 1_555 1_555
C3 C2 1_555 1_555
C4 C3 1_555 1_555
H2 C4 1_555 1_555
C5 C4 1_555 1_555
H3 C5 1_555 1_555
C6 C1 1_555 1_555
H4 C6 1_555 1_555
C7 C1 1_555 1_555
H5 C7 1_555 1_555
C8 C7 1_555 1_555
H6 C8 1_555 1_555
C9 C8 1_555 1_555
C10 C11 1_555 1_555
C11 H7 1_555 1_555
C12 C11 1_555 1_555
C13 C12 1_555 1_555
H8 C13 1_555 1_555
C14 C13 1_555 1_555
H9 C14 1_555 1_555
C15 C10 1_555 1_555
H10 C15 1_555 1_555
C16 C10 1_555 1_555
H11 C16 1_555 1_555
C17 C16 1_555 1_555
H12 C17 1_555 1_555
C18 C17 1_555 1_555
O1 C9 1_555 1_555
O2 K1 1_555 1_555
O3 K1 1_555 1_555
O4 C18 1_555 1_555
K1_2 O3 1_555 1_555
K1A O4 1_555 1_555
K1A_2 O4 1_555 1_555
K2_2 O1 1_555 1_555
K2A O2 1_555 1_555
K2A_2 O2 1_555 1_555
O1_2 K2 1_555 1_555
O2A K2 1_555 1_555
O2A_2 K2 1_555 1_555
O3_2 K1 1_555 1_555
O3A K2 1_555 1_555
O4A K1 1_555 1_555
O4A_2 K1 1_555 1_555
K2 O4A 1_555 1_555
C5 C6 1_555 1_555
C9 O2 1_555 1_555
C14 C15 1_555 1_555
C18 O3 1_555 1_555
O3 K2A 1_555 1_555
O4 K2A 1_555 1_555
K1_2 O1_2 1_555 1_555
K1_2 O4A 1_555 1_555
K2_2 O2A_2 1_555 1_555
K2_2 O4A_2 1_555 1_555
K2A_2 O3_2 1_555 1_555

#END
