
#######################################################################
#
#                 Cambridge Crystallographic Data Centre
#                                CCDC 
#
#######################################################################
#
# If this CIF has been generated from an entry in the Cambridge 
# Structural Database, then it will include bibliographic, chemical, 
# crystal, experimental, refinement or atomic coordinate data resulting 
# from the CCDC's data processing and validation procedures.
#
#######################################################################

data_SIRRES
_symmetry_cell_setting           triclinic
_symmetry_space_group_name_H-M   'P -1'
_symmetry_Int_Tables_number      2
_space_group_name_Hall           '-P 1'
loop_
_symmetry_equiv_pos_site_id
_symmetry_equiv_pos_as_xyz
1 x,y,z
2 -x,-y,-z
_cell_length_a                   12.1624(9)
_cell_length_b                   13.1051(13)
_cell_length_c                   17.8595(16)
_cell_angle_alpha                106.905(5)
_cell_angle_beta                 94.129(2)
_cell_angle_gamma                97.344(4)
_cell_volume                     2683.33
loop_
_atom_site_label
_atom_site_type_symbol
_atom_site_fract_x
_atom_site_fract_y
_atom_site_fract_z
Co1 Co 0.19482(4) -0.13232(4) 0.32631(3)
Co2 Co 0.12843(4) 0.05867(4) 0.22784(3)
S1 S 0.82991(8) 0.29968(8) 0.41725(7)
S2 S 0.41353(10) -0.39734(9) -0.12952(6)
O1 O 0.0954(2) -0.0144(2) 0.31907(16)
H1 H 0.1161 0.0492 0.3552
H2 H 0.0221 -0.0264 0.3156
O2 O 0.2979(2) 0.0901(2) 0.26797(18)
O3 O 0.3298(2) -0.0074(2) 0.34986(19)
O4 O 0.8846(3) 0.7893(2) 0.68981(17)
O5 O -0.0499(3) -0.7472(2) -0.30951(19)
O6 O 0.1838(3) -0.0911(2) 0.44803(18)
H3 H 0.2156 -0.0336 0.4797
H4 H 0.1503 -0.1303 0.4721
O7 O 0.2050(3) -0.1869(3) 0.20787(18)
O8 O 0.8845(2) 0.2409(2) 0.4615(2)
O9 O 0.0786(3) -0.8574(3) -0.3331(2)
O10 O 0.1467(3) -0.0810(2) 0.14049(18)
O11 O 0.8490(3) 0.8302(2) 0.57850(18)
O12 O 0.8671(3) 0.3063(3) 0.3436(2)
O13 O 0.5021(3) -0.4446(3) -0.1015(2)
O14 O 0.4370(3) -0.3254(3) -0.1761(2)
N1 N 0.3054(3) -0.2436(3) 0.3353(2)
N2 N -0.0492(3) 0.0236(3) 0.1934(2)
N3 N 0.1523(3) 0.1531(3) 0.1471(2)
N4 N 0.5346(3) -0.4896(3) 0.4285(2)
N5 N -0.4349(3) 0.0084(3) 0.0731(2)
N6 N 0.0674(3) 0.4184(3) 0.0022(2)
C1 C 0.8404(3) 0.4342(3) 0.4787(2)
C2 C 0.8657(3) 0.7649(3) 0.6160(3)
C3 C 0.8409(4) 0.6197(3) 0.4877(3)
H5 H 0.8360 0.6731 0.4633
C4 C 0.2304(4) -0.2000(4) 0.0053(3)
H6 H 0.1848 -0.1504 -0.0007
C5 C 0.6869(3) 0.2422(3) 0.3955(3)
C6 C 0.8292(4) 0.5130(3) 0.4423(3)
H7 H 0.8139 0.4942 0.3878
C7 C 0.2104(4) -0.4823(4) -0.2190(3)
H8 H 0.2015 -0.4115 -0.2149
C8 C 0.3485(4) -0.3282(3) -0.0484(2)
C9 C 0.2468(3) -0.2201(3) 0.0784(2)
C10 C 0.4715(3) 0.1310(3) 0.3479(2)
C11 C 0.1415(4) -0.6721(3) -0.2694(2)
C12 C 0.8716(4) 0.5688(3) 0.6035(3)
H9 H 0.8855 0.5880 0.6581
C13 C 0.3075(4) -0.5043(3) -0.1850(2)
C14 C 0.3657(4) -0.3505(3) 0.0227(2)
H10 H 0.4105 -0.4009 0.0282
C15 C 0.6424(4) 0.1727(4) 0.4351(3)
H11 H 0.6846 0.1628 0.4772
C16 C 0.3562(3) 0.0670(3) 0.3192(2)
C17 C 0.5160(3) 0.2039(3) 0.3104(3)
H12 H 0.4732 0.2151 0.2690
C18 C 0.6226(3) 0.2594(3) 0.3341(3)
H13 H 0.6515 0.3083 0.3091
C19 C 0.0487(4) -0.7672(4) -0.3081(3)
C20 C 0.1955(4) -0.1573(3) 0.1480(2)
C21 C 0.2780(4) -0.3498(4) 0.3043(3)
H14 H 0.2064 -0.3774 0.2786
C22 C 0.8636(3) 0.4603(3) 0.5593(3)
H15 H 0.8736 0.4077 0.5835
C23 C 0.3130(4) -0.2941(4) 0.0859(3)
H16 H 0.3234 -0.3075 0.1341
C24 C -0.2810(4) -0.0160(4) 0.1576(3)
C25 C 0.8596(3) 0.6482(3) 0.5684(2)
C26 C 0.2818(4) -0.2540(4) -0.0571(3)
H17 H 0.2717 -0.2403 -0.1052
C27 C 0.1271(4) -0.5667(3) -0.2588(3)
H18 H 0.0602 -0.5520 -0.2789
C28 C 0.2414(4) -0.6926(4) -0.2389(3)
H19 H 0.2535 -0.7635 -0.2476
C29 C 0.0828(4) 0.2134(5) 0.0424(3)
H20 H 0.0287 0.2028 0.0002
C30 C 0.5349(4) 0.1186(4) 0.4113(3)
H21 H 0.5045 0.0729 0.4383
C31 C 0.1669(4) 0.3011(4) 0.0615(3)
C32 C 0.4586(4) -0.3825(4) 0.3455(3)
C33 C 0.3511(5) -0.4220(4) 0.3085(3)
H22 H 0.3279 -0.4959 0.2867
C34 C 0.0709(5) 0.4728(5) -0.0589(3)
H23 H 0.0888 0.4241 -0.1072
H24 H 0.1290 0.5354 -0.0422
C35 C 0.5559(4) -0.3987(4) 0.5007(3)
H25 H 0.4945 -0.3576 0.5050
H26 H 0.6236 -0.3514 0.4998
C36 C 0.4318(4) -0.5581(4) 0.4296(3)
H27 H 0.4158 -0.6176 0.3811
H28 H 0.3703 -0.5171 0.4340
C37 C -0.2238(4) 0.0873(4) 0.1936(3)
H29 H -0.2626 0.1456 0.2063
C38 C 0.0383(5) 0.4927(4) 0.0739(3)
H30 H 0.0959 0.5556 0.0924
H31 H 0.0345 0.4574 0.1146
C39 C 0.5410(4) -0.4567(4) 0.3573(3)
H32 H 0.5285 -0.5210 0.3121
H33 H 0.6161 -0.4202 0.3587
C40 C 0.3225(4) -0.6095(4) -0.1961(3)
H34 H 0.3881 -0.6244 -0.1744
C41 C -0.1094(4) 0.1038(4) 0.2107(3)
H35 H -0.0727 0.1737 0.2353
C42 C 0.4889(4) -0.2720(4) 0.3742(3)
H36 H 0.5613 -0.2420 0.3974
C43 C -0.4065(4) -0.0325(5) 0.1375(3)
H37 H -0.4359 -0.1088 0.1231
H38 H -0.4402 0.0046 0.1833
C44 C -0.5521(4) 0.0269(5) 0.0702(3)
H39 H -0.5626 0.0799 0.1189
H40 H -0.6006 -0.0399 0.0657
C45 C -0.4157(4) -0.0666(4) -0.0013(3)
H41 H -0.4592 -0.1368 -0.0084
H42 H -0.3375 -0.0747 0.0002
C46 C -0.2181(4) -0.0982(4) 0.1407(3)
H43 H -0.2533 -0.1689 0.1172
C47 C 0.2333(4) 0.2377(4) 0.1651(3)
H44 H 0.2857 0.2476 0.2082
C48 C 0.1749(5) 0.3814(5) 0.0159(4)
H45 H 0.2300 0.4434 0.0445
H46 H 0.2005 0.3487 -0.0345
C49 C 0.0787(4) 0.1423(4) 0.0849(3)
H47 H 0.0218 0.0833 0.0700
C50 C 0.2438(4) 0.3112(4) 0.1239(3)
H48 H 0.3033 0.3678 0.1384
C51 C 0.4108(4) -0.2064(4) 0.3683(3)
H49 H 0.4325 -0.1320 0.3885
C52 C -0.1050(3) -0.0776(2) 0.15792(19)
H50 H -0.0647 -0.1348 0.1450
N1A N 0.6946(3) -0.7564(3) 0.6647(2)
N4A N 0.4654(3) -0.5104(3) 0.5715(2)
C21A C 0.7220(4) -0.6502(4) 0.6957(3)
H14A H 0.7936 -0.6226 0.7214
C32A C 0.5414(4) -0.6175(4) 0.6545(3)
C33A C 0.6489(5) -0.5780(4) 0.6915(3)
H22A H 0.6721 -0.5041 0.7133
C35A C 0.4441(4) -0.6013(4) 0.4993(3)
H25A H 0.5055 -0.6424 0.4950
H26A H 0.3764 -0.6486 0.5002
C36A C 0.5682(4) -0.4419(4) 0.5704(3)
H27A H 0.5842 -0.3824 0.6189
H28A H 0.6297 -0.4829 0.5660
C39A C 0.4590(4) -0.5433(4) 0.6427(3)
H32A H 0.4715 -0.4790 0.6879
H33A H 0.3839 -0.5798 0.6413
C42A C 0.5111(4) -0.7280(4) 0.6258(3)
H36A H 0.4387 -0.7580 0.6026
C51A C 0.5892(4) -0.7936(4) 0.6317(3)
H49A H 0.5675 -0.8680 0.6115
N2A N -0.9508(3) -0.0236(3) -0.1934(2)
N5A N -0.5651(3) -0.0084(3) -0.0731(2)
C24A C -0.7190(4) 0.0160(4) -0.1576(3)
C37A C -0.7762(4) -0.0873(4) -0.1936(3)
H29A H -0.7374 -0.1456 -0.2063
C41A C -0.8906(4) -0.1038(4) -0.2107(3)
H35A H -0.9273 -0.1737 -0.2353
C43A C -0.5935(4) 0.0325(5) -0.1375(3)
H37A H -0.5641 0.1088 -0.1231
H38A H -0.5598 -0.0046 -0.1833
C44A C -0.4479(4) -0.0269(5) -0.0702(3)
H39A H -0.4374 -0.0799 -0.1189
H40A H -0.3994 0.0399 -0.0657
C45A C -0.5843(4) 0.0666(4) 0.0013(3)
H41A H -0.5408 0.1368 0.0084
H42A H -0.6625 0.0747 -0.0002
C46A C -0.7819(4) 0.0982(4) -0.1407(3)
H43A H -0.7467 0.1689 -0.1172
C52A C -0.8950(3) 0.0776(2) -0.15792(19)
H50A H -0.9353 0.1348 -0.1450
N3A N -0.1523(3) 0.8469(3) -0.1471(2)
N6A N -0.0674(3) 0.5816(3) -0.0022(2)
C29A C -0.0828(4) 0.7866(5) -0.0424(3)
H20A H -0.0287 0.7972 -0.0002
C31A C -0.1669(4) 0.6989(4) -0.0615(3)
C34A C -0.0709(5) 0.5272(5) 0.0589(3)
H23A H -0.0888 0.5759 0.1072
H24A H -0.1290 0.4646 0.0422
C38A C -0.0383(5) 0.5073(4) -0.0739(3)
H30A H -0.0959 0.4444 -0.0924
H31A H -0.0345 0.5426 -0.1146
C47A C -0.2333(4) 0.7623(4) -0.1651(3)
H44A H -0.2857 0.7524 -0.2082
C48A C -0.1749(5) 0.6186(5) -0.0159(4)
H45A H -0.2300 0.5566 -0.0445
H46A H -0.2005 0.6513 0.0345
C49A C -0.0787(4) 0.8577(4) -0.0849(3)
H47A H -0.0218 0.9167 -0.0700
C50A C -0.2438(4) 0.6888(4) -0.1239(3)
H48A H -0.3033 0.6322 -0.1384
Co1A Co -1.19482(4) 0.13232(4) -0.32631(3)
Co2A Co -1.12843(4) -0.05867(4) -0.22784(3)
S1A S -1.82991(8) -0.29968(8) -0.41725(7)
S2A S -1.41353(10) 0.39734(9) 0.12952(6)
O1A O -1.0954(2) 0.0144(2) -0.31907(16)
H1A H -1.1161 -0.0492 -0.3552
H2A H -1.0221 0.0264 -0.3156
O2A O -1.2979(2) -0.0901(2) -0.26797(18)
O3A O -1.3298(2) 0.0074(2) -0.34986(19)
O4A O -1.8846(3) -0.7893(2) -0.68981(17)
O5A O -0.9501(3) 0.7472(2) 0.30951(19)
O6A O -1.1838(3) 0.0911(2) -0.44803(18)
H3A H -1.2156 0.0336 -0.4797
H4A H -1.1503 0.1303 -0.4721
O7A O -1.2050(3) 0.1869(3) -0.20787(18)
O8A O -1.8845(2) -0.2409(2) -0.4615(2)
O9A O -1.0786(3) 0.8574(3) 0.3331(2)
O10A O -1.1467(3) 0.0810(2) -0.14049(18)
O11A O -1.8490(3) -0.8302(2) -0.57850(18)
O12A O -1.8671(3) -0.3063(3) -0.3436(2)
O13A O -1.5021(3) 0.4446(3) 0.1015(2)
O14A O -1.4370(3) 0.3254(3) 0.1761(2)
C1A C -1.8404(3) -0.4342(3) -0.4787(2)
C2A C -1.8657(3) -0.7649(3) -0.6160(3)
C3A C -1.8409(4) -0.6197(3) -0.4877(3)
H5A H -1.8360 -0.6731 -0.4633
C4A C -1.2304(4) 0.2000(4) -0.0053(3)
H6A H -1.1848 0.1504 0.0007
C5A C -1.6869(3) -0.2422(3) -0.3955(3)
C6A C -1.8292(4) -0.5130(3) -0.4423(3)
H7A H -1.8139 -0.4942 -0.3878
C7A C -1.2104(4) 0.4823(4) 0.2190(3)
H8A H -1.2015 0.4115 0.2149
C8A C -1.3485(4) 0.3282(3) 0.0484(2)
C9A C -1.2468(3) 0.2201(3) -0.0784(2)
C10A C -1.4715(3) -0.1310(3) -0.3479(2)
C11A C -1.1415(4) 0.6721(3) 0.2694(2)
C12A C -1.8716(4) -0.5688(3) -0.6035(3)
H9A H -1.8855 -0.5880 -0.6581
C13A C -1.3075(4) 0.5043(3) 0.1850(2)
C14A C -1.3657(4) 0.3505(3) -0.0227(2)
H10A H -1.4105 0.4009 -0.0282
C15A C -1.6424(4) -0.1727(4) -0.4351(3)
H11A H -1.6846 -0.1628 -0.4772
C16A C -1.3562(3) -0.0670(3) -0.3192(2)
C17A C -1.5160(3) -0.2039(3) -0.3104(3)
H12A H -1.4732 -0.2151 -0.2690
C18A C -1.6226(3) -0.2594(3) -0.3341(3)
H13A H -1.6515 -0.3083 -0.3091
C19A C -1.0487(4) 0.7672(4) 0.3081(3)
C20A C -1.1955(4) 0.1573(3) -0.1480(2)
C22A C -1.8636(3) -0.4603(3) -0.5593(3)
H15A H -1.8736 -0.4077 -0.5835
C23A C -1.3130(4) 0.2941(4) -0.0859(3)
H16A H -1.3234 0.3075 -0.1341
C25A C -1.8596(3) -0.6482(3) -0.5684(2)
C26A C -1.2818(4) 0.2540(4) 0.0571(3)
H17A H -1.2717 0.2403 0.1052
C27A C -1.1271(4) 0.5667(3) 0.2588(3)
H18A H -1.0602 0.5520 0.2789
C28A C -1.2414(4) 0.6926(4) 0.2389(3)
H19A H -1.2535 0.7635 0.2476
C30A C -1.5349(4) -0.1186(4) -0.4113(3)
H21A H -1.5045 -0.0729 -0.4383
C40A C -1.3225(4) 0.6095(4) 0.1961(3)
H34A H -1.3881 0.6244 0.1744
Co1_2 Co -0.80518(4) 0.86768(4) 0.32631(3)
Co1A_2 Co -0.19482(4) -0.86768(4) -0.32631(3)
Co1A_3 Co 0.80518(4) -0.86768(4) 0.67369(3)
Co2_2 Co -1.87157(4) -0.94133(4) -0.77216(3)
Co2A_2 Co -0.12843(4) 0.94133(4) -0.22784(3)
Co2A_3 Co 0.87157(4) 0.94133(4) 0.77216(3)
O4_2 O -1.1154(3) -0.2107(2) -0.31019(17)
O4A_2 O 0.1154(3) 0.2107(2) 0.31019(17)
O5_2 O -1.0499(3) 0.2528(2) -0.30951(19)
O5A_2 O 0.0499(3) -0.2528(2) 0.30951(19)
N1A_2 N -1.3054(3) 0.2436(3) -0.3353(2)
N3A_2 N -1.1523(3) -0.1531(3) -0.1471(2)
O15 O 0.2334(3) 0.1148(2) 0.55115(19)
H51 H 0.1682 0.1339 0.5566
H52 H 0.2689 0.1572 0.5297
loop_
_geom_bond_atom_site_label_1
_geom_bond_atom_site_label_2
_geom_bond_site_symmetry_1
_geom_bond_site_symmetry_2
Co1 O1 1_555 1_555
Co2 O1 1_555 1_555
S1 O8 1_555 1_555
S2 O13 1_555 1_555
O1 H1 1_555 1_555
H2 O1 1_555 1_555
O2 Co2 1_555 1_555
O3 Co1 1_555 1_555
O4 C2 1_555 1_555
O5 C19 1_555 1_555
O6 Co1 1_555 1_555
H3 O6 1_555 1_555
H4 O6 1_555 1_555
O7 Co1 1_555 1_555
O9 C19 1_555 1_555
O10 Co2 1_555 1_555
O11 C2 1_555 1_555
O12 S1 1_555 1_555
O14 S2 1_555 1_555
N1 Co1 1_555 1_555
N2 Co2 1_555 1_555
N3 Co2 1_555 1_555
N4 C35 1_555 1_555
N5 C43 1_555 1_555
N6 C34 1_555 1_555
C1 S1 1_555 1_555
C2 C25 1_555 1_555
C3 H5 1_555 1_555
C4 H6 1_555 1_555
C5 S1 1_555 1_555
C6 C1 1_555 1_555
H7 C6 1_555 1_555
C7 H8 1_555 1_555
C8 S2 1_555 1_555
C9 C4 1_555 1_555
C10 C16 1_555 1_555
C11 C19 1_555 1_555
C12 H9 1_555 1_555
C13 S2 1_555 1_555
C14 C8 1_555 1_555
H10 C14 1_555 1_555
C15 C5 1_555 1_555
H11 C15 1_555 1_555
C16 O2 1_555 1_555
C17 C10 1_555 1_555
H12 C17 1_555 1_555
C18 C5 1_555 1_555
H13 C18 1_555 1_555
C20 O7 1_555 1_555
C21 N1 1_555 1_555
H14 C21 1_555 1_555
C22 C1 1_555 1_555
H15 C22 1_555 1_555
C23 C9 1_555 1_555
H16 C23 1_555 1_555
C24 C37 1_555 1_555
C25 C3 1_555 1_555
C26 C4 1_555 1_555
H17 C26 1_555 1_555
C27 C7 1_555 1_555
H18 C27 1_555 1_555
C28 C11 1_555 1_555
H19 C28 1_555 1_555
C29 H20 1_555 1_555
C30 C10 1_555 1_555
H21 C30 1_555 1_555
C31 C29 1_555 1_555
C32 C33 1_555 1_555
C33 C21 1_555 1_555
H22 C33 1_555 1_555
C34 H23 1_555 1_555
H24 C34 1_555 1_555
C35 H25 1_555 1_555
H26 C35 1_555 1_555
C36 N4 1_555 1_555
H27 C36 1_555 1_555
H28 C36 1_555 1_555
C37 H29 1_555 1_555
C38 N6 1_555 1_555
H30 C38 1_555 1_555
H31 C38 1_555 1_555
C39 N4 1_555 1_555
H32 C39 1_555 1_555
H33 C39 1_555 1_555
C40 C13 1_555 1_555
H34 C40 1_555 1_555
C41 N2 1_555 1_555
H35 C41 1_555 1_555
C42 C32 1_555 1_555
H36 C42 1_555 1_555
C43 C24 1_555 1_555
H37 C43 1_555 1_555
H38 C43 1_555 1_555
C44 N5 1_555 1_555
H39 C44 1_555 1_555
H40 C44 1_555 1_555
C45 N5 1_555 1_555
H41 C45 1_555 1_555
H42 C45 1_555 1_555
C46 C24 1_555 1_555
H43 C46 1_555 1_555
C47 N3 1_555 1_555
H44 C47 1_555 1_555
C48 N6 1_555 1_555
H45 C48 1_555 1_555
H46 C48 1_555 1_555
C49 N3 1_555 1_555
H47 C49 1_555 1_555
C50 C31 1_555 1_555
H48 C50 1_555 1_555
C51 N1 1_555 1_555
H49 C51 1_555 1_555
C52 N2 1_555 1_555
H50 C52 1_555 1_555
O15 H51 1_555 1_555
H52 O15 1_555 1_555
N1A C21A 1_555 1_555
N4A C35A 1_555 1_555
C21A H14A 1_555 1_555
C32A C33A 1_555 1_555
C33A C21A 1_555 1_555
H22A C33A 1_555 1_555
C35A C36 1_555 1_555
H25A C35A 1_555 1_555
H26A C35A 1_555 1_555
C36A C35 1_555 1_555
H27A C36A 1_555 1_555
H28A C36A 1_555 1_555
C39A N4A 1_555 1_555
H32A C39A 1_555 1_555
H33A C39A 1_555 1_555
C42A C32A 1_555 1_555
H36A C42A 1_555 1_555
C51A N1A 1_555 1_555
H49A C51A 1_555 1_555
N2A C41A 1_555 1_555
N5A C43A 1_555 1_555
C24A C37A 1_555 1_555
C37A H29A 1_555 1_555
C41A C37A 1_555 1_555
H35A C41A 1_555 1_555
C43A C24A 1_555 1_555
H37A C43A 1_555 1_555
H38A C43A 1_555 1_555
C44A C45 1_555 1_555
H39A C44A 1_555 1_555
H40A C44A 1_555 1_555
C45A C44 1_555 1_555
H41A C45A 1_555 1_555
H42A C45A 1_555 1_555
C46A C24A 1_555 1_555
H43A C46A 1_555 1_555
C52A N2A 1_555 1_555
H50A C52A 1_555 1_555
N3A C47A 1_555 1_555
N6A C34A 1_555 1_555
C29A H20A 1_555 1_555
C31A C29A 1_555 1_555
C34A C38 1_555 1_555
H23A C34A 1_555 1_555
H24A C34A 1_555 1_555
C38A C34 1_555 1_555
H30A C38A 1_555 1_555
H31A C38A 1_555 1_555
C47A H44A 1_555 1_555
C48A N6A 1_555 1_555
H45A C48A 1_555 1_555
H46A C48A 1_555 1_555
C49A N3A 1_555 1_555
H47A C49A 1_555 1_555
C50A C31A 1_555 1_555
H48A C50A 1_555 1_555
Co1A O1A 1_555 1_555
Co2A N2A 1_555 1_555
S1A O8A 1_555 1_555
S2A O13A 1_555 1_555
O1A Co2A 1_555 1_555
H1A O1A 1_555 1_555
H2A O1A 1_555 1_555
O2A Co2A 1_555 1_555
O3A Co1A 1_555 1_555
O4A C2A 1_555 1_555
O5A C19A 1_555 1_555
O6A Co1A 1_555 1_555
H3A O6A 1_555 1_555
H4A O6A 1_555 1_555
O7A Co1A 1_555 1_555
O9A C19A 1_555 1_555
O10A Co2A 1_555 1_555
O11A C2A 1_555 1_555
O12A S1A 1_555 1_555
O14A S2A 1_555 1_555
C1A S1A 1_555 1_555
C2A C25A 1_555 1_555
C3A H5A 1_555 1_555
C4A H6A 1_555 1_555
C5A S1A 1_555 1_555
C6A C1A 1_555 1_555
H7A C6A 1_555 1_555
C7A H8A 1_555 1_555
C8A S2A 1_555 1_555
C9A C4A 1_555 1_555
C10A C16A 1_555 1_555
C11A C19A 1_555 1_555
C12A H9A 1_555 1_555
C13A S2A 1_555 1_555
C14A C8A 1_555 1_555
H10A C14A 1_555 1_555
C15A C5A 1_555 1_555
H11A C15A 1_555 1_555
C16A O2A 1_555 1_555
C17A C10A 1_555 1_555
H12A C17A 1_555 1_555
C18A C5A 1_555 1_555
H13A C18A 1_555 1_555
C20A O7A 1_555 1_555
C22A C1A 1_555 1_555
H15A C22A 1_555 1_555
C23A C9A 1_555 1_555
H16A C23A 1_555 1_555
C25A C3A 1_555 1_555
C26A C4A 1_555 1_555
H17A C26A 1_555 1_555
C27A C7A 1_555 1_555
H18A C27A 1_555 1_555
C28A C11A 1_555 1_555
H19A C28A 1_555 1_555
C30A C10A 1_555 1_555
H21A C30A 1_555 1_555
C40A C13A 1_555 1_555
H34A C40A 1_555 1_555
Co1_2 O5A 1_555 1_555
Co1A_2 O5 1_555 1_555
Co1A_3 N1A 1_555 1_555
Co2_2 O4A 1_555 1_555
Co2A_2 N3A 1_555 1_555
Co2A_3 O4 1_555 1_555
O4_2 Co2A 1_555 1_555
O4A_2 Co2 1_555 1_555
O5_2 Co1A 1_555 1_555
O5A_2 Co1 1_555 1_555
N1A_2 Co1A 1_555 1_555
N3A_2 Co2A 1_555 1_555
O3 C16 1_555 1_555
O10 C20 1_555 1_555
C3 C6 1_555 1_555
C7 C13 1_555 1_555
C8 C26 1_555 1_555
C9 C20 1_555 1_555
C11 C27 1_555 1_555
C12 C22 1_555 1_555
C12 C25 1_555 1_555
C14 C23 1_555 1_555
C15 C30 1_555 1_555
C17 C18 1_555 1_555
C28 C40 1_555 1_555
C29 C49 1_555 1_555
C31 C48 1_555 1_555
C32 C39 1_555 1_555
C37 C41 1_555 1_555
C42 C51 1_555 1_555
C46 C52 1_555 1_555
C47 C50 1_555 1_555
N4A C36A 1_555 1_555
C32A C39A 1_555 1_555
C42A C51A 1_555 1_555
N5A C44A 1_555 1_555
N5A C45A 1_555 1_555
C46A C52A 1_555 1_555
N6A C38A 1_555 1_555
C29A C49A 1_555 1_555
C31A C48A 1_555 1_555
C47A C50A 1_555 1_555
O3A C16A 1_555 1_555
O10A C20A 1_555 1_555
C3A C6A 1_555 1_555
C7A C13A 1_555 1_555
C8A C26A 1_555 1_555
C9A C20A 1_555 1_555
C11A C27A 1_555 1_555
C12A C22A 1_555 1_555
C12A C25A 1_555 1_555
C14A C23A 1_555 1_555
C15A C30A 1_555 1_555
C17A C18A 1_555 1_555
C28A C40A 1_555 1_555

#END
