
#######################################################################
#
#                 Cambridge Crystallographic Data Centre
#                                CCDC 
#
#######################################################################
#
# If this CIF has been generated from an entry in the Cambridge 
# Structural Database, then it will include bibliographic, chemical, 
# crystal, experimental, refinement or atomic coordinate data resulting 
# from the CCDC's data processing and validation procedures.
#
#######################################################################

data_SIRRIW
_symmetry_cell_setting           triclinic
_symmetry_space_group_name_H-M   'P -1'
_symmetry_Int_Tables_number      2
_space_group_name_Hall           '-P 1'
loop_
_symmetry_equiv_pos_site_id
_symmetry_equiv_pos_as_xyz
1 x,y,z
2 -x,-y,-z
_cell_length_a                   11.6947(2)
_cell_length_b                   12.8790(3)
_cell_length_c                   17.9851(3)
_cell_angle_alpha                82.552(2)
_cell_angle_beta                 71.924(2)
_cell_angle_gamma                72.780(2)
_cell_volume                     2457.59
loop_
_atom_site_label
_atom_site_type_symbol
_atom_site_fract_x
_atom_site_fract_y
_atom_site_fract_z
Cd1 Cd 0.036980(15) 0.403603(13) 0.909167(9)
Cd2 Cd 0.284675(15) 0.373607(13) 0.743106(9)
S1 S 0.51598(6) -0.24522(5) 1.00343(4)
S2 S -0.19431(5) 0.01734(5) 0.62820(3)
O1 O -0.14638(16) 0.02658(14) 0.54441(10)
O2 O 0.24113(14) -0.53443(12) 0.86095(9)
O3 O 0.12810(15) -0.52881(13) 0.98542(10)
O4 O -0.32706(15) 0.03939(14) 0.66377(10)
O5 O 0.11505(15) 0.30732(14) 0.73762(10)
O6 O 0.16268(16) -0.46889(13) 0.71315(10)
O7 O -0.05463(15) 0.32934(13) 0.84232(9)
O8 O -0.00404(16) -0.45368(13) 0.82086(9)
O9 O 0.38725(16) 0.21993(13) 0.79051(10)
O10 O 0.20635(16) 0.24233(14) 0.88511(10)
O11 O 0.4772(2) -0.24166(15) 1.08745(11)
O12 O 0.64599(17) -0.28462(15) 0.96216(13)
N1 N 0.88383(19) 0.52868(16) 0.56195(12)
N2 N -0.63981(18) 0.30965(16) 1.61553(11)
N3 N 0.47187(19) 0.43249(16) 0.70459(12)
N4 N -0.22617(19) 0.06324(16) 1.22501(11)
C1 C -0.5832(2) 0.1944(2) 1.48127(14)
N5 N -0.01814(18) 0.27868(16) 1.00848(11)
N6 N -0.42905(19) 0.09659(17) 1.36631(12)
C2 C -0.7237(2) 0.3219(2) 1.57637(14)
H1 H -0.8037 0.3716 1.5948
C3 C -0.6994(2) 0.2656(2) 1.51057(14)
H2 H -0.7625 0.2757 1.4854
C4 C -0.5596(2) 0.1292(2) 1.41135(15)
H3 H -0.5891 0.0632 1.4297
H4 H -0.6091 0.1731 1.3768
C5 C 0.8124(2) 0.5316(2) 0.64476(14)
H5 H 0.7886 0.6070 0.6619
H6 H 0.8669 0.4850 0.6756
C6 C 0.9429(2) 0.41678(19) 0.53677(14)
H7 H 0.8777 0.3787 0.5443
H8 H 0.9982 0.3776 0.5693
C7 C 0.0040(2) -0.16287(19) 0.62710(14)
H9 H 0.0517 -0.1269 0.5848
C8 C -0.1944(2) -0.1686(2) 0.72123(14)
H10 H -0.2815 -0.1366 0.7420
C9 C -0.5262(2) 0.2415(2) 1.58685(14)
H11 H -0.4651 0.2326 1.6134
C10 C 0.6535(2) 0.4426(2) 0.73477(14)
H12 H 0.7004 0.4280 0.7715
C11 C -0.4940(2) 0.1833(2) 1.52017(14)
H13 H -0.4123 0.1366 1.5013
C12 C 0.5432(2) 0.4124(2) 0.75298(14)
H14 H 0.5173 0.3758 0.8020
C13 C -0.0442(2) 0.22842(18) 0.73790(14)
C14 C 0.4324(2) -0.32524(19) 0.97987(14)
C15 C -0.1229(2) -0.11595(19) 0.66027(14)
C16 C 0.0592(2) -0.26336(19) 0.65722(14)
H15 H 0.1454 -0.2970 0.6346
C17 C 0.6955(2) 0.4941(2) 0.66297(14)
C18 C -0.0598(2) 0.11142(19) 1.11994(14)
C19 C 0.6217(3) 0.5134(2) 0.61246(15)
H16 H 0.6466 0.5477 0.5623
C20 C -0.2695(2) -0.0270(2) 1.27147(14)
H17 H -0.2224 -0.0557 1.3104
H18 H -0.2541 -0.0865 1.2368
C21 C 0.0119(2) 0.1770(2) 1.12491(14)
H19 H 0.0484 0.1653 1.1667
C22 C 0.0307(2) 0.2599(2) 1.06878(14)
H20 H 0.0796 0.3047 1.0733
C23 C 0.5120(3) 0.4825(2) 0.63554(15)
H21 H 0.4623 0.4977 0.6005
C24 C -0.2502(2) 0.1511(2) 1.27678(15)
H22 H -0.2234 0.2133 1.2454
H23 H -0.2008 0.1252 1.3146
C25 C 0.9815(2) 0.5844(2) 0.54863(14)
H24 H 1.0376 0.5480 0.5813
H25 H 0.9426 0.6606 0.5646
C26 C -0.1378(2) 0.10234(18) 0.67008(13)
C27 C 0.0192(2) 0.18992(19) 0.66316(14)
H26 H 0.0954 0.2070 0.6354
C28 C 0.4598(2) -0.11423(19) 0.96337(14)
C29 C -0.1562(2) 0.20263(19) 0.77853(14)
H27 H -0.2002 0.2283 0.8296
C30 C -0.0100(2) -0.31573(19) 0.72020(14)
C31 C -0.0266(2) 0.12707(19) 0.62843(14)
H28 H 0.0171 0.1015 0.5773
C32 C 0.3172(2) 0.19161(19) 0.85396(14)
C33 C 0.2991(2) -0.45004(18) 0.94742(14)
C34 C 0.3693(2) 0.08517(19) 0.89356(14)
C35 C -0.1376(2) -0.26806(19) 0.75138(14)
H29 H -0.1857 -0.3040 0.7935
C36 C -0.0842(2) 0.2127(2) 1.00222(15)
H30 H -0.1162 0.2235 0.9585
C37 C 0.4293(2) -0.3267(2) 0.90336(14)
H31 H 0.4721 -0.2850 0.8627
C38 C -0.2035(2) 0.14007(19) 0.74497(14)
H32 H -0.2797 0.1230 0.7726
C39 C 0.2186(2) -0.51023(19) 0.92995(14)
C40 C 0.3414(2) -0.0492(2) 0.99937(14)
H33 H 0.2920 -0.0726 1.0476
C41 C -0.1075(2) 0.1300(2) 1.05622(15)
H34 H -0.1559 0.0859 1.0500
C42 C -0.3877(2) 0.1880(2) 1.32070(15)
H35 H -0.4019 0.2463 1.3561
H36 H -0.4369 0.2180 1.2831
C43 C -0.4071(2) 0.0113(2) 1.31300(15)
H37 H -0.4543 0.0400 1.2742
H38 H -0.4367 -0.0505 1.3429
C44 C -0.0934(2) 0.0268(2) 1.18223(14)
H39 H -0.0760 -0.0430 1.1579
H40 H -0.0422 0.0151 1.2188
C45 C 0.4891(2) 0.02062(19) 0.85937(14)
H41 H 0.5398 0.0451 0.8121
C46 C 0.0108(2) 0.29408(19) 0.77540(14)
C47 C 0.0551(2) -0.42256(19) 0.75476(14)
C48 C 0.3050(2) -0.44880(19) 1.02298(14)
H42 H 0.2632 -0.4909 1.0637
C49 C 0.2968(2) 0.0500(2) 0.96383(14)
H43 H 0.2158 0.0947 0.9877
C50 C 0.3717(2) -0.38651(19) 1.03951(14)
H44 H 0.3757 -0.3858 1.0914
C51 C 0.3631(2) -0.3897(2) 0.88743(14)
H45 H 0.3611 -0.3921 0.8353
C52 C 0.5345(2) -0.0790(2) 0.89418(14)
H46 H 0.6162 -0.1231 0.8709
N1A N 1.11617(19) 0.47132(16) 0.43805(12)
N3A N 1.52813(19) 0.56751(16) 0.29541(12)
C5A C 1.1876(2) 0.4684(2) 0.35524(14)
H5A H 1.2114 0.3930 0.3381
H6A H 1.1331 0.5150 0.3244
C6A C 1.0571(2) 0.58322(19) 0.46323(14)
H7A H 1.1223 0.6213 0.4557
H8A H 1.0018 0.6224 0.4307
C10A C 1.3465(2) 0.5574(2) 0.26523(14)
H12A H 1.2996 0.5720 0.2285
C12A C 1.4568(2) 0.5876(2) 0.24702(14)
H14A H 1.4827 0.6242 0.1980
C17A C 1.3045(2) 0.5059(2) 0.33703(14)
C19A C 1.3783(3) 0.4866(2) 0.38754(15)
H16A H 1.3534 0.4523 0.4377
C23A C 1.4880(3) 0.5175(2) 0.36446(15)
H21A H 1.5377 0.5023 0.3995
C25A C 1.0185(2) 0.4156(2) 0.45137(14)
H24A H 0.9624 0.4520 0.4187
H25A H 1.0574 0.3394 0.4354
Cd1A Cd -0.036980(15) -0.403603(13) 1.090833(9)
Cd2A Cd -0.284675(15) -0.373607(13) 1.256894(9)
S1A S -0.51598(6) 0.24522(5) 0.99657(4)
S2A S 0.19431(5) -0.01734(5) 1.37180(3)
O1A O 0.14638(16) -0.02658(14) 1.45559(10)
O2A O -0.24113(14) 0.53443(12) 1.13905(9)
O3A O -0.12810(15) 0.52881(13) 1.01458(10)
O4A O 0.32706(15) -0.03939(14) 1.33623(10)
O5A O -0.11505(15) -0.30732(14) 1.26238(10)
O6A O -0.16268(16) 0.46889(13) 1.28685(10)
O7A O 0.05463(15) -0.32934(13) 1.15768(9)
O8A O 0.00404(16) 0.45368(13) 1.17914(9)
O9A O -0.38725(16) -0.21993(13) 1.20949(10)
O10A O -0.20635(16) -0.24233(14) 1.11489(10)
O11A O -0.4772(2) 0.24166(15) 0.91255(11)
O12A O -0.64599(17) 0.28462(15) 1.03784(13)
N2A N 0.63981(18) -0.30965(16) 0.38447(11)
N4A N 0.22617(19) -0.06324(16) 0.77499(11)
C1A C 0.5832(2) -0.1944(2) 0.51873(14)
N5A N 0.01814(18) -0.27868(16) 0.99152(11)
N6A N 0.42905(19) -0.09659(17) 0.63369(12)
C2A C 0.7237(2) -0.3219(2) 0.42363(14)
H1A H 0.8037 -0.3716 0.4052
C3A C 0.6994(2) -0.2656(2) 0.48943(14)
H2A H 0.7625 -0.2757 0.5146
C4A C 0.5596(2) -0.1292(2) 0.58865(15)
H3A H 0.5891 -0.0632 0.5703
H4A H 0.6091 -0.1731 0.6232
C7A C -0.0040(2) 0.16287(19) 1.37290(14)
H9A H -0.0517 0.1269 1.4152
C8A C 0.1944(2) 0.1686(2) 1.27877(14)
H10A H 0.2815 0.1366 1.2580
C9A C 0.5262(2) -0.2415(2) 0.41315(14)
H11A H 0.4651 -0.2326 0.3866
C11A C 0.4940(2) -0.1833(2) 0.47983(14)
H13A H 0.4123 -0.1366 0.4987
C13A C 0.0442(2) -0.22842(18) 1.26210(14)
C14A C -0.4324(2) 0.32524(19) 1.02013(14)
C15A C 0.1229(2) 0.11595(19) 1.33973(14)
C16A C -0.0592(2) 0.26336(19) 1.34278(14)
H15A H -0.1454 0.2970 1.3654
C18A C 0.0598(2) -0.11142(19) 0.88006(14)
C20A C 0.2695(2) 0.0270(2) 0.72853(14)
H17A H 0.2224 0.0557 0.6896
H18A H 0.2541 0.0865 0.7632
C21A C -0.0119(2) -0.1770(2) 0.87509(14)
H19A H -0.0484 -0.1653 0.8333
C22A C -0.0307(2) -0.2599(2) 0.93122(14)
H20A H -0.0796 -0.3047 0.9267
C24A C 0.2502(2) -0.1511(2) 0.72322(15)
H22A H 0.2234 -0.2133 0.7546
H23A H 0.2008 -0.1252 0.6854
C26A C 0.1378(2) -0.10234(18) 1.32992(13)
C27A C -0.0192(2) -0.18992(19) 1.33684(14)
H26A H -0.0954 -0.2070 1.3646
C28A C -0.4598(2) 0.11423(19) 1.03663(14)
C29A C 0.1562(2) -0.20263(19) 1.22147(14)
H27A H 0.2002 -0.2283 1.1704
C30A C 0.0100(2) 0.31573(19) 1.27980(14)
C31A C 0.0266(2) -0.12707(19) 1.37157(14)
H28A H -0.0171 -0.1015 1.4227
C32A C -0.3172(2) -0.19161(19) 1.14604(14)
C33A C -0.2991(2) 0.45004(18) 1.05258(14)
C34A C -0.3693(2) -0.08517(19) 1.10644(14)
C35A C 0.1376(2) 0.26806(19) 1.24862(14)
H29A H 0.1857 0.3040 1.2065
C36A C 0.0842(2) -0.2127(2) 0.99778(15)
H30A H 0.1162 -0.2235 1.0415
C37A C -0.4293(2) 0.3267(2) 1.09664(14)
H31A H -0.4721 0.2850 1.1373
C38A C 0.2035(2) -0.14007(19) 1.25503(14)
H32A H 0.2797 -0.1230 1.2274
C39A C -0.2186(2) 0.51023(19) 1.07005(14)
C40A C -0.3414(2) 0.0492(2) 1.00063(14)
H33A H -0.2920 0.0726 0.9524
C41A C 0.1075(2) -0.1300(2) 0.94378(15)
H34A H 0.1559 -0.0859 0.9500
C42A C 0.3877(2) -0.1880(2) 0.67930(15)
H35A H 0.4019 -0.2463 0.6439
H36A H 0.4369 -0.2180 0.7169
C43A C 0.4071(2) -0.0113(2) 0.68700(15)
H37A H 0.4543 -0.0400 0.7258
H38A H 0.4367 0.0505 0.6571
C44A C 0.0934(2) -0.0268(2) 0.81777(14)
H39A H 0.0760 0.0430 0.8421
H40A H 0.0422 -0.0151 0.7812
C45A C -0.4891(2) -0.02062(19) 1.14063(14)
H41A H -0.5398 -0.0451 1.1879
C46A C -0.0108(2) -0.29408(19) 1.22460(14)
C47A C -0.0551(2) 0.42256(19) 1.24524(14)
C48A C -0.3050(2) 0.44880(19) 0.97702(14)
H42A H -0.2632 0.4909 0.9363
C49A C -0.2968(2) -0.0500(2) 1.03617(14)
H43A H -0.2158 -0.0947 1.0123
C50A C -0.3717(2) 0.38651(19) 0.96049(14)
H44A H -0.3757 0.3858 0.9086
C51A C -0.3631(2) 0.3897(2) 1.11257(14)
H45A H -0.3611 0.3921 1.1647
C52A C -0.5345(2) 0.0790(2) 1.10582(14)
H46A H -0.6162 0.1231 1.1291
Cd1_2 Cd 0.036980(15) -0.596397(13) 0.909167(9)
Cd1A_2 Cd -0.036980(15) 0.596397(13) 1.090833(9)
Cd2_2 Cd -0.715325(15) 0.373607(13) 1.743106(9)
Cd2_3 Cd 0.284675(15) -0.626393(13) 0.743106(9)
Cd2A_2 Cd -0.284675(15) 0.626393(13) 1.256894(9)
Cd2A_3 Cd 0.715325(15) -0.373607(13) 0.256894(9)
Cd2A_4 Cd 1.715325(15) 0.626393(13) 0.256894(9)
O2_2 O 0.24113(14) 0.46557(12) 0.86095(9)
O2A_2 O -0.24113(14) -0.46557(12) 1.13905(9)
O3_2 O 0.12810(15) 0.47119(13) 0.98542(10)
O3A_2 O -0.12810(15) -0.47119(13) 1.01458(10)
O6_2 O 0.16268(16) 0.53111(13) 0.71315(10)
O6A_2 O -0.16268(16) -0.53111(13) 1.28685(10)
O8_2 O -0.00404(16) 0.54632(13) 0.82086(9)
O8A_2 O 0.00404(16) -0.54632(13) 1.17914(9)
N2_2 N 0.36019(18) 0.30965(16) 0.61553(11)
N2A_2 N -0.36019(18) -0.30965(16) 1.38447(11)
N3A_2 N -0.47187(19) -0.43249(16) 1.29541(12)
loop_
_geom_bond_atom_site_label_1
_geom_bond_atom_site_label_2
_geom_bond_site_symmetry_1
_geom_bond_site_symmetry_2
Cd1 O7 1_555 1_555
Cd2 O5 1_555 1_555
S1 O11 1_555 1_555
S2 O1 1_555 1_555
O2 C39 1_555 1_555
O3 C39 1_555 1_555
O4 S2 1_555 1_555
O5 C46 1_555 1_555
O6 C47 1_555 1_555
O7 C46 1_555 1_555
O8 C47 1_555 1_555
O9 Cd2 1_555 1_555
O10 Cd1 1_555 1_555
O12 S1 1_555 1_555
N1 C5 1_555 1_555
N2 C2 1_555 1_555
N3 Cd2 1_555 1_555
N4 C20 1_555 1_555
C1 C3 1_555 1_555
N5 Cd1 1_555 1_555
N6 C4 1_555 1_555
C2 H1 1_555 1_555
C3 C2 1_555 1_555
H2 C3 1_555 1_555
C4 C1 1_555 1_555
H3 C4 1_555 1_555
H4 C4 1_555 1_555
C5 H5 1_555 1_555
H6 C5 1_555 1_555
C6 N1 1_555 1_555
H7 C6 1_555 1_555
H8 C6 1_555 1_555
C7 H9 1_555 1_555
C8 H10 1_555 1_555
C9 N2 1_555 1_555
H11 C9 1_555 1_555
C10 H12 1_555 1_555
C11 C1 1_555 1_555
H13 C11 1_555 1_555
C12 N3 1_555 1_555
H14 C12 1_555 1_555
C13 C27 1_555 1_555
C14 S1 1_555 1_555
C15 S2 1_555 1_555
C16 C7 1_555 1_555
H15 C16 1_555 1_555
C17 C5 1_555 1_555
C18 C21 1_555 1_555
C19 C17 1_555 1_555
H16 C19 1_555 1_555
C20 H17 1_555 1_555
H18 C20 1_555 1_555
C21 H19 1_555 1_555
C22 N5 1_555 1_555
H20 C22 1_555 1_555
C23 N3 1_555 1_555
H21 C23 1_555 1_555
C24 N4 1_555 1_555
H22 C24 1_555 1_555
H23 C24 1_555 1_555
C25 N1 1_555 1_555
H24 C25 1_555 1_555
H25 C25 1_555 1_555
C26 S2 1_555 1_555
C27 H26 1_555 1_555
C28 S1 1_555 1_555
C29 C13 1_555 1_555
H27 C29 1_555 1_555
C30 C16 1_555 1_555
C31 C26 1_555 1_555
H28 C31 1_555 1_555
C32 O9 1_555 1_555
C33 C39 1_555 1_555
C34 C32 1_555 1_555
C35 C8 1_555 1_555
H29 C35 1_555 1_555
C36 N5 1_555 1_555
H30 C36 1_555 1_555
C37 C14 1_555 1_555
H31 C37 1_555 1_555
C38 C26 1_555 1_555
H32 C38 1_555 1_555
C40 C28 1_555 1_555
H33 C40 1_555 1_555
C41 C18 1_555 1_555
H34 C41 1_555 1_555
C42 N6 1_555 1_555
H35 C42 1_555 1_555
H36 C42 1_555 1_555
C43 N6 1_555 1_555
H37 C43 1_555 1_555
H38 C43 1_555 1_555
C44 N4 1_555 1_555
H39 C44 1_555 1_555
H40 C44 1_555 1_555
C45 C34 1_555 1_555
H41 C45 1_555 1_555
C46 C13 1_555 1_555
C47 C30 1_555 1_555
C48 C33 1_555 1_555
H42 C48 1_555 1_555
C49 C34 1_555 1_555
H43 C49 1_555 1_555
C50 C14 1_555 1_555
H44 C50 1_555 1_555
C51 C33 1_555 1_555
H45 C51 1_555 1_555
C52 C28 1_555 1_555
H46 C52 1_555 1_555
N1A C5A 1_555 1_555
N3A C12A 1_555 1_555
C5A H5A 1_555 1_555
H6A C5A 1_555 1_555
C6A C25 1_555 1_555
H7A C6A 1_555 1_555
H8A C6A 1_555 1_555
C10A H12A 1_555 1_555
C12A C10A 1_555 1_555
H14A C12A 1_555 1_555
C17A C5A 1_555 1_555
C19A C17A 1_555 1_555
H16A C19A 1_555 1_555
C23A N3A 1_555 1_555
H21A C23A 1_555 1_555
C25A C6 1_555 1_555
H24A C25A 1_555 1_555
H25A C25A 1_555 1_555
Cd1A O3 1_555 1_555
Cd2A O5A 1_555 1_555
S1A O11A 1_555 1_555
S2A O1A 1_555 1_555
O2A C39A 1_555 1_555
O3A Cd1 1_555 1_555
O4A S2A 1_555 1_555
O5A C46A 1_555 1_555
O6A C47A 1_555 1_555
O7A Cd1A 1_555 1_555
O8A C47A 1_555 1_555
O9A Cd2A 1_555 1_555
O10A Cd1A 1_555 1_555
O12A S1A 1_555 1_555
N2A C2A 1_555 1_555
N4A C20A 1_555 1_555
C1A C3A 1_555 1_555
N5A Cd1A 1_555 1_555
N6A C4A 1_555 1_555
C2A H1A 1_555 1_555
C3A C2A 1_555 1_555
H2A C3A 1_555 1_555
C4A C1A 1_555 1_555
H3A C4A 1_555 1_555
H4A C4A 1_555 1_555
C7A H9A 1_555 1_555
C8A H10A 1_555 1_555
C9A N2A 1_555 1_555
H11A C9A 1_555 1_555
C11A C1A 1_555 1_555
H13A C11A 1_555 1_555
C13A C27A 1_555 1_555
C14A S1A 1_555 1_555
C15A S2A 1_555 1_555
C16A C7A 1_555 1_555
H15A C16A 1_555 1_555
C18A C21A 1_555 1_555
C20A H17A 1_555 1_555
H18A C20A 1_555 1_555
C21A H19A 1_555 1_555
C22A N5A 1_555 1_555
H20A C22A 1_555 1_555
C24A N4A 1_555 1_555
H22A C24A 1_555 1_555
H23A C24A 1_555 1_555
C26A S2A 1_555 1_555
C27A H26A 1_555 1_555
C28A S1A 1_555 1_555
C29A C13A 1_555 1_555
H27A C29A 1_555 1_555
C30A C16A 1_555 1_555
C31A C26A 1_555 1_555
H28A C31A 1_555 1_555
C32A O9A 1_555 1_555
C33A C39A 1_555 1_555
C34A C32A 1_555 1_555
C35A C8A 1_555 1_555
H29A C35A 1_555 1_555
C36A N5A 1_555 1_555
H30A C36A 1_555 1_555
C37A C14A 1_555 1_555
H31A C37A 1_555 1_555
C38A C26A 1_555 1_555
H32A C38A 1_555 1_555
C39A O3A 1_555 1_555
C40A C28A 1_555 1_555
H33A C40A 1_555 1_555
C41A C18A 1_555 1_555
H34A C41A 1_555 1_555
C42A N6A 1_555 1_555
H35A C42A 1_555 1_555
H36A C42A 1_555 1_555
C43A N6A 1_555 1_555
H37A C43A 1_555 1_555
H38A C43A 1_555 1_555
C44A N4A 1_555 1_555
H39A C44A 1_555 1_555
H40A C44A 1_555 1_555
C45A C34A 1_555 1_555
H41A C45A 1_555 1_555
C46A O7A 1_555 1_555
C47A C30A 1_555 1_555
C48A C33A 1_555 1_555
H42A C48A 1_555 1_555
C49A C34A 1_555 1_555
H43A C49A 1_555 1_555
C50A C14A 1_555 1_555
H44A C50A 1_555 1_555
C51A C33A 1_555 1_555
H45A C51A 1_555 1_555
C52A C28A 1_555 1_555
H46A C52A 1_555 1_555
Cd1_2 O2 1_555 1_555
Cd1A_2 O2A 1_555 1_555
Cd2_2 N2 1_555 1_555
Cd2_3 O2 1_555 1_555
Cd2A_2 O2A 1_555 1_555
Cd2A_3 N2A 1_555 1_555
Cd2A_4 N3A 1_555 1_555
O2_2 Cd1 1_555 1_555
O2A_2 Cd1A 1_555 1_555
O3_2 Cd1 1_555 1_555
O3A_2 Cd1A 1_555 1_555
O6_2 Cd2 1_555 1_555
O6A_2 Cd2A 1_555 1_555
O8_2 Cd1 1_555 1_555
O8A_2 Cd1A 1_555 1_555
N2_2 Cd2 1_555 1_555
N2A_2 Cd2A 1_555 1_555
N3A_2 Cd2A 1_555 1_555
Cd2 O2_2 1_555 1_555
O3 Cd1_2 1_555 1_555
O6 Cd2_3 1_555 1_555
O8 Cd1_2 1_555 1_555
O10 C32 1_555 1_555
C7 C15 1_555 1_555
C8 C15 1_555 1_555
C9 C11 1_555 1_555
C10 C12 1_555 1_555
C10 C17 1_555 1_555
C18 C44 1_555 1_555
C19 C23 1_555 1_555
C20 C43 1_555 1_555
C21 C22 1_555 1_555
C24 C42 1_555 1_555
C27 C31 1_555 1_555
C29 C38 1_555 1_555
C30 C35 1_555 1_555
C36 C41 1_555 1_555
C37 C51 1_555 1_555
C40 C49 1_555 1_555
C45 C52 1_555 1_555
C48 C50 1_555 1_555
N1A C6A 1_555 1_555
N1A C25A 1_555 1_555
C10A C17A 1_555 1_555
C19A C23A 1_555 1_555
Cd2A O2A_2 1_555 1_555
O3A Cd1A_2 1_555 1_555
O6A Cd2A_2 1_555 1_555
O8A Cd1A_2 1_555 1_555
O10A C32A 1_555 1_555
C7A C15A 1_555 1_555
C8A C15A 1_555 1_555
C9A C11A 1_555 1_555
C13A C46A 1_555 1_555
C18A C44A 1_555 1_555
C20A C43A 1_555 1_555
C21A C22A 1_555 1_555
C24A C42A 1_555 1_555
C27A C31A 1_555 1_555
C29A C38A 1_555 1_555
C30A C35A 1_555 1_555
C36A C41A 1_555 1_555
C37A C51A 1_555 1_555
C40A C49A 1_555 1_555
C45A C52A 1_555 1_555
C48A C50A 1_555 1_555
Cd1_2 O3A_2 1_555 1_555
Cd1A_2 O3_2 1_555 1_555

#END
