
#######################################################################
#
#                 Cambridge Crystallographic Data Centre
#                                CCDC 
#
#######################################################################
#
# If this CIF has been generated from an entry in the Cambridge 
# Structural Database, then it will include bibliographic, chemical, 
# crystal, experimental, refinement or atomic coordinate data resulting 
# from the CCDC's data processing and validation procedures.
#
#######################################################################

data_SIRTOE
_symmetry_cell_setting           monoclinic
_symmetry_space_group_name_H-M   'P 21'
_symmetry_Int_Tables_number      4
_space_group_name_Hall           'P 2yb'
loop_
_symmetry_equiv_pos_site_id
_symmetry_equiv_pos_as_xyz
1 x,y,z
2 -x,1/2+y,-z
_cell_length_a                   9.7753(4)
_cell_length_b                   12.5265(6)
_cell_length_c                   12.9160(7)
_cell_angle_alpha                90
_cell_angle_beta                 96.522(4)
_cell_angle_gamma                90
_cell_volume                     1571.33
loop_
_atom_site_label
_atom_site_type_symbol
_atom_site_fract_x
_atom_site_fract_y
_atom_site_fract_z
Fe1 Fe -0.35327(6) -0.23996(4) 0.93538(5)
Sn1 Sn -0.22443(2) 0.035590(19) 0.72647(2)
Cl1 Cl -0.33734(11) 0.16602(8) 0.83972(9)
Cl2 Cl -0.09057(10) -0.10541(9) 0.60688(9)
Si1 Si -0.54762(10) -0.10845(9) 0.72596(9)
Si2 Si -0.03043(11) -0.11870(9) 0.92629(9)
Li1 Li 0.1911(7) 0.3776(5) 0.5646(6)
C1 C -0.1863(4) 0.1610(3) 0.6199(4)
H1 H -0.1943 0.1301 0.5489
H2 H -0.2606 0.2145 0.6209
C2 C -0.0474(5) 0.2205(4) 0.6382(6)
H3 H -0.0146 0.1964 0.7106
C3 C -0.0597(5) 0.3308(4) 0.6543(5)
H4 H -0.1170 0.3611 0.5932
H5 H -0.1105 0.3413 0.7156
O1 O 0.0613(3) 0.3898(2) 0.6701(2)
C4 C 0.0618(5) 0.4928(4) 0.7069(5)
H6 H 0.0241 0.4941 0.7749
H7 H 0.0023 0.5380 0.6576
C5 C 0.2012(4) 0.5352(5) 0.7192(4)
H8 H 0.1986 0.6129 0.7328
H9 H 0.2552 0.5007 0.7796
O2 O 0.2645(3) 0.5163(2) 0.6287(2)
C6 C 0.4100(4) 0.5165(4) 0.6394(4)
H10 H 0.4447 0.5609 0.7002
H11 H 0.4419 0.5492 0.5766
C7 C 0.4666(5) 0.4102(4) 0.6531(4)
H12 H 0.5666 0.4115 0.6468
H13 H 0.4532 0.3828 0.7231
O3 O 0.3972(3) 0.3424(2) 0.5742(2)
C8 C 0.4198(4) 0.2301(3) 0.5897(4)
H14 H 0.4434 0.2145 0.6647
H15 H 0.4968 0.2059 0.5519
C9 C 0.2927(4) 0.1751(3) 0.5498(4)
H16 H 0.2752 0.1838 0.4733
H17 H 0.3008 0.0979 0.5658
O4 O 0.1855(3) 0.2192(2) 0.5972(3)
C10 C 0.0556(4) 0.1713(3) 0.5810(4)
H18 H 0.0648 0.0952 0.6015
H19 H 0.0228 0.1738 0.5057
C11 C -0.0596(4) 0.0040(3) 0.8454(3)
H20 H 0.0256 0.0137 0.8117
H21 H -0.0614 0.0634 0.8958
C12 C -0.4134(4) -0.0389(3) 0.6630(3)
H22 H -0.4635 0.0178 0.6210
H23 H -0.3851 -0.0912 0.6120
C13 C 0.0262(4) -0.2355(3) 0.8530(3)
H24 H -0.0445 -0.2526 0.7954
H25 H 0.0400 -0.2971 0.8999
H26 H 0.1128 -0.2184 0.8253
C14 C 0.1117(4) -0.0870(4) 1.0315(4)
H27 H 0.0814 -0.0309 1.0766
H28 H 0.1927 -0.0623 1.0000
H29 H 0.1356 -0.1512 1.0730
C15 C -0.6786(4) -0.1565(3) 0.6197(3)
H30 H -0.6359 -0.2077 0.5759
H31 H -0.7144 -0.0957 0.5771
H32 H -0.7544 -0.1912 0.6503
C16 C -0.6369(4) -0.0219(3) 0.8131(4)
H33 H -0.5688 0.0126 0.8639
H34 H -0.6994 -0.0653 0.8500
H35 H -0.6898 0.0328 0.7717
C17 C -0.4752(4) -0.2283(3) 0.7958(3)
C18 C -0.5382(4) -0.2927(3) 0.8682(3)
H36 H -0.6247 -0.2796 0.8926
C19 C -0.4488(5) -0.3800(3) 0.8976(4)
H37 H -0.4655 -0.4350 0.9451
C20 C -0.3329(5) -0.3708(3) 0.8447(4)
H38 H -0.2570 -0.4186 0.8499
C21 C -0.3473(4) -0.2792(3) 0.7828(3)
H39 H -0.2822 -0.2545 0.7389
C22 C -0.1841(4) -0.1514(3) 0.9914(3)
C23 C -0.3084(4) -0.0901(3) 0.9931(3)
H40 H -0.3287 -0.0241 0.9585
C24 C -0.3958(4) -0.1461(3) 1.0558(3)
H41 H -0.4848 -0.1238 1.0697
C25 C -0.3283(4) -0.2397(3) 1.0938(3)
H42 H -0.3633 -0.2914 1.1377
C26 C -0.2002(4) -0.2429(3) 1.0552(3)
H43 H -0.1336 -0.2978 1.0694
Cl2A Cl 0.09057(10) 0.39459(9) 0.39312(9)
Li1A Li -0.1911(7) -0.1224(5) 0.4354(6)
loop_
_geom_bond_atom_site_label_1
_geom_bond_atom_site_label_2
_geom_bond_site_symmetry_1
_geom_bond_site_symmetry_2
Fe1 C17 1_555 1_555
Sn1 Cl1 1_555 1_555
Cl2 Sn1 1_555 1_555
Si1 C12 1_555 1_555
Si2 C11 1_555 1_555
Li1 O1 1_555 1_555
C1 Sn1 1_555 1_555
H1 C1 1_555 1_555
H2 C1 1_555 1_555
C2 C1 1_555 1_555
H3 C2 1_555 1_555
C3 C2 1_555 1_555
H4 C3 1_555 1_555
H5 C3 1_555 1_555
O1 C3 1_555 1_555
C4 O1 1_555 1_555
H6 C4 1_555 1_555
H7 C4 1_555 1_555
C5 C4 1_555 1_555
H8 C5 1_555 1_555
H9 C5 1_555 1_555
O2 Li1 1_555 1_555
C6 O2 1_555 1_555
H10 C6 1_555 1_555
H11 C6 1_555 1_555
C7 C6 1_555 1_555
H12 C7 1_555 1_555
H13 C7 1_555 1_555
O3 Li1 1_555 1_555
C8 O3 1_555 1_555
H14 C8 1_555 1_555
H15 C8 1_555 1_555
C9 C8 1_555 1_555
H16 C9 1_555 1_555
H17 C9 1_555 1_555
O4 Li1 1_555 1_555
C10 C2 1_555 1_555
H18 C10 1_555 1_555
H19 C10 1_555 1_555
C11 Sn1 1_555 1_555
H20 C11 1_555 1_555
H21 C11 1_555 1_555
C12 Sn1 1_555 1_555
H22 C12 1_555 1_555
H23 C12 1_555 1_555
C13 Si2 1_555 1_555
H24 C13 1_555 1_555
H25 C13 1_555 1_555
H26 C13 1_555 1_555
C14 Si2 1_555 1_555
H27 C14 1_555 1_555
H28 C14 1_555 1_555
H29 C14 1_555 1_555
C15 Si1 1_555 1_555
H30 C15 1_555 1_555
H31 C15 1_555 1_555
H32 C15 1_555 1_555
C16 Si1 1_555 1_555
H33 C16 1_555 1_555
H34 C16 1_555 1_555
H35 C16 1_555 1_555
C17 Si1 1_555 1_555
C18 Fe1 1_555 1_555
H36 C18 1_555 1_555
C19 Fe1 1_555 1_555
H37 C19 1_555 1_555
C20 Fe1 1_555 1_555
H38 C20 1_555 1_555
C21 Fe1 1_555 1_555
H39 C21 1_555 1_555
C22 Fe1 1_555 1_555
C23 Fe1 1_555 1_555
H40 C23 1_555 1_555
C24 Fe1 1_555 1_555
H41 C24 1_555 1_555
C25 Fe1 1_555 1_555
H42 C25 1_555 1_555
C26 Fe1 1_555 1_555
H43 C26 1_555 1_555
Cl2A Li1 1_555 1_555
Li1A Cl2 1_555 1_555
Si2 C22 1_555 1_555
C5 O2 1_555 1_555
C7 O3 1_555 1_555
C9 O4 1_555 1_555
O4 C10 1_555 1_555
C17 C18 1_555 1_555
C17 C21 1_555 1_555
C18 C19 1_555 1_555
C19 C20 1_555 1_555
C20 C21 1_555 1_555
C22 C23 1_555 1_555
C22 C26 1_555 1_555
C23 C24 1_555 1_555
C24 C25 1_555 1_555
C25 C26 1_555 1_555

#END
