
#######################################################################
#
#                 Cambridge Crystallographic Data Centre
#                                CCDC 
#
#######################################################################
#
# If this CIF has been generated from an entry in the Cambridge 
# Structural Database, then it will include bibliographic, chemical, 
# crystal, experimental, refinement or atomic coordinate data resulting 
# from the CCDC's data processing and validation procedures.
#
#######################################################################

data_SIRVEW
_symmetry_cell_setting           monoclinic
_symmetry_space_group_name_H-M   'P 21/c'
_symmetry_Int_Tables_number      14
_space_group_name_Hall           '-P 2ybc'
loop_
_symmetry_equiv_pos_site_id
_symmetry_equiv_pos_as_xyz
1 x,y,z
2 -x,1/2+y,1/2-z
3 -x,-y,-z
4 x,1/2-y,1/2+z
_cell_length_a                   16.628(3)
_cell_length_b                   17.894(4)
_cell_length_c                   22.217(4)
_cell_angle_alpha                90
_cell_angle_beta                 97.93(3)
_cell_angle_gamma                90
_cell_volume                     6547.26
loop_
_atom_site_label
_atom_site_type_symbol
_atom_site_fract_x
_atom_site_fract_y
_atom_site_fract_z
Cd1 Cd 0.09147(2) 0.62834(2) 0.357781(17)
S1 S 0.11505(9) 0.70169(8) 0.11319(7)
S2 S 0.12261(9) 0.72625(8) 0.02378(7)
O1 O 0.00728(4) 0.62073(5) 0.26914(3)
O2 O 0.10892(5) 0.67554(5) 0.23242(3)
O3 O 0.12297(8) 0.76138(8) -0.09467(3)
O4 O 0.03572(8) 0.70634(8) -0.16520(3)
N1 N -0.03289(4) 0.63058(6) 0.39988(4)
N2 N 0.10599(4) 0.58193(5) 0.46473(3)
N3 N 0.23293(4) 0.61340(4) 0.35994(3)
N4 N 0.12457(5) 0.50253(4) 0.33521(3)
C1 C 0.03694(5) 0.65567(5) 0.22803(3)
C2 C -0.01986(5) 0.67344(6) 0.17091(4)
C3 C -0.10233(5) 0.67060(6) 0.17265(4)
H1 H -0.1210 0.6566 0.2086
C4 C -0.15810(5) 0.68792(7) 0.12269(4)
H2 H -0.2134 0.6874 0.1254
C5 C -0.13074(6) 0.70600(7) 0.06891(4)
H3 H -0.1677 0.7156 0.0344
C6 C -0.04852(6) 0.70984(6) 0.06613(4)
H4 H -0.0305 0.7227 0.0297
C7 C 0.00761(6) 0.69485(6) 0.11664(3)
C8 C 0.10749(6) 0.63756(7) -0.01392(3)
C9 C 0.11262(6) 0.57086(6) 0.01727(3)
H5 H 0.1239 0.5712 0.0594
C10 C 0.10133(7) 0.50369(7) -0.01283(3)
H6 H 0.1051 0.4593 0.0092
C11 C 0.08457(7) 0.50162(7) -0.07511(3)
H7 H 0.0779 0.4561 -0.0955
C12 C 0.07783(7) 0.56771(8) -0.10692(3)
H8 H 0.0654 0.5665 -0.1490
C13 C 0.08920(7) 0.63643(7) -0.07761(3)
C14 C 0.08152(7) 0.70640(8) -0.11667(3)
C15 C 0.28522(4) 0.67007(4) 0.37403(3)
H9 H 0.2643 0.7175 0.3791
C16 C 0.36709(4) 0.66125(5) 0.38127(3)
H10 H 0.4014 0.7017 0.3914
C17 C 0.39781(4) 0.59210(5) 0.37338(3)
H11 H 0.4537 0.5847 0.3786
C18 C 0.34573(5) 0.53272(5) 0.35761(3)
H12 H 0.3659 0.4852 0.3515
C19 C 0.26306(4) 0.54583(4) 0.35118(3)
C20 C 0.20313(5) 0.48489(4) 0.33470(3)
C21 C 0.22579(6) 0.41342(4) 0.31854(3)
H13 H 0.2803 0.4023 0.3180
C22 C 0.16848(7) 0.35976(4) 0.30358(4)
H14 H 0.1835 0.3120 0.2930
C23 C 0.08776(6) 0.37732(5) 0.30442(4)
H15 H 0.0473 0.3418 0.2945
C24 C 0.06889(5) 0.44861(5) 0.32035(4)
H16 H 0.0145 0.4604 0.3209
C25 C 0.17656(4) 0.56089(4) 0.49611(3)
H17 H 0.2200 0.5518 0.4749
C26 C 0.18824(4) 0.55200(5) 0.55775(3)
H18 H 0.2383 0.5367 0.5779
C27 C 0.12478(5) 0.56606(6) 0.58908(3)
H19 H 0.1310 0.5608 0.6311
C28 C 0.05196(4) 0.58800(7) 0.55788(3)
H20 H 0.0083 0.5984 0.5785
C29 C 0.04401(4) 0.59452(6) 0.49565(3)
C30 C -0.03357(4) 0.61692(7) 0.45902(4)
C31 C -0.10495(4) 0.62380(8) 0.48458(4)
H21 H -0.1051 0.6141 0.5257
C32 C -0.17525(4) 0.64500(9) 0.44874(4)
H22 H -0.2233 0.6498 0.4655
C33 C -0.17422(4) 0.65895(9) 0.38882(4)
H23 H -0.2212 0.6724 0.3635
C34 C -0.09955(4) 0.65237(7) 0.36649(4)
H24 H -0.0975 0.6641 0.3260
Cd1C Cd 0.09147(2) 0.87166(2) -0.142219(17)
O3C O 0.12297(8) 0.73862(8) 0.40533(3)
Cd2 Cd 0.57520(2) 0.61494(2) 0.843391(17)
S3 S 0.59748(10) 0.68612(10) 0.59619(7)
S4 S 0.60512(12) 0.72464(9) 0.51010(7)
O5 O 0.4901(3) 0.6466(3) 0.76110(18)
O6 O 0.5926(2) 0.6404(3) 0.70854(18)
O7 O 0.5774(5) 0.7747(5) 0.3928(4)
O8 O 0.6445(4) 0.7304(4) 0.3277(3)
N5 N 0.44922(6) 0.59990(6) 0.88678(3)
N6 N 0.59691(7) 0.57841(7) 0.95189(3)
N7 N 0.71052(6) 0.57779(7) 0.83814(4)
N8 N 0.57987(6) 0.48943(6) 0.81118(4)
C35 C 0.52024(5) 0.65111(5) 0.71235(3)
C36 C 0.46303(5) 0.67221(5) 0.65638(3)
C37 C 0.38081(5) 0.67590(4) 0.66000(3)
H25 H 0.3625 0.6657 0.6968
C38 C 0.32521(5) 0.69437(4) 0.61008(3)
H26 H 0.2701 0.6970 0.6133
C39 C 0.35247(5) 0.70884(4) 0.55570(3)
H27 H 0.3155 0.7209 0.5218
C40 C 0.43445(5) 0.70562(4) 0.55078(3)
H28 H 0.4516 0.7151 0.5134
C41 C 0.49122(5) 0.68853(5) 0.60027(3)
C42 C 0.60155(4) 0.64203(7) 0.46460(4)
C43 C 0.59424(4) 0.57066(7) 0.48708(4)
H29 H 0.5880 0.5643 0.5277
C44 C 0.59601(5) 0.50933(7) 0.45061(4)
H30 H 0.5905 0.4619 0.4666
C45 C 0.60583(5) 0.51713(8) 0.39105(4)
H31 H 0.6075 0.4752 0.3665
C46 C 0.61325(4) 0.58718(8) 0.36751(4)
H32 H 0.6213 0.5922 0.3271
C47 C 0.60906(4) 0.65087(8) 0.40280(4)
C48 C 0.61304(5) 0.72746(8) 0.37153(4)
C49 C 0.37625(6) 0.60751(6) 0.85327(3)
H33 H 0.3729 0.6039 0.8112
C50 C 0.30560(6) 0.62047(7) 0.87802(3)
H34 H 0.2558 0.6253 0.8536
C51 C 0.31195(7) 0.62575(8) 0.93902(3)
H35 H 0.2659 0.6355 0.9571
C52 C 0.38513(7) 0.61703(8) 0.97454(3)
H36 H 0.3888 0.6196 1.0166
C53 C 0.45385(7) 0.60430(7) 0.94729(3)
C54 C 0.53509(7) 0.59148(7) 0.98272(3)
C55 C 0.54860(8) 0.59394(8) 1.04631(3)
H37 H 0.5055 0.6040 1.0677
C56 C 0.62382(8) 0.58181(8) 1.07709(3)
H38 H 0.6325 0.5831 1.1193
C57 C 0.68710(7) 0.56748(8) 1.04471(4)
H39 H 0.7393 0.5586 1.0643
C58 C 0.67035(7) 0.56682(7) 0.98268(4)
H40 H 0.7130 0.5577 0.9606
C59 C 0.77421(6) 0.62323(8) 0.85152(4)
H41 H 0.7649 0.6721 0.8631
C60 C 0.85370(6) 0.60097(9) 0.84894(4)
H42 H 0.8969 0.6338 0.8586
C61 C 0.86581(6) 0.52933(9) 0.83180(4)
H43 H 0.9184 0.5124 0.8306
C62 C 0.80194(6) 0.48197(8) 0.81639(4)
H44 H 0.8103 0.4337 0.8029
C63 C 0.72424(6) 0.50741(7) 0.82126(4)
C64 C 0.65186(6) 0.45820(6) 0.80654(4)
C65 C 0.65721(7) 0.38453(6) 0.78719(4)
H45 H 0.7075 0.3634 0.7839
C66 C 0.58738(7) 0.34326(6) 0.77295(4)
H46 H 0.5901 0.2943 0.7594
C67 C 0.51485(7) 0.37434(5) 0.77880(4)
H47 H 0.4672 0.3468 0.7705
C68 C 0.51296(6) 0.44770(5) 0.79725(3)
H48 H 0.4628 0.4694 0.8002
Cd2C Cd 0.57520(2) 0.88506(2) 0.343391(17)
O7C O 0.5774(5) 0.7253(5) 0.8928(4)
O9 O 0.1189(5) 0.6555(4) -0.2585(3)
H49 H 0.1000 0.6577 -0.2238
H50 H 0.1643 0.6811 -0.2551
O10 O 0.1375(3) 0.4955(4) 0.7437(3)
H51 H 0.1442 0.5407 0.7371
H52 H 0.0890 0.4876 0.7494
O11 O 0.6988(5) 0.5622(6) 1.2265(3)
H53 H 0.7337 0.5603 1.1995
H54 H 0.7276 0.5462 1.2594
O12 O 0.6985(4) 0.7182(4) 0.2243(3)
H55 H 0.6818 0.6758 0.2104
H56 H 0.6787 0.7243 0.2594
loop_
_geom_bond_atom_site_label_1
_geom_bond_atom_site_label_2
_geom_bond_site_symmetry_1
_geom_bond_site_symmetry_2
Cd1 O1 1_555 1_555
S1 S2 1_555 1_555
S2 C8 1_555 1_555
O1 C1 1_555 1_555
O2 C1 1_555 1_555
O3 C14 1_555 1_555
O4 C14 1_555 1_555
N1 Cd1 1_555 1_555
N2 Cd1 1_555 1_555
N3 Cd1 1_555 1_555
N4 Cd1 1_555 1_555
C1 C2 1_555 1_555
C2 C3 1_555 1_555
C3 H1 1_555 1_555
C4 C3 1_555 1_555
H2 C4 1_555 1_555
C5 C4 1_555 1_555
H3 C5 1_555 1_555
C6 C5 1_555 1_555
H4 C6 1_555 1_555
C7 S1 1_555 1_555
C8 C9 1_555 1_555
C9 H5 1_555 1_555
C10 C9 1_555 1_555
H6 C10 1_555 1_555
C11 C10 1_555 1_555
H7 C11 1_555 1_555
C12 C11 1_555 1_555
H8 C12 1_555 1_555
C13 C8 1_555 1_555
C14 C13 1_555 1_555
C15 N3 1_555 1_555
H9 C15 1_555 1_555
C16 C15 1_555 1_555
H10 C16 1_555 1_555
C17 C16 1_555 1_555
H11 C17 1_555 1_555
C18 C17 1_555 1_555
H12 C18 1_555 1_555
C19 N3 1_555 1_555
C20 N4 1_555 1_555
C21 C20 1_555 1_555
H13 C21 1_555 1_555
C22 C21 1_555 1_555
H14 C22 1_555 1_555
C23 C22 1_555 1_555
H15 C23 1_555 1_555
C24 N4 1_555 1_555
H16 C24 1_555 1_555
C25 N2 1_555 1_555
H17 C25 1_555 1_555
C26 C25 1_555 1_555
H18 C26 1_555 1_555
C27 C26 1_555 1_555
H19 C27 1_555 1_555
C28 C27 1_555 1_555
H20 C28 1_555 1_555
C29 N2 1_555 1_555
C30 N1 1_555 1_555
C31 C30 1_555 1_555
H21 C31 1_555 1_555
C32 C31 1_555 1_555
H22 C32 1_555 1_555
C33 C32 1_555 1_555
H23 C33 1_555 1_555
C34 N1 1_555 1_555
H24 C34 1_555 1_555
Cd2 O5 1_555 1_555
S3 S4 1_555 1_555
S4 C42 1_555 1_555
O5 C35 1_555 1_555
O6 C35 1_555 1_555
O7 C48 1_555 1_555
O8 C48 1_555 1_555
N5 Cd2 1_555 1_555
N6 Cd2 1_555 1_555
N7 Cd2 1_555 1_555
N8 Cd2 1_555 1_555
C35 C36 1_555 1_555
C36 C37 1_555 1_555
C37 H25 1_555 1_555
C38 C37 1_555 1_555
H26 C38 1_555 1_555
C39 C38 1_555 1_555
H27 C39 1_555 1_555
C40 C39 1_555 1_555
H28 C40 1_555 1_555
C41 S3 1_555 1_555
C42 C43 1_555 1_555
C43 H29 1_555 1_555
C44 C43 1_555 1_555
H30 C44 1_555 1_555
C45 C44 1_555 1_555
H31 C45 1_555 1_555
C46 C45 1_555 1_555
H32 C46 1_555 1_555
C47 C42 1_555 1_555
C48 C47 1_555 1_555
C49 N5 1_555 1_555
H33 C49 1_555 1_555
C50 C49 1_555 1_555
H34 C50 1_555 1_555
C51 C50 1_555 1_555
H35 C51 1_555 1_555
C52 C51 1_555 1_555
H36 C52 1_555 1_555
C53 N5 1_555 1_555
C54 N6 1_555 1_555
C55 C54 1_555 1_555
H37 C55 1_555 1_555
C56 C55 1_555 1_555
H38 C56 1_555 1_555
C57 C56 1_555 1_555
H39 C57 1_555 1_555
C58 N6 1_555 1_555
H40 C58 1_555 1_555
C59 N7 1_555 1_555
H41 C59 1_555 1_555
C60 C59 1_555 1_555
H42 C60 1_555 1_555
C61 C60 1_555 1_555
H43 C61 1_555 1_555
C62 C61 1_555 1_555
H44 C62 1_555 1_555
C63 N7 1_555 1_555
C64 N8 1_555 1_555
C65 C64 1_555 1_555
H45 C65 1_555 1_555
C66 C65 1_555 1_555
H46 C66 1_555 1_555
C67 C66 1_555 1_555
H47 C67 1_555 1_555
C68 N8 1_555 1_555
H48 C68 1_555 1_555
O9 H49 1_555 1_555
H50 O9 1_555 1_555
O10 H51 1_555 1_555
H52 O10 1_555 1_555
O11 H53 1_555 1_555
H54 O11 1_555 1_555
O12 H55 1_555 1_555
H56 O12 1_555 1_555
Cd1C O3 1_555 1_555
O3C Cd1 1_555 1_555
Cd2C O7 1_555 1_555
O7C Cd2 1_555 1_555
C2 C7 1_555 1_555
C6 C7 1_555 1_555
C12 C13 1_555 1_555
C18 C19 1_555 1_555
C19 C20 1_555 1_555
C23 C24 1_555 1_555
C28 C29 1_555 1_555
C29 C30 1_555 1_555
C33 C34 1_555 1_555
C36 C41 1_555 1_555
C40 C41 1_555 1_555
C46 C47 1_555 1_555
C52 C53 1_555 1_555
C53 C54 1_555 1_555
C57 C58 1_555 1_555
C62 C63 1_555 1_555
C63 C64 1_555 1_555
C67 C68 1_555 1_555

#END
