
#######################################################################
#
#                 Cambridge Crystallographic Data Centre
#                                CCDC 
#
#######################################################################
#
# If this CIF has been generated from an entry in the Cambridge 
# Structural Database, then it will include bibliographic, chemical, 
# crystal, experimental, refinement or atomic coordinate data resulting 
# from the CCDC's data processing and validation procedures.
#
#######################################################################

data_SIRVIA
_symmetry_cell_setting           monoclinic
_symmetry_space_group_name_H-M   'P 21/c'
_symmetry_Int_Tables_number      14
_space_group_name_Hall           '-P 2ybc'
loop_
_symmetry_equiv_pos_site_id
_symmetry_equiv_pos_as_xyz
1 x,y,z
2 -x,1/2+y,1/2-z
3 -x,-y,-z
4 x,1/2-y,1/2+z
_cell_length_a                   14.085(16)
_cell_length_b                   18.093(17)
_cell_length_c                   12.461(12)
_cell_angle_alpha                90
_cell_angle_beta                 94.075(10)
_cell_angle_gamma                90
_cell_volume                     3167.53
loop_
_atom_site_label
_atom_site_type_symbol
_atom_site_fract_x
_atom_site_fract_y
_atom_site_fract_z
Cd1 Cd 0.692021(16) 0.148974(12) 0.955968(19)
Cd2 Cd 0.831709(15) 0.142594(12) 0.626620(18)
S1 S 0.57533(8) 0.21823(5) 0.84123(7)
S2 S 0.97726(6) 0.21501(5) 0.67500(7)
O1 O 0.67082(16) 0.37301(13) 1.1014(2)
O2 O 0.70529(15) 0.25957(12) 1.05778(19)
O3 O 0.85021(18) 0.14522(16) 0.98294(19)
O4 O 0.81783(16) 0.13492(16) 0.81016(19)
N1 N 0.64242(18) 0.08666(14) 1.1055(2)
N2 N 0.65638(19) 0.02465(15) 0.9109(2)
N3 N 0.86375(19) 0.01335(15) 0.6216(2)
N4 N 0.84874(18) 0.10434(15) 0.4477(2)
C1 C 0.6457(2) 0.31102(17) 1.0633(2)
C2 C 0.54190(19) 0.30198(16) 1.0271(2)
C3 C 0.4776(2) 0.33694(19) 1.0906(3)
H1 H 0.5012 0.3633 1.1528
C4 C 0.3805(3) 0.3341(2) 1.0651(4)
H2 H 0.3379 0.3565 1.1112
C5 C 0.3460(3) 0.2989(2) 0.9736(4)
H3 H 0.2795 0.2979 0.9546
C6 C 0.4087(2) 0.26469(19) 0.9084(3)
H4 H 0.3839 0.2413 0.8442
C7 C 0.5075(2) 0.26322(16) 0.9337(2)
C8 C 0.8778(2) 0.14106(17) 0.8892(3)
C9 C 0.9831(2) 0.14148(18) 0.8782(3)
C10 C 1.0376(3) 0.1116(3) 0.9654(3)
H5 H 1.0062 0.0914 1.0236
C11 C 1.1360(3) 0.1104(3) 0.9698(4)
H6 H 1.1717 0.0887 1.0293
C12 C 1.1811(3) 0.1413(2) 0.8863(4)
H7 H 1.2486 0.1418 0.8885
C13 C 1.1293(2) 0.1712(2) 0.8001(3)
H8 H 1.1623 0.1928 0.7441
C14 C 1.0290(2) 0.17146(18) 0.7909(3)
C15 C 0.8433(3) 0.1507(2) 0.3642(3)
H9 H 0.8324 0.2016 0.3776
C16 C 0.8526(3) 0.1287(3) 0.2595(3)
H10 H 0.8475 0.1634 0.2022
C17 C 0.8693(3) 0.0559(3) 0.2403(3)
H11 H 0.8762 0.0390 0.1692
C18 C 0.8760(3) 0.0069(2) 0.3260(3)
H12 H 0.8876 -0.0440 0.3139
C19 C 0.8657(2) 0.03249(18) 0.4296(3)
C20 C 0.8753(2) -0.01703(17) 0.5253(3)
C21 C 0.8982(3) -0.0912(2) 0.5153(4)
H13 H 0.9074 -0.1117 0.4466
C22 C 0.9075(3) -0.1347(2) 0.6064(4)
H14 H 0.9218 -0.1858 0.6006
C23 C 0.8959(3) -0.1041(2) 0.7053(4)
H15 H 0.9028 -0.1332 0.7688
C24 C 0.8741(3) -0.0295(2) 0.7102(3)
H16 H 0.8661 -0.0078 0.7784
C25 C 0.6592(3) -0.0026(2) 0.8114(3)
H17 H 0.6794 0.0289 0.7564
C26 C 0.6339(3) -0.0742(2) 0.7851(4)
H18 H 0.6385 -0.0923 0.7141
C27 C 0.6018(3) -0.1190(2) 0.8646(4)
H19 H 0.5844 -0.1688 0.8491
C28 C 0.5952(3) -0.09107(19) 0.9660(3)
H20 H 0.5705 -0.1206 1.0205
C29 C 0.6250(2) -0.01924(17) 0.9883(3)
C30 C 0.6212(2) 0.01446(17) 1.0967(3)
C31 C 0.5958(3) -0.0257(2) 1.1855(3)
H21 H 0.5805 -0.0767 1.1787
C32 C 0.5932(3) 0.0093(2) 1.2834(4)
H22 H 0.5766 -0.0176 1.3448
C33 C 0.6144(3) 0.0829(2) 1.2918(3)
H23 H 0.6128 0.1081 1.3586
C34 C 0.6381(3) 0.1195(2) 1.2003(3)
H24 H 0.6521 0.1708 1.2055
Cd2C Cd 0.831709(15) 0.357406(12) 1.126620(18)
O1C O 0.67082(16) 0.12699(13) 0.6014(2)
O2C O 0.70529(15) 0.24043(12) 0.55778(19)
loop_
_geom_bond_atom_site_label_1
_geom_bond_atom_site_label_2
_geom_bond_site_symmetry_1
_geom_bond_site_symmetry_2
Cd1 S1 1_555 1_555
Cd2 S2 1_555 1_555
S1 C7 1_555 1_555
S2 C14 1_555 1_555
O1 C1 1_555 1_555
O2 Cd1 1_555 1_555
O3 Cd1 1_555 1_555
O4 Cd1 1_555 1_555
N1 Cd1 1_555 1_555
N2 Cd1 1_555 1_555
N3 Cd2 1_555 1_555
N4 Cd2 1_555 1_555
C1 O2 1_555 1_555
C2 C1 1_555 1_555
C3 C2 1_555 1_555
H1 C3 1_555 1_555
C4 C3 1_555 1_555
H2 C4 1_555 1_555
C5 C4 1_555 1_555
H3 C5 1_555 1_555
C6 C5 1_555 1_555
H4 C6 1_555 1_555
C7 C2 1_555 1_555
C8 O3 1_555 1_555
C9 C8 1_555 1_555
C10 C9 1_555 1_555
H5 C10 1_555 1_555
C11 C10 1_555 1_555
H6 C11 1_555 1_555
C12 C11 1_555 1_555
H7 C12 1_555 1_555
C13 C12 1_555 1_555
H8 C13 1_555 1_555
C14 C9 1_555 1_555
C15 N4 1_555 1_555
H9 C15 1_555 1_555
C16 C15 1_555 1_555
H10 C16 1_555 1_555
C17 C16 1_555 1_555
H11 C17 1_555 1_555
C18 C17 1_555 1_555
H12 C18 1_555 1_555
C19 N4 1_555 1_555
C20 N3 1_555 1_555
C21 C20 1_555 1_555
H13 C21 1_555 1_555
C22 C21 1_555 1_555
H14 C22 1_555 1_555
C23 C22 1_555 1_555
H15 C23 1_555 1_555
C24 N3 1_555 1_555
H16 C24 1_555 1_555
C25 N2 1_555 1_555
H17 C25 1_555 1_555
C26 C25 1_555 1_555
H18 C26 1_555 1_555
C27 C26 1_555 1_555
H19 C27 1_555 1_555
C28 C27 1_555 1_555
H20 C28 1_555 1_555
C29 N2 1_555 1_555
C30 N1 1_555 1_555
C31 C30 1_555 1_555
H21 C31 1_555 1_555
C32 C31 1_555 1_555
H22 C32 1_555 1_555
C33 C32 1_555 1_555
H23 C33 1_555 1_555
C34 N1 1_555 1_555
H24 C34 1_555 1_555
Cd2C O1 1_555 1_555
O1C Cd2 1_555 1_555
O2C Cd2 1_555 1_555
Cd2 O4 1_555 1_555
O2 Cd2C 1_555 1_555
O4 C8 1_555 1_555
C6 C7 1_555 1_555
C13 C14 1_555 1_555
C18 C19 1_555 1_555
C19 C20 1_555 1_555
C23 C24 1_555 1_555
C28 C29 1_555 1_555
C29 C30 1_555 1_555
C33 C34 1_555 1_555

#END
