
#######################################################################
#
#                 Cambridge Crystallographic Data Centre
#                                CCDC 
#
#######################################################################
#
# If this CIF has been generated from an entry in the Cambridge 
# Structural Database, then it will include bibliographic, chemical, 
# crystal, experimental, refinement or atomic coordinate data resulting 
# from the CCDC's data processing and validation procedures.
#
#######################################################################

data_SIRZUQ
_symmetry_cell_setting           rhombohedral
_symmetry_space_group_name_H-M   'R -3'
_symmetry_Int_Tables_number      148
_space_group_name_Hall           '-R 3'
loop_
_symmetry_equiv_pos_site_id
_symmetry_equiv_pos_as_xyz
1 x,y,z
2 -y,x-y,z
3 -x+y,-x,z
4 2/3+x,1/3+y,1/3+z
5 2/3-y,1/3+x-y,1/3+z
6 2/3-x+y,1/3-x,1/3+z
7 1/3+x,2/3+y,2/3+z
8 1/3-y,2/3+x-y,2/3+z
9 1/3-x+y,2/3-x,2/3+z
10 -x,-y,-z
11 y,-x+y,-z
12 x-y,x,-z
13 1/3-x,2/3-y,2/3-z
14 1/3+y,2/3-x+y,2/3-z
15 1/3+x-y,2/3+x,2/3-z
16 2/3-x,1/3-y,1/3-z
17 2/3+y,1/3-x+y,1/3-z
18 2/3+x-y,1/3+x,1/3-z
_cell_length_a                   26.784(4)
_cell_length_b                   26.784(4)
_cell_length_c                   11.102(2)
_cell_angle_alpha                90
_cell_angle_beta                 90
_cell_angle_gamma                120
_cell_volume                     6897.36
loop_
_atom_site_label
_atom_site_type_symbol
_atom_site_fract_x
_atom_site_fract_y
_atom_site_fract_z
Cd1 Cd 0.340129(6) 0.048549(5) 0.519617(11)
C1 C 0.40592(8) 0.14783(8) 0.63549(15)
C2 C 0.44346(8) 0.20692(8) 0.68640(16)
C3 C 0.49317(9) 0.24471(9) 0.6242(2)
H1 H 0.5020 0.2329 0.5526
C4 C 0.52975(11) 0.29961(10) 0.6670(2)
H2 H 0.5630 0.3243 0.6246
C5 C 0.51688(11) 0.31774(10) 0.7726(2)
H3 H 0.5418 0.3545 0.8020
C6 C 0.46709(9) 0.28153(9) 0.8351(2)
H4 H 0.4583 0.2941 0.9057
C7 C 0.43023(8) 0.22635(8) 0.79218(16)
C8 C 0.30589(8) 0.16926(8) 0.97950(16)
C9 C 0.27719(9) 0.11021(9) 0.9606(2)
H5 H 0.2872 0.0948 0.8960
C10 C 0.23355(11) 0.07428(9) 1.0386(2)
H6 H 0.2142 0.0346 1.0265
C11 C 0.21873(11) 0.09708(11) 1.1341(2)
H7 H 0.1897 0.0727 1.1868
C12 C 0.24690(10) 0.15596(10) 1.15184(19)
H8 H 0.2367 0.1709 1.2168
C13 C 0.29030(8) 0.19318(8) 1.07401(16)
C14 C 0.31931(8) 0.25674(8) 1.09753(15)
N1 N 0.38269(7) 0.18753(6) 0.86610(13)
N2 N 0.35134(7) 0.20716(6) 0.89890(13)
O1 O 0.42364(6) 0.13439(6) 0.54269(12)
O2 O 0.35836(6) 0.11386(6) 0.68437(11)
O3 O 0.34232(6) 0.29274(5) 1.01303(11)
O4 O 0.32098(7) 0.27457(6) 1.20190(13)
O5 O 0.25509(6) -0.02281(6) 0.57399(12)
H9 H 0.2559 -0.0341 0.6452
H10 H 0.2362 -0.0487 0.5218
Cd1O Cd 0.326538(6) 0.284784(5) 0.813716(11)
Cd1M Cd 0.381882(5) 0.375087(8) 1.147050(11)
N2O N 0.31533(7) 0.12617(6) 0.43443(13)
O3O O 0.32435(6) 0.04059(5) 0.32030(11)
O3N O 0.38291(8) 0.00899(6) 0.65364(11)
O4N O 0.37974(9) -0.01235(7) 0.46477(13)
loop_
_geom_bond_atom_site_label_1
_geom_bond_atom_site_label_2
_geom_bond_site_symmetry_1
_geom_bond_site_symmetry_2
Cd1 O1 1_555 1_555
C1 C2 1_555 1_555
C2 C3 1_555 1_555
C3 H1 1_555 1_555
C4 C3 1_555 1_555
H2 C4 1_555 1_555
C5 C4 1_555 1_555
H3 C5 1_555 1_555
C6 C5 1_555 1_555
H4 C6 1_555 1_555
C7 C2 1_555 1_555
C8 C9 1_555 1_555
C9 H5 1_555 1_555
C10 C9 1_555 1_555
H6 C10 1_555 1_555
C11 C10 1_555 1_555
H7 C11 1_555 1_555
C12 C11 1_555 1_555
H8 C12 1_555 1_555
C13 C8 1_555 1_555
C14 C13 1_555 1_555
N1 C7 1_555 1_555
N2 C8 1_555 1_555
O1 C1 1_555 1_555
O2 Cd1 1_555 1_555
O3 C14 1_555 1_555
O4 C14 1_555 1_555
O5 Cd1 1_555 1_555
H9 O5 1_555 1_555
H10 O5 1_555 1_555
Cd1O N2 1_555 1_555
Cd1M O3 1_555 1_555
N2O Cd1 1_555 1_555
O3O Cd1 1_555 1_555
O3N Cd1 1_555 1_555
O4N Cd1 1_555 1_555
C1 O2 1_555 1_555
C6 C7 1_555 1_555
C12 C13 1_555 1_555
N1 N2 1_555 1_555
O3 Cd1O 1_555 1_555
O4 Cd1M 1_555 1_555

#END
