
#######################################################################
#
#                 Cambridge Crystallographic Data Centre
#                                CCDC 
#
#######################################################################
#
# If this CIF has been generated from an entry in the Cambridge 
# Structural Database, then it will include bibliographic, chemical, 
# crystal, experimental, refinement or atomic coordinate data resulting 
# from the CCDC's data processing and validation procedures.
#
#######################################################################

data_SISBIH
_symmetry_cell_setting           triclinic
_symmetry_space_group_name_H-M   'P -1'
_symmetry_Int_Tables_number      2
_space_group_name_Hall           '-P 1'
loop_
_symmetry_equiv_pos_site_id
_symmetry_equiv_pos_as_xyz
1 x,y,z
2 -x,-y,-z
_cell_length_a                   7.4636(15)
_cell_length_b                   10.502(2)
_cell_length_c                   11.744(2)
_cell_angle_alpha                98.50(3)
_cell_angle_beta                 94.57(3)
_cell_angle_gamma                92.14(3)
_cell_volume                     906.394
loop_
_atom_site_label
_atom_site_type_symbol
_atom_site_fract_x
_atom_site_fract_y
_atom_site_fract_z
O1 O -0.1159(2) 0.37753(12) 0.17417(12)
N1 N 0.0724(2) 0.56339(14) 0.30704(13)
C1 C 0.0814(2) 0.44649(16) 0.34047(15)
Cu1 Cu -0.08851(3) 0.55972(2) 0.165581(18)
Sr1 Sr 0.46613(2) 0.988069(15) 0.318393(14)
O2 O -0.0396(2) 0.23232(13) 0.28629(14)
C2 C 0.1861(3) 0.42717(17) 0.43793(16)
H1 H 0.1902 0.3459 0.4602
N2 N 0.2212(2) 0.45142(14) -0.01139(13)
O3 O 0.3979(2) 0.86705(12) 0.48396(11)
C3 C 0.2852(3) 0.53158(17) 0.50196(15)
H2 H 0.3553 0.5211 0.5687
O4 O 0.4689(2) 0.75739(13) 0.62641(12)
C4 C 0.2799(2) 0.65187(16) 0.46637(15)
C5 C 0.1691(2) 0.66379(16) 0.36802(15)
H3 H 0.1622 0.7441 0.3439
O5 O 0.0359(2) 0.26251(13) -0.14480(12)
C6 C -0.0322(3) 0.34176(17) 0.26221(16)
O6 O 0.1325(2) 0.11627(13) -0.03961(13)
C7 C 0.3912(2) 0.76675(16) 0.53092(15)
O7 O 0.67322(19) 0.63748(13) 0.27412(12)
O8 O 0.4625(2) 0.76210(13) 0.21244(13)
C8 C 0.2407(3) 0.33289(16) 0.01791(15)
O9 O 0.7896(2) 0.88832(15) 0.37482(13)
H4 H 0.8857 0.9171 0.3517
H5 H 0.7727 0.8119 0.3387
C9 C 0.3551(3) 0.31224(18) 0.11057(16)
H6 H 0.3677 0.2296 0.1287
O10 O 0.6658(2) 1.06912(16) 0.17554(15)
H7 H 0.7330 1.0170 0.1385
H8 H 0.7602 1.1172 0.1973
C10 C 0.4509(3) 0.41687(18) 0.17622(16)
H9 H 0.5311 0.4050 0.2381
O11 O 0.2389(2) 0.98189(18) 0.14249(14)
H10 H 0.1527 0.9250 0.1349
H11 H 0.2156 1.0369 0.0977
C11 C 0.4265(2) 0.53945(16) 0.14907(14)
O12 O 0.1465(2) 1.04353(15) 0.38393(13)
H12 H 0.1584 1.0631 0.4571
H13 H 0.0879 1.1041 0.3602
C12 C 0.3088(2) 0.55320(16) 0.05417(15)
H14 H 0.2907 0.6352 0.0359
C13 C 0.1296(3) 0.22719(18) -0.06020(16)
C14 C 0.5284(3) 0.65663(17) 0.21783(15)
Cu1_2 Cu 0.91149(3) 0.55972(2) 0.165581(18)
Cu1A Cu 0.08851(3) 0.44028(2) -0.165581(18)
Sr1A Sr 0.53387(2) 1.011931(15) 0.681607(14)
N2A N -0.2212(2) 0.54858(14) 0.01139(13)
O3A O 0.6021(2) 1.13295(12) 0.51604(11)
O4A O 0.5311(2) 1.24261(13) 0.37359(12)
O5A O -0.0359(2) 0.73749(13) 0.14480(12)
O7_2 O -0.32678(19) 0.63748(13) 0.27412(12)
loop_
_geom_bond_atom_site_label_1
_geom_bond_atom_site_label_2
_geom_bond_site_symmetry_1
_geom_bond_site_symmetry_2
O1 Cu1 1_555 1_555
N1 C1 1_555 1_555
C1 C2 1_555 1_555
Cu1 N1 1_555 1_555
Sr1 O3 1_555 1_555
O2 C6 1_555 1_555
C2 H1 1_555 1_555
N2 C8 1_555 1_555
O3 C7 1_555 1_555
C3 C2 1_555 1_555
H2 C3 1_555 1_555
O4 C7 1_555 1_555
C4 C3 1_555 1_555
C5 N1 1_555 1_555
H3 C5 1_555 1_555
O5 C13 1_555 1_555
C6 O1 1_555 1_555
O6 C13 1_555 1_555
C7 C4 1_555 1_555
O7 C14 1_555 1_555
O8 Sr1 1_555 1_555
C8 C9 1_555 1_555
O9 Sr1 1_555 1_555
H4 O9 1_555 1_555
H5 O9 1_555 1_555
C9 H6 1_555 1_555
O10 Sr1 1_555 1_555
H7 O10 1_555 1_555
H8 O10 1_555 1_555
C10 C9 1_555 1_555
H9 C10 1_555 1_555
O11 Sr1 1_555 1_555
H10 O11 1_555 1_555
H11 O11 1_555 1_555
C11 C10 1_555 1_555
O12 Sr1 1_555 1_555
H12 O12 1_555 1_555
H13 O12 1_555 1_555
C12 N2 1_555 1_555
H14 C12 1_555 1_555
C13 C8 1_555 1_555
C14 O8 1_555 1_555
Cu1_2 O7 1_555 1_555
Cu1A N2 1_555 1_555
Sr1A O3 1_555 1_555
N2A Cu1 1_555 1_555
O3A Sr1 1_555 1_555
O4A Sr1 1_555 1_555
O5A Cu1 1_555 1_555
O7_2 Cu1 1_555 1_555
C1 C6 1_555 1_555
O4 Sr1A 1_555 1_555
C4 C5 1_555 1_555
O5 Cu1A 1_555 1_555
C11 C12 1_555 1_555
C11 C14 1_555 1_555
Sr1A O3A 1_555 1_555

#END
