
#######################################################################
#
#                 Cambridge Crystallographic Data Centre
#                                CCDC 
#
#######################################################################
#
# If this CIF has been generated from an entry in the Cambridge 
# Structural Database, then it will include bibliographic, chemical, 
# crystal, experimental, refinement or atomic coordinate data resulting 
# from the CCDC's data processing and validation procedures.
#
#######################################################################

data_SISCUS
_symmetry_cell_setting           orthorhombic
_symmetry_space_group_name_H-M   'P 21 21 21'
_symmetry_Int_Tables_number      19
_space_group_name_Hall           'P 2ac 2ab'
loop_
_symmetry_equiv_pos_site_id
_symmetry_equiv_pos_as_xyz
1 x,y,z
2 1/2-x,-y,1/2+z
3 1/2+x,1/2-y,-z
4 -x,1/2+y,1/2-z
_cell_length_a                   6.017(5)
_cell_length_b                   7.680(1)
_cell_length_c                   25.244(6)
_cell_angle_alpha                90
_cell_angle_beta                 90
_cell_angle_gamma                90
_cell_volume                     1166.54
loop_
_atom_site_label
_atom_site_type_symbol
_atom_site_fract_x
_atom_site_fract_y
_atom_site_fract_z
Cu1 Cu 0.4956(2) 0.9466(1) 0.53240(3)
O1 O 0.286(1) 1.1687(1) 0.5287(4)
C1 C 0.748(1) 0.8452(9) 0.4528(3)
C2 C 0.922(1) 0.8538(9) 0.4080(3)
C3 C 0.834(1) 0.953(1) 0.3598(3)
O2 O 0.6154(8) 0.9663(6) 0.4577(2)
O3 O 0.2612(9) 0.7823(6) 0.5154(2)
N1 N 0.493(1) 0.8246(6) 0.6027(2)
C4 C 0.722(2) 0.844(1) 0.6240(4)
C5 C 0.855(1) 0.986(1) 0.5968(3)
O4 O 1.0414(9) 1.0187(9) 0.6144(2)
O5 O 0.7611(9) 1.0637(7) 0.5583(2)
C6 C 1.022(2) 0.9985(8) 0.3215(2)
C7 C 1.020(2) 0.9249(9) 0.2711(3)
C8 C 1.203(2) 0.961(1) 0.2374(3)
C9 C 1.369(2) 1.067(2) 0.2531(4)
C10 C 1.363(2) 1.145(1) 0.3028(4)
C11 C 1.189(1) 1.110(1) 0.3364(3)
H1 H 1.02(2) 0.91(1) 0.423(3)
H2 H 0.79(2) 1.07(1) 0.373(3)
H3 H 0.72(2) 0.88(1) 0.342(3)
H4 H 0.394 0.894 0.631
H5 H 0.81(2) 0.76(1) 0.611(4)
H6 H 0.71(2) 0.86(1) 0.656(4)
H7 H 0.95(2) 0.84(1) 0.259(4)
H8 H 1.21(2) 0.90(1) 0.205(3)
H9 H 1.48(2) 1.10(1) 0.233(3)
H10 H 1.47(2) 1.23(1) 0.317(3)
H11 H 1.21(2) 1.16(1) 0.372(4)
H12 H 0.156 1.141 0.547
H13 H 0.266 1.281 0.516
O3B O 0.7612(9) 0.7177(6) 0.4846(2)
N1B N 0.993(1) 0.6754(6) 0.3973(2)
C1B C 0.248(1) 0.6548(9) 0.5472(3)
C2B C 0.422(1) 0.6462(9) 0.5920(3)
Cu1B Cu 0.9956(2) 0.5534(1) 0.46760(3)
C4B C 1.222(2) 0.656(1) 0.3760(4)
H4B H 0.894 0.606 0.369
O2B O 0.1154(8) 0.5337(6) 0.5423(2)
C3B C 0.334(1) 0.547(1) 0.6402(3)
H1B H 0.52(2) 0.59(1) 0.577(3)
O1B O 0.786(1) 0.3313(1) 0.4713(4)
O2B_2 O 1.1154(8) 0.5337(6) 0.5423(2)
O5B O 1.2611(9) 0.4363(7) 0.4417(2)
C5B C 1.355(1) 0.514(1) 0.4032(3)
H5B H 1.31(2) 0.74(1) 0.389(4)
H6B H 1.21(2) 0.64(1) 0.344(4)
Cu1B_2 Cu -0.0044(2) 0.5534(1) 0.46760(3)
C6B C 0.522(2) 0.5015(8) 0.6785(2)
H2B H 0.29(2) 0.43(1) 0.627(3)
H3B H 0.22(2) 0.62(1) 0.658(3)
H12B H 0.656 0.359 0.453
H13B H 0.766 0.219 0.484
O4B O 1.5414(9) 0.4813(9) 0.3856(2)
C7B C 0.520(2) 0.5751(9) 0.7289(3)
C11B C 0.689(1) 0.390(1) 0.6636(3)
C8B C 0.703(2) 0.539(1) 0.7626(3)
H7B H 0.45(2) 0.66(1) 0.741(4)
C10B C 0.863(2) 0.355(1) 0.6972(4)
H11B H 0.71(2) 0.34(1) 0.628(4)
C9B C 0.869(2) 0.433(2) 0.7469(4)
H8B H 0.71(2) 0.60(1) 0.795(3)
H10B H 0.97(2) 0.27(1) 0.683(3)
H9B H 0.98(2) 0.40(1) 0.767(3)
loop_
_geom_bond_atom_site_label_1
_geom_bond_atom_site_label_2
_geom_bond_site_symmetry_1
_geom_bond_site_symmetry_2
Cu1 O1 1_555 1_555
O1 H12 1_555 1_555
C1 C2 1_555 1_555
C2 C3 1_555 1_555
C3 C6 1_555 1_555
O2 Cu1 1_555 1_555
O3 Cu1 1_555 1_555
N1 Cu1 1_555 1_555
C4 N1 1_555 1_555
C5 C4 1_555 1_555
O4 C5 1_555 1_555
O5 Cu1 1_555 1_555
C6 C7 1_555 1_555
C7 C8 1_555 1_555
C8 C9 1_555 1_555
C9 C10 1_555 1_555
C10 C11 1_555 1_555
C11 C6 1_555 1_555
H1 C2 1_555 1_555
H2 C3 1_555 1_555
H3 C3 1_555 1_555
H4 N1 1_555 1_555
H5 C4 1_555 1_555
H6 C4 1_555 1_555
H7 C7 1_555 1_555
H8 C8 1_555 1_555
H9 C9 1_555 1_555
H10 C10 1_555 1_555
H11 C11 1_555 1_555
H13 O1 1_555 1_555
O3B C1 1_555 1_555
N1B C2 1_555 1_555
C1B O3 1_555 1_555
C2B N1 1_555 1_555
Cu1B O3B 1_555 1_555
C4B N1B 1_555 1_555
H4B N1B 1_555 1_555
O2B C1B 1_555 1_555
C3B C2B 1_555 1_555
H1B C2B 1_555 1_555
O1B Cu1B 1_555 1_555
O2B_2 Cu1B 1_555 1_555
O5B Cu1B 1_555 1_555
C5B C4B 1_555 1_555
H5B C4B 1_555 1_555
H6B C4B 1_555 1_555
Cu1B_2 O2B 1_555 1_555
C6B C3B 1_555 1_555
H2B C3B 1_555 1_555
H3B C3B 1_555 1_555
H12B O1B 1_555 1_555
H13B O1B 1_555 1_555
O4B C5B 1_555 1_555
C7B C6B 1_555 1_555
C11B C6B 1_555 1_555
C8B C7B 1_555 1_555
H7B C7B 1_555 1_555
C10B C11B 1_555 1_555
H11B C11B 1_555 1_555
C9B C8B 1_555 1_555
H8B C8B 1_555 1_555
H10B C10B 1_555 1_555
H9B C9B 1_555 1_555
C1 O2 1_555 1_555
C5 O5 1_555 1_555
N1B Cu1B 1_555 1_555
C1B C2B 1_555 1_555
O5B C5B 1_555 1_555
C10B C9B 1_555 1_555

#END
