
#######################################################################
#
#                 Cambridge Crystallographic Data Centre
#                                CCDC 
#
#######################################################################
#
# If this CIF has been generated from an entry in the Cambridge 
# Structural Database, then it will include bibliographic, chemical, 
# crystal, experimental, refinement or atomic coordinate data resulting 
# from the CCDC's data processing and validation procedures.
#
#######################################################################

data_SISFAD01
_symmetry_cell_setting           triclinic
_symmetry_space_group_name_H-M   'P -1'
_symmetry_Int_Tables_number      2
_space_group_name_Hall           '-P 1'
loop_
_symmetry_equiv_pos_site_id
_symmetry_equiv_pos_as_xyz
1 x,y,z
2 -x,-y,-z
_cell_length_a                   6.4368(4)
_cell_length_b                   6.8344(5)
_cell_length_c                   10.0103(9)
_cell_angle_alpha                94.190(2)
_cell_angle_beta                 92.918(2)
_cell_angle_gamma                117.3670(10)
_cell_volume                     388.26
loop_
_atom_site_label
_atom_site_type_symbol
_atom_site_fract_x
_atom_site_fract_y
_atom_site_fract_z
C1 C 0.3314(5) 0.6964(5) 0.1678(3)
C2 C 0.3099(5) 0.5464(5) 0.0612(3)
H1 H 0.3312 0.4238 0.0762
C3 C 0.2563(5) 0.5795(5) -0.0682(3)
H2 H 0.2491 0.4842 -0.1416
C4 C 0.2136(5) 0.7572(5) -0.0863(3)
C5 C 0.2249(5) 0.8926(5) 0.0274(3)
H3 H 0.1869 1.0066 0.0159
C6 C 0.4135(5) 0.6741(5) 0.3079(3)
C7 C 0.1474(5) 0.7967(5) -0.2251(3)
N1 N 0.2872(4) 0.8688(4) 0.1525(2)
O1 O 0.4427(4) 0.8227(4) 0.3990(2)
O2 O 0.4517(4) 0.5137(4) 0.3234(2)
O3 O 0.0384(4) 0.9070(4) -0.2321(2)
O4 O 0.2073(4) 0.7118(4) -0.3231(2)
O5 O -0.0415(4) 0.7618(4) 0.4644(2)
H4 H -0.0739 0.7961 0.5411
H5 H -0.1621 0.7146 0.4082
Sr1 Sr 0.31526(4) 1.12670(4) 0.38094(2)
O1A O 0.5573(4) 1.1773(4) 0.6010(2)
O2_2 O 0.4517(4) 1.5137(4) 0.3234(2)
O3A O -0.0384(4) 1.0930(4) 0.2321(2)
O4A O 0.7927(4) 1.2882(4) 0.3231(2)
O5A O 0.0415(4) 1.2382(4) 0.5356(2)
Sr1_2 Sr 0.31526(4) 0.12670(4) 0.38094(2)
Sr1A Sr -0.31526(4) 0.87330(4) -0.38094(2)
Sr1A_2 Sr -0.31526(4) 0.87330(4) 0.61906(2)
Sr1A_3 Sr 0.68474(4) 0.87330(4) -0.38094(2)
Sr1A_4 Sr 0.68474(4) 0.87330(4) 0.61906(2)
loop_
_geom_bond_atom_site_label_1
_geom_bond_atom_site_label_2
_geom_bond_site_symmetry_1
_geom_bond_site_symmetry_2
C1 C2 1_555 1_555
C2 H1 1_555 1_555
C3 C2 1_555 1_555
H2 C3 1_555 1_555
C4 C3 1_555 1_555
C5 C4 1_555 1_555
H3 C5 1_555 1_555
C6 C1 1_555 1_555
C7 C4 1_555 1_555
N1 C1 1_555 1_555
O1 C6 1_555 1_555
O2 C6 1_555 1_555
O3 C7 1_555 1_555
O4 C7 1_555 1_555
O5 H4 1_555 1_555
H5 O5 1_555 1_555
Sr1 N1 1_555 1_555
O1A Sr1 1_555 1_555
O2_2 Sr1 1_555 1_555
O3A Sr1 1_555 1_555
O4A Sr1 1_555 1_555
O5A Sr1 1_555 1_555
Sr1_2 O2 1_555 1_555
Sr1A O3 1_555 1_555
Sr1A_2 O5 1_555 1_555
Sr1A_3 O4 1_555 1_555
Sr1A_4 O1 1_555 1_555
C5 N1 1_555 1_555
O1 Sr1 1_555 1_555
O5 Sr1 1_555 1_555
O1A Sr1A_4 1_555 1_555
O5A Sr1A_2 1_555 1_555

#END
