
#######################################################################
#
#                 Cambridge Crystallographic Data Centre
#                                CCDC 
#
#######################################################################
#
# If this CIF has been generated from an entry in the Cambridge 
# Structural Database, then it will include bibliographic, chemical, 
# crystal, experimental, refinement or atomic coordinate data resulting 
# from the CCDC's data processing and validation procedures.
#
#######################################################################

data_SISFOR
_symmetry_cell_setting           monoclinic
_symmetry_space_group_name_H-M   'P 21/n'
_symmetry_Int_Tables_number      14
_space_group_name_Hall           '-P 2yn'
loop_
_symmetry_equiv_pos_site_id
_symmetry_equiv_pos_as_xyz
1 x,y,z
2 1/2-x,1/2+y,1/2-z
3 -x,-y,-z
4 1/2+x,1/2-y,1/2+z
_cell_length_a                   7.917(4)
_cell_length_b                   10.835(5)
_cell_length_c                   20.769(10)
_cell_angle_alpha                90
_cell_angle_beta                 92.825(10)
_cell_angle_gamma                90
_cell_volume                     1779.41
loop_
_atom_site_label
_atom_site_type_symbol
_atom_site_fract_x
_atom_site_fract_y
_atom_site_fract_z
Zn1 Zn -0.12665(5) 0.33022(4) 0.031978(19)
C1 C 0.0750(5) 0.1503(3) -0.02592(17)
O1 O -0.1293(4) 0.2934(3) -0.06394(12)
N1 N 0.0532(4) 0.1959(3) 0.03273(14)
Sr1 Sr 0.48342(5) 0.24448(3) 0.249120(15)
C2 C 0.1895(5) 0.0579(4) -0.03654(17)
H1 H 0.2035 0.0279 -0.0779
N2 N -0.2223(4) 0.5081(3) 0.02026(14)
O2 O -0.0132(4) 0.1715(3) -0.13494(12)
C3 C 0.2829(5) 0.0109(4) 0.01563(17)
H2 H 0.3602 -0.0523 0.0099
O3 O 0.4575(5) -0.0773(3) 0.12559(15)
C4 C 0.2612(4) 0.0580(3) 0.07630(16)
O4 O 0.3442(4) 0.0643(3) 0.18687(13)
C5 C 0.1451(5) 0.1511(3) 0.08273(17)
H3 H 0.1303 0.1839 0.1235
O5 O -0.0387(4) 0.4076(3) 0.11686(12)
C6 C -0.0305(5) 0.2080(4) -0.08046(17)
O6 O -0.0922(4) 0.5626(3) 0.18156(12)
C7 C 0.3648(5) 0.0102(4) 0.13424(17)
O7 O -0.6704(3) 0.7514(2) -0.06633(14)
C8 C -0.2306(4) 0.5594(3) 0.07863(16)
O8 O -0.4770(4) 0.6859(3) -0.13056(13)
C9 C -0.3397(5) 0.6537(3) 0.09004(17)
H4 H -0.3443 0.6875 0.1311
O9 O 0.2038(5) 0.1640(3) 0.31548(17)
H5 H 0.0972 0.1568 0.3096
H6 H 0.2298 0.1572 0.3555
C10 C -0.4426(5) 0.6978(3) 0.03999(18)
H7 H -0.5217 0.7591 0.0472
O10 O 0.7478(6) 0.1489(5) 0.1911(2)
H8 H 0.7291 0.1659 0.1514
H9 H 0.7874 0.0769 0.1980
C11 C -0.4273(4) 0.6506(3) -0.02051(16)
O11 O 0.8080(6) 0.3420(5) 0.2769(2)
H10 H 0.8768 0.3582 0.3085
H11 H 0.8100 0.4101 0.2566
C12 C -0.3152(4) 0.5553(3) -0.02878(16)
H12 H -0.3042 0.5231 -0.0699
O12 O 0.5110(6) 0.4888(4) 0.2467(2)
C13 C -0.1114(5) 0.5071(3) 0.13104(17)
O13 O 0.1857(5) 0.3599(4) 0.22745(17)
H13 H 0.1304 0.3626 0.1914
H14 H 0.1806 0.4282 0.2474
C14 C -0.5321(5) 0.6990(3) -0.07785(17)
Zn1B Zn -0.87335(5) 0.66978(4) -0.031978(19)
Sr1A Sr 0.01658(5) 0.74448(3) 0.250880(15)
Sr1B Sr -0.48342(5) 0.75552(3) -0.249120(15)
Sr1C Sr -0.01658(5) 0.25552(3) -0.250880(15)
O2C O 0.4868(4) 0.3285(3) 0.36506(12)
O6A O 0.5922(4) 0.0626(3) 0.31844(12)
O7B O -0.3296(3) 0.2486(2) 0.06633(14)
O8B O 0.4770(4) 0.3141(3) 0.13056(13)
loop_
_geom_bond_atom_site_label_1
_geom_bond_atom_site_label_2
_geom_bond_site_symmetry_1
_geom_bond_site_symmetry_2
Zn1 O1 1_555 1_555
C1 N1 1_555 1_555
O1 C6 1_555 1_555
N1 Zn1 1_555 1_555
Sr1 O4 1_555 1_555
C2 C1 1_555 1_555
H1 C2 1_555 1_555
N2 Zn1 1_555 1_555
O2 C6 1_555 1_555
C3 C2 1_555 1_555
H2 C3 1_555 1_555
O3 C7 1_555 1_555
C4 C3 1_555 1_555
O4 C7 1_555 1_555
C5 N1 1_555 1_555
H3 C5 1_555 1_555
O5 Zn1 1_555 1_555
C6 C1 1_555 1_555
O6 C13 1_555 1_555
C7 C4 1_555 1_555
O7 C14 1_555 1_555
C8 N2 1_555 1_555
O8 C14 1_555 1_555
C9 C8 1_555 1_555
H4 C9 1_555 1_555
O9 Sr1 1_555 1_555
H5 O9 1_555 1_555
H6 O9 1_555 1_555
C10 C9 1_555 1_555
H7 C10 1_555 1_555
O10 Sr1 1_555 1_555
H8 O10 1_555 1_555
H9 O10 1_555 1_555
C11 C10 1_555 1_555
O11 Sr1 1_555 1_555
H10 O11 1_555 1_555
H11 O11 1_555 1_555
C12 N2 1_555 1_555
H12 C12 1_555 1_555
O12 Sr1 1_555 1_555
C13 O5 1_555 1_555
O13 Sr1 1_555 1_555
H13 O13 1_555 1_555
H14 O13 1_555 1_555
C14 C11 1_555 1_555
Zn1B O7 1_555 1_555
Sr1A O6 1_555 1_555
Sr1B O8 1_555 1_555
Sr1C O2 1_555 1_555
O2C Sr1 1_555 1_555
O6A Sr1 1_555 1_555
O7B Zn1 1_555 1_555
O8B Sr1 1_555 1_555
C4 C5 1_555 1_555
C8 C13 1_555 1_555
C11 C12 1_555 1_555

#END
