
#######################################################################
#
#                 Cambridge Crystallographic Data Centre
#                                CCDC 
#
#######################################################################
#
# If this CIF has been generated from an entry in the Cambridge 
# Structural Database, then it will include bibliographic, chemical, 
# crystal, experimental, refinement or atomic coordinate data resulting 
# from the CCDC's data processing and validation procedures.
#
#######################################################################

data_SISFIL
_symmetry_cell_setting           orthorhombic
_symmetry_space_group_name_H-M   'P n m a'
_symmetry_Int_Tables_number      62
_space_group_name_Hall           '-P 2ac 2n'
loop_
_symmetry_equiv_pos_site_id
_symmetry_equiv_pos_as_xyz
1 x,y,z
2 1/2-x,-y,1/2+z
3 -x,1/2+y,-z
4 1/2+x,1/2-y,1/2-z
5 -x,-y,-z
6 1/2+x,y,1/2-z
7 x,1/2-y,z
8 1/2-x,1/2+y,1/2+z
_cell_length_a                   7.323(4)
_cell_length_b                   22.223(11)
_cell_length_c                   16.991(9)
_cell_angle_alpha                90
_cell_angle_beta                 90
_cell_angle_gamma                90
_cell_volume                     2765.1
loop_
_atom_site_label
_atom_site_type_symbol
_atom_site_fract_x
_atom_site_fract_y
_atom_site_fract_z
Sr1 Sr -0.06009(7) 0.2500 0.18917(3)
O1 O 0.2333(4) 0.31905(12) 0.21570(16)
H1 H 0.2776 0.3291 0.1714
H2 H 0.2028 0.3526 0.2357
O2 O -0.1254(5) 0.34783(13) 0.11829(17)
H3 H -0.0621 0.3666 0.0843
H4 H -0.2037 0.3739 0.1323
O3 O 0.1046(7) 0.2500 0.0548(2)
H5 H 0.1234 0.2802 0.0252
O4 O -0.4130(6) 0.2500 0.1550(2)
H6 H -0.4509 0.2794 0.1274
H5F H 0.1234 0.2198 0.0252
H6F H -0.4509 0.2206 0.1274
O1F O 0.2333(4) 0.18095(12) 0.21570(16)
H1F H 0.2776 0.1709 0.1714
H2F H 0.2028 0.1474 0.2357
O2F O -0.1254(5) 0.15217(13) 0.11829(17)
H3F H -0.0621 0.1334 0.0843
H4F H -0.2037 0.1261 0.1323
Sr1C Sr -0.56009(7) 0.2500 0.31083(3)
Sr1C_2 Sr 0.43991(7) 0.2500 0.31083(3)
O1C O -0.2667(4) 0.18095(12) 0.28430(16)
O1E O -0.2667(4) 0.31905(12) 0.28430(16)
O4C O 0.0870(6) 0.2500 0.3450(2)
N1 N -0.0243(4) 0.52053(15) 0.11551(18)
C1 C -0.0856(6) 0.57635(18) 0.1277(2)
O5 O -0.0877(4) 0.58583(13) -0.00976(16)
Ni1 Ni 0.0000 0.5000 0.0000
C2 C -0.1082(7) 0.5992(2) 0.2019(2)
H7 H -0.1500 0.6383 0.2092
O6 O -0.1911(6) 0.66130(15) 0.05939(19)
O7 O -0.0014(5) 0.47844(18) 0.38626(17)
C3 C -0.0679(6) 0.56328(19) 0.2654(2)
H8 H -0.0838 0.5777 0.3163
O8 O 0.1297(5) 0.41808(14) 0.30196(16)
C4 C -0.0041(5) 0.50598(17) 0.2532(2)
O9 O 0.2658(4) 0.53274(14) 0.00863(16)
H9 H 0.3388 0.5281 -0.0298
H10 H 0.3240 0.5214 0.0493
C5 C 0.0170(6) 0.48641(18) 0.1768(2)
H11 H 0.0619 0.4478 0.1680
C6 C -0.1248(6) 0.61106(19) 0.0542(2)
C7 C 0.0451(6) 0.4643(2) 0.3188(2)
N1D N 0.0243(4) 0.47947(15) -0.11551(18)
C1D C 0.0856(6) 0.42365(18) -0.1277(2)
O5D O 0.0877(4) 0.41417(13) 0.00976(16)
C2D C 0.1082(7) 0.4008(2) -0.2019(2)
H7D H 0.1500 0.3617 -0.2092
O6D O 0.1911(6) 0.33870(15) -0.05939(19)
O7D O 0.0014(5) 0.52156(18) -0.38626(17)
C3D C 0.0679(6) 0.43672(19) -0.2654(2)
H8D H 0.0838 0.4223 -0.3163
O8D O -0.1297(5) 0.58192(14) -0.30196(16)
C4D C 0.0041(5) 0.49402(17) -0.2532(2)
O9D O -0.2658(4) 0.46726(14) -0.00863(16)
H9D H -0.3388 0.4719 0.0298
H10D H -0.3240 0.4786 -0.0493
C5D C -0.0170(6) 0.51359(18) -0.1768(2)
H11D H -0.0619 0.5522 -0.1680
C6D C 0.1248(6) 0.38894(19) -0.0542(2)
C7D C -0.0451(6) 0.5357(2) -0.3188(2)
O10 O 0.4241(5) 0.34658(15) 0.08006(19)
H12 H 0.4306 0.3837 0.0916
H13 H 0.3652 0.3445 0.0370
O11 O -0.706(4) 0.7500 0.0973(18)
O12 O -0.335(5) 0.7500 0.1893(17)
H14 H -0.2675 0.7628 0.1521
H15 H -0.4406 0.7500 0.1688
loop_
_geom_bond_atom_site_label_1
_geom_bond_atom_site_label_2
_geom_bond_site_symmetry_1
_geom_bond_site_symmetry_2
Sr1 O1 1_555 1_555
O1 H1 1_555 1_555
H2 O1 1_555 1_555
O2 Sr1 1_555 1_555
H3 O2 1_555 1_555
H4 O2 1_555 1_555
O3 Sr1 1_555 1_555
H5 O3 1_555 1_555
O4 Sr1 1_555 1_555
H6 O4 1_555 1_555
N1 C1 1_555 1_555
C1 C2 1_555 1_555
O5 Ni1 1_555 1_555
Ni1 N1 1_555 1_555
C2 H7 1_555 1_555
O6 C6 1_555 1_555
O7 C7 1_555 1_555
C3 C2 1_555 1_555
H8 C3 1_555 1_555
O8 C7 1_555 1_555
C4 C3 1_555 1_555
O9 Ni1 1_555 1_555
H9 O9 1_555 1_555
H10 O9 1_555 1_555
C5 N1 1_555 1_555
H11 C5 1_555 1_555
C6 C1 1_555 1_555
C7 C4 1_555 1_555
O10 H12 1_555 1_555
H13 O10 1_555 1_555
O12 H14 1_555 1_555
H15 O12 1_555 1_555
H5F O3 1_555 1_555
H6F O4 1_555 1_555
O1F Sr1 1_555 1_555
H1F O1F 1_555 1_555
H2F O1F 1_555 1_555
O2F Sr1 1_555 1_555
H3F O2F 1_555 1_555
H4F O2F 1_555 1_555
Sr1C O4 1_555 1_555
Sr1C_2 O1 1_555 1_555
O1C Sr1 1_555 1_555
O1E Sr1 1_555 1_555
O4C Sr1 1_555 1_555
N1D Ni1 1_555 1_555
C1D N1D 1_555 1_555
O5D Ni1 1_555 1_555
C2D C1D 1_555 1_555
H7D C2D 1_555 1_555
O6D C6D 1_555 1_555
O7D C7D 1_555 1_555
C3D C2D 1_555 1_555
H8D C3D 1_555 1_555
O8D C7D 1_555 1_555
C4D C3D 1_555 1_555
O9D Ni1 1_555 1_555
H9D O9D 1_555 1_555
H10D O9D 1_555 1_555
C5D N1D 1_555 1_555
H11D C5D 1_555 1_555
C6D C1D 1_555 1_555
C7D C4D 1_555 1_555
O5 C6 1_555 1_555
C4 C5 1_555 1_555
O1F Sr1C_2 1_555 1_555
Sr1C O1C 1_555 1_555
Sr1C O1E 1_555 1_555
Sr1C_2 O4C 1_555 1_555
O5D C6D 1_555 1_555
C4D C5D 1_555 1_555

#END
