
#######################################################################
#
#                 Cambridge Crystallographic Data Centre
#                                CCDC 
#
#######################################################################
#
# If this CIF has been generated from an entry in the Cambridge 
# Structural Database, then it will include bibliographic, chemical, 
# crystal, experimental, refinement or atomic coordinate data resulting 
# from the CCDC's data processing and validation procedures.
#
#######################################################################

data_SISFAD
_symmetry_cell_setting           triclinic
_symmetry_space_group_name_H-M   'P -1'
_symmetry_Int_Tables_number      2
_space_group_name_Hall           '-P 1'
loop_
_symmetry_equiv_pos_site_id
_symmetry_equiv_pos_as_xyz
1 x,y,z
2 -x,-y,-z
_cell_length_a                   6.4411(4)
_cell_length_b                   6.8211(4)
_cell_length_c                   10.0120(6)
_cell_angle_alpha                94.140(3)
_cell_angle_beta                 93.010(3)
_cell_angle_gamma                117.310(3)
_cell_volume                     388.007
loop_
_atom_site_label
_atom_site_type_symbol
_atom_site_fract_x
_atom_site_fract_y
_atom_site_fract_z
Sr1 Sr 0.31470(3) 0.62625(3) 0.380908(18)
O1 O -0.0433(3) 0.2629(3) 0.46505(16)
O2 O 0.4418(3) 0.3218(3) 0.39945(16)
O3 O 0.4512(3) 0.0132(3) 0.32280(17)
N1 N 0.2870(3) 0.3688(3) 0.15259(19)
O4 O 0.0393(3) 0.4078(3) -0.23246(17)
O5 O 0.2068(3) 0.2124(3) -0.32285(16)
C1 C 0.4128(4) 0.1739(4) 0.3079(2)
C2 C 0.2143(4) 0.2580(4) -0.0866(2)
C3 C 0.2564(4) 0.0799(4) -0.0680(2)
H1 H 0.2492 -0.0157 -0.1413
C4 C 0.2253(4) 0.3933(4) 0.0280(2)
H2 H 0.1873 0.5075 0.0168
C5 C 0.3310(4) 0.1963(4) 0.1681(2)
C6 C 0.1479(4) 0.2974(4) -0.2247(2)
C7 C 0.3094(4) 0.0463(4) 0.0611(2)
H3 H 0.3304 -0.0767 0.0760
H4 H 0.0433 0.2574 0.5301
H5 H -0.1185 0.1595 0.4014
Sr1_2 Sr 0.31470(3) -0.37375(3) 0.380908(18)
Sr1A Sr -0.31470(3) 0.37375(3) -0.380908(18)
Sr1A_2 Sr -0.31470(3) 0.37375(3) 0.619092(18)
Sr1A_3 Sr 0.68530(3) 0.37375(3) -0.380908(18)
Sr1A_4 Sr 0.68530(3) 0.37375(3) 0.619092(18)
O1A O 0.0433(3) 0.7371(3) 0.53495(16)
O2A O 0.5582(3) 0.6782(3) 0.60055(16)
O3_2 O 0.4512(3) 1.0132(3) 0.32280(17)
O4A O -0.0393(3) 0.5922(3) 0.23246(17)
O5A O 0.7932(3) 0.7876(3) 0.32285(16)
loop_
_geom_bond_atom_site_label_1
_geom_bond_atom_site_label_2
_geom_bond_site_symmetry_1
_geom_bond_site_symmetry_2
Sr1 O1 1_555 1_555
O1 H4 1_555 1_555
O2 Sr1 1_555 1_555
O3 C1 1_555 1_555
N1 Sr1 1_555 1_555
O4 C6 1_555 1_555
O5 C6 1_555 1_555
C1 O2 1_555 1_555
C2 C3 1_555 1_555
C3 H1 1_555 1_555
C4 N1 1_555 1_555
H2 C4 1_555 1_555
C5 N1 1_555 1_555
C6 C2 1_555 1_555
C7 C3 1_555 1_555
H3 C7 1_555 1_555
H5 O1 1_555 1_555
Sr1_2 O3 1_555 1_555
Sr1A O4 1_555 1_555
Sr1A_2 O1 1_555 1_555
Sr1A_3 O5 1_555 1_555
Sr1A_4 O2 1_555 1_555
O1A Sr1 1_555 1_555
O2A Sr1 1_555 1_555
O3_2 Sr1 1_555 1_555
O4A Sr1 1_555 1_555
O5A Sr1 1_555 1_555
C1 C5 1_555 1_555
C2 C4 1_555 1_555
C5 C7 1_555 1_555
Sr1A_2 O1A 1_555 1_555
Sr1A_4 O2A 1_555 1_555

#END
