
#######################################################################
#
#                 Cambridge Crystallographic Data Centre
#                                CCDC 
#
#######################################################################
#
# If this CIF has been generated from an entry in the Cambridge 
# Structural Database, then it will include bibliographic, chemical, 
# crystal, experimental, refinement or atomic coordinate data resulting 
# from the CCDC's data processing and validation procedures.
#
#######################################################################

data_SISGOS
_symmetry_cell_setting           triclinic
_symmetry_space_group_name_H-M   'P -1'
_symmetry_Int_Tables_number      2
_space_group_name_Hall           '-P 1'
loop_
_symmetry_equiv_pos_site_id
_symmetry_equiv_pos_as_xyz
1 x,y,z
2 -x,-y,-z
_cell_length_a                   6.9200(4)
_cell_length_b                   10.1694(6)
_cell_length_c                   15.2822(9)
_cell_angle_alpha                83.6210(10)
_cell_angle_beta                 78.0290(10)
_cell_angle_gamma                77.6100(10)
_cell_volume                     1025.05
loop_
_atom_site_label
_atom_site_type_symbol
_atom_site_fract_x
_atom_site_fract_y
_atom_site_fract_z
C1 C 0.1853(6) 0.6841(4) -0.1593(3)
C2 C 0.2097(8) 0.5823(5) -0.2157(3)
H1 H 0.1949 0.6029 -0.2751
C3 C 0.2565(7) 0.4489(4) -0.1829(3)
H2 H 0.2724 0.3799 -0.2205
C4 C 0.2799(7) 0.4175(4) -0.0943(3)
C5 C 0.2518(8) 0.5217(5) -0.0393(3)
H3 H 0.2647 0.5017 0.0203
C6 C 0.2048(8) 0.6553(5) -0.0711(3)
H4 H 0.1867 0.7245 -0.0333
C7 C 0.3357(7) 0.2724(4) -0.0600(3)
C8 C 0.3805(8) -0.1661(5) 0.3080(3)
H5 H 0.4133 -0.2257 0.2628
C9 C 0.3481(9) -0.2190(5) 0.3953(3)
H6 H 0.3607 -0.3117 0.4081
C10 C 0.2971(8) -0.1339(5) 0.4630(3)
H7 H 0.2741 -0.1676 0.5226
C11 C 0.2801(7) 0.0055(4) 0.4411(3)
C12 C 0.2248(7) 0.1062(5) 0.5044(3)
C13 C 0.1363(9) 0.2213(6) 0.6233(3)
H8 H 0.0999 0.2410 0.6831
C14 C 0.2051(7) 0.2408(5) 0.4817(3)
C15 C 0.2394(7) 0.2912(5) 0.3889(3)
C16 C 0.2142(7) 0.4286(5) 0.3607(3)
H9 H 0.1755 0.4939 0.4023
C17 C 0.2478(8) 0.4655(5) 0.2701(3)
H10 H 0.2301 0.5561 0.2496
C18 C 0.3086(7) 0.3649(5) 0.2098(3)
H11 H 0.3340 0.3910 0.1489
C19 C 0.2985(6) 0.1957(4) 0.3238(3)
C20 C 0.3173(6) 0.0518(4) 0.3498(3)
N1 N 0.3681(6) -0.0352(4) 0.2839(3)
N2 N 0.3323(5) 0.2346(3) 0.2341(2)
N3 N 0.1498(7) 0.3151(4) 0.5562(3)
N4 N 0.1799(7) 0.0949(4) 0.5969(3)
H12 H 0.1799 0.0216 0.6309
O1 O 0.2594(5) 0.9262(3) -0.1688(2)
O2 O 0.1632(6) 0.8558(3) -0.2965(2)
O3 O -0.0784(5) 0.9065(3) -0.1606(2)
O4 O 0.3762(5) 0.1830(3) -0.1149(2)
O5 O 0.3405(5) 0.2510(3) 0.0229(2)
O6 O 0.3117(5) -0.0487(3) 0.0174(2)
H13 H 0.2949 -0.0560 -0.0356
S1 S 0.12951(15) 0.85492(10) -0.20046(7)
Sm1 Sm 0.44307(3) 0.05232(2) 0.115243(14)
O1A O 0.7406(5) 0.0738(3) 0.1688(2)
O3A O 0.0784(5) 0.0935(3) 0.1606(2)
O4A O 0.6238(5) -0.1830(3) 0.1149(2)
O6A O 0.6883(5) 0.0487(3) -0.0174(2)
Sm1A Sm -0.44307(3) 0.94768(2) -0.115243(14)
Sm1A_2 Sm 0.55693(3) -0.05232(2) -0.115243(14)
Sm1A_3 Sm 0.55693(3) 0.94768(2) -0.115243(14)
O7 O 0.9072(8) 0.2303(5) 0.8542(3)
H14 H 1.0284 0.2179 0.8629
H15 H 0.8586 0.1593 0.8691
O8 O 0.6922(15) 0.4509(8) 0.4403(5)
H16 H 0.7434 0.5210 0.4346
H17 H 0.5793 0.4785 0.4747
loop_
_geom_bond_atom_site_label_1
_geom_bond_atom_site_label_2
_geom_bond_site_symmetry_1
_geom_bond_site_symmetry_2
C1 C2 1_555 1_555
C2 H1 1_555 1_555
C3 C2 1_555 1_555
H2 C3 1_555 1_555
C4 C3 1_555 1_555
C5 C4 1_555 1_555
H3 C5 1_555 1_555
C6 C1 1_555 1_555
H4 C6 1_555 1_555
C7 C4 1_555 1_555
C8 H5 1_555 1_555
C9 C8 1_555 1_555
H6 C9 1_555 1_555
C10 C9 1_555 1_555
H7 C10 1_555 1_555
C11 C10 1_555 1_555
C12 C11 1_555 1_555
C13 H8 1_555 1_555
C14 C12 1_555 1_555
C15 C14 1_555 1_555
C16 C15 1_555 1_555
H9 C16 1_555 1_555
C17 C16 1_555 1_555
H10 C17 1_555 1_555
C18 C17 1_555 1_555
H11 C18 1_555 1_555
C19 C15 1_555 1_555
C20 C11 1_555 1_555
N1 C8 1_555 1_555
N2 C18 1_555 1_555
N3 C13 1_555 1_555
N4 C12 1_555 1_555
H12 N4 1_555 1_555
O1 S1 1_555 1_555
O2 S1 1_555 1_555
O3 S1 1_555 1_555
O4 C7 1_555 1_555
O5 C7 1_555 1_555
O6 H13 1_555 1_555
S1 C1 1_555 1_555
Sm1 N1 1_555 1_555
O7 H14 1_555 1_555
H15 O7 1_555 1_555
O8 H16 1_555 1_555
H17 O8 1_555 1_555
O1A Sm1 1_555 1_555
O3A Sm1 1_555 1_555
O4A Sm1 1_555 1_555
O6A Sm1 1_555 1_555
Sm1A O3 1_555 1_555
Sm1A_2 O4 1_555 1_555
Sm1A_3 O1 1_555 1_555
C5 C6 1_555 1_555
C13 N4 1_555 1_555
C14 N3 1_555 1_555
C19 C20 1_555 1_555
C19 N2 1_555 1_555
C20 N1 1_555 1_555
N2 Sm1 1_555 1_555
O5 Sm1 1_555 1_555
O6 Sm1 1_555 1_555
O6 Sm1A_2 1_555 1_555
O6A Sm1A_2 1_555 1_555

#END
