
#######################################################################
#
#                 Cambridge Crystallographic Data Centre
#                                CCDC 
#
#######################################################################
#
# If this CIF has been generated from an entry in the Cambridge 
# Structural Database, then it will include bibliographic, chemical, 
# crystal, experimental, refinement or atomic coordinate data resulting 
# from the CCDC's data processing and validation procedures.
#
#######################################################################

data_SISGEI
_symmetry_cell_setting           triclinic
_symmetry_space_group_name_H-M   'P -1'
_symmetry_Int_Tables_number      2
_space_group_name_Hall           '-P 1'
loop_
_symmetry_equiv_pos_site_id
_symmetry_equiv_pos_as_xyz
1 x,y,z
2 -x,-y,-z
_cell_length_a                   6.9016(6)
_cell_length_b                   10.1652(9)
_cell_length_c                   15.2500(13)
_cell_angle_alpha                83.715(2)
_cell_angle_beta                 78.047(2)
_cell_angle_gamma                77.496(2)
_cell_volume                     1019.52
loop_
_atom_site_label
_atom_site_type_symbol
_atom_site_fract_x
_atom_site_fract_y
_atom_site_fract_z
C1 C 0.1874(9) 0.6842(7) -0.1592(5)
C2 C 0.2108(12) 0.5823(7) -0.2158(5)
H1 H 0.1976 0.6033 -0.2754
C3 C 0.2538(12) 0.4488(8) -0.1831(5)
H2 H 0.2649 0.3799 -0.2204
C4 C 0.2805(10) 0.4172(7) -0.0943(5)
C5 C 0.2529(12) 0.5205(8) -0.0395(5)
H3 H 0.2669 0.5008 0.0201
C6 C 0.2044(12) 0.6541(7) -0.0719(5)
H4 H 0.1835 0.7231 -0.0336
C7 C 0.3349(11) 0.2705(8) -0.0598(5)
C8 C 0.3779(12) -0.1654(8) 0.3056(5)
H5 H 0.4064 -0.2237 0.2596
C9 C 0.3481(12) -0.2213(8) 0.3951(5)
H6 H 0.3635 -0.3141 0.4080
C10 C 0.2958(12) -0.1342(8) 0.4618(5)
H7 H 0.2691 -0.1671 0.5215
C11 C 0.2822(11) 0.0042(7) 0.4409(5)
C12 C 0.2255(11) 0.1062(8) 0.5039(5)
C13 C 0.1369(12) 0.2206(9) 0.6224(5)
H8 H 0.0999 0.2405 0.6824
C14 C 0.2062(11) 0.2406(8) 0.4808(5)
C15 C 0.2394(10) 0.2897(8) 0.3883(5)
C16 C 0.2125(12) 0.4280(8) 0.3604(5)
H9 H 0.1714 0.4929 0.4025
C17 C 0.2479(12) 0.4658(7) 0.2701(5)
H10 H 0.2325 0.5564 0.2497
C18 C 0.3076(11) 0.3642(7) 0.2100(5)
H11 H 0.3308 0.3905 0.1490
C19 C 0.2983(10) 0.1958(7) 0.3230(5)
C20 C 0.3180(10) 0.0517(7) 0.3487(4)
N1 N 0.3679(9) -0.0355(6) 0.2832(4)
N2 N 0.3335(8) 0.2339(6) 0.2331(4)
N3 N 0.1491(10) 0.3148(7) 0.5561(4)
N4 N 0.1816(10) 0.0954(7) 0.5970(4)
H12 H 0.1830 0.0223 0.6313
O1 O 0.2591(7) 0.9257(5) -0.1672(4)
O2 O 0.1647(9) 0.8561(5) -0.2962(3)
O3 O -0.0784(7) 0.9066(5) -0.1605(4)
O4 O 0.3726(8) 0.1825(5) -0.1143(3)
O5 O 0.3415(8) 0.2509(5) 0.0236(3)
O6 O 0.3140(7) -0.0483(5) 0.0175(3)
H13 H 0.2972 -0.0556 -0.0355
S1 S 0.1291(2) 0.85491(17) -0.19995(11)
Eu1 Eu 0.44344(5) 0.05227(4) 0.11483(2)
O1A O 0.7409(7) 0.0743(5) 0.1672(4)
O3A O 0.0784(7) 0.0934(5) 0.1605(4)
O4A O 0.6274(8) -0.1825(5) 0.1143(3)
O6A O 0.6860(7) 0.0483(5) -0.0175(3)
Eu1A Eu -0.44344(5) 0.94773(4) -0.11483(2)
Eu1A_2 Eu 0.55656(5) -0.05227(4) -0.11483(2)
Eu1A_3 Eu 0.55656(5) 0.94773(4) -0.11483(2)
O7 O 0.9073(13) 0.2291(7) 0.8540(5)
H14 H 1.0284 0.2167 0.8626
H15 H 0.8587 0.1581 0.8689
O8 O 0.694(2) 0.4495(12) 0.4398(7)
H16 H 0.7447 0.5197 0.4340
H17 H 0.5806 0.4771 0.4742
loop_
_geom_bond_atom_site_label_1
_geom_bond_atom_site_label_2
_geom_bond_site_symmetry_1
_geom_bond_site_symmetry_2
C1 C2 1_555 1_555
C2 H1 1_555 1_555
C3 C2 1_555 1_555
H2 C3 1_555 1_555
C4 C3 1_555 1_555
C5 C4 1_555 1_555
H3 C5 1_555 1_555
C6 C1 1_555 1_555
H4 C6 1_555 1_555
C7 C4 1_555 1_555
C8 H5 1_555 1_555
C9 C8 1_555 1_555
H6 C9 1_555 1_555
C10 C9 1_555 1_555
H7 C10 1_555 1_555
C11 C10 1_555 1_555
C12 C11 1_555 1_555
C13 H8 1_555 1_555
C14 C12 1_555 1_555
C15 C14 1_555 1_555
C16 C15 1_555 1_555
H9 C16 1_555 1_555
C17 C16 1_555 1_555
H10 C17 1_555 1_555
C18 C17 1_555 1_555
H11 C18 1_555 1_555
C19 C15 1_555 1_555
C20 C11 1_555 1_555
N1 C8 1_555 1_555
N2 C18 1_555 1_555
N3 C13 1_555 1_555
N4 C12 1_555 1_555
H12 N4 1_555 1_555
O1 S1 1_555 1_555
O2 S1 1_555 1_555
O3 S1 1_555 1_555
O4 C7 1_555 1_555
O5 C7 1_555 1_555
O6 H13 1_555 1_555
S1 C1 1_555 1_555
Eu1 N1 1_555 1_555
O7 H14 1_555 1_555
H15 O7 1_555 1_555
O8 H16 1_555 1_555
H17 O8 1_555 1_555
O1A Eu1 1_555 1_555
O3A Eu1 1_555 1_555
O4A Eu1 1_555 1_555
O6A Eu1 1_555 1_555
Eu1A O3 1_555 1_555
Eu1A_2 O4 1_555 1_555
Eu1A_3 O1 1_555 1_555
C5 C6 1_555 1_555
C13 N4 1_555 1_555
C14 N3 1_555 1_555
C19 C20 1_555 1_555
C19 N2 1_555 1_555
C20 N1 1_555 1_555
N2 Eu1 1_555 1_555
O5 Eu1 1_555 1_555
O6 Eu1 1_555 1_555
O6 Eu1A_2 1_555 1_555
O6A Eu1A_2 1_555 1_555

#END
