
#######################################################################
#
#                 Cambridge Crystallographic Data Centre
#                                CCDC 
#
#######################################################################
#
# If this CIF has been generated from an entry in the Cambridge 
# Structural Database, then it will include bibliographic, chemical, 
# crystal, experimental, refinement or atomic coordinate data resulting 
# from the CCDC's data processing and validation procedures.
#
#######################################################################

data_SISGUY
_symmetry_cell_setting           triclinic
_symmetry_space_group_name_H-M   'P -1'
_symmetry_Int_Tables_number      2
_space_group_name_Hall           '-P 1'
loop_
_symmetry_equiv_pos_site_id
_symmetry_equiv_pos_as_xyz
1 x,y,z
2 -x,-y,-z
_cell_length_a                   6.8766(7)
_cell_length_b                   10.1482(10)
_cell_length_c                   15.1965(15)
_cell_angle_alpha                83.857(2)
_cell_angle_beta                 78.023(2)
_cell_angle_gamma                77.275(2)
_cell_volume                     1009.83
loop_
_atom_site_label
_atom_site_type_symbol
_atom_site_fract_x
_atom_site_fract_y
_atom_site_fract_z
C1 C 0.1862(10) 0.6825(7) -0.1575(5)
C2 C 0.2055(12) 0.5804(8) -0.2142(5)
H1 H 0.1879 0.6010 -0.2735
C3 C 0.2513(12) 0.4480(7) -0.1811(5)
H2 H 0.2653 0.3787 -0.2188
C4 C 0.2771(11) 0.4158(7) -0.0922(5)
C5 C 0.2512(13) 0.5205(8) -0.0371(5)
H3 H 0.2648 0.5006 0.0228
C6 C 0.2053(12) 0.6545(8) -0.0692(5)
H4 H 0.1878 0.7242 -0.0315
C7 C 0.3332(12) 0.2705(8) -0.0573(5)
C8 C 0.3803(12) -0.1676(8) 0.3038(5)
H5 H 0.4101 -0.2269 0.2580
C9 C 0.3506(13) -0.2210(8) 0.3917(6)
H6 H 0.3645 -0.3140 0.4041
C10 C 0.3013(12) -0.1369(8) 0.4594(6)
H7 H 0.2813 -0.1713 0.5191
C11 C 0.2804(11) 0.0032(8) 0.4387(5)
C12 C 0.2240(12) 0.1040(8) 0.5037(5)
C13 C 0.1385(13) 0.2190(9) 0.6227(6)
H8 H 0.1017 0.2387 0.6830
C14 C 0.2044(12) 0.2402(8) 0.4809(5)
C15 C 0.2406(11) 0.2899(8) 0.3879(5)
C16 C 0.2159(13) 0.4278(8) 0.3599(5)
H9 H 0.1772 0.4930 0.4022
C17 C 0.2490(12) 0.4654(8) 0.2702(5)
H10 H 0.2322 0.5563 0.2501
C18 C 0.3090(11) 0.3638(7) 0.2088(6)
H11 H 0.3333 0.3904 0.1477
C19 C 0.2984(10) 0.1948(7) 0.3219(5)
C20 C 0.3183(11) 0.0505(7) 0.3479(5)
N1 N 0.3689(9) -0.0364(6) 0.2805(4)
N2 N 0.3334(9) 0.2324(6) 0.2320(4)
N3 N 0.1526(11) 0.3125(7) 0.5555(5)
N4 N 0.1828(11) 0.0930(7) 0.5950(5)
H12 H 0.1847 0.0193 0.6288
O1 O 0.2591(8) 0.9253(5) -0.1662(4)
O2 O 0.1677(10) 0.8557(5) -0.2957(4)
O3 O -0.0798(8) 0.9062(5) -0.1604(4)
O4 O 0.3730(9) 0.1805(5) -0.1142(4)
O5 O 0.3397(8) 0.2487(5) 0.0244(3)
O6 O 0.3137(7) -0.0478(5) 0.0173(3)
H13 H 0.2969 -0.0552 -0.0357
S1 S 0.1300(3) 0.85497(17) -0.19919(12)
Tb1 Tb 0.44327(6) 0.05225(4) 0.11431(2)
O1A O 0.7409(8) 0.0747(5) 0.1662(4)
O3A O 0.0798(8) 0.0938(5) 0.1604(4)
O4A O 0.6270(9) -0.1805(5) 0.1142(4)
O6A O 0.6863(7) 0.0478(5) -0.0173(3)
Tb1A Tb -0.44327(6) 0.94775(4) -0.11431(2)
Tb1A_2 Tb 0.55673(6) -0.05225(4) -0.11431(2)
Tb1A_3 Tb 0.55673(6) 0.94775(4) -0.11431(2)
O7 O 0.9109(13) 0.2289(7) 0.8532(5)
H14 H 1.0320 0.2165 0.8619
H15 H 0.8622 0.1579 0.8681
O8 O 0.694(2) 0.4490(12) 0.4400(8)
H16 H 0.7454 0.5191 0.4343
H17 H 0.5813 0.4766 0.4745
loop_
_geom_bond_atom_site_label_1
_geom_bond_atom_site_label_2
_geom_bond_site_symmetry_1
_geom_bond_site_symmetry_2
C1 C2 1_555 1_555
C2 H1 1_555 1_555
C3 C2 1_555 1_555
H2 C3 1_555 1_555
C4 C3 1_555 1_555
C5 C4 1_555 1_555
H3 C5 1_555 1_555
C6 C1 1_555 1_555
H4 C6 1_555 1_555
C7 C4 1_555 1_555
C8 H5 1_555 1_555
C9 C8 1_555 1_555
H6 C9 1_555 1_555
C10 C9 1_555 1_555
H7 C10 1_555 1_555
C11 C10 1_555 1_555
C12 C11 1_555 1_555
C13 H8 1_555 1_555
C14 C12 1_555 1_555
C15 C14 1_555 1_555
C16 C15 1_555 1_555
H9 C16 1_555 1_555
C17 C16 1_555 1_555
H10 C17 1_555 1_555
C18 C17 1_555 1_555
H11 C18 1_555 1_555
C19 C15 1_555 1_555
C20 C11 1_555 1_555
N1 C8 1_555 1_555
N2 C18 1_555 1_555
N3 C13 1_555 1_555
N4 C12 1_555 1_555
H12 N4 1_555 1_555
O1 S1 1_555 1_555
O2 S1 1_555 1_555
O3 S1 1_555 1_555
O4 C7 1_555 1_555
O5 C7 1_555 1_555
O6 H13 1_555 1_555
S1 C1 1_555 1_555
Tb1 N1 1_555 1_555
O7 H14 1_555 1_555
H15 O7 1_555 1_555
O8 H16 1_555 1_555
H17 O8 1_555 1_555
O1A Tb1 1_555 1_555
O3A Tb1 1_555 1_555
O4A Tb1 1_555 1_555
O6A Tb1 1_555 1_555
Tb1A O3 1_555 1_555
Tb1A_2 O4 1_555 1_555
Tb1A_3 O1 1_555 1_555
C5 C6 1_555 1_555
C13 N4 1_555 1_555
C14 N3 1_555 1_555
C19 C20 1_555 1_555
C19 N2 1_555 1_555
C20 N1 1_555 1_555
N2 Tb1 1_555 1_555
O5 Tb1 1_555 1_555
O6 Tb1 1_555 1_555
O6 Tb1A_2 1_555 1_555
O6A Tb1A_2 1_555 1_555

#END
