
#######################################################################
#
#                 Cambridge Crystallographic Data Centre
#                                CCDC 
#
#######################################################################
#
# If this CIF has been generated from an entry in the Cambridge 
# Structural Database, then it will include bibliographic, chemical, 
# crystal, experimental, refinement or atomic coordinate data resulting 
# from the CCDC's data processing and validation procedures.
#
#######################################################################

data_SISJOT10
_symmetry_cell_setting           monoclinic
_symmetry_space_group_name_H-M   'P 21/n'
_symmetry_Int_Tables_number      14
_space_group_name_Hall           '-P 2yn'
loop_
_symmetry_equiv_pos_site_id
_symmetry_equiv_pos_as_xyz
1 x,y,z
2 1/2-x,1/2+y,1/2-z
3 -x,-y,-z
4 1/2+x,1/2-y,1/2+z
_cell_length_a                   10.110(4)
_cell_length_b                   18.494(5)
_cell_length_c                   13.952(4)
_cell_angle_alpha                90
_cell_angle_beta                 99.80(3)
_cell_angle_gamma                90
_cell_volume                     2570.6
loop_
_atom_site_label
_atom_site_type_symbol
_atom_site_fract_x
_atom_site_fract_y
_atom_site_fract_z
Gd1 Gd 0.0659(1) 0.2021(1) 0.1303(1)
Hg1 Hg 0.1175(1) -0.0851(1) 0.1029(1)
N1 N -0.0386(12) -0.0350(7) 0.1500(8)
C1 C -0.0655(14) 0.0332(7) 0.1324(10)
O1 O 0.0007(10) 0.0782(5) 0.0936(7)
O2 O -0.1808(9) 0.0553(5) 0.1595(7)
C2 C -0.2313(16) -0.0052(8) 0.2062(14)
C3 C -0.1505(15) -0.0679(8) 0.1885(12)
N2 N -0.2750(12) 0.1309(7) -0.0543(8)
C4 C -0.2644(14) 0.1755(8) 0.0173(10)
O3 O -0.1646(10) 0.2065(5) 0.0628(8)
O4 O -0.3865(9) 0.1952(6) 0.0400(8)
C5 C -0.4873(17) 0.1640(11) -0.0297(14)
C6 C -0.4157(15) 0.1077(10) -0.0804(13)
N3 N 0.0200(12) 0.3040(6) -0.1386(9)
C7 C 0.0917(13) 0.2489(8) -0.1003(10)
O5 O 0.0652(10) 0.2050(5) -0.0389(7)
O6 O 0.2046(10) 0.2397(6) -0.1391(7)
C8 C 0.1974(15) 0.2883(9) -0.2213(11)
C9 C 0.0860(19) 0.3417(10) -0.2081(14)
N4 N 0.1600(12) 0.1476(7) 0.4320(8)
Hg2 Hg -0.1588(1) 0.3306(1) -0.1016(1)
C10 C 0.0502(14) 0.1390(8) 0.3651(10)
O7 O 0.0380(11) 0.1517(7) 0.2787(7)
O8 O -0.0526(11) 0.1138(7) 0.4041(8)
C11 C -0.0158(19) 0.1125(13) 0.5068(13)
C12 C 0.1328(18) 0.1236(11) 0.5272(11)
N5 N 0.3056(12) 0.2935(6) 0.1898(10)
O9 O 0.2290(10) 0.2732(5) 0.2489(7)
O10 O 0.2731(11) 0.2722(6) 0.1019(8)
O11 O 0.4039(12) 0.3307(7) 0.2162(8)
N6 N -0.0469(14) 0.3419(9) 0.1640(11)
O12 O -0.0518(12) 0.2931(7) 0.2249(8)
O13 O 0.0059(11) 0.3316(6) 0.0910(8)
O14 O -0.0915(17) 0.4050(9) 0.1776(11)
N7 N 0.2894(14) 0.0727(10) 0.1430(16)
O15 O 0.2668(13) 0.1310(7) 0.1825(12)
O16 O 0.2744(18) 0.0640(15) 0.0600(14)
O17 O 0.3158(27) 0.0236(10) 0.2058(17)
H1 H -0.2231 0.0040 0.2747
H2 H -0.3239 -0.0135 0.1792
H3 H -0.2003 -0.1009 0.1430
H4 H -0.1174 -0.0929 0.2481
H5 H -0.5560 0.1424 0.0006
H6 H -0.5265 0.2002 -0.0753
H7 H -0.4447 0.1085 -0.1496
H8 H -0.4290 0.0601 -0.0561
H9 H 0.2811 0.3133 -0.2197
H10 H 0.1754 0.2623 -0.2814
H11 H 0.0260 0.3491 -0.2685
H12 H 0.1219 0.3875 -0.1835
H13 H -0.0620 0.1496 0.5362
H14 H -0.0367 0.0661 0.5313
H15 H 0.1808 0.0801 0.5483
H16 H 0.1556 0.1605 0.5755
N2B N 0.2750(12) -0.1309(7) 0.0543(8)
Hg1B Hg -0.1175(1) 0.0851(1) -0.1029(1)
Hg2C Hg 0.3412(1) 0.1694(1) 0.3984(1)
N4C N -0.3400(12) 0.3524(7) -0.0680(8)
C13 C -0.1960(49) 0.5264(27) -0.0703(42)
O18 O -0.0999(41) 0.4727(23) -0.0671(34)
C14? C 0.2955(58) -0.0161(34) 0.3740(52)
O19? O 0.4109(41) 0.0258(24) 0.3887(33)
loop_
_geom_bond_atom_site_label_1
_geom_bond_atom_site_label_2
_geom_bond_site_symmetry_1
_geom_bond_site_symmetry_2
Gd1 O1 1_555 1_555
Hg1 N1 1_555 1_555
N1 C1 1_555 1_555
C1 O1 1_555 1_555
O2 C1 1_555 1_555
C2 O2 1_555 1_555
C3 N1 1_555 1_555
N2 C4 1_555 1_555
C4 O3 1_555 1_555
O3 Gd1 1_555 1_555
O4 C4 1_555 1_555
C5 O4 1_555 1_555
C6 N2 1_555 1_555
N3 C7 1_555 1_555
C7 O5 1_555 1_555
O5 Gd1 1_555 1_555
O6 C7 1_555 1_555
C8 O6 1_555 1_555
C9 N3 1_555 1_555
N4 C10 1_555 1_555
Hg2 N3 1_555 1_555
C10 O7 1_555 1_555
O7 Gd1 1_555 1_555
O8 C10 1_555 1_555
C11 O8 1_555 1_555
C12 N4 1_555 1_555
N5 O9 1_555 1_555
O9 Gd1 1_555 1_555
O10 Gd1 1_555 1_555
O11 N5 1_555 1_555
N6 O12 1_555 1_555
O12 Gd1 1_555 1_555
O13 Gd1 1_555 1_555
O14 N6 1_555 1_555
N7 O15 1_555 1_555
O15 Gd1 1_555 1_555
O16 N7 1_555 1_555
O17 N7 1_555 1_555
C13 O18 1_555 1_555
H1 C2 1_555 1_555
H2 C2 1_555 1_555
H3 C3 1_555 1_555
H4 C3 1_555 1_555
H5 C5 1_555 1_555
H6 C5 1_555 1_555
H7 C6 1_555 1_555
H8 C6 1_555 1_555
H9 C8 1_555 1_555
H10 C8 1_555 1_555
H11 C9 1_555 1_555
H12 C9 1_555 1_555
H13 C11 1_555 1_555
H14 C11 1_555 1_555
H15 C12 1_555 1_555
H16 C12 1_555 1_555
N2B Hg1 1_555 1_555
Hg1B N2 1_555 1_555
Hg2C N4 1_555 1_555
N4C Hg2 1_555 1_555
C2 C3 1_555 1_555
C5 C6 1_555 1_555
C8 C9 1_555 1_555
C11 C12 1_555 1_555
N5 O10 1_555 1_555
N6 O13 1_555 1_555

#END
