
#######################################################################
#
#                 Cambridge Crystallographic Data Centre
#                                CCDC 
#
#######################################################################
#
# If this CIF has been generated from an entry in the Cambridge 
# Structural Database, then it will include bibliographic, chemical, 
# crystal, experimental, refinement or atomic coordinate data resulting 
# from the CCDC's data processing and validation procedures.
#
#######################################################################

data_SISJOT
_symmetry_cell_setting           monoclinic
_symmetry_space_group_name_H-M   'P 21/n'
_symmetry_Int_Tables_number      14
_space_group_name_Hall           '-P 2yn'
loop_
_symmetry_equiv_pos_site_id
_symmetry_equiv_pos_as_xyz
1 x,y,z
2 1/2-x,1/2+y,1/2-z
3 -x,-y,-z
4 1/2+x,1/2-y,1/2+z
_cell_length_a                   10.110(4)
_cell_length_b                   18.494(5)
_cell_length_c                   13.952(4)
_cell_angle_alpha                90
_cell_angle_beta                 99.80(3)
_cell_angle_gamma                90
_cell_volume                     2570.6
loop_
_atom_site_label
_atom_site_type_symbol
_atom_site_fract_x
_atom_site_fract_y
_atom_site_fract_z
Hg1 Hg 0.1176(1) -0.0850(1) 0.1030(1)
N1 N -0.0400(11) -0.0352(6) 0.1494(8)
C1 C -0.1494(15) -0.0684(8) 0.1896(12)
C2 C -0.2313(16) -0.0049(8) 0.2065(14)
O1 O -0.1808(9) 0.0551(5) 0.1593(7)
C3 C -0.0659(14) 0.0337(7) 0.1324(10)
O2 O 0.0009(10) 0.0785(5) 0.0932(7)
N2 N 0.2759(11) -0.1309(7) 0.0539(8)
C4 C 0.4158(15) -0.1079(10) 0.0803(13)
C5 C 0.4871(17) -0.1645(11) 0.0302(14)
O3 O 0.3859(9) -0.1949(6) -0.0402(7)
C6 C 0.2644(14) -0.1758(8) -0.0178(10)
O4 O 0.1645(10) -0.2067(5) -0.0625(8)
Hg2 Hg -0.1588(1) 0.3306(1) -0.1016(1)
N3 N 0.0196(12) 0.3039(6) -0.1384(9)
C7 C 0.0858(18) 0.3418(9) -0.2094(14)
C8 C 0.1967(15) 0.2887(8) -0.2209(11)
O5 O 0.2047(10) 0.2398(6) -0.1389(7)
C9 C 0.0918(13) 0.2488(7) -0.1002(10)
O6 O 0.0647(10) 0.2051(5) -0.0390(6)
N4 N 0.1603(11) 0.1483(7) 0.4324(8)
C10 C 0.1329(18) 0.1246(11) 0.5277(11)
C11 C -0.0155(18) 0.1117(13) 0.5067(13)
O7 O -0.0529(11) 0.1138(7) 0.4041(8)
C12 C 0.0503(14) 0.1386(8) 0.3644(11)
O8 O 0.0382(11) 0.1519(7) 0.2784(7)
Gd1 Gd 0.0659(1) 0.2020(1) 0.1303(1)
N5 N 0.3059(12) 0.2933(6) 0.1892(9)
O9 O 0.4037(12) 0.3309(7) 0.2159(8)
O10 O 0.2293(9) 0.2737(5) 0.2493(7)
O11 O 0.2730(11) 0.2722(6) 0.1016(7)
N6 N -0.0463(14) 0.3419(8) 0.1645(11)
O12 O -0.0521(12) 0.2933(7) 0.2249(8)
O13 O -0.0903(16) 0.4052(8) 0.1782(11)
O14 O 0.0056(11) 0.3316(6) 0.0909(7)
N7 N 0.2891(14) 0.0725(9) 0.1432(13)
O15 O 0.3163(27) 0.0231(10) 0.2058(16)
O16 O 0.2676(12) 0.1314(6) 0.1826(12)
O17 O 0.2747(18) 0.0650(15) 0.0592(12)
H1 H -0.1996 -0.1013 0.1441
H2 H -0.1167 -0.0934 0.2492
H3 H -0.2230 0.0043 0.2750
H4 H -0.3239 -0.0133 0.1795
H5 H 0.4448 -0.1088 0.1495
H6 H 0.4291 -0.0604 0.0560
H7 H 0.5558 -0.1429 -0.0001
H8 H 0.5263 -0.2007 0.0758
H9 H 0.0257 0.3491 -0.2697
H10 H 0.1216 0.3875 -0.1847
H11 H 0.2804 0.3136 -0.2193
H12 H 0.1747 0.2627 -0.2811
H13 H 0.1809 0.0811 0.5488
H14 H 0.1556 0.1615 0.5760
H15 H -0.0617 0.1487 0.5362
H16 H -0.0364 0.0653 0.5312
Gd1B Gd -0.0659(1) -0.2020(1) -0.1303(1)
N4C N -0.3397(11) 0.3517(7) -0.0676(8)
Hg2C Hg 0.3412(1) 0.1694(1) 0.3984(1)
O4B O -0.1645(10) 0.2067(5) 0.0625(8)
O18 O -0.0980(43) 0.4730(24) -0.0694(36)
C13 C -0.1960(46) 0.5248(25) -0.0699(40)
O19? O 0.4086(45) 0.0246(26) 0.3901(36)
C14? C 0.2952(61) -0.0181(35) 0.3758(53)
loop_
_geom_bond_atom_site_label_1
_geom_bond_atom_site_label_2
_geom_bond_site_symmetry_1
_geom_bond_site_symmetry_2
Hg1 N1 1_555 1_555
N1 C1 1_555 1_555
C1 C2 1_555 1_555
C2 O1 1_555 1_555
O1 C3 1_555 1_555
C3 N1 1_555 1_555
O2 C3 1_555 1_555
N2 Hg1 1_555 1_555
C4 N2 1_555 1_555
C5 C4 1_555 1_555
O3 C5 1_555 1_555
C6 N2 1_555 1_555
O4 C6 1_555 1_555
Hg2 N3 1_555 1_555
N3 C7 1_555 1_555
C7 C8 1_555 1_555
C8 O5 1_555 1_555
O5 C9 1_555 1_555
C9 N3 1_555 1_555
O6 C9 1_555 1_555
N4 C10 1_555 1_555
C10 C11 1_555 1_555
C11 O7 1_555 1_555
O7 C12 1_555 1_555
C12 N4 1_555 1_555
O8 C12 1_555 1_555
Gd1 O2 1_555 1_555
N5 O9 1_555 1_555
O10 Gd1 1_555 1_555
O11 Gd1 1_555 1_555
N6 O12 1_555 1_555
O12 Gd1 1_555 1_555
O13 N6 1_555 1_555
O14 Gd1 1_555 1_555
N7 O15 1_555 1_555
O16 Gd1 1_555 1_555
O17 N7 1_555 1_555
H1 C1 1_555 1_555
H2 C1 1_555 1_555
H3 C2 1_555 1_555
H4 C2 1_555 1_555
H5 C4 1_555 1_555
H6 C4 1_555 1_555
H7 C5 1_555 1_555
H8 C5 1_555 1_555
H9 C7 1_555 1_555
H10 C7 1_555 1_555
H11 C8 1_555 1_555
H12 C8 1_555 1_555
H13 C10 1_555 1_555
H14 C10 1_555 1_555
H15 C11 1_555 1_555
H16 C11 1_555 1_555
O18 C13 1_555 1_555
Gd1B O4 1_555 1_555
N4C Hg2 1_555 1_555
Hg2C N4 1_555 1_555
O4B Gd1 1_555 1_555
O3 C6 1_555 1_555
O6 Gd1 1_555 1_555
O8 Gd1 1_555 1_555
N5 O10 1_555 1_555
N5 O11 1_555 1_555
N6 O14 1_555 1_555
N7 O16 1_555 1_555

#END
