
#######################################################################
#
#                 Cambridge Crystallographic Data Centre
#                                CCDC 
#
#######################################################################
#
# If this CIF has been generated from an entry in the Cambridge 
# Structural Database, then it will include bibliographic, chemical, 
# crystal, experimental, refinement or atomic coordinate data resulting 
# from the CCDC's data processing and validation procedures.
#
#######################################################################

data_SISKAI
_symmetry_cell_setting           triclinic
_symmetry_space_group_name_H-M   'P -1'
_symmetry_Int_Tables_number      2
_space_group_name_Hall           '-P 1'
loop_
_symmetry_equiv_pos_site_id
_symmetry_equiv_pos_as_xyz
1 x,y,z
2 -x,-y,-z
_cell_length_a                   8.1558(16)
_cell_length_b                   10.2151(18)
_cell_length_c                   11.2122(16)
_cell_angle_alpha                99.927(19)
_cell_angle_beta                 99.40(2)
_cell_angle_gamma                107.99(2)
_cell_volume                     851.441
loop_
_atom_site_label
_atom_site_type_symbol
_atom_site_fract_x
_atom_site_fract_y
_atom_site_fract_z
Pb1 Pb 0.75446(7) 0.51191(5) 0.02161(4)
N1 N 0.5833(14) 0.3638(10) 0.1466(9)
C1 C 0.5489(17) 0.2257(13) 0.1029(11)
H1 H 0.5680 0.1960 0.0248
C2 C 0.4866(19) 0.1251(13) 0.1675(13)
H2 H 0.4651 0.0299 0.1341
C3 C 0.4570(18) 0.1680(12) 0.2820(12)
H3 H 0.4157 0.1023 0.3279
C4 C 0.489(2) 0.3078(15) 0.3276(12)
H4 H 0.4694 0.3374 0.4056
C5 C 0.5512(16) 0.4104(12) 0.2584(10)
C6 C 0.5711(18) 0.5554(12) 0.3040(11)
H5 H 0.5739 0.5837 0.3879
C7 C 0.5863(16) 0.6547(12) 0.2381(11)
O1 O 0.5990(11) 0.6498(8) 0.1244(7)
C8 C 0.575(2) 0.7959(15) 0.3004(14)
F1 F 0.4233(12) 0.8105(9) 0.2474(9)
F2 F 0.5861(17) 0.8178(9) 0.4220(8)
F3 F 0.7019(13) 0.9079(8) 0.2834(8)
N2 N 0.9702(14) 0.6271(10) 0.2220(9)
C9 C 1.0014(19) 0.7695(13) 0.2574(13)
H6 H 0.9642 0.8138 0.1979
C10 C 1.083(2) 0.8492(15) 0.3735(15)
H7 H 1.0967 0.9448 0.3934
C11 C 1.146(2) 0.7864(16) 0.4639(13)
H8 H 1.2009 0.8379 0.5452
C12 C 1.123(2) 0.6464(18) 0.4272(13)
H9 H 1.1675 0.6034 0.4848
C13 C 1.0354(17) 0.5647(14) 0.3082(11)
C14 C 1.0204(18) 0.4181(13) 0.2730(12)
H10 H 1.0465 0.3765 0.3378
C15 C 0.9730(17) 0.3341(13) 0.1571(12)
O2 O 0.9211(11) 0.3596(8) 0.0511(7)
C16 C 0.987(2) 0.1865(16) 0.1396(13)
F4 F 1.1129(13) 0.1805(10) 0.0778(9)
F5 F 1.0327(13) 0.1496(9) 0.2468(8)
F6 F 0.8371(13) 0.0848(9) 0.0777(10)
Pb1A Pb 0.24554(7) 0.48809(5) -0.02161(4)
Pb1A_2 Pb 1.24554(7) 0.48809(5) -0.02161(4)
O1A O 0.4010(11) 0.3502(8) -0.1244(7)
O2A O 1.0789(11) 0.6404(8) -0.0511(7)
loop_
_geom_bond_atom_site_label_1
_geom_bond_atom_site_label_2
_geom_bond_site_symmetry_1
_geom_bond_site_symmetry_2
Pb1 N1 1_555 1_555
N1 C1 1_555 1_555
C1 H1 1_555 1_555
C2 C1 1_555 1_555
H2 C2 1_555 1_555
C3 C2 1_555 1_555
H3 C3 1_555 1_555
C4 C3 1_555 1_555
H4 C4 1_555 1_555
C5 N1 1_555 1_555
C6 C5 1_555 1_555
H5 C6 1_555 1_555
C7 C6 1_555 1_555
O1 Pb1 1_555 1_555
C8 C7 1_555 1_555
F1 C8 1_555 1_555
F2 C8 1_555 1_555
F3 C8 1_555 1_555
N2 Pb1 1_555 1_555
C9 N2 1_555 1_555
H6 C9 1_555 1_555
C10 C9 1_555 1_555
H7 C10 1_555 1_555
C11 C10 1_555 1_555
H8 C11 1_555 1_555
C12 C11 1_555 1_555
H9 C12 1_555 1_555
C13 N2 1_555 1_555
C14 C13 1_555 1_555
H10 C14 1_555 1_555
C15 C14 1_555 1_555
O2 Pb1 1_555 1_555
C16 C15 1_555 1_555
F4 C16 1_555 1_555
F5 C16 1_555 1_555
F6 C16 1_555 1_555
Pb1A O1 1_555 1_555
Pb1A_2 O2 1_555 1_555
O1A Pb1 1_555 1_555
O2A Pb1 1_555 1_555
C4 C5 1_555 1_555
C7 O1 1_555 1_555
C12 C13 1_555 1_555
C15 O2 1_555 1_555
Pb1A O1A 1_555 1_555
Pb1A_2 O2A 1_555 1_555

#END
