
#######################################################################
#
#                 Cambridge Crystallographic Data Centre
#                                CCDC 
#
#######################################################################
#
# If this CIF has been generated from an entry in the Cambridge 
# Structural Database, then it will include bibliographic, chemical, 
# crystal, experimental, refinement or atomic coordinate data resulting 
# from the CCDC's data processing and validation procedures.
#
#######################################################################

data_SISPER
_symmetry_cell_setting           monoclinic
_symmetry_space_group_name_H-M   'C 2/c'
_symmetry_Int_Tables_number      15
_space_group_name_Hall           '-C 2yn'
loop_
_symmetry_equiv_pos_site_id
_symmetry_equiv_pos_as_xyz
1 x,y,z
2 -x,y,1/2-z
3 1/2+x,1/2+y,z
4 1/2-x,1/2+y,1/2-z
5 -x,-y,-z
6 x,-y,1/2+z
7 1/2-x,1/2-y,-z
8 1/2+x,1/2-y,1/2+z
_cell_length_a                   15.791(3)
_cell_length_b                   14.196(3)
_cell_length_c                   13.551(3)
_cell_angle_alpha                90
_cell_angle_beta                 116.57(3)
_cell_angle_gamma                90
_cell_volume                     2716.9
loop_
_atom_site_label
_atom_site_type_symbol
_atom_site_fract_x
_atom_site_fract_y
_atom_site_fract_z
U1 U 0.15323(4) 0.46121(4) 0.71812(4)
N3 N 0.3786(16) 0.2510(16) 0.7508(15)
H1 H 0.3716 0.2471 0.6843
H2 H 0.4189 0.2155 0.8015
S1 S 0.0816(2) 0.4312(3) 0.4193(3)
O2 O 0.1227(9) 0.4663(7) 0.5332(10)
O3 O -0.0211(9) 0.4320(11) 0.3675(11)
O4 O 0.1220(11) 0.4785(12) 0.3612(11)
O5 O 0.1111(15) 0.3309(15) 0.4248(16)
O6 O 0.2676(10) 0.3649(9) 0.7033(9)
N4 N 0.2750(10) 0.3814(11) 0.9013(10)
O7 O 0.2285(10) 0.5552(8) 0.7391(11)
O8 O 0.0820(11) 0.3633(11) 0.6995(11)
C7 C 0.3339(13) 0.3102(14) 0.8860(12)
C8 C 0.3280(17) 0.3111(17) 0.7751(15)
C9 C 0.2825(15) 0.3940(17) 1.0015(15)
H3 H 0.2461 0.4406 1.0122
C10 C 0.3964(15) 0.264(2) 0.9801(16)
H4 H 0.4427 0.2267 0.9748
C11 C 0.3956(17) 0.2680(16) 1.0768(19)
H5 H 0.4289 0.2250 1.1325
C12 C 0.3423(14) 0.340(2) 1.0914(15)
H6 H 0.3470 0.3527 1.1610
U1D U -0.15323(4) 0.53879(4) 0.28188(4)
U1E U 0.15323(4) 0.53879(4) 0.21812(4)
O3D O 0.0211(9) 0.5680(11) 0.6325(11)
O4E O 0.1220(11) 0.5215(12) 0.8612(11)
C1 C 0.5204(17) 0.5554(16) 0.5283(17)
N1 N 0.4517(19) 0.494(2) 0.4574(18)
C2 C 0.412(2) 0.427(2) 0.499(2)
C3 C 0.441(2) 0.422(2) 0.612(3)
C4 C 0.510(3) 0.484(2) 0.683(2)
C5 C 0.549(2) 0.550(2) 0.6413(17)
C6 C 0.565(2) 0.622(2) 0.485(2)
O1 O 0.5373(19) 0.639(2) 0.384(2)
N2 N 0.637(5) 0.655(6) 0.548(6)
C1D C 0.4796(17) 0.4446(16) 0.4717(17)
N1D N 0.5483(19) 0.506(2) 0.5426(18)
C2D C 0.588(2) 0.573(2) 0.501(2)
C3D C 0.559(2) 0.578(2) 0.388(3)
C4D C 0.490(3) 0.516(2) 0.317(2)
C5D C 0.451(2) 0.450(2) 0.3587(17)
C6D C 0.435(2) 0.378(2) 0.515(2)
O1D O 0.4627(19) 0.361(2) 0.616(2)
N2D N 0.363(5) 0.345(6) 0.452(6)
loop_
_geom_bond_atom_site_label_1
_geom_bond_atom_site_label_2
_geom_bond_site_symmetry_1
_geom_bond_site_symmetry_2
C1 N1 1_555 1_555
N1 C2 1_555 1_555
C2 C3 1_555 1_555
C3 C4 1_555 1_555
C4 C5 1_555 1_555
C5 C1 1_555 1_555
C6 C1 1_555 1_555
O1 C6 1_555 1_555
N2 C6 1_555 1_555
U1 O2 1_555 1_555
N3 H1 1_555 1_555
H2 N3 1_555 1_555
S1 O2 1_555 1_555
O3 S1 1_555 1_555
O4 S1 1_555 1_555
O5 S1 1_555 1_555
O6 U1 1_555 1_555
N4 U1 1_555 1_555
O7 U1 1_555 1_555
O8 U1 1_555 1_555
C7 N4 1_555 1_555
C8 N3 1_555 1_555
C9 N4 1_555 1_555
H3 C9 1_555 1_555
C10 C7 1_555 1_555
H4 C10 1_555 1_555
C11 C10 1_555 1_555
H5 C11 1_555 1_555
C12 C9 1_555 1_555
H6 C12 1_555 1_555
C1D N1 1_555 1_555
N1D C1 1_555 1_555
C2D C1 1_555 1_555
C3D C6 1_555 1_555
C4D C3D 1_555 1_555
C5D N1 1_555 1_555
C6D C2 1_555 1_555
O1D C3 1_555 1_555
N2D C2 1_555 1_555
U1D O3 1_555 1_555
U1E O4 1_555 1_555
O3D U1 1_555 1_555
O4E U1 1_555 1_555
N1 N1D 1_555 1_555
C2 C1D 1_555 1_555
C3 C6D 1_555 1_555
C5 N1D 1_555 1_555
C6 C2D 1_555 1_555
O1 C3D 1_555 1_555
N2 C2D 1_555 1_555
O6 C8 1_555 1_555
C7 C8 1_555 1_555
C11 C12 1_555 1_555
C1D N1D 1_555 1_555
C1D C5D 1_555 1_555
C1D C6D 1_555 1_555
N1D C2D 1_555 1_555
C2D C3D 1_555 1_555
C4D C5D 1_555 1_555
C6D O1D 1_555 1_555
C6D N2D 1_555 1_555

#END
