
#######################################################################
#
#                 Cambridge Crystallographic Data Centre
#                                CCDC 
#
#######################################################################
#
# If this CIF has been generated from an entry in the Cambridge 
# Structural Database, then it will include bibliographic, chemical, 
# crystal, experimental, refinement or atomic coordinate data resulting 
# from the CCDC's data processing and validation procedures.
#
#######################################################################

data_SISPIV
_symmetry_cell_setting           triclinic
_symmetry_space_group_name_H-M   'P -1'
_symmetry_Int_Tables_number      2
_space_group_name_Hall           '-P 1'
loop_
_symmetry_equiv_pos_site_id
_symmetry_equiv_pos_as_xyz
1 x,y,z
2 -x,-y,-z
_cell_length_a                   6.8910(14)
_cell_length_b                   10.652(2)
_cell_length_c                   10.936(2)
_cell_angle_alpha                72.34(3)
_cell_angle_beta                 79.62(3)
_cell_angle_gamma                77.92(3)
_cell_volume                     742.078
loop_
_atom_site_label
_atom_site_type_symbol
_atom_site_fract_x
_atom_site_fract_y
_atom_site_fract_z
C1 C 0.3930(9) 0.3311(7) 0.3661(6)
H1 H 0.4229 0.4134 0.3624
C2 C 0.4208(9) 0.2944(7) 0.2524(6)
H2 H 0.4677 0.3511 0.1745
C3 C 0.3779(9) 0.1721(7) 0.2563(6)
H3 H 0.3948 0.1456 0.1810
C4 C 0.3095(9) 0.0897(7) 0.3735(6)
H4 H 0.2813 0.0063 0.3792
C5 C 0.2839(9) 0.1355(7) 0.4836(6)
C6 C 0.2038(9) 0.0580(6) 0.6158(6)
N1 N 0.3250(7) 0.2542(5) 0.4814(5)
N2 N 0.1685(8) -0.0615(5) 0.6339(5)
H5 H 0.1247 -0.1065 0.7099
H6 H 0.1889 -0.0958 0.5700
O1 O 0.1763(7) 0.1128(4) 0.7065(4)
O2 O 0.4192(7) 0.1323(5) 0.8607(4)
H7 H 0.546(3) 0.108(9) 0.869(9)
H8 H 0.354(11) 0.083(7) 0.928(5)
O3 O 0.3927(7) 0.4084(5) 0.8533(4)
H9 H 0.338(13) 0.471(6) 0.890(8)
H10 H 0.497(9) 0.362(8) 0.890(8)
O4 O 0.0391(7) 0.5343(5) 0.7582(4)
H11 H 0.053(12) 0.618(2) 0.730(7)
H12 H -0.033(10) 0.530(8) 0.833(4)
O5 O 0.0188(7) 0.2702(5) 0.8947(4)
O6 O -0.1863(7) 0.4427(5) 0.9835(4)
O7 O -0.3155(7) 0.2449(5) 0.9952(4)
O8 O -0.0555(7) 0.2284(5) 1.1237(4)
O9 O -0.0750(6) 0.3662(5) 0.6255(4)
O10 O -0.3996(6) 0.3061(4) 0.6446(4)
O11 O -0.2901(6) 0.4797(5) 0.4629(4)
O12 O -0.1396(6) 0.2512(5) 0.4807(4)
S1 S -0.1399(2) 0.29767(16) 1.00209(14)
S2 S -0.2233(2) 0.34780(15) 0.55316(13)
Th1 Th 0.23970(3) 0.32766(2) 0.70785(2)
O10_2 O 0.6004(6) 0.3061(4) 0.6446(4)
O11A O 0.2901(6) 0.5203(5) 0.5371(4)
Th1_2 Th -0.76030(3) 0.32766(2) 0.70785(2)
Th1A Th -0.23970(3) 0.67234(2) 0.29215(2)
O13 O 0.7947(7) 0.0055(5) 0.9151(5)
H13 H 0.854(12) 0.075(6) 0.893(9)
H14 H 0.884(10) -0.061(6) 0.900(9)
loop_
_geom_bond_atom_site_label_1
_geom_bond_atom_site_label_2
_geom_bond_site_symmetry_1
_geom_bond_site_symmetry_2
C1 H1 1_555 1_555
C2 C1 1_555 1_555
H2 C2 1_555 1_555
C3 C2 1_555 1_555
H3 C3 1_555 1_555
C4 C3 1_555 1_555
H4 C4 1_555 1_555
C5 C4 1_555 1_555
C6 C5 1_555 1_555
N1 C1 1_555 1_555
N2 C6 1_555 1_555
H5 N2 1_555 1_555
H6 N2 1_555 1_555
O1 C6 1_555 1_555
O2 H7 1_555 1_555
H8 O2 1_555 1_555
O3 H9 1_555 1_555
H10 O3 1_555 1_555
O4 H11 1_555 1_555
H12 O4 1_555 1_555
O5 S1 1_555 1_555
O6 S1 1_555 1_555
O7 S1 1_555 1_555
O8 S1 1_555 1_555
O9 S2 1_555 1_555
O10 S2 1_555 1_555
O11 S2 1_555 1_555
O12 S2 1_555 1_555
Th1 N1 1_555 1_555
O13 H13 1_555 1_555
H14 O13 1_555 1_555
O10_2 Th1 1_555 1_555
O11A Th1 1_555 1_555
Th1_2 O10 1_555 1_555
Th1A O11 1_555 1_555
C5 N1 1_555 1_555
O1 Th1 1_555 1_555
O2 Th1 1_555 1_555
O3 Th1 1_555 1_555
O4 Th1 1_555 1_555
O5 Th1 1_555 1_555
O9 Th1 1_555 1_555

#END
