
#######################################################################
#
#                 Cambridge Crystallographic Data Centre
#                                CCDC 
#
#######################################################################
#
# If this CIF has been generated from an entry in the Cambridge 
# Structural Database, then it will include bibliographic, chemical, 
# crystal, experimental, refinement or atomic coordinate data resulting 
# from the CCDC's data processing and validation procedures.
#
#######################################################################

data_SISQOB
_symmetry_cell_setting           triclinic
_symmetry_space_group_name_H-M   'P -1'
_symmetry_Int_Tables_number      2
_space_group_name_Hall           '-P 1'
loop_
_symmetry_equiv_pos_site_id
_symmetry_equiv_pos_as_xyz
1 x,y,z
2 -x,-y,-z
_cell_length_a                   10.6350(2)
_cell_length_b                   12.0238(2)
_cell_length_c                   14.5642(3)
_cell_angle_alpha                71.326(1)
_cell_angle_beta                 71.616(1)
_cell_angle_gamma                69.388(1)
_cell_volume                     1607.67
loop_
_atom_site_label
_atom_site_type_symbol
_atom_site_fract_x
_atom_site_fract_y
_atom_site_fract_z
Nd2 Nd 0.5000 0.5000 0.5000
N14 N 0.58197(19) 0.68693(18) 0.54884(15)
O10 O 0.61010(17) 0.67625(16) 0.46027(13)
O11 O 0.54771(17) 0.59950(16) 0.61750(13)
O12 O 0.58395(19) 0.77926(16) 0.56711(14)
N15 N 0.2181(2) 0.68584(19) 0.50744(15)
O13 O 0.23662(18) 0.58230(16) 0.49391(14)
O14 O 0.32594(17) 0.71140(15) 0.50620(13)
O15 O 0.10462(19) 0.75978(19) 0.52009(17)
N16 N 0.58315(19) 0.58225(17) 0.27755(15)
O16 O 0.67069(16) 0.50296(14) 0.32521(13)
O17 O 0.47539(16) 0.64284(15) 0.32852(13)
O18 O 0.6001(2) 0.59728(18) 0.18743(13)
N14A N 0.41803(19) 0.31307(18) 0.45116(15)
O10A O 0.38990(17) 0.32375(16) 0.53973(13)
O11A O 0.45229(17) 0.40050(16) 0.38250(13)
O12A O 0.41605(19) 0.22074(16) 0.43289(14)
N15A N 0.7819(2) 0.31416(19) 0.49256(15)
O13A O 0.76338(18) 0.41770(16) 0.50609(14)
O14A O 0.67406(17) 0.28860(15) 0.49380(13)
O15A O 0.89538(19) 0.24022(19) 0.47991(17)
N16A N 0.41685(19) 0.41775(17) 0.72245(15)
O16A O 0.32931(16) 0.49704(14) 0.67479(13)
O17A O 0.52461(16) 0.35716(15) 0.67148(13)
O18A O 0.3999(2) 0.40272(18) 0.81257(13)
Nd1 Nd 0.676172(11) 0.936756(10) 0.801205(9)
N1 N 0.36054(19) 0.74674(17) 0.81631(15)
N2 N 0.32134(19) 0.91806(17) 0.69984(15)
N3 N 0.14037(18) 0.72456(18) 0.81587(15)
N4 N 0.11369(19) 0.88281(18) 0.68801(15)
N5 N 0.21844(19) 1.13522(18) 0.65656(15)
N6 N 0.09166(19) 1.30147(18) 0.71329(15)
N7 N 0.01201(19) 1.09963(18) 0.64732(15)
N8 N -0.11595(19) 1.25836(18) 0.71209(15)
N9 N -0.03402(19) 1.40145(18) 0.84942(15)
N10 N -0.11185(19) 1.38554(18) 1.01217(15)
N11 N -0.23881(19) 1.35186(18) 0.85241(15)
N12 N -0.33162(19) 1.36425(18) 1.00934(15)
C1 C 0.3891(2) 0.8569(2) 0.77423(17)
C2 C 0.0465(2) 0.8165(2) 0.76975(17)
C3 C 0.2813(2) 0.7246(2) 0.76223(17)
H1 H 0.3317 0.6493 0.7362
C4 C 0.2619(2) 0.8405(2) 0.67695(17)
H2 H 0.3108 0.8217 0.6104
C5 C 0.3356(2) 1.0337(2) 0.63326(17)
H3 H 0.4200 1.0478 0.6370
H4 H 0.3470 1.0298 0.5641
C6 C 0.0462(2) 0.9859(2) 0.61954(17)
H5 H 0.1075 0.9913 0.5521
H6 H -0.0393 0.9728 0.6170
C7 C 0.2141(2) 1.2093(2) 0.71151(17)
C8 C -0.1122(2) 1.1479(2) 0.70213(17)
C9 C 0.1008(2) 1.1798(2) 0.61182(17)
H7 H 0.1289 1.2020 0.5375
C10 C 0.0097(2) 1.2927(2) 0.65450(17)
H8 H -0.0093 1.3682 0.6004
C11 C 0.0623(2) 1.4050(2) 0.75363(18)
H9 H 0.0247 1.4802 0.7059
H10 H 0.1499 1.4101 0.7600
C12 C -0.2401(2) 1.3403(2) 0.75638(17)
H11 H -0.3198 1.3108 0.7646
H12 H -0.2535 1.4222 0.7102
C13 C 0.0057(2) 1.3670(2) 0.93782(18)
C14 C -0.3246(2) 1.3093(2) 0.93776(18)
C15 C -0.1826(2) 1.4397(2) 0.86275(17)
H13 H -0.2151 1.5226 0.8197
C16 C -0.2370(2) 1.4394(2) 0.97492(18)
H14 H -0.2848 1.5239 0.9854
C17 C 0.1085(2) 0.61960(19) 0.89016(17)
H15 H 0.1749 0.5449 0.8704
H16 H 0.0153 0.6190 0.8910
C18 C 0.4234(2) 0.6534(2) 0.89238(17)
H17 H 0.4599 0.5750 0.8717
H18 H 0.5027 0.6747 0.8970
O1 O 0.46477(16) 0.89389(15) 0.79941(13)
O2 O -0.08038(16) 0.83334(16) 0.79734(13)
O3 O 0.30478(16) 1.20094(15) 0.75100(13)
O4 O -0.20987(16) 1.10214(15) 0.73545(13)
O5 O 0.12407(16) 1.33196(16) 0.94757(13)
O6 O -0.38996(17) 1.23794(15) 0.94868(13)
N13 N 0.78980(19) 0.75646(18) 0.67369(15)
O7 O 0.77973(17) 0.87014(15) 0.63452(13)
O8 O 0.73838(18) 0.72909(15) 0.76673(13)
O9 O 0.8453(2) 0.67910(17) 0.62561(14)
O22 O 0.57907(16) 1.10303(14) 0.66680(13)
H19 H 0.6303(11) 1.1443(15) 0.6236(12)
H20 H 0.4968(8) 1.1459(14) 0.6814(11)
O23 O 0.46680(17) 1.07372(16) 0.88525(13)
H21 H 0.4290(15) 1.0505(16) 0.9455(6)
H22 H 0.4079(14) 1.1226(18) 0.8519(9)
O24 O 0.65602(17) 0.77100(16) 0.95664(12)
H23 H 0.7195(12) 0.7417(19) 0.9873(11)
H24 H 0.5784(8) 0.7684(19) 0.9934(11)
O25 O 0.71937(18) 0.99342(16) 0.93920(13)
H25 H 0.7957(14) 0.9550(15) 0.9550(15)
H26 H 0.700(2) 1.0694(6) 0.9342(14)
Nd1A Nd -0.676172(11) 1.063244(10) 1.198795(9)
Nd1_2 Nd -0.323828(11) 0.936756(10) 0.801205(9)
Nd1A_2 Nd 0.323828(11) 1.063244(10) 1.198795(9)
N1A N -0.36054(19) 1.25326(17) 1.18369(15)
N2A N -0.32134(19) 1.08194(17) 1.30016(15)
N3A N -0.14037(18) 1.27544(18) 1.18413(15)
N4A N -0.11369(19) 1.11719(18) 1.31199(15)
N5A N -0.21844(19) 0.86478(18) 1.34344(15)
N6A N -0.09166(19) 0.69853(18) 1.28671(15)
N7A N -0.01201(19) 0.90037(18) 1.35268(15)
N8A N 0.11595(19) 0.74164(18) 1.28791(15)
N9A N 0.03402(19) 0.59855(18) 1.15058(15)
N10A N 0.11185(19) 0.61446(18) 0.98783(15)
N11A N 0.23881(19) 0.64814(18) 1.14759(15)
N12A N 0.33162(19) 0.63575(18) 0.99066(15)
C1A C -0.3891(2) 1.1431(2) 1.22577(17)
C2A C -0.0465(2) 1.1835(2) 1.23025(17)
C3A C -0.2813(2) 1.2754(2) 1.23777(17)
H1A H -0.3317 1.3507 1.2638
C4A C -0.2619(2) 1.1595(2) 1.32305(17)
H2A H -0.3108 1.1783 1.3896
C5A C -0.3356(2) 0.9663(2) 1.36674(17)
H3A H -0.4200 0.9522 1.3630
H4A H -0.3470 0.9702 1.4359
C6A C -0.0462(2) 1.0141(2) 1.38046(17)
H5A H -0.1075 1.0087 1.4479
H6A H 0.0393 1.0272 1.3830
C7A C -0.2141(2) 0.7907(2) 1.28849(17)
C8A C 0.1122(2) 0.8521(2) 1.29787(17)
C9A C -0.1008(2) 0.8202(2) 1.38818(17)
H7A H -0.1289 0.7980 1.4625
C10A C -0.0097(2) 0.7073(2) 1.34550(17)
H8A H 0.0093 0.6318 1.3996
C11A C -0.0623(2) 0.5950(2) 1.24637(18)
H9A H -0.0247 0.5198 1.2941
H10A H -0.1499 0.5899 1.2400
C12A C 0.2401(2) 0.6597(2) 1.24362(17)
H11A H 0.3198 0.6892 1.2354
H12A H 0.2535 0.5778 1.2898
C13A C -0.0057(2) 0.6330(2) 1.06218(18)
C14A C 0.3246(2) 0.6907(2) 1.06224(18)
C15A C 0.1826(2) 0.5603(2) 1.13725(17)
H13A H 0.2151 0.4774 1.1803
C16A C 0.2370(2) 0.5606(2) 1.02508(18)
H14A H 0.2848 0.4761 1.0146
C17A C -0.1085(2) 1.38040(19) 1.10984(17)
H15A H -0.1749 1.4551 1.1296
H16A H -0.0153 1.3810 1.1090
C18A C -0.4234(2) 1.3466(2) 1.10762(17)
H17A H -0.4599 1.4250 1.1283
H18A H -0.5027 1.3253 1.1030
O1A O -0.46477(16) 1.10611(15) 1.20059(13)
O2A O 0.08038(16) 1.16666(16) 1.20266(13)
O2_2 O 0.91962(16) 0.83334(16) 0.79734(13)
O2A_2 O -0.91962(16) 1.16666(16) 1.20266(13)
O3A O -0.30478(16) 0.79906(15) 1.24900(13)
O4A O 0.20987(16) 0.89786(15) 1.26455(13)
O4_2 O 0.79013(16) 1.10214(15) 0.73545(13)
O4A_2 O -0.79013(16) 0.89786(15) 1.26455(13)
O5A O -0.12407(16) 0.66804(16) 1.05243(13)
O6A O 0.38996(17) 0.76206(15) 1.05132(13)
N13A N -0.78980(19) 1.24354(18) 1.32631(15)
O7A O -0.77973(17) 1.12986(15) 1.36548(13)
O8A O -0.73838(18) 1.27091(15) 1.23327(13)
O9A O -0.8453(2) 1.32090(17) 1.37439(14)
O22A O -0.57907(16) 0.89697(14) 1.33320(13)
H19A H -0.6303(11) 0.8557(15) 1.3764(12)
H20A H -0.4968(8) 0.8541(14) 1.3186(11)
O23A O -0.46680(17) 0.92628(16) 1.11475(13)
H21A H -0.4290(15) 0.9495(16) 1.0545(6)
H22A H -0.4079(14) 0.8774(18) 1.1481(9)
O24A O -0.65602(17) 1.22900(16) 1.04336(12)
H23A H -0.7195(12) 1.2583(19) 1.0127(11)
H24A H -0.5784(8) 1.2316(19) 1.0066(11)
O25A O -0.71937(18) 1.00658(16) 1.06080(13)
H25A H -0.7957(14) 1.0450(15) 1.0450(15)
H26A H -0.700(2) 0.9306(6) 1.0658(14)
N17? N 0.0357(6) 1.0001(7) 0.9645(5)
O19? O -0.0224(6) 1.0051(7) 0.9032(5)
O20? O 0.0688(9) 0.9019(6) 1.0226(7)
O21? O 0.0716(7) 1.0841(6) 0.9720(6)
loop_
_geom_bond_atom_site_label_1
_geom_bond_atom_site_label_2
_geom_bond_site_symmetry_1
_geom_bond_site_symmetry_2
Nd1 O1 1_555 1_555
Nd2 O10 1_555 1_555
N1 C1 1_555 1_555
N2 C1 1_555 1_555
N3 C2 1_555 1_555
N4 C2 1_555 1_555
N5 C5 1_555 1_555
N6 C7 1_555 1_555
N7 C6 1_555 1_555
N8 C8 1_555 1_555
N9 C11 1_555 1_555
N10 C13 1_555 1_555
N11 C12 1_555 1_555
N12 C14 1_555 1_555
C1 O1 1_555 1_555
C2 O2 1_555 1_555
C3 N1 1_555 1_555
H1 C3 1_555 1_555
C4 N2 1_555 1_555
H2 C4 1_555 1_555
C5 N2 1_555 1_555
H3 C5 1_555 1_555
H4 C5 1_555 1_555
C6 N4 1_555 1_555
H5 C6 1_555 1_555
H6 C6 1_555 1_555
C7 N5 1_555 1_555
C8 N7 1_555 1_555
C9 N5 1_555 1_555
H7 C9 1_555 1_555
C10 N6 1_555 1_555
H8 C10 1_555 1_555
C11 N6 1_555 1_555
H9 C11 1_555 1_555
H10 C11 1_555 1_555
C12 N8 1_555 1_555
H11 C12 1_555 1_555
H12 C12 1_555 1_555
C13 N9 1_555 1_555
C14 N11 1_555 1_555
C15 N9 1_555 1_555
H13 C15 1_555 1_555
C16 N10 1_555 1_555
H14 C16 1_555 1_555
C17 N3 1_555 1_555
H15 C17 1_555 1_555
H16 C17 1_555 1_555
C18 N1 1_555 1_555
H17 C18 1_555 1_555
H18 C18 1_555 1_555
O2 Nd1_2 1_555 1_555
O3 C7 1_555 1_555
O4 C8 1_555 1_555
O5 C13 1_555 1_555
O6 C14 1_555 1_555
N13 O7 1_555 1_555
O7 Nd1 1_555 1_555
O8 Nd1 1_555 1_555
O9 N13 1_555 1_555
N14 O10 1_555 1_555
O11 Nd2 1_555 1_555
O12 N14 1_555 1_555
N15 O13 1_555 1_555
O13 Nd2 1_555 1_555
O14 Nd2 1_555 1_555
O15 N15 1_555 1_555
N16 O16 1_555 1_555
O16 Nd2 1_555 1_555
O17 Nd2 1_555 1_555
O18 N16 1_555 1_555
O22 Nd1 1_555 1_555
H19 O22 1_555 1_555
H20 O22 1_555 1_555
O23 Nd1 1_555 1_555
H21 O23 1_555 1_555
H22 O23 1_555 1_555
O24 Nd1 1_555 1_555
H23 O24 1_555 1_555
H24 O24 1_555 1_555
O25 Nd1 1_555 1_555
H25 O25 1_555 1_555
H26 O25 1_555 1_555
Nd1A O1A 1_555 1_555
Nd1_2 O4 1_555 1_555
Nd1A_2 O2A 1_555 1_555
N1A C1A 1_555 1_555
N2A C1A 1_555 1_555
N3A C2A 1_555 1_555
N4A C2A 1_555 1_555
N5A C5A 1_555 1_555
N6A C7A 1_555 1_555
N7A C6A 1_555 1_555
N8A C8A 1_555 1_555
N9A C11A 1_555 1_555
N10A C17 1_555 1_555
N11A C12A 1_555 1_555
N12A C18 1_555 1_555
C1A O1A 1_555 1_555
C2A O2A 1_555 1_555
C3A N1A 1_555 1_555
H1A C3A 1_555 1_555
C4A N2A 1_555 1_555
H2A C4A 1_555 1_555
C5A N2A 1_555 1_555
H3A C5A 1_555 1_555
H4A C5A 1_555 1_555
C6A N4A 1_555 1_555
H5A C6A 1_555 1_555
H6A C6A 1_555 1_555
C7A N5A 1_555 1_555
C8A N7A 1_555 1_555
C9A N5A 1_555 1_555
H7A C9A 1_555 1_555
C10A N6A 1_555 1_555
H8A C10A 1_555 1_555
C11A N6A 1_555 1_555
H9A C11A 1_555 1_555
H10A C11A 1_555 1_555
C12A N8A 1_555 1_555
H11A C12A 1_555 1_555
H12A C12A 1_555 1_555
C13A N9A 1_555 1_555
C14A N11A 1_555 1_555
C15A N9A 1_555 1_555
H13A C15A 1_555 1_555
C16A N10A 1_555 1_555
H14A C16A 1_555 1_555
C17A N10 1_555 1_555
H15A C17A 1_555 1_555
H16A C17A 1_555 1_555
C18A N12 1_555 1_555
H17A C18A 1_555 1_555
H18A C18A 1_555 1_555
O2_2 Nd1 1_555 1_555
O2A_2 Nd1A 1_555 1_555
O3A C7A 1_555 1_555
O4A Nd1A_2 1_555 1_555
O4_2 Nd1 1_555 1_555
O4A_2 Nd1A 1_555 1_555
O5A C13A 1_555 1_555
O6A C14A 1_555 1_555
N13A O7A 1_555 1_555
O7A Nd1A 1_555 1_555
O8A Nd1A 1_555 1_555
O9A N13A 1_555 1_555
N14A O10A 1_555 1_555
O10A Nd2 1_555 1_555
O11A Nd2 1_555 1_555
O12A N14A 1_555 1_555
N15A O13A 1_555 1_555
O13A Nd2 1_555 1_555
O14A Nd2 1_555 1_555
O15A N15A 1_555 1_555
N16A O16A 1_555 1_555
O16A Nd2 1_555 1_555
O17A Nd2 1_555 1_555
O18A N16A 1_555 1_555
O22A Nd1A 1_555 1_555
H19A O22A 1_555 1_555
H20A O22A 1_555 1_555
O23A Nd1A 1_555 1_555
H21A O23A 1_555 1_555
H22A O23A 1_555 1_555
O24A Nd1A 1_555 1_555
H23A O24A 1_555 1_555
H24A O24A 1_555 1_555
O25A Nd1A 1_555 1_555
H25A O25A 1_555 1_555
H26A O25A 1_555 1_555
N3 C3 1_555 1_555
N4 C4 1_555 1_555
N7 C9 1_555 1_555
N8 C10 1_555 1_555
N11 C15 1_555 1_555
N12 C16 1_555 1_555
C3 C4 1_555 1_555
C9 C10 1_555 1_555
C15 C16 1_555 1_555
N13 O8 1_555 1_555
N14 O11 1_555 1_555
N15 O14 1_555 1_555
N16 O17 1_555 1_555
N1A C18A 1_555 1_555
N3A C3A 1_555 1_555
N3A C17A 1_555 1_555
N4A C4A 1_555 1_555
N7A C9A 1_555 1_555
N8A C10A 1_555 1_555
N10A C13A 1_555 1_555
N11A C15A 1_555 1_555
N12A C14A 1_555 1_555
N12A C16A 1_555 1_555
C3A C4A 1_555 1_555
C8A O4A 1_555 1_555
C9A C10A 1_555 1_555
C15A C16A 1_555 1_555
N13A O8A 1_555 1_555
N14A O11A 1_555 1_555
N15A O14A 1_555 1_555
N16A O17A 1_555 1_555

#END
