
#######################################################################
#
#                 Cambridge Crystallographic Data Centre
#                                CCDC 
#
#######################################################################
#
# If this CIF has been generated from an entry in the Cambridge 
# Structural Database, then it will include bibliographic, chemical, 
# crystal, experimental, refinement or atomic coordinate data resulting 
# from the CCDC's data processing and validation procedures.
#
#######################################################################

data_SISQES
_symmetry_cell_setting           monoclinic
_symmetry_space_group_name_H-M   'P c'
_symmetry_Int_Tables_number      7
_space_group_name_Hall           'P -2yc'
loop_
_symmetry_equiv_pos_site_id
_symmetry_equiv_pos_as_xyz
1 x,y,z
2 x,-y,1/2+z
_cell_length_a                   17.8204(8)
_cell_length_b                   10.9111(5)
_cell_length_c                   16.8813(8)
_cell_angle_alpha                90
_cell_angle_beta                 89.7620(10)
_cell_angle_gamma                90
_cell_volume                     3282.37
loop_
_atom_site_label
_atom_site_type_symbol
_atom_site_fract_x
_atom_site_fract_y
_atom_site_fract_z
Sm1 Sm 0.17088(3) 0.39357(4) 0.87573(2)
Sm2 Sm 0.16895(3) 0.41117(4) 0.59163(3)
Sm3 Sm 0.66724(3) 1.04165(4) 0.52634(3)
Sm4 Sm 0.67481(3) 0.85961(4) 0.73926(3)
S1 S -0.08532(18) 0.1605(3) 0.7700(2)
S2 S -0.06841(18) 0.2294(4) 0.4507(2)
S3 S 0.42184(17) 0.6674(3) 0.8569(2)
S4 S 0.43021(18) 0.2271(3) 0.6706(2)
S5 S 0.41202(18) 0.7800(3) 0.5154(2)
S6 S 0.91877(19) 0.6797(3) 0.6108(2)
O1 O 0.0574(5) 0.3284(10) 0.8051(5)
O2 O 0.0898(5) 0.3085(9) 0.6788(6)
O3 O -0.2284(5) 0.0134(9) 0.7729(6)
O4 O -0.2635(5) 0.0500(8) 0.6503(5)
O5 O 0.0785(5) 0.3409(9) 0.4910(6)
O6 O 0.1003(5) 0.4202(9) 0.3723(6)
O7 O -0.2190(5) 0.1095(9) 0.4592(6)
O8 O -0.2648(5) 0.2042(8) 0.3540(5)
O9 O 0.2390(5) 0.5850(8) 0.9710(6)
O10 O 0.2768(5) 0.5328(9) 0.8530(6)
O11 O 0.5872(6) 0.8691(11) 0.9321(7)
O12 O 0.5673(5) 0.7959(9) 0.8136(6)
O13 O 0.2437(5) 0.2897(8) 0.7845(6)
O14 O 0.2797(5) 0.3500(9) 0.6644(6)
O15 O 0.6025(5) 0.0409(7) 0.7504(5)
O16 O 0.5747(5) 0.1106(9) 0.6288(6)
O17 O 0.2398(5) 0.5955(7) 0.5932(6)
O18 O 0.2632(5) 0.6743(9) 0.4740(6)
O19 O 0.5996(5) 0.8524(9) 0.6265(6)
O20 O 0.5563(5) 0.9096(9) 0.5104(6)
O21 O 0.7727(5) 0.7911(8) 0.6557(6)
O22 O 0.7475(5) 0.8697(9) 0.5373(6)
O23 O 1.0632(5) 0.5486(10) 0.6132(6)
O24 O 1.1005(5) 0.5986(8) 0.4929(6)
O25 O 0.1694(6) 0.5161(6) 0.7322(5)
H1 H 0.1256 0.5689 0.7337
H2 H 0.2127 0.5699 0.7327
O26 O 0.1933(6) 0.1924(9) 0.5715(7)
O27 O 0.1482(6) 0.1756(8) 0.8981(7)
O28 O 0.6575(8) 0.6413(9) 0.7270(10)
O29 O 0.6748(7) 0.9192(8) 0.4017(5)
O30 O 0.6845(6) 1.2621(7) 0.5438(6)
N1 N 0.1652(15) -0.0116(18) 0.5996(12)
N2 N 0.1634(11) -0.0166(15) 0.8648(10)
N3 N 0.6538(16) 0.441(2) 0.7665(15)
N4 N 0.6553(12) 1.4596(16) 0.5304(15)
C1 C 0.0443(7) 0.3040(13) 0.7352(8)
C2 C -0.0336(7) 0.2550(13) 0.7135(9)
C3 C -0.0675(8) 0.2872(18) 0.6444(10)
H3 H -0.0495 0.3461 0.6093
C4 C -0.1359(9) 0.2162(16) 0.6333(9)
H4 H -0.1648 0.2180 0.5876
C5 C -0.1522(7) 0.1478(12) 0.6971(8)
C6 C -0.2183(7) 0.0645(10) 0.7080(9)
C7 C 0.0618(7) 0.3637(10) 0.4208(8)
C8 C -0.0119(7) 0.3180(12) 0.3922(8)
C9 C -0.0471(9) 0.346(2) 0.3249(10)
H5 H -0.0249 0.3937 0.2855
C10 C -0.1204(10) 0.298(2) 0.3177(11)
H6 H -0.1512 0.3089 0.2739
C11 C -0.1399(7) 0.2337(14) 0.3852(9)
C12 C -0.2138(7) 0.1741(13) 0.4024(8)
C13 C 0.2841(7) 0.5885(11) 0.9173(8)
C14 C 0.3511(6) 0.6711(12) 0.9260(8)
C15 C 0.3658(8) 0.7545(14) 0.9824(9)
H7 H 0.3321 0.7731 1.0229
C16 C 0.4365(7) 0.8116(13) 0.9753(8)
H8 H 0.4562 0.8672 1.0114
C17 C 0.4709(7) 0.7744(13) 0.9095(8)
C18 C 0.5486(7) 0.8149(11) 0.8833(7)
C19 C 0.2912(7) 0.3005(12) 0.7305(8)
C20 C 0.3655(7) 0.2423(13) 0.7449(8)
C21 C 0.3905(8) 0.1905(18) 0.8119(10)
H9 H 0.3636 0.1923 0.8592
C22 C 0.4606(7) 0.1336(16) 0.8043(10)
H10 H 0.4847 0.0928 0.8453
C23 C 0.4891(6) 0.1449(12) 0.7305(8)
C24 C 0.5613(7) 0.0977(10) 0.7000(8)
C25 C 0.2810(7) 0.6517(11) 0.5426(8)
C26 C 0.3564(6) 0.6902(11) 0.5724(8)
C27 C 0.3872(9) 0.6665(14) 0.6448(9)
H11 H 0.3641 0.6195 0.6838
C28 C 0.4594(8) 0.7226(15) 0.6537(9)
H12 H 0.4889 0.7161 0.6988
C29 C 0.4794(7) 0.7863(11) 0.5879(7)
C30 C 0.5493(7) 0.8553(14) 0.5733(8)
C31 C 0.7884(6) 0.8141(11) 0.5863(9)
C32 C 0.8609(7) 0.7679(13) 0.5573(8)
C33 C 0.8875(9) 0.7892(18) 0.4838(10)
H13 H 0.8632 0.8354 0.4454
C34 C 0.9587(8) 0.7306(17) 0.4731(10)
H14 H 0.9854 0.7343 0.4257
C35 C 0.9830(7) 0.6717(13) 0.5347(9)
C36 C 1.0535(8) 0.6030(12) 0.5472(9)
C37 C 0.1443(13) 0.1085(19) 0.5816(15)
H15 H 0.0937 0.1277 0.5769
C38 C 0.117(2) -0.116(4) 0.607(2)
C39 C 0.253(2) -0.017(4) 0.608(3)
C40 C 0.1819(16) 0.097(2) 0.8894(14)
H16 H 0.2325 0.1076 0.9004
C41 C 0.078(2) -0.040(4) 0.857(2)
C42 C 0.213(2) -0.126(3) 0.858(2)
C43 C 0.697(2) 0.555(3) 0.749(2)
H17 H 0.7489 0.5600 0.7531
C44 C 0.589(3) 0.419(6) 0.786(4)
C45 C 0.690(5) 0.328(6) 0.791(4)
C46 C 0.6399(12) 1.3421(18) 0.5408(13)
H18 H 0.5896 1.3205 0.5463
C47 C 0.5975(19) 1.561(3) 0.536(2)
C48 C 0.7387(18) 1.505(4) 0.521(3)
Sm1A Sm 0.17088(3) 0.60643(4) 0.37573(2)
Sm1A_2 Sm 1.17088(3) 0.60643(4) 0.37573(2)
Sm2_2 Sm 1.16895(3) 0.41117(4) 0.59163(3)
Sm2A Sm 0.16895(3) 0.58883(4) 1.09163(3)
Sm3_2 Sm -0.33276(3) 0.04165(4) 0.52634(3)
Sm3_3 Sm 0.66724(3) 0.04165(4) 0.52634(3)
Sm3A Sm 0.66724(3) 0.95835(4) 1.02634(3)
Sm4_2 Sm -0.32519(3) -0.14039(4) 0.73926(3)
Sm4_3 Sm 0.67481(3) -0.14039(4) 0.73926(3)
Sm4A Sm -0.32519(3) 0.14039(4) 0.23926(3)
O3_2 O 0.7716(5) 1.0134(9) 0.7729(6)
O4_2 O 0.7365(5) 1.0500(8) 0.6503(5)
O6A O 0.1003(5) 0.5798(9) 0.8723(6)
O7_2 O 0.7810(5) 1.1095(9) 0.4592(6)
O8A O 0.7352(5) 0.7958(8) 0.8540(5)
O9A O 0.2390(5) 0.4150(8) 0.4710(6)
O11A O 0.5872(6) 1.1309(11) 0.4321(7)
O15_2 O 0.6025(5) 1.0409(7) 0.7504(5)
O16_2 O 0.5747(5) 1.1106(9) 0.6288(6)
O18A O 0.2632(5) 0.3257(9) 0.9740(6)
O23_2 O 0.0632(5) 0.5486(10) 0.6132(6)
O24_2 O 0.1005(5) 0.5986(8) 0.4929(6)
O24A O 0.1005(5) 0.4014(8) 0.9929(6)
loop_
_geom_bond_atom_site_label_1
_geom_bond_atom_site_label_2
_geom_bond_site_symmetry_1
_geom_bond_site_symmetry_2
Sm1 O1 1_555 1_555
Sm2 O2 1_555 1_555
Sm3 O19 1_555 1_555
Sm4 O12 1_555 1_555
S1 C2 1_555 1_555
S2 C8 1_555 1_555
S3 C14 1_555 1_555
S4 C20 1_555 1_555
S5 C26 1_555 1_555
S6 C32 1_555 1_555
O1 C1 1_555 1_555
O2 C1 1_555 1_555
O3 C6 1_555 1_555
O4 C6 1_555 1_555
O5 Sm2 1_555 1_555
O6 C7 1_555 1_555
O7 C12 1_555 1_555
O8 C12 1_555 1_555
O9 Sm1 1_555 1_555
O10 Sm1 1_555 1_555
O11 C18 1_555 1_555
O12 C18 1_555 1_555
O13 Sm1 1_555 1_555
O14 Sm2 1_555 1_555
O15 C24 1_555 1_555
O16 C24 1_555 1_555
O17 Sm2 1_555 1_555
O18 C25 1_555 1_555
O19 Sm4 1_555 1_555
O20 Sm3 1_555 1_555
O21 Sm4 1_555 1_555
O22 Sm3 1_555 1_555
O23 C36 1_555 1_555
O24 C36 1_555 1_555
O25 Sm1 1_555 1_555
H1 O25 1_555 1_555
H2 O25 1_555 1_555
O26 Sm2 1_555 1_555
O27 Sm1 1_555 1_555
O28 Sm4 1_555 1_555
O29 Sm3 1_555 1_555
O30 Sm3 1_555 1_555
N1 C37 1_555 1_555
N2 C40 1_555 1_555
N3 C43 1_555 1_555
N4 C46 1_555 1_555
C1 C2 1_555 1_555
C2 C3 1_555 1_555
C3 H3 1_555 1_555
C4 C3 1_555 1_555
H4 C4 1_555 1_555
C5 S1 1_555 1_555
C6 C5 1_555 1_555
C7 O5 1_555 1_555
C8 C7 1_555 1_555
C9 C8 1_555 1_555
H5 C9 1_555 1_555
C10 C9 1_555 1_555
H6 C10 1_555 1_555
C11 S2 1_555 1_555
C12 C11 1_555 1_555
C13 O9 1_555 1_555
C14 C13 1_555 1_555
C15 C14 1_555 1_555
H7 C15 1_555 1_555
C16 C15 1_555 1_555
H8 C16 1_555 1_555
C17 S3 1_555 1_555
C18 C17 1_555 1_555
C19 O13 1_555 1_555
C20 C19 1_555 1_555
C21 C20 1_555 1_555
H9 C21 1_555 1_555
C22 C21 1_555 1_555
H10 C22 1_555 1_555
C23 S4 1_555 1_555
C24 C23 1_555 1_555
C25 O17 1_555 1_555
C26 C25 1_555 1_555
C27 C26 1_555 1_555
H11 C27 1_555 1_555
C28 C27 1_555 1_555
H12 C28 1_555 1_555
C29 S5 1_555 1_555
C30 O19 1_555 1_555
C31 O21 1_555 1_555
C32 C31 1_555 1_555
C33 C32 1_555 1_555
H13 C33 1_555 1_555
C34 C33 1_555 1_555
H14 C34 1_555 1_555
C35 S6 1_555 1_555
C36 C35 1_555 1_555
C37 O26 1_555 1_555
H15 C37 1_555 1_555
C38 N1 1_555 1_555
C39 N1 1_555 1_555
C40 O27 1_555 1_555
H16 C40 1_555 1_555
C41 N2 1_555 1_555
C42 N2 1_555 1_555
C43 O28 1_555 1_555
H17 C43 1_555 1_555
C44 N3 1_555 1_555
C45 N3 1_555 1_555
C46 O30 1_555 1_555
H18 C46 1_555 1_555
C47 N4 1_555 1_555
C48 N4 1_555 1_555
Sm1A O6 1_555 1_555
Sm1A_2 O24 1_555 1_555
Sm2_2 O23 1_555 1_555
Sm2A O9 1_555 1_555
Sm3_2 O4 1_555 1_555
Sm3_3 O16 1_555 1_555
Sm3A O11 1_555 1_555
Sm4_2 O3 1_555 1_555
Sm4_3 O15 1_555 1_555
Sm4A O8 1_555 1_555
O3_2 Sm4 1_555 1_555
O4_2 Sm3 1_555 1_555
O6A Sm1 1_555 1_555
O7_2 Sm3 1_555 1_555
O8A Sm4 1_555 1_555
O9A Sm2 1_555 1_555
O11A Sm3 1_555 1_555
O15_2 Sm4 1_555 1_555
O16_2 Sm3 1_555 1_555
O18A Sm1 1_555 1_555
O23_2 Sm2 1_555 1_555
O24_2 Sm2 1_555 1_555
O24A Sm1 1_555 1_555
Sm2 O25 1_555 1_555
Sm4 O4_2 1_555 1_555
O4 Sm4_2 1_555 1_555
O7 Sm3_2 1_555 1_555
O10 C13 1_555 1_555
O14 C19 1_555 1_555
O18 Sm1A 1_555 1_555
O20 C30 1_555 1_555
O22 C31 1_555 1_555
O24 Sm2_2 1_555 1_555
C4 C5 1_555 1_555
C10 C11 1_555 1_555
C16 C17 1_555 1_555
C22 C23 1_555 1_555
C28 C29 1_555 1_555
C29 C30 1_555 1_555
C34 C35 1_555 1_555
Sm1A O9A 1_555 1_555
Sm1A O24_2 1_555 1_555
Sm2A O24A 1_555 1_555

#END
