
#######################################################################
#
#                 Cambridge Crystallographic Data Centre
#                                CCDC 
#
#######################################################################
#
# If this CIF has been generated from an entry in the Cambridge 
# Structural Database, then it will include bibliographic, chemical, 
# crystal, experimental, refinement or atomic coordinate data resulting 
# from the CCDC's data processing and validation procedures.
#
#######################################################################

data_SISRIW
_symmetry_cell_setting           monoclinic
_symmetry_space_group_name_H-M   'C 2/c'
_symmetry_Int_Tables_number      15
_space_group_name_Hall           '-C 2yn'
loop_
_symmetry_equiv_pos_site_id
_symmetry_equiv_pos_as_xyz
1 x,y,z
2 1/2+x,1/2+y,z
3 -x,y,1/2-z
4 1/2-x,1/2+y,1/2-z
5 -x,-y,-z
6 1/2-x,1/2-y,-z
7 x,-y,1/2+z
8 1/2+x,1/2-y,1/2+z
_cell_length_a                   9.0744(5)
_cell_length_b                   19.8203(13)
_cell_length_c                   10.0259(6)
_cell_angle_alpha                90
_cell_angle_beta                 108.541(2)
_cell_angle_gamma                90
_cell_volume                     1709.64
loop_
_atom_site_label
_atom_site_type_symbol
_atom_site_fract_x
_atom_site_fract_y
_atom_site_fract_z
Gd1 Gd 0.5000 -0.012749(4) 0.2500
O3 O 0.39347(12) 0.06397(5) 0.36803(11)
C1 C 0.40853(15) 0.11041(7) 0.45682(14)
O4 O 0.44177(12) 0.10200(5) 0.58707(10)
C2 C 0.38513(15) 0.18208(7) 0.40303(14)
C3 C 0.32323(16) 0.19506(7) 0.25938(14)
H1 H 0.2968 0.1592 0.1932
C4 C 0.30126(17) 0.26178(7) 0.21561(15)
H2 H 0.2574 0.2706 0.1178
N2 N 0.33862(15) 0.31435(6) 0.30393(14)
C5 C 0.40103(17) 0.30148(7) 0.44146(16)
H3 H 0.4302 0.3384 0.5050
C6 C 0.42490(16) 0.23616(7) 0.49522(15)
H4 H 0.4678 0.2288 0.5936
O5 O 0.25456(12) -0.05811(5) 0.27252(11)
O6 O 0.71317(13) 0.04166(6) 0.43720(11)
H5 H 0.179(3) -0.0357(14) 0.238(3)
H6 H 0.233(3) -0.0997(12) 0.249(2)
H7 H 0.720(3) 0.0423(12) 0.524(3)
H8 H 0.801(3) 0.0413(13) 0.431(2)
Gd1F Gd 0.5000 0.012749(4) 0.7500
Gd1F_2 Gd 0.5000 0.012749(4) -0.2500
O3B O 0.60653(12) 0.06397(5) 0.13197(11)
C1B C 0.59147(15) 0.11041(7) 0.04318(14)
O4B O 0.55823(12) 0.10200(5) -0.08707(10)
O4F O 0.44177(12) -0.10200(5) 0.08707(10)
O4D O 0.55823(12) -0.10200(5) 0.41293(10)
C2B C 0.61487(15) 0.18208(7) 0.09697(14)
C3B C 0.67677(16) 0.19506(7) 0.24062(14)
H1B H 0.7032 0.1592 0.3068
C4B C 0.69874(17) 0.26178(7) 0.28439(15)
H2B H 0.7426 0.2706 0.3822
N2B N 0.66138(15) 0.31435(6) 0.19607(14)
C5B C 0.59897(17) 0.30148(7) 0.05854(16)
H3B H 0.5698 0.3384 -0.0050
C6B C 0.57510(16) 0.23616(7) 0.00478(15)
H4B H 0.5322 0.2288 -0.0936
O5B O 0.74544(12) -0.05811(5) 0.22748(11)
O6B O 0.28683(13) 0.04166(6) 0.06280(11)
H5B H 0.821(3) -0.0357(14) 0.262(3)
H6B H 0.767(3) -0.0997(12) 0.251(2)
H7B H 0.280(3) 0.0423(12) -0.024(3)
H8B H 0.199(3) 0.0413(13) 0.069(2)
O1 O 0.01601(13) 0.03312(6) 0.14697(12)
N1 N 0.0000 0.06599(9) 0.2500
O2 O 0.0000 0.12785(8) 0.2500
O1B O -0.01601(13) 0.03312(6) 0.35303(12)
loop_
_geom_bond_atom_site_label_1
_geom_bond_atom_site_label_2
_geom_bond_site_symmetry_1
_geom_bond_site_symmetry_2
Gd1 O3 1_555 1_555
O1 N1 1_555 1_555
N1 O2 1_555 1_555
O3 C1 1_555 1_555
C1 O4 1_555 1_555
O4 Gd1F 1_555 1_555
C2 C1 1_555 1_555
C3 C2 1_555 1_555
H1 C3 1_555 1_555
C4 C3 1_555 1_555
H2 C4 1_555 1_555
N2 C4 1_555 1_555
C5 N2 1_555 1_555
H3 C5 1_555 1_555
C6 C2 1_555 1_555
H4 C6 1_555 1_555
O5 Gd1 1_555 1_555
O6 Gd1 1_555 1_555
H5 O5 1_555 1_555
H6 O5 1_555 1_555
H7 O6 1_555 1_555
H8 O6 1_555 1_555
Gd1F_2 O4B 1_555 1_555
O1B N1 1_555 1_555
O3B Gd1 1_555 1_555
C1B O3B 1_555 1_555
O4B C1B 1_555 1_555
O4F Gd1 1_555 1_555
O4D Gd1 1_555 1_555
C2B C1B 1_555 1_555
C3B C2B 1_555 1_555
H1B C3B 1_555 1_555
C4B C3B 1_555 1_555
H2B C4B 1_555 1_555
N2B C4B 1_555 1_555
C5B N2B 1_555 1_555
H3B C5B 1_555 1_555
C6B C2B 1_555 1_555
H4B C6B 1_555 1_555
O5B Gd1 1_555 1_555
O6B Gd1 1_555 1_555
H5B O5B 1_555 1_555
H6B O5B 1_555 1_555
H7B O6B 1_555 1_555
H8B O6B 1_555 1_555
C5 C6 1_555 1_555
C5B C6B 1_555 1_555

#END
