
#######################################################################
#
#                 Cambridge Crystallographic Data Centre
#                                CCDC 
#
#######################################################################
#
# If this CIF has been generated from an entry in the Cambridge 
# Structural Database, then it will include bibliographic, chemical, 
# crystal, experimental, refinement or atomic coordinate data resulting 
# from the CCDC's data processing and validation procedures.
#
#######################################################################

data_SISRES
_symmetry_cell_setting           monoclinic
_symmetry_space_group_name_H-M   'C 2/c'
_symmetry_Int_Tables_number      15
_space_group_name_Hall           '-C 2yn'
loop_
_symmetry_equiv_pos_site_id
_symmetry_equiv_pos_as_xyz
1 x,y,z
2 1/2+x,1/2+y,z
3 -x,y,1/2-z
4 1/2-x,1/2+y,1/2-z
5 -x,-y,-z
6 1/2-x,1/2-y,-z
7 x,-y,1/2+z
8 1/2+x,1/2-y,1/2+z
_cell_length_a                   9.0913(9)
_cell_length_b                   19.850(2)
_cell_length_c                   10.0693(11)
_cell_angle_alpha                90
_cell_angle_beta                 108.626(2)
_cell_angle_gamma                90
_cell_volume                     1721.95
loop_
_atom_site_label
_atom_site_type_symbol
_atom_site_fract_x
_atom_site_fract_y
_atom_site_fract_z
Sm1 Sm 0.5000 -0.012628(5) 0.2500
O3 O 0.39289(13) 0.06471(6) 0.36880(12)
C1 C 0.40828(17) 0.11122(8) 0.45692(16)
O4 O 0.44154(14) 0.10286(6) 0.58661(11)
C2 C 0.38514(17) 0.18279(8) 0.40322(16)
C3 C 0.32323(19) 0.19571(8) 0.26011(16)
H1 H 0.2964 0.1598 0.1943
C4 C 0.30174(19) 0.26209(9) 0.21635(17)
H2 H 0.2581 0.2708 0.1188
N2 N 0.33898(16) 0.31466(7) 0.30377(15)
C5 C 0.4015(2) 0.30181(9) 0.44115(18)
H3 H 0.4311 0.3386 0.5043
C6 C 0.42479(18) 0.23683(8) 0.49455(16)
H4 H 0.4674 0.2295 0.5927
O5 O 0.25248(15) -0.05806(7) 0.27301(12)
O6 O 0.71476(15) 0.04252(7) 0.43789(13)
H5 H 0.229(3) -0.0980(14) 0.251(3)
H6 H 0.722(3) 0.0450(13) 0.518(3)
H7 H 0.799(3) 0.0435(13) 0.431(2)
H8 H 0.183(3) -0.0365(13) 0.242(2)
Sm1F Sm 0.5000 0.012628(5) 0.7500
Sm1F_2 Sm 0.5000 0.012628(5) -0.2500
O3B O 0.60711(13) 0.06471(6) 0.13120(12)
C1B C 0.59172(17) 0.11122(8) 0.04308(16)
O4B O 0.55846(14) 0.10286(6) -0.08661(11)
O4F O 0.44154(14) -0.10286(6) 0.08661(11)
O4D O 0.55846(14) -0.10286(6) 0.41339(11)
C2B C 0.61486(17) 0.18279(8) 0.09678(16)
C3B C 0.67677(19) 0.19571(8) 0.23989(16)
H1B H 0.7036 0.1598 0.3057
C4B C 0.69826(19) 0.26209(9) 0.28365(17)
H2B H 0.7419 0.2708 0.3812
N2B N 0.66102(16) 0.31466(7) 0.19623(15)
C5B C 0.5985(2) 0.30181(9) 0.05885(18)
H3B H 0.5689 0.3386 -0.0043
C6B C 0.57521(18) 0.23683(8) 0.00545(16)
H4B H 0.5326 0.2295 -0.0927
O5B O 0.74752(15) -0.05806(7) 0.22699(12)
O6B O 0.28524(15) 0.04252(7) 0.06211(13)
H5B H 0.771(3) -0.0980(14) 0.249(3)
H6B H 0.278(3) 0.0450(13) -0.018(3)
H7B H 0.201(3) 0.0435(13) 0.069(2)
H8B H 0.817(3) -0.0365(13) 0.258(2)
O1 O 0.01624(15) 0.03392(7) 0.14739(13)
N1 N 0.0000 0.06673(11) 0.2500
O2 O 0.0000 0.12855(9) 0.2500
O1B O -0.01624(15) 0.03392(7) 0.35261(13)
loop_
_geom_bond_atom_site_label_1
_geom_bond_atom_site_label_2
_geom_bond_site_symmetry_1
_geom_bond_site_symmetry_2
Sm1 O3 1_555 1_555
O1 N1 1_555 1_555
N1 O2 1_555 1_555
O3 C1 1_555 1_555
C1 O4 1_555 1_555
O4 Sm1F 1_555 1_555
C2 C1 1_555 1_555
C3 C2 1_555 1_555
H1 C3 1_555 1_555
C4 C3 1_555 1_555
H2 C4 1_555 1_555
N2 C4 1_555 1_555
C5 N2 1_555 1_555
H3 C5 1_555 1_555
C6 C2 1_555 1_555
H4 C6 1_555 1_555
O5 Sm1 1_555 1_555
O6 Sm1 1_555 1_555
H5 O5 1_555 1_555
H6 O6 1_555 1_555
H7 O6 1_555 1_555
H8 O5 1_555 1_555
Sm1F_2 O4B 1_555 1_555
O1B N1 1_555 1_555
O3B Sm1 1_555 1_555
C1B O3B 1_555 1_555
O4B C1B 1_555 1_555
O4F Sm1 1_555 1_555
O4D Sm1 1_555 1_555
C2B C1B 1_555 1_555
C3B C2B 1_555 1_555
H1B C3B 1_555 1_555
C4B C3B 1_555 1_555
H2B C4B 1_555 1_555
N2B C4B 1_555 1_555
C5B N2B 1_555 1_555
H3B C5B 1_555 1_555
C6B C2B 1_555 1_555
H4B C6B 1_555 1_555
O5B Sm1 1_555 1_555
O6B Sm1 1_555 1_555
H5B O5B 1_555 1_555
H6B O6B 1_555 1_555
H7B O6B 1_555 1_555
H8B O5B 1_555 1_555
C5 C6 1_555 1_555
C5B C6B 1_555 1_555

#END
