
#######################################################################
#
#                 Cambridge Crystallographic Data Centre
#                                CCDC 
#
#######################################################################
#
# If this CIF has been generated from an entry in the Cambridge 
# Structural Database, then it will include bibliographic, chemical, 
# crystal, experimental, refinement or atomic coordinate data resulting 
# from the CCDC's data processing and validation procedures.
#
#######################################################################

data_SISTEU
_symmetry_cell_setting           monoclinic
_symmetry_space_group_name_H-M   'P 21/n'
_symmetry_Int_Tables_number      14
_space_group_name_Hall           '-P 2yn'
loop_
_symmetry_equiv_pos_site_id
_symmetry_equiv_pos_as_xyz
1 x,y,z
2 1/2-x,1/2+y,1/2-z
3 -x,-y,-z
4 1/2+x,1/2-y,1/2+z
_cell_length_a                   13.082(9)
_cell_length_b                   11.1510(10)
_cell_length_c                   19.505(2)
_cell_angle_alpha                90
_cell_angle_beta                 93.7250(10)
_cell_angle_gamma                90
_cell_volume                     2839.33
loop_
_atom_site_label
_atom_site_type_symbol
_atom_site_fract_x
_atom_site_fract_y
_atom_site_fract_z
Cu1 Cu 0.724906(17) 0.20985(2) 0.494309(9)
C1 C 0.69874(15) 0.25416(18) 0.70179(8)
C2 C 0.63431(17) 0.1687(2) 0.72737(9)
H1 H 0.5989 0.1165 0.6971
C3 C 0.62168(18) 0.1595(2) 0.79711(10)
H2 H 0.5772 0.1024 0.8131
C4 C 0.67506(17) 0.2352(2) 0.84349(9)
C5 C 0.74098(18) 0.32010(19) 0.81822(10)
H3 H 0.7778 0.3708 0.8485
C6 C 0.75202(17) 0.32954(18) 0.74842(10)
H4 H 0.7958 0.3873 0.7323
C7 C 0.71394(15) 0.26575(18) 0.62690(9)
C8 C 0.72368(15) 0.13276(17) 0.28845(8)
C9 C 0.66706(18) 0.05414(19) 0.24653(10)
H5 H 0.6230 0.0002 0.2659
C10 C 0.6749(2) 0.0543(2) 0.17607(10)
H6 H 0.6364 0.0002 0.1488
C11 C 0.73957(18) 0.1343(2) 0.14575(9)
C12 C 0.79721(18) 0.21209(19) 0.18774(10)
H7 H 0.8418 0.2653 0.1684
C13 C 0.78948(16) 0.21189(18) 0.25818(9)
H8 H 0.8287 0.2652 0.2855
C14 C 0.71565(16) 0.1321(2) 0.36461(9)
C15 C 0.88170(14) 0.07802(17) 0.58180(9)
H9 H 0.8333 0.0438 0.6087
C16 C 0.95172(16) 0.17479(19) 0.50186(10)
H10 H 0.9602 0.2202 0.4626
C17 C 1.02826(16) 0.1299(2) 0.54402(10)
H11 H 1.0982 0.1392 0.5396
C18 C 1.03590(17) 0.0044(2) 0.65268(10)
H12 H 1.0945 -0.0381 0.6367
H13 H 0.9898 -0.0544 0.6704
C19 C 1.07186(15) 0.0899(2) 0.71027(10)
H14 H 1.1139 0.0454 0.7443
H15 H 1.1148 0.1509 0.6914
C20 C 0.98658(16) 0.15138(19) 0.74596(10)
H16 H 1.0170 0.2083 0.7789
H17 H 0.9449 0.1964 0.7120
C21 C 0.91748(15) 0.0677(2) 0.78300(10)
H18 H 0.8871 0.0110 0.7499
H19 H 0.8622 0.1146 0.8003
C22 C 0.96906(17) -0.00216(19) 0.84230(10)
H20 H 0.9211 -0.0603 0.8585
H21 H 1.0269 -0.0458 0.8261
C23 C 1.09798(15) 0.12327(18) 0.90985(9)
H22 H 1.1518 0.1089 0.8820
C24 C 1.00978(16) 0.18889(19) 0.99050(10)
H23 H 0.9912 0.2289 1.0296
C25 C 0.94779(16) 0.1173(2) 0.95058(10)
H24 H 0.8794 0.0999 0.9566
N1 N 0.85934(12) 0.14264(14) 0.52616(7)
N2 N 0.98308(12) 0.06823(15) 0.59449(7)
N3 N 1.00482(12) 0.07559(14) 0.89960(7)
N4 N 1.10431(12) 0.19343(14) 0.96448(7)
N5 N 0.6617(2) 0.2274(2) 0.91329(9)
N6 N 0.7484(2) 0.1342(2) 0.07524(9)
O1 O 0.67388(10) 0.18549(13) 0.58642(6)
O2 O 0.76375(14) 0.35143(14) 0.60610(7)
O4 O 0.76716(11) 0.21141(14) 0.39921(6)
O6 O 0.65989(14) 0.05708(15) 0.39138(7)
H25 H 0.704(3) 0.261(4) 0.937(2)
H26 H 0.638(4) 0.161(3) 0.927(2)
H27 H 0.698(3) 0.091(4) 0.051(2)
H28 H 0.774(4) 0.199(4) 0.058(2)
Cu1C Cu 1.224906(17) 0.29015(2) 0.994309(9)
N4C N 0.60431(12) 0.30657(14) 0.46448(7)
O3 O 0.69005(16) -0.12845(16) 0.48742(9)
H29 H 0.645(3) -0.104(4) 0.5145(18)
H30 H 0.691(3) -0.078(4) 0.4530(17)
O5 O 0.55952(17) -0.03625(18) 0.58310(12)
H31 H 0.496(2) -0.038(4) 0.593(2)
H32 H 0.577(3) 0.045(3) 0.584(2)
O7 O 0.8944(2) 0.4784(2) 0.52971(15)
H33 H 0.845(2) 0.436(4) 0.547(2)
H34 H 0.952(2) 0.449(4) 0.558(2)
loop_
_geom_bond_atom_site_label_1
_geom_bond_atom_site_label_2
_geom_bond_site_symmetry_1
_geom_bond_site_symmetry_2
Cu1 N1 1_555 1_555
C1 C2 1_555 1_555
C2 H1 1_555 1_555
C3 C2 1_555 1_555
H2 C3 1_555 1_555
C4 C3 1_555 1_555
C5 C4 1_555 1_555
H3 C5 1_555 1_555
C6 C1 1_555 1_555
H4 C6 1_555 1_555
C7 C1 1_555 1_555
C8 C9 1_555 1_555
C9 H5 1_555 1_555
C10 C9 1_555 1_555
H6 C10 1_555 1_555
C11 C10 1_555 1_555
C12 C11 1_555 1_555
H7 C12 1_555 1_555
C13 C8 1_555 1_555
H8 C13 1_555 1_555
C14 C8 1_555 1_555
C15 H9 1_555 1_555
C16 H10 1_555 1_555
C17 C16 1_555 1_555
H11 C17 1_555 1_555
C18 H12 1_555 1_555
H13 C18 1_555 1_555
C19 C18 1_555 1_555
H14 C19 1_555 1_555
H15 C19 1_555 1_555
C20 C19 1_555 1_555
H16 C20 1_555 1_555
H17 C20 1_555 1_555
C21 C20 1_555 1_555
H18 C21 1_555 1_555
H19 C21 1_555 1_555
C22 C21 1_555 1_555
H20 C22 1_555 1_555
H21 C22 1_555 1_555
C23 H22 1_555 1_555
C24 H23 1_555 1_555
C25 C24 1_555 1_555
H24 C25 1_555 1_555
N1 C15 1_555 1_555
N2 C15 1_555 1_555
N3 C22 1_555 1_555
N4 C23 1_555 1_555
N5 C4 1_555 1_555
N6 C11 1_555 1_555
O1 Cu1 1_555 1_555
O2 C7 1_555 1_555
O3 H29 1_555 1_555
O4 Cu1 1_555 1_555
O5 H31 1_555 1_555
O6 C14 1_555 1_555
O7 H33 1_555 1_555
H25 N5 1_555 1_555
H26 N5 1_555 1_555
H27 N6 1_555 1_555
H28 N6 1_555 1_555
H30 O3 1_555 1_555
H32 O5 1_555 1_555
H34 O7 1_555 1_555
Cu1C N4 1_555 1_555
N4C Cu1 1_555 1_555
C5 C6 1_555 1_555
C7 O1 1_555 1_555
C12 C13 1_555 1_555
C14 O4 1_555 1_555
C16 N1 1_555 1_555
C17 N2 1_555 1_555
C18 N2 1_555 1_555
C23 N3 1_555 1_555
C24 N4 1_555 1_555
C25 N3 1_555 1_555

#END
