
#######################################################################
#
#                 Cambridge Crystallographic Data Centre
#                                CCDC 
#
#######################################################################
#
# If this CIF has been generated from an entry in the Cambridge 
# Structural Database, then it will include bibliographic, chemical, 
# crystal, experimental, refinement or atomic coordinate data resulting 
# from the CCDC's data processing and validation procedures.
#
#######################################################################

data_SISVEW
_symmetry_cell_setting           triclinic
_symmetry_space_group_name_H-M   'P -1'
_symmetry_Int_Tables_number      2
_space_group_name_Hall           '-P 1'
loop_
_symmetry_equiv_pos_site_id
_symmetry_equiv_pos_as_xyz
1 x,y,z
2 -x,-y,-z
_cell_length_a                   10.543(2)
_cell_length_b                   10.838(2)
_cell_length_c                   11.442(2)
_cell_angle_alpha                98.90(3)
_cell_angle_beta                 115.07(3)
_cell_angle_gamma                102.95(3)
_cell_volume                     1107.01
loop_
_atom_site_label
_atom_site_type_symbol
_atom_site_fract_x
_atom_site_fract_y
_atom_site_fract_z
Cd1 Cd 0.250536(19) 0.691211(19) 0.648737(17)
O1 O 0.1953(2) 0.9264(2) 0.6820(2)
O2 O 0.1557(2) 0.4774(2) 0.6441(2)
H1 H 0.088(3) 0.475(3) 0.666(3)
H2 H 0.121(3) 0.419(3) 0.570(2)
O3 O 0.0352(2) 0.7264(2) 0.5764(2)
O4 O 0.3107(2) 0.6262(2) 0.49176(19)
O5 O 0.0819(3) 0.5544(3) 0.3238(2)
N1 N 0.5016(2) 0.7824(2) 0.7968(2)
N2 N 0.2902(2) 0.7500(2) 0.8731(2)
C1 C 0.6036(3) 0.7890(3) 0.7554(3)
H3 H 0.5719 0.7596 0.6637
C2 C 0.7535(3) 0.8376(3) 0.8427(3)
H4 H 0.8218 0.8411 0.8110
C3 C 0.7991(3) 0.8808(4) 0.9778(3)
H5 H 0.8995 0.9138 1.0393
C4 C 0.6959(3) 0.8750(3) 1.0219(3)
H6 H 0.7261 0.9051 1.1132
C5 C 0.5465(3) 0.8241(2) 0.9295(2)
C6 C 0.4290(3) 0.8130(2) 0.9701(2)
C7 C 0.4608(4) 0.8664(3) 1.1016(3)
H7 H 0.5579 0.9100 1.1685
C8 C 0.3456(4) 0.8533(3) 1.1311(3)
H8 H 0.3646 0.8883 1.2186
C9 C 0.2027(4) 0.7887(3) 1.0315(3)
H9 H 0.1238 0.7791 1.0498
C10 C 0.1799(3) 0.7382(3) 0.9030(3)
H10 H 0.0835 0.6942 0.8347
C11 C 0.0672(3) 0.8507(3) 0.6204(2)
C12 C -0.0621(3) 0.8999(3) 0.5960(2)
C13 C -0.2056(3) 0.8142(3) 0.5195(3)
H11 H -0.2220 0.7254 0.4846
C14 C -0.3248(3) 0.8590(3) 0.4943(3)
H12 H -0.4204 0.8000 0.4418
C15 C -0.3044(3) 0.9907(3) 0.5460(3)
C16 C -0.1598(3) 1.0773(3) 0.6219(3)
H13 H -0.1433 1.1661 0.6574
C17 C -0.0405(3) 1.0325(3) 0.6451(3)
H14 H 0.0552 1.0919 0.6941
C18 C -0.4307(3) 1.0377(3) 0.5217(3)
H15 H -0.4126 1.1284 0.5380
C19 C 0.2159(3) 0.5721(3) 0.3699(3)
C20 C 0.2723(3) 0.5366(2) 0.2737(2)
C21 C 0.4203(3) 0.5479(3) 0.3167(2)
H16 H 0.4849 0.5687 0.4082
C22 C 0.4726(3) 0.5286(3) 0.2259(3)
H17 H 0.5722 0.5378 0.2571
C23 C 0.3784(3) 0.4955(2) 0.0874(2)
C24 C 0.2285(3) 0.4760(3) 0.0450(3)
H18 H 0.1622 0.4486 -0.0466
C25 C 0.1767(3) 0.4965(3) 0.1363(3)
H19 H 0.0763 0.4833 0.1053
C26 C 0.4304(3) 0.4834(3) -0.0125(3)
H20 H 0.3584 0.4489 -0.1023
Cd1A Cd -1.250536(19) 1.308789(19) 0.351263(17)
Cd1A_2 Cd 0.749464(19) 0.308789(19) -0.648737(17)
O1A O -1.1953(2) 1.0736(2) 0.3180(2)
O2A O -1.1557(2) 1.5226(2) 0.3559(2)
H1A H -1.088(3) 1.525(3) 0.334(3)
H2A H -1.121(3) 1.581(3) 0.430(2)
O3A O -1.0352(2) 1.2736(2) 0.4236(2)
O4A O 0.6893(2) 0.3738(2) -0.49176(19)
O4A_2 O -1.3107(2) 1.3738(2) 0.50824(19)
O5A O 0.9181(3) 0.4456(3) -0.3238(2)
N1A N -1.5016(2) 1.2176(2) 0.2032(2)
N2A N -1.2902(2) 1.2500(2) 0.1269(2)
C1A C -1.6036(3) 1.2110(3) 0.2446(3)
H3A H -1.5719 1.2404 0.3363
C2A C -1.7535(3) 1.1624(3) 0.1573(3)
H4A H -1.8218 1.1589 0.1890
C3A C -1.7991(3) 1.1192(4) 0.0222(3)
H5A H -1.8995 1.0862 -0.0393
C4A C -1.6959(3) 1.1250(3) -0.0219(3)
H6A H -1.7261 1.0949 -0.1132
C5A C -1.5465(3) 1.1759(2) 0.0705(2)
C6A C -1.4290(3) 1.1870(2) 0.0299(2)
C7A C -1.4608(4) 1.1336(3) -0.1016(3)
H7A H -1.5579 1.0900 -0.1685
C8A C -1.3456(4) 1.1467(3) -0.1311(3)
H8A H -1.3646 1.1117 -0.2186
C9A C -1.2027(4) 1.2113(3) -0.0315(3)
H9A H -1.1238 1.2209 -0.0498
C10A C -1.1799(3) 1.2618(3) 0.0970(3)
H10A H -1.0835 1.3058 0.1653
C11A C -1.0672(3) 1.1493(3) 0.3796(2)
C12A C -0.9379(3) 1.1001(3) 0.4040(2)
C13A C -0.7944(3) 1.1858(3) 0.4805(3)
H11A H -0.7780 1.2746 0.5154
C14A C -0.6752(3) 1.1410(3) 0.5057(3)
H12A H -0.5796 1.2000 0.5582
C15A C -0.6956(3) 1.0093(3) 0.4540(3)
C16A C -0.8402(3) 0.9227(3) 0.3781(3)
H13A H -0.8567 0.8339 0.3426
C17A C -0.9595(3) 0.9675(3) 0.3549(3)
H14A H -1.0552 0.9081 0.3059
C18A C -0.5693(3) 0.9623(3) 0.4783(3)
H15A H -0.5874 0.8716 0.4620
C19A C 0.7841(3) 0.4279(3) -0.3699(3)
C20A C 0.7277(3) 0.4634(2) -0.2737(2)
C21A C 0.5797(3) 0.4521(3) -0.3167(2)
H16A H 0.5151 0.4313 -0.4082
C22A C 0.5274(3) 0.4714(3) -0.2259(3)
H17A H 0.4278 0.4622 -0.2571
C23A C 0.6216(3) 0.5045(2) -0.0874(2)
C24A C 0.7715(3) 0.5240(3) -0.0450(3)
H18A H 0.8378 0.5514 0.0466
C25A C 0.8233(3) 0.5035(3) -0.1363(3)
H19A H 0.9237 0.5167 -0.1053
C26A C 0.5696(3) 0.5166(3) 0.0125(3)
H20A H 0.6416 0.5511 0.1023
loop_
_geom_bond_atom_site_label_1
_geom_bond_atom_site_label_2
_geom_bond_site_symmetry_1
_geom_bond_site_symmetry_2
Cd1 O1 1_555 1_555
O1 C11 1_555 1_555
O2 Cd1 1_555 1_555
H1 O2 1_555 1_555
H2 O2 1_555 1_555
O3 Cd1 1_555 1_555
O4 Cd1 1_555 1_555
O5 C19 1_555 1_555
N1 Cd1 1_555 1_555
N2 Cd1 1_555 1_555
C1 N1 1_555 1_555
H3 C1 1_555 1_555
C2 C1 1_555 1_555
H4 C2 1_555 1_555
C3 C2 1_555 1_555
H5 C3 1_555 1_555
C4 C3 1_555 1_555
H6 C4 1_555 1_555
C5 N1 1_555 1_555
C6 N2 1_555 1_555
C7 C6 1_555 1_555
H7 C7 1_555 1_555
C8 C7 1_555 1_555
H8 C8 1_555 1_555
C9 C8 1_555 1_555
H9 C9 1_555 1_555
C10 N2 1_555 1_555
H10 C10 1_555 1_555
C11 O3 1_555 1_555
C12 C11 1_555 1_555
C13 C12 1_555 1_555
H11 C13 1_555 1_555
C14 C13 1_555 1_555
H12 C14 1_555 1_555
C15 C14 1_555 1_555
C16 C15 1_555 1_555
H13 C16 1_555 1_555
C17 C12 1_555 1_555
H14 C17 1_555 1_555
C18 C15 1_555 1_555
H15 C18 1_555 1_555
C19 O4 1_555 1_555
C20 C19 1_555 1_555
C21 C20 1_555 1_555
H16 C21 1_555 1_555
C22 C21 1_555 1_555
H17 C22 1_555 1_555
C23 C22 1_555 1_555
C24 C23 1_555 1_555
H18 C24 1_555 1_555
C25 C20 1_555 1_555
H19 C25 1_555 1_555
C26 C23 1_555 1_555
H20 C26 1_555 1_555
Cd1A O1A 1_555 1_555
Cd1A_2 O4A 1_555 1_555
O1A C11A 1_555 1_555
O2A Cd1A 1_555 1_555
H1A O2A 1_555 1_555
H2A O2A 1_555 1_555
O3A Cd1A 1_555 1_555
O4A C19A 1_555 1_555
O4A_2 Cd1A 1_555 1_555
O5A C19A 1_555 1_555
N1A Cd1A 1_555 1_555
N2A Cd1A 1_555 1_555
C1A N1A 1_555 1_555
H3A C1A 1_555 1_555
C2A C1A 1_555 1_555
H4A C2A 1_555 1_555
C3A C2A 1_555 1_555
H5A C3A 1_555 1_555
C4A C3A 1_555 1_555
H6A C4A 1_555 1_555
C5A N1A 1_555 1_555
C6A N2A 1_555 1_555
C7A C6A 1_555 1_555
H7A C7A 1_555 1_555
C8A C7A 1_555 1_555
H8A C8A 1_555 1_555
C9A C8A 1_555 1_555
H9A C9A 1_555 1_555
C10A N2A 1_555 1_555
H10A C10A 1_555 1_555
C11A O3A 1_555 1_555
C12A C11A 1_555 1_555
C13A C12A 1_555 1_555
H11A C13A 1_555 1_555
C14A C13A 1_555 1_555
H12A C14A 1_555 1_555
C15A C14A 1_555 1_555
C16A C15A 1_555 1_555
H13A C16A 1_555 1_555
C17A C12A 1_555 1_555
H14A C17A 1_555 1_555
C18A C18 1_555 1_555
H15A C18A 1_555 1_555
C19A C20A 1_555 1_555
C20A C21A 1_555 1_555
C21A H16A 1_555 1_555
C22A C21A 1_555 1_555
H17A C22A 1_555 1_555
C23A C22A 1_555 1_555
C24A C23A 1_555 1_555
H18A C24A 1_555 1_555
C25A C20A 1_555 1_555
H19A C25A 1_555 1_555
C26A C26 1_555 1_555
H20A C26A 1_555 1_555
C4 C5 1_555 1_555
C5 C6 1_555 1_555
C9 C10 1_555 1_555
C16 C17 1_555 1_555
C24 C25 1_555 1_555
C4A C5A 1_555 1_555
C5A C6A 1_555 1_555
C9A C10A 1_555 1_555
C15A C18A 1_555 1_555
C16A C17A 1_555 1_555
C23A C26A 1_555 1_555
C24A C25A 1_555 1_555

#END
