
#######################################################################
#
#                 Cambridge Crystallographic Data Centre
#                                CCDC 
#
#######################################################################
#
# If this CIF has been generated from an entry in the Cambridge 
# Structural Database, then it will include bibliographic, chemical, 
# crystal, experimental, refinement or atomic coordinate data resulting 
# from the CCDC's data processing and validation procedures.
#
#######################################################################

data_SISWOI
_symmetry_cell_setting           monoclinic
_symmetry_space_group_name_H-M   'C 2/c'
_symmetry_Int_Tables_number      15
_space_group_name_Hall           '-C 2yn'
loop_
_symmetry_equiv_pos_site_id
_symmetry_equiv_pos_as_xyz
1 x,y,z
2 -x,y,1/2-z
3 1/2+x,1/2+y,z
4 1/2-x,1/2+y,1/2-z
5 -x,-y,-z
6 x,-y,1/2+z
7 1/2-x,1/2-y,-z
8 1/2+x,1/2-y,1/2+z
_cell_length_a                   20.626(2)
_cell_length_b                   8.9778(10)
_cell_length_c                   13.9263(16)
_cell_angle_alpha                90
_cell_angle_beta                 127.0510(10)
_cell_angle_gamma                90
_cell_volume                     2058.15
loop_
_atom_site_label
_atom_site_type_symbol
_atom_site_fract_x
_atom_site_fract_y
_atom_site_fract_z
Co1 Co 0.0000 -0.45483(4) 0.2500
O1 O 0.07535(10) -0.31870(17) 0.24829(14)
N1 N 0.10120(11) -0.53569(18) 0.43203(16)
O2 O 0.05663(10) -0.63620(18) 0.21268(13)
C1 C 0.16229(14) -0.5978(3) 0.4190(2)
C2 C 0.13864(14) -0.4045(2) 0.51571(19)
C3 C 0.07232(14) -0.6462(2) 0.47781(19)
C4 C 0.12647(14) -0.7069(3) 0.3160(2)
C5 C -0.00015(14) -0.7376(2) 0.1194(2)
H1 H 0.2045 -0.6475 0.4932
H2 H 0.1874 -0.5166 0.4064
H3 H 0.1463 -0.3256 0.4758
H4 H 0.1004 -0.3685 0.5292
C6 C 0.21924(14) -0.4329(2) 0.63704(18)
H5 H 0.1167 -0.7132 0.5327
H6 H 0.0577 -0.5940 0.5232
H7 H 0.1657 -0.7306 0.3014
H8 H 0.1110 -0.7984 0.3344
H9 H 0.0245 -0.7883 0.0872
H10 H -0.0171 -0.8117 0.1508
C7 C 0.29014(14) -0.3700(2) 0.66282(19)
C8 C 0.22506(14) -0.5150(3) 0.72779(19)
H11 H 0.2869 -0.3139 0.6039
C9 C 0.36526(13) -0.3885(2) 0.77355(18)
H12 H 0.1786 -0.5551 0.7142
C10 C 0.30028(15) -0.5363(2) 0.83778(19)
C11 C 0.37005(14) -0.4761(2) 0.86095(19)
C12 C 0.43983(14) -0.3072(2) 0.80533(19)
H13 H 0.3038 -0.5922 0.8970
H14 H 0.4201 -0.4937 0.9344
O3 O 0.50750(10) -0.3597(2) 0.88120(15)
N1A N -0.10120(11) -0.53569(18) 0.06797(16)
O1A O -0.07535(10) -0.31870(17) 0.25171(14)
O2A O -0.05663(10) -0.63620(18) 0.28732(13)
C2A C -0.13864(14) -0.4045(2) -0.01571(19)
C1A C -0.16229(14) -0.5978(3) 0.0810(2)
C3A C -0.07232(14) -0.6462(2) 0.02219(19)
C4A C -0.12647(14) -0.7069(3) 0.1840(2)
C5A C 0.00015(14) -0.7376(2) 0.3806(2)
H4A H -0.1004 -0.3685 -0.0292
H3A H -0.1463 -0.3256 0.0242
C6A C -0.21924(14) -0.4329(2) -0.13704(18)
H1A H -0.2045 -0.6475 0.0068
H2A H -0.1874 -0.5166 0.0936
H5A H -0.1167 -0.7132 -0.0327
H6A H -0.0577 -0.5940 -0.0232
H7A H -0.1657 -0.7306 0.1986
H8A H -0.1110 -0.7984 0.1656
H10A H 0.0171 -0.8117 0.3492
H9A H -0.0245 -0.7883 0.4128
C7A C -0.29014(14) -0.3700(2) -0.16282(19)
C8A C -0.22506(14) -0.5150(3) -0.22779(19)
H11A H -0.2869 -0.3139 -0.1039
C9A C -0.36526(13) -0.3885(2) -0.27355(18)
H12A H -0.1786 -0.5551 -0.2142
C10A C -0.30028(15) -0.5363(2) -0.33778(19)
C11A C -0.37005(14) -0.4761(2) -0.36095(19)
C12A C -0.43983(14) -0.3072(2) -0.30533(19)
H13A H -0.3038 -0.5922 -0.3970
O1F O 0.42465(10) -0.18130(17) 0.75171(14)
H14A H -0.4201 -0.4937 -0.4344
O1G O -0.42465(10) -0.18130(17) -0.25171(14)
O3A O -0.50750(10) -0.3597(2) -0.38120(15)
Co1F Co 0.5000 -0.04517(4) 0.7500
Co1F_2 Co -0.5000 -0.04517(4) -0.2500
loop_
_geom_bond_atom_site_label_1
_geom_bond_atom_site_label_2
_geom_bond_site_symmetry_1
_geom_bond_site_symmetry_2
Co1 O1 1_555 1_555
N1 Co1 1_555 1_555
O2 Co1 1_555 1_555
C1 N1 1_555 1_555
C2 N1 1_555 1_555
C3 N1 1_555 1_555
C4 O2 1_555 1_555
C5 O2 1_555 1_555
H1 C1 1_555 1_555
H2 C1 1_555 1_555
H3 C2 1_555 1_555
H4 C2 1_555 1_555
C6 C2 1_555 1_555
H5 C3 1_555 1_555
H6 C3 1_555 1_555
H7 C4 1_555 1_555
H8 C4 1_555 1_555
H9 C5 1_555 1_555
H10 C5 1_555 1_555
C7 C6 1_555 1_555
C8 C6 1_555 1_555
H11 C7 1_555 1_555
C9 C7 1_555 1_555
H12 C8 1_555 1_555
C10 C8 1_555 1_555
C11 C9 1_555 1_555
C12 C9 1_555 1_555
H13 C10 1_555 1_555
H14 C11 1_555 1_555
O3 C12 1_555 1_555
N1A Co1 1_555 1_555
O1A Co1 1_555 1_555
O2A Co1 1_555 1_555
C2A N1A 1_555 1_555
C1A N1A 1_555 1_555
C3A C5 1_555 1_555
C4A O2A 1_555 1_555
C5A C3 1_555 1_555
H4A C2A 1_555 1_555
H3A C2A 1_555 1_555
C6A C2A 1_555 1_555
H1A C1A 1_555 1_555
H2A C1A 1_555 1_555
H5A C3A 1_555 1_555
H6A C3A 1_555 1_555
H7A C4A 1_555 1_555
H8A C4A 1_555 1_555
H10A C5A 1_555 1_555
H9A C5A 1_555 1_555
C7A C6A 1_555 1_555
C8A C6A 1_555 1_555
H11A C7A 1_555 1_555
C9A C7A 1_555 1_555
H12A C8A 1_555 1_555
C10A C8A 1_555 1_555
C11A C9A 1_555 1_555
C12A C9A 1_555 1_555
H13A C10A 1_555 1_555
O1F C12 1_555 1_555
H14A C11A 1_555 1_555
O1G C12A 1_555 1_555
O3A C12A 1_555 1_555
Co1F O1F 1_555 1_555
Co1F_2 O1G 1_555 1_555
C1 C4 1_555 1_555
C10 C11 1_555 1_555
N1A C3A 1_555 1_555
O2A C5A 1_555 1_555
C1A C4A 1_555 1_555
C10A C11A 1_555 1_555

#END
