
#######################################################################
#
#                 Cambridge Crystallographic Data Centre
#                                CCDC 
#
#######################################################################
#
# If this CIF has been generated from an entry in the Cambridge 
# Structural Database, then it will include bibliographic, chemical, 
# crystal, experimental, refinement or atomic coordinate data resulting 
# from the CCDC's data processing and validation procedures.
#
#######################################################################

data_SISWEX
_symmetry_cell_setting           monoclinic
_symmetry_space_group_name_H-M   'P 21/n'
_symmetry_Int_Tables_number      14
_space_group_name_Hall           '-P 2yn'
loop_
_symmetry_equiv_pos_site_id
_symmetry_equiv_pos_as_xyz
1 x,y,z
2 1/2-x,1/2+y,1/2-z
3 -x,-y,-z
4 1/2+x,1/2-y,1/2+z
_cell_length_a                   18.750(3)
_cell_length_b                   10.3283(17)
_cell_length_c                   22.386(4)
_cell_angle_alpha                90
_cell_angle_beta                 97.388(3)
_cell_angle_gamma                90
_cell_volume                     4299.18
loop_
_atom_site_label
_atom_site_type_symbol
_atom_site_fract_x
_atom_site_fract_y
_atom_site_fract_z
Cu1 Cu 0.89629(4) 0.53392(7) 0.32168(3)
Cu2 Cu 1.23105(4) 0.54180(7) 0.38590(3)
O1 O 1.2288(2) 0.5667(5) 0.2621(2)
O2 O 1.1541(2) 0.6096(4) 0.32839(17)
O3 O 1.0198(2) 0.4759(4) 0.24821(18)
O4 O 0.96931(19) 0.6398(3) 0.29165(17)
O5 O 1.0104(2) 0.9422(4) 0.10895(18)
O6 O 0.68762(19) 0.9642(4) 0.14578(17)
O7 O 0.6909(2) 1.1633(4) 0.1105(2)
O8 O 0.7075(2) 0.9500(5) 0.00405(19)
O9 O 0.7978(2) 1.0057(4) -0.04384(17)
N1 N 1.3897(4) 0.8141(7) 0.3794(3)
N2 N 1.2903(4) 0.7004(6) 0.3815(3)
N3 N 0.3023(2) 0.8620(4) 0.1258(2)
N4 N 0.3525(3) 0.6878(5) 0.1697(2)
N5 N 0.7382(3) 0.5615(5) 0.1755(2)
N6 N 0.8302(3) 0.5752(5) 0.2477(2)
N7 N 0.9593(2) 0.4597(4) 0.3892(2)
N8 N 0.9949(3) 0.3544(4) 0.4721(2)
C1 C 1.1740(3) 0.6165(6) 0.2758(3)
C2 C 1.1259(3) 0.6944(5) 0.2311(2)
C3 C 1.1583(3) 0.7817(6) 0.1963(3)
H1 H 1.2083 0.7853 0.2003
C4 C 1.1194(3) 0.8634(6) 0.1561(3)
H2 H 1.1425 0.9209 0.1330
C5 C 1.0454(3) 0.8585(6) 0.1507(3)
C6 C 1.0121(3) 0.7719(6) 0.1839(2)
H3 H 0.9622 0.7679 0.1793
C7 C 1.0516(3) 0.6900(5) 0.2244(2)
C8 C 1.0111(3) 0.5921(6) 0.2575(2)
C9 C 0.9395(3) 0.9739(6) 0.1125(3)
C10 C 0.8921(3) 0.9676(6) 0.0609(2)
H4 H 0.9087 0.9442 0.0250
C11 C 0.8198(3) 0.9953(5) 0.0610(2)
C12 C 0.7960(3) 1.0312(5) 0.1150(2)
C13 C 0.8452(3) 1.0428(6) 0.1654(3)
H5 H 0.8296 1.0707 0.2010
C14 C 0.9170(3) 1.0145(6) 0.1652(3)
H6 H 0.9495 1.0229 0.2001
C15 C 0.7179(3) 1.0590(6) 0.1211(3)
C16 C 0.9387(3) 0.3942(5) 0.4348(2)
H7 H 0.8911 0.3784 0.4400
C17 C 1.0338(3) 0.4608(5) 0.3990(3)
H8 H 1.0637 0.5001 0.3743
C18 C 1.0554(3) 0.3968(6) 0.4493(3)
H9 H 1.1028 0.3830 0.4661
C19 C 0.9927(4) 0.2740(6) 0.5262(3)
H10 H 0.9486 0.2917 0.5431
H11 H 1.0328 0.2970 0.5562
C20 C 0.9965(4) 0.1321(6) 0.5124(3)
C21 C 1.0591(4) 0.0760(7) 0.4987(3)
H12 H 1.0997 0.1270 0.4973
C22 C 0.9378(4) 0.0547(6) 0.5130(3)
H13 H 0.8948 0.0907 0.5215
C23 C 0.7701(3) 0.9818(6) 0.0039(3)
C24 C 1.5142(6) 0.8703(12) 0.4999(5)
H14 H 1.5234 0.7818 0.5008
C25 C 1.4817(5) 0.9294(10) 0.4474(4)
C26 C 1.4677(6) 1.0552(11) 0.4495(5)
H15 H 1.4444 1.0948 0.4151
C27 C 1.4651(5) 0.8481(10) 0.3890(4)
H16 H 1.4940 0.7699 0.3923
H17 H 1.4773 0.8975 0.3549
C28 C 1.3616(5) 0.7029(8) 0.3953(3)
H18 H 1.3885 0.6351 0.4139
C29 C 1.3343(6) 0.8828(11) 0.3513(5)
H19 H 1.3368 0.9639 0.3336
C30 C 1.2758(6) 0.8131(9) 0.3537(4)
H20 H 1.2298 0.8395 0.3379
C31 C 0.3442(3) 0.8153(6) 0.1730(3)
H21 H 0.3654 0.8658 0.2048
C32 C 0.2838(3) 0.7562(6) 0.0905(3)
H22 H 0.2541 0.7577 0.0538
C33 C 0.3146(4) 0.6504(7) 0.1164(3)
H23 H 0.3109 0.5666 0.1011
C34 C 0.3975(3) 0.6063(7) 0.2129(3)
H24 H 0.4039 0.6490 0.2518
H25 H 0.3729 0.5249 0.2174
C35 C 0.4698(3) 0.5791(6) 0.1940(3)
C36 C 0.5180(3) 0.6787(6) 0.1928(3)
H26 H 0.5055 0.7615 0.2041
C37 C 0.5846(4) 0.6574(6) 0.1749(3)
H27 H 0.6161 0.7263 0.1729
C38 C 0.6049(3) 0.5326(7) 0.1599(3)
C39 C 0.5563(4) 0.4345(6) 0.1628(3)
H28 H 0.5688 0.3504 0.1533
C40 C 0.4896(4) 0.4582(6) 0.1793(3)
H29 H 0.4574 0.3901 0.1805
C41 C 0.6763(4) 0.5074(7) 0.1379(3)
H30 H 0.6748 0.5429 0.0976
H31 H 0.6830 0.4146 0.1351
C42 C 0.7778(3) 0.5004(6) 0.2212(3)
H32 H 0.7695 0.4159 0.2329
C43 C 0.7665(4) 0.6822(7) 0.1734(3)
H33 H 0.7500 0.7473 0.1464
C44 C 0.8231(3) 0.6912(7) 0.2177(3)
H34 H 0.8521 0.7637 0.2263
Cu1A Cu 0.60371(4) 0.03392(7) 0.17832(3)
Cu1A_2 Cu 0.60371(4) 1.03392(7) 0.17832(3)
Cu1B Cu 1.10371(4) -0.53392(7) 0.67832(3)
Cu2A Cu 0.26895(4) 0.04180(7) 0.11410(3)
Cu2C Cu 0.73105(4) 0.95820(7) -0.11410(3)
Cu2A_2 Cu 0.26895(4) 1.04180(7) 0.11410(3)
Cu2B Cu 1.76895(4) 1.45820(7) 0.61410(3)
Cu2B_2 Cu 0.76895(4) 0.45820(7) 0.61410(3)
O1A O 0.2712(2) 0.0667(5) 0.2379(2)
O2A O 0.3459(2) 0.1096(4) 0.17161(17)
O3A O 0.4802(2) -0.0241(4) 0.25179(18)
O4A O 0.53069(19) 0.1398(3) 0.20835(17)
O5A O 0.4896(2) 0.4422(4) 0.39105(18)
O6A O 0.81238(19) 0.4642(4) 0.35422(17)
O6_2 O 0.68762(19) -0.0358(4) 0.14578(17)
O7A O 0.8091(2) 0.6633(4) 0.3895(2)
O8A O 0.7925(2) 0.4500(5) 0.49595(19)
O9A O 0.7022(2) 0.5057(4) 0.54384(17)
O9C O 1.2978(2) 0.4943(4) 0.45616(17)
O9B O 0.2022(2) -0.0057(4) 0.04384(17)
N1B N 1.6103(4) 1.1859(7) 0.6206(3)
N2B N 1.7097(4) 1.2996(6) 0.6185(3)
N2A N 0.2097(4) 0.2004(6) 0.1185(3)
N3A N 1.1977(2) 0.3620(4) 0.3742(2)
N3_2 N 0.3023(2) -0.1380(4) 0.1258(2)
N4A N 1.1475(3) 0.1878(5) 0.3303(2)
N5A N 0.7618(3) 0.0615(5) 0.3245(2)
N6A N 0.6698(3) 0.0752(5) 0.2523(2)
N7B N 1.0407(2) -0.4597(4) 0.6108(2)
N7A N 0.5407(2) -0.0403(4) 0.1108(2)
N8B N 1.0051(3) -0.3544(4) 0.5279(2)
C1A C 0.3260(3) 0.1165(6) 0.2242(3)
C2A C 0.3741(3) 0.1944(5) 0.2689(2)
C3A C 0.3417(3) 0.2817(6) 0.3037(3)
H1A H 0.2917 0.2853 0.2997
C4A C 0.3806(3) 0.3634(6) 0.3439(3)
H2A H 0.3575 0.4209 0.3670
C5A C 0.4546(3) 0.3585(6) 0.3493(3)
C6A C 0.4879(3) 0.2719(6) 0.3161(2)
H3A H 0.5378 0.2679 0.3207
C7A C 0.4484(3) 0.1900(5) 0.2756(2)
C8A C 0.4889(3) 0.0921(6) 0.2425(2)
C9A C 0.5605(3) 0.4739(6) 0.3875(3)
C10A C 0.6079(3) 0.4676(6) 0.4391(2)
H4A H 0.5913 0.4442 0.4750
C11A C 0.6802(3) 0.4953(5) 0.4390(2)
C12A C 0.7040(3) 0.5312(5) 0.3850(2)
C13A C 0.6548(3) 0.5428(6) 0.3346(3)
H5A H 0.6704 0.5707 0.2990
C14A C 0.5830(3) 0.5145(6) 0.3348(3)
H6A H 0.5505 0.5229 0.2999
C15A C 0.7821(3) 0.5590(6) 0.3789(3)
C16B C 1.0613(3) -0.3942(5) 0.5652(2)
H7B H 1.1089 -0.3784 0.5600
C17B C 0.9662(3) -0.4608(5) 0.6010(3)
H8B H 0.9363 -0.5001 0.6257
C18B C 0.9446(3) -0.3968(6) 0.5507(3)
H9B H 0.8972 -0.3830 0.5339
C19B C 1.0073(4) -0.2740(6) 0.4738(3)
H10B H 1.0514 -0.2917 0.4569
H11B H 0.9672 -0.2970 0.4438
C20B C 1.0035(4) -0.1321(6) 0.4876(3)
C21B C 0.9409(4) -0.0760(7) 0.5013(3)
H12B H 0.9003 -0.1270 0.5027
C22B C 1.0622(4) -0.0547(6) 0.4870(3)
H13B H 1.1052 -0.0907 0.4785
C23A C 0.7299(3) 0.4818(6) 0.4961(3)
C24B C 1.4858(6) 1.1297(12) 0.5001(5)
H14B H 1.4766 1.2182 0.4992
C25B C 1.5183(5) 1.0706(10) 0.5526(4)
C26B C 1.5323(6) 0.9448(11) 0.5505(5)
H15B H 1.5556 0.9052 0.5849
C27B C 1.5349(5) 1.1519(10) 0.6110(4)
H16B H 1.5060 1.2301 0.6077
H17B H 1.5227 1.1025 0.6451
C28B C 1.6384(5) 1.2971(8) 0.6047(3)
H18B H 1.6115 1.3649 0.5861
C29B C 1.6657(6) 1.1172(11) 0.6487(5)
H19B H 1.6632 1.0361 0.6664
C30B C 1.7242(6) 1.1869(9) 0.6463(4)
H20B H 1.7702 1.1605 0.6621
C31A C 1.1558(3) 0.3153(6) 0.3270(3)
H21A H 1.1346 0.3658 0.2952
C32A C 1.2162(3) 0.2562(6) 0.4095(3)
H22A H 1.2459 0.2577 0.4462
C33A C 1.1854(4) 0.1504(7) 0.3836(3)
H23A H 1.1891 0.0666 0.3989
C34A C 1.1025(3) 0.1063(7) 0.2871(3)
H24A H 1.0961 0.1490 0.2482
H25A H 1.1271 0.0249 0.2826
C35A C 1.0302(3) 0.0791(6) 0.3060(3)
C36A C 0.9820(3) 0.1787(6) 0.3072(3)
H26A H 0.9945 0.2615 0.2959
C37A C 0.9154(4) 0.1574(6) 0.3251(3)
H27A H 0.8839 0.2263 0.3271
C38A C 0.8951(3) 0.0326(7) 0.3401(3)
C39A C 0.9437(4) -0.0655(6) 0.3372(3)
H28A H 0.9312 -0.1496 0.3467
C40A C 1.0104(4) -0.0418(6) 0.3207(3)
H29A H 1.0426 -0.1099 0.3195
C41A C 0.8237(4) 0.0074(7) 0.3621(3)
H30A H 0.8252 0.0429 0.4024
H31A H 0.8170 -0.0854 0.3649
C42A C 0.7222(3) 0.0004(6) 0.2788(3)
H32A H 0.7305 -0.0841 0.2671
C43A C 0.7335(4) 0.1822(7) 0.3266(3)
H33A H 0.7500 0.2473 0.3536
C44A C 0.6769(3) 0.1912(7) 0.2823(3)
H34A H 0.6479 0.2637 0.2737
O10 O 0.7029(11) 0.8502(19) 0.4349(8)
H35 H 0.6679 0.8401 0.4072
H36 H 0.6981 0.9239 0.4508
O11 O 0.2753(15) 0.958(3) 0.5136(11)
H37 H 0.2509 0.8898 0.5057
H38 H 0.3130 0.9378 0.5370
loop_
_geom_bond_atom_site_label_1
_geom_bond_atom_site_label_2
_geom_bond_site_symmetry_1
_geom_bond_site_symmetry_2
Cu1 O4 1_555 1_555
Cu2 O2 1_555 1_555
O1 C1 1_555 1_555
O2 C1 1_555 1_555
O3 C8 1_555 1_555
O4 C8 1_555 1_555
O5 C5 1_555 1_555
O6 C15 1_555 1_555
O7 C15 1_555 1_555
O8 C23 1_555 1_555
O9 C23 1_555 1_555
N1 C27 1_555 1_555
N2 Cu2 1_555 1_555
N3 C31 1_555 1_555
N4 C31 1_555 1_555
N5 C41 1_555 1_555
N6 Cu1 1_555 1_555
N7 Cu1 1_555 1_555
N8 C16 1_555 1_555
C1 C2 1_555 1_555
C2 C3 1_555 1_555
C3 H1 1_555 1_555
C4 C3 1_555 1_555
H2 C4 1_555 1_555
C5 C4 1_555 1_555
C6 C5 1_555 1_555
H3 C6 1_555 1_555
C7 C2 1_555 1_555
C8 C7 1_555 1_555
C9 O5 1_555 1_555
C10 C9 1_555 1_555
H4 C10 1_555 1_555
C11 C10 1_555 1_555
C12 C11 1_555 1_555
C13 C12 1_555 1_555
H5 C13 1_555 1_555
C14 C9 1_555 1_555
H6 C14 1_555 1_555
C15 C12 1_555 1_555
C16 N7 1_555 1_555
H7 C16 1_555 1_555
C17 N7 1_555 1_555
H8 C17 1_555 1_555
C18 N8 1_555 1_555
H9 C18 1_555 1_555
C19 N8 1_555 1_555
H10 C19 1_555 1_555
H11 C19 1_555 1_555
C20 C19 1_555 1_555
C21 C20 1_555 1_555
H12 C21 1_555 1_555
C22 C20 1_555 1_555
H13 C22 1_555 1_555
C23 C11 1_555 1_555
C24 H14 1_555 1_555
C25 C24 1_555 1_555
C26 C25 1_555 1_555
H15 C26 1_555 1_555
C27 C25 1_555 1_555
H16 C27 1_555 1_555
H17 C27 1_555 1_555
C28 N1 1_555 1_555
H18 C28 1_555 1_555
C29 N1 1_555 1_555
H19 C29 1_555 1_555
C30 N2 1_555 1_555
H20 C30 1_555 1_555
C31 H21 1_555 1_555
C32 N3 1_555 1_555
H22 C32 1_555 1_555
C33 N4 1_555 1_555
H23 C33 1_555 1_555
C34 N4 1_555 1_555
H24 C34 1_555 1_555
H25 C34 1_555 1_555
C35 C34 1_555 1_555
C36 C35 1_555 1_555
H26 C36 1_555 1_555
C37 C36 1_555 1_555
H27 C37 1_555 1_555
C38 C37 1_555 1_555
C39 C38 1_555 1_555
H28 C39 1_555 1_555
C40 C35 1_555 1_555
H29 C40 1_555 1_555
C41 C38 1_555 1_555
H30 C41 1_555 1_555
H31 C41 1_555 1_555
C42 N5 1_555 1_555
H32 C42 1_555 1_555
C43 N5 1_555 1_555
H33 C43 1_555 1_555
C44 N6 1_555 1_555
H34 C44 1_555 1_555
O10 H35 1_555 1_555
H36 O10 1_555 1_555
O11 H37 1_555 1_555
H38 O11 1_555 1_555
Cu1A O4A 1_555 1_555
Cu1A_2 O6 1_555 1_555
Cu1B N7B 1_555 1_555
Cu2A O2A 1_555 1_555
Cu2C O9 1_555 1_555
Cu2A_2 N3 1_555 1_555
Cu2B N2B 1_555 1_555
Cu2B_2 O9A 1_555 1_555
O1A C1A 1_555 1_555
O2A C1A 1_555 1_555
O3A C8A 1_555 1_555
O4A C8A 1_555 1_555
O5A C5A 1_555 1_555
O6A Cu1 1_555 1_555
O6_2 Cu1A 1_555 1_555
O7A C15A 1_555 1_555
O8A C23A 1_555 1_555
O9A C23A 1_555 1_555
O9C Cu2 1_555 1_555
O9B Cu2A 1_555 1_555
N1B C27B 1_555 1_555
N2B C28B 1_555 1_555
N2A Cu2A 1_555 1_555
N3A Cu2 1_555 1_555
N3_2 Cu2A 1_555 1_555
N4A C31A 1_555 1_555
N5A C41A 1_555 1_555
N6A Cu1A 1_555 1_555
N7B C16B 1_555 1_555
N7A Cu1A 1_555 1_555
N8B C16B 1_555 1_555
C1A C2A 1_555 1_555
C2A C3A 1_555 1_555
C3A H1A 1_555 1_555
C4A C3A 1_555 1_555
H2A C4A 1_555 1_555
C5A C4A 1_555 1_555
C6A C5A 1_555 1_555
H3A C6A 1_555 1_555
C7A C2A 1_555 1_555
C8A C7A 1_555 1_555
C9A O5A 1_555 1_555
C10A C9A 1_555 1_555
H4A C10A 1_555 1_555
C11A C10A 1_555 1_555
C12A C11A 1_555 1_555
C13A C12A 1_555 1_555
H5A C13A 1_555 1_555
C14A C9A 1_555 1_555
H6A C14A 1_555 1_555
C15A O6A 1_555 1_555
C16B H7B 1_555 1_555
C17B N7B 1_555 1_555
H8B C17B 1_555 1_555
C18B N8B 1_555 1_555
H9B C18B 1_555 1_555
C19B N8B 1_555 1_555
H10B C19B 1_555 1_555
H11B C19B 1_555 1_555
C20B C19B 1_555 1_555
C21B C22 1_555 1_555
H12B C21B 1_555 1_555
C22B C21 1_555 1_555
H13B C22B 1_555 1_555
C23A C11A 1_555 1_555
C24B C26 1_555 1_555
H14B C24B 1_555 1_555
C25B C24B 1_555 1_555
C26B C24 1_555 1_555
H15B C26B 1_555 1_555
C27B C25B 1_555 1_555
H16B C27B 1_555 1_555
H17B C27B 1_555 1_555
C28B N1B 1_555 1_555
H18B C28B 1_555 1_555
C29B N1B 1_555 1_555
H19B C29B 1_555 1_555
C30B N2B 1_555 1_555
H20B C30B 1_555 1_555
C31A N3A 1_555 1_555
H21A C31A 1_555 1_555
C32A N3A 1_555 1_555
H22A C32A 1_555 1_555
C33A N4A 1_555 1_555
H23A C33A 1_555 1_555
C34A N4A 1_555 1_555
H24A C34A 1_555 1_555
H25A C34A 1_555 1_555
C35A C34A 1_555 1_555
C36A C35A 1_555 1_555
H26A C36A 1_555 1_555
C37A C36A 1_555 1_555
H27A C37A 1_555 1_555
C38A C37A 1_555 1_555
C39A C38A 1_555 1_555
H28A C39A 1_555 1_555
C40A C35A 1_555 1_555
H29A C40A 1_555 1_555
C41A C38A 1_555 1_555
H30A C41A 1_555 1_555
H31A C41A 1_555 1_555
C42A N5A 1_555 1_555
H32A C42A 1_555 1_555
C43A N5A 1_555 1_555
H33A C43A 1_555 1_555
C44A N6A 1_555 1_555
H34A C44A 1_555 1_555
N2 C28 1_555 1_555
N6 C42 1_555 1_555
C6 C7 1_555 1_555
C13 C14 1_555 1_555
C17 C18 1_555 1_555
C29 C30 1_555 1_555
C32 C33 1_555 1_555
C39 C40 1_555 1_555
C43 C44 1_555 1_555
N6A C42A 1_555 1_555
C6A C7A 1_555 1_555
C12A C15A 1_555 1_555
C13A C14A 1_555 1_555
C17B C18B 1_555 1_555
C20B C21B 1_555 1_555
C20B C22B 1_555 1_555
C25B C26B 1_555 1_555
C29B C30B 1_555 1_555
C32A C33A 1_555 1_555
C39A C40A 1_555 1_555
C43A C44A 1_555 1_555

#END
