
#######################################################################
#
#                 Cambridge Crystallographic Data Centre
#                                CCDC 
#
#######################################################################
#
# If this CIF has been generated from an entry in the Cambridge 
# Structural Database, then it will include bibliographic, chemical, 
# crystal, experimental, refinement or atomic coordinate data resulting 
# from the CCDC's data processing and validation procedures.
#
#######################################################################

data_SISWUN
_symmetry_cell_setting           orthorhombic
_symmetry_space_group_name_H-M   'C m c 21'
_symmetry_Int_Tables_number      36
_space_group_name_Hall           'C 2n -2'
loop_
_symmetry_equiv_pos_site_id
_symmetry_equiv_pos_as_xyz
1 x,y,z
2 -x,-y,1/2+z
3 x,-y,1/2+z
4 -x,y,z
5 1/2+x,1/2+y,z
6 1/2-x,1/2-y,1/2+z
7 1/2+x,1/2-y,1/2+z
8 1/2-x,1/2+y,z
_cell_length_a                   13.6227(16)
_cell_length_b                   20.591(3)
_cell_length_c                   15.148(2)
_cell_angle_alpha                90
_cell_angle_beta                 90
_cell_angle_gamma                90
_cell_volume                     4249.09
loop_
_atom_site_label
_atom_site_type_symbol
_atom_site_fract_x
_atom_site_fract_y
_atom_site_fract_z
Ni1 Ni 0.0000 0.12793(7) 0.9803(2)
Mg1 Mg 0.5000 0.3176(3) 1.0866(4)
Mg2 Mg 0.5000 -0.0308(2) 0.8135(3)
N1 N 0.3850(8) 0.2476(5) 0.9910(9)
N2 N 0.3863(6) 0.0587(5) 0.8547(8)
O1 O 0.5000 0.4399(6) 1.1122(9)
O2 O 0.3268(7) 0.3721(4) 1.1116(7)
O3 O 0.3963(10) 0.2655(6) 1.2030(8)
O4 O 0.5000 -0.0908(6) 0.9581(9)
O5 O 0.6412(9) -0.1054(5) 0.8323(8)
O6 O 0.5988(12) -0.0446(7) 0.6826(9)
S1 S 0.12480(17) 0.18894(12) 1.02320(19)
S2 S 0.12522(16) 0.07215(11) 0.9274(2)
C1 C 0.4140(11) 0.4707(7) 1.1444(12)
H1 H 0.4158 0.5167 1.1309
H2 H 0.4095 0.4655 1.2079
C2 C 0.3302(12) 0.4407(6) 1.1020(12)
H3 H 0.2706 0.4591 1.1265
H4 H 0.3316 0.4512 1.0395
C3 C 0.2781(12) 0.3557(9) 1.1909(12)
H5 H 0.2084 0.3647 1.1863
H6 H 0.3047 0.3803 1.2401
C4 C 0.2959(14) 0.2843(9) 1.2035(13)
H7 H 0.2670 0.2712 1.2592
H8 H 0.2620 0.2609 1.1569
C5 C 0.4508(14) 0.2588(10) 1.2820(11)
H9 H 0.4301 0.2936 1.3210
H10 H 0.4301 0.2185 1.3093
C6 C 0.589(2) -0.1249(9) 0.9749(16)
H11 H 0.5784 -0.1707 0.9635
H12 H 0.6055 -0.1202 1.0368
C7 C 0.674(2) -0.1019(10) 0.9200(15)
H13 H 0.6922 -0.0577 0.9353
H14 H 0.7311 -0.1297 0.9287
C8 C 0.7145(16) -0.0869(10) 0.7714(16)
H15 H 0.7715 -0.1148 0.7775
H16 H 0.7347 -0.0425 0.7823
C9 C 0.6722(17) -0.0931(10) 0.6793(15)
H17 H 0.7209 -0.0838 0.6343
H18 H 0.6445 -0.1358 0.6691
C10 C 0.552(2) -0.0474(13) 0.600(2)
H19 H 0.5743 -0.0863 0.5698
H20 H 0.5743 -0.0105 0.5652
C11 C 0.1961(6) 0.1356(4) 0.9620(6)
C12 C 0.2935(7) 0.1459(4) 0.9403(7)
C13 C 0.3435(7) 0.2023(5) 0.9693(8)
C14 C 0.3456(7) 0.0975(5) 0.8923(8)
Mg1_2 Mg -0.5000 0.3176(3) 1.0866(4)
Mg2_2 Mg -0.5000 -0.0308(2) 0.8135(3)
N1C N -0.3850(8) 0.2476(5) 0.9910(9)
N1C_2 N 0.6150(8) 0.2476(5) 0.9910(9)
N2C N -0.3863(6) 0.0587(5) 0.8547(8)
N2C_2 N 0.6137(6) 0.0587(5) 0.8547(8)
O2C O 0.6732(7) 0.3721(4) 1.1116(7)
O3C O 0.6037(10) 0.2655(6) 1.2030(8)
O5C O 0.3588(9) -0.1054(5) 0.8323(8)
O6C O 0.4012(12) -0.0446(7) 0.6826(9)
S1C S -0.12480(17) 0.18894(12) 1.02320(19)
S2C S -0.12522(16) 0.07215(11) 0.9274(2)
C1C C 0.5860(11) 0.4707(7) 1.1444(12)
H1C H 0.5842 0.5167 1.1309
H2C H 0.5905 0.4655 1.2079
C2C C 0.6698(12) 0.4407(6) 1.1020(12)
H3C H 0.7294 0.4591 1.1265
H4C H 0.6684 0.4512 1.0395
C3C C 0.7219(12) 0.3557(9) 1.1909(12)
H5C H 0.7916 0.3647 1.1863
H6C H 0.6953 0.3803 1.2401
C4C C 0.7041(14) 0.2843(9) 1.2035(13)
H7C H 0.7330 0.2712 1.2592
H8C H 0.7380 0.2609 1.1569
C5C C 0.5492(14) 0.2588(10) 1.2820(11)
H9C H 0.5699 0.2936 1.3210
H10C H 0.5699 0.2185 1.3093
C6C C 0.411(2) -0.1249(9) 0.9749(16)
H11C H 0.4216 -0.1707 0.9635
H12C H 0.3945 -0.1202 1.0368
C7C C 0.326(2) -0.1019(10) 0.9200(15)
H13C H 0.3078 -0.0577 0.9353
H14C H 0.2689 -0.1297 0.9287
C8C C 0.2855(16) -0.0869(10) 0.7714(16)
H15C H 0.2285 -0.1148 0.7775
H16C H 0.2653 -0.0425 0.7823
C9C C 0.3278(17) -0.0931(10) 0.6793(15)
H17C H 0.2791 -0.0838 0.6343
H18C H 0.3555 -0.1358 0.6691
C10C C 0.448(2) -0.0474(13) 0.600(2)
H19C H 0.4257 -0.0863 0.5698
H20C H 0.4257 -0.0105 0.5652
C11C C -0.1961(6) 0.1356(4) 0.9620(6)
C12C C -0.2935(7) 0.1459(4) 0.9403(7)
C13C C -0.3435(7) 0.2023(5) 0.9693(8)
C14C C -0.3456(7) 0.0975(5) 0.8923(8)
Cl1 Cl 0.0000 0.9064(4) 0.8312(9)
Cl2 Cl 0.0000 0.2859(4) 0.2265(8)
loop_
_geom_bond_atom_site_label_1
_geom_bond_atom_site_label_2
_geom_bond_site_symmetry_1
_geom_bond_site_symmetry_2
Ni1 S1 1_555 1_555
Mg1 N1 1_555 1_555
Mg2 N2 1_555 1_555
N1 C13 1_555 1_555
N2 C14 1_555 1_555
O1 Mg1 1_555 1_555
O2 Mg1 1_555 1_555
O3 Mg1 1_555 1_555
O4 Mg2 1_555 1_555
O5 Mg2 1_555 1_555
O6 Mg2 1_555 1_555
S1 C11 1_555 1_555
S2 Ni1 1_555 1_555
C1 O1 1_555 1_555
H1 C1 1_555 1_555
H2 C1 1_555 1_555
C2 O2 1_555 1_555
H3 C2 1_555 1_555
H4 C2 1_555 1_555
C3 O2 1_555 1_555
H5 C3 1_555 1_555
H6 C3 1_555 1_555
C4 O3 1_555 1_555
H7 C4 1_555 1_555
H8 C4 1_555 1_555
C5 O3 1_555 1_555
H9 C5 1_555 1_555
H10 C5 1_555 1_555
C6 O4 1_555 1_555
H11 C6 1_555 1_555
H12 C6 1_555 1_555
C7 O5 1_555 1_555
H13 C7 1_555 1_555
H14 C7 1_555 1_555
C8 O5 1_555 1_555
H15 C8 1_555 1_555
H16 C8 1_555 1_555
C9 O6 1_555 1_555
H17 C9 1_555 1_555
H18 C9 1_555 1_555
C10 O6 1_555 1_555
H19 C10 1_555 1_555
H20 C10 1_555 1_555
C11 S2 1_555 1_555
C12 C11 1_555 1_555
C13 C12 1_555 1_555
C14 C12 1_555 1_555
Mg1_2 N1C 1_555 1_555
Mg2_2 N2C 1_555 1_555
N1C C13C 1_555 1_555
N1C_2 Mg1 1_555 1_555
N2C C14C 1_555 1_555
N2C_2 Mg2 1_555 1_555
O2C Mg1 1_555 1_555
O3C Mg1 1_555 1_555
O5C Mg2 1_555 1_555
O6C Mg2 1_555 1_555
S1C Ni1 1_555 1_555
S2C Ni1 1_555 1_555
C1C O1 1_555 1_555
H1C C1C 1_555 1_555
H2C C1C 1_555 1_555
C2C O2C 1_555 1_555
H3C C2C 1_555 1_555
H4C C2C 1_555 1_555
C3C O2C 1_555 1_555
H5C C3C 1_555 1_555
H6C C3C 1_555 1_555
C4C O3C 1_555 1_555
H7C C4C 1_555 1_555
H8C C4C 1_555 1_555
C5C C5 1_555 1_555
H9C C5C 1_555 1_555
H10C C5C 1_555 1_555
C6C O4 1_555 1_555
H11C C6C 1_555 1_555
H12C C6C 1_555 1_555
C7C O5C 1_555 1_555
H13C C7C 1_555 1_555
H14C C7C 1_555 1_555
C8C O5C 1_555 1_555
H15C C8C 1_555 1_555
H16C C8C 1_555 1_555
C9C O6C 1_555 1_555
H17C C9C 1_555 1_555
H18C C9C 1_555 1_555
C10C C10 1_555 1_555
H19C C10C 1_555 1_555
H20C C10C 1_555 1_555
C11C S1C 1_555 1_555
C12C C11C 1_555 1_555
C13C C12C 1_555 1_555
C14C C12C 1_555 1_555
C1 C2 1_555 1_555
C3 C4 1_555 1_555
C6 C7 1_555 1_555
C8 C9 1_555 1_555
O3C C5C 1_555 1_555
O6C C10C 1_555 1_555
S2C C11C 1_555 1_555
C1C C2C 1_555 1_555
C3C C4C 1_555 1_555
C6C C7C 1_555 1_555
C8C C9C 1_555 1_555

#END
