
#######################################################################
#
#                 Cambridge Crystallographic Data Centre
#                                CCDC 
#
#######################################################################
#
# If this CIF has been generated from an entry in the Cambridge 
# Structural Database, then it will include bibliographic, chemical, 
# crystal, experimental, refinement or atomic coordinate data resulting 
# from the CCDC's data processing and validation procedures.
#
#######################################################################

data_SISXID
_symmetry_cell_setting           monoclinic
_symmetry_space_group_name_H-M   'C 2/c'
_symmetry_Int_Tables_number      15
_space_group_name_Hall           '-C 2yn'
loop_
_symmetry_equiv_pos_site_id
_symmetry_equiv_pos_as_xyz
1 x,y,z
2 -x,y,1/2-z
3 1/2+x,1/2+y,z
4 1/2-x,1/2+y,1/2-z
5 -x,-y,-z
6 x,-y,1/2+z
7 1/2-x,1/2-y,-z
8 1/2+x,1/2-y,1/2+z
_cell_length_a                   31.520(2)
_cell_length_b                   4.3407(3)
_cell_length_c                   12.7849(9)
_cell_angle_alpha                90
_cell_angle_beta                 94.427(6)
_cell_angle_gamma                90
_cell_volume                     1744
loop_
_atom_site_label
_atom_site_type_symbol
_atom_site_fract_x
_atom_site_fract_y
_atom_site_fract_z
K1 K 0.03304(1) 0.72596(10) 0.39507(3)
Cl1 Cl 0.12895(2) 0.01261(12) 0.42912(4)
Cl2 Cl 0.25235(1) 0.66649(13) 0.63591(4)
O1 O 0.00000 0.3018(4) 0.25000
O2 O 0.05794(4) 0.1264(4) 0.69714(11)
O3 O 0.04771(4) 0.2297(3) 0.52587(12)
C1 C 0.11633(6) 0.3174(4) 0.61306(15)
C2 C 0.14444(6) 0.2455(4) 0.53714(15)
C3 C 0.18614(6) 0.3470(5) 0.54411(16)
C4 C 0.20012(6) 0.5325(5) 0.62714(16)
C5 C 0.17357(6) 0.6139(5) 0.70386(16)
C6 C 0.13220(6) 0.5016(5) 0.69632(16)
C7 C 0.07044(6) 0.2136(4) 0.61080(16)
H1 H 0.20480 0.28990 0.49260
H2 H 0.18340 0.74380 0.76040
H3 H 0.11410 0.55210 0.74980
H4 H 0.01850 0.19190 0.22930
H4A H -0.01850 0.19190 0.27070
K1A K -0.03304(1) 0.72596(10) 0.10493(3)
Cl1A Cl -0.12895(2) 0.01261(12) 0.07088(4)
Cl2A Cl -0.25235(1) 0.66649(13) -0.13591(4)
O2A O -0.05794(4) 0.1264(4) -0.19714(11)
O3A O -0.04771(4) 0.2297(3) -0.02587(12)
C1A C -0.11633(6) 0.3174(4) -0.11306(15)
C2A C -0.14444(6) 0.2455(4) -0.03714(15)
C3A C -0.18614(6) 0.3470(5) -0.04411(16)
C4A C -0.20012(6) 0.5325(5) -0.12714(16)
C5A C -0.17357(6) 0.6139(5) -0.20386(16)
C6A C -0.13220(6) 0.5016(5) -0.19632(16)
C7A C -0.07044(6) 0.2136(4) -0.11080(16)
H1A H -0.20480 0.28990 0.00740
H2A H -0.18340 0.74380 -0.26040
H3A H -0.11410 0.55210 -0.24980
K1_2 K 0.03304(1) -0.27404(10) 0.39507(3)
K1A_2 K -0.03304(1) -0.27404(10) 0.10493(3)
K1D K -0.03304(1) 0.27404(10) -0.39507(3)
K1D_2 K -0.03304(1) 0.27404(10) 0.60493(3)
K1E K 0.03304(1) 0.27404(10) -0.10493(3)
K1E_2 K 0.03304(1) 0.27404(10) 0.89507(3)
Cl1_2 Cl 0.12895(2) 1.01261(12) 0.42912(4)
Cl1A_2 Cl -0.12895(2) 1.01261(12) 0.07088(4)
O1_2 O 0.00000 1.3018(4) 0.25000
O2D O -0.05794(4) 0.8736(4) 0.30286(11)
O2E O 0.05794(4) 0.8736(4) 0.19714(11)
O3_2 O 0.04771(4) 1.2297(3) 0.52587(12)
O3A_2 O -0.04771(4) 1.2297(3) -0.02587(12)
O3D O -0.04771(4) 0.7703(3) 0.47413(12)
O3E O 0.04771(4) 0.7703(3) 0.02587(12)
loop_
_geom_bond_atom_site_label_1
_geom_bond_atom_site_label_2
_geom_bond_site_symmetry_1
_geom_bond_site_symmetry_2
K1 O1 1_555 1_555
Cl1 C2 1_555 1_555
Cl2 C4 1_555 1_555
O1 H4 1_555 1_555
O2 C7 1_555 1_555
O3 K1 1_555 1_555
C1 C2 1_555 1_555
C2 C3 1_555 1_555
C3 C4 1_555 1_555
C4 C5 1_555 1_555
C5 C6 1_555 1_555
C6 C1 1_555 1_555
C7 O3 1_555 1_555
H1 C3 1_555 1_555
H2 C5 1_555 1_555
H3 C6 1_555 1_555
H4A O1 1_555 1_555
K1A O1 1_555 1_555
Cl1A C2A 1_555 1_555
Cl2A C4A 1_555 1_555
O2A C7A 1_555 1_555
O3A K1A 1_555 1_555
C1A C2A 1_555 1_555
C2A C3A 1_555 1_555
C3A C4A 1_555 1_555
C4A C5A 1_555 1_555
C5A C6A 1_555 1_555
C6A C1A 1_555 1_555
C7A O3A 1_555 1_555
H1A C3A 1_555 1_555
H2A C5A 1_555 1_555
H3A C6A 1_555 1_555
K1_2 Cl1 1_555 1_555
K1A_2 O1 1_555 1_555
K1D O2A 1_555 1_555
K1D_2 O2 1_555 1_555
K1E O2A 1_555 1_555
K1E_2 O2 1_555 1_555
Cl1_2 K1 1_555 1_555
Cl1A_2 K1A 1_555 1_555
O1_2 K1 1_555 1_555
O2D K1 1_555 1_555
O2E K1 1_555 1_555
O3_2 K1 1_555 1_555
O3A_2 K1A 1_555 1_555
O3D K1 1_555 1_555
O3E K1A 1_555 1_555
O1 K1_2 1_555 1_555
O3 K1_2 1_555 1_555
O3 K1D_2 1_555 1_555
C1 C7 1_555 1_555
K1A O1_2 1_555 1_555
K1A O2D 1_555 1_555
K1A O2E 1_555 1_555
Cl1A K1A_2 1_555 1_555
O3A K1A_2 1_555 1_555
O3A K1E 1_555 1_555
C1A C7A 1_555 1_555
K1D_2 O3D 1_555 1_555
K1E O3E 1_555 1_555

#END
