
#######################################################################
#
#                 Cambridge Crystallographic Data Centre
#                                CCDC 
#
#######################################################################
#
# If this CIF has been generated from an entry in the Cambridge 
# Structural Database, then it will include bibliographic, chemical, 
# crystal, experimental, refinement or atomic coordinate data resulting 
# from the CCDC's data processing and validation procedures.
#
#######################################################################

data_SISXEY
_symmetry_cell_setting           monoclinic
_symmetry_space_group_name_H-M   'P 21/c'
_symmetry_Int_Tables_number      14
_space_group_name_Hall           '-P 2ybc'
loop_
_symmetry_equiv_pos_site_id
_symmetry_equiv_pos_as_xyz
1 x,y,z
2 -x,1/2+y,1/2-z
3 -x,-y,-z
4 x,1/2-y,1/2+z
_cell_length_a                   5.9999(6)
_cell_length_b                   21.437(2)
_cell_length_c                   13.2287(14)
_cell_angle_alpha                90
_cell_angle_beta                 101.886(2)
_cell_angle_gamma                90
_cell_volume                     1664.99
loop_
_atom_site_label
_atom_site_type_symbol
_atom_site_fract_x
_atom_site_fract_y
_atom_site_fract_z
Ni1 Ni 0.0000 0.5000 0.5000
F1 F 0.7020(4) 0.74254(11) 0.67877(19)
O1 O -0.2122(4) 0.48858(11) 0.6010(2)
O2 O -0.3432(6) 0.49499(14) 0.7453(3)
O3 O 0.1687(4) 0.56702(11) 0.59535(18)
N1 N 0.0052(5) 0.65173(14) 0.8485(2)
N2 N 0.5762(5) 0.81201(14) 0.8367(2)
N3 N 0.7552(5) 0.93356(13) 0.9140(2)
C1 C -0.2146(6) 0.51226(17) 0.6881(3)
C2 C -0.0603(6) 0.56768(15) 0.7245(3)
C3 C -0.1042(6) 0.59953(17) 0.8074(3)
H1 H -0.2188 0.5841 0.8383
C4 C 0.1761(6) 0.67679(16) 0.8044(3)
C5 C 0.2833(6) 0.73317(17) 0.8400(3)
H2 H 0.2370 0.7542 0.8937
C6 C 0.4567(6) 0.75847(16) 0.7975(3)
C7 C 0.5192(6) 0.72338(17) 0.7174(3)
C8 C 0.4147(6) 0.67009(16) 0.6793(3)
H3 H 0.4605 0.6498 0.6249
C9 C 0.2363(6) 0.64486(16) 0.7215(3)
C10 C 0.1164(6) 0.58960(15) 0.6756(3)
C11 C -0.0674(7) 0.6856(2) 0.9317(3)
H4 H -0.1386 0.7262 0.9124
C12 C 0.0698(10) 0.6814(3) 1.0393(4)
H5 H 0.0834 0.7187 1.0817
H6 H 0.2035 0.6548 1.0512
C13 C -0.1585(10) 0.6507(3) 1.0120(4)
H7 H -0.1629 0.6055 1.0075
H8 H -0.2829 0.6694 1.0379
C14 C 0.6114(8) 0.86219(18) 0.7651(3)
H9 H 0.4703 0.8850 0.7425
H10 H 0.6543 0.8441 0.7047
C15 C 0.7969(7) 0.90671(18) 0.8177(3)
H11 H 0.9409 0.8846 0.8324
H12 H 0.8105 0.9403 0.7703
C16 C 0.7067(9) 0.8829(2) 0.9801(3)
H13 H 0.6634 0.9008 1.0406
H14 H 0.8452 0.8591 1.0035
C17 C 0.5196(8) 0.8385(2) 0.9285(3)
H15 H 0.5018 0.8054 0.9762
H16 H 0.3764 0.8609 0.9104
H17 H 0.641(6) 0.9588(19) 0.902(4)
Ni1C Ni 1.0000 1.0000 1.0000
Ni1C_2 Ni -1.0000 0.0000 0.0000
F1B F -0.7020(4) 0.25746(11) 0.32123(19)
O1B O 0.2122(4) 0.51142(11) 0.3990(2)
O2B O 0.3432(6) 0.50501(14) 0.2547(3)
O3B O -0.1687(4) 0.43298(11) 0.40465(18)
N1B N -0.0052(5) 0.34827(14) 0.1515(2)
N2B N -0.5762(5) 0.18799(14) 0.1633(2)
N3B N -0.7552(5) 0.06644(13) 0.0860(2)
N3C N -0.2448(5) 0.56644(13) 0.4140(2)
N3A N 0.2448(5) 0.43356(13) 0.5860(2)
C1B C 0.2146(6) 0.48774(17) 0.3119(3)
C2B C 0.0603(6) 0.43232(15) 0.2755(3)
C3B C 0.1042(6) 0.40047(17) 0.1926(3)
H1B H 0.2188 0.4159 0.1617
C4B C -0.1761(6) 0.32321(16) 0.1956(3)
C5B C -0.2833(6) 0.26683(17) 0.1600(3)
H2B H -0.2370 0.2458 0.1063
C6B C -0.4567(6) 0.24153(16) 0.2025(3)
C7B C -0.5192(6) 0.27662(17) 0.2826(3)
C8B C -0.4147(6) 0.32991(16) 0.3207(3)
H3B H -0.4605 0.3502 0.3751
C9B C -0.2363(6) 0.35514(16) 0.2785(3)
C10B C -0.1164(6) 0.41040(15) 0.3244(3)
C11B C 0.0674(7) 0.3144(2) 0.0683(3)
H4B H 0.1386 0.2738 0.0876
C12B C -0.0698(10) 0.3186(3) -0.0393(4)
H5B H -0.0834 0.2813 -0.0817
H6B H -0.2035 0.3452 -0.0512
C13B C 0.1585(10) 0.3493(3) -0.0120(4)
H7B H 0.1629 0.3945 -0.0075
H8B H 0.2829 0.3306 -0.0379
C14B C -0.6114(8) 0.13781(18) 0.2349(3)
H9B H -0.4703 0.1150 0.2575
H10B H -0.6543 0.1559 0.2953
C15B C -0.7969(7) 0.09329(18) 0.1823(3)
H11B H -0.9409 0.1154 0.1676
H12B H -0.8105 0.0597 0.2297
C16B C -0.7067(9) 0.1171(2) 0.0199(3)
H13B H -0.6634 0.0992 -0.0406
H14B H -0.8452 0.1409 -0.0035
C17B C -0.5196(8) 0.1615(2) 0.0715(3)
H15B H -0.5018 0.1946 0.0238
H16B H -0.3764 0.1391 0.0896
H17B H -0.641(6) 0.0412(19) 0.098(4)
H17C H -0.359(6) 0.5412(19) 0.402(4)
H17A H 0.359(6) 0.4588(19) 0.598(4)
loop_
_geom_bond_atom_site_label_1
_geom_bond_atom_site_label_2
_geom_bond_site_symmetry_1
_geom_bond_site_symmetry_2
Ni1 O1 1_555 1_555
F1 C7 1_555 1_555
O1 C1 1_555 1_555
O2 C1 1_555 1_555
O3 Ni1 1_555 1_555
N1 C3 1_555 1_555
N2 C6 1_555 1_555
N3 C15 1_555 1_555
C1 C2 1_555 1_555
C2 C3 1_555 1_555
C3 H1 1_555 1_555
C4 N1 1_555 1_555
C5 C4 1_555 1_555
H2 C5 1_555 1_555
C6 C5 1_555 1_555
C7 C6 1_555 1_555
C8 C7 1_555 1_555
H3 C8 1_555 1_555
C9 C4 1_555 1_555
C10 O3 1_555 1_555
C11 N1 1_555 1_555
H4 C11 1_555 1_555
C12 C11 1_555 1_555
H5 C12 1_555 1_555
H6 C12 1_555 1_555
C13 C11 1_555 1_555
H7 C13 1_555 1_555
H8 C13 1_555 1_555
C14 N2 1_555 1_555
H9 C14 1_555 1_555
H10 C14 1_555 1_555
C15 C14 1_555 1_555
H11 C15 1_555 1_555
H12 C15 1_555 1_555
C16 N3 1_555 1_555
H13 C16 1_555 1_555
H14 C16 1_555 1_555
C17 N2 1_555 1_555
H15 C17 1_555 1_555
H16 C17 1_555 1_555
H17 N3 1_555 1_555
Ni1C N3 1_555 1_555
Ni1C_2 N3B 1_555 1_555
F1B C7B 1_555 1_555
O1B Ni1 1_555 1_555
O2B C1B 1_555 1_555
O3B Ni1 1_555 1_555
N1B C3B 1_555 1_555
N2B C6B 1_555 1_555
N3B C15B 1_555 1_555
N3C Ni1 1_555 1_555
N3A Ni1 1_555 1_555
C1B O1B 1_555 1_555
C2B C1B 1_555 1_555
C3B C2B 1_555 1_555
H1B C3B 1_555 1_555
C4B N1B 1_555 1_555
C5B C4B 1_555 1_555
H2B C5B 1_555 1_555
C6B C5B 1_555 1_555
C7B C6B 1_555 1_555
C8B C7B 1_555 1_555
H3B C8B 1_555 1_555
C9B C4B 1_555 1_555
C10B O3B 1_555 1_555
C11B N1B 1_555 1_555
H4B C11B 1_555 1_555
C12B C11B 1_555 1_555
H5B C12B 1_555 1_555
H6B C12B 1_555 1_555
C13B C11B 1_555 1_555
H7B C13B 1_555 1_555
H8B C13B 1_555 1_555
C14B N2B 1_555 1_555
H9B C14B 1_555 1_555
H10B C14B 1_555 1_555
C15B C14B 1_555 1_555
H11B C15B 1_555 1_555
H12B C15B 1_555 1_555
C16B N3B 1_555 1_555
H13B C16B 1_555 1_555
H14B C16B 1_555 1_555
C17B N2B 1_555 1_555
H15B C17B 1_555 1_555
H16B C17B 1_555 1_555
H17B N3B 1_555 1_555
H17C N3C 1_555 1_555
H17A N3A 1_555 1_555
C2 C10 1_555 1_555
C8 C9 1_555 1_555
C9 C10 1_555 1_555
C12 C13 1_555 1_555
C16 C17 1_555 1_555
C2B C10B 1_555 1_555
C8B C9B 1_555 1_555
C9B C10B 1_555 1_555
C12B C13B 1_555 1_555
C16B C17B 1_555 1_555

#END
