
#######################################################################
#
#                 Cambridge Crystallographic Data Centre
#                                CCDC 
#
#######################################################################
#
# If this CIF has been generated from an entry in the Cambridge 
# Structural Database, then it will include bibliographic, chemical, 
# crystal, experimental, refinement or atomic coordinate data resulting 
# from the CCDC's data processing and validation procedures.
#
#######################################################################

data_SISYUQ
_symmetry_cell_setting           monoclinic
_symmetry_space_group_name_H-M   'P 21/n'
_symmetry_Int_Tables_number      14
_space_group_name_Hall           '-P 2yn'
loop_
_symmetry_equiv_pos_site_id
_symmetry_equiv_pos_as_xyz
1 x,y,z
2 1/2-x,1/2+y,1/2-z
3 -x,-y,-z
4 1/2+x,1/2-y,1/2+z
_cell_length_a                   12.385(5)
_cell_length_b                   7.814(5)
_cell_length_c                   18.170(5)
_cell_angle_alpha                90
_cell_angle_beta                 90.297(5)
_cell_angle_gamma                90
_cell_volume                     1758.4
loop_
_atom_site_label
_atom_site_type_symbol
_atom_site_fract_x
_atom_site_fract_y
_atom_site_fract_z
Zn1 Zn 0.17032(3) 0.12659(3) 1.188240(14)
O1 O -0.17483(15) 0.3134(2) 0.68484(10)
C1 C 0.0728(2) 0.1158(3) 0.81509(13)
O2 O -0.17464(16) 0.1071(2) 0.76750(11)
N1 N 0.01463(19) 0.3796(2) 1.35525(11)
C2 C 0.0321(2) 0.2589(3) 0.85066(13)
H1 H -0.0054 0.3408 0.8236
C3 C 0.00808(19) 0.4381(3) 1.42945(12)
O3 O 0.14575(16) 0.0530(3) 1.08624(9)
C4 C 0.0930(2) 0.2831(3) 1.32614(13)
H2 H 0.1502 0.2362 1.3526
C5 C -0.1013(2) 0.5132(3) 1.53355(12)
H3 H -0.1684 0.5222 1.5559
C6 C -0.0919(2) 0.4502(3) 1.46203(13)
H4 H -0.1534 0.4163 1.4362
C7 C -0.0204(2) 0.1409(3) 0.68867(13)
C8 C 0.1235(2) -0.0091(3) 0.85771(12)
H5 H 0.1512 -0.1060 0.8349
C9 C 0.1336(2) 0.0082(3) 0.93338(12)
H6 H 0.1648 -0.0789 0.9611
C10 C 0.0846(3) 0.0828(4) 0.57891(15)
H7 H 0.0894 0.0783 0.5279
C11 C 0.0465(2) 0.2821(3) 0.92610(13)
H8 H 0.0223 0.3819 0.9486
C12 C 0.0696(2) 0.1001(3) 0.73317(14)
O4 O 0.0958(2) 0.3234(3) 1.07769(11)
N2 N 0.07762(17) 0.2635(2) 1.25426(11)
C13 C -0.0540(2) 0.4241(4) 1.29903(14)
H9 H -0.1157 0.4913 1.3028
C14 C -0.0100(3) 0.1308(3) 0.61180(14)
H10 H -0.0692 0.1577 0.5823
C15 C -0.0153(2) 0.3525(3) 1.23747(14)
H11 H -0.0463 0.3615 1.1909
C16 C 0.1727(3) 0.0410(5) 0.62226(16)
H12 H 0.2371 0.0068 0.6007
C17 C 0.1644(2) 0.0506(5) 0.69796(15)
H13 H 0.2244 0.0229 0.7266
C18 C -0.1300(2) 0.1882(3) 0.71717(12)
C19 C 0.1128(2) 0.1826(4) 1.04946(12)
C20 C 0.0969(2) 0.1559(3) 0.96770(13)
N1B N -0.01463(19) 0.6204(2) 1.64475(11)
C3B C -0.00808(19) 0.5619(3) 1.57055(12)
C4B C -0.0930(2) 0.7169(3) 1.67386(13)
H2B H -0.1502 0.7638 1.6474
C5B C 0.1013(2) 0.4868(3) 1.46645(12)
H3B H 0.1684 0.4778 1.4441
C6B C 0.0919(2) 0.5498(3) 1.53797(13)
H4B H 0.1534 0.5837 1.5638
N2B N -0.07762(17) 0.7365(2) 1.74574(11)
C13B C 0.0540(2) 0.5759(4) 1.70097(14)
H9B H 0.1157 0.5087 1.6972
C15B C 0.0153(2) 0.6475(3) 1.76253(14)
H11B H 0.0463 0.6385 1.8091
Zn1B Zn -0.17032(3) -0.12659(3) 0.811760(14)
O1B O 0.17483(15) -0.3134(2) 1.31516(10)
C1B C -0.0728(2) -0.1158(3) 1.18491(13)
O2B O 0.17464(16) -0.1071(2) 1.23250(11)
C2B C -0.0321(2) -0.2589(3) 1.14934(13)
H1B H 0.0054 -0.3408 1.1764
O3B O -0.14575(16) -0.0530(3) 0.91376(9)
C7B C 0.0204(2) -0.1409(3) 1.31133(13)
C8B C -0.1235(2) 0.0091(3) 1.14229(12)
H5B H -0.1512 0.1060 1.1651
C9B C -0.1336(2) -0.0082(3) 1.06662(12)
H6B H -0.1648 0.0789 1.0389
C10B C -0.0846(3) -0.0828(4) 1.42109(15)
H7B H -0.0894 -0.0783 1.4721
C11B C -0.0465(2) -0.2821(3) 1.07390(13)
H8B H -0.0223 -0.3819 1.0514
C12B C -0.0696(2) -0.1001(3) 1.26683(14)
O4B O -0.0958(2) -0.3234(3) 0.92231(11)
C14B C 0.0100(3) -0.1308(3) 1.38820(14)
H10B H 0.0692 -0.1577 1.4177
C16B C -0.1727(3) -0.0410(5) 1.37774(16)
H12B H -0.2371 -0.0068 1.3993
C17B C -0.1644(2) -0.0506(5) 1.30204(15)
H13B H -0.2244 -0.0229 1.2734
C18B C 0.1300(2) -0.1882(3) 1.28283(12)
C19B C -0.1128(2) -0.1826(4) 0.95054(12)
C20B C -0.0969(2) -0.1559(3) 1.03230(13)
Zn1A Zn 0.32968(3) -0.37341(3) 1.311760(14)
Zn1B_2 Zn -0.17032(3) 0.87341(3) 1.811760(14)
Zn1C Zn -0.32968(3) 0.37341(3) 0.688240(14)
O1A O -0.32517(15) -0.1866(2) 0.81516(10)
O1C O 0.32517(15) 0.1866(2) 1.18484(10)
N2B_2 N -0.07762(17) -0.2635(2) 0.74574(11)
O5 O 0.2187(3) 0.6415(4) 1.0675(2)
H14 H 0.1720 0.7209 1.0708
H15 H 0.1935 0.5501 1.0860
loop_
_geom_bond_atom_site_label_1
_geom_bond_atom_site_label_2
_geom_bond_site_symmetry_1
_geom_bond_site_symmetry_2
Zn1 O3 1_555 1_555
O1 C18 1_555 1_555
C1 C2 1_555 1_555
O2 C18 1_555 1_555
N1 C3 1_555 1_555
C2 H1 1_555 1_555
C3 C6 1_555 1_555
O3 C19 1_555 1_555
C4 N1 1_555 1_555
H2 C4 1_555 1_555
C5 H3 1_555 1_555
C6 C5 1_555 1_555
H4 C6 1_555 1_555
C7 C12 1_555 1_555
C8 C1 1_555 1_555
H5 C8 1_555 1_555
C9 C8 1_555 1_555
H6 C9 1_555 1_555
C10 H7 1_555 1_555
C11 C2 1_555 1_555
H8 C11 1_555 1_555
C12 C1 1_555 1_555
O4 C19 1_555 1_555
N2 Zn1 1_555 1_555
C13 N1 1_555 1_555
H9 C13 1_555 1_555
C14 C7 1_555 1_555
H10 C14 1_555 1_555
C15 N2 1_555 1_555
H11 C15 1_555 1_555
C16 C10 1_555 1_555
H12 C16 1_555 1_555
C17 C12 1_555 1_555
H13 C17 1_555 1_555
C18 C7 1_555 1_555
C19 C20 1_555 1_555
C20 C9 1_555 1_555
O5 H14 1_555 1_555
H15 O5 1_555 1_555
N1B C3B 1_555 1_555
C3B C5 1_555 1_555
C4B N1B 1_555 1_555
H2B C4B 1_555 1_555
C5B C3 1_555 1_555
H3B C5B 1_555 1_555
C6B C3B 1_555 1_555
H4B C6B 1_555 1_555
N2B C4B 1_555 1_555
C13B N1B 1_555 1_555
H9B C13B 1_555 1_555
C15B N2B 1_555 1_555
H11B C15B 1_555 1_555
Zn1B O2 1_555 1_555
O1B C18B 1_555 1_555
C1B C2B 1_555 1_555
O2B Zn1 1_555 1_555
C2B H1B 1_555 1_555
O3B Zn1B 1_555 1_555
C7B C12B 1_555 1_555
C8B C1B 1_555 1_555
H5B C8B 1_555 1_555
C9B C8B 1_555 1_555
H6B C9B 1_555 1_555
C10B H7B 1_555 1_555
C11B C2B 1_555 1_555
H8B C11B 1_555 1_555
C12B C1B 1_555 1_555
O4B C19B 1_555 1_555
C14B C7B 1_555 1_555
H10B C14B 1_555 1_555
C16B C10B 1_555 1_555
H12B C16B 1_555 1_555
C17B C12B 1_555 1_555
H13B C17B 1_555 1_555
C18B O2B 1_555 1_555
C19B O3B 1_555 1_555
C20B C9B 1_555 1_555
Zn1A O1B 1_555 1_555
Zn1B_2 N2B 1_555 1_555
Zn1C O1 1_555 1_555
O1A Zn1B 1_555 1_555
O1C Zn1 1_555 1_555
N2B_2 Zn1B 1_555 1_555
C4 N2 1_555 1_555
C10 C14 1_555 1_555
C11 C20 1_555 1_555
C13 C15 1_555 1_555
C16 C17 1_555 1_555
C5B C6B 1_555 1_555
C13B C15B 1_555 1_555
C7B C18B 1_555 1_555
C10B C14B 1_555 1_555
C11B C20B 1_555 1_555
C16B C17B 1_555 1_555
C19B C20B 1_555 1_555

#END
