
#######################################################################
#
#                 Cambridge Crystallographic Data Centre
#                                CCDC 
#
#######################################################################
#
# If this CIF has been generated from an entry in the Cambridge 
# Structural Database, then it will include bibliographic, chemical, 
# crystal, experimental, refinement or atomic coordinate data resulting 
# from the CCDC's data processing and validation procedures.
#
#######################################################################

data_SISYOK
_symmetry_cell_setting           triclinic
_symmetry_space_group_name_H-M   'P -1'
_symmetry_Int_Tables_number      2
_space_group_name_Hall           '-P 1'
loop_
_symmetry_equiv_pos_site_id
_symmetry_equiv_pos_as_xyz
1 x,y,z
2 -x,-y,-z
_cell_length_a                   9.524(5)
_cell_length_b                   9.546(5)
_cell_length_c                   14.102(5)
_cell_angle_alpha                70.707(5)
_cell_angle_beta                 82.709(5)
_cell_angle_gamma                70.517(5)
_cell_volume                     1140.61
loop_
_atom_site_label
_atom_site_type_symbol
_atom_site_fract_x
_atom_site_fract_y
_atom_site_fract_z
Zn1 Zn 0.28514(3) 0.42380(3) 0.35040(2)
O1 O 0.1766(2) 0.3440(2) 0.27976(13)
O2 O 0.3396(3) 0.4933(3) -0.49137(15)
N1 N 0.3671(3) 0.8336(3) 0.16956(17)
O3 O 0.1811(2) 0.3866(2) -0.51651(13)
N2 N 0.7115(3) 0.1055(3) 0.42459(19)
O4 O 0.3166(3) 0.4157(4) 0.14768(17)
C1 C 0.1676(3) 0.3313(3) 0.02734(18)
H1 H 0.2421 0.3761 -0.0012
C2 C 0.1320(3) 0.3108(3) 0.12824(18)
N3 N 0.3021(3) 0.6396(3) 0.27857(16)
C3 C 0.1344(3) 0.3171(3) -0.14250(18)
C4 C 0.0942(3) 0.3170(4) -0.3088(2)
H2 H 0.0415 0.2945 -0.3501
C5 C 0.0962(3) 0.2875(3) -0.03309(18)
C6 C 0.2053(3) 0.3840(3) -0.34968(17)
N4 N 0.4848(3) 0.2536(3) 0.37659(19)
C7 C 0.2147(3) 0.3615(3) 0.18832(19)
C8 C 1.0644(3) -0.1578(3) 0.5498(2)
H3 H 1.1077 -0.2632 0.5834
C9 C 0.4343(3) 0.9190(3) 0.0827(2)
C10 C 0.2447(3) 0.4255(3) -0.45971(18)
C11 C 0.0607(3) 0.2829(4) -0.2064(2)
H4 H -0.0131 0.2360 -0.1802
C12 C 0.2825(4) 0.4136(4) -0.2858(2)
H5 H 0.3601 0.4549 -0.3114
C13 C 0.6033(3) 0.2411(3) 0.4210(2)
H6 H 0.6117 0.3160 0.4466
C14 C 0.8582(3) 0.0529(3) 0.46368(19)
C15 C 0.2467(4) 0.3832(4) -0.1853(2)
H7 H 0.2988 0.4074 -0.1446
C16 C 0.3632(3) 0.6868(3) 0.1894(2)
H8 H 0.3989 0.6269 0.1461
C17 C 0.0213(4) 0.2457(5) 0.1711(2)
H9 H -0.0044 0.2322 0.2386
C18 C -0.0147(5) 0.2220(5) 0.0124(2)
H10 H -0.0654 0.1919 -0.0257
C19 C 0.5834(4) 1.0879(4) 0.0107(2)
H11 H 0.6393 1.1472 0.0178
C20 C 0.9226(3) -0.1047(3) 0.5131(2)
H12 H 0.8700 -0.1746 0.5214
C21 C 0.5174(4) 1.0061(4) 0.0944(2)
H13 H 0.5292 1.0100 0.1579
C22 C 0.3032(4) 0.8821(3) 0.2512(2)
H14 H 0.2896 0.9788 0.2590
C23 C 0.6548(4) 0.0249(5) 0.3818(4)
H15 H 0.7027 -0.0732 0.3743
C24 C 0.2643(4) 0.7624(3) 0.3173(2)
H16 H 0.2187 0.7625 0.3796
C25 C -0.0515(5) 0.2004(6) 0.1132(3)
H17 H -0.1256 0.1551 0.1421
C26 C 0.5168(4) 0.1172(5) 0.3534(4)
H18 H 0.4518 0.0924 0.3224
N1A N 0.6329(3) 1.1664(3) -0.16956(17)
N3A N 0.6979(3) 1.3604(3) -0.27857(16)
C9A C 0.5657(3) 1.0810(3) -0.0827(2)
C16A C 0.6368(3) 1.3132(3) -0.1894(2)
H8A H 0.6011 1.3731 -0.1461
C19A C 0.4166(4) 0.9121(4) -0.0107(2)
H11A H 0.3607 0.8528 -0.0178
C21A C 0.4826(4) 0.9939(4) -0.0944(2)
H13A H 0.4708 0.9900 -0.1579
C22A C 0.6968(4) 1.1179(3) -0.2512(2)
H14A H 0.7104 1.0212 -0.2590
C24A C 0.7357(4) 1.2376(3) -0.3173(2)
H16A H 0.7813 1.2375 -0.3796
N2A N 1.2885(3) -0.1055(3) 0.57541(19)
N4A N 1.5152(3) -0.2536(3) 0.62341(19)
C8A C 0.9356(3) 0.1578(3) 0.4502(2)
H3A H 0.8923 0.2632 0.4166
C13A C 1.3967(3) -0.2411(3) 0.5790(2)
H6A H 1.3883 -0.3160 0.5534
C14A C 1.1418(3) -0.0529(3) 0.53632(19)
C20A C 1.0774(3) 0.1047(3) 0.4869(2)
H12A H 1.1300 0.1746 0.4786
C23A C 1.3452(4) -0.0249(5) 0.6182(4)
H15A H 1.2973 0.0732 0.6257
C26A C 1.4832(4) -0.1172(5) 0.6466(4)
H18A H 1.5482 -0.0924 0.6776
Zn1A Zn 0.71486(3) 1.57620(3) -0.35040(2)
O1A O 0.8234(2) 1.6560(2) -0.27976(13)
O2A O 0.6604(3) 1.5067(3) 0.49137(15)
O3A O 0.8189(2) 1.6134(2) 0.51651(13)
O4A O 0.6834(3) 1.5843(4) -0.14768(17)
C1A C 0.8324(3) 1.6687(3) -0.02734(18)
H1A H 0.7579 1.6239 0.0012
C2A C 0.8680(3) 1.6892(3) -0.12824(18)
C3A C 0.8656(3) 1.6829(3) 0.14250(18)
C4A C 0.9058(3) 1.6830(4) 0.3088(2)
H2A H 0.9585 1.7055 0.3501
C5A C 0.9038(3) 1.7125(3) 0.03309(18)
C6A C 0.7947(3) 1.6160(3) 0.34968(17)
C7A C 0.7853(3) 1.6385(3) -0.18832(19)
C10A C 0.7553(3) 1.5745(3) 0.45971(18)
C11A C 0.9393(3) 1.7171(4) 0.2064(2)
H4A H 1.0131 1.7640 0.1802
C12A C 0.7175(4) 1.5864(4) 0.2858(2)
H5A H 0.6399 1.5451 0.3114
C15A C 0.7533(4) 1.6168(4) 0.1853(2)
H7A H 0.7012 1.5926 0.1446
C17A C 0.9787(4) 1.7543(5) -0.1711(2)
H9A H 1.0044 1.7678 -0.2386
C18A C 1.0147(5) 1.7780(5) -0.0124(2)
H10A H 1.0654 1.8081 0.0257
C25A C 1.0515(5) 1.7996(6) -0.1132(3)
H17A H 1.1256 1.8449 -0.1421
Zn1_2 Zn 0.28514(3) 0.42380(3) -0.64960(2)
Zn1A_2 Zn 0.71486(3) 1.57620(3) 0.64960(2)
Zn1A_3 Zn 1.71486(3) -0.42380(3) 0.64960(2)
O3_2 O 0.1811(2) 0.3866(2) 0.48349(13)
O3A_2 O 0.8189(2) 1.6134(2) -0.48349(13)
N4A_2 N 0.5152(3) 1.7464(3) -0.37659(19)
O5 O 0.5742(14) 0.447(2) 0.0418(8)
H19 H 0.5461 0.4038 0.1007
H20 H 0.5963 0.3837 0.0077
loop_
_geom_bond_atom_site_label_1
_geom_bond_atom_site_label_2
_geom_bond_site_symmetry_1
_geom_bond_site_symmetry_2
Zn1 O1 1_555 1_555
O1 C7 1_555 1_555
O2 C10 1_555 1_555
N1 C9 1_555 1_555
O3 C10 1_555 1_555
N2 C13 1_555 1_555
O4 C7 1_555 1_555
C1 H1 1_555 1_555
C2 C1 1_555 1_555
N3 Zn1 1_555 1_555
C3 C5 1_555 1_555
C4 H2 1_555 1_555
C5 C1 1_555 1_555
C6 C4 1_555 1_555
N4 Zn1 1_555 1_555
C7 C2 1_555 1_555
C8 H3 1_555 1_555
C9 C21 1_555 1_555
C10 C6 1_555 1_555
C11 C3 1_555 1_555
H4 C11 1_555 1_555
C12 C6 1_555 1_555
H5 C12 1_555 1_555
C13 N4 1_555 1_555
H6 C13 1_555 1_555
C14 N2 1_555 1_555
C15 C3 1_555 1_555
H7 C15 1_555 1_555
C16 N1 1_555 1_555
H8 C16 1_555 1_555
C17 C2 1_555 1_555
H9 C17 1_555 1_555
C18 C5 1_555 1_555
H10 C18 1_555 1_555
C19 H11 1_555 1_555
C20 C8 1_555 1_555
H12 C20 1_555 1_555
C21 C19 1_555 1_555
H13 C21 1_555 1_555
C22 N1 1_555 1_555
H14 C22 1_555 1_555
C23 N2 1_555 1_555
H15 C23 1_555 1_555
C24 N3 1_555 1_555
H16 C24 1_555 1_555
C25 C17 1_555 1_555
H17 C25 1_555 1_555
C26 N4 1_555 1_555
H18 C26 1_555 1_555
O5 H19 1_555 1_555
H20 O5 1_555 1_555
N1A C9A 1_555 1_555
N3A C16A 1_555 1_555
C9A C19 1_555 1_555
C16A N1A 1_555 1_555
H8A C16A 1_555 1_555
C19A C9 1_555 1_555
H11A C19A 1_555 1_555
C21A C9A 1_555 1_555
H13A C21A 1_555 1_555
C22A N1A 1_555 1_555
H14A C22A 1_555 1_555
C24A N3A 1_555 1_555
H16A C24A 1_555 1_555
N2A C13A 1_555 1_555
N4A C13A 1_555 1_555
C8A C14 1_555 1_555
H3A C8A 1_555 1_555
C13A H6A 1_555 1_555
C14A C8 1_555 1_555
C20A C8A 1_555 1_555
H12A C20A 1_555 1_555
C23A N2A 1_555 1_555
H15A C23A 1_555 1_555
C26A N4A 1_555 1_555
H18A C26A 1_555 1_555
Zn1A N3A 1_555 1_555
O1A Zn1A 1_555 1_555
O2A C10A 1_555 1_555
O3A C10A 1_555 1_555
O4A C7A 1_555 1_555
C1A H1A 1_555 1_555
C2A C1A 1_555 1_555
C3A C5A 1_555 1_555
C4A H2A 1_555 1_555
C5A C1A 1_555 1_555
C6A C4A 1_555 1_555
C7A O1A 1_555 1_555
C10A C6A 1_555 1_555
C11A C3A 1_555 1_555
H4A C11A 1_555 1_555
C12A C6A 1_555 1_555
H5A C12A 1_555 1_555
C15A C3A 1_555 1_555
H7A C15A 1_555 1_555
C17A C2A 1_555 1_555
H9A C17A 1_555 1_555
C18A C5A 1_555 1_555
H10A C18A 1_555 1_555
C25A C17A 1_555 1_555
H17A C25A 1_555 1_555
Zn1_2 O3 1_555 1_555
Zn1A_2 O3A 1_555 1_555
Zn1A_3 N4A 1_555 1_555
O3_2 Zn1 1_555 1_555
O3A_2 Zn1A 1_555 1_555
N4A_2 Zn1A 1_555 1_555
N3 C16 1_555 1_555
C4 C11 1_555 1_555
C12 C15 1_555 1_555
C14 C20 1_555 1_555
C18 C25 1_555 1_555
C22 C24 1_555 1_555
C23 C26 1_555 1_555
C19A C21A 1_555 1_555
C22A C24A 1_555 1_555
N2A C14A 1_555 1_555
C14A C20A 1_555 1_555
C23A C26A 1_555 1_555
C2A C7A 1_555 1_555
C4A C11A 1_555 1_555
C12A C15A 1_555 1_555
C18A C25A 1_555 1_555

#END
