
#######################################################################
#
#                 Cambridge Crystallographic Data Centre
#                                CCDC 
#
#######################################################################
#
# If this CIF has been generated from an entry in the Cambridge 
# Structural Database, then it will include bibliographic, chemical, 
# crystal, experimental, refinement or atomic coordinate data resulting 
# from the CCDC's data processing and validation procedures.
#
#######################################################################

data_SITHOT
_symmetry_cell_setting           triclinic
_symmetry_space_group_name_H-M   'P -1'
_symmetry_Int_Tables_number      2
_space_group_name_Hall           '-P 1'
loop_
_symmetry_equiv_pos_site_id
_symmetry_equiv_pos_as_xyz
1 x,y,z
2 -x,-y,-z
_cell_length_a                   10.1128(2)
_cell_length_b                   13.9615(4)
_cell_length_c                   20.1840(6)
_cell_angle_alpha                85.969(2)
_cell_angle_beta                 80.844(2)
_cell_angle_gamma                84.660(2)
_cell_volume                     2796.79
loop_
_atom_site_label
_atom_site_type_symbol
_atom_site_fract_x
_atom_site_fract_y
_atom_site_fract_z
Co1 Co 0.5000 0.5000 0.0000
Co2 Co 0.21356(4) 1.07447(3) -0.24729(2)
Co3 Co 0.5000 0.5000 -0.5000
O1 O 0.3981(2) 0.48640(16) 0.10222(11)
H1 H 0.3275 0.5362 0.0988
H2 H 0.3550 0.4332 0.1172
O2 O 0.4367(2) 0.64311(14) -0.00198(11)
O3 O 0.2401(2) 0.64052(15) 0.06781(11)
O4 O 0.7502(3) 1.2930(2) -0.31889(14)
O5 O -0.3956(2) 0.97963(18) -0.18204(12)
O6 O 0.7025(3) 0.69155(19) -0.51207(15)
O7 O 0.4953(3) 0.64269(18) -0.50015(14)
O8 O 0.2835(3) 0.50375(19) -0.47900(13)
H3 H 0.2240 0.5442 -0.5030
H4 H 0.2688 0.4390 -0.4771
N1 N 0.6795(3) 0.53403(19) 0.03527(14)
N2 N 0.1470(2) 1.04316(18) -0.09920(12)
H9 H 0.0643 1.0357 -0.1146
N3 N 0.2300(2) 1.08608(17) -0.15337(13)
N4 N 0.3844(2) 1.12656(18) -0.25893(13)
N5 N 0.4711(2) 1.15209(18) -0.31271(13)
N6 N 0.2812(2) 0.93692(18) -0.23800(13)
N7 N 0.1348(2) 1.20892(18) -0.25619(13)
N8 N -0.0578(2) 1.02941(18) -0.18460(13)
N9 N 0.0359(2) 1.04090(18) -0.23749(13)
N10 N 0.2051(2) 1.05454(19) -0.34023(13)
N11 N 0.3197(3) 1.05118(19) -0.38960(13)
H10 H 0.3799 1.0952 -0.3785
N12 N 0.5142(3) 0.4901(2) -0.39281(16)
C1 C 0.7372(3) 0.4779(3) 0.08101(19)
H11 H 0.6910 0.4252 0.1026
C2 C 0.8603(4) 0.4924(3) 0.0986(2)
H12 H 0.8966 0.4518 0.1322
C3 C 0.9287(4) 0.5675(3) 0.0659(2)
H13 H 1.0151 0.5779 0.0756
C4 C 0.8709(4) 0.6272(3) 0.0193(2)
H14 H 0.9156 0.6802 -0.0030
C5 C 0.7469(3) 0.6086(2) 0.00551(19)
H15 H 0.7069 0.6501 -0.0264
C6 C 0.3195(3) 0.6796(2) 0.02241(16)
C7 C 0.2778(3) 0.7762(2) -0.00855(16)
C8 C 0.1421(3) 0.8123(2) 0.00155(16)
H16 H 0.0776 0.7770 0.0302
C9 C 0.1020(3) 0.8986(2) -0.02991(15)
H17 H 0.0095 0.9211 -0.0238
C10 C 0.1953(3) 0.9536(2) -0.07052(15)
C11 C 0.3308(3) 0.9188(2) -0.08003(15)
H18 H 0.3958 0.9557 -0.1069
C12 C 0.3700(3) 0.8307(2) -0.05040(16)
H19 H 0.4617 0.8065 -0.0587
C13 C 0.3309(3) 1.1311(2) -0.14138(16)
C14 C 0.3557(3) 1.1503(2) -0.07296(17)
H20 H 0.2746 1.1405 -0.0404
H21 H 0.3785 1.2170 -0.0726
H22 H 0.4303 1.1062 -0.0608
C15 C 0.4178(3) 1.1587(2) -0.20213(16)
C16 C 0.5345(3) 1.2072(2) -0.21908(17)
C17 C 0.6133(4) 1.2510(3) -0.17371(19)
H23 H 0.6955 1.2737 -0.2001
H24 H 0.6370 1.2025 -0.1391
H25 H 0.5588 1.3054 -0.1523
C18 C 0.5634(3) 1.2011(2) -0.28909(17)
C19 C 0.6754(3) 1.2395(3) -0.33711(19)
C20 C 0.6922(4) 1.2133(3) -0.40887(18)
H26 H 0.6500 1.2654 -0.4355
H27 H 0.6493 1.1538 -0.4114
H28 H 0.7881 1.2035 -0.4267
C21 C 0.1994(3) 0.8673(2) -0.21359(18)
H29 H 0.1058 0.8845 -0.2024
C22 C 0.2465(4) 0.7726(3) -0.2044(2)
H30 H 0.1860 0.7255 -0.1870
C23 C 0.3820(4) 0.7463(3) -0.2205(2)
H31 H 0.4164 0.6812 -0.2142
C24 C 0.4662(3) 0.8162(2) -0.24604(19)
H32 H 0.5600 0.8001 -0.2578
C25 C 0.4128(3) 0.9100(2) -0.25427(16)
H33 H 0.4717 0.9578 -0.2723
C26 C 0.1629(3) 1.2650(2) -0.31292(18)
H34 H 0.2289 1.2410 -0.3481
C27 C 0.1002(4) 1.3552(3) -0.32191(19)
H35 H 0.1217 1.3922 -0.3629
C28 C 0.0055(4) 1.3921(3) -0.27101(19)
H36 H -0.0385 1.4547 -0.2762
C29 C -0.0238(3) 1.3358(2) -0.21226(18)
H37 H -0.0880 1.3593 -0.1762
C30 C 0.0415(3) 1.2449(2) -0.20685(17)
H38 H 0.0198 1.2061 -0.1667
C31 C -0.2796(3) 0.9752(3) -0.08851(18)
H39 H -0.3684 0.9657 -0.0626
H40 H -0.2464 1.0333 -0.0747
H41 H -0.2171 0.9193 -0.0802
C32 C -0.2900(3) 0.9865(2) -0.16167(17)
C33 C -0.1682(3) 1.0067(2) -0.20892(16)
C34 C -0.1440(3) 1.0034(2) -0.27931(17)
C35 C -0.2355(3) 0.9745(3) -0.32410(18)
H42 H -0.1872 0.9713 -0.3701
H43 H -0.3133 1.0221 -0.3234
H44 H -0.2662 0.9112 -0.3083
C36 C -0.0115(3) 1.0268(2) -0.29541(16)
C37 C 0.0898(3) 1.0350(2) -0.35526(16)
C38 C 0.0627(3) 1.0239(3) -0.42464(17)
H45 H 0.1436 1.0353 -0.4570
H46 H -0.0111 1.0706 -0.4344
H47 H 0.0379 0.9584 -0.4282
C39 C 0.3831(3) 0.9603(2) -0.40649(16)
C40 C 0.3147(3) 0.8779(2) -0.40348(17)
H48 H 0.2228 0.8788 -0.3837
C41 C 0.3814(3) 0.7946(3) -0.42952(18)
H49 H 0.3341 0.7386 -0.4280
C42 C 0.5161(3) 0.7912(2) -0.45783(17)
C43 C 0.5868(3) 0.8706(2) -0.45577(17)
H50 H 0.6807 0.8672 -0.4715
C44 C 0.5215(3) 0.9551(2) -0.43091(16)
H51 H 0.5704 1.0098 -0.4303
C45 C 0.5781(4) 0.7027(3) -0.49202(19)
C46 C 0.5982(4) 0.5392(3) -0.3651(2)
H52 H 0.6587 0.5775 -0.3940
C47 C 0.6008(5) 0.5368(3) -0.2967(2)
H53 H 0.6627 0.5717 -0.2793
C48 C 0.5112(5) 0.4824(3) -0.2540(2)
H54 H 0.5098 0.4799 -0.2067
C49 C 0.4248(5) 0.4324(3) -0.2814(2)
H55 H 0.3618 0.3951 -0.2535
C50 C 0.4309(4) 0.4373(3) -0.3511(2)
H56 H 0.3723 0.4009 -0.3697
Co2A Co 0.78644(4) -0.07447(3) 0.24729(2)
Co3_2 Co 0.5000 0.5000 0.5000
O1A O 0.6019(2) 0.51360(16) -0.10222(11)
H1A H 0.6725 0.4638 -0.0988
H2A H 0.6450 0.5668 -0.1172
O2A O 0.5633(2) 0.35689(14) 0.00198(11)
O3A O 0.7599(2) 0.35948(15) -0.06781(11)
O4A O 0.2498(3) -0.2930(2) 0.31889(14)
O5A O 1.3956(2) 0.02037(18) 0.18204(12)
O6A O 0.2975(3) 0.30845(19) 0.51207(15)
O7A O 0.5047(3) 0.35731(18) 0.50015(14)
O7A_2 O 0.5047(3) 0.35731(18) -0.49985(14)
O8A O 0.7165(3) 0.49625(19) -0.52100(13)
H3A H 0.7760 0.4558 -0.4970
H4A H 0.7312 0.5610 -0.5229
N1A N 0.3205(3) 0.46597(19) -0.03527(14)
N2A N 0.8530(2) -0.04316(18) 0.09920(12)
H9A H 0.9357 -0.0357 0.1146
N3A N 0.7700(2) -0.08608(17) 0.15337(13)
N4A N 0.6156(2) -0.12656(18) 0.25893(13)
N5A N 0.5289(2) -0.15209(18) 0.31271(13)
N6A N 0.7188(2) 0.06308(18) 0.23800(13)
N7A N 0.8652(2) -0.20892(18) 0.25619(13)
N8A N 1.0578(2) -0.02941(18) 0.18460(13)
N9A N 0.9641(2) -0.04090(18) 0.23749(13)
N10A N 0.7949(2) -0.05454(19) 0.34023(13)
N11A N 0.6803(3) -0.05118(19) 0.38960(13)
H10A H 0.6201 -0.0952 0.3785
N12A N 0.4858(3) 0.5099(2) -0.60719(16)
C1A C 0.2628(3) 0.5221(3) -0.08101(19)
H11A H 0.3090 0.5748 -0.1026
C2A C 0.1397(4) 0.5076(3) -0.0986(2)
H12A H 0.1034 0.5482 -0.1322
C3A C 0.0713(4) 0.4325(3) -0.0659(2)
H13A H -0.0151 0.4221 -0.0756
C4A C 0.1291(4) 0.3728(3) -0.0193(2)
H14A H 0.0844 0.3198 0.0030
C5A C 0.2531(3) 0.3914(2) -0.00551(19)
H15A H 0.2931 0.3499 0.0264
C6A C 0.6805(3) 0.3204(2) -0.02241(16)
C7A C 0.7222(3) 0.2238(2) 0.00855(16)
C8A C 0.8579(3) 0.1877(2) -0.00155(16)
H16A H 0.9224 0.2230 -0.0302
C9A C 0.8980(3) 0.1014(2) 0.02991(15)
H17A H 0.9905 0.0789 0.0238
C10A C 0.8047(3) 0.0464(2) 0.07052(15)
C11A C 0.6692(3) 0.0812(2) 0.08003(15)
H18A H 0.6042 0.0443 0.1069
C12A C 0.6300(3) 0.1693(2) 0.05040(16)
H19A H 0.5383 0.1935 0.0587
C13A C 0.6691(3) -0.1311(2) 0.14138(16)
C14A C 0.6443(3) -0.1503(2) 0.07296(17)
H20A H 0.7254 -0.1405 0.0404
H21A H 0.6215 -0.2170 0.0726
H22A H 0.5697 -0.1062 0.0608
C15A C 0.5822(3) -0.1587(2) 0.20213(16)
C16A C 0.4655(3) -0.2072(2) 0.21908(17)
C17A C 0.3867(4) -0.2510(3) 0.17371(19)
H23A H 0.3045 -0.2737 0.2001
H24A H 0.3630 -0.2025 0.1391
H25A H 0.4412 -0.3054 0.1523
C18A C 0.4366(3) -0.2011(2) 0.28909(17)
C19A C 0.3246(3) -0.2395(3) 0.33711(19)
C20A C 0.3078(4) -0.2133(3) 0.40887(18)
H26A H 0.3500 -0.2654 0.4355
H27A H 0.3507 -0.1538 0.4114
H28A H 0.2119 -0.2035 0.4267
C21A C 0.8006(3) 0.1327(2) 0.21359(18)
H29A H 0.8942 0.1155 0.2024
C22A C 0.7535(4) 0.2274(3) 0.2044(2)
H30A H 0.8140 0.2745 0.1870
C23A C 0.6180(4) 0.2537(3) 0.2205(2)
H31A H 0.5836 0.3188 0.2142
C24A C 0.5338(3) 0.1838(2) 0.24604(19)
H32A H 0.4400 0.1999 0.2578
C25A C 0.5872(3) 0.0900(2) 0.25427(16)
H33A H 0.5283 0.0422 0.2723
C26A C 0.8371(3) -0.2650(2) 0.31292(18)
H34A H 0.7711 -0.2410 0.3481
C27A C 0.8998(4) -0.3552(3) 0.32191(19)
H35A H 0.8783 -0.3922 0.3629
C28A C 0.9945(4) -0.3921(3) 0.27101(19)
H36A H 1.0385 -0.4547 0.2762
C29A C 1.0238(3) -0.3358(2) 0.21226(18)
H37A H 1.0880 -0.3593 0.1762
C30A C 0.9585(3) -0.2449(2) 0.20685(17)
H38A H 0.9802 -0.2061 0.1667
C31A C 1.2796(3) 0.0248(3) 0.08851(18)
H39A H 1.3684 0.0343 0.0626
H40A H 1.2464 -0.0333 0.0747
H41A H 1.2171 0.0807 0.0802
C32A C 1.2900(3) 0.0135(2) 0.16167(17)
C33A C 1.1682(3) -0.0067(2) 0.20892(16)
C34A C 1.1440(3) -0.0034(2) 0.27931(17)
C35A C 1.2355(3) 0.0255(3) 0.32410(18)
H42A H 1.1872 0.0287 0.3701
H43A H 1.3133 -0.0221 0.3234
H44A H 1.2662 0.0888 0.3083
C36A C 1.0115(3) -0.0268(2) 0.29541(16)
C37A C 0.9102(3) -0.0350(2) 0.35526(16)
C38A C 0.9373(3) -0.0239(3) 0.42464(17)
H45A H 0.8564 -0.0353 0.4570
H46A H 1.0111 -0.0706 0.4344
H47A H 0.9621 0.0416 0.4282
C39A C 0.6169(3) 0.0397(2) 0.40649(16)
C40A C 0.6853(3) 0.1221(2) 0.40348(17)
H48A H 0.7772 0.1212 0.3837
C41A C 0.6186(3) 0.2054(3) 0.42952(18)
H49A H 0.6659 0.2614 0.4280
C42A C 0.4839(3) 0.2088(2) 0.45783(17)
C43A C 0.4132(3) 0.1294(2) 0.45577(17)
H50A H 0.3193 0.1328 0.4715
C44A C 0.4785(3) 0.0449(2) 0.43091(16)
H51A H 0.4296 -0.0098 0.4303
C45A C 0.4219(4) 0.2973(3) 0.49202(19)
C46A C 0.4018(4) 0.4608(3) -0.6349(2)
H52A H 0.3413 0.4225 -0.6060
C47A C 0.3992(5) 0.4632(3) -0.7033(2)
H53A H 0.3373 0.4283 -0.7207
C48A C 0.4888(5) 0.5176(3) -0.7460(2)
H54A H 0.4902 0.5201 -0.7933
C49A C 0.5752(5) 0.5676(3) -0.7186(2)
H55A H 0.6382 0.6049 -0.7465
C50A C 0.5691(4) 0.5627(3) -0.6489(2)
H56A H 0.6277 0.5991 -0.6303
Cl1 Cl 0.17180(9) 0.29650(7) 0.18619(6)
O9 O 0.0962(4) 0.2458(3) 0.1503(3)
O10 O 0.3055(3) 0.2999(2) 0.15105(17)
O11 O 0.1786(4) 0.2494(3) 0.25130(19)
O12 O 0.1115(4) 0.3924(2) 0.19205(19)
O13 O 0.8827(3) 1.4012(2) -0.43516(17)
H5 H 0.8317 1.3753 -0.3979
H6 H 0.9545 1.3597 -0.4541
O14 O 0.9497(3) 0.7500(3) -0.5003(2)
H7 H 0.9703 0.7543 -0.4563
H8 H 0.8572 0.7380 -0.4969
O15 O 1.0143(5) 0.7592(4) -0.3707(3)
O16 O 1.1607(12) 0.5972(9) -0.3717(6)
O17? O 1.0770(14) 0.6548(10) -0.3599(8)
O18? O 1.1802(16) 0.6246(10) -0.3162(7)
loop_
_geom_bond_atom_site_label_1
_geom_bond_atom_site_label_2
_geom_bond_site_symmetry_1
_geom_bond_site_symmetry_2
Co1 O1 1_555 1_555
Co2 N3 1_555 1_555
Co3 O7 1_555 1_555
Cl1 O9 1_555 1_555
O1 H1 1_555 1_555
H2 O1 1_555 1_555
O2 Co1 1_555 1_555
O3 C6 1_555 1_555
O4 C19 1_555 1_555
O5 C32 1_555 1_555
O6 C45 1_555 1_555
O7 C45 1_555 1_555
O8 Co3 1_555 1_555
H3 O8 1_555 1_555
H4 O8 1_555 1_555
O10 Cl1 1_555 1_555
O11 Cl1 1_555 1_555
O12 Cl1 1_555 1_555
O13 H5 1_555 1_555
H6 O13 1_555 1_555
O14 H7 1_555 1_555
H8 O14 1_555 1_555
N1 Co1 1_555 1_555
N2 H9 1_555 1_555
N3 N2 1_555 1_555
N4 Co2 1_555 1_555
N5 N4 1_555 1_555
N6 Co2 1_555 1_555
N7 Co2 1_555 1_555
N8 N9 1_555 1_555
N9 Co2 1_555 1_555
N10 Co2 1_555 1_555
N11 N10 1_555 1_555
H10 N11 1_555 1_555
N12 Co3 1_555 1_555
C1 N1 1_555 1_555
H11 C1 1_555 1_555
C2 C1 1_555 1_555
H12 C2 1_555 1_555
C3 C2 1_555 1_555
H13 C3 1_555 1_555
C4 C3 1_555 1_555
H14 C4 1_555 1_555
C5 N1 1_555 1_555
H15 C5 1_555 1_555
C6 O2 1_555 1_555
C7 C6 1_555 1_555
C8 C7 1_555 1_555
H16 C8 1_555 1_555
C9 C8 1_555 1_555
H17 C9 1_555 1_555
C10 N2 1_555 1_555
C11 C10 1_555 1_555
H18 C11 1_555 1_555
C12 C7 1_555 1_555
H19 C12 1_555 1_555
C13 N3 1_555 1_555
C14 C13 1_555 1_555
H20 C14 1_555 1_555
H21 C14 1_555 1_555
H22 C14 1_555 1_555
C15 N4 1_555 1_555
C16 C15 1_555 1_555
C17 C16 1_555 1_555
H23 C17 1_555 1_555
H24 C17 1_555 1_555
H25 C17 1_555 1_555
C18 N5 1_555 1_555
C19 C18 1_555 1_555
C20 C19 1_555 1_555
H26 C20 1_555 1_555
H27 C20 1_555 1_555
H28 C20 1_555 1_555
C21 N6 1_555 1_555
H29 C21 1_555 1_555
C22 C21 1_555 1_555
H30 C22 1_555 1_555
C23 C22 1_555 1_555
H31 C23 1_555 1_555
C24 C23 1_555 1_555
H32 C24 1_555 1_555
C25 N6 1_555 1_555
H33 C25 1_555 1_555
C26 N7 1_555 1_555
H34 C26 1_555 1_555
C27 C26 1_555 1_555
H35 C27 1_555 1_555
C28 C27 1_555 1_555
H36 C28 1_555 1_555
C29 C28 1_555 1_555
H37 C29 1_555 1_555
C30 N7 1_555 1_555
H38 C30 1_555 1_555
C31 H39 1_555 1_555
H40 C31 1_555 1_555
H41 C31 1_555 1_555
C32 C31 1_555 1_555
C33 N8 1_555 1_555
C34 C33 1_555 1_555
C35 C34 1_555 1_555
H42 C35 1_555 1_555
H43 C35 1_555 1_555
H44 C35 1_555 1_555
C36 N9 1_555 1_555
C37 N10 1_555 1_555
C38 C37 1_555 1_555
H45 C38 1_555 1_555
H46 C38 1_555 1_555
H47 C38 1_555 1_555
C39 N11 1_555 1_555
C40 C39 1_555 1_555
H48 C40 1_555 1_555
C41 C40 1_555 1_555
H49 C41 1_555 1_555
C42 C41 1_555 1_555
C43 C42 1_555 1_555
H50 C43 1_555 1_555
C44 C39 1_555 1_555
H51 C44 1_555 1_555
C45 C42 1_555 1_555
C46 N12 1_555 1_555
H52 C46 1_555 1_555
C47 C46 1_555 1_555
H53 C47 1_555 1_555
C48 C47 1_555 1_555
H54 C48 1_555 1_555
C49 C48 1_555 1_555
H55 C49 1_555 1_555
C50 N12 1_555 1_555
H56 C50 1_555 1_555
Co2A N3A 1_555 1_555
Co3_2 O7A 1_555 1_555
O1A Co1 1_555 1_555
H1A O1A 1_555 1_555
H2A O1A 1_555 1_555
O2A Co1 1_555 1_555
O3A C6A 1_555 1_555
O4A C19A 1_555 1_555
O5A C32A 1_555 1_555
O6A C45A 1_555 1_555
O7A C45A 1_555 1_555
O7A_2 Co3 1_555 1_555
O8A Co3 1_555 1_555
H3A O8A 1_555 1_555
H4A O8A 1_555 1_555
N1A Co1 1_555 1_555
N2A H9A 1_555 1_555
N3A N2A 1_555 1_555
N4A Co2A 1_555 1_555
N5A N4A 1_555 1_555
N6A Co2A 1_555 1_555
N7A Co2A 1_555 1_555
N8A N9A 1_555 1_555
N9A Co2A 1_555 1_555
N10A Co2A 1_555 1_555
N11A N10A 1_555 1_555
H10A N11A 1_555 1_555
N12A Co3 1_555 1_555
C1A N1A 1_555 1_555
H11A C1A 1_555 1_555
C2A C1A 1_555 1_555
H12A C2A 1_555 1_555
C3A C2A 1_555 1_555
H13A C3A 1_555 1_555
C4A C3A 1_555 1_555
H14A C4A 1_555 1_555
C5A N1A 1_555 1_555
H15A C5A 1_555 1_555
C6A O2A 1_555 1_555
C7A C6A 1_555 1_555
C8A C7A 1_555 1_555
H16A C8A 1_555 1_555
C9A C8A 1_555 1_555
H17A C9A 1_555 1_555
C10A N2A 1_555 1_555
C11A C10A 1_555 1_555
H18A C11A 1_555 1_555
C12A C7A 1_555 1_555
H19A C12A 1_555 1_555
C13A N3A 1_555 1_555
C14A C13A 1_555 1_555
H20A C14A 1_555 1_555
H21A C14A 1_555 1_555
H22A C14A 1_555 1_555
C15A N4A 1_555 1_555
C16A C15A 1_555 1_555
C17A C16A 1_555 1_555
H23A C17A 1_555 1_555
H24A C17A 1_555 1_555
H25A C17A 1_555 1_555
C18A N5A 1_555 1_555
C19A C18A 1_555 1_555
C20A C19A 1_555 1_555
H26A C20A 1_555 1_555
H27A C20A 1_555 1_555
H28A C20A 1_555 1_555
C21A N6A 1_555 1_555
H29A C21A 1_555 1_555
C22A C21A 1_555 1_555
H30A C22A 1_555 1_555
C23A C22A 1_555 1_555
H31A C23A 1_555 1_555
C24A C23A 1_555 1_555
H32A C24A 1_555 1_555
C25A N6A 1_555 1_555
H33A C25A 1_555 1_555
C26A N7A 1_555 1_555
H34A C26A 1_555 1_555
C27A C26A 1_555 1_555
H35A C27A 1_555 1_555
C28A C27A 1_555 1_555
H36A C28A 1_555 1_555
C29A C28A 1_555 1_555
H37A C29A 1_555 1_555
C30A N7A 1_555 1_555
H38A C30A 1_555 1_555
C31A H39A 1_555 1_555
H40A C31A 1_555 1_555
H41A C31A 1_555 1_555
C32A C31A 1_555 1_555
C33A N8A 1_555 1_555
C34A C33A 1_555 1_555
C35A C34A 1_555 1_555
H42A C35A 1_555 1_555
H43A C35A 1_555 1_555
H44A C35A 1_555 1_555
C36A N9A 1_555 1_555
C37A N10A 1_555 1_555
C38A C37A 1_555 1_555
H45A C38A 1_555 1_555
H46A C38A 1_555 1_555
H47A C38A 1_555 1_555
C39A N11A 1_555 1_555
C40A C39A 1_555 1_555
H48A C40A 1_555 1_555
C41A C40A 1_555 1_555
H49A C41A 1_555 1_555
C42A C41A 1_555 1_555
C43A C42A 1_555 1_555
H50A C43A 1_555 1_555
C44A C39A 1_555 1_555
H51A C44A 1_555 1_555
C45A C42A 1_555 1_555
C46A N12A 1_555 1_555
H52A C46A 1_555 1_555
C47A C46A 1_555 1_555
H53A C47A 1_555 1_555
C48A C47A 1_555 1_555
H54A C48A 1_555 1_555
C49A C48A 1_555 1_555
H55A C49A 1_555 1_555
C50A N12A 1_555 1_555
H56A C50A 1_555 1_555
C4 C5 1_555 1_555
C9 C10 1_555 1_555
C11 C12 1_555 1_555
C13 C15 1_555 1_555
C16 C18 1_555 1_555
C24 C25 1_555 1_555
C29 C30 1_555 1_555
C32 C33 1_555 1_555
C34 C36 1_555 1_555
C36 C37 1_555 1_555
C43 C44 1_555 1_555
C49 C50 1_555 1_555
C4A C5A 1_555 1_555
C9A C10A 1_555 1_555
C11A C12A 1_555 1_555
C13A C15A 1_555 1_555
C16A C18A 1_555 1_555
C24A C25A 1_555 1_555
C29A C30A 1_555 1_555
C32A C33A 1_555 1_555
C34A C36A 1_555 1_555
C36A C37A 1_555 1_555
C43A C44A 1_555 1_555
C49A C50A 1_555 1_555

#END
