
#######################################################################
#
#                 Cambridge Crystallographic Data Centre
#                                CCDC 
#
#######################################################################
#
# If this CIF has been generated from an entry in the Cambridge 
# Structural Database, then it will include bibliographic, chemical, 
# crystal, experimental, refinement or atomic coordinate data resulting 
# from the CCDC's data processing and validation procedures.
#
#######################################################################

data_SITPUH
_symmetry_cell_setting           monoclinic
_symmetry_space_group_name_H-M   'P 21/c'
_symmetry_Int_Tables_number      14
_space_group_name_Hall           '-P 2ybc'
loop_
_symmetry_equiv_pos_site_id
_symmetry_equiv_pos_as_xyz
1 x,y,z
2 -x,1/2+y,1/2-z
3 -x,-y,-z
4 x,1/2-y,1/2+z
_cell_length_a                   19.828(3)
_cell_length_b                   5.4233(14)
_cell_length_c                   9.2796(16)
_cell_angle_alpha                90
_cell_angle_beta                 97.691(2)
_cell_angle_gamma                90
_cell_volume                     988.888
loop_
_atom_site_label
_atom_site_type_symbol
_atom_site_fract_x
_atom_site_fract_y
_atom_site_fract_z
Fe1 Fe 0.0000 0.5000 1.0000
N1 N 0.08732(12) 0.3263(4) 0.9128(2)
H1 H 0.1192 0.2819 0.9866
H2 H 0.0734 0.1899 0.8621
N2 N 0.32342(14) 0.2011(5) 0.8821(3)
H3 H 0.3430 0.0760 0.8486
O1 O 0.01735(10) 0.7494(4) 0.83876(19)
O2 O 0.07381(11) 0.8099(4) 0.6512(2)
C1 C 0.06411(15) 0.6995(5) 0.7653(3)
C2 C 0.11617(14) 0.5026(6) 0.8181(3)
H4 H 0.1289 0.4141 0.7337
C3 C 0.17841(16) 0.6287(6) 0.8957(4)
H5 H 0.1868 0.7766 0.8421
H6 H 0.1687 0.6798 0.9910
C4 C 0.25688(17) 0.2742(6) 0.8405(4)
H7 H 0.2264 0.1945 0.7708
C5 C 0.24196(15) 0.4778(6) 0.9150(3)
C6 C 0.30298(15) 0.5371(6) 1.0085(3)
C7 C 0.35274(17) 0.3605(6) 0.9853(4)
C8 C 0.41845(17) 0.3706(7) 1.0587(4)
H8 H 0.4507 0.2526 1.0429
C9 C 0.43431(19) 0.5583(8) 1.1546(4)
H9 H 0.4782 0.5693 1.2042
C10 C 0.38634(19) 0.7333(8) 1.1796(4)
H10 H 0.3987 0.8586 1.2465
C11 C 0.32130(18) 0.7265(6) 1.1086(4)
H11 H 0.2898 0.8457 1.1265
Fe1C Fe 0.0000 1.0000 0.5000
Fe1C_2 Fe 0.0000 0.0000 1.5000
N1B N -0.08732(12) 0.6737(4) 1.0872(2)
H1B H -0.1192 0.7181 1.0134
H2B H -0.0734 0.8101 1.1379
N2B N -0.32342(14) 0.7989(5) 1.1179(3)
H3B H -0.3430 0.9240 1.1514
O1B O -0.01735(10) 0.2506(4) 1.16124(19)
O2B O -0.07381(11) 0.1901(4) 1.3488(2)
O2C O 0.07381(11) 0.6901(4) 1.1512(2)
O2A O -0.07381(11) 0.3099(4) 0.8488(2)
C1B C -0.06411(15) 0.3005(5) 1.2347(3)
C2B C -0.11617(14) 0.4974(6) 1.1819(3)
H4B H -0.1289 0.5859 1.2663
C3B C -0.17841(16) 0.3713(6) 1.1043(4)
H5B H -0.1868 0.2234 1.1579
H6B H -0.1687 0.3202 1.0090
C4B C -0.25688(17) 0.7258(6) 1.1595(4)
H7B H -0.2264 0.8055 1.2292
C5B C -0.24196(15) 0.5222(6) 1.0850(3)
C6B C -0.30298(15) 0.4629(6) 0.9915(3)
C7B C -0.35274(17) 0.6395(6) 1.0147(4)
C8B C -0.41845(17) 0.6294(7) 0.9413(4)
H8B H -0.4507 0.7474 0.9571
C9B C -0.43431(19) 0.4417(8) 0.8454(4)
H9B H -0.4782 0.4307 0.7958
C10B C -0.38634(19) 0.2667(8) 0.8204(4)
H10B H -0.3987 0.1414 0.7535
C11B C -0.32130(18) 0.2735(6) 0.8914(4)
H11B H -0.2898 0.1543 0.8735
loop_
_geom_bond_atom_site_label_1
_geom_bond_atom_site_label_2
_geom_bond_site_symmetry_1
_geom_bond_site_symmetry_2
Fe1 N1 1_555 1_555
N1 H1 1_555 1_555
H2 N1 1_555 1_555
N2 H3 1_555 1_555
O1 Fe1 1_555 1_555
O2 C1 1_555 1_555
C1 O1 1_555 1_555
C2 N1 1_555 1_555
H4 C2 1_555 1_555
C3 C2 1_555 1_555
H5 C3 1_555 1_555
H6 C3 1_555 1_555
C4 N2 1_555 1_555
H7 C4 1_555 1_555
C5 C3 1_555 1_555
C6 C5 1_555 1_555
C7 N2 1_555 1_555
C8 C7 1_555 1_555
H8 C8 1_555 1_555
C9 C8 1_555 1_555
H9 C9 1_555 1_555
C10 C9 1_555 1_555
H10 C10 1_555 1_555
C11 C6 1_555 1_555
H11 C11 1_555 1_555
Fe1C O2 1_555 1_555
Fe1C_2 O2B 1_555 1_555
N1B Fe1 1_555 1_555
H1B N1B 1_555 1_555
H2B N1B 1_555 1_555
N2B H3B 1_555 1_555
O1B Fe1 1_555 1_555
O2B C1B 1_555 1_555
O2C Fe1 1_555 1_555
O2A Fe1 1_555 1_555
C1B O1B 1_555 1_555
C2B N1B 1_555 1_555
H4B C2B 1_555 1_555
C3B C2B 1_555 1_555
H5B C3B 1_555 1_555
H6B C3B 1_555 1_555
C4B N2B 1_555 1_555
H7B C4B 1_555 1_555
C5B C3B 1_555 1_555
C6B C5B 1_555 1_555
C7B N2B 1_555 1_555
C8B C7B 1_555 1_555
H8B C8B 1_555 1_555
C9B C8B 1_555 1_555
H9B C9B 1_555 1_555
C10B C9B 1_555 1_555
H10B C10B 1_555 1_555
C11B C6B 1_555 1_555
H11B C11B 1_555 1_555
C1 C2 1_555 1_555
C4 C5 1_555 1_555
C6 C7 1_555 1_555
C10 C11 1_555 1_555
C1B C2B 1_555 1_555
C4B C5B 1_555 1_555
C6B C7B 1_555 1_555
C10B C11B 1_555 1_555

#END
