
#######################################################################
#
#                 Cambridge Crystallographic Data Centre
#                                CCDC 
#
#######################################################################
#
# If this CIF has been generated from an entry in the Cambridge 
# Structural Database, then it will include bibliographic, chemical, 
# crystal, experimental, refinement or atomic coordinate data resulting 
# from the CCDC's data processing and validation procedures.
#
#######################################################################

data_SITPOB
_symmetry_cell_setting           orthorhombic
_symmetry_space_group_name_H-M   'C 2 2 21'
_symmetry_Int_Tables_number      20
_space_group_name_Hall           'C 2n 2'
loop_
_symmetry_equiv_pos_site_id
_symmetry_equiv_pos_as_xyz
1 x,y,z
2 -x,-y,1/2+z
3 -x,y,1/2-z
4 x,-y,-z
5 1/2+x,1/2+y,z
6 1/2-x,1/2-y,1/2+z
7 1/2-x,1/2+y,1/2-z
8 1/2+x,1/2-y,-z
_cell_length_a                   15.336(4)
_cell_length_b                   22.390(6)
_cell_length_c                   14.257(3)
_cell_angle_alpha                90
_cell_angle_beta                 90
_cell_angle_gamma                90
_cell_volume                     4895.47
loop_
_atom_site_label
_atom_site_type_symbol
_atom_site_fract_x
_atom_site_fract_y
_atom_site_fract_z
Cd1 Cd 0.522051(10) 0.838300(7) 0.884947(11)
N1 N 0.43747(16) 0.92563(10) 0.8773(2)
N2 N 0.61281(16) 0.92189(11) 0.8760(2)
N3 N 0.15363(19) 0.68736(13) 0.60481(19)
H1 H 0.1062 0.6675 0.5971
H2 H 0.1843 0.6977 0.5569
O1 O 0.40498(14) 0.77902(10) 0.89433(16)
O2 O 0.40419(18) 0.80638(12) 0.74653(19)
O3 O 0.03297(12) 0.65810(9) 0.93559(14)
O4 O 0.12734(15) 0.70560(10) 1.02539(14)
C3 C 0.28816(17) 0.74490(11) 0.79844(18)
C4 C 0.23903(17) 0.72867(11) 0.87603(18)
H3 H 0.2593 0.7365 0.9363
C5 C 0.15900(16) 0.70048(11) 0.86263(17)
C6 C 0.13151(16) 0.68629(12) 0.77250(18)
H4 H 0.0796 0.6655 0.7643
C7 C 0.18056(17) 0.70265(12) 0.69364(19)
C8 C 0.25981(17) 0.73288(12) 0.70784(18)
H5 H 0.2932 0.7448 0.6567
C9 C 0.37239(17) 0.77825(11) 0.81240(19)
C10 C 0.10259(17) 0.68678(11) 0.94669(18)
C11 C 0.3497(2) 0.92582(15) 0.8759(4)
H6 H 0.3205 0.8894 0.8767
C12 C 0.3016(2) 0.97738(18) 0.8734(4)
H7 H 0.2410 0.9760 0.8717
C13 C 0.3447(3) 1.03140(17) 0.8735(4)
H8 H 0.3136 1.0670 0.8718
C14 C 0.4338(3) 1.03190(14) 0.8760(3)
H9 H 0.4639 1.0680 0.8771
C15 C 0.47923(19) 0.97830(11) 0.87682(19)
C16 C 0.57657(19) 0.97603(12) 0.8776(2)
C17 C 0.6273(2) 1.02767(14) 0.8796(3)
H10 H 0.6015 1.0653 0.8808
C18 C 0.7178(3) 1.02148(18) 0.8798(4)
H11 H 0.7532 1.0552 0.8809
C19 C 0.7543(2) 0.96600(19) 0.8782(4)
H12 H 0.8146 0.9613 0.8789
C20 C 0.7001(2) 0.91711(16) 0.8756(3)
H13 H 0.7249 0.8792 0.8735
Cd1B Cd 0.477949(10) 0.838300(7) 0.615053(11)
Cd1G Cd 0.022051(10) 0.661700(7) 1.115053(11)
Cd1E Cd 0.977949(10) 0.661700(7) 0.384947(11)
N1B N 0.56253(16) 0.92563(10) 0.6227(2)
N2B N 0.38719(16) 0.92189(11) 0.6240(2)
N3B N 0.84637(19) 0.68736(13) 0.89519(19)
H1B H 0.8938 0.6675 0.9029
H2B H 0.8157 0.6977 0.9431
O1B O 0.59502(14) 0.77902(10) 0.60567(16)
O2B O 0.59581(18) 0.80638(12) 0.75347(19)
O3B O 0.96703(12) 0.65810(9) 0.56441(14)
O3G O 0.53297(12) 0.84190(9) 1.06441(14)
O3E O 0.46703(12) 0.84190(9) 0.43559(14)
O4B O 0.87266(15) 0.70560(10) 0.47461(14)
O4G O 0.62734(15) 0.79440(10) 0.97461(14)
O4E O 0.37266(15) 0.79440(10) 0.52539(14)
C3B C 0.71184(17) 0.74490(11) 0.70156(18)
C4B C 0.76097(17) 0.72867(11) 0.62397(18)
H3B H 0.7407 0.7365 0.5637
C5B C 0.84100(16) 0.70048(11) 0.63737(17)
C6B C 0.86849(16) 0.68629(12) 0.72750(18)
H4B H 0.9204 0.6655 0.7357
C7B C 0.81944(17) 0.70265(12) 0.80636(19)
C8B C 0.74019(17) 0.73288(12) 0.79216(18)
H5B H 0.7068 0.7448 0.8433
C9B C 0.62761(17) 0.77825(11) 0.68760(19)
C10B C 0.89741(17) 0.68678(11) 0.55331(18)
C11B C 0.6503(2) 0.92582(15) 0.6241(4)
H6B H 0.6795 0.8894 0.6233
C12B C 0.6984(2) 0.97738(18) 0.6266(4)
H7B H 0.7590 0.9760 0.6283
C13B C 0.6553(3) 1.03140(17) 0.6265(4)
H8B H 0.6864 1.0670 0.6282
C14B C 0.5662(3) 1.03190(14) 0.6240(3)
H9B H 0.5361 1.0680 0.6229
C15B C 0.52077(19) 0.97830(11) 0.62318(19)
C16B C 0.42343(19) 0.97603(12) 0.6224(2)
C17B C 0.3727(2) 1.02767(14) 0.6204(3)
H10B H 0.3985 1.0653 0.6192
C18B C 0.2822(3) 1.02148(18) 0.6202(4)
H11B H 0.2468 1.0552 0.6191
C19B C 0.2457(2) 0.96600(19) 0.6218(4)
H12B H 0.1854 0.9613 0.6211
C20B C 0.2999(2) 0.91711(16) 0.6244(3)
H13B H 0.2751 0.8792 0.6265
C1 C 0.9557(5) 0.9385(3) 1.0005(5)
C21 C 1.0332(4) 0.9672(2) 1.0013(3)
N6 N 1.1136(5) 0.9403(5) 1.0073(5)
C23 C 1.1063(15) 0.8745(10) 1.0080(13)
C24 C 1.0368(18) 0.8496(6) 1.0058(13)
C25 C 0.9587(10) 0.8768(4) 1.0033(8)
C1C C 0.9557(5) 1.0615(3) 0.9995(5)
C21C C 1.0332(4) 1.0328(2) 0.9987(3)
N6C N 1.1136(5) 1.0597(5) 0.9927(5)
C23C C 1.1063(15) 1.1255(10) 0.9920(13)
C24C C 1.0368(18) 1.1504(6) 0.9942(13)
C25C C 0.9587(10) 1.1232(4) 0.9967(8)
N4? N 0.9557(5) 0.9385(3) 1.0005(5)
N5? N 0.9193(5) 1.0358(2) 0.7420(5)
C2? C 0.9193(5) 1.0358(2) 0.7420(5)
C22? C 1.1136(5) 0.9403(5) 1.0073(5)
C26? C 0.9217(8) 1.0985(3) 0.7443(6)
C27? C 1.0000 1.1291(4) 0.7500
C28? C 1.0000 1.0087(3) 0.7500
C29? C 1.0000 0.9422(3) 0.7500
C30? C 0.9243(4) 0.8515(2) 0.7369(6)
C31? C 1.0000 0.8219(3) 0.7500
H14? H 1.0000 0.7803 0.7500
C32? C 0.9242(4) 0.9132(2) 0.7362(4)
N7? N 0.9242(4) 0.9132(2) 0.7362(4)
loop_
_geom_bond_atom_site_label_1
_geom_bond_atom_site_label_2
_geom_bond_site_symmetry_1
_geom_bond_site_symmetry_2
Cd1 N1 1_555 1_555
N1 C11 1_555 1_555
N2 Cd1 1_555 1_555
N3 H1 1_555 1_555
H2 N3 1_555 1_555
C1 C21 1_555 1_555
O1 Cd1 1_555 1_555
O2 C9 1_555 1_555
O3 C10 1_555 1_555
O4 C10 1_555 1_555
C3 C4 1_555 1_555
C4 H3 1_555 1_555
C5 C4 1_555 1_555
C6 C5 1_555 1_555
H4 C6 1_555 1_555
C7 N3 1_555 1_555
C8 C3 1_555 1_555
H5 C8 1_555 1_555
C9 O1 1_555 1_555
C10 C5 1_555 1_555
C11 H6 1_555 1_555
C12 C11 1_555 1_555
H7 C12 1_555 1_555
C13 C12 1_555 1_555
H8 C13 1_555 1_555
C14 C13 1_555 1_555
H9 C14 1_555 1_555
C15 N1 1_555 1_555
C16 N2 1_555 1_555
C17 C16 1_555 1_555
H10 C17 1_555 1_555
C18 C17 1_555 1_555
H11 C18 1_555 1_555
C19 C18 1_555 1_555
H12 C19 1_555 1_555
C20 N2 1_555 1_555
H13 C20 1_555 1_555
C21 N6 1_555 1_555
N6 C23 1_555 1_555
C23 C24 1_555 1_555
C24 C25 1_555 1_555
C25 C1 1_555 1_555
Cd1B O2 1_555 1_555
Cd1G O3 1_555 1_555
Cd1E O3B 1_555 1_555
N1B Cd1B 1_555 1_555
N2B Cd1B 1_555 1_555
N3B H1B 1_555 1_555
H2B N3B 1_555 1_555
C1C C21C 1_555 1_555
O1B Cd1B 1_555 1_555
O2B Cd1 1_555 1_555
O3B C10B 1_555 1_555
O3G Cd1 1_555 1_555
O3E Cd1B 1_555 1_555
O4B Cd1E 1_555 1_555
O4G Cd1 1_555 1_555
O4E Cd1B 1_555 1_555
C3B C4B 1_555 1_555
C4B H3B 1_555 1_555
C5B C4B 1_555 1_555
C6B C5B 1_555 1_555
H4B C6B 1_555 1_555
C7B N3B 1_555 1_555
C8B C3B 1_555 1_555
H5B C8B 1_555 1_555
C9B O1B 1_555 1_555
C10B O4B 1_555 1_555
C11B N1B 1_555 1_555
H6B C11B 1_555 1_555
C12B C11B 1_555 1_555
H7B C12B 1_555 1_555
C13B C12B 1_555 1_555
H8B C13B 1_555 1_555
C14B C13B 1_555 1_555
H9B C14B 1_555 1_555
C15B N1B 1_555 1_555
C16B N2B 1_555 1_555
C17B C16B 1_555 1_555
H10B C17B 1_555 1_555
C18B C17B 1_555 1_555
H11B C18B 1_555 1_555
C19B C18B 1_555 1_555
H12B C19B 1_555 1_555
C20B N2B 1_555 1_555
H13B C20B 1_555 1_555
C21C C21 1_555 1_555
N6C C21C 1_555 1_555
C23C N6C 1_555 1_555
C24C C23C 1_555 1_555
C25C C1C 1_555 1_555
O4 Cd1G 1_555 1_555
C3 C9 1_555 1_555
C6 C7 1_555 1_555
C7 C8 1_555 1_555
C14 C15 1_555 1_555
C15 C16 1_555 1_555
C19 C20 1_555 1_555
O2B C9B 1_555 1_555
C3B C9B 1_555 1_555
C5B C10B 1_555 1_555
C6B C7B 1_555 1_555
C7B C8B 1_555 1_555
C14B C15B 1_555 1_555
C15B C16B 1_555 1_555
C19B C20B 1_555 1_555
C24C C25C 1_555 1_555

#END
