
#######################################################################
#
#                 Cambridge Crystallographic Data Centre
#                                CCDC 
#
#######################################################################
#
# If this CIF has been generated from an entry in the Cambridge 
# Structural Database, then it will include bibliographic, chemical, 
# crystal, experimental, refinement or atomic coordinate data resulting 
# from the CCDC's data processing and validation procedures.
#
#######################################################################

data_SITROE
_symmetry_cell_setting           triclinic
_symmetry_space_group_name_H-M   'P -1'
_symmetry_Int_Tables_number      2
_space_group_name_Hall           '-P 1'
loop_
_symmetry_equiv_pos_site_id
_symmetry_equiv_pos_as_xyz
1 x,y,z
2 -x,-y,-z
_cell_length_a                   9.1050(8)
_cell_length_b                   10.4669(9)
_cell_length_c                   11.9352(11)
_cell_angle_alpha                86.535(2)
_cell_angle_beta                 81.9760(10)
_cell_angle_gamma                82.8440(10)
_cell_volume                     1116.46
loop_
_atom_site_label
_atom_site_type_symbol
_atom_site_fract_x
_atom_site_fract_y
_atom_site_fract_z
Nd1 Nd 0.51807(6) 0.43541(5) 0.71802(4)
Br1 Br 0.75705(13) 0.15326(12) 0.37662(10)
Br2 Br 0.71919(14) -0.07441(13) 0.20382(11)
Br3 Br 0.10277(12) -0.02076(11) 0.34451(9)
Br4 Br 0.13528(14) 0.23692(12) 0.49313(10)
Br5 Br 0.90449(17) 0.22463(12) 0.93598(11)
Br6 Br 0.92754(16) 0.75511(13) 0.83705(11)
O1 O 0.4771(9) 0.2814(7) 0.5841(6)
O2 O 0.4576(9) 0.3995(7) 0.4225(6)
O3 O 0.3973(9) -0.2302(7) 0.2122(6)
O4 O 0.3612(9) -0.0534(8) 0.1024(6)
O5 O 0.7197(9) 0.4942(7) 0.8078(6)
O6 O 0.9463(9) 0.4568(9) 0.7100(6)
O7 O 0.7585(9) 0.3786(8) 0.5813(6)
H1 H 0.7565 0.3102 0.5468
H2 H 0.8361 0.3720 0.6144
O8 O 0.2559(9) 0.5025(8) 0.6660(7)
H3 H 0.2289 0.5826 0.6735
H4 H 0.1916 0.4592 0.7043
O9 O 0.4089(10) 0.6371(8) 0.8240(7)
H5 H 0.3799 0.6975 0.7784
H6 H 0.4734 0.6626 0.8599
O10 O 0.3667(11) 0.3921(9) 0.9035(7)
H7 H 0.4095 0.3309 0.9418
H8 H 0.3519 0.4622 0.9381
C1 C 0.4587(12) 0.2959(10) 0.4803(9)
C2 C 0.3895(13) -0.1090(10) 0.1932(9)
C3 C 0.4444(12) 0.1768(9) 0.4188(8)
C4 C 0.5698(12) 0.1056(10) 0.3616(8)
C5 C 0.5518(12) 0.0105(10) 0.2929(8)
C6 C 0.4100(12) -0.0211(9) 0.2824(8)
C7 C 0.2899(12) 0.0384(10) 0.3495(8)
C8 C 0.3037(12) 0.1402(10) 0.4139(8)
C9 C 0.8638(13) 0.4803(11) 0.7971(10)
C10 C 0.9317(12) 0.4901(11) 0.9024(9)
C11 C 0.9624(12) 0.3835(10) 0.9721(9)
C12 C 0.9678(12) 0.6078(11) 0.9316(9)
Br5A Br 1.09551(17) 0.77537(12) 1.06402(11)
Br6A Br 1.07246(16) 0.24489(13) 1.16295(11)
O5A O 1.2803(9) 0.5058(7) 1.1922(6)
O6A O 1.0537(9) 0.5432(9) 1.2900(6)
C9A C 1.1362(13) 0.5197(11) 1.2029(10)
C10A C 1.0683(12) 0.5099(11) 1.0976(9)
C11A C 1.0376(12) 0.6165(10) 1.0279(9)
C12A C 1.0322(12) 0.3922(11) 1.0684(9)
Nd1A Nd 0.48193(6) -0.43541(5) 0.28198(4)
Br1A Br 0.24295(13) -0.15326(12) 0.62338(10)
Br2A Br 0.28081(14) 0.07441(13) 0.79618(11)
Br3A Br 0.89723(12) 0.02076(11) 0.65549(9)
Br4A Br 0.86472(14) -0.23692(12) 0.50687(10)
O1A O 0.5229(9) -0.2814(7) 0.4159(6)
O2A O 0.5424(9) -0.3995(7) 0.5775(6)
O3A O 0.6027(9) 0.2302(7) 0.7878(6)
O4A O 0.6388(9) 0.0534(8) 0.8976(6)
O7A O 0.2415(9) -0.3786(8) 0.4187(6)
H1A H 0.2435 -0.3102 0.4532
H2A H 0.1639 -0.3720 0.3856
O8A O 0.7441(9) -0.5025(8) 0.3340(7)
H3A H 0.7711 -0.5826 0.3265
H4A H 0.8084 -0.4592 0.2957
O9A O 0.5911(10) -0.6371(8) 0.1760(7)
H5A H 0.6201 -0.6975 0.2216
H6A H 0.5266 -0.6626 0.1401
O10A O 0.6333(11) -0.3921(9) 0.0965(7)
H7A H 0.5905 -0.3309 0.0582
H8A H 0.6481 -0.4622 0.0619
C1A C 0.5413(12) -0.2959(10) 0.5197(9)
C2A C 0.6105(13) 0.1090(10) 0.8068(9)
C3A C 0.5556(12) -0.1768(9) 0.5812(8)
C4A C 0.4302(12) -0.1056(10) 0.6384(8)
C5A C 0.4482(12) -0.0105(10) 0.7071(8)
C6A C 0.5900(12) 0.0211(9) 0.7176(8)
C7A C 0.7101(12) -0.0384(10) 0.6505(8)
C8A C 0.6963(12) -0.1402(10) 0.5861(8)
Nd1_2 Nd 0.51807(6) -0.56459(5) 0.71802(4)
Nd1A_2 Nd 0.48193(6) 0.56459(5) 0.28198(4)
Nd1A_3 Nd 1.48193(6) 0.56459(5) 1.28198(4)
O2_2 O 0.4576(9) -0.6005(7) 0.4225(6)
O2A_2 O 0.5424(9) 0.6005(7) 0.5775(6)
O5A_2 O 0.2803(9) -0.4942(7) 0.1922(6)
O11 O 0.4655(10) 0.2011(8) 0.0561(6)
H9 H 0.4192 0.1383 0.0836
H10 H 0.5475 0.1746 0.0166
loop_
_geom_bond_atom_site_label_1
_geom_bond_atom_site_label_2
_geom_bond_site_symmetry_1
_geom_bond_site_symmetry_2
Nd1 O1 1_555 1_555
Br1 C4 1_555 1_555
Br2 C5 1_555 1_555
Br3 C7 1_555 1_555
Br4 C8 1_555 1_555
Br5 C11 1_555 1_555
Br6 C12 1_555 1_555
O1 C1 1_555 1_555
O2 C1 1_555 1_555
O3 C2 1_555 1_555
O4 C2 1_555 1_555
O5 Nd1 1_555 1_555
O6 C9 1_555 1_555
O7 Nd1 1_555 1_555
H1 O7 1_555 1_555
H2 O7 1_555 1_555
O8 Nd1 1_555 1_555
H3 O8 1_555 1_555
H4 O8 1_555 1_555
O9 Nd1 1_555 1_555
H5 O9 1_555 1_555
H6 O9 1_555 1_555
O10 Nd1 1_555 1_555
H7 O10 1_555 1_555
H8 O10 1_555 1_555
C1 C3 1_555 1_555
C2 C6 1_555 1_555
C3 C4 1_555 1_555
C4 C5 1_555 1_555
C5 C6 1_555 1_555
C6 C7 1_555 1_555
C7 C8 1_555 1_555
C8 C3 1_555 1_555
C9 O5 1_555 1_555
C10 C9 1_555 1_555
C11 C10 1_555 1_555
C12 C10 1_555 1_555
O11 H9 1_555 1_555
H10 O11 1_555 1_555
Br5A C11A 1_555 1_555
Br6A C12A 1_555 1_555
O5A C9A 1_555 1_555
O6A C9A 1_555 1_555
C9A C10A 1_555 1_555
C10A C11A 1_555 1_555
C11A C12 1_555 1_555
C12A C11 1_555 1_555
Nd1A O3 1_555 1_555
Br1A C4A 1_555 1_555
Br2A C5A 1_555 1_555
Br3A C7A 1_555 1_555
Br4A C8A 1_555 1_555
O1A Nd1A 1_555 1_555
O2A C1A 1_555 1_555
O3A Nd1 1_555 1_555
O4A C2A 1_555 1_555
O7A Nd1A 1_555 1_555
H1A O7A 1_555 1_555
H2A O7A 1_555 1_555
O8A Nd1A 1_555 1_555
H3A O8A 1_555 1_555
H4A O8A 1_555 1_555
O9A Nd1A 1_555 1_555
H5A O9A 1_555 1_555
H6A O9A 1_555 1_555
O10A Nd1A 1_555 1_555
H7A O10A 1_555 1_555
H8A O10A 1_555 1_555
C1A O1A 1_555 1_555
C2A O3A 1_555 1_555
C3A C1A 1_555 1_555
C4A C3A 1_555 1_555
C5A C4A 1_555 1_555
C6A C2A 1_555 1_555
C7A C6A 1_555 1_555
C8A C3A 1_555 1_555
Nd1_2 O2A 1_555 1_555
Nd1A_2 O2 1_555 1_555
Nd1A_3 O5A 1_555 1_555
O2_2 Nd1A 1_555 1_555
O2A_2 Nd1 1_555 1_555
O5A_2 Nd1A 1_555 1_555
C10A C12A 1_555 1_555
C5A C6A 1_555 1_555
C7A C8A 1_555 1_555

#END
