
#######################################################################
#
#                 Cambridge Crystallographic Data Centre
#                                CCDC 
#
#######################################################################
#
# If this CIF has been generated from an entry in the Cambridge 
# Structural Database, then it will include bibliographic, chemical, 
# crystal, experimental, refinement or atomic coordinate data resulting 
# from the CCDC's data processing and validation procedures.
#
#######################################################################

data_SITTOG
_symmetry_cell_setting           monoclinic
_symmetry_space_group_name_H-M   'P 21/c'
_symmetry_Int_Tables_number      14
_space_group_name_Hall           '-P 2ybc'
loop_
_symmetry_equiv_pos_site_id
_symmetry_equiv_pos_as_xyz
1 x,y,z
2 -x,1/2+y,1/2-z
3 -x,-y,-z
4 x,1/2-y,1/2+z
_cell_length_a                   10.0012(7)
_cell_length_b                   13.3144(13)
_cell_length_c                   26.476(2)
_cell_angle_alpha                90
_cell_angle_beta                 97.150(7)
_cell_angle_gamma                90
_cell_volume                     3498.13
loop_
_atom_site_label
_atom_site_type_symbol
_atom_site_fract_x
_atom_site_fract_y
_atom_site_fract_z
Ni1 Ni 0.75335(9) 0.27355(7) 0.81948(4)
Ni2 Ni 0.78992(9) 0.20602(7) 0.93227(4)
Ni3 Ni 1.27211(10) 0.23731(8) 0.87737(4)
C1 C 0.8679(9) -0.2527(6) 0.7978(3)
H1 H 0.8867 -0.2957 0.8269
H2 H 0.9450 -0.2505 0.7795
H3 H 0.7918 -0.2785 0.7759
C2 C 0.8367(7) -0.1485(5) 0.8150(3)
C3 C 0.8380(6) -0.1227(5) 0.8658(3)
H4 H 0.8564 -0.1730 0.8901
C4 C 0.8138(6) -0.0265(5) 0.8828(2)
C5 C 0.7849(6) 0.0517(4) 0.8471(2)
C6 C 0.7832(6) 0.0265(5) 0.7946(2)
C7 C 0.8058(7) -0.0712(5) 0.7803(3)
H5 H 0.7999 -0.0859 0.7458
C8 C 0.7695(7) 0.1014(5) 0.7517(3)
H6 H 0.8585 0.1278 0.7486
H7 H 0.7394 0.0655 0.7205
C9 C 0.8317(6) -0.0130(5) 0.9397(2)
H8 H 0.8169 -0.0775 0.9551
H9 H 0.9248 0.0055 0.9502
C10 C 0.6619(7) 0.2377(5) 0.7044(2)
H10 H 0.6117 0.1934 0.6799
H11 H 0.7504 0.2473 0.6939
C11 C 0.5898(7) 0.3394(6) 0.7033(3)
H12 H 0.5216 0.3413 0.6739
H13 H 0.5441 0.3450 0.7335
C12 C 0.6809(7) 0.4284(6) 0.7012(3)
H14 H 0.6299 0.4880 0.7076
H15 H 0.7037 0.4335 0.6668
C13 C 0.8106(7) 0.4306(5) 0.7370(2)
H16 H 0.8687 0.3782 0.7266
H17 H 0.8545 0.4943 0.7324
C14 C 0.7630(7) 0.0481(6) 1.0170(2)
H18 H 0.8588 0.0454 1.0288
H19 H 0.7245 -0.0160 1.0248
C15 C 0.7009(7) 0.1284(6) 1.0462(3)
H20 H 0.6519 0.0963 1.0711
H21 H 0.6357 0.1646 1.0227
C16 C 0.7988(7) 0.2053(6) 1.0740(3)
H22 H 0.7464 0.2613 1.0842
H23 H 0.8426 0.1740 1.1048
C17 C 0.9083(7) 0.2471(6) 1.0443(2)
H24 H 0.9615 0.2943 1.0663
H25 H 0.9674 0.1919 1.0381
C18 C 0.7715(7) 0.3783(5) 1.0009(2)
H26 H 0.8074 0.4186 1.0300
H27 H 0.6890 0.3475 1.0090
C19 C 0.7067(7) 0.4892(5) 0.8106(3)
H28 H 0.6165 0.4688 0.7967
H29 H 0.7227 0.5547 0.7965
C20 C 0.7096(6) 0.5008(5) 0.8675(2)
C21 C 0.7439(6) 0.4250(4) 0.9041(2)
C22 C 0.7356(6) 0.4486(5) 0.9559(2)
C23 C 0.6897(6) 0.5442(5) 0.9686(3)
H30 H 0.6856 0.5589 1.0027
C24 C 0.6505(7) 0.6169(5) 0.9327(3)
C25 C 0.6639(7) 0.5939(5) 0.8826(3)
H31 H 0.6415 0.6427 0.8578
C26 C 0.5990(9) 0.7172(6) 0.9474(3)
H32 H 0.5766 0.7573 0.9174
H33 H 0.6673 0.7505 0.9701
H34 H 0.5201 0.7078 0.9641
C27 C 0.5439(6) 0.1530(5) 0.7679(3)
H35 H 0.5545 0.0869 0.7833
H36 H 0.4829 0.1466 0.7365
C28 C 0.4808(6) 0.2224(5) 0.8037(2)
C29 C 0.6002(6) 0.0466(5) 0.9405(2)
H37 H 0.5954 0.0096 0.9088
H38 H 0.5575 0.0061 0.9644
C30 C 0.5234(6) 0.1422(5) 0.9313(2)
C31 C 0.9942(6) 0.3369(5) 0.9783(3)
H39 H 1.0547 0.3575 1.0080
H40 H 0.9746 0.3955 0.9568
C32 C 1.0628(6) 0.2580(5) 0.9492(2)
C33 C 0.9417(6) 0.4328(5) 0.8188(3)
H41 H 0.9367 0.4596 0.8526
H42 H 0.9885 0.4813 0.8001
C34 C 1.0205(6) 0.3350(5) 0.8232(2)
N1 N 0.6775(5) 0.1878(4) 0.75526(19)
N2 N 0.7450(5) 0.0616(4) 0.96097(19)
N3 N 0.8679(5) 0.2984(4) 0.99453(18)
N4 N 0.8028(5) 0.4178(4) 0.79240(19)
O1 O 0.7548(4) 0.1433(3) 0.86089(15)
O2 O 0.7897(4) 0.3361(3) 0.89081(14)
O3 O 0.5493(4) 0.2962(3) 0.82192(16)
O4 O 0.3640(4) 0.2005(4) 0.81304(18)
O5 O 0.5867(4) 0.2252(3) 0.93692(16)
O6 O 0.3990(4) 0.1343(3) 0.9191(2)
O7 O 0.9968(4) 0.1807(3) 0.93427(16)
O8 O 1.1806(4) 0.2764(4) 0.94080(18)
O9 O 0.9571(4) 0.2541(3) 0.81372(16)
O10 O 1.1445(4) 0.3422(4) 0.83808(19)
O11 O 1.4043(4) 0.3579(4) 0.89533(19)
H43 H 1.344(2) 0.3963(18) 0.900(2)
H44 H 1.456(6) 0.338(6) 0.9202(18)
O12 O 1.1392(4) 0.1178(4) 0.85855(19)
H45 H 1.103(6) 0.120(7) 0.8858(14)
H46 H 1.089(6) 0.134(7) 0.8318(14)
Ni3_2 Ni 0.27211(10) 0.23731(8) 0.87737(4)
O4_2 O 1.3640(4) 0.2005(4) 0.81304(18)
O6_2 O 1.3990(4) 0.1343(3) 0.9191(2)
O13 O 1.2543(14) 0.5408(8) 0.8785(4)
H47 H 1.247(9) 0.486(9) 0.894(7)
H48 H 1.334(3) 0.563(5) 0.878(8)
loop_
_geom_bond_atom_site_label_1
_geom_bond_atom_site_label_2
_geom_bond_site_symmetry_1
_geom_bond_site_symmetry_2
Ni1 N1 1_555 1_555
Ni2 N2 1_555 1_555
Ni3 O8 1_555 1_555
C1 H1 1_555 1_555
H2 C1 1_555 1_555
H3 C1 1_555 1_555
C2 C1 1_555 1_555
C3 C2 1_555 1_555
H4 C3 1_555 1_555
C4 C3 1_555 1_555
C5 C4 1_555 1_555
C6 C5 1_555 1_555
C7 C2 1_555 1_555
H5 C7 1_555 1_555
C8 C6 1_555 1_555
H6 C8 1_555 1_555
H7 C8 1_555 1_555
C9 C4 1_555 1_555
H8 C9 1_555 1_555
H9 C9 1_555 1_555
C10 H10 1_555 1_555
H11 C10 1_555 1_555
C11 C10 1_555 1_555
H12 C11 1_555 1_555
H13 C11 1_555 1_555
C12 C11 1_555 1_555
H14 C12 1_555 1_555
H15 C12 1_555 1_555
C13 C12 1_555 1_555
H16 C13 1_555 1_555
H17 C13 1_555 1_555
C14 H18 1_555 1_555
H19 C14 1_555 1_555
C15 C14 1_555 1_555
H20 C15 1_555 1_555
H21 C15 1_555 1_555
C16 C15 1_555 1_555
H22 C16 1_555 1_555
H23 C16 1_555 1_555
C17 C16 1_555 1_555
H24 C17 1_555 1_555
H25 C17 1_555 1_555
C18 H26 1_555 1_555
H27 C18 1_555 1_555
C19 H28 1_555 1_555
H29 C19 1_555 1_555
C20 C19 1_555 1_555
C21 C20 1_555 1_555
C22 C18 1_555 1_555
C23 C22 1_555 1_555
H30 C23 1_555 1_555
C24 C23 1_555 1_555
C25 C20 1_555 1_555
H31 C25 1_555 1_555
C26 C24 1_555 1_555
H32 C26 1_555 1_555
H33 C26 1_555 1_555
H34 C26 1_555 1_555
C27 H35 1_555 1_555
H36 C27 1_555 1_555
C28 C27 1_555 1_555
C29 H37 1_555 1_555
H38 C29 1_555 1_555
C30 C29 1_555 1_555
C31 H39 1_555 1_555
H40 C31 1_555 1_555
C32 C31 1_555 1_555
C33 H41 1_555 1_555
H42 C33 1_555 1_555
C34 C33 1_555 1_555
N1 C8 1_555 1_555
N2 C9 1_555 1_555
N3 Ni2 1_555 1_555
N4 Ni1 1_555 1_555
O1 Ni1 1_555 1_555
O2 Ni1 1_555 1_555
O3 Ni1 1_555 1_555
O4 C28 1_555 1_555
O5 Ni2 1_555 1_555
O6 C30 1_555 1_555
O7 Ni2 1_555 1_555
O8 C32 1_555 1_555
O9 Ni1 1_555 1_555
O10 Ni3 1_555 1_555
O11 Ni3 1_555 1_555
H43 O11 1_555 1_555
H44 O11 1_555 1_555
O12 Ni3 1_555 1_555
H45 O12 1_555 1_555
H46 O12 1_555 1_555
O13 H47 1_555 1_555
H48 O13 1_555 1_555
Ni3_2 O4 1_555 1_555
O4_2 Ni3 1_555 1_555
O6_2 Ni3 1_555 1_555
Ni2 O1 1_555 1_555
Ni2 O2 1_555 1_555
C5 O1 1_555 1_555
C6 C7 1_555 1_555
C10 N1 1_555 1_555
C13 N4 1_555 1_555
C14 N2 1_555 1_555
C17 N3 1_555 1_555
C18 N3 1_555 1_555
C19 N4 1_555 1_555
C21 C22 1_555 1_555
C21 O2 1_555 1_555
C24 C25 1_555 1_555
C27 N1 1_555 1_555
C28 O3 1_555 1_555
C29 N2 1_555 1_555
C30 O5 1_555 1_555
C31 N3 1_555 1_555
C32 O7 1_555 1_555
C33 N4 1_555 1_555
C34 O9 1_555 1_555
C34 O10 1_555 1_555
O6 Ni3_2 1_555 1_555

#END
