
#######################################################################
#
#                 Cambridge Crystallographic Data Centre
#                                CCDC 
#
#######################################################################
#
# If this CIF has been generated from an entry in the Cambridge 
# Structural Database, then it will include bibliographic, chemical, 
# crystal, experimental, refinement or atomic coordinate data resulting 
# from the CCDC's data processing and validation procedures.
#
#######################################################################

data_SITWEZ
_symmetry_cell_setting           monoclinic
_symmetry_space_group_name_H-M   'P 21/n'
_symmetry_Int_Tables_number      14
_space_group_name_Hall           '-P 2yn'
loop_
_symmetry_equiv_pos_site_id
_symmetry_equiv_pos_as_xyz
1 x,y,z
2 1/2-x,1/2+y,1/2-z
3 -x,-y,-z
4 1/2+x,1/2-y,1/2+z
_cell_length_a                   9.2490(7)
_cell_length_b                   15.3574(11)
_cell_length_c                   14.4077(11)
_cell_angle_alpha                90
_cell_angle_beta                 100.360(1)
_cell_angle_gamma                90
_cell_volume                     2013.12
loop_
_atom_site_label
_atom_site_type_symbol
_atom_site_fract_x
_atom_site_fract_y
_atom_site_fract_z
Gd1 Gd 0.261695(12) 0.008268(7) 0.478959(8)
N1 N 0.3882(2) 0.11005(13) 0.82234(14)
N2 N 0.3008(2) 0.18112(14) 0.82027(15)
N3 N 0.4860(2) 0.29889(13) 0.52026(14)
N4 N 0.4409(3) 0.37653(13) 0.48092(15)
N5 N -0.0336(2) 0.28487(13) 0.62789(14)
N6 N -0.0846(2) 0.27470(13) 0.70997(15)
O1 O 0.37144(17) 0.07159(10) 0.63484(11)
O2 O 0.22287(17) -0.04010(10) 0.64094(12)
O3 O 0.32524(17) 0.15692(10) 0.44233(12)
O4 O 0.52705(17) 0.07853(10) 0.46342(12)
O5 O 0.07122(18) 0.08917(11) 0.51821(12)
O6 O -0.14363(17) 0.12988(10) 0.55173(11)
O7 O 0.07436(19) 0.03384(12) 0.33904(13)
O8 O 0.33723(19) -0.04343(13) 0.33858(13)
C1 C 0.3047(3) 0.02000(15) 0.68045(17)
C2 C 0.3226(3) 0.02883(16) 0.78701(18)
H1 H 0.2269 0.0236 0.8050
H2 H 0.3832 -0.0187 0.8164
C3 C 0.3956(3) 0.24623(17) 0.84540(18)
H3 H 0.3679 0.3039 0.8512
C4 C 0.5405(3) 0.21748(19) 0.86188(19)
H4 H 0.6248 0.2508 0.8800
C5 C 0.5324(3) 0.12994(18) 0.84584(18)
H5 H 0.6109 0.0914 0.8502
C6 C 0.4622(3) 0.15145(15) 0.45693(16)
C7 C 0.5543(3) 0.23374(15) 0.46998(18)
H6 H 0.6514 0.2203 0.5050
H7 H 0.5653 0.2564 0.4088
C8 C 0.3844(3) 0.41784(17) 0.54786(19)
H8 H 0.3446 0.4736 0.5412
C9 C 0.3925(3) 0.36728(16) 0.62859(18)
H9 H 0.3605 0.3817 0.6843
C10 C 0.4576(3) 0.29186(16) 0.60812(18)
H10 H 0.4787 0.2441 0.6479
C11 C -0.0095(3) 0.14105(15) 0.55257(16)
C12 C 0.0665(3) 0.22130(15) 0.60088(18)
H11 H 0.1345 0.2030 0.6568
H12 H 0.1235 0.2487 0.5586
C13 C -0.1807(3) 0.33887(16) 0.70988(19)
H13 H -0.2333 0.3488 0.7582
C14 C -0.1933(3) 0.38942(16) 0.62879(19)
H14 H -0.2533 0.4377 0.6128
C15 C -0.0980(3) 0.35259(15) 0.57770(18)
H15 H -0.0810 0.3710 0.5191
H16 H -0.009(5) 0.037(3) 0.348(3)
H17 H 0.073(5) 0.000(3) 0.297(4)
H18 H 0.411(5) -0.061(3) 0.338(3)
H19 H 0.273(4) -0.068(3) 0.294(3)
Gd1B Gd -0.261695(12) -0.008268(7) 0.521041(8)
Gd1B_2 Gd 0.738305(12) -0.008268(7) 0.521041(8)
O4B O 0.47295(17) -0.07853(10) 0.53658(12)
O6B O 0.14363(17) -0.12988(10) 0.44827(11)
O9 O 0.5993(2) 0.60267(12) 0.71724(13)
H20 H 0.583(5) 0.650(3) 0.732(3)
H21 H 0.582(5) 0.606(3) 0.659(3)
loop_
_geom_bond_atom_site_label_1
_geom_bond_atom_site_label_2
_geom_bond_site_symmetry_1
_geom_bond_site_symmetry_2
Gd1 O1 1_555 1_555
N1 N2 1_555 1_555
N2 C3 1_555 1_555
N3 N4 1_555 1_555
N4 C8 1_555 1_555
N5 N6 1_555 1_555
N6 C13 1_555 1_555
O1 C1 1_555 1_555
O2 Gd1 1_555 1_555
O3 Gd1 1_555 1_555
O4 Gd1 1_555 1_555
O5 Gd1 1_555 1_555
O6 C11 1_555 1_555
O7 Gd1 1_555 1_555
O8 Gd1 1_555 1_555
C1 O2 1_555 1_555
C2 N1 1_555 1_555
H1 C2 1_555 1_555
H2 C2 1_555 1_555
C3 H3 1_555 1_555
C4 C3 1_555 1_555
H4 C4 1_555 1_555
C5 N1 1_555 1_555
H5 C5 1_555 1_555
C6 O3 1_555 1_555
C7 N3 1_555 1_555
H6 C7 1_555 1_555
H7 C7 1_555 1_555
C8 H8 1_555 1_555
C9 C8 1_555 1_555
H9 C9 1_555 1_555
C10 N3 1_555 1_555
H10 C10 1_555 1_555
C11 O5 1_555 1_555
C12 N5 1_555 1_555
H11 C12 1_555 1_555
H12 C12 1_555 1_555
C13 H13 1_555 1_555
C14 C13 1_555 1_555
H14 C14 1_555 1_555
C15 N5 1_555 1_555
H15 C15 1_555 1_555
H16 O7 1_555 1_555
H17 O7 1_555 1_555
H18 O8 1_555 1_555
H19 O8 1_555 1_555
O9 H20 1_555 1_555
H21 O9 1_555 1_555
Gd1B O6 1_555 1_555
Gd1B_2 O4 1_555 1_555
O4B Gd1 1_555 1_555
O6B Gd1 1_555 1_555
O4 C6 1_555 1_555
C1 C2 1_555 1_555
C4 C5 1_555 1_555
C6 C7 1_555 1_555
C9 C10 1_555 1_555
C11 C12 1_555 1_555
C14 C15 1_555 1_555
Gd1B_2 O4B 1_555 1_555

#END
