
#######################################################################
#
#                 Cambridge Crystallographic Data Centre
#                                CCDC 
#
#######################################################################
#
# If this CIF has been generated from an entry in the Cambridge 
# Structural Database, then it will include bibliographic, chemical, 
# crystal, experimental, refinement or atomic coordinate data resulting 
# from the CCDC's data processing and validation procedures.
#
#######################################################################

data_SITWIC
_symmetry_cell_setting           monoclinic
_symmetry_space_group_name_H-M   'P 21/c'
_symmetry_Int_Tables_number      14
_space_group_name_Hall           '-P 2ybc'
loop_
_symmetry_equiv_pos_site_id
_symmetry_equiv_pos_as_xyz
1 x,y,z
2 -x,1/2+y,1/2-z
3 -x,-y,-z
4 x,1/2-y,1/2+z
_cell_length_a                   9.79800(10)
_cell_length_b                   25.8465(4)
_cell_length_c                   7.33360(10)
_cell_angle_alpha                90
_cell_angle_beta                 109.6790(10)
_cell_angle_gamma                90
_cell_volume                     1748.72
loop_
_atom_site_label
_atom_site_type_symbol
_atom_site_fract_x
_atom_site_fract_y
_atom_site_fract_z
Nd1 Nd 0.55177(4) 0.609378(16) 0.31261(6)
O1 O 0.4060(6) 0.6909(2) 0.1792(9)
C1 C 0.3101(8) 0.6670(3) 0.0476(11)
O2 O 0.3207(7) 0.6186(2) 0.0269(9)
C2 C 0.1808(8) 0.6947(3) -0.0822(11)
O3 O -0.1743(7) 0.6201(2) -0.5100(10)
C3 C 0.1731(10) 0.7492(3) -0.0791(13)
H1 H 0.2535 0.7684 0.0012
O4 O -0.3179(6) 0.6817(3) -0.4761(10)
C4 C 0.0495(9) 0.7750(4) -0.1918(12)
H2 H 0.0469 0.8117 -0.1924
O5 O 0.3914(7) 0.5320(2) 0.2911(9)
C5 C -0.0709(9) 0.7469(4) -0.3044(12)
H3 H -0.1577 0.7643 -0.3763
O6 O 0.3574(7) 0.4562(3) 0.4213(10)
C6 C -0.0634(8) 0.6930(4) -0.3108(11)
C7 C 0.0631(8) 0.6671(3) -0.2020(11)
H4 H 0.0686 0.6305 -0.2101
C8 C -0.1930(9) 0.6633(3) -0.4406(12)
C9 C 0.4277(9) 0.4964(3) 0.4175(13)
O7 O 0.4078(8) 0.6286(3) 0.5226(11)
H5 H 0.4524 0.6554 0.5785
H6 H 0.3555 0.6146 0.5772
O8 O 0.6392(8) 0.5422(3) 0.1457(10)
H7 H 0.6390 0.5097 0.1632
H8 H 0.6823 0.5490 0.0656
O9 O 0.6487(7) 0.6515(3) 0.0767(10)
H9 H 0.7402 0.6536 0.1085
H10 H 0.6102 0.6801 0.0294
Nd1_2 Nd 1.55177(4) 0.609378(16) 1.31261(6)
Nd1_3 Nd -0.44823(4) 0.609378(16) -0.68739(6)
Nd1B Nd 0.44823(4) 0.390622(16) 0.68739(6)
O1_2 O 1.4060(6) 0.6909(2) 1.1792(9)
C1_2 C 1.3101(8) 0.6670(3) 1.0476(11)
O2_2 O 1.3207(7) 0.6186(2) 1.0269(9)
C2_2 C 1.1808(8) 0.6947(3) 0.9178(11)
O3_2 O 0.8257(7) 0.6201(2) 0.4900(10)
O3_3 O 1.8257(7) 0.6201(2) 1.4900(10)
C3_2 C 1.1731(10) 0.7492(3) 0.9209(13)
H1_2 H 1.2535 0.7684 1.0012
O4_2 O 0.6821(6) 0.6817(3) 0.5239(10)
O4_3 O 1.6821(6) 0.6817(3) 1.5239(10)
C4_2 C 1.0495(9) 0.7750(4) 0.8082(12)
H2_2 H 1.0469 0.8117 0.8076
O5B O 0.6086(7) 0.4680(2) 0.7089(9)
O5_2 O 1.3914(7) 0.5320(2) 1.2911(9)
C5_2 C 0.9291(9) 0.7469(4) 0.6956(12)
H3_2 H 0.8423 0.7643 0.6237
O6B O 0.6426(7) 0.5438(3) 0.5787(10)
O6B_2 O 1.6426(7) 0.5438(3) 1.5787(10)
C6_2 C 0.9366(8) 0.6930(4) 0.6892(11)
C7_2 C 1.0631(8) 0.6671(3) 0.7980(11)
H4_2 H 1.0686 0.6305 0.7899
C8_2 C 0.8070(9) 0.6633(3) 0.5594(12)
C9B C 0.5723(9) 0.5036(3) 0.5825(13)
O7_2 O 1.4078(8) 0.6286(3) 1.5226(11)
H5_2 H 1.4524 0.6554 1.5785
H6_2 H 1.3555 0.6146 1.5772
O8_2 O 1.6392(8) 0.5422(3) 1.1457(10)
H7_2 H 1.6390 0.5097 1.1632
H8_2 H 1.6823 0.5490 1.0656
O9_2 O 1.6487(7) 0.6515(3) 1.0767(10)
H9_2 H 1.7402 0.6536 1.1085
H10_2 H 1.6102 0.6801 1.0294
O10 O 0.3048(8) 0.5575(3) 0.7200(10)
H11 H 0.3081 0.5805 0.8039
H12 H 0.2190 0.5551 0.6401
O11 O 0.5277(8) 0.7125(3) 0.7564(10)
H13 H 0.5179 0.7449 0.7376
H14 H 0.6134 0.7058 0.8299
O12 O 0.0313(9) 0.5511(3) 0.4636(13)
H15 H 0.0166 0.5584 0.3453
H16 H 0.0128 0.5194 0.4814
O13 O 0.8031(8) 0.5844(3) -0.0693(11)
H17 H 0.7843 0.6006 0.0176
H18 H 0.8393 0.5540 -0.0338
O14 O 0.0757(9) 0.5449(4) 0.1061(13)
H19 H 0.0165 0.5641 0.0197
H20 H 0.0468 0.5127 0.0920
loop_
_geom_bond_atom_site_label_1
_geom_bond_atom_site_label_2
_geom_bond_site_symmetry_1
_geom_bond_site_symmetry_2
Nd1 O1 1_555 1_555
O1 C1 1_555 1_555
C1 O2 1_555 1_555
O2 Nd1 1_555 1_555
C2 C1 1_555 1_555
O3 C8 1_555 1_555
C3 C2 1_555 1_555
H1 C3 1_555 1_555
O4 C8 1_555 1_555
C4 C3 1_555 1_555
H2 C4 1_555 1_555
O5 Nd1 1_555 1_555
C5 C4 1_555 1_555
H3 C5 1_555 1_555
O6 C9 1_555 1_555
C6 C5 1_555 1_555
C7 C2 1_555 1_555
H4 C7 1_555 1_555
C8 C6 1_555 1_555
C9 O5 1_555 1_555
O7 Nd1 1_555 1_555
H5 O7 1_555 1_555
H6 O7 1_555 1_555
O8 Nd1 1_555 1_555
H7 O8 1_555 1_555
H8 O8 1_555 1_555
O9 Nd1 1_555 1_555
H9 O9 1_555 1_555
H10 O9 1_555 1_555
O10 H11 1_555 1_555
H12 O10 1_555 1_555
O11 H13 1_555 1_555
H14 O11 1_555 1_555
O12 H15 1_555 1_555
H16 O12 1_555 1_555
O13 H17 1_555 1_555
H18 O13 1_555 1_555
O14 H19 1_555 1_555
H20 O14 1_555 1_555
Nd1_2 O1_2 1_555 1_555
Nd1_3 O3 1_555 1_555
Nd1B O6 1_555 1_555
O1_2 C1_2 1_555 1_555
C1_2 O2_2 1_555 1_555
O2_2 Nd1_2 1_555 1_555
C2_2 C1_2 1_555 1_555
O3_2 Nd1 1_555 1_555
O3_3 Nd1_2 1_555 1_555
C3_2 C2_2 1_555 1_555
H1_2 C3_2 1_555 1_555
O4_2 Nd1 1_555 1_555
O4_3 Nd1_2 1_555 1_555
C4_2 C3_2 1_555 1_555
H2_2 C4_2 1_555 1_555
O5B Nd1B 1_555 1_555
O5_2 Nd1_2 1_555 1_555
C5_2 C4_2 1_555 1_555
H3_2 C5_2 1_555 1_555
O6B Nd1 1_555 1_555
O6B_2 Nd1_2 1_555 1_555
C6_2 C5_2 1_555 1_555
C7_2 C2_2 1_555 1_555
H4_2 C7_2 1_555 1_555
C8_2 O3_2 1_555 1_555
C9B C9 1_555 1_555
O7_2 Nd1_2 1_555 1_555
H5_2 O7_2 1_555 1_555
H6_2 O7_2 1_555 1_555
O8_2 Nd1_2 1_555 1_555
H7_2 O8_2 1_555 1_555
H8_2 O8_2 1_555 1_555
O9_2 Nd1_2 1_555 1_555
H9_2 O9_2 1_555 1_555
H10_2 O9_2 1_555 1_555
O4 Nd1_3 1_555 1_555
C6 C7 1_555 1_555
O4_2 C8_2 1_555 1_555
O5B C9B 1_555 1_555
O6B C9B 1_555 1_555
C6_2 C7_2 1_555 1_555
C6_2 C8_2 1_555 1_555

#END
