
#######################################################################
#
#                 Cambridge Crystallographic Data Centre
#                                CCDC 
#
#######################################################################
#
# If this CIF has been generated from an entry in the Cambridge 
# Structural Database, then it will include bibliographic, chemical, 
# crystal, experimental, refinement or atomic coordinate data resulting 
# from the CCDC's data processing and validation procedures.
#
#######################################################################

data_SITWUP
_symmetry_cell_setting           monoclinic
_symmetry_space_group_name_H-M   'P 21/n'
_symmetry_Int_Tables_number      14
_space_group_name_Hall           '-P 2yn'
loop_
_symmetry_equiv_pos_site_id
_symmetry_equiv_pos_as_xyz
1 x,y,z
2 1/2-x,1/2+y,1/2-z
3 -x,-y,-z
4 1/2+x,1/2-y,1/2+z
_cell_length_a                   9.4451(7)
_cell_length_b                   15.0869(12)
_cell_length_c                   14.3477(11)
_cell_angle_alpha                90
_cell_angle_beta                 102.482(1)
_cell_angle_gamma                90
_cell_volume                     1996.18
loop_
_atom_site_label
_atom_site_type_symbol
_atom_site_fract_x
_atom_site_fract_y
_atom_site_fract_z
Yb1 Yb 0.247880(15) 0.006267(9) 0.483700(11)
N1 N 0.3991(3) 0.10816(19) 0.8270(2)
N2 N 0.3123(3) 0.1801(2) 0.8249(2)
N3 N 0.4780(3) 0.29698(18) 0.5194(2)
N4 N 0.4401(3) 0.37784(19) 0.4823(2)
N5 N -0.0370(3) 0.28601(19) 0.6324(2)
N6 N -0.0843(3) 0.27362(19) 0.7143(2)
O1 O 0.3697(2) 0.06800(15) 0.63680(17)
O2 O 0.2126(2) -0.03851(16) 0.64251(17)
O3 O 0.3447(2) 0.13931(15) 0.45115(17)
O4 O 0.5590(3) 0.07816(15) 0.45586(18)
O5 O 0.0762(2) 0.09405(16) 0.51818(17)
O6 O -0.1353(2) 0.12780(15) 0.55237(17)
O7 O 0.0751(2) 0.03573(16) 0.34180(17)
O8 O 0.3358(3) -0.04173(17) 0.35046(18)
C1 C 0.3034(4) 0.0183(2) 0.6832(3)
C2 C 0.3322(4) 0.0256(2) 0.7909(3)
H1 H 0.2411 0.0194 0.8112
H2 H 0.3946 -0.0230 0.8186
C3 C 0.4055(4) 0.2463(2) 0.8505(3)
H3 H 0.3776 0.3048 0.8566
C4 C 0.5501(4) 0.2183(3) 0.8673(3)
H4 H 0.6333 0.2527 0.8853
C5 C 0.5410(4) 0.1285(3) 0.8512(3)
H5 H 0.6183 0.0893 0.8561
C6 C 0.4797(4) 0.1441(2) 0.4584(2)
C7 C 0.5529(4) 0.2337(2) 0.4700(3)
H6 H 0.6519 0.2268 0.5056
H7 H 0.5562 0.2570 0.4075
C8 C 0.3847(4) 0.4185(2) 0.5497(3)
H8 H 0.3482 0.4760 0.5444
C9 C 0.3887(4) 0.3639(2) 0.6285(3)
H9 H 0.3568 0.3769 0.6839
C10 C 0.4503(4) 0.2864(2) 0.6060(3)
H10 H 0.4692 0.2360 0.6440
C11 C -0.0043(4) 0.1429(2) 0.5544(2)
C12 C 0.0664(4) 0.2245(2) 0.6072(3)
H11 H 0.1333 0.2058 0.6650
H12 H 0.1221 0.2549 0.5675
C13 C -0.1851(4) 0.3361(2) 0.7118(3)
H13 H -0.2374 0.3440 0.7591
C14 C -0.2028(4) 0.3882(2) 0.6301(3)
H14 H -0.2654 0.4359 0.6130
C15 C -0.1071(4) 0.3533(2) 0.5804(3)
H15 H -0.0932 0.3726 0.5215
Yb1B Yb -0.247880(15) -0.006267(9) 0.516300(11)
Yb1B_2 Yb 0.752120(15) -0.006267(9) 0.516300(11)
O4B O 0.4410(3) -0.07816(15) 0.54414(18)
O6B O 0.1353(2) -0.12780(15) 0.44763(17)
O9 O 0.6027(3) 0.59849(16) 0.71579(17)
loop_
_geom_bond_atom_site_label_1
_geom_bond_atom_site_label_2
_geom_bond_site_symmetry_1
_geom_bond_site_symmetry_2
Yb1 O1 1_555 1_555
N1 N2 1_555 1_555
N2 C3 1_555 1_555
N3 N4 1_555 1_555
N4 C8 1_555 1_555
N5 N6 1_555 1_555
N6 C13 1_555 1_555
O1 C1 1_555 1_555
O2 Yb1 1_555 1_555
O3 Yb1 1_555 1_555
O4 C6 1_555 1_555
O5 Yb1 1_555 1_555
O6 C11 1_555 1_555
O7 Yb1 1_555 1_555
O8 Yb1 1_555 1_555
C1 O2 1_555 1_555
C2 N1 1_555 1_555
H1 C2 1_555 1_555
H2 C2 1_555 1_555
C3 H3 1_555 1_555
C4 C3 1_555 1_555
H4 C4 1_555 1_555
C5 N1 1_555 1_555
H5 C5 1_555 1_555
C6 O3 1_555 1_555
C7 N3 1_555 1_555
H6 C7 1_555 1_555
H7 C7 1_555 1_555
C8 H8 1_555 1_555
C9 C8 1_555 1_555
H9 C9 1_555 1_555
C10 N3 1_555 1_555
H10 C10 1_555 1_555
C11 O5 1_555 1_555
C12 N5 1_555 1_555
H11 C12 1_555 1_555
H12 C12 1_555 1_555
C13 H13 1_555 1_555
C14 C13 1_555 1_555
H14 C14 1_555 1_555
C15 N5 1_555 1_555
H15 C15 1_555 1_555
Yb1B O6 1_555 1_555
Yb1B_2 O4 1_555 1_555
O4B Yb1 1_555 1_555
O6B Yb1 1_555 1_555
C1 C2 1_555 1_555
C4 C5 1_555 1_555
C6 C7 1_555 1_555
C9 C10 1_555 1_555
C11 C12 1_555 1_555
C14 C15 1_555 1_555

#END
