
#######################################################################
#
#                 Cambridge Crystallographic Data Centre
#                                CCDC 
#
#######################################################################
#
# If this CIF has been generated from an entry in the Cambridge 
# Structural Database, then it will include bibliographic, chemical, 
# crystal, experimental, refinement or atomic coordinate data resulting 
# from the CCDC's data processing and validation procedures.
#
#######################################################################

data_SITXEA
_symmetry_cell_setting           monoclinic
_symmetry_space_group_name_H-M   'P 21/c'
_symmetry_Int_Tables_number      14
_space_group_name_Hall           '-P 2ybc'
loop_
_symmetry_equiv_pos_site_id
_symmetry_equiv_pos_as_xyz
1 x,y,z
2 -x,1/2+y,1/2-z
3 -x,-y,-z
4 x,1/2-y,1/2+z
_cell_length_a                   11.0734(8)
_cell_length_b                   13.8862(11)
_cell_length_c                   8.7857(7)
_cell_angle_alpha                90
_cell_angle_beta                 112.267(1)
_cell_angle_gamma                90
_cell_volume                     1250.21
loop_
_atom_site_label
_atom_site_type_symbol
_atom_site_fract_x
_atom_site_fract_y
_atom_site_fract_z
Ho1 Ho 0.202466(8) 0.118989(6) 0.804405(10)
N1 N 0.38509(16) 0.05500(12) 1.1207(2)
N2 N -0.00383(17) -0.01766(12) 0.7787(2)
N3 N -0.21118(16) 0.23153(12) 0.8347(2)
N4 N -0.27399(17) 0.30779(12) 0.7412(2)
O1 O 0.04154(14) 0.19650(10) 0.86126(17)
O2 O 0.11653(13) 0.30548(10) 1.05937(16)
O3 O 0.31567(15) 0.13115(10) 1.10438(18)
O4 O 0.36935(14) 0.01003(10) 0.99000(17)
O5 O 0.46122(14) 0.02845(10) 1.25568(17)
O6 O 0.10176(14) -0.00970(10) 0.90329(17)
O7 O -0.01666(14) 0.03896(10) 0.65883(16)
O8 O -0.08725(15) -0.07612(10) 0.77213(18)
O9 O 0.28471(15) 0.28162(10) 0.88031(18)
O10 O 0.39857(15) 0.14598(12) 0.75319(19)
O11 O 0.22453(16) -0.00865(10) 0.64395(19)
C1 C 0.02783(19) 0.25054(13) 0.9674(2)
C2 C -0.10250(19) 0.24763(14) 0.9882(2)
H1 H -0.1003 0.1966 1.0646
H2 H -0.1153 0.3081 1.0352
C3 C -0.3628(2) 0.26898(16) 0.6066(3)
H3 H -0.4212 0.3042 0.5200
C4 C -0.3567(2) 0.16834(16) 0.6124(3)
H4 H -0.4082 0.1251 0.5338
C5 C -0.2579(2) 0.14766(15) 0.7598(2)
H5 H -0.2287 0.0865 0.8004
H6 H 0.302(4) 0.312(3) 0.821(5)
H7 H 0.244(4) 0.311(3) 0.913(5)
H8 H 0.401(4) 0.185(3) 0.674(5)
H9 H 0.439(4) 0.103(3) 0.744(5)
H10 H 0.234(5) -0.051(3) 0.671(5)
H11 H 0.165(4) -0.012(3) 0.541(5)
Ho1C Ho 0.202466(8) 0.381011(6) 1.304405(10)
O2C O 0.11653(13) 0.19452(10) 0.55937(16)
loop_
_geom_bond_atom_site_label_1
_geom_bond_atom_site_label_2
_geom_bond_site_symmetry_1
_geom_bond_site_symmetry_2
Ho1 O1 1_555 1_555
N1 O3 1_555 1_555
N2 O6 1_555 1_555
N3 N4 1_555 1_555
N4 C3 1_555 1_555
O1 C1 1_555 1_555
O2 C1 1_555 1_555
O3 Ho1 1_555 1_555
O4 Ho1 1_555 1_555
O5 N1 1_555 1_555
O6 Ho1 1_555 1_555
O7 Ho1 1_555 1_555
O8 N2 1_555 1_555
O9 Ho1 1_555 1_555
O10 Ho1 1_555 1_555
O11 Ho1 1_555 1_555
C1 C2 1_555 1_555
C2 N3 1_555 1_555
H1 C2 1_555 1_555
H2 C2 1_555 1_555
C3 H3 1_555 1_555
C4 C3 1_555 1_555
H4 C4 1_555 1_555
C5 N3 1_555 1_555
H5 C5 1_555 1_555
H6 O9 1_555 1_555
H7 O9 1_555 1_555
H8 O10 1_555 1_555
H9 O10 1_555 1_555
H10 O11 1_555 1_555
H11 O11 1_555 1_555
Ho1C O2 1_555 1_555
O2C Ho1 1_555 1_555
N1 O4 1_555 1_555
N2 O7 1_555 1_555
C4 C5 1_555 1_555

#END
