
#######################################################################
#
#                 Cambridge Crystallographic Data Centre
#                                CCDC 
#
#######################################################################
#
# If this CIF has been generated from an entry in the Cambridge 
# Structural Database, then it will include bibliographic, chemical, 
# crystal, experimental, refinement or atomic coordinate data resulting 
# from the CCDC's data processing and validation procedures.
#
#######################################################################

data_SITXID
_symmetry_cell_setting           triclinic
_symmetry_space_group_name_H-M   'P -1'
_symmetry_Int_Tables_number      2
_space_group_name_Hall           '-P 1'
loop_
_symmetry_equiv_pos_site_id
_symmetry_equiv_pos_as_xyz
1 x,y,z
2 -x,-y,-z
_cell_length_a                   10.8584(13)
_cell_length_b                   12.9702(15)
_cell_length_c                   16.2021(19)
_cell_angle_alpha                109.886(2)
_cell_angle_beta                 108.769(2)
_cell_angle_gamma                93.129(2)
_cell_volume                     1996.89
loop_
_atom_site_label
_atom_site_type_symbol
_atom_site_fract_x
_atom_site_fract_y
_atom_site_fract_z
Na1 Na 0.77957(15) 0.52155(15) 0.41783(11)
Na2 Na 0.93634(15) 0.56495(15) 0.61909(11)
Na3 Na 1.35469(17) 0.57110(16) 0.45209(13)
O1 O 0.9914(3) 0.6384(3) 0.5195(2)
O2 O 1.1823(3) 0.6068(3) 0.50587(19)
O3 O 0.8568(3) 0.4572(3) 0.29358(19)
O4 O 0.8952(3) 0.4600(4) 0.1685(2)
O5 O 0.8719(3) 0.5069(3) 0.7275(2)
O6 O 0.6629(3) 0.4516(3) 0.6999(2)
O7 O 0.5486(3) 0.6652(3) 0.5730(2)
O8 O 0.7289(3) 0.6049(3) 0.5591(2)
O9 O 0.5554(3) 0.4455(4) 0.3355(3)
C1 C 1.0999(4) 0.6679(3) 0.51644(19)
C2 C 0.9702(13) 0.8763(12) 0.3112(8)
H1 H 0.9622 0.9503 0.3089
H2 H 0.8827 0.8357 0.2976
H3 H 1.0064 0.8348 0.2642
C3 C 1.0611(14) 0.8888(9) 0.4076(8)
H4 H 1.1507 0.9236 0.4174
H5 H 1.0312 0.9415 0.4545
C4 C 1.0714(10) 0.7915(7) 0.4267(6)
H6 H 1.1224 0.7492 0.3902
H7 H 0.9806 0.7471 0.3980
C5 C 1.1297(6) 0.7882(5) 0.5246(5)
H8 H 1.0681 0.8242 0.5552
C6 C 1.2546(10) 0.8495(8) 0.5912(6)
H9 H 1.2604 0.9271 0.5938
H10 H 1.3233 0.8177 0.5679
C7 C 1.2870(8) 0.8534(8) 0.6889(6)
H11 H 1.2835 0.7767 0.6883
H12 H 1.2212 0.8873 0.7147
C8 C 1.4258(10) 0.9223(11) 0.7513(7)
H13 H 1.4458 0.9262 0.8158
H14 H 1.4293 0.9978 0.7509
H15 H 1.4910 0.8870 0.7268
C9 C 0.8177(4) 0.4505(2) 0.2120(3)
C10 C 0.6252(10) 0.1181(7) 0.0013(7)
H16 H 0.6501 0.0553 0.0195
H17 H 0.5289 0.1051 -0.0300
H18 H 0.6680 0.1250 -0.0418
C11 C 0.6690(8) 0.2237(6) 0.0876(5)
H19 H 0.7658 0.2346 0.1202
H20 H 0.6260 0.2158 0.1311
C12 C 0.6364(6) 0.3248(5) 0.0660(4)
H21 H 0.6849 0.3359 0.0265
H22 H 0.5405 0.3114 0.0291
C13 C 0.6710(4) 0.4297(5) 0.1530(3)
H23 H 0.6192 0.4184 0.1913
C14 C 0.6356(5) 0.5310(5) 0.1287(4)
H24 H 0.5409 0.5137 0.0881
H25 H 0.6877 0.5435 0.0917
C15 C 0.6595(7) 0.6357(6) 0.2112(5)
H26 H 0.6054 0.6244 0.2474
H27 H 0.7537 0.6526 0.2528
C16 C 0.6262(8) 0.7360(8) 0.1841(6)
H28 H 0.6436 0.8024 0.2412
H29 H 0.6810 0.7491 0.1497
H30 H 0.5325 0.7207 0.1440
C17 C 0.7783(4) 0.4887(3) 0.7550(3)
C18 C 0.8524(11) 0.2293(9) 0.8790(8)
H31 H 0.9090 0.1779 0.8583
H32 H 0.7602 0.1901 0.8504
H33 H 0.8803 0.2569 0.9477
C19 C 0.8639(10) 0.3251(7) 0.8492(6)
H34 H 0.8349 0.2957 0.7797
H35 H 0.9584 0.3604 0.8750
C20 C 0.7867(8) 0.4128(6) 0.8787(5)
H36 H 0.6913 0.3802 0.8456
H37 H 0.8060 0.4346 0.9470
C21 C 0.8129(5) 0.5146(5) 0.8605(4)
H38 H 0.9102 0.5439 0.8921
C22 C 0.7448(7) 0.6053(6) 0.9026(4)
H39 H 0.6480 0.5776 0.8726
H40 H 0.7699 0.6190 0.9704
C23 C 0.7726(8) 0.7100(7) 0.8941(6)
H41 H 0.7362 0.6989 0.8266
H42 H 0.8698 0.7334 0.9165
C24 C 0.7165(11) 0.8039(9) 0.9485(8)
H43 H 0.7393 0.8720 0.9389
H44 H 0.7541 0.8174 1.0157
H45 H 0.6200 0.7826 0.9258
C25 C 0.6627(4) 0.6805(4) 0.57316(19)
C26 C 0.4858(8) 0.8544(7) 0.3840(6)
H46 H 0.4598 0.8142 0.3159
H47 H 0.4081 0.8503 0.4019
H48 H 0.5225 0.9326 0.4008
C27 C 0.5893(7) 0.8018(6) 0.4355(5)
H49 H 0.6657 0.8043 0.4150
H50 H 0.5516 0.7223 0.4162
C28 C 0.6385(7) 0.8546(5) 0.5401(5)
H51 H 0.5611 0.8607 0.5599
H52 H 0.6856 0.9314 0.5595
C29 C 0.7272(6) 0.7974(5) 0.5915(4)
H53 H 0.7990 0.7866 0.5650
C30 C 0.7966(7) 0.8646(5) 0.6956(5)
H54 H 0.7296 0.8678 0.7254
H55 H 0.8263 0.9418 0.7029
C31 C 0.9080(8) 0.8304(6) 0.7492(5)
H56 H 0.8769 0.7586 0.7514
H57 H 0.9711 0.8172 0.7158
C32 C 0.9819(9) 0.9136(8) 0.8504(6)
H58 H 1.0564 0.8839 0.8814
H59 H 1.0152 0.9848 0.8493
H60 H 0.9215 0.9255 0.8851
H61 H 0.490(8) 0.471(9) 0.311(8)
H62 H 0.512(10) 0.391(7) 0.338(8)
H63 H 1.011(3) 0.451(9) 0.199(7)
Na1A Na 1.22043(15) 0.47845(15) 0.58217(11)
Na2A Na 1.06366(15) 0.43505(15) 0.38091(11)
Na3A Na 0.64531(17) 0.42890(16) 0.54791(13)
Na3_2 Na 0.35469(17) 0.57110(16) 0.45209(13)
O2A O 0.8177(3) 0.3932(3) 0.49413(19)
O3A O 1.1432(3) 0.5428(3) 0.70642(19)
O6A O 1.3371(3) 0.5484(3) 0.3001(2)
O7_2 O 1.5486(3) 0.6652(3) 0.5730(2)
O8A O 1.2711(3) 0.3951(3) 0.4409(2)
loop_
_geom_bond_atom_site_label_1
_geom_bond_atom_site_label_2
_geom_bond_site_symmetry_1
_geom_bond_site_symmetry_2
Na1 O1 1_555 1_555
Na2 O1 1_555 1_555
Na3 O2 1_555 1_555
O1 C1 1_555 1_555
O2 C1 1_555 1_555
O3 Na1 1_555 1_555
O4 C9 1_555 1_555
O5 Na2 1_555 1_555
O6 C17 1_555 1_555
O7 C25 1_555 1_555
O8 Na1 1_555 1_555
O9 Na1 1_555 1_555
C1 C5 1_555 1_555
C2 H1 1_555 1_555
H2 C2 1_555 1_555
H3 C2 1_555 1_555
C3 C2 1_555 1_555
H4 C3 1_555 1_555
H5 C3 1_555 1_555
C4 C3 1_555 1_555
H6 C4 1_555 1_555
H7 C4 1_555 1_555
C5 C4 1_555 1_555
H8 C5 1_555 1_555
C6 C5 1_555 1_555
H9 C6 1_555 1_555
H10 C6 1_555 1_555
C7 C6 1_555 1_555
H11 C7 1_555 1_555
H12 C7 1_555 1_555
C8 C7 1_555 1_555
H13 C8 1_555 1_555
H14 C8 1_555 1_555
H15 C8 1_555 1_555
C9 O3 1_555 1_555
C10 H16 1_555 1_555
H17 C10 1_555 1_555
H18 C10 1_555 1_555
C11 C10 1_555 1_555
H19 C11 1_555 1_555
H20 C11 1_555 1_555
C12 C11 1_555 1_555
H21 C12 1_555 1_555
H22 C12 1_555 1_555
C13 C9 1_555 1_555
H23 C13 1_555 1_555
C14 C13 1_555 1_555
H24 C14 1_555 1_555
H25 C14 1_555 1_555
C15 C14 1_555 1_555
H26 C15 1_555 1_555
H27 C15 1_555 1_555
C16 C15 1_555 1_555
H28 C16 1_555 1_555
H29 C16 1_555 1_555
H30 C16 1_555 1_555
C17 O5 1_555 1_555
C18 H31 1_555 1_555
H32 C18 1_555 1_555
H33 C18 1_555 1_555
C19 C18 1_555 1_555
H34 C19 1_555 1_555
H35 C19 1_555 1_555
C20 C19 1_555 1_555
H36 C20 1_555 1_555
H37 C20 1_555 1_555
C21 C17 1_555 1_555
H38 C21 1_555 1_555
C22 C21 1_555 1_555
H39 C22 1_555 1_555
H40 C22 1_555 1_555
C23 C22 1_555 1_555
H41 C23 1_555 1_555
H42 C23 1_555 1_555
C24 C23 1_555 1_555
H43 C24 1_555 1_555
H44 C24 1_555 1_555
H45 C24 1_555 1_555
C25 O8 1_555 1_555
C26 H46 1_555 1_555
H47 C26 1_555 1_555
H48 C26 1_555 1_555
C27 C26 1_555 1_555
H49 C27 1_555 1_555
H50 C27 1_555 1_555
C28 C27 1_555 1_555
H51 C28 1_555 1_555
H52 C28 1_555 1_555
C29 C25 1_555 1_555
H53 C29 1_555 1_555
C30 C29 1_555 1_555
H54 C30 1_555 1_555
H55 C30 1_555 1_555
C31 C30 1_555 1_555
H56 C31 1_555 1_555
H57 C31 1_555 1_555
C32 C31 1_555 1_555
H58 C32 1_555 1_555
H59 C32 1_555 1_555
H60 C32 1_555 1_555
H61 O9 1_555 1_555
H62 O9 1_555 1_555
H63 O4 1_555 1_555
Na1A O2 1_555 1_555
Na2A O2 1_555 1_555
Na3A O6 1_555 1_555
Na3_2 O7 1_555 1_555
O2A Na1 1_555 1_555
O3A Na2 1_555 1_555
O6A Na3 1_555 1_555
O7_2 Na3 1_555 1_555
O8A Na3 1_555 1_555
Na2 O8 1_555 1_555
Na2 O2A 1_555 1_555
O3 Na2A 1_555 1_555
O8 Na3A 1_555 1_555
C12 C13 1_555 1_555
C20 C21 1_555 1_555
C28 C29 1_555 1_555
Na1A O3A 1_555 1_555
Na1A O8A 1_555 1_555
Na2A O8A 1_555 1_555
Na3A O2A 1_555 1_555

#END
