
#######################################################################
#
#                 Cambridge Crystallographic Data Centre
#                                CCDC 
#
#######################################################################
#
# If this CIF has been generated from an entry in the Cambridge 
# Structural Database, then it will include bibliographic, chemical, 
# crystal, experimental, refinement or atomic coordinate data resulting 
# from the CCDC's data processing and validation procedures.
#
#######################################################################

data_SITXAW
_symmetry_cell_setting           monoclinic
_symmetry_space_group_name_H-M   'P 21/n'
_symmetry_Int_Tables_number      14
_space_group_name_Hall           '-P 2yn'
loop_
_symmetry_equiv_pos_site_id
_symmetry_equiv_pos_as_xyz
1 x,y,z
2 1/2-x,1/2+y,1/2-z
3 -x,-y,-z
4 1/2+x,1/2-y,1/2+z
_cell_length_a                   9.4740(8)
_cell_length_b                   15.0368(13)
_cell_length_c                   14.3392(12)
_cell_angle_alpha                90
_cell_angle_beta                 102.857(1)
_cell_angle_gamma                90
_cell_volume                     1991.53
loop_
_atom_site_label
_atom_site_type_symbol
_atom_site_fract_x
_atom_site_fract_y
_atom_site_fract_z
Lu1 Lu 0.246868(11) 0.006108(7) 0.484951(8)
N1 N 0.3991(2) 0.10732(15) 0.82840(17)
N2 N 0.3130(3) 0.17997(16) 0.82612(17)
N3 N 0.4791(2) 0.29620(14) 0.51946(16)
N4 N 0.4401(3) 0.37757(14) 0.48260(17)
N5 N -0.0367(2) 0.28621(14) 0.63316(16)
N6 N -0.0841(2) 0.27317(15) 0.71464(17)
O1 O 0.36814(18) 0.06797(11) 0.63830(13)
O2 O 0.21135(19) -0.03848(12) 0.64288(13)
O3 O 0.34770(18) 0.13729(12) 0.45254(13)
O4 O 0.56116(19) 0.07740(12) 0.45370(14)
O5 O 0.07770(19) 0.09475(12) 0.51842(14)
O6 O -0.13359(19) 0.12734(11) 0.55219(13)
O7 O 0.07644(19) 0.03652(12) 0.34211(13)
O8 O 0.33595(19) -0.04347(13) 0.35351(14)
C1 C 0.3021(3) 0.01799(17) 0.6845(2)
C2 C 0.3302(3) 0.02492(19) 0.7916(2)
H1 H 0.2390 0.0196 0.8112
H2 H 0.3913 -0.0243 0.8196
C3 C 0.4064(3) 0.24648(19) 0.8515(2)
H3 H 0.3790 0.3053 0.8572
C4 C 0.5514(4) 0.2177(2) 0.8688(2)
H4 H 0.6348 0.2518 0.8870
C5 C 0.5410(3) 0.1279(2) 0.8525(2)
H5 H 0.6179 0.0884 0.8572
C6 C 0.4808(3) 0.14289(17) 0.45834(19)
C7 C 0.5537(3) 0.23327(16) 0.4704(2)
H6 H 0.6527 0.2264 0.5064
H7 H 0.5568 0.2568 0.4079
C8 C 0.3851(3) 0.41779(18) 0.5499(2)
H8 H 0.3486 0.4754 0.5447
C9 C 0.3891(3) 0.36340(18) 0.6282(2)
H9 H 0.3572 0.3765 0.6835
C10 C 0.4507(3) 0.28561(18) 0.6063(2)
H10 H 0.4692 0.2351 0.6445
C11 C -0.0032(3) 0.14276(17) 0.55467(19)
C12 C 0.0665(3) 0.22512(17) 0.6075(2)
H11 H 0.1345 0.2066 0.6653
H12 H 0.1208 0.2560 0.5675
C13 C -0.1846(3) 0.33582(18) 0.7123(2)
H13 H -0.2362 0.3436 0.7598
C14 C -0.2028(3) 0.38790(18) 0.6308(2)
H14 H -0.2660 0.4354 0.6136
C15 C -0.1068(3) 0.35388(18) 0.5809(2)
H15 H -0.0929 0.3738 0.5221
Lu1B Lu -0.246868(11) -0.006108(7) 0.515049(8)
Lu1B_2 Lu 0.753132(11) -0.006108(7) 0.515049(8)
O4B O 0.43884(19) -0.07740(12) 0.54630(14)
O6B O 0.13359(19) -0.12734(11) 0.44781(13)
O9 O 0.6034(2) 0.59757(12) 0.71582(14)
loop_
_geom_bond_atom_site_label_1
_geom_bond_atom_site_label_2
_geom_bond_site_symmetry_1
_geom_bond_site_symmetry_2
Lu1 O1 1_555 1_555
N1 N2 1_555 1_555
N2 C3 1_555 1_555
N3 N4 1_555 1_555
N4 C8 1_555 1_555
N5 N6 1_555 1_555
N6 C13 1_555 1_555
O1 C1 1_555 1_555
O2 Lu1 1_555 1_555
O3 Lu1 1_555 1_555
O4 C6 1_555 1_555
O5 Lu1 1_555 1_555
O6 C11 1_555 1_555
O7 Lu1 1_555 1_555
O8 Lu1 1_555 1_555
C1 O2 1_555 1_555
C2 N1 1_555 1_555
H1 C2 1_555 1_555
H2 C2 1_555 1_555
C3 H3 1_555 1_555
C4 C3 1_555 1_555
H4 C4 1_555 1_555
C5 N1 1_555 1_555
H5 C5 1_555 1_555
C6 O3 1_555 1_555
C7 N3 1_555 1_555
H6 C7 1_555 1_555
H7 C7 1_555 1_555
C8 H8 1_555 1_555
C9 C8 1_555 1_555
H9 C9 1_555 1_555
C10 N3 1_555 1_555
H10 C10 1_555 1_555
C11 O5 1_555 1_555
C12 N5 1_555 1_555
H11 C12 1_555 1_555
H12 C12 1_555 1_555
C13 H13 1_555 1_555
C14 C13 1_555 1_555
H14 C14 1_555 1_555
C15 N5 1_555 1_555
H15 C15 1_555 1_555
Lu1B O6 1_555 1_555
Lu1B_2 O4 1_555 1_555
O4B Lu1 1_555 1_555
O6B Lu1 1_555 1_555
C1 C2 1_555 1_555
C4 C5 1_555 1_555
C6 C7 1_555 1_555
C9 C10 1_555 1_555
C11 C12 1_555 1_555
C14 C15 1_555 1_555

#END
