
#######################################################################
#
#                 Cambridge Crystallographic Data Centre
#                                CCDC 
#
#######################################################################
#
# If this CIF has been generated from an entry in the Cambridge 
# Structural Database, then it will include bibliographic, chemical, 
# crystal, experimental, refinement or atomic coordinate data resulting 
# from the CCDC's data processing and validation procedures.
#
#######################################################################

data_SITYAW
_symmetry_cell_setting           triclinic
_symmetry_space_group_name_H-M   'P -1'
_symmetry_Int_Tables_number      2
_space_group_name_Hall           '-P 1'
loop_
_symmetry_equiv_pos_site_id
_symmetry_equiv_pos_as_xyz
1 x,y,z
2 -x,-y,-z
_cell_length_a                   6.9954(16)
_cell_length_b                   7.5127(18)
_cell_length_c                   9.461(2)
_cell_angle_alpha                104.662(3)
_cell_angle_beta                 96.219(4)
_cell_angle_gamma                111.977(4)
_cell_volume                     434.495
loop_
_atom_site_label
_atom_site_type_symbol
_atom_site_fract_x
_atom_site_fract_y
_atom_site_fract_z
Mn1 Mn 0.72197(5) 0.98710(5) 0.76198(3)
O1 O 0.4229(3) 0.8218(3) 0.59428(19)
O2 O 0.2363(2) 0.8574(3) 0.40328(18)
O3 O 0.5885(3) 0.8195(2) 0.91338(17)
O4 O 0.4209(3) 0.8311(2) 1.10119(18)
O5 O 1.0220(3) 1.2094(3) 0.9029(2)
N1 N 0.8541(3) 0.7613(3) 0.6807(2)
N2 N 0.9605(3) 0.7069(3) 0.7826(2)
N3 N 0.9750(3) 0.5583(3) 0.55822(19)
C1 C 0.8645(4) 0.6696(4) 0.5462(3)
H1 H 0.8055 0.6794 0.4572
C2 C 1.0304(4) 0.5850(4) 0.7061(2)
H2 H 1.1072 0.5249 0.7468
C3 C 0.4007(3) 0.9065(3) 0.4993(2)
C4 C 0.5030(3) 0.8993(3) 1.0049(2)
H5 H 1.034(5) 1.234(5) 0.9975(14)
H6 H 1.137(3) 1.263(4) 0.876(3)
Mn1A Mn 0.27803(5) 1.01290(5) 0.23802(3)
Mn1A_2 Mn 0.27803(5) 1.01290(5) 1.23802(3)
Mn1A_3 Mn 1.27803(5) 0.01290(5) 0.23802(3)
O1A O 0.5771(3) 1.1782(3) 0.40572(19)
O2A O 0.7637(2) 1.1426(3) 0.59672(18)
O3A O 0.4115(3) 1.1805(2) 1.08662(17)
O3A_2 O 0.4115(3) 1.1805(2) 0.08662(17)
O4A O 0.5791(3) 1.1689(2) 0.89881(18)
O4_2 O 0.4209(3) 0.8311(2) 0.10119(18)
O5A O -0.0220(3) 0.7906(3) 0.0971(2)
N1A N 1.1459(3) 0.2387(3) 0.3193(2)
N1A_2 N 0.1459(3) 1.2387(3) 0.3193(2)
N2A N 1.0395(3) 0.2931(3) 0.2174(2)
N3A N 1.0250(3) 0.4417(3) 0.44178(19)
C1A C 1.1355(4) 0.3304(4) 0.4538(3)
H1A H 1.1945 0.3206 0.5428
C2A C 0.9696(4) 0.4150(4) 0.2939(2)
H2A H 0.8928 0.4751 0.2532
C3A C 0.5993(3) 1.0935(3) 0.5007(2)
C4A C 0.4970(3) 1.1007(3) 0.9951(2)
H5A H -0.034(5) 0.766(5) 0.0025(14)
H6A H -0.137(3) 0.737(4) 0.124(3)
O6 O 0.3813(3) 0.3881(3) 0.7934(2)
H3 H 0.454(4) 0.326(3) 0.814(3)
H4 H 0.445(4) 0.5177(15) 0.835(3)
loop_
_geom_bond_atom_site_label_1
_geom_bond_atom_site_label_2
_geom_bond_site_symmetry_1
_geom_bond_site_symmetry_2
Mn1 O1 1_555 1_555
O1 C3 1_555 1_555
O2 C3 1_555 1_555
O3 Mn1 1_555 1_555
O4 C4 1_555 1_555
O5 Mn1 1_555 1_555
N1 Mn1 1_555 1_555
N2 N1 1_555 1_555
N3 C1 1_555 1_555
C1 N1 1_555 1_555
H1 C1 1_555 1_555
C2 N2 1_555 1_555
H2 C2 1_555 1_555
C3 C3A 1_555 1_555
C4 O3 1_555 1_555
O6 H3 1_555 1_555
H4 O6 1_555 1_555
H5 O5 1_555 1_555
H6 O5 1_555 1_555
Mn1A O2 1_555 1_555
Mn1A_2 O4 1_555 1_555
Mn1A_3 N1A 1_555 1_555
O1A Mn1A 1_555 1_555
O2A Mn1 1_555 1_555
O3A Mn1A_2 1_555 1_555
O3A_2 Mn1A 1_555 1_555
O4A Mn1 1_555 1_555
O4_2 Mn1A 1_555 1_555
O5A Mn1A 1_555 1_555
N1A N2A 1_555 1_555
N1A_2 Mn1A 1_555 1_555
N2A C2A 1_555 1_555
N3A N3 1_555 1_555
C1A N1A 1_555 1_555
H1A C1A 1_555 1_555
C2A N3A 1_555 1_555
H2A C2A 1_555 1_555
C3A O1A 1_555 1_555
C4A C4 1_555 1_555
H5A O5A 1_555 1_555
H6A O5A 1_555 1_555
N3 C2 1_555 1_555
O2A C3A 1_555 1_555
O3A C4A 1_555 1_555
O4A C4A 1_555 1_555
N3A C1A 1_555 1_555

#END
