
#######################################################################
#
#                 Cambridge Crystallographic Data Centre
#                                CCDC 
#
#######################################################################
#
# If this CIF has been generated from an entry in the Cambridge 
# Structural Database, then it will include bibliographic, chemical, 
# crystal, experimental, refinement or atomic coordinate data resulting 
# from the CCDC's data processing and validation procedures.
#
#######################################################################

data_SITYUP
_symmetry_cell_setting           orthorhombic
_symmetry_space_group_name_H-M   'P 21 21 21'
_symmetry_Int_Tables_number      19
_space_group_name_Hall           'P 2ac 2ab'
loop_
_symmetry_equiv_pos_site_id
_symmetry_equiv_pos_as_xyz
1 x,y,z
2 1/2+x,1/2-y,-z
3 -x,1/2+y,1/2-z
4 1/2-x,-y,1/2+z
_cell_length_a                   8.942(4)
_cell_length_b                   15.272(6)
_cell_length_c                   21.552(7)
_cell_angle_alpha                90
_cell_angle_beta                 90
_cell_angle_gamma                90
_cell_volume                     2943.19
loop_
_atom_site_label
_atom_site_type_symbol
_atom_site_fract_x
_atom_site_fract_y
_atom_site_fract_z
Sb1 Sb 0.4841(1) -0.62521(5) 0.45710(4)
Sb2 Sb 0.5545(1) -0.49080(6) 0.67425(4)
Sb3 Sb -0.4114(1) -0.34745(5) 0.18491(4)
Sb4 Sb -0.2334(1) -0.20290(6) 0.39323(4)
Ag1 Ag 0.1988(1) -0.46472(7) 0.36120(5)
Ag2 Ag 0.5076(1) -0.77831(7) 0.57984(5)
Ag3 Ag 0.5038(1) -0.74139(8) 0.75680(5)
Ag4 Ag 0.7031(1) -0.21967(7) 0.59214(5)
O1 O 0.3024(9) -0.8743(5) 0.6225(3)
O2 O 0.9195(9) -0.1572(5) 0.5459(4)
O3 O 0.5792(10) -0.1915(6) 0.4936(4)
O4 O 0.2475(9) -0.7697(5) 0.7986(4)
C1 C 0.3295(11) -0.6360(6) 0.6644(5)
C2 C 0.2741(12) -0.5628(6) 0.6206(5)
C3 C 0.2585(11) -0.6046(6) 0.5559(4)
C4 C 0.2213(11) -0.5323(6) 0.5090(4)
O5 O 0.4534(8) -0.6190(4) 0.6943(3)
O6 O 0.2591(8) -0.7040(5) 0.6691(3)
O7 O 0.3743(8) -0.4918(4) 0.6196(3)
O8 O 0.3934(8) -0.6481(4) 0.5388(3)
O9 O 0.3114(8) -0.5253(4) 0.4628(3)
O10 O 0.1103(9) -0.4868(5) 0.5181(4)
C5 C 0.7220(12) -0.4115(6) 0.5706(5)
C6 C 0.7721(11) -0.5071(6) 0.5744(4)
C7 C 0.7520(12) -0.5478(7) 0.5092(5)
C8 C 0.7781(2) -0.6484(6) 0.5150(5)
O11 O 0.7756(9) -0.3604(5) 0.5326(3)
O12 O 0.6232(8) -0.3890(4) 0.6131(3)
O13 O 0.6930(8) -0.5563(4) 0.6207(3)
O14 O 0.6124(8) -0.5270(5) 0.4846(3)
O15 O 0.9009(8) -0.6766(6) 0.5312(3)
O16 O 0.6631(8) -0.6955(4) 0.5007(3)
C9 C -0.1105(11) -0.3883(6) 0.3633(5)
C10 C -0.2781(12) -0.3938(6) 0.3642(5)
C11 C -0.3316(12) -0.4326(7) 0.3024(5)
C12 C -0.4988(11) -0.4333(6) 0.3030(4)
O17 O -0.0524(8) -0.3107(4) 0.3662(3)
O18 O -0.0416(9) -0.4578(5) 0.3584(3)
O19 O -0.3486(8) -0.3112(4) 0.3751(3)
O20 O -0.2686(8) -0.3882(4) 0.2502(3)
O21 O -0.5671(8) -0.3931(4) 0.2587(3)
O22 O -0.5604(8) -0.4703(5) 0.3457(3)
C13 C 0.2345(12) -0.6827(6) 0.3276(5)
C14 C 0.3692(11) -0.6596(6) 0.2865(5)
C15 C 0.3062(11) -0.6206(6) 0.2260(5)
C16 C 0.4434(11) -0.6084(6) 0.1835(5)
O23 O 0.2256(9) -0.7661(4) 0.3442(3)
O24 O 0.1473(9) -0.6284(5) 0.3459(3)
O25 O 0.4577(8) -0.7335(4) 0.2742(3)
O26 O 0.1985(8) -0.6729(4) 0.1976(3)
O27 O 0.4338(8) -0.6411(4) 0.1288(3)
O28 O 0.5555(9) -0.5681(5) 0.2028(4)
O23B O -0.2256(9) -0.2661(4) 0.1558(3)
O25B O -0.4577(8) -0.2335(4) 0.2258(3)
O26B O -0.1985(8) -0.1729(4) 0.3024(3)
O27B O -0.4338(8) -0.1411(4) 0.3712(3)
Ag4A Ag 0.2031(1) -0.28033(7) 0.40786(5)
O22_2 O 0.4396(8) -0.4703(5) 0.3457(3)
O24A O 0.6473(9) -0.8716(5) 0.6541(3)
O17C O 0.5524(8) -0.6893(4) 0.8662(3)
O26A O 0.6985(8) -0.8271(4) 0.8024(3)
Ag1A Ag 0.6988(1) -0.03528(7) 0.63880(5)
O4B O 0.7525(9) -0.2697(5) 0.7014(4)
O17A O 0.4476(8) -0.1893(4) 0.6338(3)
Ag4B Ag 0.2969(1) -0.71967(7) 0.90786(5)
Ag3C Ag -0.0038(1) -0.25861(8) 0.25680(5)
Ag1_2 Ag -0.8012(1) -0.46472(7) 0.36120(5)
Sb3B Sb 0.4114(1) -0.84745(5) 0.31509(4)
Ag2A Ag 0.0076(1) -0.72169(7) 0.42016(5)
Sb4B Sb 0.2334(1) -0.70290(6) 0.10677(4)
Ag3A Ag 0.0038(1) -0.75861(8) 0.24320(5)
loop_
_geom_bond_atom_site_label_1
_geom_bond_atom_site_label_2
_geom_bond_site_symmetry_1
_geom_bond_site_symmetry_2
Sb1 O8 1_555 1_555
Sb2 O5 1_555 1_555
Sb3 O20 1_555 1_555
Sb4 O17 1_555 1_555
Ag1 O9 1_555 1_555
Ag2 O1 1_555 1_555
Ag3 O4 1_555 1_555
Ag4 O2 1_555 1_555
O3 Ag4 1_555 1_555
O4 Ag4B 1_555 1_555
C1 C2 1_555 1_555
C2 C3 1_555 1_555
C3 C4 1_555 1_555
C4 O9 1_555 1_555
O5 Ag3 1_555 1_555
O6 C1 1_555 1_555
O7 Sb2 1_555 1_555
O8 Ag2 1_555 1_555
O9 Sb1 1_555 1_555
O10 C4 1_555 1_555
C5 C6 1_555 1_555
C6 C7 1_555 1_555
C7 C8 1_555 1_555
C8 O15 1_555 1_555
O11 Ag4 1_555 1_555
O12 Sb2 1_555 1_555
O13 Sb2 1_555 1_555
O14 Sb1 1_555 1_555
O16 Sb1 1_555 1_555
C9 C10 1_555 1_555
C10 C11 1_555 1_555
C11 C12 1_555 1_555
C12 O21 1_555 1_555
O17 C9 1_555 1_555
O18 Ag1 1_555 1_555
O19 Sb4 1_555 1_555
O20 C11 1_555 1_555
O21 Sb3 1_555 1_555
O22 C12 1_555 1_555
C13 C14 1_555 1_555
C14 C15 1_555 1_555
C15 C16 1_555 1_555
C16 O27 1_555 1_555
O23 C13 1_555 1_555
O24 Ag1 1_555 1_555
O25 C14 1_555 1_555
O26 C15 1_555 1_555
O27 Sb4B 1_555 1_555
O28 C16 1_555 1_555
O23B Sb3 1_555 1_555
O25B Sb3 1_555 1_555
O26B Sb4 1_555 1_555
O27B Sb4 1_555 1_555
Ag4A Ag1 1_555 1_555
O22_2 Ag1 1_555 1_555
O24A Ag2 1_555 1_555
O17C Ag3 1_555 1_555
O26A Ag3 1_555 1_555
Ag1A Ag4 1_555 1_555
O4B Ag4 1_555 1_555
O17A Ag4 1_555 1_555
Ag4B O17C 1_555 1_555
Ag3C O17 1_555 1_555
Ag1_2 O22 1_555 1_555
Sb3B O23 1_555 1_555
Ag2A O24 1_555 1_555
Sb4B O26 1_555 1_555
Ag3A O26 1_555 1_555
Ag2 O16 1_555 1_555
C1 O5 1_555 1_555
C2 O7 1_555 1_555
C3 O8 1_555 1_555
C5 O11 1_555 1_555
C5 O12 1_555 1_555
C6 O13 1_555 1_555
C7 O14 1_555 1_555
C8 O16 1_555 1_555
C9 O18 1_555 1_555
C10 O19 1_555 1_555
O17 Ag4A 1_555 1_555
C13 O24 1_555 1_555
O25 Sb3B 1_555 1_555
O26B Ag3C 1_555 1_555

#END
