
#######################################################################
#
#                 Cambridge Crystallographic Data Centre
#                                CCDC 
#
#######################################################################
#
# If this CIF has been generated from an entry in the Cambridge 
# Structural Database, then it will include bibliographic, chemical, 
# crystal, experimental, refinement or atomic coordinate data resulting 
# from the CCDC's data processing and validation procedures.
#
#######################################################################

data_SITYEZ
_symmetry_cell_setting           triclinic
_symmetry_space_group_name_H-M   'P -1'
_symmetry_Int_Tables_number      2
_space_group_name_Hall           '-P 1'
loop_
_symmetry_equiv_pos_site_id
_symmetry_equiv_pos_as_xyz
1 x,y,z
2 -x,-y,-z
_cell_length_a                   8.6001(6)
_cell_length_b                   10.1069(9)
_cell_length_c                   11.0863(11)
_cell_angle_alpha                104.848(8)
_cell_angle_beta                 93.694(7)
_cell_angle_gamma                94.497(6)
_cell_volume                     925.003
loop_
_atom_site_label
_atom_site_type_symbol
_atom_site_fract_x
_atom_site_fract_y
_atom_site_fract_z
C1 C 0.5088(2) 0.4664(2) 0.45068(17)
Cu1 Cu 0.0000 0.0000 0.0000
O1 O 0.69309(17) 0.21721(13) 0.29992(10)
O2 O 0.69626(18) 0.48213(14) 0.21221(13)
N1 N 0.3557(2) 0.30443(16) 0.15383(13)
C2 C 0.1474(2) -0.0111(2) 0.13354(16)
C3 C 0.1741(3) -0.1387(2) 0.15703(18)
H1 H 0.1226 -0.2201 0.1013
C4 C 0.2714(3) -0.1510(2) 0.2570(2)
H2 H 0.2862 -0.2394 0.2682
C5 C 0.3471(3) -0.0347(2) 0.34074(19)
H3 H 0.4126 -0.0424 0.4104
C6 C 0.3264(2) 0.0925(2) 0.32193(16)
H4 H 0.3776 0.1729 0.3794
C7 C 0.2311(2) 0.1044(2) 0.21940(15)
C8 C 0.2170(2) 0.2463(2) 0.20219(18)
H5 H 0.1241 0.2427 0.1435
H6 H 0.1994 0.3089 0.2837
C9 C 0.3242(3) 0.4407(2) 0.1383(2)
H7 H 0.4127 0.4791 0.1024
H8 H 0.3100 0.5022 0.2201
H9 H 0.2289 0.4314 0.0822
C10 C 0.3853(3) 0.2154(2) 0.03198(16)
H10 H 0.2935 0.2064 -0.0277
H11 H 0.4057 0.1244 0.0415
H12 H 0.4765 0.2562 0.0008
C11 C 0.7032(3) 0.0826(2) 0.21660(17)
H13 H 0.7675 0.0900 0.1473
H14 H 0.5976 0.0388 0.1806
C12 C 0.7788(3) -0.0003(2) 0.29566(19)
H15 H 0.8478 -0.0638 0.2468
H16 H 0.6988 -0.0542 0.3287
C13 C 0.9530(3) 0.5509(3) 0.3039(3)
H17 H 0.9852 0.4983 0.3638
H18 H 1.0480 0.5946 0.2784
C14 C 0.7692(3) 0.2260(2) 0.42019(17)
H19 H 0.6912 0.2163 0.4800
H20 H 0.8328 0.3156 0.4531
C15 C 0.7023(3) 0.6267(2) 0.2718(2)
H21 H 0.6082 0.6481 0.3173
H22 H 0.7094 0.6811 0.2093
C16 C 0.8561(3) 0.4577(3) 0.1908(2)
H23 H 0.8847 0.4808 0.1130
H24 H 0.8721 0.3601 0.1837
C17 C 0.8731(3) 0.1087(2) 0.40145(19)
H25 H 0.8875 0.0763 0.4781
H26 H 0.9768 0.1360 0.3766
C18 C 0.8483(3) 0.6572(3) 0.3616(2)
H27 H 0.8982 0.7511 0.3697
H28 H 0.8235 0.6489 0.4455
Li1 Li 0.5574(4) 0.3537(3) 0.2784(3)
C1A C 0.4912(2) 0.5336(2) 0.54932(17)
Li1A Li 0.4426(4) 0.6463(3) 0.7216(3)
O1A O 0.30691(17) 0.78279(13) 0.70008(10)
C11A C 0.2968(3) 0.9174(2) 0.78340(17)
H13A H 0.2325 0.9100 0.8527
H14A H 0.4024 0.9612 0.8194
C12A C 0.2212(3) 1.0003(2) 0.70434(19)
H15A H 0.1522 1.0638 0.7532
H16A H 0.3012 1.0542 0.6713
C17A C 0.1269(3) 0.8913(2) 0.59855(19)
C14A C 0.2308(3) 0.7740(2) 0.57981(17)
H19A H 0.3088 0.7837 0.5200
H20A H 0.1672 0.6844 0.5469
H25A H 0.1125 0.9237 0.5219
H26A H 0.0232 0.8640 0.6234
O2A O 0.30374(18) 0.51787(14) 0.78779(13)
C15A C 0.2977(3) 0.3733(2) 0.7282(2)
H21A H 0.3918 0.3519 0.6827
H22A H 0.2906 0.3189 0.7907
C18A C 0.1517(3) 0.3428(3) 0.6384(2)
C13A C 0.0470(3) 0.4491(3) 0.6961(3)
H17A H 0.0148 0.5017 0.6362
H18A H -0.0480 0.4054 0.7216
C16A C 0.1439(3) 0.5423(3) 0.8092(2)
H23A H 0.1153 0.5192 0.8870
H24A H 0.1279 0.6399 0.8163
H27A H 0.1018 0.2489 0.6303
H28A H 0.1765 0.3511 0.5545
N1A N 0.6443(2) 0.69557(16) 0.84617(13)
C8A C 0.7830(2) 0.7537(2) 0.79781(18)
C7A C 0.7689(2) 0.8956(2) 0.78060(15)
C2A C 0.8526(2) 1.0111(2) 0.86646(16)
Cu1A Cu 1.0000 1.0000 1.0000
C2_2 C 1.1474(2) 0.9889(2) 1.13354(16)
C3_2 C 1.1741(3) 0.8613(2) 1.15703(18)
H1_2 H 1.1226 0.7799 1.1013
C4_2 C 1.2714(3) 0.8490(2) 1.2570(2)
H2_2 H 1.2862 0.7606 1.2682
C5_2 C 1.3471(3) 0.9653(2) 1.34074(19)
H3_2 H 1.4126 0.9576 1.4104
C6_2 C 1.3264(2) 1.0925(2) 1.32193(16)
H4_2 H 1.3776 1.1729 1.3794
C7_2 C 1.2311(2) 1.1044(2) 1.21940(15)
C8_2 C 1.2170(2) 1.2463(2) 1.20219(18)
N1_2 N 1.3557(2) 1.30443(16) 1.15383(13)
C9_2 C 1.3242(3) 1.4407(2) 1.1383(2)
H7_2 H 1.4127 1.4791 1.1024
H8_2 H 1.3100 1.5022 1.2201
H9_2 H 1.2289 1.4314 1.0822
C10_2 C 1.3853(3) 1.2154(2) 1.03198(16)
H10_2 H 1.2935 1.2064 0.9723
H11_2 H 1.4057 1.1244 1.0415
H12_2 H 1.4765 1.2562 1.0008
Li1_2 Li 1.5574(4) 1.3537(3) 1.2784(3)
C1_2 C 1.5088(2) 1.4664(2) 1.45068(17)
C1A_2 C 1.4912(2) 1.5336(2) 1.54932(17)
O1_2 O 1.69309(17) 1.21721(13) 1.29992(10)
C11_2 C 1.7032(3) 1.0826(2) 1.21660(17)
H13_2 H 1.7675 1.0900 1.1473
H14_2 H 1.5976 1.0388 1.1806
C12_2 C 1.7788(3) 0.9997(2) 1.29566(19)
H15_2 H 1.8478 0.9362 1.2468
H16_2 H 1.6988 0.9458 1.3287
C17_2 C 1.8731(3) 1.1087(2) 1.40145(19)
C14_2 C 1.7692(3) 1.2260(2) 1.42019(17)
H19_2 H 1.6912 1.2163 1.4800
H20_2 H 1.8328 1.3156 1.4531
H25_2 H 1.8875 1.0763 1.4781
H26_2 H 1.9768 1.1360 1.3766
O2_2 O 1.69626(18) 1.48213(14) 1.21221(13)
C15_2 C 1.7023(3) 1.6267(2) 1.2718(2)
H21_2 H 1.6082 1.6481 1.3173
H22_2 H 1.7094 1.6811 1.2093
C18_2 C 1.8483(3) 1.6572(3) 1.3616(2)
C13_2 C 1.9530(3) 1.5509(3) 1.3039(3)
H17_2 H 1.9852 1.4983 1.3638
H18_2 H 2.0480 1.5946 1.2784
C16_2 C 1.8561(3) 1.4577(3) 1.1908(2)
H23_2 H 1.8847 1.4808 1.1130
H24_2 H 1.8721 1.3601 1.1837
H27_2 H 1.8982 1.7511 1.3697
H28_2 H 1.8235 1.6489 1.4455
H5_2 H 1.1241 1.2427 1.1435
H6_2 H 1.1994 1.3089 1.2837
C3A C 0.8259(3) 1.1387(2) 0.84297(18)
H1A H 0.8774 1.2201 0.8987
C4A C 0.7286(3) 1.1510(2) 0.7430(2)
H2A H 0.7138 1.2394 0.7318
C5A C 0.6529(3) 1.0347(2) 0.65926(19)
H3A H 0.5874 1.0424 0.5896
C6A C 0.6736(2) 0.9075(2) 0.67807(16)
H4A H 0.6224 0.8271 0.6206
H5A H 0.8759 0.7573 0.8565
H6A H 0.8006 0.6911 0.7163
C9A C 0.6758(3) 0.5593(2) 0.8617(2)
H7A H 0.5873 0.5209 0.8976
H8A H 0.6900 0.4978 0.7799
H9A H 0.7711 0.5686 0.9178
C10A C 0.6147(3) 0.7846(2) 0.96802(16)
H10A H 0.7065 0.7936 1.0277
H11A H 0.5943 0.8756 0.9585
H12A H 0.5235 0.7438 0.9992
C2A_2 C -0.1474(2) 0.0111(2) -0.13354(16)
C3A_2 C -0.1741(3) 0.1387(2) -0.15703(18)
H1A_2 H -0.1226 0.2201 -0.1013
C4A_2 C -0.2714(3) 0.1510(2) -0.2570(2)
H2A_2 H -0.2862 0.2394 -0.2682
C5A_2 C -0.3471(3) 0.0347(2) -0.34074(19)
H3A_2 H -0.4126 0.0424 -0.4104
C6A_2 C -0.3264(2) -0.0925(2) -0.32193(16)
H4A_2 H -0.3776 -0.1729 -0.3794
C7A_2 C -0.2311(2) -0.1044(2) -0.21940(15)
C8A_2 C -0.2170(2) -0.2463(2) -0.20219(18)
N1A_2 N -0.3557(2) -0.30443(16) -0.15383(13)
C9A_2 C -0.3242(3) -0.4407(2) -0.1383(2)
H7A_2 H -0.4127 -0.4791 -0.1024
H8A_2 H -0.3100 -0.5022 -0.2201
H9A_2 H -0.2289 -0.4314 -0.0822
C10A_2 C -0.3853(3) -0.2154(2) -0.03198(16)
H10A_2 H -0.2935 -0.2064 0.0277
H11A_2 H -0.4057 -0.1244 -0.0415
H12A_2 H -0.4765 -0.2562 -0.0008
Li1A_2 Li -0.5574(4) -0.3537(3) -0.2784(3)
C1A_3 C -0.5088(2) -0.4664(2) -0.45068(17)
O1A_2 O -0.69309(17) -0.21721(13) -0.29992(10)
C11A_2 C -0.7032(3) -0.0826(2) -0.21660(17)
H13A_2 H -0.7675 -0.0900 -0.1473
H14A_2 H -0.5976 -0.0388 -0.1806
C12A_2 C -0.7788(3) 0.0003(2) -0.29566(19)
H15A_2 H -0.8478 0.0638 -0.2468
H16A_2 H -0.6988 0.0542 -0.3287
C17A_2 C -0.8731(3) -0.1087(2) -0.40145(19)
C14A_2 C -0.7692(3) -0.2260(2) -0.42019(17)
H19A_2 H -0.6912 -0.2163 -0.4800
H20A_2 H -0.8328 -0.3156 -0.4531
H25A_2 H -0.8875 -0.0763 -0.4781
H26A_2 H -0.9768 -0.1360 -0.3766
O2A_2 O -0.69626(18) -0.48213(14) -0.21221(13)
C15A_2 C -0.7023(3) -0.6267(2) -0.2718(2)
H21A_2 H -0.6082 -0.6481 -0.3173
H22A_2 H -0.7094 -0.6811 -0.2093
C18A_2 C -0.8483(3) -0.6572(3) -0.3616(2)
C13A_2 C -0.9530(3) -0.5509(3) -0.3039(3)
H17A_2 H -0.9852 -0.4983 -0.3638
H18A_2 H -1.0480 -0.5946 -0.2784
C16A_2 C -0.8561(3) -0.4577(3) -0.1908(2)
H23A_2 H -0.8847 -0.4808 -0.1130
H24A_2 H -0.8721 -0.3601 -0.1837
H27A_2 H -0.8982 -0.7511 -0.3697
H28A_2 H -0.8235 -0.6489 -0.4455
H5A_2 H -0.1241 -0.2427 -0.1435
H6A_2 H -0.1994 -0.3089 -0.2837
loop_
_geom_bond_atom_site_label_1
_geom_bond_atom_site_label_2
_geom_bond_site_symmetry_1
_geom_bond_site_symmetry_2
C1 Li1 1_555 1_555
Cu1 C2 1_555 1_555
O1 C11 1_555 1_555
O2 C15 1_555 1_555
N1 C8 1_555 1_555
C2 C3 1_555 1_555
C3 H1 1_555 1_555
C4 C3 1_555 1_555
H2 C4 1_555 1_555
C5 C4 1_555 1_555
H3 C5 1_555 1_555
C6 C5 1_555 1_555
H4 C6 1_555 1_555
C7 C2 1_555 1_555
C8 C7 1_555 1_555
H5 C8 1_555 1_555
H6 C8 1_555 1_555
C9 N1 1_555 1_555
H7 C9 1_555 1_555
H8 C9 1_555 1_555
H9 C9 1_555 1_555
C10 N1 1_555 1_555
H10 C10 1_555 1_555
H11 C10 1_555 1_555
H12 C10 1_555 1_555
C11 H13 1_555 1_555
H14 C11 1_555 1_555
C12 C11 1_555 1_555
H15 C12 1_555 1_555
H16 C12 1_555 1_555
C13 H17 1_555 1_555
H18 C13 1_555 1_555
C14 O1 1_555 1_555
H19 C14 1_555 1_555
H20 C14 1_555 1_555
C15 H21 1_555 1_555
H22 C15 1_555 1_555
C16 O2 1_555 1_555
H23 C16 1_555 1_555
H24 C16 1_555 1_555
C17 C12 1_555 1_555
H25 C17 1_555 1_555
H26 C17 1_555 1_555
C18 C13 1_555 1_555
H27 C18 1_555 1_555
H28 C18 1_555 1_555
Li1 O1 1_555 1_555
C1A C1 1_555 1_555
Li1A C1A 1_555 1_555
O1A Li1A 1_555 1_555
C11A O1A 1_555 1_555
H13A C11A 1_555 1_555
H14A C11A 1_555 1_555
C12A C11A 1_555 1_555
H15A C12A 1_555 1_555
H16A C12A 1_555 1_555
C17A C12A 1_555 1_555
C14A O1A 1_555 1_555
H19A C14A 1_555 1_555
H20A C14A 1_555 1_555
H25A C17A 1_555 1_555
H26A C17A 1_555 1_555
O2A Li1A 1_555 1_555
C15A O2A 1_555 1_555
H21A C15A 1_555 1_555
H22A C15A 1_555 1_555
C18A C15A 1_555 1_555
C13A C18A 1_555 1_555
H17A C13A 1_555 1_555
H18A C13A 1_555 1_555
C16A O2A 1_555 1_555
H23A C16A 1_555 1_555
H24A C16A 1_555 1_555
H27A C18A 1_555 1_555
H28A C18A 1_555 1_555
N1A Li1A 1_555 1_555
C8A N1A 1_555 1_555
C7A C8A 1_555 1_555
C2A C7A 1_555 1_555
Cu1A C2A 1_555 1_555
C2_2 Cu1A 1_555 1_555
C3_2 C2_2 1_555 1_555
H1_2 C3_2 1_555 1_555
C4_2 C3_2 1_555 1_555
H2_2 C4_2 1_555 1_555
C5_2 C4_2 1_555 1_555
H3_2 C5_2 1_555 1_555
C6_2 C5_2 1_555 1_555
H4_2 C6_2 1_555 1_555
C7_2 C2_2 1_555 1_555
C8_2 C7_2 1_555 1_555
N1_2 C8_2 1_555 1_555
C9_2 N1_2 1_555 1_555
H7_2 C9_2 1_555 1_555
H8_2 C9_2 1_555 1_555
H9_2 C9_2 1_555 1_555
C10_2 N1_2 1_555 1_555
H10_2 C10_2 1_555 1_555
H11_2 C10_2 1_555 1_555
H12_2 C10_2 1_555 1_555
Li1_2 N1_2 1_555 1_555
C1_2 Li1_2 1_555 1_555
C1A_2 C1_2 1_555 1_555
O1_2 Li1_2 1_555 1_555
C11_2 O1_2 1_555 1_555
H13_2 C11_2 1_555 1_555
H14_2 C11_2 1_555 1_555
C12_2 C11_2 1_555 1_555
H15_2 C12_2 1_555 1_555
H16_2 C12_2 1_555 1_555
C17_2 C12_2 1_555 1_555
C14_2 O1_2 1_555 1_555
H19_2 C14_2 1_555 1_555
H20_2 C14_2 1_555 1_555
H25_2 C17_2 1_555 1_555
H26_2 C17_2 1_555 1_555
O2_2 Li1_2 1_555 1_555
C15_2 O2_2 1_555 1_555
H21_2 C15_2 1_555 1_555
H22_2 C15_2 1_555 1_555
C18_2 C15_2 1_555 1_555
C13_2 C18_2 1_555 1_555
H17_2 C13_2 1_555 1_555
H18_2 C13_2 1_555 1_555
C16_2 O2_2 1_555 1_555
H23_2 C16_2 1_555 1_555
H24_2 C16_2 1_555 1_555
H27_2 C18_2 1_555 1_555
H28_2 C18_2 1_555 1_555
H5_2 C8_2 1_555 1_555
H6_2 C8_2 1_555 1_555
C3A C2A 1_555 1_555
H1A C3A 1_555 1_555
C4A C3A 1_555 1_555
H2A C4A 1_555 1_555
C5A C4A 1_555 1_555
H3A C5A 1_555 1_555
C6A C7A 1_555 1_555
H4A C6A 1_555 1_555
H5A C8A 1_555 1_555
H6A C8A 1_555 1_555
C9A N1A 1_555 1_555
H7A C9A 1_555 1_555
H8A C9A 1_555 1_555
H9A C9A 1_555 1_555
C10A N1A 1_555 1_555
H10A C10A 1_555 1_555
H11A C10A 1_555 1_555
H12A C10A 1_555 1_555
C2A_2 Cu1 1_555 1_555
C3A_2 C2A_2 1_555 1_555
H1A_2 C3A_2 1_555 1_555
C4A_2 C3A_2 1_555 1_555
H2A_2 C4A_2 1_555 1_555
C5A_2 C4A_2 1_555 1_555
H3A_2 C5A_2 1_555 1_555
C6A_2 C5A_2 1_555 1_555
H4A_2 C6A_2 1_555 1_555
C7A_2 C2A_2 1_555 1_555
C8A_2 C7A_2 1_555 1_555
N1A_2 C8A_2 1_555 1_555
C9A_2 N1A_2 1_555 1_555
H7A_2 C9A_2 1_555 1_555
H8A_2 C9A_2 1_555 1_555
H9A_2 C9A_2 1_555 1_555
C10A_2 N1A_2 1_555 1_555
H10A_2 C10A_2 1_555 1_555
H11A_2 C10A_2 1_555 1_555
H12A_2 C10A_2 1_555 1_555
Li1A_2 N1A_2 1_555 1_555
C1A_3 Li1A_2 1_555 1_555
O1A_2 Li1A_2 1_555 1_555
C11A_2 O1A_2 1_555 1_555
H13A_2 C11A_2 1_555 1_555
H14A_2 C11A_2 1_555 1_555
C12A_2 C11A_2 1_555 1_555
H15A_2 C12A_2 1_555 1_555
H16A_2 C12A_2 1_555 1_555
C17A_2 C12A_2 1_555 1_555
C14A_2 O1A_2 1_555 1_555
H19A_2 C14A_2 1_555 1_555
H20A_2 C14A_2 1_555 1_555
H25A_2 C17A_2 1_555 1_555
H26A_2 C17A_2 1_555 1_555
O2A_2 Li1A_2 1_555 1_555
C15A_2 O2A_2 1_555 1_555
H21A_2 C15A_2 1_555 1_555
H22A_2 C15A_2 1_555 1_555
C18A_2 C15A_2 1_555 1_555
C13A_2 C18A_2 1_555 1_555
H17A_2 C13A_2 1_555 1_555
H18A_2 C13A_2 1_555 1_555
C16A_2 O2A_2 1_555 1_555
H23A_2 C16A_2 1_555 1_555
H24A_2 C16A_2 1_555 1_555
H27A_2 C18A_2 1_555 1_555
H28A_2 C18A_2 1_555 1_555
H5A_2 C8A_2 1_555 1_555
H6A_2 C8A_2 1_555 1_555
O2 Li1 1_555 1_555
N1 Li1 1_555 1_555
C6 C7 1_555 1_555
C13 C16 1_555 1_555
C14 C17 1_555 1_555
C15 C18 1_555 1_555
C17A C14A 1_555 1_555
C13A C16A 1_555 1_555
C6_2 C7_2 1_555 1_555
C17_2 C14_2 1_555 1_555
C13_2 C16_2 1_555 1_555
C5A C6A 1_555 1_555
C6A_2 C7A_2 1_555 1_555
C17A_2 C14A_2 1_555 1_555
C13A_2 C16A_2 1_555 1_555

#END
