
#######################################################################
#
#                 Cambridge Crystallographic Data Centre
#                                CCDC 
#
#######################################################################
#
# If this CIF has been generated from an entry in the Cambridge 
# Structural Database, then it will include bibliographic, chemical, 
# crystal, experimental, refinement or atomic coordinate data resulting 
# from the CCDC's data processing and validation procedures.
#
#######################################################################

data_SITZEB
_symmetry_cell_setting           monoclinic
_symmetry_space_group_name_H-M   'P 21/n'
_symmetry_Int_Tables_number      14
_space_group_name_Hall           '-P 2yn'
loop_
_symmetry_equiv_pos_site_id
_symmetry_equiv_pos_as_xyz
1 x,y,z
2 1/2-x,1/2+y,1/2-z
3 -x,-y,-z
4 1/2+x,1/2-y,1/2+z
_cell_length_a                   11.4086(11)
_cell_length_b                   7.5988(7)
_cell_length_c                   25.514(2)
_cell_angle_alpha                90
_cell_angle_beta                 99.312(1)
_cell_angle_gamma                90
_cell_volume                     2182.7
loop_
_atom_site_label
_atom_site_type_symbol
_atom_site_fract_x
_atom_site_fract_y
_atom_site_fract_z
Ag1 Ag 0.80054(3) 0.32207(6) 0.733832(14)
N1 N 0.9921(3) 0.3104(5) 0.73869(14)
N2 N 1.6135(3) 0.2962(5) 0.73854(14)
O1 O 0.7657(4) 0.5553(5) 0.65921(13)
O2 O 0.7467(3) 0.3019(5) 0.61967(13)
O3 O 0.6542(3) 0.8260(5) 0.64905(13)
H1 H 0.6845 0.7283 0.6540
O4 O 0.5264(4) 0.9537(6) 0.58907(15)
O5 O 0.7010(4) 0.4424(6) 0.42533(13)
O6 O 1.0212(4) -0.2397(5) 0.43183(16)
O7 O 1.1454(4) -0.0323(5) 0.41417(19)
H2 H 1.1863 -0.1179 0.4096
C1 C 0.7369(4) 0.4625(8) 0.61812(18)
C2 C 0.6908(4) 0.5521(6) 0.56557(16)
C3 C 0.7157(5) 0.4619(7) 0.52118(17)
H3 H 0.7594 0.3581 0.5256
C4 C 0.6765(5) 0.5244(7) 0.47076(18)
C5 C 0.6063(5) 0.6698(7) 0.4629(2)
H4 H 0.5755 0.7072 0.4288
C6 C 0.5819(5) 0.7608(7) 0.5067(2)
H5 H 0.5334 0.8596 0.5013
C7 C 0.6269(4) 0.7107(6) 0.55840(17)
C8 C 0.5990(4) 0.8373(7) 0.6004(2)
C9 C 1.0442(5) -0.0853(8) 0.42596(18)
C10 C 0.9584(5) 0.0577(7) 0.43001(17)
C11 C 0.8424(5) 0.0125(8) 0.43296(19)
H6 H 0.8219 -0.1052 0.4355
C12 C 0.7574(6) 0.1406(9) 0.4322(2)
H7 H 0.6786 0.1105 0.4327
C13 C 0.7905(7) 0.3135(9) 0.43060(19)
C14 C 0.9053(7) 0.3639(8) 0.4301(2)
H8 H 0.9258 0.4824 0.4301
C15 C 0.9910(6) 0.2335(8) 0.4296(2)
H9 H 1.0697 0.2642 0.4291
C16 C 1.0388(4) 0.3404(6) 0.69481(16)
H10 H 0.9877 0.3676 0.6637
C17 C 1.1587(3) 0.3332(6) 0.69324(16)
H11 H 1.1865 0.3528 0.6614
C18 C 1.2383(3) 0.2967(5) 0.73909(15)
C19 C 1.1900(4) 0.2653(7) 0.78482(16)
H12 H 1.2394 0.2392 0.8166
C20 C 1.0692(4) 0.2727(7) 0.78308(17)
H13 H 1.0390 0.2506 0.8142
C21 C 1.5366(4) 0.2356(7) 0.69725(17)
H14 H 1.5665 0.1930 0.6679
C22 C 1.4161(4) 0.2330(6) 0.69593(17)
H15 H 1.3666 0.1918 0.6659
C23 C 1.3673(3) 0.2920(6) 0.73946(15)
C24 C 1.4474(4) 0.3497(6) 0.78280(16)
H16 H 1.4198 0.3875 0.8133
C25 C 1.5661(4) 0.3516(7) 0.78105(18)
H17 H 1.6173 0.3931 0.8106
Ag1_2 Ag 1.80054(3) 0.32207(6) 0.733832(14)
N2_2 N 0.6135(3) 0.2962(5) 0.73854(14)
loop_
_geom_bond_atom_site_label_1
_geom_bond_atom_site_label_2
_geom_bond_site_symmetry_1
_geom_bond_site_symmetry_2
Ag1 N1 1_555 1_555
N1 C16 1_555 1_555
N2 C21 1_555 1_555
O1 Ag1 1_555 1_555
O2 C1 1_555 1_555
O3 H1 1_555 1_555
O4 C8 1_555 1_555
O5 C4 1_555 1_555
O6 C9 1_555 1_555
O7 H2 1_555 1_555
C1 O1 1_555 1_555
C2 C1 1_555 1_555
C3 C2 1_555 1_555
H3 C3 1_555 1_555
C4 C3 1_555 1_555
C5 C4 1_555 1_555
H4 C5 1_555 1_555
C6 C5 1_555 1_555
H5 C6 1_555 1_555
C7 C2 1_555 1_555
C8 O3 1_555 1_555
C9 O7 1_555 1_555
C10 C9 1_555 1_555
C11 C10 1_555 1_555
H6 C11 1_555 1_555
C12 C11 1_555 1_555
H7 C12 1_555 1_555
C13 O5 1_555 1_555
C14 C13 1_555 1_555
H8 C14 1_555 1_555
C15 C10 1_555 1_555
H9 C15 1_555 1_555
C16 H10 1_555 1_555
C17 C16 1_555 1_555
H11 C17 1_555 1_555
C18 C17 1_555 1_555
C19 C18 1_555 1_555
H12 C19 1_555 1_555
C20 N1 1_555 1_555
H13 C20 1_555 1_555
C21 H14 1_555 1_555
C22 C21 1_555 1_555
H15 C22 1_555 1_555
C23 C18 1_555 1_555
C24 C23 1_555 1_555
H16 C24 1_555 1_555
C25 N2 1_555 1_555
H17 C25 1_555 1_555
Ag1_2 N2 1_555 1_555
N2_2 Ag1 1_555 1_555
C6 C7 1_555 1_555
C7 C8 1_555 1_555
C12 C13 1_555 1_555
C14 C15 1_555 1_555
C19 C20 1_555 1_555
C22 C23 1_555 1_555
C24 C25 1_555 1_555

#END
