
#######################################################################
#
#                 Cambridge Crystallographic Data Centre
#                                CCDC 
#
#######################################################################
#
# If this CIF has been generated from an entry in the Cambridge 
# Structural Database, then it will include bibliographic, chemical, 
# crystal, experimental, refinement or atomic coordinate data resulting 
# from the CCDC's data processing and validation procedures.
#
#######################################################################

data_SIVCAD01
_symmetry_cell_setting           triclinic
_symmetry_space_group_name_H-M   'P -1'
_symmetry_Int_Tables_number      2
_space_group_name_Hall           '-P 1'
loop_
_symmetry_equiv_pos_site_id
_symmetry_equiv_pos_as_xyz
1 x,y,z
2 -x,-y,-z
_cell_length_a                   9.8317(7)
_cell_length_b                   12.8310(9)
_cell_length_c                   18.0718(13)
_cell_angle_alpha                109.246(5)
_cell_angle_beta                 91.788(6)
_cell_angle_gamma                90.581(6)
_cell_volume                     2150.8
loop_
_atom_site_label
_atom_site_type_symbol
_atom_site_fract_x
_atom_site_fract_y
_atom_site_fract_z
C1 C -0.2871(5) 0.3034(3) 0.6218(2)
C2 C -0.2231(7) 0.2606(4) 0.6755(3)
H1 H -0.2221 0.1829 0.6647
C3 C -0.1620(7) 0.3292(4) 0.7435(3)
H2 H -0.1203 0.2987 0.7797
C4 C -0.1603(5) 0.4435(3) 0.7603(2)
C5 C -0.2162(5) 0.4874(4) 0.7057(2)
H3 H -0.2107 0.5646 0.7150
C6 C -0.2802(5) 0.4174(4) 0.6370(2)
H4 H -0.3197 0.4477 0.6002
C7 C -0.0967(5) 0.5157(3) 0.8368(2)
C8 C -0.3619(5) 0.2279(3) 0.5516(2)
O1 O -0.4198(4) 0.2725(2) 0.50583(15)
O2 O -0.3647(4) 0.1269(2) 0.54219(17)
O3 O -0.0688(4) 0.6164(2) 0.84385(16)
O4 O -0.0781(4) 0.4725(3) 0.88826(16)
C9 C -0.1959(5) 0.8025(3) 1.1339(2)
C10 C -0.2504(5) 0.7550(3) 1.1863(2)
H5 H -0.2399 0.6784 1.1777
C11 C -0.3192(6) 0.8186(4) 1.2500(2)
H6 H -0.3551 0.7857 1.2854
C12 C -0.3367(5) 0.9309(4) 1.2633(2)
C13 C -0.2817(5) 0.9785(4) 1.2110(2)
H7 H -0.2927 1.0549 1.2193
C14 C -0.2117(6) 0.9149(3) 1.1473(2)
H8 H -0.1741 0.9480 1.1125
C15 C -0.1201(5) 0.7317(3) 1.0645(2)
C16 C -0.4132(5) 0.9984(3) 1.3332(2)
O5 O -0.0621(4) 0.7824(2) 1.02388(16)
O6 O -0.1199(4) 0.6305(2) 1.05165(17)
O7 O -0.4484(4) 1.0934(2) 1.33317(16)
O8 O -0.4352(4) 0.9577(2) 1.38539(16)
C17 C 0.2569(5) 0.5640(3) 0.9321(2)
C18 C 0.4883(5) 0.4824(4) 0.9198(2)
H9 H 0.4809 0.4705 0.8650
C19 C 0.3810(5) 0.5291(3) 0.9674(2)
C20 C 0.3935(5) 0.5472(4) 1.0480(2)
H10 H 0.3211 0.5796 1.0809
O9 O 0.2510(4) 0.5560(3) 0.86163(17)
O10 O 0.1612(3) 0.6093(2) 0.97988(15)
C21 C -0.7670(5) 0.0667(4) 0.4301(2)
C22 C -0.8868(5) 0.0306(3) 0.4658(2)
C23 C -0.8823(6) 0.0421(4) 0.5459(2)
H11 H -0.8027 0.0711 0.5774
C24 C -0.9945(6) 0.0108(4) 0.5786(2)
H12 H -0.9904 0.0177 0.6326
O11 O -0.6595(3) 0.1068(2) 0.47472(16)
O12 O -0.7745(4) 0.0608(3) 0.35974(18)
Zn1 Zn -0.55226(5) 0.19141(4) 0.41987(2)
Zn2 Zn -0.5000 0.0000 0.5000
Cl1 Cl -0.64429(14) 0.32452(9) 0.38279(6)
Zn3 Zn 0.05109(6) 0.70340(4) 0.93348(2)
Zn4 Zn 0.0000 0.5000 1.0000
Cl2 Cl 0.15485(13) 0.83684(9) 0.90187(6)
C17A C 0.7431(5) 0.4360(3) 1.0679(2)
C18A C 0.5117(5) 0.5176(4) 1.0802(2)
H9A H 0.5191 0.5295 1.1350
C19A C 0.6190(5) 0.4709(3) 1.0326(2)
C20A C 0.6065(5) 0.4528(4) 0.9520(2)
H10A H 0.6789 0.4204 0.9191
O9A O 0.7490(4) 0.4440(3) 1.13837(17)
O10A O 0.8388(3) 0.3907(2) 1.02012(15)
C21A C -1.2330(5) -0.0667(4) 0.5699(2)
C22A C -1.1132(5) -0.0306(3) 0.5342(2)
C23A C -1.1177(6) -0.0421(4) 0.4541(2)
H11A H -1.1973 -0.0711 0.4226
C24A C -1.0055(6) -0.0108(4) 0.4214(2)
H12A H -1.0096 -0.0177 0.3674
O11A O -1.3405(3) -0.1068(2) 0.52528(16)
O12A O -1.2255(4) -0.0608(3) 0.64026(18)
C1A C -1.7129(5) -0.3034(3) 0.3782(2)
C2A C -1.7769(7) -0.2606(4) 0.3245(3)
H1A H -1.7779 -0.1829 0.3353
C3A C -1.8380(7) -0.3292(4) 0.2565(3)
H2A H -1.8797 -0.2987 0.2203
C4A C -1.8397(5) -0.4435(3) 0.2397(2)
C5A C -1.7838(5) -0.4874(4) 0.2943(2)
H3A H -1.7893 -0.5646 0.2850
C6A C -1.7198(5) -0.4174(4) 0.3630(2)
H4A H -1.6803 -0.4477 0.3998
C7A C -1.9033(5) -0.5157(3) 0.1632(2)
C8A C -1.6381(5) -0.2279(3) 0.4484(2)
O1A O -1.5802(4) -0.2725(2) 0.49417(15)
O2A O -1.6353(4) -0.1269(2) 0.45781(17)
O3A O -1.9312(4) -0.6164(2) 0.15615(16)
O4A O -1.9219(4) -0.4725(3) 0.11174(16)
C9A C -1.8041(5) -0.8025(3) -0.1339(2)
C10A C -1.7496(5) -0.7550(3) -0.1863(2)
H5A H -1.7601 -0.6784 -0.1777
C11A C -1.6808(6) -0.8186(4) -0.2500(2)
H6A H -1.6449 -0.7857 -0.2854
C12A C -1.6633(5) -0.9309(4) -0.2633(2)
C13A C -1.7183(5) -0.9785(4) -0.2110(2)
H7A H -1.7073 -1.0549 -0.2193
C14A C -1.7883(6) -0.9149(3) -0.1473(2)
H8A H -1.8259 -0.9480 -0.1125
C15A C -1.8799(5) -0.7317(3) -0.0645(2)
C16A C -1.5868(5) -0.9984(3) -0.3332(2)
O5A O -1.9379(4) -0.7824(2) -0.02388(16)
O6A O -1.8801(4) -0.6305(2) -0.05165(17)
O7A O -1.5516(4) -1.0934(2) -0.33317(16)
O8A O -1.5648(4) -0.9577(2) -0.38539(16)
Zn1A Zn -1.44774(5) -0.19141(4) 0.58013(2)
Cl1A Cl -1.35571(14) -0.32452(9) 0.61721(6)
Zn3A Zn -2.05109(6) -0.70340(4) 0.06652(2)
Cl2A Cl -2.15485(13) -0.83684(9) 0.09813(6)
O2A_2 O -0.6353(4) -0.1269(2) 0.45781(17)
O4A_2 O 0.0781(4) 0.5275(3) 1.11174(16)
O6A_2 O 0.1199(4) 0.3695(2) 0.94835(17)
O7_2 O -0.4484(4) 0.0934(2) 0.33317(16)
O7A_2 O -1.5516(4) -0.0934(2) 0.66683(16)
O8_2 O -0.4352(4) -0.0423(2) 0.38539(16)
O8A_2 O -0.5648(4) 0.0423(2) 0.61461(16)
O10A_2 O -2.1612(3) -0.6093(2) 0.02012(15)
O10A_3 O -0.1612(3) 0.3907(2) 1.02012(15)
O11A_2 O -0.3405(3) -0.1068(2) 0.52528(16)
Zn1_2 Zn -0.55226(5) 1.19141(4) 1.41987(2)
Zn1A_2 Zn -1.44774(5) -1.19141(4) -0.41987(2)
Zn2_2 Zn -1.5000 -1.0000 -0.5000
Zn2_3 Zn -1.5000 0.0000 0.5000
Zn2_4 Zn -0.5000 1.0000 1.5000
Zn3A_2 Zn 0.94891(6) 0.29660(4) 1.06652(2)
Zn4_2 Zn -2.0000 -0.5000 0.0000
Zn4_3 Zn 1.0000 0.5000 1.0000
C25 C 0.7856(9) 1.1092(5) 0.8072(4)
H13 H 0.7914 1.1771 0.8527
H14 H 0.7042 1.1105 0.7748
H15 H 0.8667 1.1042 0.7761
N1 N 0.7775(6) 1.0155(3) 0.8335(2)
N2 N 0.7037(5) 0.8612(4) 0.8450(2)
C26 C 0.6861(6) 0.9283(4) 0.8058(3)
H16 H 0.6202 0.9189 0.7644
C27 C 0.8529(6) 0.9975(5) 0.8925(3)
H17 H 0.9256 1.0433 0.9220
C28 C 0.8065(6) 0.9030(4) 0.9018(3)
H18 H 0.8382 0.8715 0.9397
C29 C 0.6190(7) 0.7637(5) 0.8360(3)
H19 H 0.6776 0.7037 0.8405
H20 H 0.5750 0.7388 0.7829
C30 C 0.5106(7) 0.7840(5) 0.8958(3)
H21 H 0.4476 0.7191 0.8806
H22 H 0.4575 0.8484 0.8940
C31 C 0.5616(8) 0.8051(6) 0.9793(3)
H23 H 0.6310 0.8656 0.9931
H24 H 0.6069 0.7380 0.9824
C32 C 0.4511(8) 0.8358(5) 1.0400(3)
H25 H 0.4928 0.8518 1.0927
H26 H 0.3856 0.7741 1.0295
H27 H 0.4040 0.9012 1.0368
C33 C -0.0147(7) 0.7808(6) 0.7103(4)
H28 H 0.0112 0.8587 0.7222
H29 H -0.0439 0.7685 0.7582
H30 H -0.0896 0.7613 0.6708
N3 N 0.1016(5) 0.7123(4) 0.6802(2)
N4 N 0.2647(5) 0.5966(3) 0.6682(2)
C34 C 0.1611(6) 0.6433(4) 0.7118(3)
H31 H 0.1340 0.6297 0.7578
C35 C 0.1717(7) 0.7073(5) 0.6131(3)
H32 H 0.1514 0.7479 0.5788
C36 C 0.2718(7) 0.6358(5) 0.6056(3)
H33 H 0.3357 0.6157 0.5651
C37 C 0.3545(7) 0.5147(5) 0.6828(3)
H34 H 0.3421 0.5134 0.7366
H35 H 0.4503 0.5365 0.6792
C38 C 0.3260(8) 0.3986(5) 0.6241(4)
H36 H 0.3405 0.4001 0.5705
H37 H 0.3924 0.3473 0.6347
C39 C 0.1824(11) 0.3542(6) 0.6271(5)
H38 H 0.1857 0.2736 0.6169
H39 H 0.1481 0.3890 0.6804
C40 C 0.0864(11) 0.3760(9) 0.5690(5)
H40 H -0.0059 0.3528 0.5766
H41 H 0.1137 0.3344 0.5158
H42 H 0.0881 0.4551 0.5761
loop_
_geom_bond_atom_site_label_1
_geom_bond_atom_site_label_2
_geom_bond_site_symmetry_1
_geom_bond_site_symmetry_2
C1 C2 1_555 1_555
C2 H1 1_555 1_555
C3 C2 1_555 1_555
H2 C3 1_555 1_555
C4 C3 1_555 1_555
C5 C4 1_555 1_555
H3 C5 1_555 1_555
C6 C1 1_555 1_555
H4 C6 1_555 1_555
C7 C4 1_555 1_555
C8 C1 1_555 1_555
O1 C8 1_555 1_555
O2 C8 1_555 1_555
O3 C7 1_555 1_555
O4 C7 1_555 1_555
C9 C10 1_555 1_555
C10 H5 1_555 1_555
C11 C10 1_555 1_555
H6 C11 1_555 1_555
C12 C11 1_555 1_555
C13 C12 1_555 1_555
H7 C13 1_555 1_555
C14 C9 1_555 1_555
H8 C14 1_555 1_555
C15 C9 1_555 1_555
C16 C12 1_555 1_555
O5 C15 1_555 1_555
O6 C15 1_555 1_555
O7 C16 1_555 1_555
O8 C16 1_555 1_555
C17 C19 1_555 1_555
C18 H9 1_555 1_555
C19 C18 1_555 1_555
C20 C19 1_555 1_555
H10 C20 1_555 1_555
O9 C17 1_555 1_555
O10 C17 1_555 1_555
C21 C22 1_555 1_555
C22 C23 1_555 1_555
C23 H11 1_555 1_555
C24 C23 1_555 1_555
H12 C24 1_555 1_555
O11 C21 1_555 1_555
O12 C21 1_555 1_555
Zn1 O1 1_555 1_555
Zn2 O2 1_555 1_555
Cl1 Zn1 1_555 1_555
Zn3 O3 1_555 1_555
Zn4 O4 1_555 1_555
Cl2 Zn3 1_555 1_555
C25 H13 1_555 1_555
H14 C25 1_555 1_555
H15 C25 1_555 1_555
N1 C25 1_555 1_555
N2 C26 1_555 1_555
C26 N1 1_555 1_555
H16 C26 1_555 1_555
C27 N1 1_555 1_555
H17 C27 1_555 1_555
C28 N2 1_555 1_555
H18 C28 1_555 1_555
C29 N2 1_555 1_555
H19 C29 1_555 1_555
H20 C29 1_555 1_555
C30 C29 1_555 1_555
H21 C30 1_555 1_555
H22 C30 1_555 1_555
C31 C30 1_555 1_555
H23 C31 1_555 1_555
H24 C31 1_555 1_555
C32 C31 1_555 1_555
H25 C32 1_555 1_555
H26 C32 1_555 1_555
H27 C32 1_555 1_555
C33 H28 1_555 1_555
H29 C33 1_555 1_555
H30 C33 1_555 1_555
N3 C33 1_555 1_555
N4 C34 1_555 1_555
C34 N3 1_555 1_555
H31 C34 1_555 1_555
C35 N3 1_555 1_555
H32 C35 1_555 1_555
C36 N4 1_555 1_555
H33 C36 1_555 1_555
C37 N4 1_555 1_555
H34 C37 1_555 1_555
H35 C37 1_555 1_555
C38 C37 1_555 1_555
H36 C38 1_555 1_555
H37 C38 1_555 1_555
C39 C38 1_555 1_555
H38 C39 1_555 1_555
H39 C39 1_555 1_555
C40 C39 1_555 1_555
H40 C40 1_555 1_555
H41 C40 1_555 1_555
H42 C40 1_555 1_555
C17A C19A 1_555 1_555
C18A C20 1_555 1_555
H9A C18A 1_555 1_555
C19A C18A 1_555 1_555
C20A C18 1_555 1_555
H10A C20A 1_555 1_555
O9A C17A 1_555 1_555
O10A C17A 1_555 1_555
C21A C22A 1_555 1_555
C22A C24 1_555 1_555
C23A C22A 1_555 1_555
H11A C23A 1_555 1_555
C24A C22 1_555 1_555
H12A C24A 1_555 1_555
O11A C21A 1_555 1_555
O12A C21A 1_555 1_555
C1A C2A 1_555 1_555
C2A H1A 1_555 1_555
C3A C2A 1_555 1_555
H2A C3A 1_555 1_555
C4A C3A 1_555 1_555
C5A C4A 1_555 1_555
H3A C5A 1_555 1_555
C6A C1A 1_555 1_555
H4A C6A 1_555 1_555
C7A C4A 1_555 1_555
C8A C1A 1_555 1_555
O1A C8A 1_555 1_555
O2A C8A 1_555 1_555
O3A C7A 1_555 1_555
O4A C7A 1_555 1_555
C9A C10A 1_555 1_555
C10A H5A 1_555 1_555
C11A C10A 1_555 1_555
H6A C11A 1_555 1_555
C12A C11A 1_555 1_555
C13A C12A 1_555 1_555
H7A C13A 1_555 1_555
C14A C9A 1_555 1_555
H8A C14A 1_555 1_555
C15A C9A 1_555 1_555
C16A C12A 1_555 1_555
O5A C15A 1_555 1_555
O6A C15A 1_555 1_555
O7A C16A 1_555 1_555
O8A C16A 1_555 1_555
Zn1A O11A 1_555 1_555
Cl1A Zn1A 1_555 1_555
Zn3A O3A 1_555 1_555
Cl2A Zn3A 1_555 1_555
O2A_2 Zn2 1_555 1_555
O4A_2 Zn4 1_555 1_555
O6A_2 Zn4 1_555 1_555
O7_2 Zn1 1_555 1_555
O7A_2 Zn1A 1_555 1_555
O8_2 Zn2 1_555 1_555
O8A_2 Zn2 1_555 1_555
O10A_2 Zn3A 1_555 1_555
O10A_3 Zn4 1_555 1_555
O11A_2 Zn2 1_555 1_555
Zn1_2 O7 1_555 1_555
Zn1A_2 O7A 1_555 1_555
Zn2_2 O8A 1_555 1_555
Zn2_3 O11A 1_555 1_555
Zn2_4 O8 1_555 1_555
Zn3A_2 O10A 1_555 1_555
Zn4_2 O4A 1_555 1_555
Zn4_3 O10A 1_555 1_555
C5 C6 1_555 1_555
C13 C14 1_555 1_555
O5 Zn3 1_555 1_555
O6 Zn4 1_555 1_555
O10 Zn3 1_555 1_555
O10 Zn4 1_555 1_555
O11 Zn1 1_555 1_555
O11 Zn2 1_555 1_555
C27 C28 1_555 1_555
C35 C36 1_555 1_555
C19A C20A 1_555 1_555
C23A C24A 1_555 1_555
C5A C6A 1_555 1_555
O1A Zn1A 1_555 1_555
O2A Zn2_3 1_555 1_555
C13A C14A 1_555 1_555
O5A Zn3A 1_555 1_555
O6A Zn4_2 1_555 1_555
O10A_2 Zn4_2 1_555 1_555

#END
