
#######################################################################
#
#                 Cambridge Crystallographic Data Centre
#                                CCDC 
#
#######################################################################
#
# If this CIF has been generated from an entry in the Cambridge 
# Structural Database, then it will include bibliographic, chemical, 
# crystal, experimental, refinement or atomic coordinate data resulting 
# from the CCDC's data processing and validation procedures.
#
#######################################################################

data_SIVCAD
_symmetry_cell_setting           triclinic
_symmetry_space_group_name_H-M   'P -1'
_symmetry_Int_Tables_number      2
_space_group_name_Hall           '-P 1'
loop_
_symmetry_equiv_pos_site_id
_symmetry_equiv_pos_as_xyz
1 x,y,z
2 -x,-y,-z
_cell_length_a                   9.8465(16)
_cell_length_b                   12.963(2)
_cell_length_c                   18.047(3)
_cell_angle_alpha                109.695(4)
_cell_angle_beta                 91.397(5)
_cell_angle_gamma                90.383(4)
_cell_volume                     2167.85
loop_
_atom_site_label
_atom_site_type_symbol
_atom_site_fract_x
_atom_site_fract_y
_atom_site_fract_z
C1 C 0.7027(5) 0.3048(3) 0.6259(2)
C2 C 0.7569(7) 0.2645(4) 0.6805(3)
H1 H 0.7517 0.1896 0.6717
C3 C 0.8200(7) 0.3335(4) 0.7492(3)
H2 H 0.8540 0.3050 0.7866
C4 C 0.8322(5) 0.4445(3) 0.7620(2)
C5 C 0.7774(5) 0.4855(3) 0.7060(2)
H3 H 0.7837 0.5602 0.7143
C6 C 0.7136(5) 0.4164(3) 0.6381(2)
H4 H 0.6781 0.4444 0.6007
C7 C 0.9001(5) 0.5166(3) 0.8374(2)
C8 C 0.6283(5) 0.2296(3) 0.5546(2)
O1 O 0.5708(4) 0.2712(2) 0.50786(16)
O2 O 0.6260(4) 0.1297(2) 0.54585(18)
O3 O 0.9336(3) 0.6136(2) 0.84180(16)
O4 O 0.9172(4) 0.4762(3) 0.88965(16)
C9 C 0.8056(5) 0.8030(3) 1.1343(2)
C10 C 0.7528(6) 0.7589(4) 1.1873(3)
H5 H 0.7642 0.6848 1.1793
C11 C 0.6839(6) 0.8218(4) 1.2513(3)
H6 H 0.6495 0.7906 1.2866
C12 C 0.6652(5) 0.9331(3) 1.2637(2)
C13 C 0.7173(5) 0.9774(4) 1.2102(2)
H7 H 0.7044 1.0511 1.2174
C14 C 0.7874(5) 0.9141(3) 1.1469(2)
H8 H 0.8232 0.9453 1.1121
C15 C 0.8814(4) 0.7316(3) 1.0645(2)
C16 C 0.5902(4) 1.0015(3) 1.3343(2)
O5 O 0.9371(3) 0.7783(2) 1.02180(16)
O6 O 0.8840(4) 0.6314(2) 1.05412(18)
O7 O 0.5524(4) 1.0947(2) 1.33408(16)
O8 O 0.5701(4) 0.9612(3) 1.38659(15)
C17 C 1.2598(5) 0.5639(4) 0.9312(3)
C18 C 1.4892(5) 0.4820(4) 0.9197(3)
H9 H 1.4825 0.4689 0.8658
C19 C 1.3821(5) 0.5291(4) 0.9670(2)
C20 C 1.3924(5) 0.5462(4) 1.0474(3)
H10 H 1.3202 0.5766 1.0794
O9 O 1.2557(4) 0.5562(3) 0.86155(19)
O10 O 1.1611(3) 0.6067(2) 0.97874(16)
C21 C 0.2329(5) 0.0621(4) 0.4280(3)
C22 C 0.1136(5) 0.0274(4) 0.4655(2)
C23 C 0.1151(5) 0.0444(4) 0.5453(3)
H11 H 0.1919 0.0748 0.5762
C24 C -0.0018(5) -0.0163(4) 0.4205(3)
H12 H -0.0038 -0.0270 0.3669
O11 O 0.3380(3) 0.1039(2) 0.47310(16)
O12 O 0.2256(4) 0.0534(4) 0.35781(19)
Zn1 Zn 0.44510(5) 0.18961(4) 0.42035(2)
Zn2 Zn 0.5000 0.0000 0.5000
Cl1 Cl 0.35103(16) 0.32029(11) 0.38331(8)
Zn3 Zn 1.05197(5) 0.69941(4) 0.93137(2)
Zn4 Zn 1.0000 0.5000 1.0000
Cl2 Cl 1.15195(15) 0.83341(10) 0.90104(8)
C17A C 1.7402(5) 0.4361(4) 1.0688(3)
C18A C 1.5108(5) 0.5180(4) 1.0803(3)
H9A H 1.5175 0.5311 1.1342
C19A C 1.6179(5) 0.4709(4) 1.0330(2)
C20A C 1.6076(5) 0.4538(4) 0.9526(3)
H10A H 1.6798 0.4234 0.9206
O9A O 1.7443(4) 0.4438(3) 1.13845(19)
O10A O 1.8389(3) 0.3933(2) 1.02126(16)
C21A C -0.2329(5) -0.0621(4) 0.5720(3)
C22A C -0.1136(5) -0.0274(4) 0.5345(2)
C23A C -0.1151(5) -0.0444(4) 0.4547(3)
H11A H -0.1919 -0.0748 0.4238
C24A C 0.0018(5) 0.0163(4) 0.5795(3)
H12A H 0.0038 0.0270 0.6331
O11A O -0.3380(3) -0.1039(2) 0.52690(16)
O12A O -0.2256(4) -0.0534(4) 0.64219(19)
C1A C -0.7027(5) -0.3048(3) 0.3741(2)
C2A C -0.7569(7) -0.2645(4) 0.3195(3)
H1A H -0.7517 -0.1896 0.3283
C3A C -0.8200(7) -0.3335(4) 0.2508(3)
H2A H -0.8540 -0.3050 0.2134
C4A C -0.8322(5) -0.4445(3) 0.2380(2)
C5A C -0.7774(5) -0.4855(3) 0.2940(2)
H3A H -0.7837 -0.5602 0.2857
C6A C -0.7136(5) -0.4164(3) 0.3619(2)
H4A H -0.6781 -0.4444 0.3993
C7A C -0.9001(5) -0.5166(3) 0.1626(2)
C8A C -0.6283(5) -0.2296(3) 0.4454(2)
O1A O -0.5708(4) -0.2712(2) 0.49214(16)
O2A O -0.6260(4) -0.1297(2) 0.45415(18)
O3A O -0.9336(3) -0.6136(2) 0.15820(16)
O4A O -0.9172(4) -0.4762(3) 0.11035(16)
C9A C -0.8056(5) -0.8030(3) -0.1343(2)
C10A C -0.7528(6) -0.7589(4) -0.1873(3)
H5A H -0.7642 -0.6848 -0.1793
C11A C -0.6839(6) -0.8218(4) -0.2513(3)
H6A H -0.6495 -0.7906 -0.2866
C12A C -0.6652(5) -0.9331(3) -0.2637(2)
C13A C -0.7173(5) -0.9774(4) -0.2102(2)
H7A H -0.7044 -1.0511 -0.2174
C14A C -0.7874(5) -0.9141(3) -0.1469(2)
H8A H -0.8232 -0.9453 -0.1121
C15A C -0.8814(4) -0.7316(3) -0.0645(2)
C16A C -0.5902(4) -1.0015(3) -0.3343(2)
O5A O -0.9371(3) -0.7783(2) -0.02180(16)
O6A O -0.8840(4) -0.6314(2) -0.05412(18)
O7A O -0.5524(4) -1.0947(2) -0.33408(16)
O8A O -0.5701(4) -0.9612(3) -0.38659(15)
Zn1A Zn -0.44510(5) -0.18961(4) 0.57965(2)
Cl1A Cl -0.35103(16) -0.32029(11) 0.61669(8)
Zn3A Zn -1.05197(5) -0.69941(4) 0.06863(2)
Cl2A Cl -1.15195(15) -0.83341(10) 0.09896(8)
O2A_2 O 0.3740(4) -0.1297(2) 0.45415(18)
O4A_2 O 1.0828(4) 0.5238(3) 1.11035(16)
O6A_2 O 1.1160(4) 0.3686(2) 0.94588(18)
O7_2 O 0.5524(4) 0.0947(2) 0.33408(16)
O7A_2 O -0.5524(4) -0.0947(2) 0.66592(16)
O8_2 O 0.5701(4) -0.0388(3) 0.38659(15)
O8A_2 O 0.4299(4) 0.0388(3) 0.61341(15)
O10A_2 O -1.1611(3) -0.6067(2) 0.02126(16)
O10A_3 O 0.8389(3) 0.3933(2) 1.02126(16)
O11A_2 O 0.6620(3) -0.1039(2) 0.52690(16)
Zn1_2 Zn 0.44510(5) 1.18961(4) 1.42035(2)
Zn1A_2 Zn -0.44510(5) -1.18961(4) -0.42035(2)
Zn2_2 Zn -0.5000 -1.0000 -0.5000
Zn2_3 Zn -0.5000 0.0000 0.5000
Zn2_4 Zn 0.5000 1.0000 1.5000
Zn3A_2 Zn 1.94803(5) 0.30059(4) 1.06863(2)
Zn4_2 Zn -1.0000 -0.5000 0.0000
Zn4_3 Zn 2.0000 0.5000 1.0000
C25 C 1.2181(11) 0.8878(6) 1.1871(5)
H13 H 1.2112 0.8235 1.1409
H14 H 1.1410 0.8905 1.2192
H15 H 1.2999 0.8851 1.2165
N1 N 1.2216(7) 0.9840(5) 1.1641(3)
N2 N 1.2977(6) 1.1345(4) 1.1551(3)
C26 C 1.3139(8) 1.0673(6) 1.1933(3)
H16 H 1.3775 1.0745 1.2337
C27 C 1.1487(8) 1.0028(6) 1.1070(4)
H17 H 1.0774 0.9593 1.0778
C28 C 1.1975(7) 1.0975(5) 1.0990(4)
H18 H 1.1681 1.1298 1.0627
C29 C 1.3830(8) 1.2301(6) 1.1663(4)
H19 H 1.3253 1.2907 1.1669
H20 H 1.4283 1.2494 1.2177
C30 C 1.4847(9) 1.2187(8) 1.1083(4)
H21 H 1.5483 1.1643 1.1130
H22 H 1.5344 1.2878 1.1226
C31 C 1.4431(10) 1.1880(9) 1.0240(5)
H23 H 1.3830 1.2445 1.0192
H24 H 1.3890 1.1211 1.0108
C32 C 1.5486(9) 1.1701(7) 0.9612(4)
H25 H 1.5038 1.1551 0.9107
H26 H 1.6041 1.1091 0.9604
H27 H 1.6048 1.2347 0.9727
C33 C 0.9906(9) 0.7893(7) 0.7077(5)
H28 H 1.0165 0.8643 0.7172
H29 H 0.9632 0.7810 0.7561
H30 H 0.9163 0.7690 0.6700
N3 N 1.1042(7) 0.7198(5) 0.6777(3)
N4 N 1.2617(6) 0.5985(5) 0.6657(3)
C34 C 1.1579(8) 0.6496(6) 0.7089(4)
H31 H 1.1280 0.6377 0.7538
C35 C 1.1745(9) 0.7124(7) 0.6126(5)
H32 H 1.1585 0.7528 0.5794
C36 C 1.2707(9) 0.6373(7) 0.6038(4)
H33 H 1.3323 0.6154 0.5634
C37 C 1.3410(11) 0.5067(8) 0.6761(5)
H34 H 1.3266 0.5048 0.7287
H35 H 1.4368 0.5216 0.6725
C38 C 1.3056(14) 0.3955(9) 0.6173(8)
H36 H 1.3142 0.3979 0.5645
H37 H 1.3697 0.3425 0.6239
C39 C 1.1636(16) 0.3584(13) 0.6264(9)
H38 H 1.1626 0.2822 0.6233
H39 H 1.1282 0.4025 0.6767
C40 C 1.0855(16) 0.3721(14) 0.5636(8)
H40 H 0.9906 0.3681 0.5736
H41 H 1.1064 0.3153 0.5153
H42 H 1.1064 0.4422 0.5592
loop_
_geom_bond_atom_site_label_1
_geom_bond_atom_site_label_2
_geom_bond_site_symmetry_1
_geom_bond_site_symmetry_2
C1 C2 1_555 1_555
C2 H1 1_555 1_555
C3 C2 1_555 1_555
H2 C3 1_555 1_555
C4 C3 1_555 1_555
C5 C4 1_555 1_555
H3 C5 1_555 1_555
C6 C1 1_555 1_555
H4 C6 1_555 1_555
C7 C4 1_555 1_555
C8 C1 1_555 1_555
O1 C8 1_555 1_555
O2 C8 1_555 1_555
O3 C7 1_555 1_555
O4 C7 1_555 1_555
C9 C10 1_555 1_555
C10 H5 1_555 1_555
C11 C10 1_555 1_555
H6 C11 1_555 1_555
C12 C11 1_555 1_555
C13 C12 1_555 1_555
H7 C13 1_555 1_555
C14 C9 1_555 1_555
H8 C14 1_555 1_555
C15 C9 1_555 1_555
C16 C12 1_555 1_555
O5 C15 1_555 1_555
O6 C15 1_555 1_555
O7 C16 1_555 1_555
O8 C16 1_555 1_555
C17 C19 1_555 1_555
C18 H9 1_555 1_555
C19 C18 1_555 1_555
C20 C19 1_555 1_555
H10 C20 1_555 1_555
O9 C17 1_555 1_555
O10 C17 1_555 1_555
C21 C22 1_555 1_555
C22 C23 1_555 1_555
C23 H11 1_555 1_555
C24 C22 1_555 1_555
H12 C24 1_555 1_555
O11 C21 1_555 1_555
O12 C21 1_555 1_555
Zn1 O1 1_555 1_555
Zn2 O2 1_555 1_555
Cl1 Zn1 1_555 1_555
Zn3 O3 1_555 1_555
Zn4 O4 1_555 1_555
Cl2 Zn3 1_555 1_555
C25 H13 1_555 1_555
H14 C25 1_555 1_555
H15 C25 1_555 1_555
N1 C25 1_555 1_555
N2 C26 1_555 1_555
C26 N1 1_555 1_555
H16 C26 1_555 1_555
C27 N1 1_555 1_555
H17 C27 1_555 1_555
C28 N2 1_555 1_555
H18 C28 1_555 1_555
C29 N2 1_555 1_555
H19 C29 1_555 1_555
H20 C29 1_555 1_555
C30 C29 1_555 1_555
H21 C30 1_555 1_555
H22 C30 1_555 1_555
C31 C30 1_555 1_555
H23 C31 1_555 1_555
H24 C31 1_555 1_555
C32 C31 1_555 1_555
H25 C32 1_555 1_555
H26 C32 1_555 1_555
H27 C32 1_555 1_555
C33 H28 1_555 1_555
H29 C33 1_555 1_555
H30 C33 1_555 1_555
N3 C33 1_555 1_555
N4 C34 1_555 1_555
C34 N3 1_555 1_555
H31 C34 1_555 1_555
C35 N3 1_555 1_555
H32 C35 1_555 1_555
C36 N4 1_555 1_555
H33 C36 1_555 1_555
C37 N4 1_555 1_555
H34 C37 1_555 1_555
H35 C37 1_555 1_555
C38 C37 1_555 1_555
H36 C38 1_555 1_555
H37 C38 1_555 1_555
C39 C38 1_555 1_555
H38 C39 1_555 1_555
H39 C39 1_555 1_555
C40 C39 1_555 1_555
H40 C40 1_555 1_555
H41 C40 1_555 1_555
H42 C40 1_555 1_555
C17A C19A 1_555 1_555
C18A C20 1_555 1_555
H9A C18A 1_555 1_555
C19A C18A 1_555 1_555
C20A C18 1_555 1_555
H10A C20A 1_555 1_555
O9A C17A 1_555 1_555
O10A C17A 1_555 1_555
C21A C22A 1_555 1_555
C22A C23A 1_555 1_555
C23A C24 1_555 1_555
H11A C23A 1_555 1_555
C24A C23 1_555 1_555
H12A C24A 1_555 1_555
O11A C21A 1_555 1_555
O12A C21A 1_555 1_555
C1A C2A 1_555 1_555
C2A H1A 1_555 1_555
C3A C2A 1_555 1_555
H2A C3A 1_555 1_555
C4A C3A 1_555 1_555
C5A C4A 1_555 1_555
H3A C5A 1_555 1_555
C6A C1A 1_555 1_555
H4A C6A 1_555 1_555
C7A C4A 1_555 1_555
C8A C1A 1_555 1_555
O1A C8A 1_555 1_555
O2A C8A 1_555 1_555
O3A C7A 1_555 1_555
O4A C7A 1_555 1_555
C9A C10A 1_555 1_555
C10A H5A 1_555 1_555
C11A C10A 1_555 1_555
H6A C11A 1_555 1_555
C12A C11A 1_555 1_555
C13A C12A 1_555 1_555
H7A C13A 1_555 1_555
C14A C9A 1_555 1_555
H8A C14A 1_555 1_555
C15A C9A 1_555 1_555
C16A C12A 1_555 1_555
O5A C15A 1_555 1_555
O6A C15A 1_555 1_555
O7A C16A 1_555 1_555
O8A C16A 1_555 1_555
Zn1A O11A 1_555 1_555
Cl1A Zn1A 1_555 1_555
Zn3A O3A 1_555 1_555
Cl2A Zn3A 1_555 1_555
O2A_2 Zn2 1_555 1_555
O4A_2 Zn4 1_555 1_555
O6A_2 Zn4 1_555 1_555
O7_2 Zn1 1_555 1_555
O7A_2 Zn1A 1_555 1_555
O8_2 Zn2 1_555 1_555
O8A_2 Zn2 1_555 1_555
O10A_2 Zn3A 1_555 1_555
O10A_3 Zn4 1_555 1_555
O11A_2 Zn2 1_555 1_555
Zn1_2 O7 1_555 1_555
Zn1A_2 O7A 1_555 1_555
Zn2_2 O8A 1_555 1_555
Zn2_3 O11A 1_555 1_555
Zn2_4 O8 1_555 1_555
Zn3A_2 O10A 1_555 1_555
Zn4_2 O4A 1_555 1_555
Zn4_3 O10A 1_555 1_555
C5 C6 1_555 1_555
C13 C14 1_555 1_555
O5 Zn3 1_555 1_555
O6 Zn4 1_555 1_555
O10 Zn3 1_555 1_555
O10 Zn4 1_555 1_555
O11 Zn1 1_555 1_555
O11 Zn2 1_555 1_555
C27 C28 1_555 1_555
C35 C36 1_555 1_555
C19A C20A 1_555 1_555
C22A C24A 1_555 1_555
C5A C6A 1_555 1_555
O1A Zn1A 1_555 1_555
O2A Zn2_3 1_555 1_555
C13A C14A 1_555 1_555
O5A Zn3A 1_555 1_555
O6A Zn4_2 1_555 1_555
O10A_2 Zn4_2 1_555 1_555

#END
