
#######################################################################
#
#                 Cambridge Crystallographic Data Centre
#                                CCDC 
#
#######################################################################
#
# If this CIF has been generated from an entry in the Cambridge 
# Structural Database, then it will include bibliographic, chemical, 
# crystal, experimental, refinement or atomic coordinate data resulting 
# from the CCDC's data processing and validation procedures.
#
#######################################################################

data_SIVCIL
_symmetry_cell_setting           monoclinic
_symmetry_space_group_name_H-M   'P 21/n'
_symmetry_Int_Tables_number      14
_space_group_name_Hall           '-P 2yn'
loop_
_symmetry_equiv_pos_site_id
_symmetry_equiv_pos_as_xyz
1 x,y,z
2 1/2-x,1/2+y,1/2-z
3 -x,-y,-z
4 1/2+x,1/2-y,1/2+z
_cell_length_a                   6.6135(3)
_cell_length_b                   19.2197(6)
_cell_length_c                   21.1949(9)
_cell_angle_alpha                90
_cell_angle_beta                 95.388(4)
_cell_angle_gamma                90
_cell_volume                     2682.17
loop_
_atom_site_label
_atom_site_type_symbol
_atom_site_fract_x
_atom_site_fract_y
_atom_site_fract_z
C1 C 0.7791(3) 0.37827(11) 0.35379(9)
H1 H 0.7831 0.3693 0.3999
H2 H 0.9138 0.3961 0.3447
C2 C 0.7339(3) 0.31131(11) 0.31777(9)
H3 H 0.8538 0.2803 0.3225
H4 H 0.6185 0.2869 0.3346
C3 C 0.7087(3) 0.28297(11) 0.20805(9)
H5 H 0.7617 0.2391 0.2220
C4 C 0.6635(3) 0.29294(10) 0.14062(9)
C5 C 0.5911(3) 0.35787(10) 0.11383(8)
C6 C 0.5483(3) 0.36065(11) 0.04666(9)
H6 H 0.5013 0.4031 0.0275
C7 C 0.5728(3) 0.30419(11) 0.00915(9)
H7 H 0.5417 0.3073 -0.0354
C8 C 0.6442(3) 0.24149(11) 0.03672(9)
C9 C 0.6898(3) 0.23596(11) 0.10130(9)
H8 H 0.7393 0.1932 0.1192
C10 C 0.4274(3) 0.41350(12) 0.36110(9)
H9 H 0.3255 0.4489 0.3480
H10 H 0.4484 0.4120 0.4075
H11 H 0.3800 0.3680 0.3450
C11 C 0.6901(3) 0.49941(11) 0.36107(9)
H12 H 0.8129 0.5137 0.3420
H13 H 0.7201 0.4958 0.4071
H14 H 0.5829 0.5340 0.3513
N1 N 0.6213(2) 0.43097(9) 0.33512(7)
N2 N 0.6830(2) 0.32878(9) 0.25056(7)
N3 N 0.6703(2) 0.18215(11) -0.00375(9)
N4 N 0.4614(2) 0.51786(9) 0.22606(7)
N5 N 0.5666(2) 0.56894(9) 0.23010(7)
N6 N 0.6631(3) 0.61943(10) 0.23371(8)
O1 O 0.56148(18) 0.41301(7) 0.14625(6)
O2 O 0.7336(2) 0.12723(9) 0.02069(8)
O3 O 0.6273(2) 0.18895(9) -0.06157(7)
Cu1 Cu 0.59302(3) 0.425125(12) 0.237230(10)
C12 C 0.1823(3) 0.60714(10) 0.10662(8)
H15 H 0.1492 0.6185 0.0613
H16 H 0.3255 0.5915 0.1126
C13 C 0.1552(3) 0.67104(11) 0.14656(8)
H17 H 0.2643 0.7051 0.1410
H18 H 0.0228 0.6933 0.1335
C14 C 0.2271(3) 0.69123(10) 0.25732(8)
H19 H 0.2680 0.7363 0.2453
C15 C 0.2417(3) 0.67546(10) 0.32427(8)
C16 C 0.1904(3) 0.60873(10) 0.34835(8)
C17 C 0.2190(3) 0.59880(11) 0.41517(8)
H20 H 0.1898 0.5547 0.4323
C18 C 0.2870(3) 0.65093(11) 0.45497(8)
H21 H 0.3059 0.6430 0.4994
C19 C 0.3291(3) 0.71626(10) 0.43047(8)
C20 C 0.3085(3) 0.72866(10) 0.36610(8)
H22 H 0.3397 0.7732 0.3502
C21 C -0.1680(3) 0.56460(11) 0.10122(8)
H23 H -0.2544 0.5263 0.1133
H24 H -0.1782 0.5686 0.0549
H25 H -0.2129 0.6082 0.1194
C22 C 0.1083(3) 0.48390(10) 0.09832(8)
H26 H 0.2448 0.4714 0.1169
H27 H 0.1088 0.4887 0.0523
H28 H 0.0123 0.4474 0.1078
N7 N 0.0465(2) 0.55051(8) 0.12548(7)
N8 N 0.1633(2) 0.64911(8) 0.21297(7)
N9 N 0.3918(2) 0.77246(9) 0.47338(7)
N10 N -0.0489(2) 0.46092(8) 0.23009(7)
N11 N 0.0643(2) 0.41164(9) 0.23117(7)
N12 N 0.1682(3) 0.36283(10) 0.23248(8)
O4 O 0.12288(18) 0.55730(7) 0.31356(5)
O5 O 0.42734(19) 0.83016(7) 0.45194(6)
O6 O 0.4048(2) 0.75990(8) 0.53109(6)
Cu2 Cu 0.08132(3) 0.552812(12) 0.222719(10)
Cu1_2 Cu -0.40698(3) 0.425125(12) 0.237230(10)
N10_2 N 0.9511(2) 0.46092(8) 0.23009(7)
loop_
_geom_bond_atom_site_label_1
_geom_bond_atom_site_label_2
_geom_bond_site_symmetry_1
_geom_bond_site_symmetry_2
C1 H1 1_555 1_555
H2 C1 1_555 1_555
C2 C1 1_555 1_555
H3 C2 1_555 1_555
H4 C2 1_555 1_555
C3 H5 1_555 1_555
C4 C3 1_555 1_555
C5 C4 1_555 1_555
C6 C5 1_555 1_555
H6 C6 1_555 1_555
C7 C6 1_555 1_555
H7 C7 1_555 1_555
C8 C7 1_555 1_555
C9 C4 1_555 1_555
H8 C9 1_555 1_555
C10 H9 1_555 1_555
H10 C10 1_555 1_555
H11 C10 1_555 1_555
C11 H12 1_555 1_555
H13 C11 1_555 1_555
H14 C11 1_555 1_555
N1 C1 1_555 1_555
N2 C2 1_555 1_555
N3 C8 1_555 1_555
N4 N5 1_555 1_555
N5 N6 1_555 1_555
O1 C5 1_555 1_555
O2 N3 1_555 1_555
O3 N3 1_555 1_555
Cu1 N1 1_555 1_555
C12 H15 1_555 1_555
H16 C12 1_555 1_555
C13 C12 1_555 1_555
H17 C13 1_555 1_555
H18 C13 1_555 1_555
C14 H19 1_555 1_555
C15 C14 1_555 1_555
C16 C15 1_555 1_555
C17 C16 1_555 1_555
H20 C17 1_555 1_555
C18 C17 1_555 1_555
H21 C18 1_555 1_555
C19 C18 1_555 1_555
C20 C15 1_555 1_555
H22 C20 1_555 1_555
C21 H23 1_555 1_555
H24 C21 1_555 1_555
H25 C21 1_555 1_555
C22 H26 1_555 1_555
H27 C22 1_555 1_555
H28 C22 1_555 1_555
N7 C12 1_555 1_555
N8 C13 1_555 1_555
N9 C19 1_555 1_555
N10 N11 1_555 1_555
N11 N12 1_555 1_555
O4 C16 1_555 1_555
O5 N9 1_555 1_555
O6 N9 1_555 1_555
Cu2 N4 1_555 1_555
Cu1_2 N10 1_555 1_555
N10_2 Cu1 1_555 1_555
C3 N2 1_555 1_555
C8 C9 1_555 1_555
C10 N1 1_555 1_555
C11 N1 1_555 1_555
N2 Cu1 1_555 1_555
N4 Cu1 1_555 1_555
O1 Cu1 1_555 1_555
C14 N8 1_555 1_555
C19 C20 1_555 1_555
C21 N7 1_555 1_555
C22 N7 1_555 1_555
N7 Cu2 1_555 1_555
N8 Cu2 1_555 1_555
N10 Cu2 1_555 1_555
N11 Cu2 1_555 1_555
O4 Cu2 1_555 1_555

#END
