
#######################################################################
#
#                 Cambridge Crystallographic Data Centre
#                                CCDC 
#
#######################################################################
#
# If this CIF has been generated from an entry in the Cambridge 
# Structural Database, then it will include bibliographic, chemical, 
# crystal, experimental, refinement or atomic coordinate data resulting 
# from the CCDC's data processing and validation procedures.
#
#######################################################################

data_SIVGOV
_symmetry_cell_setting           monoclinic
_symmetry_space_group_name_H-M   'C c'
_symmetry_Int_Tables_number      9
_space_group_name_Hall           'C -2yc'
loop_
_symmetry_equiv_pos_site_id
_symmetry_equiv_pos_as_xyz
1 x,y,z
2 x,-y,1/2+z
3 1/2+x,1/2+y,z
4 1/2+x,1/2-y,1/2+z
_cell_length_a                   12.989(2)
_cell_length_b                   13.8218(9)
_cell_length_c                   9.2766(12)
_cell_angle_alpha                90
_cell_angle_beta                 124.43(2)
_cell_angle_gamma                90
_cell_volume                     1373.68
loop_
_atom_site_label
_atom_site_type_symbol
_atom_site_fract_x
_atom_site_fract_y
_atom_site_fract_z
Zn1 Zn 0.72046(7) 0.84978(5) 0.38318(8)
N1 N 0.3674(6) 0.7336(5) 0.0439(10)
N2 N 0.5456(6) 0.8006(5) 0.2324(9)
N3 N 0.8154(6) 0.9665(5) 0.8535(9)
N4 N 0.7256(6) 0.9282(5) 0.5802(8)
N5 N 0.8116(6) 0.9023(5) 0.7488(9)
N6 N 0.3498(6) 0.8323(5) 0.0469(11)
C1 C 0.4851(7) 0.7167(5) 0.1572(11)
C2 C 0.6815(6) 1.0128(6) 0.5915(11)
N7 N 0.7350(6) 1.0395(5) 0.7567(9)
C3 C 0.5462(8) 0.6198(6) 0.1993(13)
H1 H 0.4849 0.5714 0.1282
H2 H 0.5834 0.6054 0.3205
H3 H 0.6096 0.6202 0.1763
C4 C 0.5823(8) 1.0696(7) 0.4334(11)
H4 H 0.5594 1.0357 0.3289
H5 H 0.6144 1.1323 0.4341
H6 H 0.5103 1.0769 0.4368
N8 N 0.4563(6) 0.8713(5) 0.1612(10)
Zn1A Zn 0.72046(7) 1.15022(5) 0.88318(8)
Zn1C Zn 0.22046(7) 0.65022(5) -0.11682(8)
N1C N 0.8674(6) 0.7664(5) 0.5439(10)
N7A N 0.7350(6) 0.9605(5) 0.2567(9)
N9 N 0.8341(8) 0.6650(6) 0.0336(13)
C5 C 0.9304(8) 0.8045(7) 0.1834(13)
H7 H 0.8973 0.8672 0.1296
H8 H 0.9819 0.8125 0.3094
O1 O 0.7444(5) 0.7397(5) 0.1599(9)
C6 C 0.8250(8) 0.7334(7) 0.1289(13)
C7 C 0.7495(11) 0.5847(7) -0.0334(14)
H9 H 0.6949 0.5894 0.0051
H10 H 0.7959 0.5254 0.0085
H11 H 0.7010 0.5856 -0.1588
C8 C 1.0046(9) 0.7618(8) 0.1219(14)
H12 H 1.0854 0.7398 0.2198
H13 H 1.0169 0.8085 0.0550
C9 C 0.9271(9) 0.6786(8) 0.0098(14)
H14 H 0.8922 0.6926 -0.1120
H15 H 0.9779 0.6207 0.0427
loop_
_geom_bond_atom_site_label_1
_geom_bond_atom_site_label_2
_geom_bond_site_symmetry_1
_geom_bond_site_symmetry_2
Zn1 N2 1_555 1_555
N1 N6 1_555 1_555
N2 C1 1_555 1_555
N3 N5 1_555 1_555
N4 Zn1 1_555 1_555
N5 N4 1_555 1_555
N6 N8 1_555 1_555
C1 N1 1_555 1_555
C2 N4 1_555 1_555
N7 N3 1_555 1_555
C3 C1 1_555 1_555
H1 C3 1_555 1_555
H2 C3 1_555 1_555
H3 C3 1_555 1_555
C4 C2 1_555 1_555
H4 C4 1_555 1_555
H5 C4 1_555 1_555
H6 C4 1_555 1_555
N8 N2 1_555 1_555
N9 C6 1_555 1_555
C5 H7 1_555 1_555
H8 C5 1_555 1_555
O1 C6 1_555 1_555
C6 C5 1_555 1_555
C7 N9 1_555 1_555
H9 C7 1_555 1_555
H10 C7 1_555 1_555
H11 C7 1_555 1_555
C8 C5 1_555 1_555
H12 C8 1_555 1_555
H13 C8 1_555 1_555
C9 N9 1_555 1_555
H14 C9 1_555 1_555
H15 C9 1_555 1_555
Zn1A N7 1_555 1_555
Zn1C N1 1_555 1_555
N1C Zn1 1_555 1_555
N7A Zn1 1_555 1_555
C2 N7 1_555 1_555
C8 C9 1_555 1_555

#END
