
#######################################################################
#
#                 Cambridge Crystallographic Data Centre
#                                CCDC 
#
#######################################################################
#
# If this CIF has been generated from an entry in the Cambridge 
# Structural Database, then it will include bibliographic, chemical, 
# crystal, experimental, refinement or atomic coordinate data resulting 
# from the CCDC's data processing and validation procedures.
#
#######################################################################

data_SIVGUB
_symmetry_cell_setting           monoclinic
_symmetry_space_group_name_H-M   'P 21/c'
_symmetry_Int_Tables_number      14
_space_group_name_Hall           '-P 2ybc'
loop_
_symmetry_equiv_pos_site_id
_symmetry_equiv_pos_as_xyz
1 x,y,z
2 -x,1/2+y,1/2-z
3 -x,-y,-z
4 x,1/2-y,1/2+z
_cell_length_a                   17.493(4)
_cell_length_b                   15.092(3)
_cell_length_c                   23.745(5)
_cell_angle_alpha                90
_cell_angle_beta                 97.06(3)
_cell_angle_gamma                90
_cell_volume                     6221.25
loop_
_atom_site_label
_atom_site_type_symbol
_atom_site_fract_x
_atom_site_fract_y
_atom_site_fract_z
Zn1 Zn 0.16625(3) 0.86669(4) 0.48219(3)
Zn2 Zn 0.31019(3) 0.93353(3) 0.41030(3)
O1 O 0.1917(2) 0.7697(2) 0.4370(2)
O2 O 0.3005(2) 0.8052(2) 0.40310(18)
O3 O 0.2432(2) 0.5994(3) 0.04255(19)
O4 O 0.3448(3) 0.5715(3) -0.00283(19)
O5 O 0.5992(3) 0.4589(5) 0.1985(3)
O6 O 0.5862(2) 0.4698(2) 0.10404(17)
O7 O -0.0773(3) 0.2890(3) 0.4743(3)
O8 O -0.0702(2) 0.1441(2) 0.4873(2)
O9 O 0.2497(2) 0.0419(3) 0.4188(2)
O10 O 0.1448(2) -0.0264(2) 0.4370(2)
O11 O 0.3315(2) 0.5485(3) 0.24357(18)
O12 O 0.1817(3) 0.3566(2) 0.4019(2)
O13 O 0.2584(4) 0.9338(4) 0.3224(2)
H1 H 0.3048 0.9406 0.3160
H2 H 0.2548 0.9833 0.3051
C1 C 0.2482(3) 0.7514(3) 0.4122(2)
C2 C 0.2541(3) 0.6576(3) 0.3925(2)
C3 C 0.3099(3) 0.6342(3) 0.3581(2)
H3 H 0.3441 0.6767 0.3478
C4 C 0.3145(3) 0.5484(3) 0.3394(2)
C5 C 0.2634(4) 0.4850(3) 0.3556(3)
H4 H 0.2660 0.4269 0.3428
C6 C 0.2091(4) 0.5083(3) 0.3906(3)
C7 C 0.2052(3) 0.5938(3) 0.4093(2)
H5 H 0.1693 0.6089 0.4335
C8 C 0.3694(3) 0.5253(4) 0.2968(3)
H6 H 0.4171 0.5583 0.3048
H7 H 0.3811 0.4625 0.2982
C9 C 0.3134(4) 0.5780(4) 0.0405(3)
C10 C 0.5620(4) 0.4752(4) 0.1515(3)
C11 C 0.3608(4) 0.5563(3) 0.0953(3)
C12 C 0.4367(3) 0.5270(3) 0.0983(2)
H8 H 0.4594 0.5222 0.0650
C13 C 0.4782(3) 0.5052(3) 0.1482(3)
C14 C 0.4456(4) 0.5116(4) 0.1996(3)
H9 H 0.4743 0.4970 0.2340
C15 C 0.3710(4) 0.5397(4) 0.1979(3)
C16 C 0.3262(4) 0.5614(4) 0.1460(3)
H10 H 0.2751 0.5787 0.1453
C17 C 0.1508(4) 0.4412(3) 0.4084(4)
H11 H 0.1427 0.4509 0.4476
H12 H 0.1018 0.4473 0.3847
C18 C 0.1834(3) 0.0412(3) 0.4294(3)
C19 C -0.0452(4) 0.2198(4) 0.4722(3)
C20 C 0.1405(3) 0.1288(3) 0.4299(3)
C21 C 0.0694(3) 0.1332(3) 0.4486(3)
H13 H 0.0448 0.0816 0.4580
C22 C 0.0347(3) 0.2134(3) 0.4533(3)
C23 C 0.0697(3) 0.2907(3) 0.4371(3)
H14 H 0.0450 0.3450 0.4390
C24 C 0.1410(3) 0.2865(4) 0.4183(3)
C25 C 0.1753(3) 0.2055(3) 0.4137(3)
H15 H 0.2225 0.2020 0.3996
Zn1_2 Zn 0.16625(3) -0.13331(4) 0.48219(3)
Zn1B Zn -0.16625(3) 0.13331(4) 0.51781(3)
Zn1C Zn 0.16625(3) 0.63331(4) -0.01781(3)
Zn2_2 Zn 0.31019(3) -0.06647(3) 0.41030(3)
Zn2A Zn 0.68981(3) 0.43353(3) 0.08970(3)
Zn2C Zn 0.31019(3) 0.56647(3) -0.08970(3)
O3C O 0.2432(2) 0.9006(3) 0.54255(19)
O4C O 0.3448(3) 0.9285(3) 0.49717(19)
O6A O 0.4138(2) 0.9698(2) 0.39596(17)
O8B O 0.0702(2) 0.8559(2) 0.5127(2)
O9_2 O 0.2497(2) 1.0419(3) 0.4188(2)
O10_2 O 0.1448(2) 0.9736(2) 0.4370(2)
O14 O 0.9347(7) 0.4680(8) 0.4724(6)
H16 H 0.9506 0.4570 0.5069
H17 H 0.8867 0.4605 0.4630
loop_
_geom_bond_atom_site_label_1
_geom_bond_atom_site_label_2
_geom_bond_site_symmetry_1
_geom_bond_site_symmetry_2
Zn1 O1 1_555 1_555
Zn2 O2 1_555 1_555
O1 C1 1_555 1_555
O2 C1 1_555 1_555
O3 C9 1_555 1_555
O4 C9 1_555 1_555
O5 C10 1_555 1_555
O6 C10 1_555 1_555
O7 C19 1_555 1_555
O8 C19 1_555 1_555
O9 C18 1_555 1_555
O10 C18 1_555 1_555
O11 C8 1_555 1_555
O12 C17 1_555 1_555
O13 Zn2 1_555 1_555
H1 O13 1_555 1_555
H2 O13 1_555 1_555
C1 C2 1_555 1_555
C2 C3 1_555 1_555
C3 H3 1_555 1_555
C4 C3 1_555 1_555
C5 C4 1_555 1_555
H4 C5 1_555 1_555
C6 C5 1_555 1_555
C7 C2 1_555 1_555
H5 C7 1_555 1_555
C8 C4 1_555 1_555
H6 C8 1_555 1_555
H7 C8 1_555 1_555
C9 C11 1_555 1_555
C10 C13 1_555 1_555
C11 C12 1_555 1_555
C12 H8 1_555 1_555
C13 C12 1_555 1_555
C14 C13 1_555 1_555
H9 C14 1_555 1_555
C15 O11 1_555 1_555
C16 C11 1_555 1_555
H10 C16 1_555 1_555
C17 C6 1_555 1_555
H11 C17 1_555 1_555
H12 C17 1_555 1_555
C18 C20 1_555 1_555
C19 C22 1_555 1_555
C20 C21 1_555 1_555
C21 H13 1_555 1_555
C22 C21 1_555 1_555
C23 C22 1_555 1_555
H14 C23 1_555 1_555
C24 O12 1_555 1_555
C25 C20 1_555 1_555
H15 C25 1_555 1_555
O14 H16 1_555 1_555
H17 O14 1_555 1_555
Zn1_2 O10 1_555 1_555
Zn1B O8 1_555 1_555
Zn1C O3 1_555 1_555
Zn2_2 O9 1_555 1_555
Zn2A O6 1_555 1_555
Zn2C O4 1_555 1_555
O3C Zn1 1_555 1_555
O4C Zn2 1_555 1_555
O6A Zn2 1_555 1_555
O8B Zn1 1_555 1_555
O9_2 Zn2 1_555 1_555
O10_2 Zn1 1_555 1_555
C6 C7 1_555 1_555
C14 C15 1_555 1_555
C15 C16 1_555 1_555
C23 C24 1_555 1_555
C24 C25 1_555 1_555

#END
