
#######################################################################
#
#                 Cambridge Crystallographic Data Centre
#                                CCDC 
#
#######################################################################
#
# If this CIF has been generated from an entry in the Cambridge 
# Structural Database, then it will include bibliographic, chemical, 
# crystal, experimental, refinement or atomic coordinate data resulting 
# from the CCDC's data processing and validation procedures.
#
#######################################################################

data_SIVGIP
_symmetry_cell_setting           monoclinic
_symmetry_space_group_name_H-M   'C c'
_symmetry_Int_Tables_number      9
_space_group_name_Hall           'C -2yc'
loop_
_symmetry_equiv_pos_site_id
_symmetry_equiv_pos_as_xyz
1 x,y,z
2 x,-y,1/2+z
3 1/2+x,1/2+y,z
4 1/2+x,1/2-y,1/2+z
_cell_length_a                   13.2925(11)
_cell_length_b                   13.6600(7)
_cell_length_c                   9.5631(9)
_cell_angle_alpha                90
_cell_angle_beta                 126.840(13)
_cell_angle_gamma                90
_cell_volume                     1389.68
loop_
_atom_site_label
_atom_site_type_symbol
_atom_site_fract_x
_atom_site_fract_y
_atom_site_fract_z
Zn1 Zn 0.1664(10) 0.35645(5) 0.8701(13)
N1 N 0.4941(12) 0.2004(5) 1.2089(16)
N2 N 0.3125(13) 0.2682(5) 1.0207(17)
N3 N 0.1807(12) 0.4650(5) 0.7382(16)
N4 N 0.1763(12) 0.5677(5) 0.5622(16)
N5 N 0.2610(13) 0.5983(6) 0.7296(17)
N6 N 0.4023(13) 0.1303(5) 1.1369(18)
N7 N 0.2629(13) 0.5378(5) 0.8348(15)
C1 C 0.0330(14) 0.4232(7) 0.4223(19)
H1 H 0.0143 0.3673 0.4639
H2 H 0.0652 0.4017 0.3606
H3 H -0.0423 0.4606 0.3451
C2 C 0.4356(12) 0.2833(6) 1.1323(16)
C3 C 0.1277(13) 0.4845(6) 0.5718(16)
N8 N 0.2957(13) 0.1707(7) 1.0261(17)
C4 C 0.4983(16) 0.3816(8) 1.172(2)
H4 H 0.4359 0.4308 1.1025
H5 H 0.5572 0.3802 1.1451
H6 H 0.5418 0.3964 1.2936
Zn1A Zn 0.1664(10) 0.64355(5) 0.3701(13)
Zn1C Zn 0.6664(10) 0.14355(5) 1.3701(13)
N1C N -0.0059(12) 0.2996(5) 0.7089(16)
N4A N 0.1763(12) 0.4323(5) 1.0622(16)
C5 C 0.3918(12) 0.6812(9) 1.2043(16)
H7 H 0.4434 0.6893 1.1659
H8 H 0.3548 0.6171 1.1728
H9 H 0.4424 0.6888 1.3289
N9 N 0.3027(11) 0.8272(12) 1.0201(18)
C6 C 0.2931(9) 0.7545(9) 1.1219(11)
C7 C 0.2180(16) 0.9098(15) 0.935(3)
H10 H 0.1567 0.9080 0.9575
H11 H 0.1763 0.9063 0.8113
H12 H 0.2650 0.9696 0.9798
O1 O 0.1979(10) 0.7767(10) 1.1122(18)
C8 C 0.4102(15) 0.8038(19) 1.022(3)
H13 H 0.4480 0.7441 1.0862
H14 H 0.4705 0.8559 1.0779
H15 H 0.3831 0.7958 0.9048
loop_
_geom_bond_atom_site_label_1
_geom_bond_atom_site_label_2
_geom_bond_site_symmetry_1
_geom_bond_site_symmetry_2
Zn1 N2 1_555 1_555
N1 N6 1_555 1_555
N2 C2 1_555 1_555
N3 Zn1 1_555 1_555
N4 N5 1_555 1_555
N5 N7 1_555 1_555
N6 N8 1_555 1_555
N7 N3 1_555 1_555
C1 H1 1_555 1_555
H2 C1 1_555 1_555
H3 C1 1_555 1_555
C2 N1 1_555 1_555
C3 N3 1_555 1_555
N8 N2 1_555 1_555
C4 C2 1_555 1_555
H4 C4 1_555 1_555
H5 C4 1_555 1_555
H6 C4 1_555 1_555
C5 H7 1_555 1_555
H8 C5 1_555 1_555
H9 C5 1_555 1_555
N9 C6 1_555 1_555
C6 C5 1_555 1_555
C7 N9 1_555 1_555
H10 C7 1_555 1_555
H11 C7 1_555 1_555
H12 C7 1_555 1_555
O1 C6 1_555 1_555
C8 N9 1_555 1_555
H13 C8 1_555 1_555
H14 C8 1_555 1_555
H15 C8 1_555 1_555
Zn1A N4 1_555 1_555
Zn1C N1 1_555 1_555
N1C Zn1 1_555 1_555
N4A Zn1 1_555 1_555
N4 C3 1_555 1_555
C1 C3 1_555 1_555

#END
