
#######################################################################
#
#                 Cambridge Crystallographic Data Centre
#                                CCDC 
#
#######################################################################
#
# If this CIF has been generated from an entry in the Cambridge 
# Structural Database, then it will include bibliographic, chemical, 
# crystal, experimental, refinement or atomic coordinate data resulting 
# from the CCDC's data processing and validation procedures.
#
#######################################################################

data_SIVHEM
_symmetry_cell_setting           monoclinic
_symmetry_space_group_name_H-M   'C 2/c'
_symmetry_Int_Tables_number      15
_space_group_name_Hall           '-C 2yn'
loop_
_symmetry_equiv_pos_site_id
_symmetry_equiv_pos_as_xyz
1 x,y,z
2 -x,y,1/2-z
3 1/2+x,1/2+y,z
4 1/2-x,1/2+y,1/2-z
5 -x,-y,-z
6 x,-y,1/2+z
7 1/2-x,1/2-y,-z
8 1/2+x,1/2-y,1/2+z
_cell_length_a                   26.195(7)
_cell_length_b                   10.604(3)
_cell_length_c                   18.493(5)
_cell_angle_alpha                90
_cell_angle_beta                 112.035(3)
_cell_angle_gamma                90
_cell_volume                     4761.61
loop_
_atom_site_label
_atom_site_type_symbol
_atom_site_fract_x
_atom_site_fract_y
_atom_site_fract_z
C1 C 0.0766(3) 0.2321(10) 0.4231(6)
H1 H 0.0468 0.2176 0.3768
C2 C 0.1207(4) 0.1527(11) 0.4405(6)
H2 H 0.1184 0.0827 0.4091
C3 C 0.1677(2) 0.1746(6) 0.5030(4)
C4 C 0.1657(3) 0.2802(8) 0.5447(4)
H3 H 0.1966 0.3037 0.5875
C5 C 0.1189(3) 0.3512(8) 0.5244(4)
H4 H 0.1195 0.4223 0.5542
C6 C 0.2187(2) 0.0975(6) 0.5217(3)
C7 C 0.2637(2) 0.1112(6) 0.5919(3)
H5 H 0.2619 0.1710 0.6276
C8 C 0.3106(2) 0.0398(6) 0.6103(3)
C9 C 0.3122(2) -0.0508(5) 0.5571(3)
H6 H 0.3434 -0.1006 0.5685
C10 C 0.2682(2) -0.0685(5) 0.4873(3)
C11 C 0.2220(2) 0.0064(6) 0.4700(3)
H7 H 0.1926 -0.0046 0.4228
C12 C 0.3575(2) 0.0537(6) 0.6859(3)
C13 C 0.3605(3) 0.1431(8) 0.7387(5)
H8 H 0.3328 0.2035 0.7267
C14 C 0.4031(4) 0.1478(8) 0.8096(5)
H9 H 0.4024 0.2107 0.8443
C15 C 0.4417(4) -0.0164(12) 0.7813(5)
H10 H 0.4699 -0.0759 0.7945
C16 C 0.4000(4) -0.0269(11) 0.7091(5)
H11 H 0.4012 -0.0915 0.6758
C17 C 0.2692(3) -0.1646(5) 0.4298(4)
C18 C 0.3009(3) -0.3144(6) 0.3756(4)
C19 C 0.3301(3) -0.4062(7) 0.3545(5)
H12 H 0.3660 -0.4270 0.3863
C20 C 0.3036(4) -0.4650(7) 0.2845(5)
H13 H 0.3223 -0.5260 0.2679
C21 C 0.2490(4) -0.4358(7) 0.2371(5)
H14 H 0.2321 -0.4786 0.1903
C22 C 0.2204(4) -0.3458(7) 0.2585(4)
H15 H 0.1842 -0.3262 0.2271
C23 C 0.2476(3) -0.2837(6) 0.3296(4)
Cu1 Cu 0.00436(3) 0.43012(10) 0.43962(5)
I1 I 0.04002(2) 0.67288(5) 0.46400(3)
N1 N 0.0730(2) 0.3249(6) 0.4653(3)
N2 N 0.4448(2) 0.0694(6) 0.8317(3)
N3 N 0.2278(2) -0.1899(5) 0.3653(3)
N4 N 0.3144(2) -0.2360(5) 0.4394(3)
H16 H 0.3455 -0.2327 0.4780
Cu1D Cu -0.00436(3) 0.56988(10) 0.56038(5)
Cu1G Cu 0.50436(3) 0.06988(10) 0.93962(5)
I1D I -0.04002(2) 0.32712(5) 0.53600(3)
N2G N -0.0552(2) 0.4306(6) 0.3317(3)
O1 O 0.1074(6) 0.8687(14) 0.3162(11)
H17 H 0.1257 0.8286 0.3577
H18 H 0.0793 0.9046 0.2832
O2 O 0.4701(19) 0.503(4) 0.778(2)
H19 H 0.4475 0.4424 0.7604
H20 H 0.4901 0.4791 0.7531
O3? O 0.4583(15) 0.558(6) 0.877(5)
H21? H 0.4483 0.6110 0.8401
H22? H 0.4858 0.5148 0.9058
loop_
_geom_bond_atom_site_label_1
_geom_bond_atom_site_label_2
_geom_bond_site_symmetry_1
_geom_bond_site_symmetry_2
C1 H1 1_555 1_555
C2 C1 1_555 1_555
H2 C2 1_555 1_555
C3 C2 1_555 1_555
C4 C3 1_555 1_555
H3 C4 1_555 1_555
C5 C4 1_555 1_555
H4 C5 1_555 1_555
C6 C3 1_555 1_555
C7 C6 1_555 1_555
H5 C7 1_555 1_555
C8 C7 1_555 1_555
C9 C8 1_555 1_555
H6 C9 1_555 1_555
C10 C9 1_555 1_555
C11 C6 1_555 1_555
H7 C11 1_555 1_555
C12 C8 1_555 1_555
C13 C12 1_555 1_555
H8 C13 1_555 1_555
C14 C13 1_555 1_555
H9 C14 1_555 1_555
C15 H10 1_555 1_555
C16 C12 1_555 1_555
H11 C16 1_555 1_555
C17 C10 1_555 1_555
C18 C19 1_555 1_555
C19 H12 1_555 1_555
C20 C19 1_555 1_555
H13 C20 1_555 1_555
C21 C20 1_555 1_555
H14 C21 1_555 1_555
C22 C21 1_555 1_555
H15 C22 1_555 1_555
C23 C18 1_555 1_555
Cu1 I1 1_555 1_555
I1 Cu1D 1_555 1_555
N1 C1 1_555 1_555
N2 C14 1_555 1_555
N3 C17 1_555 1_555
N4 C17 1_555 1_555
H16 N4 1_555 1_555
O1 H17 1_555 1_555
H18 O1 1_555 1_555
O2 H19 1_555 1_555
H20 O2 1_555 1_555
Cu1D Cu1 1_555 1_555
Cu1G N2 1_555 1_555
I1D Cu1 1_555 1_555
N2G Cu1 1_555 1_555
C5 N1 1_555 1_555
C10 C11 1_555 1_555
C15 C16 1_555 1_555
C15 N2 1_555 1_555
C18 N4 1_555 1_555
C22 C23 1_555 1_555
C23 N3 1_555 1_555
Cu1 N1 1_555 1_555
Cu1D I1D 1_555 1_555

#END
