
#######################################################################
#
#                 Cambridge Crystallographic Data Centre
#                                CCDC 
#
#######################################################################
#
# If this CIF has been generated from an entry in the Cambridge 
# Structural Database, then it will include bibliographic, chemical, 
# crystal, experimental, refinement or atomic coordinate data resulting 
# from the CCDC's data processing and validation procedures.
#
#######################################################################

data_SIVJAI
_symmetry_cell_setting           monoclinic
_symmetry_space_group_name_H-M   'C 2/c'
_symmetry_Int_Tables_number      15
_space_group_name_Hall           '-C 2yn'
loop_
_symmetry_equiv_pos_site_id
_symmetry_equiv_pos_as_xyz
1 x,y,z
2 1/2+x,1/2+y,z
3 -x,y,1/2-z
4 1/2-x,1/2+y,1/2-z
5 -x,-y,-z
6 1/2-x,1/2-y,-z
7 x,-y,1/2+z
8 1/2+x,1/2-y,1/2+z
_cell_length_a                   13.508(2)
_cell_length_b                   7.263(1)
_cell_length_c                   7.806(1)
_cell_angle_alpha                90
_cell_angle_beta                 122.94(1)
_cell_angle_gamma                90
_cell_volume                     642.72
loop_
_atom_site_label
_atom_site_type_symbol
_atom_site_fract_x
_atom_site_fract_y
_atom_site_fract_z
Mn1 Mn 0.2500 0.2500 0.0000
O1 O 0.3975(2) 0.1308(3) 0.0021(3)
O2 O 0.3730(2) 0.2834(3) 0.3287(3)
O3 O 0.2745(2) 0.4782(3) 0.4043(3)
C1 C 0.3609(2) 0.3790(3) 0.4498(4)
C2 C 0.4591(2) 0.3737(4) 0.6644(4)
H1 H 0.3706(42) 0.0798(66) -0.0981(70)
H2 H 0.4615(38) 0.1529(69) 0.0633(64)
C2B C 0.5409(2) 0.3737(4) 0.8356(4)
C1B C 0.6391(2) 0.3790(3) 1.0502(4)
O2B O 0.6270(2) 0.2834(3) 1.1713(3)
O3B O 0.7255(2) 0.4782(3) 1.0957(3)
O1E O 0.1025(2) 0.3692(3) -0.0021(3)
H1E H 0.1294(42) 0.4202(66) 0.0981(70)
H2E H 0.0385(38) 0.3471(69) -0.0633(64)
O2E O 0.1270(2) 0.2166(3) -0.3287(3)
O3C O 0.2255(2) -0.0218(3) 0.0957(3)
O3F O 0.2745(2) 0.5218(3) -0.0957(3)
Mn1C Mn 0.2500 0.7500 0.5000
Mn1B Mn 0.7500 0.2500 1.5000
Mn1A Mn 0.7500 0.7500 1.0000
loop_
_geom_bond_atom_site_label_1
_geom_bond_atom_site_label_2
_geom_bond_site_symmetry_1
_geom_bond_site_symmetry_2
Mn1 O1 1_555 1_555
O1 H1 1_555 1_555
O2 Mn1 1_555 1_555
O3 C1 1_555 1_555
C1 O2 1_555 1_555
C2 C1 1_555 1_555
H2 O1 1_555 1_555
C2B C2 1_555 1_555
C1B C2B 1_555 1_555
O2B C1B 1_555 1_555
O3B C1B 1_555 1_555
O1E Mn1 1_555 1_555
H1E O1E 1_555 1_555
H2E O1E 1_555 1_555
O2E Mn1 1_555 1_555
O3C Mn1 1_555 1_555
O3F Mn1 1_555 1_555
Mn1C O3 1_555 1_555
Mn1B O2B 1_555 1_555
Mn1A O3B 1_555 1_555

#END
