
#######################################################################
#
#                 Cambridge Crystallographic Data Centre
#                                CCDC 
#
#######################################################################
#
# If this CIF has been generated from an entry in the Cambridge 
# Structural Database, then it will include bibliographic, chemical, 
# crystal, experimental, refinement or atomic coordinate data resulting 
# from the CCDC's data processing and validation procedures.
#
#######################################################################

data_SIVJAJ
_symmetry_cell_setting           orthorhombic
_symmetry_space_group_name_H-M   'P n a 21'
_symmetry_Int_Tables_number      33
_space_group_name_Hall           'P 2c -2n'
loop_
_symmetry_equiv_pos_site_id
_symmetry_equiv_pos_as_xyz
1 x,y,z
2 -x,-y,1/2+z
3 1/2+x,1/2-y,z
4 1/2-x,1/2+y,1/2+z
_cell_length_a                   13.968(3)
_cell_length_b                   18.870(4)
_cell_length_c                   6.7768(14)
_cell_angle_alpha                90
_cell_angle_beta                 90
_cell_angle_gamma                90
_cell_volume                     1786.2
loop_
_atom_site_label
_atom_site_type_symbol
_atom_site_fract_x
_atom_site_fract_y
_atom_site_fract_z
Co1 Co 0.39657(3) 0.35050(2) 0.04519(9)
O1 O 0.32613(18) 0.39410(12) -0.1619(3)
O2 O 0.39716(19) 0.26989(13) -0.1242(4)
Na1 Na 0.23282(13) 0.29114(10) -0.1946(2)
N1 N 0.3958(2) 0.43091(17) 0.2094(4)
N2 N 0.4645(2) 0.30557(16) 0.2497(4)
N3 N 0.2719(2) 0.3181(2) 0.1463(5)
N4 N 0.2510(2) 0.30278(19) 0.3078(6)
N5 N 0.2259(4) 0.2882(3) 0.4591(6)
N6 N 0.5153(2) 0.38650(17) -0.0696(5)
N7 N 0.5789(2) 0.34697(17) -0.0990(5)
N8 N 0.6434(3) 0.3120(2) -0.1362(7)
C1 C 0.2928(3) 0.45936(19) -0.1618(6)
C2 C 0.2455(3) 0.4839(2) -0.3335(6)
H1 H 0.2387 0.4535 -0.4406
C3 C 0.2098(3) 0.5511(2) -0.3459(8)
H2 H 0.1787 0.5658 -0.4601
C4 C 0.2197(4) 0.5973(3) -0.1892(9)
H3 H 0.1967 0.6434 -0.1981
C5 C 0.26345(17) 0.57464(12) -0.0221(4)
H4 H 0.2678 0.6057 0.0840
C6 C 0.30201(17) 0.50719(12) -0.0021(4)
C7 C 0.35321(17) 0.49030(12) 0.1717(4)
H5 H 0.3566 0.5253 0.2681
C8 C 0.4447(3) 0.21082(18) -0.0947(6)
C9 C 0.4461(4) 0.1606(2) -0.2460(7)
H6 H 0.4124 0.1696 -0.3618
C10 C 0.4964(4) 0.0978(2) -0.2273(9)
H7 H 0.4977 0.0660 -0.3322
C11 C 0.5444(4) 0.0817(3) -0.0562(10)
H8 H 0.5768 0.0389 -0.0437
C12 C 0.5440(3) 0.1293(2) 0.0954(8)
H9 H 0.5769 0.1186 0.2109
C13 C 0.4945(3) 0.1948(2) 0.0810(7)
C14 C 0.5006(3) 0.2428(2) 0.2449(6)
H10 H 0.5332 0.2274 0.3566
C15 C 0.4609(4) 0.4243(3) 0.3790(7)
H11 H 0.5230 0.4441 0.3460
H12 H 0.4354 0.4504 0.4907
C16 C 0.4708(4) 0.3499(3) 0.4296(7)
H13 H 0.4206 0.3364 0.5211
H14 H 0.5320 0.3421 0.4937
Na1_2 Na 0.23282(13) 0.29114(10) 0.8054(2)
Na1B Na 0.73282(13) 0.20886(10) -0.1946(2)
N5_2 N 0.2259(4) 0.2882(3) -0.5409(6)
N8B N 0.1434(3) 0.1880(2) -0.1362(7)
loop_
_geom_bond_atom_site_label_1
_geom_bond_atom_site_label_2
_geom_bond_site_symmetry_1
_geom_bond_site_symmetry_2
Co1 O1 1_555 1_555
O1 Na1 1_555 1_555
O2 Co1 1_555 1_555
Na1 O2 1_555 1_555
N1 Co1 1_555 1_555
N2 Co1 1_555 1_555
N3 Co1 1_555 1_555
N4 N3 1_555 1_555
N5 N4 1_555 1_555
N6 Co1 1_555 1_555
N7 N6 1_555 1_555
N8 N7 1_555 1_555
C1 O1 1_555 1_555
C2 C1 1_555 1_555
H1 C2 1_555 1_555
C3 C2 1_555 1_555
H2 C3 1_555 1_555
C4 C3 1_555 1_555
H3 C4 1_555 1_555
C5 C4 1_555 1_555
H4 C5 1_555 1_555
C6 C1 1_555 1_555
C7 N1 1_555 1_555
H5 C7 1_555 1_555
C8 O2 1_555 1_555
C9 C8 1_555 1_555
H6 C9 1_555 1_555
C10 C9 1_555 1_555
H7 C10 1_555 1_555
C11 C10 1_555 1_555
H8 C11 1_555 1_555
C12 C11 1_555 1_555
H9 C12 1_555 1_555
C13 C8 1_555 1_555
C14 N2 1_555 1_555
H10 C14 1_555 1_555
C15 N1 1_555 1_555
H11 C15 1_555 1_555
H12 C15 1_555 1_555
C16 N2 1_555 1_555
H13 C16 1_555 1_555
H14 C16 1_555 1_555
Na1_2 N5 1_555 1_555
Na1B N8 1_555 1_555
N5_2 Na1 1_555 1_555
N8B Na1 1_555 1_555
Na1 N3 1_555 1_555
C5 C6 1_555 1_555
C6 C7 1_555 1_555
C12 C13 1_555 1_555
C13 C14 1_555 1_555
C15 C16 1_555 1_555

#END
