
#######################################################################
#
#                 Cambridge Crystallographic Data Centre
#                                CCDC 
#
#######################################################################
#
# If this CIF has been generated from an entry in the Cambridge 
# Structural Database, then it will include bibliographic, chemical, 
# crystal, experimental, refinement or atomic coordinate data resulting 
# from the CCDC's data processing and validation procedures.
#
#######################################################################

data_SIVKIT
_symmetry_cell_setting           monoclinic
_symmetry_space_group_name_H-M   'P 21/c'
_symmetry_Int_Tables_number      14
_space_group_name_Hall           '-P 2ybc'
loop_
_symmetry_equiv_pos_site_id
_symmetry_equiv_pos_as_xyz
1 x,y,z
2 -x,1/2+y,1/2-z
3 -x,-y,-z
4 x,1/2-y,1/2+z
_cell_length_a                   9.7790(2)
_cell_length_b                   10.7490(3)
_cell_length_c                   16.5570(4)
_cell_angle_alpha                90
_cell_angle_beta                 95.908(2)
_cell_angle_gamma                90
_cell_volume                     1731.14
loop_
_atom_site_label
_atom_site_type_symbol
_atom_site_fract_x
_atom_site_fract_y
_atom_site_fract_z
C1 C 0.77294(18) 0.58929(15) 0.17377(11)
H1 H 0.8245 0.6312 0.2215
C2 C 0.66543(16) 0.50106(16) 0.17675(10)
H2 H 0.6276 0.4703 0.2270
C3 C 0.62090(16) 0.46418(17) 0.09586(10)
H3 H 0.5462 0.4032 0.0790
C4 C 0.70118(18) 0.53014(17) 0.04316(10)
H4 H 0.6935 0.5227 -0.0173
C5 C 0.79463(19) 0.60705(16) 0.09091(11)
H5 H 0.8646 0.6632 0.0702
C6 C 0.99954(14) 0.35177(14) 0.18396(9)
C7 C 0.88581(15) 0.26857(14) 0.18816(10)
H6 H 0.8489 0.2389 0.2389
C8 C 0.83491(16) 0.23557(15) 0.10761(10)
H7 H 0.7554 0.1790 0.0918
C9 C 0.91440(16) 0.29773(16) 0.05346(10)
H8 H 0.9004 0.2927 -0.0071
C10 C 1.01546(15) 0.37042(16) 0.09937(9)
H9 H 1.0857 0.4246 0.0770
C11 C 1.13736(15) 0.42949(13) 0.40070(9)
C12 C 1.04581(15) 0.42562(13) 0.32802(9)
C13 C 1.09246(14) 0.39827(13) 0.25274(9)
C14 C 1.23334(15) 0.40538(14) 0.24095(9)
C15 C 1.28953(14) 0.33328(14) 0.18040(9)
C16 C 1.33325(15) 0.47466(14) 0.29067(9)
C17 C 0.90565(16) 0.44421(14) 0.34122(9)
C18 C 0.43665(17) 0.71837(16) 0.57949(10)
C19 C 0.4021(2) 0.7881(2) 0.65015(12)
H10 H 0.3475 0.7354 0.6830
H11 H 0.3487 0.8620 0.6322
H12 H 0.4868 0.8136 0.6827
Fe1 Fe 0.82390(2) 0.423767(19) 0.123579(12)
N1 N 0.79612(14) 0.46153(14) 0.35839(8)
N2 N 1.20967(14) 0.42778(13) 0.45956(8)
N3 N 1.41872(13) 0.53149(14) 0.32640(8)
N4 N 1.33910(13) 0.27369(13) 0.13384(8)
N5 N 0.46388(14) 0.66201(14) 0.52540(9)
Na1 Na 0.61487(6) 0.57665(5) 0.42724(3)
N2B N 0.79033(14) 0.57222(13) 0.54044(8)
N3_2 N 0.41872(13) 0.53149(14) 0.32640(8)
N4A N 0.66090(13) 0.77369(13) 0.36616(8)
N5B N 0.53612(14) 0.33799(14) 0.47460(9)
Na1_2 Na 1.61487(6) 0.57665(5) 0.42724(3)
Na1A Na 1.38513(6) 0.07665(5) 0.07276(3)
Na1B Na 0.38513(6) 0.42335(5) 0.57276(3)
Na1B_2 Na 1.38513(6) 0.42335(5) 0.57276(3)
loop_
_geom_bond_atom_site_label_1
_geom_bond_atom_site_label_2
_geom_bond_site_symmetry_1
_geom_bond_site_symmetry_2
C1 H1 1_555 1_555
C2 C1 1_555 1_555
H2 C2 1_555 1_555
C3 C2 1_555 1_555
H3 C3 1_555 1_555
C4 C3 1_555 1_555
H4 C4 1_555 1_555
C5 C1 1_555 1_555
H5 C5 1_555 1_555
C6 C7 1_555 1_555
C7 H6 1_555 1_555
C8 C7 1_555 1_555
H7 C8 1_555 1_555
C9 C8 1_555 1_555
H8 C9 1_555 1_555
C10 C6 1_555 1_555
H9 C10 1_555 1_555
C11 C12 1_555 1_555
C12 C13 1_555 1_555
C13 C6 1_555 1_555
C14 C13 1_555 1_555
C15 C14 1_555 1_555
C16 C14 1_555 1_555
C17 C12 1_555 1_555
C18 C19 1_555 1_555
C19 H10 1_555 1_555
H11 C19 1_555 1_555
H12 C19 1_555 1_555
Fe1 C1 1_555 1_555
N1 C17 1_555 1_555
N2 C11 1_555 1_555
N3 C16 1_555 1_555
N4 C15 1_555 1_555
N5 C18 1_555 1_555
Na1 N1 1_555 1_555
N2B Na1 1_555 1_555
N3_2 Na1 1_555 1_555
N4A Na1 1_555 1_555
N5B Na1 1_555 1_555
Na1_2 N3 1_555 1_555
Na1A N4 1_555 1_555
Na1B N5 1_555 1_555
Na1B_2 N2 1_555 1_555
C2 Fe1 1_555 1_555
C3 Fe1 1_555 1_555
C4 C5 1_555 1_555
C4 Fe1 1_555 1_555
C5 Fe1 1_555 1_555
C6 Fe1 1_555 1_555
C7 Fe1 1_555 1_555
C8 Fe1 1_555 1_555
C9 C10 1_555 1_555
C9 Fe1 1_555 1_555
C10 Fe1 1_555 1_555
N5 Na1 1_555 1_555
N5B Na1B 1_555 1_555

#END
