
#######################################################################
#
#                 Cambridge Crystallographic Data Centre
#                                CCDC 
#
#######################################################################
#
# If this CIF has been generated from an entry in the Cambridge 
# Structural Database, then it will include bibliographic, chemical, 
# crystal, experimental, refinement or atomic coordinate data resulting 
# from the CCDC's data processing and validation procedures.
#
#######################################################################

data_SIVKEO
_symmetry_cell_setting           monoclinic
_symmetry_space_group_name_H-M   'C 2/c'
_symmetry_Int_Tables_number      15
_space_group_name_Hall           '-C 2yn'
loop_
_symmetry_equiv_pos_site_id
_symmetry_equiv_pos_as_xyz
1 x,y,z
2 1/2+x,1/2+y,z
3 -x,y,1/2-z
4 1/2-x,1/2+y,1/2-z
5 -x,-y,-z
6 1/2-x,1/2-y,-z
7 x,-y,1/2+z
8 1/2+x,1/2-y,1/2+z
_cell_length_a                   31.4924(18)
_cell_length_b                   13.2986(8)
_cell_length_c                   7.4416(4)
_cell_angle_alpha                90
_cell_angle_beta                 100.2260(10)
_cell_angle_gamma                90
_cell_volume                     3067.07
loop_
_atom_site_label
_atom_site_type_symbol
_atom_site_fract_x
_atom_site_fract_y
_atom_site_fract_z
Ag1 Ag 0.142627(16) -0.02303(4) 0.14099(8)
Ag2 Ag 0.366395(17) 0.30588(4) 0.07936(8)
C1 C 0.3106(2) 0.2850(5) 0.1852(9)
C2 C 0.4258(2) 0.3202(5) 0.0037(8)
C3 C 0.1910(2) 0.0670(5) 0.2774(9)
C4 C 0.08910(19) -0.1041(5) 0.0208(8)
C5 C 0.1988(2) 0.4475(5) 0.3273(9)
H1 H 0.2267 0.4727 0.3375
C6 C 0.1648(2) 0.5109(6) 0.2690(10)
H2 H 0.1698 0.5772 0.2391
C7 C 0.1225(2) 0.4754(6) 0.2547(8)
C8 C 0.11776(19) 0.3747(6) 0.2928(9)
H3 H 0.0904 0.3465 0.2790
C9 C 0.15329(19) 0.3168(5) 0.3507(9)
H4 H 0.1491 0.2497 0.3781
C10 C 0.0792(4) 0.5190(9) 0.2039(16)
H5 H 0.0529 0.4852 0.1904
Mn1 Mn 0.2500 0.2500 0.5000
Mn2 Mn 0.5000 0.34001(9) -0.2500
N1 N 0.28463(17) 0.2753(4) 0.2694(7)
N2 N 0.45816(17) 0.3283(5) -0.0431(7)
N3 N 0.21566(17) 0.1189(4) 0.3589(7)
N4 N 0.05916(16) -0.1458(4) -0.0451(7)
N5 N 0.19364(15) 0.3506(4) 0.3705(7)
N6 N 0.0843(3) 0.6017(10) 0.1847(12)
O1 O 0.5000 0.5063(5) -0.2500
H6 H 0.5190 0.5268 -0.1685
O2 O 0.5000 0.1700(5) -0.2500
H7 H 0.4948 0.1495 -0.3555
O3 O 0.0325(3) 0.6371(7) 0.1403(11)
H8 H 0.0209 0.6224 0.2271
Ag1E Ag 0.357373(16) 0.52303(4) 0.85901(8)
Ag2E Ag 0.133605(17) 0.19412(4) 0.92064(8)
C1E C 0.1894(2) 0.2150(5) 0.8148(9)
C2E C 0.0742(2) 0.1798(5) 0.9963(8)
C3E C 0.3090(2) 0.4330(5) 0.7226(9)
C4E C 0.41090(19) 0.6041(5) 0.9792(8)
C5E C 0.3012(2) 0.0525(5) 0.6727(9)
H1E H 0.2733 0.0273 0.6625
C6E C 0.3352(2) -0.0109(6) 0.7310(10)
H2E H 0.3302 -0.0772 0.7609
C7E C 0.3775(2) 0.0246(6) 0.7453(8)
C8E C 0.38224(19) 0.1253(6) 0.7072(9)
H3E H 0.4096 0.1535 0.7210
C9E C 0.34671(19) 0.1832(5) 0.6493(9)
H4E H 0.3509 0.2503 0.6219
C10E C 0.4208(4) -0.0190(9) 0.7961(16)
H5E H 0.4471 0.0148 0.8096
Mn2A Mn 0.0000 -0.15999(9) -0.2500
Mn2F Mn 0.5000 0.65999(9) 1.2500
Mn2G Mn 0.0000 0.15999(9) 1.2500
N1E N 0.21537(17) 0.2247(4) 0.7306(7)
N2E N 0.04184(17) 0.1717(5) 1.0431(7)
N2B N 0.54184(17) 0.3283(5) -0.4569(7)
N3E N 0.28434(17) 0.3811(4) 0.6411(7)
N4E N 0.44084(16) 0.6458(4) 1.0451(7)
N4A N 0.55916(16) 0.3542(4) -0.0451(7)
N4C N 0.44084(16) 0.3542(4) -0.4549(7)
N5E N 0.30636(15) 0.1494(4) 0.6295(7)
N6E N 0.4157(3) -0.1017(10) 0.8153(12)
H6B H 0.4810 0.5268 -0.3315
H7B H 0.5052 0.1495 -0.1445
O3E O 0.4675(3) -0.1371(7) 0.8597(11)
H8E H 0.4791 -0.1224 0.7729
loop_
_geom_bond_atom_site_label_1
_geom_bond_atom_site_label_2
_geom_bond_site_symmetry_1
_geom_bond_site_symmetry_2
Ag1 C3 1_555 1_555
Ag2 C1 1_555 1_555
C1 N1 1_555 1_555
C2 Ag2 1_555 1_555
C3 N3 1_555 1_555
C4 Ag1 1_555 1_555
C5 H1 1_555 1_555
C6 C5 1_555 1_555
H2 C6 1_555 1_555
C7 C6 1_555 1_555
C8 C7 1_555 1_555
H3 C8 1_555 1_555
C9 C8 1_555 1_555
H4 C9 1_555 1_555
C10 C7 1_555 1_555
H5 C10 1_555 1_555
Mn1 N1 1_555 1_555
Mn2 N2 1_555 1_555
N2 C2 1_555 1_555
N3 Mn1 1_555 1_555
N4 C4 1_555 1_555
N5 C5 1_555 1_555
N6 C10 1_555 1_555
O1 Mn2 1_555 1_555
H6 O1 1_555 1_555
O2 Mn2 1_555 1_555
H7 O2 1_555 1_555
O3 N6 1_555 1_555
H8 O3 1_555 1_555
Ag1E C3E 1_555 1_555
Ag2E C1E 1_555 1_555
C1E N1E 1_555 1_555
C2E Ag2E 1_555 1_555
C3E N3E 1_555 1_555
C4E Ag1E 1_555 1_555
C5E H1E 1_555 1_555
C6E C5E 1_555 1_555
H2E C6E 1_555 1_555
C7E C6E 1_555 1_555
C8E C7E 1_555 1_555
H3E C8E 1_555 1_555
C9E C8E 1_555 1_555
H4E C9E 1_555 1_555
C10E C7E 1_555 1_555
H5E C10E 1_555 1_555
Mn2A N4 1_555 1_555
Mn2F N4E 1_555 1_555
Mn2G N2E 1_555 1_555
N1E Mn1 1_555 1_555
N2E C2E 1_555 1_555
N2B Mn2 1_555 1_555
N3E Mn1 1_555 1_555
N4E C4E 1_555 1_555
N4A Mn2 1_555 1_555
N4C Mn2 1_555 1_555
N5E Mn1 1_555 1_555
N6E C10E 1_555 1_555
H6B O1 1_555 1_555
H7B O2 1_555 1_555
O3E N6E 1_555 1_555
H8E O3E 1_555 1_555
C9 N5 1_555 1_555
Mn1 N5 1_555 1_555
C5E N5E 1_555 1_555
C9E N5E 1_555 1_555

#END
