
#######################################################################
#
#                 Cambridge Crystallographic Data Centre
#                                CCDC 
#
#######################################################################
#
# If this CIF has been generated from an entry in the Cambridge 
# Structural Database, then it will include bibliographic, chemical, 
# crystal, experimental, refinement or atomic coordinate data resulting 
# from the CCDC's data processing and validation procedures.
#
#######################################################################

data_SIVKEP
_symmetry_cell_setting           monoclinic
_symmetry_space_group_name_H-M   'P 21/n'
_symmetry_Int_Tables_number      14
_space_group_name_Hall           '-P 2yn'
loop_
_symmetry_equiv_pos_site_id
_symmetry_equiv_pos_as_xyz
1 x,y,z
2 1/2-x,1/2+y,1/2-z
3 -x,-y,-z
4 1/2+x,1/2-y,1/2+z
_cell_length_a                   9.9695(5)
_cell_length_b                   19.7748(6)
_cell_length_c                   11.9456(6)
_cell_angle_alpha                90
_cell_angle_beta                 113.887(6)
_cell_angle_gamma                90
_cell_volume                     2153.3
loop_
_atom_site_label
_atom_site_type_symbol
_atom_site_fract_x
_atom_site_fract_y
_atom_site_fract_z
C1 C 0.4146(3) 0.60615(13) 0.3348(2)
H1 H 0.3207 0.6044 0.3462
C2 C 0.5460(3) 0.63864(14) 0.4143(2)
H2 H 0.5611 0.6633 0.4915
C3 C 0.6521(3) 0.62961(14) 0.3643(3)
H3 H 0.7552 0.6469 0.4001
C4 C 0.5861(3) 0.59141(13) 0.2548(3)
H4 H 0.6344 0.5774 0.1997
C5 C 0.4392(3) 0.57729(12) 0.2366(2)
H5 H 0.3659 0.5515 0.1664
C6 C 0.3156(3) 0.75317(11) 0.1911(2)
C7 C 0.4570(3) 0.78093(12) 0.2649(2)
H6 H 0.4840 0.8049 0.3448
C8 C 0.5517(3) 0.76905(12) 0.2048(2)
H7 H 0.6572 0.7827 0.2352
C9 C 0.4705(3) 0.73339(12) 0.0941(2)
H8 H 0.5097 0.7173 0.0339
C10 C 0.3256(3) 0.72297(11) 0.0853(2)
H9 H 0.2449 0.6990 0.0175
C11 C -0.0573(3) 0.72226(12) 0.2006(2)
C12 C 0.0721(3) 0.70961(11) 0.1805(2)
C13 C 0.1830(2) 0.75888(11) 0.2161(2)
C14 C 0.1599(2) 0.81772(11) 0.2719(2)
C15 C 0.0328(2) 0.82389(11) 0.2988(2)
C16 C 0.0097(2) 0.87915(11) 0.3656(2)
C17 C 0.1232(3) 0.92173(11) 0.4420(2)
C18 C -0.1304(3) 0.88861(11) 0.3675(2)
C19 C 0.0778(3) 0.64759(12) 0.1206(2)
C20 C 0.2526(3) 0.87538(12) 0.2864(2)
C21 C 0.6022(4) 0.97699(17) 0.8824(3)
C22 C 0.5893(4) 0.87590(16) 0.9894(3)
H10 H 0.5682 0.8793 1.0626
H11 H 0.6524 0.8366 0.9971
H12 H 0.4972 0.8706 0.9169
C23 C 0.8045(4) 0.95021(17) 1.0749(3)
H13 H 0.8483 0.9897 1.0530
H14 H 0.8688 0.9110 1.0868
H15 H 0.7923 0.9595 1.1508
O1 O 0.4846(2) 0.96873(11) 0.79644(19)
Fe1 Fe 0.47342(4) 0.679718(17) 0.24284(3)
N1 N -0.0740(2) 0.77675(9) 0.25978(18)
N2 N -0.1698(2) 0.67837(11) 0.1613(2)
N3 N 0.0707(2) 0.59720(10) 0.0709(2)
N4 N 0.3237(2) 0.92236(10) 0.2943(2)
N5 N 0.2177(2) 0.95480(10) 0.50751(18)
N6 N -0.2440(2) 0.89784(10) 0.3684(2)
N7 N 0.6627(3) 0.93619(11) 0.9775(2)
Na1 Na 0.42692(10) 1.02689(4) 0.61387(8)
H16 H -0.242(2) 0.6855(13) 0.186(2)
H17 H -0.163(3) 0.6375(10) 0.134(2)
H18 H 0.662(3) 1.0148(13) 0.889(2)
N3A N 0.4293(2) 1.09720(10) 0.4291(2)
N3C N 0.5707(2) 0.90280(10) 0.5709(2)
N4B N 0.6763(2) 1.07764(10) 0.7057(2)
N6B N 0.2440(2) 1.10216(10) 0.6316(2)
Na1A Na 0.07308(10) 0.52689(4) -0.11387(8)
Na1B Na -0.42692(10) 0.97311(4) 0.38613(8)
Na1B_2 Na 0.57308(10) 0.97311(4) 0.38613(8)
Na1C Na -0.07308(10) 0.47311(4) 0.11387(8)
loop_
_geom_bond_atom_site_label_1
_geom_bond_atom_site_label_2
_geom_bond_site_symmetry_1
_geom_bond_site_symmetry_2
C1 H1 1_555 1_555
C2 C1 1_555 1_555
H2 C2 1_555 1_555
C3 C2 1_555 1_555
H3 C3 1_555 1_555
C4 C3 1_555 1_555
H4 C4 1_555 1_555
C5 C1 1_555 1_555
H5 C5 1_555 1_555
C6 C7 1_555 1_555
C7 H6 1_555 1_555
C8 C7 1_555 1_555
H7 C8 1_555 1_555
C9 C8 1_555 1_555
H8 C9 1_555 1_555
C10 C6 1_555 1_555
H9 C10 1_555 1_555
C11 C12 1_555 1_555
C12 C13 1_555 1_555
C13 C6 1_555 1_555
C14 C13 1_555 1_555
C15 C14 1_555 1_555
C16 C15 1_555 1_555
C17 C16 1_555 1_555
C18 C16 1_555 1_555
C19 C12 1_555 1_555
C20 C14 1_555 1_555
C21 O1 1_555 1_555
C22 H10 1_555 1_555
H11 C22 1_555 1_555
H12 C22 1_555 1_555
C23 H13 1_555 1_555
H14 C23 1_555 1_555
H15 C23 1_555 1_555
O1 Na1 1_555 1_555
Fe1 C1 1_555 1_555
N1 C11 1_555 1_555
N2 C11 1_555 1_555
N3 C19 1_555 1_555
N4 C20 1_555 1_555
N5 C17 1_555 1_555
N6 C18 1_555 1_555
N7 C21 1_555 1_555
Na1 N5 1_555 1_555
H16 N2 1_555 1_555
H17 N2 1_555 1_555
H18 C21 1_555 1_555
N3A Na1 1_555 1_555
N3C Na1 1_555 1_555
N4B Na1 1_555 1_555
N6B Na1 1_555 1_555
Na1A N3 1_555 1_555
Na1B N6 1_555 1_555
Na1B_2 N4 1_555 1_555
Na1C N3 1_555 1_555
C2 Fe1 1_555 1_555
C3 Fe1 1_555 1_555
C4 C5 1_555 1_555
C4 Fe1 1_555 1_555
C5 Fe1 1_555 1_555
C6 Fe1 1_555 1_555
C7 Fe1 1_555 1_555
C8 Fe1 1_555 1_555
C9 C10 1_555 1_555
C9 Fe1 1_555 1_555
C10 Fe1 1_555 1_555
C15 N1 1_555 1_555
C22 N7 1_555 1_555
C23 N7 1_555 1_555
N3A Na1B_2 1_555 1_555
N3C Na1B_2 1_555 1_555

#END
