
#######################################################################
#
#                 Cambridge Crystallographic Data Centre
#                                CCDC 
#
#######################################################################
#
# If this CIF has been generated from an entry in the Cambridge 
# Structural Database, then it will include bibliographic, chemical, 
# crystal, experimental, refinement or atomic coordinate data resulting 
# from the CCDC's data processing and validation procedures.
#
#######################################################################

data_SIVNOB
_symmetry_cell_setting           triclinic
_symmetry_space_group_name_H-M   'P -1'
_symmetry_Int_Tables_number      2
_space_group_name_Hall           '-P 1'
loop_
_symmetry_equiv_pos_site_id
_symmetry_equiv_pos_as_xyz
1 x,y,z
2 -x,-y,-z
_cell_length_a                   12.796(2)
_cell_length_b                   13.742(2)
_cell_length_c                   14.772(2)
_cell_angle_alpha                103.362(3)
_cell_angle_beta                 99.382(2)
_cell_angle_gamma                90.307(3)
_cell_volume                     2490.92
loop_
_atom_site_label
_atom_site_type_symbol
_atom_site_fract_x
_atom_site_fract_y
_atom_site_fract_z
Cu1 Cu 0.24999(7) 0.13468(6) 0.99664(7)
Cu2 Cu 0.57515(7) 0.33862(7) 1.04266(8)
Cu3 Cu -0.07217(7) 0.31763(8) 0.95902(8)
C1 C 0.4539(6) 0.2619(7) 1.0267(6)
C2 C 0.0486(6) 0.2505(6) 0.9720(6)
C3 C 0.3507(5) -0.0283(5) 0.8639(5)
H1 H 0.4093 0.0163 0.8783
C4 C 0.3609(5) -0.1234(5) 0.8138(5)
H2 H 0.4257 -0.1422 0.7961
C5 C 0.2759(5) -0.1920(5) 0.7890(5)
C6 C 0.1844(5) -0.1586(5) 0.8182(6)
H3 H 0.1247 -0.2017 0.8041
C7 C 0.1794(6) -0.0628(6) 0.8678(6)
H4 H 0.1148 -0.0424 0.8852
C8 C 0.2848(5) -0.2930(5) 0.7361(5)
C9 C 0.3410(5) -0.4319(5) 0.6654(5)
C10 C 0.2319(5) -0.4461(5) 0.6552(5)
C11 C 0.1783(6) -0.5367(5) 0.6061(5)
H5 H 0.1049 -0.5448 0.5987
C12 C 0.2387(7) -0.6127(6) 0.5697(5)
H6 H 0.2058 -0.6746 0.5384
C13 C 0.3486(7) -0.6002(6) 0.5781(6)
H7 H 0.3868 -0.6533 0.5509
C14 C 0.4016(6) -0.5108(6) 0.6260(6)
H8 H 0.4748 -0.5029 0.6319
C15 C 0.3207(6) 0.0010(6) 1.1240(6)
H9 H 0.3842 0.0118 1.1041
C16 C 0.3173(5) -0.0703(6) 1.1752(6)
H10 H 0.3762 -0.1074 1.1878
C17 C 0.2250(5) -0.0858(5) 1.2077(5)
C18 C 0.1409(5) -0.0274(5) 1.1860(5)
H11 H 0.0776 -0.0341 1.2077
C19 C 0.1510(5) 0.0402(5) 1.1326(5)
H12 H 0.0928 0.0773 1.1177
C20 C 0.2168(5) -0.1590(5) 1.2639(5)
C21 C 0.1596(5) -0.2594(5) 1.3379(5)
C22 C 0.0984(6) -0.3147(6) 1.3797(6)
H13 H 0.0260 -0.3064 1.3767
C23 C 0.1492(7) -0.3821(6) 1.4255(6)
H14 H 0.1100 -0.4206 1.4533
C24 C 0.2577(7) -0.3942(6) 1.4314(5)
H15 H 0.2892 -0.4399 1.4638
C25 C 0.3198(6) -0.3408(6) 1.3909(5)
H16 H 0.3923 -0.3496 1.3940
C26 C 0.2674(5) -0.2721(5) 1.3445(5)
C27 C 0.6747(6) 0.5386(6) 1.1373(6)
H17 H 0.7352 0.5056 1.1225
C28 C 0.6870(5) 0.6363(5) 1.1855(5)
H18 H 0.7542 0.6679 1.2015
C29 C 0.6005(5) 0.6888(5) 1.2107(5)
C30 C 0.5037(5) 0.6344(6) 1.1821(5)
H19 H 0.4421 0.6652 1.1968
C31 C 0.4976(5) 0.5373(6) 1.1332(6)
H20 H 0.4311 0.5043 1.1151
C32 C 0.6092(5) 0.7909(5) 1.2650(5)
C33 C 0.6810(5) 0.9400(5) 1.3401(5)
C34 C 0.7446(6) 1.0268(6) 1.3795(5)
H21 H 0.8160 1.0292 1.3743
C35 C 0.6981(7) 1.1079(6) 1.4260(6)
H22 H 0.7387 1.1666 1.4541
C36 C 0.5906(8) 1.1044(6) 1.4323(6)
H23 H 0.5613 1.1612 1.4644
C37 C 0.5270(7) 1.0198(6) 1.3925(6)
H24 H 0.4553 1.0185 1.3967
C38 C 0.5734(5) 0.9359(6) 1.3455(5)
C39 C 0.0040(6) 0.4699(6) 0.8627(6)
H25 H 0.0703 0.4454 0.8789
C40 C -0.0038(5) 0.5427(6) 0.8126(6)
H26 H 0.0566 0.5666 0.7958
C41 C -0.0993(5) 0.5798(5) 0.7874(5)
C42 C -0.1856(6) 0.5424(6) 0.8133(6)
H27 H -0.2523 0.5661 0.7973
C43 C -0.1733(6) 0.4694(6) 0.8632(6)
H28 H -0.2335 0.4445 0.8796
C44 C -0.1077(5) 0.6573(5) 0.7329(5)
C45 C -0.0747(5) 0.7592(5) 0.6496(5)
C46 C -0.0302(7) 0.8169(7) 0.5984(6)
H29 H 0.0405 0.8121 0.5911
C47 C -0.0943(9) 0.8810(7) 0.5593(6)
H30 H -0.0666 0.9191 0.5236
C48 C -0.1998(8) 0.8910(6) 0.5713(6)
H31 H -0.2403 0.9365 0.5447
C49 C -0.2444(7) 0.8355(6) 0.6211(5)
H32 H -0.3152 0.8412 0.6282
C50 C -0.1802(5) 0.7696(5) 0.6614(5)
C51 C 0.7079(6) 0.3184(6) 1.0152(7)
N1 N 0.3826(6) 0.2078(7) 1.0164(6)
N2 N 0.1209(7) 0.1993(7) 0.9776(5)
N3 N 0.2612(4) 0.0041(4) 0.8932(4)
N4 N 0.3729(4) -0.3360(4) 0.7151(4)
N5 N 0.1964(4) -0.3573(4) 0.6995(4)
H33 H 0.1316 -0.3437 0.7039
N6 N 0.2402(4) 0.0554(4) 1.1009(4)
N7 N 0.3030(4) -0.2075(4) 1.2966(4)
H34 H 0.3673 -0.1991 1.2887
N8 N 0.1290(4) -0.1880(4) 1.2880(4)
N9 N 0.5815(4) 0.4866(4) 1.1096(4)
N10 N 0.7001(4) 0.8473(4) 1.2888(4)
H35 H 0.7604 0.8283 1.2741
N11 N 0.5299(4) 0.8408(4) 1.2991(4)
N12 N -0.0807(4) 0.4320(4) 0.8896(4)
N13 N -0.0308(4) 0.6875(4) 0.6963(4)
N14 N -0.1996(4) 0.7034(4) 0.7126(4)
H36 H -0.2591 0.6926 0.7292
N15 N 0.7910(7) 0.3111(5) 0.9926(6)
Cu3_2 Cu 0.92783(7) 0.31763(8) 0.95902(8)
N15_2 N -0.2090(7) 0.3111(5) 0.9926(6)
O1 O 0.9031(4) 0.8223(5) 0.2366(4)
H37 H 0.9658 0.8133 0.2607
H40 H 0.8504 0.8444 0.2635
O2 O 0.6004(4) 0.7016(5) 0.7648(4)
H38 H 0.5964 0.7168 0.8232
H39 H 0.5337 0.6951 0.7466
loop_
_geom_bond_atom_site_label_1
_geom_bond_atom_site_label_2
_geom_bond_site_symmetry_1
_geom_bond_site_symmetry_2
Cu1 N1 1_555 1_555
Cu2 C1 1_555 1_555
Cu3 C2 1_555 1_555
C1 N1 1_555 1_555
C2 N2 1_555 1_555
C3 H1 1_555 1_555
C4 C3 1_555 1_555
H2 C4 1_555 1_555
C5 C4 1_555 1_555
C6 C5 1_555 1_555
H3 C6 1_555 1_555
C7 C6 1_555 1_555
H4 C7 1_555 1_555
C8 C5 1_555 1_555
C9 C10 1_555 1_555
C10 C11 1_555 1_555
C11 H5 1_555 1_555
C12 C11 1_555 1_555
H6 C12 1_555 1_555
C13 C12 1_555 1_555
H7 C13 1_555 1_555
C14 C9 1_555 1_555
H8 C14 1_555 1_555
C15 H9 1_555 1_555
C16 C15 1_555 1_555
H10 C16 1_555 1_555
C17 C16 1_555 1_555
C18 C17 1_555 1_555
H11 C18 1_555 1_555
C19 C18 1_555 1_555
H12 C19 1_555 1_555
C20 C17 1_555 1_555
C21 C22 1_555 1_555
C22 H13 1_555 1_555
C23 C22 1_555 1_555
H14 C23 1_555 1_555
C24 C23 1_555 1_555
H15 C24 1_555 1_555
C25 C24 1_555 1_555
H16 C25 1_555 1_555
C26 C21 1_555 1_555
C27 H17 1_555 1_555
C28 C27 1_555 1_555
H18 C28 1_555 1_555
C29 C28 1_555 1_555
C30 C29 1_555 1_555
H19 C30 1_555 1_555
C31 C30 1_555 1_555
H20 C31 1_555 1_555
C32 C29 1_555 1_555
C33 C34 1_555 1_555
C34 H21 1_555 1_555
C35 C34 1_555 1_555
H22 C35 1_555 1_555
C36 C35 1_555 1_555
H23 C36 1_555 1_555
C37 C36 1_555 1_555
H24 C37 1_555 1_555
C38 C33 1_555 1_555
C39 H25 1_555 1_555
C40 C39 1_555 1_555
H26 C40 1_555 1_555
C41 C40 1_555 1_555
C42 C41 1_555 1_555
H27 C42 1_555 1_555
C43 C42 1_555 1_555
H28 C43 1_555 1_555
C44 C41 1_555 1_555
C45 C46 1_555 1_555
C46 H29 1_555 1_555
C47 C46 1_555 1_555
H30 C47 1_555 1_555
C48 C47 1_555 1_555
H31 C48 1_555 1_555
C49 C48 1_555 1_555
H32 C49 1_555 1_555
C50 C45 1_555 1_555
C51 Cu2 1_555 1_555
N2 Cu1 1_555 1_555
N3 Cu1 1_555 1_555
N4 C8 1_555 1_555
N5 C8 1_555 1_555
H33 N5 1_555 1_555
N6 Cu1 1_555 1_555
N7 C20 1_555 1_555
H34 N7 1_555 1_555
N8 C20 1_555 1_555
N9 Cu2 1_555 1_555
N10 C32 1_555 1_555
H35 N10 1_555 1_555
N11 C32 1_555 1_555
N12 Cu3 1_555 1_555
N13 C44 1_555 1_555
N14 C44 1_555 1_555
H36 N14 1_555 1_555
N15 C51 1_555 1_555
O1 H37 1_555 1_555
O2 H38 1_555 1_555
H39 O2 1_555 1_555
H40 O1 1_555 1_555
Cu3_2 N15 1_555 1_555
N15_2 Cu3 1_555 1_555
C3 N3 1_555 1_555
C7 N3 1_555 1_555
C9 N4 1_555 1_555
C10 N5 1_555 1_555
C13 C14 1_555 1_555
C15 N6 1_555 1_555
C19 N6 1_555 1_555
C21 N8 1_555 1_555
C25 C26 1_555 1_555
C26 N7 1_555 1_555
C27 N9 1_555 1_555
C31 N9 1_555 1_555
C33 N10 1_555 1_555
C37 C38 1_555 1_555
C38 N11 1_555 1_555
C39 N12 1_555 1_555
C43 N12 1_555 1_555
C45 N13 1_555 1_555
C49 C50 1_555 1_555
C50 N14 1_555 1_555

#END
