
#######################################################################
#
#                 Cambridge Crystallographic Data Centre
#                                CCDC 
#
#######################################################################
#
# If this CIF has been generated from an entry in the Cambridge 
# Structural Database, then it will include bibliographic, chemical, 
# crystal, experimental, refinement or atomic coordinate data resulting 
# from the CCDC's data processing and validation procedures.
#
#######################################################################

data_SIVNAN
_symmetry_cell_setting           triclinic
_symmetry_space_group_name_H-M   'P -1'
_symmetry_Int_Tables_number      2
_space_group_name_Hall           '-P 1'
loop_
_symmetry_equiv_pos_site_id
_symmetry_equiv_pos_as_xyz
1 x,y,z
2 -x,-y,-z
_cell_length_a                   6.016(3)
_cell_length_b                   6.788(3)
_cell_length_c                   7.310(4)
_cell_angle_alpha                64.948(4)
_cell_angle_beta                 75.339(5)
_cell_angle_gamma                70.045(5)
_cell_volume                     252.121
loop_
_atom_site_label
_atom_site_type_symbol
_atom_site_fract_x
_atom_site_fract_y
_atom_site_fract_z
Cd1 Cd 0.5000 0.0000 0.0000
S1 S 0.88569(13) -0.20287(14) -0.21571(13)
N1 N 0.4476(4) 0.3446(4) -0.2879(3)
N2 N 1.2642(5) -0.1253(5) -0.1178(4)
C1 C 0.3844(7) 0.3321(6) -0.4648(5)
C2 C 0.6526(7) 0.4427(6) -0.3539(5)
C3 C 1.1056(5) -0.1551(5) -0.1564(4)
H1 H 0.335(9) 0.437(9) -0.247(8)
H2 H 0.525(9) 0.225(8) -0.503(7)
H3 H 0.241(10) 0.287(9) -0.420(8)
H4 H 0.782(10) 0.333(9) -0.395(8)
H5 H 0.696(11) 0.435(11) -0.237(11)
Cd1_2 Cd 1.5000 0.0000 0.0000
Cd1_3 Cd 0.5000 1.0000 -1.0000
Cd1_4 Cd -0.5000 0.0000 0.0000
S1A S 0.11431(13) 0.20287(14) 0.21571(13)
N1A N 0.5524(4) 0.6554(4) -0.7121(3)
N1A_2 N 0.5524(4) -0.3446(4) 0.2879(3)
N2A N -0.2642(5) 0.1253(5) 0.1178(4)
N2_2 N 0.2642(5) -0.1253(5) -0.1178(4)
N2A_2 N 0.7358(5) 0.1253(5) 0.1178(4)
C1A C 0.6156(7) 0.6679(6) -0.5352(5)
C2A C 0.3474(7) 0.5573(6) -0.6461(5)
C3A C -0.1056(5) 0.1551(5) 0.1564(4)
H1A H 0.665(9) 0.563(9) -0.753(8)
H1A_2 H 0.665(9) -0.437(9) 0.247(8)
H2A H 0.475(9) 0.775(8) -0.497(7)
H3A H 0.759(10) 0.713(9) -0.580(8)
H4A H 0.218(10) 0.667(9) -0.605(8)
H5A H 0.304(11) 0.565(11) -0.763(11)
loop_
_geom_bond_atom_site_label_1
_geom_bond_atom_site_label_2
_geom_bond_site_symmetry_1
_geom_bond_site_symmetry_2
Cd1 S1 1_555 1_555
S1 C3 1_555 1_555
N1 Cd1 1_555 1_555
N2 C3 1_555 1_555
C1 N1 1_555 1_555
C2 N1 1_555 1_555
H1 N1 1_555 1_555
H2 C1 1_555 1_555
H3 C1 1_555 1_555
H4 C2 1_555 1_555
H5 C2 1_555 1_555
Cd1_2 N2 1_555 1_555
Cd1_3 N1A 1_555 1_555
Cd1_4 N2A 1_555 1_555
S1A Cd1 1_555 1_555
N1A C1A 1_555 1_555
N1A_2 Cd1 1_555 1_555
N2A C3A 1_555 1_555
N2_2 Cd1 1_555 1_555
N2A_2 Cd1 1_555 1_555
C1A C2 1_555 1_555
C2A C1 1_555 1_555
C3A S1A 1_555 1_555
H1A N1A 1_555 1_555
H1A_2 N1A_2 1_555 1_555
H2A C1A 1_555 1_555
H3A C1A 1_555 1_555
H4A C2A 1_555 1_555
H5A C2A 1_555 1_555
N1A C2A 1_555 1_555

#END
