
#######################################################################
#
#                 Cambridge Crystallographic Data Centre
#                                CCDC 
#
#######################################################################
#
# If this CIF has been generated from an entry in the Cambridge 
# Structural Database, then it will include bibliographic, chemical, 
# crystal, experimental, refinement or atomic coordinate data resulting 
# from the CCDC's data processing and validation procedures.
#
#######################################################################

data_SIVPAP
_symmetry_cell_setting           triclinic
_symmetry_space_group_name_H-M   'P -1'
_symmetry_Int_Tables_number      2
_space_group_name_Hall           '-P 1'
loop_
_symmetry_equiv_pos_site_id
_symmetry_equiv_pos_as_xyz
1 x,y,z
2 -x,-y,-z
_cell_length_a                   8.4196(8)
_cell_length_b                   9.2078(10)
_cell_length_c                   9.3900(10)
_cell_angle_alpha                98.7090(10)
_cell_angle_beta                 97.9180(10)
_cell_angle_gamma                109.3160(10)
_cell_volume                     665.16
loop_
_atom_site_label
_atom_site_type_symbol
_atom_site_fract_x
_atom_site_fract_y
_atom_site_fract_z
Cu1 Cu 0.74109(5) 0.19919(4) 0.56075(4)
Cu2 Cu 0.32150(5) 0.29330(4) 0.26922(4)
C1 C 0.8699(5) 0.1139(4) 0.2830(4)
H1 H 0.9424 0.0803 0.3425
C2 C 0.8606(5) 0.0838(4) 0.1353(4)
H2 H 0.9297 0.0343 0.0960
C3 C 0.7496(5) 0.1260(4) 0.0438(4)
H3 H 0.7396 0.1026 -0.0577
C4 C 0.6517(4) 0.2050(3) 0.1064(3)
C5 C 0.6760(4) 0.2375(4) 0.2576(3)
H4 H 0.6173 0.2962 0.3007
C6 C 0.5234(4) 0.2491(4) 0.0198(3)
C7 C 0.3093(4) 0.3219(4) -0.0452(3)
C8 C 0.1687(5) 0.3708(4) -0.0499(4)
H5 H 0.1247 0.3894 0.0338
C9 C 0.0980(5) 0.3903(4) -0.1835(4)
H6 H 0.0045 0.4231 -0.1903
C10 C 0.1645(5) 0.3617(5) -0.3095(4)
H7 H 0.1125 0.3751 -0.3980
C11 C 0.3017(5) 0.3153(4) -0.3071(4)
H8 H 0.3452 0.2973 -0.3912
C12 C 0.3745(4) 0.2958(4) -0.1710(4)
C13 C 0.7204(4) 0.3974(3) 0.6141(3)
C14 C 0.7226(4) 0.0189(4) 0.6351(3)
N1 N 0.7784(3) 0.1903(3) 0.3464(3)
N2 N 0.5110(4) 0.2504(4) -0.1262(3)
N3 N 0.4039(4) 0.2905(3) 0.0724(3)
N4 N 0.7083(4) 0.5153(4) 0.6512(3)
N5 N 0.7131(4) -0.0943(3) 0.6764(3)
H9 H 0.578(5) 0.237(4) -0.175(4)
Cu2A Cu 0.67850(5) 0.70670(4) 0.73078(4)
Cu2A_2 Cu 0.67850(5) -0.29330(4) 0.73078(4)
N4A N 0.2917(4) 0.4847(4) 0.3488(3)
N5A N 0.2869(4) 0.0943(3) 0.3236(3)
loop_
_geom_bond_atom_site_label_1
_geom_bond_atom_site_label_2
_geom_bond_site_symmetry_1
_geom_bond_site_symmetry_2
Cu1 C13 1_555 1_555
Cu2 N3 1_555 1_555
C1 H1 1_555 1_555
C2 C1 1_555 1_555
H2 C2 1_555 1_555
C3 C2 1_555 1_555
H3 C3 1_555 1_555
C4 C3 1_555 1_555
C5 C4 1_555 1_555
H4 C5 1_555 1_555
C6 C4 1_555 1_555
C7 C8 1_555 1_555
C8 H5 1_555 1_555
C9 C8 1_555 1_555
H6 C9 1_555 1_555
C10 C9 1_555 1_555
H7 C10 1_555 1_555
C11 C10 1_555 1_555
H8 C11 1_555 1_555
C12 C7 1_555 1_555
C13 N4 1_555 1_555
C14 Cu1 1_555 1_555
N1 Cu1 1_555 1_555
N2 C6 1_555 1_555
N3 C6 1_555 1_555
N4 Cu2A 1_555 1_555
N5 C14 1_555 1_555
H9 N2 1_555 1_555
Cu2A_2 N5 1_555 1_555
N4A Cu2 1_555 1_555
N5A Cu2 1_555 1_555
C1 N1 1_555 1_555
C5 N1 1_555 1_555
C7 N3 1_555 1_555
C11 C12 1_555 1_555
C12 N2 1_555 1_555

#END
