
#######################################################################
#
#                 Cambridge Crystallographic Data Centre
#                                CCDC 
#
#######################################################################
#
# If this CIF has been generated from an entry in the Cambridge 
# Structural Database, then it will include bibliographic, chemical, 
# crystal, experimental, refinement or atomic coordinate data resulting 
# from the CCDC's data processing and validation procedures.
#
#######################################################################

data_SIVQAR
_symmetry_cell_setting           triclinic
_symmetry_space_group_name_H-M   'P -1'
_symmetry_Int_Tables_number      2
_space_group_name_Hall           '-P 1'
loop_
_symmetry_equiv_pos_site_id
_symmetry_equiv_pos_as_xyz
1 x,y,z
2 -x,-y,-z
_cell_length_a                   10.390(2)
_cell_length_b                   12.295(3)
_cell_length_c                   12.497(3)
_cell_angle_alpha                79.31(3)
_cell_angle_beta                 68.20(3)
_cell_angle_gamma                69.58(3)
_cell_volume                     1386.25
loop_
_atom_site_label
_atom_site_type_symbol
_atom_site_fract_x
_atom_site_fract_y
_atom_site_fract_z
Cd1 Cd 0.40038(6) 0.69632(5) 0.02158(5)
Cd2 Cd 0.04869(6) 0.52707(5) 0.81438(5)
S1 S 0.7352(2) 0.51493(18) 0.00492(18)
O1 O 0.3835(7) 0.8766(5) 0.0645(7)
O2 O 0.1907(7) 0.8679(6) 0.0407(7)
O3 O 0.4960(11) 0.7465(9) -0.1730(7)
O4 O 0.8266(14) 0.5043(9) 0.0690(13)
O5 O 0.6687(10) 0.4221(7) 0.0423(6)
O6 O 0.8211(9) 0.5085(8) -0.1155(7)
O7 O 0.6297(7) 0.6289(6) 0.0268(6)
O8 O 0.0295(8) 0.5785(7) 0.6302(5)
O9 O 0.2470(8) 0.5415(8) 0.6381(6)
O10 O 0.1225(8) 0.3320(6) 0.7950(7)
N1 N 0.3173(7) 0.6415(6) 0.2167(5)
N2 N 0.0492(7) 1.2803(5) 0.1426(6)
N3 N 0.5471(12) 0.7353(9) -0.3618(7)
N4 N 0.2845(8) 0.1524(7) 0.7843(7)
C1 C 0.1595(11) 0.5689(9) 0.5841(7)
C2 C 0.2168(9) 0.5938(8) 0.4538(7)
C3 C 0.1221(10) 0.6251(9) 0.3900(7)
H1 H 0.0246 0.6293 0.4253
C4 C 0.1788(10) 0.6495(9) 0.2730(8)
H2 H 0.1155 0.6732 0.2307
C5 C 0.4074(10) 0.6106(9) 0.2796(8)
H3 H 0.5050 0.6052 0.2418
C6 C 0.3611(10) 0.5867(10) 0.3968(8)
H4 H 0.4261 0.5660 0.4374
C7 C 0.2585(9) 0.9220(7) 0.0632(8)
C8 C 0.1834(9) 1.0474(7) 0.0896(7)
C9 C 0.0457(9) 1.1075(7) 0.0825(8)
H5 H -0.0044 1.0704 0.0611
C10 C 0.2503(10) 1.1086(8) 0.1236(9)
H6 H 0.3426 1.0718 0.1293
C11 C -0.0157(9) 1.2231(7) 0.1076(8)
H7 H -0.1063 1.2633 0.1000
C12 C 0.1807(10) 1.2233(7) 0.1488(9)
H8 H 0.2280 1.2624 0.1712
C13 C 0.4843(19) 0.7256(13) -0.2484(13)
H9 H 0.4105 0.6918 -0.2283
C14 C 0.481(3) 0.730(3) -0.444(2)
H10 H 0.4735 0.6530 -0.4383
H11 H 0.5398 0.7470 -0.5206
H12 H 0.3853 0.7853 -0.4266
C15 C 0.693(2) 0.741(3) -0.416(2)
H13 H 0.6904 0.8159 -0.4561
H14 H 0.7475 0.6815 -0.4699
H15 H 0.7373 0.7295 -0.3583
C16 C 0.2359(10) 0.2631(9) 0.8054(9)
H16 H 0.2918 0.2911 0.8302
C17 C 0.1979(15) 0.1034(11) 0.7505(13)
H17 H 0.0983 0.1519 0.7739
H18 H 0.2037 0.0268 0.7871
H19 H 0.2345 0.0991 0.6682
C18 C 0.4239(13) 0.0778(11) 0.7930(12)
H20 H 0.4912 0.0575 0.7173
H21 H 0.4117 0.0084 0.8398
H22 H 0.4611 0.1182 0.8277
Cd1A Cd 0.59962(6) 0.30368(5) -0.02158(5)
Cd2_2 Cd 1.04869(6) 0.52707(5) -0.18562(5)
Cd2A Cd -0.04869(6) 1.47293(5) 0.18562(5)
Cd2A_2 Cd 0.95131(6) 0.47293(5) 0.18562(5)
O4A O 0.1734(14) 0.4957(9) 0.9310(13)
O5A O 0.3313(10) 0.5779(7) -0.0423(6)
O6_2 O -0.1789(9) 0.5085(8) 0.8845(7)
N2A N -0.0492(7) 0.7197(5) 0.8574(6)
loop_
_geom_bond_atom_site_label_1
_geom_bond_atom_site_label_2
_geom_bond_site_symmetry_1
_geom_bond_site_symmetry_2
Cd1 O1 1_555 1_555
Cd2 O8 1_555 1_555
S1 O4 1_555 1_555
O1 C7 1_555 1_555
O2 Cd1 1_555 1_555
O3 Cd1 1_555 1_555
O4 Cd2A_2 1_555 1_555
O5 S1 1_555 1_555
O6 S1 1_555 1_555
O7 Cd1 1_555 1_555
O8 C1 1_555 1_555
O9 Cd2 1_555 1_555
O10 Cd2 1_555 1_555
N1 Cd1 1_555 1_555
N2 C11 1_555 1_555
N3 C13 1_555 1_555
N4 C16 1_555 1_555
C1 O9 1_555 1_555
C2 C1 1_555 1_555
C3 C2 1_555 1_555
H1 C3 1_555 1_555
C4 N1 1_555 1_555
H2 C4 1_555 1_555
C5 N1 1_555 1_555
H3 C5 1_555 1_555
C6 C2 1_555 1_555
H4 C6 1_555 1_555
C7 O2 1_555 1_555
C8 C7 1_555 1_555
C9 C8 1_555 1_555
H5 C9 1_555 1_555
C10 C8 1_555 1_555
H6 C10 1_555 1_555
C11 C9 1_555 1_555
H7 C11 1_555 1_555
C12 N2 1_555 1_555
H8 C12 1_555 1_555
C13 O3 1_555 1_555
H9 C13 1_555 1_555
C14 N3 1_555 1_555
H10 C14 1_555 1_555
H11 C14 1_555 1_555
H12 C14 1_555 1_555
C15 N3 1_555 1_555
H13 C15 1_555 1_555
H14 C15 1_555 1_555
H15 C15 1_555 1_555
C16 O10 1_555 1_555
H16 C16 1_555 1_555
C17 N4 1_555 1_555
H17 C17 1_555 1_555
H18 C17 1_555 1_555
H19 C17 1_555 1_555
C18 N4 1_555 1_555
H20 C18 1_555 1_555
H21 C18 1_555 1_555
H22 C18 1_555 1_555
Cd1A O5 1_555 1_555
Cd2_2 O6 1_555 1_555
Cd2A N2 1_555 1_555
O4A Cd2 1_555 1_555
O5A Cd1 1_555 1_555
O6_2 Cd2 1_555 1_555
N2A Cd2 1_555 1_555
S1 O7 1_555 1_555
C3 C4 1_555 1_555
C5 C6 1_555 1_555
C10 C12 1_555 1_555

#END
