
#######################################################################
#
#                 Cambridge Crystallographic Data Centre
#                                CCDC 
#
#######################################################################
#
# If this CIF has been generated from an entry in the Cambridge 
# Structural Database, then it will include bibliographic, chemical, 
# crystal, experimental, refinement or atomic coordinate data resulting 
# from the CCDC's data processing and validation procedures.
#
#######################################################################

data_SIVQEV01
_symmetry_cell_setting           monoclinic
_symmetry_space_group_name_H-M   'P 21/n'
_symmetry_Int_Tables_number      14
_space_group_name_Hall           '-P 2yn'
loop_
_symmetry_equiv_pos_site_id
_symmetry_equiv_pos_as_xyz
1 x,y,z
2 1/2-x,1/2+y,1/2-z
3 -x,-y,-z
4 1/2+x,1/2-y,1/2+z
_cell_length_a                   12.7216(7)
_cell_length_b                   9.4960(7)
_cell_length_c                   18.0900(11)
_cell_angle_alpha                90
_cell_angle_beta                 108.228(7)
_cell_angle_gamma                90
_cell_volume                     2075.69
loop_
_atom_site_label
_atom_site_type_symbol
_atom_site_fract_x
_atom_site_fract_y
_atom_site_fract_z
Zn1 Zn 0.79669(5) 0.95994(8) 0.07309(3)
Zn2 Zn 1.0000 1.0000 0.0000
Cl1 Cl 0.66224(14) 0.8481(3) 0.10191(11)
O1 O 1.1300(3) 0.8744(5) 0.0530(2)
O2 O 1.2765(3) 0.9163(5) 0.0142(2)
O3 O 1.4728(3) 0.5838(5) 0.3914(2)
O4 O 1.6104(3) 0.5704(5) 0.3399(2)
C1 C 1.3017(4) 0.7925(7) 0.1312(3)
C2 C 1.4144(5) 0.7769(8) 0.1411(3)
H1 H 1.4436 0.8087 0.1030
C3 C 1.4822(5) 0.7142(8) 0.2077(3)
H2 H 1.5573 0.7045 0.2142
C4 C 1.4410(5) 0.6661(7) 0.2641(3)
C5 C 1.3292(4) 0.6796(9) 0.2526(3)
H3 H 1.2996 0.6458 0.2901
C6 C 1.2615(5) 0.7415(8) 0.1873(4)
H4 H 1.1863 0.7492 0.1808
C7 C 1.2304(5) 0.8657(7) 0.0606(3)
C8 C 1.5138(5) 0.6027(7) 0.3375(3)
O5 O 0.8906(3) 0.8440(4) 0.0283(2)
O6 O 0.9403(4) 0.7345(5) 0.1421(3)
C9 C 0.9684(5) 0.6173(7) 0.0360(4)
C10 C 1.0251(5) 0.5043(7) 0.0799(4)
H5 H 1.0420 0.5059 0.1338
C11 C 1.0567(5) 0.3894(8) 0.0443(3)
H6 H 1.0953 0.3157 0.0747
C12 C 0.9326(5) 0.7379(7) 0.0739(4)
O5B O 1.1094(3) 0.1560(4) -0.0283(2)
O6B O 1.0597(4) 0.2655(5) -0.1421(3)
C9B C 1.0316(5) 0.3827(7) -0.0360(4)
C10B C 0.9749(5) 0.4957(7) -0.0799(4)
H5B H 0.9580 0.4941 -0.1338
C11B C 0.9433(5) 0.6106(8) -0.0443(3)
H6B H 0.9047 0.6843 -0.0747
C12B C 1.0674(5) 0.2621(7) -0.0739(4)
Zn1B Zn 1.20331(5) 0.04006(8) -0.07309(3)
Cl1B Cl 1.33776(14) 0.1519(3) -0.10191(11)
O1B O 0.8700(3) 1.1256(5) -0.0530(2)
O2B O 0.7235(3) 1.0837(5) -0.0142(2)
O3B O 0.5272(3) 1.4162(5) -0.3914(2)
O4B O 0.3896(3) 1.4296(5) -0.3399(2)
C1B C 0.6983(4) 1.2075(7) -0.1312(3)
C2B C 0.5856(5) 1.2231(8) -0.1411(3)
H1B H 0.5564 1.1913 -0.1030
C3B C 0.5178(5) 1.2858(8) -0.2077(3)
H2B H 0.4427 1.2955 -0.2142
C4B C 0.5590(5) 1.3339(7) -0.2641(3)
C5B C 0.6708(4) 1.3204(9) -0.2526(3)
H3B H 0.7004 1.3542 -0.2901
C6B C 0.7385(5) 1.2585(8) -0.1873(4)
H4B H 0.8137 1.2508 -0.1808
C7B C 0.7696(5) 1.1343(7) -0.0606(3)
C8B C 0.4862(5) 1.3973(7) -0.3375(3)
Zn1A Zn 1.70331(5) 0.45994(8) 0.42691(3)
Zn1B_2 Zn 1.20331(5) 1.04006(8) -0.07309(3)
Zn1C Zn 0.29669(5) 1.54006(8) -0.42691(3)
Zn2_2 Zn 1.0000 0.0000 0.0000
Zn2A Zn 0.5000 1.5000 -0.5000
Zn2A_2 Zn 1.5000 0.5000 0.5000
O2_2 O 1.2765(3) -0.0837(5) 0.0142(2)
O3A O 1.0272(3) 1.0838(5) 0.1086(2)
O3C O 0.9728(3) 0.9162(5) -0.1086(2)
O4A O 0.8896(3) 1.0704(5) 0.1601(2)
O4C O 1.1104(3) -0.0704(5) -0.1601(2)
O5B_2 O 1.1094(3) 1.1560(4) -0.0283(2)
N1 N 0.9417(7) 0.7680(9) 0.3540(4)
N2 N 0.8042(7) 0.9037(10) 0.3316(5)
C13 C 0.8778(8) 0.8521(12) 0.3021(5)
H7 H 0.8834 0.8717 0.2531
C14 C 0.8153(12) 0.8589(19) 0.4012(8)
H8 H 0.7745 0.8833 0.4339
C15 C 0.9006(13) 0.7682(16) 0.4145(7)
H9 H 0.9275 0.7135 0.4591
C16 C 0.7137(10) 1.0026(14) 0.2944(7)
H10 H 0.6729 1.0232 0.3297
H11 H 0.6651 0.9609 0.2479
H12 H 0.7441 1.0882 0.2815
C17 C 1.0353(11) 0.6953(18) 0.3478(8)
H13 H 1.0413 0.6066 0.3753
H14 H 1.0236 0.6739 0.2934
C18 C 1.1365(12) 0.7687(19) 0.3772(10)
H15 H 1.1961 0.7097 0.3740
H16 H 1.1478 0.7937 0.4306
H17 H 1.1342 0.8526 0.3472
loop_
_geom_bond_atom_site_label_1
_geom_bond_atom_site_label_2
_geom_bond_site_symmetry_1
_geom_bond_site_symmetry_2
Zn1 Cl1 1_555 1_555
Zn2 O1 1_555 1_555
O1 C7 1_555 1_555
O2 C7 1_555 1_555
O3 C8 1_555 1_555
O4 C8 1_555 1_555
C1 C2 1_555 1_555
C2 H1 1_555 1_555
C3 C2 1_555 1_555
H2 C3 1_555 1_555
C4 C3 1_555 1_555
C5 C4 1_555 1_555
H3 C5 1_555 1_555
C6 C1 1_555 1_555
H4 C6 1_555 1_555
C7 C1 1_555 1_555
C8 C4 1_555 1_555
O5 Zn1 1_555 1_555
O6 C12 1_555 1_555
C9 C10 1_555 1_555
C10 H5 1_555 1_555
C11 C10 1_555 1_555
H6 C11 1_555 1_555
C12 O5 1_555 1_555
N1 C13 1_555 1_555
N2 C13 1_555 1_555
C13 H7 1_555 1_555
C14 N2 1_555 1_555
H8 C14 1_555 1_555
C15 N1 1_555 1_555
H9 C15 1_555 1_555
C16 N2 1_555 1_555
H10 C16 1_555 1_555
H11 C16 1_555 1_555
H12 C16 1_555 1_555
C17 N1 1_555 1_555
H13 C17 1_555 1_555
H14 C17 1_555 1_555
C18 C17 1_555 1_555
H15 C18 1_555 1_555
H16 C18 1_555 1_555
H17 C18 1_555 1_555
O5B C12B 1_555 1_555
O6B C12B 1_555 1_555
C9B C11 1_555 1_555
C10B C9B 1_555 1_555
H5B C10B 1_555 1_555
C11B C9 1_555 1_555
H6B C11B 1_555 1_555
C12B C9B 1_555 1_555
Zn1B O5B 1_555 1_555
Cl1B Zn1B 1_555 1_555
O1B Zn2 1_555 1_555
O2B Zn1 1_555 1_555
O3B C8B 1_555 1_555
O4B C8B 1_555 1_555
C1B C2B 1_555 1_555
C2B H1B 1_555 1_555
C3B C2B 1_555 1_555
H2B C3B 1_555 1_555
C4B C3B 1_555 1_555
C5B C4B 1_555 1_555
H3B C5B 1_555 1_555
C6B C1B 1_555 1_555
H4B C6B 1_555 1_555
C7B O1B 1_555 1_555
C8B C4B 1_555 1_555
Zn1A O4 1_555 1_555
Zn1B_2 O2 1_555 1_555
Zn1C O4B 1_555 1_555
Zn2_2 O5B 1_555 1_555
Zn2A O3B 1_555 1_555
Zn2A_2 O3 1_555 1_555
O2_2 Zn1B 1_555 1_555
O3A Zn2 1_555 1_555
O3C Zn2 1_555 1_555
O4A Zn1 1_555 1_555
O4C Zn1B 1_555 1_555
O5B_2 Zn2 1_555 1_555
Zn2 O5 1_555 1_555
C5 C6 1_555 1_555
C9 C12 1_555 1_555
C14 C15 1_555 1_555
C10B C11B 1_555 1_555
O2B C7B 1_555 1_555
C1B C7B 1_555 1_555
C5B C6B 1_555 1_555
Zn1B_2 O5B_2 1_555 1_555

#END
