
#######################################################################
#
#                 Cambridge Crystallographic Data Centre
#                                CCDC 
#
#######################################################################
#
# If this CIF has been generated from an entry in the Cambridge 
# Structural Database, then it will include bibliographic, chemical, 
# crystal, experimental, refinement or atomic coordinate data resulting 
# from the CCDC's data processing and validation procedures.
#
#######################################################################

data_SIVQEV
_symmetry_cell_setting           monoclinic
_symmetry_space_group_name_H-M   'P 21/n'
_symmetry_Int_Tables_number      14
_space_group_name_Hall           '-P 2yn'
loop_
_symmetry_equiv_pos_site_id
_symmetry_equiv_pos_as_xyz
1 x,y,z
2 1/2-x,1/2+y,1/2-z
3 -x,-y,-z
4 1/2+x,1/2-y,1/2+z
_cell_length_a                   12.7455(8)
_cell_length_b                   9.5044(6)
_cell_length_c                   18.1128(12)
_cell_angle_alpha                90
_cell_angle_beta                 108.132(3)
_cell_angle_gamma                90
_cell_volume                     2085.2
loop_
_atom_site_label
_atom_site_type_symbol
_atom_site_fract_x
_atom_site_fract_y
_atom_site_fract_z
O1 O 0.8887(4) 0.0711(5) 0.1606(3)
O2 O 1.0266(4) 0.0836(6) 0.1094(3)
O3 O 1.2244(4) 0.4170(6) 0.4856(3)
O4 O 1.3703(4) 0.3732(6) 0.4474(3)
C1 C 1.0603(5) 0.1663(8) 0.2357(4)
C2 C 1.0182(5) 0.2142(9) 0.2926(4)
H1 H 0.9433 0.2042 0.2863
C3 C 1.0862(6) 0.2764(9) 0.3583(4)
H2 H 1.0567 0.3091 0.3961
C4 C 1.1980(5) 0.2914(8) 0.3695(4)
C5 C 1.2401(6) 0.2413(9) 0.3130(4)
H3 H 1.3151 0.2501 0.3197
C6 C 1.1719(6) 0.1783(9) 0.2467(4)
H4 H 1.2014 0.1438 0.2094
C7 C 0.9876(6) 0.1009(7) 0.1627(4)
C8 C 1.2702(5) 0.3662(7) 0.4397(4)
Zn1 Zn 0.79670(6) -0.04006(8) 0.07316(4)
Zn2 Zn 1.0000 0.0000 0.0000
Cl1 Cl 0.66212(18) -0.1517(3) 0.10145(14)
O5 O 0.8906(4) -0.1549(5) 0.0283(3)
O6 O 0.9406(5) -0.2648(6) 0.1427(3)
C9 C 0.9680(5) -0.3845(7) 0.0352(4)
C10 C 0.9432(7) -0.3907(8) -0.0456(4)
H5 H 0.9053 -0.3169 -0.0760
C11 C 1.0256(7) -0.4952(8) 0.0803(4)
H6 H 1.0429 -0.4919 0.1341
C12 C 0.9334(6) -0.2610(7) 0.0727(4)
O5B O 1.1094(4) -0.8451(5) -0.0283(3)
O6B O 1.0594(5) -0.7352(6) -0.1427(3)
C9B C 1.0320(5) -0.6155(7) -0.0352(4)
C10B C 1.0568(7) -0.6093(8) 0.0456(4)
H5B H 1.0947 -0.6831 0.0760
C11B C 0.9744(7) -0.5048(8) -0.0803(4)
H6B H 0.9571 -0.5081 -0.1341
C12B C 1.0666(6) -0.7390(7) -0.0727(4)
O1B O 1.1113(4) -1.0711(5) -0.1606(3)
O2B O 0.9734(4) -1.0836(6) -0.1094(3)
O3B O 0.7756(4) -1.4170(6) -0.4856(3)
O4B O 0.6297(4) -1.3732(6) -0.4474(3)
C1B C 0.9397(5) -1.1663(8) -0.2357(4)
C2B C 0.9818(5) -1.2142(9) -0.2926(4)
H1B H 1.0567 -1.2042 -0.2863
C3B C 0.9138(6) -1.2764(9) -0.3583(4)
H2B H 0.9433 -1.3091 -0.3961
C4B C 0.8020(5) -1.2914(8) -0.3695(4)
C5B C 0.7599(6) -1.2413(9) -0.3130(4)
H3B H 0.6849 -1.2501 -0.3197
C6B C 0.8281(6) -1.1783(9) -0.2467(4)
H4B H 0.7986 -1.1438 -0.2094
C7B C 1.0124(6) -1.1009(7) -0.1627(4)
C8B C 0.7298(5) -1.3662(7) -0.4397(4)
Zn1B Zn 1.20330(6) -0.95994(8) -0.07316(4)
Cl1B Cl 1.33788(18) -0.8483(3) -0.10145(14)
O2B_2 O 0.9734(4) -0.0836(6) -0.1094(3)
O3A O 1.2756(4) -1.0830(6) 0.0144(3)
O3C O 0.7244(4) 0.0830(6) -0.0144(3)
O4A O 1.1297(4) -0.1268(6) 0.0526(3)
O4C O 0.8703(4) 0.1268(6) -0.0526(3)
Zn1A Zn 0.70330(6) -1.54006(8) -0.57316(4)
Zn1C Zn 1.29670(6) 0.54006(8) 0.57316(4)
Zn2_2 Zn 1.0000 -1.0000 0.0000
Zn2A Zn 0.5000 -1.5000 -0.5000
Zn2A_2 Zn 1.5000 0.5000 0.5000
O5B_2 O 1.1094(4) 0.1549(5) -0.0283(3)
N1 N 0.8025(8) 0.9060(11) 0.3308(6)
N2 N 0.9404(8) 0.7682(11) 0.3537(5)
C13 C 0.8789(10) 0.8556(13) 0.3024(6)
H7 H 0.8873 0.8783 0.2547
C14 C 0.9033(14) 0.7653(18) 0.4147(8)
H8 H 0.9326 0.7122 0.4595
C15 C 0.8165(13) 0.852(2) 0.4002(9)
H9 H 0.7744 0.8705 0.4327
C16 C 0.7127(13) 1.0046(18) 0.2958(10)
H10 H 0.6654 0.9660 0.2480
H11 H 0.7429 1.0922 0.2855
H12 H 0.6708 1.0202 0.3309
C17 C 1.0369(15) 0.692(2) 0.3475(12)
H13 H 1.0430 0.6034 0.3750
H14 H 1.0265 0.6714 0.2933
C18 C 1.1358(16) 0.768(3) 0.3780(12)
H15 H 1.1311 0.8551 0.3503
H16 H 1.1963 0.7135 0.3725
H17 H 1.1475 0.7873 0.4320
loop_
_geom_bond_atom_site_label_1
_geom_bond_atom_site_label_2
_geom_bond_site_symmetry_1
_geom_bond_site_symmetry_2
O1 C7 1_555 1_555
O2 C7 1_555 1_555
O3 C8 1_555 1_555
O4 C8 1_555 1_555
C1 C2 1_555 1_555
C2 H1 1_555 1_555
C3 C2 1_555 1_555
H2 C3 1_555 1_555
C4 C3 1_555 1_555
C5 C4 1_555 1_555
H3 C5 1_555 1_555
C6 C1 1_555 1_555
H4 C6 1_555 1_555
C7 C1 1_555 1_555
C8 C4 1_555 1_555
Zn1 O1 1_555 1_555
Zn2 O2 1_555 1_555
Cl1 Zn1 1_555 1_555
O5 Zn1 1_555 1_555
O6 C12 1_555 1_555
C9 C10 1_555 1_555
C10 H5 1_555 1_555
C11 C9 1_555 1_555
H6 C11 1_555 1_555
C12 O5 1_555 1_555
N1 C13 1_555 1_555
N2 C13 1_555 1_555
C13 H7 1_555 1_555
C14 N2 1_555 1_555
H8 C14 1_555 1_555
C15 N1 1_555 1_555
H9 C15 1_555 1_555
C16 N1 1_555 1_555
H10 C16 1_555 1_555
H11 C16 1_555 1_555
H12 C16 1_555 1_555
C17 N2 1_555 1_555
H13 C17 1_555 1_555
H14 C17 1_555 1_555
C18 C17 1_555 1_555
H15 C18 1_555 1_555
H16 C18 1_555 1_555
H17 C18 1_555 1_555
O5B C12B 1_555 1_555
O6B C12B 1_555 1_555
C9B C10B 1_555 1_555
C10B C11 1_555 1_555
H5B C10B 1_555 1_555
C11B C10 1_555 1_555
H6B C11B 1_555 1_555
C12B C9B 1_555 1_555
O1B C7B 1_555 1_555
O2B C7B 1_555 1_555
O3B C8B 1_555 1_555
O4B C8B 1_555 1_555
C1B C2B 1_555 1_555
C2B H1B 1_555 1_555
C3B C2B 1_555 1_555
H2B C3B 1_555 1_555
C4B C3B 1_555 1_555
C5B C4B 1_555 1_555
H3B C5B 1_555 1_555
C6B C1B 1_555 1_555
H4B C6B 1_555 1_555
C7B C1B 1_555 1_555
C8B C4B 1_555 1_555
Zn1B O5B 1_555 1_555
Cl1B Zn1B 1_555 1_555
O2B_2 Zn2 1_555 1_555
O3A Zn1B 1_555 1_555
O3C Zn1 1_555 1_555
O4A Zn2 1_555 1_555
O4C Zn2 1_555 1_555
Zn1A O3B 1_555 1_555
Zn1C O3 1_555 1_555
Zn2_2 O5B 1_555 1_555
Zn2A O4B 1_555 1_555
Zn2A_2 O4 1_555 1_555
O5B_2 Zn2 1_555 1_555
C5 C6 1_555 1_555
Zn2 O5 1_555 1_555
C9 C12 1_555 1_555
C14 C15 1_555 1_555
C9B C11B 1_555 1_555
O1B Zn1B 1_555 1_555
O2B Zn2_2 1_555 1_555
C5B C6B 1_555 1_555

#END
