
#######################################################################
#
#                 Cambridge Crystallographic Data Centre
#                                CCDC 
#
#######################################################################
#
# If this CIF has been generated from an entry in the Cambridge 
# Structural Database, then it will include bibliographic, chemical, 
# crystal, experimental, refinement or atomic coordinate data resulting 
# from the CCDC's data processing and validation procedures.
#
#######################################################################

data_SIVWOL
_symmetry_cell_setting           monoclinic
_symmetry_space_group_name_H-M   'C 2/c'
_symmetry_Int_Tables_number      15
_space_group_name_Hall           '-C 2yn'
loop_
_symmetry_equiv_pos_site_id
_symmetry_equiv_pos_as_xyz
1 x,y,z
2 -x,y,1/2-z
3 1/2+x,1/2+y,z
4 1/2-x,1/2+y,1/2-z
5 -x,-y,-z
6 x,-y,1/2+z
7 1/2-x,1/2-y,-z
8 1/2+x,1/2-y,1/2+z
_cell_length_a                   17.764(4)
_cell_length_b                   12.648(3)
_cell_length_c                   8.1797(16)
_cell_angle_alpha                90
_cell_angle_beta                 106.40(3)
_cell_angle_gamma                90
_cell_volume                     1763.03
loop_
_atom_site_label
_atom_site_type_symbol
_atom_site_fract_x
_atom_site_fract_y
_atom_site_fract_z
Cd1 Cd 0.5000 0.62305(3) 0.2500
O1 O 0.58737(15) 0.4803(2) 0.2904(4)
O2 O 0.64535(18) 0.6310(2) 0.3739(5)
O3 O 0.49691(18) 0.6423(2) 0.5334(4)
H1 H 0.4604 0.6189 0.5717
H2 H 0.5356 0.6033 0.5823
N1 N 1.0000 0.6970(3) 0.7500
C1 C 0.6487(2) 0.5349(3) 0.3504(5)
C2 C 0.7261(2) 0.4786(3) 0.3961(5)
C3 C 0.7320(2) 0.3753(3) 0.3433(6)
H3 H 0.6875 0.3404 0.2783
C4 C 0.8032(2) 0.3243(3) 0.3867(5)
H4 H 0.8068 0.2553 0.3504
C5 C 0.8694(2) 0.3754(3) 0.4841(6)
H5 H 0.9172 0.3399 0.5138
C6 C 0.8658(2) 0.4792(3) 0.5386(5)
C7 C 0.7932(2) 0.5297(3) 0.4913(5)
H6 H 0.7896 0.5994 0.5245
C8 C 0.9361(2) 0.5337(3) 0.6457(5)
C9 C 1.0000 0.4799(4) 0.7500
H7 H 1.0000 0.4064 0.7500
C10 C 0.9405(2) 0.6431(3) 0.6475(5)
H8 H 0.9000 0.6808 0.5737
O1A O 1.41263(15) 0.4803(2) 1.2096(4)
O2A O 1.35465(18) 0.6310(2) 1.1261(5)
C1A C 1.3513(2) 0.5349(3) 1.1496(5)
C2A C 1.2739(2) 0.4786(3) 1.1039(5)
C3A C 1.2680(2) 0.3753(3) 1.1567(6)
H3A H 1.3125 0.3404 1.2217
C4A C 1.1968(2) 0.3243(3) 1.1133(5)
H4A H 1.1932 0.2553 1.1496
C5A C 1.1306(2) 0.3754(3) 1.0159(6)
H5A H 1.0828 0.3399 0.9862
C6A C 1.1342(2) 0.4792(3) 0.9614(5)
C7A C 1.2068(2) 0.5297(3) 1.0087(5)
H6A H 1.2104 0.5994 0.9755
C8A C 1.0639(2) 0.5337(3) 0.8543(5)
C10A C 1.0595(2) 0.6431(3) 0.8525(5)
H8A H 1.1000 0.6808 0.9263
O3A O 0.50309(18) 0.6423(2) -0.0334(4)
H1A H 0.5396 0.6189 -0.0717
H2A H 0.4644 0.6033 -0.0823
Cd1_2 Cd 1.5000 0.62305(3) 1.2500
Cd1F Cd 1.0000 0.87695(3) 0.7500
O1A_2 O 0.41263(15) 0.4803(2) 0.2096(4)
O2A_2 O 0.35465(18) 0.6310(2) 0.1261(5)
N1F N 0.5000 0.8030(3) 0.2500
loop_
_geom_bond_atom_site_label_1
_geom_bond_atom_site_label_2
_geom_bond_site_symmetry_1
_geom_bond_site_symmetry_2
Cd1 O1 1_555 1_555
O1 C1 1_555 1_555
O2 Cd1 1_555 1_555
O3 Cd1 1_555 1_555
H1 O3 1_555 1_555
H2 O3 1_555 1_555
N1 C10 1_555 1_555
C1 O2 1_555 1_555
C2 C1 1_555 1_555
C3 C2 1_555 1_555
H3 C3 1_555 1_555
C4 C3 1_555 1_555
H4 C4 1_555 1_555
C5 C4 1_555 1_555
H5 C5 1_555 1_555
C6 C5 1_555 1_555
C7 C2 1_555 1_555
H6 C7 1_555 1_555
C8 C6 1_555 1_555
C9 C8 1_555 1_555
H7 C9 1_555 1_555
C10 C8 1_555 1_555
H8 C10 1_555 1_555
O1A C1A 1_555 1_555
O2A C1A 1_555 1_555
C1A C2A 1_555 1_555
C2A C3A 1_555 1_555
C3A H3A 1_555 1_555
C4A C3A 1_555 1_555
H4A C4A 1_555 1_555
C5A C4A 1_555 1_555
H5A C5A 1_555 1_555
C6A C5A 1_555 1_555
C7A C2A 1_555 1_555
H6A C7A 1_555 1_555
C8A C9 1_555 1_555
C10A N1 1_555 1_555
H8A C10A 1_555 1_555
O3A Cd1 1_555 1_555
H1A O3A 1_555 1_555
H2A O3A 1_555 1_555
Cd1_2 O1A 1_555 1_555
Cd1F N1 1_555 1_555
O1A_2 Cd1 1_555 1_555
O2A_2 Cd1 1_555 1_555
N1F Cd1 1_555 1_555
C6 C7 1_555 1_555
O2A Cd1_2 1_555 1_555
C6A C7A 1_555 1_555
C6A C8A 1_555 1_555
C8A C10A 1_555 1_555

#END
