
#######################################################################
#
#                 Cambridge Crystallographic Data Centre
#                                CCDC 
#
#######################################################################
#
# If this CIF has been generated from an entry in the Cambridge 
# Structural Database, then it will include bibliographic, chemical, 
# crystal, experimental, refinement or atomic coordinate data resulting 
# from the CCDC's data processing and validation procedures.
#
#######################################################################

data_SIVXAY
_symmetry_cell_setting           monoclinic
_symmetry_space_group_name_H-M   'P 21/c'
_symmetry_Int_Tables_number      14
_space_group_name_Hall           '-P 2ybc'
loop_
_symmetry_equiv_pos_site_id
_symmetry_equiv_pos_as_xyz
1 x,y,z
2 -x,1/2+y,1/2-z
3 -x,-y,-z
4 x,1/2-y,1/2+z
_cell_length_a                   12.409(3)
_cell_length_b                   11.979(2)
_cell_length_c                   10.352(2)
_cell_angle_alpha                90
_cell_angle_beta                 107.10(3)
_cell_angle_gamma                90
_cell_volume                     1470.77
loop_
_atom_site_label
_atom_site_type_symbol
_atom_site_fract_x
_atom_site_fract_y
_atom_site_fract_z
C1 C 1.2009(5) 0.3953(6) 0.8875(8)
C2 C 1.1186(5) 0.2987(5) 0.8445(7)
C3 C 1.1331(5) 0.2144(6) 0.7610(7)
H1 H 1.1897 0.2193 0.7192
C4 C 1.0629(6) 0.1222(7) 0.7397(7)
H2 H 1.0742 0.0640 0.6857
C5 C 0.9756(5) 0.1155(6) 0.7981(7)
H3 H 0.9292 0.0529 0.7845
C6 C 0.9584(5) 0.2050(6) 0.8783(7)
C7 C 1.0317(5) 0.2927(5) 0.9034(7)
H4 H 1.0233 0.3495 0.9610
C8 C 0.8635(5) 0.2016(6) 0.9404(7)
C9 C 0.8188(5) 0.1045(6) 0.9740(6)
H5 H 0.8469 0.0363 0.9554
C10 C 0.8169(5) 0.3014(5) 0.9694(7)
H6 H 0.8442 0.3682 0.9456
C11 C 0.6952(5) 0.2107(6) 1.0603(7)
H7 H 0.6384 0.2142 1.1019
C12 C 0.7321(5) 0.1057(6) 1.0352(7)
C13 C 0.6771(5) 0.0050(6) 1.0694(7)
C14 C 0.6640(5) -0.0931(6) 0.9960(7)
H8 H 0.6936 -0.0995 0.9236
C15 C 0.6058(5) -0.1826(6) 1.0313(7)
H9 H 0.5997 -0.2494 0.9841
C16 C 0.5575(5) -0.1733(6) 1.1345(7)
H10 H 0.5181 -0.2333 1.1553
C17 C 0.5673(5) -0.0756(6) 1.2074(7)
C18 C 0.6288(5) 0.0114(6) 1.1755(6)
H11 H 0.6383 0.0765 1.2266
C19 C 0.5094(5) -0.0521(6) 1.3129(7)
Zn1 Zn 0.65740(6) 0.45085(7) 1.06135(8)
N1 N 0.7351(4) 0.3059(4) 1.0294(6)
O1 O 1.2604(4) 0.4230(4) 0.8112(5)
O2 O 1.2085(4) 0.4460(4) 0.9928(6)
O3 O 0.4283(4) -0.1151(4) 1.3166(5)
O4 O 0.5375(4) 0.0319(4) 1.3870(5)
Zn1A Zn 0.34260(6) -0.04915(7) 1.43865(8)
Zn1B Zn 1.34260(6) 0.54915(7) 0.93865(8)
Zn1C Zn 0.65740(6) 0.04915(7) 1.56135(8)
O1B O 0.7396(4) 0.5770(4) 1.1888(5)
O2B O 0.7915(4) 0.5540(4) 1.0072(6)
O3A O 0.5717(4) 0.3849(4) 1.1834(5)
O4C O 0.5375(4) 0.4681(4) 0.8870(5)
loop_
_geom_bond_atom_site_label_1
_geom_bond_atom_site_label_2
_geom_bond_site_symmetry_1
_geom_bond_site_symmetry_2
C1 C2 1_555 1_555
C2 C3 1_555 1_555
C3 H1 1_555 1_555
C4 C3 1_555 1_555
H2 C4 1_555 1_555
C5 C4 1_555 1_555
H3 C5 1_555 1_555
C6 C5 1_555 1_555
C7 C2 1_555 1_555
H4 C7 1_555 1_555
C8 C6 1_555 1_555
C9 C8 1_555 1_555
H5 C9 1_555 1_555
C10 C8 1_555 1_555
H6 C10 1_555 1_555
C11 H7 1_555 1_555
C12 C9 1_555 1_555
C13 C12 1_555 1_555
C14 C13 1_555 1_555
H8 C14 1_555 1_555
C15 C14 1_555 1_555
H9 C15 1_555 1_555
C16 C15 1_555 1_555
H10 C16 1_555 1_555
C17 C16 1_555 1_555
C18 C13 1_555 1_555
H11 C18 1_555 1_555
C19 C17 1_555 1_555
Zn1 N1 1_555 1_555
N1 C10 1_555 1_555
O1 C1 1_555 1_555
O2 C1 1_555 1_555
O3 C19 1_555 1_555
O4 C19 1_555 1_555
Zn1A O3 1_555 1_555
Zn1B O1 1_555 1_555
Zn1C O4 1_555 1_555
O1B Zn1 1_555 1_555
O2B Zn1 1_555 1_555
O3A Zn1 1_555 1_555
O4C Zn1 1_555 1_555
C6 C7 1_555 1_555
C11 C12 1_555 1_555
C11 N1 1_555 1_555
C17 C18 1_555 1_555
O2 Zn1B 1_555 1_555

#END
