
#######################################################################
#
#                 Cambridge Crystallographic Data Centre
#                                CCDC 
#
#######################################################################
#
# If this CIF has been generated from an entry in the Cambridge 
# Structural Database, then it will include bibliographic, chemical, 
# crystal, experimental, refinement or atomic coordinate data resulting 
# from the CCDC's data processing and validation procedures.
#
#######################################################################

data_SIWBUX
_symmetry_cell_setting           monoclinic
_symmetry_space_group_name_H-M   'C 2/c'
_symmetry_Int_Tables_number      15
_space_group_name_Hall           '-C 2yn'
loop_
_symmetry_equiv_pos_site_id
_symmetry_equiv_pos_as_xyz
1 x,y,z
2 -x,y,1/2-z
3 1/2+x,1/2+y,z
4 1/2-x,1/2+y,1/2-z
5 -x,-y,-z
6 x,-y,1/2+z
7 1/2-x,1/2-y,-z
8 1/2+x,1/2-y,1/2+z
_cell_length_a                   19.4576(11)
_cell_length_b                   8.4762(4)
_cell_length_c                   20.8132(10)
_cell_angle_alpha                90
_cell_angle_beta                 106.694(4)
_cell_angle_gamma                90
_cell_volume                     3287.97
loop_
_atom_site_label
_atom_site_type_symbol
_atom_site_fract_x
_atom_site_fract_y
_atom_site_fract_z
Ag1 Ag 0.476342(8) 0.603638(17) 0.311770(7)
S1 S 0.12774(2) 0.34131(5) 0.07056(2)
O1 O 0.12464(7) 0.31081(17) 0.00209(6)
O2 O 0.09892(7) 0.23025(16) 0.10781(7)
O3 O 0.42758(7) 0.40380(16) 0.22158(7)
O4 O -0.00443(7) 0.94875(15) 0.08752(7)
O5 O 0.57499(10) 0.7713(2) 0.35450(9)
O6 O 0.60718(10) 0.7787(2) 0.25933(8)
N1 N 0.36001(8) 0.40124(16) 0.18696(8)
N2 N 0.02536(8) 0.81212(17) 0.08373(7)
C1 C 0.30909(11) 0.3891(2) 0.21967(10)
H1 H 0.3226 0.3927 0.2663
C2 C 0.23824(10) 0.3716(2) 0.18520(9)
H2 H 0.2039 0.3599 0.2080
C3 C 0.21851(9) 0.37145(19) 0.11565(8)
C4 C 0.27047(10) 0.3909(2) 0.08251(9)
H3 H 0.2576 0.3943 0.0359
C5 C 0.34121(10) 0.4051(2) 0.11933(9)
H4 H 0.3764 0.4175 0.0975
C6 C 0.08653(8) 0.5255(2) 0.07461(8)
C7 C 0.06170(10) 0.5592(2) 0.12939(9)
H5 H 0.0656 0.4848 0.1631
C8 C 0.03134(11) 0.7041(2) 0.13303(9)
H6 H 0.0148 0.7282 0.1696
C9 C 0.04826(10) 0.7796(2) 0.02951(9)
H7 H 0.0429 0.8545 -0.0043
C10 C 0.07942(10) 0.6366(2) 0.02422(9)
H8 H 0.0956 0.6146 -0.0128
C11 C 0.73909(16) 0.8677(3) 0.38831(13)
C12 C 0.66842(13) 0.9400(2) 0.34903(11)
C13 C 0.60962(11) 0.8173(2) 0.31692(10)
F1 F 0.76399(11) 0.7715(2) 0.35003(11)
F2 F 0.78745(12) 0.9765(3) 0.41335(13)
F3 F 0.73141(14) 0.7807(3) 0.43756(9)
F4 F 0.68321(9) 1.03279(16) 0.30162(7)
F5 F 0.64735(11) 1.0367(2) 0.39072(10)
Ag1A Ag 0.523658(8) 0.603638(17) 0.188230(7)
Ag1C Ag 0.023658(8) 1.103638(17) 0.188230(7)
O4C O 0.50443(7) 0.44875(15) 0.41248(7)
O6A O 0.39282(10) 0.7787(2) 0.24067(8)
loop_
_geom_bond_atom_site_label_1
_geom_bond_atom_site_label_2
_geom_bond_site_symmetry_1
_geom_bond_site_symmetry_2
Ag1 O3 1_555 1_555
S1 O1 1_555 1_555
O2 S1 1_555 1_555
O3 N1 1_555 1_555
O4 N2 1_555 1_555
O5 Ag1 1_555 1_555
O6 C13 1_555 1_555
N1 C1 1_555 1_555
N2 C8 1_555 1_555
C1 H1 1_555 1_555
C2 C1 1_555 1_555
H2 C2 1_555 1_555
C3 S1 1_555 1_555
C4 C3 1_555 1_555
H3 C4 1_555 1_555
C5 N1 1_555 1_555
H4 C5 1_555 1_555
C6 S1 1_555 1_555
C7 C6 1_555 1_555
H5 C7 1_555 1_555
C8 C7 1_555 1_555
H6 C8 1_555 1_555
C9 N2 1_555 1_555
H7 C9 1_555 1_555
C10 C6 1_555 1_555
H8 C10 1_555 1_555
C11 C12 1_555 1_555
C12 C13 1_555 1_555
C13 O5 1_555 1_555
F1 C11 1_555 1_555
F2 C11 1_555 1_555
F3 C11 1_555 1_555
F4 C12 1_555 1_555
F5 C12 1_555 1_555
Ag1A Ag1 1_555 1_555
Ag1C O4 1_555 1_555
O4C Ag1 1_555 1_555
O6A Ag1 1_555 1_555
O6 Ag1A 1_555 1_555
C2 C3 1_555 1_555
C4 C5 1_555 1_555
C9 C10 1_555 1_555

#END
