
#######################################################################
#
#                 Cambridge Crystallographic Data Centre
#                                CCDC 
#
#######################################################################
#
# If this CIF has been generated from an entry in the Cambridge 
# Structural Database, then it will include bibliographic, chemical, 
# crystal, experimental, refinement or atomic coordinate data resulting 
# from the CCDC's data processing and validation procedures.
#
#######################################################################

data_SIWBOR
_symmetry_cell_setting           monoclinic
_symmetry_space_group_name_H-M   'C 2/c'
_symmetry_Int_Tables_number      15
_space_group_name_Hall           '-C 2yn'
loop_
_symmetry_equiv_pos_site_id
_symmetry_equiv_pos_as_xyz
1 x,y,z
2 -x,y,1/2-z
3 1/2+x,1/2+y,z
4 1/2-x,1/2+y,1/2-z
5 -x,-y,-z
6 x,-y,1/2+z
7 1/2-x,1/2-y,-z
8 1/2+x,1/2-y,1/2+z
_cell_length_a                   22.9433(18)
_cell_length_b                   10.7410(6)
_cell_length_c                   14.1220(7)
_cell_angle_alpha                90
_cell_angle_beta                 127.908(2)
_cell_angle_gamma                90
_cell_volume                     2745.83
loop_
_atom_site_label
_atom_site_type_symbol
_atom_site_fract_x
_atom_site_fract_y
_atom_site_fract_z
Ag1 Ag -0.012871(19) 0.91330(3) 0.59775(3)
S1 S 0.10605(5) 0.40734(8) 0.39579(8)
O1 O 0.05400(17) 0.8856(3) 0.5253(3)
O2 O 0.42501(14) 0.4393(3) 0.6806(2)
O3 O 0.07532(15) 0.4106(3) 0.2713(2)
O4 O 0.08675(15) 0.3103(2) 0.4417(3)
N1 N 0.06292(16) 0.7757(3) 0.4931(3)
N2 N 0.35259(17) 0.4261(3) 0.6146(3)
C1 C 0.0740(2) 0.7708(4) 0.4103(4)
H1 H 0.0736 0.8438 0.3744
C2 C 0.0860(2) 0.6589(4) 0.3783(4)
H2 H 0.0928 0.6556 0.3198
C3 C 0.08797(19) 0.5517(3) 0.4333(3)
C4 C 0.0775(2) 0.5580(4) 0.5199(4)
H3 H 0.0795 0.4863 0.5588
C5 C 0.0641(2) 0.6717(4) 0.5473(3)
H4 H 0.0558 0.6769 0.6038
C6 C 0.2032(2) 0.4100(3) 0.4801(3)
C7 C 0.2349(2) 0.4399(4) 0.4263(3)
H5 H 0.2056 0.4554 0.3443
C8 C 0.3103(2) 0.4467(4) 0.4952(3)
H6 H 0.3324 0.4655 0.4596
C9 C 0.3222(2) 0.3951(3) 0.6681(3)
H7 H 0.3524 0.3793 0.7502
C10 C 0.2474(2) 0.3866(4) 0.6026(3)
H8 H 0.2263 0.3654 0.6393
Ag1B Ag 0.487129(19) 0.41330(3) 0.59775(3)
Ag1C Ag 0.512871(19) 0.41330(3) 0.90225(3)
Ag1D Ag 0.012871(19) 1.08670(3) 0.40225(3)
O1D O -0.05400(17) 1.1144(3) 0.4747(3)
O2B O -0.07499(14) 0.9393(3) 0.6806(2)
O2C O 0.07499(14) 0.9393(3) 0.8194(2)
Cl1 Cl 0.32091(8) 0.29305(11) 0.24382(11)
O5 O 0.3798(4) 0.3692(6) 0.3368(5)
O6 O 0.2620(4) 0.3247(6) 0.2417(6)
O7 O 0.3058(3) 0.3228(4) 0.1329(3)
O8 O 0.3420(3) 0.1675(3) 0.2756(4)
loop_
_geom_bond_atom_site_label_1
_geom_bond_atom_site_label_2
_geom_bond_site_symmetry_1
_geom_bond_site_symmetry_2
Ag1 O1 1_555 1_555
S1 O3 1_555 1_555
O1 N1 1_555 1_555
O2 N2 1_555 1_555
O4 S1 1_555 1_555
N1 C1 1_555 1_555
N2 C8 1_555 1_555
C1 H1 1_555 1_555
C2 C1 1_555 1_555
H2 C2 1_555 1_555
C3 S1 1_555 1_555
C4 C3 1_555 1_555
H3 C4 1_555 1_555
C5 N1 1_555 1_555
H4 C5 1_555 1_555
C6 S1 1_555 1_555
C7 C6 1_555 1_555
H5 C7 1_555 1_555
C8 C7 1_555 1_555
H6 C8 1_555 1_555
C9 N2 1_555 1_555
H7 C9 1_555 1_555
C10 C6 1_555 1_555
H8 C10 1_555 1_555
Cl1 O5 1_555 1_555
O6 Cl1 1_555 1_555
O7 Cl1 1_555 1_555
O8 Cl1 1_555 1_555
Ag1B O2 1_555 1_555
Ag1C O2 1_555 1_555
Ag1D O1 1_555 1_555
O1D Ag1 1_555 1_555
O2B Ag1 1_555 1_555
O2C Ag1 1_555 1_555
C2 C3 1_555 1_555
C4 C5 1_555 1_555
C9 C10 1_555 1_555
Ag1D O1D 1_555 1_555

#END
