
#######################################################################
#
#                 Cambridge Crystallographic Data Centre
#                                CCDC 
#
#######################################################################
#
# If this CIF has been generated from an entry in the Cambridge 
# Structural Database, then it will include bibliographic, chemical, 
# crystal, experimental, refinement or atomic coordinate data resulting 
# from the CCDC's data processing and validation procedures.
#
#######################################################################

data_SIWCIM
_symmetry_cell_setting           monoclinic
_symmetry_space_group_name_H-M   'C c'
_symmetry_Int_Tables_number      9
_space_group_name_Hall           'C -2yc'
loop_
_symmetry_equiv_pos_site_id
_symmetry_equiv_pos_as_xyz
1 x,y,z
2 x,-y,1/2+z
3 1/2+x,1/2+y,z
4 1/2+x,1/2-y,1/2+z
_cell_length_a                   21.1279(2)
_cell_length_b                   5.92990(10)
_cell_length_c                   12.4628(2)
_cell_angle_alpha                90
_cell_angle_beta                 111.6880(10)
_cell_angle_gamma                90
_cell_volume                     1450.89
loop_
_atom_site_label
_atom_site_type_symbol
_atom_site_fract_x
_atom_site_fract_y
_atom_site_fract_z
Ag1 Ag 0.753290(11) 0.79299(4) 0.700790(12)
S1 S 0.54800(3) 0.17460(11) 0.16745(5)
O1 O 0.54095(10) -0.0647(3) 0.17237(18)
O2 O 0.58049(11) 0.2709(4) 0.09535(19)
O3 O 0.27510(10) 0.5496(4) 0.03288(18)
O4 O 0.71223(10) 0.4319(3) 0.63844(15)
O5 O 0.82637(14) 0.5368(6) 0.8721(2)
O6 O 0.93427(13) 0.4884(5) 0.9143(2)
O7 O 0.87905(18) 0.7387(5) 0.7870(3)
N1 N 0.88029(16) 0.5875(5) 0.8585(2)
N2 N 0.33834(11) 0.4686(4) 0.06636(19)
N3 N 0.67212(10) 0.3831(4) 0.53160(18)
C1 C 0.38503(15) 0.5819(5) 0.0378(3)
H1 H 0.3733 0.7166 -0.0030
C2 C 0.45062(15) 0.4973(5) 0.0692(3)
H2 H 0.4834 0.5739 0.0501
C3 C 0.46603(14) 0.2972(4) 0.1295(2)
C4 C 0.41732(14) 0.1833(5) 0.1578(2)
H3 H 0.4277 0.0473 0.1977
C5 C 0.35317(15) 0.2748(5) 0.1259(3)
H4 H 0.3200 0.2022 0.1458
C6 C 0.67679(18) 0.5003(6) 0.4433(3)
H5 H 0.7070 0.6208 0.4578
C7 C 0.63768(18) 0.4452(6) 0.3316(3)
H6 H 0.6410 0.5277 0.2705
C8 C 0.59346(13) 0.2665(4) 0.3111(2)
C9 C 0.58869(15) 0.1468(6) 0.4028(3)
H7 H 0.5589 0.0254 0.3901
C10 C 0.62862(16) 0.2102(5) 0.5130(3)
H8 H 0.6254 0.1321 0.5755
O8 O 0.71998(12) 1.0754(4) 0.79366(19)
H9 H 0.7266 1.2067 0.7648
H10 H 0.7512 1.0730 0.8650
Ag1C Ag 0.253290(11) 0.70701(4) 0.200790(12)
O3C O 0.77510(10) 0.9504(4) 0.53288(18)
loop_
_geom_bond_atom_site_label_1
_geom_bond_atom_site_label_2
_geom_bond_site_symmetry_1
_geom_bond_site_symmetry_2
Ag1 O4 1_555 1_555
S1 O1 1_555 1_555
O2 S1 1_555 1_555
O3 N2 1_555 1_555
O4 N3 1_555 1_555
O5 Ag1 1_555 1_555
O6 N1 1_555 1_555
O7 Ag1 1_555 1_555
N1 O5 1_555 1_555
N2 C1 1_555 1_555
N3 C6 1_555 1_555
C1 H1 1_555 1_555
C2 C1 1_555 1_555
H2 C2 1_555 1_555
C3 S1 1_555 1_555
C4 C3 1_555 1_555
H3 C4 1_555 1_555
C5 N2 1_555 1_555
H4 C5 1_555 1_555
C6 H5 1_555 1_555
C7 C6 1_555 1_555
H6 C7 1_555 1_555
C8 S1 1_555 1_555
C9 C8 1_555 1_555
H7 C9 1_555 1_555
C10 N3 1_555 1_555
H8 C10 1_555 1_555
O8 Ag1 1_555 1_555
H9 O8 1_555 1_555
H10 O8 1_555 1_555
Ag1C O3 1_555 1_555
O3C Ag1 1_555 1_555
O7 N1 1_555 1_555
C2 C3 1_555 1_555
C4 C5 1_555 1_555
C7 C8 1_555 1_555
C9 C10 1_555 1_555

#END
