
#######################################################################
#
#                 Cambridge Crystallographic Data Centre
#                                CCDC 
#
#######################################################################
#
# If this CIF has been generated from an entry in the Cambridge 
# Structural Database, then it will include bibliographic, chemical, 
# crystal, experimental, refinement or atomic coordinate data resulting 
# from the CCDC's data processing and validation procedures.
#
#######################################################################

data_SIWCEI
_symmetry_cell_setting           monoclinic
_symmetry_space_group_name_H-M   'C 2/c'
_symmetry_Int_Tables_number      15
_space_group_name_Hall           '-C 2yn'
loop_
_symmetry_equiv_pos_site_id
_symmetry_equiv_pos_as_xyz
1 x,y,z
2 -x,y,1/2-z
3 1/2+x,1/2+y,z
4 1/2-x,1/2+y,1/2-z
5 -x,-y,-z
6 x,-y,1/2+z
7 1/2-x,1/2-y,-z
8 1/2+x,1/2-y,1/2+z
_cell_length_a                   19.6163(7)
_cell_length_b                   8.2406(3)
_cell_length_c                   20.6409(7)
_cell_angle_alpha                90
_cell_angle_beta                 107.139(2)
_cell_angle_gamma                90
_cell_volume                     3188.43
loop_
_atom_site_label
_atom_site_type_symbol
_atom_site_fract_x
_atom_site_fract_y
_atom_site_fract_z
Ag1 Ag 0.521658(11) 0.60931(3) 0.183786(10)
S1 S 0.86729(3) 0.32833(8) 0.42357(3)
S2 S 0.38788(4) 0.87730(8) 0.17521(4)
O1 O 0.87099(10) 0.2949(3) 0.49248(9)
O2 O 0.89459(11) 0.2132(2) 0.38506(11)
O3 O 1.00813(10) 0.9450(2) 0.41491(9)
O4 O 0.56941(10) 0.4240(2) 0.27413(10)
O5 O 0.40582(16) 1.0437(3) 0.18807(15)
O6 O 0.42391(14) 0.7920(3) 0.13421(11)
O7 O 0.38365(13) 0.7870(3) 0.23355(10)
N1 N 0.97560(11) 0.8069(3) 0.41605(10)
N2 N 0.63704(11) 0.4072(2) 0.30814(11)
F1 F 0.26818(16) 0.7405(3) 0.1091(2)
F2 F 0.29015(14) 0.9598(4) 0.06465(11)
F3 F 0.25577(13) 0.9676(4) 0.15123(13)
C1 C 0.96858(15) 0.6987(3) 0.36504(13)
H1 H 0.9862 0.7232 0.3290
C2 C 0.93516(15) 0.5521(3) 0.36677(13)
H2 H 0.9299 0.4775 0.3318
C3 C 0.90950(13) 0.5165(3) 0.42086(12)
C4 C 0.91780(15) 0.6288(4) 0.47259(14)
H3 H 0.9009 0.6062 0.5092
C5 C 0.95104(15) 0.7733(4) 0.46930(13)
H4 H 0.9568 0.8489 0.5040
C6 C 0.77675(14) 0.3620(3) 0.37837(13)
C7 C 0.75676(16) 0.3754(4) 0.30831(14)
H5 H 0.7905 0.3677 0.2849
C8 C 0.68642(16) 0.4003(4) 0.27445(15)
H6 H 0.6724 0.4127 0.2276
C9 C 0.65560(14) 0.3939(3) 0.37604(13)
H7 H 0.6209 0.3992 0.3985
C10 C 0.72614(14) 0.3724(3) 0.41209(13)
H8 H 0.7395 0.3649 0.4591
C11 C 0.29580(19) 0.8826(4) 0.12183(17)
Ag1A Ag 0.478342(11) 0.60931(3) 0.316214(10)
Ag1C Ag 0.978342(11) 0.10931(3) 0.316214(10)
Ag1C_2 Ag 0.978342(11) 1.10931(3) 0.316214(10)
O2C O 0.60541(11) 0.7132(2) 0.11494(11)
O3C O 0.49187(10) 0.4450(2) 0.08509(9)
O4A O 0.43059(10) 0.4240(2) 0.22587(10)
O7A O 0.61635(13) 0.7870(3) 0.26645(10)
loop_
_geom_bond_atom_site_label_1
_geom_bond_atom_site_label_2
_geom_bond_site_symmetry_1
_geom_bond_site_symmetry_2
Ag1 O4 1_555 1_555
S1 O1 1_555 1_555
S2 O5 1_555 1_555
O2 S1 1_555 1_555
O3 N1 1_555 1_555
O4 N2 1_555 1_555
O6 Ag1 1_555 1_555
O7 S2 1_555 1_555
N1 C1 1_555 1_555
N2 C8 1_555 1_555
F1 C11 1_555 1_555
F2 C11 1_555 1_555
F3 C11 1_555 1_555
C1 H1 1_555 1_555
C2 C1 1_555 1_555
H2 C2 1_555 1_555
C3 S1 1_555 1_555
C4 C3 1_555 1_555
H3 C4 1_555 1_555
C5 N1 1_555 1_555
H4 C5 1_555 1_555
C6 S1 1_555 1_555
C7 C6 1_555 1_555
H5 C7 1_555 1_555
C8 C7 1_555 1_555
H6 C8 1_555 1_555
C9 N2 1_555 1_555
H7 C9 1_555 1_555
C10 C6 1_555 1_555
H8 C10 1_555 1_555
C11 S2 1_555 1_555
Ag1A Ag1 1_555 1_555
Ag1C O2 1_555 1_555
Ag1C_2 O3 1_555 1_555
O2C Ag1 1_555 1_555
O3C Ag1 1_555 1_555
O4A Ag1 1_555 1_555
O7A Ag1 1_555 1_555
S2 O6 1_555 1_555
O4 Ag1A 1_555 1_555
O7 Ag1A 1_555 1_555
C2 C3 1_555 1_555
C4 C5 1_555 1_555
C9 C10 1_555 1_555
Ag1A O4A 1_555 1_555

#END
