
#######################################################################
#
#                 Cambridge Crystallographic Data Centre
#                                CCDC 
#
#######################################################################
#
# If this CIF has been generated from an entry in the Cambridge 
# Structural Database, then it will include bibliographic, chemical, 
# crystal, experimental, refinement or atomic coordinate data resulting 
# from the CCDC's data processing and validation procedures.
#
#######################################################################

data_SIWHOX
_symmetry_cell_setting           hexagonal
_symmetry_space_group_name_H-M   'P 61'
_symmetry_Int_Tables_number      169
_space_group_name_Hall           'P 61'
loop_
_symmetry_equiv_pos_site_id
_symmetry_equiv_pos_as_xyz
1 x,y,z
2 -x,-y,1/2+z
3 -y,x-y,1/3+z
4 -x+y,-x,2/3+z
5 x-y,x,1/6+z
6 y,-x+y,5/6+z
_cell_length_a                   9.839(5)
_cell_length_b                   9.839(5)
_cell_length_c                   47.25(2)
_cell_angle_alpha                90
_cell_angle_beta                 90
_cell_angle_gamma                120
_cell_volume                     3961.27
loop_
_atom_site_label
_atom_site_type_symbol
_atom_site_fract_x
_atom_site_fract_y
_atom_site_fract_z
Cd1 Cd 1.15091(4) -0.42468(4) 0.636951(16)
C1 C 1.2429(6) -0.1291(5) 0.67668(10)
H1 H 1.2882 -0.0779 0.6598
C2 C 1.1010(6) -0.3579(6) 0.70137(11)
H2 H 1.0444 -0.4670 0.7017
C3 C 1.1174(6) -0.2768(6) 0.72596(12)
H3 H 1.0748 -0.3309 0.7427
C4 C 1.1967(6) -0.1158(6) 0.72571(11)
H4 H 1.2068 -0.0598 0.7422
C5 C 1.2610(5) -0.0382(6) 0.70071(10)
C6 C 1.3445(6) 0.1335(6) 0.69769(11)
H5 H 1.3626 0.1749 0.6795
C7 C 1.4705(6) 0.3960(5) 0.71151(10)
H6 H 1.4551 0.4090 0.6914
C8 C 1.6468(7) 0.4743(7) 0.71766(16)
H7 H 1.6631 0.4574 0.7373
H8 H 1.6935 0.4279 0.7058
C9 C 1.7246(7) 0.6500(7) 0.7117(2)
H9 H 1.8357 0.6997 0.7160
H10 H 1.7140 0.6663 0.6917
C10 C 1.6508(7) 0.7245(7) 0.7292(2)
H11 H 1.7006 0.8355 0.7247
H12 H 1.6677 0.7144 0.7491
C11 C 1.4743(6) 0.6466(7) 0.72334(16)
H13 H 1.4285 0.6933 0.7353
H14 H 1.4571 0.6636 0.7038
C12 C 1.3959(5) 0.4710(5) 0.72927(11)
H15 H 1.4084 0.4551 0.7494
C13 C 1.1325(6) 0.3450(6) 0.74298(10)
H16 H 1.1737 0.3643 0.7612
C14 C 0.9621(6) 0.2612(5) 0.74000(10)
C15 C 0.8835(6) 0.1960(6) 0.71501(12)
H17 H 0.9393 0.2053 0.6985
C16 C 0.7236(6) 0.1179(6) 0.71466(12)
H18 H 0.6696 0.0760 0.6978
C17 C 0.6431(6) 0.1014(6) 0.73918(12)
H19 H 0.5340 0.0443 0.7388
C18 C 0.8714(5) 0.2432(6) 0.76378(10)
H20 H 0.9224 0.2886 0.7807
N1 N 1.1639(5) -0.2852(4) 0.67687(10)
N2 N 1.3933(5) 0.2284(5) 0.71814(9)
N3 N 1.2284(5) 0.3934(5) 0.72252(9)
N4 N 0.7145(4) 0.1638(5) 0.76355(10)
N5 N 0.8015(5) -0.5985(6) 0.6367(2)
O1 O 0.6563(5) -0.6711(7) 0.6378(3)
O2 O 0.8779(7) -0.6394(8) 0.65104(17)
O3 O 0.8782(7) -0.4816(8) 0.62399(19)
O4 O 1.1817(4) -0.6109(4) 0.66278(8)
H21 H 1.1940 -0.6080 0.6816
H22 H 1.1592 -0.7002 0.6586
O5 O 1.1823(4) -0.2080(4) 0.61121(8)
H23 H 1.1929 -0.1992 0.5923
H24 H 1.1394 -0.1564 0.6158
O6 O 1.4198(4) -0.2896(5) 0.6375(2)
H25 H 1.4773 -0.1727 0.6353
H26 H 1.4391 -0.3239 0.6240
Cd1D Cd 0.57559(6) 0.15091(4) 0.803618(16)
N4E N 1.1638(5) -0.5507(6) 0.59688(10)
N6 N 1.0021(7) 0.0003(7) 0.6373(3)
O7 O 0.9349(9) -0.1252(7) 0.62563(19)
O8 O 0.9374(9) 0.0623(9) 0.64837(19)
O9 O 1.1437(6) 0.0731(11) 0.6364(3)
O10 O 0.6256(6) 0.0120(6) 0.64383(18)
H27 H 0.6515 0.0280 0.6270
H28 H 0.6794 0.0770 0.6510
O11 O 0.6252(6) -0.3881(8) 0.62935(16)
H29 H 0.6637 -0.3643 0.6465
H30 H 0.6367 -0.4774 0.6244
loop_
_geom_bond_atom_site_label_1
_geom_bond_atom_site_label_2
_geom_bond_site_symmetry_1
_geom_bond_site_symmetry_2
Cd1 N1 1_555 1_555
C1 H1 1_555 1_555
C2 H2 1_555 1_555
C3 C2 1_555 1_555
H3 C3 1_555 1_555
C4 C3 1_555 1_555
H4 C4 1_555 1_555
C5 C1 1_555 1_555
C6 C5 1_555 1_555
H5 C6 1_555 1_555
C7 H6 1_555 1_555
C8 C7 1_555 1_555
H7 C8 1_555 1_555
H8 C8 1_555 1_555
C9 C8 1_555 1_555
H9 C9 1_555 1_555
H10 C9 1_555 1_555
C10 C9 1_555 1_555
H11 C10 1_555 1_555
H12 C10 1_555 1_555
C11 C10 1_555 1_555
H13 C11 1_555 1_555
H14 C11 1_555 1_555
C12 C7 1_555 1_555
H15 C12 1_555 1_555
C13 H16 1_555 1_555
C14 C13 1_555 1_555
C15 C14 1_555 1_555
H17 C15 1_555 1_555
C16 C15 1_555 1_555
H18 C16 1_555 1_555
C17 C16 1_555 1_555
H19 C17 1_555 1_555
C18 C14 1_555 1_555
H20 C18 1_555 1_555
N1 C1 1_555 1_555
N2 C6 1_555 1_555
N3 C12 1_555 1_555
N4 C17 1_555 1_555
N5 O1 1_555 1_555
O2 Cd1 1_555 1_555
O3 Cd1 1_555 1_555
O4 Cd1 1_555 1_555
H21 O4 1_555 1_555
H22 O4 1_555 1_555
O5 Cd1 1_555 1_555
H23 O5 1_555 1_555
H24 O5 1_555 1_555
O6 Cd1 1_555 1_555
H25 O6 1_555 1_555
H26 O6 1_555 1_555
N6 O7 1_555 1_555
O8 N6 1_555 1_555
O9 N6 1_555 1_555
O10 H27 1_555 1_555
H28 O10 1_555 1_555
O11 H29 1_555 1_555
H30 O11 1_555 1_555
Cd1D N4 1_555 1_555
N4E Cd1 1_555 1_555
C2 N1 1_555 1_555
C4 C5 1_555 1_555
C7 N2 1_555 1_555
C11 C12 1_555 1_555
C13 N3 1_555 1_555
C18 N4 1_555 1_555
N5 O2 1_555 1_555
N5 O3 1_555 1_555

#END
