
#######################################################################
#
#                 Cambridge Crystallographic Data Centre
#                                CCDC 
#
#######################################################################
#
# If this CIF has been generated from an entry in the Cambridge 
# Structural Database, then it will include bibliographic, chemical, 
# crystal, experimental, refinement or atomic coordinate data resulting 
# from the CCDC's data processing and validation procedures.
#
#######################################################################

data_SIWHIR
_symmetry_cell_setting           orthorhombic
_symmetry_space_group_name_H-M   'P 21 21 21'
_symmetry_Int_Tables_number      19
_space_group_name_Hall           'P 2ac 2ab'
loop_
_symmetry_equiv_pos_site_id
_symmetry_equiv_pos_as_xyz
1 x,y,z
2 1/2-x,-y,1/2+z
3 -x,1/2+y,1/2-z
4 1/2+x,1/2-y,-z
_cell_length_a                   13.2557(13)
_cell_length_b                   18.3414(18)
_cell_length_c                   17.7583(17)
_cell_angle_alpha                90
_cell_angle_beta                 90
_cell_angle_gamma                90
_cell_volume                     4317.54
loop_
_atom_site_label
_atom_site_type_symbol
_atom_site_fract_x
_atom_site_fract_y
_atom_site_fract_z
O1 O -0.0023(6) 0.3190(3) 0.8301(5)
O2 O 0.9559(5) 0.2187(5) 0.7144(5)
Ag1 Ag 0.51301(2) -0.001242(15) 0.758095(17)
C1 C 0.1819(4) 0.1113(2) 1.2289(3)
H1 H 0.2048 0.0924 1.2744
C2 C 0.0802(4) 0.1025(3) 1.1260(3)
H2 H 0.0316 0.0776 1.0984
C3 C 0.2246(4) 0.1756(3) 1.2027(3)
H3 H 0.2761 0.1980 1.2297
C4 C 0.1198(4) 0.1670(3) 1.0972(3)
H4 H 0.0982 0.1841 1.0505
C5 C 0.1906(4) 0.2057(3) 1.1373(3)
C6 C 0.2263(5) 0.2771(3) 1.1086(4)
H5 H 0.2850 0.2965 1.1292
C7 C 0.2259(5) 0.3818(2) 1.0366(3)
H6 H 0.2938 0.3872 1.0577
C8 C 0.1586(5) 0.4438(2) 1.0648(3)
H7 H 0.0903 0.4365 1.0467
H8 H 0.1569 0.4431 1.1194
C9 C 0.1971(5) 0.5180(2) 1.0380(3)
H9 H 0.1503 0.5557 1.0536
H10 H 0.2619 0.5280 1.0612
C10 C 0.2081(6) 0.5193(2) 0.9529(3)
H11 H 0.1421 0.5150 0.9298
H12 H 0.2371 0.5655 0.9375
C11 C 0.2748(6) 0.4578(3) 0.9260(3)
H13 H 0.3422 0.4638 0.9464
H14 H 0.2794 0.4590 0.8715
C12 C 0.2316(5) 0.3844(2) 0.9511(3)
H15 H 0.1636 0.3789 0.9304
C13 C 0.2543(4) 0.2770(2) 0.8850(3)
H16 H 0.1857 0.2804 0.8749
C14 C 0.3116(4) 0.2138(2) 0.8546(3)
C15 C 0.2628(4) 0.1527(2) 0.8274(3)
H17 H 0.1928 0.1513 0.8248
C16 C 0.3189(4) 0.0943(2) 0.8046(2)
H18 H 0.2848 0.0529 0.7883
C17 C 0.4648(4) 0.1536(2) 0.8287(3)
H19 H 0.5349 0.1548 0.8280
C18 C 0.4158(4) 0.2140(2) 0.8545(3)
H20 H 0.4517 0.2543 0.8717
C19 C 0.6840(4) 0.1142(2) 0.6970(3)
H21 H 0.7219 0.0936 0.7356
C20 C 0.7200(5) 0.1772(2) 0.6622(3)
H22 H 0.7817 0.1970 0.6765
C21 C 0.6640(4) 0.2098(2) 0.6068(3)
C22 C 0.5757(4) 0.1758(3) 0.5845(3)
H23 H 0.5376 0.1948 0.5453
C23 C 0.5451(4) 0.1138(2) 0.6208(3)
H24 H 0.4849 0.0921 0.6058
C24 C 0.6973(5) 0.2810(3) 0.5738(3)
H25 H 0.7633 0.2964 0.5816
C25 C 0.6787(4) 0.3891(2) 0.5074(3)
H26 H 0.7489 0.3947 0.5237
C26 C 0.6177(5) 0.4516(2) 0.5378(3)
H27 H 0.6242 0.4530 0.5922
H28 H 0.5472 0.4440 0.5258
C27 C 0.6521(5) 0.5248(2) 0.5050(3)
H29 H 0.6093 0.5635 0.5241
H30 H 0.7208 0.5347 0.5207
C28 C 0.6466(4) 0.5231(2) 0.4200(3)
H31 H 0.6714 0.5688 0.3997
H32 H 0.5770 0.5172 0.4042
C29 C 0.7098(4) 0.4602(2) 0.3899(3)
H33 H 0.7050 0.4591 0.3354
H34 H 0.7800 0.4681 0.4031
C30 C 0.6754(4) 0.3873(2) 0.4215(3)
H35 H 0.6064 0.3771 0.4047
C31 C 0.7068(4) 0.2756(2) 0.3625(3)
H36 H 0.6373 0.2736 0.3552
C32 C 0.7700(3) 0.2137(2) 0.3365(3)
C33 C 0.7280(4) 0.1516(2) 0.3060(2)
H37 H 0.6585 0.1483 0.2994
C34 C 0.7896(3) 0.0945(2) 0.2854(2)
H38 H 0.7597 0.0527 0.2660
C35 C 0.9309(4) 0.1569(2) 0.3199(3)
H39 H 1.0007 0.1596 0.3238
C36 C 0.8739(4) 0.2158(2) 0.3433(3)
H40 H 0.9054 0.2567 0.3636
N1 N 0.1100(3) 0.0753(2) 1.1923(2)
N2 N 0.1834(4) 0.3120(2) 1.0598(2)
N3 N 0.2951(4) 0.3252(2) 0.9232(2)
N4 N 0.4199(3) 0.09311(19) 0.8042(2)
N5 N 0.5979(4) 0.0824(2) 0.6774(2)
N6 N 0.6396(3) 0.32007(19) 0.5363(2)
N7 N 0.7436(3) 0.32986(19) 0.3938(2)
N8 N 0.8897(3) 0.09605(18) 0.2919(2)
Ag1A Ag -0.01301(2) 0.001242(15) 1.258095(17)
Ag1A_2 Ag 0.98699(2) 0.001242(15) 0.258095(17)
N1A N 0.3900(3) -0.0753(2) 0.6923(2)
N8A N 0.6103(3) -0.09605(18) 0.7919(2)
C37 C 1.0331(6) -0.0079(5) 0.8674(7)
O3 O 0.8769(3) 0.0447(3) 0.8109(3)
O4 O 1.0430(4) 0.0763(2) 0.7631(3)
O5 O 0.9739(6) -0.0434(3) 0.7437(4)
S1 S 0.97635(14) 0.02027(9) 0.78850(11)
F1 F 0.9802(5) -0.0619(3) 0.9070(3)
F2 F 1.0369(6) 0.0474(3) 0.9233(3)
F3 F 1.1233(5) -0.0307(4) 0.8591(4)
loop_
_geom_bond_atom_site_label_1
_geom_bond_atom_site_label_2
_geom_bond_site_symmetry_1
_geom_bond_site_symmetry_2
Ag1 N4 1_555 1_555
C1 H1 1_555 1_555
C2 H2 1_555 1_555
C3 C1 1_555 1_555
H3 C3 1_555 1_555
C4 C2 1_555 1_555
H4 C4 1_555 1_555
C5 C3 1_555 1_555
C6 C5 1_555 1_555
H5 C6 1_555 1_555
C7 H6 1_555 1_555
C8 C7 1_555 1_555
H7 C8 1_555 1_555
H8 C8 1_555 1_555
C9 C8 1_555 1_555
H9 C9 1_555 1_555
H10 C9 1_555 1_555
C10 C9 1_555 1_555
H11 C10 1_555 1_555
H12 C10 1_555 1_555
C11 C10 1_555 1_555
H13 C11 1_555 1_555
H14 C11 1_555 1_555
C12 C7 1_555 1_555
H15 C12 1_555 1_555
C13 H16 1_555 1_555
C14 C13 1_555 1_555
C15 C14 1_555 1_555
H17 C15 1_555 1_555
C16 C15 1_555 1_555
H18 C16 1_555 1_555
C17 H19 1_555 1_555
C18 C14 1_555 1_555
H20 C18 1_555 1_555
C19 H21 1_555 1_555
C20 C19 1_555 1_555
H22 C20 1_555 1_555
C21 C20 1_555 1_555
C22 C21 1_555 1_555
H23 C22 1_555 1_555
C23 C22 1_555 1_555
H24 C23 1_555 1_555
C24 C21 1_555 1_555
H25 C24 1_555 1_555
C25 H26 1_555 1_555
C26 C25 1_555 1_555
H27 C26 1_555 1_555
H28 C26 1_555 1_555
C27 C26 1_555 1_555
H29 C27 1_555 1_555
H30 C27 1_555 1_555
C28 C27 1_555 1_555
H31 C28 1_555 1_555
H32 C28 1_555 1_555
C29 C28 1_555 1_555
H33 C29 1_555 1_555
H34 C29 1_555 1_555
C30 C25 1_555 1_555
H35 C30 1_555 1_555
C31 H36 1_555 1_555
C32 C31 1_555 1_555
C33 C32 1_555 1_555
H37 C33 1_555 1_555
C34 C33 1_555 1_555
H38 C34 1_555 1_555
C35 H39 1_555 1_555
C36 C32 1_555 1_555
H40 C36 1_555 1_555
N1 C1 1_555 1_555
N2 C6 1_555 1_555
N3 C12 1_555 1_555
N4 C16 1_555 1_555
N5 Ag1 1_555 1_555
N6 C24 1_555 1_555
N7 C30 1_555 1_555
N8 C34 1_555 1_555
C37 S1 1_555 1_555
O3 S1 1_555 1_555
O4 S1 1_555 1_555
O5 S1 1_555 1_555
F1 C37 1_555 1_555
F2 C37 1_555 1_555
F3 C37 1_555 1_555
Ag1A N1 1_555 1_555
Ag1A_2 N8 1_555 1_555
N1A Ag1 1_555 1_555
N8A Ag1 1_555 1_555
C2 N1 1_555 1_555
C4 C5 1_555 1_555
C7 N2 1_555 1_555
C11 C12 1_555 1_555
C13 N3 1_555 1_555
C17 C18 1_555 1_555
C17 N4 1_555 1_555
C19 N5 1_555 1_555
C23 N5 1_555 1_555
C25 N6 1_555 1_555
C29 C30 1_555 1_555
C31 N7 1_555 1_555
C35 C36 1_555 1_555
C35 N8 1_555 1_555

#END
