
#######################################################################
#
#                 Cambridge Crystallographic Data Centre
#                                CCDC 
#
#######################################################################
#
# If this CIF has been generated from an entry in the Cambridge 
# Structural Database, then it will include bibliographic, chemical, 
# crystal, experimental, refinement or atomic coordinate data resulting 
# from the CCDC's data processing and validation procedures.
#
#######################################################################

data_SIWKIT
_symmetry_cell_setting           monoclinic
_symmetry_space_group_name_H-M   'P 21/n'
_symmetry_Int_Tables_number      14
_space_group_name_Hall           '-P 2yn'
loop_
_symmetry_equiv_pos_site_id
_symmetry_equiv_pos_as_xyz
1 x,y,z
2 1/2-x,1/2+y,1/2-z
3 -x,-y,-z
4 1/2+x,1/2-y,1/2+z
_cell_length_a                   10.707(2)
_cell_length_b                   14.749(3)
_cell_length_c                   11.162(2)
_cell_angle_alpha                90.00
_cell_angle_beta                 109.84(3)
_cell_angle_gamma                90.00
_cell_volume                     1658.05
loop_
_atom_site_label
_atom_site_type_symbol
_atom_site_fract_x
_atom_site_fract_y
_atom_site_fract_z
Zn1 Zn 1.40827(5) 0.58805(3) 0.29889(4)
I1 I 1.46376(3) 0.23352(2) 0.27742(3)
S1 S 1.79866(10) 0.35079(7) 0.00806(9)
C1 C 1.6973(4) 0.3856(3) 0.0958(3)
C2 C 1.6384(4) 0.3184(3) 0.1448(3)
H1 H 1.6562 0.2579 0.1332
C3 C 1.5527(4) 0.3396(3) 0.2113(3)
C4 C 1.5206(4) 0.4280(3) 0.2322(3)
C5 C 1.5826(4) 0.4982(3) 0.1809(3)
C6 C 1.6720(4) 0.4788(3) 0.1151(3)
C7 C 1.7263(4) 0.5539(3) 0.0711(4)
H2 H 1.7867 0.5449 0.0289
C8 C 1.6894(4) 0.6396(3) 0.0911(4)
H3 H 1.7233 0.6893 0.0610
C9 C 1.6015(4) 0.6522(3) 0.1562(4)
H4 H 1.5781 0.7112 0.1692
C10 C 1.1582(4) 0.4984(3) 0.3152(4)
H5 H 1.1595 0.4714 0.2404
C11 C 1.0578(4) 0.4746(3) 0.3601(4)
H6 H 0.9927 0.4338 0.3147
C12 C 1.0535(4) 0.5116(3) 0.4739(3)
C13 C 1.1543(4) 0.5735(3) 0.5332(4)
H7 H 1.1568 0.6009 0.6090
C14 C 1.2493(4) 0.5943(3) 0.4812(4)
H8 H 1.3146 0.6361 0.5234
N1 N 1.5493(3) 0.5846(2) 0.2010(3)
N2 N 1.2537(3) 0.5577(2) 0.3725(3)
O1 O 1.4391(3) 0.4505(2) 0.2902(2)
O2 O 1.9353(3) 0.3668(2) 0.0870(3)
O3 O 1.7689(3) 0.25447(19) -0.0195(3)
O4 O 1.7599(3) 0.40591(19) -0.1081(2)
O5 O 1.3892(4) 0.7305(2) 0.2884(3)
H9 H 1.437(6) 0.773(4) 0.332(6)
H10 H 1.345(7) 0.752(4) 0.227(6)
O6 O 1.5567(3) 0.6076(2) 0.4762(3)
H11 H 1.554(6) 0.590(4) 0.542(5)
H12 H 1.615(6) 0.647(4) 0.487(5)
Zn1B Zn 1.59173(5) 0.41195(3) -0.29889(4)
Zn1B_2 Zn 0.59173(5) 0.41195(3) 0.70111(4)
I1B I 1.53624(3) 0.76648(2) -0.27742(3)
S1B S 1.20134(10) 0.64921(7) -0.00806(9)
C1B C 1.3027(4) 0.6144(3) -0.0958(3)
C2B C 1.3616(4) 0.6816(3) -0.1448(3)
H1B H 1.3438 0.7421 -0.1332
C3B C 1.4473(4) 0.6604(3) -0.2113(3)
C4B C 1.4794(4) 0.5720(3) -0.2322(3)
C5B C 1.4174(4) 0.5018(3) -0.1809(3)
C6B C 1.3280(4) 0.5212(3) -0.1151(3)
C7B C 1.2737(4) 0.4461(3) -0.0711(4)
H2B H 1.2133 0.4551 -0.0289
C8B C 1.3106(4) 0.3604(3) -0.0911(4)
H3B H 1.2767 0.3107 -0.0610
C9B C 1.3985(4) 0.3478(3) -0.1562(4)
H4B H 1.4219 0.2888 -0.1692
C10B C 0.8418(4) 0.5016(3) 0.6848(4)
H5B H 0.8405 0.5286 0.7596
C11B C 0.9422(4) 0.5254(3) 0.6399(4)
H6B H 1.0073 0.5662 0.6853
C12B C 0.9465(4) 0.4884(3) 0.5261(3)
C13B C 0.8457(4) 0.4265(3) 0.4668(4)
H7B H 0.8432 0.3991 0.3910
C14B C 0.7507(4) 0.4057(3) 0.5188(4)
H8B H 0.6854 0.3639 0.4766
N1B N 1.4507(3) 0.4154(2) -0.2010(3)
N2B N 0.7463(3) 0.4423(2) 0.6275(3)
N2B_2 N 1.7463(3) 0.4423(2) -0.3725(3)
O1B O 1.5609(3) 0.5495(2) -0.2902(2)
O2B O 1.0647(3) 0.6332(2) -0.0870(3)
O3B O 1.2311(3) 0.74553(19) 0.0195(3)
O4B O 1.2401(3) 0.59409(19) 0.1081(2)
O5B O 1.6108(4) 0.2695(2) -0.2884(3)
H9B H 1.563(6) 0.227(4) -0.332(6)
H10B H 1.655(7) 0.248(4) -0.227(6)
O6B O 1.4433(3) 0.3924(2) -0.4762(3)
H11B H 1.446(6) 0.410(4) -0.542(5)
H12B H 1.385(6) 0.353(4) -0.487(5)
loop_
_geom_bond_atom_site_label_1
_geom_bond_atom_site_label_2
_geom_bond_site_symmetry_1
_geom_bond_site_symmetry_2
Zn1 N1 1_555 1_555
I1 C3 1_555 1_555
S1 C1 1_555 1_555
C1 C2 1_555 1_555
C2 H1 1_555 1_555
C3 C2 1_555 1_555
C4 C3 1_555 1_555
C5 C4 1_555 1_555
C6 C1 1_555 1_555
C7 C6 1_555 1_555
H2 C7 1_555 1_555
C8 C7 1_555 1_555
H3 C8 1_555 1_555
C9 C8 1_555 1_555
H4 C9 1_555 1_555
C10 H5 1_555 1_555
C11 C10 1_555 1_555
H6 C11 1_555 1_555
C12 C11 1_555 1_555
C13 C12 1_555 1_555
H7 C13 1_555 1_555
C14 C13 1_555 1_555
H8 C14 1_555 1_555
N1 C5 1_555 1_555
N2 Zn1 1_555 1_555
O1 Zn1 1_555 1_555
O2 S1 1_555 1_555
O3 S1 1_555 1_555
O4 S1 1_555 1_555
O5 Zn1 1_555 1_555
H9 O5 1_555 1_555
H10 O5 1_555 1_555
O6 Zn1 1_555 1_555
H11 O6 1_555 1_555
H12 O6 1_555 1_555
Zn1B O4 1_555 1_555
Zn1B_2 N2B 1_555 1_555
I1B C3B 1_555 1_555
S1B C1B 1_555 1_555
C1B C2B 1_555 1_555
C2B H1B 1_555 1_555
C3B C2B 1_555 1_555
C4B C3B 1_555 1_555
C5B C4B 1_555 1_555
C6B C1B 1_555 1_555
C7B C6B 1_555 1_555
H2B C7B 1_555 1_555
C8B C7B 1_555 1_555
H3B C8B 1_555 1_555
C9B C8B 1_555 1_555
H4B C9B 1_555 1_555
C10B H5B 1_555 1_555
C11B C10B 1_555 1_555
H6B C11B 1_555 1_555
C12B C12 1_555 1_555
C13B C12B 1_555 1_555
H7B C13B 1_555 1_555
C14B C13B 1_555 1_555
H8B C14B 1_555 1_555
N1B Zn1B 1_555 1_555
N2B C10B 1_555 1_555
N2B_2 Zn1B 1_555 1_555
O1B Zn1B 1_555 1_555
O2B S1B 1_555 1_555
O3B S1B 1_555 1_555
O4B Zn1 1_555 1_555
O5B Zn1B 1_555 1_555
H9B O5B 1_555 1_555
H10B O5B 1_555 1_555
O6B Zn1B 1_555 1_555
H11B O6B 1_555 1_555
H12B O6B 1_555 1_555
C4 O1 1_555 1_555
C5 C6 1_555 1_555
C9 N1 1_555 1_555
C10 N2 1_555 1_555
C14 N2 1_555 1_555
S1B O4B 1_555 1_555
C4B O1B 1_555 1_555
C5B C6B 1_555 1_555
C5B N1B 1_555 1_555
C9B N1B 1_555 1_555
C11B C12B 1_555 1_555
C14B N2B 1_555 1_555

#END
