
#######################################################################
#
#                 Cambridge Crystallographic Data Centre
#                                CCDC 
#
#######################################################################
#
# If this CIF has been generated from an entry in the Cambridge 
# Structural Database, then it will include bibliographic, chemical, 
# crystal, experimental, refinement or atomic coordinate data resulting 
# from the CCDC's data processing and validation procedures.
#
#######################################################################

data_SIWNOC
_symmetry_cell_setting           triclinic
_symmetry_space_group_name_H-M   'P -1'
_symmetry_Int_Tables_number      2
_space_group_name_Hall           '-P 1'
loop_
_symmetry_equiv_pos_site_id
_symmetry_equiv_pos_as_xyz
1 x,y,z
2 -x,-y,-z
_cell_length_a                   8.0033(12)
_cell_length_b                   8.8803(13)
_cell_length_c                   9.290(2)
_cell_angle_alpha                102.182(3)
_cell_angle_beta                 111.955(3)
_cell_angle_gamma                108.506(2)
_cell_volume                     538.365
loop_
_atom_site_label
_atom_site_type_symbol
_atom_site_fract_x
_atom_site_fract_y
_atom_site_fract_z
Zn1 Zn 0.98106(7) 0.73594(6) 0.43704(6)
P1 P 1.25300(17) 0.67434(14) 0.75327(14)
P2 P 1.88622(17) 0.95775(14) 0.68958(14)
O1 O 1.2067(5) 0.7191(4) 0.6006(4)
O2 O 1.2087(5) 0.4910(4) 0.7277(4)
O3 O 1.1604(5) 0.7373(4) 0.8583(4)
H1 H 1.1355 0.8147 0.8357
O4 O 1.8360(5) 0.8149(4) 0.5367(4)
O5 O 2.0526(5) 0.9702(4) 0.8483(4)
O6 O 1.9199(5) 1.1273(4) 0.6714(4)
N1 N 1.6656(6) 0.7982(5) 0.8316(5)
C1 C 1.5189(6) 0.7984(6) 0.8962(5)
H2 H 1.5508 0.7583 0.9880
H3 H 1.5431 0.9164 0.9430
C2 C 1.6648(7) 0.9016(6) 0.7211(6)
H4 H 1.5455 0.8362 0.6131
H5 H 1.6589 1.0059 0.7715
C3 C 1.6432(7) 0.6227(6) 0.7504(5)
H6 H 1.7276 0.6312 0.6970
H7 H 1.5054 0.5513 0.6642
C4 C 1.6995(8) 0.5397(5) 0.8745(6)
H8 H 1.8326 0.6157 0.9666
H9 H 1.6064 0.5198 0.9194
C5 C 1.6956(10) 0.3706(6) 0.7919(7)
H10 H 1.7318 0.3194 0.8729
H11 H 1.5633 0.2949 0.7017
H12 H 1.7892 0.3907 0.7489
H13 H 1.769(6) 0.839(5) 0.935(5)
Zn1A Zn 1.01894(7) 0.26406(6) 0.56296(6)
Zn1_2 Zn 1.98106(7) 0.73594(6) 0.43704(6)
Zn1A_2 Zn 2.01894(7) 1.26406(6) 0.56296(6)
O2A O 0.7913(5) 0.5090(4) 0.2723(4)
O4_2 O 0.8360(5) 0.8149(4) 0.5367(4)
O6A O 1.0801(5) 0.8727(4) 0.3286(4)
loop_
_geom_bond_atom_site_label_1
_geom_bond_atom_site_label_2
_geom_bond_site_symmetry_1
_geom_bond_site_symmetry_2
Zn1 O1 1_555 1_555
P1 O1 1_555 1_555
P2 O4 1_555 1_555
O2 P1 1_555 1_555
O3 P1 1_555 1_555
H1 O3 1_555 1_555
O4 Zn1_2 1_555 1_555
O5 P2 1_555 1_555
O6 P2 1_555 1_555
N1 C1 1_555 1_555
C1 P1 1_555 1_555
H2 C1 1_555 1_555
H3 C1 1_555 1_555
C2 P2 1_555 1_555
H4 C2 1_555 1_555
H5 C2 1_555 1_555
C3 N1 1_555 1_555
H6 C3 1_555 1_555
H7 C3 1_555 1_555
C4 C3 1_555 1_555
H8 C4 1_555 1_555
H9 C4 1_555 1_555
C5 C4 1_555 1_555
H10 C5 1_555 1_555
H11 C5 1_555 1_555
H12 C5 1_555 1_555
H13 N1 1_555 1_555
Zn1A O2 1_555 1_555
Zn1A_2 O6 1_555 1_555
O2A Zn1 1_555 1_555
O4_2 Zn1 1_555 1_555
O6A Zn1 1_555 1_555
N1 C2 1_555 1_555

#END
