
#######################################################################
#
#                 Cambridge Crystallographic Data Centre
#                                CCDC 
#
#######################################################################
#
# If this CIF has been generated from an entry in the Cambridge 
# Structural Database, then it will include bibliographic, chemical, 
# crystal, experimental, refinement or atomic coordinate data resulting 
# from the CCDC's data processing and validation procedures.
#
#######################################################################

data_SIWTAV
_symmetry_cell_setting           triclinic
_symmetry_space_group_name_H-M   'P -1'
_symmetry_Int_Tables_number      2
_space_group_name_Hall           '-P 1'
loop_
_symmetry_equiv_pos_site_id
_symmetry_equiv_pos_as_xyz
1 x,y,z
2 -x,-y,-z
_cell_length_a                   9.3382(10)
_cell_length_b                   9.6636(9)
_cell_length_c                   10.2665(11)
_cell_angle_alpha                98.072(8)
_cell_angle_beta                 95.881(9)
_cell_angle_gamma                101.077(9)
_cell_volume                     892.164
loop_
_atom_site_label
_atom_site_type_symbol
_atom_site_fract_x
_atom_site_fract_y
_atom_site_fract_z
Co1 Co 0.5000 0.0000 0.5000
Co2 Co 0.5000 1.0000 1.0000
C1 C 0.3813(2) 0.3630(2) 0.7491(2)
C2 C 0.4377(3) 0.5073(2) 0.7948(2)
H1 H 0.5254 0.5520 0.7693
C3 C 0.3634(2) 0.5846(2) 0.8784(2)
C4 C 0.2320(2) 0.5197(2) 0.9151(2)
H2 H 0.1832 0.5713 0.9726
C5 C 0.1739(2) 0.3774(2) 0.8655(2)
C6 C 0.2482(2) 0.2986(2) 0.7835(2)
H3 H 0.2088 0.2024 0.7515
C7 C 0.4628(2) 0.2809(2) 0.6581(2)
C8 C 0.4229(2) 0.7398(2) 0.9271(2)
C9 C -0.0121(3) 0.1753(2) 0.8891(2)
H4 H -0.0690 0.1540 0.9604
H5 H 0.0716 0.1296 0.8966
C10 C -0.1625(3) 0.0208(3) 0.5667(3)
H6 H -0.1590 -0.0226 0.4807
C11 C -0.2453(2) 0.1070(3) 0.7327(2)
H7 H -0.3066 0.1388 0.7909
N1 N -0.1022(2) 0.1172(2) 0.76327(19)
N2 N -0.0464(2) 0.0620(3) 0.6550(2)
N3 N -0.2887(2) 0.0458(2) 0.60923(19)
O1 O 0.42712(16) 0.14454(15) 0.64325(15)
O2 O 0.5578(2) 0.34790(18) 0.6031(2)
O3 O 0.52022(18) 0.80967(15) 0.87055(16)
O4 O 0.37302(18) 0.80179(15) 1.02305(16)
O5 O 0.03878(17) 0.32377(16) 0.90321(18)
O6 O 0.4180(2) -0.16538(17) 0.60476(16)
H8 H 0.416(3) -0.235(2) 0.5437(17)
H9 H 0.457(3) -0.175(3) 0.6812(13)
O7 O 0.33846(19) 1.02118(18) 0.85922(17)
H10 H 0.372(3) 1.062(3) 0.797(2)
H11 H 0.262(2) 0.955(2) 0.834(2)
C1A C -0.3813(2) -0.3630(2) 0.2509(2)
C2A C -0.4377(3) -0.5073(2) 0.2052(2)
H1A H -0.5254 -0.5520 0.2307
C3A C -0.3634(2) -0.5846(2) 0.1216(2)
C4A C -0.2320(2) -0.5197(2) 0.0849(2)
H2A H -0.1832 -0.5713 0.0274
C5A C -0.1739(2) -0.3774(2) 0.1345(2)
C6A C -0.2482(2) -0.2986(2) 0.2165(2)
H3A H -0.2088 -0.2024 0.2485
C7A C -0.4628(2) -0.2809(2) 0.3419(2)
C8A C -0.4229(2) -0.7398(2) 0.0729(2)
C9A C 0.0121(3) -0.1753(2) 0.1109(2)
H4A H 0.0690 -0.1540 0.0396
H5A H -0.0716 -0.1296 0.1034
C10A C 0.1625(3) -0.0208(3) 0.4333(3)
H6A H 0.1590 0.0226 0.5193
C11A C 0.2453(2) -0.1070(3) 0.2673(2)
H7A H 0.3066 -0.1388 0.2091
N1A N 0.1022(2) -0.1172(2) 0.23673(19)
N2A N 0.0464(2) -0.0620(3) 0.3450(2)
N3A N 0.2887(2) -0.0458(2) 0.39077(19)
O1A O -0.42712(16) -0.14454(15) 0.35675(15)
O2A O -0.5578(2) -0.34790(18) 0.3969(2)
O3A O -0.52022(18) -0.80967(15) 0.12945(16)
O4A O -0.37302(18) -0.80179(15) -0.02305(16)
O5A O -0.03878(17) -0.32377(16) 0.09679(18)
O6A O 0.5820(2) 0.16538(17) 0.39524(16)
H8A H 0.584(3) 0.235(2) 0.4563(17)
H9A H 0.543(3) 0.175(3) 0.3188(13)
O7A O 0.66154(19) 0.97882(18) 1.14078(17)
H10A H 0.628(3) 0.938(3) 1.203(2)
H11A H 0.738(2) 1.045(2) 1.166(2)
Co1_2 Co -0.5000 0.0000 0.5000
Co2_2 Co -0.5000 -1.0000 0.0000
N3_2 N 0.7113(2) 0.0458(2) 0.60923(19)
O1A_2 O 0.57288(16) -0.14454(15) 0.35675(15)
O3A_2 O 0.47978(18) 1.19033(15) 1.12945(16)
O4A_2 O 0.62698(18) 1.19821(15) 0.97695(16)
C12 C 0.0483(4) 0.7496(4) 0.6945(4)
H12 H 0.0985 0.7699 0.6235
C13 C -0.1577(7) 0.6218(10) 0.7665(6)
H13 H -0.0906 0.6295 0.8458
H14 H -0.2121 0.5250 0.7418
H15 H -0.2246 0.6843 0.7823
C14 C -0.1527(9) 0.6061(9) 0.5334(6)
H16 H -0.1030 0.6570 0.4716
H17 H -0.2525 0.6186 0.5285
H18 H -0.1522 0.5062 0.5119
N4 N -0.0790(3) 0.6600(4) 0.6646(3)
O8 O 0.1066(3) 0.8073(3) 0.7998(2)
loop_
_geom_bond_atom_site_label_1
_geom_bond_atom_site_label_2
_geom_bond_site_symmetry_1
_geom_bond_site_symmetry_2
Co1 O1 1_555 1_555
Co2 O3 1_555 1_555
C1 C2 1_555 1_555
C2 H1 1_555 1_555
C3 C2 1_555 1_555
C4 C3 1_555 1_555
H2 C4 1_555 1_555
C5 C4 1_555 1_555
C6 C1 1_555 1_555
H3 C6 1_555 1_555
C7 C1 1_555 1_555
C8 C3 1_555 1_555
C9 H4 1_555 1_555
H5 C9 1_555 1_555
C10 H6 1_555 1_555
C11 H7 1_555 1_555
N1 C9 1_555 1_555
N2 C10 1_555 1_555
N3 C10 1_555 1_555
O1 C7 1_555 1_555
O2 C7 1_555 1_555
O3 C8 1_555 1_555
O4 Co2 1_555 1_555
O5 C5 1_555 1_555
O6 Co1 1_555 1_555
H8 O6 1_555 1_555
H9 O6 1_555 1_555
O7 Co2 1_555 1_555
H10 O7 1_555 1_555
H11 O7 1_555 1_555
C12 H12 1_555 1_555
C13 H13 1_555 1_555
H14 C13 1_555 1_555
H15 C13 1_555 1_555
C14 H16 1_555 1_555
H17 C14 1_555 1_555
H18 C14 1_555 1_555
N4 C12 1_555 1_555
O8 C12 1_555 1_555
C1A C2A 1_555 1_555
C2A H1A 1_555 1_555
C3A C2A 1_555 1_555
C4A C3A 1_555 1_555
H2A C4A 1_555 1_555
C5A C4A 1_555 1_555
C6A C1A 1_555 1_555
H3A C6A 1_555 1_555
C7A C1A 1_555 1_555
C8A C3A 1_555 1_555
C9A H4A 1_555 1_555
H5A C9A 1_555 1_555
C10A H6A 1_555 1_555
C11A H7A 1_555 1_555
N1A C9A 1_555 1_555
N2A C10A 1_555 1_555
N3A Co1 1_555 1_555
O1A C7A 1_555 1_555
O2A C7A 1_555 1_555
O3A C8A 1_555 1_555
O4A C8A 1_555 1_555
O5A C5A 1_555 1_555
O6A Co1 1_555 1_555
H8A O6A 1_555 1_555
H9A O6A 1_555 1_555
O7A Co2 1_555 1_555
H10A O7A 1_555 1_555
H11A O7A 1_555 1_555
Co1_2 N3 1_555 1_555
Co2_2 O3A 1_555 1_555
N3_2 Co1 1_555 1_555
O1A_2 Co1 1_555 1_555
O3A_2 Co2 1_555 1_555
O4A_2 Co2 1_555 1_555
C5 C6 1_555 1_555
C8 O4 1_555 1_555
C9 O5 1_555 1_555
C11 N1 1_555 1_555
C11 N3 1_555 1_555
N1 N2 1_555 1_555
C13 N4 1_555 1_555
C14 N4 1_555 1_555
C5A C6A 1_555 1_555
C9A O5A 1_555 1_555
C10A N3A 1_555 1_555
C11A N1A 1_555 1_555
C11A N3A 1_555 1_555
N1A N2A 1_555 1_555
O1A Co1_2 1_555 1_555
O4A Co2_2 1_555 1_555

#END
