
#######################################################################
#
#                 Cambridge Crystallographic Data Centre
#                                CCDC 
#
#######################################################################
#
# If this CIF has been generated from an entry in the Cambridge 
# Structural Database, then it will include bibliographic, chemical, 
# crystal, experimental, refinement or atomic coordinate data resulting 
# from the CCDC's data processing and validation procedures.
#
#######################################################################

data_SIWTUN
_symmetry_cell_setting           monoclinic
_symmetry_space_group_name_H-M   'P 21/c'
_symmetry_Int_Tables_number      14
_space_group_name_Hall           '-P 2ybc'
loop_
_symmetry_equiv_pos_site_id
_symmetry_equiv_pos_as_xyz
1 x,y,z
2 -x,1/2+y,1/2-z
3 -x,-y,-z
4 x,1/2-y,1/2+z
_cell_length_a                   4.6895(3)
_cell_length_b                   15.913(2)
_cell_length_c                   11.988(1)
_cell_angle_alpha                90
_cell_angle_beta                 91.987(9)
_cell_angle_gamma                90
_cell_volume                     894.055
loop_
_atom_site_label
_atom_site_type_symbol
_atom_site_fract_x
_atom_site_fract_y
_atom_site_fract_z
Mn1 Mn -1.0000 0.0000 0.0000
O1 O -0.6539(4) -0.0931(1) -0.0068(2)
O2 O -0.2374(4) -0.0927(1) 0.0894(2)
C1 C -0.4921(6) -0.1129(2) 0.0743(2)
C2 C -0.6238(6) -0.1688(2) 0.1624(3)
N1 N -0.4406(5) -0.1748(2) 0.2650(2)
C3 C -0.2747(7) -0.2428(2) 0.2825(3)
C4 C -0.0979(8) -0.2482(2) 0.3763(3)
C5 C -0.0950(1) -0.1831(3) 0.4516(3)
C6 C -0.2600(1) -0.1136(3) 0.4313(3)
C7 C -0.4335(9) -0.1107(2) 0.3373(3)
H1 H -0.6511 -0.2241 0.1319
H2 H -0.8050 -0.1457 0.1813
H3 H -0.2795 -0.2879 0.2292
H4 H 0.0215 -0.2965 0.3889
H5 H 0.0221 -0.1865 0.5186
H6 H -0.2547 -0.0673 0.4826
H7 H -0.5512 -0.0622 0.3230
O3 O -0.8302(5) 0.0351(2) 0.1666(2)
H8 H -0.9715 0.0639 0.2105
H9 H -0.6782 0.0696 0.1999
O2_2 O -1.2374(4) -0.0927(1) 0.0894(2)
Mn1_2 Mn 0.0000 0.0000 0.0000
O1B O -0.3461(4) 0.0931(1) 0.0068(2)
C1B C -0.5079(6) 0.1129(2) -0.0743(2)
O2B O -0.7626(4) 0.0927(1) -0.0894(2)
O1B_2 O -1.3461(4) 0.0931(1) 0.0068(2)
O3B O -1.1698(5) -0.0351(2) -0.1666(2)
H8B H -1.0285 -0.0639 -0.2105
H9B H -1.3218 -0.0696 -0.1999
C2B C -0.3762(6) 0.1688(2) -0.1624(3)
N1B N -0.5594(5) 0.1748(2) -0.2650(2)
C3B C -0.7253(7) 0.2428(2) -0.2825(3)
C4B C -0.9021(8) 0.2482(2) -0.3763(3)
C5B C -0.9050(1) 0.1831(3) -0.4516(3)
C6B C -0.7400(1) 0.1136(3) -0.4313(3)
C7B C -0.5665(9) 0.1107(2) -0.3373(3)
H7B H -0.4488 0.0622 -0.3230
H6B H -0.7453 0.0673 -0.4826
H5B H -1.0221 0.1865 -0.5186
H4B H -1.0215 0.2965 -0.3889
H3B H -0.7205 0.2879 -0.2292
H1B H -0.3489 0.2241 -0.1319
H2B H -0.1950 0.1457 -0.1813
Cl1 Cl -0.2911(2) 0.1020(1) 0.3193(1)
loop_
_geom_bond_atom_site_label_1
_geom_bond_atom_site_label_2
_geom_bond_site_symmetry_1
_geom_bond_site_symmetry_2
Mn1 O1 1_555 1_555
O1 C1 1_555 1_555
O2 C1 1_555 1_555
C1 C2 1_555 1_555
C2 N1 1_555 1_555
N1 C3 1_555 1_555
C3 C4 1_555 1_555
C4 C5 1_555 1_555
C5 C6 1_555 1_555
C6 C7 1_555 1_555
C7 N1 1_555 1_555
H1 C2 1_555 1_555
H2 C2 1_555 1_555
H3 C3 1_555 1_555
H4 C4 1_555 1_555
H5 C5 1_555 1_555
H6 C6 1_555 1_555
H7 C7 1_555 1_555
O3 Mn1 1_555 1_555
H8 O3 1_555 1_555
H9 O3 1_555 1_555
O2_2 Mn1 1_555 1_555
Mn1_2 O2 1_555 1_555
O1B Mn1_2 1_555 1_555
C1B O1B 1_555 1_555
O2B Mn1 1_555 1_555
O1B_2 Mn1 1_555 1_555
O3B Mn1 1_555 1_555
H8B O3B 1_555 1_555
H9B O3B 1_555 1_555
C2B C1B 1_555 1_555
N1B C2B 1_555 1_555
C3B N1B 1_555 1_555
C4B C3B 1_555 1_555
C5B C4B 1_555 1_555
C6B C5B 1_555 1_555
C7B N1B 1_555 1_555
H7B C7B 1_555 1_555
H6B C6B 1_555 1_555
H5B C5B 1_555 1_555
H4B C4B 1_555 1_555
H3B C3B 1_555 1_555
H1B C2B 1_555 1_555
H2B C2B 1_555 1_555
C1B O2B 1_555 1_555
C6B C7B 1_555 1_555

#END
