
#######################################################################
#
#                 Cambridge Crystallographic Data Centre
#                                CCDC 
#
#######################################################################
#
# If this CIF has been generated from an entry in the Cambridge 
# Structural Database, then it will include bibliographic, chemical, 
# crystal, experimental, refinement or atomic coordinate data resulting 
# from the CCDC's data processing and validation procedures.
#
#######################################################################

data_SIWTEZ
_symmetry_cell_setting           triclinic
_symmetry_space_group_name_H-M   'P -1'
_symmetry_Int_Tables_number      2
_space_group_name_Hall           '-P 1'
loop_
_symmetry_equiv_pos_site_id
_symmetry_equiv_pos_as_xyz
1 x,y,z
2 -x,-y,-z
_cell_length_a                   11.0788(4)
_cell_length_b                   12.6965(10)
_cell_length_c                   12.7879(6)
_cell_angle_alpha                65.776(6)
_cell_angle_beta                 86.620(3)
_cell_angle_gamma                83.387(4)
_cell_volume                     1629.34
loop_
_atom_site_label
_atom_site_type_symbol
_atom_site_fract_x
_atom_site_fract_y
_atom_site_fract_z
Co1 Co 0.75045(5) 0.11533(5) 1.05159(4)
Co2 Co 1.0000 0.0000 1.0000
Co3 Co 1.10216(5) -0.18127(5) 1.23137(4)
C1 C 1.0239(4) 0.0911(4) 1.2957(3)
C2 C 0.9478(4) 0.1363(4) 1.3607(3)
H1 H 0.8655 0.1553 1.3440
C3 C 0.9939(4) 0.1533(4) 1.4503(3)
C4 C 1.1167(4) 0.1250(4) 1.4744(3)
H2 H 1.1485 0.1351 1.5351
C5 C 1.1918(4) 0.0817(4) 1.4078(3)
C6 C 1.1467(4) 0.0636(4) 1.3191(3)
H3 H 1.1980 0.0335 1.2757
C7 C 0.9705(3) 0.0690(4) 1.2020(3)
C8 C 0.9092(4) 0.1919(4) 1.5283(3)
C9 C 1.3894(4) -0.0169(4) 1.4020(3)
H4 H 1.3395 -0.0671 1.3871
H5 H 1.4460 -0.0655 1.4620
C10 C 1.4856(4) 0.1439(5) 1.1243(4)
H6 H 1.4724 0.1923 1.0475
C11 C 1.5757(4) 0.0376(4) 1.2766(4)
H7 H 1.6345 -0.0051 1.3311
C12 C 0.5105(3) 0.1842(4) 0.7682(3)
C13 C 0.4007(4) 0.1538(4) 0.8252(3)
H8 H 0.3994 0.1103 0.9041
C14 C 0.2937(3) 0.1883(4) 0.7647(3)
C15 C 0.2942(4) 0.2568(4) 0.6464(3)
H9 H 0.2218 0.2824 0.6062
C16 C 0.4044(4) 0.2857(4) 0.5903(3)
C17 C 0.5117(4) 0.2492(4) 0.6502(3)
H10 H 0.5852 0.2681 0.6115
C18 C 0.6299(3) 0.1482(4) 0.8305(3)
C19 C 0.1727(3) 0.1549(4) 0.8227(3)
C20 C 0.3278(4) 0.3599(4) 0.3977(3)
H11 H 0.2848 0.2910 0.4303
H12 H 0.3661 0.3627 0.3266
C21 C 0.0822(5) 0.5606(5) 0.3782(5)
H13 H 0.0039 0.5824 0.3973
C22 C 0.2498(4) 0.5702(4) 0.3003(4)
H14 H 0.3176 0.5962 0.2543
N1 N 1.4568(3) 0.0469(3) 1.2984(3)
N2 N 1.3978(3) 0.1154(4) 1.1998(3)
N3 N 1.5980(3) 0.0975(3) 1.1664(3)
N4 N 0.2416(3) 0.4613(3) 0.3734(3)
N5 N 0.1323(4) 0.4538(4) 0.4253(5)
N6 N 0.1509(3) 0.6364(3) 0.3009(3)
O1 O 1.0394(2) 0.0172(3) 1.1512(2)
O2 O 0.8611(2) 0.1044(3) 1.1801(2)
O3 O 0.8016(3) 0.2240(4) 1.5016(3)
O4 O 0.9578(3) 0.1825(3) 1.6186(2)
O5 O 1.3149(2) 0.0583(3) 1.4396(2)
O6 O 0.7230(2) 0.1480(3) 0.7706(2)
O7 O 0.6252(2) 0.1230(3) 0.9363(2)
O8 O 0.1723(2) 0.0636(2) 0.9155(2)
O9 O 0.0814(2) 0.2200(3) 0.7755(2)
O10 O 0.4179(3) 0.3519(3) 0.4740(2)
H15 H 1.077(4) -0.204(3) 1.050(4)
O11 O 1.1063(2) -0.1518(2) 1.0627(2)
O12 O 0.7096(3) 0.3004(3) 1.0045(3)
H16 H 0.777(2) 0.329(4) 0.990(5)
H17 H 0.647(3) 0.347(4) 0.976(5)
Co1A Co 0.24955(5) -0.11533(5) 0.94841(4)
Co3A Co -0.10216(5) 0.18127(5) 0.76863(4)
C1A C -0.0239(4) -0.0911(4) 0.7043(3)
C2A C 0.0522(4) -0.1363(4) 0.6393(3)
H1A H 0.1345 -0.1553 0.6560
C3A C 0.0061(4) -0.1533(4) 0.5497(3)
C4A C -0.1167(4) -0.1250(4) 0.5256(3)
H2A H -0.1485 -0.1351 0.4649
C5A C -0.1918(4) -0.0817(4) 0.5922(3)
C6A C -0.1467(4) -0.0636(4) 0.6809(3)
H3A H -0.1980 -0.0335 0.7243
C7A C 0.0295(3) -0.0690(4) 0.7980(3)
C8A C 0.0908(4) -0.1919(4) 0.4717(3)
C9A C -0.3894(4) 0.0169(4) 0.5980(3)
H4A H -0.3395 0.0671 0.6129
H5A H -0.4460 0.0655 0.5380
C10A C -0.4856(4) -0.1439(5) 0.8757(4)
H6A H -0.4724 -0.1923 0.9525
C11A C -0.5757(4) -0.0376(4) 0.7234(4)
H7A H -0.6345 0.0051 0.6689
C12A C 0.4895(3) -0.1842(4) 1.2318(3)
C13A C 0.5993(4) -0.1538(4) 1.1748(3)
H8A H 0.6006 -0.1103 1.0959
C14A C 0.7063(3) -0.1883(4) 1.2353(3)
C15A C 0.7058(4) -0.2568(4) 1.3536(3)
H9A H 0.7782 -0.2824 1.3938
C16A C 0.5956(4) -0.2857(4) 1.4097(3)
C17A C 0.4883(4) -0.2492(4) 1.3498(3)
H10A H 0.4148 -0.2681 1.3885
C18A C 0.3701(3) -0.1482(4) 1.1695(3)
C19A C 0.8273(3) -0.1549(4) 1.1773(3)
C20A C 0.6722(4) -0.3599(4) 1.6023(3)
H11A H 0.7152 -0.2910 1.5697
H12A H 0.6339 -0.3627 1.6734
C21A C 0.9178(5) -0.5606(5) 1.6218(5)
H13A H 0.9961 -0.5824 1.6027
C22A C 0.7502(4) -0.5702(4) 1.6997(4)
H14A H 0.6824 -0.5962 1.7457
N1A N -0.4568(3) -0.0469(3) 0.7016(3)
N2A N -0.3978(3) -0.1154(4) 0.8002(3)
N3A N -0.5980(3) -0.0975(3) 0.8336(3)
N4A N 0.7584(3) -0.4613(3) 1.6266(3)
N5A N 0.8677(4) -0.4538(4) 1.5747(5)
N6A N 0.8491(3) -0.6364(3) 1.6991(3)
O1A O -0.0394(2) -0.0172(3) 0.8488(2)
O2A O 0.1389(2) -0.1044(3) 0.8199(2)
O3A O 0.1984(3) -0.2240(4) 0.4984(3)
O4A O 0.0422(3) -0.1825(3) 0.3814(2)
O5A O -0.3149(2) -0.0583(3) 0.5604(2)
O6A O 0.2770(2) -0.1480(3) 1.2294(2)
O7A O 0.3748(2) -0.1230(3) 1.0637(2)
O8A O 0.8277(2) -0.0636(2) 1.0845(2)
O9A O 0.9186(2) -0.2200(3) 1.2245(2)
O10A O 0.5821(3) -0.3519(3) 1.5260(2)
H15A H -0.077(4) 0.204(3) 0.950(4)
O11A O -0.1063(2) 0.1518(2) 0.9373(2)
O12A O 0.2904(3) -0.3004(3) 0.9955(3)
H16A H 0.223(2) -0.329(4) 1.010(5)
H17A H 0.353(3) -0.347(4) 1.024(5)
Co1_2 Co -0.24955(5) 0.11533(5) 1.05159(4)
Co1_3 Co 1.75045(5) 0.11533(5) 1.05159(4)
Co1A_2 Co -0.75045(5) -0.11533(5) 0.94841(4)
Co1A_3 Co 1.24955(5) -0.11533(5) 0.94841(4)
Co2_2 Co 0.0000 0.0000 1.0000
Co3_2 Co 0.10216(5) -0.18127(5) 0.23137(4)
Co3_3 Co 0.10216(5) -0.18127(5) 1.23137(4)
Co3_4 Co 0.10216(5) 0.81873(5) 0.23137(4)
Co3A_2 Co 0.89784(5) -0.81873(5) 1.76863(4)
Co3A_3 Co 0.89784(5) 0.18127(5) 0.76863(4)
Co3A_4 Co 0.89784(5) 0.18127(5) 1.76863(4)
N3_2 N 0.5980(3) 0.0975(3) 1.1664(3)
N3A_2 N 0.4020(3) -0.0975(3) 0.8336(3)
N6_2 N 1.1509(3) -0.3636(3) 1.3009(3)
N6A_2 N -0.1509(3) 0.3636(3) 0.6991(3)
O1A_2 O 0.9606(2) -0.0172(3) 0.8488(2)
O4_2 O -0.0422(3) 0.1825(3) 0.6186(2)
O4A_2 O 1.0422(3) -0.1825(3) 1.3814(2)
O6_2 O -0.2770(2) 0.1480(3) 0.7706(2)
O6A_2 O 1.2770(2) -0.1480(3) 1.2294(2)
O8_2 O 1.1723(2) 0.0636(2) 0.9155(2)
O11_2 O 0.1063(2) -0.1518(2) 1.0627(2)
O11A_2 O 0.8937(2) 0.1518(2) 0.9373(2)
C23 C 0.9924(7) 0.3645(6) 1.0575(6)
H18 H 0.9446 0.3824 1.1114
C24 C 1.1690(9) 0.3651(7) 1.1607(7)
H19 H 1.1080 0.3827 1.2093
H20 H 1.2197 0.4275 1.1282
H21 H 1.2177 0.2947 1.2051
C25 C 1.1882(7) 0.3142(11) 0.9925(8)
H22 H 1.2137 0.2328 1.0300
H23 H 1.2582 0.3570 0.9710
H24 H 1.1433 0.3288 0.9251
N7 N 1.1113(5) 0.3508(5) 1.0701(4)
O13 O 0.9401(4) 0.3553(4) 0.9802(4)
C26 C 0.4387(17) 0.4625(17) 0.8038(15)
H25 H 0.4326 0.3973 0.7893
C27 C 0.3606(12) 0.6741(11) 0.7357(11)
H26 H 0.4169 0.6802 0.7867
H27 H 0.2800 0.7003 0.7524
H28 H 0.3821 0.7212 0.6579
C28 C 0.2645(15) 0.5314(14) 0.6869(13)
H29 H 0.2893 0.4661 0.6683
H30 H 0.2485 0.5997 0.6175
H31 H 0.1922 0.5172 0.7337
N8 N 0.3649(12) 0.5492(12) 0.7516(10)
O14 O 0.5200(9) 0.4525(10) 0.8735(9)
loop_
_geom_bond_atom_site_label_1
_geom_bond_atom_site_label_2
_geom_bond_site_symmetry_1
_geom_bond_site_symmetry_2
Co1 O2 1_555 1_555
Co2 O1 1_555 1_555
Co3 O1 1_555 1_555
C1 C2 1_555 1_555
C2 H1 1_555 1_555
C3 C2 1_555 1_555
C4 C3 1_555 1_555
H2 C4 1_555 1_555
C5 C4 1_555 1_555
C6 C1 1_555 1_555
H3 C6 1_555 1_555
C7 C1 1_555 1_555
C8 C3 1_555 1_555
C9 H4 1_555 1_555
H5 C9 1_555 1_555
C10 H6 1_555 1_555
C11 H7 1_555 1_555
C12 C13 1_555 1_555
C13 H8 1_555 1_555
C14 C13 1_555 1_555
C15 C14 1_555 1_555
H9 C15 1_555 1_555
C16 C15 1_555 1_555
C17 C12 1_555 1_555
H10 C17 1_555 1_555
C18 C12 1_555 1_555
C19 C14 1_555 1_555
C20 H11 1_555 1_555
H12 C20 1_555 1_555
C21 H13 1_555 1_555
C22 H14 1_555 1_555
N1 C9 1_555 1_555
N2 C10 1_555 1_555
N3 C10 1_555 1_555
N4 C20 1_555 1_555
N5 C21 1_555 1_555
N6 C21 1_555 1_555
O1 C7 1_555 1_555
O2 C7 1_555 1_555
O3 C8 1_555 1_555
O4 C8 1_555 1_555
O5 C5 1_555 1_555
O6 C18 1_555 1_555
O7 Co1 1_555 1_555
O8 C19 1_555 1_555
O9 C19 1_555 1_555
O10 C16 1_555 1_555
H15 O11 1_555 1_555
O11 Co2 1_555 1_555
O12 Co1 1_555 1_555
H16 O12 1_555 1_555
H17 O12 1_555 1_555
C23 H18 1_555 1_555
C24 H19 1_555 1_555
H20 C24 1_555 1_555
H21 C24 1_555 1_555
C25 H22 1_555 1_555
H23 C25 1_555 1_555
H24 C25 1_555 1_555
N7 C23 1_555 1_555
O13 C23 1_555 1_555
C26 H25 1_555 1_555
C27 H26 1_555 1_555
H27 C27 1_555 1_555
H28 C27 1_555 1_555
C28 H29 1_555 1_555
H30 C28 1_555 1_555
H31 C28 1_555 1_555
N8 C26 1_555 1_555
O14 C26 1_555 1_555
Co1A O8 1_555 1_555
Co3A O9 1_555 1_555
C1A C2A 1_555 1_555
C2A H1A 1_555 1_555
C3A C2A 1_555 1_555
C4A C3A 1_555 1_555
H2A C4A 1_555 1_555
C5A C4A 1_555 1_555
C6A C1A 1_555 1_555
H3A C6A 1_555 1_555
C7A C1A 1_555 1_555
C8A C3A 1_555 1_555
C9A H4A 1_555 1_555
H5A C9A 1_555 1_555
C10A H6A 1_555 1_555
C11A H7A 1_555 1_555
C12A C13A 1_555 1_555
C13A H8A 1_555 1_555
C14A C13A 1_555 1_555
C15A C14A 1_555 1_555
H9A C15A 1_555 1_555
C16A C15A 1_555 1_555
C17A C12A 1_555 1_555
H10A C17A 1_555 1_555
C18A C12A 1_555 1_555
C19A C14A 1_555 1_555
C20A H11A 1_555 1_555
H12A C20A 1_555 1_555
C21A H13A 1_555 1_555
C22A H14A 1_555 1_555
N1A C9A 1_555 1_555
N2A C10A 1_555 1_555
N3A C10A 1_555 1_555
N4A C20A 1_555 1_555
N5A C21A 1_555 1_555
N6A C21A 1_555 1_555
O1A Co3A 1_555 1_555
O2A Co1A 1_555 1_555
O3A C8A 1_555 1_555
O4A C8A 1_555 1_555
O5A C5A 1_555 1_555
O6A C18A 1_555 1_555
O7A Co1A 1_555 1_555
O8A Co1 1_555 1_555
O9A Co3 1_555 1_555
O10A C16A 1_555 1_555
H15A O11A 1_555 1_555
O11A Co3A 1_555 1_555
O12A Co1A 1_555 1_555
H16A O12A 1_555 1_555
H17A O12A 1_555 1_555
Co1_2 O11A 1_555 1_555
Co1_3 N3 1_555 1_555
Co1A_2 N3A 1_555 1_555
Co1A_3 O11 1_555 1_555
Co2_2 O8 1_555 1_555
Co3_2 O4A 1_555 1_555
Co3_3 O6A 1_555 1_555
Co3_4 N6 1_555 1_555
Co3A_2 N6A 1_555 1_555
Co3A_3 O6 1_555 1_555
Co3A_4 O4 1_555 1_555
N3_2 Co1 1_555 1_555
N3A_2 Co1A 1_555 1_555
N6_2 Co3 1_555 1_555
N6A_2 Co3A 1_555 1_555
O1A_2 Co2 1_555 1_555
O4_2 Co3A 1_555 1_555
O4A_2 Co3 1_555 1_555
O6_2 Co3A 1_555 1_555
O6A_2 Co3 1_555 1_555
O8_2 Co2 1_555 1_555
O11_2 Co1A 1_555 1_555
O11A_2 Co1 1_555 1_555
Co2 O8A 1_555 1_555
Co2 O11A_2 1_555 1_555
Co3 O11 1_555 1_555
C5 C6 1_555 1_555
C9 O5 1_555 1_555
C11 N1 1_555 1_555
C11 N3 1_555 1_555
C16 C17 1_555 1_555
C18 O7 1_555 1_555
C20 O10 1_555 1_555
C22 N4 1_555 1_555
C22 N6 1_555 1_555
N1 N2 1_555 1_555
N4 N5 1_555 1_555
C24 N7 1_555 1_555
C25 N7 1_555 1_555
C27 N8 1_555 1_555
C28 N8 1_555 1_555
C5A C6A 1_555 1_555
C7A O1A 1_555 1_555
C7A O2A 1_555 1_555
C9A O5A 1_555 1_555
C11A N1A 1_555 1_555
C11A N3A 1_555 1_555
C16A C17A 1_555 1_555
C18A O7A 1_555 1_555
C19A O8A 1_555 1_555
C19A O9A 1_555 1_555
C20A O10A 1_555 1_555
C22A N4A 1_555 1_555
C22A N6A 1_555 1_555
N1A N2A 1_555 1_555
N4A N5A 1_555 1_555
O1A Co2_2 1_555 1_555
O11A Co2_2 1_555 1_555
Co1A_3 O8_2 1_555 1_555
Co2_2 O11_2 1_555 1_555
Co3_3 O11_2 1_555 1_555
Co3A_3 O1A_2 1_555 1_555
Co3A_3 O11A_2 1_555 1_555

#END
