
#######################################################################
#
#                 Cambridge Crystallographic Data Centre
#                                CCDC 
#
#######################################################################
#
# If this CIF has been generated from an entry in the Cambridge 
# Structural Database, then it will include bibliographic, chemical, 
# crystal, experimental, refinement or atomic coordinate data resulting 
# from the CCDC's data processing and validation procedures.
#
#######################################################################

data_SIWTOJ
_symmetry_cell_setting           monoclinic
_symmetry_space_group_name_H-M   'P 21/c'
_symmetry_Int_Tables_number      14
_space_group_name_Hall           '-P 2ybc'
loop_
_symmetry_equiv_pos_site_id
_symmetry_equiv_pos_as_xyz
1 x,y,z
2 -x,1/2+y,1/2-z
3 -x,-y,-z
4 x,1/2-y,1/2+z
_cell_length_a                   8.8056(7)
_cell_length_b                   17.5516(11)
_cell_length_c                   13.9196(11)
_cell_angle_alpha                90
_cell_angle_beta                 126.483(5)
_cell_angle_gamma                90
_cell_volume                     1729.72
loop_
_atom_site_label
_atom_site_type_symbol
_atom_site_fract_x
_atom_site_fract_y
_atom_site_fract_z
Cd1 Cd 0.38851(5) 0.547393(19) 0.34290(3)
C1 C 0.5335(7) 0.6828(3) 0.1574(4)
C2 C 0.5350(7) 0.7610(3) 0.1615(4)
H1 H 0.5072 0.7859 0.2084
C3 C 0.5780(7) 0.8031(3) 0.0957(4)
C4 C 0.6122(7) 0.7658(3) 0.0230(4)
H2 H 0.6393 0.7937 -0.0220
C5 C 0.6065(7) 0.6876(3) 0.0168(4)
C6 C 0.5720(7) 0.6453(3) 0.0857(4)
H3 H 0.5745 0.5923 0.0844
C7 C 0.4837(7) 0.6350(3) 0.2257(4)
C8 C 0.5857(7) 0.8885(3) 0.1011(5)
C9 C 0.6248(8) 0.5767(3) -0.0770(5)
H4 H 0.6124 0.5634 -0.1490
H5 H 0.5149 0.5575 -0.0845
C10 C 0.9639(10) 0.4699(4) 0.1702(6)
H6 H 1.0035 0.4313 0.2262
C11 C 0.9727(9) 0.5622(3) 0.0827(5)
H7 H 1.0132 0.6031 0.0609
C12 C 0.1297(9) 0.6583(5) 0.3977(6)
C13 C 0.1104(11) 0.7326(5) 0.3262(8)
H8 H 0.1818 0.7263 0.2950
H9 H 0.1577 0.7758 0.3789
H10 H -0.0202 0.7408 0.2615
C14 C -0.0002(12) 0.7355(6) 0.4783(8)
H11 H 0.0073 0.7784 0.4385
H12 H 0.0732 0.7456 0.5625
H13 H -0.1295 0.7271 0.4475
C15 C 0.0891(17) 0.5971(7) 0.5271(11)
H14 H 0.1186 0.5545 0.4977
H15 H -0.0281 0.5878 0.5156
H16 H 0.1880 0.6039 0.6107
N1 N 0.7943(6) 0.5422(2) 0.0259(4)
N2 N 0.7839(8) 0.4815(3) 0.0821(5)
N3 N 1.0855(7) 0.5176(3) 0.1732(4)
N4 N 0.0712(9) 0.6699(5) 0.4583(7)
O1 O 0.5377(7) 0.5680(2) 0.2495(4)
O2 O 0.3890(6) 0.6648(2) 0.2546(4)
O3 O 0.5596(6) 0.9212(2) 0.1697(3)
O4 O 0.6236(5) 0.92508(19) 0.0397(3)
O5 O 0.6348(5) 0.65637(19) -0.0633(3)
O6 O 0.1965(6) 0.6021(3) 0.3868(4)
Cd1_2 Cd 1.38851(5) 0.547393(19) 0.34290(3)
Cd1A Cd 0.61149(5) 1.047393(19) 0.15710(3)
Cd1C Cd 0.38851(5) 0.952607(19) -0.15710(3)
N3_2 N 0.0855(7) 0.5176(3) 0.1732(4)
O3A O 0.4404(6) 0.4212(2) 0.3303(3)
O4A O 0.3764(5) 0.42508(19) 0.4603(3)
O4C O 0.6236(5) 0.57492(19) 0.5397(3)
loop_
_geom_bond_atom_site_label_1
_geom_bond_atom_site_label_2
_geom_bond_site_symmetry_1
_geom_bond_site_symmetry_2
Cd1 O1 1_555 1_555
C1 C2 1_555 1_555
C2 H1 1_555 1_555
C3 C2 1_555 1_555
C4 C3 1_555 1_555
H2 C4 1_555 1_555
C5 C4 1_555 1_555
C6 C1 1_555 1_555
H3 C6 1_555 1_555
C7 C1 1_555 1_555
C8 C3 1_555 1_555
C9 H4 1_555 1_555
H5 C9 1_555 1_555
C10 H6 1_555 1_555
C11 H7 1_555 1_555
C12 C13 1_555 1_555
C13 H8 1_555 1_555
H9 C13 1_555 1_555
H10 C13 1_555 1_555
C14 H11 1_555 1_555
H12 C14 1_555 1_555
H13 C14 1_555 1_555
C15 H14 1_555 1_555
H15 C15 1_555 1_555
H16 C15 1_555 1_555
N1 C9 1_555 1_555
N2 C10 1_555 1_555
N3 C10 1_555 1_555
N4 C12 1_555 1_555
O1 C7 1_555 1_555
O2 Cd1 1_555 1_555
O3 C8 1_555 1_555
O4 C8 1_555 1_555
O5 C5 1_555 1_555
O6 Cd1 1_555 1_555
Cd1_2 N3 1_555 1_555
Cd1A O3 1_555 1_555
Cd1C O4 1_555 1_555
N3_2 Cd1 1_555 1_555
O3A Cd1 1_555 1_555
O4A Cd1 1_555 1_555
O4C Cd1 1_555 1_555
C5 C6 1_555 1_555
C7 O2 1_555 1_555
C9 O5 1_555 1_555
C11 N1 1_555 1_555
C11 N3 1_555 1_555
C12 O6 1_555 1_555
C14 N4 1_555 1_555
C15 N4 1_555 1_555
N1 N2 1_555 1_555
O4 Cd1A 1_555 1_555

#END
