
#######################################################################
#
#                 Cambridge Crystallographic Data Centre
#                                CCDC 
#
#######################################################################
#
# If this CIF has been generated from an entry in the Cambridge 
# Structural Database, then it will include bibliographic, chemical, 
# crystal, experimental, refinement or atomic coordinate data resulting 
# from the CCDC's data processing and validation procedures.
#
#######################################################################

data_SIWVEA
_symmetry_cell_setting           monoclinic
_symmetry_space_group_name_H-M   'P 21/c'
_symmetry_Int_Tables_number      14
_space_group_name_Hall           '-P 2ybc'
loop_
_symmetry_equiv_pos_site_id
_symmetry_equiv_pos_as_xyz
1 x,y,z
2 -x,1/2+y,1/2-z
3 -x,-y,-z
4 x,1/2-y,1/2+z
_cell_length_a                   9.5547(8)
_cell_length_b                   6.4507(5)
_cell_length_c                   15.0121(13)
_cell_angle_alpha                90
_cell_angle_beta                 94.9800(10)
_cell_angle_gamma                90
_cell_volume                     921.771
loop_
_atom_site_label
_atom_site_type_symbol
_atom_site_fract_x
_atom_site_fract_y
_atom_site_fract_z
Zn1 Zn 0.35436(3) 0.01390(4) 0.630019(17)
O1 O 0.55598(18) -0.1527(3) 0.62924(11)
O2 O 0.56561(17) -0.3041(3) 0.76215(11)
O3 O 1.16110(17) -0.8301(3) 0.62048(11)
O4 O 1.24367(19) -0.5161(2) 0.59385(13)
O5 O 0.44547(17) 0.2357(3) 0.54924(11)
H1 H 0.3919 0.3336 0.5632
H2 H 0.4369 0.2006 0.4945
O6 O 0.28704(18) -0.1596(3) 0.51549(11)
H3 H 0.2613 -0.2705 0.5400
H4 H 0.3508 -0.1752 0.4800
N1 N 0.7124(2) -0.6738(3) 0.76571(13)
H5 H 0.7637 -0.7796 0.7902
H6 H 0.6361 -0.7281 0.7349
C1 C 0.7504(2) -0.3727(4) 0.66877(15)
C2 C 0.7943(2) -0.5664(4) 0.70446(15)
C3 C 0.9196(3) -0.6508(4) 0.68316(15)
H7 H 0.9454 -0.7820 0.7043
C4 C 1.0083(3) -0.5433(4) 0.63057(15)
C5 C 0.9685(3) -0.3486(4) 0.59798(16)
H8 H 1.0283 -0.2732 0.5645
C6 C 0.8399(3) -0.2672(4) 0.61530(15)
H9 H 0.8123 -0.1395 0.5909
C7 C 0.6151(3) -0.2718(4) 0.68826(15)
C8 C 1.1472(2) -0.6374(4) 0.61328(15)
Zn1A Zn 0.64564(3) -0.48610(4) 0.869981(17)
Zn1_2 Zn 1.35436(3) -0.98610(4) 0.630019(17)
O2A O 0.43439(17) 0.1959(3) 0.73785(11)
O3_2 O 0.16110(17) 0.1699(3) 0.62048(11)
N1A N 0.2876(2) -0.1738(3) 0.73429(13)
H5A H 0.2363 -0.2796 0.7098
H6A H 0.3639 -0.2281 0.7651
loop_
_geom_bond_atom_site_label_1
_geom_bond_atom_site_label_2
_geom_bond_site_symmetry_1
_geom_bond_site_symmetry_2
Zn1 O1 1_555 1_555
O1 C7 1_555 1_555
O2 C7 1_555 1_555
O3 C8 1_555 1_555
O4 C8 1_555 1_555
O5 Zn1 1_555 1_555
H1 O5 1_555 1_555
H2 O5 1_555 1_555
O6 Zn1 1_555 1_555
H3 O6 1_555 1_555
H4 O6 1_555 1_555
N1 H5 1_555 1_555
H6 N1 1_555 1_555
C1 C2 1_555 1_555
C2 N1 1_555 1_555
C3 C2 1_555 1_555
H7 C3 1_555 1_555
C4 C3 1_555 1_555
C5 C4 1_555 1_555
H8 C5 1_555 1_555
C6 C1 1_555 1_555
H9 C6 1_555 1_555
C7 C1 1_555 1_555
C8 C4 1_555 1_555
Zn1A O2 1_555 1_555
Zn1_2 O3 1_555 1_555
O2A Zn1 1_555 1_555
O3_2 Zn1 1_555 1_555
N1A Zn1 1_555 1_555
H5A N1A 1_555 1_555
H6A N1A 1_555 1_555
N1 Zn1A 1_555 1_555
C5 C6 1_555 1_555

#END
