
#######################################################################
#
#                 Cambridge Crystallographic Data Centre
#                                CCDC 
#
#######################################################################
#
# If this CIF has been generated from an entry in the Cambridge 
# Structural Database, then it will include bibliographic, chemical, 
# crystal, experimental, refinement or atomic coordinate data resulting 
# from the CCDC's data processing and validation procedures.
#
#######################################################################

data_SIWVOJ
_symmetry_cell_setting           orthorhombic
_symmetry_space_group_name_H-M   'C 2 2 21'
_symmetry_Int_Tables_number      20
_space_group_name_Hall           'C 2n 2'
loop_
_symmetry_equiv_pos_site_id
_symmetry_equiv_pos_as_xyz
1 x,y,z
2 1/2+x,1/2+y,z
3 -x,-y,1/2+z
4 x,-y,-z
5 1/2-x,1/2-y,1/2+z
6 1/2+x,1/2-y,-z
7 -x,y,1/2-z
8 1/2-x,1/2+y,1/2-z
_cell_length_a                   10.457(5)
_cell_length_b                   11.269(5)
_cell_length_c                   8.904(5)
_cell_angle_alpha                90
_cell_angle_beta                 90
_cell_angle_gamma                90
_cell_volume                     1049.25
loop_
_atom_site_label
_atom_site_type_symbol
_atom_site_fract_x
_atom_site_fract_y
_atom_site_fract_z
Tl1 Tl 0.5000 0.5094(4) 0.7500
Br1 Br 0.5000 0.2873(4) 0.7500
Br2 Br 0.3178(5) 0.6359(4) 0.8470(6)
O1 O 0.390(3) 0.5000 0.5000
N1 N 0.270(4) 0.5000 0.5000
C1 C 0.196(4) 0.592(4) 0.439(5)
C2 C 0.064(6) 0.584(6) 0.447(7)
C3 C -0.01(1) 0.5000 0.5000
Br2F Br 0.6822(5) 0.6359(4) 0.6530(6)
O1B O 0.610(3) 0.5000 1.0000
Tl1B Tl 0.5000 0.4906(4) 0.2500
C1C C 0.196(4) 0.408(4) 0.561(5)
C2C C 0.064(6) 0.416(6) 0.553(7)
Tl1B_2 Tl 0.5000 0.4906(4) 1.2500
N1B N 0.730(4) 0.5000 1.0000
Br1B Br 0.5000 0.7127(4) 0.2500
Br2B Br 0.6822(5) 0.3641(4) 0.3470(6)
Br2C Br 0.3178(5) 0.3641(4) 0.1530(6)
O1B_2 O 0.610(3) 0.5000 0.0000
C1B C 0.804(4) 0.408(4) 0.939(5)
C1F C 0.804(4) 0.592(4) 1.061(5)
C2B C 0.936(6) 0.416(6) 0.947(7)
C2F C 0.936(6) 0.584(6) 1.053(7)
C3B C 1.01(1) 0.5000 1.0000
loop_
_geom_bond_atom_site_label_1
_geom_bond_atom_site_label_2
_geom_bond_site_symmetry_1
_geom_bond_site_symmetry_2
Tl1 Br1 1_555 1_555
Br2 Tl1 1_555 1_555
O1 Tl1 1_555 1_555
N1 O1 1_555 1_555
C1 N1 1_555 1_555
C2 C1 1_555 1_555
C3 C2 1_555 1_555
Br2F Tl1 1_555 1_555
O1B Tl1 1_555 1_555
Tl1B O1 1_555 1_555
C1C N1 1_555 1_555
C2C C3 1_555 1_555
Tl1B_2 O1B 1_555 1_555
N1B O1B 1_555 1_555
Br1B Tl1B 1_555 1_555
Br2B Tl1B 1_555 1_555
Br2C Tl1B 1_555 1_555
O1B_2 Tl1B 1_555 1_555
C1B N1B 1_555 1_555
C1F N1B 1_555 1_555
C2B C1B 1_555 1_555
C2F C1F 1_555 1_555
C3B C2B 1_555 1_555
C1C C2C 1_555 1_555
C2F C3B 1_555 1_555

#END
