
#######################################################################
#
#                 Cambridge Crystallographic Data Centre
#                                CCDC 
#
#######################################################################
#
# If this CIF has been generated from an entry in the Cambridge 
# Structural Database, then it will include bibliographic, chemical, 
# crystal, experimental, refinement or atomic coordinate data resulting 
# from the CCDC's data processing and validation procedures.
#
#######################################################################

data_SIWVUP
_symmetry_cell_setting           triclinic
_symmetry_space_group_name_H-M   'P -1'
_symmetry_Int_Tables_number      2
_space_group_name_Hall           '-P 1'
loop_
_symmetry_equiv_pos_site_id
_symmetry_equiv_pos_as_xyz
1 x,y,z
2 -x,-y,-z
_cell_length_a                   17.1896(12)
_cell_length_b                   19.3108(14)
_cell_length_c                   19.7639(14)
_cell_angle_alpha                100.579(2)
_cell_angle_beta                 101.242(2)
_cell_angle_gamma                98.719(2)
_cell_volume                     6204.67
loop_
_atom_site_label
_atom_site_type_symbol
_atom_site_fract_x
_atom_site_fract_y
_atom_site_fract_z
S7 S 0.5055(5) 0.3655(4) 0.7453(4)
O29 O 0.5522(9) 0.3120(7) 0.7488(10)
C97 C 0.5656(11) 0.4426(9) 0.8027(14)
C98 C 0.4317(12) 0.3474(13) 0.7916(14)
S8 S 0.0931(4) 0.9268(3) 1.2033(3)
O30 O 0.0896(10) 1.0006(7) 1.2083(11)
C99 C 0.1785(14) 0.9253(8) 1.2681(9)
C100 C 0.0212(17) 0.8898(14) 1.2425(15)
S9 S 0.4833(4) 0.8744(6) 1.0483(4)
O31 O 0.4536(7) 0.8281(7) 0.9867(5)
C101 C 0.5405(12) 0.8198(18) 1.0938(15)
C102 C 0.4223(13) 0.8924(11) 1.1026(10)
O32 O 0.7930(6) 0.8795(5) 0.6931(5)
O33 O 0.1494(7) 0.5331(9) -0.2168(8)
O34 O -0.0906(8) 0.6539(15) 0.1051(11)
O35 O 0.2962(13) 0.4207(11) 0.0447(13)
O36 O -0.0649(9) 0.7560(11) 0.0790(8)
O37 O 0.3713(11) 0.6918(13) 1.1037(17)
O1 O 0.4328(3) 0.9843(3) 0.7052(3)
O2 O 0.3110(3) 0.9396(2) 0.4511(2)
O3 O 0.2436(3) 0.4775(3) 0.4867(4)
O4 O 0.4607(5) 0.5431(5) 0.7249(8)
O5 O 0.5482(3) 0.9379(3) 0.6488(2)
O6 O 0.4101(3) 0.9570(3) 0.8270(3)
O7 O 0.1728(3) 0.8693(3) 0.4604(3)
O8 O 0.3948(3) 0.8817(3) 0.3592(3)
O9 O 0.3681(4) 0.5501(3) 0.4524(4)
O10 O 0.0945(3) 0.4870(3) 0.4336(3)
O11 O 0.6139(5) 0.5732(4) 0.7174(4)
O12 O 0.4004(5) 0.6325(5) 0.8104(7)
N1 N 0.7838(4) 0.9309(3) 0.9380(3)
N2 N 0.1141(7) 0.5517(4) 0.1483(4)
C1 C 0.5844(4) 0.8696(4) 0.8111(3)
C2 C 0.5233(4) 0.8943(4) 0.8397(4)
H1 H 0.5167 0.8859 0.8843
C3 C 0.4715(5) 0.9313(4) 0.8035(4)
C4 C 0.4816(4) 0.9457(4) 0.7401(4)
C5 C 0.5431(5) 0.9221(4) 0.7111(4)
C6 C 0.5930(4) 0.8835(4) 0.7472(3)
H2 H 0.6341 0.8664 0.7268
C7 C 0.3668(5) 0.9381(5) 0.6522(4)
H3 H 0.3253 0.9164 0.6746
H4 H 0.3862 0.8991 0.6242
C8 C 0.3319(5) 0.9851(4) 0.6054(4)
H5 H 0.2803 0.9578 0.5735
H6 H 0.3202 1.0275 0.6353
C9 C 0.3882(4) 1.0099(3) 0.5618(4)
H7 H 0.3720 1.0521 0.5451
H8 H 0.4436 1.0256 0.5920
C10 C 0.3892(4) 0.9542(4) 0.5000(4)
H9 H 0.4322 0.9711 0.4767
H10 H 0.4002 0.9099 0.5152
C11 C 0.2853(4) 0.8707(3) 0.4120(3)
C12 C 0.3252(4) 0.8401(3) 0.3640(3)
C13 C 0.2968(5) 0.7711(4) 0.3241(4)
H11 H 0.3271 0.7504 0.2932
C14 C 0.2237(5) 0.7314(4) 0.3291(4)
C15 C 0.1808(5) 0.7650(4) 0.3749(4)
H12 H 0.1300 0.7399 0.3779
C16 C 0.2108(5) 0.8337(4) 0.4157(4)
C17 C 0.1905(5) 0.6550(4) 0.2898(4)
C18 C 0.1023(5) 0.6469(4) 0.2499(4)
H13 H 0.0688 0.6562 0.2848
H14 H 0.0993 0.6839 0.2212
C19 C 0.0669(7) 0.5737(5) 0.2016(5)
H15 H 0.0635 0.5374 0.2310
H16 H 0.0111 0.5738 0.1766
C20 C 0.1980(8) 0.5594(5) 0.1864(6)
H17 H 0.2304 0.5453 0.1517
H18 H 0.2000 0.5255 0.2185
C21 C 0.2363(6) 0.6338(4) 0.2291(4)
H19 H 0.2336 0.6686 0.1980
H20 H 0.2939 0.6356 0.2502
C22 C 0.2043(5) 0.6065(3) 0.3427(4)
C23 C 0.1390(5) 0.5697(4) 0.3623(4)
H21 H 0.0853 0.5742 0.3432
C24 C 0.1540(5) 0.5268(4) 0.4102(4)
C25 C 0.2303(5) 0.5217(4) 0.4388(5)
C26 C 0.2940(5) 0.5578(4) 0.4197(5)
C27 C 0.2805(5) 0.6012(4) 0.3708(4)
H22 H 0.3248 0.6267 0.3576
C28 C 0.2656(7) 0.5152(7) 0.5595(6)
H23 H 0.3017 0.5614 0.5631
H24 H 0.2160 0.5263 0.5737
C29 C 0.3041(10) 0.4796(7) 0.6081(9)
H25 H 0.3037 0.5056 0.6561
H26 H 0.2708 0.4311 0.6002
C30 C 0.3730(11) 0.4727(7) 0.6078(13)
H27 H 0.3790 0.4615 0.5584
H28 H 0.3849 0.4321 0.6295
C31 C 0.4308(15) 0.5381(8) 0.6468(11)
H29 H 0.4052 0.5798 0.6408
H30 H 0.4781 0.5420 0.6251
C32 C 0.5071(7) 0.6083(5) 0.7618(7)
C33 C 0.4761(6) 0.6562(6) 0.8014(8)
C34 C 0.5196(5) 0.7257(5) 0.8337(5)
H31 H 0.4979 0.7582 0.8636
C35 C 0.5955(5) 0.7458(5) 0.8206(4)
C36 C 0.6290(5) 0.6958(5) 0.7843(4)
H32 H 0.6826 0.7088 0.7787
C37 C 0.5858(6) 0.6255(6) 0.7549(6)
C38 C 0.6390(4) 0.8242(4) 0.8465(4)
C39 C 0.6541(4) 0.8442(4) 0.9279(3)
H33 H 0.6014 0.8418 0.9414
H34 H 0.6815 0.8085 0.9478
C40 C 0.7044(4) 0.9177(5) 0.9595(4)
H35 H 0.7154 0.9253 1.0116
H36 H 0.6728 0.9536 0.9456
C41 C 0.7680(5) 0.9101(4) 0.8604(4)
H37 H 0.8202 0.9152 0.8459
H38 H 0.7368 0.9433 0.8399
C42 C 0.7221(5) 0.8345(4) 0.8312(4)
H39 H 0.7529 0.8012 0.8521
H40 H 0.7168 0.8225 0.7794
C43 C 0.6117(6) 0.9197(5) 0.6204(4)
H41 H 0.6088 0.9345 0.5753
H42 H 0.6082 0.8676 0.6126
H43 H 0.6630 0.9441 0.6532
C44 C 0.3954(6) 0.9443(7) 0.8914(5)
H44 H 0.3489 0.9649 0.9011
H45 H 0.4431 0.9668 0.9295
H46 H 0.3838 0.8925 0.8886
C45 C 0.0889(6) 0.8399(5) 0.4537(6)
H47 H 0.0678 0.8698 0.4888
H48 H 0.0835 0.7909 0.4616
H49 H 0.0582 0.8389 0.4061
C46 C 0.4247(6) 0.8614(5) 0.2976(4)
H50 H 0.4743 0.8954 0.3003
H51 H 0.3840 0.8620 0.2555
H52 H 0.4364 0.8130 0.2947
C47 C 0.1053(8) 0.5963(6) 0.0929(6)
H53 H 0.1216 0.6477 0.1170
H54 H 0.0474 0.5878 0.0687
C48 C 0.1553(9) 0.5814(8) 0.0358(6)
H55 H 0.1444 0.6114 0.0014
H56 H 0.1400 0.5307 0.0114
H57 H 0.2131 0.5927 0.0586
C49 C 0.0396(15) 0.4643(11) 0.0916(9)
H58 H -0.0174 0.4609 0.0953
H59 H 0.0447 0.4501 0.0421
C50 C 0.0827(14) 0.4399(13) 0.1349(10)
H60 H 0.0732 0.3875 0.1196
H61 H 0.0696 0.4528 0.1811
H62 H 0.1396 0.4600 0.1386
C51 C 0.4361(6) 0.5766(5) 0.4280(6)
H63 H 0.4850 0.5673 0.4568
H64 H 0.4407 0.6285 0.4316
H65 H 0.4297 0.5525 0.3785
C52 C 0.0129(5) 0.4805(5) 0.3955(6)
H66 H -0.0238 0.4509 0.4158
H67 H 0.0073 0.4578 0.3457
H68 H -0.0008 0.5283 0.3988
C53 C 0.7002(7) 0.5788(5) 0.7331(6)
H69 H 0.7140 0.5380 0.7035
H70 H 0.7195 0.5783 0.7831
H71 H 0.7259 0.6237 0.7236
C54 C 0.3777(8) 0.6757(8) 0.8705(11)
H72 H 0.3224 0.6554 0.8721
H73 H 0.3806 0.7253 0.8648
H74 H 0.4150 0.6750 0.9147
C55 C 0.8211(6) 1.0108(5) 0.9590(5)
H75 H 0.7819 1.0376 0.9373
H76 H 0.8698 1.0190 0.9397
C56 C 0.8453(6) 1.0415(5) 1.0409(5)
H77 H 0.8681 1.0929 1.0506
H78 H 0.8856 1.0165 1.0627
H79 H 0.7973 1.0342 1.0605
C57 C 0.8405(4) 0.8867(5) 0.9737(4)
H80 H 0.8519 0.9042 1.0256
H81 H 0.8126 0.8358 0.9624
C58 C 0.9200(5) 0.8911(6) 0.9506(6)
H82 H 0.9532 0.8619 0.9745
H83 H 0.9487 0.9412 0.9630
H84 H 0.9092 0.8731 0.8993
S1 S 0.06386(11) 0.33497(10) 0.56937(9)
S2 S 0.22439(15) 0.13605(12) 0.86370(10)
S3 S 0.11801(13) 0.28276(14) 0.29055(12)
S4 S -0.1806(2) 0.20921(16) -0.08795(13)
O13 O 0.2047(3) 0.2995(3) 0.5146(3)
O14 O 0.9661(3) 0.2903(3) 0.3389(3)
O15 O 0.0318(3) 0.2968(3) 0.4966(2)
O16 O 0.0059(3) 0.3351(3) 0.6126(3)
O17 O 0.1102(3) 0.4053(3) 0.5732(3)
O18 O 0.2593(4) 0.1974(3) 0.9179(3)
O19 O 0.2696(6) 0.0799(4) 0.8684(4)
O20 O 0.1402(5) 0.1105(5) 0.8550(4)
O21 O 0.1123(4) 0.2285(4) 0.3322(3)
O22 O 0.1371(4) 0.3536(4) 0.3337(3)
O23 O 0.1690(4) 0.2706(3) 0.2416(3)
O24 O -0.2383(5) 0.2495(4) -0.1110(4)
O25 O -0.1045(6) 0.2339(5) -0.1043(4)
O26 O -0.2154(8) 0.1325(4) -0.1111(4)
N3 N 0.3292(3) 0.2362(3) 0.5800(3)
N4 N 0.3373(3) 0.2591(3) 0.5236(3)
N5 N 0.8156(4) 0.2724(3) 0.3206(3)
N6 N 0.8068(3) 0.2606(3) 0.2529(3)
C59 C 0.2538(4) 0.2138(3) 0.6646(3)
C60 C 0.3086(5) 0.1761(4) 0.6952(4)
H85 H 0.3536 0.1685 0.6755
C61 C 0.2987(5) 0.1497(4) 0.7537(4)
H86 H 0.3353 0.1223 0.7730
C62 C 0.2344(5) 0.1635(4) 0.7847(4)
C63 C 0.1793(5) 0.2002(4) 0.7551(4)
H87 H 0.1350 0.2082 0.7757
C64 C 0.1880(4) 0.2258(4) 0.6949(3)
C65 C 0.1311(4) 0.2628(4) 0.6632(4)
H88 H 0.0873 0.2706 0.6845
C66 C 0.1353(4) 0.2871(4) 0.6053(3)
C67 C 0.2014(4) 0.2771(4) 0.5700(4)
C68 C 0.2620(4) 0.2422(4) 0.6022(4)
C69 C 0.4066(4) 0.2586(4) 0.4972(4)
C70 C 0.4734(4) 0.2328(4) 0.5306(4)
H89 H 0.4722 0.2149 0.5721
C71 C 0.5389(4) 0.2341(4) 0.5023(4)
H90 H 0.5844 0.2177 0.5249
C72 C 0.5415(4) 0.2594(4) 0.4394(4)
C73 C 0.4748(4) 0.2819(4) 0.4074(4)
H91 H 0.4746 0.2968 0.3642
C74 C 0.4075(4) 0.2834(4) 0.4363(4)
C75 C 0.3351(5) 0.3139(6) 0.4024(5)
H92 H 0.2935 0.3101 0.4297
H93 H 0.3534 0.3645 0.4022
H94 H 0.3126 0.2866 0.3537
C76 C 0.8405(5) 0.3094(7) 0.4676(4)
H95 H 0.8801 0.3093 0.4380
H96 H 0.8452 0.3583 0.4948
H97 H 0.8508 0.2774 0.5001
C77 C 0.7572(4) 0.2839(4) 0.4217(4)
C78 C 0.6905(4) 0.2802(4) 0.4504(4)
H98 H 0.6976 0.2909 0.5004
C79 C 0.6126(4) 0.2611(4) 0.4075(4)
C80 C 0.6039(4) 0.2453(4) 0.3358(4)
H99 H 0.5510 0.2317 0.3062
C81 C 0.6685(5) 0.2484(4) 0.3055(4)
H100 H 0.6606 0.2368 0.2555
C82 C 0.7464(4) 0.2687(4) 0.3484(3)
C83 C 0.8733(4) 0.2631(4) 0.2276(4)
C84 C 0.9540(4) 0.2770(4) 0.2736(4)
C85 C 0.0201(5) 0.2734(4) 0.2383(4)
C86 C 0.0074(5) 0.2617(4) 0.1661(4)
H101 H 0.0524 0.2600 0.1450
C87 C -0.0717(5) 0.2519(4) 0.1216(4)
C88 C -0.0835(6) 0.2392(5) 0.0477(4)
H102 H -0.0384 0.2375 0.0266
C89 C -0.1601(7) 0.2292(5) 0.0055(5)
C90 C -0.2276(6) 0.2282(6) 0.0366(4)
H103 H -0.2805 0.2207 0.0077
C91 C -0.2166(5) 0.2380(5) 0.1076(4)
H104 H -0.2623 0.2365 0.1281
C92 C 0.8607(5) 0.2504(4) 0.1515(4)
Na1 Na 0.13196(18) 0.37621(16) 0.45143(17)
Na2 Na 0.0302(2) 0.20291(16) 0.40849(16)
S5 S 0.10271(14) 0.05928(13) 0.46959(14)
O27 O 0.0835(5) 0.1306(4) 0.4779(4)
C93 C 0.2039(6) 0.0688(5) 0.4635(6)
C94 C 0.1157(6) 0.0403(5) 0.5552(5)
S6 S -0.1215(3) 0.0620(2) 0.3012(2)
O28 O -0.0886(7) 0.1305(5) 0.3521(5)
C95 C -0.2023(8) 0.0748(9) 0.2382(8)
C96 C -0.0575(11) 0.0550(14) 0.2439(13)
O14_2 O -0.0339(3) 0.2903(3) 0.3389(3)
C84_2 C -0.0460(4) 0.2770(4) 0.2736(4)
C83_2 C -0.1267(4) 0.2631(4) 0.2276(4)
N6_2 N -0.1932(3) 0.2606(3) 0.2529(3)
N5_2 N -0.1844(4) 0.2724(3) 0.3206(3)
C82_2 C -0.2536(4) 0.2687(4) 0.3484(3)
C77_2 C -0.2428(4) 0.2839(4) 0.4217(4)
C76_2 C -0.1595(5) 0.3094(7) 0.4676(4)
H95_2 H -0.1199 0.3093 0.4380
H96_2 H -0.1548 0.3583 0.4948
H97_2 H -0.1492 0.2774 0.5001
C78_2 C -0.3095(4) 0.2802(4) 0.4504(4)
H98_2 H -0.3024 0.2909 0.5004
C79_2 C -0.3874(4) 0.2611(4) 0.4075(4)
C72_2 C -0.4585(4) 0.2594(4) 0.4394(4)
C71_2 C -0.4611(4) 0.2341(4) 0.5023(4)
C70_2 C -0.5266(4) 0.2328(4) 0.5306(4)
C69_2 C -0.5934(4) 0.2586(4) 0.4972(4)
N4_2 N -0.6627(3) 0.2591(3) 0.5236(3)
N3_2 N -0.6708(3) 0.2362(3) 0.5800(3)
C68_2 C -0.7380(4) 0.2422(4) 0.6022(4)
C59_2 C -0.7462(4) 0.2138(3) 0.6646(3)
C60_2 C -0.6914(5) 0.1761(4) 0.6952(4)
H85_2 H -0.6464 0.1685 0.6755
C61_2 C -0.7013(5) 0.1497(4) 0.7537(4)
H86_2 H -0.6647 0.1223 0.7730
C62_2 C -0.7656(5) 0.1635(4) 0.7847(4)
S2_2 S -0.77561(15) 0.13605(12) 0.86370(10)
O18_2 O -0.7407(4) 0.1974(3) 0.9179(3)
O19_2 O -0.7304(6) 0.0799(4) 0.8684(4)
O20_2 O -0.8598(5) 0.1105(5) 0.8550(4)
C63_2 C -0.8207(5) 0.2002(4) 0.7551(4)
H87_2 H -0.8650 0.2082 0.7757
C64_2 C -0.8120(4) 0.2258(4) 0.6949(3)
C65_2 C -0.8689(4) 0.2628(4) 0.6632(4)
H88_2 H -0.9127 0.2706 0.6845
C66_2 C -0.8647(4) 0.2871(4) 0.6053(3)
S1_2 S -0.93614(11) 0.33497(10) 0.56937(9)
O15_2 O -0.9682(3) 0.2968(3) 0.4966(2)
Na1_2 Na -0.86804(18) 0.37621(16) 0.45143(17)
O3_2 O -0.7564(3) 0.4775(3) 0.4867(4)
C25_2 C -0.7697(5) 0.5217(4) 0.4388(5)
C24_2 C -0.8460(5) 0.5268(4) 0.4102(4)
O10_2 O -0.9055(3) 0.4870(3) 0.4336(3)
C52_2 C -0.9871(5) 0.4805(5) 0.3955(6)
H66_2 H -1.0238 0.4509 0.4158
H67_2 H -0.9927 0.4578 0.3457
H68_2 H -1.0008 0.5283 0.3988
O13_2 O -0.7953(3) 0.2995(3) 0.5146(3)
C67_2 C -0.7986(4) 0.2771(4) 0.5700(4)
O17_2 O -0.8898(3) 0.4053(3) 0.5732(3)
O16_2 O -0.9941(3) 0.3351(3) 0.6126(3)
O22_2 O -0.8629(4) 0.3536(4) 0.3337(3)
S3_2 S -0.88199(13) 0.28276(14) 0.29055(12)
O21_2 O -0.8877(4) 0.2285(4) 0.3322(3)
Na2_2 Na -0.9698(2) 0.20291(16) 0.40849(16)
O14_3 O -1.0339(3) 0.2903(3) 0.3389(3)
O27_2 O -0.9165(5) 0.1306(4) 0.4779(4)
S5_2 S -0.89729(14) 0.05928(13) 0.46959(14)
C93_2 C -0.7961(6) 0.0688(5) 0.4635(6)
C94_2 C -0.8843(6) 0.0403(5) 0.5552(5)
O28_2 O -1.0886(7) 0.1305(5) 0.3521(5)
S6_2 S -1.1215(3) 0.0620(2) 0.3012(2)
C95_2 C -1.2023(8) 0.0748(9) 0.2382(8)
C96_2 C -1.0575(11) 0.0550(14) 0.2439(13)
O23_2 O -0.8310(4) 0.2706(3) 0.2416(3)
C85_2 C -0.9799(5) 0.2734(4) 0.2383(4)
C84_3 C -1.0460(4) 0.2770(4) 0.2736(4)
C83_3 C -1.1267(4) 0.2631(4) 0.2276(4)
N6_3 N -1.1932(3) 0.2606(3) 0.2529(3)
N5_3 N -1.1844(4) 0.2724(3) 0.3206(3)
C82_3 C -1.2536(4) 0.2687(4) 0.3484(3)
C77_3 C -1.2428(4) 0.2839(4) 0.4217(4)
C76_3 C -1.1595(5) 0.3094(7) 0.4676(4)
H95_3 H -1.1199 0.3093 0.4380
H96_3 H -1.1548 0.3583 0.4948
H97_3 H -1.1492 0.2774 0.5001
C78_3 C -1.3095(4) 0.2802(4) 0.4504(4)
H98_3 H -1.3024 0.2909 0.5004
C79_3 C -1.3874(4) 0.2611(4) 0.4075(4)
C72_3 C -1.4585(4) 0.2594(4) 0.4394(4)
C71_3 C -1.4611(4) 0.2341(4) 0.5023(4)
C70_3 C -1.5266(4) 0.2328(4) 0.5306(4)
C69_3 C -1.5934(4) 0.2586(4) 0.4972(4)
N4_3 N -1.6627(3) 0.2591(3) 0.5236(3)
N3_3 N -1.6708(3) 0.2362(3) 0.5800(3)
C68_3 C -1.7380(4) 0.2422(4) 0.6022(4)
C59_3 C -1.7462(4) 0.2138(3) 0.6646(3)
C60_3 C -1.6914(5) 0.1761(4) 0.6952(4)
H85_3 H -1.6464 0.1685 0.6755
C61_3 C -1.7013(5) 0.1497(4) 0.7537(4)
H86_3 H -1.6647 0.1223 0.7730
C62_3 C -1.7656(5) 0.1635(4) 0.7847(4)
S2_3 S -1.77561(15) 0.13605(12) 0.86370(10)
O18_3 O -1.7407(4) 0.1974(3) 0.9179(3)
O19_3 O -1.7304(6) 0.0799(4) 0.8684(4)
O20_3 O -1.8598(5) 0.1105(5) 0.8550(4)
C63_3 C -1.8207(5) 0.2002(4) 0.7551(4)
H87_3 H -1.8650 0.2082 0.7757
C64_3 C -1.8120(4) 0.2258(4) 0.6949(3)
C65_3 C -1.8689(4) 0.2628(4) 0.6632(4)
H88_3 H -1.9127 0.2706 0.6845
C66_3 C -1.8647(4) 0.2871(4) 0.6053(3)
S1_3 S -1.93614(11) 0.33497(10) 0.56937(9)
O15_3 O -1.9682(3) 0.2968(3) 0.4966(2)
Na1_3 Na -1.86804(18) 0.37621(16) 0.45143(17)
O3_3 O -1.7564(3) 0.4775(3) 0.4867(4)
C25_3 C -1.7697(5) 0.5217(4) 0.4388(5)
C24_3 C -1.8460(5) 0.5268(4) 0.4102(4)
O10_3 O -1.9055(3) 0.4870(3) 0.4336(3)
C52_3 C -1.9871(5) 0.4805(5) 0.3955(6)
H66_3 H -2.0238 0.4509 0.4158
H67_3 H -1.9927 0.4578 0.3457
H68_3 H -2.0008 0.5283 0.3988
O13_3 O -1.7953(3) 0.2995(3) 0.5146(3)
C67_3 C -1.7986(4) 0.2771(4) 0.5700(4)
O17_3 O -1.8898(3) 0.4053(3) 0.5732(3)
O16_3 O -1.9941(3) 0.3351(3) 0.6126(3)
O22_3 O -1.8629(4) 0.3536(4) 0.3337(3)
S3_3 S -1.88199(13) 0.28276(14) 0.29055(12)
O21_3 O -1.8877(4) 0.2285(4) 0.3322(3)
Na2_3 Na -1.9698(2) 0.20291(16) 0.40849(16)
O14_4 O -2.0339(3) 0.2903(3) 0.3389(3)
O27_3 O -1.9165(5) 0.1306(4) 0.4779(4)
S5_3 S -1.89729(14) 0.05928(13) 0.46959(14)
C93_3 C -1.7961(6) 0.0688(5) 0.4635(6)
C94_3 C -1.8843(6) 0.0403(5) 0.5552(5)
O28_3 O -2.0886(7) 0.1305(5) 0.3521(5)
S6_3 S -2.1215(3) 0.0620(2) 0.3012(2)
C95_3 C -2.2023(8) 0.0748(9) 0.2382(8)
C96_3 C -2.0575(11) 0.0550(14) 0.2439(13)
O23_3 O -1.8310(4) 0.2706(3) 0.2416(3)
C85_3 C -1.9799(5) 0.2734(4) 0.2383(4)
C84_4 C -2.0460(4) 0.2770(4) 0.2736(4)
C86_2 C -1.9926(5) 0.2617(4) 0.1661(4)
H101_2 H -1.9476 0.2600 0.1450
C87_2 C -2.0717(5) 0.2519(4) 0.1216(4)
C88_2 C -2.0835(6) 0.2392(5) 0.0477(4)
H102_2 H -2.0384 0.2375 0.0266
C89_2 C -2.1601(7) 0.2292(5) 0.0055(5)
S4_2 S -2.1806(2) 0.20921(16) -0.08795(13)
O24_2 O -2.2383(5) 0.2495(4) -0.1110(4)
O25_2 O -2.1045(6) 0.2339(5) -0.1043(4)
O26_2 O -2.2154(8) 0.1325(4) -0.1111(4)
C90_2 C -2.2276(6) 0.2282(6) 0.0366(4)
H103_2 H -2.2805 0.2207 0.0077
C91_2 C -2.2166(5) 0.2380(5) 0.1076(4)
H104_2 H -2.2623 0.2365 0.1281
C92_2 C -2.1393(5) 0.2504(4) 0.1515(4)
C83_4 C -2.1267(4) 0.2631(4) 0.2276(4)
N6_4 N -2.1932(3) 0.2606(3) 0.2529(3)
N5_4 N -2.1844(4) 0.2724(3) 0.3206(3)
C82_4 C -2.2536(4) 0.2687(4) 0.3484(3)
C77_4 C -2.2428(4) 0.2839(4) 0.4217(4)
C76_4 C -2.1595(5) 0.3094(7) 0.4676(4)
H95_4 H -2.1199 0.3093 0.4380
H96_4 H -2.1548 0.3583 0.4948
H97_4 H -2.1492 0.2774 0.5001
C78_4 C -2.3095(4) 0.2802(4) 0.4504(4)
H98_4 H -2.3024 0.2909 0.5004
C79_4 C -2.3874(4) 0.2611(4) 0.4075(4)
C72_4 C -2.4585(4) 0.2594(4) 0.4394(4)
C71_4 C -2.4611(4) 0.2341(4) 0.5023(4)
C70_4 C -2.5266(4) 0.2328(4) 0.5306(4)
C69_4 C -2.5934(4) 0.2586(4) 0.4972(4)
N4_4 N -2.6627(3) 0.2591(3) 0.5236(3)
N3_4 N -2.6708(3) 0.2362(3) 0.5800(3)
C68_4 C -2.7380(4) 0.2422(4) 0.6022(4)
C59_4 C -2.7462(4) 0.2138(3) 0.6646(3)
C60_4 C -2.6914(5) 0.1761(4) 0.6952(4)
H85_4 H -2.6464 0.1685 0.6755
C61_4 C -2.7013(5) 0.1497(4) 0.7537(4)
H86_4 H -2.6647 0.1223 0.7730
C62_4 C -2.7656(5) 0.1635(4) 0.7847(4)
S2_4 S -2.77561(15) 0.13605(12) 0.86370(10)
O18_4 O -2.7407(4) 0.1974(3) 0.9179(3)
O19_4 O -2.7304(6) 0.0799(4) 0.8684(4)
O20_4 O -2.8598(5) 0.1105(5) 0.8550(4)
C63_4 C -2.8207(5) 0.2002(4) 0.7551(4)
H87_4 H -2.8650 0.2082 0.7757
C64_4 C -2.8120(4) 0.2258(4) 0.6949(3)
C65_4 C -2.8689(4) 0.2628(4) 0.6632(4)
H88_4 H -2.9127 0.2706 0.6845
C66_4 C -2.8647(4) 0.2871(4) 0.6053(3)
C67_4 C -2.7986(4) 0.2771(4) 0.5700(4)
C74_2 C -2.5925(4) 0.2834(4) 0.4363(4)
C73_2 C -2.5252(4) 0.2819(4) 0.4074(4)
H91_2 H -2.5254 0.2968 0.3642
C75_2 C -2.6649(5) 0.3139(6) 0.4024(5)
H92_2 H -2.7065 0.3101 0.4297
H93_2 H -2.6466 0.3645 0.4022
H94_2 H -2.6874 0.2866 0.3537
H89_2 H -2.5278 0.2149 0.5721
H90_2 H -2.4156 0.2177 0.5249
C80_2 C -2.3961(4) 0.2453(4) 0.3358(4)
H99_2 H -2.4490 0.2317 0.3062
C81_2 C -2.3315(5) 0.2484(4) 0.3055(4)
H100_2 H -2.3394 0.2368 0.2555
C23_2 C -1.8610(5) 0.5697(4) 0.3623(4)
C22_2 C -1.7957(5) 0.6065(3) 0.3427(4)
C17_2 C -1.8095(5) 0.6550(4) 0.2898(4)
C14_2 C -1.7763(5) 0.7314(4) 0.3291(4)
C13_2 C -1.7032(5) 0.7711(4) 0.3241(4)
C12_2 C -1.6748(4) 0.8401(3) 0.3640(3)
O8_2 O -1.6052(3) 0.8817(3) 0.3592(3)
C46_2 C -1.5753(6) 0.8614(5) 0.2976(4)
H50_2 H -1.5257 0.8954 0.3003
H51_2 H -1.6160 0.8620 0.2555
H52_2 H -1.5636 0.8130 0.2947
C11_2 C -1.7147(4) 0.8707(3) 0.4120(3)
O2_2 O -1.6890(3) 0.9396(2) 0.4511(2)
C10_2 C -1.6108(4) 0.9542(4) 0.5000(4)
C9_2 C -1.6118(4) 1.0099(3) 0.5618(4)
C8_2 C -1.6681(5) 0.9851(4) 0.6054(4)
C7_2 C -1.6332(5) 0.9381(5) 0.6522(4)
O1_2 O -1.5672(3) 0.9843(3) 0.7052(3)
C4_2 C -1.5184(4) 0.9457(4) 0.7401(4)
C3_2 C -1.5285(5) 0.9313(4) 0.8035(4)
O6_2 O -1.5899(3) 0.9570(3) 0.8270(3)
C44_2 C -1.6046(6) 0.9443(7) 0.8914(5)
H44_2 H -1.6511 0.9649 0.9011
H45_2 H -1.5569 0.9668 0.9295
H46_2 H -1.6162 0.8925 0.8886
C2_2 C -1.4767(4) 0.8943(4) 0.8397(4)
C1_2 C -1.4156(4) 0.8696(4) 0.8111(3)
C6_2 C -1.4070(4) 0.8835(4) 0.7472(3)
C5_2 C -1.4569(5) 0.9221(4) 0.7111(4)
O5_2 O -1.4518(3) 0.9379(3) 0.6488(2)
C43_2 C -1.3883(6) 0.9197(5) 0.6204(4)
H41_2 H -1.3912 0.9345 0.5753
H42_2 H -1.3918 0.8676 0.6126
H43_2 H -1.3370 0.9441 0.6532
H2_2 H -1.3659 0.8664 0.7268
C38_2 C -1.3610(4) 0.8242(4) 0.8465(4)
C35_2 C -1.4045(5) 0.7458(5) 0.8206(4)
C34_2 C -1.4804(5) 0.7257(5) 0.8337(5)
C33_2 C -1.5239(6) 0.6562(6) 0.8014(8)
O12_2 O -1.5996(5) 0.6325(5) 0.8104(7)
C54_2 C -1.6223(8) 0.6757(8) 0.8705(11)
H72_2 H -1.6776 0.6554 0.8721
H73_2 H -1.6194 0.7253 0.8648
H74_2 H -1.5850 0.6750 0.9147
C32_2 C -1.4929(7) 0.6083(5) 0.7618(7)
O4_2 O -1.5393(5) 0.5431(5) 0.7249(8)
C31_2 C -1.5692(15) 0.5381(8) 0.6468(11)
C30_2 C -1.6270(11) 0.4727(7) 0.6078(13)
C29_2 C -1.6959(10) 0.4796(7) 0.6081(9)
C28_2 C -1.7344(7) 0.5152(7) 0.5595(6)
H23_2 H -1.6983 0.5614 0.5631
H24_2 H -1.7840 0.5263 0.5737
H25_2 H -1.6963 0.5056 0.6561
H26_2 H -1.7292 0.4311 0.6002
H27_2 H -1.6210 0.4615 0.5584
H28_2 H -1.6151 0.4321 0.6295
H29_2 H -1.5948 0.5798 0.6408
H30_2 H -1.5219 0.5420 0.6251
C37_2 C -1.4142(6) 0.6255(6) 0.7549(6)
O11_2 O -1.3861(5) 0.5732(4) 0.7174(4)
C53_2 C -1.2998(7) 0.5788(5) 0.7331(6)
H69_2 H -1.2860 0.5380 0.7035
H70_2 H -1.2805 0.5783 0.7831
H71_2 H -1.2741 0.6237 0.7236
C36_2 C -1.3710(5) 0.6958(5) 0.7843(4)
H32_2 H -1.3174 0.7088 0.7787
H31_2 H -1.5021 0.7582 0.8636
C39_2 C -1.3459(4) 0.8442(4) 0.9279(3)
H33_2 H -1.3986 0.8418 0.9414
H34_2 H -1.3185 0.8085 0.9478
C40_2 C -1.2956(4) 0.9177(5) 0.9595(4)
N1_2 N -1.2162(4) 0.9309(3) 0.9380(3)
C41_2 C -1.2320(5) 0.9101(4) 0.8604(4)
H37_2 H -1.1798 0.9152 0.8459
H38_2 H -1.2632 0.9433 0.8399
C42_2 C -1.2779(5) 0.8345(4) 0.8312(4)
H39_2 H -1.2471 0.8012 0.8521
H40_2 H -1.2832 0.8225 0.7794
C55_2 C -1.1789(6) 1.0108(5) 0.9590(5)
H75_2 H -1.2181 1.0376 0.9373
H76_2 H -1.1302 1.0190 0.9397
C56_2 C -1.1547(6) 1.0415(5) 1.0409(5)
H77_2 H -1.1319 1.0929 1.0506
H78_2 H -1.1144 1.0165 1.0627
H79_2 H -1.2027 1.0342 1.0605
C57_2 C -1.1595(4) 0.8867(5) 0.9737(4)
H80_2 H -1.1481 0.9042 1.0256
H81_2 H -1.1874 0.8358 0.9624
C58_2 C -1.0800(5) 0.8911(6) 0.9506(6)
H82_2 H -1.0468 0.8619 0.9745
H83_2 H -1.0513 0.9412 0.9630
H84_2 H -1.0908 0.8731 0.8993
H35_2 H -1.2846 0.9253 1.0116
H36_2 H -1.3272 0.9536 0.9456
H1_2 H -1.4833 0.8859 0.8843
H3_2 H -1.6747 0.9164 0.6746
H4_2 H -1.6138 0.8991 0.6242
H5_2 H -1.7197 0.9578 0.5735
H6_2 H -1.6798 1.0275 0.6353
H7_2 H -1.6280 1.0521 0.5451
H8_2 H -1.5564 1.0256 0.5920
H9_2 H -1.5678 0.9711 0.4767
H10_2 H -1.5998 0.9099 0.5152
C16_2 C -1.7892(5) 0.8337(4) 0.4157(4)
O7_2 O -1.8272(3) 0.8693(3) 0.4604(3)
C45_2 C -1.9111(6) 0.8399(5) 0.4537(6)
H47_2 H -1.9322 0.8698 0.4888
H48_2 H -1.9165 0.7909 0.4616
H49_2 H -1.9418 0.8389 0.4061
C15_2 C -1.8192(5) 0.7650(4) 0.3749(4)
H12_2 H -1.8700 0.7399 0.3779
H11_2 H -1.6729 0.7504 0.2932
C18_2 C -1.8977(5) 0.6469(4) 0.2499(4)
H13_2 H -1.9312 0.6562 0.2848
H14_2 H -1.9007 0.6839 0.2212
C19_2 C -1.9331(7) 0.5737(5) 0.2016(5)
N2_2 N -1.8859(7) 0.5517(4) 0.1483(4)
C20_2 C -1.8020(8) 0.5594(5) 0.1864(6)
H17_2 H -1.7696 0.5453 0.1517
H18_2 H -1.8000 0.5255 0.2185
C21_2 C -1.7637(6) 0.6338(4) 0.2291(4)
H19_2 H -1.7664 0.6686 0.1980
H20_2 H -1.7061 0.6356 0.2502
C47_2 C -1.8947(8) 0.5963(6) 0.0929(6)
H53_2 H -1.8784 0.6477 0.1170
H54_2 H -1.9526 0.5878 0.0687
C48_2 C -1.8447(9) 0.5814(8) 0.0358(6)
H55_2 H -1.8556 0.6114 0.0014
H56_2 H -1.8600 0.5307 0.0114
H57_2 H -1.7869 0.5927 0.0586
H15_2 H -1.9365 0.5374 0.2310
H16_2 H -1.9889 0.5738 0.1766
C27_2 C -1.7195(5) 0.6012(4) 0.3708(4)
C26_2 C -1.7060(5) 0.5578(4) 0.4197(5)
O9_2 O -1.6319(4) 0.5501(3) 0.4524(4)
C51_2 C -1.5639(6) 0.5766(5) 0.4280(6)
H63_2 H -1.5150 0.5673 0.4568
H64_2 H -1.5593 0.6285 0.4316
H65_2 H -1.5703 0.5525 0.3785
H22_2 H -1.6752 0.6267 0.3576
H21_2 H -1.9147 0.5742 0.3432
C74_3 C -1.5925(4) 0.2834(4) 0.4363(4)
C73_3 C -1.5252(4) 0.2819(4) 0.4074(4)
H91_3 H -1.5254 0.2968 0.3642
C75_3 C -1.6649(5) 0.3139(6) 0.4024(5)
H92_3 H -1.7065 0.3101 0.4297
H93_3 H -1.6466 0.3645 0.4022
H94_3 H -1.6874 0.2866 0.3537
H89_3 H -1.5278 0.2149 0.5721
H90_3 H -1.4156 0.2177 0.5249
C80_3 C -1.3961(4) 0.2453(4) 0.3358(4)
H99_3 H -1.4490 0.2317 0.3062
C81_3 C -1.3315(5) 0.2484(4) 0.3055(4)
H100_3 H -1.3394 0.2368 0.2555
C92_3 C -1.1393(5) 0.2504(4) 0.1515(4)
C87_3 C -1.0717(5) 0.2519(4) 0.1216(4)
C91_3 C -1.2166(5) 0.2380(5) 0.1076(4)
C86_3 C -0.9926(5) 0.2617(4) 0.1661(4)
H101_3 H -0.9476 0.2600 0.1450
C23_3 C -0.8610(5) 0.5697(4) 0.3623(4)
C22_3 C -0.7957(5) 0.6065(3) 0.3427(4)
C17_3 C -0.8095(5) 0.6550(4) 0.2898(4)
C14_3 C -0.7763(5) 0.7314(4) 0.3291(4)
C13_3 C -0.7032(5) 0.7711(4) 0.3241(4)
C12_3 C -0.6748(4) 0.8401(3) 0.3640(3)
O8_3 O -0.6052(3) 0.8817(3) 0.3592(3)
C46_3 C -0.5753(6) 0.8614(5) 0.2976(4)
H50_3 H -0.5257 0.8954 0.3003
H51_3 H -0.6160 0.8620 0.2555
H52_3 H -0.5636 0.8130 0.2947
C11_3 C -0.7147(4) 0.8707(3) 0.4120(3)
O2_3 O -0.6890(3) 0.9396(2) 0.4511(2)
C10_3 C -0.6108(4) 0.9542(4) 0.5000(4)
C9_3 C -0.6118(4) 1.0099(3) 0.5618(4)
C8_3 C -0.6681(5) 0.9851(4) 0.6054(4)
C7_3 C -0.6332(5) 0.9381(5) 0.6522(4)
O1_3 O -0.5672(3) 0.9843(3) 0.7052(3)
C4_3 C -0.5184(4) 0.9457(4) 0.7401(4)
C3_3 C -0.5285(5) 0.9313(4) 0.8035(4)
O6_3 O -0.5899(3) 0.9570(3) 0.8270(3)
C44_3 C -0.6046(6) 0.9443(7) 0.8914(5)
H44_3 H -0.6511 0.9649 0.9011
H45_3 H -0.5569 0.9668 0.9295
H46_3 H -0.6162 0.8925 0.8886
C2_3 C -0.4767(4) 0.8943(4) 0.8397(4)
C1_3 C -0.4156(4) 0.8696(4) 0.8111(3)
C6_3 C -0.4070(4) 0.8835(4) 0.7472(3)
C5_3 C -0.4569(5) 0.9221(4) 0.7111(4)
O5_3 O -0.4518(3) 0.9379(3) 0.6488(2)
C43_3 C -0.3883(6) 0.9197(5) 0.6204(4)
H41_3 H -0.3912 0.9345 0.5753
H42_3 H -0.3918 0.8676 0.6126
H43_3 H -0.3370 0.9441 0.6532
H2_3 H -0.3659 0.8664 0.7268
C38_3 C -0.3610(4) 0.8242(4) 0.8465(4)
C35_3 C -0.4045(5) 0.7458(5) 0.8206(4)
C34_3 C -0.4804(5) 0.7257(5) 0.8337(5)
C33_3 C -0.5239(6) 0.6562(6) 0.8014(8)
O12_3 O -0.5996(5) 0.6325(5) 0.8104(7)
C54_3 C -0.6223(8) 0.6757(8) 0.8705(11)
H72_3 H -0.6776 0.6554 0.8721
H73_3 H -0.6194 0.7253 0.8648
H74_3 H -0.5850 0.6750 0.9147
C32_3 C -0.4929(7) 0.6083(5) 0.7618(7)
O4_3 O -0.5393(5) 0.5431(5) 0.7249(8)
C31_3 C -0.5692(15) 0.5381(8) 0.6468(11)
C30_3 C -0.6270(11) 0.4727(7) 0.6078(13)
C29_3 C -0.6959(10) 0.4796(7) 0.6081(9)
C28_3 C -0.7344(7) 0.5152(7) 0.5595(6)
H23_3 H -0.6983 0.5614 0.5631
H24_3 H -0.7840 0.5263 0.5737
H25_3 H -0.6963 0.5056 0.6561
H26_3 H -0.7292 0.4311 0.6002
H27_3 H -0.6210 0.4615 0.5584
H28_3 H -0.6151 0.4321 0.6295
H29_3 H -0.5948 0.5798 0.6408
H30_3 H -0.5219 0.5420 0.6251
C37_3 C -0.4142(6) 0.6255(6) 0.7549(6)
O11_3 O -0.3861(5) 0.5732(4) 0.7174(4)
C53_3 C -0.2998(7) 0.5788(5) 0.7331(6)
H69_3 H -0.2860 0.5380 0.7035
H70_3 H -0.2805 0.5783 0.7831
H71_3 H -0.2741 0.6237 0.7236
C36_3 C -0.3710(5) 0.6958(5) 0.7843(4)
H32_3 H -0.3174 0.7088 0.7787
H31_3 H -0.5021 0.7582 0.8636
C39_3 C -0.3459(4) 0.8442(4) 0.9279(3)
H33_3 H -0.3986 0.8418 0.9414
H34_3 H -0.3185 0.8085 0.9478
C40_3 C -0.2956(4) 0.9177(5) 0.9595(4)
N1_3 N -0.2162(4) 0.9309(3) 0.9380(3)
C41_3 C -0.2320(5) 0.9101(4) 0.8604(4)
H37_3 H -0.1798 0.9152 0.8459
H38_3 H -0.2632 0.9433 0.8399
C42_3 C -0.2779(5) 0.8345(4) 0.8312(4)
H39_3 H -0.2471 0.8012 0.8521
H40_3 H -0.2832 0.8225 0.7794
C55_3 C -0.1789(6) 1.0108(5) 0.9590(5)
H75_3 H -0.2181 1.0376 0.9373
H76_3 H -0.1302 1.0190 0.9397
C56_3 C -0.1547(6) 1.0415(5) 1.0409(5)
H77_3 H -0.1319 1.0929 1.0506
H78_3 H -0.1144 1.0165 1.0627
H79_3 H -0.2027 1.0342 1.0605
C57_3 C -0.1595(4) 0.8867(5) 0.9737(4)
H80_3 H -0.1481 0.9042 1.0256
H81_3 H -0.1874 0.8358 0.9624
C58_3 C -0.0800(5) 0.8911(6) 0.9506(6)
H82_3 H -0.0468 0.8619 0.9745
H83_3 H -0.0513 0.9412 0.9630
H84_3 H -0.0908 0.8731 0.8993
H35_3 H -0.2846 0.9253 1.0116
H36_3 H -0.3272 0.9536 0.9456
H1_3 H -0.4833 0.8859 0.8843
H3_3 H -0.6747 0.9164 0.6746
H4_3 H -0.6138 0.8991 0.6242
H5_3 H -0.7197 0.9578 0.5735
H6_3 H -0.6798 1.0275 0.6353
H7_3 H -0.6280 1.0521 0.5451
H8_3 H -0.5564 1.0256 0.5920
H9_3 H -0.5678 0.9711 0.4767
H10_3 H -0.5998 0.9099 0.5152
C16_3 C -0.7892(5) 0.8337(4) 0.4157(4)
O7_3 O -0.8272(3) 0.8693(3) 0.4604(3)
C45_3 C -0.9111(6) 0.8399(5) 0.4537(6)
H47_3 H -0.9322 0.8698 0.4888
H48_3 H -0.9165 0.7909 0.4616
H49_3 H -0.9418 0.8389 0.4061
C15_3 C -0.8192(5) 0.7650(4) 0.3749(4)
H12_3 H -0.8700 0.7399 0.3779
H11_3 H -0.6729 0.7504 0.2932
C18_3 C -0.8977(5) 0.6469(4) 0.2499(4)
H13_3 H -0.9312 0.6562 0.2848
H14_3 H -0.9007 0.6839 0.2212
C19_3 C -0.9331(7) 0.5737(5) 0.2016(5)
N2_3 N -0.8859(7) 0.5517(4) 0.1483(4)
C20_3 C -0.8020(8) 0.5594(5) 0.1864(6)
H17_3 H -0.7696 0.5453 0.1517
H18_3 H -0.8000 0.5255 0.2185
C21_3 C -0.7637(6) 0.6338(4) 0.2291(4)
H19_3 H -0.7664 0.6686 0.1980
H20_3 H -0.7061 0.6356 0.2502
C47_3 C -0.8947(8) 0.5963(6) 0.0929(6)
H53_3 H -0.8784 0.6477 0.1170
H54_3 H -0.9526 0.5878 0.0687
C48_3 C -0.8447(9) 0.5814(8) 0.0358(6)
H55_3 H -0.8556 0.6114 0.0014
H56_3 H -0.8600 0.5307 0.0114
H57_3 H -0.7869 0.5927 0.0586
H15_3 H -0.9365 0.5374 0.2310
H16_3 H -0.9889 0.5738 0.1766
C27_3 C -0.7195(5) 0.6012(4) 0.3708(4)
C26_3 C -0.7060(5) 0.5578(4) 0.4197(5)
O9_3 O -0.6319(4) 0.5501(3) 0.4524(4)
C51_3 C -0.5639(6) 0.5766(5) 0.4280(6)
H63_3 H -0.5150 0.5673 0.4568
H64_3 H -0.5593 0.6285 0.4316
H65_3 H -0.5703 0.5525 0.3785
H22_3 H -0.6752 0.6267 0.3576
H21_3 H -0.9147 0.5742 0.3432
C74_4 C -0.5925(4) 0.2834(4) 0.4363(4)
C73_4 C -0.5252(4) 0.2819(4) 0.4074(4)
H91_4 H -0.5254 0.2968 0.3642
C75_4 C -0.6649(5) 0.3139(6) 0.4024(5)
H92_4 H -0.7065 0.3101 0.4297
H93_4 H -0.6466 0.3645 0.4022
H94_4 H -0.6874 0.2866 0.3537
H89_4 H -0.5278 0.2149 0.5721
H90_4 H -0.4156 0.2177 0.5249
C80_4 C -0.3961(4) 0.2453(4) 0.3358(4)
H99_4 H -0.4490 0.2317 0.3062
C81_4 C -0.3315(5) 0.2484(4) 0.3055(4)
H100_4 H -0.3394 0.2368 0.2555
C92_4 C -0.1393(5) 0.2504(4) 0.1515(4)
loop_
_geom_bond_atom_site_label_1
_geom_bond_atom_site_label_2
_geom_bond_site_symmetry_1
_geom_bond_site_symmetry_2
O1 C4 1_555 1_555
O2 C10 1_555 1_555
O3 C25 1_555 1_555
O4 C31 1_555 1_555
O5 C5 1_555 1_555
O6 C3 1_555 1_555
O7 C16 1_555 1_555
O8 C12 1_555 1_555
O9 C26 1_555 1_555
O10 C24 1_555 1_555
O11 C37 1_555 1_555
O12 C33 1_555 1_555
N1 C40 1_555 1_555
N2 C19 1_555 1_555
C1 C2 1_555 1_555
C2 H1 1_555 1_555
C3 C2 1_555 1_555
C4 C3 1_555 1_555
C5 C4 1_555 1_555
C6 C1 1_555 1_555
H2 C6 1_555 1_555
C7 O1 1_555 1_555
H3 C7 1_555 1_555
H4 C7 1_555 1_555
C8 C7 1_555 1_555
H5 C8 1_555 1_555
H6 C8 1_555 1_555
C9 C8 1_555 1_555
H7 C9 1_555 1_555
H8 C9 1_555 1_555
C10 C9 1_555 1_555
H9 C10 1_555 1_555
H10 C10 1_555 1_555
C11 O2 1_555 1_555
C12 C11 1_555 1_555
C13 C12 1_555 1_555
H11 C13 1_555 1_555
C14 C13 1_555 1_555
C15 C14 1_555 1_555
H12 C15 1_555 1_555
C16 C11 1_555 1_555
C17 C14 1_555 1_555
C18 C17 1_555 1_555
H13 C18 1_555 1_555
H14 C18 1_555 1_555
C19 C18 1_555 1_555
H15 C19 1_555 1_555
H16 C19 1_555 1_555
C20 N2 1_555 1_555
H17 C20 1_555 1_555
H18 C20 1_555 1_555
C21 C17 1_555 1_555
H19 C21 1_555 1_555
H20 C21 1_555 1_555
C22 C17 1_555 1_555
C23 C22 1_555 1_555
H21 C23 1_555 1_555
C24 C23 1_555 1_555
C25 C24 1_555 1_555
C26 C25 1_555 1_555
C27 C22 1_555 1_555
H22 C27 1_555 1_555
C28 O3 1_555 1_555
H23 C28 1_555 1_555
H24 C28 1_555 1_555
C29 C28 1_555 1_555
H25 C29 1_555 1_555
H26 C29 1_555 1_555
C30 C29 1_555 1_555
H27 C30 1_555 1_555
H28 C30 1_555 1_555
C31 C30 1_555 1_555
H29 C31 1_555 1_555
H30 C31 1_555 1_555
C32 O4 1_555 1_555
C33 C32 1_555 1_555
C34 C33 1_555 1_555
H31 C34 1_555 1_555
C35 C34 1_555 1_555
C36 C35 1_555 1_555
H32 C36 1_555 1_555
C37 C32 1_555 1_555
C38 C1 1_555 1_555
C39 C38 1_555 1_555
H33 C39 1_555 1_555
H34 C39 1_555 1_555
C40 C39 1_555 1_555
H35 C40 1_555 1_555
H36 C40 1_555 1_555
C41 N1 1_555 1_555
H37 C41 1_555 1_555
H38 C41 1_555 1_555
C42 C38 1_555 1_555
H39 C42 1_555 1_555
H40 C42 1_555 1_555
C43 O5 1_555 1_555
H41 C43 1_555 1_555
H42 C43 1_555 1_555
H43 C43 1_555 1_555
C44 O6 1_555 1_555
H44 C44 1_555 1_555
H45 C44 1_555 1_555
H46 C44 1_555 1_555
C45 O7 1_555 1_555
H47 C45 1_555 1_555
H48 C45 1_555 1_555
H49 C45 1_555 1_555
C46 O8 1_555 1_555
H50 C46 1_555 1_555
H51 C46 1_555 1_555
H52 C46 1_555 1_555
C47 N2 1_555 1_555
H53 C47 1_555 1_555
H54 C47 1_555 1_555
C48 C47 1_555 1_555
H55 C48 1_555 1_555
H56 C48 1_555 1_555
H57 C48 1_555 1_555
C49 N2 1_555 1_555
H58 C49 1_555 1_555
H59 C49 1_555 1_555
C50 C49 1_555 1_555
H60 C50 1_555 1_555
H61 C50 1_555 1_555
H62 C50 1_555 1_555
C51 O9 1_555 1_555
H63 C51 1_555 1_555
H64 C51 1_555 1_555
H65 C51 1_555 1_555
C52 O10 1_555 1_555
H66 C52 1_555 1_555
H67 C52 1_555 1_555
H68 C52 1_555 1_555
C53 O11 1_555 1_555
H69 C53 1_555 1_555
H70 C53 1_555 1_555
H71 C53 1_555 1_555
C54 O12 1_555 1_555
H72 C54 1_555 1_555
H73 C54 1_555 1_555
H74 C54 1_555 1_555
C55 N1 1_555 1_555
H75 C55 1_555 1_555
H76 C55 1_555 1_555
C56 C55 1_555 1_555
H77 C56 1_555 1_555
H78 C56 1_555 1_555
H79 C56 1_555 1_555
C57 N1 1_555 1_555
H80 C57 1_555 1_555
H81 C57 1_555 1_555
C58 C57 1_555 1_555
H82 C58 1_555 1_555
H83 C58 1_555 1_555
H84 C58 1_555 1_555
S1 O15 1_555 1_555
S2 O18 1_555 1_555
S3 O21 1_555 1_555
S4 O24 1_555 1_555
O13 C67 1_555 1_555
O14 C84 1_555 1_555
O15 Na1 1_555 1_555
O16 S1 1_555 1_555
O17 S1 1_555 1_555
O19 S2 1_555 1_555
O20 S2 1_555 1_555
O21 Na2 1_555 1_555
O22 S3 1_555 1_555
O23 S3 1_555 1_555
O25 S4 1_555 1_555
O26 S4 1_555 1_555
N3 N4 1_555 1_555
N4 C69 1_555 1_555
N5 N6 1_555 1_555
N6 C83 1_555 1_555
C59 C60 1_555 1_555
C60 H85 1_555 1_555
C61 C60 1_555 1_555
H86 C61 1_555 1_555
C62 S2 1_555 1_555
C63 C62 1_555 1_555
H87 C63 1_555 1_555
C64 C59 1_555 1_555
C65 C64 1_555 1_555
H88 C65 1_555 1_555
C66 S1 1_555 1_555
C67 C66 1_555 1_555
C68 N3 1_555 1_555
C69 C70 1_555 1_555
C70 H89 1_555 1_555
C71 C70 1_555 1_555
H90 C71 1_555 1_555
C72 C71 1_555 1_555
C73 C72 1_555 1_555
H91 C73 1_555 1_555
C74 C69 1_555 1_555
C75 C74 1_555 1_555
H92 C75 1_555 1_555
H93 C75 1_555 1_555
H94 C75 1_555 1_555
C76 H95 1_555 1_555
H96 C76 1_555 1_555
H97 C76 1_555 1_555
C77 C76 1_555 1_555
C78 C77 1_555 1_555
H98 C78 1_555 1_555
C79 C72 1_555 1_555
C80 C79 1_555 1_555
H99 C80 1_555 1_555
C81 C80 1_555 1_555
H100 C81 1_555 1_555
C82 N5 1_555 1_555
C83 C84 1_555 1_555
C85 S3 1_555 1_555
C86 C85 1_555 1_555
H101 C86 1_555 1_555
C87 C86 1_555 1_555
C88 C87 1_555 1_555
H102 C88 1_555 1_555
C89 S4 1_555 1_555
C90 C89 1_555 1_555
H103 C90 1_555 1_555
C91 C90 1_555 1_555
H104 C91 1_555 1_555
C92 C83 1_555 1_555
Na1 O3 1_555 1_555
Na2 O15 1_555 1_555
S5 O27 1_555 1_555
O27 Na2 1_555 1_555
C93 S5 1_555 1_555
C94 S5 1_555 1_555
S6 O28 1_555 1_555
O28 Na2 1_555 1_555
C95 S6 1_555 1_555
C96 S6 1_555 1_555
S7 O29 1_555 1_555
C97 S7 1_555 1_555
C98 S7 1_555 1_555
S8 O30 1_555 1_555
C99 S8 1_555 1_555
C100 S8 1_555 1_555
S9 O31 1_555 1_555
C101 S9 1_555 1_555
C102 S9 1_555 1_555
O14_2 Na2 1_555 1_555
C84_2 C85 1_555 1_555
C83_2 C84_2 1_555 1_555
N6_2 C83_2 1_555 1_555
N5_2 N6_2 1_555 1_555
C82_2 N5_2 1_555 1_555
C77_2 C82_2 1_555 1_555
C76_2 C77_2 1_555 1_555
H95_2 C76_2 1_555 1_555
H96_2 C76_2 1_555 1_555
H97_2 C76_2 1_555 1_555
C78_2 C77_2 1_555 1_555
H98_2 C78_2 1_555 1_555
C79_2 C78_2 1_555 1_555
C72_2 C79_2 1_555 1_555
C71_2 C72_2 1_555 1_555
C70_2 C71_2 1_555 1_555
C69_2 C70_2 1_555 1_555
N4_2 C69_2 1_555 1_555
N3_2 N4_2 1_555 1_555
C68_2 N3_2 1_555 1_555
C59_2 C68_2 1_555 1_555
C60_2 C59_2 1_555 1_555
H85_2 C60_2 1_555 1_555
C61_2 C60_2 1_555 1_555
H86_2 C61_2 1_555 1_555
C62_2 C61_2 1_555 1_555
S2_2 C62_2 1_555 1_555
O18_2 S2_2 1_555 1_555
O19_2 S2_2 1_555 1_555
O20_2 S2_2 1_555 1_555
C63_2 C62_2 1_555 1_555
H87_2 C63_2 1_555 1_555
C64_2 C59_2 1_555 1_555
C65_2 C64_2 1_555 1_555
H88_2 C65_2 1_555 1_555
C66_2 C65_2 1_555 1_555
S1_2 C66_2 1_555 1_555
O15_2 S1_2 1_555 1_555
Na1_2 O15_2 1_555 1_555
O3_2 Na1_2 1_555 1_555
C25_2 O3_2 1_555 1_555
C24_2 C25_2 1_555 1_555
O10_2 Na1_2 1_555 1_555
C52_2 O10_2 1_555 1_555
H66_2 C52_2 1_555 1_555
H67_2 C52_2 1_555 1_555
H68_2 C52_2 1_555 1_555
O13_2 Na1_2 1_555 1_555
C67_2 C68_2 1_555 1_555
O17_2 S1_2 1_555 1_555
O16_2 S1_2 1_555 1_555
O22_2 Na1_2 1_555 1_555
S3_2 O22_2 1_555 1_555
O21_2 S3_2 1_555 1_555
Na2_2 O15_2 1_555 1_555
O14_3 Na2_2 1_555 1_555
O27_2 Na2_2 1_555 1_555
S5_2 O27_2 1_555 1_555
C93_2 S5_2 1_555 1_555
C94_2 S5_2 1_555 1_555
O28_2 Na2_2 1_555 1_555
S6_2 O28_2 1_555 1_555
C95_2 S6_2 1_555 1_555
C96_2 S6_2 1_555 1_555
O23_2 S3_2 1_555 1_555
C85_2 S3_2 1_555 1_555
C84_3 O14_3 1_555 1_555
C83_3 C84_3 1_555 1_555
N6_3 C83_3 1_555 1_555
N5_3 N6_3 1_555 1_555
C82_3 N5_3 1_555 1_555
C77_3 C82_3 1_555 1_555
C76_3 C77_3 1_555 1_555
H95_3 C76_3 1_555 1_555
H96_3 C76_3 1_555 1_555
H97_3 C76_3 1_555 1_555
C78_3 C77_3 1_555 1_555
H98_3 C78_3 1_555 1_555
C79_3 C78_3 1_555 1_555
C72_3 C79_3 1_555 1_555
C71_3 C72_3 1_555 1_555
C70_3 C71_3 1_555 1_555
C69_3 C70_3 1_555 1_555
N4_3 C69_3 1_555 1_555
N3_3 N4_3 1_555 1_555
C68_3 N3_3 1_555 1_555
C59_3 C68_3 1_555 1_555
C60_3 C59_3 1_555 1_555
H85_3 C60_3 1_555 1_555
C61_3 C60_3 1_555 1_555
H86_3 C61_3 1_555 1_555
C62_3 C61_3 1_555 1_555
S2_3 C62_3 1_555 1_555
O18_3 S2_3 1_555 1_555
O19_3 S2_3 1_555 1_555
O20_3 S2_3 1_555 1_555
C63_3 C62_3 1_555 1_555
H87_3 C63_3 1_555 1_555
C64_3 C59_3 1_555 1_555
C65_3 C64_3 1_555 1_555
H88_3 C65_3 1_555 1_555
C66_3 C65_3 1_555 1_555
S1_3 C66_3 1_555 1_555
O15_3 S1_3 1_555 1_555
Na1_3 O15_3 1_555 1_555
O3_3 Na1_3 1_555 1_555
C25_3 O3_3 1_555 1_555
C24_3 C25_3 1_555 1_555
O10_3 Na1_3 1_555 1_555
C52_3 O10_3 1_555 1_555
H66_3 C52_3 1_555 1_555
H67_3 C52_3 1_555 1_555
H68_3 C52_3 1_555 1_555
O13_3 Na1_3 1_555 1_555
C67_3 C68_3 1_555 1_555
O17_3 S1_3 1_555 1_555
O16_3 S1_3 1_555 1_555
O22_3 Na1_3 1_555 1_555
S3_3 O22_3 1_555 1_555
O21_3 S3_3 1_555 1_555
Na2_3 O15_3 1_555 1_555
O14_4 Na2_3 1_555 1_555
O27_3 Na2_3 1_555 1_555
S5_3 O27_3 1_555 1_555
C93_3 S5_3 1_555 1_555
C94_3 S5_3 1_555 1_555
O28_3 Na2_3 1_555 1_555
S6_3 O28_3 1_555 1_555
C95_3 S6_3 1_555 1_555
C96_3 S6_3 1_555 1_555
O23_3 S3_3 1_555 1_555
C85_3 S3_3 1_555 1_555
C84_4 O14_4 1_555 1_555
C86_2 C85_3 1_555 1_555
H101_2 C86_2 1_555 1_555
C87_2 C86_2 1_555 1_555
C88_2 C87_2 1_555 1_555
H102_2 C88_2 1_555 1_555
C89_2 C88_2 1_555 1_555
S4_2 C89_2 1_555 1_555
O24_2 S4_2 1_555 1_555
O25_2 S4_2 1_555 1_555
O26_2 S4_2 1_555 1_555
C90_2 C89_2 1_555 1_555
H103_2 C90_2 1_555 1_555
C91_2 C90_2 1_555 1_555
H104_2 C91_2 1_555 1_555
C92_2 C87_2 1_555 1_555
C83_4 C84_4 1_555 1_555
N6_4 C83_4 1_555 1_555
N5_4 N6_4 1_555 1_555
C82_4 N5_4 1_555 1_555
C77_4 C82_4 1_555 1_555
C76_4 C77_4 1_555 1_555
H95_4 C76_4 1_555 1_555
H96_4 C76_4 1_555 1_555
H97_4 C76_4 1_555 1_555
C78_4 C77_4 1_555 1_555
H98_4 C78_4 1_555 1_555
C79_4 C78_4 1_555 1_555
C72_4 C79_4 1_555 1_555
C71_4 C72_4 1_555 1_555
C70_4 C71_4 1_555 1_555
C69_4 C70_4 1_555 1_555
N4_4 C69_4 1_555 1_555
N3_4 N4_4 1_555 1_555
C68_4 N3_4 1_555 1_555
C59_4 C68_4 1_555 1_555
C60_4 C59_4 1_555 1_555
H85_4 C60_4 1_555 1_555
C61_4 C60_4 1_555 1_555
H86_4 C61_4 1_555 1_555
C62_4 C61_4 1_555 1_555
S2_4 C62_4 1_555 1_555
O18_4 S2_4 1_555 1_555
O19_4 S2_4 1_555 1_555
O20_4 S2_4 1_555 1_555
C63_4 C62_4 1_555 1_555
H87_4 C63_4 1_555 1_555
C64_4 C59_4 1_555 1_555
C65_4 C64_4 1_555 1_555
H88_4 C65_4 1_555 1_555
C66_4 C65_4 1_555 1_555
C67_4 C68_4 1_555 1_555
C74_2 C69_4 1_555 1_555
C73_2 C72_4 1_555 1_555
H91_2 C73_2 1_555 1_555
C75_2 C74_2 1_555 1_555
H92_2 C75_2 1_555 1_555
H93_2 C75_2 1_555 1_555
H94_2 C75_2 1_555 1_555
H89_2 C70_4 1_555 1_555
H90_2 C71_4 1_555 1_555
C80_2 C79_4 1_555 1_555
H99_2 C80_2 1_555 1_555
C81_2 C82_4 1_555 1_555
H100_2 C81_2 1_555 1_555
C23_2 C24_3 1_555 1_555
C22_2 C23_2 1_555 1_555
C17_2 C22_2 1_555 1_555
C14_2 C17_2 1_555 1_555
C13_2 C14_2 1_555 1_555
C12_2 C13_2 1_555 1_555
O8_2 C12_2 1_555 1_555
C46_2 O8_2 1_555 1_555
H50_2 C46_2 1_555 1_555
H51_2 C46_2 1_555 1_555
H52_2 C46_2 1_555 1_555
C11_2 C12_2 1_555 1_555
O2_2 C11_2 1_555 1_555
C10_2 O2_2 1_555 1_555
C9_2 C10_2 1_555 1_555
C8_2 C9_2 1_555 1_555
C7_2 C8_2 1_555 1_555
O1_2 C7_2 1_555 1_555
C4_2 O1_2 1_555 1_555
C3_2 C4_2 1_555 1_555
O6_2 C3_2 1_555 1_555
C44_2 O6_2 1_555 1_555
H44_2 C44_2 1_555 1_555
H45_2 C44_2 1_555 1_555
H46_2 C44_2 1_555 1_555
C2_2 C3_2 1_555 1_555
C1_2 C2_2 1_555 1_555
C6_2 C1_2 1_555 1_555
C5_2 C4_2 1_555 1_555
O5_2 C5_2 1_555 1_555
C43_2 O5_2 1_555 1_555
H41_2 C43_2 1_555 1_555
H42_2 C43_2 1_555 1_555
H43_2 C43_2 1_555 1_555
H2_2 C6_2 1_555 1_555
C38_2 C1_2 1_555 1_555
C35_2 C38_2 1_555 1_555
C34_2 C35_2 1_555 1_555
C33_2 C34_2 1_555 1_555
O12_2 C33_2 1_555 1_555
C54_2 O12_2 1_555 1_555
H72_2 C54_2 1_555 1_555
H73_2 C54_2 1_555 1_555
H74_2 C54_2 1_555 1_555
C32_2 C33_2 1_555 1_555
O4_2 C32_2 1_555 1_555
C31_2 O4_2 1_555 1_555
C30_2 C31_2 1_555 1_555
C29_2 C30_2 1_555 1_555
C28_2 O3_3 1_555 1_555
H23_2 C28_2 1_555 1_555
H24_2 C28_2 1_555 1_555
H25_2 C29_2 1_555 1_555
H26_2 C29_2 1_555 1_555
H27_2 C30_2 1_555 1_555
H28_2 C30_2 1_555 1_555
H29_2 C31_2 1_555 1_555
H30_2 C31_2 1_555 1_555
C37_2 C32_2 1_555 1_555
O11_2 C37_2 1_555 1_555
C53_2 O11_2 1_555 1_555
H69_2 C53_2 1_555 1_555
H70_2 C53_2 1_555 1_555
H71_2 C53_2 1_555 1_555
C36_2 C35_2 1_555 1_555
H32_2 C36_2 1_555 1_555
H31_2 C34_2 1_555 1_555
C39_2 C38_2 1_555 1_555
H33_2 C39_2 1_555 1_555
H34_2 C39_2 1_555 1_555
C40_2 C39_2 1_555 1_555
N1_2 C40_2 1_555 1_555
C41_2 N1_2 1_555 1_555
H37_2 C41_2 1_555 1_555
H38_2 C41_2 1_555 1_555
C42_2 C38_2 1_555 1_555
H39_2 C42_2 1_555 1_555
H40_2 C42_2 1_555 1_555
C55_2 N1_2 1_555 1_555
H75_2 C55_2 1_555 1_555
H76_2 C55_2 1_555 1_555
C56_2 C55_2 1_555 1_555
H77_2 C56_2 1_555 1_555
H78_2 C56_2 1_555 1_555
H79_2 C56_2 1_555 1_555
C57_2 N1_2 1_555 1_555
H80_2 C57_2 1_555 1_555
H81_2 C57_2 1_555 1_555
C58_2 C57_2 1_555 1_555
H82_2 C58_2 1_555 1_555
H83_2 C58_2 1_555 1_555
H84_2 C58_2 1_555 1_555
H35_2 C40_2 1_555 1_555
H36_2 C40_2 1_555 1_555
H1_2 C2_2 1_555 1_555
H3_2 C7_2 1_555 1_555
H4_2 C7_2 1_555 1_555
H5_2 C8_2 1_555 1_555
H6_2 C8_2 1_555 1_555
H7_2 C9_2 1_555 1_555
H8_2 C9_2 1_555 1_555
H9_2 C10_2 1_555 1_555
H10_2 C10_2 1_555 1_555
C16_2 C11_2 1_555 1_555
O7_2 C16_2 1_555 1_555
C45_2 O7_2 1_555 1_555
H47_2 C45_2 1_555 1_555
H48_2 C45_2 1_555 1_555
H49_2 C45_2 1_555 1_555
C15_2 C14_2 1_555 1_555
H12_2 C15_2 1_555 1_555
H11_2 C13_2 1_555 1_555
C18_2 C17_2 1_555 1_555
H13_2 C18_2 1_555 1_555
H14_2 C18_2 1_555 1_555
C19_2 C18_2 1_555 1_555
N2_2 C19_2 1_555 1_555
C20_2 N2_2 1_555 1_555
H17_2 C20_2 1_555 1_555
H18_2 C20_2 1_555 1_555
C21_2 C17_2 1_555 1_555
H19_2 C21_2 1_555 1_555
H20_2 C21_2 1_555 1_555
C47_2 N2_2 1_555 1_555
H53_2 C47_2 1_555 1_555
H54_2 C47_2 1_555 1_555
C48_2 C47_2 1_555 1_555
H55_2 C48_2 1_555 1_555
H56_2 C48_2 1_555 1_555
H57_2 C48_2 1_555 1_555
H15_2 C19_2 1_555 1_555
H16_2 C19_2 1_555 1_555
C27_2 C22_2 1_555 1_555
C26_2 C25_3 1_555 1_555
O9_2 C26_2 1_555 1_555
C51_2 O9_2 1_555 1_555
H63_2 C51_2 1_555 1_555
H64_2 C51_2 1_555 1_555
H65_2 C51_2 1_555 1_555
H22_2 C27_2 1_555 1_555
H21_2 C23_2 1_555 1_555
C74_3 C69_3 1_555 1_555
C73_3 C72_3 1_555 1_555
H91_3 C73_3 1_555 1_555
C75_3 C74_3 1_555 1_555
H92_3 C75_3 1_555 1_555
H93_3 C75_3 1_555 1_555
H94_3 C75_3 1_555 1_555
H89_3 C70_3 1_555 1_555
H90_3 C71_3 1_555 1_555
C80_3 C79_3 1_555 1_555
H99_3 C80_3 1_555 1_555
C81_3 C82_3 1_555 1_555
H100_3 C81_3 1_555 1_555
C92_3 C83_3 1_555 1_555
C87_3 C92_3 1_555 1_555
C91_3 C92_3 1_555 1_555
C86_3 C85_2 1_555 1_555
H101_3 C86_3 1_555 1_555
C23_3 C24_2 1_555 1_555
C22_3 C23_3 1_555 1_555
C17_3 C22_3 1_555 1_555
C14_3 C17_3 1_555 1_555
C13_3 C14_3 1_555 1_555
C12_3 C13_3 1_555 1_555
O8_3 C12_3 1_555 1_555
C46_3 O8_3 1_555 1_555
H50_3 C46_3 1_555 1_555
H51_3 C46_3 1_555 1_555
H52_3 C46_3 1_555 1_555
C11_3 C12_3 1_555 1_555
O2_3 C11_3 1_555 1_555
C10_3 O2_3 1_555 1_555
C9_3 C10_3 1_555 1_555
C8_3 C9_3 1_555 1_555
C7_3 C8_3 1_555 1_555
O1_3 C7_3 1_555 1_555
C4_3 O1_3 1_555 1_555
C3_3 C4_3 1_555 1_555
O6_3 C3_3 1_555 1_555
C44_3 O6_3 1_555 1_555
H44_3 C44_3 1_555 1_555
H45_3 C44_3 1_555 1_555
H46_3 C44_3 1_555 1_555
C2_3 C3_3 1_555 1_555
C1_3 C2_3 1_555 1_555
C6_3 C1_3 1_555 1_555
C5_3 C4_3 1_555 1_555
O5_3 C5_3 1_555 1_555
C43_3 O5_3 1_555 1_555
H41_3 C43_3 1_555 1_555
H42_3 C43_3 1_555 1_555
H43_3 C43_3 1_555 1_555
H2_3 C6_3 1_555 1_555
C38_3 C1_3 1_555 1_555
C35_3 C38_3 1_555 1_555
C34_3 C35_3 1_555 1_555
C33_3 C34_3 1_555 1_555
O12_3 C33_3 1_555 1_555
C54_3 O12_3 1_555 1_555
H72_3 C54_3 1_555 1_555
H73_3 C54_3 1_555 1_555
H74_3 C54_3 1_555 1_555
C32_3 C33_3 1_555 1_555
O4_3 C32_3 1_555 1_555
C31_3 O4_3 1_555 1_555
C30_3 C31_3 1_555 1_555
C29_3 C30_3 1_555 1_555
C28_3 O3_2 1_555 1_555
H23_3 C28_3 1_555 1_555
H24_3 C28_3 1_555 1_555
H25_3 C29_3 1_555 1_555
H26_3 C29_3 1_555 1_555
H27_3 C30_3 1_555 1_555
H28_3 C30_3 1_555 1_555
H29_3 C31_3 1_555 1_555
H30_3 C31_3 1_555 1_555
C37_3 C32_3 1_555 1_555
O11_3 C37_3 1_555 1_555
C53_3 O11_3 1_555 1_555
H69_3 C53_3 1_555 1_555
H70_3 C53_3 1_555 1_555
H71_3 C53_3 1_555 1_555
C36_3 C35_3 1_555 1_555
H32_3 C36_3 1_555 1_555
H31_3 C34_3 1_555 1_555
C39_3 C38_3 1_555 1_555
H33_3 C39_3 1_555 1_555
H34_3 C39_3 1_555 1_555
C40_3 C39_3 1_555 1_555
N1_3 C40_3 1_555 1_555
C41_3 N1_3 1_555 1_555
H37_3 C41_3 1_555 1_555
H38_3 C41_3 1_555 1_555
C42_3 C38_3 1_555 1_555
H39_3 C42_3 1_555 1_555
H40_3 C42_3 1_555 1_555
C55_3 N1_3 1_555 1_555
H75_3 C55_3 1_555 1_555
H76_3 C55_3 1_555 1_555
C56_3 C55_3 1_555 1_555
H77_3 C56_3 1_555 1_555
H78_3 C56_3 1_555 1_555
H79_3 C56_3 1_555 1_555
C57_3 N1_3 1_555 1_555
H80_3 C57_3 1_555 1_555
H81_3 C57_3 1_555 1_555
C58_3 C57_3 1_555 1_555
H82_3 C58_3 1_555 1_555
H83_3 C58_3 1_555 1_555
H84_3 C58_3 1_555 1_555
H35_3 C40_3 1_555 1_555
H36_3 C40_3 1_555 1_555
H1_3 C2_3 1_555 1_555
H3_3 C7_3 1_555 1_555
H4_3 C7_3 1_555 1_555
H5_3 C8_3 1_555 1_555
H6_3 C8_3 1_555 1_555
H7_3 C9_3 1_555 1_555
H8_3 C9_3 1_555 1_555
H9_3 C10_3 1_555 1_555
H10_3 C10_3 1_555 1_555
C16_3 C11_3 1_555 1_555
O7_3 C16_3 1_555 1_555
C45_3 O7_3 1_555 1_555
H47_3 C45_3 1_555 1_555
H48_3 C45_3 1_555 1_555
H49_3 C45_3 1_555 1_555
C15_3 C14_3 1_555 1_555
H12_3 C15_3 1_555 1_555
H11_3 C13_3 1_555 1_555
C18_3 C17_3 1_555 1_555
H13_3 C18_3 1_555 1_555
H14_3 C18_3 1_555 1_555
C19_3 C18_3 1_555 1_555
N2_3 C19_3 1_555 1_555
C20_3 N2_3 1_555 1_555
H17_3 C20_3 1_555 1_555
H18_3 C20_3 1_555 1_555
C21_3 C17_3 1_555 1_555
H19_3 C21_3 1_555 1_555
H20_3 C21_3 1_555 1_555
C47_3 N2_3 1_555 1_555
H53_3 C47_3 1_555 1_555
H54_3 C47_3 1_555 1_555
C48_3 C47_3 1_555 1_555
H55_3 C48_3 1_555 1_555
H56_3 C48_3 1_555 1_555
H57_3 C48_3 1_555 1_555
H15_3 C19_3 1_555 1_555
H16_3 C19_3 1_555 1_555
C27_3 C22_3 1_555 1_555
C26_3 C25_2 1_555 1_555
O9_3 C26_3 1_555 1_555
C51_3 O9_3 1_555 1_555
H63_3 C51_3 1_555 1_555
H64_3 C51_3 1_555 1_555
H65_3 C51_3 1_555 1_555
H22_3 C27_3 1_555 1_555
H21_3 C23_3 1_555 1_555
C74_4 C69_2 1_555 1_555
C73_4 C72_2 1_555 1_555
H91_4 C73_4 1_555 1_555
C75_4 C74_4 1_555 1_555
H92_4 C75_4 1_555 1_555
H93_4 C75_4 1_555 1_555
H94_4 C75_4 1_555 1_555
H89_4 C70_2 1_555 1_555
H90_4 C71_2 1_555 1_555
C80_4 C79_2 1_555 1_555
H99_4 C80_4 1_555 1_555
C81_4 C82_2 1_555 1_555
H100_4 C81_4 1_555 1_555
C92_4 C87 1_555 1_555
O10 Na1 1_555 1_555
C5 C6 1_555 1_555
C15 C16 1_555 1_555
C20 C21 1_555 1_555
C26 C27 1_555 1_555
C35 C38 1_555 1_555
C36 C37 1_555 1_555
C41 C42 1_555 1_555
O13 Na1 1_555 1_555
O17 Na1 1_555 1_555
O22 Na1 1_555 1_555
C59 C68 1_555 1_555
C61 C62 1_555 1_555
C63 C64 1_555 1_555
C65 C66 1_555 1_555
C67 C68 1_555 1_555
C73 C74 1_555 1_555
C77 C82 1_555 1_555
C78 C79 1_555 1_555
C81 C82 1_555 1_555
C88 C89 1_555 1_555
C91 C92_4 1_555 1_555
O14_2 C84_2 1_555 1_555
C83_2 C92_4 1_555 1_555
C63_2 C64_2 1_555 1_555
C66_2 C67_2 1_555 1_555
Na1_2 O17_2 1_555 1_555
C24_2 O10_2 1_555 1_555
O13_2 C67_2 1_555 1_555
O21_2 Na2_2 1_555 1_555
C85_2 C84_3 1_555 1_555
C63_3 C64_3 1_555 1_555
C66_3 C67_3 1_555 1_555
Na1_3 O17_3 1_555 1_555
C24_3 O10_3 1_555 1_555
O13_3 C67_3 1_555 1_555
O21_3 Na2_3 1_555 1_555
C85_3 C84_4 1_555 1_555
C91_2 C92_2 1_555 1_555
C92_2 C83_4 1_555 1_555
C63_4 C64_4 1_555 1_555
C66_4 C67_4 1_555 1_555
C74_2 C73_2 1_555 1_555
C80_2 C81_2 1_555 1_555
C6_2 C5_2 1_555 1_555
C29_2 C28_2 1_555 1_555
C37_2 C36_2 1_555 1_555
C41_2 C42_2 1_555 1_555
C16_2 C15_2 1_555 1_555
C20_2 C21_2 1_555 1_555
C27_2 C26_2 1_555 1_555
C74_3 C73_3 1_555 1_555
C80_3 C81_3 1_555 1_555
C87_3 C86_3 1_555 1_555
C6_3 C5_3 1_555 1_555
C29_3 C28_3 1_555 1_555
C37_3 C36_3 1_555 1_555
C41_3 C42_3 1_555 1_555
C16_3 C15_3 1_555 1_555
C20_3 C21_3 1_555 1_555
C27_3 C26_3 1_555 1_555
C74_4 C73_4 1_555 1_555
C80_4 C81_4 1_555 1_555

#END
