
#######################################################################
#
#                 Cambridge Crystallographic Data Centre
#                                CCDC 
#
#######################################################################
#
# If this CIF has been generated from an entry in the Cambridge 
# Structural Database, then it will include bibliographic, chemical, 
# crystal, experimental, refinement or atomic coordinate data resulting 
# from the CCDC's data processing and validation procedures.
#
#######################################################################

data_SIWYUS
_symmetry_cell_setting           orthorhombic
_symmetry_space_group_name_H-M   'P 21 21 21'
_symmetry_Int_Tables_number      19
_space_group_name_Hall           'P 2ac 2ab'
loop_
_symmetry_equiv_pos_site_id
_symmetry_equiv_pos_as_xyz
1 x,y,z
2 1/2+x,1/2-y,-z
3 -x,1/2+y,1/2-z
4 1/2-x,-y,1/2+z
_cell_length_a                   11.357(1)
_cell_length_b                   24.304(2)
_cell_length_c                   7.317(4)
_cell_angle_alpha                90
_cell_angle_beta                 90
_cell_angle_gamma                90
_cell_volume                     2019.64
loop_
_atom_site_label
_atom_site_type_symbol
_atom_site_fract_x
_atom_site_fract_y
_atom_site_fract_z
Cu1 Cu -0.11042(4) 0.04283(2) 0.02540(7)
Cu2 Cu 0.02250(4) 0.14799(2) 0.02105(6)
O1 O -0.2301(2) 0.0072(1) 0.1747(4)
C1 C -0.2230(3) -0.0449(2) 0.1814(5)
O2 O -0.2879(3) -0.0745(1) 0.2741(4)
C2 C -0.1252(4) -0.0715(2) 0.0714(6)
N1 N -0.0802(3) -0.0325(1) -0.0659(4)
C3 C 0.0443(3) -0.0410(2) -0.1217(6)
C4 C 0.0770(3) -0.0020(3) -0.2704(6)
C5 C 0.1098(4) -0.0203(2) -0.4424(6)
C6 C 0.1426(4) 0.0155(2) -0.5777(6)
C7 C 0.1415(4) 0.0714(2) -0.5444(7)
C8 C 0.1074(4) 0.0911(2) -0.3740(6)
C9 C 0.0740(3) 0.0552(3) -0.2375(5)
O3 O 0.0375(2) 0.0730(1) -0.0710(4)
O4 O 0.1862(2) 0.1688(1) -0.0061(5)
C10 C 0.2179(3) 0.2105(2) 0.0870(6)
O5 O 0.3204(2) 0.2274(1) 0.0969(5)
C11 C 0.1248(4) 0.2397(2) 0.1963(6)
N2 N 0.0053(3) 0.2185(1) 0.1580(4)
C12 C -0.0682(4) 0.2120(2) 0.3247(6)
C13 C -0.1917(3) 0.1952(2) 0.2781(5)
C14 C -0.2870(4) 0.2282(2) 0.3199(6)
C15 C -0.4000(4) 0.2140(2) 0.2739(6)
C16 C -0.4187(4) 0.1660(2) 0.1766(6)
C17 C -0.3248(3) 0.1319(2) 0.1314(6)
C18 C -0.2107(3) 0.1462(2) 0.1814(5)
O6 O -0.1169(2) 0.1148(1) 0.1379(4)
O7 O -0.0899(2) 0.1757(1) -0.2264(4)
H1 H -0.156 -0.104 0.010
H2 H -0.063 -0.083 0.149
H3 H -0.139 -0.027 -0.168
H4 H 0.056 -0.079 -0.163
H5 H 0.095 -0.036 -0.018
H6 H 0.111 -0.060 -0.466
H7 H 0.166 0.002 -0.695
H8 H 0.162 0.098 -0.642
H9 H 0.109 0.130 -0.348
H10 H 0.127 0.279 0.169
H11 H 0.140 0.235 0.324
H12 H -0.034(3) 0.238(1) 0.095(5)
H13 H -0.034 0.186 0.402
H14 H -0.071 0.247 0.389
H15 H -0.276 0.263 0.384
H16 H -0.464 0.238 0.309
H17 H -0.498 0.157 0.141
H18 H -0.340 0.098 0.066
H19 H -0.123(3) 0.151(2) -0.235(5)
H20 H -0.139(4) 0.202(2) -0.201(6)
O2C O -0.2121(3) 0.0745(1) -0.2259(4)
Cu1C Cu -0.38958(4) -0.04283(2) 0.52540(7)
O8 O 0.3848(4) 0.1420(2) -0.2473(7)
H21 H 0.335(5) 0.151(2) -0.174(8)
loop_
_geom_bond_atom_site_label_1
_geom_bond_atom_site_label_2
_geom_bond_site_symmetry_1
_geom_bond_site_symmetry_2
Cu1 O1 1_555 1_555
Cu2 O3 1_555 1_555
O1 C1 1_555 1_555
C1 O2 1_555 1_555
O2 Cu1C 1_555 1_555
C2 C1 1_555 1_555
N1 Cu1 1_555 1_555
C3 N1 1_555 1_555
C4 C3 1_555 1_555
C5 C4 1_555 1_555
C6 C5 1_555 1_555
C7 C6 1_555 1_555
C8 C7 1_555 1_555
C9 C4 1_555 1_555
O3 Cu1 1_555 1_555
O4 Cu2 1_555 1_555
C10 O4 1_555 1_555
O5 C10 1_555 1_555
C11 C10 1_555 1_555
N2 Cu2 1_555 1_555
C12 N2 1_555 1_555
C13 C12 1_555 1_555
C14 C13 1_555 1_555
C15 C14 1_555 1_555
C16 C15 1_555 1_555
C17 C16 1_555 1_555
C18 C13 1_555 1_555
O6 Cu1 1_555 1_555
O7 Cu2 1_555 1_555
O8 H21 1_555 1_555
H1 C2 1_555 1_555
H2 C2 1_555 1_555
H3 N1 1_555 1_555
H4 C3 1_555 1_555
H5 C3 1_555 1_555
H6 C5 1_555 1_555
H7 C6 1_555 1_555
H8 C7 1_555 1_555
H9 C8 1_555 1_555
H10 C11 1_555 1_555
H11 C11 1_555 1_555
H12 N2 1_555 1_555
H13 C12 1_555 1_555
H14 C12 1_555 1_555
H15 C14 1_555 1_555
H16 C15 1_555 1_555
H17 C16 1_555 1_555
H18 C17 1_555 1_555
H19 O7 1_555 1_555
H20 O7 1_555 1_555
O2C Cu1 1_555 1_555
Cu2 O6 1_555 1_555
C2 N1 1_555 1_555
C8 C9 1_555 1_555
C9 O3 1_555 1_555
C11 N2 1_555 1_555
C17 C18 1_555 1_555
C18 O6 1_555 1_555

#END
