
#######################################################################
#
#                 Cambridge Crystallographic Data Centre
#                                CCDC 
#
#######################################################################
#
# If this CIF has been generated from an entry in the Cambridge 
# Structural Database, then it will include bibliographic, chemical, 
# crystal, experimental, refinement or atomic coordinate data resulting 
# from the CCDC's data processing and validation procedures.
#
#######################################################################

data_SIWZOO
_symmetry_cell_setting           triclinic
_symmetry_space_group_name_H-M   'P -1'
_symmetry_Int_Tables_number      2
_space_group_name_Hall           '-P 1'
loop_
_symmetry_equiv_pos_site_id
_symmetry_equiv_pos_as_xyz
1 x,y,z
2 -x,-y,-z
_cell_length_a                   9.1548(13)
_cell_length_b                   10.608
_cell_length_c                   13.9983(15)
_cell_angle_alpha                87.522(8)
_cell_angle_beta                 87.047(14)
_cell_angle_gamma                85.500(11)
_cell_volume                     1352.39
loop_
_atom_site_label
_atom_site_type_symbol
_atom_site_fract_x
_atom_site_fract_y
_atom_site_fract_z
K1 K 0.69026(15) 0.08164(14) 0.22408(11)
Bi1 Bi 1.0000 0.0000 0.0000
Bi2 Bi 0.5000 0.0000 0.5000
Cl1 Cl 0.50382(16) 0.22856(14) 0.39995(13)
Cl2 Cl 0.49827(17) -0.11379(14) 0.33166(12)
Cl3 Cl 0.79477(17) -0.01787(16) 0.49286(14)
Cl4 Cl 0.97197(16) -0.11441(14) 0.17534(11)
Cl5 Cl 1.01155(16) -0.23186(15) -0.07977(13)
Cl6 Cl 0.70472(17) 0.02294(16) 0.00132(13)
O1 O 0.6696(5) 0.3247(4) 0.1164(4)
O3 O 0.4087(4) 0.1563(4) 0.1556(3)
O5 O 0.9084(4) 0.1764(4) 0.3337(3)
N2 N 0.3878(5) 0.4125(5) 0.1437(4)
C2 C 0.4489(7) 0.6288(5) 0.1233(4)
C5 C 0.5518(7) 0.7143(6) 0.1029(5)
H5 H 0.5244 0.8006 0.0982
C8 C 0.2494(7) 0.4490(7) 0.1557(5)
H7 H 0.1812 0.3886 0.1657
C9 C 0.6392(6) 0.4537(5) 0.1116(4)
C10 C 0.2997(8) 0.6655(7) 0.1374(5)
H8 H 0.2681 0.7511 0.1354
C13 C 0.4906(7) 0.4963(5) 0.1267(4)
C14 C 0.6978(8) 0.6696(6) 0.0894(5)
H10 H 0.7685 0.7274 0.0779
C17 C 0.7417(8) 0.5405(6) 0.0928(5)
H13 H 0.8401 0.5133 0.0823
C18 C 0.2011(8) 0.5783(7) 0.1539(5)
H14 H 0.1020 0.6033 0.1640
H15 H 0.409(6) 0.318(6) 0.153(4)
K1A K 0.30974(15) -0.08164(14) 0.77592(11)
Bi1_2 Bi 0.0000 0.0000 1.0000
Cl1A Cl 0.49618(16) -0.22856(14) 0.60005(13)
Cl2A Cl 0.50173(17) 0.11379(14) 0.66834(12)
Cl3A Cl 0.20523(17) 0.01787(16) 0.50714(14)
Cl4A Cl 1.02803(16) 0.11441(14) -0.17534(11)
Cl4A_2 Cl 0.02803(16) 0.11441(14) 0.82466(11)
Cl5A Cl 0.98845(16) 0.23186(15) 0.07977(13)
Cl6A Cl 1.29528(17) -0.02294(16) -0.00132(13)
Cl6A_2 Cl 0.29528(17) -0.02294(16) 0.99868(13)
O1A O 0.3304(5) -0.3247(4) 0.8836(4)
O3A O 0.5913(4) -0.1563(4) 0.8444(3)
O5A O 0.0916(4) -0.1764(4) 0.6663(3)
N2A N 0.6122(5) -0.4125(5) 0.8563(4)
C2A C 0.5511(7) -0.6288(5) 0.8767(4)
C5A C 0.4482(7) -0.7143(6) 0.8971(5)
H5A H 0.4756 -0.8006 0.9018
C8A C 0.7506(7) -0.4490(7) 0.8443(5)
H7A H 0.8188 -0.3886 0.8343
C9A C 0.3608(6) -0.4537(5) 0.8884(4)
C10A C 0.7003(8) -0.6655(7) 0.8626(5)
H8A H 0.7319 -0.7511 0.8646
C13A C 0.5094(7) -0.4963(5) 0.8733(4)
C14A C 0.3022(8) -0.6696(6) 0.9106(5)
H10A H 0.2315 -0.7274 0.9221
C17A C 0.2583(8) -0.5405(6) 0.9072(5)
H13A H 0.1599 -0.5133 0.9177
C18A C 0.7989(8) -0.5783(7) 0.8461(5)
H14A H 0.8980 -0.6033 0.8360
H15A H 0.591(6) -0.318(6) 0.847(4)
O2 O 0.1858(5) 0.0600(4) 0.2728(4)
O4 O 0.1789(5) 0.3254(4) 0.3801(4)
H1 H 0.2647 0.3014 0.3890
N1 N -0.0976(5) 0.4267(5) 0.3556(4)
H2 H -0.0744 0.3469 0.3520
C1 C -0.2318(7) 0.4705(7) 0.3427(5)
H3 H -0.3014 0.4152 0.3295
C3 C -0.0293(7) 0.6374(5) 0.3807(4)
C4 C 0.2270(7) 0.6607(6) 0.4161(5)
H4 H 0.3000 0.7125 0.4297
C6 C 0.1591(7) 0.4542(5) 0.3899(4)
C7 C 0.0881(8) 0.7118(6) 0.4027(5)
H6 H 0.0684 0.7986 0.4080
C11 C -0.1722(8) 0.6821(6) 0.3667(5)
H9 H -0.2003 0.7681 0.3695
C12 C 0.0086(8) 0.5064(6) 0.3751(4)
C15 C -0.2723(7) 0.5979(6) 0.3485(5)
H11 H -0.3693 0.6272 0.3400
C16 C 0.2597(7) 0.5306(6) 0.4093(5)
H12 H 0.3549 0.4969 0.4188
loop_
_geom_bond_atom_site_label_1
_geom_bond_atom_site_label_2
_geom_bond_site_symmetry_1
_geom_bond_site_symmetry_2
K1 Cl1 1_555 1_555
Bi1 Cl4 1_555 1_555
Bi2 Cl1 1_555 1_555
Cl2 K1 1_555 1_555
Cl3 Bi2 1_555 1_555
Cl4 K1 1_555 1_555
Cl5 Bi1 1_555 1_555
Cl6 K1 1_555 1_555
O1 K1 1_555 1_555
O3 K1 1_555 1_555
O4 H1 1_555 1_555
O5 K1 1_555 1_555
N1 H2 1_555 1_555
N2 C8 1_555 1_555
C1 N1 1_555 1_555
H3 C1 1_555 1_555
C2 C5 1_555 1_555
C3 C7 1_555 1_555
C4 H4 1_555 1_555
C5 H5 1_555 1_555
C6 O4 1_555 1_555
C7 C4 1_555 1_555
H6 C7 1_555 1_555
C8 H7 1_555 1_555
C9 O1 1_555 1_555
C10 C2 1_555 1_555
H8 C10 1_555 1_555
C11 C3 1_555 1_555
H9 C11 1_555 1_555
C12 N1 1_555 1_555
C13 N2 1_555 1_555
C14 C5 1_555 1_555
H10 C14 1_555 1_555
C15 C1 1_555 1_555
H11 C15 1_555 1_555
C16 C4 1_555 1_555
H12 C16 1_555 1_555
C17 C9 1_555 1_555
H13 C17 1_555 1_555
C18 C8 1_555 1_555
H14 C18 1_555 1_555
H15 N2 1_555 1_555
K1A Cl1A 1_555 1_555
Bi1_2 Cl4A_2 1_555 1_555
Cl1A Bi2 1_555 1_555
Cl2A Bi2 1_555 1_555
Cl3A Bi2 1_555 1_555
Cl4A Bi1 1_555 1_555
Cl4A_2 K1A 1_555 1_555
Cl5A Bi1 1_555 1_555
Cl6A Bi1 1_555 1_555
Cl6A_2 K1A 1_555 1_555
O1A K1A 1_555 1_555
O3A K1A 1_555 1_555
O5A K1A 1_555 1_555
N2A C8A 1_555 1_555
C2A C5A 1_555 1_555
C5A H5A 1_555 1_555
C8A H7A 1_555 1_555
C9A O1A 1_555 1_555
C10A C2A 1_555 1_555
H8A C10A 1_555 1_555
C13A N2A 1_555 1_555
C14A C5A 1_555 1_555
H10A C14A 1_555 1_555
C17A C9A 1_555 1_555
H13A C17A 1_555 1_555
C18A C8A 1_555 1_555
H14A C18A 1_555 1_555
H15A N2A 1_555 1_555
Bi1 Cl6 1_555 1_555
Bi2 Cl2 1_555 1_555
C2 C13 1_555 1_555
C3 C12 1_555 1_555
C6 C12 1_555 1_555
C6 C16 1_555 1_555
C9 C13 1_555 1_555
C10 C18 1_555 1_555
C11 C15 1_555 1_555
C14 C17 1_555 1_555
K1A Cl2A 1_555 1_555
Bi1_2 Cl6A_2 1_555 1_555
C2A C13A 1_555 1_555
C9A C13A 1_555 1_555
C10A C18A 1_555 1_555
C14A C17A 1_555 1_555

#END
