
#######################################################################
#
#                 Cambridge Crystallographic Data Centre
#                                CCDC 
#
#######################################################################
#
# If this CIF has been generated from an entry in the Cambridge 
# Structural Database, then it will include bibliographic, chemical, 
# crystal, experimental, refinement or atomic coordinate data resulting 
# from the CCDC's data processing and validation procedures.
#
#######################################################################

data_SIWZUT
_symmetry_cell_setting           monoclinic
_symmetry_space_group_name_H-M   'P 21/n'
_symmetry_Int_Tables_number      14
_space_group_name_Hall           '-P 2yn'
loop_
_symmetry_equiv_pos_site_id
_symmetry_equiv_pos_as_xyz
1 x,y,z
2 1/2-x,1/2+y,1/2-z
3 -x,-y,-z
4 1/2+x,1/2-y,1/2+z
_cell_length_a                   12.014(4)
_cell_length_b                   8.910(5)
_cell_length_c                   22.749(5)
_cell_angle_alpha                90
_cell_angle_beta                 91.73(3)
_cell_angle_gamma                90
_cell_volume                     2434.05
loop_
_atom_site_label
_atom_site_type_symbol
_atom_site_fract_x
_atom_site_fract_y
_atom_site_fract_z
Eu1 Eu 0.50424(6) 0.40380(7) 0.42242(2)
O1 O 0.5564(8) 0.485(1) 0.3222(3)
O2 O 0.3365(7) 0.439(1) 0.3598(4)
O3 O 0.3857(7) 0.4694(8) 0.5024(3)
O4 O 0.3201(8) 0.264(1) 0.4635(4)
O5 O 0.3020(6) 0.642(1) 0.5966(3)
O6 O 0.4736(7) 0.6718(8) 0.4129(2)
O7 O 0.4461(7) 0.7714(8) 0.5025(4)
O8 O 0.4895(7) 1.1832(8) 0.3647(3)
N1 N 0.1705(9) 0.476(1) 0.5613(5)
N2 N 0.1534(9) 0.855(1) 0.6247(4)
C1 C 0.319(1) 0.362(1) 0.5016(4)
C2 C 0.240(1) 0.344(1) 0.5541(4)
C3 C 0.205(1) 0.608(1) 0.5847(5)
C4 C 0.107(1) 0.713(7) 0.5962(7)
N3 N 0.4355(9) 0.942(1) 0.3585(4)
N4 N 0.4560(9) 1.232(1) 0.2491(4)
C5 C 0.449(1) 0.779(1) 0.4461(5)
C6 C 0.414(1) 0.932(1) 0.4211(5)
C7 C 0.468(1) 1.072(1) 0.3356(4)
C8 C 0.480(1) 1.0740(1) 0.2697(5)
O3B O 0.6143(7) 0.5306(8) 0.4976(3)
Eu1B Eu 0.49576(6) 0.59620(7) 0.57758(2)
O7B O 0.5539(7) 0.2286(8) 0.4975(4)
O5B O 0.6980(6) 0.358(1) 0.4034(3)
O8_2 O 0.4895(7) 0.1832(8) 0.3647(3)
Eu1_2 Eu 0.50424(6) 1.40380(7) 0.42242(2)
Cl1 Cl 0.7520(3) 0.2858(4) 0.2176(2)
O9 O 0.724(1) 0.140(1) 0.1943(5)
O10 O 0.678(2) 0.391(2) 0.1936(8)
O11 O 0.859(2) 0.299(2) 0.2081(9)
O12 O 0.730(1) 0.287(2) 0.2775(7)
Cl2 Cl 0.1383(3) 0.1554(3) 0.2882(1)
O13 O 0.117(1) 0.202(2) 0.2300(6)
O14 O 0.057(1) 0.056(2) 0.3034(8)
O15 O 0.122(2) 0.282(2) 0.3288(9)
O16 O 0.238(2) 0.116(3) 0.294(1)
Cl3 Cl 0.3914(4) 0.1808(4) 0.0911(1)
O17 O 0.320(1) 0.175(2) 0.1386(7)
O18 O 0.418(2) 0.043(2) 0.0677(8)
O19 O 0.4823(1) 0.264(2) 0.1118(8)
O20 O 0.325(2) 0.256(2) 0.0505(9)
O21 O 0.712(1) 0.018(1) 0.4521(5)
O22 O 0.097(2) 0.081(2) 0.4562(9)
loop_
_geom_bond_atom_site_label_1
_geom_bond_atom_site_label_2
_geom_bond_site_symmetry_1
_geom_bond_site_symmetry_2
Eu1 O1 1_555 1_555
O2 Eu1 1_555 1_555
O3 Eu1 1_555 1_555
O4 Eu1 1_555 1_555
O5 C3 1_555 1_555
O6 Eu1 1_555 1_555
O7 C5 1_555 1_555
O8 C7 1_555 1_555
N1 C2 1_555 1_555
N2 C4 1_555 1_555
C1 O3 1_555 1_555
C2 C1 1_555 1_555
C3 N1 1_555 1_555
C4 C3 1_555 1_555
N3 C6 1_555 1_555
N4 C8 1_555 1_555
C5 O6 1_555 1_555
C6 C5 1_555 1_555
C7 N3 1_555 1_555
C8 C7 1_555 1_555
Cl1 O9 1_555 1_555
O10 Cl1 1_555 1_555
O11 Cl1 1_555 1_555
O12 Cl1 1_555 1_555
Cl2 O13 1_555 1_555
O14 Cl2 1_555 1_555
O15 Cl2 1_555 1_555
O16 Cl2 1_555 1_555
Cl3 O17 1_555 1_555
O18 Cl3 1_555 1_555
O19 Cl3 1_555 1_555
O20 Cl3 1_555 1_555
O3B Eu1 1_555 1_555
Eu1B O3 1_555 1_555
O7B Eu1 1_555 1_555
O5B Eu1 1_555 1_555
O8_2 Eu1 1_555 1_555
Eu1_2 O8 1_555 1_555
O4 C1 1_555 1_555
O5 Eu1B 1_555 1_555
O7 Eu1B 1_555 1_555
O3B Eu1B 1_555 1_555

#END
