
#######################################################################
#
#                 Cambridge Crystallographic Data Centre
#                                CCDC 
#
#######################################################################
#
# If this CIF has been generated from an entry in the Cambridge 
# Structural Database, then it will include bibliographic, chemical, 
# crystal, experimental, refinement or atomic coordinate data resulting 
# from the CCDC's data processing and validation procedures.
#
#######################################################################

data_SIXGEM
_symmetry_cell_setting           triclinic
_symmetry_space_group_name_H-M   'P -1'
_symmetry_Int_Tables_number      2
_space_group_name_Hall           '-P 1'
loop_
_symmetry_equiv_pos_site_id
_symmetry_equiv_pos_as_xyz
1 x,y,z
2 -x,-y,-z
_cell_length_a                   6.752(3)
_cell_length_b                   6.438(2)
_cell_length_c                   13.604(3)
_cell_angle_alpha                110.65(2)
_cell_angle_beta                 91.69(2)
_cell_angle_gamma                96.39(2)
_cell_volume                     548.422
loop_
_atom_site_label
_atom_site_type_symbol
_atom_site_fract_x
_atom_site_fract_y
_atom_site_fract_z
Co1 Co 0.0000 1.0000 0.0000
O1 O 0.2059(4) 0.7683(4) -0.0487(2)
H1 H 0.277(6) 0.754(7) -0.104(2)
H2 H 0.305(6) 0.788(10) 0.000(3)
O2 O 0.2382(4) 1.2655(4) 0.0433(2)
H3 H 0.310(6) 1.342(9) 0.103(2)
H4 H 0.329(4) 1.244(6) -0.002(2)
N1 N 0.0174(4) 0.9738(4) 0.1508(2)
C1 C -0.0244(6) 0.7753(6) 0.1637(3)
H5 H -0.0462 0.6463 0.1037
C2 C -0.0365(6) 0.7531(6) 0.2598(3)
H6 H -0.0687 0.6124 0.2640
C3 C -0.0003(5) 0.9423(6) 0.3512(3)
C4 C 0.0489(6) 1.1469(6) 0.3388(3)
H7 H 0.0783 1.2775 0.3975
C5 C 0.0538(6) 1.1549(6) 0.2395(3)
H8 H 0.0842 1.2939 0.2332
C6 C -0.0176(6) 0.9185(6) 0.4536(3)
H9 H -0.0571 0.7753 0.4535
Co1_2 Co 0.0000 1.0000 1.0000
O1A O -0.2059(4) 1.2317(4) 0.0487(2)
H1A H -0.277(6) 1.246(7) 0.104(2)
H2A H -0.305(6) 1.212(10) 0.000(3)
O2A O -0.2382(4) 0.7345(4) -0.0433(2)
H3A H -0.310(6) 0.658(9) -0.103(2)
H4A H -0.329(4) 0.756(6) 0.002(2)
N1A N -0.0174(4) 1.0262(4) 0.8492(2)
N1A_2 N -0.0174(4) 1.0262(4) -0.1508(2)
C1A C 0.0244(6) 1.2247(6) 0.8363(3)
H5A H 0.0462 1.3537 0.8963
C2A C 0.0365(6) 1.2469(6) 0.7402(3)
H6A H 0.0687 1.3876 0.7360
C3A C 0.0003(5) 1.0577(6) 0.6488(3)
C4A C -0.0489(6) 0.8531(6) 0.6612(3)
H7A H -0.0783 0.7225 0.6025
C5A C -0.0538(6) 0.8451(6) 0.7605(3)
H8A H -0.0842 0.7061 0.7668
C6A C 0.0176(6) 1.0815(6) 0.5464(3)
H9A H 0.0571 1.2247 0.5465
O3 O 0.6078(5) 0.2487(5) 0.2232(2)
O4 O 0.4338(5) 0.5291(5) 0.2365(2)
C7 C 0.5178(6) 0.4094(6) 0.2750(3)
C8 C 0.5113(5) 0.4592(6) 0.3923(3)
C9 C 0.4433(6) 0.6521(6) 0.4574(3)
H10 H 0.4051 0.7551 0.4292
C10 C 0.5687(6) 0.3060(6) 0.4362(3)
H11 H 0.6150 0.1756 0.3935
O3A O 0.3922(5) 0.7513(5) 0.7768(2)
O4A O 0.5662(5) 0.4709(5) 0.7635(2)
C7A C 0.4822(6) 0.5906(6) 0.7250(3)
C8A C 0.4887(5) 0.5408(6) 0.6077(3)
C9A C 0.5567(6) 0.3479(6) 0.5426(3)
H10A H 0.5949 0.2449 0.5708
C10A C 0.4313(6) 0.6940(6) 0.5638(3)
H11A H 0.3850 0.8244 0.6065
O5 O 0.4905(4) 0.7969(5) 0.1117(2)
H12 H 0.492(7) 0.730(6) 0.159(3)
H13 H 0.535(6) 0.937(3) 0.154(3)
loop_
_geom_bond_atom_site_label_1
_geom_bond_atom_site_label_2
_geom_bond_site_symmetry_1
_geom_bond_site_symmetry_2
Co1 O1 1_555 1_555
O1 H1 1_555 1_555
H2 O1 1_555 1_555
O2 Co1 1_555 1_555
H3 O2 1_555 1_555
H4 O2 1_555 1_555
N1 Co1 1_555 1_555
C1 N1 1_555 1_555
H5 C1 1_555 1_555
C2 C1 1_555 1_555
H6 C2 1_555 1_555
C3 C2 1_555 1_555
C4 C3 1_555 1_555
H7 C4 1_555 1_555
C5 N1 1_555 1_555
H8 C5 1_555 1_555
C6 C3 1_555 1_555
H9 C6 1_555 1_555
O3 C7 1_555 1_555
O4 C7 1_555 1_555
C7 C8 1_555 1_555
C8 C9 1_555 1_555
C9 H10 1_555 1_555
C10 C8 1_555 1_555
H11 C10 1_555 1_555
O5 H12 1_555 1_555
H13 O5 1_555 1_555
Co1_2 N1A 1_555 1_555
O1A Co1 1_555 1_555
H1A O1A 1_555 1_555
H2A O1A 1_555 1_555
O2A Co1 1_555 1_555
H3A O2A 1_555 1_555
H4A O2A 1_555 1_555
N1A C1A 1_555 1_555
N1A_2 Co1 1_555 1_555
C1A H5A 1_555 1_555
C2A C1A 1_555 1_555
H6A C2A 1_555 1_555
C3A C2A 1_555 1_555
C4A C3A 1_555 1_555
H7A C4A 1_555 1_555
C5A N1A 1_555 1_555
H8A C5A 1_555 1_555
C6A C6 1_555 1_555
H9A C6A 1_555 1_555
O3A C7A 1_555 1_555
O4A C7A 1_555 1_555
C7A C8A 1_555 1_555
C8A C9A 1_555 1_555
C9A C10 1_555 1_555
H10A C9A 1_555 1_555
C10A C9 1_555 1_555
H11A C10A 1_555 1_555
C4 C5 1_555 1_555
C3A C6A 1_555 1_555
C4A C5A 1_555 1_555
C8A C10A 1_555 1_555

#END
