
#######################################################################
#
#                 Cambridge Crystallographic Data Centre
#                                CCDC 
#
#######################################################################
#
# If this CIF has been generated from an entry in the Cambridge 
# Structural Database, then it will include bibliographic, chemical, 
# crystal, experimental, refinement or atomic coordinate data resulting 
# from the CCDC's data processing and validation procedures.
#
#######################################################################

data_SIXGEN
_symmetry_cell_setting           monoclinic
_symmetry_space_group_name_H-M   'P 21/n'
_symmetry_Int_Tables_number      14
_space_group_name_Hall           '-P 2yn'
loop_
_symmetry_equiv_pos_site_id
_symmetry_equiv_pos_as_xyz
1 x,y,z
2 1/2-x,1/2+y,1/2-z
3 -x,-y,-z
4 1/2+x,1/2-y,1/2+z
_cell_length_a                   12.9753(8)
_cell_length_b                   7.2255(5)
_cell_length_c                   16.4338(10)
_cell_angle_alpha                90
_cell_angle_beta                 94.8830(10)
_cell_angle_gamma                90
_cell_volume                     1535.13
loop_
_atom_site_label
_atom_site_type_symbol
_atom_site_fract_x
_atom_site_fract_y
_atom_site_fract_z
Sr1 Sr 0.809373(17) 0.73586(3) 0.024104(14)
S1 S 1.24243(5) 0.89107(10) 0.34285(4)
N1 N 1.05004(16) 0.7853(3) 0.36260(12)
H1 H 1.0686 0.7912 0.4140
N2 N 1.09090(16) 0.8036(3) 0.23029(12)
H2 H 1.1358 0.8230 0.1957
O1 O 0.97446(14) 0.7478(3) 0.12242(10)
O2 O 0.88916(13) 0.7142(3) 0.39665(10)
C1 C 1.12251(19) 0.8221(3) 0.31016(14)
C2 C 0.99116(19) 0.7554(3) 0.19936(14)
C3 C 0.9197(2) 0.7237(3) 0.25666(15)
H3 H 0.8521 0.6921 0.2389
C4 C 0.94814(19) 0.7388(3) 0.33944(15)
S2 S 0.26350(5) 0.89752(9) 0.09198(4)
N3 N 0.45495(15) 0.7958(3) 0.06703(12)
H4 H 0.4348 0.8055 0.0160
N4 N 0.41861(16) 0.8080(3) 0.20082(12)
H5 H 0.3748 0.8269 0.2363
O3 O 0.54017(14) 0.7448(3) 0.30592(11)
O4 O 0.61478(13) 0.7238(3) 0.02947(10)
C5 C 0.38524(19) 0.8289(3) 0.12127(15)
C6 C 0.5195(2) 0.7576(4) 0.22976(15)
C7 C 0.5884(2) 0.7273(4) 0.17050(15)
H6 H 0.6562 0.6933 0.1866
C8 C 0.55791(19) 0.7467(3) 0.08799(15)
O5 O 0.94800(17) 0.8744(3) -0.05872(13)
H7 H 0.967(3) 0.826(5) -0.098(2)
H8 H 0.965(3) 0.974(4) -0.061(2)
O6 O 0.79045(17) 0.9981(3) 0.12295(13)
H9 H 0.738(3) 1.055(4) 0.1202(19)
H10 H 0.834(2) 1.055(5) 0.1479(19)
O7 O 0.78160(16) 0.4689(3) 0.12426(13)
H11 H 0.735(3) 0.396(4) 0.1170(19)
H12 H 0.835(2) 0.406(4) 0.1374(18)
O8 O 0.89620(17) 0.4366(3) -0.01923(14)
H13 H 0.942(2) 0.440(5) -0.0526(17)
H14 H 0.853(2) 0.351(4) -0.030(2)
Sr1B Sr 0.190627(17) 1.26414(3) -0.024104(14)
Sr1C Sr 1.309373(17) 0.76414(3) 0.524104(14)
S1C S 0.74243(5) 0.60893(10) -0.15715(4)
S2B S 0.73650(5) 1.10248(9) -0.09198(4)
loop_
_geom_bond_atom_site_label_1
_geom_bond_atom_site_label_2
_geom_bond_site_symmetry_1
_geom_bond_site_symmetry_2
Sr1 O1 1_555 1_555
S1 C1 1_555 1_555
N1 H1 1_555 1_555
N2 H2 1_555 1_555
O1 C2 1_555 1_555
O2 C4 1_555 1_555
C1 N1 1_555 1_555
C2 N2 1_555 1_555
C3 C2 1_555 1_555
H3 C3 1_555 1_555
C4 N1 1_555 1_555
S2 C5 1_555 1_555
N3 H4 1_555 1_555
N4 H5 1_555 1_555
O3 C6 1_555 1_555
O4 Sr1 1_555 1_555
C5 N3 1_555 1_555
C6 N4 1_555 1_555
C7 C6 1_555 1_555
H6 C7 1_555 1_555
C8 N3 1_555 1_555
O5 Sr1 1_555 1_555
H7 O5 1_555 1_555
H8 O5 1_555 1_555
O6 Sr1 1_555 1_555
H9 O6 1_555 1_555
H10 O6 1_555 1_555
O7 Sr1 1_555 1_555
H11 O7 1_555 1_555
H12 O7 1_555 1_555
O8 Sr1 1_555 1_555
H13 O8 1_555 1_555
H14 O8 1_555 1_555
Sr1B S2 1_555 1_555
Sr1C S1 1_555 1_555
S1C Sr1 1_555 1_555
S2B Sr1 1_555 1_555
N2 C1 1_555 1_555
C3 C4 1_555 1_555
N4 C5 1_555 1_555
O4 C8 1_555 1_555
C7 C8 1_555 1_555

#END
