
#######################################################################
#
#                 Cambridge Crystallographic Data Centre
#                                CCDC 
#
#######################################################################
#
# If this CIF has been generated from an entry in the Cambridge 
# Structural Database, then it will include bibliographic, chemical, 
# crystal, experimental, refinement or atomic coordinate data resulting 
# from the CCDC's data processing and validation procedures.
#
#######################################################################

data_SIXGAI
_symmetry_cell_setting           monoclinic
_symmetry_space_group_name_H-M   'P 21/a'
_symmetry_Int_Tables_number      14
_space_group_name_Hall           '-P 2yab'
loop_
_symmetry_equiv_pos_site_id
_symmetry_equiv_pos_as_xyz
1 x,y,z
2 1/2-x,1/2+y,-z
3 -x,-y,-z
4 1/2+x,1/2-y,z
_cell_length_a                   10.2311(5)
_cell_length_b                   10.8085(4)
_cell_length_c                   11.4968(6)
_cell_angle_alpha                90
_cell_angle_beta                 104.455(2)
_cell_angle_gamma                90
_cell_volume                     1231.1
loop_
_atom_site_label
_atom_site_type_symbol
_atom_site_fract_x
_atom_site_fract_y
_atom_site_fract_z
Co1 Co 0.47926(5) 0.01486(5) 0.25313(5)
N1 N 0.4824(4) -0.1633(3) 0.2118(3)
O1 O 0.2639(3) -0.2244(3) 0.3984(3)
N2 N 0.3001(5) 0.0880(4) 0.1015(4)
O2 O 0.5089(3) 0.1725(3) 0.3411(3)
N3 N 0.4420(4) 0.3360(3) 0.4336(4)
O3 O 0.1842(4) 0.0059(3) 0.4391(4)
N4 N 0.3209(4) 0.1585(4) 0.4162(4)
C1 C 0.4092(4) -0.2339(4) 0.2685(4)
N5 N 0.3600(4) -0.0418(3) 0.3508(3)
C2 C 0.2839(5) 0.0346(5) 0.4033(5)
N6 N 0.2536(5) 0.3097(4) 0.0732(5)
C3 C 0.2738(5) 0.1916(5) 0.0926(4)
C4 C 0.4712(5) -0.4172(4) 0.1810(5)
C5 C 0.5461(5) -0.3443(5) 0.1221(5)
C6 C 0.3355(4) -0.1662(4) 0.3471(4)
N7 N 0.1173(5) 0.4353(4) 0.1716(4)
C7 C 0.5491(5) -0.2173(4) 0.1389(4)
C8 C 0.1791(5) 0.3708(4) 0.1274(5)
C9 C 0.4289(5) 0.2197(4) 0.3944(4)
C10 C 0.4008(5) -0.3613(4) 0.2549(4)
H1 H 0.5991 -0.1606 0.0811
H2 H 0.6216 -0.3828 0.0889
H3 H 0.3441 -0.4158 0.3039
H4 H 0.4681 -0.5094 0.1650
H5 H 0.5253 0.3836 0.4211
H6 H 0.3816 0.3658 0.4911
H7 H 0.2672 0.2203 0.4547
Co1C Co -0.02074(5) 0.48514(5) 0.25313(5)
N7C N 0.6173(5) 0.0647(4) 0.1716(4)
loop_
_geom_bond_atom_site_label_1
_geom_bond_atom_site_label_2
_geom_bond_site_symmetry_1
_geom_bond_site_symmetry_2
Co1 N1 1_555 1_555
N1 C1 1_555 1_555
O1 C6 1_555 1_555
N2 Co1 1_555 1_555
O2 Co1 1_555 1_555
N3 C9 1_555 1_555
O3 C2 1_555 1_555
N4 C2 1_555 1_555
C1 C6 1_555 1_555
N5 Co1 1_555 1_555
C2 N5 1_555 1_555
N6 C3 1_555 1_555
C3 N2 1_555 1_555
C4 C5 1_555 1_555
C5 C7 1_555 1_555
C6 N5 1_555 1_555
N7 C8 1_555 1_555
C7 N1 1_555 1_555
C8 N6 1_555 1_555
C9 O2 1_555 1_555
C10 C1 1_555 1_555
H1 C7 1_555 1_555
H2 C5 1_555 1_555
H3 C10 1_555 1_555
H4 C4 1_555 1_555
H5 N3 1_555 1_555
H6 N3 1_555 1_555
H7 N4 1_555 1_555
Co1C N7 1_555 1_555
N7C Co1 1_555 1_555
N4 C9 1_555 1_555
C4 C10 1_555 1_555

#END
