
#######################################################################
#
#                 Cambridge Crystallographic Data Centre
#                                CCDC 
#
#######################################################################
#
# If this CIF has been generated from an entry in the Cambridge 
# Structural Database, then it will include bibliographic, chemical, 
# crystal, experimental, refinement or atomic coordinate data resulting 
# from the CCDC's data processing and validation procedures.
#
#######################################################################

data_SIXKIU01
_symmetry_cell_setting           triclinic
_symmetry_space_group_name_H-M   'P -1'
_symmetry_Int_Tables_number      2
_space_group_name_Hall           '-P 1'
loop_
_symmetry_equiv_pos_site_id
_symmetry_equiv_pos_as_xyz
1 x,y,z
2 -x,-y,-z
_cell_length_a                   5.7165(8)
_cell_length_b                   6.8605(12)
_cell_length_c                   9.6419(13)
_cell_angle_alpha                89.357(12)
_cell_angle_beta                 93.956(11)
_cell_angle_gamma                100.074(13)
_cell_volume                     371.419
loop_
_atom_site_label
_atom_site_type_symbol
_atom_site_fract_x
_atom_site_fract_y
_atom_site_fract_z
Ag1 Ag 1.00513(4) 0.24092(3) 0.45328(3)
C1 C 0.4917(4) -0.0333(4) 0.4254(3)
N1 N 0.6835(4) 0.0184(3) 0.3526(2)
C2 C 0.6653(5) -0.0432(4) 0.2205(3)
H1 H 0.7961 -0.0106 0.1673
C3 C 0.4582(5) -0.1538(4) 0.1607(3)
H2 H 0.4468 -0.1959 0.0687
C4 C 0.2710(5) -0.1984(4) 0.2433(3)
H3 H 0.1291 -0.2722 0.2059
N2 N 0.2845(4) -0.1393(3) 0.3767(2)
O1 O 1.3593(3) 0.3576(3) 0.35736(19)
C5 C 1.5242(4) 0.4688(3) 0.4247(3)
O2 O 1.7261(3) 0.5324(3) 0.38297(19)
Ag1A Ag -0.00513(4) -0.24092(3) 0.54672(3)
Ag1A_2 Ag 1.99487(4) 0.75908(3) 0.54672(3)
C1A C 0.5083(4) 0.0333(4) 0.5746(3)
N1A N 0.3165(4) -0.0184(3) 0.6474(2)
C2A C 0.3347(5) 0.0432(4) 0.7795(3)
H1A H 0.2039 0.0106 0.8327
C3A C 0.5418(5) 0.1538(4) 0.8393(3)
H2A H 0.5532 0.1959 0.9313
C4A C 0.7290(5) 0.1984(4) 0.7567(3)
H3A H 0.8709 0.2722 0.7941
N2A N 0.7155(4) 0.1393(3) 0.6233(2)
O1A O 1.6407(3) 0.6424(3) 0.64264(19)
O1A_2 O -0.3593(3) -0.3576(3) 0.64264(19)
C5A C 1.4758(4) 0.5312(3) 0.5753(3)
O2A O 1.2739(3) 0.4676(3) 0.61703(19)
O2_2 O -0.2739(3) -0.4676(3) 0.38297(19)
O3 O 1.1651(5) 0.2674(4) 0.0786(3)
H4 H 1.240(6) 0.283(5) 0.137(4)
H5 H 1.031(10) 0.317(8) 0.106(6)
O4 O 1.7591(4) 0.4245(4) 0.1107(3)
H6 H 1.734(6) 0.438(5) 0.176(4)
H7 H 1.771(14) 0.541(12) 0.040(5)
loop_
_geom_bond_atom_site_label_1
_geom_bond_atom_site_label_2
_geom_bond_site_symmetry_1
_geom_bond_site_symmetry_2
Ag1 N1 1_555 1_555
C1 N1 1_555 1_555
N1 C2 1_555 1_555
C2 H1 1_555 1_555
C3 C2 1_555 1_555
H2 C3 1_555 1_555
C4 C3 1_555 1_555
H3 C4 1_555 1_555
N2 C1 1_555 1_555
O1 Ag1 1_555 1_555
C5 O1 1_555 1_555
O2 C5 1_555 1_555
O3 H4 1_555 1_555
O4 H6 1_555 1_555
H5 O3 1_555 1_555
H7 O4 1_555 1_555
Ag1A N2 1_555 1_555
Ag1A_2 O2 1_555 1_555
C1A C1 1_555 1_555
N1A Ag1A 1_555 1_555
C2A N1A 1_555 1_555
H1A C2A 1_555 1_555
C3A C2A 1_555 1_555
H2A C3A 1_555 1_555
C4A C3A 1_555 1_555
H3A C4A 1_555 1_555
N2A Ag1 1_555 1_555
O1A Ag1A_2 1_555 1_555
O1A_2 Ag1A 1_555 1_555
C5A C5 1_555 1_555
O2A Ag1 1_555 1_555
O2_2 Ag1A 1_555 1_555
C4 N2 1_555 1_555
C1A N1A 1_555 1_555
C1A N2A 1_555 1_555
C4A N2A 1_555 1_555
O1A C5A 1_555 1_555
C5A O2A 1_555 1_555

#END
