
#######################################################################
#
#                 Cambridge Crystallographic Data Centre
#                                CCDC 
#
#######################################################################
#
# If this CIF has been generated from an entry in the Cambridge 
# Structural Database, then it will include bibliographic, chemical, 
# crystal, experimental, refinement or atomic coordinate data resulting 
# from the CCDC's data processing and validation procedures.
#
#######################################################################

data_SIXKEQ
_symmetry_cell_setting           monoclinic
_symmetry_space_group_name_H-M   'P 21/c'
_symmetry_Int_Tables_number      14
_space_group_name_Hall           '-P 2ybc'
loop_
_symmetry_equiv_pos_site_id
_symmetry_equiv_pos_as_xyz
1 x,y,z
2 -x,1/2+y,1/2-z
3 -x,-y,-z
4 x,1/2-y,1/2+z
_cell_length_a                   7.6499(3)
_cell_length_b                   12.3681(5)
_cell_length_c                   11.3851(4)
_cell_angle_alpha                90
_cell_angle_beta                 100.007(4)
_cell_angle_gamma                90
_cell_volume                     1060.81
loop_
_atom_site_label
_atom_site_type_symbol
_atom_site_fract_x
_atom_site_fract_y
_atom_site_fract_z
Ag1 Ag 0.02016(3) 0.800438(11) 0.248924(13)
N1 N -0.0584(2) 0.64462(11) 0.12976(13)
N2 N 0.09137(19) 0.64376(11) 0.37009(13)
N3 N -0.1348(2) 0.46104(12) 0.15451(14)
N4 N 0.1321(2) 0.45477(11) 0.34984(15)
C1 C -0.0500(2) 0.55237(12) 0.19123(15)
C2 C -0.1622(3) 0.64445(15) 0.02189(16)
H1 H -0.1696 0.7077 -0.0246
C3 C -0.2584(3) 0.55492(16) -0.02331(19)
H2 H -0.3316 0.5560 -0.0987
C4 C -0.2422(3) 0.46370(16) 0.04745(19)
H3 H -0.3079 0.4017 0.0202
C5 C 0.0653(2) 0.55038(12) 0.31137(15)
C6 C 0.1953(3) 0.64035(16) 0.47731(17)
H4 H 0.2152 0.7045 0.5219
C7 C 0.2745(3) 0.54585(16) 0.5251(2)
H5 H 0.3483 0.5444 0.6002
C8 C 0.2392(3) 0.45360(15) 0.4564(2)
H6 H 0.2921 0.3880 0.4853
Ag1A Ag -0.02016(3) 0.300438(11) 0.251076(13)
N3A N 0.1348(2) 0.96104(12) 0.34549(14)
N4A N -0.1321(2) 0.95477(11) 0.15016(15)
Cl1 Cl 0.49082(6) 0.20617(4) 0.25895(4)
O1 O 0.3146(3) 0.2018(2) 0.1940(2)
O2 O 0.5736(4) 0.1035(2) 0.2528(3)
O3 O 0.5908(3) 0.28849(18) 0.2144(3)
O4 O 0.4811(3) 0.2278(3) 0.38304(19)
O5? O 0.392(3) 0.122(2) 0.233(3)
O6? O 0.6573(19) 0.1836(17) 0.3118(11)
O7? O 0.518(2) 0.2418(15) 0.1319(13)
O8? O 0.402(2) 0.2876(11) 0.314(2)
loop_
_geom_bond_atom_site_label_1
_geom_bond_atom_site_label_2
_geom_bond_site_symmetry_1
_geom_bond_site_symmetry_2
Ag1 N1 1_555 1_555
N1 C1 1_555 1_555
N2 Ag1 1_555 1_555
N3 C1 1_555 1_555
N4 C5 1_555 1_555
C1 C5 1_555 1_555
C2 N1 1_555 1_555
H1 C2 1_555 1_555
C3 C2 1_555 1_555
H2 C3 1_555 1_555
C4 N3 1_555 1_555
H3 C4 1_555 1_555
C5 N2 1_555 1_555
C6 N2 1_555 1_555
H4 C6 1_555 1_555
C7 C6 1_555 1_555
H5 C7 1_555 1_555
C8 N4 1_555 1_555
H6 C8 1_555 1_555
Cl1 O1 1_555 1_555
O2 Cl1 1_555 1_555
O3 Cl1 1_555 1_555
O4 Cl1 1_555 1_555
Ag1A N3 1_555 1_555
N3A Ag1 1_555 1_555
N4A Ag1 1_555 1_555
N4 Ag1A 1_555 1_555
C3 C4 1_555 1_555
C7 C8 1_555 1_555

#END
