
#######################################################################
#
#                 Cambridge Crystallographic Data Centre
#                                CCDC 
#
#######################################################################
#
# If this CIF has been generated from an entry in the Cambridge 
# Structural Database, then it will include bibliographic, chemical, 
# crystal, experimental, refinement or atomic coordinate data resulting 
# from the CCDC's data processing and validation procedures.
#
#######################################################################

data_SIXKIU
_symmetry_cell_setting           triclinic
_symmetry_space_group_name_H-M   'P -1'
_symmetry_Int_Tables_number      2
_space_group_name_Hall           '-P 1'
loop_
_symmetry_equiv_pos_site_id
_symmetry_equiv_pos_as_xyz
1 x,y,z
2 -x,-y,-z
_cell_length_a                   6.9304(2)
_cell_length_b                   9.7050(3)
_cell_length_c                   28.2177(4)
_cell_angle_alpha                94.105(12)
_cell_angle_beta                 93.362(13)
_cell_angle_gamma                90.357(12)
_cell_volume                     1889.68
loop_
_atom_site_label
_atom_site_type_symbol
_atom_site_fract_x
_atom_site_fract_y
_atom_site_fract_z
O1 O 1.0132(7) -0.1168(4) 0.04446(14)
O2 O 1.1139(7) -0.1414(4) -0.02918(15)
O3 O 0.5138(7) -0.1411(4) 0.37116(14)
O4 O 0.3842(7) 0.1156(4) 0.35522(14)
O5 O 0.2852(7) 0.1400(4) 0.42834(14)
O6 O 0.4126(7) -0.1180(4) 0.44521(15)
O7 O -0.3121(7) 0.1426(5) 0.82863(15)
O8 O -0.2111(7) 0.1185(4) 0.75532(15)
O9 O -0.0827(7) -0.1378(4) 0.77084(15)
O10 O -0.1867(7) -0.1157(5) 0.84440(15)
N1 N 0.6790(8) 0.1424(6) 0.16350(18)
N2 N 0.6037(8) 0.1218(5) 0.24335(18)
N3 N 0.7159(8) -0.1456(6) 0.23589(17)
N4 N 0.7947(8) -0.1250(6) 0.15737(18)
N5 N 0.0849(9) 0.1474(6) 0.56365(19)
N6 N 0.0041(9) 0.1251(6) 0.64302(16)
N7 N 0.1185(9) -0.1442(6) 0.63644(18)
N8 N 0.1979(8) -0.1210(5) 0.55660(18)
N9 N -0.5168(8) 0.1467(5) 0.96315(17)
N10 N -0.5952(8) 0.1239(6) 1.04365(17)
C1 C 1.0388(10) -0.0742(6) 0.0044(2)
C2 C 0.6692(10) 0.0737(7) 0.2015(2)
C3 C 0.6261(10) 0.2762(7) 0.1673(2)
H1 H 0.6370 0.3300 0.1416
C4 C 0.5554(11) 0.3344(7) 0.2091(3)
H2 H 0.5165 0.4260 0.2119
C5 C 0.5453(11) 0.2514(7) 0.2462(2)
H3 H 0.4956 0.2874 0.2743
C6 C 0.7291(10) -0.0747(7) 0.1975(2)
C7 C 0.7726(11) -0.2815(7) 0.2331(2)
H4 H 0.7637 -0.3333 0.2594
C8 C 0.8425(11) -0.3422(7) 0.1918(2)
H5 H 0.8815 -0.4338 0.1893
C9 C 0.8511(11) -0.2584(7) 0.1544(3)
H6 H 0.8975 -0.2952 0.1260
C10 C 0.4346(10) -0.0745(7) 0.40443(19)
C11 C 0.3658(10) 0.0736(7) 0.3961(2)
C12 C 0.0700(9) 0.0768(6) 0.6011(2)
C13 C 0.0237(10) 0.2790(6) 0.5667(2)
H7 H 0.0274 0.3306 0.5402
C14 C -0.0431(11) 0.3382(8) 0.6074(2)
H8 H -0.0819 0.4298 0.6095
C15 C -0.0515(11) 0.2581(7) 0.6456(2)
H9 H -0.0968 0.2968 0.6739
C16 C 0.1318(8) -0.0712(7) 0.59831(18)
C17 C 0.1756(10) -0.2767(6) 0.6333(2)
H10 H 0.1697 -0.3287 0.6596
C18 C 0.2424(11) -0.3363(7) 0.5918(2)
H11 H 0.2797 -0.4283 0.5893
C19 C 0.2514(10) -0.2548(7) 0.5547(3)
H12 H 0.2970 -0.2935 0.5264
C20 C -0.2341(10) 0.0755(6) 0.7952(2)
C21 C -0.1599(10) -0.0729(7) 0.8050(2)
C22 C -0.5316(11) 0.0755(6) 1.0025(2)
C23 C -0.5737(10) 0.2778(7) 0.9675(2)
H13 H -0.5644 0.3316 0.9418
C24 C -0.6454(11) 0.3366(7) 1.0085(3)
H14 H -0.6893 0.4270 1.0105
C25 C -0.6493(11) 0.2549(7) 1.0468(2)
H15 H -0.6912 0.2931 1.0755
Ag1 Ag 0.84076(10) 0.04275(6) 0.099078(18)
Ag2 Ag 0.55788(9) -0.04550(6) 0.301049(18)
Ag3 Ag 0.24103(9) 0.04416(6) 0.498986(17)
Ag4 Ag -0.04022(10) -0.04260(6) 0.700920(19)
Ag5 Ag -0.35822(9) 0.04435(6) 0.898969(18)
O1A O 0.9868(7) 0.1168(4) -0.04446(14)
O2A O 0.8861(7) 0.1414(4) 0.02918(15)
N1A N 1.3210(8) -0.1424(6) -0.16350(18)
N4A N 1.2053(8) 0.1250(6) -0.15737(18)
N9A N -0.4832(8) -0.1467(5) 1.03685(17)
N10A N -0.4048(8) -0.1239(6) 0.95635(17)
C1A C 0.9612(10) 0.0742(6) -0.0044(2)
C22A C -0.4684(11) -0.0755(6) 0.9975(2)
C23A C -0.4263(10) -0.2778(7) 1.0325(2)
H13A H -0.4356 -0.3316 1.0582
C24A C -0.3546(11) -0.3366(7) 0.9915(3)
H14A H -0.3107 -0.4270 0.9895
C25A C -0.3507(11) -0.2549(7) 0.9532(2)
H15A H -0.3088 -0.2931 0.9245
Ag1A Ag 1.15924(10) -0.04275(6) -0.099078(18)
Ag5A Ag -0.64178(9) -0.04435(6) 1.101031(18)
O11 O 0.5270(8) 0.6103(5) 0.45171(18)
O12 O 0.3243(8) 0.6089(5) 0.25126(17)
O13 O 0.2723(8) 0.3866(5) 0.34866(17)
O14 O 0.0337(8) 0.4167(5) 0.26765(18)
O15 O 0.1239(8) 0.6106(5) 0.05164(17)
O16 O 0.8336(8) 0.4188(5) 0.06689(17)
O17 O 0.2372(8) 0.4193(5) 0.46720(18)
O18 O 0.0745(9) 0.3863(5) 0.14920(19)
O19 O 0.3625(8) 0.5775(5) 0.13306(18)
O20 O 0.5639(8) 0.5781(5) 0.33324(18)
loop_
_geom_bond_atom_site_label_1
_geom_bond_atom_site_label_2
_geom_bond_site_symmetry_1
_geom_bond_site_symmetry_2
O1 C1 1_555 1_555
O2 C1 1_555 1_555
O3 C10 1_555 1_555
O4 C11 1_555 1_555
O5 C11 1_555 1_555
O6 C10 1_555 1_555
O7 C20 1_555 1_555
O8 C20 1_555 1_555
O9 C21 1_555 1_555
O10 C21 1_555 1_555
N1 C2 1_555 1_555
N2 C2 1_555 1_555
N3 C6 1_555 1_555
N4 C6 1_555 1_555
N5 C12 1_555 1_555
N6 C12 1_555 1_555
N7 C16 1_555 1_555
N8 C16 1_555 1_555
N9 C22 1_555 1_555
N10 C22 1_555 1_555
C1 C1A 1_555 1_555
C2 C6 1_555 1_555
C3 N1 1_555 1_555
H1 C3 1_555 1_555
C4 C3 1_555 1_555
H2 C4 1_555 1_555
C5 N2 1_555 1_555
H3 C5 1_555 1_555
C7 N3 1_555 1_555
H4 C7 1_555 1_555
C8 C7 1_555 1_555
H5 C8 1_555 1_555
C9 N4 1_555 1_555
H6 C9 1_555 1_555
C10 C11 1_555 1_555
C12 C16 1_555 1_555
C13 N5 1_555 1_555
H7 C13 1_555 1_555
C14 C13 1_555 1_555
H8 C14 1_555 1_555
C15 N6 1_555 1_555
H9 C15 1_555 1_555
C17 N7 1_555 1_555
H10 C17 1_555 1_555
C18 C17 1_555 1_555
H11 C18 1_555 1_555
C19 N8 1_555 1_555
H12 C19 1_555 1_555
C20 C21 1_555 1_555
C22 C22A 1_555 1_555
C23 N9 1_555 1_555
H13 C23 1_555 1_555
C24 C23 1_555 1_555
H14 C24 1_555 1_555
C25 N10 1_555 1_555
H15 C25 1_555 1_555
Ag1 O1 1_555 1_555
Ag2 O3 1_555 1_555
Ag3 O5 1_555 1_555
Ag4 O8 1_555 1_555
Ag5 O7 1_555 1_555
O1A C1A 1_555 1_555
O2A Ag1 1_555 1_555
N1A Ag1A 1_555 1_555
N4A Ag1A 1_555 1_555
N9A C22A 1_555 1_555
N10A Ag5 1_555 1_555
C1A O2A 1_555 1_555
C22A N10A 1_555 1_555
C23A N9A 1_555 1_555
H13A C23A 1_555 1_555
C24A C23A 1_555 1_555
H14A C24A 1_555 1_555
C25A N10A 1_555 1_555
H15A C25A 1_555 1_555
Ag1A O2 1_555 1_555
Ag5A N10 1_555 1_555
O4 Ag2 1_555 1_555
O6 Ag3 1_555 1_555
O9 Ag4 1_555 1_555
O10 Ag5 1_555 1_555
N1 Ag1 1_555 1_555
N2 Ag2 1_555 1_555
N3 Ag2 1_555 1_555
N4 Ag1 1_555 1_555
N5 Ag3 1_555 1_555
N6 Ag4 1_555 1_555
N7 Ag4 1_555 1_555
N8 Ag3 1_555 1_555
N9 Ag5 1_555 1_555
C4 C5 1_555 1_555
C8 C9 1_555 1_555
C14 C15 1_555 1_555
C18 C19 1_555 1_555
C24 C25 1_555 1_555
O1A Ag1A 1_555 1_555
N9A Ag5A 1_555 1_555
C24A C25A 1_555 1_555

#END
