
#######################################################################
#
#                 Cambridge Crystallographic Data Centre
#                                CCDC 
#
#######################################################################
#
# If this CIF has been generated from an entry in the Cambridge 
# Structural Database, then it will include bibliographic, chemical, 
# crystal, experimental, refinement or atomic coordinate data resulting 
# from the CCDC's data processing and validation procedures.
#
#######################################################################

data_SIXPOG
_symmetry_cell_setting           triclinic
_symmetry_space_group_name_H-M   'P -1'
_symmetry_Int_Tables_number      2
_space_group_name_Hall           '-P 1'
loop_
_symmetry_equiv_pos_site_id
_symmetry_equiv_pos_as_xyz
1 x,y,z
2 -x,-y,-z
_cell_length_a                   6.59722(13)
_cell_length_b                   9.89170(20)
_cell_length_c                   10.08927(19)
_cell_angle_alpha                106.7019(12)
_cell_angle_beta                 93.3951(15)
_cell_angle_gamma                107.4811(13)
_cell_volume                     593.819
loop_
_atom_site_label
_atom_site_type_symbol
_atom_site_fract_x
_atom_site_fract_y
_atom_site_fract_z
N1 N 0.2272(11) 0.96974(63) 0.42016(74)
N2 N 0.0176(12) 0.77571(75) 0.22833(54)
S1 S -0.01297(74) 0.72157(45) 0.47516(44)
O1 O -0.0045(13) 0.7852(10) 0.00530(65)
O2 O 0.4252(14) 1.17607(78) 0.40993(88)
C1 C 0.0899(12) 0.82786(70) 0.36573(59)
C2 C 0.0663(13) 0.84948(68) 0.13327(58)
C3 C 0.2887(12) 1.05402(74) 0.33257(58)
C4 C 0.2100(13) 1.00019(81) 0.18641(71)
H1 H 0.27552 1.00856 0.52425
H2 H -0.06608 0.68553 0.19756
H3 H 0.22997 1.07023 0.14104
Pb1 Pb 0.71322(17) 1.37142(10) 0.343934(92)
O3 O 0.7325(17) 1.1403(12) 0.1625(10)
N3 N 0.5153(11) 1.30143(62) -0.28490(71)
N4 N 0.7111(12) 1.48891(75) -0.09469(57)
S2 S 0.72030(75) 1.56561(43) -0.32733(41)
O4 O 0.7484(15) 1.4620(10) 0.11188(67)
O5 O 0.3348(13) 1.07157(74) -0.27352(87)
C5 C 0.6419(12) 1.44424(65) -0.23183(59)
C6 C 0.6588(12) 1.40091(67) -0.01314(62)
C7 C 0.4544(12) 1.20344(68) -0.21300(59)
C8 C 0.5250(13) 1.25008(77) -0.06645(71)
H4 H 0.47832 1.27046 -0.36566
H5 H 0.77159 1.59178 -0.04661
H6 H 0.50142 1.19086 -0.01118
S1_2 S 0.98703(74) 1.72157(45) 0.47516(44)
S1A S 1.01297(74) 1.27843(45) 0.52484(44)
Pb1_2 Pb -0.28678(17) 0.37142(10) 0.343934(92)
Pb1_3 Pb 0.71322(17) 1.37142(10) -0.656066(92)
Pb1A Pb 0.28678(17) 0.62858(10) 0.656066(92)
Pb1A_2 Pb 0.28678(17) 1.62858(10) -0.343934(92)
S2_2 S 0.72030(75) 1.56561(43) 0.67267(41)
S2A S 0.27970(75) 1.43439(43) 0.32733(41)
loop_
_geom_bond_atom_site_label_1
_geom_bond_atom_site_label_2
_geom_bond_site_symmetry_1
_geom_bond_site_symmetry_2
N1 C1 1_555 1_555
N2 C1 1_555 1_555
S1 C1 1_555 1_555
O1 C2 1_555 1_555
O2 C3 1_555 1_555
C2 N2 1_555 1_555
C3 N1 1_555 1_555
C4 C2 1_555 1_555
H1 N1 1_555 1_555
H2 N2 1_555 1_555
H3 C4 1_555 1_555
Pb1 O2 1_555 1_555
O3 Pb1 1_555 1_555
N3 C5 1_555 1_555
N4 C5 1_555 1_555
S2 C5 1_555 1_555
O4 Pb1 1_555 1_555
O5 C7 1_555 1_555
C6 N4 1_555 1_555
C7 N3 1_555 1_555
C8 C6 1_555 1_555
H4 N3 1_555 1_555
H5 N4 1_555 1_555
H6 C8 1_555 1_555
S1_2 Pb1 1_555 1_555
S1A Pb1 1_555 1_555
Pb1_2 S1 1_555 1_555
Pb1_3 S2 1_555 1_555
Pb1A S1 1_555 1_555
Pb1A_2 S2 1_555 1_555
S2_2 Pb1 1_555 1_555
S2A Pb1 1_555 1_555
C3 C4 1_555 1_555
O4 C6 1_555 1_555
C7 C8 1_555 1_555

#END
