
#######################################################################
#
#                 Cambridge Crystallographic Data Centre
#                                CCDC 
#
#######################################################################
#
# If this CIF has been generated from an entry in the Cambridge 
# Structural Database, then it will include bibliographic, chemical, 
# crystal, experimental, refinement or atomic coordinate data resulting 
# from the CCDC's data processing and validation procedures.
#
#######################################################################

data_SIXRIC
_symmetry_cell_setting           monoclinic
_symmetry_space_group_name_H-M   'C 2/c'
_symmetry_Int_Tables_number      15
_space_group_name_Hall           '-C 2yn'
loop_
_symmetry_equiv_pos_site_id
_symmetry_equiv_pos_as_xyz
1 x,y,z
2 -x,y,1/2-z
3 1/2+x,1/2+y,z
4 1/2-x,1/2+y,1/2-z
5 -x,-y,-z
6 x,-y,1/2+z
7 1/2-x,1/2-y,-z
8 1/2+x,1/2-y,1/2+z
_cell_length_a                   12.5992(12)
_cell_length_b                   30.212(3)
_cell_length_c                   19.9730(19)
_cell_angle_alpha                90
_cell_angle_beta                 92.320(2)
_cell_angle_gamma                90
_cell_volume                     7596.43
loop_
_atom_site_label
_atom_site_type_symbol
_atom_site_fract_x
_atom_site_fract_y
_atom_site_fract_z
Sn1 Sn 0.52456(5) 0.069936(16) -0.02414(2)
Sn2 Sn 0.5000 0.33301(3) -0.2500
O1 O 0.5701(5) 0.13304(18) 0.0432(3)
O2 O 0.5410(6) 0.13581(17) -0.0662(3)
O3 O 0.5214(5) 0.28078(18) -0.1809(3)
O4 O 0.5597(6) 0.34205(19) -0.1263(3)
O5 O 0.5021(5) 0.05034(17) -0.1283(2)
O6 O 0.4813(5) -0.01130(18) -0.0717(2)
O7 O 0.6669(13) 0.3639(3) 0.0789(4)
O8 O 0.7248(6) 0.2284(2) 0.1744(4)
O9 O 0.6033(5) -0.1459(2) -0.1530(3)
N1 N 0.6840(6) 0.2904(2) 0.1088(3)
N2 N 0.5000 -0.1333(3) -0.2500
C1 C 0.5625(8) 0.1549(3) -0.0102(4)
C2 C 0.5518(8) 0.3016(3) -0.1261(4)
C3 C 0.4908(7) 0.0078(3) -0.1260(3)
C4 C 0.5806(8) 0.2042(3) -0.0094(4)
C5 C 0.5591(7) 0.2284(3) -0.0677(4)
H1 H 0.5351 0.2146 -0.1071
C6 C 0.5748(8) 0.2739(3) -0.0654(4)
C7 C 0.6162(7) 0.2944(3) -0.0080(4)
H2 H 0.6297 0.3246 -0.0082
C8 C 0.6376(8) 0.2698(3) 0.0498(4)
C9 C 0.6173(8) 0.2243(3) 0.0490(4)
H3 H 0.6286 0.2076 0.0877
C10 C 0.7021(14) 0.3357(4) 0.1170(5)
C11 C 0.7287(8) 0.2676(3) 0.1656(5)
C12 C 0.7636(12) 0.3413(4) 0.1810(5)
C13 C 0.7791(8) 0.3025(4) 0.2086(5)
C14 C 0.8351(10) 0.2980(4) 0.2681(7)
H4 H 0.8464 0.2704 0.2876
C15 C 0.8750(10) 0.3369(5) 0.2988(7)
H5 H 0.9136 0.3349 0.3394
C16 C 0.8583(15) 0.3771(6) 0.2702(7)
H6 H 0.8835 0.4025 0.2918
C17 C 0.8059(15) 0.3803(5) 0.2113(7)
H7 H 0.7972 0.4076 0.1903
C18 C 0.5302(9) -0.2847(3) -0.2201(5)
H8 H 0.5502 -0.3116 -0.2006
C19 C 0.5615(9) -0.2456(3) -0.1890(5)
H9 H 0.6016 -0.2456 -0.1488
C20 C 0.5305(7) -0.2065(3) -0.2201(4)
C21 C 0.5529(8) -0.1600(3) -0.2002(4)
C22 C 0.5000 -0.0868(3) -0.2500
C23 C 0.4903(7) -0.0635(2) -0.1897(4)
H10 H 0.4818 -0.0788 -0.1499
C24 C 0.4933(7) -0.0172(2) -0.1899(3)
C25 C 0.5000 0.0055(4) -0.2500
H11 H 0.5000 0.0363 -0.2500
C26 C 0.3643(8) 0.0750(3) 0.0013(5)
H12 H 0.3258 0.0495 -0.0165
H13 H 0.3606 0.0744 0.0497
C27 C 0.3140(13) 0.1141(6) -0.0235(9)
H14 H 0.3202 0.1151 -0.0717
H15 H 0.3519 0.1395 -0.0048
C28 C 0.1932(17) 0.1187(8) -0.0075(12)
H16 H 0.1786 0.1061 0.0358
H17 H 0.1477 0.1048 -0.0417
C29 C 0.6854(8) 0.0507(3) -0.0217(5)
H18 H 0.6877 0.0194 -0.0322
H19 H 0.7193 0.0662 -0.0576
C30 C 0.7523(10) 0.0578(5) 0.0412(7)
H20 H 0.7245 0.0408 0.0778
H21 H 0.7527 0.0889 0.0535
C31 C 0.8709(15) 0.0415(7) 0.0258(11)
H22 H 0.8687 0.0112 0.0099
H23 H 0.8994 0.0598 -0.0091
C32 C 0.931(2) 0.0440(9) 0.0785(13)
H24 H 1.0007 0.0340 0.0689
H25 H 0.9024 0.0259 0.1129
H26 H 0.9341 0.0742 0.0935
C33 C 0.3483(11) 0.3560(4) -0.2293(7)
H27 H 0.2977 0.3361 -0.2515
H28 H 0.3402 0.3525 -0.1815
C34 C 0.315(2) 0.4019(9) -0.2469(14)
H29 H 0.3374 0.4098 -0.2912
H30 H 0.2381 0.4047 -0.2462
C35 C 0.359(3) 0.4265(10) -0.2026(18)
H31 H 0.4346 0.4292 -0.2108
H32 H 0.3522 0.4136 -0.1586
C36 C 0.301(3) 0.4770(13) -0.2060(19)
H33 H 0.3335 0.4958 -0.1722
H34 H 0.2268 0.4740 -0.1984
H35 H 0.3103 0.4899 -0.2493
C37 C 0.177(3) 0.1787(11) -0.008(2)
H36 H 0.1057 0.1861 0.0030
H37 H 0.1917 0.1901 -0.0512
H38 H 0.2258 0.1916 0.0252
O5A O 0.4979(5) 0.05034(17) -0.3717(2)
O6A O 0.5187(5) -0.01130(18) -0.4283(2)
O9A O 0.3967(5) -0.1459(2) -0.3470(3)
C3A C 0.5092(7) 0.0078(3) -0.3740(3)
C18A C 0.4698(9) -0.2847(3) -0.2799(5)
H8A H 0.4498 -0.3116 -0.2994
C19A C 0.4385(9) -0.2456(3) -0.3110(5)
H9A H 0.3984 -0.2456 -0.3512
C20A C 0.4695(7) -0.2065(3) -0.2799(4)
C21A C 0.4471(8) -0.1600(3) -0.2998(4)
C23A C 0.5097(7) -0.0635(2) -0.3103(4)
H10A H 0.5182 -0.0788 -0.3501
C24A C 0.5067(7) -0.0172(2) -0.3101(3)
Sn1A Sn 0.47544(5) 0.069936(16) -0.47586(2)
O1A O 0.4299(5) 0.13304(18) -0.5432(3)
O2A O 0.4590(6) 0.13581(17) -0.4338(3)
O3A O 0.4786(5) 0.28078(18) -0.3191(3)
O4A O 0.4403(6) 0.34205(19) -0.3737(3)
O7A O 0.3331(13) 0.3639(3) -0.5789(4)
O8A O 0.2752(6) 0.2284(2) -0.6744(4)
N1A N 0.3160(6) 0.2904(2) -0.6088(3)
C1A C 0.4375(8) 0.1549(3) -0.4898(4)
C2A C 0.4482(8) 0.3016(3) -0.3739(4)
C4A C 0.4194(8) 0.2042(3) -0.4906(4)
C5A C 0.4409(7) 0.2284(3) -0.4323(4)
H1A H 0.4649 0.2146 -0.3929
C6A C 0.4252(8) 0.2739(3) -0.4346(4)
C7A C 0.3838(7) 0.2944(3) -0.4920(4)
H2A H 0.3703 0.3246 -0.4918
C8A C 0.3624(8) 0.2698(3) -0.5498(4)
C9A C 0.3827(8) 0.2243(3) -0.5490(4)
H3A H 0.3714 0.2076 -0.5877
C10A C 0.2979(14) 0.3357(4) -0.6170(5)
C11A C 0.2713(8) 0.2676(3) -0.6656(5)
C12A C 0.2364(12) 0.3413(4) -0.6810(5)
C13A C 0.2209(8) 0.3025(4) -0.7086(5)
C14A C 0.1649(10) 0.2980(4) -0.7681(7)
H4A H 0.1536 0.2704 -0.7876
C15A C 0.1250(10) 0.3369(5) -0.7988(7)
H5A H 0.0864 0.3349 -0.8394
C16A C 0.1417(15) 0.3771(6) -0.7702(7)
H6A H 0.1165 0.4025 -0.7918
C17A C 0.1941(15) 0.3803(5) -0.7113(7)
H7A H 0.2028 0.4076 -0.6903
C26A C 0.6357(8) 0.0750(3) -0.5013(5)
H12A H 0.6742 0.0495 -0.4835
H13A H 0.6394 0.0744 -0.5497
C27A C 0.6860(13) 0.1141(6) -0.4765(9)
H14A H 0.6798 0.1151 -0.4283
H15A H 0.6481 0.1395 -0.4952
C28A C 0.8068(17) 0.1187(8) -0.4925(12)
H16A H 0.8214 0.1061 -0.5358
H17A H 0.8523 0.1048 -0.4583
C29A C 0.3146(8) 0.0507(3) -0.4783(5)
H18A H 0.3123 0.0194 -0.4678
H19A H 0.2807 0.0662 -0.4424
C30A C 0.2477(10) 0.0578(5) -0.5412(7)
H20A H 0.2755 0.0408 -0.5778
H21A H 0.2473 0.0889 -0.5535
C31A C 0.1291(15) 0.0415(7) -0.5258(11)
H22A H 0.1313 0.0112 -0.5099
H23A H 0.1006 0.0598 -0.4909
C32A C 0.069(2) 0.0440(9) -0.5785(13)
H24A H -0.0007 0.0340 -0.5689
H25A H 0.0976 0.0259 -0.6129
H26A H 0.0659 0.0742 -0.5935
C33A C 0.6517(11) 0.3560(4) -0.2707(7)
H27A H 0.7023 0.3361 -0.2485
H28A H 0.6598 0.3525 -0.3185
C34A C 0.685(2) 0.4019(9) -0.2531(14)
H29A H 0.6626 0.4098 -0.2088
H30A H 0.7619 0.4047 -0.2538
C35A C 0.641(3) 0.4265(10) -0.2974(18)
H31A H 0.5654 0.4292 -0.2892
H32A H 0.6478 0.4136 -0.3414
C36A C 0.699(3) 0.4770(13) -0.2940(19)
H33A H 0.6665 0.4958 -0.3278
H34A H 0.7732 0.4740 -0.3016
H35A H 0.6897 0.4899 -0.2507
C37A C 0.823(3) 0.1787(11) -0.492(2)
H36A H 0.8943 0.1861 -0.5030
H37A H 0.8083 0.1901 -0.4488
H38A H 0.7742 0.1916 -0.5252
Sn1D Sn 0.47544(5) -0.069936(16) 0.02414(2)
Sn1E Sn 0.52456(5) -0.069936(16) -0.52414(2)
O6D O 0.5187(5) 0.01130(18) 0.0717(2)
O6E O 0.4813(5) 0.01130(18) -0.5717(2)
O10 O 0.488(3) 0.4189(11) 0.1913(19)
loop_
_geom_bond_atom_site_label_1
_geom_bond_atom_site_label_2
_geom_bond_site_symmetry_1
_geom_bond_site_symmetry_2
Sn1 O1 1_555 1_555
Sn2 O3 1_555 1_555
O1 C1 1_555 1_555
O2 Sn1 1_555 1_555
O3 C2 1_555 1_555
O4 Sn2 1_555 1_555
O5 Sn1 1_555 1_555
O6 Sn1 1_555 1_555
O7 C10 1_555 1_555
O8 C11 1_555 1_555
O9 C21 1_555 1_555
N1 C8 1_555 1_555
N2 C21 1_555 1_555
C1 O2 1_555 1_555
C2 O4 1_555 1_555
C3 O5 1_555 1_555
C4 C1 1_555 1_555
C5 C4 1_555 1_555
H1 C5 1_555 1_555
C6 C2 1_555 1_555
C7 C6 1_555 1_555
H2 C7 1_555 1_555
C8 C7 1_555 1_555
C9 C4 1_555 1_555
H3 C9 1_555 1_555
C10 N1 1_555 1_555
C11 N1 1_555 1_555
C12 C10 1_555 1_555
C13 C11 1_555 1_555
C14 C13 1_555 1_555
H4 C14 1_555 1_555
C15 C14 1_555 1_555
H5 C15 1_555 1_555
C16 C15 1_555 1_555
H6 C16 1_555 1_555
C17 C12 1_555 1_555
H7 C17 1_555 1_555
C18 H8 1_555 1_555
C19 C18 1_555 1_555
H9 C19 1_555 1_555
C20 C19 1_555 1_555
C21 C20 1_555 1_555
C22 N2 1_555 1_555
C23 C22 1_555 1_555
H10 C23 1_555 1_555
C24 C3 1_555 1_555
C25 C24 1_555 1_555
H11 C25 1_555 1_555
C26 Sn1 1_555 1_555
H12 C26 1_555 1_555
H13 C26 1_555 1_555
C27 C26 1_555 1_555
H14 C27 1_555 1_555
H15 C27 1_555 1_555
C28 C27 1_555 1_555
H16 C28 1_555 1_555
H17 C28 1_555 1_555
C29 Sn1 1_555 1_555
H18 C29 1_555 1_555
H19 C29 1_555 1_555
C30 C29 1_555 1_555
H20 C30 1_555 1_555
H21 C30 1_555 1_555
C31 C30 1_555 1_555
H22 C31 1_555 1_555
H23 C31 1_555 1_555
C32 C31 1_555 1_555
H24 C32 1_555 1_555
H25 C32 1_555 1_555
H26 C32 1_555 1_555
C33 Sn2 1_555 1_555
H27 C33 1_555 1_555
H28 C33 1_555 1_555
C34 C33 1_555 1_555
H29 C34 1_555 1_555
H30 C34 1_555 1_555
C35 C34 1_555 1_555
H31 C35 1_555 1_555
H32 C35 1_555 1_555
C36 C35 1_555 1_555
H33 C36 1_555 1_555
H34 C36 1_555 1_555
H35 C36 1_555 1_555
C37 C28 1_555 1_555
H36 C37 1_555 1_555
H37 C37 1_555 1_555
H38 C37 1_555 1_555
O5A C3A 1_555 1_555
O6A C3A 1_555 1_555
O9A C21A 1_555 1_555
C3A C24A 1_555 1_555
C18A C18 1_555 1_555
H8A C18A 1_555 1_555
C19A C18A 1_555 1_555
H9A C19A 1_555 1_555
C20A C20 1_555 1_555
C21A N2 1_555 1_555
C23A C22 1_555 1_555
H10A C23A 1_555 1_555
C24A C25 1_555 1_555
Sn1A O5A 1_555 1_555
O1A Sn1A 1_555 1_555
O2A Sn1A 1_555 1_555
O3A Sn2 1_555 1_555
O4A Sn2 1_555 1_555
O7A C10A 1_555 1_555
O8A C11A 1_555 1_555
N1A C8A 1_555 1_555
C1A O1A 1_555 1_555
C2A O3A 1_555 1_555
C4A C1A 1_555 1_555
C5A C4A 1_555 1_555
H1A C5A 1_555 1_555
C6A C2A 1_555 1_555
C7A C6A 1_555 1_555
H2A C7A 1_555 1_555
C8A C7A 1_555 1_555
C9A C4A 1_555 1_555
H3A C9A 1_555 1_555
C10A N1A 1_555 1_555
C11A N1A 1_555 1_555
C12A C10A 1_555 1_555
C13A C11A 1_555 1_555
C14A C13A 1_555 1_555
H4A C14A 1_555 1_555
C15A C14A 1_555 1_555
H5A C15A 1_555 1_555
C16A C15A 1_555 1_555
H6A C16A 1_555 1_555
C17A C12A 1_555 1_555
H7A C17A 1_555 1_555
C26A Sn1A 1_555 1_555
H12A C26A 1_555 1_555
H13A C26A 1_555 1_555
C27A C26A 1_555 1_555
H14A C27A 1_555 1_555
H15A C27A 1_555 1_555
C28A C27A 1_555 1_555
H16A C28A 1_555 1_555
H17A C28A 1_555 1_555
C29A Sn1A 1_555 1_555
H18A C29A 1_555 1_555
H19A C29A 1_555 1_555
C30A C29A 1_555 1_555
H20A C30A 1_555 1_555
H21A C30A 1_555 1_555
C31A C30A 1_555 1_555
H22A C31A 1_555 1_555
H23A C31A 1_555 1_555
C32A C31A 1_555 1_555
H24A C32A 1_555 1_555
H25A C32A 1_555 1_555
H26A C32A 1_555 1_555
C33A Sn2 1_555 1_555
H27A C33A 1_555 1_555
H28A C33A 1_555 1_555
C34A C33A 1_555 1_555
H29A C34A 1_555 1_555
H30A C34A 1_555 1_555
C35A C34A 1_555 1_555
H31A C35A 1_555 1_555
H32A C35A 1_555 1_555
C36A C35A 1_555 1_555
H33A C36A 1_555 1_555
H34A C36A 1_555 1_555
H35A C36A 1_555 1_555
C37A C28A 1_555 1_555
H36A C37A 1_555 1_555
H37A C37A 1_555 1_555
H38A C37A 1_555 1_555
Sn1D O6 1_555 1_555
Sn1E O6A 1_555 1_555
O6D Sn1 1_555 1_555
O6E Sn1A 1_555 1_555
O6 C3 1_555 1_555
C5 C6 1_555 1_555
C8 C9 1_555 1_555
C12 C13 1_555 1_555
C16 C17 1_555 1_555
C23 C24 1_555 1_555
O6A Sn1A 1_555 1_555
C19A C20A 1_555 1_555
C20A C21A 1_555 1_555
C23A C24A 1_555 1_555
O2A C1A 1_555 1_555
O4A C2A 1_555 1_555
C5A C6A 1_555 1_555
C8A C9A 1_555 1_555
C12A C13A 1_555 1_555
C16A C17A 1_555 1_555
Sn1D O6D 1_555 1_555
Sn1E O6E 1_555 1_555

#END
