
#######################################################################
#
#                 Cambridge Crystallographic Data Centre
#                                CCDC 
#
#######################################################################
#
# If this CIF has been generated from an entry in the Cambridge 
# Structural Database, then it will include bibliographic, chemical, 
# crystal, experimental, refinement or atomic coordinate data resulting 
# from the CCDC's data processing and validation procedures.
#
#######################################################################

data_SIXRAT
_symmetry_cell_setting           triclinic
_symmetry_space_group_name_H-M   'P -1'
_symmetry_Int_Tables_number      2
_space_group_name_Hall           '-P 1'
loop_
_symmetry_equiv_pos_site_id
_symmetry_equiv_pos_as_xyz
1 x,y,z
2 -x,-y,-z
_cell_length_a                   7.983(6)
_cell_length_b                   10.067(7)
_cell_length_c                   16.564(12)
_cell_angle_alpha                84.801(8)
_cell_angle_beta                 87.554(9)
_cell_angle_gamma                88.938(9)
_cell_volume                     1324.34
loop_
_atom_site_label
_atom_site_type_symbol
_atom_site_fract_x
_atom_site_fract_y
_atom_site_fract_z
Cu1 Cu 0.70118(8) 0.78663(6) 0.72000(4)
N1 N 0.4965(5) 0.7523(4) 0.6593(2)
N2 N 0.8791(5) 0.3931(4) 0.7187(3)
N3 N 0.7922(5) 0.6015(4) 0.6953(3)
N4 N 1.4953(6) 0.1685(4) 0.7469(3)
N5 N 1.5987(5) -0.0357(4) 0.7530(3)
N6 N 1.0627(6) 0.8406(4) 0.8851(3)
N7 N 0.9005(5) 0.8204(4) 0.7830(3)
O1 O 0.5111(5) 0.6738(4) 0.8201(2)
O2 O 0.2576(6) 0.5807(4) 0.8212(2)
O3 O 0.7630(4) 0.8808(4) 0.5899(2)
O4 O 0.6571(5) 0.8837(4) 0.4666(2)
C1 C 0.3790(8) 0.6449(5) 0.7878(3)
C2 C 0.3638(6) 0.6893(5) 0.6977(3)
C3 C 0.2195(7) 0.6693(5) 0.6578(3)
H9 H 0.1295 0.6249 0.6849
C4 C 0.2105(7) 0.7163(6) 0.5767(4)
H10 H 0.1129 0.7067 0.5492
C5 C 0.3486(7) 0.7774(6) 0.5374(3)
H11 H 0.3459 0.8071 0.4827
C6 C 0.4908(6) 0.7941(5) 0.5801(3)
C7 C 0.6503(7) 0.8589(5) 0.5418(3)
C8 C 0.8414(7) 0.5087(5) 0.7512(3)
H12 H 0.8491 0.5214 0.8058
C9 C 0.8007(7) 0.5417(6) 0.6235(4)
H13 H 0.7738 0.5831 0.5731
C10 C 0.8540(8) 0.4142(6) 0.6374(4)
H14 H 0.8704 0.3525 0.5992
C11 C 1.5417(7) 0.0656(5) 0.7043(4)
H15 H 1.5349 0.0654 0.6484
C12 C 1.5869(7) 0.0053(5) 0.8296(3)
H16 H 1.6170 -0.0457 0.8766
C13 C 1.5242(7) 0.1322(6) 0.8264(4)
H17 H 1.5048 0.1838 0.8698
C14 C 0.9433(7) 0.2696(5) 0.7631(4)
H18 H 0.9237 0.1943 0.7324
H19 H 0.8825 0.2549 0.8150
C15 C 1.1306(7) 0.2777(5) 0.7772(4)
H20 H 1.1494 0.3538 0.8075
H21 H 1.1653 0.1981 0.8101
C16 C 1.2377(7) 0.2907(6) 0.7002(4)
H22 H 1.2030 0.3708 0.6678
H23 H 1.2170 0.2153 0.6697
C17 C 1.4240(8) 0.2974(6) 0.7119(5)
H24 H 1.4807 0.3224 0.6600
H25 H 1.4446 0.3660 0.7477
C18 C 0.9233(7) 0.7879(5) 0.8613(3)
H26 H 0.8509 0.7348 0.8952
C19 C 1.0344(7) 0.8986(5) 0.7562(4)
H27 H 1.0535 0.9367 0.7034
C20 C 1.1338(7) 0.9111(5) 0.8189(4)
H28 H 1.2325 0.9591 0.8171
C21 C 1.1147(9) 0.8370(6) 0.9692(4)
H29 H 1.2329 0.8136 0.9712
H30 H 1.0526 0.7687 1.0023
C22 C 1.0845(10) 0.9700(8) 1.0035(5)
H31 H 1.1095 0.9593 1.0605
H32 H 1.1641 1.0329 0.9767
Cu1_2 Cu -0.29882(8) 1.78663(6) 0.72000(4)
Cu1_3 Cu 1.70118(8) -0.21337(6) 0.72000(4)
Cu1A Cu 1.29882(8) 1.21337(6) 1.28000(4)
N1_2 N -0.5035(5) 1.7523(4) 0.6593(2)
N2_2 N -0.1209(5) 1.3931(4) 0.7187(3)
N3_2 N -0.2078(5) 1.6015(4) 0.6953(3)
N4_2 N 0.4953(6) 1.1685(4) 0.7469(3)
N5_2 N 0.5987(5) 0.9643(4) 0.7530(3)
N5_3 N -0.4013(5) 1.9643(4) 0.7530(3)
N6A N 0.9373(6) 1.1594(4) 1.1149(3)
N7A N 1.0995(5) 1.1796(4) 1.2170(3)
N7_2 N -0.0995(5) 1.8204(4) 0.7830(3)
O1_2 O -0.4889(5) 1.6738(4) 0.8201(2)
O2_2 O -0.7424(6) 1.5807(4) 0.8212(2)
O3_2 O -0.2370(4) 1.8808(4) 0.5899(2)
O4_2 O -0.3429(5) 1.8837(4) 0.4666(2)
C1_2 C -0.6210(8) 1.6449(5) 0.7878(3)
C2_2 C -0.6362(6) 1.6893(5) 0.6977(3)
C3_2 C -0.7805(7) 1.6693(5) 0.6578(3)
H9_2 H -0.8705 1.6249 0.6849
C4_2 C -0.7895(7) 1.7163(6) 0.5767(4)
H10_2 H -0.8871 1.7067 0.5492
C5_2 C -0.6514(7) 1.7774(6) 0.5374(3)
H11_2 H -0.6541 1.8071 0.4827
C6_2 C -0.5092(6) 1.7941(5) 0.5801(3)
C7_2 C -0.3497(7) 1.8589(5) 0.5418(3)
C8_2 C -0.1586(7) 1.5087(5) 0.7512(3)
H12_2 H -0.1509 1.5214 0.8058
C9_2 C -0.1993(7) 1.5417(6) 0.6235(4)
H13_2 H -0.2262 1.5831 0.5731
C10_2 C -0.1460(8) 1.4142(6) 0.6374(4)
H14_2 H -0.1296 1.3525 0.5992
C11_2 C 0.5417(7) 1.0656(5) 0.7043(4)
H15_2 H 0.5349 1.0654 0.6484
C12_2 C 0.5869(7) 1.0053(5) 0.8296(3)
H16_2 H 0.6170 0.9543 0.8766
C13_2 C 0.5242(7) 1.1322(6) 0.8264(4)
H17_2 H 0.5048 1.1838 0.8698
C14_2 C -0.0567(7) 1.2696(5) 0.7631(4)
H18_2 H -0.0763 1.1943 0.7324
H19_2 H -0.1175 1.2549 0.8150
C15_2 C 0.1306(7) 1.2777(5) 0.7772(4)
H20_2 H 0.1494 1.3538 0.8075
H21_2 H 0.1653 1.1981 0.8101
C16_2 C 0.2377(7) 1.2907(6) 0.7002(4)
H22_2 H 0.2030 1.3708 0.6678
H23_2 H 0.2170 1.2153 0.6697
C17_2 C 0.4240(8) 1.2974(6) 0.7119(5)
H24_2 H 0.4807 1.3224 0.6600
H25_2 H 0.4446 1.3660 0.7477
C18A C 1.0767(7) 1.2121(5) 1.1387(3)
H26A H 1.1491 1.2652 1.1048
C19A C 0.9656(7) 1.1014(5) 1.2438(4)
H27A H 0.9465 1.0633 1.2966
C20A C 0.8662(7) 1.0889(5) 1.1811(4)
H28A H 0.7675 1.0409 1.1829
C21A C 0.8853(9) 1.1630(6) 1.0308(4)
H29A H 0.7671 1.1864 1.0288
H30A H 0.9474 1.2313 0.9977
C22A C 0.9155(10) 1.0300(8) 0.9965(5)
H31A H 0.8905 1.0407 0.9395
H32A H 0.8359 0.9671 1.0233
O5 O 0.9779(6) 0.1078(4) 0.5812(2)
H1 H 0.9419 0.0291 0.5796
H2 H 1.0749 0.1081 0.5579
O6 O 0.1681(10) 0.4794(6) 0.9748(3)
H3 H 0.2116 0.5311 0.9365
H4 H 0.0669 0.5059 0.9802
O7 O 0.5677(9) 0.7337(7) 0.9809(4)
H5 H 0.5491 0.6970 0.9373
H6 H 0.5098 0.6878 1.0172
O8 O 0.6179(10) 0.4231(6) 0.9119(4)
H7 H 0.5907 0.4847 0.8761
H8 H 0.6546 0.4636 0.9502
loop_
_geom_bond_atom_site_label_1
_geom_bond_atom_site_label_2
_geom_bond_site_symmetry_1
_geom_bond_site_symmetry_2
Cu1 N1 1_555 1_555
N1 C2 1_555 1_555
N2 C8 1_555 1_555
N3 Cu1 1_555 1_555
N4 C11 1_555 1_555
N5 C11 1_555 1_555
N6 C18 1_555 1_555
N7 Cu1 1_555 1_555
O1 Cu1 1_555 1_555
O2 C1 1_555 1_555
O3 Cu1 1_555 1_555
O4 C7 1_555 1_555
O5 H1 1_555 1_555
H2 O5 1_555 1_555
O6 H3 1_555 1_555
H4 O6 1_555 1_555
O7 H5 1_555 1_555
H6 O7 1_555 1_555
O8 H7 1_555 1_555
H8 O8 1_555 1_555
C1 O1 1_555 1_555
C2 C1 1_555 1_555
C3 C2 1_555 1_555
H9 C3 1_555 1_555
C4 C3 1_555 1_555
H10 C4 1_555 1_555
C5 C4 1_555 1_555
H11 C5 1_555 1_555
C6 N1 1_555 1_555
C7 O3 1_555 1_555
C8 N3 1_555 1_555
H12 C8 1_555 1_555
C9 N3 1_555 1_555
H13 C9 1_555 1_555
C10 N2 1_555 1_555
H14 C10 1_555 1_555
C11 H15 1_555 1_555
C12 N5 1_555 1_555
H16 C12 1_555 1_555
C13 N4 1_555 1_555
H17 C13 1_555 1_555
C14 N2 1_555 1_555
H18 C14 1_555 1_555
H19 C14 1_555 1_555
C15 C14 1_555 1_555
H20 C15 1_555 1_555
H21 C15 1_555 1_555
C16 C15 1_555 1_555
H22 C16 1_555 1_555
H23 C16 1_555 1_555
C17 N4 1_555 1_555
H24 C17 1_555 1_555
H25 C17 1_555 1_555
C18 N7 1_555 1_555
H26 C18 1_555 1_555
C19 N7 1_555 1_555
H27 C19 1_555 1_555
C20 N6 1_555 1_555
H28 C20 1_555 1_555
C21 N6 1_555 1_555
H29 C21 1_555 1_555
H30 C21 1_555 1_555
C22 C21 1_555 1_555
H31 C22 1_555 1_555
H32 C22 1_555 1_555
Cu1_2 N1_2 1_555 1_555
Cu1_3 N5 1_555 1_555
Cu1A N7A 1_555 1_555
N1_2 C2_2 1_555 1_555
N2_2 C8_2 1_555 1_555
N3_2 Cu1_2 1_555 1_555
N4_2 C11_2 1_555 1_555
N5_2 Cu1 1_555 1_555
N5_3 Cu1_2 1_555 1_555
N6A C18A 1_555 1_555
N7A C18A 1_555 1_555
N7_2 Cu1_2 1_555 1_555
O1_2 Cu1_2 1_555 1_555
O2_2 C1_2 1_555 1_555
O3_2 Cu1_2 1_555 1_555
O4_2 C7_2 1_555 1_555
C1_2 O1_2 1_555 1_555
C2_2 C1_2 1_555 1_555
C3_2 C2_2 1_555 1_555
H9_2 C3_2 1_555 1_555
C4_2 C3_2 1_555 1_555
H10_2 C4_2 1_555 1_555
C5_2 C4_2 1_555 1_555
H11_2 C5_2 1_555 1_555
C6_2 N1_2 1_555 1_555
C7_2 O3_2 1_555 1_555
C8_2 N3_2 1_555 1_555
H12_2 C8_2 1_555 1_555
C9_2 N3_2 1_555 1_555
H13_2 C9_2 1_555 1_555
C10_2 N2_2 1_555 1_555
H14_2 C10_2 1_555 1_555
C11_2 N5_2 1_555 1_555
H15_2 C11_2 1_555 1_555
C12_2 N5_2 1_555 1_555
H16_2 C12_2 1_555 1_555
C13_2 N4_2 1_555 1_555
H17_2 C13_2 1_555 1_555
C14_2 N2_2 1_555 1_555
H18_2 C14_2 1_555 1_555
H19_2 C14_2 1_555 1_555
C15_2 C14_2 1_555 1_555
H20_2 C15_2 1_555 1_555
H21_2 C15_2 1_555 1_555
C16_2 C15_2 1_555 1_555
H22_2 C16_2 1_555 1_555
H23_2 C16_2 1_555 1_555
C17_2 N4_2 1_555 1_555
H24_2 C17_2 1_555 1_555
H25_2 C17_2 1_555 1_555
C18A H26A 1_555 1_555
C19A N7A 1_555 1_555
H27A C19A 1_555 1_555
C20A N6A 1_555 1_555
H28A C20A 1_555 1_555
C21A N6A 1_555 1_555
H29A C21A 1_555 1_555
H30A C21A 1_555 1_555
C22A C22 1_555 1_555
H31A C22A 1_555 1_555
H32A C22A 1_555 1_555
C5 C6 1_555 1_555
C6 C7 1_555 1_555
C9 C10 1_555 1_555
C12 C13 1_555 1_555
C16 C17 1_555 1_555
C19 C20 1_555 1_555
C5_2 C6_2 1_555 1_555
C6_2 C7_2 1_555 1_555
C9_2 C10_2 1_555 1_555
C12_2 C13_2 1_555 1_555
C16_2 C17_2 1_555 1_555
C19A C20A 1_555 1_555
C21A C22A 1_555 1_555

#END
