
#######################################################################
#
#                 Cambridge Crystallographic Data Centre
#                                CCDC 
#
#######################################################################
#
# If this CIF has been generated from an entry in the Cambridge 
# Structural Database, then it will include bibliographic, chemical, 
# crystal, experimental, refinement or atomic coordinate data resulting 
# from the CCDC's data processing and validation procedures.
#
#######################################################################

data_SIXROH
_symmetry_cell_setting           monoclinic
_symmetry_space_group_name_H-M   'P 21/c'
_symmetry_Int_Tables_number      14
_space_group_name_Hall           '-P 2ybc'
loop_
_symmetry_equiv_pos_site_id
_symmetry_equiv_pos_as_xyz
1 x,y,z
2 -x,1/2+y,1/2-z
3 -x,-y,-z
4 x,1/2-y,1/2+z
_cell_length_a                   8.384(2)
_cell_length_b                   22.108(6)
_cell_length_c                   8.337(2)
_cell_angle_alpha                90
_cell_angle_beta                 116.420(3)
_cell_angle_gamma                90
_cell_volume                     1383.9
loop_
_atom_site_label
_atom_site_type_symbol
_atom_site_fract_x
_atom_site_fract_y
_atom_site_fract_z
Co1 Co 0.30413(7) 0.16953(2) 0.25609(7)
N1 N -0.1192(5) 0.10816(15) -0.2317(5)
N2 N 0.1225(5) 0.14310(16) -0.0065(5)
N3 N -0.2800(5) 0.01733(15) -0.3694(5)
N4 N -0.2803(5) -0.08200(15) -0.3502(5)
O1 O 0.5227(4) 0.13846(13) 0.2218(4)
O2 O 0.7934(4) 0.14520(14) 0.2417(4)
O3 O 0.3395(4) 0.25192(13) 0.1446(4)
O4 O 0.4869(4) 0.30149(13) 0.0194(4)
O5 O 0.1008(4) 0.20411(13) 0.3103(4)
H1 H 0.1274 0.2194 0.4127
H2 H 0.0022 0.1859 0.2790
C1 C 0.6572(5) 0.16855(19) 0.2396(5)
C2 C 0.6547(6) 0.23699(19) 0.2632(6)
H4 H 0.6742 0.2458 0.3845
H5 H 0.7518 0.2550 0.2464
C3 C 0.4796(6) 0.26572(18) 0.1319(6)
C4 C -0.0355(6) 0.11805(19) -0.0558(6)
H6 H -0.0826 0.1084 0.0230
C5 C 0.1381(7) 0.1500(2) -0.1626(6)
H7 H 0.2354 0.1670 -0.1714
C6 C -0.0092(7) 0.1286(2) -0.3011(6)
H8 H -0.0316 0.1278 -0.4208
C7 C -0.2913(6) -0.03035(18) -0.2762(6)
H9 H -0.3051 -0.0275 -0.1718
C8 C -0.2618(7) -0.0054(2) -0.5133(6)
H10 H -0.2513 0.0168 -0.6029
C9 C -0.2623(7) -0.0663(2) -0.4997(6)
H11 H -0.2519 -0.0934 -0.5799
C10 C -0.2928(6) 0.08083(19) -0.3294(7)
H12 H -0.3583 0.1027 -0.4405
H13 H -0.3587 0.0841 -0.2591
Co1B Co -0.30413(7) -0.16953(2) -0.25609(7)
Co1C Co 0.30413(7) 0.33047(2) -0.24391(7)
N4B N 0.2803(5) 0.08200(15) 0.3502(5)
O4C O 0.4869(4) 0.19851(13) 0.5194(4)
O6 O 0.5858(16) 0.0464(4) -0.0058(12)
H3 H 0.5625 0.0767 0.0366
C11 C 0.748(2) 0.0266(5) 0.1055(17)
H14 H 0.7931 0.0016 0.0408
H15 H 0.7417 0.0036 0.2000
H16 H 0.8261 0.0606 0.1556
loop_
_geom_bond_atom_site_label_1
_geom_bond_atom_site_label_2
_geom_bond_site_symmetry_1
_geom_bond_site_symmetry_2
Co1 N2 1_555 1_555
N1 C4 1_555 1_555
N2 C4 1_555 1_555
N3 C7 1_555 1_555
N4 C7 1_555 1_555
O1 Co1 1_555 1_555
O2 C1 1_555 1_555
O3 Co1 1_555 1_555
O4 C3 1_555 1_555
O5 Co1 1_555 1_555
H1 O5 1_555 1_555
H2 O5 1_555 1_555
O6 H3 1_555 1_555
C1 O1 1_555 1_555
C2 C1 1_555 1_555
H4 C2 1_555 1_555
H5 C2 1_555 1_555
C3 O3 1_555 1_555
C4 H6 1_555 1_555
C5 N2 1_555 1_555
H7 C5 1_555 1_555
C6 N1 1_555 1_555
H8 C6 1_555 1_555
C7 H9 1_555 1_555
C8 N3 1_555 1_555
H10 C8 1_555 1_555
C9 N4 1_555 1_555
H11 C9 1_555 1_555
C10 N1 1_555 1_555
H12 C10 1_555 1_555
H13 C10 1_555 1_555
C11 O6 1_555 1_555
H14 C11 1_555 1_555
H15 C11 1_555 1_555
H16 C11 1_555 1_555
Co1B N4 1_555 1_555
Co1C O4 1_555 1_555
N4B Co1 1_555 1_555
O4C Co1 1_555 1_555
N3 C10 1_555 1_555
C2 C3 1_555 1_555
C5 C6 1_555 1_555
C8 C9 1_555 1_555

#END
