
#######################################################################
#
#                 Cambridge Crystallographic Data Centre
#                                CCDC 
#
#######################################################################
#
# If this CIF has been generated from an entry in the Cambridge 
# Structural Database, then it will include bibliographic, chemical, 
# crystal, experimental, refinement or atomic coordinate data resulting 
# from the CCDC's data processing and validation procedures.
#
#######################################################################

data_SIXRIB
_symmetry_cell_setting           monoclinic
_symmetry_space_group_name_H-M   'C 2/c'
_symmetry_Int_Tables_number      15
_space_group_name_Hall           '-C 2yn'
loop_
_symmetry_equiv_pos_site_id
_symmetry_equiv_pos_as_xyz
1 x,y,z
2 1/2+x,1/2+y,z
3 -x,y,1/2-z
4 1/2-x,1/2+y,1/2-z
5 -x,-y,-z
6 1/2-x,1/2-y,-z
7 x,-y,1/2+z
8 1/2+x,1/2-y,1/2+z
_cell_length_a                   10.502(6)
_cell_length_b                   22.614(13)
_cell_length_c                   7.794(5)
_cell_angle_alpha                90
_cell_angle_beta                 123.870(6)
_cell_angle_gamma                90
_cell_volume                     1536.91
loop_
_atom_site_label
_atom_site_type_symbol
_atom_site_fract_x
_atom_site_fract_y
_atom_site_fract_z
Co1 Co 0.0000 0.43211(2) 0.2500
N1 N 0.0000 0.34100(14) 0.2500
N2 N 0.4162(3) 0.38932(11) 0.3096(4)
N3 N 0.2222(3) 0.43047(11) 0.2985(4)
O1 O -0.1046(2) 0.40799(9) -0.0713(3)
O2 O -0.1921(3) 0.33114(11) -0.2876(4)
O3 O 0.0000 0.52117(12) 0.2500
H1 H -0.0426 0.5439 0.2905
C1 C -0.1262(3) 0.35296(14) -0.1139(5)
C2 C -0.0626(3) 0.31231(13) 0.0716(4)
C3 C -0.0657(4) 0.25156(14) 0.0661(5)
H2 H -0.1110 0.2315 -0.0588
C4 C 0.0000 0.2210(2) 0.2500
H3 H 0.0000 0.1799 0.2500
C5 C 0.2636(3) 0.39645(14) 0.1997(5)
H4 H 0.1957 0.3797 0.0706
C6 C 0.3561(3) 0.44549(14) 0.4776(5)
H5 H 0.3634 0.4697 0.5791
C7 C 0.4768(3) 0.42056(14) 0.4880(5)
H6 H 0.5798 0.4240 0.5946
C8 C 0.5000 0.35320(19) 0.2500
H7 H 0.5714 0.3280 0.3648
H8 H 0.4286 0.3280 0.1352
Co1_2 Co 1.0000 0.43211(2) 0.2500
N2B N 0.5838(3) 0.38932(11) 0.1904(4)
N3B N 0.7778(3) 0.43047(11) 0.2015(4)
N3B_2 N -0.2222(3) 0.43047(11) 0.2015(4)
O1B O 0.1046(2) 0.40799(9) 0.5713(3)
O2B O 0.1921(3) 0.33114(11) 0.7876(4)
H1B H 0.0426 0.5439 0.2095
C1B C 0.1262(3) 0.35296(14) 0.6139(5)
C2B C 0.0626(3) 0.31231(13) 0.4284(4)
C3B C 0.0657(4) 0.25156(14) 0.4339(5)
H2B H 0.1110 0.2315 0.5588
C5B C 0.7364(3) 0.39645(14) 0.3003(5)
H4B H 0.8043 0.3797 0.4294
C6B C 0.6439(3) 0.44549(14) 0.0224(5)
H5B H 0.6366 0.4697 -0.0791
C7B C 0.5232(3) 0.42056(14) 0.0120(5)
H6B H 0.4202 0.4240 -0.0946
loop_
_geom_bond_atom_site_label_1
_geom_bond_atom_site_label_2
_geom_bond_site_symmetry_1
_geom_bond_site_symmetry_2
Co1 N1 1_555 1_555
N1 C2 1_555 1_555
N2 C5 1_555 1_555
N3 Co1 1_555 1_555
O1 Co1 1_555 1_555
O2 C1 1_555 1_555
O3 Co1 1_555 1_555
H1 O3 1_555 1_555
C1 O1 1_555 1_555
C2 C1 1_555 1_555
C3 C2 1_555 1_555
H2 C3 1_555 1_555
C4 C3 1_555 1_555
H3 C4 1_555 1_555
C5 N3 1_555 1_555
H4 C5 1_555 1_555
C6 N3 1_555 1_555
H5 C6 1_555 1_555
C7 N2 1_555 1_555
H6 C7 1_555 1_555
C8 N2 1_555 1_555
H7 C8 1_555 1_555
H8 C8 1_555 1_555
Co1_2 N3B 1_555 1_555
N2B C8 1_555 1_555
N3B C5B 1_555 1_555
N3B_2 Co1 1_555 1_555
O1B Co1 1_555 1_555
O2B C1B 1_555 1_555
H1B O3 1_555 1_555
C1B O1B 1_555 1_555
C2B N1 1_555 1_555
C3B C4 1_555 1_555
H2B C3B 1_555 1_555
C5B N2B 1_555 1_555
H4B C5B 1_555 1_555
C6B N3B 1_555 1_555
H5B C6B 1_555 1_555
C7B N2B 1_555 1_555
H6B C7B 1_555 1_555
C6 C7 1_555 1_555
C1B C2B 1_555 1_555
C2B C3B 1_555 1_555
C6B C7B 1_555 1_555

#END
