
#######################################################################
#
#                 Cambridge Crystallographic Data Centre
#                                CCDC 
#
#######################################################################
#
# If this CIF has been generated from an entry in the Cambridge 
# Structural Database, then it will include bibliographic, chemical, 
# crystal, experimental, refinement or atomic coordinate data resulting 
# from the CCDC's data processing and validation procedures.
#
#######################################################################

data_SIXSUO
_symmetry_cell_setting           triclinic
_symmetry_space_group_name_H-M   'P -1'
_symmetry_Int_Tables_number      2
_space_group_name_Hall           '-P 1'
loop_
_symmetry_equiv_pos_site_id
_symmetry_equiv_pos_as_xyz
1 x,y,z
2 -x,-y,-z
_cell_length_a                   6.1257(14)
_cell_length_b                   12.567(3)
_cell_length_c                   14.045(3)
_cell_angle_alpha                113.872(4)
_cell_angle_beta                 98.562(4)
_cell_angle_gamma                96.402(4)
_cell_volume                     959.895
loop_
_atom_site_label
_atom_site_type_symbol
_atom_site_fract_x
_atom_site_fract_y
_atom_site_fract_z
Cd1 Cd 0.79756(4) 0.23508(2) 0.246034(18)
C1 C 0.8009(6) -0.3411(3) 0.3455(3)
C2 C 0.8634(6) -0.2815(3) 0.2772(3)
C3 C 1.0830(6) -0.2334(3) 0.2862(3)
H1 H 1.1968 -0.2396 0.3343
C4 C 1.1368(6) -0.1760(3) 0.2248(3)
H2 H 1.2866 -0.1452 0.2317
C5 C 0.9733(6) -0.1635(3) 0.1537(3)
C6 C 0.7513(6) -0.2121(3) 0.1448(3)
H3 H 0.6371 -0.2049 0.0973
C7 C 0.6984(6) -0.2704(3) 0.2049(3)
H4 H 0.5492 -0.3030 0.1969
C8 C 1.0298(6) -0.0978(3) 0.0888(3)
H5 H 0.9766 -0.1498 0.0135
H6 H 1.1917 -0.0740 0.1022
C9 C 0.9220(6) 0.0111(3) 0.1172(3)
C10 C 1.0972(6) 0.3962(3) 0.1622(3)
H7 H 1.2150 0.3888 0.2079
C11 C 1.1475(6) 0.4569(3) 0.1033(3)
H8 H 1.2961 0.4897 0.1102
C12 C 0.9776(6) 0.4693(3) 0.0337(2)
C13 C 0.7623(6) 0.4209(3) 0.0315(3)
H9 H 0.6405 0.4278 -0.0124
C14 C 0.7269(6) 0.3632(3) 0.0929(3)
H10 H 0.5794 0.3324 0.0898
C15 C 0.7849(6) 0.0636(3) 0.3628(3)
H11 H 0.9125 0.0484 0.3350
C16 C 0.7233(6) 0.0078(3) 0.4227(3)
H12 H 0.8073 -0.0449 0.4340
C17 C 0.5342(5) 0.0293(3) 0.4672(2)
C18 C 0.4196(6) 0.1086(3) 0.4455(3)
H13 H 0.2934 0.1272 0.4736
C19 C 0.4889(6) 0.1596(3) 0.3836(3)
H14 H 0.4055 0.2110 0.3695
N1 N 0.6708(5) 0.1395(2) 0.3420(2)
N2 N 0.8909(5) 0.3480(2) 0.1574(2)
O1 O 0.9460(5) -0.3239(3) 0.4261(2)
O2 O 0.6095(5) -0.4028(2) 0.3191(2)
O3 O 1.0373(4) 0.1078(2) 0.18894(18)
O4 O 0.7276(5) 0.0014(2) 0.0735(2)
O5 O 1.1085(4) 0.3367(2) 0.39009(18)
H15 H 1.0796 0.3353 0.4470
H16 H 1.1443 0.4084 0.4003
O6 O 0.6225(4) 0.3891(2) 0.34374(18)
H17 H 0.6723 0.4529 0.3400
H18 H 0.6459 0.4013 0.4088
O7 O 0.4357(4) 0.1774(2) 0.13726(18)
H19 H 0.3391 0.1614 0.1695
H20 H 0.4295 0.1162 0.0801
Cd1A Cd 0.20244(4) -0.23508(2) 0.753966(18)
Cd1A_2 Cd 1.20244(4) 0.76492(2) -0.246034(18)
C1A C 0.1991(6) 0.3411(3) 0.6545(3)
C2A C 0.1366(6) 0.2815(3) 0.7228(3)
C3A C -0.0830(6) 0.2334(3) 0.7138(3)
H1A H -0.1968 0.2396 0.6657
C4A C -0.1368(6) 0.1760(3) 0.7752(3)
H2A H -0.2866 0.1452 0.7683
C5A C 0.0267(6) 0.1635(3) 0.8463(3)
C6A C 0.2487(6) 0.2121(3) 0.8552(3)
H3A H 0.3629 0.2049 0.9027
C7A C 0.3016(6) 0.2704(3) 0.7951(3)
H4A H 0.4508 0.3030 0.8031
C8A C -0.0298(6) 0.0978(3) 0.9112(3)
H5A H 0.0234 0.1498 0.9865
H6A H -0.1917 0.0740 0.8978
C9A C 0.0780(6) -0.0111(3) 0.8828(3)
C10A C 0.9028(6) 0.6038(3) -0.1622(3)
H7A H 0.7850 0.6112 -0.2079
C11A C 0.8525(6) 0.5431(3) -0.1033(3)
H8A H 0.7039 0.5103 -0.1102
C12A C 1.0224(6) 0.5307(3) -0.0337(2)
C13A C 1.2377(6) 0.5791(3) -0.0315(3)
H9A H 1.3595 0.5722 0.0124
C14A C 1.2731(6) 0.6368(3) -0.0929(3)
H10A H 1.4206 0.6676 -0.0898
C15A C 0.2151(6) -0.0636(3) 0.6372(3)
H11A H 0.0875 -0.0484 0.6650
C16A C 0.2767(6) -0.0078(3) 0.5773(3)
H12A H 0.1927 0.0449 0.5660
C17A C 0.4658(5) -0.0293(3) 0.5328(2)
C18A C 0.5804(6) -0.1086(3) 0.5545(3)
H13A H 0.7066 -0.1272 0.5264
C19A C 0.5111(6) -0.1596(3) 0.6164(3)
H14A H 0.5945 -0.2110 0.6305
N1A N 0.3292(5) -0.1395(2) 0.6580(2)
N2A N 1.1091(5) 0.6520(2) -0.1574(2)
N2A_2 N 0.1091(5) -0.3480(2) 0.8426(2)
O1A O 0.0540(5) 0.3239(3) 0.5739(2)
O2A O 0.3905(5) 0.4028(2) 0.6809(2)
O3A O -0.0373(4) -0.1078(2) 0.81106(18)
O4A O 0.2724(5) -0.0014(2) 0.9265(2)
O5A O -0.1085(4) -0.3367(2) 0.60991(18)
H15A H -0.0796 -0.3353 0.5530
H16A H -0.1443 -0.4084 0.5997
O6A O 0.3775(4) -0.3891(2) 0.65626(18)
H17A H 0.3277 -0.4529 0.6600
H18A H 0.3541 -0.4013 0.5912
O7A O 0.5643(4) -0.1774(2) 0.86274(18)
H19A H 0.6609 -0.1614 0.8305
H20A H 0.5705 -0.1162 0.9199
O8 O 0.3010(4) 0.5692(2) 0.44032(19)
H21 H 0.3968 0.5786 0.4050
H22 H 0.1899 0.5997 0.4271
loop_
_geom_bond_atom_site_label_1
_geom_bond_atom_site_label_2
_geom_bond_site_symmetry_1
_geom_bond_site_symmetry_2
Cd1 N1 1_555 1_555
C1 C2 1_555 1_555
C2 C3 1_555 1_555
C3 H1 1_555 1_555
C4 C3 1_555 1_555
H2 C4 1_555 1_555
C5 C4 1_555 1_555
C6 C5 1_555 1_555
H3 C6 1_555 1_555
C7 C2 1_555 1_555
H4 C7 1_555 1_555
C8 C5 1_555 1_555
H5 C8 1_555 1_555
H6 C8 1_555 1_555
C9 C8 1_555 1_555
C10 H7 1_555 1_555
C11 C10 1_555 1_555
H8 C11 1_555 1_555
C12 C11 1_555 1_555
C13 C12 1_555 1_555
H9 C13 1_555 1_555
C14 C13 1_555 1_555
H10 C14 1_555 1_555
C15 H11 1_555 1_555
C16 C15 1_555 1_555
H12 C16 1_555 1_555
C17 C16 1_555 1_555
C18 C17 1_555 1_555
H13 C18 1_555 1_555
C19 C18 1_555 1_555
H14 C19 1_555 1_555
N1 C15 1_555 1_555
N2 Cd1 1_555 1_555
O1 C1 1_555 1_555
O2 C1 1_555 1_555
O3 Cd1 1_555 1_555
O4 C9 1_555 1_555
O5 Cd1 1_555 1_555
H15 O5 1_555 1_555
H16 O5 1_555 1_555
O6 Cd1 1_555 1_555
H17 O6 1_555 1_555
H18 O6 1_555 1_555
O7 Cd1 1_555 1_555
H19 O7 1_555 1_555
H20 O7 1_555 1_555
O8 H21 1_555 1_555
H22 O8 1_555 1_555
Cd1A N1A 1_555 1_555
Cd1A_2 N2A 1_555 1_555
C1A C2A 1_555 1_555
C2A C3A 1_555 1_555
C3A H1A 1_555 1_555
C4A C3A 1_555 1_555
H2A C4A 1_555 1_555
C5A C4A 1_555 1_555
C6A C5A 1_555 1_555
H3A C6A 1_555 1_555
C7A C2A 1_555 1_555
H4A C7A 1_555 1_555
C8A C5A 1_555 1_555
H5A C8A 1_555 1_555
H6A C8A 1_555 1_555
C9A C8A 1_555 1_555
C10A H7A 1_555 1_555
C11A C10A 1_555 1_555
H8A C11A 1_555 1_555
C12A C12 1_555 1_555
C13A C12A 1_555 1_555
H9A C13A 1_555 1_555
C14A C13A 1_555 1_555
H10A C14A 1_555 1_555
C15A H11A 1_555 1_555
C16A C15A 1_555 1_555
H12A C16A 1_555 1_555
C17A C17 1_555 1_555
C18A C17A 1_555 1_555
H13A C18A 1_555 1_555
C19A C18A 1_555 1_555
H14A C19A 1_555 1_555
N1A C15A 1_555 1_555
N2A C10A 1_555 1_555
N2A_2 Cd1A 1_555 1_555
O1A C1A 1_555 1_555
O2A C1A 1_555 1_555
O3A Cd1A 1_555 1_555
O4A C9A 1_555 1_555
O5A Cd1A 1_555 1_555
H15A O5A 1_555 1_555
H16A O5A 1_555 1_555
O6A Cd1A 1_555 1_555
H17A O6A 1_555 1_555
H18A O6A 1_555 1_555
O7A Cd1A 1_555 1_555
H19A O7A 1_555 1_555
H20A O7A 1_555 1_555
C6 C7 1_555 1_555
C9 O3 1_555 1_555
C10 N2 1_555 1_555
C14 N2 1_555 1_555
C19 N1 1_555 1_555
C6A C7A 1_555 1_555
C9A O3A 1_555 1_555
C11A C12A 1_555 1_555
C14A N2A 1_555 1_555
C16A C17A 1_555 1_555
C19A N1A 1_555 1_555

#END
