
#######################################################################
#
#                 Cambridge Crystallographic Data Centre
#                                CCDC 
#
#######################################################################
#
# If this CIF has been generated from an entry in the Cambridge 
# Structural Database, then it will include bibliographic, chemical, 
# crystal, experimental, refinement or atomic coordinate data resulting 
# from the CCDC's data processing and validation procedures.
#
#######################################################################

data_SIXSOI
_symmetry_cell_setting           monoclinic
_symmetry_space_group_name_H-M   'C c'
_symmetry_Int_Tables_number      9
_space_group_name_Hall           'C -2yc'
loop_
_symmetry_equiv_pos_site_id
_symmetry_equiv_pos_as_xyz
1 x,y,z
2 x,-y,1/2+z
3 1/2+x,1/2+y,z
4 1/2+x,1/2-y,1/2+z
_cell_length_a                   7.3589(13)
_cell_length_b                   17.951(3)
_cell_length_c                   20.398(3)
_cell_angle_alpha                90
_cell_angle_beta                 90.705(3)
_cell_angle_gamma                90
_cell_volume                     2694.36
loop_
_atom_site_label
_atom_site_type_symbol
_atom_site_fract_x
_atom_site_fract_y
_atom_site_fract_z
C1 C 0.3873(11) 0.2953(4) 0.0665(4)
H1 H 0.4097 0.3387 0.0902
C2 C 0.3413(10) 0.2995(4) 0.0042(4)
H2 H 0.3445 0.3462 -0.0155
C3 C 0.2891(8) 0.2407(4) -0.0337(3)
C4 C 0.2974(11) 0.1710(4) -0.0023(4)
H3 H 0.2666 0.1275 -0.0245
C5 C 0.3533(10) 0.1691(4) 0.0634(4)
H4 H 0.3548 0.1231 0.0843
C6 C 0.2283(10) 0.2450(3) -0.1023(3)
C7 C 0.2426(10) 0.3145(4) -0.1371(4)
H5 H 0.2995 0.3547 -0.1167
C8 C 0.1749(11) 0.3227(4) -0.1989(4)
H6 H 0.1810 0.3691 -0.2190
C9 C 0.0875(10) 0.2002(5) -0.2002(4)
H7 H 0.0280 0.1609 -0.2210
C10 C 0.1595(9) 0.1877(4) -0.1376(3)
H8 H 0.1602 0.1399 -0.1202
C11 C 0.2680(9) 0.1645(4) 0.4177(4)
H9 H 0.2679 0.1168 0.3999
C12 C 0.3184(10) 0.1730(4) 0.4811(3)
H10 H 0.3495 0.1310 0.5056
C13 C 0.3251(9) 0.2430(4) 0.5111(4)
C14 C 0.2670(11) 0.3028(4) 0.4680(4)
H11 H 0.2692 0.3517 0.4830
C15 C 0.2090(9) 0.2876(4) 0.4055(4)
H12 H 0.1606 0.3265 0.3808
C16 C 0.3908(9) 0.2575(4) 0.5785(4)
C17 C 0.4368(10) 0.1972(3) 0.6174(4)
H13 H 0.4248 0.1490 0.6013
C18 C 0.5016(10) 0.2093(3) 0.6814(4)
H14 H 0.5216 0.1686 0.7089
C19 C 0.4830(10) 0.3331(4) 0.6670(3)
H15 H 0.4926 0.3809 0.6842
C20 C 0.4151(11) 0.3260(4) 0.6049(4)
H16 H 0.3854 0.3683 0.5806
C21 C 0.3564(10) 0.0619(4) 0.2418(4)
C22 C 0.3954(9) -0.0182(4) 0.2564(3)
H17 H 0.4384 -0.0432 0.2173
H18 H 0.2859 -0.0431 0.2707
C23 C 0.5404(9) -0.0210(3) 0.3102(3)
C24 C 0.4887(9) -0.0173(4) 0.3746(4)
H19 H 0.3651 -0.0175 0.3836
C25 C 0.6077(10) -0.0133(4) 0.4260(4)
H20 H 0.5657 -0.0115 0.4687
C26 C 0.8011(10) -0.0119(3) 0.4132(4)
C27 C 0.8474(10) -0.0174(3) 0.3475(3)
H21 H 0.9698 -0.0191 0.3368
C28 C 0.7215(9) -0.0205(5) 0.2982(4)
H22 H 0.7606 -0.0223 0.2551
C29 C 0.9323(10) -0.0089(4) 0.4674(4)
Cu1 Cu 0.48266(9) 0.21434(4) 0.18558(4)
Cu2 Cu 0.15249(10) 0.20333(5) 0.28678(4)
N1 N 0.4031(7) 0.2267(3) 0.0974(3)
N2 N 0.0983(8) 0.2646(3) -0.2321(3)
N3 N 0.2172(9) 0.2225(4) 0.3785(3)
N4 N 0.5353(8) 0.2779(3) 0.7039(3)
O1 O 0.4474(6) 0.0926(3) 0.1962(2)
O2 O 0.2461(6) 0.0925(3) 0.2770(2)
O3 O 1.0986(7) -0.0124(3) 0.4534(2)
O4 O 0.8765(6) -0.0080(2) 0.5264(3)
Cu1C Cu -0.01734(9) 0.28566(4) -0.31442(4)
Cu2C Cu 0.65249(10) 0.29667(5) 0.78678(4)
N2C N 0.5983(8) 0.2354(3) 0.2679(3)
N4C N 0.0353(8) 0.2221(3) 0.2039(3)
O5 O 0.6107(6) 0.0107(2) 0.6099(2)
H23 H 0.5954 0.0304 0.5724
H24 H 0.5199 -0.0167 0.6186
O6 O 0.2353(7) 0.0256(3) 0.5858(2)
H25 H 0.1769 0.0089 0.6183
H26 H 0.2063 0.0010 0.5516
O7 O -0.0101(7) 0.0613(3) 0.6689(2)
H27 H -0.1136 0.0620 0.6499
H28 H 0.0132 0.1041 0.6846
loop_
_geom_bond_atom_site_label_1
_geom_bond_atom_site_label_2
_geom_bond_site_symmetry_1
_geom_bond_site_symmetry_2
C1 H1 1_555 1_555
C2 C1 1_555 1_555
H2 C2 1_555 1_555
C3 C2 1_555 1_555
C4 C3 1_555 1_555
H3 C4 1_555 1_555
C5 C4 1_555 1_555
H4 C5 1_555 1_555
C6 C3 1_555 1_555
C7 C6 1_555 1_555
H5 C7 1_555 1_555
C8 C7 1_555 1_555
H6 C8 1_555 1_555
C9 H7 1_555 1_555
C10 C6 1_555 1_555
H8 C10 1_555 1_555
C11 H9 1_555 1_555
C12 C11 1_555 1_555
H10 C12 1_555 1_555
C13 C12 1_555 1_555
C14 C13 1_555 1_555
H11 C14 1_555 1_555
C15 C14 1_555 1_555
H12 C15 1_555 1_555
C16 C13 1_555 1_555
C17 C16 1_555 1_555
H13 C17 1_555 1_555
C18 C17 1_555 1_555
H14 C18 1_555 1_555
C19 H15 1_555 1_555
C20 C16 1_555 1_555
H16 C20 1_555 1_555
C21 C22 1_555 1_555
C22 H17 1_555 1_555
H18 C22 1_555 1_555
C23 C22 1_555 1_555
C24 C23 1_555 1_555
H19 C24 1_555 1_555
C25 C24 1_555 1_555
H20 C25 1_555 1_555
C26 C25 1_555 1_555
C27 C26 1_555 1_555
H21 C27 1_555 1_555
C28 C23 1_555 1_555
H22 C28 1_555 1_555
C29 C26 1_555 1_555
Cu1 N1 1_555 1_555
Cu2 N3 1_555 1_555
N1 C1 1_555 1_555
N2 C8 1_555 1_555
N3 C11 1_555 1_555
N4 C18 1_555 1_555
O1 C21 1_555 1_555
O2 C21 1_555 1_555
O3 C29 1_555 1_555
O4 C29 1_555 1_555
O5 H23 1_555 1_555
H24 O5 1_555 1_555
O6 H25 1_555 1_555
H26 O6 1_555 1_555
O7 H27 1_555 1_555
H28 O7 1_555 1_555
Cu1C N2 1_555 1_555
Cu2C N4 1_555 1_555
N2C Cu1 1_555 1_555
N4C Cu2 1_555 1_555
C5 N1 1_555 1_555
C9 C10 1_555 1_555
C9 N2 1_555 1_555
C15 N3 1_555 1_555
C19 C20 1_555 1_555
C19 N4 1_555 1_555
C27 C28 1_555 1_555
Cu1 O1 1_555 1_555
Cu2 O2 1_555 1_555

#END
