
#######################################################################
#
#                 Cambridge Crystallographic Data Centre
#                                CCDC 
#
#######################################################################
#
# If this CIF has been generated from an entry in the Cambridge 
# Structural Database, then it will include bibliographic, chemical, 
# crystal, experimental, refinement or atomic coordinate data resulting 
# from the CCDC's data processing and validation procedures.
#
#######################################################################

data_SIXSEY
_symmetry_cell_setting           orthorhombic
_symmetry_space_group_name_H-M   'C c c a'
_symmetry_Int_Tables_number      68
_space_group_name_Hall           '-C 2b 2bc'
loop_
_symmetry_equiv_pos_site_id
_symmetry_equiv_pos_as_xyz
1 x,y,z
2 1/2+x,1/2+y,z
3 1/2-x,-y,z
4 -x,y,1/2-z
5 1/2+x,-y,1/2-z
6 -x,1/2-y,z
7 1/2-x,1/2+y,1/2-z
8 x,1/2-y,1/2-z
9 -x,-y,-z
10 1/2-x,1/2-y,-z
11 1/2+x,y,-z
12 x,-y,1/2+z
13 1/2-x,y,1/2+z
14 x,1/2+y,-z
15 1/2+x,1/2-y,1/2+z
16 -x,1/2+y,1/2+z
_cell_length_a                   22.742(3)
_cell_length_b                   25.715(3)
_cell_length_c                   19.322(3)
_cell_angle_alpha                90
_cell_angle_beta                 90
_cell_angle_gamma                90
_cell_volume                     11299.7
loop_
_atom_site_label
_atom_site_type_symbol
_atom_site_fract_x
_atom_site_fract_y
_atom_site_fract_z
Cu1 Cu 0.5000 0.2500 0.48022(3)
Cu2 Cu 0.7500 0.5000 0.47187(3)
N1 N 0.60622(13) 0.33190(11) 0.61708(14)
N2 N 0.53973(12) 0.29253(10) 0.55391(13)
N3 N 0.67625(13) 0.40154(11) 0.61575(14)
N4 N 0.70592(12) 0.46308(11) 0.54653(13)
N5 N 0.42968(13) 0.14547(11) 0.33891(13)
N6 N 0.45834(12) 0.20930(11) 0.40619(13)
N7 N 0.36119(12) 0.07476(11) 0.33520(13)
N8 N 0.29186(13) 0.03973(11) 0.39827(13)
O5 O 0.41847(11) 0.31085(10) 0.48322(13)
H1 H 0.3987 0.3162 0.5198
H2 H 0.4135 0.3373 0.4575
O6 O 0.82616(12) 0.42940(10) 0.47191(13)
H3 H 0.8265 0.4018 0.4476
H4 H 0.8468 0.4220 0.5072
C1 C 0.66331(17) 0.34984(14) 0.64096(19)
H12 H 0.6639 0.3500 0.6912
H13 H 0.6935 0.3260 0.6251
C2 C 0.59600(16) 0.30150(13) 0.56181(17)
H14 H 0.6252 0.2885 0.5329
C3 C 0.51251(17) 0.31855(14) 0.60737(17)
H15 H 0.4722 0.3192 0.6152
C4 C 0.55277(17) 0.34278(14) 0.64640(19)
H16 H 0.5458 0.3629 0.6855
C5 C 0.70204(16) 0.41279(13) 0.55525(17)
H17 H 0.7154 0.3882 0.5237
C6 C 0.68156(16) 0.48495(14) 0.60481(17)
H18 H 0.6786 0.5204 0.6134
C7 C 0.66280(17) 0.44752(15) 0.64725(18)
H19 H 0.6443 0.4519 0.6898
C8 C 0.41882(15) 0.09301(13) 0.31441(17)
H20 H 0.4217 0.0923 0.2643
H21 H 0.4486 0.0699 0.3329
C9 C 0.45883(15) 0.15913(13) 0.39655(16)
H22 H 0.4772 0.1356 0.4261
C10 C 0.4091(2) 0.19023(16) 0.3105(2)
H23 H 0.3871 0.1933 0.2701
C11 C 0.4268(2) 0.22900(16) 0.3519(2)
H24 H 0.4188 0.2641 0.3448
C12 C 0.34850(16) 0.04701(13) 0.39210(17)
H25 H 0.3764 0.0346 0.4231
C13 C 0.26674(17) 0.06404(14) 0.34216(18)
H26 H 0.2267 0.0652 0.3326
C14 C 0.30896(16) 0.08579(15) 0.30339(18)
H27 H 0.3038 0.1047 0.2628
Cu2A Cu 0.2500 0.0000 0.47187(3)
N1E N 0.39378(13) 0.16810(11) 0.61708(14)
N2E N 0.46027(12) 0.20747(10) 0.55391(13)
N3E N 0.32375(13) 0.09846(11) 0.61575(14)
N4E N 0.29408(12) 0.03692(11) 0.54653(13)
N4B N 0.79408(12) 0.53692(11) 0.54653(13)
N5E N 0.57032(13) 0.35453(11) 0.33891(13)
N6E N 0.54166(12) 0.29070(11) 0.40619(13)
N7E N 0.63881(12) 0.42524(11) 0.33520(13)
N8E N 0.70814(13) 0.46027(11) 0.39827(13)
N8A N 0.79186(13) 0.53973(11) 0.39827(13)
O5E O 0.58153(11) 0.18915(10) 0.48322(13)
H1E H 0.6013 0.1838 0.5198
H2E H 0.5865 0.1627 0.4575
O6B O 0.67384(12) 0.57060(10) 0.47191(13)
H3B H 0.6735 0.5982 0.4476
H4B H 0.6532 0.5780 0.5072
C1E C 0.33669(17) 0.15016(14) 0.64096(19)
H12E H 0.3361 0.1500 0.6912
H13E H 0.3065 0.1740 0.6251
C2E C 0.40400(16) 0.19850(13) 0.56181(17)
H14E H 0.3748 0.2115 0.5329
C3E C 0.48749(17) 0.18145(14) 0.60737(17)
H15E H 0.5278 0.1808 0.6152
C4E C 0.44723(17) 0.15722(14) 0.64640(19)
H16E H 0.4542 0.1371 0.6855
C5E C 0.29796(16) 0.08721(13) 0.55525(17)
H17E H 0.2846 0.1118 0.5237
C6E C 0.31844(16) 0.01505(14) 0.60481(17)
H18E H 0.3214 -0.0204 0.6134
C7E C 0.33720(17) 0.05248(15) 0.64725(18)
H19E H 0.3557 0.0481 0.6898
C8E C 0.58118(15) 0.40699(13) 0.31441(17)
H20E H 0.5783 0.4077 0.2643
H21E H 0.5514 0.4301 0.3329
C9E C 0.54117(15) 0.34087(13) 0.39655(16)
H22E H 0.5228 0.3644 0.4261
C10E C 0.5909(2) 0.30977(16) 0.3105(2)
H23E H 0.6129 0.3067 0.2701
C11E C 0.5732(2) 0.27100(16) 0.3519(2)
H24E H 0.5812 0.2359 0.3448
C12E C 0.65150(16) 0.45299(13) 0.39210(17)
H25E H 0.6236 0.4654 0.4231
C13E C 0.73326(17) 0.43596(14) 0.34216(18)
H26E H 0.7733 0.4348 0.3326
C14E C 0.69104(16) 0.41421(15) 0.30339(18)
H27E H 0.6962 0.3953 0.2628
O1 O 0.77467(15) 0.19761(12) 0.08108(13)
O2 O 0.85973(14) 0.16172(11) 0.10976(13)
C15 C 0.8165(2) 0.19079(14) 0.12159(18)
C16 C 0.81593(17) 0.22063(12) 0.18903(16)
C17 C 0.76374(16) 0.23581(14) 0.21946(16)
H28 H 0.7282 0.2269 0.1988
C18 C 0.86837(16) 0.23492(13) 0.22053(17)
H29 H 0.9039 0.2240 0.2016
O1G O 0.77467(15) 0.30239(12) 0.41892(13)
O2G O 0.85973(14) 0.33828(11) 0.39024(13)
C15G C 0.8165(2) 0.30921(14) 0.37841(18)
C16G C 0.81593(17) 0.27937(12) 0.31097(16)
C17G C 0.76374(16) 0.26419(14) 0.28054(16)
H28G H 0.7282 0.2731 0.3012
C18G C 0.86837(16) 0.26508(13) 0.27947(17)
H29G H 0.9039 0.2760 0.2984
O3 O 0.90239(12) 0.09292(9) 0.91514(12)
O4 O 0.94417(12) 0.04556(10) 0.83303(12)
C19 C 0.93599(16) 0.05716(14) 0.89442(17)
C20 C 0.96893(15) 0.02730(13) 0.94924(16)
C21 C 0.97814(17) 0.04863(14) 1.01441(17)
H30 H 0.9634 0.0815 1.0245
C22 C 0.99098(16) -0.02155(14) 0.93570(17)
H31 H 0.9850 -0.0365 0.8924
O3H O 1.09761(12) -0.09292(9) 1.08486(12)
O4H O 1.05583(12) -0.04556(10) 1.16697(12)
C19H C 1.06401(16) -0.05716(14) 1.10558(17)
C20H C 1.03107(15) -0.02730(13) 1.05076(16)
C21H C 1.02186(17) -0.04863(14) 0.98559(17)
H30H H 1.0366 -0.0815 0.9755
C22H C 1.00902(16) 0.02155(14) 1.06430(17)
H31H H 1.0150 0.0365 1.1076
O7 O 1.0000 0.97360(15) 0.7500
H5 H 0.9794 0.9942 0.7745
H5C H 1.0206 0.9942 0.7255
O8 O 0.83619(13) 0.15595(11) 0.83031(13)
H6 H 0.8579 0.1339 0.8508
H7 H 0.8133 0.1674 0.8615
O9 O 0.72737(16) 0.29500(13) 0.06271(15)
H8 H 0.7407 0.2648 0.0714
H9 H 0.6996 0.2891 0.0344
O10 O 0.59861(16) 0.40625(14) 0.78702(16)
H10 H 0.6017 0.3846 0.8200
H11 H 0.5684 0.4246 0.7956
loop_
_geom_bond_atom_site_label_1
_geom_bond_atom_site_label_2
_geom_bond_site_symmetry_1
_geom_bond_site_symmetry_2
Cu1 N2 1_555 1_555
Cu2 N4 1_555 1_555
N1 C1 1_555 1_555
N2 C2 1_555 1_555
N3 C1 1_555 1_555
N4 C5 1_555 1_555
N5 C8 1_555 1_555
N6 Cu1 1_555 1_555
N7 C8 1_555 1_555
N8 C12 1_555 1_555
O1 C15 1_555 1_555
O2 C15 1_555 1_555
O3 C19 1_555 1_555
O4 C19 1_555 1_555
O5 Cu1 1_555 1_555
H1 O5 1_555 1_555
H2 O5 1_555 1_555
O6 Cu2 1_555 1_555
H3 O6 1_555 1_555
H4 O6 1_555 1_555
O7 H5 1_555 1_555
O8 H6 1_555 1_555
H7 O8 1_555 1_555
O9 H8 1_555 1_555
H9 O9 1_555 1_555
O10 H10 1_555 1_555
H11 O10 1_555 1_555
C1 H12 1_555 1_555
H13 C1 1_555 1_555
C2 N1 1_555 1_555
H14 C2 1_555 1_555
C3 N2 1_555 1_555
H15 C3 1_555 1_555
C4 N1 1_555 1_555
H16 C4 1_555 1_555
C5 N3 1_555 1_555
H17 C5 1_555 1_555
C6 N4 1_555 1_555
H18 C6 1_555 1_555
C7 N3 1_555 1_555
H19 C7 1_555 1_555
C8 H20 1_555 1_555
H21 C8 1_555 1_555
C9 N5 1_555 1_555
H22 C9 1_555 1_555
C10 N5 1_555 1_555
H23 C10 1_555 1_555
C11 N6 1_555 1_555
H24 C11 1_555 1_555
C12 N7 1_555 1_555
H25 C12 1_555 1_555
C13 N8 1_555 1_555
H26 C13 1_555 1_555
C14 N7 1_555 1_555
H27 C14 1_555 1_555
C15 C16 1_555 1_555
C16 C17 1_555 1_555
C17 H28 1_555 1_555
C18 C16 1_555 1_555
H29 C18 1_555 1_555
C19 C20 1_555 1_555
C20 C21 1_555 1_555
C21 H30 1_555 1_555
C22 C20 1_555 1_555
H31 C22 1_555 1_555
Cu2A N8 1_555 1_555
N1E C1E 1_555 1_555
N2E Cu1 1_555 1_555
N3E C1E 1_555 1_555
N4E Cu2A 1_555 1_555
N4B Cu2 1_555 1_555
N5E C8E 1_555 1_555
N6E Cu1 1_555 1_555
N7E C8E 1_555 1_555
N8E Cu2 1_555 1_555
N8A Cu2 1_555 1_555
O1G C15G 1_555 1_555
O2G C15G 1_555 1_555
O3H C19H 1_555 1_555
O4H C19H 1_555 1_555
O5E Cu1 1_555 1_555
H1E O5E 1_555 1_555
H2E O5E 1_555 1_555
O6B Cu2 1_555 1_555
H3B O6B 1_555 1_555
H4B O6B 1_555 1_555
H5C O7 1_555 1_555
C1E H12E 1_555 1_555
H13E C1E 1_555 1_555
C2E N1E 1_555 1_555
H14E C2E 1_555 1_555
C3E N2E 1_555 1_555
H15E C3E 1_555 1_555
C4E N1E 1_555 1_555
H16E C4E 1_555 1_555
C5E N3E 1_555 1_555
H17E C5E 1_555 1_555
C6E N4E 1_555 1_555
H18E C6E 1_555 1_555
C7E N3E 1_555 1_555
H19E C7E 1_555 1_555
C8E H20E 1_555 1_555
H21E C8E 1_555 1_555
C9E N5E 1_555 1_555
H22E C9E 1_555 1_555
C10E N5E 1_555 1_555
H23E C10E 1_555 1_555
C11E N6E 1_555 1_555
H24E C11E 1_555 1_555
C12E N7E 1_555 1_555
H25E C12E 1_555 1_555
C13E N8E 1_555 1_555
H26E C13E 1_555 1_555
C14E N7E 1_555 1_555
H27E C14E 1_555 1_555
C15G C16G 1_555 1_555
C16G C17G 1_555 1_555
C17G C17 1_555 1_555
H28G C17G 1_555 1_555
C18G C18 1_555 1_555
H29G C18G 1_555 1_555
C19H C20H 1_555 1_555
C20H C21H 1_555 1_555
C21H C22 1_555 1_555
H30H C21H 1_555 1_555
C22H C21 1_555 1_555
H31H C22H 1_555 1_555
N6 C9 1_555 1_555
C3 C4 1_555 1_555
C6 C7 1_555 1_555
C10 C11 1_555 1_555
C13 C14 1_555 1_555
N2E C2E 1_555 1_555
N4E C5E 1_555 1_555
N6E C9E 1_555 1_555
N8E C12E 1_555 1_555
C3E C4E 1_555 1_555
C6E C7E 1_555 1_555
C10E C11E 1_555 1_555
C13E C14E 1_555 1_555
C16G C18G 1_555 1_555
C20H C22H 1_555 1_555

#END
