
#######################################################################
#
#                 Cambridge Crystallographic Data Centre
#                                CCDC 
#
#######################################################################
#
# If this CIF has been generated from an entry in the Cambridge 
# Structural Database, then it will include bibliographic, chemical, 
# crystal, experimental, refinement or atomic coordinate data resulting 
# from the CCDC's data processing and validation procedures.
#
#######################################################################

data_SIXTAV
_symmetry_cell_setting           monoclinic
_symmetry_space_group_name_H-M   'P 2/c'
_symmetry_Int_Tables_number      13
_space_group_name_Hall           '-P 2yc'
loop_
_symmetry_equiv_pos_site_id
_symmetry_equiv_pos_as_xyz
1 x,y,z
2 -x,y,1/2-z
3 -x,-y,-z
4 x,-y,1/2+z
_cell_length_a                   9.998(3)
_cell_length_b                   14.024(4)
_cell_length_c                   10.921(3)
_cell_angle_alpha                90
_cell_angle_beta                 113.683(4)
_cell_angle_gamma                90
_cell_volume                     1402.3
loop_
_atom_site_label
_atom_site_type_symbol
_atom_site_fract_x
_atom_site_fract_y
_atom_site_fract_z
C1 C -0.3232(5) -0.1965(4) -0.3682(4)
C2 C -0.2104(5) -0.1968(4) -0.4245(4)
C3 C -0.1788(5) -0.1155(4) -0.4809(5)
H1 H -0.2270 -0.0588 -0.4807
C4 C -0.0785(6) -0.1172(4) -0.5365(5)
H2 H -0.0617 -0.0627 -0.5768
C5 C -0.0014(5) -0.2006(4) -0.5328(5)
C6 C -0.0350(6) -0.2807(4) -0.4795(5)
H3 H 0.0127 -0.3376 -0.4794
C7 C -0.1373(6) -0.2782(4) -0.4267(6)
H4 H -0.1579 -0.3338 -0.3911
C8 C 0.1183(5) -0.2010(4) -0.5840(5)
H5 H 0.1099 -0.1448 -0.6383
H6 H 0.1083 -0.2568 -0.6396
C9 C 0.2663(5) -0.2021(4) -0.4680(5)
C10 C -0.4306(6) -0.4963(4) -0.3177(6)
H7 H -0.3862 -0.4637 -0.3655
C11 C -0.4282(7) -0.5906(4) -0.3138(6)
H8 H -0.3761 -0.6221 -0.3555
C12 C -0.5000 -0.6475(5) -0.2500
C13 C -0.5000 -0.7533(6) -0.2500
C14 C -0.4384(6) -0.8064(4) -0.3229(5)
H9 H -0.3972 -0.7751 -0.3745
C15 C -0.4383(5) -0.9004(3) -0.3190(5)
H10 H -0.3934 -0.9333 -0.3662
N1 N -0.5000 -0.4463(4) -0.2500
N2 N -0.5000 -0.9515(5) -0.2500
O1 O -0.3649(4) -0.2746(3) -0.3413(4)
O2 O -0.3706(4) -0.1174(3) -0.3500(4)
O3 O 0.3228(4) -0.2810(2) -0.4264(3)
O4 O 0.3206(4) -0.1240(3) -0.4212(3)
Zn1 Zn -0.5000 -0.30143(6) -0.2500
Zn2 Zn -0.5000 -0.09274(6) -0.2500
C1A C -0.6768(5) -0.1965(4) -0.1318(4)
C2A C -0.7896(5) -0.1968(4) -0.0755(4)
C3A C -0.8212(5) -0.1155(4) -0.0191(5)
H1A H -0.7730 -0.0588 -0.0193
C4A C -0.9215(6) -0.1172(4) 0.0365(5)
H2A H -0.9383 -0.0627 0.0768
C5A C -0.9986(5) -0.2006(4) 0.0328(5)
C6A C -0.9650(6) -0.2807(4) -0.0205(5)
H3A H -1.0127 -0.3376 -0.0206
C7A C -0.8627(6) -0.2782(4) -0.0733(6)
H4A H -0.8421 -0.3338 -0.1089
C8A C -1.1183(5) -0.2010(4) 0.0840(5)
H5A H -1.1099 -0.1448 0.1383
H6A H -1.1083 -0.2568 0.1396
C9A C -1.2663(5) -0.2021(4) -0.0320(5)
C10A C -0.5694(6) -0.4963(4) -0.1823(6)
H7A H -0.6138 -0.4637 -0.1345
C11A C -0.5718(7) -0.5906(4) -0.1862(6)
H8A H -0.6239 -0.6221 -0.1445
C14A C -0.5616(6) -0.8064(4) -0.1771(5)
H9A H -0.6028 -0.7751 -0.1255
C15A C -0.5617(5) -0.9004(3) -0.1810(5)
H10A H -0.6066 -0.9333 -0.1338
N2_2 N -0.5000 0.0485(5) -0.2500
O1A O -0.6351(4) -0.2746(3) -0.1587(4)
O2A O -0.6294(4) -0.1174(3) -0.1500(4)
O3A O -1.3228(4) -0.2810(2) -0.0736(3)
O3_2 O -0.6772(4) -0.2810(2) -0.4264(3)
O3A_2 O -0.3228(4) -0.2810(2) -0.0736(3)
O4A O -1.3206(4) -0.1240(3) -0.0788(3)
O4_2 O -0.6794(4) -0.1240(3) -0.4212(3)
O4A_2 O -0.3206(4) -0.1240(3) -0.0788(3)
Zn1_2 Zn 0.5000 -0.30143(6) -0.2500
Zn1_3 Zn -1.5000 -0.30143(6) -0.2500
Zn2_2 Zn -0.5000 -1.09274(6) -0.2500
Zn2_3 Zn 0.5000 -0.09274(6) -0.2500
Zn2_4 Zn -1.5000 -0.09274(6) -0.2500
O5 O 0.0000 -0.3818(8) -0.7500
H11 H 0.0639 -0.4142 -0.6882
H11A H -0.0639 -0.4142 -0.8118
O6 O -0.8026(15) -0.4826(12) -0.5581(15)
H12 H -0.8263 -0.4560 -0.6339
H13 H -0.8345 -0.4502 -0.5096
H14? H -0.0769 -0.4151 -0.7872
loop_
_geom_bond_atom_site_label_1
_geom_bond_atom_site_label_2
_geom_bond_site_symmetry_1
_geom_bond_site_symmetry_2
C1 C2 1_555 1_555
C2 C3 1_555 1_555
C3 H1 1_555 1_555
C4 C3 1_555 1_555
H2 C4 1_555 1_555
C5 C4 1_555 1_555
C6 C5 1_555 1_555
H3 C6 1_555 1_555
C7 C2 1_555 1_555
H4 C7 1_555 1_555
C8 C5 1_555 1_555
H5 C8 1_555 1_555
H6 C8 1_555 1_555
C9 C8 1_555 1_555
C10 H7 1_555 1_555
C11 C10 1_555 1_555
H8 C11 1_555 1_555
C12 C11 1_555 1_555
C13 C12 1_555 1_555
C14 C13 1_555 1_555
H9 C14 1_555 1_555
C15 C14 1_555 1_555
H10 C15 1_555 1_555
N1 C10 1_555 1_555
N2 C15 1_555 1_555
O1 C1 1_555 1_555
O2 C1 1_555 1_555
O3 C9 1_555 1_555
O4 C9 1_555 1_555
Zn1 N1 1_555 1_555
Zn2 O2 1_555 1_555
O5 H11 1_555 1_555
O6 H12 1_555 1_555
H13 O6 1_555 1_555
C1A C2A 1_555 1_555
C2A C3A 1_555 1_555
C3A H1A 1_555 1_555
C4A C3A 1_555 1_555
H2A C4A 1_555 1_555
C5A C4A 1_555 1_555
C6A C5A 1_555 1_555
H3A C6A 1_555 1_555
C7A C2A 1_555 1_555
H4A C7A 1_555 1_555
C8A C5A 1_555 1_555
H5A C8A 1_555 1_555
H6A C8A 1_555 1_555
C9A C8A 1_555 1_555
C10A N1 1_555 1_555
H7A C10A 1_555 1_555
C11A C12 1_555 1_555
H8A C11A 1_555 1_555
C14A C13 1_555 1_555
H9A C14A 1_555 1_555
C15A N2 1_555 1_555
H10A C15A 1_555 1_555
N2_2 Zn2 1_555 1_555
O1A Zn1 1_555 1_555
O2A Zn2 1_555 1_555
O3A C9A 1_555 1_555
O3_2 Zn1 1_555 1_555
O3A_2 Zn1 1_555 1_555
O4A C9A 1_555 1_555
O4_2 Zn2 1_555 1_555
O4A_2 Zn2 1_555 1_555
Zn1_2 O3 1_555 1_555
Zn1_3 O3A 1_555 1_555
Zn2_2 N2 1_555 1_555
Zn2_3 O4 1_555 1_555
Zn2_4 O4A 1_555 1_555
H11A O5 1_555 1_555
C6 C7 1_555 1_555
O1 Zn1 1_555 1_555
C1A O1A 1_555 1_555
C1A O2A 1_555 1_555
C6A C7A 1_555 1_555
C10A C11A 1_555 1_555
C14A C15A 1_555 1_555

#END
