
#######################################################################
#
#                 Cambridge Crystallographic Data Centre
#                                CCDC 
#
#######################################################################
#
# If this CIF has been generated from an entry in the Cambridge 
# Structural Database, then it will include bibliographic, chemical, 
# crystal, experimental, refinement or atomic coordinate data resulting 
# from the CCDC's data processing and validation procedures.
#
#######################################################################

data_SIXTUP
_symmetry_cell_setting           triclinic
_symmetry_space_group_name_H-M   'P -1'
_symmetry_Int_Tables_number      2
_space_group_name_Hall           '-P 1'
loop_
_symmetry_equiv_pos_site_id
_symmetry_equiv_pos_as_xyz
1 x,y,z
2 -x,-y,-z
_cell_length_a                   7.9642(10)
_cell_length_b                   9.1534(12)
_cell_length_c                   10.9628(14)
_cell_angle_alpha                84.746(2)
_cell_angle_beta                 79.247(2)
_cell_angle_gamma                79.584(2)
_cell_volume                     770.826
loop_
_atom_site_label
_atom_site_type_symbol
_atom_site_fract_x
_atom_site_fract_y
_atom_site_fract_z
Zn1 Zn 0.37260(5) 0.38746(4) 0.42092(4)
N1 N 0.2598(4) 0.2902(3) 0.5993(3)
C1 C 0.3246(5) 0.1460(4) 0.6263(4)
H1 H 0.4160 0.0981 0.5704
C2 C 0.2616(5) 0.0682(5) 0.7318(4)
H2 H 0.3087 -0.0311 0.7463
C3 C 0.1260(5) 0.1382(4) 0.8180(4)
H3 H 0.0807 0.0868 0.8902
C4 C 0.0608(4) 0.2875(4) 0.7926(3)
C5 C 0.1301(4) 0.3580(4) 0.6819(3)
H4 H 0.0842 0.4569 0.6643
N2 N -0.0702(4) 0.3729(3) 0.8733(3)
H5 H -0.1053 0.4625 0.8466
C6 C -0.1474(5) 0.3298(4) 0.9885(4)
O1 O -0.1177(5) 0.2039(4) 1.0332(3)
C7 C -0.2777(4) 0.4465(4) 1.0596(3)
C8 C -0.3704(5) 0.3972(4) 1.1711(3)
H6 H -0.3449 0.2974 1.1973
N3 N -0.4940(4) 0.4855(4) 1.2427(3)
C9 C -0.5278(5) 0.6280(4) 1.2037(4)
H7 H -0.6157 0.6907 1.2513
C10 C -0.4391(6) 0.6866(4) 1.0969(4)
H8 H -0.4655 0.7873 1.0741
C11 C -0.3109(5) 0.5958(4) 1.0235(4)
H9 H -0.2481 0.6341 0.9513
O2 O 0.6103(4) 0.3164(5) 0.4625(4)
C12 C 0.7464(5) 0.3154(5) 0.5008(3)
O3 O 0.7861(4) 0.4193(3) 0.5506(3)
C13 C 0.8740(6) 0.1741(5) 0.4913(5)
H10 H 0.8226 0.0953 0.5393
H11 H 0.9751 0.1863 0.5227
H12 H 0.9065 0.1497 0.4058
O4 O 0.3679(4) 0.2015(3) 0.3382(3)
C14 C 0.2513(5) 0.2197(4) 0.2713(3)
O5 O 0.1518(4) 0.3380(3) 0.2603(3)
C15 C 0.2420(7) 0.0879(5) 0.2032(5)
H13 H 0.1344 0.1036 0.1725
H14 H 0.2486 0.0005 0.2587
H15 H 0.3368 0.0752 0.1347
Zn1_2 Zn -0.62740(5) 0.38746(4) 1.42092(4)
Zn1A Zn 0.62740(5) 0.61254(4) 0.57908(4)
N3_2 N 0.5060(4) 0.4855(4) 0.2427(3)
O3A O 0.2139(4) 0.5807(3) 0.4494(3)
loop_
_geom_bond_atom_site_label_1
_geom_bond_atom_site_label_2
_geom_bond_site_symmetry_1
_geom_bond_site_symmetry_2
Zn1 N1 1_555 1_555
N1 C1 1_555 1_555
C1 H1 1_555 1_555
C2 C1 1_555 1_555
H2 C2 1_555 1_555
C3 C2 1_555 1_555
H3 C3 1_555 1_555
C4 C3 1_555 1_555
C5 N1 1_555 1_555
H4 C5 1_555 1_555
N2 C4 1_555 1_555
H5 N2 1_555 1_555
C6 N2 1_555 1_555
O1 C6 1_555 1_555
C7 C6 1_555 1_555
C8 C7 1_555 1_555
H6 C8 1_555 1_555
N3 C8 1_555 1_555
C9 N3 1_555 1_555
H7 C9 1_555 1_555
C10 C9 1_555 1_555
H8 C10 1_555 1_555
C11 C7 1_555 1_555
H9 C11 1_555 1_555
O2 Zn1 1_555 1_555
C12 O2 1_555 1_555
O3 C12 1_555 1_555
C13 C12 1_555 1_555
H10 C13 1_555 1_555
H11 C13 1_555 1_555
H12 C13 1_555 1_555
O4 Zn1 1_555 1_555
C14 O4 1_555 1_555
O5 C14 1_555 1_555
C15 C14 1_555 1_555
H13 C15 1_555 1_555
H14 C15 1_555 1_555
H15 C15 1_555 1_555
Zn1_2 N3 1_555 1_555
Zn1A O3 1_555 1_555
N3_2 Zn1 1_555 1_555
O3A Zn1 1_555 1_555
C4 C5 1_555 1_555
C10 C11 1_555 1_555

#END
