
#######################################################################
#
#                 Cambridge Crystallographic Data Centre
#                                CCDC 
#
#######################################################################
#
# If this CIF has been generated from an entry in the Cambridge 
# Structural Database, then it will include bibliographic, chemical, 
# crystal, experimental, refinement or atomic coordinate data resulting 
# from the CCDC's data processing and validation procedures.
#
#######################################################################

data_SIXVOL
_symmetry_cell_setting           monoclinic
_symmetry_space_group_name_H-M   'P 21/c'
_symmetry_Int_Tables_number      14
_space_group_name_Hall           '-P 2ybc'
loop_
_symmetry_equiv_pos_site_id
_symmetry_equiv_pos_as_xyz
1 x,y,z
2 -x,1/2+y,1/2-z
3 -x,-y,-z
4 x,1/2-y,1/2+z
_cell_length_a                   10.2806(10)
_cell_length_b                   22.399(2)
_cell_length_c                   15.2443(11)
_cell_angle_alpha                90
_cell_angle_beta                 124.862(4)
_cell_angle_gamma                90
_cell_volume                     2880.38
loop_
_atom_site_label
_atom_site_type_symbol
_atom_site_fract_x
_atom_site_fract_y
_atom_site_fract_z
Cd1 Cd 0.57747(6) 0.19124(2) -0.04825(4)
N1 N 0.3184(7) 0.1768(3) -0.2082(5)
C1 C 0.2024(9) 0.1582(4) -0.1980(6)
H1 H 0.2279 0.1532 -0.1280
C2 C 0.0498(9) 0.1461(4) -0.2832(6)
H2 H -0.0286 0.1338 -0.2725
C3 C 0.0140(9) 0.1526(3) -0.3853(6)
H3 H -0.0900 0.1444 -0.4461
C4 C 0.1292(9) 0.1709(3) -0.3981(6)
C5 C 0.2805(9) 0.1828(3) -0.3067(6)
H4 H 0.3602 0.1958 -0.3156
N2 N 0.1096(7) 0.1795(3) -0.4970(5)
H5 H 0.1881 0.1967 -0.4953
C6 C -0.0213(8) 0.1633(3) -0.5955(5)
O1 O -0.1398(6) 0.1409(3) -0.6083(4)
C7 C -0.0115(8) 0.1741(3) -0.6888(5)
C8 C -0.1571(9) 0.1802(3) -0.7876(6)
H6 H -0.2517 0.1770 -0.7906
N3 N -0.1683(7) 0.1903(3) -0.8780(5)
C9 C -0.0331(9) 0.1941(4) -0.8720(6)
H7 H -0.0402 0.2013 -0.9360
C10 C 0.1159(10) 0.1880(4) -0.7778(7)
H8 H 0.2090 0.1911 -0.7766
C11 C 0.1243(9) 0.1772(3) -0.6856(6)
H9 H 0.2246 0.1718 -0.6197
N4 N 0.5767(8) 0.2944(3) -0.0451(5)
C12 C 0.6116(9) 0.3212(3) 0.0453(6)
H10 H 0.6459 0.2976 0.1067
C13 C 0.5983(10) 0.3822(3) 0.0502(6)
H11 H 0.6241 0.4008 0.1143
C14 C 0.5463(12) 0.4160(4) -0.0407(8)
H12 H 0.5261 0.4574 -0.0411
C15 C 0.5236(10) 0.3896(4) -0.1313(6)
C16 C 0.5356(9) 0.3282(3) -0.1292(6)
H13 H 0.5132 0.3088 -0.1918
N5 N 0.4800(10) 0.4192(3) -0.2254(5)
H14 H 0.4608 0.3969 -0.2791
C17 C 0.4646(14) 0.4792(4) -0.2415(7)
O2 O 0.4861(12) 0.5158(3) -0.1750(6)
C18 C 0.4119(13) 0.4996(4) -0.3512(7)
C19 C 0.4355(11) 0.5597(4) -0.3599(7)
H15 H 0.4821 0.5838 -0.2976
N6 N 0.3961(8) 0.5856(3) -0.4514(5)
C20 C 0.3327(11) 0.5506(3) -0.5392(6)
H16 H 0.3066 0.5681 -0.6042
C21 C 0.3049(13) 0.4908(4) -0.5375(8)
H17 H 0.2554 0.4677 -0.6011
C22 C 0.3506(15) 0.4647(4) -0.4408(8)
H18 H 0.3394 0.4228 -0.4368
O3 O 0.7358(7) 0.1771(2) -0.1104(4)
N7 N 0.7322(8) 0.2055(3) -0.1845(5)
O4 O 0.6142(6) 0.2344(3) -0.2513(4)
O5 O 0.8497(7) 0.2023(2) -0.1869(5)
O6 O 0.4850(6) 0.1643(2) 0.0595(4)
N8 N 0.3876(7) 0.1981(3) 0.0623(5)
O7 O 0.3462(6) 0.2457(2) 0.0107(4)
O8 O 0.3341(7) 0.1811(2) 0.1141(4)
Cd1_2 Cd -0.42253(6) 0.19124(2) -1.04825(4)
Cd1A Cd 0.42253(6) 0.69124(2) -0.45175(4)
N3_2 N 0.8317(7) 0.1903(3) 0.1220(5)
N6A N 0.6039(8) 0.0856(3) -0.0486(5)
loop_
_geom_bond_atom_site_label_1
_geom_bond_atom_site_label_2
_geom_bond_site_symmetry_1
_geom_bond_site_symmetry_2
Cd1 N1 1_555 1_555
N1 C1 1_555 1_555
C1 H1 1_555 1_555
C2 C1 1_555 1_555
H2 C2 1_555 1_555
C3 C2 1_555 1_555
H3 C3 1_555 1_555
C4 C3 1_555 1_555
C5 N1 1_555 1_555
H4 C5 1_555 1_555
N2 C4 1_555 1_555
H5 N2 1_555 1_555
C6 N2 1_555 1_555
O1 C6 1_555 1_555
C7 C6 1_555 1_555
C8 C7 1_555 1_555
H6 C8 1_555 1_555
N3 C8 1_555 1_555
C9 N3 1_555 1_555
H7 C9 1_555 1_555
C10 C9 1_555 1_555
H8 C10 1_555 1_555
C11 C7 1_555 1_555
H9 C11 1_555 1_555
N4 Cd1 1_555 1_555
C12 N4 1_555 1_555
H10 C12 1_555 1_555
C13 C12 1_555 1_555
H11 C13 1_555 1_555
C14 C13 1_555 1_555
H12 C14 1_555 1_555
C15 C14 1_555 1_555
C16 N4 1_555 1_555
H13 C16 1_555 1_555
N5 C15 1_555 1_555
H14 N5 1_555 1_555
C17 N5 1_555 1_555
O2 C17 1_555 1_555
C18 C17 1_555 1_555
C19 C18 1_555 1_555
H15 C19 1_555 1_555
N6 C19 1_555 1_555
C20 N6 1_555 1_555
H16 C20 1_555 1_555
C21 C20 1_555 1_555
H17 C21 1_555 1_555
C22 C18 1_555 1_555
H18 C22 1_555 1_555
O3 Cd1 1_555 1_555
N7 O3 1_555 1_555
O4 N7 1_555 1_555
O5 N7 1_555 1_555
O6 Cd1 1_555 1_555
N8 O6 1_555 1_555
O7 N8 1_555 1_555
O8 N8 1_555 1_555
Cd1_2 N3 1_555 1_555
Cd1A N6 1_555 1_555
N3_2 Cd1 1_555 1_555
N6A Cd1 1_555 1_555
C4 C5 1_555 1_555
C10 C11 1_555 1_555
C15 C16 1_555 1_555
C21 C22 1_555 1_555

#END
