
#######################################################################
#
#                 Cambridge Crystallographic Data Centre
#                                CCDC 
#
#######################################################################
#
# If this CIF has been generated from an entry in the Cambridge 
# Structural Database, then it will include bibliographic, chemical, 
# crystal, experimental, refinement or atomic coordinate data resulting 
# from the CCDC's data processing and validation procedures.
#
#######################################################################

data_SIXVIF
_symmetry_cell_setting           triclinic
_symmetry_space_group_name_H-M   'P -1'
_symmetry_Int_Tables_number      2
_space_group_name_Hall           '-P 1'
loop_
_symmetry_equiv_pos_site_id
_symmetry_equiv_pos_as_xyz
1 x,y,z
2 -x,-y,-z
_cell_length_a                   7.8782(10)
_cell_length_b                   8.2339(10)
_cell_length_c                   9.8945(12)
_cell_angle_alpha                93.223(2)
_cell_angle_beta                 98.037(2)
_cell_angle_gamma                112.535(2)
_cell_volume                     582.763
loop_
_atom_site_label
_atom_site_type_symbol
_atom_site_fract_x
_atom_site_fract_y
_atom_site_fract_z
Cd1 Cd 0.5000 0.5000 1.0000
N1 N 0.4433(3) 0.3269(3) 0.78438(19)
C1 C 0.4582(4) 0.1709(3) 0.7719(2)
C2 C 0.3977(4) 0.0610(3) 0.6490(3)
C3 C 0.3186(4) 0.1130(3) 0.5359(3)
C4 C 0.3052(3) 0.2774(3) 0.5463(2)
C5 C 0.3719(3) 0.3815(3) 0.6731(2)
N2 N 0.2204(3) 0.3245(3) 0.4301(2)
C6 C 0.1896(3) 0.4752(3) 0.4179(2)
O1 O 0.2531(3) 0.6045(2) 0.50375(19)
C7 C 0.0590(3) 0.4699(3) 0.2897(2)
C8 C -0.0819(4) 0.3138(3) 0.2233(3)
C9 C -0.2181(4) 0.3226(3) 0.1244(3)
N3 N -0.2190(3) 0.4754(3) 0.0848(2)
C10 C -0.0739(3) 0.6252(3) 0.1415(3)
C11 C 0.0642(3) 0.6276(3) 0.2446(3)
O2 O 0.3232(4) 0.2933(3) 1.1341(2)
N4 N 0.2628(3) 0.1280(3) 1.1211(2)
O3 O 0.1652(4) 0.0486(3) 1.2031(2)
O4 O 0.3064(6) 0.0524(4) 1.0323(4)
H1 H 0.505(5) 0.141(4) 0.851(4)
H2 H 0.418(5) -0.039(5) 0.647(4)
H3 H 0.284(4) 0.047(4) 0.446(3)
H4 H 0.370(4) 0.498(4) 0.678(3)
H5 H 0.202(5) 0.264(5) 0.361(4)
H6 H -0.090(5) 0.208(5) 0.245(4)
H7 H -0.314(5) 0.224(5) 0.086(4)
H8 H -0.075(4) 0.734(4) 0.117(3)
H9 H 0.162(6) 0.725(5) 0.289(4)
Cd1_2 Cd -0.5000 0.5000 0.0000
Cd1_3 Cd 1.5000 0.5000 2.0000
N1A N 0.5567(3) 0.6731(3) 1.21562(19)
C1A C 0.5418(4) 0.8291(3) 1.2281(2)
C2A C 0.6023(4) 0.9390(3) 1.3510(3)
C3A C 0.6814(4) 0.8870(3) 1.4641(3)
C4A C 0.6948(3) 0.7226(3) 1.4537(2)
C5A C 0.6281(3) 0.6185(3) 1.3269(2)
N2A N 0.7796(3) 0.6755(3) 1.5699(2)
C6A C 0.8104(3) 0.5248(3) 1.5821(2)
O1A O 0.7469(3) 0.3955(2) 1.49625(19)
C7A C 0.9410(3) 0.5301(3) 1.7103(2)
C8A C 1.0819(4) 0.6862(3) 1.7767(3)
C9A C 1.2181(4) 0.6774(3) 1.8756(3)
N3A N 1.2190(3) 0.5246(3) 1.9152(2)
N3_2 N 0.7810(3) 0.4754(3) 1.0848(2)
N3A_2 N 0.2190(3) 0.5246(3) 0.9152(2)
C10A C 1.0739(3) 0.3748(3) 1.8585(3)
C11A C 0.9358(3) 0.3724(3) 1.7554(3)
O2A O 0.6768(4) 0.7067(3) 0.8659(2)
N4A N 0.7372(3) 0.8720(3) 0.8789(2)
O3A O 0.8348(4) 0.9514(3) 0.7969(2)
O4A O 0.6936(6) 0.9476(4) 0.9677(4)
H1A H 0.495(5) 0.859(4) 1.149(4)
H2A H 0.582(5) 1.039(5) 1.353(4)
H3A H 0.716(4) 0.953(4) 1.554(3)
H4A H 0.630(4) 0.502(4) 1.322(3)
H5A H 0.798(5) 0.736(5) 1.639(4)
H6A H 1.090(5) 0.792(5) 1.755(4)
H7A H 1.314(5) 0.776(5) 1.914(4)
H8A H 1.075(4) 0.266(4) 1.883(3)
H9A H 0.838(6) 0.275(5) 1.711(4)
loop_
_geom_bond_atom_site_label_1
_geom_bond_atom_site_label_2
_geom_bond_site_symmetry_1
_geom_bond_site_symmetry_2
Cd1 N1 1_555 1_555
N1 C1 1_555 1_555
C1 C2 1_555 1_555
C2 C3 1_555 1_555
C3 C4 1_555 1_555
C4 C5 1_555 1_555
C5 N1 1_555 1_555
N2 C4 1_555 1_555
C6 N2 1_555 1_555
O1 C6 1_555 1_555
C7 C6 1_555 1_555
C8 C7 1_555 1_555
C9 C8 1_555 1_555
N3 C9 1_555 1_555
C10 N3 1_555 1_555
C11 C7 1_555 1_555
O2 Cd1 1_555 1_555
N4 O2 1_555 1_555
O3 N4 1_555 1_555
O4 N4 1_555 1_555
H1 C1 1_555 1_555
H2 C2 1_555 1_555
H3 C3 1_555 1_555
H4 C5 1_555 1_555
H5 N2 1_555 1_555
H6 C8 1_555 1_555
H7 C9 1_555 1_555
H8 C10 1_555 1_555
H9 C11 1_555 1_555
Cd1_2 N3 1_555 1_555
Cd1_3 N3A 1_555 1_555
N1A Cd1 1_555 1_555
C1A N1A 1_555 1_555
C2A C1A 1_555 1_555
C3A C2A 1_555 1_555
C4A C3A 1_555 1_555
C5A N1A 1_555 1_555
N2A C4A 1_555 1_555
C6A N2A 1_555 1_555
O1A C6A 1_555 1_555
C7A C6A 1_555 1_555
C8A C7A 1_555 1_555
C9A C8A 1_555 1_555
N3A C9A 1_555 1_555
N3_2 Cd1 1_555 1_555
N3A_2 Cd1 1_555 1_555
C10A N3A 1_555 1_555
C11A C7A 1_555 1_555
O2A Cd1 1_555 1_555
N4A O2A 1_555 1_555
O3A N4A 1_555 1_555
O4A N4A 1_555 1_555
H1A C1A 1_555 1_555
H2A C2A 1_555 1_555
H3A C3A 1_555 1_555
H4A C5A 1_555 1_555
H5A N2A 1_555 1_555
H6A C8A 1_555 1_555
H7A C9A 1_555 1_555
H8A C10A 1_555 1_555
H9A C11A 1_555 1_555
C10 C11 1_555 1_555
C4A C5A 1_555 1_555
C10A C11A 1_555 1_555

#END
