
#######################################################################
#
#                 Cambridge Crystallographic Data Centre
#                                CCDC 
#
#######################################################################
#
# If this CIF has been generated from an entry in the Cambridge 
# Structural Database, then it will include bibliographic, chemical, 
# crystal, experimental, refinement or atomic coordinate data resulting 
# from the CCDC's data processing and validation procedures.
#
#######################################################################

data_SIXVUR
_symmetry_cell_setting           monoclinic
_symmetry_space_group_name_H-M   'P 21/n'
_symmetry_Int_Tables_number      14
_space_group_name_Hall           '-P 2yn'
loop_
_symmetry_equiv_pos_site_id
_symmetry_equiv_pos_as_xyz
1 x,y,z
2 1/2-x,1/2+y,1/2-z
3 -x,-y,-z
4 1/2+x,1/2-y,1/2+z
_cell_length_a                   8.738(4)
_cell_length_b                   9.491(4)
_cell_length_c                   15.969(7)
_cell_angle_alpha                90
_cell_angle_beta                 92.922(7)
_cell_angle_gamma                90
_cell_volume                     1322.62
loop_
_atom_site_label
_atom_site_type_symbol
_atom_site_fract_x
_atom_site_fract_y
_atom_site_fract_z
Zn1 Zn 0.86640(3) 1.15358(3) 0.300724(16)
N1 N 0.8569(2) 1.16410(19) 0.17351(12)
C1 C 0.9207(3) 1.2717(2) 0.13257(15)
C2 C 0.9222(3) 1.2735(3) 0.04615(15)
C3 C 0.8574(3) 1.1642(2) -0.00088(15)
C4 C 0.7884(3) 1.0544(2) 0.04171(14)
C5 C 0.7929(3) 1.0586(2) 0.12898(14)
N2 N 0.7108(3) 0.9405(2) 0.00258(12)
C6 C 0.7296(3) 0.8934(2) -0.07699(14)
O1 O 0.8186(2) 0.94701(18) -0.12388(10)
C7 C 0.6326(3) 0.7692(2) -0.10521(13)
C8 C 0.6609(3) 0.7100(3) -0.18225(16)
C9 C 0.5791(3) 0.5937(3) -0.21029(17)
N3 N 0.4694(2) 0.5344(2) -0.16583(12)
C10 C 0.4388(3) 0.5936(3) -0.09226(15)
C11 C 0.5175(3) 0.7090(3) -0.05986(14)
Cl1 Cl 0.64113(8) 1.15928(7) 0.35873(5)
Cl2 Cl 1.02778(7) 1.32507(6) 0.34569(4)
H1 H 0.965(3) 1.343(3) 0.1667(18)
H2 H 0.965(3) 1.345(3) 0.0177(17)
H3 H 0.854(3) 1.162(2) -0.0581(18)
H4 H 0.750(3) 0.989(3) 0.1572(15)
H5 H 0.660(3) 0.896(3) 0.0302(18)
H6 H 0.739(3) 0.751(3) -0.2139(18)
H7 H 0.595(3) 0.548(3) -0.261(2)
H8 H 0.370(3) 0.551(3) -0.0621(18)
H9 H 0.491(3) 0.747(3) -0.0049(18)
Zn1C Zn 0.36640(3) 0.34642(3) -0.199276(16)
N3C N 0.9694(2) 0.9656(2) 0.33417(12)
loop_
_geom_bond_atom_site_label_1
_geom_bond_atom_site_label_2
_geom_bond_site_symmetry_1
_geom_bond_site_symmetry_2
Zn1 N1 1_555 1_555
N1 C1 1_555 1_555
C1 C2 1_555 1_555
C2 C3 1_555 1_555
C3 C4 1_555 1_555
C4 C5 1_555 1_555
C5 N1 1_555 1_555
N2 C4 1_555 1_555
C6 N2 1_555 1_555
O1 C6 1_555 1_555
C7 C6 1_555 1_555
C8 C7 1_555 1_555
C9 C8 1_555 1_555
N3 C9 1_555 1_555
C10 N3 1_555 1_555
C11 C7 1_555 1_555
Cl1 Zn1 1_555 1_555
Cl2 Zn1 1_555 1_555
H1 C1 1_555 1_555
H2 C2 1_555 1_555
H3 C3 1_555 1_555
H4 C5 1_555 1_555
H5 N2 1_555 1_555
H6 C8 1_555 1_555
H7 C9 1_555 1_555
H8 C10 1_555 1_555
H9 C11 1_555 1_555
Zn1C N3 1_555 1_555
N3C Zn1 1_555 1_555
C10 C11 1_555 1_555

#END
