
#######################################################################
#
#                 Cambridge Crystallographic Data Centre
#                                CCDC 
#
#######################################################################
#
# If this CIF has been generated from an entry in the Cambridge 
# Structural Database, then it will include bibliographic, chemical, 
# crystal, experimental, refinement or atomic coordinate data resulting 
# from the CCDC's data processing and validation procedures.
#
#######################################################################

data_SIXWON
_symmetry_cell_setting           tetragonal
_symmetry_space_group_name_H-M   'P 42/n'
_symmetry_Int_Tables_number      86
_space_group_name_Hall           '-P 4bc'
loop_
_symmetry_equiv_pos_site_id
_symmetry_equiv_pos_as_xyz
1 x,y,z
2 1/2-x,1/2-y,z
3 -y,1/2+x,1/2+z
4 1/2+y,-x,1/2+z
5 -x,-y,-z
6 1/2+x,1/2+y,-z
7 y,1/2-x,1/2-z
8 1/2-y,x,1/2-z
_cell_length_a                   13.620(7)
_cell_length_b                   13.620(7)
_cell_length_c                   24.185(18)
_cell_angle_alpha                90
_cell_angle_beta                 90
_cell_angle_gamma                90
_cell_volume                     4486.42
loop_
_atom_site_label
_atom_site_type_symbol
_atom_site_fract_x
_atom_site_fract_y
_atom_site_fract_z
N1 N 0.7500 0.7500 -0.1318(4)
Zn1 Zn 0.36672(5) 1.25888(5) -0.20374(3)
O1 O 0.4427(3) 1.1382(3) -0.21137(19)
O2 O 0.3614(3) 1.0417(3) -0.2684(2)
O3 O 0.6650(5) 0.7307(5) 0.1285(2)
O4 O 0.2500 1.2500 -0.2500
C1 C 0.4239(5) 1.0570(5) -0.2318(3)
C2 C 0.4866(4) 0.9708(5) -0.2151(2)
C3 C 0.4745(4) 0.8790(5) -0.2380(3)
H1 H 0.4275 0.8708 -0.2655
C4 C 0.5291(5) 0.7989(5) -0.2218(3)
H2 H 0.5172 0.7375 -0.2373
C5 C 0.6023(5) 0.8107(5) -0.1819(3)
C6 C 0.6183(5) 0.9043(5) -0.1595(3)
H3 H 0.6694 0.9141 -0.1346
C7 C 0.5569(5) 0.9844(6) -0.1745(3)
H4 H 0.5638 1.0450 -0.1573
C8 C 0.6639(5) 0.7250(5) -0.1636(3)
H5 H 0.6232 0.6815 -0.1416
H6 H 0.6846 0.6888 -0.1961
C9 C 0.7500 0.7500 -0.0723(5)
C10 C 0.6597(6) 0.7427(6) -0.0441(3)
H7 H 0.6010 0.7393 -0.0636
C11 C 0.6597(6) 0.7407(6) 0.0132(3)
H8 H 0.6013 0.7334 0.0327
C12 C 0.7500 0.7500 0.0414(5)
C13 C 0.7500 0.7500 0.1055(5)
O1A O 1.0573(3) 0.3618(3) -0.21137(19)
O2A O 1.1386(3) 0.4583(3) -0.2684(2)
O3A O 0.8350(5) 0.7693(5) 0.1285(2)
C1A C 1.0761(5) 0.4430(5) -0.2318(3)
C2A C 1.0134(4) 0.5292(5) -0.2151(2)
C3A C 1.0255(4) 0.6210(5) -0.2380(3)
H1A H 1.0725 0.6292 -0.2655
C4A C 0.9709(5) 0.7011(5) -0.2218(3)
H2A H 0.9828 0.7625 -0.2373
C5A C 0.8977(5) 0.6893(5) -0.1819(3)
C6A C 0.8817(5) 0.5957(5) -0.1595(3)
H3A H 0.8306 0.5859 -0.1346
C7A C 0.9431(5) 0.5156(6) -0.1745(3)
H4A H 0.9362 0.4550 -0.1573
C8A C 0.8361(5) 0.7750(5) -0.1636(3)
H5A H 0.8768 0.8185 -0.1416
H6A H 0.8154 0.8112 -0.1961
C10A C 0.8403(6) 0.7573(6) -0.0441(3)
H7A H 0.8990 0.7607 -0.0636
C11A C 0.8403(6) 0.7593(6) 0.0132(3)
H8A H 0.8987 0.7666 0.0327
Zn1A Zn 0.13328(5) 1.24112(5) -0.20374(3)
N1F N -0.2500 0.7500 -0.3682(4)
Zn1F Zn 0.25888(5) 1.13328(5) -0.29626(3)
O1F O 0.1382(3) 1.0573(3) -0.28863(19)
O2F O 0.0417(3) 1.1386(3) -0.2316(2)
O3F O -0.2693(5) 0.8350(5) -0.6285(2)
C1F C 0.0570(5) 1.0761(5) -0.2682(3)
C2F C -0.0292(5) 1.0134(4) -0.2849(2)
C3F C -0.1210(5) 1.0255(4) -0.2620(3)
H1F H -0.1292 1.0725 -0.2345
C4F C -0.2011(5) 0.9709(5) -0.2782(3)
H2F H -0.2625 0.9828 -0.2627
C5F C -0.1893(5) 0.8977(5) -0.3181(3)
C6F C -0.0957(5) 0.8817(5) -0.3405(3)
H3F H -0.0859 0.8306 -0.3654
C7F C -0.0156(6) 0.9431(5) -0.3255(3)
H4F H 0.0450 0.9362 -0.3427
C8F C -0.2750(5) 0.8361(5) -0.3364(3)
H5F H -0.3185 0.8768 -0.3584
H6F H -0.3112 0.8154 -0.3039
C9F C -0.2500 0.7500 -0.4277(5)
C10F C -0.2573(6) 0.8403(6) -0.4559(3)
H7F H -0.2607 0.8990 -0.4364
C11F C -0.2593(6) 0.8403(6) -0.5132(3)
H8F H -0.2666 0.8987 -0.5327
C12F C -0.2500 0.7500 -0.5414(5)
C13F C -0.2500 0.7500 -0.6055(5)
O1G O -0.6382(3) 0.4427(3) -0.28863(19)
O2G O -0.5417(3) 0.3614(3) -0.2316(2)
O3G O -0.2307(5) 0.6650(5) -0.6285(2)
C1G C -0.5570(5) 0.4239(5) -0.2682(3)
C2G C -0.4708(5) 0.4866(4) -0.2849(2)
C3G C -0.3790(5) 0.4745(4) -0.2620(3)
H1G H -0.3708 0.4275 -0.2345
C4G C -0.2989(5) 0.5291(5) -0.2782(3)
H2G H -0.2375 0.5172 -0.2627
C5G C -0.3107(5) 0.6023(5) -0.3181(3)
C6G C -0.4043(5) 0.6183(5) -0.3405(3)
H3G H -0.4141 0.6694 -0.3654
C7G C -0.4844(6) 0.5569(5) -0.3255(3)
H4G H -0.5450 0.5638 -0.3427
C8G C -0.2250(5) 0.6639(5) -0.3364(3)
H5G H -0.1815 0.6232 -0.3584
H6G H -0.1888 0.6846 -0.3039
C10G C -0.2427(6) 0.6597(6) -0.4559(3)
H7G H -0.2393 0.6010 -0.4364
C11G C -0.2407(6) 0.6597(6) -0.5132(3)
H8G H -0.2334 0.6013 -0.5327
Zn1G Zn -0.75888(5) 0.36672(5) -0.29626(3)
Zn1_2 Zn -0.63328(5) 0.25888(5) -0.20374(3)
Zn1A_2 Zn 1.13328(5) 0.24112(5) -0.20374(3)
Zn1B Zn -0.25888(5) 0.86672(5) -0.70374(3)
Zn1C Zn -0.24112(5) 0.63328(5) -0.70374(3)
Zn1D Zn 0.63328(5) 0.74112(5) 0.20374(3)
Zn1E Zn 0.86672(5) 0.75888(5) 0.20374(3)
Zn1G_2 Zn 0.24112(5) 1.36672(5) -0.29626(3)
Zn1G_3 Zn 1.24112(5) 0.36672(5) -0.29626(3)
O1A_2 O 0.0573(3) 1.3618(3) -0.21137(19)
O2A_2 O -0.8614(3) 0.4583(3) -0.2684(2)
O2G_2 O 0.4583(3) 1.3614(3) -0.2316(2)
O3B O 0.2693(5) 1.1650(5) -0.3715(2)
O3C O -0.7693(5) 0.3350(5) -0.3715(2)
O3D O 0.3350(5) 1.2693(5) -0.1285(2)
O3E O 0.1650(5) 1.2307(5) -0.1285(2)
O4_2 O -0.7500 0.2500 -0.2500
loop_
_geom_bond_atom_site_label_1
_geom_bond_atom_site_label_2
_geom_bond_site_symmetry_1
_geom_bond_site_symmetry_2
N1 C8 1_555 1_555
Zn1 O1 1_555 1_555
O1 C1 1_555 1_555
O2 C1 1_555 1_555
O3 C13 1_555 1_555
O4 Zn1 1_555 1_555
C1 C2 1_555 1_555
C2 C3 1_555 1_555
C3 H1 1_555 1_555
C4 C3 1_555 1_555
H2 C4 1_555 1_555
C5 C4 1_555 1_555
C6 C5 1_555 1_555
H3 C6 1_555 1_555
C7 C2 1_555 1_555
H4 C7 1_555 1_555
C8 C5 1_555 1_555
H5 C8 1_555 1_555
H6 C8 1_555 1_555
C9 N1 1_555 1_555
C10 C9 1_555 1_555
H7 C10 1_555 1_555
C11 C10 1_555 1_555
H8 C11 1_555 1_555
C12 C11 1_555 1_555
C13 C12 1_555 1_555
O1A C1A 1_555 1_555
O2A C1A 1_555 1_555
O3A C13 1_555 1_555
C1A C2A 1_555 1_555
C2A C3A 1_555 1_555
C3A H1A 1_555 1_555
C4A C3A 1_555 1_555
H2A C4A 1_555 1_555
C5A C4A 1_555 1_555
C6A C5A 1_555 1_555
H3A C6A 1_555 1_555
C7A C2A 1_555 1_555
H4A C7A 1_555 1_555
C8A N1 1_555 1_555
H5A C8A 1_555 1_555
H6A C8A 1_555 1_555
C10A C9 1_555 1_555
H7A C10A 1_555 1_555
C11A C12 1_555 1_555
H8A C11A 1_555 1_555
Zn1A O4 1_555 1_555
N1F C8F 1_555 1_555
Zn1F O2 1_555 1_555
O1F Zn1F 1_555 1_555
O2F Zn1A 1_555 1_555
O3F C13F 1_555 1_555
C1F O1F 1_555 1_555
C2F C1F 1_555 1_555
C3F C2F 1_555 1_555
H1F C3F 1_555 1_555
C4F C3F 1_555 1_555
H2F C4F 1_555 1_555
C5F C4F 1_555 1_555
C6F C5F 1_555 1_555
H3F C6F 1_555 1_555
C7F C2F 1_555 1_555
H4F C7F 1_555 1_555
C8F C5F 1_555 1_555
H5F C8F 1_555 1_555
H6F C8F 1_555 1_555
C9F N1F 1_555 1_555
C10F C9F 1_555 1_555
H7F C10F 1_555 1_555
C11F C10F 1_555 1_555
H8F C11F 1_555 1_555
C12F C11F 1_555 1_555
C13F C12F 1_555 1_555
O1G C1G 1_555 1_555
O2G C1G 1_555 1_555
O3G C13F 1_555 1_555
C1G C2G 1_555 1_555
C2G C3G 1_555 1_555
C3G H1G 1_555 1_555
C4G C3G 1_555 1_555
H2G C4G 1_555 1_555
C5G C4G 1_555 1_555
C6G C5G 1_555 1_555
H3G C6G 1_555 1_555
C7G C2G 1_555 1_555
H4G C7G 1_555 1_555
C8G N1F 1_555 1_555
H5G C8G 1_555 1_555
H6G C8G 1_555 1_555
C10G C9F 1_555 1_555
H7G C10G 1_555 1_555
C11G C12F 1_555 1_555
H8G C11G 1_555 1_555
Zn1G O1G 1_555 1_555
Zn1_2 O2G 1_555 1_555
Zn1A_2 O1A 1_555 1_555
Zn1B O3F 1_555 1_555
Zn1C O3G 1_555 1_555
Zn1D O3 1_555 1_555
Zn1E O3A 1_555 1_555
Zn1G_2 O4 1_555 1_555
Zn1G_3 O2A 1_555 1_555
O1A_2 Zn1A 1_555 1_555
O2A_2 Zn1G 1_555 1_555
O2G_2 Zn1 1_555 1_555
O3B Zn1F 1_555 1_555
O3C Zn1G 1_555 1_555
O3D Zn1 1_555 1_555
O3E Zn1A 1_555 1_555
O4_2 Zn1G 1_555 1_555
O4 Zn1F 1_555 1_555
C6 C7 1_555 1_555
C5A C8A 1_555 1_555
C6A C7A 1_555 1_555
C10A C11A 1_555 1_555
O2F C1F 1_555 1_555
C6F C7F 1_555 1_555
C5G C8G 1_555 1_555
C6G C7G 1_555 1_555
C10G C11G 1_555 1_555
Zn1_2 O4_2 1_555 1_555

#END
