
#######################################################################
#
#                 Cambridge Crystallographic Data Centre
#                                CCDC 
#
#######################################################################
#
# If this CIF has been generated from an entry in the Cambridge 
# Structural Database, then it will include bibliographic, chemical, 
# crystal, experimental, refinement or atomic coordinate data resulting 
# from the CCDC's data processing and validation procedures.
#
#######################################################################

data_SIXXAZ
_symmetry_cell_setting           orthorhombic
_symmetry_space_group_name_H-M   'P n n a'
_symmetry_Int_Tables_number      52
_space_group_name_Hall           '-P 2a 2bc'
loop_
_symmetry_equiv_pos_site_id
_symmetry_equiv_pos_as_xyz
1 x,y,z
2 1/2-x,-y,z
3 1/2-x,1/2+y,1/2-z
4 x,1/2-y,1/2-z
5 -x,-y,-z
6 1/2+x,y,-z
7 1/2+x,1/2-y,1/2+z
8 -x,1/2+y,1/2+z
_cell_length_a                   6.8486(8)
_cell_length_b                   8.6934(11)
_cell_length_c                   20.006(2)
_cell_angle_alpha                90
_cell_angle_beta                 90
_cell_angle_gamma                90
_cell_volume                     1191.11
loop_
_atom_site_label
_atom_site_type_symbol
_atom_site_fract_x
_atom_site_fract_y
_atom_site_fract_z
Ag1 Ag 0.2500 1.0000 -0.06275(4)
S1 S 0.2893(3) 0.7208(2) 0.14637(9)
S2 S -0.0078(3) 0.9163(2) 0.22266(9)
N1 N 0.1523(9) 0.8321(7) 0.0382(3)
N2 N 0.0402(8) 0.8943(6) 0.0890(3)
C1 C 0.2845(10) 0.7381(9) 0.0614(4)
H1 H 0.3697 0.6846 0.0337
C2 C 0.0954(9) 0.8462(8) 0.1483(3)
C3 C -0.1462(15) 0.7500 0.2500
H2 H -0.2302 0.7818 0.2865
H3 H -0.2302 0.7182 0.2135
Ag1E Ag -0.2500 1.0000 0.06275(4)
Ag1B Ag 0.2500 0.5000 0.56275(4)
Ag1F Ag -0.2500 0.5000 0.43725(4)
S1C S 0.2893(3) 0.7792(2) 0.35363(9)
S2C S -0.0078(3) 0.5837(2) 0.27734(9)
N1C N 0.1523(9) 0.6679(7) 0.4618(3)
N1A N 0.3477(9) 1.1679(7) 0.0382(3)
N2C N 0.0402(8) 0.6057(6) 0.4110(3)
N2E N 0.5402(8) 0.8943(6) -0.0890(3)
N2D N -0.0402(8) 1.1057(6) -0.0890(3)
C1C C 0.2845(10) 0.7619(9) 0.4386(4)
H1C H 0.3697 0.8154 0.4663
C2C C 0.0954(9) 0.6538(8) 0.3517(3)
N3 N 0.7500 0.0000 0.4002(6)
O1 O 0.7500 0.0000 0.3376(6)
O2 O 0.909(2) -0.024(3) 0.4266(8)
O2A O 0.591(2) 0.024(3) 0.4266(8)
loop_
_geom_bond_atom_site_label_1
_geom_bond_atom_site_label_2
_geom_bond_site_symmetry_1
_geom_bond_site_symmetry_2
Ag1 N1 1_555 1_555
S1 C1 1_555 1_555
S2 C2 1_555 1_555
N1 N2 1_555 1_555
N2 C2 1_555 1_555
C1 N1 1_555 1_555
H1 C1 1_555 1_555
C2 S1 1_555 1_555
C3 S2 1_555 1_555
H2 C3 1_555 1_555
H3 C3 1_555 1_555
N3 O1 1_555 1_555
O2 N3 1_555 1_555
Ag1E N2 1_555 1_555
Ag1B N1C 1_555 1_555
Ag1F N2C 1_555 1_555
S1C C1C 1_555 1_555
S2C C3 1_555 1_555
N1C N2C 1_555 1_555
N1A Ag1 1_555 1_555
N2C C2C 1_555 1_555
N2E Ag1 1_555 1_555
N2D Ag1 1_555 1_555
C1C N1C 1_555 1_555
H1C C1C 1_555 1_555
C2C S1C 1_555 1_555
O2A N3 1_555 1_555
S2C C2C 1_555 1_555

#END
