
#######################################################################
#
#                 Cambridge Crystallographic Data Centre
#                                CCDC 
#
#######################################################################
#
# If this CIF has been generated from an entry in the Cambridge 
# Structural Database, then it will include bibliographic, chemical, 
# crystal, experimental, refinement or atomic coordinate data resulting 
# from the CCDC's data processing and validation procedures.
#
#######################################################################

data_SIXXED
_symmetry_cell_setting           monoclinic
_symmetry_space_group_name_H-M   'P 21/c'
_symmetry_Int_Tables_number      14
_space_group_name_Hall           '-P 2ybc'
loop_
_symmetry_equiv_pos_site_id
_symmetry_equiv_pos_as_xyz
1 x,y,z
2 -x,1/2+y,1/2-z
3 -x,-y,-z
4 x,1/2-y,1/2+z
_cell_length_a                   12.2443(16)
_cell_length_b                   9.9507(13)
_cell_length_c                   11.0962(14)
_cell_angle_alpha                90
_cell_angle_beta                 96.546(2)
_cell_angle_gamma                90
_cell_volume                     1343.14
loop_
_atom_site_label
_atom_site_type_symbol
_atom_site_fract_x
_atom_site_fract_y
_atom_site_fract_z
Ag1 Ag 0.76821(3) 0.54343(2) 0.235566(19)
S1 S 0.88842(6) 0.58542(7) 0.65091(6)
S2 S 0.99070(7) 0.85611(7) 0.65102(6)
S3 S 0.61863(7) 0.60512(7) -0.17140(6)
S4 S 0.55586(6) 0.89364(7) -0.15647(6)
O1 O 0.7770(2) 0.3042(2) 0.1490(2)
O2 O 0.7173(3) 0.3005(3) 0.3243(2)
O3 O 0.73914(17) 0.11551(19) 0.23005(19)
N1 N 0.85456(19) 0.5890(2) 0.42105(19)
N2 N 0.90388(19) 0.7124(2) 0.45212(19)
N3 N 0.6735(2) 0.6006(2) 0.05602(19)
N4 N 0.6361(2) 0.7311(2) 0.03165(19)
N5 N 0.74375(19) 0.2393(2) 0.23441(19)
C1 C 0.8429(2) 0.5133(3) 0.5143(2)
H1 H 0.8125 0.4276 0.5074
C2 C 0.9266(2) 0.7221(2) 0.5695(2)
C3 C 1.0438(2) 0.9543(3) 0.5307(3)
H2 H 1.1059 1.0078 0.5651
H3 H 1.0692 0.8939 0.4712
C4 C 0.6674(2) 0.5247(3) -0.0392(2)
H4 H 0.6876 0.4345 -0.0364
C5 C 0.6039(2) 0.7458(2) -0.0834(2)
C6 C 0.5523(2) 1.0091(3) -0.0291(3)
H5 H 0.6152 0.9926 0.0305
H6 H 0.5568 1.1009 -0.0575
Ag1B Ag 1.23179(3) 1.45657(2) 0.764434(19)
Ag1B_2 Ag 0.23179(3) 1.45657(2) -0.235566(19)
S1B S 1.11158(6) 1.41458(7) 0.34909(6)
S2B S 1.00930(7) 1.14389(7) 0.34898(6)
S3B S 0.38137(7) 1.39488(7) 0.17140(6)
S4B S 0.44414(6) 1.10636(7) 0.15647(6)
O1B O 1.2230(2) 1.6958(2) 0.8510(2)
O2B O 1.2827(3) 1.6995(3) 0.6757(2)
O3B O 1.26086(17) 1.88449(19) 0.76995(19)
N1B N 1.14544(19) 1.4110(2) 0.57895(19)
N2B N 1.09612(19) 1.2876(2) 0.54788(19)
N3B N 0.3265(2) 1.3994(2) -0.05602(19)
N3B_2 N 1.3265(2) 1.3994(2) 0.94398(19)
N4B N 0.3639(2) 1.2689(2) -0.03165(19)
N5B N 1.25625(19) 1.7607(2) 0.76559(19)
C1B C 1.1571(2) 1.4867(3) 0.4857(2)
H1B H 1.1875 1.5724 0.4926
C2B C 1.0734(2) 1.2779(2) 0.4305(2)
C3B C 0.9562(2) 1.0457(3) 0.4693(3)
H2B H 0.8941 0.9922 0.4349
H3B H 0.9308 1.1061 0.5288
C4B C 0.3326(2) 1.4753(3) 0.0392(2)
H4B H 0.3124 1.5655 0.0364
C5B C 0.3961(2) 1.2542(2) 0.0834(2)
C6B C 0.4477(2) 0.9909(3) 0.0291(3)
H5B H 0.3848 1.0074 -0.0305
H6B H 0.4432 0.8991 0.0575
loop_
_geom_bond_atom_site_label_1
_geom_bond_atom_site_label_2
_geom_bond_site_symmetry_1
_geom_bond_site_symmetry_2
Ag1 O1 1_555 1_555
S1 C1 1_555 1_555
S2 C2 1_555 1_555
S3 C4 1_555 1_555
S4 C5 1_555 1_555
O1 N5 1_555 1_555
O2 N5 1_555 1_555
O3 N5 1_555 1_555
N1 Ag1 1_555 1_555
N2 N1 1_555 1_555
N3 Ag1 1_555 1_555
N4 N3 1_555 1_555
C1 N1 1_555 1_555
H1 C1 1_555 1_555
C2 S1 1_555 1_555
C3 S2 1_555 1_555
H2 C3 1_555 1_555
H3 C3 1_555 1_555
C4 N3 1_555 1_555
H4 C4 1_555 1_555
C5 S3 1_555 1_555
C6 S4 1_555 1_555
H5 C6 1_555 1_555
H6 C6 1_555 1_555
Ag1B O1B 1_555 1_555
Ag1B_2 N3B 1_555 1_555
S1B C1B 1_555 1_555
S2B C2B 1_555 1_555
S3B C4B 1_555 1_555
S4B C5B 1_555 1_555
O1B N5B 1_555 1_555
O2B N5B 1_555 1_555
O3B N5B 1_555 1_555
N1B Ag1B 1_555 1_555
N2B N1B 1_555 1_555
N3B N4B 1_555 1_555
N3B_2 Ag1B 1_555 1_555
N4B C5B 1_555 1_555
C1B N1B 1_555 1_555
H1B C1B 1_555 1_555
C2B S1B 1_555 1_555
C3B C3 1_555 1_555
H2B C3B 1_555 1_555
H3B C3B 1_555 1_555
C4B N3B 1_555 1_555
H4B C4B 1_555 1_555
C5B S3B 1_555 1_555
C6B C6 1_555 1_555
H5B C6B 1_555 1_555
H6B C6B 1_555 1_555
N2 C2 1_555 1_555
N4 C5 1_555 1_555
S2B C3B 1_555 1_555
S4B C6B 1_555 1_555
N2B C2B 1_555 1_555

#END
