
#######################################################################
#
#                 Cambridge Crystallographic Data Centre
#                                CCDC 
#
#######################################################################
#
# If this CIF has been generated from an entry in the Cambridge 
# Structural Database, then it will include bibliographic, chemical, 
# crystal, experimental, refinement or atomic coordinate data resulting 
# from the CCDC's data processing and validation procedures.
#
#######################################################################

data_SIXYUU
_symmetry_cell_setting           triclinic
_symmetry_space_group_name_H-M   'P -1'
_symmetry_Int_Tables_number      2
_space_group_name_Hall           '-P 1'
loop_
_symmetry_equiv_pos_site_id
_symmetry_equiv_pos_as_xyz
1 x,y,z
2 -x,-y,-z
_cell_length_a                   9.240(7)
_cell_length_b                   10.383(8)
_cell_length_c                   14.721(12)
_cell_angle_alpha                76.200(9)
_cell_angle_beta                 88.463(10)
_cell_angle_gamma                72.035(10)
_cell_volume                     1303.01
loop_
_atom_site_label
_atom_site_type_symbol
_atom_site_fract_x
_atom_site_fract_y
_atom_site_fract_z
Cd1 Cd 1.04171(5) 0.10953(4) 0.21150(3)
O1 O 1.0860(4) 0.2876(4) 0.1029(3)
O2 O 1.0489(5) 0.3419(4) 0.2379(3)
O3 O 1.0290(5) 0.8555(4) 0.2343(3)
O4 O 1.0954(4) 0.9772(4) 0.1069(2)
O5 O 0.7640(5) 0.1603(4) 0.1788(3)
O6 O 0.8552(5) 0.1341(4) 0.3189(3)
O7 O 0.3567(4) 0.0482(4) 0.2269(3)
O8 O 0.2010(4) 0.0179(4) 0.3397(3)
C1 C 1.0793(6) 0.3689(5) 0.1551(4)
C2 C 1.1133(7) 0.5045(5) 0.1115(4)
H9 H 1.2227 0.4828 0.1073
H10 H 1.0687 0.5385 0.0481
C3 C 1.0595(7) 0.6209(5) 0.1598(4)
H11 H 1.1073 0.5913 0.2223
H12 H 0.9501 0.6441 0.1655
C4 C 1.0977(6) 0.7480(5) 0.1056(3)
H13 H 1.0381 0.7833 0.0466
H14 H 1.2042 0.7192 0.0911
C5 C 1.0709(6) 0.8665(5) 0.1534(4)
C6 C 0.7474(7) 0.1528(6) 0.2634(5)
C7 C 0.5955(7) 0.1570(6) 0.3044(5)
H15 H 0.5153 0.1955 0.2552
H16 H 0.5739 0.2154 0.3488
C8 C 0.6022(7) 0.0066(7) 0.3542(4)
H17 H 0.6411 -0.0534 0.3119
H18 H 0.6733 -0.0256 0.4082
C9 C 0.4509(7) -0.0072(7) 0.3858(4)
H19 H 0.4677 -0.1013 0.4238
H20 H 0.4114 0.0560 0.4260
C10 C 0.3307(7) 0.0208(5) 0.3114(4)
Cd1_2 Cd 1.04171(5) 1.10953(4) 0.21150(3)
Cd1_3 Cd 0.04171(5) 0.10953(4) 0.21150(3)
O3_2 O 1.0290(5) -0.1445(4) 0.2343(3)
O4_2 O 1.0954(4) -0.0228(4) 0.1069(2)
O8_2 O 1.2010(4) 0.0179(4) 0.3397(3)
N1 N 0.5727(5) 0.8951(5) 0.1373(3)
H1 H 0.5335 0.9551 0.1696
N2 N 0.7010(6) 0.7977(5) 0.0320(3)
H2 H 0.7566 0.7855 -0.0150
N3 N 0.7145(6) 1.0202(5) 0.0391(3)
H3 H 0.6863 1.0884 0.0659
H4 H 0.7747 1.0231 -0.0065
C11 C 0.5483(6) 0.7664(6) 0.1497(4)
C12 C 0.6323(7) 0.7032(6) 0.0837(4)
C13 C 0.6367(8) 0.5726(7) 0.0801(5)
H21 H 0.6939 0.5294 0.0365
C14 C 0.5540(8) 0.5055(7) 0.1430(5)
H22 H 0.5537 0.4166 0.1412
C15 C 0.4727(8) 0.5686(7) 0.2080(5)
H23 H 0.4191 0.5210 0.2503
C16 C 0.4676(7) 0.7008(7) 0.2127(4)
H24 H 0.4116 0.7434 0.2569
C17 C 0.6659(6) 0.9116(6) 0.0676(4)
N4 N 0.0224(6) 0.2442(5) 0.5850(3)
H5 H -0.0067 0.2181 0.6405
N5 N 0.0442(5) 0.2754(5) 0.4350(3)
H6 H 0.0310 0.2728 0.3779
N6 N -0.1229(6) 0.1534(5) 0.5031(4)
H7 H -0.1656 0.1219 0.5523
H8 H -0.1452 0.1421 0.4497
C18 C 0.1250(7) 0.3195(6) 0.5625(4)
C19 C 0.1387(7) 0.3387(6) 0.4662(4)
C20 C 0.2316(8) 0.4078(7) 0.4197(5)
H25 H 0.2426 0.4180 0.3556
C21 C 0.3077(9) 0.4611(8) 0.4705(6)
H26 H 0.3712 0.5100 0.4401
C22 C 0.2945(8) 0.4457(7) 0.5672(6)
H27 H 0.3485 0.4838 0.6000
C23 C 0.2005(7) 0.3731(7) 0.6136(4)
H28 H 0.1895 0.3615 0.6778
C24 C -0.0237(7) 0.2187(6) 0.5093(4)
loop_
_geom_bond_atom_site_label_1
_geom_bond_atom_site_label_2
_geom_bond_site_symmetry_1
_geom_bond_site_symmetry_2
Cd1 O1 1_555 1_555
O1 C1 1_555 1_555
O2 Cd1 1_555 1_555
O3 C5 1_555 1_555
O4 C5 1_555 1_555
O5 Cd1 1_555 1_555
O6 Cd1 1_555 1_555
O7 C10 1_555 1_555
O8 C10 1_555 1_555
N1 H1 1_555 1_555
N2 H2 1_555 1_555
N3 H3 1_555 1_555
H4 N3 1_555 1_555
N4 H5 1_555 1_555
N5 H6 1_555 1_555
N6 H7 1_555 1_555
H8 N6 1_555 1_555
C1 O2 1_555 1_555
C2 C1 1_555 1_555
H9 C2 1_555 1_555
H10 C2 1_555 1_555
C3 C2 1_555 1_555
H11 C3 1_555 1_555
H12 C3 1_555 1_555
C4 C3 1_555 1_555
H13 C4 1_555 1_555
H14 C4 1_555 1_555
C5 C4 1_555 1_555
C6 O5 1_555 1_555
C7 C6 1_555 1_555
H15 C7 1_555 1_555
H16 C7 1_555 1_555
C8 C7 1_555 1_555
H17 C8 1_555 1_555
H18 C8 1_555 1_555
C9 C8 1_555 1_555
H19 C9 1_555 1_555
H20 C9 1_555 1_555
C10 C9 1_555 1_555
C11 N1 1_555 1_555
C12 N2 1_555 1_555
C13 C12 1_555 1_555
H21 C13 1_555 1_555
C14 C13 1_555 1_555
H22 C14 1_555 1_555
C15 C14 1_555 1_555
H23 C15 1_555 1_555
C16 C11 1_555 1_555
H24 C16 1_555 1_555
C17 N1 1_555 1_555
C18 N4 1_555 1_555
C19 N5 1_555 1_555
C20 C19 1_555 1_555
H25 C20 1_555 1_555
C21 C20 1_555 1_555
H26 C21 1_555 1_555
C22 C21 1_555 1_555
H27 C22 1_555 1_555
C23 C18 1_555 1_555
H28 C23 1_555 1_555
C24 N4 1_555 1_555
Cd1_2 O3 1_555 1_555
Cd1_3 O8 1_555 1_555
O3_2 Cd1 1_555 1_555
O4_2 Cd1 1_555 1_555
O8_2 Cd1 1_555 1_555
O4 Cd1_2 1_555 1_555
O6 C6 1_555 1_555
N2 C17 1_555 1_555
N3 C17 1_555 1_555
N5 C24 1_555 1_555
N6 C24 1_555 1_555
C11 C12 1_555 1_555
C15 C16 1_555 1_555
C18 C19 1_555 1_555
C22 C23 1_555 1_555

#END
