
#######################################################################
#
#                 Cambridge Crystallographic Data Centre
#                                CCDC 
#
#######################################################################
#
# If this CIF has been generated from an entry in the Cambridge 
# Structural Database, then it will include bibliographic, chemical, 
# crystal, experimental, refinement or atomic coordinate data resulting 
# from the CCDC's data processing and validation procedures.
#
#######################################################################

data_SIXYOO
_symmetry_cell_setting           monoclinic
_symmetry_space_group_name_H-M   'P 21/c'
_symmetry_Int_Tables_number      14
_space_group_name_Hall           '-P 2ybc'
loop_
_symmetry_equiv_pos_site_id
_symmetry_equiv_pos_as_xyz
1 x,y,z
2 -x,1/2+y,1/2-z
3 -x,-y,-z
4 x,1/2-y,1/2+z
_cell_length_a                   13.4934(13)
_cell_length_b                   10.4646(9)
_cell_length_c                   18.7310(13)
_cell_angle_alpha                90
_cell_angle_beta                 92.5040(10)
_cell_angle_gamma                90
_cell_volume                     2642.35
loop_
_atom_site_label
_atom_site_type_symbol
_atom_site_fract_x
_atom_site_fract_y
_atom_site_fract_z
Cd1 Cd 0.284524(19) 0.04809(3) 1.045772(14)
O1 O 0.3386(2) -0.0445(3) 0.94361(14)
O2 O 0.1968(2) -0.1287(3) 0.97084(15)
O3 O 0.3368(2) -0.3918(3) 0.62621(16)
O4 O 0.2131(2) -0.5073(3) 0.65974(16)
N1 N 0.1474(2) 0.1543(3) 1.00756(18)
N2 N -0.0141(2) 0.1796(3) 0.9809(2)
H1 H -0.0770 0.1812 0.9865
N3 N 0.0333(2) 0.1096(3) 1.09699(19)
H2 H 0.0798 0.0897 1.1279
H3 H -0.0277 0.1063 1.1084
N4 N 0.4077(2) 0.1892(3) 1.05391(17)
N5 N 0.5260(2) 0.3258(3) 1.02545(19)
H4 H 0.5698 0.3631 1.0008
N6 N 0.4768(2) 0.1682(4) 0.94029(18)
H5 H 0.4387 0.1049 0.9288
H6 H 0.5189 0.1956 0.9107
C1 C 0.1340(3) 0.1970(4) 0.9366(2)
C2 C 0.0333(3) 0.2112(4) 0.9189(2)
C3 C -0.0033(4) 0.2496(5) 0.8520(3)
H7 H -0.0709 0.2564 0.8407
C4 C 0.0674(4) 0.2769(6) 0.8035(3)
H8 H 0.0467 0.3032 0.7578
C5 C 0.1678(4) 0.2668(5) 0.8201(3)
H9 H 0.2125 0.2883 0.7857
C6 C 0.2033(3) 0.2260(5) 0.8858(3)
H10 H 0.2710 0.2178 0.8962
C7 C 0.0561(3) 0.1460(4) 1.0308(2)
C8 C 0.4276(3) 0.2732(4) 1.1114(2)
C9 C 0.5009(3) 0.3598(4) 1.0933(2)
C10 C 0.5351(3) 0.4544(4) 1.1401(3)
H11 H 0.5833 0.5128 1.1277
C11 C 0.4935(4) 0.4567(5) 1.2056(3)
H12 H 0.5143 0.5190 1.2384
C12 C 0.4222(4) 0.3704(5) 1.2248(3)
H13 H 0.3969 0.3754 1.2701
C13 C 0.3877(3) 0.2767(5) 1.1780(2)
H14 H 0.3396 0.2185 1.1909
C14 C 0.4705(3) 0.2241(4) 1.0040(2)
C15 C 0.2670(3) -0.1187(4) 0.9301(2)
C16 C 0.2662(3) -0.1950(4) 0.8626(2)
C17 C 0.1982(3) -0.2928(4) 0.8500(2)
H15 H 0.1518 -0.3109 0.8839
C18 C 0.1987(3) -0.3637(4) 0.7877(2)
H16 H 0.1522 -0.4283 0.7796
C19 C 0.2686(3) -0.3383(4) 0.7372(2)
C20 C 0.3365(3) -0.2410(4) 0.7503(2)
H17 H 0.3834 -0.2229 0.7168
C21 C 0.3354(3) -0.1708(4) 0.8124(2)
H18 H 0.3819 -0.1063 0.8206
C22 C 0.2733(3) -0.4169(4) 0.6705(2)
Cd1C Cd 0.284524(19) -0.54809(3) 0.545772(14)
O3C O 0.3368(2) -0.1082(3) 1.12621(16)
O4C O 0.2131(2) 0.0073(3) 1.15974(16)
C23 C 0.1558(5) 0.4524(7) 0.1620(3)
H19 H 0.2073 0.4662 0.1982
H20 H 0.1426 0.3626 0.1576
H21 H 0.0967 0.4960 0.1750
C24 C 0.1169(4) 0.4923(6) 0.0363(3)
H22 H 0.0733 0.5648 0.0365
H23 H 0.0789 0.4153 0.0406
H24 H 0.1508 0.4907 -0.0077
C25 C 0.2782(4) 0.5482(5) 0.0877(3)
H25 H 0.3203 0.5583 0.1279
N7 N 0.1872(3) 0.5014(4) 0.0946(2)
O5 O 0.3065(3) 0.5777(5) 0.0293(3)
loop_
_geom_bond_atom_site_label_1
_geom_bond_atom_site_label_2
_geom_bond_site_symmetry_1
_geom_bond_site_symmetry_2
Cd1 O1 1_555 1_555
O1 C15 1_555 1_555
O2 Cd1 1_555 1_555
O3 C22 1_555 1_555
O4 C22 1_555 1_555
N1 Cd1 1_555 1_555
N2 H1 1_555 1_555
N3 H2 1_555 1_555
H3 N3 1_555 1_555
N4 Cd1 1_555 1_555
N5 H4 1_555 1_555
N6 H5 1_555 1_555
H6 N6 1_555 1_555
C1 N1 1_555 1_555
C2 N2 1_555 1_555
C3 C2 1_555 1_555
H7 C3 1_555 1_555
C4 C3 1_555 1_555
H8 C4 1_555 1_555
C5 C4 1_555 1_555
H9 C5 1_555 1_555
C6 C1 1_555 1_555
H10 C6 1_555 1_555
C7 N1 1_555 1_555
C8 N4 1_555 1_555
C9 N5 1_555 1_555
C10 C9 1_555 1_555
H11 C10 1_555 1_555
C11 C10 1_555 1_555
H12 C11 1_555 1_555
C12 C11 1_555 1_555
H13 C12 1_555 1_555
C13 C8 1_555 1_555
H14 C13 1_555 1_555
C14 N4 1_555 1_555
C15 O2 1_555 1_555
C16 C15 1_555 1_555
C17 C16 1_555 1_555
H15 C17 1_555 1_555
C18 C17 1_555 1_555
H16 C18 1_555 1_555
C19 C18 1_555 1_555
C20 C19 1_555 1_555
H17 C20 1_555 1_555
C21 C16 1_555 1_555
H18 C21 1_555 1_555
C22 C19 1_555 1_555
C23 H19 1_555 1_555
H20 C23 1_555 1_555
H21 C23 1_555 1_555
C24 H22 1_555 1_555
H23 C24 1_555 1_555
H24 C24 1_555 1_555
C25 H25 1_555 1_555
N7 C23 1_555 1_555
O5 C25 1_555 1_555
Cd1C O3 1_555 1_555
O3C Cd1 1_555 1_555
O4C Cd1 1_555 1_555
O4 Cd1C 1_555 1_555
N2 C7 1_555 1_555
N3 C7 1_555 1_555
N5 C14 1_555 1_555
N6 C14 1_555 1_555
C1 C2 1_555 1_555
C5 C6 1_555 1_555
C8 C9 1_555 1_555
C12 C13 1_555 1_555
C20 C21 1_555 1_555
C24 N7 1_555 1_555
C25 N7 1_555 1_555

#END
