
#######################################################################
#
#                 Cambridge Crystallographic Data Centre
#                                CCDC 
#
#######################################################################
#
# If this CIF has been generated from an entry in the Cambridge 
# Structural Database, then it will include bibliographic, chemical, 
# crystal, experimental, refinement or atomic coordinate data resulting 
# from the CCDC's data processing and validation procedures.
#
#######################################################################

data_SIXYII
_symmetry_cell_setting           triclinic
_symmetry_space_group_name_H-M   'P -1'
_symmetry_Int_Tables_number      2
_space_group_name_Hall           '-P 1'
loop_
_symmetry_equiv_pos_site_id
_symmetry_equiv_pos_as_xyz
1 x,y,z
2 -x,-y,-z
_cell_length_a                   12.842(3)
_cell_length_b                   17.134(3)
_cell_length_c                   17.386(4)
_cell_angle_alpha                66.845(3)
_cell_angle_beta                 85.878(3)
_cell_angle_gamma                69.933(3)
_cell_volume                     3295.01
loop_
_atom_site_label
_atom_site_type_symbol
_atom_site_fract_x
_atom_site_fract_y
_atom_site_fract_z
Cd1 Cd 0.39152(4) 0.83441(3) 0.49136(3)
Cd2 Cd 0.79301(4) 0.78318(3) 0.96123(3)
O1 O 0.4654(4) 0.8135(3) 0.6222(3)
O2 O 0.4233(5) 0.6997(3) 0.6244(3)
O3 O 0.6251(4) 0.3950(3) 0.9816(3)
O4 O 0.4943(5) 0.4252(4) 0.8882(4)
O5 O 0.7293(4) 0.6545(3) 0.9779(3)
O6 O 0.6818(4) 0.7794(3) 0.8652(3)
O7 O 0.5674(5) 0.7780(5) 0.4616(4)
O8 O 0.4694(5) 0.8388(5) 0.3473(4)
O9 O 0.9699(4) 0.6181(4) 0.4797(3)
O10 O 1.0586(4) 0.6385(3) 0.3621(3)
O11 O 0.8307(5) 0.7391(4) 0.0987(3)
O12 O 0.6520(4) 0.8140(3) 0.0877(3)
N1 N 0.2551(4) 0.8103(4) 0.4457(3)
N2 N 0.1745(5) 0.7345(4) 0.4074(4)
H1 H 0.1583 0.6897 0.4078
N3 N 0.2973(5) 0.6542(4) 0.5284(4)
H2 H 0.3434 0.6538 0.5622
H3 H 0.2856 0.6052 0.5362
N4 N 0.3474(4) 0.9822(3) 0.4531(3)
N5 N 0.3579(5) 1.1188(4) 0.4166(4)
H4 H 0.3838 1.1624 0.3967
N6 N 0.5068(5) 1.0092(4) 0.3899(4)
H5 H 0.5353 0.9553 0.3912
H6 H 0.5420 1.0466 0.3692
N7 N 0.7367(4) 0.9336(4) 0.9055(4)
N8 N 0.6665(6) 1.0779(5) 0.8193(5)
H7 H 0.6285 1.1252 0.7775
N9 N 0.6210(5) 0.9705(5) 0.7891(4)
H8 H 0.6269 0.9151 0.8025
H9 H 0.5810 1.0121 0.7448
N10 N 0.9713(4) 0.7299(4) 0.9383(4)
N11 N 1.1559(5) 0.6649(4) 0.9568(5)
H10 H 1.2216 0.6393 0.9816
N12 N 1.0595(6) 0.6909(5) 1.0686(4)
H11 H 0.9973 0.7124 1.0877
H12 H 1.1203 0.6672 1.0998
C1 C 0.4648(5) 0.7336(5) 0.6607(4)
C2 C 0.5157(5) 0.6806(4) 0.7479(4)
C3 C 0.5137(5) 0.5934(4) 0.7909(4)
H13 H 0.4774 0.5700 0.7656
C4 C 0.5655(5) 0.5406(4) 0.8716(4)
C5 C 0.5630(6) 0.4455(5) 0.9180(5)
C6 C 0.6180(5) 0.5768(4) 0.9087(4)
H14 H 0.6518 0.5424 0.9627
C7 C 0.6209(5) 0.6637(4) 0.8667(4)
C8 C 0.6805(6) 0.7007(5) 0.9068(5)
C9 C 0.5695(5) 0.7141(4) 0.7871(4)
H15 H 0.5710 0.7723 0.7588
C10 C 0.5596(6) 0.7933(5) 0.3870(5)
C11 C 0.6619(5) 0.7611(4) 0.3449(4)
C12 C 0.7631(6) 0.7178(4) 0.3900(4)
H16 H 0.7669 0.7054 0.4470
C13 C 0.8587(5) 0.6928(4) 0.3520(4)
C14 C 0.9705(6) 0.6463(4) 0.4015(5)
C15 C 0.8531(5) 0.7094(4) 0.2664(4)
H17 H 0.9178 0.6928 0.2401
C16 C 0.7507(6) 0.7506(4) 0.2211(4)
C17 C 0.7430(6) 0.7703(5) 0.1289(4)
C18 C 0.6557(5) 0.7757(4) 0.2607(4)
H18 H 0.5868 0.8028 0.2307
C19 C 0.1845(5) 0.8709(5) 0.3727(4)
C20 C 0.1597(6) 0.9621(5) 0.3288(5)
H19 H 0.1934 0.9944 0.3444
C21 C 0.0836(6) 1.0039(6) 0.2614(5)
H20 H 0.0661 1.0655 0.2302
C22 C 0.0322(7) 0.9569(7) 0.2386(6)
H21 H -0.0206 0.9878 0.1932
C23 C 0.0569(7) 0.8665(7) 0.2809(6)
H22 H 0.0229 0.8350 0.2644
C24 C 0.1333(6) 0.8230(6) 0.3484(5)
C25 C 0.2436(6) 0.7312(5) 0.4636(5)
C26 C 0.2522(6) 1.0374(4) 0.4742(4)
C27 C 0.1576(6) 1.0192(5) 0.5088(5)
H23 H 0.1496 0.9636 0.5215
C28 C 0.0755(7) 1.0896(7) 0.5236(6)
H24 H 0.0124 1.0800 0.5493
C29 C 0.0867(9) 1.1734(6) 0.5004(6)
H25 H 0.0302 1.2187 0.5107
C30 C 0.1761(8) 1.1919(6) 0.4637(6)
H26 H 0.1823 1.2486 0.4481
C31 C 0.2570(7) 1.1232(5) 0.4508(5)
C32 C 0.4089(6) 1.0344(5) 0.4198(4)
C33 C 0.7724(6) 0.9859(6) 0.9335(5)
C34 C 0.8392(8) 0.9610(8) 1.0029(7)
H27 H 0.8676 0.9006 1.0395
C35 C 0.8648(11) 1.0275(11) 1.0186(9)
H28 H 0.9078 1.0123 1.0666
C36 C 0.8240(14) 1.1165(13) 0.9602(13)
H29 H 0.8447 1.1599 0.9682
C37 C 0.7557(12) 1.1423(8) 0.8928(10)
H30 H 0.7268 1.2026 0.8562
C38 C 0.7293(9) 1.0759(6) 0.8791(7)
C39 C 0.6739(6) 0.9918(5) 0.8370(5)
C40 C 1.0134(6) 0.7219(5) 0.8645(5)
C41 C 0.9595(9) 0.7515(6) 0.7876(6)
H31 H 0.8826 0.7789 0.7790
C42 C 1.0264(13) 0.7384(8) 0.7212(7)
H32 H 0.9921 0.7563 0.6688
C43 C 1.1385(13) 0.7006(9) 0.7332(9)
H33 H 1.1798 0.6955 0.6882
C44 C 1.1920(10) 0.6699(7) 0.8098(9)
H34 H 1.2687 0.6412 0.8184
C45 C 1.1290(7) 0.6828(5) 0.8740(6)
C46 C 1.0616(6) 0.6943(5) 0.9911(5)
Cd2_2 Cd 0.79301(4) 0.78318(3) -0.03877(3)
O11_2 O 0.8307(5) 0.7391(4) 1.0987(3)
N13 N 0.1750(6) 0.4883(4) 0.7187(5)
H35 H 0.1791 0.4957 0.6668
N14 N 0.2273(7) 0.4528(4) 0.8505(5)
H36 H 0.2685 0.4343 0.8954
N15 N 0.3702(6) 0.4368(5) 0.7579(5)
H37 H 0.3891 0.4414 0.7082
H38 H 0.4204 0.4182 0.7974
C47 C 0.0771(8) 0.5050(5) 0.7595(6)
C48 C -0.0292(10) 0.5363(6) 0.7263(9)
H39 H -0.0479 0.5492 0.6708
C49 C -0.1109(11) 0.5475(8) 0.7881(11)
H40 H -0.1863 0.5707 0.7715
C50 C -0.0798(11) 0.5256(8) 0.8663(10)
H41 H -0.1350 0.5317 0.9034
C51 C 0.0318(10) 0.4933(6) 0.8978(8)
H42 H 0.0514 0.4795 0.9532
C52 C 0.1077(8) 0.4838(6) 0.8419(6)
C53 C 0.2615(8) 0.4587(5) 0.7739(6)
N16 N 0.3861(5) 0.7780(4) 0.9356(4)
H43 H 0.3829 0.7246 0.9519
N17 N 0.4280(5) 0.8917(4) 0.9344(5)
H44 H 0.4559 0.9232 0.9490
N18 N 0.4917(5) 0.7537(4) 1.0532(5)
H45 H 0.5241 0.7749 1.0777
H46 H 0.4939 0.6986 1.0772
C54 C 0.3380(6) 0.8494(5) 0.8604(5)
C55 C 0.2765(7) 0.8572(6) 0.7965(6)
H47 H 0.2591 0.8083 0.7977
C56 C 0.2402(9) 0.9383(7) 0.7300(6)
H48 H 0.1986 0.9443 0.6850
C57 C 0.2636(9) 1.0100(8) 0.7280(7)
H49 H 0.2364 1.0647 0.6821
C58 C 0.3271(8) 1.0043(6) 0.7927(8)
H50 H 0.3439 1.0537 0.7907
C59 C 0.3641(6) 0.9222(5) 0.8600(6)
C60 C 0.4385(6) 0.8055(5) 0.9790(6)
O13 O 0.1772(5) 0.5272(4) 0.5510(4)
O14 O 0.5000 0.0000 0.0000
O15 O 0.1871(7) 0.4564(5) 0.4335(6)
O16 O 0.5309(7) 0.5685(7) 0.3949(6)
O17 O 0.5992(8) 0.5650(6) 0.5550(7)
O18 O 0.2039(12) 0.6359(10) 0.2282(7)
O19 O 0.3877(15) 0.7239(11) 0.2787(12)
loop_
_geom_bond_atom_site_label_1
_geom_bond_atom_site_label_2
_geom_bond_site_symmetry_1
_geom_bond_site_symmetry_2
Cd1 O1 1_555 1_555
Cd2 O5 1_555 1_555
O1 C1 1_555 1_555
O2 Cd1 1_555 1_555
O3 C5 1_555 1_555
O4 C5 1_555 1_555
O5 C8 1_555 1_555
O6 Cd2 1_555 1_555
O7 Cd1 1_555 1_555
O8 Cd1 1_555 1_555
O9 C14 1_555 1_555
O10 C14 1_555 1_555
O11 C17 1_555 1_555
O12 C17 1_555 1_555
N1 Cd1 1_555 1_555
N2 H1 1_555 1_555
N3 H2 1_555 1_555
H3 N3 1_555 1_555
N4 Cd1 1_555 1_555
N5 H4 1_555 1_555
N6 H5 1_555 1_555
H6 N6 1_555 1_555
N7 Cd2 1_555 1_555
N8 H7 1_555 1_555
N9 H8 1_555 1_555
H9 N9 1_555 1_555
N10 Cd2 1_555 1_555
N11 H10 1_555 1_555
N12 H11 1_555 1_555
H12 N12 1_555 1_555
C1 O2 1_555 1_555
C2 C1 1_555 1_555
C3 C2 1_555 1_555
H13 C3 1_555 1_555
C4 C3 1_555 1_555
C5 C4 1_555 1_555
C6 C4 1_555 1_555
H14 C6 1_555 1_555
C7 C6 1_555 1_555
C8 O6 1_555 1_555
C9 C2 1_555 1_555
H15 C9 1_555 1_555
C10 O7 1_555 1_555
C11 C10 1_555 1_555
C12 C11 1_555 1_555
H16 C12 1_555 1_555
C13 C12 1_555 1_555
C14 C13 1_555 1_555
C15 C13 1_555 1_555
H17 C15 1_555 1_555
C16 C15 1_555 1_555
C17 C16 1_555 1_555
C18 C11 1_555 1_555
H18 C18 1_555 1_555
C19 N1 1_555 1_555
C20 C19 1_555 1_555
H19 C20 1_555 1_555
C21 C20 1_555 1_555
H20 C21 1_555 1_555
C22 C21 1_555 1_555
H21 C22 1_555 1_555
C23 C22 1_555 1_555
H22 C23 1_555 1_555
C24 N2 1_555 1_555
C25 N1 1_555 1_555
C26 N4 1_555 1_555
C27 C26 1_555 1_555
H23 C27 1_555 1_555
C28 C27 1_555 1_555
H24 C28 1_555 1_555
C29 C28 1_555 1_555
H25 C29 1_555 1_555
C30 C29 1_555 1_555
H26 C30 1_555 1_555
C31 N5 1_555 1_555
C32 N4 1_555 1_555
C33 N7 1_555 1_555
C34 C33 1_555 1_555
H27 C34 1_555 1_555
C35 C34 1_555 1_555
H28 C35 1_555 1_555
C36 C35 1_555 1_555
H29 C36 1_555 1_555
C37 C36 1_555 1_555
H30 C37 1_555 1_555
C38 N8 1_555 1_555
C39 N7 1_555 1_555
C40 N10 1_555 1_555
C41 C40 1_555 1_555
H31 C41 1_555 1_555
C42 C41 1_555 1_555
H32 C42 1_555 1_555
C43 C42 1_555 1_555
H33 C43 1_555 1_555
C44 C43 1_555 1_555
H34 C44 1_555 1_555
C45 N11 1_555 1_555
C46 N10 1_555 1_555
N13 H35 1_555 1_555
N14 H36 1_555 1_555
N15 H37 1_555 1_555
H38 N15 1_555 1_555
C47 N13 1_555 1_555
C48 C47 1_555 1_555
H39 C48 1_555 1_555
C49 C48 1_555 1_555
H40 C49 1_555 1_555
C50 C49 1_555 1_555
H41 C50 1_555 1_555
C51 C50 1_555 1_555
H42 C51 1_555 1_555
C52 N14 1_555 1_555
C53 N13 1_555 1_555
N16 H43 1_555 1_555
N17 H44 1_555 1_555
N18 H45 1_555 1_555
H46 N18 1_555 1_555
C54 N16 1_555 1_555
C55 C54 1_555 1_555
H47 C55 1_555 1_555
C56 C55 1_555 1_555
H48 C56 1_555 1_555
C57 C56 1_555 1_555
H49 C57 1_555 1_555
C58 C57 1_555 1_555
H50 C58 1_555 1_555
C59 N17 1_555 1_555
C60 N16 1_555 1_555
Cd2_2 O11 1_555 1_555
O11_2 Cd2 1_555 1_555
O8 C10 1_555 1_555
N2 C25 1_555 1_555
N3 C25 1_555 1_555
N5 C32 1_555 1_555
N6 C32 1_555 1_555
N8 C39 1_555 1_555
N9 C39 1_555 1_555
N11 C46 1_555 1_555
N12 C46 1_555 1_555
C7 C8 1_555 1_555
C7 C9 1_555 1_555
C16 C18 1_555 1_555
C19 C24 1_555 1_555
C23 C24 1_555 1_555
C26 C31 1_555 1_555
C30 C31 1_555 1_555
C33 C38 1_555 1_555
C37 C38 1_555 1_555
C40 C45 1_555 1_555
C44 C45 1_555 1_555
N14 C53 1_555 1_555
N15 C53 1_555 1_555
C47 C52 1_555 1_555
C51 C52 1_555 1_555
N17 C60 1_555 1_555
N18 C60 1_555 1_555
C54 C59 1_555 1_555
C58 C59 1_555 1_555

#END
