
#######################################################################
#
#                 Cambridge Crystallographic Data Centre
#                                CCDC 
#
#######################################################################
#
# If this CIF has been generated from an entry in the Cambridge 
# Structural Database, then it will include bibliographic, chemical, 
# crystal, experimental, refinement or atomic coordinate data resulting 
# from the CCDC's data processing and validation procedures.
#
#######################################################################

data_SIXZIJ
_symmetry_cell_setting           triclinic
_symmetry_space_group_name_H-M   'P -1'
_symmetry_Int_Tables_number      2
_space_group_name_Hall           '-P 1'
loop_
_symmetry_equiv_pos_site_id
_symmetry_equiv_pos_as_xyz
1 x,y,z
2 -x,-y,-z
_cell_length_a                   7.6184(16)
_cell_length_b                   8.841(2)
_cell_length_c                   11.292(2)
_cell_angle_alpha                105.818(3)
_cell_angle_beta                 90.458(3)
_cell_angle_gamma                111.113(4)
_cell_volume                     677.848
loop_
_atom_site_label
_atom_site_type_symbol
_atom_site_fract_x
_atom_site_fract_y
_atom_site_fract_z
Cd1 Cd 0.0000 0.5000 0.5000
Cl1 Cl 0.36024(6) 0.69550(6) 0.56108(5)
N1 N 0.2025(2) 0.2104(2) 0.18002(14)
N2 N 0.0610(2) 0.2237(2) 0.11457(16)
N3 N 0.0811(2) 0.3556(2) 0.31716(14)
N4 N 0.2180(2) 0.1751(2) -0.35038(14)
N5 N 0.0356(3) 0.0903(2) -0.33626(18)
N6 N 0.0617(2) 0.3156(2) -0.40154(15)
C1 C 0.4241(3) 0.1952(3) 0.02495(18)
C2 C 0.3574(3) 0.1249(2) -0.10034(18)
H1 H 0.2454 0.0254 -0.1268
C3 C 0.4522(3) 0.1980(2) -0.18780(18)
C4 C 0.6163(3) 0.3425(3) -0.1479(2)
H2 H 0.6836 0.3923 -0.2069
C5 C 0.6831(3) 0.4152(3) -0.0228(2)
H3 H 0.7949 0.5147 0.0039
C6 C 0.5859(3) 0.3418(3) 0.0628(2)
H4 H 0.6305 0.3923 0.1485
C7 C 0.3162(3) 0.1158(3) 0.11844(19)
H5 H 0.2321 -0.0031 0.0760
H6 H 0.4068 0.1146 0.1812
C8 C 0.3726(3) 0.1223(3) -0.32266(18)
H7 H 0.4748 0.1585 -0.3744
H8 H 0.3242 -0.0030 -0.3441
C9 C -0.0069(3) 0.3115(3) 0.20165(19)
H9 H -0.1101 0.3417 0.1848
C10 C 0.2125(3) 0.2890(3) 0.29910(18)
H10 H 0.3010 0.2966 0.3624
C11 C -0.0520(3) 0.1788(3) -0.3690(2)
H11 H -0.1850 0.1493 -0.3698
C12 C 0.2313(3) 0.3079(2) -0.38837(17)
H12 H 0.3457 0.3861 -0.4039
Cd1_2 Cd 0.0000 0.5000 -0.5000
Cd1_3 Cd 0.0000 0.5000 1.5000
Cl1A Cl -0.36024(6) 0.30450(6) 0.43892(5)
N1A N -0.2025(2) 0.7896(2) 0.81998(14)
N2A N -0.0610(2) 0.7763(2) 0.88543(16)
N3A N -0.0811(2) 0.6444(2) 0.68284(14)
N4A N -0.2180(2) 0.8249(2) 1.35038(14)
N5A N -0.0356(3) 0.9097(2) 1.33626(18)
N6A N -0.0617(2) 0.6844(2) 1.40154(15)
N6_2 N 0.0617(2) 0.3156(2) 0.59846(15)
N6A_2 N -0.0617(2) 0.6844(2) 0.40154(15)
C1A C -0.4241(3) 0.8048(3) 0.97505(18)
C2A C -0.3574(3) 0.8751(2) 1.10034(18)
H1A H -0.2454 0.9746 1.1268
C3A C -0.4522(3) 0.8020(2) 1.18780(18)
C4A C -0.6163(3) 0.6575(3) 1.1479(2)
H2A H -0.6836 0.6077 1.2069
C5A C -0.6831(3) 0.5848(3) 1.0228(2)
H3A H -0.7949 0.4853 0.9961
C6A C -0.5859(3) 0.6582(3) 0.9372(2)
H4A H -0.6305 0.6077 0.8515
C7A C -0.3162(3) 0.8842(3) 0.88156(19)
H5A H -0.2321 1.0031 0.9240
H6A H -0.4068 0.8854 0.8188
C8A C -0.3726(3) 0.8777(3) 1.32266(18)
H7A H -0.4748 0.8415 1.3744
H8A H -0.3242 1.0030 1.3441
C9A C 0.0069(3) 0.6885(3) 0.79835(19)
H9A H 0.1101 0.6583 0.8152
C10A C -0.2125(3) 0.7110(3) 0.70090(18)
H10A H -0.3010 0.7034 0.6376
C11A C 0.0520(3) 0.8212(3) 1.3690(2)
H11A H 0.1850 0.8507 1.3698
C12A C -0.2313(3) 0.6921(2) 1.38837(17)
H12A H -0.3457 0.6139 1.4039
loop_
_geom_bond_atom_site_label_1
_geom_bond_atom_site_label_2
_geom_bond_site_symmetry_1
_geom_bond_site_symmetry_2
Cd1 Cl1 1_555 1_555
N1 N2 1_555 1_555
N2 C9 1_555 1_555
N3 Cd1 1_555 1_555
N4 N5 1_555 1_555
N5 C11 1_555 1_555
N6 C11 1_555 1_555
C1 C2 1_555 1_555
C2 H1 1_555 1_555
C3 C2 1_555 1_555
C4 C3 1_555 1_555
H2 C4 1_555 1_555
C5 C4 1_555 1_555
H3 C5 1_555 1_555
C6 C1 1_555 1_555
H4 C6 1_555 1_555
C7 N1 1_555 1_555
H5 C7 1_555 1_555
H6 C7 1_555 1_555
C8 N4 1_555 1_555
H7 C8 1_555 1_555
H8 C8 1_555 1_555
C9 N3 1_555 1_555
H9 C9 1_555 1_555
C10 N1 1_555 1_555
H10 C10 1_555 1_555
C11 H11 1_555 1_555
C12 N4 1_555 1_555
H12 C12 1_555 1_555
Cd1_2 N6 1_555 1_555
Cd1_3 N6A 1_555 1_555
Cl1A Cd1 1_555 1_555
N1A N2A 1_555 1_555
N2A C9A 1_555 1_555
N3A Cd1 1_555 1_555
N4A N5A 1_555 1_555
N5A C11A 1_555 1_555
N6A C11A 1_555 1_555
N6_2 Cd1 1_555 1_555
N6A_2 Cd1 1_555 1_555
C1A C2A 1_555 1_555
C2A H1A 1_555 1_555
C3A C2A 1_555 1_555
C4A C3A 1_555 1_555
H2A C4A 1_555 1_555
C5A C4A 1_555 1_555
H3A C5A 1_555 1_555
C6A C1A 1_555 1_555
H4A C6A 1_555 1_555
C7A N1A 1_555 1_555
H5A C7A 1_555 1_555
H6A C7A 1_555 1_555
C8A N4A 1_555 1_555
H7A C8A 1_555 1_555
H8A C8A 1_555 1_555
C9A N3A 1_555 1_555
H9A C9A 1_555 1_555
C10A N1A 1_555 1_555
H10A C10A 1_555 1_555
C11A H11A 1_555 1_555
C12A N4A 1_555 1_555
H12A C12A 1_555 1_555
N3 C10 1_555 1_555
N6 C12 1_555 1_555
C1 C7 1_555 1_555
C3 C8 1_555 1_555
C5 C6 1_555 1_555
N3A C10A 1_555 1_555
N6A C12A 1_555 1_555
C1A C7A 1_555 1_555
C3A C8A 1_555 1_555
C5A C6A 1_555 1_555

#END
