
#######################################################################
#
#                 Cambridge Crystallographic Data Centre
#                                CCDC 
#
#######################################################################
#
# If this CIF has been generated from an entry in the Cambridge 
# Structural Database, then it will include bibliographic, chemical, 
# crystal, experimental, refinement or atomic coordinate data resulting 
# from the CCDC's data processing and validation procedures.
#
#######################################################################

data_SIXZAB
_symmetry_cell_setting           monoclinic
_symmetry_space_group_name_H-M   'C 2/c'
_symmetry_Int_Tables_number      15
_space_group_name_Hall           '-C 2yn'
loop_
_symmetry_equiv_pos_site_id
_symmetry_equiv_pos_as_xyz
1 x,y,z
2 1/2+x,1/2+y,z
3 -x,y,1/2-z
4 1/2-x,1/2+y,1/2-z
5 -x,-y,-z
6 1/2-x,1/2-y,-z
7 x,-y,1/2+z
8 1/2+x,1/2-y,1/2+z
_cell_length_a                   15.5812(10)
_cell_length_b                   13.3064(9)
_cell_length_c                   15.4063(10)
_cell_angle_alpha                90
_cell_angle_beta                 96.3190(10)
_cell_angle_gamma                90
_cell_volume                     3174.78
loop_
_atom_site_label
_atom_site_type_symbol
_atom_site_fract_x
_atom_site_fract_y
_atom_site_fract_z
N1 N 0.18593(18) 0.3929(2) 0.09080(17)
H1 H 0.1705 0.4010 0.1423
N2 N 0.17907(17) 0.36930(19) -0.05004(16)
H2 H 0.1585 0.3597 -0.1035
N3 N 0.04761(17) 0.3838(2) 0.01250(18)
H3 H 0.0225 0.3923 0.0590
H4 H 0.0172 0.3764 -0.0372
C9 C 0.2712(2) 0.3888(2) 0.0704(2)
C10 C 0.2666(2) 0.3741(2) -0.0191(2)
C11 C 0.3404(2) 0.3706(3) -0.0617(3)
H9 H 0.3373 0.3616 -0.1218
C12 C 0.4180(3) 0.3810(3) -0.0116(3)
H10 H 0.4687 0.3789 -0.0382
C13 C 0.4227(3) 0.3946(4) 0.0782(3)
H11 H 0.4765 0.4015 0.1103
C14 C 0.3491(2) 0.3980(3) 0.1211(3)
H12 H 0.3523 0.4062 0.1813
C15 C 0.1321(2) 0.3822(2) 0.0174(2)
O5 O 1.0072(11) 0.1786(10) 0.2127(10)
O5B O 0.9928(11) 0.1786(10) 0.2873(10)
Cd1 Cd 0.0000 0.52127(2) 0.2500
O1 O 0.08161(13) 0.44217(17) 0.36980(14)
O2 O 0.11090(15) 0.3944(2) 0.24000(14)
O3 O 0.35589(17) 0.1439(2) 0.22978(15)
O4 O 0.44786(15) 0.12355(18) 0.34733(15)
C1 C 0.12927(19) 0.3977(2) 0.3219(2)
C2 C 0.21170(19) 0.3509(2) 0.3624(2)
C3 C 0.25730(19) 0.2825(2) 0.3168(2)
H5 H 0.2357 0.2635 0.2605
C4 C 0.33489(19) 0.2423(2) 0.3548(2)
C5 C 0.3822(2) 0.1649(2) 0.3065(2)
C6 C 0.3679(2) 0.2739(2) 0.4379(2)
H6 H 0.4203 0.2482 0.4633
C7 C 0.3239(2) 0.3431(3) 0.4833(2)
H7 H 0.3470 0.3649 0.5383
C8 C 0.2448(2) 0.3800(2) 0.4462(2)
H8 H 0.2138 0.4244 0.4775
Cd1A Cd 0.5000 0.02127(2) 0.2500
Cd1A_2 Cd -0.5000 0.02127(2) 0.2500
O1B O -0.08161(13) 0.44217(17) 0.13020(14)
O2B O -0.11090(15) 0.3944(2) 0.26000(14)
O3B O -0.35589(17) 0.1439(2) 0.27022(15)
O4B O -0.44786(15) 0.12355(18) 0.15267(15)
O4A O -0.05214(15) 0.62355(18) 0.34733(15)
O4C O 0.05214(15) 0.62355(18) 0.15267(15)
C1B C -0.12927(19) 0.3977(2) 0.1781(2)
C2B C -0.21170(19) 0.3509(2) 0.1376(2)
C3B C -0.25730(19) 0.2825(2) 0.1832(2)
H5B H -0.2357 0.2635 0.2395
C4B C -0.33489(19) 0.2423(2) 0.1452(2)
C5B C -0.3822(2) 0.1649(2) 0.1935(2)
C6B C -0.3679(2) 0.2739(2) 0.0621(2)
H6B H -0.4203 0.2482 0.0367
C7B C -0.3239(2) 0.3431(3) 0.0167(2)
H7B H -0.3470 0.3649 -0.0383
C8B C -0.2448(2) 0.3800(2) 0.0538(2)
H8B H -0.2138 0.4244 0.0225
loop_
_geom_bond_atom_site_label_1
_geom_bond_atom_site_label_2
_geom_bond_site_symmetry_1
_geom_bond_site_symmetry_2
Cd1 O1 1_555 1_555
O1 C1 1_555 1_555
O2 Cd1 1_555 1_555
O3 C5 1_555 1_555
O4 C5 1_555 1_555
N1 H1 1_555 1_555
N2 H2 1_555 1_555
N3 H3 1_555 1_555
H4 N3 1_555 1_555
C1 O2 1_555 1_555
C2 C1 1_555 1_555
C3 C2 1_555 1_555
H5 C3 1_555 1_555
C4 C3 1_555 1_555
C5 C4 1_555 1_555
C6 C4 1_555 1_555
H6 C6 1_555 1_555
C7 C6 1_555 1_555
H7 C7 1_555 1_555
C8 C2 1_555 1_555
H8 C8 1_555 1_555
C9 N1 1_555 1_555
C10 N2 1_555 1_555
C11 C10 1_555 1_555
H9 C11 1_555 1_555
C12 C11 1_555 1_555
H10 C12 1_555 1_555
C13 C12 1_555 1_555
H11 C13 1_555 1_555
C14 C9 1_555 1_555
H12 C14 1_555 1_555
C15 N1 1_555 1_555
O5 O5B 1_555 1_555
Cd1A O4 1_555 1_555
Cd1A_2 O4B 1_555 1_555
O1B Cd1 1_555 1_555
O2B Cd1 1_555 1_555
O3B C5B 1_555 1_555
O4B C5B 1_555 1_555
O4A Cd1 1_555 1_555
O4C Cd1 1_555 1_555
C1B O1B 1_555 1_555
C2B C1B 1_555 1_555
C3B C2B 1_555 1_555
H5B C3B 1_555 1_555
C4B C3B 1_555 1_555
C5B C4B 1_555 1_555
C6B C4B 1_555 1_555
H6B C6B 1_555 1_555
C7B C6B 1_555 1_555
H7B C7B 1_555 1_555
C8B C2B 1_555 1_555
H8B C8B 1_555 1_555
N2 C15 1_555 1_555
N3 C15 1_555 1_555
C7 C8 1_555 1_555
C9 C10 1_555 1_555
C13 C14 1_555 1_555
O2B C1B 1_555 1_555
C7B C8B 1_555 1_555

#END
