
#######################################################################
#
#                 Cambridge Crystallographic Data Centre
#                                CCDC 
#
#######################################################################
#
# If this CIF has been generated from an entry in the Cambridge 
# Structural Database, then it will include bibliographic, chemical, 
# crystal, experimental, refinement or atomic coordinate data resulting 
# from the CCDC's data processing and validation procedures.
#
#######################################################################

data_SIXZEF
_symmetry_cell_setting           monoclinic
_symmetry_space_group_name_H-M   'P 21/n'
_symmetry_Int_Tables_number      14
_space_group_name_Hall           '-P 2yn'
loop_
_symmetry_equiv_pos_site_id
_symmetry_equiv_pos_as_xyz
1 x,y,z
2 1/2-x,1/2+y,1/2-z
3 -x,-y,-z
4 1/2+x,1/2-y,1/2+z
_cell_length_a                   13.5864(11)
_cell_length_b                   8.8657(6)
_cell_length_c                   14.0682(11)
_cell_angle_alpha                90
_cell_angle_beta                 112.570(2)
_cell_angle_gamma                90
_cell_volume                     1564.77
loop_
_atom_site_label
_atom_site_type_symbol
_atom_site_fract_x
_atom_site_fract_y
_atom_site_fract_z
Cd1 Cd 0.5000 0.5000 0.5000
O1 O 0.52198(17) 0.7580(2) 0.48922(16)
H1 H 0.521(2) 0.812(3) 0.525(2)
H2 H 0.534(3) 0.799(3) 0.443(2)
N1 N 0.70681(15) 0.4630(2) 0.32542(14)
N2 N 0.76216(14) 0.5771(2) 0.38797(14)
N3 N 0.63723(16) 0.48500(18) 0.44035(15)
N4 N 0.69250(13) 0.5833(2) -0.17011(13)
N5 N 0.69456(15) 0.4300(2) -0.16288(14)
N6 N 0.61556(15) 0.50428(15) -0.32779(14)
C1 C 0.67499(18) 0.5338(3) 0.14628(17)
C2 C 0.72278(16) 0.5546(2) 0.07605(15)
H3 H 0.7851 0.4991 0.0836
C3 C 0.68071(16) 0.6556(2) -0.00518(14)
C4 C 0.58946(19) 0.7359(3) -0.01631(16)
H4 H 0.5604 0.8056 -0.0714
C5 C 0.54062(19) 0.7147(3) 0.05292(17)
H5 H 0.4778 0.7694 0.0449
C6 C 0.58296(18) 0.6141(3) 0.13369(17)
H6 H 0.5489 0.5998 0.1807
C7 C 0.72420(18) 0.4209(3) 0.23258(16)
H7 H 0.6928 0.3202 0.2093
H8 H 0.8017 0.4142 0.2490
C8 C 0.73651(18) 0.6794(3) -0.07826(15)
H9 H 0.7296 0.7865 -0.0998
H10 H 0.8133 0.6571 -0.0421
C9 C 0.71821(16) 0.5851(3) 0.45615(16)
H11 H 0.7408 0.6548 0.5117
C10 C 0.63386(16) 0.4102(2) 0.35761(15)
H12 H 0.5860 0.3301 0.3260
C11 C 0.64715(16) 0.3886(2) -0.25952(16)
H13 H 0.6359 0.2858 -0.2800
C12 C 0.64655(16) 0.6250(2) -0.26760(15)
H14 H 0.6371 0.7264 -0.2911
Cd1_2 Cd 0.5000 0.5000 -0.5000
Cd1_3 Cd 0.5000 0.5000 1.5000
O1B O 0.47802(17) 0.2420(2) 0.51078(16)
H1B H 0.479(2) 0.188(3) 0.475(2)
H2B H 0.466(3) 0.201(3) 0.557(2)
N1B N 0.29319(15) 0.5370(2) 0.67458(14)
N2B N 0.23784(14) 0.4229(2) 0.61203(14)
N3B N 0.36277(16) 0.51500(18) 0.55965(15)
N4B N 0.30750(13) 0.4167(2) 1.17011(13)
N5B N 0.30544(15) 0.5700(2) 1.16288(14)
N6B N 0.38444(15) 0.49572(15) 1.32779(14)
N6_2 N 0.61556(15) 0.50428(15) 0.67221(14)
N6B_2 N 0.38444(15) 0.49572(15) 0.32779(14)
C1B C 0.32501(18) 0.4662(3) 0.85372(17)
C2B C 0.27722(16) 0.4454(2) 0.92395(15)
H3B H 0.2149 0.5009 0.9164
C3B C 0.31929(16) 0.3444(2) 1.00518(14)
C4B C 0.41054(19) 0.2641(3) 1.01631(16)
H4B H 0.4396 0.1944 1.0714
C5B C 0.45938(19) 0.2853(3) 0.94708(17)
H5B H 0.5222 0.2306 0.9551
C6B C 0.41704(18) 0.3859(3) 0.86631(17)
H6B H 0.4511 0.4002 0.8193
C7B C 0.27580(18) 0.5791(3) 0.76742(16)
H7B H 0.3072 0.6798 0.7907
H8B H 0.1983 0.5858 0.7510
C8B C 0.26349(18) 0.3206(3) 1.07826(15)
H9B H 0.2704 0.2135 1.0998
H10B H 0.1867 0.3429 1.0421
C9B C 0.28179(16) 0.4149(3) 0.54385(16)
H11B H 0.2592 0.3452 0.4883
C10B C 0.36614(16) 0.5898(2) 0.64239(15)
H12B H 0.4140 0.6699 0.6740
C11B C 0.35285(16) 0.6114(2) 1.25952(16)
H13B H 0.3641 0.7142 1.2800
C12B C 0.35345(16) 0.3750(2) 1.26760(15)
H14B H 0.3629 0.2736 1.2911
B1 B 0.4765(3) 0.9944(2) 0.2785(2)
F1 F 0.52773(13) 1.10065(19) 0.24634(15)
F2 F 0.37814(16) 0.9720(2) 0.2072(2)
F3 F 0.53423(10) 0.86143(14) 0.30613(11)
F4 F 0.4918(5) 1.0593(5) 0.3749(3)
F5? F 0.4273(4) 1.0233(6) 0.3517(5)
loop_
_geom_bond_atom_site_label_1
_geom_bond_atom_site_label_2
_geom_bond_site_symmetry_1
_geom_bond_site_symmetry_2
Cd1 O1 1_555 1_555
O1 H1 1_555 1_555
H2 O1 1_555 1_555
N1 N2 1_555 1_555
N2 C9 1_555 1_555
N3 Cd1 1_555 1_555
N4 N5 1_555 1_555
N5 C11 1_555 1_555
N6 C11 1_555 1_555
C1 C2 1_555 1_555
C2 H3 1_555 1_555
C3 C2 1_555 1_555
C4 C3 1_555 1_555
H4 C4 1_555 1_555
C5 C4 1_555 1_555
H5 C5 1_555 1_555
C6 C1 1_555 1_555
H6 C6 1_555 1_555
C7 N1 1_555 1_555
H7 C7 1_555 1_555
H8 C7 1_555 1_555
C8 N4 1_555 1_555
H9 C8 1_555 1_555
H10 C8 1_555 1_555
C9 N3 1_555 1_555
H11 C9 1_555 1_555
C10 N1 1_555 1_555
H12 C10 1_555 1_555
C11 H13 1_555 1_555
C12 N4 1_555 1_555
H14 C12 1_555 1_555
B1 F1 1_555 1_555
F2 B1 1_555 1_555
F3 B1 1_555 1_555
F4 B1 1_555 1_555
Cd1_2 N6 1_555 1_555
Cd1_3 N6B 1_555 1_555
O1B Cd1 1_555 1_555
H1B O1B 1_555 1_555
H2B O1B 1_555 1_555
N1B N2B 1_555 1_555
N2B C9B 1_555 1_555
N3B Cd1 1_555 1_555
N4B N5B 1_555 1_555
N5B C11B 1_555 1_555
N6B C11B 1_555 1_555
N6_2 Cd1 1_555 1_555
N6B_2 Cd1 1_555 1_555
C1B C2B 1_555 1_555
C2B H3B 1_555 1_555
C3B C2B 1_555 1_555
C4B C3B 1_555 1_555
H4B C4B 1_555 1_555
C5B C4B 1_555 1_555
H5B C5B 1_555 1_555
C6B C1B 1_555 1_555
H6B C6B 1_555 1_555
C7B N1B 1_555 1_555
H7B C7B 1_555 1_555
H8B C7B 1_555 1_555
C8B N4B 1_555 1_555
H9B C8B 1_555 1_555
H10B C8B 1_555 1_555
C9B N3B 1_555 1_555
H11B C9B 1_555 1_555
C10B N1B 1_555 1_555
H12B C10B 1_555 1_555
C11B H13B 1_555 1_555
C12B N4B 1_555 1_555
H14B C12B 1_555 1_555
N3 C10 1_555 1_555
N6 C12 1_555 1_555
C1 C7 1_555 1_555
C3 C8 1_555 1_555
C5 C6 1_555 1_555
N3B C10B 1_555 1_555
N6B C12B 1_555 1_555
C1B C7B 1_555 1_555
C3B C8B 1_555 1_555
C5B C6B 1_555 1_555

#END
