
#######################################################################
#
#                 Cambridge Crystallographic Data Centre
#                                CCDC 
#
#######################################################################
#
# If this CIF has been generated from an entry in the Cambridge 
# Structural Database, then it will include bibliographic, chemical, 
# crystal, experimental, refinement or atomic coordinate data resulting 
# from the CCDC's data processing and validation procedures.
#
#######################################################################

data_SIXZOP
_symmetry_cell_setting           triclinic
_symmetry_space_group_name_H-M   'P -1'
_symmetry_Int_Tables_number      2
_space_group_name_Hall           '-P 1'
loop_
_symmetry_equiv_pos_site_id
_symmetry_equiv_pos_as_xyz
1 x,y,z
2 -x,-y,-z
_cell_length_a                   7.7987(18)
_cell_length_b                   8.963(2)
_cell_length_c                   11.363(3)
_cell_angle_alpha                105.501(4)
_cell_angle_beta                 90.808(2)
_cell_angle_gamma                112.133(4)
_cell_volume                     703.093
loop_
_atom_site_label
_atom_site_type_symbol
_atom_site_fract_x
_atom_site_fract_y
_atom_site_fract_z
Cd1 Cd 0.5000 0.0000 0.0000
Br1 Br 0.12507(3) -0.20570(3) -0.06319(2)
N1 N 0.3008(3) 0.3263(3) -0.15147(18)
N2 N 0.4830(3) 0.4092(3) -0.1626(2)
N3 N 0.4452(3) 0.1855(3) -0.0959(2)
N4 N 0.3121(3) 0.2832(3) -0.67932(17)
N5 N 0.4409(3) 0.2596(3) -0.61329(19)
N6 N 0.4275(3) 0.1392(3) -0.81558(18)
C1 C 0.0735(4) 0.3075(3) -0.3137(2)
C2 C 0.1688(4) 0.3755(3) -0.4018(2)
H1 H 0.2831 0.4694 -0.3769
C3 C 0.0986(4) 0.3074(3) -0.5255(2)
C4 C -0.0677(4) 0.1689(4) -0.5619(3)
H2 H -0.1156 0.1212 -0.6458
C5 C -0.1651(4) 0.0994(4) -0.4757(3)
H3 H -0.2790 0.0050 -0.5009
C6 C -0.0937(4) 0.1699(4) -0.3519(3)
H4 H -0.1604 0.1231 -0.2934
C7 C 0.1555(4) 0.3819(4) -0.1803(2)
H5 H 0.2087 0.5051 -0.1599
H6 H 0.0559 0.3494 -0.1291
C8 C 0.2074(4) 0.3820(4) -0.6192(2)
H7 H 0.1212 0.3846 -0.6815
H8 H 0.2943 0.4982 -0.5783
C9 C 0.5639(4) 0.3211(4) -0.1272(3)
H9 H 0.6932 0.3494 -0.1236
C10 C 0.2810(4) 0.1946(3) -0.1122(2)
H10 H 0.1672 0.1188 -0.0979
C11 C 0.5053(4) 0.1724(3) -0.6999(2)
H11 H 0.5986 0.1361 -0.6825
C12 C 0.3056(4) 0.2109(3) -0.7982(2)
H12 H 0.2259 0.2104 -0.8612
Cd1_2 Cd 0.5000 0.0000 -1.0000
Cd1_3 Cd 0.5000 0.0000 1.0000
Br1A Br 0.87493(3) 0.20570(3) 0.06319(2)
N1A N 0.6992(3) -0.3263(3) 0.15147(18)
N2A N 0.5170(3) -0.4092(3) 0.1626(2)
N3A N 0.5548(3) -0.1855(3) 0.0959(2)
N4A N 0.6879(3) -0.2832(3) 0.67932(17)
N5A N 0.5591(3) -0.2596(3) 0.61329(19)
N6A N 0.5725(3) -0.1392(3) 0.81558(18)
N6_2 N 0.4275(3) 0.1392(3) 0.18442(18)
N6A_2 N 0.5725(3) -0.1392(3) -0.18442(18)
C1A C 0.9265(4) -0.3075(3) 0.3137(2)
C2A C 0.8312(4) -0.3755(3) 0.4018(2)
H1A H 0.7169 -0.4694 0.3769
C3A C 0.9014(4) -0.3074(3) 0.5255(2)
C4A C 1.0677(4) -0.1689(4) 0.5619(3)
H2A H 1.1156 -0.1212 0.6458
C5A C 1.1651(4) -0.0994(4) 0.4757(3)
H3A H 1.2790 -0.0050 0.5009
C6A C 1.0937(4) -0.1699(4) 0.3519(3)
H4A H 1.1604 -0.1231 0.2934
C7A C 0.8445(4) -0.3819(4) 0.1803(2)
H5A H 0.7913 -0.5051 0.1599
H6A H 0.9441 -0.3494 0.1291
C8A C 0.7926(4) -0.3820(4) 0.6192(2)
H7A H 0.8788 -0.3846 0.6815
H8A H 0.7057 -0.4982 0.5783
C9A C 0.4361(4) -0.3211(4) 0.1272(3)
H9A H 0.3068 -0.3494 0.1236
C10A C 0.7190(4) -0.1946(3) 0.1122(2)
H10A H 0.8328 -0.1188 0.0979
C11A C 0.4947(4) -0.1724(3) 0.6999(2)
H11A H 0.4014 -0.1361 0.6825
C12A C 0.6944(4) -0.2109(3) 0.7982(2)
H12A H 0.7741 -0.2104 0.8612
loop_
_geom_bond_atom_site_label_1
_geom_bond_atom_site_label_2
_geom_bond_site_symmetry_1
_geom_bond_site_symmetry_2
Cd1 Br1 1_555 1_555
N1 N2 1_555 1_555
N2 C9 1_555 1_555
N3 Cd1 1_555 1_555
N4 N5 1_555 1_555
N5 C11 1_555 1_555
N6 C11 1_555 1_555
C1 C2 1_555 1_555
C2 H1 1_555 1_555
C3 C2 1_555 1_555
C4 C3 1_555 1_555
H2 C4 1_555 1_555
C5 C4 1_555 1_555
H3 C5 1_555 1_555
C6 C1 1_555 1_555
H4 C6 1_555 1_555
C7 N1 1_555 1_555
H5 C7 1_555 1_555
H6 C7 1_555 1_555
C8 N4 1_555 1_555
H7 C8 1_555 1_555
H8 C8 1_555 1_555
C9 N3 1_555 1_555
H9 C9 1_555 1_555
C10 N1 1_555 1_555
H10 C10 1_555 1_555
C11 H11 1_555 1_555
C12 N4 1_555 1_555
H12 C12 1_555 1_555
Cd1_2 N6 1_555 1_555
Cd1_3 N6A 1_555 1_555
Br1A Cd1 1_555 1_555
N1A N2A 1_555 1_555
N2A C9A 1_555 1_555
N3A Cd1 1_555 1_555
N4A N5A 1_555 1_555
N5A C11A 1_555 1_555
N6A C11A 1_555 1_555
N6_2 Cd1 1_555 1_555
N6A_2 Cd1 1_555 1_555
C1A C2A 1_555 1_555
C2A H1A 1_555 1_555
C3A C2A 1_555 1_555
C4A C3A 1_555 1_555
H2A C4A 1_555 1_555
C5A C4A 1_555 1_555
H3A C5A 1_555 1_555
C6A C1A 1_555 1_555
H4A C6A 1_555 1_555
C7A N1A 1_555 1_555
H5A C7A 1_555 1_555
H6A C7A 1_555 1_555
C8A N4A 1_555 1_555
H7A C8A 1_555 1_555
H8A C8A 1_555 1_555
C9A N3A 1_555 1_555
H9A C9A 1_555 1_555
C10A N1A 1_555 1_555
H10A C10A 1_555 1_555
C11A H11A 1_555 1_555
C12A N4A 1_555 1_555
H12A C12A 1_555 1_555
N3 C10 1_555 1_555
N6 C12 1_555 1_555
C1 C7 1_555 1_555
C3 C8 1_555 1_555
C5 C6 1_555 1_555
N3A C10A 1_555 1_555
N6A C12A 1_555 1_555
C1A C7A 1_555 1_555
C3A C8A 1_555 1_555
C5A C6A 1_555 1_555

#END
