
#######################################################################
#
#                 Cambridge Crystallographic Data Centre
#                                CCDC 
#
#######################################################################
#
# If this CIF has been generated from an entry in the Cambridge 
# Structural Database, then it will include bibliographic, chemical, 
# crystal, experimental, refinement or atomic coordinate data resulting 
# from the CCDC's data processing and validation procedures.
#
#######################################################################

data_SIYBEH
_symmetry_cell_setting           monoclinic
_symmetry_space_group_name_H-M   'P 21/a'
_symmetry_Int_Tables_number      14
_space_group_name_Hall           '-P 2yab'
loop_
_symmetry_equiv_pos_site_id
_symmetry_equiv_pos_as_xyz
1 x,y,z
2 1/2-x,1/2+y,-z
3 -x,-y,-z
4 1/2+x,1/2-y,z
_cell_length_a                   8.237(2)
_cell_length_b                   13.038(4)
_cell_length_c                   8.953(3)
_cell_angle_alpha                90
_cell_angle_beta                 112.23(2)
_cell_angle_gamma                90
_cell_volume                     890.033
loop_
_atom_site_label
_atom_site_type_symbol
_atom_site_fract_x
_atom_site_fract_y
_atom_site_fract_z
Cu1 Cu 0.0926(1) 0.0991(1) 0.0855(1)
N1 N 0.0463(2) -0.0464(1) 0.1364(2)
N2 N -0.0072(2) -0.0636(2) 0.2444(2)
N3 N -0.0550(3) -0.0808(2) 0.3458(3)
N4 N -0.1339(3) 0.1571(2) 0.1486(3)
N5 N -0.2438(2) 0.2143(1) 0.0741(2)
N6 N -0.3583(3) 0.2704(1) -0.0040(3)
N7 N 0.2896(2) 0.1167(1) 0.2979(2)
C1 C 0.4546(3) 0.0959(2) 0.3093(3)
C2 C 0.5970(3) 0.1123(2) 0.4536(3)
C3 C 0.5684(3) 0.1494(2) 0.5873(3)
C4 C 0.3982(3) 0.1679(2) 0.5745(3)
C5 C 0.2625(3) 0.1511(2) 0.4283(3)
C6 C 0.4771(3) 0.0549(2) 0.1622(3)
H1 H 0.720(2) 0.093(2) 0.451(4)
H2 H 0.672(2) 0.162(2) 0.697(2)
H3 H 0.370(4) 0.192(2) 0.671(2)
H4 H 0.133(2) 0.160(2) 0.417(3)
H5 H 0.439(4) 0.111(2) 0.069(3)
H6 H 0.391(3) -0.008(2) 0.116(4)
H7 H 0.607(2) 0.031(2) 0.184(4)
N1B N -0.0463(2) 0.0464(1) -0.1364(2)
N6C N 0.1417(3) 0.2296(1) -0.0040(3)
Cu1B Cu -0.0926(1) -0.0991(1) -0.0855(1)
Cu1C Cu -0.4074(1) 0.4009(1) 0.0855(1)
loop_
_geom_bond_atom_site_label_1
_geom_bond_atom_site_label_2
_geom_bond_site_symmetry_1
_geom_bond_site_symmetry_2
Cu1 N1 1_555 1_555
N1 N2 1_555 1_555
N2 N3 1_555 1_555
N4 Cu1 1_555 1_555
N5 N4 1_555 1_555
N6 N5 1_555 1_555
N7 Cu1 1_555 1_555
C1 N7 1_555 1_555
C2 C1 1_555 1_555
C3 C2 1_555 1_555
C4 C3 1_555 1_555
C5 N7 1_555 1_555
C6 C1 1_555 1_555
H1 C2 1_555 1_555
H2 C3 1_555 1_555
H3 C4 1_555 1_555
H4 C5 1_555 1_555
H5 C6 1_555 1_555
H6 C6 1_555 1_555
H7 C6 1_555 1_555
N1B Cu1 1_555 1_555
N6C Cu1 1_555 1_555
Cu1B N1 1_555 1_555
Cu1C N6 1_555 1_555
C4 C5 1_555 1_555
N1B Cu1B 1_555 1_555

#END
