
#######################################################################
#
#                 Cambridge Crystallographic Data Centre
#                                CCDC 
#
#######################################################################
#
# If this CIF has been generated from an entry in the Cambridge 
# Structural Database, then it will include bibliographic, chemical, 
# crystal, experimental, refinement or atomic coordinate data resulting 
# from the CCDC's data processing and validation procedures.
#
#######################################################################

data_SIYBAD
_symmetry_cell_setting           monoclinic
_symmetry_space_group_name_H-M   'P 21/c'
_symmetry_Int_Tables_number      14
_space_group_name_Hall           '-P 2ybc'
loop_
_symmetry_equiv_pos_site_id
_symmetry_equiv_pos_as_xyz
1 x,y,z
2 -x,1/2+y,1/2-z
3 -x,-y,-z
4 x,1/2-y,1/2+z
_cell_length_a                   5.778(2)
_cell_length_b                   22.023(5)
_cell_length_c                   9.199(2)
_cell_angle_alpha                90
_cell_angle_beta                 93.92(2)
_cell_angle_gamma                90
_cell_volume                     1167.82
loop_
_atom_site_label
_atom_site_type_symbol
_atom_site_fract_x
_atom_site_fract_y
_atom_site_fract_z
Cu1 Cu 0.2594(1) 0.0237(1) 0.0484(1)
N1 N 0.5393(9) -0.0197(3) 0.1268(6)
N2 N 0.5623(9) -0.0425(3) 0.2462(7)
N3 N 0.5855(10) -0.0639(3) 0.3595(8)
N4 N 0.0144(9) -0.0578(2) 0.0629(6)
N5 N 0.0694(9) -0.1103(3) 0.0530(6)
N6 N 0.1238(11) -0.1607(3) 0.0457(7)
N7 N 0.1853(9) 0.0659(3) 0.2338(7)
C1 C 0.0145(11) 0.0451(3) 0.3125(8)
C2 C -0.0880(12) 0.0758(3) 0.4233(7)
C3 C -0.0139(12) 0.1343(3) 0.4559(8)
C4 C 0.2539(13) 0.2183(4) 0.3972(9)
C5 C 0.4565(15) 0.2397(4) 0.3215(10)
C6 C 0.5236(14) 0.2029(4) 0.2127(9)
C7 C 0.4456(12) 0.1458(4) 0.1827(8)
C8 C 0.2568(12) 0.1227(3) 0.2673(7)
C9 C 0.1681(11) 0.1597(3) 0.3704(7)
C10 C -0.1224(17) 0.1686(4) 0.5680(11)
H1 H -0.049(1) 0.000(1) 0.287(1)
H2 H -0.222(1) 0.055(1) 0.482(1)
H3 H 0.181(1) 0.246(1) 0.479(1)
H4 H 0.662(1) 0.221(1) 0.153(1)
H5 H 0.519(1) 0.118(1) 0.100(1)
H6 H -0.246(11) 0.140(4) 0.618(9)
H7 H 0.027(10) 0.175(4) 0.645(8)
H8 H -0.203(13) 0.213(2) 0.550(11)
N1B N 0.4607(9) 0.0197(3) -0.1268(6)
N4B N -0.0144(9) 0.0578(2) -0.0629(6)
Cu1B Cu 0.7406(1) -0.0237(1) -0.0484(1)
Cu1B_2 Cu -0.2594(1) -0.0237(1) -0.0484(1)
loop_
_geom_bond_atom_site_label_1
_geom_bond_atom_site_label_2
_geom_bond_site_symmetry_1
_geom_bond_site_symmetry_2
Cu1 N1 1_555 1_555
N1 N2 1_555 1_555
N2 N3 1_555 1_555
N4 Cu1 1_555 1_555
N5 N4 1_555 1_555
N6 N5 1_555 1_555
N7 Cu1 1_555 1_555
C1 N7 1_555 1_555
C2 C1 1_555 1_555
C3 C2 1_555 1_555
C4 C5 1_555 1_555
C5 C6 1_555 1_555
C6 C7 1_555 1_555
C7 C8 1_555 1_555
C8 N7 1_555 1_555
C9 C3 1_555 1_555
C10 C3 1_555 1_555
H1 C1 1_555 1_555
H2 C2 1_555 1_555
H3 C4 1_555 1_555
H4 C6 1_555 1_555
H5 C7 1_555 1_555
H6 C10 1_555 1_555
H7 C10 1_555 1_555
H8 C10 1_555 1_555
N1B Cu1 1_555 1_555
N4B Cu1 1_555 1_555
Cu1B N1 1_555 1_555
Cu1B_2 N4 1_555 1_555
C4 C9 1_555 1_555
C8 C9 1_555 1_555
N1B Cu1B 1_555 1_555
N4B Cu1B_2 1_555 1_555

#END
