
#######################################################################
#
#                 Cambridge Crystallographic Data Centre
#                                CCDC 
#
#######################################################################
#
# If this CIF has been generated from an entry in the Cambridge 
# Structural Database, then it will include bibliographic, chemical, 
# crystal, experimental, refinement or atomic coordinate data resulting 
# from the CCDC's data processing and validation procedures.
#
#######################################################################

data_SIYCUY
_symmetry_cell_setting           monoclinic
_symmetry_space_group_name_H-M   'P 21/a'
_symmetry_Int_Tables_number      14
_space_group_name_Hall           '-P 2yab'
loop_
_symmetry_equiv_pos_site_id
_symmetry_equiv_pos_as_xyz
1 x,y,z
2 1/2-x,1/2+y,-z
3 -x,-y,-z
4 1/2+x,1/2-y,z
_cell_length_a                   16.46(2)
_cell_length_b                   5.580(3)
_cell_length_c                   12.49(2)
_cell_angle_alpha                90
_cell_angle_beta                 93.63(5)
_cell_angle_gamma                90
_cell_volume                     1144.86
loop_
_atom_site_label
_atom_site_type_symbol
_atom_site_fract_x
_atom_site_fract_y
_atom_site_fract_z
I1 I 0.4425(1) -0.0164(3) 0.1620(1)
Cu1 Cu 0.4936(2) -0.2351(4) -0.0118(2)
S1 S 0.6084(2) -0.4945(12) 0.0524(3)
S2 S 0.6912(3) -0.2104(11) 0.2311(4)
N1 N 0.5882(8) -0.5555(24) 0.2597(8)
C1 C 0.6239(9) -0.4368(29) 0.1856(12)
C2 C 0.7289(11) -0.0894(33) 0.1125(12)
C3 C 0.6040(10) -0.5182(48) 0.3730(11)
C4 C 0.6462(11) -0.6897(35) 0.4311(13)
C5 C 0.6588(14) -0.6575(43) 0.5399(15)
C6 C 0.6319(12) -0.4565(42) 0.5900(13)
C7 C 0.5887(11) -0.2948(36) 0.5320(15)
C8 C 0.5729(13) -0.3248(40) 0.4213(14)
H1 H 0.5508 -0.6659 0.2383
H2 H 0.7666 0.0375 0.1311
H3 H 0.6845 -0.0275 0.0673
H4 H 0.7562 -0.2129 0.0750
H5 H 0.6668 -0.8291 0.3969
H6 H 0.6870 -0.7792 0.5818
H7 H 0.6436 -0.4327 0.6655
H8 H 0.5680 -0.1558 0.5665
H9 H 0.5409 -0.2092 0.3803
Cu1B Cu 0.5064(2) 0.2351(4) 0.0118(2)
I1B I 0.5575(1) 0.0164(3) -0.1620(1)
S1B S 0.3916(2) -0.5055(12) -0.0524(3)
Cu1B_2 Cu 0.5064(2) -0.7649(4) 0.0118(2)
S1_2 S 0.6084(2) 0.5055(12) 0.0524(3)
S1B_2 S 0.3916(2) 0.4945(12) -0.0524(3)
C1B C 0.3761(9) -0.5632(29) -0.1856(12)
S2B S 0.3088(3) -0.7896(11) -0.2311(4)
N1B N 0.4118(8) -0.4445(24) -0.2597(8)
C2B C 0.2711(11) -0.9106(33) -0.1125(12)
C3B C 0.3960(10) -0.4818(48) -0.3730(11)
H1B H 0.4492 -0.3341 -0.2383
H2B H 0.2334 -1.0375 -0.1311
H3B H 0.3155 -0.9725 -0.0673
H4B H 0.2438 -0.7871 -0.0750
C4B C 0.3538(11) -0.3103(35) -0.4311(13)
C8B C 0.4271(13) -0.6752(40) -0.4213(14)
C5B C 0.3412(14) -0.3425(43) -0.5399(15)
H5B H 0.3332 -0.1709 -0.3969
C7B C 0.4113(11) -0.7052(36) -0.5320(15)
H9B H 0.4591 -0.7908 -0.3803
C6B C 0.3681(12) -0.5435(42) -0.5900(13)
H6B H 0.3130 -0.2208 -0.5818
H8B H 0.4320 -0.8442 -0.5665
H7B H 0.3564 -0.5673 -0.6655
loop_
_geom_bond_atom_site_label_1
_geom_bond_atom_site_label_2
_geom_bond_site_symmetry_1
_geom_bond_site_symmetry_2
I1 Cu1 1_555 1_555
Cu1 S1 1_555 1_555
S1 C1 1_555 1_555
S2 C1 1_555 1_555
N1 C1 1_555 1_555
C2 S2 1_555 1_555
C3 N1 1_555 1_555
C4 C3 1_555 1_555
C5 C4 1_555 1_555
C6 C5 1_555 1_555
C7 C6 1_555 1_555
C8 C3 1_555 1_555
H1 N1 1_555 1_555
H2 C2 1_555 1_555
H3 C2 1_555 1_555
H4 C2 1_555 1_555
H5 C4 1_555 1_555
H6 C5 1_555 1_555
H7 C6 1_555 1_555
H8 C7 1_555 1_555
H9 C8 1_555 1_555
Cu1B I1 1_555 1_555
I1B Cu1 1_555 1_555
S1B Cu1 1_555 1_555
Cu1B_2 S1 1_555 1_555
S1_2 Cu1B 1_555 1_555
S1B_2 Cu1B 1_555 1_555
C1B S1B 1_555 1_555
S2B C1B 1_555 1_555
N1B C1B 1_555 1_555
C2B S2B 1_555 1_555
C3B N1B 1_555 1_555
H1B N1B 1_555 1_555
H2B C2B 1_555 1_555
H3B C2B 1_555 1_555
H4B C2B 1_555 1_555
C4B C3B 1_555 1_555
C8B C3B 1_555 1_555
C5B C4B 1_555 1_555
H5B C4B 1_555 1_555
C7B C8B 1_555 1_555
H9B C8B 1_555 1_555
C6B C5B 1_555 1_555
H6B C5B 1_555 1_555
H8B C7B 1_555 1_555
H7B C6B 1_555 1_555
C7 C8 1_555 1_555
Cu1B I1B 1_555 1_555
S1B Cu1B_2 1_555 1_555
C7B C6B 1_555 1_555

#END
