
#######################################################################
#
#                 Cambridge Crystallographic Data Centre
#                                CCDC 
#
#######################################################################
#
# If this CIF has been generated from an entry in the Cambridge 
# Structural Database, then it will include bibliographic, chemical, 
# crystal, experimental, refinement or atomic coordinate data resulting 
# from the CCDC's data processing and validation procedures.
#
#######################################################################

data_SIYHUE
_symmetry_cell_setting           monoclinic
_symmetry_space_group_name_H-M   'P 21/c'
_symmetry_Int_Tables_number      14
_space_group_name_Hall           '-P 2ybc'
loop_
_symmetry_equiv_pos_site_id
_symmetry_equiv_pos_as_xyz
1 x,y,z
2 -x,1/2+y,1/2-z
3 -x,-y,-z
4 x,1/2-y,1/2+z
_cell_length_a                   8.6161(7)
_cell_length_b                   10.5474(8)
_cell_length_c                   11.2200(8)
_cell_angle_alpha                90
_cell_angle_beta                 97.4230(10)
_cell_angle_gamma                90
_cell_volume                     1011.1
loop_
_atom_site_label
_atom_site_type_symbol
_atom_site_fract_x
_atom_site_fract_y
_atom_site_fract_z
V1 V 0.41141(4) 0.10045(3) 0.24709(3)
K1 K 0.29116(5) 0.41453(4) 0.38338(4)
N1 N 0.29982(19) -0.04016(15) 0.33801(14)
N2 N 0.0833(2) -0.30814(16) 0.53022(15)
O1 O 0.47696(17) 0.24077(13) 0.28818(13)
O2 O 0.44993(17) 0.07073(14) 0.11183(13)
O3 O 0.18396(17) 0.14285(13) 0.21848(13)
O4 O 0.58394(16) -0.00116(13) 0.33565(13)
O5 O -0.06489(17) 0.08119(14) 0.22466(14)
O6 O 0.66120(16) -0.15566(14) 0.46800(13)
O7 O -0.04145(17) -0.27880(15) 0.56350(14)
O8 O 0.1509(2) -0.40960(14) 0.55221(15)
C1 C 0.0764(2) 0.06964(19) 0.25189(17)
C2 C 0.1441(2) -0.03785(18) 0.33159(17)
C3 C 0.0646(2) -0.12418(19) 0.39456(17)
H1 H -0.0436 -0.1225 0.3930
C4 C 0.1590(2) -0.21371(18) 0.46051(17)
C5 C 0.3196(2) -0.21798(18) 0.46688(17)
H2 H 0.3788 -0.2797 0.5111
C6 C 0.3880(2) -0.12483(18) 0.40350(17)
C7 C 0.5601(2) -0.09742(18) 0.40443(18)
K1C K 0.29116(5) 0.08547(4) -0.11662(4)
K1A K 0.70884(5) -0.08547(4) 0.11662(4)
K1A_2 K -0.29116(5) -0.08547(4) 0.11662(4)
K1B K 0.70884(5) -0.41453(4) 0.61662(4)
K1B_2 K -0.29116(5) -0.41453(4) 0.61662(4)
K1_2 K 0.29116(5) -0.58547(4) 0.38338(4)
O2C O 0.44993(17) 0.42927(14) 0.61183(13)
O2A O 0.55007(17) 0.57073(14) 0.38817(13)
O4A O 0.41606(16) 0.49884(13) 0.16435(13)
O5A O 0.06489(17) 0.58119(14) 0.27534(14)
O6B O 0.33880(16) 0.15566(14) 0.53200(13)
O7B O 0.04145(17) 0.27880(15) 0.43650(14)
O8_2 O 0.1509(2) 0.59040(14) 0.55221(15)
loop_
_geom_bond_atom_site_label_1
_geom_bond_atom_site_label_2
_geom_bond_site_symmetry_1
_geom_bond_site_symmetry_2
V1 N1 1_555 1_555
K1 O1 1_555 1_555
N1 C2 1_555 1_555
N2 O7 1_555 1_555
O1 V1 1_555 1_555
O2 V1 1_555 1_555
O3 V1 1_555 1_555
O4 V1 1_555 1_555
O5 C1 1_555 1_555
O6 C7 1_555 1_555
O7 K1B_2 1_555 1_555
O8 N2 1_555 1_555
C1 O3 1_555 1_555
C2 C1 1_555 1_555
C3 C2 1_555 1_555
H1 C3 1_555 1_555
C4 N2 1_555 1_555
C5 C4 1_555 1_555
H2 C5 1_555 1_555
C6 N1 1_555 1_555
C7 O4 1_555 1_555
K1C O2 1_555 1_555
K1A O2 1_555 1_555
K1A_2 O5 1_555 1_555
K1B O6 1_555 1_555
K1_2 O8 1_555 1_555
O2C K1 1_555 1_555
O2A K1 1_555 1_555
O4A K1 1_555 1_555
O5A K1 1_555 1_555
O6B K1 1_555 1_555
O7B K1 1_555 1_555
O8_2 K1 1_555 1_555
O4 K1A 1_555 1_555
C3 C4 1_555 1_555
C5 C6 1_555 1_555
C6 C7 1_555 1_555

#END
