
#######################################################################
#
#                 Cambridge Crystallographic Data Centre
#                                CCDC 
#
#######################################################################
#
# If this CIF has been generated from an entry in the Cambridge 
# Structural Database, then it will include bibliographic, chemical, 
# crystal, experimental, refinement or atomic coordinate data resulting 
# from the CCDC's data processing and validation procedures.
#
#######################################################################

data_SIYJIV
_symmetry_cell_setting           monoclinic
_symmetry_space_group_name_H-M   'P 21/n'
_symmetry_Int_Tables_number      14
_space_group_name_Hall           '-P 2yn'
loop_
_symmetry_equiv_pos_site_id
_symmetry_equiv_pos_as_xyz
1 x,y,z
2 1/2-x,1/2+y,1/2-z
3 -x,-y,-z
4 1/2+x,1/2-y,1/2+z
_cell_length_a                   13.4115(6)
_cell_length_b                   9.7327(4)
_cell_length_c                   13.4746(7)
_cell_angle_alpha                90
_cell_angle_beta                 93.890(3)
_cell_angle_gamma                90
_cell_volume                     1754.79
loop_
_atom_site_label
_atom_site_type_symbol
_atom_site_fract_x
_atom_site_fract_y
_atom_site_fract_z
Ag1 Ag -0.12577(2) 0.89198(3) -0.13018(2)
C1 C 0.1109(3) 0.8060(3) -0.3891(3)
O1 O 0.08919(19) 0.8564(2) -0.46910(19)
N1 N 0.0764(2) 0.8563(3) -0.3013(2)
C2 C 0.1016(3) 0.8030(3) -0.2082(3)
O2 O 0.06892(18) 0.8526(2) -0.13362(19)
N2 N 0.1641(2) 0.6907(3) -0.2038(2)
C3 C 0.2026(3) 0.6318(3) -0.2869(3)
O3 O 0.25833(18) 0.5332(2) -0.28023(19)
N3 N 0.1737(2) 0.6929(3) -0.3768(2)
C4 C 0.0144(2) 0.9803(3) -0.3072(3)
H1 H 0.0241 1.0280 -0.3707
H2 H 0.0365 1.0430 -0.2523
C5 C -0.0957(3) 0.9492(3) -0.3011(3)
H3 H -0.1393 1.0255 -0.2966
C6 C -0.1368(3) 0.8254(3) -0.3015(3)
H4 H -0.0962 0.7460 -0.3059
H5 H -0.2069 0.8161 -0.2974
C7 C 0.1849(3) 0.6207(3) -0.1084(3)
H6 H 0.1873 0.5204 -0.1204
H7 H 0.1291 0.6387 -0.0657
C8 C 0.2804(3) 0.6638(4) -0.0539(3)
H8 H 0.2981 0.6177 0.0069
C9 C 0.3423(3) 0.7587(4) -0.0812(3)
H9 H 0.3281 0.8079 -0.1414
H10 H 0.4014 0.7782 -0.0408
C10 C 0.2152(3) 0.6350(3) -0.4672(3)
H11 H 0.1685 0.6519 -0.5260
H12 H 0.2244 0.5345 -0.4596
C11 C 0.3139(3) 0.7027(4) -0.4813(3)
H13 H 0.3710 0.6708 -0.4425
C12 C 0.3258(3) 0.8051(4) -0.5451(3)
H14 H 0.2700 0.8391 -0.5849
H15 H 0.3901 0.8440 -0.5509
O4 O -0.0862(3) 1.1036(3) -0.0674(3)
H16 H -0.091(4) 1.125(5) -0.004(5)
H17 H -0.103(4) 1.163(5) -0.094(4)
Ag1C Ag 0.37423(2) 0.60802(3) -0.63018(2)
C11C C -0.1861(3) 0.7973(4) 0.0187(3)
C12C C -0.1742(3) 0.6949(4) -0.0451(3)
P1 P -0.06545(8) 0.41889(9) -0.24192(8)
F1 F -0.0207(2) 0.4655(3) -0.34216(19)
F2 F 0.03570(17) 0.3432(2) -0.20664(19)
F3 F -0.16881(16) 0.4933(2) -0.27577(19)
F4 F -0.1063(2) 0.2805(2) -0.2914(2)
F5 F -0.02668(17) 0.5569(2) -0.18985(19)
F6 F -0.11261(17) 0.3734(2) -0.13958(18)
loop_
_geom_bond_atom_site_label_1
_geom_bond_atom_site_label_2
_geom_bond_site_symmetry_1
_geom_bond_site_symmetry_2
Ag1 O2 1_555 1_555
C1 O1 1_555 1_555
N1 C1 1_555 1_555
C2 N1 1_555 1_555
O2 C2 1_555 1_555
N2 C2 1_555 1_555
C3 N2 1_555 1_555
O3 C3 1_555 1_555
N3 C1 1_555 1_555
C4 N1 1_555 1_555
H1 C4 1_555 1_555
H2 C4 1_555 1_555
C5 Ag1 1_555 1_555
H3 C5 1_555 1_555
C6 Ag1 1_555 1_555
H4 C6 1_555 1_555
H5 C6 1_555 1_555
C7 N2 1_555 1_555
H6 C7 1_555 1_555
H7 C7 1_555 1_555
C8 C7 1_555 1_555
H8 C8 1_555 1_555
C9 C8 1_555 1_555
H9 C9 1_555 1_555
H10 C9 1_555 1_555
C10 N3 1_555 1_555
H11 C10 1_555 1_555
H12 C10 1_555 1_555
C11 C10 1_555 1_555
H13 C11 1_555 1_555
C12 C11 1_555 1_555
H14 C12 1_555 1_555
H15 C12 1_555 1_555
O4 Ag1 1_555 1_555
H16 O4 1_555 1_555
H17 O4 1_555 1_555
P1 F1 1_555 1_555
F2 P1 1_555 1_555
F3 P1 1_555 1_555
F4 P1 1_555 1_555
F5 P1 1_555 1_555
F6 P1 1_555 1_555
Ag1C C11 1_555 1_555
C11C Ag1 1_555 1_555
C12C Ag1 1_555 1_555
C3 N3 1_555 1_555
C4 C5 1_555 1_555
C5 C6 1_555 1_555
C12 Ag1C 1_555 1_555
C11C C12C 1_555 1_555

#END
