
#######################################################################
#
#                 Cambridge Crystallographic Data Centre
#                                CCDC 
#
#######################################################################
#
# If this CIF has been generated from an entry in the Cambridge 
# Structural Database, then it will include bibliographic, chemical, 
# crystal, experimental, refinement or atomic coordinate data resulting 
# from the CCDC's data processing and validation procedures.
#
#######################################################################

data_SIYLOC
_symmetry_cell_setting           triclinic
_symmetry_space_group_name_H-M   'P -1'
_symmetry_Int_Tables_number      2
_space_group_name_Hall           '-P 1'
loop_
_symmetry_equiv_pos_site_id
_symmetry_equiv_pos_as_xyz
1 x,y,z
2 -x,-y,-z
_cell_length_a                   9.0715(4)
_cell_length_b                   13.5523(6)
_cell_length_c                   14.9505(6)
_cell_angle_alpha                84.7280(10)
_cell_angle_beta                 88.2970(10)
_cell_angle_gamma                83.1730(10)
_cell_volume                     1816.93
loop_
_atom_site_label
_atom_site_type_symbol
_atom_site_fract_x
_atom_site_fract_y
_atom_site_fract_z
Ag1 Ag 0.52404(3) 0.462441(18) 0.324704(16)
C1 C 0.3247(3) 0.6839(2) 0.24279(18)
H1 H 0.2669 0.7508 0.2283
C2 C -0.1948(3) 0.2728(2) 0.30881(17)
H2 H -0.1214 0.2121 0.3054
C3 C 0.5282(4) 0.7909(3) 0.2574(2)
H3 H 0.4741 0.8540 0.2407
C4 C 0.6744(4) 0.7733(3) 0.2795(2)
H4 H 0.7425 0.8211 0.2815
C5 C 0.7024(3) 0.6708(3) 0.2984(2)
H5 H 0.7960 0.6368 0.3163
C6 C 0.1293(3) 0.6743(2) 0.3649(2)
H6 H 0.0795 0.7400 0.3551
C7 C 0.0917(3) 0.6011(2) 0.4275(2)
H7 H 0.0118 0.6054 0.4701
C8 C 0.1957(3) 0.5190(2) 0.4156(2)
H8 H 0.1974 0.4565 0.4502
C9 C -0.2570(3) 0.1821(2) 0.45609(19)
H9 H -0.1932 0.1219 0.4509
C10 C -0.3529(4) 0.2026(3) 0.5256(2)
H10 H -0.3692 0.1606 0.5785
C11 C -0.4220(3) 0.2987(3) 0.50220(19)
H11 H -0.4958 0.3329 0.5382
C12 C -0.3050(4) 0.2031(2) 0.1801(2)
H12 H -0.2451 0.1406 0.1819
C13 C -0.4142(4) 0.2375(3) 0.1198(2)
H13 H -0.4454 0.2043 0.0717
C14 C -0.4689(3) 0.3309(2) 0.14416(19)
H14 H -0.5470 0.3730 0.1143
C15 C 0.3218(3) 0.6270(2) 0.15986(19)
H15 H 0.3693 0.6620 0.1077
H16 H 0.3743 0.5588 0.1708
C16 C 0.1388(4) 0.5961(2) 0.0579(2)
H17 H 0.1911 0.6374 0.0121
H18 H 0.0309 0.6121 0.0477
C17 C 0.1825(3) 0.4879(2) 0.0437(2)
C18 C 0.2604(3) 0.4634(3) -0.0341(2)
H19 H 0.2923 0.5151 -0.0747
C19 C 0.2923(3) 0.3656(3) -0.0536(2)
H20 H 0.3449 0.3505 -0.1074
C20 C 0.2485(3) 0.2905(3) 0.0044(2)
H21 H 0.2705 0.2231 -0.0090
C21 C 0.1714(3) 0.3126(2) 0.0835(2)
H22 H 0.1420 0.2600 0.1239
C22 C 0.1370(3) 0.4106(2) 0.10377(18)
C23 C 0.0496(3) 0.4342(2) 0.18857(19)
H23 H 0.1178 0.4442 0.2365
H24 H -0.0196 0.4960 0.1770
C24 C -0.1080(3) 0.3623(2) 0.29775(18)
H25 H -0.1757 0.4254 0.2958
H26 H -0.0384 0.3607 0.3477
N1 N 0.5813(3) 0.62594(19) 0.28836(16)
N2 N 0.4749(3) 0.70174(18) 0.26368(15)
N3 N 0.2922(3) 0.53911(17) 0.34979(16)
N4 N 0.2500(2) 0.63576(16) 0.31948(15)
N5 N -0.3718(3) 0.33672(19) 0.42320(15)
N6 N -0.2698(2) 0.26313(18) 0.39603(15)
N7 N -0.3990(3) 0.35441(18) 0.21442(15)
N8 N -0.2984(2) 0.27392(17) 0.23600(15)
O1 O 0.1700(2) 0.62356(15) 0.14439(14)
O2 O -0.0303(2) 0.35315(16) 0.21529(13)
Ag1_2 Ag -0.47596(3) 0.462441(18) 0.324704(16)
N5_2 N 0.6282(3) 0.33672(19) 0.42320(15)
N7_2 N 0.6010(3) 0.35441(18) 0.21442(15)
P1 P 0.03829(11) 0.98331(6) 0.28394(7)
F1 F 0.0247(4) 1.0451(2) 0.18955(18)
F2 F 0.2127(3) 0.9619(2) 0.2746(2)
F3 F 0.0182(4) 0.88318(19) 0.2421(2)
F4 F -0.1380(3) 1.0055(2) 0.2991(2)
F5 F 0.0538(3) 1.08276(18) 0.3285(2)
F6 F 0.0481(3) 0.9234(2) 0.38100(18)
O3 O 0.1843(4) 0.2728(2) 0.4548(3)
C25 C 0.3380(6) 0.2049(4) 0.3410(3)
H27 H 0.3144 0.2711 0.3091
H28 H 0.3054 0.1543 0.3056
H29 H 0.4454 0.1915 0.3496
C26 C 0.2611(4) 0.2015(3) 0.4288(3)
C27 C 0.2811(5) 0.1059(3) 0.4867(3)
H30 H 0.2182 0.1117 0.5409
H31 H 0.3854 0.0910 0.5039
H32 H 0.2530 0.0521 0.4536
O4 O 0.3214(10) 0.8571(7) 0.0806(6)
C28 C 0.0693(14) 0.8683(10) 0.0351(10)
H33 H 0.0687 0.8076 0.0761
H34 H 0.0557 0.8525 -0.0266
H35 H -0.0117 0.9181 0.0519
C29 C 0.2120(14) 0.9084(9) 0.0409(10)
C30 C 0.2276(15) 1.0089(8) -0.0072(8)
H36 H 0.3281 1.0091 -0.0331
H37 H 0.2099 1.0601 0.0353
H38 H 0.1549 1.0230 -0.0553
O5? O 0.3954(10) 0.8597(6) 0.0782(6)
C31? C 0.1378(14) 0.8752(10) 0.0324(10)
H39? H 0.1355 0.8095 0.0654
H40? H 0.1274 0.8696 -0.0319
H41? H 0.0559 0.9217 0.0536
C32? C 0.2780(14) 0.9121(9) 0.0474(10)
C33? C 0.2997(15) 1.0183(8) 0.0282(9)
H42? H 0.3512 1.0278 -0.0299
H43? H 0.3594 1.0385 0.0754
H44? H 0.2029 1.0591 0.0264
loop_
_geom_bond_atom_site_label_1
_geom_bond_atom_site_label_2
_geom_bond_site_symmetry_1
_geom_bond_site_symmetry_2
Ag1 N1 1_555 1_555
C1 H1 1_555 1_555
C2 H2 1_555 1_555
C3 H3 1_555 1_555
C4 C3 1_555 1_555
H4 C4 1_555 1_555
C5 C4 1_555 1_555
H5 C5 1_555 1_555
C6 H6 1_555 1_555
C7 C6 1_555 1_555
H7 C7 1_555 1_555
C8 C7 1_555 1_555
H8 C8 1_555 1_555
C9 H9 1_555 1_555
C10 C9 1_555 1_555
H10 C10 1_555 1_555
C11 C10 1_555 1_555
H11 C11 1_555 1_555
C12 H12 1_555 1_555
C13 C12 1_555 1_555
H13 C13 1_555 1_555
C14 C13 1_555 1_555
H14 C14 1_555 1_555
C15 C1 1_555 1_555
H15 C15 1_555 1_555
H16 C15 1_555 1_555
C16 H17 1_555 1_555
H18 C16 1_555 1_555
C17 C16 1_555 1_555
C18 C17 1_555 1_555
H19 C18 1_555 1_555
C19 C18 1_555 1_555
H20 C19 1_555 1_555
C20 C19 1_555 1_555
H21 C20 1_555 1_555
C21 C20 1_555 1_555
H22 C21 1_555 1_555
C22 C17 1_555 1_555
C23 C22 1_555 1_555
H23 C23 1_555 1_555
H24 C23 1_555 1_555
C24 C2 1_555 1_555
H25 C24 1_555 1_555
H26 C24 1_555 1_555
N1 C5 1_555 1_555
N2 C1 1_555 1_555
N3 Ag1 1_555 1_555
N4 C1 1_555 1_555
N5 C11 1_555 1_555
N6 C2 1_555 1_555
N7 C14 1_555 1_555
N8 C2 1_555 1_555
O1 C15 1_555 1_555
O2 C23 1_555 1_555
P1 F1 1_555 1_555
F2 P1 1_555 1_555
F3 P1 1_555 1_555
F4 P1 1_555 1_555
F5 P1 1_555 1_555
F6 P1 1_555 1_555
O3 C26 1_555 1_555
C25 H27 1_555 1_555
H28 C25 1_555 1_555
H29 C25 1_555 1_555
C26 C25 1_555 1_555
C27 C26 1_555 1_555
H30 C27 1_555 1_555
H31 C27 1_555 1_555
H32 C27 1_555 1_555
O4 C29 1_555 1_555
C28 H33 1_555 1_555
H34 C28 1_555 1_555
H35 C28 1_555 1_555
C29 C28 1_555 1_555
C30 C29 1_555 1_555
H36 C30 1_555 1_555
H37 C30 1_555 1_555
H38 C30 1_555 1_555
Ag1_2 N5 1_555 1_555
N5_2 Ag1 1_555 1_555
N7_2 Ag1 1_555 1_555
C3 N2 1_555 1_555
C6 N4 1_555 1_555
C8 N3 1_555 1_555
C9 N6 1_555 1_555
C12 N8 1_555 1_555
C16 O1 1_555 1_555
C21 C22 1_555 1_555
C24 O2 1_555 1_555
N1 N2 1_555 1_555
N3 N4 1_555 1_555
N5 N6 1_555 1_555
N7 N8 1_555 1_555
N7 Ag1_2 1_555 1_555

#END
