
#######################################################################
#
#                 Cambridge Crystallographic Data Centre
#                                CCDC 
#
#######################################################################
#
# If this CIF has been generated from an entry in the Cambridge 
# Structural Database, then it will include bibliographic, chemical, 
# crystal, experimental, refinement or atomic coordinate data resulting 
# from the CCDC's data processing and validation procedures.
#
#######################################################################

data_SIYQEX01
_symmetry_cell_setting           monoclinic
_symmetry_space_group_name_H-M   'C 2/c'
_symmetry_Int_Tables_number      15
_space_group_name_Hall           '-C 2yn'
loop_
_symmetry_equiv_pos_site_id
_symmetry_equiv_pos_as_xyz
1 x,y,z
2 1/2+x,1/2+y,z
3 -x,y,1/2-z
4 1/2-x,1/2+y,1/2-z
5 -x,-y,-z
6 1/2-x,1/2-y,-z
7 x,-y,1/2+z
8 1/2+x,1/2-y,1/2+z
_cell_length_a                   19.5418(10)
_cell_length_b                   10.3220(10)
_cell_length_c                   13.4660(10)
_cell_angle_alpha                90
_cell_angle_beta                 98.455(10)
_cell_angle_gamma                90
_cell_volume                     2686.71
loop_
_atom_site_label
_atom_site_type_symbol
_atom_site_fract_x
_atom_site_fract_y
_atom_site_fract_z
Zn1 Zn 0.33803(3) 0.09370(6) 0.17290(5)
Zn2 Zn -0.04301(3) 0.41506(6) 0.07862(5)
Zn3 Zn -0.16029(3) 0.25269(6) 0.15449(5)
O1 O -0.0709(2) 0.1533(4) 0.1436(4)
O2 O 0.01942(19) 0.2707(3) 0.1184(3)
O3 O 0.1635(2) 0.2357(3) 0.1961(3)
O4 O 0.1532(2) 0.1837(4) 0.0353(3)
O5 O 0.24445(18) 0.0082(4) 0.1893(3)
O6 O 0.2420(2) -0.1785(4) 0.1058(3)
O7 O 0.13001(19) -0.3541(4) 0.0094(3)
O8 O 0.1526(2) -0.3963(4) 0.1717(3)
O9 O 0.0004(2) -0.4129(3) 0.0744(3)
O10 O -0.06820(19) -0.3053(4) 0.1633(3)
O11 O 0.39347(19) -0.0773(3) 0.1825(3)
O12 O -0.2043(2) 0.0729(4) 0.1183(3)
O13 O 0.2959(2) 0.2803(4) 0.1632(3)
O14 O 0.3135(2) 0.0853(4) 0.0179(3)
C1 C 0.0313(3) 0.0406(5) 0.1328(4)
C2 C 0.1023(3) 0.0388(5) 0.1334(4)
C3 C 0.1356(3) -0.0803(5) 0.1296(4)
C4 C 0.0973(3) -0.1953(5) 0.1188(4)
C5 C 0.0263(3) -0.1916(5) 0.1211(4)
C6 C -0.0058(3) -0.0743(5) 0.1306(4)
H1 H -0.0423(5) -0.0793(9) 0.1338(8)
C7 C -0.0099(3) 0.1642(5) 0.1317(4)
C8 C 0.1422(3) 0.1628(5) 0.1222(4)
C9 C 0.2130(3) -0.0846(5) 0.1416(4)
C10 C 0.1301(3) -0.3242(5) 0.1025(4)
C11 C -0.0179(3) -0.3119(5) 0.1201(4)
H2 H 0.414(4) -0.100(8) 0.249(3)
H3 H 0.300(4) 0.330(7) 0.106(4)
H4 H -0.226(3) 0.061(8) 0.177(3)
H5 H -0.242(3) 0.074(8) 0.064(3)
H6 H 0.2486(15) 0.276(8) 0.170(6)
H7 H 0.336(4) 0.015(4) -0.010(6)
H8 H 0.333(4) 0.162(4) -0.004(6)
Zn1C Zn 0.16197(3) -0.40630(6) 0.32710(5)
Zn1A Zn -0.16197(3) -0.40630(6) 0.17290(5)
Zn2D Zn 0.04301(3) -0.41506(6) -0.07862(5)
Zn2_2 Zn -0.04301(3) -0.58494(6) 0.07862(5)
Zn2A Zn 0.45699(3) -0.08494(6) 0.07862(5)
Zn3B Zn 0.16029(3) 0.25269(6) 0.34551(5)
Zn3A Zn 0.33971(3) -0.24731(6) 0.15449(5)
O3B O -0.1635(2) 0.2357(3) 0.3039(3)
O6A O -0.2580(2) 0.3215(4) 0.1058(3)
O7D O -0.13001(19) 0.3541(4) -0.0094(3)
O8C O 0.3474(2) 0.1037(4) 0.3283(3)
O9_2 O 0.0004(2) 0.5871(3) 0.0744(3)
O9D O -0.0004(2) 0.4129(3) -0.0744(3)
O10A O 0.43180(19) 0.1947(4) 0.1633(3)
O11A O -0.10653(19) 0.4227(3) 0.1825(3)
H2A H -0.086(4) 0.400(8) 0.249(3)
loop_
_geom_bond_atom_site_label_1
_geom_bond_atom_site_label_2
_geom_bond_site_symmetry_1
_geom_bond_site_symmetry_2
Zn1 O5 1_555 1_555
Zn2 O2 1_555 1_555
Zn3 O1 1_555 1_555
O1 C7 1_555 1_555
O2 C7 1_555 1_555
O3 C8 1_555 1_555
O4 C8 1_555 1_555
O5 C9 1_555 1_555
O6 C9 1_555 1_555
O7 C10 1_555 1_555
O8 C10 1_555 1_555
O9 C11 1_555 1_555
O10 C11 1_555 1_555
O11 Zn1 1_555 1_555
O12 Zn3 1_555 1_555
O13 Zn1 1_555 1_555
O14 Zn1 1_555 1_555
C1 C2 1_555 1_555
C2 C3 1_555 1_555
C3 C4 1_555 1_555
C4 C5 1_555 1_555
C5 C6 1_555 1_555
C6 C1 1_555 1_555
H1 C6 1_555 1_555
C7 C1 1_555 1_555
C8 C2 1_555 1_555
C9 C3 1_555 1_555
C10 C4 1_555 1_555
C11 C5 1_555 1_555
H2 O11 1_555 1_555
H3 O13 1_555 1_555
H4 O12 1_555 1_555
H5 O12 1_555 1_555
H6 O13 1_555 1_555
H7 O14 1_555 1_555
H8 O14 1_555 1_555
Zn1C O8 1_555 1_555
Zn1A O10 1_555 1_555
Zn2D O7 1_555 1_555
Zn2_2 O9 1_555 1_555
Zn2A O11 1_555 1_555
Zn3B O3 1_555 1_555
Zn3A O6 1_555 1_555
O3B Zn3 1_555 1_555
O6A Zn3 1_555 1_555
O7D Zn2 1_555 1_555
O8C Zn1 1_555 1_555
O9_2 Zn2 1_555 1_555
O9D Zn2 1_555 1_555
O10A Zn1 1_555 1_555
O11A Zn2 1_555 1_555
H2A O11A 1_555 1_555
Zn3 O11A 1_555 1_555
O9 Zn2D 1_555 1_555
O11 Zn3A 1_555 1_555

#END
