
#######################################################################
#
#                 Cambridge Crystallographic Data Centre
#                                CCDC 
#
#######################################################################
#
# If this CIF has been generated from an entry in the Cambridge 
# Structural Database, then it will include bibliographic, chemical, 
# crystal, experimental, refinement or atomic coordinate data resulting 
# from the CCDC's data processing and validation procedures.
#
#######################################################################

data_SIYQEX
_symmetry_cell_setting           monoclinic
_symmetry_space_group_name_H-M   'C 2/c'
_symmetry_Int_Tables_number      15
_space_group_name_Hall           '-C 2yn'
loop_
_symmetry_equiv_pos_site_id
_symmetry_equiv_pos_as_xyz
1 x,y,z
2 1/2+x,1/2+y,z
3 -x,y,1/2-z
4 1/2-x,1/2+y,1/2-z
5 -x,-y,-z
6 1/2-x,1/2-y,-z
7 x,-y,1/2+z
8 1/2+x,1/2-y,1/2+z
_cell_length_a                   19.643(2)
_cell_length_b                   10.3470(11)
_cell_length_c                   13.4879(15)
_cell_angle_alpha                90.00
_cell_angle_beta                 98.476(2)
_cell_angle_gamma                90.00
_cell_volume                     2711.42
loop_
_atom_site_label
_atom_site_type_symbol
_atom_site_fract_x
_atom_site_fract_y
_atom_site_fract_z
Zn1 Zn 0.33801(2) 0.09360(4) 0.17284(3)
Zn2 Zn 0.45697(2) -0.08499(4) 0.07861(3)
Zn3 Zn 0.83972(2) 0.25260(4) 0.15459(4)
O1 O 0.43197(14) 0.1941(2) 0.1640(2)
O2 O 0.50010(15) 0.0874(2) 0.0739(2)
O3 O 0.65249(15) 0.1038(2) 0.17130(19)
O4 O 0.63011(14) 0.1455(2) 0.01002(18)
O5 O 0.74202(14) 0.3218(2) 0.1056(2)
O6 O 0.74456(14) 0.5077(2) 0.1895(2)
O7 O 0.65302(15) 0.6834(2) 0.0349(2)
O8 O 0.66358(14) 0.7353(2) 0.19581(19)
O9 O 0.51929(14) 0.7705(2) 0.1181(2)
O10 O 0.42921(14) 0.6525(2) 0.1443(2)
O11 O 0.39316(15) -0.0771(2) 0.1823(2)
O12 O 0.29628(17) 0.2800(3) 0.1633(2)
H1 H 0.2527(6) 0.277(5) 0.159(4)
H2 H 0.308(2) 0.324(5) 0.115(3)
O13 O 0.31337(18) 0.0853(3) 0.0179(2)
H3 H 0.332(2) 0.022(2) -0.007(3)
H4 H 0.324(2) 0.1557(19) -0.008(3)
O14 O 0.79595(17) 0.0731(3) 0.1172(3)
H5 H 0.772(3) 0.055(6) 0.163(3)
H6 H 0.772(3) 0.060(9) 0.060(2)
C1 C 0.5262(2) 0.3077(3) 0.1212(3)
C2 C 0.5970(2) 0.3053(3) 0.1190(3)
C3 C 0.6361(2) 0.4193(3) 0.1296(3)
C4 C 0.6023(2) 0.5391(3) 0.1336(3)
C5 C 0.5310(2) 0.5414(3) 0.1324(3)
C6 C 0.4944(2) 0.4264(3) 0.1298(3)
H7 H 0.4476 0.4288 0.1339
C7 C 0.4823(2) 0.1886(3) 0.1201(3)
C8 C 0.63024(19) 0.1763(3) 0.1023(3)
C9 C 0.7132(2) 0.4160(3) 0.1414(3)
C10 C 0.6423(2) 0.6621(3) 0.1216(3)
C11 C 0.4900(2) 0.6640(3) 0.1317(3)
H8 H 0.406(2) -0.087(4) 0.237(3)
Zn1B Zn 0.66199(2) 0.09360(4) 0.32716(3)
Zn1A Zn 0.83801(2) 0.59360(4) 0.17284(3)
Zn2D Zn 0.54303(2) 0.08499(4) -0.07861(3)
Zn2_2 Zn 0.45697(2) 0.91501(4) 0.07861(3)
Zn3C Zn 0.66028(2) 0.75260(4) 0.34541(4)
Zn3A Zn 0.33972(2) 0.75260(4) 0.15459(4)
Zn3A_2 Zn 0.33972(2) -0.24740(4) 0.15459(4)
O2D O 0.49990(15) -0.0874(2) -0.0739(2)
O3B O 0.34751(15) 0.1038(2) 0.32870(19)
O4D O 0.36989(14) -0.1455(2) -0.01002(18)
O6A O 0.24456(14) 0.0077(2) 0.1895(2)
O8C O 0.83642(14) 0.2353(2) 0.30419(19)
O9_2 O 0.51929(14) -0.2295(2) 0.1181(2)
O10A O 0.92921(14) 0.1525(2) 0.1443(2)
O11A O 0.89316(15) 0.4229(2) 0.1823(2)
H8A H 0.906(2) 0.413(4) 0.237(3)
loop_
_geom_bond_atom_site_label_1
_geom_bond_atom_site_label_2
_geom_bond_site_symmetry_1
_geom_bond_site_symmetry_2
Zn1 O1 1_555 1_555
Zn2 O2 1_555 1_555
Zn3 O5 1_555 1_555
O1 C7 1_555 1_555
O2 C7 1_555 1_555
O3 C8 1_555 1_555
O4 C8 1_555 1_555
O5 C9 1_555 1_555
O6 C9 1_555 1_555
O7 C10 1_555 1_555
O8 C10 1_555 1_555
O9 C11 1_555 1_555
O10 C11 1_555 1_555
O11 Zn1 1_555 1_555
O12 Zn1 1_555 1_555
H1 O12 1_555 1_555
H2 O12 1_555 1_555
O13 Zn1 1_555 1_555
H3 O13 1_555 1_555
H4 O13 1_555 1_555
O14 Zn3 1_555 1_555
H5 O14 1_555 1_555
H6 O14 1_555 1_555
C1 C2 1_555 1_555
C2 C3 1_555 1_555
C3 C4 1_555 1_555
C4 C5 1_555 1_555
C5 C6 1_555 1_555
C6 C1 1_555 1_555
H7 C6 1_555 1_555
C7 C1 1_555 1_555
C8 C2 1_555 1_555
C9 C3 1_555 1_555
C10 C4 1_555 1_555
C11 C5 1_555 1_555
H8 O11 1_555 1_555
Zn1B O3 1_555 1_555
Zn1A O6 1_555 1_555
Zn2D O2 1_555 1_555
Zn2_2 O9 1_555 1_555
Zn3C O8 1_555 1_555
Zn3A O10 1_555 1_555
Zn3A_2 O11 1_555 1_555
O2D Zn2 1_555 1_555
O3B Zn1 1_555 1_555
O4D Zn2 1_555 1_555
O6A Zn1 1_555 1_555
O8C Zn3 1_555 1_555
O9_2 Zn2 1_555 1_555
O10A Zn3 1_555 1_555
O11A Zn3 1_555 1_555
H8A O11A 1_555 1_555
Zn2 O11 1_555 1_555
O4 Zn2D 1_555 1_555
Zn1A O11A 1_555 1_555
Zn2D O2D 1_555 1_555

#END
