
#######################################################################
#
#                 Cambridge Crystallographic Data Centre
#                                CCDC 
#
#######################################################################
#
# If this CIF has been generated from an entry in the Cambridge 
# Structural Database, then it will include bibliographic, chemical, 
# crystal, experimental, refinement or atomic coordinate data resulting 
# from the CCDC's data processing and validation procedures.
#
#######################################################################

data_SIYQIB
_symmetry_cell_setting           monoclinic
_symmetry_space_group_name_H-M   'C 2/c'
_symmetry_Int_Tables_number      15
_space_group_name_Hall           '-C 2yn'
loop_
_symmetry_equiv_pos_site_id
_symmetry_equiv_pos_as_xyz
1 x,y,z
2 1/2+x,1/2+y,z
3 -x,y,1/2-z
4 1/2-x,1/2+y,1/2-z
5 -x,-y,-z
6 1/2-x,1/2-y,-z
7 x,-y,1/2+z
8 1/2+x,1/2-y,1/2+z
_cell_length_a                   17.0298(14)
_cell_length_b                   13.9683(11)
_cell_length_c                   19.3375(16)
_cell_angle_alpha                90.00
_cell_angle_beta                 101.635(2)
_cell_angle_gamma                90.00
_cell_volume                     4505.43
loop_
_atom_site_label
_atom_site_type_symbol
_atom_site_fract_x
_atom_site_fract_y
_atom_site_fract_z
Zn1 Zn 0.0000 0.30407(5) 0.2500
Zn2 Zn -0.41466(3) 0.08078(4) -0.10119(3)
Zn3 Zn -0.06660(3) 0.26087(4) 0.40179(3)
O1 O -0.1581(2) 0.2304(3) 0.32281(17)
O2 O -0.09070(19) 0.2013(2) 0.23668(17)
O3 O -0.2065(2) 0.3096(2) 0.11893(19)
O4 O -0.1810(2) 0.1799(3) 0.0605(2)
O5 O -0.3699(2) 0.2091(3) 0.02471(19)
O6 O -0.3588(2) 0.0565(2) -0.00448(17)
O7 O -0.4016(2) -0.1017(2) 0.08894(18)
O8 O -0.4912(2) 0.0080(2) 0.1087(2)
O9 O -0.4178(2) -0.0934(2) 0.23927(18)
O10 O -0.3625(2) -0.0093(2) 0.33458(16)
O11 O 0.0287(2) 0.2991(3) 0.36387(17)
N1 N -0.0467(3) 0.1050(3) 0.4095(2)
N2 N -0.1092(3) 0.2239(3) 0.4906(2)
C1 C -0.2256(3) 0.1468(3) 0.2231(2)
C2 C -0.2521(3) 0.1561(3) 0.1502(2)
C3 C -0.3164(3) 0.1026(3) 0.1152(2)
C4 C -0.3538(3) 0.0371(3) 0.1528(2)
C5 C -0.3301(3) 0.0323(3) 0.2262(2)
C6 C -0.2664(3) 0.0869(3) 0.2601(2)
H1 H -0.2506 0.0832 0.3089
C7 C -0.1523(3) 0.1980(3) 0.2634(2)
C8 C -0.2118(3) 0.2245(3) 0.1088(2)
C9 C -0.3508(3) 0.1242(3) 0.0390(2)
C10 C -0.4209(3) -0.0244(3) 0.1140(2)
C11 C -0.3738(3) -0.0295(3) 0.2700(2)
C12 C -0.0154(4) 0.0491(4) 0.3662(3)
H2 H 0.0193 0.0764 0.3403
C13 C -0.0318(5) -0.0462(5) 0.3582(4)
H3 H -0.0081 -0.0834 0.3282
C14 C -0.0850(7) -0.0865(5) 0.3961(5)
H4 H -0.0985 -0.1510 0.3909
C15 C -0.1173(5) -0.0296(5) 0.4411(5)
H5 H -0.1528 -0.0552 0.4670
C16 C -0.0967(4) 0.0657(4) 0.4476(3)
C17 C -0.1276(4) 0.1311(4) 0.4963(3)
C18 C -0.1697(5) 0.1014(5) 0.5457(4)
H6 H -0.1827 0.0371 0.5485
C19 C -0.1925(5) 0.1661(7) 0.5908(4)
H7 H -0.2222 0.1465 0.6237
C20 C -0.1711(6) 0.2600(6) 0.5868(4)
H8 H -0.1843 0.3049 0.6182
C21 C -0.1299(4) 0.2871(5) 0.5357(3)
H9 H -0.1160 0.3511 0.5324
H10 H 0.044(3) 0.257(4) 0.359(3)
H11 H -0.159(4) 0.220(5) 0.036(4)
Zn1A Zn -0.5000 -0.19593(5) 0.2500
Zn1A_2 Zn 0.5000 -0.19593(5) 0.2500
Zn2B Zn 0.41466(3) 0.08078(4) 0.60119(3)
Zn2D Zn -0.58534(3) -0.08078(4) 0.10119(3)
Zn2F Zn -0.41466(3) -0.08078(4) 0.39881(3)
Zn2G Zn 0.08534(3) 0.41922(4) 0.39881(3)
Zn2F_2 Zn 0.58534(3) -0.08078(4) 0.39881(3)
Zn2D_2 Zn 0.41466(3) -0.08078(4) 0.10119(3)
Zn2E Zn -0.08534(3) 0.41922(4) 0.10119(3)
Zn3B Zn 0.06660(3) 0.26087(4) 0.09821(3)
Zn3C Zn -0.43340(3) -0.23913(4) 0.09821(3)
Zn3A Zn 0.43340(3) -0.23913(4) 0.40179(3)
O1B O 0.1581(2) 0.2304(3) 0.17719(17)
O2B O 0.09070(19) 0.2013(2) 0.26332(17)
O3B O 0.2065(2) 0.3096(2) 0.38107(19)
O4B O 0.1810(2) 0.1799(3) 0.4395(2)
O5B O 0.3699(2) 0.2091(3) 0.47529(19)
O6B O 0.3588(2) 0.0565(2) 0.50448(17)
O7B O 0.4016(2) -0.1017(2) 0.41106(18)
O7C O -0.0984(2) 0.3983(2) 0.41106(18)
O7A O 0.0984(2) 0.3983(2) 0.08894(18)
O8B O 0.4912(2) 0.0080(2) 0.3913(2)
O8D O -0.5088(2) -0.0080(2) -0.1087(2)
O8F O 0.5088(2) -0.0080(2) 0.6087(2)
O9B O 0.4178(2) -0.0934(2) 0.26073(18)
O9A O 0.0822(2) 0.4066(2) 0.23927(18)
O9C O -0.0822(2) 0.4066(2) 0.26073(18)
O10B O 0.3625(2) -0.0093(2) 0.16542(16)
O10F O -0.3625(2) 0.0093(2) -0.16542(16)
O10D O 0.3625(2) 0.0093(2) 0.66542(16)
O11B O -0.0287(2) 0.2991(3) 0.13613(17)
O11G O -0.4713(2) 0.2009(3) -0.13613(17)
O11E O 0.4713(2) 0.2009(3) 0.63613(17)
N1B N 0.0467(3) 0.1050(3) 0.0905(2)
N2B N 0.1092(3) 0.2239(3) 0.0094(2)
C1B C 0.2256(3) 0.1468(3) 0.2769(2)
C2B C 0.2521(3) 0.1561(3) 0.3498(2)
C3B C 0.3164(3) 0.1026(3) 0.3848(2)
C4B C 0.3538(3) 0.0371(3) 0.3472(2)
C5B C 0.3301(3) 0.0323(3) 0.2738(2)
C6B C 0.2664(3) 0.0869(3) 0.2399(2)
H1B H 0.2506 0.0832 0.1911
C7B C 0.1523(3) 0.1980(3) 0.2366(2)
C8B C 0.2118(3) 0.2245(3) 0.3912(2)
C9B C 0.3508(3) 0.1242(3) 0.4610(2)
C10B C 0.4209(3) -0.0244(3) 0.3860(2)
C11B C 0.3738(3) -0.0295(3) 0.2300(2)
C12B C 0.0154(4) 0.0491(4) 0.1338(3)
H2B H -0.0193 0.0764 0.1597
C13B C 0.0318(5) -0.0462(5) 0.1418(4)
H3B H 0.0081 -0.0834 0.1718
C14B C 0.0850(7) -0.0865(5) 0.1039(5)
H4B H 0.0985 -0.1510 0.1091
C15B C 0.1173(5) -0.0296(5) 0.0589(5)
H5B H 0.1528 -0.0552 0.0330
C16B C 0.0967(4) 0.0657(4) 0.0524(3)
C17B C 0.1276(4) 0.1311(4) 0.0037(3)
C18B C 0.1697(5) 0.1014(5) -0.0457(4)
H6B H 0.1827 0.0371 -0.0485
C19B C 0.1925(5) 0.1661(7) -0.0908(4)
H7B H 0.2222 0.1465 -0.1237
C20B C 0.1711(6) 0.2600(6) -0.0868(4)
H8B H 0.1843 0.3049 -0.1182
C21B C 0.1299(4) 0.2871(5) -0.0357(3)
H9B H 0.1160 0.3511 -0.0324
H10B H -0.044(3) 0.257(4) 0.141(3)
H10G H -0.456(3) 0.243(4) -0.141(3)
H10E H 0.456(3) 0.243(4) 0.641(3)
H11B H 0.159(4) 0.220(5) 0.464(4)
loop_
_geom_bond_atom_site_label_1
_geom_bond_atom_site_label_2
_geom_bond_site_symmetry_1
_geom_bond_site_symmetry_2
Zn1 O2 1_555 1_555
Zn2 O6 1_555 1_555
Zn3 O1 1_555 1_555
O1 C7 1_555 1_555
O2 C7 1_555 1_555
O3 C8 1_555 1_555
O4 C8 1_555 1_555
O5 C9 1_555 1_555
O6 C9 1_555 1_555
O7 C10 1_555 1_555
O8 C10 1_555 1_555
O9 C11 1_555 1_555
O10 C11 1_555 1_555
O11 Zn1 1_555 1_555
N1 Zn3 1_555 1_555
N2 Zn3 1_555 1_555
C1 C2 1_555 1_555
C2 C3 1_555 1_555
C3 C4 1_555 1_555
C4 C5 1_555 1_555
C5 C6 1_555 1_555
C6 C1 1_555 1_555
H1 C6 1_555 1_555
C7 C1 1_555 1_555
C8 C2 1_555 1_555
C9 C3 1_555 1_555
C10 C4 1_555 1_555
C11 C5 1_555 1_555
C12 N1 1_555 1_555
H2 C12 1_555 1_555
C13 C12 1_555 1_555
H3 C13 1_555 1_555
C14 C13 1_555 1_555
H4 C14 1_555 1_555
C15 C14 1_555 1_555
H5 C15 1_555 1_555
C16 N1 1_555 1_555
C17 N2 1_555 1_555
C18 C17 1_555 1_555
H6 C18 1_555 1_555
C19 C18 1_555 1_555
H7 C19 1_555 1_555
C20 C19 1_555 1_555
H8 C20 1_555 1_555
C21 N2 1_555 1_555
H9 C21 1_555 1_555
H10 O11 1_555 1_555
H11 O4 1_555 1_555
Zn1A O9 1_555 1_555
Zn1A_2 O9B 1_555 1_555
Zn2B O6B 1_555 1_555
Zn2D O8 1_555 1_555
Zn2F O10 1_555 1_555
Zn2G O11 1_555 1_555
Zn2F_2 O8B 1_555 1_555
Zn2D_2 O10B 1_555 1_555
Zn2E O11B 1_555 1_555
Zn3B O1B 1_555 1_555
Zn3C O7 1_555 1_555
Zn3A O7B 1_555 1_555
O1B C7B 1_555 1_555
O2B Zn1 1_555 1_555
O3B C8B 1_555 1_555
O4B C8B 1_555 1_555
O5B C9B 1_555 1_555
O6B C9B 1_555 1_555
O7B C10B 1_555 1_555
O7C Zn3 1_555 1_555
O7A Zn3B 1_555 1_555
O8B C10B 1_555 1_555
O8D Zn2 1_555 1_555
O8F Zn2B 1_555 1_555
O9B C11B 1_555 1_555
O9A Zn1 1_555 1_555
O9C Zn1 1_555 1_555
O10B C11B 1_555 1_555
O10F Zn2 1_555 1_555
O10D Zn2B 1_555 1_555
O11B Zn1 1_555 1_555
O11G Zn2 1_555 1_555
O11E Zn2B 1_555 1_555
N1B Zn3B 1_555 1_555
N2B Zn3B 1_555 1_555
C1B C2B 1_555 1_555
C2B C3B 1_555 1_555
C3B C4B 1_555 1_555
C4B C5B 1_555 1_555
C5B C6B 1_555 1_555
C6B C1B 1_555 1_555
H1B C6B 1_555 1_555
C7B O2B 1_555 1_555
C8B C2B 1_555 1_555
C9B C3B 1_555 1_555
C10B C4B 1_555 1_555
C11B C5B 1_555 1_555
C12B N1B 1_555 1_555
H2B C12B 1_555 1_555
C13B C12B 1_555 1_555
H3B C13B 1_555 1_555
C14B C13B 1_555 1_555
H4B C14B 1_555 1_555
C15B C14B 1_555 1_555
H5B C15B 1_555 1_555
C16B N1B 1_555 1_555
C17B N2B 1_555 1_555
C18B C17B 1_555 1_555
H6B C18B 1_555 1_555
C19B C18B 1_555 1_555
H7B C19B 1_555 1_555
C20B C19B 1_555 1_555
H8B C20B 1_555 1_555
C21B N2B 1_555 1_555
H9B C21B 1_555 1_555
H10B O11B 1_555 1_555
H10G O11G 1_555 1_555
H10E O11E 1_555 1_555
H11B O4B 1_555 1_555
Zn3 O11 1_555 1_555
C15 C16 1_555 1_555
C16 C17 1_555 1_555
C20 C21 1_555 1_555
Zn3B O11B 1_555 1_555
C1B C7B 1_555 1_555
C15B C16B 1_555 1_555
C16B C17B 1_555 1_555
C20B C21B 1_555 1_555

#END
