
#######################################################################
#
#                 Cambridge Crystallographic Data Centre
#                                CCDC 
#
#######################################################################
#
# If this CIF has been generated from an entry in the Cambridge 
# Structural Database, then it will include bibliographic, chemical, 
# crystal, experimental, refinement or atomic coordinate data resulting 
# from the CCDC's data processing and validation procedures.
#
#######################################################################

data_SIYSAV
_symmetry_cell_setting           orthorhombic
_symmetry_space_group_name_H-M   'P 21 21 21'
_symmetry_Int_Tables_number      19
_space_group_name_Hall           'P 2ac 2ab'
loop_
_symmetry_equiv_pos_site_id
_symmetry_equiv_pos_as_xyz
1 x,y,z
2 1/2-x,-y,1/2+z
3 1/2+x,1/2-y,-z
4 -x,1/2+y,1/2-z
_cell_length_a                   5.0670(6)
_cell_length_b                   9.1795(10)
_cell_length_c                   18.293(2)
_cell_angle_alpha                90
_cell_angle_beta                 90
_cell_angle_gamma                90
_cell_volume                     850.854
loop_
_atom_site_label
_atom_site_type_symbol
_atom_site_fract_x
_atom_site_fract_y
_atom_site_fract_z
Zn1 Zn 0.87652(7) 0.22221(3) 0.062796(16)
Cl1 Cl 0.72703(16) 0.03273(8) 0.12493(4)
O1 O 1.1258(5) 0.1542(2) -0.00962(10)
C1 C 1.1814(6) 0.0035(3) -0.01429(16)
H1 H 1.0200 -0.0487 -0.0255
H2 H 1.2447 -0.0306 0.0327
C2 C 1.3853(6) -0.0300(3) -0.07199(14)
C3 C 1.4525(7) -0.1733(3) -0.08924(17)
H3 H 1.3713 -0.2508 -0.0655
C4 C 1.6409(7) -0.1982(3) -0.14196(15)
H4 H 1.6905 -0.2929 -0.1536
C5 C 1.7562(7) -0.0812(3) -0.17748(17)
H5 H 1.8839 -0.0968 -0.2132
C6 C 1.6798(6) 0.0594(3) -0.15947(16)
C7 C 1.7919(7) 0.1905(3) -0.19743(18)
H6 H 1.6505 0.2504 -0.2152
H7 H 1.8997 0.1595 -0.2377
H8 H 1.8973 0.2454 -0.1636
N1 N 1.4976(6) 0.0836(3) -0.10642(13)
Zn1B Zn 1.37652(7) 0.27779(3) -0.062796(16)
O1B O 0.6258(5) 0.3458(2) 0.00962(10)
N1B N 0.9976(6) 0.4164(3) 0.10642(13)
loop_
_geom_bond_atom_site_label_1
_geom_bond_atom_site_label_2
_geom_bond_site_symmetry_1
_geom_bond_site_symmetry_2
Zn1 Cl1 1_555 1_555
O1 Zn1 1_555 1_555
C1 O1 1_555 1_555
H1 C1 1_555 1_555
H2 C1 1_555 1_555
C2 C1 1_555 1_555
C3 C2 1_555 1_555
H3 C3 1_555 1_555
C4 C3 1_555 1_555
H4 C4 1_555 1_555
C5 C4 1_555 1_555
H5 C5 1_555 1_555
C6 C5 1_555 1_555
C7 C6 1_555 1_555
H6 C7 1_555 1_555
H7 C7 1_555 1_555
H8 C7 1_555 1_555
N1 C2 1_555 1_555
Zn1B O1 1_555 1_555
O1B Zn1 1_555 1_555
N1B Zn1 1_555 1_555
C6 N1 1_555 1_555
N1 Zn1B 1_555 1_555

#END
