
#######################################################################
#
#                 Cambridge Crystallographic Data Centre
#                                CCDC 
#
#######################################################################
#
# If this CIF has been generated from an entry in the Cambridge 
# Structural Database, then it will include bibliographic, chemical, 
# crystal, experimental, refinement or atomic coordinate data resulting 
# from the CCDC's data processing and validation procedures.
#
#######################################################################

data_SIYWUS
_symmetry_cell_setting           monoclinic
_symmetry_space_group_name_H-M   'P 21/c'
_symmetry_Int_Tables_number      14
_space_group_name_Hall           '-P 2ybc'
loop_
_symmetry_equiv_pos_site_id
_symmetry_equiv_pos_as_xyz
1 x,y,z
2 -x,1/2+y,1/2-z
3 -x,-y,-z
4 x,1/2-y,1/2+z
_cell_length_a                   9.056(3)
_cell_length_b                   19.622(6)
_cell_length_c                   26.029(6)
_cell_angle_alpha                90
_cell_angle_beta                 100.48(2)
_cell_angle_gamma                90
_cell_volume                     4548.11
loop_
_atom_site_label
_atom_site_type_symbol
_atom_site_fract_x
_atom_site_fract_y
_atom_site_fract_z
Cu1 Cu 0.0000 0.0000 0.5000
Cu2 Cu 0.2607(2) 0.0753(1) 0.2436(1)
Cu3 Cu 0.5000 0.0000 0.0000
O1 O 0.1211(12) 0.0737(5) 0.5355(4)
O2 O -0.1551(12) 0.0615(5) 0.4652(4)
C1 C 0.0942(18) 0.1356(8) 0.5250(7)
C2 C -0.0278(19) 0.1639(8) 0.4905(7)
C3 C -0.1388(16) 0.1236(8) 0.4657(5)
C4 C -0.2679(23) 0.1593(9) 0.4346(8)
F1 F -0.2548(16) 0.2256(6) 0.4255(6)
F2 F -0.3884(14) 0.1586(6) 0.4590(6)
F3 F -0.3245(16) 0.1310(6) 0.3897(5)
C5 C 0.2064(33) 0.1853(12) 0.5517(13)
F4 F 0.3323(23) 0.1784(10) 0.5303(11)
F5 F 0.2756(24) 0.1638(8) 0.5985(7)
F6 F 0.1812(19) 0.2449(6) 0.5486(9)
O3 O 0.4600(11) 0.1359(5) 0.2526(4)
O4 O 0.1389(12) 0.1676(5) 0.2329(4)
C6 C 0.1939(22) 0.2270(9) 0.2330(7)
C7 C 0.3461(26) 0.2466(9) 0.2395(7)
C8 C 0.4631(19) 0.1997(9) 0.2493(6)
C9 C 0.0819(34) 0.2828(14) 0.2261(14)
C10 C 0.6171(25) 0.2293(12) 0.2542(12)
F7 F 0.1259(15) 0.3433(6) 0.2197(8)
F8 F 0.0049(19) 0.2836(8) 0.2656(9)
F9 F -0.0276(22) 0.2710(8) 0.1872(8)
F10 F 0.7225(17) 0.1941(9) 0.2689(13)
F11 F 0.6447(19) 0.2787(13) 0.2839(10)
F12 F 0.6422(18) 0.2618(14) 0.2153(9)
O5 O 0.4001(10) 0.0691(4) -0.0473(3)
O6 O 0.6218(11) 0.0672(4) 0.0431(3)
C11 C 0.6203(18) 0.1306(7) 0.0318(6)
C12 C 0.5354(18) 0.1643(6) -0.0096(7)
C13 C 0.4373(19) 0.1303(7) -0.0459(6)
C14 C 0.7413(31) 0.1701(12) 0.0732(9)
C15 C 0.3541(30) 0.1720(10) -0.0914(11)
F13 F 0.6955(43) 0.1680(18) 0.1167(12)
F14 F 0.7595(43) 0.2300(16) 0.0574(14)
F15 F 0.8729(53) 0.1478(19) 0.0767(24)
F16 F 0.4117(16) 0.2266(7) -0.1004(6)
F17 F 0.2199(22) 0.1886(10) -0.0830(9)
F18 F 0.3147(33) 0.1394(7) -0.1338(7)
O7 O 0.1374(18) 0.0248(7) 0.4321(5)
N1 N 0.2562(14) 0.0368(6) 0.3133(4)
N2 N 0.1932(16) 0.0161(7) 0.3917(4)
C16 C 0.3100(19) -0.0348(7) 0.3869(5)
C17 C 0.3343(18) -0.0127(8) 0.3344(5)
C18 C 0.1610(16) 0.0637(8) 0.3485(5)
C19 C 0.4462(23) -0.0261(11) 0.4317(6)
C20 C 0.2343(29) -0.1059(9) 0.3866(8)
C21 C 0.4465(19) -0.0538(8) 0.3076(6)
C22 C 0.6006(23) -0.0191(10) 0.3151(10)
C23 C -0.0069(17) 0.0625(11) 0.3218(7)
C24 C 0.2143(21) 0.1361(8) 0.3641(6)
O8 O 0.2898(11) -0.0040(6) 0.0480(4)
N3 N 0.2287(12) 0.0280(5) 0.1750(4)
N4 N 0.2533(13) -0.0036(6) 0.0926(4)
C25 C 0.1296(16) -0.0468(6) 0.1060(5)
C26 C 0.1297(16) -0.0181(6) 0.1593(5)
C27 C 0.3211(16) 0.0428(6) 0.1355(5)
C28 C 0.1832(22) -0.1226(8) 0.1078(7)
C29 C -0.0166(17) -0.0342(10) 0.0661(6)
C30 C 0.0188(18) -0.0423(7) 0.1915(6)
C31 C -0.1201(19) 0.0058(11) 0.1849(7)
C32 C 0.4849(16) 0.0258(9) 0.1553(6)
C33 C 0.2934(18) 0.1182(7) 0.1169(6)
O1B O -0.1211(12) -0.0737(5) 0.4645(4)
O2B O 0.1551(12) -0.0615(5) 0.5348(4)
C1B C -0.0942(18) -0.1356(8) 0.4750(7)
C2B C 0.0278(19) -0.1639(8) 0.5095(7)
C3B C 0.1388(16) -0.1236(8) 0.5343(5)
C4B C 0.2679(23) -0.1593(9) 0.5654(8)
F1B F 0.2548(16) -0.2256(6) 0.5745(6)
F2B F 0.3884(14) -0.1586(6) 0.5410(6)
F3B F 0.3245(16) -0.1310(6) 0.6103(5)
C5B C -0.2064(33) -0.1853(12) 0.4483(13)
F4B F -0.3323(23) -0.1784(10) 0.4697(11)
F5B F -0.2756(24) -0.1638(8) 0.4015(7)
F6B F -0.1812(19) -0.2449(6) 0.4514(9)
O7B O -0.1374(18) -0.0248(7) 0.5679(5)
N1B N -0.2562(14) -0.0368(6) 0.6867(4)
N2B N -0.1932(16) -0.0161(7) 0.6083(4)
C16B C -0.3100(19) 0.0348(7) 0.6131(5)
C17B C -0.3343(18) 0.0127(8) 0.6656(5)
C18B C -0.1610(16) -0.0637(8) 0.6515(5)
C19B C -0.4462(23) 0.0261(11) 0.5683(6)
C20B C -0.2343(29) 0.1059(9) 0.6134(8)
C21B C -0.4465(19) 0.0538(8) 0.6924(6)
C22B C -0.6006(23) 0.0191(10) 0.6849(10)
C23B C 0.0069(17) -0.0625(11) 0.6782(7)
C24B C -0.2143(21) -0.1361(8) 0.6359(6)
Cu2B Cu -0.2607(2) -0.0753(1) 0.7564(1)
O3B O -0.4600(11) -0.1359(5) 0.7474(4)
O4B O -0.1389(12) -0.1676(5) 0.7671(4)
C6B C -0.1939(22) -0.2270(9) 0.7670(7)
C7B C -0.3461(26) -0.2466(9) 0.7605(7)
C8B C -0.4631(19) -0.1997(9) 0.7507(6)
C9B C -0.0819(34) -0.2828(14) 0.7739(14)
C10B C -0.6171(25) -0.2293(12) 0.7458(12)
F7B F -0.1259(15) -0.3433(6) 0.7803(8)
F8B F -0.0049(19) -0.2836(8) 0.7344(9)
F9B F 0.0276(22) -0.2710(8) 0.8128(8)
F10B F -0.7225(17) -0.1941(9) 0.7311(13)
F11B F -0.6447(19) -0.2787(13) 0.7161(10)
F12B F -0.6422(18) -0.2618(14) 0.7847(9)
O8B O -0.2898(11) 0.0040(6) 0.9520(4)
N3B N -0.2287(12) -0.0280(5) 0.8250(4)
N4B N -0.2533(13) 0.0036(6) 0.9074(4)
C25B C -0.1296(16) 0.0468(6) 0.8940(5)
C26B C -0.1297(16) 0.0181(6) 0.8407(5)
C27B C -0.3211(16) -0.0428(6) 0.8645(5)
C28B C -0.1832(22) 0.1226(8) 0.8922(7)
C29B C 0.0166(17) 0.0342(10) 0.9339(6)
C30B C -0.0188(18) 0.0423(7) 0.8085(6)
C31B C 0.1201(19) -0.0058(11) 0.8151(7)
C32B C -0.4849(16) -0.0258(9) 0.8447(6)
C33B C -0.2934(18) -0.1182(7) 0.8831(6)
O5B O 0.5999(10) -0.0691(4) 0.0473(3)
O6B O 0.3782(11) -0.0672(4) -0.0431(3)
C11B C 0.3797(18) -0.1306(7) -0.0318(6)
C12B C 0.4646(18) -0.1643(6) 0.0096(7)
C13B C 0.5627(19) -0.1303(7) 0.0459(6)
C14B C 0.2587(31) -0.1701(12) -0.0732(9)
C15B C 0.6459(30) -0.1720(10) 0.0914(11)
F13B F 0.3045(43) -0.1680(18) -0.1167(12)
F14B F 0.2405(43) -0.2300(16) -0.0574(14)
F15B F 0.1271(53) -0.1478(19) -0.0767(24)
F16B F 0.5883(16) -0.2266(7) 0.1004(6)
F17B F 0.7801(22) -0.1886(10) 0.0830(9)
F18B F 0.6853(33) -0.1394(7) 0.1338(7)
O8B_2 O 0.7102(11) 0.0040(6) -0.0480(4)
Cu3_2 Cu -0.5000 0.0000 1.0000
loop_
_geom_bond_atom_site_label_1
_geom_bond_atom_site_label_2
_geom_bond_site_symmetry_1
_geom_bond_site_symmetry_2
Cu1 O1 1_555 1_555
Cu2 O3 1_555 1_555
Cu3 O5 1_555 1_555
O1 C1 1_555 1_555
O2 Cu1 1_555 1_555
C1 C2 1_555 1_555
C2 C3 1_555 1_555
C3 O2 1_555 1_555
C4 C3 1_555 1_555
F1 C4 1_555 1_555
F2 C4 1_555 1_555
F3 C4 1_555 1_555
C5 C1 1_555 1_555
F4 C5 1_555 1_555
F5 C5 1_555 1_555
F6 C5 1_555 1_555
O3 C8 1_555 1_555
O4 Cu2 1_555 1_555
C6 O4 1_555 1_555
C7 C6 1_555 1_555
C8 C7 1_555 1_555
C9 C6 1_555 1_555
C10 C8 1_555 1_555
F7 C9 1_555 1_555
F8 C9 1_555 1_555
F9 C9 1_555 1_555
F10 C10 1_555 1_555
F11 C10 1_555 1_555
F12 C10 1_555 1_555
O5 C13 1_555 1_555
O6 Cu3 1_555 1_555
C11 O6 1_555 1_555
C12 C11 1_555 1_555
C13 C12 1_555 1_555
C14 C11 1_555 1_555
C15 C13 1_555 1_555
F13 C14 1_555 1_555
F14 C14 1_555 1_555
F15 C14 1_555 1_555
F16 C15 1_555 1_555
F17 C15 1_555 1_555
F18 C15 1_555 1_555
O7 Cu1 1_555 1_555
N1 Cu2 1_555 1_555
N2 O7 1_555 1_555
C16 N2 1_555 1_555
C17 N1 1_555 1_555
C18 N1 1_555 1_555
C19 C16 1_555 1_555
C20 C16 1_555 1_555
C21 C17 1_555 1_555
C22 C21 1_555 1_555
C23 C18 1_555 1_555
C24 C18 1_555 1_555
O8 Cu3 1_555 1_555
N3 Cu2 1_555 1_555
N4 O8 1_555 1_555
C25 N4 1_555 1_555
C26 N3 1_555 1_555
C27 N3 1_555 1_555
C28 C25 1_555 1_555
C29 C25 1_555 1_555
C30 C26 1_555 1_555
C31 C30 1_555 1_555
C32 C27 1_555 1_555
C33 C27 1_555 1_555
O1B Cu1 1_555 1_555
O2B Cu1 1_555 1_555
C1B O1B 1_555 1_555
C2B C1B 1_555 1_555
C3B O2B 1_555 1_555
C4B C3B 1_555 1_555
F1B C4B 1_555 1_555
F2B C4B 1_555 1_555
F3B C4B 1_555 1_555
C5B C1B 1_555 1_555
F4B C5B 1_555 1_555
F5B C5B 1_555 1_555
F6B C5B 1_555 1_555
O7B Cu1 1_555 1_555
N1B C17B 1_555 1_555
N2B O7B 1_555 1_555
C16B N2B 1_555 1_555
C17B C16B 1_555 1_555
C18B N1B 1_555 1_555
C19B C16B 1_555 1_555
C20B C16B 1_555 1_555
C21B C17B 1_555 1_555
C22B C21B 1_555 1_555
C23B C18B 1_555 1_555
C24B C18B 1_555 1_555
Cu2B N1B 1_555 1_555
O3B Cu2B 1_555 1_555
O4B Cu2B 1_555 1_555
C6B O4B 1_555 1_555
C7B C6B 1_555 1_555
C8B O3B 1_555 1_555
C9B C6B 1_555 1_555
C10B C8B 1_555 1_555
F7B C9B 1_555 1_555
F8B C9B 1_555 1_555
F9B C9B 1_555 1_555
F10B C10B 1_555 1_555
F11B C10B 1_555 1_555
F12B C10B 1_555 1_555
O8B N4B 1_555 1_555
N3B Cu2B 1_555 1_555
N4B C25B 1_555 1_555
C25B C26B 1_555 1_555
C26B N3B 1_555 1_555
C27B N3B 1_555 1_555
C28B C25B 1_555 1_555
C29B C25B 1_555 1_555
C30B C26B 1_555 1_555
C31B C30B 1_555 1_555
C32B C27B 1_555 1_555
C33B C27B 1_555 1_555
O5B Cu3 1_555 1_555
O6B Cu3 1_555 1_555
C11B O6B 1_555 1_555
C12B C11B 1_555 1_555
C13B O5B 1_555 1_555
C14B C11B 1_555 1_555
C15B C13B 1_555 1_555
F13B C14B 1_555 1_555
F14B C14B 1_555 1_555
F15B C14B 1_555 1_555
F16B C15B 1_555 1_555
F17B C15B 1_555 1_555
F18B C15B 1_555 1_555
O8B_2 Cu3 1_555 1_555
Cu3_2 O8B 1_555 1_555
N2 C18 1_555 1_555
C16 C17 1_555 1_555
N4 C27 1_555 1_555
C25 C26 1_555 1_555
C2B C3B 1_555 1_555
N2B C18B 1_555 1_555
C7B C8B 1_555 1_555
N4B C27B 1_555 1_555
C12B C13B 1_555 1_555

#END
