
#######################################################################
#
#                 Cambridge Crystallographic Data Centre
#                                CCDC 
#
#######################################################################
#
# If this CIF has been generated from an entry in the Cambridge 
# Structural Database, then it will include bibliographic, chemical, 
# crystal, experimental, refinement or atomic coordinate data resulting 
# from the CCDC's data processing and validation procedures.
#
#######################################################################

data_SIYXOP
_symmetry_cell_setting           monoclinic
_symmetry_space_group_name_H-M   'P 21/c'
_symmetry_Int_Tables_number      14
_space_group_name_Hall           '-P 2ybc'
loop_
_symmetry_equiv_pos_site_id
_symmetry_equiv_pos_as_xyz
1 x,y,z
2 -x,1/2+y,1/2-z
3 -x,-y,-z
4 x,1/2-y,1/2+z
_cell_length_a                   11.941(4)
_cell_length_b                   18.047(5)
_cell_length_c                   10.866(3)
_cell_angle_alpha                90
_cell_angle_beta                 115.257(4)
_cell_angle_gamma                90
_cell_volume                     2117.76
loop_
_atom_site_label
_atom_site_type_symbol
_atom_site_fract_x
_atom_site_fract_y
_atom_site_fract_z
Cd1 Cd 0.31598(2) 0.251454(14) -0.00841(3)
N1 N 0.3982(3) 0.13619(18) 0.0905(3)
N2 N 1.2366(3) 0.13068(17) 0.4039(3)
O1 O 0.6947(3) 0.04990(17) 0.2167(4)
O2 O 0.9398(3) 0.04479(17) 0.2858(5)
O3 O 1.0221(3) 0.17074(17) -0.1342(3)
O4 O 1.1508(2) 0.23446(14) 0.0456(3)
O5 O 0.6067(3) 0.32223(18) 0.1064(3)
O6 O 0.4758(3) 0.25883(14) -0.0714(3)
O7 O 0.4281(3) 0.31586(17) 0.1918(3)
O8 O 0.2023(3) 0.19316(17) -0.2132(3)
C1 C 0.3258(4) 0.0793(2) 0.0889(5)
H1 H 0.2414 0.0876 0.0591
C2 C 0.3711(4) 0.0094(2) 0.1295(5)
H2 H 0.3172 -0.0288 0.1251
C3 C 0.4961(4) -0.0049(2) 0.1767(5)
H3 H 0.5283 -0.0520 0.2051
C4 C 0.5710(4) 0.0536(2) 0.1798(5)
C5 C 0.5180(4) 0.1226(2) 0.1360(5)
H4 H 0.5698 0.1616 0.1389
C6 C 0.7591(4) -0.0160(2) 0.2702(5)
H5 H 0.7148 -0.0570 0.2121
H6 H 0.7617 -0.0245 0.3596
C7 C 0.8826(5) -0.0143(3) 0.2813(7)
H7 H 0.9332 -0.0420 0.3627
H8 H 0.8819 -0.0425 0.2049
C8 C 1.0638(4) 0.0492(2) 0.3196(5)
C9 C 1.1366(4) -0.0094(2) 0.3176(5)
H9 H 1.1030 -0.0559 0.2860
C10 C 1.2613(4) 0.0041(2) 0.3646(5)
H10 H 1.3140 -0.0344 0.3670
C11 C 1.3091(4) 0.0732(2) 0.4081(5)
H11 H 1.3941 0.0804 0.4414
C12 C 1.1164(4) 0.1178(2) 0.3595(5)
H12 H 1.0650 0.1574 0.3551
C13 C 1.0449(3) 0.2059(2) -0.0279(4)
C14 C 0.9420(4) 0.2214(2) 0.0146(5)
C15 C 0.8357(4) 0.1671(2) -0.0399(5)
H13 H 0.8662 0.1178 -0.0070
H14 H 0.8015 0.1662 -0.1385
C16 C 0.7334(3) 0.1876(2) 0.0039(5)
H15 H 0.6655 0.1527 -0.0355
H16 H 0.7656 0.1842 0.1022
C17 C 0.6855(4) 0.2663(2) -0.0418(5)
C18 C 0.7912(4) 0.3209(2) 0.0129(5)
H17 H 0.8247 0.3221 0.1114
H18 H 0.7605 0.3701 -0.0208
C19 C 0.8934(4) 0.3006(2) -0.0290(5)
H19 H 0.9613 0.3353 0.0118
H20 H 0.8621 0.3047 -0.1271
C20 C 0.5833(3) 0.2848(2) 0.0019(4)
H21 H 0.180(4) 0.219(3) -0.287(5)
H22 H 0.501(5) 0.321(3) 0.174(6)
H23 H 0.139(5) 0.191(3) -0.201(5)
H24 H 0.440(6) 0.293(4) 0.259(6)
H25 H 0.977(3) 0.221(2) 0.107(4)
H26 H 0.652(4) 0.266(2) -0.139(5)
Cd1_2 Cd 1.31598(2) 0.251454(14) -0.00841(3)
Cd1C Cd 1.31598(2) 0.248546(14) 0.49159(3)
N2C N 0.2366(3) 0.36932(17) -0.0961(3)
O4_2 O 0.1508(2) 0.23446(14) 0.0456(3)
loop_
_geom_bond_atom_site_label_1
_geom_bond_atom_site_label_2
_geom_bond_site_symmetry_1
_geom_bond_site_symmetry_2
Cd1 N1 1_555 1_555
N1 C1 1_555 1_555
N2 C11 1_555 1_555
O1 C4 1_555 1_555
O2 C7 1_555 1_555
O3 C13 1_555 1_555
O4 C13 1_555 1_555
O5 C20 1_555 1_555
O6 Cd1 1_555 1_555
O7 Cd1 1_555 1_555
O8 Cd1 1_555 1_555
C1 H1 1_555 1_555
C2 C1 1_555 1_555
H2 C2 1_555 1_555
C3 C2 1_555 1_555
H3 C3 1_555 1_555
C4 C3 1_555 1_555
C5 N1 1_555 1_555
H4 C5 1_555 1_555
C6 O1 1_555 1_555
H5 C6 1_555 1_555
H6 C6 1_555 1_555
C7 C6 1_555 1_555
H7 C7 1_555 1_555
H8 C7 1_555 1_555
C8 O2 1_555 1_555
C9 C8 1_555 1_555
H9 C9 1_555 1_555
C10 C9 1_555 1_555
H10 C10 1_555 1_555
C11 C10 1_555 1_555
H11 C11 1_555 1_555
C12 N2 1_555 1_555
H12 C12 1_555 1_555
C13 C14 1_555 1_555
C14 C15 1_555 1_555
C15 H13 1_555 1_555
H14 C15 1_555 1_555
C16 C15 1_555 1_555
H15 C16 1_555 1_555
H16 C16 1_555 1_555
C17 C16 1_555 1_555
C18 C17 1_555 1_555
H17 C18 1_555 1_555
H18 C18 1_555 1_555
C19 C14 1_555 1_555
H19 C19 1_555 1_555
H20 C19 1_555 1_555
C20 O6 1_555 1_555
H21 O8 1_555 1_555
H22 O7 1_555 1_555
H23 O8 1_555 1_555
H24 O7 1_555 1_555
H25 C14 1_555 1_555
H26 C17 1_555 1_555
Cd1_2 O4 1_555 1_555
Cd1C N2 1_555 1_555
N2C Cd1 1_555 1_555
O4_2 Cd1 1_555 1_555
C4 C5 1_555 1_555
C8 C12 1_555 1_555
C17 C20 1_555 1_555
C18 C19 1_555 1_555

#END
