
#######################################################################
#
#                 Cambridge Crystallographic Data Centre
#                                CCDC 
#
#######################################################################
#
# If this CIF has been generated from an entry in the Cambridge 
# Structural Database, then it will include bibliographic, chemical, 
# crystal, experimental, refinement or atomic coordinate data resulting 
# from the CCDC's data processing and validation procedures.
#
#######################################################################

data_SIYXIJ
_symmetry_cell_setting           monoclinic
_symmetry_space_group_name_H-M   'C 2/c'
_symmetry_Int_Tables_number      15
_space_group_name_Hall           '-C 2yn'
loop_
_symmetry_equiv_pos_site_id
_symmetry_equiv_pos_as_xyz
1 x,y,z
2 -x,y,1/2-z
3 1/2+x,1/2+y,z
4 1/2-x,1/2+y,1/2-z
5 -x,-y,-z
6 x,-y,1/2+z
7 1/2-x,1/2-y,-z
8 1/2+x,1/2-y,1/2+z
_cell_length_a                   20.933(4)
_cell_length_b                   9.5782(17)
_cell_length_c                   14.067(3)
_cell_angle_alpha                90
_cell_angle_beta                 106.705(2)
_cell_angle_gamma                90
_cell_volume                     2701.41
loop_
_atom_site_label
_atom_site_type_symbol
_atom_site_fract_x
_atom_site_fract_y
_atom_site_fract_z
Cd1 Cd 0.972276(13) 0.53226(2) 0.355971(18)
N1 N 0.93208(14) 0.7579(3) 0.3446(2)
N2 N 0.86951(16) 0.4250(3) 0.3280(2)
O1 O 0.74451(17) 0.2602(4) 0.1233(2)
O2 O 0.93291(13) 0.6131(2) 0.17973(18)
O3 O 0.97197(13) 0.6195(2) 0.51708(18)
O4 O 0.93715(15) 0.7933(3) 0.59573(19)
O5 O 0.90092(19) 0.8023(3) 0.0859(2)
O6 O 1.0000 0.3553(3) 0.2500
C1 C 0.8365(2) 0.3841(4) 0.2352(3)
H1 H 0.8536 0.4087 0.1833
C2 C 0.7785(2) 0.3074(5) 0.2140(3)
C3 C 0.7532(2) 0.2717(6) 0.2914(4)
H2 H 0.7145 0.2188 0.2797
C4 C 0.7860(2) 0.3152(6) 0.3853(4)
H3 H 0.7692 0.2939 0.4380
C5 C 0.8442(2) 0.3911(5) 0.4011(3)
H4 H 0.8665 0.4195 0.4653
C6 C 0.7713(3) 0.2893(6) 0.0436(4)
H5 H 0.8173 0.2585 0.0594
H6 H 0.7696 0.3887 0.0298
C7 C 0.91665(19) 0.7417(4) 0.1656(3)
C8 C 0.91805(18) 0.8266(4) 0.2585(3)
C9 C 0.9047(2) 0.9681(4) 0.2527(3)
H7 H 0.8959 1.0152 0.1925
C10 C 0.9047(3) 1.0374(4) 0.3379(3)
H8 H 0.8965 1.1329 0.3359
C11 C 0.9167(2) 0.9662(4) 0.4268(3)
H9 H 0.9152 1.0114 0.4847
C12 C 0.93108(18) 0.8256(3) 0.4267(3)
C13 C 0.94803(17) 0.7405(3) 0.5213(3)
N2F N 0.63049(16) 0.0750(3) -0.3280(2)
O1F O 0.75549(17) 0.2398(4) -0.1233(2)
C1F C 0.6635(2) 0.1159(4) -0.2352(3)
H1F H 0.6464 0.0913 -0.1833
C2F C 0.7215(2) 0.1926(5) -0.2140(3)
C3F C 0.7468(2) 0.2283(6) -0.2914(4)
H2F H 0.7855 0.2812 -0.2797
C4F C 0.7140(2) 0.1848(6) -0.3853(4)
H3F H 0.7308 0.2061 -0.4380
C5F C 0.6558(2) 0.1089(5) -0.4011(3)
H4F H 0.6335 0.0805 -0.4653
C6F C 0.7287(3) 0.2107(6) -0.0436(4)
H5F H 0.6827 0.2415 -0.0594
H6F H 0.7304 0.1113 -0.0298
Cd1A Cd 1.027724(13) 0.53226(2) 0.144029(18)
N1A N 1.06792(14) 0.7579(3) 0.1554(2)
O2A O 1.06709(13) 0.6131(2) 0.32027(18)
O3A O 1.02803(13) 0.6195(2) -0.01708(18)
O4A O 1.06285(15) 0.7933(3) -0.09573(19)
O5A O 1.09908(19) 0.8023(3) 0.4141(2)
C7A C 1.08335(19) 0.7417(4) 0.3344(3)
C8A C 1.08195(18) 0.8266(4) 0.2415(3)
C9A C 1.0953(2) 0.9681(4) 0.2473(3)
H7A H 1.1041 1.0152 0.3075
C10A C 1.0953(3) 1.0374(4) 0.1621(3)
H8A H 1.1035 1.1329 0.1641
C11A C 1.0833(2) 0.9662(4) 0.0732(3)
H9A H 1.0848 1.0114 0.0153
C12A C 1.06892(18) 0.8256(3) 0.0733(3)
C13A C 1.05197(17) 0.7405(3) -0.0213(3)
Cd1D Cd 1.027724(13) 0.46774(2) 0.644029(18)
Cd1E Cd 0.972276(13) 0.46774(2) -0.144029(18)
Cd1F Cd 0.527724(13) -0.03226(2) -0.355971(18)
N2A N 1.13049(16) 0.4250(3) 0.1720(2)
O3D O 1.02803(13) 0.3805(2) 0.48292(18)
O3E O 0.97197(13) 0.3805(2) 0.01708(18)
loop_
_geom_bond_atom_site_label_1
_geom_bond_atom_site_label_2
_geom_bond_site_symmetry_1
_geom_bond_site_symmetry_2
Cd1 N1 1_555 1_555
N1 C8 1_555 1_555
N2 Cd1 1_555 1_555
O1 C2 1_555 1_555
O2 Cd1 1_555 1_555
O3 Cd1 1_555 1_555
O4 C13 1_555 1_555
O5 C7 1_555 1_555
O6 Cd1 1_555 1_555
C1 N2 1_555 1_555
H1 C1 1_555 1_555
C2 C1 1_555 1_555
C3 C2 1_555 1_555
H2 C3 1_555 1_555
C4 C3 1_555 1_555
H3 C4 1_555 1_555
C5 N2 1_555 1_555
H4 C5 1_555 1_555
C6 O1 1_555 1_555
H5 C6 1_555 1_555
H6 C6 1_555 1_555
C7 O2 1_555 1_555
C8 C7 1_555 1_555
C9 C8 1_555 1_555
H7 C9 1_555 1_555
C10 C9 1_555 1_555
H8 C10 1_555 1_555
C11 C10 1_555 1_555
H9 C11 1_555 1_555
C12 N1 1_555 1_555
C13 O3 1_555 1_555
N2F C1F 1_555 1_555
O1F C2F 1_555 1_555
C1F H1F 1_555 1_555
C2F C1F 1_555 1_555
C3F C2F 1_555 1_555
H2F C3F 1_555 1_555
C4F C3F 1_555 1_555
H3F C4F 1_555 1_555
C5F N2F 1_555 1_555
H4F C5F 1_555 1_555
C6F C6 1_555 1_555
H5F C6F 1_555 1_555
H6F C6F 1_555 1_555
Cd1A O2 1_555 1_555
N1A Cd1A 1_555 1_555
O2A Cd1 1_555 1_555
O3A Cd1A 1_555 1_555
O4A C13A 1_555 1_555
O5A C7A 1_555 1_555
C7A O2A 1_555 1_555
C8A N1A 1_555 1_555
C9A C8A 1_555 1_555
H7A C9A 1_555 1_555
C10A C9A 1_555 1_555
H8A C10A 1_555 1_555
C11A C10A 1_555 1_555
H9A C11A 1_555 1_555
C12A N1A 1_555 1_555
C13A O3A 1_555 1_555
Cd1D O3 1_555 1_555
Cd1E O3A 1_555 1_555
Cd1F N2F 1_555 1_555
N2A Cd1A 1_555 1_555
O3D Cd1 1_555 1_555
O3E Cd1A 1_555 1_555
O6 Cd1A 1_555 1_555
C4 C5 1_555 1_555
C11 C12 1_555 1_555
C12 C13 1_555 1_555
O1F C6F 1_555 1_555
C4F C5F 1_555 1_555
Cd1A O2A 1_555 1_555
C7A C8A 1_555 1_555
C11A C12A 1_555 1_555
C12A C13A 1_555 1_555
Cd1D O3D 1_555 1_555
Cd1E O3E 1_555 1_555

#END
