
#######################################################################
#
#                 Cambridge Crystallographic Data Centre
#                                CCDC 
#
#######################################################################
#
# If this CIF has been generated from an entry in the Cambridge 
# Structural Database, then it will include bibliographic, chemical, 
# crystal, experimental, refinement or atomic coordinate data resulting 
# from the CCDC's data processing and validation procedures.
#
#######################################################################

data_SIYXIH10
_symmetry_cell_setting           trigonal
_symmetry_space_group_name_H-M   'P 31 2 1'
_symmetry_Int_Tables_number      152
_space_group_name_Hall           'P 31 2"'
loop_
_symmetry_equiv_pos_site_id
_symmetry_equiv_pos_as_xyz
1 x,y,z
2 -y,x-y,1/3+z
3 -x+y,-x,2/3+z
4 y,x,-z
5 x-y,-y,2/3-z
6 -x,-x+y,1/3-z
_cell_length_a                   8.664(2)
_cell_length_b                   8.664(2)
_cell_length_c                   10.861(2)
_cell_angle_alpha                90
_cell_angle_beta                 90
_cell_angle_gamma                120
_cell_volume                     706.053
loop_
_atom_site_label
_atom_site_type_symbol
_atom_site_fract_x
_atom_site_fract_y
_atom_site_fract_z
Fe1 Fe 0.00000(9) -0.05597(9) -0.33333
O1 O -0.18876(46) -0.02208(49) -0.06537(30)
O2 O -0.80613(44) -0.11792(42) -0.36293(29)
O3 O -0.8867(4) 0.00000 -0.16667
C1 C -0.24420(76) 0.00000 -0.16666
C2 C -0.41782(77) 0.00000 -0.16666
C3 C -0.52164(64) -0.05751(62) -0.27323(42)
C4 C -0.68512(64) -0.05994(64) -0.27117(43)
C5 C -0.7305(8) 0.00000 -0.16667
O1D O -0.16668(67) 0.02208(49) -0.26796(30)
Fe1A Fe 0.05597(9) 0.05597(13) 0.00000
O1B O 0.16668(67) 0.18876(46) -0.39870(30)
O3B O -0.11330(40) -0.1133(4) -0.50000
O2E O -0.19387(44) -0.31179(61) -0.30374(29)
O2_2 O 0.19387(44) -0.11792(42) -0.36293(29)
C3D C -0.46413(89) 0.05751(62) -0.06010(42)
C4D C -0.62518(91) 0.05994(64) -0.06216(43)
O2D O -0.68821(61) 0.11792(42) 0.02960(29)
Fe1_2 Fe -1.00000(9) -0.05597(9) -0.33333
O3_2 O 0.1133(4) 0.00000 -0.16667
Fe1A_2 Fe -0.94403(9) 0.05597(13) 0.00000
O4 O 0.5224(20) 0.7132(20) 0.1013(11)
loop_
_geom_bond_atom_site_label_1
_geom_bond_atom_site_label_2
_geom_bond_site_symmetry_1
_geom_bond_site_symmetry_2
Fe1 O1D 1_555 1_555
O1 C1 1_555 1_555
O2 C4 1_555 1_555
O3 C5 1_555 1_555
C1 C2 1_555 1_555
C2 C3 1_555 1_555
C3 C4 1_555 1_555
C4 C5 1_555 1_555
C5 C4D 1_555 1_555
O1D C1 1_555 1_555
Fe1A O1 1_555 1_555
O1B Fe1 1_555 1_555
O3B Fe1 1_555 1_555
O2E Fe1 1_555 1_555
O2_2 Fe1 1_555 1_555
C3D C2 1_555 1_555
C4D C3D 1_555 1_555
O2D C4D 1_555 1_555
Fe1_2 O2 1_555 1_555
O3_2 Fe1 1_555 1_555
Fe1A_2 O3 1_555 1_555
O3 Fe1_2 1_555 1_555
Fe1A O3_2 1_555 1_555
O2D Fe1A_2 1_555 1_555

#END
