
#######################################################################
#
#                 Cambridge Crystallographic Data Centre
#                                CCDC 
#
#######################################################################
#
# If this CIF has been generated from an entry in the Cambridge 
# Structural Database, then it will include bibliographic, chemical, 
# crystal, experimental, refinement or atomic coordinate data resulting 
# from the CCDC's data processing and validation procedures.
#
#######################################################################

data_SIYXUV
_symmetry_cell_setting           triclinic
_symmetry_space_group_name_H-M   'P -1'
_symmetry_Int_Tables_number      2
_space_group_name_Hall           '-P 1'
loop_
_symmetry_equiv_pos_site_id
_symmetry_equiv_pos_as_xyz
1 x,y,z
2 -x,-y,-z
_cell_length_a                   8.4254(13)
_cell_length_b                   10.1764(16)
_cell_length_c                   12.0955(19)
_cell_angle_alpha                106.201(2)
_cell_angle_beta                 103.844(2)
_cell_angle_gamma                103.570(2)
_cell_volume                     915.046
loop_
_atom_site_label
_atom_site_type_symbol
_atom_site_fract_x
_atom_site_fract_y
_atom_site_fract_z
Zn1 Zn 1.20134(3) 0.55557(3) 0.67609(2)
N1 N 0.9901(2) 0.5101(2) 0.73124(18)
N2 N 0.4224(3) -0.3142(2) 0.82249(18)
O1 O 0.8106(2) 0.3122(2) 0.90622(18)
O2 O 0.7436(3) 0.0236(2) 0.89434(17)
O3 O 1.1387(3) 0.8305(2) 0.72158(17)
O4 O 1.1902(2) 0.67526(18) 0.57593(16)
O5 O 1.2600(2) 1.33994(18) 0.74206(16)
O6 O 1.2289(2) 1.38154(18) 0.56989(16)
C1 C 0.8537(3) 0.5460(3) 0.6841(2)
H1 H 0.8616 0.5993 0.6333
C2 C 0.7016(3) 0.5064(3) 0.7084(3)
H2 H 0.6081 0.5319 0.6735
C3 C 0.6883(3) 0.4290(3) 0.7842(3)
H3 H 0.5869 0.4030 0.8025
C4 C 0.8293(3) 0.3905(3) 0.8332(2)
C5 C 0.9784(3) 0.4337(2) 0.8055(2)
H4 H 1.0737 0.4093 0.8391
C6 C 0.9418(3) 0.2502(3) 0.9412(2)
H5 H 1.0453 0.3248 1.0010
H6 H 0.9708 0.2029 0.8709
C7 C 0.8707(3) 0.1424(3) 0.9945(2)
H7 H 0.9614 0.1115 1.0348
H8 H 0.8191 0.1841 1.0533
C8 C 0.6541(3) -0.0902(3) 0.9168(2)
C9 C 0.6850(3) -0.1079(3) 1.0278(2)
H9 H 0.7701 -0.0379 1.0972
C10 C 0.5843(4) -0.2341(3) 1.0322(3)
H10 H 0.6040 -0.2515 1.1050
C11 C 0.4562(3) -0.3333(3) 0.9298(2)
H11 H 0.3901 -0.4172 0.9348
C12 C 0.5215(3) -0.1946(3) 0.8171(2)
H12 H 0.5006 -0.1807 0.7429
C13 C 1.1739(3) 0.7986(3) 0.6271(2)
C14 C 1.2093(3) 0.9073(2) 0.5665(2)
C15 C 1.2073(3) 1.0461(3) 0.6206(2)
H13 H 1.1824 1.0698 0.6931
C16 C 1.2420(3) 1.1500(2) 0.5683(2)
C17 C 1.2748(4) 1.1133(3) 0.4583(2)
H14 H 1.2927 1.1809 0.4205
C18 C 1.2810(4) 0.9764(3) 0.4054(3)
H15 H 1.3068 0.9530 0.3333
C19 C 1.2488(4) 0.8738(3) 0.4592(2)
H16 H 1.2537 0.7820 0.4232
C20 C 1.2430(3) 1.2993(3) 0.6319(2)
Zn1_2 Zn 0.20134(3) -0.44443(3) 0.67609(2)
Zn1_3 Zn 1.20134(3) 1.55557(3) 0.67609(2)
N2_2 N 1.4224(3) 0.6858(2) 0.82249(18)
O6_2 O 1.2289(2) 0.38154(18) 0.56989(16)
loop_
_geom_bond_atom_site_label_1
_geom_bond_atom_site_label_2
_geom_bond_site_symmetry_1
_geom_bond_site_symmetry_2
Zn1 N1 1_555 1_555
N1 C1 1_555 1_555
N2 C11 1_555 1_555
O1 C4 1_555 1_555
O2 C7 1_555 1_555
O3 C13 1_555 1_555
O4 Zn1 1_555 1_555
O5 C20 1_555 1_555
O6 C20 1_555 1_555
C1 H1 1_555 1_555
C2 C1 1_555 1_555
H2 C2 1_555 1_555
C3 C2 1_555 1_555
H3 C3 1_555 1_555
C4 C3 1_555 1_555
C5 N1 1_555 1_555
H4 C5 1_555 1_555
C6 O1 1_555 1_555
H5 C6 1_555 1_555
H6 C6 1_555 1_555
C7 C6 1_555 1_555
H7 C7 1_555 1_555
H8 C7 1_555 1_555
C8 O2 1_555 1_555
C9 C8 1_555 1_555
H9 C9 1_555 1_555
C10 C9 1_555 1_555
H10 C10 1_555 1_555
C11 C10 1_555 1_555
H11 C11 1_555 1_555
C12 N2 1_555 1_555
H12 C12 1_555 1_555
C13 O4 1_555 1_555
C14 C13 1_555 1_555
C15 C14 1_555 1_555
H13 C15 1_555 1_555
C16 C15 1_555 1_555
C17 C16 1_555 1_555
H14 C17 1_555 1_555
C18 C17 1_555 1_555
H15 C18 1_555 1_555
C19 C14 1_555 1_555
H16 C19 1_555 1_555
C20 C16 1_555 1_555
Zn1_2 N2 1_555 1_555
Zn1_3 O6 1_555 1_555
N2_2 Zn1 1_555 1_555
O6_2 Zn1 1_555 1_555
C4 C5 1_555 1_555
C8 C12 1_555 1_555
C18 C19 1_555 1_555

#END
