
#######################################################################
#
#                 Cambridge Crystallographic Data Centre
#                                CCDC 
#
#######################################################################
#
# If this CIF has been generated from an entry in the Cambridge 
# Structural Database, then it will include bibliographic, chemical, 
# crystal, experimental, refinement or atomic coordinate data resulting 
# from the CCDC's data processing and validation procedures.
#
#######################################################################

data_SIYZOP
_symmetry_cell_setting           monoclinic
_symmetry_space_group_name_H-M   'P 21/n'
_symmetry_Int_Tables_number      14
_space_group_name_Hall           '-P 2yn'
loop_
_symmetry_equiv_pos_site_id
_symmetry_equiv_pos_as_xyz
1 x,y,z
2 1/2-x,1/2+y,1/2-z
3 -x,-y,-z
4 1/2+x,1/2-y,1/2+z
_cell_length_a                   4.928(1)
_cell_length_b                   30.33(1)
_cell_length_c                   5.814(1)
_cell_angle_alpha                90
_cell_angle_beta                 95.03(2)
_cell_angle_gamma                90
_cell_volume                     865.65
loop_
_atom_site_label
_atom_site_type_symbol
_atom_site_fract_x
_atom_site_fract_y
_atom_site_fract_z
Mn1 Mn 0.00000 0.00000 0.00000
Cl1 Cl -0.00566(45) 0.23994(7) -0.15651(39)
S1 S 0.52251(28) 0.06481(5) 0.22297(24)
O1 O 0.29828(80) 0.03347(15) 0.23989(70)
O2 O -0.29565(83) 0.05054(16) 0.05350(75)
O3 O 0.65655(97) 0.07400(17) 0.44793(75)
O4 O 0.10333(85) 0.03904(16) -0.28981(72)
C1 C 0.3785(11) 0.11464(20) 0.11679(97)
C2 C 0.1880(12) 0.13496(21) 0.2367(11)
C3 C 0.0699(14) 0.17391(24) 0.1571(12)
C4 C 0.1471(14) 0.19176(23) -0.0502(12)
C5 C 0.3390(15) 0.17127(26) -0.1699(12)
C6 C 0.4564(13) 0.13302(23) -0.0880(11)
H1 H 0.12860 0.12040 0.39590
H2 H -0.08010 0.19060 0.25340
H3 H 0.39750 0.18550 -0.33030
H4 H 0.61080 0.11690 -0.18190
H5 H 0.22190 0.03670 -0.37850
H6 H -0.01850 0.04510 -0.39490
O1B O -0.29828(80) -0.03347(15) -0.23989(70)
O2B O 0.29565(83) -0.05054(16) -0.05350(75)
O4B O -0.10333(85) -0.03904(16) 0.28981(72)
O2_2 O 0.70435(83) 0.05054(16) 0.05350(75)
S1_2 S -0.47749(28) 0.06481(5) 0.22297(24)
S1B S -0.52251(28) -0.06481(5) -0.22297(24)
S1B_2 S 0.47749(28) -0.06481(5) -0.22297(24)
H5B H -0.22190 -0.03670 0.37850
H6B H 0.01850 -0.04510 0.39490
O2B_2 O -0.70435(83) -0.05054(16) -0.05350(75)
O3B O -0.65655(97) -0.07400(17) -0.44793(75)
C1B C -0.3785(11) -0.11464(20) -0.11679(97)
C2B C -0.1880(12) -0.13496(21) -0.2367(11)
C6B C -0.4564(13) -0.13302(23) 0.0880(11)
C3B C -0.0699(14) -0.17391(24) -0.1571(12)
H1B H -0.12860 -0.12040 -0.39590
C5B C -0.3390(15) -0.17127(26) 0.1699(12)
H4B H -0.61080 -0.11690 0.18190
C4B C -0.1471(14) -0.19176(23) 0.0502(12)
H2B H 0.08010 -0.19060 -0.25340
H3B H -0.39750 -0.18550 0.33030
Cl1B Cl 0.00566(45) -0.23994(7) 0.15651(39)
loop_
_geom_bond_atom_site_label_1
_geom_bond_atom_site_label_2
_geom_bond_site_symmetry_1
_geom_bond_site_symmetry_2
Mn1 O1 1_555 1_555
Cl1 C4 1_555 1_555
S1 O1 1_555 1_555
O2 Mn1 1_555 1_555
O3 S1 1_555 1_555
O4 Mn1 1_555 1_555
C1 S1 1_555 1_555
C2 C1 1_555 1_555
C3 C2 1_555 1_555
C4 C3 1_555 1_555
C5 C4 1_555 1_555
C6 C1 1_555 1_555
H1 C2 1_555 1_555
H2 C3 1_555 1_555
H3 C5 1_555 1_555
H4 C6 1_555 1_555
H5 O4 1_555 1_555
H6 O4 1_555 1_555
O1B Mn1 1_555 1_555
O2B Mn1 1_555 1_555
O4B Mn1 1_555 1_555
O2_2 S1 1_555 1_555
S1_2 O2 1_555 1_555
S1B O1B 1_555 1_555
S1B_2 O2B 1_555 1_555
H5B O4B 1_555 1_555
H6B O4B 1_555 1_555
O2B_2 S1B 1_555 1_555
O3B S1B 1_555 1_555
C1B S1B 1_555 1_555
C2B C1B 1_555 1_555
C6B C1B 1_555 1_555
C3B C2B 1_555 1_555
H1B C2B 1_555 1_555
C5B C6B 1_555 1_555
H4B C6B 1_555 1_555
C4B C3B 1_555 1_555
H2B C3B 1_555 1_555
H3B C5B 1_555 1_555
Cl1B C4B 1_555 1_555
C5 C6 1_555 1_555
C5B C4B 1_555 1_555

#END
