
#######################################################################
#
#                 Cambridge Crystallographic Data Centre
#                                CCDC 
#
#######################################################################
#
# If this CIF has been generated from an entry in the Cambridge 
# Structural Database, then it will include bibliographic, chemical, 
# crystal, experimental, refinement or atomic coordinate data resulting 
# from the CCDC's data processing and validation procedures.
#
#######################################################################

data_SIZCOU
_symmetry_cell_setting           monoclinic
_symmetry_space_group_name_H-M   'C 2/c'
_symmetry_Int_Tables_number      15
_space_group_name_Hall           '-C 2yn'
loop_
_symmetry_equiv_pos_site_id
_symmetry_equiv_pos_as_xyz
1 x,y,z
2 -x,y,1/2-z
3 1/2+x,1/2+y,z
4 1/2-x,1/2+y,1/2-z
5 -x,-y,-z
6 x,-y,1/2+z
7 1/2-x,1/2-y,-z
8 1/2+x,1/2-y,1/2+z
_cell_length_a                   15.3470(8)
_cell_length_b                   13.5462(7)
_cell_length_c                   15.4401(8)
_cell_angle_alpha                90
_cell_angle_beta                 94.0440(10)
_cell_angle_gamma                90
_cell_volume                     3201.9
loop_
_atom_site_label
_atom_site_type_symbol
_atom_site_fract_x
_atom_site_fract_y
_atom_site_fract_z
Cd1 Cd 0.5000 0.525414(12) 0.2500
O1 O 0.38492(8) 0.40243(11) 0.26131(8)
O2 O 0.42115(7) 0.44797(9) 0.13272(8)
O3 O 0.14143(10) 0.14841(12) 0.26818(9)
O4 O 0.05427(8) 0.12657(10) 0.15139(9)
C1 C 0.37031(10) 0.40422(12) 0.18012(11)
C2 C 0.28947(10) 0.35694(12) 0.13930(11)
C3 C 0.24231(11) 0.28852(13) 0.18410(11)
H5 H 0.2616 0.2703 0.2403
C4 C 0.16628(10) 0.24709(13) 0.14528(11)
C5 C 0.11797(11) 0.16925(13) 0.19241(11)
C6 C 0.13633(11) 0.27752(13) 0.06270(12)
H6 H 0.0847 0.2514 0.0371
C7 C 0.18247(12) 0.34639(14) 0.01813(12)
H7 H 0.1615 0.3670 -0.0369
C8 C 0.25971(12) 0.38455(13) 0.05554(12)
H8 H 0.2919 0.4288 0.0247
Cd1B Cd 0.0000 0.025414(12) 0.2500
Cd1B_2 Cd 1.0000 0.025414(12) 0.2500
O1A O 0.61508(8) 0.40243(11) 0.23869(8)
O2A O 0.57885(7) 0.44797(9) 0.36728(8)
O3A O 0.85857(10) 0.14841(12) 0.23182(9)
O4A O 0.94573(8) 0.12657(10) 0.34861(9)
O4B O 0.55427(8) 0.62657(10) 0.15139(9)
O4C O 0.44573(8) 0.62657(10) 0.34861(9)
C1A C 0.62969(10) 0.40422(12) 0.31988(11)
C2A C 0.71053(10) 0.35694(12) 0.36070(11)
C3A C 0.75769(11) 0.28852(13) 0.31590(11)
H5A H 0.7384 0.2703 0.2597
C4A C 0.83372(10) 0.24709(13) 0.35472(11)
C5A C 0.88203(11) 0.16925(13) 0.30759(11)
C6A C 0.86367(11) 0.27752(13) 0.43730(12)
H6A H 0.9153 0.2514 0.4629
C7A C 0.81753(12) 0.34639(14) 0.48187(12)
H7A H 0.8385 0.3670 0.5369
C8A C 0.74029(12) 0.38455(13) 0.44446(12)
H8A H 0.7081 0.4288 0.4753
N1 N 0.17887(10) 0.13417(11) 0.44448(9)
H1 H 0.1585 0.1449 0.3920
N2 N 0.18523(10) 0.10796(12) 0.58417(9)
H2 H 0.1695 0.0989 0.6359
N3 N 0.04516(10) 0.11848(12) 0.51050(10)
H3 H 0.0192 0.1091 0.5574
H4 H 0.0150 0.1268 0.4620
C9 C 0.26669(12) 0.12855(13) 0.47231(12)
C10 C 0.27095(12) 0.11246(14) 0.56102(12)
C11 C 0.34966(14) 0.10179(18) 0.60903(16)
H9 H 0.3524 0.0921 0.6688
C12 C 0.42422(15) 0.1062(2) 0.5641(2)
H10 H 0.4784 0.0986 0.5943
C13 C 0.42039(15) 0.1217(2) 0.4762(2)
H11 H 0.4721 0.1245 0.4484
C14 C 0.34163(14) 0.13343(16) 0.42743(16)
H12 H 0.3393 0.1440 0.3678
C15 C 0.13096(11) 0.11999(12) 0.51303(11)
loop_
_geom_bond_atom_site_label_1
_geom_bond_atom_site_label_2
_geom_bond_site_symmetry_1
_geom_bond_site_symmetry_2
Cd1 O1 1_555 1_555
O1 C1 1_555 1_555
O2 Cd1 1_555 1_555
O3 C5 1_555 1_555
O4 C5 1_555 1_555
N1 H1 1_555 1_555
N2 H2 1_555 1_555
N3 H3 1_555 1_555
H4 N3 1_555 1_555
C1 O2 1_555 1_555
C2 C1 1_555 1_555
C3 C2 1_555 1_555
H5 C3 1_555 1_555
C4 C3 1_555 1_555
C5 C4 1_555 1_555
C6 C4 1_555 1_555
H6 C6 1_555 1_555
C7 C6 1_555 1_555
H7 C7 1_555 1_555
C8 C2 1_555 1_555
H8 C8 1_555 1_555
C9 N1 1_555 1_555
C10 N2 1_555 1_555
C11 C10 1_555 1_555
H9 C11 1_555 1_555
C12 C11 1_555 1_555
H10 C12 1_555 1_555
C13 C12 1_555 1_555
H11 C13 1_555 1_555
C14 C9 1_555 1_555
H12 C14 1_555 1_555
C15 N1 1_555 1_555
Cd1B O4 1_555 1_555
Cd1B_2 O4A 1_555 1_555
O1A Cd1 1_555 1_555
O2A Cd1 1_555 1_555
O3A C5A 1_555 1_555
O4A C5A 1_555 1_555
O4B Cd1 1_555 1_555
O4C Cd1 1_555 1_555
C1A O1A 1_555 1_555
C2A C1A 1_555 1_555
C3A C2A 1_555 1_555
H5A C3A 1_555 1_555
C4A C3A 1_555 1_555
C5A C4A 1_555 1_555
C6A C4A 1_555 1_555
H6A C6A 1_555 1_555
C7A C6A 1_555 1_555
H7A C7A 1_555 1_555
C8A C2A 1_555 1_555
H8A C8A 1_555 1_555
N2 C15 1_555 1_555
N3 C15 1_555 1_555
C7 C8 1_555 1_555
C9 C10 1_555 1_555
C13 C14 1_555 1_555
O2A C1A 1_555 1_555
C7A C8A 1_555 1_555

#END
