
#######################################################################
#
#                 Cambridge Crystallographic Data Centre
#                                CCDC 
#
#######################################################################
#
# If this CIF has been generated from an entry in the Cambridge 
# Structural Database, then it will include bibliographic, chemical, 
# crystal, experimental, refinement or atomic coordinate data resulting 
# from the CCDC's data processing and validation procedures.
#
#######################################################################

data_SIZDIP
_symmetry_cell_setting           monoclinic
_symmetry_space_group_name_H-M   'P 21/c'
_symmetry_Int_Tables_number      14
_space_group_name_Hall           '-P 2ybc'
loop_
_symmetry_equiv_pos_site_id
_symmetry_equiv_pos_as_xyz
1 x,y,z
2 -x,1/2+y,1/2-z
3 -x,-y,-z
4 x,1/2-y,1/2+z
_cell_length_a                   12.8353(14)
_cell_length_b                   15.2394(13)
_cell_length_c                   13.7512(16)
_cell_angle_alpha                90
_cell_angle_beta                 105.594(9)
_cell_angle_gamma                90
_cell_volume                     2590.76
loop_
_atom_site_label
_atom_site_type_symbol
_atom_site_fract_x
_atom_site_fract_y
_atom_site_fract_z
Eu1 Eu 0.28293(3) 0.183324(19) 0.30902(2)
Pt1 Pt 0.35943(2) 0.512842(14) 0.487981(18)
C1 C 0.3524(6) 0.3986(4) 0.4189(5)
C2 C 0.3310(6) 0.0482(4) 0.1065(5)
C3 C 0.3598(6) 0.6293(4) 0.5550(5)
C4 C 0.3877(6) 0.5738(4) 0.3696(5)
C5 C 0.4703(7) 0.1885(5) 0.5423(6)
H1 H 0.4819 0.2427 0.5159
C6 C 0.5274(7) 0.1691(5) 0.6392(6)
H2 H 0.5779 0.2082 0.6770
C7 C 0.5080(8) 0.0901(6) 0.6790(6)
H3 H 0.5436 0.0757 0.7453
C8 C 0.4360(8) 0.0331(5) 0.6203(6)
H4 H 0.4225 -0.0208 0.6462
C9 C 0.3830(7) 0.0559(5) 0.5215(5)
C10 C 0.3052(6) -0.0035(4) 0.4546(6)
C11 C 0.2959(7) -0.0917(5) 0.4816(7)
H5 H 0.3399 -0.1149 0.5412
C12 C 0.2200(9) -0.1417(5) 0.4170(8)
H6 H 0.2139 -0.2008 0.4315
C13 C 0.1527(9) -0.1072(5) 0.3316(8)
H7 H 0.1010 -0.1421 0.2884
C14 C 0.1627(7) -0.0183(4) 0.3099(6)
C15 C 0.0862(6) 0.0249(4) 0.2237(6)
C16 C -0.0009(8) -0.0168(5) 0.1628(7)
H8 H -0.0129 -0.0757 0.1738
C17 C -0.0715(8) 0.0275(6) 0.0848(7)
H9 H -0.1284 -0.0019 0.0407
C18 C -0.0564(7) 0.1157(6) 0.0735(7)
H10 H -0.1049 0.1487 0.0247
C19 C 0.0340(6) 0.1532(5) 0.1379(6)
H11 H 0.0463 0.2125 0.1293
N1 N 0.3442(5) 0.3307(4) 0.3818(5)
N2 N 0.3154(5) 0.0840(3) 0.1747(4)
N3 N 0.3596(6) 0.6965(4) 0.5890(5)
N4 N 0.4050(6) 0.6106(4) 0.3042(5)
N5 N 0.1126(6) 0.2577(4) 0.3925(5)
N6 N 0.3994(5) 0.1343(4) 0.4840(4)
N7 N 0.2412(5) 0.0305(3) 0.3700(4)
N8 N 0.1045(5) 0.1114(4) 0.2107(5)
O1 O 0.1172(5) 0.2797(3) 0.3062(4)
O2 O 0.1861(5) 0.2052(3) 0.4410(4)
O3 O 0.0404(6) 0.2828(5) 0.4280(6)
O4 O 0.4676(5) 0.1928(4) 0.3053(5)
O5 O 0.2448(5) 0.2775(4) 0.1620(4)
H15 H 0.505(7) 0.174(5) 0.259(6)
H16 H 0.237(6) 0.263(5) 0.112(6)
H17 H 0.200(8) 0.328(7) 0.162(7)
H18 H 0.494(8) 0.224(6) 0.328(7)
Pt1C Pt 0.35943(2) -0.012842(14) -0.012019(18)
C2C C 0.3310(6) 0.4518(4) 0.6065(5)
N9 N 0.1624(12) 0.4499(8) 0.1473(10)
C20 C 0.1420(14) 0.5211(10) 0.1473(12)
C21 C 0.1230(17) 0.6141(10) 0.1562(15)
H12 H 0.0672 0.6333 0.0986
H13 H 0.1884 0.6459 0.1594
H14 H 0.1009 0.6247 0.2165
loop_
_geom_bond_atom_site_label_1
_geom_bond_atom_site_label_2
_geom_bond_site_symmetry_1
_geom_bond_site_symmetry_2
Eu1 N1 1_555 1_555
Pt1 C1 1_555 1_555
C1 N1 1_555 1_555
C2 N2 1_555 1_555
C3 Pt1 1_555 1_555
C4 Pt1 1_555 1_555
C5 H1 1_555 1_555
C6 C5 1_555 1_555
H2 C6 1_555 1_555
C7 C6 1_555 1_555
H3 C7 1_555 1_555
C8 C7 1_555 1_555
H4 C8 1_555 1_555
C9 C8 1_555 1_555
C10 C9 1_555 1_555
C11 C10 1_555 1_555
H5 C11 1_555 1_555
C12 C11 1_555 1_555
H6 C12 1_555 1_555
C13 C12 1_555 1_555
H7 C13 1_555 1_555
C14 C13 1_555 1_555
C15 C14 1_555 1_555
C16 C15 1_555 1_555
H8 C16 1_555 1_555
C17 C16 1_555 1_555
H9 C17 1_555 1_555
C18 C17 1_555 1_555
H10 C18 1_555 1_555
C19 C18 1_555 1_555
H11 C19 1_555 1_555
N2 Eu1 1_555 1_555
N3 C3 1_555 1_555
N4 C4 1_555 1_555
N5 O1 1_555 1_555
N6 Eu1 1_555 1_555
N7 Eu1 1_555 1_555
N8 Eu1 1_555 1_555
O1 Eu1 1_555 1_555
O2 Eu1 1_555 1_555
O3 N5 1_555 1_555
O4 Eu1 1_555 1_555
O5 Eu1 1_555 1_555
N9 C20 1_555 1_555
C20 C21 1_555 1_555
C21 H12 1_555 1_555
H13 C21 1_555 1_555
H14 C21 1_555 1_555
H15 O4 1_555 1_555
H16 O5 1_555 1_555
H17 O5 1_555 1_555
H18 O4 1_555 1_555
Pt1C C2 1_555 1_555
C2C Pt1 1_555 1_555
C5 N6 1_555 1_555
C9 N6 1_555 1_555
C10 N7 1_555 1_555
C14 N7 1_555 1_555
C15 N8 1_555 1_555
C19 N8 1_555 1_555
N5 O2 1_555 1_555

#END
