
#######################################################################
#
#                 Cambridge Crystallographic Data Centre
#                                CCDC 
#
#######################################################################
#
# If this CIF has been generated from an entry in the Cambridge 
# Structural Database, then it will include bibliographic, chemical, 
# crystal, experimental, refinement or atomic coordinate data resulting 
# from the CCDC's data processing and validation procedures.
#
#######################################################################

data_SIZDUC
_symmetry_cell_setting           orthorhombic
_symmetry_space_group_name_H-M   'P 21 21 21'
_symmetry_Int_Tables_number      19
_space_group_name_Hall           'P 2ac 2ab'
loop_
_symmetry_equiv_pos_site_id
_symmetry_equiv_pos_as_xyz
1 x,y,z
2 1/2-x,-y,1/2+z
3 1/2+x,1/2-y,-z
4 -x,1/2+y,1/2-z
_cell_length_a                   16.9205(14)
_cell_length_b                   20.1161(17)
_cell_length_c                   24.183(2)
_cell_angle_alpha                90
_cell_angle_beta                 90
_cell_angle_gamma                90
_cell_volume                     8231.28
loop_
_atom_site_label
_atom_site_type_symbol
_atom_site_fract_x
_atom_site_fract_y
_atom_site_fract_z
Cl2 Cl 0.35181(18) 0.35012(18) 0.33260(13)
Cl3 Cl 0.5337(4) 0.1035(4) 0.3490(2)
Cl4 Cl 0.0069(4) -0.0895(4) -0.0211(3)
Cl5 Cl 0.2084(7) 0.2252(4) 0.0712(4)
Cl6 Cl 0.1734(7) -0.2479(4) 0.6241(3)
O1 O 0.0634(3) -0.0839(3) 0.3759(2)
O2 O 0.2030(5) -0.1886(4) 0.4158(3)
O3 O 0.0445(5) -0.1850(3) 0.4765(3)
O4 O 0.1240(4) -0.1137(3) 0.5703(2)
O5 O 0.2836(4) -0.1053(4) 0.5142(3)
O6 O -0.0479(3) 0.1655(3) 0.2955(2)
O7 O 0.0663(3) 0.0612(3) 0.2608(2)
O8 O -0.1152(4) 0.2264(3) 0.1758(3)
O9 O 0.0562(5) 0.2309(3) 0.1099(2)
Sr1 Sr 0.14709(5) -0.08826(3) 0.46841(3)
Sr2 Sr 0.0181(3) 0.1685(2) 0.2043(2)
C1 C 0.2642(4) 0.0137(3) 0.3628(3)
C2 C 0.3020(3) 0.0742(3) 0.2851(2)
H1 H 0.3568 0.0688 0.2716
C3 C 0.2978(3) 0.1217(3) 0.3348(2)
H2 H 0.3470 0.1476 0.3400
C4 C 0.2091(3) 0.1570(3) 0.2665(3)
C5 C 0.2941(3) 0.0927(3) 0.4380(2)
H3 H 0.3076 0.0522 0.4584
H4 H 0.3391 0.1232 0.4410
C6 C 0.2078(4) 0.2212(3) 0.3538(2)
H5 H 0.2558 0.2452 0.3645
H6 H 0.1759 0.2511 0.3309
C7 C 0.1751(3) 0.0845(3) 0.4945(2)
C8 C 0.2000(3) 0.1892(3) 0.4577(2)
C9 C 0.1238(3) 0.1930(3) 0.4981(2)
C10 C 0.0863(4) 0.2193(2) 0.4067(2)
C11 C 0.0533(3) 0.0940(3) 0.5461(2)
H7 H 0.0717 0.0517 0.5615
H8 H 0.0408 0.1235 0.5772
C12 C -0.0169(3) 0.2336(3) 0.4759(2)
H9 H -0.0335 0.2705 0.4521
H10 H -0.0160 0.2497 0.5141
C13 C -0.0350(4) 0.0214(3) 0.4929(2)
C14 C -0.0831(3) 0.1263(3) 0.5115(2)
H11 H -0.0966 0.1446 0.5484
C15 C -0.1516(3) 0.0848(3) 0.4884(2)
H12 H -0.1936 0.0773 0.5162
C16 C -0.1348(3) 0.1785(3) 0.4325(2)
C17 C -0.1541(4) -0.0377(3) 0.4628(3)
H13 H -0.1206 -0.0759 0.4721
H14 H -0.2002 -0.0389 0.4874
C18 C -0.2528(3) 0.1086(3) 0.4132(2)
H15 H -0.2702 0.1491 0.3943
H16 H -0.2933 0.0969 0.4405
C19 C -0.1539(3) -0.0945(3) 0.3744(2)
C20 C -0.2539(3) -0.0152(3) 0.3838(2)
C21 C -0.2552(3) -0.0452(3) 0.3238(2)
C22 C -0.2236(4) 0.0687(3) 0.3191(3)
C23 C -0.1892(3) -0.1523(3) 0.2869(2)
H17 H -0.1743 -0.1936 0.3057
H18 H -0.2397 -0.1603 0.2681
C24 C -0.2129(4) 0.0097(3) 0.2317(3)
H19 H -0.2583 -0.0127 0.2148
H20 H -0.2126 0.0557 0.2182
C25 C -0.0553(3) -0.1644(3) 0.2463(3)
C26 C -0.1415(3) -0.0928(3) 0.1997(3)
H21 H -0.1889 -0.1052 0.1780
C27 C -0.0645(3) -0.1018(3) 0.1648(2)
H22 H -0.0741 -0.1256 0.1297
C28 C -0.0860(4) 0.0112(3) 0.1846(2)
C29 C 0.0618(3) -0.1631(3) 0.1857(3)
H23 H 0.0590 -0.1777 0.1471
H24 H 0.0763 -0.2017 0.2083
C30 C 0.0196(4) -0.0173(3) 0.1142(2)
H25 H 0.0184 -0.0510 0.0849
H26 H 0.0056 0.0255 0.0974
C31 C 0.1605(3) -0.1035(3) 0.2393(2)
C32 C 0.1527(3) -0.0698(3) 0.1466(2)
C33 C 0.2251(3) -0.0346(3) 0.1759(2)
C34 C 0.1323(3) 0.0467(3) 0.1480(2)
C35 C 0.2781(4) -0.0502(3) 0.2743(3)
H27 H 0.3304 -0.0516 0.2569
H28 H 0.2744 -0.0878 0.2998
C36 C 0.2560(4) 0.0918(3) 0.1855(2)
H29 H 0.3109 0.0815 0.1758
H30 H 0.2405 0.1317 0.1648
C37 C 0.2643(3) 0.2401(3) 0.4716(3)
H31 H 0.2434 0.2847 0.4670
H32 H 0.3091 0.2338 0.4471
H33 H 0.2811 0.2340 0.5096
C38 C 0.1311(4) 0.2386(3) 0.5482(2)
H34 H 0.1355 0.2843 0.5358
H35 H 0.1778 0.2267 0.5692
H36 H 0.0846 0.2338 0.5713
C39 C -0.3238(4) -0.0317(3) 0.4206(3)
H37 H -0.3258 -0.0793 0.4267
H38 H -0.3722 -0.0173 0.4028
H39 H -0.3180 -0.0090 0.4558
C40 C -0.3378(4) -0.0653(4) 0.3034(3)
H40 H -0.3713 -0.0262 0.3014
H41 H -0.3607 -0.0972 0.3288
H42 H -0.3335 -0.0852 0.2669
C41 C 0.1687(4) -0.1066(3) 0.0941(3)
H43 H 0.1882 -0.0759 0.0664
H44 H 0.1202 -0.1271 0.0811
H45 H 0.2080 -0.1408 0.1008
C42 C 0.3051(4) -0.0521(3) 0.1496(3)
H46 H 0.3065 -0.0356 0.1119
H47 H 0.3119 -0.1000 0.1494
H48 H 0.3473 -0.0318 0.1708
N1 N 0.2701(3) 0.0124(2) 0.3057(2)
N2 N 0.2823(3) 0.0760(2) 0.38039(19)
N3 N 0.2517(3) 0.1060(2) 0.24385(19)
N4 N 0.2299(3) 0.1635(2) 0.32102(19)
N5 N 0.2261(3) 0.1231(2) 0.4637(2)
N6 N 0.1170(3) 0.1235(2) 0.5142(2)
N7 N 0.1634(3) 0.2049(2) 0.40349(19)
N8 N 0.0609(3) 0.2136(2) 0.4605(2)
N9 N -0.0178(3) 0.0822(2) 0.51507(19)
N10 N -0.1101(3) 0.0229(2) 0.4735(2)
N11 N -0.0754(3) 0.1788(2) 0.4712(2)
N12 N -0.1791(3) 0.1224(2) 0.4420(2)
N13 N -0.1807(3) -0.0447(2) 0.4065(2)
N14 N -0.2013(3) -0.1006(2) 0.3288(2)
N15 N -0.2466(3) 0.0552(2) 0.37298(18)
N16 N -0.2240(3) 0.0107(2) 0.2908(2)
N17 N -0.1302(3) -0.1374(2) 0.2457(2)
N18 N -0.0153(3) -0.1395(2) 0.20282(19)
N19 N -0.1419(3) -0.0225(2) 0.2130(2)
N20 N -0.0402(3) -0.0344(2) 0.1565(2)
N21 N 0.1228(3) -0.1128(2) 0.19094(19)
N22 N 0.2185(3) -0.0570(2) 0.2322(2)
N23 N 0.0983(3) -0.0132(2) 0.13589(19)
N24 N 0.2059(3) 0.0367(2) 0.16864(19)
O10 O 0.2429(3) -0.0330(2) 0.39206(19)
O11 O 0.1835(3) 0.0248(2) 0.50309(18)
O12 O 0.0090(3) -0.0262(2) 0.49183(18)
O13 O -0.0960(2) -0.1310(2) 0.38499(19)
O14 O -0.0300(2) -0.20483(18) 0.27927(16)
O15 O 0.1464(3) -0.1326(2) 0.28219(17)
O16 O 0.1614(2) 0.19099(19) 0.24247(17)
O17 O 0.0441(2) 0.2382(2) 0.36829(17)
O18 O -0.1457(2) 0.2209(2) 0.39743(16)
O19 O -0.2059(3) 0.1236(2) 0.30250(18)
O20 O -0.0771(3) 0.07198(19) 0.18207(17)
O21 O 0.1026(2) 0.10101(19) 0.14078(17)
Sr2C Sr -0.0181(3) -0.3315(2) 0.2957(2)
O14C O 0.0300(2) 0.29517(18) 0.22073(16)
Cl1 Cl -0.14285(15) -0.10854(12) 0.03934(10)
Sr3? Sr 0.0186(6) 0.1745(10) 0.1949(13)
loop_
_geom_bond_atom_site_label_1
_geom_bond_atom_site_label_2
_geom_bond_site_symmetry_1
_geom_bond_site_symmetry_2
O1 Sr1 1_555 1_555
O2 Sr1 1_555 1_555
O3 Sr1 1_555 1_555
O4 Sr1 1_555 1_555
O5 Sr1 1_555 1_555
O6 Sr2 1_555 1_555
O7 Sr2 1_555 1_555
O8 Sr2 1_555 1_555
O9 Sr2 1_555 1_555
Sr1 O10 1_555 1_555
Sr2 O16 1_555 1_555
C1 N1 1_555 1_555
C2 H1 1_555 1_555
C3 C2 1_555 1_555
H2 C3 1_555 1_555
C4 N3 1_555 1_555
C5 H3 1_555 1_555
H4 C5 1_555 1_555
C6 H5 1_555 1_555
H6 C6 1_555 1_555
C7 N5 1_555 1_555
C8 C9 1_555 1_555
C9 C38 1_555 1_555
C10 N7 1_555 1_555
C11 H7 1_555 1_555
H8 C11 1_555 1_555
C12 H9 1_555 1_555
H10 C12 1_555 1_555
C13 N9 1_555 1_555
C14 H11 1_555 1_555
C15 C14 1_555 1_555
H12 C15 1_555 1_555
C16 N11 1_555 1_555
C17 H13 1_555 1_555
H14 C17 1_555 1_555
C18 H15 1_555 1_555
H16 C18 1_555 1_555
C19 N13 1_555 1_555
C20 C21 1_555 1_555
C21 C40 1_555 1_555
C22 N15 1_555 1_555
C23 H17 1_555 1_555
H18 C23 1_555 1_555
C24 H19 1_555 1_555
H20 C24 1_555 1_555
C25 N17 1_555 1_555
C26 H21 1_555 1_555
C27 C26 1_555 1_555
H22 C27 1_555 1_555
C28 N19 1_555 1_555
C29 H23 1_555 1_555
H24 C29 1_555 1_555
C30 H25 1_555 1_555
H26 C30 1_555 1_555
C31 N21 1_555 1_555
C32 C33 1_555 1_555
C33 C42 1_555 1_555
C34 N23 1_555 1_555
C35 H27 1_555 1_555
H28 C35 1_555 1_555
C36 H29 1_555 1_555
H30 C36 1_555 1_555
C37 C8 1_555 1_555
H31 C37 1_555 1_555
H32 C37 1_555 1_555
H33 C37 1_555 1_555
C38 H34 1_555 1_555
H35 C38 1_555 1_555
H36 C38 1_555 1_555
C39 C20 1_555 1_555
H37 C39 1_555 1_555
H38 C39 1_555 1_555
H39 C39 1_555 1_555
C40 H40 1_555 1_555
H41 C40 1_555 1_555
H42 C40 1_555 1_555
C41 C32 1_555 1_555
H43 C41 1_555 1_555
H44 C41 1_555 1_555
H45 C41 1_555 1_555
C42 H46 1_555 1_555
H47 C42 1_555 1_555
H48 C42 1_555 1_555
N1 C2 1_555 1_555
N2 C1 1_555 1_555
N3 C2 1_555 1_555
N4 C3 1_555 1_555
N5 C5 1_555 1_555
N6 C7 1_555 1_555
N7 C6 1_555 1_555
N8 C9 1_555 1_555
N9 C11 1_555 1_555
N10 C13 1_555 1_555
N11 C12 1_555 1_555
N12 C15 1_555 1_555
N13 C17 1_555 1_555
N14 C19 1_555 1_555
N15 C18 1_555 1_555
N16 C21 1_555 1_555
N17 C23 1_555 1_555
N18 C25 1_555 1_555
N19 C24 1_555 1_555
N20 C27 1_555 1_555
N21 C29 1_555 1_555
N22 C31 1_555 1_555
N23 C30 1_555 1_555
N24 C33 1_555 1_555
O10 C1 1_555 1_555
O11 Sr1 1_555 1_555
O12 Sr1 1_555 1_555
O13 C19 1_555 1_555
O14 C25 1_555 1_555
O15 C31 1_555 1_555
O16 C4 1_555 1_555
O17 C10 1_555 1_555
O18 C16 1_555 1_555
O19 C22 1_555 1_555
O20 Sr2 1_555 1_555
O21 Sr2 1_555 1_555
Sr2C O14 1_555 1_555
O14C Sr2 1_555 1_555
C3 N2 1_555 1_555
C4 N4 1_555 1_555
C5 N2 1_555 1_555
C6 N4 1_555 1_555
C7 O11 1_555 1_555
C8 N5 1_555 1_555
C8 N7 1_555 1_555
C9 N6 1_555 1_555
C10 N8 1_555 1_555
C11 N6 1_555 1_555
C12 N8 1_555 1_555
C13 O12 1_555 1_555
C14 N9 1_555 1_555
C14 N11 1_555 1_555
C15 N10 1_555 1_555
C16 N12 1_555 1_555
C17 N10 1_555 1_555
C18 N12 1_555 1_555
C20 N13 1_555 1_555
C20 N15 1_555 1_555
C21 N14 1_555 1_555
C22 N16 1_555 1_555
C23 N14 1_555 1_555
C24 N16 1_555 1_555
C26 N17 1_555 1_555
C26 N19 1_555 1_555
C27 N18 1_555 1_555
C28 N20 1_555 1_555
C28 O20 1_555 1_555
C29 N18 1_555 1_555
C30 N20 1_555 1_555
C32 N21 1_555 1_555
C32 N23 1_555 1_555
C33 N22 1_555 1_555
C34 N24 1_555 1_555
C34 O21 1_555 1_555
C35 N1 1_555 1_555
C35 N22 1_555 1_555
C36 N3 1_555 1_555
C36 N24 1_555 1_555

#END
