
#######################################################################
#
#                 Cambridge Crystallographic Data Centre
#                                CCDC 
#
#######################################################################
#
# If this CIF has been generated from an entry in the Cambridge 
# Structural Database, then it will include bibliographic, chemical, 
# crystal, experimental, refinement or atomic coordinate data resulting 
# from the CCDC's data processing and validation procedures.
#
#######################################################################

data_SIZFIS
_symmetry_cell_setting           triclinic
_symmetry_space_group_name_H-M   'P -1'
_symmetry_Int_Tables_number      2
_space_group_name_Hall           '-P 1'
loop_
_symmetry_equiv_pos_site_id
_symmetry_equiv_pos_as_xyz
1 x,y,z
2 -x,-y,-z
_cell_length_a                   14.4853(10)
_cell_length_b                   14.8138(10)
_cell_length_c                   28.601(2)
_cell_angle_alpha                96.694(3)
_cell_angle_beta                 95.132(3)
_cell_angle_gamma                117.925(2)
_cell_volume                     5312.64
loop_
_atom_site_label
_atom_site_type_symbol
_atom_site_fract_x
_atom_site_fract_y
_atom_site_fract_z
Cl2 Cl -0.0366(5) 1.3318(4) 0.33998(18)
Cl3 Cl 0.1526(7) 0.5902(5) 0.2510(3)
Cl4 Cl 0.1742(7) 1.4344(6) 0.3634(3)
Cl5 Cl 0.5802(7) 1.1299(8) 0.4621(3)
Cl6 Cl -0.4524(5) 0.4679(6) 0.3014(3)
Cl7 Cl -0.5421(7) 0.5265(5) 0.4510(4)
Cl9 Cl 0.4284(7) 1.3697(6) 0.3709(3)
Cl10 Cl 0.5894(5) 1.3742(5) 0.2231(4)
O1 O -0.0781(3) 0.9400(3) 0.02990(12)
O2 O -0.3214(4) 1.0811(4) 0.31964(16)
O3 O -0.4316(4) 0.8390(4) 0.28770(16)
O4 O -0.0706(3) 0.9701(3) 0.26818(11)
O5 O -0.0847(3) 1.1288(3) 0.34157(12)
O6 O 0.0389(3) 1.1255(3) 0.43499(13)
O7 O 0.2167(4) 1.2755(3) 0.38388(13)
N1 N 0.0137(6) 0.9933(6) 0.1484(2)
O8 O 0.0680(3) 0.9662(3) 0.12482(13)
O9 O 0.0393(7) 1.0158(7) 0.1928(2)
O10 O -0.0647(8) 0.9953(11) 0.1277(3)
O11 O -0.1971(6) 0.9744(6) 0.1790(3)
Sr1 Sr 0.11061(4) 0.96356(4) 0.037404(16)
Sr2 Sr -0.24468(4) 0.98046(4) 0.272879(17)
Sr3 Sr 0.07551(4) 1.08294(4) 0.347874(16)
C1 C 0.2213(4) 1.2012(4) 0.12245(18)
C2 C 0.2280(4) 1.3150(4) 0.18895(16)
H1 H 0.2633 1.3916 0.1926
C3 C 0.3081(4) 1.2755(4) 0.20188(16)
H2 H 0.3820 1.3330 0.2102
C4 C 0.1811(4) 1.2272(4) 0.25280(17)
C5 C 0.3627(4) 1.1624(4) 0.15138(18)
H3 H 0.4333 1.2126 0.1690
H4 H 0.3680 1.1554 0.1174
C6 C 0.3232(4) 1.1804(4) 0.26854(17)
H5 H 0.3065 1.1805 0.3010
H6 H 0.3999 1.2244 0.2710
C7 C 0.2755(4) 0.9721(4) 0.13322(18)
C8 C 0.3508(4) 1.0455(4) 0.21454(17)
C9 C 0.2897(4) 0.9220(4) 0.20772(17)
C10 C 0.2127(4) 0.9925(4) 0.26007(17)
C11 C 0.1849(4) 0.7851(4) 0.13028(18)
H7 H 0.2087 0.7398 0.1434
H8 H 0.1951 0.7835 0.0968
C12 C 0.1318(4) 0.8030(4) 0.24679(17)
H9 H 0.1670 0.7605 0.2476
H10 H 0.1145 0.8135 0.2786
C13 C 0.0013(5) 0.7343(4) 0.09505(17)
C14 C 0.0229(4) 0.6841(4) 0.16794(16)
H11 H 0.0439 0.6304 0.1718
C15 C -0.0979(4) 0.6355(4) 0.14848(17)
H12 H -0.1343 0.5587 0.1430
C16 C -0.0579(4) 0.7399(4) 0.22327(18)
C17 C -0.1917(4) 0.6317(4) 0.06796(18)
H13 H -0.2295 0.5562 0.0661
H14 H -0.1694 0.6454 0.0370
C18 C -0.2460(4) 0.6410(4) 0.18825(18)
H15 H -0.2527 0.6585 0.2215
H16 H -0.2832 0.5651 0.1794
C19 C -0.2895(5) 0.7208(4) 0.04429(19)
C20 C -0.3411(4) 0.6352(4) 0.10855(17)
H17 H -0.3802 0.5584 0.1038
C21 C -0.4154(4) 0.6800(4) 0.09553(18)
H18 H -0.4900 0.6249 0.0858
C22 C -0.3337(4) 0.7473(4) 0.17537(19)
C23 C -0.4240(4) 0.7766(4) 0.02863(18)
H19 H -0.5008 0.7310 0.0240
H20 H -0.4024 0.7792 -0.0029
C24 C -0.4762(4) 0.7870(4) 0.14612(19)
H21 H -0.4820 0.7939 0.1801
H22 H -0.5460 0.7352 0.1283
C25 C -0.3252(4) 0.9675(4) 0.03744(17)
C26 C -0.4637(4) 0.9053(4) 0.08238(17)
C27 C -0.4064(4) 1.0285(4) 0.09025(17)
C28 C -0.3880(4) 0.9754(4) 0.16280(19)
C29 C -0.2514(4) 1.1562(4) 0.05316(17)
H23 H -0.2844 1.2006 0.0568
H24 H -0.2358 1.1528 0.0206
C30 C -0.2993(4) 1.1638(4) 0.16835(17)
H25 H -0.3114 1.1638 0.2015
H26 H -0.3226 1.2093 0.1552
C31 C -0.0608(4) 1.2083(4) 0.07489(17)
C32 C -0.1359(4) 1.2658(4) 0.13264(16)
H27 H -0.1537 1.3221 0.1303
C33 C -0.0162(4) 1.3087(4) 0.15088(17)
H28 H 0.0226 1.3856 0.1577
C34 C -0.1159(4) 1.2068(4) 0.20330(17)
C35 C 0.1298(4) 1.3032(4) 0.10779(16)
H29 H 0.1679 1.3793 0.1149
H30 H 0.1340 1.2815 0.0747
C36 C 0.0772(4) 1.3110(4) 0.23063(16)
H31 H 0.1119 1.3867 0.2332
H32 H 0.0549 1.2947 0.2613
C37 C 0.4661(4) 1.0968(4) 0.23394(19)
H33 H 0.5018 1.0747 0.2119
H34 H 0.4759 1.0776 0.2645
H35 H 0.4956 1.1716 0.2380
C38 C 0.3549(5) 0.8722(4) 0.22361(19)
H36 H 0.3789 0.8936 0.2578
H37 H 0.4157 0.8940 0.2073
H38 H 0.3118 0.7972 0.2160
C39 C -0.5800(4) 0.8480(4) 0.0621(2)
H39 H -0.6187 0.8660 0.0840
H40 H -0.6053 0.7738 0.0576
H41 H -0.5910 0.8673 0.0316
C40 C -0.4786(4) 1.0741(4) 0.07806(19)
H42 H -0.5304 1.0572 0.0995
H43 H -0.5149 1.0451 0.0454
H44 H -0.4366 1.1489 0.0816
C41 C 0.2550(4) 1.0409(4) 0.43062(18)
C42 C 0.3401(5) 1.0134(4) 0.49666(17)
H45 H 0.4155 1.0308 0.5018
C43 C 0.2694(4) 0.9081(4) 0.46253(18)
H46 H 0.3114 0.8761 0.4507
C44 C 0.2150(6) 0.8973(5) 0.5365(2)
C45 C 0.1665(5) 0.8672(4) 0.37952(18)
H47 H 0.1705 0.9097 0.3552
H48 H 0.2046 0.8294 0.3709
C46 C 0.1293(5) 0.7347(4) 0.4772(2)
H49 H 0.1136 0.7044 0.5061
H50 H 0.1691 0.7063 0.4607
C47 C -0.0232(5) 0.8157(4) 0.36577(17)
C48 C 0.0161(5) 0.6915(4) 0.39377(18)
C49 C -0.1071(4) 0.6441(4) 0.37928(18)
C50 C -0.0645(5) 0.6611(4) 0.4623(2)
C51 C -0.2134(5) 0.7220(4) 0.33863(17)
H51 H -0.1933 0.7661 0.3143
H52 H -0.2588 0.6502 0.3221
C52 C -0.2525(5) 0.5869(4) 0.4319(2)
H53 H -0.2633 0.5551 0.4606
H54 H -0.2992 0.5327 0.4047
C53 C -0.2692(4) 0.8451(4) 0.37210(17)
C54 C -0.3403(4) 0.6873(4) 0.39852(18)
H55 H -0.3996 0.6219 0.3798
C55 C -0.3805(5) 0.7549(4) 0.42368(18)
H56 H -0.4586 0.7221 0.4161
C56 C -0.2949(4) 0.7079(4) 0.48057(18)
C57 C 0.3490(5) 1.0621(5) 0.58531(19)
H57 H 0.4253 1.0888 0.5863
H58 H 0.3276 1.0203 0.6104
C58 C 0.3837(4) 1.1971(4) 0.48762(18)
H59 H 0.3813 1.2307 0.4603
H60 H 0.4578 1.2161 0.4981
C59 C 0.0661(5) 0.6301(5) 0.3718(2)
H61 H 0.0553 0.6242 0.3374
H62 H 0.0335 0.5613 0.3799
H63 H 0.1415 0.6656 0.3840
C60 C -0.1618(5) 0.5463(4) 0.3407(2)
H64 H -0.1538 0.4909 0.3522
H65 H -0.1297 0.5607 0.3122
H66 H -0.2365 0.5253 0.3333
N2 N 0.1820(4) 1.2640(3) 0.13942(14)
N3 N 0.2926(3) 1.2034(3) 0.15900(13)
N4 N 0.1529(3) 1.2767(3) 0.22187(13)
N5 N 0.2702(3) 1.2255(3) 0.24253(14)
N6 N 0.3318(3) 1.0627(3) 0.16573(14)
N7 N 0.2507(3) 0.8905(3) 0.15629(13)
N8 N 0.2950(3) 1.0755(3) 0.24723(13)
N9 N 0.2053(3) 0.9031(3) 0.23654(14)
N10 N 0.0724(4) 0.7435(3) 0.13203(14)
N11 N -0.0994(4) 0.6754(3) 0.10382(14)
N12 N 0.0351(4) 0.7469(3) 0.21323(14)
N13 N -0.1367(4) 0.6785(3) 0.18553(14)
N14 N -0.2635(4) 0.6715(3) 0.07642(15)
N15 N -0.3724(4) 0.7327(3) 0.05638(14)
N16 N -0.2981(4) 0.6812(3) 0.15853(14)
N17 N -0.4010(3) 0.7504(3) 0.13854(14)
N18 N -0.3991(3) 0.8821(3) 0.05108(14)
N19 N -0.3264(3) 1.0531(3) 0.05908(14)
N20 N -0.4463(4) 0.8872(3) 0.13111(14)
N21 N -0.3627(3) 1.0592(3) 0.14141(13)
N22 N -0.1520(3) 1.2045(3) 0.08641(14)
N23 N 0.0200(3) 1.2671(3) 0.11225(13)
N24 N -0.1858(3) 1.2060(3) 0.16774(14)
N25 N -0.0157(3) 1.2648(3) 0.19418(14)
N26 N 0.3234(4) 1.0865(3) 0.47243(15)
N27 N 0.2202(4) 0.9351(3) 0.42427(14)
N28 N 0.2946(4) 0.9970(4) 0.54028(15)
N29 N 0.1954(4) 0.8456(4) 0.49105(16)
N30 N 0.0581(4) 0.7933(3) 0.37798(14)
N31 N -0.1182(3) 0.7296(3) 0.36426(14)
N32 N 0.0300(4) 0.7029(4) 0.44631(16)
N33 N -0.1439(4) 0.6226(3) 0.42506(15)
N34 N -0.2738(4) 0.7513(3) 0.36769(14)
N35 N -0.3294(4) 0.8518(3) 0.40472(15)
N36 N -0.2842(4) 0.6671(3) 0.43696(14)
N37 N -0.3463(4) 0.7633(3) 0.47389(14)
O12 O 0.2002(3) 1.1530(3) 0.08167(11)
O13 O 0.2565(3) 0.9657(3) 0.09010(11)
O14 O 0.0243(3) 0.7723(3) 0.05843(12)
O15 O -0.2443(3) 0.7496(3) 0.00981(12)
O16 O -0.2674(3) 0.9670(3) 0.00750(12)
O17 O -0.0514(3) 1.1669(3) 0.03709(11)
O18 O 0.1336(3) 1.1920(3) 0.28573(12)
O19 O 0.1582(3) 0.9980(3) 0.28992(12)
O20 O -0.0708(3) 0.7801(3) 0.26026(12)
O21 O -0.3119(3) 0.7950(3) 0.21666(13)
O22 O -0.3664(3) 0.9803(3) 0.20624(12)
O23 O -0.1381(3) 1.1631(3) 0.23822(12)
O24 O 0.2289(3) 1.0850(3) 0.40231(12)
O25 O -0.0094(3) 0.9000(2) 0.35735(11)
O26 O -0.2202(3) 0.9148(3) 0.34952(12)
O27 O 0.1660(4) 0.8585(3) 0.56923(15)
O28 O -0.0743(4) 0.6575(4) 0.50479(14)
O29 O -0.2634(3) 0.6951(3) 0.51880(13)
C41A C -0.2550(4) 0.9591(4) 0.56938(18)
C42A C -0.3401(5) 0.9866(4) 0.50334(17)
H45A H -0.4155 0.9692 0.4982
C43A C -0.2694(4) 1.0919(4) 0.53747(18)
H46A H -0.3114 1.1239 0.5493
C44A C -0.2150(6) 1.1027(5) 0.4635(2)
C45A C -0.1665(5) 1.1328(4) 0.62048(18)
H47A H -0.1705 1.0903 0.6448
H48A H -0.2046 1.1706 0.6291
C46A C -0.1293(5) 1.2653(4) 0.5228(2)
H49A H -0.1136 1.2956 0.4939
H50A H -0.1691 1.2937 0.5393
C47A C 0.0232(5) 1.1843(4) 0.63423(17)
C48A C -0.0161(5) 1.3085(4) 0.60623(18)
C49A C 0.1071(4) 1.3559(4) 0.62072(18)
C50A C 0.0645(5) 1.3389(4) 0.5377(2)
C51A C 0.2134(5) 1.2780(4) 0.66137(17)
H51A H 0.1933 1.2339 0.6857
H52A H 0.2588 1.3498 0.6779
C52A C 0.2525(5) 1.4131(4) 0.5681(2)
H53A H 0.2633 1.4449 0.5394
H54A H 0.2992 1.4673 0.5953
C53A C 0.2692(4) 1.1549(4) 0.62790(17)
C54A C 0.3403(4) 1.3127(4) 0.60148(18)
H55A H 0.3996 1.3781 0.6202
C55A C 0.3805(5) 1.2451(4) 0.57632(18)
H56A H 0.4586 1.2779 0.5839
C56A C 0.2949(4) 1.2921(4) 0.51943(18)
C57A C -0.3490(5) 0.9379(5) 0.41469(19)
H57A H -0.4253 0.9112 0.4137
H58A H -0.3276 0.9797 0.3896
C58A C -0.3837(4) 0.8029(4) 0.51238(18)
H59A H -0.3813 0.7693 0.5397
H60A H -0.4578 0.7839 0.5019
C59A C -0.0661(5) 1.3699(5) 0.6282(2)
H61A H -0.0553 1.3758 0.6626
H62A H -0.0335 1.4387 0.6201
H63A H -0.1415 1.3344 0.6160
C60A C 0.1618(5) 1.4537(4) 0.6593(2)
H64A H 0.1538 1.5091 0.6478
H65A H 0.1297 1.4393 0.6878
H66A H 0.2365 1.4747 0.6667
N26A N -0.3234(4) 0.9135(3) 0.52757(15)
N27A N -0.2202(4) 1.0649(3) 0.57573(14)
N28A N -0.2946(4) 1.0030(4) 0.45972(15)
N29A N -0.1954(4) 1.1544(4) 0.50895(16)
N30A N -0.0581(4) 1.2067(3) 0.62202(14)
N31A N 0.1182(3) 1.2704(3) 0.63574(14)
N32A N -0.0300(4) 1.2971(4) 0.55369(16)
N33A N 0.1439(4) 1.3774(3) 0.57494(15)
N34A N 0.2738(4) 1.2487(3) 0.63231(14)
N35A N 0.3294(4) 1.1482(3) 0.59528(15)
N36A N 0.2842(4) 1.3329(3) 0.56304(14)
N37A N 0.3463(4) 1.2367(3) 0.52611(14)
O24A O -0.2289(3) 0.9150(3) 0.59769(12)
O25A O 0.0094(3) 1.1000(2) 0.64265(11)
O26A O 0.2202(3) 1.0852(3) 0.65048(12)
O27A O -0.1660(4) 1.1415(3) 0.43077(15)
O28A O 0.0743(4) 1.3425(4) 0.49521(14)
O29A O 0.2634(3) 1.3049(3) 0.48120(13)
O1A O 0.0781(3) 1.0600(3) -0.02990(12)
O2A O 0.3214(4) 0.9189(4) -0.31964(16)
O3A O 0.4316(4) 1.1610(4) -0.28770(16)
O4A O 0.0706(3) 1.0299(3) -0.26818(11)
O5A O 0.0847(3) 0.8712(3) -0.34157(12)
O6A O -0.0389(3) 0.8745(3) -0.43499(13)
O7A O -0.2167(4) 0.7245(3) -0.38388(13)
N1A N -0.0137(6) 1.0067(6) -0.1484(2)
O8A O -0.0680(3) 1.0338(3) -0.12482(13)
O9A O -0.0393(7) 0.9842(7) -0.1928(2)
O10A O 0.0647(8) 1.0047(11) -0.1277(3)
O11A O 0.1971(6) 1.0256(6) -0.1790(3)
Sr1A Sr -0.11061(4) 1.03644(4) -0.037404(16)
Sr2A Sr 0.24468(4) 1.01954(4) -0.272879(17)
Sr3A Sr -0.07551(4) 0.91706(4) -0.347874(16)
C1A C -0.2213(4) 0.7988(4) -0.12245(18)
C2A C -0.2280(4) 0.6850(4) -0.18895(16)
H1A H -0.2633 0.6084 -0.1926
C3A C -0.3081(4) 0.7245(4) -0.20188(16)
H2A H -0.3820 0.6670 -0.2102
C4A C -0.1811(4) 0.7728(4) -0.25280(17)
C5A C -0.3627(4) 0.8376(4) -0.15138(18)
H3A H -0.4333 0.7874 -0.1690
H4A H -0.3680 0.8446 -0.1174
C6A C -0.3232(4) 0.8196(4) -0.26854(17)
H5A H -0.3065 0.8195 -0.3010
H6A H -0.3999 0.7756 -0.2710
C7A C -0.2755(4) 1.0279(4) -0.13322(18)
C8A C -0.3508(4) 0.9545(4) -0.21454(17)
C9A C -0.2897(4) 1.0780(4) -0.20772(17)
C10A C -0.2127(4) 1.0075(4) -0.26007(17)
C11A C -0.1849(4) 1.2149(4) -0.13028(18)
H7A H -0.2087 1.2602 -0.1434
H8A H -0.1951 1.2165 -0.0968
C12A C -0.1318(4) 1.1970(4) -0.24679(17)
H9A H -0.1670 1.2395 -0.2476
H10A H -0.1145 1.1865 -0.2786
C13A C -0.0013(5) 1.2657(4) -0.09505(17)
C14A C -0.0229(4) 1.3159(4) -0.16794(16)
H11A H -0.0439 1.3696 -0.1718
C15A C 0.0979(4) 1.3645(4) -0.14848(17)
H12A H 0.1343 1.4413 -0.1430
C16A C 0.0579(4) 1.2601(4) -0.22327(18)
C17A C 0.1917(4) 1.3683(4) -0.06796(18)
H13A H 0.2295 1.4438 -0.0661
H14A H 0.1694 1.3546 -0.0370
C18A C 0.2460(4) 1.3590(4) -0.18825(18)
H15A H 0.2527 1.3415 -0.2215
H16A H 0.2832 1.4349 -0.1794
C19A C 0.2895(5) 1.2792(4) -0.04429(19)
C20A C 0.3411(4) 1.3648(4) -0.10855(17)
H17A H 0.3802 1.4416 -0.1038
C21A C 0.4154(4) 1.3200(4) -0.09553(18)
H18A H 0.4900 1.3751 -0.0858
C22A C 0.3337(4) 1.2527(4) -0.17537(19)
C23A C 0.4240(4) 1.2234(4) -0.02863(18)
H19A H 0.5008 1.2690 -0.0240
H20A H 0.4024 1.2208 0.0029
C24A C 0.4762(4) 1.2130(4) -0.14612(19)
H21A H 0.4820 1.2061 -0.1801
H22A H 0.5460 1.2648 -0.1283
C25A C 0.3252(4) 1.0325(4) -0.03744(17)
C26A C 0.4637(4) 1.0947(4) -0.08238(17)
C27A C 0.4064(4) 0.9715(4) -0.09025(17)
C28A C 0.3880(4) 1.0246(4) -0.16280(19)
C29A C 0.2514(4) 0.8438(4) -0.05316(17)
H23A H 0.2844 0.7994 -0.0568
H24A H 0.2358 0.8472 -0.0206
C30A C 0.2993(4) 0.8362(4) -0.16835(17)
H25A H 0.3114 0.8362 -0.2015
H26A H 0.3226 0.7907 -0.1552
C31A C 0.0608(4) 0.7917(4) -0.07489(17)
C32A C 0.1359(4) 0.7342(4) -0.13264(16)
H27A H 0.1537 0.6779 -0.1303
C33A C 0.0162(4) 0.6913(4) -0.15088(17)
H28A H -0.0226 0.6144 -0.1577
C34A C 0.1159(4) 0.7932(4) -0.20330(17)
C35A C -0.1298(4) 0.6968(4) -0.10779(16)
H29A H -0.1679 0.6207 -0.1149
H30A H -0.1340 0.7185 -0.0747
C36A C -0.0772(4) 0.6890(4) -0.23063(16)
H31A H -0.1119 0.6133 -0.2332
H32A H -0.0549 0.7053 -0.2613
C37A C -0.4661(4) 0.9032(4) -0.23394(19)
H33A H -0.5018 0.9253 -0.2119
H34A H -0.4759 0.9224 -0.2645
H35A H -0.4956 0.8284 -0.2380
C38A C -0.3549(5) 1.1278(4) -0.22361(19)
H36A H -0.3789 1.1064 -0.2578
H37A H -0.4157 1.1060 -0.2073
H38A H -0.3118 1.2028 -0.2160
C39A C 0.5800(4) 1.1520(4) -0.0621(2)
H39A H 0.6187 1.1340 -0.0840
H40A H 0.6053 1.2262 -0.0576
H41A H 0.5910 1.1327 -0.0316
C40A C 0.4786(4) 0.9259(4) -0.07806(19)
H42A H 0.5304 0.9428 -0.0995
H43A H 0.5149 0.9549 -0.0454
H44A H 0.4366 0.8511 -0.0816
N2A N -0.1820(4) 0.7360(3) -0.13942(14)
N3A N -0.2926(3) 0.7966(3) -0.15900(13)
N4A N -0.1529(3) 0.7233(3) -0.22187(13)
N5A N -0.2702(3) 0.7745(3) -0.24253(14)
N6A N -0.3318(3) 0.9373(3) -0.16573(14)
N7A N -0.2507(3) 1.1095(3) -0.15629(13)
N8A N -0.2950(3) 0.9245(3) -0.24723(13)
N9A N -0.2053(3) 1.0969(3) -0.23654(14)
N10A N -0.0724(4) 1.2565(3) -0.13203(14)
N11A N 0.0994(4) 1.3246(3) -0.10382(14)
N12A N -0.0351(4) 1.2531(3) -0.21323(14)
N13A N 0.1367(4) 1.3215(3) -0.18553(14)
N14A N 0.2635(4) 1.3285(3) -0.07642(15)
N15A N 0.3724(4) 1.2673(3) -0.05638(14)
N16A N 0.2981(4) 1.3188(3) -0.15853(14)
N17A N 0.4010(3) 1.2496(3) -0.13854(14)
N18A N 0.3991(3) 1.1179(3) -0.05108(14)
N19A N 0.3264(3) 0.9469(3) -0.05908(14)
N20A N 0.4463(4) 1.1128(3) -0.13111(14)
N21A N 0.3627(3) 0.9408(3) -0.14141(13)
N22A N 0.1520(3) 0.7955(3) -0.08641(14)
N23A N -0.0200(3) 0.7329(3) -0.11225(13)
N24A N 0.1858(3) 0.7940(3) -0.16774(14)
N25A N 0.0157(3) 0.7352(3) -0.19418(14)
O12A O -0.2002(3) 0.8470(3) -0.08167(11)
O13A O -0.2565(3) 1.0343(3) -0.09010(11)
O14A O -0.0243(3) 1.2277(3) -0.05843(12)
O15A O 0.2443(3) 1.2504(3) -0.00981(12)
O16A O 0.2674(3) 1.0330(3) -0.00750(12)
O17A O 0.0514(3) 0.8331(3) -0.03709(11)
O18A O -0.1336(3) 0.8080(3) -0.28573(12)
O19A O -0.1582(3) 1.0020(3) -0.28992(12)
O20A O 0.0708(3) 1.2199(3) -0.26026(12)
O21A O 0.3119(3) 1.2050(3) -0.21666(13)
O22A O 0.3664(3) 1.0197(3) -0.20624(12)
O23A O 0.1381(3) 0.8369(3) -0.23822(12)
Sr2A_2 Sr 0.24468(4) 1.01954(4) 0.727121(17)
Sr3A_2 Sr -0.07551(4) 0.91706(4) 0.652126(16)
O24A_2 O -0.2289(3) 0.9150(3) -0.40231(12)
O25A_2 O 0.0094(3) 1.1000(2) -0.35735(11)
O26A_2 O 0.2202(3) 1.0852(3) -0.34952(12)
Cl7A Cl -0.4579(7) 0.4735(5) 0.5490(4)
Cl1 Cl 0.2238(3) 0.5765(2) 0.16305(14)
Cl8? Cl -0.532(3) 0.550(2) 0.5132(15)
N38? N -0.1181(6) 0.9980(6) 0.1586(3)
O30? O -0.0285(6) 1.0244(7) 0.1811(3)
O31? O -0.1243(12) 1.0051(11) 0.1155(3)
loop_
_geom_bond_atom_site_label_1
_geom_bond_atom_site_label_2
_geom_bond_site_symmetry_1
_geom_bond_site_symmetry_2
O1 Sr1 1_555 1_555
O2 Sr2 1_555 1_555
O3 Sr2 1_555 1_555
O4 Sr2 1_555 1_555
O5 Sr2 1_555 1_555
O6 Sr3 1_555 1_555
O7 Sr3 1_555 1_555
N1 O8 1_555 1_555
O8 Sr1 1_555 1_555
O9 N1 1_555 1_555
O10 N1 1_555 1_555
O11 Sr2 1_555 1_555
Sr1 O12 1_555 1_555
Sr2 O21 1_555 1_555
Sr3 O4 1_555 1_555
C1 N2 1_555 1_555
C2 H1 1_555 1_555
C3 C2 1_555 1_555
H2 C3 1_555 1_555
C4 N4 1_555 1_555
C5 H3 1_555 1_555
H4 C5 1_555 1_555
C6 H5 1_555 1_555
H6 C6 1_555 1_555
C7 N6 1_555 1_555
C8 C9 1_555 1_555
C9 C38 1_555 1_555
C10 N8 1_555 1_555
C11 H7 1_555 1_555
H8 C11 1_555 1_555
C12 H9 1_555 1_555
H10 C12 1_555 1_555
C13 N10 1_555 1_555
C14 H11 1_555 1_555
C15 C14 1_555 1_555
H12 C15 1_555 1_555
C16 N12 1_555 1_555
C17 H13 1_555 1_555
H14 C17 1_555 1_555
C18 H15 1_555 1_555
H16 C18 1_555 1_555
C19 N14 1_555 1_555
C20 H17 1_555 1_555
C21 C20 1_555 1_555
H18 C21 1_555 1_555
C22 N16 1_555 1_555
C23 H19 1_555 1_555
H20 C23 1_555 1_555
C24 H21 1_555 1_555
H22 C24 1_555 1_555
C25 N18 1_555 1_555
C26 C27 1_555 1_555
C27 C40 1_555 1_555
C28 N20 1_555 1_555
C29 H23 1_555 1_555
H24 C29 1_555 1_555
C30 H25 1_555 1_555
H26 C30 1_555 1_555
C31 N22 1_555 1_555
C32 H27 1_555 1_555
C33 C32 1_555 1_555
H28 C33 1_555 1_555
C34 N24 1_555 1_555
C35 H29 1_555 1_555
H30 C35 1_555 1_555
C36 H31 1_555 1_555
H32 C36 1_555 1_555
C37 C8 1_555 1_555
H33 C37 1_555 1_555
H34 C37 1_555 1_555
H35 C37 1_555 1_555
C38 H36 1_555 1_555
H37 C38 1_555 1_555
H38 C38 1_555 1_555
C39 C26 1_555 1_555
H39 C39 1_555 1_555
H40 C39 1_555 1_555
H41 C39 1_555 1_555
C40 H42 1_555 1_555
H43 C40 1_555 1_555
H44 C40 1_555 1_555
C41 N26 1_555 1_555
C42 H45 1_555 1_555
C43 C42 1_555 1_555
H46 C43 1_555 1_555
C44 N28 1_555 1_555
C45 H47 1_555 1_555
H48 C45 1_555 1_555
C46 H49 1_555 1_555
H50 C46 1_555 1_555
C47 N30 1_555 1_555
C48 C49 1_555 1_555
C49 C60 1_555 1_555
C50 N32 1_555 1_555
C51 H51 1_555 1_555
H52 C51 1_555 1_555
C52 H53 1_555 1_555
H54 C52 1_555 1_555
C53 N34 1_555 1_555
C54 H55 1_555 1_555
C55 C54 1_555 1_555
H56 C55 1_555 1_555
C56 N36 1_555 1_555
C57 H57 1_555 1_555
H58 C57 1_555 1_555
C58 H59 1_555 1_555
H60 C58 1_555 1_555
C59 C48 1_555 1_555
H61 C59 1_555 1_555
H62 C59 1_555 1_555
H63 C59 1_555 1_555
C60 H64 1_555 1_555
H65 C60 1_555 1_555
H66 C60 1_555 1_555
N2 C2 1_555 1_555
N3 C1 1_555 1_555
N4 C2 1_555 1_555
N5 C3 1_555 1_555
N6 C5 1_555 1_555
N7 C7 1_555 1_555
N8 C6 1_555 1_555
N9 C9 1_555 1_555
N10 C11 1_555 1_555
N11 C13 1_555 1_555
N12 C12 1_555 1_555
N13 C15 1_555 1_555
N14 C17 1_555 1_555
N15 C19 1_555 1_555
N16 C18 1_555 1_555
N17 C21 1_555 1_555
N18 C23 1_555 1_555
N19 C25 1_555 1_555
N20 C24 1_555 1_555
N21 C27 1_555 1_555
N22 C29 1_555 1_555
N23 C31 1_555 1_555
N24 C30 1_555 1_555
N25 C33 1_555 1_555
N26 C42 1_555 1_555
N27 C41 1_555 1_555
N28 C42 1_555 1_555
N29 C43 1_555 1_555
N30 C45 1_555 1_555
N31 C47 1_555 1_555
N32 C46 1_555 1_555
N33 C49 1_555 1_555
N34 C51 1_555 1_555
N35 C53 1_555 1_555
N36 C52 1_555 1_555
N37 C55 1_555 1_555
O12 C1 1_555 1_555
O13 Sr1 1_555 1_555
O14 Sr1 1_555 1_555
O15 C19 1_555 1_555
O16 C25 1_555 1_555
O17 C31 1_555 1_555
O18 Sr3 1_555 1_555
O19 Sr3 1_555 1_555
O20 C16 1_555 1_555
O21 C22 1_555 1_555
O22 Sr2 1_555 1_555
O23 Sr2 1_555 1_555
O24 Sr3 1_555 1_555
O25 Sr3 1_555 1_555
O26 Sr2 1_555 1_555
O27 C44 1_555 1_555
O28 C50 1_555 1_555
O29 C56 1_555 1_555
C41A N26A 1_555 1_555
C42A H45A 1_555 1_555
C43A C42A 1_555 1_555
H46A C43A 1_555 1_555
C44A N28A 1_555 1_555
C45A H47A 1_555 1_555
H48A C45A 1_555 1_555
C46A H49A 1_555 1_555
H50A C46A 1_555 1_555
C47A N30A 1_555 1_555
C48A C49A 1_555 1_555
C49A C60A 1_555 1_555
C50A N32A 1_555 1_555
C51A H51A 1_555 1_555
H52A C51A 1_555 1_555
C52A H53A 1_555 1_555
H54A C52A 1_555 1_555
C53A N34A 1_555 1_555
C54A H55A 1_555 1_555
C55A C54A 1_555 1_555
H56A C55A 1_555 1_555
C56A N36A 1_555 1_555
C57A N35 1_555 1_555
H57A C57A 1_555 1_555
H58A C57A 1_555 1_555
C58A N37 1_555 1_555
H59A C58A 1_555 1_555
H60A C58A 1_555 1_555
C59A C48A 1_555 1_555
H61A C59A 1_555 1_555
H62A C59A 1_555 1_555
H63A C59A 1_555 1_555
C60A H64A 1_555 1_555
H65A C60A 1_555 1_555
H66A C60A 1_555 1_555
N26A C42A 1_555 1_555
N27A C41A 1_555 1_555
N28A C42A 1_555 1_555
N29A C43A 1_555 1_555
N30A C45A 1_555 1_555
N31A C47A 1_555 1_555
N32A C46A 1_555 1_555
N33A C49A 1_555 1_555
N34A C51A 1_555 1_555
N35A C57 1_555 1_555
N36A C52A 1_555 1_555
N37A C58 1_555 1_555
O24A C41A 1_555 1_555
O25A C47A 1_555 1_555
O26A C53A 1_555 1_555
O27A C44A 1_555 1_555
O28A C50A 1_555 1_555
O29A C56A 1_555 1_555
O1A Sr1 1_555 1_555
O2A Sr2A 1_555 1_555
O3A Sr2A 1_555 1_555
O4A Sr2A 1_555 1_555
O5A Sr2A 1_555 1_555
O6A Sr3A 1_555 1_555
O7A Sr3A 1_555 1_555
N1A O8A 1_555 1_555
O8A Sr1A 1_555 1_555
O9A N1A 1_555 1_555
O10A N1A 1_555 1_555
O11A Sr2A 1_555 1_555
Sr1A O1 1_555 1_555
Sr2A O21A 1_555 1_555
Sr3A O4A 1_555 1_555
C1A N2A 1_555 1_555
C2A H1A 1_555 1_555
C3A C2A 1_555 1_555
H2A C3A 1_555 1_555
C4A N4A 1_555 1_555
C5A H3A 1_555 1_555
H4A C5A 1_555 1_555
C6A H5A 1_555 1_555
H6A C6A 1_555 1_555
C7A N6A 1_555 1_555
C8A C9A 1_555 1_555
C9A C38A 1_555 1_555
C10A N8A 1_555 1_555
C11A H7A 1_555 1_555
H8A C11A 1_555 1_555
C12A H9A 1_555 1_555
H10A C12A 1_555 1_555
C13A N10A 1_555 1_555
C14A H11A 1_555 1_555
C15A C14A 1_555 1_555
H12A C15A 1_555 1_555
C16A N12A 1_555 1_555
C17A H13A 1_555 1_555
H14A C17A 1_555 1_555
C18A H15A 1_555 1_555
H16A C18A 1_555 1_555
C19A N14A 1_555 1_555
C20A H17A 1_555 1_555
C21A C20A 1_555 1_555
H18A C21A 1_555 1_555
C22A N16A 1_555 1_555
C23A H19A 1_555 1_555
H20A C23A 1_555 1_555
C24A H21A 1_555 1_555
H22A C24A 1_555 1_555
C25A N18A 1_555 1_555
C26A C27A 1_555 1_555
C27A C40A 1_555 1_555
C28A N20A 1_555 1_555
C29A H23A 1_555 1_555
H24A C29A 1_555 1_555
C30A H25A 1_555 1_555
H26A C30A 1_555 1_555
C31A N22A 1_555 1_555
C32A H27A 1_555 1_555
C33A C32A 1_555 1_555
H28A C33A 1_555 1_555
C34A N24A 1_555 1_555
C35A H29A 1_555 1_555
H30A C35A 1_555 1_555
C36A H31A 1_555 1_555
H32A C36A 1_555 1_555
C37A C8A 1_555 1_555
H33A C37A 1_555 1_555
H34A C37A 1_555 1_555
H35A C37A 1_555 1_555
C38A H36A 1_555 1_555
H37A C38A 1_555 1_555
H38A C38A 1_555 1_555
C39A C26A 1_555 1_555
H39A C39A 1_555 1_555
H40A C39A 1_555 1_555
H41A C39A 1_555 1_555
C40A H42A 1_555 1_555
H43A C40A 1_555 1_555
H44A C40A 1_555 1_555
N2A C2A 1_555 1_555
N3A C1A 1_555 1_555
N4A C2A 1_555 1_555
N5A C3A 1_555 1_555
N6A C5A 1_555 1_555
N7A C7A 1_555 1_555
N8A C6A 1_555 1_555
N9A C9A 1_555 1_555
N10A C11A 1_555 1_555
N11A C13A 1_555 1_555
N12A C12A 1_555 1_555
N13A C15A 1_555 1_555
N14A C17A 1_555 1_555
N15A C19A 1_555 1_555
N16A C18A 1_555 1_555
N17A C21A 1_555 1_555
N18A C23A 1_555 1_555
N19A C25A 1_555 1_555
N20A C24A 1_555 1_555
N21A C27A 1_555 1_555
N22A C29A 1_555 1_555
N23A C31A 1_555 1_555
N24A C30A 1_555 1_555
N25A C33A 1_555 1_555
O12A Sr1A 1_555 1_555
O13A Sr1A 1_555 1_555
O14A Sr1A 1_555 1_555
O15A C19A 1_555 1_555
O16A Sr1 1_555 1_555
O17A Sr1 1_555 1_555
O18A Sr3A 1_555 1_555
O19A Sr3A 1_555 1_555
O20A C16A 1_555 1_555
O21A C22A 1_555 1_555
O22A Sr2A 1_555 1_555
O23A Sr2A 1_555 1_555
Sr2A_2 O26A 1_555 1_555
Sr3A_2 O24A 1_555 1_555
O24A_2 Sr3A 1_555 1_555
O25A_2 Sr3A 1_555 1_555
O26A_2 Sr2A 1_555 1_555
O5 Sr3 1_555 1_555
C3 N3 1_555 1_555
C4 N5 1_555 1_555
C4 O18 1_555 1_555
C5 N3 1_555 1_555
C6 N5 1_555 1_555
C7 O13 1_555 1_555
C8 N6 1_555 1_555
C8 N8 1_555 1_555
C9 N7 1_555 1_555
C10 N9 1_555 1_555
C10 O19 1_555 1_555
C11 N7 1_555 1_555
C12 N9 1_555 1_555
C13 O14 1_555 1_555
C14 N10 1_555 1_555
C14 N12 1_555 1_555
C15 N11 1_555 1_555
C16 N13 1_555 1_555
C17 N11 1_555 1_555
C18 N13 1_555 1_555
C20 N14 1_555 1_555
C20 N16 1_555 1_555
C21 N15 1_555 1_555
C22 N17 1_555 1_555
C23 N15 1_555 1_555
C24 N17 1_555 1_555
C26 N18 1_555 1_555
C26 N20 1_555 1_555
C27 N19 1_555 1_555
C28 N21 1_555 1_555
C28 O22 1_555 1_555
C29 N19 1_555 1_555
C30 N21 1_555 1_555
C32 N22 1_555 1_555
C32 N24 1_555 1_555
C33 N23 1_555 1_555
C34 N25 1_555 1_555
C34 O23 1_555 1_555
C35 N2 1_555 1_555
C35 N23 1_555 1_555
C36 N4 1_555 1_555
C36 N25 1_555 1_555
C41 O24 1_555 1_555
C43 N27 1_555 1_555
C44 N29 1_555 1_555
C45 N27 1_555 1_555
C46 N29 1_555 1_555
C47 O25 1_555 1_555
C48 N30 1_555 1_555
C48 N32 1_555 1_555
C49 N31 1_555 1_555
C50 N33 1_555 1_555
C51 N31 1_555 1_555
C52 N33 1_555 1_555
C53 O26 1_555 1_555
C54 N34 1_555 1_555
C54 N36 1_555 1_555
C55 N35 1_555 1_555
C56 N37 1_555 1_555
C57 N28 1_555 1_555
C58 N26 1_555 1_555
O16 Sr1A 1_555 1_555
O17 Sr1A 1_555 1_555
C43A N27A 1_555 1_555
C44A N29A 1_555 1_555
C45A N27A 1_555 1_555
C46A N29A 1_555 1_555
C48A N30A 1_555 1_555
C48A N32A 1_555 1_555
C49A N31A 1_555 1_555
C50A N33A 1_555 1_555
C51A N31A 1_555 1_555
C52A N33A 1_555 1_555
C53A N35A 1_555 1_555
C54A N34A 1_555 1_555
C54A N36A 1_555 1_555
C55A N35A 1_555 1_555
C55A N37A 1_555 1_555
C56A N37A 1_555 1_555
C57A N28A 1_555 1_555
C58A N26A 1_555 1_555
O25A Sr3A_2 1_555 1_555
O1A Sr1A 1_555 1_555
O5A Sr3A 1_555 1_555
C1A O12A 1_555 1_555
C3A N3A 1_555 1_555
C4A N5A 1_555 1_555
C4A O18A 1_555 1_555
C5A N3A 1_555 1_555
C6A N5A 1_555 1_555
C7A O13A 1_555 1_555
C8A N6A 1_555 1_555
C8A N8A 1_555 1_555
C9A N7A 1_555 1_555
C10A N9A 1_555 1_555
C10A O19A 1_555 1_555
C11A N7A 1_555 1_555
C12A N9A 1_555 1_555
C13A O14A 1_555 1_555
C14A N10A 1_555 1_555
C14A N12A 1_555 1_555
C15A N11A 1_555 1_555
C16A N13A 1_555 1_555
C17A N11A 1_555 1_555
C18A N13A 1_555 1_555
C20A N14A 1_555 1_555
C20A N16A 1_555 1_555
C21A N15A 1_555 1_555
C22A N17A 1_555 1_555
C23A N15A 1_555 1_555
C24A N17A 1_555 1_555
C25A O16A 1_555 1_555
C26A N18A 1_555 1_555
C26A N20A 1_555 1_555
C27A N19A 1_555 1_555
C28A N21A 1_555 1_555
C28A O22A 1_555 1_555
C29A N19A 1_555 1_555
C30A N21A 1_555 1_555
C31A O17A 1_555 1_555
C32A N22A 1_555 1_555
C32A N24A 1_555 1_555
C33A N23A 1_555 1_555
C34A N25A 1_555 1_555
C34A O23A 1_555 1_555
C35A N2A 1_555 1_555
C35A N23A 1_555 1_555
C36A N4A 1_555 1_555
C36A N25A 1_555 1_555

#END
