
#######################################################################
#
#                 Cambridge Crystallographic Data Centre
#                                CCDC 
#
#######################################################################
#
# If this CIF has been generated from an entry in the Cambridge 
# Structural Database, then it will include bibliographic, chemical, 
# crystal, experimental, refinement or atomic coordinate data resulting 
# from the CCDC's data processing and validation procedures.
#
#######################################################################

data_SIZFEO
_symmetry_cell_setting           triclinic
_symmetry_space_group_name_H-M   'P -1'
_symmetry_Int_Tables_number      2
_space_group_name_Hall           '-P 1'
loop_
_symmetry_equiv_pos_site_id
_symmetry_equiv_pos_as_xyz
1 x,y,z
2 -x,-y,-z
_cell_length_a                   14.2004(6)
_cell_length_b                   14.4412(6)
_cell_length_c                   19.4874(8)
_cell_angle_alpha                72.453(2)
_cell_angle_beta                 83.447(2)
_cell_angle_gamma                62.9340(10)
_cell_volume                     3391.8
loop_
_atom_site_label
_atom_site_type_symbol
_atom_site_fract_x
_atom_site_fract_y
_atom_site_fract_z
N2 N 0.812(3) 1.173(2) 0.3925(12)
O4 O 0.849(3) 1.221(2) 0.341(2)
O5 O 0.874(4) 1.081(2) 0.4285(19)
O6 O 0.714(3) 1.211(4) 0.400(2)
N3 N 0.563(4) 0.404(2) 0.152(2)
O7 O 0.659(4) 0.340(4) 0.185(3)
O8 O 0.485(5) 0.406(4) 0.190(2)
O9 O 0.563(6) 0.454(5) 0.088(2)
N4 N 0.7734(12) 0.8060(13) 0.2376(8)
O10 O 0.7501(11) 0.9142(13) -0.0807(6)
O11 O 0.6316(11) 1.1305(11) -0.0468(6)
O12 O 0.5637(16) 0.8768(18) 0.1340(10)
O13 O 0.4498(19) 1.096(3) 0.0282(14)
O14 O 1.1054(10) 0.5058(11) 0.4863(7)
O15 O 0.7436(10) 0.6891(11) 0.4022(7)
O16 O 1.0129(16) 0.7237(14) 0.5050(10)
O17 O 0.8041(18) 0.705(3) 0.5355(12)
O18 O 0.8483(10) 0.7712(12) 0.2803(7)
O19 O 0.7751(11) 0.8511(11) 0.1745(6)
O20 O 0.6919(15) 0.799(2) 0.2613(9)
Sr1 Sr 0.67083(10) 0.94660(11) 0.04100(6)
Sr2 Sr 0.92589(11) 0.67129(12) 0.42235(7)
C1 C 0.6684(12) 1.0954(12) 0.1633(8)
C2 C 0.6690(13) 1.1197(13) 0.2768(8)
H1 H 0.6339 1.1905 0.2876
C3 C 0.7778(12) 1.0993(13) 0.2427(8)
H2 H 0.7957 1.1598 0.2378
C4 C 0.7989(13) 0.9620(12) 0.3487(8)
C5 C 0.8454(13) 1.0797(14) 0.1194(9)
H3 H 0.8103 1.1103 0.0719
H4 H 0.8793 1.1241 0.1227
C6 C 0.9624(13) 0.9565(14) 0.2894(9)
H5 H 0.9811 1.0169 0.2715
H6 H 0.9927 0.9171 0.3383
C7 C 0.9186(12) 0.9125(14) 0.0853(8)
C8 C 1.0254(12) 0.9153(13) 0.1674(8)
C9 C 1.0803(12) 0.8010(14) 0.1497(8)
C10 C 1.0474(12) 0.7757(14) 0.2723(8)
C11 C 1.0115(14) 0.7324(15) 0.0673(8)
H7 H 1.0859 0.6903 0.0576
H8 H 0.9725 0.7692 0.0210
C12 C 1.1292(12) 0.6084(14) 0.2375(9)
H9 H 1.1881 0.5826 0.2056
H10 H 1.1577 0.5760 0.2871
C13 C 0.8735(12) 0.6675(14) 0.0999(8)
C14 C 1.0347(12) 0.5593(14) 0.1635(8)
H11 H 1.1014 0.5159 0.1427
C15 C 0.9620(13) 0.5005(14) 0.1850(8)
H12 H 0.9941 0.4299 0.1741
C16 C 1.0051(12) 0.5307(12) 0.2866(8)
C17 C 0.7866(13) 0.5479(15) 0.1307(8)
H13 H 0.8216 0.4758 0.1228
H14 H 0.7454 0.5993 0.0868
C18 C 0.9135(12) 0.4128(13) 0.3093(9)
H15 H 0.9431 0.3463 0.2941
H16 H 0.9397 0.3935 0.3585
C19 C 0.6084(13) 0.6095(14) 0.1807(9)
C20 C 0.7409(12) 0.4555(13) 0.2543(8)
H17 H 0.7754 0.3856 0.2423
C21 C 0.6320(12) 0.4749(13) 0.2877(8)
H18 H 0.6151 0.4143 0.2912
C22 C 0.7457(12) 0.4603(12) 0.3720(8)
C23 C 0.4460(13) 0.6158(14) 0.2436(9)
H19 H 0.4279 0.5551 0.2630
H20 H 0.4144 0.6544 0.1950
C24 C 0.5658(12) 0.4887(13) 0.4116(8)
H21 H 0.6011 0.4558 0.4591
H22 H 0.5309 0.4458 0.4069
C25 C 0.3599(12) 0.7982(14) 0.2599(8)
C26 C 0.3852(12) 0.6576(13) 0.3662(8)
C27 C 0.3329(12) 0.7693(13) 0.3845(8)
C28 C 0.5013(12) 0.6613(13) 0.4403(8)
C29 C 0.2794(12) 0.9624(13) 0.2999(9)
H23 H 0.2233 0.9873 0.3337
H24 H 0.2479 0.9991 0.2512
C30 C 0.4052(13) 0.8376(13) 0.4661(8)
H25 H 0.3306 0.8753 0.4774
H26 H 0.4454 0.7967 0.5118
C31 C 0.4021(12) 1.0416(13) 0.2494(9)
C32 C 0.3761(12) 1.0131(13) 0.3726(8)
H27 H 0.3083 1.0580 0.3917
C33 C 0.4475(12) 1.0724(13) 0.3489(8)
H28 H 0.4135 1.1449 0.3571
C34 C 0.5334(12) 0.9142(13) 0.4431(8)
C35 C 0.4974(12) 1.1549(14) 0.2233(9)
H29 H 0.4713 1.1708 0.1747
H30 H 0.4662 1.2230 0.2365
C36 C 0.6217(13) 1.0336(14) 0.4006(8)
H31 H 0.6638 0.9862 0.4449
H32 H 0.5860 1.1076 0.4052
C37 C 1.0872(14) 0.9831(16) 0.1480(10)
H33 H 1.1531 0.9441 0.1759
H34 H 1.0453 1.0517 0.1588
H35 H 1.1021 0.9963 0.0971
C38 C 1.1897(14) 0.7709(17) 0.1169(10)
H36 H 1.2392 0.7629 0.1513
H37 H 1.1857 0.8276 0.0735
H38 H 1.2137 0.7031 0.1051
C39 C 0.3210(13) 0.5936(14) 0.3835(10)
H39 H 0.3128 0.5720 0.4351
H40 H 0.3574 0.5296 0.3665
H41 H 0.2519 0.6384 0.3598
C40 C 0.2293(13) 0.7939(16) 0.4242(10)
H42 H 0.1768 0.7976 0.3944
H43 H 0.2046 0.8627 0.4346
H44 H 0.2406 0.7369 0.4689
N5 N 0.6099(10) 1.1149(11) 0.2224(7)
N6 N 0.7657(10) 1.0875(11) 0.1738(7)
N7 N 0.6919(10) 1.0309(11) 0.3405(7)
N8 N 0.8485(10) 1.0003(11) 0.2930(7)
N9 N 0.9262(10) 0.9713(11) 0.1247(7)
N10 N 1.0041(11) 0.8126(12) 0.0994(7)
N11 N 1.0104(10) 0.8847(11) 0.2443(7)
N12 N 1.0861(10) 0.7260(11) 0.2206(7)
N13 N 0.9707(10) 0.6581(11) 0.1114(7)
N14 N 0.8659(10) 0.5774(11) 0.1425(7)
N15 N 1.0537(10) 0.5714(11) 0.2302(7)
N16 N 0.9497(10) 0.4882(11) 0.2620(7)
N17 N 0.7147(10) 0.5463(11) 0.1902(7)
N18 N 0.5592(10) 0.5742(11) 0.2396(7)
N19 N 0.8002(10) 0.4566(11) 0.3091(7)
N20 N 0.6440(10) 0.4829(11) 0.3577(7)
N21 N 0.4012(11) 0.6889(10) 0.2886(7)
N22 N 0.3174(10) 0.8473(10) 0.3131(7)
N23 N 0.4852(9) 0.5988(10) 0.4076(6)
N24 N 0.4157(10) 0.7607(11) 0.4271(7)
N25 N 0.3599(10) 0.9946(11) 0.3069(7)
N26 N 0.4618(11) 1.0799(11) 0.2731(7)
N27 N 0.4406(11) 0.9159(11) 0.4279(7)
N28 N 0.5432(10) 1.0002(10) 0.3936(7)
O21 O 0.6371(9) 1.0889(10) 0.1096(6)
O22 O 0.8473(9) 0.9443(10) 0.0412(6)
O23 O 0.8043(9) 0.7436(10) 0.0573(6)
O24 O 0.5645(9) 0.6855(10) 0.1282(6)
O25 O 0.3582(9) 0.8466(10) 0.1960(6)
O26 O 0.3898(10) 1.0508(10) 0.1861(6)
O27 O 0.8401(9) 0.8800(9) 0.3992(6)
O28 O 1.0484(8) 0.7293(9) 0.3378(6)
O29 O 1.0097(9) 0.5289(9) 0.3493(6)
O30 O 0.7818(8) 0.4439(10) 0.4308(6)
O31 O 0.5794(9) 0.6332(9) 0.4765(6)
O32 O 0.5949(9) 0.8505(10) 0.4929(6)
O13A O 0.5502(19) 0.904(3) -0.0282(14)
O14A O 0.8946(10) 0.4942(11) 0.5137(7)
Sr1A Sr 0.32917(10) 1.05340(11) -0.04100(6)
Sr2A Sr 1.07411(11) 0.32871(12) 0.57765(7)
N1 N 0.208(3) 1.288(3) 0.2728(16)
O1 O 0.177(2) 1.262(2) 0.3308(15)
O2 O 0.191(3) 1.270(3) 0.2249(19)
O3 O 0.264(3) 1.340(3) 0.266(4)
loop_
_geom_bond_atom_site_label_1
_geom_bond_atom_site_label_2
_geom_bond_site_symmetry_1
_geom_bond_site_symmetry_2
N1 O1 1_555 1_555
O2 N1 1_555 1_555
O3 N1 1_555 1_555
N2 O4 1_555 1_555
O5 N2 1_555 1_555
O6 N2 1_555 1_555
N3 O7 1_555 1_555
O8 N3 1_555 1_555
O9 N3 1_555 1_555
N4 O18 1_555 1_555
O10 Sr1 1_555 1_555
O11 Sr1 1_555 1_555
O12 Sr1 1_555 1_555
O13 Sr1 1_555 1_555
O14 Sr2 1_555 1_555
O15 Sr2 1_555 1_555
O16 Sr2 1_555 1_555
O17 Sr2 1_555 1_555
O18 Sr2 1_555 1_555
O19 N4 1_555 1_555
O20 N4 1_555 1_555
Sr1 O19 1_555 1_555
Sr2 O27 1_555 1_555
C1 N5 1_555 1_555
C2 H1 1_555 1_555
C3 C2 1_555 1_555
H2 C3 1_555 1_555
C4 N7 1_555 1_555
C5 H3 1_555 1_555
H4 C5 1_555 1_555
C6 H5 1_555 1_555
H6 C6 1_555 1_555
C7 N9 1_555 1_555
C8 C9 1_555 1_555
C9 C38 1_555 1_555
C10 N11 1_555 1_555
C11 H7 1_555 1_555
H8 C11 1_555 1_555
C12 H9 1_555 1_555
H10 C12 1_555 1_555
C13 N13 1_555 1_555
C14 H11 1_555 1_555
C15 C14 1_555 1_555
H12 C15 1_555 1_555
C16 N15 1_555 1_555
C17 H13 1_555 1_555
H14 C17 1_555 1_555
C18 H15 1_555 1_555
H16 C18 1_555 1_555
C19 N17 1_555 1_555
C20 H17 1_555 1_555
C21 C20 1_555 1_555
H18 C21 1_555 1_555
C22 N19 1_555 1_555
C23 H19 1_555 1_555
H20 C23 1_555 1_555
C24 H21 1_555 1_555
H22 C24 1_555 1_555
C25 N21 1_555 1_555
C26 C27 1_555 1_555
C27 C40 1_555 1_555
C28 N23 1_555 1_555
C29 H23 1_555 1_555
H24 C29 1_555 1_555
C30 H25 1_555 1_555
H26 C30 1_555 1_555
C31 N25 1_555 1_555
C32 H27 1_555 1_555
C33 C32 1_555 1_555
H28 C33 1_555 1_555
C34 N27 1_555 1_555
C35 H29 1_555 1_555
H30 C35 1_555 1_555
C36 H31 1_555 1_555
H32 C36 1_555 1_555
C37 C8 1_555 1_555
H33 C37 1_555 1_555
H34 C37 1_555 1_555
H35 C37 1_555 1_555
C38 H36 1_555 1_555
H37 C38 1_555 1_555
H38 C38 1_555 1_555
C39 C26 1_555 1_555
H39 C39 1_555 1_555
H40 C39 1_555 1_555
H41 C39 1_555 1_555
C40 H42 1_555 1_555
H43 C40 1_555 1_555
H44 C40 1_555 1_555
N5 C2 1_555 1_555
N6 C1 1_555 1_555
N7 C2 1_555 1_555
N8 C3 1_555 1_555
N9 C5 1_555 1_555
N10 C7 1_555 1_555
N11 C6 1_555 1_555
N12 C9 1_555 1_555
N13 C11 1_555 1_555
N14 C13 1_555 1_555
N15 C12 1_555 1_555
N16 C15 1_555 1_555
N17 C17 1_555 1_555
N18 C19 1_555 1_555
N19 C18 1_555 1_555
N20 C21 1_555 1_555
N21 C23 1_555 1_555
N22 C25 1_555 1_555
N23 C24 1_555 1_555
N24 C27 1_555 1_555
N25 C29 1_555 1_555
N26 C31 1_555 1_555
N27 C30 1_555 1_555
N28 C33 1_555 1_555
O21 Sr1 1_555 1_555
O22 Sr1 1_555 1_555
O23 Sr1 1_555 1_555
O24 C19 1_555 1_555
O25 C25 1_555 1_555
O26 C31 1_555 1_555
O27 C4 1_555 1_555
O28 Sr2 1_555 1_555
O29 Sr2 1_555 1_555
O30 C22 1_555 1_555
O31 C28 1_555 1_555
O32 C34 1_555 1_555
O13A Sr1 1_555 1_555
O14A Sr2 1_555 1_555
Sr1A O13 1_555 1_555
Sr2A O14 1_555 1_555
C1 O21 1_555 1_555
C3 N6 1_555 1_555
C4 N8 1_555 1_555
C5 N6 1_555 1_555
C6 N8 1_555 1_555
C7 O22 1_555 1_555
C8 N9 1_555 1_555
C8 N11 1_555 1_555
C9 N10 1_555 1_555
C10 N12 1_555 1_555
C10 O28 1_555 1_555
C11 N10 1_555 1_555
C12 N12 1_555 1_555
C13 O23 1_555 1_555
C14 N13 1_555 1_555
C14 N15 1_555 1_555
C15 N14 1_555 1_555
C16 N16 1_555 1_555
C16 O29 1_555 1_555
C17 N14 1_555 1_555
C18 N16 1_555 1_555
C20 N17 1_555 1_555
C20 N19 1_555 1_555
C21 N18 1_555 1_555
C22 N20 1_555 1_555
C23 N18 1_555 1_555
C24 N20 1_555 1_555
C26 N21 1_555 1_555
C26 N23 1_555 1_555
C27 N22 1_555 1_555
C28 N24 1_555 1_555
C29 N22 1_555 1_555
C30 N24 1_555 1_555
C32 N25 1_555 1_555
C32 N27 1_555 1_555
C33 N26 1_555 1_555
C34 N28 1_555 1_555
C35 N5 1_555 1_555
C35 N26 1_555 1_555
C36 N7 1_555 1_555
C36 N28 1_555 1_555
O13A Sr1A 1_555 1_555
O14A Sr2A 1_555 1_555

#END
