
#######################################################################
#
#                 Cambridge Crystallographic Data Centre
#                                CCDC 
#
#######################################################################
#
# If this CIF has been generated from an entry in the Cambridge 
# Structural Database, then it will include bibliographic, chemical, 
# crystal, experimental, refinement or atomic coordinate data resulting 
# from the CCDC's data processing and validation procedures.
#
#######################################################################

data_SIZGIS
_symmetry_cell_setting           orthorhombic
_symmetry_space_group_name_H-M   'P b c a'
_symmetry_Int_Tables_number      61
_space_group_name_Hall           '-P 2ac 2ab'
loop_
_symmetry_equiv_pos_site_id
_symmetry_equiv_pos_as_xyz
1 x,y,z
2 1/2-x,-y,1/2+z
3 -x,1/2+y,1/2-z
4 1/2+x,1/2-y,-z
5 -x,-y,-z
6 1/2+x,y,1/2-z
7 x,1/2-y,1/2+z
8 1/2-x,1/2+y,z
_cell_length_a                   12.6139(9)
_cell_length_b                   15.7005(12)
_cell_length_c                   16.6473(12)
_cell_angle_alpha                90
_cell_angle_beta                 90
_cell_angle_gamma                90
_cell_volume                     3296.91
loop_
_atom_site_label
_atom_site_type_symbol
_atom_site_fract_x
_atom_site_fract_y
_atom_site_fract_z
Cd1 Cd 0.899419(7) 0.003857(7) 0.581153(6)
C1 C 0.90338(9) 0.26358(12) 0.90928(9)
C2 C 0.80388(10) 0.08980(11) 0.86693(9)
H1 H 0.7742 0.0365 0.8578
O1 O 0.90817(9) 0.13507(10) 0.67619(7)
O2 O 0.97377(8) 0.37538(9) 1.00314(6)
O3 O 0.99608(8) 0.40238(9) 0.87339(7)
C3 C 0.85954(10) 0.13297(11) 0.81125(9)
C4 C 0.96079(10) 0.35424(11) 0.93098(9)
C5 C 0.86754(10) 0.08401(12) 0.72909(9)
O4 O 0.70677(10) 0.14232(11) 1.05872(8)
C6 C 0.84576(10) 0.22031(11) 0.96408(9)
H2 H 0.8369 0.2427 1.0154
C7 C 0.90788(10) 0.21918(12) 0.83267(9)
H3 H 0.9447 0.2466 0.7918
C8 C 0.79502(10) 0.13510(11) 0.94269(9)
C9 C 0.72928(10) 0.08998(13) 0.99974(9)
O5 O 0.83468(10) -0.00269(8) 0.71499(9)
O6 O 0.69655(11) 0.00315(9) 0.98289(10)
Cd1F Cd 0.899419(7) 0.496143(7) 1.081153(6)
Cd1B Cd 1.100581(7) 0.503857(7) 0.918847(6)
Cd1A Cd 0.600581(7) -0.003857(7) 1.081153(6)
O2F O 0.97377(8) 0.12462(9) 0.50314(6)
O3B O 1.00392(8) -0.09762(9) 0.62661(7)
O6A O 0.80345(11) -0.00315(9) 0.48289(10)
C10 C 0.5702(3) 0.3913(2) 0.9577(2)
H4 H 0.6168 0.4043 1.0017
H5 H 0.5022 0.3747 0.9782
H6 H 0.5624 0.4408 0.9243
N1 N 0.63543(12) 0.06515(15) 0.71732(14)
N2 N 0.61448(14) 0.20510(16) 0.78704(15)
C11 C 0.60467(13) 0.10332(19) 0.78517(17)
H7 H 0.5790 0.0726 0.8288
C12 C 0.65244(15) 0.23453(17) 0.71655(16)
H8 H 0.6661 0.2897 0.6991
C13 C 0.66543(17) 0.1525(2) 0.67601(16)
H9 H 0.6923 0.1517 0.6240
C14 C 0.6368(2) -0.0398(2) 0.6956(3)
H10 H 0.6105 -0.0714 0.7407
H11 H 0.7080 -0.0573 0.6839
H12 H 0.5926 -0.0503 0.6497
C15 C 0.5721(4) 0.2842(3) 0.8365(3)
H13 H 0.5695 0.3320 0.7997
H14 H 0.4994 0.2715 0.8513
C16 C 0.6212(3) 0.3119(3) 0.9038(3)
H15 H 0.6924 0.3287 0.8885
H16 H 0.6283 0.2633 0.9394
loop_
_geom_bond_atom_site_label_1
_geom_bond_atom_site_label_2
_geom_bond_site_symmetry_1
_geom_bond_site_symmetry_2
Cd1 O1 1_555 1_555
C1 C4 1_555 1_555
C2 H1 1_555 1_555
O1 C5 1_555 1_555
O2 C4 1_555 1_555
O3 C4 1_555 1_555
C3 C2 1_555 1_555
C5 C3 1_555 1_555
O4 C9 1_555 1_555
C6 C1 1_555 1_555
H2 C6 1_555 1_555
C7 C1 1_555 1_555
H3 C7 1_555 1_555
C8 C2 1_555 1_555
C9 C8 1_555 1_555
O5 Cd1 1_555 1_555
O6 C9 1_555 1_555
C10 H4 1_555 1_555
H5 C10 1_555 1_555
H6 C10 1_555 1_555
N1 C11 1_555 1_555
N2 C11 1_555 1_555
C11 H7 1_555 1_555
C12 N2 1_555 1_555
H8 C12 1_555 1_555
C13 N1 1_555 1_555
H9 C13 1_555 1_555
C14 N1 1_555 1_555
H10 C14 1_555 1_555
H11 C14 1_555 1_555
H12 C14 1_555 1_555
C15 N2 1_555 1_555
H13 C15 1_555 1_555
H14 C15 1_555 1_555
C16 C10 1_555 1_555
H15 C16 1_555 1_555
H16 C16 1_555 1_555
Cd1F O2 1_555 1_555
Cd1B O3 1_555 1_555
Cd1A O6 1_555 1_555
O2F Cd1 1_555 1_555
O3B Cd1 1_555 1_555
O6A Cd1 1_555 1_555
C3 C7 1_555 1_555
C5 O5 1_555 1_555
C6 C8 1_555 1_555
C12 C13 1_555 1_555
C15 C16 1_555 1_555

#END
