
#######################################################################
#
#                 Cambridge Crystallographic Data Centre
#                                CCDC 
#
#######################################################################
#
# If this CIF has been generated from an entry in the Cambridge 
# Structural Database, then it will include bibliographic, chemical, 
# crystal, experimental, refinement or atomic coordinate data resulting 
# from the CCDC's data processing and validation procedures.
#
#######################################################################

data_SIZHOZ
_symmetry_cell_setting           orthorhombic
_symmetry_space_group_name_H-M   'P n m a'
_symmetry_Int_Tables_number      62
_space_group_name_Hall           '-P 2ac 2n'
loop_
_symmetry_equiv_pos_site_id
_symmetry_equiv_pos_as_xyz
1 x,y,z
2 1/2-x,-y,1/2+z
3 -x,1/2+y,-z
4 1/2+x,1/2-y,1/2-z
5 -x,-y,-z
6 1/2+x,y,1/2-z
7 x,1/2-y,z
8 1/2-x,1/2+y,1/2+z
_cell_length_a                   11.1318(7)
_cell_length_b                   6.6926(4)
_cell_length_c                   17.3114(12)
_cell_angle_alpha                90
_cell_angle_beta                 90
_cell_angle_gamma                90
_cell_volume                     1289.71
loop_
_atom_site_label
_atom_site_type_symbol
_atom_site_fract_x
_atom_site_fract_y
_atom_site_fract_z
U1 U 0.28147(3) 0.2500 0.653852(18)
O1 O 0.2766(4) -0.0138(6) 0.6547(2)
O2 O 0.0921(5) 0.2500 0.7229(3)
O3 O -0.1085(5) 0.2500 0.7306(3)
O4 O 0.4724(6) 0.2500 0.6063(4)
O5 O 0.6146(5) 0.2500 0.5147(4)
N1 N 0.0878(6) 0.2500 0.5729(4)
N2 N 0.3015(6) 0.2500 0.5075(4)
C1 C 0.4093(8) 0.2500 0.4770(5)
C2 C 0.2063(7) 0.2500 0.4589(4)
C3 C 0.0914(7) 0.2500 0.4946(5)
C4 C -0.0132(7) 0.2500 0.4490(5)
C5 C -0.1233(7) 0.2500 0.4868(5)
H1 H -0.1942 0.2500 0.4583
C6 C -0.1279(7) 0.2500 0.5659(5)
H2 H -0.2012 0.2500 0.5916
C7 C -0.0205(8) 0.2500 0.6068(5)
C8 C 0.5097(8) 0.2500 0.5352(6)
C9 C -0.0113(8) 0.2500 0.6933(6)
C10 C 0.0007(8) 0.2500 0.3665(5)
H3 H -0.0673 0.2500 0.3354
C11 C 0.1097(8) 0.2500 0.3334(5)
H4 H 0.1155 0.2500 0.2798
C12 C 0.2160(9) 0.2500 0.3783(4)
C13 C 0.3347(9) 0.2500 0.3479(6)
H5 H 0.3469 0.2500 0.2948
C14 C 0.4306(8) 0.2500 0.3971(6)
H6 H 0.5087 0.2500 0.3779
U1E U -0.21853(3) 0.2500 0.846148(18)
O1F O 0.2766(4) 0.5138(6) 0.6547(2)
O3E O 0.3915(5) 0.2500 0.7694(3)
loop_
_geom_bond_atom_site_label_1
_geom_bond_atom_site_label_2
_geom_bond_site_symmetry_1
_geom_bond_site_symmetry_2
U1 O1 1_555 1_555
O2 U1 1_555 1_555
O3 C9 1_555 1_555
O4 U1 1_555 1_555
O5 C8 1_555 1_555
N1 U1 1_555 1_555
N2 U1 1_555 1_555
C1 N2 1_555 1_555
C2 N2 1_555 1_555
C3 N1 1_555 1_555
C4 C3 1_555 1_555
C5 C4 1_555 1_555
H1 C5 1_555 1_555
C6 C5 1_555 1_555
H2 C6 1_555 1_555
C7 N1 1_555 1_555
C8 O4 1_555 1_555
C9 O2 1_555 1_555
C10 C4 1_555 1_555
H3 C10 1_555 1_555
C11 C10 1_555 1_555
H4 C11 1_555 1_555
C12 C2 1_555 1_555
C13 C12 1_555 1_555
H5 C13 1_555 1_555
C14 C1 1_555 1_555
H6 C14 1_555 1_555
U1E O3 1_555 1_555
O1F U1 1_555 1_555
O3E U1 1_555 1_555
C1 C8 1_555 1_555
C2 C3 1_555 1_555
C6 C7 1_555 1_555
C7 C9 1_555 1_555
C11 C12 1_555 1_555
C13 C14 1_555 1_555

#END
