
#######################################################################
#
#                 Cambridge Crystallographic Data Centre
#                                CCDC 
#
#######################################################################
#
# If this CIF has been generated from an entry in the Cambridge 
# Structural Database, then it will include bibliographic, chemical, 
# crystal, experimental, refinement or atomic coordinate data resulting 
# from the CCDC's data processing and validation procedures.
#
#######################################################################

data_SIZNEW
_symmetry_cell_setting           triclinic
_symmetry_space_group_name_H-M   'P -1'
_symmetry_Int_Tables_number      2
_space_group_name_Hall           '-P 1'
loop_
_symmetry_equiv_pos_site_id
_symmetry_equiv_pos_as_xyz
1 x,y,z
2 -x,-y,-z
_cell_length_a                   7.5497(9)
_cell_length_b                   8.1071(10)
_cell_length_c                   12.7747(16)
_cell_angle_alpha                108.251(2)
_cell_angle_beta                 92.214(2)
_cell_angle_gamma                100.358(2)
_cell_volume                     726.674
loop_
_atom_site_label
_atom_site_type_symbol
_atom_site_fract_x
_atom_site_fract_y
_atom_site_fract_z
Cd1 Cd 1.05626(3) 0.05780(3) 0.233294(17)
O1 O 0.8720(3) -0.0480(4) 0.34065(18)
O2 O 0.6026(3) -0.1736(4) 0.24521(18)
O3 O 1.0686(3) 0.3589(3) 0.24971(18)
O4 O 1.1805(3) 0.1995(3) 0.10411(18)
O5 O 0.7903(3) -0.0228(3) 0.11606(17)
H1 H 0.7164 -0.0741 0.1501
H2 H 0.7920 -0.0772 0.0475
N1 N 0.7156(3) -0.1494(3) 0.6190(2)
N2 N 1.1540(3) 0.7997(3) 0.1447(2)
C1 C 0.6438(4) -0.1700(4) 0.4307(2)
C2 C 0.7620(4) -0.1191(4) 0.5260(2)
H3 H 0.8797 -0.0608 0.5251
C3 C 0.5457(4) -0.2328(4) 0.6190(3)
H4 H 0.5118 -0.2530 0.6839
C4 C 0.4178(4) -0.2905(4) 0.5283(3)
C5 C 0.4703(4) -0.2571(4) 0.4322(3)
H5 H 0.3882 -0.2935 0.3693
C6 C 0.2275(5) -0.3825(5) 0.5343(3)
H6 H 0.2233 -0.4146 0.6005
H7 H 0.1925 -0.4874 0.4708
H8 H 0.1459 -0.3040 0.5354
C7 C 0.7088(4) -0.1285(4) 0.3297(3)
C8 C 1.1738(4) 0.4988(4) 0.1196(2)
C9 C 1.1255(4) 0.6570(4) 0.1782(2)
H9 H 1.0713 0.6642 0.2432
C10 C 1.2327(4) 0.7870(4) 0.0507(3)
H10 H 1.2560 0.8873 0.0288
C11 C 1.2811(4) 0.6351(4) -0.0153(2)
C12 C 1.2523(4) 0.4898(4) 0.0219(2)
H11 H 1.2860 0.3854 -0.0190
C13 C 1.1383(4) 0.3426(4) 0.1610(2)
C14 C 1.3578(5) 0.6286(5) -0.1228(3)
H12 H 1.3993 0.5195 -0.1524
H13 H 1.4575 0.7268 -0.1103
H14 H 1.2659 0.6352 -0.1745
Cd1_2 Cd 1.05626(3) 1.05780(3) 0.233294(17)
Cd1A Cd 0.94374(3) -0.05780(3) 0.766706(17)
N1A N 1.2844(3) 0.1494(3) 0.3810(2)
N2_2 N 1.1540(3) -0.2003(3) 0.1447(2)
loop_
_geom_bond_atom_site_label_1
_geom_bond_atom_site_label_2
_geom_bond_site_symmetry_1
_geom_bond_site_symmetry_2
Cd1 O1 1_555 1_555
O1 C7 1_555 1_555
O2 C7 1_555 1_555
O3 Cd1 1_555 1_555
O4 Cd1 1_555 1_555
O5 Cd1 1_555 1_555
H1 O5 1_555 1_555
H2 O5 1_555 1_555
N1 C2 1_555 1_555
N2 C9 1_555 1_555
C1 C2 1_555 1_555
C2 H3 1_555 1_555
C3 N1 1_555 1_555
H4 C3 1_555 1_555
C4 C3 1_555 1_555
C5 C1 1_555 1_555
H5 C5 1_555 1_555
C6 C4 1_555 1_555
H6 C6 1_555 1_555
H7 C6 1_555 1_555
H8 C6 1_555 1_555
C7 C1 1_555 1_555
C8 C9 1_555 1_555
C9 H9 1_555 1_555
C10 N2 1_555 1_555
H10 C10 1_555 1_555
C11 C10 1_555 1_555
C12 C8 1_555 1_555
H11 C12 1_555 1_555
C13 O3 1_555 1_555
C14 C11 1_555 1_555
H12 C14 1_555 1_555
H13 C14 1_555 1_555
H14 C14 1_555 1_555
Cd1_2 N2 1_555 1_555
Cd1A N1 1_555 1_555
N1A Cd1 1_555 1_555
N2_2 Cd1 1_555 1_555
O4 C13 1_555 1_555
C4 C5 1_555 1_555
C8 C13 1_555 1_555
C11 C12 1_555 1_555

#END
