
#######################################################################
#
#                 Cambridge Crystallographic Data Centre
#                                CCDC 
#
#######################################################################
#
# If this CIF has been generated from an entry in the Cambridge 
# Structural Database, then it will include bibliographic, chemical, 
# crystal, experimental, refinement or atomic coordinate data resulting 
# from the CCDC's data processing and validation procedures.
#
#######################################################################

data_SIZNUM
_symmetry_cell_setting           monoclinic
_symmetry_space_group_name_H-M   'P 21/c'
_symmetry_Int_Tables_number      14
_space_group_name_Hall           '-P 2ybc'
loop_
_symmetry_equiv_pos_site_id
_symmetry_equiv_pos_as_xyz
1 x,y,z
2 -x,1/2+y,1/2-z
3 -x,-y,-z
4 x,1/2-y,1/2+z
_cell_length_a                   10.0704(5)
_cell_length_b                   10.1890(5)
_cell_length_c                   7.1745(4)
_cell_angle_alpha                90
_cell_angle_beta                 101.7970(10)
_cell_angle_gamma                90
_cell_volume                     720.607
loop_
_atom_site_label
_atom_site_type_symbol
_atom_site_fract_x
_atom_site_fract_y
_atom_site_fract_z
Mn1 Mn 0.0000 0.5000 0.0000
O1 O 0.20831(11) 1.12025(10) 0.05806(16)
O2 O 0.07438(12) 1.04404(12) 0.24410(16)
O3 O 0.15668(12) 0.36901(11) 0.15794(16)
H1 H 0.1660 0.2907 0.1217
H2 H 0.1737 0.3788 0.2782
N1 N 0.15693(13) 0.66183(13) 0.08166(19)
C1 C 0.28563(16) 0.64097(15) 0.0650(2)
H3 H 0.3129 0.5548 0.0522
C2 C 0.38033(16) 0.73967(16) 0.0658(2)
C3 C 0.33669(16) 0.86765(15) 0.0827(2)
H4 H 0.3950 0.9375 0.0759
C4 C 0.20615(16) 0.89160(15) 0.1097(2)
C5 C 0.12025(16) 0.78522(15) 0.1093(2)
H5 H 0.0331 0.8004 0.1292
C6 C 0.52378(17) 0.70692(19) 0.0503(3)
H6 H 0.5703 0.6673 0.1668
H7 H 0.5701 0.7858 0.0274
H8 H 0.5222 0.6468 -0.0532
C7 C 0.15875(16) 1.02892(15) 0.1400(2)
O1B O -0.20831(11) -0.12025(10) -0.05806(16)
O2B O -0.07438(12) -0.04404(12) -0.24410(16)
O3B O -0.15668(12) 0.63099(11) -0.15794(16)
H1B H -0.1660 0.7093 -0.1217
H2B H -0.1737 0.6212 -0.2782
N1B N -0.15693(13) 0.33817(13) -0.08166(19)
C1B C -0.28563(16) 0.35903(15) -0.0650(2)
H3B H -0.3129 0.4452 -0.0522
C2B C -0.38033(16) 0.26033(16) -0.0658(2)
C3B C -0.33669(16) 0.13235(15) -0.0827(2)
H4B H -0.3950 0.0625 -0.0759
C4B C -0.20615(16) 0.10840(15) -0.1097(2)
C5B C -0.12025(16) 0.21478(15) -0.1093(2)
H5B H -0.0331 0.1996 -0.1292
C6B C -0.52378(17) 0.29308(19) -0.0503(3)
H6B H -0.5703 0.3327 -0.1668
H7B H -0.5701 0.2142 -0.0274
H8B H -0.5222 0.3532 0.0532
C7B C -0.15875(16) -0.02892(15) -0.1400(2)
Mn1A Mn 0.0000 0.0000 -0.5000
Mn1A_2 Mn 0.0000 1.0000 0.5000
O2A O -0.07438(12) 0.54404(12) 0.25590(16)
O2C O 0.07438(12) 0.45596(12) -0.25590(16)
loop_
_geom_bond_atom_site_label_1
_geom_bond_atom_site_label_2
_geom_bond_site_symmetry_1
_geom_bond_site_symmetry_2
Mn1 O3 1_555 1_555
O1 C7 1_555 1_555
O2 C7 1_555 1_555
O3 H1 1_555 1_555
H2 O3 1_555 1_555
N1 Mn1 1_555 1_555
C1 N1 1_555 1_555
H3 C1 1_555 1_555
C2 C1 1_555 1_555
C3 C2 1_555 1_555
H4 C3 1_555 1_555
C4 C3 1_555 1_555
C5 N1 1_555 1_555
H5 C5 1_555 1_555
C6 C2 1_555 1_555
H6 C6 1_555 1_555
H7 C6 1_555 1_555
H8 C6 1_555 1_555
C7 C4 1_555 1_555
O1B C7B 1_555 1_555
O2B C7B 1_555 1_555
O3B Mn1 1_555 1_555
H1B O3B 1_555 1_555
H2B O3B 1_555 1_555
N1B Mn1 1_555 1_555
C1B N1B 1_555 1_555
H3B C1B 1_555 1_555
C2B C1B 1_555 1_555
C3B C2B 1_555 1_555
H4B C3B 1_555 1_555
C4B C3B 1_555 1_555
C5B N1B 1_555 1_555
H5B C5B 1_555 1_555
C6B C2B 1_555 1_555
H6B C6B 1_555 1_555
H7B C6B 1_555 1_555
H8B C6B 1_555 1_555
C7B C4B 1_555 1_555
Mn1A O2B 1_555 1_555
Mn1A_2 O2 1_555 1_555
O2A Mn1 1_555 1_555
O2C Mn1 1_555 1_555
C4 C5 1_555 1_555
C4B C5B 1_555 1_555

#END
