
#######################################################################
#
#                 Cambridge Crystallographic Data Centre
#                                CCDC 
#
#######################################################################
#
# If this CIF has been generated from an entry in the Cambridge 
# Structural Database, then it will include bibliographic, chemical, 
# crystal, experimental, refinement or atomic coordinate data resulting 
# from the CCDC's data processing and validation procedures.
#
#######################################################################

data_SIZNOG
_symmetry_cell_setting           monoclinic
_symmetry_space_group_name_H-M   'C 2/c'
_symmetry_Int_Tables_number      15
_space_group_name_Hall           '-C 2yn'
loop_
_symmetry_equiv_pos_site_id
_symmetry_equiv_pos_as_xyz
1 x,y,z
2 -x,y,1/2-z
3 1/2+x,1/2+y,z
4 1/2-x,1/2+y,1/2-z
5 -x,-y,-z
6 x,-y,1/2+z
7 1/2-x,1/2-y,-z
8 1/2+x,1/2-y,1/2+z
_cell_length_a                   26.420(2)
_cell_length_b                   8.6861(7)
_cell_length_c                   16.7178(13)
_cell_angle_alpha                90
_cell_angle_beta                 115.6680(10)
_cell_angle_gamma                90
_cell_volume                     3457.92
loop_
_atom_site_label
_atom_site_type_symbol
_atom_site_fract_x
_atom_site_fract_y
_atom_site_fract_z
Co1 Co 1.0000 0.0000 0.5000
Co2 Co 0.7500 0.2500 0.0000
O1 O 1.17099(5) 0.30542(15) 0.48079(9)
O2 O 1.15421(6) 0.54784(17) 0.43470(12)
O3 O 0.91849(5) 0.00720(15) 0.40387(8)
O4 O 0.92430(6) -0.03064(17) 0.27585(9)
O5 O 1.02528(5) -0.10932(16) 0.40988(9)
H1 H 1.0579 -0.1075 0.4116
H2 H 0.9995 -0.0919 0.3583
O6 O 0.73228(6) 0.48593(14) 0.01596(9)
H3 H 0.7030 0.5368 -0.0162
H4 H 0.7646 0.5268 0.0344
N1 N 1.01463(6) 0.22211(18) 0.45485(10)
N2 N 0.77912(6) 0.21974(18) 0.13999(10)
C1 C 1.13936(7) 0.4200(2) 0.45064(12)
C2 C 1.07926(7) 0.3927(2) 0.43413(12)
C3 C 1.03616(8) 0.4964(2) 0.39053(13)
H5 H 1.0436 0.5888 0.3696
C4 C 0.98180(8) 0.4623(2) 0.37807(13)
C5 C 0.97399(7) 0.3258(2) 0.41331(12)
H6 H 0.9382 0.3041 0.4079
C6 C 1.06616(8) 0.2563(2) 0.46408(12)
H7 H 1.0947 0.1851 0.4920
C7 C 0.93284(9) 0.5683(3) 0.32901(17)
H8 H 0.9192 0.5523 0.2663
H9 H 0.9448 0.6733 0.3431
H10 H 0.9034 0.5469 0.3464
C8 C 0.90077(7) 0.0203(2) 0.32101(12)
C9 C 0.84622(7) 0.1065(2) 0.27419(11)
C10 C 0.82841(7) 0.1514(2) 0.18666(11)
H11 H 0.8519 0.1330 0.1592
C11 C 0.74633(8) 0.2480(2) 0.18087(13)
H12 H 0.7118 0.2951 0.1484
C12 C 0.76073(9) 0.2112(3) 0.26863(14)
C13 C 0.81208(8) 0.1392(2) 0.31559(12)
H13 H 0.8235 0.1130 0.3748
C14 C 0.72131(13) 0.2471(4) 0.31002(18)
H14 H 0.6860 0.2821 0.2649
H15 H 0.7374 0.3260 0.3540
H16 H 0.7154 0.1559 0.3374
O1A O 0.82901(5) 0.30542(15) 0.01921(9)
O2A O 0.84579(6) 0.54784(17) 0.06530(12)
N1A N 0.98537(6) 0.22211(18) 0.04515(10)
C1A C 0.86064(7) 0.4200(2) 0.04936(12)
C2A C 0.92074(7) 0.3927(2) 0.06587(12)
C3A C 0.96384(8) 0.4964(2) 0.10947(13)
H5A H 0.9564 0.5888 0.1304
C4A C 1.01820(8) 0.4623(2) 0.12193(13)
C5A C 1.02601(7) 0.3258(2) 0.08669(12)
H6A H 1.0618 0.3041 0.0921
C6A C 0.93384(8) 0.2563(2) 0.03592(12)
H7A H 0.9053 0.1851 0.0080
C7A C 1.06716(9) 0.5683(3) 0.17099(17)
H8A H 1.0808 0.5523 0.2337
H9A H 1.0552 0.6733 0.1569
H10A H 1.0966 0.5469 0.1536
O3D O 1.08151(5) -0.00720(15) 0.59613(8)
O4D O 1.07570(6) 0.03064(17) 0.72415(9)
N2D N 1.22088(6) -0.21974(18) 0.86001(10)
C8D C 1.09923(7) -0.0203(2) 0.67899(12)
C9D C 1.15378(7) -0.1065(2) 0.72581(11)
C10D C 1.17159(7) -0.1514(2) 0.81334(11)
H11D H 1.1481 -0.1330 0.8408
C11D C 1.25367(8) -0.2480(2) 0.81913(13)
H12D H 1.2882 -0.2951 0.8516
C12D C 1.23927(9) -0.2112(3) 0.73137(14)
C13D C 1.18792(8) -0.1392(2) 0.68441(12)
H13D H 1.1765 -0.1130 0.6252
C14D C 1.27869(13) -0.2471(4) 0.68998(18)
H14D H 1.3140 -0.2821 0.7351
H15D H 1.2626 -0.3260 0.6460
H16D H 1.2846 -0.1559 0.6626
O5D O 0.97472(5) 0.10932(16) 0.59012(9)
H1D H 0.9421 0.1075 0.5884
H2D H 1.0005 0.0919 0.6417
O6F O 0.76772(6) 0.01407(14) -0.01596(9)
H3F H 0.7970 -0.0368 0.0162
H4F H 0.7354 -0.0268 -0.0344
Co1A Co 1.0000 0.0000 0.0000
Co2A Co 1.2500 0.2500 0.5000
Co2B Co 1.2500 -0.2500 1.0000
O1G O 0.67099(5) 0.19458(15) -0.01921(9)
N1D N 0.98537(6) -0.22211(18) 0.54515(10)
N2F N 0.72088(6) 0.28026(18) -0.13999(10)
O7 O 0.87006(6) 0.85940(15) 0.09824(9)
H17 H 0.8659 0.7622 0.0961
H18 H 0.8840 0.8771 0.1537
loop_
_geom_bond_atom_site_label_1
_geom_bond_atom_site_label_2
_geom_bond_site_symmetry_1
_geom_bond_site_symmetry_2
Co1 O3 1_555 1_555
Co2 O6 1_555 1_555
O1 C1 1_555 1_555
O2 C1 1_555 1_555
O3 C8 1_555 1_555
O4 C8 1_555 1_555
O5 Co1 1_555 1_555
H1 O5 1_555 1_555
H2 O5 1_555 1_555
O6 H3 1_555 1_555
H4 O6 1_555 1_555
N1 Co1 1_555 1_555
N2 Co2 1_555 1_555
C1 C2 1_555 1_555
C2 C3 1_555 1_555
C3 H5 1_555 1_555
C4 C3 1_555 1_555
C5 N1 1_555 1_555
H6 C5 1_555 1_555
C6 N1 1_555 1_555
H7 C6 1_555 1_555
C7 C4 1_555 1_555
H8 C7 1_555 1_555
H9 C7 1_555 1_555
H10 C7 1_555 1_555
C8 C9 1_555 1_555
C9 C10 1_555 1_555
C10 N2 1_555 1_555
H11 C10 1_555 1_555
C11 N2 1_555 1_555
H12 C11 1_555 1_555
C12 C11 1_555 1_555
C13 C9 1_555 1_555
H13 C13 1_555 1_555
C14 C12 1_555 1_555
H14 C14 1_555 1_555
H15 C14 1_555 1_555
H16 C14 1_555 1_555
O7 H17 1_555 1_555
H18 O7 1_555 1_555
O1A Co2 1_555 1_555
O2A C1A 1_555 1_555
N1A C5A 1_555 1_555
C1A O1A 1_555 1_555
C2A C1A 1_555 1_555
C3A C2A 1_555 1_555
H5A C3A 1_555 1_555
C4A C3A 1_555 1_555
C5A C4A 1_555 1_555
H6A C5A 1_555 1_555
C6A N1A 1_555 1_555
H7A C6A 1_555 1_555
C7A C4A 1_555 1_555
H8A C7A 1_555 1_555
H9A C7A 1_555 1_555
H10A C7A 1_555 1_555
O3D Co1 1_555 1_555
O4D C8D 1_555 1_555
N2D C10D 1_555 1_555
C8D O3D 1_555 1_555
C9D C8D 1_555 1_555
C10D C9D 1_555 1_555
H11D C10D 1_555 1_555
C11D N2D 1_555 1_555
H12D C11D 1_555 1_555
C12D C11D 1_555 1_555
C13D C9D 1_555 1_555
H13D C13D 1_555 1_555
C14D C12D 1_555 1_555
H14D C14D 1_555 1_555
H15D C14D 1_555 1_555
H16D C14D 1_555 1_555
O5D Co1 1_555 1_555
H1D O5D 1_555 1_555
H2D O5D 1_555 1_555
O6F Co2 1_555 1_555
H3F O6F 1_555 1_555
H4F O6F 1_555 1_555
Co1A N1A 1_555 1_555
Co2A O1 1_555 1_555
Co2B N2D 1_555 1_555
O1G Co2 1_555 1_555
N1D Co1 1_555 1_555
N2F Co2 1_555 1_555
C2 C6 1_555 1_555
C4 C5 1_555 1_555
C12 C13 1_555 1_555
C2A C6A 1_555 1_555
C12D C13D 1_555 1_555

#END
