
#######################################################################
#
#                 Cambridge Crystallographic Data Centre
#                                CCDC 
#
#######################################################################
#
# If this CIF has been generated from an entry in the Cambridge 
# Structural Database, then it will include bibliographic, chemical, 
# crystal, experimental, refinement or atomic coordinate data resulting 
# from the CCDC's data processing and validation procedures.
#
#######################################################################

data_SIZPUN
_symmetry_cell_setting           cubic
_symmetry_space_group_name_H-M   'F m -3 m'
_symmetry_Int_Tables_number      225
_space_group_name_Hall           '-F 4 2 3'
loop_
_symmetry_equiv_pos_site_id
_symmetry_equiv_pos_as_xyz
1 x,y,z
2 z,x,y
3 y,z,x
4 y,x,-z
5 y,-x,z
6 -y,x,z
7 x,z,-y
8 -x,z,y
9 x,-z,y
10 z,y,-x
11 z,-y,x
12 -z,y,x
13 x,1/2+y,1/2+z
14 z,1/2+x,1/2+y
15 y,1/2+z,1/2+x
16 y,1/2+x,1/2-z
17 y,1/2-x,1/2+z
18 -y,1/2+x,1/2+z
19 x,1/2+z,1/2-y
20 -x,1/2+z,1/2+y
21 x,1/2-z,1/2+y
22 z,1/2+y,1/2-x
23 z,1/2-y,1/2+x
24 -z,1/2+y,1/2+x
25 1/2+x,y,1/2+z
26 1/2+z,x,1/2+y
27 1/2+y,z,1/2+x
28 1/2+y,x,1/2-z
29 1/2+y,-x,1/2+z
30 1/2-y,x,1/2+z
31 1/2+x,z,1/2-y
32 1/2-x,z,1/2+y
33 1/2+x,-z,1/2+y
34 1/2+z,y,1/2-x
35 1/2+z,-y,1/2+x
36 1/2-z,y,1/2+x
37 1/2+x,1/2+y,z
38 1/2+z,1/2+x,y
39 1/2+y,1/2+z,x
40 1/2+y,1/2+x,-z
41 1/2+y,1/2-x,z
42 1/2-y,1/2+x,z
43 1/2+x,1/2+z,-y
44 1/2-x,1/2+z,y
45 1/2+x,1/2-z,y
46 1/2+z,1/2+y,-x
47 1/2+z,1/2-y,x
48 1/2-z,1/2+y,x
49 -x,-y,z
50 -x,y,-z
51 x,-y,-z
52 z,-x,-y
53 -z,-x,y
54 -z,x,-y
55 -y,z,-x
56 y,-z,-x
57 -y,-z,x
58 -y,-x,-z
59 -x,-z,-y
60 -z,-y,-x
61 -x,1/2-y,1/2+z
62 -x,1/2+y,1/2-z
63 x,1/2-y,1/2-z
64 z,1/2-x,1/2-y
65 -z,1/2-x,1/2+y
66 -z,1/2+x,1/2-y
67 -y,1/2+z,1/2-x
68 y,1/2-z,1/2-x
69 -y,1/2-z,1/2+x
70 -y,1/2-x,1/2-z
71 -x,1/2-z,1/2-y
72 -z,1/2-y,1/2-x
73 1/2-x,-y,1/2+z
74 1/2-x,y,1/2-z
75 1/2+x,-y,1/2-z
76 1/2+z,-x,1/2-y
77 1/2-z,-x,1/2+y
78 1/2-z,x,1/2-y
79 1/2-y,z,1/2-x
80 1/2+y,-z,1/2-x
81 1/2-y,-z,1/2+x
82 1/2-y,-x,1/2-z
83 1/2-x,-z,1/2-y
84 1/2-z,-y,1/2-x
85 1/2-x,1/2-y,z
86 1/2-x,1/2+y,-z
87 1/2+x,1/2-y,-z
88 1/2+z,1/2-x,-y
89 1/2-z,1/2-x,y
90 1/2-z,1/2+x,-y
91 1/2-y,1/2+z,-x
92 1/2+y,1/2-z,-x
93 1/2-y,1/2-z,x
94 1/2-y,1/2-x,-z
95 1/2-x,1/2-z,-y
96 1/2-z,1/2-y,-x
97 -x,-y,-z
98 -z,-x,-y
99 -y,-z,-x
100 -y,-x,z
101 -y,x,-z
102 y,-x,-z
103 -x,-z,y
104 x,-z,-y
105 -x,z,-y
106 -z,-y,x
107 -z,y,-x
108 z,-y,-x
109 -x,1/2-y,1/2-z
110 -z,1/2-x,1/2-y
111 -y,1/2-z,1/2-x
112 -y,1/2-x,1/2+z
113 -y,1/2+x,1/2-z
114 y,1/2-x,1/2-z
115 -x,1/2-z,1/2+y
116 x,1/2-z,1/2-y
117 -x,1/2+z,1/2-y
118 -z,1/2-y,1/2+x
119 -z,1/2+y,1/2-x
120 z,1/2-y,1/2-x
121 1/2-x,-y,1/2-z
122 1/2-z,-x,1/2-y
123 1/2-y,-z,1/2-x
124 1/2-y,-x,1/2+z
125 1/2-y,x,1/2-z
126 1/2+y,-x,1/2-z
127 1/2-x,-z,1/2+y
128 1/2+x,-z,1/2-y
129 1/2-x,z,1/2-y
130 1/2-z,-y,1/2+x
131 1/2-z,y,1/2-x
132 1/2+z,-y,1/2-x
133 1/2-x,1/2-y,-z
134 1/2-z,1/2-x,-y
135 1/2-y,1/2-z,-x
136 1/2-y,1/2-x,z
137 1/2-y,1/2+x,-z
138 1/2+y,1/2-x,-z
139 1/2-x,1/2-z,y
140 1/2+x,1/2-z,-y
141 1/2-x,1/2+z,-y
142 1/2-z,1/2-y,x
143 1/2-z,1/2+y,-x
144 1/2+z,1/2-y,-x
145 x,y,-z
146 x,-y,z
147 -x,y,z
148 -z,x,y
149 z,x,-y
150 z,-x,y
151 y,-z,x
152 -y,z,x
153 y,z,-x
154 y,x,z
155 x,z,y
156 z,y,x
157 x,1/2+y,1/2-z
158 x,1/2-y,1/2+z
159 -x,1/2+y,1/2+z
160 -z,1/2+x,1/2+y
161 z,1/2+x,1/2-y
162 z,1/2-x,1/2+y
163 y,1/2-z,1/2+x
164 -y,1/2+z,1/2+x
165 y,1/2+z,1/2-x
166 y,1/2+x,1/2+z
167 x,1/2+z,1/2+y
168 z,1/2+y,1/2+x
169 1/2+x,y,1/2-z
170 1/2+x,-y,1/2+z
171 1/2-x,y,1/2+z
172 1/2-z,x,1/2+y
173 1/2+z,x,1/2-y
174 1/2+z,-x,1/2+y
175 1/2+y,-z,1/2+x
176 1/2-y,z,1/2+x
177 1/2+y,z,1/2-x
178 1/2+y,x,1/2+z
179 1/2+x,z,1/2+y
180 1/2+z,y,1/2+x
181 1/2+x,1/2+y,-z
182 1/2+x,1/2-y,z
183 1/2-x,1/2+y,z
184 1/2-z,1/2+x,y
185 1/2+z,1/2+x,-y
186 1/2+z,1/2-x,y
187 1/2+y,1/2-z,x
188 1/2-y,1/2+z,x
189 1/2+y,1/2+z,-x
190 1/2+y,1/2+x,z
191 1/2+x,1/2+z,y
192 1/2+z,1/2+y,x
_cell_length_a                   42.005(5)
_cell_length_b                   42.005(5)
_cell_length_c                   42.005(5)
_cell_angle_alpha                90
_cell_angle_beta                 90
_cell_angle_gamma                90
_cell_volume                     74114.5
loop_
_atom_site_label
_atom_site_type_symbol
_atom_site_fract_x
_atom_site_fract_y
_atom_site_fract_z
Zn1 Zn 0.817684(19) 0.5000 0.817684(19)
Zn2 Zn 0.868491(18) 0.5000 0.868491(18)
O1 O 0.80136(19) 0.53176(15) 0.8468(2)
O2 O 0.8400(2) 0.53224(18) 0.8842(2)
O3 O 0.7137(11) 0.6548(8) 0.9142(7)
N1 N 0.7243(3) 0.6198(2) 0.8802(2)
C1 C 0.8147(3) 0.5455(2) 0.8695(4)
C2 C 0.7969(3) 0.5688(3) 0.8871(3)
C3 C 0.7693(2) 0.5831(3) 0.8777(3)
H1 H 0.7602 0.5754 0.8585
C4 C 0.7533(4) 0.6071(4) 0.8929(4)
C5 C 0.8110(6) 0.5848(3) 0.9152(3)
H2 H 0.8302 0.5764 0.9236
C6 C 0.7053(4) 0.6447(5) 0.8872(6)
C7 C 0.6776(3) 0.6548(2) 0.8691(3)
O4 O 0.7828(5) 0.5000 0.7828(5)
O5 O 0.9014(3) 0.5000 0.9014(3)
Zn1B Zn 0.5000 0.817684(19) 0.817684(19)
Zn1EA Zn 0.682316(19) 0.817684(19) 1.0000
Zn1PD Zn 0.682316(19) 0.5000 0.682316(19)
Zn1FD Zn 0.5000 0.682316(19) 0.682316(19)
Zn1T Zn 0.817684(19) 0.682316(19) 1.0000
Zn1H Zn 0.817684(19) 0.182316(19) 0.5000
Zn1RD Zn 1.0000 0.182316(19) 0.682316(19)
Zn1QA Zn 0.682316(19) 0.317684(19) 0.5000
Zn1LA Zn 1.0000 0.317684(19) 0.817684(19)
Zn1D Zn 0.5000 0.182316(19) 0.817684(19)
Zn1QD Zn 0.682316(19) 0.182316(19) 1.0000
Zn1O Zn 0.5000 0.317684(19) 0.682316(19)
Zn1M Zn 0.817684(19) 0.317684(19) 1.0000
Zn1A Zn 0.817684(19) 0.817684(19) 0.5000
Zn1AA Zn 1.0000 0.817684(19) 0.682316(19)
Zn1CE Zn 0.682316(19) 0.682316(19) 0.5000
Zn1NA Zn 1.0000 0.682316(19) 0.817684(19)
Zn2B Zn 0.5000 0.868491(18) 0.868491(18)
Zn2EA Zn 0.631509(18) 0.868491(18) 1.0000
Zn2PD Zn 0.631509(18) 0.5000 0.631509(18)
Zn2FD Zn 0.5000 0.631509(18) 0.631509(18)
Zn2T Zn 0.868491(18) 0.631509(18) 1.0000
Zn2H Zn 0.868491(18) 0.131509(18) 0.5000
Zn2RD Zn 1.0000 0.131509(18) 0.631509(18)
Zn2QA Zn 0.631509(18) 0.368491(18) 0.5000
Zn2LA Zn 1.0000 0.368491(18) 0.868491(18)
Zn2D Zn 0.5000 0.131509(18) 0.868491(18)
Zn2QD Zn 0.631509(18) 0.131509(18) 1.0000
Zn2O Zn 0.5000 0.368491(18) 0.631509(18)
Zn2M Zn 0.868491(18) 0.368491(18) 1.0000
Zn2A Zn 0.868491(18) 0.868491(18) 0.5000
Zn2AA Zn 1.0000 0.868491(18) 0.631509(18)
Zn2CE Zn 0.631509(18) 0.631509(18) 0.5000
Zn2NA Zn 1.0000 0.631509(18) 0.868491(18)
O1WE O 0.53176(15) 0.80136(19) 0.8468(2)
O1YB O 0.6532(2) 0.80136(19) 0.96824(15)
O1ZD O 0.6532(2) 0.53176(15) 0.69864(19)
O1OB O 0.53176(15) 0.6532(2) 0.69864(19)
O1KD O 0.80136(19) 0.6532(2) 0.96824(15)
O1J O 0.8468(2) 0.46824(15) 0.80136(19)
O1SE O 0.8468(2) 0.19864(19) 0.53176(15)
O1CC O 0.96824(15) 0.19864(19) 0.6532(2)
O1PD O 0.69864(19) 0.46824(15) 0.6532(2)
O1QA O 0.69864(19) 0.3468(2) 0.53176(15)
O1EG O 0.96824(15) 0.3468(2) 0.80136(19)
O1OE O 0.80136(19) 0.46824(15) 0.8468(2)
O1D O 0.53176(15) 0.19864(19) 0.8468(2)
O1QD O 0.6532(2) 0.19864(19) 0.96824(15)
O1EC O 0.6532(2) 0.46824(15) 0.69864(19)
O1HF O 0.53176(15) 0.3468(2) 0.69864(19)
O1R O 0.80136(19) 0.3468(2) 0.96824(15)
O1YE O 0.8468(2) 0.53176(15) 0.80136(19)
O1A O 0.8468(2) 0.80136(19) 0.53176(15)
O1TD O 0.96824(15) 0.80136(19) 0.6532(2)
O1UB O 0.69864(19) 0.53176(15) 0.6532(2)
O1HE O 0.69864(19) 0.6532(2) 0.53176(15)
O1NC O 0.96824(15) 0.6532(2) 0.80136(19)
O1B O 0.53176(15) 0.8468(2) 0.80136(19)
O1E O 0.46824(15) 0.80136(19) 0.8468(2)
O1UE O 0.46824(15) 0.8468(2) 0.80136(19)
O1EA O 0.69864(19) 0.8468(2) 1.03176(15)
O1OF O 0.6532(2) 0.80136(19) 1.03176(15)
O1XD O 0.69864(19) 0.8468(2) 0.96824(15)
O1FD O 0.46824(15) 0.6532(2) 0.69864(19)
O1ID O 0.53176(15) 0.69864(19) 0.6532(2)
O1QB O 0.46824(15) 0.69864(19) 0.6532(2)
O1T O 0.80136(19) 0.6532(2) 1.03176(15)
O1EF O 0.8468(2) 0.69864(19) 1.03176(15)
O1KB O 0.8468(2) 0.69864(19) 0.96824(15)
O2WE O 0.53224(18) 0.8400(2) 0.8842(2)
O2YB O 0.6158(2) 0.8400(2) 0.96776(18)
O2ZD O 0.6158(2) 0.53224(18) 0.6600(2)
O2OB O 0.53224(18) 0.6158(2) 0.6600(2)
O2KD O 0.8400(2) 0.6158(2) 0.96776(18)
O2J O 0.8842(2) 0.46776(18) 0.8400(2)
O2SE O 0.8842(2) 0.1600(2) 0.53224(18)
O2CC O 0.96776(18) 0.1600(2) 0.6158(2)
O2PD O 0.6600(2) 0.46776(18) 0.6158(2)
O2QA O 0.6600(2) 0.3842(2) 0.53224(18)
O2EG O 0.96776(18) 0.3842(2) 0.8400(2)
O2OE O 0.8400(2) 0.46776(18) 0.8842(2)
O2D O 0.53224(18) 0.1600(2) 0.8842(2)
O2QD O 0.6158(2) 0.1600(2) 0.96776(18)
O2EC O 0.6158(2) 0.46776(18) 0.6600(2)
O2HF O 0.53224(18) 0.3842(2) 0.6600(2)
O2R O 0.8400(2) 0.3842(2) 0.96776(18)
O2YE O 0.8842(2) 0.53224(18) 0.8400(2)
O2A O 0.8842(2) 0.8400(2) 0.53224(18)
O2TD O 0.96776(18) 0.8400(2) 0.6158(2)
O2UB O 0.6600(2) 0.53224(18) 0.6158(2)
O2HE O 0.6600(2) 0.6158(2) 0.53224(18)
O2NC O 0.96776(18) 0.6158(2) 0.8400(2)
O2B O 0.53224(18) 0.8842(2) 0.8400(2)
O2E O 0.46776(18) 0.8400(2) 0.8842(2)
O2UE O 0.46776(18) 0.8842(2) 0.8400(2)
O2EA O 0.6600(2) 0.8842(2) 1.03224(18)
O2OF O 0.6158(2) 0.8400(2) 1.03224(18)
O2XD O 0.6600(2) 0.8842(2) 0.96776(18)
O2FD O 0.46776(18) 0.6158(2) 0.6600(2)
O2ID O 0.53224(18) 0.6600(2) 0.6158(2)
O2QB O 0.46776(18) 0.6600(2) 0.6158(2)
O2T O 0.8400(2) 0.6158(2) 1.03224(18)
O2EF O 0.8842(2) 0.6600(2) 1.03224(18)
O2KB O 0.8842(2) 0.6600(2) 0.96776(18)
O3WE O 0.6548(8) 0.7137(11) 0.9142(7)
O3YB O 0.5858(7) 0.7137(11) 0.8452(8)
O3ZD O 0.5858(7) 0.6548(8) 0.7863(11)
O3OB O 0.6548(8) 0.5858(7) 0.7863(11)
O3KD O 0.7137(11) 0.5858(7) 0.8452(8)
O3J O 0.9142(7) 0.3452(8) 0.7137(11)
O3SE O 0.9142(7) 0.2863(11) 0.6548(8)
O3CC O 0.8452(8) 0.2863(11) 0.5858(7)
O3PD O 0.7863(11) 0.3452(8) 0.5858(7)
O3QA O 0.7863(11) 0.4142(7) 0.6548(8)
O3EG O 0.8452(8) 0.4142(7) 0.7137(11)
O3OE O 0.7137(11) 0.3452(8) 0.9142(7)
O3D O 0.6548(8) 0.2863(11) 0.9142(7)
O3QD O 0.5858(7) 0.2863(11) 0.8452(8)
O3EC O 0.5858(7) 0.3452(8) 0.7863(11)
O3HF O 0.6548(8) 0.4142(7) 0.7863(11)
O3R O 0.7137(11) 0.4142(7) 0.8452(8)
O3YE O 0.9142(7) 0.6548(8) 0.7137(11)
O3A O 0.9142(7) 0.7137(11) 0.6548(8)
O3TD O 0.8452(8) 0.7137(11) 0.5858(7)
O3UB O 0.7863(11) 0.6548(8) 0.5858(7)
O3HE O 0.7863(11) 0.5858(7) 0.6548(8)
O3NC O 0.8452(8) 0.5858(7) 0.7137(11)
N1WE N 0.6198(2) 0.7243(3) 0.8802(2)
N1ZD N 0.6198(2) 0.6198(2) 0.7757(3)
N1J N 0.8802(2) 0.3802(2) 0.7243(3)
N1SE N 0.8802(2) 0.2757(3) 0.6198(2)
N1QA N 0.7757(3) 0.3802(2) 0.6198(2)
N1R N 0.7243(3) 0.3802(2) 0.8802(2)
N1D N 0.6198(2) 0.2757(3) 0.8802(2)
N1HF N 0.6198(2) 0.3802(2) 0.7757(3)
N1YE N 0.8802(2) 0.6198(2) 0.7243(3)
N1A N 0.8802(2) 0.7243(3) 0.6198(2)
N1HE N 0.7757(3) 0.6198(2) 0.6198(2)
C1WE C 0.5455(2) 0.8147(3) 0.8695(4)
C1YB C 0.6305(4) 0.8147(3) 0.9545(2)
C1ZD C 0.6305(4) 0.5455(2) 0.6853(3)
C1OB C 0.5455(2) 0.6305(4) 0.6853(3)
C1KD C 0.8147(3) 0.6305(4) 0.9545(2)
C1J C 0.8695(4) 0.4545(2) 0.8147(3)
C1SE C 0.8695(4) 0.1853(3) 0.5455(2)
C1CC C 0.9545(2) 0.1853(3) 0.6305(4)
C1PD C 0.6853(3) 0.4545(2) 0.6305(4)
C1QA C 0.6853(3) 0.3695(4) 0.5455(2)
C1EG C 0.9545(2) 0.3695(4) 0.8147(3)
C1OE C 0.8147(3) 0.4545(2) 0.8695(4)
C1D C 0.5455(2) 0.1853(3) 0.8695(4)
C1QD C 0.6305(4) 0.1853(3) 0.9545(2)
C1EC C 0.6305(4) 0.4545(2) 0.6853(3)
C1HF C 0.5455(2) 0.3695(4) 0.6853(3)
C1R C 0.8147(3) 0.3695(4) 0.9545(2)
C1YE C 0.8695(4) 0.5455(2) 0.8147(3)
C1A C 0.8695(4) 0.8147(3) 0.5455(2)
C1TD C 0.9545(2) 0.8147(3) 0.6305(4)
C1UB C 0.6853(3) 0.5455(2) 0.6305(4)
C1HE C 0.6853(3) 0.6305(4) 0.5455(2)
C1NC C 0.9545(2) 0.6305(4) 0.8147(3)
C2WE C 0.5688(3) 0.7969(3) 0.8871(3)
C2YB C 0.6129(3) 0.7969(3) 0.9312(3)
C2ZD C 0.6129(3) 0.5688(3) 0.7031(3)
C2OB C 0.5688(3) 0.6129(3) 0.7031(3)
C2KD C 0.7969(3) 0.6129(3) 0.9312(3)
C2J C 0.8871(3) 0.4312(3) 0.7969(3)
C2SE C 0.8871(3) 0.2031(3) 0.5688(3)
C2CC C 0.9312(3) 0.2031(3) 0.6129(3)
C2PD C 0.7031(3) 0.4312(3) 0.6129(3)
C2QA C 0.7031(3) 0.3871(3) 0.5688(3)
C2EG C 0.9312(3) 0.3871(3) 0.7969(3)
C2OE C 0.7969(3) 0.4312(3) 0.8871(3)
C2D C 0.5688(3) 0.2031(3) 0.8871(3)
C2QD C 0.6129(3) 0.2031(3) 0.9312(3)
C2EC C 0.6129(3) 0.4312(3) 0.7031(3)
C2HF C 0.5688(3) 0.3871(3) 0.7031(3)
C2R C 0.7969(3) 0.3871(3) 0.9312(3)
C2YE C 0.8871(3) 0.5688(3) 0.7969(3)
C2A C 0.8871(3) 0.7969(3) 0.5688(3)
C2TD C 0.9312(3) 0.7969(3) 0.6129(3)
C2UB C 0.7031(3) 0.5688(3) 0.6129(3)
C2HE C 0.7031(3) 0.6129(3) 0.5688(3)
C2NC C 0.9312(3) 0.6129(3) 0.7969(3)
C3WE C 0.5831(3) 0.7693(2) 0.8777(3)
C3YB C 0.6223(3) 0.7693(2) 0.9169(3)
C3ZD C 0.6223(3) 0.5831(3) 0.7307(2)
C3OB C 0.5831(3) 0.6223(3) 0.7307(2)
C3KD C 0.7693(2) 0.6223(3) 0.9169(3)
C3J C 0.8777(3) 0.4169(3) 0.7693(2)
C3SE C 0.8777(3) 0.2307(2) 0.5831(3)
C3CC C 0.9169(3) 0.2307(2) 0.6223(3)
C3PD C 0.7307(2) 0.4169(3) 0.6223(3)
C3QA C 0.7307(2) 0.3777(3) 0.5831(3)
C3EG C 0.9169(3) 0.3777(3) 0.7693(2)
C3OE C 0.7693(2) 0.4169(3) 0.8777(3)
C3D C 0.5831(3) 0.2307(2) 0.8777(3)
C3QD C 0.6223(3) 0.2307(2) 0.9169(3)
C3EC C 0.6223(3) 0.4169(3) 0.7307(2)
C3HF C 0.5831(3) 0.3777(3) 0.7307(2)
C3R C 0.7693(2) 0.3777(3) 0.9169(3)
C3YE C 0.8777(3) 0.5831(3) 0.7693(2)
C3A C 0.8777(3) 0.7693(2) 0.5831(3)
C3TD C 0.9169(3) 0.7693(2) 0.6223(3)
C3UB C 0.7307(2) 0.5831(3) 0.6223(3)
C3HE C 0.7307(2) 0.6223(3) 0.5831(3)
C3NC C 0.9169(3) 0.6223(3) 0.7693(2)
H1YB H 0.6415 0.7602 0.9246
H1WE H 0.5754 0.7602 0.8585
H1OB H 0.5754 0.6415 0.7398
H1ZD H 0.6415 0.5754 0.7398
H1KD H 0.7602 0.6415 0.9246
H1J H 0.8585 0.4246 0.7602
H1CC H 0.9246 0.2398 0.6415
H1SE H 0.8585 0.2398 0.5754
H1QA H 0.7398 0.3585 0.5754
H1PD H 0.7398 0.4246 0.6415
H1EG H 0.9246 0.3585 0.7602
H1OE H 0.7602 0.4246 0.8585
H1QD H 0.6415 0.2398 0.9246
H1D H 0.5754 0.2398 0.8585
H1HF H 0.5754 0.3585 0.7398
H1EC H 0.6415 0.4246 0.7398
H1R H 0.7602 0.3585 0.9246
H1YE H 0.8585 0.5754 0.7602
H1TD H 0.9246 0.7602 0.6415
H1A H 0.8585 0.7602 0.5754
H1HE H 0.7398 0.6415 0.5754
H1UB H 0.7398 0.5754 0.6415
H1NC H 0.9246 0.6415 0.7602
C4WE C 0.6071(4) 0.7533(4) 0.8929(4)
C4ZD C 0.6071(4) 0.6071(4) 0.7467(4)
C4J C 0.8929(4) 0.3929(4) 0.7533(4)
C4SE C 0.8929(4) 0.2467(4) 0.6071(4)
C4QA C 0.7467(4) 0.3929(4) 0.6071(4)
C4R C 0.7533(4) 0.3929(4) 0.8929(4)
C4D C 0.6071(4) 0.2467(4) 0.8929(4)
C4HF C 0.6071(4) 0.3929(4) 0.7467(4)
C4YE C 0.8929(4) 0.6071(4) 0.7533(4)
C4A C 0.8929(4) 0.7533(4) 0.6071(4)
C4HE C 0.7467(4) 0.6071(4) 0.6071(4)
C5WE C 0.5848(3) 0.8110(6) 0.9152(3)
C5ZD C 0.5848(3) 0.5848(3) 0.6890(6)
C5J C 0.9152(3) 0.4152(3) 0.8110(6)
C5SE C 0.9152(3) 0.1890(6) 0.5848(3)
C5QA C 0.6890(6) 0.4152(3) 0.5848(3)
C5R C 0.8110(6) 0.4152(3) 0.9152(3)
C5D C 0.5848(3) 0.1890(6) 0.9152(3)
C5HF C 0.5848(3) 0.4152(3) 0.6890(6)
C5YE C 0.9152(3) 0.5848(3) 0.8110(6)
C5A C 0.9152(3) 0.8110(6) 0.5848(3)
C5HE C 0.6890(6) 0.5848(3) 0.5848(3)
H2WE H 0.5764 0.8302 0.9236
H2ZD H 0.5764 0.5764 0.6698
H2J H 0.9236 0.4236 0.8302
H2SE H 0.9236 0.1698 0.5764
H2QA H 0.6698 0.4236 0.5764
H2R H 0.8302 0.4236 0.9236
H2D H 0.5764 0.1698 0.9236
H2HF H 0.5764 0.4236 0.6698
H2YE H 0.9236 0.5764 0.8302
H2A H 0.9236 0.8302 0.5764
H2HE H 0.6698 0.5764 0.5764
C6WE C 0.6447(5) 0.7053(4) 0.8872(6)
C6YB C 0.6128(6) 0.7053(4) 0.8553(5)
C6ZD C 0.6128(6) 0.6447(5) 0.7947(4)
C6OB C 0.6447(5) 0.6128(6) 0.7947(4)
C6KD C 0.7053(4) 0.6128(6) 0.8553(5)
C6J C 0.8872(6) 0.3553(5) 0.7053(4)
C6SE C 0.8872(6) 0.2947(4) 0.6447(5)
C6CC C 0.8553(5) 0.2947(4) 0.6128(6)
C6PD C 0.7947(4) 0.3553(5) 0.6128(6)
C6QA C 0.7947(4) 0.3872(6) 0.6447(5)
C6EG C 0.8553(5) 0.3872(6) 0.7053(4)
C6OE C 0.7053(4) 0.3553(5) 0.8872(6)
C6D C 0.6447(5) 0.2947(4) 0.8872(6)
C6QD C 0.6128(6) 0.2947(4) 0.8553(5)
C6EC C 0.6128(6) 0.3553(5) 0.7947(4)
C6HF C 0.6447(5) 0.3872(6) 0.7947(4)
C6R C 0.7053(4) 0.3872(6) 0.8553(5)
C6YE C 0.8872(6) 0.6447(5) 0.7053(4)
C6A C 0.8872(6) 0.7053(4) 0.6447(5)
C6TD C 0.8553(5) 0.7053(4) 0.6128(6)
C6UB C 0.7947(4) 0.6447(5) 0.6128(6)
C6HE C 0.7947(4) 0.6128(6) 0.6447(5)
C6NC C 0.8553(5) 0.6128(6) 0.7053(4)
C7WE C 0.6548(2) 0.6776(3) 0.8691(3)
C7YB C 0.6309(3) 0.6776(3) 0.8452(2)
C7ZD C 0.6309(3) 0.6548(2) 0.8224(3)
C7OB C 0.6548(2) 0.6309(3) 0.8224(3)
C7KD C 0.6776(3) 0.6309(3) 0.8452(2)
C7J C 0.8691(3) 0.3452(2) 0.6776(3)
C7SE C 0.8691(3) 0.3224(3) 0.6548(2)
C7CC C 0.8452(2) 0.3224(3) 0.6309(3)
C7PD C 0.8224(3) 0.3452(2) 0.6309(3)
C7QA C 0.8224(3) 0.3691(3) 0.6548(2)
C7EG C 0.8452(2) 0.3691(3) 0.6776(3)
C7OE C 0.6776(3) 0.3452(2) 0.8691(3)
C7D C 0.6548(2) 0.3224(3) 0.8691(3)
C7QD C 0.6309(3) 0.3224(3) 0.8452(2)
C7EC C 0.6309(3) 0.3452(2) 0.8224(3)
C7HF C 0.6548(2) 0.3691(3) 0.8224(3)
C7R C 0.6776(3) 0.3691(3) 0.8452(2)
C7YE C 0.8691(3) 0.6548(2) 0.6776(3)
C7A C 0.8691(3) 0.6776(3) 0.6548(2)
C7TD C 0.8452(2) 0.6776(3) 0.6309(3)
C7UB C 0.8224(3) 0.6548(2) 0.6309(3)
C7HE C 0.8224(3) 0.6309(3) 0.6548(2)
C7NC C 0.8452(2) 0.6309(3) 0.6776(3)
O4B O 0.5000 0.7828(5) 0.7828(5)
O4EA O 0.7172(5) 0.7828(5) 1.0000
O4PD O 0.7172(5) 0.5000 0.7172(5)
O4FD O 0.5000 0.7172(5) 0.7172(5)
O4T O 0.7828(5) 0.7172(5) 1.0000
O5B O 0.5000 0.9014(3) 0.9014(3)
O5EA O 0.5986(3) 0.9014(3) 1.0000
O5PD O 0.5986(3) 0.5000 0.5986(3)
O5FD O 0.5000 0.5986(3) 0.5986(3)
O5T O 0.9014(3) 0.5986(3) 1.0000
loop_
_geom_bond_atom_site_label_1
_geom_bond_atom_site_label_2
_geom_bond_site_symmetry_1
_geom_bond_site_symmetry_2
Zn1 O1 1_555 1_555
Zn2 O2 1_555 1_555
O1 C1 1_555 1_555
O2 C1 1_555 1_555
O3 C6 1_555 1_555
N1 C4 1_555 1_555
C1 C2 1_555 1_555
C2 C3 1_555 1_555
C3 H1 1_555 1_555
C4 C3 1_555 1_555
C5 C2 1_555 1_555
H2 C5 1_555 1_555
C6 N1 1_555 1_555
C7 C6 1_555 1_555
O4 Zn1 1_555 1_555
O5 Zn2 1_555 1_555
Zn1B O1WE 1_555 1_555
Zn1EA O1YB 1_555 1_555
Zn1PD O1ZD 1_555 1_555
Zn1FD O1OB 1_555 1_555
Zn1T O1KD 1_555 1_555
Zn1H O1SE 1_555 1_555
Zn1RD O1CC 1_555 1_555
Zn1QA O1QA 1_555 1_555
Zn1LA O1EG 1_555 1_555
Zn1D O1D 1_555 1_555
Zn1QD O1QD 1_555 1_555
Zn1O O1HF 1_555 1_555
Zn1M O1R 1_555 1_555
Zn1A O1A 1_555 1_555
Zn1AA O1TD 1_555 1_555
Zn1CE O1HE 1_555 1_555
Zn1NA O1NC 1_555 1_555
Zn2B O2WE 1_555 1_555
Zn2EA O2YB 1_555 1_555
Zn2PD O2ZD 1_555 1_555
Zn2FD O2OB 1_555 1_555
Zn2T O2KD 1_555 1_555
Zn2H O2SE 1_555 1_555
Zn2RD O2CC 1_555 1_555
Zn2QA O2QA 1_555 1_555
Zn2LA O2EG 1_555 1_555
Zn2D O2D 1_555 1_555
Zn2QD O2QD 1_555 1_555
Zn2O O2HF 1_555 1_555
Zn2M O2R 1_555 1_555
Zn2A O2A 1_555 1_555
Zn2AA O2TD 1_555 1_555
Zn2CE O2HE 1_555 1_555
Zn2NA O2NC 1_555 1_555
O1WE C1WE 1_555 1_555
O1YB C1YB 1_555 1_555
O1ZD C1ZD 1_555 1_555
O1OB C1OB 1_555 1_555
O1KD C1KD 1_555 1_555
O1J Zn1 1_555 1_555
O1SE C1SE 1_555 1_555
O1CC C1CC 1_555 1_555
O1PD Zn1PD 1_555 1_555
O1QA C1QA 1_555 1_555
O1EG C1EG 1_555 1_555
O1OE Zn1 1_555 1_555
O1D C1D 1_555 1_555
O1QD C1QD 1_555 1_555
O1EC Zn1PD 1_555 1_555
O1HF C1HF 1_555 1_555
O1R C1R 1_555 1_555
O1YE Zn1 1_555 1_555
O1A C1A 1_555 1_555
O1TD C1TD 1_555 1_555
O1UB Zn1PD 1_555 1_555
O1HE C1HE 1_555 1_555
O1NC C1NC 1_555 1_555
O1B Zn1B 1_555 1_555
O1E Zn1B 1_555 1_555
O1UE Zn1B 1_555 1_555
O1EA Zn1EA 1_555 1_555
O1OF Zn1EA 1_555 1_555
O1XD Zn1EA 1_555 1_555
O1FD Zn1FD 1_555 1_555
O1ID Zn1FD 1_555 1_555
O1QB Zn1FD 1_555 1_555
O1T Zn1T 1_555 1_555
O1EF Zn1T 1_555 1_555
O1KB Zn1T 1_555 1_555
O2WE C1WE 1_555 1_555
O2YB C1YB 1_555 1_555
O2ZD C1ZD 1_555 1_555
O2OB C1OB 1_555 1_555
O2KD C1KD 1_555 1_555
O2J Zn2 1_555 1_555
O2SE C1SE 1_555 1_555
O2CC C1CC 1_555 1_555
O2PD Zn2PD 1_555 1_555
O2QA C1QA 1_555 1_555
O2EG C1EG 1_555 1_555
O2OE Zn2 1_555 1_555
O2D C1D 1_555 1_555
O2QD C1QD 1_555 1_555
O2EC Zn2PD 1_555 1_555
O2HF C1HF 1_555 1_555
O2R C1R 1_555 1_555
O2YE Zn2 1_555 1_555
O2A C1A 1_555 1_555
O2TD C1TD 1_555 1_555
O2UB Zn2PD 1_555 1_555
O2HE C1HE 1_555 1_555
O2NC C1NC 1_555 1_555
O2B Zn2B 1_555 1_555
O2E Zn2B 1_555 1_555
O2UE Zn2B 1_555 1_555
O2EA Zn2EA 1_555 1_555
O2OF Zn2EA 1_555 1_555
O2XD Zn2EA 1_555 1_555
O2FD Zn2FD 1_555 1_555
O2ID Zn2FD 1_555 1_555
O2QB Zn2FD 1_555 1_555
O2T Zn2T 1_555 1_555
O2EF Zn2T 1_555 1_555
O2KB Zn2T 1_555 1_555
O3WE C6WE 1_555 1_555
O3YB C6YB 1_555 1_555
O3ZD C6ZD 1_555 1_555
O3OB C6OB 1_555 1_555
O3KD C6KD 1_555 1_555
O3J C6J 1_555 1_555
O3SE C6SE 1_555 1_555
O3CC C6CC 1_555 1_555
O3PD C6PD 1_555 1_555
O3QA C6QA 1_555 1_555
O3EG C6EG 1_555 1_555
O3OE C6OE 1_555 1_555
O3D C6D 1_555 1_555
O3QD C6QD 1_555 1_555
O3EC C6EC 1_555 1_555
O3HF C6HF 1_555 1_555
O3R C6R 1_555 1_555
O3YE C6YE 1_555 1_555
O3A C6A 1_555 1_555
O3TD C6TD 1_555 1_555
O3UB C6UB 1_555 1_555
O3HE C6HE 1_555 1_555
O3NC C6NC 1_555 1_555
N1WE C4WE 1_555 1_555
N1ZD C4ZD 1_555 1_555
N1J C4J 1_555 1_555
N1SE C4SE 1_555 1_555
N1QA C4QA 1_555 1_555
N1R C4R 1_555 1_555
N1D C4D 1_555 1_555
N1HF C4HF 1_555 1_555
N1YE C4YE 1_555 1_555
N1A C4A 1_555 1_555
N1HE C4HE 1_555 1_555
C1WE C2WE 1_555 1_555
C1YB C2YB 1_555 1_555
C1ZD C2ZD 1_555 1_555
C1OB C2OB 1_555 1_555
C1KD C2KD 1_555 1_555
C1J O1J 1_555 1_555
C1SE C2SE 1_555 1_555
C1CC C2CC 1_555 1_555
C1PD O1PD 1_555 1_555
C1QA C2QA 1_555 1_555
C1EG C2EG 1_555 1_555
C1OE O1OE 1_555 1_555
C1D C2D 1_555 1_555
C1QD C2QD 1_555 1_555
C1EC O1EC 1_555 1_555
C1HF C2HF 1_555 1_555
C1R C2R 1_555 1_555
C1YE O1YE 1_555 1_555
C1A C2A 1_555 1_555
C1TD C2TD 1_555 1_555
C1UB O1UB 1_555 1_555
C1HE C2HE 1_555 1_555
C1NC C2NC 1_555 1_555
C2WE C3WE 1_555 1_555
C2YB C3YB 1_555 1_555
C2ZD C3ZD 1_555 1_555
C2OB C3OB 1_555 1_555
C2KD C5 1_555 1_555
C2J C1J 1_555 1_555
C2SE C3SE 1_555 1_555
C2CC C3CC 1_555 1_555
C2PD C1PD 1_555 1_555
C2QA C3QA 1_555 1_555
C2EG C3EG 1_555 1_555
C2OE C1OE 1_555 1_555
C2D C3D 1_555 1_555
C2QD C3QD 1_555 1_555
C2EC C1EC 1_555 1_555
C2HF C3HF 1_555 1_555
C2R C3R 1_555 1_555
C2YE C1YE 1_555 1_555
C2A C3A 1_555 1_555
C2TD C3TD 1_555 1_555
C2UB C1UB 1_555 1_555
C2HE C3HE 1_555 1_555
C2NC C3NC 1_555 1_555
C3WE H1WE 1_555 1_555
C3YB H1YB 1_555 1_555
C3ZD H1ZD 1_555 1_555
C3OB H1OB 1_555 1_555
C3KD C4 1_555 1_555
C3J C2J 1_555 1_555
C3SE H1SE 1_555 1_555
C3CC H1CC 1_555 1_555
C3PD C2PD 1_555 1_555
C3QA H1QA 1_555 1_555
C3EG H1EG 1_555 1_555
C3OE C2OE 1_555 1_555
C3D H1D 1_555 1_555
C3QD H1QD 1_555 1_555
C3EC C2EC 1_555 1_555
C3HF H1HF 1_555 1_555
C3R H1R 1_555 1_555
C3YE C2YE 1_555 1_555
C3A H1A 1_555 1_555
C3TD H1TD 1_555 1_555
C3UB C2UB 1_555 1_555
C3HE H1HE 1_555 1_555
C3NC H1NC 1_555 1_555
H1KD C3KD 1_555 1_555
H1J C3J 1_555 1_555
H1PD C3PD 1_555 1_555
H1OE C3OE 1_555 1_555
H1EC C3EC 1_555 1_555
H1YE C3YE 1_555 1_555
H1UB C3UB 1_555 1_555
C4WE C3WE 1_555 1_555
C4ZD C3ZD 1_555 1_555
C4J C3J 1_555 1_555
C4SE C3SE 1_555 1_555
C4QA C3PD 1_555 1_555
C4R C3OE 1_555 1_555
C4D C3D 1_555 1_555
C4HF C3EC 1_555 1_555
C4YE C3YE 1_555 1_555
C4A C3A 1_555 1_555
C4HE C3UB 1_555 1_555
C5WE C2WE 1_555 1_555
C5ZD C2ZD 1_555 1_555
C5J C2J 1_555 1_555
C5SE C2SE 1_555 1_555
C5QA C2PD 1_555 1_555
C5R C2OE 1_555 1_555
C5D C2D 1_555 1_555
C5HF C2EC 1_555 1_555
C5YE C2YE 1_555 1_555
C5A C2A 1_555 1_555
C5HE C2UB 1_555 1_555
H2WE C5WE 1_555 1_555
H2ZD C5ZD 1_555 1_555
H2J C5J 1_555 1_555
H2SE C5SE 1_555 1_555
H2QA C5QA 1_555 1_555
H2R C5R 1_555 1_555
H2D C5D 1_555 1_555
H2HF C5HF 1_555 1_555
H2YE C5YE 1_555 1_555
H2A C5A 1_555 1_555
H2HE C5HE 1_555 1_555
C6WE N1WE 1_555 1_555
C6YB N1WE 1_555 1_555
C6ZD N1ZD 1_555 1_555
C6OB N1ZD 1_555 1_555
C6KD N1 1_555 1_555
C6J N1J 1_555 1_555
C6SE N1SE 1_555 1_555
C6CC N1SE 1_555 1_555
C6PD N1QA 1_555 1_555
C6QA N1QA 1_555 1_555
C6EG N1J 1_555 1_555
C6OE N1R 1_555 1_555
C6D N1D 1_555 1_555
C6QD N1D 1_555 1_555
C6EC N1HF 1_555 1_555
C6HF N1HF 1_555 1_555
C6R N1R 1_555 1_555
C6YE N1YE 1_555 1_555
C6A N1A 1_555 1_555
C6TD N1A 1_555 1_555
C6UB N1HE 1_555 1_555
C6HE N1HE 1_555 1_555
C6NC N1YE 1_555 1_555
C7WE C7 1_555 1_555
C7YB C6YB 1_555 1_555
C7ZD C6ZD 1_555 1_555
C7OB C6OB 1_555 1_555
C7KD C7 1_555 1_555
C7J C6J 1_555 1_555
C7SE C6SE 1_555 1_555
C7CC C6CC 1_555 1_555
C7PD C6PD 1_555 1_555
C7QA C6QA 1_555 1_555
C7EG C6EG 1_555 1_555
C7OE C6OE 1_555 1_555
C7D C6D 1_555 1_555
C7QD C6QD 1_555 1_555
C7EC C6EC 1_555 1_555
C7HF C6HF 1_555 1_555
C7R C6R 1_555 1_555
C7YE C6YE 1_555 1_555
C7A C6A 1_555 1_555
C7TD C6TD 1_555 1_555
C7UB C6UB 1_555 1_555
C7HE C6HE 1_555 1_555
C7NC C6NC 1_555 1_555
O4B Zn1B 1_555 1_555
O4EA Zn1EA 1_555 1_555
O4PD Zn1PD 1_555 1_555
O4FD Zn1FD 1_555 1_555
O4T Zn1T 1_555 1_555
O5B Zn2B 1_555 1_555
O5EA Zn2EA 1_555 1_555
O5PD Zn2PD 1_555 1_555
O5FD Zn2FD 1_555 1_555
O5T Zn2T 1_555 1_555
O2J C1J 1_555 1_555
O2PD C1PD 1_555 1_555
O2OE C1OE 1_555 1_555
O2EC C1EC 1_555 1_555
O2YE C1YE 1_555 1_555
O2UB C1UB 1_555 1_555
C2YB C5WE 1_555 1_555
C2OB C5ZD 1_555 1_555
C2KD C3KD 1_555 1_555
C2CC C5SE 1_555 1_555
C2QA C5QA 1_555 1_555
C2EG C5J 1_555 1_555
C2QD C5D 1_555 1_555
C2HF C5HF 1_555 1_555
C2R C5R 1_555 1_555
C2TD C5A 1_555 1_555
C2HE C5HE 1_555 1_555
C2NC C5YE 1_555 1_555
C3YB C4WE 1_555 1_555
C3OB C4ZD 1_555 1_555
C3CC C4SE 1_555 1_555
C3QA C4QA 1_555 1_555
C3EG C4J 1_555 1_555
C3QD C4D 1_555 1_555
C3HF C4HF 1_555 1_555
C3R C4R 1_555 1_555
C3TD C4A 1_555 1_555
C3HE C4HE 1_555 1_555
C3NC C4YE 1_555 1_555
C6WE C7WE 1_555 1_555
C6KD C7KD 1_555 1_555
C7WE C7YB 1_555 1_555
C7YB C7ZD 1_555 1_555
C7ZD C7OB 1_555 1_555
C7OB C7KD 1_555 1_555
C7J C7SE 1_555 1_555
C7J C7EG 1_555 1_555
C7SE C7CC 1_555 1_555
C7CC C7PD 1_555 1_555
C7PD C7QA 1_555 1_555
C7QA C7EG 1_555 1_555
C7OE C7D 1_555 1_555
C7OE C7R 1_555 1_555
C7D C7QD 1_555 1_555
C7QD C7EC 1_555 1_555
C7EC C7HF 1_555 1_555
C7HF C7R 1_555 1_555
C7YE C7A 1_555 1_555
C7YE C7NC 1_555 1_555
C7A C7TD 1_555 1_555
C7TD C7UB 1_555 1_555
C7UB C7HE 1_555 1_555
C7HE C7NC 1_555 1_555

#END
