
#######################################################################
#
#                 Cambridge Crystallographic Data Centre
#                                CCDC 
#
#######################################################################
#
# If this CIF has been generated from an entry in the Cambridge 
# Structural Database, then it will include bibliographic, chemical, 
# crystal, experimental, refinement or atomic coordinate data resulting 
# from the CCDC's data processing and validation procedures.
#
#######################################################################

data_SIZSOJ
_symmetry_cell_setting           triclinic
_symmetry_space_group_name_H-M   'P -1'
_symmetry_Int_Tables_number      2
_space_group_name_Hall           '-P 1'
loop_
_symmetry_equiv_pos_site_id
_symmetry_equiv_pos_as_xyz
1 x,y,z
2 -x,-y,-z
_cell_length_a                   19.944(8)
_cell_length_b                   20.615(8)
_cell_length_c                   21.334(6)
_cell_angle_alpha                97.33(3)
_cell_angle_beta                 98.59(3)
_cell_angle_gamma                109.77(3)
_cell_volume                     8010.88
loop_
_atom_site_label
_atom_site_type_symbol
_atom_site_fract_x
_atom_site_fract_y
_atom_site_fract_z
Cl1 Cl 0.24210(11) 0.17664(11) 0.32974(10)
O1 O 0.2411(3) 0.2463(3) 0.3448(3)
O2 O 0.3038(4) 0.1725(4) 0.3698(3)
O3 O 0.2485(5) 0.1584(5) 0.2684(5)
O4 O 0.1815(4) 0.1296(4) 0.3485(3)
Cl2 Cl 0.28305(19) 0.1718(2) -0.17964(17)
O5 O 0.3345(5) 0.1572(5) -0.1347(4)
O6 O 0.2777(7) 0.2370(7) -0.1685(6)
O7 O 0.2186(8) 0.1289(8) -0.1593(7)
O8 O 0.2502(7) 0.1353(8) -0.2446(7)
Mn1 Mn 0.24917(5) 0.49491(5) 0.26258(4)
Mn2 Mn 0.5000 0.0000 0.0000
Mn3 Mn 0.0000 1.0000 0.5000
N1 N 0.1076(2) 0.0656(2) 0.03594(19)
N2 N 0.0323(2) -0.0779(2) -0.0405(2)
H1 H 0.0178 -0.0482 -0.0181
C1 C 0.1026(3) -0.0691(3) -0.0420(3)
C2 C 0.1635(3) -0.0144(3) -0.0107(2)
C3 C 0.1647(3) 0.0497(3) 0.0261(2)
C4 C 0.2315(3) 0.1072(3) 0.0591(3)
H2 H 0.2801 0.1092 0.0608
C5 C 0.2092(3) 0.1583(3) 0.0875(3)
H3 H 0.2404 0.2030 0.1122
C6 C 0.1319(3) 0.1331(3) 0.0736(2)
C7 C 0.0873(3) 0.1668(3) 0.0926(3)
C8 C -0.0129(3) -0.1413(3) -0.0798(3)
C9 C 0.0328(3) -0.1757(3) -0.1059(3)
H4 H 0.0160 -0.2202 -0.1338
C10 C 0.1054(3) -0.1317(3) -0.0828(3)
H5 H 0.1475 -0.1400 -0.0913
C11 C 0.2349(3) -0.0177(3) -0.0161(3)
C12 C 0.2805(3) 0.0292(3) -0.0496(3)
H6 H 0.2650 0.0614 -0.0702
C13 C 0.3499(3) 0.0252(3) -0.0507(3)
H7 H 0.3808 0.0563 -0.0725
N3 N 0.3747(2) -0.0189(3) -0.0234(2)
C14 C 0.3302(3) -0.0636(3) 0.0058(3)
H8 H 0.3464 -0.0966 0.0244
C15 C 0.2612(3) -0.0639(3) 0.0101(3)
H9 H 0.2318 -0.0966 0.0316
C16 C 0.1255(3) 0.2438(3) 0.1320(3)
C17 C 0.1106(3) 0.2961(3) 0.1094(3)
H10 H 0.0778 0.2875 0.0694
C18 C 0.1448(3) 0.3639(3) 0.1466(3)
H11 H 0.1333 0.4008 0.1309
N4 N 0.1922(2) 0.3806(2) 0.2024(2)
C19 C 0.2071(3) 0.3254(3) 0.2231(3)
H12 H 0.2411 0.3350 0.2626
C20 C 0.1748(3) 0.2558(3) 0.1892(3)
H13 H 0.1862 0.2188 0.2047
N5 N 0.3956(2) 0.9332(2) 0.4679(2)
H14 H 0.4416 0.9611 0.4804
N6 N 0.4680(2) 1.0836(2) 0.5280(2)
C21 C 0.3980(3) 1.0762(3) 0.5265(2)
C22 C 0.3349(3) 1.0161(3) 0.5006(3)
C23 C 0.3354(3) 0.9519(3) 0.4736(2)
C24 C 0.2698(3) 0.8902(3) 0.4465(3)
H15 H 0.2212 0.8885 0.4433
C25 C 0.2897(3) 0.8357(3) 0.4265(3)
H16 H 0.2583 0.7889 0.4079
C26 C 0.3701(3) 0.8640(3) 0.4395(3)
C27 C 0.4115(3) 0.8237(3) 0.4247(2)
C28 C 0.5125(3) 1.1514(3) 0.5597(2)
C29 C 0.4653(3) 1.1869(3) 0.5759(3)
H17 H 0.4805 1.2340 0.5981
C30 C 0.3957(3) 1.1428(3) 0.5547(3)
H18 H 0.3534 1.1535 0.5576
C31 C 0.2637(3) 1.0202(3) 0.5043(3)
C32 C 0.2284(4) 0.9988(4) 0.5515(4)
H19 H 0.2529 0.9853 0.5862
C33 C 0.1582(4) 0.9958(4) 0.5514(4)
H20 H 0.1340 0.9769 0.5838
N7 N 0.1239(3) 1.0195(3) 0.5057(2)
C34 C 0.1587(3) 1.0436(3) 0.4623(3)
H21 H 0.1349 1.0608 0.4300
C35 C 0.2283(3) 1.0461(3) 0.4595(3)
H22 H 0.2514 1.0655 0.4268
C36 C 0.3747(3) 0.7498(3) 0.3900(3)
C37 C 0.3878(3) 0.6943(3) 0.4126(3)
H23 H 0.4211 0.7023 0.4521
C38 C 0.3513(3) 0.6261(3) 0.3765(3)
H24 H 0.3622 0.5886 0.3916
N8 N 0.3026(2) 0.6114(2) 0.3228(2)
C39 C 0.2876(3) 0.6636(3) 0.3010(3)
H25 H 0.2517 0.6528 0.2626
C40 C 0.3226(3) 0.7334(3) 0.3323(3)
H26 H 0.3115 0.7696 0.3149
N9 N 0.3460(2) 0.4947(2) 0.2538(2)
N10 N 0.2425(2) 0.5348(2) 0.1810(2)
N11 N 0.1504(2) 0.4967(2) 0.2709(2)
N12 N 0.2571(2) 0.4581(2) 0.3455(2)
C41 C 0.3141(3) 0.4411(3) 0.3743(3)
C42 C 0.3774(3) 0.4431(3) 0.3492(3)
C43 C 0.3912(3) 0.4684(3) 0.2935(3)
C44 C 0.4546(3) 0.4695(3) 0.2678(3)
H27 H 0.4916 0.4532 0.2844
C45 C 0.4495(3) 0.5000(3) 0.2129(3)
H28 H 0.4836 0.5094 0.1854
C46 C 0.3608(3) 0.5429(3) 0.1548(3)
C47 C 0.3853(3) 0.5141(3) 0.2063(3)
C48 C 0.2959(3) 0.5514(3) 0.1431(3)
C49 C 0.2686(3) 0.5796(3) 0.0913(3)
H29 H 0.2944 0.5980 0.0597
C50 C 0.2033(3) 0.5759(3) 0.0946(3)
H30 H 0.1725 0.5892 0.0647
C51 C 0.1851(3) 0.5486(3) 0.1502(3)
C52 C 0.1194(3) 0.5384(3) 0.1714(3)
C53 C 0.1055(4) 0.5145(4) 0.2288(3)
C54 C 0.0409(4) 0.5099(4) 0.2522(3)
H31 H 0.0008 0.5191 0.2307
C55 C 0.0466(4) 0.4902(4) 0.3100(3)
H32 H 0.0120 0.4842 0.3369
C56 C 0.1149(3) 0.4800(3) 0.3235(3)
C57 C 0.1433(3) 0.4599(3) 0.3771(3)
C58 C 0.2080(3) 0.4485(3) 0.3869(3)
C59 C 0.2358(3) 0.4234(3) 0.4397(3)
H33 H 0.2123 0.4115 0.4744
C60 C 0.3004(4) 0.4186(3) 0.4338(3)
H34 H 0.3306 0.4036 0.4627
C61 C 0.4307(3) 0.4210(3) 0.3860(3)
C62 C 0.5004(3) 0.4689(3) 0.4110(3)
H35 H 0.5121 0.5162 0.4054
C63 C 0.5542(4) 0.4493(4) 0.4447(3)
H36 H 0.6026 0.4820 0.4604
C64 C 0.5346(4) 0.3807(4) 0.4542(3)
H37 H 0.5697 0.3667 0.4782
C65 C 0.4649(3) 0.3321(4) 0.4295(3)
H38 H 0.4528 0.2852 0.4363
C66 C 0.4127(3) 0.3517(3) 0.3951(3)
H39 H 0.3650 0.3183 0.3777
C67 C 0.0978(4) 0.4475(4) 0.4285(3)
C68 C 0.0282(4) 0.3946(4) 0.4144(4)
H40 H 0.0086 0.3671 0.3722
C69 C -0.0126(5) 0.3824(5) 0.4632(4)
H41 H -0.0598 0.3470 0.4549
C70 C 0.0190(4) 0.4240(4) 0.5232(4)
H42 H -0.0078 0.4160 0.5565
C71 C 0.0857(4) 0.4757(4) 0.5384(4)
H43 H 0.1046 0.5033 0.5807
C72 C 0.1262(4) 0.4874(4) 0.4894(4)
H44 H 0.1733 0.5231 0.4987
C73 C 0.0588(4) 0.5500(4) 0.1292(4)
C74 C -0.0031(4) 0.4932(5) 0.1022(4)
H45 H -0.0063 0.4480 0.1102
C75 C -0.0616(4) 0.5004(4) 0.0632(4)
H46 H -0.1051 0.4612 0.0448
C76 C -0.0541(4) 0.5653(4) 0.0523(4)
H47 H -0.0932 0.5702 0.0243
C77 C 0.0050(4) 0.6241(5) 0.0785(4)
H48 H 0.0067 0.6691 0.0713
C78 C 0.0651(4) 0.6147(5) 0.1177(4)
H49 H 0.1089 0.6537 0.1354
C79 C 0.4112(4) 0.5646(4) 0.1086(3)
C80 C 0.3906(4) 0.5280(4) 0.0448(3)
H50 H 0.3442 0.4915 0.0301
C81 C 0.4384(4) 0.5455(4) 0.0029(4)
H51 H 0.4256 0.5191 -0.0398
C82 C 0.5039(4) 0.6006(4) 0.0231(4)
H52 H 0.5351 0.6134 -0.0064
C83 C 0.5249(4) 0.6378(4) 0.0860(3)
H53 H 0.5708 0.6751 0.1001
C84 C 0.4776(3) 0.6197(3) 0.1283(3)
H54 H 0.4912 0.6456 0.1713
N13 N 0.5042(2) -0.0090(3) -0.0937(2)
N14 N 0.4816(2) -0.1037(2) -0.0061(2)
C85 C 0.4816(3) -0.1517(3) -0.0612(3)
C86 C 0.4940(3) -0.1331(3) -0.1185(3)
C87 C 0.5022(3) -0.0687(3) -0.1332(3)
C88 C 0.5121(4) -0.0508(4) -0.1980(4)
H55 H 0.5123 -0.0817 -0.2349
C89 C 0.5209(4) 0.0193(4) -0.1939(3)
H56 H 0.5288 0.0456 -0.2274
C90 C 0.5158(3) 0.0453(3) -0.1282(3)
C91 C 0.5241(3) 0.1137(3) -0.1078(3)
C92 C 0.4736(3) -0.1423(3) 0.0412(3)
C93 C 0.4712(3) -0.2092(4) 0.0223(3)
H57 H 0.4674 -0.2438 0.0485
C94 C 0.4753(3) -0.2169(3) -0.0440(3)
H58 H 0.4740 -0.2577 -0.0712
C95 C 0.4971(4) -0.1881(4) -0.1698(3)
C96 C 0.4373(4) -0.2456(4) -0.1966(4)
H59 H 0.3928 -0.2514 -0.1829
C97 C 0.4410(4) -0.2981(4) -0.2461(4)
H60 H 0.3989 -0.3380 -0.2664
C98 C 0.5052(4) -0.2894(4) -0.2629(4)
H61 H 0.5075 -0.3254 -0.2941
C99 C 0.5674(4) -0.2324(4) -0.2383(4)
H62 H 0.6115 -0.2277 -0.2524
C100 C 0.5627(4) -0.1779(4) -0.1883(4)
H63 H 0.6041 -0.1368 -0.1694
C101 C 0.5314(3) 0.1628(3) -0.1548(3)
C102 C 0.4719(4) 0.1553(4) -0.1997(3)
H64 H 0.4264 0.1196 -0.2010
C103 C 0.4782(4) 0.2011(4) -0.2445(4)
H65 H 0.4372 0.1970 -0.2761
C104 C 0.5452(4) 0.2517(4) -0.2412(4)
H66 H 0.5492 0.2834 -0.2703
C105 C 0.6052(4) 0.2585(4) -0.1990(4)
H67 H 0.6512 0.2926 -0.1993
C106 C 0.5976(4) 0.2127(4) -0.1535(3)
H68 H 0.6388 0.2170 -0.1222
N15 N 0.0091(3) 1.0020(3) 0.5956(2)
N16 N 0.0187(2) 1.1049(2) 0.5142(2)
C107 C 0.0248(3) 1.1454(4) 0.5708(3)
C108 C 0.0217(4) 1.1256(4) 0.6300(4)
C109 C 0.0151(4) 1.0618(4) 0.6381(4)
C110 C 0.0087(4) 1.0358(4) 0.7016(4)
H69 H 0.0076 1.0627 0.7407
C111 C 0.0051(5) 0.9695(5) 0.6936(4)
H70 H 0.0063 0.9431 0.7268
C112 C -0.0012(3) 0.9443(4) 0.6248(3)
C113 C -0.0095(3) 0.8777(3) 0.5982(3)
C114 C 0.0195(3) 1.1427(3) 0.4672(3)
C115 C 0.0293(4) 1.2136(4) 0.4949(3)
H71 H 0.0308 1.2509 0.4725
C116 C 0.0361(4) 1.2162(4) 0.5599(4)
H72 H 0.0462 1.2566 0.5920
C117 C 0.0374(5) 1.1810(5) 0.6931(4)
C118 C 0.0986(5) 1.2011(5) 0.7410(4)
H73 H 0.1357 1.1825 0.7372
C119 C 0.1050(4) 1.2514(4) 0.7974(4)
H74 H 0.1456 1.2660 0.8325
C120 C 0.0511(4) 1.2770(4) 0.7983(4)
H75 H 0.0552 1.3102 0.8353
C121 C -0.0090(4) 1.2587(4) 0.7501(3)
H76 H -0.0451 1.2789 0.7531
C122 C -0.0154(5) 1.2079(4) 0.6949(4)
H77 H -0.0562 1.1934 0.6600
C123 C -0.0144(4) 0.8276(4) 0.6418(4)
C124 C 0.0486(5) 0.8290(5) 0.6831(4)
H78 H 0.0943 0.8640 0.6837
C125 C 0.0450(5) 0.7795(5) 0.7235(4)
H79 H 0.0874 0.7810 0.7516
C126 C -0.0222(4) 0.7286(5) 0.7212(4)
H80 H -0.0259 0.6946 0.7479
C127 C -0.0827(4) 0.7267(4) 0.6813(3)
H81 H -0.1285 0.6921 0.6813
C128 C -0.0786(4) 0.7750(4) 0.6400(4)
H82 H -0.1211 0.7710 0.6104
C7A C -0.0873(3) -0.1668(3) -0.0926(3)
C6A C -0.1319(3) -0.1331(3) -0.0736(2)
N1A N -0.1076(2) -0.0656(2) -0.03594(19)
C3A C -0.1647(3) -0.0497(3) -0.0261(2)
C2A C -0.1635(3) 0.0144(3) 0.0107(2)
C1A C -0.1026(3) 0.0691(3) 0.0420(3)
N2A N -0.0323(2) 0.0779(2) 0.0405(2)
H1A H -0.0178 0.0482 0.0181
C8A C 0.0129(3) 0.1413(3) 0.0798(3)
C9A C -0.0328(3) 0.1757(3) 0.1059(3)
H4A H -0.0160 0.2202 0.1338
C10A C -0.1054(3) 0.1317(3) 0.0828(3)
H5A H -0.1475 0.1400 0.0913
C11A C -0.2349(3) 0.0177(3) 0.0161(3)
C12A C -0.2805(3) -0.0292(3) 0.0496(3)
H6A H -0.2650 -0.0614 0.0702
C13A C -0.3499(3) -0.0252(3) 0.0507(3)
H7A H -0.3808 -0.0563 0.0725
N3A N -0.3747(2) 0.0189(3) 0.0234(2)
C14A C -0.3302(3) 0.0636(3) -0.0058(3)
H8A H -0.3464 0.0966 -0.0244
C15A C -0.2612(3) 0.0639(3) -0.0101(3)
H9A H -0.2318 0.0966 -0.0316
C4A C -0.2315(3) -0.1072(3) -0.0591(3)
H2A H -0.2801 -0.1092 -0.0608
C5A C -0.2092(3) -0.1583(3) -0.0875(3)
H3A H -0.2404 -0.2030 -0.1122
C16A C -0.1255(3) -0.2438(3) -0.1320(3)
C17A C -0.1106(3) -0.2961(3) -0.1094(3)
H10A H -0.0778 -0.2875 -0.0694
C18A C -0.1448(3) -0.3639(3) -0.1466(3)
H11A H -0.1333 -0.4008 -0.1309
N4A N -0.1922(2) -0.3806(2) -0.2024(2)
C19A C -0.2071(3) -0.3254(3) -0.2231(3)
H12A H -0.2411 -0.3350 -0.2626
C20A C -0.1748(3) -0.2558(3) -0.1892(3)
H13A H -0.1862 -0.2188 -0.2047
C27A C 0.5885(3) 1.1763(3) 0.5753(2)
C26A C 0.6299(3) 1.1360(3) 0.5605(3)
N5A N 0.6044(2) 1.0668(2) 0.5321(2)
H14A H 0.5584 1.0389 0.5196
C23A C 0.6646(3) 1.0481(3) 0.5264(2)
C22A C 0.6651(3) 0.9839(3) 0.4994(3)
C21A C 0.6020(3) 0.9238(3) 0.4735(2)
N6A N 0.5320(2) 0.9164(2) 0.4720(2)
C28A C 0.4875(3) 0.8486(3) 0.4403(2)
C29A C 0.5347(3) 0.8131(3) 0.4241(3)
H17A H 0.5195 0.7660 0.4019
C30A C 0.6043(3) 0.8572(3) 0.4453(3)
H18A H 0.6466 0.8465 0.4424
C31A C 0.7363(3) 0.9798(3) 0.4957(3)
C32A C 0.7716(4) 1.0012(4) 0.4485(4)
H19A H 0.7471 1.0147 0.4138
C33A C 0.8418(4) 1.0042(4) 0.4486(4)
H20A H 0.8660 1.0231 0.4162
N7A N 0.8761(3) 0.9805(3) 0.4943(2)
C34A C 0.8413(3) 0.9564(3) 0.5377(3)
H21A H 0.8651 0.9392 0.5700
C35A C 0.7717(3) 0.9539(3) 0.5405(3)
H22A H 0.7486 0.9345 0.5732
C24A C 0.7302(3) 1.1098(3) 0.5535(3)
H15A H 0.7788 1.1115 0.5567
C25A C 0.7103(3) 1.1643(3) 0.5735(3)
H16A H 0.7417 1.2111 0.5921
C36A C 0.6253(3) 1.2502(3) 0.6100(3)
C37A C 0.6122(3) 1.3057(3) 0.5874(3)
H23A H 0.5789 1.2977 0.5479
C38A C 0.6487(3) 1.3739(3) 0.6235(3)
H24A H 0.6378 1.4114 0.6084
N8A N 0.6974(2) 1.3886(2) 0.6772(2)
C39A C 0.7124(3) 1.3364(3) 0.6990(3)
H25A H 0.7483 1.3472 0.7374
C40A C 0.6774(3) 1.2666(3) 0.6677(3)
H26A H 0.6885 1.2304 0.6851
C91A C 0.4759(3) -0.1137(3) 0.1078(3)
C90A C 0.4842(3) -0.0453(3) 0.1282(3)
N13A N 0.4958(2) 0.0090(3) 0.0937(2)
C87A C 0.4978(3) 0.0687(3) 0.1332(3)
C86A C 0.5060(3) 0.1331(3) 0.1185(3)
C85A C 0.5184(3) 0.1517(3) 0.0612(3)
N14A N 0.5184(2) 0.1037(2) 0.0061(2)
C92A C 0.5264(3) 0.1423(3) -0.0412(3)
C93A C 0.5288(3) 0.2092(4) -0.0223(3)
H57A H 0.5326 0.2438 -0.0485
C94A C 0.5247(3) 0.2169(3) 0.0440(3)
H58A H 0.5260 0.2577 0.0712
C95A C 0.5029(4) 0.1881(4) 0.1698(3)
C96A C 0.5627(4) 0.2456(4) 0.1966(4)
H59A H 0.6072 0.2514 0.1829
C97A C 0.5590(4) 0.2981(4) 0.2461(4)
H60A H 0.6011 0.3380 0.2664
C98A C 0.4948(4) 0.2894(4) 0.2629(4)
H61A H 0.4925 0.3254 0.2941
C99A C 0.4326(4) 0.2324(4) 0.2383(4)
H62A H 0.3885 0.2277 0.2524
C100A C 0.4373(4) 0.1779(4) 0.1883(4)
H63A H 0.3959 0.1368 0.1694
C88A C 0.4879(4) 0.0508(4) 0.1980(4)
H55A H 0.4877 0.0817 0.2349
C89A C 0.4791(4) -0.0193(4) 0.1939(3)
H56A H 0.4712 -0.0456 0.2274
C101A C 0.4686(3) -0.1628(3) 0.1548(3)
C102A C 0.5281(4) -0.1553(4) 0.1997(3)
H64A H 0.5736 -0.1196 0.2010
C103A C 0.5218(4) -0.2011(4) 0.2445(4)
H65A H 0.5628 -0.1970 0.2761
C104A C 0.4548(4) -0.2517(4) 0.2412(4)
H66A H 0.4508 -0.2834 0.2703
C105A C 0.3948(4) -0.2585(4) 0.1990(4)
H67A H 0.3488 -0.2926 0.1993
C106A C 0.4024(4) -0.2127(4) 0.1535(3)
H68A H 0.3612 -0.2170 0.1222
C113A C 0.0095(3) 1.1223(3) 0.4018(3)
C112A C 0.0012(3) 1.0557(4) 0.3752(3)
N15A N -0.0091(3) 0.9980(3) 0.4044(2)
C109A C -0.0151(4) 0.9382(4) 0.3619(4)
C108A C -0.0217(4) 0.8744(4) 0.3700(4)
C107A C -0.0248(3) 0.8546(4) 0.4292(3)
N16A N -0.0187(2) 0.8951(2) 0.4858(2)
C114A C -0.0195(3) 0.8573(3) 0.5328(3)
C115A C -0.0293(4) 0.7864(4) 0.5051(3)
H71A H -0.0308 0.7491 0.5275
C116A C -0.0361(4) 0.7838(4) 0.4401(4)
H72A H -0.0462 0.7434 0.4080
C117A C -0.0374(5) 0.8190(5) 0.3069(4)
C118A C -0.0986(5) 0.7989(5) 0.2590(4)
H73A H -0.1357 0.8175 0.2628
C119A C -0.1050(4) 0.7486(4) 0.2026(4)
H74A H -0.1456 0.7340 0.1675
C120A C -0.0511(4) 0.7230(4) 0.2017(4)
H75A H -0.0552 0.6898 0.1647
C121A C 0.0090(4) 0.7413(4) 0.2499(3)
H76A H 0.0451 0.7211 0.2469
C122A C 0.0154(5) 0.7921(4) 0.3051(4)
H77A H 0.0562 0.8066 0.3400
C110A C -0.0087(4) 0.9642(4) 0.2984(4)
H69A H -0.0076 0.9373 0.2593
C111A C -0.0051(5) 1.0305(5) 0.3064(4)
H70A H -0.0063 1.0569 0.2732
C123A C 0.0144(4) 1.1724(4) 0.3582(4)
C124A C -0.0486(5) 1.1710(5) 0.3169(4)
H78A H -0.0943 1.1360 0.3163
C125A C -0.0450(5) 1.2205(5) 0.2765(4)
H79A H -0.0874 1.2190 0.2484
C126A C 0.0222(4) 1.2714(5) 0.2788(4)
H80A H 0.0259 1.3054 0.2521
C127A C 0.0827(4) 1.2733(4) 0.3187(3)
H81A H 0.1285 1.3079 0.3187
C128A C 0.0786(4) 1.2250(4) 0.3600(4)
H82A H 0.1211 1.2290 0.3896
Mn1A Mn -0.24917(5) -0.49491(5) -0.26258(4)
N9A N -0.3460(2) -0.4947(2) -0.2538(2)
N10A N -0.2425(2) -0.5348(2) -0.1810(2)
N11A N -0.1504(2) -0.4967(2) -0.2709(2)
N12A N -0.2571(2) -0.4581(2) -0.3455(2)
C41A C -0.3141(3) -0.4411(3) -0.3743(3)
C42A C -0.3774(3) -0.4431(3) -0.3492(3)
C43A C -0.3912(3) -0.4684(3) -0.2935(3)
C44A C -0.4546(3) -0.4695(3) -0.2678(3)
H27A H -0.4916 -0.4532 -0.2844
C45A C -0.4495(3) -0.5000(3) -0.2129(3)
H28A H -0.4836 -0.5094 -0.1854
C46A C -0.3608(3) -0.5429(3) -0.1548(3)
C47A C -0.3853(3) -0.5141(3) -0.2063(3)
C48A C -0.2959(3) -0.5514(3) -0.1431(3)
C49A C -0.2686(3) -0.5796(3) -0.0913(3)
H29A H -0.2944 -0.5980 -0.0597
C50A C -0.2033(3) -0.5759(3) -0.0946(3)
H30A H -0.1725 -0.5892 -0.0647
C51A C -0.1851(3) -0.5486(3) -0.1502(3)
C52A C -0.1194(3) -0.5384(3) -0.1714(3)
C53A C -0.1055(4) -0.5145(4) -0.2288(3)
C54A C -0.0409(4) -0.5099(4) -0.2522(3)
H31A H -0.0008 -0.5191 -0.2307
C55A C -0.0466(4) -0.4902(4) -0.3100(3)
H32A H -0.0120 -0.4842 -0.3369
C56A C -0.1149(3) -0.4800(3) -0.3235(3)
C57A C -0.1433(3) -0.4599(3) -0.3771(3)
C58A C -0.2080(3) -0.4485(3) -0.3869(3)
C59A C -0.2358(3) -0.4234(3) -0.4397(3)
H33A H -0.2123 -0.4115 -0.4744
C60A C -0.3004(4) -0.4186(3) -0.4338(3)
H34A H -0.3306 -0.4036 -0.4627
C61A C -0.4307(3) -0.4210(3) -0.3860(3)
C62A C -0.5004(3) -0.4689(3) -0.4110(3)
H35A H -0.5121 -0.5162 -0.4054
C63A C -0.5542(4) -0.4493(4) -0.4447(3)
H36A H -0.6026 -0.4820 -0.4604
C64A C -0.5346(4) -0.3807(4) -0.4542(3)
H37A H -0.5697 -0.3667 -0.4782
C65A C -0.4649(3) -0.3321(4) -0.4295(3)
H38A H -0.4528 -0.2852 -0.4363
C66A C -0.4127(3) -0.3517(3) -0.3951(3)
H39A H -0.3650 -0.3183 -0.3777
C67A C -0.0978(4) -0.4475(4) -0.4285(3)
C68A C -0.0282(4) -0.3946(4) -0.4144(4)
H40A H -0.0086 -0.3671 -0.3722
C69A C 0.0126(5) -0.3824(5) -0.4632(4)
H41A H 0.0598 -0.3470 -0.4549
C70A C -0.0190(4) -0.4240(4) -0.5232(4)
H42A H 0.0078 -0.4160 -0.5565
C71A C -0.0857(4) -0.4757(4) -0.5384(4)
H43A H -0.1046 -0.5033 -0.5807
C72A C -0.1262(4) -0.4874(4) -0.4894(4)
H44A H -0.1733 -0.5231 -0.4987
C73A C -0.0588(4) -0.5500(4) -0.1292(4)
C74A C 0.0031(4) -0.4932(5) -0.1022(4)
H45A H 0.0063 -0.4480 -0.1102
C75A C 0.0616(4) -0.5004(4) -0.0632(4)
H46A H 0.1051 -0.4612 -0.0448
C76A C 0.0541(4) -0.5653(4) -0.0523(4)
H47A H 0.0932 -0.5702 -0.0243
C77A C -0.0050(4) -0.6241(5) -0.0785(4)
H48A H -0.0067 -0.6691 -0.0713
C78A C -0.0651(4) -0.6147(5) -0.1177(4)
H49A H -0.1089 -0.6537 -0.1354
C79A C -0.4112(4) -0.5646(4) -0.1086(3)
C80A C -0.3906(4) -0.5280(4) -0.0448(3)
H50A H -0.3442 -0.4915 -0.0301
C81A C -0.4384(4) -0.5455(4) -0.0029(4)
H51A H -0.4256 -0.5191 0.0398
C82A C -0.5039(4) -0.6006(4) -0.0231(4)
H52A H -0.5351 -0.6134 0.0064
C83A C -0.5249(4) -0.6378(4) -0.0860(3)
H53A H -0.5708 -0.6751 -0.1001
C84A C -0.4776(3) -0.6197(3) -0.1283(3)
H54A H -0.4912 -0.6456 -0.1713
N3A_2 N 0.6253(2) 0.0189(3) 0.0234(2)
N7A_2 N -0.1239(3) 0.9805(3) 0.4943(2)
Mn2_2 Mn -0.5000 0.0000 0.0000
Mn3_2 Mn 1.0000 1.0000 0.5000
Mn1A_2 Mn 0.75083(5) 1.50509(5) 0.73742(4)
N8A_2 N -0.3026(2) -0.6114(2) -0.3228(2)
loop_
_geom_bond_atom_site_label_1
_geom_bond_atom_site_label_2
_geom_bond_site_symmetry_1
_geom_bond_site_symmetry_2
Mn1 N4 1_555 1_555
Mn2 N3 1_555 1_555
Mn3 N7 1_555 1_555
N1 C3 1_555 1_555
N2 H1 1_555 1_555
C1 N2 1_555 1_555
C2 C1 1_555 1_555
C3 C2 1_555 1_555
C4 C3 1_555 1_555
H2 C4 1_555 1_555
C5 C4 1_555 1_555
H3 C5 1_555 1_555
C6 N1 1_555 1_555
C7 C6 1_555 1_555
C8 N2 1_555 1_555
C9 C8 1_555 1_555
H4 C9 1_555 1_555
C10 C1 1_555 1_555
H5 C10 1_555 1_555
C11 C2 1_555 1_555
C12 C11 1_555 1_555
H6 C12 1_555 1_555
C13 C12 1_555 1_555
H7 C13 1_555 1_555
N3 C13 1_555 1_555
C14 N3 1_555 1_555
H8 C14 1_555 1_555
C15 C11 1_555 1_555
H9 C15 1_555 1_555
C16 C7 1_555 1_555
C17 C16 1_555 1_555
H10 C17 1_555 1_555
C18 C17 1_555 1_555
H11 C18 1_555 1_555
N4 C18 1_555 1_555
C19 N4 1_555 1_555
H12 C19 1_555 1_555
C20 C16 1_555 1_555
H13 C20 1_555 1_555
N5 H14 1_555 1_555
N6 C21 1_555 1_555
C21 C22 1_555 1_555
C22 C23 1_555 1_555
C23 N5 1_555 1_555
C24 C23 1_555 1_555
H15 C24 1_555 1_555
C25 C24 1_555 1_555
H16 C25 1_555 1_555
C26 N5 1_555 1_555
C27 C26 1_555 1_555
C28 N6 1_555 1_555
C29 C28 1_555 1_555
H17 C29 1_555 1_555
C30 C21 1_555 1_555
H18 C30 1_555 1_555
C31 C22 1_555 1_555
C32 C31 1_555 1_555
H19 C32 1_555 1_555
C33 C32 1_555 1_555
H20 C33 1_555 1_555
N7 C33 1_555 1_555
C34 N7 1_555 1_555
H21 C34 1_555 1_555
C35 C31 1_555 1_555
H22 C35 1_555 1_555
C36 C27 1_555 1_555
C37 C36 1_555 1_555
H23 C37 1_555 1_555
C38 C37 1_555 1_555
H24 C38 1_555 1_555
N8 Mn1 1_555 1_555
C39 N8 1_555 1_555
H25 C39 1_555 1_555
C40 C36 1_555 1_555
H26 C40 1_555 1_555
N9 Mn1 1_555 1_555
N10 Mn1 1_555 1_555
N11 Mn1 1_555 1_555
N12 Mn1 1_555 1_555
C41 N12 1_555 1_555
C42 C41 1_555 1_555
C43 N9 1_555 1_555
C44 C43 1_555 1_555
H27 C44 1_555 1_555
C45 C44 1_555 1_555
H28 C45 1_555 1_555
C46 C47 1_555 1_555
C47 N9 1_555 1_555
C48 N10 1_555 1_555
C49 C48 1_555 1_555
H29 C49 1_555 1_555
C50 C49 1_555 1_555
H30 C50 1_555 1_555
C51 N10 1_555 1_555
C52 C51 1_555 1_555
C53 N11 1_555 1_555
C54 C53 1_555 1_555
H31 C54 1_555 1_555
C55 C54 1_555 1_555
H32 C55 1_555 1_555
C56 N11 1_555 1_555
C57 C56 1_555 1_555
C58 N12 1_555 1_555
C59 C58 1_555 1_555
H33 C59 1_555 1_555
C60 C41 1_555 1_555
H34 C60 1_555 1_555
C61 C42 1_555 1_555
C62 C61 1_555 1_555
H35 C62 1_555 1_555
C63 C62 1_555 1_555
H36 C63 1_555 1_555
C64 C63 1_555 1_555
H37 C64 1_555 1_555
C65 C64 1_555 1_555
H38 C65 1_555 1_555
C66 C61 1_555 1_555
H39 C66 1_555 1_555
C67 C57 1_555 1_555
C68 C67 1_555 1_555
H40 C68 1_555 1_555
C69 C68 1_555 1_555
H41 C69 1_555 1_555
C70 C69 1_555 1_555
H42 C70 1_555 1_555
C71 C70 1_555 1_555
H43 C71 1_555 1_555
C72 C67 1_555 1_555
H44 C72 1_555 1_555
C73 C52 1_555 1_555
C74 C73 1_555 1_555
H45 C74 1_555 1_555
C75 C74 1_555 1_555
H46 C75 1_555 1_555
C76 C75 1_555 1_555
H47 C76 1_555 1_555
C77 C76 1_555 1_555
H48 C77 1_555 1_555
C78 C73 1_555 1_555
H49 C78 1_555 1_555
C79 C46 1_555 1_555
C80 C79 1_555 1_555
H50 C80 1_555 1_555
C81 C80 1_555 1_555
H51 C81 1_555 1_555
C82 C81 1_555 1_555
H52 C82 1_555 1_555
C83 C82 1_555 1_555
H53 C83 1_555 1_555
C84 C79 1_555 1_555
H54 C84 1_555 1_555
N13 Mn2 1_555 1_555
N14 Mn2 1_555 1_555
C85 N14 1_555 1_555
C86 C85 1_555 1_555
C87 N13 1_555 1_555
C88 C87 1_555 1_555
H55 C88 1_555 1_555
C89 C88 1_555 1_555
H56 C89 1_555 1_555
C90 N13 1_555 1_555
C91 C90 1_555 1_555
C92 N14 1_555 1_555
C93 C92 1_555 1_555
H57 C93 1_555 1_555
C94 C85 1_555 1_555
H58 C94 1_555 1_555
C95 C86 1_555 1_555
C96 C95 1_555 1_555
H59 C96 1_555 1_555
C97 C96 1_555 1_555
H60 C97 1_555 1_555
C98 C97 1_555 1_555
H61 C98 1_555 1_555
C99 C98 1_555 1_555
H62 C99 1_555 1_555
C100 C95 1_555 1_555
H63 C100 1_555 1_555
C101 C91 1_555 1_555
C102 C101 1_555 1_555
H64 C102 1_555 1_555
C103 C102 1_555 1_555
H65 C103 1_555 1_555
C104 C103 1_555 1_555
H66 C104 1_555 1_555
C105 C104 1_555 1_555
H67 C105 1_555 1_555
C106 C101 1_555 1_555
H68 C106 1_555 1_555
N15 Mn3 1_555 1_555
N16 Mn3 1_555 1_555
C107 N16 1_555 1_555
C108 C107 1_555 1_555
C109 N15 1_555 1_555
C110 C109 1_555 1_555
H69 C110 1_555 1_555
C111 C110 1_555 1_555
H70 C111 1_555 1_555
C112 N15 1_555 1_555
C113 C112 1_555 1_555
C114 N16 1_555 1_555
C115 C114 1_555 1_555
H71 C115 1_555 1_555
C116 C107 1_555 1_555
H72 C116 1_555 1_555
C117 C108 1_555 1_555
C118 C117 1_555 1_555
H73 C118 1_555 1_555
C119 C118 1_555 1_555
H74 C119 1_555 1_555
C120 C119 1_555 1_555
H75 C120 1_555 1_555
C121 C120 1_555 1_555
H76 C121 1_555 1_555
C122 C117 1_555 1_555
H77 C122 1_555 1_555
C123 C113 1_555 1_555
C124 C123 1_555 1_555
H78 C124 1_555 1_555
C125 C124 1_555 1_555
H79 C125 1_555 1_555
C126 C125 1_555 1_555
H80 C126 1_555 1_555
C127 C126 1_555 1_555
H81 C127 1_555 1_555
C128 C123 1_555 1_555
H82 C128 1_555 1_555
Cl1 O1 1_555 1_555
O2 Cl1 1_555 1_555
O3 Cl1 1_555 1_555
O4 Cl1 1_555 1_555
Cl2 O5 1_555 1_555
O6 Cl2 1_555 1_555
O7 Cl2 1_555 1_555
O8 Cl2 1_555 1_555
C7A C8 1_555 1_555
C6A C7A 1_555 1_555
N1A C6A 1_555 1_555
C3A N1A 1_555 1_555
C2A C3A 1_555 1_555
C1A C2A 1_555 1_555
N2A C1A 1_555 1_555
H1A N2A 1_555 1_555
C8A C7 1_555 1_555
C9A C8A 1_555 1_555
H4A C9A 1_555 1_555
C10A C1A 1_555 1_555
H5A C10A 1_555 1_555
C11A C2A 1_555 1_555
C12A C11A 1_555 1_555
H6A C12A 1_555 1_555
C13A C12A 1_555 1_555
H7A C13A 1_555 1_555
N3A C13A 1_555 1_555
C14A N3A 1_555 1_555
H8A C14A 1_555 1_555
C15A C11A 1_555 1_555
H9A C15A 1_555 1_555
C4A C3A 1_555 1_555
H2A C4A 1_555 1_555
C5A C6A 1_555 1_555
H3A C5A 1_555 1_555
C16A C7A 1_555 1_555
C17A C16A 1_555 1_555
H10A C17A 1_555 1_555
C18A C17A 1_555 1_555
H11A C18A 1_555 1_555
N4A C18A 1_555 1_555
C19A N4A 1_555 1_555
H12A C19A 1_555 1_555
C20A C16A 1_555 1_555
H13A C20A 1_555 1_555
C27A C28 1_555 1_555
C26A C27A 1_555 1_555
N5A C26A 1_555 1_555
H14A N5A 1_555 1_555
C23A N5A 1_555 1_555
C22A C23A 1_555 1_555
C21A C22A 1_555 1_555
N6A C21A 1_555 1_555
C28A C27 1_555 1_555
C29A C28A 1_555 1_555
H17A C29A 1_555 1_555
C30A C21A 1_555 1_555
H18A C30A 1_555 1_555
C31A C22A 1_555 1_555
C32A C31A 1_555 1_555
H19A C32A 1_555 1_555
C33A C32A 1_555 1_555
H20A C33A 1_555 1_555
N7A C33A 1_555 1_555
C34A N7A 1_555 1_555
H21A C34A 1_555 1_555
C35A C31A 1_555 1_555
H22A C35A 1_555 1_555
C24A C23A 1_555 1_555
H15A C24A 1_555 1_555
C25A C26A 1_555 1_555
H16A C25A 1_555 1_555
C36A C27A 1_555 1_555
C37A C36A 1_555 1_555
H23A C37A 1_555 1_555
C38A C37A 1_555 1_555
H24A C38A 1_555 1_555
N8A C38A 1_555 1_555
C39A N8A 1_555 1_555
H25A C39A 1_555 1_555
C40A C36A 1_555 1_555
H26A C40A 1_555 1_555
C91A C92 1_555 1_555
C90A C91A 1_555 1_555
N13A Mn2 1_555 1_555
C87A N13A 1_555 1_555
C86A C87A 1_555 1_555
C85A C86A 1_555 1_555
N14A Mn2 1_555 1_555
C92A C91 1_555 1_555
C93A C92A 1_555 1_555
H57A C93A 1_555 1_555
C94A C85A 1_555 1_555
H58A C94A 1_555 1_555
C95A C86A 1_555 1_555
C96A C95A 1_555 1_555
H59A C96A 1_555 1_555
C97A C96A 1_555 1_555
H60A C97A 1_555 1_555
C98A C97A 1_555 1_555
H61A C98A 1_555 1_555
C99A C98A 1_555 1_555
H62A C99A 1_555 1_555
C100A C95A 1_555 1_555
H63A C100A 1_555 1_555
C88A C87A 1_555 1_555
H55A C88A 1_555 1_555
C89A C90A 1_555 1_555
H56A C89A 1_555 1_555
C101A C91A 1_555 1_555
C102A C101A 1_555 1_555
H64A C102A 1_555 1_555
C103A C102A 1_555 1_555
H65A C103A 1_555 1_555
C104A C103A 1_555 1_555
H66A C104A 1_555 1_555
C105A C104A 1_555 1_555
H67A C105A 1_555 1_555
C106A C101A 1_555 1_555
H68A C106A 1_555 1_555
C113A C114 1_555 1_555
C112A C113A 1_555 1_555
N15A Mn3 1_555 1_555
C109A N15A 1_555 1_555
C108A C109A 1_555 1_555
C107A C108A 1_555 1_555
N16A Mn3 1_555 1_555
C114A C113 1_555 1_555
C115A C114A 1_555 1_555
H71A C115A 1_555 1_555
C116A C107A 1_555 1_555
H72A C116A 1_555 1_555
C117A C108A 1_555 1_555
C118A C117A 1_555 1_555
H73A C118A 1_555 1_555
C119A C118A 1_555 1_555
H74A C119A 1_555 1_555
C120A C119A 1_555 1_555
H75A C120A 1_555 1_555
C121A C120A 1_555 1_555
H76A C121A 1_555 1_555
C122A C117A 1_555 1_555
H77A C122A 1_555 1_555
C110A C109A 1_555 1_555
H69A C110A 1_555 1_555
C111A C112A 1_555 1_555
H70A C111A 1_555 1_555
C123A C113A 1_555 1_555
C124A C123A 1_555 1_555
H78A C124A 1_555 1_555
C125A C124A 1_555 1_555
H79A C125A 1_555 1_555
C126A C125A 1_555 1_555
H80A C126A 1_555 1_555
C127A C126A 1_555 1_555
H81A C127A 1_555 1_555
C128A C123A 1_555 1_555
H82A C128A 1_555 1_555
Mn1A N4A 1_555 1_555
N9A Mn1A 1_555 1_555
N10A Mn1A 1_555 1_555
N11A Mn1A 1_555 1_555
N12A Mn1A 1_555 1_555
C41A N12A 1_555 1_555
C42A C41A 1_555 1_555
C43A N9A 1_555 1_555
C44A C43A 1_555 1_555
H27A C44A 1_555 1_555
C45A C44A 1_555 1_555
H28A C45A 1_555 1_555
C46A C47A 1_555 1_555
C47A N9A 1_555 1_555
C48A N10A 1_555 1_555
C49A C48A 1_555 1_555
H29A C49A 1_555 1_555
C50A C49A 1_555 1_555
H30A C50A 1_555 1_555
C51A N10A 1_555 1_555
C52A C51A 1_555 1_555
C53A N11A 1_555 1_555
C54A C53A 1_555 1_555
H31A C54A 1_555 1_555
C55A C54A 1_555 1_555
H32A C55A 1_555 1_555
C56A N11A 1_555 1_555
C57A C56A 1_555 1_555
C58A N12A 1_555 1_555
C59A C58A 1_555 1_555
H33A C59A 1_555 1_555
C60A C41A 1_555 1_555
H34A C60A 1_555 1_555
C61A C42A 1_555 1_555
C62A C61A 1_555 1_555
H35A C62A 1_555 1_555
C63A C62A 1_555 1_555
H36A C63A 1_555 1_555
C64A C63A 1_555 1_555
H37A C64A 1_555 1_555
C65A C64A 1_555 1_555
H38A C65A 1_555 1_555
C66A C61A 1_555 1_555
H39A C66A 1_555 1_555
C67A C57A 1_555 1_555
C68A C67A 1_555 1_555
H40A C68A 1_555 1_555
C69A C68A 1_555 1_555
H41A C69A 1_555 1_555
C70A C69A 1_555 1_555
H42A C70A 1_555 1_555
C71A C70A 1_555 1_555
H43A C71A 1_555 1_555
C72A C67A 1_555 1_555
H44A C72A 1_555 1_555
C73A C52A 1_555 1_555
C74A C73A 1_555 1_555
H45A C74A 1_555 1_555
C75A C74A 1_555 1_555
H46A C75A 1_555 1_555
C76A C75A 1_555 1_555
H47A C76A 1_555 1_555
C77A C76A 1_555 1_555
H48A C77A 1_555 1_555
C78A C73A 1_555 1_555
H49A C78A 1_555 1_555
C79A C46A 1_555 1_555
C80A C79A 1_555 1_555
H50A C80A 1_555 1_555
C81A C80A 1_555 1_555
H51A C81A 1_555 1_555
C82A C81A 1_555 1_555
H52A C82A 1_555 1_555
C83A C82A 1_555 1_555
H53A C83A 1_555 1_555
C84A C79A 1_555 1_555
H54A C84A 1_555 1_555
N3A_2 Mn2 1_555 1_555
N7A_2 Mn3 1_555 1_555
Mn2_2 N3A 1_555 1_555
Mn3_2 N7A 1_555 1_555
Mn1A_2 N8A 1_555 1_555
N8A_2 Mn1A 1_555 1_555
C5 C6 1_555 1_555
C9 C10 1_555 1_555
C14 C15 1_555 1_555
C19 C20 1_555 1_555
C25 C26 1_555 1_555
C29 C30 1_555 1_555
C34 C35 1_555 1_555
C38 N8 1_555 1_555
C39 C40 1_555 1_555
C42 C43 1_555 1_555
C45 C47 1_555 1_555
C46 C48 1_555 1_555
C50 C51 1_555 1_555
C52 C53 1_555 1_555
C55 C56 1_555 1_555
C57 C58 1_555 1_555
C59 C60 1_555 1_555
C65 C66 1_555 1_555
C71 C72 1_555 1_555
C77 C78 1_555 1_555
C83 C84 1_555 1_555
C86 C87 1_555 1_555
C89 C90 1_555 1_555
C93 C94 1_555 1_555
C99 C100 1_555 1_555
C105 C106 1_555 1_555
C108 C109 1_555 1_555
C111 C112 1_555 1_555
C115 C116 1_555 1_555
C121 C122 1_555 1_555
C127 C128 1_555 1_555
N2A C8A 1_555 1_555
C9A C10A 1_555 1_555
C14A C15A 1_555 1_555
C4A C5A 1_555 1_555
C19A C20A 1_555 1_555
N6A C28A 1_555 1_555
C29A C30A 1_555 1_555
C34A C35A 1_555 1_555
C24A C25A 1_555 1_555
C39A C40A 1_555 1_555
C90A N13A 1_555 1_555
C85A N14A 1_555 1_555
N14A C92A 1_555 1_555
C93A C94A 1_555 1_555
C99A C100A 1_555 1_555
C88A C89A 1_555 1_555
C105A C106A 1_555 1_555
C112A N15A 1_555 1_555
C107A N16A 1_555 1_555
N16A C114A 1_555 1_555
C115A C116A 1_555 1_555
C121A C122A 1_555 1_555
C110A C111A 1_555 1_555
C127A C128A 1_555 1_555
C42A C43A 1_555 1_555
C45A C47A 1_555 1_555
C46A C48A 1_555 1_555
C50A C51A 1_555 1_555
C52A C53A 1_555 1_555
C55A C56A 1_555 1_555
C57A C58A 1_555 1_555
C59A C60A 1_555 1_555
C65A C66A 1_555 1_555
C71A C72A 1_555 1_555
C77A C78A 1_555 1_555
C83A C84A 1_555 1_555

#END
