
#######################################################################
#
#                 Cambridge Crystallographic Data Centre
#                                CCDC 
#
#######################################################################
#
# If this CIF has been generated from an entry in the Cambridge 
# Structural Database, then it will include bibliographic, chemical, 
# crystal, experimental, refinement or atomic coordinate data resulting 
# from the CCDC's data processing and validation procedures.
#
#######################################################################

data_SIZSUQ
_symmetry_cell_setting           monoclinic
_symmetry_space_group_name_H-M   'P 21/c'
_symmetry_Int_Tables_number      14
_space_group_name_Hall           '-P 2ybc'
loop_
_symmetry_equiv_pos_site_id
_symmetry_equiv_pos_as_xyz
1 x,y,z
2 -x,1/2+y,1/2-z
3 -x,-y,-z
4 x,1/2-y,1/2+z
_cell_length_a                   3.574(2)
_cell_length_b                   15.647(11)
_cell_length_c                   24.302(16)
_cell_angle_alpha                90
_cell_angle_beta                 91.835(9)
_cell_angle_gamma                90
_cell_volume                     1358.33
loop_
_atom_site_label
_atom_site_type_symbol
_atom_site_fract_x
_atom_site_fract_y
_atom_site_fract_z
Na1 Na 0.2212(18) 0.6257(4) 0.7015(2)
O1 O 0.775(3) 0.7650(7) 0.5643(5)
N1 N 0.939(4) 0.8660(9) 0.5019(6)
H1 H 1.0319 0.8272 0.4799
H2 H 0.9452 0.9204 0.4926
N2 N 0.701(4) 0.9902(8) 0.5700(6)
N3 N 0.584(4) 1.0414(9) 0.6137(6)
H3 H 0.5856 1.1257 0.6138
N4 N 0.471(4) 0.9933(9) 0.6547(6)
N5 N 0.311(4) 0.7828(9) 0.6955(6)
C1 C 0.791(5) 0.8427(11) 0.5489(7)
C2 C 0.700(5) 0.9123(10) 0.5867(7)
C3 C 0.521(5) 0.9118(11) 0.6373(7)
C4 C 0.400(5) 0.8433(11) 0.6712(7)
O2 O 0.716(3) 0.4806(6) 0.5657(4)
N6 N 0.898(4) 0.3869(9) 0.5018(6)
H4 H 0.9572 0.4276 0.4787
H5 H 0.9274 0.3329 0.4927
N7 N 0.757(4) 0.2524(8) 0.5733(5)
N8 N 0.606(4) 0.2097(9) 0.6151(6)
N9 N 0.459(4) 0.2584(9) 0.6555(6)
N10 N 0.290(4) 0.4673(9) 0.6957(6)
C5 C 0.765(5) 0.4068(10) 0.5501(6)
C6 C 0.657(5) 0.3369(10) 0.5863(7)
C7 C 0.509(5) 0.3405(11) 0.6388(7)
C8 C 0.385(5) 0.4125(11) 0.6697(7)
O3 O 0.698(3) 0.6245(7) 0.6366(4)
H6 H 0.6910 0.6759 0.6128
H7 H 0.6911 0.5723 0.6136
O4 O 0.757(3) 0.6240(7) 0.7659(4)
H8 H 0.7658 0.6752 0.7899
H9 H 0.7655 0.5716 0.7888
Na1_2 Na 1.2212(18) 0.6257(4) 0.7015(2)
O3_2 O -0.302(3) 0.6245(7) 0.6366(4)
O4_2 O -0.243(3) 0.6240(7) 0.7659(4)
loop_
_geom_bond_atom_site_label_1
_geom_bond_atom_site_label_2
_geom_bond_site_symmetry_1
_geom_bond_site_symmetry_2
Na1 N5 1_555 1_555
O1 C1 1_555 1_555
N1 H1 1_555 1_555
H2 N1 1_555 1_555
N2 N3 1_555 1_555
N3 H3 1_555 1_555
N4 N3 1_555 1_555
N5 C4 1_555 1_555
C1 N1 1_555 1_555
C2 N2 1_555 1_555
C3 N4 1_555 1_555
C4 C3 1_555 1_555
O2 C5 1_555 1_555
N6 H4 1_555 1_555
H5 N6 1_555 1_555
N7 N8 1_555 1_555
N8 N9 1_555 1_555
N9 C7 1_555 1_555
N10 Na1 1_555 1_555
C5 N6 1_555 1_555
C6 N7 1_555 1_555
C7 C6 1_555 1_555
C8 N10 1_555 1_555
O3 Na1 1_555 1_555
H6 O3 1_555 1_555
H7 O3 1_555 1_555
O4 Na1 1_555 1_555
H8 O4 1_555 1_555
H9 O4 1_555 1_555
Na1_2 O3 1_555 1_555
O3_2 Na1 1_555 1_555
O4_2 Na1 1_555 1_555
C1 C2 1_555 1_555
C2 C3 1_555 1_555
C5 C6 1_555 1_555
C7 C8 1_555 1_555
O4 Na1_2 1_555 1_555

#END
