
#######################################################################
#
#                 Cambridge Crystallographic Data Centre
#                                CCDC 
#
#######################################################################
#
# If this CIF has been generated from an entry in the Cambridge 
# Structural Database, then it will include bibliographic, chemical, 
# crystal, experimental, refinement or atomic coordinate data resulting 
# from the CCDC's data processing and validation procedures.
#
#######################################################################

data_SNCGLU01
_symmetry_cell_setting           orthorhombic
_symmetry_space_group_name_H-M   'P b c m'
_symmetry_Int_Tables_number      57
_space_group_name_Hall           '-P 2c 2b'
loop_
_symmetry_equiv_pos_site_id
_symmetry_equiv_pos_as_xyz
1 x,y,z
2 -x,-y,1/2+z
3 x,1/2-y,-z
4 -x,1/2+y,1/2-z
5 -x,-y,-z
6 x,y,1/2-z
7 -x,1/2+y,z
8 x,1/2-y,1/2+z
_cell_length_a                   6.11(1)
_cell_length_b                   12.90(6)
_cell_length_c                   14.57(5)
_cell_angle_alpha                90
_cell_angle_beta                 90
_cell_angle_gamma                90
_cell_volume                     1148.39
loop_
_atom_site_label
_atom_site_type_symbol
_atom_site_fract_x
_atom_site_fract_y
_atom_site_fract_z
Sn1 Sn -0.1604(3) 0.5259(1) 0.2500
Cl1 Cl -0.4217(12) 0.6599(5) 0.2500
Cl2 Cl 0.0407(8) 0.5900(4) 0.3761(3)
Cl3 Cl 0.0102(17) 0.3626(6) 0.2500
N1 N -0.3983(23) 0.4473(12) 0.3495(10)
C1 C -0.5125(33) 0.3944(15) 0.3921(11)
C2 C -0.3522(34) 0.3276(13) 0.4484(11)
C3 C -0.4987(49) 0.2500 0.5000
Cl2E Cl 0.0407(8) 0.5900(4) 0.1239(3)
N1E N -0.3983(23) 0.4473(12) 0.1505(10)
C2B C -0.3522(34) 0.1724(13) 0.5516(11)
C1E C -0.5125(33) 0.3944(15) 0.1079(11)
C1B C -0.5125(33) 0.1056(15) 0.6079(11)
C2E C -0.3522(34) 0.3276(13) 0.0516(11)
N1B N -0.3983(23) 0.0527(12) 0.6505(10)
C3E C -0.4987(49) 0.2500 0.0000
Sn1B Sn -0.1604(3) -0.0259(1) 0.7500
C2G C -0.3522(34) 0.1724(13) -0.0516(11)
Cl1B Cl -0.4217(12) -0.1599(5) 0.7500
Cl2B Cl 0.0407(8) -0.0900(4) 0.6239(3)
Cl2G Cl 0.0407(8) -0.0900(4) 0.8761(3)
Cl3B Cl 0.0102(17) 0.1374(6) 0.7500
N1G N -0.3983(23) 0.0527(12) 0.8495(10)
C1G C -0.5125(33) 0.1056(15) -0.1079(11)
N1G_2 N -0.3983(23) 0.0527(12) -0.1505(10)
Sn1B_2 Sn -0.1604(3) -0.0259(1) -0.2500
loop_
_geom_bond_atom_site_label_1
_geom_bond_atom_site_label_2
_geom_bond_site_symmetry_1
_geom_bond_site_symmetry_2
Sn1 Cl1 1_555 1_555
Cl2 Sn1 1_555 1_555
Cl3 Sn1 1_555 1_555
N1 Sn1 1_555 1_555
C1 N1 1_555 1_555
C2 C1 1_555 1_555
C3 C2 1_555 1_555
Cl2E Sn1 1_555 1_555
N1E Sn1 1_555 1_555
C2B C3 1_555 1_555
C1E N1E 1_555 1_555
C1B C2B 1_555 1_555
C2E C1E 1_555 1_555
N1B C1B 1_555 1_555
C3E C2E 1_555 1_555
Sn1B N1B 1_555 1_555
C2G C3E 1_555 1_555
Cl1B Sn1B 1_555 1_555
Cl2B Sn1B 1_555 1_555
Cl2G Sn1B 1_555 1_555
Cl3B Sn1B 1_555 1_555
N1G Sn1B 1_555 1_555
C1G C2G 1_555 1_555
N1G_2 C1G 1_555 1_555
Sn1B_2 N1G_2 1_555 1_555

#END
