
#######################################################################
#
#                 Cambridge Crystallographic Data Centre
#                                CCDC 
#
#######################################################################
#
# If this CIF has been generated from an entry in the Cambridge 
# Structural Database, then it will include bibliographic, chemical, 
# crystal, experimental, refinement or atomic coordinate data resulting 
# from the CCDC's data processing and validation procedures.
#
#######################################################################

data_SNCGLU
_symmetry_cell_setting           orthorhombic
_symmetry_space_group_name_H-M   'P b c m'
_symmetry_Int_Tables_number      57
_space_group_name_Hall           '-P 2c 2b'
loop_
_symmetry_equiv_pos_site_id
_symmetry_equiv_pos_as_xyz
1 x,y,z
2 -x,-y,1/2+z
3 x,1/2-y,-z
4 -x,1/2+y,1/2-z
5 -x,-y,-z
6 x,y,1/2-z
7 -x,1/2+y,z
8 x,1/2-y,1/2+z
_cell_length_a                   6.11(1)
_cell_length_b                   12.90(6)
_cell_length_c                   14.57(5)
_cell_angle_alpha                90
_cell_angle_beta                 90
_cell_angle_gamma                90
_cell_volume                     1148.39
loop_
_atom_site_label
_atom_site_type_symbol
_atom_site_fract_x
_atom_site_fract_y
_atom_site_fract_z
Cl1 Cl 0.01020 0.36260 0.25000
Cl2 Cl -0.42170 0.65990 0.25000
Cl3 Cl 0.04070 0.59000 0.37610
C1 C -0.51250 0.39440 0.39210
C2 C -0.35220 0.32760 0.44840
C3 C -0.49870 0.25000 0.50000
N1 N -0.39830 0.44730 0.34950
Sn1 Sn -0.16040 0.52590 0.25000
Cl3E Cl 0.04070 0.59000 0.12390
N1E N -0.39830 0.44730 0.15050
C2B C -0.35220 0.17240 0.55160
C1E C -0.51250 0.39440 0.10790
C1B C -0.51250 0.10560 0.60790
C2E C -0.35220 0.32760 0.05160
N1B N -0.39830 0.05270 0.65050
C3E C -0.49870 0.25000 0.00000
Sn1B Sn -0.16040 -0.02590 0.75000
C2G C -0.35220 0.17240 -0.05160
Cl1B Cl 0.01020 0.13740 0.75000
Cl2B Cl -0.42170 -0.15990 0.75000
Cl3B Cl 0.04070 -0.09000 0.62390
Cl3G Cl 0.04070 -0.09000 0.87610
N1G N -0.39830 0.05270 0.84950
C1G C -0.51250 0.10560 -0.10790
N1G_2 N -0.39830 0.05270 -0.15050
Sn1B_2 Sn -0.16040 -0.02590 -0.25000
loop_
_geom_bond_atom_site_label_1
_geom_bond_atom_site_label_2
_geom_bond_site_symmetry_1
_geom_bond_site_symmetry_2
Cl1 Sn1 1_555 1_555
Cl2 Sn1 1_555 1_555
Cl3 Sn1 1_555 1_555
C1 C2 1_555 1_555
C2 C3 1_555 1_555
C3 C2B 1_555 1_555
N1 C1 1_555 1_555
Sn1 N1 1_555 1_555
Cl3E Sn1 1_555 1_555
N1E Sn1 1_555 1_555
C2B C1B 1_555 1_555
C1E N1E 1_555 1_555
C1B N1B 1_555 1_555
C2E C1E 1_555 1_555
N1B Sn1B 1_555 1_555
C3E C2E 1_555 1_555
Sn1B Cl1B 1_555 1_555
C2G C3E 1_555 1_555
Cl2B Sn1B 1_555 1_555
Cl3B Sn1B 1_555 1_555
Cl3G Sn1B 1_555 1_555
N1G Sn1B 1_555 1_555
C1G C2G 1_555 1_555
N1G_2 C1G 1_555 1_555
Sn1B_2 N1G_2 1_555 1_555

#END
