
#######################################################################
#
#                 Cambridge Crystallographic Data Centre
#                                CCDC 
#
#######################################################################
#
# If this CIF has been generated from an entry in the Cambridge 
# Structural Database, then it will include bibliographic, chemical, 
# crystal, experimental, refinement or atomic coordinate data resulting 
# from the CCDC's data processing and validation procedures.
#
#######################################################################

data_SNMAZH
_symmetry_cell_setting           orthorhombic
_symmetry_space_group_name_H-M   'P 21 a b'
_symmetry_Int_Tables_number      29
_space_group_name_Hall           'P -2b 2a'
loop_
_symmetry_equiv_pos_site_id
_symmetry_equiv_pos_as_xyz
1 x,y,z
2 1/2+x,1/2-y,z
3 x,1/2+y,-z
4 1/2+x,-y,-z
_cell_length_a                   7.35(1)
_cell_length_b                   16.84(2)
_cell_length_c                   5.32(1)
_cell_angle_alpha                90
_cell_angle_beta                 90
_cell_angle_gamma                90
_cell_volume                     658.478
loop_
_atom_site_label
_atom_site_type_symbol
_atom_site_fract_x
_atom_site_fract_y
_atom_site_fract_z
Sn1 Sn 0.25000 0.59609 0.63966
O1 O 0.25820 0.47320 0.77760
O2 O 0.03010 0.46510 0.51300
O3 O -0.07800 0.38700 1.03100
O4 O -0.09750 0.25980 1.14700
O5 O 0.01600 0.61030 0.92700
C1 C 0.14520 0.43250 0.64900
C2 C 0.16200 0.34330 0.64000
C3 C 0.08330 0.29140 0.79100
C4 C -0.03970 0.31350 1.00500
H1 H -0.08900 0.64700 0.90100
H2 H -0.03500 0.56600 0.97100
H3 H 0.24700 0.32400 0.50200
H4 H 0.11900 0.23600 0.75600
O2C O 0.53010 0.53490 0.48700
O3C O 0.42200 0.61300 0.96900
Sn1C Sn -0.25000 0.40391 0.36034
Sn1C_2 Sn -0.25000 0.40391 1.36034
loop_
_geom_bond_atom_site_label_1
_geom_bond_atom_site_label_2
_geom_bond_site_symmetry_1
_geom_bond_site_symmetry_2
Sn1 O1 1_555 1_555
O1 C1 1_555 1_555
O2 C1 1_555 1_555
O3 C4 1_555 1_555
O4 C4 1_555 1_555
O5 Sn1 1_555 1_555
C1 C2 1_555 1_555
C2 C3 1_555 1_555
C3 C4 1_555 1_555
H1 O5 1_555 1_555
H2 O5 1_555 1_555
H3 C2 1_555 1_555
H4 C3 1_555 1_555
O2C Sn1 1_555 1_555
O3C Sn1 1_555 1_555
Sn1C O2 1_555 1_555
Sn1C_2 O3 1_555 1_555

#END
