
#######################################################################
#
#                 Cambridge Crystallographic Data Centre
#                                CCDC 
#
#######################################################################
#
# If this CIF has been generated from an entry in the Cambridge 
# Structural Database, then it will include bibliographic, chemical, 
# crystal, experimental, refinement or atomic coordinate data resulting 
# from the CCDC's data processing and validation procedures.
#
#######################################################################

data_SOBBIW
_symmetry_cell_setting           monoclinic
_symmetry_space_group_name_H-M   'C 2/c'
_symmetry_Int_Tables_number      15
_space_group_name_Hall           '-C 2yn'
loop_
_symmetry_equiv_pos_site_id
_symmetry_equiv_pos_as_xyz
1 x,y,z
2 -x,y,1/2-z
3 1/2+x,1/2+y,z
4 1/2-x,1/2+y,1/2-z
5 -x,-y,-z
6 x,-y,1/2+z
7 1/2-x,1/2-y,-z
8 1/2+x,1/2-y,1/2+z
_cell_length_a                   26.4001(12)
_cell_length_b                   8.6506(4)
_cell_length_c                   16.5796(8)
_cell_angle_alpha                90
_cell_angle_beta                 115.8980(10)
_cell_angle_gamma                90
_cell_volume                     3406.14
loop_
_atom_site_label
_atom_site_type_symbol
_atom_site_fract_x
_atom_site_fract_y
_atom_site_fract_z
Ni1 Ni 0.0000 0.5000 0.0000
Ni2 Ni 0.2500 0.7500 0.5000
O1 O -0.17072(5) 0.79906(16) 0.02071(9)
O2 O -0.15437(7) 1.04525(19) 0.06354(13)
O3 O 0.07560(6) 0.46913(19) 0.22412(10)
O4 O 0.08125(5) 0.50941(17) 0.09507(9)
O5 O -0.02433(6) 0.38703(17) 0.08811(9)
H1 H -0.0569 0.3931 0.0865
H2 H 0.0030 0.4034 0.1391
O6 O 0.26622(6) 0.98234(16) 0.48193(10)
H3 H 0.2950 1.0359 0.5140
H4 H 0.2343 1.0232 0.4689
N1 N -0.01472(7) 0.7162(2) 0.04477(11)
N2 N 0.22228(7) 0.7158(2) 0.36272(11)
C1 C -0.06616(8) 0.7507(2) 0.03624(13)
H5 H -0.0947 0.6786 0.0090
C2 C -0.07923(8) 0.8881(2) 0.06572(13)
C3 C -0.03607(9) 0.9931(2) 0.10891(15)
H6 H -0.0434 1.0862 0.1298
C4 C 0.01816(9) 0.9587(2) 0.12081(15)
C5 C 0.02589(8) 0.8214(2) 0.08542(13)
H7 H 0.0616 0.8004 0.0900
C6 C -0.13944(8) 0.9154(2) 0.04921(13)
C7 C 0.06739(9) 1.0656(3) 0.16989(18)
H8 H 0.0846 1.0404 0.2326
H9 H 0.0544 1.1707 0.1621
H10 H 0.0945 1.0538 0.1462
C8 C 0.25514(9) 0.7439(3) 0.32196(14)
H11 H 0.2899 0.7902 0.3551
C9 C 0.24041(10) 0.7082(3) 0.23299(15)
C10 C 0.18845(9) 0.6369(3) 0.18491(14)
H12 H 0.1767 0.6115 0.1249
C11 C 0.15442(8) 0.6041(2) 0.22662(13)
C12 C 0.17256(8) 0.6481(2) 0.31517(13)
H13 H 0.1491 0.6298 0.3428
C13 C 0.09923(8) 0.5199(2) 0.17882(13)
C14 C 0.27973(13) 0.7434(4) 0.19127(19)
H14 H 0.3145 0.7834 0.2362
H15 H 0.2627 0.8187 0.1446
H16 H 0.2870 0.6504 0.1664
O1A O 0.17072(5) 0.79906(16) 0.47929(9)
O2A O 0.15437(7) 1.04525(19) 0.43646(13)
N1A N 0.01472(7) 0.7162(2) 0.45523(11)
C1A C 0.06616(8) 0.7507(2) 0.46376(13)
H5A H 0.0947 0.6786 0.4910
C2A C 0.07923(8) 0.8881(2) 0.43428(13)
C3A C 0.03607(9) 0.9931(2) 0.39109(15)
H6A H 0.0434 1.0862 0.3702
C4A C -0.01816(9) 0.9587(2) 0.37919(15)
C5A C -0.02589(8) 0.8214(2) 0.41458(13)
H7A H -0.0616 0.8004 0.4100
C6A C 0.13944(8) 0.9154(2) 0.45079(13)
C7A C -0.06739(9) 1.0656(3) 0.33011(18)
H8A H -0.0846 1.0404 0.2674
H9A H -0.0544 1.1707 0.3379
H10A H -0.0945 1.0538 0.3538
O3D O -0.07560(6) 0.53087(19) -0.22412(10)
O4D O -0.08125(5) 0.49059(17) -0.09507(9)
N2D N -0.22228(7) 0.2842(2) -0.36272(11)
C8D C -0.25514(9) 0.2561(3) -0.32196(14)
H11D H -0.2899 0.2098 -0.3551
C9D C -0.24041(10) 0.2918(3) -0.23299(15)
C10D C -0.18845(9) 0.3631(3) -0.18491(14)
H12D H -0.1767 0.3885 -0.1249
C11D C -0.15442(8) 0.3959(2) -0.22662(13)
C12D C -0.17256(8) 0.3519(2) -0.31517(13)
H13D H -0.1491 0.3702 -0.3428
C13D C -0.09923(8) 0.4801(2) -0.17882(13)
C14D C -0.27973(13) 0.2566(4) -0.19127(19)
H14D H -0.3145 0.2166 -0.2362
H15D H -0.2627 0.1813 -0.1446
H16D H -0.2870 0.3496 -0.1664
O5D O 0.02433(6) 0.61297(17) -0.08811(9)
H1D H 0.0569 0.6069 -0.0865
H2D H -0.0030 0.5966 -0.1391
O6F O 0.23378(6) 0.51766(16) 0.51807(10)
H3F H 0.2050 0.4641 0.4860
H4F H 0.2657 0.4768 0.5311
Ni1A Ni 0.0000 0.5000 0.5000
Ni2A Ni -0.2500 0.7500 0.0000
Ni2B Ni -0.2500 0.2500 -0.5000
O1G O 0.32928(5) 0.70094(16) 0.52071(9)
N1D N 0.01472(7) 0.2838(2) -0.04477(11)
N2F N 0.27772(7) 0.7842(2) 0.63728(11)
O7 O 0.86992(6) 0.35926(18) 0.09555(10)
H17 H 0.8660 0.2619 0.0884
H18 H 0.8842 0.3905 0.1496
loop_
_geom_bond_atom_site_label_1
_geom_bond_atom_site_label_2
_geom_bond_site_symmetry_1
_geom_bond_site_symmetry_2
Ni1 O4 1_555 1_555
Ni2 O6 1_555 1_555
O1 C6 1_555 1_555
O2 C6 1_555 1_555
O3 C13 1_555 1_555
O4 C13 1_555 1_555
O5 Ni1 1_555 1_555
H1 O5 1_555 1_555
H2 O5 1_555 1_555
O6 H3 1_555 1_555
H4 O6 1_555 1_555
N1 Ni1 1_555 1_555
N2 Ni2 1_555 1_555
C1 N1 1_555 1_555
H5 C1 1_555 1_555
C2 C1 1_555 1_555
C3 C2 1_555 1_555
H6 C3 1_555 1_555
C4 C3 1_555 1_555
C5 N1 1_555 1_555
H7 C5 1_555 1_555
C6 C2 1_555 1_555
C7 C4 1_555 1_555
H8 C7 1_555 1_555
H9 C7 1_555 1_555
H10 C7 1_555 1_555
C8 N2 1_555 1_555
H11 C8 1_555 1_555
C9 C8 1_555 1_555
C10 C9 1_555 1_555
H12 C10 1_555 1_555
C11 C10 1_555 1_555
C12 N2 1_555 1_555
H13 C12 1_555 1_555
C13 C11 1_555 1_555
C14 C9 1_555 1_555
H14 C14 1_555 1_555
H15 C14 1_555 1_555
H16 C14 1_555 1_555
O7 H17 1_555 1_555
H18 O7 1_555 1_555
O1A Ni2 1_555 1_555
O2A C6A 1_555 1_555
N1A C1A 1_555 1_555
C1A H5A 1_555 1_555
C2A C1A 1_555 1_555
C3A C2A 1_555 1_555
H6A C3A 1_555 1_555
C4A C3A 1_555 1_555
C5A N1A 1_555 1_555
H7A C5A 1_555 1_555
C6A O1A 1_555 1_555
C7A C4A 1_555 1_555
H8A C7A 1_555 1_555
H9A C7A 1_555 1_555
H10A C7A 1_555 1_555
O3D C13D 1_555 1_555
O4D Ni1 1_555 1_555
N2D C8D 1_555 1_555
C8D H11D 1_555 1_555
C9D C8D 1_555 1_555
C10D C9D 1_555 1_555
H12D C10D 1_555 1_555
C11D C10D 1_555 1_555
C12D N2D 1_555 1_555
H13D C12D 1_555 1_555
C13D O4D 1_555 1_555
C14D C9D 1_555 1_555
H14D C14D 1_555 1_555
H15D C14D 1_555 1_555
H16D C14D 1_555 1_555
O5D Ni1 1_555 1_555
H1D O5D 1_555 1_555
H2D O5D 1_555 1_555
O6F Ni2 1_555 1_555
H3F O6F 1_555 1_555
H4F O6F 1_555 1_555
Ni1A N1A 1_555 1_555
Ni2A O1 1_555 1_555
Ni2B N2D 1_555 1_555
O1G Ni2 1_555 1_555
N1D Ni1 1_555 1_555
N2F Ni2 1_555 1_555
C4 C5 1_555 1_555
C11 C12 1_555 1_555
C2A C6A 1_555 1_555
C4A C5A 1_555 1_555
C11D C12D 1_555 1_555
C11D C13D 1_555 1_555

#END
