
#######################################################################
#
#                 Cambridge Crystallographic Data Centre
#                                CCDC 
#
#######################################################################
#
# If this CIF has been generated from an entry in the Cambridge 
# Structural Database, then it will include bibliographic, chemical, 
# crystal, experimental, refinement or atomic coordinate data resulting 
# from the CCDC's data processing and validation procedures.
#
#######################################################################

data_SOBGIZ
_symmetry_cell_setting           monoclinic
_symmetry_space_group_name_H-M   'P 21/c'
_symmetry_Int_Tables_number      14
_space_group_name_Hall           '-P 2ybc'
loop_
_symmetry_equiv_pos_site_id
_symmetry_equiv_pos_as_xyz
1 x,y,z
2 -x,1/2+y,1/2-z
3 -x,-y,-z
4 x,1/2-y,1/2+z
_cell_length_a                   12.357(2)
_cell_length_b                   12.400(2)
_cell_length_c                   14.957(4)
_cell_angle_alpha                90
_cell_angle_beta                 100.18(2)
_cell_angle_gamma                90
_cell_volume                     2255.73
loop_
_atom_site_label
_atom_site_type_symbol
_atom_site_fract_x
_atom_site_fract_y
_atom_site_fract_z
Zn1 Zn 0.22387(14) -0.25784(13) 0.23597(11)
Cl1 Cl 0.3500(3) -0.2229(3) 0.1539(3)
Cl2 Cl 0.1703(3) -0.1278(3) 0.3232(3)
O1 O -0.0847(7) -0.1052(7) 0.2619(6)
N1 N 0.0907(9) -0.3127(9) 0.1508(8)
N2 N -0.0099(11) -0.3327(8) 0.1680(8)
N3 N -0.2796(9) 0.1264(9) 0.1713(8)
N4 N -0.3051(9) 0.0219(9) 0.1853(8)
C1 C 0.0848(13) -0.3292(12) 0.0624(12)
C2 C -0.0189(16) -0.3604(13) 0.0200(11)
C3 C -0.0796(13) -0.3605(12) 0.0909(12)
C4 C -0.0342(12) -0.3374(10) 0.2600(10)
C5 C -0.1427(12) -0.2913(11) 0.2671(9)
C6 C -0.2273(13) -0.3600(10) 0.2759(11)
C7 C -0.3303(12) -0.3257(11) 0.2822(10)
C8 C -0.4260(13) -0.4022(12) 0.2912(11)
C9 C -0.3519(11) -0.2125(11) 0.2813(10)
C10 C -0.2660(12) -0.1445(10) 0.2760(9)
C11 C -0.1626(12) -0.1799(11) 0.2675(9)
C12 C -0.2882(11) -0.0238(10) 0.2769(9)
C13 C -0.3547(13) -0.0219(11) 0.1096(11)
C14 C -0.3595(13) 0.0526(13) 0.0399(10)
C15 C -0.3132(12) 0.1400(11) 0.0845(10)
H1 H 0.146 -0.329 0.026
H2 H -0.048 -0.385 -0.045
H3 H -0.161 -0.386 0.087
H4 H -0.023 -0.412 0.284
H5 H 0.024 -0.289 0.298
H6 H -0.214 -0.443 0.276
H7 H -0.476 -0.427 0.231
H8 H -0.476 -0.383 0.334
H9 H -0.388 -0.474 0.316
H10 H -0.418 -0.265 0.287
H11 H -0.221 0.013 0.315
H12 H -0.353 -0.008 0.309
H13 H -0.400 -0.097 0.097
H14 H -0.400 0.036 -0.034
H15 H -0.314 0.204 0.048
N3A N 0.2796(9) -0.3736(9) 0.3287(8)
Zn1A Zn -0.22387(14) 0.24216(13) 0.26403(11)
C16 C 0.0860(16) -0.0439(17) 0.0226(13)
C17 C 0.0775(17) 0.0474(18) -0.0210(15)
C18 C -0.0003(20) -0.0509(19) 0.0831(14)
H16 H 0.141 -0.101 0.017
H17 H 0.092 0.107 -0.063
H18 H -0.047 -0.075 0.127
C18B C 0.0003(20) 0.0509(19) -0.0831(14)
C16B C -0.0860(16) 0.0439(17) -0.0226(13)
C17B C -0.0775(17) -0.0474(18) 0.0210(15)
H17B H -0.092 -0.107 0.063
H16B H -0.141 0.101 -0.017
H18B H 0.047 0.075 -0.127
C19 C 0.478(3) -0.4543(20) -0.0151(22)
C20 C 0.6088(19) -0.4301(19) 0.0075(16)
C21 C 0.6141(21) -0.2933(23) 0.0196(17)
H19 H 0.479 -0.405 -0.076
H20 H 0.471 -0.375 0.014
H21 H 0.633 -0.475 0.063
H22 H 0.640 -0.463 -0.044
H23 H 0.550 -0.298 0.059
H24 H 0.565 -0.286 -0.047
H25 H 0.680 -0.287 0.036
C19B C 0.522(3) -0.5457(20) 0.0151(22)
C20B C 0.3912(19) -0.5699(19) -0.0075(16)
C21B C 0.3859(21) -0.7067(23) -0.0196(17)
H23B H 0.450 -0.702 -0.059
H24B H 0.435 -0.714 0.047
H25B H 0.320 -0.713 -0.036
H21B H 0.367 -0.525 -0.063
H22B H 0.360 -0.537 0.044
H19B H 0.521 -0.595 0.076
H20B H 0.529 -0.625 -0.014
loop_
_geom_bond_atom_site_label_1
_geom_bond_atom_site_label_2
_geom_bond_site_symmetry_1
_geom_bond_site_symmetry_2
Zn1 Cl1 1_555 1_555
Cl2 Zn1 1_555 1_555
O1 C11 1_555 1_555
N1 Zn1 1_555 1_555
N2 N1 1_555 1_555
N3 N4 1_555 1_555
N4 C12 1_555 1_555
C1 N1 1_555 1_555
C2 C1 1_555 1_555
C3 N2 1_555 1_555
C4 N2 1_555 1_555
C5 C4 1_555 1_555
C6 C5 1_555 1_555
C7 C6 1_555 1_555
C8 C7 1_555 1_555
C9 C7 1_555 1_555
C10 C9 1_555 1_555
C11 C5 1_555 1_555
C12 C10 1_555 1_555
C13 N4 1_555 1_555
C14 C13 1_555 1_555
C15 N3 1_555 1_555
C16 C17 1_555 1_555
C17 H17 1_555 1_555
C18 C16 1_555 1_555
C19 C20 1_555 1_555
C20 C21 1_555 1_555
C21 H23 1_555 1_555
H1 C1 1_555 1_555
H2 C2 1_555 1_555
H3 C3 1_555 1_555
H4 C4 1_555 1_555
H5 C4 1_555 1_555
H6 C6 1_555 1_555
H7 C8 1_555 1_555
H8 C8 1_555 1_555
H9 C8 1_555 1_555
H10 C9 1_555 1_555
H11 C12 1_555 1_555
H12 C12 1_555 1_555
H13 C13 1_555 1_555
H14 C14 1_555 1_555
H15 C15 1_555 1_555
H16 C16 1_555 1_555
H18 C18 1_555 1_555
H19 C19 1_555 1_555
H20 C19 1_555 1_555
H21 C20 1_555 1_555
H22 C20 1_555 1_555
H24 C21 1_555 1_555
H25 C21 1_555 1_555
N3A Zn1 1_555 1_555
Zn1A N3 1_555 1_555
C18B C17 1_555 1_555
C16B C18B 1_555 1_555
C17B C18 1_555 1_555
H17B C17B 1_555 1_555
H16B C16B 1_555 1_555
H18B C18B 1_555 1_555
C19B C19 1_555 1_555
C20B C19B 1_555 1_555
C21B C20B 1_555 1_555
H23B C21B 1_555 1_555
H24B C21B 1_555 1_555
H25B C21B 1_555 1_555
H21B C20B 1_555 1_555
H22B C20B 1_555 1_555
H19B C19B 1_555 1_555
H20B C19B 1_555 1_555
C2 C3 1_555 1_555
C10 C11 1_555 1_555
C14 C15 1_555 1_555
C16B C17B 1_555 1_555

#END
