
#######################################################################
#
#                 Cambridge Crystallographic Data Centre
#                                CCDC 
#
#######################################################################
#
# If this CIF has been generated from an entry in the Cambridge 
# Structural Database, then it will include bibliographic, chemical, 
# crystal, experimental, refinement or atomic coordinate data resulting 
# from the CCDC's data processing and validation procedures.
#
#######################################################################

data_SOBQOQ
_symmetry_cell_setting           monoclinic
_symmetry_space_group_name_H-M   'P 21/c'
_symmetry_Int_Tables_number      14
_space_group_name_Hall           '-P 2ybc'
loop_
_symmetry_equiv_pos_site_id
_symmetry_equiv_pos_as_xyz
1 x,y,z
2 -x,1/2+y,1/2-z
3 -x,-y,-z
4 x,1/2-y,1/2+z
_cell_length_a                   7.2901(9)
_cell_length_b                   10.6226(14)
_cell_length_c                   10.9652(14)
_cell_angle_alpha                90
_cell_angle_beta                 107.666(2)
_cell_angle_gamma                90
_cell_volume                     809.099
loop_
_atom_site_label
_atom_site_type_symbol
_atom_site_fract_x
_atom_site_fract_y
_atom_site_fract_z
Cd1 Cd 1.01431(3) 0.077387(17) 0.349580(16)
Cl1 Cl 1.25853(10) -0.01118(6) 0.55290(6)
O1 O 0.9853(3) -0.12203(17) 0.25523(17)
O2 O 0.7284(3) -0.11426(19) -0.25759(17)
N1 N 0.7968(3) 0.09244(19) 0.1405(2)
N2 N 0.9233(3) -0.22201(19) 0.06481(19)
N3 N 0.8529(3) -0.2128(2) -0.0680(2)
H1 H 0.8682 -0.2784 -0.1099
C1 C 0.6913(4) 0.1904(2) 0.0827(3)
H2 H 0.6845 0.2607 0.1317
C2 C 0.5897(4) 0.1927(2) -0.0490(3)
H3 H 0.5103 0.2603 -0.0844
C3 C 0.6096(4) 0.0934(2) -0.1244(3)
H4 H 0.5489 0.0941 -0.2122
C4 C 0.7239(3) -0.0091(2) -0.0654(2)
C5 C 0.7650(4) -0.1156(2) -0.1384(2)
C6 C 0.9121(4) -0.1210(2) 0.1334(2)
C7 C 0.8086(3) -0.0086(2) 0.0674(2)
Cd1B Cd 0.98569(3) -0.077387(17) 0.650420(16)
Cd1B_2 Cd 0.98569(3) -0.077387(17) -0.349580(16)
Cd1A Cd 0.98569(3) -0.422613(17) 0.150420(16)
Cl1B Cl 0.74147(10) 0.01118(6) 0.44710(6)
O2B O 1.2716(3) 0.11426(19) 0.25759(17)
N2A N 1.0767(3) 0.27799(19) 0.43519(19)
loop_
_geom_bond_atom_site_label_1
_geom_bond_atom_site_label_2
_geom_bond_site_symmetry_1
_geom_bond_site_symmetry_2
Cd1 Cl1 1_555 1_555
Cl1 Cd1B 1_555 1_555
O1 Cd1 1_555 1_555
O2 C5 1_555 1_555
N1 Cd1 1_555 1_555
N2 N3 1_555 1_555
N3 H1 1_555 1_555
C1 N1 1_555 1_555
H2 C1 1_555 1_555
C2 C1 1_555 1_555
H3 C2 1_555 1_555
C3 C2 1_555 1_555
H4 C3 1_555 1_555
C4 C3 1_555 1_555
C5 N3 1_555 1_555
C6 O1 1_555 1_555
C7 N1 1_555 1_555
Cd1B Cl1B 1_555 1_555
Cd1B_2 O2 1_555 1_555
Cd1A N2 1_555 1_555
Cl1B Cd1 1_555 1_555
O2B Cd1 1_555 1_555
N2A Cd1 1_555 1_555
N2 C6 1_555 1_555
C4 C5 1_555 1_555
C4 C7 1_555 1_555
C6 C7 1_555 1_555

#END
