
#######################################################################
#
#                 Cambridge Crystallographic Data Centre
#                                CCDC 
#
#######################################################################
#
# If this CIF has been generated from an entry in the Cambridge 
# Structural Database, then it will include bibliographic, chemical, 
# crystal, experimental, refinement or atomic coordinate data resulting 
# from the CCDC's data processing and validation procedures.
#
#######################################################################

data_SOBREI
_symmetry_cell_setting           orthorhombic
_symmetry_space_group_name_H-M   'F d d 2'
_symmetry_Int_Tables_number      43
_space_group_name_Hall           'F 2 -2d'
loop_
_symmetry_equiv_pos_site_id
_symmetry_equiv_pos_as_xyz
1 x,y,z
2 -x,-y,z
3 1/4+x,1/4-y,1/4+z
4 1/4-x,1/4+y,1/4+z
5 x,1/2+y,1/2+z
6 -x,1/2-y,1/2+z
7 1/4+x,3/4-y,3/4+z
8 1/4-x,3/4+y,3/4+z
9 1/2+x,y,1/2+z
10 1/2-x,-y,1/2+z
11 3/4+x,1/4-y,3/4+z
12 3/4-x,1/4+y,3/4+z
13 1/2+x,1/2+y,z
14 1/2-x,1/2-y,z
15 3/4+x,3/4-y,1/4+z
16 3/4-x,3/4+y,1/4+z
_cell_length_a                   21.494(4)
_cell_length_b                   36.481(7)
_cell_length_c                   7.2800(13)
_cell_angle_alpha                90
_cell_angle_beta                 90
_cell_angle_gamma                90
_cell_volume                     5708.41
loop_
_atom_site_label
_atom_site_type_symbol
_atom_site_fract_x
_atom_site_fract_y
_atom_site_fract_z
Zn1 Zn 0.5000 0.0000 0.43673(11)
O1 O 0.42719(14) 0.01082(9) 0.1971(6)
O2 O 0.46081(14) 0.05122(7) 0.3961(5)
N1 N 0.06666(13) 0.02313(8) -0.8893(5)
C1 C 0.05516(17) 0.03489(11) -0.7201(7)
H1 H 0.0140 0.0325 -0.6740
C2 C 0.09937(16) 0.05029(10) -0.6078(6)
H2 H 0.0886 0.0577 -0.4869
C3 C 0.12480(15) 0.02803(9) -0.9544(5)
H3 H 0.1341 0.0202 -1.0758
C4 C 0.17115(14) 0.04397(8) -0.8506(5)
H4 H 0.2113 0.0474 -0.9025
C5 C 0.15983(15) 0.05499(9) -0.6715(6)
C6 C 0.28946(16) 0.05021(9) -0.3071(6)
H5 H 0.3015 0.0296 -0.2262
H6 H 0.3262 0.0570 -0.3815
C7 C 0.23723(17) 0.03782(9) -0.4345(6)
H7 H 0.2529 0.0181 -0.5155
H8 H 0.2028 0.0276 -0.3599
C8 C 0.21228(15) 0.06897(8) -0.5525(5)
H9 H 0.2466 0.0772 -0.6356
C9 C 0.19552(18) 0.10085(10) -0.4285(6)
H10 H 0.1827 0.1220 -0.5051
H11 H 0.1596 0.0938 -0.3507
C10 C 0.2487(2) 0.11221(8) -0.3072(9)
H12 H 0.2833 0.1214 -0.3843
H13 H 0.2351 0.1324 -0.2257
N2 N 0.27104(13) 0.08134(7) -0.1945(4)
C11 C 0.30696(13) 0.08942(8) -0.0389(5)
C12 C 0.29750(15) 0.12184(9) 0.0623(5)
H14 H 0.2676 0.1391 0.0208
C13 C 0.33030(16) 0.12899(9) 0.2185(6)
H15 H 0.3230 0.1513 0.2827
C14 C 0.37425(17) 0.10437(10) 0.2862(6)
H16 H 0.3974 0.1098 0.3941
C15 C 0.35054(15) 0.06418(10) 0.0325(6)
H17 H 0.3575 0.0417 -0.0299
C16 C 0.38336(13) 0.07175(9) 0.1922(7)
C17 C 0.42789(17) 0.04208(13) 0.2627(6)
O1A O 0.57281(14) -0.01082(9) 0.1971(6)
O2A O 0.53919(14) -0.05122(7) 0.3961(5)
N1A N 0.93334(13) -0.02313(8) -0.8893(5)
C1A C 0.94484(17) -0.03489(11) -0.7201(7)
H1A H 0.9860 -0.0325 -0.6740
C2A C 0.90063(16) -0.05029(10) -0.6078(6)
H2A H 0.9114 -0.0577 -0.4869
C3A C 0.87520(15) -0.02803(9) -0.9544(5)
H3A H 0.8659 -0.0202 -1.0758
C4A C 0.82885(14) -0.04397(8) -0.8506(5)
H4A H 0.7887 -0.0474 -0.9025
C5A C 0.84017(15) -0.05499(9) -0.6715(6)
C6A C 0.71054(16) -0.05021(9) -0.3071(6)
H5A H 0.6985 -0.0296 -0.2262
H6A H 0.6738 -0.0570 -0.3815
C7A C 0.76277(17) -0.03782(9) -0.4345(6)
H7A H 0.7471 -0.0181 -0.5155
H8A H 0.7972 -0.0276 -0.3599
C8A C 0.78772(15) -0.06897(8) -0.5525(5)
H9A H 0.7534 -0.0772 -0.6356
C9A C 0.80448(18) -0.10085(10) -0.4285(6)
H10A H 0.8173 -0.1220 -0.5051
H11A H 0.8404 -0.0938 -0.3507
C10A C 0.7513(2) -0.11221(8) -0.3072(9)
H12A H 0.7167 -0.1214 -0.3843
H13A H 0.7649 -0.1324 -0.2257
N2A N 0.72896(13) -0.08134(7) -0.1945(4)
C11A C 0.69304(13) -0.08942(8) -0.0389(5)
C12A C 0.70250(15) -0.12184(9) 0.0623(5)
H14A H 0.7324 -0.1391 0.0208
C13A C 0.66970(16) -0.12899(9) 0.2185(6)
H15A H 0.6770 -0.1513 0.2827
C14A C 0.62575(17) -0.10437(10) 0.2862(6)
H16A H 0.6026 -0.1098 0.3941
C15A C 0.64946(15) -0.06418(10) 0.0325(6)
H17A H 0.6425 -0.0417 -0.0299
C16A C 0.61664(13) -0.07175(9) 0.1922(7)
C17A C 0.57211(17) -0.04208(13) 0.2627(6)
Zn1H Zn 0.0000 0.0000 -1.06327(11)
Zn1H_2 Zn 1.0000 0.0000 -1.06327(11)
N1H N 0.56666(13) 0.02313(8) 0.6107(5)
N1I N 0.43334(13) -0.02313(8) 0.6107(5)
loop_
_geom_bond_atom_site_label_1
_geom_bond_atom_site_label_2
_geom_bond_site_symmetry_1
_geom_bond_site_symmetry_2
Zn1 O1 1_555 1_555
O1 C17 1_555 1_555
O2 Zn1 1_555 1_555
N1 C1 1_555 1_555
C1 H1 1_555 1_555
C2 C1 1_555 1_555
H2 C2 1_555 1_555
C3 N1 1_555 1_555
H3 C3 1_555 1_555
C4 C3 1_555 1_555
H4 C4 1_555 1_555
C5 C2 1_555 1_555
C6 H5 1_555 1_555
H6 C6 1_555 1_555
C7 C6 1_555 1_555
H7 C7 1_555 1_555
H8 C7 1_555 1_555
C8 C5 1_555 1_555
H9 C8 1_555 1_555
C9 C8 1_555 1_555
H10 C9 1_555 1_555
H11 C9 1_555 1_555
C10 C9 1_555 1_555
H12 C10 1_555 1_555
H13 C10 1_555 1_555
N2 C6 1_555 1_555
C11 N2 1_555 1_555
C12 C11 1_555 1_555
H14 C12 1_555 1_555
C13 C12 1_555 1_555
H15 C13 1_555 1_555
C14 C13 1_555 1_555
H16 C14 1_555 1_555
C15 C11 1_555 1_555
H17 C15 1_555 1_555
C16 C14 1_555 1_555
C17 O2 1_555 1_555
O1A Zn1 1_555 1_555
O2A Zn1 1_555 1_555
N1A C1A 1_555 1_555
C1A H1A 1_555 1_555
C2A C1A 1_555 1_555
H2A C2A 1_555 1_555
C3A N1A 1_555 1_555
H3A C3A 1_555 1_555
C4A C3A 1_555 1_555
H4A C4A 1_555 1_555
C5A C2A 1_555 1_555
C6A H5A 1_555 1_555
H6A C6A 1_555 1_555
C7A C6A 1_555 1_555
H7A C7A 1_555 1_555
H8A C7A 1_555 1_555
C8A C5A 1_555 1_555
H9A C8A 1_555 1_555
C9A C8A 1_555 1_555
H10A C9A 1_555 1_555
H11A C9A 1_555 1_555
C10A C9A 1_555 1_555
H12A C10A 1_555 1_555
H13A C10A 1_555 1_555
N2A C6A 1_555 1_555
C11A N2A 1_555 1_555
C12A C11A 1_555 1_555
H14A C12A 1_555 1_555
C13A C12A 1_555 1_555
H15A C13A 1_555 1_555
C14A C13A 1_555 1_555
H16A C14A 1_555 1_555
C15A C11A 1_555 1_555
H17A C15A 1_555 1_555
C16A C14A 1_555 1_555
C17A O1A 1_555 1_555
Zn1H N1 1_555 1_555
Zn1H_2 N1A 1_555 1_555
N1H Zn1 1_555 1_555
N1I Zn1 1_555 1_555
C4 C5 1_555 1_555
C7 C8 1_555 1_555
C10 N2 1_555 1_555
C15 C16 1_555 1_555
C16 C17 1_555 1_555
O2A C17A 1_555 1_555
C4A C5A 1_555 1_555
C7A C8A 1_555 1_555
C10A N2A 1_555 1_555
C15A C16A 1_555 1_555
C16A C17A 1_555 1_555

#END
