
#######################################################################
#
#                 Cambridge Crystallographic Data Centre
#                                CCDC 
#
#######################################################################
#
# If this CIF has been generated from an entry in the Cambridge 
# Structural Database, then it will include bibliographic, chemical, 
# crystal, experimental, refinement or atomic coordinate data resulting 
# from the CCDC's data processing and validation procedures.
#
#######################################################################

data_SOBREH
_symmetry_cell_setting           monoclinic
_symmetry_space_group_name_H-M   'C 2/c'
_symmetry_Int_Tables_number      15
_space_group_name_Hall           '-C 2yn'
loop_
_symmetry_equiv_pos_site_id
_symmetry_equiv_pos_as_xyz
1 x,y,z
2 1/2+x,1/2+y,z
3 -x,y,1/2-z
4 1/2-x,1/2+y,1/2-z
5 -x,-y,-z
6 1/2-x,1/2-y,-z
7 x,-y,1/2+z
8 1/2+x,1/2-y,1/2+z
_cell_length_a                   30.133(3)
_cell_length_b                   9.5959(8)
_cell_length_c                   8.3564(7)
_cell_angle_alpha                90
_cell_angle_beta                 94.889(2)
_cell_angle_gamma                90
_cell_volume                     2407.49
loop_
_atom_site_label
_atom_site_type_symbol
_atom_site_fract_x
_atom_site_fract_y
_atom_site_fract_z
Mn1 Mn 0.291534(6) -0.348027(17) 0.24104(2)
N1 N 0.34808(3) -0.20676(10) 0.41458(12)
O1 O 0.29116(3) -0.40844(9) 0.48959(10)
O2 O 0.33086(3) -0.46623(9) 0.71807(11)
O3 O 0.27006(3) -0.13407(9) 0.23292(11)
O4 O 0.27462(3) 0.08260(8) 0.32924(10)
O5 O 0.45721(4) -0.47806(12) 0.10883(16)
O6 O 0.49456(4) -0.31467(13) -0.01837(16)
H1 H 0.5107(10) -0.390(3) -0.043(3)
C1 C 0.38377(4) -0.16674(12) 0.32074(15)
C2 C 0.40673(4) -0.27250(13) 0.24706(16)
H2 H 0.3989 -0.3672 0.2619
C3 C 0.44101(4) -0.23939(14) 0.15210(16)
C4 C 0.45325(4) -0.10072(15) 0.12964(17)
H3 H 0.4768 -0.0786 0.0654
C5 C 0.43056(5) 0.00375(14) 0.20214(17)
H4 H 0.4387 0.0983 0.1879
C6 C 0.39574(4) -0.02809(13) 0.29622(16)
H5 H 0.3801 0.0449 0.3438
C7 C 0.36193(4) -0.29938(12) 0.55120(15)
H6 H 0.3708 -0.2421 0.6471
H7 H 0.3881 -0.3546 0.5253
C8 C 0.32463(4) -0.39750(12) 0.58879(14)
C9 C 0.31980(4) -0.09248(12) 0.46519(14)
H8 H 0.3389 -0.0125 0.5011
H9 H 0.3039 -0.1238 0.5576
C10 C 0.28598(4) -0.04520(12) 0.33066(14)
C11 C 0.46489(5) -0.35458(15) 0.07805(18)
O7 O 0.31437(3) -0.29030(10) 0.00809(11)
H10 H 0.3124(8) -0.344(3) -0.058(3)
H11 H 0.3011(7) -0.226(2) -0.033(3)
Mn1F Mn 0.291534(6) -0.651973(17) 0.74104(2)
Mn1C Mn 0.208466(6) 0.151973(17) 0.25896(2)
O2F O 0.33086(3) -0.53377(9) 0.21807(11)
O4C O 0.22538(3) -0.41740(8) 0.17076(10)
loop_
_geom_bond_atom_site_label_1
_geom_bond_atom_site_label_2
_geom_bond_site_symmetry_1
_geom_bond_site_symmetry_2
Mn1 N1 1_555 1_555
N1 C1 1_555 1_555
O1 Mn1 1_555 1_555
O2 C8 1_555 1_555
O3 Mn1 1_555 1_555
O4 C10 1_555 1_555
O5 C11 1_555 1_555
O6 H1 1_555 1_555
C1 C2 1_555 1_555
C2 H2 1_555 1_555
C3 C2 1_555 1_555
C4 C3 1_555 1_555
H3 C4 1_555 1_555
C5 C4 1_555 1_555
H4 C5 1_555 1_555
C6 C1 1_555 1_555
H5 C6 1_555 1_555
C7 N1 1_555 1_555
H6 C7 1_555 1_555
H7 C7 1_555 1_555
C8 O1 1_555 1_555
C9 N1 1_555 1_555
H8 C9 1_555 1_555
H9 C9 1_555 1_555
C10 O3 1_555 1_555
C11 O6 1_555 1_555
O7 Mn1 1_555 1_555
H10 O7 1_555 1_555
H11 O7 1_555 1_555
Mn1F O2 1_555 1_555
Mn1C O4 1_555 1_555
O2F Mn1 1_555 1_555
O4C Mn1 1_555 1_555
C3 C11 1_555 1_555
C5 C6 1_555 1_555
C7 C8 1_555 1_555
C9 C10 1_555 1_555

#END
