
#######################################################################
#
#                 Cambridge Crystallographic Data Centre
#                                CCDC 
#
#######################################################################
#
# If this CIF has been generated from an entry in the Cambridge 
# Structural Database, then it will include bibliographic, chemical, 
# crystal, experimental, refinement or atomic coordinate data resulting 
# from the CCDC's data processing and validation procedures.
#
#######################################################################

data_SOBTUA
_symmetry_cell_setting           triclinic
_symmetry_space_group_name_H-M   'P -1'
_symmetry_Int_Tables_number      2
_space_group_name_Hall           '-P 1'
loop_
_symmetry_equiv_pos_site_id
_symmetry_equiv_pos_as_xyz
1 x,y,z
2 -x,-y,-z
_cell_length_a                   17.7472(3)
_cell_length_b                   19.1035(3)
_cell_length_c                   24.6190(4)
_cell_angle_alpha                95.4730(10)
_cell_angle_beta                 91.1120(10)
_cell_angle_gamma                110.914(2)
_cell_volume                     7748.39
loop_
_atom_site_label
_atom_site_type_symbol
_atom_site_fract_x
_atom_site_fract_y
_atom_site_fract_z
Pr1 Pr 0.56353(2) 0.52994(2) 0.69002(2)
Pr2 Pr 0.45171(2) 0.71413(2) 0.76689(2)
Pr3 Pr 0.58436(2) 0.75596(2) 0.60025(2)
Pr4 Pr 0.74346(2) 0.78344(2) 0.76815(2)
Sb1 Sb 0.44797(3) 0.54867(2) 0.56655(2)
Sb2 Sb 0.35091(2) 0.52503(2) 0.69373(2)
Sb3 Sb 0.37079(2) 0.68756(3) 0.62340(2)
Sb4 Sb 0.50198(2) 0.87448(2) 0.68232(2)
Sb5 Sb 0.61443(3) 0.89415(2) 0.80945(2)
Sb6 Sb 0.72027(2) 0.92799(2) 0.68417(2)
Sb7 Sb 0.79919(2) 0.78507(2) 0.62301(2)
Sb8 Sb 0.78883(2) 0.62553(2) 0.69501(2)
Sb9 Sb 0.67113(2) 0.60188(2) 0.56751(2)
Sb10 Sb 0.68589(2) 0.59758(2) 0.82190(2)
Sb11 Sb 0.60015(3) 0.73272(3) 0.87876(2)
Sb12 Sb 0.47052(3) 0.54562(2) 0.82181(2)
Cl1 Cl 0.58567(8) 0.69183(8) 0.70293(6)
Cl2 Cl 0.68002(11) 0.46561(10) 0.73131(8)
Cl3 Cl 0.46799(15) 0.80783(14) 0.87348(9)
Cl4 Cl 0.47693(11) 0.81363(11) 0.54789(9)
Cl5 Cl 0.55919(13) 0.65308(12) 0.49030(8)
Cl6 Cl 0.27290(11) 0.52882(11) 0.58240(10)
Cl7 Cl 0.61840(11) 1.01415(9) 0.73783(8)
Cl8 Cl 0.85004(11) 0.66974(11) 0.57525(8)
Cl9 Cl 0.58352(13) 0.58012(11) 0.91866(8)
O1 O 0.4460(2) 0.5634(2) 0.74557(18)
O2 O 0.4291(2) 0.5155(2) 0.64048(18)
O3 O 0.5614(2) 0.5762(3) 0.59519(18)
O4 O 0.6924(2) 0.5805(2) 0.64186(16)
O5 O 0.7118(2) 0.6342(2) 0.74913(17)
O6 O 0.5748(2) 0.5511(2) 0.79001(18)
O7 O 0.5022(3) 0.6550(2) 0.83708(18)
O8 O 0.3674(2) 0.6312(2) 0.68726(19)
O9 O 0.4532(2) 0.6512(2) 0.58956(19)
O10 O 0.6950(2) 0.7096(2) 0.58950(17)
O11 O 0.7982(2) 0.7309(2) 0.68698(16)
O12 O 0.6796(3) 0.6987(2) 0.83970(17)
O13 O 0.6064(3) 0.7882(2) 0.81326(17)
O14 O 0.4664(2) 0.7624(2) 0.66485(19)
O15 O 0.7265(2) 0.8269(2) 0.6644(2)
O16 O 0.6040(2) 0.8708(2) 0.65463(18)
O17 O 0.6994(2) 0.8932(2) 0.75713(18)
O18 O 0.5214(3) 0.8480(2) 0.75538(18)
O19 O 0.5516(3) 0.4206(3) 0.6198(2)
H1 H 0.5456 0.4380 0.5902
H2 H 0.5070 0.3879 0.6271
O20 O 0.4575(3) 0.4181(3) 0.7210(2)
O21 O 0.4623(4) 0.3137(3) 0.6762(3)
O22 O 0.1245(3) 0.1844(3) 0.7827(3)
O23 O 0.1461(3) -0.0369(3) 0.8458(2)
O24 O -0.1335(4) -0.0176(3) 0.7183(3)
O25 O -0.1280(3) -0.1203(3) 0.7460(3)
O26 O 0.3277(5) -0.1939(5) 0.6853(3)
O27 O 0.3463(3) -0.2353(3) 0.7613(2)
O28 O 0.3106(4) 0.5241(4) 0.8403(3)
O29 O 0.3314(3) 0.6213(4) 0.7964(3)
O30 O 0.0681(3) 0.6619(4) 0.9500(2)
O31 O -0.0269(3) 0.8629(4) 0.9911(3)
O32 O -0.1504(3) 0.7525(3) 0.8084(2)
O33 O -0.1103(4) 0.6601(4) 0.7853(3)
O34 O 0.2114(3) 1.1308(3) 1.1492(2)
O35 O 0.2986(5) 1.1161(5) 1.0921(3)
C1 C 0.2960(5) 0.5789(5) 0.8301(4)
C2 C 0.2311(4) 0.5987(4) 0.8598(3)
C3 C 0.1968(5) 0.5626(5) 0.9041(4)
H3 H 0.2117 0.5238 0.9150
C4 C 0.1410(4) 0.5835(5) 0.9321(4)
H4 H 0.1176 0.5586 0.9616
C5 C 0.1194(4) 0.6415(4) 0.9166(3)
C6 C 0.1510(4) 0.6764(4) 0.8715(3)
H5 H 0.1347 0.7141 0.8600
C7 C 0.2073(4) 0.6550(4) 0.8436(3)
H6 H 0.2294 0.6790 0.8134
C8 C 0.0278(4) 0.7068(4) 0.9322(3)
C9 C 0.0274(5) 0.7661(5) 0.9686(3)
H7 H 0.0567 0.7774 1.0021
C10 C -0.0173(4) 0.8083(5) 0.9544(4)
C11 C -0.0614(4) 0.7913(4) 0.9055(3)
H8 H -0.0920 0.8198 0.8967
C12 C -0.0605(4) 0.7327(4) 0.8698(3)
C13 C -0.0166(4) 0.6886(4) 0.8827(3)
H9 H -0.0170 0.6478 0.8587
C14 C -0.1102(4) 0.7131(4) 0.8162(3)
C15 C 0.0389(5) 0.9198(5) 1.0181(3)
C16 C 0.1119(6) 0.9428(6) 0.9982(4)
H10 H 0.1211 0.9195 0.9653
C17 C 0.1741(6) 1.0018(6) 1.0269(4)
H11 H 0.2252 1.0176 1.0131
C18 C 0.1621(5) 1.0377(4) 1.0756(3)
C19 C 0.0855(5) 1.0130(4) 1.0935(3)
H12 H 0.0749 1.0367 1.1257
C20 C 0.0240(5) 0.9544(5) 1.0654(3)
H13 H -0.0275 0.9383 1.0786
C21 C 0.2280(5) 1.1000(4) 1.1073(3)
C22 C 0.4292(5) 0.3475(4) 0.7063(4)
C23 C 0.3503(4) 0.3039(4) 0.7284(3)
C24 C 0.3087(5) 0.3383(4) 0.7617(3)
H14 H 0.3312 0.3899 0.7721
C25 C 0.2338(4) 0.2966(4) 0.7799(4)
H15 H 0.2065 0.3202 0.8023
C26 C 0.2008(4) 0.2210(4) 0.7646(4)
C27 C 0.2403(5) 0.1848(4) 0.7306(4)
H16 H 0.2170 0.1334 0.7194
C28 C 0.3159(5) 0.2276(4) 0.7136(4)
H17 H 0.3437 0.2038 0.6917
C29 C 0.0961(4) 0.1076(4) 0.7850(3)
C30 C 0.1388(4) 0.0736(4) 0.8130(3)
H18 H 0.1898 0.1013 0.8294
C31 C 0.1035(4) -0.0027(4) 0.8160(3)
C32 C 0.0267(4) -0.0444(4) 0.7934(3)
H19 H 0.0032 -0.0955 0.7971
C33 C -0.0141(4) -0.0089(4) 0.7655(3)
C34 C 0.0214(4) 0.0673(4) 0.7609(3)
H20 H -0.0059 0.0911 0.7414
C35 C -0.0993(4) -0.0530(4) 0.7412(3)
C36 C 0.1877(4) -0.0741(4) 0.8163(3)
C37 C 0.2275(5) -0.1105(5) 0.8459(3)
H21 H 0.2251 -0.1082 0.8837
C38 C 0.2697(4) -0.1491(4) 0.8199(3)
H22 H 0.2960 -0.1732 0.8401
C39 C 0.2740(4) -0.1533(4) 0.7635(3)
C40 C 0.2367(4) -0.1152(4) 0.7354(3)
H23 H 0.2402 -0.1163 0.6978
C41 C 0.1938(4) -0.0750(4) 0.7613(3)
H24 H 0.1695 -0.0490 0.7413
C42 C 0.3189(4) -0.1984(4) 0.7346(3)
Cl10 Cl 0.7076(3) 0.8663(3) 0.5485(3)
Pr2_2 Pr 0.45171(2) -0.28587(2) 0.76689(2)
Pr4_2 Pr -0.25654(2) -0.21656(2) 0.76815(2)
Pr4_3 Pr -0.25654(2) 0.78344(2) 0.76815(2)
Pr4A Pr 0.25654(2) 1.21656(2) 1.23185(2)
Sb6_2 Sb -0.27973(2) -0.07201(2) 0.68417(2)
O24_2 O 0.8665(4) 0.9824(3) 0.7183(3)
O25_2 O 0.8720(3) 0.8797(3) 0.7460(3)
O27_2 O 0.3463(3) 0.7647(3) 0.7613(2)
O32_2 O 0.8496(3) 0.7525(3) 0.8084(2)
O34A O 0.7886(3) 0.8692(3) 0.8508(2)
Fe1 Fe 0.68764(6) 0.24580(5) 0.84463(4)
N1 N 0.6152(3) 0.3027(3) 0.8598(2)
N2 N 0.6924(4) 0.2461(3) 0.9244(2)
N3 N 0.5914(3) 0.1514(3) 0.8359(2)
N4 N 0.6660(4) 0.2414(3) 0.7661(2)
N5 N 0.7837(4) 0.3396(4) 0.8508(3)
N6 N 0.7686(4) 0.1984(4) 0.8370(3)
C43 C 0.5782(5) 0.3324(4) 0.8268(3)
H25 H 0.5845 0.3257 0.7894
C44 C 0.5307(6) 0.3727(5) 0.8445(4)
H26 H 0.5062 0.3926 0.8195
C45 C 0.5202(6) 0.3830(5) 0.8981(4)
H27 H 0.4880 0.4098 0.9104
C46 C 0.5578(5) 0.3532(4) 0.9355(4)
C47 C 0.5526(6) 0.3595(5) 0.9943(4)
H28 H 0.5218 0.3856 1.0101
C48 C 0.5906(6) 0.3289(6) 1.0265(4)
H29 H 0.5853 0.3342 1.0640
C49 C 0.6382(5) 0.2893(5) 1.0057(3)
C50 C 0.6794(5) 0.2552(5) 1.0366(4)
H30 H 0.6757 0.2572 1.0743
C51 C 0.7243(5) 0.2195(5) 1.0120(4)
H31 H 0.7517 0.1970 1.0328
C52 C 0.7304(5) 0.2159(5) 0.9566(3)
H32 H 0.7625 0.1912 0.9408
C53 C 0.6462(4) 0.2825(4) 0.9488(3)
C54 C 0.6051(4) 0.3135(4) 0.9142(3)
C55 C 0.5582(5) 0.1021(4) 0.8710(3)
H33 H 0.5845 0.1073 0.9050
C56 C 0.4846(6) 0.0426(5) 0.8580(4)
H34 H 0.4639 0.0083 0.8832
C57 C 0.4432(5) 0.0339(5) 0.8104(4)
H35 H 0.3933 -0.0047 0.8030
C58 C 0.4765(5) 0.0840(4) 0.7721(4)
C59 C 0.4410(6) 0.0793(5) 0.7192(4)
H36 H 0.3897 0.0438 0.7096
C60 C 0.4800(6) 0.1250(5) 0.6827(4)
H37 H 0.4551 0.1207 0.6483
C61 C 0.5588(5) 0.1805(5) 0.6954(3)
C62 C 0.6040(6) 0.2296(6) 0.6587(4)
H38 H 0.5836 0.2274 0.6232
C63 C 0.6779(6) 0.2800(6) 0.6764(4)
H39 H 0.7092 0.3114 0.6522
C64 C 0.7081(5) 0.2860(5) 0.7299(3)
H40 H 0.7588 0.3217 0.7407
C65 C 0.5924(4) 0.1891(4) 0.7483(3)
C66 C 0.5515(4) 0.1407(4) 0.7867(3)
C67 C 0.7891(6) 0.4105(5) 0.8584(5)
H41 H 0.7418 0.4210 0.8575
C68 C 0.8621(7) 0.4697(6) 0.8678(6)
H42 H 0.8635 0.5190 0.8729
C69 C 0.9297(8) 0.4563(7) 0.8696(7)
H43 H 0.9787 0.4963 0.8763
C70 C 0.9290(6) 0.3828(7) 0.8615(6)
C71 C 0.9974(8) 0.3591(10) 0.8599(8)
H44 H 1.0490 0.3959 0.8635
C72 C 0.9908(7) 0.2885(10) 0.8536(7)
H45 H 1.0372 0.2768 0.8557
C73 C 0.9130(6) 0.2280(7) 0.8434(5)
C74 C 0.8998(8) 0.1513(8) 0.8352(6)
H46 H 0.9434 0.1351 0.8341
C75 C 0.8234(7) 0.1006(7) 0.8288(4)
H47 H 0.8139 0.0492 0.8241
C76 C 0.7594(6) 0.1261(5) 0.8294(4)
H48 H 0.7072 0.0905 0.8242
C77 C 0.8454(5) 0.2490(6) 0.8437(4)
C78 C 0.8531(5) 0.3263(6) 0.8527(4)
Fe2 Fe 0.15621(5) 0.75931(5) 0.50922(4)
N7 N 0.2554(3) 0.8459(3) 0.5329(2)
N8 N 0.1770(3) 0.7998(3) 0.4383(2)
N9 N 0.2137(3) 0.6928(3) 0.4844(2)
N10 N 0.0607(3) 0.6722(3) 0.4798(2)
N11 N 0.1382(3) 0.7244(3) 0.5818(2)
N12 N 0.0936(3) 0.8202(3) 0.5352(3)
C79 C 0.2919(4) 0.8701(4) 0.5822(3)
H49 H 0.2713 0.8426 0.6112
C80 C 0.3601(4) 0.9354(4) 0.5918(3)
H50 H 0.3835 0.9511 0.6271
C81 C 0.3925(4) 0.9762(4) 0.5509(4)
H51 H 0.4374 1.0204 0.5578
C82 C 0.3579(4) 0.9515(4) 0.4980(3)
C83 C 0.3892(5) 0.9868(4) 0.4511(4)
H52 H 0.4354 1.0301 0.4548
C84 C 0.3529(5) 0.9583(5) 0.4007(4)
H53 H 0.3766 0.9807 0.3703
C85 C 0.2790(4) 0.8945(4) 0.3934(3)
C86 C 0.2356(5) 0.8645(4) 0.3434(3)
H54 H 0.2548 0.8853 0.3115
C87 C 0.1649(5) 0.8046(5) 0.3418(3)
H55 H 0.1351 0.7843 0.3089
C88 C 0.1373(5) 0.7736(4) 0.3904(3)
H56 H 0.0887 0.7328 0.3887
C89 C 0.2475(4) 0.8597(3) 0.4395(3)
C90 C 0.2885(4) 0.8864(3) 0.4912(3)
C91 C 0.2936(4) 0.7060(4) 0.4853(3)
H57 H 0.3292 0.7514 0.5028
C92 C 0.3245(5) 0.6546(5) 0.4611(3)
H58 H 0.3802 0.6664 0.4618
C93 C 0.2744(5) 0.5867(4) 0.4362(3)
H59 H 0.2954 0.5522 0.4200
C94 C 0.1900(4) 0.5694(4) 0.4352(3)
C95 C 0.1312(6) 0.5003(4) 0.4120(4)
H60 H 0.1477 0.4622 0.3966
C96 C 0.0520(6) 0.4890(4) 0.4120(4)
H61 H 0.0148 0.4430 0.3966
C97 C 0.0232(4) 0.5454(4) 0.4350(3)
C98 C -0.0588(5) 0.5385(5) 0.4364(4)
H62 H -0.0994 0.4937 0.4223
C99 C -0.0776(4) 0.5966(5) 0.4583(3)
H63 H -0.1314 0.5924 0.4589
C100 C -0.0168(4) 0.6635(4) 0.4801(3)
H64 H -0.0311 0.7031 0.4953
C101 C 0.0801(4) 0.6131(4) 0.4585(3)
C102 C 0.1642(4) 0.6251(3) 0.4594(3)
C103 C 0.1624(4) 0.6747(4) 0.6044(3)
H65 H 0.1925 0.6517 0.5841
C104 C 0.1447(6) 0.6559(5) 0.6569(4)
H66 H 0.1623 0.6207 0.6711
C105 C 0.1015(6) 0.6894(6) 0.6872(4)
H67 H 0.0904 0.6780 0.7228
C106 C 0.0741(5) 0.7403(5) 0.6656(4)
C107 C 0.0259(6) 0.7784(7) 0.6925(4)
H68 H 0.0084 0.7665 0.7270
C108 C 0.0058(5) 0.8297(7) 0.6698(5)
H69 H -0.0231 0.8547 0.6894
C109 C 0.0271(5) 0.8478(5) 0.6162(4)
C110 C 0.0078(6) 0.9006(6) 0.5897(6)
H70 H -0.0206 0.9280 0.6070
C111 C 0.0311(7) 0.9115(6) 0.5377(6)
H71 H 0.0176 0.9461 0.5193
C112 C 0.0747(5) 0.8716(5) 0.5120(4)
H72 H 0.0913 0.8816 0.4770
C113 C 0.0706(4) 0.8100(4) 0.5870(3)
C114 C 0.0943(4) 0.7568(4) 0.6120(3)
N13 N 0.9508(8) 0.5174(7) 0.7422(5)
C115 C 1.1239(8) 0.4462(10) 0.7378(8)
H73 H 1.1590 0.4753 0.7124
H74 H 1.1192 0.3945 0.7309
H75 H 1.1461 0.4655 0.7744
C116 C 1.0439(7) 0.4514(7) 0.7313(6)
C117 C 1.0305(7) 0.5143(7) 0.7478(5)
H76 H 1.0731 0.5566 0.7632
C118 C 0.9052(6) 0.3910(6) 0.7017(6)
H77 H 0.8633 0.3480 0.6863
C119 C 0.8924(7) 0.4528(8) 0.7180(5)
H78 H 0.8404 0.4529 0.7127
C120 C 0.9764(7) 0.3917(6) 0.7076(5)
H79 H 0.9846 0.3478 0.6948
N14 N 0.3919(7) 0.1611(7) 0.9356(6)
C121 C 0.2280(8) 0.2232(9) 0.9914(6)
H80 H 0.1795 0.1791 0.9885
H81 H 0.2156 0.2652 0.9810
H82 H 0.2500 0.2341 1.0285
C122 C 0.2890(6) 0.2091(6) 0.9542(5)
C123 C 0.2952(8) 0.2346(7) 0.9025(5)
H83 H 0.2628 0.2601 0.8912
C124 C 0.3511(8) 0.2208(8) 0.8682(6)
H84 H 0.3557 0.2365 0.8334
C125 C 0.4001(8) 0.1833(7) 0.8860(5)
H85 H 0.4378 0.1742 0.8634
C126 C 0.3381(7) 0.1720(7) 0.9709(6)
H86 H 0.3345 0.1550 1.0053
N15 N 0.0784(9) 0.1357(9) 0.5980(6)
C127 C 0.2558(8) 0.3042(10) 0.5748(6)
H87 H 0.2584 0.2892 0.5368
H88 H 0.3002 0.2996 0.5952
H89 H 0.2589 0.3556 0.5796
C128 C 0.1769(8) 0.2539(8) 0.5953(4)
C129 C 0.1350(9) 0.2860(9) 0.6302(5)
H90 H 0.1545 0.3376 0.6413
C130 C 0.0629(9) 0.2385(11) 0.6482(6)
H91 H 0.0336 0.2587 0.6716
C131 C 0.0335(9) 0.1611(11) 0.6319(6)
H92 H -0.0147 0.1290 0.6439
C132 C 0.1487(9) 0.1767(8) 0.5781(6)
H93 H 0.1767 0.1551 0.5546
N16 N 0.7970(14) 0.5434(12) 0.9653(8)
C133 C 0.6516(13) 0.5688(13) 1.0624(10)
H94 H 0.6418 0.6147 1.0601
H95 H 0.6552 0.5606 1.1001
H96 H 0.6080 0.5274 1.0434
C134 C 0.7308(11) 0.5747(8) 1.0364(7)
C135 C 0.8030(12) 0.6192(11) 1.0664(9)
H97 H 0.8045 0.6445 1.1009
C136 C 0.8730(12) 0.6217(12) 1.0391(11)
H98 H 0.9230 0.6507 1.0564
C137 C 0.8718(13) 0.5828(13) 0.9870(10)
H99 H 0.9183 0.5844 0.9696
C138 C 0.7261(13) 0.5352(10) 0.9847(8)
H100 H 0.6774 0.5059 0.9658
O36 O 0.8884(12) 1.0150(12) 0.5909(11)
O37 O 0.383(2) 0.970(3) 0.992(2)
O38 O 0.258(2) 0.062(2) 0.5651(14)
O39 O 0.5122(13) 0.9021(11) 0.9988(6)
O40 O 0.4122(9) 0.1859(7) 0.5776(5)
O41? O 0.6730(10) 0.8393(10) 0.5385(8)
Cl11? Cl 0.8310(4) 0.9619(4) 0.5691(3)
O42? O 0.362(2) 0.9877(19) 1.0433(16)
O43? O 0.232(3) 0.029(2) 0.6326(18)
loop_
_geom_bond_atom_site_label_1
_geom_bond_atom_site_label_2
_geom_bond_site_symmetry_1
_geom_bond_site_symmetry_2
Pr1 Cl1 1_555 1_555
Pr2 Cl1 1_555 1_555
Pr3 Cl1 1_555 1_555
Pr4 Cl1 1_555 1_555
Sb1 Cl6 1_555 1_555
Sb2 O1 1_555 1_555
Sb3 Cl6 1_555 1_555
Sb4 Cl7 1_555 1_555
Sb5 Cl7 1_555 1_555
Sb6 O15 1_555 1_555
Sb7 Cl8 1_555 1_555
Sb8 O4 1_555 1_555
Sb9 Cl8 1_555 1_555
Sb10 Cl9 1_555 1_555
Sb11 O7 1_555 1_555
Sb12 Cl9 1_555 1_555
Cl2 Pr1 1_555 1_555
Cl3 Pr2 1_555 1_555
Cl4 Pr3 1_555 1_555
Cl5 Pr3 1_555 1_555
O1 Pr1 1_555 1_555
O2 Pr1 1_555 1_555
O3 Pr1 1_555 1_555
O4 Pr1 1_555 1_555
O5 Pr1 1_555 1_555
O6 Pr1 1_555 1_555
O7 Pr2 1_555 1_555
O8 Pr2 1_555 1_555
O9 Pr3 1_555 1_555
O10 Pr3 1_555 1_555
O11 Pr4 1_555 1_555
O12 Pr4 1_555 1_555
O13 Pr2 1_555 1_555
O14 Pr2 1_555 1_555
O15 Pr3 1_555 1_555
O16 Pr3 1_555 1_555
O17 Pr4 1_555 1_555
O18 Pr2 1_555 1_555
O19 Pr1 1_555 1_555
H1 O19 1_555 1_555
H2 O19 1_555 1_555
O20 Pr1 1_555 1_555
O21 C22 1_555 1_555
O22 C26 1_555 1_555
O23 C31 1_555 1_555
O24 C35 1_555 1_555
O25 C35 1_555 1_555
O26 C42 1_555 1_555
O27 C42 1_555 1_555
O28 C1 1_555 1_555
O29 Pr2 1_555 1_555
O30 C5 1_555 1_555
O31 C10 1_555 1_555
O32 C14 1_555 1_555
O33 C14 1_555 1_555
O34 C21 1_555 1_555
O35 C21 1_555 1_555
C1 O29 1_555 1_555
C2 C1 1_555 1_555
C3 C2 1_555 1_555
H3 C3 1_555 1_555
C4 C3 1_555 1_555
H4 C4 1_555 1_555
C5 C4 1_555 1_555
C6 C5 1_555 1_555
H5 C6 1_555 1_555
C7 C2 1_555 1_555
H6 C7 1_555 1_555
C8 O30 1_555 1_555
C9 C8 1_555 1_555
H7 C9 1_555 1_555
C10 C9 1_555 1_555
C11 C10 1_555 1_555
H8 C11 1_555 1_555
C12 C11 1_555 1_555
C13 C8 1_555 1_555
H9 C13 1_555 1_555
C14 C12 1_555 1_555
C15 O31 1_555 1_555
C16 C15 1_555 1_555
H10 C16 1_555 1_555
C17 C16 1_555 1_555
H11 C17 1_555 1_555
C18 C17 1_555 1_555
C19 C18 1_555 1_555
H12 C19 1_555 1_555
C20 C15 1_555 1_555
H13 C20 1_555 1_555
C21 C18 1_555 1_555
C22 O20 1_555 1_555
C23 C22 1_555 1_555
C24 C23 1_555 1_555
H14 C24 1_555 1_555
C25 C24 1_555 1_555
H15 C25 1_555 1_555
C26 C25 1_555 1_555
C27 C26 1_555 1_555
H16 C27 1_555 1_555
C28 C23 1_555 1_555
H17 C28 1_555 1_555
C29 O22 1_555 1_555
C30 C29 1_555 1_555
H18 C30 1_555 1_555
C31 C30 1_555 1_555
C32 C31 1_555 1_555
H19 C32 1_555 1_555
C33 C32 1_555 1_555
C34 C29 1_555 1_555
H20 C34 1_555 1_555
C35 C33 1_555 1_555
C36 O23 1_555 1_555
C37 C36 1_555 1_555
H21 C37 1_555 1_555
C38 C37 1_555 1_555
H22 C38 1_555 1_555
C39 C38 1_555 1_555
C40 C39 1_555 1_555
H23 C40 1_555 1_555
C41 C36 1_555 1_555
H24 C41 1_555 1_555
C42 C39 1_555 1_555
Cl10 Pr3 1_555 1_555
Fe1 N1 1_555 1_555
N1 C43 1_555 1_555
N2 Fe1 1_555 1_555
N3 Fe1 1_555 1_555
N4 Fe1 1_555 1_555
N5 Fe1 1_555 1_555
N6 Fe1 1_555 1_555
C43 H25 1_555 1_555
C44 C43 1_555 1_555
H26 C44 1_555 1_555
C45 C44 1_555 1_555
H27 C45 1_555 1_555
C46 C45 1_555 1_555
C47 C46 1_555 1_555
H28 C47 1_555 1_555
C48 C47 1_555 1_555
H29 C48 1_555 1_555
C49 C48 1_555 1_555
C50 C49 1_555 1_555
H30 C50 1_555 1_555
C51 C50 1_555 1_555
H31 C51 1_555 1_555
C52 N2 1_555 1_555
H32 C52 1_555 1_555
C53 N2 1_555 1_555
C54 N1 1_555 1_555
C55 N3 1_555 1_555
H33 C55 1_555 1_555
C56 C55 1_555 1_555
H34 C56 1_555 1_555
C57 C56 1_555 1_555
H35 C57 1_555 1_555
C58 C57 1_555 1_555
C59 C58 1_555 1_555
H36 C59 1_555 1_555
C60 C59 1_555 1_555
H37 C60 1_555 1_555
C61 C60 1_555 1_555
C62 C61 1_555 1_555
H38 C62 1_555 1_555
C63 C62 1_555 1_555
H39 C63 1_555 1_555
C64 N4 1_555 1_555
H40 C64 1_555 1_555
C65 N4 1_555 1_555
C66 N3 1_555 1_555
C67 N5 1_555 1_555
H41 C67 1_555 1_555
C68 C67 1_555 1_555
H42 C68 1_555 1_555
C69 C68 1_555 1_555
H43 C69 1_555 1_555
C70 C69 1_555 1_555
C71 C70 1_555 1_555
H44 C71 1_555 1_555
C72 C71 1_555 1_555
H45 C72 1_555 1_555
C73 C72 1_555 1_555
C74 C73 1_555 1_555
H46 C74 1_555 1_555
C75 C74 1_555 1_555
H47 C75 1_555 1_555
C76 N6 1_555 1_555
H48 C76 1_555 1_555
C77 N6 1_555 1_555
C78 N5 1_555 1_555
Fe2 N7 1_555 1_555
N7 C79 1_555 1_555
N8 Fe2 1_555 1_555
N9 Fe2 1_555 1_555
N10 Fe2 1_555 1_555
N11 Fe2 1_555 1_555
N12 Fe2 1_555 1_555
C79 H49 1_555 1_555
C80 C79 1_555 1_555
H50 C80 1_555 1_555
C81 C80 1_555 1_555
H51 C81 1_555 1_555
C82 C81 1_555 1_555
C83 C82 1_555 1_555
H52 C83 1_555 1_555
C84 C83 1_555 1_555
H53 C84 1_555 1_555
C85 C84 1_555 1_555
C86 C85 1_555 1_555
H54 C86 1_555 1_555
C87 C86 1_555 1_555
H55 C87 1_555 1_555
C88 N8 1_555 1_555
H56 C88 1_555 1_555
C89 N8 1_555 1_555
C90 N7 1_555 1_555
C91 N9 1_555 1_555
H57 C91 1_555 1_555
C92 C91 1_555 1_555
H58 C92 1_555 1_555
C93 C92 1_555 1_555
H59 C93 1_555 1_555
C94 C93 1_555 1_555
C95 C94 1_555 1_555
H60 C95 1_555 1_555
C96 C95 1_555 1_555
H61 C96 1_555 1_555
C97 C96 1_555 1_555
C98 C97 1_555 1_555
H62 C98 1_555 1_555
C99 C98 1_555 1_555
H63 C99 1_555 1_555
C100 N10 1_555 1_555
H64 C100 1_555 1_555
C101 N10 1_555 1_555
C102 N9 1_555 1_555
C103 N11 1_555 1_555
H65 C103 1_555 1_555
C104 C103 1_555 1_555
H66 C104 1_555 1_555
C105 C104 1_555 1_555
H67 C105 1_555 1_555
C106 C105 1_555 1_555
C107 C106 1_555 1_555
H68 C107 1_555 1_555
C108 C107 1_555 1_555
H69 C108 1_555 1_555
C109 C108 1_555 1_555
C110 C109 1_555 1_555
H70 C110 1_555 1_555
C111 C110 1_555 1_555
H71 C111 1_555 1_555
C112 N12 1_555 1_555
H72 C112 1_555 1_555
C113 N12 1_555 1_555
C114 N11 1_555 1_555
N13 C117 1_555 1_555
C115 H73 1_555 1_555
H74 C115 1_555 1_555
H75 C115 1_555 1_555
C116 C115 1_555 1_555
C117 C116 1_555 1_555
H76 C117 1_555 1_555
C118 H77 1_555 1_555
C119 N13 1_555 1_555
H78 C119 1_555 1_555
C120 C116 1_555 1_555
H79 C120 1_555 1_555
N14 C125 1_555 1_555
C121 H80 1_555 1_555
H81 C121 1_555 1_555
H82 C121 1_555 1_555
C122 C121 1_555 1_555
C123 C122 1_555 1_555
H83 C123 1_555 1_555
C124 C123 1_555 1_555
H84 C124 1_555 1_555
C125 C124 1_555 1_555
H85 C125 1_555 1_555
C126 N14 1_555 1_555
H86 C126 1_555 1_555
N15 C131 1_555 1_555
C127 H87 1_555 1_555
H88 C127 1_555 1_555
H89 C127 1_555 1_555
C128 C127 1_555 1_555
C129 C128 1_555 1_555
H90 C129 1_555 1_555
C130 C129 1_555 1_555
H91 C130 1_555 1_555
C131 C130 1_555 1_555
H92 C131 1_555 1_555
C132 N15 1_555 1_555
H93 C132 1_555 1_555
N16 C137 1_555 1_555
C133 H94 1_555 1_555
H95 C133 1_555 1_555
H96 C133 1_555 1_555
C134 C133 1_555 1_555
C135 C134 1_555 1_555
H97 C135 1_555 1_555
C136 C135 1_555 1_555
H98 C136 1_555 1_555
C137 C136 1_555 1_555
H99 C137 1_555 1_555
C138 N16 1_555 1_555
H100 C138 1_555 1_555
Pr2_2 O27 1_555 1_555
Pr4_2 O25 1_555 1_555
Pr4_3 O32 1_555 1_555
Pr4A O34 1_555 1_555
Sb6_2 O24 1_555 1_555
O24_2 Sb6 1_555 1_555
O25_2 Pr4 1_555 1_555
O27_2 Pr2 1_555 1_555
O32_2 Pr4 1_555 1_555
O34A Pr4 1_555 1_555
Pr2 O1 1_555 1_555
Pr3 O14 1_555 1_555
Pr4 O5 1_555 1_555
Pr4 O13 1_555 1_555
Pr4 O15 1_555 1_555
Sb1 O2 1_555 1_555
Sb1 O3 1_555 1_555
Sb1 O9 1_555 1_555
Sb2 O2 1_555 1_555
Sb2 O8 1_555 1_555
Sb3 O8 1_555 1_555
Sb3 O9 1_555 1_555
Sb3 O14 1_555 1_555
Sb4 O14 1_555 1_555
Sb4 O16 1_555 1_555
Sb4 O18 1_555 1_555
Sb5 O13 1_555 1_555
Sb5 O17 1_555 1_555
Sb5 O18 1_555 1_555
Sb6 O16 1_555 1_555
Sb6 O17 1_555 1_555
Sb7 O10 1_555 1_555
Sb7 O11 1_555 1_555
Sb7 O15 1_555 1_555
Sb8 O5 1_555 1_555
Sb8 O11 1_555 1_555
Sb9 O3 1_555 1_555
Sb9 O4 1_555 1_555
Sb9 O10 1_555 1_555
Sb10 O5 1_555 1_555
Sb10 O6 1_555 1_555
Sb10 O12 1_555 1_555
Sb11 O12 1_555 1_555
Sb11 O13 1_555 1_555
Sb12 O1 1_555 1_555
Sb12 O6 1_555 1_555
Sb12 O7 1_555 1_555
C6 C7 1_555 1_555
C12 C13 1_555 1_555
C19 C20 1_555 1_555
C27 C28 1_555 1_555
C33 C34 1_555 1_555
C40 C41 1_555 1_555
C46 C54 1_555 1_555
C49 C53 1_555 1_555
C51 C52 1_555 1_555
C53 C54 1_555 1_555
C58 C66 1_555 1_555
C61 C65 1_555 1_555
C63 C64 1_555 1_555
C65 C66 1_555 1_555
C70 C78 1_555 1_555
C73 C77 1_555 1_555
C75 C76 1_555 1_555
C77 C78 1_555 1_555
C82 C90 1_555 1_555
C85 C89 1_555 1_555
C87 C88 1_555 1_555
C89 C90 1_555 1_555
C94 C102 1_555 1_555
C97 C101 1_555 1_555
C99 C100 1_555 1_555
C101 C102 1_555 1_555
C106 C114 1_555 1_555
C109 C113 1_555 1_555
C111 C112 1_555 1_555
C113 C114 1_555 1_555
C118 C119 1_555 1_555
C118 C120 1_555 1_555
C122 C126 1_555 1_555
C128 C132 1_555 1_555
C134 C138 1_555 1_555

#END
