
#######################################################################
#
#                 Cambridge Crystallographic Data Centre
#                                CCDC 
#
#######################################################################
#
# If this CIF has been generated from an entry in the Cambridge 
# Structural Database, then it will include bibliographic, chemical, 
# crystal, experimental, refinement or atomic coordinate data resulting 
# from the CCDC's data processing and validation procedures.
#
#######################################################################

data_SOBTOU
_symmetry_cell_setting           monoclinic
_symmetry_space_group_name_H-M   'P 21/n'
_symmetry_Int_Tables_number      14
_space_group_name_Hall           '-P 2yn'
loop_
_symmetry_equiv_pos_site_id
_symmetry_equiv_pos_as_xyz
1 x,y,z
2 1/2-x,1/2+y,1/2-z
3 -x,-y,-z
4 1/2+x,1/2-y,1/2+z
_cell_length_a                   12.8307(3)
_cell_length_b                   27.0624(9)
_cell_length_c                   32.2935(7)
_cell_angle_alpha                90
_cell_angle_beta                 95.917(2)
_cell_angle_gamma                90
_cell_volume                     11153.5
loop_
_atom_site_label
_atom_site_type_symbol
_atom_site_fract_x
_atom_site_fract_y
_atom_site_fract_z
Pr1 Pr 0.57468(3) 0.60433(2) 0.78774(2)
Pr2 Pr 0.31323(2) 0.47788(2) 0.77555(2)
Pr3 Pr 0.58120(3) 0.47768(2) 0.67868(2)
Pr4 Pr 0.31179(3) 0.60334(2) 0.67071(2)
Sb1 Sb 0.54631(3) 0.49226(2) 0.84838(2)
Sb2 Sb 0.74819(3) 0.49097(2) 0.77975(2)
Sb3 Sb 0.54647(3) 0.39668(2) 0.76967(2)
Sb4 Sb 0.34298(3) 0.39941(2) 0.68405(2)
Sb5 Sb 0.34575(3) 0.49461(2) 0.60493(2)
Sb6 Sb 0.14248(3) 0.49356(2) 0.67498(2)
Sb7 Sb 0.14197(3) 0.58793(2) 0.75615(2)
Sb8 Sb 0.34282(3) 0.68256(2) 0.76541(2)
Sb9 Sb 0.34272(3) 0.58590(2) 0.84429(2)
Sb10 Sb 0.74845(3) 0.58871(2) 0.70009(2)
Sb11 Sb 0.54694(3) 0.68183(2) 0.69482(2)
Sb12 Sb 0.54517(3) 0.59121(2) 0.61332(2)
Cl1 Cl 0.44711(11) 0.54028(6) 0.72763(4)
Cl2 Cl 0.80864(14) 0.60861(8) 0.79483(6)
Cl3 Cl 0.59287(18) 0.71163(7) 0.79214(6)
Cl4 Cl 0.31115(12) 0.47539(6) 0.86727(5)
Cl5 Cl 0.31440(16) 0.36704(7) 0.77280(6)
Cl6 Cl 0.5788(2) 0.47475(13) 0.58617(9)
Cl7 Cl 0.30045(14) 0.60638(8) 0.57794(5)
Cl8 Cl 0.07921(14) 0.60213(8) 0.66149(6)
Cl9 Cl 0.70961(15) 0.41410(8) 0.84691(6)
Cl10 Cl 0.17706(16) 0.41495(9) 0.61012(6)
Cl11 Cl 0.17303(18) 0.66864(8) 0.82265(6)
Cl12 Cl 0.70708(15) 0.67154(8) 0.63538(6)
O1 O 0.6404(3) 0.63072(16) 0.72186(12)
O2 O 0.4425(3) 0.65197(16) 0.72932(12)
O3 O 0.4056(3) 0.63479(16) 0.80774(12)
O4 O 0.4477(3) 0.54280(15) 0.82135(11)
O5 O 0.6409(3) 0.52279(16) 0.81069(12)
O6 O 0.6950(3) 0.53263(17) 0.73121(12)
O7 O 0.6461(3) 0.56068(17) 0.65563(12)
O8 O 0.4803(3) 0.63614(17) 0.65195(13)
O9 O 0.2467(3) 0.63310(16) 0.73583(13)
O10 O 0.2444(3) 0.55790(16) 0.79941(12)
O11 O 0.4833(3) 0.44874(16) 0.80441(12)
O12 O 0.6523(3) 0.44254(16) 0.74934(13)
O13 O 0.4492(3) 0.54083(18) 0.63409(12)
O14 O 0.2013(3) 0.53495(17) 0.72311(12)
O15 O 0.4536(3) 0.42832(17) 0.72410(13)
O16 O 0.2519(3) 0.52355(17) 0.64375(12)
O17 O 0.2446(3) 0.44613(16) 0.70538(12)
O18 O 0.4064(3) 0.44635(17) 0.64636(12)
O19 O 0.1336(3) 0.4561(2) 0.79170(14)
H1 H 0.1131 0.4664 0.8144
H2 H 0.0835 0.4584 0.7724
O20 O 0.7722(4) 0.4681(2) 0.66540(17)
H3 H 0.8198 0.4771 0.6827
H4 H 0.7863 0.4504 0.6461
O21 O 0.6085(4) 0.6132(2) 0.85992(13)
O22 O 0.5181(5) 0.5832(3) 0.91025(17)
O23 O 0.9301(4) 0.6889(2) 0.93326(16)
O24 O 0.7458(4) 0.62304(18) 1.04114(13)
O25 O 0.9228(7) 0.8423(2) 0.78752(19)
O26 O 0.8840(5) 0.8915(2) 0.83749(18)
O27 O 0.7719(4) 0.8140(2) 1.15391(17)
O28 O 0.857(3) 0.7588(5) 1.1953(6)
C1 C 0.5933(6) 0.6055(3) 0.8977(2)
C2 C 0.6775(5) 0.6252(2) 0.92912(19)
C3 C 0.6711(6) 0.6177(3) 0.97088(19)
H5 H 0.6136 0.6016 0.9799
C4 C 0.7510(6) 0.6343(3) 0.99915(18)
C5 C 0.8372(6) 0.6583(3) 0.98681(19)
H6 H 0.8913 0.6689 1.0062
C6 C 0.8407(5) 0.6660(3) 0.9452(2)
C7 C 0.7620(5) 0.6503(2) 0.91569(19)
H7 H 0.7657 0.6563 0.8875
C8 C 0.9165(5) 0.7276(3) 0.9053(2)
C9 C 0.9660(6) 0.7250(3) 0.8698(2)
H8 H 1.0026 0.6968 0.8635
C10 C 0.9601(6) 0.7656(3) 0.8433(2)
H9 H 0.9939 0.7647 0.8192
C11 C 0.9047(5) 0.8071(3) 0.8524(2)
C12 C 0.8560(6) 0.8091(3) 0.8884(2)
H10 H 0.8198 0.8374 0.8950
C13 C 0.8614(6) 0.7684(3) 0.9149(2)
H11 H 0.8276 0.7691 0.9390
C14 C 0.9046(6) 0.8516(3) 0.8243(2)
C15 C 0.7558(5) 0.6612(2) 1.06982(18)
C16 C 0.7360(5) 0.7104(3) 1.0593(2)
H12 H 0.7157 0.7193 1.0318
C17 C 0.7467(5) 0.7452(3) 1.08979(19)
H13 H 0.7333 0.7782 1.0831
C18 C 0.7775(5) 0.7321(2) 1.13080(19)
C19 C 0.7935(5) 0.6828(3) 1.14062(19)
H14 H 0.8130 0.6737 1.1681
C20 C 0.7812(5) 0.6471(3) 1.11036(19)
H15 H 0.7900 0.6139 1.1172
C21 C 0.7977(7) 0.7720(3) 1.1631(2)
Cl13 Cl -0.04639(15) 0.49481(11) 0.73012(6)
Pr3A Pr 0.91880(3) 0.97768(2) 0.82132(2)
Pr4C Pr 0.81179(3) 0.89666(2) 1.17071(2)
Sb3A Sb 0.95353(3) 0.89668(2) 0.73033(2)
O25A O 0.5772(7) 0.3423(2) 0.71248(19)
O26A O 0.6160(5) 0.3915(2) 0.66251(18)
O27C O 0.2719(4) 0.6860(2) 0.65391(17)
Fe1 Fe 0.69618(7) 0.29247(3) 1.00099(3)
N1 N 0.6101(4) 0.3464(2) 0.97411(15)
N2 N 0.7638(4) 0.3476(2) 1.03343(15)
N3 N 0.7992(4) 0.2958(2) 0.95961(16)
N4 N 0.7915(4) 0.2402(2) 1.02543(16)
N5 N 0.5947(4) 0.2810(2) 1.04189(15)
N6 N 0.6128(4) 0.2412(2) 0.96939(15)
C22 C 0.5332(5) 0.3455(3) 0.9433(2)
H16 H 0.5122 0.3151 0.9318
C23 C 0.4833(5) 0.3874(3) 0.9276(2)
H17 H 0.4307 0.3849 0.9057
C24 C 0.5099(5) 0.4331(3) 0.9439(2)
H18 H 0.4744 0.4612 0.9338
C25 C 0.5911(5) 0.4363(3) 0.9759(2)
C26 C 0.6293(6) 0.4812(3) 0.9946(2)
H19 H 0.6001 0.5110 0.9847
C27 C 0.7064(6) 0.4818(3) 1.0260(2)
H20 H 0.7281 0.5116 1.0383
C28 C 0.7557(5) 0.4366(3) 1.0407(2)
C29 C 0.8367(5) 0.4346(3) 1.0729(2)
H21 H 0.8604 0.4631 1.0869
C30 C 0.8809(5) 0.3894(3) 1.0836(2)
H22 H 0.9364 0.3872 1.1044
C31 C 0.8423(5) 0.3470(3) 1.0631(2)
H23 H 0.8733 0.3169 1.0708
C32 C 0.7223(5) 0.3924(2) 1.02252(18)
C33 C 0.6376(5) 0.3917(2) 0.98999(19)
C34 C 0.8036(5) 0.3258(3) 0.9274(2)
H24 H 0.7539 0.3507 0.9230
C35 C 0.8797(6) 0.3214(3) 0.9001(2)
H25 H 0.8798 0.3432 0.8778
C36 C 0.9535(6) 0.2859(3) 0.9054(2)
H26 H 1.0045 0.2832 0.8870
C37 C 0.9524(5) 0.2526(3) 0.9391(2)
C38 C 1.0232(6) 0.2123(3) 0.9476(3)
H27 H 1.0742 0.2063 0.9298
C39 C 1.0176(6) 0.1832(3) 0.9805(3)
H28 H 1.0648 0.1572 0.9850
C40 C 0.9408(6) 0.1906(3) 1.0093(2)
C41 C 0.9311(6) 0.1631(3) 1.0449(3)
H29 H 0.9766 0.1369 1.0518
C42 C 0.8554(7) 0.1744(3) 1.0695(3)
H30 H 0.8494 0.1561 1.0935
C43 C 0.7872(6) 0.2125(3) 1.0594(2)
H31 H 0.7359 0.2194 1.0769
C44 C 0.8692(5) 0.2296(2) 1.0010(2)
C45 C 0.8739(5) 0.2602(2) 0.9660(2)
C46 C 0.5900(6) 0.2998(3) 1.0798(2)
H32 H 0.6395 0.3233 1.0894
C47 C 0.5151(6) 0.2860(3) 1.1057(2)
H33 H 0.5158 0.2998 1.1321
C48 C 0.4407(6) 0.2524(3) 1.0922(2)
H34 H 0.3894 0.2434 1.1092
C49 C 0.4417(5) 0.2314(3) 1.0529(2)
C50 C 0.3696(6) 0.1948(3) 1.0352(2)
H35 H 0.3166 0.1837 1.0505
C51 C 0.3766(6) 0.1762(3) 0.9973(2)
H36 H 0.3273 0.1531 0.9866
C52 C 0.4571(5) 0.1906(3) 0.9728(2)
C53 C 0.4711(6) 0.1715(3) 0.9336(2)
H37 H 0.4240 0.1486 0.9209
C54 C 0.5554(5) 0.1869(3) 0.9141(2)
H38 H 0.5658 0.1741 0.8881
C55 C 0.6248(5) 0.2210(3) 0.9326(2)
H39 H 0.6821 0.2302 0.9190
C56 C 0.5297(5) 0.2259(2) 0.98920(18)
C57 C 0.5210(5) 0.2469(2) 1.02884(18)
N7 N 0.0204(5) 0.4739(3) 0.8619(2)
C58 C -0.0456(10) 0.4383(4) 0.9680(3)
H40 H -0.0051 0.4567 0.9895
H41 H -0.0141 0.4065 0.9650
H42 H -0.1157 0.4341 0.9754
C59 C -0.0489(7) 0.4662(4) 0.9274(3)
C60 C -0.1074(7) 0.5077(4) 0.9188(3)
H43 H -0.1501 0.5196 0.9382
C61 C -0.1035(7) 0.5319(4) 0.8819(3)
H44 H -0.1443 0.5597 0.8754
C62 C -0.0366(6) 0.5134(3) 0.8545(3)
H45 H -0.0323 0.5301 0.8295
C63 C 0.0141(7) 0.4510(3) 0.8976(3)
H46 H 0.0547 0.4228 0.9030
N8 N 0.4301(11) 0.8298(4) 0.8077(5)
H47 H 0.3726 0.8189 0.8159
C64 C 0.5659(11) 0.8494(4) 0.7100(4)
H48 H 0.6385 0.8414 0.7089
H49 H 0.5523 0.8820 0.6990
H50 H 0.5231 0.8260 0.6938
C65 C 0.5402(12) 0.8476(3) 0.7553(4)
C66 C 0.6176(13) 0.8646(4) 0.7841(4)
H51 H 0.6815 0.8762 0.7768
C67 C 0.5960(14) 0.8633(4) 0.8209(6)
H52 H 0.6486 0.8752 0.8403
C68 C 0.5152(15) 0.8488(4) 0.8362(6)
H53 H 0.5103 0.8501 0.8647
C69 C 0.4503(11) 0.8306(4) 0.7636(4)
H54 H 0.4006 0.8195 0.7427
N9 N 0.8007(16) 0.7545(8) 0.7245(6)
H55 H 0.7378 0.7653 0.7250
C70 C 1.0157(15) 0.7810(8) 0.6601(5)
H56 H 0.9742 0.8061 0.6453
H57 H 1.0791 0.7953 0.6732
H58 H 1.0327 0.7558 0.6409
C71 C 0.9534(19) 0.7580(10) 0.6933(8)
C72 C 0.985(2) 0.7249(9) 0.7173(7)
H59 H 1.0494 0.7108 0.7137
C73 C 0.929(2) 0.7056(11) 0.7513(7)
H60 H 0.9614 0.6842 0.7711
C74 C 0.832(3) 0.7193(15) 0.7528(12)
H61 H 0.7889 0.7062 0.7715
C75 C 0.8569(17) 0.7747(9) 0.6956(7)
H62 H 0.8289 0.7995 0.6779
N10 N 1.0631(15) 0.5510(7) 0.5207(7)
C76 C 0.882(2) 0.5350(9) 0.6008(6)
H63 H 0.8144 0.5499 0.6009
H64 H 0.9282 0.5474 0.6238
H65 H 0.8762 0.4998 0.6032
C77 C 0.9280(15) 0.5478(5) 0.5595(6)
C78 C 0.9075(19) 0.5778(8) 0.4922(6)
H66 H 0.8661 0.5911 0.4696
C79 C 0.8556(15) 0.5680(7) 0.5278(6)
H67 H 0.7850 0.5738 0.5301
C80 C 1.013(2) 0.5700(7) 0.4862(6)
H68 H 1.0434 0.5771 0.4619
C81 C 1.0353(16) 0.5381(7) 0.5581(7)
H69 H 1.0800 0.5247 0.5797
O29 O 0.8433(7) 0.4147(3) 0.5903(2)
O30 O 0.6865(19) 0.4084(9) 0.5301(7)
O31? O 0.801(5) 0.7597(11) 1.2011(5)
N11? N 0.833(3) 0.7184(15) 0.7466(11)
H70? H 0.8089 0.6986 0.7642
C82? C 1.0801(15) 0.7346(10) 0.7027(8)
H71? H 1.1055 0.7076 0.7202
H72? H 1.0902 0.7273 0.6743
H73? H 1.1178 0.7641 0.7113
C83? C 0.9622(18) 0.7423(13) 0.7064(11)
C84? C 0.9069(19) 0.7726(12) 0.6889(10)
H74? H 0.9301 0.7903 0.6669
C85? C 0.808(3) 0.7819(12) 0.7011(9)
H75? H 0.7664 0.8058 0.6868
C86? C 0.769(2) 0.7561(12) 0.7346(9)
H76? H 0.7076 0.7641 0.7463
C87? C 0.928(2) 0.7065(12) 0.7359(8)
H77? H 0.9662 0.6791 0.7459
N12? N 0.783(2) 0.5932(9) 0.5030(7)
C88? C 1.027(2) 0.5368(11) 0.5553(10)
H78? H 1.0339 0.5178 0.5805
H79? H 1.0483 0.5171 0.5329
H80? H 1.0708 0.5656 0.5589
C89? C 0.913(2) 0.5526(7) 0.5452(6)
C90? C 0.839(2) 0.5380(9) 0.5721(7)
H81? H 0.8588 0.5191 0.5957
C91? C 0.736(2) 0.5532(10) 0.5619(9)
H82? H 0.6857 0.5443 0.5792
C92? C 0.707(2) 0.5815(9) 0.5261(9)
H83? H 0.6382 0.5916 0.5191
C93? C 0.885(2) 0.5807(9) 0.5097(7)
H84? H 0.9336 0.5903 0.4918
O32? O 0.246(2) 0.7787(9) 0.8319(11)
O33? O 0.774(3) 0.4502(15) 0.5104(12)
O34? O 0.504(3) 0.5346(14) 0.5148(12)
loop_
_geom_bond_atom_site_label_1
_geom_bond_atom_site_label_2
_geom_bond_site_symmetry_1
_geom_bond_site_symmetry_2
Pr1 Cl1 1_555 1_555
Pr2 Cl1 1_555 1_555
Pr3 Cl1 1_555 1_555
Pr4 Cl1 1_555 1_555
Sb1 Cl9 1_555 1_555
Sb2 Cl9 1_555 1_555
Sb3 Cl5 1_555 1_555
Sb4 Cl5 1_555 1_555
Sb5 Cl6 1_555 1_555
Sb6 Cl8 1_555 1_555
Sb7 Cl8 1_555 1_555
Sb8 Cl11 1_555 1_555
Sb9 Cl4 1_555 1_555
Sb10 Cl2 1_555 1_555
Sb11 Cl12 1_555 1_555
Sb12 Cl12 1_555 1_555
Cl2 Pr1 1_555 1_555
Cl3 Pr1 1_555 1_555
Cl4 Pr2 1_555 1_555
Cl5 Pr2 1_555 1_555
Cl6 Pr3 1_555 1_555
Cl7 Pr4 1_555 1_555
Cl8 Pr4 1_555 1_555
Cl9 Sb3 1_555 1_555
Cl10 Sb4 1_555 1_555
Cl11 Sb7 1_555 1_555
Cl12 Sb10 1_555 1_555
O1 Pr1 1_555 1_555
O2 Pr1 1_555 1_555
O3 Pr1 1_555 1_555
O4 Pr1 1_555 1_555
O5 Pr1 1_555 1_555
O6 Pr3 1_555 1_555
O7 Pr3 1_555 1_555
O8 Pr4 1_555 1_555
O9 Pr4 1_555 1_555
O10 Pr2 1_555 1_555
O11 Pr2 1_555 1_555
O12 Pr3 1_555 1_555
O13 Pr3 1_555 1_555
O14 Pr2 1_555 1_555
O15 Pr2 1_555 1_555
O16 Pr4 1_555 1_555
O17 Pr2 1_555 1_555
O18 Pr3 1_555 1_555
O19 Pr2 1_555 1_555
H1 O19 1_555 1_555
H2 O19 1_555 1_555
O20 Pr3 1_555 1_555
H3 O20 1_555 1_555
H4 O20 1_555 1_555
O21 Pr1 1_555 1_555
O22 C1 1_555 1_555
O23 C6 1_555 1_555
O24 C4 1_555 1_555
O25 C14 1_555 1_555
O26 C14 1_555 1_555
O27 C21 1_555 1_555
O28 C21 1_555 1_555
C1 O21 1_555 1_555
C2 C1 1_555 1_555
C3 C2 1_555 1_555
H5 C3 1_555 1_555
C4 C3 1_555 1_555
C5 C4 1_555 1_555
H6 C5 1_555 1_555
C6 C5 1_555 1_555
C7 C2 1_555 1_555
H7 C7 1_555 1_555
C8 O23 1_555 1_555
C9 C8 1_555 1_555
H8 C9 1_555 1_555
C10 C9 1_555 1_555
H9 C10 1_555 1_555
C11 C10 1_555 1_555
C12 C11 1_555 1_555
H10 C12 1_555 1_555
C13 C8 1_555 1_555
H11 C13 1_555 1_555
C14 C11 1_555 1_555
C15 O24 1_555 1_555
C16 C15 1_555 1_555
H12 C16 1_555 1_555
C17 C16 1_555 1_555
H13 C17 1_555 1_555
C18 C17 1_555 1_555
C19 C18 1_555 1_555
H14 C19 1_555 1_555
C20 C15 1_555 1_555
H15 C20 1_555 1_555
C21 C18 1_555 1_555
Cl13 Sb6 1_555 1_555
Fe1 N1 1_555 1_555
N1 C22 1_555 1_555
N2 Fe1 1_555 1_555
N3 Fe1 1_555 1_555
N4 Fe1 1_555 1_555
N5 Fe1 1_555 1_555
N6 Fe1 1_555 1_555
C22 H16 1_555 1_555
C23 C22 1_555 1_555
H17 C23 1_555 1_555
C24 C23 1_555 1_555
H18 C24 1_555 1_555
C25 C24 1_555 1_555
C26 C25 1_555 1_555
H19 C26 1_555 1_555
C27 C26 1_555 1_555
H20 C27 1_555 1_555
C28 C27 1_555 1_555
C29 C28 1_555 1_555
H21 C29 1_555 1_555
C30 C29 1_555 1_555
H22 C30 1_555 1_555
C31 N2 1_555 1_555
H23 C31 1_555 1_555
C32 N2 1_555 1_555
C33 N1 1_555 1_555
C34 N3 1_555 1_555
H24 C34 1_555 1_555
C35 C34 1_555 1_555
H25 C35 1_555 1_555
C36 C35 1_555 1_555
H26 C36 1_555 1_555
C37 C36 1_555 1_555
C38 C37 1_555 1_555
H27 C38 1_555 1_555
C39 C38 1_555 1_555
H28 C39 1_555 1_555
C40 C39 1_555 1_555
C41 C40 1_555 1_555
H29 C41 1_555 1_555
C42 C41 1_555 1_555
H30 C42 1_555 1_555
C43 N4 1_555 1_555
H31 C43 1_555 1_555
C44 N4 1_555 1_555
C45 N3 1_555 1_555
C46 N5 1_555 1_555
H32 C46 1_555 1_555
C47 C46 1_555 1_555
H33 C47 1_555 1_555
C48 C47 1_555 1_555
H34 C48 1_555 1_555
C49 C48 1_555 1_555
C50 C49 1_555 1_555
H35 C50 1_555 1_555
C51 C50 1_555 1_555
H36 C51 1_555 1_555
C52 C51 1_555 1_555
C53 C52 1_555 1_555
H37 C53 1_555 1_555
C54 C53 1_555 1_555
H38 C54 1_555 1_555
C55 N6 1_555 1_555
H39 C55 1_555 1_555
C56 N6 1_555 1_555
C57 N5 1_555 1_555
N7 C62 1_555 1_555
C58 H40 1_555 1_555
H41 C58 1_555 1_555
H42 C58 1_555 1_555
C59 C58 1_555 1_555
C60 C59 1_555 1_555
H43 C60 1_555 1_555
C61 C60 1_555 1_555
H44 C61 1_555 1_555
C62 C61 1_555 1_555
H45 C62 1_555 1_555
C63 N7 1_555 1_555
H46 C63 1_555 1_555
N8 H47 1_555 1_555
C64 H48 1_555 1_555
H49 C64 1_555 1_555
H50 C64 1_555 1_555
C65 C64 1_555 1_555
C66 C65 1_555 1_555
H51 C66 1_555 1_555
C67 C66 1_555 1_555
H52 C67 1_555 1_555
C68 N8 1_555 1_555
H53 C68 1_555 1_555
C69 N8 1_555 1_555
H54 C69 1_555 1_555
N9 H55 1_555 1_555
C70 H56 1_555 1_555
H57 C70 1_555 1_555
H58 C70 1_555 1_555
C71 C70 1_555 1_555
C72 C71 1_555 1_555
H59 C72 1_555 1_555
C73 C72 1_555 1_555
H60 C73 1_555 1_555
C74 N9 1_555 1_555
H61 C74 1_555 1_555
C75 N9 1_555 1_555
H62 C75 1_555 1_555
N10 C80 1_555 1_555
C76 H63 1_555 1_555
H64 C76 1_555 1_555
H65 C76 1_555 1_555
C77 C76 1_555 1_555
C78 H66 1_555 1_555
C79 C77 1_555 1_555
H67 C79 1_555 1_555
C80 C78 1_555 1_555
H68 C80 1_555 1_555
C81 N10 1_555 1_555
H69 C81 1_555 1_555
Pr3A O26 1_555 1_555
Pr4C O27 1_555 1_555
Sb3A O25 1_555 1_555
O25A Sb3 1_555 1_555
O26A Pr3 1_555 1_555
O27C Pr4 1_555 1_555
Pr2 O4 1_555 1_555
Pr3 O15 1_555 1_555
Pr4 O2 1_555 1_555
Pr4 O13 1_555 1_555
Sb1 O4 1_555 1_555
Sb1 O5 1_555 1_555
Sb1 O11 1_555 1_555
Sb2 O5 1_555 1_555
Sb2 O6 1_555 1_555
Sb2 O12 1_555 1_555
Sb3 O11 1_555 1_555
Sb3 O12 1_555 1_555
Sb3 O15 1_555 1_555
Sb4 O15 1_555 1_555
Sb4 O17 1_555 1_555
Sb4 O18 1_555 1_555
Sb5 Cl10 1_555 1_555
Sb5 O13 1_555 1_555
Sb5 O16 1_555 1_555
Sb5 O18 1_555 1_555
Sb6 Cl10 1_555 1_555
Sb6 O14 1_555 1_555
Sb6 O16 1_555 1_555
Sb6 O17 1_555 1_555
Sb7 O9 1_555 1_555
Sb7 O10 1_555 1_555
Sb7 O14 1_555 1_555
Sb8 O2 1_555 1_555
Sb8 O3 1_555 1_555
Sb8 O9 1_555 1_555
Sb9 Cl11 1_555 1_555
Sb9 O3 1_555 1_555
Sb9 O4 1_555 1_555
Sb9 O10 1_555 1_555
Sb10 O1 1_555 1_555
Sb10 O6 1_555 1_555
Sb10 O7 1_555 1_555
Sb11 O1 1_555 1_555
Sb11 O2 1_555 1_555
Sb11 O8 1_555 1_555
Sb12 O7 1_555 1_555
Sb12 O8 1_555 1_555
Sb12 O13 1_555 1_555
C6 C7 1_555 1_555
C12 C13 1_555 1_555
C19 C20 1_555 1_555
C25 C33 1_555 1_555
C28 C32 1_555 1_555
C30 C31 1_555 1_555
C32 C33 1_555 1_555
C37 C45 1_555 1_555
C40 C44 1_555 1_555
C42 C43 1_555 1_555
C44 C45 1_555 1_555
C49 C57 1_555 1_555
C52 C56 1_555 1_555
C54 C55 1_555 1_555
C56 C57 1_555 1_555
C59 C63 1_555 1_555
C65 C69 1_555 1_555
C67 C68 1_555 1_555
C71 C75 1_555 1_555
C73 C74 1_555 1_555
C77 C81 1_555 1_555
C78 C79 1_555 1_555

#END
