
#######################################################################
#
#                 Cambridge Crystallographic Data Centre
#                                CCDC 
#
#######################################################################
#
# If this CIF has been generated from an entry in the Cambridge 
# Structural Database, then it will include bibliographic, chemical, 
# crystal, experimental, refinement or atomic coordinate data resulting 
# from the CCDC's data processing and validation procedures.
#
#######################################################################

data_SOBVOV
_symmetry_cell_setting           monoclinic
_symmetry_space_group_name_H-M   'P 21/a'
_symmetry_Int_Tables_number      14
_space_group_name_Hall           '-P 2yab'
loop_
_symmetry_equiv_pos_site_id
_symmetry_equiv_pos_as_xyz
1 x,y,z
2 1/2-x,1/2+y,-z
3 -x,-y,-z
4 1/2+x,1/2-y,z
_cell_length_a                   8.0435(8)
_cell_length_b                   11.3910(10)
_cell_length_c                   15.6248(14)
_cell_angle_alpha                90
_cell_angle_beta                 98.099(5)
_cell_angle_gamma                90
_cell_volume                     1417.32
loop_
_atom_site_label
_atom_site_type_symbol
_atom_site_fract_x
_atom_site_fract_y
_atom_site_fract_z
Mn1 Mn 1.0000 0.0000 1.0000
O1 O 0.9428(3) -0.1418(2) 0.91423(16)
O2 O 1.6112(3) -0.1475(2) 0.91184(15)
O3 O 1.2434(2) -0.07540(19) 0.99033(15)
N1 N 0.9124(3) -0.1090(2) 1.11823(17)
C1 C 0.7494(5) -0.1323(3) 1.2538(2)
H1 H 0.6833 -0.0976 1.2995
C2 C 1.5508(4) -0.0660(3) 0.9602(2)
C3 C 1.3835(4) -0.0329(3) 0.9958(2)
C4 C 0.7797(5) -0.2511(3) 1.2550(2)
C5 C 0.8797(5) -0.2963(3) 1.1852(2)
H2 H 0.9025 -0.3762 1.1823
C6 C 0.9456(5) -0.2233(3) 1.1202(2)
H3 H 1.0169 -0.2552 1.0752
N2 N 0.5585(5) -0.8956(3) 1.3623(3)
C7 C 0.6885(5) -0.4554(3) 1.3112(2)
H4 H 0.6291 -0.4664 1.2619
H5 H 0.7982 -0.4884 1.2971
C8 C 0.5881(5) -0.6513(3) 1.3775(2)
C9 C 0.6145(6) -0.7253(4) 1.4435(3)
H6 H 0.6425 -0.6955 1.4949
C10 C 0.8154(4) -0.0655(3) 1.1863(2)
H7 H 0.7923 0.0143 1.1874
C11 C 0.5476(6) -0.7033(4) 1.3037(3)
H8 H 0.5286 -0.6575 1.2569
C12 C 0.7033(7) -0.3258(3) 1.3285(3)
H9 H 0.5935 -0.2957 1.3474
H10 H 0.7681 -0.3164 1.3758
C13 C 0.5355(6) -0.8229(4) 1.2998(3)
H11 H 0.5089 -0.8553 1.2489
C14 C 0.5996(6) -0.5200(3) 1.3871(3)
H12 H 0.4883 -0.4889 1.3987
H13 H 0.6553 -0.5035 1.4369
C15 C 0.5989(7) -0.8445(4) 1.4321(3)
H14 H 0.6184 -0.8928 1.4775
H15 H 0.844(6) -0.148(4) 0.909(3)
H16 H 1.000(5) -0.204(4) 0.904(3)
Mn1_2 Mn 2.0000 0.0000 1.0000
O1B O 1.0572(3) 0.1418(2) 1.08577(16)
O2B O 1.3888(3) 0.1475(2) 1.08816(15)
O3B O 1.7566(2) 0.07540(19) 1.00967(15)
O3B_2 O 0.7566(2) 0.07540(19) 1.00967(15)
N1B N 1.0876(3) 0.1090(2) 0.88177(17)
C1B C 1.2506(5) 0.1323(3) 0.7462(2)
H1B H 1.3167 0.0976 0.7005
C2B C 1.4492(4) 0.0660(3) 1.0398(2)
C3B C 1.6165(4) 0.0329(3) 1.0042(2)
C4B C 1.2203(5) 0.2511(3) 0.7450(2)
C5B C 1.1203(5) 0.2963(3) 0.8148(2)
H2B H 1.0975 0.3762 0.8177
C6B C 1.0544(5) 0.2233(3) 0.8798(2)
H3B H 0.9831 0.2552 0.9248
N2B N 1.4415(5) 0.8956(3) 0.6377(3)
C7B C 1.3115(5) 0.4554(3) 0.6888(2)
H4B H 1.3709 0.4664 0.7381
H5B H 1.2018 0.4884 0.7029
C8B C 1.4119(5) 0.6513(3) 0.6225(2)
C9B C 1.3855(6) 0.7253(4) 0.5565(3)
H6B H 1.3575 0.6955 0.5051
C10B C 1.1846(4) 0.0655(3) 0.8137(2)
H7B H 1.2077 -0.0143 0.8126
C11B C 1.4524(6) 0.7033(4) 0.6963(3)
H8B H 1.4714 0.6575 0.7431
C12B C 1.2967(7) 0.3258(3) 0.6715(3)
H9B H 1.4065 0.2957 0.6526
H10B H 1.2319 0.3164 0.6242
C13B C 1.4645(6) 0.8229(4) 0.7002(3)
H11B H 1.4911 0.8553 0.7511
C14B C 1.4004(6) 0.5200(3) 0.6129(3)
H12B H 1.5117 0.4889 0.6013
H13B H 1.3447 0.5035 0.5631
C15B C 1.4011(7) 0.8445(4) 0.5679(3)
H14B H 1.3816 0.8928 0.5225
H15B H 1.156(6) 0.148(4) 1.091(3)
H16B H 1.000(5) 0.204(4) 1.096(3)
loop_
_geom_bond_atom_site_label_1
_geom_bond_atom_site_label_2
_geom_bond_site_symmetry_1
_geom_bond_site_symmetry_2
Mn1 O1 1_555 1_555
O1 H15 1_555 1_555
O2 C2 1_555 1_555
O3 Mn1 1_555 1_555
N1 Mn1 1_555 1_555
C1 H1 1_555 1_555
C2 C3 1_555 1_555
C3 O3 1_555 1_555
C4 C1 1_555 1_555
C5 C4 1_555 1_555
H2 C5 1_555 1_555
C6 N1 1_555 1_555
H3 C6 1_555 1_555
N2 C13 1_555 1_555
C7 H4 1_555 1_555
H5 C7 1_555 1_555
C8 C9 1_555 1_555
C9 H6 1_555 1_555
C10 N1 1_555 1_555
H7 C10 1_555 1_555
C11 C8 1_555 1_555
H8 C11 1_555 1_555
C12 C4 1_555 1_555
H9 C12 1_555 1_555
H10 C12 1_555 1_555
C13 C11 1_555 1_555
H11 C13 1_555 1_555
C14 C7 1_555 1_555
H12 C14 1_555 1_555
H13 C14 1_555 1_555
C15 N2 1_555 1_555
H14 C15 1_555 1_555
H16 O1 1_555 1_555
Mn1_2 O3B 1_555 1_555
O1B Mn1 1_555 1_555
O2B C2B 1_555 1_555
O3B C3B 1_555 1_555
O3B_2 Mn1 1_555 1_555
N1B Mn1 1_555 1_555
C1B H1B 1_555 1_555
C2B C3 1_555 1_555
C3B C2 1_555 1_555
C4B C1B 1_555 1_555
C5B C4B 1_555 1_555
H2B C5B 1_555 1_555
C6B N1B 1_555 1_555
H3B C6B 1_555 1_555
N2B C13B 1_555 1_555
C7B H4B 1_555 1_555
H5B C7B 1_555 1_555
C8B C9B 1_555 1_555
C9B H6B 1_555 1_555
C10B N1B 1_555 1_555
H7B C10B 1_555 1_555
C11B C8B 1_555 1_555
H8B C11B 1_555 1_555
C12B C4B 1_555 1_555
H9B C12B 1_555 1_555
H10B C12B 1_555 1_555
C13B C11B 1_555 1_555
H11B C13B 1_555 1_555
C14B C7B 1_555 1_555
H12B C14B 1_555 1_555
H13B C14B 1_555 1_555
C15B N2B 1_555 1_555
H14B C15B 1_555 1_555
H15B O1B 1_555 1_555
H16B O1B 1_555 1_555
C1 C10 1_555 1_555
C5 C6 1_555 1_555
C7 C12 1_555 1_555
C8 C14 1_555 1_555
C9 C15 1_555 1_555
C1B C10B 1_555 1_555
C2B C3B 1_555 1_555
C5B C6B 1_555 1_555
C7B C12B 1_555 1_555
C8B C14B 1_555 1_555
C9B C15B 1_555 1_555

#END
