
#######################################################################
#
#                 Cambridge Crystallographic Data Centre
#                                CCDC 
#
#######################################################################
#
# If this CIF has been generated from an entry in the Cambridge 
# Structural Database, then it will include bibliographic, chemical, 
# crystal, experimental, refinement or atomic coordinate data resulting 
# from the CCDC's data processing and validation procedures.
#
#######################################################################

data_SOBXAK
_symmetry_cell_setting           monoclinic
_symmetry_space_group_name_H-M   'C 2/c'
_symmetry_Int_Tables_number      15
_space_group_name_Hall           '-C 2yn'
loop_
_symmetry_equiv_pos_site_id
_symmetry_equiv_pos_as_xyz
1 x,y,z
2 -x,y,1/2-z
3 1/2+x,1/2+y,z
4 1/2-x,1/2+y,1/2-z
5 -x,-y,-z
6 x,-y,1/2+z
7 1/2-x,1/2-y,-z
8 1/2+x,1/2-y,1/2+z
_cell_length_a                   12.526(2)
_cell_length_b                   7.8162(14)
_cell_length_c                   28.984(5)
_cell_angle_alpha                90
_cell_angle_beta                 96.117(2)
_cell_angle_gamma                90
_cell_volume                     2821.54
loop_
_atom_site_label
_atom_site_type_symbol
_atom_site_fract_x
_atom_site_fract_y
_atom_site_fract_z
H1 H 0.683(5) -0.392(8) 0.9706(19)
H2 H 0.579(5) -0.398(8) 0.9478(19)
Ag1 Ag 0.62888(3) -0.00113(4) 0.945426(10)
O1 O 0.8374(3) 0.4930(4) 0.97781(10)
O2 O 0.8906(3) 0.2206(4) 0.98100(10)
O3 O 0.9731(2) -0.0141(4) 0.90834(11)
O4 O 0.8118(2) -0.0799(4) 0.92866(10)
O5 O 0.8097(3) -0.1146(4) 0.82591(12)
O6 O 0.8544(4) 0.0438(5) 0.77109(12)
O7 O 0.6295(3) -0.3304(4) 0.96108(11)
N1 N 0.5626(3) 0.0086(5) 0.87250(12)
N2 N 0.8250(3) 0.0250(4) 0.80964(12)
C1 C 0.8185(3) 0.3304(5) 0.90841(13)
C2 C 0.8314(3) 0.1748(5) 0.88502(12)
C3 C 0.8081(3) 0.1781(5) 0.83720(13)
C4 C 0.7721(3) 0.3218(6) 0.81212(14)
H3 H 0.7583 0.3178 0.7800
C5 C 0.7574(4) 0.4712(5) 0.83614(15)
H4 H 0.7315 0.5687 0.8203
C6 C 0.7812(3) 0.4749(5) 0.88360(14)
H5 H 0.7721 0.5764 0.8995
C7 C 0.8516(3) 0.3468(5) 0.96001(13)
C8 C 0.8750(3) 0.0153(5) 0.90973(13)
C9 C 0.5672(4) -0.1359(6) 0.84758(15)
H6 H 0.5870 -0.2368 0.8632
C10 C 0.5442(3) -0.1418(6) 0.80005(14)
H7 H 0.5489 -0.2449 0.7844
C11 C 0.5139(3) 0.0059(5) 0.77550(13)
C12 C 0.5093(4) 0.1546(6) 0.80143(14)
H8 H 0.4896 0.2572 0.7867
C13 C 0.5336(3) 0.1510(6) 0.84870(14)
H9 H 0.5298 0.2528 0.8651
Ag2 Ag 0.95671(3) 0.74829(4) 0.967082(11)
N1A N 0.4374(3) 0.0086(5) 0.62750(12)
C9A C 0.4328(4) -0.1359(6) 0.65242(15)
H6A H 0.4130 -0.2368 0.6368
C10A C 0.4558(3) -0.1418(6) 0.69995(14)
H7A H 0.4511 -0.2449 0.7156
C11A C 0.4861(3) 0.0059(5) 0.72450(13)
C12A C 0.4907(4) 0.1546(6) 0.69857(14)
H8A H 0.5104 0.2572 0.7133
C13A C 0.4664(3) 0.1510(6) 0.65130(14)
H9A H 0.4702 0.2528 0.6349
H1A H 0.317(5) -0.392(8) 0.5294(19)
H2A H 0.421(5) -0.398(8) 0.5522(19)
Ag1A Ag 0.37112(3) -0.00113(4) 0.554574(10)
O1A O 0.1626(3) 0.4930(4) 0.52219(10)
O2A O 0.1094(3) 0.2206(4) 0.51900(10)
O3A O 0.0269(2) -0.0141(4) 0.59166(11)
O4A O 0.1882(2) -0.0799(4) 0.57134(10)
O5A O 0.1903(3) -0.1146(4) 0.67409(12)
O6A O 0.1456(4) 0.0438(5) 0.72891(12)
O7A O 0.3705(3) -0.3304(4) 0.53892(11)
N2A N 0.1750(3) 0.0250(4) 0.69036(12)
C1A C 0.1815(3) 0.3304(5) 0.59159(13)
C2A C 0.1686(3) 0.1748(5) 0.61498(12)
C3A C 0.1919(3) 0.1781(5) 0.66280(13)
C4A C 0.2279(3) 0.3218(6) 0.68788(14)
H3A H 0.2417 0.3178 0.7200
C5A C 0.2426(4) 0.4712(5) 0.66386(15)
H4A H 0.2685 0.5687 0.6797
C6A C 0.2188(3) 0.4749(5) 0.61640(14)
H5A H 0.2279 0.5764 0.6005
C7A C 0.1484(3) 0.3468(5) 0.53999(13)
C8A C 0.1250(3) 0.0153(5) 0.59027(13)
Ag2A Ag 0.04329(3) 0.74829(4) 0.532918(11)
Ag1F Ag 0.87112(3) 0.50113(4) 1.054574(10)
Ag1G Ag 0.12888(3) 0.50113(4) 0.445426(10)
O1F O 0.6626(3) 0.0070(4) 1.02219(10)
O1G O 0.3374(3) 0.0070(4) 0.47781(10)
O2D O 1.1094(3) 0.7794(4) 1.01900(10)
O2E O -0.1094(3) 0.7794(4) 0.48100(10)
O3_2 O 0.9731(2) 0.9859(4) 0.90834(11)
O3A_2 O 0.0269(2) 0.9859(4) 0.59166(11)
O4_2 O 0.8118(2) 0.9201(4) 0.92866(10)
O4A_2 O 0.1882(2) 0.9201(4) 0.57134(10)
O7F O 0.8705(3) 0.8304(4) 1.03892(11)
O7G O 0.1295(3) 0.8304(4) 0.46108(11)
Ag2_2 Ag 0.95671(3) -0.25171(4) 0.967082(11)
Ag2A_2 Ag 0.04329(3) -0.25171(4) 0.532918(11)
Ag2D Ag 1.04329(3) 0.25171(4) 1.032918(11)
Ag2E Ag -0.04329(3) 0.25171(4) 0.467082(11)
Ag2F Ag 0.54329(3) -0.24829(4) 1.032918(11)
Ag2G Ag 0.45671(3) -0.24829(4) 0.467082(11)
loop_
_geom_bond_atom_site_label_1
_geom_bond_atom_site_label_2
_geom_bond_site_symmetry_1
_geom_bond_site_symmetry_2
H1 O7 1_555 1_555
H2 O7 1_555 1_555
Ag1 O4 1_555 1_555
O1 C7 1_555 1_555
O2 C7 1_555 1_555
O3 C8 1_555 1_555
O4 C8 1_555 1_555
O5 N2 1_555 1_555
O6 N2 1_555 1_555
O7 Ag1 1_555 1_555
N1 Ag1 1_555 1_555
N2 C3 1_555 1_555
C1 C2 1_555 1_555
C2 C3 1_555 1_555
C3 C4 1_555 1_555
C4 H3 1_555 1_555
C5 C4 1_555 1_555
H4 C5 1_555 1_555
C6 C1 1_555 1_555
H5 C6 1_555 1_555
C7 C1 1_555 1_555
C8 C2 1_555 1_555
C9 N1 1_555 1_555
H6 C9 1_555 1_555
C10 C9 1_555 1_555
H7 C10 1_555 1_555
C11 C10 1_555 1_555
C12 C11 1_555 1_555
H8 C12 1_555 1_555
C13 N1 1_555 1_555
H9 C13 1_555 1_555
Ag2 O1 1_555 1_555
N1A C9A 1_555 1_555
C9A H6A 1_555 1_555
C10A C9A 1_555 1_555
H7A C10A 1_555 1_555
C11A C11 1_555 1_555
C12A C11A 1_555 1_555
H8A C12A 1_555 1_555
C13A N1A 1_555 1_555
H9A C13A 1_555 1_555
H1A O7A 1_555 1_555
H2A O7A 1_555 1_555
Ag1A N1A 1_555 1_555
O1A C7A 1_555 1_555
O2A C7A 1_555 1_555
O3A C8A 1_555 1_555
O4A Ag1A 1_555 1_555
O5A N2A 1_555 1_555
O6A N2A 1_555 1_555
O7A Ag1A 1_555 1_555
N2A C3A 1_555 1_555
C1A C2A 1_555 1_555
C2A C3A 1_555 1_555
C3A C4A 1_555 1_555
C4A H3A 1_555 1_555
C5A C4A 1_555 1_555
H4A C5A 1_555 1_555
C6A C1A 1_555 1_555
H5A C6A 1_555 1_555
C7A C1A 1_555 1_555
C8A O4A 1_555 1_555
Ag2A O1A 1_555 1_555
Ag1F O1 1_555 1_555
Ag1G O1A 1_555 1_555
O1F Ag1 1_555 1_555
O1G Ag1A 1_555 1_555
O2D Ag2 1_555 1_555
O2E Ag2A 1_555 1_555
O3_2 Ag2 1_555 1_555
O3A_2 Ag2A 1_555 1_555
O4_2 Ag2 1_555 1_555
O4A_2 Ag2A 1_555 1_555
O7F Ag2 1_555 1_555
O7G Ag2A 1_555 1_555
Ag2_2 O3 1_555 1_555
Ag2A_2 O3A 1_555 1_555
Ag2D O2 1_555 1_555
Ag2E O2A 1_555 1_555
Ag2F O7 1_555 1_555
Ag2G O7A 1_555 1_555
O4 Ag2_2 1_555 1_555
C5 C6 1_555 1_555
C12 C13 1_555 1_555
C10A C11A 1_555 1_555
C12A C13A 1_555 1_555
O4A Ag2A_2 1_555 1_555
C2A C8A 1_555 1_555
C5A C6A 1_555 1_555
Ag1F O7F 1_555 1_555
Ag1G O7G 1_555 1_555
O1F Ag2F 1_555 1_555
O1G Ag2G 1_555 1_555

#END
