
#######################################################################
#
#                 Cambridge Crystallographic Data Centre
#                                CCDC 
#
#######################################################################
#
# If this CIF has been generated from an entry in the Cambridge 
# Structural Database, then it will include bibliographic, chemical, 
# crystal, experimental, refinement or atomic coordinate data resulting 
# from the CCDC's data processing and validation procedures.
#
#######################################################################

data_SOBYUE
_symmetry_cell_setting           rhombohedral
_symmetry_space_group_name_H-M   'R 3 2'
_symmetry_Int_Tables_number      155
_space_group_name_Hall           'R 3 2"'
loop_
_symmetry_equiv_pos_site_id
_symmetry_equiv_pos_as_xyz
1 x,y,z
2 -y,x-y,z
3 -x+y,-x,z
4 y,x,-z
5 x-y,-y,-z
6 -x,-x+y,-z
7 2/3+x,1/3+y,1/3+z
8 2/3-y,1/3+x-y,1/3+z
9 2/3-x+y,1/3-x,1/3+z
10 2/3+y,1/3+x,1/3-z
11 2/3+x-y,1/3-y,1/3-z
12 2/3-x,1/3-x+y,1/3-z
13 1/3+x,2/3+y,2/3+z
14 1/3-y,2/3+x-y,2/3+z
15 1/3-x+y,2/3-x,2/3+z
16 1/3+y,2/3+x,2/3-z
17 1/3+x-y,2/3-y,2/3-z
18 1/3-x,2/3-x+y,2/3-z
_cell_length_a                   18.169(3)
_cell_length_b                   18.169(3)
_cell_length_c                   47.599(10)
_cell_angle_alpha                90
_cell_angle_beta                 90
_cell_angle_gamma                120
_cell_volume                     13607.9
loop_
_atom_site_label
_atom_site_type_symbol
_atom_site_fract_x
_atom_site_fract_y
_atom_site_fract_z
Cd1 Cd -0.3333 0.73170(3) -0.1667
Cd2 Cd 0.0000 0.0000 0.0000
Br1 Br -0.20427(7) 0.77819(6) -0.202451(19)
Br2 Br 0.0000 0.0000 0.05635(2)
B1 B 0.0000 0.6009(6) 0.0000
B2 B -0.3333 1.3333 -0.1667
N1 N -0.2481(4) 0.7189(4) -0.13374(11)
N2 N -0.3333 0.8559(4) -0.1667
N3 N 0.0000 0.1255(4) 0.0000
C1 C -0.2204(6) 0.7670(5) -0.10967(15)
H1 H -0.2309 0.8118 -0.1075
C2 C -0.1790(6) 0.7522(5) -0.08938(16)
H2 H -0.1590 0.7880 -0.0739
C3 C -0.1655(4) 0.6834(4) -0.09125(13)
C4 C -0.1924(4) 0.6367(4) -0.11564(13)
H3 H -0.1829 0.5914 -0.1183
C5 C -0.2336(5) 0.6563(5) -0.13626(14)
H4 H -0.2514 0.6234 -0.1525
C6 C -0.1228(4) 0.6631(4) -0.06823(13)
C7 C -0.0377(4) 0.7156(4) -0.06330(13)
C8 C 0.0003(4) 0.6963(4) -0.04124(14)
C9 C -0.0442(4) 0.6226(4) -0.02469(13)
C10 C -0.1312(4) 0.5669(4) -0.03132(13)
C11 C -0.1704(4) 0.5879(4) -0.05295(12)
C12 C -0.2652(4) 0.5325(5) -0.05708(14)
H5 H -0.2830 0.5540 -0.0725
H6 H -0.2942 0.5331 -0.0403
H7 H -0.2785 0.4754 -0.0611
C13 C -0.1832(5) 0.4883(5) -0.01430(17)
H8 H -0.1477 0.4830 -0.0004
H9 H -0.2068 0.4395 -0.0264
H10 H -0.2283 0.4919 -0.0051
C14 C 0.0955(5) 0.7554(5) -0.03669(18)
H11 H 0.1142 0.7353 -0.0211
H12 H 0.1064 0.8118 -0.0328
H13 H 0.1259 0.7563 -0.0533
C15 C 0.0153(5) 0.7921(4) -0.08204(16)
H14 H -0.0207 0.7964 -0.0959
H15 H 0.0587 0.7854 -0.0912
H16 H 0.0412 0.8428 -0.0708
C16 C 0.0638(5) 0.1942(5) 0.01171(16)
H17 H 0.1085 0.1907 0.0199
C17 C 0.0648(5) 0.2694(4) 0.01188(16)
H18 H 0.1103 0.3165 0.0202
C18 C 0.0000 0.2782(5) 0.0000
C19 C 0.0000 0.3601(5) 0.0000
C20 C -0.0293(4) 0.3821(4) 0.02387(13)
C21 C -0.0288(4) 0.4601(4) 0.02371(13)
C22 C 0.0000 0.5139(5) 0.0000
C23 C -0.0644(5) 0.4806(5) 0.04940(14)
H19 H -0.0789 0.4373 0.0633
H20 H -0.1143 0.4828 0.0443
H21 H -0.0226 0.5346 0.0569
C24 C -0.0642(6) 0.3234(5) 0.04880(14)
H22 H -0.0808 0.3496 0.0631
H23 H -0.0214 0.3124 0.0561
H24 H -0.1128 0.2709 0.0431
C25 C -0.4057(5) 0.8574(4) -0.16528(15)
H25 H -0.4566 0.8060 -0.1642
C26 C -0.4086(4) 0.9309(4) -0.16531(15)
H26 H -0.4605 0.9293 -0.1644
C27 C -0.3333 1.0082(4) -0.1667
C28 C -0.3333 1.0908(5) -0.1667
C29 C -0.2961(3) 1.1470(4) -0.18889(12)
C30 C -0.2915(4) 1.2262(3) -0.18846(12)
C31 C -0.3333 1.2456(5) -0.1667
C32 C -0.2500(4) 1.2849(4) -0.21253(13)
H27 H -0.2258 1.2610 -0.2250
H28 H -0.2059 1.3387 -0.2057
H29 H -0.2914 1.2928 -0.2225
C33 C -0.2615(4) 1.1245(4) -0.21450(13)
H30 H -0.2678 1.0692 -0.2120
H31 H -0.2024 1.1657 -0.2168
H32 H -0.2923 1.1243 -0.2309
Cd1E Cd 0.3333 1.06500(3) 0.1667
Cd1A Cd -0.73170(3) -1.06500(3) -0.1667
Cd1D Cd -1.06500(3) -0.73170(3) 0.1667
Cd1B Cd 1.06500(3) 0.3333 -0.1667
Cd1C Cd 0.73170(3) -0.3333 0.1667
Cd1A_2 Cd 0.26830(3) 1.93500(3) -0.1667
Cd1B_2 Cd -0.93500(3) 1.3333 -0.1667
Br1Q Br -0.46240(7) 0.64913(9) -0.130882(19)
Br1D Br -0.98246(9) -0.77819(6) 0.202451(19)
Br1G Br -1.11152(6) -0.64913(9) 0.130882(19)
Br1B Br 0.98246(9) 0.20427(7) -0.202451(19)
Br1O Br 1.11152(6) 0.46240(7) -0.130882(19)
Br2C Br 0.0000 0.0000 -0.05635(2)
B1A B -0.6009(6) -0.6009(6) 0.0000
B1B B 0.6009(6) 0.0000 0.0000
N1E N 0.2481(4) 0.9670(6) 0.13374(11)
N1A N -0.7189(4) -0.9670(6) -0.13374(11)
N1D N -0.9670(6) -0.7189(4) 0.13374(11)
N1B N 0.9670(6) 0.2481(4) -0.13374(11)
N1C N 0.7189(4) -0.2481(4) 0.13374(11)
N1Q N -0.4186(4) 0.6337(6) -0.19959(11)
N1G N -1.0522(4) -0.6337(6) 0.19959(11)
N1O N 1.0522(4) 0.4186(4) -0.19959(11)
N2A N 0.1441(4) 1.8108(4) -0.1667
N2B N -0.8108(4) 1.3333 -0.1667
N2D N -1.1892(4) -0.8559(4) 0.1667
N2B_2 N 1.1892(4) 0.3333 -0.1667
N3A N -0.1255(4) -0.1255(4) 0.0000
N3B N 0.1255(4) 0.0000 0.0000
C1E C 0.2204(6) 0.9874(8) 0.10967(15)
C1A C -0.7670(5) -0.9874(8) -0.10967(15)
C1D C -0.9874(8) -0.7670(5) 0.10967(15)
C1B C 0.9874(8) 0.2204(6) -0.10967(15)
C1C C 0.7670(5) -0.2204(6) 0.10967(15)
H1E H 0.2309 1.0427 0.1075
H1A H -0.8118 -1.0427 -0.1075
H1D H -1.0427 -0.8118 0.1075
H1B H 1.0427 0.2309 -0.1075
H1C H 0.8118 -0.2309 0.1075
C2E C 0.1790(6) 0.9312(8) 0.08938(16)
C2A C -0.7522(5) -0.9312(8) -0.08938(16)
C2D C -0.9312(8) -0.7522(5) 0.08938(16)
C2B C 0.9312(8) 0.1790(6) -0.08938(16)
C2C C 0.7522(5) -0.1790(6) 0.08938(16)
H2E H 0.1590 0.9470 0.0739
H2A H -0.7880 -0.9470 -0.0739
H2D H -0.9470 -0.7880 0.0739
H2B H 0.9470 0.1590 -0.0739
H2C H 0.7880 -0.1590 0.0739
C3E C 0.1655(4) 0.8489(6) 0.09125(13)
C3A C -0.6834(4) -0.8489(6) -0.09125(13)
C3D C -0.8489(6) -0.6834(4) 0.09125(13)
C3B C 0.8489(6) 0.1655(4) -0.09125(13)
C3C C 0.6834(4) -0.1655(4) 0.09125(13)
C4E C 0.1924(4) 0.8291(6) 0.11564(13)
C4A C -0.6367(4) -0.8291(6) -0.11564(13)
C4D C -0.8291(6) -0.6367(4) 0.11564(13)
C4B C 0.8291(6) 0.1924(4) -0.11564(13)
C4C C 0.6367(4) -0.1924(4) 0.11564(13)
H3E H 0.1829 0.7743 0.1183
H3A H -0.5914 -0.7743 -0.1183
H3D H -0.7743 -0.5914 0.1183
H3B H 0.7743 0.1829 -0.1183
H3C H 0.5914 -0.1829 0.1183
C5E C 0.2336(5) 0.8899(7) 0.13626(14)
C5A C -0.6563(5) -0.8899(7) -0.13626(14)
C5D C -0.8899(7) -0.6563(5) 0.13626(14)
C5B C 0.8899(7) 0.2336(5) -0.13626(14)
C5C C 0.6563(5) -0.2336(5) 0.13626(14)
H4E H 0.2514 0.8748 0.1525
H4A H -0.6234 -0.8748 -0.1525
H4D H -0.8748 -0.6234 0.1525
H4B H 0.8748 0.2514 -0.1525
H4C H 0.6234 -0.2514 0.1525
C6E C 0.1228(4) 0.7859(6) 0.06823(13)
C6A C -0.6631(4) -0.7859(6) -0.06823(13)
C6D C -0.7859(6) -0.6631(4) 0.06823(13)
C6B C 0.7859(6) 0.1228(4) -0.06823(13)
C6C C 0.6631(4) -0.1228(4) 0.06823(13)
C7E C 0.0377(4) 0.7533(6) 0.06330(13)
C7A C -0.7156(4) -0.7533(6) -0.06330(13)
C7D C -0.7533(6) -0.7156(4) 0.06330(13)
C7B C 0.7533(6) 0.0377(4) -0.06330(13)
C7C C 0.7156(4) -0.0377(4) 0.06330(13)
C8E C -0.0003(4) 0.6960(6) 0.04124(14)
C8A C -0.6963(4) -0.6960(6) -0.04124(14)
C8D C -0.6960(6) -0.6963(4) 0.04124(14)
C8B C 0.6960(6) -0.0003(4) -0.04124(14)
C8C C 0.6963(4) 0.0003(4) 0.04124(14)
C9E C 0.0442(4) 0.6668(6) 0.02469(13)
C9A C -0.6226(4) -0.6668(6) -0.02469(13)
C9D C -0.6668(6) -0.6226(4) 0.02469(13)
C9B C 0.6668(6) 0.0442(4) -0.02469(13)
C9C C 0.6226(4) -0.0442(4) 0.02469(13)
C10E C 0.1312(4) 0.6981(6) 0.03132(13)
C10A C -0.5669(4) -0.6981(6) -0.03132(13)
C10D C -0.6981(6) -0.5669(4) 0.03132(13)
C10B C 0.6981(6) 0.1312(4) -0.03132(13)
C10C C 0.5669(4) -0.1312(4) 0.03132(13)
C11E C 0.1704(4) 0.7583(6) 0.05295(12)
C11A C -0.5879(4) -0.7583(6) -0.05295(12)
C11D C -0.7583(6) -0.5879(4) 0.05295(12)
C11B C 0.7583(6) 0.1704(4) -0.05295(12)
C11C C 0.5879(4) -0.1704(4) 0.05295(12)
C12E C 0.2652(4) 0.7977(6) 0.05708(14)
C12A C -0.5325(5) -0.7977(6) -0.05708(14)
C12D C -0.7977(6) -0.5325(5) 0.05708(14)
C12B C 0.7977(6) 0.2652(4) -0.05708(14)
C12C C 0.5325(5) -0.2652(4) 0.05708(14)
H5E H 0.2830 0.8370 0.0725
H5A H -0.5540 -0.8370 -0.0725
H5D H -0.8370 -0.5540 0.0725
H5B H 0.8370 0.2830 -0.0725
H5C H 0.5540 -0.2830 0.0725
H6E H 0.2942 0.8273 0.0403
H6A H -0.5331 -0.8273 -0.0403
H6D H -0.8273 -0.5331 0.0403
H6B H 0.8273 0.2942 -0.0403
H6C H 0.5331 -0.2942 0.0403
H7E H 0.2785 0.7539 0.0611
H7A H -0.4754 -0.7539 -0.0611
H7D H -0.7539 -0.4754 0.0611
H7B H 0.7539 0.2785 -0.0611
H7C H 0.4754 -0.2785 0.0611
C13E C 0.1832(5) 0.6715(7) 0.01430(17)
C13A C -0.4883(5) -0.6715(7) -0.01430(17)
C13D C -0.6715(7) -0.4883(5) 0.01430(17)
C13B C 0.6715(7) 0.1832(5) -0.01430(17)
C13C C 0.4883(5) -0.1832(5) 0.01430(17)
H8E H 0.1477 0.6307 0.0004
H8A H -0.4830 -0.6307 -0.0004
H8D H -0.6307 -0.4830 0.0004
H8B H 0.6307 0.1477 -0.0004
H8C H 0.4830 -0.1477 0.0004
H9E H 0.2068 0.6463 0.0264
H9A H -0.4395 -0.6463 -0.0264
H9D H -0.6463 -0.4395 0.0264
H9B H 0.6463 0.2068 -0.0264
H9C H 0.4395 -0.2068 0.0264
H10E H 0.2283 0.7202 0.0051
H10A H -0.4919 -0.7202 -0.0051
H10D H -0.7202 -0.4919 0.0051
H10B H 0.7202 0.2283 -0.0051
H10C H 0.4919 -0.2283 0.0051
C14E C -0.0955(5) 0.6599(7) 0.03669(18)
C14A C -0.7554(5) -0.6599(7) -0.03669(18)
C14D C -0.6599(7) -0.7554(5) 0.03669(18)
C14B C 0.6599(7) -0.0955(5) -0.03669(18)
C14C C 0.7554(5) 0.0955(5) 0.03669(18)
H11E H -0.1142 0.6211 0.0211
H11A H -0.7353 -0.6211 -0.0211
H11D H -0.6211 -0.7353 0.0211
H11B H 0.6211 -0.1142 -0.0211
H11C H 0.7353 0.1142 0.0211
H12E H -0.1064 0.7054 0.0328
H12A H -0.8118 -0.7054 -0.0328
H12D H -0.7054 -0.8118 0.0328
H12B H 0.7054 -0.1064 -0.0328
H12C H 0.8118 0.1064 0.0328
H13E H -0.1259 0.6304 0.0533
H13A H -0.7563 -0.6304 -0.0533
H13D H -0.6304 -0.7563 0.0533
H13B H 0.6304 -0.1259 -0.0533
H13C H 0.7563 0.1259 0.0533
C15E C -0.0153(5) 0.7768(6) 0.08204(16)
C15A C -0.7921(4) -0.7768(6) -0.08204(16)
C15D C -0.7768(6) -0.7921(4) 0.08204(16)
C15B C 0.7768(6) -0.0153(5) -0.08204(16)
C15C C 0.7921(4) 0.0153(5) 0.08204(16)
H14E H 0.0207 0.8171 0.0959
H14A H -0.7964 -0.8171 -0.0959
H14D H -0.8171 -0.7964 0.0959
H14B H 0.8171 0.0207 -0.0959
H14C H 0.7964 -0.0207 0.0959
H15E H -0.0587 0.7267 0.0912
H15A H -0.7854 -0.7267 -0.0912
H15D H -0.7267 -0.7854 0.0912
H15B H 0.7267 -0.0587 -0.0912
H15C H 0.7854 0.0587 0.0912
H16E H -0.0412 0.8016 0.0708
H16A H -0.8428 -0.8016 -0.0708
H16D H -0.8016 -0.8428 0.0708
H16B H 0.8016 -0.0412 -0.0708
H16C H 0.8428 0.0412 0.0708
C16E C -0.0638(5) 0.1304(7) -0.01171(16)
C16A C -0.1942(5) -0.1304(7) 0.01171(16)
C16D C -0.1304(7) -0.1942(5) -0.01171(16)
C16B C 0.1304(7) -0.0638(5) 0.01171(16)
C16C C 0.1942(5) 0.0638(5) -0.01171(16)
H17E H -0.1085 0.0822 -0.0199
H17A H -0.1907 -0.0822 0.0199
H17D H -0.0822 -0.1907 -0.0199
H17B H 0.0822 -0.1085 0.0199
H17C H 0.1907 0.1085 -0.0199
C17E C -0.0648(5) 0.2046(6) -0.01188(16)
C17A C -0.2694(4) -0.2046(6) 0.01188(16)
C17D C -0.2046(6) -0.2694(4) -0.01188(16)
C17B C 0.2046(6) -0.0648(5) 0.01188(16)
C17C C 0.2694(4) 0.0648(5) -0.01188(16)
H18E H -0.1103 0.2062 -0.0202
H18A H -0.3165 -0.2062 0.0202
H18D H -0.2062 -0.3165 -0.0202
H18B H 0.2062 -0.1103 0.0202
H18C H 0.3165 0.1103 -0.0202
C18A C -0.2782(5) -0.2782(5) 0.0000
C18B C 0.2782(5) 0.0000 0.0000
C19A C -0.3601(5) -0.3601(5) 0.0000
C19B C 0.3601(5) 0.0000 0.0000
C20E C 0.0293(4) 0.4114(6) -0.02387(13)
C20A C -0.3821(4) -0.4114(6) 0.02387(13)
C20D C -0.4114(6) -0.3821(4) -0.02387(13)
C20B C 0.4114(6) 0.0293(4) 0.02387(13)
C20C C 0.3821(4) -0.0293(4) -0.02387(13)
C21E C 0.0288(4) 0.4889(6) -0.02371(13)
C21A C -0.4601(4) -0.4889(6) 0.02371(13)
C21D C -0.4889(6) -0.4601(4) -0.02371(13)
C21B C 0.4889(6) 0.0288(4) 0.02371(13)
C21C C 0.4601(4) -0.0288(4) -0.02371(13)
C22A C -0.5139(5) -0.5139(5) 0.0000
C22B C 0.5139(5) 0.0000 0.0000
C23E C 0.0644(5) 0.5450(7) -0.04940(14)
C23A C -0.4806(5) -0.5450(7) 0.04940(14)
C23D C -0.5450(7) -0.4806(5) -0.04940(14)
C23B C 0.5450(7) 0.0644(5) 0.04940(14)
C23C C 0.4806(5) -0.0644(5) -0.04940(14)
H19E H 0.0789 0.5162 -0.0633
H19A H -0.4373 -0.5162 0.0633
H19D H -0.5162 -0.4373 -0.0633
H19B H 0.5162 0.0789 0.0633
H19C H 0.4373 -0.0789 -0.0633
H20E H 0.1143 0.5971 -0.0443
H20A H -0.4828 -0.5971 0.0443
H20D H -0.5971 -0.4828 -0.0443
H20B H 0.5971 0.1143 0.0443
H20C H 0.4828 -0.1143 -0.0443
H21E H 0.0226 0.5572 -0.0569
H21A H -0.5346 -0.5572 0.0569
H21D H -0.5572 -0.5346 -0.0569
H21B H 0.5572 0.0226 0.0569
H21C H 0.5346 -0.0226 -0.0569
C24E C 0.0642(6) 0.3876(8) -0.04880(14)
C24A C -0.3234(5) -0.3876(8) 0.04880(14)
C24D C -0.3876(8) -0.3234(5) -0.04880(14)
C24B C 0.3876(8) 0.0642(6) 0.04880(14)
C24C C 0.3234(5) -0.0642(6) -0.04880(14)
H22E H 0.0808 0.4304 -0.0631
H22A H -0.3496 -0.4304 0.0631
H22D H -0.4304 -0.3496 -0.0631
H22B H 0.4304 0.0808 0.0631
H22C H 0.3496 -0.0808 -0.0631
H23E H 0.0214 0.3338 -0.0561
H23A H -0.3124 -0.3338 0.0561
H23D H -0.3338 -0.3124 -0.0561
H23B H 0.3338 0.0214 0.0561
H23C H 0.3124 -0.0214 -0.0561
H24E H 0.1128 0.3837 -0.0431
H24A H -0.2709 -0.3837 0.0431
H24D H -0.3837 -0.2709 -0.0431
H24B H 0.3837 0.1128 0.0431
H24C H 0.2709 -0.1128 -0.0431
C25Q C -0.2610(5) 0.9298(6) -0.16805(15)
C25A C 0.1426(4) 1.7369(6) -0.16528(15)
C25P C 0.0702(6) 1.8093(4) -0.16805(15)
C25B C -0.7369(6) 1.4057(5) -0.16528(15)
C25O C -0.8093(4) 1.2610(5) -0.16805(15)
H25Q H -0.2101 0.9293 -0.1691
H25P H 0.0707 1.8607 -0.1691
H25A H 0.1940 1.7374 -0.1642
H25O H -0.8607 1.2101 -0.1691
H25B H -0.7374 1.4566 -0.1642
C26Q C -0.2581(4) 1.0062(6) -0.16802(15)
C26A C 0.0691(4) 1.6605(6) -0.16531(15)
C26P C -0.0062(6) 1.7358(4) -0.16802(15)
C26B C -0.6605(6) 1.4086(4) -0.16531(15)
C26O C -0.7358(4) 1.2581(4) -0.16802(15)
H26Q H -0.2062 1.0565 -0.1689
H26P H -0.0565 1.7374 -0.1689
H26A H 0.0707 1.6102 -0.1644
H26O H -0.7374 1.2062 -0.1689
H26B H -0.6102 1.4605 -0.1644
C27A C -0.0082(4) 1.6585(4) -0.1667
C27B C -0.6585(4) 1.3333 -0.1667
C28A C -0.0908(5) 1.5759(5) -0.1667
C28B C -0.5759(5) 1.3333 -0.1667
C29Q C -0.3706(3) 1.1098(5) -0.14444(12)
C29A C -0.1470(4) 1.5569(5) -0.18889(12)
C29P C -0.1098(5) 1.5197(4) -0.14444(12)
C29B C -0.5569(5) 1.2961(3) -0.18889(12)
C29O C -0.5197(4) 1.3706(3) -0.14444(12)
C30Q C -0.3752(4) 1.1844(5) -0.14487(12)
C30A C -0.2262(3) 1.4823(5) -0.18846(12)
C30P C -0.1844(5) 1.4405(3) -0.14487(12)
C30B C -0.4823(5) 1.2915(4) -0.18846(12)
C30O C -0.4405(3) 1.3752(4) -0.14487(12)
C31A C -0.2456(5) 1.4211(5) -0.1667
C31B C -0.4211(5) 1.3333 -0.1667
C32Q C -0.4167(4) 1.2016(6) -0.12080(13)
C32P C -0.2016(6) 1.3818(4) -0.12080(13)
C32A C -0.2849(4) 1.4651(6) -0.21253(13)
C32O C -0.3818(4) 1.4167(4) -0.12080(13)
C32B C -0.4651(6) 1.2500(4) -0.21253(13)
H27Q H -0.4409 1.1535 -0.1083
H27P H -0.1535 1.4057 -0.1083
H27A H -0.2610 1.5132 -0.2250
H27O H -0.4057 1.4409 -0.1083
H27B H -0.5132 1.2258 -0.2250
H28Q H -0.4608 1.2113 -0.1276
H28P H -0.2113 1.3280 -0.1276
H28A H -0.3387 1.4554 -0.2057
H28O H -0.3280 1.4608 -0.1276
H28B H -0.4554 1.2059 -0.2057
H29Q H -0.3753 1.2509 -0.1108
H29P H -0.2509 1.3739 -0.1108
H29A H -0.2928 1.4158 -0.2225
H29O H -0.3739 1.3753 -0.1108
H29B H -0.4158 1.2914 -0.2225
C33Q C -0.4052(4) 1.0527(6) -0.11883(13)
C33P C -0.0527(6) 1.5422(4) -0.11883(13)
C33A C -0.1245(4) 1.6140(6) -0.21450(13)
C33O C -0.5422(4) 1.4052(4) -0.11883(13)
C33B C -0.6140(6) 1.2615(4) -0.21450(13)
H30Q H -0.3989 1.0037 -0.1213
H30P H -0.0037 1.5975 -0.1213
H30A H -0.0692 1.6630 -0.2120
H30O H -0.5975 1.3989 -0.1213
H30B H -0.6630 1.2678 -0.2120
H31Q H -0.4643 1.0348 -0.1165
H31P H -0.0348 1.5010 -0.1165
H31A H -0.1657 1.6319 -0.2168
H31O H -0.5010 1.4643 -0.1165
H31B H -0.6319 1.2024 -0.2168
H32Q H -0.3744 1.0833 -0.1024
H32P H -0.0833 1.5424 -0.1024
H32A H -0.1243 1.5834 -0.2309
H32O H -0.5424 1.3744 -0.1024
H32B H -0.5834 1.2923 -0.2309
O1 O -0.6521(4) 0.7092(4) -0.19085(13)
O2 O -0.3333(4) 0.3333(4) -0.93025(13)
loop_
_geom_bond_atom_site_label_1
_geom_bond_atom_site_label_2
_geom_bond_site_symmetry_1
_geom_bond_site_symmetry_2
Cd1 Br1 1_555 1_555
Cd2 Br2 1_555 1_555
B1 C9 1_555 1_555
B2 C31 1_555 1_555
N1 Cd1 1_555 1_555
N2 Cd1 1_555 1_555
N3 Cd2 1_555 1_555
C1 N1 1_555 1_555
H1 C1 1_555 1_555
C2 C1 1_555 1_555
H2 C2 1_555 1_555
C3 C2 1_555 1_555
C4 C3 1_555 1_555
H3 C4 1_555 1_555
C5 N1 1_555 1_555
H4 C5 1_555 1_555
C6 C3 1_555 1_555
C7 C6 1_555 1_555
C8 C7 1_555 1_555
C9 C8 1_555 1_555
C10 C9 1_555 1_555
C11 C6 1_555 1_555
C12 C11 1_555 1_555
H5 C12 1_555 1_555
H6 C12 1_555 1_555
H7 C12 1_555 1_555
C13 C10 1_555 1_555
H8 C13 1_555 1_555
H9 C13 1_555 1_555
H10 C13 1_555 1_555
C14 C8 1_555 1_555
H11 C14 1_555 1_555
H12 C14 1_555 1_555
H13 C14 1_555 1_555
C15 C7 1_555 1_555
H14 C15 1_555 1_555
H15 C15 1_555 1_555
H16 C15 1_555 1_555
C16 N3 1_555 1_555
H17 C16 1_555 1_555
C17 C16 1_555 1_555
H18 C17 1_555 1_555
C18 C17 1_555 1_555
C19 C18 1_555 1_555
C20 C19 1_555 1_555
C21 C20 1_555 1_555
C22 B1 1_555 1_555
C23 C21 1_555 1_555
H19 C23 1_555 1_555
H20 C23 1_555 1_555
H21 C23 1_555 1_555
C24 C20 1_555 1_555
H22 C24 1_555 1_555
H23 C24 1_555 1_555
H24 C24 1_555 1_555
C25 N2 1_555 1_555
H25 C25 1_555 1_555
C26 C25 1_555 1_555
H26 C26 1_555 1_555
C27 C26 1_555 1_555
C28 C27 1_555 1_555
C29 C28 1_555 1_555
C30 C29 1_555 1_555
C31 C30 1_555 1_555
C32 C30 1_555 1_555
H27 C32 1_555 1_555
H28 C32 1_555 1_555
H29 C32 1_555 1_555
C33 C29 1_555 1_555
H30 C33 1_555 1_555
H31 C33 1_555 1_555
H32 C33 1_555 1_555
Cd1E N1E 1_555 1_555
Cd1A N1A 1_555 1_555
Cd1D Br1D 1_555 1_555
Cd1B Br1B 1_555 1_555
Cd1C N1C 1_555 1_555
Cd1A_2 N2A 1_555 1_555
Cd1B_2 N2B 1_555 1_555
Br1Q Cd1 1_555 1_555
Br1G Cd1D 1_555 1_555
Br1O Cd1B 1_555 1_555
Br2C Cd2 1_555 1_555
B1A C9A 1_555 1_555
B1B C9B 1_555 1_555
N1E C1E 1_555 1_555
N1A C1A 1_555 1_555
N1D Cd1D 1_555 1_555
N1B Cd1B 1_555 1_555
N1C C1C 1_555 1_555
N1Q Cd1 1_555 1_555
N1G Cd1D 1_555 1_555
N1O Cd1B 1_555 1_555
N2A C25A 1_555 1_555
N2B C25B 1_555 1_555
N2D Cd1D 1_555 1_555
N2B_2 Cd1B 1_555 1_555
N3A Cd2 1_555 1_555
N3B Cd2 1_555 1_555
C1E H1E 1_555 1_555
C1A H1A 1_555 1_555
C1D N1D 1_555 1_555
C1B N1B 1_555 1_555
C1C H1C 1_555 1_555
H1D C1D 1_555 1_555
H1B C1B 1_555 1_555
C2E C1E 1_555 1_555
C2A C1A 1_555 1_555
C2D C1D 1_555 1_555
C2B C1B 1_555 1_555
C2C C1C 1_555 1_555
H2E C2E 1_555 1_555
H2A C2A 1_555 1_555
H2D C2D 1_555 1_555
H2B C2B 1_555 1_555
H2C C2C 1_555 1_555
C3E C2E 1_555 1_555
C3A C2A 1_555 1_555
C3D C2D 1_555 1_555
C3B C2B 1_555 1_555
C3C C2C 1_555 1_555
C4E C3E 1_555 1_555
C4A C3A 1_555 1_555
C4D C3D 1_555 1_555
C4B C3B 1_555 1_555
C4C C3C 1_555 1_555
H3E C4E 1_555 1_555
H3A C4A 1_555 1_555
H3D C4D 1_555 1_555
H3B C4B 1_555 1_555
H3C C4C 1_555 1_555
C5E N1E 1_555 1_555
C5A N1A 1_555 1_555
C5D N1D 1_555 1_555
C5B N1B 1_555 1_555
C5C N1C 1_555 1_555
H4E C5E 1_555 1_555
H4A C5A 1_555 1_555
H4D C5D 1_555 1_555
H4B C5B 1_555 1_555
H4C C5C 1_555 1_555
C6E C3E 1_555 1_555
C6A C3A 1_555 1_555
C6D C3D 1_555 1_555
C6B C3B 1_555 1_555
C6C C3C 1_555 1_555
C7E C6E 1_555 1_555
C7A C6A 1_555 1_555
C7D C6D 1_555 1_555
C7B C6B 1_555 1_555
C7C C6C 1_555 1_555
C8E C7E 1_555 1_555
C8A C7A 1_555 1_555
C8D C7D 1_555 1_555
C8B C7B 1_555 1_555
C8C C7C 1_555 1_555
C9E B1 1_555 1_555
C9A C8A 1_555 1_555
C9D B1A 1_555 1_555
C9B C8B 1_555 1_555
C9C B1B 1_555 1_555
C10E C9E 1_555 1_555
C10A C9A 1_555 1_555
C10D C9D 1_555 1_555
C10B C9B 1_555 1_555
C10C C9C 1_555 1_555
C11E C6E 1_555 1_555
C11A C6A 1_555 1_555
C11D C6D 1_555 1_555
C11B C6B 1_555 1_555
C11C C6C 1_555 1_555
C12E C11E 1_555 1_555
C12A C11A 1_555 1_555
C12D C11D 1_555 1_555
C12B C11B 1_555 1_555
C12C C11C 1_555 1_555
H5E C12E 1_555 1_555
H5A C12A 1_555 1_555
H5D C12D 1_555 1_555
H5B C12B 1_555 1_555
H5C C12C 1_555 1_555
H6E C12E 1_555 1_555
H6A C12A 1_555 1_555
H6D C12D 1_555 1_555
H6B C12B 1_555 1_555
H6C C12C 1_555 1_555
H7E C12E 1_555 1_555
H7A C12A 1_555 1_555
H7D C12D 1_555 1_555
H7B C12B 1_555 1_555
H7C C12C 1_555 1_555
C13E C10E 1_555 1_555
C13A C10A 1_555 1_555
C13D C10D 1_555 1_555
C13B C10B 1_555 1_555
C13C C10C 1_555 1_555
H8E C13E 1_555 1_555
H8A C13A 1_555 1_555
H8D C13D 1_555 1_555
H8B C13B 1_555 1_555
H8C C13C 1_555 1_555
H9E C13E 1_555 1_555
H9A C13A 1_555 1_555
H9D C13D 1_555 1_555
H9B C13B 1_555 1_555
H9C C13C 1_555 1_555
H10E C13E 1_555 1_555
H10A C13A 1_555 1_555
H10D C13D 1_555 1_555
H10B C13B 1_555 1_555
H10C C13C 1_555 1_555
C14E C8E 1_555 1_555
C14A C8A 1_555 1_555
C14D C8D 1_555 1_555
C14B C8B 1_555 1_555
C14C C8C 1_555 1_555
H11E C14E 1_555 1_555
H11A C14A 1_555 1_555
H11D C14D 1_555 1_555
H11B C14B 1_555 1_555
H11C C14C 1_555 1_555
H12E C14E 1_555 1_555
H12A C14A 1_555 1_555
H12D C14D 1_555 1_555
H12B C14B 1_555 1_555
H12C C14C 1_555 1_555
H13E C14E 1_555 1_555
H13A C14A 1_555 1_555
H13D C14D 1_555 1_555
H13B C14B 1_555 1_555
H13C C14C 1_555 1_555
C15E C7E 1_555 1_555
C15A C7A 1_555 1_555
C15D C7D 1_555 1_555
C15B C7B 1_555 1_555
C15C C7C 1_555 1_555
H14E C15E 1_555 1_555
H14A C15A 1_555 1_555
H14D C15D 1_555 1_555
H14B C15B 1_555 1_555
H14C C15C 1_555 1_555
H15E C15E 1_555 1_555
H15A C15A 1_555 1_555
H15D C15D 1_555 1_555
H15B C15B 1_555 1_555
H15C C15C 1_555 1_555
H16E C15E 1_555 1_555
H16A C15A 1_555 1_555
H16D C15D 1_555 1_555
H16B C15B 1_555 1_555
H16C C15C 1_555 1_555
C16E N3 1_555 1_555
C16A N3A 1_555 1_555
C16D N3A 1_555 1_555
C16B N3B 1_555 1_555
C16C N3B 1_555 1_555
H17E C16E 1_555 1_555
H17A C16A 1_555 1_555
H17D C16D 1_555 1_555
H17B C16B 1_555 1_555
H17C C16C 1_555 1_555
C17E C18 1_555 1_555
C17A C16A 1_555 1_555
C17D C16D 1_555 1_555
C17B C16B 1_555 1_555
C17C C16C 1_555 1_555
H18E C17E 1_555 1_555
H18A C17A 1_555 1_555
H18D C17D 1_555 1_555
H18B C17B 1_555 1_555
H18C C17C 1_555 1_555
C18A C17A 1_555 1_555
C18B C17B 1_555 1_555
C19A C18A 1_555 1_555
C19B C18B 1_555 1_555
C20E C19 1_555 1_555
C20A C19A 1_555 1_555
C20D C19A 1_555 1_555
C20B C19B 1_555 1_555
C20C C19B 1_555 1_555
C21E C22 1_555 1_555
C21A C20A 1_555 1_555
C21D C20D 1_555 1_555
C21B C20B 1_555 1_555
C21C C20C 1_555 1_555
C22A B1A 1_555 1_555
C22B B1B 1_555 1_555
C23E C21E 1_555 1_555
C23A C21A 1_555 1_555
C23D C21D 1_555 1_555
C23B C21B 1_555 1_555
C23C C21C 1_555 1_555
H19E C23E 1_555 1_555
H19A C23A 1_555 1_555
H19D C23D 1_555 1_555
H19B C23B 1_555 1_555
H19C C23C 1_555 1_555
H20E C23E 1_555 1_555
H20A C23A 1_555 1_555
H20D C23D 1_555 1_555
H20B C23B 1_555 1_555
H20C C23C 1_555 1_555
H21E C23E 1_555 1_555
H21A C23A 1_555 1_555
H21D C23D 1_555 1_555
H21B C23B 1_555 1_555
H21C C23C 1_555 1_555
C24E C20E 1_555 1_555
C24A C20A 1_555 1_555
C24D C20D 1_555 1_555
C24B C20B 1_555 1_555
C24C C20C 1_555 1_555
H22E C24E 1_555 1_555
H22A C24A 1_555 1_555
H22D C24D 1_555 1_555
H22B C24B 1_555 1_555
H22C C24C 1_555 1_555
H23E C24E 1_555 1_555
H23A C24A 1_555 1_555
H23D C24D 1_555 1_555
H23B C24B 1_555 1_555
H23C C24C 1_555 1_555
H24E C24E 1_555 1_555
H24A C24A 1_555 1_555
H24D C24D 1_555 1_555
H24B C24B 1_555 1_555
H24C C24C 1_555 1_555
C25Q N2 1_555 1_555
C25A H25A 1_555 1_555
C25P N2A 1_555 1_555
C25B H25B 1_555 1_555
C25O N2B 1_555 1_555
H25Q C25Q 1_555 1_555
H25P C25P 1_555 1_555
H25O C25O 1_555 1_555
C26Q C27 1_555 1_555
C26A C25A 1_555 1_555
C26P C25P 1_555 1_555
C26B C25B 1_555 1_555
C26O C25O 1_555 1_555
H26Q C26Q 1_555 1_555
H26P C26P 1_555 1_555
H26A C26A 1_555 1_555
H26O C26O 1_555 1_555
H26B C26B 1_555 1_555
C27A C26A 1_555 1_555
C27B C26B 1_555 1_555
C28A C27A 1_555 1_555
C28B C27B 1_555 1_555
C29Q C28 1_555 1_555
C29A C28A 1_555 1_555
C29P C28A 1_555 1_555
C29B C28B 1_555 1_555
C29O C28B 1_555 1_555
C30Q C31 1_555 1_555
C30A C29A 1_555 1_555
C30P C29P 1_555 1_555
C30B C29B 1_555 1_555
C30O C29O 1_555 1_555
C31A B2 1_555 1_555
C31B B2 1_555 1_555
C32Q C30Q 1_555 1_555
C32P C30P 1_555 1_555
C32A C30A 1_555 1_555
C32O C30O 1_555 1_555
C32B C30B 1_555 1_555
H27Q C32Q 1_555 1_555
H27P C32P 1_555 1_555
H27A C32A 1_555 1_555
H27O C32O 1_555 1_555
H27B C32B 1_555 1_555
H28Q C32Q 1_555 1_555
H28P C32P 1_555 1_555
H28A C32A 1_555 1_555
H28O C32O 1_555 1_555
H28B C32B 1_555 1_555
H29Q C32Q 1_555 1_555
H29P C32P 1_555 1_555
H29A C32A 1_555 1_555
H29O C32O 1_555 1_555
H29B C32B 1_555 1_555
C33Q C29Q 1_555 1_555
C33P C29P 1_555 1_555
C33A C29A 1_555 1_555
C33O C29O 1_555 1_555
C33B C29B 1_555 1_555
H30Q C33Q 1_555 1_555
H30P C33P 1_555 1_555
H30A C33A 1_555 1_555
H30O C33O 1_555 1_555
H30B C33B 1_555 1_555
H31Q C33Q 1_555 1_555
H31P C33P 1_555 1_555
H31A C33A 1_555 1_555
H31O C33O 1_555 1_555
H31B C33B 1_555 1_555
H32Q C33Q 1_555 1_555
H32P C33P 1_555 1_555
H32A C33A 1_555 1_555
H32O C33O 1_555 1_555
H32B C33B 1_555 1_555
C4 C5 1_555 1_555
C10 C11 1_555 1_555
C21 C22 1_555 1_555
C4E C5E 1_555 1_555
C4A C5A 1_555 1_555
C4D C5D 1_555 1_555
C4B C5B 1_555 1_555
C4C C5C 1_555 1_555
C8E C9E 1_555 1_555
C8D C9D 1_555 1_555
C8C C9C 1_555 1_555
C10E C11E 1_555 1_555
C10A C11A 1_555 1_555
C10D C11D 1_555 1_555
C10B C11B 1_555 1_555
C10C C11C 1_555 1_555
C16E C17E 1_555 1_555
C17D C18A 1_555 1_555
C17C C18B 1_555 1_555
C20E C21E 1_555 1_555
C21A C22A 1_555 1_555
C21D C22A 1_555 1_555
C21B C22B 1_555 1_555
C21C C22B 1_555 1_555
C25Q C26Q 1_555 1_555
C26P C27A 1_555 1_555
C26O C27B 1_555 1_555
C29Q C30Q 1_555 1_555
C30A C31A 1_555 1_555
C30P C31A 1_555 1_555
C30B C31B 1_555 1_555
C30O C31B 1_555 1_555

#END
