
#######################################################################
#
#                 Cambridge Crystallographic Data Centre
#                                CCDC 
#
#######################################################################
#
# If this CIF has been generated from an entry in the Cambridge 
# Structural Database, then it will include bibliographic, chemical, 
# crystal, experimental, refinement or atomic coordinate data resulting 
# from the CCDC's data processing and validation procedures.
#
#######################################################################

data_SOBYAJ
_symmetry_cell_setting           monoclinic
_symmetry_space_group_name_H-M   'C 2/c'
_symmetry_Int_Tables_number      15
_space_group_name_Hall           '-C 2yn'
loop_
_symmetry_equiv_pos_site_id
_symmetry_equiv_pos_as_xyz
1 x,y,z
2 -x,y,1/2-z
3 1/2+x,1/2+y,z
4 1/2-x,1/2+y,1/2-z
5 -x,-y,-z
6 x,-y,1/2+z
7 1/2-x,1/2-y,-z
8 1/2+x,1/2-y,1/2+z
_cell_length_a                   14.812(10)
_cell_length_b                   11.445(3)
_cell_length_c                   14.784(7)
_cell_angle_alpha                90
_cell_angle_beta                 126.78(5)
_cell_angle_gamma                90
_cell_volume                     2007.34
loop_
_atom_site_label
_atom_site_type_symbol
_atom_site_fract_x
_atom_site_fract_y
_atom_site_fract_z
Cu1 Cu 0.00000 0.39511(6) 0.75000
Cu2 Cu 0.29483(4) 0.58173(5) 1.11288(4)
C1 C 0.1232(3) 0.4617(3) 0.8886(3)
C2 C 0.1913(3) 0.5031(4) 0.9758(3)
C3 C 0.4509(3) 0.5961(3) 1.2184(3)
N1 N 0.0732(2) 0.2837(3) 0.6905(2)
N2 N 0.2010(2) 0.6985(3) 1.1366(2)
N3 N 0.2025(3) 0.1243(3) 0.7300(3)
N4 N 0.0416(3) 0.1656(3) 0.5359(3)
C4 C 0.1441(3) 0.3625(3) 0.6780(3)
C5 C 0.1474(3) 0.1895(3) 0.7697(3)
C6 C -0.0109(3) 0.2290(3) 0.5790(3)
C7 C 0.2712(3) 0.7937(4) 1.2181(3)
C8 C 0.1115(1) 0.7537(3) 1.0265(3)
C9 C 0.1155(4) 0.0750(3) 0.6188(4)
H1 H 0.0978 0.4226 0.6260
H2 H 0.2000 0.3963 0.7495
H3 H 0.2041 0.2236 0.8408
H4 H 0.1036 0.1369 0.7783
H5 H -0.0556 0.1761 0.5862
H6 H -0.0577 0.2886 0.5265
H7 H 0.3069 0.8351 1.1919
H8 H 0.3265 0.7601 1.2897
H9 H 0.0648 0.6939 0.9742
H10 H 0.1464 0.7953 0.9994
H11 H 0.1513 0.0342 0.5922
H12 H 0.0710 0.0221 0.6264
C1A C -0.1232(3) 0.4617(3) 0.6114(3)
N1A N -0.0732(2) 0.2837(3) 0.8095(2)
C3A C 0.5491(3) 0.5961(3) 1.2816(3)
C4E C 0.1441(3) 0.6375(3) 1.1780(3)
C7E C 0.2712(3) 0.2063(4) 0.7181(3)
C8E C 0.1115(1) 0.2463(3) 0.5265(3)
N2E N 0.2010(2) 0.3015(3) 0.6366(2)
N3E N 0.2025(3) 0.8757(3) 1.2300(3)
N4E N 0.0416(3) 0.8344(3) 1.0359(3)
loop_
_geom_bond_atom_site_label_1
_geom_bond_atom_site_label_2
_geom_bond_site_symmetry_1
_geom_bond_site_symmetry_2
Cu1 C1 1_555 1_555
Cu2 C2 1_555 1_555
C1 C2 1_555 1_555
C3 Cu2 1_555 1_555
N1 Cu1 1_555 1_555
N2 Cu2 1_555 1_555
N3 C5 1_555 1_555
N4 C6 1_555 1_555
C4 N1 1_555 1_555
C5 N1 1_555 1_555
C6 N1 1_555 1_555
C7 N2 1_555 1_555
C8 N2 1_555 1_555
C9 N3 1_555 1_555
H1 C4 1_555 1_555
H2 C4 1_555 1_555
H3 C5 1_555 1_555
H4 C5 1_555 1_555
H5 C6 1_555 1_555
H6 C6 1_555 1_555
H7 C7 1_555 1_555
H8 C7 1_555 1_555
H9 C8 1_555 1_555
H10 C8 1_555 1_555
H11 C9 1_555 1_555
H12 C9 1_555 1_555
C1A Cu1 1_555 1_555
N1A Cu1 1_555 1_555
C3A C3 1_555 1_555
C4E N2 1_555 1_555
C7E N3 1_555 1_555
C8E N4 1_555 1_555
N2E C4 1_555 1_555
N3E C7 1_555 1_555
N4E C8 1_555 1_555
N4 C9 1_555 1_555
C7E N2E 1_555 1_555
C8E N2E 1_555 1_555

#END
