
#######################################################################
#
#                 Cambridge Crystallographic Data Centre
#                                CCDC 
#
#######################################################################
#
# If this CIF has been generated from an entry in the Cambridge 
# Structural Database, then it will include bibliographic, chemical, 
# crystal, experimental, refinement or atomic coordinate data resulting 
# from the CCDC's data processing and validation procedures.
#
#######################################################################

data_SOBZUG
_symmetry_cell_setting           triclinic
_symmetry_space_group_name_H-M   'P -1'
_symmetry_Int_Tables_number      2
_space_group_name_Hall           '-P 1'
loop_
_symmetry_equiv_pos_site_id
_symmetry_equiv_pos_as_xyz
1 x,y,z
2 -x,-y,-z
_cell_length_a                   7.6402(10)
_cell_length_b                   9.0911(13)
_cell_length_c                   10.1531(14)
_cell_angle_alpha                71.120(2)
_cell_angle_beta                 74.082(2)
_cell_angle_gamma                65.8380(10)
_cell_volume                     600.542
loop_
_atom_site_label
_atom_site_type_symbol
_atom_site_fract_x
_atom_site_fract_y
_atom_site_fract_z
Co1 Co 0.13084(5) 0.14118(4) 0.10106(3)
C1 C 0.8052(3) -0.0012(3) 0.1557(2)
C2 C 0.6525(3) 0.1131(3) 0.2447(3)
C3 C 0.4936(3) 0.2445(3) 0.1919(3)
C4 C 0.4609(3) 0.2847(3) 0.0422(3)
C5 C 0.3643(3) 0.3529(3) 0.2740(3)
H1 H 0.2588 0.4408 0.2384
C6 C 0.3932(3) 0.3295(3) 0.4093(3)
C7 C 0.5414(4) 0.1938(3) 0.4669(3)
H2 H 0.5548 0.1744 0.5599
C8 C 0.6706(4) 0.0865(3) 0.3834(3)
H3 H 0.7713 -0.0051 0.4214
C9 C 0.2233(4) 0.4148(3) 0.6298(3)
H4 H 0.2620 0.3034 0.6779
C10 C 0.1208(4) 0.5315(3) 0.7046(3)
H5 H 0.0912 0.4987 0.8023
C11 C 0.0573(3) 0.7040(3) 0.6360(3)
C12 C 0.1114(4) 0.7413(3) 0.4855(3)
H6 H 0.0749 0.8513 0.4340
C13 C 0.2151(4) 0.6182(3) 0.4173(3)
H7 H 0.2488 0.6463 0.3196
N1 N 0.2717(3) 0.4544(3) 0.4869(2)
O1 O 0.9802(2) -0.0282(2) 0.15228(18)
O2 O 0.7422(2) -0.0658(2) 0.09301(18)
O3 O 0.5987(2) 0.3029(2) -0.05541(18)
O4 O 0.2969(2) 0.3018(2) 0.02277(18)
O5 O -0.0391(3) 0.8193(2) 0.69977(19)
O6 O 0.3661(2) -0.0645(2) 0.18284(19)
H8 H 0.479(2) -0.062(3) 0.161(3)
H9 H 0.372(4) -0.150(2) 0.163(3)
O7 O -0.1007(3) 0.3359(2) 0.0107(2)
H10 H -0.159(4) 0.4311(19) 0.026(3)
H11 H -0.187(3) 0.313(3) -0.007(3)
Co1_2 Co 1.13084(5) 0.14118(4) 0.10106(3)
Co1A Co -0.13084(5) 0.85882(4) 0.89894(3)
Co1A_2 Co 0.86916(5) -0.14118(4) -0.10106(3)
O1_2 O -0.0198(2) -0.0282(2) 0.15228(18)
O2A O 0.2578(2) 0.0658(2) -0.09301(18)
O5A O 0.0391(3) 0.1807(2) 0.30023(19)
loop_
_geom_bond_atom_site_label_1
_geom_bond_atom_site_label_2
_geom_bond_site_symmetry_1
_geom_bond_site_symmetry_2
Co1 O4 1_555 1_555
C1 C2 1_555 1_555
C2 C3 1_555 1_555
C3 C4 1_555 1_555
C4 O3 1_555 1_555
C5 C3 1_555 1_555
H1 C5 1_555 1_555
C6 C5 1_555 1_555
C7 C6 1_555 1_555
H2 C7 1_555 1_555
C8 C2 1_555 1_555
H3 C8 1_555 1_555
C9 H4 1_555 1_555
C10 C9 1_555 1_555
H5 C10 1_555 1_555
C11 C10 1_555 1_555
C12 C11 1_555 1_555
H6 C12 1_555 1_555
C13 C12 1_555 1_555
H7 C13 1_555 1_555
N1 C6 1_555 1_555
O1 C1 1_555 1_555
O2 C1 1_555 1_555
O4 C4 1_555 1_555
O5 C11 1_555 1_555
O6 Co1 1_555 1_555
H8 O6 1_555 1_555
H9 O6 1_555 1_555
O7 Co1 1_555 1_555
H10 O7 1_555 1_555
H11 O7 1_555 1_555
Co1_2 O1 1_555 1_555
Co1A O5 1_555 1_555
Co1A_2 O2 1_555 1_555
O1_2 Co1 1_555 1_555
O2A Co1 1_555 1_555
O5A Co1 1_555 1_555
C7 C8 1_555 1_555
C9 N1 1_555 1_555
C13 N1 1_555 1_555

#END
