
#######################################################################
#
#                 Cambridge Crystallographic Data Centre
#                                CCDC 
#
#######################################################################
#
# If this CIF has been generated from an entry in the Cambridge 
# Structural Database, then it will include bibliographic, chemical, 
# crystal, experimental, refinement or atomic coordinate data resulting 
# from the CCDC's data processing and validation procedures.
#
#######################################################################

data_SOBZEP
_symmetry_cell_setting           rhombohedral
_symmetry_space_group_name_H-M   'R 3 2'
_symmetry_Int_Tables_number      155
_space_group_name_Hall           'R 3 2"'
loop_
_symmetry_equiv_pos_site_id
_symmetry_equiv_pos_as_xyz
1 x,y,z
2 -y,x-y,z
3 -x+y,-x,z
4 y,x,-z
5 x-y,-y,-z
6 -x,-x+y,-z
7 2/3+x,1/3+y,1/3+z
8 2/3-y,1/3+x-y,1/3+z
9 2/3-x+y,1/3-x,1/3+z
10 2/3+y,1/3+x,1/3-z
11 2/3+x-y,1/3-y,1/3-z
12 2/3-x,1/3-x+y,1/3-z
13 1/3+x,2/3+y,2/3+z
14 1/3-y,2/3+x-y,2/3+z
15 1/3-x+y,2/3-x,2/3+z
16 1/3+y,2/3+x,2/3-z
17 1/3+x-y,2/3-y,2/3-z
18 1/3-x,2/3-x+y,2/3-z
_cell_length_a                   17.830(3)
_cell_length_b                   17.830(3)
_cell_length_c                   47.73(1)
_cell_angle_alpha                90
_cell_angle_beta                 90
_cell_angle_gamma                120
_cell_volume                     13140.9
loop_
_atom_site_label
_atom_site_type_symbol
_atom_site_fract_x
_atom_site_fract_y
_atom_site_fract_z
Cu1 Cu 0.3333 0.27907(4) 0.1667
Cu2 Cu 0.0000 1.0000 0.0000
Cl1 Cl 0.44849(10) 0.34535(10) 0.13662(3)
Cl2 Cl 0.0000 1.0000 0.04791(5)
B1 B 0.0000 0.3955(4) 0.0000
B2 B 0.3333 -0.3333 0.1667
N1 N 0.2565(3) 0.2832(2) 0.13548(7)
N2 N 0.3333 0.1563(3) 0.1667
N3 N 0.0000 0.8820(3) 0.0000
C1 C 0.2361(4) 0.2393(3) 0.11118(10)
H1 H 0.2527 0.1980 0.1087
C2 C 0.1932(4) 0.2516(3) 0.09030(10)
H2 H 0.1781 0.2169 0.0744
C3 C 0.1709(3) 0.3161(3) 0.09218(9)
C4 C 0.1909(3) 0.3602(3) 0.11709(9)
H3 H 0.1755 0.4023 0.1200
C5 C 0.2332(3) 0.3428(3) 0.13774(10)
H4 H 0.2464 0.3746 0.1543
C6 C 0.1274(3) 0.3368(3) 0.06906(9)
C7 C 0.1748(3) 0.4121(3) 0.05311(8)
C8 C 0.1350(3) 0.4321(2) 0.03152(8)
C9 C 0.0464(3) 0.3743(2) 0.02478(9)
C10 C 0.0005(3) 0.2984(3) 0.04116(10)
C11 C 0.0403(3) 0.2810(2) 0.06352(9)
C12 C 0.2718(3) 0.4701(3) 0.05789(10)
H5 H 0.2897 0.4481 0.0733
H6 H 0.2842 0.5279 0.0620
H7 H 0.3026 0.4708 0.0413
C13 C 0.1887(3) 0.5121(3) 0.01398(11)
H8 H 0.2464 0.5433 0.0213
H9 H 0.1632 0.5484 0.0145
H10 H 0.1904 0.4953 -0.0050
C14 C -0.0947(3) 0.2370(3) 0.03671(12)
H11 H -0.1146 0.1899 0.0497
H12 H -0.1041 0.2149 0.0179
H13 H -0.1260 0.2672 0.0396
C15 C -0.0128(3) 0.2022(3) 0.08205(11)
H14 H 0.0238 0.1993 0.0962
H15 H -0.0370 0.1507 0.0708
H16 H -0.0587 0.2071 0.0908
C16 C 0.0000 0.4850(3) 0.0000
C17 C -0.0303(3) 0.5097(3) 0.02347(8)
C18 C -0.0311(3) 0.5881(3) 0.02328(9)
C19 C -0.0658(4) 0.4529(3) 0.04908(10)
H17 H -0.0822 0.4814 0.0628
H18 H -0.0222 0.4423 0.0568
H19 H -0.1155 0.3988 0.0439
C20 C -0.0694(4) 0.6103(3) 0.04801(11)
H20 H -0.0657 0.6652 0.0448
H21 H -0.0379 0.6134 0.0647
H22 H -0.1291 0.5664 0.0502
C21 C 0.0000 0.6414(3) 0.0000
C22 C 0.0000 0.7260(3) 0.0000
C23 C 0.0641(3) 0.7990(3) 0.01282(11)
H23 H 0.1097 0.7971 0.0216
C24 C 0.0619(3) 0.8749(3) 0.01287(11)
H24 H 0.1052 0.9228 0.0222
C25 C 0.2604(3) 0.0812(3) 0.16708(11)
H25 H 0.2085 0.0818 0.1675
C26 C 0.2563(3) 0.0015(3) 0.16687(10)
H26 H 0.2031 -0.0495 0.1669
C27 C 0.3333 -0.0008(3) 0.1667
C28 C 0.3333 -0.0853(3) 0.1667
C29 C 0.3735(2) -0.1035(2) 0.14470(8)
C30 C 0.3755(2) -0.1812(2) 0.14536(8)
C31 C 0.4101(3) -0.0436(3) 0.11975(9)
H27 H 0.4349 -0.0664 0.1069
H28 H 0.4539 0.0127 0.1260
H29 H 0.3646 -0.0390 0.1106
C32 C 0.4189(3) -0.1993(3) 0.12089(10)
H30 H 0.4440 -0.1502 0.1085
H31 H 0.3767 -0.2494 0.1109
H32 H 0.4635 -0.2095 0.1278
C33 C 0.3333 -0.2434(3) 0.1667
Cu1E Cu -0.3333 -0.05423(4) -0.1667
Cu1A Cu 0.72093(4) 2.05423(4) 0.1667
Cu1D Cu 1.05423(4) 1.72093(4) -0.1667
Cu1B Cu -1.05423(4) 0.6667 0.1667
Cu1C Cu -0.72093(4) 1.3333 -0.1667
Cu1A_2 Cu -0.27907(4) -0.94577(4) 0.1667
Cu1B_2 Cu 0.94577(4) -0.3333 0.1667
Cl1K Cl 0.21818(10) 0.23019(14) 0.19671(3)
Cl1D Cl 1.10314(14) 1.65465(10) -0.13662(3)
Cl1M Cl 0.98798(10) 1.76981(14) -0.19671(3)
Cl1B Cl -1.10314(14) 0.55151(10) 0.13662(3)
Cl1I Cl -0.98798(10) 0.78182(10) 0.19671(3)
Cl2C Cl 0.0000 1.0000 -0.04791(5)
B1A B 0.6045(4) 1.6045(4) 0.0000
B1B B -0.6045(4) 1.0000 0.0000
N1E N -0.2565(3) 0.0267(4) -0.13548(7)
N1A N 0.7168(2) 1.9733(4) 0.13548(7)
N1D N 0.9733(4) 1.7168(2) -0.13548(7)
N1B N -0.9733(4) 0.7435(3) 0.13548(7)
N1C N -0.7168(2) 1.2565(3) -0.13548(7)
N1K N 0.4102(3) 0.3600(4) 0.19785(7)
N1M N 1.0501(2) 1.6400(4) -0.19785(7)
N1I N -1.0501(2) 0.5898(3) 0.19785(7)
N2A N -0.1563(3) -0.8230(3) 0.1667
N2B N 0.8230(3) -0.3333 0.1667
N2D N 1.1770(3) 1.8437(3) -0.1667
N2B_2 N -1.1770(3) 0.6667 0.1667
N3A N 0.1180(3) 1.1180(3) 0.0000
N3B N -0.1180(3) 1.0000 0.0000
C1E C -0.2361(4) 0.0032(5) -0.11118(10)
C1A C 0.7607(3) 1.9968(5) 0.11118(10)
C1D C 0.9968(5) 1.7607(3) -0.11118(10)
C1B C -0.9968(5) 0.7639(4) 0.11118(10)
C1C C -0.7607(3) 1.2361(4) -0.11118(10)
H1E H -0.2527 -0.0547 -0.1087
H1A H 0.8020 2.0547 0.1087
H1D H 1.0547 1.8020 -0.1087
H1B H -1.0547 0.7473 0.1087
H1C H -0.8020 1.2527 -0.1087
C2E C -0.1932(4) 0.0584(5) -0.09030(10)
C2A C 0.7484(3) 1.9416(5) 0.09030(10)
C2D C 0.9416(5) 1.7484(3) -0.09030(10)
C2B C -0.9416(5) 0.8068(4) 0.09030(10)
C2C C -0.7484(3) 1.1932(4) -0.09030(10)
H2E H -0.1781 0.0388 -0.0744
H2A H 0.7831 1.9612 0.0744
H2D H 0.9612 1.7831 -0.0744
H2B H -0.9612 0.8219 0.0744
H2C H -0.7831 1.1781 -0.0744
C3E C -0.1709(3) 0.1452(4) -0.09218(9)
C3A C 0.6839(3) 1.8548(4) 0.09218(9)
C3D C 0.8548(4) 1.6839(3) -0.09218(9)
C3B C -0.8548(4) 0.8291(3) 0.09218(9)
C3C C -0.6839(3) 1.1709(3) -0.09218(9)
C4E C -0.1909(3) 0.1693(4) -0.11709(9)
C4A C 0.6398(3) 1.8307(4) 0.11709(9)
C4D C 0.8307(4) 1.6398(3) -0.11709(9)
C4B C -0.8307(4) 0.8091(3) 0.11709(9)
C4C C -0.6398(3) 1.1909(3) -0.11709(9)
H3E H -0.1755 0.2268 -0.1200
H3A H 0.5977 1.7732 0.1200
H3D H 0.7732 1.5977 -0.1200
H3B H -0.7732 0.8245 0.1200
H3C H -0.5977 1.1755 -0.1200
C5E C -0.2332(3) 0.1096(4) -0.13774(10)
C5A C 0.6572(3) 1.8904(4) 0.13774(10)
C5D C 0.8904(4) 1.6572(3) -0.13774(10)
C5B C -0.8904(4) 0.7668(3) 0.13774(10)
C5C C -0.6572(3) 1.2332(3) -0.13774(10)
H4E H -0.2464 0.1282 -0.1543
H4A H 0.6254 1.8718 0.1543
H4D H 0.8718 1.6254 -0.1543
H4B H -0.8718 0.7536 0.1543
H4C H -0.6254 1.2464 -0.1543
C6E C -0.1274(3) 0.2094(4) -0.06906(9)
C6A C 0.6632(3) 1.7906(4) 0.06906(9)
C6D C 0.7906(4) 1.6632(3) -0.06906(9)
C6B C -0.7906(4) 0.8726(3) 0.06906(9)
C6C C -0.6632(3) 1.1274(3) -0.06906(9)
C7E C -0.1748(3) 0.2373(4) -0.05311(8)
C7A C 0.5879(3) 1.7627(4) 0.05311(8)
C7D C 0.7627(4) 1.5879(3) -0.05311(8)
C7B C -0.7627(4) 0.8252(3) 0.05311(8)
C7C C -0.5879(3) 1.1748(3) -0.05311(8)
C8E C -0.1350(3) 0.2971(4) -0.03152(8)
C8A C 0.5679(2) 1.7029(4) 0.03152(8)
C8D C 0.7029(4) 1.5679(2) -0.03152(8)
C8B C -0.7029(4) 0.8650(3) 0.03152(8)
C8C C -0.5679(2) 1.1350(3) -0.03152(8)
C9E C -0.0464(3) 0.3279(4) -0.02478(9)
C9A C 0.6257(2) 1.6721(4) 0.02478(9)
C9D C 0.6721(4) 1.6257(2) -0.02478(9)
C9B C -0.6721(4) 0.9536(3) 0.02478(9)
C9C C -0.6257(2) 1.0464(3) -0.02478(9)
C10E C -0.0005(3) 0.2979(4) -0.04116(10)
C10A C 0.7016(3) 1.7021(4) 0.04116(10)
C10D C 0.7021(4) 1.7016(3) -0.04116(10)
C10B C -0.7021(4) 0.9995(3) 0.04116(10)
C10C C -0.7016(3) 1.0005(3) -0.04116(10)
C11E C -0.0403(3) 0.2407(4) -0.06352(9)
C11A C 0.7190(2) 1.7593(4) 0.06352(9)
C11D C 0.7593(4) 1.7190(2) -0.06352(9)
C11B C -0.7593(4) 0.9597(3) 0.06352(9)
C11C C -0.7190(2) 1.0403(3) -0.06352(9)
C12E C -0.2718(3) 0.1983(4) -0.05789(10)
C12A C 0.5299(3) 1.8017(4) 0.05789(10)
C12D C 0.8017(4) 1.5299(3) -0.05789(10)
C12B C -0.8017(4) 0.7282(3) 0.05789(10)
C12C C -0.5299(3) 1.2718(3) -0.05789(10)
H5E H -0.2897 0.1584 -0.0733
H5A H 0.5519 1.8416 0.0733
H5D H 0.8416 1.5519 -0.0733
H5B H -0.8416 0.7103 0.0733
H5C H -0.5519 1.2897 -0.0733
H6E H -0.2842 0.2437 -0.0620
H6A H 0.4721 1.7563 0.0620
H6D H 0.7563 1.4721 -0.0620
H6B H -0.7563 0.7158 0.0620
H6C H -0.4721 1.2842 -0.0620
H7E H -0.3026 0.1682 -0.0413
H7A H 0.5292 1.8318 0.0413
H7D H 0.8318 1.5292 -0.0413
H7B H -0.8318 0.6974 0.0413
H7C H -0.5292 1.3026 -0.0413
C13E C -0.1887(3) 0.3234(4) -0.01398(11)
C13A C 0.4879(3) 1.6766(4) 0.01398(11)
C13D C 0.6766(4) 1.4879(3) -0.01398(11)
C13B C -0.6766(4) 0.8113(3) 0.01398(11)
C13C C -0.4879(3) 1.1887(3) -0.01398(11)
H8E H -0.2464 0.2969 -0.0213
H8A H 0.4567 1.7031 0.0213
H8D H 0.7031 1.4567 -0.0213
H8B H -0.7031 0.7536 0.0213
H8C H -0.4567 1.2464 -0.0213
H9E H -0.1632 0.3852 -0.0145
H9A H 0.4516 1.6148 0.0145
H9D H 0.6148 1.4516 -0.0145
H9B H -0.6148 0.8368 0.0145
H9C H -0.4516 1.1632 -0.0145
H10E H -0.1904 0.3049 0.0050
H10A H 0.5047 1.6951 -0.0050
H10D H 0.6951 1.5047 0.0050
H10B H -0.6951 0.8096 -0.0050
H10C H -0.5047 1.1904 0.0050
C14E C 0.0947(3) 0.3317(4) -0.03671(12)
C14A C 0.7630(3) 1.6683(4) 0.03671(12)
C14D C 0.6683(4) 1.7630(3) -0.03671(12)
C14B C -0.6683(4) 1.0947(3) 0.03671(12)
C14C C -0.7630(3) 0.9053(3) -0.03671(12)
H11E H 0.1146 0.3045 -0.0497
H11A H 0.8101 1.6955 0.0497
H11D H 0.6955 1.8101 -0.0497
H11B H -0.6955 1.1146 0.0497
H11C H -0.8101 0.8854 -0.0497
H12E H 0.1041 0.3190 -0.0179
H12A H 0.7851 1.6810 0.0179
H12D H 0.6810 1.7851 -0.0179
H12B H -0.6810 1.1041 0.0179
H12C H -0.7851 0.8959 -0.0179
H13E H 0.1260 0.3932 -0.0396
H13A H 0.7328 1.6068 0.0396
H13D H 0.6068 1.7328 -0.0396
H13B H -0.6068 1.1260 0.0396
H13C H -0.7328 0.8740 -0.0396
C15E C 0.0128(3) 0.2150(4) -0.08205(11)
C15A C 0.7978(3) 1.7850(4) 0.08205(11)
C15D C 0.7850(4) 1.7978(3) -0.08205(11)
C15B C -0.7850(4) 1.0128(3) 0.08205(11)
C15C C -0.7978(3) 0.9872(3) -0.08205(11)
H14E H -0.0238 0.1755 -0.0962
H14A H 0.8007 1.8245 0.0962
H14D H 0.8245 1.8007 -0.0962
H14B H -0.8245 0.9762 0.0962
H14C H -0.8007 1.0238 -0.0962
H15E H 0.0370 0.1877 -0.0708
H15A H 0.8493 1.8123 0.0708
H15D H 0.8123 1.8493 -0.0708
H15B H -0.8123 1.0370 0.0708
H15C H -0.8493 0.9630 -0.0708
H16E H 0.0587 0.2658 -0.0908
H16A H 0.7929 1.7342 0.0908
H16D H 0.7342 1.7929 -0.0908
H16B H -0.7342 1.0587 0.0908
H16C H -0.7929 0.9413 -0.0908
C16A C 0.5150(3) 1.5150(3) 0.0000
C16B C -0.5150(3) 1.0000 0.0000
C17E C 0.0303(3) 0.5400(4) -0.02347(8)
C17A C 0.4903(3) 1.4600(4) 0.02347(8)
C17D C 0.4600(4) 1.4903(3) -0.02347(8)
C17B C -0.4600(4) 1.0303(3) 0.02347(8)
C17C C -0.4903(3) 0.9697(3) -0.02347(8)
C18E C 0.0311(3) 0.6192(4) -0.02328(9)
C18A C 0.4119(3) 1.3808(4) 0.02328(9)
C18D C 0.3808(4) 1.4119(3) -0.02328(9)
C18B C -0.3808(4) 1.0311(3) 0.02328(9)
C18C C -0.4119(3) 0.9689(3) -0.02328(9)
C19E C 0.0658(4) 0.5187(5) -0.04908(10)
C19A C 0.5471(3) 1.4813(5) 0.04908(10)
C19D C 0.4813(5) 1.5471(3) -0.04908(10)
C19B C -0.4813(5) 1.0658(4) 0.04908(10)
C19C C -0.5471(3) 0.9342(4) -0.04908(10)
H17E H 0.0822 0.5636 -0.0628
H17A H 0.5186 1.4364 0.0628
H17D H 0.4364 1.5186 -0.0628
H17B H -0.4364 1.0822 0.0628
H17C H -0.5186 0.9178 -0.0628
H18E H 0.0222 0.4645 -0.0568
H18A H 0.5577 1.5355 0.0568
H18D H 0.5355 1.5577 -0.0568
H18B H -0.5355 1.0222 0.0568
H18C H -0.5577 0.9778 -0.0568
H19E H 0.1155 0.5143 -0.0439
H19A H 0.6012 1.4857 0.0439
H19D H 0.4857 1.6012 -0.0439
H19B H -0.4857 1.1155 0.0439
H19C H -0.6012 0.8845 -0.0439
C20E C 0.0694(4) 0.6797(5) -0.04801(11)
C20A C 0.3897(3) 1.3203(5) 0.04801(11)
C20D C 0.3203(5) 1.3897(3) -0.04801(11)
C20B C -0.3203(5) 1.0694(4) 0.04801(11)
C20C C -0.3897(3) 0.9306(4) -0.04801(11)
H20E H 0.0657 0.7309 -0.0448
H20A H 0.3348 1.2691 0.0448
H20D H 0.2691 1.3348 -0.0448
H20B H -0.2691 1.0657 0.0448
H20C H -0.3348 0.9343 -0.0448
H21E H 0.0379 0.6513 -0.0647
H21A H 0.3866 1.3487 0.0647
H21D H 0.3487 1.3866 -0.0647
H21B H -0.3487 1.0379 0.0647
H21C H -0.3866 0.9621 -0.0647
H22E H 0.1291 0.6955 -0.0502
H22A H 0.4336 1.3045 0.0502
H22D H 0.3045 1.4336 -0.0502
H22B H -0.3045 1.1291 0.0502
H22C H -0.4336 0.8709 -0.0502
C21A C 0.3586(3) 1.3586(3) 0.0000
C21B C -0.3586(3) 1.0000 0.0000
C22A C 0.2740(3) 1.2740(3) 0.0000
C22B C -0.2740(3) 1.0000 0.0000
C23E C -0.0641(3) 0.7349(4) -0.01282(11)
C23A C 0.2010(3) 1.2651(4) 0.01282(11)
C23D C 0.2651(4) 1.2010(3) -0.01282(11)
C23B C -0.2651(4) 0.9359(3) 0.01282(11)
C23C C -0.2010(3) 1.0641(3) -0.01282(11)
H23E H -0.1097 0.6874 -0.0216
H23A H 0.2029 1.3126 0.0216
H23D H 0.3126 1.2029 -0.0216
H23B H -0.3126 0.8903 0.0216
H23C H -0.2029 1.1097 -0.0216
C24E C -0.0619(3) 0.8130(4) -0.01287(11)
C24A C 0.1251(3) 1.1870(4) 0.01287(11)
C24D C 0.1870(4) 1.1251(3) -0.01287(11)
C24B C -0.1870(4) 0.9381(3) 0.01287(11)
C24C C -0.1251(3) 1.0619(3) -0.01287(11)
H24E H -0.1052 0.8176 -0.0222
H24A H 0.0772 1.1824 0.0222
H24D H 0.1824 1.0772 -0.0222
H24B H -0.1824 0.8948 0.0222
H24C H -0.0772 1.1052 -0.0222
C25K C 0.4063(3) 0.1541(4) 0.16625(11)
C25A C -0.0812(3) -0.8208(4) 0.16708(11)
C25J C -0.1541(4) -0.7479(3) 0.16625(11)
C25B C 0.8208(4) -0.2604(3) 0.16708(11)
C25I C 0.7479(3) -0.4063(3) 0.16625(11)
H25K H 0.4582 0.2066 0.1658
H25J H -0.2066 -0.7485 0.1658
H25A H -0.0818 -0.8733 0.1675
H25I H 0.7485 -0.4582 0.1658
H25B H 0.8733 -0.2085 0.1675
C26K C 0.4104(3) 0.0785(4) 0.16646(10)
C26A C -0.0015(3) -0.7452(4) 0.16687(10)
C26J C -0.0785(4) -0.6682(3) 0.16646(10)
C26B C 0.7452(4) -0.2563(3) 0.16687(10)
C26I C 0.6682(3) -0.4104(3) 0.16646(10)
H26K H 0.4636 0.0807 0.1664
H26J H -0.0807 -0.6172 0.1664
H26A H 0.0495 -0.7474 0.1669
H26I H 0.6172 -0.4636 0.1664
H26B H 0.7474 -0.2031 0.1669
C27A C 0.0008(3) -0.6659(3) 0.1667
C27B C 0.6659(3) -0.3333 0.1667
C28A C 0.0853(3) -0.5814(3) 0.1667
C28B C 0.5814(3) -0.3333 0.1667
C29K C 0.2932(2) -0.1437(3) 0.18863(8)
C29A C 0.1035(2) -0.5230(3) 0.14470(8)
C29J C 0.1437(3) -0.5632(2) 0.18863(8)
C29B C 0.5230(3) -0.3735(2) 0.14470(8)
C29I C 0.5632(2) -0.2932(2) 0.18863(8)
C30K C 0.2912(2) -0.2234(3) 0.18797(8)
C30A C 0.1812(2) -0.4433(3) 0.14536(8)
C30J C 0.2234(3) -0.4855(2) 0.18797(8)
C30B C 0.4433(3) -0.3755(2) 0.14536(8)
C30I C 0.4855(2) -0.2912(2) 0.18797(8)
C31K C 0.2566(3) -0.1204(4) 0.21358(9)
C31J C 0.1204(4) -0.6231(3) 0.21358(9)
C31A C 0.0436(3) -0.5463(4) 0.11975(9)
C31I C 0.6231(3) -0.2566(3) 0.21358(9)
C31B C 0.5463(4) -0.4101(3) 0.11975(9)
H27K H 0.2318 -0.1680 0.2264
H27J H 0.1680 -0.6003 0.2264
H27A H 0.0664 -0.4987 0.1069
H27I H 0.6003 -0.2318 0.2264
H27B H 0.4987 -0.4349 0.1069
H28K H 0.2128 -0.1079 0.2073
H28J H 0.1079 -0.6794 0.2073
H28A H -0.0127 -0.5588 0.1260
H28I H 0.6794 -0.2128 0.2073
H28B H 0.5588 -0.4539 0.1260
H29K H 0.3021 -0.0703 0.2227
H29J H 0.0703 -0.6277 0.2227
H29A H 0.0390 -0.5964 0.1106
H29I H 0.6277 -0.3021 0.2227
H29B H 0.5964 -0.3646 0.1106
C32K C 0.2478(3) -0.2849(4) 0.21244(10)
C32J C 0.2849(4) -0.4674(3) 0.21244(10)
C32A C 0.1993(3) -0.3818(4) 0.12089(10)
C32I C 0.4674(3) -0.2478(3) 0.21244(10)
C32B C 0.3818(4) -0.4189(3) 0.12089(10)
H30K H 0.2227 -0.2609 0.2248
H30J H 0.2609 -0.5165 0.2248
H30A H 0.1502 -0.4058 0.1085
H30I H 0.5165 -0.2227 0.2248
H30B H 0.4058 -0.4440 0.1085
H31K H 0.2900 -0.2928 0.2224
H31J H 0.2928 -0.4173 0.2224
H31A H 0.2494 -0.3739 0.1109
H31I H 0.4173 -0.2900 0.2224
H31B H 0.3739 -0.3767 0.1109
H32K H 0.2032 -0.3397 0.2055
H32J H 0.3397 -0.4572 0.2055
H32A H 0.2095 -0.3270 0.1278
H32I H 0.4572 -0.2032 0.2055
H32B H 0.3270 -0.4635 0.1278
C33A C 0.2434(3) -0.4233(3) 0.1667
C33B C 0.4233(3) -0.3333 0.1667
O1 O 0.6667 0.3333 0.0743(4)
O2 O 0.0390(16) 0.0577(10) 0.1363(3)
loop_
_geom_bond_atom_site_label_1
_geom_bond_atom_site_label_2
_geom_bond_site_symmetry_1
_geom_bond_site_symmetry_2
Cu1 Cl1 1_555 1_555
Cu2 Cl2 1_555 1_555
B1 C9 1_555 1_555
B2 C33 1_555 1_555
N1 Cu1 1_555 1_555
N2 Cu1 1_555 1_555
N3 Cu2 1_555 1_555
C1 N1 1_555 1_555
H1 C1 1_555 1_555
C2 C1 1_555 1_555
H2 C2 1_555 1_555
C3 C2 1_555 1_555
C4 C3 1_555 1_555
H3 C4 1_555 1_555
C5 N1 1_555 1_555
H4 C5 1_555 1_555
C6 C3 1_555 1_555
C7 C6 1_555 1_555
C8 C7 1_555 1_555
C9 C8 1_555 1_555
C10 C9 1_555 1_555
C11 C6 1_555 1_555
C12 C7 1_555 1_555
H5 C12 1_555 1_555
H6 C12 1_555 1_555
H7 C12 1_555 1_555
C13 C8 1_555 1_555
H8 C13 1_555 1_555
H9 C13 1_555 1_555
H10 C13 1_555 1_555
C14 C10 1_555 1_555
H11 C14 1_555 1_555
H12 C14 1_555 1_555
H13 C14 1_555 1_555
C15 C11 1_555 1_555
H14 C15 1_555 1_555
H15 C15 1_555 1_555
H16 C15 1_555 1_555
C16 B1 1_555 1_555
C17 C16 1_555 1_555
C18 C17 1_555 1_555
C19 C17 1_555 1_555
H17 C19 1_555 1_555
H18 C19 1_555 1_555
H19 C19 1_555 1_555
C20 C18 1_555 1_555
H20 C20 1_555 1_555
H21 C20 1_555 1_555
H22 C20 1_555 1_555
C21 C18 1_555 1_555
C22 C21 1_555 1_555
C23 C22 1_555 1_555
H23 C23 1_555 1_555
C24 N3 1_555 1_555
H24 C24 1_555 1_555
C25 N2 1_555 1_555
H25 C25 1_555 1_555
C26 C25 1_555 1_555
H26 C26 1_555 1_555
C27 C26 1_555 1_555
C28 C27 1_555 1_555
C29 C28 1_555 1_555
C30 C29 1_555 1_555
C31 C29 1_555 1_555
H27 C31 1_555 1_555
H28 C31 1_555 1_555
H29 C31 1_555 1_555
C32 C30 1_555 1_555
H30 C32 1_555 1_555
H31 C32 1_555 1_555
H32 C32 1_555 1_555
C33 C30 1_555 1_555
Cu1E N1E 1_555 1_555
Cu1A N1A 1_555 1_555
Cu1D Cl1D 1_555 1_555
Cu1B Cl1B 1_555 1_555
Cu1C N1C 1_555 1_555
Cu1A_2 N2A 1_555 1_555
Cu1B_2 N2B 1_555 1_555
Cl1K Cu1 1_555 1_555
Cl1M Cu1D 1_555 1_555
Cl1I Cu1B 1_555 1_555
Cl2C Cu2 1_555 1_555
B1A C9A 1_555 1_555
B1B C9B 1_555 1_555
N1E C1E 1_555 1_555
N1A C1A 1_555 1_555
N1D Cu1D 1_555 1_555
N1B Cu1B 1_555 1_555
N1C C1C 1_555 1_555
N1K Cu1 1_555 1_555
N1M Cu1D 1_555 1_555
N1I Cu1B 1_555 1_555
N2A C25A 1_555 1_555
N2B C25B 1_555 1_555
N2D Cu1D 1_555 1_555
N2B_2 Cu1B 1_555 1_555
N3A Cu2 1_555 1_555
N3B Cu2 1_555 1_555
C1E H1E 1_555 1_555
C1A H1A 1_555 1_555
C1D N1D 1_555 1_555
C1B N1B 1_555 1_555
C1C H1C 1_555 1_555
H1D C1D 1_555 1_555
H1B C1B 1_555 1_555
C2E C1E 1_555 1_555
C2A C1A 1_555 1_555
C2D C1D 1_555 1_555
C2B C1B 1_555 1_555
C2C C1C 1_555 1_555
H2E C2E 1_555 1_555
H2A C2A 1_555 1_555
H2D C2D 1_555 1_555
H2B C2B 1_555 1_555
H2C C2C 1_555 1_555
C3E C2E 1_555 1_555
C3A C2A 1_555 1_555
C3D C2D 1_555 1_555
C3B C2B 1_555 1_555
C3C C2C 1_555 1_555
C4E C3E 1_555 1_555
C4A C3A 1_555 1_555
C4D C3D 1_555 1_555
C4B C3B 1_555 1_555
C4C C3C 1_555 1_555
H3E C4E 1_555 1_555
H3A C4A 1_555 1_555
H3D C4D 1_555 1_555
H3B C4B 1_555 1_555
H3C C4C 1_555 1_555
C5E N1E 1_555 1_555
C5A N1A 1_555 1_555
C5D N1D 1_555 1_555
C5B N1B 1_555 1_555
C5C N1C 1_555 1_555
H4E C5E 1_555 1_555
H4A C5A 1_555 1_555
H4D C5D 1_555 1_555
H4B C5B 1_555 1_555
H4C C5C 1_555 1_555
C6E C3E 1_555 1_555
C6A C3A 1_555 1_555
C6D C3D 1_555 1_555
C6B C3B 1_555 1_555
C6C C3C 1_555 1_555
C7E C6E 1_555 1_555
C7A C6A 1_555 1_555
C7D C6D 1_555 1_555
C7B C6B 1_555 1_555
C7C C6C 1_555 1_555
C8E C7E 1_555 1_555
C8A C7A 1_555 1_555
C8D C7D 1_555 1_555
C8B C7B 1_555 1_555
C8C C7C 1_555 1_555
C9E B1 1_555 1_555
C9A C8A 1_555 1_555
C9D B1A 1_555 1_555
C9B C8B 1_555 1_555
C9C B1B 1_555 1_555
C10E C9E 1_555 1_555
C10A C9A 1_555 1_555
C10D C9D 1_555 1_555
C10B C9B 1_555 1_555
C10C C9C 1_555 1_555
C11E C6E 1_555 1_555
C11A C6A 1_555 1_555
C11D C6D 1_555 1_555
C11B C6B 1_555 1_555
C11C C6C 1_555 1_555
C12E C7E 1_555 1_555
C12A C7A 1_555 1_555
C12D C7D 1_555 1_555
C12B C7B 1_555 1_555
C12C C7C 1_555 1_555
H5E C12E 1_555 1_555
H5A C12A 1_555 1_555
H5D C12D 1_555 1_555
H5B C12B 1_555 1_555
H5C C12C 1_555 1_555
H6E C12E 1_555 1_555
H6A C12A 1_555 1_555
H6D C12D 1_555 1_555
H6B C12B 1_555 1_555
H6C C12C 1_555 1_555
H7E C12E 1_555 1_555
H7A C12A 1_555 1_555
H7D C12D 1_555 1_555
H7B C12B 1_555 1_555
H7C C12C 1_555 1_555
C13E C8E 1_555 1_555
C13A C8A 1_555 1_555
C13D C8D 1_555 1_555
C13B C8B 1_555 1_555
C13C C8C 1_555 1_555
H8E C13E 1_555 1_555
H8A C13A 1_555 1_555
H8D C13D 1_555 1_555
H8B C13B 1_555 1_555
H8C C13C 1_555 1_555
H9E C13E 1_555 1_555
H9A C13A 1_555 1_555
H9D C13D 1_555 1_555
H9B C13B 1_555 1_555
H9C C13C 1_555 1_555
H10E C13E 1_555 1_555
H10A C13A 1_555 1_555
H10D C13D 1_555 1_555
H10B C13B 1_555 1_555
H10C C13C 1_555 1_555
C14E C10E 1_555 1_555
C14A C10A 1_555 1_555
C14D C10D 1_555 1_555
C14B C10B 1_555 1_555
C14C C10C 1_555 1_555
H11E C14E 1_555 1_555
H11A C14A 1_555 1_555
H11D C14D 1_555 1_555
H11B C14B 1_555 1_555
H11C C14C 1_555 1_555
H12E C14E 1_555 1_555
H12A C14A 1_555 1_555
H12D C14D 1_555 1_555
H12B C14B 1_555 1_555
H12C C14C 1_555 1_555
H13E C14E 1_555 1_555
H13A C14A 1_555 1_555
H13D C14D 1_555 1_555
H13B C14B 1_555 1_555
H13C C14C 1_555 1_555
C15E C11E 1_555 1_555
C15A C11A 1_555 1_555
C15D C11D 1_555 1_555
C15B C11B 1_555 1_555
C15C C11C 1_555 1_555
H14E C15E 1_555 1_555
H14A C15A 1_555 1_555
H14D C15D 1_555 1_555
H14B C15B 1_555 1_555
H14C C15C 1_555 1_555
H15E C15E 1_555 1_555
H15A C15A 1_555 1_555
H15D C15D 1_555 1_555
H15B C15B 1_555 1_555
H15C C15C 1_555 1_555
H16E C15E 1_555 1_555
H16A C15A 1_555 1_555
H16D C15D 1_555 1_555
H16B C15B 1_555 1_555
H16C C15C 1_555 1_555
C16A B1A 1_555 1_555
C16B B1B 1_555 1_555
C17E C16 1_555 1_555
C17A C16A 1_555 1_555
C17D C16A 1_555 1_555
C17B C16B 1_555 1_555
C17C C16B 1_555 1_555
C18E C21 1_555 1_555
C18A C17A 1_555 1_555
C18D C17D 1_555 1_555
C18B C17B 1_555 1_555
C18C C17C 1_555 1_555
C19E C17E 1_555 1_555
C19A C17A 1_555 1_555
C19D C17D 1_555 1_555
C19B C17B 1_555 1_555
C19C C17C 1_555 1_555
H17E C19E 1_555 1_555
H17A C19A 1_555 1_555
H17D C19D 1_555 1_555
H17B C19B 1_555 1_555
H17C C19C 1_555 1_555
H18E C19E 1_555 1_555
H18A C19A 1_555 1_555
H18D C19D 1_555 1_555
H18B C19B 1_555 1_555
H18C C19C 1_555 1_555
H19E C19E 1_555 1_555
H19A C19A 1_555 1_555
H19D C19D 1_555 1_555
H19B C19B 1_555 1_555
H19C C19C 1_555 1_555
C20E C18E 1_555 1_555
C20A C18A 1_555 1_555
C20D C18D 1_555 1_555
C20B C18B 1_555 1_555
C20C C18C 1_555 1_555
H20E C20E 1_555 1_555
H20A C20A 1_555 1_555
H20D C20D 1_555 1_555
H20B C20B 1_555 1_555
H20C C20C 1_555 1_555
H21E C20E 1_555 1_555
H21A C20A 1_555 1_555
H21D C20D 1_555 1_555
H21B C20B 1_555 1_555
H21C C20C 1_555 1_555
H22E C20E 1_555 1_555
H22A C20A 1_555 1_555
H22D C20D 1_555 1_555
H22B C20B 1_555 1_555
H22C C20C 1_555 1_555
C21A C18A 1_555 1_555
C21B C18B 1_555 1_555
C22A C21A 1_555 1_555
C22B C21B 1_555 1_555
C23E C22 1_555 1_555
C23A C22A 1_555 1_555
C23D C22A 1_555 1_555
C23B C22B 1_555 1_555
C23C C22B 1_555 1_555
H23E C23E 1_555 1_555
H23A C23A 1_555 1_555
H23D C23D 1_555 1_555
H23B C23B 1_555 1_555
H23C C23C 1_555 1_555
C24E N3 1_555 1_555
C24A N3A 1_555 1_555
C24D N3A 1_555 1_555
C24B N3B 1_555 1_555
C24C N3B 1_555 1_555
H24E C24E 1_555 1_555
H24A C24A 1_555 1_555
H24D C24D 1_555 1_555
H24B C24B 1_555 1_555
H24C C24C 1_555 1_555
C25K N2 1_555 1_555
C25A H25A 1_555 1_555
C25J N2A 1_555 1_555
C25B H25B 1_555 1_555
C25I N2B 1_555 1_555
H25K C25K 1_555 1_555
H25J C25J 1_555 1_555
H25I C25I 1_555 1_555
C26K C27 1_555 1_555
C26A C25A 1_555 1_555
C26J C25J 1_555 1_555
C26B C25B 1_555 1_555
C26I C25I 1_555 1_555
H26K C26K 1_555 1_555
H26J C26J 1_555 1_555
H26A C26A 1_555 1_555
H26I C26I 1_555 1_555
H26B C26B 1_555 1_555
C27A C26A 1_555 1_555
C27B C26B 1_555 1_555
C28A C27A 1_555 1_555
C28B C27B 1_555 1_555
C29K C28 1_555 1_555
C29A C28A 1_555 1_555
C29J C28A 1_555 1_555
C29B C28B 1_555 1_555
C29I C28B 1_555 1_555
C30K C33 1_555 1_555
C30A C29A 1_555 1_555
C30J C29J 1_555 1_555
C30B C29B 1_555 1_555
C30I C29I 1_555 1_555
C31K C29K 1_555 1_555
C31J C29J 1_555 1_555
C31A C29A 1_555 1_555
C31I C29I 1_555 1_555
C31B C29B 1_555 1_555
H27K C31K 1_555 1_555
H27J C31J 1_555 1_555
H27A C31A 1_555 1_555
H27I C31I 1_555 1_555
H27B C31B 1_555 1_555
H28K C31K 1_555 1_555
H28J C31J 1_555 1_555
H28A C31A 1_555 1_555
H28I C31I 1_555 1_555
H28B C31B 1_555 1_555
H29K C31K 1_555 1_555
H29J C31J 1_555 1_555
H29A C31A 1_555 1_555
H29I C31I 1_555 1_555
H29B C31B 1_555 1_555
C32K C30K 1_555 1_555
C32J C30J 1_555 1_555
C32A C30A 1_555 1_555
C32I C30I 1_555 1_555
C32B C30B 1_555 1_555
H30K C32K 1_555 1_555
H30J C32J 1_555 1_555
H30A C32A 1_555 1_555
H30I C32I 1_555 1_555
H30B C32B 1_555 1_555
H31K C32K 1_555 1_555
H31J C32J 1_555 1_555
H31A C32A 1_555 1_555
H31I C32I 1_555 1_555
H31B C32B 1_555 1_555
H32K C32K 1_555 1_555
H32J C32J 1_555 1_555
H32A C32A 1_555 1_555
H32I C32I 1_555 1_555
H32B C32B 1_555 1_555
C33A B2 1_555 1_555
C33B B2 1_555 1_555
C4 C5 1_555 1_555
C10 C11 1_555 1_555
C23 C24 1_555 1_555
C4E C5E 1_555 1_555
C4A C5A 1_555 1_555
C4D C5D 1_555 1_555
C4B C5B 1_555 1_555
C4C C5C 1_555 1_555
C8E C9E 1_555 1_555
C8D C9D 1_555 1_555
C8C C9C 1_555 1_555
C10E C11E 1_555 1_555
C10A C11A 1_555 1_555
C10D C11D 1_555 1_555
C10B C11B 1_555 1_555
C10C C11C 1_555 1_555
C17E C18E 1_555 1_555
C18D C21A 1_555 1_555
C18C C21B 1_555 1_555
C23E C24E 1_555 1_555
C23A C24A 1_555 1_555
C23D C24D 1_555 1_555
C23B C24B 1_555 1_555
C23C C24C 1_555 1_555
C25K C26K 1_555 1_555
C26J C27A 1_555 1_555
C26I C27B 1_555 1_555
C29K C30K 1_555 1_555
C30A C33A 1_555 1_555
C30J C33A 1_555 1_555
C30B C33B 1_555 1_555
C30I C33B 1_555 1_555

#END
