
#######################################################################
#
#                 Cambridge Crystallographic Data Centre
#                                CCDC 
#
#######################################################################
#
# If this CIF has been generated from an entry in the Cambridge 
# Structural Database, then it will include bibliographic, chemical, 
# crystal, experimental, refinement or atomic coordinate data resulting 
# from the CCDC's data processing and validation procedures.
#
#######################################################################

data_SOBZAL
_symmetry_cell_setting           rhombohedral
_symmetry_space_group_name_H-M   'R 3 2'
_symmetry_Int_Tables_number      155
_space_group_name_Hall           'R 3 2"'
loop_
_symmetry_equiv_pos_site_id
_symmetry_equiv_pos_as_xyz
1 x,y,z
2 -y,x-y,z
3 -x+y,-x,z
4 y,x,-z
5 x-y,-y,-z
6 -x,-x+y,-z
7 2/3+x,1/3+y,1/3+z
8 2/3-y,1/3+x-y,1/3+z
9 2/3-x+y,1/3-x,1/3+z
10 2/3+y,1/3+x,1/3-z
11 2/3+x-y,1/3-y,1/3-z
12 2/3-x,1/3-x+y,1/3-z
13 1/3+x,2/3+y,2/3+z
14 1/3-y,2/3+x-y,2/3+z
15 1/3-x+y,2/3-x,2/3+z
16 1/3+y,2/3+x,2/3-z
17 1/3+x-y,2/3-y,2/3-z
18 1/3-x,2/3-x+y,2/3-z
_cell_length_a                   18.343(3)
_cell_length_b                   18.343(3)
_cell_length_c                   48.214(10)
_cell_angle_alpha                90
_cell_angle_beta                 90
_cell_angle_gamma                120
_cell_volume                     14049
loop_
_atom_site_label
_atom_site_type_symbol
_atom_site_fract_x
_atom_site_fract_y
_atom_site_fract_z
Cd1 Cd 0.3333 0.26721(3) 0.1667
Cd2 Cd 0.0000 1.0000 0.0000
I1 I 0.19742(4) 0.21489(4) 0.204060(12)
I2 I 0.0000 1.0000 -0.058915(16)
B1 B 0.0000 0.3985(5) 0.0000
B2 B 0.3333 -0.3333 0.1667
N1 N 0.2482(4) 0.2818(3) 0.13256(10)
N2 N 0.3333 0.1409(4) 0.1667
N3 N 0.0000 0.8723(3) 0.0000
C1 C 0.2206(5) 0.2346(5) 0.10942(13)
H1 H 0.2288 0.1887 0.1077
C2 C 0.1808(5) 0.2513(5) 0.08831(15)
H2 H 0.1630 0.2175 0.0726
C3 C 0.1674(4) 0.3194(4) 0.09066(11)
C4 C 0.1931(4) 0.3647(4) 0.11501(12)
H3 H 0.1845 0.4101 0.1177
C5 C 0.2315(5) 0.3431(5) 0.13542(13)
H4 H 0.2463 0.3733 0.1519
C6 C 0.1240(4) 0.3401(4) 0.06799(12)
C7 C 0.0382(4) 0.2872(4) 0.06308(12)
C8 C -0.0001(4) 0.3048(4) 0.04141(12)
C9 C 0.0454(4) 0.3776(3) 0.02462(12)
C10 C 0.1316(4) 0.4338(4) 0.03052(12)
C11 C 0.1711(4) 0.4128(4) 0.05218(11)
C12 C 0.2648(4) 0.4696(4) 0.05690(15)
H5 H 0.2824 0.4484 0.0721
H6 H 0.2763 0.5255 0.0611
H7 H 0.2949 0.4707 0.0405
C13 C 0.1824(4) 0.5111(4) 0.01448(15)
H8 H 0.1478 0.5167 0.0007
H9 H 0.2278 0.5083 0.0055
H10 H 0.2050 0.5588 0.0267
C14 C -0.0943(4) 0.2460(4) 0.03687(16)
H11 H -0.1129 0.2658 0.0215
H12 H -0.1245 0.2450 0.0533
H13 H -0.1047 0.1902 0.0330
C15 C -0.0125(5) 0.2144(5) 0.08196(16)
H14 H 0.0239 0.2109 0.0956
H15 H -0.0392 0.1633 0.0713
H16 H -0.0546 0.2221 0.0911
C16 C -0.0637(4) 0.8038(4) -0.01086(15)
H17 H -0.1079 0.8073 -0.0189
C17 C -0.0664(4) 0.7271(4) -0.01055(15)
H18 H -0.1133 0.6794 -0.0175
C18 C 0.0000 0.7210(4) 0.0000
C19 C 0.0000 0.6389(4) 0.0000
C20 C 0.0277(4) 0.6152(4) -0.02346(11)
C21 C 0.0262(4) 0.5384(4) -0.02393(12)
C22 C 0.0000 0.4860(4) 0.0000
C23 C 0.0567(6) 0.5158(5) -0.04984(13)
H19 H 0.0709 0.5587 -0.0636
H20 H 0.0131 0.4628 -0.0569
H21 H 0.1055 0.5115 -0.0455
C24 C 0.0595(6) 0.6728(4) -0.04854(14)
H22 H 0.0759 0.6473 -0.0628
H23 H 0.1071 0.7258 -0.0433
H24 H 0.0155 0.6819 -0.0554
C25 C 0.4054(5) 0.1398(4) 0.16575(16)
H25 H 0.4557 0.1907 0.1647
C26 C 0.4081(4) 0.0667(4) 0.16627(15)
H26 H 0.4596 0.0683 0.1664
C27 C 0.3333 -0.0100(5) 0.1667
C28 C 0.3333 -0.0914(4) 0.1667
C29 C 0.2961(3) -0.1483(3) 0.18886(11)
C30 C 0.2926(3) -0.2262(3) 0.18822(12)
C31 C 0.3333 -0.2454(4) 0.1667
C32 C 0.2496(4) -0.2861(4) 0.21182(13)
H27 H 0.2255 -0.2627 0.2242
H28 H 0.2899 -0.2950 0.2217
H29 H 0.2058 -0.3388 0.2047
C33 C 0.2645(4) -0.1239(4) 0.21355(13)
H30 H 0.2713 -0.0690 0.2107
H31 H 0.2957 -0.1229 0.2297
H32 H 0.2059 -0.1640 0.2163
Cd1E Cd -0.3333 -0.06609(3) -0.1667
Cd1A Cd 0.73279(3) 2.06609(3) 0.1667
Cd1D Cd 1.06609(3) 1.73279(3) -0.1667
Cd1B Cd -1.06609(3) 0.6667 0.1667
Cd1C Cd -0.73279(3) 1.3333 -0.1667
Cd1A_2 Cd -0.26721(3) -0.93391(3) 0.1667
Cd1B_2 Cd 0.93391(3) -0.3333 0.1667
I1K I 0.46925(4) 0.35080(6) 0.129273(12)
I1D I 0.98253(6) 1.78511(4) -0.204060(12)
I1M I 1.11844(4) 1.64920(6) -0.129273(12)
I1B I -0.98253(6) 0.80258(4) 0.204060(12)
I1I I -1.11844(4) 0.53075(4) 0.129273(12)
I2C I 0.0000 1.0000 0.058915(16)
B1A B 0.6015(5) 1.6015(5) 0.0000
B1B B -0.6015(5) 1.0000 0.0000
N1E N -0.2482(4) 0.0336(5) -0.13256(10)
N1A N 0.7182(3) 1.9664(5) 0.13256(10)
N1D N 0.9664(5) 1.7182(3) -0.13256(10)
N1B N -0.9664(5) 0.7518(4) 0.13256(10)
N1C N -0.7182(3) 1.2482(4) -0.13256(10)
N1K N 0.4185(4) 0.3669(5) 0.20077(10)
N1M N 1.0515(3) 1.6331(5) -0.20077(10)
N1I N -1.0515(3) 0.5815(4) 0.20077(10)
N2A N -0.1409(4) -0.8076(4) 0.1667
N2B N 0.8076(4) -0.3333 0.1667
N2D N 1.1924(4) 1.8591(4) -0.1667
N2B_2 N -1.1924(4) 0.6667 0.1667
N3A N 0.1277(3) 1.1277(3) 0.0000
N3B N -0.1277(3) 1.0000 0.0000
C1E C -0.2206(5) 0.0140(7) -0.10942(13)
C1A C 0.7654(5) 1.9860(7) 0.10942(13)
C1D C 0.9860(7) 1.7654(5) -0.10942(13)
C1B C -0.9860(7) 0.7794(5) 0.10942(13)
C1C C -0.7654(5) 1.2206(5) -0.10942(13)
H1E H -0.2288 -0.0401 -0.1077
H1A H 0.8113 2.0401 0.1077
H1D H 1.0401 1.8113 -0.1077
H1B H -1.0401 0.7712 0.1077
H1C H -0.8113 1.2288 -0.1077
C2E C -0.1808(5) 0.0705(7) -0.08831(15)
C2A C 0.7487(5) 1.9295(7) 0.08831(15)
C2D C 0.9295(7) 1.7487(5) -0.08831(15)
C2B C -0.9295(7) 0.8192(5) 0.08831(15)
C2C C -0.7487(5) 1.1808(5) -0.08831(15)
H2E H -0.1630 0.0545 -0.0726
H2A H 0.7825 1.9455 0.0726
H2D H 0.9455 1.7825 -0.0726
H2B H -0.9455 0.8370 0.0726
H2C H -0.7825 1.1630 -0.0726
C3E C -0.1674(4) 0.1520(6) -0.09066(11)
C3A C 0.6806(4) 1.8480(6) 0.09066(11)
C3D C 0.8480(6) 1.6806(4) -0.09066(11)
C3B C -0.8480(6) 0.8326(4) 0.09066(11)
C3C C -0.6806(4) 1.1674(4) -0.09066(11)
C4E C -0.1931(4) 0.1716(6) -0.11501(12)
C4A C 0.6353(4) 1.8284(6) 0.11501(12)
C4D C 0.8284(6) 1.6353(4) -0.11501(12)
C4B C -0.8284(6) 0.8069(4) 0.11501(12)
C4C C -0.6353(4) 1.1931(4) -0.11501(12)
H3E H -0.1845 0.2256 -0.1177
H3A H 0.5899 1.7744 0.1177
H3D H 0.7744 1.5899 -0.1177
H3B H -0.7744 0.8155 0.1177
H3C H -0.5899 1.1845 -0.1177
C5E C -0.2315(5) 0.1116(7) -0.13542(13)
C5A C 0.6569(5) 1.8884(7) 0.13542(13)
C5D C 0.8884(7) 1.6569(5) -0.13542(13)
C5B C -0.8884(7) 0.7685(5) 0.13542(13)
C5C C -0.6569(5) 1.2315(5) -0.13542(13)
H4E H -0.2463 0.1270 -0.1519
H4A H 0.6267 1.8730 0.1519
H4D H 0.8730 1.6267 -0.1519
H4B H -0.8730 0.7537 0.1519
H4C H -0.6267 1.2463 -0.1519
C6E C -0.1240(4) 0.2161(6) -0.06799(12)
C6A C 0.6599(4) 1.7839(6) 0.06799(12)
C6D C 0.7839(6) 1.6599(4) -0.06799(12)
C6B C -0.7839(6) 0.8760(4) 0.06799(12)
C6C C -0.6599(4) 1.1240(4) -0.06799(12)
C7E C -0.0382(4) 0.2490(6) -0.06308(12)
C7A C 0.7128(4) 1.7510(6) 0.06308(12)
C7D C 0.7510(6) 1.7128(4) -0.06308(12)
C7B C -0.7510(6) 0.9618(4) 0.06308(12)
C7C C -0.7128(4) 1.0382(4) -0.06308(12)
C8E C 0.0001(4) 0.3049(6) -0.04141(12)
C8A C 0.6952(4) 1.6951(6) 0.04141(12)
C8D C 0.6951(6) 1.6952(4) -0.04141(12)
C8B C -0.6951(6) 1.0001(4) 0.04141(12)
C8C C -0.6952(4) 0.9999(4) -0.04141(12)
C9E C -0.0454(4) 0.3322(5) -0.02462(12)
C9A C 0.6224(3) 1.6678(5) 0.02462(12)
C9D C 0.6678(5) 1.6224(3) -0.02462(12)
C9B C -0.6678(5) 0.9546(4) 0.02462(12)
C9C C -0.6224(3) 1.0454(4) -0.02462(12)
C10E C -0.1316(4) 0.3022(6) -0.03052(12)
C10A C 0.5662(4) 1.6978(6) 0.03052(12)
C10D C 0.6978(6) 1.5662(4) -0.03052(12)
C10B C -0.6978(6) 0.8684(4) 0.03052(12)
C10C C -0.5662(4) 1.1316(4) -0.03052(12)
C11E C -0.1711(4) 0.2417(6) -0.05218(11)
C11A C 0.5872(4) 1.7583(6) 0.05218(11)
C11D C 0.7583(6) 1.5872(4) -0.05218(11)
C11B C -0.7583(6) 0.8289(4) 0.05218(11)
C11C C -0.5872(4) 1.1711(4) -0.05218(11)
C12E C -0.2648(4) 0.2048(6) -0.05690(15)
C12A C 0.5304(4) 1.7952(6) 0.05690(15)
C12D C 0.7952(6) 1.5304(4) -0.05690(15)
C12B C -0.7952(6) 0.7352(4) 0.05690(15)
C12C C -0.5304(4) 1.2648(4) -0.05690(15)
H5E H -0.2824 0.1660 -0.0721
H5A H 0.5516 1.8340 0.0721
H5D H 0.8340 1.5516 -0.0721
H5B H -0.8340 0.7176 0.0721
H5C H -0.5516 1.2824 -0.0721
H6E H -0.2763 0.2492 -0.0611
H6A H 0.4745 1.7508 0.0611
H6D H 0.7508 1.4745 -0.0611
H6B H -0.7508 0.7237 0.0611
H6C H -0.4745 1.2763 -0.0611
H7E H -0.2949 0.1758 -0.0405
H7A H 0.5293 1.8242 0.0405
H7D H 0.8242 1.5293 -0.0405
H7B H -0.8242 0.7051 0.0405
H7C H -0.5293 1.2949 -0.0405
C13E C -0.1824(4) 0.3287(6) -0.01448(15)
C13A C 0.4889(4) 1.6713(6) 0.01448(15)
C13D C 0.6713(6) 1.4889(4) -0.01448(15)
C13B C -0.6713(6) 0.8176(4) 0.01448(15)
C13C C -0.4889(4) 1.1824(4) -0.01448(15)
H8E H -0.1478 0.3689 -0.0007
H8A H 0.4833 1.6311 0.0007
H8D H 0.6311 1.4833 -0.0007
H8B H -0.6311 0.8522 0.0007
H8C H -0.4833 1.1478 -0.0007
H9E H -0.2278 0.2805 -0.0055
H9A H 0.4917 1.7195 0.0055
H9D H 0.7195 1.4917 -0.0055
H9B H -0.7195 0.7722 0.0055
H9C H -0.4917 1.2278 -0.0055
H10E H -0.2050 0.3538 -0.0267
H10A H 0.4412 1.6462 0.0267
H10D H 0.6462 1.4412 -0.0267
H10B H -0.6462 0.7950 0.0267
H10C H -0.4412 1.2050 -0.0267
C14E C 0.0943(4) 0.3403(6) -0.03687(16)
C14A C 0.7540(4) 1.6597(6) 0.03687(16)
C14D C 0.6597(6) 1.7540(4) -0.03687(16)
C14B C -0.6597(6) 1.0943(4) 0.03687(16)
C14C C -0.7540(4) 0.9057(4) -0.03687(16)
H11E H 0.1129 0.3787 -0.0215
H11A H 0.7342 1.6213 0.0215
H11D H 0.6213 1.7342 -0.0215
H11B H -0.6213 1.1129 0.0215
H11C H -0.7342 0.8871 -0.0215
H12E H 0.1245 0.3695 -0.0533
H12A H 0.7550 1.6305 0.0533
H12D H 0.6305 1.7550 -0.0533
H12B H -0.6305 1.1245 0.0533
H12C H -0.7550 0.8755 -0.0533
H13E H 0.1047 0.2949 -0.0330
H13A H 0.8098 1.7051 0.0330
H13D H 0.7051 1.8098 -0.0330
H13B H -0.7051 1.1047 0.0330
H13C H -0.8098 0.8953 -0.0330
C15E C 0.0125(5) 0.2269(7) -0.08196(16)
C15A C 0.7856(5) 1.7731(7) 0.08196(16)
C15D C 0.7731(7) 1.7856(5) -0.08196(16)
C15B C -0.7731(7) 1.0125(5) 0.08196(16)
C15C C -0.7856(5) 0.9875(5) -0.08196(16)
H14E H -0.0239 0.1870 -0.0956
H14A H 0.7891 1.8130 0.0956
H14D H 0.8130 1.7891 -0.0956
H14B H -0.8130 0.9761 0.0956
H14C H -0.7891 1.0239 -0.0956
H15E H 0.0392 0.2025 -0.0713
H15A H 0.8367 1.7975 0.0713
H15D H 0.7975 1.8367 -0.0713
H15B H -0.7975 1.0392 0.0713
H15C H -0.8367 0.9608 -0.0713
H16E H 0.0546 0.2767 -0.0911
H16A H 0.7779 1.7233 0.0911
H16D H 0.7233 1.7779 -0.0911
H16B H -0.7233 1.0546 0.0911
H16C H -0.7779 0.9454 -0.0911
C16E C 0.0637(4) 0.8675(6) 0.01086(15)
C16A C 0.1962(4) 1.1325(6) -0.01086(15)
C16D C 0.1325(6) 1.1962(4) 0.01086(15)
C16B C -0.1325(6) 1.0637(4) -0.01086(15)
C16C C -0.1962(4) 0.9363(4) 0.01086(15)
H17E H 0.1079 0.9152 0.0189
H17A H 0.1927 1.0848 -0.0189
H17D H 0.0848 1.1927 0.0189
H17B H -0.0848 1.1079 -0.0189
H17C H -0.1927 0.8921 0.0189
C17E C 0.0664(4) 0.7935(6) 0.01055(15)
C17A C 0.2729(4) 1.2065(6) -0.01055(15)
C17D C 0.2065(6) 1.2729(4) 0.01055(15)
C17B C -0.2065(6) 1.0664(4) -0.01055(15)
C17C C -0.2729(4) 0.9336(4) 0.01055(15)
H18E H 0.1133 0.7927 0.0175
H18A H 0.3206 1.2073 -0.0175
H18D H 0.2073 1.3206 0.0175
H18B H -0.2073 1.1133 -0.0175
H18C H -0.3206 0.8867 0.0175
C18A C 0.2790(4) 1.2790(4) 0.0000
C18B C -0.2790(4) 1.0000 0.0000
C19A C 0.3611(4) 1.3611(4) 0.0000
C19B C -0.3611(4) 1.0000 0.0000
C20E C -0.0277(4) 0.5875(6) 0.02346(11)
C20A C 0.3848(4) 1.4125(6) -0.02346(11)
C20D C 0.4125(6) 1.3848(4) 0.02346(11)
C20B C -0.4125(6) 0.9723(4) -0.02346(11)
C20C C -0.3848(4) 1.0277(4) 0.02346(11)
C21E C -0.0262(4) 0.5122(6) 0.02393(12)
C21A C 0.4616(4) 1.4878(6) -0.02393(12)
C21D C 0.4878(6) 1.4616(4) 0.02393(12)
C21B C -0.4878(6) 0.9738(4) -0.02393(12)
C21C C -0.4616(4) 1.0262(4) 0.02393(12)
C22A C 0.5140(4) 1.5140(4) 0.0000
C22B C -0.5140(4) 1.0000 0.0000
C23E C -0.0567(6) 0.4591(8) 0.04984(13)
C23A C 0.4842(5) 1.5409(8) -0.04984(13)
C23D C 0.5409(8) 1.4842(5) 0.04984(13)
C23B C -0.5409(8) 0.9433(6) -0.04984(13)
C23C C -0.4842(5) 1.0567(6) 0.04984(13)
H19E H -0.0709 0.4878 0.0636
H19A H 0.4413 1.5122 -0.0636
H19D H 0.5122 1.4413 0.0636
H19B H -0.5122 0.9291 -0.0636
H19C H -0.4413 1.0709 0.0636
H20E H -0.0131 0.4497 0.0569
H20A H 0.5372 1.5503 -0.0569
H20D H 0.5503 1.5372 0.0569
H20B H -0.5503 0.9869 -0.0569
H20C H -0.5372 1.0131 0.0569
H21E H -0.1055 0.4060 0.0455
H21A H 0.4885 1.5940 -0.0455
H21D H 0.5940 1.4885 0.0455
H21B H -0.5940 0.8945 -0.0455
H21C H -0.4885 1.1055 0.0455
C24E C -0.0595(6) 0.6133(7) 0.04854(14)
C24A C 0.3272(4) 1.3867(7) -0.04854(14)
C24D C 0.3867(7) 1.3272(4) 0.04854(14)
C24B C -0.3867(7) 0.9405(6) -0.04854(14)
C24C C -0.3272(4) 1.0595(6) 0.04854(14)
H22E H -0.0759 0.5714 0.0628
H22A H 0.3527 1.4286 -0.0628
H22D H 0.4286 1.3527 0.0628
H22B H -0.4286 0.9241 -0.0628
H22C H -0.3527 1.0759 0.0628
H23E H -0.1071 0.6187 0.0433
H23A H 0.2742 1.3813 -0.0433
H23D H 0.3813 1.2742 0.0433
H23B H -0.3813 0.8929 -0.0433
H23C H -0.2742 1.1071 0.0433
H24E H -0.0155 0.6664 0.0554
H24A H 0.3181 1.3336 -0.0554
H24D H 0.3336 1.3181 0.0554
H24B H -0.3336 0.9845 -0.0554
H24C H -0.3181 1.0155 0.0554
C25K C 0.2613(5) 0.0677(6) 0.16758(16)
C25A C -0.1398(4) -0.7344(6) 0.16575(16)
C25J C -0.0677(6) -0.8065(4) 0.16758(16)
C25B C 0.7344(6) -0.4054(5) 0.16575(16)
C25I C 0.8065(4) -0.2613(5) 0.16758(16)
H25K H 0.2110 0.0683 0.1686
H25J H -0.0683 -0.8574 0.1686
H25A H -0.1907 -0.7350 0.1647
H25I H 0.8574 -0.2110 0.1686
H25B H 0.7350 -0.4557 0.1647
C26K C 0.2586(4) -0.0081(6) 0.16706(15)
C26A C -0.0667(4) -0.6586(6) 0.16627(15)
C26J C 0.0081(6) -0.7334(4) 0.16706(15)
C26B C 0.6586(6) -0.4081(4) 0.16627(15)
C26I C 0.7334(4) -0.2586(4) 0.16706(15)
H26K H 0.2071 -0.0580 0.1669
H26J H 0.0580 -0.7350 0.1669
H26A H -0.0683 -0.6087 0.1664
H26I H 0.7350 -0.2071 0.1669
H26B H 0.6087 -0.4596 0.1664
C27A C 0.0100(5) -0.6567(5) 0.1667
C27B C 0.6567(5) -0.3333 0.1667
C28A C 0.0914(4) -0.5753(4) 0.1667
C28B C 0.5753(4) -0.3333 0.1667
C29K C 0.3706(3) -0.1111(4) 0.14447(11)
C29A C 0.1483(3) -0.5556(4) 0.18886(11)
C29J C 0.1111(4) -0.5184(3) 0.14447(11)
C29B C 0.5556(4) -0.2961(3) 0.18886(11)
C29I C 0.5184(3) -0.3706(3) 0.14447(11)
C30K C 0.3741(3) -0.1855(4) 0.14511(12)
C30A C 0.2262(3) -0.4812(4) 0.18822(12)
C30J C 0.1855(4) -0.4405(3) 0.14511(12)
C30B C 0.4812(4) -0.2926(3) 0.18822(12)
C30I C 0.4405(3) -0.3741(3) 0.14511(12)
C31A C 0.2454(4) -0.4213(4) 0.1667
C31B C 0.4213(4) -0.3333 0.1667
C32K C 0.4171(4) -0.2024(6) 0.12151(13)
C32J C 0.2024(6) -0.3806(4) 0.12151(13)
C32A C 0.2861(4) -0.4643(6) 0.21182(13)
C32I C 0.3806(4) -0.4171(4) 0.12151(13)
C32B C 0.4643(6) -0.2496(4) 0.21182(13)
H27K H 0.4412 -0.1549 0.1091
H27J H 0.1549 -0.4040 0.1091
H27A H 0.2627 -0.5118 0.2242
H27I H 0.4040 -0.4412 0.1091
H27B H 0.5118 -0.2255 0.2242
H28K H 0.3768 -0.2516 0.1116
H28J H 0.2516 -0.3717 0.1116
H28A H 0.2950 -0.4151 0.2217
H28I H 0.3717 -0.3768 0.1116
H28B H 0.4151 -0.2899 0.2217
H29K H 0.4609 -0.2113 0.1286
H29J H 0.2113 -0.3279 0.1286
H29A H 0.3388 -0.4554 0.2047
H29I H 0.3279 -0.4609 0.1286
H29B H 0.4554 -0.2058 0.2047
C33K C 0.4022(4) -0.0551(6) 0.11978(13)
C33J C 0.0551(6) -0.5428(4) 0.11978(13)
C33A C 0.1239(4) -0.6116(6) 0.21355(13)
C33I C 0.5428(4) -0.4022(4) 0.11978(13)
C33B C 0.6116(6) -0.2645(4) 0.21355(13)
H30K H 0.3954 -0.0070 0.1226
H30J H 0.0070 -0.5977 0.1226
H30A H 0.0690 -0.6597 0.2107
H30I H 0.5977 -0.3954 0.1226
H30B H 0.6597 -0.2713 0.2107
H31K H 0.3710 -0.0853 0.1036
H31J H 0.0853 -0.5438 0.1036
H31A H 0.1229 -0.5814 0.2297
H31I H 0.5438 -0.3710 0.1036
H31B H 0.5814 -0.2957 0.2297
H32K H 0.4608 -0.0366 0.1170
H32J H 0.0366 -0.5027 0.1170
H32A H 0.1640 -0.6301 0.2163
H32I H 0.5027 -0.4608 0.1170
H32B H 0.6301 -0.2059 0.2163
O1 O 0.5863(4) 0.2936(4) 0.19694(13)
O2 O 0.3333(4) -0.3333(4) -0.04456(13)
loop_
_geom_bond_atom_site_label_1
_geom_bond_atom_site_label_2
_geom_bond_site_symmetry_1
_geom_bond_site_symmetry_2
Cd1 I1 1_555 1_555
Cd2 I2 1_555 1_555
B1 C9 1_555 1_555
B2 C31 1_555 1_555
N1 Cd1 1_555 1_555
N2 Cd1 1_555 1_555
N3 Cd2 1_555 1_555
C1 N1 1_555 1_555
H1 C1 1_555 1_555
C2 C1 1_555 1_555
H2 C2 1_555 1_555
C3 C2 1_555 1_555
C4 C3 1_555 1_555
H3 C4 1_555 1_555
C5 N1 1_555 1_555
H4 C5 1_555 1_555
C6 C3 1_555 1_555
C7 C6 1_555 1_555
C8 C7 1_555 1_555
C9 C8 1_555 1_555
C10 C9 1_555 1_555
C11 C6 1_555 1_555
C12 C11 1_555 1_555
H5 C12 1_555 1_555
H6 C12 1_555 1_555
H7 C12 1_555 1_555
C13 C10 1_555 1_555
H8 C13 1_555 1_555
H9 C13 1_555 1_555
H10 C13 1_555 1_555
C14 C8 1_555 1_555
H11 C14 1_555 1_555
H12 C14 1_555 1_555
H13 C14 1_555 1_555
C15 C7 1_555 1_555
H14 C15 1_555 1_555
H15 C15 1_555 1_555
H16 C15 1_555 1_555
C16 N3 1_555 1_555
H17 C16 1_555 1_555
C17 C16 1_555 1_555
H18 C17 1_555 1_555
C18 C17 1_555 1_555
C19 C18 1_555 1_555
C20 C19 1_555 1_555
C21 C20 1_555 1_555
C22 B1 1_555 1_555
C23 C21 1_555 1_555
H19 C23 1_555 1_555
H20 C23 1_555 1_555
H21 C23 1_555 1_555
C24 C20 1_555 1_555
H22 C24 1_555 1_555
H23 C24 1_555 1_555
H24 C24 1_555 1_555
C25 N2 1_555 1_555
H25 C25 1_555 1_555
C26 C25 1_555 1_555
H26 C26 1_555 1_555
C27 C26 1_555 1_555
C28 C27 1_555 1_555
C29 C28 1_555 1_555
C30 C29 1_555 1_555
C31 C30 1_555 1_555
C32 C30 1_555 1_555
H27 C32 1_555 1_555
H28 C32 1_555 1_555
H29 C32 1_555 1_555
C33 C29 1_555 1_555
H30 C33 1_555 1_555
H31 C33 1_555 1_555
H32 C33 1_555 1_555
Cd1E N1E 1_555 1_555
Cd1A N1A 1_555 1_555
Cd1D I1D 1_555 1_555
Cd1B I1B 1_555 1_555
Cd1C N1C 1_555 1_555
Cd1A_2 N2A 1_555 1_555
Cd1B_2 N2B 1_555 1_555
I1K Cd1 1_555 1_555
I1M Cd1D 1_555 1_555
I1I Cd1B 1_555 1_555
I2C Cd2 1_555 1_555
B1A C9A 1_555 1_555
B1B C9B 1_555 1_555
N1E C1E 1_555 1_555
N1A C1A 1_555 1_555
N1D Cd1D 1_555 1_555
N1B Cd1B 1_555 1_555
N1C C1C 1_555 1_555
N1K Cd1 1_555 1_555
N1M Cd1D 1_555 1_555
N1I Cd1B 1_555 1_555
N2A C25A 1_555 1_555
N2B C25B 1_555 1_555
N2D Cd1D 1_555 1_555
N2B_2 Cd1B 1_555 1_555
N3A Cd2 1_555 1_555
N3B Cd2 1_555 1_555
C1E H1E 1_555 1_555
C1A H1A 1_555 1_555
C1D N1D 1_555 1_555
C1B N1B 1_555 1_555
C1C H1C 1_555 1_555
H1D C1D 1_555 1_555
H1B C1B 1_555 1_555
C2E C1E 1_555 1_555
C2A C1A 1_555 1_555
C2D C1D 1_555 1_555
C2B C1B 1_555 1_555
C2C C1C 1_555 1_555
H2E C2E 1_555 1_555
H2A C2A 1_555 1_555
H2D C2D 1_555 1_555
H2B C2B 1_555 1_555
H2C C2C 1_555 1_555
C3E C2E 1_555 1_555
C3A C2A 1_555 1_555
C3D C2D 1_555 1_555
C3B C2B 1_555 1_555
C3C C2C 1_555 1_555
C4E C3E 1_555 1_555
C4A C3A 1_555 1_555
C4D C3D 1_555 1_555
C4B C3B 1_555 1_555
C4C C3C 1_555 1_555
H3E C4E 1_555 1_555
H3A C4A 1_555 1_555
H3D C4D 1_555 1_555
H3B C4B 1_555 1_555
H3C C4C 1_555 1_555
C5E N1E 1_555 1_555
C5A N1A 1_555 1_555
C5D N1D 1_555 1_555
C5B N1B 1_555 1_555
C5C N1C 1_555 1_555
H4E C5E 1_555 1_555
H4A C5A 1_555 1_555
H4D C5D 1_555 1_555
H4B C5B 1_555 1_555
H4C C5C 1_555 1_555
C6E C3E 1_555 1_555
C6A C3A 1_555 1_555
C6D C3D 1_555 1_555
C6B C3B 1_555 1_555
C6C C3C 1_555 1_555
C7E C6E 1_555 1_555
C7A C6A 1_555 1_555
C7D C6D 1_555 1_555
C7B C6B 1_555 1_555
C7C C6C 1_555 1_555
C8E C7E 1_555 1_555
C8A C7A 1_555 1_555
C8D C7D 1_555 1_555
C8B C7B 1_555 1_555
C8C C7C 1_555 1_555
C9E B1 1_555 1_555
C9A C8A 1_555 1_555
C9D B1A 1_555 1_555
C9B C8B 1_555 1_555
C9C B1B 1_555 1_555
C10E C9E 1_555 1_555
C10A C9A 1_555 1_555
C10D C9D 1_555 1_555
C10B C9B 1_555 1_555
C10C C9C 1_555 1_555
C11E C6E 1_555 1_555
C11A C6A 1_555 1_555
C11D C6D 1_555 1_555
C11B C6B 1_555 1_555
C11C C6C 1_555 1_555
C12E C11E 1_555 1_555
C12A C11A 1_555 1_555
C12D C11D 1_555 1_555
C12B C11B 1_555 1_555
C12C C11C 1_555 1_555
H5E C12E 1_555 1_555
H5A C12A 1_555 1_555
H5D C12D 1_555 1_555
H5B C12B 1_555 1_555
H5C C12C 1_555 1_555
H6E C12E 1_555 1_555
H6A C12A 1_555 1_555
H6D C12D 1_555 1_555
H6B C12B 1_555 1_555
H6C C12C 1_555 1_555
H7E C12E 1_555 1_555
H7A C12A 1_555 1_555
H7D C12D 1_555 1_555
H7B C12B 1_555 1_555
H7C C12C 1_555 1_555
C13E C10E 1_555 1_555
C13A C10A 1_555 1_555
C13D C10D 1_555 1_555
C13B C10B 1_555 1_555
C13C C10C 1_555 1_555
H8E C13E 1_555 1_555
H8A C13A 1_555 1_555
H8D C13D 1_555 1_555
H8B C13B 1_555 1_555
H8C C13C 1_555 1_555
H9E C13E 1_555 1_555
H9A C13A 1_555 1_555
H9D C13D 1_555 1_555
H9B C13B 1_555 1_555
H9C C13C 1_555 1_555
H10E C13E 1_555 1_555
H10A C13A 1_555 1_555
H10D C13D 1_555 1_555
H10B C13B 1_555 1_555
H10C C13C 1_555 1_555
C14E C8E 1_555 1_555
C14A C8A 1_555 1_555
C14D C8D 1_555 1_555
C14B C8B 1_555 1_555
C14C C8C 1_555 1_555
H11E C14E 1_555 1_555
H11A C14A 1_555 1_555
H11D C14D 1_555 1_555
H11B C14B 1_555 1_555
H11C C14C 1_555 1_555
H12E C14E 1_555 1_555
H12A C14A 1_555 1_555
H12D C14D 1_555 1_555
H12B C14B 1_555 1_555
H12C C14C 1_555 1_555
H13E C14E 1_555 1_555
H13A C14A 1_555 1_555
H13D C14D 1_555 1_555
H13B C14B 1_555 1_555
H13C C14C 1_555 1_555
C15E C7E 1_555 1_555
C15A C7A 1_555 1_555
C15D C7D 1_555 1_555
C15B C7B 1_555 1_555
C15C C7C 1_555 1_555
H14E C15E 1_555 1_555
H14A C15A 1_555 1_555
H14D C15D 1_555 1_555
H14B C15B 1_555 1_555
H14C C15C 1_555 1_555
H15E C15E 1_555 1_555
H15A C15A 1_555 1_555
H15D C15D 1_555 1_555
H15B C15B 1_555 1_555
H15C C15C 1_555 1_555
H16E C15E 1_555 1_555
H16A C15A 1_555 1_555
H16D C15D 1_555 1_555
H16B C15B 1_555 1_555
H16C C15C 1_555 1_555
C16E N3 1_555 1_555
C16A N3A 1_555 1_555
C16D N3A 1_555 1_555
C16B N3B 1_555 1_555
C16C N3B 1_555 1_555
H17E C16E 1_555 1_555
H17A C16A 1_555 1_555
H17D C16D 1_555 1_555
H17B C16B 1_555 1_555
H17C C16C 1_555 1_555
C17E C18 1_555 1_555
C17A C16A 1_555 1_555
C17D C16D 1_555 1_555
C17B C16B 1_555 1_555
C17C C16C 1_555 1_555
H18E C17E 1_555 1_555
H18A C17A 1_555 1_555
H18D C17D 1_555 1_555
H18B C17B 1_555 1_555
H18C C17C 1_555 1_555
C18A C17A 1_555 1_555
C18B C17B 1_555 1_555
C19A C18A 1_555 1_555
C19B C18B 1_555 1_555
C20E C19 1_555 1_555
C20A C19A 1_555 1_555
C20D C19A 1_555 1_555
C20B C19B 1_555 1_555
C20C C19B 1_555 1_555
C21E C22 1_555 1_555
C21A C20A 1_555 1_555
C21D C20D 1_555 1_555
C21B C20B 1_555 1_555
C21C C20C 1_555 1_555
C22A B1A 1_555 1_555
C22B B1B 1_555 1_555
C23E C21E 1_555 1_555
C23A C21A 1_555 1_555
C23D C21D 1_555 1_555
C23B C21B 1_555 1_555
C23C C21C 1_555 1_555
H19E C23E 1_555 1_555
H19A C23A 1_555 1_555
H19D C23D 1_555 1_555
H19B C23B 1_555 1_555
H19C C23C 1_555 1_555
H20E C23E 1_555 1_555
H20A C23A 1_555 1_555
H20D C23D 1_555 1_555
H20B C23B 1_555 1_555
H20C C23C 1_555 1_555
H21E C23E 1_555 1_555
H21A C23A 1_555 1_555
H21D C23D 1_555 1_555
H21B C23B 1_555 1_555
H21C C23C 1_555 1_555
C24E C20E 1_555 1_555
C24A C20A 1_555 1_555
C24D C20D 1_555 1_555
C24B C20B 1_555 1_555
C24C C20C 1_555 1_555
H22E C24E 1_555 1_555
H22A C24A 1_555 1_555
H22D C24D 1_555 1_555
H22B C24B 1_555 1_555
H22C C24C 1_555 1_555
H23E C24E 1_555 1_555
H23A C24A 1_555 1_555
H23D C24D 1_555 1_555
H23B C24B 1_555 1_555
H23C C24C 1_555 1_555
H24E C24E 1_555 1_555
H24A C24A 1_555 1_555
H24D C24D 1_555 1_555
H24B C24B 1_555 1_555
H24C C24C 1_555 1_555
C25K N2 1_555 1_555
C25A H25A 1_555 1_555
C25J N2A 1_555 1_555
C25B H25B 1_555 1_555
C25I N2B 1_555 1_555
H25K C25K 1_555 1_555
H25J C25J 1_555 1_555
H25I C25I 1_555 1_555
C26K C27 1_555 1_555
C26A C25A 1_555 1_555
C26J C25J 1_555 1_555
C26B C25B 1_555 1_555
C26I C25I 1_555 1_555
H26K C26K 1_555 1_555
H26J C26J 1_555 1_555
H26A C26A 1_555 1_555
H26I C26I 1_555 1_555
H26B C26B 1_555 1_555
C27A C26A 1_555 1_555
C27B C26B 1_555 1_555
C28A C27A 1_555 1_555
C28B C27B 1_555 1_555
C29K C28 1_555 1_555
C29A C28A 1_555 1_555
C29J C28A 1_555 1_555
C29B C28B 1_555 1_555
C29I C28B 1_555 1_555
C30K C31 1_555 1_555
C30A C29A 1_555 1_555
C30J C29J 1_555 1_555
C30B C29B 1_555 1_555
C30I C29I 1_555 1_555
C31A B2 1_555 1_555
C31B B2 1_555 1_555
C32K C30K 1_555 1_555
C32J C30J 1_555 1_555
C32A C30A 1_555 1_555
C32I C30I 1_555 1_555
C32B C30B 1_555 1_555
H27K C32K 1_555 1_555
H27J C32J 1_555 1_555
H27A C32A 1_555 1_555
H27I C32I 1_555 1_555
H27B C32B 1_555 1_555
H28K C32K 1_555 1_555
H28J C32J 1_555 1_555
H28A C32A 1_555 1_555
H28I C32I 1_555 1_555
H28B C32B 1_555 1_555
H29K C32K 1_555 1_555
H29J C32J 1_555 1_555
H29A C32A 1_555 1_555
H29I C32I 1_555 1_555
H29B C32B 1_555 1_555
C33K C29K 1_555 1_555
C33J C29J 1_555 1_555
C33A C29A 1_555 1_555
C33I C29I 1_555 1_555
C33B C29B 1_555 1_555
H30K C33K 1_555 1_555
H30J C33J 1_555 1_555
H30A C33A 1_555 1_555
H30I C33I 1_555 1_555
H30B C33B 1_555 1_555
H31K C33K 1_555 1_555
H31J C33J 1_555 1_555
H31A C33A 1_555 1_555
H31I C33I 1_555 1_555
H31B C33B 1_555 1_555
H32K C33K 1_555 1_555
H32J C33J 1_555 1_555
H32A C33A 1_555 1_555
H32I C33I 1_555 1_555
H32B C33B 1_555 1_555
C4 C5 1_555 1_555
C10 C11 1_555 1_555
C21 C22 1_555 1_555
C4E C5E 1_555 1_555
C4A C5A 1_555 1_555
C4D C5D 1_555 1_555
C4B C5B 1_555 1_555
C4C C5C 1_555 1_555
C8E C9E 1_555 1_555
C8D C9D 1_555 1_555
C8C C9C 1_555 1_555
C10E C11E 1_555 1_555
C10A C11A 1_555 1_555
C10D C11D 1_555 1_555
C10B C11B 1_555 1_555
C10C C11C 1_555 1_555
C16E C17E 1_555 1_555
C17D C18A 1_555 1_555
C17C C18B 1_555 1_555
C20E C21E 1_555 1_555
C21A C22A 1_555 1_555
C21D C22A 1_555 1_555
C21B C22B 1_555 1_555
C21C C22B 1_555 1_555
C25K C26K 1_555 1_555
C26J C27A 1_555 1_555
C26I C27B 1_555 1_555
C29K C30K 1_555 1_555
C30A C31A 1_555 1_555
C30J C31A 1_555 1_555
C30B C31B 1_555 1_555
C30I C31B 1_555 1_555

#END
