
#######################################################################
#
#                 Cambridge Crystallographic Data Centre
#                                CCDC 
#
#######################################################################
#
# If this CIF has been generated from an entry in the Cambridge 
# Structural Database, then it will include bibliographic, chemical, 
# crystal, experimental, refinement or atomic coordinate data resulting 
# from the CCDC's data processing and validation procedures.
#
#######################################################################

data_SOBZIT
_symmetry_cell_setting           rhombohedral
_symmetry_space_group_name_H-M   'R 3 2'
_symmetry_Int_Tables_number      155
_space_group_name_Hall           'R 3 2"'
loop_
_symmetry_equiv_pos_site_id
_symmetry_equiv_pos_as_xyz
1 x,y,z
2 -y,x-y,z
3 -x+y,-x,z
4 y,x,-z
5 x-y,-y,-z
6 -x,-x+y,-z
7 2/3+x,1/3+y,1/3+z
8 2/3-y,1/3+x-y,1/3+z
9 2/3-x+y,1/3-x,1/3+z
10 2/3+y,1/3+x,1/3-z
11 2/3+x-y,1/3-y,1/3-z
12 2/3-x,1/3-x+y,1/3-z
13 1/3+x,2/3+y,2/3+z
14 1/3-y,2/3+x-y,2/3+z
15 1/3-x+y,2/3-x,2/3+z
16 1/3+y,2/3+x,2/3-z
17 1/3+x-y,2/3-y,2/3-z
18 1/3-x,2/3-x+y,2/3-z
_cell_length_a                   17.674(3)
_cell_length_b                   17.674(3)
_cell_length_c                   48.066(10)
_cell_angle_alpha                90
_cell_angle_beta                 90
_cell_angle_gamma                120
_cell_volume                     13002.8
loop_
_atom_site_label
_atom_site_type_symbol
_atom_site_fract_x
_atom_site_fract_y
_atom_site_fract_z
Co1 Co 0.3333 0.27608(5) 0.1667
Co2 Co 0.0000 1.0000 0.0000
Cl1 Cl 0.45394(13) 0.35293(11) 0.13536(4)
Cl2 Cl 0.0000 1.0000 0.05133(5)
B1 B 0.0000 0.3937(5) 0.0000
B2 B 0.3333 -0.3333 0.1667
N1 N 0.2547(3) 0.2808(3) 0.13597(10)
N2 N 0.3333 0.1602(3) 0.1667
N3 N 0.0000 0.8852(3) 0.0000
C1 C 0.2281(6) 0.2316(5) 0.11215(14)
H1 H 0.2391 0.1856 0.1104
C2 C 0.1871(5) 0.2465(4) 0.09118(14)
H2 H 0.1708 0.2110 0.0755
C3 C 0.1686(3) 0.3148(3) 0.09262(12)
C4 C 0.1932(4) 0.3624(4) 0.11647(11)
H3 H 0.1820 0.4083 0.1185
C5 C 0.2344(4) 0.3443(4) 0.13777(13)
H4 H 0.2486 0.3774 0.1540
C6 C 0.1255(3) 0.3343(3) 0.06973(11)
C7 C 0.1749(3) 0.4117(3) 0.05362(10)
C8 C 0.1355(3) 0.4312(3) 0.03159(11)
C9 C 0.0456(3) 0.3719(3) 0.02473(11)
C10 C -0.0002(3) 0.2967(3) 0.04107(12)
C11 C 0.0375(4) 0.2783(3) 0.06375(11)
C12 C 0.2723(4) 0.4704(4) 0.05856(12)
H5 H 0.2947 0.5194 0.0461
H6 H 0.3018 0.4380 0.0552
H7 H 0.2821 0.4909 0.0774
C13 C 0.1902(4) 0.5115(4) 0.01475(13)
H8 H 0.2479 0.5427 0.0225
H9 H 0.1644 0.5481 0.0150
H10 H 0.1933 0.4952 -0.0041
C14 C -0.0978(4) 0.2323(4) 0.03613(13)
H11 H -0.1180 0.1853 0.0493
H12 H -0.1060 0.2093 0.0176
H13 H -0.1303 0.2621 0.0384
C15 C -0.0164(4) 0.2005(4) 0.08216(12)
H14 H -0.0752 0.1690 0.0753
H15 H -0.0166 0.2201 0.1008
H16 H 0.0082 0.1629 0.0822
C16 C 0.0000 0.4830(4) 0.0000
C17 C -0.0292(3) 0.5094(3) 0.02334(11)
C18 C -0.0296(3) 0.5891(3) 0.02356(11)
C19 C -0.0653(4) 0.4525(4) 0.04857(12)
H17 H -0.0626 0.4001 0.0460
H18 H -0.1250 0.4377 0.0513
H19 H -0.0315 0.4833 0.0646
C20 C -0.0635(4) 0.6139(4) 0.04887(13)
H20 H -0.0582 0.6701 0.0459
H21 H -0.0300 0.6163 0.0649
H22 H -0.1238 0.5710 0.0518
C21 C 0.0000 0.6421(4) 0.0000
C22 C 0.0000 0.7275(4) 0.0000
C23 C 0.0627(4) 0.7994(4) 0.01402(13)
H23 H 0.1067 0.7961 0.0236
C24 C 0.0609(3) 0.8768(3) 0.01403(12)
H24 H 0.1030 0.9242 0.0240
C25 C 0.2587(4) 0.0831(3) 0.16590(12)
H25 H 0.2060 0.0830 0.1657
C26 C 0.2566(3) 0.0043(3) 0.16539(12)
H26 H 0.2033 -0.0474 0.1642
C27 C 0.3333 0.0018(4) 0.1667
C28 C 0.3333 -0.0826(4) 0.1667
C29 C 0.3730(3) -0.1017(3) 0.14456(10)
C30 C 0.3752(3) -0.1807(3) 0.14535(10)
C31 C 0.4089(3) -0.0420(3) 0.11963(11)
H27 H 0.4025 0.0083 0.1224
H28 H 0.3774 -0.0727 0.1033
H29 H 0.4697 -0.0237 0.1174
C32 C 0.4183(3) -0.1974(3) 0.12096(12)
H30 H 0.4427 -0.1477 0.1088
H31 H 0.3758 -0.2480 0.1110
H32 H 0.4640 -0.2073 0.1275
C33 C 0.3333 -0.2431(4) 0.1667
Co1E Co -0.3333 -0.05722(5) -0.1667
Co1A Co 0.72392(5) 2.05722(5) 0.1667
Co1D Co 1.05722(5) 1.72392(5) -0.1667
Co1B Co -1.05722(5) 0.6667 0.1667
Co1C Co -0.72392(5) 1.3333 -0.1667
Co1A_2 Co -0.27608(5) -0.94278(5) 0.1667
Co1B_2 Co 0.94278(5) -0.3333 0.1667
Cl1K Cl 0.21273(13) 0.23232(17) 0.19797(4)
Cl1D Cl 1.10101(17) 1.64707(11) -0.13536(4)
Cl1M Cl 0.98040(11) 1.76768(17) -0.19797(4)
Cl1B Cl -1.10101(17) 0.54606(13) 0.13536(4)
Cl1I Cl -0.98040(11) 0.78727(13) 0.19797(4)
Cl2C Cl 0.0000 1.0000 -0.05133(5)
B1A B 0.6063(5) 1.6063(5) 0.0000
B1B B -0.6063(5) 1.0000 0.0000
N1E N -0.2547(3) 0.0261(4) -0.13597(10)
N1A N 0.7192(3) 1.9739(4) 0.13597(10)
N1D N 0.9739(4) 1.7192(3) -0.13597(10)
N1B N -0.9739(4) 0.7453(3) 0.13597(10)
N1C N -0.7192(3) 1.2547(3) -0.13597(10)
N1K N 0.4120(3) 0.3594(4) 0.19736(10)
N1M N 1.0525(3) 1.6406(4) -0.19736(10)
N1I N -1.0525(3) 0.5880(3) 0.19736(10)
N2A N -0.1602(3) -0.8269(3) 0.1667
N2B N 0.8269(3) -0.3333 0.1667
N2D N 1.1731(3) 1.8398(3) -0.1667
N2B_2 N -1.1731(3) 0.6667 0.1667
N3A N 0.1148(3) 1.1148(3) 0.0000
N3B N -0.1148(3) 1.0000 0.0000
C1E C -0.2281(6) 0.0035(8) -0.11215(14)
C1A C 0.7684(5) 1.9965(8) 0.11215(14)
C1D C 0.9965(8) 1.7684(5) -0.11215(14)
C1B C -0.9965(8) 0.7719(6) 0.11215(14)
C1C C -0.7684(5) 1.2281(6) -0.11215(14)
H1E H -0.2391 -0.0535 -0.1104
H1A H 0.8144 2.0535 0.1104
H1D H 1.0535 1.8144 -0.1104
H1B H -1.0535 0.7609 0.1104
H1C H -0.8144 1.2391 -0.1104
C2E C -0.1871(5) 0.0594(6) -0.09118(14)
C2A C 0.7535(4) 1.9406(6) 0.09118(14)
C2D C 0.9406(6) 1.7535(4) -0.09118(14)
C2B C -0.9406(6) 0.8129(5) 0.09118(14)
C2C C -0.7535(4) 1.1871(5) -0.09118(14)
H2E H -0.1708 0.0402 -0.0755
H2A H 0.7890 1.9598 0.0755
H2D H 0.9598 1.7890 -0.0755
H2B H -0.9598 0.8292 0.0755
H2C H -0.7890 1.1708 -0.0755
C3E C -0.1686(3) 0.1462(4) -0.09262(12)
C3A C 0.6852(3) 1.8538(4) 0.09262(12)
C3D C 0.8538(4) 1.6852(3) -0.09262(12)
C3B C -0.8538(4) 0.8314(3) 0.09262(12)
C3C C -0.6852(3) 1.1686(3) -0.09262(12)
C4E C -0.1932(4) 0.1692(6) -0.11647(11)
C4A C 0.6376(4) 1.8308(6) 0.11647(11)
C4D C 0.8308(6) 1.6376(4) -0.11647(11)
C4B C -0.8308(6) 0.8068(4) 0.11647(11)
C4C C -0.6376(4) 1.1932(4) -0.11647(11)
H3E H -0.1820 0.2263 -0.1185
H3A H 0.5917 1.7737 0.1185
H3D H 0.7737 1.5917 -0.1185
H3B H -0.7737 0.8180 0.1185
H3C H -0.5917 1.1820 -0.1185
C5E C -0.2344(4) 0.1099(6) -0.13777(13)
C5A C 0.6557(4) 1.8901(6) 0.13777(13)
C5D C 0.8901(6) 1.6557(4) -0.13777(13)
C5B C -0.8901(6) 0.7656(4) 0.13777(13)
C5C C -0.6557(4) 1.2344(4) -0.13777(13)
H4E H -0.2486 0.1288 -0.1540
H4A H 0.6226 1.8712 0.1540
H4D H 0.8712 1.6226 -0.1540
H4B H -0.8712 0.7514 0.1540
H4C H -0.6226 1.2486 -0.1540
C6E C -0.1255(3) 0.2088(4) -0.06973(11)
C6A C 0.6657(3) 1.7912(4) 0.06973(11)
C6D C 0.7912(4) 1.6657(3) -0.06973(11)
C6B C -0.7912(4) 0.8745(3) 0.06973(11)
C6C C -0.6657(3) 1.1255(3) -0.06973(11)
C7E C -0.1749(3) 0.2368(4) -0.05362(10)
C7A C 0.5883(3) 1.7632(4) 0.05362(10)
C7D C 0.7632(4) 1.5883(3) -0.05362(10)
C7B C -0.7632(4) 0.8251(3) 0.05362(10)
C7C C -0.5883(3) 1.1749(3) -0.05362(10)
C8E C -0.1355(3) 0.2957(4) -0.03159(11)
C8A C 0.5688(3) 1.7043(4) 0.03159(11)
C8D C 0.7043(4) 1.5688(3) -0.03159(11)
C8B C -0.7043(4) 0.8645(3) 0.03159(11)
C8C C -0.5688(3) 1.1355(3) -0.03159(11)
C9E C -0.0456(3) 0.3263(4) -0.02473(11)
C9A C 0.6281(3) 1.6737(4) 0.02473(11)
C9D C 0.6737(4) 1.6281(3) -0.02473(11)
C9B C -0.6737(4) 0.9544(3) 0.02473(11)
C9C C -0.6281(3) 1.0456(3) -0.02473(11)
C10E C 0.0002(3) 0.2969(4) -0.04107(12)
C10A C 0.7033(3) 1.7031(4) 0.04107(12)
C10D C 0.7031(4) 1.7033(3) -0.04107(12)
C10B C -0.7031(4) 1.0002(3) 0.04107(12)
C10C C -0.7033(3) 0.9998(3) -0.04107(12)
C11E C -0.0375(4) 0.2408(5) -0.06375(11)
C11A C 0.7217(3) 1.7592(5) 0.06375(11)
C11D C 0.7592(5) 1.7217(3) -0.06375(11)
C11B C -0.7592(5) 0.9625(4) 0.06375(11)
C11C C -0.7217(3) 1.0375(4) -0.06375(11)
C12E C -0.2723(4) 0.1981(6) -0.05856(12)
C12A C 0.5296(4) 1.8019(6) 0.05856(12)
C12D C 0.8019(6) 1.5296(4) -0.05856(12)
C12B C -0.8019(6) 0.7277(4) 0.05856(12)
C12C C -0.5296(4) 1.2723(4) -0.05856(12)
H5E H -0.2947 0.2247 -0.0461
H5A H 0.4806 1.7753 0.0461
H5D H 0.7753 1.4806 -0.0461
H5B H -0.7753 0.7053 0.0461
H5C H -0.4806 1.2947 -0.0461
H6E H -0.3018 0.1362 -0.0552
H6A H 0.5620 1.8638 0.0552
H6D H 0.8638 1.5620 -0.0552
H6B H -0.8638 0.6982 0.0552
H6C H -0.5620 1.3018 -0.0552
H7E H -0.2821 0.2088 -0.0774
H7A H 0.5091 1.7912 0.0774
H7D H 0.7912 1.5091 -0.0774
H7B H -0.7912 0.7179 0.0774
H7C H -0.5091 1.2821 -0.0774
C13E C -0.1902(4) 0.3213(6) -0.01475(13)
C13A C 0.4885(4) 1.6787(6) 0.01475(13)
C13D C 0.6787(6) 1.4885(4) -0.01475(13)
C13B C -0.6787(6) 0.8098(4) 0.01475(13)
C13C C -0.4885(4) 1.1902(4) -0.01475(13)
H8E H -0.2479 0.2948 -0.0225
H8A H 0.4573 1.7052 0.0225
H8D H 0.7052 1.4573 -0.0225
H8B H -0.7052 0.7521 0.0225
H8C H -0.4573 1.2479 -0.0225
H9E H -0.1644 0.3837 -0.0150
H9A H 0.4519 1.6163 0.0150
H9D H 0.6163 1.4519 -0.0150
H9B H -0.6163 0.8356 0.0150
H9C H -0.4519 1.1644 -0.0150
H10E H -0.1933 0.3019 0.0041
H10A H 0.5048 1.6981 -0.0041
H10D H 0.6981 1.5048 0.0041
H10B H -0.6981 0.8067 -0.0041
H10C H -0.5048 1.1933 0.0041
C14E C 0.0978(4) 0.3301(6) -0.03613(13)
C14A C 0.7677(4) 1.6699(6) 0.03613(13)
C14D C 0.6699(6) 1.7677(4) -0.03613(13)
C14B C -0.6699(6) 1.0978(4) 0.03613(13)
C14C C -0.7677(4) 0.9022(4) -0.03613(13)
H11E H 0.1180 0.3033 -0.0493
H11A H 0.8147 1.6967 0.0493
H11D H 0.6967 1.8147 -0.0493
H11B H -0.6967 1.1180 0.0493
H11C H -0.8147 0.8820 -0.0493
H12E H 0.1060 0.3153 -0.0176
H12A H 0.7907 1.6847 0.0176
H12D H 0.6847 1.7907 -0.0176
H12B H -0.6847 1.1060 0.0176
H12C H -0.7907 0.8940 -0.0176
H13E H 0.1303 0.3924 -0.0384
H13A H 0.7379 1.6076 0.0384
H13D H 0.6076 1.7379 -0.0384
H13B H -0.6076 1.1303 0.0384
H13C H -0.7379 0.8697 -0.0384
C15E C 0.0164(4) 0.2169(6) -0.08216(12)
C15A C 0.7995(4) 1.7831(6) 0.08216(12)
C15D C 0.7831(6) 1.7995(4) -0.08216(12)
C15B C -0.7831(6) 1.0164(4) 0.08216(12)
C15C C -0.7995(4) 0.9836(4) -0.08216(12)
H14E H 0.0752 0.2442 -0.0753
H14A H 0.8310 1.7558 0.0753
H14D H 0.7558 1.8310 -0.0753
H14B H -0.7558 1.0752 0.0753
H14C H -0.8310 0.9248 -0.0753
H15E H 0.0166 0.2367 -0.1008
H15A H 0.7799 1.7633 0.1008
H15D H 0.7633 1.7799 -0.1008
H15B H -0.7633 1.0166 0.1008
H15C H -0.7799 0.9834 -0.1008
H16E H -0.0082 0.1547 -0.0822
H16A H 0.8371 1.8453 0.0822
H16D H 0.8453 1.8371 -0.0822
H16B H -0.8453 0.9918 0.0822
H16C H -0.8371 1.0082 -0.0822
C16A C 0.5170(4) 1.5170(4) 0.0000
C16B C -0.5170(4) 1.0000 0.0000
C17E C 0.0292(3) 0.5386(4) -0.02334(11)
C17A C 0.4906(3) 1.4614(4) 0.02334(11)
C17D C 0.4614(4) 1.4906(3) -0.02334(11)
C17B C -0.4614(4) 1.0292(3) 0.02334(11)
C17C C -0.4906(3) 0.9708(3) -0.02334(11)
C18E C 0.0296(3) 0.6187(4) -0.02356(11)
C18A C 0.4109(3) 1.3813(4) 0.02356(11)
C18D C 0.3813(4) 1.4109(3) -0.02356(11)
C18B C -0.3813(4) 1.0296(3) 0.02356(11)
C18C C -0.4109(3) 0.9704(3) -0.02356(11)
C19E C 0.0653(4) 0.5178(6) -0.04857(12)
C19A C 0.5475(4) 1.4822(6) 0.04857(12)
C19D C 0.4822(6) 1.5475(4) -0.04857(12)
C19B C -0.4822(6) 1.0653(4) 0.04857(12)
C19C C -0.5475(4) 0.9347(4) -0.04857(12)
H17E H 0.0626 0.4627 -0.0460
H17A H 0.5999 1.5373 0.0460
H17D H 0.5373 1.5999 -0.0460
H17B H -0.5373 1.0626 0.0460
H17C H -0.5999 0.9374 -0.0460
H18E H 0.1250 0.5627 -0.0513
H18A H 0.5623 1.4373 0.0513
H18D H 0.4373 1.5623 -0.0513
H18B H -0.4373 1.1250 0.0513
H18C H -0.5623 0.8750 -0.0513
H19E H 0.0315 0.5148 -0.0646
H19A H 0.5167 1.4852 0.0646
H19D H 0.4852 1.5167 -0.0646
H19B H -0.4852 1.0315 0.0646
H19C H -0.5167 0.9685 -0.0646
C20E C 0.0635(4) 0.6774(6) -0.04887(13)
C20A C 0.3861(4) 1.3226(6) 0.04887(13)
C20D C 0.3226(6) 1.3861(4) -0.04887(13)
C20B C -0.3226(6) 1.0635(4) 0.04887(13)
C20C C -0.3861(4) 0.9365(4) -0.04887(13)
H20E H 0.0582 0.7283 -0.0459
H20A H 0.3299 1.2717 0.0459
H20D H 0.2717 1.3299 -0.0459
H20B H -0.2717 1.0582 0.0459
H20C H -0.3299 0.9418 -0.0459
H21E H 0.0300 0.6463 -0.0649
H21A H 0.3837 1.3537 0.0649
H21D H 0.3537 1.3837 -0.0649
H21B H -0.3537 1.0300 0.0649
H21C H -0.3837 0.9700 -0.0649
H22E H 0.1238 0.6948 -0.0518
H22A H 0.4290 1.3052 0.0518
H22D H 0.3052 1.4290 -0.0518
H22B H -0.3052 1.1238 0.0518
H22C H -0.4290 0.8762 -0.0518
C21A C 0.3579(4) 1.3579(4) 0.0000
C21B C -0.3579(4) 1.0000 0.0000
C22A C 0.2725(4) 1.2725(4) 0.0000
C22B C -0.2725(4) 1.0000 0.0000
C23E C -0.0627(4) 0.7367(6) -0.01402(13)
C23A C 0.2006(4) 1.2633(6) 0.01402(13)
C23D C 0.2633(6) 1.2006(4) -0.01402(13)
C23B C -0.2633(6) 0.9373(4) 0.01402(13)
C23C C -0.2006(4) 1.0627(4) -0.01402(13)
H23E H -0.1067 0.6894 -0.0236
H23A H 0.2039 1.3106 0.0236
H23D H 0.3106 1.2039 -0.0236
H23B H -0.3106 0.8933 0.0236
H23C H -0.2039 1.1067 -0.0236
C24E C -0.0609(3) 0.8159(4) -0.01403(12)
C24A C 0.1232(3) 1.1841(4) 0.01403(12)
C24D C 0.1841(4) 1.1232(3) -0.01403(12)
C24B C -0.1841(4) 0.9391(3) 0.01403(12)
C24C C -0.1232(3) 1.0609(3) -0.01403(12)
H24E H -0.1030 0.8212 -0.0240
H24A H 0.0758 1.1788 0.0240
H24D H 0.1788 1.0758 -0.0240
H24B H -0.1788 0.8970 0.0240
H24C H -0.0758 1.1030 -0.0240
C25K C 0.4080(4) 0.1577(5) 0.16743(12)
C25A C -0.0831(3) -0.8244(5) 0.16590(12)
C25J C -0.1577(5) -0.7498(3) 0.16743(12)
C25B C 0.8244(5) -0.2587(4) 0.16590(12)
C25I C 0.7498(3) -0.4080(4) 0.16743(12)
H25K H 0.4607 0.2103 0.1676
H25J H -0.2103 -0.7497 0.1676
H25A H -0.0830 -0.8770 0.1657
H25I H 0.7497 -0.4607 0.1676
H25B H 0.8770 -0.2060 0.1657
C26K C 0.4101(3) 0.0810(4) 0.16794(12)
C26A C -0.0043(3) -0.7477(4) 0.16539(12)
C26J C -0.0810(4) -0.6710(3) 0.16794(12)
C26B C 0.7477(4) -0.2566(3) 0.16539(12)
C26I C 0.6710(3) -0.4101(3) 0.16794(12)
H26K H 0.4634 0.0826 0.1691
H26J H -0.0826 -0.6193 0.1691
H26A H 0.0474 -0.7493 0.1642
H26I H 0.6193 -0.4634 0.1691
H26B H 0.7493 -0.2033 0.1642
C27A C -0.0018(4) -0.6685(4) 0.1667
C27B C 0.6685(4) -0.3333 0.1667
C28A C 0.0826(4) -0.5841(4) 0.1667
C28B C 0.5841(4) -0.3333 0.1667
C29K C 0.2937(3) -0.1414(4) 0.18877(10)
C29A C 0.1017(3) -0.5253(4) 0.14456(10)
C29J C 0.1414(4) -0.5650(3) 0.18877(10)
C29B C 0.5253(4) -0.3730(3) 0.14456(10)
C29I C 0.5650(3) -0.2937(3) 0.18877(10)
C30K C 0.2915(3) -0.2226(4) 0.18798(10)
C30A C 0.1807(3) -0.4441(4) 0.14535(10)
C30J C 0.2226(4) -0.4860(3) 0.18798(10)
C30B C 0.4441(4) -0.3752(3) 0.14535(10)
C30I C 0.4860(3) -0.2915(3) 0.18798(10)
C31K C 0.2578(3) -0.1176(4) 0.21370(11)
C31J C 0.1176(4) -0.6247(3) 0.21370(11)
C31A C 0.0420(3) -0.5491(4) 0.11963(11)
C31I C 0.6247(3) -0.2578(3) 0.21370(11)
C31B C 0.5491(4) -0.4089(3) 0.11963(11)
H27K H 0.2642 -0.0609 0.2109
H27J H 0.0609 -0.6750 0.2109
H27A H -0.0083 -0.6058 0.1224
H27I H 0.6750 -0.2642 0.2109
H27B H 0.6058 -0.4025 0.1224
H28K H 0.2893 -0.1168 0.2300
H28J H 0.1168 -0.5940 0.2300
H28A H 0.0727 -0.5499 0.1033
H28I H 0.5940 -0.2893 0.2300
H28B H 0.5499 -0.3774 0.1033
H29K H 0.1970 -0.1601 0.2159
H29J H 0.1601 -0.6430 0.2159
H29A H 0.0237 -0.5066 0.1174
H29I H 0.6430 -0.1970 0.2159
H29B H 0.5066 -0.4697 0.1174
C32K C 0.2484(3) -0.2824(4) 0.21237(12)
C32J C 0.2824(4) -0.4693(3) 0.21237(12)
C32A C 0.1974(3) -0.3843(4) 0.12096(12)
C32I C 0.4693(3) -0.2484(3) 0.21237(12)
C32B C 0.3843(4) -0.4183(3) 0.12096(12)
H30K H 0.2240 -0.2571 0.2245
H30J H 0.2571 -0.5190 0.2245
H30A H 0.1477 -0.4096 0.1088
H30I H 0.5190 -0.2240 0.2245
H30B H 0.4096 -0.4427 0.1088
H31K H 0.2909 -0.2905 0.2223
H31J H 0.2905 -0.4187 0.2223
H31A H 0.2480 -0.3762 0.1110
H31I H 0.4187 -0.2909 0.2223
H31B H 0.3762 -0.3758 0.1110
H32K H 0.2027 -0.3380 0.2058
H32J H 0.3380 -0.4594 0.2058
H32A H 0.2073 -0.3287 0.1275
H32I H 0.4594 -0.2027 0.2058
H32B H 0.3287 -0.4640 0.1275
C33A C 0.2431(4) -0.4236(4) 0.1667
C33B C 0.4236(4) -0.3333 0.1667
O1 O 0.4334(7) 0.1984(7) 0.0990(2)
C34 C 0.5223(9) 0.2184(9) 0.1007(3)
O2 O 0.0000 0.0000 0.1271(7)
O3 O -0.3333 0.3333 0.0481(10)
loop_
_geom_bond_atom_site_label_1
_geom_bond_atom_site_label_2
_geom_bond_site_symmetry_1
_geom_bond_site_symmetry_2
Co1 Cl1 1_555 1_555
Co2 Cl2 1_555 1_555
B1 C9 1_555 1_555
B2 C33 1_555 1_555
N1 Co1 1_555 1_555
N2 Co1 1_555 1_555
N3 Co2 1_555 1_555
C1 N1 1_555 1_555
H1 C1 1_555 1_555
C2 C1 1_555 1_555
H2 C2 1_555 1_555
C3 C2 1_555 1_555
C4 C3 1_555 1_555
H3 C4 1_555 1_555
C5 N1 1_555 1_555
H4 C5 1_555 1_555
C6 C3 1_555 1_555
C7 C6 1_555 1_555
C8 C7 1_555 1_555
C9 C8 1_555 1_555
C10 C9 1_555 1_555
C11 C6 1_555 1_555
C12 C7 1_555 1_555
H5 C12 1_555 1_555
H6 C12 1_555 1_555
H7 C12 1_555 1_555
C13 C8 1_555 1_555
H8 C13 1_555 1_555
H9 C13 1_555 1_555
H10 C13 1_555 1_555
C14 C10 1_555 1_555
H11 C14 1_555 1_555
H12 C14 1_555 1_555
H13 C14 1_555 1_555
C15 C11 1_555 1_555
H14 C15 1_555 1_555
H15 C15 1_555 1_555
H16 C15 1_555 1_555
C16 B1 1_555 1_555
C17 C16 1_555 1_555
C18 C17 1_555 1_555
C19 C17 1_555 1_555
H17 C19 1_555 1_555
H18 C19 1_555 1_555
H19 C19 1_555 1_555
C20 C18 1_555 1_555
H20 C20 1_555 1_555
H21 C20 1_555 1_555
H22 C20 1_555 1_555
C21 C18 1_555 1_555
C22 C21 1_555 1_555
C23 C22 1_555 1_555
H23 C23 1_555 1_555
C24 N3 1_555 1_555
H24 C24 1_555 1_555
C25 N2 1_555 1_555
H25 C25 1_555 1_555
C26 C25 1_555 1_555
H26 C26 1_555 1_555
C27 C26 1_555 1_555
C28 C27 1_555 1_555
C29 C28 1_555 1_555
C30 C29 1_555 1_555
C31 C29 1_555 1_555
H27 C31 1_555 1_555
H28 C31 1_555 1_555
H29 C31 1_555 1_555
C32 C30 1_555 1_555
H30 C32 1_555 1_555
H31 C32 1_555 1_555
H32 C32 1_555 1_555
C33 C30 1_555 1_555
O1 C34 1_555 1_555
Co1E N1E 1_555 1_555
Co1A N1A 1_555 1_555
Co1D Cl1D 1_555 1_555
Co1B Cl1B 1_555 1_555
Co1C N1C 1_555 1_555
Co1A_2 N2A 1_555 1_555
Co1B_2 N2B 1_555 1_555
Cl1K Co1 1_555 1_555
Cl1M Co1D 1_555 1_555
Cl1I Co1B 1_555 1_555
Cl2C Co2 1_555 1_555
B1A C9A 1_555 1_555
B1B C9B 1_555 1_555
N1E C1E 1_555 1_555
N1A C1A 1_555 1_555
N1D Co1D 1_555 1_555
N1B Co1B 1_555 1_555
N1C C1C 1_555 1_555
N1K Co1 1_555 1_555
N1M Co1D 1_555 1_555
N1I Co1B 1_555 1_555
N2A C25A 1_555 1_555
N2B C25B 1_555 1_555
N2D Co1D 1_555 1_555
N2B_2 Co1B 1_555 1_555
N3A Co2 1_555 1_555
N3B Co2 1_555 1_555
C1E H1E 1_555 1_555
C1A H1A 1_555 1_555
C1D N1D 1_555 1_555
C1B N1B 1_555 1_555
C1C H1C 1_555 1_555
H1D C1D 1_555 1_555
H1B C1B 1_555 1_555
C2E C1E 1_555 1_555
C2A C1A 1_555 1_555
C2D C1D 1_555 1_555
C2B C1B 1_555 1_555
C2C C1C 1_555 1_555
H2E C2E 1_555 1_555
H2A C2A 1_555 1_555
H2D C2D 1_555 1_555
H2B C2B 1_555 1_555
H2C C2C 1_555 1_555
C3E C2E 1_555 1_555
C3A C2A 1_555 1_555
C3D C2D 1_555 1_555
C3B C2B 1_555 1_555
C3C C2C 1_555 1_555
C4E C3E 1_555 1_555
C4A C3A 1_555 1_555
C4D C3D 1_555 1_555
C4B C3B 1_555 1_555
C4C C3C 1_555 1_555
H3E C4E 1_555 1_555
H3A C4A 1_555 1_555
H3D C4D 1_555 1_555
H3B C4B 1_555 1_555
H3C C4C 1_555 1_555
C5E N1E 1_555 1_555
C5A N1A 1_555 1_555
C5D N1D 1_555 1_555
C5B N1B 1_555 1_555
C5C N1C 1_555 1_555
H4E C5E 1_555 1_555
H4A C5A 1_555 1_555
H4D C5D 1_555 1_555
H4B C5B 1_555 1_555
H4C C5C 1_555 1_555
C6E C3E 1_555 1_555
C6A C3A 1_555 1_555
C6D C3D 1_555 1_555
C6B C3B 1_555 1_555
C6C C3C 1_555 1_555
C7E C6E 1_555 1_555
C7A C6A 1_555 1_555
C7D C6D 1_555 1_555
C7B C6B 1_555 1_555
C7C C6C 1_555 1_555
C8E C7E 1_555 1_555
C8A C7A 1_555 1_555
C8D C7D 1_555 1_555
C8B C7B 1_555 1_555
C8C C7C 1_555 1_555
C9E B1 1_555 1_555
C9A C8A 1_555 1_555
C9D B1A 1_555 1_555
C9B C8B 1_555 1_555
C9C B1B 1_555 1_555
C10E C9E 1_555 1_555
C10A C9A 1_555 1_555
C10D C9D 1_555 1_555
C10B C9B 1_555 1_555
C10C C9C 1_555 1_555
C11E C6E 1_555 1_555
C11A C6A 1_555 1_555
C11D C6D 1_555 1_555
C11B C6B 1_555 1_555
C11C C6C 1_555 1_555
C12E C7E 1_555 1_555
C12A C7A 1_555 1_555
C12D C7D 1_555 1_555
C12B C7B 1_555 1_555
C12C C7C 1_555 1_555
H5E C12E 1_555 1_555
H5A C12A 1_555 1_555
H5D C12D 1_555 1_555
H5B C12B 1_555 1_555
H5C C12C 1_555 1_555
H6E C12E 1_555 1_555
H6A C12A 1_555 1_555
H6D C12D 1_555 1_555
H6B C12B 1_555 1_555
H6C C12C 1_555 1_555
H7E C12E 1_555 1_555
H7A C12A 1_555 1_555
H7D C12D 1_555 1_555
H7B C12B 1_555 1_555
H7C C12C 1_555 1_555
C13E C8E 1_555 1_555
C13A C8A 1_555 1_555
C13D C8D 1_555 1_555
C13B C8B 1_555 1_555
C13C C8C 1_555 1_555
H8E C13E 1_555 1_555
H8A C13A 1_555 1_555
H8D C13D 1_555 1_555
H8B C13B 1_555 1_555
H8C C13C 1_555 1_555
H9E C13E 1_555 1_555
H9A C13A 1_555 1_555
H9D C13D 1_555 1_555
H9B C13B 1_555 1_555
H9C C13C 1_555 1_555
H10E C13E 1_555 1_555
H10A C13A 1_555 1_555
H10D C13D 1_555 1_555
H10B C13B 1_555 1_555
H10C C13C 1_555 1_555
C14E C10E 1_555 1_555
C14A C10A 1_555 1_555
C14D C10D 1_555 1_555
C14B C10B 1_555 1_555
C14C C10C 1_555 1_555
H11E C14E 1_555 1_555
H11A C14A 1_555 1_555
H11D C14D 1_555 1_555
H11B C14B 1_555 1_555
H11C C14C 1_555 1_555
H12E C14E 1_555 1_555
H12A C14A 1_555 1_555
H12D C14D 1_555 1_555
H12B C14B 1_555 1_555
H12C C14C 1_555 1_555
H13E C14E 1_555 1_555
H13A C14A 1_555 1_555
H13D C14D 1_555 1_555
H13B C14B 1_555 1_555
H13C C14C 1_555 1_555
C15E C11E 1_555 1_555
C15A C11A 1_555 1_555
C15D C11D 1_555 1_555
C15B C11B 1_555 1_555
C15C C11C 1_555 1_555
H14E C15E 1_555 1_555
H14A C15A 1_555 1_555
H14D C15D 1_555 1_555
H14B C15B 1_555 1_555
H14C C15C 1_555 1_555
H15E C15E 1_555 1_555
H15A C15A 1_555 1_555
H15D C15D 1_555 1_555
H15B C15B 1_555 1_555
H15C C15C 1_555 1_555
H16E C15E 1_555 1_555
H16A C15A 1_555 1_555
H16D C15D 1_555 1_555
H16B C15B 1_555 1_555
H16C C15C 1_555 1_555
C16A B1A 1_555 1_555
C16B B1B 1_555 1_555
C17E C16 1_555 1_555
C17A C16A 1_555 1_555
C17D C16A 1_555 1_555
C17B C16B 1_555 1_555
C17C C16B 1_555 1_555
C18E C21 1_555 1_555
C18A C17A 1_555 1_555
C18D C17D 1_555 1_555
C18B C17B 1_555 1_555
C18C C17C 1_555 1_555
C19E C17E 1_555 1_555
C19A C17A 1_555 1_555
C19D C17D 1_555 1_555
C19B C17B 1_555 1_555
C19C C17C 1_555 1_555
H17E C19E 1_555 1_555
H17A C19A 1_555 1_555
H17D C19D 1_555 1_555
H17B C19B 1_555 1_555
H17C C19C 1_555 1_555
H18E C19E 1_555 1_555
H18A C19A 1_555 1_555
H18D C19D 1_555 1_555
H18B C19B 1_555 1_555
H18C C19C 1_555 1_555
H19E C19E 1_555 1_555
H19A C19A 1_555 1_555
H19D C19D 1_555 1_555
H19B C19B 1_555 1_555
H19C C19C 1_555 1_555
C20E C18E 1_555 1_555
C20A C18A 1_555 1_555
C20D C18D 1_555 1_555
C20B C18B 1_555 1_555
C20C C18C 1_555 1_555
H20E C20E 1_555 1_555
H20A C20A 1_555 1_555
H20D C20D 1_555 1_555
H20B C20B 1_555 1_555
H20C C20C 1_555 1_555
H21E C20E 1_555 1_555
H21A C20A 1_555 1_555
H21D C20D 1_555 1_555
H21B C20B 1_555 1_555
H21C C20C 1_555 1_555
H22E C20E 1_555 1_555
H22A C20A 1_555 1_555
H22D C20D 1_555 1_555
H22B C20B 1_555 1_555
H22C C20C 1_555 1_555
C21A C18A 1_555 1_555
C21B C18B 1_555 1_555
C22A C21A 1_555 1_555
C22B C21B 1_555 1_555
C23E C22 1_555 1_555
C23A C22A 1_555 1_555
C23D C22A 1_555 1_555
C23B C22B 1_555 1_555
C23C C22B 1_555 1_555
H23E C23E 1_555 1_555
H23A C23A 1_555 1_555
H23D C23D 1_555 1_555
H23B C23B 1_555 1_555
H23C C23C 1_555 1_555
C24E N3 1_555 1_555
C24A N3A 1_555 1_555
C24D N3A 1_555 1_555
C24B N3B 1_555 1_555
C24C N3B 1_555 1_555
H24E C24E 1_555 1_555
H24A C24A 1_555 1_555
H24D C24D 1_555 1_555
H24B C24B 1_555 1_555
H24C C24C 1_555 1_555
C25K N2 1_555 1_555
C25A H25A 1_555 1_555
C25J N2A 1_555 1_555
C25B H25B 1_555 1_555
C25I N2B 1_555 1_555
H25K C25K 1_555 1_555
H25J C25J 1_555 1_555
H25I C25I 1_555 1_555
C26K C27 1_555 1_555
C26A C25A 1_555 1_555
C26J C25J 1_555 1_555
C26B C25B 1_555 1_555
C26I C25I 1_555 1_555
H26K C26K 1_555 1_555
H26J C26J 1_555 1_555
H26A C26A 1_555 1_555
H26I C26I 1_555 1_555
H26B C26B 1_555 1_555
C27A C26A 1_555 1_555
C27B C26B 1_555 1_555
C28A C27A 1_555 1_555
C28B C27B 1_555 1_555
C29K C28 1_555 1_555
C29A C28A 1_555 1_555
C29J C28A 1_555 1_555
C29B C28B 1_555 1_555
C29I C28B 1_555 1_555
C30K C33 1_555 1_555
C30A C29A 1_555 1_555
C30J C29J 1_555 1_555
C30B C29B 1_555 1_555
C30I C29I 1_555 1_555
C31K C29K 1_555 1_555
C31J C29J 1_555 1_555
C31A C29A 1_555 1_555
C31I C29I 1_555 1_555
C31B C29B 1_555 1_555
H27K C31K 1_555 1_555
H27J C31J 1_555 1_555
H27A C31A 1_555 1_555
H27I C31I 1_555 1_555
H27B C31B 1_555 1_555
H28K C31K 1_555 1_555
H28J C31J 1_555 1_555
H28A C31A 1_555 1_555
H28I C31I 1_555 1_555
H28B C31B 1_555 1_555
H29K C31K 1_555 1_555
H29J C31J 1_555 1_555
H29A C31A 1_555 1_555
H29I C31I 1_555 1_555
H29B C31B 1_555 1_555
C32K C30K 1_555 1_555
C32J C30J 1_555 1_555
C32A C30A 1_555 1_555
C32I C30I 1_555 1_555
C32B C30B 1_555 1_555
H30K C32K 1_555 1_555
H30J C32J 1_555 1_555
H30A C32A 1_555 1_555
H30I C32I 1_555 1_555
H30B C32B 1_555 1_555
H31K C32K 1_555 1_555
H31J C32J 1_555 1_555
H31A C32A 1_555 1_555
H31I C32I 1_555 1_555
H31B C32B 1_555 1_555
H32K C32K 1_555 1_555
H32J C32J 1_555 1_555
H32A C32A 1_555 1_555
H32I C32I 1_555 1_555
H32B C32B 1_555 1_555
C33A B2 1_555 1_555
C33B B2 1_555 1_555
C4 C5 1_555 1_555
C10 C11 1_555 1_555
C23 C24 1_555 1_555
C4E C5E 1_555 1_555
C4A C5A 1_555 1_555
C4D C5D 1_555 1_555
C4B C5B 1_555 1_555
C4C C5C 1_555 1_555
C8E C9E 1_555 1_555
C8D C9D 1_555 1_555
C8C C9C 1_555 1_555
C10E C11E 1_555 1_555
C10A C11A 1_555 1_555
C10D C11D 1_555 1_555
C10B C11B 1_555 1_555
C10C C11C 1_555 1_555
C17E C18E 1_555 1_555
C18D C21A 1_555 1_555
C18C C21B 1_555 1_555
C23E C24E 1_555 1_555
C23A C24A 1_555 1_555
C23D C24D 1_555 1_555
C23B C24B 1_555 1_555
C23C C24C 1_555 1_555
C25K C26K 1_555 1_555
C26J C27A 1_555 1_555
C26I C27B 1_555 1_555
C29K C30K 1_555 1_555
C30A C33A 1_555 1_555
C30J C33A 1_555 1_555
C30B C33B 1_555 1_555
C30I C33B 1_555 1_555

#END
