
#######################################################################
#
#                 Cambridge Crystallographic Data Centre
#                                CCDC 
#
#######################################################################
#
# If this CIF has been generated from an entry in the Cambridge 
# Structural Database, then it will include bibliographic, chemical, 
# crystal, experimental, refinement or atomic coordinate data resulting 
# from the CCDC's data processing and validation procedures.
#
#######################################################################

data_SOBZOA
_symmetry_cell_setting           triclinic
_symmetry_space_group_name_H-M   'P -1'
_symmetry_Int_Tables_number      2
_space_group_name_Hall           '-P 1'
loop_
_symmetry_equiv_pos_site_id
_symmetry_equiv_pos_as_xyz
1 x,y,z
2 -x,-y,-z
_cell_length_a                   7.877(5)
_cell_length_b                   9.218(6)
_cell_length_c                   10.266(6)
_cell_angle_alpha                71.089(6)
_cell_angle_beta                 74.544(6)
_cell_angle_gamma                66.192(5)
_cell_volume                     637.197
loop_
_atom_site_label
_atom_site_type_symbol
_atom_site_fract_x
_atom_site_fract_y
_atom_site_fract_z
Cd1 Cd 0.86860(2) 0.357298(18) 0.396741(16)
C1 C 0.2053(3) 0.4997(3) 0.3369(2)
C2 C 0.3491(3) 0.3827(3) 0.2524(2)
C3 C 0.5024(3) 0.2543(3) 0.3085(2)
C4 C 0.5280(3) 0.2157(3) 0.4584(2)
C5 C 0.6304(3) 0.1479(3) 0.2287(2)
H1 H 0.7333 0.0637 0.2650
C6 C 0.6043(3) 0.1678(3) 0.0944(2)
C7 C 0.4589(3) 0.2986(3) 0.0356(2)
H2 H 0.4460 0.3148 -0.0561
C8 C 0.3323(3) 0.4056(3) 0.1154(2)
H3 H 0.2345 0.4941 0.0763
C9 C 0.7775(4) 0.0830(3) -0.1215(3)
H4 H 0.7393 0.1922 -0.1707
C10 C 0.8826(4) -0.0344(3) -0.1919(3)
H5 H 0.9145 -0.0039 -0.2882
C11 C 0.9453(3) -0.2035(3) -0.1213(3)
C12 C 0.8889(4) -0.2379(3) 0.0267(3)
H6 H 0.9258 -0.3457 0.0791
C13 C 0.7828(4) -0.1165(3) 0.0918(3)
H7 H 0.7472 -0.1432 0.1879
H8 H 0.519(2) 0.566(4) 0.333(3)
H9 H 1.171(4) 0.054(2) 0.480(3)
H10 H 0.607(4) 0.660(3) 0.340(3)
H11 H 1.189(3) 0.179(3) 0.511(3)
N1 N 0.7263(3) 0.0441(2) 0.0206(2)
O1 O 0.0349(2) 0.5310(2) 0.34065(18)
O2 O 0.2698(2) 0.5633(2) 0.39644(18)
O3 O 0.3909(2) 0.2042(2) 0.55178(17)
O4 O 0.6875(2) 0.1920(2) 0.48227(18)
O5 O 1.0435(3) -0.3183(2) -0.1809(2)
O6 O 0.6226(2) 0.5808(2) 0.30770(19)
O7 O 1.1096(3) 0.1471(2) 0.4971(2)
Cd1_2 Cd -0.13140(2) 0.357298(18) 0.396741(16)
Cd1A Cd 0.13140(2) 0.642702(18) 0.603259(16)
Cd1A_2 Cd 1.13140(2) -0.357298(18) -0.396741(16)
O1_2 O 1.0349(2) 0.5310(2) 0.34065(18)
O2A O 0.7302(2) 0.4367(2) 0.60356(18)
O5A O 0.9565(3) 0.3183(2) 0.1809(2)
loop_
_geom_bond_atom_site_label_1
_geom_bond_atom_site_label_2
_geom_bond_site_symmetry_1
_geom_bond_site_symmetry_2
Cd1 O4 1_555 1_555
C1 C2 1_555 1_555
C2 C3 1_555 1_555
C3 C4 1_555 1_555
C4 O3 1_555 1_555
C5 C3 1_555 1_555
H1 C5 1_555 1_555
C6 C5 1_555 1_555
C7 C6 1_555 1_555
H2 C7 1_555 1_555
C8 C2 1_555 1_555
H3 C8 1_555 1_555
C9 H4 1_555 1_555
C10 C9 1_555 1_555
H5 C10 1_555 1_555
C11 C10 1_555 1_555
C12 C11 1_555 1_555
H6 C12 1_555 1_555
C13 C12 1_555 1_555
H7 C13 1_555 1_555
H8 O6 1_555 1_555
H9 O7 1_555 1_555
H10 O6 1_555 1_555
H11 O7 1_555 1_555
N1 C6 1_555 1_555
O1 C1 1_555 1_555
O2 C1 1_555 1_555
O4 C4 1_555 1_555
O5 C11 1_555 1_555
O6 Cd1 1_555 1_555
O7 Cd1 1_555 1_555
Cd1_2 O1 1_555 1_555
Cd1A O2 1_555 1_555
Cd1A_2 O5 1_555 1_555
O1_2 Cd1 1_555 1_555
O2A Cd1 1_555 1_555
O5A Cd1 1_555 1_555
C7 C8 1_555 1_555
C9 N1 1_555 1_555
C13 N1 1_555 1_555

#END
