
#######################################################################
#
#                 Cambridge Crystallographic Data Centre
#                                CCDC 
#
#######################################################################
#
# If this CIF has been generated from an entry in the Cambridge 
# Structural Database, then it will include bibliographic, chemical, 
# crystal, experimental, refinement or atomic coordinate data resulting 
# from the CCDC's data processing and validation procedures.
#
#######################################################################

data_SOBZIU
_symmetry_cell_setting           triclinic
_symmetry_space_group_name_H-M   'P -1'
_symmetry_Int_Tables_number      2
_space_group_name_Hall           '-P 1'
loop_
_symmetry_equiv_pos_site_id
_symmetry_equiv_pos_as_xyz
1 x,y,z
2 -x,-y,-z
_cell_length_a                   7.5114(19)
_cell_length_b                   8.710(2)
_cell_length_c                   9.085(2)
_cell_angle_alpha                80.011(3)
_cell_angle_beta                 78.511(3)
_cell_angle_gamma                82.406(3)
_cell_volume                     570.699
loop_
_atom_site_label
_atom_site_type_symbol
_atom_site_fract_x
_atom_site_fract_y
_atom_site_fract_z
Cd1 Cd 1.18825(2) 0.06783(2) 0.58297(2)
O1 O 1.0237(3) 0.1376(2) 0.3732(2)
O2 O 0.9548(3) 0.2722(2) 0.5656(2)
O3 O 0.6234(2) 0.1227(2) 0.5224(2)
O4 O 0.3628(2) 0.2605(2) 0.4770(2)
O5 O 0.2017(3) 1.0224(2) -0.1759(2)
N1 N 0.5214(3) 0.7188(2) 0.0819(3)
C1 C 0.9390(3) 0.2518(3) 0.4372(3)
C2 C 0.8225(3) 0.3728(3) 0.3475(3)
C3 C 0.6356(3) 0.3686(3) 0.3586(3)
C4 C 0.5335(3) 0.2410(3) 0.4598(3)
C5 C 0.5384(3) 0.4841(3) 0.2698(3)
H1 H 0.4136 0.4814 0.2764
C6 C 0.6263(3) 0.6019(3) 0.1723(3)
C7 C 0.8127(4) 0.6078(3) 0.1614(3)
H2 H 0.8719 0.6875 0.0962
C8 C 0.9084(4) 0.4931(3) 0.2491(3)
H3 H 1.0331 0.4965 0.2423
C9 C 0.5925(4) 0.7809(3) -0.0628(3)
H4 H 0.7139 0.7517 -0.1022
C10 C 0.4914(4) 0.8844(3) -0.1512(3)
H5 H 0.5453 0.9268 -0.2484
C11 C 0.3045(4) 0.9283(3) -0.0966(3)
C12 C 0.2357(4) 0.8651(3) 0.0562(3)
H6 H 0.1150 0.8927 0.0990
C13 C 0.3446(4) 0.7648(3) 0.1402(3)
H7 H 0.2971 0.7264 0.2404
Cd1_2 Cd 0.18825(2) 0.06783(2) 0.58297(2)
Cd1_3 Cd 0.18825(2) 1.06783(2) -0.41703(2)
Cd1A Cd 0.81175(2) -0.06783(2) 0.41703(2)
O1A O 0.9763(3) -0.1376(2) 0.6268(2)
O3A O 1.3766(2) -0.1227(2) 0.4776(2)
O4_2 O 1.3628(2) 0.2605(2) 0.4770(2)
O5_2 O 1.2017(3) 0.0224(2) 0.8241(2)
loop_
_geom_bond_atom_site_label_1
_geom_bond_atom_site_label_2
_geom_bond_site_symmetry_1
_geom_bond_site_symmetry_2
Cd1 O1 1_555 1_555
O1 C1 1_555 1_555
O2 Cd1 1_555 1_555
O3 C4 1_555 1_555
O4 C4 1_555 1_555
O5 C11 1_555 1_555
N1 C6 1_555 1_555
C1 O2 1_555 1_555
C2 C1 1_555 1_555
C3 C2 1_555 1_555
C4 C3 1_555 1_555
C5 C3 1_555 1_555
H1 C5 1_555 1_555
C6 C5 1_555 1_555
C7 C6 1_555 1_555
H2 C7 1_555 1_555
C8 C2 1_555 1_555
H3 C8 1_555 1_555
C9 N1 1_555 1_555
H4 C9 1_555 1_555
C10 C9 1_555 1_555
H5 C10 1_555 1_555
C11 C10 1_555 1_555
C12 C11 1_555 1_555
H6 C12 1_555 1_555
C13 N1 1_555 1_555
H7 C13 1_555 1_555
Cd1_2 O4 1_555 1_555
Cd1_3 O5 1_555 1_555
Cd1A O1 1_555 1_555
O1A Cd1 1_555 1_555
O3A Cd1 1_555 1_555
O4_2 Cd1 1_555 1_555
O5_2 Cd1 1_555 1_555
O3 Cd1A 1_555 1_555
C7 C8 1_555 1_555
C12 C13 1_555 1_555
Cd1A O1A 1_555 1_555

#END
