
#######################################################################
#
#                 Cambridge Crystallographic Data Centre
#                                CCDC 
#
#######################################################################
#
# If this CIF has been generated from an entry in the Cambridge 
# Structural Database, then it will include bibliographic, chemical, 
# crystal, experimental, refinement or atomic coordinate data resulting 
# from the CCDC's data processing and validation procedures.
#
#######################################################################

data_SOCBAP
_symmetry_cell_setting           monoclinic
_symmetry_space_group_name_H-M   'C 2/c'
_symmetry_Int_Tables_number      15
_space_group_name_Hall           '-C 2yn'
loop_
_symmetry_equiv_pos_site_id
_symmetry_equiv_pos_as_xyz
1 x,y,z
2 -x,y,1/2-z
3 1/2+x,1/2+y,z
4 1/2-x,1/2+y,1/2-z
5 -x,-y,-z
6 x,-y,1/2+z
7 1/2-x,1/2-y,-z
8 1/2+x,1/2-y,1/2+z
_cell_length_a                   12.2280(7)
_cell_length_b                   9.6483(5)
_cell_length_c                   22.0253(12)
_cell_angle_alpha                90
_cell_angle_beta                 98.3560(10)
_cell_angle_gamma                90
_cell_volume                     2570.95
loop_
_atom_site_label
_atom_site_type_symbol
_atom_site_fract_x
_atom_site_fract_y
_atom_site_fract_z
O1 O 0.5524(4) 0.7950(5) 0.2520(2)
Cd1 Cd 0.133119(11) -0.336633(14) 0.296019(6)
C1 C 0.24784(17) -0.1539(2) 0.37406(10)
C2 C 0.30563(16) -0.0467(2) 0.41692(9)
C3 C 0.36257(15) 0.06541(19) 0.39611(8)
C4 C 0.37754(17) 0.0892(2) 0.33001(9)
C5 C 0.40784(17) 0.1672(2) 0.43707(9)
H1 H 0.4429 0.2437 0.4228
C6 C 0.40069(16) 0.15475(19) 0.49902(9)
C7 C 0.35050(17) 0.0401(2) 0.52098(9)
H2 H 0.3498 0.0288 0.5629
C8 C 0.30150(17) -0.0572(2) 0.47952(9)
H3 H 0.2647 -0.1319 0.4940
C9 C 0.39828(18) 0.2913(2) 0.59184(9)
H4 H 0.3346 0.2438 0.5980
C10 C 0.44020(18) 0.3880(2) 0.63336(10)
H5 H 0.4047 0.4063 0.6671
C11 C 0.53765(17) 0.4615(2) 0.62590(9)
C12 C 0.58453(17) 0.4282(2) 0.57200(10)
H6 H 0.6480 0.4742 0.5644
C13 C 0.53910(18) 0.3315(2) 0.53177(10)
H7 H 0.5717 0.3128 0.4970
N1 N 0.44639(14) 0.26088(17) 0.54104(7)
O2 O 0.17494(14) -0.22813(17) 0.39276(7)
O3 O 0.27358(16) -0.16682(17) 0.32157(8)
O4 O 0.30033(15) 0.14355(18) 0.29514(7)
O5 O 0.47007(14) 0.05906(17) 0.31572(8)
O6 O 0.58124(13) 0.55207(18) 0.66352(8)
O7 O 0.19943(15) -0.55236(18) 0.32085(11)
H8 H 0.2740 -0.5578 0.3185
H9 H 0.1721 -0.6223 0.3006
O8 O 0.0000 -0.17842(19) 0.2500
H10 H -0.0299 -0.1296 0.2753
H10A H 0.0299 -0.1296 0.2247
Cd1A Cd -0.133119(11) -0.336633(14) 0.203981(6)
C1A C -0.24784(17) -0.1539(2) 0.12594(10)
C2A C -0.30563(16) -0.0467(2) 0.08308(9)
C3A C -0.36257(15) 0.06541(19) 0.10389(8)
C4A C -0.37754(17) 0.0892(2) 0.16999(9)
C5A C -0.40784(17) 0.1672(2) 0.06293(9)
H1A H -0.4429 0.2437 0.0772
C6A C -0.40069(16) 0.15475(19) 0.00098(9)
C7A C -0.35050(17) 0.0401(2) -0.02098(9)
H2A H -0.3498 0.0288 -0.0629
C8A C -0.30150(17) -0.0572(2) 0.02048(9)
H3A H -0.2647 -0.1319 0.0060
C9A C -0.39828(18) 0.2913(2) -0.09184(9)
H4A H -0.3346 0.2438 -0.0980
C10A C -0.44020(18) 0.3880(2) -0.13336(10)
H5A H -0.4047 0.4063 -0.1671
C11A C -0.53765(17) 0.4615(2) -0.12590(9)
C12A C -0.58453(17) 0.4282(2) -0.07200(10)
H6A H -0.6480 0.4742 -0.0644
C13A C -0.53910(18) 0.3315(2) -0.03177(10)
H7A H -0.5717 0.3128 0.0030
N1A N -0.44639(14) 0.26088(17) -0.04104(7)
O2A O -0.17494(14) -0.22813(17) 0.10724(7)
O3A O -0.27358(16) -0.16682(17) 0.17843(8)
O4A O -0.30033(15) 0.14355(18) 0.20486(7)
O5A O -0.47007(14) 0.05906(17) 0.18428(8)
O6A O -0.58124(13) 0.55207(18) -0.16352(8)
O7A O -0.19943(15) -0.55236(18) 0.17915(11)
H8A H -0.2740 -0.5578 0.1815
H9A H -0.1721 -0.6223 0.1994
Cd1B Cd -0.366881(11) 0.163367(14) 0.296019(6)
Cd1B_2 Cd 0.633119(11) 0.163367(14) 0.296019(6)
Cd1C Cd -0.633119(11) 0.163367(14) 0.203981(6)
Cd1C_2 Cd 0.366881(11) 0.163367(14) 0.203981(6)
O4B O -0.19967(15) -0.35645(18) 0.29514(7)
O4C O 0.19967(15) -0.35645(18) 0.20486(7)
O5B O -0.02993(14) -0.44094(17) 0.31572(8)
O5C O 0.02993(14) -0.44094(17) 0.18428(8)
loop_
_geom_bond_atom_site_label_1
_geom_bond_atom_site_label_2
_geom_bond_site_symmetry_1
_geom_bond_site_symmetry_2
Cd1 O2 1_555 1_555
C1 C2 1_555 1_555
C2 C3 1_555 1_555
C3 C4 1_555 1_555
C4 O4 1_555 1_555
C5 C3 1_555 1_555
H1 C5 1_555 1_555
C6 C5 1_555 1_555
C7 C6 1_555 1_555
H2 C7 1_555 1_555
C8 C2 1_555 1_555
H3 C8 1_555 1_555
C9 H4 1_555 1_555
C10 C9 1_555 1_555
H5 C10 1_555 1_555
C11 C10 1_555 1_555
C12 C11 1_555 1_555
H6 C12 1_555 1_555
C13 C12 1_555 1_555
H7 C13 1_555 1_555
N1 C6 1_555 1_555
O2 C1 1_555 1_555
O3 Cd1 1_555 1_555
O4 Cd1C_2 1_555 1_555
O5 C4 1_555 1_555
O6 C11 1_555 1_555
O7 Cd1 1_555 1_555
H8 O7 1_555 1_555
H9 O7 1_555 1_555
O8 Cd1 1_555 1_555
H10 O8 1_555 1_555
H10A O8 1_555 1_555
Cd1A O8 1_555 1_555
C1A C2A 1_555 1_555
C2A C3A 1_555 1_555
C3A C4A 1_555 1_555
C4A O4A 1_555 1_555
C5A C3A 1_555 1_555
H1A C5A 1_555 1_555
C6A C5A 1_555 1_555
C7A C6A 1_555 1_555
H2A C7A 1_555 1_555
C8A C2A 1_555 1_555
H3A C8A 1_555 1_555
C9A H4A 1_555 1_555
C10A C9A 1_555 1_555
H5A C10A 1_555 1_555
C11A C10A 1_555 1_555
C12A C11A 1_555 1_555
H6A C12A 1_555 1_555
C13A C12A 1_555 1_555
H7A C13A 1_555 1_555
N1A C6A 1_555 1_555
O2A Cd1A 1_555 1_555
O3A Cd1A 1_555 1_555
O4A Cd1B 1_555 1_555
O5A C4A 1_555 1_555
O6A C11A 1_555 1_555
O7A Cd1A 1_555 1_555
H8A O7A 1_555 1_555
H9A O7A 1_555 1_555
Cd1B O5A 1_555 1_555
Cd1B_2 O5 1_555 1_555
Cd1C O5A 1_555 1_555
Cd1C_2 O5 1_555 1_555
O4B Cd1A 1_555 1_555
O4C Cd1 1_555 1_555
O5B Cd1 1_555 1_555
O5C Cd1 1_555 1_555
C1 O3 1_555 1_555
C7 C8 1_555 1_555
C9 N1 1_555 1_555
C13 N1 1_555 1_555
Cd1A O5B 1_555 1_555
Cd1A O5C 1_555 1_555
C1A O2A 1_555 1_555
C1A O3A 1_555 1_555
C7A C8A 1_555 1_555
C9A N1A 1_555 1_555
C13A N1A 1_555 1_555

#END
