
#######################################################################
#
#                 Cambridge Crystallographic Data Centre
#                                CCDC 
#
#######################################################################
#
# If this CIF has been generated from an entry in the Cambridge 
# Structural Database, then it will include bibliographic, chemical, 
# crystal, experimental, refinement or atomic coordinate data resulting 
# from the CCDC's data processing and validation procedures.
#
#######################################################################

data_SOCBET
_symmetry_cell_setting           monoclinic
_symmetry_space_group_name_H-M   'C 2/c'
_symmetry_Int_Tables_number      15
_space_group_name_Hall           '-C 2yn'
loop_
_symmetry_equiv_pos_site_id
_symmetry_equiv_pos_as_xyz
1 x,y,z
2 -x,y,1/2-z
3 1/2+x,1/2+y,z
4 1/2-x,1/2+y,1/2-z
5 -x,-y,-z
6 x,-y,1/2+z
7 1/2-x,1/2-y,-z
8 1/2+x,1/2-y,1/2+z
_cell_length_a                   7.989(4)
_cell_length_b                   18.546(10)
_cell_length_c                   18.189(9)
_cell_angle_alpha                90
_cell_angle_beta                 101.212(6)
_cell_angle_gamma                90
_cell_volume                     2643.52
loop_
_atom_site_label
_atom_site_type_symbol
_atom_site_fract_x
_atom_site_fract_y
_atom_site_fract_z
Cu1 Cu 0.5000 0.16272(3) 0.2500
Cu2 Cu 0.0000 -0.03920(2) 0.2500
C1 C 0.3232(4) 0.13852(16) 0.09638(17)
C2 C 0.1470(4) 0.12947(16) 0.04730(16)
C3 C 0.0194(3) 0.08929(15) 0.07073(15)
C4 C 0.0537(4) 0.04276(15) 0.14023(16)
C5 C -0.1455(4) 0.08872(16) 0.02751(16)
H1 H -0.2315 0.0631 0.0438
C6 C -0.1812(3) 0.12625(16) -0.03950(16)
C7 C -0.0551(4) 0.16472(17) -0.06469(17)
H2 H -0.0789 0.1890 -0.1103
C8 C 0.1087(4) 0.16639(17) -0.02049(18)
H3 H 0.1938 0.1927 -0.0367
C9 C -0.4260(4) 0.18336(17) -0.11904(19)
H4 H -0.3655 0.2265 -0.1143
C10 C -0.5866(4) 0.18161(16) -0.1618(2)
H5 H -0.6329 0.2231 -0.1864
C11 C -0.6840(4) 0.11644(16) -0.16893(17)
C12 C -0.6035(4) 0.05613(16) -0.13022(16)
H6 H -0.6612 0.0124 -0.1329
C13 C -0.4423(3) 0.06116(16) -0.08896(16)
H7 H -0.3923 0.0205 -0.0639
N1 N -0.3526(3) 0.12374(13) -0.08338(13)
O1 O 0.4511(3) 0.12414(15) 0.07007(13)
O2 O 0.3187(3) 0.16291(11) 0.16154(12)
O3 O 0.1923(3) 0.01202(12) 0.16012(12)
O4 O -0.0733(2) 0.03436(11) 0.17345(11)
O5 O -0.8374(3) 0.11609(11) -0.20832(13)
O6 O 0.5000 0.05709(19) 0.2500
O7 O 0.7274(3) 0.17008(15) 0.17448(15)
O8 O 0.5000 0.26579(19) 0.2500
H8 H 0.424(5) 0.295(2) 0.238(3)
H9 H 0.415(4) 0.034(2) 0.228(3)
H10 H 0.802(5) 0.138(2) 0.183(2)
H11 H 0.663(5) 0.157(2) 0.1334(18)
H9A H 0.585(4) 0.034(2) 0.272(3)
H8A H 0.576(5) 0.295(2) 0.262(3)
C1A C -0.3232(4) 0.13852(16) 0.40362(17)
C2A C -0.1470(4) 0.12947(16) 0.45270(16)
C3A C -0.0194(3) 0.08929(15) 0.42927(15)
C4A C -0.0537(4) 0.04276(15) 0.35977(16)
C5A C 0.1455(4) 0.08872(16) 0.47249(16)
H1A H 0.2315 0.0631 0.4562
C6A C 0.1812(3) 0.12625(16) 0.53950(16)
C7A C 0.0551(4) 0.16472(17) 0.56469(17)
H2A H 0.0789 0.1890 0.6103
C8A C -0.1087(4) 0.16639(17) 0.52049(18)
H3A H -0.1938 0.1927 0.5367
C9A C 0.4260(4) 0.18336(17) 0.61904(19)
H4A H 0.3655 0.2265 0.6143
C10A C 0.5866(4) 0.18161(16) 0.6618(2)
H5A H 0.6329 0.2231 0.6864
C11A C 0.6840(4) 0.11644(16) 0.66893(17)
C12A C 0.6035(4) 0.05613(16) 0.63022(16)
H6A H 0.6612 0.0124 0.6329
C13A C 0.4423(3) 0.06116(16) 0.58896(16)
H7A H 0.3923 0.0205 0.5639
N1A N 0.3526(3) 0.12374(13) 0.58338(13)
O1A O -0.4511(3) 0.12414(15) 0.42993(13)
O2A O -0.3187(3) 0.16291(11) 0.33846(12)
O3A O -0.1923(3) 0.01202(12) 0.33988(12)
O4A O 0.0733(2) 0.03436(11) 0.32655(11)
O5A O 0.8374(3) 0.11609(11) 0.70832(13)
O7A O 0.2726(3) 0.17008(15) 0.32552(15)
H10A H 0.198(5) 0.138(2) 0.317(2)
H11A H 0.337(5) 0.157(2) 0.3666(18)
Cu1_2 Cu -0.5000 0.16272(3) 0.2500
Cu2D Cu -1.0000 0.03920(2) -0.2500
Cu2D_2 Cu 1.0000 0.03920(2) 0.7500
O2A_2 O 0.6813(3) 0.16291(11) 0.33846(12)
O5D O -0.1626(3) -0.11609(11) 0.20832(13)
O5E O 0.1626(3) -0.11609(11) 0.29168(13)
loop_
_geom_bond_atom_site_label_1
_geom_bond_atom_site_label_2
_geom_bond_site_symmetry_1
_geom_bond_site_symmetry_2
Cu1 O2 1_555 1_555
Cu2 O3 1_555 1_555
C1 C2 1_555 1_555
C2 C3 1_555 1_555
C3 C4 1_555 1_555
C4 O3 1_555 1_555
C5 C3 1_555 1_555
H1 C5 1_555 1_555
C6 C5 1_555 1_555
C7 C6 1_555 1_555
H2 C7 1_555 1_555
C8 C2 1_555 1_555
H3 C8 1_555 1_555
C9 H4 1_555 1_555
C10 C9 1_555 1_555
H5 C10 1_555 1_555
C11 C10 1_555 1_555
C12 C11 1_555 1_555
H6 C12 1_555 1_555
C13 C12 1_555 1_555
H7 C13 1_555 1_555
N1 C6 1_555 1_555
O1 C1 1_555 1_555
O2 C1 1_555 1_555
O4 Cu2 1_555 1_555
O5 C11 1_555 1_555
O6 Cu1 1_555 1_555
O7 Cu1 1_555 1_555
O8 Cu1 1_555 1_555
H8 O8 1_555 1_555
H9 O6 1_555 1_555
H10 O7 1_555 1_555
H11 O7 1_555 1_555
H9A O6 1_555 1_555
H8A O8 1_555 1_555
C1A C2A 1_555 1_555
C2A C3A 1_555 1_555
C3A C4A 1_555 1_555
C4A O3A 1_555 1_555
C5A C3A 1_555 1_555
H1A C5A 1_555 1_555
C6A C5A 1_555 1_555
C7A C6A 1_555 1_555
H2A C7A 1_555 1_555
C8A C2A 1_555 1_555
H3A C8A 1_555 1_555
C9A H4A 1_555 1_555
C10A C9A 1_555 1_555
H5A C10A 1_555 1_555
C11A C10A 1_555 1_555
C12A C11A 1_555 1_555
H6A C12A 1_555 1_555
C13A C12A 1_555 1_555
H7A C13A 1_555 1_555
N1A C6A 1_555 1_555
O1A C1A 1_555 1_555
O2A C1A 1_555 1_555
O3A Cu2 1_555 1_555
O4A Cu2 1_555 1_555
O5A C11A 1_555 1_555
O7A Cu1 1_555 1_555
H10A O7A 1_555 1_555
H11A O7A 1_555 1_555
Cu1_2 O2A 1_555 1_555
Cu2D O5 1_555 1_555
Cu2D_2 O5A 1_555 1_555
O2A_2 Cu1 1_555 1_555
O5D Cu2 1_555 1_555
O5E Cu2 1_555 1_555
C4 O4 1_555 1_555
C7 C8 1_555 1_555
C9 N1 1_555 1_555
C13 N1 1_555 1_555
C4A O4A 1_555 1_555
C7A C8A 1_555 1_555
C9A N1A 1_555 1_555
C13A N1A 1_555 1_555

#END
