
#######################################################################
#
#                 Cambridge Crystallographic Data Centre
#                                CCDC 
#
#######################################################################
#
# If this CIF has been generated from an entry in the Cambridge 
# Structural Database, then it will include bibliographic, chemical, 
# crystal, experimental, refinement or atomic coordinate data resulting 
# from the CCDC's data processing and validation procedures.
#
#######################################################################

data_SOCCUI01
_symmetry_cell_setting           monoclinic
_symmetry_space_group_name_H-M   'C c'
_symmetry_Int_Tables_number      9
_space_group_name_Hall           'C -2yc'
loop_
_symmetry_equiv_pos_site_id
_symmetry_equiv_pos_as_xyz
1 x,y,z
2 1/2+x,1/2+y,z
3 x,-y,1/2+z
4 1/2+x,1/2-y,1/2+z
_cell_length_a                   8.170(4)
_cell_length_b                   16.177(12)
_cell_length_c                   9.660(5)
_cell_angle_alpha                90
_cell_angle_beta                 109.55(1)
_cell_angle_gamma                90
_cell_volume                     1203.12
loop_
_atom_site_label
_atom_site_type_symbol
_atom_site_fract_x
_atom_site_fract_y
_atom_site_fract_z
Mn1 Mn 0.7755 0.01864(4) 0.7259
Cl1 Cl 0.7739(2) 0.0626(1) 0.9739(1)
Cl2 Cl 0.6205(2) 0.1247(1) 0.6008(2)
Cl3 Cl 1.0296(2) 0.0793(1) 0.7431(2)
N1 N 0.5632(5) -0.0541(2) 0.7001(4)
C1 C 0.3983(7) -0.0279(4) 0.6522(6)
C2 C 0.2603(8) -0.0814(4) 0.6240(6)
C3 C 0.2930(7) -0.1630(4) 0.6481(6)
C4 C 0.4619(7) -0.1907(3) 0.7038(6)
C5 C 0.5964(6) -0.1347(3) 0.7298(5)
C6 C 0.7812(6) -0.1563(3) 0.7921(5)
C7 C 0.8431(8) -0.2362(4) 0.8275(6)
C8 C 1.0176(8) -0.2495(4) 0.8892(6)
C9 C 1.1281(8) -0.1830(4) 0.9183(6)
C10 C 1.0633(6) -0.1050(4) 0.8785(5)
N2 N 0.8916(5) -0.0917(2) 0.8141(4)
H1 H 0.400(7) 0.030(4) 0.646(6)
H2 H 0.151(9) -0.066(4) 0.597(6)
H3 H 0.207(9) -0.205(4) 0.629(7)
H4 H 0.483(7) -0.242(4) 0.722(7)
H5 H 0.771(7) -0.273(4) 0.822(6)
H6 H 1.062(8) -0.301(4) 0.918(7)
H7 H 1.231(8) -0.188(4) 0.948(7)
H8 H 1.139(7) -0.058(4) 0.887(6)
Cl1B Cl 0.7739(2) -0.0626(1) 0.4739(1)
Mn1B Mn 0.7755 -0.01864(4) 1.2259
Mn1B_2 Mn 0.7755 -0.01864(4) 0.2259
Cl1B_2 Cl 0.7739(2) -0.0626(1) 1.4739(1)
Cl2B Cl 0.6205(2) -0.1247(1) 1.1008(2)
Cl3B Cl 1.0296(2) -0.0793(1) 1.2431(2)
N1B N 0.5632(5) 0.0541(2) 1.2001(4)
N2B N 0.8916(5) 0.0917(2) 1.3141(4)
C1B C 0.3983(7) 0.0279(4) 1.1522(6)
C5B C 0.5964(6) 0.1347(3) 1.2298(5)
C6B C 0.7812(6) 0.1563(3) 1.2921(5)
C10B C 1.0633(6) 0.1050(4) 1.3785(5)
C2B C 0.2603(8) 0.0814(4) 1.1240(6)
H1B H 0.400(7) -0.030(4) 1.146(6)
C4B C 0.4619(7) 0.1907(3) 1.2038(6)
C7B C 0.8431(8) 0.2362(4) 1.3275(6)
C9B C 1.1281(8) 0.1830(4) 1.4183(6)
H8B H 1.139(7) 0.058(4) 1.387(6)
C3B C 0.2930(7) 0.1630(4) 1.1481(6)
H2B H 0.151(9) 0.066(4) 1.097(6)
H4B H 0.483(7) 0.242(4) 1.222(7)
C8B C 1.0176(8) 0.2495(4) 1.3892(6)
H5B H 0.771(7) 0.273(4) 1.322(6)
H7B H 1.231(8) 0.188(4) 1.448(7)
H3B H 0.207(9) 0.205(4) 1.129(7)
H6B H 1.062(8) 0.301(4) 1.418(7)
loop_
_geom_bond_atom_site_label_1
_geom_bond_atom_site_label_2
_geom_bond_site_symmetry_1
_geom_bond_site_symmetry_2
Mn1 Cl1 1_555 1_555
Cl1 Mn1B 1_555 1_555
Cl2 Mn1 1_555 1_555
Cl3 Mn1 1_555 1_555
N1 Mn1 1_555 1_555
C1 N1 1_555 1_555
C2 C1 1_555 1_555
C3 C2 1_555 1_555
C4 C3 1_555 1_555
C5 N1 1_555 1_555
C6 C5 1_555 1_555
C7 C6 1_555 1_555
C8 C7 1_555 1_555
C9 C8 1_555 1_555
C10 C9 1_555 1_555
N2 Mn1 1_555 1_555
H1 C1 1_555 1_555
H2 C2 1_555 1_555
H3 C3 1_555 1_555
H4 C4 1_555 1_555
H5 C7 1_555 1_555
H6 C8 1_555 1_555
H7 C9 1_555 1_555
H8 C10 1_555 1_555
Cl1B Mn1 1_555 1_555
Mn1B Cl1B_2 1_555 1_555
Mn1B_2 Cl1B 1_555 1_555
Cl2B Mn1B 1_555 1_555
Cl3B Mn1B 1_555 1_555
N1B Mn1B 1_555 1_555
N2B Mn1B 1_555 1_555
C1B N1B 1_555 1_555
C5B N1B 1_555 1_555
C6B N2B 1_555 1_555
C10B N2B 1_555 1_555
C2B C1B 1_555 1_555
H1B C1B 1_555 1_555
C4B C5B 1_555 1_555
C7B C6B 1_555 1_555
C9B C10B 1_555 1_555
H8B C10B 1_555 1_555
C3B C2B 1_555 1_555
H2B C2B 1_555 1_555
H4B C4B 1_555 1_555
C8B C7B 1_555 1_555
H5B C7B 1_555 1_555
H7B C9B 1_555 1_555
H3B C3B 1_555 1_555
H6B C8B 1_555 1_555
C4 C5 1_555 1_555
C6 N2 1_555 1_555
C10 N2 1_555 1_555
C5B C6B 1_555 1_555
C4B C3B 1_555 1_555
C9B C8B 1_555 1_555

#END
