
#######################################################################
#
#                 Cambridge Crystallographic Data Centre
#                                CCDC 
#
#######################################################################
#
# If this CIF has been generated from an entry in the Cambridge 
# Structural Database, then it will include bibliographic, chemical, 
# crystal, experimental, refinement or atomic coordinate data resulting 
# from the CCDC's data processing and validation procedures.
#
#######################################################################

data_SOCCIY
_symmetry_cell_setting           triclinic
_symmetry_space_group_name_H-M   'P -1'
_symmetry_Int_Tables_number      2
_space_group_name_Hall           '-P 1'
loop_
_symmetry_equiv_pos_site_id
_symmetry_equiv_pos_as_xyz
1 x,y,z
2 -x,-y,-z
_cell_length_a                   5.11600(10)
_cell_length_b                   5.69440(10)
_cell_length_c                   14.8728(4)
_cell_angle_alpha                100.8140(10)
_cell_angle_beta                 95.293(2)
_cell_angle_gamma                101.0420(10)
_cell_volume                     414
loop_
_atom_site_label
_atom_site_type_symbol
_atom_site_fract_x
_atom_site_fract_y
_atom_site_fract_z
Mn1 Mn 0.5000 0.0000 0.5000
O1 O 0.3186(2) 0.69409(18) 0.55976(8)
O2 O 0.3105(2) 0.30048(17) 0.55725(8)
O3 O 0.1791(2) -0.1250(2) 0.38511(9)
C1 C 0.3929(3) 0.4987(2) 0.53390(9)
H1 H 0.136(5) -0.025(4) 0.3579(16)
H2 H 0.042(5) -0.193(5) 0.3978(18)
O2A O 0.6895(2) 0.69952(17) 0.44275(8)
C1A C 0.6071(3) 0.5013(2) 0.46610(9)
O1A O 0.6814(2) 0.30591(18) 0.44024(8)
O3A O 0.8209(2) 0.1250(2) 0.61489(9)
H1A H 0.864(5) 0.025(4) 0.6421(16)
H2A H 0.958(5) 0.193(5) 0.6022(18)
Mn1_2 Mn 0.5000 1.0000 0.5000
O1_2 O 0.3186(2) -0.30591(18) 0.55976(8)
O2A_2 O 0.6895(2) -0.30048(17) 0.44275(8)
N1 N 0.9926(3) 0.5857(3) 0.03129(10)
N2 N 0.4071(4) 0.4369(4) 0.20498(12)
C2 C 0.7925(3) 0.5231(3) 0.08933(11)
C3 C 0.7507(4) 0.7104(4) 0.15578(14)
H3 H 0.8513 0.8686 0.1628
C4 C 0.5558(5) 0.6583(4) 0.21192(14)
H4 H 0.5280 0.7854 0.2568
C5 C 0.6444(4) 0.2900(4) 0.08278(15)
H5 H 0.6715 0.1585 0.0398
C6 C 0.4547(5) 0.2581(4) 0.14206(17)
H6 H 0.3539 0.1010 0.1375
N1A N 1.0074(3) 0.4143(3) -0.03129(10)
N2A N 1.5929(4) 0.5631(4) -0.20498(12)
C2A C 1.2075(3) 0.4769(3) -0.08933(11)
C3A C 1.2493(4) 0.2896(4) -0.15578(14)
H3A H 1.1487 0.1314 -0.1628
C4A C 1.4442(5) 0.3417(4) -0.21192(14)
H4A H 1.4720 0.2146 -0.2568
C5A C 1.3556(4) 0.7100(4) -0.08278(15)
H5A H 1.3285 0.8415 -0.0398
C6A C 1.5453(5) 0.7419(4) -0.14206(17)
H6A H 1.6461 0.8990 -0.1375
O4 O 0.0311(3) 0.2256(3) 0.30785(11)
H7 H 0.1507 0.2903 0.2786
H8 H -0.0814 0.2488 0.3454
loop_
_geom_bond_atom_site_label_1
_geom_bond_atom_site_label_2
_geom_bond_site_symmetry_1
_geom_bond_site_symmetry_2
Mn1 O2 1_555 1_555
O1 C1 1_555 1_555
O2 C1 1_555 1_555
O3 Mn1 1_555 1_555
C1 C1A 1_555 1_555
H1 O3 1_555 1_555
H2 O3 1_555 1_555
N1 C2 1_555 1_555
N2 C4 1_555 1_555
C2 C3 1_555 1_555
C3 H3 1_555 1_555
C4 C3 1_555 1_555
H4 C4 1_555 1_555
C5 C2 1_555 1_555
H5 C5 1_555 1_555
C6 N2 1_555 1_555
H6 C6 1_555 1_555
O4 H7 1_555 1_555
H8 O4 1_555 1_555
O2A C1A 1_555 1_555
C1A O1A 1_555 1_555
O1A Mn1 1_555 1_555
O3A Mn1 1_555 1_555
H1A O3A 1_555 1_555
H2A O3A 1_555 1_555
Mn1_2 O1 1_555 1_555
O1_2 Mn1 1_555 1_555
O2A_2 Mn1 1_555 1_555
N1A N1 1_555 1_555
N2A C4A 1_555 1_555
C2A N1A 1_555 1_555
C3A C2A 1_555 1_555
H3A C3A 1_555 1_555
C4A C3A 1_555 1_555
H4A C4A 1_555 1_555
C5A C2A 1_555 1_555
H5A C5A 1_555 1_555
C6A N2A 1_555 1_555
H6A C6A 1_555 1_555
C5 C6 1_555 1_555
O2A Mn1_2 1_555 1_555
C5A C6A 1_555 1_555

#END
