
#######################################################################
#
#                 Cambridge Crystallographic Data Centre
#                                CCDC 
#
#######################################################################
#
# If this CIF has been generated from an entry in the Cambridge 
# Structural Database, then it will include bibliographic, chemical, 
# crystal, experimental, refinement or atomic coordinate data resulting 
# from the CCDC's data processing and validation procedures.
#
#######################################################################

data_SOCCOD
_symmetry_cell_setting           triclinic
_symmetry_space_group_name_H-M   'P -1'
_symmetry_Int_Tables_number      2
_space_group_name_Hall           '-P 1'
loop_
_symmetry_equiv_pos_site_id
_symmetry_equiv_pos_as_xyz
1 x,y,z
2 -x,-y,-z
_cell_length_a                   5.6244(4)
_cell_length_b                   7.4089(4)
_cell_length_c                   9.1061(7)
_cell_angle_alpha                100.779(1)
_cell_angle_beta                 103.400(1)
_cell_angle_gamma                94.711(1)
_cell_volume                     359.474
loop_
_atom_site_label
_atom_site_type_symbol
_atom_site_fract_x
_atom_site_fract_y
_atom_site_fract_z
Cd1 Cd 0.0000 0.0000 0.0000
S1 S 0.17249(5) -0.32536(4) -0.09494(3)
N1 N 0.05529(17) 0.11476(13) -0.21698(11)
N2 N -0.14501(18) 0.15755(14) -0.31398(11)
N3 N -0.08008(18) 0.21667(14) -0.42604(12)
N4 N 0.16475(17) 0.21266(13) -0.40274(11)
N5 N 0.61178(18) -0.14486(14) -0.12655(11)
C1 C 0.2459(2) 0.15101(15) -0.27397(13)
H1 H 0.404(3) 0.139(2) -0.236(2)
C2 C 0.2995(2) 0.27410(15) -0.50877(12)
H2 H 0.408(3) 0.184(2) -0.528(2)
H3 H 0.177(3) 0.267(2) -0.6022(19)
C3 C 0.4381(2) 0.46795(14) -0.44149(12)
H4 H 0.323(3) 0.553(2) -0.4152(19)
H5 H 0.560(3) 0.468(2) -0.3477(19)
C4 C 0.4312(2) -0.22050(15) -0.11291(12)
Cd1_2 Cd 1.0000 0.0000 0.0000
Cd1_3 Cd 1.0000 1.0000 -1.0000
Cd1_4 Cd -1.0000 0.0000 0.0000
S1A S -0.17249(5) 0.32536(4) 0.09494(3)
N1A N 0.94471(17) 0.88524(13) -0.78302(11)
N1A_2 N -0.05529(17) -0.11476(13) 0.21698(11)
N2A N 1.14501(18) 0.84245(14) -0.68602(11)
N3A N 1.08008(18) 0.78333(14) -0.57396(12)
N4A N 0.83525(17) 0.78734(13) -0.59726(11)
N5A N -0.61178(18) 0.14486(14) 0.12655(11)
N5_2 N -0.38822(18) -0.14486(14) -0.12655(11)
N5A_2 N 0.38822(18) 0.14486(14) 0.12655(11)
C1A C 0.7541(2) 0.84899(15) -0.72603(13)
H1A H 0.596(3) 0.861(2) -0.764(2)
C2A C 0.7005(2) 0.72590(15) -0.49123(12)
H2A H 0.592(3) 0.816(2) -0.472(2)
H3A H 0.823(3) 0.733(2) -0.3978(19)
C3A C 0.5619(2) 0.53205(14) -0.55851(12)
H4A H 0.677(3) 0.447(2) -0.5848(19)
H5A H 0.440(3) 0.532(2) -0.6523(19)
C4A C -0.4312(2) 0.22050(15) 0.11291(12)
loop_
_geom_bond_atom_site_label_1
_geom_bond_atom_site_label_2
_geom_bond_site_symmetry_1
_geom_bond_site_symmetry_2
Cd1 S1 1_555 1_555
S1 C4 1_555 1_555
N1 Cd1 1_555 1_555
N2 N1 1_555 1_555
N3 N2 1_555 1_555
N4 N3 1_555 1_555
N5 C4 1_555 1_555
C1 N1 1_555 1_555
H1 C1 1_555 1_555
C2 N4 1_555 1_555
H2 C2 1_555 1_555
H3 C2 1_555 1_555
C3 C2 1_555 1_555
H4 C3 1_555 1_555
H5 C3 1_555 1_555
Cd1_2 N5 1_555 1_555
Cd1_3 N1A 1_555 1_555
Cd1_4 N5A 1_555 1_555
S1A Cd1 1_555 1_555
N1A N2A 1_555 1_555
N1A_2 Cd1 1_555 1_555
N2A N3A 1_555 1_555
N3A N4A 1_555 1_555
N4A C1A 1_555 1_555
N5A C4A 1_555 1_555
N5_2 Cd1 1_555 1_555
N5A_2 Cd1 1_555 1_555
C1A N1A 1_555 1_555
H1A C1A 1_555 1_555
C2A N4A 1_555 1_555
H2A C2A 1_555 1_555
H3A C2A 1_555 1_555
C3A C3 1_555 1_555
H4A C3A 1_555 1_555
H5A C3A 1_555 1_555
C4A S1A 1_555 1_555
N4 C1 1_555 1_555
C2A C3A 1_555 1_555

#END
