
#######################################################################
#
#                 Cambridge Crystallographic Data Centre
#                                CCDC 
#
#######################################################################
#
# If this CIF has been generated from an entry in the Cambridge 
# Structural Database, then it will include bibliographic, chemical, 
# crystal, experimental, refinement or atomic coordinate data resulting 
# from the CCDC's data processing and validation procedures.
#
#######################################################################

data_SOCCOE
_symmetry_cell_setting           triclinic
_symmetry_space_group_name_H-M   'P -1'
_symmetry_Int_Tables_number      2
_space_group_name_Hall           '-P 1'
loop_
_symmetry_equiv_pos_site_id
_symmetry_equiv_pos_as_xyz
1 x,y,z
2 -x,-y,-z
_cell_length_a                   6.3158(4)
_cell_length_b                   6.9554(5)
_cell_length_c                   12.4897(8)
_cell_angle_alpha                82.785(2)
_cell_angle_beta                 84.992(2)
_cell_angle_gamma                85.845(2)
_cell_volume                     541.186
loop_
_atom_site_label
_atom_site_type_symbol
_atom_site_fract_x
_atom_site_fract_y
_atom_site_fract_z
Mn1 Mn 0.5000 0.0000 0.5000
O1 O 0.7036(3) 0.2093(3) 0.54788(15)
O2 O 0.7415(3) -0.2362(3) 0.54186(15)
N1 N 0.6621(3) 0.0314(3) 0.33106(14)
N2 N 0.9035(4) 0.0093(4) 0.00735(18)
C1 C 0.8344(4) 0.0169(4) 0.12063(18)
C2 C 0.5416(4) 0.0629(4) 0.24700(18)
H1 H 0.3962 0.0899 0.2608
C3 C 0.6210(4) 0.0575(4) 0.14087(18)
H2 H 0.5316 0.0809 0.0847
C4 C 0.8712(4) -0.0073(4) 0.31017(19)
H3 H 0.9576 -0.0282 0.3677
C5 C 0.9639(4) -0.0174(5) 0.2062(2)
H4 H 1.1094 -0.0465 0.1939
H5 H 0.744(5) 0.292(4) 0.505(3)
H6 H 0.748(6) -0.302(5) 0.596(3)
H7 H 0.662(5) 0.274(5) 0.598(3)
H8 H 0.771(6) -0.311(5) 0.499(3)
N1A N 1.3379(3) -0.0314(3) -0.33106(14)
N2A N 1.0965(4) -0.0093(4) -0.00735(18)
C1A C 1.1656(4) -0.0169(4) -0.12063(18)
C2A C 1.4584(4) -0.0629(4) -0.24700(18)
H1A H 1.6038 -0.0899 -0.2608
C3A C 1.3790(4) -0.0575(4) -0.14087(18)
H2A H 1.4684 -0.0809 -0.0847
C4A C 1.1288(4) 0.0073(4) -0.31017(19)
H3A H 1.0424 0.0282 -0.3677
C5A C 1.0361(4) 0.0174(5) -0.2062(2)
H4A H 0.8906 0.0465 -0.1939
O1A O 0.2964(3) -0.2093(3) 0.45212(15)
O2A O 0.2585(3) 0.2362(3) 0.45814(15)
H5A H 0.256(5) -0.292(4) 0.495(3)
H6A H 0.252(6) 0.302(5) 0.404(3)
H7A H 0.338(5) -0.274(5) 0.402(3)
H8A H 0.229(6) 0.311(5) 0.501(3)
Mn1_2 Mn 1.5000 0.0000 -0.5000
N1A_2 N 0.3379(3) -0.0314(3) 0.66894(14)
O3 O 0.4508(3) -0.3840(3) 0.27946(14)
O4 O 0.1774(3) -0.5522(3) 0.25803(15)
C6 C 0.7067(4) -0.4564(4) -0.03528(18)
C7 C 0.6306(4) -0.4393(3) 0.07108(18)
H9 H 0.7191 -0.3990 0.1185
C8 C 0.4233(3) -0.4820(3) 0.10684(16)
C9 C 0.3424(4) -0.4696(3) 0.22329(17)
H10 H 0.851(4) -0.428(4) -0.057(2)
O3A O 0.5492(3) -0.6160(3) -0.27946(14)
O4A O 0.8226(3) -0.4478(3) -0.25803(15)
C6A C 0.2933(4) -0.5436(4) 0.03528(18)
C7A C 0.3694(4) -0.5607(3) -0.07108(18)
H9A H 0.2809 -0.6010 -0.1185
C8A C 0.5767(3) -0.5180(3) -0.10684(16)
C9A C 0.6576(4) -0.5304(3) -0.22329(17)
H10A H 0.149(4) -0.572(4) 0.057(2)
O5 O -0.1900(3) -0.4896(3) 0.38726(15)
H11 H -0.089(6) -0.499(5) 0.347(3)
H12 H -0.297(6) -0.476(5) 0.352(3)
loop_
_geom_bond_atom_site_label_1
_geom_bond_atom_site_label_2
_geom_bond_site_symmetry_1
_geom_bond_site_symmetry_2
Mn1 O1 1_555 1_555
O1 H5 1_555 1_555
O2 Mn1 1_555 1_555
N1 Mn1 1_555 1_555
N2 C1 1_555 1_555
C1 C3 1_555 1_555
C2 N1 1_555 1_555
H1 C2 1_555 1_555
C3 C2 1_555 1_555
H2 C3 1_555 1_555
C4 N1 1_555 1_555
H3 C4 1_555 1_555
C5 C1 1_555 1_555
H4 C5 1_555 1_555
H6 O2 1_555 1_555
H7 O1 1_555 1_555
H8 O2 1_555 1_555
O3 C9 1_555 1_555
O4 C9 1_555 1_555
C6 C7 1_555 1_555
C7 H9 1_555 1_555
C8 C7 1_555 1_555
C9 C8 1_555 1_555
H10 C6 1_555 1_555
O5 H11 1_555 1_555
H12 O5 1_555 1_555
N1A C2A 1_555 1_555
N2A N2 1_555 1_555
C1A N2A 1_555 1_555
C2A H1A 1_555 1_555
C3A C1A 1_555 1_555
H2A C3A 1_555 1_555
C4A N1A 1_555 1_555
H3A C4A 1_555 1_555
C5A C1A 1_555 1_555
H4A C5A 1_555 1_555
O1A Mn1 1_555 1_555
O2A Mn1 1_555 1_555
H5A O1A 1_555 1_555
H6A O2A 1_555 1_555
H7A O1A 1_555 1_555
H8A O2A 1_555 1_555
Mn1_2 N1A 1_555 1_555
N1A_2 Mn1 1_555 1_555
O3A C9A 1_555 1_555
O4A C9A 1_555 1_555
C6A C8 1_555 1_555
C7A C6A 1_555 1_555
H9A C7A 1_555 1_555
C8A C6 1_555 1_555
C9A C8A 1_555 1_555
H10A C6A 1_555 1_555
C4 C5 1_555 1_555
C2A C3A 1_555 1_555
C4A C5A 1_555 1_555
C7A C8A 1_555 1_555

#END
