
#######################################################################
#
#                 Cambridge Crystallographic Data Centre
#                                CCDC 
#
#######################################################################
#
# If this CIF has been generated from an entry in the Cambridge 
# Structural Database, then it will include bibliographic, chemical, 
# crystal, experimental, refinement or atomic coordinate data resulting 
# from the CCDC's data processing and validation procedures.
#
#######################################################################

data_SOCCIX
_symmetry_cell_setting           monoclinic
_symmetry_space_group_name_H-M   'P 21/c'
_symmetry_Int_Tables_number      14
_space_group_name_Hall           '-P 2ybc'
loop_
_symmetry_equiv_pos_site_id
_symmetry_equiv_pos_as_xyz
1 x,y,z
2 -x,1/2+y,1/2-z
3 -x,-y,-z
4 x,1/2-y,1/2+z
_cell_length_a                   11.083(2)
_cell_length_b                   6.8479(14)
_cell_length_c                   7.7026(15)
_cell_angle_alpha                90
_cell_angle_beta                 97.71(3)
_cell_angle_gamma                90
_cell_volume                     579.306
loop_
_atom_site_label
_atom_site_type_symbol
_atom_site_fract_x
_atom_site_fract_y
_atom_site_fract_z
Cu1 Cu 0.0000 0.0000 0.0000
Br1 Br 0.08752(5) -0.22507(8) -0.19476(6)
N1 N 0.1567(4) 0.1403(7) 0.0446(6)
N2 N 0.2632(5) 0.0508(6) 0.1046(7)
N3 N 0.3488(4) 0.1799(8) 0.1440(6)
N4 N 0.2953(4) 0.3573(6) 0.1080(6)
C1 C 0.1782(5) 0.3307(8) 0.0473(7)
H1 H 0.1204 0.4304 0.0123
C2 C 0.3667(6) 0.5384(8) 0.1392(8)
H2 H 0.4163 0.5306 0.2560
H3 H 0.3100 0.6498 0.1411
C3 C 0.4501(6) 0.5775(8) 0.0033(7)
H4 H 0.4895 0.7062 0.0278
H5 H 0.4005 0.5852 -0.1133
Cu1C Cu 0.0000 -0.5000 -0.5000
Cu1_2 Cu 1.0000 1.0000 0.0000
Cu1C_2 Cu 0.0000 -0.5000 0.5000
Br1C Br 0.08752(5) -0.27493(8) 0.30524(6)
Br1B Br -0.08752(5) 0.22507(8) 0.19476(6)
Br1A Br -0.08752(5) 0.27493(8) -0.30524(6)
N1B N 0.8433(4) 0.8597(7) -0.0446(6)
N1B_2 N -0.1567(4) -0.1403(7) -0.0446(6)
N2B N 0.7368(5) 0.9492(6) -0.1046(7)
N3B N 0.6512(4) 0.8201(8) -0.1440(6)
N4B N 0.7047(4) 0.6427(6) -0.1080(6)
C1B C 0.8218(5) 0.6693(8) -0.0473(7)
H1B H 0.8796 0.5696 -0.0123
C2B C 0.6333(6) 0.4616(8) -0.1392(8)
H2B H 0.5837 0.4694 -0.2560
H3B H 0.6900 0.3502 -0.1411
C3B C 0.5499(6) 0.4225(8) -0.0033(7)
H4B H 0.5105 0.2938 -0.0278
H5B H 0.5995 0.4148 0.1133
loop_
_geom_bond_atom_site_label_1
_geom_bond_atom_site_label_2
_geom_bond_site_symmetry_1
_geom_bond_site_symmetry_2
Cu1 Br1 1_555 1_555
Br1 Cu1C 1_555 1_555
N1 Cu1 1_555 1_555
N2 N1 1_555 1_555
N3 N2 1_555 1_555
N4 N3 1_555 1_555
C1 N1 1_555 1_555
H1 C1 1_555 1_555
C2 N4 1_555 1_555
H2 C2 1_555 1_555
H3 C2 1_555 1_555
C3 C2 1_555 1_555
H4 C3 1_555 1_555
H5 C3 1_555 1_555
Cu1_2 N1B 1_555 1_555
Cu1C_2 Br1C 1_555 1_555
Br1C Cu1 1_555 1_555
Br1B Cu1 1_555 1_555
Br1A Cu1 1_555 1_555
N1B N2B 1_555 1_555
N1B_2 Cu1 1_555 1_555
N2B N3B 1_555 1_555
N3B N4B 1_555 1_555
N4B C1B 1_555 1_555
C1B N1B 1_555 1_555
H1B C1B 1_555 1_555
C2B N4B 1_555 1_555
H2B C2B 1_555 1_555
H3B C2B 1_555 1_555
C3B C3 1_555 1_555
H4B C3B 1_555 1_555
H5B C3B 1_555 1_555
N4 C1 1_555 1_555
C2B C3B 1_555 1_555

#END
