
#######################################################################
#
#                 Cambridge Crystallographic Data Centre
#                                CCDC 
#
#######################################################################
#
# If this CIF has been generated from an entry in the Cambridge 
# Structural Database, then it will include bibliographic, chemical, 
# crystal, experimental, refinement or atomic coordinate data resulting 
# from the CCDC's data processing and validation procedures.
#
#######################################################################

data_SOCCUJ
_symmetry_cell_setting           monoclinic
_symmetry_space_group_name_H-M   'P 21/n'
_symmetry_Int_Tables_number      14
_space_group_name_Hall           '-P 2yn'
loop_
_symmetry_equiv_pos_site_id
_symmetry_equiv_pos_as_xyz
1 x,y,z
2 1/2-x,1/2+y,1/2-z
3 -x,-y,-z
4 1/2+x,1/2-y,1/2+z
_cell_length_a                   9.9821(5)
_cell_length_b                   5.5553(3)
_cell_length_c                   10.8937(6)
_cell_angle_alpha                90
_cell_angle_beta                 102.326(1)
_cell_angle_gamma                90
_cell_volume                     590.169
loop_
_atom_site_label
_atom_site_type_symbol
_atom_site_fract_x
_atom_site_fract_y
_atom_site_fract_z
Cd1 Cd 0.5000 0.5000 0.5000
S1 S 0.70505(3) 0.25099(6) 0.64887(3)
N1 N 0.43227(11) 0.63747(19) 0.68741(10)
N2 N 0.40816(13) 0.4644(2) 0.76930(11)
N3 N 0.40235(12) 0.5604(2) 0.87609(11)
N4 N 0.42300(11) 0.79919(19) 0.86525(9)
N5 N 0.64149(11) -0.1771(2) 0.51096(10)
C1 C 0.44099(13) 0.8432(2) 0.74944(12)
H1 H 0.455(2) 0.994(3) 0.723(2)
C2 C 0.42607(13) 0.9631(2) 0.97116(12)
H2 H 0.3847(17) 0.880(3) 1.0305(16)
H3 H 0.3659(19) 1.100(4) 0.9390(18)
C3 C 0.66862(13) -0.0001(2) 0.56793(13)
Cd1_2 Cd 0.5000 -0.5000 0.5000
Cd1_3 Cd 0.5000 1.5000 1.5000
Cd1_4 Cd 0.5000 1.5000 0.5000
S1B S 0.29495(3) 0.74901(6) 0.35113(3)
N1B N 0.56773(11) 1.36253(19) 1.31259(10)
N1B_2 N 0.56773(11) 0.36253(19) 0.31259(10)
N2B N 0.59184(13) 1.5356(2) 1.23070(11)
N3B N 0.59765(12) 1.4396(2) 1.12391(11)
N4B N 0.57700(11) 1.20081(19) 1.13475(9)
N5B N 0.35851(11) 1.1771(2) 0.48904(10)
N5_2 N 0.64149(11) 0.8229(2) 0.51096(10)
N5B_2 N 0.35851(11) 0.1771(2) 0.48904(10)
C1B C 0.55901(13) 1.1568(2) 1.25056(12)
H1B H 0.545(2) 1.006(3) 1.277(2)
C2B C 0.57393(13) 1.0369(2) 1.02884(12)
H2B H 0.6153(17) 1.120(3) 0.9695(16)
H3B H 0.6341(19) 0.900(4) 1.0610(18)
C3B C 0.33138(13) 1.0001(2) 0.43207(13)
loop_
_geom_bond_atom_site_label_1
_geom_bond_atom_site_label_2
_geom_bond_site_symmetry_1
_geom_bond_site_symmetry_2
Cd1 S1 1_555 1_555
S1 C3 1_555 1_555
N1 Cd1 1_555 1_555
N2 N1 1_555 1_555
N3 N2 1_555 1_555
N4 N3 1_555 1_555
N5 C3 1_555 1_555
C1 N1 1_555 1_555
H1 C1 1_555 1_555
C2 N4 1_555 1_555
H2 C2 1_555 1_555
H3 C2 1_555 1_555
Cd1_2 N5 1_555 1_555
Cd1_3 N1B 1_555 1_555
Cd1_4 N5B 1_555 1_555
S1B Cd1 1_555 1_555
N1B N2B 1_555 1_555
N1B_2 Cd1 1_555 1_555
N2B N3B 1_555 1_555
N3B N4B 1_555 1_555
N4B C1B 1_555 1_555
N5B C3B 1_555 1_555
N5_2 Cd1 1_555 1_555
N5B_2 Cd1 1_555 1_555
C1B N1B 1_555 1_555
H1B C1B 1_555 1_555
C2B C2 1_555 1_555
H2B C2B 1_555 1_555
H3B C2B 1_555 1_555
C3B S1B 1_555 1_555
N4 C1 1_555 1_555
N4B C2B 1_555 1_555

#END
