
#######################################################################
#
#                 Cambridge Crystallographic Data Centre
#                                CCDC 
#
#######################################################################
#
# If this CIF has been generated from an entry in the Cambridge 
# Structural Database, then it will include bibliographic, chemical, 
# crystal, experimental, refinement or atomic coordinate data resulting 
# from the CCDC's data processing and validation procedures.
#
#######################################################################

data_SOCCUI
_symmetry_cell_setting           monoclinic
_symmetry_space_group_name_H-M   'C c'
_symmetry_Int_Tables_number      9
_space_group_name_Hall           'C -2yc'
loop_
_symmetry_equiv_pos_site_id
_symmetry_equiv_pos_as_xyz
1 x,y,z
2 1/2+x,1/2+y,z
3 x,-y,1/2+z
4 1/2+x,1/2-y,1/2+z
_cell_length_a                   8.122(1)
_cell_length_b                   16.162(3)
_cell_length_c                   9.584(1)
_cell_angle_alpha                90
_cell_angle_beta                 109.46(1)
_cell_angle_gamma                90
_cell_volume                     1186.2
loop_
_atom_site_label
_atom_site_type_symbol
_atom_site_fract_x
_atom_site_fract_y
_atom_site_fract_z
Mn1 Mn 0.7755 0.01809(4) 0.7259
Cl1 Cl 0.7719(2) 0.0617(1) 0.9763(1)
Cl2 Cl 0.6181(2) 0.1249(1) 0.6012(1)
Cl3 Cl 1.0305(2) 0.0791(1) 0.7448(1)
N1 N 0.5593(5) -0.0541(2) 0.7014(4)
C1 C 0.3943(6) -0.0273(3) 0.6532(5)
C2 C 0.2543(7) -0.0812(3) 0.6249(6)
C3 C 0.2871(7) -0.1643(3) 0.6482(5)
C4 C 0.4575(7) -0.1916(3) 0.7037(5)
C5 C 0.5918(6) -0.1351(3) 0.7306(5)
C6 C 0.7785(6) -0.1574(3) 0.7935(5)
C7 C 0.8401(7) -0.2370(3) 0.8286(5)
C8 C 1.0171(7) -0.2506(3) 0.8911(6)
C9 C 1.1286(7) -0.1832(3) 0.9213(5)
C10 C 1.0620(6) -0.1054(3) 0.8812(5)
N2 N 0.8903(5) -0.0918(2) 0.8156(4)
H1 H 0.380(6) 0.028(3) 0.640(5)
H2 H 0.148(8) -0.063(3) 0.596(6)
H3 H 0.200(9) -0.200(3) 0.625(6)
H4 H 0.485(10) -0.245(6) 0.729(9)
H5 H 0.772(8) -0.274(4) 0.817(7)
H6 H 1.058(8) -0.301(4) 0.919(7)
H7 H 1.250(10) -0.188(4) 0.957(7)
H8 H 1.126(7) -0.056(4) 0.893(6)
Cl1B Cl 0.7719(2) -0.0617(1) 0.4763(1)
Mn1B Mn 0.7755 -0.01809(4) 1.2259
Mn1B_2 Mn 0.7755 -0.01809(4) 0.2259
Cl1B_2 Cl 0.7719(2) -0.0617(1) 1.4763(1)
Cl2B Cl 0.6181(2) -0.1249(1) 1.1012(1)
Cl3B Cl 1.0305(2) -0.0791(1) 1.2448(1)
N1B N 0.5593(5) 0.0541(2) 1.2014(4)
N2B N 0.8903(5) 0.0918(2) 1.3156(4)
C1B C 0.3943(6) 0.0273(3) 1.1532(5)
C5B C 0.5918(6) 0.1351(3) 1.2306(5)
C6B C 0.7785(6) 0.1574(3) 1.2935(5)
C10B C 1.0620(6) 0.1054(3) 1.3812(5)
C2B C 0.2543(7) 0.0812(3) 1.1249(6)
H1B H 0.380(6) -0.028(3) 1.140(5)
C4B C 0.4575(7) 0.1916(3) 1.2037(5)
C7B C 0.8401(7) 0.2370(3) 1.3286(5)
C9B C 1.1286(7) 0.1832(3) 1.4213(5)
H8B H 1.126(7) 0.056(4) 1.393(6)
C3B C 0.2871(7) 0.1643(3) 1.1482(5)
H2B H 0.148(8) 0.063(3) 1.096(6)
H4B H 0.485(10) 0.245(6) 1.229(9)
C8B C 1.0171(7) 0.2506(3) 1.3911(6)
H5B H 0.772(8) 0.274(4) 1.317(7)
H7B H 1.250(10) 0.188(4) 1.457(7)
H3B H 0.200(9) 0.200(3) 1.125(6)
H6B H 1.058(8) 0.301(4) 1.419(7)
loop_
_geom_bond_atom_site_label_1
_geom_bond_atom_site_label_2
_geom_bond_site_symmetry_1
_geom_bond_site_symmetry_2
Mn1 Cl1 1_555 1_555
Cl1 Mn1B 1_555 1_555
Cl2 Mn1 1_555 1_555
Cl3 Mn1 1_555 1_555
N1 Mn1 1_555 1_555
C1 N1 1_555 1_555
C2 C1 1_555 1_555
C3 C2 1_555 1_555
C4 C3 1_555 1_555
C5 N1 1_555 1_555
C6 C5 1_555 1_555
C7 C6 1_555 1_555
C8 C7 1_555 1_555
C9 C8 1_555 1_555
C10 C9 1_555 1_555
N2 Mn1 1_555 1_555
H1 C1 1_555 1_555
H2 C2 1_555 1_555
H3 C3 1_555 1_555
H4 C4 1_555 1_555
H5 C7 1_555 1_555
H6 C8 1_555 1_555
H7 C9 1_555 1_555
H8 C10 1_555 1_555
Cl1B Mn1 1_555 1_555
Mn1B Cl1B_2 1_555 1_555
Mn1B_2 Cl1B 1_555 1_555
Cl2B Mn1B 1_555 1_555
Cl3B Mn1B 1_555 1_555
N1B Mn1B 1_555 1_555
N2B Mn1B 1_555 1_555
C1B N1B 1_555 1_555
C5B N1B 1_555 1_555
C6B N2B 1_555 1_555
C10B N2B 1_555 1_555
C2B C1B 1_555 1_555
H1B C1B 1_555 1_555
C4B C5B 1_555 1_555
C7B C6B 1_555 1_555
C9B C10B 1_555 1_555
H8B C10B 1_555 1_555
C3B C2B 1_555 1_555
H2B C2B 1_555 1_555
H4B C4B 1_555 1_555
C8B C7B 1_555 1_555
H5B C7B 1_555 1_555
H7B C9B 1_555 1_555
H3B C3B 1_555 1_555
H6B C8B 1_555 1_555
C4 C5 1_555 1_555
C6 N2 1_555 1_555
C10 N2 1_555 1_555
C5B C6B 1_555 1_555
C4B C3B 1_555 1_555
C9B C8B 1_555 1_555

#END
