
#######################################################################
#
#                 Cambridge Crystallographic Data Centre
#                                CCDC 
#
#######################################################################
#
# If this CIF has been generated from an entry in the Cambridge 
# Structural Database, then it will include bibliographic, chemical, 
# crystal, experimental, refinement or atomic coordinate data resulting 
# from the CCDC's data processing and validation procedures.
#
#######################################################################

data_SOCDIY01
_symmetry_cell_setting           triclinic
_symmetry_space_group_name_H-M   'P -1'
_symmetry_Int_Tables_number      2
_space_group_name_Hall           '-P 1'
loop_
_symmetry_equiv_pos_site_id
_symmetry_equiv_pos_as_xyz
1 x,y,z
2 -x,-y,-z
_cell_length_a                   6.5358(13)
_cell_length_b                   8.5888(17)
_cell_length_c                   10.449(2)
_cell_angle_alpha                110.46(3)
_cell_angle_beta                 101.50(3)
_cell_angle_gamma                100.54(3)
_cell_volume                     517.732
loop_
_atom_site_label
_atom_site_type_symbol
_atom_site_fract_x
_atom_site_fract_y
_atom_site_fract_z
Ni1 Ni 0.5000 0.5000 0.5000
C1 C 0.7075(5) 0.2251(4) 0.3442(3)
H1 H 0.8435 0.2837 0.4097
C2 C 0.8099(5) -0.0118(4) 0.1692(3)
H2 H 0.9518 0.0297 0.2384
H3 H 0.8270 0.0106 0.0866
C3 C 0.7235(5) -0.2055(4) 0.1248(3)
H4 H 0.5780 -0.2461 0.0602
H5 H 0.8151 -0.2648 0.0748
C4 C 0.5645(5) -0.3463(4) 0.2720(3)
H6 H 0.4244 -0.4007 0.2112
C5 C 0.0794(5) 0.4347(4) 0.2624(3)
N1 N 0.5301(4) 0.2729(3) 0.3514(3)
N2 N 0.3729(5) 0.1528(5) 0.2358(4)
N3 N 0.4532(5) 0.0380(4) 0.1607(4)
N4 N 0.6650(4) 0.0822(3) 0.2309(3)
N5 N 0.7191(4) -0.2463(3) 0.2496(3)
N6 N 0.8973(5) -0.1932(4) 0.3578(3)
N7 N 0.8482(4) -0.2577(4) 0.4461(3)
N8 N 0.6399(4) -0.3567(3) 0.3937(3)
N9 N 0.2048(4) 0.4662(3) 0.3694(3)
S1 S -0.09280(16) 0.38737(13) 0.10987(9)
Ni1_2 Ni 0.5000 -0.5000 0.5000
Ni1_3 Ni 0.5000 1.5000 0.5000
C1A C 0.2925(5) 0.7749(4) 0.6558(3)
H1A H 0.1565 0.7163 0.5903
C2A C 0.1901(5) 1.0118(4) 0.8308(3)
H2A H 0.0482 0.9703 0.7616
H3A H 0.1730 0.9894 0.9134
C3A C 0.2765(5) 1.2055(4) 0.8752(3)
H4A H 0.4220 1.2461 0.9398
H5A H 0.1849 1.2648 0.9252
C4A C 0.4355(5) 1.3463(4) 0.7280(3)
H6A H 0.5756 1.4007 0.7888
C5A C 0.9206(5) 0.5653(4) 0.7376(3)
N1A N 0.4699(4) 0.7271(3) 0.6486(3)
N2A N 0.6271(5) 0.8472(5) 0.7642(4)
N3A N 0.5468(5) 0.9620(4) 0.8393(4)
N4A N 0.3350(4) 0.9178(3) 0.7691(3)
N5A N 0.2809(4) 1.2463(3) 0.7504(3)
N6A N 0.1027(5) 1.1932(4) 0.6422(3)
N7A N 0.1518(4) 1.2577(4) 0.5539(3)
N8A N 0.3601(4) 1.3567(3) 0.6063(3)
N8_2 N 0.6399(4) 0.6433(3) 0.3937(3)
N8A_2 N 0.3601(4) 0.3567(3) 0.6063(3)
N9A N 0.7952(4) 0.5338(3) 0.6306(3)
S1A S 1.09280(16) 0.61263(13) 0.89013(9)
loop_
_geom_bond_atom_site_label_1
_geom_bond_atom_site_label_2
_geom_bond_site_symmetry_1
_geom_bond_site_symmetry_2
Ni1 N1 1_555 1_555
C1 H1 1_555 1_555
C2 H2 1_555 1_555
H3 C2 1_555 1_555
C3 C2 1_555 1_555
H4 C3 1_555 1_555
H5 C3 1_555 1_555
C4 H6 1_555 1_555
C5 N9 1_555 1_555
N1 C1 1_555 1_555
N2 N1 1_555 1_555
N3 N2 1_555 1_555
N4 C1 1_555 1_555
N5 C3 1_555 1_555
N6 N5 1_555 1_555
N7 N6 1_555 1_555
N8 C4 1_555 1_555
N9 Ni1 1_555 1_555
S1 C5 1_555 1_555
Ni1_2 N8 1_555 1_555
Ni1_3 N8A 1_555 1_555
C1A H1A 1_555 1_555
C2A H2A 1_555 1_555
H3A C2A 1_555 1_555
C3A C2A 1_555 1_555
H4A C3A 1_555 1_555
H5A C3A 1_555 1_555
C4A H6A 1_555 1_555
C5A N9A 1_555 1_555
N1A Ni1 1_555 1_555
N2A N1A 1_555 1_555
N3A N2A 1_555 1_555
N4A C1A 1_555 1_555
N5A C3A 1_555 1_555
N6A N5A 1_555 1_555
N7A N6A 1_555 1_555
N8A C4A 1_555 1_555
N8_2 Ni1 1_555 1_555
N8A_2 Ni1 1_555 1_555
N9A Ni1 1_555 1_555
S1A C5A 1_555 1_555
C2 N4 1_555 1_555
C4 N5 1_555 1_555
N3 N4 1_555 1_555
N7 N8 1_555 1_555
C1A N1A 1_555 1_555
C2A N4A 1_555 1_555
C4A N5A 1_555 1_555
N3A N4A 1_555 1_555
N7A N8A 1_555 1_555

#END
