
#######################################################################
#
#                 Cambridge Crystallographic Data Centre
#                                CCDC 
#
#######################################################################
#
# If this CIF has been generated from an entry in the Cambridge 
# Structural Database, then it will include bibliographic, chemical, 
# crystal, experimental, refinement or atomic coordinate data resulting 
# from the CCDC's data processing and validation procedures.
#
#######################################################################

data_SOCDAR
_symmetry_cell_setting           monoclinic
_symmetry_space_group_name_H-M   'P 21/c'
_symmetry_Int_Tables_number      14
_space_group_name_Hall           '-P 2ybc'
loop_
_symmetry_equiv_pos_site_id
_symmetry_equiv_pos_as_xyz
1 x,y,z
2 -x,1/2+y,1/2-z
3 -x,-y,-z
4 x,1/2-y,1/2+z
_cell_length_a                   14.4128(5)
_cell_length_b                   17.2474(5)
_cell_length_c                   14.1954(5)
_cell_angle_alpha                90
_cell_angle_beta                 94.508(2)
_cell_angle_gamma                90
_cell_volume                     3517.82
loop_
_atom_site_label
_atom_site_type_symbol
_atom_site_fract_x
_atom_site_fract_y
_atom_site_fract_z
Ag1 Ag 0.52188(4) 0.27709(4) -0.04394(4)
Ag2 Ag 0.36559(5) 0.08595(3) 0.35521(4)
Ag3 Ag 0.36573(5) 0.09006(3) 0.13056(5)
Ag4 Ag 0.52543(5) 0.27355(4) 0.20518(6)
Ag5 Ag 0.55023(5) -0.07756(4) 0.07352(6)
Ag6 Ag 0.56893(6) -0.06364(5) 0.40737(9)
O1 O 0.5540(4) 0.0558(3) 0.0559(4)
O2 O 0.6136(4) 0.1720(4) 0.0328(5)
O3 O 0.5131(4) 0.1388(3) 0.2293(4)
O4 O 0.5379(4) 0.0496(3) 0.3372(4)
O5 O 1.0040(6) 0.0738(6) 0.2642(8)
O6 O 0.9647(7) 0.0997(8) 0.1118(9)
N1 N 0.6169(4) 0.3589(4) 0.0280(4)
N2 N 0.6556(4) 0.4712(3) 0.0915(4)
N3 N 0.3348(4) 0.2935(3) -0.1629(4)
N4 N 0.3657(4) 0.1698(3) -0.1356(4)
N5 N 0.3484(5) -0.0292(4) 0.1599(5)
N6 N 0.3863(5) -0.1447(4) 0.2184(4)
N7 N 0.3336(4) 0.2068(4) 0.0937(4)
N8 N 0.3486(4) 0.3333(4) 0.0921(5)
N9 N 0.9454(8) 0.0872(6) 0.1948(9)
C1 C 0.5869(4) 0.4269(3) 0.0559(5)
C2 C 0.7099(5) 0.3588(4) 0.0473(5)
C3 C 0.7780(6) 0.3012(5) 0.0325(6)
H1 H 0.7617 0.2534 0.0058
C4 C 0.8674(6) 0.3196(5) 0.0592(7)
H2 H 0.9135 0.2832 0.0505
C5 C 0.8931(6) 0.3916(6) 0.0996(7)
H3 H 0.9556 0.4014 0.1170
C6 C 0.8273(6) 0.4486(5) 0.1142(6)
H4 H 0.8438 0.4966 0.1403
C7 C 0.7356(5) 0.4293(4) 0.0875(5)
C8 C 0.3982(4) 0.2431(3) -0.1276(4)
C9 C 0.2577(5) 0.2525(4) -0.1944(5)
C10 C 0.1718(5) 0.2752(5) -0.2370(5)
H5 H 0.1586 0.3270 -0.2505
C11 C 0.1075(6) 0.2184(5) -0.2582(6)
H6 H 0.0489 0.2319 -0.2853
C12 C 0.1284(6) 0.1385(5) -0.2394(6)
H7 H 0.0833 0.1013 -0.2558
C13 C 0.2119(6) 0.1154(5) -0.1987(6)
H8 H 0.2252 0.0635 -0.1860
C14 C 0.2781(5) 0.1752(4) -0.1764(5)
C15 C 0.4168(5) -0.0747(4) 0.1966(5)
C16 C 0.2691(5) -0.0716(4) 0.1577(5)
C17 C 0.1772(6) -0.0534(5) 0.1267(6)
H9 H 0.1608 -0.0043 0.1039
C18 C 0.1124(7) -0.1110(7) 0.1314(7)
H10 H 0.0509 -0.1013 0.1099
C19 C 0.1369(7) -0.1844(6) 0.1679(7)
H11 H 0.0906 -0.2218 0.1707
C20 C 0.2254(6) -0.2031(5) 0.1993(6)
H12 H 0.2408 -0.2519 0.2234
C21 C 0.2924(6) -0.1445(4) 0.1932(5)
C22 C 0.3905(5) 0.2672(4) 0.1155(5)
C23 C 0.2532(5) 0.2359(4) 0.0545(5)
C24 C 0.1698(6) 0.2007(5) 0.0211(6)
H13 H 0.1635 0.1470 0.0217
C25 C 0.0987(7) 0.2465(7) -0.0123(6)
H14 H 0.0421 0.2240 -0.0332
C26 C 0.1087(7) 0.3277(7) -0.0161(6)
H15 H 0.0592 0.3573 -0.0422
C27 C 0.1885(6) 0.3645(5) 0.0174(6)
H16 H 0.1942 0.4182 0.0161
C28 C 0.2614(5) 0.3165(4) 0.0539(5)
C29 C 0.6864(5) 0.0974(4) 0.1544(5)
C30 C 0.6642(5) 0.0852(4) 0.2475(5)
C31 C 0.7349(6) 0.0725(5) 0.3172(6)
H17 H 0.7193 0.0627 0.3784
C32 C 0.8268(7) 0.0737(5) 0.3001(7)
H18 H 0.8732 0.0661 0.3485
C33 C 0.8478(6) 0.0864(5) 0.2102(8)
C34 C 0.7794(6) 0.0979(4) 0.1349(6)
H19 H 0.7962 0.1057 0.0736
C35 C 0.6126(5) 0.1104(4) 0.0752(5)
C36 C 0.5654(6) 0.0911(4) 0.2726(5)
Ag2A Ag 0.63441(5) 0.58595(3) 0.14479(4)
Ag2C Ag 0.36559(5) 0.41405(3) -0.14479(4)
Ag4A Ag 0.47457(5) -0.22645(4) 0.29482(6)
Ag5B Ag 0.44977(5) 0.07756(4) -0.07352(6)
Ag6A Ag 0.43107(6) 0.43636(5) 0.09263(9)
O1B O 0.4460(4) -0.0558(3) -0.0559(4)
N2A N 0.3444(4) -0.0288(3) 0.4085(4)
N3C N 0.3348(4) 0.2065(3) 0.3371(4)
N4B N 0.6343(4) -0.1698(3) 0.1356(4)
N6A N 0.6137(5) 0.3553(4) 0.2816(4)
N8A N 0.6514(4) -0.1667(4) 0.4079(5)
C1A C 0.4131(4) -0.0731(3) 0.4441(5)
loop_
_geom_bond_atom_site_label_1
_geom_bond_atom_site_label_2
_geom_bond_site_symmetry_1
_geom_bond_site_symmetry_2
Ag1 O2 1_555 1_555
Ag2 Ag3 1_555 1_555
Ag3 O3 1_555 1_555
Ag4 O3 1_555 1_555
Ag5 O1 1_555 1_555
Ag6 O4 1_555 1_555
O1 C35 1_555 1_555
O2 C35 1_555 1_555
O3 C36 1_555 1_555
O4 Ag2 1_555 1_555
O5 N9 1_555 1_555
O6 N9 1_555 1_555
N1 Ag1 1_555 1_555
N2 C1 1_555 1_555
N3 C8 1_555 1_555
N4 C8 1_555 1_555
N5 Ag3 1_555 1_555
N6 C15 1_555 1_555
N7 Ag3 1_555 1_555
N8 C22 1_555 1_555
N9 C33 1_555 1_555
C1 N1 1_555 1_555
C2 N1 1_555 1_555
C3 C2 1_555 1_555
H1 C3 1_555 1_555
C4 C3 1_555 1_555
H2 C4 1_555 1_555
C5 C4 1_555 1_555
H3 C5 1_555 1_555
C6 C5 1_555 1_555
H4 C6 1_555 1_555
C7 N2 1_555 1_555
C8 Ag1 1_555 1_555
C9 N3 1_555 1_555
C10 C9 1_555 1_555
H5 C10 1_555 1_555
C11 C10 1_555 1_555
H6 C11 1_555 1_555
C12 C11 1_555 1_555
H7 C12 1_555 1_555
C13 C12 1_555 1_555
H8 C13 1_555 1_555
C14 N4 1_555 1_555
C15 Ag5 1_555 1_555
C16 N5 1_555 1_555
C17 C16 1_555 1_555
H9 C17 1_555 1_555
C18 C17 1_555 1_555
H10 C18 1_555 1_555
C19 C18 1_555 1_555
H11 C19 1_555 1_555
C20 C19 1_555 1_555
H12 C20 1_555 1_555
C21 N6 1_555 1_555
C22 Ag4 1_555 1_555
C23 N7 1_555 1_555
C24 C23 1_555 1_555
H13 C24 1_555 1_555
C25 C24 1_555 1_555
H14 C25 1_555 1_555
C26 C25 1_555 1_555
H15 C26 1_555 1_555
C27 C26 1_555 1_555
H16 C27 1_555 1_555
C28 N8 1_555 1_555
C29 C30 1_555 1_555
C30 C31 1_555 1_555
C31 H17 1_555 1_555
C32 C31 1_555 1_555
H18 C32 1_555 1_555
C33 C32 1_555 1_555
C34 C29 1_555 1_555
H19 C34 1_555 1_555
C35 C29 1_555 1_555
C36 O4 1_555 1_555
Ag2A N2 1_555 1_555
Ag2C N3 1_555 1_555
Ag4A N6 1_555 1_555
Ag5B O1 1_555 1_555
Ag6A N8 1_555 1_555
O1B Ag5 1_555 1_555
N2A Ag2 1_555 1_555
N3C Ag2 1_555 1_555
N4B Ag5 1_555 1_555
N6A Ag4 1_555 1_555
N8A Ag6 1_555 1_555
C1A Ag6 1_555 1_555
N4 Ag5B 1_555 1_555
N5 C15 1_555 1_555
N7 C22 1_555 1_555
C1 Ag6A 1_555 1_555
C2 C7 1_555 1_555
C6 C7 1_555 1_555
C9 C14 1_555 1_555
C13 C14 1_555 1_555
C16 C21 1_555 1_555
C20 C21 1_555 1_555
C23 C28 1_555 1_555
C27 C28 1_555 1_555
C30 C36 1_555 1_555
C33 C34 1_555 1_555
Ag5B O1B 1_555 1_555
N2A C1A 1_555 1_555

#END
