
#######################################################################
#
#                 Cambridge Crystallographic Data Centre
#                                CCDC 
#
#######################################################################
#
# If this CIF has been generated from an entry in the Cambridge 
# Structural Database, then it will include bibliographic, chemical, 
# crystal, experimental, refinement or atomic coordinate data resulting 
# from the CCDC's data processing and validation procedures.
#
#######################################################################

data_SOCDEU01
_symmetry_cell_setting           triclinic
_symmetry_space_group_name_H-M   'P -1'
_symmetry_Int_Tables_number      2
_space_group_name_Hall           '-P 1'
loop_
_symmetry_equiv_pos_site_id
_symmetry_equiv_pos_as_xyz
1 x,y,z
2 -x,-y,-z
_cell_length_a                   6.5628(13)
_cell_length_b                   9.2726(19)
_cell_length_c                   11.037(2)
_cell_angle_alpha                66.93(3)
_cell_angle_beta                 83.14(3)
_cell_angle_gamma                78.35(3)
_cell_volume                     604.598
loop_
_atom_site_label
_atom_site_type_symbol
_atom_site_fract_x
_atom_site_fract_y
_atom_site_fract_z
Co1 Co 0.0000 0.0000 0.0000
C1 C 0.0447(12) 0.3493(9) -0.1931(7)
H1 H -0.0173 0.3395 -0.2604
C2 C 0.1174(12) 0.6291(9) -0.3108(9)
H2 H 0.2481 0.6218 -0.3612
H3 H 0.1138 0.7110 -0.2762
C3 C -0.0631(13) 0.6774(9) -0.4024(8)
H4 H -0.0622 0.5922 -0.4327
H5 H -0.0383 0.7707 -0.4791
C4 C -0.2809(11) 0.7145(9) -0.3418(7)
H6 H -0.3854 0.7254 -0.4014
H7 H -0.3022 0.6267 -0.2597
C5 C -0.3076(10) 0.8654(9) -0.3157(7)
H8 H -0.2111 0.8518 -0.2505
H9 H -0.2761 0.9519 -0.3963
C6 C -0.5967(11) 0.8994(8) -0.1485(7)
H10 H -0.5190 0.8619 -0.0738
C7 C -0.3301(10) 0.1862(8) -0.2206(7)
N1 N 0.0800(9) 0.2371(7) -0.0766(6)
N2 N 0.1723(13) 0.3008(9) -0.0127(7)
N3 N 0.1954(14) 0.4451(9) -0.0888(8)
N4 N 0.1095(9) 0.4770(7) -0.2009(6)
N5 N -0.5236(9) 0.9057(7) -0.2675(5)
N6 N -0.6779(10) 0.9675(8) -0.3502(6)
N7 N -0.8488(9) 0.9957(7) -0.2780(5)
N8 N -0.7949(9) 0.9543(7) -0.1538(5)
N9 N -0.2466(9) 0.0963(7) -0.1262(6)
S1 S -0.4405(3) 0.3136(3) -0.3537(2)
Co1_2 Co -1.0000 1.0000 0.0000
Co1_3 Co 1.0000 -1.0000 0.0000
C1A C -0.0447(12) -0.3493(9) 0.1931(7)
H1A H 0.0173 -0.3395 0.2604
C2A C -0.1174(12) -0.6291(9) 0.3108(9)
H2A H -0.2481 -0.6218 0.3612
H3A H -0.1138 -0.7110 0.2762
C3A C 0.0631(13) -0.6774(9) 0.4024(8)
H4A H 0.0622 -0.5922 0.4327
H5A H 0.0383 -0.7707 0.4791
C4A C 0.2809(11) -0.7145(9) 0.3418(7)
H6A H 0.3854 -0.7254 0.4014
H7A H 0.3022 -0.6267 0.2597
C5A C 0.3076(10) -0.8654(9) 0.3157(7)
H8A H 0.2111 -0.8518 0.2505
H9A H 0.2761 -0.9519 0.3963
C6A C 0.5967(11) -0.8994(8) 0.1485(7)
H10A H 0.5190 -0.8619 0.0738
C7A C 0.3301(10) -0.1862(8) 0.2206(7)
N1A N -0.0800(9) -0.2371(7) 0.0766(6)
N2A N -0.1723(13) -0.3008(9) 0.0127(7)
N3A N -0.1954(14) -0.4451(9) 0.0888(8)
N4A N -0.1095(9) -0.4770(7) 0.2009(6)
N5A N 0.5236(9) -0.9057(7) 0.2675(5)
N6A N 0.6779(10) -0.9675(8) 0.3502(6)
N7A N 0.8488(9) -0.9957(7) 0.2780(5)
N8A N 0.7949(9) -0.9543(7) 0.1538(5)
N8_2 N 0.2051(9) -0.0457(7) -0.1538(5)
N8A_2 N -0.2051(9) 0.0457(7) 0.1538(5)
N9A N 0.2466(9) -0.0963(7) 0.1262(6)
S1A S 0.4405(3) -0.3136(3) 0.3537(2)
loop_
_geom_bond_atom_site_label_1
_geom_bond_atom_site_label_2
_geom_bond_site_symmetry_1
_geom_bond_site_symmetry_2
Co1 N1 1_555 1_555
C1 H1 1_555 1_555
C2 H2 1_555 1_555
H3 C2 1_555 1_555
C3 C2 1_555 1_555
H4 C3 1_555 1_555
H5 C3 1_555 1_555
C4 C3 1_555 1_555
H6 C4 1_555 1_555
H7 C4 1_555 1_555
C5 C4 1_555 1_555
H8 C5 1_555 1_555
H9 C5 1_555 1_555
C6 H10 1_555 1_555
C7 N9 1_555 1_555
N1 C1 1_555 1_555
N2 N1 1_555 1_555
N3 N2 1_555 1_555
N4 C1 1_555 1_555
N5 C5 1_555 1_555
N6 N5 1_555 1_555
N7 N6 1_555 1_555
N8 C6 1_555 1_555
N9 Co1 1_555 1_555
S1 C7 1_555 1_555
Co1_2 N8 1_555 1_555
Co1_3 N8A 1_555 1_555
C1A H1A 1_555 1_555
C2A H2A 1_555 1_555
H3A C2A 1_555 1_555
C3A C2A 1_555 1_555
H4A C3A 1_555 1_555
H5A C3A 1_555 1_555
C4A C3A 1_555 1_555
H6A C4A 1_555 1_555
H7A C4A 1_555 1_555
C5A C4A 1_555 1_555
H8A C5A 1_555 1_555
H9A C5A 1_555 1_555
C6A H10A 1_555 1_555
C7A N9A 1_555 1_555
N1A Co1 1_555 1_555
N2A N1A 1_555 1_555
N3A N2A 1_555 1_555
N4A C1A 1_555 1_555
N5A C5A 1_555 1_555
N6A N5A 1_555 1_555
N7A N6A 1_555 1_555
N8A C6A 1_555 1_555
N8_2 Co1 1_555 1_555
N8A_2 Co1 1_555 1_555
N9A Co1 1_555 1_555
S1A C7A 1_555 1_555
C2 N4 1_555 1_555
C6 N5 1_555 1_555
N3 N4 1_555 1_555
N7 N8 1_555 1_555
C1A N1A 1_555 1_555
C2A N4A 1_555 1_555
C6A N5A 1_555 1_555
N3A N4A 1_555 1_555
N7A N8A 1_555 1_555

#END
