
#######################################################################
#
#                 Cambridge Crystallographic Data Centre
#                                CCDC 
#
#######################################################################
#
# If this CIF has been generated from an entry in the Cambridge 
# Structural Database, then it will include bibliographic, chemical, 
# crystal, experimental, refinement or atomic coordinate data resulting 
# from the CCDC's data processing and validation procedures.
#
#######################################################################

data_SOCDEV
_symmetry_cell_setting           monoclinic
_symmetry_space_group_name_H-M   'P 21/n'
_symmetry_Int_Tables_number      14
_space_group_name_Hall           '-P 2yn'
loop_
_symmetry_equiv_pos_site_id
_symmetry_equiv_pos_as_xyz
1 x,y,z
2 1/2-x,1/2+y,1/2-z
3 -x,-y,-z
4 1/2+x,1/2-y,1/2+z
_cell_length_a                   4.5170(6)
_cell_length_b                   12.3513(15)
_cell_length_c                   11.1973(13)
_cell_angle_alpha                90
_cell_angle_beta                 96.199(2)
_cell_angle_gamma                90
_cell_volume                     621.054
loop_
_atom_site_label
_atom_site_type_symbol
_atom_site_fract_x
_atom_site_fract_y
_atom_site_fract_z
Ag1 Ag 0.01314(4) 0.762275(15) 0.904556(13)
N1 N 0.2416(4) 0.71657(15) 0.75938(16)
N2 N 0.3836(4) 0.69752(16) 0.57322(15)
C1 C 0.2151(6) 0.75090(16) 0.6454(2)
C2 C 0.5317(4) 0.62050(17) 0.64677(17)
C3 C 0.7352(5) 0.54098(19) 0.6216(2)
H1 H 0.7912 0.5323 0.5447
C4 C 0.8507(5) 0.47538(19) 0.7159(2)
C5 C 0.7698(5) 0.4889(2) 0.8321(2)
C6 C 0.5657(5) 0.56743(18) 0.85699(18)
H2 H 0.5109 0.5760 0.9341
C7 C 0.4457(4) 0.63299(17) 0.76290(17)
H3 H 0.085(5) 0.8105(19) 0.6165(18)
H4 H 0.984(6) 0.423(2) 0.702(2)
H5 H 0.858(6) 0.444(2) 0.906(2)
Ag1C Ag 0.51314(4) 0.737725(15) 0.404556(13)
N2C N -0.1164(4) 0.80248(16) 1.07322(15)
loop_
_geom_bond_atom_site_label_1
_geom_bond_atom_site_label_2
_geom_bond_site_symmetry_1
_geom_bond_site_symmetry_2
Ag1 N1 1_555 1_555
N1 C1 1_555 1_555
N2 C1 1_555 1_555
C1 H3 1_555 1_555
C2 N2 1_555 1_555
C3 C2 1_555 1_555
H1 C3 1_555 1_555
C4 C3 1_555 1_555
C5 C4 1_555 1_555
C6 C5 1_555 1_555
H2 C6 1_555 1_555
C7 N1 1_555 1_555
H4 C4 1_555 1_555
H5 C5 1_555 1_555
Ag1C N2 1_555 1_555
N2C Ag1 1_555 1_555
C2 C7 1_555 1_555
C6 C7 1_555 1_555

#END
