
#######################################################################
#
#                 Cambridge Crystallographic Data Centre
#                                CCDC 
#
#######################################################################
#
# If this CIF has been generated from an entry in the Cambridge 
# Structural Database, then it will include bibliographic, chemical, 
# crystal, experimental, refinement or atomic coordinate data resulting 
# from the CCDC's data processing and validation procedures.
#
#######################################################################

data_SOCDIY
_symmetry_cell_setting           monoclinic
_symmetry_space_group_name_H-M   'P 21/c'
_symmetry_Int_Tables_number      14
_space_group_name_Hall           '-P 2ybc'
loop_
_symmetry_equiv_pos_site_id
_symmetry_equiv_pos_as_xyz
1 x,y,z
2 -x,1/2+y,1/2-z
3 -x,-y,-z
4 x,1/2-y,1/2+z
_cell_length_a                   8.2816(17)
_cell_length_b                   18.087(4)
_cell_length_c                   6.9398(14)
_cell_angle_alpha                90
_cell_angle_beta                 103.89(3)
_cell_angle_gamma                90
_cell_volume                     1009.11
loop_
_atom_site_label
_atom_site_type_symbol
_atom_site_fract_x
_atom_site_fract_y
_atom_site_fract_z
Ni1 Ni 0.0000 0.5000 0.5000
S1 S 0.11670(4) 0.297034(17) 0.10688(5)
C1 C 0.28113(15) 0.39105(7) 0.69952(18)
H1 H 0.268(2) 0.3602(10) 0.589(3)
C2 C 0.83228(14) 0.42021(7) 0.78530(17)
H2 H 0.890(2) 0.4472(10) 0.885(3)
C3 C 0.49892(14) 0.31805(7) 0.94305(19)
H3 H 0.479(2) 0.3012(9) 1.063(3)
H4 H 0.4673(19) 0.2813(9) 0.849(2)
C4 C 0.68100(14) 0.33896(7) 0.97822(17)
H5 H 0.746(2) 0.2984(10) 1.024(3)
H6 H 0.709(2) 0.3776(10) 1.075(3)
C5 C 0.07501(14) 0.37063(7) 0.22288(17)
N1 N 0.19906(12) 0.45280(6) 0.70994(14)
N2 N 0.25852(13) 0.47940(6) 0.89736(16)
N3 N 0.37192(13) 0.43593(6) 0.99715(16)
N4 N 0.38835(12) 0.38036(6) 0.87408(15)
N5 N 0.72218(12) 0.36811(5) 0.79893(15)
N6 N 0.65896(14) 0.34031(6) 0.61526(16)
N7 N 0.72968(14) 0.37580(6) 0.49515(16)
N8 N 0.83875(12) 0.42622(6) 0.59832(15)
N9 N 0.04087(12) 0.42365(6) 0.29994(15)
Ni1_2 Ni 1.0000 0.5000 0.5000
Ni1_3 Ni -1.0000 0.5000 0.5000
S1B S -0.11670(4) 0.702966(17) 0.89312(5)
C1B C -0.28113(15) 0.60895(7) 0.30048(18)
H1B H -0.268(2) 0.6398(10) 0.411(3)
C2B C -0.83228(14) 0.57979(7) 0.21470(17)
H2B H -0.890(2) 0.5528(10) 0.115(3)
C3B C -0.49892(14) 0.68195(7) 0.05695(19)
H3B H -0.479(2) 0.6988(9) -0.063(3)
H4B H -0.4673(19) 0.7187(9) 0.151(2)
C4B C -0.68100(14) 0.66104(7) 0.02178(17)
H5B H -0.746(2) 0.7016(10) -0.024(3)
H6B H -0.709(2) 0.6224(10) -0.075(3)
C5B C -0.07501(14) 0.62937(7) 0.77712(17)
N1B N -0.19906(12) 0.54720(6) 0.29006(14)
N2B N -0.25852(13) 0.52060(6) 0.10264(16)
N3B N -0.37192(13) 0.56407(6) 0.00285(16)
N4B N -0.38835(12) 0.61964(6) 0.12592(15)
N5B N -0.72218(12) 0.63189(5) 0.20107(15)
N6B N -0.65896(14) 0.65969(6) 0.38474(16)
N7B N -0.72968(14) 0.62420(6) 0.50485(16)
N8B N -0.83875(12) 0.57378(6) 0.40168(15)
N8_2 N -0.16125(12) 0.42622(6) 0.59832(15)
N8B_2 N 0.16125(12) 0.57378(6) 0.40168(15)
N9B N -0.04087(12) 0.57635(6) 0.70006(15)
loop_
_geom_bond_atom_site_label_1
_geom_bond_atom_site_label_2
_geom_bond_site_symmetry_1
_geom_bond_site_symmetry_2
Ni1 N1 1_555 1_555
S1 C5 1_555 1_555
C1 H1 1_555 1_555
C2 H2 1_555 1_555
C3 H3 1_555 1_555
H4 C3 1_555 1_555
C4 C3 1_555 1_555
H5 C4 1_555 1_555
H6 C4 1_555 1_555
C5 N9 1_555 1_555
N1 C1 1_555 1_555
N2 N1 1_555 1_555
N3 N2 1_555 1_555
N4 C1 1_555 1_555
N5 C2 1_555 1_555
N6 N5 1_555 1_555
N7 N6 1_555 1_555
N8 C2 1_555 1_555
N9 Ni1 1_555 1_555
Ni1_2 N8 1_555 1_555
Ni1_3 N8B 1_555 1_555
S1B C5B 1_555 1_555
C1B H1B 1_555 1_555
C2B H2B 1_555 1_555
C3B H3B 1_555 1_555
H4B C3B 1_555 1_555
C4B C3B 1_555 1_555
H5B C4B 1_555 1_555
H6B C4B 1_555 1_555
C5B N9B 1_555 1_555
N1B Ni1 1_555 1_555
N2B N1B 1_555 1_555
N3B N2B 1_555 1_555
N4B C1B 1_555 1_555
N5B C2B 1_555 1_555
N6B N5B 1_555 1_555
N7B N6B 1_555 1_555
N8B C2B 1_555 1_555
N8_2 Ni1 1_555 1_555
N8B_2 Ni1 1_555 1_555
N9B Ni1 1_555 1_555
C3 N4 1_555 1_555
C4 N5 1_555 1_555
N3 N4 1_555 1_555
N7 N8 1_555 1_555
C1B N1B 1_555 1_555
C3B N4B 1_555 1_555
C4B N5B 1_555 1_555
N3B N4B 1_555 1_555
N7B N8B 1_555 1_555

#END
