
#######################################################################
#
#                 Cambridge Crystallographic Data Centre
#                                CCDC 
#
#######################################################################
#
# If this CIF has been generated from an entry in the Cambridge 
# Structural Database, then it will include bibliographic, chemical, 
# crystal, experimental, refinement or atomic coordinate data resulting 
# from the CCDC's data processing and validation procedures.
#
#######################################################################

data_SOCDEU
_symmetry_cell_setting           triclinic
_symmetry_space_group_name_H-M   'P -1'
_symmetry_Int_Tables_number      2
_space_group_name_Hall           '-P 1'
loop_
_symmetry_equiv_pos_site_id
_symmetry_equiv_pos_as_xyz
1 x,y,z
2 -x,-y,-z
_cell_length_a                   6.5009(2)
_cell_length_b                   9.1392(3)
_cell_length_c                   10.9637(4)
_cell_angle_alpha                67.536(1)
_cell_angle_beta                 83.281(1)
_cell_angle_gamma                78.873(1)
_cell_volume                     589.971
loop_
_atom_site_label
_atom_site_type_symbol
_atom_site_fract_x
_atom_site_fract_y
_atom_site_fract_z
Co1 Co 1.0000 0.0000 0.0000
S1 S 0.55843(4) 0.31876(3) -0.35425(2)
N1 N 1.07997(13) 0.23959(9) -0.07553(8)
N2 N 1.17665(16) 0.30513(11) -0.01034(9)
N3 N 1.19873(16) 0.45098(11) -0.08516(9)
N4 N 1.11406(12) 0.48211(9) -0.20049(8)
N5 N 0.48147(12) 0.91002(9) -0.27023(7)
N6 N 0.32407(13) 0.97728(10) -0.35425(8)
N7 N 0.15607(13) 1.00467(10) -0.28477(8)
N8 N 0.20181(12) 0.95541(9) -0.15549(7)
N9 N 0.74999(12) 0.09570(10) -0.12512(8)
C1 C 1.04435(16) 0.35165(11) -0.19362(9)
H1 H 0.978(2) 0.3404(18) -0.2592(15)
C2 C 1.12455(15) 0.63539(11) -0.31147(10)
H2 H 1.119(2) 0.7148(17) -0.2740(14)
H3 H 1.258(2) 0.6243(17) -0.3573(14)
C3 C 0.94726(15) 0.68033(11) -0.40477(9)
H4 H 0.952(2) 0.5935(17) -0.4370(14)
H5 H 0.981(2) 0.7712(19) -0.4806(16)
C4 C 0.72645(15) 0.71684(11) -0.34663(9)
H6 H 0.695(2) 0.6270(18) -0.2658(14)
C5 C 0.69804(14) 0.86907(12) -0.31655(9)
H7 H 0.724(2) 0.9608(16) -0.3945(14)
C6 C 0.40433(15) 0.89745(11) -0.14918(9)
H8 H 0.483(2) 0.8558(17) -0.0733(14)
C7 C 0.66779(14) 0.18797(11) -0.22000(9)
H9 H 0.783(2) 0.8582(16) -0.2463(13)
H10 H 0.626(2) 0.7321(17) -0.4115(14)
Co1_2 Co 0.0000 1.0000 0.0000
Co1_3 Co 2.0000 -1.0000 0.0000
S1A S 1.44157(4) -0.31876(3) 0.35425(2)
N1A N 0.92003(13) -0.23959(9) 0.07553(8)
N2A N 0.82335(16) -0.30513(11) 0.01034(9)
N3A N 0.80127(16) -0.45098(11) 0.08516(9)
N4A N 0.88594(12) -0.48211(9) 0.20049(8)
N5A N 1.51853(12) -0.91002(9) 0.27023(7)
N6A N 1.67593(13) -0.97728(10) 0.35425(8)
N7A N 1.84393(13) -1.00467(10) 0.28477(8)
N8A N 1.79819(12) -0.95541(9) 0.15549(7)
N8_2 N 1.20181(12) -0.04459(9) -0.15549(7)
N8A_2 N 0.79819(12) 0.04459(9) 0.15549(7)
N9A N 1.25001(12) -0.09570(10) 0.12512(8)
C1A C 0.95565(16) -0.35165(11) 0.19362(9)
H1A H 1.022(2) -0.3404(18) 0.2592(15)
C2A C 0.87545(15) -0.63539(11) 0.31147(10)
H2A H 0.881(2) -0.7148(17) 0.2740(14)
H3A H 0.742(2) -0.6243(17) 0.3573(14)
C3A C 1.05274(15) -0.68033(11) 0.40477(9)
H4A H 1.048(2) -0.5935(17) 0.4370(14)
H5A H 1.019(2) -0.7712(19) 0.4806(16)
C4A C 1.27355(15) -0.71684(11) 0.34663(9)
H6A H 1.305(2) -0.6270(18) 0.2658(14)
C5A C 1.30196(14) -0.86907(12) 0.31655(9)
H7A H 1.276(2) -0.9608(16) 0.3945(14)
C6A C 1.59567(15) -0.89745(11) 0.14918(9)
H8A H 1.517(2) -0.8558(17) 0.0733(14)
C7A C 1.33221(14) -0.18797(11) 0.22000(9)
H9A H 1.217(2) -0.8582(16) 0.2463(13)
H10A H 1.374(2) -0.7321(17) 0.4115(14)
loop_
_geom_bond_atom_site_label_1
_geom_bond_atom_site_label_2
_geom_bond_site_symmetry_1
_geom_bond_site_symmetry_2
Co1 N1 1_555 1_555
S1 C7 1_555 1_555
N1 N2 1_555 1_555
N2 N3 1_555 1_555
N3 N4 1_555 1_555
N4 C1 1_555 1_555
N5 N6 1_555 1_555
N6 N7 1_555 1_555
N7 N8 1_555 1_555
N8 C6 1_555 1_555
N9 Co1 1_555 1_555
C1 N1 1_555 1_555
H1 C1 1_555 1_555
C2 N4 1_555 1_555
H2 C2 1_555 1_555
H3 C2 1_555 1_555
C3 C2 1_555 1_555
H4 C3 1_555 1_555
H5 C3 1_555 1_555
C4 C3 1_555 1_555
H6 C4 1_555 1_555
C5 N5 1_555 1_555
H7 C5 1_555 1_555
C6 N5 1_555 1_555
H8 C6 1_555 1_555
C7 N9 1_555 1_555
H9 C5 1_555 1_555
H10 C4 1_555 1_555
Co1_2 N8 1_555 1_555
Co1_3 N8A 1_555 1_555
S1A C7A 1_555 1_555
N1A Co1 1_555 1_555
N2A N1A 1_555 1_555
N3A N2A 1_555 1_555
N4A N3A 1_555 1_555
N5A N6A 1_555 1_555
N6A N7A 1_555 1_555
N7A N8A 1_555 1_555
N8A C6A 1_555 1_555
N8_2 Co1 1_555 1_555
N8A_2 Co1 1_555 1_555
N9A Co1 1_555 1_555
C1A N1A 1_555 1_555
H1A C1A 1_555 1_555
C2A N4A 1_555 1_555
H2A C2A 1_555 1_555
H3A C2A 1_555 1_555
C3A C2A 1_555 1_555
H4A C3A 1_555 1_555
H5A C3A 1_555 1_555
C4A C3A 1_555 1_555
H6A C4A 1_555 1_555
C5A N5A 1_555 1_555
H7A C5A 1_555 1_555
C6A N5A 1_555 1_555
H8A C6A 1_555 1_555
C7A N9A 1_555 1_555
H9A C5A 1_555 1_555
H10A C4A 1_555 1_555
C4 C5 1_555 1_555
N4A C1A 1_555 1_555
C4A C5A 1_555 1_555

#END
