
#######################################################################
#
#                 Cambridge Crystallographic Data Centre
#                                CCDC 
#
#######################################################################
#
# If this CIF has been generated from an entry in the Cambridge 
# Structural Database, then it will include bibliographic, chemical, 
# crystal, experimental, refinement or atomic coordinate data resulting 
# from the CCDC's data processing and validation procedures.
#
#######################################################################

data_SOCFUM
_symmetry_cell_setting           triclinic
_symmetry_space_group_name_H-M   'P -1'
_symmetry_Int_Tables_number      2
_space_group_name_Hall           '-P 1'
loop_
_symmetry_equiv_pos_site_id
_symmetry_equiv_pos_as_xyz
1 x,y,z
2 -x,-y,-z
_cell_length_a                   10.900(5)
_cell_length_b                   12.738(5)
_cell_length_c                   12.821(5)
_cell_angle_alpha                104.64(5)
_cell_angle_beta                 114.11(5)
_cell_angle_gamma                94.68(5)
_cell_volume                     1537.26
loop_
_atom_site_label
_atom_site_type_symbol
_atom_site_fract_x
_atom_site_fract_y
_atom_site_fract_z
Ca1 Ca 0.09350(9) -0.09588(8) 0.58535(8)
O1 O -0.3694(3) -0.5857(3) 0.6529(3)
O2 O -0.1030(4) -0.1610(3) 0.5878(4)
O3 O -0.3052(4) -0.1223(3) 0.5630(3)
O4 O -0.1691(4) -0.5416(3) 0.9545(3)
O5 O -0.1419(4) -0.0473(3) 1.2304(3)
O6 O -0.0334(3) -0.1006(3) 1.3890(3)
O7 O -0.5465(4) -0.6072(3) 0.8231(3)
O8 O -0.8781(4) -0.2921(3) 0.5485(3)
O9 O -0.7483(4) -0.1714(3) 0.7269(3)
O10 O 0.2749(4) -0.0284(3) 0.5502(3)
H1 H 0.2753 0.0130 0.5211
H2 H 0.3481 -0.0401 0.5744
N1 N -0.3535(4) -0.7248(3) 0.7842(4)
C1 C -0.3680(5) -0.7672(4) 0.6578(4)
H8 H -0.3243 -0.8301 0.6496
H9 H -0.4644 -0.7909 0.6004
C2 C -0.3004(5) -0.6746(4) 0.6338(5)
H10 H -0.2031 -0.6522 0.6887
H11 H -0.3114 -0.6972 0.5518
C3 C -0.3231(5) -0.4865(4) 0.6456(4)
C4 C -0.4071(5) -0.4098(4) 0.6434(4)
H12 H -0.4872 -0.4260 0.6511
C5 C -0.3707(5) -0.3096(4) 0.6299(4)
H13 H -0.4277 -0.2588 0.6271
C6 C -0.2496(5) -0.2832(4) 0.6201(4)
C7 C -0.1643(5) -0.3574(4) 0.6288(5)
H14 H -0.0811 -0.3390 0.6268
C8 C -0.1999(5) -0.4598(4) 0.6405(5)
H15 H -0.1417 -0.5098 0.6450
C9 C -0.2159(5) -0.1804(4) 0.5903(4)
C10 C -0.2178(5) -0.7337(4) 0.8758(4)
H16 H -0.1503 -0.7318 0.8447
H17 H -0.2273 -0.8036 0.8917
C11 C -0.1699(5) -0.6384(4) 0.9911(4)
H18 H -0.2326 -0.6423 1.0268
H19 H -0.0787 -0.6391 1.0489
C12 C -0.1417(5) -0.4401(4) 1.0394(4)
C13 C -0.1694(5) -0.3528(4) 0.9926(4)
H20 H -0.2004 -0.3640 0.9107
C14 C -0.1497(5) -0.2483(4) 1.0713(5)
H21 H -0.1699 -0.1896 1.0408
C15 C -0.1004(5) -0.2294(4) 1.1951(4)
C16 C -0.0703(5) -0.3184(4) 1.2385(5)
H22 H -0.0347 -0.3070 1.3208
C17 C -0.0924(5) -0.4242(4) 1.1613(4)
H23 H -0.0742 -0.4834 1.1913
C18 C -0.0894(5) -0.1187(4) 1.2768(4)
C19 C -0.4728(5) -0.7748(4) 0.7983(5)
H24 H -0.4465 -0.7641 0.8829
H25 H -0.4993 -0.8539 0.7561
C20 C -0.5920(5) -0.7208(4) 0.7482(5)
H26 H -0.6151 -0.7260 0.6653
H27 H -0.6721 -0.7559 0.7515
C21 C -0.6165(5) -0.5300(4) 0.7792(4)
C22 C -0.7317(5) -0.5562(4) 0.6707(4)
H28 H -0.7704 -0.6297 0.6228
C23 C -0.7894(5) -0.4698(4) 0.6340(5)
H29 H -0.8675 -0.4868 0.5609
C24 C -0.7335(5) -0.3608(4) 0.7030(4)
C25 C -0.6194(5) -0.3371(4) 0.8156(5)
H30 H -0.5821 -0.2639 0.8651
C26 C -0.5625(5) -0.4211(4) 0.8532(5)
H31 H -0.4877 -0.4048 0.9283
C27 C -0.7919(5) -0.2700(4) 0.6549(4)
Ca1A Ca -0.09350(9) 0.09588(8) 1.41465(8)
Ca1_2 Ca 0.09350(9) -0.09588(8) 1.58535(8)
Ca1_3 Ca -0.90650(9) -0.09588(8) 0.58535(8)
O5A O 0.1419(4) 0.0473(3) 0.7696(3)
O6_2 O -0.0334(3) -0.1006(3) 0.3890(3)
O8_2 O 0.1219(4) -0.2921(3) 0.5485(3)
O9_2 O 0.2517(4) -0.1714(3) 0.7269(3)
O11 O -0.4496(4) -0.0216(3) 0.6686(4)
H3 H -0.3550 -0.0062 0.6503
H4 H -0.4113 -0.0404 0.7367
O12 O -0.4789(6) -0.0600(5) 0.8522(5)
H5 H -0.4313 -0.1050 0.9111
O13 O -0.5920(5) 0.1114(4) 0.9420(4)
H6 H -0.5763 0.0472 0.8873
H7 H -0.6399 0.1355 0.8896
O14 O -0.233(3) 0.1490(10) 1.0575(14)
O15 O -0.073(2) -0.0393(15) 0.8983(9)
O16 O 0.080(3) -0.048(2) 0.988(3)
loop_
_geom_bond_atom_site_label_1
_geom_bond_atom_site_label_2
_geom_bond_site_symmetry_1
_geom_bond_site_symmetry_2
Ca1 O2 1_555 1_555
O1 C2 1_555 1_555
O2 C9 1_555 1_555
O3 C9 1_555 1_555
O4 C11 1_555 1_555
O5 C18 1_555 1_555
O6 C18 1_555 1_555
O7 C20 1_555 1_555
O8 C27 1_555 1_555
O9 C27 1_555 1_555
O10 Ca1 1_555 1_555
H1 O10 1_555 1_555
H2 O10 1_555 1_555
O11 H3 1_555 1_555
H4 O11 1_555 1_555
O12 H5 1_555 1_555
O13 H6 1_555 1_555
H7 O13 1_555 1_555
N1 C1 1_555 1_555
C1 H8 1_555 1_555
H9 C1 1_555 1_555
C2 C1 1_555 1_555
H10 C2 1_555 1_555
H11 C2 1_555 1_555
C3 O1 1_555 1_555
C4 C3 1_555 1_555
H12 C4 1_555 1_555
C5 C4 1_555 1_555
H13 C5 1_555 1_555
C6 C5 1_555 1_555
C7 C6 1_555 1_555
H14 C7 1_555 1_555
C8 C3 1_555 1_555
H15 C8 1_555 1_555
C9 C6 1_555 1_555
C10 N1 1_555 1_555
H16 C10 1_555 1_555
H17 C10 1_555 1_555
C11 C10 1_555 1_555
H18 C11 1_555 1_555
H19 C11 1_555 1_555
C12 O4 1_555 1_555
C13 C12 1_555 1_555
H20 C13 1_555 1_555
C14 C13 1_555 1_555
H21 C14 1_555 1_555
C15 C14 1_555 1_555
C16 C15 1_555 1_555
H22 C16 1_555 1_555
C17 C12 1_555 1_555
H23 C17 1_555 1_555
C18 C15 1_555 1_555
C19 N1 1_555 1_555
H24 C19 1_555 1_555
H25 C19 1_555 1_555
C20 C19 1_555 1_555
H26 C20 1_555 1_555
H27 C20 1_555 1_555
C21 O7 1_555 1_555
C22 C21 1_555 1_555
H28 C22 1_555 1_555
C23 C22 1_555 1_555
H29 C23 1_555 1_555
C24 C23 1_555 1_555
C25 C24 1_555 1_555
H30 C25 1_555 1_555
C26 C21 1_555 1_555
H31 C26 1_555 1_555
C27 C24 1_555 1_555
Ca1A O5 1_555 1_555
Ca1_2 O6 1_555 1_555
Ca1_3 O8 1_555 1_555
O5A Ca1 1_555 1_555
O6_2 Ca1 1_555 1_555
O8_2 Ca1 1_555 1_555
O9_2 Ca1 1_555 1_555
O9 Ca1_3 1_555 1_555
C7 C8 1_555 1_555
C16 C17 1_555 1_555
C25 C26 1_555 1_555

#END
