
#######################################################################
#
#                 Cambridge Crystallographic Data Centre
#                                CCDC 
#
#######################################################################
#
# If this CIF has been generated from an entry in the Cambridge 
# Structural Database, then it will include bibliographic, chemical, 
# crystal, experimental, refinement or atomic coordinate data resulting 
# from the CCDC's data processing and validation procedures.
#
#######################################################################

data_SOCGEX
_symmetry_cell_setting           triclinic
_symmetry_space_group_name_H-M   'P -1'
_symmetry_Int_Tables_number      2
_space_group_name_Hall           '-P 1'
loop_
_symmetry_equiv_pos_site_id
_symmetry_equiv_pos_as_xyz
1 x,y,z
2 -x,-y,-z
_cell_length_a                   10.053(5)
_cell_length_b                   11.411(4)
_cell_length_c                   13.223(5)
_cell_angle_alpha                67.482(3)
_cell_angle_beta                 80.635(5)
_cell_angle_gamma                86.437(5)
_cell_volume                     1382.55
loop_
_atom_site_label
_atom_site_type_symbol
_atom_site_fract_x
_atom_site_fract_y
_atom_site_fract_z
Ba1 Ba -0.61533(10) 0.56296(12) 0.35287(10)
O1 O -1.1484(7) -0.0368(8) 0.6560(6)
O2 O -0.5918(9) 0.2543(9) 0.5234(8)
O3 O -0.7253(10) 0.4114(9) 0.4336(8)
O4 O -1.1641(7) -0.1129(7) 0.9390(6)
O5 O -0.6042(8) -0.1946(10) 1.1268(8)
O6 O -0.7398(8) -0.3351(9) 1.2630(7)
O7 O -1.1395(7) -0.3610(8) 0.8682(7)
O8 O -0.5183(9) -0.4980(10) 0.8061(9)
O9 O -0.5832(7) -0.5486(8) 0.6777(7)
O10 O -0.6265(7) 0.6294(8) 0.4760(7)
N1 N -1.3319(8) -0.1774(8) 0.8269(7)
C1 C -1.3708(11) -0.1062(12) 0.7153(9)
H1 H -1.4648 -0.0814 0.7229
H2 H -1.3597 -0.1601 0.6729
C2 C -1.2814(11) 0.0127(13) 0.6544(10)
H3 H -1.2994 0.0564 0.5790
H4 H -1.2960 0.0709 0.6927
C3 C -1.0452(10) 0.0533(11) 0.6137(9)
C4 C -0.9160(10) 0.0000(12) 0.6274(10)
H5 H -0.9041 -0.0873 0.6601
C5 C -0.8069(11) 0.0827(12) 0.5901(10)
H6 H -0.7206 0.0503 0.5997
C6 C -0.8236(11) 0.2096(11) 0.5401(8)
C7 C -0.9503(12) 0.2581(13) 0.5280(10)
H7 H -0.9612 0.3454 0.4949
C8 C -1.0663(13) 0.1784(12) 0.5646(11)
H8 H -1.1523 0.2114 0.5550
C9 C -0.7031(12) 0.3012(13) 0.4957(10)
C10 C -1.3853(10) -0.1207(12) 0.9103(9)
H9 H -1.4757 -0.1521 0.9443
H10 H -1.3900 -0.0292 0.8737
C11 C -1.2952(11) -0.1544(12) 0.9983(10)
H11 H -1.3243 -0.1113 1.0487
H12 H -1.2960 -0.2452 1.0405
C12 C -1.0579(9) -0.1443(9) 1.0004(8)
C13 C -1.0753(11) -0.2016(11) 1.1117(9)
H13 H -1.1616 -0.2207 1.1516
C14 C -0.9629(10) -0.2320(11) 1.1664(9)
H14 H -0.9744 -0.2704 1.2433
C15 C -0.8340(10) -0.2051(10) 1.1068(8)
C16 C -0.8185(10) -0.1420(11) 0.9943(9)
H15 H -0.7332 -0.1181 0.9539
C17 C -0.9323(11) -0.1139(11) 0.9409(9)
H16 H -0.9222 -0.0741 0.8642
C18 C -0.7134(10) -0.2483(11) 1.1678(9)
C19 C -1.3642(10) -0.3157(11) 0.8679(11)
H17 H -1.4478 -0.3265 0.8448
H18 H -1.3760 -0.3516 0.9482
C20 C -1.2526(11) -0.3839(12) 0.8229(12)
H19 H -1.2717 -0.4738 0.8487
H20 H -1.2369 -0.3485 0.7426
C21 C -1.0129(10) -0.4012(10) 0.8350(10)
C22 C -0.9830(10) -0.4518(11) 0.7535(10)
H21 H -1.0497 -0.4618 0.7163
C23 C -0.8518(11) -0.4864(12) 0.7294(10)
H22 H -0.8304 -0.5211 0.6756
C24 C -0.7513(10) -0.4714(11) 0.7826(9)
C25 C -0.7850(11) -0.4160(12) 0.8624(11)
H23 H -0.7176 -0.4003 0.8962
C26 C -0.9136(11) -0.3859(12) 0.8900(11)
H24 H -0.9357 -0.3547 0.9462
C27 C -0.6113(10) -0.5087(11) 0.7536(10)
Ba1_2 Ba -0.61533(10) -0.43704(12) 1.35287(10)
Ba1A Ba -0.38467(10) -0.56296(12) 0.64713(10)
O6_2 O -0.7398(8) 0.6649(9) 0.2630(7)
O9A O -0.4168(7) 0.5486(8) 0.3223(7)
O11 O -0.4279(10) -0.1165(10) 1.2417(8)
O12 O -1.408(4) 0.179(4) 0.385(3)
loop_
_geom_bond_atom_site_label_1
_geom_bond_atom_site_label_2
_geom_bond_site_symmetry_1
_geom_bond_site_symmetry_2
Ba1 O3 1_555 1_555
O1 C2 1_555 1_555
O2 C9 1_555 1_555
O3 C9 1_555 1_555
O4 C11 1_555 1_555
O5 C18 1_555 1_555
O6 C18 1_555 1_555
O7 C20 1_555 1_555
O8 C27 1_555 1_555
O9 C27 1_555 1_555
O10 Ba1 1_555 1_555
N1 C1 1_555 1_555
C1 H1 1_555 1_555
H2 C1 1_555 1_555
C2 C1 1_555 1_555
H3 C2 1_555 1_555
H4 C2 1_555 1_555
C3 O1 1_555 1_555
C4 C3 1_555 1_555
H5 C4 1_555 1_555
C5 C4 1_555 1_555
H6 C5 1_555 1_555
C6 C5 1_555 1_555
C7 C6 1_555 1_555
H7 C7 1_555 1_555
C8 C3 1_555 1_555
H8 C8 1_555 1_555
C9 C6 1_555 1_555
C10 N1 1_555 1_555
H9 C10 1_555 1_555
H10 C10 1_555 1_555
C11 C10 1_555 1_555
H11 C11 1_555 1_555
H12 C11 1_555 1_555
C12 O4 1_555 1_555
C13 C12 1_555 1_555
H13 C13 1_555 1_555
C14 C13 1_555 1_555
H14 C14 1_555 1_555
C15 C14 1_555 1_555
C16 C15 1_555 1_555
H15 C16 1_555 1_555
C17 C12 1_555 1_555
H16 C17 1_555 1_555
C18 C15 1_555 1_555
C19 N1 1_555 1_555
H17 C19 1_555 1_555
H18 C19 1_555 1_555
C20 C19 1_555 1_555
H19 C20 1_555 1_555
H20 C20 1_555 1_555
C21 O7 1_555 1_555
C22 C21 1_555 1_555
H21 C22 1_555 1_555
C23 C22 1_555 1_555
H22 C23 1_555 1_555
C24 C23 1_555 1_555
C25 C24 1_555 1_555
H23 C25 1_555 1_555
C26 C21 1_555 1_555
H24 C26 1_555 1_555
C27 C24 1_555 1_555
Ba1_2 O6 1_555 1_555
Ba1A O9 1_555 1_555
O6_2 Ba1 1_555 1_555
O9A Ba1 1_555 1_555
C7 C8 1_555 1_555
C16 C17 1_555 1_555
C25 C26 1_555 1_555

#END
