
#######################################################################
#
#                 Cambridge Crystallographic Data Centre
#                                CCDC 
#
#######################################################################
#
# If this CIF has been generated from an entry in the Cambridge 
# Structural Database, then it will include bibliographic, chemical, 
# crystal, experimental, refinement or atomic coordinate data resulting 
# from the CCDC's data processing and validation procedures.
#
#######################################################################

data_SOCGUN
_symmetry_cell_setting           monoclinic
_symmetry_space_group_name_H-M   'P 21/c'
_symmetry_Int_Tables_number      14
_space_group_name_Hall           '-P 2ybc'
loop_
_symmetry_equiv_pos_site_id
_symmetry_equiv_pos_as_xyz
1 x,y,z
2 -x,1/2+y,1/2-z
3 -x,-y,-z
4 x,1/2-y,1/2+z
_cell_length_a                   10.486(1)
_cell_length_b                   6.5460(6)
_cell_length_c                   20.0075(18)
_cell_angle_alpha                90
_cell_angle_beta                 92.443(1)
_cell_angle_gamma                90
_cell_volume                     1372.09
loop_
_atom_site_label
_atom_site_type_symbol
_atom_site_fract_x
_atom_site_fract_y
_atom_site_fract_z
Zn1 Zn 0.088078(17) 0.38354(3) 0.172546(9)
S1 S 0.08337(4) 0.89585(6) 0.20342(2)
S2 S 0.69314(4) -0.05069(8) 0.12099(3)
O1 O 0.10495(12) 0.70825(18) 0.16411(6)
O2 O 0.18284(13) 0.9249(2) 0.25534(7)
O3 O -0.04527(12) 0.88159(19) 0.23281(6)
O4 O 0.07903(12) 1.06742(18) 0.15484(6)
N1 N 0.28704(13) 0.3739(2) 0.16593(7)
N2 N 0.95032(14) -0.5885(2) 0.09516(7)
N3 N 0.47096(16) -0.1080(3) 0.06642(9)
N4 N 0.54459(16) -0.2670(3) 0.04495(9)
C1 C 0.36061(17) 0.5224(3) 0.19446(9)
H1 H 0.3210 0.6341 0.2135
C2 C 0.49264(18) 0.5145(3) 0.19639(10)
H2 H 0.5405 0.6181 0.2171
C3 C 0.55286(17) 0.3509(3) 0.16712(9)
H3 H 0.6415 0.3431 0.1679
C4 C 0.47829(16) 0.1980(3) 0.13651(9)
C5 C 0.34565(16) 0.2155(3) 0.13751(9)
H4 H 0.2957 0.1130 0.1176
C6 C 0.53496(16) 0.0177(3) 0.10577(9)
C7 C 0.66197(17) -0.2586(3) 0.06921(9)
C8 C 0.75811(16) -0.4171(3) 0.05692(9)
C9 C 0.74387(18) -0.5532(3) 0.00324(9)
H5 H 0.6742 -0.5434 -0.0269
C10 C 0.83582(19) -0.7032(3) -0.00411(9)
H6 H 0.8302 -0.7932 -0.0401
C11 C 0.93618(17) -0.7165(3) 0.04310(9)
H7 H 0.9965 -0.8191 0.0384
C12 C 0.86277(16) -0.4395(3) 0.10146(9)
H8 H 0.8727 -0.3482 0.1369
Zn1A Zn -0.088078(17) 0.88354(3) 0.327454(9)
Zn1_2 Zn 0.088078(17) 1.38354(3) 0.172546(9)
Zn1_3 Zn 1.088078(17) -0.61646(3) 0.172546(9)
O3A O 0.04527(12) 0.38159(19) 0.26719(6)
O4_2 O 0.07903(12) 0.06742(18) 0.15484(6)
N2_2 N -0.04968(14) 0.4115(2) 0.09516(7)
loop_
_geom_bond_atom_site_label_1
_geom_bond_atom_site_label_2
_geom_bond_site_symmetry_1
_geom_bond_site_symmetry_2
Zn1 O1 1_555 1_555
S1 O1 1_555 1_555
S2 C6 1_555 1_555
O2 S1 1_555 1_555
O3 S1 1_555 1_555
O4 S1 1_555 1_555
N1 Zn1 1_555 1_555
N2 C11 1_555 1_555
N3 N4 1_555 1_555
N4 C7 1_555 1_555
C1 N1 1_555 1_555
H1 C1 1_555 1_555
C2 C1 1_555 1_555
H2 C2 1_555 1_555
C3 C2 1_555 1_555
H3 C3 1_555 1_555
C4 C3 1_555 1_555
C5 N1 1_555 1_555
H4 C5 1_555 1_555
C6 N3 1_555 1_555
C7 S2 1_555 1_555
C8 C7 1_555 1_555
C9 C8 1_555 1_555
H5 C9 1_555 1_555
C10 C9 1_555 1_555
H6 C10 1_555 1_555
C11 C10 1_555 1_555
H7 C11 1_555 1_555
C12 N2 1_555 1_555
H8 C12 1_555 1_555
Zn1A O3 1_555 1_555
Zn1_2 O4 1_555 1_555
Zn1_3 N2 1_555 1_555
O3A Zn1 1_555 1_555
O4_2 Zn1 1_555 1_555
N2_2 Zn1 1_555 1_555
C4 C5 1_555 1_555
C4 C6 1_555 1_555
C8 C12 1_555 1_555

#END
