
#######################################################################
#
#                 Cambridge Crystallographic Data Centre
#                                CCDC 
#
#######################################################################
#
# If this CIF has been generated from an entry in the Cambridge 
# Structural Database, then it will include bibliographic, chemical, 
# crystal, experimental, refinement or atomic coordinate data resulting 
# from the CCDC's data processing and validation procedures.
#
#######################################################################

data_SOCGAT
_symmetry_cell_setting           triclinic
_symmetry_space_group_name_H-M   'P -1'
_symmetry_Int_Tables_number      2
_space_group_name_Hall           '-P 1'
loop_
_symmetry_equiv_pos_site_id
_symmetry_equiv_pos_as_xyz
1 x,y,z
2 -x,-y,-z
_cell_length_a                   11.329(5)
_cell_length_b                   12.372(5)
_cell_length_c                   13.340(4)
_cell_angle_alpha                110.228(5)
_cell_angle_beta                 94.941(4)
_cell_angle_gamma                103.332(5)
_cell_volume                     1678.76
loop_
_atom_site_label
_atom_site_type_symbol
_atom_site_fract_x
_atom_site_fract_y
_atom_site_fract_z
Sr1 Sr -0.44476(2) 0.63287(2) 0.94269(2)
O1 O -0.3716(2) 0.13965(18) 0.41720(15)
O2 O -0.47631(19) 0.41271(17) 0.88958(15)
O3 O -0.4867(2) 0.23226(18) 0.88985(16)
O4 O -0.06371(17) 0.31590(18) 0.40693(16)
O5 O 0.30506(19) 0.5412(2) 0.86223(17)
O6 O 0.42988(18) 0.5837(2) 0.75504(16)
O7 O -0.14043(19) 0.01320(18) 0.37194(18)
O8 O -0.1772(3) 0.0389(3) 0.8487(3)
O9 O -0.2860(3) -0.1468(3) 0.7587(3)
N1 N -0.2335(2) 0.1214(2) 0.25372(17)
C1 C -0.3705(3) 0.1074(3) 0.2357(2)
H1 H -0.3932 0.1303 0.1757
H2 H -0.4155 0.0243 0.2176
C2 C -0.4029(3) 0.1856(3) 0.3372(2)
H3 H -0.3558 0.2686 0.3581
H4 H -0.4901 0.1803 0.3269
C3 C -0.3968(2) 0.1875(3) 0.5199(2)
C4 C -0.3878(3) 0.1210(3) 0.5831(2)
H5 H -0.3665 0.0495 0.5551
C5 C -0.4104(3) 0.1606(2) 0.6877(2)
H6 H -0.4037 0.1155 0.7299
C6 C -0.4428(2) 0.2666(2) 0.7310(2)
C7 C -0.4515(3) 0.3321(3) 0.6665(2)
H7 H -0.4731 0.4034 0.6945
C8 C -0.4292(3) 0.2944(3) 0.5612(2)
H8 H -0.4356 0.3395 0.5189
C9 C -0.4695(2) 0.3066(2) 0.8443(2)
C10 C -0.1620(3) 0.2230(3) 0.2261(2)
H9 H -0.1522 0.1930 0.1508
H10 H -0.2069 0.2828 0.2357
C11 C -0.0375(3) 0.2789(3) 0.2988(2)
H11 H 0.0101 0.2212 0.2879
H12 H 0.0083 0.3472 0.2848
C12 C 0.0346(3) 0.3695(2) 0.4914(2)
C13 C 0.0063(3) 0.3903(3) 0.5945(2)
H13 H -0.0755 0.3697 0.6030
C14 C 0.1001(3) 0.4419(3) 0.6846(2)
H14 H 0.0810 0.4534 0.7533
C15 C 0.2231(2) 0.4769(2) 0.6736(2)
C16 C 0.2491(3) 0.4565(3) 0.5701(2)
H15 H 0.3305 0.4795 0.5615
C17 C 0.1560(3) 0.4023(3) 0.4790(2)
H16 H 0.1752 0.3883 0.4101
C18 C 0.3255(3) 0.5376(2) 0.7696(2)
C19 C -0.2018(3) 0.0061(3) 0.1991(3)
H17 H -0.1171 0.0229 0.1878
H18 H -0.2553 -0.0393 0.1289
C20 C -0.2183(3) -0.0652(3) 0.2711(3)
H19 H -0.3036 -0.0862 0.2799
H20 H -0.1934 -0.1380 0.2410
C21 C -0.1591(3) -0.0112(3) 0.4629(3)
C22 C -0.1009(3) 0.0806(3) 0.5605(3)
H21 H -0.0500 0.1515 0.5610
C23 C -0.1176(3) 0.0677(3) 0.6565(3)
H22 H -0.0783 0.1302 0.7219
C24 C -0.1930(3) -0.0382(3) 0.6572(3)
C25 C -0.2467(3) -0.1306(3) 0.5592(3)
H23 H -0.2947 -0.2028 0.5587
C26 C -0.2310(3) -0.1188(3) 0.4613(3)
H24 H -0.2680 -0.1821 0.3958
C27 C -0.2196(4) -0.0493(4) 0.7615(4)
O14 O -0.2668(2) 0.6280(3) 0.8305(2)
H31 H -0.2944 0.6213 0.7563
H32 H -0.2398 0.5714 0.8254
O16 O -0.2503 0.6590 1.0759
H35 H -0.1689 0.6832 1.0698
H36 H -0.2575 0.5925 1.0964
O17 O -0.3859(2) 0.84184(19) 0.93353(19)
H37 H -0.3983 0.9145 0.9678
H38 H -0.3436 0.8461 0.8749
Sr1A Sr -0.55524(2) 0.36713(2) 1.05731(2)
Sr1_2 Sr 0.55524(2) 0.63287(2) 0.94269(2)
O2A O -0.52369(19) 0.58729(17) 1.11042(15)
O3A O -0.5133(2) 0.76774(18) 1.11015(16)
O5_2 O -0.69494(19) 0.5412(2) 0.86223(17)
O6_2 O -0.57012(18) 0.5837(2) 0.75504(16)
O10 O -0.0560(4) 0.8710(5) 0.9161(4)
H25 H -0.0269 0.8470 0.9865
H26 H -0.1620 0.8411 0.8934
O11 O -0.0098(4) 0.7623(4) 1.0534(4)
O12 O 0.1389(6) 0.6169(6) 0.9936(5)
H27 H 0.0835 0.6910 1.0134
H28 H 0.1969 0.6523 0.9455
O13 O -0.1300(5) 0.4665(6) 0.8370(5)
H29 H -0.0322 0.4991 0.8531
H30 H -0.1728 0.4163 0.8932
O15 O -0.3953(3) 0.6149(3) 0.6319(3)
H33 H -0.4732 0.5856 0.6489
H34 H -0.3628 0.7041 0.6571
O18 O -0.3608 1.0960 0.9723
H39 H -0.3800 1.1568 0.9523
H40 H -0.3039 1.0666 0.9206
loop_
_geom_bond_atom_site_label_1
_geom_bond_atom_site_label_2
_geom_bond_site_symmetry_1
_geom_bond_site_symmetry_2
Sr1 O2 1_555 1_555
O1 C2 1_555 1_555
O2 C9 1_555 1_555
O3 C9 1_555 1_555
O4 C11 1_555 1_555
O5 C18 1_555 1_555
O6 C18 1_555 1_555
O7 C20 1_555 1_555
O8 C27 1_555 1_555
O9 C27 1_555 1_555
N1 C1 1_555 1_555
C1 H1 1_555 1_555
H2 C1 1_555 1_555
C2 C1 1_555 1_555
H3 C2 1_555 1_555
H4 C2 1_555 1_555
C3 O1 1_555 1_555
C4 C3 1_555 1_555
H5 C4 1_555 1_555
C5 C4 1_555 1_555
H6 C5 1_555 1_555
C6 C5 1_555 1_555
C7 C6 1_555 1_555
H7 C7 1_555 1_555
C8 C3 1_555 1_555
H8 C8 1_555 1_555
C9 C6 1_555 1_555
C10 N1 1_555 1_555
H9 C10 1_555 1_555
H10 C10 1_555 1_555
C11 C10 1_555 1_555
H11 C11 1_555 1_555
H12 C11 1_555 1_555
C12 O4 1_555 1_555
C13 C12 1_555 1_555
H13 C13 1_555 1_555
C14 C13 1_555 1_555
H14 C14 1_555 1_555
C15 C14 1_555 1_555
C16 C15 1_555 1_555
H15 C16 1_555 1_555
C17 C12 1_555 1_555
H16 C17 1_555 1_555
C18 C15 1_555 1_555
C19 N1 1_555 1_555
H17 C19 1_555 1_555
H18 C19 1_555 1_555
C20 C19 1_555 1_555
H19 C20 1_555 1_555
H20 C20 1_555 1_555
C21 O7 1_555 1_555
C22 C21 1_555 1_555
H21 C22 1_555 1_555
C23 C22 1_555 1_555
H22 C23 1_555 1_555
C24 C23 1_555 1_555
C25 C24 1_555 1_555
H23 C25 1_555 1_555
C26 C21 1_555 1_555
H24 C26 1_555 1_555
C27 C24 1_555 1_555
O10 H25 1_555 1_555
H26 O10 1_555 1_555
O12 H27 1_555 1_555
H28 O12 1_555 1_555
O13 H29 1_555 1_555
H30 O13 1_555 1_555
O14 Sr1 1_555 1_555
H31 O14 1_555 1_555
H32 O14 1_555 1_555
O15 H33 1_555 1_555
H34 O15 1_555 1_555
O16 Sr1 1_555 1_555
H35 O16 1_555 1_555
H36 O16 1_555 1_555
O17 Sr1 1_555 1_555
H37 O17 1_555 1_555
H38 O17 1_555 1_555
O18 H39 1_555 1_555
H40 O18 1_555 1_555
Sr1A O2 1_555 1_555
Sr1_2 O5 1_555 1_555
O2A Sr1 1_555 1_555
O3A Sr1 1_555 1_555
O5_2 Sr1 1_555 1_555
O6_2 Sr1 1_555 1_555
O3 Sr1A 1_555 1_555
O6 Sr1_2 1_555 1_555
C7 C8 1_555 1_555
C16 C17 1_555 1_555
C25 C26 1_555 1_555
Sr1A O2A 1_555 1_555

#END
