
#######################################################################
#
#                 Cambridge Crystallographic Data Centre
#                                CCDC 
#
#######################################################################
#
# If this CIF has been generated from an entry in the Cambridge 
# Structural Database, then it will include bibliographic, chemical, 
# crystal, experimental, refinement or atomic coordinate data resulting 
# from the CCDC's data processing and validation procedures.
#
#######################################################################

data_SOCGIB
_symmetry_cell_setting           monoclinic
_symmetry_space_group_name_H-M   'P 21/m'
_symmetry_Int_Tables_number      11
_space_group_name_Hall           '-P 2yb'
loop_
_symmetry_equiv_pos_site_id
_symmetry_equiv_pos_as_xyz
1 x,y,z
2 -x,1/2+y,-z
3 -x,-y,-z
4 x,1/2-y,z
_cell_length_a                   4.763(1)
_cell_length_b                   36.787(7)
_cell_length_c                   7.8398(16)
_cell_angle_alpha                90
_cell_angle_beta                 99.747(3)
_cell_angle_gamma                90
_cell_volume                     1353.83
loop_
_atom_site_label
_atom_site_type_symbol
_atom_site_fract_x
_atom_site_fract_y
_atom_site_fract_z
Zn1 Zn 0.09485(14) 0.2500 0.62437(8)
S1 S 0.5517(2) 0.37761(3) 0.94346(14)
S2 S 0.6778(3) 0.2500 0.88997(18)
O1 O 0.5096(7) 0.2500 0.7109(4)
O2 O 0.6177(5) 0.28294(7) 0.9817(3)
O3 O 0.9819(7) 0.2500 0.8707(5)
O4 O 0.1443(12) 0.2500 0.3635(6)
N1 N 1.2718(8) 0.42365(10) 1.3260(5)
N2 N 0.4440(8) 0.44480(9) 0.8859(5)
N3 N 0.2413(8) 0.42628(10) 0.7728(5)
N4 N -0.0188(7) 0.30365(8) 0.5882(4)
C1 C 1.2843(10) 0.45887(14) 1.3649(6)
H1 H 1.4302 0.4668 1.4510
C2 C 1.0930(10) 0.48443(13) 1.2846(6)
H2 H 1.1116 0.5088 1.3160
C3 C 0.8743(10) 0.47315(12) 1.1574(6)
H3 H 0.7437 0.4898 1.1008
C4 C 0.8529(9) 0.43637(11) 1.1152(5)
C5 C 1.0570(9) 0.41320(12) 1.2026(5)
H4 H 1.0441 0.3887 1.1737
C6 C 0.6212(9) 0.42327(11) 0.9833(5)
C7 C 0.2700(8) 0.39114(11) 0.7864(5)
C8 C 0.0866(8) 0.36524(11) 0.6764(5)
C9 C -0.1469(9) 0.37705(12) 0.5570(5)
H5 H -0.1901 0.4017 0.5459
C10 C -0.3121(9) 0.35204(12) 0.4561(5)
H6 H -0.4696 0.3595 0.3769
C11 C -0.2413(9) 0.31564(12) 0.4739(5)
H7 H -0.3522 0.2988 0.4039
C12 C 0.1404(8) 0.32816(11) 0.6869(5)
H8 H 0.2947 0.3200 0.7665
H9 H 0.158(10) 0.2675(9) 0.301(5)
Zn1_2 Zn 1.09485(14) 0.2500 0.62437(8)
S1C S 0.5517(2) 0.12239(3) 0.94346(14)
O2C O 0.6177(5) 0.21706(7) 0.9817(3)
O3_2 O -0.0181(7) 0.2500 0.8707(5)
N1C N 1.2718(8) 0.07635(10) 1.3260(5)
N2C N 0.4440(8) 0.05520(9) 0.8859(5)
N3C N 0.2413(8) 0.07372(10) 0.7728(5)
N4C N -0.0188(7) 0.19635(8) 0.5882(4)
C1C C 1.2843(10) 0.04113(14) 1.3649(6)
H1C H 1.4302 0.0332 1.4510
C2C C 1.0930(10) 0.01557(13) 1.2846(6)
H2C H 1.1116 -0.0088 1.3160
C3C C 0.8743(10) 0.02685(12) 1.1574(6)
H3C H 0.7437 0.0102 1.1008
C4C C 0.8529(9) 0.06363(11) 1.1152(5)
C5C C 1.0570(9) 0.08680(12) 1.2026(5)
H4C H 1.0441 0.1113 1.1737
C6C C 0.6212(9) 0.07673(11) 0.9833(5)
C7C C 0.2700(8) 0.10886(11) 0.7864(5)
C8C C 0.0866(8) 0.13476(11) 0.6764(5)
C9C C -0.1469(9) 0.12295(12) 0.5570(5)
H5C H -0.1901 0.0983 0.5459
C10C C -0.3121(9) 0.14796(12) 0.4561(5)
H6C H -0.4696 0.1405 0.3769
C11C C -0.2413(9) 0.18436(12) 0.4739(5)
H7C H -0.3522 0.2012 0.4039
C12C C 0.1404(8) 0.17184(11) 0.6869(5)
H8C H 0.2947 0.1800 0.7665
H9C H 0.158(10) 0.2325(9) 0.301(5)
O5 O 0.1644(8) 0.30922(9) 0.1486(4)
H10 H 0.286(6) 0.3010(12) 0.097(5)
H11 H 0.005(5) 0.3064(15) 0.089(6)
loop_
_geom_bond_atom_site_label_1
_geom_bond_atom_site_label_2
_geom_bond_site_symmetry_1
_geom_bond_site_symmetry_2
Zn1 O1 1_555 1_555
S1 C6 1_555 1_555
S2 O1 1_555 1_555
O2 S2 1_555 1_555
O3 S2 1_555 1_555
O4 Zn1 1_555 1_555
N1 C1 1_555 1_555
N2 N3 1_555 1_555
N3 C7 1_555 1_555
N4 Zn1 1_555 1_555
C1 H1 1_555 1_555
C2 C1 1_555 1_555
H2 C2 1_555 1_555
C3 C2 1_555 1_555
H3 C3 1_555 1_555
C4 C3 1_555 1_555
C5 N1 1_555 1_555
H4 C5 1_555 1_555
C6 N2 1_555 1_555
C7 S1 1_555 1_555
C8 C7 1_555 1_555
C9 C8 1_555 1_555
H5 C9 1_555 1_555
C10 C9 1_555 1_555
H6 C10 1_555 1_555
C11 N4 1_555 1_555
H7 C11 1_555 1_555
C12 N4 1_555 1_555
H8 C12 1_555 1_555
H9 O4 1_555 1_555
O5 H10 1_555 1_555
H11 O5 1_555 1_555
Zn1_2 O3 1_555 1_555
S1C C6C 1_555 1_555
O2C S2 1_555 1_555
O3_2 Zn1 1_555 1_555
N1C C1C 1_555 1_555
N2C N3C 1_555 1_555
N3C C7C 1_555 1_555
N4C Zn1 1_555 1_555
C1C H1C 1_555 1_555
C2C C1C 1_555 1_555
H2C C2C 1_555 1_555
C3C C2C 1_555 1_555
H3C C3C 1_555 1_555
C4C C3C 1_555 1_555
C5C N1C 1_555 1_555
H4C C5C 1_555 1_555
C6C N2C 1_555 1_555
C7C S1C 1_555 1_555
C8C C7C 1_555 1_555
C9C C8C 1_555 1_555
H5C C9C 1_555 1_555
C10C C9C 1_555 1_555
H6C C10C 1_555 1_555
C11C N4C 1_555 1_555
H7C C11C 1_555 1_555
C12C N4C 1_555 1_555
H8C C12C 1_555 1_555
H9C O4 1_555 1_555
C4 C5 1_555 1_555
C4 C6 1_555 1_555
C8 C12 1_555 1_555
C10 C11 1_555 1_555
C4C C5C 1_555 1_555
C4C C6C 1_555 1_555
C8C C12C 1_555 1_555
C10C C11C 1_555 1_555

#END
