
#######################################################################
#
#                 Cambridge Crystallographic Data Centre
#                                CCDC 
#
#######################################################################
#
# If this CIF has been generated from an entry in the Cambridge 
# Structural Database, then it will include bibliographic, chemical, 
# crystal, experimental, refinement or atomic coordinate data resulting 
# from the CCDC's data processing and validation procedures.
#
#######################################################################

data_SOCHIC
_symmetry_cell_setting           triclinic
_symmetry_space_group_name_H-M   'P -1'
_symmetry_Int_Tables_number      2
_space_group_name_Hall           '-P 1'
loop_
_symmetry_equiv_pos_site_id
_symmetry_equiv_pos_as_xyz
1 x,y,z
2 -x,-y,-z
_cell_length_a                   6.7993(8)
_cell_length_b                   9.0315(11)
_cell_length_c                   13.2444(16)
_cell_angle_alpha                72.123(1)
_cell_angle_beta                 85.775(1)
_cell_angle_gamma                86.480(1)
_cell_volume                     771.294
loop_
_atom_site_label
_atom_site_type_symbol
_atom_site_fract_x
_atom_site_fract_y
_atom_site_fract_z
Cd1 Cd 0.24538(3) 0.62289(2) 0.073325(15)
S1 S -0.25910(10) 0.68507(8) 0.02882(6)
S2 S 0.26087(11) 0.56661(9) 0.63463(6)
O1 O -0.0933(3) 0.5987(3) 0.09122(18)
O2 O -0.2951(4) 0.6174(3) -0.05617(19)
O3 O -0.4375(3) 0.6713(3) 0.10128(18)
O4 O -0.2108(4) 0.8479(3) -0.0169(2)
O5 O 0.1220(4) 0.8515(3) 0.12198(19)
H1 H 0.1602 0.9423 0.1004
H2 H -0.0005 0.8520 0.1226
N1 N 0.2346(4) 0.4924(3) 0.25776(19)
N2 N 0.2664(5) 0.7733(3) 0.4521(2)
N3 N 0.2803(5) 0.8535(3) 0.5240(2)
N4 N 0.2807(4) 0.7844(3) 0.89960(19)
C1 C 0.2294(4) 0.3371(4) 0.3010(2)
H3 H 0.2282 0.2758 0.2561
C2 C 0.2259(5) 0.2645(4) 0.4098(3)
H4 H 0.2192 0.1568 0.4372
C3 C 0.2325(5) 0.3547(4) 0.4770(2)
H5 H 0.2309 0.3084 0.5502
C4 C 0.2415(4) 0.5159(4) 0.4337(2)
C5 C 0.2392(4) 0.5788(4) 0.3234(2)
H6 H 0.2409 0.6864 0.2941
C6 C 0.2552(4) 0.6232(4) 0.4974(2)
C7 C 0.2794(4) 0.7623(4) 0.6221(2)
C8 C 0.3029(5) 0.8224(4) 0.7120(2)
C9 C 0.2530(4) 0.7354(3) 0.8154(2)
H7 H 0.1982 0.6393 0.8274
C10 C 0.3566(5) 0.9247(4) 0.8805(3)
H8 H 0.3767 0.9595 0.9380
C11 C 0.4063(6) 1.0198(4) 0.7795(3)
H9 H 0.4553 1.1175 0.7694
C12 C 0.3824(5) 0.9682(4) 0.6937(3)
H10 H 0.4185 1.0289 0.6251
Cd1A Cd -0.24538(3) 0.37711(2) -0.073325(15)
Cd1_2 Cd -0.75462(3) 0.62289(2) 0.073325(15)
Cd1_3 Cd 0.24538(3) 0.62289(2) 1.073325(15)
O2A O 0.2951(4) 0.3826(3) 0.05617(19)
O3_2 O 0.5625(3) 0.6713(3) 0.10128(18)
N4_2 N 0.2807(4) 0.7844(3) -0.10040(19)
loop_
_geom_bond_atom_site_label_1
_geom_bond_atom_site_label_2
_geom_bond_site_symmetry_1
_geom_bond_site_symmetry_2
Cd1 O1 1_555 1_555
S1 O1 1_555 1_555
S2 C6 1_555 1_555
O2 S1 1_555 1_555
O3 S1 1_555 1_555
O4 S1 1_555 1_555
O5 Cd1 1_555 1_555
H1 O5 1_555 1_555
H2 O5 1_555 1_555
N1 Cd1 1_555 1_555
N2 N3 1_555 1_555
N3 C7 1_555 1_555
N4 C9 1_555 1_555
C1 N1 1_555 1_555
H3 C1 1_555 1_555
C2 C1 1_555 1_555
H4 C2 1_555 1_555
C3 C2 1_555 1_555
H5 C3 1_555 1_555
C4 C3 1_555 1_555
C5 N1 1_555 1_555
H6 C5 1_555 1_555
C6 N2 1_555 1_555
C7 S2 1_555 1_555
C8 C7 1_555 1_555
C9 C8 1_555 1_555
H7 C9 1_555 1_555
C10 N4 1_555 1_555
H8 C10 1_555 1_555
C11 C10 1_555 1_555
H9 C11 1_555 1_555
C12 C8 1_555 1_555
H10 C12 1_555 1_555
Cd1A O2 1_555 1_555
Cd1_2 O3 1_555 1_555
Cd1_3 N4 1_555 1_555
O2A Cd1 1_555 1_555
O3_2 Cd1 1_555 1_555
N4_2 Cd1 1_555 1_555
C4 C5 1_555 1_555
C4 C6 1_555 1_555
C11 C12 1_555 1_555

#END
