
#######################################################################
#
#                 Cambridge Crystallographic Data Centre
#                                CCDC 
#
#######################################################################
#
# If this CIF has been generated from an entry in the Cambridge 
# Structural Database, then it will include bibliographic, chemical, 
# crystal, experimental, refinement or atomic coordinate data resulting 
# from the CCDC's data processing and validation procedures.
#
#######################################################################

data_SOCJUQ
_symmetry_cell_setting           monoclinic
_symmetry_space_group_name_H-M   'P 21/n'
_symmetry_Int_Tables_number      14
_space_group_name_Hall           '-P 2yn'
loop_
_symmetry_equiv_pos_site_id
_symmetry_equiv_pos_as_xyz
1 x,y,z
2 1/2-x,1/2+y,1/2-z
3 -x,-y,-z
4 1/2+x,1/2-y,1/2+z
_cell_length_a                   5.2141(12)
_cell_length_b                   21.187(5)
_cell_length_c                   9.972(2)
_cell_angle_alpha                90
_cell_angle_beta                 99.461(3)
_cell_angle_gamma                90
_cell_volume                     1086.63
loop_
_atom_site_label
_atom_site_type_symbol
_atom_site_fract_x
_atom_site_fract_y
_atom_site_fract_z
Cu1 Cu 1.28757(14) 1.00292(4) 0.86992(8)
N1 N 1.4785(11) 1.0575(2) 1.0146(6)
N2 N 1.1160(10) 0.9387(3) 0.7446(5)
N3 N 1.4899(13) 1.1151(3) 1.0094(7)
N4 N 0.9982(11) 1.0642(3) 0.8328(6)
N5 N 0.6753(12) 0.8109(3) 0.4823(6)
N6 N 1.4935(18) 1.1681(4) 1.0106(9)
C1 C 0.8212(13) 0.8524(3) 0.5669(7)
C2 C 0.9932(15) 0.8956(3) 0.5239(6)
H1 H 1.0133 0.8964 0.4330
C3 C 0.8090(13) 0.8540(3) 0.7049(7)
H2 H 0.7008 0.8261 0.7412
C4 C 0.9568(13) 0.8968(3) 0.7882(7)
H3 H 0.9452 0.8965 0.8803
C5 C 0.6928(18) 0.8080(4) 0.3397(8)
H4 H 0.6969 0.8500 0.3041
H5 H 0.5445 0.7859 0.2920
H6 H 0.8487 0.7860 0.3279
C6 C 1.1314(14) 0.9363(3) 0.6132(7)
H7 H 1.2437 0.9642 0.5801
C7 C 0.5012(16) 0.7667(3) 0.5333(8)
H8 H 0.5998 0.7394 0.5995
H9 H 0.4127 0.7419 0.4594
H10 H 0.3761 0.7896 0.5749
N7 N 0.7888(11) 1.0491(2) 0.7756(5)
N8 N 0.5777(11) 1.0369(3) 0.7216(6)
Cu1B Cu 1.71243(14) 0.99708(4) 1.13008(8)
Cu1_2 Cu 0.28757(14) 1.00292(4) 0.86992(8)
N1B N 1.5215(11) 0.9425(2) 0.9854(6)
N8_2 N 1.5777(11) 1.0369(3) 0.7216(6)
loop_
_geom_bond_atom_site_label_1
_geom_bond_atom_site_label_2
_geom_bond_site_symmetry_1
_geom_bond_site_symmetry_2
Cu1 N1 1_555 1_555
N1 N3 1_555 1_555
N2 Cu1 1_555 1_555
N3 N6 1_555 1_555
N4 Cu1 1_555 1_555
N5 C1 1_555 1_555
C1 C2 1_555 1_555
C2 H1 1_555 1_555
C3 C1 1_555 1_555
H2 C3 1_555 1_555
C4 N2 1_555 1_555
H3 C4 1_555 1_555
C5 N5 1_555 1_555
H4 C5 1_555 1_555
H5 C5 1_555 1_555
H6 C5 1_555 1_555
C6 N2 1_555 1_555
H7 C6 1_555 1_555
C7 N5 1_555 1_555
H8 C7 1_555 1_555
H9 C7 1_555 1_555
H10 C7 1_555 1_555
N7 N4 1_555 1_555
N8 N7 1_555 1_555
Cu1B N1 1_555 1_555
Cu1_2 N8 1_555 1_555
N1B Cu1 1_555 1_555
N8_2 Cu1 1_555 1_555
C2 C6 1_555 1_555
C3 C4 1_555 1_555
Cu1B N1B 1_555 1_555

#END
