
#######################################################################
#
#                 Cambridge Crystallographic Data Centre
#                                CCDC 
#
#######################################################################
#
# If this CIF has been generated from an entry in the Cambridge 
# Structural Database, then it will include bibliographic, chemical, 
# crystal, experimental, refinement or atomic coordinate data resulting 
# from the CCDC's data processing and validation procedures.
#
#######################################################################

data_SOCKAY
_symmetry_cell_setting           orthorhombic
_symmetry_space_group_name_H-M   'P b c a'
_symmetry_Int_Tables_number      61
_space_group_name_Hall           '-P 2ac 2ab'
loop_
_symmetry_equiv_pos_site_id
_symmetry_equiv_pos_as_xyz
1 x,y,z
2 1/2-x,-y,1/2+z
3 -x,1/2+y,1/2-z
4 1/2+x,1/2-y,-z
5 -x,-y,-z
6 1/2+x,y,1/2-z
7 x,1/2-y,1/2+z
8 1/2-x,1/2+y,z
_cell_length_a                   7.6105(6)
_cell_length_b                   16.9070(12)
_cell_length_c                   18.8834(14)
_cell_angle_alpha                90
_cell_angle_beta                 90
_cell_angle_gamma                90
_cell_volume                     2429.74
loop_
_atom_site_label
_atom_site_type_symbol
_atom_site_fract_x
_atom_site_fract_y
_atom_site_fract_z
Cd1 Cd 0.51208(3) 1.133676(12) 0.697987(11)
O1 O 0.5487(3) 1.05036(14) 0.79522(11)
O2 O 0.3137(3) 1.12432(11) 0.80167(10)
O3 O 0.1082(4) 0.83940(14) 1.07619(13)
O4 O 0.0913(3) 0.95725(13) 1.12493(10)
N1 N 0.4511(3) 0.76306(14) 0.78259(13)
C1 C 0.4083(4) 1.06753(16) 0.82448(14)
C2 C 0.3443(4) 1.02282(16) 0.88828(14)
C3 C 0.3118(4) 1.06698(18) 0.94930(15)
H1 H 0.3319 1.1212 0.9491
C4 C 0.2503(4) 1.03090(18) 1.00997(16)
H2 H 0.2335 1.0606 1.0509
C5 C 0.2131(4) 0.95025(17) 1.01018(15)
C6 C 0.2461(4) 0.90658(17) 0.94930(15)
H3 H 0.2220 0.8527 0.9495
C7 C 0.3143(4) 0.94067(16) 0.88777(14)
C8 C 0.3504(4) 0.88937(16) 0.82538(15)
C9 C 0.3178(4) 0.91214(17) 0.75528(16)
H4 H 0.2687 0.9613 0.7455
C10 C 0.3591(5) 0.86116(18) 0.70106(16)
H5 H 0.3431 0.8767 0.6543
C11 C 0.4238(4) 0.78719(18) 0.71605(16)
H6 H 0.4493 0.7529 0.6789
C12 C 0.4178(4) 0.81393(16) 0.83568(15)
H7 H 0.4411 0.7977 0.8818
C13 C 0.1338(4) 0.9128(2) 1.07450(16)
Cd1A Cd -0.01208(3) 0.866324(12) 1.197987(11)
Cd1B Cd 0.48792(3) 0.633676(12) 0.802013(11)
Cd1E Cd 0.01208(3) 1.133676(12) 0.802013(11)
O2E O 0.8137(3) 1.12432(11) 0.69833(10)
O3A O 0.3918(4) 1.16060(14) 0.57619(13)
O4A O 0.4087(3) 1.04275(13) 0.62493(10)
N1B N 0.5489(3) 1.26306(14) 0.71741(13)
O5 O 0.5767(6) 0.2599(2) 0.95489(18)
loop_
_geom_bond_atom_site_label_1
_geom_bond_atom_site_label_2
_geom_bond_site_symmetry_1
_geom_bond_site_symmetry_2
Cd1 O1 1_555 1_555
O1 C1 1_555 1_555
O2 Cd1 1_555 1_555
O3 C13 1_555 1_555
O4 C13 1_555 1_555
N1 C11 1_555 1_555
C1 O2 1_555 1_555
C2 C1 1_555 1_555
C3 C2 1_555 1_555
H1 C3 1_555 1_555
C4 C3 1_555 1_555
H2 C4 1_555 1_555
C5 C4 1_555 1_555
C6 C5 1_555 1_555
H3 C6 1_555 1_555
C7 C2 1_555 1_555
C8 C7 1_555 1_555
C9 C8 1_555 1_555
H4 C9 1_555 1_555
C10 C9 1_555 1_555
H5 C10 1_555 1_555
C11 C10 1_555 1_555
H6 C11 1_555 1_555
C12 N1 1_555 1_555
H7 C12 1_555 1_555
C13 C5 1_555 1_555
Cd1A O3 1_555 1_555
Cd1B N1 1_555 1_555
Cd1E O2 1_555 1_555
O2E Cd1 1_555 1_555
O3A Cd1 1_555 1_555
O4A Cd1 1_555 1_555
N1B Cd1 1_555 1_555
O4 Cd1A 1_555 1_555
C6 C7 1_555 1_555
C8 C12 1_555 1_555

#END
