
#######################################################################
#
#                 Cambridge Crystallographic Data Centre
#                                CCDC 
#
#######################################################################
#
# If this CIF has been generated from an entry in the Cambridge 
# Structural Database, then it will include bibliographic, chemical, 
# crystal, experimental, refinement or atomic coordinate data resulting 
# from the CCDC's data processing and validation procedures.
#
#######################################################################

data_SOCLIH
_symmetry_cell_setting           monoclinic
_symmetry_space_group_name_H-M   'P 2/c'
_symmetry_Int_Tables_number      13
_space_group_name_Hall           '-P 2yc'
loop_
_symmetry_equiv_pos_site_id
_symmetry_equiv_pos_as_xyz
1 x,y,z
2 -x,y,1/2-z
3 -x,-y,-z
4 x,-y,1/2+z
_cell_length_a                   17.523(8)
_cell_length_b                   17.315(9)
_cell_length_c                   15.910(8)
_cell_angle_alpha                90
_cell_angle_beta                 108.410(9)
_cell_angle_gamma                90
_cell_volume                     4580.21
loop_
_atom_site_label
_atom_site_type_symbol
_atom_site_fract_x
_atom_site_fract_y
_atom_site_fract_z
N1 N 0.1730(4) 0.9667(3) 0.5304(4)
C1 C 0.2317(5) 0.9323(5) 0.5948(6)
Ni1 Ni 0.13467(5) 0.07837(5) 0.54262(6)
Ni2 Ni 0.37439(5) 0.35246(5) 0.44756(6)
O1 O 0.4818(3) 0.3533(3) 0.5570(3)
O2 O 0.4464(3) 0.2499(3) 0.4743(3)
O3 O 0.7705(3) 0.1114(3) 0.8541(3)
O4 O 0.7974(4) 0.0661(5) 0.7358(4)
O5 O 0.2779(3) 0.3200(3) 0.3439(3)
O6 O 0.3116(5) 0.3412(5) 0.2214(4)
O7 O -0.0255(3) 0.0812(3) 0.0642(3)
O8 O -0.0626(3) 0.1824(3) -0.0222(3)
O9 O 0.4359(3) 0.3824(3) 0.3577(3)
H1 H 0.4770 0.3542 0.3635
H2 H 0.4492 0.4298 0.3611
O10 O 0.0728(3) 0.0445(3) 0.6287(3)
H3 H 0.0776 -0.0043 0.6333
H4 H 0.0234 0.0535 0.6021
N2 N 0.6911(4) 0.3178(4) 0.9666(4)
N3 N 0.2010(3) 0.1144(3) 0.4607(4)
N4 N 0.3371(4) 0.4650(3) 0.4483(5)
C2 C 0.4940(4) 0.2841(4) 0.5401(5)
C3 C 0.5638(4) 0.2398(4) 0.6004(4)
C4 C 0.6034(4) 0.2674(4) 0.6858(5)
H5 H 0.5868 0.3137 0.7040
C5 C 0.6669(4) 0.2270(4) 0.7441(5)
C6 C 0.6928(4) 0.1585(4) 0.7149(5)
C7 C 0.6541(5) 0.1322(4) 0.6292(5)
H6 H 0.6721 0.0871 0.6098
C8 C 0.5888(5) 0.1721(4) 0.5717(5)
H7 H 0.5628 0.1532 0.5151
C9 C 0.7599(5) 0.1083(5) 0.7730(5)
C10 C 0.2669(5) 0.3134(4) 0.2617(5)
C11 C 0.1934(4) 0.2706(4) 0.2078(4)
C12 C 0.1689(4) 0.2021(4) 0.2382(4)
C13 C 0.2116(4) 0.1675(4) 0.3245(4)
C14 C 0.2940(4) 0.1493(4) 0.3536(5)
H8 H 0.3258 0.1600 0.3181
C15 C 0.3264(5) 0.1159(5) 0.4343(5)
H9 H 0.3810 0.1043 0.4542
C16 C 0.2799(5) 0.0990(4) 0.4872(5)
H10 H 0.3036 0.0765 0.5424
C17 C 0.1682(4) 0.1478(4) 0.3814(5)
H11 H 0.1134 0.1586 0.3633
C18 C -0.0130(4) 0.1496(4) 0.0447(5)
C19 C 0.0583(4) 0.1935(4) 0.1006(4)
C20 C 0.0828(5) 0.2617(4) 0.0721(5)
H12 H 0.0538 0.2819 0.0171
C21 C 0.1491(5) 0.2995(4) 0.1242(5)
H13 H 0.1652 0.3452 0.1041
C22 C 0.1015(4) 0.1641(4) 0.1832(5)
H14 H 0.0851 0.1181 0.2022
C23 C 0.7693(5) 0.3353(5) 0.9922(5)
H15 H 0.7912 0.3606 1.0460
C24 C 0.8188(5) 0.3179(5) 0.9436(6)
H16 H 0.8730 0.3308 0.9648
C25 C 0.7877(4) 0.2809(5) 0.8621(5)
H17 H 0.8208 0.2691 0.8282
C26 C 0.7060(4) 0.2619(4) 0.8320(5)
C27 C 0.6614(4) 0.2825(4) 0.8871(5)
H18 H 0.6068 0.2711 0.8676
C28 C 0.3519(7) 0.5044(6) 0.5233(8)
H19 H 0.3805 0.4806 0.5763
C29 C 0.3261(8) 0.5799(7) 0.5251(10)
H20 H 0.3381 0.6054 0.5791
C30 C 0.2827(7) 0.6183(5) 0.4484(9)
C31 C 0.2709(9) 0.5769(6) 0.3749(9)
H21 H 0.2429 0.5993 0.3208
C32 C 0.2982(6) 0.5029(5) 0.3755(6)
H22 H 0.2887 0.4779 0.3214
C33 C 0.2507(9) 0.6978(7) 0.4463(10)
H23 H 0.2150 0.7138 0.3924
C34 C 0.2647(7) 0.7430(6) 0.5040(9)
H24 H 0.3029 0.7264 0.5560
C35 C 0.2335(6) 0.8214(5) 0.5100(8)
C36 C 0.2622(6) 0.8626(5) 0.5865(7)
H25 H 0.3034 0.8422 0.6335
C37 C 0.1717(6) 0.8568(5) 0.4411(6)
H26 H 0.1502 0.8317 0.3872
C38 C 0.1431(5) 0.9287(4) 0.4540(6)
H27 H 0.1021 0.9511 0.4084
H28 H 0.2523 0.9582 0.6481
N1_2 N 0.1730(4) -0.0333(3) 0.5304(4)
Ni1_2 Ni 0.13467(5) 1.07837(5) 0.54262(6)
Ni1A Ni -0.13467(5) 0.07837(5) -0.04262(6)
Ni1A_2 Ni 0.86533(5) 0.07837(5) 0.95738(6)
Ni2A Ni 0.62561(5) 0.35246(5) 1.05244(6)
O3A O 0.2295(3) 0.1114(3) 0.6459(3)
O7A O 0.0255(3) 0.0812(3) 0.4358(3)
O8A O 0.0626(3) 0.1824(3) 0.5222(3)
N2A N 0.3089(4) 0.3178(4) 0.5334(4)
O11 O 0.4594(5) 0.5348(4) 0.3109(5)
O12 O 0.0440(9) 0.2197(11) 0.6957(10)
O13 O 0.5419(11) 0.2654(11) 0.3349(13)
O14 O 0.486(4) 0.902(2) 0.712(3)
O14A O 0.514(4) 0.902(2) 0.788(3)
loop_
_geom_bond_atom_site_label_1
_geom_bond_atom_site_label_2
_geom_bond_site_symmetry_1
_geom_bond_site_symmetry_2
N1 C1 1_555 1_555
C1 C36 1_555 1_555
Ni1 O10 1_555 1_555
Ni2 O1 1_555 1_555
O1 C2 1_555 1_555
O2 Ni2 1_555 1_555
O3 C9 1_555 1_555
O4 C9 1_555 1_555
O5 Ni2 1_555 1_555
O6 C10 1_555 1_555
O7 C18 1_555 1_555
O8 C18 1_555 1_555
O9 Ni2 1_555 1_555
H1 O9 1_555 1_555
H2 O9 1_555 1_555
O10 H3 1_555 1_555
H4 O10 1_555 1_555
N2 C23 1_555 1_555
N3 Ni1 1_555 1_555
N4 Ni2 1_555 1_555
C2 O2 1_555 1_555
C3 C2 1_555 1_555
C4 C3 1_555 1_555
H5 C4 1_555 1_555
C5 C4 1_555 1_555
C6 C5 1_555 1_555
C7 C6 1_555 1_555
H6 C7 1_555 1_555
C8 C3 1_555 1_555
H7 C8 1_555 1_555
C9 C6 1_555 1_555
C10 O5 1_555 1_555
C11 C10 1_555 1_555
C12 C11 1_555 1_555
C13 C12 1_555 1_555
C14 C13 1_555 1_555
H8 C14 1_555 1_555
C15 C14 1_555 1_555
H9 C15 1_555 1_555
C16 N3 1_555 1_555
H10 C16 1_555 1_555
C17 N3 1_555 1_555
H11 C17 1_555 1_555
C18 C19 1_555 1_555
C19 C20 1_555 1_555
C20 H12 1_555 1_555
C21 C11 1_555 1_555
H13 C21 1_555 1_555
C22 C12 1_555 1_555
H14 C22 1_555 1_555
C23 H15 1_555 1_555
C24 C23 1_555 1_555
H16 C24 1_555 1_555
C25 C24 1_555 1_555
H17 C25 1_555 1_555
C26 C5 1_555 1_555
C27 N2 1_555 1_555
H18 C27 1_555 1_555
C28 N4 1_555 1_555
H19 C28 1_555 1_555
C29 C28 1_555 1_555
H20 C29 1_555 1_555
C30 C29 1_555 1_555
C31 C30 1_555 1_555
H21 C31 1_555 1_555
C32 N4 1_555 1_555
H22 C32 1_555 1_555
C33 C30 1_555 1_555
H23 C33 1_555 1_555
C34 C33 1_555 1_555
H24 C34 1_555 1_555
C35 C34 1_555 1_555
C36 C35 1_555 1_555
H25 C36 1_555 1_555
C37 C35 1_555 1_555
H26 C37 1_555 1_555
C38 N1 1_555 1_555
H27 C38 1_555 1_555
H28 C1 1_555 1_555
N1_2 Ni1 1_555 1_555
Ni1_2 N1 1_555 1_555
Ni1A O7 1_555 1_555
Ni1A_2 O3 1_555 1_555
Ni2A N2 1_555 1_555
O3A Ni1 1_555 1_555
O7A Ni1 1_555 1_555
O8A Ni1 1_555 1_555
N2A Ni2 1_555 1_555
O8 Ni1A 1_555 1_555
C7 C8 1_555 1_555
C13 C17 1_555 1_555
C15 C16 1_555 1_555
C19 C22 1_555 1_555
C20 C21 1_555 1_555
C25 C26 1_555 1_555
C26 C27 1_555 1_555
C31 C32 1_555 1_555
C37 C38 1_555 1_555

#END
