
#######################################################################
#
#                 Cambridge Crystallographic Data Centre
#                                CCDC 
#
#######################################################################
#
# If this CIF has been generated from an entry in the Cambridge 
# Structural Database, then it will include bibliographic, chemical, 
# crystal, experimental, refinement or atomic coordinate data resulting 
# from the CCDC's data processing and validation procedures.
#
#######################################################################

data_SOCLUT
_symmetry_cell_setting           orthorhombic
_symmetry_space_group_name_H-M   'C 2 2 21'
_symmetry_Int_Tables_number      20
_space_group_name_Hall           'C 2n 2'
loop_
_symmetry_equiv_pos_site_id
_symmetry_equiv_pos_as_xyz
1 x,y,z
2 -x,-y,1/2+z
3 -x,y,1/2-z
4 x,-y,-z
5 1/2+x,1/2+y,z
6 1/2-x,1/2-y,1/2+z
7 1/2-x,1/2+y,1/2-z
8 1/2+x,1/2-y,-z
_cell_length_a                   10.5388(8)
_cell_length_b                   19.9776(18)
_cell_length_c                   19.0700(14)
_cell_angle_alpha                90
_cell_angle_beta                 90
_cell_angle_gamma                90
_cell_volume                     4015
loop_
_atom_site_label
_atom_site_type_symbol
_atom_site_fract_x
_atom_site_fract_y
_atom_site_fract_z
O1 O -0.2023(2) 1.22352(11) 0.88106(13)
C1 C -0.2052(4) 1.18531(18) 0.82866(17)
C2 C -0.1451(4) 1.11747(17) 0.83374(18)
C3 C -0.2030(4) 1.06481(18) 0.79853(19)
H1 H -0.2731 1.0737 0.7704
C4 C -0.1602(4) 0.99986(19) 0.8039(2)
H2 H -0.2031 0.9655 0.7811
Ni1 Ni 0.19779(4) 0.81493(2) 0.88638(2)
O2 O 0.0976(2) 0.90455(11) 0.88033(15)
O3 O 0.2375(3) 0.82953(13) 0.77935(13)
H3 H 0.1829 0.8562 0.7620
H4 H 0.2315 0.7924 0.7579
N1 N 0.1556(3) 1.19811(14) 1.00734(16)
C5 C 0.0103(3) 1.03832(16) 0.87643(19)
H5 H 0.0833 1.0291 0.9021
N2 N 0.3603(3) 0.86804(16) 0.91237(18)
O4 O -0.2587(4) 1.19816(14) 0.77174(15)
C6 C 0.0446(3) 1.15779(17) 0.90486(19)
C7 C -0.0079(4) 0.91453(18) 0.8499(2)
C8 C 0.0794(4) 1.15328(18) 0.97466(19)
H6 H 0.0486 1.1174 1.0007
O5 O -0.0789(3) 0.87003(14) 0.8273(2)
C9 C 0.1991(4) 1.24929(19) 0.9687(2)
H7 H 0.2528 1.2803 0.9898
O6 O 0.0330(3) 0.76102(14) 0.86564(18)
H8 H 0.0490 0.7225 0.8489
H9 H -0.0165 0.7820 0.8382
C10 C 0.0899(4) 1.21233(19) 0.8672(2)
H10 H 0.0676 1.2179 0.8203
C11 C -0.0537(4) 0.98589(17) 0.84326(19)
C12 C 0.5751(5) 0.9451(3) 0.9463(3)
C13 C 0.3958(6) 0.9216(3) 0.8745(3)
H11 H 0.3484 0.9336 0.8353
C14 C 0.5380(5) 0.8906(3) 0.9860(3)
H12 H 0.5846 0.8784 1.0254
C15 C 0.6923(5) 0.9853(3) 0.9662(3)
H13 H 0.7656 0.9561 0.9627
H14 H 0.7032 1.0206 0.9318
C16 C 0.5024(6) 0.9596(3) 0.8926(4)
H15 H 0.5226 0.9968 0.8654
C17 C 0.4317(5) 0.8540(3) 0.9672(3)
H16 H 0.4094 0.8174 0.9948
C18 C -0.0330(4) 1.10439(17) 0.87178(17)
C19 C 0.1679(4) 1.2580(2) 0.8996(2)
H17 H 0.1992 1.2945 0.8748
N2C N 0.3603(3) 1.13196(16) 1.08763(18)
C12C C 0.5751(5) 1.0549(3) 1.0537(3)
C13C C 0.3958(6) 1.0784(3) 1.1255(3)
H11C H 0.3484 1.0664 1.1647
C14C C 0.5380(5) 1.1094(3) 1.0140(3)
H12C H 0.5846 1.1216 0.9746
C15C C 0.6923(5) 1.0147(3) 1.0338(3)
H13C H 0.7656 1.0439 1.0373
H14C H 0.7032 0.9794 1.0682
C16C C 0.5024(6) 1.0404(3) 1.1074(4)
H15C H 0.5226 1.0032 1.1346
C17C C 0.4317(5) 1.1460(3) 1.0328(3)
H16C H 0.4094 1.1826 1.0052
O1C O -0.2023(2) 0.77648(11) 1.11894(13)
C1C C -0.2052(4) 0.81469(18) 1.17134(17)
C2C C -0.1451(4) 0.88253(17) 1.16626(18)
C3C C -0.2030(4) 0.93519(18) 1.20147(19)
H1C H -0.2731 0.9263 1.2296
C4C C -0.1602(4) 1.00014(19) 1.1961(2)
H2C H -0.2031 1.0345 1.2189
Ni1C Ni 0.19779(4) 1.18507(2) 1.11362(2)
O2C O 0.0976(2) 1.09545(11) 1.11967(15)
O3C O 0.2375(3) 1.17047(13) 1.22065(13)
H3C H 0.1829 1.1438 1.2380
H4C H 0.2315 1.2076 1.2421
N1C N 0.1556(3) 0.80189(14) 0.99266(16)
C5C C 0.0103(3) 0.96168(16) 1.12357(19)
H5C H 0.0833 0.9709 1.0979
O4C O -0.2587(4) 0.80184(14) 1.22826(15)
C6C C 0.0446(3) 0.84221(17) 1.09514(19)
C7C C -0.0079(4) 1.08547(18) 1.1501(2)
C8C C 0.0794(4) 0.84672(18) 1.02534(19)
H6C H 0.0486 0.8826 0.9993
O5C O -0.0789(3) 1.12997(14) 1.1727(2)
C9C C 0.1991(4) 0.75071(19) 1.0313(2)
H7C H 0.2528 0.7197 1.0102
O6C O 0.0330(3) 1.23898(14) 1.13436(18)
H8C H 0.0490 1.2775 1.1511
H9C H -0.0165 1.2180 1.1618
C10C C 0.0899(4) 0.78767(19) 1.1328(2)
H10C H 0.0676 0.7821 1.1797
C11C C -0.0537(4) 1.01411(17) 1.15674(19)
C18C C -0.0330(4) 0.89561(17) 1.12822(17)
C19C C 0.1679(4) 0.7420(2) 1.1004(2)
H17C H 0.1992 0.7055 1.1252
O1D O 0.2977(2) 0.72352(11) 0.88106(13)
O1G O 0.2977(2) 1.27648(11) 1.11894(13)
Ni1D Ni -0.30221(4) 1.31493(2) 0.88638(2)
Ni1G Ni -0.30221(4) 0.68507(2) 1.11362(2)
O7 O 0.0636(9) 0.6364(4) 0.6850(4)
loop_
_geom_bond_atom_site_label_1
_geom_bond_atom_site_label_2
_geom_bond_site_symmetry_1
_geom_bond_site_symmetry_2
O1 C1 1_555 1_555
C1 C2 1_555 1_555
C2 C3 1_555 1_555
C3 H1 1_555 1_555
C4 C3 1_555 1_555
H2 C4 1_555 1_555
Ni1 O2 1_555 1_555
O2 C7 1_555 1_555
O3 Ni1 1_555 1_555
H3 O3 1_555 1_555
H4 O3 1_555 1_555
N1 C8 1_555 1_555
C5 H5 1_555 1_555
N2 Ni1 1_555 1_555
O4 C1 1_555 1_555
C6 C8 1_555 1_555
C7 O5 1_555 1_555
C8 H6 1_555 1_555
C9 N1 1_555 1_555
H7 C9 1_555 1_555
O6 Ni1 1_555 1_555
H8 O6 1_555 1_555
H9 O6 1_555 1_555
C10 C6 1_555 1_555
H10 C10 1_555 1_555
C11 C4 1_555 1_555
C12 C14 1_555 1_555
C13 N2 1_555 1_555
H11 C13 1_555 1_555
C14 H12 1_555 1_555
C15 C12 1_555 1_555
H13 C15 1_555 1_555
H14 C15 1_555 1_555
C16 C12 1_555 1_555
H15 C16 1_555 1_555
C17 N2 1_555 1_555
H16 C17 1_555 1_555
C18 C2 1_555 1_555
C19 C9 1_555 1_555
H17 C19 1_555 1_555
N2C C13C 1_555 1_555
C12C C14C 1_555 1_555
C13C H11C 1_555 1_555
C14C H12C 1_555 1_555
C15C C15 1_555 1_555
H13C C15C 1_555 1_555
H14C C15C 1_555 1_555
C16C C12C 1_555 1_555
H15C C16C 1_555 1_555
C17C N2C 1_555 1_555
H16C C17C 1_555 1_555
O1C C1C 1_555 1_555
C1C C2C 1_555 1_555
C2C C3C 1_555 1_555
C3C H1C 1_555 1_555
C4C C3C 1_555 1_555
H2C C4C 1_555 1_555
Ni1C N1 1_555 1_555
O2C Ni1C 1_555 1_555
O3C Ni1C 1_555 1_555
H3C O3C 1_555 1_555
H4C O3C 1_555 1_555
N1C Ni1 1_555 1_555
C5C H5C 1_555 1_555
O4C C1C 1_555 1_555
C6C C8C 1_555 1_555
C7C O2C 1_555 1_555
C8C N1C 1_555 1_555
H6C C8C 1_555 1_555
O5C C7C 1_555 1_555
C9C N1C 1_555 1_555
H7C C9C 1_555 1_555
O6C Ni1C 1_555 1_555
H8C O6C 1_555 1_555
H9C O6C 1_555 1_555
C10C C6C 1_555 1_555
H10C C10C 1_555 1_555
C11C C4C 1_555 1_555
C18C C2C 1_555 1_555
C19C C9C 1_555 1_555
H17C C19C 1_555 1_555
O1D Ni1 1_555 1_555
O1G Ni1C 1_555 1_555
Ni1D O1 1_555 1_555
Ni1G O1C 1_555 1_555
C5 C11 1_555 1_555
C5 C18 1_555 1_555
C6 C18 1_555 1_555
C7 C11 1_555 1_555
C10 C19 1_555 1_555
C13 C16 1_555 1_555
C14 C17 1_555 1_555
N2C Ni1C 1_555 1_555
C12C C15C 1_555 1_555
C13C C16C 1_555 1_555
C14C C17C 1_555 1_555
C5C C11C 1_555 1_555
C5C C18C 1_555 1_555
C6C C18C 1_555 1_555
C7C C11C 1_555 1_555
C10C C19C 1_555 1_555

#END
