
#######################################################################
#
#                 Cambridge Crystallographic Data Centre
#                                CCDC 
#
#######################################################################
#
# If this CIF has been generated from an entry in the Cambridge 
# Structural Database, then it will include bibliographic, chemical, 
# crystal, experimental, refinement or atomic coordinate data resulting 
# from the CCDC's data processing and validation procedures.
#
#######################################################################

data_SOCLED
_symmetry_cell_setting           triclinic
_symmetry_space_group_name_H-M   'P -1'
_symmetry_Int_Tables_number      2
_space_group_name_Hall           '-P 1'
loop_
_symmetry_equiv_pos_site_id
_symmetry_equiv_pos_as_xyz
1 x,y,z
2 -x,-y,-z
_cell_length_a                   7.0670(6)
_cell_length_b                   9.5235(9)
_cell_length_c                   10.4625(9)
_cell_angle_alpha                111.7300(10)
_cell_angle_beta                 101.4860(10)
_cell_angle_gamma                96.8740(10)
_cell_volume                     626.381
loop_
_atom_site_label
_atom_site_type_symbol
_atom_site_fract_x
_atom_site_fract_y
_atom_site_fract_z
Ni1 Ni 0.48535(5) 0.01488(3) 0.21336(3)
C1 C 0.6651(4) 0.2166(3) 0.0986(3)
C2 C 0.9787(4) 0.4287(3) 0.2260(3)
H1 H 1.0288 0.3716 0.2750
C3 C 1.0885(4) 0.5737(3) 0.2542(3)
C4 C 1.0077(4) 0.6622(3) 0.1836(3)
C5 C 0.8253(4) 0.5994(3) 0.0834(3)
H2 H 0.7716 0.6573 0.0366
C6 C 0.7221(4) 0.4527(3) 0.0518(3)
H3 H 0.6034 0.4111 -0.0190
C7 C 0.7948(4) 0.3676(3) 0.1253(3)
C8 C 1.1139(4) 0.8187(3) 0.2015(3)
C9 C 1.3176(4) 0.7543(3) 0.4887(3)
H4 H 1.2108 0.7973 0.5107
C10 C 1.2858(4) 0.6306(3) 0.3584(3)
C11 C 1.4442(4) 0.5632(3) 0.3297(3)
H5 H 1.4273 0.4758 0.2463
C12 C 1.6293(4) 0.6280(4) 0.4275(3)
H6 H 1.7385 0.5862 0.4095
C13 C 1.6470(4) 0.7549(3) 0.5508(3)
H7 H 1.7717 0.8008 0.6137
N1 N 1.4945(3) 0.8154(3) 0.5847(2)
O1 O 0.6989(3) 0.1651(2) 0.1934(2)
O2 O 0.5246(3) 0.1570(2) -0.01343(19)
O3 O 1.2989(3) 0.8497(2) 0.23698(19)
O4 O 1.0070(3) 0.9059(2) 0.1732(3)
O5 O 0.7101(3) -0.0682(2) 0.3019(2)
O6 O 0.2585(3) 0.0994(2) 0.1271(2)
H8 H 0.155(3) 0.035(3) 0.116(2)
H9 H 0.2673(18) 0.0953(12) 0.0462(12)
H10 H 0.8027 -0.0778 0.2614
H11 H 0.6629 -0.1534 0.3015
Ni1_2 Ni 1.48535(5) 1.01488(3) 0.21336(3)
Ni1A Ni 0.51465(5) -0.01488(3) -0.21336(3)
Ni1A_2 Ni 1.51465(5) 0.98512(3) 0.78664(3)
N1A N 0.5055(3) 0.1846(3) 0.4153(2)
O2A O 0.4754(3) -0.1570(2) 0.01343(19)
O3_2 O 0.2989(3) -0.1503(2) 0.23698(19)
loop_
_geom_bond_atom_site_label_1
_geom_bond_atom_site_label_2
_geom_bond_site_symmetry_1
_geom_bond_site_symmetry_2
Ni1 O1 1_555 1_555
C1 C7 1_555 1_555
C2 H1 1_555 1_555
C3 C2 1_555 1_555
C4 C3 1_555 1_555
C5 C4 1_555 1_555
H2 C5 1_555 1_555
C6 C5 1_555 1_555
H3 C6 1_555 1_555
C7 C2 1_555 1_555
C8 C4 1_555 1_555
C9 H4 1_555 1_555
C10 C3 1_555 1_555
C11 C10 1_555 1_555
H5 C11 1_555 1_555
C12 C11 1_555 1_555
H6 C12 1_555 1_555
C13 C12 1_555 1_555
H7 C13 1_555 1_555
N1 C9 1_555 1_555
O1 C1 1_555 1_555
O2 C1 1_555 1_555
O3 C8 1_555 1_555
O4 C8 1_555 1_555
O5 Ni1 1_555 1_555
O6 Ni1 1_555 1_555
H8 O6 1_555 1_555
H9 O6 1_555 1_555
H10 O5 1_555 1_555
H11 O5 1_555 1_555
Ni1_2 O3 1_555 1_555
Ni1A O2 1_555 1_555
Ni1A_2 N1 1_555 1_555
N1A Ni1 1_555 1_555
O2A Ni1 1_555 1_555
O3_2 Ni1 1_555 1_555
C6 C7 1_555 1_555
C9 C10 1_555 1_555
C13 N1 1_555 1_555

#END
