
#######################################################################
#
#                 Cambridge Crystallographic Data Centre
#                                CCDC 
#
#######################################################################
#
# If this CIF has been generated from an entry in the Cambridge 
# Structural Database, then it will include bibliographic, chemical, 
# crystal, experimental, refinement or atomic coordinate data resulting 
# from the CCDC's data processing and validation procedures.
#
#######################################################################

data_SOCMUU
_symmetry_cell_setting           hexagonal
_symmetry_space_group_name_H-M   'P 64 2 2'
_symmetry_Int_Tables_number      181
_space_group_name_Hall           "P 64 2' (0,0,2)"
loop_
_symmetry_equiv_pos_site_id
_symmetry_equiv_pos_as_xyz
1 x,y,z
2 -y,x-y,1/3+z
3 -x+y,-x,2/3+z
4 -x,-y,z
5 y,-x+y,1/3+z
6 x-y,x,2/3+z
7 y,x,1/3-z
8 x-y,-y,-z
9 -x,-x+y,2/3-z
10 -y,-x,1/3-z
11 -x+y,y,-z
12 x,x-y,2/3-z
_cell_length_a                   11.5714(5)
_cell_length_b                   11.5714(5)
_cell_length_c                   22.773(2)
_cell_angle_alpha                90
_cell_angle_beta                 90
_cell_angle_gamma                120
_cell_volume                     2640.72
loop_
_atom_site_label
_atom_site_type_symbol
_atom_site_fract_x
_atom_site_fract_y
_atom_site_fract_z
Zn1 Zn 1.18723(8) -0.18723(8) 0.1667
O1 O 1.3285(9) -0.1800(11) 0.1175(4)
O2 O 1.2169(11) -0.1871(13) 0.0502(4)
N1 N 0.9955(9) -0.2579(7) 0.1400(3)
C1 C 1.3125(16) -0.1828(19) 0.0682(7)
C2 C 1.4063(17) -0.1852(15) 0.0244(5)
H1 H 1.4784 -0.1870 0.0413
C3 C 0.9606(9) -0.1880(9) 0.1058(4)
H2 H 1.0199 -0.0971 0.1017
C4 C 0.8434(10) -0.2416(10) 0.0764(4)
H3 H 0.8246 -0.1868 0.0532
C5 C 0.7513(8) -0.3756(9) 0.0802(4)
C6 C 0.7858(10) -0.4492(10) 0.1165(4)
H4 H 0.7277 -0.5403 0.1209
C7 C 0.9054(8) -0.3888(9) 0.1462(4)
H5 H 0.9249 -0.4401 0.1713
C8 C 0.6252(9) -0.4401(11) 0.0455(4)
H6 H 0.6238 -0.5098 0.0213
H7 H 0.6246 -0.3742 0.0193
C9 C 0.5000 -0.5000 0.0825(5)
H8 H 0.5018 -0.4321 0.1073
O1J O 1.4915(14) -0.1800(11) -0.1175(4)
O2J O 1.5960(17) -0.1871(13) -0.0502(4)
C1J C 1.5047(25) -0.1828(19) -0.0682(7)
C2J C 1.4085(23) -0.1852(15) -0.0244(5)
H1J H 1.3346 -0.1870 -0.0413
N1C N 0.0045(9) -0.7421(7) 0.1400(3)
C3C C 0.0394(9) -0.8120(9) 0.1058(4)
H2C H -0.0199 -0.9029 0.1017
C4C C 0.1566(10) -0.7584(10) 0.0764(4)
H3C H 0.1754 -0.8132 0.0532
C5C C 0.2487(8) -0.6244(9) 0.0802(4)
C6C C 0.2142(10) -0.5508(10) 0.1165(4)
H4C H 0.2723 -0.4597 0.1209
C7C C 0.0946(8) -0.6112(9) 0.1462(4)
H5C H 0.0751 -0.5599 0.1713
C8C C 0.3748(9) -0.5599(11) 0.0455(4)
H6C H 0.3762 -0.4902 0.0213
H7C H 0.3754 -0.6258 0.0193
H8C H 0.4982 -0.5679 0.1073
Zn1B Zn 1.62554(11) -0.18723(8) -0.1666
Zn1C Zn -0.18723(8) -0.81277(8) 0.1667
O1I O 1.1800(11) -0.3285(9) 0.2158(4)
N1I N 1.2579(7) 0.0045(9) 0.1933(3)
O3 O 0.8249(17) 0.0000 0.0000
loop_
_geom_bond_atom_site_label_1
_geom_bond_atom_site_label_2
_geom_bond_site_symmetry_1
_geom_bond_site_symmetry_2
Zn1 O1 1_555 1_555
O1 C1 1_555 1_555
O2 C1 1_555 1_555
N1 Zn1 1_555 1_555
C1 C2 1_555 1_555
C2 H1 1_555 1_555
C3 N1 1_555 1_555
H2 C3 1_555 1_555
C4 C3 1_555 1_555
H3 C4 1_555 1_555
C5 C4 1_555 1_555
C6 C5 1_555 1_555
H4 C6 1_555 1_555
C7 N1 1_555 1_555
H5 C7 1_555 1_555
C8 C5 1_555 1_555
H6 C8 1_555 1_555
H7 C8 1_555 1_555
C9 C8 1_555 1_555
H8 C9 1_555 1_555
O1J C1J 1_555 1_555
O2J C1J 1_555 1_555
C1J C2J 1_555 1_555
C2J C2 1_555 1_555
H1J C2J 1_555 1_555
N1C C3C 1_555 1_555
C3C H2C 1_555 1_555
C4C C3C 1_555 1_555
H3C C4C 1_555 1_555
C5C C4C 1_555 1_555
C6C C5C 1_555 1_555
H4C C6C 1_555 1_555
C7C N1C 1_555 1_555
H5C C7C 1_555 1_555
C8C C9 1_555 1_555
H6C C8C 1_555 1_555
H7C C8C 1_555 1_555
H8C C9 1_555 1_555
Zn1B O1J 1_555 1_555
Zn1C N1C 1_555 1_555
O1I Zn1 1_555 1_555
N1I Zn1 1_555 1_555
C6 C7 1_555 1_555
C5C C8C 1_555 1_555
C6C C7C 1_555 1_555

#END
