
#######################################################################
#
#                 Cambridge Crystallographic Data Centre
#                                CCDC 
#
#######################################################################
#
# If this CIF has been generated from an entry in the Cambridge 
# Structural Database, then it will include bibliographic, chemical, 
# crystal, experimental, refinement or atomic coordinate data resulting 
# from the CCDC's data processing and validation procedures.
#
#######################################################################

data_SOCNOP
_symmetry_cell_setting           monoclinic
_symmetry_space_group_name_H-M   'C 2/c'
_symmetry_Int_Tables_number      15
_space_group_name_Hall           '-C 2yn'
loop_
_symmetry_equiv_pos_site_id
_symmetry_equiv_pos_as_xyz
1 x,y,z
2 -x,y,1/2-z
3 1/2+x,1/2+y,z
4 1/2-x,1/2+y,1/2-z
5 -x,-y,-z
6 x,-y,1/2+z
7 1/2-x,1/2-y,-z
8 1/2+x,1/2-y,1/2+z
_cell_length_a                   17.370(5)
_cell_length_b                   12.694(4)
_cell_length_c                   12.332(4)
_cell_angle_alpha                90
_cell_angle_beta                 92.587(6)
_cell_angle_gamma                90
_cell_volume                     2716.37
loop_
_atom_site_label
_atom_site_type_symbol
_atom_site_fract_x
_atom_site_fract_y
_atom_site_fract_z
Zn1 Zn -0.163540(19) 0.25616(2) 0.99274(3)
C1 C -0.20841(19) 0.1140(2) 1.1499(2)
C2 C -0.20128(19) 0.0318(2) 1.2372(2)
H1 H -0.1525 0.0151 1.2666
C3 C -0.26142(19) -0.0175(2) 1.2738(3)
H2 H -0.3098 0.0005 1.2440
C4 C -0.25758(18) -0.1003(2) 1.3598(2)
C5 C -0.0390(2) 0.3972(3) 0.9205(3)
H3 H -0.0686 0.4564 0.9341
C6 C 0.02998(19) 0.3988(3) 0.8781(3)
H4 H 0.0572 0.4581 0.8576
C7 C -0.0027(2) 0.2348(2) 0.9105(3)
C8 C 0.0011(2) 0.1195(3) 0.9207(4)
H5 H -0.0451 0.0940 0.9515
H6 H 0.0448 0.1004 0.9671
H7 H 0.0063 0.0887 0.8503
C9 C 0.1269(2) 0.2609(3) 0.8318(3)
H8 H 0.1426 0.3083 0.7752
H9 H 0.1203 0.1914 0.7999
C10 C 0.1902(2) 0.2562(2) 0.9206(3)
C11 C 0.2647(2) 0.2405(3) 0.8922(3)
H10 H 0.2752 0.2339 0.8192
C12 C 0.3248(2) 0.2341(3) 0.9700(3)
H11 H 0.3750 0.2233 0.9490
N1 N -0.05998(14) 0.2956(2) 0.94100(19)
N2 N 0.05313(14) 0.2963(2) 0.8705(2)
O1 O -0.14623(14) 0.14902(18) 1.11523(19)
O2 O -0.27409(14) 0.14295(18) 1.11791(18)
O3 O -0.19235(14) -0.13553(17) 1.38971(18)
O4 O -0.32130(14) -0.12979(19) 1.39381(19)
C5F C 0.5390(2) 0.1028(3) 1.0795(3)
H3F H 0.5686 0.0436 1.0659
C6F C 0.47002(19) 0.1012(3) 1.1219(3)
H4F H 0.4428 0.0419 1.1424
C7F C 0.5027(2) 0.2652(2) 1.0895(3)
C8F C 0.4989(2) 0.3805(3) 1.0793(4)
H5F H 0.5451 0.4060 1.0485
H6F H 0.4552 0.3996 1.0329
H7F H 0.4937 0.4113 1.1497
C9F C 0.3731(2) 0.2391(3) 1.1682(3)
H8F H 0.3574 0.1917 1.2248
H9F H 0.3797 0.3086 1.2001
C10F C 0.3098(2) 0.2438(2) 1.0794(3)
C11F C 0.2353(2) 0.2595(3) 1.1078(3)
H10F H 0.2248 0.2661 1.1808
C12F C 0.1752(2) 0.2659(3) 1.0300(3)
H11F H 0.1250 0.2767 1.0510
N1F N 0.55998(14) 0.2044(2) 1.05900(19)
N2F N 0.44687(14) 0.2037(2) 1.1295(2)
Zn1F Zn -0.336460(19) 0.24384(2) 1.00726(3)
C1F C -0.29159(19) 0.3860(2) 0.8501(2)
C2F C -0.29872(19) 0.4682(2) 0.7628(2)
H1F H -0.3475 0.4849 0.7334
C3F C -0.23858(19) 0.5175(2) 0.7262(3)
H2F H -0.1902 0.4995 0.7560
C4F C -0.24242(18) 0.6003(2) 0.6402(2)
O1F O -0.35377(14) 0.35098(18) 0.88477(19)
O2F O -0.22591(14) 0.35705(18) 0.88209(18)
O3F O -0.30765(14) 0.63553(17) 0.61029(18)
O4F O -0.17870(14) 0.62979(19) 0.60619(19)
Zn1C Zn -0.336460(19) -0.24384(2) 1.50726(3)
Zn1C_2 Zn -0.336460(19) 0.75616(2) 0.50726(3)
Zn1E Zn -0.163540(19) -0.25616(2) 1.49274(3)
Zn1E_2 Zn -0.163540(19) 0.74384(2) 0.49274(3)
Zn1F_2 Zn 0.663540(19) 0.24384(2) 1.00726(3)
N1F_2 N -0.44002(14) 0.2044(2) 1.05900(19)
O3C O -0.30765(14) 0.36447(17) 1.11029(18)
O3E O -0.19235(14) 0.13553(17) 0.88971(18)
O4C O -0.17870(14) 0.37021(19) 1.10619(19)
O4E O -0.32130(14) 0.12979(19) 0.89381(19)
O5 O 0.5000 0.3997(9) 0.7500
H12 H 0.4783 0.3576 0.7926
H12A H 0.5217 0.3576 0.7074
loop_
_geom_bond_atom_site_label_1
_geom_bond_atom_site_label_2
_geom_bond_site_symmetry_1
_geom_bond_site_symmetry_2
Zn1 N1 1_555 1_555
C1 C2 1_555 1_555
C2 H1 1_555 1_555
C3 C2 1_555 1_555
H2 C3 1_555 1_555
C4 C3 1_555 1_555
C5 H3 1_555 1_555
C6 C5 1_555 1_555
H4 C6 1_555 1_555
C7 C8 1_555 1_555
C8 H5 1_555 1_555
H6 C8 1_555 1_555
H7 C8 1_555 1_555
C9 H8 1_555 1_555
H9 C9 1_555 1_555
C10 C9 1_555 1_555
C11 C10 1_555 1_555
H10 C11 1_555 1_555
C12 C11 1_555 1_555
H11 C12 1_555 1_555
N1 C5 1_555 1_555
N2 C6 1_555 1_555
O1 Zn1 1_555 1_555
O2 C1 1_555 1_555
O3 C4 1_555 1_555
O4 C4 1_555 1_555
O5 H12 1_555 1_555
C5F H3F 1_555 1_555
C6F C5F 1_555 1_555
H4F C6F 1_555 1_555
C7F C8F 1_555 1_555
C8F H5F 1_555 1_555
H6F C8F 1_555 1_555
H7F C8F 1_555 1_555
C9F H8F 1_555 1_555
H9F C9F 1_555 1_555
C10F C12 1_555 1_555
C11F C10F 1_555 1_555
H10F C11F 1_555 1_555
C12F C10 1_555 1_555
H11F C12F 1_555 1_555
N1F C5F 1_555 1_555
N2F C6F 1_555 1_555
Zn1F O2 1_555 1_555
C1F C2F 1_555 1_555
C2F H1F 1_555 1_555
C3F C2F 1_555 1_555
H2F C3F 1_555 1_555
C4F C3F 1_555 1_555
O1F Zn1F 1_555 1_555
O2F Zn1 1_555 1_555
O3F C4F 1_555 1_555
O4F C4F 1_555 1_555
Zn1C O4 1_555 1_555
Zn1C_2 O3F 1_555 1_555
Zn1E O3 1_555 1_555
Zn1E_2 O4F 1_555 1_555
Zn1F_2 N1F 1_555 1_555
N1F_2 Zn1F 1_555 1_555
O3C Zn1F 1_555 1_555
O3E Zn1 1_555 1_555
O4C Zn1 1_555 1_555
O4E Zn1F 1_555 1_555
H12A O5 1_555 1_555
C1 O1 1_555 1_555
C7 N1 1_555 1_555
C7 N2 1_555 1_555
C9 N2 1_555 1_555
C7F N1F 1_555 1_555
C7F N2F 1_555 1_555
C9F C10F 1_555 1_555
C9F N2F 1_555 1_555
C11F C12F 1_555 1_555
C1F O1F 1_555 1_555
C1F O2F 1_555 1_555

#END
