
#######################################################################
#
#                 Cambridge Crystallographic Data Centre
#                                CCDC 
#
#######################################################################
#
# If this CIF has been generated from an entry in the Cambridge 
# Structural Database, then it will include bibliographic, chemical, 
# crystal, experimental, refinement or atomic coordinate data resulting 
# from the CCDC's data processing and validation procedures.
#
#######################################################################

data_SOCPUW
_symmetry_cell_setting           triclinic
_symmetry_space_group_name_H-M   'P -1'
_symmetry_Int_Tables_number      2
_space_group_name_Hall           '-P 1'
loop_
_symmetry_equiv_pos_site_id
_symmetry_equiv_pos_as_xyz
1 x,y,z
2 -x,-y,-z
_cell_length_a                   14.6735(7)
_cell_length_b                   16.9018(9)
_cell_length_c                   17.1077(9)
_cell_angle_alpha                91.883(1)
_cell_angle_beta                 107.244(1)
_cell_angle_gamma                91.690(1)
_cell_volume                     4046.53
loop_
_atom_site_label
_atom_site_type_symbol
_atom_site_fract_x
_atom_site_fract_y
_atom_site_fract_z
Zn1 Zn 0.78452(5) 0.62525(5) 0.73338(4)
O1 O 0.4245(4) 0.5897(3) 0.3487(3)
O2 O 0.6396(3) 0.6876(3) 0.0891(3)
O3 O 0.1714(3) 0.5736(3) 0.0864(3)
O4 O 0.8161(3) 0.7508(3) 0.7335(3)
O5 O 0.7716(3) 0.8712(3) 0.7159(3)
O6 O 0.6737(4) 0.7805(3) 0.7340(4)
O7 O 0.7856(4) 0.5011(3) 0.7179(3)
O8 O 0.8851(4) 0.5473(4) 0.6549(4)
O9 O 0.8674(7) 0.4219(5) 0.6655(5)
N1 N 0.7073(4) 0.6341(3) 0.6124(3)
N2 N 0.5707(4) 0.6460(3) 0.3610(3)
H1 H 0.6047 0.6702 0.3337
N3 N 0.7041(4) 0.6222(3) -0.1872(3)
N4 N 0.5438(4) 0.6175(3) -0.0226(3)
H2 H 0.4883 0.5916 -0.0417
N5 N -0.0791(4) 0.6284(3) -0.1871(3)
N6 N 0.1948(4) 0.6389(3) -0.0206(3)
H3 H 0.2380 0.6643 -0.0376
N7 N 0.7520(4) 0.8015(3) 0.7280(3)
N8 N 0.8471(6) 0.4885(4) 0.6788(4)
C1 C 0.4550(5) 0.6231(4) 0.2263(4)
C2 C 0.5224(4) 0.6340(4) 0.1837(4)
H4 H 0.5885 0.6401 0.2129
C3 C 0.4925(4) 0.6357(4) 0.0991(4)
C4 C 0.3966(4) 0.6281(4) 0.0570(4)
H5 H 0.3764 0.6294 -0.0011
C5 C 0.3290(4) 0.6187(4) 0.0988(4)
C6 C 0.3587(4) 0.6146(4) 0.1830(4)
H6 H 0.3129 0.6058 0.2115
C7 C 0.4818(4) 0.6168(4) 0.3167(4)
C8 C 0.7430(5) 0.6773(4) 0.5630(4)
H7 H 0.8025 0.7056 0.5860
C9 C 0.6979(5) 0.6826(4) 0.4813(4)
H8 H 0.7255 0.7148 0.4491
C10 C 0.6125(5) 0.6413(4) 0.4453(4)
C11 C 0.5756(5) 0.5958(4) 0.4957(4)
H9 H 0.5170 0.5661 0.4739
C12 C 0.6246(5) 0.5944(4) 0.5775(4)
H10 H 0.5981 0.5632 0.6112
C13 C 0.5651(4) 0.6493(4) 0.0558(4)
C14 C 0.7309(5) 0.6680(4) -0.1189(4)
H11 H 0.7868 0.7013 -0.1091
C15 C 0.6815(5) 0.6697(4) -0.0613(4)
H12 H 0.7032 0.7032 -0.0132
C16 C 0.5999(4) 0.6213(4) -0.0755(4)
C17 C 0.5697(5) 0.5758(4) -0.1479(4)
H13 H 0.5121 0.5443 -0.1612
C18 C 0.6253(4) 0.5772(4) -0.2004(4)
H14 H 0.6058 0.5439 -0.2487
C19 C 0.2250(4) 0.6080(4) 0.0558(4)
C20 C -0.0600(5) 0.5877(4) -0.1191(4)
H15 H -0.1101 0.5558 -0.1103
C21 C 0.0281(5) 0.5893(5) -0.0609(4)
H16 H 0.0374 0.5602 -0.0127
C22 C 0.1019(4) 0.6333(4) -0.0734(4)
C23 C 0.0837(5) 0.6747(4) -0.1451(4)
H17 H 0.1332 0.7053 -0.1565
C24 C -0.0067(4) 0.6706(4) -0.1992(4)
H18 H -0.0182 0.6994 -0.2477
Zn1_2 Zn 0.78452(5) 0.62525(5) -0.26662(4)
Zn1_3 Zn -0.21548(5) 0.62525(5) -0.26662(4)
N3_2 N 0.7041(4) 0.6222(3) 0.8128(3)
N5_2 N 0.9209(4) 0.6284(3) 0.8129(3)
Zn2 Zn 0.73781(5) 0.88393(4) 0.28650(4)
O10 O 1.1022(3) 0.9026(3) 0.6699(3)
O11 O 0.8777(3) 0.8235(3) 0.9272(3)
O12 O 1.3508(3) 0.9299(3) 0.9360(3)
O13 O 0.7070(3) 0.7574(3) 0.2973(3)
O14 O 0.7541(4) 0.6377(3) 0.3081(3)
O15 O 0.8488(3) 0.7314(3) 0.2935(4)
O16 O 0.7289(3) 1.0099(3) 0.2917(3)
H19 H 0.7868 1.0330 0.3158
H20 H 0.6896 1.0274 0.3195
N9 N 0.8138(4) 0.8865(3) 0.4077(3)
N10 N 0.9475(4) 0.8785(3) 0.6602(3)
H21 H 0.9078 0.8678 0.6885
N11 N 0.8137(4) 0.8829(3) 1.2054(3)
N12 N 0.9735(4) 0.8919(3) 1.0404(3)
H22 H 1.0279 0.9197 1.0589
N13 N 1.5964(3) 0.8824(3) 1.2172(3)
N14 N 1.3256(3) 0.8660(3) 1.0430(3)
H23 H 1.2819 0.8394 1.0585
N15 N 0.7721(4) 0.7076(4) 0.2989(3)
C25 C 1.0659(4) 0.8820(4) 0.7938(3)
C26 C 0.9989(4) 0.8729(4) 0.8356(4)
H24 H 0.9329 0.8672 0.8062
C27 C 1.0281(4) 0.8721(4) 0.9202(4)
C28 C 1.1242(4) 0.8791(4) 0.9646(4)
H25 H 1.1434 0.8791 1.0227
C29 C 1.1922(4) 0.8861(4) 0.9225(4)
C30 C 1.1627(4) 0.8881(4) 0.8382(4)
H26 H 1.2091 0.8936 0.8099
C31 C 1.0408(5) 0.8878(4) 0.7027(4)
C32 C 0.7667(5) 0.8838(5) 0.4617(4)
H27 H 0.6989 0.8830 0.4422
C33 C 0.8092(5) 0.8820(5) 0.5450(4)
H28 H 0.7711 0.8792 0.5811
C34 C 0.9073(4) 0.8843(4) 0.5755(4)
C35 C 0.9598(5) 0.8890(4) 0.5198(4)
H29 H 1.0277 0.8922 0.5378
C36 C 0.9098(5) 0.8890(4) 0.4375(4)
H30 H 0.9454 0.8910 0.3994
C37 C 0.9517(5) 0.8595(4) 0.9622(4)
C38 C 0.7799(5) 0.8473(4) 1.1317(4)
H31 H 0.7193 0.8200 1.1182
C39 C 0.8278(5) 0.8476(4) 1.0738(4)
H32 H 0.7999 0.8225 1.0212
C40 C 0.9176(4) 0.8850(4) 1.0934(4)
C41 C 0.9549(4) 0.9198(4) 1.1714(4)
H33 H 1.0170 0.9446 1.1879
C42 C 0.9011(5) 0.9179(4) 1.2244(4)
H34 H 0.9271 0.9426 1.2773
C43 C 1.2967(5) 0.8963(4) 0.9669(4)
C44 C 1.5251(4) 0.8352(4) 1.2244(4)
H35 H 1.5372 0.8036 1.2710
C45 C 1.4360(4) 0.8290(4) 1.1695(4)
H36 H 1.3876 0.7956 1.1791
C46 C 1.4170(4) 0.8728(4) 1.0990(4)
C47 C 1.4909(5) 0.9229(4) 1.0902(4)
H37 H 1.4813 0.9542 1.0435
C48 C 1.5768(4) 0.9260(4) 1.1495(4)
H38 H 1.6259 0.9608 1.1431
Zn2_2 Zn 0.73781(5) 0.88393(4) 1.28650(4)
Zn2_3 Zn 1.73781(5) 0.88393(4) 1.28650(4)
N11_2 N 0.8137(4) 0.8829(3) 0.2054(3)
N13_2 N 0.5964(3) 0.8824(3) 0.2172(3)
O17 O 0.8201(6) 1.0928(5) 0.5188(4)
O18 O 0.8987(5) 1.0686(5) 0.6425(4)
O19 O 0.7451(5) 1.0523(4) 0.5989(4)
N16 N 0.8230(5) 1.0712(5) 0.5871(5)
O20 O 1.2152(3) 0.7840(3) 1.1280(3)
N17 N 1.1105(5) 0.7418(4) 1.1930(4)
C49 C 1.1398(5) 0.7546(4) 1.1294(5)
H39 H 1.0963 0.7388 1.0776
C50 C 1.0214(6) 0.7023(6) 1.1892(7)
H40 H 0.9818 0.6959 1.1320
H41 H 0.9882 0.7339 1.2204
H42 H 1.0335 0.6501 1.2127
C51 C 1.1768(9) 0.7603(7) 1.2750(6)
H43 H 1.1978 0.7109 1.3019
H44 H 1.1444 0.7911 1.3075
H45 H 1.2323 0.7912 1.2702
O21 O 1.0864(8) 0.7068(7) 0.6556(7)
N18 N 1.0501(6) 0.6955(5) 0.5190(6)
C52 C 1.0990(12) 0.7261(7) 0.5894(7)
H46 H 1.1472 0.7655 0.5912
C53 C 0.9742(8) 0.6359(8) 0.5087(10)
H47 H 0.9887 0.5883 0.4811
H48 H 0.9138 0.6563 0.4756
H49 H 0.9688 0.6225 0.5625
C54 C 1.0660(7) 0.7232(6) 0.4457(6)
H50 H 1.1135 0.7674 0.4596
H51 H 1.0059 0.7411 0.4091
H52 H 1.0894 0.6800 0.4181
O22 O 0.3644(4) 0.5255(3) -0.1078(3)
N19 N 0.2090(4) 0.4998(4) -0.1779(4)
C55 C 0.2931(6) 0.5348(5) -0.1661(5)
H53 H 0.2997 0.5704 -0.2060
C56 C 0.1274(7) 0.5095(7) -0.2516(6)
H54 H 0.1416 0.5541 -0.2819
H55 H 0.0702 0.5199 -0.2352
H56 H 0.1164 0.4609 -0.2866
C57 C 0.1946(6) 0.4446(6) -0.1206(7)
H57 H 0.2480 0.4502 -0.0700
H58 H 0.1910 0.3906 -0.1442
H59 H 0.1348 0.4554 -0.1084
O23 O 1.3079(4) 0.7245(3) 0.8934(3)
N20 N 1.3944(6) 0.7702(5) 0.8134(5)
C58 C 1.3687(10) 0.7489(8) 0.8696(8)
H60 H 1.4234 0.7548 0.9162
C59 C 1.4713(16) 0.8019(14) 0.8008(14)
H61 H 1.4552 0.8508 0.7714
H62 H 1.4964 0.7645 0.7680
H63 H 1.5198 0.8140 0.8535
C60 C 1.3164(11) 0.7530(10) 0.7309(10)
H64 H 1.3350 0.7089 0.7011
H65 H 1.3091 0.8002 0.6982
H66 H 1.2558 0.7390 0.7410
O24 O 1.1411(3) 0.9822(3) 1.1242(3)
N21 N 1.2995(4) 1.0092(3) 1.1835(3)
C61 C 1.2147(5) 0.9787(4) 1.1821(5)
H67 H 1.2102 0.9522 1.2291
C62 C 1.3088(5) 1.0558(5) 1.1175(5)
H68 H 1.3168 1.1119 1.1353
H69 H 1.2513 1.0476 1.0705
H70 H 1.3647 1.0397 1.1017
C63 C 1.3802(5) 1.0099(5) 1.2581(5)
H71 H 1.3615 0.9813 1.3003
H72 H 1.3993 1.0647 1.2778
H73 H 1.4339 0.9840 1.2464
O25 O 0.5657(6) 0.4394(6) 0.3381(6)
N22 N 0.7058(6) 0.4416(5) 0.4298(5)
C64 C 0.6405(8) 0.4623(7) 0.3604(7)
H74 H 0.6606 0.4998 0.3280
C65 C 0.7983(8) 0.4797(6) 0.4529(7)
H75 H 0.8457 0.4410 0.4499
H76 H 0.8134 0.5020 0.5091
H77 H 0.7996 0.5222 0.4156
C66 C 0.6828(8) 0.3868(8) 0.4848(9)
H78 H 0.6138 0.3748 0.4675
H79 H 0.7024 0.4106 0.5406
H80 H 0.7166 0.3378 0.4837
N23 N 0.5113(6) 1.1607(5) 0.5095(5)
O26 O 0.4703(5) 1.0622(6) 0.5810(5)
C67 C 0.4628(7) 1.0951(9) 0.5164(6)
H81 H 0.4191 1.0719 0.4679
C68 C 0.5849(8) 1.1954(7) 0.5784(6)
H82 H 0.6474 1.1873 0.5704
H83 H 0.5819 1.1702 0.6285
H84 H 0.5755 1.2523 0.5834
C69 C 0.4991(10) 1.1960(7) 0.4313(6)
H85 H 0.4452 1.1690 0.3898
H86 H 0.5574 1.1906 0.4151
H87 H 0.4863 1.2523 0.4359
O27 O 0.6443(4) 1.0618(4) 0.3988(4)
H88 H 0.6976 1.0693 0.4416
H89 H 0.6125 1.0185 0.4081
loop_
_geom_bond_atom_site_label_1
_geom_bond_atom_site_label_2
_geom_bond_site_symmetry_1
_geom_bond_site_symmetry_2
Zn1 O4 1_555 1_555
O1 C7 1_555 1_555
O2 C13 1_555 1_555
O3 C19 1_555 1_555
O4 N7 1_555 1_555
O5 N7 1_555 1_555
O6 N7 1_555 1_555
O7 Zn1 1_555 1_555
O8 N8 1_555 1_555
O9 N8 1_555 1_555
N1 Zn1 1_555 1_555
N2 H1 1_555 1_555
N3 C14 1_555 1_555
N4 H2 1_555 1_555
N5 C20 1_555 1_555
N6 H3 1_555 1_555
N8 O7 1_555 1_555
C1 C2 1_555 1_555
C2 H4 1_555 1_555
C3 C2 1_555 1_555
C4 C3 1_555 1_555
H5 C4 1_555 1_555
C5 C4 1_555 1_555
C6 C1 1_555 1_555
H6 C6 1_555 1_555
C7 N2 1_555 1_555
C8 N1 1_555 1_555
H7 C8 1_555 1_555
C9 C8 1_555 1_555
H8 C9 1_555 1_555
C10 N2 1_555 1_555
C11 C10 1_555 1_555
H9 C11 1_555 1_555
C12 N1 1_555 1_555
H10 C12 1_555 1_555
C13 N4 1_555 1_555
C14 H11 1_555 1_555
C15 C14 1_555 1_555
H12 C15 1_555 1_555
C16 N4 1_555 1_555
C17 C16 1_555 1_555
H13 C17 1_555 1_555
C18 N3 1_555 1_555
H14 C18 1_555 1_555
C19 N6 1_555 1_555
C20 H15 1_555 1_555
C21 C20 1_555 1_555
H16 C21 1_555 1_555
C22 N6 1_555 1_555
C23 C22 1_555 1_555
H17 C23 1_555 1_555
C24 N5 1_555 1_555
H18 C24 1_555 1_555
Zn2 O13 1_555 1_555
O10 C31 1_555 1_555
O11 C37 1_555 1_555
O12 C43 1_555 1_555
O13 N15 1_555 1_555
O14 N15 1_555 1_555
O15 N15 1_555 1_555
O16 Zn2 1_555 1_555
H19 O16 1_555 1_555
H20 O16 1_555 1_555
O17 N16 1_555 1_555
O18 N16 1_555 1_555
O19 N16 1_555 1_555
N9 Zn2 1_555 1_555
N10 H21 1_555 1_555
N11 C38 1_555 1_555
N12 H22 1_555 1_555
N13 C44 1_555 1_555
N14 H23 1_555 1_555
C25 C26 1_555 1_555
C26 H24 1_555 1_555
C27 C26 1_555 1_555
C28 C27 1_555 1_555
H25 C28 1_555 1_555
C29 C28 1_555 1_555
C30 C25 1_555 1_555
H26 C30 1_555 1_555
C31 N10 1_555 1_555
C32 N9 1_555 1_555
H27 C32 1_555 1_555
C33 C32 1_555 1_555
H28 C33 1_555 1_555
C34 N10 1_555 1_555
C35 C34 1_555 1_555
H29 C35 1_555 1_555
C36 N9 1_555 1_555
H30 C36 1_555 1_555
C37 N12 1_555 1_555
C38 H31 1_555 1_555
C39 C38 1_555 1_555
H32 C39 1_555 1_555
C40 N12 1_555 1_555
C41 C40 1_555 1_555
H33 C41 1_555 1_555
C42 N11 1_555 1_555
H34 C42 1_555 1_555
C43 N14 1_555 1_555
C44 H35 1_555 1_555
C45 C44 1_555 1_555
H36 C45 1_555 1_555
C46 N14 1_555 1_555
C47 C46 1_555 1_555
H37 C47 1_555 1_555
C48 N13 1_555 1_555
H38 C48 1_555 1_555
O20 C49 1_555 1_555
N17 C49 1_555 1_555
C49 H39 1_555 1_555
C50 N17 1_555 1_555
H40 C50 1_555 1_555
H41 C50 1_555 1_555
H42 C50 1_555 1_555
C51 N17 1_555 1_555
H43 C51 1_555 1_555
H44 C51 1_555 1_555
H45 C51 1_555 1_555
O21 C52 1_555 1_555
N18 C52 1_555 1_555
C52 H46 1_555 1_555
C53 N18 1_555 1_555
H47 C53 1_555 1_555
H48 C53 1_555 1_555
H49 C53 1_555 1_555
C54 N18 1_555 1_555
H50 C54 1_555 1_555
H51 C54 1_555 1_555
H52 C54 1_555 1_555
O22 C55 1_555 1_555
N19 C55 1_555 1_555
C55 H53 1_555 1_555
C56 N19 1_555 1_555
H54 C56 1_555 1_555
H55 C56 1_555 1_555
H56 C56 1_555 1_555
C57 N19 1_555 1_555
H57 C57 1_555 1_555
H58 C57 1_555 1_555
H59 C57 1_555 1_555
O23 C58 1_555 1_555
N20 C58 1_555 1_555
C58 H60 1_555 1_555
C59 N20 1_555 1_555
H61 C59 1_555 1_555
H62 C59 1_555 1_555
H63 C59 1_555 1_555
C60 N20 1_555 1_555
H64 C60 1_555 1_555
H65 C60 1_555 1_555
H66 C60 1_555 1_555
O24 C61 1_555 1_555
N21 C61 1_555 1_555
C61 H67 1_555 1_555
C62 N21 1_555 1_555
H68 C62 1_555 1_555
H69 C62 1_555 1_555
H70 C62 1_555 1_555
C63 N21 1_555 1_555
H71 C63 1_555 1_555
H72 C63 1_555 1_555
H73 C63 1_555 1_555
O25 C64 1_555 1_555
N22 C64 1_555 1_555
C64 H74 1_555 1_555
C65 N22 1_555 1_555
H75 C65 1_555 1_555
H76 C65 1_555 1_555
H77 C65 1_555 1_555
C66 N22 1_555 1_555
H78 C66 1_555 1_555
H79 C66 1_555 1_555
H80 C66 1_555 1_555
N23 C67 1_555 1_555
O26 C67 1_555 1_555
C67 H81 1_555 1_555
C68 N23 1_555 1_555
H82 C68 1_555 1_555
H83 C68 1_555 1_555
H84 C68 1_555 1_555
C69 N23 1_555 1_555
H85 C69 1_555 1_555
H86 C69 1_555 1_555
H87 C69 1_555 1_555
O27 H88 1_555 1_555
H89 O27 1_555 1_555
Zn1_2 N3 1_555 1_555
Zn1_3 N5 1_555 1_555
N3_2 Zn1 1_555 1_555
N5_2 Zn1 1_555 1_555
Zn2_2 N11 1_555 1_555
Zn2_3 N13 1_555 1_555
N11_2 Zn2 1_555 1_555
N13_2 Zn2 1_555 1_555
C1 C7 1_555 1_555
C3 C13 1_555 1_555
C5 C6 1_555 1_555
C5 C19 1_555 1_555
C9 C10 1_555 1_555
C11 C12 1_555 1_555
C15 C16 1_555 1_555
C17 C18 1_555 1_555
C21 C22 1_555 1_555
C23 C24 1_555 1_555
C25 C31 1_555 1_555
C27 C37 1_555 1_555
C29 C30 1_555 1_555
C29 C43 1_555 1_555
C33 C34 1_555 1_555
C35 C36 1_555 1_555
C39 C40 1_555 1_555
C41 C42 1_555 1_555
C45 C46 1_555 1_555
C47 C48 1_555 1_555

#END
