
#######################################################################
#
#                 Cambridge Crystallographic Data Centre
#                                CCDC 
#
#######################################################################
#
# If this CIF has been generated from an entry in the Cambridge 
# Structural Database, then it will include bibliographic, chemical, 
# crystal, experimental, refinement or atomic coordinate data resulting 
# from the CCDC's data processing and validation procedures.
#
#######################################################################

data_SOCPOQ
_symmetry_cell_setting           cubic
_symmetry_space_group_name_H-M   'I a -3'
_symmetry_Int_Tables_number      206
_space_group_name_Hall           '-I 2b 2c 3'
loop_
_symmetry_equiv_pos_site_id
_symmetry_equiv_pos_as_xyz
1 x,y,z
2 z,x,y
3 y,z,x
4 1/2+x,1/2+y,1/2+z
5 1/2+z,1/2+x,1/2+y
6 1/2+y,1/2+z,1/2+x
7 1/2-x,-y,1/2+z
8 -x,1/2+y,1/2-z
9 1/2+x,1/2-y,-z
10 1/2+z,1/2-x,-y
11 1/2-z,-x,1/2+y
12 -z,1/2+x,1/2-y
13 -y,1/2+z,1/2-x
14 1/2+y,1/2-z,-x
15 1/2-y,-z,1/2+x
16 -x,1/2-y,z
17 1/2-x,y,-z
18 x,-y,1/2-z
19 z,-x,1/2-y
20 -z,1/2-x,y
21 1/2-z,x,-y
22 1/2-y,z,-x
23 y,-z,1/2-x
24 -y,1/2-z,x
25 -x,-y,-z
26 -z,-x,-y
27 -y,-z,-x
28 1/2-x,1/2-y,1/2-z
29 1/2-z,1/2-x,1/2-y
30 1/2-y,1/2-z,1/2-x
31 1/2+x,y,1/2-z
32 x,1/2-y,1/2+z
33 1/2-x,1/2+y,z
34 1/2-z,1/2+x,y
35 1/2+z,x,1/2-y
36 z,1/2-x,1/2+y
37 y,1/2-z,1/2+x
38 1/2-y,1/2+z,x
39 1/2+y,z,1/2-x
40 x,1/2+y,-z
41 1/2+x,-y,z
42 -x,y,1/2+z
43 -z,x,1/2+y
44 z,1/2+x,-y
45 1/2+z,-x,y
46 1/2+y,-z,x
47 -y,z,1/2+x
48 y,1/2+z,-x
_cell_length_a                   24.7634(3)
_cell_length_b                   24.7634(3)
_cell_length_c                   24.7634(3)
_cell_angle_alpha                90
_cell_angle_beta                 90
_cell_angle_gamma                90
_cell_volume                     15185.6
loop_
_atom_site_label
_atom_site_type_symbol
_atom_site_fract_x
_atom_site_fract_y
_atom_site_fract_z
Cd1 Cd 0.5000 0.5000 0.0000
O1 O 0.4000(2) 0.21456(17) -0.01309(15)
N1 N 0.47601(14) 0.41135(14) -0.02837(14)
N2 N 0.41869(18) 0.26381(17) -0.08836(17)
H1 H 0.4170 0.2626 -0.1238
C1 C 0.4618(2) 0.37173(19) 0.00488(18)
H2 H 0.4644 0.3767 0.0432
C2 C 0.4427(2) 0.3219(2) -0.01092(19)
H3 H 0.4326 0.2954 0.0156
C3 C 0.43816(19) 0.31175(18) -0.06619(18)
C4 C 0.4529(2) 0.35260(19) -0.10159(18)
H4 H 0.4498 0.3469 -0.1398
C5 C 0.4718(2) 0.40069(19) -0.08139(19)
H5 H 0.4820 0.4278 -0.1072
C6 C 0.4021(2) 0.21897(19) -0.06219(19)
C7 C 0.38563(18) 0.17319(17) -0.09825(18)
C8 C 0.41605(18) 0.15902(19) -0.14281(18)
H6 H 0.4468 0.1804 -0.1529
Cd1B Cd 0.5000 0.0000 -0.5000
Cd1FA Cd 0.0000 0.0000 0.0000
Cd1A Cd 0.0000 0.5000 0.5000
Cd1B_2 Cd 0.5000 0.0000 0.5000
O1I O 0.48691(15) 0.1000(2) -0.21456(17)
O1N O 0.28544(17) 0.01309(15) -0.1000(2)
O1HA O 0.48691(15) 0.4000(2) 0.28544(17)
O1KA O 0.28544(17) 0.48691(15) 0.4000(2)
O1EA O 0.4000(2) 0.28544(17) 0.48691(15)
N1I N 0.47163(14) 0.02399(14) -0.41135(14)
N1N N 0.08865(14) 0.02837(14) -0.02399(14)
N1HA N 0.47163(14) 0.47601(14) 0.08865(14)
N1KA N 0.08865(14) 0.47163(14) 0.47601(14)
N1EA N 0.47601(14) 0.08865(14) 0.47163(14)
N1JA N 0.41135(14) 0.52837(14) -0.02399(14)
N1X N 0.52399(14) 0.58865(14) 0.02837(14)
N1J N 0.52837(14) 0.52399(14) -0.08865(14)
N1L N 0.58865(14) 0.47163(14) 0.02399(14)
N2I N 0.41164(17) 0.08131(18) -0.26381(17)
N2N N 0.23619(17) 0.08836(17) -0.08131(18)
N2HA N 0.41164(17) 0.41869(18) 0.23619(17)
N2KA N 0.23619(17) 0.41164(17) 0.41869(18)
N2EA N 0.41869(18) 0.23619(17) 0.41164(17)
H1I H 0.3762 0.0830 -0.2626
H1N H 0.2374 0.1238 -0.0830
H1HA H 0.3762 0.4170 0.2374
H1KA H 0.2374 0.3762 0.4170
H1EA H 0.4170 0.2374 0.3762
C1I C 0.50488(18) 0.0382(2) -0.37173(19)
C1N C 0.12827(19) -0.00488(18) -0.0382(2)
C1HA C 0.50488(18) 0.4618(2) 0.12827(19)
C1KA C 0.12827(19) 0.50488(18) 0.4618(2)
C1EA C 0.4618(2) 0.12827(19) 0.50488(18)
H2I H 0.5432 0.0356 -0.3767
H2N H 0.1233 -0.0432 -0.0356
H2HA H 0.5432 0.4644 0.1233
H2KA H 0.1233 0.5432 0.4644
H2EA H 0.4644 0.1233 0.5432
C2I C 0.48908(19) 0.0573(2) -0.3219(2)
C2N C 0.1781(2) 0.01092(19) -0.0573(2)
C2HA C 0.48908(19) 0.4427(2) 0.1781(2)
C2KA C 0.1781(2) 0.48908(19) 0.4427(2)
C2EA C 0.4427(2) 0.1781(2) 0.48908(19)
H3I H 0.5156 0.0674 -0.2954
H3N H 0.2046 -0.0156 -0.0674
H3HA H 0.5156 0.4326 0.2046
H3KA H 0.2046 0.5156 0.4326
H3EA H 0.4326 0.2046 0.5156
C3I C 0.43381(18) 0.06184(19) -0.31175(18)
C3N C 0.18825(18) 0.06619(18) -0.06184(19)
C3HA C 0.43381(18) 0.43816(19) 0.18825(18)
C3KA C 0.18825(18) 0.43381(18) 0.43816(19)
C3EA C 0.43816(19) 0.18825(18) 0.43381(18)
C4I C 0.39841(18) 0.0471(2) -0.35260(19)
C4N C 0.14740(19) 0.10159(18) -0.0471(2)
C4HA C 0.39841(18) 0.4529(2) 0.14740(19)
C4KA C 0.14740(19) 0.39841(18) 0.4529(2)
C4EA C 0.4529(2) 0.14740(19) 0.39841(18)
H4I H 0.3602 0.0502 -0.3469
H4N H 0.1531 0.1398 -0.0502
H4HA H 0.3602 0.4498 0.1531
H4KA H 0.1531 0.3602 0.4498
H4EA H 0.4498 0.1531 0.3602
C5I C 0.41861(19) 0.0282(2) -0.40069(19)
C5N C 0.09931(19) 0.08139(19) -0.0282(2)
C5HA C 0.41861(19) 0.4718(2) 0.09931(19)
C5KA C 0.09931(19) 0.41861(19) 0.4718(2)
C5EA C 0.4718(2) 0.09931(19) 0.41861(19)
H5I H 0.3928 0.0180 -0.4278
H5N H 0.0722 0.1072 -0.0180
H5HA H 0.3928 0.4820 0.0722
H5KA H 0.0722 0.3928 0.4820
H5EA H 0.4820 0.0722 0.3928
C6I C 0.43781(19) 0.0979(2) -0.21897(19)
C6N C 0.28103(19) 0.06219(19) -0.0979(2)
C6HA C 0.43781(19) 0.4021(2) 0.28103(19)
C6KA C 0.28103(19) 0.43781(19) 0.4021(2)
C6EA C 0.4021(2) 0.28103(19) 0.43781(19)
C7I C 0.40175(18) 0.11437(18) -0.17319(17)
C7N C 0.32681(17) 0.09825(18) -0.11437(18)
C7HA C 0.40175(18) 0.38563(18) 0.32681(17)
C7KA C 0.32681(17) 0.40175(18) 0.38563(18)
C7EA C 0.38563(18) 0.32681(17) 0.40175(18)
C8I C 0.35719(18) 0.08395(18) -0.15902(19)
C8N C 0.34098(19) 0.14281(18) -0.08395(18)
C8HA C 0.35719(18) 0.41605(18) 0.34098(19)
C8KA C 0.34098(19) 0.35719(18) 0.41605(18)
C8EA C 0.41605(18) 0.34098(19) 0.35719(18)
H6N H 0.3196 0.1529 -0.0532
H6I H 0.3471 0.0532 -0.1804
H6HA H 0.3471 0.4468 0.3196
H6EA H 0.4468 0.3196 0.3471
H6KA H 0.3196 0.3471 0.4468
Cl1 Cl 0.5000 0.2500 0.25096(16)
O3 O 0.5426(6) 0.2152(6) 0.2353(7)
O4 O 0.4528(7) 0.2200(10) 0.2370(10)
O3O O 0.4574(6) 0.2848(6) 0.2353(7)
O4O O 0.5472(7) 0.2800(10) 0.2370(10)
O6 O 0.28255(18) 0.28255(18) 0.28255(18)
O7 O 0.3705(3) 0.2181(3) 0.3048(2)
H8 H 0.4046 0.2121 0.2968
H9 H 0.3518 0.2123 0.2748
O8 O 0.4422(4) 0.3070(4) 0.1272(4)
H10 H 0.4558 0.2732 0.1254
H11 H 0.4172 0.3100 0.1553
O9 O 0.4515(5) 0.2045(6) 0.0937(6)
H12 H 0.4558 0.1954 0.1300
H13 H 0.4433 0.1735 0.0751
O10 O 0.3401(6) 0.3293(7) 0.1149(6)
H14 H 0.3339 0.2921 0.1093
H15 H 0.3068 0.3322 0.1350
O2? O 0.5000 0.2500 0.3071(4)
O5? O 0.5060(17) 0.2968(10) 0.2203(14)
H7? H 0.3060 0.2562 0.2896
loop_
_geom_bond_atom_site_label_1
_geom_bond_atom_site_label_2
_geom_bond_site_symmetry_1
_geom_bond_site_symmetry_2
Cd1 N1 1_555 1_555
O1 C6 1_555 1_555
N1 C1 1_555 1_555
N2 H1 1_555 1_555
C1 H2 1_555 1_555
C2 C1 1_555 1_555
H3 C2 1_555 1_555
C3 N2 1_555 1_555
C4 C3 1_555 1_555
H4 C4 1_555 1_555
C5 N1 1_555 1_555
H5 C5 1_555 1_555
C6 N2 1_555 1_555
C7 C6 1_555 1_555
C8 C7 1_555 1_555
H6 C8 1_555 1_555
Cl1 O3 1_555 1_555
O4 Cl1 1_555 1_555
O7 H8 1_555 1_555
H9 O7 1_555 1_555
O8 H10 1_555 1_555
H11 O8 1_555 1_555
O9 H12 1_555 1_555
H13 O9 1_555 1_555
O10 H14 1_555 1_555
H15 O10 1_555 1_555
Cd1B N1I 1_555 1_555
Cd1FA N1N 1_555 1_555
Cd1A N1KA 1_555 1_555
Cd1B_2 N1EA 1_555 1_555
O1I C6I 1_555 1_555
O1N C6N 1_555 1_555
O1HA C6HA 1_555 1_555
O1KA C6KA 1_555 1_555
O1EA C6EA 1_555 1_555
N1I C1I 1_555 1_555
N1N C1N 1_555 1_555
N1HA Cd1 1_555 1_555
N1KA C1KA 1_555 1_555
N1EA C1EA 1_555 1_555
N1JA Cd1 1_555 1_555
N1X Cd1 1_555 1_555
N1J Cd1 1_555 1_555
N1L Cd1 1_555 1_555
N2I H1I 1_555 1_555
N2N H1N 1_555 1_555
N2HA H1HA 1_555 1_555
N2KA H1KA 1_555 1_555
N2EA H1EA 1_555 1_555
C1I H2I 1_555 1_555
C1N H2N 1_555 1_555
C1HA N1HA 1_555 1_555
C1KA H2KA 1_555 1_555
C1EA H2EA 1_555 1_555
H2HA C1HA 1_555 1_555
C2I C1I 1_555 1_555
C2N C1N 1_555 1_555
C2HA C1HA 1_555 1_555
C2KA C1KA 1_555 1_555
C2EA C1EA 1_555 1_555
H3I C2I 1_555 1_555
H3N C2N 1_555 1_555
H3HA C2HA 1_555 1_555
H3KA C2KA 1_555 1_555
H3EA C2EA 1_555 1_555
C3I N2I 1_555 1_555
C3N N2N 1_555 1_555
C3HA N2HA 1_555 1_555
C3KA N2KA 1_555 1_555
C3EA N2EA 1_555 1_555
C4I C3I 1_555 1_555
C4N C3N 1_555 1_555
C4HA C3HA 1_555 1_555
C4KA C3KA 1_555 1_555
C4EA C3EA 1_555 1_555
H4I C4I 1_555 1_555
H4N C4N 1_555 1_555
H4HA C4HA 1_555 1_555
H4KA C4KA 1_555 1_555
H4EA C4EA 1_555 1_555
C5I N1I 1_555 1_555
C5N N1N 1_555 1_555
C5HA N1HA 1_555 1_555
C5KA N1KA 1_555 1_555
C5EA N1EA 1_555 1_555
H5I C5I 1_555 1_555
H5N C5N 1_555 1_555
H5HA C5HA 1_555 1_555
H5KA C5KA 1_555 1_555
H5EA C5EA 1_555 1_555
C6I N2I 1_555 1_555
C6N N2N 1_555 1_555
C6HA N2HA 1_555 1_555
C6KA N2KA 1_555 1_555
C6EA N2EA 1_555 1_555
C7I C8 1_555 1_555
C7N C6N 1_555 1_555
C7HA C6HA 1_555 1_555
C7KA C6KA 1_555 1_555
C7EA C6EA 1_555 1_555
C8I C7I 1_555 1_555
C8N C7 1_555 1_555
C8HA C7HA 1_555 1_555
C8KA C7KA 1_555 1_555
C8EA C7HA 1_555 1_555
H6N C8N 1_555 1_555
H6I C8I 1_555 1_555
H6HA C8HA 1_555 1_555
H6EA C8EA 1_555 1_555
H6KA C8KA 1_555 1_555
O3O Cl1 1_555 1_555
O4O Cl1 1_555 1_555
C2 C3 1_555 1_555
C4 C5 1_555 1_555
C2I C3I 1_555 1_555
C2N C3N 1_555 1_555
C2HA C3HA 1_555 1_555
C2KA C3KA 1_555 1_555
C2EA C3EA 1_555 1_555
C4I C5I 1_555 1_555
C4N C5N 1_555 1_555
C4HA C5HA 1_555 1_555
C4KA C5KA 1_555 1_555
C4EA C5EA 1_555 1_555
C6I C7I 1_555 1_555
C7N C8I 1_555 1_555
C7N C8N 1_555 1_555
C7KA C8HA 1_555 1_555
C7EA C8KA 1_555 1_555
C7EA C8EA 1_555 1_555

#END
