
#######################################################################
#
#                 Cambridge Crystallographic Data Centre
#                                CCDC 
#
#######################################################################
#
# If this CIF has been generated from an entry in the Cambridge 
# Structural Database, then it will include bibliographic, chemical, 
# crystal, experimental, refinement or atomic coordinate data resulting 
# from the CCDC's data processing and validation procedures.
#
#######################################################################

data_SOCVIQ
_symmetry_cell_setting           monoclinic
_symmetry_space_group_name_H-M   'C 2/c'
_symmetry_Int_Tables_number      15
_space_group_name_Hall           '-C 2yn'
loop_
_symmetry_equiv_pos_site_id
_symmetry_equiv_pos_as_xyz
1 x,y,z
2 1/2+x,1/2+y,z
3 -x,y,1/2-z
4 1/2-x,1/2+y,1/2-z
5 -x,-y,-z
6 1/2-x,1/2-y,-z
7 x,-y,1/2+z
8 1/2+x,1/2-y,1/2+z
_cell_length_a                   23.348(2)
_cell_length_b                   7.2939(7)
_cell_length_c                   22.706(2)
_cell_angle_alpha                90
_cell_angle_beta                 98.5430(10)
_cell_angle_gamma                90
_cell_volume                     3823.88
loop_
_atom_site_label
_atom_site_type_symbol
_atom_site_fract_x
_atom_site_fract_y
_atom_site_fract_z
Cu1 Cu 0.5000 0.5000 0.5000
Cu2 Cu 0.0000 0.45627(5) 0.2500
C1 C 0.37326(10) 0.4937(3) 0.48528(11)
H1 H 0.3780 0.4842 0.4455
C2 C 0.41354(11) 0.5158(4) 0.58336(11)
H2 H 0.4462 0.5218 0.6122
C3 C 0.35981(11) 0.5204(4) 0.60102(12)
H3 H 0.3563 0.5297 0.6412
C4 C 0.31109(11) 0.5111(4) 0.55856(12)
H4 H 0.2744 0.5140 0.5699
C5 C 0.31709(10) 0.4973(3) 0.49876(11)
C6 C 0.26935(11) 0.4858(4) 0.44975(12)
H5 H 0.2792 0.4787 0.4116
C7 C 0.21367(11) 0.4842(4) 0.45391(12)
H6 H 0.2032 0.4914 0.4918
C8 C 0.16719(10) 0.4721(4) 0.40334(11)
C9 C 0.17552(12) 0.4385(5) 0.34539(13)
H7 H 0.2126 0.4215 0.3359
C10 C 0.12821(12) 0.4307(5) 0.30229(13)
H8 H 0.1336 0.4062 0.2633
C11 C 0.07002(11) 0.4842(4) 0.37062(12)
H9 H 0.0328 0.4990 0.3800
N1 N 0.42059(8) 0.5029(3) 0.52580(9)
N2 N 0.07412(8) 0.4572(3) 0.31396(9)
N3 N 0.11318(9) 0.4925(3) 0.41571(10)
O1 O 0.52412(7) 0.3114(3) 0.56336(8)
H10 H 0.5412(11) 0.227(3) 0.5514(12)
H11 H 0.5418(12) 0.344(4) 0.5968(10)
O2 O 0.52473(8) 0.7344(3) 0.56637(9)
H12 H 0.5366(11) 0.825(3) 0.5527(11)
H13 H 0.5440(13) 0.714(5) 0.5995(11)
O3 O -0.05901(8) 0.4625(3) 0.32228(8)
H14 H -0.0771(10) 0.373(3) 0.3266(11)
H15 H -0.0789(12) 0.555(3) 0.3271(14)
O4 O 0.0000 0.1898(4) 0.2500
H16 H 0.0290(8) 0.129(4) 0.2507(15)
O5 O 0.0000 0.7235(4) 0.2500
H17 H 0.0287(8) 0.786(4) 0.2501(15)
Cu2F Cu 1.0000 0.54373(5) 0.7500
C1D C 0.62674(10) 0.5063(3) 0.51472(11)
H1D H 0.6220 0.5158 0.5545
C2D C 0.58646(11) 0.4842(4) 0.41664(11)
H2D H 0.5538 0.4782 0.3878
C3D C 0.64019(11) 0.4796(4) 0.39898(12)
H3D H 0.6437 0.4703 0.3588
C4D C 0.68891(11) 0.4889(4) 0.44144(12)
H4D H 0.7256 0.4860 0.4301
C5D C 0.68291(10) 0.5027(3) 0.50124(11)
C6D C 0.73065(11) 0.5142(4) 0.55025(12)
H5D H 0.7208 0.5213 0.5884
C7D C 0.78633(11) 0.5158(4) 0.54609(12)
H6D H 0.7968 0.5086 0.5082
C8D C 0.83281(10) 0.5279(4) 0.59666(11)
C9D C 0.82448(12) 0.5615(5) 0.65461(13)
H7D H 0.7874 0.5785 0.6641
C10D C 0.87179(12) 0.5693(5) 0.69771(13)
H8D H 0.8664 0.5938 0.7367
C11D C 0.92998(11) 0.5158(4) 0.62938(12)
H9D H 0.9672 0.5010 0.6200
N1D N 0.57941(8) 0.4971(3) 0.47420(9)
N2D N 0.92588(8) 0.5428(3) 0.68604(9)
N2B N -0.07412(8) 0.4572(3) 0.18604(9)
N3D N 0.88682(9) 0.5075(3) 0.58429(10)
O1D O 0.47588(7) 0.6886(3) 0.43664(8)
H10D H 0.4588(11) 0.773(3) 0.4486(12)
H11D H 0.4582(12) 0.656(4) 0.4032(10)
O2D O 0.47527(8) 0.2656(3) 0.43363(9)
H12D H 0.4634(11) 0.175(3) 0.4473(11)
H13D H 0.4560(13) 0.286(5) 0.4005(11)
O3B O 0.05901(8) 0.4625(3) 0.17772(8)
H14B H 0.0771(10) 0.373(3) 0.1734(11)
H15B H 0.0789(12) 0.555(3) 0.1729(14)
H16B H -0.0290(8) 0.129(4) 0.2493(15)
H17B H -0.0287(8) 0.786(4) 0.2499(15)
O6 O 0.73497(14) 0.8226(4) 0.19283(15)
H18 H 0.7593(17) 0.871(6) 0.2184(17)
H19 H 0.7230(16) 0.723(4) 0.2059(16)
O7 O 0.08531(9) 0.5315(3) 0.53070(10)
H20 H 0.0905(14) 0.527(4) 0.4963(11)
H21 H 0.1157(12) 0.521(4) 0.5535(13)
O8 O 0.18176(10) 0.5518(4) 0.10980(11)
H22 H 0.1696(14) 0.635(4) 0.1314(14)
H23 H 0.1917(18) 0.464(4) 0.1342(16)
O9 O 0.08987(9) 0.9551(3) 0.24974(9)
O10 O 0.11361(9) 0.7953(3) 0.16400(9)
O11 O 0.10267(9) 1.1204(3) 0.16067(8)
O12 O 0.18416(9) 0.9861(3) 0.22063(11)
S1 S 0.12267(3) 0.96380(8) 0.19953(3)
loop_
_geom_bond_atom_site_label_1
_geom_bond_atom_site_label_2
_geom_bond_site_symmetry_1
_geom_bond_site_symmetry_2
Cu1 N1 1_555 1_555
Cu2 N2 1_555 1_555
C1 H1 1_555 1_555
C2 H2 1_555 1_555
C3 C2 1_555 1_555
H3 C3 1_555 1_555
C4 C3 1_555 1_555
H4 C4 1_555 1_555
C5 C1 1_555 1_555
C6 C5 1_555 1_555
H5 C6 1_555 1_555
C7 C6 1_555 1_555
H6 C7 1_555 1_555
C8 C7 1_555 1_555
C9 C8 1_555 1_555
H7 C9 1_555 1_555
C10 C9 1_555 1_555
H8 C10 1_555 1_555
C11 H9 1_555 1_555
N1 C1 1_555 1_555
N2 C10 1_555 1_555
N3 C8 1_555 1_555
O1 Cu1 1_555 1_555
H10 O1 1_555 1_555
H11 O1 1_555 1_555
O2 Cu1 1_555 1_555
H12 O2 1_555 1_555
H13 O2 1_555 1_555
O3 Cu2 1_555 1_555
H14 O3 1_555 1_555
H15 O3 1_555 1_555
O4 Cu2 1_555 1_555
H16 O4 1_555 1_555
O5 Cu2 1_555 1_555
H17 O5 1_555 1_555
O6 H18 1_555 1_555
H19 O6 1_555 1_555
O7 H20 1_555 1_555
H21 O7 1_555 1_555
O8 H22 1_555 1_555
H23 O8 1_555 1_555
O9 S1 1_555 1_555
O10 S1 1_555 1_555
O11 S1 1_555 1_555
O12 S1 1_555 1_555
Cu2F N2D 1_555 1_555
C1D H1D 1_555 1_555
C2D H2D 1_555 1_555
C3D C2D 1_555 1_555
H3D C3D 1_555 1_555
C4D C3D 1_555 1_555
H4D C4D 1_555 1_555
C5D C1D 1_555 1_555
C6D C5D 1_555 1_555
H5D C6D 1_555 1_555
C7D C6D 1_555 1_555
H6D C7D 1_555 1_555
C8D C7D 1_555 1_555
C9D C8D 1_555 1_555
H7D C9D 1_555 1_555
C10D C9D 1_555 1_555
H8D C10D 1_555 1_555
C11D H9D 1_555 1_555
N1D Cu1 1_555 1_555
N2D C10D 1_555 1_555
N2B Cu2 1_555 1_555
N3D C8D 1_555 1_555
O1D Cu1 1_555 1_555
H10D O1D 1_555 1_555
H11D O1D 1_555 1_555
O2D Cu1 1_555 1_555
H12D O2D 1_555 1_555
H13D O2D 1_555 1_555
O3B Cu2 1_555 1_555
H14B O3B 1_555 1_555
H15B O3B 1_555 1_555
H16B O4 1_555 1_555
H17B O5 1_555 1_555
C2 N1 1_555 1_555
C4 C5 1_555 1_555
C11 N2 1_555 1_555
C11 N3 1_555 1_555
C1D N1D 1_555 1_555
C2D N1D 1_555 1_555
C4D C5D 1_555 1_555
C11D N2D 1_555 1_555
C11D N3D 1_555 1_555

#END
