
#######################################################################
#
#                 Cambridge Crystallographic Data Centre
#                                CCDC 
#
#######################################################################
#
# If this CIF has been generated from an entry in the Cambridge 
# Structural Database, then it will include bibliographic, chemical, 
# crystal, experimental, refinement or atomic coordinate data resulting 
# from the CCDC's data processing and validation procedures.
#
#######################################################################

data_SOCVUC
_symmetry_cell_setting           monoclinic
_symmetry_space_group_name_H-M   'P 21/n'
_symmetry_Int_Tables_number      14
_space_group_name_Hall           '-P 2yn'
loop_
_symmetry_equiv_pos_site_id
_symmetry_equiv_pos_as_xyz
1 x,y,z
2 1/2-x,1/2+y,1/2-z
3 -x,-y,-z
4 1/2+x,1/2-y,1/2+z
_cell_length_a                   16.478(5)
_cell_length_b                   22.004(7)
_cell_length_c                   16.494(6)
_cell_angle_alpha                90
_cell_angle_beta                 114.412(3)
_cell_angle_gamma                90
_cell_volume                     5445.76
loop_
_atom_site_label
_atom_site_type_symbol
_atom_site_fract_x
_atom_site_fract_y
_atom_site_fract_z
Cd1 Cd 0.23681(3) 0.74042(2) 0.94229(3)
S1 S -0.1981(2) 0.94120(14) 1.0016(2)
O1 O 0.1179(3) 0.7983(2) 0.9220(4)
N1 N 0.1470(4) 0.6569(2) 0.9366(4)
C1 C 0.1272(4) 0.8203(3) 0.9941(5)
Cd2 Cd 0.29419(3) 0.77668(2) 1.19867(3)
S2 S 0.68828(13) 0.54386(9) 1.11837(13)
O2 O 0.1963(3) 0.8161(3) 1.0628(4)
N2 N -0.1941(4) 0.3009(3) 0.8165(4)
C2 C 0.0470(4) 0.8525(3) 0.9965(5)
O3 O -0.1927(3) 0.8199(2) 1.3758(4)
N3 N 0.6102(3) 1.1496(2) 0.8096(4)
C3 C 0.0554(6) 0.8926(4) 1.0606(7)
H1 H 0.1116 0.9010 1.1047
O4 O -0.3073(4) 0.7707(3) 1.2794(4)
N4 N 0.3299(4) 0.8202(2) 0.9467(4)
C4 C -0.0200(8) 0.9223(4) 1.0622(8)
H2 H -0.0137 0.9512 1.1055
O5 O -0.2736(5) 0.9277(4) 0.9174(5)
C5 C -0.1017(6) 0.9078(4) 0.9991(6)
O6 O -0.1769(6) 1.0022(3) 1.0288(7)
C6 C -0.1112(6) 0.8661(5) 0.9354(6)
H3 H -0.1677 0.8553 0.8940
O7 O 0.4086(3) 0.7093(2) 1.2269(3)
C7 C -0.0360(5) 0.8395(4) 0.9322(6)
H4 H -0.0420 0.8128 0.8863
O8 O 0.3325(3) 0.7097(2) 1.0827(3)
C8 C -0.2129(7) 0.9027(5) 1.0884(7)
O9 O 0.8245(4) 0.7134(3) 0.8585(4)
C9 C -0.1750(7) 0.9247(4) 1.1728(8)
H5 H -0.1427 0.9608 1.1847
O10 O 0.7274(4) 0.6546(3) 0.7579(5)
C10 C -0.1849(7) 0.8926(4) 1.2424(6)
H6 H -0.1583 0.9072 1.3005
O11 O 0.6515(4) 0.4856(2) 1.0823(4)
C11 C -0.2340(5) 0.8399(4) 1.2240(5)
O12 O 0.7660(3) 0.5471(3) 1.2007(4)
C12 C -0.2730(6) 0.8192(5) 1.1375(6)
H7 H -0.3076 0.7841 1.1251
C13 C -0.2624(7) 0.8491(6) 1.0680(7)
H8 H -0.2874 0.8339 1.0102
C14 C -0.2457(5) 0.8075(3) 1.2978(5)
C15 C 0.3993(4) 0.6946(3) 1.1513(5)
C16 C 0.4706(4) 0.6567(3) 1.1418(5)
C17 C 0.5533(4) 0.6543(4) 1.2118(5)
H9 H 0.5641 0.6756 1.2640
C18 C 0.6205(5) 0.6199(4) 1.2044(5)
H10 H 0.6769 0.6187 1.2510
C19 C 0.6031(4) 0.5878(3) 1.1276(5)
C20 C 0.5208(5) 0.5902(3) 1.0568(5)
H11 H 0.5100 0.5684 1.0051
C21 C 0.4555(5) 0.6247(3) 1.0637(5)
H12 H 0.4001 0.6271 1.0158
C22 C 0.7119(5) 0.5817(3) 1.0367(5)
C23 C 0.6792(6) 0.5591(4) 0.9512(6)
H13 H 0.6451 0.5239 0.9368
C24 C 0.6970(6) 0.5888(4) 0.8870(6)
H14 H 0.6734 0.5738 0.8291
C25 C 0.7491(5) 0.6402(4) 0.9069(5)
C26 C 0.7824(5) 0.6619(4) 0.9921(6)
H15 H 0.8180 0.6964 1.0062
C27 C 0.7642(5) 0.6332(4) 1.0587(6)
H16 H 0.7868 0.6486 1.1164
C28 C 0.7692(5) 0.6724(4) 0.8358(6)
C29 C 0.0644(5) 0.6612(3) 0.9284(6)
H17 H 0.0428 0.6996 0.9321
C30 C 0.0072(5) 0.6121(3) 0.9147(6)
H18 H -0.0498 0.6177 0.9120
C31 C 0.0367(5) 0.5543(3) 0.9051(6)
C32 C 0.1229(5) 0.5499(3) 0.9134(7)
H19 H 0.1459 0.5122 0.9080
C33 C 0.1754(5) 0.6008(3) 0.9294(6)
H20 H 0.2338 0.5962 0.9358
C34 C -0.0257(5) 0.5037(3) 0.8851(6)
H21 H -0.0814 0.5123 0.8839
C35 C -0.0114(5) 0.4470(4) 0.8685(7)
H22 H 0.0441 0.4382 0.8691
C36 C -0.0747(5) 0.3968(3) 0.8491(6)
C37 C -0.1632(5) 0.4072(4) 0.8284(6)
H23 H -0.1845 0.4467 0.8250
C38 C -0.2208(5) 0.3582(4) 0.8127(7)
H24 H -0.2806 0.3657 0.7988
C39 C -0.0490(6) 0.3378(4) 0.8506(8)
H25 H 0.0100 0.3287 0.8625
C40 C -0.1105(6) 0.2911(4) 0.8343(8)
H26 H -0.0912 0.2512 0.8362
C41 C 0.5276(4) 1.1593(3) 0.8005(5)
H27 H 0.5033 1.1979 0.7835
C42 C 0.4760(5) 1.1153(3) 0.8147(6)
H28 H 0.4184 1.1246 0.8078
C43 C 0.5094(4) 1.0568(3) 0.8396(5)
C44 C 0.5952(4) 1.0470(3) 0.8471(5)
H29 H 0.6208 1.0086 0.8620
C45 C 0.6421(4) 1.0936(3) 0.8326(6)
H30 H 0.7000 1.0858 0.8392
C46 C 0.4560(5) 1.0108(3) 0.8594(6)
H31 H 0.3976 1.0211 0.8484
C47 C 0.4827(5) 0.9571(4) 0.8908(6)
H32 H 0.5408 0.9468 0.9008
C48 C 0.4306(5) 0.9104(3) 0.9126(6)
C49 C 0.4605(6) 0.8517(4) 0.9287(8)
H33 H 0.5154 0.8414 0.9291
C50 C 0.4089(5) 0.8080(4) 0.9445(8)
H34 H 0.4296 0.7682 0.9541
C51 C 0.3514(5) 0.9233(3) 0.9185(6)
H35 H 0.3303 0.9630 0.9110
C52 C 0.3036(5) 0.8776(3) 0.9354(5)
H36 H 0.2503 0.8875 0.9391
Cd1C Cd -0.26319(3) 0.75958(2) 1.44229(3)
Cd2B Cd -0.29419(3) 0.22332(2) 0.80133(3)
Cd2B_2 Cd 0.70581(3) 1.22332(2) 0.80133(3)
Cd2C Cd 0.79419(3) 0.72332(2) 0.69867(3)
N2B N 0.1941(4) 0.6991(3) 1.1835(4)
O3C O 0.3073(3) 0.6801(2) 0.8758(4)
N3B N 0.3898(3) 0.8504(2) 1.1904(4)
O4C O 0.1927(4) 0.7293(3) 0.7794(4)
O9C O 0.3245(4) 0.7866(3) 1.3585(4)
O10C O 0.2274(4) 0.8454(3) 1.2579(5)
loop_
_geom_bond_atom_site_label_1
_geom_bond_atom_site_label_2
_geom_bond_site_symmetry_1
_geom_bond_site_symmetry_2
Cd1 O1 1_555 1_555
S1 O5 1_555 1_555
O1 C1 1_555 1_555
N1 Cd1 1_555 1_555
C1 O2 1_555 1_555
Cd2 O2 1_555 1_555
S2 O11 1_555 1_555
N2 C38 1_555 1_555
C2 C1 1_555 1_555
O3 C14 1_555 1_555
N3 C41 1_555 1_555
C3 C2 1_555 1_555
H1 C3 1_555 1_555
O4 C14 1_555 1_555
N4 Cd1 1_555 1_555
C4 C3 1_555 1_555
H2 C4 1_555 1_555
C5 S1 1_555 1_555
O6 S1 1_555 1_555
C6 C5 1_555 1_555
H3 C6 1_555 1_555
O7 Cd2 1_555 1_555
C7 C2 1_555 1_555
H4 C7 1_555 1_555
O8 Cd1 1_555 1_555
C8 S1 1_555 1_555
O9 C28 1_555 1_555
C9 C8 1_555 1_555
H5 C9 1_555 1_555
O10 C28 1_555 1_555
C10 C9 1_555 1_555
H6 C10 1_555 1_555
C11 C10 1_555 1_555
O12 S2 1_555 1_555
C12 C11 1_555 1_555
H7 C12 1_555 1_555
C13 C8 1_555 1_555
H8 C13 1_555 1_555
C14 C11 1_555 1_555
C15 O7 1_555 1_555
C16 C15 1_555 1_555
C17 C16 1_555 1_555
H9 C17 1_555 1_555
C18 C17 1_555 1_555
H10 C18 1_555 1_555
C19 S2 1_555 1_555
C20 C19 1_555 1_555
H11 C20 1_555 1_555
C21 C16 1_555 1_555
H12 C21 1_555 1_555
C22 S2 1_555 1_555
C23 C22 1_555 1_555
H13 C23 1_555 1_555
C24 C23 1_555 1_555
H14 C24 1_555 1_555
C25 C24 1_555 1_555
C26 C25 1_555 1_555
H15 C26 1_555 1_555
C27 C22 1_555 1_555
H16 C27 1_555 1_555
C28 C25 1_555 1_555
C29 N1 1_555 1_555
H17 C29 1_555 1_555
C30 C29 1_555 1_555
H18 C30 1_555 1_555
C31 C30 1_555 1_555
C32 C31 1_555 1_555
H19 C32 1_555 1_555
C33 N1 1_555 1_555
H20 C33 1_555 1_555
C34 C31 1_555 1_555
H21 C34 1_555 1_555
C35 C34 1_555 1_555
H22 C35 1_555 1_555
C36 C35 1_555 1_555
C37 C36 1_555 1_555
H23 C37 1_555 1_555
C38 C37 1_555 1_555
H24 C38 1_555 1_555
C39 C36 1_555 1_555
H25 C39 1_555 1_555
C40 N2 1_555 1_555
H26 C40 1_555 1_555
C41 H27 1_555 1_555
C42 C41 1_555 1_555
H28 C42 1_555 1_555
C43 C42 1_555 1_555
C44 C43 1_555 1_555
H29 C44 1_555 1_555
C45 N3 1_555 1_555
H30 C45 1_555 1_555
C46 C43 1_555 1_555
H31 C46 1_555 1_555
C47 C46 1_555 1_555
H32 C47 1_555 1_555
C48 C47 1_555 1_555
C49 C48 1_555 1_555
H33 C49 1_555 1_555
C50 N4 1_555 1_555
H34 C50 1_555 1_555
C51 C48 1_555 1_555
H35 C51 1_555 1_555
C52 N4 1_555 1_555
H36 C52 1_555 1_555
Cd1C O3 1_555 1_555
Cd2B N2 1_555 1_555
Cd2B_2 N3 1_555 1_555
Cd2C O9 1_555 1_555
N2B Cd2 1_555 1_555
O3C Cd1 1_555 1_555
N3B Cd2 1_555 1_555
O4C Cd1 1_555 1_555
O9C Cd2 1_555 1_555
O10C Cd2 1_555 1_555
O4 Cd1C 1_555 1_555
C4 C5 1_555 1_555
C6 C7 1_555 1_555
O8 C15 1_555 1_555
O10 Cd2C 1_555 1_555
C12 C13 1_555 1_555
C18 C19 1_555 1_555
C20 C21 1_555 1_555
C26 C27 1_555 1_555
C32 C33 1_555 1_555
C39 C40 1_555 1_555
C44 C45 1_555 1_555
C49 C50 1_555 1_555
C51 C52 1_555 1_555

#END
