
#######################################################################
#
#                 Cambridge Crystallographic Data Centre
#                                CCDC 
#
#######################################################################
#
# If this CIF has been generated from an entry in the Cambridge 
# Structural Database, then it will include bibliographic, chemical, 
# crystal, experimental, refinement or atomic coordinate data resulting 
# from the CCDC's data processing and validation procedures.
#
#######################################################################

data_SOCWUD
_symmetry_cell_setting           triclinic
_symmetry_space_group_name_H-M   'P -1'
_symmetry_Int_Tables_number      2
_space_group_name_Hall           '-P 1'
loop_
_symmetry_equiv_pos_site_id
_symmetry_equiv_pos_as_xyz
1 x,y,z
2 -x,-y,-z
_cell_length_a                   7.7020(10)
_cell_length_b                   9.705(2)
_cell_length_c                   10.387(5)
_cell_angle_alpha                79.397(3)
_cell_angle_beta                 72.326(6)
_cell_angle_gamma                68.933(5)
_cell_volume                     687.863
loop_
_atom_site_label
_atom_site_type_symbol
_atom_site_fract_x
_atom_site_fract_y
_atom_site_fract_z
Mn1 Mn 0.24007(7) 0.15636(5) 0.70823(5)
C1 C 0.5362(6) -0.1679(4) 0.7616(4)
H1 H 0.5795 -0.1601 0.6675
C2 C 0.6204(6) -0.2976(4) 0.8330(4)
H2 H 0.7173 -0.3760 0.7881
C3 C 0.5571(6) -0.3072(4) 0.9718(4)
H3 H 0.6125 -0.3925 1.0223
C4 C 0.4126(6) -0.1914(4) 1.0361(4)
H4 H 0.3679 -0.1974 1.1301
C5 C 0.3336(5) -0.0640(4) 0.9578(3)
C6 C 0.1785(5) 0.0669(4) 1.0199(3)
C7 C 0.1117(6) 0.0774(4) 1.1573(4)
H5 H 0.1592 -0.0015 1.2168
C8 C -0.0266(6) 0.2063(5) 1.2065(4)
H6 H -0.0747 0.2142 1.2994
C9 C -0.0928(6) 0.3230(5) 1.1169(4)
H7 H -0.1824 0.4121 1.1478
C10 C -0.0224(6) 0.3042(4) 0.9802(4)
H8 H -0.0684 0.3819 0.9191
C11 C -0.1259(5) 0.2985(4) 0.6038(3)
C12 C -0.2856(5) 0.4411(4) 0.5816(4)
H9 H -0.2277 0.5130 0.5257
H10 H -0.3572 0.4807 0.6686
C13 C -0.4260(4) 0.4231(3) 0.5146(4)
H11 H -0.3534 0.3790 0.4285
C14 C -0.5354(4) 0.3237(4) 0.6033(3)
N1 N 0.3948(4) -0.0532(3) 0.8225(3)
N2 N 0.1099(4) 0.1782(3) 0.9316(3)
O1 O -0.0180(4) 0.3086(3) 0.6693(3)
O2 O -0.1118(4) 0.1834(3) 0.5597(4)
O3 O -0.5350(4) 0.2151(3) 0.5508(3)
O4 O -0.6319(4) 0.3505(3) 0.7207(3)
O5 O 0.2374(5) 0.0130(3) 0.5753(3)
H12 H 0.137(7) 0.056(5) 0.555(5)
H13 H 0.315(8) -0.060(6) 0.543(5)
Mn1A Mn -1.24007(7) 0.84364(5) 0.29177(5)
Mn1_2 Mn -0.75993(7) 0.15636(5) 0.70823(5)
Mn1A_2 Mn -0.24007(7) 0.84364(5) 0.29177(5)
C1A C -1.5362(6) 1.1679(4) 0.2384(4)
H1A H -1.5795 1.1601 0.3325
C2A C -1.6204(6) 1.2976(4) 0.1670(4)
H2A H -1.7173 1.3760 0.2119
C3A C -1.5571(6) 1.3072(4) 0.0282(4)
H3A H -1.6125 1.3925 -0.0223
C4A C -1.4126(6) 1.1914(4) -0.0361(4)
H4A H -1.3679 1.1974 -0.1301
C5A C -1.3336(5) 1.0640(4) 0.0422(3)
C6A C -1.1785(5) 0.9331(4) -0.0199(3)
C7A C -1.1117(6) 0.9226(4) -0.1573(4)
H5A H -1.1592 1.0015 -0.2168
C8A C -0.9734(6) 0.7937(5) -0.2065(4)
H6A H -0.9253 0.7858 -0.2994
C9A C -0.9072(6) 0.6770(5) -0.1169(4)
H7A H -0.8176 0.5879 -0.1478
C10A C -0.9776(6) 0.6958(4) 0.0198(4)
H8A H -0.9316 0.6181 0.0809
C11A C -0.8741(5) 0.7015(4) 0.3962(3)
C12A C -0.7144(5) 0.5589(4) 0.4184(4)
H9A H -0.7723 0.4870 0.4743
H10A H -0.6428 0.5193 0.3314
C13A C -0.5740(4) 0.5769(3) 0.4854(4)
H11A H -0.6466 0.6210 0.5715
C14A C -0.4646(4) 0.6763(4) 0.3967(3)
N1A N -1.3948(4) 1.0532(3) 0.1775(3)
N2A N -1.1099(4) 0.8218(3) 0.0684(3)
O1A O -0.9820(4) 0.6914(3) 0.3307(3)
O2A O -0.8882(4) 0.8166(3) 0.4403(4)
O3A O -0.4650(4) 0.7849(3) 0.4492(3)
O3_2 O 0.4650(4) 0.2151(3) 0.5508(3)
O3A_2 O -1.4650(4) 0.7849(3) 0.4492(3)
O4A O -0.3681(4) 0.6495(3) 0.2793(3)
O4_2 O 0.3681(4) 0.3505(3) 0.7207(3)
O4A_2 O -1.3681(4) 0.6495(3) 0.2793(3)
O5A O -1.2374(5) 0.9870(3) 0.4247(3)
H12A H -1.137(7) 0.944(5) 0.445(5)
H13A H -1.315(8) 1.060(6) 0.457(5)
loop_
_geom_bond_atom_site_label_1
_geom_bond_atom_site_label_2
_geom_bond_site_symmetry_1
_geom_bond_site_symmetry_2
Mn1 N1 1_555 1_555
C1 H1 1_555 1_555
C2 C1 1_555 1_555
H2 C2 1_555 1_555
C3 C2 1_555 1_555
H3 C3 1_555 1_555
C4 C3 1_555 1_555
H4 C4 1_555 1_555
C5 C4 1_555 1_555
C6 C5 1_555 1_555
C7 C6 1_555 1_555
H5 C7 1_555 1_555
C8 C7 1_555 1_555
H6 C8 1_555 1_555
C9 C8 1_555 1_555
H7 C9 1_555 1_555
C10 C9 1_555 1_555
H8 C10 1_555 1_555
C11 C12 1_555 1_555
C12 H9 1_555 1_555
H10 C12 1_555 1_555
C13 C12 1_555 1_555
H11 C13 1_555 1_555
C14 C13 1_555 1_555
N1 C1 1_555 1_555
N2 Mn1 1_555 1_555
O1 Mn1 1_555 1_555
O2 C11 1_555 1_555
O3 C14 1_555 1_555
O4 C14 1_555 1_555
O5 Mn1 1_555 1_555
H12 O5 1_555 1_555
H13 O5 1_555 1_555
Mn1A N1A 1_555 1_555
Mn1_2 O3 1_555 1_555
Mn1A_2 O3A 1_555 1_555
C1A H1A 1_555 1_555
C2A C1A 1_555 1_555
H2A C2A 1_555 1_555
C3A C2A 1_555 1_555
H3A C3A 1_555 1_555
C4A C3A 1_555 1_555
H4A C4A 1_555 1_555
C5A C4A 1_555 1_555
C6A C5A 1_555 1_555
C7A C6A 1_555 1_555
H5A C7A 1_555 1_555
C8A C7A 1_555 1_555
H6A C8A 1_555 1_555
C9A C8A 1_555 1_555
H7A C9A 1_555 1_555
C10A C9A 1_555 1_555
H8A C10A 1_555 1_555
C11A C12A 1_555 1_555
C12A H9A 1_555 1_555
H10A C12A 1_555 1_555
C13A C13 1_555 1_555
H11A C13A 1_555 1_555
C14A C13A 1_555 1_555
N1A C1A 1_555 1_555
N2A Mn1A 1_555 1_555
O1A Mn1A 1_555 1_555
O2A C11A 1_555 1_555
O3A C14A 1_555 1_555
O3_2 Mn1 1_555 1_555
O3A_2 Mn1A 1_555 1_555
O4A Mn1A_2 1_555 1_555
O4_2 Mn1 1_555 1_555
O4A_2 Mn1A 1_555 1_555
O5A Mn1A 1_555 1_555
H12A O5A 1_555 1_555
H13A O5A 1_555 1_555
C5 N1 1_555 1_555
C6 N2 1_555 1_555
C10 N2 1_555 1_555
C11 O1 1_555 1_555
O4 Mn1_2 1_555 1_555
C5A N1A 1_555 1_555
C6A N2A 1_555 1_555
C10A N2A 1_555 1_555
C11A O1A 1_555 1_555
C12A C13A 1_555 1_555
C14A O4A 1_555 1_555

#END
