
#######################################################################
#
#                 Cambridge Crystallographic Data Centre
#                                CCDC 
#
#######################################################################
#
# If this CIF has been generated from an entry in the Cambridge 
# Structural Database, then it will include bibliographic, chemical, 
# crystal, experimental, refinement or atomic coordinate data resulting 
# from the CCDC's data processing and validation procedures.
#
#######################################################################

data_SOCWIR
_symmetry_cell_setting           monoclinic
_symmetry_space_group_name_H-M   'P 21/n'
_symmetry_Int_Tables_number      14
_space_group_name_Hall           '-P 2yn'
loop_
_symmetry_equiv_pos_site_id
_symmetry_equiv_pos_as_xyz
1 x,y,z
2 1/2-x,1/2+y,1/2-z
3 -x,-y,-z
4 1/2+x,1/2-y,1/2+z
_cell_length_a                   7.067(7)
_cell_length_b                   14.125(14)
_cell_length_c                   10.167(10)
_cell_angle_alpha                90
_cell_angle_beta                 93.270(16)
_cell_angle_gamma                90
_cell_volume                     1013.23
loop_
_atom_site_label
_atom_site_type_symbol
_atom_site_fract_x
_atom_site_fract_y
_atom_site_fract_z
Cu1 Cu 0.04772(4) 0.28310(2) -0.31196(3)
C1 C 0.0048(3) 0.37687(17) -0.0855(2)
C2 C -0.0516(3) 0.45333(16) 0.0111(2)
H1 H -0.0176 0.4314 0.1009
C3 C -0.2687(3) 0.46695(17) -0.0031(3)
H2 H -0.3071 0.5127 0.0613
H3 H -0.3042 0.4915 -0.0902
C4 C -0.3699(3) 0.37361(18) 0.0171(3)
O1 O -0.0107(3) 0.39851(13) -0.20825(17)
O2 O 0.0564(3) 0.29843(14) -0.0455(2)
O3 O -0.4406(3) 0.32955(15) -0.0785(2)
O4 O -0.3695(3) 0.34522(14) 0.13606(19)
O5 O -0.2129(3) 0.23352(18) -0.2914(2)
H4 H -0.280(6) 0.279(3) -0.240(4)
H5 H -0.281(6) 0.223(3) -0.376(3)
O6 O -0.0596(4) 0.35293(17) -0.5212(2)
H6 H -0.057(7) 0.298(2) -0.554(4)
H7 H -0.156(5) 0.385(3) -0.539(4)
O7 O 0.3079(4) 0.33251(19) -0.3377(3)
H8 H 0.375(6) 0.299(3) -0.403(4)
H9 H 0.384(6) 0.335(3) -0.252(3)
Cu1B Cu -0.04772(4) 0.71690(2) 0.31196(3)
Cu1C Cu -0.45228(4) 0.21690(2) 0.18804(3)
Cu1A Cu 0.45228(4) 0.78310(2) -0.18804(3)
C1B C -0.0048(3) 0.62313(17) 0.0855(2)
C2B C 0.0516(3) 0.54667(16) -0.0111(2)
H1B H 0.0176 0.5686 -0.1009
C3B C 0.2687(3) 0.53305(17) 0.0031(3)
H2B H 0.3071 0.4873 -0.0613
H3B H 0.3042 0.5085 0.0902
C4B C 0.3699(3) 0.62639(18) -0.0171(3)
O1B O 0.0107(3) 0.60149(13) 0.20825(17)
O2B O -0.0564(3) 0.70157(14) 0.0455(2)
O3B O 0.4406(3) 0.67045(15) 0.0785(2)
O4B O 0.3695(3) 0.65478(14) -0.13606(19)
O4C O 0.1305(3) 0.15478(14) -0.36394(19)
O4A O -0.1305(3) 0.84522(14) 0.36394(19)
O5B O 0.2129(3) 0.76648(18) 0.2914(2)
H4B H 0.280(6) 0.721(3) 0.240(4)
H5B H 0.281(6) 0.777(3) 0.376(3)
O6B O 0.0596(4) 0.64707(17) 0.5212(2)
H6B H 0.057(7) 0.702(2) 0.554(4)
H7B H 0.156(5) 0.615(3) 0.539(4)
O7B O -0.3079(4) 0.66749(19) 0.3377(3)
H8B H -0.375(6) 0.701(3) 0.403(4)
H9B H -0.384(6) 0.665(3) 0.252(3)
O8 O 0.2119(4) 0.45680(18) -0.6472(3)
H10 H 0.172(6) 0.505(3) -0.688(4)
H11 H 0.131(6) 0.429(3) -0.599(4)
O9 O 0.1170(4) 0.0448(2) -0.1317(3)
H12 H 0.126(7) 0.078(3) -0.199(3)
H13 H 0.009(4) 0.041(3) -0.107(5)
loop_
_geom_bond_atom_site_label_1
_geom_bond_atom_site_label_2
_geom_bond_site_symmetry_1
_geom_bond_site_symmetry_2
Cu1 O1 1_555 1_555
C1 C2 1_555 1_555
C2 H1 1_555 1_555
C3 C2 1_555 1_555
H2 C3 1_555 1_555
H3 C3 1_555 1_555
C4 C3 1_555 1_555
O1 C1 1_555 1_555
O2 C1 1_555 1_555
O3 C4 1_555 1_555
O4 C4 1_555 1_555
O5 Cu1 1_555 1_555
H4 O5 1_555 1_555
H5 O5 1_555 1_555
O6 Cu1 1_555 1_555
H6 O6 1_555 1_555
H7 O6 1_555 1_555
O7 Cu1 1_555 1_555
H8 O7 1_555 1_555
H9 O7 1_555 1_555
O8 H10 1_555 1_555
H11 O8 1_555 1_555
O9 H12 1_555 1_555
H13 O9 1_555 1_555
Cu1B O1B 1_555 1_555
Cu1C O4 1_555 1_555
Cu1A O4B 1_555 1_555
C1B C2B 1_555 1_555
C2B C2 1_555 1_555
H1B C2B 1_555 1_555
C3B C2B 1_555 1_555
H2B C3B 1_555 1_555
H3B C3B 1_555 1_555
C4B C3B 1_555 1_555
O1B C1B 1_555 1_555
O2B C1B 1_555 1_555
O3B C4B 1_555 1_555
O4B C4B 1_555 1_555
O4C Cu1 1_555 1_555
O4A Cu1B 1_555 1_555
O5B Cu1B 1_555 1_555
H4B O5B 1_555 1_555
H5B O5B 1_555 1_555
O6B Cu1B 1_555 1_555
H6B O6B 1_555 1_555
H7B O6B 1_555 1_555
O7B Cu1B 1_555 1_555
H8B O7B 1_555 1_555
H9B O7B 1_555 1_555

#END
