
#######################################################################
#
#                 Cambridge Crystallographic Data Centre
#                                CCDC 
#
#######################################################################
#
# If this CIF has been generated from an entry in the Cambridge 
# Structural Database, then it will include bibliographic, chemical, 
# crystal, experimental, refinement or atomic coordinate data resulting 
# from the CCDC's data processing and validation procedures.
#
#######################################################################

data_SOCWEN
_symmetry_cell_setting           triclinic
_symmetry_space_group_name_H-M   'P -1'
_symmetry_Int_Tables_number      2
_space_group_name_Hall           '-P 1'
loop_
_symmetry_equiv_pos_site_id
_symmetry_equiv_pos_as_xyz
1 x,y,z
2 -x,-y,-z
_cell_length_a                   12.887(4)
_cell_length_b                   12.971(4)
_cell_length_c                   23.254(9)
_cell_angle_alpha                74.358(15)
_cell_angle_beta                 75.948(14)
_cell_angle_gamma                60.853(12)
_cell_volume                     3240.29
loop_
_atom_site_label
_atom_site_type_symbol
_atom_site_fract_x
_atom_site_fract_y
_atom_site_fract_z
Cd1 Cd 0.20819(10) 0.84418(9) 0.43518(4)
S1 S 0.4655(3) 0.1110(3) 0.37099(18)
O1 O 0.2752(11) 0.6767(9) 0.3945(5)
N1 N 0.2363(11) 0.7597(11) 0.5315(5)
C1 C 0.2817(12) 0.6495(11) 0.3465(7)
Cd2 Cd 0.24830(9) 0.90304(9) 0.28840(5)
S2 S -0.0372(3) 1.5336(3) 0.11777(18)
O2 O 0.2638(10) 0.7154(9) 0.2955(4)
N2 N 0.2458(12) 0.7933(12) 0.9656(6)
C2 C 0.3272(13) 0.5127(12) 0.3513(6)
Cd3 Cd 0.17193(10) 0.74345(9) 0.21462(5)
S3 S -0.5733(3) 1.0201(3) 0.13390(18)
O3 O 1.0211(11) -0.1142(11) 0.4418(6)
C3 C 0.3788(15) 0.4597(13) 0.3020(6)
H1 H 0.3822 0.5066 0.2642
Cd4 Cd 0.20924(10) 0.80179(9) 1.06485(5)
S4 S -0.0091(3) 1.6307(3) 0.36457(17)
O4 O 1.0600(11) -0.0691(12) 0.3415(6)
C4 C 0.4275(16) 0.3338(14) 0.3076(7)
H2 H 0.4700 0.2959 0.2747
O5 O 0.4056(9) 0.0733(8) 0.4274(5)
C5 C 0.4097(13) 0.2687(11) 0.3639(7)
O6 O 0.4565(10) 0.0882(9) 0.3151(6)
C6 C 0.3541(13) 0.3209(14) 0.4141(7)
H3 H 0.3439 0.2755 0.4516
O7 O -0.6320(9) 1.7153(10) 0.1682(5)
C7 C 0.3127(14) 0.4463(12) 0.4070(7)
H4 H 0.2754 0.4840 0.4403
O8 O -0.6038(9) 1.7516(9) 0.0683(5)
C8 C 0.6173(12) 0.0546(11) 0.3766(6)
O9 O 0.1546(9) 0.9314(8) 0.2100(4)
C9 C 0.7025(14) 0.0286(14) 0.3263(7)
H5 H 0.6786 0.0402 0.2894
O10 O 0.1552(11) 0.9578(9) 0.1110(5)
C10 C 0.8248(12) -0.0152(11) 0.3300(7)
H6 H 0.8813 -0.0310 0.2959
O11 O 0.0137(9) 1.5669(10) 0.0592(5)
C11 C 0.8595(14) -0.0346(11) 0.3853(7)
O12 O -0.0221(12) 1.5642(11) 0.1690(5)
C12 C 0.7736(12) -0.0138(13) 0.4368(7)
H7 H 0.7986 -0.0324 0.4742
O13 O 0.0136(10) 0.8595(11) 0.0765(5)
C13 C 0.6514(14) 0.0340(14) 0.4333(7)
H8 H 0.5946 0.0516 0.4673
O14 O -0.0057(10) 0.8310(10) 0.1773(5)
C14 C 0.9897(16) -0.0755(18) 0.3890(8)
O15 O -0.7542(13) 1.6108(10) 0.0931(5)
C15 C -0.5714(14) 1.7200(12) 0.1196(7)
O16 O -0.7771(10) 1.5688(10) 0.1939(5)
C16 C -0.4377(14) 1.6756(14) 0.1203(7)
O17 O -0.5920(12) 1.0087(10) 0.0789(5)
C17 C -0.3564(14) 1.6233(14) 0.0717(6)
H9 H -0.3845 1.6165 0.0403
O18 O -0.6171(10) 0.9630(9) 0.1902(5)
C18 C -0.2346(14) 1.5821(15) 0.0706(6)
H10 H -0.1806 1.5473 0.0387
O19 O 0.1965(10) 1.0726(8) 0.3184(5)
C19 C -0.1941(14) 1.5930(12) 0.1172(7)
O20 O 0.1554(10) 1.0384(9) 0.4193(5)
C20 C -0.2752(14) 1.6451(14) 0.1648(8)
H11 H -0.2474 1.6534 0.1958
O21 O -0.5669(10) 1.8131(10) 0.3131(5)
C21 C -0.3953(16) 1.6845(14) 0.1668(7)
H12 H -0.4483 1.7172 0.1995
O22 O -0.5993(11) 1.8131(11) 0.4119(5)
C22 C 0.0175(13) 1.3727(12) 0.1304(6)
O23 O 0.0408(11) 1.6790(9) 0.3076(5)
C23 C 0.0622(14) 1.3163(11) 0.0807(7)
H13 H 0.0606 1.3603 0.0418
O24 O 0.0067(8) 1.6485(8) 0.4194(5)
C24 C 0.1091(16) 1.1929(13) 0.0908(7)
H14 H 0.1443 1.1522 0.0584
C25 C 0.1037(11) 1.1292(11) 0.1493(6)
C26 C 0.0619(14) 1.1855(13) 0.1980(7)
H15 H 0.0628 1.1414 0.2369
C27 C 0.0167(13) 1.3127(13) 0.1886(7)
H16 H -0.0121 1.3532 0.2208
C28 C 0.1407(14) 0.9983(15) 0.1561(7)
C29 C -0.0412(14) 0.8545(13) 0.1276(6)
C30 C -0.1745(12) 0.8928(13) 0.1299(7)
C31 C -0.2237(15) 0.9138(16) 0.0779(7)
H17 H -0.1737 0.9042 0.0413
C32 C -0.3429(14) 0.9479(14) 0.0791(7)
H18 H -0.3738 0.9593 0.0444
C33 C -0.4148(13) 0.9646(13) 0.1332(7)
C34 C -0.3746(13) 0.9501(15) 0.1848(7)
H19 H -0.4267 0.9642 0.2205
C35 C -0.2490(16) 0.9121(14) 0.1830(8)
H20 H -0.2186 0.9007 0.2178
C36 C -0.6336(12) 1.1748(12) 0.1366(6)
C37 C -0.6475(15) 1.2560(12) 0.0830(7)
H21 H -0.6313 1.2315 0.0464
C38 C -0.6865(17) 1.3755(14) 0.0856(6)
H22 H -0.6969 1.4317 0.0501
C39 C -0.7100(13) 1.4123(12) 0.1394(6)
C40 C -0.6902(15) 1.3254(12) 0.1924(6)
H23 H -0.7044 1.3485 0.2292
C41 C -0.6512(15) 1.2094(13) 0.1905(7)
H24 H -0.6359 1.1525 0.2257
C42 C -0.7508(13) 1.5414(13) 0.1422(7)
C43 C 0.1658(12) 1.1019(12) 0.3699(6)
C44 C 0.1231(14) 1.2351(14) 0.3688(6)
C45 C 0.0841(15) 1.2802(12) 0.4231(7)
H25 H 0.0853 1.2290 0.4599
C46 C 0.0450(17) 1.3987(13) 0.4210(7)
H26 H 0.0159 1.4289 0.4567
C47 C 0.0473(12) 1.4749(12) 0.3674(6)
C48 C 0.0845(18) 1.4321(16) 0.3134(7)
H27 H 0.0830 1.4835 0.2766
C49 C 0.1237(12) 1.3107(13) 0.3159(6)
H28 H 0.1512 1.2806 0.2802
C50 C -0.1632(12) 1.6842(11) 0.3634(6)
C51 C -0.2465(15) 1.7179(14) 0.4150(7)
H29 H -0.2200 1.7148 0.4495
C52 C -0.3659(14) 1.7553(16) 0.4150(8)
H30 H -0.4190 1.7775 0.4497
C53 C -0.4109(14) 1.7612(12) 0.3635(6)
C54 C -0.3217(14) 1.7289(18) 0.3122(7)
H31 H -0.3469 1.7393 0.2759
C55 C -0.1996(15) 1.6830(17) 0.3137(8)
H32 H -0.1440 1.6521 0.2813
C56 C -0.5361(11) 1.7992(12) 0.3621(6)
C57 C 0.3418(17) 0.6760(18) 0.5457(8)
H33 H 0.4037 0.6501 0.5145
C58 C 0.3670(17) 0.6238(18) 0.6042(8)
H34 H 0.4442 0.5669 0.6118
C59 C 0.2760(15) 0.6577(13) 0.6508(7)
C60 C 0.1661(15) 0.7428(13) 0.6363(7)
H35 H 0.1013 0.7683 0.6663
C61 C 0.1524(13) 0.7903(13) 0.5769(6)
H36 H 0.0767 0.8496 0.5682
C62 C 0.2981(18) 0.6028(15) 0.7165(7)
H37 H 0.2453 0.5660 0.7353
H38 H 0.3799 0.5399 0.7172
C63 C 0.2779(16) 0.6932(13) 0.7540(7)
H39 H 0.1929 0.7446 0.7628
H40 H 0.3166 0.7431 0.7319
C64 C 0.3323(16) 0.6211(15) 0.8130(7)
H41 H 0.3053 0.5598 0.8295
H42 H 0.4188 0.5805 0.8032
C65 C 0.3027(13) 0.6926(15) 0.8612(7)
C66 C 0.388(2) 0.672(3) 0.8945(10)
H43 H 0.4687 0.6259 0.8816
C67 C 0.3569(19) 0.717(2) 0.9462(9)
H44 H 0.4170 0.6929 0.9693
C68 C 0.168(2) 0.820(2) 0.9312(10)
H45 H 0.0891 0.8727 0.9423
C69 C 0.193(2) 0.776(2) 0.8801(10)
H46 H 0.1320 0.8043 0.8570
Cd1_2 Cd 1.20819(10) -0.15582(9) 0.43518(4)
Cd1_3 Cd -0.79181(10) 1.84418(9) 0.43518(4)
Cd2_2 Cd 1.24830(9) -0.09696(9) 0.28840(5)
Cd2_3 Cd -0.75170(9) 1.90304(9) 0.28840(5)
Cd3_2 Cd -0.82807(10) 1.74345(9) 0.21462(5)
Cd3_3 Cd 0.17193(10) 1.74345(9) 0.21462(5)
O3_2 O 0.0211(11) 0.8858(11) 0.4418(6)
Cd4_2 Cd -0.79076(10) 1.80179(9) 0.06485(5)
Cd4_3 Cd 0.20924(10) 0.80179(9) 0.06485(5)
O4_2 O 0.0600(11) 0.9309(12) 0.3415(6)
O7_2 O 0.3680(9) 0.7153(10) 0.1682(5)
O8_2 O 0.3962(9) 0.7516(9) 1.0683(5)
O10_2 O 0.1552(11) 0.9578(9) 1.1110(5)
O13_2 O 0.0136(10) 0.8595(11) 1.0765(5)
O15_2 O 0.2458(13) 0.6108(10) 1.0931(5)
O16_2 O 0.2229(10) 0.5688(10) 0.1939(5)
O21_2 O 0.4331(10) 0.8131(10) 0.3131(5)
O22_2 O 0.4007(11) 0.8131(11) 0.4119(5)
O23_2 O 0.0408(11) 0.6790(9) 0.3076(5)
loop_
_geom_bond_atom_site_label_1
_geom_bond_atom_site_label_2
_geom_bond_site_symmetry_1
_geom_bond_site_symmetry_2
Cd1 O1 1_555 1_555
S1 O5 1_555 1_555
O1 C1 1_555 1_555
N1 Cd1 1_555 1_555
C1 O2 1_555 1_555
Cd2 O2 1_555 1_555
S2 O11 1_555 1_555
O2 Cd3 1_555 1_555
N2 Cd4 1_555 1_555
C2 C1 1_555 1_555
Cd3 O9 1_555 1_555
S3 O17 1_555 1_555
O3 C14 1_555 1_555
C3 C2 1_555 1_555
H1 C3 1_555 1_555
Cd4 O8_2 1_555 1_555
S4 O23 1_555 1_555
O4 C14 1_555 1_555
C4 C3 1_555 1_555
H2 C4 1_555 1_555
C5 S1 1_555 1_555
O6 S1 1_555 1_555
C6 C5 1_555 1_555
H3 C6 1_555 1_555
O7 C15 1_555 1_555
C7 C2 1_555 1_555
H4 C7 1_555 1_555
O8 C15 1_555 1_555
C8 S1 1_555 1_555
O9 Cd2 1_555 1_555
C9 C8 1_555 1_555
H5 C9 1_555 1_555
O10 C28 1_555 1_555
C10 C9 1_555 1_555
H6 C10 1_555 1_555
C11 C10 1_555 1_555
O12 S2 1_555 1_555
C12 C11 1_555 1_555
H7 C12 1_555 1_555
O13 C29 1_555 1_555
C13 C8 1_555 1_555
H8 C13 1_555 1_555
O14 Cd3 1_555 1_555
C14 C11 1_555 1_555
O15 C42 1_555 1_555
C15 C16 1_555 1_555
O16 C42 1_555 1_555
C16 C17 1_555 1_555
C17 H9 1_555 1_555
O18 S3 1_555 1_555
C18 C17 1_555 1_555
H10 C18 1_555 1_555
O19 Cd2 1_555 1_555
C19 S2 1_555 1_555
O20 Cd1 1_555 1_555
C20 C19 1_555 1_555
H11 C20 1_555 1_555
O21 C56 1_555 1_555
C21 C16 1_555 1_555
H12 C21 1_555 1_555
O22 C56 1_555 1_555
C22 S2 1_555 1_555
O23 Cd3_3 1_555 1_555
C23 C22 1_555 1_555
H13 C23 1_555 1_555
O24 S4 1_555 1_555
C24 C23 1_555 1_555
H14 C24 1_555 1_555
C25 C24 1_555 1_555
C26 C25 1_555 1_555
H15 C26 1_555 1_555
C27 C22 1_555 1_555
H16 C27 1_555 1_555
C28 O9 1_555 1_555
C29 O14 1_555 1_555
C30 C29 1_555 1_555
C31 C30 1_555 1_555
H17 C31 1_555 1_555
C32 C31 1_555 1_555
H18 C32 1_555 1_555
C33 S3 1_555 1_555
C34 C33 1_555 1_555
H19 C34 1_555 1_555
C35 C30 1_555 1_555
H20 C35 1_555 1_555
C36 S3 1_555 1_555
C37 C36 1_555 1_555
H21 C37 1_555 1_555
C38 C37 1_555 1_555
H22 C38 1_555 1_555
C39 C38 1_555 1_555
C40 C39 1_555 1_555
H23 C40 1_555 1_555
C41 C36 1_555 1_555
H24 C41 1_555 1_555
C42 C39 1_555 1_555
C43 O19 1_555 1_555
C44 C43 1_555 1_555
C45 C44 1_555 1_555
H25 C45 1_555 1_555
C46 C45 1_555 1_555
H26 C46 1_555 1_555
C47 S4 1_555 1_555
C48 C47 1_555 1_555
H27 C48 1_555 1_555
C49 C44 1_555 1_555
H28 C49 1_555 1_555
C50 S4 1_555 1_555
C51 C50 1_555 1_555
H29 C51 1_555 1_555
C52 C51 1_555 1_555
H30 C52 1_555 1_555
C53 C52 1_555 1_555
C54 C53 1_555 1_555
H31 C54 1_555 1_555
C55 C50 1_555 1_555
H32 C55 1_555 1_555
C56 C53 1_555 1_555
C57 N1 1_555 1_555
H33 C57 1_555 1_555
C58 C57 1_555 1_555
H34 C58 1_555 1_555
C59 C58 1_555 1_555
C60 C59 1_555 1_555
H35 C60 1_555 1_555
C61 N1 1_555 1_555
H36 C61 1_555 1_555
C62 C59 1_555 1_555
H37 C62 1_555 1_555
H38 C62 1_555 1_555
C63 C62 1_555 1_555
H39 C63 1_555 1_555
H40 C63 1_555 1_555
C64 C63 1_555 1_555
H41 C64 1_555 1_555
H42 C64 1_555 1_555
C65 C64 1_555 1_555
C66 C65 1_555 1_555
H43 C66 1_555 1_555
C67 N2 1_555 1_555
H44 C67 1_555 1_555
C68 N2 1_555 1_555
H45 C68 1_555 1_555
C69 C65 1_555 1_555
H46 C69 1_555 1_555
Cd1_2 O3 1_555 1_555
Cd1_3 O22 1_555 1_555
Cd2_2 O4 1_555 1_555
Cd2_3 O21 1_555 1_555
Cd3_2 O7 1_555 1_555
O3_2 Cd1 1_555 1_555
Cd4_2 O8 1_555 1_555
Cd4_3 O10 1_555 1_555
O4_2 Cd2 1_555 1_555
O7_2 Cd3 1_555 1_555
O10_2 Cd4 1_555 1_555
O13_2 Cd4 1_555 1_555
O15_2 Cd4 1_555 1_555
O16_2 Cd3 1_555 1_555
O21_2 Cd2 1_555 1_555
O22_2 Cd1 1_555 1_555
O23_2 Cd3 1_555 1_555
C4 C5 1_555 1_555
C6 C7 1_555 1_555
C12 C13 1_555 1_555
O13 Cd4_3 1_555 1_555
O15 Cd4_2 1_555 1_555
O16 Cd3_2 1_555 1_555
C18 C19 1_555 1_555
O20 C43 1_555 1_555
C20 C21 1_555 1_555
C25 C28 1_555 1_555
C26 C27 1_555 1_555
C32 C33 1_555 1_555
C34 C35 1_555 1_555
C40 C41 1_555 1_555
C46 C47 1_555 1_555
C48 C49 1_555 1_555
C54 C55 1_555 1_555
C60 C61 1_555 1_555
C66 C67 1_555 1_555
C68 C69 1_555 1_555

#END
