
#######################################################################
#
#                 Cambridge Crystallographic Data Centre
#                                CCDC 
#
#######################################################################
#
# If this CIF has been generated from an entry in the Cambridge 
# Structural Database, then it will include bibliographic, chemical, 
# crystal, experimental, refinement or atomic coordinate data resulting 
# from the CCDC's data processing and validation procedures.
#
#######################################################################

data_SOCWAJ
_symmetry_cell_setting           triclinic
_symmetry_space_group_name_H-M   'P -1'
_symmetry_Int_Tables_number      2
_space_group_name_Hall           '-P 1'
loop_
_symmetry_equiv_pos_site_id
_symmetry_equiv_pos_as_xyz
1 x,y,z
2 -x,-y,-z
_cell_length_a                   10.940(2)
_cell_length_b                   13.527(3)
_cell_length_c                   13.633(3)
_cell_angle_alpha                106.1730(10)
_cell_angle_beta                 106.438(2)
_cell_angle_gamma                102.124(2)
_cell_volume                     1764.72
loop_
_atom_site_label
_atom_site_type_symbol
_atom_site_fract_x
_atom_site_fract_y
_atom_site_fract_z
Cd1 Cd 0.0000 0.0000 0.0000
Cd2 Cd 0.151430(17) 0.012620(13) -0.194520(13)
S1 S 0.47036(7) 0.70053(5) 0.26652(6)
S2 S 0.69831(6) 0.39117(6) 0.43596(6)
O1 O 0.1073(2) 0.17314(14) 0.04474(16)
O2 O 0.2414(2) 0.17517(15) -0.05261(16)
O3 O 0.1650(2) 0.94582(18) -0.05007(18)
O4 O 0.3163(2) 0.92195(19) -0.12190(17)
O5 O 0.4275(3) 0.73536(17) 0.35712(17)
O6 O 0.6106(2) 0.71562(17) 0.2857(2)
O7 O 0.08338(18) 0.01820(14) 0.17793(14)
O8 O 0.0429(2) 0.13937(16) 0.30053(16)
O9 O 0.9215(3) 0.5587(3) 0.0836(3)
O10 O 0.9645(3) 0.4018(2) 0.0510(2)
O11 O 0.7079(2) 0.49571(18) 0.50653(19)
O12 O 0.7697(2) 0.3275(2) 0.4820(2)
N1 N 0.2437(2) 0.00253(17) -0.32920(17)
N2 N 0.0756(2) 0.11717(18) -0.29489(18)
C1 C 0.3251(3) -0.0566(2) -0.3447(3)
H1 H 0.3536 -0.0889 -0.2942
C2 C 0.3693(3) -0.0722(3) -0.4317(3)
H2 H 0.4258 -0.1139 -0.4398
C3 C 0.3270(3) -0.0241(3) -0.5056(3)
H3 H 0.3538 -0.0335 -0.5656
C4 C 0.2442(3) 0.0383(2) -0.4901(2)
H4 H 0.2161 0.0723 -0.5390
C5 C 0.2031(2) 0.04997(19) -0.40113(19)
C6 C 0.1140(2) 0.1166(2) -0.38015(19)
C7 C 0.0752(3) 0.1769(2) -0.4438(2)
H5 H 0.1026 0.1754 -0.5027
C8 C -0.0048(3) 0.2391(3) -0.4182(3)
H6 H -0.0317 0.2801 -0.4597
C9 C -0.0441(3) 0.2397(3) -0.3310(3)
H7 H -0.0981 0.2808 -0.3127
C10 C -0.0019(3) 0.1780(3) -0.2711(3)
H8 H -0.0282 0.1786 -0.2118
C11 C 0.2000(2) 0.21866(19) 0.0199(2)
C12 C 0.2675(2) 0.33875(19) 0.0835(2)
C13 C 0.2446(3) 0.3910(2) 0.1764(2)
H9 H 0.1892 0.3511 0.2019
C14 C 0.3032(3) 0.5021(2) 0.2320(2)
H10 H 0.2870 0.5369 0.2940
C15 C 0.3860(3) 0.56006(19) 0.1936(2)
C16 C 0.4106(4) 0.5089(2) 0.1012(3)
H11 H 0.4669 0.5487 0.0763
C17 C 0.3510(4) 0.3987(2) 0.0465(3)
H12 H 0.3670 0.3642 -0.0157
C18 C 0.4124(3) 0.76439(19) 0.1733(2)
C19 C 0.2945(3) 0.7893(3) 0.1657(3)
H13 H 0.2475 0.7735 0.2095
C20 C 0.2473(3) 0.8378(3) 0.0923(3)
H14 H 0.1676 0.8540 0.0862
C21 C 0.3182(3) 0.86247(19) 0.0277(2)
C22 C 0.4379(3) 0.8387(2) 0.0376(2)
H15 H 0.4859 0.8553 -0.0052
C23 C 0.4856(3) 0.7902(2) 0.1114(2)
H16 H 0.5663 0.7753 0.1190
C24 C 0.2644(3) 0.9132(2) -0.0536(2)
C25 C 0.9176(3) 0.4699(3) 0.0977(3)
C26 C 0.8564(3) 0.4473(3) 0.1773(3)
C27 C 0.7816(3) 0.5099(3) 0.2151(3)
H17 H 0.7671 0.5648 0.1892
C28 C 0.7292(3) 0.4899(3) 0.2911(3)
H18 H 0.6786 0.5309 0.3166
C29 C 0.7527(3) 0.4081(2) 0.3293(2)
C30 C 0.8264(3) 0.3451(2) 0.2913(3)
H19 H 0.8413 0.2904 0.3174
C31 C 0.8770(3) 0.3646(3) 0.2147(3)
H20 H 0.9254 0.3222 0.1878
C32 C 0.5257(2) 0.3127(2) 0.3731(2)
C33 C 0.4435(3) 0.3389(2) 0.4297(2)
H21 H 0.4761 0.4000 0.4934
C34 C 0.3111(3) 0.2727(2) 0.3901(2)
H22 H 0.2543 0.2902 0.4269
C35 C 0.2634(2) 0.18073(19) 0.29617(19)
C36 C 0.3476(3) 0.1560(2) 0.2391(2)
H23 H 0.3154 0.0946 0.1758
C37 C 0.4788(3) 0.2227(2) 0.2766(2)
H24 H 0.5345 0.2078 0.2379
C38 C 0.1201(3) 0.1092(2) 0.25534(19)
H25 H 0.9635 0.5787 0.0431
Cd1_2 Cd 0.0000 1.0000 0.0000
Cd1_3 Cd 0.0000 -1.0000 0.0000
Cd2A Cd -0.151430(17) -0.012620(13) 0.194520(13)
Cd2_2 Cd 0.151430(17) 1.012620(13) -0.194520(13)
Cd2A_2 Cd -0.151430(17) -1.012620(13) 0.194520(13)
S1A S -0.47036(7) -0.70053(5) -0.26652(6)
S2A S -0.69831(6) -0.39117(6) -0.43596(6)
O1A O -0.1073(2) -0.17314(14) -0.04474(16)
O2A O -0.2414(2) -0.17517(15) 0.05261(16)
O3A O -0.1650(2) -0.94582(18) 0.05007(18)
O3_2 O 0.1650(2) -0.05418(18) -0.05007(18)
O3A_2 O -0.1650(2) 0.05418(18) 0.05007(18)
O4A O -0.3163(2) -0.92195(19) 0.12190(17)
O4_2 O 0.3163(2) -0.07805(19) -0.12190(17)
O4A_2 O -0.3163(2) 0.07805(19) 0.12190(17)
O5A O -0.4275(3) -0.73536(17) -0.35712(17)
O6A O -0.6106(2) -0.71562(17) -0.2857(2)
O7A O -0.08338(18) -0.01820(14) -0.17793(14)
O8A O -0.0429(2) -0.13937(16) -0.30053(16)
O9A O -0.9215(3) -0.5587(3) -0.0836(3)
O10A O -0.9645(3) -0.4018(2) -0.0510(2)
O11A O -0.7079(2) -0.49571(18) -0.50653(19)
O12A O -0.7697(2) -0.3275(2) -0.4820(2)
N1A N -0.2437(2) -0.00253(17) 0.32920(17)
N2A N -0.0756(2) -0.11717(18) 0.29489(18)
C1A C -0.3251(3) 0.0566(2) 0.3447(3)
H1A H -0.3536 0.0889 0.2942
C2A C -0.3693(3) 0.0722(3) 0.4317(3)
H2A H -0.4258 0.1139 0.4398
C3A C -0.3270(3) 0.0241(3) 0.5056(3)
H3A H -0.3538 0.0335 0.5656
C4A C -0.2442(3) -0.0383(2) 0.4901(2)
H4A H -0.2161 -0.0723 0.5390
C5A C -0.2031(2) -0.04997(19) 0.40113(19)
C6A C -0.1140(2) -0.1166(2) 0.38015(19)
C7A C -0.0752(3) -0.1769(2) 0.4438(2)
H5A H -0.1026 -0.1754 0.5027
C8A C 0.0048(3) -0.2391(3) 0.4182(3)
H6A H 0.0317 -0.2801 0.4597
C9A C 0.0441(3) -0.2397(3) 0.3310(3)
H7A H 0.0981 -0.2808 0.3127
C10A C 0.0019(3) -0.1780(3) 0.2711(3)
H8A H 0.0282 -0.1786 0.2118
C11A C -0.2000(2) -0.21866(19) -0.0199(2)
C12A C -0.2675(2) -0.33875(19) -0.0835(2)
C13A C -0.2446(3) -0.3910(2) -0.1764(2)
H9A H -0.1892 -0.3511 -0.2019
C14A C -0.3032(3) -0.5021(2) -0.2320(2)
H10A H -0.2870 -0.5369 -0.2940
C15A C -0.3860(3) -0.56006(19) -0.1936(2)
C16A C -0.4106(4) -0.5089(2) -0.1012(3)
H11A H -0.4669 -0.5487 -0.0763
C17A C -0.3510(4) -0.3987(2) -0.0465(3)
H12A H -0.3670 -0.3642 0.0157
C18A C -0.4124(3) -0.76439(19) -0.1733(2)
C19A C -0.2945(3) -0.7893(3) -0.1657(3)
H13A H -0.2475 -0.7735 -0.2095
C20A C -0.2473(3) -0.8378(3) -0.0923(3)
H14A H -0.1676 -0.8540 -0.0862
C21A C -0.3182(3) -0.86247(19) -0.0277(2)
C22A C -0.4379(3) -0.8387(2) -0.0376(2)
H15A H -0.4859 -0.8553 0.0052
C23A C -0.4856(3) -0.7902(2) -0.1114(2)
H16A H -0.5663 -0.7753 -0.1190
C24A C -0.2644(3) -0.9132(2) 0.0536(2)
C25A C -0.9176(3) -0.4699(3) -0.0977(3)
C26A C -0.8564(3) -0.4473(3) -0.1773(3)
C27A C -0.7816(3) -0.5099(3) -0.2151(3)
H17A H -0.7671 -0.5648 -0.1892
C28A C -0.7292(3) -0.4899(3) -0.2911(3)
H18A H -0.6786 -0.5309 -0.3166
C29A C -0.7527(3) -0.4081(2) -0.3293(2)
C30A C -0.8264(3) -0.3451(2) -0.2913(3)
H19A H -0.8413 -0.2904 -0.3174
C31A C -0.8770(3) -0.3646(3) -0.2147(3)
H20A H -0.9254 -0.3222 -0.1878
C32A C -0.5257(2) -0.3127(2) -0.3731(2)
C33A C -0.4435(3) -0.3389(2) -0.4297(2)
H21A H -0.4761 -0.4000 -0.4934
C34A C -0.3111(3) -0.2727(2) -0.3901(2)
H22A H -0.2543 -0.2902 -0.4269
C35A C -0.2634(2) -0.18073(19) -0.29617(19)
C36A C -0.3476(3) -0.1560(2) -0.2391(2)
H23A H -0.3154 -0.0946 -0.1758
C37A C -0.4788(3) -0.2227(2) -0.2766(2)
H24A H -0.5345 -0.2078 -0.2379
C38A C -0.1201(3) -0.1092(2) -0.25534(19)
H25A H -0.9635 -0.5787 -0.0431
loop_
_geom_bond_atom_site_label_1
_geom_bond_atom_site_label_2
_geom_bond_site_symmetry_1
_geom_bond_site_symmetry_2
Cd1 O1 1_555 1_555
Cd2 O2 1_555 1_555
S1 O5 1_555 1_555
S2 O11 1_555 1_555
O1 C11 1_555 1_555
O2 C11 1_555 1_555
O3 C24 1_555 1_555
O4 C24 1_555 1_555
O6 S1 1_555 1_555
O7 Cd1 1_555 1_555
O8 C38 1_555 1_555
O9 C25 1_555 1_555
O10 C25 1_555 1_555
O12 S2 1_555 1_555
N1 Cd2 1_555 1_555
N2 Cd2 1_555 1_555
C1 N1 1_555 1_555
H1 C1 1_555 1_555
C2 C1 1_555 1_555
H2 C2 1_555 1_555
C3 C2 1_555 1_555
H3 C3 1_555 1_555
C4 C3 1_555 1_555
H4 C4 1_555 1_555
C5 N1 1_555 1_555
C6 N2 1_555 1_555
C7 C6 1_555 1_555
H5 C7 1_555 1_555
C8 C7 1_555 1_555
H6 C8 1_555 1_555
C9 C8 1_555 1_555
H7 C9 1_555 1_555
C10 N2 1_555 1_555
H8 C10 1_555 1_555
C11 C12 1_555 1_555
C12 C13 1_555 1_555
C13 H9 1_555 1_555
C14 C13 1_555 1_555
H10 C14 1_555 1_555
C15 S1 1_555 1_555
C16 C15 1_555 1_555
H11 C16 1_555 1_555
C17 C12 1_555 1_555
H12 C17 1_555 1_555
C18 S1 1_555 1_555
C19 C18 1_555 1_555
H13 C19 1_555 1_555
C20 C19 1_555 1_555
H14 C20 1_555 1_555
C21 C20 1_555 1_555
C22 C21 1_555 1_555
H15 C22 1_555 1_555
C23 C18 1_555 1_555
H16 C23 1_555 1_555
C24 C21 1_555 1_555
C25 C26 1_555 1_555
C26 C27 1_555 1_555
C27 H17 1_555 1_555
C28 C27 1_555 1_555
H18 C28 1_555 1_555
C29 S2 1_555 1_555
C30 C29 1_555 1_555
H19 C30 1_555 1_555
C31 C26 1_555 1_555
H20 C31 1_555 1_555
C32 S2 1_555 1_555
C33 C32 1_555 1_555
H21 C33 1_555 1_555
C34 C33 1_555 1_555
H22 C34 1_555 1_555
C35 C34 1_555 1_555
C36 C35 1_555 1_555
H23 C36 1_555 1_555
C37 C32 1_555 1_555
H24 C37 1_555 1_555
C38 O7 1_555 1_555
H25 O9 1_555 1_555
Cd1_2 O3 1_555 1_555
Cd1_3 O3A 1_555 1_555
Cd2A O7 1_555 1_555
Cd2_2 O3 1_555 1_555
Cd2A_2 O3A 1_555 1_555
S1A O5A 1_555 1_555
S2A O11A 1_555 1_555
O1A Cd1 1_555 1_555
O2A Cd2A 1_555 1_555
O3A C24A 1_555 1_555
O3_2 Cd1 1_555 1_555
O3A_2 Cd1 1_555 1_555
O4A Cd2A_2 1_555 1_555
O4_2 Cd2 1_555 1_555
O4A_2 Cd2A 1_555 1_555
O6A S1A 1_555 1_555
O7A Cd1 1_555 1_555
O8A Cd2 1_555 1_555
O9A C25A 1_555 1_555
O10A C25A 1_555 1_555
O12A S2A 1_555 1_555
N1A Cd2A 1_555 1_555
N2A Cd2A 1_555 1_555
C1A N1A 1_555 1_555
H1A C1A 1_555 1_555
C2A C1A 1_555 1_555
H2A C2A 1_555 1_555
C3A C2A 1_555 1_555
H3A C3A 1_555 1_555
C4A C3A 1_555 1_555
H4A C4A 1_555 1_555
C5A N1A 1_555 1_555
C6A N2A 1_555 1_555
C7A C6A 1_555 1_555
H5A C7A 1_555 1_555
C8A C7A 1_555 1_555
H6A C8A 1_555 1_555
C9A C8A 1_555 1_555
H7A C9A 1_555 1_555
C10A N2A 1_555 1_555
H8A C10A 1_555 1_555
C11A O1A 1_555 1_555
C12A C11A 1_555 1_555
C13A C12A 1_555 1_555
H9A C13A 1_555 1_555
C14A C13A 1_555 1_555
H10A C14A 1_555 1_555
C15A S1A 1_555 1_555
C16A C15A 1_555 1_555
H11A C16A 1_555 1_555
C17A C12A 1_555 1_555
H12A C17A 1_555 1_555
C18A S1A 1_555 1_555
C19A C18A 1_555 1_555
H13A C19A 1_555 1_555
C20A C19A 1_555 1_555
H14A C20A 1_555 1_555
C21A C20A 1_555 1_555
C22A C21A 1_555 1_555
H15A C22A 1_555 1_555
C23A C18A 1_555 1_555
H16A C23A 1_555 1_555
C24A O4A 1_555 1_555
C25A C26A 1_555 1_555
C26A C27A 1_555 1_555
C27A H17A 1_555 1_555
C28A C27A 1_555 1_555
H18A C28A 1_555 1_555
C29A S2A 1_555 1_555
C30A C29A 1_555 1_555
H19A C30A 1_555 1_555
C31A C26A 1_555 1_555
H20A C31A 1_555 1_555
C32A S2A 1_555 1_555
C33A C32A 1_555 1_555
H21A C33A 1_555 1_555
C34A C33A 1_555 1_555
H22A C34A 1_555 1_555
C35A C34A 1_555 1_555
C36A C35A 1_555 1_555
H23A C36A 1_555 1_555
C37A C32A 1_555 1_555
H24A C37A 1_555 1_555
C38A O7A 1_555 1_555
H25A O9A 1_555 1_555
Cd2 O3_2 1_555 1_555
Cd2 O7A 1_555 1_555
O4 Cd2_2 1_555 1_555
O8 Cd2A 1_555 1_555
C4 C5 1_555 1_555
C5 C6 1_555 1_555
C9 C10 1_555 1_555
C14 C15 1_555 1_555
C16 C17 1_555 1_555
C22 C23 1_555 1_555
C28 C29 1_555 1_555
C30 C31 1_555 1_555
C35 C38 1_555 1_555
C36 C37 1_555 1_555
Cd2A O3A_2 1_555 1_555
O2A C11A 1_555 1_555
O8A C38A 1_555 1_555
C4A C5A 1_555 1_555
C5A C6A 1_555 1_555
C9A C10A 1_555 1_555
C14A C15A 1_555 1_555
C16A C17A 1_555 1_555
C21A C24A 1_555 1_555
C22A C23A 1_555 1_555
C28A C29A 1_555 1_555
C30A C31A 1_555 1_555
C35A C38A 1_555 1_555
C36A C37A 1_555 1_555

#END
