
#######################################################################
#
#                 Cambridge Crystallographic Data Centre
#                                CCDC 
#
#######################################################################
#
# If this CIF has been generated from an entry in the Cambridge 
# Structural Database, then it will include bibliographic, chemical, 
# crystal, experimental, refinement or atomic coordinate data resulting 
# from the CCDC's data processing and validation procedures.
#
#######################################################################

data_SOCXEO
_symmetry_cell_setting           monoclinic
_symmetry_space_group_name_H-M   'P 21/c'
_symmetry_Int_Tables_number      14
_space_group_name_Hall           '-P 2ybc'
loop_
_symmetry_equiv_pos_site_id
_symmetry_equiv_pos_as_xyz
1 x,y,z
2 -x,1/2+y,1/2-z
3 -x,-y,-z
4 x,1/2-y,1/2+z
_cell_length_a                   11.268(9)
_cell_length_b                   13.002(1)
_cell_length_c                   14.379(1)
_cell_angle_alpha                90
_cell_angle_beta                 101.938(2)
_cell_angle_gamma                90
_cell_volume                     2061.06
loop_
_atom_site_label
_atom_site_type_symbol
_atom_site_fract_x
_atom_site_fract_y
_atom_site_fract_z
Zn1 Zn 0.11982(4) 0.77112(3) 0.68566(3)
C1 C 0.3072(3) 1.1175(3) 0.4380(3)
C2 C 0.4203(3) 1.1380(3) 0.4965(3)
C3 C 0.5222(4) 1.1408(4) 0.4561(4)
H1 H 0.5976 1.1541 0.4947
C4 C 0.5144(4) 1.1245(4) 0.3608(4)
H2 H 0.5840 1.1261 0.3355
C5 C 0.4031(5) 1.1057(4) 0.3027(3)
H3 H 0.3967 1.0959 0.2378
C6 C 0.3012(4) 1.1015(4) 0.3419(3)
H4 H 0.2264 1.0875 0.3026
C7 C 0.1915(3) 1.1094(3) 0.4741(3)
H5 H 0.1984 1.1505 0.5312
H6 H 0.1250 1.1367 0.4266
C8 C 0.4333(4) 1.1578(5) 0.6017(3)
H7 H 0.3613 1.1928 0.6124
H8 H 0.4393 1.0926 0.6350
C9 C 0.1611(3) 0.9642(3) 0.5815(3)
H9 H 0.1747 1.0032 0.6369
C10 C 0.1221(4) 0.8384(3) 0.4835(3)
H10 H 0.1041 0.7729 0.4586
C11 C 0.1386(4) 0.9212(3) 0.4324(3)
H11 H 0.1336 0.9240 0.3671
C12 C 0.6409(4) 1.1930(4) 0.7054(3)
H12 H 0.6519 1.1290 0.7349
C13 C 0.6689(4) 1.3477(4) 0.6638(3)
H13 H 0.7049 1.4115 0.6602
C14 C 0.5600(4) 1.3190(4) 0.6147(3)
H14 H 0.5073 1.3589 0.5708
C15 C 0.0172(4) 0.8974(3) 0.8028(3)
C16 C -0.0438(3) 0.9169(3) 0.8857(3)
H15 H -0.1275 0.9366 0.8615
H16 H -0.0439 0.8538 0.9216
C17 C 0.0187(3) 1.0002(3) 0.9510(2)
H17 H 0.1062 0.9873 0.9622
C18 C -0.0047(4) 1.1085(3) 0.9054(3)
N1 N 0.1356(3) 0.8633(2) 0.5773(2)
N2 N 0.1643(3) 1.0009(2) 0.4956(2)
N3 N 0.7195(3) 1.2663(3) 0.7211(2)
N4 N 0.5401(3) 1.2202(3) 0.6408(3)
O1 O 0.0053(3) 0.8067(2) 0.7676(2)
O2 O 0.0756(3) 0.9649(2) 0.7734(2)
O3 O -0.1111(3) 1.1275(2) 0.8624(2)
O4 O 0.0776(4) 1.1718(3) 0.9155(3)
Zn1A Zn 0.88018(4) 0.27112(3) 0.81434(3)
Zn1A_2 Zn 0.88018(4) 1.27112(3) 0.81434(3)
Zn1A_3 Zn -0.11982(4) 1.27112(3) 0.81434(3)
Zn1B Zn -0.11982(4) 1.22888(3) 1.31434(3)
Zn1C Zn 0.11982(4) 0.72888(3) 1.18566(3)
C1A C 0.6928(3) 0.6175(3) 1.0620(3)
C2A C 0.5797(3) 0.6380(3) 1.0035(3)
C3A C 0.4778(4) 0.6408(4) 1.0439(4)
H1A H 0.4024 0.6541 1.0053
C4A C 0.4856(4) 0.6245(4) 1.1392(4)
H2A H 0.4160 0.6261 1.1645
C5A C 0.5969(5) 0.6057(4) 1.1973(3)
H3A H 0.6033 0.5959 1.2622
C6A C 0.6988(4) 0.6015(4) 1.1581(3)
H4A H 0.7736 0.5875 1.1974
C7A C 0.8085(3) 0.6094(3) 1.0259(3)
H5A H 0.8016 0.6505 0.9688
H6A H 0.8750 0.6367 1.0734
C8A C 0.5667(4) 0.6578(5) 0.8983(3)
H7A H 0.6387 0.6928 0.8876
H8A H 0.5607 0.5926 0.8650
C9A C 0.8389(3) 0.4642(3) 0.9185(3)
H9A H 0.8253 0.5032 0.8631
C10A C 0.8779(4) 0.3384(3) 1.0165(3)
H10A H 0.8959 0.2729 1.0414
C11A C 0.8614(4) 0.4212(3) 1.0676(3)
H11A H 0.8664 0.4240 1.1329
C12A C 0.3591(4) 0.6930(4) 0.7946(3)
H12A H 0.3481 0.6290 0.7651
C13A C 0.3311(4) 0.8477(4) 0.8362(3)
H13A H 0.2951 0.9115 0.8398
C14A C 0.4400(4) 0.8190(4) 0.8853(3)
H14A H 0.4927 0.8589 0.9292
C15B C -0.0172(4) 1.1026(3) 1.1972(3)
C16B C 0.0438(3) 1.0831(3) 1.1143(3)
H15B H 0.1275 1.0634 1.1385
H16B H 0.0439 1.1462 1.0784
C17B C -0.0187(3) 0.9998(3) 1.0490(2)
H17B H -0.1062 1.0127 1.0378
C18B C 0.0047(4) 0.8915(3) 1.0946(3)
N1A N 0.8644(3) 0.3633(2) 0.9227(2)
N2A N 0.8357(3) 0.5009(2) 1.0044(2)
N3A N 0.2805(3) 0.7663(3) 0.7789(2)
N3_2 N 0.7195(3) 0.2663(3) 0.7211(2)
N4A N 0.4599(3) 0.7202(3) 0.8592(3)
O1B O -0.0053(3) 1.1933(2) 1.2324(2)
O1A O 0.9947(3) 0.3067(2) 0.7324(2)
O2B O -0.0756(3) 1.0351(2) 1.2266(2)
O3B O 0.1111(3) 0.8725(2) 1.1376(2)
O3A O 0.1111(3) 0.6275(2) 0.6376(2)
O3_2 O 0.8889(3) 0.1275(2) 0.8624(2)
O4B O -0.0776(4) 0.8282(3) 1.0845(3)
O5 O 0.8162(4) 0.6622(4) 0.7771(3)
H18 H 0.791(7) 0.626(5) 0.723(4)
H19 H 0.872(5) 0.716(4) 0.779(6)
O6 O 0.3150(7) 0.0998(7) 0.9741(7)
H20 H 0.297(8) 0.136(6) 1.013(5)
O7 O 0.6613(6) 0.0606(7) 0.9074(6)
H21 H 0.588(3) 0.063(6) 0.902(5)
O8 O 0.4265(8) 0.1058(8) 0.8396(8)
H22 H 0.395(8) 0.094(7) 0.893(4)
loop_
_geom_bond_atom_site_label_1
_geom_bond_atom_site_label_2
_geom_bond_site_symmetry_1
_geom_bond_site_symmetry_2
Zn1 N1 1_555 1_555
C1 C2 1_555 1_555
C2 C3 1_555 1_555
C3 H1 1_555 1_555
C4 C3 1_555 1_555
H2 C4 1_555 1_555
C5 C4 1_555 1_555
H3 C5 1_555 1_555
C6 C1 1_555 1_555
H4 C6 1_555 1_555
C7 C1 1_555 1_555
H5 C7 1_555 1_555
H6 C7 1_555 1_555
C8 C2 1_555 1_555
H7 C8 1_555 1_555
H8 C8 1_555 1_555
C9 H9 1_555 1_555
C10 H10 1_555 1_555
C11 C10 1_555 1_555
H11 C11 1_555 1_555
C12 H12 1_555 1_555
C13 H13 1_555 1_555
C14 C13 1_555 1_555
H14 C14 1_555 1_555
C15 C16 1_555 1_555
C16 H15 1_555 1_555
H16 C16 1_555 1_555
C17 C16 1_555 1_555
H17 C17 1_555 1_555
C18 C17 1_555 1_555
N1 C9 1_555 1_555
N2 C7 1_555 1_555
N3 C12 1_555 1_555
N4 C8 1_555 1_555
O1 Zn1 1_555 1_555
O2 C15 1_555 1_555
O3 C18 1_555 1_555
O4 C18 1_555 1_555
O5 H18 1_555 1_555
H19 O5 1_555 1_555
O6 H20 1_555 1_555
O7 H21 1_555 1_555
O8 H22 1_555 1_555
Zn1A N1A 1_555 1_555
Zn1A_2 N3 1_555 1_555
Zn1A_3 O3 1_555 1_555
Zn1B O1B 1_555 1_555
Zn1C O3B 1_555 1_555
C1A C2A 1_555 1_555
C2A C3A 1_555 1_555
C3A H1A 1_555 1_555
C4A C3A 1_555 1_555
H2A C4A 1_555 1_555
C5A C4A 1_555 1_555
H3A C5A 1_555 1_555
C6A C1A 1_555 1_555
H4A C6A 1_555 1_555
C7A C1A 1_555 1_555
H5A C7A 1_555 1_555
H6A C7A 1_555 1_555
C8A C2A 1_555 1_555
H7A C8A 1_555 1_555
H8A C8A 1_555 1_555
C9A H9A 1_555 1_555
C10A H10A 1_555 1_555
C11A C10A 1_555 1_555
H11A C11A 1_555 1_555
C12A H12A 1_555 1_555
C13A H13A 1_555 1_555
C14A C13A 1_555 1_555
H14A C14A 1_555 1_555
C15B C16B 1_555 1_555
C16B H15B 1_555 1_555
H16B C16B 1_555 1_555
C17B C17 1_555 1_555
H17B C17B 1_555 1_555
C18B C17B 1_555 1_555
N1A C9A 1_555 1_555
N2A C7A 1_555 1_555
N3A Zn1 1_555 1_555
N3_2 Zn1A 1_555 1_555
N4A C8A 1_555 1_555
O1B C15B 1_555 1_555
O1A Zn1A 1_555 1_555
O2B C15B 1_555 1_555
O3B C18B 1_555 1_555
O3A Zn1 1_555 1_555
O3_2 Zn1A 1_555 1_555
O4B C18B 1_555 1_555
C5 C6 1_555 1_555
C9 N2 1_555 1_555
C10 N1 1_555 1_555
C11 N2 1_555 1_555
C12 N4 1_555 1_555
C13 N3 1_555 1_555
C14 N4 1_555 1_555
C15 O1 1_555 1_555
C5A C6A 1_555 1_555
C9A N2A 1_555 1_555
C10A N1A 1_555 1_555
C11A N2A 1_555 1_555
C12A N3A 1_555 1_555
C12A N4A 1_555 1_555
C13A N3A 1_555 1_555
C14A N4A 1_555 1_555
C16B C17B 1_555 1_555

#END
