
#######################################################################
#
#                 Cambridge Crystallographic Data Centre
#                                CCDC 
#
#######################################################################
#
# If this CIF has been generated from an entry in the Cambridge 
# Structural Database, then it will include bibliographic, chemical, 
# crystal, experimental, refinement or atomic coordinate data resulting 
# from the CCDC's data processing and validation procedures.
#
#######################################################################

data_SOCXAK
_symmetry_cell_setting           triclinic
_symmetry_space_group_name_H-M   'P -1'
_symmetry_Int_Tables_number      2
_space_group_name_Hall           '-P 1'
loop_
_symmetry_equiv_pos_site_id
_symmetry_equiv_pos_as_xyz
1 x,y,z
2 -x,-y,-z
_cell_length_a                   7.655(5)
_cell_length_b                   9.700(7)
_cell_length_c                   11.090(6)
_cell_angle_alpha                84.068(2)
_cell_angle_beta                 70.758(2)
_cell_angle_gamma                68.703(3)
_cell_volume                     724.25
loop_
_atom_site_label
_atom_site_type_symbol
_atom_site_fract_x
_atom_site_fract_y
_atom_site_fract_z
Mn1 Mn -0.08169(6) 0.16404(5) 0.80563(4)
C1 C -0.5338(4) 0.3130(3) 0.9202(3)
C2 C -0.7143(4) 0.4500(3) 0.9264(3)
H1 H -0.7061 0.4856 0.8404
H2 H -0.7119 0.5267 0.9749
C3 C -0.9119(4) 0.4261(3) 0.9869(2)
H3 H -0.9116 0.3756 1.0681
C4 C -0.9420(4) 0.3307(3) 0.9004(3)
C5 C 0.2718(5) -0.1596(4) 0.7649(3)
H4 H 0.2269 -0.1633 0.8535
C6 C 0.4335(5) -0.2777(4) 0.6985(3)
H5 H 0.4939 -0.3585 0.7419
C7 C 0.5025(5) -0.2730(4) 0.5677(3)
H6 H 0.6114 -0.3505 0.5215
C8 C 0.4081(4) -0.1511(4) 0.5042(3)
C9 C 0.2440(4) -0.0382(3) 0.5796(2)
C10 C 0.4733(5) -0.1372(4) 0.3693(3)
H7 H 0.5808 -0.2129 0.3196
C11 C 0.3813(5) -0.0159(4) 0.3125(3)
H8 H 0.4270 -0.0090 0.2241
C12 C 0.2149(5) 0.1024(4) 0.3852(3)
C13 C 0.1450(4) 0.0904(3) 0.5191(3)
C14 C -0.0994(5) 0.3191(4) 0.5394(3)
H9 H -0.2076 0.3930 0.5906
C15 C -0.0378(6) 0.3409(4) 0.4083(3)
H10 H -0.1027 0.4282 0.3735
C16 C 0.1186(5) 0.2327(4) 0.3311(3)
H11 H 0.1609 0.2455 0.2433
N1 N 0.1776(3) -0.0417(3) 0.7089(2)
N2 N -0.0114(4) 0.1987(3) 0.5945(2)
O1 O -0.5560(4) 0.2059(3) 0.9868(3)
O2 O -0.3703(3) 0.3191(2) 0.8453(2)
O3 O -0.9803(3) 0.2159(2) 0.9469(2)
O4 O -0.9365(4) 0.3677(3) 0.7892(2)
O5 O -0.2009(4) 0.0105(3) 0.9216(2)
H12 H -0.319(6) 0.062(4) 0.961(3)
H13 H -0.166(7) -0.079(6) 0.960(4)
Mn1A Mn -1.91831(6) 0.83596(5) 1.19437(4)
Mn1_2 Mn -1.08169(6) 0.16404(5) 0.80563(4)
Mn1A_2 Mn -0.91831(6) 0.83596(5) 1.19437(4)
C1A C -1.4662(4) 0.6870(3) 1.0798(3)
C2A C -1.2857(4) 0.5500(3) 1.0736(3)
H1A H -1.2939 0.5144 1.1596
H2A H -1.2881 0.4733 1.0251
C3A C -1.0881(4) 0.5739(3) 1.0131(2)
H3A H -1.0884 0.6244 0.9319
C4A C -1.0580(4) 0.6693(3) 1.0996(3)
C5A C -2.2718(5) 1.1596(4) 1.2351(3)
H4A H -2.2269 1.1633 1.1465
C6A C -2.4335(5) 1.2777(4) 1.3015(3)
H5A H -2.4939 1.3585 1.2581
C7A C -2.5025(5) 1.2730(4) 1.4323(3)
H6A H -2.6114 1.3505 1.4785
C8A C -2.4081(4) 1.1511(4) 1.4958(3)
C9A C -2.2440(4) 1.0382(3) 1.4204(2)
C10A C -2.4733(5) 1.1372(4) 1.6307(3)
H7A H -2.5808 1.2129 1.6804
C11A C -2.3813(5) 1.0159(4) 1.6875(3)
H8A H -2.4270 1.0090 1.7759
C12A C -2.2149(5) 0.8976(4) 1.6148(3)
C13A C -2.1450(4) 0.9096(3) 1.4809(3)
C14A C -1.9006(5) 0.6809(4) 1.4606(3)
H9A H -1.7924 0.6070 1.4094
C15A C -1.9622(6) 0.6591(4) 1.5917(3)
H10A H -1.8973 0.5718 1.6265
C16A C -2.1186(5) 0.7673(4) 1.6689(3)
H11A H -2.1609 0.7545 1.7567
N1A N -2.1776(3) 1.0417(3) 1.2911(2)
N2A N -1.9886(4) 0.8013(3) 1.4055(2)
O1A O -1.4440(4) 0.7941(3) 1.0132(3)
O2A O -1.6297(3) 0.6809(2) 1.1547(2)
O3A O -1.0197(3) 0.7841(2) 1.0531(2)
O3_2 O 0.0197(3) 0.2159(2) 0.9469(2)
O3A_2 O -2.0197(3) 0.7841(2) 1.0531(2)
O4A O -1.0635(4) 0.6323(3) 1.2108(2)
O5A O -1.7991(4) 0.9895(3) 1.0784(2)
H12A H -1.681(6) 0.938(4) 1.039(3)
H13A H -1.834(7) 1.079(6) 1.040(4)
loop_
_geom_bond_atom_site_label_1
_geom_bond_atom_site_label_2
_geom_bond_site_symmetry_1
_geom_bond_site_symmetry_2
Mn1 N1 1_555 1_555
C1 C2 1_555 1_555
C2 H1 1_555 1_555
H2 C2 1_555 1_555
C3 C2 1_555 1_555
H3 C3 1_555 1_555
C4 C3 1_555 1_555
C5 H4 1_555 1_555
C6 C5 1_555 1_555
H5 C6 1_555 1_555
C7 C6 1_555 1_555
H6 C7 1_555 1_555
C8 C7 1_555 1_555
C9 C8 1_555 1_555
C10 C8 1_555 1_555
H7 C10 1_555 1_555
C11 C10 1_555 1_555
H8 C11 1_555 1_555
C12 C11 1_555 1_555
C13 C9 1_555 1_555
C14 H9 1_555 1_555
C15 C14 1_555 1_555
H10 C15 1_555 1_555
C16 C12 1_555 1_555
H11 C16 1_555 1_555
N1 C5 1_555 1_555
N2 Mn1 1_555 1_555
O1 C1 1_555 1_555
O2 Mn1 1_555 1_555
O3 C4 1_555 1_555
O4 C4 1_555 1_555
O5 Mn1 1_555 1_555
H12 O5 1_555 1_555
H13 O5 1_555 1_555
Mn1A N1A 1_555 1_555
Mn1_2 O3 1_555 1_555
Mn1A_2 O3A 1_555 1_555
C1A C2A 1_555 1_555
C2A H1A 1_555 1_555
H2A C2A 1_555 1_555
C3A C3 1_555 1_555
H3A C3A 1_555 1_555
C4A C3A 1_555 1_555
C5A H4A 1_555 1_555
C6A C5A 1_555 1_555
H5A C6A 1_555 1_555
C7A C6A 1_555 1_555
H6A C7A 1_555 1_555
C8A C7A 1_555 1_555
C9A C8A 1_555 1_555
C10A C8A 1_555 1_555
H7A C10A 1_555 1_555
C11A C10A 1_555 1_555
H8A C11A 1_555 1_555
C12A C11A 1_555 1_555
C13A C9A 1_555 1_555
C14A H9A 1_555 1_555
C15A C14A 1_555 1_555
H10A C15A 1_555 1_555
C16A C12A 1_555 1_555
H11A C16A 1_555 1_555
N1A C5A 1_555 1_555
N2A Mn1A 1_555 1_555
O1A C1A 1_555 1_555
O2A Mn1A 1_555 1_555
O3A C4A 1_555 1_555
O3_2 Mn1 1_555 1_555
O3A_2 Mn1A 1_555 1_555
O4A C4A 1_555 1_555
O5A Mn1A 1_555 1_555
H12A O5A 1_555 1_555
H13A O5A 1_555 1_555
C1 O2 1_555 1_555
C9 N1 1_555 1_555
C12 C13 1_555 1_555
C13 N2 1_555 1_555
C14 N2 1_555 1_555
C15 C16 1_555 1_555
C1A O2A 1_555 1_555
C2A C3A 1_555 1_555
C9A N1A 1_555 1_555
C12A C13A 1_555 1_555
C13A N2A 1_555 1_555
C14A N2A 1_555 1_555
C15A C16A 1_555 1_555

#END
