
#######################################################################
#
#                 Cambridge Crystallographic Data Centre
#                                CCDC 
#
#######################################################################
#
# If this CIF has been generated from an entry in the Cambridge 
# Structural Database, then it will include bibliographic, chemical, 
# crystal, experimental, refinement or atomic coordinate data resulting 
# from the CCDC's data processing and validation procedures.
#
#######################################################################

data_SOCYAL
_symmetry_cell_setting           monoclinic
_symmetry_space_group_name_H-M   'P 21/n'
_symmetry_Int_Tables_number      14
_space_group_name_Hall           '-P 2yn'
loop_
_symmetry_equiv_pos_site_id
_symmetry_equiv_pos_as_xyz
1 x,y,z
2 1/2-x,1/2+y,1/2-z
3 -x,-y,-z
4 1/2+x,1/2-y,1/2+z
_cell_length_a                   9.7103(11)
_cell_length_b                   10.0679(11)
_cell_length_c                   24.245(3)
_cell_angle_alpha                90
_cell_angle_beta                 90.852(2)
_cell_angle_gamma                90
_cell_volume                     2369.99
loop_
_atom_site_label
_atom_site_type_symbol
_atom_site_fract_x
_atom_site_fract_y
_atom_site_fract_z
Co1 Co -0.07733(4) 0.61379(4) 0.505582(16)
O1 O -0.1504(2) 0.3135(3) 0.82510(9)
O2 O -0.1056(2) 0.5408(3) 0.58340(8)
O3 O 0.0208(3) 0.3569(3) 0.57389(9)
O4 O 0.3825(2) 0.1611(3) 0.96608(9)
O5 O 0.2502(2) -0.0178(3) 0.97870(10)
N1 N -0.1505(3) 0.8017(3) 0.52019(10)
N2 N -0.6426(5) 1.4105(5) 0.7821(2)
C1 C -0.1206(3) 0.3399(4) 0.77043(12)
C2 C -0.1778(4) 0.4535(4) 0.74808(13)
H1 H -0.2308 0.5094 0.7697
C3 C -0.1556(4) 0.4837(4) 0.69339(13)
H2 H -0.1931 0.5608 0.6783
C4 C -0.0774(3) 0.3994(3) 0.66052(12)
C5 C -0.0241(4) 0.2845(4) 0.68369(13)
H3 H 0.0271 0.2269 0.6621
C6 C -0.0458(4) 0.2539(4) 0.73852(14)
H4 H -0.0102 0.1760 0.7536
C7 C -0.0519(3) 0.4350(4) 0.60163(12)
C8 C -0.0447(3) 0.2657(4) 0.85916(12)
C9 C -0.0802(3) 0.1744(4) 0.89856(12)
H5 H -0.1713 0.1477 0.9023
C10 C 0.0224(3) 0.1228(3) 0.93260(12)
H6 H -0.0003 0.0602 0.9592
C11 C 0.1578(3) 0.1626(3) 0.92781(12)
C12 C 0.1894(3) 0.2599(4) 0.88965(13)
H7 H 0.2794 0.2907 0.8873
C13 C 0.0883(4) 0.3119(4) 0.85486(14)
H8 H 0.1099 0.3768 0.8291
C14 C 0.2711(3) 0.0977(4) 0.96048(12)
C15 C -0.2456(5) 0.8570(4) 0.48835(16)
H9 H -0.2737 0.8118 0.4567
C16 C -0.3053(5) 0.9773(5) 0.49914(17)
H10 H -0.3716 1.0113 0.4749
C17 C -0.2681(4) 1.0482(4) 0.54558(14)
C18 C -0.1680(5) 0.9906(5) 0.57830(18)
H11 H -0.1374 1.0342 0.6100
C19 C -0.1127(4) 0.8699(4) 0.56493(17)
H12 H -0.0456 0.8339 0.5882
C20 C -0.3345(5) 1.1781(4) 0.55962(16)
H13 H -0.4027 1.1989 0.5313
H14 H -0.2650 1.2472 0.5590
C21 C -0.4042(5) 1.1806(4) 0.61566(17)
H15 H -0.4716 1.1096 0.6174
H16 H -0.3359 1.1658 0.6446
C22 C -0.4745(5) 1.3122(4) 0.62488(17)
H17 H -0.4076 1.3818 0.6185
H18 H -0.5465 1.3216 0.5970
C23 C -0.6931(7) 1.4530(7) 0.7372(3)
H19 H -0.7669 1.5116 0.7394
C24 C -0.6481(6) 1.4198(6) 0.6849(2)
H20 H -0.6927 1.4534 0.6537
C25 C -0.5372(4) 1.3367(4) 0.67990(18)
C26 C -0.4852(6) 1.2869(6) 0.7283(2)
H21 H -0.4128 1.2264 0.7280
C27 C -0.5411(7) 1.3272(7) 0.7781(3)
H22 H -0.5035 1.2924 0.8105
Co1B Co 0.07733(4) 0.38621(4) 0.494418(16)
Co1A Co 0.57733(4) 0.11379(4) 0.994418(16)
Co1C Co 0.42267(4) -0.11379(4) 1.005582(16)
O3B O -0.0208(3) 0.6431(3) 0.42611(9)
O4A O 0.1175(2) 0.6611(3) 0.53392(9)
O5C O -0.2498(2) 0.5178(3) 0.47870(10)
loop_
_geom_bond_atom_site_label_1
_geom_bond_atom_site_label_2
_geom_bond_site_symmetry_1
_geom_bond_site_symmetry_2
Co1 O2 1_555 1_555
O1 C1 1_555 1_555
O2 C7 1_555 1_555
O3 C7 1_555 1_555
O4 C14 1_555 1_555
O5 C14 1_555 1_555
N1 Co1 1_555 1_555
N2 C23 1_555 1_555
C1 C2 1_555 1_555
C2 H1 1_555 1_555
C3 C2 1_555 1_555
H2 C3 1_555 1_555
C4 C3 1_555 1_555
C5 C4 1_555 1_555
H3 C5 1_555 1_555
C6 C1 1_555 1_555
H4 C6 1_555 1_555
C7 C4 1_555 1_555
C8 O1 1_555 1_555
C9 C8 1_555 1_555
H5 C9 1_555 1_555
C10 C9 1_555 1_555
H6 C10 1_555 1_555
C11 C10 1_555 1_555
C12 C11 1_555 1_555
H7 C12 1_555 1_555
C13 C8 1_555 1_555
H8 C13 1_555 1_555
C14 C11 1_555 1_555
C15 N1 1_555 1_555
H9 C15 1_555 1_555
C16 C15 1_555 1_555
H10 C16 1_555 1_555
C17 C16 1_555 1_555
C18 C17 1_555 1_555
H11 C18 1_555 1_555
C19 N1 1_555 1_555
H12 C19 1_555 1_555
C20 C17 1_555 1_555
H13 C20 1_555 1_555
H14 C20 1_555 1_555
C21 C20 1_555 1_555
H15 C21 1_555 1_555
H16 C21 1_555 1_555
C22 C21 1_555 1_555
H17 C22 1_555 1_555
H18 C22 1_555 1_555
C23 H19 1_555 1_555
C24 C23 1_555 1_555
H20 C24 1_555 1_555
C25 C22 1_555 1_555
C26 C25 1_555 1_555
H21 C26 1_555 1_555
C27 N2 1_555 1_555
H22 C27 1_555 1_555
Co1B O3 1_555 1_555
Co1A O4 1_555 1_555
Co1C O5 1_555 1_555
O3B Co1 1_555 1_555
O4A Co1 1_555 1_555
O5C Co1 1_555 1_555
C5 C6 1_555 1_555
C12 C13 1_555 1_555
C18 C19 1_555 1_555
C24 C25 1_555 1_555
C26 C27 1_555 1_555

#END
