
#######################################################################
#
#                 Cambridge Crystallographic Data Centre
#                                CCDC 
#
#######################################################################
#
# If this CIF has been generated from an entry in the Cambridge 
# Structural Database, then it will include bibliographic, chemical, 
# crystal, experimental, refinement or atomic coordinate data resulting 
# from the CCDC's data processing and validation procedures.
#
#######################################################################

data_SOCYEP01
_symmetry_cell_setting           orthorhombic
_symmetry_space_group_name_H-M   'F d d d'
_symmetry_Int_Tables_number      70
_space_group_name_Hall           '-F 2uv 2vw'
loop_
_symmetry_equiv_pos_site_id
_symmetry_equiv_pos_as_xyz
1 x,y,z
2 1/4-x,1/4-y,z
3 x,1/4-y,1/4-z
4 1/4-x,y,1/4-z
5 x,1/2+y,1/2+z
6 1/2+x,y,1/2+z
7 1/2+x,1/2+y,z
8 1/4-x,3/4-y,1/2+z
9 x,3/4-y,3/4-z
10 1/4-x,1/2+y,3/4-z
11 3/4-x,1/4-y,1/2+z
12 1/2+x,1/4-y,3/4-z
13 3/4-x,y,3/4-z
14 3/4-x,3/4-y,z
15 1/2+x,3/4-y,1/4-z
16 3/4-x,1/2+y,1/4-z
17 -x,-y,-z
18 3/4+x,3/4+y,-z
19 -x,3/4+y,3/4+z
20 3/4+x,-y,3/4+z
21 -x,1/2-y,1/2-z
22 1/2-x,-y,1/2-z
23 1/2-x,1/2-y,-z
24 3/4+x,1/4+y,1/2-z
25 -x,1/4+y,1/4+z
26 3/4+x,1/2-y,1/4+z
27 1/4+x,3/4+y,1/2-z
28 1/2-x,3/4+y,1/4+z
29 1/4+x,-y,1/4+z
30 1/4+x,1/4+y,-z
31 1/2-x,1/4+y,3/4+z
32 1/4+x,1/2-y,3/4+z
_cell_length_a                   13.993(3)
_cell_length_b                   19.661(4)
_cell_length_c                   36.141(8)
_cell_angle_alpha                90
_cell_angle_beta                 90
_cell_angle_gamma                90
_cell_volume                     9942.98
loop_
_atom_site_label
_atom_site_type_symbol
_atom_site_fract_x
_atom_site_fract_y
_atom_site_fract_z
Co1 Co 0.8750 0.3750 0.08310(4)
O1 O 0.7858(4) 0.3262(3) 0.03970(15)
O3 O 0.7428(4) 0.4183(3) 0.07042(17)
O4 O 0.3750 0.3750 -0.0312(2)
N1 N 0.9219(5) 0.4454(3) 0.1224(2)
C1 C 0.8813(7) 0.5011(6) 0.1320(3)
H2 H 0.8212 0.5105 0.1223
C2 C 0.9201(9) 0.5471(6) 0.1552(3)
H3 H 0.8872 0.5872 0.1600
C3 C 1.0043(8) 0.5366(6) 0.1714(3)
C4 C 1.0493(8) 0.4838(5) 0.1601(3)
H4 H 1.1135 0.4775 0.1659
C5 C 1.0009(8) 0.4372(5) 0.1395(3)
H5 H 1.0286 0.3943 0.1377
C6 C 1.0486(8) 0.5870(6) 0.1985(3)
H6 H 0.9998 0.6183 0.2070
H7 H 1.0730 0.5626 0.2198
C7 C 1.1250 0.6250 0.1818(5)
H8 H 1.1580 0.5934 0.1656
C8 C 0.7264(6) 0.3731(5) 0.0454(2)
C9 C 0.6356(5) 0.3746(4) 0.0251(2)
C10 C 0.5654(6) 0.4212(4) 0.0339(2)
H9 H 0.5777 0.4539 0.0519
C11 C 0.4759(6) 0.4203(5) 0.0164(3)
H10 H 0.4284 0.4507 0.0236
C12 C 0.4589(6) 0.3742(5) -0.0114(2)
C13 C 0.5279(6) 0.3288(5) -0.0209(2)
H11 H 0.5166 0.2983 -0.0401
C14 C 0.6150(5) 0.3272(5) -0.0027(2)
H12 H 0.6601 0.2944 -0.0089
Co1_2 Co -0.1250 0.3750 0.08310(4)
Co1A Co 1.3750 0.8750 0.08310(4)
O1M O -0.0358(4) 0.4238(3) 0.03970(15)
O1M_2 O 0.9642(4) 0.4238(3) 0.03970(15)
O3M O 0.0072(4) 0.3317(3) 0.07042(17)
O3M_2 O 1.0072(4) 0.3317(3) 0.07042(17)
N1A N 1.3281(5) 0.8046(3) 0.1224(2)
N1M N 0.8281(5) 0.3046(3) 0.1224(2)
C1A C 1.3687(7) 0.7489(6) 0.1320(3)
H2A H 1.4288 0.7395 0.1223
C2A C 1.3299(9) 0.7029(6) 0.1552(3)
H3A H 1.3628 0.6628 0.1600
C3A C 1.2457(8) 0.7134(6) 0.1714(3)
C4A C 1.2007(8) 0.7662(5) 0.1601(3)
H4A H 1.1365 0.7725 0.1659
C5A C 1.2491(8) 0.8128(5) 0.1395(3)
H5A H 1.2214 0.8557 0.1377
C6A C 1.2014(8) 0.6630(6) 0.1985(3)
H6A H 1.2502 0.6317 0.2070
H7A H 1.1770 0.6874 0.2198
H8A H 1.0920 0.6566 0.1656
C8M C 0.0236(6) 0.3769(5) 0.0454(2)
C9M C 0.1144(5) 0.3754(4) 0.0251(2)
C10M C 0.1846(6) 0.3288(4) 0.0339(2)
H9M H 0.1723 0.2961 0.0519
C11M C 0.2741(6) 0.3297(5) 0.0164(3)
H10M H 0.3216 0.2993 0.0236
C12M C 0.2911(6) 0.3758(5) -0.0114(2)
C13M C 0.2221(6) 0.4212(5) -0.0209(2)
H11M H 0.2334 0.4517 -0.0401
C14M C 0.1350(5) 0.4228(5) -0.0027(2)
H12M H 0.0899 0.4556 -0.0089
O2 O 0.1250 0.2562(7) 0.1250
H1 H 0.1589 0.2775 0.1407
H1C H 0.0911 0.2775 0.1093
loop_
_geom_bond_atom_site_label_1
_geom_bond_atom_site_label_2
_geom_bond_site_symmetry_1
_geom_bond_site_symmetry_2
Co1 O1 1_555 1_555
O1 C8 1_555 1_555
O2 H1 1_555 1_555
O3 Co1 1_555 1_555
O4 C12 1_555 1_555
N1 Co1 1_555 1_555
C1 N1 1_555 1_555
H2 C1 1_555 1_555
C2 C1 1_555 1_555
H3 C2 1_555 1_555
C3 C2 1_555 1_555
C4 C3 1_555 1_555
H4 C4 1_555 1_555
C5 N1 1_555 1_555
H5 C5 1_555 1_555
C6 C3 1_555 1_555
H6 C6 1_555 1_555
H7 C6 1_555 1_555
C7 C6 1_555 1_555
H8 C7 1_555 1_555
C8 O3 1_555 1_555
C9 C8 1_555 1_555
C10 C9 1_555 1_555
H9 C10 1_555 1_555
C11 C10 1_555 1_555
H10 C11 1_555 1_555
C12 C11 1_555 1_555
C13 C12 1_555 1_555
H11 C13 1_555 1_555
C14 C9 1_555 1_555
H12 C14 1_555 1_555
Co1_2 O1M 1_555 1_555
Co1A N1A 1_555 1_555
O1M C8M 1_555 1_555
O1M_2 Co1 1_555 1_555
H1C O2 1_555 1_555
O3M Co1_2 1_555 1_555
O3M_2 Co1 1_555 1_555
N1A C1A 1_555 1_555
N1M Co1 1_555 1_555
C1A H2A 1_555 1_555
C2A C1A 1_555 1_555
H3A C2A 1_555 1_555
C3A C2A 1_555 1_555
C4A C3A 1_555 1_555
H4A C4A 1_555 1_555
C5A N1A 1_555 1_555
H5A C5A 1_555 1_555
C6A C7 1_555 1_555
H6A C6A 1_555 1_555
H7A C6A 1_555 1_555
H8A C7 1_555 1_555
C8M O3M 1_555 1_555
C9M C8M 1_555 1_555
C10M C9M 1_555 1_555
H9M C10M 1_555 1_555
C11M C10M 1_555 1_555
H10M C11M 1_555 1_555
C12M O4 1_555 1_555
C13M C12M 1_555 1_555
H11M C13M 1_555 1_555
C14M C9M 1_555 1_555
H12M C14M 1_555 1_555
C4 C5 1_555 1_555
C13 C14 1_555 1_555
C3A C6A 1_555 1_555
C4A C5A 1_555 1_555
C11M C12M 1_555 1_555
C13M C14M 1_555 1_555

#END
