
#######################################################################
#
#                 Cambridge Crystallographic Data Centre
#                                CCDC 
#
#######################################################################
#
# If this CIF has been generated from an entry in the Cambridge 
# Structural Database, then it will include bibliographic, chemical, 
# crystal, experimental, refinement or atomic coordinate data resulting 
# from the CCDC's data processing and validation procedures.
#
#######################################################################

data_SOCZIU
_symmetry_cell_setting           monoclinic
_symmetry_space_group_name_H-M   'C 2/c'
_symmetry_Int_Tables_number      15
_space_group_name_Hall           '-C 2yn'
loop_
_symmetry_equiv_pos_site_id
_symmetry_equiv_pos_as_xyz
1 x,y,z
2 1/2+x,1/2+y,z
3 -x,y,1/2-z
4 1/2-x,1/2+y,1/2-z
5 -x,-y,-z
6 1/2-x,1/2-y,-z
7 x,-y,1/2+z
8 1/2+x,1/2-y,1/2+z
_cell_length_a                   19.927(6)
_cell_length_b                   7.337(2)
_cell_length_c                   15.016(4)
_cell_angle_alpha                90
_cell_angle_beta                 116.619(4)
_cell_angle_gamma                90
_cell_volume                     1962.7
loop_
_atom_site_label
_atom_site_type_symbol
_atom_site_fract_x
_atom_site_fract_y
_atom_site_fract_z
Co1 Co 0.0000 1.0000 0.0000
C1 C -0.08990(19) 0.7073(5) 0.0607(3)
H1 H -0.0833 0.6143 0.0232
C2 C -0.1832(2) 0.5556(5) 0.1109(3)
H2 H -0.2271 0.5537 0.0466
H3 H -0.1997 0.5895 0.1604
C3 C -0.1508(2) 0.3672(5) 0.1338(3)
H4 H -0.1917 0.2798 0.1089
H5 H -0.1209 0.3471 0.0986
C4 C -0.10023(19) 0.1861(5) 0.2931(2)
H6 H -0.1313 0.0847 0.2698
C5 C 0.13978(19) 0.7293(5) 0.1070(3)
N1 N -0.05959(16) 0.8687(4) 0.0737(2)
N2 N -0.0841(3) 0.9593(5) 0.1317(3)
N3 N -0.1279(2) 0.8568(5) 0.1522(3)
N4 N -0.13158(16) 0.6958(4) 0.1088(2)
N5 N -0.10402(15) 0.3334(4) 0.2403(2)
N6 N -0.05072(19) 0.4516(4) 0.2998(2)
N7 N -0.01610(17) 0.3734(4) 0.3859(2)
N8 N -0.04571(14) 0.2057(4) 0.3834(2)
N9 N 0.09415(17) 0.8409(4) 0.0769(2)
S1 S 0.20436(6) 0.57055(15) 0.14656(8)
Co1F Co 0.0000 0.0000 0.5000
Co1F_2 Co 0.0000 2.0000 -0.5000
C1D C 0.08990(19) 1.2927(5) -0.0607(3)
H1D H 0.0833 1.3857 -0.0232
C2D C 0.1832(2) 1.4444(5) -0.1109(3)
H2D H 0.2271 1.4463 -0.0466
H3D H 0.1997 1.4105 -0.1604
C3D C 0.1508(2) 1.6328(5) -0.1338(3)
H4D H 0.1917 1.7202 -0.1089
H5D H 0.1209 1.6529 -0.0986
C4D C 0.10023(19) 1.8139(5) -0.2931(2)
H6D H 0.1313 1.9153 -0.2698
C5D C -0.13978(19) 1.2707(5) -0.1070(3)
N1D N 0.05959(16) 1.1313(4) -0.0737(2)
N2D N 0.0841(3) 1.0407(5) -0.1317(3)
N3D N 0.1279(2) 1.1432(5) -0.1522(3)
N4D N 0.13158(16) 1.3042(4) -0.1088(2)
N5D N 0.10402(15) 1.6666(4) -0.2403(2)
N6D N 0.05072(19) 1.5484(4) -0.2998(2)
N7D N 0.01610(17) 1.6266(4) -0.3859(2)
N8D N 0.04571(14) 1.7943(4) -0.3834(2)
N8F N -0.04571(14) 0.7943(4) -0.1166(2)
N8B N 0.04571(14) 1.2057(4) 0.1166(2)
N9D N -0.09415(17) 1.1591(4) -0.0769(2)
S1D S -0.20436(6) 1.42945(15) -0.14656(8)
loop_
_geom_bond_atom_site_label_1
_geom_bond_atom_site_label_2
_geom_bond_site_symmetry_1
_geom_bond_site_symmetry_2
Co1 N1 1_555 1_555
C1 H1 1_555 1_555
C2 H2 1_555 1_555
H3 C2 1_555 1_555
C3 C2 1_555 1_555
H4 C3 1_555 1_555
H5 C3 1_555 1_555
C4 H6 1_555 1_555
C5 N9 1_555 1_555
N1 C1 1_555 1_555
N2 N1 1_555 1_555
N3 N2 1_555 1_555
N4 C1 1_555 1_555
N5 C3 1_555 1_555
N6 N5 1_555 1_555
N7 N6 1_555 1_555
N8 C4 1_555 1_555
N9 Co1 1_555 1_555
S1 C5 1_555 1_555
Co1F N8 1_555 1_555
Co1F_2 N8D 1_555 1_555
C1D H1D 1_555 1_555
C2D H2D 1_555 1_555
H3D C2D 1_555 1_555
C3D C2D 1_555 1_555
H4D C3D 1_555 1_555
H5D C3D 1_555 1_555
C4D H6D 1_555 1_555
C5D N9D 1_555 1_555
N1D Co1 1_555 1_555
N2D N1D 1_555 1_555
N3D N2D 1_555 1_555
N4D C1D 1_555 1_555
N5D C3D 1_555 1_555
N6D N5D 1_555 1_555
N7D N6D 1_555 1_555
N8D C4D 1_555 1_555
N8F Co1 1_555 1_555
N8B Co1 1_555 1_555
N9D Co1 1_555 1_555
S1D C5D 1_555 1_555
C2 N4 1_555 1_555
C4 N5 1_555 1_555
N3 N4 1_555 1_555
N7 N8 1_555 1_555
C1D N1D 1_555 1_555
C2D N4D 1_555 1_555
C4D N5D 1_555 1_555
N3D N4D 1_555 1_555
N7D N8D 1_555 1_555

#END
