
#######################################################################
#
#                 Cambridge Crystallographic Data Centre
#                                CCDC 
#
#######################################################################
#
# If this CIF has been generated from an entry in the Cambridge 
# Structural Database, then it will include bibliographic, chemical, 
# crystal, experimental, refinement or atomic coordinate data resulting 
# from the CCDC's data processing and validation procedures.
#
#######################################################################

data_SOCZUG
_symmetry_cell_setting           monoclinic
_symmetry_space_group_name_H-M   'P 21/n'
_symmetry_Int_Tables_number      14
_space_group_name_Hall           '-P 2yn'
loop_
_symmetry_equiv_pos_site_id
_symmetry_equiv_pos_as_xyz
1 x,y,z
2 1/2-x,1/2+y,1/2-z
3 -x,-y,-z
4 1/2+x,1/2-y,1/2+z
_cell_length_a                   13.467(2)
_cell_length_b                   10.5968(17)
_cell_length_c                   19.501(3)
_cell_angle_alpha                90
_cell_angle_beta                 95.560(2)
_cell_angle_gamma                90
_cell_volume                     2769.84
loop_
_atom_site_label
_atom_site_type_symbol
_atom_site_fract_x
_atom_site_fract_y
_atom_site_fract_z
C1 C 0.9056(3) 0.2842(4) 0.2205(2)
H1 H 0.8373 0.2692 0.2185
C2 C 0.9558(3) 0.1033(4) 0.1461(2)
H2 H 0.8858 0.0798 0.1423
H3 H 0.9935 0.0350 0.1692
C3 C 0.9886(3) 0.1197(4) 0.07484(19)
H4 H 1.0560 0.1528 0.0783
H5 H 0.9453 0.1801 0.0493
C4 C 0.9851(3) -0.0056(4) 0.03622(19)
H6 H 1.0293 -0.0650 0.0617
H7 H 0.9179 -0.0393 0.0343
C5 C 0.7536(3) 0.2882(4) 0.3673(2)
H8 H 0.7094 0.3011 0.3282
C6 C 0.6745(3) 0.0942(4) 0.4151(2)
H9 H 0.7113 0.0170 0.4261
H10 H 0.6390 0.0842 0.3697
C7 C 0.6003(3) 0.1134(4) 0.4667(2)
H11 H 0.5589 0.1859 0.4535
H12 H 0.6354 0.1305 0.5115
C8 C 0.5340(3) -0.0031(4) 0.4715(2)
H13 H 0.4935 -0.0138 0.4280
H14 H 0.5763 -0.0770 0.4786
C9 C 1.0803(3) 0.6936(4) 0.2944(2)
H15 H 1.1227 0.6691 0.3325
C10 C 1.1961(4) 0.8415(5) 0.2383(2)
H16 H 1.2007 0.8559 0.1896
H17 H 1.2520 0.7887 0.2552
C11 C 1.2053(4) 0.9667(5) 0.2753(3)
H18 H 1.1454 1.0157 0.2631
H19 H 1.2612 1.0129 0.2598
C12 C 1.2208(5) 0.9524(6) 0.3538(3)
H20 H 1.1615 0.9147 0.3697
H21 H 1.2762 0.8954 0.3656
C13 C 1.2416(5) 1.0767(7) 0.3911(4)
H22 H 1.2727 1.0588 0.4370
H23 H 1.2892 1.1240 0.3670
C14 C 1.1546(6) 1.1557(6) 0.3971(4)
H24 H 1.1091 1.1448 0.3558
H25 H 1.1760 1.2431 0.3985
C15 C 1.0991(4) 1.1323(6) 0.4571(3)
H26 H 1.1082 1.0449 0.4712
H27 H 1.0286 1.1456 0.4440
C16 C 1.0818(3) 1.3067(4) 0.5436(2)
H28 H 1.0180 1.3338 0.5276
C17 C 1.1216(3) 0.4904(4) 0.4100(2)
C18 C 0.7012(3) 0.5123(4) 0.2289(2)
N1 N 0.9528(2) 0.3737(3) 0.25590(16)
N2 N 1.0490(3) 0.3614(4) 0.2437(2)
N3 N 1.0598(3) 0.2676(4) 0.2028(2)
N4 N 0.9697(2) 0.2179(3) 0.18802(16)
N5 N 0.8328(2) 0.3560(3) 0.38424(16)
N6 N 0.8753(3) 0.3040(4) 0.44401(18)
N7 N 0.8227(3) 0.2096(4) 0.46168(18)
N8 N 0.7448(2) 0.1984(3) 0.41333(17)
N9 N 0.9869(3) 0.6537(3) 0.27977(18)
N10 N 0.9550(3) 0.7125(4) 0.2213(2)
N11 N 1.0247(3) 0.7837(4) 0.1990(2)
N12 N 1.1035(3) 0.7730(4) 0.24637(19)
N13 N 1.1317(3) 1.2152(4) 0.51622(19)
N14 N 1.2215(3) 1.2042(4) 0.5526(2)
N15 N 1.2233(3) 1.2880(4) 0.60112(19)
N16 N 1.1372(2) 1.3535(3) 0.59740(16)
N17 N 0.7740(3) 0.5256(4) 0.26595(18)
N18 N 1.0375(3) 0.4822(3) 0.39338(17)
S1 S 0.60016(9) 0.49791(14) 0.17735(6)
S2 S 1.24107(10) 0.50358(16) 0.43180(8)
Co1 Co 0.90448(4) 0.50716(5) 0.33103(3)
C1B C 1.0944(3) -0.2842(4) -0.2205(2)
H1B H 1.1627 -0.2692 -0.2185
C2B C 1.0442(3) -0.1033(4) -0.1461(2)
H2B H 1.1142 -0.0798 -0.1423
H3B H 1.0065 -0.0350 -0.1692
C3B C 1.0114(3) -0.1197(4) -0.07484(19)
H4B H 0.9440 -0.1528 -0.0783
H5B H 1.0547 -0.1801 -0.0493
C4B C 1.0149(3) 0.0056(4) -0.03622(19)
H6B H 0.9707 0.0650 -0.0617
H7B H 1.0821 0.0393 -0.0343
C5B C 0.2464(3) -0.2882(4) 0.6327(2)
H8B H 0.2906 -0.3011 0.6718
C6B C 0.3255(3) -0.0942(4) 0.5849(2)
H9B H 0.2887 -0.0170 0.5739
H10B H 0.3610 -0.0842 0.6303
C7B C 0.3997(3) -0.1134(4) 0.5333(2)
H11B H 0.4411 -0.1859 0.5465
H12B H 0.3646 -0.1305 0.4885
C8B C 0.4660(3) 0.0031(4) 0.5285(2)
H13B H 0.5065 0.0138 0.5720
H14B H 0.4237 0.0770 0.5214
C9B C 0.9197(3) 1.3064(4) 0.7056(2)
H15B H 0.8773 1.3309 0.6675
C10B C 0.8039(4) 1.1585(5) 0.7617(2)
H16B H 0.7993 1.1441 0.8104
H17B H 0.7480 1.2113 0.7448
C11B C 0.7947(4) 1.0333(5) 0.7247(3)
H18B H 0.8546 0.9843 0.7369
H19B H 0.7388 0.9871 0.7402
C12B C 0.7792(5) 1.0476(6) 0.6462(3)
H20B H 0.8385 1.0853 0.6303
H21B H 0.7238 1.1046 0.6344
C13B C 0.7584(5) 0.9233(7) 0.6089(4)
H22B H 0.7273 0.9412 0.5630
H23B H 0.7108 0.8760 0.6330
C14B C 0.8454(6) 0.8443(6) 0.6029(4)
H24B H 0.8909 0.8552 0.6442
H25B H 0.8240 0.7569 0.6015
C15B C 0.9009(4) 0.8677(6) 0.5429(3)
H26B H 0.8918 0.9551 0.5288
H27B H 0.9714 0.8544 0.5560
C16B C 0.9182(3) 0.6933(4) 0.4564(2)
H28B H 0.9820 0.6662 0.4724
C17B C 0.8784(3) -0.4904(4) -0.4100(2)
C18B C 1.2988(3) -0.5123(4) -0.2289(2)
N1B N 1.0472(2) -0.3737(3) -0.25590(16)
N2B N 0.9510(3) -0.3614(4) -0.2437(2)
N3B N 0.9402(3) -0.2676(4) -0.2028(2)
N4B N 1.0303(2) -0.2179(3) -0.18802(16)
N5B N 0.1672(2) -0.3560(3) 0.61576(16)
N5B_2 N 1.1672(2) -0.3560(3) -0.38424(16)
N6B N 0.1247(3) -0.3040(4) 0.55599(18)
N7B N 0.1773(3) -0.2096(4) 0.53832(18)
N8B N 0.2552(2) -0.1984(3) 0.58667(17)
N9B N 1.0131(3) 1.3463(3) 0.72023(18)
N9B_2 N 1.0131(3) -0.6537(3) -0.27977(18)
N10B N 1.0450(3) 1.2875(4) 0.7787(2)
N11B N 0.9753(3) 1.2163(4) 0.8010(2)
N12B N 0.8965(3) 1.2270(4) 0.75363(19)
N13B N 0.8683(3) 0.7848(4) 0.48378(19)
N14B N 0.7785(3) 0.7958(4) 0.4474(2)
N15B N 0.7767(3) 0.7120(4) 0.39888(19)
N16B N 0.8628(2) 0.6465(3) 0.40260(16)
N16_2 N 1.1372(2) -0.6465(3) -0.40260(16)
N17B N 1.2260(3) -0.5256(4) -0.26595(18)
N18B N 0.9625(3) -0.4822(3) -0.39338(17)
S1B S 1.39984(9) -0.49791(14) -0.17735(6)
S2B S 0.75893(10) -0.50358(16) -0.43180(8)
Co1B Co 1.09552(4) -0.50716(5) -0.33103(3)
Co1B_2 Co 1.09552(4) 1.49284(5) 0.66897(3)
Co1B_3 Co 0.09552(4) -0.50716(5) 0.66897(3)
loop_
_geom_bond_atom_site_label_1
_geom_bond_atom_site_label_2
_geom_bond_site_symmetry_1
_geom_bond_site_symmetry_2
C1 H1 1_555 1_555
C2 H2 1_555 1_555
H3 C2 1_555 1_555
C3 C2 1_555 1_555
H4 C3 1_555 1_555
H5 C3 1_555 1_555
C4 C3 1_555 1_555
H6 C4 1_555 1_555
H7 C4 1_555 1_555
C5 H8 1_555 1_555
C6 H9 1_555 1_555
H10 C6 1_555 1_555
C7 C6 1_555 1_555
H11 C7 1_555 1_555
H12 C7 1_555 1_555
C8 C7 1_555 1_555
H13 C8 1_555 1_555
H14 C8 1_555 1_555
C9 H15 1_555 1_555
C10 H16 1_555 1_555
H17 C10 1_555 1_555
C11 C10 1_555 1_555
H18 C11 1_555 1_555
H19 C11 1_555 1_555
C12 C11 1_555 1_555
H20 C12 1_555 1_555
H21 C12 1_555 1_555
C13 C12 1_555 1_555
H22 C13 1_555 1_555
H23 C13 1_555 1_555
C14 C13 1_555 1_555
H24 C14 1_555 1_555
H25 C14 1_555 1_555
C15 C14 1_555 1_555
H26 C15 1_555 1_555
H27 C15 1_555 1_555
C16 H28 1_555 1_555
C17 N18 1_555 1_555
C18 N17 1_555 1_555
N1 C1 1_555 1_555
N2 N1 1_555 1_555
N3 N2 1_555 1_555
N4 C1 1_555 1_555
N5 C5 1_555 1_555
N6 N5 1_555 1_555
N7 N6 1_555 1_555
N8 C5 1_555 1_555
N9 C9 1_555 1_555
N10 N9 1_555 1_555
N11 N10 1_555 1_555
N12 C9 1_555 1_555
N13 C15 1_555 1_555
N14 N13 1_555 1_555
N15 N14 1_555 1_555
N16 C16 1_555 1_555
N17 Co1 1_555 1_555
N18 Co1 1_555 1_555
S1 C18 1_555 1_555
S2 C17 1_555 1_555
Co1 N1 1_555 1_555
C1B H1B 1_555 1_555
C2B H2B 1_555 1_555
H3B C2B 1_555 1_555
C3B C2B 1_555 1_555
H4B C3B 1_555 1_555
H5B C3B 1_555 1_555
C4B C4 1_555 1_555
H6B C4B 1_555 1_555
H7B C4B 1_555 1_555
C5B H8B 1_555 1_555
C6B H9B 1_555 1_555
H10B C6B 1_555 1_555
C7B C6B 1_555 1_555
H11B C7B 1_555 1_555
H12B C7B 1_555 1_555
C8B C8 1_555 1_555
H13B C8B 1_555 1_555
H14B C8B 1_555 1_555
C9B H15B 1_555 1_555
C10B H16B 1_555 1_555
H17B C10B 1_555 1_555
C11B C10B 1_555 1_555
H18B C11B 1_555 1_555
H19B C11B 1_555 1_555
C12B C11B 1_555 1_555
H20B C12B 1_555 1_555
H21B C12B 1_555 1_555
C13B C12B 1_555 1_555
H22B C13B 1_555 1_555
H23B C13B 1_555 1_555
C14B C13B 1_555 1_555
H24B C14B 1_555 1_555
H25B C14B 1_555 1_555
C15B C14B 1_555 1_555
H26B C15B 1_555 1_555
H27B C15B 1_555 1_555
C16B H28B 1_555 1_555
C17B N18B 1_555 1_555
C18B N17B 1_555 1_555
N1B C1B 1_555 1_555
N2B N1B 1_555 1_555
N3B N2B 1_555 1_555
N4B C1B 1_555 1_555
N5B C5B 1_555 1_555
N5B_2 Co1B 1_555 1_555
N6B N5B 1_555 1_555
N7B N6B 1_555 1_555
N8B C5B 1_555 1_555
N9B C9B 1_555 1_555
N9B_2 Co1B 1_555 1_555
N10B N9B 1_555 1_555
N11B N10B 1_555 1_555
N12B C9B 1_555 1_555
N13B C15B 1_555 1_555
N14B N13B 1_555 1_555
N15B N14B 1_555 1_555
N16B Co1 1_555 1_555
N16_2 Co1B 1_555 1_555
N17B Co1B 1_555 1_555
N18B Co1B 1_555 1_555
S1B C18B 1_555 1_555
S2B C17B 1_555 1_555
Co1B N1B 1_555 1_555
Co1B_2 N16 1_555 1_555
Co1B_3 N5B 1_555 1_555
C2 N4 1_555 1_555
C6 N8 1_555 1_555
C10 N12 1_555 1_555
C16 N13 1_555 1_555
N3 N4 1_555 1_555
N5 Co1 1_555 1_555
N7 N8 1_555 1_555
N9 Co1 1_555 1_555
N11 N12 1_555 1_555
N15 N16 1_555 1_555
C2B N4B 1_555 1_555
C3B C4B 1_555 1_555
C6B N8B 1_555 1_555
C7B C8B 1_555 1_555
C10B N12B 1_555 1_555
C16B N13B 1_555 1_555
C16B N16B 1_555 1_555
N3B N4B 1_555 1_555
N7B N8B 1_555 1_555
N9B Co1B_2 1_555 1_555
N11B N12B 1_555 1_555
N15B N16B 1_555 1_555

#END
