
#######################################################################
#
#                 Cambridge Crystallographic Data Centre
#                                CCDC 
#
#######################################################################
#
# If this CIF has been generated from an entry in the Cambridge 
# Structural Database, then it will include bibliographic, chemical, 
# crystal, experimental, refinement or atomic coordinate data resulting 
# from the CCDC's data processing and validation procedures.
#
#######################################################################

data_SOCZOZ01
_symmetry_cell_setting           monoclinic
_symmetry_space_group_name_H-M   'P 21/n'
_symmetry_Int_Tables_number      14
_space_group_name_Hall           '-P 2yn'
loop_
_symmetry_equiv_pos_site_id
_symmetry_equiv_pos_as_xyz
1 x,y,z
2 1/2-x,1/2+y,1/2-z
3 -x,-y,-z
4 1/2+x,1/2-y,1/2+z
_cell_length_a                   8.8870(18)
_cell_length_b                   9.1100(18)
_cell_length_c                   15.135(3)
_cell_angle_alpha                90
_cell_angle_beta                 98.08(3)
_cell_angle_gamma                90
_cell_volume                     1213.17
loop_
_atom_site_label
_atom_site_type_symbol
_atom_site_fract_x
_atom_site_fract_y
_atom_site_fract_z
C1 C 0.7316(2) 0.73027(19) 0.47466(11)
C2 C 0.6240(2) 0.8238(2) 0.51903(12)
H1 H 0.5717 0.7613 0.5504
H2 H 0.5552 0.8762 0.4774
H3 H 0.6823 0.8942 0.5576
C3 C 1.1406(2) 0.67218(19) 0.34476(11)
C4 C 1.2978(2) 0.6235(2) 0.38513(13)
H4 H 1.3711 0.6949 0.3722
H5 H 1.3204 0.5304 0.3602
H6 H 1.3019 0.6141 0.4486
C5 C 0.79308(19) 0.2672(2) 0.37568(11)
C6 C 0.8268(2) 0.1432(2) 0.44130(12)
H7 H 0.8734 0.1816 0.4976
H8 H 0.8946 0.0747 0.4191
H9 H 0.7338 0.0942 0.4489
Mn1 Mn 0.80069(3) 0.57044(3) 0.297246(17)
Mn2 Mn 1.0000 0.5000 0.5000
O1 O 0.73256(15) 0.24398(14) 0.29783(8)
O2 O 0.92786(15) 0.44813(14) 0.20842(9)
H10 H 0.8840 0.3800 0.1722
H11 H 0.9970 0.4070 0.2402
O3 O 0.56752(15) 0.50858(14) 0.24585(9)
H12 H 0.4794 0.4721 0.2453
H13 H 0.5658 0.5615 0.1995
O4 O 0.82644(14) 0.39792(14) 0.40295(8)
O5 O 0.71142(15) 0.72029(14) 0.39085(8)
O6 O 1.02798(14) 0.61501(14) 0.37651(8)
O7 O 1.12578(15) 0.76103(15) 0.28189(9)
O8 O 0.83600(15) 0.66469(14) 0.52528(8)
C1B C 1.2684(2) 0.26973(19) 0.52534(11)
C2B C 1.3760(2) 0.1762(2) 0.48097(12)
H1B H 1.4283 0.2387 0.4496
H2B H 1.4448 0.1238 0.5226
H3B H 1.3177 0.1058 0.4424
C3B C 0.8594(2) 0.32782(19) 0.65524(11)
C4B C 0.7022(2) 0.3765(2) 0.61487(13)
H4B H 0.6289 0.3051 0.6278
H5B H 0.6796 0.4696 0.6398
H6B H 0.6981 0.3859 0.5514
C5B C 1.20692(19) 0.7328(2) 0.62432(11)
C6B C 1.1732(2) 0.8568(2) 0.55870(12)
H7B H 1.1266 0.8184 0.5024
H8B H 1.1054 0.9253 0.5809
H9B H 1.2662 0.9058 0.5511
Mn1B Mn 1.19931(3) 0.42956(3) 0.702754(17)
O1B O 1.26744(15) 0.75602(14) 0.70217(8)
O2B O 1.07214(15) 0.55187(14) 0.79158(9)
H10B H 1.1160 0.6200 0.8278
H11B H 1.0030 0.5930 0.7598
O3B O 1.43248(15) 0.49142(14) 0.75415(9)
H12B H 1.5206 0.5279 0.7547
H13B H 1.4342 0.4385 0.8005
O4B O 1.17356(14) 0.60208(14) 0.59705(8)
O5B O 1.28858(15) 0.27971(14) 0.60915(8)
O6B O 0.97202(14) 0.38499(14) 0.62349(8)
O7B O 0.87422(15) 0.23897(15) 0.71811(9)
O8B O 1.16400(15) 0.33531(14) 0.47472(8)
Mn1A Mn 0.69931(3) 0.07044(3) 0.202754(17)
Mn1C Mn 1.30069(3) 0.92956(3) 0.797246(17)
O1A O 0.76744(15) 0.74398(14) 0.20217(8)
O1C O 1.23256(15) 0.25602(14) 0.79783(8)
O9 O 0.12238(15) 0.25320(14) 0.30012(8)
H14 H 0.2042 0.2561 0.2794
H15 H 0.1422 0.2854 0.3489
loop_
_geom_bond_atom_site_label_1
_geom_bond_atom_site_label_2
_geom_bond_site_symmetry_1
_geom_bond_site_symmetry_2
C1 C2 1_555 1_555
C2 H1 1_555 1_555
H2 C2 1_555 1_555
H3 C2 1_555 1_555
C3 C4 1_555 1_555
C4 H4 1_555 1_555
H5 C4 1_555 1_555
H6 C4 1_555 1_555
C5 C6 1_555 1_555
C6 H7 1_555 1_555
H8 C6 1_555 1_555
H9 C6 1_555 1_555
Mn1 O2 1_555 1_555
Mn2 O4 1_555 1_555
O1 C5 1_555 1_555
O2 H10 1_555 1_555
H11 O2 1_555 1_555
O3 Mn1 1_555 1_555
H12 O3 1_555 1_555
H13 O3 1_555 1_555
O4 C5 1_555 1_555
O5 C1 1_555 1_555
O6 C3 1_555 1_555
O7 C3 1_555 1_555
O8 C1 1_555 1_555
O9 H14 1_555 1_555
H15 O9 1_555 1_555
C1B C2B 1_555 1_555
C2B H1B 1_555 1_555
H2B C2B 1_555 1_555
H3B C2B 1_555 1_555
C3B C4B 1_555 1_555
C4B H4B 1_555 1_555
H5B C4B 1_555 1_555
H6B C4B 1_555 1_555
C5B C6B 1_555 1_555
C6B H7B 1_555 1_555
H8B C6B 1_555 1_555
H9B C6B 1_555 1_555
Mn1B O2B 1_555 1_555
O1B C5B 1_555 1_555
O2B H10B 1_555 1_555
H11B O2B 1_555 1_555
O3B Mn1B 1_555 1_555
H12B O3B 1_555 1_555
H13B O3B 1_555 1_555
O4B Mn2 1_555 1_555
O5B C1B 1_555 1_555
O6B Mn2 1_555 1_555
O7B C3B 1_555 1_555
O8B Mn2 1_555 1_555
Mn1A O1 1_555 1_555
Mn1C O1B 1_555 1_555
O1A Mn1 1_555 1_555
O1C Mn1B 1_555 1_555
Mn1 O4 1_555 1_555
Mn1 O5 1_555 1_555
Mn1 O6 1_555 1_555
Mn2 O6 1_555 1_555
Mn2 O8 1_555 1_555
C1B O8B 1_555 1_555
C3B O6B 1_555 1_555
C5B O4B 1_555 1_555
Mn1B O4B 1_555 1_555
Mn1B O5B 1_555 1_555
Mn1B O6B 1_555 1_555

#END
