
#######################################################################
#
#                 Cambridge Crystallographic Data Centre
#                                CCDC 
#
#######################################################################
#
# If this CIF has been generated from an entry in the Cambridge 
# Structural Database, then it will include bibliographic, chemical, 
# crystal, experimental, refinement or atomic coordinate data resulting 
# from the CCDC's data processing and validation procedures.
#
#######################################################################

data_SOCZOA
_symmetry_cell_setting           monoclinic
_symmetry_space_group_name_H-M   'P 21/n'
_symmetry_Int_Tables_number      14
_space_group_name_Hall           '-P 2yn'
loop_
_symmetry_equiv_pos_site_id
_symmetry_equiv_pos_as_xyz
1 x,y,z
2 1/2-x,1/2+y,1/2-z
3 -x,-y,-z
4 1/2+x,1/2-y,1/2+z
_cell_length_a                   6.8262(14)
_cell_length_b                   10.183(2)
_cell_length_c                   19.735(4)
_cell_angle_alpha                90
_cell_angle_beta                 92.97(3)
_cell_angle_gamma                90
_cell_volume                     1369.96
loop_
_atom_site_label
_atom_site_type_symbol
_atom_site_fract_x
_atom_site_fract_y
_atom_site_fract_z
Co1 Co 0.5000 0.5000 0.0000
C1 C 0.2957(3) 0.3634(2) 0.11757(11)
H1 H 0.2514 0.2971 0.0882
C2 C 0.1715(4) 0.2744(2) 0.22682(12)
H2 H 0.2516 0.2641 0.2685
H3 H 0.1646 0.1897 0.2043
C3 C -0.0320(4) 0.3149(3) 0.24407(12)
H4 H -0.1111 0.3281 0.2024
H5 H -0.0912 0.2444 0.2690
C4 C -0.1118(4) 0.5493(3) 0.26978(16)
H6 H -0.1777 0.5708 0.2289
C5 C 0.7022(3) 0.2207(2) -0.01654(11)
H7 H 0.6265 0.2008 -0.0557
C6 C 0.8899(3) 0.0075(2) -0.00319(14)
H8 H 0.8429 -0.0130 -0.0492
H9 H 0.8297 -0.0536 0.0272
C7 C 0.8022(3) 0.6870(2) 0.08065(11)
N1 N 0.3963(3) 0.46590(17) 0.10033(9)
N2 N 0.4310(4) 0.5352(2) 0.15800(12)
N3 N 0.3536(4) 0.4767(2) 0.20836(11)
N4 N 0.2665(3) 0.36835(17) 0.18313(9)
N5 N -0.0344(3) 0.43463(19) 0.28434(9)
N6 N 0.0465(3) 0.4403(2) 0.34715(11)
N7 N 0.0164(4) 0.5584(3) 0.36901(13)
N8 N -0.0833(4) 0.6288(3) 0.32081(15)
N9 N 0.6952(2) 0.33076(17) 0.01746(9)
N10 N 0.8284(3) 0.3187(2) 0.07007(10)
N11 N 0.9125(3) 0.20486(19) 0.06832(10)
N12 N 0.8339(2) 0.14216(16) 0.01367(9)
N13 N 0.7067(3) 0.62816(19) 0.04151(10)
S1 S 0.93288(11) 0.77506(9) 0.13569(3)
Co1_2 Co 1.5000 -0.5000 0.0000
C1B C 0.7043(3) 0.6366(2) -0.11757(11)
H1B H 0.7486 0.7029 -0.0882
C2B C 0.8285(4) 0.7256(2) -0.22682(12)
H2B H 0.7484 0.7359 -0.2685
H3B H 0.8354 0.8103 -0.2043
C3B C 1.0320(4) 0.6851(3) -0.24407(12)
H4B H 1.1111 0.6719 -0.2024
H5B H 1.0912 0.7556 -0.2690
C4B C 1.1118(4) 0.4507(3) -0.26978(16)
H6B H 1.1777 0.4292 -0.2289
C5B C 1.2978(3) -0.2207(2) 0.01654(11)
H7B H 1.3735 -0.2008 0.0557
C6B C 1.1101(3) -0.0075(2) 0.00319(14)
H8B H 1.1571 0.0130 0.0492
H9B H 1.1703 0.0536 -0.0272
C7B C 0.1978(3) 0.3130(2) -0.08065(11)
N1B N 0.6037(3) 0.53410(17) -0.10033(9)
N2B N 0.5690(4) 0.4648(2) -0.15800(12)
N3B N 0.6464(4) 0.5233(2) -0.20836(11)
N4B N 0.7335(3) 0.63165(17) -0.18313(9)
N5B N 1.0344(3) 0.56537(19) -0.28434(9)
N6B N 0.9535(3) 0.5597(2) -0.34715(11)
N7B N 0.9836(4) 0.4416(3) -0.36901(13)
N8B N 1.0833(4) 0.3712(3) -0.32081(15)
N9B N 1.3048(2) -0.33076(17) -0.01746(9)
N9B_2 N 0.3048(2) 0.66924(17) -0.01746(9)
N10B N 1.1716(3) -0.3187(2) -0.07007(10)
N11B N 1.0875(3) -0.20486(19) -0.06832(10)
N12B N 1.1661(2) -0.14216(16) -0.01367(9)
N13B N 0.2933(3) 0.37184(19) -0.04151(10)
S1B S 0.06712(11) 0.22494(9) -0.13569(3)
loop_
_geom_bond_atom_site_label_1
_geom_bond_atom_site_label_2
_geom_bond_site_symmetry_1
_geom_bond_site_symmetry_2
Co1 N1 1_555 1_555
C1 H1 1_555 1_555
C2 H2 1_555 1_555
H3 C2 1_555 1_555
C3 C2 1_555 1_555
H4 C3 1_555 1_555
H5 C3 1_555 1_555
C4 H6 1_555 1_555
C5 H7 1_555 1_555
C6 H8 1_555 1_555
H9 C6 1_555 1_555
C7 N13 1_555 1_555
N1 C1 1_555 1_555
N2 N1 1_555 1_555
N3 N2 1_555 1_555
N4 C1 1_555 1_555
N5 C3 1_555 1_555
N6 N5 1_555 1_555
N7 N6 1_555 1_555
N8 C4 1_555 1_555
N9 Co1 1_555 1_555
N10 N9 1_555 1_555
N11 N10 1_555 1_555
N12 C5 1_555 1_555
N13 Co1 1_555 1_555
S1 C7 1_555 1_555
Co1_2 N9B 1_555 1_555
C1B H1B 1_555 1_555
C2B H2B 1_555 1_555
H3B C2B 1_555 1_555
C3B C2B 1_555 1_555
H4B C3B 1_555 1_555
H5B C3B 1_555 1_555
C4B H6B 1_555 1_555
C5B H7B 1_555 1_555
C6B C6 1_555 1_555
H8B C6B 1_555 1_555
H9B C6B 1_555 1_555
C7B N13B 1_555 1_555
N1B Co1 1_555 1_555
N2B N1B 1_555 1_555
N3B N2B 1_555 1_555
N4B C1B 1_555 1_555
N5B C3B 1_555 1_555
N6B N5B 1_555 1_555
N7B N6B 1_555 1_555
N8B C4B 1_555 1_555
N9B C5B 1_555 1_555
N9B_2 Co1 1_555 1_555
N10B N9B 1_555 1_555
N11B N10B 1_555 1_555
N12B C5B 1_555 1_555
N13B Co1 1_555 1_555
S1B C7B 1_555 1_555
C2 N4 1_555 1_555
C4 N5 1_555 1_555
C5 N9 1_555 1_555
C6 N12 1_555 1_555
N3 N4 1_555 1_555
N7 N8 1_555 1_555
N11 N12 1_555 1_555
C1B N1B 1_555 1_555
C2B N4B 1_555 1_555
C4B N5B 1_555 1_555
C6B N12B 1_555 1_555
N3B N4B 1_555 1_555
N7B N8B 1_555 1_555
N11B N12B 1_555 1_555

#END
