
#######################################################################
#
#                 Cambridge Crystallographic Data Centre
#                                CCDC 
#
#######################################################################
#
# If this CIF has been generated from an entry in the Cambridge 
# Structural Database, then it will include bibliographic, chemical, 
# crystal, experimental, refinement or atomic coordinate data resulting 
# from the CCDC's data processing and validation procedures.
#
#######################################################################

data_SODBOC
_symmetry_cell_setting           monoclinic
_symmetry_space_group_name_H-M   'P 21/c'
_symmetry_Int_Tables_number      14
_space_group_name_Hall           '-P 2ybc'
loop_
_symmetry_equiv_pos_site_id
_symmetry_equiv_pos_as_xyz
1 x,y,z
2 -x,1/2+y,1/2-z
3 -x,-y,-z
4 x,1/2-y,1/2+z
_cell_length_a                   17.972(3)
_cell_length_b                   3.6750(10)
_cell_length_c                   20.347(4)
_cell_angle_alpha                90
_cell_angle_beta                 91.92(2)
_cell_angle_gamma                90
_cell_volume                     1343.11
loop_
_atom_site_label
_atom_site_type_symbol
_atom_site_fract_x
_atom_site_fract_y
_atom_site_fract_z
Ag1 Ag 0.05437(7) -0.3723(6) -0.19948(6)
N1 N 0.0981(7) -0.2546(39) -0.2986(6)
N2 N 0.0491(7) -0.1049(48) -0.3433(6)
C1 C 0.0694(10) -0.0733(51) -0.4040(7)
H1 H 0.0352(10) 0.0268(51) -0.4342(7)
C2 C 0.1377(9) -0.1768(51) -0.4269(8)
H2 H 0.1494(9) -0.1434(51) -0.4707(8)
C3 C 0.1867(9) -0.3285(61) -0.3833(8)
H3 H 0.2329(9) -0.4120(61) -0.3958(8)
C4 C 0.1644(8) -0.3533(58) -0.3188(9)
H4 H 0.1984(8) -0.4455(58) -0.2876(9)
N3 N 0.1396(8) 0.0626(45) -0.0971(7)
O1 O 0.1869(7) 0.1639(50) -0.0552(6)
O2 O 0.1497(7) 0.1293(50) -0.1572(5)
O3 O 0.0838(7) -0.1050(58) -0.0821(7)
N1A N -0.0981(7) -0.7546(39) -0.2014(6)
N2A N -0.0491(7) -0.6049(48) -0.1567(6)
C1A C -0.0694(10) -0.5733(51) -0.0960(7)
H1A H -0.0352(10) -0.4732(51) -0.0658(7)
C2A C -0.1377(9) -0.6768(51) -0.0731(8)
H2A H -0.1494(9) -0.6434(51) -0.0293(8)
C3A C -0.1867(9) -0.8285(61) -0.1167(8)
H3A H -0.2329(9) -0.9120(61) -0.1042(8)
C4A C -0.1644(8) -0.8533(58) -0.1812(9)
H4A H -0.1984(8) -0.9455(58) -0.2124(9)
O2_2 O 0.1497(7) -0.8707(50) -0.1572(5)
Ag1A Ag -0.05437(7) -0.8723(6) -0.30052(6)
Ag1A_2 Ag -0.05437(7) 0.1277(6) -0.30052(6)
Ag1_2 Ag 0.05437(7) 0.6277(6) -0.19948(6)
O2A O -0.1497(7) -0.3707(50) -0.3428(5)
N2_2 N 0.0491(7) -1.1049(48) -0.3433(6)
O2A_2 O -0.1497(7) -1.3707(50) -0.3428(5)
O3A O -0.0838(7) -0.6050(58) -0.4179(7)
N3A N -0.1396(8) -0.4374(45) -0.4029(7)
O1A O -0.1869(7) -0.3361(50) -0.4448(6)
Ag2 Ag 0.55732(7) 0.1296(6) -0.05541(6)
N4 N 0.5989(7) 0.2159(43) 0.0486(6)
N5 N 0.5502(7) 0.1234(48) 0.0948(6)
C5 C 0.5692(9) 0.1641(57) 0.1575(7)
H5 H 0.5364(9) 0.0872(57) 0.1891(7)
C6 C 0.6366(10) 0.3180(65) 0.1779(9)
H6 H 0.6472(10) 0.3579(65) 0.2224(9)
C7 C 0.6855(9) 0.4071(62) 0.1338(8)
H7 H 0.7319(9) 0.5025(62) 0.1460(8)
C8 C 0.6643(8) 0.3512(63) 0.0672(8)
H8 H 0.6977(8) 0.4124(63) 0.0351(8)
N6 N 0.6408(8) 0.5701(45) -0.1520(7)
O4 O 0.6526(7) 0.6324(51) -0.0920(5)
O5 O 0.6848(7) 0.6708(48) -0.1936(6)
O6 O 0.5852(7) 0.3840(51) -0.1697(6)
N4B N 0.4011(7) -0.2159(43) -0.0486(6)
N5B N 0.4498(7) -0.1234(48) -0.0948(6)
C5B C 0.4308(9) -0.1641(57) -0.1575(7)
H5B H 0.4636(9) -0.0872(57) -0.1891(7)
C6B C 0.3634(10) -0.3180(65) -0.1779(9)
H6B H 0.3528(10) -0.3579(65) -0.2224(9)
C7B C 0.3145(9) -0.4071(62) -0.1338(8)
H7B H 0.2681(9) -0.5025(62) -0.1460(8)
C8B C 0.3357(8) -0.3512(63) -0.0672(8)
H8B H 0.3023(8) -0.4124(63) -0.0351(8)
O4_2 O 0.6526(7) -0.3676(51) -0.0920(5)
Ag2B Ag 0.44268(7) -0.1296(6) 0.05541(6)
Ag2_2 Ag 0.55732(7) 1.1296(6) -0.05541(6)
O4B O 0.3474(7) 0.3676(51) 0.0920(5)
N6B N 0.3592(8) -0.5701(45) 0.1520(7)
O4B_2 O 0.3474(7) -0.6324(51) 0.0920(5)
O5B O 0.3152(7) -0.6708(48) 0.1936(6)
O6B O 0.4148(7) -0.3840(51) 0.1697(6)
Ag2B_2 Ag 0.44268(7) -1.1296(6) 0.05541(6)
loop_
_geom_bond_atom_site_label_1
_geom_bond_atom_site_label_2
_geom_bond_site_symmetry_1
_geom_bond_site_symmetry_2
Ag1 N1 1_555 1_555
N1 N2 1_555 1_555
N2 C1 1_555 1_555
C1 H1 1_555 1_555
C2 C1 1_555 1_555
H2 C2 1_555 1_555
C3 C2 1_555 1_555
H3 C3 1_555 1_555
C4 N1 1_555 1_555
H4 C4 1_555 1_555
N3 O1 1_555 1_555
O2 Ag1 1_555 1_555
O3 Ag1 1_555 1_555
Ag2 N4 1_555 1_555
N4 N5 1_555 1_555
N5 C5 1_555 1_555
C5 H5 1_555 1_555
C6 C5 1_555 1_555
H6 C6 1_555 1_555
C7 C6 1_555 1_555
H7 C7 1_555 1_555
C8 N4 1_555 1_555
H8 C8 1_555 1_555
N6 O4 1_555 1_555
O4 Ag2 1_555 1_555
O5 N6 1_555 1_555
O6 Ag2 1_555 1_555
N1A N2A 1_555 1_555
N2A Ag1 1_555 1_555
C1A N2A 1_555 1_555
H1A C1A 1_555 1_555
C2A C1A 1_555 1_555
H2A C2A 1_555 1_555
C3A C2A 1_555 1_555
H3A C3A 1_555 1_555
C4A N1A 1_555 1_555
H4A C4A 1_555 1_555
O2_2 Ag1 1_555 1_555
Ag1A N1A 1_555 1_555
Ag1A_2 N2 1_555 1_555
Ag1_2 O2 1_555 1_555
O2A Ag1A 1_555 1_555
N2_2 Ag1A 1_555 1_555
O2A_2 Ag1A 1_555 1_555
O3A Ag1A 1_555 1_555
N3A O2A 1_555 1_555
O1A N3A 1_555 1_555
N4B N5B 1_555 1_555
N5B Ag2 1_555 1_555
C5B N5B 1_555 1_555
H5B C5B 1_555 1_555
C6B C5B 1_555 1_555
H6B C6B 1_555 1_555
C7B C6B 1_555 1_555
H7B C7B 1_555 1_555
C8B N4B 1_555 1_555
H8B C8B 1_555 1_555
O4_2 Ag2 1_555 1_555
Ag2B N5 1_555 1_555
Ag2_2 O4 1_555 1_555
O4B Ag2B 1_555 1_555
N6B O4B_2 1_555 1_555
O4B_2 Ag2B 1_555 1_555
O5B N6B 1_555 1_555
O6B Ag2B 1_555 1_555
Ag2B_2 O4B_2 1_555 1_555
C3 C4 1_555 1_555
N3 O2 1_555 1_555
N3 O3 1_555 1_555
C7 C8 1_555 1_555
N6 O6 1_555 1_555
C3A C4A 1_555 1_555
Ag1A_2 O2A 1_555 1_555
O3A N3A 1_555 1_555
N4B Ag2B 1_555 1_555
C7B C8B 1_555 1_555
N6B O6B 1_555 1_555

#END
