
#######################################################################
#
#                 Cambridge Crystallographic Data Centre
#                                CCDC 
#
#######################################################################
#
# If this CIF has been generated from an entry in the Cambridge 
# Structural Database, then it will include bibliographic, chemical, 
# crystal, experimental, refinement or atomic coordinate data resulting 
# from the CCDC's data processing and validation procedures.
#
#######################################################################

data_SODCIY
_symmetry_cell_setting           orthorhombic
_symmetry_space_group_name_H-M   'P 21 21 21'
_symmetry_Int_Tables_number      19
_space_group_name_Hall           'P 2ac 2ab'
loop_
_symmetry_equiv_pos_site_id
_symmetry_equiv_pos_as_xyz
1 x,y,z
2 1/2-x,-y,1/2+z
3 -x,1/2+y,1/2-z
4 1/2+x,1/2-y,-z
_cell_length_a                   9.0184(4)
_cell_length_b                   9.9048(6)
_cell_length_c                   10.3237(7)
_cell_angle_alpha                90
_cell_angle_beta                 90
_cell_angle_gamma                90
_cell_volume                     922.169
loop_
_atom_site_label
_atom_site_type_symbol
_atom_site_fract_x
_atom_site_fract_y
_atom_site_fract_z
U1 U 0.40645(3) 0.91047(2) 0.95673(2)
O1 O 0.3339(6) 0.8607(5) 1.1705(5)
O2 O 0.3138(6) 0.7232(6) 1.3455(5)
O3 O 0.4928(6) 0.7500(5) 0.7959(5)
O4 O 0.5218(7) 0.5401(6) 0.7195(5)
O5 O 0.2267(7) 0.8860(6) 0.8962(5)
O6 O 0.5866(6) 0.9299(6) 1.0166(5)
O7 O 0.3157(6) 1.1271(5) 1.0240(5)
H1 H 0.2396 1.1641 0.9750
H2 H 0.3457 1.1945 1.0698
N1 N 0.4106(7) 0.6653(6) 1.0222(6)
N2 N 0.4020(7) 0.3940(7) 1.0904(7)
C1 C 0.3750(8) 0.6300(8) 1.1409(8)
C2 C 0.4481(8) 0.5691(8) 0.9366(7)
C3 C 0.4416(9) 0.4336(8) 0.9724(8)
H3 H 0.4660 0.3683 0.9112
C4 C 0.3701(8) 0.4917(8) 1.1761(8)
H4 H 0.3443 0.4682 1.2603
C5 C 0.3372(8) 0.7450(8) 1.2293(7)
C6 C 0.4907(8) 0.6233(8) 0.8083(8)
U1B U 0.59355(3) 0.41047(2) 0.54327(2)
O4B O 0.4782(7) 1.0401(6) 0.7805(5)
loop_
_geom_bond_atom_site_label_1
_geom_bond_atom_site_label_2
_geom_bond_site_symmetry_1
_geom_bond_site_symmetry_2
U1 O1 1_555 1_555
O1 C5 1_555 1_555
O2 C5 1_555 1_555
O3 U1 1_555 1_555
O4 C6 1_555 1_555
O5 U1 1_555 1_555
O6 U1 1_555 1_555
O7 U1 1_555 1_555
H1 O7 1_555 1_555
H2 O7 1_555 1_555
N1 U1 1_555 1_555
N2 C3 1_555 1_555
C1 N1 1_555 1_555
C2 N1 1_555 1_555
C3 C2 1_555 1_555
H3 C3 1_555 1_555
C4 N2 1_555 1_555
H4 C4 1_555 1_555
C5 C1 1_555 1_555
C6 O3 1_555 1_555
U1B O4 1_555 1_555
O4B U1 1_555 1_555
C1 C4 1_555 1_555
C2 C6 1_555 1_555

#END
