
#######################################################################
#
#                 Cambridge Crystallographic Data Centre
#                                CCDC 
#
#######################################################################
#
# If this CIF has been generated from an entry in the Cambridge 
# Structural Database, then it will include bibliographic, chemical, 
# crystal, experimental, refinement or atomic coordinate data resulting 
# from the CCDC's data processing and validation procedures.
#
#######################################################################

data_SODCAQ
_symmetry_cell_setting           rhombohedral
_symmetry_space_group_name_H-M   'R -3'
_symmetry_Int_Tables_number      148
_space_group_name_Hall           '-R 3'
loop_
_symmetry_equiv_pos_site_id
_symmetry_equiv_pos_as_xyz
1 x,y,z
2 -y,x-y,z
3 -x+y,-x,z
4 1/3+x,2/3+y,2/3+z
5 1/3-y,2/3+x-y,2/3+z
6 1/3-x+y,2/3-x,2/3+z
7 2/3+x,1/3+y,1/3+z
8 2/3-y,1/3+x-y,1/3+z
9 2/3-x+y,1/3-x,1/3+z
10 -x,-y,-z
11 y,-x+y,-z
12 x-y,x,-z
13 2/3-x,1/3-y,1/3-z
14 2/3+y,1/3-x+y,1/3-z
15 2/3+x-y,1/3+x,1/3-z
16 1/3-x,2/3-y,2/3-z
17 1/3+y,2/3-x+y,2/3-z
18 1/3+x-y,2/3+x,2/3-z
_cell_length_a                   33.1619(11)
_cell_length_b                   33.1619(11)
_cell_length_c                   9.0988(5)
_cell_angle_alpha                90
_cell_angle_beta                 90
_cell_angle_gamma                120.00
_cell_volume                     8665.5
loop_
_atom_site_label
_atom_site_type_symbol
_atom_site_fract_x
_atom_site_fract_y
_atom_site_fract_z
Zn1 Zn 0.1667 0.3333 0.3333
C1 C 0.2477(2) 0.3573(3) 0.1229(9)
C2 C 0.2602(3) 0.3397(3) -0.0048(10)
H1 H 0.2905 0.3514 -0.0446
C3 C 0.2205(3) 0.3035(3) -0.0559(10)
H2 H 0.2176 0.2851 -0.1397
C4 C 0.1828(2) 0.2975(3) 0.0399(9)
C5 C 0.1363(3) 0.2612(3) 0.0264(9)
C6 C 0.1014(3) 0.2514(3) 0.1306(9)
C7 C 0.0522(2) 0.2168(3) 0.1123(10)
H3 H 0.0385 0.1961 0.0318
C8 C 0.0301(3) 0.2201(3) 0.2320(9)
H4 H -0.0021 0.2014 0.2531
C9 C 0.0645(3) 0.2572(3) 0.3224(9)
C10 C 0.2791(2) 0.3936(3) 0.2128(10)
N1 N 0.2000(2) 0.3308(2) 0.1454(7)
N2 N 0.1074(2) 0.2750(2) 0.2601(7)
C11 C 0.1235(3) 0.2314(3) -0.1093(10)
C12 C 0.1257(3) 0.2512(3) -0.2450(10)
H5 H 0.1365 0.2837 -0.2509
C13 C 0.1124(3) 0.2247(3) -0.3730(10)
H6 H 0.1137 0.2387 -0.4654
C14 C 0.0974(3) 0.1776(3) -0.3631(11)
C15 C 0.0959(3) 0.1573(3) -0.2306(13)
H7 H 0.0867 0.1252 -0.2262
C16 C 0.1079(3) 0.1840(3) -0.1005(11)
H8 H 0.1055 0.1697 -0.0079
I1 I 0.07828(3) 0.13908(2) -0.55909(9)
C17 C 0.3293(2) 0.4178(3) 0.1699(10)
C18 C 0.3612(3) 0.4085(3) 0.2366(9)
H9 H 0.3510 0.3850 0.3100
C19 C 0.4071(3) 0.4324(3) 0.1985(10)
H10 H 0.4280 0.4253 0.2474
N3 N 0.4238(2) 0.4654(2) 0.0960(8)
C20 C 0.3927(3) 0.4743(3) 0.0271(10)
H11 H 0.4036 0.4973 -0.0479
C21 C 0.3463(3) 0.4514(3) 0.0613(10)
H12 H 0.3257 0.4586 0.0103
Zn1E Zn 0.4999 0.5000 -0.0000
Zn1H Zn -0.1667 0.1666 0.6666
C1O C 0.0856(2) 0.3094(3) 0.5438(9)
C2O C 0.0731(3) 0.3270(3) 0.6715(10)
H1O H 0.0428 0.3153 0.7113
C3O C 0.1128(3) 0.3632(3) 0.7226(10)
H2O H 0.1157 0.3816 0.8064
C4O C 0.1505(2) 0.3692(3) 0.6268(9)
C5O C 0.1970(3) 0.4055(3) 0.6403(9)
C6O C 0.2319(3) 0.4153(3) 0.5361(9)
C7O C 0.2811(2) 0.4499(3) 0.5544(10)
H3O H 0.2948 0.4706 0.6349
C8O C 0.3032(3) 0.4466(3) 0.4347(9)
H4O H 0.3354 0.4653 0.4136
C9O C 0.2688(3) 0.4095(3) 0.3443(9)
C10O C 0.0542(2) 0.2731(3) 0.4539(10)
N1O N 0.1333(2) 0.3359(2) 0.5213(7)
N2O N 0.2259(2) 0.3917(2) 0.4066(7)
C11O C 0.2098(3) 0.4353(3) 0.7760(10)
C12O C 0.2076(3) 0.4155(3) 0.9117(10)
H5O H 0.1968 0.3830 0.9176
C13O C 0.2209(3) 0.4420(3) 1.0397(10)
H6O H 0.2196 0.4280 1.1321
C14O C 0.2359(3) 0.4891(3) 1.0298(11)
C15O C 0.2374(3) 0.5094(3) 0.8973(13)
H7O H 0.2466 0.5415 0.8929
C16O C 0.2254(3) 0.4827(3) 0.7672(11)
H8O H 0.2278 0.4970 0.6746
I1O I 0.25505(3) 0.52759(2) 1.22576(9)
C17O C 0.0040(2) 0.2489(3) 0.4968(10)
C18O C -0.0279(3) 0.2582(3) 0.4301(9)
H9O H -0.0177 0.2817 0.3567
C19O C -0.0738(3) 0.2343(3) 0.4682(10)
H10O H -0.0947 0.2414 0.4193
N3O N -0.0905(2) 0.2013(2) 0.5707(8)
N3G N 0.2013(2) 0.2917(3) 0.4293(8)
N3M N 0.1321(2) 0.3749(3) 0.2373(8)
C20O C -0.0594(3) 0.1924(3) 0.6396(10)
H11O H -0.0703 0.1694 0.7146
C21O C -0.0130(3) 0.2153(3) 0.6054(10)
H12O H 0.0076 0.2081 0.6564
loop_
_geom_bond_atom_site_label_1
_geom_bond_atom_site_label_2
_geom_bond_site_symmetry_1
_geom_bond_site_symmetry_2
Zn1 N1 1_555 1_555
C1 C2 1_555 1_555
C2 H1 1_555 1_555
C3 C2 1_555 1_555
H2 C3 1_555 1_555
C4 C3 1_555 1_555
C5 C4 1_555 1_555
C6 C5 1_555 1_555
C7 C6 1_555 1_555
H3 C7 1_555 1_555
C8 C7 1_555 1_555
H4 C8 1_555 1_555
C9 C8 1_555 1_555
C10 C1 1_555 1_555
N1 C1 1_555 1_555
N2 Zn1 1_555 1_555
C11 C5 1_555 1_555
C12 C11 1_555 1_555
H5 C12 1_555 1_555
C13 C12 1_555 1_555
H6 C13 1_555 1_555
C14 C13 1_555 1_555
C15 C14 1_555 1_555
H7 C15 1_555 1_555
C16 C11 1_555 1_555
H8 C16 1_555 1_555
I1 C14 1_555 1_555
C17 C10 1_555 1_555
C18 C17 1_555 1_555
H9 C18 1_555 1_555
C19 C18 1_555 1_555
H10 C19 1_555 1_555
N3 C19 1_555 1_555
C20 N3 1_555 1_555
H11 C20 1_555 1_555
C21 C17 1_555 1_555
H12 C21 1_555 1_555
Zn1E N3 1_555 1_555
Zn1H N3O 1_555 1_555
C1O C2O 1_555 1_555
C2O H1O 1_555 1_555
C3O C2O 1_555 1_555
H2O C3O 1_555 1_555
C4O C3O 1_555 1_555
C5O C4O 1_555 1_555
C6O C5O 1_555 1_555
C7O C6O 1_555 1_555
H3O C7O 1_555 1_555
C8O C7O 1_555 1_555
H4O C8O 1_555 1_555
C9O C10 1_555 1_555
C10O C9 1_555 1_555
N1O Zn1 1_555 1_555
N2O Zn1 1_555 1_555
C11O C5O 1_555 1_555
C12O C11O 1_555 1_555
H5O C12O 1_555 1_555
C13O C12O 1_555 1_555
H6O C13O 1_555 1_555
C14O C13O 1_555 1_555
C15O C14O 1_555 1_555
H7O C15O 1_555 1_555
C16O C11O 1_555 1_555
H8O C16O 1_555 1_555
I1O C14O 1_555 1_555
C17O C10O 1_555 1_555
C18O C17O 1_555 1_555
H9O C18O 1_555 1_555
C19O C18O 1_555 1_555
H10O C19O 1_555 1_555
N3O C19O 1_555 1_555
N3G Zn1 1_555 1_555
N3M Zn1 1_555 1_555
C20O N3O 1_555 1_555
H11O C20O 1_555 1_555
C21O C17O 1_555 1_555
H12O C21O 1_555 1_555
C4 N1 1_555 1_555
C6 N2 1_555 1_555
C9 N2 1_555 1_555
C15 C16 1_555 1_555
C20 C21 1_555 1_555
C1O C10O 1_555 1_555
C1O N1O 1_555 1_555
C4O N1O 1_555 1_555
C6O N2O 1_555 1_555
C8O C9O 1_555 1_555
C9O N2O 1_555 1_555
C15O C16O 1_555 1_555
C20O C21O 1_555 1_555

#END
