
#######################################################################
#
#                 Cambridge Crystallographic Data Centre
#                                CCDC 
#
#######################################################################
#
# If this CIF has been generated from an entry in the Cambridge 
# Structural Database, then it will include bibliographic, chemical, 
# crystal, experimental, refinement or atomic coordinate data resulting 
# from the CCDC's data processing and validation procedures.
#
#######################################################################

data_SODCUK
_symmetry_cell_setting           triclinic
_symmetry_space_group_name_H-M   'P -1'
_symmetry_Int_Tables_number      2
_space_group_name_Hall           '-P 1'
loop_
_symmetry_equiv_pos_site_id
_symmetry_equiv_pos_as_xyz
1 x,y,z
2 -x,-y,-z
_cell_length_a                   5.5743(4)
_cell_length_b                   6.6476(7)
_cell_length_c                   10.3039(10)
_cell_angle_alpha                76.091(5)
_cell_angle_beta                 87.586(6)
_cell_angle_gamma                80.911(6)
_cell_volume                     365.966
loop_
_atom_site_label
_atom_site_type_symbol
_atom_site_fract_x
_atom_site_fract_y
_atom_site_fract_z
U1 U 1.0000 0.5000 0.5000
Na1 Na 0.7793(4) 1.3441(4) 0.0113(2)
O1 O 0.7470(7) 0.4659(6) 0.4133(4)
O2 O 1.0417(7) 0.8272(6) 0.3448(4)
O3 O 0.9211(7) 1.1459(6) 0.2177(4)
O4 O 0.2225(7) 1.4765(6) 0.2964(3)
O5 O 0.4384(7) 1.3225(6) 0.1502(4)
O6 O 1.1526(7) 1.3645(7) -0.0981(4)
H1 H 1.2824 1.2663 -0.0766
H2 H 1.1206 1.3745 -0.1818
O7 O 0.6179(8) 1.1363(7) -0.1239(4)
H3 H 0.7179 1.1527 -0.1960
H4 H 0.5684 1.0174 -0.1234
N1 N 0.7003(8) 0.8519(7) 0.5132(4)
C1 C 0.6701(10) 1.0037(8) 0.4006(5)
C2 C 0.8914(10) 0.9955(8) 0.3088(5)
C3 C 0.4593(9) 1.1544(7) 0.3859(5)
C4 C 0.3729(9) 1.3307(8) 0.2654(5)
U1_2 U 0.0000 1.5000 0.5000
Na1A Na 0.2207(4) 0.6559(4) 0.9887(2)
Na1A_2 Na 0.2207(4) 1.6559(4) -0.0113(2)
Na1A_3 Na 1.2207(4) 1.6559(4) -0.0113(2)
Na1_2 Na 0.7793(4) 0.3441(4) 1.0113(2)
O1A O 1.2530(7) 0.5341(6) 0.5867(4)
O2A O -0.0417(7) 1.1728(6) 0.6552(4)
O2A_2 O 0.9583(7) 0.1728(6) 0.6552(4)
O3A O 0.0789(7) 0.8541(6) 0.7823(4)
O4A O 0.7775(7) 0.5235(6) 0.7036(3)
O4_2 O 1.2225(7) 0.4765(6) 0.2964(3)
O5A O 0.5616(7) 0.6775(6) 0.8498(4)
O5A_2 O 0.5616(7) 1.6775(6) -0.1502(4)
O5_2 O 0.4384(7) 0.3225(6) 1.1502(4)
O6A O 0.8474(7) 1.6355(7) 0.0981(4)
O6_2 O 0.1526(7) 0.3645(7) 0.9019(4)
O6A_2 O -0.1526(7) 0.6355(7) 1.0981(4)
H1A H 0.7176 1.7337 0.0766
H1_2 H 0.2824 0.2663 0.9234
H1A_2 H -0.2824 0.7337 1.0766
H2A H 0.8794 1.6255 0.1818
H2_2 H 0.1206 0.3745 0.8182
H2A_2 H -0.1206 0.6255 1.1818
O7A O 0.3821(8) 0.8637(7) 1.1239(4)
H3A H 0.2821 0.8473 1.1960
H4A H 0.4316 0.9826 1.1234
N1A N 0.2997(8) 1.1481(7) 0.4868(4)
N1A_2 N 1.2997(8) 0.1481(7) 0.4868(4)
C1A C 0.3299(10) 0.9963(8) 0.5994(5)
C2A C 0.1086(10) 1.0045(8) 0.6912(5)
C3A C 0.5407(9) 0.8456(7) 0.6141(5)
C4A C 0.6271(9) 0.6693(8) 0.7346(5)
loop_
_geom_bond_atom_site_label_1
_geom_bond_atom_site_label_2
_geom_bond_site_symmetry_1
_geom_bond_site_symmetry_2
U1 O1 1_555 1_555
Na1 O3 1_555 1_555
O2 U1 1_555 1_555
O3 C2 1_555 1_555
O4 C4 1_555 1_555
O5 Na1 1_555 1_555
O6 Na1 1_555 1_555
H1 O6 1_555 1_555
H2 O6 1_555 1_555
O7 Na1 1_555 1_555
H3 O7 1_555 1_555
H4 O7 1_555 1_555
N1 U1 1_555 1_555
C1 N1 1_555 1_555
C2 O2 1_555 1_555
C3 C1 1_555 1_555
C4 O5 1_555 1_555
U1_2 O4 1_555 1_555
Na1A O3A 1_555 1_555
Na1A_2 O5 1_555 1_555
Na1A_3 O6 1_555 1_555
Na1_2 O5A 1_555 1_555
O1A U1 1_555 1_555
O2A U1_2 1_555 1_555
O2A_2 U1 1_555 1_555
O3A C2A 1_555 1_555
O4A U1 1_555 1_555
O4_2 U1 1_555 1_555
O5A Na1A 1_555 1_555
O5A_2 Na1 1_555 1_555
O5_2 Na1A 1_555 1_555
O6A Na1 1_555 1_555
O6_2 Na1A 1_555 1_555
O6A_2 Na1A 1_555 1_555
H1A O6A 1_555 1_555
H1_2 O6_2 1_555 1_555
H1A_2 O6A_2 1_555 1_555
H2A O6A 1_555 1_555
H2_2 O6_2 1_555 1_555
H2A_2 O6A_2 1_555 1_555
O7A Na1A 1_555 1_555
H3A O7A 1_555 1_555
H4A O7A 1_555 1_555
N1A C3 1_555 1_555
N1A_2 U1 1_555 1_555
C1A N1A 1_555 1_555
C2A O2A 1_555 1_555
C3A N1 1_555 1_555
C4A O4A 1_555 1_555
C1 C2 1_555 1_555
C3 C4 1_555 1_555
U1_2 N1A 1_555 1_555
Na1A_2 O5A_2 1_555 1_555
Na1A_3 O6A 1_555 1_555
Na1_2 O5_2 1_555 1_555
O5A C4A 1_555 1_555
C1A C2A 1_555 1_555
C1A C3A 1_555 1_555
C3A C4A 1_555 1_555

#END
