
#######################################################################
#
#                 Cambridge Crystallographic Data Centre
#                                CCDC 
#
#######################################################################
#
# If this CIF has been generated from an entry in the Cambridge 
# Structural Database, then it will include bibliographic, chemical, 
# crystal, experimental, refinement or atomic coordinate data resulting 
# from the CCDC's data processing and validation procedures.
#
#######################################################################

data_SODCOE
_symmetry_cell_setting           monoclinic
_symmetry_space_group_name_H-M   'P 21/m'
_symmetry_Int_Tables_number      11
_space_group_name_Hall           '-P 2yb'
loop_
_symmetry_equiv_pos_site_id
_symmetry_equiv_pos_as_xyz
1 x,y,z
2 -x,1/2+y,-z
3 -x,-y,-z
4 x,1/2-y,z
_cell_length_a                   5.8446(3)
_cell_length_b                   19.1888(12)
_cell_length_c                   6.8849(4)
_cell_angle_alpha                90
_cell_angle_beta                 102.164(4)
_cell_angle_gamma                90
_cell_volume                     754.812
loop_
_atom_site_label
_atom_site_type_symbol
_atom_site_fract_x
_atom_site_fract_y
_atom_site_fract_z
U1 U 0.5000 0.5000 0.0000
U2 U 0.67575(5) 0.7500 0.62804(5)
O1 O 0.4554(8) 0.5724(2) 0.2774(6)
O2 O 0.5547(7) 0.6319(2) 0.5615(6)
O3 O 1.2487(8) 0.6002(2) 0.9207(7)
O4 O 0.9885(7) 0.6721(2) 0.7458(7)
O5 O 0.7282(7) 0.5502(2) -0.0579(6)
O6 O 0.6121(12) 0.7500 0.8687(10)
O7 O 0.7394(11) 0.7500 0.3877(9)
O8 O 0.2679(10) 0.7500 0.4774(10)
H1 H 0.1975 0.7157 0.4135
N1 N 0.8072(9) 0.4921(3) 0.3489(8)
C1 C 0.8202(11) 0.5468(3) 0.4767(9)
C2 C 0.5967(10) 0.5889(3) 0.4367(9)
C3 C 1.0230(10) 0.5550(3) 0.6280(9)
C4 C 1.0855(10) 0.6146(3) 0.7755(9)
U1_2 U 1.5000 0.5000 1.0000
U2B U 1.32425(5) 0.2500 0.37196(5)
O1B O 1.5446(8) 0.4276(2) 0.7226(6)
O1B_2 O 0.5446(8) 0.4276(2) -0.2774(6)
O2B O 1.4453(7) 0.3681(2) 0.4385(6)
O2C O 0.5547(7) 0.8681(2) 0.5615(6)
O3B O 0.7513(8) 0.3998(2) 0.0793(7)
O3_2 O 0.2487(8) 0.6002(2) -0.0793(7)
O4B O 1.0115(7) 0.3279(2) 0.2542(7)
O4C O 0.9885(7) 0.8279(2) 0.7458(7)
O5B O 0.2718(7) 0.4498(2) 0.0579(6)
H1C H 0.1975 0.7843 0.4135
N1B N 1.1928(9) 0.5079(3) 0.6511(8)
N1B_2 N 0.1928(9) 0.5079(3) -0.3489(8)
C1B C 1.1798(11) 0.4532(3) 0.5233(9)
C2B C 1.4033(10) 0.4111(3) 0.5633(9)
C3B C 0.9770(10) 0.4450(3) 0.3720(9)
C4B C 0.9145(10) 0.3854(3) 0.2245(9)
O9 O 0.0268(8) 0.6503(3) 0.2449(7)
loop_
_geom_bond_atom_site_label_1
_geom_bond_atom_site_label_2
_geom_bond_site_symmetry_1
_geom_bond_site_symmetry_2
U1 O1 1_555 1_555
U2 O2 1_555 1_555
O1 C2 1_555 1_555
O2 C2 1_555 1_555
O3 C4 1_555 1_555
O4 U2 1_555 1_555
O5 U1 1_555 1_555
O6 U2 1_555 1_555
O7 U2 1_555 1_555
O8 U2 1_555 1_555
H1 O8 1_555 1_555
N1 U1 1_555 1_555
C1 N1 1_555 1_555
C2 C1 1_555 1_555
C3 C1 1_555 1_555
C4 O4 1_555 1_555
U1_2 O3 1_555 1_555
U2B O2B 1_555 1_555
O1B U1_2 1_555 1_555
O1B_2 U1 1_555 1_555
O2B C2B 1_555 1_555
O2C U2 1_555 1_555
O3B U1 1_555 1_555
O3_2 U1 1_555 1_555
O4B U2B 1_555 1_555
O4C U2 1_555 1_555
O5B U1 1_555 1_555
H1C O8 1_555 1_555
N1B C3 1_555 1_555
N1B_2 U1 1_555 1_555
C1B N1B 1_555 1_555
C2B O1B 1_555 1_555
C3B N1 1_555 1_555
C4B O3B 1_555 1_555
C3 C4 1_555 1_555
U1_2 N1B 1_555 1_555
O4B C4B 1_555 1_555
C1B C2B 1_555 1_555
C1B C3B 1_555 1_555
C3B C4B 1_555 1_555

#END
