
#######################################################################
#
#                 Cambridge Crystallographic Data Centre
#                                CCDC 
#
#######################################################################
#
# If this CIF has been generated from an entry in the Cambridge 
# Structural Database, then it will include bibliographic, chemical, 
# crystal, experimental, refinement or atomic coordinate data resulting 
# from the CCDC's data processing and validation procedures.
#
#######################################################################

data_SODDAR
_symmetry_cell_setting           monoclinic
_symmetry_space_group_name_H-M   'P 21/c'
_symmetry_Int_Tables_number      14
_space_group_name_Hall           '-P 2ybc'
loop_
_symmetry_equiv_pos_site_id
_symmetry_equiv_pos_as_xyz
1 x,y,z
2 -x,1/2+y,1/2-z
3 -x,-y,-z
4 x,1/2-y,1/2+z
_cell_length_a                   5.8717(3)
_cell_length_b                   10.7693(3)
_cell_length_c                   20.2364(9)
_cell_angle_alpha                90
_cell_angle_beta                 95.631(2)
_cell_angle_gamma                90
_cell_volume                     1273.46
loop_
_atom_site_label
_atom_site_type_symbol
_atom_site_fract_x
_atom_site_fract_y
_atom_site_fract_z
U1 U 0.0000 0.0000 0.0000
K1 K 0.46380(10) 0.23620(5) -0.11042(3)
O1 O 0.2571(3) 0.18299(17) 0.00759(10)
O2 O 0.3523(3) 0.38148(18) 0.01579(11)
O3 O -0.2714(5) -0.01525(17) 0.08061(13)
O4 O -0.4819(3) 0.0421(2) 0.16186(10)
O5 O -0.3659(3) 0.24990(19) 0.26790(10)
O6 O -0.6482(3) 0.32086(19) 0.19413(10)
H1 H -0.7242 0.3150 0.2283
O7 O -0.0482(4) 0.6263(2) 0.12985(12)
O8 O 0.2181(4) 0.57013(19) 0.06641(11)
H2 H 0.2581 0.5014 0.0574
O9 O 0.1930(3) -0.07932(18) 0.05739(10)
O10 O 0.1104(3) 0.16451(19) -0.21080(10)
H3 H 0.0259 0.0917 -0.2074
H4 H -0.0068 0.2181 -0.2084
N1 N -0.0765(4) 0.1975(2) 0.07646(11)
N2 N -0.1960(4) 0.4008(2) 0.14791(12)
C1 C 0.0301(4) 0.3066(3) 0.07027(13)
C2 C -0.2361(5) 0.1883(3) 0.11870(14)
C3 C -0.2875(4) 0.2902(2) 0.15665(14)
C4 C -0.0382(5) 0.4114(3) 0.10434(14)
C5 C 0.2277(5) 0.2908(3) 0.02752(14)
C6 C -0.3428(4) 0.0615(2) 0.12157(14)
C7 C -0.4411(5) 0.2828(2) 0.21259(15)
C8 C 0.0484(5) 0.5455(3) 0.10066(15)
K1B K -0.46380(10) -0.23620(5) 0.11042(3)
K1C K -0.53620(10) 0.26380(5) 0.38958(3)
K1B_2 K -0.46380(10) 0.76380(5) 0.11042(3)
K1B_3 K 0.53620(10) 0.76380(5) 0.11042(3)
K1B_4 K 0.53620(10) -0.23620(5) 0.11042(3)
K1A K 0.53620(10) -0.26380(5) -0.38958(3)
K1_2 K 0.46380(10) -0.76380(5) -0.11042(3)
K1_3 K -0.53620(10) -0.76380(5) -0.11042(3)
K1_4 K -0.53620(10) 0.23620(5) -0.11042(3)
O1B O -0.2571(3) -0.18299(17) -0.00759(10)
O2B O -0.3523(3) -0.38148(18) -0.01579(11)
O3B O 0.2714(5) 0.01525(17) -0.08061(13)
O4B O 0.4819(3) -0.0421(2) -0.16186(10)
O5B O 0.3659(3) -0.24990(19) -0.26790(10)
O5C O 0.6341(3) 0.25010(19) -0.23210(10)
O5A O -0.6341(3) -0.25010(19) 0.23210(10)
O6B O 0.6482(3) -0.32086(19) -0.19413(10)
H1B H 0.7242 -0.3150 -0.2283
O7B O 0.0482(4) -0.6263(2) -0.12985(12)
O7B_2 O 0.0482(4) 0.3737(2) -0.12985(12)
O7_2 O -0.0482(4) -0.3737(2) 0.12985(12)
O8B O -0.2181(4) -0.57013(19) -0.06641(11)
O8B_2 O 0.7819(4) 0.42987(19) -0.06641(11)
O8_2 O -0.7819(4) -0.42987(19) 0.06641(11)
H2B H -0.2581 -0.5014 -0.0574
H2B_2 H 0.7419 0.4986 -0.0574
H2_2 H -0.7419 -0.4986 0.0574
O9B O -0.1930(3) 0.07932(18) -0.05739(10)
O9B_2 O 0.8070(3) 0.07932(18) -0.05739(10)
O9_2 O -0.8070(3) -0.07932(18) 0.05739(10)
O10B O -0.1104(3) -0.16451(19) 0.21080(10)
H3B H -0.0259 -0.0917 0.2074
H4B H 0.0068 -0.2181 0.2084
N1B N 0.0765(4) -0.1975(2) -0.07646(11)
N2B N 0.1960(4) -0.4008(2) -0.14791(12)
C1B C -0.0301(4) -0.3066(3) -0.07027(13)
C2B C 0.2361(5) -0.1883(3) -0.11870(14)
C3B C 0.2875(4) -0.2902(2) -0.15665(14)
C4B C 0.0382(5) -0.4114(3) -0.10434(14)
C5B C -0.2277(5) -0.2908(3) -0.02752(14)
C6B C 0.3428(4) -0.0615(2) -0.12157(14)
C7B C 0.4411(5) -0.2828(2) -0.21259(15)
C8B C -0.0484(5) -0.5455(3) -0.10066(15)
O11 O -0.1103(3) -0.0571(2) -0.22322(10)
H5 H -0.2400 -0.0535 -0.2071
H6 H -0.1492 -0.0560 -0.2641
loop_
_geom_bond_atom_site_label_1
_geom_bond_atom_site_label_2
_geom_bond_site_symmetry_1
_geom_bond_site_symmetry_2
U1 O1 1_555 1_555
K1 O1 1_555 1_555
O1 C5 1_555 1_555
O2 K1 1_555 1_555
O3 U1 1_555 1_555
O4 C6 1_555 1_555
O5 C7 1_555 1_555
O6 H1 1_555 1_555
O7 C8 1_555 1_555
O8 H2 1_555 1_555
O9 U1 1_555 1_555
O10 K1 1_555 1_555
H3 O10 1_555 1_555
H4 O10 1_555 1_555
O11 H5 1_555 1_555
H6 O11 1_555 1_555
N1 U1 1_555 1_555
N2 C3 1_555 1_555
C1 N1 1_555 1_555
C2 N1 1_555 1_555
C3 C2 1_555 1_555
C4 N2 1_555 1_555
C5 O2 1_555 1_555
C6 O3 1_555 1_555
C7 O6 1_555 1_555
C8 O8 1_555 1_555
K1B O3 1_555 1_555
K1C O5 1_555 1_555
K1B_2 O7 1_555 1_555
K1B_3 O8 1_555 1_555
K1B_4 O9 1_555 1_555
K1A O5B 1_555 1_555
K1_2 O7B 1_555 1_555
K1_3 O8B 1_555 1_555
K1_4 O9B 1_555 1_555
O1B U1 1_555 1_555
O2B K1B 1_555 1_555
O3B U1 1_555 1_555
O4B K1 1_555 1_555
O5B C7B 1_555 1_555
O5C K1 1_555 1_555
O5A K1B 1_555 1_555
O6B H1B 1_555 1_555
O7B C8B 1_555 1_555
O7B_2 K1 1_555 1_555
O7_2 K1B 1_555 1_555
O8B H2B 1_555 1_555
O8B_2 K1 1_555 1_555
O8_2 K1B 1_555 1_555
H2B_2 O8B_2 1_555 1_555
H2_2 O8_2 1_555 1_555
O9B U1 1_555 1_555
O9B_2 K1 1_555 1_555
O9_2 K1B 1_555 1_555
O10B K1B 1_555 1_555
H3B O10B 1_555 1_555
H4B O10B 1_555 1_555
N1B U1 1_555 1_555
N2B C3B 1_555 1_555
C1B N1B 1_555 1_555
C2B N1B 1_555 1_555
C3B C2B 1_555 1_555
C4B N2B 1_555 1_555
C5B O1B 1_555 1_555
C6B O3B 1_555 1_555
C7B O6B 1_555 1_555
C8B O8B 1_555 1_555
K1 O3B 1_555 1_555
O4 K1B 1_555 1_555
C1 C4 1_555 1_555
C1 C5 1_555 1_555
C2 C6 1_555 1_555
C3 C7 1_555 1_555
C4 C8 1_555 1_555
K1B O1B 1_555 1_555
O2B C5B 1_555 1_555
O4B C6B 1_555 1_555
C1B C4B 1_555 1_555
C1B C5B 1_555 1_555
C2B C6B 1_555 1_555
C3B C7B 1_555 1_555
C4B C8B 1_555 1_555

#END
