
#######################################################################
#
#                 Cambridge Crystallographic Data Centre
#                                CCDC 
#
#######################################################################
#
# If this CIF has been generated from an entry in the Cambridge 
# Structural Database, then it will include bibliographic, chemical, 
# crystal, experimental, refinement or atomic coordinate data resulting 
# from the CCDC's data processing and validation procedures.
#
#######################################################################

data_SODDEV
_symmetry_cell_setting           triclinic
_symmetry_space_group_name_H-M   'P -1'
_symmetry_Int_Tables_number      2
_space_group_name_Hall           '-P 1'
loop_
_symmetry_equiv_pos_site_id
_symmetry_equiv_pos_as_xyz
1 x,y,z
2 -x,-y,-z
_cell_length_a                   8.0501(5)
_cell_length_b                   8.7608(6)
_cell_length_c                   10.3486(5)
_cell_angle_alpha                109.559(4)
_cell_angle_beta                 107.331(4)
_cell_angle_gamma                90.071(3)
_cell_volume                     652.353
loop_
_atom_site_label
_atom_site_type_symbol
_atom_site_fract_x
_atom_site_fract_y
_atom_site_fract_z
U1 U 0.5000 0.5000 0.5000
Rb1 Rb 0.56068(10) 0.76738(9) 0.98828(7)
O1 O 0.4242(6) 0.7212(5) 0.6853(5)
O2 O 0.2933(6) 0.9384(5) 0.7743(5)
O3 O 0.3729(6) 0.4786(5) 0.2455(4)
O4 O 0.2879(6) 0.5741(5) 0.0635(5)
O5 O 0.2770(6) 0.9465(6) 0.0793(5)
O6 O 0.0125(6) 0.8217(5) 0.0404(5)
H1 H 0.0077 0.8094 -0.0562
O7 O 0.3607(6) 1.2357(5) 0.7277(5)
O8 O 0.0807(6) 1.2129(5) 0.5899(5)
H2 H 0.0889 1.3137 0.6705
O9 O 0.3051(6) 0.3857(5) 0.4755(5)
N1 N 0.3401(6) 0.7437(6) 0.4346(5)
N2 N 0.2090(6) 1.0117(6) 0.3708(5)
C1 C 0.3180(7) 0.8755(7) 0.5388(6)
C2 C 0.2937(7) 0.7418(7) 0.2995(6)
C3 C 0.2262(7) 0.8773(7) 0.2685(6)
C4 C 0.2549(7) 1.0106(7) 0.5071(6)
C5 C 0.3487(8) 0.8464(7) 0.6798(6)
C6 C 0.3186(8) 0.5861(7) 0.1916(6)
C7 C 0.1752(8) 0.8845(7) 0.1177(6)
C8 C 0.2369(8) 1.1658(7) 0.6215(6)
Rb1A Rb 0.43932(10) 0.23262(9) 0.01172(7)
Rb1A_2 Rb 0.43932(10) 1.23262(9) 1.01172(7)
Rb1_2 Rb 0.56068(10) 0.76738(9) -0.01172(7)
Rb1A_3 Rb 0.43932(10) 1.23262(9) 0.01172(7)
Rb1_3 Rb -0.43932(10) 0.76738(9) -0.01172(7)
Rb1_4 Rb 0.56068(10) -0.23262(9) -0.01172(7)
Rb1A_4 Rb 0.43932(10) 0.23262(9) 1.01172(7)
Rb1_5 Rb 0.56068(10) -0.23262(9) 0.98828(7)
Rb1A_5 Rb 1.43932(10) 0.23262(9) 1.01172(7)
O1A O 0.5758(6) 0.2788(5) 0.3147(5)
O2A O 0.7067(6) 0.0616(5) 0.2257(5)
O2A_2 O 0.7067(6) 1.0616(5) 1.2257(5)
O2_2 O 0.2933(6) -0.0616(5) -0.2257(5)
O3A O 0.6271(6) 0.5214(5) 0.7545(4)
O4A O 0.7121(6) 0.4259(5) 0.9365(5)
O4_2 O 0.2879(6) 0.5741(5) 1.0635(5)
O4A_2 O 0.7121(6) 0.4259(5) -0.0635(5)
O5A O 0.7230(6) 0.0535(6) 0.9207(5)
O5_2 O 0.2770(6) 0.9465(6) 1.0793(5)
O5A_2 O 0.7230(6) 1.0535(6) 0.9207(5)
O5_3 O 0.2770(6) -0.0535(6) 0.0793(5)
O5A_3 O 0.7230(6) 0.0535(6) -0.0793(5)
O6A O 0.9875(6) 0.1783(5) 0.9596(5)
O6_2 O 1.0125(6) 0.8217(5) 1.0404(5)
O6A_2 O -0.0125(6) 0.1783(5) -0.0404(5)
H1A H 0.9923 0.1906 1.0562
H1_2 H 1.0077 0.8094 0.9438
H1A_2 H -0.0077 0.1906 0.0562
O7A O 0.6393(6) -0.2357(5) 0.2723(5)
O7A_2 O 0.6393(6) 0.7643(5) 1.2723(5)
O7_2 O 0.3607(6) 0.2357(5) -0.2723(5)
O8A O 0.9193(6) -0.2129(5) 0.4101(5)
H2A H 0.9111 -0.3137 0.3295
O9A O 0.6949(6) 0.6143(5) 0.5245(5)
N1A N 0.6599(6) 0.2563(6) 0.5654(5)
N2A N 0.7910(6) -0.0117(6) 0.6292(5)
C1A C 0.6820(7) 0.1245(7) 0.4612(6)
C2A C 0.7063(7) 0.2582(7) 0.7005(6)
C3A C 0.7738(7) 0.1227(7) 0.7315(6)
C4A C 0.7451(7) -0.0106(7) 0.4929(6)
C5A C 0.6513(8) 0.1536(7) 0.3202(6)
C6A C 0.6814(8) 0.4139(7) 0.8084(6)
C7A C 0.8248(8) 0.1155(7) 0.8823(6)
C8A C 0.7631(8) -0.1658(7) 0.3785(6)
O10 O 0.0483(6) 1.4685(5) 0.7845(5)
H3 H 0.1255 1.4976 0.8741
H4 H 0.0211 1.5543 0.7683
O11 O 0.0003(6) 0.7819(5) -0.2224(5)
H5 H 0.0861 0.8434 -0.2192
H6 H -0.0911 0.7958 -0.2970
loop_
_geom_bond_atom_site_label_1
_geom_bond_atom_site_label_2
_geom_bond_site_symmetry_1
_geom_bond_site_symmetry_2
U1 O1 1_555 1_555
Rb1 O1 1_555 1_555
O1 C5 1_555 1_555
O2 Rb1 1_555 1_555
O3 U1 1_555 1_555
O4 C6 1_555 1_555
O5 C7 1_555 1_555
O6 H1 1_555 1_555
O7 C8 1_555 1_555
O8 H2 1_555 1_555
O9 U1 1_555 1_555
O10 H3 1_555 1_555
H4 O10 1_555 1_555
N1 U1 1_555 1_555
N2 C3 1_555 1_555
C1 N1 1_555 1_555
C2 N1 1_555 1_555
C3 C2 1_555 1_555
C4 N2 1_555 1_555
C5 O2 1_555 1_555
C6 O3 1_555 1_555
C7 O6 1_555 1_555
C8 O8 1_555 1_555
O11 H5 1_555 1_555
H6 O11 1_555 1_555
Rb1A O3 1_555 1_555
Rb1A_2 O2 1_555 1_555
Rb1_2 O4 1_555 1_555
Rb1A_3 O5 1_555 1_555
Rb1_3 O6 1_555 1_555
Rb1_4 O2A 1_555 1_555
Rb1A_4 O4A 1_555 1_555
Rb1_5 O5A 1_555 1_555
Rb1A_5 O6A 1_555 1_555
O1A U1 1_555 1_555
O2A Rb1A 1_555 1_555
O2A_2 Rb1 1_555 1_555
O2_2 Rb1A 1_555 1_555
O3A U1 1_555 1_555
O4A Rb1 1_555 1_555
O4_2 Rb1 1_555 1_555
O4A_2 Rb1A 1_555 1_555
O5A Rb1A_4 1_555 1_555
O5_2 Rb1 1_555 1_555
O5A_2 Rb1 1_555 1_555
O5_3 Rb1A 1_555 1_555
O5A_3 Rb1A 1_555 1_555
O6A H1A 1_555 1_555
O6_2 Rb1 1_555 1_555
O6A_2 Rb1A 1_555 1_555
H1_2 O6_2 1_555 1_555
H1A_2 O6A_2 1_555 1_555
O7A Rb1_4 1_555 1_555
O7A_2 Rb1 1_555 1_555
O7_2 Rb1A 1_555 1_555
O8A H2A 1_555 1_555
O9A U1 1_555 1_555
N1A U1 1_555 1_555
N2A C3A 1_555 1_555
C1A N1A 1_555 1_555
C2A N1A 1_555 1_555
C3A C2A 1_555 1_555
C4A N2A 1_555 1_555
C5A O1A 1_555 1_555
C6A O3A 1_555 1_555
C7A O5A 1_555 1_555
C8A O7A 1_555 1_555
Rb1 O3A 1_555 1_555
O4 Rb1A 1_555 1_555
O5 Rb1_2 1_555 1_555
O7 Rb1A_2 1_555 1_555
C1 C4 1_555 1_555
C1 C5 1_555 1_555
C2 C6 1_555 1_555
C3 C7 1_555 1_555
C4 C8 1_555 1_555
Rb1A O1A 1_555 1_555
Rb1A_2 O2A_2 1_555 1_555
Rb1A_2 O5_2 1_555 1_555
Rb1A_2 O5A_2 1_555 1_555
Rb1_2 O4A_2 1_555 1_555
Rb1_4 O2_2 1_555 1_555
Rb1_4 O5_3 1_555 1_555
Rb1_4 O5A_3 1_555 1_555
Rb1A_4 O4_2 1_555 1_555
O2A C5A 1_555 1_555
O4A C6A 1_555 1_555
O6A C7A 1_555 1_555
O8A C8A 1_555 1_555
C1A C4A 1_555 1_555
C1A C5A 1_555 1_555
C2A C6A 1_555 1_555
C3A C7A 1_555 1_555
C4A C8A 1_555 1_555

#END
