
#######################################################################
#
#                 Cambridge Crystallographic Data Centre
#                                CCDC 
#
#######################################################################
#
# If this CIF has been generated from an entry in the Cambridge 
# Structural Database, then it will include bibliographic, chemical, 
# crystal, experimental, refinement or atomic coordinate data resulting 
# from the CCDC's data processing and validation procedures.
#
#######################################################################

data_SODHUO
_symmetry_cell_setting           monoclinic
_symmetry_space_group_name_H-M   'C 2/m'
_symmetry_Int_Tables_number      12
_space_group_name_Hall           '-C 2y'
loop_
_symmetry_equiv_pos_site_id
_symmetry_equiv_pos_as_xyz
1 x,y,z
2 1/2+x,1/2+y,z
3 -x,y,-z
4 1/2-x,1/2+y,-z
5 -x,-y,-z
6 1/2-x,1/2-y,-z
7 x,-y,z
8 1/2+x,1/2-y,z
_cell_length_a                   10.184(2)
_cell_length_b                   10.455(3)
_cell_length_c                   7.155(1)
_cell_angle_alpha                90
_cell_angle_beta                 118.68(1)
_cell_angle_gamma                90
_cell_volume                     668.355
loop_
_atom_site_label
_atom_site_type_symbol
_atom_site_fract_x
_atom_site_fract_y
_atom_site_fract_z
Fe1 Fe 0.0000 0.0000 0.0000
S1 S 0.3546(1) 0.0000 0.7351(1)
N1 N 0.1560(1) 0.1540(1) 0.0067(2)
N2 N 0.1092(3) 0.0000 0.3299(3)
C1 C 0.2108(3) 0.0000 0.5013(4)
C2 C 0.2935(2) 0.1741(2) 0.1665(3)
C3 C 0.1131(2) 0.2319(2) -0.1601(3)
N1D N -0.1560(1) -0.1540(1) -0.0067(2)
N1B N -0.1560(1) 0.1540(1) -0.0067(2)
N1F N 0.1560(1) -0.1540(1) 0.0067(2)
N2B N -0.1092(3) 0.0000 -0.3299(3)
C3E C 0.3869(2) 0.2681(2) 0.1601(3)
C2E C 0.2065(2) 0.3259(2) -0.1665(3)
C2D C -0.2935(2) -0.1741(2) -0.1665(3)
C3D C -0.1131(2) -0.2319(2) 0.1601(3)
C2B C -0.2935(2) 0.1741(2) -0.1665(3)
C3B C -0.1131(2) 0.2319(2) 0.1601(3)
C2F C 0.2935(2) -0.1741(2) 0.1665(3)
C3F C 0.1131(2) -0.2319(2) -0.1601(3)
C1B C -0.2108(3) 0.0000 -0.5013(4)
N1E N 0.3440(1) 0.3460(1) -0.0067(2)
C3A C -0.3869(2) -0.2681(2) -0.1601(3)
C2A C -0.2065(2) -0.3259(2) 0.1665(3)
C3G C -0.3869(2) 0.2681(2) -0.1601(3)
C2G C -0.2065(2) 0.3259(2) 0.1665(3)
C3C C 0.3869(2) -0.2681(2) 0.1601(3)
C2C C 0.2065(2) -0.3259(2) -0.1665(3)
S1B S -0.3546(1) 0.0000 -0.7351(1)
Fe1A Fe 0.5000 0.5000 0.0000
N1A N -0.3440(1) -0.3460(1) 0.0067(2)
N1G N -0.3440(1) 0.3460(1) 0.0067(2)
N1C N 0.3440(1) -0.3460(1) -0.0067(2)
N1A_2 N 0.6560(1) 0.6540(1) 0.0067(2)
N1C_2 N 0.3440(1) 0.6540(1) -0.0067(2)
N1G_2 N 0.6560(1) 0.3460(1) 0.0067(2)
N2A N 0.6092(3) 0.5000 0.3299(3)
N2C N 0.3908(3) 0.5000 -0.3299(3)
Fe1A_2 Fe -0.5000 -0.5000 0.0000
Fe1A_3 Fe -0.5000 0.5000 0.0000
Fe1A_4 Fe 0.5000 -0.5000 0.0000
C1A C 0.7108(3) 0.5000 0.5013(4)
C1C C 0.2892(3) 0.5000 -0.5013(4)
S1A S 0.8546(1) 0.5000 0.7351(1)
S1C S 0.1454(1) 0.5000 -0.7351(1)
loop_
_geom_bond_atom_site_label_1
_geom_bond_atom_site_label_2
_geom_bond_site_symmetry_1
_geom_bond_site_symmetry_2
Fe1 N1 1_555 1_555
S1 C1 1_555 1_555
N1 C2 1_555 1_555
N2 Fe1 1_555 1_555
C1 N2 1_555 1_555
C2 C3E 1_555 1_555
C3 N1 1_555 1_555
N1D Fe1 1_555 1_555
N1B Fe1 1_555 1_555
N1F Fe1 1_555 1_555
N2B Fe1 1_555 1_555
C3E N1E 1_555 1_555
C2E C3 1_555 1_555
C2D N1D 1_555 1_555
C3D N1D 1_555 1_555
C2B N1B 1_555 1_555
C3B N1B 1_555 1_555
C2F N1F 1_555 1_555
C3F N1F 1_555 1_555
C1B N2B 1_555 1_555
N1E C2E 1_555 1_555
C3A C2D 1_555 1_555
C2A C3D 1_555 1_555
C3G C2B 1_555 1_555
C2G C3B 1_555 1_555
C3C C2F 1_555 1_555
C2C C3F 1_555 1_555
S1B C1B 1_555 1_555
Fe1A N1E 1_555 1_555
N1A C3A 1_555 1_555
N1G C3G 1_555 1_555
N1C C3C 1_555 1_555
N1A_2 Fe1A 1_555 1_555
N1C_2 Fe1A 1_555 1_555
N1G_2 Fe1A 1_555 1_555
N2A Fe1A 1_555 1_555
N2C Fe1A 1_555 1_555
Fe1A_2 N1A 1_555 1_555
Fe1A_3 N1G 1_555 1_555
Fe1A_4 N1C 1_555 1_555
C1A N2A 1_555 1_555
C1C N2C 1_555 1_555
S1A C1A 1_555 1_555
S1C C1C 1_555 1_555
C2A N1A 1_555 1_555
C2G N1G 1_555 1_555
C2C N1C 1_555 1_555

#END
