
#######################################################################
#
#                 Cambridge Crystallographic Data Centre
#                                CCDC 
#
#######################################################################
#
# If this CIF has been generated from an entry in the Cambridge 
# Structural Database, then it will include bibliographic, chemical, 
# crystal, experimental, refinement or atomic coordinate data resulting 
# from the CCDC's data processing and validation procedures.
#
#######################################################################

data_SODLII
_symmetry_cell_setting           monoclinic
_symmetry_space_group_name_H-M   'P 21/c'
_symmetry_Int_Tables_number      14
_space_group_name_Hall           '-P 2ybc'
loop_
_symmetry_equiv_pos_site_id
_symmetry_equiv_pos_as_xyz
1 x,y,z
2 -x,1/2+y,1/2-z
3 -x,-y,-z
4 x,1/2-y,1/2+z
_cell_length_a                   15.430(2)
_cell_length_b                   7.1128(10)
_cell_length_c                   30.505(4)
_cell_angle_alpha                90
_cell_angle_beta                 98.682(8)
_cell_angle_gamma                90
_cell_volume                     3309.58
loop_
_atom_site_label
_atom_site_type_symbol
_atom_site_fract_x
_atom_site_fract_y
_atom_site_fract_z
V1 V 0.31421(3) 0.50616(6) 0.419472(15)
O1 O 0.22169(13) 0.6833(3) 0.41094(6)
O2 O 0.36688(13) 0.2759(3) 0.39947(6)
O3 O 0.27466(14) 0.3941(3) 0.45887(6)
O4 O 0.40053(14) 0.6258(3) 0.44121(7)
N1 N 0.30898(15) 0.5391(3) 0.34910(7)
N2 N 0.35430(15) 0.4004(3) 0.32924(7)
C1 C 0.20533(18) 0.8290(4) 0.38309(9)
C2 C 0.15969(19) 0.9826(4) 0.39728(10)
H1 H 0.1411 0.9785 0.4256
C3 C 0.14130(19) 1.1395(4) 0.37095(10)
H2 H 0.1109 1.2428 0.3812
C4 C 0.1675(2) 1.1457(4) 0.32929(10)
H3 H 0.1557 1.2537 0.3111
C5 C 0.21059(19) 0.9950(4) 0.31479(10)
H4 H 0.2270 1.0002 0.2860
C6 C 0.23163(18) 0.8326(4) 0.34069(9)
C7 C 0.27789(18) 0.6772(4) 0.32321(9)
C8 C 0.2910(2) 0.6825(4) 0.27542(9)
H5 H 0.3326 0.7825 0.2712
H6 H 0.2347 0.7072 0.2567
H7 H 0.3141 0.5613 0.2672
C9 C 0.38241(18) 0.2728(4) 0.35834(9)
C10 C 0.43278(18) 0.1128(4) 0.34391(9)
C11 C 0.45522(19) 0.1110(4) 0.30116(9)
H8 H 0.4378 0.2122 0.2815
C12 C 0.5025(2) -0.0370(4) 0.28745(10)
H9 H 0.5179 -0.0363 0.2584
C13 C 0.5278(2) -0.1865(4) 0.31567(10)
H10 H 0.5604 -0.2879 0.3061
C14 C 0.50511(19) -0.1869(4) 0.35796(10)
H11 H 0.5214 -0.2898 0.3773
C15 C 0.45868(19) -0.0376(4) 0.37204(10)
H12 H 0.4444 -0.0378 0.4013
V2 V 0.15908(3) 0.09752(6) 0.566620(14)
N3 N 0.19496(15) 0.1316(3) 0.63745(7)
N4 N 0.16121(15) -0.0046(3) 0.66347(7)
O5 O 0.26326(13) 0.2350(3) 0.56633(6)
O6 O 0.11633(13) -0.1270(3) 0.59407(6)
O7 O 0.16170(13) -0.0148(3) 0.51938(6)
O8 O 0.07911(13) 0.2468(3) 0.55854(6)
C16 C 0.28867(18) 0.3913(4) 0.58953(9)
C17 C 0.3348(2) 0.5273(4) 0.56900(9)
H13 H 0.3476 0.5054 0.5399
C18 C 0.3619(2) 0.6925(4) 0.59053(10)
H14 H 0.3934 0.7828 0.5763
C19 C 0.3431(2) 0.7274(4) 0.63297(10)
H15 H 0.3597 0.8432 0.6474
C20 C 0.30033(19) 0.5924(4) 0.65391(9)
H16 H 0.2892 0.6158 0.6832
C21 C 0.27242(18) 0.4203(4) 0.63340(9)
C22 C 0.23259(18) 0.2766(4) 0.65813(9)
C23 C 0.2344(2) 0.3007(4) 0.70726(9)
H17 H 0.1908 0.3948 0.7126
H18 H 0.2928 0.3425 0.7209
H19 H 0.2207 0.1804 0.7203
C24 C 0.12070(18) -0.1309(4) 0.63748(9)
C25 C 0.07765(18) -0.2914(4) 0.65664(9)
C26 C 0.06005(19) -0.2855(4) 0.70019(9)
H20 H 0.0784 -0.1805 0.7185
C27 C 0.0157(2) -0.4331(4) 0.71673(10)
H21 H 0.0040 -0.4286 0.7464
C28 C -0.0115(2) -0.5874(4) 0.69023(10)
H22 H -0.0430 -0.6866 0.7015
C29 C 0.00748(19) -0.5958(4) 0.64716(9)
H23 H -0.0099 -0.7021 0.6291
C30 C 0.05176(18) -0.4488(4) 0.63066(9)
H24 H 0.0647 -0.4553 0.6012
Cs1 Cs 0.334800(12) 0.01514(2) 0.485145(6)
Cs2 Cs 0.123036(12) -0.41337(2) 0.492030(6)
O9 O 0.50006(15) 0.2458(3) 0.48336(7)
H25 H 0.472(2) 0.324(3) 0.4663(8)
H26 H 0.529(2) 0.299(4) 0.5056(7)
O10 O 0.03509(14) -0.7693(3) 0.46180(7)
H27 H -0.0043(16) -0.825(4) 0.4442(9)
H28 H 0.0660(18) -0.848(3) 0.4780(9)
O1_2 O 0.22169(13) -0.3167(3) 0.41094(6)
O3_2 O 0.27466(14) -0.6059(3) 0.45887(6)
O4_2 O 0.40053(14) -0.3742(3) 0.44121(7)
O8_2 O 0.07911(13) -0.7532(3) 0.55854(6)
O8B O -0.07911(13) -0.2468(3) 0.44146(6)
Cs1_2 Cs 0.334800(12) 1.01514(2) 0.485145(6)
Cs1B Cs 0.665200(12) -0.01514(2) 0.514855(6)
Cs2_2 Cs 0.123036(12) 0.58663(2) 0.492030(6)
Cs2B Cs -0.123036(12) -0.58663(2) 0.507970(6)
Cs2B_2 Cs -0.123036(12) 0.41337(2) 0.507970(6)
O9B O 0.49994(15) -0.2458(3) 0.51664(7)
O10B O -0.03509(14) -0.2307(3) 0.53820(7)
loop_
_geom_bond_atom_site_label_1
_geom_bond_atom_site_label_2
_geom_bond_site_symmetry_1
_geom_bond_site_symmetry_2
V1 O1 1_555 1_555
O1 C1 1_555 1_555
O2 V1 1_555 1_555
O3 V1 1_555 1_555
O4 V1 1_555 1_555
N1 V1 1_555 1_555
N2 N1 1_555 1_555
C1 C2 1_555 1_555
C2 H1 1_555 1_555
C3 C2 1_555 1_555
H2 C3 1_555 1_555
C4 C3 1_555 1_555
H3 C4 1_555 1_555
C5 C4 1_555 1_555
H4 C5 1_555 1_555
C6 C1 1_555 1_555
C7 N1 1_555 1_555
C8 C7 1_555 1_555
H5 C8 1_555 1_555
H6 C8 1_555 1_555
H7 C8 1_555 1_555
C9 O2 1_555 1_555
C10 C9 1_555 1_555
C11 C10 1_555 1_555
H8 C11 1_555 1_555
C12 C11 1_555 1_555
H9 C12 1_555 1_555
C13 C12 1_555 1_555
H10 C13 1_555 1_555
C14 C13 1_555 1_555
H11 C14 1_555 1_555
C15 C10 1_555 1_555
H12 C15 1_555 1_555
V2 N3 1_555 1_555
N3 N4 1_555 1_555
N4 C24 1_555 1_555
O5 V2 1_555 1_555
O6 V2 1_555 1_555
O7 V2 1_555 1_555
O8 V2 1_555 1_555
C16 O5 1_555 1_555
C17 C16 1_555 1_555
H13 C17 1_555 1_555
C18 C17 1_555 1_555
H14 C18 1_555 1_555
C19 C18 1_555 1_555
H15 C19 1_555 1_555
C20 C19 1_555 1_555
H16 C20 1_555 1_555
C21 C16 1_555 1_555
C22 N3 1_555 1_555
C23 C22 1_555 1_555
H17 C23 1_555 1_555
H18 C23 1_555 1_555
H19 C23 1_555 1_555
C24 O6 1_555 1_555
C25 C24 1_555 1_555
C26 C25 1_555 1_555
H20 C26 1_555 1_555
C27 C26 1_555 1_555
H21 C27 1_555 1_555
C28 C27 1_555 1_555
H22 C28 1_555 1_555
C29 C28 1_555 1_555
H23 C29 1_555 1_555
C30 C25 1_555 1_555
H24 C30 1_555 1_555
Cs1 O2 1_555 1_555
Cs2 O7 1_555 1_555
O9 Cs1 1_555 1_555
H25 O9 1_555 1_555
H26 O9 1_555 1_555
O10 Cs2 1_555 1_555
H27 O10 1_555 1_555
H28 O10 1_555 1_555
O1_2 Cs1 1_555 1_555
O3_2 Cs2 1_555 1_555
O4_2 Cs1 1_555 1_555
O8_2 Cs2 1_555 1_555
O8B Cs2 1_555 1_555
Cs1_2 O1 1_555 1_555
Cs1B O9 1_555 1_555
Cs2_2 O1 1_555 1_555
Cs2B O10 1_555 1_555
Cs2B_2 O8 1_555 1_555
O9B Cs1 1_555 1_555
O10B Cs2 1_555 1_555
O3 Cs1 1_555 1_555
O3 Cs2_2 1_555 1_555
O4 Cs1_2 1_555 1_555
N2 C9 1_555 1_555
C5 C6 1_555 1_555
C6 C7 1_555 1_555
C14 C15 1_555 1_555
O5 Cs1 1_555 1_555
O7 Cs1 1_555 1_555
O8 Cs2_2 1_555 1_555
C20 C21 1_555 1_555
C21 C22 1_555 1_555
C29 C30 1_555 1_555
Cs2 O1_2 1_555 1_555
O8_2 Cs2B 1_555 1_555
O8B Cs2B 1_555 1_555
Cs1B O9B 1_555 1_555
Cs2B O10B 1_555 1_555

#END
