
#######################################################################
#
#                 Cambridge Crystallographic Data Centre
#                                CCDC 
#
#######################################################################
#
# If this CIF has been generated from an entry in the Cambridge 
# Structural Database, then it will include bibliographic, chemical, 
# crystal, experimental, refinement or atomic coordinate data resulting 
# from the CCDC's data processing and validation procedures.
#
#######################################################################

data_SODLUT
_symmetry_cell_setting           orthorhombic
_symmetry_space_group_name_H-M   'P b c n'
_symmetry_Int_Tables_number      60
_space_group_name_Hall           '-P 2n 2ab'
loop_
_symmetry_equiv_pos_site_id
_symmetry_equiv_pos_as_xyz
1 x,y,z
2 1/2-x,1/2-y,1/2+z
3 -x,y,1/2-z
4 1/2+x,1/2-y,-z
5 -x,-y,-z
6 1/2+x,1/2+y,1/2-z
7 x,-y,1/2+z
8 1/2-x,1/2+y,z
_cell_length_a                   16.316(6)
_cell_length_b                   8.094(3)
_cell_length_c                   23.421(8)
_cell_angle_alpha                90
_cell_angle_beta                 90
_cell_angle_gamma                90
_cell_volume                     3093.02
loop_
_atom_site_label
_atom_site_type_symbol
_atom_site_fract_x
_atom_site_fract_y
_atom_site_fract_z
Ni1 Ni 0.227867(17) 0.24507(3) 0.104493(12)
O1 O 0.11688(10) 0.3010(2) 0.13219(7)
O2 O -0.01031(12) 0.3501(3) 0.15555(11)
O3 O 0.21020(9) -0.00261(19) 0.09863(7)
O4 O 0.15011(10) -0.23486(18) 0.07738(7)
N1 N 0.27208(12) 0.2020(2) 0.18747(8)
N2 N 0.36570(13) 0.0891(3) 0.35002(9)
H1 H 0.4094(13) 0.031(3) 0.3473(12)
N3 N 0.30899(12) 0.2043(2) 0.52013(8)
C1 C 0.22732(16) 0.2289(4) 0.23419(11)
H2 H 0.1751 0.2730 0.2294
C2 C 0.25290(18) 0.1960(4) 0.28900(11)
H3 H 0.2184 0.2162 0.3198
C3 C 0.33122(15) 0.1321(3) 0.29779(10)
C4 C 0.37650(15) 0.0978(3) 0.24913(10)
H4 H 0.4281 0.0499 0.2525
C5 C 0.34601(15) 0.1339(3) 0.19603(10)
H5 H 0.3782 0.1099 0.1643
C6 C 0.36950(14) 0.1001(3) 0.50543(10)
H6 H 0.3995 0.0500 0.5344
C7 C 0.38935(15) 0.0637(3) 0.44990(10)
H7 H 0.4325 -0.0079 0.4421
C8 C 0.34502(14) 0.1339(3) 0.40490(9)
C9 C 0.28428(15) 0.2466(3) 0.42029(11)
H8 H 0.2543 0.3015 0.3923
C10 C 0.26903(16) 0.2759(3) 0.47723(11)
H9 H 0.2279 0.3510 0.4863
C11 C 0.04314(15) 0.2581(3) 0.13604(10)
C12 C 0.01633(15) 0.0824(3) 0.11746(13)
C13 C 0.06675(14) 0.0060(3) 0.06833(11)
H10 H 0.0319 -0.0727 0.0487
H11 H 0.0792 0.0935 0.0414
C14 C 0.14616(13) -0.0806(3) 0.08262(9)
C15 C -0.07244(18) 0.0934(5) 0.0947(2)
H12 H -0.1070 0.1416 0.1234
H13 H -0.0919 -0.0153 0.0856
H14 H -0.0735 0.1610 0.0611
C16 C 0.0200(3) -0.0285(5) 0.17014(17)
H15 H -0.0116 0.0201 0.2004
H16 H 0.0759 -0.0402 0.1822
H17 H -0.0020 -0.1353 0.1610
Ni1G Ni 0.272133(17) -0.25493(3) 0.104493(12)
Ni1A Ni 0.272133(17) 0.25493(3) 0.604493(12)
O3G O 0.28980(9) 0.49739(19) 0.09863(7)
O4G O 0.34989(10) 0.26514(18) 0.07738(7)
N3A N 0.19101(12) 0.2957(2) 0.02013(8)
loop_
_geom_bond_atom_site_label_1
_geom_bond_atom_site_label_2
_geom_bond_site_symmetry_1
_geom_bond_site_symmetry_2
Ni1 O1 1_555 1_555
O1 C11 1_555 1_555
O2 C11 1_555 1_555
O3 Ni1 1_555 1_555
O4 C14 1_555 1_555
N1 Ni1 1_555 1_555
N2 H1 1_555 1_555
N3 C6 1_555 1_555
C1 N1 1_555 1_555
H2 C1 1_555 1_555
C2 C1 1_555 1_555
H3 C2 1_555 1_555
C3 N2 1_555 1_555
C4 C3 1_555 1_555
H4 C4 1_555 1_555
C5 N1 1_555 1_555
H5 C5 1_555 1_555
C6 H6 1_555 1_555
C7 C6 1_555 1_555
H7 C7 1_555 1_555
C8 N2 1_555 1_555
C9 C8 1_555 1_555
H8 C9 1_555 1_555
C10 N3 1_555 1_555
H9 C10 1_555 1_555
C11 C12 1_555 1_555
C12 C13 1_555 1_555
C13 H10 1_555 1_555
H11 C13 1_555 1_555
C14 O3 1_555 1_555
C15 C12 1_555 1_555
H12 C15 1_555 1_555
H13 C15 1_555 1_555
H14 C15 1_555 1_555
C16 C12 1_555 1_555
H15 C16 1_555 1_555
H16 C16 1_555 1_555
H17 C16 1_555 1_555
Ni1G O3 1_555 1_555
Ni1A N3 1_555 1_555
O3G Ni1 1_555 1_555
O4G Ni1 1_555 1_555
N3A Ni1 1_555 1_555
O4 Ni1G 1_555 1_555
C2 C3 1_555 1_555
C4 C5 1_555 1_555
C7 C8 1_555 1_555
C9 C10 1_555 1_555
C13 C14 1_555 1_555

#END
