
#######################################################################
#
#                 Cambridge Crystallographic Data Centre
#                                CCDC 
#
#######################################################################
#
# If this CIF has been generated from an entry in the Cambridge 
# Structural Database, then it will include bibliographic, chemical, 
# crystal, experimental, refinement or atomic coordinate data resulting 
# from the CCDC's data processing and validation procedures.
#
#######################################################################

data_SODLOO
_symmetry_cell_setting           orthorhombic
_symmetry_space_group_name_H-M   'P b c a'
_symmetry_Int_Tables_number      61
_space_group_name_Hall           '-P 2ac 2ab'
loop_
_symmetry_equiv_pos_site_id
_symmetry_equiv_pos_as_xyz
1 x,y,z
2 1/2-x,-y,1/2+z
3 -x,1/2+y,1/2-z
4 1/2+x,1/2-y,-z
5 -x,-y,-z
6 1/2+x,y,1/2-z
7 x,1/2-y,1/2+z
8 1/2-x,1/2+y,z
_cell_length_a                   11.6880(4)
_cell_length_b                   8.2858(2)
_cell_length_c                   34.9484(11)
_cell_angle_alpha                90
_cell_angle_beta                 90
_cell_angle_gamma                90
_cell_volume                     3384.56
loop_
_atom_site_label
_atom_site_type_symbol
_atom_site_fract_x
_atom_site_fract_y
_atom_site_fract_z
V1 V 0.48516(3) 0.20419(5) 0.123035(11)
O1 O 0.56527(14) 0.0731(2) 0.08452(5)
O2 O 0.47696(14) 0.3955(2) 0.15249(5)
O3 O 0.42947(15) 0.0673(2) 0.15027(5)
O4 O 0.38958(14) 0.2621(2) 0.09175(4)
N1 N 0.8444(2) -0.1797(3) -0.00590(6)
N2 N 0.73864(16) 0.1497(2) 0.10956(5)
N3 N 0.66497(16) 0.2287(2) 0.13541(5)
C1 C 0.9027(2) -0.1188(3) 0.02332(8)
H1 H 0.9816 -0.1332 0.0236
C2 C 0.8537(2) -0.0355(3) 0.05344(7)
H2 H 0.8988 0.0069 0.0729
C3 C 0.7355(2) -0.0165(3) 0.05391(6)
C4 C 0.6735(2) -0.0814(3) 0.02387(7)
H3 H 0.5942 -0.0724 0.0233
C5 C 0.7309(3) -0.1598(3) -0.00530(7)
H4 H 0.6883 -0.2008 -0.0256
C6 C 0.67704(19) 0.0729(3) 0.08490(6)
C7 C 0.71566(19) 0.3072(3) 0.16305(6)
C8 C 0.8432(2) 0.3128(3) 0.16622(7)
H5 H 0.8767 0.2812 0.1423
H6 H 0.8679 0.2403 0.1860
H7 H 0.8669 0.4207 0.1724
C9 C 0.6460(2) 0.3906(3) 0.19168(6)
C10 C 0.6948(2) 0.4396(3) 0.22655(7)
H8 H 0.7713 0.4159 0.2313
C11 C 0.6337(3) 0.5208(3) 0.25368(7)
H9 H 0.6686 0.5514 0.2765
C12 C 0.5198(3) 0.5574(3) 0.24723(8)
H10 H 0.4778 0.6126 0.2657
C13 C 0.4696(2) 0.5121(3) 0.21366(7)
H11 H 0.3930 0.5370 0.2095
C14 C 0.5303(2) 0.4290(3) 0.18534(7)
K1 K 0.20850(5) 0.04886(7) 0.110415(19)
O5 O 0.1106(2) 0.3228(3) 0.07737(6)
H12 H 0.051(2) 0.378(5) 0.0818(9)
H13 H 0.112(3) 0.293(5) 0.0545(4)
O6 O 0.2029(3) 0.2865(4) 0.16658(8)
H14 H 0.216(3) 0.304(6) 0.1903(5)
H15 H 0.1297(11) 0.291(6) 0.1635(11)
O2G O 0.02304(14) -0.1045(2) 0.15249(5)
O4G O 0.11042(14) -0.2379(2) 0.09175(4)
K1G K 0.29150(5) 0.54886(7) 0.110415(19)
O5G O 0.3894(2) -0.1772(3) 0.07737(6)
O6G O 0.2971(3) -0.2135(4) 0.16658(8)
loop_
_geom_bond_atom_site_label_1
_geom_bond_atom_site_label_2
_geom_bond_site_symmetry_1
_geom_bond_site_symmetry_2
V1 O1 1_555 1_555
O1 C6 1_555 1_555
O2 V1 1_555 1_555
O3 V1 1_555 1_555
O4 V1 1_555 1_555
N1 C1 1_555 1_555
N2 N3 1_555 1_555
N3 V1 1_555 1_555
C1 H1 1_555 1_555
C2 C1 1_555 1_555
H2 C2 1_555 1_555
C3 C2 1_555 1_555
C4 C3 1_555 1_555
H3 C4 1_555 1_555
C5 N1 1_555 1_555
H4 C5 1_555 1_555
C6 N2 1_555 1_555
C7 N3 1_555 1_555
C8 C7 1_555 1_555
H5 C8 1_555 1_555
H6 C8 1_555 1_555
H7 C8 1_555 1_555
C9 C7 1_555 1_555
C10 C9 1_555 1_555
H8 C10 1_555 1_555
C11 C10 1_555 1_555
H9 C11 1_555 1_555
C12 C11 1_555 1_555
H10 C12 1_555 1_555
C13 C12 1_555 1_555
H11 C13 1_555 1_555
C14 O2 1_555 1_555
K1 O3 1_555 1_555
O5 K1 1_555 1_555
H12 O5 1_555 1_555
H13 O5 1_555 1_555
O6 K1 1_555 1_555
H14 O6 1_555 1_555
H15 O6 1_555 1_555
O2G K1 1_555 1_555
O4G K1 1_555 1_555
K1G O2 1_555 1_555
O5G K1 1_555 1_555
O6G K1 1_555 1_555
O4 K1 1_555 1_555
O4 K1G 1_555 1_555
C3 C6 1_555 1_555
C4 C5 1_555 1_555
C9 C14 1_555 1_555
C13 C14 1_555 1_555
O5 K1G 1_555 1_555
O6 K1G 1_555 1_555

#END
