
#######################################################################
#
#                 Cambridge Crystallographic Data Centre
#                                CCDC 
#
#######################################################################
#
# If this CIF has been generated from an entry in the Cambridge 
# Structural Database, then it will include bibliographic, chemical, 
# crystal, experimental, refinement or atomic coordinate data resulting 
# from the CCDC's data processing and validation procedures.
#
#######################################################################

data_SODNUV
_symmetry_cell_setting           monoclinic
_symmetry_space_group_name_H-M   'P 21/c'
_symmetry_Int_Tables_number      14
_space_group_name_Hall           '-P 2ybc'
loop_
_symmetry_equiv_pos_site_id
_symmetry_equiv_pos_as_xyz
1 x,y,z
2 -x,1/2+y,1/2-z
3 -x,-y,-z
4 x,1/2-y,1/2+z
_cell_length_a                   6.7056(3)
_cell_length_b                   18.3989(10)
_cell_length_c                   27.4530(17)
_cell_angle_alpha                90
_cell_angle_beta                 92.523(4)
_cell_angle_gamma                90
_cell_volume                     3383.75
loop_
_atom_site_label
_atom_site_type_symbol
_atom_site_fract_x
_atom_site_fract_y
_atom_site_fract_z
U1 U 0.44700(3) 0.059591(14) 0.107774(9)
U2 U 0.50997(3) 0.021806(13) 0.385724(9)
O1 O 0.1940(6) 0.0318(3) 0.10336(18)
O2 O 0.7009(6) 0.0877(3) 0.11119(17)
O3 O 0.2507(6) 0.0036(2) 0.38039(17)
O4 O 0.7688(6) 0.0399(2) 0.39103(17)
O5 O 0.4030(6) 0.1105(3) 0.18352(17)
O6 O 0.3084(6) 0.1469(3) 0.25587(17)
O7 O 0.4510(6) 0.1435(2) 0.37013(17)
O8 O 0.3611(7) 0.2549(3) 0.3461(2)
O9 O 0.4761(6) 0.4649(2) 0.34050(17)
O10 O 0.3480(6) 0.4378(3) 0.26738(18)
O11 O 0.4328(6) 0.4097(2) 0.14718(16)
O12 O 0.3295(7) 0.3106(3) 0.1856(2)
O13 O 0.5222(7) -0.0449(3) 0.05585(17)
O14 O 0.5543(7) -0.0863(3) -0.02034(17)
O15 O 0.3335(8) 0.1812(3) 0.08920(19)
H1 H 0.4091 0.2193 0.1003
H2 H 0.2463 0.1996 0.0668
O16 O 0.4683(7) 0.0785(2) 0.46494(17)
O17 O 0.4628(7) 0.0634(2) 0.54568(16)
O18 O 0.5138(6) 0.0385(2) 0.29660(16)
H3 H 0.4501 0.0753 0.2784
H4 H 0.5559 0.0087 0.2722
N1 N -0.0514(7) 0.2024(3) 0.2171(2)
H5 H -0.0088 0.2346 0.2431
N2 N -0.0187(8) 0.2200(3) 0.3231(2)
N3 N -0.0022(7) 0.3803(3) 0.3066(2)
H6 H 0.0565 0.3558 0.2840
N4 N -0.0363(7) 0.3591(3) 0.1999(2)
C1 C -0.1435(10) 0.1497(4) 0.2500(3)
H7 H -0.0509 0.1102 0.2572
H8 H -0.2627 0.1293 0.2341
C2 C -0.1978(9) 0.1865(4) 0.2974(3)
H9 H -0.2969 0.2239 0.2903
H10 H -0.2561 0.1510 0.3187
C3 C -0.0838(10) 0.2758(4) 0.3605(2)
H11 H -0.1906 0.2553 0.3789
H12 H 0.0275 0.2862 0.3831
C4 C -0.1548(9) 0.3454(4) 0.3367(3)
H13 H -0.2730 0.3353 0.3162
H14 H -0.1924 0.3792 0.3619
C5 C -0.0981(10) 0.4345(4) 0.2737(3)
H15 H 0.0004 0.4702 0.2648
H16 H -0.2013 0.4597 0.2908
C6 C -0.1904(9) 0.3998(4) 0.2276(2)
H17 H -0.2953 0.3666 0.2363
H18 H -0.2500 0.4373 0.2068
C7 C -0.1370(9) 0.3079(4) 0.1631(3)
H19 H -0.2482 0.3327 0.1465
H20 H -0.0428 0.2944 0.1389
C8 C -0.2117(9) 0.2405(4) 0.1875(3)
H21 H -0.3188 0.2536 0.2084
H22 H -0.2660 0.2074 0.1627
C9 C 0.0862(9) 0.1664(4) 0.1852(3)
H23 H 0.1199 0.1998 0.1595
H24 H 0.0194 0.1249 0.1701
C10 C 0.2771(9) 0.1408(4) 0.2114(3)
C11 C 0.1105(9) 0.1636(4) 0.3472(3)
H25 H 0.1101 0.1203 0.3270
H26 H 0.0572 0.1507 0.3783
C12 C 0.3221(9) 0.1906(4) 0.3552(2)
C13 C 0.1549(9) 0.4139(4) 0.3375(2)
H27 H 0.1977 0.3790 0.3623
H28 H 0.0978 0.4550 0.3540
C14 C 0.3366(9) 0.4398(3) 0.3123(3)
C15 C 0.1030(9) 0.4091(4) 0.1743(3)
H29 H 0.1217 0.4536 0.1929
H30 H 0.0457 0.4216 0.1424
C16 C 0.3015(10) 0.3719(4) 0.1691(3)
C17 C 0.5221(9) -0.0383(4) 0.0100(3)
C18 C 0.4799(10) 0.0410(4) 0.5031(3)
U1A U 0.55300(3) -0.440409(14) 0.392226(9)
U1A_2 U 0.55300(3) 0.559591(14) 0.392226(9)
U1B U 0.55300(3) -0.059591(14) -0.107774(9)
U2A U 0.49003(3) -0.478194(13) 0.114276(9)
U2A_2 U 0.49003(3) 0.521806(13) 0.114276(9)
U2B U 0.49003(3) -0.021806(13) 0.614276(9)
O1A O 0.8060(6) -0.4682(3) 0.39664(18)
O2A O 0.2991(6) -0.4123(3) 0.38881(17)
O3A O 0.7493(6) -0.4964(2) 0.11961(17)
O4A O 0.2312(6) -0.4601(2) 0.10897(17)
O5A O 0.5970(6) -0.3895(3) 0.31648(17)
O6A O 0.6916(6) -0.3531(3) 0.24413(17)
O7A O 0.5490(6) -0.3565(2) 0.12987(17)
O8A O 0.6389(7) -0.2451(3) 0.1539(2)
O9A O 0.5239(6) -0.0351(2) 0.15950(17)
O9_2 O 0.4761(6) -0.5351(2) 0.34050(17)
O10A O 0.6520(6) -0.0622(3) 0.23262(18)
O11A O 0.5672(6) -0.0903(2) 0.35282(16)
O11_2 O 0.4328(6) -0.5903(2) 0.14718(16)
O12A O 0.6705(7) -0.1894(3) 0.3144(2)
O13B O 0.4778(7) 0.0449(3) -0.05585(17)
O13A O 0.4778(7) -0.5449(3) 0.44415(17)
O14B O 0.4457(7) 0.0863(3) 0.02034(17)
O14C O 0.5543(7) -0.4137(3) 0.47966(17)
O15A O 0.6665(8) -0.3188(3) 0.41080(19)
H1A H 0.5909 -0.2807 0.3997
H2A H 0.7537 -0.3004 0.4332
O16B O 0.5317(7) -0.0785(2) 0.53506(17)
O16A O 0.5317(7) -0.4215(2) 0.03506(17)
O17B O 0.5372(7) -0.0634(2) 0.45432(16)
O17C O 0.4628(7) -0.5634(2) 0.04568(16)
O18A O 0.4862(6) -0.4615(2) 0.20340(16)
H3A H 0.5499 -0.4247 0.2216
H4A H 0.4441 -0.4913 0.2278
N1A N 1.0514(7) -0.2976(3) 0.2829(2)
H5A H 1.0088 -0.2654 0.2569
N2A N 1.0187(8) -0.2800(3) 0.1769(2)
N3A N 1.0022(7) -0.1197(3) 0.1934(2)
H6A H 0.9435 -0.1442 0.2160
N4A N 1.0363(7) -0.1409(3) 0.3001(2)
C1A C 1.1435(10) -0.3503(4) 0.2500(3)
H7A H 1.0509 -0.3898 0.2428
H8A H 1.2627 -0.3707 0.2659
C2A C 1.1978(9) -0.3135(4) 0.2026(3)
H9A H 1.2969 -0.2761 0.2097
H10A H 1.2561 -0.3490 0.1813
C3A C 1.0838(10) -0.2242(4) 0.1395(2)
H11A H 1.1906 -0.2447 0.1211
H12A H 0.9725 -0.2138 0.1169
C4A C 1.1548(9) -0.1546(4) 0.1633(3)
H13A H 1.2730 -0.1647 0.1838
H14A H 1.1924 -0.1208 0.1381
C5A C 1.0981(10) -0.0655(4) 0.2263(3)
H15A H 0.9996 -0.0298 0.2352
H16A H 1.2013 -0.0403 0.2092
C6A C 1.1904(9) -0.1002(4) 0.2724(2)
H17A H 1.2953 -0.1334 0.2637
H18A H 1.2500 -0.0627 0.2932
C7A C 1.1370(9) -0.1921(4) 0.3369(3)
H19A H 1.2482 -0.1673 0.3535
H20A H 1.0428 -0.2056 0.3611
C8A C 1.2117(9) -0.2595(4) 0.3125(3)
H21A H 1.3188 -0.2464 0.2916
H22A H 1.2660 -0.2926 0.3373
C9A C 0.9138(9) -0.3336(4) 0.3148(3)
H23A H 0.8801 -0.3002 0.3405
H24A H 0.9806 -0.3751 0.3299
C10A C 0.7229(9) -0.3592(4) 0.2886(3)
C11A C 0.8895(9) -0.3364(4) 0.1528(3)
H25A H 0.8899 -0.3797 0.1730
H26A H 0.9428 -0.3493 0.1217
C12A C 0.6779(9) -0.3094(4) 0.1448(2)
C13A C 0.8451(9) -0.0861(4) 0.1625(2)
H27A H 0.8023 -0.1210 0.1377
H28A H 0.9022 -0.0450 0.1460
C14A C 0.6634(9) -0.0602(3) 0.1877(3)
C15A C 0.8970(9) -0.0909(4) 0.3257(3)
H29A H 0.8783 -0.0464 0.3071
H30A H 0.9543 -0.0784 0.3576
C16A C 0.6985(10) -0.1281(4) 0.3309(3)
C17B C 0.4779(9) 0.0383(4) -0.0100(3)
C18B C 0.5201(10) -0.0410(4) 0.4969(3)
O19 O 0.5757(13) 0.2864(4) 0.0637(4)
O20 O 0.9709(16) 0.1362(8) 0.0376(5)
O21 O 0.5158(10) 0.3011(4) 0.4357(3)
O22 O -0.067(2) 0.1467(8) -0.0350(5)
O23 O 0.7969(16) 0.2501(7) -0.0087(4)
O24 O 0.202(2) 0.2093(8) 0.4669(6)
O27 O 0.990(3) 0.3616(13) 0.0445(8)
O28 O 0.0000 0.0000 0.5000
O25? O 0.044(2) 0.1441(10) 0.4695(7)
O26? O -0.0636(17) 0.0095(8) 0.0086(5)
loop_
_geom_bond_atom_site_label_1
_geom_bond_atom_site_label_2
_geom_bond_site_symmetry_1
_geom_bond_site_symmetry_2
U1 O1 1_555 1_555
U2 O3 1_555 1_555
O2 U1 1_555 1_555
O4 U2 1_555 1_555
O5 U1 1_555 1_555
O6 C10 1_555 1_555
O7 U2 1_555 1_555
O8 C12 1_555 1_555
O9 C14 1_555 1_555
O10 C14 1_555 1_555
O11 C16 1_555 1_555
O12 C16 1_555 1_555
O13 U1 1_555 1_555
O14 C17 1_555 1_555
O15 U1 1_555 1_555
H1 O15 1_555 1_555
H2 O15 1_555 1_555
O16 U2 1_555 1_555
O17 C18 1_555 1_555
O18 U2 1_555 1_555
H3 O18 1_555 1_555
H4 O18 1_555 1_555
N1 H5 1_555 1_555
N2 C2 1_555 1_555
N3 H6 1_555 1_555
N4 C6 1_555 1_555
C1 N1 1_555 1_555
H7 C1 1_555 1_555
H8 C1 1_555 1_555
C2 C1 1_555 1_555
H9 C2 1_555 1_555
H10 C2 1_555 1_555
C3 N2 1_555 1_555
H11 C3 1_555 1_555
H12 C3 1_555 1_555
C4 N3 1_555 1_555
H13 C4 1_555 1_555
H14 C4 1_555 1_555
C5 N3 1_555 1_555
H15 C5 1_555 1_555
H16 C5 1_555 1_555
C6 C5 1_555 1_555
H17 C6 1_555 1_555
H18 C6 1_555 1_555
C7 N4 1_555 1_555
H19 C7 1_555 1_555
H20 C7 1_555 1_555
C8 N1 1_555 1_555
H21 C8 1_555 1_555
H22 C8 1_555 1_555
C9 N1 1_555 1_555
H23 C9 1_555 1_555
H24 C9 1_555 1_555
C10 O5 1_555 1_555
C11 N2 1_555 1_555
H25 C11 1_555 1_555
H26 C11 1_555 1_555
C12 O7 1_555 1_555
C13 N3 1_555 1_555
H27 C13 1_555 1_555
H28 C13 1_555 1_555
C14 C13 1_555 1_555
C15 N4 1_555 1_555
H29 C15 1_555 1_555
H30 C15 1_555 1_555
C16 C15 1_555 1_555
C17 O13 1_555 1_555
C18 O16 1_555 1_555
U1A O1A 1_555 1_555
U1A_2 O9 1_555 1_555
U1B O14 1_555 1_555
U2A O3A 1_555 1_555
U2A_2 O11 1_555 1_555
U2B O17 1_555 1_555
O2A U1A 1_555 1_555
O4A U2A 1_555 1_555
O5A U1A 1_555 1_555
O6A C10A 1_555 1_555
O7A U2A 1_555 1_555
O8A C12A 1_555 1_555
O9A U1 1_555 1_555
O9_2 U1A 1_555 1_555
O10A C14A 1_555 1_555
O11A U2 1_555 1_555
O11_2 U2A 1_555 1_555
O12A C16A 1_555 1_555
O13B U1B 1_555 1_555
O13A U1A 1_555 1_555
O14B U1 1_555 1_555
O14C U1A 1_555 1_555
O15A U1A 1_555 1_555
H1A O15A 1_555 1_555
H2A O15A 1_555 1_555
O16B U2B 1_555 1_555
O16A U2A 1_555 1_555
O17B U2 1_555 1_555
O17C U2A 1_555 1_555
O18A U2A 1_555 1_555
H3A O18A 1_555 1_555
H4A O18A 1_555 1_555
N1A H5A 1_555 1_555
N2A C2A 1_555 1_555
N3A H6A 1_555 1_555
N4A C6A 1_555 1_555
C1A N1A 1_555 1_555
H7A C1A 1_555 1_555
H8A C1A 1_555 1_555
C2A C1A 1_555 1_555
H9A C2A 1_555 1_555
H10A C2A 1_555 1_555
C3A N2A 1_555 1_555
H11A C3A 1_555 1_555
H12A C3A 1_555 1_555
C4A N3A 1_555 1_555
H13A C4A 1_555 1_555
H14A C4A 1_555 1_555
C5A N3A 1_555 1_555
H15A C5A 1_555 1_555
H16A C5A 1_555 1_555
C6A C5A 1_555 1_555
H17A C6A 1_555 1_555
H18A C6A 1_555 1_555
C7A N4A 1_555 1_555
H19A C7A 1_555 1_555
H20A C7A 1_555 1_555
C8A N1A 1_555 1_555
H21A C8A 1_555 1_555
H22A C8A 1_555 1_555
C9A N1A 1_555 1_555
H23A C9A 1_555 1_555
H24A C9A 1_555 1_555
C10A O5A 1_555 1_555
C11A N2A 1_555 1_555
H25A C11A 1_555 1_555
H26A C11A 1_555 1_555
C12A O7A 1_555 1_555
C13A N3A 1_555 1_555
H27A C13A 1_555 1_555
H28A C13A 1_555 1_555
C14A O9A 1_555 1_555
C15A N4A 1_555 1_555
H29A C15A 1_555 1_555
H30A C15A 1_555 1_555
C16A O11A 1_555 1_555
C17B C17 1_555 1_555
C18B C18 1_555 1_555
C3 C4 1_555 1_555
C7 C8 1_555 1_555
C9 C10 1_555 1_555
C11 C12 1_555 1_555
O13B C17B 1_555 1_555
O14B C17B 1_555 1_555
O16B C18B 1_555 1_555
O17B C18B 1_555 1_555
C3A C4A 1_555 1_555
C7A C8A 1_555 1_555
C9A C10A 1_555 1_555
C11A C12A 1_555 1_555
C13A C14A 1_555 1_555
C15A C16A 1_555 1_555

#END
