
#######################################################################
#
#                 Cambridge Crystallographic Data Centre
#                                CCDC 
#
#######################################################################
#
# If this CIF has been generated from an entry in the Cambridge 
# Structural Database, then it will include bibliographic, chemical, 
# crystal, experimental, refinement or atomic coordinate data resulting 
# from the CCDC's data processing and validation procedures.
#
#######################################################################

data_SODRIN
_symmetry_cell_setting           triclinic
_symmetry_space_group_name_H-M   'P -1'
_symmetry_Int_Tables_number      2
_space_group_name_Hall           '-P 1'
loop_
_symmetry_equiv_pos_site_id
_symmetry_equiv_pos_as_xyz
1 x,y,z
2 -x,-y,-z
_cell_length_a                   15.4500(9)
_cell_length_b                   15.7773(9)
_cell_length_c                   17.6472(10)
_cell_angle_alpha                111.210(3)
_cell_angle_beta                 95.676(3)
_cell_angle_gamma                95.219(3)
_cell_volume                     3953.19
loop_
_atom_site_label
_atom_site_type_symbol
_atom_site_fract_x
_atom_site_fract_y
_atom_site_fract_z
Os1 Os 0.27772(4) 0.15895(4) 0.21646(4)
Os2 Os 0.75035(4) 0.33427(4) 0.31263(4)
Os3 Os 0.78363(4) -0.27420(5) 0.13284(4)
Er1 Er 0.45783(4) 0.48673(5) 0.30441(4)
Er2 Er 0.57212(4) -0.00102(5) 0.18647(4)
C1 C 0.2007(12) -0.0203(12) 0.2352(10)
H1 H 0.2593 -0.0339 0.2387
C2 C 0.1325(15) -0.0813(15) 0.2438(12)
H2 H 0.1449 -0.1350 0.2529
C3 C 0.0482(14) -0.0608(18) 0.2385(13)
H3 H 0.0019 -0.0999 0.2456
C4 C 0.0294(12) 0.0168(15) 0.2229(11)
C5 C -0.0572(12) 0.0431(14) 0.2153(12)
H4 H -0.1056 0.0068 0.2227
C6 C -0.0709(11) 0.1152(15) 0.1984(12)
H5 H -0.1294 0.1271 0.1888
C7 C 0.0008(11) 0.1762(15) 0.1943(10)
C8 C -0.0093(12) 0.2608(15) 0.1827(11)
H6 H -0.0657 0.2794 0.1775
C9 C 0.0625(12) 0.3124(15) 0.1793(11)
H7 H 0.0571 0.3688 0.1725
C10 C 0.1453(12) 0.2848(12) 0.1857(10)
H8 H 0.1947 0.3225 0.1815
C11 C 0.0846(10) 0.1529(11) 0.2019(9)
C12 C 0.0994(9) 0.0738(12) 0.2159(9)
C13 C 0.3858(10) 0.1017(10) 0.2340(9)
C14 C 0.3486(9) 0.2706(10) 0.2186(9)
C15 C 0.2798(10) 0.2294(13) 0.3390(11)
C16 C 0.2751(9) 0.0903(11) 0.0928(10)
C17 C 0.8175(12) 0.5286(11) 0.3146(10)
H9 H 0.7586 0.5305 0.2946
C18 C 0.8806(11) 0.6040(12) 0.3298(11)
H10 H 0.8649 0.6551 0.3178
C19 C 0.9631(13) 0.6047(14) 0.3612(11)
H11 H 1.0049 0.6575 0.3734
C20 C 0.9889(11) 0.5295(14) 0.3763(11)
C21 C 1.0738(12) 0.5204(15) 0.4085(12)
H12 H 1.1201 0.5690 0.4197
C22 C 1.0916(12) 0.4450(16) 0.4239(13)
H13 H 1.1489 0.4430 0.4478
C23 C 1.0260(11) 0.3700(13) 0.4047(10)
C24 C 1.0414(12) 0.2916(16) 0.4236(11)
H14 H 1.0982 0.2868 0.4465
C25 C 0.9730(11) 0.2237(13) 0.4083(11)
H15 H 0.9818 0.1707 0.4201
C26 C 0.8898(11) 0.2327(11) 0.3748(9)
H16 H 0.8430 0.1846 0.3639
C27 C 0.9413(9) 0.3745(11) 0.3741(9)
C28 C 0.9219(9) 0.4539(11) 0.3581(9)
C29 C 0.6448(9) 0.3803(10) 0.2825(8)
C30 C 0.6814(10) 0.2168(11) 0.2980(10)
C31 C 0.7279(10) 0.3872(11) 0.4322(11)
C32 C 0.7600(9) 0.2753(10) 0.1897(10)
C33 C 0.8685(15) -0.1450(15) 0.0516(12)
H17 H 0.8146 -0.1202 0.0534
C34 C 0.9345(18) -0.1094(18) 0.0212(12)
H18 H 0.9265 -0.0599 0.0038
C35 C 1.0124(19) -0.145(2) 0.0159(13)
H19 H 1.0594 -0.1192 -0.0033
C36 C 1.0218(15) -0.221(2) 0.0398(13)
C37 C 1.099(2) -0.262(3) 0.0371(17)
H20 H 1.1492 -0.2362 0.0220
C38 C 1.1017(19) -0.337(3) 0.0557(18)
H21 H 1.1527 -0.3666 0.0481
C39 C 1.0323(16) -0.373(2) 0.0859(14)
C40 C 1.028(2) -0.455(2) 0.1047(17)
H22 H 1.0768 -0.4875 0.1004
C41 C 0.957(2) -0.484(2) 0.1279(14)
H23 H 0.9550 -0.5370 0.1419
C42 C 0.8834(17) -0.4376(16) 0.1320(12)
H24 H 0.8319 -0.4610 0.1473
C43 C 0.9543(13) -0.3311(16) 0.0915(11)
C44 C 0.9519(12) -0.2518(16) 0.0701(11)
C45 C 0.7024(10) -0.1789(12) 0.1504(9)
C46 C 0.7050(13) -0.3453(13) 0.1776(12)
C47 C 0.8490(10) -0.2010(11) 0.2505(10)
C48 C 0.7180(12) -0.3486(13) 0.0199(11)
C49 C 0.4868(10) 0.6782(10) 0.4856(9)
H25 H 0.4804 0.7078 0.4475
C50 C 0.4987(9) 0.5494(9) 0.5158(9)
C51 C 0.5051(9) 0.6871(10) 0.6222(9)
H26 H 0.5101 0.7218 0.6794
C52 C 0.4947(10) 0.7304(12) 0.5693(9)
H27 H 0.4928 0.7947 0.5885
C53 C 0.4979(9) 0.0498(10) 0.0187(9)
C54 C 0.5214(9) 0.1814(10) 0.1311(9)
H28 H 0.5390 0.2135 0.1884
C55 C 0.4944(9) 0.2302(10) 0.0836(9)
H29 H 0.4941 0.2947 0.1073
C56 C 0.4680(11) 0.1825(10) 0.0013(9)
H30 H 0.4492 0.2141 -0.0326
N1 N 0.1852(8) 0.0549(8) 0.2226(7)
N2 N 0.1578(8) 0.2072(9) 0.1975(8)
N3 N 0.4462(8) 0.0670(9) 0.2373(8)
N4 N 0.3849(8) 0.3405(9) 0.2228(7)
N5 N 0.2777(10) 0.2680(13) 0.4081(9)
N6 N 0.2740(9) 0.0463(9) 0.0245(8)
N7 N 0.8374(8) 0.4544(9) 0.3272(8)
N8 N 0.8733(8) 0.3059(8) 0.3575(7)
N9 N 0.5821(8) 0.4115(9) 0.2668(8)
N10 N 0.6406(8) 0.1440(9) 0.2813(7)
N11 N 0.7120(8) 0.4191(10) 0.4985(8)
N12 N 0.7586(9) 0.2378(9) 0.1188(8)
N13 N 0.8762(10) -0.2128(11) 0.0786(8)
N14 N 0.8831(11) -0.3641(11) 0.1159(9)
N15 N 0.6573(8) -0.1232(9) 0.1623(8)
N16 N 0.6591(14) -0.3861(15) 0.2035(12)
N17 N 0.8866(10) -0.1620(10) 0.3140(9)
N18 N 0.6790(15) -0.3964(16) -0.0463(12)
N19 N 0.4881(8) 0.5876(8) 0.4575(7)
N20 N 0.5088(7) 0.5950(8) 0.5962(7)
N21 N 0.5236(7) 0.0914(8) 0.0995(7)
N22 N 0.4686(7) 0.0895(8) -0.0325(7)
O1 O 0.4605(8) -0.1221(7) 0.1624(7)
H34 H 0.4683 -0.1856 0.1393
H35 H 0.4260 -0.1323 0.1185
O2 O 0.6966(6) 0.0442(7) 0.1322(6)
H36 H 0.7293 0.0908 0.1676
H37 H 0.7306 0.0041 0.1296
O3 O 0.5894(8) -0.0264(8) 0.3080(7)
H38 H 0.6353 -0.0301 0.3312
H39 H 0.5855 0.0269 0.3440
O4 O 0.4544(8) 0.4857(8) 0.1725(7)
H40 H 0.4724 0.5167 0.1452
H41 H 0.4040 0.4574 0.1394
O5 O 0.5713(7) 0.6056(7) 0.3259(7)
H42 H 0.5883 0.6154 0.2851
H43 H 0.6136 0.6124 0.3632
O6 O 0.3819(9) 0.6087(9) 0.3078(8)
H44 H 0.3785 0.6493 0.3544
H45 H 0.3359 0.5950 0.2682
O7 O 0.3237(7) 0.4652(8) 0.3568(7)
H46 H 0.3064 0.4092 0.3475
H47 H 0.3416 0.5027 0.4083
Os1A Os 0.72228(4) -0.15895(4) -0.21646(4)
Os2A Os 0.24965(4) 0.66573(4) 0.68737(4)
Os3A Os 0.21637(4) 0.27420(5) -0.13284(4)
Er1A Er 0.54217(4) 0.51327(5) 0.69559(4)
Er1A_2 Er 0.54217(4) -0.48673(5) -0.30441(4)
Er2A Er 0.42788(4) 0.00102(5) -0.18647(4)
Er2A_2 Er 0.42788(4) 1.00102(5) 0.81353(4)
C1A C 0.7993(12) 0.0203(12) -0.2352(10)
H1A H 0.7407 0.0339 -0.2387
C2A C 0.8675(15) 0.0813(15) -0.2438(12)
H2A H 0.8551 0.1350 -0.2529
C3A C 0.9518(14) 0.0608(18) -0.2385(13)
H3A H 0.9981 0.0999 -0.2456
C4A C 0.9706(12) -0.0168(15) -0.2229(11)
C5A C 1.0572(12) -0.0431(14) -0.2153(12)
H4A H 1.1056 -0.0068 -0.2227
C6A C 1.0709(11) -0.1152(15) -0.1984(12)
H5A H 1.1294 -0.1271 -0.1888
C7A C 0.9992(11) -0.1762(15) -0.1943(10)
C8A C 1.0093(12) -0.2608(15) -0.1827(11)
H6A H 1.0657 -0.2794 -0.1775
C9A C 0.9375(12) -0.3124(15) -0.1793(11)
H7A H 0.9429 -0.3688 -0.1725
C10A C 0.8547(12) -0.2848(12) -0.1857(10)
H8A H 0.8053 -0.3225 -0.1815
C11A C 0.9154(10) -0.1529(11) -0.2019(9)
C12A C 0.9006(9) -0.0738(12) -0.2159(9)
C13A C 0.6142(10) -0.1017(10) -0.2340(9)
C14A C 0.6514(9) -0.2706(10) -0.2186(9)
C15A C 0.7202(10) -0.2294(13) -0.3390(11)
C16A C 0.7249(9) -0.0903(11) -0.0928(10)
C17A C 0.1825(12) 0.4714(11) 0.6854(10)
H9A H 0.2414 0.4695 0.7054
C18A C 0.1194(11) 0.3960(12) 0.6702(11)
H10A H 0.1351 0.3449 0.6822
C19A C 0.0369(13) 0.3953(14) 0.6388(11)
H11A H -0.0049 0.3425 0.6266
C20A C 0.0111(11) 0.4705(14) 0.6237(11)
C21A C -0.0738(12) 0.4796(15) 0.5915(12)
H12A H -0.1201 0.4310 0.5803
C22A C -0.0916(12) 0.5550(16) 0.5761(13)
H13A H -0.1489 0.5570 0.5522
C23A C -0.0260(11) 0.6300(13) 0.5953(10)
C24A C -0.0414(12) 0.7084(16) 0.5764(11)
H14A H -0.0982 0.7132 0.5535
C25A C 0.0270(11) 0.7763(13) 0.5917(11)
H15A H 0.0182 0.8293 0.5799
C26A C 0.1102(11) 0.7673(11) 0.6252(9)
H16A H 0.1570 0.8154 0.6361
C27A C 0.0587(9) 0.6255(11) 0.6259(9)
C28A C 0.0781(9) 0.5461(11) 0.6419(9)
C29A C 0.3552(9) 0.6197(10) 0.7175(8)
C30A C 0.3186(10) 0.7832(11) 0.7020(10)
C31A C 0.2721(10) 0.6128(11) 0.5678(11)
C32A C 0.2400(9) 0.7247(10) 0.8103(10)
C33A C 0.1315(15) 0.1450(15) -0.0516(12)
H17A H 0.1854 0.1202 -0.0534
C34A C 0.0655(18) 0.1094(18) -0.0212(12)
H18A H 0.0735 0.0599 -0.0038
C35A C -0.0124(19) 0.145(2) -0.0159(13)
H19A H -0.0594 0.1192 0.0033
C36A C -0.0218(15) 0.221(2) -0.0398(13)
C37A C -0.099(2) 0.262(3) -0.0371(17)
H20A H -0.1492 0.2362 -0.0220
C38A C -0.1017(19) 0.337(3) -0.0557(18)
H21A H -0.1527 0.3666 -0.0481
C39A C -0.0323(16) 0.373(2) -0.0859(14)
C40A C -0.028(2) 0.455(2) -0.1047(17)
H22A H -0.0768 0.4875 -0.1004
C41A C 0.043(2) 0.484(2) -0.1279(14)
H23A H 0.0450 0.5370 -0.1419
C42A C 0.1166(17) 0.4376(16) -0.1320(12)
H24A H 0.1681 0.4610 -0.1473
C43A C 0.0457(13) 0.3311(16) -0.0915(11)
C44A C 0.0481(12) 0.2518(16) -0.0701(11)
C45A C 0.2976(10) 0.1789(12) -0.1504(9)
C46A C 0.2950(13) 0.3453(13) -0.1776(12)
C47A C 0.1510(10) 0.2010(11) -0.2505(10)
C48A C 0.2820(12) 0.3486(13) -0.0199(11)
C49A C 0.5132(10) 0.3218(10) 0.5144(9)
H25A H 0.5196 0.2922 0.5525
C50A C 0.5013(9) 0.4506(9) 0.4842(9)
C51A C 0.4949(9) 0.3129(10) 0.3778(9)
H26A H 0.4899 0.2782 0.3206
C52A C 0.5053(10) 0.2696(12) 0.4307(9)
H27A H 0.5072 0.2053 0.4115
C53A C 0.5021(9) -0.0498(10) -0.0187(9)
C54A C 0.4786(9) -0.1814(10) -0.1311(9)
H28A H 0.4610 -0.2135 -0.1884
C55A C 0.5056(9) -0.2302(10) -0.0836(9)
H29A H 0.5059 -0.2947 -0.1073
C56A C 0.5320(11) -0.1825(10) -0.0013(9)
H30A H 0.5508 -0.2141 0.0326
N1A N 0.8148(8) -0.0549(8) -0.2226(7)
N2A N 0.8422(8) -0.2072(9) -0.1975(8)
N3A N 0.5538(8) -0.0670(9) -0.2373(8)
N4A N 0.6151(8) 0.6595(9) 0.7772(7)
N4A_2 N 0.6151(8) -0.3405(9) -0.2228(7)
N5A N 0.7223(10) -0.2680(13) -0.4081(9)
N6A N 0.7260(9) -0.0463(9) -0.0245(8)
N7A N 0.1626(8) 0.5456(9) 0.6728(8)
N8A N 0.1267(8) 0.6941(8) 0.6425(7)
N9A N 0.4179(8) 0.5885(9) 0.7332(8)
N10A N 0.3594(8) -0.1440(9) -0.2813(7)
N10A_2 N 0.3594(8) 0.8560(9) 0.7187(7)
N11A N 0.2880(8) 0.5809(10) 0.5015(8)
N12A N 0.2414(9) 0.7622(9) 0.8812(8)
N13A N 0.1238(10) 0.2128(11) -0.0786(8)
N14A N 0.1169(11) 0.3641(11) -0.1159(9)
N15A N 0.3427(8) 0.1232(9) -0.1623(8)
N16A N 0.3409(14) 0.3861(15) -0.2035(12)
N17A N 0.1134(10) 0.1620(10) -0.3140(9)
N18A N 0.3210(15) 0.3964(16) 0.0463(12)
N19A N 0.5119(8) 0.4124(8) 0.5425(7)
N20A N 0.4912(7) 0.4050(8) 0.4038(7)
N21A N 0.4764(7) -0.0914(8) -0.0995(7)
N22A N 0.5314(7) -0.0895(8) 0.0325(7)
O1A O 0.5395(8) 0.1221(7) -0.1624(7)
H34A H 0.5317 0.1856 -0.1393
H35A H 0.5740 0.1323 -0.1185
O2A O 0.3034(6) -0.0442(7) -0.1322(6)
H36A H 0.2707 -0.0908 -0.1676
H37A H 0.2694 -0.0041 -0.1296
O3A O 0.4106(8) 0.0264(8) -0.3080(7)
H38A H 0.3647 0.0301 -0.3312
H39A H 0.4145 -0.0269 -0.3440
O4A O 0.5456(8) 0.5143(8) 0.8275(7)
H40A H 0.5276 0.4833 0.8548
H41A H 0.5960 0.5426 0.8606
O5A O 0.4287(7) 0.3944(7) 0.6741(7)
H42A H 0.4117 0.3846 0.7149
H43A H 0.3864 0.3876 0.6368
O6A O 0.6181(9) 0.3913(9) 0.6922(8)
H44A H 0.6215 0.3507 0.6456
H45A H 0.6641 0.4050 0.7318
O7A O 0.6763(7) 0.5348(8) 0.6432(7)
H46A H 0.6936 0.5908 0.6525
H47A H 0.6584 0.4973 0.5917
C57 C 0.8004(15) 0.032(2) 0.396(3)
H31 H 0.7878 0.0944 0.4272
H32 H 0.7619 -0.0125 0.4083
H33 H 0.7901 0.0203 0.3373
O13 O 0.8894(14) 0.0256(16) 0.4194(13)
H48 H 0.9082 0.0622 0.4683
O8 O 0.6480(13) 0.8249(10) 0.3394(9)
O9 O 0.5781(11) 0.0895(10) 0.4676(9)
O10 O 0.3066(9) 0.4074(9) 0.5583(9)
O11 O 0.3185(9) 0.8728(9) 0.0469(8)
O12 O 0.6991(15) 0.253(2) 0.5405(17)
O14 O 0.694(2) 0.4026(17) 0.083(2)
O15 O 0.840(2) 0.274(2) 0.654(3)
O16 O 0.0478(16) 0.8522(19) 0.4158(16)
O17 O 0.785(2) 0.506(3) 0.824(4)
O18 O 0.3693(12) 0.8855(17) 0.2968(12)
O19 O 0.3933(17) 0.0283(18) 0.4479(13)
O20 O 0.2734(18) 0.1478(18) 0.4978(15)
O21 O 0.477(5) 0.768(4) 0.337(5)
O24 O 0.487(2) 0.411(2) 0.916(2)
O26 O 0.672(3) 0.399(3) 0.939(3)
O22? O 0.1721(18) 0.1115(18) 0.4732(15)
O23? O 0.465(5) 0.742(4) 0.268(5)
O25? O 0.513(2) 0.306(2) 0.876(2)
loop_
_geom_bond_atom_site_label_1
_geom_bond_atom_site_label_2
_geom_bond_site_symmetry_1
_geom_bond_site_symmetry_2
Os1 C13 1_555 1_555
Os2 C29 1_555 1_555
Os3 C45 1_555 1_555
Er1 N4 1_555 1_555
Er2 N3 1_555 1_555
C1 H1 1_555 1_555
C2 C1 1_555 1_555
H2 C2 1_555 1_555
C3 C2 1_555 1_555
H3 C3 1_555 1_555
C4 C3 1_555 1_555
C5 C4 1_555 1_555
H4 C5 1_555 1_555
C6 C5 1_555 1_555
H5 C6 1_555 1_555
C7 C6 1_555 1_555
C8 C7 1_555 1_555
H6 C8 1_555 1_555
C9 C8 1_555 1_555
H7 C9 1_555 1_555
C10 C9 1_555 1_555
H8 C10 1_555 1_555
C11 C7 1_555 1_555
C12 C4 1_555 1_555
C13 N3 1_555 1_555
C14 Os1 1_555 1_555
C15 Os1 1_555 1_555
C16 Os1 1_555 1_555
C17 H9 1_555 1_555
C18 C17 1_555 1_555
H10 C18 1_555 1_555
C19 C18 1_555 1_555
H11 C19 1_555 1_555
C20 C19 1_555 1_555
C21 C20 1_555 1_555
H12 C21 1_555 1_555
C22 C21 1_555 1_555
H13 C22 1_555 1_555
C23 C22 1_555 1_555
C24 C23 1_555 1_555
H14 C24 1_555 1_555
C25 C24 1_555 1_555
H15 C25 1_555 1_555
C26 C25 1_555 1_555
H16 C26 1_555 1_555
C27 C23 1_555 1_555
C28 C20 1_555 1_555
C29 N9 1_555 1_555
C30 Os2 1_555 1_555
C31 Os2 1_555 1_555
C32 Os2 1_555 1_555
C33 H17 1_555 1_555
C34 C33 1_555 1_555
H18 C34 1_555 1_555
C35 C34 1_555 1_555
H19 C35 1_555 1_555
C36 C35 1_555 1_555
C37 C36 1_555 1_555
H20 C37 1_555 1_555
C38 C37 1_555 1_555
H21 C38 1_555 1_555
C39 C38 1_555 1_555
C40 C39 1_555 1_555
H22 C40 1_555 1_555
C41 C40 1_555 1_555
H23 C41 1_555 1_555
C42 C41 1_555 1_555
H24 C42 1_555 1_555
C43 C39 1_555 1_555
C44 C36 1_555 1_555
C45 N15 1_555 1_555
C46 Os3 1_555 1_555
C47 Os3 1_555 1_555
C48 Os3 1_555 1_555
C49 H25 1_555 1_555
C50 N19 1_555 1_555
C51 H26 1_555 1_555
C52 C49 1_555 1_555
H27 C52 1_555 1_555
C53 N21 1_555 1_555
C54 H28 1_555 1_555
C55 C54 1_555 1_555
H29 C55 1_555 1_555
C56 C55 1_555 1_555
H30 C56 1_555 1_555
C57 H31 1_555 1_555
H32 C57 1_555 1_555
H33 C57 1_555 1_555
N1 Os1 1_555 1_555
N2 Os1 1_555 1_555
N4 C14 1_555 1_555
N5 C15 1_555 1_555
N6 C16 1_555 1_555
N7 Os2 1_555 1_555
N8 Os2 1_555 1_555
N9 Er1 1_555 1_555
N10 Er2 1_555 1_555
N11 C31 1_555 1_555
N12 C32 1_555 1_555
N13 Os3 1_555 1_555
N14 Os3 1_555 1_555
N15 Er2 1_555 1_555
N16 C46 1_555 1_555
N17 C47 1_555 1_555
N18 C48 1_555 1_555
N19 Er1 1_555 1_555
N20 C50 1_555 1_555
N21 Er2 1_555 1_555
N22 C53 1_555 1_555
O1 Er2 1_555 1_555
H34 O1 1_555 1_555
H35 O1 1_555 1_555
O2 Er2 1_555 1_555
H36 O2 1_555 1_555
H37 O2 1_555 1_555
O3 Er2 1_555 1_555
H38 O3 1_555 1_555
H39 O3 1_555 1_555
O4 Er1 1_555 1_555
H40 O4 1_555 1_555
H41 O4 1_555 1_555
O5 Er1 1_555 1_555
H42 O5 1_555 1_555
H43 O5 1_555 1_555
O6 Er1 1_555 1_555
H44 O6 1_555 1_555
H45 O6 1_555 1_555
O7 Er1 1_555 1_555
H46 O7 1_555 1_555
H47 O7 1_555 1_555
O13 C57 1_555 1_555
H48 O13 1_555 1_555
Os1A C13A 1_555 1_555
Os2A C29A 1_555 1_555
Os3A C45A 1_555 1_555
Er1A N20 1_555 1_555
Er1A_2 N4A_2 1_555 1_555
Er2A N22 1_555 1_555
Er2A_2 N10A_2 1_555 1_555
C1A H1A 1_555 1_555
C2A C1A 1_555 1_555
H2A C2A 1_555 1_555
C3A C2A 1_555 1_555
H3A C3A 1_555 1_555
C4A C3A 1_555 1_555
C5A C4A 1_555 1_555
H4A C5A 1_555 1_555
C6A C5A 1_555 1_555
H5A C6A 1_555 1_555
C7A C6A 1_555 1_555
C8A C7A 1_555 1_555
H6A C8A 1_555 1_555
C9A C8A 1_555 1_555
H7A C9A 1_555 1_555
C10A C9A 1_555 1_555
H8A C10A 1_555 1_555
C11A C7A 1_555 1_555
C12A C4A 1_555 1_555
C13A N3A 1_555 1_555
C14A Os1A 1_555 1_555
C15A Os1A 1_555 1_555
C16A Os1A 1_555 1_555
C17A H9A 1_555 1_555
C18A C17A 1_555 1_555
H10A C18A 1_555 1_555
C19A C18A 1_555 1_555
H11A C19A 1_555 1_555
C20A C19A 1_555 1_555
C21A C20A 1_555 1_555
H12A C21A 1_555 1_555
C22A C21A 1_555 1_555
H13A C22A 1_555 1_555
C23A C22A 1_555 1_555
C24A C23A 1_555 1_555
H14A C24A 1_555 1_555
C25A C24A 1_555 1_555
H15A C25A 1_555 1_555
C26A C25A 1_555 1_555
H16A C26A 1_555 1_555
C27A C23A 1_555 1_555
C28A C20A 1_555 1_555
C29A N9A 1_555 1_555
C30A Os2A 1_555 1_555
C31A Os2A 1_555 1_555
C32A Os2A 1_555 1_555
C33A H17A 1_555 1_555
C34A C33A 1_555 1_555
H18A C34A 1_555 1_555
C35A C34A 1_555 1_555
H19A C35A 1_555 1_555
C36A C35A 1_555 1_555
C37A C36A 1_555 1_555
H20A C37A 1_555 1_555
C38A C37A 1_555 1_555
H21A C38A 1_555 1_555
C39A C38A 1_555 1_555
C40A C39A 1_555 1_555
H22A C40A 1_555 1_555
C41A C40A 1_555 1_555
H23A C41A 1_555 1_555
C42A C41A 1_555 1_555
H24A C42A 1_555 1_555
C43A C39A 1_555 1_555
C44A C36A 1_555 1_555
C45A N15A 1_555 1_555
C46A Os3A 1_555 1_555
C47A Os3A 1_555 1_555
C48A Os3A 1_555 1_555
C49A H25A 1_555 1_555
C50A C50 1_555 1_555
C51A H26A 1_555 1_555
C52A C49A 1_555 1_555
H27A C52A 1_555 1_555
C53A C53 1_555 1_555
C54A H28A 1_555 1_555
C55A C54A 1_555 1_555
H29A C55A 1_555 1_555
C56A C55A 1_555 1_555
H30A C56A 1_555 1_555
N1A Os1A 1_555 1_555
N2A Os1A 1_555 1_555
N3A Er2A 1_555 1_555
N4A Er1A 1_555 1_555
N4A_2 C14A 1_555 1_555
N5A C15A 1_555 1_555
N6A C16A 1_555 1_555
N7A Os2A 1_555 1_555
N8A Os2A 1_555 1_555
N9A Er1A 1_555 1_555
N10A Er2A 1_555 1_555
N10A_2 C30A 1_555 1_555
N11A C31A 1_555 1_555
N12A C32A 1_555 1_555
N13A Os3A 1_555 1_555
N14A Os3A 1_555 1_555
N15A Er2A 1_555 1_555
N16A C46A 1_555 1_555
N17A C47A 1_555 1_555
N18A C48A 1_555 1_555
N19A Er1A 1_555 1_555
N20A Er1 1_555 1_555
N21A Er2A 1_555 1_555
N22A Er2 1_555 1_555
O1A Er2A 1_555 1_555
H34A O1A 1_555 1_555
H35A O1A 1_555 1_555
O2A Er2A 1_555 1_555
H36A O2A 1_555 1_555
H37A O2A 1_555 1_555
O3A Er2A 1_555 1_555
H38A O3A 1_555 1_555
H39A O3A 1_555 1_555
O4A Er1A 1_555 1_555
H40A O4A 1_555 1_555
H41A O4A 1_555 1_555
O5A Er1A 1_555 1_555
H42A O5A 1_555 1_555
H43A O5A 1_555 1_555
O6A Er1A 1_555 1_555
H44A O6A 1_555 1_555
H45A O6A 1_555 1_555
O7A Er1A 1_555 1_555
H46A O7A 1_555 1_555
H47A O7A 1_555 1_555
C1 N1 1_555 1_555
C10 N2 1_555 1_555
C11 C12 1_555 1_555
C11 N2 1_555 1_555
C12 N1 1_555 1_555
C17 N7 1_555 1_555
C26 N8 1_555 1_555
C27 C28 1_555 1_555
C27 N8 1_555 1_555
C28 N7 1_555 1_555
C30 N10 1_555 1_555
C33 N13 1_555 1_555
C42 N14 1_555 1_555
C43 C44 1_555 1_555
C43 N14 1_555 1_555
C44 N13 1_555 1_555
C49 N19 1_555 1_555
C51 C52 1_555 1_555
C51 N20 1_555 1_555
C54 N21 1_555 1_555
C56 N22 1_555 1_555
C1A N1A 1_555 1_555
C10A N2A 1_555 1_555
C11A C12A 1_555 1_555
C11A N2A 1_555 1_555
C12A N1A 1_555 1_555
C17A N7A 1_555 1_555
C26A N8A 1_555 1_555
C27A C28A 1_555 1_555
C27A N8A 1_555 1_555
C28A N7A 1_555 1_555
C33A N13A 1_555 1_555
C42A N14A 1_555 1_555
C43A C44A 1_555 1_555
C43A N14A 1_555 1_555
C44A N13A 1_555 1_555
C49A N19A 1_555 1_555
C50A N19A 1_555 1_555
C50A N20A 1_555 1_555
C51A C52A 1_555 1_555
C51A N20A 1_555 1_555
C53A N21A 1_555 1_555
C53A N22A 1_555 1_555
C54A N21A 1_555 1_555
C56A N22A 1_555 1_555

#END
