
#######################################################################
#
#                 Cambridge Crystallographic Data Centre
#                                CCDC 
#
#######################################################################
#
# If this CIF has been generated from an entry in the Cambridge 
# Structural Database, then it will include bibliographic, chemical, 
# crystal, experimental, refinement or atomic coordinate data resulting 
# from the CCDC's data processing and validation procedures.
#
#######################################################################

data_SODROT
_symmetry_cell_setting           monoclinic
_symmetry_space_group_name_H-M   'P 21/n'
_symmetry_Int_Tables_number      14
_space_group_name_Hall           '-P 2yn'
loop_
_symmetry_equiv_pos_site_id
_symmetry_equiv_pos_as_xyz
1 x,y,z
2 1/2-x,1/2+y,1/2-z
3 -x,-y,-z
4 1/2+x,1/2-y,1/2+z
_cell_length_a                   20.2500(11)
_cell_length_b                   27.4569(16)
_cell_length_c                   27.5852(16)
_cell_angle_alpha                90
_cell_angle_beta                 90.310(3)
_cell_angle_gamma                90
_cell_volume                     15337.2
loop_
_atom_site_label
_atom_site_type_symbol
_atom_site_fract_x
_atom_site_fract_y
_atom_site_fract_z
Os1 Os 0.459927(16) 0.388401(12) 0.371678(12)
Os2 Os 0.588173(17) 0.130067(13) -0.075275(13)
Os3 Os 0.458738(18) 0.118124(13) 0.288650(13)
Os4 Os 0.833604(17) 0.143942(13) 0.234550(13)
Os5 Os 0.217774(17) 0.359574(13) 0.072399(13)
Os6 Os 0.595072(18) 0.388496(13) 0.084613(13)
Nd1 Nd 0.62224(2) 0.275616(17) 0.253674(17)
Nd2 Nd 0.42647(2) 0.233444(17) 0.050229(17)
Nd3 Nd 0.79309(2) 0.267893(17) -0.094831(17)
Nd4 Nd 0.99591(2) 0.244484(19) 0.106225(18)
C1 C 0.3451(5) 0.4220(4) 0.4385(4)
H1 H 0.3241 0.3923 0.4296
C2 C 0.3133(6) 0.4528(4) 0.4715(4)
H2 H 0.2712 0.4446 0.4841
C3 C 0.3444(5) 0.4953(4) 0.4853(4)
H3 H 0.3248 0.5158 0.5089
C4 C 0.4049(5) 0.5082(4) 0.4644(4)
C5 C 0.4407(6) 0.5514(4) 0.4768(4)
H4 H 0.4230 0.5735 0.4998
C6 C 0.5003(6) 0.5611(4) 0.4558(4)
H5 H 0.5224 0.5907 0.4632
C7 C 0.5297(5) 0.5278(4) 0.4232(4)
C8 C 0.5929(5) 0.5345(4) 0.4028(4)
H6 H 0.6174 0.5633 0.4096
C9 C 0.6188(5) 0.4993(4) 0.3731(4)
H7 H 0.6614 0.5034 0.3595
C10 C 0.5817(5) 0.4574(3) 0.3629(4)
H8 H 0.5999 0.4333 0.3421
C11 C 0.4961(5) 0.4846(3) 0.4114(3)
C12 C 0.4331(5) 0.4752(4) 0.4316(3)
C13 C 0.5222(5) 0.3542(3) 0.3286(3)
C14 C 0.3954(4) 0.3343(3) 0.3710(3)
C15 C 0.5011(4) 0.3598(3) 0.4312(3)
C16 C 0.4094(4) 0.4223(3) 0.3158(3)
C17 C 0.4670(5) 0.0672(4) -0.0422(3)
H9 H 0.4518 0.0956 -0.0260
C18 C 0.4295(5) 0.0246(4) -0.0389(4)
H10 H 0.3891 0.0244 -0.0215
C19 C 0.4518(5) -0.0173(4) -0.0614(4)
H11 H 0.4272 -0.0467 -0.0591
C20 C 0.5112(5) -0.0160(4) -0.0875(4)
C21 C 0.5378(6) -0.0573(4) -0.1128(4)
H12 H 0.5141 -0.0872 -0.1126
C22 C 0.5953(5) -0.0546(4) -0.1365(4)
H13 H 0.6124 -0.0830 -0.1516
C23 C 0.6316(5) -0.0097(3) -0.1396(4)
C24 C 0.6917(5) -0.0040(4) -0.1640(4)
H14 H 0.7111 -0.0310 -0.1801
C25 C 0.7221(5) 0.0403(4) -0.1646(3)
H15 H 0.7628 0.0443 -0.1811
C26 C 0.6931(5) 0.0799(4) -0.1409(3)
H16 H 0.7144 0.1107 -0.1422
C27 C 0.6059(5) 0.0317(3) -0.1152(3)
C28 C 0.5453(5) 0.0282(3) -0.0896(3)
C29 C 0.5357(4) 0.1720(3) -0.0331(3)
C30 C 0.6580(4) 0.1785(3) -0.0875(3)
C31 C 0.5343(5) 0.1551(3) -0.1326(3)
C32 C 0.6336(4) 0.1076(3) -0.0166(3)
C33 C 0.3421(5) 0.0446(4) 0.3001(4)
H17 H 0.3181 0.0706 0.3144
C34 C 0.3121(4) -0.0016(3) 0.2974(3)
H18 H 0.2692 -0.0064 0.3104
C35 C 0.3443(6) -0.0392(4) 0.2763(4)
H19 H 0.3247 -0.0706 0.2750
C36 C 0.4062(6) -0.0312(4) 0.2566(4)
C37 C 0.4446(6) -0.0669(4) 0.2306(4)
H20 H 0.4276 -0.0991 0.2280
C38 C 0.5032(6) -0.0570(4) 0.2098(4)
H21 H 0.5260 -0.0819 0.1928
C39 C 0.5316(6) -0.0091(4) 0.2134(4)
C40 C 0.5917(6) 0.0047(4) 0.1916(4)
H22 H 0.6166 -0.0184 0.1737
C41 C 0.6137(5) 0.0511(4) 0.1964(4)
H23 H 0.6536 0.0611 0.1815
C42 C 0.5761(5) 0.0847(4) 0.2243(3)
H24 H 0.5926 0.1169 0.2282
C43 C 0.4966(5) 0.0264(4) 0.2395(3)
C44 C 0.4342(5) 0.0157(4) 0.2608(4)
C45 C 0.3950(5) 0.1539(3) 0.3296(3)
C46 C 0.5206(5) 0.1739(3) 0.2870(3)
C47 C 0.4139(4) 0.1458(3) 0.2288(3)
C48 C 0.5059(4) 0.0910(3) 0.3488(3)
C49 C 0.7219(5) 0.0946(4) 0.2963(4)
H25 H 0.7014 0.1257 0.2972
C50 C 0.6893(5) 0.0552(4) 0.3163(4)
H26 H 0.6474 0.0598 0.3309
C51 C 0.7166(6) 0.0095(4) 0.3153(4)
H27 H 0.6939 -0.0175 0.3288
C52 C 0.7791(5) 0.0033(4) 0.2937(4)
C53 C 0.8136(6) -0.0418(4) 0.2919(4)
H28 H 0.7932 -0.0704 0.3041
C54 C 0.8742(6) -0.0445(4) 0.2733(4)
H29 H 0.8962 -0.0750 0.2729
C55 C 0.9072(5) -0.0026(4) 0.2539(4)
C56 C 0.9728(6) -0.0032(4) 0.2358(4)
H30 H 0.9981 -0.0324 0.2363
C57 C 0.9985(5) 0.0383(4) 0.2179(4)
H31 H 1.0423 0.0384 0.2059
C58 C 0.9609(5) 0.0816(4) 0.2169(4)
H32 H 0.9797 0.1102 0.2034
C59 C 0.8738(5) 0.0417(4) 0.2540(4)
C60 C 0.8102(5) 0.0452(4) 0.2744(3)
C61 C 0.7644(5) 0.1946(4) 0.2403(3)
C62 C 0.8873(4) 0.1850(4) 0.1921(3)
C63 C 0.8830(5) 0.1732(4) 0.2907(4)
C64 C 0.7892(4) 0.1128(3) 0.1742(3)
C65 C 0.3537(5) 0.4025(4) 0.0414(4)
H33 H 0.3670 0.3697 0.0368
C66 C 0.3987(6) 0.4398(5) 0.0315(4)
H34 H 0.4417 0.4321 0.0201
C67 C 0.3811(6) 0.4867(5) 0.0382(4)
H35 H 0.4119 0.5121 0.0322
C68 C 0.3166(6) 0.4981(4) 0.0543(4)
C69 C 0.2931(6) 0.5457(4) 0.0614(4)
H36 H 0.3220 0.5725 0.0566
C70 C 0.2290(7) 0.5541(4) 0.0752(4)
H37 H 0.2145 0.5864 0.0810
C71 C 0.1838(5) 0.5142(3) 0.0810(4)
C72 C 0.1163(6) 0.5205(4) 0.0923(4)
H38 H 0.0985 0.5522 0.0966
C73 C 0.0774(5) 0.4807(4) 0.0971(4)
H39 H 0.0317 0.4846 0.1036
C74 C 0.1037(5) 0.4336(4) 0.0924(4)
H40 H 0.0761 0.4062 0.0977
C75 C 0.2067(5) 0.4669(3) 0.0753(3)
C76 C 0.2732(5) 0.4585(4) 0.0621(3)
C77 C 0.2793(5) 0.3046(4) 0.0650(3)
C78 C 0.1416(5) 0.3171(3) 0.0853(3)
C79 C 0.2397(4) 0.3612(3) 0.1410(3)
C80 C 0.1975(4) 0.3594(3) -0.0002(3)
C81 C 0.6842(5) 0.4814(4) 0.0790(4)
H41 H 0.7177 0.4607 0.0666
C82 C 0.6964(6) 0.5319(4) 0.0818(4)
H42 H 0.7370 0.5448 0.0705
C83 C 0.6489(6) 0.5627(4) 0.1010(4)
H43 H 0.6571 0.5967 0.1034
C84 C 0.5891(6) 0.5433(4) 0.1167(4)
C85 C 0.5366(7) 0.5712(4) 0.1378(4)
H44 H 0.5418 0.6054 0.1413
C86 C 0.4809(6) 0.5503(4) 0.1526(4)
H45 H 0.4475 0.5704 0.1660
C87 C 0.4688(5) 0.4993(4) 0.1492(4)
C88 C 0.4131(5) 0.4746(4) 0.1657(4)
H46 H 0.3786 0.4921 0.1811
C89 C 0.4079(5) 0.4251(5) 0.1596(4)
H47 H 0.3702 0.4081 0.1712
C90 C 0.4588(5) 0.3999(4) 0.1363(3)
H48 H 0.4545 0.3657 0.1321
C91 C 0.5198(5) 0.4707(4) 0.1268(4)
C92 C 0.5799(5) 0.4923(4) 0.1117(3)
C93 C 0.5469(5) 0.3278(4) 0.0722(3)
C94 C 0.6207(5) 0.3578(3) 0.1492(4)
C95 C 0.6788(4) 0.3679(4) 0.0551(3)
C96 C 0.5636(5) 0.4049(4) 0.0152(4)
C97 C 0.4480(5) 0.2946(4) 0.2352(4)
H49 H 0.4536 0.3077 0.2668
C98 C 0.3865(5) 0.2969(4) 0.2134(3)
H50 H 0.3496 0.3104 0.2297
C99 C 0.3807(4) 0.2789(3) 0.1673(3)
H51 H 0.3395 0.2816 0.1509
C100 C 0.4878(4) 0.2544(3) 0.1695(3)
C101 C 0.5409(4) 0.2235(3) 0.1482(3)
C102 C 0.5703(4) 0.1682(3) 0.0902(3)
H52 H 0.5613 0.1510 0.0611
C103 C 0.6292(4) 0.1593(4) 0.1145(3)
H53 H 0.6598 0.1357 0.1031
C104 C 0.6411(4) 0.1861(3) 0.1557(3)
H54 H 0.6815 0.1812 0.1727
C105 C 0.9759(5) 0.2783(4) -0.0872(4)
H55 H 0.9716 0.2841 -0.1210
C106 C 1.0370(5) 0.2849(3) -0.0648(3)
H56 H 1.0746 0.2941 -0.0830
C107 C 1.0411(5) 0.2777(4) -0.0164(4)
H57 H 1.0815 0.2847 -0.0002
C108 C 0.9339(4) 0.2528(3) -0.0153(3)
C109 C 0.8818(4) 0.2244(3) 0.0095(3)
C110 C 0.8544(5) 0.1721(4) 0.0706(4)
H58 H 0.8642 0.1572 0.1009
C111 C 0.7972(5) 0.1590(4) 0.0469(4)
H59 H 0.7687 0.1345 0.0592
C112 C 0.7831(5) 0.1836(3) 0.0038(4)
H60 H 0.7428 0.1770 -0.0128
C115 C 0.6426(8) 0.2678(7) -0.0158(7)
H67 H 0.6218 0.2938 0.0032
H68 H 0.6442 0.2379 0.0035
H69 H 0.6167 0.2620 -0.0454
N1 N 0.4033(4) 0.4323(3) 0.4191(3)
N2 N 0.5219(4) 0.4502(3) 0.3815(3)
N3 N 0.5607(4) 0.3348(3) 0.3031(3)
N4 N 0.3556(4) 0.3039(3) 0.3742(3)
N5 N 0.5267(4) 0.3421(3) 0.4659(3)
N6 N 0.3786(4) 0.4435(4) 0.2877(3)
N7 N 0.5233(4) 0.0697(3) -0.0671(3)
N8 N 0.6368(4) 0.0760(3) -0.1167(3)
N9 N 0.5008(4) 0.1940(3) -0.0075(3)
N10 N 0.7021(4) 0.2049(3) -0.0952(3)
N11 N 0.4991(4) 0.1713(3) -0.1619(3)
N12 N 0.6663(4) 0.0888(3) 0.0164(3)
N13 N 0.4014(4) 0.0534(3) 0.2837(3)
N14 N 0.5187(4) 0.0733(3) 0.2451(3)
N15 N 0.3571(4) 0.1745(3) 0.3534(3)
N16 N 0.5587(4) 0.2048(3) 0.2840(3)
N17 N 0.3881(5) 0.1613(3) 0.1955(3)
N18 N 0.5336(4) 0.0760(3) 0.3818(3)
N19 N 0.7814(4) 0.0905(3) 0.2757(3)
N20 N 0.8999(4) 0.0835(3) 0.2344(3)
N21 N 0.7211(4) 0.2224(3) 0.2440(3)
N22 N 0.9201(4) 0.2081(3) 0.1659(3)
N23 N 0.9155(6) 0.1928(4) 0.3211(4)
N24 N 0.7645(4) 0.0920(3) 0.1434(3)
N25 N 0.2929(4) 0.4115(3) 0.0570(3)
N26 N 0.1666(4) 0.4268(3) 0.0809(3)
N27 N 0.3198(4) 0.2745(3) 0.0615(3)
N28 N 0.0950(4) 0.2931(3) 0.0915(3)
N29 N 0.2475(4) 0.3613(3) 0.1858(3)
N30 N 0.1876(5) 0.3597(4) -0.0411(3)
N31 N 0.6274(4) 0.4617(3) 0.0932(3)
N32 N 0.5127(4) 0.4216(3) 0.1197(3)
N33 N 0.6281(4) 0.3345(3) 0.1843(3)
N34 N 0.5119(4) 0.2960(3) 0.0637(3)
N35 N 0.7296(4) 0.3585(3) 0.0382(3)
N36 N 0.5469(5) 0.4083(4) -0.0241(3)
N37 N 0.5002(4) 0.2742(3) 0.2128(3)
N38 N 0.4313(3) 0.2578(3) 0.1447(3)
N39 N 0.5256(4) 0.2001(3) 0.1064(3)
N40 N 0.5978(4) 0.2191(3) 0.1731(3)
N41 N 0.9229(4) 0.2639(3) -0.0618(3)
N42 N 0.9897(4) 0.2607(3) 0.0097(3)
N43 N 0.8972(4) 0.2051(3) 0.0529(3)
N44 N 0.8257(4) 0.2166(3) -0.0150(3)
O1 O 0.6625(4) 0.2567(3) 0.3367(3)
H82 H 0.6870 0.2812 0.3424
H83 H 0.6260 0.2538 0.3514
O2 O 0.7148(4) 0.3308(3) 0.2731(3)
H84 H 0.7374 0.3138 0.2928
H85 H 0.7251 0.3401 0.2448
O3 O 0.3803(3) 0.1678(2) 0.0958(3)
H86 H 0.3757 0.1599 0.1275
H87 H 0.3487 0.1542 0.0899
O4 O 0.3528(4) 0.1861(3) -0.0051(3)
H88 H 0.3714 0.1790 -0.0317
H89 H 0.3109 0.1863 -0.0088
O5 O 0.4155(5) 0.2876(3) -0.0207(3)
H90 H 0.4420 0.2882 -0.0444
H91 H 0.3773 0.2910 -0.0332
O6 O 0.7574(3) 0.2471(2) -0.1809(2)
H92 H 0.7623 0.2180 -0.1908
H93 H 0.7786 0.2570 -0.2033
O7 O 0.7126(3) 0.3304(2) -0.1224(3)
H94 H 0.7057 0.3488 -0.1467
H95 H 0.6720 0.3307 -0.1193
O8 O 0.7083(3) 0.2821(3) -0.0285(3)
H96 H 0.7209 0.3048 -0.0101
O9 O 0.8269(3) 0.3336(2) -0.0347(2)
H97 H 0.8111 0.3507 -0.0080
H98 H 0.8638 0.3496 -0.0298
O10 O 0.9187(4) 0.3107(3) 0.0924(3)
H99 H 0.9248 0.3389 0.1041
H100 H 0.8808 0.3157 0.0800
O11 O 1.0521(4) 0.1796(3) 0.0628(2)
H101 H 1.0479 0.1684 0.0374
H102 H 1.0981 0.1780 0.0593
O12 O 1.0701(4) 0.2014(3) 0.1636(3)
H103 H 1.0718 0.2033 0.1944
H104 H 1.0736 0.1759 0.1464
O13 O 1.0062(4) 0.2993(3) 0.1761(3)
H105 H 1.0486 0.3018 0.1883
H106 H 0.9836 0.2945 0.2018
Nd3C Nd 0.29309(2) 0.232107(17) 0.405169(17)
Nd4_2 Nd -0.00409(2) 0.244484(19) 0.106225(18)
N4C N 0.8556(4) 0.1961(3) -0.1258(3)
N15C N 0.8571(4) 0.3255(3) -0.1466(3)
N28_2 N 1.0950(4) 0.2931(3) 0.0915(3)
C113 C 0.9483(8) 0.4194(5) 0.1706(5)
H61 H 0.9696 0.4514 0.1729
H62 H 0.9763 0.3949 0.1864
H63 H 0.9054 0.4205 0.1868
O14 O 0.9393(5) 0.4070(4) 0.1214(4)
H107 H 0.9060 0.4216 0.1104
C114 C 0.0104(9) 0.6026(5) -0.0015(6)
H64 H -0.0361 0.6021 0.0083
H65 H 0.0242 0.5697 -0.0106
H66 H 0.0157 0.6245 -0.0292
O15 O 0.0502(4) 0.6195(3) 0.0380(3)
C116 C 0.8707(8) 0.4997(8) 0.0382(5)
H70 H 0.8610 0.5342 0.0328
H71 H 0.8309 0.4803 0.0322
H72 H 0.9057 0.4892 0.0162
O16 O 0.8916(6) 0.4930(4) 0.0861(4)
H108 H 0.9048 0.5197 0.0974
C117 C 0.1611(12) 0.0675(10) 0.1576(10)
H73 H 0.1429 0.0429 0.1355
H74 H 0.2046 0.0778 0.1460
H75 H 0.1314 0.0957 0.1587
O19 O 0.1694(5) 0.0419(4) 0.2175(6)
H111 H 0.1719 0.0665 0.2361
C118 C 0.7814(12) 0.4202(9) 0.5408(8)
H76 H 0.7633 0.4038 0.5121
H77 H 0.8278 0.4284 0.5353
H78 H 0.7563 0.4501 0.5470
O17 O 0.7767(5) 0.3898(4) 0.5802(5)
H109 H 0.7507 0.3669 0.5736
C119 C 0.7535(7) 0.2674(4) 0.1201(6)
H79 H 0.7096 0.2754 0.1325
H80 H 0.7752 0.2443 0.1421
H81 H 0.7493 0.2528 0.0878
O18 O 0.7928(4) 0.3115(4) 0.1169(4)
H110 H 0.7742 0.3314 0.0981
O20 O 0.7784(4) 0.5161(3) 0.4198(3)
H112 H 0.7696 0.5388 0.3999
H113 H 0.7994 0.5333 0.4380
O21 O 0.1203(4) 0.2656(3) 0.3036(3)
H114 H 0.1036 0.2610 0.2757
H115 H 0.1622 0.2643 0.3016
O22 O 0.2640(4) 0.1922(3) 0.2386(3)
H116 H 0.2304 0.2090 0.2308
H117 H 0.2988 0.1903 0.2248
O23 O -0.0108(4) 0.2282(3) 0.3970(3)
H118 H 0.0188 0.2063 0.3985
H119 H -0.0010 0.2575 0.3906
O24 O 0.8713(4) 0.3417(3) 0.3980(3)
H120 H 0.8534 0.3100 0.3917
H121 H 0.8394 0.3665 0.4017
O25 O 0.6472(4) 0.1620(4) 0.3662(3)
O26 O 0.9268(4) 0.2932(3) 0.2569(3)
H122 H 0.9431 0.3145 0.2785
H123 H 0.8948 0.3086 0.2441
O27 O 0.2009(4) 0.2328(4) 0.1614(3)
H124 H 0.1947 0.2339 0.1310
H125 H 0.1806 0.2554 0.1762
O28 O 0.0560(4) 0.1851(3) 0.2636(3)
H126 H 0.0904 0.1679 0.2680
H127 H 0.0322 0.1744 0.2869
O29 O 0.6888(4) 0.3147(4) 0.5726(3)
O30 O 0.1771(5) 0.1246(3) 0.2792(4)
O31 O 0.5884(5) 0.3441(5) -0.0974(5)
O32 O 0.6524(5) 0.3220(6) 0.4172(3)
O33 O 0.1206(6) 0.3223(5) 0.2194(4)
O34 O 0.2742(3) 0.3493(2) 0.2865(2)
O35 O 0.8031(5) 0.2642(6) 0.3494(4)
O36 O 0.7255(5) 0.2767(5) 0.4856(4)
O37 O 0.8154(5) 0.3469(5) 0.2127(5)
O38 O 0.7907(8) 0.2054(8) 0.4355(6)
O39 O 0.8122(10) 0.4319(6) 0.3771(8)
O40? O 0.7568(10) 0.4114(7) 0.4159(8)
loop_
_geom_bond_atom_site_label_1
_geom_bond_atom_site_label_2
_geom_bond_site_symmetry_1
_geom_bond_site_symmetry_2
Os1 C13 1_555 1_555
Os2 C29 1_555 1_555
Os3 C45 1_555 1_555
Os4 C61 1_555 1_555
Os5 C77 1_555 1_555
Os6 C93 1_555 1_555
Nd1 N3 1_555 1_555
Nd2 N9 1_555 1_555
Nd3 N10 1_555 1_555
Nd4 N22 1_555 1_555
C1 H1 1_555 1_555
C2 C1 1_555 1_555
H2 C2 1_555 1_555
C3 C2 1_555 1_555
H3 C3 1_555 1_555
C4 C3 1_555 1_555
C5 C4 1_555 1_555
H4 C5 1_555 1_555
C6 C5 1_555 1_555
H5 C6 1_555 1_555
C7 C6 1_555 1_555
C8 C7 1_555 1_555
H6 C8 1_555 1_555
C9 C8 1_555 1_555
H7 C9 1_555 1_555
C10 C9 1_555 1_555
H8 C10 1_555 1_555
C11 C7 1_555 1_555
C12 C4 1_555 1_555
C13 N3 1_555 1_555
C14 Os1 1_555 1_555
C15 Os1 1_555 1_555
C16 Os1 1_555 1_555
C17 H9 1_555 1_555
C18 C17 1_555 1_555
H10 C18 1_555 1_555
C19 C18 1_555 1_555
H11 C19 1_555 1_555
C20 C19 1_555 1_555
C21 C20 1_555 1_555
H12 C21 1_555 1_555
C22 C21 1_555 1_555
H13 C22 1_555 1_555
C23 C22 1_555 1_555
C24 C23 1_555 1_555
H14 C24 1_555 1_555
C25 C24 1_555 1_555
H15 C25 1_555 1_555
C26 C25 1_555 1_555
H16 C26 1_555 1_555
C27 C23 1_555 1_555
C28 C20 1_555 1_555
C29 N9 1_555 1_555
C30 Os2 1_555 1_555
C31 Os2 1_555 1_555
C32 Os2 1_555 1_555
C33 H17 1_555 1_555
C34 C33 1_555 1_555
H18 C34 1_555 1_555
C35 C34 1_555 1_555
H19 C35 1_555 1_555
C36 C35 1_555 1_555
C37 C36 1_555 1_555
H20 C37 1_555 1_555
C38 C37 1_555 1_555
H21 C38 1_555 1_555
C39 C38 1_555 1_555
C40 C39 1_555 1_555
H22 C40 1_555 1_555
C41 C40 1_555 1_555
H23 C41 1_555 1_555
C42 C41 1_555 1_555
H24 C42 1_555 1_555
C43 C39 1_555 1_555
C44 C36 1_555 1_555
C45 N15 1_555 1_555
C46 Os3 1_555 1_555
C47 Os3 1_555 1_555
C48 Os3 1_555 1_555
C49 H25 1_555 1_555
C50 C49 1_555 1_555
H26 C50 1_555 1_555
C51 C50 1_555 1_555
H27 C51 1_555 1_555
C52 C51 1_555 1_555
C53 C52 1_555 1_555
H28 C53 1_555 1_555
C54 C53 1_555 1_555
H29 C54 1_555 1_555
C55 C54 1_555 1_555
C56 C55 1_555 1_555
H30 C56 1_555 1_555
C57 C56 1_555 1_555
H31 C57 1_555 1_555
C58 C57 1_555 1_555
H32 C58 1_555 1_555
C59 C55 1_555 1_555
C60 C52 1_555 1_555
C61 N21 1_555 1_555
C62 Os4 1_555 1_555
C63 Os4 1_555 1_555
C64 Os4 1_555 1_555
C65 H33 1_555 1_555
C66 C65 1_555 1_555
H34 C66 1_555 1_555
C67 C66 1_555 1_555
H35 C67 1_555 1_555
C68 C67 1_555 1_555
C69 C68 1_555 1_555
H36 C69 1_555 1_555
C70 C69 1_555 1_555
H37 C70 1_555 1_555
C71 C70 1_555 1_555
C72 C71 1_555 1_555
H38 C72 1_555 1_555
C73 C72 1_555 1_555
H39 C73 1_555 1_555
C74 C73 1_555 1_555
H40 C74 1_555 1_555
C75 C71 1_555 1_555
C76 C68 1_555 1_555
C77 N27 1_555 1_555
C78 Os5 1_555 1_555
C79 Os5 1_555 1_555
C80 Os5 1_555 1_555
C81 H41 1_555 1_555
C82 C81 1_555 1_555
H42 C82 1_555 1_555
C83 C82 1_555 1_555
H43 C83 1_555 1_555
C84 C83 1_555 1_555
C85 C84 1_555 1_555
H44 C85 1_555 1_555
C86 C85 1_555 1_555
H45 C86 1_555 1_555
C87 C86 1_555 1_555
C88 C87 1_555 1_555
H46 C88 1_555 1_555
C89 C88 1_555 1_555
H47 C89 1_555 1_555
C90 C89 1_555 1_555
H48 C90 1_555 1_555
C91 C87 1_555 1_555
C92 C84 1_555 1_555
C93 N34 1_555 1_555
C94 Os6 1_555 1_555
C95 Os6 1_555 1_555
C96 Os6 1_555 1_555
C97 H49 1_555 1_555
C98 C97 1_555 1_555
H50 C98 1_555 1_555
C99 C98 1_555 1_555
H51 C99 1_555 1_555
C100 C101 1_555 1_555
C101 N39 1_555 1_555
C102 H52 1_555 1_555
C103 C102 1_555 1_555
H53 C103 1_555 1_555
C104 C103 1_555 1_555
H54 C104 1_555 1_555
C105 H55 1_555 1_555
C106 C105 1_555 1_555
H56 C106 1_555 1_555
C107 C106 1_555 1_555
H57 C107 1_555 1_555
C108 C109 1_555 1_555
C109 N43 1_555 1_555
C110 H58 1_555 1_555
C111 C110 1_555 1_555
H59 C111 1_555 1_555
C112 C111 1_555 1_555
H60 C112 1_555 1_555
C113 H61 1_555 1_555
H62 C113 1_555 1_555
H63 C113 1_555 1_555
C114 H64 1_555 1_555
H65 C114 1_555 1_555
H66 C114 1_555 1_555
C115 H67 1_555 1_555
H68 C115 1_555 1_555
H69 C115 1_555 1_555
C116 H70 1_555 1_555
H71 C116 1_555 1_555
H72 C116 1_555 1_555
C117 H73 1_555 1_555
H74 C117 1_555 1_555
H75 C117 1_555 1_555
C118 H76 1_555 1_555
H77 C118 1_555 1_555
H78 C118 1_555 1_555
C119 H79 1_555 1_555
H80 C119 1_555 1_555
H81 C119 1_555 1_555
N1 Os1 1_555 1_555
N2 Os1 1_555 1_555
N4 C14 1_555 1_555
N5 C15 1_555 1_555
N6 C16 1_555 1_555
N7 Os2 1_555 1_555
N8 Os2 1_555 1_555
N10 C30 1_555 1_555
N11 C31 1_555 1_555
N12 C32 1_555 1_555
N13 Os3 1_555 1_555
N14 Os3 1_555 1_555
N15 Nd3C 1_555 1_555
N16 Nd1 1_555 1_555
N17 C47 1_555 1_555
N18 C48 1_555 1_555
N19 Os4 1_555 1_555
N20 Os4 1_555 1_555
N21 Nd1 1_555 1_555
N22 C62 1_555 1_555
N23 C63 1_555 1_555
N24 C64 1_555 1_555
N25 Os5 1_555 1_555
N26 Os5 1_555 1_555
N27 Nd2 1_555 1_555
N28 C78 1_555 1_555
N29 C79 1_555 1_555
N30 C80 1_555 1_555
N31 Os6 1_555 1_555
N32 Os6 1_555 1_555
N33 Nd1 1_555 1_555
N34 Nd2 1_555 1_555
N35 C95 1_555 1_555
N36 C96 1_555 1_555
N37 Nd1 1_555 1_555
N38 Nd2 1_555 1_555
N39 Nd2 1_555 1_555
N40 Nd1 1_555 1_555
N41 Nd3 1_555 1_555
N42 Nd4 1_555 1_555
N43 Nd4 1_555 1_555
N44 Nd3 1_555 1_555
O1 Nd1 1_555 1_555
H82 O1 1_555 1_555
H83 O1 1_555 1_555
O2 Nd1 1_555 1_555
H84 O2 1_555 1_555
H85 O2 1_555 1_555
O3 Nd2 1_555 1_555
H86 O3 1_555 1_555
H87 O3 1_555 1_555
O4 Nd2 1_555 1_555
H88 O4 1_555 1_555
H89 O4 1_555 1_555
O5 Nd2 1_555 1_555
H90 O5 1_555 1_555
H91 O5 1_555 1_555
O6 Nd3 1_555 1_555
H92 O6 1_555 1_555
H93 O6 1_555 1_555
O7 Nd3 1_555 1_555
H94 O7 1_555 1_555
H95 O7 1_555 1_555
O8 Nd3 1_555 1_555
H96 O8 1_555 1_555
O9 Nd3 1_555 1_555
H97 O9 1_555 1_555
H98 O9 1_555 1_555
O10 Nd4 1_555 1_555
H99 O10 1_555 1_555
H100 O10 1_555 1_555
O11 Nd4 1_555 1_555
H101 O11 1_555 1_555
H102 O11 1_555 1_555
O12 Nd4 1_555 1_555
H103 O12 1_555 1_555
H104 O12 1_555 1_555
O13 Nd4 1_555 1_555
H105 O13 1_555 1_555
H106 O13 1_555 1_555
O14 C113 1_555 1_555
H107 O14 1_555 1_555
O15 C114 1_555 1_555
O16 C116 1_555 1_555
H108 O16 1_555 1_555
O17 C118 1_555 1_555
H109 O17 1_555 1_555
O18 C119 1_555 1_555
H110 O18 1_555 1_555
O19 C117 1_555 1_555
H111 O19 1_555 1_555
O20 H112 1_555 1_555
H113 O20 1_555 1_555
O21 H114 1_555 1_555
H115 O21 1_555 1_555
O22 H116 1_555 1_555
H117 O22 1_555 1_555
O23 H118 1_555 1_555
H119 O23 1_555 1_555
O24 H120 1_555 1_555
H121 O24 1_555 1_555
O26 H122 1_555 1_555
H123 O26 1_555 1_555
O27 H124 1_555 1_555
H125 O27 1_555 1_555
O28 H126 1_555 1_555
H127 O28 1_555 1_555
Nd3C N4 1_555 1_555
Nd4_2 N28 1_555 1_555
N4C Nd3 1_555 1_555
N15C Nd3 1_555 1_555
N28_2 Nd4 1_555 1_555
C1 N1 1_555 1_555
C10 N2 1_555 1_555
C11 C12 1_555 1_555
C11 N2 1_555 1_555
C12 N1 1_555 1_555
C17 N7 1_555 1_555
C26 N8 1_555 1_555
C27 C28 1_555 1_555
C27 N8 1_555 1_555
C28 N7 1_555 1_555
C33 N13 1_555 1_555
C42 N14 1_555 1_555
C43 C44 1_555 1_555
C43 N14 1_555 1_555
C44 N13 1_555 1_555
C46 N16 1_555 1_555
C49 N19 1_555 1_555
C58 N20 1_555 1_555
C59 C60 1_555 1_555
C59 N20 1_555 1_555
C60 N19 1_555 1_555
C65 N25 1_555 1_555
C74 N26 1_555 1_555
C75 C76 1_555 1_555
C75 N26 1_555 1_555
C76 N25 1_555 1_555
C81 N31 1_555 1_555
C90 N32 1_555 1_555
C91 C92 1_555 1_555
C91 N32 1_555 1_555
C92 N31 1_555 1_555
C94 N33 1_555 1_555
C97 N37 1_555 1_555
C99 N38 1_555 1_555
C100 N37 1_555 1_555
C100 N38 1_555 1_555
C101 N40 1_555 1_555
C102 N39 1_555 1_555
C104 N40 1_555 1_555
C105 N41 1_555 1_555
C107 N42 1_555 1_555
C108 N41 1_555 1_555
C108 N42 1_555 1_555
C109 N44 1_555 1_555
C110 N43 1_555 1_555
C112 N44 1_555 1_555
C115 O8 1_555 1_555

#END
