
#######################################################################
#
#                 Cambridge Crystallographic Data Centre
#                                CCDC 
#
#######################################################################
#
# If this CIF has been generated from an entry in the Cambridge 
# Structural Database, then it will include bibliographic, chemical, 
# crystal, experimental, refinement or atomic coordinate data resulting 
# from the CCDC's data processing and validation procedures.
#
#######################################################################

data_SODREJ
_symmetry_cell_setting           triclinic
_symmetry_space_group_name_H-M   'P -1'
_symmetry_Int_Tables_number      2
_space_group_name_Hall           '-P 1'
loop_
_symmetry_equiv_pos_site_id
_symmetry_equiv_pos_as_xyz
1 x,y,z
2 -x,-y,-z
_cell_length_a                   10.9539(6)
_cell_length_b                   17.9486(11)
_cell_length_c                   22.4030(14)
_cell_angle_alpha                74.954(4)
_cell_angle_beta                 82.143(3)
_cell_angle_gamma                84.232(3)
_cell_volume                     4203.92
loop_
_atom_site_label
_atom_site_type_symbol
_atom_site_fract_x
_atom_site_fract_y
_atom_site_fract_z
Nd1 Nd 0.06830(4) -0.20779(3) -0.49704(2)
Os1 Os 0.55519(3) -0.22994(2) -0.508460(17)
Os2 Os -0.02296(3) -0.05899(2) -0.308470(17)
Nd2 Nd 0.50189(4) -0.06469(3) -0.33009(2)
N1 N 0.5674(6) -0.3425(5) -0.4477(4)
N2 N 0.6118(7) -0.3006(5) -0.5715(4)
N3 N 0.4702(7) -0.1341(5) -0.4092(4)
N4 N 0.2816(7) -0.2616(5) -0.5258(4)
N5 N 0.8401(7) -0.2174(4) -0.4968(3)
N6 N 0.5489(7) -0.0650(5) -0.6012(4)
N7 N -0.0212(7) -0.0153(5) -0.2291(3)
N8 N -0.0209(7) -0.1615(5) -0.2349(4)
N9 N -0.3163(7) -0.0546(5) -0.2784(3)
N10 N 0.2714(7) -0.0636(5) -0.3207(4)
N11 N -0.0219(7) 0.0942(5) -0.4156(4)
N12 N -0.0261(7) -0.1381(5) -0.4177(4)
N19 N 0.1589(7) -0.2738(5) -0.3895(4)
N20 N 0.0245(6) -0.3542(5) -0.4424(4)
N21 N 0.4322(7) -0.1623(5) -0.2225(3)
N22 N 0.6186(7) -0.2055(4) -0.3026(4)
C1 C 0.5394(9) -0.3619(6) -0.3860(5)
H1 H 0.5112 -0.3225 -0.3651
C2 C 0.5506(10) -0.4393(6) -0.3511(6)
H2 H 0.5296 -0.4517 -0.3073
C3 C 0.5929(10) -0.4976(7) -0.3812(7)
H3 H 0.6033 -0.5498 -0.3581
C4 C 0.6196(9) -0.4780(6) -0.4457(6)
C5 C 0.6595(10) -0.5335(7) -0.4831(8)
H4 H 0.6734 -0.5866 -0.4629
C6 C 0.6769(10) -0.5111(8) -0.5452(8)
H5 H 0.7003 -0.5491 -0.5681
C7 C 0.6614(10) -0.4326(7) -0.5779(7)
C8 C 0.6749(11) -0.4084(9) -0.6423(7)
H6 H 0.6966 -0.4446 -0.6670
C9 C 0.6566(12) -0.3328(10) -0.6690(6)
H7 H 0.6651 -0.3155 -0.7131
C10 C 0.6251(10) -0.2786(8) -0.6330(5)
H8 H 0.6132 -0.2253 -0.6532
C11 C 0.6283(9) -0.3773(6) -0.5436(5)
C12 C 0.6062(8) -0.4002(6) -0.4774(5)
C13 C 0.5011(7) -0.1709(6) -0.4445(4)
C14 C 0.3802(9) -0.2478(5) -0.5190(4)
C15 C 0.7366(9) -0.2205(5) -0.5004(4)
C16 C 0.5511(8) -0.1283(6) -0.5686(5)
C17 C -0.0237(10) 0.0579(6) -0.2268(5)
H9 H -0.0235 0.0971 -0.2647
C18 C -0.0266(11) 0.0800(7) -0.1713(5)
H10 H -0.0303 0.1333 -0.1718
C19 C -0.0241(10) 0.0254(7) -0.1165(5)
H11 H -0.0250 0.0400 -0.0787
C20 C -0.0201(9) -0.0524(6) -0.1168(4)
C21 C -0.0195(10) -0.1139(7) -0.0619(5)
H12 H -0.0189 -0.1022 -0.0230
C22 C -0.0198(10) -0.1895(7) -0.0638(5)
H13 H -0.0190 -0.2294 -0.0264
C23 C -0.0212(9) -0.2092(7) -0.1231(5)
C24 C -0.0240(10) -0.2843(7) -0.1281(5)
H14 H -0.0237 -0.3265 -0.0923
C25 C -0.0274(10) -0.2966(7) -0.1861(5)
H15 H -0.0301 -0.3476 -0.1907
C26 C -0.0266(8) -0.2337(6) -0.2381(4)
H16 H -0.0303 -0.2431 -0.2776
C27 C -0.0198(8) -0.1486(6) -0.1771(4)
C28 C -0.0193(8) -0.0705(6) -0.1744(4)
C29 C -0.2094(9) -0.0548(6) -0.2910(4)
C30 C 0.1650(8) -0.0623(5) -0.3185(4)
C31 C -0.0248(8) 0.0390(6) -0.3734(5)
C32 C -0.0248(8) -0.1089(6) -0.3769(4)
C49 C 0.2259(8) -0.2351(6) -0.3631(4)
H25 H 0.2441 -0.1837 -0.3846
C50 C 0.2701(9) -0.2667(6) -0.3053(5)
H26 H 0.3166 -0.2368 -0.2885
C51 C 0.2466(10) -0.3391(6) -0.2739(5)
H27 H 0.2788 -0.3616 -0.2355
C52 C 0.1732(9) -0.3818(6) -0.2986(5)
C53 C 0.1394(11) -0.4585(6) -0.2663(5)
H28 H 0.1659 -0.4818 -0.2267
C54 C 0.0707(11) -0.4979(7) -0.2915(5)
H29 H 0.0494 -0.5486 -0.2694
C55 C 0.0292(9) -0.4642(6) -0.3516(5)
C56 C -0.0381(10) -0.5041(7) -0.3806(6)
H30 H -0.0593 -0.5553 -0.3603
C57 C -0.0731(9) -0.4695(6) -0.4378(6)
H31 H -0.1194 -0.4961 -0.4576
C58 C -0.0398(9) -0.3942(6) -0.4670(5)
H32 H -0.0651 -0.3707 -0.5069
C59 C 0.0600(8) -0.3890(6) -0.3845(5)
C60 C 0.1325(8) -0.3471(5) -0.3571(4)
C61 C 0.3397(9) -0.1423(7) -0.1835(5)
H33 H 0.3022 -0.0913 -0.1940
C62 C 0.2947(10) -0.1929(8) -0.1277(5)
H34 H 0.2280 -0.1760 -0.1014
C63 C 0.3462(10) -0.2651(8) -0.1116(5)
H35 H 0.3168 -0.2997 -0.0736
C64 C 0.4452(9) -0.2894(6) -0.1517(5)
C65 C 0.5060(12) -0.3636(7) -0.1376(6)
H36 H 0.4785 -0.3998 -0.1003
C66 C 0.6019(12) -0.3849(8) -0.1753(6)
H37 H 0.6421 -0.4351 -0.1638
C67 C 0.6438(10) -0.3323(6) -0.2329(5)
C68 C 0.7413(10) -0.3525(6) -0.2751(5)
H38 H 0.7834 -0.4023 -0.2656
C69 C 0.7742(9) -0.3006(6) -0.3289(6)
H39 H 0.8392 -0.3134 -0.3580
C70 C 0.7112(9) -0.2275(6) -0.3413(5)
H40 H 0.7355 -0.1914 -0.3793
C71 C 0.5850(8) -0.2573(6) -0.2487(4)
C72 C 0.4851(8) -0.2352(6) -0.2070(4)
O1 O 0.2180(5) -0.1131(4) -0.4955(3)
H41 H 0.2025 -0.0652 -0.4860
H42 H 0.2987 -0.1234 -0.4966
O2 O 0.0503(7) -0.2638(5) -0.5848(3)
H43 H 0.1149 -0.2814 -0.6105
H44 H -0.0127 -0.2355 -0.6105
O3 O 0.6857(5) -0.0451(4) -0.4096(3)
H45 H 0.7625 -0.0395 -0.3988
H46 H 0.7121 -0.0424 -0.4475
O4 O 0.4399(6) 0.0200(4) -0.2582(3)
H47 H 0.4860 0.0470 -0.2459
H48 H 0.3646 0.0482 -0.2493
Nd1_2 Nd 1.06830(4) -0.20779(3) -0.49704(2)
Nd1A Nd -0.06830(4) 0.20779(3) -0.50296(2)
Nd2A Nd 0.49811(4) 0.06469(3) -0.66991(2)
Nd2_2 Nd -0.49811(4) -0.06469(3) -0.33009(2)
N5_2 N -0.1599(7) -0.2174(4) -0.4968(3)
N6A N 0.4511(7) 0.0650(5) -0.3988(4)
N9_2 N 0.6837(7) -0.0546(5) -0.2784(3)
N11A N 0.0219(7) -0.0942(5) -0.5844(4)
Os3 Os -0.71429(5) -0.80305(3) -0.121070(19)
N13 N -0.6950(9) -0.7816(6) -0.0339(4)
N14 N -0.6903(9) -0.9158(5) -0.0633(4)
N15 N -0.4244(12) -0.7941(6) -0.1605(5)
N16 N -0.7526(11) -0.6264(6) -0.1861(5)
N17 N -0.7404(8) -0.8597(6) -0.2407(4)
N18 N -1.0096(11) -0.7914(7) -0.0882(5)
C33 C -0.6986(13) -0.7136(8) -0.0205(6)
H17 H -0.7094 -0.6681 -0.0528
C34 C -0.6877(13) -0.7055(10) 0.0384(7)
H18 H -0.6920 -0.6555 0.0459
C35 C -0.6706(12) -0.7695(10) 0.0852(6)
H19 H -0.6635 -0.7644 0.1257
C36 C -0.6634(10) -0.8443(9) 0.0737(5)
C37 C -0.6475(11) -0.9145(10) 0.1184(5)
H20 H -0.6376 -0.9131 0.1596
C38 C -0.6455(11) -0.9842(10) 0.1055(6)
H21 H -0.6360 -1.0303 0.1373
C39 C -0.6578(11) -0.9880(8) 0.0429(5)
C40 C -0.6578(12) -1.0565(8) 0.0253(7)
H22 H -0.6471 -1.1047 0.0548
C41 C -0.6731(13) -1.0545(7) -0.0335(7)
H23 H -0.6743 -1.1017 -0.0450
C42 C -0.6871(12) -0.9847(7) -0.0780(6)
H24 H -0.6946 -0.9855 -0.1196
C43 C -0.6757(10) -0.9179(7) -0.0026(5)
C44 C -0.6773(10) -0.8467(7) 0.0124(5)
C45 C -0.5300(14) -0.7994(7) -0.1458(5)
C46 C -0.7373(12) -0.6928(7) -0.1637(5)
C47 C -0.7325(10) -0.8372(6) -0.1968(5)
C48 C -0.9019(13) -0.7997(7) -0.0989(5)
O5 O 0.2351(6) 0.0259(4) -0.4662(3)
O6 O -0.8669(9) -0.8146(6) -0.3453(4)
H49 H -0.9107 -0.7889 -0.3223
H50 H -0.8183 -0.7857 -0.3723
O7 O -0.3789(10) -0.8857(6) -0.2534(6)
O8 O -1.0261(15) -0.2922(9) 0.2516(9)
O9 O -0.2001(19) -0.7331(13) -0.0282(10)
O11 O -0.5496(18) -0.5405(10) -0.1993(8)
O12 O -0.7410(16) -0.3241(10) 0.3632(8)
O13 O -0.6528(18) -0.3492(11) 0.2380(8)
O14 O -1.068(2) -0.4486(13) 0.1047(10)
O16 O -0.692(2) -0.4949(13) 0.0292(12)
O17 O -0.897(3) -0.3884(15) 0.0020(10)
O18 O -0.790(3) -0.4421(15) -0.1085(14)
O19 O -0.787(2) -0.4482(14) 0.1864(12)
O20 O -0.531(2) -0.5583(13) -0.0647(11)
O10? O -0.2853(18) -0.7548(13) -0.0602(10)
O15? O -1.002(2) -0.6117(12) -0.1271(16)
loop_
_geom_bond_atom_site_label_1
_geom_bond_atom_site_label_2
_geom_bond_site_symmetry_1
_geom_bond_site_symmetry_2
Nd1 N4 1_555 1_555
Os1 N1 1_555 1_555
Os2 N7 1_555 1_555
Os3 N13 1_555 1_555
Nd2 N3 1_555 1_555
N1 C1 1_555 1_555
N2 Os1 1_555 1_555
N3 C13 1_555 1_555
N4 C14 1_555 1_555
N5 C15 1_555 1_555
N6 C16 1_555 1_555
N7 C17 1_555 1_555
N8 Os2 1_555 1_555
N9 C29 1_555 1_555
N10 Nd2 1_555 1_555
N11 C31 1_555 1_555
N12 Nd1 1_555 1_555
N13 C33 1_555 1_555
N14 Os3 1_555 1_555
N15 C45 1_555 1_555
N16 C46 1_555 1_555
N17 C47 1_555 1_555
N18 C48 1_555 1_555
N19 Nd1 1_555 1_555
N20 Nd1 1_555 1_555
N21 Nd2 1_555 1_555
N22 Nd2 1_555 1_555
C1 H1 1_555 1_555
C2 C1 1_555 1_555
H2 C2 1_555 1_555
C3 C2 1_555 1_555
H3 C3 1_555 1_555
C4 C3 1_555 1_555
C5 C4 1_555 1_555
H4 C5 1_555 1_555
C6 C5 1_555 1_555
H5 C6 1_555 1_555
C7 C6 1_555 1_555
C8 C7 1_555 1_555
H6 C8 1_555 1_555
C9 C8 1_555 1_555
H7 C9 1_555 1_555
C10 N2 1_555 1_555
H8 C10 1_555 1_555
C11 N2 1_555 1_555
C12 N1 1_555 1_555
C13 Os1 1_555 1_555
C14 Os1 1_555 1_555
C15 Os1 1_555 1_555
C16 Os1 1_555 1_555
C17 H9 1_555 1_555
C18 C17 1_555 1_555
H10 C18 1_555 1_555
C19 C18 1_555 1_555
H11 C19 1_555 1_555
C20 C19 1_555 1_555
C21 C20 1_555 1_555
H12 C21 1_555 1_555
C22 C21 1_555 1_555
H13 C22 1_555 1_555
C23 C22 1_555 1_555
C24 C23 1_555 1_555
H14 C24 1_555 1_555
C25 C24 1_555 1_555
H15 C25 1_555 1_555
C26 N8 1_555 1_555
H16 C26 1_555 1_555
C27 N8 1_555 1_555
C28 N7 1_555 1_555
C29 Os2 1_555 1_555
C30 Os2 1_555 1_555
C31 Os2 1_555 1_555
C32 Os2 1_555 1_555
C33 H17 1_555 1_555
C34 C33 1_555 1_555
H18 C34 1_555 1_555
C35 C34 1_555 1_555
H19 C35 1_555 1_555
C36 C35 1_555 1_555
C37 C36 1_555 1_555
H20 C37 1_555 1_555
C38 C37 1_555 1_555
H21 C38 1_555 1_555
C39 C38 1_555 1_555
C40 C39 1_555 1_555
H22 C40 1_555 1_555
C41 C40 1_555 1_555
H23 C41 1_555 1_555
C42 N14 1_555 1_555
H24 C42 1_555 1_555
C43 N14 1_555 1_555
C44 N13 1_555 1_555
C45 Os3 1_555 1_555
C46 Os3 1_555 1_555
C47 Os3 1_555 1_555
C48 Os3 1_555 1_555
C49 N19 1_555 1_555
H25 C49 1_555 1_555
C50 C49 1_555 1_555
H26 C50 1_555 1_555
C51 C50 1_555 1_555
H27 C51 1_555 1_555
C52 C51 1_555 1_555
C53 C52 1_555 1_555
H28 C53 1_555 1_555
C54 C53 1_555 1_555
H29 C54 1_555 1_555
C55 C54 1_555 1_555
C56 C55 1_555 1_555
H30 C56 1_555 1_555
C57 C56 1_555 1_555
H31 C57 1_555 1_555
C58 N20 1_555 1_555
H32 C58 1_555 1_555
C59 N20 1_555 1_555
C60 N19 1_555 1_555
C61 N21 1_555 1_555
H33 C61 1_555 1_555
C62 C61 1_555 1_555
H34 C62 1_555 1_555
C63 C62 1_555 1_555
H35 C63 1_555 1_555
C64 C63 1_555 1_555
C65 C64 1_555 1_555
H36 C65 1_555 1_555
C66 C65 1_555 1_555
H37 C66 1_555 1_555
C67 C66 1_555 1_555
C68 C67 1_555 1_555
H38 C68 1_555 1_555
C69 C68 1_555 1_555
H39 C69 1_555 1_555
C70 N22 1_555 1_555
H40 C70 1_555 1_555
C71 N22 1_555 1_555
C72 N21 1_555 1_555
O1 Nd1 1_555 1_555
H41 O1 1_555 1_555
H42 O1 1_555 1_555
O2 Nd1 1_555 1_555
H43 O2 1_555 1_555
H44 O2 1_555 1_555
O3 Nd2 1_555 1_555
H45 O3 1_555 1_555
H46 O3 1_555 1_555
O4 Nd2 1_555 1_555
H47 O4 1_555 1_555
H48 O4 1_555 1_555
O6 H49 1_555 1_555
H50 O6 1_555 1_555
Nd1_2 N5 1_555 1_555
Nd1A N11 1_555 1_555
Nd2A N6 1_555 1_555
Nd2_2 N9 1_555 1_555
N5_2 Nd1 1_555 1_555
N6A Nd2 1_555 1_555
N9_2 Nd2 1_555 1_555
N11A Nd1 1_555 1_555
N10 C30 1_555 1_555
N12 C32 1_555 1_555
C4 C12 1_555 1_555
C7 C11 1_555 1_555
C9 C10 1_555 1_555
C11 C12 1_555 1_555
C20 C28 1_555 1_555
C23 C27 1_555 1_555
C25 C26 1_555 1_555
C27 C28 1_555 1_555
C36 C44 1_555 1_555
C39 C43 1_555 1_555
C41 C42 1_555 1_555
C43 C44 1_555 1_555
C52 C60 1_555 1_555
C55 C59 1_555 1_555
C57 C58 1_555 1_555
C59 C60 1_555 1_555
C64 C72 1_555 1_555
C67 C71 1_555 1_555
C69 C70 1_555 1_555
C71 C72 1_555 1_555

#END
