
#######################################################################
#
#                 Cambridge Crystallographic Data Centre
#                                CCDC 
#
#######################################################################
#
# If this CIF has been generated from an entry in the Cambridge 
# Structural Database, then it will include bibliographic, chemical, 
# crystal, experimental, refinement or atomic coordinate data resulting 
# from the CCDC's data processing and validation procedures.
#
#######################################################################

data_SODRAF
_symmetry_cell_setting           triclinic
_symmetry_space_group_name_H-M   'P -1'
_symmetry_Int_Tables_number      2
_space_group_name_Hall           '-P 1'
loop_
_symmetry_equiv_pos_site_id
_symmetry_equiv_pos_as_xyz
1 x,y,z
2 -x,-y,-z
_cell_length_a                   10.971(12)
_cell_length_b                   17.303(18)
_cell_length_c                   22.09(2)
_cell_angle_alpha                72.965(10)
_cell_angle_beta                 80.75(3)
_cell_angle_gamma                84.799(17)
_cell_volume                     3953.04
loop_
_atom_site_label
_atom_site_type_symbol
_atom_site_fract_x
_atom_site_fract_y
_atom_site_fract_z
Os1 Os 0.054330(19) -0.739750(12) -0.500540(11)
Os2 Os 0.53477(2) -0.437080(13) -0.699730(11)
Pr1 Pr 0.56466(3) -0.714880(18) -0.490410(15)
Pr2 Pr 0.00963(3) -0.435060(18) -0.674000(15)
C1 C 0.0144(5) -0.8736(4) -0.3696(3)
H1 H -0.0178 -0.8308 -0.3519
C2 C 0.0182(6) -0.9525(4) -0.3286(3)
H2 H -0.0104 -0.9629 -0.2842
C3 C 0.0641(6) -1.0148(4) -0.3538(3)
H3 H 0.0687 -1.0686 -0.3267
C4 C 0.1042(5) -0.9988(3) -0.4195(3)
C5 C 0.1475(5) -1.0604(4) -0.4509(3)
H4 H 0.1532 -1.1154 -0.4262
C6 C 0.1801(5) -1.0406(4) -0.5151(3)
H5 H 0.2090 -1.0821 -0.5348
C7 C 0.1722(5) -0.9586(4) -0.5541(3)
C8 C 0.1981(5) -0.9356(4) -0.6215(3)
H6 H 0.2273 -0.9750 -0.6433
C9 C 0.1808(6) -0.8566(4) -0.6549(3)
H7 H 0.1964 -0.8405 -0.7003
C10 C 0.1401(5) -0.7993(4) -0.6219(3)
H8 H 0.1283 -0.7445 -0.6458
C11 C 0.1322(5) -0.8974(3) -0.5249(3)
C12 C 0.0982(5) -0.9173(3) -0.4577(3)
C13 C 0.0609(5) -0.6348(3) -0.5665(3)
C14 C 0.2342(6) -0.7306(3) -0.4925(3)
C15 C -0.1194(5) -0.7532(3) -0.5133(3)
C16 C -0.0034(5) -0.6759(3) -0.4396(3)
C17 C 0.5226(6) -0.5575(4) -0.7803(3)
H9 H 0.5192 -0.5993 -0.7411
C18 C 0.5195(7) -0.5782(5) -0.8373(4)
H10 H 0.5141 -0.6331 -0.8362
C19 C 0.5243(7) -0.5192(5) -0.8937(4)
H11 H 0.5225 -0.5330 -0.9322
C20 C 0.5319(6) -0.4380(4) -0.8957(3)
C21 C 0.5373(6) -0.3717(5) -0.9528(3)
H12 H 0.5358 -0.3818 -0.9927
C22 C 0.5443(7) -0.2951(5) -0.9510(3)
H13 H 0.5474 -0.2524 -0.9896
C23 C 0.5472(6) -0.2765(4) -0.8921(3)
C24 C 0.5549(6) -0.1984(4) -0.8872(3)
H14 H 0.5579 -0.1533 -0.9243
C25 C 0.5580(6) -0.1872(4) -0.8294(3)
H15 H 0.5652 -0.1344 -0.8259
C26 C 0.5507(6) -0.2539(4) -0.7747(3)
H16 H 0.5524 -0.2451 -0.7344
C27 C 0.5401(5) -0.3404(4) -0.8354(3)
C28 C 0.5339(5) -0.4220(4) -0.8372(3)
C29 C 0.3473(6) -0.4314(3) -0.6894(3)
C30 C 0.5294(5) -0.5397(4) -0.6296(3)
C31 C 0.5358(5) -0.3845(3) -0.6311(3)
C32 C 0.7204(6) -0.4455(3) -0.7160(3)
C49 C 0.4541(5) -0.9106(4) -0.4602(3)
H25 H 0.4350 -0.8848 -0.5021
C50 C 0.4157(6) -0.9892(4) -0.4302(3)
H26 H 0.3733 -1.0162 -0.4517
C51 C 0.4397(6) -1.0262(4) -0.3704(3)
H27 H 0.4129 -1.0794 -0.3494
C52 C 0.5044(6) -0.9867(4) -0.3386(3)
C53 C 0.5333(6) -1.0223(4) -0.2763(4)
H28 H 0.5050 -1.0745 -0.2529
C54 C 0.6012(7) -0.9833(4) -0.2490(3)
H29 H 0.6212 -1.0088 -0.2072
C55 C 0.6427(6) -0.9041(4) -0.2827(3)
C56 C 0.7121(6) -0.8610(4) -0.2553(3)
H30 H 0.7355 -0.8849 -0.2141
C57 C 0.7445(6) -0.7848(4) -0.2894(3)
H31 H 0.7908 -0.7547 -0.2721
C58 C 0.7090(5) -0.7506(4) -0.3507(3)
H32 H 0.7320 -0.6972 -0.3737
C59 C 0.6126(5) -0.8659(4) -0.3441(3)
C60 C 0.5418(5) -0.9085(3) -0.3731(3)
C61 C 0.1770(6) -0.3497(4) -0.8258(3)
H33 H 0.2096 -0.4040 -0.8160
C62 C 0.2293(6) -0.2943(4) -0.8818(3)
H34 H 0.2970 -0.3107 -0.9087
C63 C 0.1818(7) -0.2164(4) -0.8972(3)
H35 H 0.2166 -0.1780 -0.9349
C64 C 0.0812(6) -0.1933(4) -0.8572(3)
C65 C 0.0244(8) -0.1143(4) -0.8721(4)
H36 H 0.0560 -0.0744 -0.9098
C66 C -0.0751(8) -0.0955(4) -0.8328(4)
H37 H -0.1136 -0.0429 -0.8441
C67 C -0.1223(6) -0.1524(4) -0.7757(3)
C68 C -0.2221(7) -0.1343(4) -0.7321(4)
H38 H -0.2623 -0.0821 -0.7412
C69 C -0.2600(6) -0.1912(4) -0.6777(3)
H39 H -0.3263 -0.1791 -0.6480
C70 C -0.2011(6) -0.2688(4) -0.6650(3)
H40 H -0.2300 -0.3087 -0.6267
C71 C -0.0681(6) -0.2314(4) -0.7593(3)
C72 C 0.0352(6) -0.2525(4) -0.8015(3)
N1 N 0.0538(4) -0.8558(3) -0.4321(2)
N2 N 0.1169(4) -0.8184(3) -0.5582(2)
N3 N 0.0655(4) -0.5699(3) -0.6022(2)
N4 N 0.3378(5) -0.7264(3) -0.4904(2)
N5 N -0.2193(5) -0.7609(3) -0.5218(2)
N6 N -0.0381(4) -0.6359(3) -0.4052(2)
N7 N 0.5302(4) -0.4810(3) -0.7798(2)
N8 N 0.5415(4) -0.3293(3) -0.7773(2)
N9 N 0.2399(4) -0.4304(3) -0.6858(2)
N10 N 0.5248(5) -0.5955(3) -0.5846(3)
N11 N 0.5352(4) -0.3552(3) -0.5904(2)
N12 N 0.8279(5) -0.4504(3) -0.7257(2)
N19 N 0.5157(4) -0.8701(3) -0.4334(2)
N20 N 0.6453(4) -0.7894(3) -0.3778(2)
N21 N 0.0836(4) -0.3302(3) -0.7856(2)
N22 N -0.1065(4) -0.2888(3) -0.7043(2)
O1 O 0.5567(4) -0.7734(3) -0.5809(2)
H41 H 0.6316 -0.7804 -0.6058
H42 H 0.5062 -0.7360 -0.6081
O2 O 0.7122(4) -0.6156(2) -0.4862(2)
H43 H 0.7974 -0.6226 -0.4956
H44 H 0.7173 -0.5667 -0.4757
O3 O 0.0735(3) -0.52642(17) -0.74532(14)
H45 H 0.1325 -0.5630 -0.7424
H46 H 0.0084 -0.5468 -0.7474
O4 O -0.1796(3) -0.45848(17) -0.59213(14)
H47 H -0.2623 -0.4684 -0.5942
H48 H -0.2084 -0.4525 -0.5507
Pr1_2 Pr -0.43534(3) -0.714880(18) -0.490410(15)
Pr1A Pr 0.43534(3) -0.285120(18) -0.509590(15)
Pr2A Pr -0.00963(3) -0.564940(18) -0.326000(15)
Pr2_2 Pr 1.00963(3) -0.435060(18) -0.674000(15)
N5_2 N 0.7807(5) -0.7609(3) -0.5218(2)
N6A N 0.0381(4) -0.3641(3) -0.5948(2)
N11A N 0.4648(4) -0.6448(3) -0.4096(2)
N12_2 N -0.1721(5) -0.4504(3) -0.7257(2)
Os3 Os 0.81810(3) -0.276650(17) -0.132270(13)
C33 C 0.7997(7) -0.4648(5) -0.0891(4)
H17 H 0.7857 -0.4602 -0.1313
C34 C 0.8056(8) -0.5413(5) -0.0462(4)
H18 H 0.7951 -0.5876 -0.0593
C35 C 0.8267(8) -0.5504(5) 0.0157(4)
H19 H 0.8313 -0.6026 0.0454
C36 C 0.8411(7) -0.4811(5) 0.0335(4)
C37 C 0.8617(8) -0.4833(7) 0.0969(4)
H20 H 0.8704 -0.5340 0.1281
C38 C 0.8686(8) -0.4148(7) 0.1123(4)
H21 H 0.8798 -0.4180 0.1548
C39 C 0.8597(7) -0.3367(6) 0.0670(4)
C40 C 0.8612(7) -0.2635(7) 0.0814(4)
H22 H 0.8677 -0.2635 0.1238
C41 C 0.8534(8) -0.1936(7) 0.0359(4)
H23 H 0.8557 -0.1437 0.0455
C42 C 0.8419(8) -0.1946(5) -0.0261(4)
H24 H 0.8372 -0.1445 -0.0583
C43 C 0.8462(7) -0.3332(5) 0.0043(3)
C44 C 0.8334(7) -0.4045(5) -0.0122(3)
C45 C 1.0009(7) -0.2921(4) -0.1489(3)
C46 C 0.8384(9) -0.1583(5) -0.1752(4)
C47 C 0.7935(7) -0.3093(4) -0.2082(3)
C48 C 0.6296(8) -0.2561(5) -0.1178(3)
N13 N 0.8129(6) -0.3970(4) -0.0736(3)
N14 N 0.8374(6) -0.2631(4) -0.0419(3)
N15 N 1.1078(7) -0.3014(4) -0.1582(3)
N16 N 0.8558(8) -0.0897(4) -0.1940(3)
N17 N 0.7730(6) -0.3355(3) -0.2485(3)
N18 N 0.5242(7) -0.2440(5) -0.1129(3)
O5 O 0.7346(4) -0.4698(2) -0.46725(19)
H49 H 0.7909 -0.4624 -0.4504
H50 H 0.7083 -0.4421 -0.4415
O6 O 0.6263(5) -0.3112(3) -0.3462(3)
O7 O 0.7192(6) 0.0011(3) -0.1027(3)
H51 H 0.6536 -0.0251 -0.0920
H52 H 0.7585 -0.0183 -0.1331
O8 O 0.1279(5) -0.3762(3) -0.2631(3)
O9 O 0.2387(6) -0.2198(3) -0.3345(3)
H53 H 0.2014 -0.2688 -0.3137
H54 H 0.2182 -0.1856 -0.3098
O10 O 0.2648(7) -0.2625(4) -0.0536(4)
H55 H 0.1897 -0.2453 -0.0501
H56 H 0.2911 -0.2349 -0.0328
O11 O 0.5131(7) -0.0911(4) -0.0665(4)
H57 H 0.4636 -0.0557 -0.0865
H58 H 0.5205 -0.1229 -0.0899
O12 O 0.1211(10) -0.0797(5) -0.1846(4)
H59 H 0.0967 -0.1078 -0.1467
H60 H 0.1934 -0.0828 -0.2048
O13 O 0.8399(14) -0.0126(8) -0.9974(6)
O15 O 0.3328(13) -0.2115(7) -0.2091(6)
O16 O 0.223(2) -0.0945(11) -0.0731(8)
O19 O 0.5133(13) -0.2187(8) -0.2502(8)
O14? O 0.7035(13) 0.0119(7) -0.9753(6)
O17? O 0.2637(14) -0.1874(7) -0.2338(6)
O18? O 0.123(2) -0.1039(10) -0.0521(8)
loop_
_geom_bond_atom_site_label_1
_geom_bond_atom_site_label_2
_geom_bond_site_symmetry_1
_geom_bond_site_symmetry_2
Os1 C13 1_555 1_555
Os2 C29 1_555 1_555
Os3 C45 1_555 1_555
Pr1 N4 1_555 1_555
Pr2 N3 1_555 1_555
C1 H1 1_555 1_555
C2 C1 1_555 1_555
H2 C2 1_555 1_555
C3 C2 1_555 1_555
H3 C3 1_555 1_555
C4 C3 1_555 1_555
C5 C4 1_555 1_555
H4 C5 1_555 1_555
C6 C5 1_555 1_555
H5 C6 1_555 1_555
C7 C6 1_555 1_555
C8 C7 1_555 1_555
H6 C8 1_555 1_555
C9 C8 1_555 1_555
H7 C9 1_555 1_555
C10 C9 1_555 1_555
H8 C10 1_555 1_555
C11 C7 1_555 1_555
C12 C4 1_555 1_555
C13 N3 1_555 1_555
C14 Os1 1_555 1_555
C15 Os1 1_555 1_555
C16 Os1 1_555 1_555
C17 H9 1_555 1_555
C18 C17 1_555 1_555
H10 C18 1_555 1_555
C19 C18 1_555 1_555
H11 C19 1_555 1_555
C20 C19 1_555 1_555
C21 C20 1_555 1_555
H12 C21 1_555 1_555
C22 C21 1_555 1_555
H13 C22 1_555 1_555
C23 C22 1_555 1_555
C24 C23 1_555 1_555
H14 C24 1_555 1_555
C25 C24 1_555 1_555
H15 C25 1_555 1_555
C26 C25 1_555 1_555
H16 C26 1_555 1_555
C27 C23 1_555 1_555
C28 C20 1_555 1_555
C29 N9 1_555 1_555
C30 Os2 1_555 1_555
C31 Os2 1_555 1_555
C32 Os2 1_555 1_555
C33 H17 1_555 1_555
C34 C33 1_555 1_555
H18 C34 1_555 1_555
C35 C34 1_555 1_555
H19 C35 1_555 1_555
C36 C35 1_555 1_555
C37 C36 1_555 1_555
H20 C37 1_555 1_555
C38 C37 1_555 1_555
H21 C38 1_555 1_555
C39 C38 1_555 1_555
C40 C39 1_555 1_555
H22 C40 1_555 1_555
C41 C40 1_555 1_555
H23 C41 1_555 1_555
C42 C41 1_555 1_555
H24 C42 1_555 1_555
C43 C39 1_555 1_555
C44 C36 1_555 1_555
C45 N15 1_555 1_555
C46 Os3 1_555 1_555
C47 Os3 1_555 1_555
C48 Os3 1_555 1_555
C49 H25 1_555 1_555
C50 C49 1_555 1_555
H26 C50 1_555 1_555
C51 C50 1_555 1_555
H27 C51 1_555 1_555
C52 C51 1_555 1_555
C53 C52 1_555 1_555
H28 C53 1_555 1_555
C54 C53 1_555 1_555
H29 C54 1_555 1_555
C55 C54 1_555 1_555
C56 C55 1_555 1_555
H30 C56 1_555 1_555
C57 C56 1_555 1_555
H31 C57 1_555 1_555
C58 C57 1_555 1_555
H32 C58 1_555 1_555
C59 C55 1_555 1_555
C60 C52 1_555 1_555
C61 H33 1_555 1_555
C62 C61 1_555 1_555
H34 C62 1_555 1_555
C63 C62 1_555 1_555
H35 C63 1_555 1_555
C64 C63 1_555 1_555
C65 C64 1_555 1_555
H36 C65 1_555 1_555
C66 C65 1_555 1_555
H37 C66 1_555 1_555
C67 C66 1_555 1_555
C68 C67 1_555 1_555
H38 C68 1_555 1_555
C69 C68 1_555 1_555
H39 C69 1_555 1_555
C70 C69 1_555 1_555
H40 C70 1_555 1_555
C71 C67 1_555 1_555
C72 C64 1_555 1_555
N1 Os1 1_555 1_555
N2 Os1 1_555 1_555
N4 C14 1_555 1_555
N5 C15 1_555 1_555
N6 C16 1_555 1_555
N7 Os2 1_555 1_555
N8 Os2 1_555 1_555
N9 Pr2 1_555 1_555
N10 Pr1 1_555 1_555
N11 C31 1_555 1_555
N12 C32 1_555 1_555
N13 Os3 1_555 1_555
N14 Os3 1_555 1_555
N16 C46 1_555 1_555
N17 C47 1_555 1_555
N18 C48 1_555 1_555
N19 Pr1 1_555 1_555
N20 Pr1 1_555 1_555
N21 Pr2 1_555 1_555
N22 Pr2 1_555 1_555
O1 Pr1 1_555 1_555
H41 O1 1_555 1_555
H42 O1 1_555 1_555
O2 Pr1 1_555 1_555
H43 O2 1_555 1_555
H44 O2 1_555 1_555
O3 Pr2 1_555 1_555
H45 O3 1_555 1_555
H46 O3 1_555 1_555
O4 Pr2 1_555 1_555
H47 O4 1_555 1_555
H48 O4 1_555 1_555
O5 H49 1_555 1_555
H50 O5 1_555 1_555
O7 H51 1_555 1_555
H52 O7 1_555 1_555
O9 H53 1_555 1_555
H54 O9 1_555 1_555
O10 H55 1_555 1_555
H56 O10 1_555 1_555
O11 H57 1_555 1_555
H58 O11 1_555 1_555
O12 H59 1_555 1_555
H60 O12 1_555 1_555
Pr1_2 N5 1_555 1_555
Pr1A N11 1_555 1_555
Pr2A N6 1_555 1_555
Pr2_2 N12 1_555 1_555
N5_2 Pr1 1_555 1_555
N6A Pr2 1_555 1_555
N11A Pr1 1_555 1_555
N12_2 Pr2 1_555 1_555
C1 N1 1_555 1_555
C10 N2 1_555 1_555
C11 C12 1_555 1_555
C11 N2 1_555 1_555
C12 N1 1_555 1_555
C17 N7 1_555 1_555
C26 N8 1_555 1_555
C27 C28 1_555 1_555
C27 N8 1_555 1_555
C28 N7 1_555 1_555
C30 N10 1_555 1_555
C33 N13 1_555 1_555
C42 N14 1_555 1_555
C43 C44 1_555 1_555
C43 N14 1_555 1_555
C44 N13 1_555 1_555
C49 N19 1_555 1_555
C58 N20 1_555 1_555
C59 C60 1_555 1_555
C59 N20 1_555 1_555
C60 N19 1_555 1_555
C61 N21 1_555 1_555
C70 N22 1_555 1_555
C71 C72 1_555 1_555
C71 N22 1_555 1_555
C72 N21 1_555 1_555

#END
