
#######################################################################
#
#                 Cambridge Crystallographic Data Centre
#                                CCDC 
#
#######################################################################
#
# If this CIF has been generated from an entry in the Cambridge 
# Structural Database, then it will include bibliographic, chemical, 
# crystal, experimental, refinement or atomic coordinate data resulting 
# from the CCDC's data processing and validation procedures.
#
#######################################################################

data_SODXOA
_symmetry_cell_setting           monoclinic
_symmetry_space_group_name_H-M   'P c'
_symmetry_Int_Tables_number      7
_space_group_name_Hall           'P -2yc'
loop_
_symmetry_equiv_pos_site_id
_symmetry_equiv_pos_as_xyz
1 x,y,z
2 x,-y,1/2+z
_cell_length_a                   10.627(2)
_cell_length_b                   6.2498(13)
_cell_length_c                   17.169(3)
_cell_angle_alpha                90
_cell_angle_beta                 118.378(9)
_cell_angle_gamma                90
_cell_volume                     1003.28
loop_
_atom_site_label
_atom_site_type_symbol
_atom_site_fract_x
_atom_site_fract_y
_atom_site_fract_z
N1 N 0.9694(6) 0.6999(8) 0.8951(4)
N2 N 0.1981(6) -0.3117(8) 0.7523(4)
N3 N 0.6306(6) 0.2824(10) 0.8288(4)
N4 N 0.5147(6) 0.1482(10) 0.8129(4)
Ni1 Ni 1.08938(7) 0.68029(10) 0.82677(5)
O1 O 0.8961(4) 0.6870(6) 0.7086(3)
O2 O 0.9994(4) 0.9847(5) 0.7714(2)
O3 O 1.1219(5) 0.3634(7) 0.8540(3)
H1 H 1.2023 0.3446 0.8955
O4 O 0.2645(5) 1.2218(6) 0.4341(3)
O5 O 0.3750(4) 1.5351(6) 0.4827(3)
C1 C 0.8633(6) 0.5651(9) 0.8773(4)
H2 H 0.8515 0.4514 0.8395
C2 C 0.7690(6) 0.5814(11) 0.9109(4)
C3 C 0.7884(9) 0.7468(13) 0.9673(6)
H3 H 0.7262 0.7649 0.9908
C4 C 0.8998(8) 0.8863(11) 0.9893(5)
H4 H 0.9159 0.9969 1.0292
C5 C 0.9888(6) 0.8595(10) 0.9508(4)
H5 H 1.0633 0.9556 0.9645
C6 C 0.6511(6) 0.4270(10) 0.8834(4)
H6 H 0.5897 0.4377 0.9078
C7 C 0.4882(7) 0.0194(11) 0.7507(4)
H7 H 0.5416 0.0270 0.7208
C8 C 0.3750(7) -0.1429(11) 0.7241(4)
C9 C 0.2986(6) -0.1647(9) 0.7708(4)
H8 H 0.3191 -0.0713 0.8175
C10 C 0.1685(6) -0.4418(10) 0.6844(4)
H9 H 0.0981 -0.5453 0.6703
C11 C 0.2372(8) -0.4296(13) 0.6345(5)
H10 H 0.2134 -0.5239 0.5877
C12 C 0.3420(10) -0.2774(13) 0.6538(6)
H11 H 0.3889 -0.2662 0.6200
C13 C 0.8946(6) 0.8874(10) 0.7131(4)
C14 C 0.7622(5) 1.0068(8) 0.6506(3)
C15 C 0.6516(6) 0.9030(9) 0.5804(4)
H12 H 0.6629 0.7606 0.5693
C16 C 0.5240(6) 1.0063(9) 0.5261(4)
H13 H 0.4503 0.9342 0.4793
C17 C 0.5080(5) 1.2189(8) 0.5428(3)
C18 C 0.6200(5) 1.3236(8) 0.6122(3)
H14 H 0.6100 1.4668 0.6230
C19 C 0.7466(5) 1.2182(9) 0.6656(3)
H15 H 0.8212 1.2908 0.7117
C20 C 0.3721(6) 1.3363(9) 0.4828(4)
H16 H 1.085(14) 0.267(10) 0.833(8)
N2_2 N 1.1981(6) 0.6883(8) 0.7523(4)
Ni1_2 Ni 0.08938(7) -0.31971(10) 0.82677(5)
Ni1A Ni 0.08938(7) 1.31971(10) 0.32677(5)
O4A O 1.2645(5) 0.7782(6) 0.9341(3)
loop_
_geom_bond_atom_site_label_1
_geom_bond_atom_site_label_2
_geom_bond_site_symmetry_1
_geom_bond_site_symmetry_2
N1 Ni1 1_555 1_555
N2 C9 1_555 1_555
N3 N4 1_555 1_555
N4 C7 1_555 1_555
Ni1 O1 1_555 1_555
O1 C13 1_555 1_555
O2 Ni1 1_555 1_555
O3 Ni1 1_555 1_555
H1 O3 1_555 1_555
O4 C20 1_555 1_555
O5 C20 1_555 1_555
C1 N1 1_555 1_555
H2 C1 1_555 1_555
C2 C1 1_555 1_555
C3 C2 1_555 1_555
H3 C3 1_555 1_555
C4 C3 1_555 1_555
H4 C4 1_555 1_555
C5 N1 1_555 1_555
H5 C5 1_555 1_555
C6 N3 1_555 1_555
H6 C6 1_555 1_555
C7 H7 1_555 1_555
C8 C7 1_555 1_555
C9 C8 1_555 1_555
H8 C9 1_555 1_555
C10 N2 1_555 1_555
H9 C10 1_555 1_555
C11 C10 1_555 1_555
H10 C11 1_555 1_555
C12 C8 1_555 1_555
H11 C12 1_555 1_555
C13 O2 1_555 1_555
C14 C13 1_555 1_555
C15 C14 1_555 1_555
H12 C15 1_555 1_555
C16 C15 1_555 1_555
H13 C16 1_555 1_555
C17 C16 1_555 1_555
C18 C17 1_555 1_555
H14 C18 1_555 1_555
C19 C14 1_555 1_555
H15 C19 1_555 1_555
C20 C17 1_555 1_555
H16 O3 1_555 1_555
N2_2 Ni1 1_555 1_555
Ni1_2 N2 1_555 1_555
Ni1A O4 1_555 1_555
O4A Ni1 1_555 1_555
C2 C6 1_555 1_555
C4 C5 1_555 1_555
C11 C12 1_555 1_555
C18 C19 1_555 1_555

#END
