
#######################################################################
#
#                 Cambridge Crystallographic Data Centre
#                                CCDC 
#
#######################################################################
#
# If this CIF has been generated from an entry in the Cambridge 
# Structural Database, then it will include bibliographic, chemical, 
# crystal, experimental, refinement or atomic coordinate data resulting 
# from the CCDC's data processing and validation procedures.
#
#######################################################################

data_SODXAM
_symmetry_cell_setting           triclinic
_symmetry_space_group_name_H-M   'P -1'
_symmetry_Int_Tables_number      2
_space_group_name_Hall           '-P 1'
loop_
_symmetry_equiv_pos_site_id
_symmetry_equiv_pos_as_xyz
1 x,y,z
2 -x,-y,-z
_cell_length_a                   8.2609(16)
_cell_length_b                   10.149(2)
_cell_length_c                   12.461(2)
_cell_angle_alpha                112.995(2)
_cell_angle_beta                 99.133(3)
_cell_angle_gamma                99.881(3)
_cell_volume                     917.62
loop_
_atom_site_label
_atom_site_type_symbol
_atom_site_fract_x
_atom_site_fract_y
_atom_site_fract_z
N1 N 0.2333(6) 0.5382(5) 0.8770(4)
N2 N 0.3649(8) 0.6672(7) 0.6155(5)
N3 N 0.4025(8) 0.6867(7) 0.5152(5)
N4 N 0.5416(6) 0.7841(5) 0.2437(4)
O1 O 0.2837(5) 0.4998(4) 1.1085(3)
O2 O 0.3979(5) 0.3322(4) 0.9919(4)
O3 O 0.1885(5) -0.2027(5) 1.1351(4)
O4 O 0.3723(6) -0.1371(5) 1.0449(4)
Zn1 Zn 0.37853(10) 0.66329(8) 1.06107(6)
C1 C 0.2803(7) 0.5777(7) 0.7940(5)
H1 H 0.3690 0.6615 0.8186
C2 C 0.2008(8) 0.4976(7) 0.6712(5)
C3 C 0.0674(9) 0.3744(7) 0.6357(6)
H2 H 0.0134 0.3180 0.5546
C4 C 0.0153(8) 0.3362(7) 0.7217(6)
H3 H -0.0760 0.2553 0.7000
C5 C 0.1023(7) 0.4211(7) 0.8417(5)
H4 H 0.0676 0.3950 0.8997
C6 C 0.2597(9) 0.5438(8) 0.5818(6)
H5 H 0.2187 0.4814 0.5001
C7 C 0.5292(9) 0.7926(8) 0.5448(6)
H6 H 0.5863 0.8472 0.6255
C8 C 0.5892(8) 0.8319(8) 0.4528(5)
C9 C 0.4994(8) 0.7530(7) 0.3313(5)
H7 H 0.4055 0.6749 0.3112
C10 C 0.6735(8) 0.8970(7) 0.2732(6)
H8 H 0.7028 0.9209 0.2128
C11 C 0.7702(9) 0.9817(8) 0.3910(6)
H9 H 0.8632 1.0593 0.4084
C12 C 0.7262(9) 0.9489(8) 0.4814(6)
H10 H 0.7881 1.0051 0.5609
C13 C 0.3120(8) 0.3730(7) 1.0667(5)
C14 C 0.2288(7) 0.2629(6) 1.1088(5)
C15 C 0.2759(7) 0.1298(6) 1.0836(5)
H11 H 0.3582 0.1095 1.0410
C16 C 0.2013(7) 0.0275(6) 1.1216(5)
C17 C 0.0766(8) 0.0579(7) 1.1818(5)
H12 H 0.0229 -0.0119 1.2045
C18 C 0.0282(8) 0.1907(7) 1.2100(6)
H13 H -0.0556 0.2096 1.2515
C19 C 0.1087(8) 0.2947(7) 1.1745(5)
H14 H 0.0813 0.3851 1.1951
C20 C 0.2567(8) -0.1127(6) 1.0991(6)
N4_2 N 0.5416(6) 0.7841(5) 1.2437(4)
O2A O 0.6021(5) 0.6678(4) 1.0081(4)
O3_2 O 0.1885(5) 0.7973(5) 1.1351(4)
O4_2 O 0.3723(6) 0.8629(5) 1.0449(4)
Zn1_2 Zn 0.37853(10) -0.33671(8) 1.06107(6)
Zn1_3 Zn 0.37853(10) 0.66329(8) 0.06107(6)
Zn1A Zn 0.62147(10) 0.33671(8) 0.93893(6)
loop_
_geom_bond_atom_site_label_1
_geom_bond_atom_site_label_2
_geom_bond_site_symmetry_1
_geom_bond_site_symmetry_2
N1 Zn1 1_555 1_555
N2 N3 1_555 1_555
N3 C7 1_555 1_555
N4 C9 1_555 1_555
O1 Zn1 1_555 1_555
O2 C13 1_555 1_555
O3 C20 1_555 1_555
O4 C20 1_555 1_555
Zn1 N4_2 1_555 1_555
C1 N1 1_555 1_555
H1 C1 1_555 1_555
C2 C1 1_555 1_555
C3 C2 1_555 1_555
H2 C3 1_555 1_555
C4 C3 1_555 1_555
H3 C4 1_555 1_555
C5 N1 1_555 1_555
H4 C5 1_555 1_555
C6 N2 1_555 1_555
H5 C6 1_555 1_555
C7 H6 1_555 1_555
C8 C7 1_555 1_555
C9 C8 1_555 1_555
H7 C9 1_555 1_555
C10 N4 1_555 1_555
H8 C10 1_555 1_555
C11 C10 1_555 1_555
H9 C11 1_555 1_555
C12 C8 1_555 1_555
H10 C12 1_555 1_555
C13 O1 1_555 1_555
C14 C13 1_555 1_555
C15 C14 1_555 1_555
H11 C15 1_555 1_555
C16 C15 1_555 1_555
C17 C16 1_555 1_555
H12 C17 1_555 1_555
C18 C17 1_555 1_555
H13 C18 1_555 1_555
C19 C14 1_555 1_555
H14 C19 1_555 1_555
C20 C16 1_555 1_555
O2A Zn1 1_555 1_555
O3_2 Zn1 1_555 1_555
O4_2 Zn1 1_555 1_555
Zn1_2 O3 1_555 1_555
Zn1_3 N4 1_555 1_555
Zn1A O2 1_555 1_555
O4 Zn1_2 1_555 1_555
C2 C6 1_555 1_555
C4 C5 1_555 1_555
C11 C12 1_555 1_555
C18 C19 1_555 1_555

#END
