
#######################################################################
#
#                 Cambridge Crystallographic Data Centre
#                                CCDC 
#
#######################################################################
#
# If this CIF has been generated from an entry in the Cambridge 
# Structural Database, then it will include bibliographic, chemical, 
# crystal, experimental, refinement or atomic coordinate data resulting 
# from the CCDC's data processing and validation procedures.
#
#######################################################################

data_SODXEQ
_symmetry_cell_setting           triclinic
_symmetry_space_group_name_H-M   'P -1'
_symmetry_Int_Tables_number      2
_space_group_name_Hall           '-P 1'
loop_
_symmetry_equiv_pos_site_id
_symmetry_equiv_pos_as_xyz
1 x,y,z
2 -x,-y,-z
_cell_length_a                   8.4150(11)
_cell_length_b                   10.1129(11)
_cell_length_c                   14.677(2)
_cell_angle_alpha                74.1740(10)
_cell_angle_beta                 80.7420(10)
_cell_angle_gamma                78.6730(10)
_cell_volume                     1170.61
loop_
_atom_site_label
_atom_site_type_symbol
_atom_site_fract_x
_atom_site_fract_y
_atom_site_fract_z
N1 N 0.4998(5) 1.0887(4) 0.1923(3)
O1 O 0.7349(4) 0.9103(3) 0.0883(2)
O2 O 0.5981(4) 0.8422(3) -0.0040(2)
O3 O 0.6242(5) 0.3319(4) 0.0370(3)
O4 O 0.8312(5) 0.1882(3) 0.0972(3)
Zn1 Zn 0.63158(7) 1.11338(5) 0.04885(4)
C1 C 0.3698(8) 1.1816(7) 0.2106(4)
H1 H 0.3366 1.2562 0.1607
C2 C 0.2821(8) 1.1730(7) 0.2995(4)
H2 H 0.1928 1.2406 0.3085
C3 C 0.3275(8) 1.0645(7) 0.3742(4)
C4 C 0.4608(9) 0.9671(7) 0.3563(4)
H3 H 0.4948 0.8907 0.4048
C5 C 0.5431(8) 0.9845(6) 0.2651(4)
H4 H 0.6340 0.9191 0.2546
C6 C 0.2430(9) 1.0488(7) 0.4712(4)
H5 H 0.2729 0.9679 0.5174
C7 C 0.6977(6) 0.8187(4) 0.0541(3)
C8 C 0.7892(6) 0.6727(5) 0.0843(3)
C9 C 0.7334(6) 0.5630(5) 0.0648(3)
H6 H 0.6404 0.5803 0.0340
C10 C 0.8172(6) 0.4279(5) 0.0916(3)
C11 C 0.9588(7) 0.4028(6) 0.1354(4)
H7 H 1.0164 0.3129 0.1519
C12 C 1.0141(8) 0.5120(6) 0.1545(5)
H8 H 1.1085 0.4952 0.1840
C13 C 0.9293(7) 0.6449(5) 0.1297(4)
H9 H 0.9661 0.7174 0.1435
C14 C 0.7549(6) 0.3076(5) 0.0742(3)
N2 N 0.1322(7) 1.1403(7) 0.4938(3)
N3 N 0.0742(7) 1.1033(6) 0.5917(3)
C15 C -0.0453(8) 1.1890(7) 0.6155(4)
H10 H -0.0879 1.2649 0.5692
C16 C -0.3142(7) 1.2464(6) 0.8346(4)
H11 H -0.4020 1.3105 0.8511
C17 C -0.2494(8) 1.2670(7) 0.7409(4)
H12 H -0.2920 1.3437 0.6952
C18 C -0.1181(7) 1.1705(6) 0.7154(4)
C19 C -0.0570(7) 1.0595(5) 0.7864(4)
H13 H 0.0313 0.9941 0.7723
C20 C -0.1302(6) 1.0486(5) 0.8780(3)
H14 H -0.0891 0.9739 0.9255
N4 N -0.2575(5) 1.1392(4) 0.9032(3)
O2A O 0.4019(4) 1.1578(3) 0.0040(2)
O3_2 O 0.6242(5) 1.3319(4) 0.0370(3)
O4_2 O 0.8312(5) 1.1882(3) 0.0972(3)
Zn1_2 Zn -0.36842(7) 1.11338(5) 1.04885(4)
Zn1_3 Zn 0.63158(7) 0.11338(5) 0.04885(4)
Zn1A Zn 0.36842(7) 0.88662(5) -0.04885(4)
N4_2 N 0.7425(5) 1.1392(4) -0.0968(3)
O5 O 0.641(4) 0.311(3) 0.382(2)
H15 H 0.6408 0.3941 0.3475
H16 H 0.5433 0.2954 0.3965
O6 O 0.709(5) 0.499(4) 0.453(4)
H17 H 0.7838 0.4353 0.4394
H18 H 0.6197 0.4681 0.4707
loop_
_geom_bond_atom_site_label_1
_geom_bond_atom_site_label_2
_geom_bond_site_symmetry_1
_geom_bond_site_symmetry_2
N1 Zn1 1_555 1_555
O1 Zn1 1_555 1_555
O2 C7 1_555 1_555
O3 C14 1_555 1_555
O4 C14 1_555 1_555
Zn1 O2A 1_555 1_555
C1 N1 1_555 1_555
H1 C1 1_555 1_555
C2 C1 1_555 1_555
H2 C2 1_555 1_555
C3 C2 1_555 1_555
C4 C3 1_555 1_555
H3 C4 1_555 1_555
C5 N1 1_555 1_555
H4 C5 1_555 1_555
C6 C3 1_555 1_555
H5 C6 1_555 1_555
C7 O1 1_555 1_555
C8 C7 1_555 1_555
C9 C8 1_555 1_555
H6 C9 1_555 1_555
C10 C9 1_555 1_555
C11 C10 1_555 1_555
H7 C11 1_555 1_555
C12 C11 1_555 1_555
H8 C12 1_555 1_555
C13 C8 1_555 1_555
H9 C13 1_555 1_555
C14 C10 1_555 1_555
N2 C6 1_555 1_555
N3 N2 1_555 1_555
C15 N3 1_555 1_555
H10 C15 1_555 1_555
C16 H11 1_555 1_555
C17 C16 1_555 1_555
H12 C17 1_555 1_555
C18 C15 1_555 1_555
C19 C18 1_555 1_555
H13 C19 1_555 1_555
C20 C19 1_555 1_555
H14 C20 1_555 1_555
N4 C16 1_555 1_555
O5 H15 1_555 1_555
H16 O5 1_555 1_555
O6 H17 1_555 1_555
H18 O6 1_555 1_555
O3_2 Zn1 1_555 1_555
O4_2 Zn1 1_555 1_555
Zn1_2 N4 1_555 1_555
Zn1_3 O3 1_555 1_555
Zn1A O2 1_555 1_555
N4_2 Zn1 1_555 1_555
O4 Zn1_3 1_555 1_555
C4 C5 1_555 1_555
C12 C13 1_555 1_555
C17 C18 1_555 1_555
C20 N4 1_555 1_555

#END
