
#######################################################################
#
#                 Cambridge Crystallographic Data Centre
#                                CCDC 
#
#######################################################################
#
# If this CIF has been generated from an entry in the Cambridge 
# Structural Database, then it will include bibliographic, chemical, 
# crystal, experimental, refinement or atomic coordinate data resulting 
# from the CCDC's data processing and validation procedures.
#
#######################################################################

data_SODXUG
_symmetry_cell_setting           orthorhombic
_symmetry_space_group_name_H-M   'P b c a'
_symmetry_Int_Tables_number      61
_space_group_name_Hall           '-P 2ac 2ab'
loop_
_symmetry_equiv_pos_site_id
_symmetry_equiv_pos_as_xyz
1 x,y,z
2 1/2-x,-y,1/2+z
3 -x,1/2+y,1/2-z
4 1/2+x,1/2-y,-z
5 -x,-y,-z
6 1/2+x,y,1/2-z
7 x,1/2-y,1/2+z
8 1/2-x,1/2+y,z
_cell_length_a                   16.2445(11)
_cell_length_b                   16.4805(11)
_cell_length_c                   25.7372(17)
_cell_angle_alpha                90
_cell_angle_beta                 90
_cell_angle_gamma                90
_cell_volume                     6890.3
loop_
_atom_site_label
_atom_site_type_symbol
_atom_site_fract_x
_atom_site_fract_y
_atom_site_fract_z
Co1 Co 0.5000 0.0000 0.5000
Co2 Co 0.36130(3) 0.05795(3) 0.42446(2)
Co3 Co 0.57669(3) 0.01469(3) 0.39101(2)
N1 N 0.2459(2) 0.1199(2) 0.42444(13)
N2 N 0.0374(3) 0.0126(3) 0.4884(2)
N3 N 0.8144(3) 0.0342(3) 0.32686(17)
O1 O 0.55553(18) -0.05708(17) 0.32407(11)
C1 C 0.5052(3) -0.1156(3) 0.32220(16)
O2 O 0.4451(2) -0.1259(2) 0.35140(14)
C2 C 0.5176(3) -0.1780(2) 0.27967(16)
C3 C 0.4511(3) -0.1983(3) 0.25019(19)
H1 H 0.4000 -0.1755 0.2577
O3 O 0.46637(17) -0.38834(18) 0.14792(11)
C4 C 0.4585(3) -0.2530(3) 0.20871(17)
H2 H 0.4123 -0.2650 0.1888
O4 O 0.59111(17) -0.35005(18) 0.12141(12)
C5 C 0.5321(2) -0.2891(2) 0.19674(15)
O5 O 0.59975(15) 0.07044(15) 0.47095(10)
C6 C 0.6028(2) -0.2722(2) 0.22813(16)
O6 O 0.69309(16) 0.03899(17) 0.53169(11)
C7 C 0.6790(3) -0.3116(3) 0.22129(19)
H3 H 0.6853 -0.3486 0.1943
O7 O 0.87346(18) 0.40525(18) 0.42048(11)
C8 C 0.7438(3) -0.2961(4) 0.2537(2)
H4 H 0.7936 -0.3227 0.2486
O8 O 0.91319(16) 0.39506(15) 0.50341(10)
C9 C 0.7358(3) -0.2403(4) 0.2947(2)
H5 H 0.7804 -0.2303 0.3164
O9 O 0.69542(19) 0.04664(19) 0.37074(13)
O10 O 0.46788(15) -0.01013(15) 0.42561(9)
H6 H 0.4537 -0.0669 0.4186
C10 C 0.6639(3) -0.2010(3) 0.30287(18)
H7 H 0.6594 -0.1643 0.3302
O11 O 0.3274(2) -0.0039(2) 0.35568(13)
H8 H 0.2808 0.0053 0.3420
H9 H 0.3602 -0.0378 0.3417
C11 C 0.5947(3) -0.2153(2) 0.26995(16)
C12 C 0.5315(2) -0.3480(2) 0.15156(15)
C13 C 0.6658(2) 0.0842(2) 0.49620(14)
C14 C 0.7151(2) 0.1605(2) 0.48460(15)
C15 C 0.7956(2) 0.1620(2) 0.50031(16)
H10 H 0.8183 0.1157 0.5152
C16 C 0.8449(3) 0.2315(2) 0.49448(17)
H11 H 0.8986 0.2310 0.5068
C17 C 0.8151(2) 0.3002(2) 0.47090(15)
C18 C 0.7314(2) 0.3013(2) 0.45287(15)
C19 C 0.6955(3) 0.3715(2) 0.43001(17)
H12 H 0.7281 0.4171 0.4247
C20 C 0.6158(3) 0.3737(3) 0.4158(2)
H13 H 0.5945 0.4201 0.4002
C21 C 0.5653(3) 0.3068(3) 0.42426(19)
H14 H 0.5100 0.3091 0.4148
C22 C 0.5960(3) 0.2381(2) 0.44624(17)
H15 H 0.5611 0.1941 0.4517
C23 C 0.6799(2) 0.2320(2) 0.46096(15)
C24 C 0.8709(2) 0.3727(2) 0.46431(15)
C25 C 0.1787(3) 0.0856(3) 0.44319(18)
H16 H 0.1837 0.0346 0.4584
C26 C 0.1006(3) 0.1209(3) 0.44168(19)
C27 C 0.0930(3) 0.1962(3) 0.4182(2)
H17 H 0.0420 0.2216 0.4161
C28 C 0.1618(3) 0.2326(3) 0.3984(2)
H18 H 0.1581 0.2830 0.3824
C29 C 0.2369(3) 0.1938(3) 0.40240(19)
H19 H 0.2833 0.2198 0.3893
C30 C 0.0305(3) 0.0805(3) 0.4660(2)
H20 H -0.0208 0.1055 0.4650
C31 C 0.7362(3) 0.0172(3) 0.3354(2)
H21 H 0.7104 -0.0194 0.3132
C32 C 0.8583(3) 0.0897(3) 0.3595(2)
H22 H 0.8451 0.1444 0.3497
H23 H 0.9164 0.0810 0.3557
H24 H 0.8428 0.0810 0.3951
C33 C 0.8572(4) -0.0039(3) 0.2841(2)
H25 H 0.9018 -0.0361 0.2973
H26 H 0.8785 0.0371 0.2613
H27 H 0.8197 -0.0381 0.2653
N1D N -0.2459(2) -0.1199(2) 0.57556(13)
N2D N -0.0374(3) -0.0126(3) 0.5116(2)
C25D C -0.1787(3) -0.0856(3) 0.55681(18)
H16D H -0.1837 -0.0346 0.5416
C26D C -0.1006(3) -0.1209(3) 0.55832(19)
C27D C -0.0930(3) -0.1962(3) 0.5818(2)
H17D H -0.0420 -0.2216 0.5839
C28D C -0.1618(3) -0.2326(3) 0.6016(2)
H18D H -0.1581 -0.2830 0.6176
C29D C -0.2369(3) -0.1938(3) 0.59760(19)
H19D H -0.2833 -0.2198 0.6107
C30D C -0.0305(3) -0.0805(3) 0.5340(2)
H20D H 0.0208 -0.1055 0.5350
Co2D Co -0.36130(3) -0.05795(3) 0.57554(2)
Co3D Co -0.57669(3) -0.01469(3) 0.60899(2)
N3D N -0.8144(3) -0.0342(3) 0.67314(17)
O1D O -0.55553(18) 0.05708(17) 0.67593(11)
C1D C -0.5052(3) 0.1156(3) 0.67780(16)
O2D O -0.4451(2) 0.1259(2) 0.64860(14)
C2D C -0.5176(3) 0.1780(2) 0.72033(16)
C3D C -0.4511(3) 0.1983(3) 0.74981(19)
H1D H -0.4000 0.1755 0.7423
O3D O -0.46637(17) 0.38834(18) 0.85208(11)
C4D C -0.4585(3) 0.2530(3) 0.79129(17)
H2D H -0.4123 0.2650 0.8112
O4D O -0.59111(17) 0.35005(18) 0.87859(12)
C5D C -0.5321(2) 0.2891(2) 0.80326(15)
O5D O -0.59975(15) -0.07044(15) 0.52905(10)
C6D C -0.6028(2) 0.2722(2) 0.77187(16)
O6D O -0.69309(16) -0.03899(17) 0.46831(11)
C7D C -0.6790(3) 0.3116(3) 0.77871(19)
H3D H -0.6853 0.3486 0.8057
O7D O -0.87346(18) -0.40525(18) 0.57952(11)
C8D C -0.7438(3) 0.2961(4) 0.7463(2)
H4D H -0.7936 0.3227 0.7514
O8D O -0.91319(16) -0.39506(15) 0.49659(10)
C9D C -0.7358(3) 0.2403(4) 0.7053(2)
H5D H -0.7804 0.2303 0.6836
O9D O -0.69542(19) -0.04664(19) 0.62926(13)
O10D O -0.46788(15) 0.01013(15) 0.57439(9)
H6D H -0.4537 0.0669 0.5814
C10D C -0.6639(3) 0.2010(3) 0.69713(18)
H7D H -0.6594 0.1643 0.6698
O11D O -0.3274(2) 0.0039(2) 0.64432(13)
H8D H -0.2808 -0.0053 0.6580
H9D H -0.3602 0.0378 0.6583
C11D C -0.5947(3) 0.2153(2) 0.73005(16)
C12D C -0.5315(2) 0.3480(2) 0.84844(15)
C13D C -0.6658(2) -0.0842(2) 0.50380(14)
C14D C -0.7151(2) -0.1605(2) 0.51540(15)
C15D C -0.7956(2) -0.1620(2) 0.49969(16)
H10D H -0.8183 -0.1157 0.4848
C16D C -0.8449(3) -0.2315(2) 0.50552(17)
H11D H -0.8986 -0.2310 0.4932
C17D C -0.8151(2) -0.3002(2) 0.52910(15)
C18D C -0.7314(2) -0.3013(2) 0.54713(15)
C19D C -0.6955(3) -0.3715(2) 0.56999(17)
H12D H -0.7281 -0.4171 0.5753
C20D C -0.6158(3) -0.3737(3) 0.5842(2)
H13D H -0.5945 -0.4201 0.5998
C21D C -0.5653(3) -0.3068(3) 0.57574(19)
H14D H -0.5100 -0.3091 0.5852
C22D C -0.5960(3) -0.2381(2) 0.55376(17)
H15D H -0.5611 -0.1941 0.5483
C23D C -0.6799(2) -0.2320(2) 0.53904(15)
C24D C -0.8709(2) -0.3727(2) 0.53569(15)
C31D C -0.7362(3) -0.0172(3) 0.6646(2)
H21D H -0.7104 0.0194 0.6868
C32D C -0.8583(3) -0.0897(3) 0.6405(2)
H22D H -0.8451 -0.1444 0.6503
H23D H -0.9164 -0.0810 0.6443
H24D H -0.8428 -0.0810 0.6049
C33D C -0.8572(4) 0.0039(3) 0.7159(2)
H25D H -0.9018 0.0361 0.7027
H26D H -0.8785 -0.0371 0.7387
H27D H -0.8197 0.0381 0.7347
Co1_2 Co -0.5000 0.0000 0.5000
Co1C Co -1.0000 -0.5000 0.5000
Co1C_2 Co 1.0000 0.5000 0.5000
Co2_2 Co -0.63870(3) 0.05795(3) 0.42446(2)
Co2B Co 0.63870(3) -0.44205(3) 0.07554(2)
Co2C Co 0.86130(3) 0.44205(3) 0.57554(2)
Co2D_2 Co 0.63870(3) -0.05795(3) 0.57554(2)
Co2F Co -0.63870(3) 0.44205(3) 0.92446(2)
Co2G Co -0.86130(3) -0.44205(3) 0.42446(2)
Co3B Co 0.42331(3) -0.48531(3) 0.10899(2)
Co3C Co -0.92331(3) -0.51469(3) 0.60899(2)
Co3F Co -0.42331(3) 0.48531(3) 0.89101(2)
Co3G Co 0.92331(3) 0.51469(3) 0.39101(2)
O3B O 0.53363(17) 0.11166(18) 0.35208(11)
O3F O -0.53363(17) -0.11166(18) 0.64792(11)
O4B O 0.40889(17) 0.14995(18) 0.37859(12)
O4F O -0.40889(17) -0.14995(18) 0.62141(12)
O5D_2 O 0.40025(15) -0.07044(15) 0.52905(10)
O6_2 O -0.30691(16) 0.03899(17) 0.53169(11)
O6D_2 O 0.30691(16) -0.03899(17) 0.46831(11)
O7C O -0.62654(18) 0.09475(18) 0.57952(11)
O7G O 0.62654(18) -0.09475(18) 0.42048(11)
O8C O 0.41319(16) 0.10494(15) 0.49659(10)
O8G O -0.41319(16) -0.10494(15) 0.50341(10)
O8G_2 O 0.58681(16) -0.10494(15) 0.50341(10)
O10D_2 O 0.53212(15) 0.01013(15) 0.57439(9)
O12 O 0.5789(5) 0.0449(5) 0.2372(3)
H28 H 0.5432 0.0185 0.2199
H29 H 0.5764 0.0948 0.2292
O13 O 0.1726(5) 0.9615(7) 0.3332(4)
H30 H 0.1616 0.9708 0.3014
C34 C 0.1269(9) 0.9090(8) 0.3565(5)
H31 H 0.1588 0.8614 0.3641
H32 H 0.0815 0.8946 0.3344
H33 H 0.1064 0.9318 0.3882
loop_
_geom_bond_atom_site_label_1
_geom_bond_atom_site_label_2
_geom_bond_site_symmetry_1
_geom_bond_site_symmetry_2
Co1 O5 1_555 1_555
Co2 N1 1_555 1_555
Co3 O1 1_555 1_555
N1 C25 1_555 1_555
N2 C30 1_555 1_555
N3 C31 1_555 1_555
O1 C1 1_555 1_555
C1 O2 1_555 1_555
C2 C1 1_555 1_555
C3 C2 1_555 1_555
H1 C3 1_555 1_555
O3 C12 1_555 1_555
C4 C3 1_555 1_555
H2 C4 1_555 1_555
O4 C12 1_555 1_555
C5 C4 1_555 1_555
O5 Co3 1_555 1_555
C6 C5 1_555 1_555
O6 C13 1_555 1_555
C7 C6 1_555 1_555
H3 C7 1_555 1_555
O7 C24 1_555 1_555
C8 C7 1_555 1_555
H4 C8 1_555 1_555
O8 C24 1_555 1_555
C9 C8 1_555 1_555
H5 C9 1_555 1_555
O9 Co3 1_555 1_555
O10 Co1 1_555 1_555
H6 O10 1_555 1_555
C10 C9 1_555 1_555
H7 C10 1_555 1_555
O11 Co2 1_555 1_555
H8 O11 1_555 1_555
H9 O11 1_555 1_555
C11 C2 1_555 1_555
C12 C5 1_555 1_555
C13 O5 1_555 1_555
C14 C13 1_555 1_555
C15 C14 1_555 1_555
H10 C15 1_555 1_555
C16 C15 1_555 1_555
H11 C16 1_555 1_555
C17 C16 1_555 1_555
C18 C17 1_555 1_555
C19 C18 1_555 1_555
H12 C19 1_555 1_555
C20 C19 1_555 1_555
H13 C20 1_555 1_555
C21 C20 1_555 1_555
H14 C21 1_555 1_555
C22 C21 1_555 1_555
H15 C22 1_555 1_555
C23 C14 1_555 1_555
C24 C17 1_555 1_555
C25 H16 1_555 1_555
C26 C25 1_555 1_555
C27 C26 1_555 1_555
H17 C27 1_555 1_555
C28 C27 1_555 1_555
H18 C28 1_555 1_555
C29 N1 1_555 1_555
H19 C29 1_555 1_555
C30 C26 1_555 1_555
H20 C30 1_555 1_555
C31 O9 1_555 1_555
H21 C31 1_555 1_555
C32 N3 1_555 1_555
H22 C32 1_555 1_555
H23 C32 1_555 1_555
H24 C32 1_555 1_555
C33 N3 1_555 1_555
H25 C33 1_555 1_555
H26 C33 1_555 1_555
H27 C33 1_555 1_555
O12 H28 1_555 1_555
H29 O12 1_555 1_555
O13 H30 1_555 1_555
C34 O13 1_555 1_555
H31 C34 1_555 1_555
H32 C34 1_555 1_555
H33 C34 1_555 1_555
N1D C25D 1_555 1_555
N2D N2 1_555 1_555
C25D H16D 1_555 1_555
C26D C25D 1_555 1_555
C27D C26D 1_555 1_555
H17D C27D 1_555 1_555
C28D C27D 1_555 1_555
H18D C28D 1_555 1_555
C29D N1D 1_555 1_555
H19D C29D 1_555 1_555
C30D N2D 1_555 1_555
H20D C30D 1_555 1_555
Co2D N1D 1_555 1_555
Co3D O1D 1_555 1_555
N3D C31D 1_555 1_555
O1D C1D 1_555 1_555
C1D O2D 1_555 1_555
C2D C1D 1_555 1_555
C3D C2D 1_555 1_555
H1D C3D 1_555 1_555
O3D C12D 1_555 1_555
C4D C3D 1_555 1_555
H2D C4D 1_555 1_555
O4D C12D 1_555 1_555
C5D C4D 1_555 1_555
O5D Co3D 1_555 1_555
C6D C5D 1_555 1_555
O6D C13D 1_555 1_555
C7D C6D 1_555 1_555
H3D C7D 1_555 1_555
O7D C24D 1_555 1_555
C8D C7D 1_555 1_555
H4D C8D 1_555 1_555
O8D C24D 1_555 1_555
C9D C8D 1_555 1_555
H5D C9D 1_555 1_555
O9D Co3D 1_555 1_555
O10D Co2D 1_555 1_555
H6D O10D 1_555 1_555
C10D C9D 1_555 1_555
H7D C10D 1_555 1_555
O11D Co2D 1_555 1_555
H8D O11D 1_555 1_555
H9D O11D 1_555 1_555
C11D C2D 1_555 1_555
C12D C5D 1_555 1_555
C13D O5D 1_555 1_555
C14D C13D 1_555 1_555
C15D C14D 1_555 1_555
H10D C15D 1_555 1_555
C16D C15D 1_555 1_555
H11D C16D 1_555 1_555
C17D C16D 1_555 1_555
C18D C17D 1_555 1_555
C19D C18D 1_555 1_555
H12D C19D 1_555 1_555
C20D C19D 1_555 1_555
H13D C20D 1_555 1_555
C21D C20D 1_555 1_555
H14D C21D 1_555 1_555
C22D C21D 1_555 1_555
H15D C22D 1_555 1_555
C23D C14D 1_555 1_555
C24D C17D 1_555 1_555
C31D O9D 1_555 1_555
H21D C31D 1_555 1_555
C32D N3D 1_555 1_555
H22D C32D 1_555 1_555
H23D C32D 1_555 1_555
H24D C32D 1_555 1_555
C33D N3D 1_555 1_555
H25D C33D 1_555 1_555
H26D C33D 1_555 1_555
H27D C33D 1_555 1_555
Co1_2 O5D 1_555 1_555
Co1C O8D 1_555 1_555
Co1C_2 O8 1_555 1_555
Co2_2 O6D 1_555 1_555
Co2B O4 1_555 1_555
Co2C O8 1_555 1_555
Co2D_2 O6 1_555 1_555
Co2F O4D 1_555 1_555
Co2G O8D 1_555 1_555
Co3B O3 1_555 1_555
Co3C O7D 1_555 1_555
Co3F O3D 1_555 1_555
Co3G O7 1_555 1_555
O3B Co3 1_555 1_555
O3F Co3D 1_555 1_555
O4B Co2 1_555 1_555
O4F Co2D 1_555 1_555
O5D_2 Co1 1_555 1_555
O6_2 Co2D 1_555 1_555
O6D_2 Co2 1_555 1_555
O7C Co3D 1_555 1_555
O7G Co3 1_555 1_555
O8C Co1 1_555 1_555
O8G Co2D 1_555 1_555
O8G_2 Co1 1_555 1_555
O10D_2 Co1 1_555 1_555
Co2 O10 1_555 1_555
Co2 O8C 1_555 1_555
Co3 O10 1_555 1_555
C6 C11 1_555 1_555
C10 C11 1_555 1_555
C18 C23 1_555 1_555
C22 C23 1_555 1_555
C28 C29 1_555 1_555
C26D C30D 1_555 1_555
C28D C29D 1_555 1_555
Co3D O10D 1_555 1_555
C6D C11D 1_555 1_555
O10D Co1_2 1_555 1_555
C10D C11D 1_555 1_555
C18D C23D 1_555 1_555
C22D C23D 1_555 1_555
Co1_2 O8G 1_555 1_555
Co2D_2 O8G_2 1_555 1_555
Co2D_2 O10D_2 1_555 1_555

#END
