
#######################################################################
#
#                 Cambridge Crystallographic Data Centre
#                                CCDC 
#
#######################################################################
#
# If this CIF has been generated from an entry in the Cambridge 
# Structural Database, then it will include bibliographic, chemical, 
# crystal, experimental, refinement or atomic coordinate data resulting 
# from the CCDC's data processing and validation procedures.
#
#######################################################################

data_SODYAN
_symmetry_cell_setting           monoclinic
_symmetry_space_group_name_H-M   'C 2/c'
_symmetry_Int_Tables_number      15
_space_group_name_Hall           '-C 2yn'
loop_
_symmetry_equiv_pos_site_id
_symmetry_equiv_pos_as_xyz
1 x,y,z
2 -x,y,1/2-z
3 1/2+x,1/2+y,z
4 1/2-x,1/2+y,1/2-z
5 -x,-y,-z
6 x,-y,1/2+z
7 1/2-x,1/2-y,-z
8 1/2+x,1/2-y,1/2+z
_cell_length_a                   18.2139(15)
_cell_length_b                   11.7900(10)
_cell_length_c                   16.5932(13)
_cell_angle_alpha                90
_cell_angle_beta                 111.3200(10)
_cell_angle_gamma                90
_cell_volume                     3319.4
loop_
_atom_site_label
_atom_site_type_symbol
_atom_site_fract_x
_atom_site_fract_y
_atom_site_fract_z
N1 N 0.41651(12) 0.69457(18) 0.02259(13)
N2 N 0.46993(16) 0.7563(3) -0.23329(16)
O1 O 0.55314(10) 0.55785(17) 0.17122(13)
O2 O 0.60483(11) 0.55903(18) 0.31569(13)
O3 O 0.94689(11) 0.29358(17) 0.33129(12)
O4 O 0.90257(11) 0.29027(18) 0.18770(12)
Zn1 Zn 0.466252(15) 0.67146(2) 0.153356(16)
C1 C 0.45965(16) 0.6868(3) -0.02728(17)
H1 H 0.5087 0.6520 -0.0045
C2 C 0.43518(16) 0.7279(3) -0.11085(16)
C3 C 0.36125(18) 0.7761(3) -0.14512(17)
H2 H 0.3426 0.8042 -0.2013
C4 C 0.31563(18) 0.7819(3) -0.09548(18)
H3 H 0.2652 0.8128 -0.1177
C5 C 0.34565(16) 0.7413(3) -0.01192(17)
H4 H 0.3148 0.7470 0.0219
C6 C 0.48906(19) 0.7227(3) -0.15787(19)
H5 H 0.5394 0.6933 -0.1302
C7 C 0.60813(15) 0.5401(2) 0.24274(18)
C8 C 0.68541(14) 0.4928(2) 0.24289(16)
C9 C 0.72745(16) 0.4261(2) 0.31136(17)
H6 H 0.7081 0.4132 0.3553
C10 C 0.79878(16) 0.3768(3) 0.31695(17)
H7 H 0.8258 0.3313 0.3643
C11 C 0.82969(14) 0.3941(2) 0.25416(16)
C12 C 0.79058(14) 0.4687(2) 0.18383(16)
C13 C 0.82404(16) 0.4995(2) 0.12173(18)
H8 H 0.8730 0.4705 0.1267
C14 C 0.78567(19) 0.5707(3) 0.0551(2)
H9 H 0.8082 0.5892 0.0147
C15 C 0.7129(2) 0.6157(3) 0.0472(2)
H10 H 0.6866 0.6633 0.0010
C16 C 0.67956(17) 0.5911(3) 0.10648(18)
H11 H 0.6312 0.6232 0.1005
C17 C 0.71698(15) 0.5174(2) 0.17705(16)
C18 C 0.89938(15) 0.3225(2) 0.25806(17)
N1A N 0.58349(12) 0.69457(18) -0.52259(13)
N2A N 0.53007(16) 0.7563(3) -0.26671(16)
C1A C 0.54035(16) 0.6868(3) -0.47272(17)
H1A H 0.4913 0.6520 -0.4955
C2A C 0.56482(16) 0.7279(3) -0.38915(16)
C3A C 0.63875(18) 0.7761(3) -0.35488(17)
H2A H 0.6574 0.8042 -0.2987
C4A C 0.68437(18) 0.7819(3) -0.40452(18)
H3A H 0.7348 0.8128 -0.3823
C5A C 0.65435(16) 0.7413(3) -0.48808(17)
H4A H 0.6852 0.7470 -0.5219
C6A C 0.51094(19) 0.7227(3) -0.34213(19)
H5A H 0.4606 0.6933 -0.3698
O1A O 0.44686(10) 0.55785(17) -0.67122(13)
O2A O 0.39517(11) 0.55903(18) -0.81569(13)
O3A O 0.05311(11) 0.29358(17) -0.83129(12)
O4A O 0.09743(11) 0.29027(18) -0.68770(12)
Zn1A Zn 0.533748(15) 0.67146(2) -0.653356(16)
C7A C 0.39187(15) 0.5401(2) -0.74274(18)
C8A C 0.31459(14) 0.4928(2) -0.74289(16)
C9A C 0.27255(16) 0.4261(2) -0.81136(17)
H6A H 0.2919 0.4132 -0.8553
C10A C 0.20122(16) 0.3768(3) -0.81695(17)
H7A H 0.1742 0.3313 -0.8643
C11A C 0.17031(14) 0.3941(2) -0.75416(16)
C12A C 0.20942(14) 0.4687(2) -0.68383(16)
C13A C 0.17596(16) 0.4995(2) -0.62173(18)
H8A H 0.1270 0.4705 -0.6267
C14A C 0.21433(19) 0.5707(3) -0.5551(2)
H9A H 0.1918 0.5892 -0.5147
C15A C 0.2871(2) 0.6157(3) -0.5472(2)
H10A H 0.3134 0.6633 -0.5010
C16A C 0.32044(17) 0.5911(3) -0.60648(18)
H11A H 0.3688 0.6232 -0.6005
C17A C 0.28302(15) 0.5174(2) -0.67705(16)
C18A C 0.10062(15) 0.3225(2) -0.75806(17)
O2_2 O 0.60483(11) 0.55903(18) -0.68431(13)
O2A_2 O 0.39517(11) 0.55903(18) 0.18431(13)
O3B O 0.44689(11) 0.79358(17) -0.66871(12)
O3C O 0.55311(11) 0.79358(17) 0.16871(12)
O4B O 0.40257(11) 0.79027(18) 0.18770(12)
O4C O 0.59743(11) 0.79027(18) -0.68770(12)
Zn1_2 Zn 0.466252(15) 0.67146(2) -0.846644(16)
Zn1A_2 Zn 0.533748(15) 0.67146(2) 0.346644(16)
Zn1B Zn -0.033748(15) 0.17146(2) -0.846644(16)
Zn1B_2 Zn 0.966252(15) 0.17146(2) 0.153356(16)
Zn1C Zn 0.033748(15) 0.17146(2) -0.653356(16)
Zn1C_2 Zn 1.033748(15) 0.17146(2) 0.346644(16)
O5 O 0.5000 1.0000 0.0000
H12 H 0.5149 0.9670 0.0489
H12D H 0.4851 1.0330 -0.0489
H13? H 0.4893 0.9611 -0.0460
loop_
_geom_bond_atom_site_label_1
_geom_bond_atom_site_label_2
_geom_bond_site_symmetry_1
_geom_bond_site_symmetry_2
N1 Zn1 1_555 1_555
N2 C6 1_555 1_555
O1 Zn1 1_555 1_555
O2 C7 1_555 1_555
O3 C18 1_555 1_555
O4 C18 1_555 1_555
Zn1 O2A_2 1_555 1_555
C1 N1 1_555 1_555
H1 C1 1_555 1_555
C2 C1 1_555 1_555
C3 C2 1_555 1_555
H2 C3 1_555 1_555
C4 C3 1_555 1_555
H3 C4 1_555 1_555
C5 N1 1_555 1_555
H4 C5 1_555 1_555
C6 C2 1_555 1_555
H5 C6 1_555 1_555
C7 O1 1_555 1_555
C8 C7 1_555 1_555
C9 C8 1_555 1_555
H6 C9 1_555 1_555
C10 C9 1_555 1_555
H7 C10 1_555 1_555
C11 C10 1_555 1_555
C12 C11 1_555 1_555
C13 C12 1_555 1_555
H8 C13 1_555 1_555
C14 C13 1_555 1_555
H9 C14 1_555 1_555
C15 C14 1_555 1_555
H10 C15 1_555 1_555
C16 C15 1_555 1_555
H11 C16 1_555 1_555
C17 C8 1_555 1_555
C18 C11 1_555 1_555
O5 H12 1_555 1_555
N1A C1A 1_555 1_555
N2A N2 1_555 1_555
C1A H1A 1_555 1_555
C2A C1A 1_555 1_555
C3A C2A 1_555 1_555
H2A C3A 1_555 1_555
C4A C3A 1_555 1_555
H3A C4A 1_555 1_555
C5A N1A 1_555 1_555
H4A C5A 1_555 1_555
C6A N2A 1_555 1_555
H5A C6A 1_555 1_555
O1A Zn1A 1_555 1_555
O2A C7A 1_555 1_555
O3A C18A 1_555 1_555
O4A C18A 1_555 1_555
Zn1A N1A 1_555 1_555
C7A O1A 1_555 1_555
C8A C7A 1_555 1_555
C9A C8A 1_555 1_555
H6A C9A 1_555 1_555
C10A C9A 1_555 1_555
H7A C10A 1_555 1_555
C11A C10A 1_555 1_555
C12A C11A 1_555 1_555
C13A C12A 1_555 1_555
H8A C13A 1_555 1_555
C14A C13A 1_555 1_555
H9A C14A 1_555 1_555
C15A C14A 1_555 1_555
H10A C15A 1_555 1_555
C16A C15A 1_555 1_555
H11A C16A 1_555 1_555
C17A C8A 1_555 1_555
C18A C11A 1_555 1_555
O2_2 Zn1A 1_555 1_555
O3B Zn1A 1_555 1_555
O3C Zn1 1_555 1_555
O4B Zn1 1_555 1_555
O4C Zn1A 1_555 1_555
Zn1_2 O2A 1_555 1_555
Zn1A_2 O2 1_555 1_555
Zn1B O3A 1_555 1_555
Zn1B_2 O4 1_555 1_555
Zn1C O4A 1_555 1_555
Zn1C_2 O3 1_555 1_555
H12D O5 1_555 1_555
C4 C5 1_555 1_555
C12 C17 1_555 1_555
C16 C17 1_555 1_555
C2A C6A 1_555 1_555
C4A C5A 1_555 1_555
C12A C17A 1_555 1_555
C16A C17A 1_555 1_555

#END
