
#######################################################################
#
#                 Cambridge Crystallographic Data Centre
#                                CCDC 
#
#######################################################################
#
# If this CIF has been generated from an entry in the Cambridge 
# Structural Database, then it will include bibliographic, chemical, 
# crystal, experimental, refinement or atomic coordinate data resulting 
# from the CCDC's data processing and validation procedures.
#
#######################################################################

data_SOFGIF
_symmetry_cell_setting           triclinic
_symmetry_space_group_name_H-M   'P -1'
_symmetry_Int_Tables_number      2
_space_group_name_Hall           '-P 1'
loop_
_symmetry_equiv_pos_site_id
_symmetry_equiv_pos_as_xyz
1 x,y,z
2 -x,-y,-z
_cell_length_a                   10.512(6)
_cell_length_b                   10.909(6)
_cell_length_c                   11.714(6)
_cell_angle_alpha                98.280(10)
_cell_angle_beta                 99.315(9)
_cell_angle_gamma                92.324(9)
_cell_volume                     1308.97
loop_
_atom_site_label
_atom_site_type_symbol
_atom_site_fract_x
_atom_site_fract_y
_atom_site_fract_z
Co1 Co 0.0000 0.0000 1.0000
O1 O 0.0919(3) -0.1608(3) 1.0143(2)
H1 H 0.0436 -0.2118 1.0340
H2 H 0.1441 -0.1846 0.9687
N1 N 0.1327(3) 0.0604(3) 0.8911(3)
N2 N -0.0323(4) 0.1486(4) 0.5723(3)
N3 N -0.0797(4) 0.1699(3) 0.4588(3)
N4 N -0.2607(4) 0.2275(3) 0.1312(3)
N5 N 0.1377(3) 0.0947(3) 1.1568(3)
N6 N 0.4619(4) 0.0446(4) 1.4780(3)
C1 C 0.2618(4) 0.0705(4) 0.9194(4)
H3 H 0.2996 0.0547 0.9928
C2 C 0.3412(5) 0.1034(5) 0.8444(4)
H4 H 0.4305 0.1094 0.8670
C3 C 0.2870(5) 0.1271(5) 0.7362(4)
H5 H 0.3391 0.1483 0.6841
C4 C 0.1545(4) 0.1192(4) 0.7050(4)
C5 C 0.0825(4) 0.0859(4) 0.7863(4)
H6 H -0.0071 0.0810 0.7661
C6 C 0.0875(5) 0.1433(4) 0.5921(4)
H7 H 0.1350 0.1550 0.5337
C7 C -0.1933(5) 0.2029(4) 0.4488(4)
H8 H -0.2347 0.2115 0.5136
C8 C -0.2620(4) 0.2282(4) 0.3361(4)
C9 C -0.3844(5) 0.2681(5) 0.3226(5)
H9 H -0.4270 0.2813 0.3865
C10 C -0.4444(5) 0.2886(5) 0.2144(5)
H10 H -0.5272 0.3169 0.2044
C11 C -0.3802(5) 0.2669(5) 0.1219(5)
H11 H -0.4217 0.2801 0.0487
C12 C -0.2048(4) 0.2103(4) 0.2370(4)
H12 H -0.1210 0.1844 0.2452
C13 C 0.1332(4) 0.2144(4) 1.1990(4)
H13 H 0.0748 0.2610 1.1580
C14 C 0.2099(4) 0.2723(4) 1.2994(4)
H14 H 0.2047 0.3566 1.3241
C15 C 0.2943(4) 0.2055(4) 1.3633(4)
H15 H 0.3445 0.2427 1.4335
C16 C 0.3034(4) 0.0815(4) 1.3213(4)
C17 C 0.2230(4) 0.0304(4) 1.2185(3)
H16 H 0.2283 -0.0531 1.1906
C18 C 0.3902(4) 0.0028(4) 1.3818(4)
H17 H 0.3932 -0.0798 1.3492
N5A N 0.8623(3) -0.0947(3) 1.8432(3)
N6A N 0.5381(4) -0.0446(4) 1.5220(3)
C13A C 0.8668(4) -0.2144(4) 1.8010(4)
H13A H 0.9252 -0.2610 1.8420
C14A C 0.7901(4) -0.2723(4) 1.7006(4)
H14A H 0.7953 -0.3566 1.6759
C15A C 0.7057(4) -0.2055(4) 1.6367(4)
H15A H 0.6555 -0.2427 1.5665
C16A C 0.6966(4) -0.0815(4) 1.6787(4)
C17A C 0.7770(4) -0.0304(4) 1.7815(3)
H16A H 0.7717 0.0531 1.8094
C18A C 0.6098(4) -0.0028(4) 1.6182(4)
H17A H 0.6068 0.0798 1.6508
O1A O -0.0919(3) 0.1608(3) 0.9857(2)
H1A H -0.0436 0.2118 0.9660
H2A H -0.1441 0.1846 1.0313
N1A N -0.1327(3) -0.0604(3) 1.1089(3)
N2A N 0.0323(4) -0.1486(4) 1.4277(3)
N3A N 0.0797(4) -0.1699(3) 1.5412(3)
N4A N 0.2607(4) -0.2275(3) 1.8688(3)
C1A C -0.2618(4) -0.0705(4) 1.0806(4)
H3A H -0.2996 -0.0547 1.0072
C2A C -0.3412(5) -0.1034(5) 1.1556(4)
H4A H -0.4305 -0.1094 1.1330
C3A C -0.2870(5) -0.1271(5) 1.2638(4)
H5A H -0.3391 -0.1483 1.3159
C4A C -0.1545(4) -0.1192(4) 1.2950(4)
C5A C -0.0825(4) -0.0859(4) 1.2137(4)
H6A H 0.0071 -0.0810 1.2339
C6A C -0.0875(5) -0.1433(4) 1.4079(4)
H7A H -0.1350 -0.1550 1.4663
C7A C 0.1933(5) -0.2029(4) 1.5512(4)
H8A H 0.2347 -0.2115 1.4864
C8A C 0.2620(4) -0.2282(4) 1.6639(4)
C9A C 0.3844(5) -0.2681(5) 1.6774(5)
H9A H 0.4270 -0.2813 1.6135
C10A C 0.4444(5) -0.2886(5) 1.7856(5)
H10A H 0.5272 -0.3169 1.7956
C11A C 0.3802(5) -0.2669(5) 1.8781(5)
H11A H 0.4217 -0.2801 1.9513
C12A C 0.2048(4) -0.2103(4) 1.7630(4)
H12A H 0.1210 -0.1844 1.7548
Co1_2 Co 1.0000 0.0000 2.0000
N5A_2 N -0.1377(3) -0.0947(3) 0.8432(3)
N7 N 0.0391(4) 0.3568(4) 0.9198(4)
N8 N 0.0429(4) 0.4940(4) 0.5509(4)
C19 C 0.1652(6) 0.3878(5) 0.9528(5)
H18 H 0.2048 0.3732 1.0261
C20 C 0.2397(6) 0.4404(5) 0.8836(5)
H19 H 0.3277 0.4589 0.9097
C21 C 0.1839(5) 0.4648(5) 0.7776(5)
H20 H 0.2330 0.4993 0.7294
C22 C 0.0521(5) 0.4374(4) 0.7419(4)
C23 C -0.0147(5) 0.3841(4) 0.8157(4)
H21 H -0.1031 0.3658 0.7917
C24 C -0.0159(5) 0.4563(4) 0.6276(5)
H22 H -0.1051 0.4404 0.6101
N7A N -0.0391(4) 0.6432(4) 0.0802(4)
N8A N -0.0429(4) 0.5060(4) 0.4491(4)
C19A C -0.1652(6) 0.6122(5) 0.0472(5)
H18A H -0.2048 0.6268 -0.0261
C20A C -0.2397(6) 0.5596(5) 0.1164(5)
H19A H -0.3277 0.5411 0.0903
C21A C -0.1839(5) 0.5352(5) 0.2224(5)
H20A H -0.2330 0.5007 0.2706
C22A C -0.0521(5) 0.5626(4) 0.2581(4)
C23A C 0.0147(5) 0.6159(4) 0.1843(4)
H21A H 0.1031 0.6342 0.2083
C24A C 0.0159(5) 0.5437(4) 0.3724(5)
H22A H 0.1051 0.5596 0.3899
Cl1 Cl 0.40480(14) 0.62862(14) 0.24768(16)
O2 O 0.5375(6) 0.6229(10) 0.2959(10)
O3 O 0.3337(9) 0.6587(11) 0.3447(7)
O4 O 0.3522(10) 0.5151(6) 0.1847(9)
O5 O 0.3906(12) 0.7283(8) 0.1801(9)
O6? O 0.4584(12) 0.5740(12) 0.1455(8)
O7? O 0.5066(11) 0.6656(13) 0.3432(10)
O8? O 0.3175(10) 0.5376(11) 0.2716(13)
O9? O 0.3368(12) 0.7334(9) 0.2161(12)
loop_
_geom_bond_atom_site_label_1
_geom_bond_atom_site_label_2
_geom_bond_site_symmetry_1
_geom_bond_site_symmetry_2
Co1 O1 1_555 1_555
O1 H1 1_555 1_555
H2 O1 1_555 1_555
N1 Co1 1_555 1_555
N2 N3 1_555 1_555
N3 C7 1_555 1_555
N4 C11 1_555 1_555
N5 Co1 1_555 1_555
N6 C18 1_555 1_555
C1 N1 1_555 1_555
H3 C1 1_555 1_555
C2 C1 1_555 1_555
H4 C2 1_555 1_555
C3 C2 1_555 1_555
H5 C3 1_555 1_555
C4 C3 1_555 1_555
C5 N1 1_555 1_555
H6 C5 1_555 1_555
C6 N2 1_555 1_555
H7 C6 1_555 1_555
C7 H8 1_555 1_555
C8 C7 1_555 1_555
C9 C8 1_555 1_555
H9 C9 1_555 1_555
C10 C9 1_555 1_555
H10 C10 1_555 1_555
C11 C10 1_555 1_555
H11 C11 1_555 1_555
C12 N4 1_555 1_555
H12 C12 1_555 1_555
C13 N5 1_555 1_555
H13 C13 1_555 1_555
C14 C13 1_555 1_555
H14 C14 1_555 1_555
C15 C14 1_555 1_555
H15 C15 1_555 1_555
C16 C15 1_555 1_555
C17 N5 1_555 1_555
H16 C17 1_555 1_555
C18 C16 1_555 1_555
H17 C18 1_555 1_555
N7 C19 1_555 1_555
N8 C24 1_555 1_555
C19 H18 1_555 1_555
C20 C19 1_555 1_555
H19 C20 1_555 1_555
C21 C20 1_555 1_555
H20 C21 1_555 1_555
C22 C21 1_555 1_555
C23 N7 1_555 1_555
H21 C23 1_555 1_555
C24 C22 1_555 1_555
H22 C24 1_555 1_555
Cl1 O2 1_555 1_555
O3 Cl1 1_555 1_555
O4 Cl1 1_555 1_555
O5 Cl1 1_555 1_555
N5A C13A 1_555 1_555
N6A N6 1_555 1_555
C13A H13A 1_555 1_555
C14A C13A 1_555 1_555
H14A C14A 1_555 1_555
C15A C14A 1_555 1_555
H15A C15A 1_555 1_555
C16A C15A 1_555 1_555
C17A N5A 1_555 1_555
H16A C17A 1_555 1_555
C18A N6A 1_555 1_555
H17A C18A 1_555 1_555
O1A Co1 1_555 1_555
H1A O1A 1_555 1_555
H2A O1A 1_555 1_555
N1A Co1 1_555 1_555
N2A N3A 1_555 1_555
N3A C7A 1_555 1_555
N4A C11A 1_555 1_555
C1A N1A 1_555 1_555
H3A C1A 1_555 1_555
C2A C1A 1_555 1_555
H4A C2A 1_555 1_555
C3A C2A 1_555 1_555
H5A C3A 1_555 1_555
C4A C3A 1_555 1_555
C5A N1A 1_555 1_555
H6A C5A 1_555 1_555
C6A N2A 1_555 1_555
H7A C6A 1_555 1_555
C7A H8A 1_555 1_555
C8A C7A 1_555 1_555
C9A C8A 1_555 1_555
H9A C9A 1_555 1_555
C10A C9A 1_555 1_555
H10A C10A 1_555 1_555
C11A C10A 1_555 1_555
H11A C11A 1_555 1_555
C12A N4A 1_555 1_555
H12A C12A 1_555 1_555
Co1_2 N5A 1_555 1_555
N5A_2 Co1 1_555 1_555
N7A C19A 1_555 1_555
N8A N8 1_555 1_555
C19A H18A 1_555 1_555
C20A C19A 1_555 1_555
H19A C20A 1_555 1_555
C21A C20A 1_555 1_555
H20A C21A 1_555 1_555
C22A C21A 1_555 1_555
C23A N7A 1_555 1_555
H21A C23A 1_555 1_555
C24A N8A 1_555 1_555
H22A C24A 1_555 1_555
C4 C5 1_555 1_555
C4 C6 1_555 1_555
C8 C12 1_555 1_555
C16 C17 1_555 1_555
C22 C23 1_555 1_555
C16A C17A 1_555 1_555
C16A C18A 1_555 1_555
C4A C5A 1_555 1_555
C4A C6A 1_555 1_555
C8A C12A 1_555 1_555
C22A C23A 1_555 1_555
C22A C24A 1_555 1_555

#END
