
#######################################################################
#
#                 Cambridge Crystallographic Data Centre
#                                CCDC 
#
#######################################################################
#
# If this CIF has been generated from an entry in the Cambridge 
# Structural Database, then it will include bibliographic, chemical, 
# crystal, experimental, refinement or atomic coordinate data resulting 
# from the CCDC's data processing and validation procedures.
#
#######################################################################

data_SOFJOO
_symmetry_cell_setting           monoclinic
_symmetry_space_group_name_H-M   'P 21/c'
_symmetry_Int_Tables_number      14
_space_group_name_Hall           '-P 2ybc'
loop_
_symmetry_equiv_pos_site_id
_symmetry_equiv_pos_as_xyz
1 x,y,z
2 -x,1/2+y,1/2-z
3 -x,-y,-z
4 x,1/2-y,1/2+z
_cell_length_a                   10.2571(2)
_cell_length_b                   15.8316(4)
_cell_length_c                   13.0610(3)
_cell_angle_alpha                90
_cell_angle_beta                 96.072(2)
_cell_angle_gamma                90
_cell_volume                     2109.03
loop_
_atom_site_label
_atom_site_type_symbol
_atom_site_fract_x
_atom_site_fract_y
_atom_site_fract_z
Cd1 Cd 0.91136(2) 0.233055(16) 0.406600(18)
Cd2 Cd 1.0000 0.5000 0.5000
S1 S 1.39674(8) 0.27634(6) 0.39497(7)
O1 O 1.6800(2) 0.22438(16) 0.4212(2)
C1 C 0.8986(3) 0.2593(2) 0.6545(2)
N1 N 0.9183(3) 0.30263(18) 0.5706(2)
N2 N 0.9167(3) 0.38917(18) 0.7005(2)
O2 O 1.1145(3) 0.27467(17) 0.3849(3)
N3 N 0.9284(3) 0.38443(18) 0.6016(2)
N4 N 0.8982(3) 0.31043(18) 0.7359(2)
N5 N 1.0662(3) 0.06490(19) 0.6573(2)
H1 H 1.0649 0.0487 0.7200
O3 O 1.7547(2) 0.34370(16) 0.36436(19)
C2 C 1.6629(3) 0.2990(2) 0.3937(3)
C3 C 1.1516(3) 0.3488(2) 0.3873(2)
O4 O 1.0783(2) 0.41148(16) 0.38371(19)
C4 C 1.1887(4) 0.0706(2) 0.4148(3)
H2 H 1.1659 0.0982 0.3526
C5 C 1.5317(3) 0.3391(2) 0.3929(3)
C6 C 0.9828(3) 0.1205(2) 0.6060(3)
C7 C 1.2941(4) 0.0182(2) 0.4281(3)
H3 H 1.3450 0.0109 0.3739
C8 C 1.2957(3) 0.3620(2) 0.3895(3)
C9 C 1.1538(3) 0.0391(2) 0.5903(3)
N6 N 1.0083(3) 0.13092(18) 0.5098(2)
C10 C 1.1166(3) 0.0811(2) 0.4983(3)
C11 C 1.2593(4) -0.0162(2) 0.6020(3)
H4 H 1.2815 -0.0458 0.6629
C12 C 1.3619(3) 0.4353(3) 0.3867(3)
H5 H 1.3226 0.4884 0.3843
C13 C 0.8790(4) 0.1661(2) 0.6547(3)
H6 H 0.7943 0.1528 0.6180
H7 H 0.8786 0.1468 0.7251
O5 O 1.1828(3) 0.4967(2) 0.6099(3)
C14 C 1.3283(4) -0.0245(3) 0.5189(4)
H8 H 1.4008 -0.0601 0.5236
C15 C 1.4989(3) 0.4218(3) 0.3881(3)
H9 H 1.5596 0.4652 0.3860
Cd1B Cd 1.08864(2) 0.766945(16) 0.593400(18)
S1B S 0.60326(8) 0.72366(6) 0.60503(7)
O1B O 0.3200(2) 0.77562(16) 0.5788(2)
C1B C 1.1014(3) 0.7407(2) 0.3455(2)
N1B N 1.0817(3) 0.69737(18) 0.4294(2)
N2B N 1.0833(3) 0.61083(18) 0.2995(2)
O2B O 0.8855(3) 0.72533(17) 0.6151(3)
N3B N 1.0716(3) 0.61557(18) 0.3984(2)
N4B N 1.1018(3) 0.68957(18) 0.2641(2)
N5B N 0.9338(3) 0.93510(19) 0.3427(2)
H1B H 0.9351 0.9513 0.2800
O3B O 0.2453(2) 0.65630(16) 0.63564(19)
C2B C 0.3371(3) 0.7010(2) 0.6063(3)
C3B C 0.8484(3) 0.6512(2) 0.6127(2)
O4B O 0.9217(2) 0.58852(16) 0.61629(19)
C4B C 0.8113(4) 0.9294(2) 0.5852(3)
H2B H 0.8341 0.9018 0.6474
C5B C 0.4683(3) 0.6609(2) 0.6071(3)
C6B C 1.0172(3) 0.8795(2) 0.3940(3)
C7B C 0.7059(4) 0.9818(2) 0.5719(3)
H3B H 0.6550 0.9891 0.6261
C8B C 0.7043(3) 0.6380(2) 0.6105(3)
C9B C 0.8462(3) 0.9609(2) 0.4097(3)
N6B N 0.9917(3) 0.86908(18) 0.4902(2)
C10B C 0.8834(3) 0.9189(2) 0.5017(3)
C11B C 0.7407(4) 1.0162(2) 0.3980(3)
H4B H 0.7185 1.0458 0.3371
C12B C 0.6381(3) 0.5647(3) 0.6133(3)
H5B H 0.6774 0.5116 0.6157
C13B C 1.1210(4) 0.8339(2) 0.3453(3)
H6B H 1.2057 0.8472 0.3820
H7B H 1.1214 0.8532 0.2749
O5B O 0.8172(3) 0.5033(2) 0.3901(3)
C14B C 0.6717(4) 1.0245(3) 0.4811(4)
H8B H 0.5992 1.0601 0.4764
C15B C 0.5011(3) 0.5782(3) 0.6119(3)
H9B H 0.4404 0.5348 0.6140
Cd1_2 Cd 1.91136(2) 0.233055(16) 0.406600(18)
Cd1A Cd 1.08864(2) 0.733055(16) 0.093400(18)
Cd1B_2 Cd 0.08864(2) 0.766945(16) 0.593400(18)
Cd1C Cd 0.91136(2) 0.266945(16) 0.906600(18)
O1_2 O 0.6800(2) 0.22438(16) 0.4212(2)
O1B_2 O 1.3200(2) 0.77562(16) 0.5788(2)
N4A N 1.1018(3) 0.81043(18) 0.7641(2)
N4C N 0.8982(3) 0.18957(18) 0.2359(2)
O3_2 O 0.7547(2) 0.34370(16) 0.36436(19)
O3B_2 O 1.2453(2) 0.65630(16) 0.63564(19)
loop_
_geom_bond_atom_site_label_1
_geom_bond_atom_site_label_2
_geom_bond_site_symmetry_1
_geom_bond_site_symmetry_2
Cd1 N1 1_555 1_555
Cd2 N3 1_555 1_555
S1 C5 1_555 1_555
O1 C2 1_555 1_555
C1 N1 1_555 1_555
N1 N3 1_555 1_555
N2 N3 1_555 1_555
O2 Cd1 1_555 1_555
N4 C1 1_555 1_555
N5 H1 1_555 1_555
O3 C2 1_555 1_555
C2 C5 1_555 1_555
C3 O2 1_555 1_555
O4 Cd2 1_555 1_555
C4 H2 1_555 1_555
C5 C15 1_555 1_555
C6 N5 1_555 1_555
C7 C4 1_555 1_555
H3 C7 1_555 1_555
C8 S1 1_555 1_555
C9 N5 1_555 1_555
N6 Cd1 1_555 1_555
C10 C4 1_555 1_555
C11 C9 1_555 1_555
H4 C11 1_555 1_555
C12 C8 1_555 1_555
H5 C12 1_555 1_555
C13 C1 1_555 1_555
H6 C13 1_555 1_555
H7 C13 1_555 1_555
O5 Cd2 1_555 1_555
C14 C7 1_555 1_555
H8 C14 1_555 1_555
C15 C12 1_555 1_555
H9 C15 1_555 1_555
Cd1B N1B 1_555 1_555
S1B C5B 1_555 1_555
O1B C2B 1_555 1_555
C1B N1B 1_555 1_555
N1B N3B 1_555 1_555
N2B N3B 1_555 1_555
O2B Cd1B 1_555 1_555
N3B Cd2 1_555 1_555
N4B C1B 1_555 1_555
N5B H1B 1_555 1_555
O3B C2B 1_555 1_555
C2B C5B 1_555 1_555
C3B O2B 1_555 1_555
O4B Cd2 1_555 1_555
C4B H2B 1_555 1_555
C5B C15B 1_555 1_555
C6B N5B 1_555 1_555
C7B C4B 1_555 1_555
H3B C7B 1_555 1_555
C8B S1B 1_555 1_555
C9B N5B 1_555 1_555
N6B Cd1B 1_555 1_555
C10B C4B 1_555 1_555
C11B C9B 1_555 1_555
H4B C11B 1_555 1_555
C12B C8B 1_555 1_555
H5B C12B 1_555 1_555
C13B C1B 1_555 1_555
H6B C13B 1_555 1_555
H7B C13B 1_555 1_555
O5B Cd2 1_555 1_555
C14B C7B 1_555 1_555
H8B C14B 1_555 1_555
C15B C12B 1_555 1_555
H9B C15B 1_555 1_555
Cd1_2 O1 1_555 1_555
Cd1A N4B 1_555 1_555
Cd1B_2 O1B 1_555 1_555
Cd1C N4 1_555 1_555
O1_2 Cd1 1_555 1_555
O1B_2 Cd1B 1_555 1_555
N4A Cd1B 1_555 1_555
N4C Cd1 1_555 1_555
O3_2 Cd1 1_555 1_555
O3B_2 Cd1B 1_555 1_555
N2 N4 1_555 1_555
O3 Cd1_2 1_555 1_555
C3 O4 1_555 1_555
C3 C8 1_555 1_555
C6 N6 1_555 1_555
C6 C13 1_555 1_555
C9 C10 1_555 1_555
N6 C10 1_555 1_555
C11 C14 1_555 1_555
N2B N4B 1_555 1_555
O3B Cd1B_2 1_555 1_555
C3B O4B 1_555 1_555
C3B C8B 1_555 1_555
C6B N6B 1_555 1_555
C6B C13B 1_555 1_555
C9B C10B 1_555 1_555
N6B C10B 1_555 1_555
C11B C14B 1_555 1_555

#END
