
#######################################################################
#
#                 Cambridge Crystallographic Data Centre
#                                CCDC 
#
#######################################################################
#
# If this CIF has been generated from an entry in the Cambridge 
# Structural Database, then it will include bibliographic, chemical, 
# crystal, experimental, refinement or atomic coordinate data resulting 
# from the CCDC's data processing and validation procedures.
#
#######################################################################

data_SOFKAZ
_symmetry_cell_setting           triclinic
_symmetry_space_group_name_H-M   'P -1'
_symmetry_Int_Tables_number      2
_space_group_name_Hall           '-P 1'
loop_
_symmetry_equiv_pos_site_id
_symmetry_equiv_pos_as_xyz
1 x,y,z
2 -x,-y,-z
_cell_length_a                   8.164(2)
_cell_length_b                   9.960(2)
_cell_length_c                   13.368(3)
_cell_angle_alpha                103.92(3)
_cell_angle_beta                 108.03(2)
_cell_angle_gamma                93.23(2)
_cell_volume                     993.14
loop_
_atom_site_label
_atom_site_type_symbol
_atom_site_fract_x
_atom_site_fract_y
_atom_site_fract_z
K1 K 0.3715(2) 0.6245(2) 0.0411(1)
O1 O 0.2711(5) 0.5971(4) 0.2324(3)
C1 C 0.1704(7) 0.4746(5) 0.2332(4)
C2 C 0.0531(8) 0.4193(6) 0.1161(5)
O2 O -0.1002(5) 0.3315(4) 0.1041(3)
C3 C -0.0742(7) 0.1909(6) 0.1054(4)
C4 C -0.2511(7) 0.1112(6) 0.0805(5)
O3 O -0.3715(5) 0.1171(4) -0.0226(3)
C5 C -0.3537(8) 0.0173(6) -0.1137(4)
C6 C -0.4762(8) 0.0392(6) -0.2171(4)
O4 O -0.4191(5) 0.1754(4) -0.2230(3)
C7 C -0.4703(6) 0.2000(5) -0.3242(4)
C8 C -0.5953(7) 0.1145(5) -0.4174(4)
C9 C -0.6328(7) 0.1506(6) -0.5158(4)
C10 C -0.5459(7) 0.2680(6) -0.5224(4)
C11 C -0.4231(7) 0.3555(6) -0.4293(4)
C12 C 0.3863(6) 0.6772(5) 0.3303(4)
C13 C 0.7753(7) 0.6308(6) 0.2059(4)
C14 C 0.7396(7) 0.5526(6) 0.2779(4)
C15 C 0.8233(6) 0.5863(5) 0.3888(4)
C16 C 0.9496(7) 0.7015(6) 0.4383(4)
C17 C 0.9978(7) 0.7814(6) 0.3778(4)
C18 C 0.9151(6) 0.7462(5) 0.2673(4)
O5 O 0.6950(6) 0.6073(5) 0.1070(3)
N1 N 0.6084(6) 0.4286(5) 0.2333(4)
O6 O 0.5184(6) 0.3986(5) 0.1360(4)
O7 O 0.5940(6) 0.3577(5) 0.2933(4)
N2 N 1.0307(6) 0.7416(5) 0.5569(4)
O8 O 0.9832(6) 0.6702(4) 0.6088(3)
O9 O 1.1403(7) 0.8456(5) 0.5991(3)
N3 N 0.9776(6) 0.8328(5) 0.2079(4)
O10 O 1.0465(7) 0.9510(5) 0.2568(4)
O11 O 0.9595(7) 0.7835(5) 0.1130(4)
H1 H 0.260(7) 0.409(6) 0.263(4)
H2 H 0.099(7) 0.504(5) 0.284(4)
H3 H 0.013(7) 0.502(6) 0.092(4)
H4 H 0.115(7) 0.367(6) 0.076(5)
H5 H -0.007(7) 0.185(6) 0.176(5)
H6 H -0.012(7) 0.142(6) 0.052(5)
H7 H -0.299(7) 0.153(6) 0.137(5)
H8 H -0.242(7) 0.002(6) 0.074(4)
H9 H -0.393(7) -0.078(6) -0.109(4)
H10 H -0.230(7) 0.039(6) -0.116(4)
H11 H -0.618(7) 0.026(6) -0.224(4)
H12 H -0.474(7) -0.026(6) -0.276(5)
H13 H -0.668(7) 0.025(6) -0.413(4)
H14 H -0.734(7) 0.090(6) -0.582(5)
H15 H -0.583(7) 0.289(6) -0.598(5)
H16 H -0.360(7) 0.435(6) -0.433(4)
H17 H 0.789(7) 0.532(5) 0.428(4)
H18 H 1.082(7) 0.863(6) 0.411(4)
C12A C -0.3863(6) 0.3228(5) -0.3303(4)
O1A O -0.2711(5) 0.4029(4) -0.2324(3)
C1A C -0.1704(7) 0.5254(5) -0.2332(4)
C2A C -0.0531(8) 0.5807(6) -0.1161(5)
O2A O 0.1002(5) 0.6685(4) -0.1041(3)
C3A C 0.0742(7) 0.8091(6) -0.1054(4)
C4A C 0.2511(7) 0.8888(6) -0.0805(5)
O3A O 0.3715(5) 0.8829(4) 0.0226(3)
C5A C 0.3537(8) 0.9827(6) 0.1137(4)
C6A C 0.4762(8) 0.9608(6) 0.2171(4)
O4A O 0.4191(5) 0.8246(4) 0.2230(3)
C7A C 0.4703(6) 0.8000(5) 0.3242(4)
C8A C 0.5953(7) 0.8855(5) 0.4174(4)
C9A C 0.6328(7) 0.8494(6) 0.5158(4)
C10A C 0.5459(7) 0.7320(6) 0.5224(4)
C11A C 0.4231(7) 0.6445(6) 0.4293(4)
H16A H 0.360(7) 0.565(6) 0.433(4)
H15A H 0.583(7) 0.711(6) 0.598(5)
H14A H 0.734(7) 0.910(6) 0.582(5)
H13A H 0.668(7) 0.975(6) 0.413(4)
H11A H 0.618(7) 0.974(6) 0.224(4)
H12A H 0.474(7) 1.026(6) 0.276(5)
H9A H 0.393(7) 1.078(6) 0.109(4)
H10A H 0.230(7) 0.961(6) 0.116(4)
H7A H 0.299(7) 0.847(6) -0.137(5)
H8A H 0.242(7) 0.998(6) -0.074(4)
H5A H 0.007(7) 0.815(6) -0.176(5)
H6A H 0.012(7) 0.858(6) -0.052(5)
H3A H -0.013(7) 0.498(6) -0.092(4)
H4A H -0.115(7) 0.633(6) -0.076(5)
H1A H -0.260(7) 0.591(6) -0.263(4)
H2A H -0.099(7) 0.496(5) -0.284(4)
C13A C 0.2247(7) 0.3692(6) -0.2059(4)
C14A C 0.2604(7) 0.4474(6) -0.2779(4)
C15A C 0.1767(6) 0.4137(5) -0.3888(4)
C16A C 0.0504(7) 0.2985(6) -0.4383(4)
C17A C 0.0022(7) 0.2186(6) -0.3778(4)
C18A C 0.0849(6) 0.2538(5) -0.2673(4)
O5A O 0.3050(6) 0.3927(5) -0.1070(3)
N1A N 0.3916(6) 0.5714(5) -0.2333(4)
O6A O 0.4816(6) 0.6014(5) -0.1360(4)
O7A O 0.4060(6) 0.6423(5) -0.2933(4)
N2A N -0.0307(6) 0.2584(5) -0.5569(4)
O8A O 0.0168(6) 0.3298(4) -0.6088(3)
O9A O -0.1403(7) 0.1544(5) -0.5991(3)
N3A N 0.0224(6) 0.1672(5) -0.2079(4)
O10A O -0.0465(7) 0.0490(5) -0.2568(4)
O11A O 0.0405(7) 0.2165(5) -0.1130(4)
H17A H 0.211(7) 0.468(5) -0.428(4)
H18A H -0.082(7) 0.137(6) -0.411(4)
K1A K -0.3715(2) 0.3755(2) -0.0411(1)
K1A_2 K 0.6285(2) 0.3755(2) -0.0411(1)
K1_2 K -0.6285(2) 0.6245(2) 0.0411(1)
O5_2 O -0.3050(6) 0.6073(5) 0.1070(3)
O5A_2 O -0.6950(6) 0.3927(5) -0.1070(3)
O6_2 O -0.4816(6) 0.3986(5) 0.1360(4)
O6A_2 O -0.5184(6) 0.6014(5) -0.1360(4)
loop_
_geom_bond_atom_site_label_1
_geom_bond_atom_site_label_2
_geom_bond_site_symmetry_1
_geom_bond_site_symmetry_2
K1 O1 1_555 1_555
O1 C1 1_555 1_555
C1 C2 1_555 1_555
C2 O2 1_555 1_555
O2 C3 1_555 1_555
C3 C4 1_555 1_555
C4 O3 1_555 1_555
O3 C5 1_555 1_555
C5 C6 1_555 1_555
C6 O4 1_555 1_555
O4 C7 1_555 1_555
C7 C8 1_555 1_555
C8 C9 1_555 1_555
C9 C10 1_555 1_555
C10 C11 1_555 1_555
C11 H16 1_555 1_555
C12 O1 1_555 1_555
C13 C14 1_555 1_555
C14 C15 1_555 1_555
C15 C16 1_555 1_555
C16 C17 1_555 1_555
C17 C18 1_555 1_555
C18 C13 1_555 1_555
O5 K1 1_555 1_555
N1 C14 1_555 1_555
O6 K1 1_555 1_555
O7 N1 1_555 1_555
N2 C16 1_555 1_555
O8 N2 1_555 1_555
O9 N2 1_555 1_555
N3 C18 1_555 1_555
O10 N3 1_555 1_555
O11 N3 1_555 1_555
H1 C1 1_555 1_555
H2 C1 1_555 1_555
H3 C2 1_555 1_555
H4 C2 1_555 1_555
H5 C3 1_555 1_555
H6 C3 1_555 1_555
H7 C4 1_555 1_555
H8 C4 1_555 1_555
H9 C5 1_555 1_555
H10 C5 1_555 1_555
H11 C6 1_555 1_555
H12 C6 1_555 1_555
H13 C8 1_555 1_555
H14 C9 1_555 1_555
H15 C10 1_555 1_555
H17 C15 1_555 1_555
H18 C17 1_555 1_555
C12A C7 1_555 1_555
O1A C12A 1_555 1_555
C1A O1A 1_555 1_555
C2A C1A 1_555 1_555
O2A K1 1_555 1_555
C3A O2A 1_555 1_555
C4A C3A 1_555 1_555
O3A K1 1_555 1_555
C5A O3A 1_555 1_555
C6A C5A 1_555 1_555
O4A K1 1_555 1_555
C7A C12 1_555 1_555
C8A C7A 1_555 1_555
C9A C8A 1_555 1_555
C10A C9A 1_555 1_555
C11A C12 1_555 1_555
H16A C11A 1_555 1_555
H15A C10A 1_555 1_555
H14A C9A 1_555 1_555
H13A C8A 1_555 1_555
H11A C6A 1_555 1_555
H12A C6A 1_555 1_555
H9A C5A 1_555 1_555
H10A C5A 1_555 1_555
H7A C4A 1_555 1_555
H8A C4A 1_555 1_555
H5A C3A 1_555 1_555
H6A C3A 1_555 1_555
H3A C2A 1_555 1_555
H4A C2A 1_555 1_555
H1A C1A 1_555 1_555
H2A C1A 1_555 1_555
C13A C14A 1_555 1_555
C14A C15A 1_555 1_555
C15A C16A 1_555 1_555
C16A C17A 1_555 1_555
C17A C18A 1_555 1_555
C18A C13A 1_555 1_555
O5A K1 1_555 1_555
N1A C14A 1_555 1_555
O6A K1 1_555 1_555
O7A N1A 1_555 1_555
N2A C16A 1_555 1_555
O8A N2A 1_555 1_555
O9A N2A 1_555 1_555
N3A C18A 1_555 1_555
O10A N3A 1_555 1_555
O11A N3A 1_555 1_555
H17A C15A 1_555 1_555
H18A C17A 1_555 1_555
K1A O2 1_555 1_555
K1A_2 O5 1_555 1_555
K1_2 O5_2 1_555 1_555
O5_2 K1A 1_555 1_555
O5A_2 K1A 1_555 1_555
O6_2 K1A 1_555 1_555
O6A_2 K1A 1_555 1_555
O3 K1A 1_555 1_555
O4 K1A 1_555 1_555
C11 C12A 1_555 1_555
C13 O5 1_555 1_555
N1 O6 1_555 1_555
O6 K1A_2 1_555 1_555
O1A K1A 1_555 1_555
C2A O2A 1_555 1_555
C4A O3A 1_555 1_555
C6A O4A 1_555 1_555
O4A C7A 1_555 1_555
C10A C11A 1_555 1_555
C13A O5A 1_555 1_555
O5A K1A_2 1_555 1_555
N1A O6A 1_555 1_555
O6A K1A_2 1_555 1_555
K1_2 O5A_2 1_555 1_555
K1_2 O6_2 1_555 1_555
K1_2 O6A_2 1_555 1_555

#END
