
#######################################################################
#
#                 Cambridge Crystallographic Data Centre
#                                CCDC 
#
#######################################################################
#
# If this CIF has been generated from an entry in the Cambridge 
# Structural Database, then it will include bibliographic, chemical, 
# crystal, experimental, refinement or atomic coordinate data resulting 
# from the CCDC's data processing and validation procedures.
#
#######################################################################

data_SOFKED
_symmetry_cell_setting           triclinic
_symmetry_space_group_name_H-M   'P -1'
_symmetry_Int_Tables_number      2
_space_group_name_Hall           '-P 1'
loop_
_symmetry_equiv_pos_site_id
_symmetry_equiv_pos_as_xyz
1 x,y,z
2 -x,-y,-z
_cell_length_a                   8.231(4)
_cell_length_b                   9.850(2)
_cell_length_c                   13.346(4)
_cell_angle_alpha                103.91(2)
_cell_angle_beta                 106.82(3)
_cell_angle_gamma                93.37(2)
_cell_volume                     995.729
loop_
_atom_site_label
_atom_site_type_symbol
_atom_site_fract_x
_atom_site_fract_y
_atom_site_fract_z
K1 K 0.36466(5) 0.61963(4) 0.04517(3)
O1 O 0.2653(2) 0.5985(1) 0.2338(1)
C1 C 0.1686(2) 0.4733(2) 0.2349(1)
C2 C 0.0514(2) 0.4176(2) 0.1183(1)
O2 O -0.0981(2) 0.3289(1) 0.1079(1)
C3 C -0.0759(2) 0.1850(2) 0.1047(2)
C4 C -0.2518(2) 0.1050(2) 0.0778(2)
O3 O -0.3667(2) 0.1115(1) -0.0241(1)
C5 C -0.3505(2) 0.0088(2) -0.1149(2)
C6 C -0.4669(3) 0.0306(2) -0.2177(2)
O4 O -0.4066(2) 0.1670(1) -0.2254(1)
C7 C -0.4628(2) 0.1962(2) -0.3241(1)
C8 C -0.5898(2) 0.1130(2) -0.4143(1)
C9 C -0.6310(2) 0.1519(2) -0.5116(1)
C10 C -0.5453(2) 0.2725(2) -0.5184(1)
C11 C -0.4196(2) 0.3588(2) -0.4271(1)
C12 C 0.3808(2) 0.6771(2) 0.3296(1)
C13 C 0.7847(2) 0.6403(2) 0.2131(1)
C14 C 0.7473(2) 0.5589(2) 0.2836(1)
C15 C 0.8290(2) 0.5909(2) 0.3939(1)
C16 C 0.9565(2) 0.7054(2) 0.4430(1)
C17 C 1.0078(2) 0.7868(2) 0.3828(1)
C18 C 0.9280(2) 0.7524(2) 0.2728(1)
O5 O 0.7059(2) 0.6207(2) 0.1152(1)
N1 N 0.6158(2) 0.4355(2) 0.2387(1)
O6 O 0.5211(2) 0.4103(2) 0.1442(1)
O7 O 0.6038(2) 0.3595(2) 0.2972(1)
N2 N 1.0347(2) 0.7440(2) 0.5603(1)
O8 O 0.9830(2) 0.6730(2) 0.6121(1)
O9 O 1.1478(2) 0.8461(2) 0.6025(1)
N3 N 0.9905(2) 0.8387(2) 0.2134(1)
O10 O 1.0559(2) 0.9612(1) 0.2621(1)
O11 O 0.9794(2) 0.7861(2) 0.1186(1)
H1 H 0.245(3) 0.406(2) 0.259(2)
H2 H 0.102(3) 0.494(2) 0.283(2)
H3 H 0.008(3) 0.499(2) 0.092(2)
H4 H 0.114(3) 0.373(2) 0.073(2)
H5 H -0.005(3) 0.179(2) 0.176(2)
H6 H -0.020(3) 0.150(2) 0.049(2)
H7 H -0.306(3) 0.144(2) 0.131(2)
H8 H -0.245(3) 0.008(3) 0.079(2)
H9 H -0.382(3) -0.087(2) -0.109(2)
H10 H -0.235(3) 0.018(2) -0.116(2)
H11 H -0.586(3) 0.027(2) -0.219(2)
H12 H -0.461(4) -0.041(3) -0.281(2)
H13 H -0.647(3) 0.030(3) -0.411(2)
H14 H -0.722(3) 0.099(3) -0.574(2)
H15 H -0.572(3) 0.298(2) -0.584(2)
H16 H -0.359(3) 0.440(2) -0.431(2)
H17 H 0.797(3) 0.538(2) 0.437(2)
H18 H 1.096(3) 0.861(2) 0.416(2)
C12A C -0.3808(2) 0.3229(2) -0.3296(1)
O1A O -0.2653(2) 0.4015(1) -0.2338(1)
C1A C -0.1686(2) 0.5267(2) -0.2349(1)
C2A C -0.0514(2) 0.5824(2) -0.1183(1)
O2A O 0.0981(2) 0.6711(1) -0.1079(1)
C3A C 0.0759(2) 0.8150(2) -0.1047(2)
C4A C 0.2518(2) 0.8950(2) -0.0778(2)
O3A O 0.3667(2) 0.8885(1) 0.0241(1)
C5A C 0.3505(2) 0.9912(2) 0.1149(2)
C6A C 0.4669(3) 0.9694(2) 0.2177(2)
O4A O 0.4066(2) 0.8330(1) 0.2254(1)
C7A C 0.4628(2) 0.8038(2) 0.3241(1)
C8A C 0.5898(2) 0.8870(2) 0.4143(1)
C9A C 0.6310(2) 0.8481(2) 0.5116(1)
C10A C 0.5453(2) 0.7275(2) 0.5184(1)
C11A C 0.4196(2) 0.6412(2) 0.4271(1)
H16A H 0.359(3) 0.560(2) 0.431(2)
H15A H 0.572(3) 0.702(2) 0.584(2)
H14A H 0.722(3) 0.901(3) 0.574(2)
H13A H 0.647(3) 0.970(3) 0.411(2)
H11A H 0.586(3) 0.973(2) 0.219(2)
H12A H 0.461(4) 1.041(3) 0.281(2)
H9A H 0.382(3) 1.087(2) 0.109(2)
H10A H 0.235(3) 0.982(2) 0.116(2)
H7A H 0.306(3) 0.856(2) -0.131(2)
H8A H 0.245(3) 0.992(3) -0.079(2)
H5A H 0.005(3) 0.821(2) -0.176(2)
H6A H 0.020(3) 0.850(2) -0.049(2)
H3A H -0.008(3) 0.501(2) -0.092(2)
H4A H -0.114(3) 0.627(2) -0.073(2)
H1A H -0.245(3) 0.594(2) -0.259(2)
H2A H -0.102(3) 0.506(2) -0.283(2)
C13A C 0.2153(2) 0.3597(2) -0.2131(1)
C14A C 0.2527(2) 0.4411(2) -0.2836(1)
C15A C 0.1710(2) 0.4091(2) -0.3939(1)
C16A C 0.0435(2) 0.2946(2) -0.4430(1)
C17A C -0.0078(2) 0.2132(2) -0.3828(1)
C18A C 0.0720(2) 0.2476(2) -0.2728(1)
O5A O 0.2941(2) 0.3793(2) -0.1152(1)
N1A N 0.3842(2) 0.5645(2) -0.2387(1)
O6A O 0.4789(2) 0.5897(2) -0.1442(1)
O7A O 0.3962(2) 0.6405(2) -0.2972(1)
N2A N -0.0347(2) 0.2560(2) -0.5603(1)
O8A O 0.0170(2) 0.3270(2) -0.6121(1)
O9A O -0.1478(2) 0.1539(2) -0.6025(1)
N3A N 0.0095(2) 0.1613(2) -0.2134(1)
O10A O -0.0559(2) 0.0388(1) -0.2621(1)
O11A O 0.0206(2) 0.2139(2) -0.1186(1)
H17A H 0.203(3) 0.462(2) -0.437(2)
H18A H -0.096(3) 0.139(2) -0.416(2)
K1A K -0.36466(5) 0.38037(4) -0.04517(3)
K1A_2 K 0.63534(5) 0.38037(4) -0.04517(3)
O1A_2 O 0.7347(2) 0.4015(1) -0.2338(1)
O2_2 O 0.9019(2) 0.3289(1) 0.1079(1)
O3_2 O 0.6333(2) 0.1115(1) -0.0241(1)
O4_2 O 0.5934(2) 0.1670(1) -0.2254(1)
loop_
_geom_bond_atom_site_label_1
_geom_bond_atom_site_label_2
_geom_bond_site_symmetry_1
_geom_bond_site_symmetry_2
K1 O1 1_555 1_555
O1 C1 1_555 1_555
C1 C2 1_555 1_555
C2 O2 1_555 1_555
O2 C3 1_555 1_555
C3 C4 1_555 1_555
C4 O3 1_555 1_555
O3 C5 1_555 1_555
C5 C6 1_555 1_555
C6 O4 1_555 1_555
O4 C7 1_555 1_555
C7 C8 1_555 1_555
C8 C9 1_555 1_555
C9 C10 1_555 1_555
C10 C11 1_555 1_555
C11 H16 1_555 1_555
C12 O1 1_555 1_555
C13 C14 1_555 1_555
C14 C15 1_555 1_555
C15 C16 1_555 1_555
C16 C17 1_555 1_555
C17 C18 1_555 1_555
C18 C13 1_555 1_555
O5 K1 1_555 1_555
N1 C14 1_555 1_555
O6 K1 1_555 1_555
O7 N1 1_555 1_555
N2 C16 1_555 1_555
O8 N2 1_555 1_555
O9 N2 1_555 1_555
N3 C18 1_555 1_555
O10 N3 1_555 1_555
O11 N3 1_555 1_555
H1 C1 1_555 1_555
H2 C1 1_555 1_555
H3 C2 1_555 1_555
H4 C2 1_555 1_555
H5 C3 1_555 1_555
H6 C3 1_555 1_555
H7 C4 1_555 1_555
H8 C4 1_555 1_555
H9 C5 1_555 1_555
H10 C5 1_555 1_555
H11 C6 1_555 1_555
H12 C6 1_555 1_555
H13 C8 1_555 1_555
H14 C9 1_555 1_555
H15 C10 1_555 1_555
H17 C15 1_555 1_555
H18 C17 1_555 1_555
C12A C7 1_555 1_555
O1A C12A 1_555 1_555
C1A O1A 1_555 1_555
C2A C1A 1_555 1_555
O2A K1 1_555 1_555
C3A O2A 1_555 1_555
C4A C3A 1_555 1_555
O3A K1 1_555 1_555
C5A O3A 1_555 1_555
C6A C5A 1_555 1_555
O4A K1 1_555 1_555
C7A C12 1_555 1_555
C8A C7A 1_555 1_555
C9A C8A 1_555 1_555
C10A C9A 1_555 1_555
C11A C12 1_555 1_555
H16A C11A 1_555 1_555
H15A C10A 1_555 1_555
H14A C9A 1_555 1_555
H13A C8A 1_555 1_555
H11A C6A 1_555 1_555
H12A C6A 1_555 1_555
H9A C5A 1_555 1_555
H10A C5A 1_555 1_555
H7A C4A 1_555 1_555
H8A C4A 1_555 1_555
H5A C3A 1_555 1_555
H6A C3A 1_555 1_555
H3A C2A 1_555 1_555
H4A C2A 1_555 1_555
H1A C1A 1_555 1_555
H2A C1A 1_555 1_555
C13A C14A 1_555 1_555
C14A C15A 1_555 1_555
C15A C16A 1_555 1_555
C16A C17A 1_555 1_555
C17A C18A 1_555 1_555
C18A C13A 1_555 1_555
O5A K1 1_555 1_555
N1A C14A 1_555 1_555
O6A K1 1_555 1_555
O7A N1A 1_555 1_555
N2A C16A 1_555 1_555
O8A N2A 1_555 1_555
O9A N2A 1_555 1_555
N3A C18A 1_555 1_555
O10A N3A 1_555 1_555
O11A N3A 1_555 1_555
H17A C15A 1_555 1_555
H18A C17A 1_555 1_555
K1A O2 1_555 1_555
K1A_2 O5 1_555 1_555
O1A_2 K1A_2 1_555 1_555
O2_2 K1A_2 1_555 1_555
O3_2 K1A_2 1_555 1_555
O4_2 K1A_2 1_555 1_555
O3 K1A 1_555 1_555
O4 K1A 1_555 1_555
C11 C12A 1_555 1_555
C13 O5 1_555 1_555
N1 O6 1_555 1_555
O6 K1A_2 1_555 1_555
O1A K1A 1_555 1_555
C2A O2A 1_555 1_555
C4A O3A 1_555 1_555
C6A O4A 1_555 1_555
O4A C7A 1_555 1_555
C10A C11A 1_555 1_555
C13A O5A 1_555 1_555
O5A K1A_2 1_555 1_555
N1A O6A 1_555 1_555
O6A K1A_2 1_555 1_555

#END
