
#######################################################################
#
#                 Cambridge Crystallographic Data Centre
#                                CCDC 
#
#######################################################################
#
# If this CIF has been generated from an entry in the Cambridge 
# Structural Database, then it will include bibliographic, chemical, 
# crystal, experimental, refinement or atomic coordinate data resulting 
# from the CCDC's data processing and validation procedures.
#
#######################################################################

data_SOFSOW
_symmetry_cell_setting           trigonal
_symmetry_space_group_name_H-M   'P 31 2 1'
_symmetry_Int_Tables_number      152
_space_group_name_Hall           'P 31 2"'
loop_
_symmetry_equiv_pos_site_id
_symmetry_equiv_pos_as_xyz
1 x,y,z
2 -y,x-y,1/3+z
3 -x+y,-x,2/3+z
4 x-y,-y,2/3-z
5 -x,-x+y,1/3-z
6 y,x,-z
_cell_length_a                   14.803(2)
_cell_length_b                   14.803(2)
_cell_length_c                   7.0721(14)
_cell_angle_alpha                90
_cell_angle_beta                 90
_cell_angle_gamma                120
_cell_volume                     1342.08
loop_
_atom_site_label
_atom_site_type_symbol
_atom_site_fract_x
_atom_site_fract_y
_atom_site_fract_z
Zn1 Zn 0.41401(3) 1.0000 0.8333
C1 C 0.6443(3) 1.1457(3) 0.8399(5)
C2 C 0.6601(3) 1.1304(4) 0.6360(5)
H1 H 0.7326 1.1729 0.6044
H2 H 0.6195 1.1502 0.5588
H3 H 0.6384 1.0584 0.6140
C3 C 0.5758(3) 1.1393(3) 1.1138(5)
H4 H 0.5271 1.1218 1.2102
C4 C 0.6791(3) 1.2064(3) 1.1295(6)
H5 H 0.7149 1.2428 1.2371
C5 C 0.2981(2) 0.9917(2) 0.5511(4)
C6 C 0.2066(3) 0.9691(3) 0.4255(4)
H6 H 0.1595 0.9849 0.4946
H7 H 0.1690 0.8952 0.3959
N1 N 0.5538(2) 1.1004(2) 0.9313(4)
N2 N 0.7206(2) 1.2100(3) 0.9539(4)
H8 H 0.7852 1.2477 0.9232
O1 O 0.28028(15) 0.92778(17) 0.6872(3)
O2 O 0.38666(17) 1.06937(16) 0.5242(3)
Zn1_2 Zn 0.41401(3) 1.0000 -0.1667
C1C C 0.4986(4) 0.8543(3) 0.8268(5)
C2C C 0.5297(5) 0.8696(4) 1.0307(5)
H1C H 0.5597 0.8271 1.0623
H2C H 0.4693 0.8498 1.1079
H3C H 0.5800 0.9416 1.0527
C3C C 0.4365(4) 0.8607(3) 0.5529(5)
H4C H 0.4053 0.8782 0.4565
C4C C 0.4727(4) 0.7936(3) 0.5372(6)
H5C H 0.4721 0.7572 0.4296
C5C C 0.3064(3) 1.0083(2) 0.1156(4)
C6C C 0.2375(4) 1.0309(3) 0.2412(4)
H6C H 0.1746 1.0151 0.1721
H7C H 0.2738 1.1048 0.2708
N1C N 0.4534(3) 0.8996(2) 0.7354(4)
N2C N 0.5106(4) 0.7900(3) 0.7128(4)
H8C H 0.5375 0.7523 0.7435
O1C O 0.35250(23) 1.07222(17) -0.0205(3)
O1C_2 O 0.35250(23) 1.07222(17) 0.9795(3)
O2C O 0.31729(23) 0.93063(16) 0.1425(3)
O3 O 0.2511(3) 1.1826(4) 0.8414(5)
H9 H 0.280(4) 1.147(4) 0.888(6)
H10 H 0.245(4) 1.215(4) 0.939(5)
O4 O 0.0547(3) 1.0000 0.8333
H11 H 0.107(5) 1.054(4) 0.852(8)
H11C H 0.053(6) 0.946(4) 0.815(8)
loop_
_geom_bond_atom_site_label_1
_geom_bond_atom_site_label_2
_geom_bond_site_symmetry_1
_geom_bond_site_symmetry_2
Zn1 N1 1_555 1_555
C1 C2 1_555 1_555
C2 H1 1_555 1_555
H2 C2 1_555 1_555
H3 C2 1_555 1_555
C3 H4 1_555 1_555
C4 C3 1_555 1_555
H5 C4 1_555 1_555
C5 C6 1_555 1_555
C6 H6 1_555 1_555
H7 C6 1_555 1_555
N1 C1 1_555 1_555
N2 C1 1_555 1_555
H8 N2 1_555 1_555
O1 Zn1 1_555 1_555
O2 C5 1_555 1_555
O3 H9 1_555 1_555
H10 O3 1_555 1_555
O4 H11 1_555 1_555
Zn1_2 O1C 1_555 1_555
C1C C2C 1_555 1_555
C2C H1C 1_555 1_555
H2C C2C 1_555 1_555
H3C C2C 1_555 1_555
C3C H4C 1_555 1_555
C4C C3C 1_555 1_555
H5C C4C 1_555 1_555
C5C C6C 1_555 1_555
C6C C6 1_555 1_555
H6C C6C 1_555 1_555
H7C C6C 1_555 1_555
N1C Zn1 1_555 1_555
N2C C1C 1_555 1_555
H8C N2C 1_555 1_555
O1C C5C 1_555 1_555
O1C_2 Zn1 1_555 1_555
O2C C5C 1_555 1_555
H11C O4 1_555 1_555
C3 N1 1_555 1_555
C4 N2 1_555 1_555
C5 O1 1_555 1_555
C1C N1C 1_555 1_555
C3C N1C 1_555 1_555
C4C N2C 1_555 1_555

#END
