
#######################################################################
#
#                 Cambridge Crystallographic Data Centre
#                                CCDC 
#
#######################################################################
#
# If this CIF has been generated from an entry in the Cambridge 
# Structural Database, then it will include bibliographic, chemical, 
# crystal, experimental, refinement or atomic coordinate data resulting 
# from the CCDC's data processing and validation procedures.
#
#######################################################################

data_SOFTOX
_symmetry_cell_setting           triclinic
_symmetry_space_group_name_H-M   'P -1'
_symmetry_Int_Tables_number      2
_space_group_name_Hall           '-P 1'
loop_
_symmetry_equiv_pos_site_id
_symmetry_equiv_pos_as_xyz
1 x,y,z
2 -x,-y,-z
_cell_length_a                   7.5793(10)
_cell_length_b                   10.4791(13)
_cell_length_c                   11.0258(14)
_cell_angle_alpha                109.295(2)
_cell_angle_beta                 107.267(2)
_cell_angle_gamma                104.026(2)
_cell_volume                     730.805
loop_
_atom_site_label
_atom_site_type_symbol
_atom_site_fract_x
_atom_site_fract_y
_atom_site_fract_z
Ni1 Ni 0.35767(4) 0.12744(3) 0.25001(3)
N1 N 0.0701(2) 0.25882(18) 0.20545(18)
N2 N 0.5996(3) 0.09354(19) 0.34366(18)
O1 O 0.3842(2) 0.25930(18) 0.43273(16)
O2 O 0.3081(3) 0.4154(2) 0.57803(17)
O3 O 0.0960(2) 0.13254(16) 0.16824(15)
O4 O -0.2846(2) 0.03788(16) -0.06935(15)
O5 O -0.0767(3) 0.16668(19) -0.13056(17)
O6 O 0.5235(3) 0.2967(2) 0.2041(2)
C1 C 0.2931(3) 0.3435(2) 0.4592(2)
C2 C 0.1574(3) 0.3641(2) 0.3408(2)
C3 C 0.1189(4) 0.4906(2) 0.3686(2)
H1 H 0.1757 0.5632 0.4606
C4 C -0.0032(4) 0.5104(3) 0.2613(3)
H2 H -0.0260 0.5968 0.2803
C5 C -0.0904(4) 0.4015(2) 0.1264(2)
H3 H -0.1735 0.4136 0.0535
C6 C -0.0551(3) 0.2742(2) 0.0988(2)
C7 C -0.1447(3) 0.1487(2) -0.0462(2)
C8 C 0.6617(3) 0.1147(2) 0.4785(2)
H4 H 0.5972 0.1550 0.5315
C9 C 0.8159(3) 0.0796(2) 0.5420(2)
H5 H 0.8526 0.0955 0.6357
C10 C 0.9171(3) 0.0206(2) 0.4672(2)
C11 C 0.8572(3) 0.0039(3) 0.3287(2)
H6 H 0.9235 -0.0316 0.2749
C12 C 0.7002(3) 0.0400(3) 0.2717(2)
H7 H 0.6618 0.0267 0.1787
H8 H 0.583(5) 0.3823(17) 0.271(2)
H9 H 0.465(4) 0.297(4) 0.1244(19)
Ni1A Ni 1.64233(4) -0.12744(3) 0.74999(3)
Ni1A_2 Ni -0.35767(4) -0.12744(3) -0.25001(3)
N1A N -0.0701(2) -0.25882(18) -0.20545(18)
N2A N 1.4004(3) -0.09354(19) 0.65634(18)
O1A O -0.3842(2) -0.25930(18) -0.43273(16)
O1A_2 O 1.6158(2) -0.25930(18) 0.56727(16)
O2A O -0.3081(3) -0.4154(2) -0.57803(17)
O3A O -0.0960(2) -0.13254(16) -0.16824(15)
O3A_2 O 1.9040(2) -0.13254(16) 0.83176(15)
O4A O 0.2846(2) -0.03788(16) 0.06935(15)
O4_2 O 1.7154(2) 0.03788(16) 0.93065(15)
O5A O 0.0767(3) -0.16668(19) 0.13056(17)
O6A O 1.4765(3) -0.2967(2) 0.7959(2)
C1A C -0.2931(3) -0.3435(2) -0.4592(2)
C2A C -0.1574(3) -0.3641(2) -0.3408(2)
C3A C -0.1189(4) -0.4906(2) -0.3686(2)
H1A H -0.1757 -0.5632 -0.4606
C4A C 0.0032(4) -0.5104(3) -0.2613(3)
H2A H 0.0260 -0.5968 -0.2803
C5A C 0.0904(4) -0.4015(2) -0.1264(2)
H3A H 0.1735 -0.4136 -0.0535
C6A C 0.0551(3) -0.2742(2) -0.0988(2)
C7A C 0.1447(3) -0.1487(2) 0.0462(2)
C8A C 1.3383(3) -0.1147(2) 0.5215(2)
H4A H 1.4028 -0.1550 0.4685
C9A C 1.1841(3) -0.0796(2) 0.4580(2)
H5A H 1.1474 -0.0955 0.3643
C10A C 1.0829(3) -0.0206(2) 0.5328(2)
C11A C 1.1428(3) -0.0039(3) 0.6713(2)
H6A H 1.0765 0.0316 0.7251
C12A C 1.2998(3) -0.0400(3) 0.7283(2)
H7A H 1.3382 -0.0267 0.8213
H8A H 1.417(5) -0.3823(17) 0.729(2)
H9A H 1.535(4) -0.297(4) 0.8756(19)
O7 O 0.4732(4) 0.6361(3) 0.1894(3)
H10 H 0.545(4) 0.646(4) 0.2697(18)
H11 H 0.421(5) 0.5456(14) 0.137(3)
O8 O 0.6833(4) 0.6549(3) 0.0209(3)
H12 H 0.802(2) 0.715(3) 0.063(3)
H13 H 0.627(5) 0.674(4) 0.077(3)
loop_
_geom_bond_atom_site_label_1
_geom_bond_atom_site_label_2
_geom_bond_site_symmetry_1
_geom_bond_site_symmetry_2
Ni1 N2 1_555 1_555
N1 O3 1_555 1_555
N2 C8 1_555 1_555
O1 Ni1 1_555 1_555
O2 C1 1_555 1_555
O3 Ni1 1_555 1_555
O4 C7 1_555 1_555
O5 C7 1_555 1_555
O6 Ni1 1_555 1_555
C1 O1 1_555 1_555
C2 N1 1_555 1_555
C3 C2 1_555 1_555
H1 C3 1_555 1_555
C4 C3 1_555 1_555
H2 C4 1_555 1_555
C5 C4 1_555 1_555
H3 C5 1_555 1_555
C6 N1 1_555 1_555
C7 C6 1_555 1_555
C8 H4 1_555 1_555
C9 C8 1_555 1_555
H5 C9 1_555 1_555
C10 C9 1_555 1_555
C11 C10 1_555 1_555
H6 C11 1_555 1_555
C12 N2 1_555 1_555
H7 C12 1_555 1_555
H8 O6 1_555 1_555
H9 O6 1_555 1_555
O7 H10 1_555 1_555
H11 O7 1_555 1_555
O8 H12 1_555 1_555
H13 O8 1_555 1_555
Ni1A N2A 1_555 1_555
Ni1A_2 O4 1_555 1_555
N1A O3A 1_555 1_555
N2A C8A 1_555 1_555
O1A Ni1A_2 1_555 1_555
O1A_2 Ni1A 1_555 1_555
O2A C1A 1_555 1_555
O3A Ni1A_2 1_555 1_555
O3A_2 Ni1A 1_555 1_555
O4A Ni1 1_555 1_555
O4_2 Ni1A 1_555 1_555
O5A C7A 1_555 1_555
O6A Ni1A 1_555 1_555
C1A O1A 1_555 1_555
C2A N1A 1_555 1_555
C3A C2A 1_555 1_555
H1A C3A 1_555 1_555
C4A C3A 1_555 1_555
H2A C4A 1_555 1_555
C5A C4A 1_555 1_555
H3A C5A 1_555 1_555
C6A N1A 1_555 1_555
C7A O4A 1_555 1_555
C8A H4A 1_555 1_555
C9A C8A 1_555 1_555
H5A C9A 1_555 1_555
C10A C10 1_555 1_555
C11A C10A 1_555 1_555
H6A C11A 1_555 1_555
C12A N2A 1_555 1_555
H7A C12A 1_555 1_555
H8A O6A 1_555 1_555
H9A O6A 1_555 1_555
C1 C2 1_555 1_555
C5 C6 1_555 1_555
C11 C12 1_555 1_555
C1A C2A 1_555 1_555
C5A C6A 1_555 1_555
C6A C7A 1_555 1_555
C9A C10A 1_555 1_555
C11A C12A 1_555 1_555

#END
