
#######################################################################
#
#                 Cambridge Crystallographic Data Centre
#                                CCDC 
#
#######################################################################
#
# If this CIF has been generated from an entry in the Cambridge 
# Structural Database, then it will include bibliographic, chemical, 
# crystal, experimental, refinement or atomic coordinate data resulting 
# from the CCDC's data processing and validation procedures.
#
#######################################################################

data_SOFVEP
_symmetry_cell_setting           monoclinic
_symmetry_space_group_name_H-M   'C 2/c'
_symmetry_Int_Tables_number      15
_space_group_name_Hall           '-C 2yn'
loop_
_symmetry_equiv_pos_site_id
_symmetry_equiv_pos_as_xyz
1 x,y,z
2 1/2+x,1/2+y,z
3 -x,y,1/2-z
4 1/2-x,1/2+y,1/2-z
5 -x,-y,-z
6 1/2-x,1/2-y,-z
7 x,-y,1/2+z
8 1/2+x,1/2-y,1/2+z
_cell_length_a                   17.581(6)
_cell_length_b                   9.8020(10)
_cell_length_c                   14.0760(10)
_cell_angle_alpha                90
_cell_angle_beta                 102.61
_cell_angle_gamma                90
_cell_volume                     2367.19
loop_
_atom_site_label
_atom_site_type_symbol
_atom_site_fract_x
_atom_site_fract_y
_atom_site_fract_z
Zn1 Zn 0.0000 0.14353(6) 0.7500
O1 O 0.1323(4) 0.1268(6) 0.7971(6)
H1 H 0.1274 0.1919 0.7374
H2 H 0.1471 0.0636 0.7407
O2 O 0.0110(4) 0.3163(6) 0.6439(4)
O3 O 0.0879(4) 0.4431(6) 0.5780(4)
C1 C 0.0483(4) 0.3408(6) 0.5822(5)
C2 C 0.0404(4) 0.2323(6) 0.4983(4)
H3 H 0.0704 0.1417 0.5309
N1 N 0.0866(3) 0.2739(5) 0.4265(3)
C3 C 0.1507(4) 0.2021(8) 0.4192(5)
H4 H 0.1598 0.1115 0.4584
C4 C 0.1940(4) 0.2398(9) 0.3553(6)
H5 H 0.2482 0.1830 0.3588
C5 C 0.1731(5) 0.3586(8) 0.2993(6)
H6 H 0.2118 0.3873 0.2539
C6 C 0.1091(4) 0.4292(8) 0.3082(5)
H7 H 0.0838 0.5224 0.2709
C7 C 0.0657(4) 0.3865(7) 0.3720(4)
H8 H 0.0178 0.4379 0.3822
O4 O -0.1280(3) 0.0583(6) 0.3421(5)
O5 O -0.0012(3) 0.0245(5) 0.3651(3)
C8 C -0.0582(3) 0.0858(6) 0.3800(4)
C9 C -0.0449(4) 0.2061(7) 0.4505(5)
H9 H -0.0737 0.1866 0.5042
H10 H -0.0706 0.2881 0.4119
Zn1D Zn 0.0000 -0.14353(6) 0.2500
Zn1D_2 Zn 0.0000 -0.14353(6) 1.2500
O1B O -0.1323(4) 0.1268(6) 0.7029(6)
H1B H -0.1274 0.1919 0.7626
H2B H -0.1471 0.0636 0.7593
O2B O -0.0110(4) 0.3163(6) 0.8561(4)
O3B O -0.0879(4) 0.4431(6) 0.9220(4)
C1B C -0.0483(4) 0.3408(6) 0.9178(5)
C2B C -0.0404(4) 0.2323(6) 1.0017(4)
H3B H -0.0704 0.1417 0.9691
N1B N -0.0866(3) 0.2739(5) 1.0735(3)
C3B C -0.1507(4) 0.2021(8) 1.0808(5)
H4B H -0.1598 0.1115 1.0416
C4B C -0.1940(4) 0.2398(9) 1.1447(6)
H5B H -0.2482 0.1830 1.1412
C5B C -0.1731(5) 0.3586(8) 1.2007(6)
H6B H -0.2118 0.3873 1.2461
C6B C -0.1091(4) 0.4292(8) 1.1918(5)
H7B H -0.0838 0.5224 1.2291
C7B C -0.0657(4) 0.3865(7) 1.1280(4)
H8B H -0.0178 0.4379 1.1178
O4B O 0.1280(3) 0.0583(6) 1.1579(5)
O5B O 0.0012(3) 0.0245(5) 1.1349(3)
O5F O -0.0012(3) -0.0245(5) 0.8651(3)
O5D O 0.0012(3) -0.0245(5) 0.6349(3)
C8B C 0.0582(3) 0.0858(6) 1.1200(4)
C9B C 0.0449(4) 0.2061(7) 1.0495(5)
H9B H 0.0737 0.1866 0.9958
H10B H 0.0706 0.2881 1.0881
O6 O 0.2187(4) 0.5480(7) 0.5260(5)
H11 H 0.1656 0.4987 0.5443
H12 H 0.2333 0.6391 0.5806
O7 O 0.2439(4) 0.3096(7) 0.8680(5)
H13 H 0.2927 0.3568 0.8614
H14 H 0.2369 0.3660 0.9389
loop_
_geom_bond_atom_site_label_1
_geom_bond_atom_site_label_2
_geom_bond_site_symmetry_1
_geom_bond_site_symmetry_2
Zn1 O1 1_555 1_555
O1 H1 1_555 1_555
H2 O1 1_555 1_555
O2 Zn1 1_555 1_555
O3 C1 1_555 1_555
C1 O2 1_555 1_555
C2 C1 1_555 1_555
H3 C2 1_555 1_555
N1 C2 1_555 1_555
C3 N1 1_555 1_555
H4 C3 1_555 1_555
C4 C3 1_555 1_555
H5 C4 1_555 1_555
C5 C4 1_555 1_555
H6 C5 1_555 1_555
C6 C5 1_555 1_555
H7 C6 1_555 1_555
C7 N1 1_555 1_555
H8 C7 1_555 1_555
O4 C8 1_555 1_555
O5 C8 1_555 1_555
C8 C9 1_555 1_555
C9 C2 1_555 1_555
H9 C9 1_555 1_555
H10 C9 1_555 1_555
O6 H11 1_555 1_555
H12 O6 1_555 1_555
O7 H13 1_555 1_555
H14 O7 1_555 1_555
Zn1D O5 1_555 1_555
Zn1D_2 O5B 1_555 1_555
O1B Zn1 1_555 1_555
H1B O1B 1_555 1_555
H2B O1B 1_555 1_555
O2B Zn1 1_555 1_555
O3B C1B 1_555 1_555
C1B O2B 1_555 1_555
C2B C1B 1_555 1_555
H3B C2B 1_555 1_555
N1B C2B 1_555 1_555
C3B N1B 1_555 1_555
H4B C3B 1_555 1_555
C4B C3B 1_555 1_555
H5B C4B 1_555 1_555
C5B C4B 1_555 1_555
H6B C5B 1_555 1_555
C6B C5B 1_555 1_555
H7B C6B 1_555 1_555
C7B N1B 1_555 1_555
H8B C7B 1_555 1_555
O4B C8B 1_555 1_555
O5B C8B 1_555 1_555
O5F Zn1 1_555 1_555
O5D Zn1 1_555 1_555
C8B C9B 1_555 1_555
C9B C2B 1_555 1_555
H9B C9B 1_555 1_555
H10B C9B 1_555 1_555
C6 C7 1_555 1_555
C6B C7B 1_555 1_555

#END
