
#######################################################################
#
#                 Cambridge Crystallographic Data Centre
#                                CCDC 
#
#######################################################################
#
# If this CIF has been generated from an entry in the Cambridge 
# Structural Database, then it will include bibliographic, chemical, 
# crystal, experimental, refinement or atomic coordinate data resulting 
# from the CCDC's data processing and validation procedures.
#
#######################################################################

data_SOFWUG
_symmetry_cell_setting           monoclinic
_symmetry_space_group_name_H-M   'P 21/a'
_symmetry_Int_Tables_number      14
_space_group_name_Hall           '-P 2yab'
loop_
_symmetry_equiv_pos_site_id
_symmetry_equiv_pos_as_xyz
1 x,y,z
2 1/2-x,1/2+y,-z
3 -x,-y,-z
4 1/2+x,1/2-y,z
_cell_length_a                   9.389(2)
_cell_length_b                   4.7820(10)
_cell_length_c                   29.126(7)
_cell_angle_alpha                90
_cell_angle_beta                 104.256(7)
_cell_angle_gamma                90
_cell_volume                     1267.43
loop_
_atom_site_label
_atom_site_type_symbol
_atom_site_fract_x
_atom_site_fract_y
_atom_site_fract_z
C1 C 0.7184(5) -0.3109(10) 0.19302(17)
C2 C 0.7780(6) -0.1602(11) 0.15666(19)
H1 H 0.8636 -0.0544 0.1731
H2 H 0.7047 -0.0267 0.1407
C3 C 0.8215(6) -0.3404(11) 0.11919(19)
H3 H 0.8985 -0.4689 0.1346
H4 H 0.7374 -0.4503 0.1029
C4 C 0.8750(7) -0.1677(13) 0.0835(2)
H5 H 0.9595 -0.0591 0.1000
H6 H 0.7983 -0.0376 0.0686
C5 C 0.9177(9) -0.3437(17) 0.0453(2)
H7 H 0.9946 -0.4712 0.0599
H8 H 0.9517 -0.2233 0.0239
H9 H 0.8338 -0.4473 0.0282
C6 C 0.4620(5) 0.1354(11) 0.29619(18)
C7 C 0.5718(6) -0.0210(14) 0.3329(2)
H10 H 0.6541 0.1024 0.3456
H11 H 0.6085 -0.1756 0.3176
C8 C 0.5177(7) -0.1364(17) 0.3739(2)
H12 H 0.4695 0.0125 0.3870
H13 H 0.4450 -0.2800 0.3621
C9 C 0.6363(9) -0.258(2) 0.4128(3)
H14 H 0.7112 -0.1168 0.4237
H15 H 0.6817 -0.4123 0.4001
C10 C 0.5825(11) -0.362(3) 0.4546(3)
H16 H 0.5363 -0.2109 0.4672
H17 H 0.6642 -0.4303 0.4787
H18 H 0.5128 -0.5099 0.4446
O1 O 0.6932(4) -0.1838(7) 0.22800(13)
O2 O 0.6954(4) -0.5724(7) 0.18803(12)
O3 O 0.4976(4) 0.2344(7) 0.26038(12)
O4 O 0.3333(4) 0.1625(8) 0.30100(13)
Zn1 Zn 0.68833(6) 0.21140(11) 0.24407(2)
O2_2 O 0.6954(4) 0.4276(7) 0.18803(12)
O4C O 0.8333(4) 0.3375(8) 0.30100(13)
Zn1_2 Zn 0.68833(6) -0.78860(11) 0.24407(2)
Zn1C Zn 0.18833(6) 0.28860(11) 0.24407(2)
loop_
_geom_bond_atom_site_label_1
_geom_bond_atom_site_label_2
_geom_bond_site_symmetry_1
_geom_bond_site_symmetry_2
C1 C2 1_555 1_555
C2 H1 1_555 1_555
H2 C2 1_555 1_555
C3 C2 1_555 1_555
H3 C3 1_555 1_555
H4 C3 1_555 1_555
C4 C3 1_555 1_555
H5 C4 1_555 1_555
H6 C4 1_555 1_555
C5 C4 1_555 1_555
H7 C5 1_555 1_555
H8 C5 1_555 1_555
H9 C5 1_555 1_555
C6 C7 1_555 1_555
C7 H10 1_555 1_555
H11 C7 1_555 1_555
C8 C7 1_555 1_555
H12 C8 1_555 1_555
H13 C8 1_555 1_555
C9 C8 1_555 1_555
H14 C9 1_555 1_555
H15 C9 1_555 1_555
C10 C9 1_555 1_555
H16 C10 1_555 1_555
H17 C10 1_555 1_555
H18 C10 1_555 1_555
O1 C1 1_555 1_555
O2 C1 1_555 1_555
O3 C6 1_555 1_555
O4 C6 1_555 1_555
Zn1 O1 1_555 1_555
O2_2 Zn1 1_555 1_555
O4C Zn1 1_555 1_555
Zn1_2 O2 1_555 1_555
Zn1C O4 1_555 1_555
O3 Zn1 1_555 1_555

#END
