
#######################################################################
#
#                 Cambridge Crystallographic Data Centre
#                                CCDC 
#
#######################################################################
#
# If this CIF has been generated from an entry in the Cambridge 
# Structural Database, then it will include bibliographic, chemical, 
# crystal, experimental, refinement or atomic coordinate data resulting 
# from the CCDC's data processing and validation procedures.
#
#######################################################################

data_SOFXUH
_symmetry_cell_setting           monoclinic
_symmetry_space_group_name_H-M   'C 2/c'
_symmetry_Int_Tables_number      15
_space_group_name_Hall           '-C 2yn'
loop_
_symmetry_equiv_pos_site_id
_symmetry_equiv_pos_as_xyz
1 x,y,z
2 1/2+x,1/2+y,z
3 -x,y,1/2-z
4 1/2-x,1/2+y,1/2-z
5 -x,-y,-z
6 1/2-x,1/2-y,-z
7 x,-y,1/2+z
8 1/2+x,1/2-y,1/2+z
_cell_length_a                   17.502(3)
_cell_length_b                   12.047(2)
_cell_length_c                   13.664(3)
_cell_angle_alpha                90
_cell_angle_beta                 129.52(3)
_cell_angle_gamma                90
_cell_volume                     2222.42
loop_
_atom_site_label
_atom_site_type_symbol
_atom_site_fract_x
_atom_site_fract_y
_atom_site_fract_z
Cu1 Cu 0.39530(4) -1.00789(3) 0.59335(4)
Br1 Br 0.41669(3) -1.00735(3) 0.79367(3)
N1 N 0.4034(2) -0.5894(2) 0.5433(3)
N2 N 0.3650(3) -0.5418(3) 0.3597(3)
N3 N 0.3835(3) -0.6492(3) 0.3743(3)
N4 N 0.4055(2) -0.6750(2) 0.4833(3)
N5 N 0.3645(2) -0.1683(2) 0.5386(3)
C1 C 0.2905(3) -0.9151(3) 0.4367(4)
H1 H 0.2909 -0.9193 0.3661
H2 H 0.2243 -0.9164 0.4105
C2 C 0.3548(3) -0.8426(3) 0.5299(4)
H3 H 0.3295 -0.7999 0.5648
C3 C 0.4350(3) -0.7880(3) 0.5368(4)
H4 H 0.4950 -0.7843 0.6246
H5 H 0.4488 -0.8319 0.4902
C4 C 0.3456(3) -0.3080(3) 0.4013(3)
H6 H 0.3317 -0.3258 0.3251
C5 C 0.3673(2) -0.3910(3) 0.4859(3)
C6 C 0.3807(3) -0.2487(3) 0.6168(3)
H7 H 0.3909 -0.2289 0.6901
C7 C 0.3451(3) -0.1993(3) 0.4310(3)
H8 H 0.3304 -0.1446 0.3732
C8 C 0.3830(3) -0.3597(3) 0.5945(3)
H9 H 0.3951 -0.4129 0.6522
C9 C 0.3769(3) -0.5074(3) 0.4619(3)
Cu1_2 Cu 0.39530(4) -0.00789(3) 0.59335(4)
Cu1B Cu 0.60470(4) -1.00789(3) 0.90665(4)
Br1B Br 0.58331(3) -1.00735(3) 0.70633(3)
N5_2 N 0.3645(2) -1.1683(2) 0.5386(3)
loop_
_geom_bond_atom_site_label_1
_geom_bond_atom_site_label_2
_geom_bond_site_symmetry_1
_geom_bond_site_symmetry_2
Cu1 Br1 1_555 1_555
Br1 Cu1B 1_555 1_555
N1 N4 1_555 1_555
N2 N3 1_555 1_555
N3 N4 1_555 1_555
N4 C3 1_555 1_555
N5 C6 1_555 1_555
C1 Cu1 1_555 1_555
H1 C1 1_555 1_555
H2 C1 1_555 1_555
C2 Cu1 1_555 1_555
H3 C2 1_555 1_555
C3 C2 1_555 1_555
H4 C3 1_555 1_555
H5 C3 1_555 1_555
C4 H6 1_555 1_555
C5 C4 1_555 1_555
C6 H7 1_555 1_555
C7 N5 1_555 1_555
H8 C7 1_555 1_555
C8 C5 1_555 1_555
H9 C8 1_555 1_555
C9 N1 1_555 1_555
Cu1_2 N5 1_555 1_555
Cu1B Br1B 1_555 1_555
Br1B Cu1 1_555 1_555
N5_2 Cu1 1_555 1_555
N2 C9 1_555 1_555
C1 C2 1_555 1_555
C4 C7 1_555 1_555
C5 C9 1_555 1_555
C6 C8 1_555 1_555

#END
