
#######################################################################
#
#                 Cambridge Crystallographic Data Centre
#                                CCDC 
#
#######################################################################
#
# If this CIF has been generated from an entry in the Cambridge 
# Structural Database, then it will include bibliographic, chemical, 
# crystal, experimental, refinement or atomic coordinate data resulting 
# from the CCDC's data processing and validation procedures.
#
#######################################################################

data_SOFXOB
_symmetry_cell_setting           triclinic
_symmetry_space_group_name_H-M   'P -1'
_symmetry_Int_Tables_number      2
_space_group_name_Hall           '-P 1'
loop_
_symmetry_equiv_pos_site_id
_symmetry_equiv_pos_as_xyz
1 x,y,z
2 -x,-y,-z
_cell_length_a                   7.3005(15)
_cell_length_b                   7.6560(15)
_cell_length_c                   9.981(2)
_cell_angle_alpha                80.51(3)
_cell_angle_beta                 77.00(3)
_cell_angle_gamma                84.68(3)
_cell_volume                     535.228
loop_
_atom_site_label
_atom_site_type_symbol
_atom_site_fract_x
_atom_site_fract_y
_atom_site_fract_z
Cu1 Cu 0.15988(6) 0.83757(6) -0.61011(4)
Cl1 Cl -0.15148(11) 0.88709(11) -0.59195(10)
N1 N 0.2905(4) 0.0083(4) 0.2319(3)
N2 N 0.0888(4) 0.4924(4) -0.2268(3)
N3 N 0.2403(4) 0.4402(4) -0.1738(3)
N4 N -0.0077(4) 0.2863(4) -0.0651(3)
N5 N -0.0620(4) 0.4030(4) -0.1640(3)
C1 C 0.4677(5) 0.0501(5) 0.2253(3)
H1 H 0.5306 -0.0055 0.2974
C2 C 0.5620(5) 0.1711(5) 0.1194(4)
H2 H 0.6894 0.1957 0.1169
C3 C 0.4697(5) 0.2565(5) 0.0182(4)
H3 H 0.5327 0.3399 -0.0568
C4 C 0.2031(5) 0.0904(4) 0.1323(3)
H4 H 0.0779 0.0591 0.1349
C5 C 0.2858(4) 0.2174(4) 0.0256(3)
C6 C 0.0802(5) 0.6439(4) -0.3365(3)
H5 H 0.1222 0.7458 -0.3100
H6 H -0.0483 0.6696 -0.3450
C7 C 0.1745(5) 0.3120(4) -0.0734(3)
C8 C 0.1990(5) 0.6128(4) -0.4751(3)
H7 H 0.1838 0.5028 -0.5045
C9 C 0.3666(5) 0.6878(5) -0.5325(4)
H8 H 0.4217 0.7393 -0.4705
H9 H 0.4567 0.6248 -0.5960
Cu1_2 Cu 0.15988(6) -0.16243(6) 0.38989(4)
N1_2 N 0.2905(4) 1.0083(4) -0.7681(3)
loop_
_geom_bond_atom_site_label_1
_geom_bond_atom_site_label_2
_geom_bond_site_symmetry_1
_geom_bond_site_symmetry_2
Cu1 Cl1 1_555 1_555
N1 C1 1_555 1_555
N2 N3 1_555 1_555
N3 C7 1_555 1_555
N4 N5 1_555 1_555
N5 N2 1_555 1_555
C1 H1 1_555 1_555
C2 C1 1_555 1_555
H2 C2 1_555 1_555
C3 C2 1_555 1_555
H3 C3 1_555 1_555
C4 N1 1_555 1_555
H4 C4 1_555 1_555
C5 C3 1_555 1_555
C6 N2 1_555 1_555
H5 C6 1_555 1_555
H6 C6 1_555 1_555
C7 N4 1_555 1_555
C8 Cu1 1_555 1_555
H7 C8 1_555 1_555
C9 Cu1 1_555 1_555
H8 C9 1_555 1_555
H9 C9 1_555 1_555
Cu1_2 N1 1_555 1_555
N1_2 Cu1 1_555 1_555
C4 C5 1_555 1_555
C5 C7 1_555 1_555
C6 C8 1_555 1_555
C8 C9 1_555 1_555

#END
