
#######################################################################
#
#                 Cambridge Crystallographic Data Centre
#                                CCDC 
#
#######################################################################
#
# If this CIF has been generated from an entry in the Cambridge 
# Structural Database, then it will include bibliographic, chemical, 
# crystal, experimental, refinement or atomic coordinate data resulting 
# from the CCDC's data processing and validation procedures.
#
#######################################################################

data_SOFXER
_symmetry_cell_setting           monoclinic
_symmetry_space_group_name_H-M   'P 21/c'
_symmetry_Int_Tables_number      14
_space_group_name_Hall           '-P 2ybc'
loop_
_symmetry_equiv_pos_site_id
_symmetry_equiv_pos_as_xyz
1 x,y,z
2 -x,1/2+y,1/2-z
3 -x,-y,-z
4 x,1/2-y,1/2+z
_cell_length_a                   6.6701(13)
_cell_length_b                   13.618(3)
_cell_length_c                   18.693(4)
_cell_angle_alpha                90
_cell_angle_beta                 96.150(2)
_cell_angle_gamma                90
_cell_volume                     1688.18
loop_
_atom_site_label
_atom_site_type_symbol
_atom_site_fract_x
_atom_site_fract_y
_atom_site_fract_z
V1 V 0.46422(6) 1.03027(3) 0.20517(2)
N1 N 0.2470(3) 0.90064(14) 0.21295(10)
N2 N 0.2025(3) 1.08521(14) 0.13790(10)
C1 C 0.4610(4) 0.85480(18) 0.11714(13)
C2 C 0.3056(4) 0.82187(17) 0.16472(13)
H1 H 0.1867 0.7994 0.1348
H2 H 0.3589 0.7668 0.1936
C3 C 0.4930(4) 0.88638(17) 0.31905(13)
C4 C 0.2772(4) 0.86957(19) 0.28900(13)
H3 H 0.2442 0.8005 0.2926
H4 H 0.1883 0.9067 0.3167
C5 C 0.0432(4) 0.93920(17) 0.18987(13)
H5 H -0.0044 0.9778 0.2283
H6 H -0.0499 0.8852 0.1789
C6 C 0.0520(4) 1.00233(18) 0.12396(13)
H7 H -0.0806 1.0296 0.1095
H8 H 0.0897 0.9620 0.0847
C7 C 0.1193(4) 1.16469(18) 0.18111(13)
H9 H -0.0263 1.1660 0.1706
H10 H 0.1711 1.2275 0.1669
C8 C 0.1722(4) 1.15125(17) 0.26067(14)
C9 C 0.2569(4) 1.12454(18) 0.06851(13)
H11 H 0.3120 1.0715 0.0420
H12 H 0.3622 1.1733 0.0785
C10 C 0.0834(4) 1.17089(18) 0.02109(13)
K1 K 0.31886(9) 0.64566(4) -0.00655(3)
O1 O 0.6281(3) 1.11296(13) 0.19480(10)
O2 O 0.5346(3) 0.94067(12) 0.12620(9)
O3 O 0.5115(3) 0.79597(13) 0.07183(10)
O4 O 0.5988(3) 0.94463(12) 0.28376(9)
O5 O 0.5578(3) 0.84570(13) 0.37597(10)
O6 O 0.3143(3) 1.08920(12) 0.28047(9)
O7 O 0.0813(3) 1.19822(14) 0.30238(10)
O8 O 0.1269(3) 1.20678(14) -0.04052(9)
H13 H 0.2453 1.1952 -0.0455
O9 O -0.0876(3) 1.17595(15) 0.03675(10)
O10 O 0.6764(3) 0.55628(15) 0.06121(11)
H14 H 0.7731 0.5795 0.0434
H15 H 0.6886 0.5785 0.1022
O11 O 0.1732(3) 0.58705(14) 0.11935(10)
H16 H 0.1017 0.6257 0.1387
H17 H 0.2279 0.5558 0.1535
O12 O -0.0659(3) 0.59495(16) -0.05663(13)
H18 H -0.1676 0.6172 -0.0795
H19 H -0.0626 0.5385 -0.0718
K1C K 0.31886(9) 0.85434(4) 0.49345(3)
K1B K -0.31886(9) 1.35434(4) 0.00655(3)
K1B_2 K 0.68114(9) 0.35434(4) 0.00655(3)
O5C O 0.5578(3) 0.65430(13) -0.12403(10)
O9B O 0.0876(3) 0.82405(15) -0.03675(10)
O10B O 0.3236(3) 0.44372(15) -0.06121(11)
H14B H 0.2269 0.4205 -0.0434
H15B H 0.3114 0.4215 -0.1022
loop_
_geom_bond_atom_site_label_1
_geom_bond_atom_site_label_2
_geom_bond_site_symmetry_1
_geom_bond_site_symmetry_2
V1 N1 1_555 1_555
N1 C2 1_555 1_555
N2 V1 1_555 1_555
C1 C2 1_555 1_555
C2 H1 1_555 1_555
H2 C2 1_555 1_555
C3 C4 1_555 1_555
C4 N1 1_555 1_555
H3 C4 1_555 1_555
H4 C4 1_555 1_555
C5 N1 1_555 1_555
H5 C5 1_555 1_555
H6 C5 1_555 1_555
C6 N2 1_555 1_555
H7 C6 1_555 1_555
H8 C6 1_555 1_555
C7 N2 1_555 1_555
H9 C7 1_555 1_555
H10 C7 1_555 1_555
C8 C7 1_555 1_555
C9 N2 1_555 1_555
H11 C9 1_555 1_555
H12 C9 1_555 1_555
C10 C9 1_555 1_555
K1 O3 1_555 1_555
O1 V1 1_555 1_555
O2 V1 1_555 1_555
O3 C1 1_555 1_555
O4 V1 1_555 1_555
O5 C3 1_555 1_555
O6 V1 1_555 1_555
O7 C8 1_555 1_555
O8 C10 1_555 1_555
H13 O8 1_555 1_555
O9 C10 1_555 1_555
O10 K1 1_555 1_555
H14 O10 1_555 1_555
H15 O10 1_555 1_555
O11 K1 1_555 1_555
H16 O11 1_555 1_555
H17 O11 1_555 1_555
O12 K1 1_555 1_555
H18 O12 1_555 1_555
H19 O12 1_555 1_555
K1C O5 1_555 1_555
K1B O9 1_555 1_555
K1B_2 O10 1_555 1_555
O5C K1 1_555 1_555
O9B K1 1_555 1_555
O10B K1 1_555 1_555
H14B O10B 1_555 1_555
H15B O10B 1_555 1_555
C1 O2 1_555 1_555
C3 O4 1_555 1_555
C5 C6 1_555 1_555
C8 O6 1_555 1_555
K1B_2 O10B 1_555 1_555

#END
