
#######################################################################
#
#                 Cambridge Crystallographic Data Centre
#                                CCDC 
#
#######################################################################
#
# If this CIF has been generated from an entry in the Cambridge 
# Structural Database, then it will include bibliographic, chemical, 
# crystal, experimental, refinement or atomic coordinate data resulting 
# from the CCDC's data processing and validation procedures.
#
#######################################################################

data_SOGBEW
_symmetry_cell_setting           monoclinic
_symmetry_space_group_name_H-M   'P 21/c'
_symmetry_Int_Tables_number      14
_space_group_name_Hall           '-P 2ybc'
loop_
_symmetry_equiv_pos_site_id
_symmetry_equiv_pos_as_xyz
1 x,y,z
2 -x,1/2+y,1/2-z
3 -x,-y,-z
4 x,1/2-y,1/2+z
_cell_length_a                   7.5115(7)
_cell_length_b                   19.8111(19)
_cell_length_c                   9.6327(9)
_cell_angle_alpha                90
_cell_angle_beta                 112.027(2)
_cell_angle_gamma                90
_cell_volume                     1328.82
loop_
_atom_site_label
_atom_site_type_symbol
_atom_site_fract_x
_atom_site_fract_y
_atom_site_fract_z
Mn1 Mn 0.26486(7) 0.43326(2) 0.53505(5)
N1 N 0.4147(4) 0.35226(13) 0.4456(3)
N2 N 0.1642(4) 0.33159(13) 0.5808(3)
C1 C 0.5418(5) 0.36248(18) 0.3823(4)
H1 H 0.5722 0.4067 0.3677
C2 C 0.2366(5) 0.27625(16) 0.5373(4)
C3 C 0.6321(5) 0.31037(19) 0.3366(4)
H2 H 0.7216 0.3200 0.2939
C4 C 0.0358(5) 0.32165(18) 0.6425(4)
H3 H -0.0171 0.3591 0.6709
C5 C 0.3729(5) 0.28764(16) 0.4675(4)
C6 C 0.1838(5) 0.21006(17) 0.5571(4)
C7 C 0.4550(5) 0.23179(18) 0.4230(4)
C8 C 0.5875(5) 0.2453(2) 0.3552(4)
H4 H 0.6443 0.2100 0.3233
C9 C 0.3984(6) 0.16497(18) 0.4459(4)
H5 H 0.4519 0.1280 0.4165
C10 C -0.0232(5) 0.2580(2) 0.6666(4)
H6 H -0.1137 0.2535 0.7105
C11 C 0.2683(6) 0.15507(18) 0.5097(4)
H7 H 0.2333 0.1112 0.5230
C12 C 0.0499(6) 0.20273(19) 0.6268(4)
H8 H 0.0125 0.1600 0.6451
C13 C -0.0288(4) 0.49094(14) 0.1344(3)
C14 C 0.1475(4) 0.51517(15) 0.1380(3)
C15 C -0.0734(4) 0.48127(16) 0.2744(3)
C16 C 0.3106(4) 0.53113(15) 0.2831(3)
C17 C -0.1727(4) 0.47604(15) -0.0029(3)
H9 H -0.2896 0.4597 -0.0047
O1 O -0.0214(3) 0.42752(11) 0.3466(2)
O2 O 0.4564(3) 0.55832(12) 0.2764(2)
O3 O 0.2918(3) 0.51596(11) 0.4038(2)
O4 O -0.1650(3) 0.52824(12) 0.3024(2)
Mn1B Mn -0.26486(7) 0.56674(2) -0.53505(5)
Mn1B_2 Mn 0.73514(7) 0.56674(2) 0.46495(5)
Mn1B_3 Mn -0.26486(7) 0.56674(2) 0.46495(5)
Mn1_2 Mn -0.73514(7) 0.43326(2) -0.46495(5)
Mn1_3 Mn 0.26486(7) 0.43326(2) -0.46495(5)
N1B N -0.4147(4) 0.64774(13) -0.4456(3)
N2B N -0.1642(4) 0.66841(13) -0.5808(3)
C1B C -0.5418(5) 0.63752(18) -0.3823(4)
H1B H -0.5722 0.5933 -0.3677
C2B C -0.2366(5) 0.72375(16) -0.5373(4)
C3B C -0.6321(5) 0.68963(19) -0.3366(4)
H2B H -0.7216 0.6800 -0.2939
C4B C -0.0358(5) 0.67835(18) -0.6425(4)
H3B H 0.0171 0.6409 -0.6709
C5B C -0.3729(5) 0.71236(16) -0.4675(4)
C6B C -0.1838(5) 0.78994(17) -0.5571(4)
C7B C -0.4550(5) 0.76821(18) -0.4230(4)
C8B C -0.5875(5) 0.7547(2) -0.3552(4)
H4B H -0.6443 0.7900 -0.3233
C9B C -0.3984(6) 0.83503(18) -0.4459(4)
H5B H -0.4519 0.8720 -0.4165
C10B C 0.0232(5) 0.7420(2) -0.6666(4)
H6B H 0.1137 0.7465 -0.7105
C11B C -0.2683(6) 0.84493(18) -0.5097(4)
H7B H -0.2333 0.8888 -0.5230
C12B C -0.0499(6) 0.79727(19) -0.6268(4)
H8B H -0.0125 0.8400 -0.6451
C13B C 0.0288(4) 0.50906(14) -0.1344(3)
C14B C -0.1475(4) 0.48483(15) -0.1380(3)
C15B C 0.0734(4) 0.51873(16) -0.2744(3)
C16B C -0.3106(4) 0.46887(15) -0.2831(3)
C17B C 0.1727(4) 0.52396(15) 0.0029(3)
H9B H 0.2896 0.5403 0.0047
O1B O 0.0214(3) 0.57248(11) -0.3466(2)
O2B O -0.4564(3) 0.44168(12) -0.2764(2)
O2B_2 O 0.5436(3) 0.44168(12) 0.7236(2)
O2_2 O -0.5436(3) 0.55832(12) -0.7236(2)
O3B O -0.2918(3) 0.48404(11) -0.4038(2)
O4B O 0.1650(3) 0.47176(12) -0.3024(2)
O4B_2 O 0.1650(3) 0.47176(12) 0.6976(2)
O4_2 O -0.1650(3) 0.52824(12) -0.6976(2)
loop_
_geom_bond_atom_site_label_1
_geom_bond_atom_site_label_2
_geom_bond_site_symmetry_1
_geom_bond_site_symmetry_2
Mn1 N1 1_555 1_555
N1 C1 1_555 1_555
N2 Mn1 1_555 1_555
C1 H1 1_555 1_555
C2 N2 1_555 1_555
C3 C1 1_555 1_555
H2 C3 1_555 1_555
C4 N2 1_555 1_555
H3 C4 1_555 1_555
C5 N1 1_555 1_555
C6 C2 1_555 1_555
C7 C5 1_555 1_555
C8 C3 1_555 1_555
H4 C8 1_555 1_555
C9 C7 1_555 1_555
H5 C9 1_555 1_555
C10 C4 1_555 1_555
H6 C10 1_555 1_555
C11 C6 1_555 1_555
H7 C11 1_555 1_555
C12 C6 1_555 1_555
H8 C12 1_555 1_555
C13 C14 1_555 1_555
C14 C16 1_555 1_555
C15 C13 1_555 1_555
C16 O2 1_555 1_555
C17 C13 1_555 1_555
H9 C17 1_555 1_555
O1 Mn1 1_555 1_555
O2 Mn1B_2 1_555 1_555
O3 Mn1 1_555 1_555
O4 C15 1_555 1_555
Mn1B N1B 1_555 1_555
Mn1B_3 O4 1_555 1_555
Mn1_2 O2B 1_555 1_555
Mn1_3 O4B 1_555 1_555
N1B C1B 1_555 1_555
N2B Mn1B 1_555 1_555
C1B H1B 1_555 1_555
C2B N2B 1_555 1_555
C3B C1B 1_555 1_555
H2B C3B 1_555 1_555
C4B N2B 1_555 1_555
H3B C4B 1_555 1_555
C5B N1B 1_555 1_555
C6B C2B 1_555 1_555
C7B C5B 1_555 1_555
C8B C3B 1_555 1_555
H4B C8B 1_555 1_555
C9B C7B 1_555 1_555
H5B C9B 1_555 1_555
C10B C4B 1_555 1_555
H6B C10B 1_555 1_555
C11B C6B 1_555 1_555
H7B C11B 1_555 1_555
C12B C6B 1_555 1_555
H8B C12B 1_555 1_555
C13B C14B 1_555 1_555
C14B C17 1_555 1_555
C15B C13B 1_555 1_555
C16B C14B 1_555 1_555
C17B C14 1_555 1_555
H9B C17B 1_555 1_555
O1B Mn1B 1_555 1_555
O2B C16B 1_555 1_555
O2B_2 Mn1 1_555 1_555
O2_2 Mn1B 1_555 1_555
O3B Mn1B 1_555 1_555
O4B C15B 1_555 1_555
O4B_2 Mn1 1_555 1_555
O4_2 Mn1B 1_555 1_555
C2 C5 1_555 1_555
C7 C8 1_555 1_555
C9 C11 1_555 1_555
C10 C12 1_555 1_555
C15 O1 1_555 1_555
C16 O3 1_555 1_555
C2B C5B 1_555 1_555
C7B C8B 1_555 1_555
C9B C11B 1_555 1_555
C10B C12B 1_555 1_555
C13B C17B 1_555 1_555
C15B O1B 1_555 1_555
C16B O3B 1_555 1_555

#END
