
#######################################################################
#
#                 Cambridge Crystallographic Data Centre
#                                CCDC 
#
#######################################################################
#
# If this CIF has been generated from an entry in the Cambridge 
# Structural Database, then it will include bibliographic, chemical, 
# crystal, experimental, refinement or atomic coordinate data resulting 
# from the CCDC's data processing and validation procedures.
#
#######################################################################

data_SOGCIB
_symmetry_cell_setting           monoclinic
_symmetry_space_group_name_H-M   'P 21/c'
_symmetry_Int_Tables_number      14
_space_group_name_Hall           '-P 2ybc'
loop_
_symmetry_equiv_pos_site_id
_symmetry_equiv_pos_as_xyz
1 x,y,z
2 -x,1/2+y,1/2-z
3 -x,-y,-z
4 x,1/2-y,1/2+z
_cell_length_a                   8.106(2)
_cell_length_b                   23.918(4)
_cell_length_c                   8.946(2)
_cell_angle_alpha                90
_cell_angle_beta                 106.90(3)
_cell_angle_gamma                90
_cell_volume                     1659.54
loop_
_atom_site_label
_atom_site_type_symbol
_atom_site_fract_x
_atom_site_fract_y
_atom_site_fract_z
Cu1 Cu -0.04150(6) 0.25987(2) 0.28607(6)
C1 C -0.2534(6) 0.28239(16) -0.0029(5)
C2 C -0.4039(6) 0.2997(2) -0.1400(5)
H1 H -0.3776 0.2918 -0.2358
H2 H -0.4245 0.3390 -0.1337
H3 H -0.5049 0.2793 -0.1375
C3 C 0.1783(5) 0.33727(16) 0.4174(5)
C4 C 0.3381(5) 0.37225(15) 0.4810(4)
C5 C 0.4965(5) 0.36320(16) 0.4439(5)
H4 H 0.5036 0.3340 0.3773
C6 C 0.6407(5) 0.39724(16) 0.5056(5)
H5 H 0.7423 0.3912 0.4796
C7 C 0.6292(5) 0.43991(15) 0.6058(4)
C8 C 0.4760(5) 0.44926(16) 0.6466(5)
H6 H 0.4712 0.4778 0.7158
C9 C 0.3298(5) 0.41525(16) 0.5824(5)
H7 H 0.2283 0.4217 0.6082
C10 C 0.9194(5) 0.54195(16) 0.8363(4)
C11 C 1.0841(5) 0.53851(17) 0.7897(5)
C12 C 0.8959(5) 0.58020(16) 0.9595(5)
C13 C 0.7155(6) 0.5879(3) 0.9759(7)
H8 H 0.7201 0.6133 1.0600
H9 H 0.6720 0.5524 0.9978
H10 H 0.6409 0.6027 0.8804
C14 C 1.2423(6) 0.5712(2) 0.8705(6)
H11 H 1.3319 0.5631 0.8233
H12 H 1.2801 0.5610 0.9790
H13 H 1.2164 0.6104 0.8612
N1 N 0.7769(4) 0.47437(13) 0.6639(4)
H14 H 0.872(6) 0.471(2) 0.625(5)
N2 N 0.7779(4) 0.51093(13) 0.7725(4)
O1 O 1.0199(4) 0.60409(14) 1.0486(4)
O2 O 1.0905(4) 0.50681(17) 0.6823(5)
O3 O 0.1881(4) 0.29684(14) 0.3292(4)
O4 O 0.0403(4) 0.34837(14) 0.4497(4)
O5 O -0.2621(4) 0.28883(13) 0.1365(3)
O6 O -0.1154(5) 0.26235(12) -0.0240(4)
O7 O 0.0168(6) 0.18300(14) 0.2414(4)
H15 H 0.019(8) 0.1569(15) 0.305(5)
H16 H 0.056(7) 0.172(2) 0.169(4)
Cu1C Cu -0.04150(6) 0.24013(2) -0.21393(6)
O6C O -0.1154(5) 0.23765(12) 0.4760(4)
loop_
_geom_bond_atom_site_label_1
_geom_bond_atom_site_label_2
_geom_bond_site_symmetry_1
_geom_bond_site_symmetry_2
Cu1 O3 1_555 1_555
C1 C2 1_555 1_555
C2 H1 1_555 1_555
H2 C2 1_555 1_555
H3 C2 1_555 1_555
C3 C4 1_555 1_555
C4 C5 1_555 1_555
C5 H4 1_555 1_555
C6 C5 1_555 1_555
H5 C6 1_555 1_555
C7 C6 1_555 1_555
C8 C7 1_555 1_555
H6 C8 1_555 1_555
C9 C4 1_555 1_555
H7 C9 1_555 1_555
C10 C11 1_555 1_555
C11 C14 1_555 1_555
C12 C10 1_555 1_555
C13 C12 1_555 1_555
H8 C13 1_555 1_555
H9 C13 1_555 1_555
H10 C13 1_555 1_555
C14 H11 1_555 1_555
H12 C14 1_555 1_555
H13 C14 1_555 1_555
N1 C7 1_555 1_555
H14 N1 1_555 1_555
N2 C10 1_555 1_555
O1 C12 1_555 1_555
O2 C11 1_555 1_555
O3 C3 1_555 1_555
O4 C3 1_555 1_555
O5 Cu1 1_555 1_555
O6 C1 1_555 1_555
O7 Cu1 1_555 1_555
H15 O7 1_555 1_555
H16 O7 1_555 1_555
Cu1C O6 1_555 1_555
O6C Cu1 1_555 1_555
C1 O5 1_555 1_555
C8 C9 1_555 1_555
N1 N2 1_555 1_555

#END
