
#######################################################################
#
#                 Cambridge Crystallographic Data Centre
#                                CCDC 
#
#######################################################################
#
# If this CIF has been generated from an entry in the Cambridge 
# Structural Database, then it will include bibliographic, chemical, 
# crystal, experimental, refinement or atomic coordinate data resulting 
# from the CCDC's data processing and validation procedures.
#
#######################################################################

data_SOGKUV
_symmetry_cell_setting           triclinic
_symmetry_space_group_name_H-M   'P -1'
_symmetry_Int_Tables_number      2
_space_group_name_Hall           '-P 1'
loop_
_symmetry_equiv_pos_site_id
_symmetry_equiv_pos_as_xyz
1 x,y,z
2 -x,-y,-z
_cell_length_a                   8.0517(3)
_cell_length_b                   8.7548(4)
_cell_length_c                   10.2542(4)
_cell_angle_alpha                110.274(2)
_cell_angle_beta                 107.093(3)
_cell_angle_gamma                90.135(2)
_cell_volume                     643.705
loop_
_atom_site_label
_atom_site_type_symbol
_atom_site_fract_x
_atom_site_fract_y
_atom_site_fract_z
U1 U 0.5000 0.5000 0.5000
K1 K 0.55548(7) 0.76531(6) 0.98730(7)
O1 O 0.4302(2) 0.7263(2) 0.6898(2)
O2 O 0.3003(2) 0.94502(19) 0.7822(2)
O3 O 0.3749(2) 0.47650(19) 0.2430(2)
O4 O 0.2900(2) 0.57105(19) 0.0595(2)
O5 O 0.2790(2) 0.9408(2) 0.0756(2)
O6 O 0.0128(2) 0.82205(19) 0.0402(2)
H1 H 0.0005 0.8115 -0.0529
O7 O 0.3572(2) 1.24153(18) 0.7343(2)
O8 O 0.0792(2) 1.21301(19) 0.5903(2)
H2 H 0.0810 1.3177 0.6659
O9 O 0.3036(2) 0.38950(19) 0.4775(2)
N1 N 0.3430(2) 0.7450(2) 0.4361(2)
N2 N 0.2102(2) 1.0113(2) 0.3727(2)
C1 C 0.3211(3) 0.8768(3) 0.5414(3)
C2 C 0.2972(3) 0.7414(3) 0.2997(3)
C3 C 0.2285(3) 0.8764(3) 0.2678(3)
C4 C 0.2558(3) 1.0125(3) 0.5094(3)
C5 C 0.3543(3) 0.8520(3) 0.6852(3)
C6 C 0.3211(3) 0.5841(3) 0.1885(3)
C7 C 0.1774(3) 0.8814(3) 0.1163(3)
C8 C 0.2364(3) 1.1681(3) 0.6252(3)
K1A K 0.44452(7) 0.23469(6) 0.01270(7)
K1A_2 K 0.44452(7) 1.23469(6) 1.01270(7)
K1_2 K 0.55548(7) 0.76531(6) -0.01270(7)
K1A_3 K 0.44452(7) 1.23469(6) 0.01270(7)
K1_3 K 0.55548(7) -0.23469(6) -0.01270(7)
K1A_4 K 0.44452(7) 0.23469(6) 1.01270(7)
K1_4 K 0.55548(7) -0.23469(6) 0.98730(7)
O1A O 0.5698(2) 0.2737(2) 0.3102(2)
O2A O 0.6997(2) 0.05498(19) 0.2178(2)
O2A_2 O 0.6997(2) 1.05498(19) 1.2178(2)
O2_2 O 0.3003(2) -0.05498(19) -0.2178(2)
O3A O 0.6251(2) 0.52350(19) 0.7570(2)
O4A O 0.7100(2) 0.42895(19) 0.9405(2)
O4_2 O 0.2900(2) 0.57105(19) 1.0595(2)
O4A_2 O 0.7100(2) 0.42895(19) -0.0595(2)
O5A O 0.7210(2) 0.0592(2) 0.9244(2)
O5_2 O 0.2790(2) 0.9408(2) 1.0756(2)
O5A_2 O 0.7210(2) 1.0592(2) 0.9244(2)
O5_3 O 0.2790(2) -0.0592(2) 0.0756(2)
O5A_3 O 0.7210(2) 0.0592(2) -0.0756(2)
O6A O 0.9872(2) 0.17795(19) 0.9598(2)
H1A H 0.9995 0.1885 1.0529
O7A O 0.6428(2) -0.24153(18) 0.2657(2)
O7A_2 O 0.6428(2) 0.75847(18) 1.2657(2)
O7_2 O 0.3572(2) 0.24153(18) -0.2657(2)
O8A O 0.9208(2) -0.21301(19) 0.4097(2)
H2A H 0.9190 -0.3177 0.3341
O9A O 0.6964(2) 0.61050(19) 0.5225(2)
N1A N 0.6570(2) 0.2550(2) 0.5639(2)
N2A N 0.7898(2) -0.0113(2) 0.6273(2)
C1A C 0.6789(3) 0.1232(3) 0.4586(3)
C2A C 0.7028(3) 0.2586(3) 0.7003(3)
C3A C 0.7715(3) 0.1236(3) 0.7322(3)
C4A C 0.7442(3) -0.0125(3) 0.4906(3)
C5A C 0.6457(3) 0.1480(3) 0.3148(3)
C6A C 0.6789(3) 0.4159(3) 0.8115(3)
C7A C 0.8226(3) 0.1186(3) 0.8837(3)
C8A C 0.7636(3) -0.1681(3) 0.3748(3)
O10 O 0.0018(2) 0.78499(19) -0.2245(2)
H3 H 0.1002 0.8493 -0.2202
H4 H -0.0896 0.8026 -0.2952
O11 O 0.0425(2) 1.47106(19) 0.7832(2)
H5 H 0.1008 1.5014 0.8874
H6 H 0.0183 1.5622 0.7630
loop_
_geom_bond_atom_site_label_1
_geom_bond_atom_site_label_2
_geom_bond_site_symmetry_1
_geom_bond_site_symmetry_2
U1 O1 1_555 1_555
K1 O1 1_555 1_555
O1 C5 1_555 1_555
O2 K1 1_555 1_555
O3 U1 1_555 1_555
O4 C6 1_555 1_555
O5 C7 1_555 1_555
O6 H1 1_555 1_555
O7 C8 1_555 1_555
O8 H2 1_555 1_555
O9 U1 1_555 1_555
O10 H3 1_555 1_555
H4 O10 1_555 1_555
O11 H5 1_555 1_555
H6 O11 1_555 1_555
N1 U1 1_555 1_555
N2 C3 1_555 1_555
C1 N1 1_555 1_555
C2 N1 1_555 1_555
C3 C2 1_555 1_555
C4 N2 1_555 1_555
C5 O2 1_555 1_555
C6 O3 1_555 1_555
C7 O6 1_555 1_555
C8 O8 1_555 1_555
K1A O3 1_555 1_555
K1A_2 O2 1_555 1_555
K1_2 O4 1_555 1_555
K1A_3 O5 1_555 1_555
K1_3 O2A 1_555 1_555
K1A_4 O4A 1_555 1_555
K1_4 O5A 1_555 1_555
O1A U1 1_555 1_555
O2A K1A 1_555 1_555
O2A_2 K1 1_555 1_555
O2_2 K1A 1_555 1_555
O3A U1 1_555 1_555
O4A K1 1_555 1_555
O4_2 K1 1_555 1_555
O4A_2 K1A 1_555 1_555
O5A K1A_4 1_555 1_555
O5_2 K1 1_555 1_555
O5A_2 K1 1_555 1_555
O5_3 K1A 1_555 1_555
O5A_3 K1A 1_555 1_555
O6A H1A 1_555 1_555
O7A K1_3 1_555 1_555
O7A_2 K1 1_555 1_555
O7_2 K1A 1_555 1_555
O8A H2A 1_555 1_555
O9A U1 1_555 1_555
N1A U1 1_555 1_555
N2A C3A 1_555 1_555
C1A N1A 1_555 1_555
C2A N1A 1_555 1_555
C3A C2A 1_555 1_555
C4A N2A 1_555 1_555
C5A O1A 1_555 1_555
C6A O3A 1_555 1_555
C7A O5A 1_555 1_555
C8A O7A 1_555 1_555
K1 O3A 1_555 1_555
O4 K1A 1_555 1_555
O5 K1_2 1_555 1_555
O7 K1A_2 1_555 1_555
C1 C4 1_555 1_555
C1 C5 1_555 1_555
C2 C6 1_555 1_555
C3 C7 1_555 1_555
C4 C8 1_555 1_555
K1A O1A 1_555 1_555
K1A_2 O2A_2 1_555 1_555
K1A_2 O5_2 1_555 1_555
K1A_2 O5A_2 1_555 1_555
K1_2 O4A_2 1_555 1_555
K1_3 O2_2 1_555 1_555
K1_3 O5_3 1_555 1_555
K1_3 O5A_3 1_555 1_555
K1A_4 O4_2 1_555 1_555
O2A C5A 1_555 1_555
O4A C6A 1_555 1_555
O6A C7A 1_555 1_555
O8A C8A 1_555 1_555
C1A C4A 1_555 1_555
C1A C5A 1_555 1_555
C2A C6A 1_555 1_555
C3A C7A 1_555 1_555
C4A C8A 1_555 1_555

#END
