
#######################################################################
#
#                 Cambridge Crystallographic Data Centre
#                                CCDC 
#
#######################################################################
#
# If this CIF has been generated from an entry in the Cambridge 
# Structural Database, then it will include bibliographic, chemical, 
# crystal, experimental, refinement or atomic coordinate data resulting 
# from the CCDC's data processing and validation procedures.
#
#######################################################################

data_SOGKOP
_symmetry_cell_setting           orthorhombic
_symmetry_space_group_name_H-M   'F d d 2'
_symmetry_Int_Tables_number      43
_space_group_name_Hall           'F 2 -2d'
loop_
_symmetry_equiv_pos_site_id
_symmetry_equiv_pos_as_xyz
1 x,y,z
2 -x,-y,z
3 1/4-x,1/4+y,1/4+z
4 1/4+x,1/4-y,1/4+z
5 x,1/2+y,1/2+z
6 -x,1/2-y,1/2+z
7 1/4-x,3/4+y,3/4+z
8 1/4+x,3/4-y,3/4+z
9 1/2+x,y,1/2+z
10 1/2-x,-y,1/2+z
11 3/4-x,1/4+y,3/4+z
12 3/4+x,1/4-y,3/4+z
13 1/2+x,1/2+y,z
14 1/2-x,1/2-y,z
15 3/4-x,3/4+y,1/4+z
16 3/4+x,3/4-y,1/4+z
_cell_length_a                   28.016(7)
_cell_length_b                   28.192(13)
_cell_length_c                   8.097(13)
_cell_angle_alpha                90
_cell_angle_beta                 90
_cell_angle_gamma                90
_cell_volume                     6395.23
loop_
_atom_site_label
_atom_site_type_symbol
_atom_site_fract_x
_atom_site_fract_y
_atom_site_fract_z
Ni1 Ni 0.287147(15) 0.354690(15) 0.46257(6)
Ni2 Ni 0.401535(15) 0.306047(15) 0.51737(5)
C1 C 0.37060(12) 0.36116(10) 0.2103(4)
C2 C 0.38202(12) 0.37510(11) 0.0330(4)
H1 H 0.3712 0.3501 -0.0403
H2 H 0.4164 0.3778 0.0209
C3 C 0.35881(11) 0.42217(11) -0.0204(4)
H3 H 0.3240 0.4185 -0.0202
C4 C 0.37270(12) 0.46220(12) 0.0978(4)
C5 C 0.37560(11) 0.43695(11) -0.1963(4)
H4 H 0.4103 0.4411 -0.1948
C6 C 0.35252(13) 0.48369(11) -0.2468(4)
H5 H 0.3184 0.4788 -0.2567
H6 H 0.3576 0.5066 -0.1593
C7 C 0.37088(13) 0.50455(12) -0.4078(4)
C8 C 0.36324(12) 0.39682(12) -0.3166(4)
O1 O 0.40202(8) 0.33641(9) 0.2825(3)
O2 O 0.33190(9) 0.37400(9) 0.2697(3)
O3 O 0.41564(10) 0.46554(10) 0.1372(4)
O4 O 0.34080(8) 0.49055(8) 0.1439(3)
O5 O 0.32002(9) 0.39147(9) -0.3504(3)
O6 O 0.39726(9) 0.37189(9) -0.3690(3)
O7 O 0.41510(10) 0.50540(12) -0.4320(4)
O8 O 0.34051(8) 0.52190(8) -0.5040(3)
O9 O 0.25279(10) 0.31257(12) 0.2889(4)
H7 H 0.2604(19) 0.3065(18) 0.191(4)
H8 H 0.2280(14) 0.2955(16) 0.307(7)
O10 O 0.23311(12) 0.33465(13) 0.6406(4)
H9 H 0.2058(13) 0.3241(19) 0.617(7)
H10 H 0.242(2) 0.327(2) 0.725(8)
O11 O 0.24526(10) 0.41351(11) 0.4140(4)
H11 H 0.2200(19) 0.4136(18) 0.442(8)
H12 H 0.245(2) 0.428(2) 0.319(5)
O12 O 0.47734(10) 0.31005(12) 0.5193(4)
H13 H 0.4929(19) 0.3269(18) 0.467(7)
H14 H 0.487(2) 0.307(2) 0.592(7)
O13 O 0.32643(9) 0.29540(8) 0.5333(3)
H15 H 0.3201(15) 0.2815(15) 0.624(6)
H16 H 0.3209(15) 0.2768(15) 0.481(6)
Ni1_2 Ni 0.287147(15) 0.354690(15) -0.53743(6)
Ni2J Ni 0.348465(15) 0.556047(15) 0.26737(5)
Ni2_2 Ni 0.401535(15) 0.306047(15) -0.48263(5)
Ni2J_2 Ni 0.348465(15) 0.556047(15) -0.73263(5)
O4N O 0.40920(8) 0.24055(8) 0.3939(3)
O5_2 O 0.32002(9) 0.39147(9) 0.6496(3)
O6_2 O 0.39726(9) 0.37189(9) 0.6310(3)
O8N O 0.40949(8) 0.27190(8) 0.7460(3)
O14 O 0.4985(2) 0.5349(3) -0.3067(9)
O15 O 0.2426(3) 0.3522(3) -0.0182(10)
O16 O 0.24935(11) 0.45521(12) 0.1050(4)
H17 H 0.2238(13) 0.4724(16) 0.102(7)
H18 H 0.2722(15) 0.4720(17) 0.130(7)
loop_
_geom_bond_atom_site_label_1
_geom_bond_atom_site_label_2
_geom_bond_site_symmetry_1
_geom_bond_site_symmetry_2
Ni1 O2 1_555 1_555
Ni2 O1 1_555 1_555
C1 C2 1_555 1_555
C2 H1 1_555 1_555
H2 C2 1_555 1_555
C3 C2 1_555 1_555
H3 C3 1_555 1_555
C4 C3 1_555 1_555
C5 C3 1_555 1_555
H4 C5 1_555 1_555
C6 C5 1_555 1_555
H5 C6 1_555 1_555
H6 C6 1_555 1_555
C7 C6 1_555 1_555
C8 C5 1_555 1_555
O1 C1 1_555 1_555
O2 C1 1_555 1_555
O3 C4 1_555 1_555
O4 C4 1_555 1_555
O5 C8 1_555 1_555
O6 C8 1_555 1_555
O7 C7 1_555 1_555
O8 C7 1_555 1_555
O9 Ni1 1_555 1_555
H7 O9 1_555 1_555
H8 O9 1_555 1_555
O10 Ni1 1_555 1_555
H9 O10 1_555 1_555
H10 O10 1_555 1_555
O11 Ni1 1_555 1_555
H11 O11 1_555 1_555
H12 O11 1_555 1_555
O12 Ni2 1_555 1_555
H13 O12 1_555 1_555
H14 O12 1_555 1_555
O13 Ni1 1_555 1_555
H15 O13 1_555 1_555
H16 O13 1_555 1_555
O16 H17 1_555 1_555
H18 O16 1_555 1_555
Ni1_2 O5 1_555 1_555
Ni2J O4 1_555 1_555
Ni2_2 O6 1_555 1_555
Ni2J_2 O8 1_555 1_555
O4N Ni2 1_555 1_555
O5_2 Ni1 1_555 1_555
O6_2 Ni2 1_555 1_555
O8N Ni2 1_555 1_555
Ni2 O13 1_555 1_555

#END
