
#######################################################################
#
#                 Cambridge Crystallographic Data Centre
#                                CCDC 
#
#######################################################################
#
# If this CIF has been generated from an entry in the Cambridge 
# Structural Database, then it will include bibliographic, chemical, 
# crystal, experimental, refinement or atomic coordinate data resulting 
# from the CCDC's data processing and validation procedures.
#
#######################################################################

data_SOGMOS
_symmetry_cell_setting           monoclinic
_symmetry_space_group_name_H-M   'P 21/c'
_symmetry_Int_Tables_number      14
_space_group_name_Hall           '-P 2ybc'
loop_
_symmetry_equiv_pos_site_id
_symmetry_equiv_pos_as_xyz
1 x,y,z
2 -x,1/2+y,1/2-z
3 -x,-y,-z
4 x,1/2-y,1/2+z
_cell_length_a                   9.7098(17)
_cell_length_b                   5.8964(10)
_cell_length_c                   26.165(5)
_cell_angle_alpha                90
_cell_angle_beta                 97.635(2)
_cell_angle_gamma                90
_cell_volume                     1484.74
loop_
_atom_site_label
_atom_site_type_symbol
_atom_site_fract_x
_atom_site_fract_y
_atom_site_fract_z
Sr1 Sr 0.5000 0.0000 0.0000
O1 O 0.49628(14) 0.2850(2) 0.06866(5)
O2 O 0.57151(15) 0.7032(2) 0.06358(5)
O3 O 0.25372(14) -0.1420(2) 0.00668(6)
N1 N 0.14066(18) -0.4196(3) 0.04423(7)
P1 P 0.55495(5) 0.49567(8) 0.09551(2)
C1 C 0.7825(2) 0.2127(4) 0.12778(8)
H1 H 0.7337 0.0981 0.1072
C2 C 0.9134(2) 0.1666(4) 0.15441(8)
H2 H 0.9533 0.0206 0.1519
C3 C 0.9855(2) 0.3309(4) 0.18441(8)
H3 H 1.0753 0.2991 0.2021
C4 C 0.9263(2) 0.5430(4) 0.18873(8)
H4 H 0.9751 0.6560 0.2098
C5 C 0.7956(2) 0.5903(4) 0.16221(8)
H5 H 0.7555 0.7358 0.1653
C6 C 0.7230(2) 0.4254(3) 0.13116(7)
C7 C 0.4513(2) 0.5714(4) 0.14590(7)
C8 C 0.4369(2) 0.4144(4) 0.18473(8)
H6 H 0.4788 0.2691 0.1838
C9 C 0.3618(2) 0.4685(4) 0.22470(9)
H7 H 0.3539 0.3613 0.2513
C10 C 0.2988(2) 0.6779(4) 0.22584(8)
H8 H 0.2466 0.7143 0.2530
C11 C 0.3116(2) 0.8341(4) 0.18755(9)
H9 H 0.2673 0.9775 0.1882
C12 C 0.3894(2) 0.7829(4) 0.14791(8)
H10 H 0.3999 0.8929 0.1222
C13 C 0.2360(2) -0.3441(4) 0.01668(8)
H11 H 0.2948 -0.4525 0.0037
C14 C 0.1366(2) -0.6570(4) 0.05934(10)
H12 H 0.1964 -0.7462 0.0396
H13 H 0.0409 -0.7132 0.0523
H14 H 0.1697 -0.6714 0.0962
C15 C 0.0501(2) -0.2637(4) 0.06691(10)
H15 H 0.0883 -0.2339 0.1029
H16 H -0.0426 -0.3309 0.0657
H17 H 0.0435 -0.1210 0.0475
O1B O 0.50372(14) -0.2850(2) -0.06866(5)
O2B O 0.42849(15) -0.7032(2) -0.06358(5)
O3B O 0.74628(14) 0.1420(2) -0.00668(6)
N1B N 0.85934(18) 0.4196(3) -0.04423(7)
P1B P 0.44505(5) -0.49567(8) -0.09551(2)
C1B C 0.2175(2) -0.2127(4) -0.12778(8)
H1B H 0.2663 -0.0981 -0.1072
C2B C 0.0866(2) -0.1666(4) -0.15441(8)
H2B H 0.0467 -0.0206 -0.1519
C3B C 0.0145(2) -0.3309(4) -0.18441(8)
H3B H -0.0753 -0.2991 -0.2021
C4B C 0.0737(2) -0.5430(4) -0.18873(8)
H4B H 0.0249 -0.6560 -0.2098
C5B C 0.2044(2) -0.5903(4) -0.16221(8)
H5B H 0.2445 -0.7358 -0.1653
C6B C 0.2770(2) -0.4254(3) -0.13116(7)
C7B C 0.5487(2) -0.5714(4) -0.14590(7)
C8B C 0.5631(2) -0.4144(4) -0.18473(8)
H6B H 0.5212 -0.2691 -0.1838
C9B C 0.6382(2) -0.4685(4) -0.22470(9)
H7B H 0.6461 -0.3613 -0.2513
C10B C 0.7012(2) -0.6779(4) -0.22584(8)
H8B H 0.7534 -0.7143 -0.2530
C11B C 0.6884(2) -0.8341(4) -0.18755(9)
H9B H 0.7327 -0.9775 -0.1882
C12B C 0.6106(2) -0.7829(4) -0.14791(8)
H10B H 0.6001 -0.8929 -0.1222
C13B C 0.7640(2) 0.3441(4) -0.01668(8)
H11B H 0.7052 0.4525 -0.0037
C14B C 0.8634(2) 0.6570(4) -0.05934(10)
H12B H 0.8036 0.7462 -0.0396
H13B H 0.9591 0.7132 -0.0523
H14B H 0.8303 0.6714 -0.0962
C15B C 0.9499(2) 0.2637(4) -0.06691(10)
H15B H 0.9117 0.2339 -0.1029
H16B H 1.0426 0.3309 -0.0657
H17B H 0.9565 0.1210 -0.0475
Sr1_2 Sr 0.5000 -1.0000 0.0000
Sr1_3 Sr 0.5000 1.0000 0.0000
O2_2 O 0.57151(15) -0.2968(2) 0.06358(5)
O2B_2 O 0.42849(15) 0.2968(2) -0.06358(5)
loop_
_geom_bond_atom_site_label_1
_geom_bond_atom_site_label_2
_geom_bond_site_symmetry_1
_geom_bond_site_symmetry_2
Sr1 O1 1_555 1_555
O1 P1 1_555 1_555
O2 P1 1_555 1_555
O3 Sr1 1_555 1_555
N1 C13 1_555 1_555
P1 C6 1_555 1_555
C1 H1 1_555 1_555
C2 C1 1_555 1_555
H2 C2 1_555 1_555
C3 C2 1_555 1_555
H3 C3 1_555 1_555
C4 C3 1_555 1_555
H4 C4 1_555 1_555
C5 C4 1_555 1_555
H5 C5 1_555 1_555
C6 C1 1_555 1_555
C7 P1 1_555 1_555
C8 C7 1_555 1_555
H6 C8 1_555 1_555
C9 C8 1_555 1_555
H7 C9 1_555 1_555
C10 C9 1_555 1_555
H8 C10 1_555 1_555
C11 C10 1_555 1_555
H9 C11 1_555 1_555
C12 C7 1_555 1_555
H10 C12 1_555 1_555
C13 O3 1_555 1_555
H11 C13 1_555 1_555
C14 N1 1_555 1_555
H12 C14 1_555 1_555
H13 C14 1_555 1_555
H14 C14 1_555 1_555
C15 N1 1_555 1_555
H15 C15 1_555 1_555
H16 C15 1_555 1_555
H17 C15 1_555 1_555
O1B Sr1 1_555 1_555
O2B P1B 1_555 1_555
O3B Sr1 1_555 1_555
N1B C13B 1_555 1_555
P1B O1B 1_555 1_555
C1B H1B 1_555 1_555
C2B C1B 1_555 1_555
H2B C2B 1_555 1_555
C3B C2B 1_555 1_555
H3B C3B 1_555 1_555
C4B C3B 1_555 1_555
H4B C4B 1_555 1_555
C5B C4B 1_555 1_555
H5B C5B 1_555 1_555
C6B P1B 1_555 1_555
C7B P1B 1_555 1_555
C8B C7B 1_555 1_555
H6B C8B 1_555 1_555
C9B C8B 1_555 1_555
H7B C9B 1_555 1_555
C10B C9B 1_555 1_555
H8B C10B 1_555 1_555
C11B C10B 1_555 1_555
H9B C11B 1_555 1_555
C12B C7B 1_555 1_555
H10B C12B 1_555 1_555
C13B O3B 1_555 1_555
H11B C13B 1_555 1_555
C14B N1B 1_555 1_555
H12B C14B 1_555 1_555
H13B C14B 1_555 1_555
H14B C14B 1_555 1_555
C15B N1B 1_555 1_555
H15B C15B 1_555 1_555
H16B C15B 1_555 1_555
H17B C15B 1_555 1_555
Sr1_2 O2B 1_555 1_555
Sr1_3 O2 1_555 1_555
O2_2 Sr1 1_555 1_555
O2B_2 Sr1 1_555 1_555
C5 C6 1_555 1_555
C11 C12 1_555 1_555
C1B C6B 1_555 1_555
C5B C6B 1_555 1_555
C11B C12B 1_555 1_555

#END
