
#######################################################################
#
#                 Cambridge Crystallographic Data Centre
#                                CCDC 
#
#######################################################################
#
# If this CIF has been generated from an entry in the Cambridge 
# Structural Database, then it will include bibliographic, chemical, 
# crystal, experimental, refinement or atomic coordinate data resulting 
# from the CCDC's data processing and validation procedures.
#
#######################################################################

data_SOGMIK
_symmetry_cell_setting           triclinic
_symmetry_space_group_name_H-M   'P -1'
_symmetry_Int_Tables_number      2
_space_group_name_Hall           '-P 1'
loop_
_symmetry_equiv_pos_site_id
_symmetry_equiv_pos_as_xyz
1 x,y,z
2 -x,-y,-z
_cell_length_a                   12.765(2)
_cell_length_b                   12.879(4)
_cell_length_c                   23.855(4)
_cell_angle_alpha                80.55(2)
_cell_angle_beta                 98.61(1)
_cell_angle_gamma                116.58(2)
_cell_volume                     3446.74
loop_
_atom_site_label
_atom_site_type_symbol
_atom_site_fract_x
_atom_site_fract_y
_atom_site_fract_z
Ru1 Ru 0.95730(4) 0.49490(4) 0.45430(2)
Ru2 Ru 0.96930(5) 0.60510(5) 0.26370(3)
Ru3 Ru 1.04850(5) 0.72010(5) 0.18280(3)
Ru4 Ru 1.04860(6) 0.94790(6) 0.02400(3)
Cl1 Cl 1.1467(2) 0.8337(2) 0.0916(1)
Cl2 Cl 0.8641(2) 0.4765(2) 0.3517(1)
O1 O 1.0819(4) 0.5313(5) 0.2680(2)
O2 O 1.1681(5) 0.6551(5) 0.1929(2)
C1 C 1.1596(6) 0.5717(6) 0.2321(3)
O3 O 0.8006(4) 0.4491(4) 0.4843(2)
O4 O 0.8846(4) 0.4597(4) 0.5732(2)
C2 C 0.7944(6) 0.4412(6) 0.5363(3)
O5 O 0.8601(4) 0.6812(5) 0.2569(2)
O6 O 0.9274(4) 0.7822(5) 0.1738(2)
C3 C 0.8583(7) 0.7540(7) 0.2129(4)
O7 O 1.2037(5) 1.0855(5) 0.0069(3)
O8 O 1.1081(5) 1.1876(5) -0.0381(3)
C4 C 1.2038(8) 1.1780(8) -0.0200(4)
O9 O 0.9945(4) 0.6663(4) 0.4465(2)
O10 O 1.0799(4) 0.6767(4) 0.5368(2)
C5 C 1.0515(6) 0.7228(6) 0.4900(3)
O11 O 1.0508(5) 1.0135(5) 0.0956(2)
O12 O 0.9515(5) 1.1121(5) 0.0497(2)
C6 C 0.9996(7) 1.0790(7) 0.0945(4)
O13 O 0.8547(4) 0.4801(4) 0.2156(2)
O14 O 0.9417(5) 0.5879(5) 0.1373(2)
C7 C 0.8667(7) 0.4931(7) 0.1624(4)
O15 O 1.0896(4) 0.7294(4) 0.3109(2)
O16 O 1.1571(4) 0.8475(4) 0.2316(2)
C8 C 1.1592(6) 0.8240(6) 0.2855(4)
C9 C 0.7735(7) 0.8026(7) 0.2070(4)
C10 C 0.7508(8) 0.8601(8) 0.1551(4)
C11 C 0.6662(10) 0.9016(10) 0.1483(5)
C12 C 0.6076(10) 0.8884(10) 0.1958(5)
C13 C 0.6298(10) 0.8355(10) 0.2480(5)
C14 C 0.7119(9) 0.7927(9) 0.2539(5)
O17 O 0.5214(9) 0.9304(9) 0.1828(5)
C15 C 0.4515(14) 0.9163(14) 0.2308(7)
C16 C 1.2439(6) 0.5206(6) 0.2353(6)
C17 C 1.2226(8) 0.4150(8) 0.2683(4)
C18 C 1.3027(9) 0.3700(9) 0.2728(9)
C19 C 1.4095(8) 0.4329(8) 0.2487(4)
C20 C 1.4310(8) 0.5391(8) 0.2144(4)
C21 C 1.3461(7) 0.5812(7) 0.2073(7)
O18 O 1.4860(6) 0.3845(6) 0.2592(3)
C22 C 1.6045(10) 0.4558(9) 0.2473(5)
C23 C 0.7942(7) 0.3955(7) 0.1287(4)
C24 C 0.6965(8) 0.3015(8) 0.1508(4)
C25 C 0.6288(9) 0.2099(9) 0.1178(5)
C26 C 0.6686(9) 0.2153(9) 0.0625(5)
C27 C 0.7668(9) 0.3064(9) 0.0413(5)
C28 C 0.8283(8) 0.3980(8) 0.0739(4)
O19 O 0.5932(7) 0.1178(7) 0.0356(4)
C29 C 0.6380(16) 0.1127(16) -0.0195(8)
C30 C 1.2518(7) 0.9110(7) 0.3209(4)
C31 C 1.3153(8) 1.0265(8) 0.2975(4)
C32 C 1.4089(9) 1.1036(9) 0.3304(5)
C33 C 1.4330(9) 1.0659(9) 0.3852(5)
C34 C 1.3694(9) 0.9530(9) 0.4116(5)
C35 C 1.2768(8) 0.8747(8) 0.3786(4)
O20 O 1.5240(8) 1.1366(8) 0.4221(4)
C36 C 1.6079(13) 1.2525(13) 0.3942(6)
C37 C 0.6814(6) 0.4082(6) 0.5590(3)
C38 C 0.6762(7) 0.4037(7) 0.6187(4)
C39 C 0.5712(8) 0.3817(8) 0.6386(4)
C40 C 0.4713(7) 0.3641(7) 0.6016(4)
C41 C 0.4729(8) 0.3630(8) 0.5431(4)
C42 C 0.5797(7) 0.3865(7) 0.5223(4)
O21 O 0.3754(6) 0.3471(6) 0.6264(3)
C43 C 0.2714(9) 0.3389(9) 0.5913(9)
C44 C 1.3144(8) 1.2788(8) -0.0354(4)
C45 C 1.4228(9) 1.2718(9) -0.0220(5)
C46 C 1.5247(11) 1.3626(10) -0.0381(5)
C47 C 1.5227(9) 1.4649(9) -0.0668(5)
C48 C 1.4168(10) 1.4763(9) -0.0785(5)
C49 C 1.3145(9) 1.3832(9) -0.0636(4)
O22 O 1.6215(8) 1.5616(8) -0.0840(4)
C50 C 1.7320(17) 1.5550(17) -0.0718(9)
C51 C 1.0893(7) 0.8505(7) 0.4828(3)
C52 C 1.0482(7) 0.9043(7) 0.4359(4)
C53 C 1.0848(8) 1.0255(7) 0.4284(4)
C54 C 1.1660(8) 1.0908(8) 0.4693(4)
C55 C 1.2131(9) 1.0399(9) 0.5151(5)
C56 C 1.1723(8) 0.9180(8) 0.5222(4)
O23 O 1.2092(6) 1.2092(6) 0.4666(3)
C57 C 1.1641(11) 1.2682(11) 0.4180(6)
C58 C 0.9948(7) 1.1117(7) 0.1500(4)
C59 C 0.9347(8) 1.1787(8) 0.1539(4)
C60 C 0.9199(9) 1.1996(9) 0.2057(5)
C61 C 0.9659(8) 1.1542(8) 0.2560(4)
C62 C 1.0301(8) 1.0901(8) 0.2516(4)
C63 C 1.0434(7) 1.0701(7) 0.1995(4)
O24 O 0.9558(6) 1.1692(6) 0.3100(3)
C64 C 0.8888(11) 1.2306(11) 0.3168(6)
Ru1A Ru 1.04270(4) 0.50510(4) 0.54570(2)
O4A O 1.1154(4) 0.5403(4) 0.4268(2)
O10A O 0.9201(4) 0.3233(4) 0.4632(2)
Ru4A Ru 0.95140(6) 1.05210(6) -0.02400(3)
O8A O 0.8919(5) 0.8124(5) 0.0381(3)
O12A O 1.0485(5) 0.8879(5) -0.0497(2)
O25 O 1.6691(23) 1.8852(23) -0.1484(12)
loop_
_geom_bond_atom_site_label_1
_geom_bond_atom_site_label_2
_geom_bond_site_symmetry_1
_geom_bond_site_symmetry_2
Ru1 Cl2 1_555 1_555
Ru2 Ru3 1_555 1_555
Ru3 Cl1 1_555 1_555
Ru4 Cl1 1_555 1_555
Cl2 Ru2 1_555 1_555
O1 Ru2 1_555 1_555
O2 Ru3 1_555 1_555
C1 O1 1_555 1_555
O3 Ru1 1_555 1_555
O4 C2 1_555 1_555
C2 O3 1_555 1_555
O5 Ru2 1_555 1_555
O6 Ru3 1_555 1_555
C3 O5 1_555 1_555
O7 Ru4 1_555 1_555
O8 C4 1_555 1_555
C4 O7 1_555 1_555
O9 Ru1 1_555 1_555
O10 C5 1_555 1_555
C5 O9 1_555 1_555
O11 Ru4 1_555 1_555
O12 C6 1_555 1_555
C6 O11 1_555 1_555
O13 Ru2 1_555 1_555
O14 Ru3 1_555 1_555
C7 O13 1_555 1_555
O15 Ru2 1_555 1_555
O16 Ru3 1_555 1_555
C8 O15 1_555 1_555
C9 C3 1_555 1_555
C10 C9 1_555 1_555
C11 C10 1_555 1_555
C12 C11 1_555 1_555
C13 C12 1_555 1_555
C14 C9 1_555 1_555
O17 C12 1_555 1_555
C15 O17 1_555 1_555
C16 C1 1_555 1_555
C17 C16 1_555 1_555
C18 C17 1_555 1_555
C19 C18 1_555 1_555
C20 C19 1_555 1_555
C21 C16 1_555 1_555
O18 C19 1_555 1_555
C22 O18 1_555 1_555
C23 C7 1_555 1_555
C24 C23 1_555 1_555
C25 C24 1_555 1_555
C26 C25 1_555 1_555
C27 C26 1_555 1_555
C28 C23 1_555 1_555
O19 C26 1_555 1_555
C29 O19 1_555 1_555
C30 C8 1_555 1_555
C31 C30 1_555 1_555
C32 C31 1_555 1_555
C33 C32 1_555 1_555
C34 C33 1_555 1_555
C35 C30 1_555 1_555
O20 C33 1_555 1_555
C36 O20 1_555 1_555
C37 C2 1_555 1_555
C38 C37 1_555 1_555
C39 C38 1_555 1_555
C40 C39 1_555 1_555
C41 C40 1_555 1_555
C42 C37 1_555 1_555
O21 C40 1_555 1_555
C43 O21 1_555 1_555
C44 C4 1_555 1_555
C45 C44 1_555 1_555
C46 C45 1_555 1_555
C47 C46 1_555 1_555
C48 C47 1_555 1_555
C49 C44 1_555 1_555
O22 C47 1_555 1_555
C50 O22 1_555 1_555
C51 C5 1_555 1_555
C52 C51 1_555 1_555
C53 C52 1_555 1_555
C54 C53 1_555 1_555
C55 C54 1_555 1_555
C56 C51 1_555 1_555
O23 C54 1_555 1_555
C57 O23 1_555 1_555
C58 C6 1_555 1_555
C59 C58 1_555 1_555
C60 C59 1_555 1_555
C61 C60 1_555 1_555
C62 C61 1_555 1_555
C63 C58 1_555 1_555
O24 C61 1_555 1_555
C64 O24 1_555 1_555
Ru1A Ru1 1_555 1_555
O4A Ru1 1_555 1_555
O10A Ru1 1_555 1_555
Ru4A Ru4 1_555 1_555
O8A Ru4 1_555 1_555
O12A Ru4 1_555 1_555
O2 C1 1_555 1_555
O4 Ru1A 1_555 1_555
O6 C3 1_555 1_555
O8 Ru4A 1_555 1_555
O10 Ru1A 1_555 1_555
O12 Ru4A 1_555 1_555
O14 C7 1_555 1_555
O16 C8 1_555 1_555
C13 C14 1_555 1_555
C20 C21 1_555 1_555
C27 C28 1_555 1_555
C34 C35 1_555 1_555
C41 C42 1_555 1_555
C48 C49 1_555 1_555
C55 C56 1_555 1_555
C62 C63 1_555 1_555

#END
