
#######################################################################
#
#                 Cambridge Crystallographic Data Centre
#                                CCDC 
#
#######################################################################
#
# If this CIF has been generated from an entry in the Cambridge 
# Structural Database, then it will include bibliographic, chemical, 
# crystal, experimental, refinement or atomic coordinate data resulting 
# from the CCDC's data processing and validation procedures.
#
#######################################################################

data_SOGMIM
_symmetry_cell_setting           monoclinic
_symmetry_space_group_name_H-M   'P 21/c'
_symmetry_Int_Tables_number      14
_space_group_name_Hall           '-P 2ybc'
loop_
_symmetry_equiv_pos_site_id
_symmetry_equiv_pos_as_xyz
1 x,y,z
2 -x,1/2+y,1/2-z
3 -x,-y,-z
4 x,1/2-y,1/2+z
_cell_length_a                   9.7975(2)
_cell_length_b                   5.79149(16)
_cell_length_c                   25.7052(7)
_cell_angle_alpha                90
_cell_angle_beta                 97.272(3)
_cell_angle_gamma                90
_cell_volume                     1446.84
loop_
_atom_site_label
_atom_site_type_symbol
_atom_site_fract_x
_atom_site_fract_y
_atom_site_fract_z
Ca1 Ca 0.5000 0.5000 0.0000
O1 O 0.56664(13) 0.2130(2) 0.06063(5)
O2 O 0.50062(13) -0.2178(2) 0.06460(5)
O3 O 0.26819(13) 0.3792(2) 0.00791(5)
N1 N 0.14769(16) 0.0960(3) 0.04314(6)
P1 P 0.55442(5) -0.00177(8) 0.09251(2)
C1 C 0.72208(18) -0.0666(3) 0.12838(7)
C2 C 0.78373(19) -0.2812(4) 0.12452(7)
H1 H 0.7382 -0.3961 0.1038
C3 C 0.9136(2) -0.3246(4) 0.15161(8)
H2 H 0.9546 -0.4680 0.1487
C4 C 0.9816(2) -0.1552(4) 0.18272(8)
H3 H 1.0686 -0.1846 0.2005
C5 C 0.9205(2) 0.0581(4) 0.18743(8)
H4 H 0.9659 0.1715 0.2086
C6 C 0.79095(19) 0.1024(4) 0.16042(7)
H5 H 0.7499 0.2455 0.1637
C7 C 0.45072(18) 0.0660(3) 0.14430(7)
C8 C 0.43920(19) -0.0978(4) 0.18341(7)
H6 H 0.4817 -0.2408 0.1819
C9 C 0.3647(2) -0.0481(4) 0.22449(8)
H7 H 0.3591 -0.1568 0.2508
C10 C 0.2986(2) 0.1621(4) 0.22651(8)
H8 H 0.2475 0.1941 0.2538
C11 C 0.3087(2) 0.3244(4) 0.18779(8)
H9 H 0.2637 0.4653 0.1889
C12 C 0.3862(2) 0.2784(4) 0.14701(8)
H10 H 0.3946 0.3900 0.1216
C13 C 0.24714(19) 0.1720(4) 0.01700(7)
H11 H 0.3050 0.0632 0.0046
C14 C 0.0570(2) 0.2556(4) 0.06567(9)
H12 H 0.0918 0.2839 0.1017
H13 H -0.0335 0.1900 0.0636
H14 H 0.0528 0.3984 0.0466
C15 C 0.1415(2) -0.1445(4) 0.05827(9)
H15 H 0.2018 -0.2338 0.0395
H16 H 0.0490 -0.2000 0.0501
H17 H 0.1698 -0.1590 0.0953
O1B O 0.43336(13) -0.2130(2) -0.06063(5)
O2B O 0.49938(13) 0.2178(2) -0.06460(5)
P1B P 0.44558(5) 0.00177(8) -0.09251(2)
C1B C 0.27792(18) 0.0666(3) -0.12838(7)
C2B C 0.21627(19) 0.2812(4) -0.12452(7)
H1B H 0.2618 0.3961 -0.1038
C3B C 0.0864(2) 0.3246(4) -0.15161(8)
H2B H 0.0454 0.4680 -0.1487
C4B C 0.0184(2) 0.1552(4) -0.18272(8)
H3B H -0.0686 0.1846 -0.2005
C5B C 0.0795(2) -0.0581(4) -0.18743(8)
H4B H 0.0341 -0.1715 -0.2086
C6B C 0.20905(19) -0.1024(4) -0.16042(7)
H5B H 0.2501 -0.2455 -0.1637
C7B C 0.54928(18) -0.0660(3) -0.14430(7)
C8B C 0.56080(19) 0.0978(4) -0.18341(7)
H6B H 0.5183 0.2408 -0.1819
C9B C 0.6353(2) 0.0481(4) -0.22449(8)
H7B H 0.6409 0.1568 -0.2508
C10B C 0.7014(2) -0.1621(4) -0.22651(8)
H8B H 0.7525 -0.1941 -0.2538
C11B C 0.6913(2) -0.3244(4) -0.18779(8)
H9B H 0.7363 -0.4653 -0.1889
C12B C 0.6138(2) -0.2784(4) -0.14701(8)
H10B H 0.6054 -0.3900 -0.1216
O3B O 0.73181(13) 0.6208(2) -0.00791(5)
N1B N 0.85231(16) 0.9040(3) -0.04314(6)
C13B C 0.75286(19) 0.8280(4) -0.01700(7)
H11B H 0.6950 0.9368 -0.0046
C14B C 0.9430(2) 0.7444(4) -0.06567(9)
H12B H 0.9082 0.7161 -0.1017
H13B H 1.0335 0.8100 -0.0636
H14B H 0.9472 0.6016 -0.0466
C15B C 0.8585(2) 1.1445(4) -0.05827(9)
H15B H 0.7982 1.2338 -0.0395
H16B H 0.9510 1.2000 -0.0501
H17B H 0.8302 1.1590 -0.0953
Ca1_2 Ca 0.5000 -0.5000 0.0000
O1B_2 O 0.43336(13) 0.7870(2) -0.06063(5)
O2_2 O 0.50062(13) 0.7822(2) 0.06460(5)
loop_
_geom_bond_atom_site_label_1
_geom_bond_atom_site_label_2
_geom_bond_site_symmetry_1
_geom_bond_site_symmetry_2
Ca1 O1 1_555 1_555
O1 P1 1_555 1_555
O2 P1 1_555 1_555
O3 Ca1 1_555 1_555
N1 C13 1_555 1_555
P1 C1 1_555 1_555
C1 C2 1_555 1_555
C2 H1 1_555 1_555
C3 C2 1_555 1_555
H2 C3 1_555 1_555
C4 C3 1_555 1_555
H3 C4 1_555 1_555
C5 C4 1_555 1_555
H4 C5 1_555 1_555
C6 C1 1_555 1_555
H5 C6 1_555 1_555
C7 P1 1_555 1_555
C8 C7 1_555 1_555
H6 C8 1_555 1_555
C9 C8 1_555 1_555
H7 C9 1_555 1_555
C10 C9 1_555 1_555
H8 C10 1_555 1_555
C11 C10 1_555 1_555
H9 C11 1_555 1_555
C12 C7 1_555 1_555
H10 C12 1_555 1_555
C13 O3 1_555 1_555
H11 C13 1_555 1_555
C14 N1 1_555 1_555
H12 C14 1_555 1_555
H13 C14 1_555 1_555
H14 C14 1_555 1_555
C15 N1 1_555 1_555
H15 C15 1_555 1_555
H16 C15 1_555 1_555
H17 C15 1_555 1_555
O1B P1B 1_555 1_555
O2B Ca1 1_555 1_555
P1B O2B 1_555 1_555
C1B P1B 1_555 1_555
C2B C1B 1_555 1_555
H1B C2B 1_555 1_555
C3B C2B 1_555 1_555
H2B C3B 1_555 1_555
C4B C3B 1_555 1_555
H3B C4B 1_555 1_555
C5B C4B 1_555 1_555
H4B C5B 1_555 1_555
C6B C1B 1_555 1_555
H5B C6B 1_555 1_555
C7B P1B 1_555 1_555
C8B C7B 1_555 1_555
H6B C8B 1_555 1_555
C9B C8B 1_555 1_555
H7B C9B 1_555 1_555
C10B C9B 1_555 1_555
H8B C10B 1_555 1_555
C11B C10B 1_555 1_555
H9B C11B 1_555 1_555
C12B C7B 1_555 1_555
H10B C12B 1_555 1_555
O3B Ca1 1_555 1_555
N1B C13B 1_555 1_555
C13B O3B 1_555 1_555
H11B C13B 1_555 1_555
C14B N1B 1_555 1_555
H12B C14B 1_555 1_555
H13B C14B 1_555 1_555
H14B C14B 1_555 1_555
C15B N1B 1_555 1_555
H15B C15B 1_555 1_555
H16B C15B 1_555 1_555
H17B C15B 1_555 1_555
Ca1_2 O2 1_555 1_555
O1B_2 Ca1 1_555 1_555
O2_2 Ca1 1_555 1_555
C5 C6 1_555 1_555
C11 C12 1_555 1_555
O1B Ca1_2 1_555 1_555
C5B C6B 1_555 1_555
C11B C12B 1_555 1_555

#END
