
#######################################################################
#
#                 Cambridge Crystallographic Data Centre
#                                CCDC 
#
#######################################################################
#
# If this CIF has been generated from an entry in the Cambridge 
# Structural Database, then it will include bibliographic, chemical, 
# crystal, experimental, refinement or atomic coordinate data resulting 
# from the CCDC's data processing and validation procedures.
#
#######################################################################

data_SOGMEI
_symmetry_cell_setting           monoclinic
_symmetry_space_group_name_H-M   'P 21/n'
_symmetry_Int_Tables_number      14
_space_group_name_Hall           '-P 2yn'
loop_
_symmetry_equiv_pos_site_id
_symmetry_equiv_pos_as_xyz
1 x,y,z
2 1/2-x,1/2+y,1/2-z
3 -x,-y,-z
4 1/2+x,1/2-y,1/2+z
_cell_length_a                   12.7538(5)
_cell_length_b                   22.3294(9)
_cell_length_c                   15.0157(6)
_cell_angle_alpha                90
_cell_angle_beta                 103.175(2)
_cell_angle_gamma                90
_cell_volume                     4163.68
loop_
_atom_site_label
_atom_site_type_symbol
_atom_site_fract_x
_atom_site_fract_y
_atom_site_fract_z
Mg1 Mg 0.99869(4) -0.00794(2) 0.16290(4)
Mg2 Mg 1.0000 0.0000 0.5000
O1 O 1.09739(10) 0.02028(6) 0.41398(8)
O2 O 1.13107(9) 0.00336(5) 0.25361(8)
O3 O 0.88239(10) -0.02296(6) 0.39026(9)
O4 O 0.88641(10) -0.03338(6) 0.22003(8)
O5 O 0.95821(10) 0.06232(5) 0.08776(8)
O6 O 0.97650(10) 0.06932(5) -0.07971(8)
O7 O 0.94997(11) 0.09176(6) 0.49545(9)
P1 P 0.94361(3) 0.097757(19) 0.00052(3)
P2 P 1.17315(3) 0.023039(19) 0.35201(3)
P3 P 0.82370(4) -0.03419(2) 0.29418(3)
N1 N 0.95680(15) 0.17377(8) 0.58609(14)
C1 C 1.01919(14) 0.16639(8) 0.02643(13)
C2 C 1.04539(17) 0.18888(9) 0.11533(16)
H1 H 1.0237 0.1679 0.1632
C3 C 1.10332(19) 0.24203(11) 0.1342(2)
H2 H 1.1212 0.2571 0.1949
C4 C 1.13479(19) 0.27277(10) 0.0655(2)
H3 H 1.1735 0.3093 0.0787
C5 C 1.11031(19) 0.25081(11) -0.0225(2)
H4 H 1.1326 0.2721 -0.0698
C6 C 1.05285(17) 0.19741(9) -0.04236(16)
H5 H 1.0367 0.1822 -0.1031
C7 C 0.80305(13) 0.11749(7) -0.03526(12)
C8 C 0.75298(14) 0.12187(8) -0.12785(12)
H6 H 0.7935 0.1152 -0.1727
C9 C 0.64410(15) 0.13586(8) -0.15485(13)
H7 H 0.6107 0.1392 -0.2180
C10 C 0.58410(15) 0.14499(8) -0.08968(14)
H8 H 0.5097 0.1544 -0.1082
C11 C 0.63287(15) 0.14033(8) 0.00225(14)
H9 H 0.5917 0.1464 0.0468
C12 C 0.74190(15) 0.12677(8) 0.02984(13)
H10 H 0.7749 0.1238 0.0931
C13 C 1.22130(14) 0.09937(8) 0.35160(12)
C14 C 1.1696(2) 0.14429(10) 0.38895(19)
H11 H 1.1083 0.1350 0.4123
C15 C 1.2073(3) 0.20293(10) 0.3923(2)
H12 H 1.1710 0.2335 0.4176
C16 C 1.2963(2) 0.21716(10) 0.35961(18)
H13 H 1.3216 0.2573 0.3624
C17 C 1.34815(17) 0.17336(9) 0.32300(14)
H14 H 1.4098 0.1830 0.3003
C18 C 1.31117(15) 0.11474(8) 0.31882(13)
H15 H 1.3479 0.0846 0.2931
C19 C 1.29135(13) -0.02099(7) 0.39901(11)
C20 C 1.31658(14) -0.03485(8) 0.49216(12)
H16 H 1.2694 -0.0229 0.5295
C21 C 1.41057(15) -0.06608(8) 0.53055(12)
H17 H 1.4271 -0.0756 0.5939
C22 C 1.48013(14) -0.08324(8) 0.47623(13)
H18 H 1.5447 -0.1041 0.5026
C23 C 1.45542(14) -0.06998(8) 0.38358(12)
H19 H 1.5030 -0.0818 0.3465
C24 C 1.36133(14) -0.03940(7) 0.34483(12)
H20 H 1.3443 -0.0309 0.2812
C25 C 0.71970(14) 0.02247(8) 0.26557(11)
C26 C 0.61237(15) 0.01006(9) 0.22486(12)
H21 H 0.5896 -0.0302 0.2127
C27 C 0.53852(16) 0.05658(10) 0.20208(13)
H22 H 0.4654 0.0479 0.1744
C28 C 0.57063(18) 0.11505(10) 0.21929(14)
H23 H 0.5201 0.1466 0.2023
C29 C 0.67656(19) 0.12803(10) 0.26134(14)
H24 H 0.6984 0.1684 0.2738
C30 C 0.75092(17) 0.08200(9) 0.28527(13)
H25 H 0.8232 0.0910 0.3151
C31 C 0.75918(14) -0.10653(9) 0.28811(13)
C32 C 0.74700(16) -0.14253(9) 0.21063(14)
H26 H 0.7719 -0.1286 0.1593
C33 C 0.69879(18) -0.19871(10) 0.20749(18)
H27 H 0.6909 -0.2229 0.1543
C34 C 0.66265(19) -0.21911(11) 0.2816(2)
H28 H 0.6297 -0.2574 0.2794
C35 C 0.6741(2) -0.18437(11) 0.3587(2)
H29 H 0.6486 -0.1988 0.4095
C36 C 0.72264(18) -0.12813(10) 0.36308(17)
H30 H 0.7309 -0.1045 0.4169
C37 C 0.94214(16) 0.11632(9) 0.56687(14)
H31 H 0.9238 0.0916 0.6125
C38 C 0.9992(4) 0.21335(12) 0.5266(3)
H32 H 1.0781 0.2132 0.5445
H33 H 0.9727 0.2541 0.5318
H34 H 0.9757 0.1996 0.4632
C39 C 0.9491(2) 0.19871(11) 0.67293(19)
H35 H 0.9268 0.1674 0.7105
H36 H 0.8958 0.2311 0.6629
H37 H 1.0194 0.2146 0.7045
Mg1B Mg 1.00131(4) 0.00794(2) -0.16290(4)
O1B O 0.90261(10) -0.02028(6) -0.41398(8)
O2B O 0.86893(9) -0.00336(5) -0.25361(8)
O3B O 1.11761(10) 0.02296(6) -0.39026(9)
O4B O 1.11359(10) 0.03338(6) -0.22003(8)
O5B O 1.04179(10) -0.06232(5) -0.08776(8)
O6B O 1.02350(10) -0.06932(5) 0.07971(8)
P1B P 1.05639(3) -0.097757(19) -0.00052(3)
P2B P 0.82685(3) -0.023039(19) -0.35201(3)
P3B P 1.17630(4) 0.03419(2) -0.29418(3)
C1B C 0.98081(14) -0.16639(8) -0.02643(13)
C2B C 0.95461(17) -0.18888(9) -0.11533(16)
H1B H 0.9763 -0.1679 -0.1632
C3B C 0.89668(19) -0.24203(11) -0.1342(2)
H2B H 0.8788 -0.2571 -0.1949
C4B C 0.86521(19) -0.27277(10) -0.0655(2)
H3B H 0.8265 -0.3093 -0.0787
C5B C 0.88969(19) -0.25081(11) 0.0225(2)
H4B H 0.8674 -0.2721 0.0698
C6B C 0.94715(17) -0.19741(9) 0.04236(16)
H5B H 0.9633 -0.1822 0.1031
C7B C 1.19695(13) -0.11749(7) 0.03526(12)
C8B C 1.24702(14) -0.12187(8) 0.12785(12)
H6B H 1.2065 -0.1152 0.1727
C9B C 1.35590(15) -0.13586(8) 0.15485(13)
H7B H 1.3893 -0.1392 0.2180
C10B C 1.41590(15) -0.14499(8) 0.08968(14)
H8B H 1.4903 -0.1544 0.1082
C11B C 1.36713(15) -0.14033(8) -0.00225(14)
H9B H 1.4083 -0.1464 -0.0468
C12B C 1.25810(15) -0.12677(8) -0.02984(13)
H10B H 1.2251 -0.1238 -0.0931
C13B C 0.77870(14) -0.09937(8) -0.35160(12)
C14B C 0.8304(2) -0.14429(10) -0.38895(19)
H11B H 0.8917 -0.1350 -0.4123
C15B C 0.7927(3) -0.20293(10) -0.3923(2)
H12B H 0.8290 -0.2335 -0.4176
C16B C 0.7037(2) -0.21716(10) -0.35961(18)
H13B H 0.6784 -0.2573 -0.3624
C17B C 0.65185(17) -0.17336(9) -0.32300(14)
H14B H 0.5902 -0.1830 -0.3003
C18B C 0.68883(15) -0.11474(8) -0.31882(13)
H15B H 0.6521 -0.0846 -0.2931
C19B C 0.70865(13) 0.02099(7) -0.39901(11)
C20B C 0.68342(14) 0.03485(8) -0.49216(12)
H16B H 0.7306 0.0229 -0.5295
C21B C 0.58943(15) 0.06608(8) -0.53055(12)
H17B H 0.5729 0.0756 -0.5939
C22B C 0.51987(14) 0.08324(8) -0.47623(13)
H18B H 0.4553 0.1041 -0.5026
C23B C 0.54458(14) 0.06998(8) -0.38358(12)
H19B H 0.4970 0.0818 -0.3465
C24B C 0.63867(14) 0.03940(7) -0.34483(12)
H20B H 0.6557 0.0309 -0.2812
C25B C 1.28030(14) -0.02247(8) -0.26557(11)
C26B C 1.38763(15) -0.01006(9) -0.22486(12)
H21B H 1.4104 0.0302 -0.2127
C27B C 1.46148(16) -0.05658(10) -0.20208(13)
H22B H 1.5346 -0.0479 -0.1744
C28B C 1.42937(18) -0.11505(10) -0.21929(14)
H23B H 1.4799 -0.1466 -0.2023
C29B C 1.32344(19) -0.12803(10) -0.26134(14)
H24B H 1.3016 -0.1684 -0.2738
C30B C 1.24908(17) -0.08200(9) -0.28527(13)
H25B H 1.1768 -0.0910 -0.3151
C31B C 1.24082(14) 0.10653(9) -0.28811(13)
C32B C 1.25300(16) 0.14253(9) -0.21063(14)
H26B H 1.2281 0.1286 -0.1593
C33B C 1.30121(18) 0.19871(10) -0.20749(18)
H27B H 1.3091 0.2229 -0.1543
C34B C 1.33735(19) 0.21911(11) -0.2816(2)
H28B H 1.3703 0.2574 -0.2794
C35B C 1.3259(2) 0.18437(11) -0.3587(2)
H29B H 1.3514 0.1988 -0.4095
C36B C 1.27736(18) 0.12813(10) -0.36308(17)
H30B H 1.2691 0.1045 -0.4169
O7B O 1.05003(11) -0.09176(6) 0.50455(9)
N1B N 1.04320(15) -0.17377(8) 0.41391(14)
C37B C 1.05786(16) -0.11632(9) 0.43313(14)
H31B H 1.0762 -0.0916 0.3875
C38B C 1.0008(4) -0.21335(12) 0.4734(3)
H32B H 0.9219 -0.2132 0.4555
H33B H 1.0273 -0.2541 0.4682
H34B H 1.0243 -0.1996 0.5368
C39B C 1.0509(2) -0.19871(11) 0.32707(19)
H35B H 1.0732 -0.1674 0.2895
H36B H 1.1042 -0.2311 0.3371
H37B H 0.9806 -0.2146 0.2955
Mg2_2 Mg 1.0000 0.0000 -0.5000
O1B_2 O 0.90261(10) -0.02028(6) 0.58602(8)
O3B_2 O 1.11761(10) 0.02296(6) 0.60974(9)
O8 O 0.87614(12) 0.33669(6) 0.51849(12)
N2 N 0.79771(11) 0.42513(7) 0.54072(10)
C40 C 0.81493(14) 0.36639(8) 0.55259(13)
H38 H 0.7764 0.3460 0.5906
C41 C 0.72425(15) 0.45667(8) 0.58514(13)
H39 H 0.6946 0.4286 0.6232
H40 H 0.6655 0.4740 0.5386
H41 H 0.7631 0.4887 0.6236
C42 C 0.85001(17) 0.46022(9) 0.48178(14)
H42 H 0.9000 0.4347 0.4582
H43 H 0.8898 0.4933 0.5168
H44 H 0.7955 0.4763 0.4306
loop_
_geom_bond_atom_site_label_1
_geom_bond_atom_site_label_2
_geom_bond_site_symmetry_1
_geom_bond_site_symmetry_2
Mg1 O2 1_555 1_555
Mg2 O1 1_555 1_555
O1 P2 1_555 1_555
O2 P2 1_555 1_555
O3 Mg2 1_555 1_555
O4 Mg1 1_555 1_555
O5 Mg1 1_555 1_555
O6 P1 1_555 1_555
O7 Mg2 1_555 1_555
P1 O5 1_555 1_555
P2 C13 1_555 1_555
P3 O3 1_555 1_555
N1 C37 1_555 1_555
C1 P1 1_555 1_555
C2 C1 1_555 1_555
H1 C2 1_555 1_555
C3 C2 1_555 1_555
H2 C3 1_555 1_555
C4 C3 1_555 1_555
H3 C4 1_555 1_555
C5 C4 1_555 1_555
H4 C5 1_555 1_555
C6 C1 1_555 1_555
H5 C6 1_555 1_555
C7 P1 1_555 1_555
C8 C7 1_555 1_555
H6 C8 1_555 1_555
C9 C8 1_555 1_555
H7 C9 1_555 1_555
C10 C9 1_555 1_555
H8 C10 1_555 1_555
C11 C10 1_555 1_555
H9 C11 1_555 1_555
C12 C7 1_555 1_555
H10 C12 1_555 1_555
C13 C14 1_555 1_555
C14 H11 1_555 1_555
C15 C14 1_555 1_555
H12 C15 1_555 1_555
C16 C15 1_555 1_555
H13 C16 1_555 1_555
C17 C16 1_555 1_555
H14 C17 1_555 1_555
C18 C13 1_555 1_555
H15 C18 1_555 1_555
C19 P2 1_555 1_555
C20 C19 1_555 1_555
H16 C20 1_555 1_555
C21 C20 1_555 1_555
H17 C21 1_555 1_555
C22 C21 1_555 1_555
H18 C22 1_555 1_555
C23 C22 1_555 1_555
H19 C23 1_555 1_555
C24 C19 1_555 1_555
H20 C24 1_555 1_555
C25 P3 1_555 1_555
C26 C25 1_555 1_555
H21 C26 1_555 1_555
C27 C26 1_555 1_555
H22 C27 1_555 1_555
C28 C27 1_555 1_555
H23 C28 1_555 1_555
C29 C28 1_555 1_555
H24 C29 1_555 1_555
C30 C25 1_555 1_555
H25 C30 1_555 1_555
C31 P3 1_555 1_555
C32 C31 1_555 1_555
H26 C32 1_555 1_555
C33 C32 1_555 1_555
H27 C33 1_555 1_555
C34 C33 1_555 1_555
H28 C34 1_555 1_555
C35 C34 1_555 1_555
H29 C35 1_555 1_555
C36 C31 1_555 1_555
H30 C36 1_555 1_555
C37 O7 1_555 1_555
H31 C37 1_555 1_555
C38 N1 1_555 1_555
H32 C38 1_555 1_555
H33 C38 1_555 1_555
H34 C38 1_555 1_555
C39 N1 1_555 1_555
H35 C39 1_555 1_555
H36 C39 1_555 1_555
H37 C39 1_555 1_555
O8 C40 1_555 1_555
N2 C40 1_555 1_555
C40 H38 1_555 1_555
C41 N2 1_555 1_555
H39 C41 1_555 1_555
H40 C41 1_555 1_555
H41 C41 1_555 1_555
C42 N2 1_555 1_555
H42 C42 1_555 1_555
H43 C42 1_555 1_555
H44 C42 1_555 1_555
Mg1B O6 1_555 1_555
O1B P2B 1_555 1_555
O2B Mg1B 1_555 1_555
O3B P3B 1_555 1_555
O4B Mg1B 1_555 1_555
O5B Mg1B 1_555 1_555
O6B Mg1 1_555 1_555
P1B O5B 1_555 1_555
P2B O2B 1_555 1_555
P3B O4B 1_555 1_555
C1B P1B 1_555 1_555
C2B C1B 1_555 1_555
H1B C2B 1_555 1_555
C3B C2B 1_555 1_555
H2B C3B 1_555 1_555
C4B C3B 1_555 1_555
H3B C4B 1_555 1_555
C5B C4B 1_555 1_555
H4B C5B 1_555 1_555
C6B C1B 1_555 1_555
H5B C6B 1_555 1_555
C7B P1B 1_555 1_555
C8B C7B 1_555 1_555
H6B C8B 1_555 1_555
C9B C8B 1_555 1_555
H7B C9B 1_555 1_555
C10B C9B 1_555 1_555
H8B C10B 1_555 1_555
C11B C10B 1_555 1_555
H9B C11B 1_555 1_555
C12B C7B 1_555 1_555
H10B C12B 1_555 1_555
C13B P2B 1_555 1_555
C14B C13B 1_555 1_555
H11B C14B 1_555 1_555
C15B C14B 1_555 1_555
H12B C15B 1_555 1_555
C16B C15B 1_555 1_555
H13B C16B 1_555 1_555
C17B C16B 1_555 1_555
H14B C17B 1_555 1_555
C18B C13B 1_555 1_555
H15B C18B 1_555 1_555
C19B P2B 1_555 1_555
C20B C19B 1_555 1_555
H16B C20B 1_555 1_555
C21B C20B 1_555 1_555
H17B C21B 1_555 1_555
C22B C21B 1_555 1_555
H18B C22B 1_555 1_555
C23B C22B 1_555 1_555
H19B C23B 1_555 1_555
C24B C19B 1_555 1_555
H20B C24B 1_555 1_555
C25B P3B 1_555 1_555
C26B C25B 1_555 1_555
H21B C26B 1_555 1_555
C27B C26B 1_555 1_555
H22B C27B 1_555 1_555
C28B C27B 1_555 1_555
H23B C28B 1_555 1_555
C29B C28B 1_555 1_555
H24B C29B 1_555 1_555
C30B C25B 1_555 1_555
H25B C30B 1_555 1_555
C31B P3B 1_555 1_555
C32B C31B 1_555 1_555
H26B C32B 1_555 1_555
C33B C32B 1_555 1_555
H27B C33B 1_555 1_555
C34B C33B 1_555 1_555
H28B C34B 1_555 1_555
C35B C34B 1_555 1_555
H29B C35B 1_555 1_555
C36B C31B 1_555 1_555
H30B C36B 1_555 1_555
O7B Mg2 1_555 1_555
N1B C37B 1_555 1_555
C37B O7B 1_555 1_555
H31B C37B 1_555 1_555
C38B N1B 1_555 1_555
H32B C38B 1_555 1_555
H33B C38B 1_555 1_555
H34B C38B 1_555 1_555
C39B N1B 1_555 1_555
H35B C39B 1_555 1_555
H36B C39B 1_555 1_555
H37B C39B 1_555 1_555
Mg2_2 O1B 1_555 1_555
O1B_2 Mg2 1_555 1_555
O3B_2 Mg2 1_555 1_555
O4 P3 1_555 1_555
C5 C6 1_555 1_555
C11 C12 1_555 1_555
C17 C18 1_555 1_555
C23 C24 1_555 1_555
C29 C30 1_555 1_555
C35 C36 1_555 1_555
O3B Mg2_2 1_555 1_555
O6B P1B 1_555 1_555
C5B C6B 1_555 1_555
C11B C12B 1_555 1_555
C17B C18B 1_555 1_555
C23B C24B 1_555 1_555
C29B C30B 1_555 1_555
C35B C36B 1_555 1_555

#END
