
#######################################################################
#
#                 Cambridge Crystallographic Data Centre
#                                CCDC 
#
#######################################################################
#
# If this CIF has been generated from an entry in the Cambridge 
# Structural Database, then it will include bibliographic, chemical, 
# crystal, experimental, refinement or atomic coordinate data resulting 
# from the CCDC's data processing and validation procedures.
#
#######################################################################

data_SOGMUY
_symmetry_cell_setting           monoclinic
_symmetry_space_group_name_H-M   'P 21/c'
_symmetry_Int_Tables_number      14
_space_group_name_Hall           '-P 2ybc'
loop_
_symmetry_equiv_pos_site_id
_symmetry_equiv_pos_as_xyz
1 x,y,z
2 -x,1/2+y,1/2-z
3 -x,-y,-z
4 x,1/2-y,1/2+z
_cell_length_a                   9.6068(7)
_cell_length_b                   6.0118(4)
_cell_length_c                   26.6405(19)
_cell_angle_alpha                90
_cell_angle_beta                 98.0330(10)
_cell_angle_gamma                90
_cell_volume                     1523.5
loop_
_atom_site_label
_atom_site_type_symbol
_atom_site_fract_x
_atom_site_fract_y
_atom_site_fract_z
Ba1 Ba 0.5000 0.0000 0.0000
P1 P 0.55484(4) 0.49164(8) 0.099263(16)
O1 O 0.57640(14) 0.6899(2) 0.06681(5)
O2 O 0.23805(14) -0.1655(2) 0.00507(5)
C1 C 0.43435(19) 0.4291(3) 0.18693(7)
H1 H 0.4743 0.2846 0.1869
C2 C 0.78006(19) 0.2039(3) 0.13199(7)
H2 H 0.7277 0.0920 0.1125
C3 C 0.1305(2) -0.6693(4) 0.06122(9)
H3 H 0.1895 -0.7573 0.0415
H4 H 0.0338 -0.7254 0.0553
H5 H 0.1669 -0.6814 0.0974
C4 C 0.22361(19) -0.3630(3) 0.01658(7)
H6 H 0.2823 -0.4694 0.0036
C5 C 0.0430(2) -0.2832(4) 0.06845(9)
H7 H 0.0854 -0.2501 0.1033
H8 H -0.0498 -0.3505 0.0688
H9 H 0.0330 -0.1453 0.0487
N1 N 0.13248(17) -0.4370(3) 0.04566(6)
C6 C 0.72381(18) 0.4165(3) 0.13468(6)
C7 C 0.9891(2) 0.3164(3) 0.18651(7)
H10 H 1.0799 0.2826 0.2039
C8 C 0.80156(19) 0.5770(3) 0.16431(7)
H11 H 0.7635 0.7217 0.1669
C9 C 0.9337(2) 0.5282(3) 0.19005(7)
H12 H 0.9858 0.6390 0.2100
C10 C 0.9130(2) 0.1547(3) 0.15783(7)
H13 H 0.9512 0.0098 0.1557
C11 C 0.45226(18) 0.5782(3) 0.14816(7)
C12 C 0.2986(2) 0.7000(4) 0.22532(7)
H14 H 0.2464 0.7420 0.2516
C13 C 0.3584(2) 0.4906(4) 0.22559(7)
H15 H 0.3476 0.3890 0.2521
C14 C 0.3928(2) 0.7891(3) 0.14870(7)
H16 H 0.4056 0.8933 0.1229
C15 C 0.3146(2) 0.8479(4) 0.18695(8)
H17 H 0.2720 0.9907 0.1866
O3 O 0.49009(13) 0.2861(2) 0.07381(5)
P1B P 0.44516(4) -0.49164(8) -0.099263(16)
O1B O 0.42360(14) -0.6899(2) -0.06681(5)
O2B O 0.76195(14) 0.1655(2) -0.00507(5)
C1B C 0.56565(19) -0.4291(3) -0.18693(7)
H1B H 0.5257 -0.2846 -0.1869
C2B C 0.21994(19) -0.2039(3) -0.13199(7)
H2B H 0.2723 -0.0920 -0.1125
C3B C 0.8695(2) 0.6693(4) -0.06122(9)
H3B H 0.8105 0.7573 -0.0415
H4B H 0.9662 0.7254 -0.0553
H5B H 0.8331 0.6814 -0.0974
C4B C 0.77639(19) 0.3630(3) -0.01658(7)
H6B H 0.7177 0.4694 -0.0036
C5B C 0.9570(2) 0.2832(4) -0.06845(9)
H7B H 0.9146 0.2501 -0.1033
H8B H 1.0498 0.3505 -0.0688
H9B H 0.9670 0.1453 -0.0487
N1B N 0.86752(17) 0.4370(3) -0.04566(6)
C6B C 0.27619(18) -0.4165(3) -0.13468(6)
C7B C 0.0109(2) -0.3164(3) -0.18651(7)
H10B H -0.0799 -0.2826 -0.2039
C8B C 0.19844(19) -0.5770(3) -0.16431(7)
H11B H 0.2365 -0.7217 -0.1669
C9B C 0.0663(2) -0.5282(3) -0.19005(7)
H12B H 0.0142 -0.6390 -0.2100
C10B C 0.0870(2) -0.1547(3) -0.15783(7)
H13B H 0.0488 -0.0098 -0.1557
C11B C 0.54774(18) -0.5782(3) -0.14816(7)
C12B C 0.7014(2) -0.7000(4) -0.22532(7)
H14B H 0.7536 -0.7420 -0.2516
C13B C 0.6416(2) -0.4906(4) -0.22559(7)
H15B H 0.6524 -0.3890 -0.2521
C14B C 0.6072(2) -0.7891(3) -0.14870(7)
H16B H 0.5944 -0.8933 -0.1229
C15B C 0.6854(2) -0.8479(4) -0.18695(8)
H17B H 0.7280 -0.9907 -0.1866
O3B O 0.50991(13) -0.2861(2) -0.07381(5)
Ba1_2 Ba 0.5000 -1.0000 0.0000
Ba1_3 Ba 0.5000 1.0000 0.0000
O1_2 O 0.57640(14) -0.3101(2) 0.06681(5)
O1B_2 O 0.42360(14) 0.3101(2) -0.06681(5)
loop_
_geom_bond_atom_site_label_1
_geom_bond_atom_site_label_2
_geom_bond_site_symmetry_1
_geom_bond_site_symmetry_2
Ba1 O2 1_555 1_555
P1 O1 1_555 1_555
O1 Ba1_3 1_555 1_555
O2 C4 1_555 1_555
C1 H1 1_555 1_555
C2 H2 1_555 1_555
C3 H3 1_555 1_555
H4 C3 1_555 1_555
H5 C3 1_555 1_555
C4 H6 1_555 1_555
C5 H7 1_555 1_555
H8 C5 1_555 1_555
H9 C5 1_555 1_555
N1 C3 1_555 1_555
C6 P1 1_555 1_555
C7 H10 1_555 1_555
C8 C6 1_555 1_555
H11 C8 1_555 1_555
C9 C7 1_555 1_555
H12 C9 1_555 1_555
C10 C2 1_555 1_555
H13 C10 1_555 1_555
C11 P1 1_555 1_555
C12 H14 1_555 1_555
C13 C1 1_555 1_555
H15 C13 1_555 1_555
C14 C11 1_555 1_555
H16 C14 1_555 1_555
C15 C12 1_555 1_555
H17 C15 1_555 1_555
O3 Ba1 1_555 1_555
P1B O1B 1_555 1_555
O1B Ba1_2 1_555 1_555
O2B Ba1 1_555 1_555
C1B H1B 1_555 1_555
C2B H2B 1_555 1_555
C3B H3B 1_555 1_555
H4B C3B 1_555 1_555
H5B C3B 1_555 1_555
C4B O2B 1_555 1_555
H6B C4B 1_555 1_555
C5B H7B 1_555 1_555
H8B C5B 1_555 1_555
H9B C5B 1_555 1_555
N1B C3B 1_555 1_555
C6B P1B 1_555 1_555
C7B H10B 1_555 1_555
C8B C6B 1_555 1_555
H11B C8B 1_555 1_555
C9B C7B 1_555 1_555
H12B C9B 1_555 1_555
C10B C2B 1_555 1_555
H13B C10B 1_555 1_555
C11B P1B 1_555 1_555
C12B H14B 1_555 1_555
C13B C1B 1_555 1_555
H15B C13B 1_555 1_555
C14B C11B 1_555 1_555
H16B C14B 1_555 1_555
C15B C12B 1_555 1_555
H17B C15B 1_555 1_555
O3B Ba1 1_555 1_555
O1_2 Ba1 1_555 1_555
O1B_2 Ba1 1_555 1_555
P1 O3 1_555 1_555
C1 C11 1_555 1_555
C2 C6 1_555 1_555
C4 N1 1_555 1_555
C5 N1 1_555 1_555
C7 C10 1_555 1_555
C8 C9 1_555 1_555
C12 C13 1_555 1_555
C14 C15 1_555 1_555
P1B O3B 1_555 1_555
C1B C11B 1_555 1_555
C2B C6B 1_555 1_555
C4B N1B 1_555 1_555
C5B N1B 1_555 1_555
C7B C10B 1_555 1_555
C8B C9B 1_555 1_555
C12B C13B 1_555 1_555
C14B C15B 1_555 1_555

#END
