
#######################################################################
#
#                 Cambridge Crystallographic Data Centre
#                                CCDC 
#
#######################################################################
#
# If this CIF has been generated from an entry in the Cambridge 
# Structural Database, then it will include bibliographic, chemical, 
# crystal, experimental, refinement or atomic coordinate data resulting 
# from the CCDC's data processing and validation procedures.
#
#######################################################################

data_SOGREN
_symmetry_cell_setting           monoclinic
_symmetry_space_group_name_H-M   'P 21/c'
_symmetry_Int_Tables_number      14
_space_group_name_Hall           '-P 2ybc'
loop_
_symmetry_equiv_pos_site_id
_symmetry_equiv_pos_as_xyz
1 x,y,z
2 -x,1/2+y,1/2-z
3 -x,-y,-z
4 x,1/2-y,1/2+z
_cell_length_a                   16.796(4)
_cell_length_b                   9.9569(12)
_cell_length_c                   25.493(3)
_cell_angle_alpha                90
_cell_angle_beta                 103.108(9)
_cell_angle_gamma                90
_cell_volume                     4152.27
loop_
_atom_site_label
_atom_site_type_symbol
_atom_site_fract_x
_atom_site_fract_y
_atom_site_fract_z
Cd1 Cd -0.019151(19) 0.64305(3) -0.054122(13)
Cd2 Cd 0.0000 1.0000 0.0000
Cd3 Cd 0.065376(19) 0.71754(3) 0.106904(13)
S1 S 0.67633(7) 0.36442(12) 0.16556(5)
S2 S 0.60604(8) 0.60904(13) 0.10957(6)
S3 S 0.52718(7) 0.35107(13) 0.22798(5)
S4 S 0.45800(8) 0.59947(13) 0.17231(5)
S5 S 0.40470(7) 0.23102(13) 0.09732(5)
S6 S 0.47084(8) -0.03652(15) 0.13519(6)
S7 S 0.54495(9) 0.25502(15) 0.02644(6)
S8 S 0.60979(8) -0.00886(15) 0.06750(5)
C1 C 0.7910(3) 0.3420(6) 0.1039(2)
H1 H 0.8002 0.2669 0.1281
H2 H 0.8389 0.3976 0.1103
H3 H 0.7794 0.3101 0.0674
C2 C 0.7149(4) 0.6071(6) 0.0432(2)
H4 H 0.6807 0.6842 0.0327
H5 H 0.7105 0.5481 0.0129
H6 H 0.7707 0.6354 0.0554
C3 C 0.7195(3) 0.4227(5) 0.11307(19)
C4 C 0.6880(3) 0.5339(5) 0.08802(19)
C5 C 0.5971(2) 0.4832(4) 0.15557(17)
C6 C 0.5370(3) 0.4781(5) 0.18203(18)
C7 C 0.4266(3) 0.3913(5) 0.22899(18)
H7 H 0.3961 0.3363 0.2465
C8 C 0.3940(3) 0.5037(5) 0.20381(17)
C9 C 0.3108(3) 0.5572(5) 0.19760(17)
C10 C 0.2582(3) 0.6105(5) 0.15304(18)
H8 H 0.2691 0.6193 0.1190
C11 C 0.2882(3) 0.5198(5) 0.29288(16)
H9 H 0.2685 0.5842 0.3156
H10 H 0.3470 0.5124 0.3055
C12 C 0.2492(3) 0.3853(5) 0.29690(16)
C13 C 0.2027(3) 0.3590(5) 0.33451(18)
H11 H 0.1956 0.4244 0.3590
C14 C 0.1675(3) 0.2341(5) 0.33472(19)
H12 H 0.1372 0.2131 0.3599
C15 C 0.1780(3) 0.1406(5) 0.29684(19)
H13 H 0.1539 0.0562 0.2957
C16 C 0.2247(3) 0.1741(4) 0.26070(17)
C17 C 0.2387(3) 0.0824(5) 0.21660(17)
H14 H 0.2955 0.0548 0.2241
H15 H 0.2051 0.0026 0.2151
C18 C 0.2127(3) 0.2590(5) 0.09076(18)
H16 H 0.2257 0.2960 0.0603
C19 C 0.2628(2) 0.1788(4) 0.12799(17)
C20 C 0.3438(3) 0.1266(5) 0.12774(17)
C21 C 0.3745(3) 0.0051(5) 0.14442(19)
H17 H 0.3449 -0.0550 0.1605
C22 C 0.4780(3) 0.1055(5) 0.09490(18)
C23 C 0.5356(3) 0.1168(5) 0.06690(18)
C24 C 0.6289(3) 0.1898(6) 0.0037(2)
C25 C 0.6584(3) 0.0702(6) 0.0224(2)
C26 C 0.6617(5) 0.2782(7) -0.0347(2)
H18 H 0.6292 0.3583 -0.0419
H19 H 0.6593 0.2307 -0.0678
H20 H 0.7173 0.3019 -0.0188
C27 C 0.7313(4) -0.0011(7) 0.0102(2)
H21 H 0.7393 -0.0851 0.0292
H22 H 0.7791 0.0538 0.0215
H23 H 0.7219 -0.0174 -0.0278
C28 C 0.0088(4) 0.9527(9) 0.1920(3)
C29 C -0.0230(5) 1.0841(8) 0.2116(3)
H24 H -0.0738 1.1085 0.1877
H25 H 0.0164 1.1542 0.2120
H26 H -0.0313 1.0716 0.2473
Cl1 Cl -0.06860(6) 0.78250(10) 0.02978(4)
Cl2 Cl 0.10434(6) 0.56148(10) 0.02579(4)
Cl3 Cl 0.13200(7) 0.92100(11) 0.07621(5)
Cl4 Cl -0.05498(7) 1.14381(11) 0.06977(5)
Cl5 Cl -0.00874(7) 0.50929(11) 0.13054(5)
N1 N 0.1888(2) 0.6476(4) 0.16646(15)
N2 N 0.1940(2) 0.6217(4) 0.21803(15)
N3 N 0.2686(2) 0.5673(4) 0.23703(14)
N4 N 0.2609(2) 0.2944(4) 0.26119(14)
N5 N 0.2177(2) 0.1529(4) 0.16485(14)
N6 N 0.1437(2) 0.2103(4) 0.15127(15)
N7 N 0.1414(2) 0.2749(4) 0.10598(15)
N8 N 0.0283(3) 0.8557(6) 0.1739(2)
Cd1B Cd 0.019151(19) 0.35695(3) 0.054122(13)
Cd3B Cd -0.065376(19) 0.28246(3) -0.106904(13)
S1B S -0.67633(7) 0.63558(12) -0.16556(5)
S2B S -0.60604(8) 0.39096(13) -0.10957(6)
S3B S -0.52718(7) 0.64893(13) -0.22798(5)
S4B S -0.45800(8) 0.40053(13) -0.17231(5)
S5B S -0.40470(7) 0.76898(13) -0.09732(5)
S6B S -0.47084(8) 1.03652(15) -0.13519(6)
S7B S -0.54495(9) 0.74498(15) -0.02644(6)
S8B S -0.60979(8) 1.00886(15) -0.06750(5)
C1B C -0.7910(3) 0.6580(6) -0.1039(2)
H1B H -0.8002 0.7331 -0.1281
H2B H -0.8389 0.6024 -0.1103
H3B H -0.7794 0.6899 -0.0674
C2B C -0.7149(4) 0.3929(6) -0.0432(2)
H4B H -0.6807 0.3158 -0.0327
H5B H -0.7105 0.4519 -0.0129
H6B H -0.7707 0.3646 -0.0554
C3B C -0.7195(3) 0.5773(5) -0.11307(19)
C4B C -0.6880(3) 0.4661(5) -0.08802(19)
C5B C -0.5971(2) 0.5168(4) -0.15557(17)
C6B C -0.5370(3) 0.5219(5) -0.18203(18)
C7B C -0.4266(3) 0.6087(5) -0.22899(18)
H7B H -0.3961 0.6637 -0.2465
C8B C -0.3940(3) 0.4963(5) -0.20381(17)
C9B C -0.3108(3) 0.4428(5) -0.19760(17)
C10B C -0.2582(3) 0.3895(5) -0.15304(18)
H8B H -0.2691 0.3807 -0.1190
C11B C -0.2882(3) 0.4802(5) -0.29288(16)
H9B H -0.2685 0.4158 -0.3156
H10B H -0.3470 0.4876 -0.3055
C12B C -0.2492(3) 0.6147(5) -0.29690(16)
C13B C -0.2027(3) 0.6410(5) -0.33451(18)
H11B H -0.1956 0.5756 -0.3590
C14B C -0.1675(3) 0.7659(5) -0.33472(19)
H12B H -0.1372 0.7869 -0.3599
C15B C -0.1780(3) 0.8594(5) -0.29684(19)
H13B H -0.1539 0.9438 -0.2957
C16B C -0.2247(3) 0.8259(4) -0.26070(17)
C17B C -0.2387(3) 0.9176(5) -0.21660(17)
H14B H -0.2955 0.9452 -0.2241
H15B H -0.2051 0.9974 -0.2151
C18B C -0.2127(3) 0.7410(5) -0.09076(18)
H16B H -0.2257 0.7040 -0.0603
C19B C -0.2628(2) 0.8212(4) -0.12799(17)
C20B C -0.3438(3) 0.8734(5) -0.12774(17)
C21B C -0.3745(3) 0.9949(5) -0.14442(19)
H17B H -0.3449 1.0550 -0.1605
C22B C -0.4780(3) 0.8945(5) -0.09490(18)
C23B C -0.5356(3) 0.8832(5) -0.06690(18)
C24B C -0.6289(3) 0.8102(6) -0.0037(2)
C25B C -0.6584(3) 0.9298(6) -0.0224(2)
C26B C -0.6617(5) 0.7218(7) 0.0347(2)
H18B H -0.6292 0.6417 0.0419
H19B H -0.6593 0.7693 0.0678
H20B H -0.7173 0.6981 0.0188
C27B C -0.7313(4) 1.0011(7) -0.0102(2)
H21B H -0.7393 1.0851 -0.0292
H22B H -0.7791 0.9462 -0.0215
H23B H -0.7219 1.0174 0.0278
C28B C -0.0088(4) 0.0473(9) -0.1920(3)
C29B C 0.0230(5) -0.0841(8) -0.2116(3)
H24B H 0.0738 -0.1085 -0.1877
H25B H -0.0164 -0.1542 -0.2120
H26B H 0.0313 -0.0716 -0.2473
Cl1B Cl 0.06860(6) 0.21750(10) -0.02978(4)
Cl2B Cl -0.10434(6) 0.43852(10) -0.02579(4)
Cl3B Cl -0.13200(7) 0.07900(11) -0.07621(5)
Cl5B Cl 0.00874(7) 0.49071(11) -0.13054(5)
N1B N -0.1888(2) 0.3524(4) -0.16646(15)
N2B N -0.1940(2) 0.3783(4) -0.21803(15)
N3B N -0.2686(2) 0.4327(4) -0.23703(14)
N4B N -0.2609(2) 0.7056(4) -0.26119(14)
N5B N -0.2177(2) 0.8471(4) -0.16485(14)
N6B N -0.1437(2) 0.7897(4) -0.15127(15)
N7B N -0.1414(2) 0.7251(4) -0.10598(15)
N8B N -0.0283(3) 0.1443(6) -0.1739(2)
Cl4B Cl 0.05498(7) 0.85619(11) -0.06977(5)
Cd1B_2 Cd 0.019151(19) 1.35695(3) 0.054122(13)
Cd2_2 Cd 0.0000 0.0000 0.0000
Cl1B_2 Cl 0.06860(6) 1.21750(10) -0.02978(4)
Cl3B_2 Cl -0.13200(7) 1.07900(11) -0.07621(5)
Cl4_2 Cl -0.05498(7) 0.14381(11) 0.06977(5)
loop_
_geom_bond_atom_site_label_1
_geom_bond_atom_site_label_2
_geom_bond_site_symmetry_1
_geom_bond_site_symmetry_2
Cd1 Cl1 1_555 1_555
Cd2 Cl1 1_555 1_555
Cd3 Cl1 1_555 1_555
S1 C3 1_555 1_555
S2 C4 1_555 1_555
S3 C6 1_555 1_555
S4 C6 1_555 1_555
S5 C20 1_555 1_555
S6 C21 1_555 1_555
S7 C23 1_555 1_555
S8 C23 1_555 1_555
C1 H1 1_555 1_555
H2 C1 1_555 1_555
H3 C1 1_555 1_555
C2 H4 1_555 1_555
H5 C2 1_555 1_555
H6 C2 1_555 1_555
C3 C1 1_555 1_555
C4 C2 1_555 1_555
C5 S1 1_555 1_555
C6 C5 1_555 1_555
C7 S3 1_555 1_555
H7 C7 1_555 1_555
C8 S4 1_555 1_555
C9 C8 1_555 1_555
C10 C9 1_555 1_555
H8 C10 1_555 1_555
C11 H9 1_555 1_555
H10 C11 1_555 1_555
C12 C11 1_555 1_555
C13 C12 1_555 1_555
H11 C13 1_555 1_555
C14 C13 1_555 1_555
H12 C14 1_555 1_555
C15 C14 1_555 1_555
H13 C15 1_555 1_555
C16 C15 1_555 1_555
C17 C16 1_555 1_555
H14 C17 1_555 1_555
H15 C17 1_555 1_555
C18 H16 1_555 1_555
C19 C18 1_555 1_555
C20 C19 1_555 1_555
C21 C20 1_555 1_555
H17 C21 1_555 1_555
C22 S5 1_555 1_555
C23 C22 1_555 1_555
C24 S7 1_555 1_555
C25 S8 1_555 1_555
C26 C24 1_555 1_555
H18 C26 1_555 1_555
H19 C26 1_555 1_555
H20 C26 1_555 1_555
C27 C25 1_555 1_555
H21 C27 1_555 1_555
H22 C27 1_555 1_555
H23 C27 1_555 1_555
C28 C29 1_555 1_555
C29 H24 1_555 1_555
H25 C29 1_555 1_555
H26 C29 1_555 1_555
Cl2 Cd1 1_555 1_555
Cl3 Cd2 1_555 1_555
Cl4 Cd2 1_555 1_555
Cl5 Cd3 1_555 1_555
N1 Cd3 1_555 1_555
N2 N1 1_555 1_555
N3 C9 1_555 1_555
N4 C12 1_555 1_555
N5 C17 1_555 1_555
N6 N5 1_555 1_555
N7 C18 1_555 1_555
N8 Cd3 1_555 1_555
Cd1B Cl2 1_555 1_555
Cd3B Cl1B 1_555 1_555
S1B C3B 1_555 1_555
S2B C4B 1_555 1_555
S3B C6B 1_555 1_555
S4B C6B 1_555 1_555
S5B C20B 1_555 1_555
S6B C21B 1_555 1_555
S7B C23B 1_555 1_555
S8B C23B 1_555 1_555
C1B H1B 1_555 1_555
H2B C1B 1_555 1_555
H3B C1B 1_555 1_555
C2B H4B 1_555 1_555
H5B C2B 1_555 1_555
H6B C2B 1_555 1_555
C3B C1B 1_555 1_555
C4B C2B 1_555 1_555
C5B S1B 1_555 1_555
C6B C5B 1_555 1_555
C7B S3B 1_555 1_555
H7B C7B 1_555 1_555
C8B S4B 1_555 1_555
C9B C8B 1_555 1_555
C10B C9B 1_555 1_555
H8B C10B 1_555 1_555
C11B H9B 1_555 1_555
H10B C11B 1_555 1_555
C12B C11B 1_555 1_555
C13B C12B 1_555 1_555
H11B C13B 1_555 1_555
C14B C13B 1_555 1_555
H12B C14B 1_555 1_555
C15B C14B 1_555 1_555
H13B C15B 1_555 1_555
C16B C15B 1_555 1_555
C17B C16B 1_555 1_555
H14B C17B 1_555 1_555
H15B C17B 1_555 1_555
C18B H16B 1_555 1_555
C19B C18B 1_555 1_555
C20B C19B 1_555 1_555
C21B C20B 1_555 1_555
H17B C21B 1_555 1_555
C22B S5B 1_555 1_555
C23B C22B 1_555 1_555
C24B S7B 1_555 1_555
C25B S8B 1_555 1_555
C26B C24B 1_555 1_555
H18B C26B 1_555 1_555
H19B C26B 1_555 1_555
H20B C26B 1_555 1_555
C27B C25B 1_555 1_555
H21B C27B 1_555 1_555
H22B C27B 1_555 1_555
H23B C27B 1_555 1_555
C28B C29B 1_555 1_555
C29B H24B 1_555 1_555
H25B C29B 1_555 1_555
H26B C29B 1_555 1_555
Cl1B Cd1B 1_555 1_555
Cl2B Cd1 1_555 1_555
Cl3B Cd3B 1_555 1_555
Cl5B Cd1 1_555 1_555
N1B Cd3B 1_555 1_555
N2B N1B 1_555 1_555
N3B C9B 1_555 1_555
N4B C12B 1_555 1_555
N5B C17B 1_555 1_555
N6B N5B 1_555 1_555
N7B Cd1 1_555 1_555
N8B Cd3B 1_555 1_555
Cl4B Cd1 1_555 1_555
Cd1B_2 Cl4 1_555 1_555
Cd2_2 Cl1B 1_555 1_555
Cl1B_2 Cd2 1_555 1_555
Cl3B_2 Cd2 1_555 1_555
Cl4_2 Cd1B 1_555 1_555
Cd2 Cl4B 1_555 1_555
Cd3 Cl2 1_555 1_555
Cd3 Cl3 1_555 1_555
S2 C5 1_555 1_555
S6 C22 1_555 1_555
C3 C4 1_555 1_555
C7 C8 1_555 1_555
C10 N1 1_555 1_555
C11 N3 1_555 1_555
C16 N4 1_555 1_555
C19 N5 1_555 1_555
C24 C25 1_555 1_555
C28 N8 1_555 1_555
Cl5 Cd1B 1_555 1_555
N2 N3 1_555 1_555
N6 N7 1_555 1_555
N7 Cd1B 1_555 1_555
Cd1B Cl2B 1_555 1_555
Cd3B Cl2B 1_555 1_555
Cd3B Cl5B 1_555 1_555
S2B C5B 1_555 1_555
S6B C22B 1_555 1_555
C3B C4B 1_555 1_555
C7B C8B 1_555 1_555
C10B N1B 1_555 1_555
C11B N3B 1_555 1_555
C16B N4B 1_555 1_555
C18B N7B 1_555 1_555
C19B N5B 1_555 1_555
C24B C25B 1_555 1_555
C28B N8B 1_555 1_555
Cl3B Cd2_2 1_555 1_555
N2B N3B 1_555 1_555
N6B N7B 1_555 1_555
Cd1B_2 Cl1B_2 1_555 1_555
Cd2_2 Cl4_2 1_555 1_555

#END
