
#######################################################################
#
#                 Cambridge Crystallographic Data Centre
#                                CCDC 
#
#######################################################################
#
# If this CIF has been generated from an entry in the Cambridge 
# Structural Database, then it will include bibliographic, chemical, 
# crystal, experimental, refinement or atomic coordinate data resulting 
# from the CCDC's data processing and validation procedures.
#
#######################################################################

data_SOGSAJ01
_symmetry_cell_setting           monoclinic
_symmetry_space_group_name_H-M   'P 21/c'
_symmetry_Int_Tables_number      14
_space_group_name_Hall           '-P 2ybc'
loop_
_symmetry_equiv_pos_site_id
_symmetry_equiv_pos_as_xyz
1 x,y,z
2 -x,1/2+y,1/2-z
3 -x,-y,-z
4 x,1/2-y,1/2+z
_cell_length_a                   6.622(3)
_cell_length_b                   17.514(7)
_cell_length_c                   6.707(3)
_cell_angle_alpha                90
_cell_angle_beta                 96.514(6)
_cell_angle_gamma                90
_cell_volume                     772.841
loop_
_atom_site_label
_atom_site_type_symbol
_atom_site_fract_x
_atom_site_fract_y
_atom_site_fract_z
K1 K -0.68654(10) -0.42813(4) -0.68612(11)
O1 O -0.5832(3) -0.21119(11) -0.3571(3)
O2 O -0.5145(3) -0.33586(11) -0.3395(3)
O3 O -0.2402(3) -0.42197(11) -0.2033(4)
H1 H -0.3429 -0.3969 -0.2554
O4 O 0.0780(3) -0.41164(11) -0.0556(3)
O5 O -0.2955(4) -0.48972(13) -0.6796(4)
H2 H -0.2255 -0.4490 -0.6773
H3 H -0.2493 -0.5188 -0.7653
N1 N 0.0516(3) -0.25255(13) -0.0686(3)
H4 H 0.1683 -0.2686 -0.0154
N2 N 0.0013(3) -0.17886(13) -0.0927(4)
N3 N -0.1889(3) -0.17607(13) -0.1793(4)
C1 C -0.1043(4) -0.29856(15) -0.1386(4)
C2 C -0.2590(4) -0.24892(15) -0.2085(4)
C3 C -0.0829(4) -0.38334(17) -0.1298(4)
C4 C -0.4679(4) -0.26538(16) -0.3076(4)
K1C K -0.68654(10) -0.07187(4) -0.18612(11)
K1B K -0.31346(10) -0.57187(4) -0.31388(11)
K1_2 K 0.31346(10) -0.42813(4) 0.31388(11)
K1C_2 K 0.31346(10) -0.07187(4) -0.18612(11)
O1C O -0.5832(3) -0.28881(11) -0.8571(3)
O3B O -0.7598(3) -0.57803(11) -0.7967(4)
H1B H -0.6571 -0.6031 -0.7446
O4_2 O -0.9220(3) -0.41164(11) -1.0556(3)
O5B O -0.7045(4) -0.51028(13) -0.3204(4)
H2B H -0.7745 -0.5510 -0.3227
H3B H -0.7507 -0.4812 -0.2347
N2C N -0.9987(3) -0.32114(13) -0.5927(4)
loop_
_geom_bond_atom_site_label_1
_geom_bond_atom_site_label_2
_geom_bond_site_symmetry_1
_geom_bond_site_symmetry_2
K1 O2 1_555 1_555
O1 C4 1_555 1_555
O2 C4 1_555 1_555
O3 H1 1_555 1_555
O4 C3 1_555 1_555
O5 K1 1_555 1_555
H2 O5 1_555 1_555
H3 O5 1_555 1_555
N1 H4 1_555 1_555
N2 N1 1_555 1_555
N3 N2 1_555 1_555
C1 N1 1_555 1_555
C2 N3 1_555 1_555
C3 O3 1_555 1_555
C4 C2 1_555 1_555
K1C O1 1_555 1_555
K1B O3 1_555 1_555
K1_2 O4 1_555 1_555
K1C_2 N2 1_555 1_555
O1C K1 1_555 1_555
O3B K1 1_555 1_555
H1B O3B 1_555 1_555
O4_2 K1 1_555 1_555
O5B K1 1_555 1_555
H2B O5B 1_555 1_555
H3B O5B 1_555 1_555
N2C K1 1_555 1_555
O5 K1B 1_555 1_555
C1 C2 1_555 1_555
C1 C3 1_555 1_555
K1B O5B 1_555 1_555

#END
