
#######################################################################
#
#                 Cambridge Crystallographic Data Centre
#                                CCDC 
#
#######################################################################
#
# If this CIF has been generated from an entry in the Cambridge 
# Structural Database, then it will include bibliographic, chemical, 
# crystal, experimental, refinement or atomic coordinate data resulting 
# from the CCDC's data processing and validation procedures.
#
#######################################################################

data_SOGWAM
_symmetry_cell_setting           monoclinic
_symmetry_space_group_name_H-M   'P 21/n'
_symmetry_Int_Tables_number      14
_space_group_name_Hall           '-P 2yn'
loop_
_symmetry_equiv_pos_site_id
_symmetry_equiv_pos_as_xyz
1 x,y,z
2 1/2-x,1/2+y,1/2-z
3 -x,-y,-z
4 1/2+x,1/2-y,1/2+z
_cell_length_a                   14.824(5)
_cell_length_b                   11.059(2)
_cell_length_c                   15.246(6)
_cell_angle_alpha                90
_cell_angle_beta                 92.39(3)
_cell_angle_gamma                90
_cell_volume                     2497.23
loop_
_atom_site_label
_atom_site_type_symbol
_atom_site_fract_x
_atom_site_fract_y
_atom_site_fract_z
Sn1 Sn 0.29321(2) 0.73655(2) 0.73202(2)
O1 O 0.3730(2) 0.5736(2) 0.7055(2)
O2 O 0.2194(2) 0.9230(2) 0.7619(2)
O3 O 0.5737(2) 0.5488(3) 0.8175(2)
O4 O 0.4985(2) 0.3368(3) 0.5695(2)
O5 O 0.8166(4) 0.7493(4) 0.7403(3)
O6 O 0.7420(3) 0.6439(5) 0.8249(3)
N1 N 0.5205(2) 0.4308(3) 0.7036(2)
N2 N 0.7651(3) 0.6710(4) 0.7518(3)
C1 C 0.1852(2) 0.7009(3) 0.6389(2)
C2 C 0.1748(3) 0.7695(3) 0.5629(3)
C3 C 0.0998(3) 0.7518(4) 0.5061(3)
C4 C 0.0359(3) 0.6679(4) 0.5250(3)
C5 C 0.0460(3) 0.5981(4) 0.5999(3)
C6 C 0.1208(3) 0.6148(3) 0.6558(3)
C7 C 0.4054(2) 0.8427(3) 0.6962(3)
C8 C 0.3965(3) 0.9351(4) 0.6341(3)
C9 C 0.4708(4) 1.0046(5) 0.6148(3)
C10 C 0.5533(3) 0.9829(5) 0.6553(4)
C11 C 0.5624(3) 0.8940(5) 0.7165(4)
C12 C 0.4888(3) 0.8236(4) 0.7377(3)
C13 C 0.2874(3) 0.6878(3) 0.8668(3)
C14 C 0.2122(3) 0.7093(4) 0.9158(3)
C15 C 0.2081(3) 0.6700(4) 1.0015(3)
C16 C 0.2797(4) 0.6097(4) 1.0405(3)
C17 C 0.3566(3) 0.5900(4) 0.9945(3)
C18 C 0.3602(3) 0.6275(4) 0.9082(3)
C19 C 0.3571(2) 0.4657(3) 0.7271(2)
C20 C 0.4405(2) 0.3869(3) 0.7439(3)
C21 C 0.5815(3) 0.5098(3) 0.7449(3)
C22 C 0.7337(3) 0.5948(4) 0.6780(3)
C23 C 0.7867(3) 0.5918(4) 0.6066(4)
C24 C 0.7600(3) 0.5239(5) 0.5338(4)
C25 C 0.6802(3) 0.4595(4) 0.5307(3)
C26 C 0.5430(3) 0.4010(4) 0.6188(3)
C27 C 0.6297(3) 0.4641(4) 0.6050(3)
C28 C 0.6538(2) 0.5300(3) 0.6795(3)
H1 H 0.2197 0.8285 0.5494
H2 H 0.0925 0.7993 0.4536
H3 H -0.0166 0.6584 0.4867
H4 H 0.0025 0.5366 0.6119
H5 H 0.1278 0.5669 0.7081
H6 H 0.3389 0.9499 0.6050
H7 H 0.4647 1.0680 0.5720
H8 H 0.6043 1.0319 0.6417
H9 H 0.6204 0.8793 0.7449
H10 H 0.4961 0.7606 0.7807
H11 H 0.1621 0.7527 0.8892
H12 H 0.1552 0.6855 1.0339
H13 H 0.2761 0.5804 1.0996
H14 H 0.4076 0.5508 1.0230
H15 H 0.4132 0.6118 0.8760
H16 H 0.4274 0.3074 0.7214
H17 H 0.4526 0.3825 0.8061
H18 H 0.8425 0.6359 0.6073
H19 H 0.7972 0.5219 0.4837
H20 H 0.6595 0.4143 0.4800
C19A C 0.1429(2) 0.9657(3) 0.7729(2)
O2A O 0.2806(2) 0.4230(2) 0.7381(2)
O1A O 0.1270(2) 1.0736(2) 0.7945(2)
C20A C 0.0595(2) 0.8869(3) 0.7561(3)
Sn1A Sn 0.20679(2) 0.23655(2) 0.76798(2)
Sn1A_2 Sn 0.20679(2) 1.23655(2) 0.76798(2)
N1A N -0.0205(2) 0.9308(3) 0.7964(2)
H16A H 0.0726 0.8074 0.7786
H17A H 0.0474 0.8825 0.6939
O1A_2 O 0.1270(2) 0.0736(2) 0.7945(2)
C1A C 0.3148(2) 0.2009(3) 0.8611(2)
C7A C 0.0946(2) 0.3427(3) 0.8038(3)
C13A C 0.2126(3) 0.1878(3) 0.6332(3)
C21A C -0.0815(3) 1.0098(3) 0.7551(3)
C26A C -0.0430(3) 0.9010(4) 0.8812(3)
C2A C 0.3252(3) 0.2695(3) 0.9371(3)
C6A C 0.3792(3) 0.1148(3) 0.8442(3)
C8A C 0.1035(3) 0.4351(4) 0.8659(3)
C12A C 0.0112(3) 0.3236(4) 0.7623(3)
C14A C 0.2878(3) 0.2093(4) 0.5842(3)
C18A C 0.1398(3) 0.1275(4) 0.5918(3)
O3A O -0.0737(2) 1.0488(3) 0.6825(2)
C28A C -0.1538(2) 1.0300(3) 0.8205(3)
O4A O 0.0015(2) 0.8368(3) 0.9305(2)
C27A C -0.1297(3) 0.9641(4) 0.8950(3)
C3A C 0.4002(3) 0.2518(4) 0.9939(3)
H1A H 0.2803 0.3285 0.9506
C5A C 0.4540(3) 0.0981(4) 0.9001(3)
H5A H 0.3722 0.0669 0.7919
C9A C 0.0292(4) 0.5046(5) 0.8852(3)
H6A H 0.1611 0.4499 0.8950
C11A C -0.0624(3) 0.3940(5) 0.7835(4)
H10A H 0.0039 0.2606 0.7193
C15A C 0.2919(3) 0.1700(4) 0.4985(3)
H11A H 0.3379 0.2527 0.6108
C17A C 0.1434(3) 0.0900(4) 0.5055(3)
H15A H 0.0868 0.1118 0.6240
C22A C -0.2337(3) 1.0948(4) 0.8220(3)
C25A C -0.1802(3) 0.9595(4) 0.9693(3)
C4A C 0.4641(3) 0.1679(4) 0.9750(3)
H2A H 0.4075 0.2993 1.0464
H4A H 0.4975 0.0366 0.8881
C10A C -0.0533(3) 0.4829(5) 0.8447(4)
H7A H 0.0353 0.5680 0.9280
H9A H -0.1204 0.3793 0.7551
C16A C 0.2203(4) 0.1097(4) 0.4595(3)
H12A H 0.3448 0.1855 0.4661
H14A H 0.0924 0.0508 0.4770
N2A N -0.2651(3) 1.1710(4) 0.7482(3)
C23A C -0.2867(3) 1.0918(4) 0.8934(4)
C24A C -0.2600(3) 1.0239(5) 0.9662(4)
H20A H -0.1595 0.9143 1.0200
H3A H 0.5166 0.1584 1.0133
H8A H -0.1043 0.5319 0.8583
H13A H 0.2239 0.0804 0.4004
O5A O -0.3166(4) 1.2493(4) 0.7597(3)
O6A O -0.2420(3) 1.1439(5) 0.6751(3)
H18A H -0.3425 1.1359 0.8927
H19A H -0.2972 1.0219 1.0163
loop_
_geom_bond_atom_site_label_1
_geom_bond_atom_site_label_2
_geom_bond_site_symmetry_1
_geom_bond_site_symmetry_2
Sn1 O1 1_555 1_555
O1 C19 1_555 1_555
O2 Sn1 1_555 1_555
O3 C21 1_555 1_555
O4 C26 1_555 1_555
O5 N2 1_555 1_555
O6 N2 1_555 1_555
N1 C20 1_555 1_555
N2 C22 1_555 1_555
C1 Sn1 1_555 1_555
C2 C1 1_555 1_555
C3 C2 1_555 1_555
C4 C3 1_555 1_555
C5 C4 1_555 1_555
C6 C1 1_555 1_555
C7 Sn1 1_555 1_555
C8 C7 1_555 1_555
C9 C8 1_555 1_555
C10 C9 1_555 1_555
C11 C10 1_555 1_555
C12 C7 1_555 1_555
C13 Sn1 1_555 1_555
C14 C13 1_555 1_555
C15 C14 1_555 1_555
C16 C15 1_555 1_555
C17 C16 1_555 1_555
C18 C13 1_555 1_555
C19 C20 1_555 1_555
C20 H16 1_555 1_555
C21 N1 1_555 1_555
C22 C23 1_555 1_555
C23 C24 1_555 1_555
C24 C25 1_555 1_555
C25 C27 1_555 1_555
C26 N1 1_555 1_555
C27 C26 1_555 1_555
C28 C21 1_555 1_555
H1 C2 1_555 1_555
H2 C3 1_555 1_555
H3 C4 1_555 1_555
H4 C5 1_555 1_555
H5 C6 1_555 1_555
H6 C8 1_555 1_555
H7 C9 1_555 1_555
H8 C10 1_555 1_555
H9 C11 1_555 1_555
H10 C12 1_555 1_555
H11 C14 1_555 1_555
H12 C15 1_555 1_555
H13 C16 1_555 1_555
H14 C17 1_555 1_555
H15 C18 1_555 1_555
H17 C20 1_555 1_555
H18 C23 1_555 1_555
H19 C24 1_555 1_555
H20 C25 1_555 1_555
C19A O2 1_555 1_555
O2A C19 1_555 1_555
O1A C19A 1_555 1_555
C20A C19A 1_555 1_555
Sn1A O2A 1_555 1_555
Sn1A_2 O1A 1_555 1_555
N1A C20A 1_555 1_555
H16A C20A 1_555 1_555
H17A C20A 1_555 1_555
O1A_2 Sn1A 1_555 1_555
C1A Sn1A 1_555 1_555
C7A Sn1A 1_555 1_555
C13A Sn1A 1_555 1_555
C21A N1A 1_555 1_555
C26A N1A 1_555 1_555
C2A C1A 1_555 1_555
C6A C1A 1_555 1_555
C8A C7A 1_555 1_555
C12A C7A 1_555 1_555
C14A C13A 1_555 1_555
C18A C13A 1_555 1_555
O3A C21A 1_555 1_555
C28A C21A 1_555 1_555
O4A C26A 1_555 1_555
C27A C26A 1_555 1_555
C3A C2A 1_555 1_555
H1A C2A 1_555 1_555
C5A C6A 1_555 1_555
H5A C6A 1_555 1_555
C9A C8A 1_555 1_555
H6A C8A 1_555 1_555
C11A C12A 1_555 1_555
H10A C12A 1_555 1_555
C15A C14A 1_555 1_555
H11A C14A 1_555 1_555
C17A C18A 1_555 1_555
H15A C18A 1_555 1_555
C22A C28A 1_555 1_555
C25A C27A 1_555 1_555
C4A C3A 1_555 1_555
H2A C3A 1_555 1_555
H4A C5A 1_555 1_555
C10A C9A 1_555 1_555
H7A C9A 1_555 1_555
H9A C11A 1_555 1_555
C16A C15A 1_555 1_555
H12A C15A 1_555 1_555
H14A C17A 1_555 1_555
N2A C22A 1_555 1_555
C23A C22A 1_555 1_555
C24A C25A 1_555 1_555
H20A C25A 1_555 1_555
H3A C4A 1_555 1_555
H8A C10A 1_555 1_555
H13A C16A 1_555 1_555
O5A N2A 1_555 1_555
O6A N2A 1_555 1_555
H18A C23A 1_555 1_555
H19A C24A 1_555 1_555
C5 C6 1_555 1_555
C11 C12 1_555 1_555
C17 C18 1_555 1_555
C22 C28 1_555 1_555
C27 C28 1_555 1_555
C28A C27A 1_555 1_555
C5A C4A 1_555 1_555
C11A C10A 1_555 1_555
C17A C16A 1_555 1_555
C23A C24A 1_555 1_555

#END
