
#######################################################################
#
#                 Cambridge Crystallographic Data Centre
#                                CCDC 
#
#######################################################################
#
# If this CIF has been generated from an entry in the Cambridge 
# Structural Database, then it will include bibliographic, chemical, 
# crystal, experimental, refinement or atomic coordinate data resulting 
# from the CCDC's data processing and validation procedures.
#
#######################################################################

data_SOGWUI
_symmetry_cell_setting           orthorhombic
_symmetry_space_group_name_H-M   'P c c n'
_symmetry_Int_Tables_number      56
_space_group_name_Hall           '-P 2ab 2ac'
loop_
_symmetry_equiv_pos_site_id
_symmetry_equiv_pos_as_xyz
1 x,y,z
2 1/2-x,1/2-y,z
3 1/2+x,-y,1/2-z
4 -x,1/2+y,1/2-z
5 -x,-y,-z
6 1/2+x,1/2+y,-z
7 1/2-x,y,1/2+z
8 x,1/2-y,1/2+z
_cell_length_a                   25.018(5)
_cell_length_b                   15.588(5)
_cell_length_c                   22.261(5)
_cell_angle_alpha                90
_cell_angle_beta                 90
_cell_angle_gamma                90
_cell_volume                     8681.36
loop_
_atom_site_label
_atom_site_type_symbol
_atom_site_fract_x
_atom_site_fract_y
_atom_site_fract_z
W1 W 0.58916(4) -0.04128(5) 0.61737(3)
W2 W 0.45924(3) -0.12928(5) 0.61879(3)
W3 W 0.39586(3) 0.14443(5) 0.52061(4)
W4 W 0.52868(3) 0.21724(4) 0.52405(4)
W5 W 0.63092(4) 0.07304(6) 0.49191(4)
W6 W 0.47811(3) 0.09108(5) 0.64125(3)
O1 O 0.4992(7) -0.0117(12) 0.5763(8)
O2 O 0.5493(7) 0.0459(11) 0.6546(8)
O3 O 0.4489(7) -0.0167(12) 0.6562(8)
O4 O 0.4149(8) 0.1254(13) 0.6039(9)
O5 O 0.4847(8) 0.0935(13) 0.5431(9)
O6 O 0.5158(9) 0.1845(14) 0.6036(10)
O7 O 0.5397(8) 0.0920(13) 0.4758(9)
O8 O 0.5754(9) -0.0254(15) 0.5186(11)
O9 O 0.4498(8) 0.2211(12) 0.5121(9)
O10 O 0.5420(6) 0.3241(10) 0.5352(7)
O11 O 0.5977(9) 0.1757(14) 0.5266(10)
O12 O 0.6945(5) 0.1175(8) 0.4958(6)
O13 O 0.6417(10) 0.0354(16) 0.5825(11)
O14 O 0.6308(7) -0.0644(10) 0.6735(7)
O15 O 0.5320(7) -0.1201(11) 0.6344(8)
O16 O 0.4396(7) -0.1907(11) 0.6794(8)
O17 O 0.4691(10) -0.2287(16) 0.5663(11)
O18 O 0.3905(8) -0.1090(13) 0.5846(9)
O19 O 0.4709(6) 0.1342(10) 0.7102(7)
O20 O 0.3702(10) 0.0345(16) 0.5377(11)
O21 O 0.3796(11) 0.1332(17) 0.4322(12)
O22 O 0.3428(4) 0.2110(7) 0.5301(5)
W1D W 0.41084(4) 0.04128(5) 0.38263(3)
W2D W 0.54076(3) 0.12928(5) 0.38121(3)
W3D W 0.60414(3) -0.14443(5) 0.47939(4)
W4D W 0.47132(3) -0.21724(4) 0.47595(4)
W5D W 0.36908(4) -0.07304(6) 0.50809(4)
W6D W 0.52189(3) -0.09108(5) 0.35875(3)
O1D O 0.5008(7) 0.0117(12) 0.4237(8)
O2D O 0.4507(7) -0.0459(11) 0.3454(8)
O3D O 0.5511(7) 0.0167(12) 0.3438(8)
O4D O 0.5851(8) -0.1254(13) 0.3961(9)
O5D O 0.5153(8) -0.0935(13) 0.4569(9)
O6D O 0.4842(9) -0.1845(14) 0.3964(10)
O7D O 0.4603(8) -0.0920(13) 0.5242(9)
O8D O 0.4246(9) 0.0254(15) 0.4814(11)
O9D O 0.5502(8) -0.2211(12) 0.4879(9)
O10D O 0.4580(6) -0.3241(10) 0.4648(7)
O11D O 0.4023(9) -0.1757(14) 0.4734(10)
O12D O 0.3055(5) -0.1175(8) 0.5042(6)
O13D O 0.3583(10) -0.0354(16) 0.4175(11)
O14D O 0.3692(7) 0.0644(10) 0.3265(7)
O15D O 0.4680(7) 0.1201(11) 0.3656(8)
O16D O 0.5604(7) 0.1907(11) 0.3206(8)
O17D O 0.5309(10) 0.2287(16) 0.4337(11)
O18D O 0.6095(8) 0.1090(13) 0.4154(9)
O19D O 0.5291(6) -0.1342(10) 0.2898(7)
O20D O 0.6298(10) -0.0345(16) 0.4623(11)
O21D O 0.6204(11) -0.1332(17) 0.5678(12)
O22D O 0.6572(4) -0.2110(7) 0.4699(5)
Cu1 Cu 0.2500 0.2500 0.52593(12)
N1 N 0.2500 0.2500 0.1170(9)
N2 N 0.2500 0.2500 0.4354(11)
O23 O 0.2337(5) 0.1260(8) 0.5262(5)
C1 C 0.2932(8) 0.2683(12) 0.4055(9)
H1 H 0.3244 0.2801 0.4266
C2 C 0.2772(7) 0.3064(11) 0.1491(8)
H2 H 0.2965 0.3477 0.1282
C3 C 0.2793(6) 0.3088(10) 0.2099(7)
H3 H 0.3001 0.3494 0.2297
C4 C 0.2500 0.2500 0.2411(12)
C5 C 0.2500 0.2500 0.3092(11)
C6 C 0.2941(8) 0.2707(13) 0.3429(9)
H4 H 0.3254 0.2868 0.3235
C1A C 0.2068(8) 0.2317(12) 0.4055(9)
H1A H 0.1756 0.2199 0.4266
C2A C 0.2228(7) 0.1936(11) 0.1491(8)
H2A H 0.2035 0.1523 0.1282
C3A C 0.2207(6) 0.1912(10) 0.2099(7)
H3A H 0.1999 0.1506 0.2297
C6A C 0.2059(8) 0.2293(13) 0.3429(9)
H4A H 0.1746 0.2132 0.3235
O23A O 0.2663(5) 0.3740(8) 0.5262(5)
Cu1F Cu 0.2500 0.2500 0.02593(12)
N1F N 0.2500 0.2500 0.6170(9)
Cu2 Cu 0.7500 0.2500 0.50023(12)
N3 N 0.7500 0.2500 0.4100(10)
N4 N 0.7500 0.2500 0.0917(9)
O24 O 0.6812(5) 0.3143(9) 0.5069(6)
C7 C 0.7971(7) 0.2572(12) 0.3787(8)
H5 H 0.8291 0.2621 0.3998
C8 C 0.7980(7) 0.2572(11) 0.3168(7)
H6 H 0.8306 0.2621 0.2969
C9 C 0.7500 0.2500 0.2825(12)
C10 C 0.7101(7) 0.2837(11) 0.1232(7)
H7 H 0.6815 0.3071 0.1021
C11 C 0.7085(7) 0.2861(11) 0.1845(8)
H8 H 0.6799 0.3115 0.2044
C12 C 0.7500 0.2500 0.2161(13)
C7A C 0.7029(7) 0.2428(12) 0.3787(8)
H5A H 0.6709 0.2379 0.3998
C8A C 0.7020(7) 0.2428(11) 0.3168(7)
H6A H 0.6694 0.2379 0.2969
C10A C 0.7899(7) 0.2163(11) 0.1232(7)
H7A H 0.8185 0.1929 0.1021
C11A C 0.7915(7) 0.2139(11) 0.1845(8)
H8A H 0.8201 0.1885 0.2044
O24A O 0.8188(5) 0.1857(9) 0.5069(6)
Cu2F Cu 0.7500 0.2500 0.00023(12)
N4F N 0.7500 0.2500 0.5917(9)
Cu3 Cu 0.51891(9) 0.46137(15) 0.58398(10)
N5 N 0.4675(6) 0.3953(10) 0.6433(7)
N6 N 0.4546(6) 0.4513(10) 0.5319(7)
N7 N 0.4393(6) 0.4756(10) 0.4757(8)
N8 N 0.3898(7) 0.4462(11) 0.4699(8)
N9 N 0.3727(6) 0.4060(10) 0.5184(7)
N10 N 0.3878(8) 0.3071(12) 0.7059(9)
N11 N 0.5798(6) 0.4627(9) 0.6419(7)
N12 N 0.7989(8) 0.4774(12) 0.8404(8)
C13 C 0.4772(11) 0.3647(17) 0.6968(12)
H9 H 0.5106 0.3725 0.7144
C14 C 0.4385(8) 0.3215(12) 0.7268(9)
H10 H 0.4471 0.3000 0.7646
C15 C 0.3795(10) 0.3375(15) 0.6500(10)
H11 H 0.3463 0.3291 0.6321
C16 C 0.4192(7) 0.3814(11) 0.6179(8)
C17 C 0.4136(8) 0.4089(12) 0.5566(8)
C18 C 0.6261(8) 0.4226(13) 0.6298(9)
H12 H 0.6272 0.3890 0.5953
C19 C 0.6708(9) 0.4264(14) 0.6628(10)
H13 H 0.7021 0.3994 0.6503
C20 C 0.6686(7) 0.4733(11) 0.7178(8)
C21 C 0.6203(8) 0.5180(13) 0.7284(9)
H14 H 0.6178 0.5535 0.7618
C22 C 0.5775(8) 0.5108(13) 0.6914(9)
H15 H 0.5461 0.5398 0.7006
C23 C 0.7131(7) 0.4773(11) 0.7616(8)
C24 C 0.7652(9) 0.4860(15) 0.7391(11)
H16 H 0.7720 0.4927 0.6983
C25 C 0.8060(10) 0.4840(15) 0.7814(11)
H17 H 0.8410 0.4876 0.7674
C26 C 0.7465(8) 0.4721(12) 0.8598(9)
H18 H 0.7403 0.4685 0.9010
C27 C 0.7038(8) 0.4718(12) 0.8226(8)
H19 H 0.6691 0.4680 0.8376
Cu3D Cu 0.48109(9) 0.53863(15) 0.41602(10)
N5D N 0.5325(6) 0.6047(10) 0.3567(7)
N6D N 0.5454(6) 0.5487(10) 0.4681(7)
N7D N 0.5607(6) 0.5244(10) 0.5243(8)
N8D N 0.6102(7) 0.5538(11) 0.5301(8)
N9D N 0.6273(6) 0.5940(10) 0.4816(7)
N10D N 0.6122(8) 0.6929(12) 0.2941(9)
N11D N 0.4202(6) 0.5373(9) 0.3581(7)
N12D N 0.2011(8) 0.5226(12) 0.1596(8)
C13D C 0.5228(11) 0.6353(17) 0.3032(12)
H9D H 0.4894 0.6275 0.2856
C14D C 0.5615(8) 0.6785(12) 0.2732(9)
H10D H 0.5529 0.7000 0.2354
C15D C 0.6205(10) 0.6625(15) 0.3500(10)
H11D H 0.6537 0.6709 0.3679
C16D C 0.5808(7) 0.6186(11) 0.3821(8)
C17D C 0.5864(8) 0.5911(12) 0.4434(8)
C18D C 0.3739(8) 0.5774(13) 0.3702(9)
H12D H 0.3728 0.6110 0.4047
C19D C 0.3292(9) 0.5736(14) 0.3372(10)
H13D H 0.2979 0.6006 0.3497
C20D C 0.3314(7) 0.5267(11) 0.2822(8)
C21D C 0.3797(8) 0.4820(13) 0.2716(9)
H14D H 0.3822 0.4465 0.2382
C22D C 0.4225(8) 0.4892(13) 0.3086(9)
H15D H 0.4539 0.4602 0.2994
C23D C 0.2869(7) 0.5227(11) 0.2384(8)
C24D C 0.2348(9) 0.5140(15) 0.2609(11)
H16D H 0.2280 0.5073 0.3017
C25D C 0.1940(10) 0.5160(15) 0.2186(11)
H17D H 0.1590 0.5124 0.2326
C26D C 0.2535(8) 0.5279(12) 0.1402(9)
H18D H 0.2597 0.5315 0.0990
C27D C 0.2962(8) 0.5282(12) 0.1774(8)
H19D H 0.3309 0.5320 0.1624
O25 O 0.4851(14) 0.581(2) 0.6126(16)
loop_
_geom_bond_atom_site_label_1
_geom_bond_atom_site_label_2
_geom_bond_site_symmetry_1
_geom_bond_site_symmetry_2
W1 O1 1_555 1_555
W2 O1 1_555 1_555
W3 O4 1_555 1_555
W4 O5 1_555 1_555
W5 O7 1_555 1_555
W6 O1 1_555 1_555
O2 W1 1_555 1_555
O3 W2 1_555 1_555
O4 W6 1_555 1_555
O5 W3 1_555 1_555
O6 W4 1_555 1_555
O7 W4 1_555 1_555
O8 W1 1_555 1_555
O9 W3 1_555 1_555
O10 W4 1_555 1_555
O11 W4 1_555 1_555
O12 W5 1_555 1_555
O13 W1 1_555 1_555
O14 W1 1_555 1_555
O15 W1 1_555 1_555
O16 W2 1_555 1_555
O17 W2 1_555 1_555
O18 W2 1_555 1_555
O19 W6 1_555 1_555
O20 W3 1_555 1_555
O21 W3 1_555 1_555
O22 W3 1_555 1_555
Cu1 N2 1_555 1_555
N1 C2 1_555 1_555
N2 C1 1_555 1_555
O23 Cu1 1_555 1_555
C1 H1 1_555 1_555
C2 H2 1_555 1_555
C3 C2 1_555 1_555
H3 C3 1_555 1_555
C4 C3 1_555 1_555
C5 C4 1_555 1_555
C6 C1 1_555 1_555
H4 C6 1_555 1_555
Cu2 N3 1_555 1_555
N3 C7 1_555 1_555
N4 C10 1_555 1_555
O24 Cu2 1_555 1_555
C7 H5 1_555 1_555
C8 C7 1_555 1_555
H6 C8 1_555 1_555
C9 C8 1_555 1_555
C10 H7 1_555 1_555
C11 C10 1_555 1_555
H8 C11 1_555 1_555
C12 C9 1_555 1_555
Cu3 N5 1_555 1_555
N5 C13 1_555 1_555
N6 Cu3 1_555 1_555
N7 N6 1_555 1_555
N8 N7 1_555 1_555
N9 N8 1_555 1_555
N10 C14 1_555 1_555
N11 Cu3 1_555 1_555
N12 C25 1_555 1_555
C13 H9 1_555 1_555
C14 C13 1_555 1_555
H10 C14 1_555 1_555
C15 N10 1_555 1_555
H11 C15 1_555 1_555
C16 N5 1_555 1_555
C17 N6 1_555 1_555
C18 N11 1_555 1_555
H12 C18 1_555 1_555
C19 C18 1_555 1_555
H13 C19 1_555 1_555
C20 C19 1_555 1_555
C21 C20 1_555 1_555
H14 C21 1_555 1_555
C22 N11 1_555 1_555
H15 C22 1_555 1_555
C23 C20 1_555 1_555
C24 C23 1_555 1_555
H16 C24 1_555 1_555
C25 C24 1_555 1_555
H17 C25 1_555 1_555
C26 N12 1_555 1_555
H18 C26 1_555 1_555
C27 C23 1_555 1_555
H19 C27 1_555 1_555
W1D O21 1_555 1_555
W2D O7 1_555 1_555
W3D O8 1_555 1_555
W4D O17 1_555 1_555
W5D O18 1_555 1_555
W6D O1D 1_555 1_555
O1D W1D 1_555 1_555
O2D W1D 1_555 1_555
O3D W2D 1_555 1_555
O4D W3D 1_555 1_555
O5D W3D 1_555 1_555
O6D W4D 1_555 1_555
O7D W2 1_555 1_555
O8D W3 1_555 1_555
O9D W3D 1_555 1_555
O10D W4D 1_555 1_555
O11D W4D 1_555 1_555
O12D W5D 1_555 1_555
O13D W1D 1_555 1_555
O14D W1D 1_555 1_555
O15D W1D 1_555 1_555
O16D W2D 1_555 1_555
O17D W4 1_555 1_555
O18D W5 1_555 1_555
O19D W6D 1_555 1_555
O20D W5 1_555 1_555
O21D W1 1_555 1_555
O22D W3D 1_555 1_555
C1A N2 1_555 1_555
H1A C1A 1_555 1_555
C2A N1 1_555 1_555
H2A C2A 1_555 1_555
C3A C4 1_555 1_555
H3A C3A 1_555 1_555
C6A C5 1_555 1_555
H4A C6A 1_555 1_555
O23A Cu1 1_555 1_555
Cu1F N1 1_555 1_555
N1F Cu1 1_555 1_555
C7A N3 1_555 1_555
H5A C7A 1_555 1_555
C8A C9 1_555 1_555
H6A C8A 1_555 1_555
C10A N4 1_555 1_555
H7A C10A 1_555 1_555
C11A C12 1_555 1_555
H8A C11A 1_555 1_555
O24A Cu2 1_555 1_555
Cu2F N4 1_555 1_555
N4F Cu2 1_555 1_555
Cu3D N7 1_555 1_555
N5D Cu3D 1_555 1_555
N6D Cu3D 1_555 1_555
N7D Cu3 1_555 1_555
N8D N7D 1_555 1_555
N9D N8D 1_555 1_555
N10D C14D 1_555 1_555
N11D Cu3D 1_555 1_555
N12D C25D 1_555 1_555
C13D N5D 1_555 1_555
H9D C13D 1_555 1_555
C14D C13D 1_555 1_555
H10D C14D 1_555 1_555
C15D N10D 1_555 1_555
H11D C15D 1_555 1_555
C16D N5D 1_555 1_555
C17D N6D 1_555 1_555
C18D N11D 1_555 1_555
H12D C18D 1_555 1_555
C19D C18D 1_555 1_555
H13D C19D 1_555 1_555
C20D C19D 1_555 1_555
C21D C20D 1_555 1_555
H14D C21D 1_555 1_555
C22D N11D 1_555 1_555
H15D C22D 1_555 1_555
C23D C20D 1_555 1_555
C24D C23D 1_555 1_555
H16D C24D 1_555 1_555
C25D C24D 1_555 1_555
H17D C25D 1_555 1_555
C26D N12D 1_555 1_555
H18D C26D 1_555 1_555
C27D C23D 1_555 1_555
H19D C27D 1_555 1_555
W2 O15 1_555 1_555
W4 O9 1_555 1_555
W5 O8 1_555 1_555
W5 O11 1_555 1_555
W5 O13 1_555 1_555
W6 O2 1_555 1_555
W6 O3 1_555 1_555
W6 O5 1_555 1_555
W6 O6 1_555 1_555
O20 W5D 1_555 1_555
C5 C6 1_555 1_555
C11 C12 1_555 1_555
N9 C17 1_555 1_555
C15 C16 1_555 1_555
C16 C17 1_555 1_555
C21 C22 1_555 1_555
C26 C27 1_555 1_555
W1D O8D 1_555 1_555
W2D O1D 1_555 1_555
W2D O15D 1_555 1_555
W2D O17D 1_555 1_555
W2D O18D 1_555 1_555
W3D O20D 1_555 1_555
W3D O21D 1_555 1_555
W4D O5D 1_555 1_555
W4D O7D 1_555 1_555
W4D O9D 1_555 1_555
W5D O7D 1_555 1_555
W5D O8D 1_555 1_555
W5D O11D 1_555 1_555
W5D O13D 1_555 1_555
W6D O2D 1_555 1_555
W6D O3D 1_555 1_555
W6D O4D 1_555 1_555
W6D O5D 1_555 1_555
W6D O6D 1_555 1_555
C1A C6A 1_555 1_555
C2A C3A 1_555 1_555
C7A C8A 1_555 1_555
C10A C11A 1_555 1_555
N6D N7D 1_555 1_555
N9D C17D 1_555 1_555
C15D C16D 1_555 1_555
C16D C17D 1_555 1_555
C21D C22D 1_555 1_555
C26D C27D 1_555 1_555

#END
