
#######################################################################
#
#                 Cambridge Crystallographic Data Centre
#                                CCDC 
#
#######################################################################
#
# If this CIF has been generated from an entry in the Cambridge 
# Structural Database, then it will include bibliographic, chemical, 
# crystal, experimental, refinement or atomic coordinate data resulting 
# from the CCDC's data processing and validation procedures.
#
#######################################################################

data_SOGWER
_symmetry_cell_setting           tetragonal
_symmetry_space_group_name_H-M   'P 4/m n c'
_symmetry_Int_Tables_number      128
_space_group_name_Hall           '-P 4 2n'
loop_
_symmetry_equiv_pos_site_id
_symmetry_equiv_pos_as_xyz
1 x,y,z
2 -y,x,z
3 y,-x,z
4 1/2+y,1/2+x,1/2-z
5 -x,-y,z
6 1/2-x,1/2+y,1/2-z
7 1/2+x,1/2-y,1/2-z
8 1/2-y,1/2-x,1/2-z
9 -x,-y,-z
10 y,-x,-z
11 -y,x,-z
12 1/2-y,1/2-x,1/2+z
13 x,y,-z
14 1/2+x,1/2-y,1/2+z
15 1/2-x,1/2+y,1/2+z
16 1/2+y,1/2+x,1/2+z
_cell_length_a                   13.1517(6)
_cell_length_b                   13.1517(6)
_cell_length_c                   23.990(3)
_cell_angle_alpha                90
_cell_angle_beta                 90
_cell_angle_gamma                90
_cell_volume                     4149.48
loop_
_atom_site_label
_atom_site_type_symbol
_atom_site_fract_x
_atom_site_fract_y
_atom_site_fract_z
Mn1 Mn 0.240104(19) 0.259896(19) 0.2500
N1 N 0.25470(12) 0.09378(11) 0.27471(7)
N2 N 0.32352(13) 0.06570(12) 0.31505(7)
H1 H 0.3556 0.1069 0.3366
N3 N 0.27259(12) -0.07559(11) 0.27644(7)
C1 C 0.33295(15) -0.03506(14) 0.31555(9)
C2 C 0.22871(15) 0.00633(12) 0.25324(9)
H2 H 0.1829 0.0011 0.2238
N4 N 0.39661(15) -0.08665(13) 0.34843(8)
H3 H 0.4353 -0.0546 0.3714
H4 H 0.3989 -0.1519 0.3467
C3 C 0.20428(16) 0.16032(16) 0.12595(9)
C4 C 0.1281(2) 0.1669(3) 0.07972(13)
H5 H 0.1511 0.1271 0.0487
H6 H 0.1207 0.2366 0.0684
H7 H 0.0638 0.1415 0.0925
O1 O 0.18268(10) 0.21014(10) 0.16913(6)
O2 O 0.28179(11) 0.10936(12) 0.11914(7)
Mn1B Mn 0.259896(19) -0.240104(19) 0.2500
Mn1A Mn 0.740104(19) 0.240104(19) 0.2500
N1G N 0.40622(11) 0.24530(12) 0.22529(7)
N2G N 0.43430(12) 0.17648(13) 0.18495(7)
H1G H 0.3931 0.1444 0.1634
N3G N 0.57559(11) 0.22741(12) 0.22356(7)
N3A N 0.07559(11) 0.27259(12) 0.27644(7)
N3E N 0.22741(12) 0.42441(11) 0.22356(7)
C1G C 0.53506(14) 0.16705(15) 0.18445(9)
C2G C 0.49367(12) 0.27129(15) 0.24676(9)
H2G H 0.4989 0.3171 0.2762
N4G N 0.58665(13) 0.10339(15) 0.15157(8)
H3G H 0.5546 0.0647 0.1286
H4G H 0.6519 0.1011 0.1533
C3G C 0.33968(16) 0.29572(16) 0.37405(9)
C4G C 0.3331(3) 0.3719(2) 0.42028(13)
H5G H 0.3729 0.3489 0.4513
H6G H 0.2634 0.3793 0.4316
H7G H 0.3585 0.4362 0.4075
O1G O 0.28986(10) 0.31732(10) 0.33087(6)
O2G O 0.39064(12) 0.21821(11) 0.38086(7)
O3 O 0.5000 0.0000 0.04748(11)
O4 O 0.3800(3) 0.0554(3) 0.0000
O5? O 0.4394(5) 0.0237(5) 0.0000
loop_
_geom_bond_atom_site_label_1
_geom_bond_atom_site_label_2
_geom_bond_site_symmetry_1
_geom_bond_site_symmetry_2
Mn1 N1 1_555 1_555
N1 N2 1_555 1_555
N2 H1 1_555 1_555
N3 C1 1_555 1_555
C1 N2 1_555 1_555
C2 N1 1_555 1_555
H2 C2 1_555 1_555
N4 C1 1_555 1_555
H3 N4 1_555 1_555
H4 N4 1_555 1_555
C3 C4 1_555 1_555
C4 H5 1_555 1_555
H6 C4 1_555 1_555
H7 C4 1_555 1_555
O1 Mn1 1_555 1_555
O2 C3 1_555 1_555
Mn1B N3 1_555 1_555
Mn1A N3G 1_555 1_555
N1G Mn1 1_555 1_555
N2G N1G 1_555 1_555
H1G N2G 1_555 1_555
N3G C1G 1_555 1_555
N3A Mn1 1_555 1_555
N3E Mn1 1_555 1_555
C1G N2G 1_555 1_555
C2G N1G 1_555 1_555
H2G C2G 1_555 1_555
N4G C1G 1_555 1_555
H3G N4G 1_555 1_555
H4G N4G 1_555 1_555
C3G C4G 1_555 1_555
C4G H5G 1_555 1_555
H6G C4G 1_555 1_555
H7G C4G 1_555 1_555
O1G Mn1 1_555 1_555
O2G C3G 1_555 1_555
N3 C2 1_555 1_555
C3 O1 1_555 1_555
N3G C2G 1_555 1_555
C3G O1G 1_555 1_555

#END
