
#######################################################################
#
#                 Cambridge Crystallographic Data Centre
#                                CCDC 
#
#######################################################################
#
# If this CIF has been generated from an entry in the Cambridge 
# Structural Database, then it will include bibliographic, chemical, 
# crystal, experimental, refinement or atomic coordinate data resulting 
# from the CCDC's data processing and validation procedures.
#
#######################################################################

data_SOGXAO
_symmetry_cell_setting           monoclinic
_symmetry_space_group_name_H-M   'P 21/c'
_symmetry_Int_Tables_number      14
_space_group_name_Hall           '-P 2ybc'
loop_
_symmetry_equiv_pos_site_id
_symmetry_equiv_pos_as_xyz
1 x,y,z
2 -x,1/2+y,1/2-z
3 -x,-y,-z
4 x,1/2-y,1/2+z
_cell_length_a                   11.381(3)
_cell_length_b                   6.9693(17)
_cell_length_c                   13.271(3)
_cell_angle_alpha                90
_cell_angle_beta                 112.404(18)
_cell_angle_gamma                90
_cell_volume                     973.171
loop_
_atom_site_label
_atom_site_type_symbol
_atom_site_fract_x
_atom_site_fract_y
_atom_site_fract_z
Sr1 Sr 0.150038(18) 0.05899(3) 0.650510(15)
P1 P 0.37147(5) 0.21916(8) 0.40335(4)
C1 C 0.2584(2) 0.2993(3) 0.46259(17)
H1 H 0.2573 0.4399 0.4632
C2 C 0.1257(2) 0.2274(3) 0.39359(18)
O1 O 0.29657(17) 0.2317(3) 0.57178(13)
H2 H 0.3358 0.3164 0.6141
O2 O 0.35972(17) 0.0036(3) 0.38724(15)
O3 O 0.50520(15) 0.2718(2) 0.49128(14)
H3 H 0.5391 0.1748 0.5247
O4 O 0.34919(15) 0.3344(3) 0.30223(13)
O5 O 0.07177(16) 0.1097(3) 0.43368(13)
O6 O 0.07811(17) 0.2949(3) 0.29848(14)
O7 O 0.0086(4) 0.3667(5) 0.5845(3)
H4 H 0.0229 0.4169 0.5345
O8 O 0.1770(2) -0.2289(4) 0.7785(2)
H5 H 0.1071 -0.2745 0.7687
O9 O 0.2458(2) -0.2058(3) 0.5669(2)
H6 H 0.2965 -0.2703 0.6160
H9 H 0.232(4) -0.304(6) 0.808(4)
H10 H 0.283(9) -0.219(15) 0.521(8)
H11 H -0.026(6) 0.387(10) 0.626(5)
Sr1C Sr 0.150038(18) 0.44101(3) 0.150510(15)
Sr1B Sr -0.150038(18) -0.05899(3) 0.349490(15)
O4C O 0.34919(15) 0.1656(3) 0.80223(13)
O5B O -0.07177(16) -0.1097(3) 0.56632(13)
O6C O 0.07811(17) 0.2051(3) 0.79848(14)
O10 O 0.5779(2) 0.0341(3) 0.80578(18)
H7 H 0.499(4) 0.067(5) 0.799(3)
H8 H 0.576(4) 0.024(6) 0.743(4)
loop_
_geom_bond_atom_site_label_1
_geom_bond_atom_site_label_2
_geom_bond_site_symmetry_1
_geom_bond_site_symmetry_2
Sr1 O1 1_555 1_555
P1 C1 1_555 1_555
C1 H1 1_555 1_555
C2 C1 1_555 1_555
O1 C1 1_555 1_555
H2 O1 1_555 1_555
O2 P1 1_555 1_555
O3 P1 1_555 1_555
H3 O3 1_555 1_555
O4 P1 1_555 1_555
O5 Sr1 1_555 1_555
O6 C2 1_555 1_555
O7 Sr1 1_555 1_555
H4 O7 1_555 1_555
O8 Sr1 1_555 1_555
H5 O8 1_555 1_555
O9 Sr1 1_555 1_555
H6 O9 1_555 1_555
O10 H7 1_555 1_555
H8 O10 1_555 1_555
H9 O8 1_555 1_555
H10 O9 1_555 1_555
H11 O7 1_555 1_555
Sr1C O4 1_555 1_555
Sr1B O5 1_555 1_555
O4C Sr1 1_555 1_555
O5B Sr1 1_555 1_555
O6C Sr1 1_555 1_555
C2 O5 1_555 1_555
O6 Sr1C 1_555 1_555
Sr1B O5B 1_555 1_555

#END
