
#######################################################################
#
#                 Cambridge Crystallographic Data Centre
#                                CCDC 
#
#######################################################################
#
# If this CIF has been generated from an entry in the Cambridge 
# Structural Database, then it will include bibliographic, chemical, 
# crystal, experimental, refinement or atomic coordinate data resulting 
# from the CCDC's data processing and validation procedures.
#
#######################################################################

data_SOGXAP
_symmetry_cell_setting           triclinic
_symmetry_space_group_name_H-M   'P 1'
_symmetry_Int_Tables_number      1
_space_group_name_Hall           'P 1'
loop_
_symmetry_equiv_pos_site_id
_symmetry_equiv_pos_as_xyz
1 x,y,z
_cell_length_a                   6.1231(12)
_cell_length_b                   7.4705(15)
_cell_length_c                   13.063(3)
_cell_angle_alpha                88.25(3)
_cell_angle_beta                 81.24(3)
_cell_angle_gamma                89.27(3)
_cell_volume                     590.27
loop_
_atom_site_label
_atom_site_type_symbol
_atom_site_fract_x
_atom_site_fract_y
_atom_site_fract_z
Ce1 Ce -0.88635(3) 2.26406(2) 3.32037(2)
O1 O -0.9318(7) 2.1669(7) 3.1353(3)
O2 O -0.6938(9) 2.3834(7) 3.1414(4)
O3 O -0.7966(9) 2.1325(9) 2.9251(4)
H1 H -0.7899 2.0188 2.9363
O4 O -0.4876(8) 1.9718(6) 3.0572(3)
H2 H -0.5920 1.9329 3.0994
O5 O -0.3007(8) 1.9190(6) 2.8606(4)
O6 O -0.2750(8) 2.2141(6) 2.8207(4)
C1 C -0.7755(11) 2.2622(9) 3.0943(5)
C2 C -0.6628(11) 2.2237(10) 2.9846(5)
H3 H -0.6272 2.3397 2.9494
C3 C -0.4407(10) 2.1245(8) 2.9895(5)
H4 H -0.3431 2.2040 3.0197
C4 C -0.3303(9) 2.0782(8) 2.8811(5)
O7 O -0.5655(7) 2.0449(6) 3.2676(4)
H5 H -0.5504 2.0309 3.2029
H6 H -0.4737 2.1209 3.2849
O8 O -1.2903(7) 2.3113(6) 3.3272(4)
O9 O -1.0336(6) 2.5856(6) 3.3062(4)
H7 H -0.9932 2.6624 3.2557
O10 O -1.6023(6) 2.4707(6) 3.3547(4)
O11 O -1.3223(6) 2.6192(5) 3.5278(3)
H8 H -1.2257 2.5348 3.5121
O12 O -1.0858(9) 2.9769(6) 3.3599(4)
O13 O -1.0043(7) 2.8530(6) 3.5068(3)
C5 C -1.3951(9) 2.4575(8) 3.3388(5)
C6 C -1.2647(8) 2.6296(7) 3.3341(4)
H9 H -1.3092 2.7079 3.2792
Ce2 Ce -1.15221(3) 2.75082(3) 3.68808(2)
C7 C -1.3018(11) 2.7322(8) 3.4364(5)
H10 H -1.4395 2.8012 3.4384
C8 C -1.1163(9) 2.8634(7) 3.4347(4)
O14 O -0.7564(7) 2.7960(6) 3.6947(4)
O15 O -1.0144(7) 3.0656(6) 3.6781(4)
H11 H -1.1080 3.1275 3.7209
O16 O -0.4477(7) 2.9533(6) 3.6531(4)
O17 O -0.7203(6) 3.1179(5) 3.4781(3)
H12 H -0.8047 3.0310 3.4936
O18 O -1.0175(8) 3.3699(6) 3.4969(3)
O19 O -0.9325(8) 3.4717(6) 3.6444(4)
C9 C -0.6533(9) 2.9392(8) 3.6722(4)
C10 C -0.7892(8) 3.1126(7) 3.6685(4)
H13 H -0.7678 3.1858 3.7271
C11 C -0.7251(11) 3.2229(9) 3.5672(5)
H14 H -0.5806 3.2782 3.5667
C12 C -0.9035(9) 3.3682(7) 3.5688(4)
O20 O -1.4674(7) 2.5300(6) 3.7462(4)
H15 H -1.5974 2.5630 3.7451
H16 H -1.4601 2.4162 3.7500
O21 O -1.0915(8) 2.5626(6) 3.8545(3)
H17 H -1.1444 2.4633 3.8371
H18 H -1.1382 2.5664 3.9182
Ce1_2 Ce -1.88635(3) 2.26406(2) 3.32037(2)
Ce1_3 Ce -0.88635(3) 3.26406(2) 3.32037(2)
O5_2 O -1.3007(8) 2.9190(6) 3.8606(4)
O10_2 O -0.6023(6) 2.4707(6) 3.3547(4)
O12_2 O -1.0858(9) 1.9769(6) 3.3599(4)
Ce2_2 Ce -1.15221(3) 3.75082(3) 3.68808(2)
Ce2_3 Ce -0.15221(3) 1.75082(3) 2.68808(2)
Ce2_4 Ce -0.15221(3) 2.75082(3) 3.68808(2)
O16_2 O -1.4477(7) 2.9533(6) 3.6531(4)
O17_2 O -0.7203(6) 2.1179(5) 3.4781(3)
O18_2 O -1.0175(8) 2.3699(6) 3.4969(3)
O19_2 O -0.9325(8) 2.4717(6) 3.6444(4)
O22 O -0.3312(10) 2.6080(8) 3.0495(4)
H19 H -0.3811 2.7118 3.0617
H20 H -0.4353 2.5424 3.0820
O23 O -0.9707(9) 2.7835(6) 3.1322(4)
H21 H -0.9996 2.8971 3.1441
H22 H -1.0846 2.7264 3.1184
O24 O -0.7459(10) 2.7244(11) 3.9371(4)
H23 H -0.7758 2.7319 4.0035
H24 H -0.8577 2.6637 3.9216
loop_
_geom_bond_atom_site_label_1
_geom_bond_atom_site_label_2
_geom_bond_site_symmetry_1
_geom_bond_site_symmetry_2
Ce1 O1 1_555 1_555
O1 C1 1_555 1_555
O2 Ce1 1_555 1_555
O3 H1 1_555 1_555
O4 H2 1_555 1_555
O5 C4 1_555 1_555
O6 C4 1_555 1_555
C1 O2 1_555 1_555
C2 O3 1_555 1_555
H3 C2 1_555 1_555
C3 O4 1_555 1_555
H4 C3 1_555 1_555
C4 C3 1_555 1_555
O7 Ce1 1_555 1_555
H5 O7 1_555 1_555
H6 O7 1_555 1_555
O8 Ce1 1_555 1_555
O9 Ce1 1_555 1_555
H7 O9 1_555 1_555
O10 C5 1_555 1_555
O11 H8 1_555 1_555
O12 C8 1_555 1_555
O13 Ce2 1_555 1_555
C5 O8 1_555 1_555
C6 O9 1_555 1_555
H9 C6 1_555 1_555
Ce2 O11 1_555 1_555
C7 O11 1_555 1_555
H10 C7 1_555 1_555
C8 O13 1_555 1_555
O14 Ce2 1_555 1_555
O15 Ce2 1_555 1_555
H11 O15 1_555 1_555
O16 C9 1_555 1_555
O17 H12 1_555 1_555
O18 C12 1_555 1_555
O19 C12 1_555 1_555
C9 O14 1_555 1_555
C10 O15 1_555 1_555
H13 C10 1_555 1_555
C11 O17 1_555 1_555
H14 C11 1_555 1_555
C12 C11 1_555 1_555
O20 Ce2 1_555 1_555
H15 O20 1_555 1_555
H16 O20 1_555 1_555
O21 Ce2 1_555 1_555
H17 O21 1_555 1_555
H18 O21 1_555 1_555
O22 H19 1_555 1_555
H20 O22 1_555 1_555
O23 H21 1_555 1_555
H22 O23 1_555 1_555
O24 H23 1_555 1_555
H24 O24 1_555 1_555
Ce1_2 O10 1_555 1_555
Ce1_3 O12 1_555 1_555
O5_2 Ce2 1_555 1_555
O10_2 Ce1 1_555 1_555
O12_2 Ce1 1_555 1_555
Ce2_2 O19 1_555 1_555
Ce2_3 O5 1_555 1_555
Ce2_4 O16 1_555 1_555
O16_2 Ce2 1_555 1_555
O17_2 Ce1 1_555 1_555
O18_2 Ce1 1_555 1_555
O19_2 Ce2 1_555 1_555
C1 C2 1_555 1_555
C2 C3 1_555 1_555
C5 C6 1_555 1_555
C6 C7 1_555 1_555
C7 C8 1_555 1_555
O17 Ce1_3 1_555 1_555
O18 Ce1_3 1_555 1_555
C9 C10 1_555 1_555
C10 C11 1_555 1_555

#END
