
#######################################################################
#
#                 Cambridge Crystallographic Data Centre
#                                CCDC 
#
#######################################################################
#
# If this CIF has been generated from an entry in the Cambridge 
# Structural Database, then it will include bibliographic, chemical, 
# crystal, experimental, refinement or atomic coordinate data resulting 
# from the CCDC's data processing and validation procedures.
#
#######################################################################

data_SOGXES
_symmetry_cell_setting           monoclinic
_symmetry_space_group_name_H-M   'P 21/n'
_symmetry_Int_Tables_number      14
_space_group_name_Hall           '-P 2yn'
loop_
_symmetry_equiv_pos_site_id
_symmetry_equiv_pos_as_xyz
1 x,y,z
2 1/2-x,1/2+y,1/2-z
3 -x,-y,-z
4 1/2+x,1/2-y,1/2+z
_cell_length_a                   6.427(6)
_cell_length_b                   11.786(15)
_cell_length_c                   10.615(13)
_cell_angle_alpha                90
_cell_angle_beta                 91.47(10)
_cell_angle_gamma                90
_cell_volume                     803.807
loop_
_atom_site_label
_atom_site_type_symbol
_atom_site_fract_x
_atom_site_fract_y
_atom_site_fract_z
Ba1 Ba 0.05201(3) 0.578552(15) 0.195174(18)
C1 C 0.2336(5) 0.8022(3) 0.4335(3)
C2 C 0.1747(5) 0.7139(3) 0.5326(3)
H1 H 0.2515 0.6436 0.5173
O1 O 0.1883(5) 0.7743(2) 0.3202(2)
O2 O 0.3163(4) 0.8927(2) 0.4654(2)
O3 O 0.2357(5) 0.7575(2) 0.6538(3)
H2 H 0.2410 0.7055 0.7051
O4 O -0.2181(4) 0.7958(2) 0.5370(2)
O5 O -0.1459(4) 0.6124(2) 0.6480(2)
H3 H -0.1998 0.6530 0.7007
O6 O -0.1560(4) 0.6130(3) 0.4123(3)
O7 O -0.2526(5) 0.4111(2) 0.1775(3)
O8 O 0.4767(6) 0.5718(3) 0.2673(5)
P1 P -0.10737(13) 0.68318(7) 0.52530(8)
H4 H -0.380(6) 0.447(6) 0.193(6)
H5 H 0.461(6) 0.536(3) 0.344(2)
H6 H -0.271(10) 0.378(6) 0.098(3)
H7 H 0.60(3) 0.61(2) 0.23(3)
Ba1C Ba 0.55201(3) 0.921448(15) 0.695174(18)
Ba1A Ba 0.44799(3) 1.078552(15) 0.304826(18)
Ba1C_2 Ba -0.44799(3) 0.921448(15) 0.695174(18)
Ba1B Ba -0.05201(3) 0.421448(15) 0.804826(18)
O2C O -0.1837(4) 0.6073(2) -0.0346(2)
O2A O 0.1837(4) 0.3927(2) 0.0346(2)
O3C O -0.2643(5) 0.7425(2) 0.1538(3)
H2C H -0.2590 0.7945 0.2051
O4C O 0.2819(4) 0.7042(2) 0.0370(2)
O5B O 0.1459(4) 0.3876(2) 0.3520(2)
H3B H 0.1998 0.3470 0.2993
loop_
_geom_bond_atom_site_label_1
_geom_bond_atom_site_label_2
_geom_bond_site_symmetry_1
_geom_bond_site_symmetry_2
Ba1 O1 1_555 1_555
C1 C2 1_555 1_555
C2 H1 1_555 1_555
O1 C1 1_555 1_555
O2 C1 1_555 1_555
O3 C2 1_555 1_555
H2 O3 1_555 1_555
O4 P1 1_555 1_555
O5 H3 1_555 1_555
O6 Ba1 1_555 1_555
O7 Ba1 1_555 1_555
O8 Ba1 1_555 1_555
P1 C2 1_555 1_555
H4 O7 1_555 1_555
H5 O8 1_555 1_555
H6 O7 1_555 1_555
H7 O8 1_555 1_555
Ba1C O2 1_555 1_555
Ba1A O2 1_555 1_555
Ba1C_2 O4 1_555 1_555
Ba1B O5 1_555 1_555
O2C Ba1 1_555 1_555
O2A Ba1 1_555 1_555
O3C Ba1 1_555 1_555
H2C O3C 1_555 1_555
O4C Ba1 1_555 1_555
O5B Ba1 1_555 1_555
H3B O5B 1_555 1_555
O3 Ba1C 1_555 1_555
O5 P1 1_555 1_555
O6 P1 1_555 1_555

#END
