
#######################################################################
#
#                 Cambridge Crystallographic Data Centre
#                                CCDC 
#
#######################################################################
#
# If this CIF has been generated from an entry in the Cambridge 
# Structural Database, then it will include bibliographic, chemical, 
# crystal, experimental, refinement or atomic coordinate data resulting 
# from the CCDC's data processing and validation procedures.
#
#######################################################################

data_SOHBIC
_symmetry_cell_setting           triclinic
_symmetry_space_group_name_H-M   'P -1'
_symmetry_Int_Tables_number      2
_space_group_name_Hall           '-P 1'
loop_
_symmetry_equiv_pos_site_id
_symmetry_equiv_pos_as_xyz
1 x,y,z
2 -x,-y,-z
_cell_length_a                   8.2084(4)
_cell_length_b                   10.3939(4)
_cell_length_c                   12.6354(6)
_cell_angle_alpha                71.597(2)
_cell_angle_beta                 77.611(3)
_cell_angle_gamma                86.597(2)
_cell_volume                     999.027
loop_
_atom_site_label
_atom_site_type_symbol
_atom_site_fract_x
_atom_site_fract_y
_atom_site_fract_z
Ag1 Ag 0.89031(3) -0.00587(2) 0.295424(18)
N1 N 1.0911(3) -0.0296(2) 0.39695(18)
O1 O 0.7615(2) 0.22002(18) 0.25742(16)
O2 O 0.6386(2) -0.13436(19) 0.41266(16)
C1 C 1.2934(3) 0.0769(3) 0.0174(2)
C2 C 1.1111(3) 0.1004(3) 0.4183(2)
H1 H 1.1381 0.1737 0.3446
H2 H 1.2051 0.0932 0.4575
C3 C 0.9545(3) 0.1360(2) 0.4905(2)
H3 H 0.9715 0.2235 0.5024
H4 H 0.8616 0.1471 0.4497
C4 C 0.8129(3) 0.3175(3) 0.1745(2)
C5 C 1.2484(3) -0.0076(3) 0.1293(2)
H5 H 1.1790 -0.0847 0.1468
C6 C 1.2298(3) 0.0477(3) -0.0703(2)
C7 C 0.6184(3) -0.2561(3) 0.4313(2)
C8 C 1.2535(3) -0.0678(3) 0.3357(2)
H6 H 1.2454 -0.1626 0.3361
H7 H 1.3411 -0.0640 0.3777
C9 C 1.4087(3) 0.1340(3) 0.1863(2)
H8 H 1.4489 0.1542 0.2444
C10 C 1.3053(3) 0.0214(3) 0.2148(2)
C11 C 0.4693(3) -0.3290(3) 0.5124(3)
H9 H 0.4088 -0.2697 0.5542
H10 H 0.5044 -0.4107 0.5664
H11 H 0.3962 -0.3546 0.4703
C12 C 1.3963(3) 0.1891(3) -0.0107(2)
H12 H 1.4268 0.2459 -0.0874
N2 N 1.1759(3) 0.0273(2) -0.1395(2)
C13 C 1.4536(4) 0.2165(3) 0.0750(2)
H13 H 1.5244 0.2927 0.0572
C14 C 0.7193(4) 0.4484(3) 0.1535(3)
H14 H 0.6090 0.4341 0.2043
H15 H 0.7065 0.4805 0.0740
H16 H 0.7813 0.5163 0.1684
C15 C 0.9688(4) 0.3118(3) 0.0908(3)
H17 H 1.0191 0.2222 0.1148
H18 H 1.0472 0.3815 0.0868
H19 H 0.9427 0.3280 0.0155
C16 C 0.7395(4) -0.3357(3) 0.3726(3)
H20 H 0.8257 -0.2749 0.3162
H21 H 0.6814 -0.3813 0.3341
H22 H 0.7915 -0.4037 0.4286
N1A N 0.9089(3) 0.0296(2) 0.60305(18)
C1A C 0.7066(3) -0.0769(3) 0.9826(2)
C2A C 0.8889(3) -0.1004(3) 0.5817(2)
H1A H 0.8619 -0.1737 0.6554
H2A H 0.7949 -0.0932 0.5425
C3A C 1.0455(3) -0.1360(2) 0.5095(2)
H3A H 1.0285 -0.2235 0.4976
H4A H 1.1384 -0.1471 0.5503
C5A C 0.7516(3) 0.0076(3) 0.8707(2)
H5A H 0.8210 0.0847 0.8532
C6A C 0.7702(3) -0.0477(3) 1.0703(2)
C8A C 0.7465(3) 0.0678(3) 0.6643(2)
H6A H 0.7546 0.1626 0.6639
H7A H 0.6589 0.0640 0.6223
C9A C 0.5913(3) -0.1340(3) 0.8137(2)
H8A H 0.5511 -0.1542 0.7556
C10A C 0.6947(3) -0.0214(3) 0.7852(2)
C12A C 0.6037(3) -0.1891(3) 1.0107(2)
H12A H 0.5732 -0.2459 1.0874
N2A N 0.8241(3) -0.0273(2) 1.1395(2)
C13A C 0.5464(4) -0.2165(3) 0.9250(2)
H13A H 0.4756 -0.2927 0.9428
Ag1A Ag 1.10969(3) 0.00587(2) -0.295424(18)
O1A O 1.2385(2) -0.22002(18) -0.25742(16)
O2A O 1.3614(2) 0.13436(19) -0.41266(16)
C4A C 1.1871(3) -0.3175(3) -0.1745(2)
C7A C 1.3816(3) 0.2561(3) -0.4313(2)
C11A C 1.5307(3) 0.3290(3) -0.5124(3)
H9A H 1.5912 0.2697 -0.5542
H10A H 1.4956 0.4107 -0.5664
H11A H 1.6038 0.3546 -0.4703
C14A C 1.2807(4) -0.4484(3) -0.1535(3)
H14A H 1.3910 -0.4341 -0.2043
H15A H 1.2935 -0.4805 -0.0740
H16A H 1.2187 -0.5163 -0.1684
C15A C 1.0312(4) -0.3118(3) -0.0908(3)
H17A H 0.9809 -0.2222 -0.1148
H18A H 0.9528 -0.3815 -0.0868
H19A H 1.0573 -0.3280 -0.0155
C16A C 1.2605(4) 0.3357(3) -0.3726(3)
H20A H 1.1743 0.2749 -0.3162
H21A H 1.3186 0.3813 -0.3341
H22A H 1.2085 0.4037 -0.4286
Ag1_2 Ag 0.89031(3) -0.00587(2) 1.295424(18)
Ag1A_2 Ag 1.10969(3) 0.00587(2) 0.704576(18)
N1A_2 N 0.9089(3) 0.0296(2) -0.39695(18)
N2A_2 N 0.8241(3) -0.0273(2) 0.1395(2)
P1 P 1.20359(10) -0.45972(8) 0.25911(7)
F1 F 1.3710(2) -0.38224(19) 0.24948(17)
F2 F 1.0370(2) -0.53799(19) 0.27145(19)
F3 F 1.2831(3) -0.59785(19) 0.3220(2)
F4 F 1.2777(3) -0.4841(2) 0.14063(18)
F5 F 1.1323(3) -0.4335(2) 0.37753(18)
F6 F 1.1224(3) -0.32264(19) 0.1961(2)
loop_
_geom_bond_atom_site_label_1
_geom_bond_atom_site_label_2
_geom_bond_site_symmetry_1
_geom_bond_site_symmetry_2
Ag1 N1 1_555 1_555
N1 C2 1_555 1_555
O1 Ag1 1_555 1_555
O2 Ag1 1_555 1_555
C1 C5 1_555 1_555
C2 H1 1_555 1_555
H2 C2 1_555 1_555
C3 C2 1_555 1_555
H3 C3 1_555 1_555
H4 C3 1_555 1_555
C4 O1 1_555 1_555
C5 H5 1_555 1_555
C6 C1 1_555 1_555
C7 O2 1_555 1_555
C8 N1 1_555 1_555
H6 C8 1_555 1_555
H7 C8 1_555 1_555
C9 H8 1_555 1_555
C10 C5 1_555 1_555
C11 C7 1_555 1_555
H9 C11 1_555 1_555
H10 C11 1_555 1_555
H11 C11 1_555 1_555
C12 C1 1_555 1_555
H12 C12 1_555 1_555
N2 C6 1_555 1_555
C13 C9 1_555 1_555
H13 C13 1_555 1_555
C14 C4 1_555 1_555
H14 C14 1_555 1_555
H15 C14 1_555 1_555
H16 C14 1_555 1_555
C15 C4 1_555 1_555
H17 C15 1_555 1_555
H18 C15 1_555 1_555
H19 C15 1_555 1_555
C16 C7 1_555 1_555
H20 C16 1_555 1_555
H21 C16 1_555 1_555
H22 C16 1_555 1_555
P1 F1 1_555 1_555
F2 P1 1_555 1_555
F3 P1 1_555 1_555
F4 P1 1_555 1_555
F5 P1 1_555 1_555
F6 P1 1_555 1_555
N1A C3 1_555 1_555
C1A C5A 1_555 1_555
C2A N1A 1_555 1_555
H1A C2A 1_555 1_555
H2A C2A 1_555 1_555
C3A N1 1_555 1_555
H3A C3A 1_555 1_555
H4A C3A 1_555 1_555
C5A H5A 1_555 1_555
C6A C1A 1_555 1_555
C8A N1A 1_555 1_555
H6A C8A 1_555 1_555
H7A C8A 1_555 1_555
C9A H8A 1_555 1_555
C10A C5A 1_555 1_555
C12A C1A 1_555 1_555
H12A C12A 1_555 1_555
N2A C6A 1_555 1_555
C13A C9A 1_555 1_555
H13A C13A 1_555 1_555
Ag1A N2 1_555 1_555
O1A Ag1A 1_555 1_555
O2A Ag1A 1_555 1_555
C4A O1A 1_555 1_555
C7A O2A 1_555 1_555
C11A C7A 1_555 1_555
H9A C11A 1_555 1_555
H10A C11A 1_555 1_555
H11A C11A 1_555 1_555
C14A C4A 1_555 1_555
H14A C14A 1_555 1_555
H15A C14A 1_555 1_555
H16A C14A 1_555 1_555
C15A C4A 1_555 1_555
H17A C15A 1_555 1_555
H18A C15A 1_555 1_555
H19A C15A 1_555 1_555
C16A C7A 1_555 1_555
H20A C16A 1_555 1_555
H21A C16A 1_555 1_555
H22A C16A 1_555 1_555
Ag1_2 N2A 1_555 1_555
Ag1A_2 N1A 1_555 1_555
N1A_2 Ag1A 1_555 1_555
N2A_2 Ag1 1_555 1_555
C8 C10 1_555 1_555
C9 C10 1_555 1_555
C12 C13 1_555 1_555
C2A C3A 1_555 1_555
C8A C10A 1_555 1_555
C9A C10A 1_555 1_555
C12A C13A 1_555 1_555

#END
