
#######################################################################
#
#                 Cambridge Crystallographic Data Centre
#                                CCDC 
#
#######################################################################
#
# If this CIF has been generated from an entry in the Cambridge 
# Structural Database, then it will include bibliographic, chemical, 
# crystal, experimental, refinement or atomic coordinate data resulting 
# from the CCDC's data processing and validation procedures.
#
#######################################################################

data_SOHBUO
_symmetry_cell_setting           monoclinic
_symmetry_space_group_name_H-M   'C c'
_symmetry_Int_Tables_number      9
_space_group_name_Hall           'C -2yc'
loop_
_symmetry_equiv_pos_site_id
_symmetry_equiv_pos_as_xyz
1 x,y,z
2 x,-y,1/2+z
3 1/2+x,1/2+y,z
4 1/2+x,1/2-y,1/2+z
_cell_length_a                   13.6310(8)
_cell_length_b                   16.7804(8)
_cell_length_c                   10.9261(6)
_cell_angle_alpha                90
_cell_angle_beta                 115.623(2)
_cell_angle_gamma                90
_cell_volume                     2253.4
loop_
_atom_site_label
_atom_site_type_symbol
_atom_site_fract_x
_atom_site_fract_y
_atom_site_fract_z
Ag1 Ag 0.55286(4) 0.557416(10) 0.83075(4)
C1 C 0.6384(5) 0.5538(2) 0.6086(6)
H1 H 0.6755 0.5295 0.5575
H2 H 0.6777 0.6033 0.6516
C2 C 0.4652(4) 0.44459(19) 0.5528(6)
H3 H 0.4259 0.3951 0.5095
H4 H 0.4277 0.4691 0.6033
N1 N 0.6412(3) 0.49775(17) 0.7152(3)
N2 N 0.4633(3) 0.50017(17) 0.4474(3)
C3 C 0.8272(5) 0.4391(2) 0.7695(6)
C4 C 0.2808(4) 0.5616(2) 0.4023(6)
C5 C 0.9499(5) 0.4415(2) 0.6563(7)
H5 H 0.9867 0.4708 0.6145
C6 C 0.2095(4) 0.6866(2) 0.4355(5)
C7 C 0.1646(5) 0.5663(3) 0.5140(7)
H6 H 0.1280 0.5390 0.5583
C8 C 0.5228(4) 0.5735(2) 0.5128(5)
H7 H 0.4864 0.5997 0.5633
H8 H 0.5221 0.6111 0.4425
C9 C 0.3506(3) 0.5176(3) 0.3454(4)
H9 H 0.3143 0.4667 0.3049
H10 H 0.3541 0.5502 0.2719
C10 C 0.5815(4) 0.4245(2) 0.6504(5)
H11 H 0.5815 0.3874 0.7209
H12 H 0.6181 0.3978 0.6007
C11 C 0.9061(4) 0.3182(3) 0.7296(5)
C12 C 0.7549(4) 0.4817(2) 0.8184(4)
H13 H 0.7893 0.5334 0.8575
H14 H 0.7513 0.4501 0.8927
C13 C 0.8391(3) 0.3576(2) 0.7791(4)
H15 H 0.8017 0.3276 0.8195
C14 C 0.2708(3) 0.6451(2) 0.3842(4)
H16 H 0.3057 0.6722 0.3376
C15 C 0.8836(3) 0.4814(3) 0.7061(4)
H17 H 0.8763 0.5377 0.6972
C16 C 0.9176(4) 0.2342(3) 0.7437(4)
C17 C 0.9612(4) 0.3606(3) 0.6682(5)
H18 H 1.0059 0.3335 0.6351
C18 C 0.2249(4) 0.5229(3) 0.4624(5)
H19 H 0.2273 0.4664 0.4688
C19 C 0.1995(4) 0.7727(3) 0.4205(5)
N3 N 0.1908(4) 0.8397(2) 0.4131(5)
N4 N 0.9282(4) 0.1657(2) 0.7567(5)
C20 C 0.1566(4) 0.6479(3) 0.5027(5)
H20 H 0.1160 0.6771 0.5397
Ag1A Ag 0.55286(4) 0.442584(10) 0.33075(4)
Ag1B Ag 1.05286(4) 0.057416(10) 0.83075(4)
Ag1C Ag 0.05286(4) 0.942584(10) 0.33075(4)
N2A N 0.4633(3) 0.49983(17) 0.9474(3)
N3C N 0.6908(4) 0.6603(2) 0.9131(5)
N4B N 0.4282(4) 0.6657(2) 0.7567(5)
S1 S 0.68266(8) 0.23293(5) 1.00726(10)
O1 O 0.6395(2) 0.24845(16) 1.1050(3)
O2 O 0.7019(3) 0.30436(17) 0.9479(3)
O3 O 0.7648(3) 0.17250(18) 1.0472(4)
F1 F 0.5339(3) 0.12266(19) 0.9075(4)
F2 F 0.5903(4) 0.1652(3) 0.7675(4)
F3 F 0.4825(3) 0.2375(2) 0.8189(4)
C21 C 0.5674(4) 0.1895(3) 0.8671(4)
loop_
_geom_bond_atom_site_label_1
_geom_bond_atom_site_label_2
_geom_bond_site_symmetry_1
_geom_bond_site_symmetry_2
Ag1 N1 1_555 1_555
C1 H1 1_555 1_555
H2 C1 1_555 1_555
C2 H3 1_555 1_555
H4 C2 1_555 1_555
N1 C1 1_555 1_555
N2 C2 1_555 1_555
C3 C12 1_555 1_555
C4 C9 1_555 1_555
C5 H5 1_555 1_555
C6 C14 1_555 1_555
C7 H6 1_555 1_555
C8 C1 1_555 1_555
H7 C8 1_555 1_555
H8 C8 1_555 1_555
C9 N2 1_555 1_555
H9 C9 1_555 1_555
H10 C9 1_555 1_555
C10 C2 1_555 1_555
H11 C10 1_555 1_555
H12 C10 1_555 1_555
C11 C13 1_555 1_555
C12 N1 1_555 1_555
H13 C12 1_555 1_555
H14 C12 1_555 1_555
C13 C3 1_555 1_555
H15 C13 1_555 1_555
C14 C4 1_555 1_555
H16 C14 1_555 1_555
C15 C3 1_555 1_555
H17 C15 1_555 1_555
C16 C11 1_555 1_555
C17 C5 1_555 1_555
H18 C17 1_555 1_555
C18 C4 1_555 1_555
H19 C18 1_555 1_555
C19 C6 1_555 1_555
N3 C19 1_555 1_555
N4 C16 1_555 1_555
C20 C6 1_555 1_555
H20 C20 1_555 1_555
S1 O1 1_555 1_555
O2 S1 1_555 1_555
O3 S1 1_555 1_555
F1 C21 1_555 1_555
F2 C21 1_555 1_555
F3 C21 1_555 1_555
C21 S1 1_555 1_555
Ag1A N2 1_555 1_555
Ag1B N4 1_555 1_555
Ag1C N3 1_555 1_555
N2A Ag1 1_555 1_555
N3C Ag1 1_555 1_555
N4B Ag1 1_555 1_555
N1 C10 1_555 1_555
N2 C8 1_555 1_555
C5 C15 1_555 1_555
C7 C18 1_555 1_555
C7 C20 1_555 1_555
C11 C17 1_555 1_555

#END
