
#######################################################################
#
#                 Cambridge Crystallographic Data Centre
#                                CCDC 
#
#######################################################################
#
# If this CIF has been generated from an entry in the Cambridge 
# Structural Database, then it will include bibliographic, chemical, 
# crystal, experimental, refinement or atomic coordinate data resulting 
# from the CCDC's data processing and validation procedures.
#
#######################################################################

data_SOHBAU
_symmetry_cell_setting           triclinic
_symmetry_space_group_name_H-M   'P -1'
_symmetry_Int_Tables_number      2
_space_group_name_Hall           '-P 1'
loop_
_symmetry_equiv_pos_site_id
_symmetry_equiv_pos_as_xyz
1 x,y,z
2 -x,-y,-z
_cell_length_a                   7.9580(16)
_cell_length_b                   9.1570(18)
_cell_length_c                   10.069(2)
_cell_angle_alpha                76.71(3)
_cell_angle_beta                 84.84(3)
_cell_angle_gamma                67.98(3)
_cell_volume                     661.995
loop_
_atom_site_label
_atom_site_type_symbol
_atom_site_fract_x
_atom_site_fract_y
_atom_site_fract_z
Ag1 Ag 0.375798(17) 0.362377(15) 0.114380(13)
S1 S 0.43216(6) 0.71709(5) 0.19342(4)
F1 F 0.3123(2) 0.99502(16) 0.01912(14)
O1 O 0.41237(19) 0.63780(16) 0.08877(14)
F2 F 0.27585(18) 1.01075(15) 0.23161(14)
F3 F 0.10209(16) 0.93158(15) 0.13794(14)
N1 N 0.0691(2) 0.48447(17) 0.13504(14)
C1 C 0.2765(3) 0.3247(2) 0.43301(18)
H1 H 0.3490 0.3863 0.3948
O2 O 0.60300(19) 0.73770(18) 0.18823(15)
C2 C 0.0057(2) 0.6400(2) 0.03373(17)
H2 H 0.0731 0.7073 0.0464
H3 H -0.1246 0.6987 0.0491
O3 O 0.3675(2) 0.66282(18) 0.32626(14)
C3 C 0.0279(2) 0.5213(2) 0.27437(17)
H4 H -0.1051 0.5717 0.2850
H5 H 0.0817 0.6001 0.2832
C4 C 0.0997(2) 0.3734(2) 0.38685(17)
C5 C 0.0339(2) 0.6127(2) -0.11097(17)
H6 H -0.0064 0.7180 -0.1763
H7 H 0.1645 0.5561 -0.1270
C6 C 0.2396(3) 0.0983(2) 0.59155(17)
C7 C 0.3173(3) -0.0461(2) 0.69438(19)
C8 C 0.3476(2) 0.1868(2) 0.53439(18)
H8 H 0.4687 0.1531 0.5645
C9 C 0.2725(3) 0.9244(2) 0.14147(19)
C10 C 0.0600(3) 0.1484(2) 0.54984(18)
H9 H -0.0140 0.0892 0.5906
C11 C -0.0086(2) 0.2862(2) 0.44791(18)
H10 H -0.1307 0.3215 0.4194
N2 N 0.3880(2) -0.1625(2) 0.77234(17)
N1A N -0.0691(2) 0.51553(17) -0.13504(14)
C1A C -0.2765(3) 0.6753(2) -0.43301(18)
H1A H -0.3490 0.6137 -0.3948
C2A C -0.0057(2) 0.3600(2) -0.03373(17)
H2A H -0.0731 0.2927 -0.0464
H3A H 0.1246 0.3013 -0.0491
C3A C -0.0279(2) 0.4787(2) -0.27437(17)
H4A H 0.1051 0.4283 -0.2850
H5A H -0.0817 0.3999 -0.2832
C4A C -0.0997(2) 0.6266(2) -0.38685(17)
C5A C -0.0339(2) 0.3873(2) 0.11097(17)
H6A H 0.0064 0.2820 0.1763
H7A H -0.1645 0.4439 0.1270
C6A C -0.2396(3) 0.9017(2) -0.59155(17)
C7A C -0.3173(3) 1.0461(2) -0.69438(19)
C8A C -0.3476(2) 0.8132(2) -0.53439(18)
H8A H -0.4687 0.8469 -0.5645
C10A C -0.0600(3) 0.8516(2) -0.54984(18)
H9A H 0.0140 0.9108 -0.5906
C11A C 0.0086(2) 0.7138(2) -0.44791(18)
H10A H 0.1307 0.6785 -0.4194
N2A N -0.3880(2) 1.1625(2) -0.77234(17)
Ag1A Ag -0.375798(17) 0.637623(15) -0.114380(13)
S1A S -0.43216(6) 0.28291(5) -0.19342(4)
F1A F -0.3123(2) 0.00498(16) -0.01912(14)
O1A O -0.41237(19) 0.36220(16) -0.08877(14)
F2A F -0.27585(18) -0.01075(15) -0.23161(14)
F3A F -0.10209(16) 0.06842(15) -0.13794(14)
O2A O -0.60300(19) 0.26230(18) -0.18823(15)
O3A O -0.3675(2) 0.33718(18) -0.32626(14)
C9A C -0.2725(3) 0.0756(2) -0.14147(19)
Ag1_2 Ag -0.624202(17) 0.362377(15) 0.114380(13)
Ag1_3 Ag -0.624202(17) 1.362377(15) -0.885620(13)
Ag1A_2 Ag 0.624202(17) -0.362377(15) 0.885620(13)
Ag1A_3 Ag 0.624202(17) 0.637623(15) -0.114380(13)
O1_2 O -0.58763(19) 0.63780(16) 0.08877(14)
O1A_2 O 0.58763(19) 0.36220(16) -0.08877(14)
N2_2 N -0.6120(2) 0.8375(2) -0.22766(17)
N2A_2 N 0.6120(2) 0.1625(2) 0.22766(17)
loop_
_geom_bond_atom_site_label_1
_geom_bond_atom_site_label_2
_geom_bond_site_symmetry_1
_geom_bond_site_symmetry_2
Ag1 O1 1_555 1_555
S1 O1 1_555 1_555
F1 C9 1_555 1_555
O1 Ag1A_3 1_555 1_555
F2 C9 1_555 1_555
F3 C9 1_555 1_555
N1 Ag1 1_555 1_555
C1 H1 1_555 1_555
O2 S1 1_555 1_555
C2 N1 1_555 1_555
H2 C2 1_555 1_555
H3 C2 1_555 1_555
O3 S1 1_555 1_555
C3 N1 1_555 1_555
H4 C3 1_555 1_555
H5 C3 1_555 1_555
C4 C1 1_555 1_555
C5 C2 1_555 1_555
H6 C5 1_555 1_555
H7 C5 1_555 1_555
C6 C7 1_555 1_555
C7 N2 1_555 1_555
C8 C1 1_555 1_555
H8 C8 1_555 1_555
C9 S1 1_555 1_555
C10 C6 1_555 1_555
H9 C10 1_555 1_555
C11 C4 1_555 1_555
H10 C11 1_555 1_555
N2 Ag1A_2 1_555 1_555
N1A C5 1_555 1_555
C1A H1A 1_555 1_555
C2A N1A 1_555 1_555
H2A C2A 1_555 1_555
H3A C2A 1_555 1_555
C3A N1A 1_555 1_555
H4A C3A 1_555 1_555
H5A C3A 1_555 1_555
C4A C1A 1_555 1_555
C5A N1 1_555 1_555
H6A C5A 1_555 1_555
H7A C5A 1_555 1_555
C6A C7A 1_555 1_555
C7A N2A 1_555 1_555
C8A C1A 1_555 1_555
H8A C8A 1_555 1_555
C10A C6A 1_555 1_555
H9A C10A 1_555 1_555
C11A C4A 1_555 1_555
H10A C11A 1_555 1_555
N2A Ag1_3 1_555 1_555
Ag1A N1A 1_555 1_555
S1A O1A 1_555 1_555
F1A C9A 1_555 1_555
O1A Ag1A 1_555 1_555
F2A C9A 1_555 1_555
F3A C9A 1_555 1_555
O2A S1A 1_555 1_555
O3A S1A 1_555 1_555
C9A S1A 1_555 1_555
Ag1_2 O1A 1_555 1_555
Ag1A_3 O1A_2 1_555 1_555
O1_2 Ag1A 1_555 1_555
O1A_2 Ag1 1_555 1_555
N2_2 Ag1A 1_555 1_555
N2A_2 Ag1 1_555 1_555
C3 C4 1_555 1_555
C6 C8 1_555 1_555
C10 C11 1_555 1_555
C2A C5A 1_555 1_555
C3A C4A 1_555 1_555
C6A C8A 1_555 1_555
C10A C11A 1_555 1_555
Ag1_2 O1_2 1_555 1_555

#END
