
#######################################################################
#
#                 Cambridge Crystallographic Data Centre
#                                CCDC 
#
#######################################################################
#
# If this CIF has been generated from an entry in the Cambridge 
# Structural Database, then it will include bibliographic, chemical, 
# crystal, experimental, refinement or atomic coordinate data resulting 
# from the CCDC's data processing and validation procedures.
#
#######################################################################

data_SOHBOI
_symmetry_cell_setting           triclinic
_symmetry_space_group_name_H-M   'P -1'
_symmetry_Int_Tables_number      2
_space_group_name_Hall           '-P 1'
loop_
_symmetry_equiv_pos_site_id
_symmetry_equiv_pos_as_xyz
1 x,y,z
2 -x,-y,-z
_cell_length_a                   8.2890(17)
_cell_length_b                   9.838(2)
_cell_length_c                   11.203(2)
_cell_angle_alpha                102.51(3)
_cell_angle_beta                 102.92(3)
_cell_angle_gamma                93.06(3)
_cell_volume                     864.313
loop_
_atom_site_label
_atom_site_type_symbol
_atom_site_fract_x
_atom_site_fract_y
_atom_site_fract_z
Ag1 Ag 0.21608(2) 0.822667(19) 0.523488(18)
S1 S 0.10975(8) 1.15578(7) 0.74065(6)
F1 F -0.0840(2) 0.9616(2) 0.78585(17)
O1 O -0.0386(3) 1.2223(2) 0.7063(2)
F2 F 0.0290(3) 1.1272(2) 0.94721(18)
F3 F 0.1742(3) 0.9689(2) 0.8757(2)
O2 O 0.2516(3) 1.2473(3) 0.8204(2)
C1 C 0.3465(4) 0.5853(3) 0.2024(3)
H1 H 0.4136 0.6389 0.1670
N1 N 0.4644(3) 0.8485(2) 0.4695(2)
C2 C 0.2199(4) 0.4862(3) 0.1232(3)
H2 H 0.2025 0.4712 0.0344
N2 N -0.0364(3) 0.2910(3) 0.4043(2)
C3 C 0.4379(3) 0.9294(3) 0.3703(2)
H3 H 0.3448 0.8810 0.2991
H4 H 0.5394 0.9356 0.3382
C4 C 0.6017(3) 0.9249(3) 0.5758(2)
H5 H 0.7052 0.9317 0.5463
H6 H 0.6208 0.8721 0.6427
O3 O 0.1438(3) 1.0546(2) 0.6379(2)
C5 C 0.0536(4) 1.0485(3) 0.8426(3)
C6 C 0.3760(3) 0.6070(3) 0.3329(2)
C7 C 0.1195(4) 0.4096(3) 0.1740(3)
H7 H 0.0325 0.3422 0.1205
C8 C 0.1473(3) 0.4324(3) 0.3050(3)
C9 C 0.5172(3) 0.7089(3) 0.4207(3)
H8 H 0.5661 0.6689 0.4928
H9 H 0.6048 0.7213 0.3755
C10 C 0.2754(3) 0.5301(3) 0.3841(2)
H10 H 0.2940 0.5441 0.4730
C11 C 0.0450(3) 0.3538(3) 0.3601(3)
C1A C 0.6535(4) 1.4147(3) 0.7976(3)
H1A H 0.5864 1.3611 0.8330
N1A N 0.5356(3) 1.1515(2) 0.5305(2)
C2A C 0.7801(4) 1.5138(3) 0.8768(3)
H2A H 0.7975 1.5288 0.9656
C3A C 0.5621(3) 1.0706(3) 0.6297(2)
H3A H 0.6552 1.1190 0.7009
H4A H 0.4606 1.0644 0.6618
C4A C 0.3983(3) 1.0751(3) 0.4242(2)
H5A H 0.2948 1.0683 0.4537
H6A H 0.3792 1.1279 0.3573
C6A C 0.6240(3) 1.3930(3) 0.6671(2)
C7A C 0.8805(4) 1.5904(3) 0.8260(3)
H7A H 0.9675 1.6578 0.8795
C8A C 0.8527(3) 1.5676(3) 0.6950(3)
C9A C 0.4828(3) 1.2911(3) 0.5793(3)
H8A H 0.4339 1.3311 0.5072
H9A H 0.3952 1.2787 0.6245
C10A C 0.7246(3) 1.4699(3) 0.6159(2)
H10A H 0.7060 1.4559 0.5270
N2A N 1.0364(3) 1.7090(3) 0.5957(2)
C11A C 0.9550(3) 1.6462(3) 0.6399(3)
Ag1A Ag -0.21608(2) 0.177333(19) 0.476512(18)
S1A S -0.10975(8) -0.15578(7) 0.25935(6)
F1A F 0.0840(2) 0.0384(2) 0.21415(17)
O1A O 0.0386(3) -0.2223(2) 0.2937(2)
F2A F -0.0290(3) -0.1272(2) 0.05279(18)
F3A F -0.1742(3) 0.0311(2) 0.1243(2)
O2A O -0.2516(3) -0.2473(3) 0.1796(2)
O3A O -0.1438(3) -0.0546(2) 0.3621(2)
C5A C -0.0536(4) -0.0485(3) 0.1574(3)
Ag1_2 Ag 0.21608(2) -0.177333(19) 0.523488(18)
Ag1_3 Ag 1.21608(2) 1.822667(19) 0.523488(18)
Ag1A_2 Ag -0.21608(2) 1.177333(19) 0.476512(18)
Ag1A_3 Ag 0.78392(2) 1.177333(19) 0.476512(18)
O1_2 O -0.0386(3) 0.2223(2) 0.7063(2)
O1A_2 O 0.0386(3) 0.7777(2) 0.2937(2)
N1A_2 N -0.4644(3) 0.1515(2) 0.5305(2)
N2A_2 N 0.0364(3) 0.7090(3) 0.5957(2)
O4 O 0.4327(3) 0.6745(2) 0.6927(2)
C12 C 0.4385(4) 0.7040(3) 0.8042(3)
C13 C 0.5447(5) 0.8315(4) 0.8904(3)
H11 H 0.6411 0.8516 0.8575
H12 H 0.5829 0.8145 0.9747
H13 H 0.4792 0.9117 0.8952
C14 C 0.3411(5) 0.6172(4) 0.8640(4)
H14 H 0.2661 0.6748 0.9040
H15 H 0.4178 0.5820 0.9277
H16 H 0.2756 0.5380 0.7994
loop_
_geom_bond_atom_site_label_1
_geom_bond_atom_site_label_2
_geom_bond_site_symmetry_1
_geom_bond_site_symmetry_2
Ag1 N1 1_555 1_555
S1 O1 1_555 1_555
F1 C5 1_555 1_555
O1 Ag1A_2 1_555 1_555
F2 C5 1_555 1_555
F3 C5 1_555 1_555
O2 S1 1_555 1_555
C1 H1 1_555 1_555
N1 C3 1_555 1_555
C2 C1 1_555 1_555
H2 C2 1_555 1_555
N2 C11 1_555 1_555
C3 H3 1_555 1_555
H4 C3 1_555 1_555
C4 N1 1_555 1_555
H5 C4 1_555 1_555
H6 C4 1_555 1_555
O3 Ag1 1_555 1_555
C5 S1 1_555 1_555
C6 C1 1_555 1_555
C7 C2 1_555 1_555
H7 C7 1_555 1_555
C8 C7 1_555 1_555
C9 N1 1_555 1_555
H8 C9 1_555 1_555
H9 C9 1_555 1_555
C10 C6 1_555 1_555
H10 C10 1_555 1_555
C11 C8 1_555 1_555
O4 C12 1_555 1_555
C12 C13 1_555 1_555
C13 H11 1_555 1_555
H12 C13 1_555 1_555
H13 C13 1_555 1_555
C14 C12 1_555 1_555
H14 C14 1_555 1_555
H15 C14 1_555 1_555
H16 C14 1_555 1_555
C1A H1A 1_555 1_555
N1A C3A 1_555 1_555
C2A C1A 1_555 1_555
H2A C2A 1_555 1_555
C3A C4 1_555 1_555
H3A C3A 1_555 1_555
H4A C3A 1_555 1_555
C4A C3 1_555 1_555
H5A C4A 1_555 1_555
H6A C4A 1_555 1_555
C6A C1A 1_555 1_555
C7A C2A 1_555 1_555
H7A C7A 1_555 1_555
C8A C7A 1_555 1_555
C9A N1A 1_555 1_555
H8A C9A 1_555 1_555
H9A C9A 1_555 1_555
C10A C6A 1_555 1_555
H10A C10A 1_555 1_555
N2A C11A 1_555 1_555
C11A C8A 1_555 1_555
Ag1A N2 1_555 1_555
S1A O1A 1_555 1_555
F1A C5A 1_555 1_555
O1A Ag1_2 1_555 1_555
F2A C5A 1_555 1_555
F3A C5A 1_555 1_555
O2A S1A 1_555 1_555
O3A Ag1A 1_555 1_555
C5A S1A 1_555 1_555
Ag1_3 N2A 1_555 1_555
Ag1A_3 N1A 1_555 1_555
O1_2 Ag1A 1_555 1_555
O1A_2 Ag1 1_555 1_555
N1A_2 Ag1A 1_555 1_555
N2A_2 Ag1 1_555 1_555
S1 O3 1_555 1_555
C6 C9 1_555 1_555
C8 C10 1_555 1_555
N1A C4A 1_555 1_555
C6A C9A 1_555 1_555
C8A C10A 1_555 1_555
S1A O3A 1_555 1_555

#END
