
#######################################################################
#
#                 Cambridge Crystallographic Data Centre
#                                CCDC 
#
#######################################################################
#
# If this CIF has been generated from an entry in the Cambridge 
# Structural Database, then it will include bibliographic, chemical, 
# crystal, experimental, refinement or atomic coordinate data resulting 
# from the CCDC's data processing and validation procedures.
#
#######################################################################

data_SOHBEY
_symmetry_cell_setting           monoclinic
_symmetry_space_group_name_H-M   'C 2/c'
_symmetry_Int_Tables_number      15
_space_group_name_Hall           '-C 2yn'
loop_
_symmetry_equiv_pos_site_id
_symmetry_equiv_pos_as_xyz
1 x,y,z
2 -x,y,1/2-z
3 1/2+x,1/2+y,z
4 1/2-x,1/2+y,1/2-z
5 -x,-y,-z
6 x,-y,1/2+z
7 1/2-x,1/2-y,-z
8 1/2+x,1/2-y,1/2+z
_cell_length_a                   25.839(6)
_cell_length_b                   11.480(3)
_cell_length_c                   24.597(8)
_cell_angle_alpha                90
_cell_angle_beta                 113.623(13)
_cell_angle_gamma                90
_cell_volume                     6684.84
loop_
_atom_site_label
_atom_site_type_symbol
_atom_site_fract_x
_atom_site_fract_y
_atom_site_fract_z
S2 S 0.12360(8) 1.07303(13) 0.05992(8)
F4 F 0.02227(19) 1.1571(4) 0.0080(2)
F5 F 0.0695(2) 1.2341(4) 0.0920(2)
F6 F 0.0354(2) 1.0634(4) 0.0865(2)
O5 O 0.1587(2) 1.0511(5) 0.1211(2)
O6 O 0.1029(2) 0.9697(4) 0.0250(3)
O7 O 0.1441(2) 1.1626(4) 0.0326(2)
C25 C 0.0597(3) 1.1345(6) 0.0613(3)
C26 C 0.0082(4) 0.5241(8) 0.3032(4)
C27 C 0.0178(6) 0.5850(12) 0.2516(5)
H27 H 0.030(2) 0.454(4) 0.308(3)
H28 H -0.0292(14) 0.502(6) 0.299(3)
H29 H 0.023(3) 0.573(5) 0.337(2)
O8 O 0.0374(4) 0.6800(9) 0.2459(5)
C26A C -0.0082(4) 0.5241(8) 0.1968(4)
C27A C -0.0178(6) 0.5850(12) 0.2484(5)
H27A H -0.030(2) 0.454(4) 0.192(3)
H28A H 0.0292(14) 0.502(6) 0.201(3)
H29A H -0.023(3) 0.573(5) 0.163(2)
O8A O -0.0374(4) 0.6800(9) 0.2541(5)
Ag1 Ag 0.19025(2) 0.82719(4) 0.11286(2)
Ag2 Ag 0.14657(3) 0.71191(4) 0.32612(2)
S1 S 0.34050(7) 0.88406(14) 0.19028(7)
N1 N 0.1995(2) 0.7787(4) 0.2773(2)
N2 N 0.1313(2) 0.7453(4) 0.1507(2)
N3 N 0.2173(2) 1.1439(5) 0.5390(2)
C1 C 0.1165(3) 0.4973(5) -0.0219(3)
N4 N 0.1417(3) 0.3701(5) -0.0944(2)
O1 O 0.3460(2) 0.8308(4) 0.1404(2)
C2 C 0.2385(3) 1.0149(5) 0.3627(3)
H1 H 0.2393 1.0518 0.3284
C3 C 0.2118(3) 0.6855(5) 0.2419(3)
H2 H 0.2291 0.6179 0.2679
H3 H 0.2390 0.7150 0.2262
C4 C 0.1693(3) 0.8758(5) 0.2369(3)
H4 H 0.1951 0.9128 0.2211
H5 H 0.1588 0.9354 0.2597
C5 C 0.2296(3) 1.0816(5) 0.4050(3)
H6 H 0.2240 1.1633 0.3998
O2 O 0.2843(2) 0.8835(4) 0.1894(2)
C6 C 0.2290(3) 1.0275(5) 0.4551(3)
O3 O 0.1028(4) 0.9169(8) 0.3227(5)
C7 C 0.1581(3) 0.6471(5) 0.1910(3)
H7 H 0.1671 0.5844 0.1685
H8 H 0.1314 0.6153 0.2069
C8 C 0.0788(3) 0.7080(5) 0.1013(3)
H9 H 0.0573 0.7779 0.0810
H10 H 0.0553 0.6640 0.1176
C9 C 0.0894(3) 0.6327(5) 0.0562(3)
C10 C 0.1167(3) 0.8344(5) 0.1858(3)
H11 H 0.0900 0.8008 0.2013
H12 H 0.0980 0.9012 0.1600
F1 F 0.3800(2) 0.8328(4) 0.30281(19)
F2 F 0.4318(2) 0.7724(4) 0.2583(2)
F3 F 0.3543(2) 0.6827(4) 0.2453(2)
O4 O 0.3700(2) 0.9935(4) 0.2098(2)
C11 C 0.2464(3) 0.8951(5) 0.3692(3)
C12 C 0.2219(3) 1.0939(5) 0.5010(3)
C13 C 0.2454(3) 0.8427(5) 0.4193(3)
H13 H 0.2512 0.7610 0.4245
C14 C 0.2362(3) 0.9081(6) 0.4620(3)
H14 H 0.2348 0.8710 0.4960
C15 C 0.1307(3) 0.4262(5) -0.0628(3)
C16 C 0.0923(3) 0.5112(5) 0.0616(3)
H15 H 0.0844 0.4753 0.0922
C17 C 0.1065(3) 0.4417(5) 0.0234(3)
H16 H 0.1094 0.3594 0.0280
C18 C 0.1121(3) 0.6180(5) -0.0294(3)
H17 H 0.1178 0.6540 -0.0613
C19 C 0.0992(3) 0.6838(5) 0.0102(3)
H18 H 0.0970 0.7661 0.0059
C20 C 0.2543(3) 0.8207(5) 0.3224(3)
H19 H 0.2740 0.8668 0.3024
H20 H 0.2783 0.7530 0.3416
C21 C 0.3787(3) 0.7886(6) 0.2527(4)
C22 C 0.0517(4) 0.8706(7) 0.3793(4)
H21 H 0.0227 0.8258 0.3478
H22 H 0.0342 0.9136 0.4019
H23 H 0.0803 0.8174 0.4058
C23 C 0.0782(6) 0.9526(11) 0.3530(6)
C24 C 0.0769(6) 1.0786(10) 0.3678(7)
H24 H 0.0989 1.1237 0.3506
H25 H 0.0933 1.0884 0.4110
H26 H 0.0378 1.1062 0.3514
Ag1E Ag 0.19025(2) 1.17281(4) 0.61286(2)
Ag2C Ag 0.35343(3) 1.21191(4) 0.17388(2)
Ag2E Ag 0.14657(3) 0.28809(4) -0.17388(2)
N3E N 0.2173(2) 0.8561(5) 0.0390(2)
N4E N 0.1417(3) 0.6299(5) 0.4056(2)
O4C O 0.1300(2) 0.4935(4) 0.2902(2)
H30? H 0.0590 0.9287 0.4107
H31? H 0.0785 0.8061 0.3943
H32? H 0.0131 0.8410 0.3668
C28? C 0.0242(12) 1.022(2) 0.2986(12)
H33? H -0.0158 1.0012 0.2848
H34? H 0.0327 1.0447 0.2645
H35? H 0.0323 1.0882 0.3262
C29? C 0.0585(11) 0.925(2) 0.3281(11)
O9? O 0.0803(9) 0.8656(18) 0.3011(9)
loop_
_geom_bond_atom_site_label_1
_geom_bond_atom_site_label_2
_geom_bond_site_symmetry_1
_geom_bond_site_symmetry_2
Ag1 N2 1_555 1_555
Ag2 N1 1_555 1_555
S1 O1 1_555 1_555
N1 C3 1_555 1_555
N2 C7 1_555 1_555
N3 C12 1_555 1_555
C1 C15 1_555 1_555
N4 C15 1_555 1_555
C2 H1 1_555 1_555
C3 H2 1_555 1_555
H3 C3 1_555 1_555
C4 N1 1_555 1_555
H4 C4 1_555 1_555
H5 C4 1_555 1_555
C5 C2 1_555 1_555
H6 C5 1_555 1_555
O2 Ag1 1_555 1_555
C6 C5 1_555 1_555
O3 Ag2 1_555 1_555
C7 C3 1_555 1_555
H7 C7 1_555 1_555
H8 C7 1_555 1_555
C8 N2 1_555 1_555
H9 C8 1_555 1_555
H10 C8 1_555 1_555
C9 C8 1_555 1_555
C10 N2 1_555 1_555
H11 C10 1_555 1_555
H12 C10 1_555 1_555
F1 C21 1_555 1_555
F2 C21 1_555 1_555
F3 C21 1_555 1_555
O4 S1 1_555 1_555
C11 C2 1_555 1_555
C12 C6 1_555 1_555
C13 C11 1_555 1_555
H13 C13 1_555 1_555
C14 C6 1_555 1_555
H14 C14 1_555 1_555
C16 C9 1_555 1_555
H15 C16 1_555 1_555
C17 C1 1_555 1_555
H16 C17 1_555 1_555
C18 C1 1_555 1_555
H17 C18 1_555 1_555
C19 C9 1_555 1_555
H18 C19 1_555 1_555
C20 N1 1_555 1_555
H19 C20 1_555 1_555
H20 C20 1_555 1_555
C21 S1 1_555 1_555
C22 H21 1_555 1_555
H22 C22 1_555 1_555
H23 C22 1_555 1_555
C23 O3 1_555 1_555
C24 C23 1_555 1_555
H24 C24 1_555 1_555
H25 C24 1_555 1_555
H26 C24 1_555 1_555
S2 O5 1_555 1_555
F4 C25 1_555 1_555
F5 C25 1_555 1_555
F6 C25 1_555 1_555
O6 S2 1_555 1_555
O7 S2 1_555 1_555
C25 S2 1_555 1_555
C26 C27 1_555 1_555
C27 O8 1_555 1_555
H27 C26 1_555 1_555
H28 C26 1_555 1_555
H29 C26 1_555 1_555
Ag1E N3 1_555 1_555
Ag2C O4 1_555 1_555
Ag2E N4 1_555 1_555
N3E Ag1 1_555 1_555
N4E Ag2 1_555 1_555
O4C Ag2 1_555 1_555
C26A C27 1_555 1_555
C27A C26 1_555 1_555
H27A C26A 1_555 1_555
H28A C26A 1_555 1_555
H29A C26A 1_555 1_555
O8A C27A 1_555 1_555
S1 O2 1_555 1_555
C4 C10 1_555 1_555
C11 C20 1_555 1_555
C13 C14 1_555 1_555
C16 C17 1_555 1_555
C18 C19 1_555 1_555
C22 C23 1_555 1_555
C27 C27A 1_555 1_555
C26A C27A 1_555 1_555

#END
