
#######################################################################
#
#                 Cambridge Crystallographic Data Centre
#                                CCDC 
#
#######################################################################
#
# If this CIF has been generated from an entry in the Cambridge 
# Structural Database, then it will include bibliographic, chemical, 
# crystal, experimental, refinement or atomic coordinate data resulting 
# from the CCDC's data processing and validation procedures.
#
#######################################################################

data_SOHCOJ
_symmetry_cell_setting           monoclinic
_symmetry_space_group_name_H-M   'P 21/n'
_symmetry_Int_Tables_number      14
_space_group_name_Hall           '-P 2yn'
loop_
_symmetry_equiv_pos_site_id
_symmetry_equiv_pos_as_xyz
1 x,y,z
2 1/2-x,1/2+y,1/2-z
3 -x,-y,-z
4 1/2+x,1/2-y,1/2+z
_cell_length_a                   9.65338(10)
_cell_length_b                   9.69517(11)
_cell_length_c                   13.51274(14)
_cell_angle_alpha                90
_cell_angle_beta                 104.0133(10)
_cell_angle_gamma                90
_cell_volume                     1227.04
loop_
_atom_site_label
_atom_site_type_symbol
_atom_site_fract_x
_atom_site_fract_y
_atom_site_fract_z
Hg1 Hg 0.346356(9) 0.779419(10) 0.487499(7)
Cl1 Cl 0.37292(7) 0.93018(9) 0.62652(5)
N1 N 0.4039(2) 0.2046(2) -0.02805(17)
N2 N 0.39668(19) 0.3948(2) 0.12342(14)
C1 C 0.5229(3) 0.2749(2) 0.01733(18)
C2 C 0.6531(3) 0.2567(3) -0.0088(2)
H1 H 0.7355 0.3067 0.0254
C3 C 0.6593(3) 0.1638(3) -0.0861(2)
H2 H 0.7462 0.1492 -0.1058
C4 C 0.5376(3) 0.0934(4) -0.1335(2)
H3 H 0.5386 0.0300 -0.1869
C5 C 0.4137(3) 0.1168(4) -0.1019(2)
H4 H 0.3304 0.0672 -0.1348
C6 C 0.5138(2) 0.3726(3) 0.09805(18)
H5 H 0.5973 0.4207 0.1325
C7 C 0.3936(2) 0.4811(2) 0.20686(17)
C8 C 0.5050(3) 0.4907(3) 0.2935(2)
H6 H 0.5897 0.4387 0.2977
C9 C 0.4939(3) 0.5758(3) 0.3741(2)
H7 H 0.5718 0.5819 0.4323
C10 C 0.3708(2) 0.6522(3) 0.37105(17)
C11 C 0.2578(2) 0.6379(3) 0.28523(17)
H8 H 0.1720 0.6879 0.2816
C12 C 0.2677(2) 0.5524(2) 0.20489(17)
H9 H 0.1880 0.5423 0.1482
Hg1A Hg 0.153644(9) 0.279419(10) 0.012501(7)
N1A N 0.0961(2) 0.7046(2) 0.52805(17)
N2A N 0.10332(19) 0.8948(2) 0.37658(14)
loop_
_geom_bond_atom_site_label_1
_geom_bond_atom_site_label_2
_geom_bond_site_symmetry_1
_geom_bond_site_symmetry_2
Hg1 Cl1 1_555 1_555
N1 C1 1_555 1_555
N2 C6 1_555 1_555
C1 C2 1_555 1_555
C2 H1 1_555 1_555
C3 C2 1_555 1_555
H2 C3 1_555 1_555
C4 C3 1_555 1_555
H3 C4 1_555 1_555
C5 N1 1_555 1_555
H4 C5 1_555 1_555
C6 C1 1_555 1_555
H5 C6 1_555 1_555
C7 N2 1_555 1_555
C8 C7 1_555 1_555
H6 C8 1_555 1_555
C9 C8 1_555 1_555
H7 C9 1_555 1_555
C10 Hg1 1_555 1_555
C11 C10 1_555 1_555
H8 C11 1_555 1_555
C12 C7 1_555 1_555
H9 C12 1_555 1_555
Hg1A N1 1_555 1_555
N1A Hg1 1_555 1_555
N2A Hg1 1_555 1_555
N2 Hg1A 1_555 1_555
C4 C5 1_555 1_555
C9 C10 1_555 1_555
C11 C12 1_555 1_555

#END
