
#######################################################################
#
#                 Cambridge Crystallographic Data Centre
#                                CCDC 
#
#######################################################################
#
# If this CIF has been generated from an entry in the Cambridge 
# Structural Database, then it will include bibliographic, chemical, 
# crystal, experimental, refinement or atomic coordinate data resulting 
# from the CCDC's data processing and validation procedures.
#
#######################################################################

data_SOHDAW
_symmetry_cell_setting           triclinic
_symmetry_space_group_name_H-M   'P -1'
_symmetry_Int_Tables_number      2
_space_group_name_Hall           '-P 1'
loop_
_symmetry_equiv_pos_site_id
_symmetry_equiv_pos_as_xyz
1 x,y,z
2 -x,-y,-z
_cell_length_a                   6.8631(14)
_cell_length_b                   8.2476(15)
_cell_length_c                   28.547(5)
_cell_angle_alpha                83.025(3)
_cell_angle_beta                 87.571(4)
_cell_angle_gamma                80.861(4)
_cell_volume                     1583.12
loop_
_atom_site_label
_atom_site_type_symbol
_atom_site_fract_x
_atom_site_fract_y
_atom_site_fract_z
Ag1 Ag 0.69289(7) -0.01001(5) 0.031838(13)
Ag2 Ag 0.26813(6) 0.70355(6) 0.258641(14)
Ag3 Ag 0.30538(7) 0.35607(6) 0.239298(14)
Ag4 Ag 0.25339(7) 1.00507(6) 0.486618(15)
O1 O 0.3982(5) 0.2958(4) 0.34404(12)
O2 O 0.2993(6) 0.7197(5) 0.15451(12)
O3 O 0.1806(6) 0.6713(5) 0.05750(13)
C1 C 0.4428(8) 0.3472(7) 0.13192(18)
H1 H 0.3887(8) 0.4585(7) 0.12982(18)
C2 C 0.1903(7) 0.8488(7) 0.16025(17)
O4 O 0.1141(6) 0.8850(5) 0.20058(12)
N1 N 0.1677(7) 1.0650(5) 0.03566(13)
O5 O 0.4664(6) 0.7652(5) 0.04486(13)
N2 N 0.5910(7) 0.1156(5) 0.09287(14)
N3 N 0.4910(9) 0.3678(6) 0.04818(16)
H2 H 0.4385(9) 0.4701(6) 0.04670(16)
H3 H 0.5313(9) 0.3252(6) 0.02277(16)
N4 N 0.4559(7) 0.2595(6) 0.17312(14)
C3 C 0.2906(7) 0.6745(7) 0.37358(17)
H4 H 0.3298(7) 0.5626(7) 0.37112(17)
N5 N 0.2368(6) 0.8932(6) 0.42257(14)
C4 C 0.1397(7) 0.9792(6) 0.11911(16)
C5 C 0.5101(8) 0.2753(7) 0.08980(18)
C6 C 0.7653(8) -0.2344(7) 0.38153(19)
H5 H 0.8058(8) -0.3408(7) 0.37349(19)
C7 C 0.0793(8) 1.2181(7) 0.04288(19)
H6 H 0.0581(8) 1.2990(7) 0.01717(19)
C8 C 0.6219(7) 0.0490(6) 0.36119(17)
C9 C 0.0186(8) 1.2585(7) 0.08765(17)
H7 H -0.0441(8) 1.3644(7) 0.09196(17)
N6 N 0.2275(7) 0.7733(6) 0.33553(15)
C10 C 0.2888(8) 0.7790(6) 0.05859(18)
O6 O 0.5322(6) 0.1631(5) 0.28401(12)
C11 C 0.5399(8) 0.0984(7) 0.17594(18)
H8 H 0.5526(8) 0.0351(7) 0.20523(18)
C12 C 0.0535(8) 1.1386(7) 0.12532(17)
H9 H 0.0185(8) 1.1650(7) 0.15563(17)
C13 C 0.6061(8) 0.0285(7) 0.13620(17)
H10 H 0.6632(8) -0.0822(7) 0.13897(17)
C14 C 0.3007(8) 0.7326(7) 0.41811(18)
C15 C 0.5086(8) 0.1816(7) 0.32727(18)
N7 N 0.3706(8) 0.6301(6) 0.45563(16)
H11 H 0.4103(8) 0.5273(6) 0.45302(16)
H12 H 0.3759(8) 0.6670(6) 0.48238(16)
C16 C 0.1683(8) 0.9899(7) 0.38376(18)
H13 H 0.1222(8) 1.1009(7) 0.38623(18)
C17 C 0.6840(8) -0.1090(7) 0.34823(18)
H14 H 0.6706(8) -0.1299(7) 0.31732(18)
C18 C 0.1967(7) 0.9462(6) 0.07262(17)
C19 C 0.7855(8) -0.1991(7) 0.42701(19)
H15 H 0.8381(8) -0.2838(7) 0.44963(19)
C20 C 0.1623(8) 0.9341(7) 0.34062(17)
H16 H 0.1134(8) 1.0068(7) 0.31480(17)
C21 C 0.6507(8) 0.0764(6) 0.40751(16)
O7 O 0.4764(7) 0.2615(5) 0.45671(14)
N8 N -0.4056(6) 0.5826(6) 0.25170(15)
O8 O 0.7138(6) 0.3481(5) 0.40994(14)
N9 N 0.7315(6) -0.0460(5) 0.43960(14)
N10 N 0.0057(6) 0.4959(6) 0.24939(15)
N11 N -0.0099(8) 0.4019(6) 0.32963(15)
C22 C -0.3087(7) 0.5185(6) 0.29047(17)
C23 C -0.2999(8) 0.5995(7) 0.21063(18)
H17 H -0.3645(8) 0.6384(7) 0.18254(18)
C24 C -0.0987(8) 0.5595(7) 0.21040(18)
H18 H -0.0299(8) 0.5769(7) 0.18193(18)
C25 C 0.6068(8) 0.2449(7) 0.42522(17)
C26 C -0.1005(6) 0.4711(5) 0.29022(13)
H19 H -0.082(9) 0.377(7) 0.352(2)
H20 H 0.112(10) 0.361(8) 0.331(2)
Ag1_2 Ag 0.69289(7) 0.98999(5) 0.031838(13)
Ag1A Ag 0.30711(7) 1.01001(5) -0.031838(13)
Ag2_2 Ag -0.73187(6) 0.70355(6) 0.258641(14)
Ag4A Ag 0.74661(7) -0.00507(6) 0.513382(15)
N1A N 0.8323(7) -0.0650(5) -0.03566(13)
O5_2 O 0.4664(6) -0.2348(5) 0.04486(13)
N8_2 N 0.5944(6) 0.5826(6) 0.25170(15)
N9A N 0.2685(6) 1.0460(5) 0.56040(14)
O9 O 0.8141(7) 0.6756(7) 0.10053(15)
H21 H 0.916(5) 0.689(11) 0.0835(18)
H22 H 0.715(6) 0.686(10) 0.0831(18)
O10 O 0.0437(6) 0.3242(5) 0.46540(13)
H23 H -0.0335(6) 0.3261(5) 0.44276(13)
H24 H 0.1623(6) 0.3041(5) 0.45524(13)
O11 O -0.0628(7) 1.1397(6) 0.24819(17)
H25 H -0.026(9) 1.059(6) 0.232(2)
H26 H -0.186(2) 1.148(9) 0.254(3)
loop_
_geom_bond_atom_site_label_1
_geom_bond_atom_site_label_2
_geom_bond_site_symmetry_1
_geom_bond_site_symmetry_2
Ag1 N2 1_555 1_555
Ag2 Ag3 1_555 1_555
Ag3 N4 1_555 1_555
Ag4 N5 1_555 1_555
O1 C15 1_555 1_555
O2 C2 1_555 1_555
O3 C10 1_555 1_555
C1 H1 1_555 1_555
C2 O4 1_555 1_555
O4 Ag2 1_555 1_555
N1 C7 1_555 1_555
O5 C10 1_555 1_555
N2 C5 1_555 1_555
N3 H2 1_555 1_555
H3 N3 1_555 1_555
N4 C1 1_555 1_555
C3 H4 1_555 1_555
N5 C14 1_555 1_555
C4 C2 1_555 1_555
C5 C1 1_555 1_555
C6 H5 1_555 1_555
C7 H6 1_555 1_555
C8 C15 1_555 1_555
C9 C7 1_555 1_555
H7 C9 1_555 1_555
N6 Ag2 1_555 1_555
C10 C18 1_555 1_555
O6 Ag3 1_555 1_555
C11 N4 1_555 1_555
H8 C11 1_555 1_555
C12 C4 1_555 1_555
H9 C12 1_555 1_555
C13 N2 1_555 1_555
H10 C13 1_555 1_555
C14 C3 1_555 1_555
C15 O6 1_555 1_555
N7 C14 1_555 1_555
H11 N7 1_555 1_555
H12 N7 1_555 1_555
C16 N5 1_555 1_555
H13 C16 1_555 1_555
C17 C6 1_555 1_555
H14 C17 1_555 1_555
C18 N1 1_555 1_555
C19 C6 1_555 1_555
H15 C19 1_555 1_555
C20 N6 1_555 1_555
H16 C20 1_555 1_555
C21 C8 1_555 1_555
O7 C25 1_555 1_555
N8 C22 1_555 1_555
O8 C25 1_555 1_555
N9 C19 1_555 1_555
N10 Ag2 1_555 1_555
N11 C26 1_555 1_555
C22 C26 1_555 1_555
C23 N8 1_555 1_555
H17 C23 1_555 1_555
C24 N10 1_555 1_555
H18 C24 1_555 1_555
C25 C21 1_555 1_555
C26 N10 1_555 1_555
H19 N11 1_555 1_555
H20 N11 1_555 1_555
O9 H21 1_555 1_555
H22 O9 1_555 1_555
O10 H23 1_555 1_555
H24 O10 1_555 1_555
O11 H25 1_555 1_555
H26 O11 1_555 1_555
Ag1_2 O5 1_555 1_555
Ag1A N1 1_555 1_555
Ag2_2 N8 1_555 1_555
Ag4A N9 1_555 1_555
N1A Ag1 1_555 1_555
O5_2 Ag1 1_555 1_555
N8_2 Ag2 1_555 1_555
N9A Ag4 1_555 1_555
Ag3 N10 1_555 1_555
N3 C5 1_555 1_555
C3 N6 1_555 1_555
C4 C18 1_555 1_555
C8 C17 1_555 1_555
C9 C12 1_555 1_555
C11 C13 1_555 1_555
C16 C20 1_555 1_555
C21 N9 1_555 1_555
C23 C24 1_555 1_555

#END
