
#######################################################################
#
#                 Cambridge Crystallographic Data Centre
#                                CCDC 
#
#######################################################################
#
# If this CIF has been generated from an entry in the Cambridge 
# Structural Database, then it will include bibliographic, chemical, 
# crystal, experimental, refinement or atomic coordinate data resulting 
# from the CCDC's data processing and validation procedures.
#
#######################################################################

data_SOHGIH
_symmetry_cell_setting           triclinic
_symmetry_space_group_name_H-M   'P -1'
_symmetry_Int_Tables_number      2
_space_group_name_Hall           '-P 1'
loop_
_symmetry_equiv_pos_site_id
_symmetry_equiv_pos_as_xyz
1 x,y,z
2 -x,-y,-z
_cell_length_a                   6.8438(8)
_cell_length_b                   9.0585(7)
_cell_length_c                   10.4859(16)
_cell_angle_alpha                67.830(11)
_cell_angle_beta                 75.258(12)
_cell_angle_gamma                76.952(9)
_cell_volume                     576.049
loop_
_atom_site_label
_atom_site_type_symbol
_atom_site_fract_x
_atom_site_fract_y
_atom_site_fract_z
Yb1 Yb 0.20899(5) 0.82365(4) 0.50368(3)
Zn1 Zn 0.34120(12) 1.23077(9) 0.32523(8)
O1 O 0.1490(7) 0.9497(6) 0.2780(5)
C1 C 0.0976(10) 1.1389(8) 0.0574(7)
C2 C 0.2367(9) 1.0452(7) -0.0126(7)
H1 H 0.2957 0.9435 0.0378
C3 C 0.0469(10) 1.0800(8) 0.2136(7)
C4 C 0.0069(10) 1.2911(8) -0.0187(7)
H2 H -0.0907 1.3524 0.0279
O2 O -0.0919(7) 1.1615(5) 0.2737(5)
C5 C 0.2033(10) 1.2546(8) -0.2326(7)
H3 H 0.2400 1.2936 -0.3298
C6 C 0.4323(10) 1.0027(8) -0.2373(7)
C7 C 0.2884(9) 1.1026(8) -0.1577(7)
C8 C 0.0623(10) 1.3503(8) -0.1632(7)
C9 C -0.0185(11) 1.5146(8) -0.2494(7)
O3 O -0.1918(7) 1.5771(6) -0.1985(5)
O4 O 0.4999(7) 0.8583(6) -0.1727(5)
O5 O 0.4827(7) 1.0672(6) -0.3690(5)
O6 O 0.0868(8) 1.5818(6) -0.3658(5)
O7 O 0.5294(9) 1.3162(7) 0.3813(7)
O8 O 0.1505(9) 1.1022(7) 0.4764(6)
O9 O 0.3305(9) 0.6427(6) 0.3782(5)
H4 H 0.550(12) 1.352(10) 0.321(8)
H5 H 0.154(13) 1.108(11) 0.524(8)
Yb1_2 Yb 0.20899(5) 1.82365(4) -0.49632(3)
Yb1A Yb -0.20899(5) 1.17635(4) 0.49632(3)
Yb1A_2 Yb 0.79101(5) 1.17635(4) -0.50368(3)
Yb1A_3 Yb 0.79101(5) 1.17635(4) 0.49632(3)
Zn1A Zn -0.34120(12) 1.76923(9) -0.32523(8)
Zn1A_2 Zn 0.65880(12) 0.76923(9) -0.32523(8)
O2A O 0.0919(7) 0.8385(5) 0.7263(5)
O3A O 0.1918(7) 1.4229(6) 0.1985(5)
O4A O 0.5001(7) 1.1417(6) 0.1727(5)
O5A O 0.5173(7) 0.9328(6) 0.3690(5)
O6_2 O 0.0868(8) 0.5818(6) 0.6342(5)
O7A O 0.4706(9) 0.6838(7) 0.6187(7)
O8A O -0.1505(9) 0.8978(7) 0.5236(6)
O10 O -0.4930(14) 1.3814(11) -0.1124(9)
H6 H -0.404(16) 1.409(13) -0.103(11)
H7 H -0.518(15) 1.340(12) -0.055(10)
loop_
_geom_bond_atom_site_label_1
_geom_bond_atom_site_label_2
_geom_bond_site_symmetry_1
_geom_bond_site_symmetry_2
Yb1 O1 1_555 1_555
Zn1 O7 1_555 1_555
O1 C3 1_555 1_555
C1 C2 1_555 1_555
C2 H1 1_555 1_555
C3 C1 1_555 1_555
C4 C1 1_555 1_555
H2 C4 1_555 1_555
O2 C3 1_555 1_555
C5 H3 1_555 1_555
C6 C7 1_555 1_555
C7 C2 1_555 1_555
C8 C4 1_555 1_555
C9 C8 1_555 1_555
O3 C9 1_555 1_555
O4 C6 1_555 1_555
O5 C6 1_555 1_555
O6 C9 1_555 1_555
O7 H4 1_555 1_555
O8 Yb1 1_555 1_555
O9 Yb1 1_555 1_555
H5 O8 1_555 1_555
O10 H6 1_555 1_555
H7 O10 1_555 1_555
Yb1_2 O6 1_555 1_555
Yb1A O2 1_555 1_555
Yb1A_2 O5 1_555 1_555
Yb1A_3 O7 1_555 1_555
Zn1A O3 1_555 1_555
Zn1A_2 O4 1_555 1_555
O2A Yb1 1_555 1_555
O3A Zn1 1_555 1_555
O4A Zn1 1_555 1_555
O5A Yb1 1_555 1_555
O6_2 Yb1 1_555 1_555
O7A Yb1 1_555 1_555
O8A Yb1 1_555 1_555
Zn1 O8 1_555 1_555
C5 C7 1_555 1_555
C5 C8 1_555 1_555
O8 Yb1A 1_555 1_555
Yb1A O8A 1_555 1_555

#END
