
#######################################################################
#
#                 Cambridge Crystallographic Data Centre
#                                CCDC 
#
#######################################################################
#
# If this CIF has been generated from an entry in the Cambridge 
# Structural Database, then it will include bibliographic, chemical, 
# crystal, experimental, refinement or atomic coordinate data resulting 
# from the CCDC's data processing and validation procedures.
#
#######################################################################

data_SOHKEH
_symmetry_cell_setting           monoclinic
_symmetry_space_group_name_H-M   'P 21/c'
_symmetry_Int_Tables_number      14
_space_group_name_Hall           '-P 2ybc'
loop_
_symmetry_equiv_pos_site_id
_symmetry_equiv_pos_as_xyz
1 x,y,z
2 -x,1/2+y,1/2-z
3 -x,-y,-z
4 x,1/2-y,1/2+z
_cell_length_a                   12.88146(18)
_cell_length_b                   9.40234(13)
_cell_length_c                   15.5583(3)
_cell_angle_alpha                90
_cell_angle_beta                 97.8842(14)
_cell_angle_gamma                90
_cell_volume                     1866.54
loop_
_atom_site_label
_atom_site_type_symbol
_atom_site_fract_x
_atom_site_fract_y
_atom_site_fract_z
Hg1 Hg 0.693040(15) 0.61544(2) 0.668847(14)
Hg2 Hg 0.155610(15) 1.03574(2) 0.586222(14)
Cl1 Cl 0.71013(11) 0.76767(15) 0.79520(9)
Cl2 Cl 0.72261(11) 0.73658(16) 0.53359(9)
Cl3 Cl 0.00444(11) 1.17426(16) 0.56778(10)
S1 S 0.98161(12) 0.60440(17) 0.70949(12)
O1 O 0.8814(3) 0.5354(4) 0.7264(3)
N1 N 0.6697(3) 0.3732(5) 0.6503(3)
N2 N 0.5049(3) 0.5649(5) 0.6289(3)
C1 C 0.5722(4) 0.3283(5) 0.6204(3)
C2 C 0.5506(4) 0.1895(6) 0.5999(4)
H1 H 0.4813 0.1613 0.5774
C3 C 0.6310(5) 0.0895(7) 0.6123(5)
H2 H 0.6178 -0.0077 0.5982
C4 C 0.7297(5) 0.1345(6) 0.6455(5)
H3 H 0.7854 0.0678 0.6563
C5 C 0.7480(4) 0.2769(6) 0.6631(4)
H4 H 0.8169 0.3077 0.6845
C6 C 0.4885(4) 0.4347(6) 0.6099(4)
H5 H 0.4193 0.4053 0.5881
C7 C 0.4228(4) 0.6668(5) 0.6181(3)
C8 C 0.3241(4) 0.6415(6) 0.5723(4)
H6 H 0.3073 0.5505 0.5477
C9 C 0.2501(4) 0.7498(6) 0.5628(4)
H7 H 0.1830 0.7318 0.5311
C10 C 0.2716(4) 0.8839(6) 0.5985(4)
C11 C 0.3702(4) 0.9079(6) 0.6430(4)
H8 H 0.3867 0.9989 0.6677
C12 C 0.4460(4) 0.8015(6) 0.6527(4)
H9 H 0.5137 0.8209 0.6829
C13 C 0.9546(5) 0.7863(7) 0.6925(5)
H10 H 0.9257 0.8254 0.7425
H11 H 0.9036 0.7983 0.6401
H12 H 1.0194 0.8367 0.6852
C14 C 0.9925(8) 0.5602(10) 0.6033(6)
H13 H 0.9249 0.5749 0.5671
H14 H 1.0130 0.4601 0.6003
H15 H 1.0457 0.6204 0.5822
Hg2A Hg 0.844390(15) 0.53574(2) 0.913778(14)
O1A O 0.1186(3) 1.0354(4) 0.7736(3)
loop_
_geom_bond_atom_site_label_1
_geom_bond_atom_site_label_2
_geom_bond_site_symmetry_1
_geom_bond_site_symmetry_2
Hg1 Cl1 1_555 1_555
Hg2 Cl3 1_555 1_555
Cl2 Hg1 1_555 1_555
S1 O1 1_555 1_555
O1 Hg1 1_555 1_555
N1 Hg1 1_555 1_555
N2 Hg1 1_555 1_555
C1 N1 1_555 1_555
C2 C1 1_555 1_555
H1 C2 1_555 1_555
C3 C2 1_555 1_555
H2 C3 1_555 1_555
C4 C3 1_555 1_555
H3 C4 1_555 1_555
C5 N1 1_555 1_555
H4 C5 1_555 1_555
C6 N2 1_555 1_555
H5 C6 1_555 1_555
C7 N2 1_555 1_555
C8 C7 1_555 1_555
H6 C8 1_555 1_555
C9 C8 1_555 1_555
H7 C9 1_555 1_555
C10 Hg2 1_555 1_555
C11 C10 1_555 1_555
H8 C11 1_555 1_555
C12 C7 1_555 1_555
H9 C12 1_555 1_555
C13 S1 1_555 1_555
H10 C13 1_555 1_555
H11 C13 1_555 1_555
H12 C13 1_555 1_555
C14 S1 1_555 1_555
H13 C14 1_555 1_555
H14 C14 1_555 1_555
H15 C14 1_555 1_555
Hg2A O1 1_555 1_555
O1A Hg2 1_555 1_555
C1 C6 1_555 1_555
C4 C5 1_555 1_555
C9 C10 1_555 1_555
C11 C12 1_555 1_555

#END
