
#######################################################################
#
#                 Cambridge Crystallographic Data Centre
#                                CCDC 
#
#######################################################################
#
# If this CIF has been generated from an entry in the Cambridge 
# Structural Database, then it will include bibliographic, chemical, 
# crystal, experimental, refinement or atomic coordinate data resulting 
# from the CCDC's data processing and validation procedures.
#
#######################################################################

data_SOHLEI
_symmetry_cell_setting           triclinic
_symmetry_space_group_name_H-M   'P -1'
_symmetry_Int_Tables_number      2
_space_group_name_Hall           '-P 1'
loop_
_symmetry_equiv_pos_site_id
_symmetry_equiv_pos_as_xyz
1 x,y,z
2 -x,-y,-z
_cell_length_a                   5.711(5)
_cell_length_b                   10.367(5)
_cell_length_c                   17.982(5)
_cell_angle_alpha                88.391(5)
_cell_angle_beta                 86.887(5)
_cell_angle_gamma                86.381(5)
_cell_volume                     1060.63
loop_
_atom_site_label
_atom_site_type_symbol
_atom_site_fract_x
_atom_site_fract_y
_atom_site_fract_z
Cd1 Cd 1.5000 1.0000 0.0000
S1 S 1.27868(10) 0.95240(6) -0.12798(3)
N1 N 0.1164(6) -0.1930(3) 0.27073(19)
N2 N -0.5220(5) -0.1154(3) 0.41250(17)
N3 N 1.1400(3) 0.66110(17) 0.08616(10)
N4 N 1.2949(4) 0.59578(19) 0.03940(13)
N5 N 1.3785(3) 0.80168(17) 0.04163(11)
N6 N 0.8426(4) 0.9028(2) -0.05749(13)
C1 C -0.0047(5) -0.1222(3) 0.30304(16)
C2 C -0.3584(5) -0.0799(3) 0.38271(15)
C3 C -0.1520(4) -0.0318(2) 0.34380(14)
C4 C -0.1052(4) 0.0934(2) 0.34631(13)
C5 C -0.2588(4) 0.1839(2) 0.39183(14)
H1 H -0.3339 0.1363 0.4327
H2 H -0.3811 0.2228 0.3615
C6 C -0.1240(4) 0.2895(2) 0.42278(14)
C7 C -0.2968(5) 0.3864(3) 0.46123(19)
H3 H -0.2125 0.4529 0.4820
H4 H -0.3852 0.3433 0.5003
H5 H -0.4019 0.4245 0.4257
C8 C 0.0442(5) 0.2330(3) 0.47849(15)
H6 H -0.0418 0.1900 0.5182
H7 H 0.1268 0.3010 0.4984
H8 H 0.1548 0.1721 0.4544
C9 C 0.0097(5) 0.3562(2) 0.35776(14)
H9 H -0.1019 0.4097 0.3298
H10 H 0.1181 0.4128 0.3779
C10 C 0.1443(4) 0.2661(2) 0.30550(13)
C11 C 0.0903(4) 0.1438(2) 0.30297(14)
H11 H 0.1822 0.0883 0.2720
C12 C 0.3358(4) 0.3127(2) 0.25724(14)
H12 H 0.4245 0.2526 0.2283
C13 C 0.3918(4) 0.4332(2) 0.25177(14)
H13 H 0.2975 0.4920 0.2800
C14 C 0.5863(4) 0.4867(2) 0.20630(13)
C15 C 0.5999(4) 0.6184(2) 0.20445(15)
H14 H 0.4867 0.6698 0.2308
C16 C 0.7800(4) 0.6757(2) 0.16379(14)
H15 H 0.7855 0.7652 0.1622
C17 C 0.9496(4) 0.6008(2) 0.12605(12)
C18 C 0.9394(4) 0.4698(2) 0.12668(14)
H16 H 1.0538 0.4187 0.1005
C19 C 0.7577(4) 0.4140(2) 0.16649(14)
H17 H 0.7504 0.3246 0.1665
C20 C 1.1931(4) 0.7822(2) 0.08685(13)
H18 H 1.1115 0.8457 0.1152
C21 C 1.4323(5) 0.6842(2) 0.01435(15)
H19 H 1.5579 0.6672 -0.0198
C22 C 1.0224(4) 0.9219(2) -0.08642(13)
S1A S 0.72132(10) 1.04760(6) 0.12798(3)
N6A N 1.1574(4) 1.0972(2) 0.05749(13)
C22A C 0.9776(4) 1.0781(2) 0.08642(13)
N1A N 2.8836(6) 2.1930(3) -0.27073(19)
N2A N 3.5220(5) 2.1154(3) -0.41250(17)
N3A N 1.8600(3) 1.33890(17) -0.08616(10)
N4A N 1.7051(4) 1.40422(19) -0.03940(13)
N5A N 1.6215(3) 1.19832(17) -0.04163(11)
C1A C 3.0047(5) 2.1222(3) -0.30304(16)
C2A C 3.3584(5) 2.0799(3) -0.38271(15)
C3A C 3.1520(4) 2.0318(2) -0.34380(14)
C4A C 3.1052(4) 1.9066(2) -0.34631(13)
C5A C 3.2588(4) 1.8161(2) -0.39183(14)
H1A H 3.3339 1.8637 -0.4327
H2A H 3.3811 1.7772 -0.3615
C6A C 3.1240(4) 1.7105(2) -0.42278(14)
C7A C 3.2968(5) 1.6136(3) -0.46123(19)
H3A H 3.2125 1.5471 -0.4820
H4A H 3.3852 1.6567 -0.5003
H5A H 3.4019 1.5755 -0.4257
C8A C 2.9558(5) 1.7670(3) -0.47849(15)
H6A H 3.0418 1.8100 -0.5182
H7A H 2.8732 1.6990 -0.4984
H8A H 2.8452 1.8279 -0.4544
C9A C 2.9903(5) 1.6438(2) -0.35776(14)
H9A H 3.1019 1.5903 -0.3298
H10A H 2.8819 1.5872 -0.3779
C10A C 2.8557(4) 1.7339(2) -0.30550(13)
C11A C 2.9097(4) 1.8562(2) -0.30297(14)
H11A H 2.8178 1.9117 -0.2720
C12A C 2.6642(4) 1.6873(2) -0.25724(14)
H12A H 2.5755 1.7474 -0.2283
C13A C 2.6082(4) 1.5668(2) -0.25177(14)
H13A H 2.7025 1.5080 -0.2800
C14A C 2.4137(4) 1.5133(2) -0.20630(13)
C15A C 2.4001(4) 1.3816(2) -0.20445(15)
H14A H 2.5133 1.3302 -0.2308
C16A C 2.2200(4) 1.3243(2) -0.16379(14)
H15A H 2.2145 1.2348 -0.1622
C17A C 2.0504(4) 1.3992(2) -0.12605(12)
C18A C 2.0606(4) 1.5302(2) -0.12668(14)
H16A H 1.9462 1.5813 -0.1005
C19A C 2.2423(4) 1.5860(2) -0.16649(14)
H17A H 2.2496 1.6754 -0.1665
C20A C 1.8069(4) 1.2178(2) -0.08685(13)
H18A H 1.8885 1.1543 -0.1152
C21A C 1.5677(5) 1.3158(2) -0.01435(15)
H19A H 1.4421 1.3328 0.0198
Cd1_2 Cd 0.5000 1.0000 0.0000
S1A_2 S 1.72132(10) 1.04760(6) 0.12798(3)
N6_2 N 1.8426(4) 0.9028(2) -0.05749(13)
loop_
_geom_bond_atom_site_label_1
_geom_bond_atom_site_label_2
_geom_bond_site_symmetry_1
_geom_bond_site_symmetry_2
Cd1 S1 1_555 1_555
S1 C22 1_555 1_555
N1 C1 1_555 1_555
N2 C2 1_555 1_555
N3 N4 1_555 1_555
N4 C21 1_555 1_555
N5 Cd1 1_555 1_555
N6 C22 1_555 1_555
C1 C3 1_555 1_555
C2 C3 1_555 1_555
C3 C4 1_555 1_555
C4 C5 1_555 1_555
C5 H1 1_555 1_555
H2 C5 1_555 1_555
C6 C5 1_555 1_555
C7 C6 1_555 1_555
H3 C7 1_555 1_555
H4 C7 1_555 1_555
H5 C7 1_555 1_555
C8 C6 1_555 1_555
H6 C8 1_555 1_555
H7 C8 1_555 1_555
H8 C8 1_555 1_555
C9 C6 1_555 1_555
H9 C9 1_555 1_555
H10 C9 1_555 1_555
C10 C9 1_555 1_555
C11 C4 1_555 1_555
H11 C11 1_555 1_555
C12 C10 1_555 1_555
H12 C12 1_555 1_555
C13 C12 1_555 1_555
H13 C13 1_555 1_555
C14 C13 1_555 1_555
C15 C14 1_555 1_555
H14 C15 1_555 1_555
C16 C15 1_555 1_555
H15 C16 1_555 1_555
C17 N3 1_555 1_555
C18 C17 1_555 1_555
H16 C18 1_555 1_555
C19 C14 1_555 1_555
H17 C19 1_555 1_555
C20 N3 1_555 1_555
H18 C20 1_555 1_555
C21 N5 1_555 1_555
H19 C21 1_555 1_555
S1A C22A 1_555 1_555
N6A Cd1 1_555 1_555
C22A N6A 1_555 1_555
N1A C1A 1_555 1_555
N2A C2A 1_555 1_555
N3A N4A 1_555 1_555
N4A C21A 1_555 1_555
N5A Cd1 1_555 1_555
C1A C3A 1_555 1_555
C2A C3A 1_555 1_555
C3A C4A 1_555 1_555
C4A C5A 1_555 1_555
C5A H1A 1_555 1_555
H2A C5A 1_555 1_555
C6A C5A 1_555 1_555
C7A C6A 1_555 1_555
H3A C7A 1_555 1_555
H4A C7A 1_555 1_555
H5A C7A 1_555 1_555
C8A C6A 1_555 1_555
H6A C8A 1_555 1_555
H7A C8A 1_555 1_555
H8A C8A 1_555 1_555
C9A C6A 1_555 1_555
H9A C9A 1_555 1_555
H10A C9A 1_555 1_555
C10A C9A 1_555 1_555
C11A C4A 1_555 1_555
H11A C11A 1_555 1_555
C12A C10A 1_555 1_555
H12A C12A 1_555 1_555
C13A C12A 1_555 1_555
H13A C13A 1_555 1_555
C14A C13A 1_555 1_555
C15A C14A 1_555 1_555
H14A C15A 1_555 1_555
C16A C15A 1_555 1_555
H15A C16A 1_555 1_555
C17A N3A 1_555 1_555
C18A C17A 1_555 1_555
H16A C18A 1_555 1_555
C19A C14A 1_555 1_555
H17A C19A 1_555 1_555
C20A N3A 1_555 1_555
H18A C20A 1_555 1_555
C21A N5A 1_555 1_555
H19A C21A 1_555 1_555
Cd1_2 N6 1_555 1_555
S1A_2 Cd1 1_555 1_555
N6_2 Cd1 1_555 1_555
N5 C20 1_555 1_555
C10 C11 1_555 1_555
C16 C17 1_555 1_555
C18 C19 1_555 1_555
S1A Cd1_2 1_555 1_555
N5A C20A 1_555 1_555
C10A C11A 1_555 1_555
C16A C17A 1_555 1_555
C18A C19A 1_555 1_555

#END
