
#######################################################################
#
#                 Cambridge Crystallographic Data Centre
#                                CCDC 
#
#######################################################################
#
# If this CIF has been generated from an entry in the Cambridge 
# Structural Database, then it will include bibliographic, chemical, 
# crystal, experimental, refinement or atomic coordinate data resulting 
# from the CCDC's data processing and validation procedures.
#
#######################################################################

data_SOHMUY
_symmetry_cell_setting           orthorhombic
_symmetry_space_group_name_H-M   'P 21 21 21'
_symmetry_Int_Tables_number      19
_space_group_name_Hall           'P 2ac 2ab'
loop_
_symmetry_equiv_pos_site_id
_symmetry_equiv_pos_as_xyz
1 x,y,z
2 1/2-x,-y,1/2+z
3 -x,1/2+y,1/2-z
4 1/2+x,1/2-y,-z
_cell_length_a                   13.82960(10)
_cell_length_b                   28.1807(3)
_cell_length_c                   44.3094(5)
_cell_angle_alpha                90
_cell_angle_beta                 90
_cell_angle_gamma                90
_cell_volume                     17268.6
loop_
_atom_site_label
_atom_site_type_symbol
_atom_site_fract_x
_atom_site_fract_y
_atom_site_fract_z
Zn1 Zn 1.42954(13) 0.97244(6) 0.06893(3)
Zn2 Zn 0.62695(12) 0.76865(7) 0.17293(4)
Zn3 Zn 1.38881(13) 0.79533(6) 0.34207(4)
I1 I 1.43361(9) 1.05921(4) 0.08554(2)
I2 I 1.58907(7) 0.92780(4) 0.06297(2)
I3 I 0.56092(9) 0.74971(4) 0.22542(3)
I4 I 0.53421(9) 0.81814(5) 0.13503(4)
I5 I 1.57284(8) 0.79806(4) 0.33842(3)
I6 I 1.30021(9) 0.73275(4) 0.37253(2)
C1 C 1.2358(11) 0.7915(6) 0.2957(3)
H1 H 1.2018 0.7772 0.3113
C2 C 1.1859(11) 0.8036(6) 0.2702(3)
H2 H 1.1192 0.7996 0.2690
C3 C 1.3823(11) 0.8165(5) 0.2756(3)
H3 H 1.4486 0.8209 0.2776
C4 C 1.3371(10) 0.8281(6) 0.2478(3)
H4 H 1.3728 0.8394 0.2315
C5 C 1.2392(10) 0.8222(5) 0.2458(3)
C6 C 1.1894(11) 0.8370(5) 0.2184(3)
C7 C 1.3923(11) 0.9268(6) 0.1272(3)
H5 H 1.4576 0.9336 0.1297
C8 C 1.3426(10) 0.9060(5) 0.1501(3)
H6 H 1.3745 0.8977 0.1678
C9 C 1.2517(11) 0.9288(6) 0.0979(3)
H7 H 1.2205 0.9378 0.0802
C10 C 1.2001(10) 0.9069(5) 0.1207(3)
H8 H 1.1355 0.8989 0.1179
C11 C 1.2452(10) 0.8972(5) 0.1472(3)
C12 C 1.1895(10) 0.8738(5) 0.1728(3)
C13 C 0.8037(11) 0.8217(6) 0.1558(4)
H9 H 0.7709 0.8268 0.1378
C14 C 0.9030(10) 0.8354(5) 0.1593(3)
H10 H 0.9363 0.8484 0.1431
C15 C 0.8043(11) 0.7956(6) 0.2071(3)
H11 H 0.7704 0.7819 0.2230
C16 C 0.8977(13) 0.8096(6) 0.2122(4)
H12 H 0.9266 0.8066 0.2311
C17 C 0.9492(10) 0.8293(5) 0.1864(3)
C18 C 1.0540(10) 0.8409(5) 0.1912(3)
C19 C 1.1520(11) 0.8369(5) -0.1657(3)
H13 H 1.1368 0.8380 -0.1862
C20 C 1.1647(11) 0.8780(5) -0.1499(3)
H14 H 1.1585 0.9067 -0.1601
C21 C 1.1853(12) 0.7943(6) -0.1223(4)
H15 H 1.1922 0.7652 -0.1127
C22 C 1.2005(12) 0.8350(6) -0.1055(3)
H16 H 1.2196 0.8332 -0.0854
C23 C 1.1862(11) 0.8791(5) -0.1197(3)
C24 C 1.2028(9) 0.9232(5) -0.1027(3)
C25 C 1.3544(13) 0.9257(6) 0.0133(4)
H17 H 1.3873 0.8997 0.0210
C26 C 1.3072(14) 0.9214(6) -0.0144(3)
H18 H 1.2977 0.8918 -0.0232
C27 C 1.3185(10) 1.0066(5) 0.0169(3)
H19 H 1.3220 1.0352 0.0272
C28 C 1.2750(10) 1.0048(5) -0.0127(3)
H20 H 1.2473 1.0319 -0.0209
C29 C 1.2744(10) 0.9628(5) -0.0287(3)
C30 C 1.2411(10) 0.9626(5) -0.0602(3)
C31 C 1.1847(12) 1.1349(5) -0.1133(3)
H21 H 1.1989 1.1620 -0.1022
C32 C 1.1976(11) 1.0906(5) -0.1000(3)
H22 H 1.2119 1.0886 -0.0796
C33 C 1.1450(11) 1.0987(6) -0.1585(3)
H23 H 1.1292 1.1009 -0.1788
C34 C 1.1601(11) 1.0544(6) -0.1461(3)
H24 H 1.1504 1.0274 -0.1578
C35 C 1.1894(11) 1.0500(5) -0.1168(3)
C36 C 1.2013(10) 1.0031(5) -0.1017(3)
N1 N 1.3309(9) 0.7989(4) 0.2996(2)
N2 N 1.3491(8) 0.9374(4) 0.1013(2)
N3 N 0.7583(9) 0.8006(4) 0.1802(3)
N4 N 1.2427(8) 0.8601(4) 0.1973(3)
N5 N 1.0956(9) 0.8671(4) 0.1687(3)
N6 N 1.0961(9) 0.8260(4) 0.2160(2)
N7 N 1.1617(9) 0.7942(4) -0.1513(3)
N8 N 1.3535(9) 0.9675(5) 0.0293(3)
N9 N 1.1523(9) 1.1398(5) -0.1420(3)
N10 N 1.2289(8) 0.9192(4) -0.0741(2)
N11 N 1.2269(8) 1.0044(4) -0.0727(3)
N12 N 1.1890(8) 0.9642(5) -0.1175(2)
Zn2C Zn 1.12695(12) 0.73135(7) -0.17293(4)
Zn3A Zn 1.11119(13) 1.20467(6) -0.15793(4)
N7C N 0.6617(9) 0.7058(4) 0.1513(3)
N9A N 1.3477(9) 0.8602(5) 0.3580(3)
Zn4 Zn 0.43883(12) 0.50279(6) 0.93028(3)
Zn5 Zn 0.11259(13) 0.69710(6) 1.16726(4)
Zn6 Zn 0.13287(13) 0.22077(6) 1.15225(4)
I7 I 0.43082(9) 0.59150(4) 0.91858(2)
I8 I 0.60118(8) 0.46212(5) 0.93788(2)
I9 I -0.07285(8) 0.69318(4) 1.17121(3)
I10 I 0.19641(9) 0.76189(4) 1.13738(2)
I11 I 0.04209(9) 0.22856(5) 1.20245(3)
I12 I 0.06059(10) 0.17747(4) 1.10680(3)
C37 C 0.1731(10) 0.6324(6) 1.1189(3)
H25 H 0.1726 0.6608 1.1082
C38 C 0.1939(11) 0.5923(5) 1.1042(3)
H26 H 0.2141 0.5940 1.0842
C39 C 0.1460(11) 0.5919(6) 1.1622(3)
H27 H 0.1290 0.5918 1.1825
C40 C 0.1629(10) 0.5480(5) 1.1478(3)
H28 H 0.1583 0.5198 1.1585
C41 C 0.1860(9) 0.5477(5) 1.1181(3)
C42 C 0.2029(10) 0.5031(5) 1.0999(3)
C43 C 0.1509(11) 0.3265(5) 1.1528(3)
H29 H 0.1287 0.3233 1.1725
C44 C 0.1646(10) 0.3731(5) 1.1404(3)
H30 H 0.1510 0.3998 1.1519
C45 C 0.1982(13) 0.2925(5) 1.1087(4)
H31 H 0.2080 0.2653 1.0972
C46 C 0.2151(12) 0.3362(6) 1.0953(4)
H32 H 0.2378 0.3375 1.0755
C47 C 0.1985(10) 0.3779(5) 1.1110(3)
C48 C 0.2038(11) 0.4251(5) 1.0973(3)
C49 C 0.3568(12) 0.4467(6) 0.9817(3)
H33 H 0.3844 0.4212 0.9715
C50 C 0.3176(13) 0.4400(7) 1.0080(4)
H34 H 0.3159 0.4094 1.0158
C51 C 0.3134(10) 0.5247(5) 0.9838(3)
H35 H 0.3075 0.5544 0.9748
C52 C 0.2753(11) 0.5187(6) 1.0119(3)
H36 H 0.2473 0.5443 1.0218
C53 C 0.2778(10) 0.4769(5) 1.0250(3)
C54 C 0.2430(9) 0.4694(5) 1.0569(3)
C55 C 0.2627(11) 0.4664(7) 0.9005(4)
H37 H 0.2336 0.4851 0.9153
C56 C 0.2046(12) 0.4429(6) 0.8800(3)
H38 H 0.1380 0.4476 0.8796
C57 C 0.4008(12) 0.4337(6) 0.8822(3)
H39 H 0.4669 0.4286 0.8840
C58 C 0.3491(10) 0.4094(6) 0.8604(3)
H40 H 0.3817 0.3913 0.8461
C59 C 0.2500(10) 0.4118(5) 0.8597(3)
C60 C 0.1931(11) 0.3836(5) 0.8358(3)
C61 C 0.3806(12) 0.3264(5) 0.7325(3)
H41 H 0.4460 0.3330 0.7300
C62 C 0.3354(10) 0.3375(6) 0.7594(3)
H42 H 0.3711 0.3505 0.7751
C63 C 0.2350(11) 0.2946(6) 0.7155(3)
H43 H 0.2022 0.2775 0.7008
C64 C 0.1849(11) 0.3077(6) 0.7424(3)
H44 H 0.1195 0.3014 0.7453
C65 C 0.2381(10) 0.3296(5) 0.7630(3)
C66 C 0.1880(12) 0.3468(5) 0.7918(3)
C67 C -0.1987(11) 0.3086(6) 0.8105(3)
H45 H -0.2397 0.2994 0.7949
C68 C -0.1023(10) 0.3226(5) 0.8022(3)
H46 H -0.0796 0.3218 0.7824
C69 C -0.1745(11) 0.3219(5) 0.8602(3)
H47 H -0.1983 0.3213 0.8799
C70 C -0.0822(10) 0.3369(5) 0.8560(3)
H48 H -0.0449 0.3466 0.8723
C71 C -0.0444(9) 0.3378(4) 0.8272(3)
C72 C 0.0533(10) 0.3510(5) 0.8214(3)
N13 N 0.1534(9) 0.6334(4) 1.1480(3)
N14 N 0.1695(10) 0.2874(4) 1.1364(3)
N15 N 0.3580(9) 0.4911(5) 0.9687(3)
N16 N 0.1905(8) 0.4617(4) 1.1142(2)
N17 N 0.2317(9) 0.4267(4) 1.0681(2)
N18 N 0.2281(8) 0.5082(4) 1.0721(2)
N19 N 0.3586(8) 0.4634(5) 0.8999(2)
N20 N 0.3319(9) 0.3066(4) 0.7107(3)
N21 N -0.2341(8) 0.3075(4) 0.8377(2)
N22 N 0.2413(10) 0.3690(5) 0.8119(2)
N23 N 0.0971(8) 0.3351(4) 0.7948(2)
N24 N 0.1009(9) 0.3772(4) 0.8412(3)
Zn5A Zn 0.38741(13) 0.30290(6) 0.66726(4)
Zn6C Zn -0.36713(13) 0.27923(6) 0.84775(4)
N20A N 0.1681(9) 0.6934(4) 1.2107(3)
N21C N 0.2659(8) 0.1925(4) 1.1623(2)
C73 C 0.9360(11) 0.4695(5) 0.1192(3)
C74 C 0.9101(12) 0.4904(5) 0.1464(4)
H49 H 0.8959 0.4710 0.1628
C75 C 0.9045(12) 0.5406(6) 0.1501(3)
C76 C 0.9296(11) 0.5682(6) 0.1250(3)
H50 H 0.9308 0.6011 0.1267
C77 C 0.9519(12) 0.5481(6) 0.0986(4)
H51 H 0.9645 0.5677 0.0822
C78 C 0.9575(11) 0.4983(6) 0.0943(4)
C79 C 0.9822(12) 0.4773(7) 0.0661(4)
C80 C 1.0134(12) 0.5045(8) 0.0399(4)
H52 H 1.0202 0.5371 0.0423
C81 C 1.0340(13) 0.4859(10) 0.0112(5)
H53 H 1.0492 0.5061 -0.0047
C82 C 1.0317(15) 0.4366(10) 0.0065(5)
H54 H 1.0472 0.4228 -0.0119
C83 C 1.0024(16) 0.4081(9) 0.0334(4)
H55 H 0.9993 0.3753 0.0315
C84 C 0.9786(12) 0.4289(8) 0.0625(4)
C85 C 0.9546(11) 0.3975(7) 0.0879(4)
C86 C 0.9530(17) 0.3476(8) 0.0871(4)
H56 H 0.9659 0.3325 0.0689
C87 C 0.9329(15) 0.3198(7) 0.1125(5)
H57 H 0.9303 0.2868 0.1112
C88 C 0.9181(12) 0.3414(6) 0.1378(4)
H58 H 0.9044 0.3229 0.1547
C89 C 0.9210(11) 0.3869(6) 0.1414(4)
H59 H 0.9121 0.3994 0.1606
C90 C 0.9373(12) 0.4186(6) 0.1169(3)
C91 C 0.8591(14) 0.5447(7) 0.2040(4)
C92 C 0.8453(13) 0.5821(7) 0.2293(4)
H60 H 0.8631 0.6133 0.2220
H61 H 0.7781 0.5830 0.2356
C93 C 0.9075(15) 0.5687(10) 0.2551(4)
H62 H 0.9033 0.5936 0.2701
H63 H 0.8812 0.5401 0.2640
C94 C 1.0147(13) 0.5600(6) 0.2482(4)
O1 O 1.0445(9) 0.5643(5) 0.2239(3)
N25 N 0.8813(10) 0.5638(5) 0.1766(3)
H64 H 0.8808 0.5943 0.1757
O2 O 0.8478(9) 0.5028(4) 0.2085(2)
O3 O 1.0711(9) 0.5479(5) 0.2726(2)
C95 C 0.5718(12) 0.0258(6) 0.3774(3)
C96 C 0.5930(10) 0.0002(6) 0.3504(4)
H65 H 0.6020 0.0163 0.3323
C97 C 0.6000(11) -0.0481(6) 0.3512(3)
C98 C 0.5729(11) -0.0713(7) 0.3777(4)
H66 H 0.5721 -0.1043 0.3781
C99 C 0.5471(11) -0.0465(6) 0.4037(4)
H67 H 0.5309 -0.0632 0.4211
C100 C 0.5452(12) -0.0004(7) 0.4040(4)
C101 C 0.5169(11) 0.0261(6) 0.4308(3)
C102 C 0.4887(11) 0.0022(7) 0.4569(3)
H68 H 0.4850 -0.0308 0.4572
C103 C 0.4660(13) 0.0287(8) 0.4825(4)
H69 H 0.4445 0.0128 0.4996
C104 C 0.4739(13) 0.0765(11) 0.4836(4)
H70 H 0.4603 0.0923 0.5015
C105 C 0.5011(12) 0.1017(8) 0.4591(4)
H71 H 0.5070 0.1345 0.4601
C106 C 0.5211(11) 0.0764(7) 0.4309(3)
C107 C 0.5475(11) 0.1034(6) 0.4036(3)
C108 C 0.5538(13) 0.1535(7) 0.4025(4)
H72 H 0.5455 0.1710 0.4201
C109 C 0.5718(14) 0.1762(8) 0.3762(5)
H73 H 0.5714 0.2092 0.3760
C110 C 0.5912(11) 0.1513(7) 0.3490(4)
H74 H 0.6061 0.1672 0.3312
C111 C 0.5872(11) 0.1049(6) 0.3503(3)
H75 H 0.5982 0.0881 0.3325
C112 C 0.5670(11) 0.0782(5) 0.3768(3)
C113 C 0.6645(14) -0.0630(6) 0.2991(4)
C114 C 0.6784(15) -0.1015(7) 0.2784(4)
H76 H 0.6168 -0.1087 0.2690
H77 H 0.6980 -0.1293 0.2898
C115 C 0.7522(17) -0.0928(9) 0.2538(4)
H78 H 0.7443 -0.1164 0.2381
H79 H 0.7413 -0.0618 0.2450
C116 C 0.8537(19) -0.0953(7) 0.2662(4)
O4 O 0.8768(12) -0.1037(6) 0.2900(3)
N26 N 0.6282(11) -0.0756(5) 0.3261(3)
H80 H 0.6209 -0.1056 0.3285
O5 O 0.6857(9) -0.0220(5) 0.2937(3)
O6 O 0.9189(15) -0.0831(6) 0.2438(3)
O7 O 0.9048(13) 0.4318(5) 0.2489(3)
O8 O 0.7484(10) 0.0380(5) 0.2439(3)
C117 C 0.663(2) 0.4569(9) 0.2602(4)
H81 H 0.6695 0.4236 0.2561
H82 H 0.6363 0.4611 0.2800
H83 H 0.7251 0.4718 0.2591
C118 C 0.6022(15) 0.4770(8) 0.2393(4)
C119 C 0.5227(15) 0.5469(7) 0.2240(4)
H84 H 0.4595 0.5322 0.2260
H85 H 0.5430 0.5448 0.2031
C120 C 0.519(2) 0.5994(8) 0.2342(4)
H86 H 0.4745 0.6166 0.2215
H87 H 0.5818 0.6132 0.2327
H88 H 0.4969 0.6010 0.2548
O9 O 0.5595(13) 0.4551(6) 0.2202(4)
O10 O 0.5894(11) 0.5244(5) 0.2428(3)
C121 C 0.4611(12) 0.5323(7) 0.8276(3)
H89 H 0.4441 0.5504 0.8100
H90 H 0.4530 0.5515 0.8453
H91 H 0.4200 0.5049 0.8289
C122 C 0.5645(15) 0.5167(6) 0.8252(4)
C123 C 0.6975(16) 0.4746(8) 0.8532(4)
H92 H 0.7392 0.4963 0.8423
H93 H 0.7170 0.4750 0.8742
C124 C 0.7107(18) 0.4247(8) 0.8406(5)
H94 H 0.7772 0.4153 0.8427
H95 H 0.6930 0.4242 0.8197
H96 H 0.6704 0.4030 0.8516
O11 O 0.6274(9) 0.5256(4) 0.8063(2)
O12 O 0.5906(9) 0.4919(5) 0.8506(3)
loop_
_geom_bond_atom_site_label_1
_geom_bond_atom_site_label_2
_geom_bond_site_symmetry_1
_geom_bond_site_symmetry_2
Zn1 I1 1_555 1_555
Zn2 I3 1_555 1_555
Zn3 I5 1_555 1_555
I2 Zn1 1_555 1_555
I4 Zn2 1_555 1_555
I6 Zn3 1_555 1_555
C1 H1 1_555 1_555
C2 C1 1_555 1_555
H2 C2 1_555 1_555
C3 H3 1_555 1_555
C4 C3 1_555 1_555
H4 C4 1_555 1_555
C5 C2 1_555 1_555
C6 C5 1_555 1_555
C7 H5 1_555 1_555
C8 C7 1_555 1_555
H6 C8 1_555 1_555
C9 H7 1_555 1_555
C10 C9 1_555 1_555
H8 C10 1_555 1_555
C11 C8 1_555 1_555
C12 C11 1_555 1_555
C13 H9 1_555 1_555
C14 C13 1_555 1_555
H10 C14 1_555 1_555
C15 H11 1_555 1_555
C16 C15 1_555 1_555
H12 C16 1_555 1_555
C17 C14 1_555 1_555
C18 C17 1_555 1_555
C19 H13 1_555 1_555
C20 C19 1_555 1_555
H14 C20 1_555 1_555
C21 H15 1_555 1_555
C22 C21 1_555 1_555
H16 C22 1_555 1_555
C23 C20 1_555 1_555
C24 C23 1_555 1_555
C25 H17 1_555 1_555
C26 C25 1_555 1_555
H18 C26 1_555 1_555
C27 H19 1_555 1_555
C28 C27 1_555 1_555
H20 C28 1_555 1_555
C29 C26 1_555 1_555
C30 C29 1_555 1_555
C31 H21 1_555 1_555
C32 C31 1_555 1_555
H22 C32 1_555 1_555
C33 H23 1_555 1_555
C34 C33 1_555 1_555
H24 C34 1_555 1_555
C35 C32 1_555 1_555
C36 C35 1_555 1_555
N1 Zn3 1_555 1_555
N2 Zn1 1_555 1_555
N3 Zn2 1_555 1_555
N4 C6 1_555 1_555
N5 C12 1_555 1_555
N6 C6 1_555 1_555
N7 C19 1_555 1_555
N8 Zn1 1_555 1_555
N9 C31 1_555 1_555
N10 C24 1_555 1_555
N11 C30 1_555 1_555
N12 C24 1_555 1_555
Zn4 I7 1_555 1_555
Zn5 I9 1_555 1_555
Zn6 I11 1_555 1_555
I8 Zn4 1_555 1_555
I10 Zn5 1_555 1_555
I12 Zn6 1_555 1_555
C37 H25 1_555 1_555
C38 C37 1_555 1_555
H26 C38 1_555 1_555
C39 H27 1_555 1_555
C40 C39 1_555 1_555
H28 C40 1_555 1_555
C41 C38 1_555 1_555
C42 C41 1_555 1_555
C43 H29 1_555 1_555
C44 C43 1_555 1_555
H30 C44 1_555 1_555
C45 H31 1_555 1_555
C46 C45 1_555 1_555
H32 C46 1_555 1_555
C47 C44 1_555 1_555
C48 C47 1_555 1_555
C49 H33 1_555 1_555
C50 C49 1_555 1_555
H34 C50 1_555 1_555
C51 H35 1_555 1_555
C52 C51 1_555 1_555
H36 C52 1_555 1_555
C53 C50 1_555 1_555
C54 C53 1_555 1_555
C55 H37 1_555 1_555
C56 C55 1_555 1_555
H38 C56 1_555 1_555
C57 H39 1_555 1_555
C58 C57 1_555 1_555
H40 C58 1_555 1_555
C59 C56 1_555 1_555
C60 C59 1_555 1_555
C61 H41 1_555 1_555
C62 C61 1_555 1_555
H42 C62 1_555 1_555
C63 H43 1_555 1_555
C64 C63 1_555 1_555
H44 C64 1_555 1_555
C65 C62 1_555 1_555
C66 C65 1_555 1_555
C67 H45 1_555 1_555
C68 C67 1_555 1_555
H46 C68 1_555 1_555
C69 H47 1_555 1_555
C70 C69 1_555 1_555
H48 C70 1_555 1_555
C71 C68 1_555 1_555
C72 C71 1_555 1_555
N13 Zn5 1_555 1_555
N14 Zn6 1_555 1_555
N15 Zn4 1_555 1_555
N16 C42 1_555 1_555
N17 C48 1_555 1_555
N18 C42 1_555 1_555
N19 Zn4 1_555 1_555
N20 C61 1_555 1_555
N21 C67 1_555 1_555
N22 C60 1_555 1_555
N23 C66 1_555 1_555
N24 C60 1_555 1_555
C73 C74 1_555 1_555
C74 H49 1_555 1_555
C75 C74 1_555 1_555
C76 C75 1_555 1_555
H50 C76 1_555 1_555
C77 C76 1_555 1_555
H51 C77 1_555 1_555
C78 C73 1_555 1_555
C79 C78 1_555 1_555
C80 C79 1_555 1_555
H52 C80 1_555 1_555
C81 C80 1_555 1_555
H53 C81 1_555 1_555
C82 C81 1_555 1_555
H54 C82 1_555 1_555
C83 C82 1_555 1_555
H55 C83 1_555 1_555
C84 C79 1_555 1_555
C85 C84 1_555 1_555
C86 C85 1_555 1_555
H56 C86 1_555 1_555
C87 C86 1_555 1_555
H57 C87 1_555 1_555
C88 C87 1_555 1_555
H58 C88 1_555 1_555
C89 C88 1_555 1_555
H59 C89 1_555 1_555
C90 C73 1_555 1_555
C91 C92 1_555 1_555
C92 H60 1_555 1_555
H61 C92 1_555 1_555
C93 C92 1_555 1_555
H62 C93 1_555 1_555
H63 C93 1_555 1_555
C94 C93 1_555 1_555
O1 C94 1_555 1_555
N25 C75 1_555 1_555
H64 N25 1_555 1_555
O2 C91 1_555 1_555
O3 C94 1_555 1_555
C95 C96 1_555 1_555
C96 H65 1_555 1_555
C97 C96 1_555 1_555
C98 C97 1_555 1_555
H66 C98 1_555 1_555
C99 C98 1_555 1_555
H67 C99 1_555 1_555
C100 C95 1_555 1_555
C101 C100 1_555 1_555
C102 C101 1_555 1_555
H68 C102 1_555 1_555
C103 C102 1_555 1_555
H69 C103 1_555 1_555
C104 C103 1_555 1_555
H70 C104 1_555 1_555
C105 C104 1_555 1_555
H71 C105 1_555 1_555
C106 C101 1_555 1_555
C107 C106 1_555 1_555
C108 C107 1_555 1_555
H72 C108 1_555 1_555
C109 C108 1_555 1_555
H73 C109 1_555 1_555
C110 C109 1_555 1_555
H74 C110 1_555 1_555
C111 C110 1_555 1_555
H75 C111 1_555 1_555
C112 C95 1_555 1_555
C113 C114 1_555 1_555
C114 H76 1_555 1_555
H77 C114 1_555 1_555
C115 C114 1_555 1_555
H78 C115 1_555 1_555
H79 C115 1_555 1_555
C116 C115 1_555 1_555
O4 C116 1_555 1_555
N26 C97 1_555 1_555
H80 N26 1_555 1_555
O5 C113 1_555 1_555
O6 C116 1_555 1_555
C117 H81 1_555 1_555
H82 C117 1_555 1_555
H83 C117 1_555 1_555
C118 C117 1_555 1_555
C119 H84 1_555 1_555
H85 C119 1_555 1_555
C120 C119 1_555 1_555
H86 C120 1_555 1_555
H87 C120 1_555 1_555
H88 C120 1_555 1_555
O9 C118 1_555 1_555
O10 C118 1_555 1_555
C121 H89 1_555 1_555
H90 C121 1_555 1_555
H91 C121 1_555 1_555
C122 C121 1_555 1_555
C123 H92 1_555 1_555
H93 C123 1_555 1_555
C124 C123 1_555 1_555
H94 C124 1_555 1_555
H95 C124 1_555 1_555
H96 C124 1_555 1_555
O11 C122 1_555 1_555
O12 C122 1_555 1_555
Zn2C N7 1_555 1_555
Zn3A N9 1_555 1_555
N7C Zn2 1_555 1_555
N9A Zn3 1_555 1_555
Zn5A N20 1_555 1_555
Zn6C N21 1_555 1_555
N20A Zn5 1_555 1_555
N21C Zn6 1_555 1_555
C1 N1 1_555 1_555
C3 N1 1_555 1_555
C4 C5 1_555 1_555
C7 N2 1_555 1_555
C9 N2 1_555 1_555
C10 C11 1_555 1_555
C12 N4 1_555 1_555
C13 N3 1_555 1_555
C15 N3 1_555 1_555
C16 C17 1_555 1_555
C18 N5 1_555 1_555
C18 N6 1_555 1_555
C21 N7 1_555 1_555
C22 C23 1_555 1_555
C25 N8 1_555 1_555
C27 N8 1_555 1_555
C28 C29 1_555 1_555
C30 N10 1_555 1_555
C33 N9 1_555 1_555
C34 C35 1_555 1_555
C36 N11 1_555 1_555
C36 N12 1_555 1_555
C37 N13 1_555 1_555
C39 N13 1_555 1_555
C40 C41 1_555 1_555
C43 N14 1_555 1_555
C45 N14 1_555 1_555
C46 C47 1_555 1_555
C48 N16 1_555 1_555
C49 N15 1_555 1_555
C51 N15 1_555 1_555
C52 C53 1_555 1_555
C54 N17 1_555 1_555
C54 N18 1_555 1_555
C55 N19 1_555 1_555
C57 N19 1_555 1_555
C58 C59 1_555 1_555
C63 N20 1_555 1_555
C64 C65 1_555 1_555
C66 N22 1_555 1_555
C69 N21 1_555 1_555
C70 C71 1_555 1_555
C72 N23 1_555 1_555
C72 N24 1_555 1_555
C77 C78 1_555 1_555
C83 C84 1_555 1_555
C85 C90 1_555 1_555
C89 C90 1_555 1_555
C91 N25 1_555 1_555
C99 C100 1_555 1_555
C105 C106 1_555 1_555
C107 C112 1_555 1_555
C111 C112 1_555 1_555
C113 N26 1_555 1_555
C119 O10 1_555 1_555
C123 O12 1_555 1_555

#END
