
#######################################################################
#
#                 Cambridge Crystallographic Data Centre
#                                CCDC 
#
#######################################################################
#
# If this CIF has been generated from an entry in the Cambridge 
# Structural Database, then it will include bibliographic, chemical, 
# crystal, experimental, refinement or atomic coordinate data resulting 
# from the CCDC's data processing and validation procedures.
#
#######################################################################

data_SOHMIM
_symmetry_cell_setting           orthorhombic
_symmetry_space_group_name_H-M   'P b c a'
_symmetry_Int_Tables_number      61
_space_group_name_Hall           '-P 2ac 2ab'
loop_
_symmetry_equiv_pos_site_id
_symmetry_equiv_pos_as_xyz
1 x,y,z
2 1/2-x,-y,1/2+z
3 -x,1/2+y,1/2-z
4 1/2+x,1/2-y,-z
5 -x,-y,-z
6 1/2+x,y,1/2-z
7 x,1/2-y,1/2+z
8 1/2-x,1/2+y,z
_cell_length_a                   27.749(6)
_cell_length_b                   13.817(3)
_cell_length_c                   44.362(10)
_cell_angle_alpha                90
_cell_angle_beta                 90
_cell_angle_gamma                90
_cell_volume                     17008.7
loop_
_atom_site_label
_atom_site_type_symbol
_atom_site_fract_x
_atom_site_fract_y
_atom_site_fract_z
Zn1 Zn -0.02457(3) 0.62223(5) 0.415156(19)
Zn2 Zn -0.04735(3) -0.14359(6) 0.586140(18)
Zn3 Zn -0.23951(3) -0.18171(5) 0.318940(16)
I1 I -0.005648(18) 0.69537(3) 0.466766(12)
I2 I -0.07402(2) 0.71061(4) 0.376086(15)
I3 I -0.054060(19) -0.32693(3) 0.580130(13)
I4 I 0.017480(17) -0.05959(4) 0.616450(12)
I5 I -0.328710(18) -0.18278(4) 0.332530(11)
I6 I -0.195850(19) -0.34248(3) 0.312730(11)
C1 C -0.1979(3) -0.0047(5) 0.34778(15)
H1 H -0.2101 0.0272 0.3304
C2 C -0.1749(3) 0.0500(5) 0.36973(16)
H2 H -0.1711 0.1178 0.3672
C3 C -0.1856(3) -0.1434(5) 0.37445(16)
H3 H -0.1888 -0.2116 0.3762
C4 C -0.1627(3) -0.0942(5) 0.39730(16)
H4 H -0.1506 -0.1279 0.4143
C5 C -0.1577(2) 0.0047(4) 0.39508(14)
C6 C -0.1328(2) 0.0599(4) 0.41899(14)
C7 C -0.0721(3) -0.1325(5) 0.52095(15)
H5 H -0.0770 -0.2003 0.5230
C8 C -0.0850(3) -0.0886(5) 0.49411(15)
H6 H -0.0983 -0.1253 0.4780
C9 C -0.0441(2) 0.0120(5) 0.54031(15)
H7 H -0.0285 0.0466 0.5560
C10 C -0.0567(2) 0.0605(5) 0.51432(15)
H8 H -0.0507 0.1280 0.5124
C11 C -0.0780(2) 0.0101(4) 0.49123(14)
C12 C -0.0939(2) 0.0613(5) 0.46373(14)
C13 C -0.0546(2) 0.4482(5) 0.45058(15)
H9 H -0.0435 0.4855 0.4672
C14 C -0.0696(3) 0.3550(5) 0.45547(15)
H10 H -0.0684 0.3282 0.4752
C15 C -0.0723(2) 0.4352(5) 0.40016(15)
H11 H -0.0736 0.4636 0.3807
C16 C -0.0879(2) 0.3424(5) 0.40340(15)
H12 H -0.0995 0.3072 0.3865
C17 C -0.0866(2) 0.3001(4) 0.43168(15)
C18 C -0.0998(2) 0.1975(4) 0.43631(14)
C19 C 0.0415(2) 0.5707(5) 0.36491(15)
H13 H 0.0120 0.5666 0.3541
C20 C 0.0837(2) 0.5561(5) 0.34939(15)
H14 H 0.0833 0.5419 0.3284
C21 C 0.0819(2) 0.5944(5) 0.40941(15)
H15 H 0.0813 0.6068 0.4305
C22 C 0.1258(2) 0.5812(5) 0.39536(15)
H16 H 0.1549 0.5850 0.4066
C23 C 0.1269(2) 0.5624(4) 0.36487(14)
C24 C 0.1738(2) 0.5500(4) 0.34938(14)
C25 C 0.3462(2) 0.6139(5) 0.40978(15)
H17 H 0.3470 0.6346 0.4302
C26 C 0.3018(2) 0.5976(5) 0.39657(14)
H18 H 0.2728 0.6062 0.4077
C27 C 0.3864(2) 0.5708(5) 0.36666(14)
H19 H 0.4160 0.5595 0.3564
C28 C 0.3442(2) 0.5547(4) 0.35170(15)
H20 H 0.3445 0.5344 0.3313
C29 C 0.3006(2) 0.5685(4) 0.36668(13)
C30 C 0.2544(2) 0.5537(4) 0.35055(13)
C31 C 0.2668(2) 0.4377(4) 0.23343(14)
H21 H 0.2969 0.4409 0.2232
C32 C 0.2636(2) 0.4770(4) 0.26197(14)
H22 H 0.2912 0.5047 0.2713
C33 C 0.1872(2) 0.3960(5) 0.23381(16)
H23 H 0.1604 0.3677 0.2239
C34 C 0.1807(3) 0.4351(5) 0.26192(16)
H24 H 0.1498 0.4345 0.2711
C35 C 0.2202(2) 0.4757(4) 0.27676(14)
C36 C 0.2164(2) 0.5114(4) 0.30782(14)
N1 N -0.20341(19) -0.1007(4) 0.35011(12)
N2 N -0.05321(18) -0.0834(4) 0.54405(12)
N3 N -0.05519(18) 0.4886(4) 0.42286(12)
N4 N -0.11808(19) 0.0097(4) 0.44289(11)
N5 N -0.0833(2) 0.1545(4) 0.46118(12)
N6 N -0.12547(19) 0.1545(4) 0.41471(12)
N7 N 0.0397(2) 0.5903(4) 0.39420(12)
N8 N 0.38761(19) 0.6020(4) 0.39545(12)
N9 N 0.2301(2) 0.3960(4) 0.21977(12)
N10 N 0.21357(18) 0.5665(3) 0.36545(11)
N11 N 0.25783(18) 0.5264(3) 0.32164(11)
N12 N 0.17267(19) 0.5220(3) 0.32039(11)
Zn2C Zn 0.45265(3) 0.64359(6) 0.413860(18)
Zn3B Zn 0.23951(3) 0.31829(5) 0.181060(16)
N8C N -0.11239(19) -0.1020(4) 0.60455(12)
N9B N -0.2301(2) -0.1040(4) 0.28023(12)
C37 C 0.2501(3) 0.2843(5) 0.3338(3)
C38 C 0.2002(4) 0.2809(7) 0.3291(4)
H25 H 0.1880 0.2605 0.3102
C39 C 0.1685(5) 0.3066(7) 0.3516(3)
C40 C 0.1838(4) 0.3299(6) 0.3787(3)
H26 H 0.1606 0.3444 0.3938
C41 C 0.2350(5) 0.3343(6) 0.3868(3)
H27 H 0.2453 0.3519 0.4064
C42 C 0.2685(4) 0.3110(5) 0.3635(3)
C43 C 0.3210(3) 0.3153(5) 0.36821(19)
C44 C 0.3403(4) 0.3373(6) 0.3961(2)
H28 H 0.3193 0.3476 0.4127
C45 C 0.3873(6) 0.3441(7) 0.4000(3)
H29 H 0.3991 0.3601 0.4194
C46 C 0.4194(4) 0.3294(6) 0.3775(3)
H30 H 0.4530 0.3346 0.3813
C47 C 0.4026(4) 0.3063(6) 0.3485(3)
H31 H 0.4248 0.2966 0.3325
C48 C 0.3513(3) 0.2973(5) 0.3431(2)
C49 C 0.3305(4) 0.2712(6) 0.3145(2)
C50 C 0.3631(5) 0.2495(7) 0.2899(3)
H32 H 0.3968 0.2562 0.2930
C51 C 0.3468(7) 0.2197(8) 0.2626(3)
H33 H 0.3682 0.2051 0.2465
C52 C 0.2946(6) 0.2113(7) 0.2592(3)
H34 H 0.2820 0.1908 0.2403
C53 C 0.2637(5) 0.2310(7) 0.2815(3)
H35 H 0.2300 0.2243 0.2784
C54 C 0.2828(4) 0.2636(6) 0.3110(2)
C55 C 0.0887(6) 0.2920(12) 0.3231(4)
C56 C 0.0359(6) 0.2928(12) 0.3259(4)
H36 H 0.0214 0.2817 0.3061
H37 H 0.0254 0.3558 0.3337
H38 H 0.0257 0.2416 0.3398
N13 N 0.1177(5) 0.3057(8) 0.3470(3)
H39 H 0.1015 0.3168 0.3637
O1 O 0.1081(5) 0.2689(15) 0.2977(3)
C57 C 0.8093(4) 0.5417(9) 0.3961(3)
H40 H 0.8258 0.4801 0.3998
H41 H 0.8314 0.5863 0.3858
H42 H 0.7810 0.5304 0.3833
C58 C 0.7949(7) 0.5819(10) 0.4233(3)
O2 O 0.8086(8) 0.5541(11) 0.4488(3)
O3 O 0.7720(4) 0.6731(6) 0.4209(2)
O4 O 0.7165(3) 0.6477(9) 0.4558(3)
C59 C 0.7348(5) 0.7030(10) 0.4394(3)
C60 C 0.7219(5) 0.7992(9) 0.4322(4)
H43 H 0.6958 0.8205 0.4456
H44 H 0.7111 0.8024 0.4112
H45 H 0.7500 0.8415 0.4349
C61 C 0.4486(13) 0.794(2) 0.2056(10)
H46 H 0.4750 0.8346 0.1982
H47 H 0.4370 0.8195 0.2249
H48 H 0.4222 0.7946 0.1909
C62 C 0.4651(11) 0.698(2) 0.2096(6)
O5 O 0.5100(9) 0.670(3) 0.2048(8)
O6 O 0.4330(8) 0.624(2) 0.2201(8)
O7 O 0.4625(16) 0.504(3) 0.1930(9)
C63 C 0.4371(10) 0.528(2) 0.2127(7)
C64 C 0.4110(10) 0.464(3) 0.2305(9)
H49 H 0.4162 0.3976 0.2233
H50 H 0.3766 0.4798 0.2292
H51 H 0.4217 0.4693 0.2514
C65 C 0.7137(6) 0.469(2) 0.5023(7)
H52 H 0.6803 0.4821 0.5083
H53 H 0.7164 0.4732 0.4803
H54 H 0.7350 0.5172 0.5116
C66 C 0.7268(8) 0.377(2) 0.5118(5)
O8 O 0.6997(10) 0.315(2) 0.5259(7)
O9 O 0.7731(7) 0.336(2) 0.5054(4)
O10 O 0.7851(8) 0.3297(17) 0.5514(4)
C67 C 0.8012(7) 0.3053(16) 0.5292(4)
C68 C 0.8438(6) 0.2589(16) 0.5215(4)
H55 H 0.8610 0.2399 0.5398
H56 H 0.8640 0.3029 0.5096
H57 H 0.8365 0.2011 0.5095
C69 C 0.8671(17) 0.409(3) 0.5220(11)
H58 H 0.8461 0.3537 0.5258
H59 H 0.8874 0.4209 0.5398
H60 H 0.8876 0.3963 0.5045
C70 C 0.8391(12) 0.491(3) 0.5165(7)
O11 O 0.7917(11) 0.489(4) 0.5163(15)
O12 O 0.8598(8) 0.585(2) 0.5104(8)
O13 O 0.7871(12) 0.631(3) 0.5205(10)
C71 C 0.8230(9) 0.653(2) 0.5079(7)
C72 C 0.8285(10) 0.733(2) 0.4897(9)
H61 H 0.8014 0.7774 0.4928
H62 H 0.8294 0.7128 0.4685
H63 H 0.8587 0.7661 0.4948
C73? C 0.8507(17) 0.726(7) 0.5353(19)
H64? H 0.8779 0.7154 0.5490
H65? H 0.8488 0.7941 0.5298
H66? H 0.8554 0.6866 0.5170
C74? C 0.8082(15) 0.698(3) 0.5494(11)
O14? O 0.8059(18) 0.641(4) 0.5732(15)
O15? O 0.7612(15) 0.726(3) 0.5379(11)
O16? O 0.7556(11) 0.572(3) 0.5362(11)
C75? C 0.7336(13) 0.644(4) 0.5323(7)
C76? C 0.6862(14) 0.659(5) 0.5240(12)
H67? H 0.6769 0.6115 0.5087
H68? H 0.6829 0.7246 0.5156
H69? H 0.6653 0.6525 0.5416
loop_
_geom_bond_atom_site_label_1
_geom_bond_atom_site_label_2
_geom_bond_site_symmetry_1
_geom_bond_site_symmetry_2
Zn1 I1 1_555 1_555
Zn2 I3 1_555 1_555
Zn3 I5 1_555 1_555
I2 Zn1 1_555 1_555
I4 Zn2 1_555 1_555
I6 Zn3 1_555 1_555
C1 H1 1_555 1_555
C2 C1 1_555 1_555
H2 C2 1_555 1_555
C3 H3 1_555 1_555
C4 C3 1_555 1_555
H4 C4 1_555 1_555
C5 C2 1_555 1_555
C6 C5 1_555 1_555
C7 H5 1_555 1_555
C8 C7 1_555 1_555
H6 C8 1_555 1_555
C9 H7 1_555 1_555
C10 C9 1_555 1_555
H8 C10 1_555 1_555
C11 C8 1_555 1_555
C12 C11 1_555 1_555
C13 H9 1_555 1_555
C14 C13 1_555 1_555
H10 C14 1_555 1_555
C15 H11 1_555 1_555
C16 C15 1_555 1_555
H12 C16 1_555 1_555
C17 C14 1_555 1_555
C18 C17 1_555 1_555
C19 H13 1_555 1_555
C20 C19 1_555 1_555
H14 C20 1_555 1_555
C21 H15 1_555 1_555
C22 C21 1_555 1_555
H16 C22 1_555 1_555
C23 C20 1_555 1_555
C24 C23 1_555 1_555
C25 H17 1_555 1_555
C26 C25 1_555 1_555
H18 C26 1_555 1_555
C27 H19 1_555 1_555
C28 C27 1_555 1_555
H20 C28 1_555 1_555
C29 C26 1_555 1_555
C30 C29 1_555 1_555
C31 H21 1_555 1_555
C32 C31 1_555 1_555
H22 C32 1_555 1_555
C33 H23 1_555 1_555
C34 C33 1_555 1_555
H24 C34 1_555 1_555
C35 C32 1_555 1_555
C36 C35 1_555 1_555
N1 Zn3 1_555 1_555
N2 Zn2 1_555 1_555
N3 Zn1 1_555 1_555
N4 C6 1_555 1_555
N5 C12 1_555 1_555
N6 C6 1_555 1_555
N7 Zn1 1_555 1_555
N8 C25 1_555 1_555
N9 C31 1_555 1_555
N10 C24 1_555 1_555
N11 C30 1_555 1_555
N12 C24 1_555 1_555
C37 C38 1_555 1_555
C38 H25 1_555 1_555
C39 C38 1_555 1_555
C40 C39 1_555 1_555
H26 C40 1_555 1_555
C41 C40 1_555 1_555
H27 C41 1_555 1_555
C42 C37 1_555 1_555
C43 C42 1_555 1_555
C44 C43 1_555 1_555
H28 C44 1_555 1_555
C45 C44 1_555 1_555
H29 C45 1_555 1_555
C46 C45 1_555 1_555
H30 C46 1_555 1_555
C47 C46 1_555 1_555
H31 C47 1_555 1_555
C48 C43 1_555 1_555
C49 C48 1_555 1_555
C50 C49 1_555 1_555
H32 C50 1_555 1_555
C51 C50 1_555 1_555
H33 C51 1_555 1_555
C52 C51 1_555 1_555
H34 C52 1_555 1_555
C53 C52 1_555 1_555
H35 C53 1_555 1_555
C54 C37 1_555 1_555
C55 C56 1_555 1_555
C56 H36 1_555 1_555
H37 C56 1_555 1_555
H38 C56 1_555 1_555
N13 C39 1_555 1_555
H39 N13 1_555 1_555
O1 C55 1_555 1_555
C57 H40 1_555 1_555
H41 C57 1_555 1_555
H42 C57 1_555 1_555
C58 C57 1_555 1_555
O2 C58 1_555 1_555
O3 C58 1_555 1_555
O4 C59 1_555 1_555
C59 O3 1_555 1_555
C60 C59 1_555 1_555
H43 C60 1_555 1_555
H44 C60 1_555 1_555
H45 C60 1_555 1_555
C61 H46 1_555 1_555
H47 C61 1_555 1_555
H48 C61 1_555 1_555
C62 C61 1_555 1_555
O5 C62 1_555 1_555
O6 C62 1_555 1_555
O7 C63 1_555 1_555
C63 O6 1_555 1_555
C64 C63 1_555 1_555
H49 C64 1_555 1_555
H50 C64 1_555 1_555
H51 C64 1_555 1_555
C65 H52 1_555 1_555
H53 C65 1_555 1_555
H54 C65 1_555 1_555
C66 C65 1_555 1_555
O8 C66 1_555 1_555
O9 C66 1_555 1_555
O10 C67 1_555 1_555
C67 O9 1_555 1_555
C68 C67 1_555 1_555
H55 C68 1_555 1_555
H56 C68 1_555 1_555
H57 C68 1_555 1_555
C69 H58 1_555 1_555
H59 C69 1_555 1_555
H60 C69 1_555 1_555
C70 C69 1_555 1_555
O11 C70 1_555 1_555
O12 C70 1_555 1_555
O13 C71 1_555 1_555
C71 O12 1_555 1_555
C72 C71 1_555 1_555
H61 C72 1_555 1_555
H62 C72 1_555 1_555
H63 C72 1_555 1_555
Zn2C N8 1_555 1_555
Zn3B N9 1_555 1_555
N8C Zn2 1_555 1_555
N9B Zn3 1_555 1_555
C1 N1 1_555 1_555
C3 N1 1_555 1_555
C4 C5 1_555 1_555
C7 N2 1_555 1_555
C9 N2 1_555 1_555
C10 C11 1_555 1_555
C12 N4 1_555 1_555
C13 N3 1_555 1_555
C15 N3 1_555 1_555
C16 C17 1_555 1_555
C18 N5 1_555 1_555
C18 N6 1_555 1_555
C19 N7 1_555 1_555
C21 N7 1_555 1_555
C22 C23 1_555 1_555
C27 N8 1_555 1_555
C28 C29 1_555 1_555
C30 N10 1_555 1_555
C33 N9 1_555 1_555
C34 C35 1_555 1_555
C36 N11 1_555 1_555
C36 N12 1_555 1_555
C41 C42 1_555 1_555
C47 C48 1_555 1_555
C49 C54 1_555 1_555
C53 C54 1_555 1_555
C55 N13 1_555 1_555

#END
