
#######################################################################
#
#                 Cambridge Crystallographic Data Centre
#                                CCDC 
#
#######################################################################
#
# If this CIF has been generated from an entry in the Cambridge 
# Structural Database, then it will include bibliographic, chemical, 
# crystal, experimental, refinement or atomic coordinate data resulting 
# from the CCDC's data processing and validation procedures.
#
#######################################################################

data_SOHMOS
_symmetry_cell_setting           orthorhombic
_symmetry_space_group_name_H-M   'P b c a'
_symmetry_Int_Tables_number      61
_space_group_name_Hall           '-P 2ac 2ab'
loop_
_symmetry_equiv_pos_site_id
_symmetry_equiv_pos_as_xyz
1 x,y,z
2 1/2-x,-y,1/2+z
3 -x,1/2+y,1/2-z
4 1/2+x,1/2-y,-z
5 -x,-y,-z
6 1/2+x,y,1/2-z
7 x,1/2-y,1/2+z
8 1/2-x,1/2+y,z
_cell_length_a                   28.012(4)
_cell_length_b                   13.7873(19)
_cell_length_c                   45.388(6)
_cell_angle_alpha                90
_cell_angle_beta                 90
_cell_angle_gamma                90
_cell_volume                     17529.3
loop_
_atom_site_label
_atom_site_type_symbol
_atom_site_fract_x
_atom_site_fract_y
_atom_site_fract_z
Zn1 Zn 0.75855(4) 1.14902(7) 0.31193(2)
Zn2 Zn 0.94373(4) 1.15501(7) 0.57251(2)
Zn3 Zn 0.97287(4) 0.35557(7) 0.41418(2)
I1 I 1.00974(2) 1.07314(5) 0.601150(14)
I2 I 0.99062(2) 0.28193(5) 0.464520(16)
I3 I 0.80195(3) 1.31041(4) 0.305704(14)
I4 I 0.93805(3) 1.33633(5) 0.561410(18)
I5 I 0.92404(3) 0.27347(5) 0.374540(19)
I6 I 0.67112(3) 1.14545(6) 0.326229(17)
C1 C 0.9234(3) 0.5382(6) 0.39882(18)
H1 H 0.9206 0.5065 0.3803
C2 C 0.9061(3) 0.6313(6) 0.40168(19)
H2 H 0.8918 0.6631 0.3854
C3 C 0.9463(3) 0.5357(6) 0.44718(18)
H3 H 0.9595 0.5015 0.4634
C4 C 0.9305(3) 0.6296(6) 0.45158(19)
H4 H 0.9339 0.6599 0.4703
C5 C 0.9099(3) 0.6781(6) 0.42839(17)
C6 C 0.8944(3) 0.7805(6) 0.43183(17)
C7 C 0.9468(3) 0.9913(6) 0.53044(18)
H5 H 0.9652 0.9634 0.5458
C8 C 0.9356(3) 0.9340(6) 0.50612(17)
H6 H 0.9461 0.8687 0.5048
C9 C 0.9078(4) 1.1234(7) 0.51123(18)
H7 H 0.8983 1.1893 0.5131
C10 C 0.8954(4) 1.0736(7) 0.48659(19)
H8 H 0.8779 1.1051 0.4714
C11 C 0.9082(3) 0.9762(6) 0.48349(16)
C12 C 0.8946(3) 0.9199(6) 0.45743(16)
C13 C 0.8180(4) 1.1141(6) 0.36374(19)
H9 H 0.8184 1.1830 0.3637
C14 C 0.8398(4) 1.0665(6) 0.38663(19)
H10 H 0.8546 1.1019 0.4021
C15 C 0.7968(3) 0.9720(6) 0.34201(19)
H11 H 0.7815 0.9379 0.3265
C16 C 0.8186(3) 0.9190(6) 0.36413(19)
H12 H 0.8186 0.8501 0.3635
C17 C 0.8401(3) 0.9667(6) 0.38681(16)
C18 C 0.8620(3) 0.9150(5) 0.41178(16)
C19 C 0.7307(3) 1.0339(5) 0.25972(17)
H13 H 0.7008 1.0315 0.2696
C20 C 0.7350(3) 0.9947(5) 0.23128(16)
H14 H 0.7081 0.9660 0.2219
C21 C 0.8101(3) 1.0765(7) 0.25965(18)
H15 H 0.8366 1.1049 0.2695
C22 C 0.8164(3) 1.0383(7) 0.23138(19)
H16 H 0.8468 1.0399 0.2221
C23 C 0.7775(3) 0.9980(5) 0.21735(16)
C24 C 0.7822(3) 0.9634(5) 0.18634(16)
C25 C 0.9587(3) 0.8985(7) 0.13469(19)
H17 H 0.9871 0.8964 0.1461
C26 C 0.9158(3) 0.9128(6) 0.14938(19)
H18 H 0.9149 0.9217 0.1701
C27 C 0.9222(3) 0.8904(6) 0.08971(19)
H19 H 0.9243 0.8837 0.0689
C28 C 0.8780(3) 0.9027(6) 0.10244(17)
H20 H 0.8502 0.9036 0.0905
C29 C 0.8742(3) 0.9137(5) 0.13266(17)
C30 C 0.8267(3) 0.9267(5) 0.14681(15)
C31 C 0.6612(3) 0.8678(6) 0.08218(17)
H21 H 0.6622 0.8481 0.0621
C32 C 0.7039(3) 0.8827(6) 0.09676(16)
H22 H 0.7335 0.8744 0.0869
C33 C 0.6176(3) 0.9078(5) 0.12322(17)
H23 H 0.5875 0.9174 0.1324
C34 C 0.6582(3) 0.9231(5) 0.13937(16)
H24 H 0.6559 0.9424 0.1594
C35 C 0.7024(3) 0.9104(5) 0.12642(16)
C36 C 0.7468(3) 0.9246(5) 0.14329(15)
N1 N 0.9438(2) 0.4909(5) 0.42110(15)
N2 N 0.9330(2) 1.0826(5) 0.53315(14)
N3 N 0.7963(2) 1.0687(5) 0.34152(14)
N4 N 0.9067(2) 0.8261(5) 0.45639(14)
N5 N 0.8728(2) 0.9684(5) 0.43555(14)
N6 N 0.8712(2) 0.8202(5) 0.40890(14)
N7 N 0.7679(3) 1.0742(5) 0.27303(13)
N8 N 0.9624(2) 0.8875(5) 0.10572(15)
N9 N 0.6186(2) 0.8797(5) 0.09487(14)
N10 N 0.8260(2) 0.9534(4) 0.17522(13)
N11 N 0.7884(2) 0.9123(4) 0.12991(13)
N12 N 0.7416(2) 0.9503(4) 0.17186(12)
Zn2A Zn 0.55627(4) 0.84499(7) 0.07251(2)
Zn3B Zn 1.02713(4) 0.85557(7) 0.08582(2)
N8B N 1.0376(2) 0.3875(5) 0.39428(15)
N9A N 0.8814(2) 1.1203(5) 0.59487(14)
C37 C 0.7550(6) 0.8915(16) 0.0164(4)
H25 H 0.7243 0.9146 0.0246
H26 H 0.7544 0.9015 -0.0052
C38 C 0.7613(6) 0.7821(15) 0.0232(4)
H27 H 0.7602 0.7727 0.0448
H28 H 0.7342 0.7460 0.0146
C39 C 0.8083(5) 0.7390(15) 0.0114(4)
H29 H 0.8119 0.6709 0.0179
H30 H 0.8086 0.7407 -0.0104
C40 C 0.8489(5) 0.8020(12) 0.0239(3)
H31 H 0.8505 0.7918 0.0455
H32 H 0.8795 0.7795 0.0154
C41 C 0.8439(5) 0.9093(13) 0.0180(3)
H33 H 0.8464 0.9214 -0.0035
H34 H 0.8702 0.9446 0.0278
C42 C 0.7952(5) 0.9481(14) 0.0295(4)
H35 H 0.7918 1.0174 0.0242
H36 H 0.7941 0.9428 0.0512
C43 C 0.7237(8) 0.9361(17) 0.4185(5)
H37 H 0.7540 0.9556 0.4281
H38 H 0.7198 0.9762 0.4006
C44 C 0.7272(8) 0.8292(18) 0.4095(5)
H39 H 0.7003 0.8155 0.3960
H40 H 0.7569 0.8212 0.3979
C45 C 0.7269(8) 0.7518(17) 0.4333(5)
H41 H 0.7569 0.7538 0.4448
H42 H 0.7234 0.6865 0.4245
C46 C 0.6838(9) 0.7764(16) 0.4528(5)
H43 H 0.6543 0.7617 0.4416
H44 H 0.6844 0.7331 0.4702
C47 C 0.6808(9) 0.8795(18) 0.4635(5)
H45 H 0.7066 0.8909 0.4780
H46 H 0.6500 0.8891 0.4737
C48 C 0.6853(7) 0.9556(17) 0.4381(4)
H47 H 0.6551 0.9566 0.4267
H48 H 0.6898 1.0208 0.4468
C49 C 0.2539(4) 0.1872(17) 0.3453(3)
C50 C 0.3032(4) 0.1882(12) 0.3419(3)
H49 H 0.3168 0.2074 0.3236
C51 C 0.3327(4) 0.1611(13) 0.3651(4)
C52 C 0.3125(4) 0.1409(19) 0.3925(3)
H50 H 0.3326 0.1263 0.4088
C53 C 0.2634(5) 0.1419(15) 0.3962(3)
H51 H 0.2500 0.1276 0.4149
C54 C 0.2337(4) 0.164(2) 0.3724(3)
C55 C 0.1838(4) 0.163(4) 0.3755(4)
C56 C 0.1632(6) 0.147(3) 0.4031(3)
H52 H 0.1830 0.1418 0.4200
C57 C 0.1142(6) 0.138(3) 0.4062(4)
H53 H 0.1007 0.1213 0.4247
C58 C 0.0848(5) 0.154(3) 0.3818(4)
H54 H 0.0511 0.1554 0.3841
C59 C 0.1051(5) 0.167(4) 0.3541(4)
H55 H 0.0854 0.1673 0.3371
C60 C 0.1548(4) 0.179(3) 0.3511(3)
C61 C 0.1755(4) 0.200(2) 0.3235(3)
C62 C 0.1471(4) 0.218(2) 0.2985(3)
H56 H 0.1134 0.2115 0.2998
C63 C 0.1680(6) 0.2442(15) 0.2720(3)
H57 H 0.1486 0.2546 0.2552
C64 C 0.2174(6) 0.2557(18) 0.2699(3)
H58 H 0.2316 0.2762 0.2519
C65 C 0.2457(5) 0.2367(15) 0.2944(3)
H59 H 0.2794 0.2424 0.2930
C66 C 0.2248(4) 0.2090(17) 0.3211(2)
C67 C 0.4152(9) 0.1708(14) 0.3390(5)
C68 C 0.4668(7) 0.1728(14) 0.3460(4)
N13 N 0.3830(5) 0.1628(10) 0.3626(4)
H60 H 0.3974 0.1577 0.3797
O1 O 0.3987(6) 0.1722(12) 0.3134(4)
C69 C 0.5083(12) 0.175(2) 0.3243(8)
C70 C 0.5170(13) 0.086(2) 0.3086(8)
H61 H 0.4854 0.0599 0.3031
H62 H 0.5312 0.0404 0.3228
C71 C 0.5464(12) 0.083(2) 0.2824(7)
H63 H 0.5283 0.1172 0.2668
H64 H 0.5748 0.1233 0.2866
C72 C 0.5635(10) -0.005(3) 0.2696(6)
H65 H 0.5809 -0.0392 0.2854
H66 H 0.5349 -0.0442 0.2652
C73 C 0.5929(9) -0.010(3) 0.2443(7)
H67 H 0.6250 0.0112 0.2506
H68 H 0.5809 0.0394 0.2304
C74 C 0.6000(12) -0.096(3) 0.2273(8)
H69 H 0.6217 -0.0820 0.2109
H70 H 0.5692 -0.1183 0.2195
H71 H 0.6138 -0.1467 0.2398
C75? C 0.6895(9) 0.195(5) 0.1731(7)
C76? C 0.6691(11) 0.223(4) 0.1999(7)
H72? H 0.6354 0.2230 0.2019
C77? C 0.6976(12) 0.250(4) 0.2240(7)
C78? C 0.7471(11) 0.251(3) 0.2211(6)
H73? H 0.7665 0.2698 0.2372
C79? C 0.7683(10) 0.224(2) 0.1950(6)
H74? H 0.8021 0.2233 0.1932
C80? C 0.7397(8) 0.197(4) 0.1711(6)
C81? C 0.7611(8) 0.173(3) 0.1440(5)
C82? C 0.8110(8) 0.173(2) 0.1408(6)
H75? H 0.8305 0.1905 0.1571
C83? C 0.8322(8) 0.148(3) 0.1143(6)
H76? H 0.8660 0.1439 0.1128
C84? C 0.8040(8) 0.1277(19) 0.0898(6)
H77? H 0.8185 0.1142 0.0713
C85? C 0.7544(8) 0.128(2) 0.0925(5)
H78? H 0.7352 0.1095 0.0762
C86? C 0.7326(7) 0.154(4) 0.1194(6)
C87? C 0.6814(7) 0.154(6) 0.1211(6)
C88? C 0.6523(11) 0.138(4) 0.0961(6)
H79? H 0.6671 0.1242 0.0778
C89? C 0.6028(11) 0.143(3) 0.0975(7)
H80? H 0.5842 0.1414 0.0800
C90? C 0.5807(11) 0.149(6) 0.1254(9)
H81? H 0.5473 0.1393 0.1275
C91? C 0.6093(10) 0.171(7) 0.1499(8)
H82? H 0.5942 0.1871 0.1680
C92? C 0.6600(9) 0.169(5) 0.1488(7)
C93? C 0.626(2) 0.323(3) 0.2531(10)
C94? C 0.6164(16) 0.367(3) 0.2805(9)
H83? H 0.6103 0.3131 0.2945
H84? H 0.6463 0.3985 0.2869
C95? C 0.5809(16) 0.432(3) 0.2845(8)
H85? H 0.5517 0.4063 0.2750
H86? H 0.5898 0.4921 0.2737
C96? C 0.5681(15) 0.460(3) 0.3155(6)
H87? H 0.5528 0.4042 0.3252
H88? H 0.5980 0.4747 0.3264
C97? C 0.5362(14) 0.544(2) 0.3182(6)
H89? H 0.5372 0.5666 0.3389
H90? H 0.5033 0.5220 0.3142
C98? C 0.5456(14) 0.629(2) 0.2992(8)
H91? H 0.5487 0.6072 0.2785
H92? H 0.5762 0.6591 0.3051
C99? C 0.5067(14) 0.704(3) 0.3011(9)
H93? H 0.4780 0.6796 0.2907
H94? H 0.4982 0.7144 0.3220
C100? C 0.521(2) 0.799(3) 0.2877(13)
H95? H 0.4943 0.8445 0.2884
H96? H 0.5309 0.7892 0.2672
H97? H 0.5481 0.8265 0.2988
N14? N 0.6743(14) 0.2821(19) 0.2506(7)
H98? H 0.6907 0.2764 0.2671
O2? O 0.5966(12) 0.334(2) 0.2330(7)
C101? C 0.4843(16) 0.246(4) 0.3276(13)
C102? C 0.5393(13) 0.246(3) 0.3238(11)
C103? C 0.5615(16) 0.311(3) 0.3074(15)
H99? H 0.5926 0.3133 0.3178
H100? H 0.5678 0.2714 0.2897
C104? C 0.562(2) 0.397(3) 0.2956(13)
H101? H 0.5267 0.4081 0.2937
H102? H 0.5720 0.3805 0.2754
C105? C 0.576(2) 0.487(3) 0.2972(19)
H103? H 0.5788 0.5041 0.2760
H104? H 0.6100 0.4775 0.3034
C106? C 0.567(2) 0.572(4) 0.3087(19)
H105? H 0.5788 0.6233 0.2955
H106? H 0.5835 0.5777 0.3278
H107? H 0.5328 0.5791 0.3115
loop_
_geom_bond_atom_site_label_1
_geom_bond_atom_site_label_2
_geom_bond_site_symmetry_1
_geom_bond_site_symmetry_2
Zn1 I3 1_555 1_555
Zn2 I1 1_555 1_555
Zn3 I2 1_555 1_555
I4 Zn2 1_555 1_555
I5 Zn3 1_555 1_555
I6 Zn1 1_555 1_555
C1 H1 1_555 1_555
C2 C1 1_555 1_555
H2 C2 1_555 1_555
C3 H3 1_555 1_555
C4 C3 1_555 1_555
H4 C4 1_555 1_555
C5 C2 1_555 1_555
C6 C5 1_555 1_555
C7 H5 1_555 1_555
C8 C7 1_555 1_555
H6 C8 1_555 1_555
C9 H7 1_555 1_555
C10 C9 1_555 1_555
H8 C10 1_555 1_555
C11 C8 1_555 1_555
C12 C11 1_555 1_555
C13 H9 1_555 1_555
C14 C13 1_555 1_555
H10 C14 1_555 1_555
C15 H11 1_555 1_555
C16 C15 1_555 1_555
H12 C16 1_555 1_555
C17 C14 1_555 1_555
C18 C17 1_555 1_555
C19 H13 1_555 1_555
C20 C19 1_555 1_555
H14 C20 1_555 1_555
C21 H15 1_555 1_555
C22 C21 1_555 1_555
H16 C22 1_555 1_555
C23 C20 1_555 1_555
C24 C23 1_555 1_555
C25 H17 1_555 1_555
C26 C25 1_555 1_555
H18 C26 1_555 1_555
C27 H19 1_555 1_555
C28 C27 1_555 1_555
H20 C28 1_555 1_555
C29 C26 1_555 1_555
C30 C29 1_555 1_555
C31 H21 1_555 1_555
C32 C31 1_555 1_555
H22 C32 1_555 1_555
C33 H23 1_555 1_555
C34 C33 1_555 1_555
H24 C34 1_555 1_555
C35 C32 1_555 1_555
C36 C35 1_555 1_555
N1 Zn3 1_555 1_555
N2 Zn2 1_555 1_555
N3 Zn1 1_555 1_555
N4 C6 1_555 1_555
N5 C12 1_555 1_555
N6 C6 1_555 1_555
N7 Zn1 1_555 1_555
N8 C25 1_555 1_555
N9 C31 1_555 1_555
N10 C24 1_555 1_555
N11 C30 1_555 1_555
N12 C24 1_555 1_555
C37 H25 1_555 1_555
H26 C37 1_555 1_555
C38 C37 1_555 1_555
H27 C38 1_555 1_555
H28 C38 1_555 1_555
C39 C38 1_555 1_555
H29 C39 1_555 1_555
H30 C39 1_555 1_555
C40 C39 1_555 1_555
H31 C40 1_555 1_555
H32 C40 1_555 1_555
C41 C40 1_555 1_555
H33 C41 1_555 1_555
H34 C41 1_555 1_555
C42 C37 1_555 1_555
H35 C42 1_555 1_555
H36 C42 1_555 1_555
C43 H37 1_555 1_555
H38 C43 1_555 1_555
C44 C43 1_555 1_555
H39 C44 1_555 1_555
H40 C44 1_555 1_555
C45 C44 1_555 1_555
H41 C45 1_555 1_555
H42 C45 1_555 1_555
C46 C45 1_555 1_555
H43 C46 1_555 1_555
H44 C46 1_555 1_555
C47 C46 1_555 1_555
H45 C47 1_555 1_555
H46 C47 1_555 1_555
C48 C43 1_555 1_555
H47 C48 1_555 1_555
H48 C48 1_555 1_555
C49 C50 1_555 1_555
C50 H49 1_555 1_555
C51 C50 1_555 1_555
C52 C51 1_555 1_555
H50 C52 1_555 1_555
C53 C52 1_555 1_555
H51 C53 1_555 1_555
C54 C49 1_555 1_555
C55 C54 1_555 1_555
C56 C55 1_555 1_555
H52 C56 1_555 1_555
C57 C56 1_555 1_555
H53 C57 1_555 1_555
C58 C57 1_555 1_555
H54 C58 1_555 1_555
C59 C58 1_555 1_555
H55 C59 1_555 1_555
C60 C55 1_555 1_555
C61 C60 1_555 1_555
C62 C61 1_555 1_555
H56 C62 1_555 1_555
C63 C62 1_555 1_555
H57 C63 1_555 1_555
C64 C63 1_555 1_555
H58 C64 1_555 1_555
C65 C64 1_555 1_555
H59 C65 1_555 1_555
C66 C49 1_555 1_555
C67 C68 1_555 1_555
C68 C69 1_555 1_555
N13 C51 1_555 1_555
H60 N13 1_555 1_555
O1 C67 1_555 1_555
C69 C70 1_555 1_555
C70 H61 1_555 1_555
H62 C70 1_555 1_555
C71 C70 1_555 1_555
H63 C71 1_555 1_555
H64 C71 1_555 1_555
C72 C71 1_555 1_555
H65 C72 1_555 1_555
H66 C72 1_555 1_555
C73 C72 1_555 1_555
H67 C73 1_555 1_555
H68 C73 1_555 1_555
C74 C73 1_555 1_555
H69 C74 1_555 1_555
H70 C74 1_555 1_555
H71 C74 1_555 1_555
Zn2A N9 1_555 1_555
Zn3B N8 1_555 1_555
N8B Zn3 1_555 1_555
N9A Zn2 1_555 1_555
C1 N1 1_555 1_555
C3 N1 1_555 1_555
C4 C5 1_555 1_555
C7 N2 1_555 1_555
C9 N2 1_555 1_555
C10 C11 1_555 1_555
C12 N4 1_555 1_555
C13 N3 1_555 1_555
C15 N3 1_555 1_555
C16 C17 1_555 1_555
C18 N5 1_555 1_555
C18 N6 1_555 1_555
C19 N7 1_555 1_555
C21 N7 1_555 1_555
C22 C23 1_555 1_555
C27 N8 1_555 1_555
C28 C29 1_555 1_555
C30 N10 1_555 1_555
C33 N9 1_555 1_555
C34 C35 1_555 1_555
C36 N11 1_555 1_555
C36 N12 1_555 1_555
C41 C42 1_555 1_555
C47 C48 1_555 1_555
C53 C54 1_555 1_555
C59 C60 1_555 1_555
C61 C66 1_555 1_555
C65 C66 1_555 1_555
C67 N13 1_555 1_555

#END
