
#######################################################################
#
#                 Cambridge Crystallographic Data Centre
#                                CCDC 
#
#######################################################################
#
# If this CIF has been generated from an entry in the Cambridge 
# Structural Database, then it will include bibliographic, chemical, 
# crystal, experimental, refinement or atomic coordinate data resulting 
# from the CCDC's data processing and validation procedures.
#
#######################################################################

data_SOHMEI
_symmetry_cell_setting           orthorhombic
_symmetry_space_group_name_H-M   'P b c a'
_symmetry_Int_Tables_number      61
_space_group_name_Hall           '-P 2ac 2ab'
loop_
_symmetry_equiv_pos_site_id
_symmetry_equiv_pos_as_xyz
1 x,y,z
2 1/2-x,-y,1/2+z
3 -x,1/2+y,1/2-z
4 1/2+x,1/2-y,-z
5 -x,-y,-z
6 1/2+x,y,1/2-z
7 x,1/2-y,1/2+z
8 1/2-x,1/2+y,z
_cell_length_a                   28.1745(4)
_cell_length_b                   13.8238(2)
_cell_length_c                   45.1995(8)
_cell_angle_alpha                90
_cell_angle_beta                 90
_cell_angle_gamma                90
_cell_volume                     17604.2
loop_
_atom_site_label
_atom_site_type_symbol
_atom_site_fract_x
_atom_site_fract_y
_atom_site_fract_z
Zn1 Zn 0.55258(5) -0.14466(11) 0.42112(3)
Zn2 Zn 0.76140(5) 0.16584(8) 0.18444(3)
Zn3 Zn 1.02205(5) -0.12742(9) 0.41337(3)
I1 I 0.56118(5) -0.32587(7) 0.42633(3)
I2 I 0.48776(4) -0.05362(11) 0.39343(3)
I3 I 0.80493(3) 0.32694(5) 0.19090(2)
I4 I 0.67434(4) 0.16771(7) 0.16952(3)
I5 I 1.00595(3) -0.20327(6) 0.46404(2)
I6 I 1.06958(4) -0.21186(7) 0.37358(3)
C1 C 0.7452(4) -0.0448(6) 0.3550(3)
C2 C 0.7817(4) -0.0079(6) 0.3119(2)
C3 C 0.8239(4) -0.0433(6) 0.3520(2)
C4 C 0.6995(3) -0.0611(6) 0.3720(2)
C5 C 0.7001(4) -0.0863(7) 0.4005(3)
H1 H 0.7285 -0.0904 0.4110
C6 C 0.6555(4) -0.1067(8) 0.4145(2)
H2 H 0.6559 -0.1258 0.4342
C7 C 0.6149(4) -0.0726(7) 0.3739(2)
H3 H 0.5857 -0.0675 0.3644
C8 C 0.6564(4) -0.0502(7) 0.3578(2)
H4 H 0.6548 -0.0287 0.3384
C9 C 0.7768(3) 0.0208(6) 0.2817(2)
C10 C 0.7342(4) 0.0255(6) 0.2674(3)
H5 H 0.7066 0.0070 0.2772
C11 C 0.7315(4) 0.0582(7) 0.2380(2)
H6 H 0.7022 0.0572 0.2284
C12 C 0.8099(4) 0.0852(8) 0.2368(3)
H7 H 0.8366 0.1052 0.2264
C13 C 0.8152(4) 0.0533(8) 0.2645(3)
H8 H 0.8455 0.0526 0.2728
C14 C 0.8703(4) -0.0576(7) 0.3666(2)
C15 C 0.9121(4) -0.0524(8) 0.3506(3)
H9 H 0.9118 -0.0370 0.3305
C16 C 0.9551(4) -0.0711(9) 0.3654(3)
H10 H 0.9829 -0.0673 0.3544
C17 C 0.9159(5) -0.0992(8) 0.4095(3)
H11 H 0.9169 -0.1176 0.4293
C18 C 0.8718(4) -0.0789(7) 0.3973(3)
H12 H 0.8444 -0.0792 0.4088
C19 C 0.5975(5) 0.0679(7) 0.5405(2)
C20 C 0.6345(4) 0.0709(7) 0.5854(2)
C21 C 0.6006(4) 0.2059(7) 0.5676(2)
C22 C 0.5819(4) 0.0153(7) 0.5138(2)
C23 C 0.5601(4) 0.0641(8) 0.4908(3)
H13 H 0.5531 0.1296 0.4924
C24 C 0.5489(4) 0.0136(9) 0.4650(3)
H14 H 0.5343 0.0463 0.4495
C25 C 0.5773(5) -0.1294(8) 0.4846(3)
H15 H 0.5819 -0.1959 0.4831
C26 C 0.5901(5) -0.0834(8) 0.5103(3)
H16 H 0.6042 -0.1184 0.5256
C27 C 0.6579(4) 0.0176(7) 0.6094(2)
C28 C 0.6587(5) -0.0814(8) 0.6106(3)
H17 H 0.6443 -0.1162 0.5954
C29 C 0.6792(5) -0.1294(8) 0.6326(3)
H18 H 0.6783 -0.1966 0.6326
C30 C 0.7035(5) 0.0118(7) 0.6536(3)
H19 H 0.7209 0.0444 0.6680
C31 C 0.6809(5) 0.0629(8) 0.6321(3)
H20 H 0.6811 0.1301 0.6328
C32 C 0.5869(4) 0.3081(7) 0.5710(2)
C33 C 0.5927(5) 0.3554(8) 0.5977(3)
H21 H 0.6069 0.3236 0.6135
C34 C 0.5776(5) 0.4492(9) 0.6009(3)
H22 H 0.5842 0.4814 0.6185
C35 C 0.5476(5) 0.4525(9) 0.5527(3)
H23 H 0.5324 0.4852 0.5374
C36 C 0.5649(5) 0.3556(9) 0.5483(3)
H24 H 0.5612 0.3254 0.5300
N1 N 0.7400(3) -0.0213(5) 0.32642(18)
N2 N 0.8231(3) -0.0179(6) 0.3236(2)
N3 N 0.7848(3) -0.0591(5) 0.36918(18)
N4 N 0.6157(3) -0.1006(6) 0.4019(2)
N5 N 0.7679(3) 0.0894(6) 0.22386(19)
N6 N 0.9587(3) -0.0940(6) 0.3942(2)
N7 N 0.6208(3) 0.0198(6) 0.5612(2)
N8 N 0.6269(3) 0.1660(6) 0.5888(2)
N9 N 0.5864(4) 0.1628(6) 0.5422(2)
N10 N 0.5589(3) -0.0831(7) 0.4619(2)
N11 N 0.7010(3) -0.0842(6) 0.6544(2)
N12 N 0.5537(3) 0.4960(6) 0.5796(2)
Zn2A Zn 0.73860(5) -0.16584(8) 0.68444(3)
Zn3C Zn 0.52205(5) 0.62742(9) 0.58663(3)
N11A N 0.7990(3) 0.0842(6) 0.1544(2)
N12C N 1.0537(3) 0.0040(6) 0.4204(2)
C37 C 0.7697(7) 0.7304(4) 0.3232(4)
C38 C 0.7466(8) 0.7541(4) 0.2966(5)
H25 H 0.7136 0.7543 0.2966
C39 C 0.7692(9) 0.7771(5) 0.2705(5)
H26 H 0.7519 0.7923 0.2535
C40 C 0.8189(8) 0.7771(5) 0.2702(5)
C41 C 0.8416(9) 0.7536(5) 0.2965(5)
H27 H 0.8746 0.7533 0.2965
C42 C 0.8189(7) 0.7305(4) 0.3227(4)
C43 C 0.8455(7) 0.7073(4) 0.3486(4)
C44 C 0.8954(8) 0.7066(6) 0.3491(6)
H28 H 0.9124 0.7215 0.3321
C45 C 0.9191(9) 0.6836(6) 0.3749(6)
H29 H 0.9521 0.6831 0.3751
C46 C 0.8940(9) 0.6611(6) 0.4005(6)
H30 H 0.9103 0.6457 0.4177
C47 C 0.8454(9) 0.6615(5) 0.4004(5)
H31 H 0.8290 0.6464 0.4176
C48 C 0.8202(7) 0.6845(4) 0.3747(5)
C49 C 0.7701(7) 0.6842(4) 0.3754(4)
C50 C 0.7449(9) 0.6613(5) 0.4014(5)
H32 H 0.7611 0.6459 0.4187
C51 C 0.6954(9) 0.6622(6) 0.4008(6)
H33 H 0.6787 0.6472 0.4179
C52 C 0.6707(9) 0.6849(6) 0.3753(6)
H34 H 0.6377 0.6850 0.3755
C53 C 0.6953(7) 0.7078(5) 0.3494(5)
H35 H 0.6787 0.7231 0.3322
C54 C 0.7449(7) 0.7075(4) 0.3493(4)
C55 C 0.8535(11) 0.7983(6) 0.2459(6)
H36 H 0.8458 0.7893 0.2261
O1 O 0.8938(10) 0.829(3) 0.2538(10)
C56 C 0.8173(7) 0.819(2) 0.4758(3)
C57 C 0.7809(7) 0.882(2) 0.4683(3)
H37 H 0.7507 0.8580 0.4641
C58 C 0.7895(10) 0.981(2) 0.4669(3)
H38 H 0.7651 1.0231 0.4619
C59 C 0.8345(12) 1.016(2) 0.4731(3)
H39 H 0.8403 1.0827 0.4722
C60 C 0.8709(9) 0.953(2) 0.4807(3)
H40 H 0.9011 0.9772 0.4848
C61 C 0.8623(6) 0.854(2) 0.4820(3)
H41 H 0.8867 0.8121 0.4871
N13 N 0.8082(10) 0.714(2) 0.4773(3)
O2 O 0.8416(13) 0.663(2) 0.4840(3)
O3 O 0.7699(12) 0.680(2) 0.4721(4)
C62 C 0.9247(6) 0.975(2) 0.2359(4)
C63 C 0.9055(11) 1.058(3) 0.2234(5)
H42 H 0.9025 1.1142 0.2346
C64 C 0.8907(12) 1.058(3) 0.1941(6)
H43 H 0.8778 1.1131 0.1857
C65 C 0.8951(11) 0.974(3) 0.1773(5)
H44 H 0.8852 0.9733 0.1576
C66 C 0.9144(13) 0.891(3) 0.1898(5)
H45 H 0.9173 0.8347 0.1785
C67 C 0.9292(11) 0.891(2) 0.2191(5)
H46 H 0.9420 0.8359 0.2275
N14 N 0.9405(8) 0.975(2) 0.2670(5)
O4 O 0.9372(13) 1.046(2) 0.2820(5)
O5 O 0.9565(12) 0.902(2) 0.2764(5)
C68 C 0.9344(14) 0.555(2) 0.2780(5)
C69 C 0.9226(16) 0.478(3) 0.2965(6)
H47 H 0.9413 0.4646 0.3130
C70 C 0.8830(17) 0.422(3) 0.2904(8)
H48 H 0.8752 0.3703 0.3028
C71 C 0.8552(16) 0.442(3) 0.2658(8)
H49 H 0.8287 0.4038 0.2617
C72 C 0.8669(15) 0.518(3) 0.2473(7)
H50 H 0.8482 0.5318 0.2308
C73 C 0.9065(15) 0.575(3) 0.2534(6)
H51 H 0.9143 0.6261 0.2410
N15 N 0.9757(15) 0.613(3) 0.2844(6)
O6 O 1.0012(16) 0.599(3) 0.3055(6)
O7 O 0.9839(17) 0.677(3) 0.2680(8)
C74? C 0.7809(9) 0.74581(9) 0.3057(3)
C75? C 0.7668(10) 0.77118(10) 0.2772(3)
H52? H 0.7347 0.7754 0.2727
C76? C 0.8005(11) 0.7902(2) 0.2555(3)
H53? H 0.7909 0.8071 0.2365
C77? C 0.8486(11) 0.7837(4) 0.2624(4)
C78? C 0.8626(9) 0.7585(4) 0.2908(5)
H54? H 0.8947 0.7542 0.2954
C79? C 0.8288(9) 0.7394(2) 0.3126(3)
C80? C 0.8430(9) 0.7139(3) 0.3412(4)
C81? C 0.8910(9) 0.7072(5) 0.3484(6)
H55? H 0.9140 0.7197 0.3342
C82? C 0.9046(11) 0.6819(6) 0.3769(6)
H56? H 0.9366 0.6774 0.3817
C83? C 0.8704(13) 0.6632(5) 0.3983(5)
H57? H 0.8795 0.6462 0.4174
C84? C 0.8226(12) 0.6698(4) 0.3912(4)
H58? H 0.7997 0.6573 0.4055
C85? C 0.8088(9) 0.6952(3) 0.3627(3)
C86? C 0.7606(9) 0.7016(3) 0.3558(3)
C87? C 0.7262(11) 0.6829(4) 0.3772(4)
H59? H 0.7352 0.6659 0.3963
C88? C 0.6783(10) 0.6896(6) 0.3700(6)
H60? H 0.6554 0.6771 0.3843
C89? C 0.6646(9) 0.7149(6) 0.3416(7)
H61? H 0.6326 0.7193 0.3368
C90? C 0.6988(9) 0.7336(4) 0.3201(5)
H62? H 0.6897 0.7506 0.3010
C91? C 0.7468(8) 0.7270(3) 0.3273(4)
C92? C 0.8855(13) 0.8037(6) 0.2395(6)
H63? H 0.9165 0.8152 0.2457
O8? O 0.8767(18) 0.806(6) 0.2132(6)
C93? C 0.7100(11) 0.7073(6) 0.3498(6)
C94? C 0.6647(12) 0.6966(7) 0.3622(7)
H64? H 0.6631 0.6791 0.3820
C95? C 0.6219(12) 0.7101(7) 0.3473(8)
H65? H 0.5929 0.7019 0.3568
C96? C 0.6247(11) 0.7365(7) 0.3175(8)
C97? C 0.6697(11) 0.7471(7) 0.3051(7)
H66? H 0.6716 0.7647 0.2853
C98? C 0.7118(10) 0.7335(6) 0.3202(6)
C99? C 0.7559(11) 0.7460(5) 0.3057(6)
C100? C 0.7582(16) 0.7724(6) 0.2759(6)
H67? H 0.7304 0.7821 0.2652
C101? C 0.8019(17) 0.7842(7) 0.2622(8)
H68? H 0.8035 0.8018 0.2424
C102? C 0.8435(16) 0.7695(8) 0.2785(9)
H69? H 0.8730 0.7773 0.2695
C103? C 0.8408(12) 0.7435(8) 0.3079(8)
H70? H 0.8687 0.7339 0.3185
C104? C 0.7974(11) 0.7313(5) 0.3220(6)
C105? C 0.7960(11) 0.7046(5) 0.3521(6)
C106? C 0.8375(13) 0.6894(7) 0.3690(8)
H71? H 0.8669 0.6971 0.3600
C107? C 0.8355(16) 0.6631(8) 0.3987(8)
H72? H 0.8632 0.6534 0.4094
C108? C 0.7915(17) 0.6515(7) 0.4121(7)
H73? H 0.7897 0.6340 0.4319
C109? C 0.7501(15) 0.6663(6) 0.3958(7)
H74? H 0.7208 0.6583 0.4050
C110? C 0.7516(11) 0.6927(6) 0.3659(6)
C111? C 0.5850(13) 0.7551(9) 0.2968(10)
H75? H 0.5545 0.7656 0.3040
O9? O 0.5926(19) 0.757(5) 0.2699(10)
C112? C 0.8610(14) 1.062(3) 0.4761(4)
C113? C 0.8758(19) 0.968(3) 0.4810(4)
H76? H 0.8544 0.9170 0.4790
C114? C 0.923(2) 0.949(5) 0.4890(4)
H77? H 0.9324 0.8859 0.4923
C115? C 0.9545(16) 1.025(6) 0.4920(4)
H78? H 0.9858 1.0125 0.4973
C116? C 0.9398(14) 1.120(5) 0.4870(5)
H79? H 0.9612 1.1704 0.4890
C117? C 0.8930(15) 1.138(4) 0.4791(4)
H80? H 0.8831 1.2015 0.4757
N16? N 0.8125(14) 1.082(4) 0.4678(4)
O10? O 0.7838(16) 1.021(5) 0.4649(4)
O11? O 0.8017(17) 1.166(4) 0.4637(4)
loop_
_geom_bond_atom_site_label_1
_geom_bond_atom_site_label_2
_geom_bond_site_symmetry_1
_geom_bond_site_symmetry_2
Zn1 I1 1_555 1_555
Zn2 I3 1_555 1_555
Zn3 I5 1_555 1_555
I2 Zn1 1_555 1_555
I4 Zn2 1_555 1_555
I6 Zn3 1_555 1_555
C1 C4 1_555 1_555
C2 C9 1_555 1_555
C3 C14 1_555 1_555
C4 C5 1_555 1_555
C5 H1 1_555 1_555
C6 C5 1_555 1_555
H2 C6 1_555 1_555
C7 H3 1_555 1_555
C8 C4 1_555 1_555
H4 C8 1_555 1_555
C9 C10 1_555 1_555
C10 H5 1_555 1_555
C11 C10 1_555 1_555
H6 C11 1_555 1_555
C12 H7 1_555 1_555
C13 C9 1_555 1_555
H8 C13 1_555 1_555
C14 C15 1_555 1_555
C15 H9 1_555 1_555
C16 C15 1_555 1_555
H10 C16 1_555 1_555
C17 H11 1_555 1_555
C18 C14 1_555 1_555
H12 C18 1_555 1_555
C19 C22 1_555 1_555
C20 C27 1_555 1_555
C21 C32 1_555 1_555
C22 C23 1_555 1_555
C23 H13 1_555 1_555
C24 C23 1_555 1_555
H14 C24 1_555 1_555
C25 H15 1_555 1_555
C26 C22 1_555 1_555
H16 C26 1_555 1_555
C27 C28 1_555 1_555
C28 H17 1_555 1_555
C29 C28 1_555 1_555
H18 C29 1_555 1_555
C30 H19 1_555 1_555
C31 C27 1_555 1_555
H20 C31 1_555 1_555
C32 C33 1_555 1_555
C33 H21 1_555 1_555
C34 C33 1_555 1_555
H22 C34 1_555 1_555
C35 H23 1_555 1_555
C36 C32 1_555 1_555
H24 C36 1_555 1_555
N1 C1 1_555 1_555
N2 C2 1_555 1_555
N3 C1 1_555 1_555
N4 Zn1 1_555 1_555
N5 Zn2 1_555 1_555
N6 Zn3 1_555 1_555
N7 C19 1_555 1_555
N8 C20 1_555 1_555
N9 C19 1_555 1_555
N10 Zn1 1_555 1_555
N11 C29 1_555 1_555
N12 C34 1_555 1_555
C37 C38 1_555 1_555
C38 H25 1_555 1_555
C39 C38 1_555 1_555
H26 C39 1_555 1_555
C40 C39 1_555 1_555
C41 C40 1_555 1_555
H27 C41 1_555 1_555
C42 C37 1_555 1_555
C43 C42 1_555 1_555
C44 C43 1_555 1_555
H28 C44 1_555 1_555
C45 C44 1_555 1_555
H29 C45 1_555 1_555
C46 C45 1_555 1_555
H30 C46 1_555 1_555
C47 C46 1_555 1_555
H31 C47 1_555 1_555
C48 C43 1_555 1_555
C49 C48 1_555 1_555
C50 C49 1_555 1_555
H32 C50 1_555 1_555
C51 C50 1_555 1_555
H33 C51 1_555 1_555
C52 C51 1_555 1_555
H34 C52 1_555 1_555
C53 C52 1_555 1_555
H35 C53 1_555 1_555
C54 C37 1_555 1_555
C55 C40 1_555 1_555
H36 C55 1_555 1_555
O1 C55 1_555 1_555
C56 C57 1_555 1_555
C57 H37 1_555 1_555
C58 C57 1_555 1_555
H38 C58 1_555 1_555
C59 C58 1_555 1_555
H39 C59 1_555 1_555
C60 C59 1_555 1_555
H40 C60 1_555 1_555
C61 C56 1_555 1_555
H41 C61 1_555 1_555
N13 C56 1_555 1_555
O2 N13 1_555 1_555
O3 N13 1_555 1_555
C62 C63 1_555 1_555
C63 H42 1_555 1_555
C64 C63 1_555 1_555
H43 C64 1_555 1_555
C65 C64 1_555 1_555
H44 C65 1_555 1_555
C66 C65 1_555 1_555
H45 C66 1_555 1_555
C67 C62 1_555 1_555
H46 C67 1_555 1_555
N14 C62 1_555 1_555
O4 N14 1_555 1_555
O5 N14 1_555 1_555
C68 C69 1_555 1_555
C69 H47 1_555 1_555
C70 C69 1_555 1_555
H48 C70 1_555 1_555
C71 C70 1_555 1_555
H49 C71 1_555 1_555
C72 C71 1_555 1_555
H50 C72 1_555 1_555
C73 C68 1_555 1_555
H51 C73 1_555 1_555
N15 C68 1_555 1_555
O6 N15 1_555 1_555
O7 N15 1_555 1_555
Zn2A N11 1_555 1_555
Zn3C N12 1_555 1_555
N11A Zn2 1_555 1_555
N12C Zn3 1_555 1_555
C2 N1 1_555 1_555
C3 N2 1_555 1_555
C3 N3 1_555 1_555
C6 N4 1_555 1_555
C7 C8 1_555 1_555
C7 N4 1_555 1_555
C11 N5 1_555 1_555
C12 C13 1_555 1_555
C12 N5 1_555 1_555
C16 N6 1_555 1_555
C17 C18 1_555 1_555
C17 N6 1_555 1_555
C20 N7 1_555 1_555
C21 N8 1_555 1_555
C21 N9 1_555 1_555
C24 N10 1_555 1_555
C25 C26 1_555 1_555
C25 N10 1_555 1_555
C30 C31 1_555 1_555
C30 N11 1_555 1_555
C35 C36 1_555 1_555
C35 N12 1_555 1_555
C41 C42 1_555 1_555
C47 C48 1_555 1_555
C49 C54 1_555 1_555
C53 C54 1_555 1_555
C60 C61 1_555 1_555
C66 C67 1_555 1_555
C72 C73 1_555 1_555

#END
