
#######################################################################
#
#                 Cambridge Crystallographic Data Centre
#                                CCDC 
#
#######################################################################
#
# If this CIF has been generated from an entry in the Cambridge 
# Structural Database, then it will include bibliographic, chemical, 
# crystal, experimental, refinement or atomic coordinate data resulting 
# from the CCDC's data processing and validation procedures.
#
#######################################################################

data_SOHNAF
_symmetry_cell_setting           orthorhombic
_symmetry_space_group_name_H-M   'P b c a'
_symmetry_Int_Tables_number      61
_space_group_name_Hall           '-P 2ac 2ab'
loop_
_symmetry_equiv_pos_site_id
_symmetry_equiv_pos_as_xyz
1 x,y,z
2 1/2-x,-y,1/2+z
3 -x,1/2+y,1/2-z
4 1/2+x,1/2-y,-z
5 -x,-y,-z
6 1/2+x,y,1/2-z
7 x,1/2-y,1/2+z
8 1/2-x,1/2+y,z
_cell_length_a                   28.857(3)
_cell_length_b                   13.7063(16)
_cell_length_c                   45.188(5)
_cell_angle_alpha                90
_cell_angle_beta                 90
_cell_angle_gamma                90
_cell_volume                     17872.9
loop_
_atom_site_label
_atom_site_type_symbol
_atom_site_fract_x
_atom_site_fract_y
_atom_site_fract_z
Zn1 Zn 1.02280(3) 0.14722(6) 0.91413(2)
Zn2 Zn 0.56358(3) 0.15855(6) 0.928741(17)
Zn3 Zn 0.76223(3) -0.14406(5) 0.689450(16)
I1 I 1.00838(2) 0.21800(5) 0.965703(16)
I2 I 1.06891(2) 0.23483(5) 0.87459(2)
I3 I 0.57434(3) 0.34173(4) 0.939700(14)
I4 I 0.496850(18) 0.08954(5) 0.899631(12)
I5 I 0.80126(2) -0.30977(3) 0.694420(12)
I6 I 0.67836(2) -0.13760(5) 0.672840(14)
C1 C 0.9206(2) 0.1137(5) 0.91222(16)
H1 H 0.9232 0.1238 0.9330
C2 C 0.8770(3) 0.1002(5) 0.89996(15)
H2 H 0.8502 0.1006 0.9122
C3 C 0.9552(3) 0.0967(6) 0.86697(18)
H3 H 0.9825 0.0947 0.8553
C4 C 0.9130(3) 0.0824(6) 0.85323(17)
H4 H 0.9116 0.0702 0.8326
C5 C 0.8729(2) 0.0861(4) 0.86995(14)
C6 C 0.8267(2) 0.0735(4) 0.85606(14)
C7 C 0.8102(3) -0.0754(7) 0.74285(16)
H5 H 0.8357 -0.1060 0.7333
C8 C 0.8164(3) -0.0372(6) 0.77091(16)
H6 H 0.8459 -0.0399 0.7802
C9 C 0.7342(3) -0.0288(4) 0.74214(14)
H7 H 0.7054 -0.0245 0.7320
C10 C 0.7376(2) 0.0090(4) 0.77043(13)
H8 H 0.7114 0.0378 0.7797
C11 C 0.7796(2) 0.0044(4) 0.78498(13)
C12 C 0.7835(2) 0.0383(4) 0.81613(13)
C13 C 0.6233(2) 0.0962(4) 0.87855(13)
H9 H 0.5942 0.0888 0.8690
C14 C 0.6630(2) 0.0811(4) 0.86238(14)
H10 H 0.6612 0.0648 0.8420
C15 C 0.6651(3) 0.1286(5) 0.92047(14)
H11 H 0.6658 0.1457 0.9408
C16 C 0.7065(3) 0.1132(5) 0.90626(14)
H12 H 0.7350 0.1182 0.9166
C17 C 0.7057(2) 0.0901(4) 0.87615(13)
C18 C 0.7492(2) 0.0761(4) 0.85926(13)
C19 C 1.0933(3) -0.6245(5) 1.00952(15)
H13 H 1.1035 -0.6902 1.0110
C20 C 1.1034(3) -0.5739(5) 0.98429(15)
H14 H 1.1197 -0.6046 0.9686
C21 C 1.0545(3) -0.4949(5) 1.02897(15)
H15 H 1.0363 -0.4679 1.0445
C22 C 1.0636(3) -0.4385(5) 1.00457(15)
H16 H 1.0522 -0.3736 1.0034
C23 C 1.0896(2) -0.4776(5) 0.98173(13)
C24 C 1.1016(2) -0.4195(5) 0.95515(14)
C25 C 1.0424(3) -0.0397(6) 0.9439(2)
H17 H 1.0226 -0.0119 0.9584
C26 C 1.0584(3) -0.1333(6) 0.94837(19)
H18 H 1.0500 -0.1687 0.9656
C27 C 1.0810(3) -0.0264(6) 0.90054(18)
H19 H 1.0887 0.0107 0.8835
C28 C 1.0989(3) -0.1195(5) 0.90341(17)
H20 H 1.1194 -0.1447 0.8889
C29 C 1.0870(2) -0.1746(5) 0.92729(14)
C30 C 1.1016(2) -0.2778(4) 0.93017(14)
C31 C 1.1989(3) -0.4666(5) 0.84040(16)
H21 H 1.2141 -0.4323 0.8249
C32 C 1.1775(3) -0.4128(5) 0.86264(17)
H22 H 1.1776 -0.3435 0.8622
C33 C 1.1771(3) -0.6099(5) 0.86105(16)
H23 H 1.1757 -0.6792 0.8603
C34 C 1.1557(3) -0.5630(5) 0.88458(16)
H24 H 1.1410 -0.5992 0.8999
C35 C 1.1563(2) -0.4626(4) 0.88515(14)
C36 C 1.1340(2) -0.4109(5) 0.90989(14)
N1 N 0.9593(2) 0.1131(4) 0.89572(13)
N2 N 0.7699(2) -0.0709(4) 0.72873(11)
N3 N 0.6240(2) 0.1209(4) 0.90733(11)
N4 N 0.8259(2) 0.0485(4) 0.82737(11)
N5 N 0.74427(18) 0.0526(3) 0.83064(10)
N6 N 0.78930(19) 0.0865(3) 0.87295(11)
N7 N 1.1991(2) -0.5641(4) 0.83970(12)
N8 N 1.0701(2) -0.5863(4) 1.03193(12)
N9 N 1.05333(19) 0.0129(4) 0.92067(13)
N10 N 1.1230(2) -0.4661(4) 0.93342(12)
N11 N 1.0904(2) -0.3253(4) 0.95489(12)
N12 N 1.12467(19) -0.3161(4) 0.90722(12)
Zn2C Zn 1.06358(3) -0.65855(6) 1.071259(17)
Zn3B Zn 1.23777(3) -0.64406(5) 0.810550(16)
N7B N 0.8009(2) -0.0641(4) 0.66030(12)
N8C N 0.5701(2) 0.0863(4) 0.96807(12)
C37 C 0.2640(4) 0.1851(6) 0.1552(3)
C38 C 0.2182(5) 0.1832(6) 0.1551(3)
H25 H 0.2029 0.1971 0.1733
C39 C 0.1908(4) 0.1626(6) 0.1310(3)
C40 C 0.2120(7) 0.1399(7) 0.1018(4)
H26 H 0.1944 0.1246 0.0846
C41 C 0.2609(6) 0.1433(8) 0.1021(4)
H27 H 0.2765 0.1305 0.0840
C42 C 0.2885(6) 0.1642(7) 0.1270(4)
C43 C 0.3355(6) 0.1602(7) 0.1258(4)
C44 C 0.3576(6) 0.1424(6) 0.0982(3)
H28 H 0.3402 0.1348 0.0805
C45 C 0.4048(9) 0.1366(9) 0.0979(6)
H29 H 0.4200 0.1243 0.0797
C46 C 0.4314(7) 0.1480(10) 0.1230(6)
H30 H 0.4642 0.1450 0.1215
C47 C 0.4114(5) 0.1635(8) 0.1502(6)
H31 H 0.4294 0.1679 0.1678
C48 C 0.3627(6) 0.1725(7) 0.1507(4)
C49 C 0.3381(5) 0.1962(8) 0.1799(5)
C50 C 0.3635(6) 0.2164(11) 0.2055(5)
H32 H 0.3963 0.2108 0.2048
C51 C 0.3406(6) 0.2475(10) 0.2348(5)
H33 H 0.3568 0.2606 0.2527
C52 C 0.2947(4) 0.2535(6) 0.2316(3)
H34 H 0.2785 0.2742 0.2488
C53 C 0.2680(5) 0.2356(6) 0.2086(3)
H35 H 0.2353 0.2418 0.2098
C54 C 0.2918(4) 0.2043(6) 0.1797(3)
C55 C 0.1138(4) 0.1613(7) 0.1534(2)
C56 C 0.0292(4) 0.1494(9) 0.1630(3)
C57 C 0.0308(5) 0.1139(16) 0.1918(3)
H36 H 0.0596 0.0951 0.2003
C58 C -0.0097(6) 0.1061(19) 0.2082(4)
H37 H -0.0080 0.0854 0.2282
C59 C -0.0496(5) 0.1262(16) 0.1968(5)
H38 H -0.0772 0.1214 0.2082
C60 C -0.0507(6) 0.156(2) 0.1668(5)
H39 H -0.0798 0.1654 0.1574
C61 C -0.0113(5) 0.1701(12) 0.1510(4)
H40 H -0.0128 0.1950 0.1314
N13 N 0.1445(4) 0.1580(6) 0.12970(19)
H41 H 0.1322 0.1522 0.1120
N14 N 0.0679(3) 0.1588(6) 0.1450(2)
H42 H 0.0625 0.1638 0.1259
O1 O 0.1256(3) 0.1663(7) 0.17952(16)
C62 C 0.5657(5) 0.8902(10) 0.2093(3)
H43 H 0.5607 0.8231 0.2135
C63 C 0.5710(5) 0.9229(10) 0.1803(2)
H44 H 0.5764 0.8770 0.1650
C64 C 0.5683(5) 1.0199(11) 0.1736(2)
H45 H 0.5695 1.0405 0.1536
C65 C 0.5639(7) 1.0887(10) 0.1962(3)
H46 H 0.5605 1.1559 0.1915
C66 C 0.5644(6) 1.0584(11) 0.2254(3)
H47 H 0.5623 1.1049 0.2410
C67 C 0.5682(7) 0.9594(13) 0.2319(2)
C68 C 0.5525(15) 0.791(3) 0.2608(9)
N15 N 0.5575(10) 0.927(2) 0.2666(5)
O2 O 0.5278(11) 0.807(2) 0.2933(5)
C69 C 0.7555(9) 0.994(3) 0.0605(6)
H48 H 0.7516 1.0489 0.0481
C70 C 0.7794(9) 1.000(3) 0.0869(7)
H49 H 0.7895 1.0618 0.0935
C71 C 0.7887(9) 0.922(3) 0.1034(6)
H50 H 0.8031 0.9293 0.1221
C72 C 0.7773(15) 0.829(3) 0.0932(8)
H51 H 0.7894 0.7730 0.1030
C73 C 0.7491(14) 0.817(3) 0.0693(8)
H52 H 0.7377 0.7541 0.0638
C74 C 0.7373(14) 0.902(3) 0.0529(7)
C75 C 0.7098(16) 1.015(4) 0.0065(11)
N16 N 0.7061(11) 0.888(3) 0.0221(8)
O3 O 0.6898(8) 0.958(2) -0.0227(5)
C76 C 0.7879(10) 1.077(3) 0.9712(7)
H53 H 0.7566 1.0595 0.9674
C77 C 0.8040(11) 1.171(3) 0.9668(6)
H54 H 0.7839 1.2140 0.9563
C78 C 0.8444(13) 1.210(2) 0.9757(7)
H55 H 0.8513 1.2773 0.9736
C79 C 0.8757(11) 1.144(3) 0.9884(7)
H56 H 0.9047 1.1665 0.9955
C80 C 0.8648(10) 1.046(2) 0.9905(7)
H57 H 0.8871 1.0017 0.9981
C81 C 0.8208(11) 1.010(2) 0.9815(8)
C82 C 0.8504(17) 0.868(4) 1.0184(13)
N17 N 0.8085(12) 0.892(3) 0.9866(9)
O4 O 0.8178(14) 0.771(3) 1.0194(13)
C83 C 0.5960(17) 0.028(3) 0.7891(7)
H58 H 0.5858 -0.0212 0.8039
H59 H 0.6302 0.0295 0.7894
C84 C 0.5795(13) 0.117(3) 0.7972(5)
H60 H 0.6044 0.1533 0.8076
H61 H 0.5536 0.1081 0.8113
C85 C 0.5640(17) 0.172(3) 0.7728(7)
H62 H 0.5319 0.1525 0.7677
H63 H 0.5634 0.2423 0.7782
C86 C 0.5922(17) 0.159(2) 0.7484(9)
H64 H 0.5805 0.2002 0.7319
H65 H 0.6239 0.1821 0.7532
C87 C 0.5943(13) 0.063(3) 0.7391(6)
H66 H 0.6263 0.0482 0.7327
H67 H 0.5735 0.0544 0.7219
C88 C 0.5814(18) -0.002(2) 0.7612(8)
H68 H 0.5473 -0.0092 0.7613
H69 H 0.5950 -0.0670 0.7568
C89? C 0.7988(14) 1.079(2) 0.9761(10)
H70? H 0.7979 1.0708 0.9544
H71? H 0.7958 1.0136 0.9852
C90? C 0.8416(12) 1.118(3) 0.9840(10)
H72? H 0.8481 1.0993 1.0047
H73? H 0.8656 1.0864 0.9715
C91? C 0.8466(11) 1.218(3) 0.9815(10)
H74? H 0.8715 1.2383 0.9951
H75? H 0.8572 1.2322 0.9611
C92? C 0.8080(14) 1.274(2) 0.9871(8)
H76? H 0.8121 1.3380 0.9771
H77? H 0.8066 1.2871 1.0087
C93? C 0.7655(11) 1.235(3) 0.9783(7)
H78? H 0.7402 1.2716 0.9882
H79? H 0.7620 1.2444 0.9567
C94? C 0.7606(10) 1.136(3) 0.9848(8)
H80? H 0.7560 1.1283 1.0064
H81? H 0.7326 1.1109 0.9748
loop_
_geom_bond_atom_site_label_1
_geom_bond_atom_site_label_2
_geom_bond_site_symmetry_1
_geom_bond_site_symmetry_2
Zn1 I1 1_555 1_555
Zn2 I3 1_555 1_555
Zn3 I5 1_555 1_555
I2 Zn1 1_555 1_555
I4 Zn2 1_555 1_555
I6 Zn3 1_555 1_555
C1 H1 1_555 1_555
C2 C1 1_555 1_555
H2 C2 1_555 1_555
C3 H3 1_555 1_555
C4 C3 1_555 1_555
H4 C4 1_555 1_555
C5 C2 1_555 1_555
C6 C5 1_555 1_555
C7 H5 1_555 1_555
C8 C7 1_555 1_555
H6 C8 1_555 1_555
C9 H7 1_555 1_555
C10 C9 1_555 1_555
H8 C10 1_555 1_555
C11 C8 1_555 1_555
C12 C11 1_555 1_555
C13 H9 1_555 1_555
C14 C13 1_555 1_555
H10 C14 1_555 1_555
C15 H11 1_555 1_555
C16 C15 1_555 1_555
H12 C16 1_555 1_555
C17 C14 1_555 1_555
C18 C17 1_555 1_555
C19 H13 1_555 1_555
C20 C19 1_555 1_555
H14 C20 1_555 1_555
C21 H15 1_555 1_555
C22 C21 1_555 1_555
H16 C22 1_555 1_555
C23 C20 1_555 1_555
C24 C23 1_555 1_555
C25 H17 1_555 1_555
C26 C25 1_555 1_555
H18 C26 1_555 1_555
C27 H19 1_555 1_555
C28 C27 1_555 1_555
H20 C28 1_555 1_555
C29 C26 1_555 1_555
C30 C29 1_555 1_555
C31 H21 1_555 1_555
C32 C31 1_555 1_555
H22 C32 1_555 1_555
C33 H23 1_555 1_555
C34 C33 1_555 1_555
H24 C34 1_555 1_555
C35 C32 1_555 1_555
C36 C35 1_555 1_555
N1 Zn1 1_555 1_555
N2 Zn3 1_555 1_555
N3 Zn2 1_555 1_555
N4 C6 1_555 1_555
N5 C12 1_555 1_555
N6 C6 1_555 1_555
N7 C31 1_555 1_555
N8 C19 1_555 1_555
N9 Zn1 1_555 1_555
N10 C24 1_555 1_555
N11 C24 1_555 1_555
N12 C30 1_555 1_555
C37 C38 1_555 1_555
C38 H25 1_555 1_555
C39 C38 1_555 1_555
C40 C39 1_555 1_555
H26 C40 1_555 1_555
C41 C40 1_555 1_555
H27 C41 1_555 1_555
C42 C37 1_555 1_555
C43 C42 1_555 1_555
C44 C43 1_555 1_555
H28 C44 1_555 1_555
C45 C44 1_555 1_555
H29 C45 1_555 1_555
C46 C45 1_555 1_555
H30 C46 1_555 1_555
C47 C46 1_555 1_555
H31 C47 1_555 1_555
C48 C43 1_555 1_555
C49 C48 1_555 1_555
C50 C49 1_555 1_555
H32 C50 1_555 1_555
C51 C50 1_555 1_555
H33 C51 1_555 1_555
C52 C51 1_555 1_555
H34 C52 1_555 1_555
C53 C52 1_555 1_555
H35 C53 1_555 1_555
C54 C37 1_555 1_555
C55 N13 1_555 1_555
C56 C57 1_555 1_555
C57 H36 1_555 1_555
C58 C57 1_555 1_555
H37 C58 1_555 1_555
C59 C58 1_555 1_555
H38 C59 1_555 1_555
C60 C59 1_555 1_555
H39 C60 1_555 1_555
C61 C56 1_555 1_555
H40 C61 1_555 1_555
N13 C39 1_555 1_555
H41 N13 1_555 1_555
N14 C55 1_555 1_555
H42 N14 1_555 1_555
O1 C55 1_555 1_555
C62 H43 1_555 1_555
C63 C62 1_555 1_555
H44 C63 1_555 1_555
C64 C63 1_555 1_555
H45 C64 1_555 1_555
C65 C64 1_555 1_555
H46 C65 1_555 1_555
C66 C65 1_555 1_555
H47 C66 1_555 1_555
C67 C62 1_555 1_555
C68 N15 1_555 1_555
N15 C67 1_555 1_555
O2 C68 1_555 1_555
C69 H48 1_555 1_555
C70 C69 1_555 1_555
H49 C70 1_555 1_555
C71 C70 1_555 1_555
H50 C71 1_555 1_555
C72 C71 1_555 1_555
H51 C72 1_555 1_555
C73 C72 1_555 1_555
H52 C73 1_555 1_555
C74 C69 1_555 1_555
C75 N16 1_555 1_555
N16 C74 1_555 1_555
O3 C75 1_555 1_555
C76 H53 1_555 1_555
C77 C76 1_555 1_555
H54 C77 1_555 1_555
C78 C77 1_555 1_555
H55 C78 1_555 1_555
C79 C78 1_555 1_555
H56 C79 1_555 1_555
C80 C79 1_555 1_555
H57 C80 1_555 1_555
C81 C76 1_555 1_555
C82 N17 1_555 1_555
N17 C81 1_555 1_555
O4 C82 1_555 1_555
C83 H58 1_555 1_555
H59 C83 1_555 1_555
C84 C83 1_555 1_555
H60 C84 1_555 1_555
H61 C84 1_555 1_555
C85 C84 1_555 1_555
H62 C85 1_555 1_555
H63 C85 1_555 1_555
C86 C85 1_555 1_555
H64 C86 1_555 1_555
H65 C86 1_555 1_555
C87 C86 1_555 1_555
H66 C87 1_555 1_555
H67 C87 1_555 1_555
C88 C83 1_555 1_555
H68 C88 1_555 1_555
H69 C88 1_555 1_555
Zn2C N8 1_555 1_555
Zn3B N7 1_555 1_555
N7B Zn3 1_555 1_555
N8C Zn2 1_555 1_555
C1 N1 1_555 1_555
C3 N1 1_555 1_555
C4 C5 1_555 1_555
C7 N2 1_555 1_555
C9 N2 1_555 1_555
C10 C11 1_555 1_555
C12 N4 1_555 1_555
C13 N3 1_555 1_555
C15 N3 1_555 1_555
C16 C17 1_555 1_555
C18 N5 1_555 1_555
C18 N6 1_555 1_555
C21 N8 1_555 1_555
C22 C23 1_555 1_555
C25 N9 1_555 1_555
C27 N9 1_555 1_555
C28 C29 1_555 1_555
C30 N11 1_555 1_555
C33 N7 1_555 1_555
C34 C35 1_555 1_555
C36 N10 1_555 1_555
C36 N12 1_555 1_555
C41 C42 1_555 1_555
C47 C48 1_555 1_555
C49 C54 1_555 1_555
C53 C54 1_555 1_555
C56 N14 1_555 1_555
C60 C61 1_555 1_555
C66 C67 1_555 1_555
C73 C74 1_555 1_555
C80 C81 1_555 1_555
C87 C88 1_555 1_555

#END
