
#######################################################################
#
#                 Cambridge Crystallographic Data Centre
#                                CCDC 
#
#######################################################################
#
# If this CIF has been generated from an entry in the Cambridge 
# Structural Database, then it will include bibliographic, chemical, 
# crystal, experimental, refinement or atomic coordinate data resulting 
# from the CCDC's data processing and validation procedures.
#
#######################################################################

data_SOHNOU
_symmetry_cell_setting           orthorhombic
_symmetry_space_group_name_H-M   'P b c n'
_symmetry_Int_Tables_number      60
_space_group_name_Hall           '-P 2n 2ab'
loop_
_symmetry_equiv_pos_site_id
_symmetry_equiv_pos_as_xyz
1 x,y,z
2 1/2-x,1/2-y,1/2+z
3 1/2+x,1/2-y,-z
4 -x,y,1/2-z
5 -x,-y,-z
6 1/2+x,1/2+y,1/2-z
7 1/2-x,1/2+y,z
8 x,-y,1/2+z
_cell_length_a                   20.0705(15)
_cell_length_b                   7.3462(5)
_cell_length_c                   10.4306(8)
_cell_angle_alpha                90
_cell_angle_beta                 90
_cell_angle_gamma                90
_cell_volume                     1537.91
loop_
_atom_site_label
_atom_site_type_symbol
_atom_site_fract_x
_atom_site_fract_y
_atom_site_fract_z
La1 La 0.127493(13) 0.73092(4) 0.04903(3)
Mo1 Mo 0.32456(2) 0.73114(6) -0.08152(4)
O1 O 0.04071(18) 0.9147(5) 0.1782(4)
O2 O 0.04291(16) 0.5504(5) 0.1821(3)
O3 O 0.2426(2) 0.7644(5) -0.0302(4)
O4 O 0.13797(19) 1.0629(5) 0.0125(3)
O5 O 0.17529(16) 0.8519(5) 0.2580(3)
O6 O 0.19529(18) 0.4919(6) 0.1790(3)
H1 H 0.2351 0.4466 0.1683
H2 H 0.1744 0.3837 0.2131
O7 O 0.1301(2) 0.7885(6) -0.2033(4)
H3 H 0.0898 0.7662 -0.2238
H4 H 0.1463 0.8861 -0.2336
O8 O 0.12798(15) 0.4313(5) -0.0670(3)
O9 O 0.0120(3) 0.7541(5) -0.0687(5)
H5 H -0.0064 0.6655 -0.0988
H6 H -0.0084 0.8511 -0.0868
C1 C 0.0000 0.8382(10) 0.2500
C2 C 0.0000 0.6257(9) 0.2500
O1C O -0.04071(18) 0.9147(5) 0.3218(4)
O2C O -0.04291(16) 0.5504(5) 0.3179(3)
La1C La -0.127493(13) 0.73092(4) 0.45097(3)
Mo1C Mo -0.32456(2) 0.73114(6) 0.58152(4)
O3C O -0.2426(2) 0.7644(5) 0.5302(4)
O4C O -0.13797(19) 1.0629(5) 0.4875(3)
O5C O -0.17529(16) 0.8519(5) 0.2420(3)
O6C O -0.19529(18) 0.4919(6) 0.3210(3)
H1C H -0.2351 0.4466 0.3317
H2C H -0.1744 0.3837 0.2869
O7C O -0.1301(2) 0.7885(6) 0.7033(4)
H3C H -0.0898 0.7662 0.7238
H4C H -0.1463 0.8861 0.7336
O8C O -0.12798(15) 0.4313(5) 0.5670(3)
O9C O -0.0120(3) 0.7541(5) 0.5687(5)
H5C H 0.0064 0.6655 0.5988
H6C H 0.0084 0.8511 0.5868
Mo1A Mo 0.17544(2) 0.76886(6) 0.41848(4)
Mo1B Mo -0.17544(2) 0.76886(6) 0.08152(4)
Mo1E Mo -0.17544(2) 0.23114(6) 0.58152(4)
Mo1E_2 Mo -0.17544(2) 1.23114(6) 0.58152(4)
Mo1F Mo 0.17544(2) 0.23114(6) -0.08152(4)
Mo1F_2 Mo 0.17544(2) 1.23114(6) -0.08152(4)
O4E O -0.36203(19) 0.5629(5) 0.4875(3)
O4F O 0.36203(19) 0.5629(5) 0.0125(3)
O5A O 0.32471(16) 0.6481(5) -0.2420(3)
O5B O -0.32471(16) 0.6481(5) 0.7420(3)
O8E O -0.37202(15) 0.9313(5) 0.5670(3)
O8F O 0.37202(15) 0.9313(5) -0.0670(3)
loop_
_geom_bond_atom_site_label_1
_geom_bond_atom_site_label_2
_geom_bond_site_symmetry_1
_geom_bond_site_symmetry_2
La1 O1 1_555 1_555
Mo1 O3 1_555 1_555
O1 C1 1_555 1_555
O2 La1 1_555 1_555
O3 La1 1_555 1_555
O4 La1 1_555 1_555
O5 La1 1_555 1_555
O6 La1 1_555 1_555
H1 O6 1_555 1_555
H2 O6 1_555 1_555
O7 La1 1_555 1_555
H3 O7 1_555 1_555
H4 O7 1_555 1_555
O8 La1 1_555 1_555
O9 La1 1_555 1_555
H5 O9 1_555 1_555
H6 O9 1_555 1_555
C1 C2 1_555 1_555
C2 O2 1_555 1_555
O1C C1 1_555 1_555
O2C C2 1_555 1_555
La1C O1C 1_555 1_555
Mo1C O3C 1_555 1_555
O3C La1C 1_555 1_555
O4C La1C 1_555 1_555
O5C La1C 1_555 1_555
O6C La1C 1_555 1_555
H1C O6C 1_555 1_555
H2C O6C 1_555 1_555
O7C La1C 1_555 1_555
H3C O7C 1_555 1_555
H4C O7C 1_555 1_555
O8C La1C 1_555 1_555
O9C La1C 1_555 1_555
H5C O9C 1_555 1_555
H6C O9C 1_555 1_555
Mo1A O5 1_555 1_555
Mo1B O5C 1_555 1_555
Mo1E O8C 1_555 1_555
Mo1E_2 O4C 1_555 1_555
Mo1F O8 1_555 1_555
Mo1F_2 O4 1_555 1_555
O4E Mo1C 1_555 1_555
O4F Mo1 1_555 1_555
O5A Mo1 1_555 1_555
O5B Mo1C 1_555 1_555
O8E Mo1C 1_555 1_555
O8F Mo1 1_555 1_555
O2C La1C 1_555 1_555

#END
