
#######################################################################
#
#                 Cambridge Crystallographic Data Centre
#                                CCDC 
#
#######################################################################
#
# If this CIF has been generated from an entry in the Cambridge 
# Structural Database, then it will include bibliographic, chemical, 
# crystal, experimental, refinement or atomic coordinate data resulting 
# from the CCDC's data processing and validation procedures.
#
#######################################################################

data_SOHNEJ
_symmetry_cell_setting           orthorhombic
_symmetry_space_group_name_H-M   'P b c a'
_symmetry_Int_Tables_number      61
_space_group_name_Hall           '-P 2ac 2ab'
loop_
_symmetry_equiv_pos_site_id
_symmetry_equiv_pos_as_xyz
1 x,y,z
2 1/2-x,-y,1/2+z
3 -x,1/2+y,1/2-z
4 1/2+x,1/2-y,-z
5 -x,-y,-z
6 1/2+x,y,1/2-z
7 x,1/2-y,1/2+z
8 1/2-x,1/2+y,z
_cell_length_a                   13.6728(3)
_cell_length_b                   45.5987(7)
_cell_length_c                   28.4576(3)
_cell_angle_alpha                90
_cell_angle_beta                 90
_cell_angle_gamma                90
_cell_volume                     17742.2
loop_
_atom_site_label
_atom_site_type_symbol
_atom_site_fract_x
_atom_site_fract_y
_atom_site_fract_z
Zn1 Zn 0.33055(6) 0.568229(16) 0.56324(3)
Zn2 Zn 0.63817(6) 0.810057(16) 0.75686(3)
Zn3 Zn 0.34718(7) 0.58737(2) 1.02618(3)
I1 I 0.40234(5) 0.596605(11) 0.495380(19)
I2 I 0.15060(4) 0.555327(12) 0.57667(2)
I3 I 0.80099(4) 0.803272(12) 0.79881(2)
I4 I 0.63409(6) 0.824702(15) 0.67096(2)
I5 I 0.27007(5) 0.537427(17) 1.01020(2)
I6 I 0.26145(5) 0.62796(2) 1.07173(3)
C1 C 0.4153(5) 0.64139(13) 0.7486(3)
C2 C 0.4528(5) 0.68484(13) 0.7824(3)
C3 C 0.4170(5) 0.64556(13) 0.8273(3)
C4 C 0.4015(5) 0.62402(12) 0.7046(2)
C5 C 0.3748(5) 0.59473(13) 0.7068(3)
H1 H 0.3671 0.5853 0.7363
C6 C 0.3598(5) 0.57968(14) 0.6660(3)
H2 H 0.3420 0.5596 0.6680
C7 C 0.3963(5) 0.61983(13) 0.6213(3)
H3 H 0.4044 0.6285 0.5911
C8 C 0.4134(5) 0.63670(13) 0.6605(3)
H4 H 0.4330 0.6566 0.6576
C9 C 0.4868(4) 0.71569(13) 0.7771(3)
C10 C 0.4819(5) 0.72957(13) 0.7345(3)
H5 H 0.4521 0.7201 0.7084
C11 C 0.5208(5) 0.75767(13) 0.7298(3)
H6 H 0.5166 0.7674 0.7003
C12 C 0.5666(7) 0.75807(17) 0.8075(3)
H7 H 0.5954 0.7680 0.8334
C13 C 0.5284(6) 0.72999(17) 0.8144(3)
H8 H 0.5312 0.7210 0.8445
C14 C 0.4069(5) 0.63164(14) 0.8741(3)
C15 C 0.4073(6) 0.64856(17) 0.9150(3)
H9 H 0.4155 0.6692 0.9135
C16 C 0.3957(6) 0.63470(17) 0.9575(3)
H10 H 0.3971 0.6463 0.9852
C17 C 0.3827(5) 0.58963(16) 0.9223(3)
H11 H 0.3735 0.5690 0.9247
C18 C 0.3958(5) 0.60202(14) 0.8784(3)
H12 H 0.3971 0.5899 0.8512
C19 C 0.5826(5) 0.45546(14) 0.6075(3)
C20 C 0.5914(5) 0.41001(13) 0.6383(2)
C21 C 0.7254(5) 0.43054(13) 0.6066(2)
C22 C 0.5241(5) 0.48167(13) 0.5946(3)
C23 C 0.5605(6) 0.50352(14) 0.5665(3)
H13 H 0.6253 0.5024 0.5545
C24 C 0.5009(6) 0.52739(15) 0.5557(3)
H14 H 0.5254 0.5422 0.5354
C25 C 0.3744(6) 0.50879(14) 0.5985(3)
H15 H 0.3083 0.5100 0.6086
C26 C 0.4293(5) 0.48431(13) 0.6113(3)
H16 H 0.4021 0.4697 0.6312
C27 C 0.5407(5) 0.38509(13) 0.6604(3)
C28 C 0.4395(5) 0.38444(15) 0.6619(3)
H17 H 0.4029 0.4000 0.6483
C29 C 0.3917(6) 0.36131(15) 0.6830(3)
H18 H 0.3222 0.3607 0.6825
C30 C 0.5378(6) 0.33996(15) 0.7028(3)
H19 H 0.5723 0.3243 0.7171
C31 C 0.5911(6) 0.36240(15) 0.6809(3)
H20 H 0.6605 0.3619 0.6803
C32 C 0.8286(5) 0.42781(14) 0.5907(2)
C33 C 0.8834(6) 0.40297(16) 0.6011(3)
H21 H 0.8564 0.3881 0.6206
C34 C 0.9755(5) 0.39973(16) 0.5836(3)
H22 H 1.0112 0.3825 0.5912
C35 C 0.9658(6) 0.44387(18) 0.5467(3)
H23 H 0.9950 0.4586 0.5277
C36 C 0.8732(6) 0.44859(18) 0.5628(3)
H24 H 0.8395 0.4661 0.5548
N1 N 0.4382(4) 0.67009(10) 0.7422(2)
N2 N 0.4412(4) 0.67415(11) 0.8254(2)
N3 N 0.4044(4) 0.62833(11) 0.7893(2)
N4 N 0.3687(4) 0.59164(11) 0.6239(2)
N5 N 0.5642(4) 0.77137(11) 0.7661(2)
N6 N 0.3826(4) 0.60608(13) 0.9620(2)
N7 N 0.5367(4) 0.43382(11) 0.6279(2)
N8 N 0.6872(4) 0.40754(11) 0.6286(2)
N9 N 0.6792(4) 0.45551(11) 0.5957(2)
N10 N 0.4101(4) 0.53017(11) 0.5730(2)
N11 N 0.4404(4) 0.33993(11) 0.7041(2)
N12 N 1.0178(5) 0.42002(14) 0.5558(2)
Zn2B Zn 0.36183(6) 0.310057(16) 0.74314(3)
Zn3A Zn 1.15282(7) 0.41263(2) 0.52618(3)
N11B N 0.5596(4) 0.83993(11) 0.7959(2)
N12A N 0.4822(5) 0.57998(14) 1.0558(2)
C37 C 0.1572(6) 0.6255(3) 0.7761(5)
C38 C 0.1347(9) 0.6011(4) 0.7465(7)
H25 H 0.1203 0.5821 0.7586
C39 C 0.1355(8) 0.6076(3) 0.6961(6)
H26 H 0.1231 0.5924 0.6742
C40 C 0.1541(7) 0.6356(3) 0.6800(5)
C41 C 0.1793(8) 0.6608(3) 0.7114(6)
H27 H 0.1946 0.6796 0.6990
C42 C 0.1793(7) 0.6556(3) 0.7583(6)
C43 C 0.1967(7) 0.6776(3) 0.7861(6)
C44 C 0.2266(7) 0.7078(3) 0.7679(6)
H28 H 0.2329 0.7114 0.7352
C45 C 0.2445(8) 0.7302(3) 0.8007(6)
H29 H 0.2649 0.7484 0.7880
C46 C 0.2360(11) 0.7290(4) 0.8512(7)
H30 H 0.2479 0.7447 0.8723
C47 C 0.2055(9) 0.6992(3) 0.8639(6)
H31 H 0.1965 0.6968 0.8968
C48 C 0.1873(8) 0.6740(3) 0.8395(6)
C49 C 0.1647(6) 0.6460(2) 0.8557(6)
C50 C 0.1570(8) 0.6417(3) 0.9069(6)
H32 H 0.1637 0.6579 0.9277
C51 C 0.1413(8) 0.6160(4) 0.9231(6)
H33 H 0.1369 0.6130 0.9560
C52 C 0.1305(8) 0.5923(4) 0.8923(7)
H34 H 0.1172 0.5737 0.9060
C53 C 0.1372(7) 0.5933(3) 0.8444(5)
H35 H 0.1315 0.5764 0.8250
C54 C 0.1537(6) 0.6219(2) 0.8263(5)
C55 C 0.1480(7) 0.6409(3) 0.6294(5)
H36 H 0.1422 0.6249 0.6083
C56 C 0.1376(10) 0.6696(3) 0.5634(5)
C57 C 0.0942(12) 0.6944(3) 0.5481(5)
H37 H 0.0794 0.7096 0.5698
C58 C 0.0710(18) 0.6979(3) 0.5005(5)
H38 H 0.0327 0.7142 0.4908
C59 C 0.1026(17) 0.6782(5) 0.4681(7)
H39 H 0.0907 0.6803 0.4354
C60 C 0.1534(14) 0.6551(5) 0.4870(8)
H40 H 0.1784 0.6411 0.4655
C61 C 0.1711(10) 0.6505(3) 0.5318(6)
H41 H 0.2072 0.6337 0.5415
N13 N 0.1503(7) 0.6669(2) 0.6137(5)
C62 C 0.2951(10) 0.5220(3) 0.8515(4)
H42 H 0.2715 0.5117 0.8800
H43 H 0.2829 0.5432 0.8557
C63 C 0.4072(11) 0.5165(3) 0.8456(5)
H44 H 0.4419 0.5253 0.8727
H45 H 0.4194 0.4952 0.8463
C64 C 0.4497(10) 0.5288(2) 0.8013(5)
H46 H 0.5196 0.5233 0.7987
H47 H 0.4449 0.5505 0.8014
C65 C 0.3929(14) 0.5163(3) 0.7604(5)
H48 H 0.4196 0.5246 0.7309
H49 H 0.4030 0.4948 0.7595
C66 C 0.2866(13) 0.5223(3) 0.7623(5)
H50 H 0.2543 0.5127 0.7352
H51 H 0.2757 0.5437 0.7596
C67 C 0.2390(10) 0.5110(3) 0.8089(4)
H52 H 0.1704 0.5178 0.8107
H53 H 0.2385 0.4893 0.8089
C68 C 0.9242(17) 0.7307(5) 0.4150(11)
H54 H 0.9491 0.7152 0.4363
H55 H 0.9269 0.7230 0.3825
C69 C 0.8144(17) 0.7377(5) 0.4281(12)
H56 H 0.7721 0.7211 0.4184
H57 H 0.8083 0.7400 0.4625
C70 C 0.7816(17) 0.7652(6) 0.4040(14)
H58 H 0.7742 0.7611 0.3700
H59 H 0.7163 0.7707 0.4163
C71 C 0.8476(16) 0.7904(5) 0.4097(14)
H60 H 0.8279 0.8053 0.3861
H61 H 0.8341 0.7990 0.4410
C72 C 0.9490(15) 0.7871(5) 0.4061(10)
H62 H 0.9806 0.8017 0.4269
H63 H 0.9688 0.7917 0.3734
C73 C 0.9883(15) 0.7567(5) 0.4186(11)
H64 H 1.0459 0.7530 0.3984
H65 H 1.0123 0.7576 0.4514
C74 C 1.0658(14) 0.8049(4) 0.5503(11)
H66 H 1.1298 0.8102 0.5642
H67 H 1.0751 0.8025 0.5160
C75 C 1.0311(17) 0.7754(5) 0.5715(12)
H68 H 1.0626 0.7595 0.5532
H69 H 1.0575 0.7742 0.6038
C76 C 0.9246(17) 0.7684(4) 0.5742(11)
H70 H 0.9050 0.7588 0.5445
H71 H 0.9144 0.7542 0.5999
C77 C 0.8615(16) 0.7930(4) 0.5819(11)
H72 H 0.7981 0.7884 0.5668
H73 H 0.8492 0.7941 0.6161
C78 C 0.8883(13) 0.8214(4) 0.5670(10)
H74 H 0.8636 0.8355 0.5907
H75 H 0.8530 0.8255 0.5374
C79 C 0.9968(13) 0.8284(4) 0.5587(11)
H76 H 1.0004 0.8419 0.5314
H77 H 1.0204 0.8395 0.5864
C80 C 0.1720(15) 0.4061(5) 0.7247(8)
H78 H 0.1909 0.3923 0.6994
H79 H 0.1786 0.3957 0.7550
C81 C 0.2434(16) 0.4328(5) 0.7241(9)
H80 H 0.2349 0.4445 0.7530
H81 H 0.3119 0.4258 0.7229
C82 C 0.2222(16) 0.4508(5) 0.6827(10)
H82 H 0.2695 0.4672 0.6805
H83 H 0.2273 0.4389 0.6538
C83 C 0.1241(16) 0.4621(4) 0.6878(11)
H84 H 0.1208 0.4732 0.7176
H85 H 0.1120 0.4762 0.6620
C84 C 0.0479(13) 0.4413(3) 0.6877(7)
H86 H 0.0365 0.4348 0.6550
H87 H -0.0127 0.4509 0.6989
C85 C 0.0679(15) 0.4148(4) 0.7180(8)
H88 H 0.0391 0.4184 0.7494
H89 H 0.0327 0.3979 0.7041
loop_
_geom_bond_atom_site_label_1
_geom_bond_atom_site_label_2
_geom_bond_site_symmetry_1
_geom_bond_site_symmetry_2
Zn1 I1 1_555 1_555
Zn2 I3 1_555 1_555
Zn3 I5 1_555 1_555
I2 Zn1 1_555 1_555
I4 Zn2 1_555 1_555
I6 Zn3 1_555 1_555
C1 C4 1_555 1_555
C2 C9 1_555 1_555
C3 C14 1_555 1_555
C4 C5 1_555 1_555
C5 H1 1_555 1_555
C6 C5 1_555 1_555
H2 C6 1_555 1_555
C7 H3 1_555 1_555
C8 C4 1_555 1_555
H4 C8 1_555 1_555
C9 C10 1_555 1_555
C10 H5 1_555 1_555
C11 C10 1_555 1_555
H6 C11 1_555 1_555
C12 H7 1_555 1_555
C13 C9 1_555 1_555
H8 C13 1_555 1_555
C14 C15 1_555 1_555
C15 H9 1_555 1_555
C16 C15 1_555 1_555
H10 C16 1_555 1_555
C17 H11 1_555 1_555
C18 C14 1_555 1_555
H12 C18 1_555 1_555
C19 C22 1_555 1_555
C20 C27 1_555 1_555
C21 C32 1_555 1_555
C22 C23 1_555 1_555
C23 H13 1_555 1_555
C24 C23 1_555 1_555
H14 C24 1_555 1_555
C25 H15 1_555 1_555
C26 C22 1_555 1_555
H16 C26 1_555 1_555
C27 C28 1_555 1_555
C28 H17 1_555 1_555
C29 C28 1_555 1_555
H18 C29 1_555 1_555
C30 H19 1_555 1_555
C31 C27 1_555 1_555
H20 C31 1_555 1_555
C32 C33 1_555 1_555
C33 H21 1_555 1_555
C34 C33 1_555 1_555
H22 C34 1_555 1_555
C35 H23 1_555 1_555
C36 C32 1_555 1_555
H24 C36 1_555 1_555
N1 C1 1_555 1_555
N2 C2 1_555 1_555
N3 C1 1_555 1_555
N4 Zn1 1_555 1_555
N5 Zn2 1_555 1_555
N6 Zn3 1_555 1_555
N7 C19 1_555 1_555
N8 C20 1_555 1_555
N9 C19 1_555 1_555
N10 Zn1 1_555 1_555
N11 C29 1_555 1_555
N12 C34 1_555 1_555
C37 C38 1_555 1_555
C38 H25 1_555 1_555
C39 C38 1_555 1_555
H26 C39 1_555 1_555
C40 C39 1_555 1_555
C41 C40 1_555 1_555
H27 C41 1_555 1_555
C42 C37 1_555 1_555
C43 C42 1_555 1_555
C44 C43 1_555 1_555
H28 C44 1_555 1_555
C45 C44 1_555 1_555
H29 C45 1_555 1_555
C46 C45 1_555 1_555
H30 C46 1_555 1_555
C47 C46 1_555 1_555
H31 C47 1_555 1_555
C48 C43 1_555 1_555
C49 C48 1_555 1_555
C50 C49 1_555 1_555
H32 C50 1_555 1_555
C51 C50 1_555 1_555
H33 C51 1_555 1_555
C52 C51 1_555 1_555
H34 C52 1_555 1_555
C53 C52 1_555 1_555
H35 C53 1_555 1_555
C54 C37 1_555 1_555
C55 C40 1_555 1_555
H36 C55 1_555 1_555
C56 C57 1_555 1_555
C57 H37 1_555 1_555
C58 C57 1_555 1_555
H38 C58 1_555 1_555
C59 C58 1_555 1_555
H39 C59 1_555 1_555
C60 C59 1_555 1_555
H40 C60 1_555 1_555
C61 C56 1_555 1_555
H41 C61 1_555 1_555
N13 C55 1_555 1_555
C62 H42 1_555 1_555
H43 C62 1_555 1_555
C63 C62 1_555 1_555
H44 C63 1_555 1_555
H45 C63 1_555 1_555
C64 C63 1_555 1_555
H46 C64 1_555 1_555
H47 C64 1_555 1_555
C65 C64 1_555 1_555
H48 C65 1_555 1_555
H49 C65 1_555 1_555
C66 C65 1_555 1_555
H50 C66 1_555 1_555
H51 C66 1_555 1_555
C67 C62 1_555 1_555
H52 C67 1_555 1_555
H53 C67 1_555 1_555
C68 H54 1_555 1_555
H55 C68 1_555 1_555
C69 C68 1_555 1_555
H56 C69 1_555 1_555
H57 C69 1_555 1_555
C70 C69 1_555 1_555
H58 C70 1_555 1_555
H59 C70 1_555 1_555
C71 C70 1_555 1_555
H60 C71 1_555 1_555
H61 C71 1_555 1_555
C72 C71 1_555 1_555
H62 C72 1_555 1_555
H63 C72 1_555 1_555
C73 C68 1_555 1_555
H64 C73 1_555 1_555
H65 C73 1_555 1_555
C74 H66 1_555 1_555
H67 C74 1_555 1_555
C75 C74 1_555 1_555
H68 C75 1_555 1_555
H69 C75 1_555 1_555
C76 C75 1_555 1_555
H70 C76 1_555 1_555
H71 C76 1_555 1_555
C77 C76 1_555 1_555
H72 C77 1_555 1_555
H73 C77 1_555 1_555
C78 C77 1_555 1_555
H74 C78 1_555 1_555
H75 C78 1_555 1_555
C79 C74 1_555 1_555
H76 C79 1_555 1_555
H77 C79 1_555 1_555
C80 H78 1_555 1_555
H79 C80 1_555 1_555
C81 C80 1_555 1_555
H80 C81 1_555 1_555
H81 C81 1_555 1_555
C82 C81 1_555 1_555
H82 C82 1_555 1_555
H83 C82 1_555 1_555
C83 C82 1_555 1_555
H84 C83 1_555 1_555
H85 C83 1_555 1_555
C84 C83 1_555 1_555
H86 C84 1_555 1_555
H87 C84 1_555 1_555
C85 C80 1_555 1_555
H88 C85 1_555 1_555
H89 C85 1_555 1_555
Zn2B N11 1_555 1_555
Zn3A N12 1_555 1_555
N11B Zn2 1_555 1_555
N12A Zn3 1_555 1_555
C2 N1 1_555 1_555
C3 N2 1_555 1_555
C3 N3 1_555 1_555
C6 N4 1_555 1_555
C7 C8 1_555 1_555
C7 N4 1_555 1_555
C11 N5 1_555 1_555
C12 C13 1_555 1_555
C12 N5 1_555 1_555
C16 N6 1_555 1_555
C17 C18 1_555 1_555
C17 N6 1_555 1_555
C20 N7 1_555 1_555
C21 N8 1_555 1_555
C21 N9 1_555 1_555
C24 N10 1_555 1_555
C25 C26 1_555 1_555
C25 N10 1_555 1_555
C30 C31 1_555 1_555
C30 N11 1_555 1_555
C35 C36 1_555 1_555
C35 N12 1_555 1_555
C41 C42 1_555 1_555
C47 C48 1_555 1_555
C49 C54 1_555 1_555
C53 C54 1_555 1_555
C56 N13 1_555 1_555
C60 C61 1_555 1_555
C66 C67 1_555 1_555
C72 C73 1_555 1_555
C78 C79 1_555 1_555
C84 C85 1_555 1_555

#END
