
#######################################################################
#
#                 Cambridge Crystallographic Data Centre
#                                CCDC 
#
#######################################################################
#
# If this CIF has been generated from an entry in the Cambridge 
# Structural Database, then it will include bibliographic, chemical, 
# crystal, experimental, refinement or atomic coordinate data resulting 
# from the CCDC's data processing and validation procedures.
#
#######################################################################

data_SOHNIO
_symmetry_cell_setting           triclinic
_symmetry_space_group_name_H-M   'P -1'
_symmetry_Int_Tables_number      2
_space_group_name_Hall           '-P 1'
loop_
_symmetry_equiv_pos_site_id
_symmetry_equiv_pos_as_xyz
1 x,y,z
2 -x,-y,-z
_cell_length_a                   5.4013(11)
_cell_length_b                   8.9450(18)
_cell_length_c                   9.6153(19)
_cell_angle_alpha                75.25(3)
_cell_angle_beta                 79.13(3)
_cell_angle_gamma                85.84(3)
_cell_volume                     441.043
loop_
_atom_site_label
_atom_site_type_symbol
_atom_site_fract_x
_atom_site_fract_y
_atom_site_fract_z
Co1 Co 0.0000 0.5000 1.0000
O1 O 0.2874(5) 0.3479(3) 1.0659(3)
O2 O 0.7012(5) 0.3469(3) 1.0688(3)
N1 N 0.0719(6) 0.4339(3) 0.7981(3)
N2 N 0.0828(6) 0.2952(3) 0.6403(3)
N3 N 0.2562(7) 0.4068(4) 0.5733(4)
C1 C 0.2461(8) 0.4861(4) 0.6736(4)
H1 H 0.3481 0.5697 0.6608
C2 C -0.0243(7) 0.3130(4) 0.7714(4)
H2 H -0.1483 0.2503 0.8353
C3 C 0.0389(8) 0.1761(5) 0.5683(4)
H3 H -0.0247 0.2245 0.4791
H4 H -0.0878 0.1064 0.6319
C4 C 0.2781(8) 0.0853(4) 0.5323(4)
C5 C 0.3637(8) -0.0314(4) 0.6412(4)
H5 H 0.2719 -0.0535 0.7358
C6 C 0.4155(8) 0.1143(4) 0.3912(4)
H6 H 0.3586 0.1904 0.3176
C7 C 0.4981(7) 0.4111(4) 1.0385(4)
O1A O 0.7126(5) 0.6521(3) 0.9341(3)
O2A O 0.2988(5) 0.6531(3) 0.9312(3)
C7A C 0.5019(7) 0.5889(4) 0.9615(4)
N1A N 0.9281(6) -0.4339(3) 0.2019(3)
N2A N 0.9172(6) -0.2952(3) 0.3597(3)
N3A N 0.7438(7) -0.4068(4) 0.4267(4)
C1A C 0.7539(8) -0.4861(4) 0.3264(4)
H1A H 0.6519 -0.5697 0.3392
C2A C 1.0243(7) -0.3130(4) 0.2286(4)
H2A H 1.1483 -0.2503 0.1647
C3A C 0.9611(8) -0.1761(5) 0.4317(4)
H3A H 1.0247 -0.2245 0.5209
H4A H 1.0878 -0.1064 0.3681
C4A C 0.7219(8) -0.0853(4) 0.4677(4)
C5A C 0.6363(8) 0.0314(4) 0.3588(4)
H5A H 0.7281 0.0535 0.2642
C6A C 0.5845(8) -0.1143(4) 0.6088(4)
H6A H 0.6414 -0.1904 0.6824
Co1_2 Co 1.0000 -0.5000 0.0000
Co1_3 Co 1.0000 0.5000 1.0000
O1A_2 O -0.2874(5) 0.6521(3) 0.9341(3)
O2_2 O -0.2988(5) 0.3469(3) 1.0688(3)
N1A_2 N -0.0719(6) 0.5661(3) 1.2019(3)
O3 O 0.2317(6) 0.0335(3) 0.0499(3)
loop_
_geom_bond_atom_site_label_1
_geom_bond_atom_site_label_2
_geom_bond_site_symmetry_1
_geom_bond_site_symmetry_2
Co1 O1 1_555 1_555
O1 C7 1_555 1_555
O2 C7 1_555 1_555
N1 Co1 1_555 1_555
N2 N3 1_555 1_555
N3 C1 1_555 1_555
C1 N1 1_555 1_555
H1 C1 1_555 1_555
C2 N1 1_555 1_555
H2 C2 1_555 1_555
C3 N2 1_555 1_555
H3 C3 1_555 1_555
H4 C3 1_555 1_555
C4 C3 1_555 1_555
C5 C4 1_555 1_555
H5 C5 1_555 1_555
C6 C4 1_555 1_555
H6 C6 1_555 1_555
C7 C7A 1_555 1_555
O1A C7A 1_555 1_555
O2A Co1 1_555 1_555
C7A O2A 1_555 1_555
N1A C1A 1_555 1_555
N2A N3A 1_555 1_555
N3A C1A 1_555 1_555
C1A H1A 1_555 1_555
C2A N1A 1_555 1_555
H2A C2A 1_555 1_555
C3A N2A 1_555 1_555
H3A C3A 1_555 1_555
H4A C3A 1_555 1_555
C4A C3A 1_555 1_555
C5A C6 1_555 1_555
H5A C5A 1_555 1_555
C6A C5 1_555 1_555
H6A C6A 1_555 1_555
Co1_2 N1A 1_555 1_555
Co1_3 O2 1_555 1_555
O1A_2 Co1 1_555 1_555
O2_2 Co1 1_555 1_555
N1A_2 Co1 1_555 1_555
N2 C2 1_555 1_555
O1A Co1_3 1_555 1_555
N2A C2A 1_555 1_555
C4A C5A 1_555 1_555
C4A C6A 1_555 1_555

#END
