
#######################################################################
#
#                 Cambridge Crystallographic Data Centre
#                                CCDC 
#
#######################################################################
#
# If this CIF has been generated from an entry in the Cambridge 
# Structural Database, then it will include bibliographic, chemical, 
# crystal, experimental, refinement or atomic coordinate data resulting 
# from the CCDC's data processing and validation procedures.
#
#######################################################################

data_SOHQEN
_symmetry_cell_setting           triclinic
_symmetry_space_group_name_H-M   'P -1'
_symmetry_Int_Tables_number      2
_space_group_name_Hall           '-P 1'
loop_
_symmetry_equiv_pos_site_id
_symmetry_equiv_pos_as_xyz
1 x,y,z
2 -x,-y,-z
_cell_length_a                   10.7961(14)
_cell_length_b                   10.9755(14)
_cell_length_c                   13.0674(17)
_cell_angle_alpha                104.131(2)
_cell_angle_beta                 105.667(2)
_cell_angle_gamma                101.909(2)
_cell_volume                     1382.91
loop_
_atom_site_label
_atom_site_type_symbol
_atom_site_fract_x
_atom_site_fract_y
_atom_site_fract_z
Cd1 Cd 0.35909(2) 0.99693(2) 0.355523(19)
O1 O 0.2281(3) 1.0464(3) 0.4674(2)
O2 O 0.4260(3) 1.0491(4) 0.5710(3)
O3 O 0.2434(5) 1.2919(5) 1.0480(3)
O4 O 0.1683(4) 0.9775(4) 0.1582(3)
O5 O 0.3723(3) 0.9583(4) 0.1828(3)
O6 O 0.0810(4) 0.7607(4) -0.4273(3)
N1 N 0.2497(3) 0.7794(3) 0.3049(3)
N2 N 0.1215(4) 0.5908(3) 0.2959(3)
N3 N -0.4697(3) 0.3998(3) 0.3581(3)
N4 N -0.5439(4) 0.2146(4) 0.3866(3)
C1 C 0.3132(4) 1.0663(4) 0.5614(3)
C2 C 0.2764(4) 1.1137(3) 0.6646(3)
C3 C 0.1450(4) 1.1161(4) 0.6539(3)
H1 H 0.0805 1.0911 0.5830
C4 C 0.1102(4) 1.1559(5) 0.7493(4)
H2 H 0.0218 1.1544 0.7421
C5 C 0.2071(4) 1.1977(4) 0.8549(3)
C6 C 0.3383(4) 1.1968(4) 0.8648(3)
H3 H 0.4036 1.2252 0.9355
C7 C 0.3726(4) 1.1540(4) 0.7706(3)
H4 H 0.4603 1.1521 0.7782
C8 C 0.1700(6) 1.2428(5) 0.9557(4)
H5 H 0.0789 1.2308 0.9444
C9 C 0.2567(4) 0.9528(4) 0.1230(3)
C10 C 0.2341(4) 0.9143(4) -0.0016(3)
C11 C 0.1084(4) 0.8969(4) -0.0812(3)
H6 H 0.0368 0.9096 -0.0575
C12 C 0.0915(4) 0.8609(4) -0.1941(3)
H7 H 0.0085 0.8492 -0.2462
C13 C 0.1985(4) 0.8419(4) -0.2305(3)
C14 C 0.3229(5) 0.8616(4) -0.1532(4)
H8 H 0.3949 0.8517 -0.1772
C15 C 0.3399(4) 0.8960(4) -0.0402(3)
H9 H 0.4233 0.9071 0.0112
C16 C 0.1847(5) 0.7999(5) -0.3490(4)
H10 H 0.2636 0.8036 -0.3657
C17 C 0.1630(4) 0.7203(4) 0.3446(3)
H11 H 0.1343 0.7640 0.4001
C18 C 0.2625(5) 0.6800(5) 0.2250(4)
H12 H 0.3159 0.6914 0.1809
C19 C 0.1853(5) 0.5621(5) 0.2200(5)
H13 H 0.1777 0.4793 0.1744
C20 C 0.0200(4) 0.4970(5) 0.3159(4)
H14 H 0.0308 0.5244 0.3950
H15 H 0.0350 0.4114 0.2971
C21 C -0.1221(4) 0.4851(4) 0.2486(4)
C22 C -0.1627(5) 0.4569(5) 0.1338(4)
H16 H -0.1012 0.4471 0.0968
C23 C -0.2947(5) 0.4430(5) 0.0731(4)
H17 H -0.3210 0.4247 -0.0042
C24 C -0.3870(5) 0.4562(5) 0.1268(4)
H18 H -0.4755 0.4461 0.0856
C25 C -0.3486(4) 0.4844(4) 0.2420(4)
C26 C -0.2155(4) 0.5001(4) 0.3024(4)
H19 H -0.1885 0.5209 0.3800
C27 C -0.4498(5) 0.4985(4) 0.3016(4)
H20 H -0.4191 0.5854 0.3564
H21 H -0.5352 0.4904 0.2474
C28 C -0.5534(5) 0.2775(4) 0.3121(4)
H22 H -0.6104 0.2418 0.2379
C29 C -0.4010(4) 0.4145(4) 0.4687(4)
H23 H -0.3352 0.4887 0.5214
C30 C -0.4485(4) 0.3003(4) 0.4840(4)
H24 H -0.4208 0.2818 0.5509
Cd1_2 Cd -0.64091(2) -0.00307(2) 0.355523(19)
Cd1A Cd 0.64091(2) 1.00307(2) 0.644477(19)
O2A O 0.5740(3) 0.9509(4) 0.4290(3)
N4_2 N 0.4561(4) 1.2146(4) 0.3866(3)
O7 O 0.8077(4) 0.7051(4) 0.5644(4)
H25 H 0.7996 0.7823 0.5800
H26 H 0.8827 0.7320 0.5559
loop_
_geom_bond_atom_site_label_1
_geom_bond_atom_site_label_2
_geom_bond_site_symmetry_1
_geom_bond_site_symmetry_2
Cd1 O1 1_555 1_555
O1 C1 1_555 1_555
O2 Cd1 1_555 1_555
O3 C8 1_555 1_555
O4 Cd1 1_555 1_555
O5 Cd1 1_555 1_555
O6 C16 1_555 1_555
N1 Cd1 1_555 1_555
N2 C17 1_555 1_555
N3 C27 1_555 1_555
N4 C28 1_555 1_555
C1 O2 1_555 1_555
C2 C1 1_555 1_555
C3 C2 1_555 1_555
H1 C3 1_555 1_555
C4 C3 1_555 1_555
H2 C4 1_555 1_555
C5 C4 1_555 1_555
C6 C5 1_555 1_555
H3 C6 1_555 1_555
C7 C2 1_555 1_555
H4 C7 1_555 1_555
C8 C5 1_555 1_555
H5 C8 1_555 1_555
C9 O4 1_555 1_555
C10 C9 1_555 1_555
C11 C10 1_555 1_555
H6 C11 1_555 1_555
C12 C11 1_555 1_555
H7 C12 1_555 1_555
C13 C12 1_555 1_555
C14 C13 1_555 1_555
H8 C14 1_555 1_555
C15 C10 1_555 1_555
H9 C15 1_555 1_555
C16 C13 1_555 1_555
H10 C16 1_555 1_555
C17 N1 1_555 1_555
H11 C17 1_555 1_555
C18 N1 1_555 1_555
H12 C18 1_555 1_555
C19 N2 1_555 1_555
H13 C19 1_555 1_555
C20 N2 1_555 1_555
H14 C20 1_555 1_555
H15 C20 1_555 1_555
C21 C20 1_555 1_555
C22 C21 1_555 1_555
H16 C22 1_555 1_555
C23 C22 1_555 1_555
H17 C23 1_555 1_555
C24 C23 1_555 1_555
H18 C24 1_555 1_555
C25 C24 1_555 1_555
C26 C21 1_555 1_555
H19 C26 1_555 1_555
C27 C25 1_555 1_555
H20 C27 1_555 1_555
H21 C27 1_555 1_555
C28 N3 1_555 1_555
H22 C28 1_555 1_555
C29 N3 1_555 1_555
H23 C29 1_555 1_555
C30 N4 1_555 1_555
H24 C30 1_555 1_555
O7 H25 1_555 1_555
H26 O7 1_555 1_555
Cd1_2 N4 1_555 1_555
Cd1A O2 1_555 1_555
O2A Cd1 1_555 1_555
N4_2 Cd1 1_555 1_555
O5 C9 1_555 1_555
C6 C7 1_555 1_555
C14 C15 1_555 1_555
C18 C19 1_555 1_555
C25 C26 1_555 1_555
C29 C30 1_555 1_555
Cd1A O2A 1_555 1_555

#END
