
#######################################################################
#
#                 Cambridge Crystallographic Data Centre
#                                CCDC 
#
#######################################################################
#
# If this CIF has been generated from an entry in the Cambridge 
# Structural Database, then it will include bibliographic, chemical, 
# crystal, experimental, refinement or atomic coordinate data resulting 
# from the CCDC's data processing and validation procedures.
#
#######################################################################

data_SOHREO
_symmetry_cell_setting           monoclinic
_symmetry_space_group_name_H-M   'P 21/n'
_symmetry_Int_Tables_number      14
_space_group_name_Hall           '-P 2yn'
loop_
_symmetry_equiv_pos_site_id
_symmetry_equiv_pos_as_xyz
1 x,y,z
2 1/2-x,1/2+y,1/2-z
3 -x,-y,-z
4 1/2+x,1/2-y,1/2+z
_cell_length_a                   4.92005(11)
_cell_length_b                   13.1192(3)
_cell_length_c                   13.3172(3)
_cell_angle_alpha                90
_cell_angle_beta                 93.5537(19)
_cell_angle_gamma                90
_cell_volume                     857.934
loop_
_atom_site_label
_atom_site_type_symbol
_atom_site_fract_x
_atom_site_fract_y
_atom_site_fract_z
Hg1 Hg 0.05455(4) 0.149181(14) 0.646922(12)
O1 O -0.2269(8) 0.1187(3) 0.7545(3)
O2 O 0.0486(8) -0.0128(3) 0.7859(3)
N1 N 0.8139(9) 0.2231(3) 0.2928(3)
H1 H 0.891(14) 0.169(5) 0.269(5)
H2 H 0.947(14) 0.267(5) 0.312(5)
C1 C -0.3314(12) 0.0087(5) 0.8879(4)
H3 H -0.3010 0.0563 0.9442
H4 H -0.2877 -0.0607 0.9108
H5 H -0.5226 0.0119 0.8626
C2 C -0.1494(10) 0.0378(4) 0.8040(3)
C3 C 0.3016(11) 0.1742(4) 0.5324(3)
C4 C 0.4612(11) 0.2612(4) 0.5292(4)
H6 H 0.4551 0.3105 0.5813
C5 C 0.6299(11) 0.2774(4) 0.4507(4)
H7 H 0.7319 0.3387 0.4486
C6 C 0.6517(10) 0.2052(4) 0.3753(3)
C7 C 0.4979(11) 0.1169(4) 0.3797(4)
H8 H 0.5143 0.0657 0.3300
C8 C 0.3213(11) 0.1024(4) 0.4549(4)
H9 H 0.2112 0.0429 0.4544
Hg1C Hg 0.55455(4) 0.350819(14) 0.146922(12)
N1C N 0.3139(9) 0.2769(3) 0.7928(3)
loop_
_geom_bond_atom_site_label_1
_geom_bond_atom_site_label_2
_geom_bond_site_symmetry_1
_geom_bond_site_symmetry_2
Hg1 O1 1_555 1_555
O1 C2 1_555 1_555
O2 Hg1 1_555 1_555
N1 H1 1_555 1_555
H2 N1 1_555 1_555
C1 H3 1_555 1_555
H4 C1 1_555 1_555
H5 C1 1_555 1_555
C2 O2 1_555 1_555
C3 Hg1 1_555 1_555
C4 C3 1_555 1_555
H6 C4 1_555 1_555
C5 C4 1_555 1_555
H7 C5 1_555 1_555
C6 N1 1_555 1_555
C7 C6 1_555 1_555
H8 C7 1_555 1_555
C8 C3 1_555 1_555
H9 C8 1_555 1_555
Hg1C N1 1_555 1_555
N1C Hg1 1_555 1_555
C1 C2 1_555 1_555
C5 C6 1_555 1_555
C7 C8 1_555 1_555

#END
