
#######################################################################
#
#                 Cambridge Crystallographic Data Centre
#                                CCDC 
#
#######################################################################
#
# If this CIF has been generated from an entry in the Cambridge 
# Structural Database, then it will include bibliographic, chemical, 
# crystal, experimental, refinement or atomic coordinate data resulting 
# from the CCDC's data processing and validation procedures.
#
#######################################################################

data_SOHRUD02
_symmetry_cell_setting           triclinic
_symmetry_space_group_name_H-M   'P -1'
_symmetry_Int_Tables_number      2
_space_group_name_Hall           '-P 1'
loop_
_symmetry_equiv_pos_site_id
_symmetry_equiv_pos_as_xyz
1 x,y,z
2 -x,-y,-z
_cell_length_a                   10.7539(19)
_cell_length_b                   13.328(2)
_cell_length_c                   13.738(3)
_cell_angle_alpha                98.882(4)
_cell_angle_beta                 112.109(4)
_cell_angle_gamma                96.311(4)
_cell_volume                     1771.75
loop_
_atom_site_label
_atom_site_type_symbol
_atom_site_fract_x
_atom_site_fract_y
_atom_site_fract_z
Br1 Br 1.1205(8) 1.1957(8) 0.0273(10)
C28 C 1.035(6) 1.0932(19) 0.084(3)
C29 C 1.0000 1.0000 0.0000
Br1A Br 0.8795(8) 0.8043(8) -0.0273(10)
C28A C 0.965(6) 0.9068(19) -0.084(3)
Cu1 Cu 1.0000 1.0000 0.5000
O1 O 0.8703(6) 0.8722(3) 0.4730(4)
C1 C 0.7051(17) 0.7540(9) 0.4836(12)
F1 F 0.7835(10) 0.6925(6) 0.5177(9)
F2 F 0.6443(10) 0.7159(6) 0.3817(7)
F3 F 0.6116(9) 0.7416(4) 0.5193(8)
C2 C 0.7762(9) 0.8631(7) 0.5065(8)
C3 C 0.7384(12) 0.9424(9) 0.5554(9)
H1 H 0.674(6) 0.925(4) 0.554(5)
C4 C 0.7909(9) 1.0433(7) 0.5771(7)
C5 C 0.7352(17) 1.1193(9) 0.6300(11)
F4 F 0.8232(12) 1.1578(9) 0.7273(8)
F5 F 0.7244(11) 1.2023(6) 0.5973(9)
F6 F 0.6336(12) 1.0921(5) 0.6456(12)
O2 O 0.8887(6) 1.0818(4) 0.5560(4)
Cu2 Cu 0.5000 0.5000 0.0000
O3 O 0.4881(6) 0.5479(4) -0.1314(5)
C6 C 0.518(2) 0.5609(11) -0.2883(11)
F7 F 0.413(4) 0.597(3) -0.316(2)
F8 F 0.605(6) 0.646(3) -0.274(4)
F9 F 0.517(5) 0.492(2) -0.372(3)
C7 C 0.5497(11) 0.5197(6) -0.1867(8)
C8 C 0.6525(12) 0.4623(7) -0.1606(9)
H2 H 0.690(6) 0.444(4) -0.207(5)
C9 C 0.6976(9) 0.4249(6) -0.0673(8)
C10 C 0.8118(13) 0.3631(11) -0.0475(12)
F16 F 0.897(3) 0.379(3) 0.050(3)
F17 F 0.770(2) 0.2696(11) -0.068(3)
F18 F 0.842(3) 0.3382(18) -0.136(2)
O4 O 0.6535(6) 0.4357(4) 0.0047(4)
O5 O 0.9061(6) 1.0173(4) 0.3222(4)
N1 N 0.7806(8) 1.0248(5) 0.2699(6)
C11 C 0.7432(10) 1.1291(6) 0.2548(7)
C12 C 0.7893(13) 1.1563(9) 0.1671(10)
H3 H 0.7414 1.1051 0.1018
H4 H 0.8857 1.1580 0.1902
H5 H 0.7695 1.2228 0.1545
C13 C 0.8124(13) 1.2092(7) 0.3575(8)
H6 H 0.7795 1.1917 0.4098
H7 H 0.7927 1.2755 0.3441
H8 H 0.9093 1.2117 0.3842
C14 C 0.5861(10) 1.0990(6) 0.2128(7)
C15 C 0.5028(14) 1.1502(8) 0.1245(8)
H9 H 0.5382 1.1459 0.0698
H10 H 0.5084 1.2215 0.1544
H11 H 0.4092 1.1157 0.0937
C16 C 0.5331(12) 1.1076(7) 0.3016(8)
H12 H 0.5864 1.0753 0.3571
H13 H 0.4393 1.0737 0.2724
H14 H 0.5401 1.1791 0.3313
N2 N 0.5652(8) 0.9849(5) 0.1667(6)
O6 O 0.4499(6) 0.9318(4) 0.1066(5)
C17 C 0.6786(10) 0.9467(6) 0.2064(7)
C18 C 0.6911(9) 0.8416(6) 0.1871(6)
C19 C 0.5915(10) 0.7563(6) 0.1213(6)
H15 H 0.5007 0.7597 0.0826
N3 N 0.6421(7) 0.6687(5) 0.1204(5)
N4 N 0.7751(8) 0.6976(5) 0.1871(5)
C20 C 0.8641(11) 0.6232(7) 0.2064(9)
C24 C 0.893(3) 0.602(3) 0.316(2)
H25 H 0.8108 0.6012 0.3291
H26 H 0.9617 0.6585 0.3687
C25 C 0.945(5) 0.499(3) 0.335(7)
H27 H 0.9613 0.4887 0.4069
H28 H 0.8832 0.4396 0.2819
C26 C 1.075(5) 0.526(3) 0.319(4)
H29 H 1.1298 0.4737 0.3376
H30 H 1.1256 0.5915 0.3652
H31 H 1.0540 0.5295 0.2458
C27 C 0.8062(12) 0.7989(7) 0.2268(7)
H32 H 0.884(6) 0.824(4) 0.273(5)
O1A O 1.1297(6) 1.1278(3) 0.5270(4)
C1A C 1.2949(17) 1.2460(9) 0.5164(12)
F1A F 1.2165(10) 1.3075(6) 0.4823(9)
F2A F 1.3557(10) 1.2841(6) 0.6183(7)
F3A F 1.3884(9) 1.2584(4) 0.4807(8)
C2A C 1.2238(9) 1.1369(7) 0.4935(8)
C3A C 1.2616(12) 1.0576(9) 0.4446(9)
H1A H 1.326(6) 1.075(4) 0.446(5)
C4A C 1.2091(9) 0.9567(7) 0.4229(7)
C5A C 1.2648(17) 0.8807(9) 0.3700(11)
F4A F 1.1768(12) 0.8422(9) 0.2727(8)
F5A F 1.2756(11) 0.7977(6) 0.4027(9)
F6A F 1.3664(12) 0.9079(5) 0.3544(12)
O2A O 1.1113(6) 0.9182(4) 0.4440(4)
Cu2_2 Cu 1.5000 1.5000 1.0000
O3A O 0.5119(6) 0.4521(4) 0.1314(5)
C6A C 0.482(2) 0.4391(11) 0.2883(11)
F7A F 0.587(4) 0.403(3) 0.316(2)
F8A F 0.395(6) 0.354(3) 0.274(4)
F9A F 0.483(5) 0.508(2) 0.372(3)
C7A C 0.4503(11) 0.4803(6) 0.1867(8)
C8A C 0.3475(12) 0.5377(7) 0.1606(9)
H2A H 0.310(6) 0.556(4) 0.207(5)
C9A C 0.3024(9) 0.5751(6) 0.0673(8)
C10A C 0.1882(13) 0.6369(11) 0.0475(12)
F16A F 0.103(3) 0.621(3) -0.050(3)
F17A F 0.230(2) 0.7304(11) 0.068(3)
F18A F 0.158(3) 0.6618(18) 0.136(2)
O4A O 0.3465(6) 0.5643(4) -0.0047(4)
O5A O 1.0939(6) 0.9827(4) 0.6778(4)
N1A N 1.2194(8) 0.9752(5) 0.7301(6)
C11A C 1.2568(10) 0.8709(6) 0.7452(7)
C12A C 1.2107(13) 0.8437(9) 0.8329(10)
H3A H 1.2586 0.8949 0.8982
H4A H 1.1143 0.8420 0.8098
H5A H 1.2305 0.7772 0.8455
C13A C 1.1876(13) 0.7908(7) 0.6425(8)
H6A H 1.2205 0.8083 0.5902
H7A H 1.2073 0.7245 0.6559
H8A H 1.0907 0.7883 0.6158
C14A C 1.4139(10) 0.9010(6) 0.7872(7)
C15A C 1.4972(14) 0.8498(8) 0.8755(8)
H9A H 1.4618 0.8541 0.9302
H10A H 1.4916 0.7785 0.8456
H11A H 1.5908 0.8843 0.9063
C16A C 1.4669(12) 0.8924(7) 0.6984(8)
H12A H 1.4136 0.9247 0.6429
H13A H 1.5607 0.9263 0.7276
H14A H 1.4599 0.8209 0.6687
N2A N 1.4348(8) 1.0151(5) 0.8333(6)
O6A O 1.5501(6) 1.0682(4) 0.8934(5)
C17A C 1.3214(10) 1.0533(6) 0.7936(7)
C18A C 1.3089(9) 1.1584(6) 0.8129(6)
C19A C 1.4085(10) 1.2437(6) 0.8787(6)
H15A H 1.4993 1.2403 0.9174
N3A N 1.3579(7) 1.3313(5) 0.8796(5)
N3A_2 N 0.3579(7) 0.3313(5) -0.1204(5)
N4A N 1.2249(8) 1.3024(5) 0.8129(5)
C20A C 1.1359(11) 1.3768(7) 0.7936(9)
C24A C 1.107(3) 1.398(3) 0.684(2)
H25A H 1.1892 1.3988 0.6709
H26A H 1.0383 1.3415 0.6313
C25A C 1.055(5) 1.501(3) 0.665(7)
H27A H 1.0387 1.5113 0.5931
H28A H 1.1168 1.5604 0.7181
C26A C 0.925(5) 1.474(3) 0.681(4)
H29A H 0.8702 1.5263 0.6624
H30A H 0.8744 1.4085 0.6348
H31A H 0.9460 1.4705 0.7542
C27A C 1.1938(12) 1.2011(7) 0.7732(7)
H32A H 1.116(6) 1.176(4) 0.727(5)
F10? F 0.369(4) 0.542(3) -0.342(3)
F11? F 0.566(6) 0.518(3) -0.352(4)
F12? F 0.557(6) 0.6488(19) -0.275(3)
F13? F 0.892(3) 0.381(2) -0.094(2)
F14? F 0.922(4) 0.420(2) 0.027(4)
F15? F 0.775(4) 0.272(3) -0.032(4)
H16? H 0.9233 0.6361 0.1693
H17? H 0.8067 0.5562 0.1692
C21? C 0.954(3) 0.611(2) 0.3153(15)
H18? H 0.9089 0.6261 0.3633
H19? H 1.0374 0.6620 0.3414
C22? C 0.995(3) 0.503(3) 0.323(3)
H20? H 0.9329 0.4579 0.3402
H21? H 1.0040 0.4698 0.2590
C23? C 1.134(3) 0.542(3) 0.419(4)
H22? H 1.1859 0.4871 0.4261
H23? H 1.1199 0.5624 0.4832
H24? H 1.1826 0.5996 0.4058
H33? H 1.0166 1.1062 0.1495
H34? H 1.1200 1.0675 0.1008
H35? H 1.0229 0.9830 -0.0627
H36? H 0.9176 1.0294 -0.0217
C30? C 0.887(5) 0.923(3) -0.013(4)
H37? H 0.8376 0.9297 0.0341
H38? H 0.9686 0.8944 0.0183
C31? C 0.8651(17) 0.8458(19) -0.1244(18)
H39? H 0.8287 0.7748 -0.1252
H40? H 0.7894 0.8809 -0.1530
H41? H 0.9192 0.8459 -0.1687
loop_
_geom_bond_atom_site_label_1
_geom_bond_atom_site_label_2
_geom_bond_site_symmetry_1
_geom_bond_site_symmetry_2
Cu1 O1 1_555 1_555
O1 C2 1_555 1_555
C1 F1 1_555 1_555
F2 C1 1_555 1_555
F3 C1 1_555 1_555
C2 C1 1_555 1_555
C3 C2 1_555 1_555
H1 C3 1_555 1_555
C4 C3 1_555 1_555
C5 C4 1_555 1_555
F4 C5 1_555 1_555
F5 C5 1_555 1_555
F6 C5 1_555 1_555
O2 Cu1 1_555 1_555
Cu2 O3 1_555 1_555
O3 C7 1_555 1_555
C6 F7 1_555 1_555
F8 C6 1_555 1_555
F9 C6 1_555 1_555
C7 C6 1_555 1_555
C8 C7 1_555 1_555
H2 C8 1_555 1_555
C9 C8 1_555 1_555
C10 C9 1_555 1_555
F16 C10 1_555 1_555
F17 C10 1_555 1_555
F18 C10 1_555 1_555
O4 Cu2 1_555 1_555
O5 Cu1 1_555 1_555
N1 O5 1_555 1_555
C11 N1 1_555 1_555
C12 C11 1_555 1_555
H3 C12 1_555 1_555
H4 C12 1_555 1_555
H5 C12 1_555 1_555
C13 C11 1_555 1_555
H6 C13 1_555 1_555
H7 C13 1_555 1_555
H8 C13 1_555 1_555
C14 C11 1_555 1_555
C15 C14 1_555 1_555
H9 C15 1_555 1_555
H10 C15 1_555 1_555
H11 C15 1_555 1_555
C16 C14 1_555 1_555
H12 C16 1_555 1_555
H13 C16 1_555 1_555
H14 C16 1_555 1_555
N2 C14 1_555 1_555
O6 N2 1_555 1_555
C17 N1 1_555 1_555
C18 C17 1_555 1_555
C19 C18 1_555 1_555
H15 C19 1_555 1_555
N3 Cu2 1_555 1_555
N4 N3 1_555 1_555
C20 N4 1_555 1_555
C24 C20 1_555 1_555
H25 C24 1_555 1_555
H26 C24 1_555 1_555
C25 C24 1_555 1_555
H27 C25 1_555 1_555
H28 C25 1_555 1_555
C26 C25 1_555 1_555
H29 C26 1_555 1_555
H30 C26 1_555 1_555
H31 C26 1_555 1_555
C27 C18 1_555 1_555
H32 C27 1_555 1_555
Br1 C28 1_555 1_555
C28 C29 1_555 1_555
C29 C28A 1_555 1_555
O1A Cu1 1_555 1_555
C1A F1A 1_555 1_555
F2A C1A 1_555 1_555
F3A C1A 1_555 1_555
C2A O1A 1_555 1_555
C3A C2A 1_555 1_555
H1A C3A 1_555 1_555
C4A C3A 1_555 1_555
C5A C4A 1_555 1_555
F4A C5A 1_555 1_555
F5A C5A 1_555 1_555
F6A C5A 1_555 1_555
O2A Cu1 1_555 1_555
Cu2_2 N3A 1_555 1_555
O3A Cu2 1_555 1_555
C6A F7A 1_555 1_555
F8A C6A 1_555 1_555
F9A C6A 1_555 1_555
C7A O3A 1_555 1_555
C8A C7A 1_555 1_555
H2A C8A 1_555 1_555
C9A C8A 1_555 1_555
C10A C9A 1_555 1_555
F16A C10A 1_555 1_555
F17A C10A 1_555 1_555
F18A C10A 1_555 1_555
O4A Cu2 1_555 1_555
O5A Cu1 1_555 1_555
N1A O5A 1_555 1_555
C11A N1A 1_555 1_555
C12A C11A 1_555 1_555
H3A C12A 1_555 1_555
H4A C12A 1_555 1_555
H5A C12A 1_555 1_555
C13A C11A 1_555 1_555
H6A C13A 1_555 1_555
H7A C13A 1_555 1_555
H8A C13A 1_555 1_555
C14A C11A 1_555 1_555
C15A C14A 1_555 1_555
H9A C15A 1_555 1_555
H10A C15A 1_555 1_555
H11A C15A 1_555 1_555
C16A C14A 1_555 1_555
H12A C16A 1_555 1_555
H13A C16A 1_555 1_555
H14A C16A 1_555 1_555
N2A C14A 1_555 1_555
O6A N2A 1_555 1_555
C17A N1A 1_555 1_555
C18A C17A 1_555 1_555
C19A C18A 1_555 1_555
H15A C19A 1_555 1_555
N3A C19A 1_555 1_555
N3A_2 Cu2 1_555 1_555
N4A N3A 1_555 1_555
C20A N4A 1_555 1_555
C24A C20A 1_555 1_555
H25A C24A 1_555 1_555
H26A C24A 1_555 1_555
C25A C24A 1_555 1_555
H27A C25A 1_555 1_555
H28A C25A 1_555 1_555
C26A C25A 1_555 1_555
H29A C26A 1_555 1_555
H30A C26A 1_555 1_555
H31A C26A 1_555 1_555
C27A C18A 1_555 1_555
H32A C27A 1_555 1_555
Br1A C28A 1_555 1_555
C4 O2 1_555 1_555
C9 O4 1_555 1_555
N2 C17 1_555 1_555
C19 N3 1_555 1_555
N4 C27 1_555 1_555
C1A C2A 1_555 1_555
C4A O2A 1_555 1_555
C6A C7A 1_555 1_555
C9A O4A 1_555 1_555
N2A C17A 1_555 1_555
N4A C27A 1_555 1_555

#END
