
#######################################################################
#
#                 Cambridge Crystallographic Data Centre
#                                CCDC 
#
#######################################################################
#
# If this CIF has been generated from an entry in the Cambridge 
# Structural Database, then it will include bibliographic, chemical, 
# crystal, experimental, refinement or atomic coordinate data resulting 
# from the CCDC's data processing and validation procedures.
#
#######################################################################

data_SOHRUD01
_symmetry_cell_setting           triclinic
_symmetry_space_group_name_H-M   'P -1'
_symmetry_Int_Tables_number      2
_space_group_name_Hall           '-P 1'
loop_
_symmetry_equiv_pos_site_id
_symmetry_equiv_pos_as_xyz
1 x,y,z
2 -x,-y,-z
_cell_length_a                   10.664(5)
_cell_length_b                   13.279(6)
_cell_length_c                   13.623(6)
_cell_angle_alpha                98.903(8)
_cell_angle_beta                 112.051(7)
_cell_angle_gamma                96.525(8)
_cell_volume                     1735.11
loop_
_atom_site_label
_atom_site_type_symbol
_atom_site_fract_x
_atom_site_fract_y
_atom_site_fract_z
Br1 Br 1.1265(4) 1.2029(5) 0.0354(6)
C29 C 1.089(2) 1.065(3) 0.1090(19)
H35 H 1.0712 1.0777 0.1744
H36 H 1.1747 1.0390 0.1257
C30 C 1.0000 1.0000 0.0000
C31 C 1.086(4) 1.0891(19) -0.001(2)
H39 H 1.1360 1.0822 -0.0485
Br1A Br 0.8735(4) 0.7971(5) -0.0354(6)
C29A C 0.911(2) 0.935(3) -0.1090(19)
H35A H 0.9288 0.9223 -0.1744
H36A H 0.8253 0.9610 -0.1257
C31A C 0.914(4) 0.9109(19) 0.001(2)
H39A H 0.8640 0.9178 0.0485
Cu1 Cu 1.0000 1.0000 0.5000
O1 O 0.8685(3) 0.8718(2) 0.4716(2)
C1 C 0.6977(7) 0.7522(5) 0.4797(6)
F1 F 0.7811(5) 0.6929(3) 0.5206(5)
F2 F 0.6394(5) 0.7130(3) 0.3771(4)
F3 F 0.6017(4) 0.7418(3) 0.5172(4)
C2 C 0.7733(5) 0.8636(4) 0.5042(4)
C3 C 0.7293(5) 0.9419(4) 0.5554(4)
H1 H 0.658(5) 0.919(4) 0.568(4)
C4 C 0.7913(4) 1.0442(4) 0.5781(4)
C5 C 0.7384(7) 1.1239(5) 0.6366(6)
F4 F 0.8255(6) 1.1622(6) 0.7316(4)
F5 F 0.7221(6) 1.2048(4) 0.5955(5)
F6 F 0.6244(6) 1.0929(3) 0.6423(6)
O2 O 0.8874(3) 1.0828(2) 0.5555(2)
Cu2 Cu 0.5000 0.5000 0.0000
O3 O 0.4873(3) 0.5487(2) -0.1322(3)
C6 C 0.5168(9) 0.5610(5) -0.2924(6)
F7 F 0.403(4) 0.592(3) -0.323(3)
F8 F 0.616(3) 0.648(2) -0.267(2)
F9 F 0.517(3) 0.495(2) -0.372(2)
C7 C 0.5540(5) 0.5216(4) -0.1873(4)
C8 C 0.6577(6) 0.4637(4) -0.1610(5)
H2 H 0.681(5) 0.453(4) -0.203(4)
C9 C 0.7008(5) 0.4267(3) -0.0688(4)
C10 C 0.8179(6) 0.3657(5) -0.0465(5)
F13 F 0.887(3) 0.3740(19) -0.103(2)
F14 F 0.927(3) 0.413(2) 0.040(2)
F15 F 0.767(2) 0.2593(15) -0.0513(16)
O4 O 0.6564(3) 0.4357(2) 0.0051(3)
O5 O 0.9103(3) 1.0183(2) 0.3238(3)
N1 N 0.7833(4) 1.0276(3) 0.2703(3)
C11 C 0.7457(5) 1.1302(3) 0.2543(4)
C12 C 0.7946(6) 1.1597(5) 0.1682(5)
H3 H 0.7470 1.1085 0.1008
H4 H 0.8931 1.1619 0.1929
H5 H 0.7747 1.2274 0.1564
C13 C 0.8168(6) 1.2114(4) 0.3577(4)
H6 H 0.7839 1.1941 0.4115
H7 H 0.7971 1.2786 0.3438
H8 H 0.9155 1.2138 0.3844
C14 C 0.5864(5) 1.1007(3) 0.2117(4)
C15 C 0.5046(7) 1.1529(4) 0.1236(4)
H9 H 0.5410 1.1484 0.0679
H10 H 0.5116 1.2253 0.1545
H11 H 0.4087 1.1186 0.0918
C16 C 0.5332(6) 1.1099(4) 0.3020(4)
H12 H 0.5874 1.0771 0.3584
H13 H 0.4374 1.0757 0.2725
H14 H 0.5412 1.1826 0.3323
N2 N 0.5660(4) 0.9868(3) 0.1663(3)
O6 O 0.4474(3) 0.9333(3) 0.1060(3)
C17 C 0.6809(4) 0.9485(3) 0.2094(4)
C18 C 0.6924(4) 0.8417(3) 0.1885(4)
C19 C 0.5901(5) 0.7563(3) 0.1222(4)
H15 H 0.4976 0.7601 0.0836
N3 N 0.6401(4) 0.6688(3) 0.1204(3)
N4 N 0.7748(4) 0.6976(3) 0.1886(3)
C20 C 0.849(3) 0.610(3) 0.203(2)
H16 H 0.9029 0.6077 0.1579
H17 H 0.7831 0.5448 0.1789
C21 C 0.9457(13) 0.6223(10) 0.3210(14)
H18 H 0.8993 0.6402 0.3695
H19 H 1.0282 0.6752 0.3414
C22 C 0.982(3) 0.5121(17) 0.323(3)
H20 H 0.9258 0.4694 0.3496
H21 H 0.9728 0.4757 0.2516
C23 C 1.132(2) 0.5437(16) 0.403(2)
H22 H 1.1763 0.4839 0.4044
H23 H 1.1356 0.5699 0.4752
H24 H 1.1788 0.5974 0.3819
C28 C 0.8102(5) 0.7995(4) 0.2295(4)
O1A O 1.1315(3) 1.1282(2) 0.5284(2)
C1A C 1.3023(7) 1.2478(5) 0.5203(6)
F1A F 1.2189(5) 1.3071(3) 0.4794(5)
F2A F 1.3606(5) 1.2870(3) 0.6229(4)
F3A F 1.3983(4) 1.2582(3) 0.4828(4)
C2A C 1.2267(5) 1.1364(4) 0.4958(4)
C3A C 1.2707(5) 1.0581(4) 0.4446(4)
H1A H 1.342(5) 1.081(4) 0.432(4)
C4A C 1.2087(4) 0.9558(4) 0.4219(4)
C5A C 1.2616(7) 0.8761(5) 0.3634(6)
F4A F 1.1745(6) 0.8378(6) 0.2684(4)
F5A F 1.2779(6) 0.7952(4) 0.4045(5)
F6A F 1.3756(6) 0.9071(3) 0.3577(6)
O2A O 1.1126(3) 0.9172(2) 0.4445(2)
Cu2_2 Cu 1.5000 1.5000 1.0000
O3A O 0.5127(3) 0.4513(2) 0.1322(3)
C6A C 0.4832(9) 0.4390(5) 0.2924(6)
F7A F 0.597(4) 0.408(3) 0.323(3)
F8A F 0.384(3) 0.352(2) 0.267(2)
F9A F 0.483(3) 0.505(2) 0.372(2)
C7A C 0.4460(5) 0.4784(4) 0.1873(4)
C8A C 0.3423(6) 0.5363(4) 0.1610(5)
H2A H 0.319(5) 0.547(4) 0.203(4)
C9A C 0.2992(5) 0.5733(3) 0.0688(4)
C10A C 0.1821(6) 0.6343(5) 0.0465(5)
F13A F 0.113(3) 0.6260(19) 0.103(2)
F14A F 0.073(3) 0.587(2) -0.040(2)
F15A F 0.233(2) 0.7407(15) 0.0513(16)
O4A O 0.3436(3) 0.5643(2) -0.0051(3)
O5A O 1.0897(3) 0.9817(2) 0.6762(3)
N1A N 1.2167(4) 0.9724(3) 0.7297(3)
C11A C 1.2543(5) 0.8698(3) 0.7457(4)
C12A C 1.2054(6) 0.8403(5) 0.8318(5)
H3A H 1.2530 0.8915 0.8992
H4A H 1.1069 0.8381 0.8071
H5A H 1.2253 0.7726 0.8436
C13A C 1.1832(6) 0.7886(4) 0.6423(4)
H6A H 1.2161 0.8059 0.5885
H7A H 1.2029 0.7214 0.6562
H8A H 1.0845 0.7862 0.6156
C14A C 1.4136(5) 0.8993(3) 0.7883(4)
C15A C 1.4954(7) 0.8471(4) 0.8764(4)
H9A H 1.4590 0.8516 0.9321
H10A H 1.4884 0.7747 0.8455
H11A H 1.5913 0.8814 0.9082
C16A C 1.4668(6) 0.8901(4) 0.6980(4)
H12A H 1.4126 0.9229 0.6416
H13A H 1.5626 0.9243 0.7275
H14A H 1.4588 0.8174 0.6677
N2A N 1.4340(4) 1.0132(3) 0.8337(3)
O6A O 1.5526(3) 1.0667(3) 0.8940(3)
C17A C 1.3191(4) 1.0515(3) 0.7906(4)
C18A C 1.3076(4) 1.1583(3) 0.8115(4)
C19A C 1.4099(5) 1.2437(3) 0.8778(4)
H15A H 1.5024 1.2399 0.9164
N3A N 1.3599(4) 1.3312(3) 0.8796(3)
N3A_2 N 0.3599(4) 0.3312(3) -0.1204(3)
N4A N 1.2252(4) 1.3024(3) 0.8114(3)
C20A C 1.151(3) 1.390(3) 0.797(2)
H16A H 1.0971 1.3923 0.8421
H17A H 1.2169 1.4552 0.8211
C21A C 1.0543(13) 1.3777(10) 0.6790(14)
H18A H 1.1007 1.3598 0.6305
H19A H 0.9718 1.3248 0.6586
C22A C 1.018(3) 1.4879(17) 0.677(3)
H20A H 1.0742 1.5306 0.6504
H21A H 1.0272 1.5243 0.7484
C23A C 0.868(2) 1.4563(16) 0.597(2)
H22A H 0.8237 1.5161 0.5956
H23A H 0.8644 1.4301 0.5248
H24A H 0.8212 1.4026 0.6181
C28A C 1.1898(5) 1.2005(4) 0.7705(4)
F10? F 0.382(4) 0.554(3) -0.340(3)
F11? F 0.558(3) 0.511(2) -0.360(2)
F12? F 0.564(3) 0.6539(16) -0.2834(19)
F16? F 0.903(3) 0.390(2) 0.0548(19)
F17? F 0.785(2) 0.2823(17) -0.050(2)
F18? F 0.866(3) 0.355(2) -0.122(2)
C24? C 0.880(3) 0.629(2) 0.2152(19)
H25? H 0.8593 0.5731 0.1519
H26? H 0.9718 0.6692 0.2340
C25? C 0.8789(16) 0.5840(14) 0.3060(16)
H27? H 0.7844 0.5498 0.2885
H28? H 0.9052 0.6405 0.3696
C26? C 0.992(3) 0.491(3) 0.342(3)
H29? H 1.0160 0.4827 0.4167
H30? H 0.9536 0.4226 0.2920
C27? C 1.074(3) 0.531(3) 0.331(3)
H31? H 1.1455 0.4893 0.3414
H32? H 1.1108 0.5959 0.3842
H33? H 1.0425 0.5441 0.2588
H34? H 0.903(4) 0.835(3) 0.279(4)
H37? H 1.0229 0.9830 -0.0627
H38? H 0.9176 1.0294 -0.0217
H40? H 0.9950 0.8825 0.0327
C32? C 0.8583(15) 0.8416(17) -0.1268(14)
H41? H 0.8218 0.7707 -0.1276
H42? H 0.7826 0.8768 -0.1553
H43? H 0.9124 0.8418 -0.1710
loop_
_geom_bond_atom_site_label_1
_geom_bond_atom_site_label_2
_geom_bond_site_symmetry_1
_geom_bond_site_symmetry_2
Cu1 O1 1_555 1_555
O1 C2 1_555 1_555
C1 F1 1_555 1_555
F2 C1 1_555 1_555
F3 C1 1_555 1_555
C2 C1 1_555 1_555
C3 C2 1_555 1_555
H1 C3 1_555 1_555
C4 C3 1_555 1_555
C5 C4 1_555 1_555
F4 C5 1_555 1_555
F5 C5 1_555 1_555
F6 C5 1_555 1_555
O2 Cu1 1_555 1_555
Cu2 O3 1_555 1_555
O3 C7 1_555 1_555
C6 F7 1_555 1_555
F8 C6 1_555 1_555
F9 C6 1_555 1_555
C7 C6 1_555 1_555
C8 C7 1_555 1_555
H2 C8 1_555 1_555
C9 C8 1_555 1_555
C10 C9 1_555 1_555
F13 C10 1_555 1_555
F14 C10 1_555 1_555
F15 C10 1_555 1_555
O4 Cu2 1_555 1_555
O5 Cu1 1_555 1_555
N1 O5 1_555 1_555
C11 N1 1_555 1_555
C12 C11 1_555 1_555
H3 C12 1_555 1_555
H4 C12 1_555 1_555
H5 C12 1_555 1_555
C13 C11 1_555 1_555
H6 C13 1_555 1_555
H7 C13 1_555 1_555
H8 C13 1_555 1_555
C14 C11 1_555 1_555
C15 C14 1_555 1_555
H9 C15 1_555 1_555
H10 C15 1_555 1_555
H11 C15 1_555 1_555
C16 C14 1_555 1_555
H12 C16 1_555 1_555
H13 C16 1_555 1_555
H14 C16 1_555 1_555
N2 C14 1_555 1_555
O6 N2 1_555 1_555
C17 N1 1_555 1_555
C18 C17 1_555 1_555
C19 C18 1_555 1_555
H15 C19 1_555 1_555
N3 Cu2 1_555 1_555
N4 N3 1_555 1_555
C20 N4 1_555 1_555
H16 C20 1_555 1_555
H17 C20 1_555 1_555
C21 C20 1_555 1_555
H18 C21 1_555 1_555
H19 C21 1_555 1_555
C22 C21 1_555 1_555
H20 C22 1_555 1_555
H21 C22 1_555 1_555
C23 C22 1_555 1_555
H22 C23 1_555 1_555
H23 C23 1_555 1_555
H24 C23 1_555 1_555
C28 C18 1_555 1_555
Br1 C31 1_555 1_555
C29 H35 1_555 1_555
H36 C29 1_555 1_555
C30 C29 1_555 1_555
C31 C29 1_555 1_555
H39 C31 1_555 1_555
O1A Cu1 1_555 1_555
C1A F1A 1_555 1_555
F2A C1A 1_555 1_555
F3A C1A 1_555 1_555
C2A O1A 1_555 1_555
C3A C2A 1_555 1_555
H1A C3A 1_555 1_555
C4A C3A 1_555 1_555
C5A C4A 1_555 1_555
F4A C5A 1_555 1_555
F5A C5A 1_555 1_555
F6A C5A 1_555 1_555
O2A Cu1 1_555 1_555
Cu2_2 N3A 1_555 1_555
O3A Cu2 1_555 1_555
C6A F7A 1_555 1_555
F8A C6A 1_555 1_555
F9A C6A 1_555 1_555
C7A O3A 1_555 1_555
C8A C7A 1_555 1_555
H2A C8A 1_555 1_555
C9A C8A 1_555 1_555
C10A C9A 1_555 1_555
F13A C10A 1_555 1_555
F14A C10A 1_555 1_555
F15A C10A 1_555 1_555
O4A Cu2 1_555 1_555
O5A Cu1 1_555 1_555
N1A O5A 1_555 1_555
C11A N1A 1_555 1_555
C12A C11A 1_555 1_555
H3A C12A 1_555 1_555
H4A C12A 1_555 1_555
H5A C12A 1_555 1_555
C13A C11A 1_555 1_555
H6A C13A 1_555 1_555
H7A C13A 1_555 1_555
H8A C13A 1_555 1_555
C14A C11A 1_555 1_555
C15A C14A 1_555 1_555
H9A C15A 1_555 1_555
H10A C15A 1_555 1_555
H11A C15A 1_555 1_555
C16A C14A 1_555 1_555
H12A C16A 1_555 1_555
H13A C16A 1_555 1_555
H14A C16A 1_555 1_555
N2A C14A 1_555 1_555
O6A N2A 1_555 1_555
C17A N1A 1_555 1_555
C18A C17A 1_555 1_555
C19A C18A 1_555 1_555
H15A C19A 1_555 1_555
N3A C19A 1_555 1_555
N3A_2 Cu2 1_555 1_555
N4A N3A 1_555 1_555
C20A N4A 1_555 1_555
H16A C20A 1_555 1_555
H17A C20A 1_555 1_555
C21A C20A 1_555 1_555
H18A C21A 1_555 1_555
H19A C21A 1_555 1_555
C22A C21A 1_555 1_555
H20A C22A 1_555 1_555
H21A C22A 1_555 1_555
C23A C22A 1_555 1_555
H22A C23A 1_555 1_555
H23A C23A 1_555 1_555
H24A C23A 1_555 1_555
C28A C18A 1_555 1_555
Br1A C31A 1_555 1_555
C29A C30 1_555 1_555
H35A C29A 1_555 1_555
H36A C29A 1_555 1_555
C31A C30 1_555 1_555
H39A C31A 1_555 1_555
C4 O2 1_555 1_555
C9 O4 1_555 1_555
N2 C17 1_555 1_555
C19 N3 1_555 1_555
N4 C28 1_555 1_555
C30 C31 1_555 1_555
C1A C2A 1_555 1_555
C4A O2A 1_555 1_555
C6A C7A 1_555 1_555
C9A O4A 1_555 1_555
N2A C17A 1_555 1_555
N4A C28A 1_555 1_555
C29A C31A 1_555 1_555

#END
