
#######################################################################
#
#                 Cambridge Crystallographic Data Centre
#                                CCDC 
#
#######################################################################
#
# If this CIF has been generated from an entry in the Cambridge 
# Structural Database, then it will include bibliographic, chemical, 
# crystal, experimental, refinement or atomic coordinate data resulting 
# from the CCDC's data processing and validation procedures.
#
#######################################################################

data_SOHSAK03
_symmetry_cell_setting           triclinic
_symmetry_space_group_name_H-M   'P -1'
_symmetry_Int_Tables_number      2
_space_group_name_Hall           '-P 1'
loop_
_symmetry_equiv_pos_site_id
_symmetry_equiv_pos_as_xyz
1 x,y,z
2 -x,-y,-z
_cell_length_a                   10.586(2)
_cell_length_b                   13.237(3)
_cell_length_c                   13.663(3)
_cell_angle_alpha                99.104(3)
_cell_angle_beta                 112.136(3)
_cell_angle_gamma                96.197(3)
_cell_volume                     1721.46
loop_
_atom_site_label
_atom_site_type_symbol
_atom_site_fract_x
_atom_site_fract_y
_atom_site_fract_z
Cl1 Cl -1.1334(15) -0.169(2) -0.133(2)
C25 C -1.059(5) -0.109(3) 0.000(2)
C26 C -1.0000 0.0000 0.0000
C27 C -0.948(6) -0.025(6) 0.100(4)
Cl1A Cl -0.8666(15) 0.169(2) 0.133(2)
C25A C -0.941(5) 0.109(3) 0.000(2)
C27A C -1.052(6) 0.025(6) -0.100(4)
Cu1 Cu 0.0000 0.0000 0.5000
O1 O 0.1145(2) -0.0829(2) 0.4450(2)
C1 C 0.2630(5) -0.1258(4) 0.3630(4)
F1 F 0.1608(11) -0.1822(10) 0.2758(10)
F2 F 0.3062(13) -0.1957(10) 0.4208(10)
F3 F 0.3601(13) -0.0938(10) 0.3356(13)
C2 C 0.2101(4) -0.0449(3) 0.4223(3)
C3 C 0.2705(4) 0.0581(3) 0.4443(4)
H1 H 0.3432 0.0756 0.4229
C4 C 0.2282(4) 0.1359(3) 0.4964(3)
C5 C 0.3038(5) 0.2470(4) 0.5199(4)
F7 F 0.4130(11) 0.2568(9) 0.4945(12)
F8 F 0.3645(10) 0.2903(7) 0.6347(7)
F9 F 0.2191(16) 0.3023(10) 0.4655(15)
O2 O 0.1325(3) 0.1285(2) 0.5291(2)
Cu2 Cu -0.5000 -0.5000 0.0000
O3 O -0.6582(3) -0.43557(19) -0.0068(2)
C6 C -0.8224(5) -0.3640(4) 0.0419(4)
F13 F -0.9142(13) -0.3860(11) -0.0594(9)
F14 F -0.7746(13) -0.2629(9) 0.0631(11)
F15 F -0.8945(11) -0.3730(11) 0.1002(12)
C7 C -0.7050(4) -0.4262(3) 0.0653(3)
C8 C -0.6617(5) -0.4628(3) 0.1592(4)
H2 H -0.7040 -0.4474 0.2078
C9 C -0.5577(4) -0.5217(3) 0.1847(3)
C10 C -0.5211(6) -0.5604(4) 0.2898(4)
F19 F -0.5275(14) -0.4909(9) 0.3657(9)
F20 F -0.6220(13) -0.6477(11) 0.2672(13)
F21 F -0.4058(14) -0.5932(11) 0.3232(10)
O4 O -0.4895(3) -0.54892(19) 0.1312(2)
O5 O -0.0903(3) 0.0184(2) 0.3238(2)
N1 N -0.2175(3) 0.0275(2) 0.2703(3)
C11 C -0.2566(4) 0.1310(3) 0.2536(3)
C12 C -0.2075(5) 0.1596(4) 0.1679(4)
H3 H -0.1070 0.1771 0.1988
H4 H -0.2461 0.2189 0.1438
H5 H -0.2384 0.1009 0.1069
C13 C -0.1859(5) 0.2124(3) 0.3585(4)
H6 H -0.0866 0.2254 0.3781
H7 H -0.2049 0.1875 0.4155
H8 H -0.2210 0.2765 0.3490
C14 C -0.4157(4) 0.1017(3) 0.2116(3)
C15 C -0.4980(5) 0.1543(4) 0.1235(4)
H9 H -0.5964 0.1309 0.1026
H10 H -0.4754 0.1364 0.0611
H11 H -0.4749 0.2291 0.1502
C16 C -0.4696(5) 0.1104(3) 0.3008(4)
H12 H -0.5700 0.0910 0.2687
H13 H -0.4428 0.1815 0.3423
H14 H -0.4305 0.0642 0.3481
N2 N -0.4385(3) -0.0128(2) 0.1654(3)
O6 O -0.5566(3) -0.0666(2) 0.1048(2)
C17 C -0.3202(4) -0.0513(3) 0.2091(3)
C18 C -0.3089(3) -0.1587(3) 0.1889(3)
C19 C -0.4117(4) -0.2440(3) 0.1210(3)
H15 H -0.5045 -0.2401 0.0807
N3 N -0.3603(3) -0.3309(2) 0.1213(3)
N4 N -0.2250(3) -0.3026(2) 0.1892(3)
C20 C -0.1340(5) -0.3790(4) 0.2110(4)
H17 H -0.1844 -0.4460 0.1619
H18 H -0.0542 -0.3572 0.1945
C21 C -0.0850(10) -0.3934(7) 0.3180(6)
H19 H -0.1626 -0.3996 0.3405
H20 H -0.0168 -0.3319 0.3657
C22 C -0.0151(13) -0.4941(11) 0.3324(9)
H21 H -0.0596 -0.5639 0.3155
C23 C 0.1102(15) -0.4598(9) 0.3705(16)
H22 H 0.1607 -0.5168 0.3812
H23 H 0.1363 -0.4120 0.4394
H24 H 0.1323 -0.4234 0.3211
C24 C -0.1904(4) -0.2014(3) 0.2303(3)
H25 H -0.1018 -0.1649 0.2788
O1A O -0.1145(2) 0.0829(2) 0.5550(2)
C1A C -0.2630(5) 0.1258(4) 0.6370(4)
F1A F -0.1608(11) 0.1822(10) 0.7242(10)
F2A F -0.3062(13) 0.1957(10) 0.5792(10)
F3A F -0.3601(13) 0.0938(10) 0.6644(13)
C2A C -0.2101(4) 0.0449(3) 0.5777(3)
C3A C -0.2705(4) -0.0581(3) 0.5557(4)
H1A H -0.3432 -0.0756 0.5771
C4A C -0.2282(4) -0.1359(3) 0.5036(3)
C5A C -0.3038(5) -0.2470(4) 0.4801(4)
F7A F -0.4130(11) -0.2568(9) 0.5055(12)
F8A F -0.3645(10) -0.2903(7) 0.3653(7)
F9A F -0.2191(16) -0.3023(10) 0.5345(15)
O2A O -0.1325(3) -0.1285(2) 0.4709(2)
Cu2_2 Cu 0.5000 0.5000 1.0000
O3A O -0.3418(3) -0.56443(19) 0.0068(2)
C6A C -0.1776(5) -0.6360(4) -0.0419(4)
F13A F -0.0858(13) -0.6140(11) 0.0594(9)
F14A F -0.2254(13) -0.7371(9) -0.0631(11)
F15A F -0.1055(11) -0.6270(11) -0.1002(12)
C7A C -0.2950(4) -0.5738(3) -0.0653(3)
C8A C -0.3383(5) -0.5372(3) -0.1592(4)
H2A H -0.2960 -0.5526 -0.2078
C9A C -0.4423(4) -0.4783(3) -0.1847(3)
C10A C -0.4789(6) -0.4396(4) -0.2898(4)
F19A F -0.4725(14) -0.5091(9) -0.3657(9)
F20A F -0.3780(13) -0.3523(11) -0.2672(13)
F21A F -0.5942(14) -0.4068(11) -0.3232(10)
O4A O -0.5105(3) -0.45108(19) -0.1312(2)
O5A O 0.0903(3) -0.0184(2) 0.6762(2)
N1A N 0.2175(3) -0.0275(2) 0.7297(3)
C11A C 0.2566(4) -0.1310(3) 0.7464(3)
C12A C 0.2075(5) -0.1596(4) 0.8321(4)
H3A H 0.1070 -0.1771 0.8012
H4A H 0.2461 -0.2189 0.8562
H5A H 0.2384 -0.1009 0.8931
C13A C 0.1859(5) -0.2124(3) 0.6415(4)
H6A H 0.0866 -0.2254 0.6219
H7A H 0.2049 -0.1875 0.5845
H8A H 0.2210 -0.2765 0.6510
C14A C 0.4157(4) -0.1017(3) 0.7884(3)
C15A C 0.4980(5) -0.1543(4) 0.8765(4)
H9A H 0.5964 -0.1309 0.8974
H10A H 0.4754 -0.1364 0.9389
H11A H 0.4749 -0.2291 0.8498
C16A C 0.4696(5) -0.1104(3) 0.6992(4)
H12A H 0.5700 -0.0910 0.7313
H13A H 0.4428 -0.1815 0.6577
H14A H 0.4305 -0.0642 0.6519
N2A N 0.4385(3) 0.0128(2) 0.8346(3)
O6A O 0.5566(3) 0.0666(2) 0.8952(2)
C17A C 0.3202(4) 0.0513(3) 0.7909(3)
C18A C 0.3089(3) 0.1587(3) 0.8111(3)
C19A C 0.4117(4) 0.2440(3) 0.8790(3)
H15A H 0.5045 0.2401 0.9193
N3A N 0.3603(3) 0.3309(2) 0.8787(3)
N3A_2 N -0.6397(3) -0.6691(2) -0.1213(3)
N4A N 0.2250(3) 0.3026(2) 0.8108(3)
C20A C 0.1340(5) 0.3790(4) 0.7890(4)
H17A H 0.1844 0.4460 0.8381
H18A H 0.0542 0.3572 0.8055
C21A C 0.0850(10) 0.3934(7) 0.6820(6)
H19A H 0.1626 0.3996 0.6595
H20A H 0.0168 0.3319 0.6343
C22A C 0.0151(13) 0.4941(11) 0.6676(9)
H21A H 0.0596 0.5639 0.6845
C23A C -0.1102(15) 0.4598(9) 0.6295(16)
H22A H -0.1607 0.5168 0.6188
H23A H -0.1363 0.4120 0.5606
H24A H -0.1323 0.4234 0.6789
C24A C 0.1904(4) 0.2014(3) 0.7697(3)
H25A H 0.1018 0.1649 0.7212
F4? F 0.2004(17) -0.1361(14) 0.2618(10)
F5? F 0.2582(16) -0.2109(8) 0.3899(15)
F6? F 0.3898(9) -0.0952(10) 0.3793(13)
F10? F 0.361(2) 0.2800(13) 0.6059(11)
F11? F 0.2199(15) 0.3099(9) 0.4940(15)
F12? F 0.3823(13) 0.2577(10) 0.4704(10)
F16? F -0.7831(14) -0.2751(8) 0.0301(12)
F17? F -0.8724(13) -0.3542(11) 0.1153(9)
F18? F -0.9217(11) -0.4155(12) -0.0453(13)
F22? F -0.5588(16) -0.5123(11) 0.3608(11)
F23? F -0.5674(16) -0.6520(9) 0.2784(11)
F24? F -0.3852(16) -0.5517(13) 0.3362(13)
H16? H -0.4046 -0.3933 0.0853
C28? C -0.935(5) 0.118(4) -0.047(3)
Cl2? Cl -1.1385(12) -0.2132(14) -0.0128(11)
C29? C -1.080(5) -0.113(2) -0.059(3)
C30? C -1.0000 0.0000 0.0000
C31? C -0.902(4) 0.064(4) -0.027(4)
C32? C -0.940(9) 0.151(6) 0.035(5)
loop_
_geom_bond_atom_site_label_1
_geom_bond_atom_site_label_2
_geom_bond_site_symmetry_1
_geom_bond_site_symmetry_2
Cu1 O1 1_555 1_555
O1 C2 1_555 1_555
C1 F1 1_555 1_555
F2 C1 1_555 1_555
F3 C1 1_555 1_555
C2 C1 1_555 1_555
C3 C2 1_555 1_555
H1 C3 1_555 1_555
C4 C3 1_555 1_555
C5 C4 1_555 1_555
F7 C5 1_555 1_555
F8 C5 1_555 1_555
F9 C5 1_555 1_555
O2 Cu1 1_555 1_555
Cu2 O3 1_555 1_555
O3 C7 1_555 1_555
C6 F13 1_555 1_555
F14 C6 1_555 1_555
F15 C6 1_555 1_555
C7 C6 1_555 1_555
C8 C7 1_555 1_555
H2 C8 1_555 1_555
C9 C8 1_555 1_555
C10 C9 1_555 1_555
F19 C10 1_555 1_555
F20 C10 1_555 1_555
F21 C10 1_555 1_555
O4 Cu2 1_555 1_555
O5 Cu1 1_555 1_555
N1 O5 1_555 1_555
C11 N1 1_555 1_555
C12 C11 1_555 1_555
H3 C12 1_555 1_555
H4 C12 1_555 1_555
H5 C12 1_555 1_555
C13 C11 1_555 1_555
H6 C13 1_555 1_555
H7 C13 1_555 1_555
H8 C13 1_555 1_555
C14 C11 1_555 1_555
C15 C14 1_555 1_555
H9 C15 1_555 1_555
H10 C15 1_555 1_555
H11 C15 1_555 1_555
C16 C14 1_555 1_555
H12 C16 1_555 1_555
H13 C16 1_555 1_555
H14 C16 1_555 1_555
N2 C14 1_555 1_555
O6 N2 1_555 1_555
C17 N1 1_555 1_555
C18 C17 1_555 1_555
C19 C18 1_555 1_555
H15 C19 1_555 1_555
N3 Cu2 1_555 1_555
N4 N3 1_555 1_555
C20 N4 1_555 1_555
H17 C20 1_555 1_555
H18 C20 1_555 1_555
C21 C20 1_555 1_555
H19 C21 1_555 1_555
H20 C21 1_555 1_555
C22 C21 1_555 1_555
H21 C22 1_555 1_555
C23 C22 1_555 1_555
H22 C23 1_555 1_555
H23 C23 1_555 1_555
H24 C23 1_555 1_555
C24 C18 1_555 1_555
H25 C24 1_555 1_555
Cl1 C25 1_555 1_555
C25 C26 1_555 1_555
C26 C27 1_555 1_555
C27 C25 1_555 1_555
O1A Cu1 1_555 1_555
C1A F1A 1_555 1_555
F2A C1A 1_555 1_555
F3A C1A 1_555 1_555
C2A O1A 1_555 1_555
C3A C2A 1_555 1_555
H1A C3A 1_555 1_555
C4A C3A 1_555 1_555
C5A C4A 1_555 1_555
F7A C5A 1_555 1_555
F8A C5A 1_555 1_555
F9A C5A 1_555 1_555
O2A Cu1 1_555 1_555
Cu2_2 N3A 1_555 1_555
O3A Cu2 1_555 1_555
C6A F13A 1_555 1_555
F14A C6A 1_555 1_555
F15A C6A 1_555 1_555
C7A O3A 1_555 1_555
C8A C7A 1_555 1_555
H2A C8A 1_555 1_555
C9A C8A 1_555 1_555
C10A C9A 1_555 1_555
F19A C10A 1_555 1_555
F20A C10A 1_555 1_555
F21A C10A 1_555 1_555
O4A Cu2 1_555 1_555
O5A Cu1 1_555 1_555
N1A O5A 1_555 1_555
C11A N1A 1_555 1_555
C12A C11A 1_555 1_555
H3A C12A 1_555 1_555
H4A C12A 1_555 1_555
H5A C12A 1_555 1_555
C13A C11A 1_555 1_555
H6A C13A 1_555 1_555
H7A C13A 1_555 1_555
H8A C13A 1_555 1_555
C14A C11A 1_555 1_555
C15A C14A 1_555 1_555
H9A C15A 1_555 1_555
H10A C15A 1_555 1_555
H11A C15A 1_555 1_555
C16A C14A 1_555 1_555
H12A C16A 1_555 1_555
H13A C16A 1_555 1_555
H14A C16A 1_555 1_555
N2A C14A 1_555 1_555
O6A N2A 1_555 1_555
C17A N1A 1_555 1_555
C18A C17A 1_555 1_555
C19A C18A 1_555 1_555
H15A C19A 1_555 1_555
N3A C19A 1_555 1_555
N3A_2 Cu2 1_555 1_555
N4A N3A 1_555 1_555
C20A N4A 1_555 1_555
H17A C20A 1_555 1_555
H18A C20A 1_555 1_555
C21A C20A 1_555 1_555
H19A C21A 1_555 1_555
H20A C21A 1_555 1_555
C22A C21A 1_555 1_555
H21A C22A 1_555 1_555
C23A C22A 1_555 1_555
H22A C23A 1_555 1_555
H23A C23A 1_555 1_555
H24A C23A 1_555 1_555
C24A C18A 1_555 1_555
H25A C24A 1_555 1_555
Cl1A C25A 1_555 1_555
C25A C26 1_555 1_555
C27A C26 1_555 1_555
C4 O2 1_555 1_555
C9 O4 1_555 1_555
N2 C17 1_555 1_555
C19 N3 1_555 1_555
N4 C24 1_555 1_555
C1A C2A 1_555 1_555
C4A O2A 1_555 1_555
C6A C7A 1_555 1_555
C9A O4A 1_555 1_555
N2A C17A 1_555 1_555
N4A C24A 1_555 1_555
C25A C27A 1_555 1_555

#END
