
#######################################################################
#
#                 Cambridge Crystallographic Data Centre
#                                CCDC 
#
#######################################################################
#
# If this CIF has been generated from an entry in the Cambridge 
# Structural Database, then it will include bibliographic, chemical, 
# crystal, experimental, refinement or atomic coordinate data resulting 
# from the CCDC's data processing and validation procedures.
#
#######################################################################

data_SOHSAK02
_symmetry_cell_setting           triclinic
_symmetry_space_group_name_H-M   'P -1'
_symmetry_Int_Tables_number      2
_space_group_name_Hall           '-P 1'
loop_
_symmetry_equiv_pos_site_id
_symmetry_equiv_pos_as_xyz
1 x,y,z
2 -x,-y,-z
_cell_length_a                   10.4345(17)
_cell_length_b                   13.140(2)
_cell_length_c                   13.434(2)
_cell_angle_alpha                99.030(2)
_cell_angle_beta                 111.918(2)
_cell_angle_gamma                96.623(2)
_cell_volume                     1656.93
loop_
_atom_site_label
_atom_site_type_symbol
_atom_site_fract_x
_atom_site_fract_y
_atom_site_fract_z
Cl1 Cl -1.1559(9) -0.1629(10) -0.1832(11)
C28 C -1.097(3) -0.093(3) -0.052(3)
C30 C -1.0000 0.0000 0.0000
C31 C -1.048(4) -0.081(3) 0.042(2)
C32 C -1.1073(19) -0.1763(17) -0.054(3)
Cl1A Cl -0.8441(9) 0.1629(10) 0.1832(11)
C28A C -0.903(3) 0.093(3) 0.052(3)
C31A C -0.952(4) 0.081(3) -0.042(2)
C32A C -0.8927(19) 0.1763(17) 0.054(3)
Cu1 Cu 0.0000 0.0000 0.5000
O1 O 0.1152(2) -0.08567(19) 0.44411(19)
C1 C 0.2623(4) -0.1301(3) 0.3577(4)
F1 F 0.1657(9) -0.1713(11) 0.2616(9)
F2 F 0.2899(11) -0.2084(7) 0.4138(8)
F3 F 0.3750(12) -0.1019(10) 0.3404(12)
C2 C 0.2136(3) -0.0480(3) 0.4215(3)
C3 C 0.2799(4) 0.0553(3) 0.4455(3)
H1 H 0.352(4) 0.068(3) 0.430(3)
C4 C 0.2366(3) 0.1344(3) 0.4990(3)
C5 C 0.3155(4) 0.2475(3) 0.5230(3)
F7 F 0.4167(3) 0.25524(18) 0.4866(2)
F8 F 0.3695(9) 0.2905(7) 0.6396(6)
F9 F 0.2268(3) 0.30790(19) 0.4768(2)
O2 O 0.1395(2) 0.12784(18) 0.53165(19)
Cu2 Cu -0.5000 -0.5000 0.0000
O3 O -0.6618(2) -0.43605(17) -0.00888(19)
C6 C -0.8312(4) -0.3666(3) 0.0386(3)
F11 F -0.9144(8) -0.3895(6) -0.0667(7)
F12 F -0.7800(11) -0.2578(7) 0.0505(9)
F13 F -0.8839(9) -0.3655(9) 0.1097(10)
C7 C -0.7118(3) -0.4283(2) 0.0629(3)
C8 C -0.6709(4) -0.4657(3) 0.1587(3)
H2 H -0.716(5) -0.438(4) 0.209(4)
C9 C -0.5630(4) -0.5243(3) 0.1857(3)
C10 C -0.5306(5) -0.5642(3) 0.2919(3)
F17 F -0.5321(13) -0.4902(9) 0.3729(10)
F18 F -0.6264(11) -0.6515(9) 0.2749(11)
F19 F -0.3991(8) -0.5899(7) 0.3331(7)
O4 O -0.4917(2) -0.54996(17) 0.1336(2)
O5 O -0.0841(2) 0.02284(19) 0.3241(2)
N1 N -0.2132(3) 0.0316(2) 0.2709(3)
C11 C -0.2521(4) 0.1357(3) 0.2535(3)
C12 C -0.2042(5) 0.1639(3) 0.1647(4)
H3 H -0.114(4) 0.170(3) 0.186(3)
H4 H -0.231(4) 0.231(3) 0.153(3)
H5 H -0.248(5) 0.112(4) 0.096(4)
C13 C -0.1794(5) 0.2185(3) 0.3595(3)
H6 H -0.196(5) 0.197(4) 0.422(4)
H7 H -0.210(4) 0.283(4) 0.349(4)
H8 H -0.082(5) 0.228(4) 0.387(4)
C14 C -0.4132(4) 0.1070(3) 0.2129(3)
C15 C -0.4957(5) 0.1604(3) 0.1237(4)
H9 H -0.478(4) 0.138(3) 0.059(4)
H10 H -0.468(5) 0.234(4) 0.146(4)
H11 H -0.597(5) 0.135(4) 0.107(4)
C16 C -0.4651(4) 0.1166(3) 0.3050(3)
H12 H -0.570(5) 0.093(4) 0.279(4)
H13 H -0.457(4) 0.182(3) 0.341(3)
H14 H -0.406(4) 0.083(3) 0.366(3)
N2 N -0.4369(3) -0.0089(2) 0.1665(2)
O6 O -0.5580(3) -0.0622(2) 0.1052(2)
C17 C -0.3192(3) -0.0481(3) 0.2088(3)
C18 C -0.3086(3) -0.1563(3) 0.1889(3)
C19 C -0.4137(4) -0.2433(3) 0.1231(3)
H15 H -0.506(4) -0.247(3) 0.083(3)
N3 N -0.3620(3) -0.3313(2) 0.1231(2)
N4 N -0.2231(3) -0.3010(2) 0.1898(2)
C20 C -0.1306(4) -0.3775(3) 0.2157(3)
C24 C -0.097(2) -0.3886(14) 0.3271(14)
C25 C -0.013(3) -0.4948(18) 0.3416(16)
C26 C 0.135(2) -0.4563(16) 0.391(3)
C27 C -0.1873(4) -0.1979(3) 0.2300(3)
H16 H -0.092(4) -0.168(3) 0.275(3)
O1A O -0.1152(2) 0.08567(19) 0.55589(19)
C1A C -0.2623(4) 0.1301(3) 0.6423(4)
F1A F -0.1657(9) 0.1713(11) 0.7384(9)
F2A F -0.2899(11) 0.2084(7) 0.5862(8)
F3A F -0.3750(12) 0.1019(10) 0.6596(12)
C2A C -0.2136(3) 0.0480(3) 0.5785(3)
C3A C -0.2799(4) -0.0553(3) 0.5545(3)
H1A H -0.352(4) -0.068(3) 0.570(3)
C4A C -0.2366(3) -0.1344(3) 0.5010(3)
C5A C -0.3155(4) -0.2475(3) 0.4770(3)
F7A F -0.4167(3) -0.25524(18) 0.5134(2)
F8A F -0.3695(9) -0.2905(7) 0.3604(6)
F9A F -0.2268(3) -0.30790(19) 0.5232(2)
O2A O -0.1395(2) -0.12784(18) 0.46835(19)
Cu2_2 Cu 0.5000 0.5000 1.0000
O3A O -0.3382(2) -0.56395(17) 0.00888(19)
C6A C -0.1688(4) -0.6334(3) -0.0386(3)
F11A F -0.0856(8) -0.6105(6) 0.0667(7)
F12A F -0.2200(11) -0.7422(7) -0.0505(9)
F13A F -0.1161(9) -0.6345(9) -0.1097(10)
C7A C -0.2882(3) -0.5717(2) -0.0629(3)
C8A C -0.3291(4) -0.5343(3) -0.1587(3)
H2A H -0.284(5) -0.562(4) -0.209(4)
C9A C -0.4370(4) -0.4757(3) -0.1857(3)
C10A C -0.4694(5) -0.4358(3) -0.2919(3)
F17A F -0.4679(13) -0.5098(9) -0.3729(10)
F18A F -0.3736(11) -0.3485(9) -0.2749(11)
F19A F -0.6009(8) -0.4101(7) -0.3331(7)
O4A O -0.5083(2) -0.45004(17) -0.1336(2)
O5A O 0.0841(2) -0.02284(19) 0.6759(2)
N1A N 0.2132(3) -0.0316(2) 0.7291(3)
C11A C 0.2521(4) -0.1357(3) 0.7465(3)
C12A C 0.2042(5) -0.1639(3) 0.8353(4)
H3A H 0.114(4) -0.170(3) 0.814(3)
H4A H 0.231(4) -0.231(3) 0.847(3)
H5A H 0.248(5) -0.112(4) 0.904(4)
C13A C 0.1794(5) -0.2185(3) 0.6405(3)
H6A H 0.196(5) -0.197(4) 0.578(4)
H7A H 0.210(4) -0.283(4) 0.651(4)
H8A H 0.082(5) -0.228(4) 0.613(4)
C14A C 0.4132(4) -0.1070(3) 0.7871(3)
C15A C 0.4957(5) -0.1604(3) 0.8763(4)
H9A H 0.478(4) -0.138(3) 0.941(4)
H10A H 0.468(5) -0.234(4) 0.854(4)
H11A H 0.597(5) -0.135(4) 0.893(4)
C16A C 0.4651(4) -0.1166(3) 0.6950(3)
H12A H 0.570(5) -0.093(4) 0.721(4)
H13A H 0.457(4) -0.182(3) 0.659(3)
H14A H 0.406(4) -0.083(3) 0.634(3)
N2A N 0.4369(3) 0.0089(2) 0.8335(2)
O6A O 0.5580(3) 0.0622(2) 0.8948(2)
C17A C 0.3192(3) 0.0481(3) 0.7912(3)
C18A C 0.3086(3) 0.1563(3) 0.8111(3)
C19A C 0.4137(4) 0.2433(3) 0.8769(3)
H15A H 0.506(4) 0.247(3) 0.917(3)
N3A N 0.3620(3) 0.3313(2) 0.8769(2)
N3A_2 N -0.6380(3) -0.6687(2) -0.1231(2)
N4A N 0.2231(3) 0.3010(2) 0.8102(2)
C20A C 0.1306(4) 0.3775(3) 0.7843(3)
C24A C 0.097(2) 0.3886(14) 0.6729(14)
C25A C 0.013(3) 0.4948(18) 0.6584(16)
C26A C -0.135(2) 0.4563(16) 0.609(3)
C27A C 0.1873(4) 0.1979(3) 0.7700(3)
H16A H 0.092(4) 0.168(3) 0.725(3)
F4? F 0.1781(17) -0.1531(15) 0.2544(13)
F5? F 0.2655(14) -0.2174(8) 0.3888(12)
F6? F 0.3897(9) -0.0942(9) 0.3643(11)
F10? F 0.3771(13) 0.2843(10) 0.6190(8)
F14? F -0.7856(13) -0.2770(8) 0.0474(12)
F15? F -0.9138(9) -0.3773(10) 0.0995(11)
F16? F -0.9372(9) -0.4146(7) -0.0605(9)
F20? F -0.5610(13) -0.5070(9) 0.3667(10)
F21? F -0.6053(15) -0.6551(9) 0.2718(10)
F22? F -0.4074(16) -0.5707(13) 0.3319(12)
C21? C -0.1265(8) -0.4184(7) 0.3164(8)
C22? C -0.0480(11) -0.5029(8) 0.3367(10)
C23? C 0.1022(14) -0.4716(11) 0.3656(10)
Cl2? Cl -1.1394(8) -0.2139(8) -0.0134(7)
C29? C -1.053(3) -0.116(2) -0.047(3)
loop_
_geom_bond_atom_site_label_1
_geom_bond_atom_site_label_2
_geom_bond_site_symmetry_1
_geom_bond_site_symmetry_2
Cu1 O1 1_555 1_555
O1 C2 1_555 1_555
C1 F1 1_555 1_555
F2 C1 1_555 1_555
F3 C1 1_555 1_555
C2 C1 1_555 1_555
C3 C2 1_555 1_555
H1 C3 1_555 1_555
C4 C3 1_555 1_555
C5 C4 1_555 1_555
F7 C5 1_555 1_555
F8 C5 1_555 1_555
F9 C5 1_555 1_555
O2 Cu1 1_555 1_555
Cu2 O3 1_555 1_555
O3 C7 1_555 1_555
C6 F11 1_555 1_555
F12 C6 1_555 1_555
F13 C6 1_555 1_555
C7 C6 1_555 1_555
C8 C7 1_555 1_555
H2 C8 1_555 1_555
C9 C8 1_555 1_555
C10 C9 1_555 1_555
F17 C10 1_555 1_555
F18 C10 1_555 1_555
F19 C10 1_555 1_555
O4 Cu2 1_555 1_555
O5 Cu1 1_555 1_555
N1 O5 1_555 1_555
C11 N1 1_555 1_555
C12 C11 1_555 1_555
H3 C12 1_555 1_555
H4 C12 1_555 1_555
H5 C12 1_555 1_555
C13 C11 1_555 1_555
H6 C13 1_555 1_555
H7 C13 1_555 1_555
H8 C13 1_555 1_555
C14 C11 1_555 1_555
C15 C14 1_555 1_555
H9 C15 1_555 1_555
H10 C15 1_555 1_555
H11 C15 1_555 1_555
C16 C14 1_555 1_555
H12 C16 1_555 1_555
H13 C16 1_555 1_555
H14 C16 1_555 1_555
N2 C14 1_555 1_555
O6 N2 1_555 1_555
C17 N1 1_555 1_555
C18 C17 1_555 1_555
C19 C18 1_555 1_555
H15 C19 1_555 1_555
N3 Cu2 1_555 1_555
N4 N3 1_555 1_555
C20 N4 1_555 1_555
C24 C20 1_555 1_555
C25 C24 1_555 1_555
C26 C25 1_555 1_555
C27 C18 1_555 1_555
H16 C27 1_555 1_555
Cl1 C28 1_555 1_555
C28 C30 1_555 1_555
C30 C31 1_555 1_555
C31 C28 1_555 1_555
C32 Cl1 1_555 1_555
O1A Cu1 1_555 1_555
C1A F1A 1_555 1_555
F2A C1A 1_555 1_555
F3A C1A 1_555 1_555
C2A O1A 1_555 1_555
C3A C2A 1_555 1_555
H1A C3A 1_555 1_555
C4A C3A 1_555 1_555
C5A C4A 1_555 1_555
F7A C5A 1_555 1_555
F8A C5A 1_555 1_555
F9A C5A 1_555 1_555
O2A Cu1 1_555 1_555
Cu2_2 N3A 1_555 1_555
O3A Cu2 1_555 1_555
C6A F11A 1_555 1_555
F12A C6A 1_555 1_555
F13A C6A 1_555 1_555
C7A O3A 1_555 1_555
C8A C7A 1_555 1_555
H2A C8A 1_555 1_555
C9A C8A 1_555 1_555
C10A C9A 1_555 1_555
F17A C10A 1_555 1_555
F18A C10A 1_555 1_555
F19A C10A 1_555 1_555
O4A Cu2 1_555 1_555
O5A Cu1 1_555 1_555
N1A O5A 1_555 1_555
C11A N1A 1_555 1_555
C12A C11A 1_555 1_555
H3A C12A 1_555 1_555
H4A C12A 1_555 1_555
H5A C12A 1_555 1_555
C13A C11A 1_555 1_555
H6A C13A 1_555 1_555
H7A C13A 1_555 1_555
H8A C13A 1_555 1_555
C14A C11A 1_555 1_555
C15A C14A 1_555 1_555
H9A C15A 1_555 1_555
H10A C15A 1_555 1_555
H11A C15A 1_555 1_555
C16A C14A 1_555 1_555
H12A C16A 1_555 1_555
H13A C16A 1_555 1_555
H14A C16A 1_555 1_555
N2A C14A 1_555 1_555
O6A N2A 1_555 1_555
C17A N1A 1_555 1_555
C18A C17A 1_555 1_555
C19A C18A 1_555 1_555
H15A C19A 1_555 1_555
N3A C19A 1_555 1_555
N3A_2 Cu2 1_555 1_555
N4A N3A 1_555 1_555
C20A N4A 1_555 1_555
C24A C20A 1_555 1_555
C25A C24A 1_555 1_555
C26A C25A 1_555 1_555
C27A C18A 1_555 1_555
H16A C27A 1_555 1_555
Cl1A C28A 1_555 1_555
C28A C30 1_555 1_555
C31A C30 1_555 1_555
C32A Cl1A 1_555 1_555
C4 O2 1_555 1_555
C9 O4 1_555 1_555
N2 C17 1_555 1_555
C19 N3 1_555 1_555
N4 C27 1_555 1_555
C28 C32 1_555 1_555
C31 C32 1_555 1_555
C1A C2A 1_555 1_555
C4A O2A 1_555 1_555
C6A C7A 1_555 1_555
C9A O4A 1_555 1_555
N2A C17A 1_555 1_555
N4A C27A 1_555 1_555
C28A C31A 1_555 1_555
C28A C32A 1_555 1_555
C31A C32A 1_555 1_555

#END
