
#######################################################################
#
#                 Cambridge Crystallographic Data Centre
#                                CCDC 
#
#######################################################################
#
# If this CIF has been generated from an entry in the Cambridge 
# Structural Database, then it will include bibliographic, chemical, 
# crystal, experimental, refinement or atomic coordinate data resulting 
# from the CCDC's data processing and validation procedures.
#
#######################################################################

data_SOHSAK01
_symmetry_cell_setting           triclinic
_symmetry_space_group_name_H-M   'P -1'
_symmetry_Int_Tables_number      2
_space_group_name_Hall           '-P 1'
loop_
_symmetry_equiv_pos_site_id
_symmetry_equiv_pos_as_xyz
1 x,y,z
2 -x,-y,-z
_cell_length_a                   10.4676(15)
_cell_length_b                   13.0922(19)
_cell_length_c                   13.424(2)
_cell_angle_alpha                99.848(2)
_cell_angle_beta                 112.137(2)
_cell_angle_gamma                94.697(2)
_cell_volume                     1657.23
loop_
_atom_site_label
_atom_site_type_symbol
_atom_site_fract_x
_atom_site_fract_y
_atom_site_fract_z
Cl1 Cl -0.83573(18) 0.17766(15) 0.21442(16)
C25 C -0.8892(6) 0.0609(5) 0.1535(4)
C26 C -0.9673(6) 0.0554(5) 0.0299(4)
Cl1A Cl -1.16427(18) -0.17766(15) -0.21442(16)
C25A C -1.1108(6) -0.0609(5) -0.1535(4)
C26A C -1.0327(6) -0.0554(5) -0.0299(4)
Cu1 Cu 0.0000 1.0000 0.5000
O1 O 0.1102(2) 0.91144(16) 0.44268(17)
C1 C 0.2608(3) 0.8602(3) 0.3584(3)
F1 F 0.168(2) 0.8399(10) 0.2635(16)
F2 F 0.2792(2) 0.77761(16) 0.40520(19)
F3 F 0.379(4) 0.898(2) 0.341(2)
C2 C 0.2120(3) 0.9461(2) 0.4228(2)
C3 C 0.2797(3) 1.0488(2) 0.4489(3)
H1 H 0.3579 1.0633 0.4310
C4 C 0.2344(3) 1.1313(2) 0.5014(2)
C5 C 0.3136(3) 1.2432(2) 0.5266(3)
F6 F 0.4151(2) 1.24757(15) 0.48971(17)
F7 F 0.374(2) 1.2932(14) 0.640(2)
F8 F 0.2260(2) 1.30646(15) 0.48126(18)
O2 O 0.1349(2) 1.12690(16) 0.53159(17)
Cu2 Cu -0.5000 0.5000 0.0000
O3 O -0.6624(2) 0.56820(16) -0.01063(18)
C6 C -0.8374(3) 0.6399(3) 0.0328(3)
F10 F -0.9238(2) 0.60820(18) -0.07354(17)
F11 F -0.795(3) 0.7317(14) 0.0392(15)
F12 F -0.9136(2) 0.62910(16) 0.09209(17)
C7 C -0.7145(3) 0.5781(2) 0.0605(3)
C8 C -0.6728(4) 0.5440(3) 0.1584(3)
H2 H -0.7196 0.5604 0.2060
C9 C -0.5634(3) 0.4860(2) 0.1886(3)
C10 C -0.5303(4) 0.4493(3) 0.2974(3)
F14 F -0.533(4) 0.527(3) 0.381(3)
F15 F -0.609(2) 0.3659(17) 0.2872(19)
F16 F -0.4009(18) 0.4163(12) 0.3394(14)
O4 O -0.4908(2) 0.45573(17) 0.13627(18)
O5 O -0.0880(2) 1.02539(17) 0.31781(17)
N1 N -0.2178(3) 1.0350(2) 0.2655(2)
C11 C -0.2614(3) 1.1402(2) 0.2500(3)
C12 C -0.2195(3) 1.1686(3) 0.1590(3)
H3 H -0.1175 1.1860 0.1873
H4 H -0.2616 1.2292 0.1358
H5 H -0.2525 1.1086 0.0959
C13 C -0.1864(3) 1.2233(2) 0.3568(3)
H6 H -0.0864 1.2363 0.3727
H7 H -0.1997 1.1982 0.4176
H8 H -0.2249 1.2886 0.3488
C14 C -0.4213(3) 1.1111(2) 0.2141(3)
C15 C -0.5104(3) 1.1655(3) 0.1268(3)
H9 H -0.6095 1.1426 0.1090
H10 H -0.4918 1.1471 0.0601
H11 H -0.4872 1.2417 0.1549
C16 C -0.4668(3) 1.1211(3) 0.3109(3)
H12 H -0.5685 1.1017 0.2826
H13 H -0.4391 1.1938 0.3535
H14 H -0.4218 1.0742 0.3584
N2 N -0.4424(3) 0.9956(2) 0.1659(2)
O6 O -0.5636(2) 0.94185(18) 0.10611(19)
C17 C -0.3226(3) 0.9558(2) 0.2055(2)
C18 C -0.3092(3) 0.8465(2) 0.1855(3)
C19 C -0.4139(3) 0.7585(2) 0.1225(3)
H15 H -0.5100 0.7623 0.0851
N3 N -0.3605(3) 0.6702(2) 0.1224(2)
N4 N -0.2211(3) 0.7000(2) 0.1849(2)
C20 C -0.1284(3) 0.6224(2) 0.2143(3)
H17 H -0.0325 0.6533 0.2273
H18 H -0.1594 0.5608 0.1518
C21 C -0.1261(4) 0.5862(3) 0.3165(3)
H19 H -0.2233 0.5635 0.3071
H20 H -0.0842 0.6461 0.3809
C22 C -0.0433(4) 0.4957(3) 0.3395(3)
H21 H -0.0554 0.4697 0.4009
H22 H -0.0823 0.4374 0.2734
C23 C 0.1103(4) 0.5258(4) 0.3685(4)
H23 H 0.1571 0.4646 0.3821
H24 H 0.1504 0.5822 0.4350
H25 H 0.1235 0.5500 0.3074
C24 C -0.1862(3) 0.8039(2) 0.2243(2)
H26 H -0.0953 0.8415 0.2697
O1A O -0.1102(2) 1.08856(16) 0.55732(17)
C1A C -0.2608(3) 1.1398(3) 0.6416(3)
F1A F -0.168(2) 1.1601(10) 0.7365(16)
F2A F -0.2792(2) 1.22239(16) 0.59480(19)
F3A F -0.379(4) 1.102(2) 0.659(2)
C2A C -0.2120(3) 1.0539(2) 0.5772(2)
C3A C -0.2797(3) 0.9512(2) 0.5511(3)
H1A H -0.3579 0.9367 0.5690
C4A C -0.2344(3) 0.8687(2) 0.4986(2)
C5A C -0.3136(3) 0.7568(2) 0.4734(3)
F6A F -0.4151(2) 0.75243(15) 0.51029(17)
F7A F -0.374(2) 0.7068(14) 0.360(2)
F8A F -0.2260(2) 0.69354(15) 0.51874(18)
O2A O -0.1349(2) 0.87310(16) 0.46841(17)
Cu2_2 Cu 0.5000 1.5000 1.0000
O3A O -0.3376(2) 0.43180(16) 0.01063(18)
C6A C -0.1626(3) 0.3601(3) -0.0328(3)
F10A F -0.0762(2) 0.39180(18) 0.07354(17)
F11A F -0.205(3) 0.2683(14) -0.0392(15)
F12A F -0.0864(2) 0.37090(16) -0.09209(17)
C7A C -0.2855(3) 0.4219(2) -0.0605(3)
C8A C -0.3272(4) 0.4560(3) -0.1584(3)
H2A H -0.2804 0.4396 -0.2060
C9A C -0.4366(3) 0.5140(2) -0.1886(3)
C10A C -0.4697(4) 0.5507(3) -0.2974(3)
F14A F -0.467(4) 0.473(3) -0.381(3)
F15A F -0.391(2) 0.6341(17) -0.2872(19)
F16A F -0.5991(18) 0.5837(12) -0.3394(14)
O4A O -0.5092(2) 0.54427(17) -0.13627(18)
O5A O 0.0880(2) 0.97461(17) 0.68219(17)
N1A N 0.2178(3) 0.9650(2) 0.7345(2)
C11A C 0.2614(3) 0.8598(2) 0.7500(3)
C12A C 0.2195(3) 0.8314(3) 0.8410(3)
H3A H 0.1175 0.8140 0.8127
H4A H 0.2616 0.7708 0.8642
H5A H 0.2525 0.8914 0.9041
C13A C 0.1864(3) 0.7767(2) 0.6432(3)
H6A H 0.0864 0.7637 0.6273
H7A H 0.1997 0.8018 0.5824
H8A H 0.2249 0.7114 0.6512
C14A C 0.4213(3) 0.8889(2) 0.7859(3)
C15A C 0.5104(3) 0.8345(3) 0.8732(3)
H9A H 0.6095 0.8574 0.8910
H10A H 0.4918 0.8529 0.9399
H11A H 0.4872 0.7583 0.8451
C16A C 0.4668(3) 0.8789(3) 0.6891(3)
H12A H 0.5685 0.8983 0.7174
H13A H 0.4391 0.8062 0.6465
H14A H 0.4218 0.9258 0.6416
N2A N 0.4424(3) 1.0044(2) 0.8341(2)
O6A O 0.5636(2) 1.05815(18) 0.89389(19)
C17A C 0.3226(3) 1.0442(2) 0.7945(2)
C18A C 0.3092(3) 1.1535(2) 0.8145(3)
C19A C 0.4139(3) 1.2415(2) 0.8775(3)
H15A H 0.5100 1.2377 0.9149
N3A N 0.3605(3) 1.3298(2) 0.8776(2)
N3A_2 N -0.6395(3) 0.3298(2) -0.1224(2)
N4A N 0.2211(3) 1.3000(2) 0.8151(2)
C20A C 0.1284(3) 1.3776(2) 0.7857(3)
H17A H 0.0325 1.3467 0.7727
H18A H 0.1594 1.4392 0.8482
C21A C 0.1261(4) 1.4138(3) 0.6835(3)
H19A H 0.2233 1.4365 0.6929
H20A H 0.0842 1.3539 0.6191
C22A C 0.0433(4) 1.5043(3) 0.6605(3)
H21A H 0.0554 1.5303 0.5991
H22A H 0.0823 1.5626 0.7266
C23A C -0.1103(4) 1.4742(4) 0.6315(4)
H23A H -0.1571 1.5354 0.6179
H24A H -0.1504 1.4178 0.5650
H25A H -0.1235 1.4500 0.6926
C24A C 0.1862(3) 1.1961(2) 0.7757(2)
H26A H 0.0953 1.1585 0.7303
F4? F 0.161(2) 0.8132(9) 0.2498(15)
F5? F 0.382(4) 0.887(2) 0.361(2)
F9? F 0.369(3) 1.2695(14) 0.631(2)
F13? F -0.788(2) 0.7515(13) 0.0619(15)
F17? F -0.557(4) 0.514(3) 0.368(3)
F18? F -0.6244(17) 0.3578(15) 0.2757(17)
F19? F -0.402(2) 0.4425(14) 0.3371(19)
H16? H -0.4055 0.6060 0.0892
loop_
_geom_bond_atom_site_label_1
_geom_bond_atom_site_label_2
_geom_bond_site_symmetry_1
_geom_bond_site_symmetry_2
Cu1 O1 1_555 1_555
O1 C2 1_555 1_555
C1 F1 1_555 1_555
F2 C1 1_555 1_555
F3 C1 1_555 1_555
C2 C1 1_555 1_555
C3 C2 1_555 1_555
H1 C3 1_555 1_555
C4 C3 1_555 1_555
C5 C4 1_555 1_555
F6 C5 1_555 1_555
F7 C5 1_555 1_555
F8 C5 1_555 1_555
O2 Cu1 1_555 1_555
Cu2 O3 1_555 1_555
O3 C7 1_555 1_555
C6 F10 1_555 1_555
F11 C6 1_555 1_555
F12 C6 1_555 1_555
C7 C6 1_555 1_555
C8 C7 1_555 1_555
H2 C8 1_555 1_555
C9 C8 1_555 1_555
C10 C9 1_555 1_555
F14 C10 1_555 1_555
F15 C10 1_555 1_555
F16 C10 1_555 1_555
O4 Cu2 1_555 1_555
O5 Cu1 1_555 1_555
N1 O5 1_555 1_555
C11 N1 1_555 1_555
C12 C11 1_555 1_555
H3 C12 1_555 1_555
H4 C12 1_555 1_555
H5 C12 1_555 1_555
C13 C11 1_555 1_555
H6 C13 1_555 1_555
H7 C13 1_555 1_555
H8 C13 1_555 1_555
C14 C11 1_555 1_555
C15 C14 1_555 1_555
H9 C15 1_555 1_555
H10 C15 1_555 1_555
H11 C15 1_555 1_555
C16 C14 1_555 1_555
H12 C16 1_555 1_555
H13 C16 1_555 1_555
H14 C16 1_555 1_555
N2 C14 1_555 1_555
O6 N2 1_555 1_555
C17 N1 1_555 1_555
C18 C17 1_555 1_555
C19 C18 1_555 1_555
H15 C19 1_555 1_555
N3 Cu2 1_555 1_555
N4 N3 1_555 1_555
C20 N4 1_555 1_555
H17 C20 1_555 1_555
H18 C20 1_555 1_555
C21 C20 1_555 1_555
H19 C21 1_555 1_555
H20 C21 1_555 1_555
C22 C21 1_555 1_555
H21 C22 1_555 1_555
H22 C22 1_555 1_555
C23 C22 1_555 1_555
H23 C23 1_555 1_555
H24 C23 1_555 1_555
H25 C23 1_555 1_555
C24 C18 1_555 1_555
H26 C24 1_555 1_555
Cl1 C25 1_555 1_555
C25 C26 1_555 1_555
C26 C26A 1_555 1_555
O1A Cu1 1_555 1_555
C1A F1A 1_555 1_555
F2A C1A 1_555 1_555
F3A C1A 1_555 1_555
C2A O1A 1_555 1_555
C3A C2A 1_555 1_555
H1A C3A 1_555 1_555
C4A C3A 1_555 1_555
C5A C4A 1_555 1_555
F6A C5A 1_555 1_555
F7A C5A 1_555 1_555
F8A C5A 1_555 1_555
O2A Cu1 1_555 1_555
Cu2_2 N3A 1_555 1_555
O3A Cu2 1_555 1_555
C6A F10A 1_555 1_555
F11A C6A 1_555 1_555
F12A C6A 1_555 1_555
C7A O3A 1_555 1_555
C8A C7A 1_555 1_555
H2A C8A 1_555 1_555
C9A C8A 1_555 1_555
C10A C9A 1_555 1_555
F14A C10A 1_555 1_555
F15A C10A 1_555 1_555
F16A C10A 1_555 1_555
O4A Cu2 1_555 1_555
O5A Cu1 1_555 1_555
N1A O5A 1_555 1_555
C11A N1A 1_555 1_555
C12A C11A 1_555 1_555
H3A C12A 1_555 1_555
H4A C12A 1_555 1_555
H5A C12A 1_555 1_555
C13A C11A 1_555 1_555
H6A C13A 1_555 1_555
H7A C13A 1_555 1_555
H8A C13A 1_555 1_555
C14A C11A 1_555 1_555
C15A C14A 1_555 1_555
H9A C15A 1_555 1_555
H10A C15A 1_555 1_555
H11A C15A 1_555 1_555
C16A C14A 1_555 1_555
H12A C16A 1_555 1_555
H13A C16A 1_555 1_555
H14A C16A 1_555 1_555
N2A C14A 1_555 1_555
O6A N2A 1_555 1_555
C17A N1A 1_555 1_555
C18A C17A 1_555 1_555
C19A C18A 1_555 1_555
H15A C19A 1_555 1_555
N3A C19A 1_555 1_555
N3A_2 Cu2 1_555 1_555
N4A N3A 1_555 1_555
C20A N4A 1_555 1_555
H17A C20A 1_555 1_555
H18A C20A 1_555 1_555
C21A C20A 1_555 1_555
H19A C21A 1_555 1_555
H20A C21A 1_555 1_555
C22A C21A 1_555 1_555
H21A C22A 1_555 1_555
H22A C22A 1_555 1_555
C23A C22A 1_555 1_555
H23A C23A 1_555 1_555
H24A C23A 1_555 1_555
H25A C23A 1_555 1_555
C24A C18A 1_555 1_555
H26A C24A 1_555 1_555
Cl1A C25A 1_555 1_555
C25A C26A 1_555 1_555
C4 O2 1_555 1_555
C9 O4 1_555 1_555
N2 C17 1_555 1_555
C19 N3 1_555 1_555
N4 C24 1_555 1_555
C1A C2A 1_555 1_555
C4A O2A 1_555 1_555
C6A C7A 1_555 1_555
C9A O4A 1_555 1_555
N2A C17A 1_555 1_555
N4A C24A 1_555 1_555

#END
