
#######################################################################
#
#                 Cambridge Crystallographic Data Centre
#                                CCDC 
#
#######################################################################
#
# If this CIF has been generated from an entry in the Cambridge 
# Structural Database, then it will include bibliographic, chemical, 
# crystal, experimental, refinement or atomic coordinate data resulting 
# from the CCDC's data processing and validation procedures.
#
#######################################################################

data_SOHSOY03
_symmetry_cell_setting           triclinic
_symmetry_space_group_name_H-M   'P -1'
_symmetry_Int_Tables_number      2
_space_group_name_Hall           '-P 1'
loop_
_symmetry_equiv_pos_site_id
_symmetry_equiv_pos_as_xyz
1 x,y,z
2 -x,-y,-z
_cell_length_a                   12.144(7)
_cell_length_b                   12.321(7)
_cell_length_c                   13.924(8)
_cell_angle_alpha                104.231(9)
_cell_angle_beta                 104.219(9)
_cell_angle_gamma                112.561(9)
_cell_volume                     1725.2
loop_
_atom_site_label
_atom_site_type_symbol
_atom_site_fract_x
_atom_site_fract_y
_atom_site_fract_z
O7 O 0.4645(10) 0.9438(13) 0.5027(9)
C25 C 0.507(5) 1.0751(19) 0.534(3)
C26 C 0.534(2) 1.1639(15) 0.6464(16)
C27 C 0.506(3) 0.915(2) 0.419(2)
C28 C 0.547(2) 1.221(2) 0.606(3)
O7A O 0.5355(10) 1.0562(13) 0.4973(9)
C25A C 0.493(5) 0.9249(19) 0.466(3)
C26A C 0.466(2) 0.8361(15) 0.3536(16)
C27A C 0.494(3) 1.085(2) 0.581(2)
C28A C 0.453(2) 0.779(2) 0.394(3)
Cu1 Cu 0.0000 1.0000 0.5000
O1 O -0.0974(2) 0.8735(2) 0.35489(18)
C1 C -0.2568(5) 0.6928(5) 0.2073(4)
F1 F -0.2202(12) 0.7570(11) 0.1489(7)
F2 F -0.2068(17) 0.6105(14) 0.1941(15)
F3 F -0.3775(8) 0.6214(15) 0.1685(10)
C2 C -0.1988(3) 0.7727(3) 0.3276(3)
C3 C -0.2600(4) 0.7262(3) 0.3910(3)
H1 H -0.3353 0.6474 0.3590
C4 C -0.2139(4) 0.7919(3) 0.4995(3)
C5 C -0.2872(6) 0.7329(6) 0.5642(5)
F7 F -0.4202(8) 0.6593(13) 0.4982(10)
F8 F -0.286(2) 0.8145(16) 0.6355(15)
F9 F -0.254(2) 0.6537(17) 0.5833(17)
O2 O -0.1151(2) 0.8977(2) 0.55532(19)
Cu2 Cu 0.0000 0.5000 0.0000
O3 O 0.1526(2) 0.61149(19) -0.02254(16)
C6 C 0.3684(4) 0.7196(4) -0.0065(3)
F13 F 0.4045(15) 0.6677(15) -0.0757(11)
F14 F 0.3299(14) 0.7865(13) -0.0532(12)
F15 F 0.4409(17) 0.8165(12) 0.0825(12)
C7 C 0.2622(3) 0.6218(3) 0.0147(2)
C8 C 0.2989(3) 0.5555(3) 0.0727(3)
H2 H 0.3860 0.5741 0.0974
C9 C 0.2135(3) 0.4642(3) 0.0952(2)
C10 C 0.2661(5) 0.3992(5) 0.1603(4)
F20 F 0.355(2) 0.4653(11) 0.2450(16)
F21 F 0.289(5) 0.323(4) 0.103(2)
F22 F 0.1825(17) 0.314(3) 0.174(3)
O4 O 0.0953(2) 0.42776(19) 0.07182(16)
O5 O 0.1644(2) 0.9311(2) 0.54630(17)
N1 N 0.1751(2) 0.8313(2) 0.5497(2)
C11 C 0.1976(3) 0.8051(3) 0.6503(3)
C12 C 0.3069(4) 0.9268(4) 0.7433(3)
H3 H 0.2785 0.9905 0.7576
H4 H 0.3815 0.9585 0.7242
H5 H 0.3298 0.9080 0.8068
C13 C 0.0705(4) 0.7670(4) 0.6689(3)
H6 H 0.0563 0.8403 0.6878
H7 H 0.0753 0.7359 0.7265
H8 H -0.0003 0.7007 0.6039
C14 C 0.2309(3) 0.6933(3) 0.6186(2)
C15 C 0.3746(4) 0.7349(4) 0.6524(3)
H9 H 0.3871 0.6609 0.6302
H10 H 0.4164 0.7780 0.7297
H11 H 0.4117 0.7922 0.6189
C16 C 0.1637(4) 0.5818(3) 0.6498(3)
H12 H 0.1899 0.5177 0.6275
H13 H 0.0710 0.5452 0.6147
H14 H 0.1876 0.6118 0.7268
N2 N 0.1788(2) 0.6506(2) 0.4994(2)
O6 O 0.1702(2) 0.5482(2) 0.43906(19)
C17 C 0.1583(3) 0.7377(3) 0.4661(2)
C18 C 0.1264(3) 0.7312(3) 0.3574(2)
C19 C 0.0936(3) 0.6295(3) 0.2641(2)
H15 H 0.0865 0.5504 0.2626
N3 N 0.0738(3) 0.6594(2) 0.1784(2)
N4 N 0.0939(2) 0.7813(2) 0.2162(2)
C20 C 0.0828(4) 0.8492(3) 0.1446(3)
H16 H 0.0493 0.9065 0.1705
H17 H 0.0203 0.7875 0.0730
C21 C 0.2087(4) 0.9256(4) 0.1362(3)
H18 H 0.2457 0.8699 0.1152
H19 H 0.2694 0.9921 0.2065
C22 C 0.1905(6) 0.9873(5) 0.0536(5)
H20 H 0.1320 0.9204 -0.0171
H21 H 0.1505 1.0404 0.0733
C23 C 0.3121(7) 1.0649(6) 0.0474(6)
H22 H 0.2963 1.1016 -0.0053
H23 H 0.3513 1.0124 0.0265
H24 H 0.3697 1.1323 0.1168
C24 C 0.1248(3) 0.8264(3) 0.3215(2)
H25 H 0.1425 0.9079 0.3639
O1A O 0.0974(2) 1.1265(2) 0.64511(18)
C1A C 0.2568(5) 1.3072(5) 0.7927(4)
F1A F 0.2202(12) 1.2430(11) 0.8511(7)
F2A F 0.2068(17) 1.3895(14) 0.8059(15)
F3A F 0.3775(8) 1.3786(15) 0.8315(10)
C2A C 0.1988(3) 1.2273(3) 0.6724(3)
C3A C 0.2600(4) 1.2738(3) 0.6090(3)
H1A H 0.3353 1.3526 0.6410
C4A C 0.2139(4) 1.2081(3) 0.5005(3)
C5A C 0.2872(6) 1.2671(6) 0.4358(5)
F7A F 0.4202(8) 1.3407(13) 0.5018(10)
F8A F 0.286(2) 1.1855(16) 0.3645(15)
F9A F 0.254(2) 1.3463(17) 0.4167(17)
O2A O 0.1151(2) 1.1023(2) 0.44468(19)
Cu2_2 Cu 0.0000 1.5000 1.0000
O3A O -0.1526(2) 0.38851(19) 0.02254(16)
C6A C -0.3684(4) 0.2804(4) 0.0065(3)
F13A F -0.4045(15) 0.3323(15) 0.0757(11)
F14A F -0.3299(14) 0.2135(13) 0.0532(12)
F15A F -0.4409(17) 0.1835(12) -0.0825(12)
C7A C -0.2622(3) 0.3782(3) -0.0147(2)
C8A C -0.2989(3) 0.4445(3) -0.0727(3)
H2A H -0.3860 0.4259 -0.0974
C9A C -0.2135(3) 0.5358(3) -0.0952(2)
C10A C -0.2661(5) 0.6008(5) -0.1603(4)
F20A F -0.355(2) 0.5347(11) -0.2450(16)
F21A F -0.289(5) 0.677(4) -0.103(2)
F22A F -0.1825(17) 0.686(3) -0.174(3)
O4A O -0.0953(2) 0.57224(19) -0.07182(16)
O5A O -0.1644(2) 1.0689(2) 0.45370(17)
N1A N -0.1751(2) 1.1687(2) 0.4503(2)
C11A C -0.1976(3) 1.1949(3) 0.3497(3)
C12A C -0.3069(4) 1.0732(4) 0.2567(3)
H3A H -0.2785 1.0095 0.2424
H4A H -0.3815 1.0415 0.2758
H5A H -0.3298 1.0920 0.1932
C13A C -0.0705(4) 1.2330(4) 0.3311(3)
H6A H -0.0563 1.1597 0.3122
H7A H -0.0753 1.2641 0.2735
H8A H 0.0003 1.2993 0.3961
C14A C -0.2309(3) 1.3067(3) 0.3814(2)
C15A C -0.3746(4) 1.2651(4) 0.3476(3)
H9A H -0.3871 1.3391 0.3698
H10A H -0.4164 1.2220 0.2703
H11A H -0.4117 1.2078 0.3811
C16A C -0.1637(4) 1.4182(3) 0.3502(3)
H12A H -0.1899 1.4823 0.3725
H13A H -0.0710 1.4548 0.3853
H14A H -0.1876 1.3882 0.2732
N2A N -0.1788(2) 1.3494(2) 0.5006(2)
O6A O -0.1702(2) 1.4518(2) 0.56094(19)
C17A C -0.1583(3) 1.2623(3) 0.5339(2)
C18A C -0.1264(3) 1.2688(3) 0.6426(2)
C19A C -0.0936(3) 1.3705(3) 0.7359(2)
H15A H -0.0865 1.4496 0.7374
N3A N -0.0738(3) 1.3406(2) 0.8216(2)
N3A_2 N -0.0738(3) 0.3406(2) -0.1784(2)
N4A N -0.0939(2) 1.2187(2) 0.7838(2)
C20A C -0.0828(4) 1.1508(3) 0.8554(3)
H16A H -0.0493 1.0935 0.8295
H17A H -0.0203 1.2125 0.9270
C21A C -0.2087(4) 1.0744(4) 0.8638(3)
H18A H -0.2457 1.1301 0.8848
H19A H -0.2694 1.0079 0.7935
C22A C -0.1905(6) 1.0127(5) 0.9464(5)
H20A H -0.1320 1.0796 1.0171
H21A H -0.1505 0.9596 0.9267
C23A C -0.3121(7) 0.9351(6) 0.9526(6)
H22A H -0.2963 0.8984 1.0053
H23A H -0.3513 0.9876 0.9735
H24A H -0.3697 0.8677 0.8832
C24A C -0.1248(3) 1.1736(3) 0.6785(2)
H25A H -0.1425 1.0921 0.6361
F4? F -0.292(2) 0.7573(19) 0.1570(12)
F5? F -0.1884(16) 0.656(2) 0.1731(15)
F6? F -0.3658(14) 0.5917(16) 0.1774(13)
F10? F -0.3345(18) 0.7987(16) 0.6096(16)
F11? F -0.3626(16) 0.6226(9) 0.5293(12)
F12? F -0.1975(11) 0.7562(18) 0.6642(11)
F16? F 0.4466(16) 0.6738(18) -0.0313(14)
F17? F 0.3237(12) 0.7562(14) -0.0778(10)
F18? F 0.4682(17) 0.8026(15) 0.0756(10)
F19? F 0.1913(15) 0.2787(10) 0.1204(14)
F23? F 0.264(2) 0.4421(19) 0.2572(9)
F24? F 0.3781(8) 0.4128(16) 0.1614(17)
loop_
_geom_bond_atom_site_label_1
_geom_bond_atom_site_label_2
_geom_bond_site_symmetry_1
_geom_bond_site_symmetry_2
Cu1 O1 1_555 1_555
O1 C2 1_555 1_555
C1 F1 1_555 1_555
F2 C1 1_555 1_555
F3 C1 1_555 1_555
C2 C1 1_555 1_555
C3 C2 1_555 1_555
H1 C3 1_555 1_555
C4 C3 1_555 1_555
C5 C4 1_555 1_555
F7 C5 1_555 1_555
F8 C5 1_555 1_555
F9 C5 1_555 1_555
O2 Cu1 1_555 1_555
Cu2 O3 1_555 1_555
O3 C7 1_555 1_555
C6 F13 1_555 1_555
F14 C6 1_555 1_555
F15 C6 1_555 1_555
C7 C6 1_555 1_555
C8 C7 1_555 1_555
H2 C8 1_555 1_555
C9 C8 1_555 1_555
C10 C9 1_555 1_555
F20 C10 1_555 1_555
F21 C10 1_555 1_555
F22 C10 1_555 1_555
O4 Cu2 1_555 1_555
O5 Cu1 1_555 1_555
N1 O5 1_555 1_555
C11 N1 1_555 1_555
C12 C11 1_555 1_555
H3 C12 1_555 1_555
H4 C12 1_555 1_555
H5 C12 1_555 1_555
C13 C11 1_555 1_555
H6 C13 1_555 1_555
H7 C13 1_555 1_555
H8 C13 1_555 1_555
C14 C11 1_555 1_555
C15 C14 1_555 1_555
H9 C15 1_555 1_555
H10 C15 1_555 1_555
H11 C15 1_555 1_555
C16 C14 1_555 1_555
H12 C16 1_555 1_555
H13 C16 1_555 1_555
H14 C16 1_555 1_555
N2 C14 1_555 1_555
O6 N2 1_555 1_555
C17 N1 1_555 1_555
C18 C17 1_555 1_555
C19 C18 1_555 1_555
H15 C19 1_555 1_555
N3 Cu2 1_555 1_555
N4 N3 1_555 1_555
C20 N4 1_555 1_555
H16 C20 1_555 1_555
H17 C20 1_555 1_555
C21 C20 1_555 1_555
H18 C21 1_555 1_555
H19 C21 1_555 1_555
C22 C21 1_555 1_555
H20 C22 1_555 1_555
H21 C22 1_555 1_555
C23 C22 1_555 1_555
H22 C23 1_555 1_555
H23 C23 1_555 1_555
H24 C23 1_555 1_555
C24 C18 1_555 1_555
H25 C24 1_555 1_555
O7 C25 1_555 1_555
C25 C26 1_555 1_555
C26 C28 1_555 1_555
C27 O7 1_555 1_555
C28 C25 1_555 1_555
O1A Cu1 1_555 1_555
C1A F1A 1_555 1_555
F2A C1A 1_555 1_555
F3A C1A 1_555 1_555
C2A O1A 1_555 1_555
C3A C2A 1_555 1_555
H1A C3A 1_555 1_555
C4A C3A 1_555 1_555
C5A C4A 1_555 1_555
F7A C5A 1_555 1_555
F8A C5A 1_555 1_555
F9A C5A 1_555 1_555
O2A Cu1 1_555 1_555
Cu2_2 N3A 1_555 1_555
O3A Cu2 1_555 1_555
C6A F13A 1_555 1_555
F14A C6A 1_555 1_555
F15A C6A 1_555 1_555
C7A O3A 1_555 1_555
C8A C7A 1_555 1_555
H2A C8A 1_555 1_555
C9A C8A 1_555 1_555
C10A C9A 1_555 1_555
F20A C10A 1_555 1_555
F21A C10A 1_555 1_555
F22A C10A 1_555 1_555
O4A Cu2 1_555 1_555
O5A Cu1 1_555 1_555
N1A O5A 1_555 1_555
C11A N1A 1_555 1_555
C12A C11A 1_555 1_555
H3A C12A 1_555 1_555
H4A C12A 1_555 1_555
H5A C12A 1_555 1_555
C13A C11A 1_555 1_555
H6A C13A 1_555 1_555
H7A C13A 1_555 1_555
H8A C13A 1_555 1_555
C14A C11A 1_555 1_555
C15A C14A 1_555 1_555
H9A C15A 1_555 1_555
H10A C15A 1_555 1_555
H11A C15A 1_555 1_555
C16A C14A 1_555 1_555
H12A C16A 1_555 1_555
H13A C16A 1_555 1_555
H14A C16A 1_555 1_555
N2A C14A 1_555 1_555
O6A N2A 1_555 1_555
C17A N1A 1_555 1_555
C18A C17A 1_555 1_555
C19A C18A 1_555 1_555
H15A C19A 1_555 1_555
N3A C19A 1_555 1_555
N3A_2 Cu2 1_555 1_555
N4A N3A 1_555 1_555
C20A N4A 1_555 1_555
H16A C20A 1_555 1_555
H17A C20A 1_555 1_555
C21A C20A 1_555 1_555
H18A C21A 1_555 1_555
H19A C21A 1_555 1_555
C22A C21A 1_555 1_555
H20A C22A 1_555 1_555
H21A C22A 1_555 1_555
C23A C22A 1_555 1_555
H22A C23A 1_555 1_555
H23A C23A 1_555 1_555
H24A C23A 1_555 1_555
C24A C18A 1_555 1_555
H25A C24A 1_555 1_555
O7A O7 1_555 1_555
C25A O7 1_555 1_555
C26A C27 1_555 1_555
C27A O7 1_555 1_555
C28A C27 1_555 1_555
C4 O2 1_555 1_555
C9 O4 1_555 1_555
N2 C17 1_555 1_555
C19 N3 1_555 1_555
N4 C24 1_555 1_555
C25 O7A 1_555 1_555
C25 C27A 1_555 1_555
C26 C27A 1_555 1_555
C27 O7A 1_555 1_555
C27 C25A 1_555 1_555
C28 C27A 1_555 1_555
C1A C2A 1_555 1_555
C4A O2A 1_555 1_555
C6A C7A 1_555 1_555
C9A O4A 1_555 1_555
N2A C17A 1_555 1_555
N4A C24A 1_555 1_555
O7A C25A 1_555 1_555
O7A C27A 1_555 1_555
C25A C26A 1_555 1_555
C25A C28A 1_555 1_555
C26A C28A 1_555 1_555

#END
