
#######################################################################
#
#                 Cambridge Crystallographic Data Centre
#                                CCDC 
#
#######################################################################
#
# If this CIF has been generated from an entry in the Cambridge 
# Structural Database, then it will include bibliographic, chemical, 
# crystal, experimental, refinement or atomic coordinate data resulting 
# from the CCDC's data processing and validation procedures.
#
#######################################################################

data_SOHTOZ05
_symmetry_cell_setting           triclinic
_symmetry_space_group_name_H-M   'P -1'
_symmetry_Int_Tables_number      2
_space_group_name_Hall           '-P 1'
loop_
_symmetry_equiv_pos_site_id
_symmetry_equiv_pos_as_xyz
1 x,y,z
2 -x,-y,-z
_cell_length_a                   10.783(5)
_cell_length_b                   13.337(6)
_cell_length_c                   13.633(7)
_cell_angle_alpha                98.858(8)
_cell_angle_beta                 112.084(8)
_cell_angle_gamma                96.551(8)
_cell_volume                     1763.14
loop_
_atom_site_label
_atom_site_type_symbol
_atom_site_fract_x
_atom_site_fract_y
_atom_site_fract_z
Cl1 Cl -0.1500(5) -0.2368(4) 0.4678(5)
C26 C -0.0588(17) -0.1263(11) 0.5220(18)
C27 C -0.0503(12) -0.0436(13) 0.4769(15)
Cl1A Cl 0.1500(5) 0.2368(4) 0.5322(5)
C26A C 0.0588(17) 0.1263(11) 0.4780(18)
C27A C 0.0503(12) 0.0436(13) 0.5231(15)
Cu1 Cu 0.0000 0.0000 0.0000
O1 O 0.1296(2) 0.12721(19) 0.02720(19)
C1 C 0.3025(5) 0.2467(4) 0.0209(4)
F1 F 0.3424(7) 0.2877(5) 0.1195(5)
F2 F 0.2209(7) 0.3054(5) -0.0336(6)
F3 F 0.4054(5) 0.2549(5) -0.0210(5)
C2 C 0.2250(4) 0.1357(3) -0.0041(3)
C3 C 0.2674(4) 0.0581(3) -0.0569(3)
H1 H 0.334(4) 0.074(3) -0.077(3)
C4 C 0.2066(4) -0.0442(3) -0.0787(3)
C5 C 0.2596(5) -0.1247(4) -0.1378(4)
F7 F 0.2417(8) -0.2089(6) -0.1223(8)
F8 F 0.3908(6) -0.0968(5) -0.1133(7)
F9 F 0.2107(8) -0.1329(8) -0.2357(6)
O2 O 0.1114(2) -0.08217(19) -0.0564(2)
Cu2 Cu 0.5000 0.5000 0.5000
O3 O 0.4845(2) 0.54812(19) 0.3670(2)
C6 C 0.5060(5) 0.5587(4) 0.2035(4)
F13 F 0.3733(8) 0.5432(8) 0.1543(6)
F14 F 0.5467(9) 0.6495(5) 0.2112(5)
F15 F 0.5432(8) 0.5053(7) 0.1310(6)
C7 C 0.5487(4) 0.5212(3) 0.3098(3)
C8 C 0.6515(4) 0.4634(3) 0.3347(3)
H2 H 0.693(4) 0.455(3) 0.295(3)
C9 C 0.6966(4) 0.4268(3) 0.4277(3)
C10 C 0.8134(4) 0.3667(3) 0.4498(4)
F19 F 0.8582(7) 0.3515(6) 0.3743(6)
F20 F 0.7790(7) 0.2768(5) 0.4660(7)
F21 F 0.9225(9) 0.4166(8) 0.5336(10)
O4 O 0.6545(2) 0.43716(18) 0.5027(2)
O5 O 0.0913(2) -0.01786(19) 0.1779(2)
N1 N 0.2181(3) -0.0267(2) 0.2311(2)
C11 C 0.2571(4) -0.1285(3) 0.2476(3)
C12 C 0.2112(5) -0.1556(4) 0.3355(4)
H3 H 0.118(4) -0.159(3) 0.318(3)
H4 H 0.253(3) -0.103(3) 0.399(3)
H5 H 0.207(4) -0.208(3) 0.342(3)
C13 C 0.1832(5) -0.2103(3) 0.1446(4)
H6 H 0.189(3) -0.199(3) 0.097(3)
H7 H 0.062(4) -0.217(3) 0.117(3)
H8 H 0.220(4) -0.264(3) 0.155(3)
C14 C 0.4133(4) -0.0988(3) 0.2883(3)
C15 C 0.4939(5) -0.1509(4) 0.3774(4)
H9 H 0.579(4) -0.129(3) 0.398(3)
H10 H 0.479(4) -0.223(4) 0.371(3)
H11 H 0.464(4) -0.134(3) 0.449(3)
C16 C 0.4696(5) -0.1032(4) 0.2008(4)
H12 H 0.409(4) -0.086(3) 0.133(3)
H13 H 0.458(2) -0.145(2) 0.176(2)
N2 N 0.4363(3) 0.0145(2) 0.3343(2)
O6 O 0.5525(3) 0.0681(2) 0.3935(2)
C17 C 0.3195(3) 0.0537(3) 0.2912(3)
C18 C 0.3084(3) 0.1592(3) 0.3124(3)
C19 C 0.4107(4) 0.2445(3) 0.3794(3)
H15 H 0.510(3) 0.247(3) 0.436(3)
N3 N 0.3600(3) 0.3317(2) 0.3801(2)
N4 N 0.2263(3) 0.3025(2) 0.3123(2)
C20 C 0.1363(4) 0.3792(3) 0.2922(4)
H16 H 0.0611 0.3592 0.3133
H17 H 0.1879 0.4465 0.3385
C21 C 0.0814(7) 0.3897(5) 0.1829(6)
H18 H 0.0179 0.3263 0.1368
H19 H 0.1548 0.4014 0.1578
C22 C 0.0022(10) 0.4869(8) 0.1746(8)
H20 H 0.0345 0.5293 0.2479
H21 H 0.0324 0.5288 0.1318
C23 C -0.1098(11) 0.4736(10) 0.1403(11)
H22 H -0.1399 0.5391 0.1341
H23 H -0.1429 0.4419 0.1874
H24 H -0.1455 0.4283 0.0691
C24 C 0.1927(4) 0.2024(3) 0.2714(3)
H25 H 0.111(3) 0.174(2) 0.239(2)
O1A O -0.1296(2) -0.12721(19) -0.02720(19)
C1A C -0.3025(5) -0.2467(4) -0.0209(4)
F1A F -0.3424(7) -0.2877(5) -0.1195(5)
F2A F -0.2209(7) -0.3054(5) 0.0336(6)
F3A F -0.4054(5) -0.2549(5) 0.0210(5)
C2A C -0.2250(4) -0.1357(3) 0.0041(3)
C3A C -0.2674(4) -0.0581(3) 0.0569(3)
H1A H -0.334(4) -0.074(3) 0.077(3)
C4A C -0.2066(4) 0.0442(3) 0.0787(3)
C5A C -0.2596(5) 0.1247(4) 0.1378(4)
F7A F -0.2417(8) 0.2089(6) 0.1223(8)
F8A F -0.3908(6) 0.0968(5) 0.1133(7)
F9A F -0.2107(8) 0.1329(8) 0.2357(6)
O2A O -0.1114(2) 0.08217(19) 0.0564(2)
Cu2_2 Cu -0.5000 -0.5000 -0.5000
O3A O 0.5155(2) 0.45188(19) 0.6330(2)
C6A C 0.4940(5) 0.4413(4) 0.7965(4)
F13A F 0.6267(8) 0.4568(8) 0.8457(6)
F14A F 0.4533(9) 0.3505(5) 0.7888(5)
F15A F 0.4568(8) 0.4947(7) 0.8690(6)
C7A C 0.4513(4) 0.4788(3) 0.6902(3)
C8A C 0.3485(4) 0.5366(3) 0.6653(3)
H2A H 0.307(4) 0.545(3) 0.705(3)
C9A C 0.3034(4) 0.5732(3) 0.5723(3)
C10A C 0.1866(4) 0.6333(3) 0.5502(4)
F19A F 0.1418(7) 0.6485(6) 0.6257(6)
F20A F 0.2210(7) 0.7232(5) 0.5340(7)
F21A F 0.0775(9) 0.5834(8) 0.4664(10)
O4A O 0.3455(2) 0.56284(18) 0.4973(2)
O5A O -0.0913(2) 0.01786(19) -0.1779(2)
N1A N -0.2181(3) 0.0267(2) -0.2311(2)
C11A C -0.2571(4) 0.1285(3) -0.2476(3)
C12A C -0.2112(5) 0.1556(4) -0.3355(4)
H3A H -0.118(4) 0.159(3) -0.318(3)
H4A H -0.253(3) 0.103(3) -0.399(3)
H5A H -0.207(4) 0.208(3) -0.342(3)
C13A C -0.1832(5) 0.2103(3) -0.1446(4)
H6A H -0.189(3) 0.199(3) -0.097(3)
H7A H -0.062(4) 0.217(3) -0.117(3)
H8A H -0.220(4) 0.264(3) -0.155(3)
C14A C -0.4133(4) 0.0988(3) -0.2883(3)
C15A C -0.4939(5) 0.1509(4) -0.3774(4)
H9A H -0.579(4) 0.129(3) -0.398(3)
H10A H -0.479(4) 0.223(4) -0.371(3)
H11A H -0.464(4) 0.134(3) -0.449(3)
C16A C -0.4696(5) 0.1032(4) -0.2008(4)
H12A H -0.409(4) 0.086(3) -0.133(3)
H13A H -0.458(2) 0.145(2) -0.176(2)
N2A N -0.4363(3) -0.0145(2) -0.3343(2)
O6A O -0.5525(3) -0.0681(2) -0.3935(2)
C17A C -0.3195(3) -0.0537(3) -0.2912(3)
C18A C -0.3084(3) -0.1592(3) -0.3124(3)
C19A C -0.4107(4) -0.2445(3) -0.3794(3)
H15A H -0.510(3) -0.247(3) -0.436(3)
N3A N -0.3600(3) -0.3317(2) -0.3801(2)
N3A_2 N 0.6400(3) 0.6683(2) 0.6199(2)
N4A N -0.2263(3) -0.3025(2) -0.3123(2)
C20A C -0.1363(4) -0.3792(3) -0.2922(4)
H16A H -0.0611 -0.3592 -0.3133
H17A H -0.1879 -0.4465 -0.3385
C21A C -0.0814(7) -0.3897(5) -0.1829(6)
H18A H -0.0179 -0.3263 -0.1368
H19A H -0.1548 -0.4014 -0.1578
C22A C -0.0022(10) -0.4869(8) -0.1746(8)
H20A H -0.0345 -0.5293 -0.2479
H21A H -0.0324 -0.5288 -0.1318
C23A C 0.1098(11) -0.4736(10) -0.1403(11)
H22A H 0.1399 -0.5391 -0.1341
H23A H 0.1429 -0.4419 -0.1874
H24A H 0.1455 -0.4283 -0.0691
C24A C -0.1927(4) -0.2024(3) -0.2714(3)
H25A H -0.111(3) -0.174(2) -0.239(2)
F4? F 0.3848(11) 0.2795(9) 0.1256(10)
F5? F 0.2191(12) 0.3084(7) 0.0056(13)
F6? F 0.3746(11) 0.2605(7) -0.0170(11)
F10? F 0.2958(9) -0.1984(6) -0.0840(6)
F11? F 0.3420(9) -0.0929(6) -0.1776(8)
F12? F 0.1495(7) -0.1767(7) -0.2308(6)
F16? F 0.6043(10) 0.6497(8) 0.2274(8)
F17? F 0.3913(11) 0.5889(9) 0.1751(7)
F18? F 0.5061(10) 0.4963(6) 0.1254(6)
F22? F 0.9035(7) 0.3943(7) 0.5487(6)
F23? F 0.7670(8) 0.2690(6) 0.4320(8)
F24? F 0.8802(7) 0.3771(7) 0.3861(8)
H14? H 0.506(10) 0.063(7) 0.053(8)
C25? C -0.1500(5) -0.2368(4) 0.4678(5)
loop_
_geom_bond_atom_site_label_1
_geom_bond_atom_site_label_2
_geom_bond_site_symmetry_1
_geom_bond_site_symmetry_2
Cu1 O1 1_555 1_555
O1 C2 1_555 1_555
C1 F1 1_555 1_555
F2 C1 1_555 1_555
F3 C1 1_555 1_555
C2 C1 1_555 1_555
C3 C2 1_555 1_555
H1 C3 1_555 1_555
C4 C3 1_555 1_555
C5 C4 1_555 1_555
F7 C5 1_555 1_555
F8 C5 1_555 1_555
F9 C5 1_555 1_555
O2 Cu1 1_555 1_555
Cu2 O3 1_555 1_555
O3 C7 1_555 1_555
C6 F13 1_555 1_555
F14 C6 1_555 1_555
F15 C6 1_555 1_555
C7 C6 1_555 1_555
C8 C7 1_555 1_555
H2 C8 1_555 1_555
C9 C8 1_555 1_555
C10 C9 1_555 1_555
F19 C10 1_555 1_555
F20 C10 1_555 1_555
F21 C10 1_555 1_555
O4 Cu2 1_555 1_555
O5 Cu1 1_555 1_555
N1 O5 1_555 1_555
C11 N1 1_555 1_555
C12 C11 1_555 1_555
H3 C12 1_555 1_555
H4 C12 1_555 1_555
H5 C12 1_555 1_555
C13 C11 1_555 1_555
H6 C13 1_555 1_555
H7 C13 1_555 1_555
H8 C13 1_555 1_555
C14 C11 1_555 1_555
C15 C14 1_555 1_555
H9 C15 1_555 1_555
H10 C15 1_555 1_555
H11 C15 1_555 1_555
C16 C14 1_555 1_555
H12 C16 1_555 1_555
H13 C16 1_555 1_555
N2 C14 1_555 1_555
O6 N2 1_555 1_555
C17 N1 1_555 1_555
C18 C17 1_555 1_555
C19 C18 1_555 1_555
H15 C19 1_555 1_555
N3 Cu2 1_555 1_555
N4 N3 1_555 1_555
C20 N4 1_555 1_555
H16 C20 1_555 1_555
H17 C20 1_555 1_555
C21 C20 1_555 1_555
H18 C21 1_555 1_555
H19 C21 1_555 1_555
C22 C21 1_555 1_555
H20 C22 1_555 1_555
H21 C22 1_555 1_555
C23 C22 1_555 1_555
H22 C23 1_555 1_555
H23 C23 1_555 1_555
H24 C23 1_555 1_555
C24 C18 1_555 1_555
H25 C24 1_555 1_555
Cl1 C26 1_555 1_555
C26 C27 1_555 1_555
C27 C27A 1_555 1_555
O1A Cu1 1_555 1_555
C1A F1A 1_555 1_555
F2A C1A 1_555 1_555
F3A C1A 1_555 1_555
C2A O1A 1_555 1_555
C3A C2A 1_555 1_555
H1A C3A 1_555 1_555
C4A C3A 1_555 1_555
C5A C4A 1_555 1_555
F7A C5A 1_555 1_555
F8A C5A 1_555 1_555
F9A C5A 1_555 1_555
O2A Cu1 1_555 1_555
Cu2_2 N3A 1_555 1_555
O3A Cu2 1_555 1_555
C6A F13A 1_555 1_555
F14A C6A 1_555 1_555
F15A C6A 1_555 1_555
C7A O3A 1_555 1_555
C8A C7A 1_555 1_555
H2A C8A 1_555 1_555
C9A C8A 1_555 1_555
C10A C9A 1_555 1_555
F19A C10A 1_555 1_555
F20A C10A 1_555 1_555
F21A C10A 1_555 1_555
O4A Cu2 1_555 1_555
O5A Cu1 1_555 1_555
N1A O5A 1_555 1_555
C11A N1A 1_555 1_555
C12A C11A 1_555 1_555
H3A C12A 1_555 1_555
H4A C12A 1_555 1_555
H5A C12A 1_555 1_555
C13A C11A 1_555 1_555
H6A C13A 1_555 1_555
H7A C13A 1_555 1_555
H8A C13A 1_555 1_555
C14A C11A 1_555 1_555
C15A C14A 1_555 1_555
H9A C15A 1_555 1_555
H10A C15A 1_555 1_555
H11A C15A 1_555 1_555
C16A C14A 1_555 1_555
H12A C16A 1_555 1_555
H13A C16A 1_555 1_555
N2A C14A 1_555 1_555
O6A N2A 1_555 1_555
C17A N1A 1_555 1_555
C18A C17A 1_555 1_555
C19A C18A 1_555 1_555
H15A C19A 1_555 1_555
N3A C19A 1_555 1_555
N3A_2 Cu2 1_555 1_555
N4A N3A 1_555 1_555
C20A N4A 1_555 1_555
H16A C20A 1_555 1_555
H17A C20A 1_555 1_555
C21A C20A 1_555 1_555
H18A C21A 1_555 1_555
H19A C21A 1_555 1_555
C22A C21A 1_555 1_555
H20A C22A 1_555 1_555
H21A C22A 1_555 1_555
C23A C22A 1_555 1_555
H22A C23A 1_555 1_555
H23A C23A 1_555 1_555
H24A C23A 1_555 1_555
C24A C18A 1_555 1_555
H25A C24A 1_555 1_555
Cl1A C26A 1_555 1_555
C26A C27A 1_555 1_555
C4 O2 1_555 1_555
C9 O4 1_555 1_555
N2 C17 1_555 1_555
C19 N3 1_555 1_555
N4 C24 1_555 1_555
C1A C2A 1_555 1_555
C4A O2A 1_555 1_555
C6A C7A 1_555 1_555
C9A O4A 1_555 1_555
N2A C17A 1_555 1_555
N4A C24A 1_555 1_555

#END
