
#######################################################################
#
#                 Cambridge Crystallographic Data Centre
#                                CCDC 
#
#######################################################################
#
# If this CIF has been generated from an entry in the Cambridge 
# Structural Database, then it will include bibliographic, chemical, 
# crystal, experimental, refinement or atomic coordinate data resulting 
# from the CCDC's data processing and validation procedures.
#
#######################################################################

data_SOHTAL02
_symmetry_cell_setting           triclinic
_symmetry_space_group_name_H-M   'P -1'
_symmetry_Int_Tables_number      2
_space_group_name_Hall           '-P 1'
loop_
_symmetry_equiv_pos_site_id
_symmetry_equiv_pos_as_xyz
1 x,y,z
2 -x,-y,-z
_cell_length_a                   10.7447(18)
_cell_length_b                   13.228(2)
_cell_length_c                   13.522(2)
_cell_angle_alpha                76.269(3)
_cell_angle_beta                 64.781(2)
_cell_angle_gamma                83.539(2)
_cell_volume                     1688.88
loop_
_atom_site_label
_atom_site_type_symbol
_atom_site_fract_x
_atom_site_fract_y
_atom_site_fract_z
C25 C 0.4748(17) 0.2264(13) 0.3490(16)
C26 C 0.3904(19) 0.2624(13) 0.4455(18)
C27 C 0.4908(17) 0.1066(12) 0.3841(15)
C28 C 0.468(2) 0.0587(19) 0.504(2)
C29 C 0.5140(17) 0.0563(15) 0.498(2)
C30 C 0.3744(16) 0.1025(19) 0.516(2)
C31 C 0.414(2) 0.2181(18) 0.470(2)
C32 C 0.5135(17) 0.2711(19) 0.3465(19)
C25A C 0.5252(17) -0.2264(13) 0.6510(16)
C26A C 0.6096(19) -0.2624(13) 0.5545(18)
C27A C 0.5092(17) -0.1066(12) 0.6159(15)
C28A C 0.532(2) -0.0587(19) 0.496(2)
C29A C 0.4860(17) -0.0563(15) 0.502(2)
C30A C 0.6256(16) -0.1025(19) 0.484(2)
C31A C 0.586(2) -0.2181(18) 0.530(2)
C32A C 0.4865(17) -0.2711(19) 0.6535(19)
Cu1 Cu 0.0000 0.0000 0.0000
O1 O 0.1033(2) -0.12555(17) 0.02854(19)
C1 C 0.2801(4) -0.2434(3) 0.0204(4)
F1 F 0.2405(12) -0.2802(9) 0.1190(10)
F2 F 0.2518(13) -0.2991(10) -0.0209(12)
F3 F 0.4141(2) -0.25342(18) -0.0181(3)
C2 C 0.2305(4) -0.1329(3) -0.0045(3)
C3 C 0.3253(4) -0.0563(3) -0.0584(3)
H1 H 0.4200 -0.0741 -0.0799
C4 C 0.2877(4) 0.0467(3) -0.0828(3)
C5 C 0.3995(5) 0.1263(3) -0.1469(4)
F6 F 0.3878(9) 0.1759(8) -0.2440(9)
F7 F 0.5228(10) 0.0904(8) -0.1743(12)
F8 F 0.3865(13) 0.1994(9) -0.1150(13)
O2 O 0.1703(2) 0.08444(18) -0.0598(2)
Cu2 Cu 0.0000 -0.5000 0.5000
O3 O 0.1546(2) -0.43918(18) 0.4987(2)
C6 C 0.3674(4) -0.3693(3) 0.4394(4)
F12 F 0.4944(10) -0.3696(9) 0.3756(9)
F13 F 0.3620(10) -0.4024(9) 0.5421(10)
F14 F 0.3262(2) -0.27440(19) 0.4459(3)
C7 C 0.2698(3) -0.4269(3) 0.4183(3)
C8 C 0.3135(4) -0.4575(3) 0.3192(3)
H2 H 0.4032 -0.4393 0.2634
C9 C 0.2314(4) -0.5142(3) 0.2974(3)
C10 C 0.2893(4) -0.5472(3) 0.1864(4)
F17 F 0.3513(10) -0.6442(8) 0.2057(8)
F18 F 0.3941(3) -0.4945(2) 0.1107(2)
F19 F 0.2001(10) -0.5618(8) 0.1555(8)
O4 O 0.1123(2) -0.54513(17) 0.3601(2)
O5 O -0.0881(2) 0.01869(18) 0.1780(2)
N1 N -0.0147(3) 0.0269(2) 0.2303(3)
C11 C 0.0078(4) 0.1299(3) 0.2468(3)
C12 C 0.0407(4) 0.2114(3) 0.1412(3)
H3 H -0.0396 0.2237 0.1232
H4 H 0.1185 0.1876 0.0798
H5 H 0.0648 0.2763 0.1515
C13 C -0.1259(4) 0.1571(3) 0.3390(4)
H6 H -0.1971 0.1746 0.3103
H7 H -0.1114 0.2169 0.3638
H8 H -0.1553 0.0974 0.4022
C14 C 0.1254(4) 0.1001(3) 0.2850(3)
C15 C 0.2681(4) 0.1079(3) 0.1892(3)
H9 H 0.3377 0.0891 0.2196
H10 H 0.2831 0.1794 0.1452
H11 H 0.2755 0.0604 0.1414
C16 C 0.1202(4) 0.1527(3) 0.3734(3)
H12 H 0.1986 0.1293 0.3924
H13 H 0.0343 0.1349 0.4402
H14 H 0.1241 0.2282 0.3454
N2 N 0.1011(3) -0.0132(2) 0.3315(2)
O6 O 0.1588(2) -0.06637(19) 0.3913(2)
C17 C 0.0263(3) -0.0516(3) 0.2910(3)
C18 C -0.0052(3) -0.1582(2) 0.3128(3)
C19 C 0.0312(3) -0.2435(3) 0.3783(3)
H15 H 0.0863 -0.2395 0.4165
N3 N -0.0200(3) -0.3304(2) 0.3809(2)
N4 N -0.0881(3) -0.3017(2) 0.3143(3)
C20 C -0.1548(4) -0.3786(3) 0.2934(4)
H16 H -0.1375 -0.4483 0.3327
H17 H -0.2554 -0.3654 0.3261
C21 C -0.1113(6) -0.3801(5) 0.1786(5)
H18 H -0.0104 -0.3713 0.1384
H19 H -0.1565 -0.3229 0.1434
C22 C -0.1586(9) -0.5031(10) 0.1730(7)
H20 H -0.0820 -0.5425 0.1249
H21 H -0.2119 -0.5474 0.2470
C23 C -0.2275(11) -0.4527(6) 0.1281(12)
H22 H -0.2758 -0.4995 0.1103
H23 H -0.1681 -0.4067 0.0591
H24 H -0.2948 -0.4109 0.1783
C24 C -0.0823(3) -0.2008(3) 0.2736(3)
H25 H -0.1238 -0.1638 0.2257
O1A O -0.1033(2) 0.12555(17) -0.02854(19)
C1A C -0.2801(4) 0.2434(3) -0.0204(4)
F1A F -0.2405(12) 0.2802(9) -0.1190(10)
F2A F -0.2518(13) 0.2991(10) 0.0209(12)
F3A F -0.4141(2) 0.25342(18) 0.0181(3)
C2A C -0.2305(4) 0.1329(3) 0.0045(3)
C3A C -0.3253(4) 0.0563(3) 0.0584(3)
H1A H -0.4200 0.0741 0.0799
C4A C -0.2877(4) -0.0467(3) 0.0828(3)
C5A C -0.3995(5) -0.1263(3) 0.1469(4)
F6A F -0.3878(9) -0.1759(8) 0.2440(9)
F7A F -0.5228(10) -0.0904(8) 0.1743(12)
F8A F -0.3865(13) -0.1994(9) 0.1150(13)
O2A O -0.1703(2) -0.08444(18) 0.0598(2)
Cu2_2 Cu 0.0000 0.5000 -0.5000
O3A O -0.1546(2) -0.56082(18) 0.5013(2)
C6A C -0.3674(4) -0.6307(3) 0.5606(4)
F12A F -0.4944(10) -0.6304(9) 0.6244(9)
F13A F -0.3620(10) -0.5976(9) 0.4579(10)
F14A F -0.3262(2) -0.72560(19) 0.5541(3)
C7A C -0.2698(3) -0.5731(3) 0.5817(3)
C8A C -0.3135(4) -0.5425(3) 0.6808(3)
H2A H -0.4032 -0.5607 0.7366
C9A C -0.2314(4) -0.4858(3) 0.7026(3)
C10A C -0.2893(4) -0.4528(3) 0.8136(4)
F17A F -0.3513(10) -0.3558(8) 0.7943(8)
F18A F -0.3941(3) -0.5055(2) 0.8893(2)
F19A F -0.2001(10) -0.4382(8) 0.8445(8)
O4A O -0.1123(2) -0.45487(17) 0.6399(2)
O5A O 0.0881(2) -0.01869(18) -0.1780(2)
N1A N 0.0147(3) -0.0269(2) -0.2303(3)
C11A C -0.0078(4) -0.1299(3) -0.2468(3)
C12A C -0.0407(4) -0.2114(3) -0.1412(3)
H3A H 0.0396 -0.2237 -0.1232
H4A H -0.1185 -0.1876 -0.0798
H5A H -0.0648 -0.2763 -0.1515
C13A C 0.1259(4) -0.1571(3) -0.3390(4)
H6A H 0.1971 -0.1746 -0.3103
H7A H 0.1114 -0.2169 -0.3638
H8A H 0.1553 -0.0974 -0.4022
C14A C -0.1254(4) -0.1001(3) -0.2850(3)
C15A C -0.2681(4) -0.1079(3) -0.1892(3)
H9A H -0.3377 -0.0891 -0.2196
H10A H -0.2831 -0.1794 -0.1452
H11A H -0.2755 -0.0604 -0.1414
C16A C -0.1202(4) -0.1527(3) -0.3734(3)
H12A H -0.1986 -0.1293 -0.3924
H13A H -0.0343 -0.1349 -0.4402
H14A H -0.1241 -0.2282 -0.3454
N2A N -0.1011(3) 0.0132(2) -0.3315(2)
O6A O -0.1588(2) 0.06637(19) -0.3913(2)
C17A C -0.0263(3) 0.0516(3) -0.2910(3)
C18A C 0.0052(3) 0.1582(2) -0.3128(3)
C19A C -0.0312(3) 0.2435(3) -0.3783(3)
H15A H -0.0863 0.2395 -0.4165
N3A N 0.0200(3) 0.3304(2) -0.3809(2)
N3A_2 N 0.0200(3) -0.6696(2) 0.6191(2)
N4A N 0.0881(3) 0.3017(2) -0.3143(3)
C20A C 0.1548(4) 0.3786(3) -0.2934(4)
H16A H 0.1375 0.4483 -0.3327
H17A H 0.2554 0.3654 -0.3261
C21A C 0.1113(6) 0.3801(5) -0.1786(5)
H18A H 0.0104 0.3713 -0.1384
H19A H 0.1565 0.3229 -0.1434
C22A C 0.1586(9) 0.5031(10) -0.1730(7)
H20A H 0.0820 0.5425 -0.1249
H21A H 0.2119 0.5474 -0.2470
C23A C 0.2275(11) 0.4527(6) -0.1281(12)
H22A H 0.2758 0.4995 -0.1103
H23A H 0.1681 0.4067 -0.0591
H24A H 0.2948 0.4109 -0.1783
C24A C 0.0823(3) 0.2008(3) -0.2736(3)
H25A H 0.1238 0.1638 -0.2257
F4? F 0.2188(10) -0.2868(8) 0.1332(9)
F5? F 0.2336(9) -0.3056(8) -0.0316(8)
F9? F 0.4403(13) 0.1371(9) -0.2478(8)
F10? F 0.5072(11) 0.0998(10) -0.1240(13)
F11? F 0.3628(10) 0.2159(7) -0.0973(9)
F15? F 0.3891(11) -0.4262(9) 0.5226(11)
F16? F 0.4913(11) -0.3619(11) 0.3468(10)
F20? F 0.2003(12) -0.5163(7) 0.1356(9)
F21? F 0.3012(9) -0.6437(6) 0.1907(8)
loop_
_geom_bond_atom_site_label_1
_geom_bond_atom_site_label_2
_geom_bond_site_symmetry_1
_geom_bond_site_symmetry_2
Cu1 O1 1_555 1_555
O1 C2 1_555 1_555
C1 F1 1_555 1_555
F2 C1 1_555 1_555
F3 C1 1_555 1_555
C2 C1 1_555 1_555
C3 C2 1_555 1_555
H1 C3 1_555 1_555
C4 C3 1_555 1_555
C5 C4 1_555 1_555
F6 C5 1_555 1_555
F7 C5 1_555 1_555
F8 C5 1_555 1_555
O2 Cu1 1_555 1_555
Cu2 O3 1_555 1_555
O3 C7 1_555 1_555
C6 F12 1_555 1_555
F13 C6 1_555 1_555
F14 C6 1_555 1_555
C7 C6 1_555 1_555
C8 C7 1_555 1_555
H2 C8 1_555 1_555
C9 C8 1_555 1_555
C10 C9 1_555 1_555
F17 C10 1_555 1_555
F18 C10 1_555 1_555
F19 C10 1_555 1_555
O4 Cu2 1_555 1_555
O5 Cu1 1_555 1_555
N1 O5 1_555 1_555
C11 N1 1_555 1_555
C12 C11 1_555 1_555
H3 C12 1_555 1_555
H4 C12 1_555 1_555
H5 C12 1_555 1_555
C13 C11 1_555 1_555
H6 C13 1_555 1_555
H7 C13 1_555 1_555
H8 C13 1_555 1_555
C14 C11 1_555 1_555
C15 C14 1_555 1_555
H9 C15 1_555 1_555
H10 C15 1_555 1_555
H11 C15 1_555 1_555
C16 C14 1_555 1_555
H12 C16 1_555 1_555
H13 C16 1_555 1_555
H14 C16 1_555 1_555
N2 C14 1_555 1_555
O6 N2 1_555 1_555
C17 N1 1_555 1_555
C18 C17 1_555 1_555
C19 C18 1_555 1_555
H15 C19 1_555 1_555
N3 Cu2 1_555 1_555
N4 N3 1_555 1_555
C20 N4 1_555 1_555
H16 C20 1_555 1_555
H17 C20 1_555 1_555
C21 C20 1_555 1_555
H18 C21 1_555 1_555
H19 C21 1_555 1_555
C22 C21 1_555 1_555
H20 C22 1_555 1_555
H21 C22 1_555 1_555
C23 C22 1_555 1_555
H22 C23 1_555 1_555
H23 C23 1_555 1_555
H24 C23 1_555 1_555
C24 C18 1_555 1_555
H25 C24 1_555 1_555
C25 C26 1_555 1_555
C26 C31 1_555 1_555
C27 C25 1_555 1_555
C28 C27 1_555 1_555
C29 C27 1_555 1_555
C30 C27 1_555 1_555
C31 C25 1_555 1_555
C32 C25 1_555 1_555
O1A Cu1 1_555 1_555
C1A F1A 1_555 1_555
F2A C1A 1_555 1_555
F3A C1A 1_555 1_555
C2A O1A 1_555 1_555
C3A C2A 1_555 1_555
H1A C3A 1_555 1_555
C4A C3A 1_555 1_555
C5A C4A 1_555 1_555
F6A C5A 1_555 1_555
F7A C5A 1_555 1_555
F8A C5A 1_555 1_555
O2A Cu1 1_555 1_555
Cu2_2 N3A 1_555 1_555
O3A Cu2 1_555 1_555
C6A F12A 1_555 1_555
F13A C6A 1_555 1_555
F14A C6A 1_555 1_555
C7A O3A 1_555 1_555
C8A C7A 1_555 1_555
H2A C8A 1_555 1_555
C9A C8A 1_555 1_555
C10A C9A 1_555 1_555
F17A C10A 1_555 1_555
F18A C10A 1_555 1_555
F19A C10A 1_555 1_555
O4A Cu2 1_555 1_555
O5A Cu1 1_555 1_555
N1A O5A 1_555 1_555
C11A N1A 1_555 1_555
C12A C11A 1_555 1_555
H3A C12A 1_555 1_555
H4A C12A 1_555 1_555
H5A C12A 1_555 1_555
C13A C11A 1_555 1_555
H6A C13A 1_555 1_555
H7A C13A 1_555 1_555
H8A C13A 1_555 1_555
C14A C11A 1_555 1_555
C15A C14A 1_555 1_555
H9A C15A 1_555 1_555
H10A C15A 1_555 1_555
H11A C15A 1_555 1_555
C16A C14A 1_555 1_555
H12A C16A 1_555 1_555
H13A C16A 1_555 1_555
H14A C16A 1_555 1_555
N2A C14A 1_555 1_555
O6A N2A 1_555 1_555
C17A N1A 1_555 1_555
C18A C17A 1_555 1_555
C19A C18A 1_555 1_555
H15A C19A 1_555 1_555
N3A C19A 1_555 1_555
N3A_2 Cu2 1_555 1_555
N4A N3A 1_555 1_555
C20A N4A 1_555 1_555
H16A C20A 1_555 1_555
H17A C20A 1_555 1_555
C21A C20A 1_555 1_555
H18A C21A 1_555 1_555
H19A C21A 1_555 1_555
C22A C21A 1_555 1_555
H20A C22A 1_555 1_555
H21A C22A 1_555 1_555
C23A C22A 1_555 1_555
H22A C23A 1_555 1_555
H23A C23A 1_555 1_555
H24A C23A 1_555 1_555
C24A C18A 1_555 1_555
H25A C24A 1_555 1_555
C25A C26A 1_555 1_555
C26A C31A 1_555 1_555
C27A C25A 1_555 1_555
C28A C28 1_555 1_555
C29A C28 1_555 1_555
C30A C27A 1_555 1_555
C31A C25A 1_555 1_555
C32A C25A 1_555 1_555
C4 O2 1_555 1_555
C9 O4 1_555 1_555
N2 C17 1_555 1_555
C19 N3 1_555 1_555
N4 C24 1_555 1_555
C26 C32 1_555 1_555
C28 C29 1_555 1_555
C28 C30 1_555 1_555
C29 C30 1_555 1_555
C29 C28A 1_555 1_555
C29 C29A 1_555 1_555
C30 C31 1_555 1_555
C31 C32 1_555 1_555
C1A C2A 1_555 1_555
C4A O2A 1_555 1_555
C6A C7A 1_555 1_555
C9A O4A 1_555 1_555
N2A C17A 1_555 1_555
N4A C24A 1_555 1_555
C26A C32A 1_555 1_555
C27A C28A 1_555 1_555
C27A C29A 1_555 1_555
C28A C29A 1_555 1_555
C28A C30A 1_555 1_555
C29A C30A 1_555 1_555
C30A C31A 1_555 1_555
C31A C32A 1_555 1_555

#END
