
#######################################################################
#
#                 Cambridge Crystallographic Data Centre
#                                CCDC 
#
#######################################################################
#
# If this CIF has been generated from an entry in the Cambridge 
# Structural Database, then it will include bibliographic, chemical, 
# crystal, experimental, refinement or atomic coordinate data resulting 
# from the CCDC's data processing and validation procedures.
#
#######################################################################

data_SOHTEP03
_symmetry_cell_setting           triclinic
_symmetry_space_group_name_H-M   'P -1'
_symmetry_Int_Tables_number      2
_space_group_name_Hall           '-P 1'
loop_
_symmetry_equiv_pos_site_id
_symmetry_equiv_pos_as_xyz
1 x,y,z
2 -x,-y,-z
_cell_length_a                   11.954(12)
_cell_length_b                   11.999(12)
_cell_length_c                   13.431(13)
_cell_angle_alpha                106.047(15)
_cell_angle_beta                 104.044(14)
_cell_angle_gamma                107.304(15)
_cell_volume                     1653.11
loop_
_atom_site_label
_atom_site_type_symbol
_atom_site_fract_x
_atom_site_fract_y
_atom_site_fract_z
C25 C 0.0614(9) 0.5324(11) 0.0169(11)
H26 H 0.0773 0.6228 0.0349
H27 H 0.0906 0.5050 -0.0450
C26 C 0.1385(13) 0.5182(13) 0.1175(13)
H28 H 0.1182 0.5577 0.1821
H29 H 0.1122 0.4273 0.1038
C27 C 0.240(2) 0.5588(17) 0.1391(17)
H30 H 0.2807 0.5479 0.2063
H31 H 0.2674 0.6488 0.1522
H32 H 0.2621 0.5162 0.0781
C25A C -0.0614(9) 0.4676(11) -0.0169(11)
H26A H -0.0773 0.3772 -0.0349
H27A H -0.0906 0.4950 0.0450
C26A C -0.1385(13) 0.4818(13) -0.1175(13)
H28A H -0.1182 0.4423 -0.1821
H29A H -0.1122 0.5727 -0.1038
C27A C -0.240(2) 0.4412(17) -0.1391(17)
H30A H -0.2807 0.4521 -0.2063
H31A H -0.2674 0.3512 -0.1522
H32A H -0.2621 0.4838 -0.0781
Cu1 Cu 0.5000 0.0000 0.5000
O1 O 0.1237(3) 0.0984(4) 0.1485(3)
C1 C 0.3008(6) 0.2506(6) 0.2960(5)
F1 F 0.2367(4) 0.2431(5) 0.3591(3)
F2 F 0.3773(4) 0.3692(4) 0.3307(3)
F3 F 0.3742(4) 0.1895(4) 0.3147(3)
C2 C 0.2209(5) 0.1949(5) 0.1725(4)
C3 C 0.2612(5) 0.2474(5) 0.1027(5)
H1 H 0.3372 0.3198 0.1325
C4 C 0.1947(5) 0.1980(6) -0.0101(5)
C5 C 0.2452(6) 0.2613(7) -0.0816(6)
F4 F 0.3572(4) 0.3513(4) -0.0305(3)
F5 F 0.2479(5) 0.1782(5) -0.1693(4)
F6 F 0.1691(4) 0.3106(4) -0.1221(3)
O2 O 0.0929(3) 0.1018(4) -0.0640(3)
Cu2 Cu 0.0000 0.0000 0.0000
O3 O 0.4317(3) 0.1156(3) 0.5680(3)
C6 C 0.4047(6) 0.2921(6) 0.6650(5)
F7 F 0.2822(4) 0.2234(4) 0.6273(3)
F8 F 0.4487(4) 0.2990(4) 0.7679(3)
F9 F 0.4176(4) 0.4075(4) 0.6735(3)
C7 C 0.4689(5) 0.2336(5) 0.5950(4)
C8 C 0.5576(5) 0.3121(5) 0.5708(4)
H2 H 0.5737 0.3994 0.5978
C9 C 0.6270(5) 0.2710(6) 0.5079(4)
C10 C 0.7217(6) 0.3770(6) 0.4903(5)
F10 F 0.7849(3) 0.3349(3) 0.4327(3)
F11 F 0.8047(3) 0.4664(3) 0.5882(3)
F12 F 0.6640(3) 0.4343(4) 0.4374(3)
O4 O 0.6221(3) 0.1632(3) 0.4646(3)
O5 O 0.0803(3) -0.1645(4) -0.0329(3)
N1 N 0.1826(4) -0.1758(4) -0.0399(3)
C11 C 0.2033(5) -0.2080(6) -0.1497(4)
C12 C 0.0880(5) -0.3249(6) -0.2326(4)
H3 H 0.0154 -0.3020 -0.2495
H4 H 0.0712 -0.3894 -0.2005
H5 H 0.1038 -0.3579 -0.3009
C13 C 0.2166(5) -0.0961(6) -0.1819(5)
H6 H 0.1356 -0.0883 -0.2018
H7 H 0.2445 -0.1071 -0.2455
H8 H 0.2785 -0.0198 -0.1194
C14 C 0.3257(5) -0.2321(5) -0.1158(4)
C15 C 0.3067(6) -0.3712(6) -0.1428(5)
H9 H 0.3883 -0.3769 -0.1186
H10 H 0.2649 -0.4182 -0.2228
H11 H 0.2549 -0.4069 -0.1040
C16 C 0.4279(5) -0.1666(6) -0.1556(4)
H12 H 0.5014 -0.1862 -0.1310
H13 H 0.4517 -0.0752 -0.1243
H14 H 0.3956 -0.1967 -0.2366
N2 N 0.3721(4) -0.1698(4) 0.0076(4)
O6 O 0.4815(3) -0.1546(4) 0.0687(3)
C17 C 0.2836(5) -0.1499(5) 0.0460(4)
C18 C 0.2923(5) -0.1128(5) 0.1597(4)
C19 C 0.3974(5) -0.0822(5) 0.2533(4)
H15 H 0.4778 -0.0768 0.2518
N3 N 0.3669(4) -0.0617(4) 0.3448(3)
N4 N 0.2428(4) -0.0789(4) 0.3098(3)
C20 C 0.1733(5) -0.0735(5) 0.3851(4)
H16 H 0.1225 -0.0236 0.3719
H17 H 0.2333 -0.0297 0.4624
C21 C 0.0878(5) -0.2028(5) 0.3712(4)
H18 H 0.1376 -0.2546 0.3795
H19 H 0.0241 -0.2444 0.2955
C22 C 0.0221(6) -0.1967(6) 0.4552(5)
H20 H 0.0861 -0.1569 0.5307
H21 H -0.0253 -0.1425 0.4482
C23 C -0.0664(6) -0.3241(7) 0.4410(6)
H22 H -0.1057 -0.3142 0.4972
H23 H -0.0198 -0.3778 0.4495
H24 H -0.1313 -0.3633 0.3670
C24 C 0.1975(5) -0.1096(5) 0.2015(4)
H25 H 0.1139 -0.1265 0.1593
Cu1_2 Cu -0.5000 0.0000 -0.5000
O1A O -0.1237(3) -0.0984(4) -0.1485(3)
C1A C -0.3008(6) -0.2506(6) -0.2960(5)
F1A F -0.2367(4) -0.2431(5) -0.3591(3)
F2A F -0.3773(4) -0.3692(4) -0.3307(3)
F3A F -0.3742(4) -0.1895(4) -0.3147(3)
C2A C -0.2209(5) -0.1949(5) -0.1725(4)
C3A C -0.2612(5) -0.2474(5) -0.1027(5)
H1A H -0.3372 -0.3198 -0.1325
C4A C -0.1947(5) -0.1980(6) 0.0101(5)
C5A C -0.2452(6) -0.2613(7) 0.0816(6)
F4A F -0.3572(4) -0.3513(4) 0.0305(3)
F5A F -0.2479(5) -0.1782(5) 0.1693(4)
F6A F -0.1691(4) -0.3106(4) 0.1221(3)
O2A O -0.0929(3) -0.1018(4) 0.0640(3)
O3A O 0.5683(3) -0.1156(3) 0.4320(3)
C6A C 0.5953(6) -0.2921(6) 0.3350(5)
F7A F 0.7178(4) -0.2234(4) 0.3727(3)
F8A F 0.5513(4) -0.2990(4) 0.2321(3)
F9A F 0.5824(4) -0.4075(4) 0.3265(3)
C7A C 0.5311(5) -0.2336(5) 0.4050(4)
C8A C 0.4424(5) -0.3121(5) 0.4292(4)
H2A H 0.4263 -0.3994 0.4022
C9A C 0.3730(5) -0.2710(6) 0.4921(4)
C10A C 0.2783(6) -0.3770(6) 0.5097(5)
F10A F 0.2151(3) -0.3349(3) 0.5673(3)
F11A F 0.1953(3) -0.4664(3) 0.4118(3)
F12A F 0.3360(3) -0.4343(4) 0.5626(3)
O4A O 0.3779(3) -0.1632(3) 0.5354(3)
O5A O -0.0803(3) 0.1645(4) 0.0329(3)
N1A N -0.1826(4) 0.1758(4) 0.0399(3)
C11A C -0.2033(5) 0.2080(6) 0.1497(4)
C12A C -0.0880(5) 0.3249(6) 0.2326(4)
H3A H -0.0154 0.3020 0.2495
H4A H -0.0712 0.3894 0.2005
H5A H -0.1038 0.3579 0.3009
C13A C -0.2166(5) 0.0961(6) 0.1819(5)
H6A H -0.1356 0.0883 0.2018
H7A H -0.2445 0.1071 0.2455
H8A H -0.2785 0.0198 0.1194
C14A C -0.3257(5) 0.2321(5) 0.1158(4)
C15A C -0.3067(6) 0.3712(6) 0.1428(5)
H9A H -0.3883 0.3769 0.1186
H10A H -0.2649 0.4182 0.2228
H11A H -0.2549 0.4069 0.1040
C16A C -0.4279(5) 0.1666(6) 0.1556(4)
H12A H -0.5014 0.1862 0.1310
H13A H -0.4517 0.0752 0.1243
H14A H -0.3956 0.1967 0.2366
N2A N -0.3721(4) 0.1698(4) -0.0076(4)
O6A O -0.4815(3) 0.1546(4) -0.0687(3)
C17A C -0.2836(5) 0.1499(5) -0.0460(4)
C18A C -0.2923(5) 0.1128(5) -0.1597(4)
C19A C -0.3974(5) 0.0822(5) -0.2533(4)
H15A H -0.4778 0.0768 -0.2518
N3A N 0.6331(4) 0.0617(4) 0.6552(3)
N3A_2 N -0.3669(4) 0.0617(4) -0.3448(3)
N4A N -0.2428(4) 0.0789(4) -0.3098(3)
C20A C -0.1733(5) 0.0735(5) -0.3851(4)
H16A H -0.1225 0.0236 -0.3719
H17A H -0.2333 0.0297 -0.4624
C21A C -0.0878(5) 0.2028(5) -0.3712(4)
H18A H -0.1376 0.2546 -0.3795
H19A H -0.0241 0.2444 -0.2955
C22A C -0.0221(6) 0.1967(6) -0.4552(5)
H20A H -0.0861 0.1569 -0.5307
H21A H 0.0253 0.1425 -0.4482
C23A C 0.0664(6) 0.3241(7) -0.4410(6)
H22A H 0.1057 0.3142 -0.4972
H23A H 0.0198 0.3778 -0.4495
H24A H 0.1313 0.3633 -0.3670
C24A C -0.1975(5) 0.1096(5) -0.2015(4)
H25A H -0.1139 0.1265 -0.1593
loop_
_geom_bond_atom_site_label_1
_geom_bond_atom_site_label_2
_geom_bond_site_symmetry_1
_geom_bond_site_symmetry_2
Cu1 O3 1_555 1_555
O1 C2 1_555 1_555
C1 F1 1_555 1_555
F2 C1 1_555 1_555
F3 C1 1_555 1_555
C2 C1 1_555 1_555
C3 C2 1_555 1_555
H1 C3 1_555 1_555
C4 C3 1_555 1_555
C5 C4 1_555 1_555
F4 C5 1_555 1_555
F5 C5 1_555 1_555
F6 C5 1_555 1_555
O2 C4 1_555 1_555
Cu2 O1 1_555 1_555
O3 C7 1_555 1_555
C6 F7 1_555 1_555
F8 C6 1_555 1_555
F9 C6 1_555 1_555
C7 C6 1_555 1_555
C8 C7 1_555 1_555
H2 C8 1_555 1_555
C9 C8 1_555 1_555
C10 C9 1_555 1_555
F10 C10 1_555 1_555
F11 C10 1_555 1_555
F12 C10 1_555 1_555
O4 Cu1 1_555 1_555
O5 Cu2 1_555 1_555
N1 O5 1_555 1_555
C11 N1 1_555 1_555
C12 C11 1_555 1_555
H3 C12 1_555 1_555
H4 C12 1_555 1_555
H5 C12 1_555 1_555
C13 C11 1_555 1_555
H6 C13 1_555 1_555
H7 C13 1_555 1_555
H8 C13 1_555 1_555
C14 C11 1_555 1_555
C15 C14 1_555 1_555
H9 C15 1_555 1_555
H10 C15 1_555 1_555
H11 C15 1_555 1_555
C16 C14 1_555 1_555
H12 C16 1_555 1_555
H13 C16 1_555 1_555
H14 C16 1_555 1_555
N2 C14 1_555 1_555
O6 N2 1_555 1_555
C17 N1 1_555 1_555
C18 C17 1_555 1_555
C19 C18 1_555 1_555
H15 C19 1_555 1_555
N3 Cu1 1_555 1_555
N4 N3 1_555 1_555
C20 N4 1_555 1_555
H16 C20 1_555 1_555
H17 C20 1_555 1_555
C21 C20 1_555 1_555
H18 C21 1_555 1_555
H19 C21 1_555 1_555
C22 C21 1_555 1_555
H20 C22 1_555 1_555
H21 C22 1_555 1_555
C23 C22 1_555 1_555
H22 C23 1_555 1_555
H23 C23 1_555 1_555
H24 C23 1_555 1_555
C24 C18 1_555 1_555
H25 C24 1_555 1_555
C25 H26 1_555 1_555
H27 C25 1_555 1_555
C26 C25 1_555 1_555
H28 C26 1_555 1_555
H29 C26 1_555 1_555
C27 C26 1_555 1_555
H30 C27 1_555 1_555
H31 C27 1_555 1_555
H32 C27 1_555 1_555
Cu1_2 N3A_2 1_555 1_555
O1A Cu2 1_555 1_555
C1A F1A 1_555 1_555
F2A C1A 1_555 1_555
F3A C1A 1_555 1_555
C2A O1A 1_555 1_555
C3A C2A 1_555 1_555
H1A C3A 1_555 1_555
C4A C3A 1_555 1_555
C5A C4A 1_555 1_555
F4A C5A 1_555 1_555
F5A C5A 1_555 1_555
F6A C5A 1_555 1_555
O2A Cu2 1_555 1_555
O3A Cu1 1_555 1_555
C6A F7A 1_555 1_555
F8A C6A 1_555 1_555
F9A C6A 1_555 1_555
C7A O3A 1_555 1_555
C8A C7A 1_555 1_555
H2A C8A 1_555 1_555
C9A C8A 1_555 1_555
C10A C9A 1_555 1_555
F10A C10A 1_555 1_555
F11A C10A 1_555 1_555
F12A C10A 1_555 1_555
O4A Cu1 1_555 1_555
O5A Cu2 1_555 1_555
N1A O5A 1_555 1_555
C11A N1A 1_555 1_555
C12A C11A 1_555 1_555
H3A C12A 1_555 1_555
H4A C12A 1_555 1_555
H5A C12A 1_555 1_555
C13A C11A 1_555 1_555
H6A C13A 1_555 1_555
H7A C13A 1_555 1_555
H8A C13A 1_555 1_555
C14A C11A 1_555 1_555
C15A C14A 1_555 1_555
H9A C15A 1_555 1_555
H10A C15A 1_555 1_555
H11A C15A 1_555 1_555
C16A C14A 1_555 1_555
H12A C16A 1_555 1_555
H13A C16A 1_555 1_555
H14A C16A 1_555 1_555
N2A C14A 1_555 1_555
O6A N2A 1_555 1_555
C17A N1A 1_555 1_555
C18A C17A 1_555 1_555
C19A C18A 1_555 1_555
H15A C19A 1_555 1_555
N3A Cu1 1_555 1_555
N3A_2 C19A 1_555 1_555
N4A N3A_2 1_555 1_555
C20A N4A 1_555 1_555
H16A C20A 1_555 1_555
H17A C20A 1_555 1_555
C21A C20A 1_555 1_555
H18A C21A 1_555 1_555
H19A C21A 1_555 1_555
C22A C21A 1_555 1_555
H20A C22A 1_555 1_555
H21A C22A 1_555 1_555
C23A C22A 1_555 1_555
H22A C23A 1_555 1_555
H23A C23A 1_555 1_555
H24A C23A 1_555 1_555
C24A C18A 1_555 1_555
H25A C24A 1_555 1_555
C25A C25 1_555 1_555
H26A C25A 1_555 1_555
H27A C25A 1_555 1_555
C26A C25A 1_555 1_555
H28A C26A 1_555 1_555
H29A C26A 1_555 1_555
C27A C26A 1_555 1_555
H30A C27A 1_555 1_555
H31A C27A 1_555 1_555
H32A C27A 1_555 1_555
O2 Cu2 1_555 1_555
C9 O4 1_555 1_555
N2 C17 1_555 1_555
C19 N3 1_555 1_555
N4 C24 1_555 1_555
C1A C2A 1_555 1_555
C4A O2A 1_555 1_555
C6A C7A 1_555 1_555
C9A O4A 1_555 1_555
N2A C17A 1_555 1_555
N4A C24A 1_555 1_555

#END
