
#######################################################################
#
#                 Cambridge Crystallographic Data Centre
#                                CCDC 
#
#######################################################################
#
# If this CIF has been generated from an entry in the Cambridge 
# Structural Database, then it will include bibliographic, chemical, 
# crystal, experimental, refinement or atomic coordinate data resulting 
# from the CCDC's data processing and validation procedures.
#
#######################################################################

data_SOHYUL
_symmetry_cell_setting           triclinic
_symmetry_space_group_name_H-M   'P -1'
_symmetry_Int_Tables_number      2
_space_group_name_Hall           '-P 1'
loop_
_symmetry_equiv_pos_site_id
_symmetry_equiv_pos_as_xyz
1 x,y,z
2 -x,-y,-z
_cell_length_a                   9.382(5)
_cell_length_b                   9.764(4)
_cell_length_c                   12.821(5)
_cell_angle_alpha                92.459(5)
_cell_angle_beta                 93.353(6)
_cell_angle_gamma                109.055(5)
_cell_volume                     1105.83
loop_
_atom_site_label
_atom_site_type_symbol
_atom_site_fract_x
_atom_site_fract_y
_atom_site_fract_z
O1 O 0.4742(3) 0.5351(3) 0.3270(2)
O2 O 0.7174(3) 0.4877(3) 0.27342(19)
O3 O 0.8361(3) 0.5641(3) 0.0822(2)
O4 O 0.6467(3) 0.6469(3) -0.0698(2)
O5 O 0.4770(3) 0.8106(3) 0.03094(19)
O6 O 0.3411(3) 0.7079(3) 0.21573(19)
Cu1 Cu 0.95477(7) 1.00093(7) 0.39421(5)
I1 I 0.87298(5) 1.01053(4) 0.20556(3)
I2 I 0.99075(4) 1.21700(4) 0.52804(2)
K1 K 0.59439(10) 0.64512(11) 0.14853(7)
C1 C 0.4897(4) 0.4059(4) 0.3549(3)
C2 C 0.3844(6) 0.3014(5) 0.4045(4)
H1 H 0.308(5) 0.314(5) 0.419(3)
C3 C 0.4089(6) 0.1732(5) 0.4268(4)
H2 H 0.338(5) 0.110(5) 0.453(3)
C4 C 0.5377(6) 0.1504(5) 0.4018(3)
H3 H 0.556(5) 0.063(5) 0.418(4)
C5 C 0.6464(5) 0.2539(4) 0.3523(3)
H4 H 0.738(5) 0.240(4) 0.337(3)
C6 C 0.6217(4) 0.3811(4) 0.3274(3)
C7 C 0.8570(4) 0.4706(5) 0.2473(3)
H5 H 0.838(4) 0.375(5) 0.212(3)
H6 H 0.924(4) 0.481(4) 0.308(3)
C8 C 0.9290(5) 0.5880(5) 0.1773(3)
H7 H 0.945(4) 0.682(4) 0.207(3)
H8 H 1.026(5) 0.584(4) 0.165(3)
C9 C 0.8974(5) 0.6654(5) 0.0063(3)
H9 H 0.993(5) 0.651(4) -0.011(3)
H10 H 0.915(5) 0.758(5) 0.031(3)
C10 C 0.7889(5) 0.6294(5) -0.0887(3)
H11 H 0.830(5) 0.682(5) -0.145(3)
H12 H 0.767(5) 0.527(5) -0.113(3)
C11 C 0.6357(5) 0.7830(5) -0.0999(4)
H13 H 0.651(4) 0.790(4) -0.171(3)
H14 H 0.708(4) 0.859(4) -0.067(3)
C12 C 0.4838(5) 0.7887(5) -0.0784(3)
H15 H 0.459(4) 0.865(4) -0.116(3)
H16 H 0.406(4) 0.702(4) -0.104(3)
C13 C 0.3351(5) 0.8199(5) 0.0578(3)
H17 H 0.253(5) 0.726(5) 0.035(3)
H18 H 0.319(4) 0.903(4) 0.025(3)
C14 C 0.3392(6) 0.8396(5) 0.1737(4)
H19 H 0.430(5) 0.916(4) 0.201(3)
H20 H 0.255(5) 0.857(5) 0.196(3)
C15 C 0.3623(6) 0.7179(5) 0.3273(3)
H21 H 0.288(5) 0.750(4) 0.355(3)
H22 H 0.461(5) 0.791(4) 0.349(3)
C16 C 0.3489(5) 0.5723(5) 0.3628(3)
H23 H 0.349(4) 0.570(4) 0.436(3)
H24 H 0.256(5) 0.500(4) 0.337(3)
O4A O 0.3533(3) 0.3531(3) 0.0698(2)
Cu1A Cu 1.04523(7) 0.99907(7) 0.60579(5)
I2A I 1.00925(4) 0.78300(4) 0.47196(2)
K1A K 0.40561(10) 0.35488(11) -0.14853(7)
loop_
_geom_bond_atom_site_label_1
_geom_bond_atom_site_label_2
_geom_bond_site_symmetry_1
_geom_bond_site_symmetry_2
O1 K1 1_555 1_555
O2 K1 1_555 1_555
O3 K1 1_555 1_555
O4 K1 1_555 1_555
O5 K1 1_555 1_555
O6 K1 1_555 1_555
Cu1 I1 1_555 1_555
I1 K1 1_555 1_555
I2 Cu1 1_555 1_555
K1 O4A 1_555 1_555
C1 O1 1_555 1_555
C2 C1 1_555 1_555
H1 C2 1_555 1_555
C3 C2 1_555 1_555
H2 C3 1_555 1_555
C4 C3 1_555 1_555
H3 C4 1_555 1_555
C5 C4 1_555 1_555
H4 C5 1_555 1_555
C6 O2 1_555 1_555
C7 O2 1_555 1_555
H5 C7 1_555 1_555
H6 C7 1_555 1_555
C8 O3 1_555 1_555
H7 C8 1_555 1_555
H8 C8 1_555 1_555
C9 O3 1_555 1_555
H9 C9 1_555 1_555
H10 C9 1_555 1_555
C10 O4 1_555 1_555
H11 C10 1_555 1_555
H12 C10 1_555 1_555
C11 O4 1_555 1_555
H13 C11 1_555 1_555
H14 C11 1_555 1_555
C12 O5 1_555 1_555
H15 C12 1_555 1_555
H16 C12 1_555 1_555
C13 O5 1_555 1_555
H17 C13 1_555 1_555
H18 C13 1_555 1_555
C14 O6 1_555 1_555
H19 C14 1_555 1_555
H20 C14 1_555 1_555
C15 O6 1_555 1_555
H21 C15 1_555 1_555
H22 C15 1_555 1_555
C16 O1 1_555 1_555
H23 C16 1_555 1_555
H24 C16 1_555 1_555
O4A K1A 1_555 1_555
Cu1A Cu1 1_555 1_555
I2A Cu1 1_555 1_555
K1A O4 1_555 1_555
I2 Cu1A 1_555 1_555
C1 C6 1_555 1_555
C5 C6 1_555 1_555
C7 C8 1_555 1_555
C9 C10 1_555 1_555
C11 C12 1_555 1_555
C13 C14 1_555 1_555
C15 C16 1_555 1_555
Cu1A I2A 1_555 1_555

#END
