
#######################################################################
#
#                 Cambridge Crystallographic Data Centre
#                                CCDC 
#
#######################################################################
#
# If this CIF has been generated from an entry in the Cambridge 
# Structural Database, then it will include bibliographic, chemical, 
# crystal, experimental, refinement or atomic coordinate data resulting 
# from the CCDC's data processing and validation procedures.
#
#######################################################################

data_SOHYIZ
_symmetry_cell_setting           monoclinic
_symmetry_space_group_name_H-M   'P 21/c'
_symmetry_Int_Tables_number      14
_space_group_name_Hall           '-P 2ybc'
loop_
_symmetry_equiv_pos_site_id
_symmetry_equiv_pos_as_xyz
1 x,y,z
2 -x,1/2+y,1/2-z
3 -x,-y,-z
4 x,1/2-y,1/2+z
_cell_length_a                   5.0731(3)
_cell_length_b                   16.9391(12)
_cell_length_c                   10.5094(9)
_cell_angle_alpha                90
_cell_angle_beta                 98.777(2)
_cell_angle_gamma                90
_cell_volume                     892.536
loop_
_atom_site_label
_atom_site_type_symbol
_atom_site_fract_x
_atom_site_fract_y
_atom_site_fract_z
Cs1 Cs 0.35344(7) 0.723321(18) 0.36343(3)
Li1 Li 1.107(2) 0.3345(5) 0.9497(9)
C1 C 0.3718(10) 0.5809(3) 0.6363(5)
C2 C 0.4765(11) 0.4996(3) 0.6824(5)
H1 H 0.6634 0.4945 0.6639
C3 C 0.4830(10) 0.4909(3) 0.8278(5)
H2 H 0.6109 0.5311 0.8708
C4 C 0.5926(10) 0.4096(3) 0.8708(5)
O1 O 0.1637(7) 0.5847(2) 0.5562(4)
O2 O 0.5023(7) 0.64063(19) 0.6856(4)
O3 O 0.3243(8) 0.43719(19) 0.6186(4)
H3 H 0.2026 0.4560 0.5637
O4 O 0.2279(7) 0.50754(19) 0.8634(4)
H4 H 0.1263 0.4687 0.8452
O5 O 0.4499(8) 0.36055(19) 0.9152(4)
O6 O 0.8299(7) 0.3968(2) 0.8516(4)
O7 O 1.0574(8) 0.3561(2) 1.1282(4)
H5 H 1.205(5) 0.360(3) 1.172(5)
H6 H 0.968(8) 0.3959(19) 1.136(5)
O8 O 1.1066(8) 0.22185(19) 0.9220(4)
H7 H 1.007(8) 0.1834(18) 0.921(6)
H8 H 1.244(7) 0.210(3) 0.894(6)
Cs1A Cs 0.64656(7) 0.223321(18) 1.13657(3)
Cs1A_2 Cs 1.64656(7) 0.223321(18) 1.13657(3)
Cs1B Cs 0.64656(7) 0.276679(18) 0.63657(3)
Cs1C Cs 0.35344(7) 0.776679(18) 0.86343(3)
Li1_2 Li 0.107(2) 0.3345(5) 0.9497(9)
C4B C 0.4074(10) 0.5904(3) 0.1292(5)
O2C O 0.5023(7) 0.85937(19) 0.1856(4)
O3B O 0.6757(8) 0.56281(19) 0.3814(4)
O5_2 O 1.4499(8) 0.36055(19) 0.9152(4)
O5A O 0.5501(8) 0.86055(19) 0.5848(4)
O5B O 0.5501(8) 0.63945(19) 0.0848(4)
O6B O 0.1701(7) 0.6032(2) 0.1484(4)
O7A O -0.0574(8) 0.8561(2) 0.3718(4)
O8A O -0.1066(8) 0.72185(19) 0.5780(4)
O8A_2 O 0.8934(8) 0.72185(19) 0.5780(4)
O8B O -0.1066(8) 0.77815(19) 0.0780(4)
loop_
_geom_bond_atom_site_label_1
_geom_bond_atom_site_label_2
_geom_bond_site_symmetry_1
_geom_bond_site_symmetry_2
Cs1 O1 1_555 1_555
Li1 O6 1_555 1_555
C1 C2 1_555 1_555
C2 H1 1_555 1_555
C3 C2 1_555 1_555
H2 C3 1_555 1_555
C4 C3 1_555 1_555
O1 C1 1_555 1_555
O2 Cs1 1_555 1_555
O3 C2 1_555 1_555
H3 O3 1_555 1_555
O4 C3 1_555 1_555
H4 O4 1_555 1_555
O5 C4 1_555 1_555
O6 C4 1_555 1_555
O7 Li1 1_555 1_555
H5 O7 1_555 1_555
H6 O7 1_555 1_555
O8 Li1 1_555 1_555
H7 O8 1_555 1_555
H8 O8 1_555 1_555
Cs1A O5 1_555 1_555
Cs1A_2 O8 1_555 1_555
Cs1B O3 1_555 1_555
Cs1C O2 1_555 1_555
Li1_2 O5 1_555 1_555
C4B O5B 1_555 1_555
O2C Cs1 1_555 1_555
O3B Cs1 1_555 1_555
O5_2 Li1 1_555 1_555
O5A Cs1 1_555 1_555
O5B Cs1 1_555 1_555
O6B Cs1 1_555 1_555
O7A Cs1 1_555 1_555
O8A Cs1 1_555 1_555
O8A_2 Cs1 1_555 1_555
O8B Cs1 1_555 1_555
C1 O2 1_555 1_555
O5 Cs1B 1_555 1_555
O6 Cs1B 1_555 1_555
O7 Cs1A 1_555 1_555
O8 Cs1A 1_555 1_555
O8 Cs1B 1_555 1_555
Cs1A_2 O5_2 1_555 1_555
Cs1C O5A 1_555 1_555
Cs1C O8A 1_555 1_555
C4B O6B 1_555 1_555

#END
