
#######################################################################
#
#                 Cambridge Crystallographic Data Centre
#                                CCDC 
#
#######################################################################
#
# If this CIF has been generated from an entry in the Cambridge 
# Structural Database, then it will include bibliographic, chemical, 
# crystal, experimental, refinement or atomic coordinate data resulting 
# from the CCDC's data processing and validation procedures.
#
#######################################################################

data_SOJFEC
_symmetry_cell_setting           orthorhombic
_symmetry_space_group_name_H-M   'I b a m'
_symmetry_Int_Tables_number      72
_space_group_name_Hall           '-I 2 2c'
loop_
_symmetry_equiv_pos_site_id
_symmetry_equiv_pos_as_xyz
1 x,y,z
2 1/2+x,1/2+y,1/2+z
3 -x,-y,z
4 1/2+x,1/2-y,-z
5 1/2-x,1/2-y,1/2+z
6 x,-y,1/2-z
7 1/2-x,1/2+y,-z
8 -x,y,1/2-z
9 -x,-y,-z
10 1/2-x,1/2-y,1/2-z
11 x,y,-z
12 1/2-x,1/2+y,z
13 1/2+x,1/2+y,1/2-z
14 -x,y,1/2+z
15 1/2+x,1/2-y,z
16 x,-y,1/2+z
_cell_length_a                   9.155(4)
_cell_length_b                   12.968(6)
_cell_length_c                   7.717(5)
_cell_angle_alpha                90
_cell_angle_beta                 90
_cell_angle_gamma                90
_cell_volume                     916.178
loop_
_atom_site_label
_atom_site_type_symbol
_atom_site_fract_x
_atom_site_fract_y
_atom_site_fract_z
Cu1 Cu 0.5000 0.0000 0.2500
Cl1 Cl 0.0197(4) 0.2279(3) 0.0000
N1 N 0.3518(5) 0.0508(4) 0.0876(6)
C1 C 0.2401(8) 0.1094(6) 0.140(1)
C2 C 0.168(1) 0.1485(9) 0.0000
H1 H 0.2138 0.1224 0.2608
N1B N 0.6482(5) -0.0508(4) 0.0876(6)
N1E N 0.3518(5) -0.0508(4) 0.4124(6)
N1G N 0.6482(5) 0.0508(4) 0.4124(6)
N1J N 0.3518(5) 0.0508(4) -0.0876(6)
C1J C 0.2401(8) 0.1094(6) -0.140(1)
N1H N 0.6482(5) -0.0508(4) -0.0876(6)
C1B C 0.7599(8) -0.1094(6) 0.140(1)
N1O N 0.3518(5) -0.0508(4) 0.5876(6)
C1E C 0.2401(8) -0.1094(6) 0.360(1)
N1M N 0.6482(5) 0.0508(4) 0.5876(6)
C1G C 0.7599(8) 0.1094(6) 0.360(1)
Cu1H Cu 0.5000 0.0000 -0.2500
H1J H 0.2138 0.1224 -0.2608
C1H C 0.7599(8) -0.1094(6) -0.140(1)
C2B C 0.832(1) -0.1485(9) 0.0000
H1B H 0.7862 -0.1224 0.2608
Cu1H_2 Cu 0.5000 0.0000 0.7500
C1O C 0.2401(8) -0.1094(6) 0.640(1)
C2E C 0.168(1) -0.1485(9) 0.5000
H1E H 0.2138 -0.1224 0.2392
C1M C 0.7599(8) 0.1094(6) 0.640(1)
C2G C 0.832(1) 0.1485(9) 0.5000
H1G H 0.7862 0.1224 0.2392
N1M_2 N 0.6482(5) 0.0508(4) -0.4124(6)
N1O_2 N 0.3518(5) -0.0508(4) -0.4124(6)
H1H H 0.7862 -0.1224 -0.2608
Cl1B Cl 0.9803(4) -0.2279(3) 0.0000
H1O H 0.2138 -0.1224 0.7608
Cl1E Cl 0.0197(4) -0.2279(3) 0.5000
H1M H 0.7862 0.1224 0.7608
Cl1G Cl 0.9803(4) 0.2279(3) 0.5000
loop_
_geom_bond_atom_site_label_1
_geom_bond_atom_site_label_2
_geom_bond_site_symmetry_1
_geom_bond_site_symmetry_2
Cu1 N1 1_555 1_555
Cl1 C2 1_555 1_555
N1 C1 1_555 1_555
C1 C2 1_555 1_555
C2 C1J 1_555 1_555
H1 C1 1_555 1_555
N1B Cu1 1_555 1_555
N1E Cu1 1_555 1_555
N1G Cu1 1_555 1_555
N1J N1 1_555 1_555
C1J N1J 1_555 1_555
N1H N1B 1_555 1_555
C1B N1B 1_555 1_555
N1O N1E 1_555 1_555
C1E N1E 1_555 1_555
N1M N1G 1_555 1_555
C1G N1G 1_555 1_555
Cu1H N1J 1_555 1_555
H1J C1J 1_555 1_555
C1H N1H 1_555 1_555
C2B C1B 1_555 1_555
H1B C1B 1_555 1_555
Cu1H_2 N1O 1_555 1_555
C1O N1O 1_555 1_555
C2E C1E 1_555 1_555
H1E C1E 1_555 1_555
C1M N1M 1_555 1_555
C2G C1G 1_555 1_555
H1G C1G 1_555 1_555
N1M_2 Cu1H 1_555 1_555
N1O_2 Cu1H 1_555 1_555
H1H C1H 1_555 1_555
Cl1B C2B 1_555 1_555
H1O C1O 1_555 1_555
Cl1E C2E 1_555 1_555
H1M C1M 1_555 1_555
Cl1G C2G 1_555 1_555
N1H Cu1H 1_555 1_555
N1M Cu1H_2 1_555 1_555
C1H C2B 1_555 1_555
C1O C2E 1_555 1_555
C1M C2G 1_555 1_555

#END
