
#######################################################################
#
#                 Cambridge Crystallographic Data Centre
#                                CCDC 
#
#######################################################################
#
# If this CIF has been generated from an entry in the Cambridge 
# Structural Database, then it will include bibliographic, chemical, 
# crystal, experimental, refinement or atomic coordinate data resulting 
# from the CCDC's data processing and validation procedures.
#
#######################################################################

data_SOJHUW
_symmetry_cell_setting           monoclinic
_symmetry_space_group_name_H-M   'C 2/c'
_symmetry_Int_Tables_number      15
_space_group_name_Hall           '-C 2yn'
loop_
_symmetry_equiv_pos_site_id
_symmetry_equiv_pos_as_xyz
1 x,y,z
2 -x,y,1/2-z
3 1/2+x,1/2+y,z
4 1/2-x,1/2+y,1/2-z
5 -x,-y,-z
6 x,-y,1/2+z
7 1/2-x,1/2-y,-z
8 1/2+x,1/2-y,1/2+z
_cell_length_a                   34.453(5)
_cell_length_b                   10.028(5)
_cell_length_c                   19.310(5)
_cell_angle_alpha                90
_cell_angle_beta                 122.760(5)
_cell_angle_gamma                90
_cell_volume                     5610.36
loop_
_atom_site_label
_atom_site_type_symbol
_atom_site_fract_x
_atom_site_fract_y
_atom_site_fract_z
Mn1 Mn 0.297909(10) 0.11304(3) 0.60025(2)
N1 N -0.08620(6) -0.14849(18) 0.63352(11)
C1 C -0.04323(6) -0.1402(2) 0.63827(12)
O1 O 0.15490(5) 0.53973(16) 0.77781(9)
O2 O 0.22918(5) 0.40564(16) 0.52575(10)
N2 N 0.19298(6) -0.11933(18) 0.60466(11)
O3 O 0.26196(5) 0.25467(17) 0.62556(11)
C2 C 0.15639(7) 0.4371(2) 0.55029(12)
H1 H 0.1539 0.4800 0.5053
C3 C 0.19576(7) 0.3648(2) 0.60361(12)
N3 N -0.14952(6) -0.2361(2) 0.61715(12)
C4 C 0.08358(7) 0.3837(2) 0.63967(12)
O4 O 0.13930(7) 0.4389(2) 0.85982(10)
C5 C 0.12077(7) 0.4460(2) 0.56340(12)
H2 H 0.0944 0.4941 0.5267
C6 C 0.19973(7) 0.3065(2) 0.67245(13)
H3 H 0.2266 0.2608 0.7100
C7 C 0.15430(7) -0.1194(2) 0.61384(13)
C8 C 0.03758(7) -0.1260(2) 0.63696(13)
N4 N 0.24841(6) -0.0407(2) 0.59176(12)
C9 C 0.08692(7) 0.4082(2) 0.71424(13)
C10 C 0.07872(7) -0.1202(2) 0.63042(13)
C11 C 0.23176(7) 0.3410(2) 0.58339(13)
C12 C 0.12386(6) 0.3841(2) 0.63066(12)
C13 C 0.01994(7) -0.2469(2) 0.64190(14)
H4 H 0.0353 -0.3252 0.6448
C14 C 0.21443(8) -0.0107(2) 0.60127(15)
H5 H 0.2062 0.0761 0.6052
C15 C 0.08471(8) -0.0187(2) 0.58831(15)
H6 H 0.0633 0.0504 0.5656
C16 C 0.14952(8) -0.2200(2) 0.65681(15)
H7 H 0.1714 -0.2876 0.6808
C17 C 0.16431(7) 0.3157(2) 0.68578(12)
H8 H 0.1675 0.2757 0.7320
C18 C 0.13041(8) 0.4640(2) 0.78917(13)
C19 C -0.02003(7) -0.2544(2) 0.64265(14)
H9 H -0.0311 -0.3370 0.6461
C20 C 0.04073(7) 0.3500(2) 0.57116(13)
H10 H 0.0381 0.3335 0.5214
C21 C -0.10935(7) -0.2604(2) 0.62710(14)
H11 H -0.0982 -0.3458 0.6294
C22 C 0.00186(8) 0.3402(2) 0.57504(15)
H12 H -0.0266 0.3194 0.5281
C23 C 0.04770(8) 0.3951(2) 0.71728(15)
H13 H 0.0500 0.4094 0.7670
C24 C 0.00561(8) 0.3617(2) 0.64880(16)
H14 H -0.0202 0.3536 0.6523
C25 C -0.02559(8) -0.0181(2) 0.63643(16)
H15 H -0.0405 0.0600 0.6353
C26 C 0.21516(8) -0.2271(3) 0.59737(16)
H16 H 0.2083 -0.3167 0.5979
C27 C 0.12216(8) -0.0184(2) 0.57957(15)
H17 H 0.1255 0.0498 0.5506
C28 C 0.01475(8) -0.0124(2) 0.63627(16)
H18 H 0.0267 0.0705 0.6357
C29 C 0.11174(7) -0.2198(3) 0.66401(16)
H19 H 0.1084 -0.2890 0.6924
C30 C 0.24876(8) -0.1768(3) 0.58935(15)
H20 H 0.2693 -0.2274 0.5831
C31 C -0.15238(9) -0.1011(3) 0.6169(2)
H21 H -0.1773 -0.0537 0.6107
C32 C -0.11395(9) -0.0451(3) 0.6270(2)
H22 H -0.1076 0.0455 0.6290
Mn1B Mn -0.202091(10) -0.38696(3) 0.60025(2)
Mn1C Mn 0.202091(10) 0.61304(3) 0.89975(2)
Mn1F Mn 0.202091(10) 0.38696(3) 0.39975(2)
O1C O 0.34510(5) 0.03973(16) 0.72219(9)
O2F O 0.27082(5) 0.09436(16) 0.47425(10)
N3B N 0.35048(6) 0.2639(2) 0.61715(12)
O5 O 0.10167(7) 0.2674(3) 0.91893(14)
H23 H 0.1197 0.2559 0.9021
H24 H 0.1174 0.2760 0.9710
loop_
_geom_bond_atom_site_label_1
_geom_bond_atom_site_label_2
_geom_bond_site_symmetry_1
_geom_bond_site_symmetry_2
Mn1 O3 1_555 1_555
N1 C1 1_555 1_555
C1 C19 1_555 1_555
O1 C18 1_555 1_555
O2 C11 1_555 1_555
N2 C7 1_555 1_555
O3 C11 1_555 1_555
C2 H1 1_555 1_555
C3 C2 1_555 1_555
N3 C21 1_555 1_555
C4 C9 1_555 1_555
O4 C18 1_555 1_555
C5 C2 1_555 1_555
H2 C5 1_555 1_555
C6 C3 1_555 1_555
H3 C6 1_555 1_555
C7 C16 1_555 1_555
C8 C10 1_555 1_555
N4 Mn1 1_555 1_555
C9 C18 1_555 1_555
C10 C15 1_555 1_555
C11 C3 1_555 1_555
C12 C4 1_555 1_555
C13 C8 1_555 1_555
H4 C13 1_555 1_555
C14 N2 1_555 1_555
H5 C14 1_555 1_555
C15 H6 1_555 1_555
C16 H7 1_555 1_555
C17 C6 1_555 1_555
H8 C17 1_555 1_555
C19 C13 1_555 1_555
H9 C19 1_555 1_555
C20 C4 1_555 1_555
H10 C20 1_555 1_555
C21 N1 1_555 1_555
H11 C21 1_555 1_555
C22 C20 1_555 1_555
H12 C22 1_555 1_555
C23 C9 1_555 1_555
H13 C23 1_555 1_555
C24 C22 1_555 1_555
H14 C24 1_555 1_555
C25 C1 1_555 1_555
H15 C25 1_555 1_555
C26 N2 1_555 1_555
H16 C26 1_555 1_555
C27 C7 1_555 1_555
H17 C27 1_555 1_555
C28 C8 1_555 1_555
H18 C28 1_555 1_555
C29 C10 1_555 1_555
H19 C29 1_555 1_555
C30 N4 1_555 1_555
H20 C30 1_555 1_555
C31 N3 1_555 1_555
H21 C31 1_555 1_555
C32 N1 1_555 1_555
H22 C32 1_555 1_555
O5 H23 1_555 1_555
H24 O5 1_555 1_555
Mn1B N3 1_555 1_555
Mn1C O1 1_555 1_555
Mn1F O2 1_555 1_555
O1C Mn1 1_555 1_555
O2F Mn1 1_555 1_555
N3B Mn1 1_555 1_555
C5 C12 1_555 1_555
N4 C14 1_555 1_555
C12 C17 1_555 1_555
C15 C27 1_555 1_555
C16 C29 1_555 1_555
C23 C24 1_555 1_555
C25 C28 1_555 1_555
C26 C30 1_555 1_555
C31 C32 1_555 1_555

#END
