
#######################################################################
#
#                 Cambridge Crystallographic Data Centre
#                                CCDC 
#
#######################################################################
#
# If this CIF has been generated from an entry in the Cambridge 
# Structural Database, then it will include bibliographic, chemical, 
# crystal, experimental, refinement or atomic coordinate data resulting 
# from the CCDC's data processing and validation procedures.
#
#######################################################################

data_SOJHOQ
_symmetry_cell_setting           triclinic
_symmetry_space_group_name_H-M   'P -1'
_symmetry_Int_Tables_number      2
_space_group_name_Hall           '-P 1'
loop_
_symmetry_equiv_pos_site_id
_symmetry_equiv_pos_as_xyz
1 x,y,z
2 -x,-y,-z
_cell_length_a                   7.084(5)
_cell_length_b                   10.134(5)
_cell_length_c                   15.968(5)
_cell_angle_alpha                90.817(5)
_cell_angle_beta                 100.498(5)
_cell_angle_gamma                99.781(5)
_cell_volume                     1109.55
loop_
_atom_site_label
_atom_site_type_symbol
_atom_site_fract_x
_atom_site_fract_y
_atom_site_fract_z
Zn1 Zn 0.74978(14) 1.01394(8) 0.22614(6)
O1 O 0.5676(9) 0.8506(5) 0.2483(4)
O2 O 0.8349(10) 0.7707(6) 0.2322(4)
O3 O 0.8308(9) 0.2857(6) 0.2200(4)
O4 O 0.5783(9) 0.1433(5) 0.2453(4)
N1 N 0.7705(9) 1.0066(6) 0.1007(4)
N2 N 0.9653(10) 1.3581(7) -0.0202(5)
N3 N 0.9873(10) 1.0509(6) 0.3211(4)
C1 C 1.1446(17) 1.1623(10) 0.4547(6)
N4 N 1.0297(15) 1.3642(8) 0.5004(5)
C2 C 0.6654(14) 0.7528(7) 0.2442(5)
C3 C 0.5586(12) 0.6135(7) 0.2500(5)
C4 C 0.3657(13) 0.5889(8) 0.2621(5)
H1 H 0.3024 0.6603 0.2695
C5 C 0.2687(12) 0.4585(8) 0.2631(6)
H2 H 0.1391 0.4423 0.2696
C6 C 0.3640(12) 0.3522(7) 0.2544(6)
H3 H 0.2980 0.2648 0.2552
C7 C 0.5571(11) 0.3747(7) 0.2444(5)
C8 C 0.6524(11) 0.5060(7) 0.2414(5)
H4 H 0.7810 0.5219 0.2335
C9 C 0.6645(12) 0.2623(7) 0.2354(5)
C10 C 0.6888(12) 0.8931(8) 0.0527(6)
H5 H 0.6459 0.8167 0.0803
C11 C 0.8381(11) 1.1149(8) 0.0591(6)
H6 H 0.9001 1.1929 0.0909
C12 C 0.6661(12) 0.8850(8) -0.0340(6)
H7 H 0.6094 0.8048 -0.0645
C13 C 0.7289(11) 0.9983(8) -0.0758(5)
H8 H 0.7103 0.9957 -0.1350
C14 C 0.8189(11) 1.1145(8) -0.0294(5)
C15 C 0.8845(14) 1.2383(8) -0.0755(6)
H9 H 0.9822 1.2196 -0.1072
H10 H 0.7740 1.2567 -0.1164
C16 C 1.0981(14) 1.4528(8) -0.0594(6)
H11 H 1.0277 1.4819 -0.1118
H12 H 1.2005 1.4090 -0.0736
C17 C 0.8127(13) 1.4275(8) 0.0000(6)
H13 H 0.7224 1.3666 0.0266
H14 H 0.7404 1.4562 -0.0521
C18 C 0.9877(15) 1.1317(9) 0.3877(6)
H15 H 0.8774 1.1693 0.3893
C19 C 1.1499(14) 1.0000(9) 0.3203(6)
H16 H 1.1508 0.9419 0.2748
C20 C 1.3153(15) 1.0283(10) 0.3824(7)
H17 H 1.4256 0.9919 0.3783
C21 C 1.3127(17) 1.1110(11) 0.4498(7)
H18 H 1.4227 1.1332 0.4925
C22 C 1.123(2) 1.2501(12) 0.5288(7)
H19 H 1.0458 1.1967 0.5645
H20 H 1.2508 1.2831 0.5629
C23 C 1.1686(19) 1.4712(12) 0.4756(8)
H21 H 1.2330 1.4363 0.4337
H22 H 1.2672 1.5058 0.5250
C24 C 0.931(2) 1.4169(12) 0.5614(8)
H23 H 1.0253 1.4504 0.6126
H24 H 0.8357 1.3459 0.5771
N1A N 1.2295(9) 1.9934(6) -0.1007(4)
N2A N 1.0347(10) 1.6419(7) 0.0202(5)
C10A C 1.3112(12) 2.1069(8) -0.0527(6)
H5A H 1.3541 2.1833 -0.0803
C11A C 1.1619(11) 1.8851(8) -0.0591(6)
H6A H 1.0999 1.8071 -0.0909
C12A C 1.3339(12) 2.1150(8) 0.0340(6)
H7A H 1.3906 2.1952 0.0645
C13A C 1.2711(11) 2.0017(8) 0.0758(5)
H8A H 1.2897 2.0043 0.1350
C14A C 1.1811(11) 1.8855(8) 0.0294(5)
C15A C 1.1155(14) 1.7617(8) 0.0755(6)
H9A H 1.0178 1.7804 0.1072
H10A H 1.2260 1.7433 0.1164
C16A C 0.9019(14) 1.5472(8) 0.0594(6)
H11A H 0.9723 1.5181 0.1118
H12A H 0.7995 1.5910 0.0736
C17A C 1.1873(13) 1.5725(8) 0.0000(6)
H13A H 1.2776 1.6334 -0.0266
H14A H 1.2596 1.5438 0.0521
N3A N 1.0127(10) 1.9491(6) 0.6789(4)
C1A C 0.8554(17) 1.8377(10) 0.5453(6)
N4A N 0.9703(15) 1.6358(8) 0.4996(5)
C18A C 1.0123(15) 1.8683(9) 0.6123(6)
H15A H 1.1226 1.8307 0.6107
C19A C 0.8501(14) 2.0000(9) 0.6797(6)
H16A H 0.8492 2.0581 0.7252
C20A C 0.6847(15) 1.9717(10) 0.6176(7)
H17A H 0.5744 2.0081 0.6217
C21A C 0.6873(17) 1.8890(11) 0.5502(7)
H18A H 0.5773 1.8668 0.5075
C22A C 0.877(2) 1.7499(12) 0.4712(7)
H19A H 0.9542 1.8033 0.4355
H20A H 0.7492 1.7169 0.4371
C23A C 0.8314(19) 1.5288(12) 0.5244(8)
H21A H 0.7670 1.5637 0.5663
H22A H 0.7328 1.4942 0.4750
C24A C 1.069(2) 1.5831(12) 0.4386(8)
H23A H 0.9747 1.5496 0.3874
H24A H 1.1643 1.6541 0.4229
Zn1A Zn 1.25022(14) 1.98606(8) -0.22614(6)
O1A O 1.4324(9) 2.1494(5) -0.2483(4)
O2A O 1.1651(10) 2.2293(6) -0.2322(4)
O3A O 1.1692(9) 2.7143(6) -0.2200(4)
O4A O 1.4217(9) 2.8567(5) -0.2453(4)
C2A C 1.3346(14) 2.2472(7) -0.2442(5)
C3A C 1.4414(12) 2.3865(7) -0.2500(5)
C4A C 1.6343(13) 2.4111(8) -0.2621(5)
H1A H 1.6976 2.3397 -0.2695
C5A C 1.7313(12) 2.5415(8) -0.2631(6)
H2A H 1.8609 2.5577 -0.2696
C6A C 1.6360(12) 2.6478(7) -0.2544(6)
H3A H 1.7020 2.7352 -0.2552
C7A C 1.4429(11) 2.6253(7) -0.2444(5)
C8A C 1.3476(11) 2.4940(7) -0.2414(5)
H4A H 1.2190 2.4781 -0.2335
C9A C 1.3355(12) 2.7377(7) -0.2354(5)
Zn1_2 Zn 0.74978(14) 0.01394(8) 0.22614(6)
Zn1A_2 Zn 1.25022(14) 1.98606(8) 0.77386(6)
Zn1A_3 Zn 1.25022(14) 2.98606(8) -0.22614(6)
O4_2 O 0.5783(9) 1.1433(5) 0.2453(4)
O4A_2 O 1.4217(9) 1.8567(5) -0.2453(4)
N3A_2 N 1.0127(10) 1.9491(6) -0.3211(4)
loop_
_geom_bond_atom_site_label_1
_geom_bond_atom_site_label_2
_geom_bond_site_symmetry_1
_geom_bond_site_symmetry_2
Zn1 O1 1_555 1_555
O1 C2 1_555 1_555
O2 C2 1_555 1_555
O3 C9 1_555 1_555
O4 C9 1_555 1_555
N1 Zn1 1_555 1_555
N2 C15 1_555 1_555
N3 Zn1 1_555 1_555
C1 C18 1_555 1_555
N4 C22 1_555 1_555
C2 C3 1_555 1_555
C3 C4 1_555 1_555
C4 H1 1_555 1_555
C5 C4 1_555 1_555
H2 C5 1_555 1_555
C6 C5 1_555 1_555
H3 C6 1_555 1_555
C7 C6 1_555 1_555
C8 C3 1_555 1_555
H4 C8 1_555 1_555
C9 C7 1_555 1_555
C10 N1 1_555 1_555
H5 C10 1_555 1_555
C11 N1 1_555 1_555
H6 C11 1_555 1_555
C12 C10 1_555 1_555
H7 C12 1_555 1_555
C13 C12 1_555 1_555
H8 C13 1_555 1_555
C14 C11 1_555 1_555
C15 C14 1_555 1_555
H9 C15 1_555 1_555
H10 C15 1_555 1_555
C16 N2 1_555 1_555
H11 C16 1_555 1_555
H12 C16 1_555 1_555
C17 N2 1_555 1_555
H13 C17 1_555 1_555
H14 C17 1_555 1_555
C18 N3 1_555 1_555
H15 C18 1_555 1_555
C19 N3 1_555 1_555
H16 C19 1_555 1_555
C20 C19 1_555 1_555
H17 C20 1_555 1_555
C21 C1 1_555 1_555
H18 C21 1_555 1_555
C22 C1 1_555 1_555
H19 C22 1_555 1_555
H20 C22 1_555 1_555
C23 N4 1_555 1_555
H21 C23 1_555 1_555
H22 C23 1_555 1_555
C24 N4 1_555 1_555
H23 C24 1_555 1_555
H24 C24 1_555 1_555
N1A C10A 1_555 1_555
N2A C15A 1_555 1_555
C10A H5A 1_555 1_555
C11A N1A 1_555 1_555
H6A C11A 1_555 1_555
C12A C10A 1_555 1_555
H7A C12A 1_555 1_555
C13A C12A 1_555 1_555
H8A C13A 1_555 1_555
C14A C11A 1_555 1_555
C15A C14A 1_555 1_555
H9A C15A 1_555 1_555
H10A C15A 1_555 1_555
C16A C17 1_555 1_555
H11A C16A 1_555 1_555
H12A C16A 1_555 1_555
C17A C16 1_555 1_555
H13A C17A 1_555 1_555
H14A C17A 1_555 1_555
N3A C18A 1_555 1_555
C1A C18A 1_555 1_555
N4A C22A 1_555 1_555
C18A H15A 1_555 1_555
C19A N3A 1_555 1_555
H16A C19A 1_555 1_555
C20A C19A 1_555 1_555
H17A C20A 1_555 1_555
C21A C1A 1_555 1_555
H18A C21A 1_555 1_555
C22A C1A 1_555 1_555
H19A C22A 1_555 1_555
H20A C22A 1_555 1_555
C23A C24 1_555 1_555
H21A C23A 1_555 1_555
H22A C23A 1_555 1_555
C24A C23 1_555 1_555
H23A C24A 1_555 1_555
H24A C24A 1_555 1_555
Zn1A N1A 1_555 1_555
O1A Zn1A 1_555 1_555
O2A C2A 1_555 1_555
O3A C9A 1_555 1_555
O4A C9A 1_555 1_555
C2A O1A 1_555 1_555
C3A C2A 1_555 1_555
C4A C3A 1_555 1_555
H1A C4A 1_555 1_555
C5A C4A 1_555 1_555
H2A C5A 1_555 1_555
C6A C5A 1_555 1_555
H3A C6A 1_555 1_555
C7A C6A 1_555 1_555
C8A C3A 1_555 1_555
H4A C8A 1_555 1_555
C9A C7A 1_555 1_555
Zn1_2 O4 1_555 1_555
Zn1A_2 N3A 1_555 1_555
Zn1A_3 O4A 1_555 1_555
O4_2 Zn1 1_555 1_555
O4A_2 Zn1A 1_555 1_555
N3A_2 Zn1A 1_555 1_555
C7 C8 1_555 1_555
C13 C14 1_555 1_555
C20 C21 1_555 1_555
N2A C16A 1_555 1_555
N2A C17A 1_555 1_555
C13A C14A 1_555 1_555
N4A C23A 1_555 1_555
N4A C24A 1_555 1_555
C20A C21A 1_555 1_555
C7A C8A 1_555 1_555

#END
