
#######################################################################
#
#                 Cambridge Crystallographic Data Centre
#                                CCDC 
#
#######################################################################
#
# If this CIF has been generated from an entry in the Cambridge 
# Structural Database, then it will include bibliographic, chemical, 
# crystal, experimental, refinement or atomic coordinate data resulting 
# from the CCDC's data processing and validation procedures.
#
#######################################################################

data_SOJJAE
_symmetry_cell_setting           triclinic
_symmetry_space_group_name_H-M   'P -1'
_symmetry_Int_Tables_number      2
_space_group_name_Hall           '-P 1'
loop_
_symmetry_equiv_pos_site_id
_symmetry_equiv_pos_as_xyz
1 x,y,z
2 -x,-y,-z
_cell_length_a                   7.4672(3)
_cell_length_b                   8.4618(4)
_cell_length_c                   9.8654(4)
_cell_angle_alpha                114.227(4)
_cell_angle_beta                 91.637(4)
_cell_angle_gamma                109.602(4)
_cell_volume                     525.388
loop_
_atom_site_label
_atom_site_type_symbol
_atom_site_fract_x
_atom_site_fract_y
_atom_site_fract_z
In1 In 0.45017(3) 0.71582(3) 0.38352(3)
C1 C 0.6920(5) 1.0441(5) 0.1730(4)
C2 C 0.6284(5) 0.8610(5) 0.0596(4)
H1 H 0.5512 0.7618 0.0770
C3 C 0.6817(5) 0.8288(5) -0.0789(4)
C4 C 0.7976(5) 0.9759(5) -0.1072(4)
H2 H 0.8317 0.9523 -0.2015
C5 C 0.8608(5) 1.1576(5) 0.0074(4)
C6 C 0.8056(5) 1.1927(5) 0.1466(4)
H3 H 0.8443 1.3152 0.2220
C7 C 0.6435(5) 1.0807(5) 0.3252(4)
C8 C 0.6231(5) 0.6309(5) -0.1949(4)
C9 C 1.0539(5) 1.2982(6) -0.1362(4)
H4 H 1.0809 1.1849 -0.1791
H5 H 1.1753 1.4036 -0.1105
C10 C 0.9166(5) 1.2932(5) -0.2563(4)
O1 O 0.6371(4) 0.9682(4) 0.3789(3)
O2 O 0.7222(4) 0.7379(4) 0.4881(3)
H6 H 0.8323 0.8345 0.5026
H7 H 0.7253 0.6509 0.5172
O3 O 0.6167(4) 1.2319(4) 0.3994(3)
O4 O 0.5090(4) 0.4994(4) -0.1725(3)
O5 O 0.6935(4) 0.5905(4) -0.3157(3)
O6 O 0.9829(4) 1.3133(4) -0.0015(3)
O7 O 0.7439(4) 1.2684(4) -0.2365(3)
O8 O 0.9797(4) 1.3155(5) -0.3640(3)
In1A In 0.54983(3) 0.28418(3) -0.38352(3)
In1A_2 In 0.54983(3) 1.28418(3) -0.38352(3)
In1A_3 In 0.54983(3) 1.28418(3) 0.61648(3)
O3A O 0.3833(4) 0.7681(4) 0.6006(3)
O4A O 0.4910(4) 0.5006(4) 0.1725(3)
O5A O 0.3065(4) 0.4095(4) 0.3157(3)
O7A O 0.2561(4) 0.7316(4) 0.2365(3)
loop_
_geom_bond_atom_site_label_1
_geom_bond_atom_site_label_2
_geom_bond_site_symmetry_1
_geom_bond_site_symmetry_2
In1 O1 1_555 1_555
C1 C2 1_555 1_555
C2 H1 1_555 1_555
C3 C2 1_555 1_555
C4 C3 1_555 1_555
H2 C4 1_555 1_555
C5 C4 1_555 1_555
C6 C1 1_555 1_555
H3 C6 1_555 1_555
C7 C1 1_555 1_555
C8 C3 1_555 1_555
C9 H4 1_555 1_555
H5 C9 1_555 1_555
C10 C9 1_555 1_555
O1 C7 1_555 1_555
O2 In1 1_555 1_555
H6 O2 1_555 1_555
H7 O2 1_555 1_555
O3 C7 1_555 1_555
O4 C8 1_555 1_555
O5 C8 1_555 1_555
O6 C5 1_555 1_555
O7 C10 1_555 1_555
O8 C10 1_555 1_555
In1A O4 1_555 1_555
In1A_2 O7 1_555 1_555
In1A_3 O3 1_555 1_555
O3A In1 1_555 1_555
O4A In1 1_555 1_555
O5A In1 1_555 1_555
O7A In1 1_555 1_555
C5 C6 1_555 1_555
C9 O6 1_555 1_555
O5 In1A 1_555 1_555

#END
