
#######################################################################
#
#                 Cambridge Crystallographic Data Centre
#                                CCDC 
#
#######################################################################
#
# If this CIF has been generated from an entry in the Cambridge 
# Structural Database, then it will include bibliographic, chemical, 
# crystal, experimental, refinement or atomic coordinate data resulting 
# from the CCDC's data processing and validation procedures.
#
#######################################################################

data_SOJJUY
_symmetry_cell_setting           triclinic
_symmetry_space_group_name_H-M   'P -1'
_symmetry_Int_Tables_number      2
_space_group_name_Hall           '-P 1'
loop_
_symmetry_equiv_pos_site_id
_symmetry_equiv_pos_as_xyz
1 x,y,z
2 -x,-y,-z
_cell_length_a                   8.633(3)
_cell_length_b                   10.959(3)
_cell_length_c                   11.497(3)
_cell_angle_alpha                105.8690(10)
_cell_angle_beta                 107.95
_cell_angle_gamma                107.92
_cell_volume                     899.408
loop_
_atom_site_label
_atom_site_type_symbol
_atom_site_fract_x
_atom_site_fract_y
_atom_site_fract_z
Ni1 Ni 0.66831(17) -0.03824(14) 0.34984(12)
O1 O 0.8907(10) 0.1284(9) 0.5102(8)
H1 H 0.8626 0.1942 0.5403
H2 H 0.9721 0.1577 0.4847
N1 N 0.7849(10) -0.0273(9) 0.2168(7)
C1 C 0.7247(10) 0.0199(11) 0.1188(9)
H3 H 0.6289 0.0443 0.1103
C2 C 0.8075(12) 0.0308(11) 0.0334(8)
H4 H 0.7672 0.0624 -0.0321
C3 C 0.9507(11) -0.0057(10) 0.0461(8)
C4 C 1.0110(11) -0.0529(11) 0.1441(9)
H5 H 1.1067 -0.0773 0.1526
C5 C 0.9281(11) -0.0637(10) 0.2294(8)
H6 H 0.9684 -0.0954 0.2950
N2 N 0.4235(7) -0.2090(6) 0.2121(6)
C6 C 0.4011(8) -0.3073(8) 0.0948(7)
H7 H 0.4974 -0.2966 0.0719
C7 C 0.2350(10) -0.4214(7) 0.0118(6)
H8 H 0.2200 -0.4871 -0.0667
C8 C 0.0912(7) -0.4372(7) 0.0460(6)
C9 C 0.1135(8) -0.3390(8) 0.1633(7)
H9 H 0.0173 -0.3496 0.1862
C10 C 0.2797(9) -0.2248(7) 0.2463(6)
H10 H 0.2946 -0.1591 0.3247
O2 O 0.5413(11) 0.0873(8) 0.3108(8)
O3 O 0.7337(13) 0.2906(10) 0.4844(11)
C11 C 0.5880(17) 0.2093(13) 0.3860(12)
C12 C 0.3273(11) 0.2534(8) 0.4225(8)
C13 C 0.4440(11) 0.2698(9) 0.3614(8)
C14 C 0.4441(12) 0.3504(10) 0.2868(9)
C15 C 0.3276(13) 0.4147(9) 0.2732(9)
H11 H 0.3277 0.4687 0.2233
C16 C 0.2110(12) 0.3984(9) 0.3343(9)
H12 H 0.1330 0.4414 0.3252
C17 C 0.2108(11) 0.3178(9) 0.4089(9)
H13 H 0.1328 0.3068 0.4498
N3 N 0.572(2) 0.3807(14) 0.2284(13)
O4 O 0.643(2) 0.3076(15) 0.2095(15)
C18 C 0.3258(16) 0.1692(13) 0.5051(12)
O5 O 0.575(3) 0.4700(18) 0.1838(19)
O6 O 0.4038(10) 0.0900(8) 0.5019(7)
O7 O 0.2394(11) 0.1778(9) 0.5767(8)
N1A N 1.2151(10) 0.0273(9) -0.2168(7)
C1A C 1.2753(10) -0.0199(11) -0.1188(9)
H3A H 1.3711 -0.0443 -0.1103
C2A C 1.1925(12) -0.0308(11) -0.0334(8)
H4A H 1.2328 -0.0624 0.0321
C3A C 1.0493(11) 0.0057(10) -0.0461(8)
C4A C 0.9890(11) 0.0529(11) -0.1441(9)
H5A H 0.8933 0.0773 -0.1526
C5A C 1.0719(11) 0.0637(10) -0.2294(8)
H6A H 1.0316 0.0954 -0.2950
N2A N -0.4235(7) -0.7910(6) -0.2121(6)
C6A C -0.4011(8) -0.6927(8) -0.0948(7)
H7A H -0.4974 -0.7034 -0.0719
C7A C -0.2350(10) -0.5786(7) -0.0118(6)
H8A H -0.2200 -0.5129 0.0667
C8A C -0.0912(7) -0.5628(7) -0.0460(6)
C9A C -0.1135(8) -0.6610(8) -0.1633(7)
H9A H -0.0173 -0.6504 -0.1862
C10A C -0.2797(9) -0.7752(7) -0.2463(6)
H10A H -0.2946 -0.8409 -0.3247
Ni1A Ni -0.66831(17) -0.96176(14) -0.34984(12)
O1A O -0.8907(10) -1.1284(9) -0.5102(8)
H1A H -0.8626 -1.1942 -0.5403
H2A H -0.9721 -1.1577 -0.4847
O2A O -0.5413(11) -1.0873(8) -0.3108(8)
O3A O -0.7337(13) -1.2906(10) -0.4844(11)
C11A C -0.5880(17) -1.2093(13) -0.3860(12)
C12A C -0.3273(11) -1.2534(8) -0.4225(8)
C13A C -0.4440(11) -1.2698(9) -0.3614(8)
C14A C -0.4441(12) -1.3504(10) -0.2868(9)
C15A C -0.3276(13) -1.4147(9) -0.2732(9)
H11A H -0.3277 -1.4687 -0.2233
C16A C -0.2110(12) -1.3984(9) -0.3343(9)
H12A H -0.1330 -1.4414 -0.3252
C17A C -0.2108(11) -1.3178(9) -0.4089(9)
H13A H -0.1328 -1.3068 -0.4498
N3A N -0.572(2) -1.3807(14) -0.2284(13)
O4A O -0.643(2) -1.3076(15) -0.2095(15)
C18A C -0.3258(16) -1.1692(13) -0.5051(12)
O5A O -0.575(3) -1.4700(18) -0.1838(19)
O6A O -0.4038(10) -1.0900(8) -0.5019(7)
O7A O -0.2394(11) -1.1778(9) -0.5767(8)
Ni1_2 Ni -0.33169(17) -1.03824(14) -0.65016(12)
Ni1A_2 Ni 0.33169(17) 0.03824(14) 0.65016(12)
Ni1A_3 Ni 1.33169(17) 0.03824(14) -0.34984(12)
N1A_2 N -0.7849(10) -0.9727(9) -0.2168(7)
O6_2 O -0.5962(10) -0.9100(8) -0.4981(7)
O6A_2 O 0.5962(10) -0.0900(8) 0.4981(7)
O7_2 O -0.7606(11) -0.8222(9) -0.4233(8)
O7A_2 O 0.7606(11) -0.1778(9) 0.4233(8)
loop_
_geom_bond_atom_site_label_1
_geom_bond_atom_site_label_2
_geom_bond_site_symmetry_1
_geom_bond_site_symmetry_2
Ni1 O1 1_555 1_555
O1 H1 1_555 1_555
H2 O1 1_555 1_555
N1 Ni1 1_555 1_555
C1 N1 1_555 1_555
H3 C1 1_555 1_555
C2 C1 1_555 1_555
H4 C2 1_555 1_555
C3 C2 1_555 1_555
C4 C3 1_555 1_555
H5 C4 1_555 1_555
C5 N1 1_555 1_555
H6 C5 1_555 1_555
N2 Ni1 1_555 1_555
C6 N2 1_555 1_555
H7 C6 1_555 1_555
C7 C6 1_555 1_555
H8 C7 1_555 1_555
C8 C7 1_555 1_555
C9 C8 1_555 1_555
H9 C9 1_555 1_555
C10 N2 1_555 1_555
H10 C10 1_555 1_555
O2 Ni1 1_555 1_555
O3 C11 1_555 1_555
C11 O2 1_555 1_555
C12 C13 1_555 1_555
C13 C11 1_555 1_555
C14 C13 1_555 1_555
C15 C14 1_555 1_555
H11 C15 1_555 1_555
C16 C15 1_555 1_555
H12 C16 1_555 1_555
C17 C12 1_555 1_555
H13 C17 1_555 1_555
N3 C14 1_555 1_555
O4 N3 1_555 1_555
C18 C12 1_555 1_555
O5 N3 1_555 1_555
O6 C18 1_555 1_555
O7 C18 1_555 1_555
N1A C1A 1_555 1_555
C1A H3A 1_555 1_555
C2A C1A 1_555 1_555
H4A C2A 1_555 1_555
C3A C3 1_555 1_555
C4A C3A 1_555 1_555
H5A C4A 1_555 1_555
C5A N1A 1_555 1_555
H6A C5A 1_555 1_555
N2A C6A 1_555 1_555
C6A H7A 1_555 1_555
C7A C6A 1_555 1_555
H8A C7A 1_555 1_555
C8A C8 1_555 1_555
C9A C8A 1_555 1_555
H9A C9A 1_555 1_555
C10A N2A 1_555 1_555
H10A C10A 1_555 1_555
Ni1A N2A 1_555 1_555
O1A Ni1A 1_555 1_555
H1A O1A 1_555 1_555
H2A O1A 1_555 1_555
O2A Ni1A 1_555 1_555
O3A C11A 1_555 1_555
C11A O2A 1_555 1_555
C12A C13A 1_555 1_555
C13A C11A 1_555 1_555
C14A C13A 1_555 1_555
C15A C14A 1_555 1_555
H11A C15A 1_555 1_555
C16A C15A 1_555 1_555
H12A C16A 1_555 1_555
C17A C12A 1_555 1_555
H13A C17A 1_555 1_555
N3A C14A 1_555 1_555
O4A N3A 1_555 1_555
C18A C12A 1_555 1_555
O5A N3A 1_555 1_555
O6A C18A 1_555 1_555
O7A C18A 1_555 1_555
Ni1_2 O6A 1_555 1_555
Ni1A_2 O6 1_555 1_555
Ni1A_3 N1A 1_555 1_555
N1A_2 Ni1A 1_555 1_555
O6_2 Ni1A 1_555 1_555
O6A_2 Ni1 1_555 1_555
O7_2 Ni1A 1_555 1_555
O7A_2 Ni1 1_555 1_555
C4 C5 1_555 1_555
C9 C10 1_555 1_555
C16 C17 1_555 1_555
O7 Ni1A_2 1_555 1_555
C2A C3A 1_555 1_555
C4A C5A 1_555 1_555
C7A C8A 1_555 1_555
C9A C10A 1_555 1_555
C16A C17A 1_555 1_555
O7A Ni1_2 1_555 1_555

#END
