
#######################################################################
#
#                 Cambridge Crystallographic Data Centre
#                                CCDC 
#
#######################################################################
#
# If this CIF has been generated from an entry in the Cambridge 
# Structural Database, then it will include bibliographic, chemical, 
# crystal, experimental, refinement or atomic coordinate data resulting 
# from the CCDC's data processing and validation procedures.
#
#######################################################################

data_SOJKAF
_symmetry_cell_setting           tetragonal
_symmetry_space_group_name_H-M   'P 41 21 2'
_symmetry_Int_Tables_number      92
_space_group_name_Hall           'P 4abw 2nw'
loop_
_symmetry_equiv_pos_site_id
_symmetry_equiv_pos_as_xyz
1 x,y,z
2 1/2-y,1/2+x,1/4+z
3 -x,-y,1/2+z
4 1/2+y,1/2-x,3/4+z
5 1/2+x,1/2-y,3/4-z
6 y,x,-z
7 1/2-x,1/2+y,1/4-z
8 -y,-x,1/2-z
_cell_length_a                   9.8536(3)
_cell_length_b                   9.8536(3)
_cell_length_c                   48.8865(15)
_cell_angle_alpha                90
_cell_angle_beta                 90
_cell_angle_gamma                90
_cell_volume                     4746.56
loop_
_atom_site_label
_atom_site_type_symbol
_atom_site_fract_x
_atom_site_fract_y
_atom_site_fract_z
Cd1 Cd 0.69472(10) -0.69472(10) 0.2500
Cd2 Cd 0.75151(11) -0.19113(11) 0.077669(18)
C1 C 0.7213(11) -0.1983(14) 0.1629(2)
C2 C 0.7072(14) -0.3227(12) 0.1779(2)
H1 H 0.7023 -0.4051 0.1686
C3 C 0.7008(14) -0.3194(12) 0.2065(2)
C4 C 0.7056(13) -0.1946(14) 0.2200(2)
H2 H 0.6976 -0.1914 0.2389
C5 C 0.7224(14) -0.0730(14) 0.2049(3)
C6 C 0.7362(15) -0.0802(12) 0.1770(2)
H3 H 0.7566 -0.0014 0.1674
C7 C 0.7299(15) -0.2004(14) 0.1329(2)
C8 C 0.6902(16) -0.4468(14) 0.2222(3)
C9 C 0.7258(16) 0.0596(14) 0.2196(2)
C10 C 0.2832(16) 0.4758(17) 0.0465(3)
C11 C 0.398(2) 0.413(2) 0.0403(5)
H4 H 0.4776 0.4625 0.0379
C12 C 0.398(2) 0.272(3) 0.0373(6)
H5 H 0.4793 0.2260 0.0353
C13 C 0.2803(14) 0.204(2) 0.0373(3)
C14 C 0.1642(18) 0.2708(17) 0.0426(6)
H6 H 0.0825 0.2238 0.0437
C15 C 0.1670(17) 0.409(2) 0.0462(6)
H7 H 0.0861 0.4564 0.0486
C16 C 0.2857(18) 0.6316(19) 0.0535(4)
H8 H 0.3681 0.6522 0.0635
H9 H 0.2873 0.6833 0.0366
C17 C 0.157(2) 0.647(2) 0.0973(3)
H10 H 0.2217 0.6099 0.1089
C18 C 0.0309(18) 0.688(2) 0.1045(3)
H11 H -0.0065 0.6831 0.1220
C19 C 0.0574(17) 0.7256(17) 0.0614(3)
H12 H 0.0398 0.7524 0.0435
C20 C 0.279(2) 0.0500(19) 0.0337(4)
H13 H 0.1868 0.0173 0.0353
H14 H 0.3119 0.0276 0.0156
C21 C 0.332(2) -0.023(2) 0.0809(5)
H15 H 0.2530 0.0043 0.0897
C22 C 0.447(2) -0.080(2) 0.0920(4)
H16 H 0.4575 -0.0956 0.1107
C23 C 0.4858(18) -0.0668(16) 0.0499(3)
H17 H 0.5283 -0.0712 0.0330
N1 N -0.0320(14) 0.7380(17) 0.0816(2)
N2 N 0.1727(14) 0.6718(14) 0.0692(3)
N3 N 0.5433(15) -0.1102(14) 0.0735(2)
N4 N 0.3622(15) -0.0174(14) 0.0537(3)
O1 O 0.6799(13) -0.2964(11) 0.11925(18)
O2 O 0.7795(14) -0.0974(10) 0.12127(19)
O3 O 0.6807(13) -0.5591(8) 0.21025(17)
O4 O 0.6898(13) -0.4414(9) 0.24830(18)
O5 O 0.7835(11) 0.1605(10) 0.2074(2)
O6 O 0.6652(11) 0.0774(11) 0.2405(2)
Cd2G Cd 0.19113(11) -0.75151(11) 0.422331(18)
C1G C 0.1983(14) -0.7213(11) 0.3371(2)
C2G C 0.3227(12) -0.7072(14) 0.3221(2)
H1G H 0.4051 -0.7023 0.3314
C3G C 0.3194(12) -0.7008(14) 0.2935(2)
C4G C 0.1946(14) -0.7056(13) 0.2800(2)
H2G H 0.1914 -0.6976 0.2611
C5G C 0.0730(14) -0.7224(14) 0.2951(3)
C6G C 0.0802(12) -0.7362(15) 0.3230(2)
H3G H 0.0014 -0.7566 0.3326
C7G C 0.2004(14) -0.7299(15) 0.3671(2)
C8G C 0.4468(14) -0.6902(16) 0.2778(3)
C9G C -0.0596(14) -0.7258(16) 0.2804(2)
C10G C -0.4758(17) -0.2832(16) 0.4535(3)
C11G C -0.413(2) -0.398(2) 0.4597(5)
H4G H -0.4625 -0.4776 0.4621
C12G C -0.272(3) -0.398(2) 0.4627(6)
H5G H -0.2260 -0.4793 0.4647
C13G C -0.204(2) -0.2803(14) 0.4627(3)
C14G C -0.2708(17) -0.1642(18) 0.4574(6)
H6G H -0.2238 -0.0825 0.4563
C15G C -0.409(2) -0.1670(17) 0.4538(6)
H7G H -0.4564 -0.0861 0.4514
C16G C -0.6316(19) -0.2857(18) 0.4465(4)
H8G H -0.6522 -0.3681 0.4365
H9G H -0.6833 -0.2873 0.4634
C17G C -0.647(2) -0.157(2) 0.4027(3)
H10G H -0.6099 -0.2217 0.3911
C18G C -0.688(2) -0.0309(18) 0.3955(3)
H11G H -0.6831 0.0065 0.3780
C19G C -0.7256(17) -0.0574(17) 0.4386(3)
H12G H -0.7524 -0.0398 0.4565
C20G C -0.0500(19) -0.279(2) 0.4663(4)
H13G H -0.0173 -0.1868 0.4647
H14G H -0.0276 -0.3119 0.4844
C21G C 0.023(2) -0.332(2) 0.4191(5)
H15G H -0.0043 -0.2530 0.4103
C22G C 0.080(2) -0.447(2) 0.4080(4)
H16G H 0.0956 -0.4575 0.3893
C23G C 0.0668(16) -0.4858(18) 0.4501(3)
H17G H 0.0712 -0.5283 0.4670
N1G N -0.7380(17) 0.0320(14) 0.4184(2)
N2G N -0.6718(14) -0.1727(14) 0.4308(3)
N3G N 0.1102(14) -0.5433(15) 0.4265(2)
N4G N 0.0174(14) -0.3622(15) 0.4463(3)
O1G O 0.2964(11) -0.6799(13) 0.38075(18)
O2G O 0.0974(10) -0.7795(14) 0.37873(19)
O3G O 0.5591(8) -0.6807(13) 0.28975(17)
O4G O 0.4414(9) -0.6898(13) 0.25170(18)
O5G O -0.1605(10) -0.7835(11) 0.2926(2)
O6G O -0.0774(11) -0.6652(11) 0.2595(2)
Cd1_2 Cd -0.30528(10) -0.69472(10) 0.2500
Cd1_3 Cd 0.69472(10) 0.30528(10) 0.2500
Cd2_2 Cd -0.24849(11) 0.80887(11) 0.077669(18)
Cd2A Cd -0.30887(11) -0.74849(11) 0.327669(18)
Cd2A_2 Cd 0.69113(11) -0.74849(11) 0.327669(18)
Cd2F Cd 0.74849(11) -0.69113(11) 0.172331(18)
Cd2F_2 Cd 0.74849(11) 0.30887(11) 0.172331(18)
Cd2G_2 Cd -0.80887(11) 0.24849(11) 0.422331(18)
N1_2 N 0.9680(14) -0.2620(17) 0.0816(2)
N1G_2 N 0.2620(17) -0.9680(14) 0.4184(2)
O3A O 0.0591(8) -0.8193(13) 0.46025(17)
O3F O 0.8193(13) -0.0591(8) 0.03975(17)
O5_2 O 0.7835(11) -0.8395(10) 0.2074(2)
O5A O 0.3395(10) -0.7165(11) 0.4574(2)
O5F O 0.7165(11) -0.3395(10) 0.0426(2)
O5G_2 O 0.8395(10) -0.7835(11) 0.2926(2)
O6_2 O 0.6652(11) -0.9226(11) 0.2405(2)
O6G_2 O 0.9226(11) -0.6652(11) 0.2595(2)
O7 O 0.4463(17) -0.4565(19) 0.1284(4)
loop_
_geom_bond_atom_site_label_1
_geom_bond_atom_site_label_2
_geom_bond_site_symmetry_1
_geom_bond_site_symmetry_2
Cd1 O3 1_555 1_555
Cd2 N3 1_555 1_555
C1 C2 1_555 1_555
C2 H1 1_555 1_555
C3 C2 1_555 1_555
C4 C3 1_555 1_555
H2 C4 1_555 1_555
C5 C4 1_555 1_555
C6 C1 1_555 1_555
H3 C6 1_555 1_555
C7 C1 1_555 1_555
C8 C3 1_555 1_555
C9 C5 1_555 1_555
C10 C11 1_555 1_555
C11 H4 1_555 1_555
C12 C11 1_555 1_555
H5 C12 1_555 1_555
C13 C12 1_555 1_555
C14 C13 1_555 1_555
H6 C14 1_555 1_555
C15 C10 1_555 1_555
H7 C15 1_555 1_555
C16 C10 1_555 1_555
H8 C16 1_555 1_555
H9 C16 1_555 1_555
C17 H10 1_555 1_555
C18 C17 1_555 1_555
H11 C18 1_555 1_555
C19 H12 1_555 1_555
C20 C13 1_555 1_555
H13 C20 1_555 1_555
H14 C20 1_555 1_555
C21 H15 1_555 1_555
C22 C21 1_555 1_555
H16 C22 1_555 1_555
C23 H17 1_555 1_555
N1 C18 1_555 1_555
N2 C16 1_555 1_555
N3 C22 1_555 1_555
N4 C20 1_555 1_555
O1 Cd2 1_555 1_555
O2 Cd2 1_555 1_555
O3 C8 1_555 1_555
O4 Cd1 1_555 1_555
O5 C9 1_555 1_555
O6 C9 1_555 1_555
Cd2G N3G 1_555 1_555
C1G C2G 1_555 1_555
C2G H1G 1_555 1_555
C3G C2G 1_555 1_555
C4G C3G 1_555 1_555
H2G C4G 1_555 1_555
C5G C4G 1_555 1_555
C6G C1G 1_555 1_555
H3G C6G 1_555 1_555
C7G C1G 1_555 1_555
C8G C3G 1_555 1_555
C9G C5G 1_555 1_555
C10G C11G 1_555 1_555
C11G H4G 1_555 1_555
C12G C11G 1_555 1_555
H5G C12G 1_555 1_555
C13G C12G 1_555 1_555
C14G C13G 1_555 1_555
H6G C14G 1_555 1_555
C15G C10G 1_555 1_555
H7G C15G 1_555 1_555
C16G C10G 1_555 1_555
H8G C16G 1_555 1_555
H9G C16G 1_555 1_555
C17G H10G 1_555 1_555
C18G C17G 1_555 1_555
H11G C18G 1_555 1_555
C19G H12G 1_555 1_555
C20G C13G 1_555 1_555
H13G C20G 1_555 1_555
H14G C20G 1_555 1_555
C21G H15G 1_555 1_555
C22G C21G 1_555 1_555
H16G C22G 1_555 1_555
C23G H17G 1_555 1_555
N1G C18G 1_555 1_555
N2G C16G 1_555 1_555
N3G C22G 1_555 1_555
N4G C20G 1_555 1_555
O1G Cd2G 1_555 1_555
O2G Cd2G 1_555 1_555
O3G Cd1 1_555 1_555
O4G Cd1 1_555 1_555
O5G C9G 1_555 1_555
O6G C9G 1_555 1_555
Cd1_2 O5G 1_555 1_555
Cd1_3 O5 1_555 1_555
Cd2_2 N1 1_555 1_555
Cd2A O5G 1_555 1_555
Cd2A_2 O3G 1_555 1_555
Cd2F O3 1_555 1_555
Cd2F_2 O5 1_555 1_555
Cd2G_2 N1G 1_555 1_555
N1_2 Cd2 1_555 1_555
N1G_2 Cd2G 1_555 1_555
O3A Cd2G 1_555 1_555
O3F Cd2 1_555 1_555
O5_2 Cd1 1_555 1_555
O5A Cd2G 1_555 1_555
O5F Cd2 1_555 1_555
O5G_2 Cd1 1_555 1_555
O6_2 Cd1 1_555 1_555
O6G_2 Cd1 1_555 1_555
C5 C6 1_555 1_555
C7 O1 1_555 1_555
C7 O2 1_555 1_555
C8 O4 1_555 1_555
C14 C15 1_555 1_555
C17 N2 1_555 1_555
C19 N1 1_555 1_555
C19 N2 1_555 1_555
C21 N4 1_555 1_555
C23 N3 1_555 1_555
C23 N4 1_555 1_555
O6 Cd1_3 1_555 1_555
C5G C6G 1_555 1_555
C7G O1G 1_555 1_555
C7G O2G 1_555 1_555
C8G O3G 1_555 1_555
C8G O4G 1_555 1_555
C14G C15G 1_555 1_555
C17G N2G 1_555 1_555
C19G N1G 1_555 1_555
C19G N2G 1_555 1_555
C21G N4G 1_555 1_555
C23G N3G 1_555 1_555
C23G N4G 1_555 1_555
O6G Cd1_2 1_555 1_555
Cd2A_2 O5G_2 1_555 1_555
Cd2F O5_2 1_555 1_555

#END
