
#######################################################################
#
#                 Cambridge Crystallographic Data Centre
#                                CCDC 
#
#######################################################################
#
# If this CIF has been generated from an entry in the Cambridge 
# Structural Database, then it will include bibliographic, chemical, 
# crystal, experimental, refinement or atomic coordinate data resulting 
# from the CCDC's data processing and validation procedures.
#
#######################################################################

data_SOJMAH
_symmetry_cell_setting           triclinic
_symmetry_space_group_name_H-M   'P -1'
_symmetry_Int_Tables_number      2
_space_group_name_Hall           '-P 1'
loop_
_symmetry_equiv_pos_site_id
_symmetry_equiv_pos_as_xyz
1 x,y,z
2 -x,-y,-z
_cell_length_a                   6.4730(13)
_cell_length_b                   7.9700(16)
_cell_length_c                   10.577(2)
_cell_angle_alpha                101.69(3)
_cell_angle_beta                 102.84(3)
_cell_angle_gamma                105.70(3)
_cell_volume                     491.695
loop_
_atom_site_label
_atom_site_type_symbol
_atom_site_fract_x
_atom_site_fract_y
_atom_site_fract_z
Mn1 Mn 0.89600(4) 0.46528(3) 0.34885(3)
O1 O 1.7852(2) 0.68059(18) 0.42817(16)
O2 O 0.7239(2) 0.3806(2) 0.14411(16)
C1 C 1.7510(3) 0.9279(2) 0.58261(19)
H1 H 1.872 1.0374 0.5862
H2 H 1.7283 0.9436 0.6733
O3 O 1.1986(2) 0.66417(18) 0.36054(17)
O4 O 1.9350(2) 0.72683(18) 0.64952(16)
C2 C 1.3422(3) 0.7485(2) 0.4734(2)
C3 C 0.6127(4) 0.1491(3) -0.0993(2)
H3 H 0.5365 0.0673 -0.1907
H4 H 0.6779 0.0838 -0.0412
H5 H 0.7321 0.2529 -0.1026
O5 O 1.3354(3) 0.7105(2) 0.58279(18)
N1 N 0.4508(3) 0.2138(3) -0.0448(2)
C4 C 0.5198(3) 0.3272(3) 0.0789(2)
C5 C 1.5349(3) 0.9145(2) 0.48084(18)
H6 H 1.5592 0.9023 0.3898
C6 C 1.8264(3) 0.7640(2) 0.55031(19)
C7 C 0.3524(4) 0.3881(3) 0.1386(2)
H7 H 0.2025 0.3327 0.0732
H8 H 0.3948 0.5206 0.1602
H9 H 0.3511 0.3505 0.2212
C8 C 0.2198(4) 0.1536(4) -0.1345(3)
H10 H 0.2079 0.0708 -0.22
H11 H 0.1815 0.2593 -0.1519
H12 H 0.1159 0.0906 -0.0912
C1A C 1.2490(3) 1.0721(2) 0.41739(19)
H1A H 1.128 0.9626 0.4138
H2A H 1.2717 1.0564 0.3267
O3A O 1.8014(2) 1.33583(18) 0.63946(17)
C2A C 1.6578(3) 1.2515(2) 0.5266(2)
C5A C 1.4651(3) 1.0855(2) 0.51916(18)
H6A H 1.4408 1.0977 0.6102
O1A O 1.2148(2) 1.31941(18) 0.57183(16)
C6A C 1.1736(3) 1.2360(2) 0.44969(19)
O5A O 1.6646(3) 1.2895(2) 0.41721(18)
O4A O 1.0650(2) 1.27317(18) 0.35048(16)
Mn1A Mn 1.10400(4) 0.53472(3) 0.65115(3)
O2A O 1.2761(2) 0.6194(2) 0.85589(16)
C3A C 1.3873(4) 0.8509(3) 1.0993(2)
H3A H 1.4635 0.9327 1.1907
H4A H 1.3221 0.9162 1.0412
H5A H 1.2679 0.7471 1.1026
N1A N 1.5492(3) 0.7862(3) 1.0448(2)
C4A C 1.4802(3) 0.6728(3) 0.9211(2)
C7A C 1.6476(4) 0.6119(3) 0.8614(2)
H7A H 1.7975 0.6673 0.9268
H8A H 1.6052 0.4794 0.8398
H9A H 1.6489 0.6495 0.7788
C8A C 1.7802(4) 0.8464(4) 1.1345(3)
H10A H 1.7921 0.9292 1.22
H11A H 1.8185 0.7407 1.1519
H12A H 1.8841 0.9094 1.0912
Mn1_2 Mn 0.89600(4) 1.46528(3) 0.34885(3)
Mn1_3 Mn 1.89600(4) 0.46528(3) 0.34885(3)
Mn1_4 Mn 1.89600(4) 1.46528(3) 0.34885(3)
Mn1A_2 Mn 1.10400(4) 1.53472(3) 0.65115(3)
Mn1A_3 Mn 2.10400(4) 0.53472(3) 0.65115(3)
Mn1A_4 Mn 2.10400(4) 1.53472(3) 0.65115(3)
O1_2 O 0.7852(2) 0.68059(18) 0.42817(16)
O1A_2 O 1.2148(2) 0.31941(18) 0.57183(16)
O3A_2 O 0.8014(2) 0.33583(18) 0.63946(17)
O4_2 O 0.9350(2) 0.72683(18) 0.64952(16)
O4A_2 O 1.0650(2) 0.27317(18) 0.35048(16)
O5A_2 O 0.6646(3) 0.2895(2) 0.41721(18)
loop_
_geom_bond_atom_site_label_1
_geom_bond_atom_site_label_2
_geom_bond_site_symmetry_1
_geom_bond_site_symmetry_2
Mn1 O2 1_555 1_555
O1 C6 1_555 1_555
O2 C4 1_555 1_555
C1 H1 1_555 1_555
H2 C1 1_555 1_555
O3 Mn1 1_555 1_555
O4 C6 1_555 1_555
C2 O3 1_555 1_555
C3 H3 1_555 1_555
H4 C3 1_555 1_555
H5 C3 1_555 1_555
O5 C2 1_555 1_555
N1 C3 1_555 1_555
C4 N1 1_555 1_555
C5 C1 1_555 1_555
H6 C5 1_555 1_555
C6 C1 1_555 1_555
C7 C4 1_555 1_555
H7 C7 1_555 1_555
H8 C7 1_555 1_555
H9 C7 1_555 1_555
C8 N1 1_555 1_555
H10 C8 1_555 1_555
H11 C8 1_555 1_555
H12 C8 1_555 1_555
C1A H1A 1_555 1_555
H2A C1A 1_555 1_555
O3A C2A 1_555 1_555
C2A C5A 1_555 1_555
C5A C5 1_555 1_555
H6A C5A 1_555 1_555
O1A C6A 1_555 1_555
C6A C1A 1_555 1_555
O5A C2A 1_555 1_555
O4A C6A 1_555 1_555
Mn1A Mn1 1_555 1_555
O2A Mn1A 1_555 1_555
C3A H3A 1_555 1_555
H4A C3A 1_555 1_555
H5A C3A 1_555 1_555
N1A C3A 1_555 1_555
C4A O2A 1_555 1_555
C7A C4A 1_555 1_555
H7A C7A 1_555 1_555
H8A C7A 1_555 1_555
H9A C7A 1_555 1_555
C8A N1A 1_555 1_555
H10A C8A 1_555 1_555
H11A C8A 1_555 1_555
H12A C8A 1_555 1_555
Mn1_2 O4A 1_555 1_555
Mn1_3 O1 1_555 1_555
Mn1_4 O5A 1_555 1_555
Mn1A_2 O1A 1_555 1_555
Mn1A_3 O4 1_555 1_555
Mn1A_4 O3A 1_555 1_555
O1_2 Mn1 1_555 1_555
O1A_2 Mn1A 1_555 1_555
O3A_2 Mn1A 1_555 1_555
O4_2 Mn1A 1_555 1_555
O4A_2 Mn1 1_555 1_555
O5A_2 Mn1 1_555 1_555
C2 C5 1_555 1_555
O5 Mn1A 1_555 1_555
C1A C5A 1_555 1_555
N1A C4A 1_555 1_555
Mn1_2 Mn1A_2 1_555 1_555
Mn1_3 Mn1A_3 1_555 1_555
Mn1_4 Mn1A_4 1_555 1_555

#END
