
#######################################################################
#
#                 Cambridge Crystallographic Data Centre
#                                CCDC 
#
#######################################################################
#
# If this CIF has been generated from an entry in the Cambridge 
# Structural Database, then it will include bibliographic, chemical, 
# crystal, experimental, refinement or atomic coordinate data resulting 
# from the CCDC's data processing and validation procedures.
#
#######################################################################

data_SOJQUF
_symmetry_cell_setting           triclinic
_symmetry_space_group_name_H-M   'P -1'
_symmetry_Int_Tables_number      2
_space_group_name_Hall           '-P 1'
loop_
_symmetry_equiv_pos_site_id
_symmetry_equiv_pos_as_xyz
1 x,y,z
2 -x,-y,-z
_cell_length_a                   8.517(2)
_cell_length_b                   9.092(2)
_cell_length_c                   9.622(3)
_cell_angle_alpha                93.984(7)
_cell_angle_beta                 95.015(7)
_cell_angle_gamma                97.587(7)
_cell_volume                     733.264
loop_
_atom_site_label
_atom_site_type_symbol
_atom_site_fract_x
_atom_site_fract_y
_atom_site_fract_z
Co1 Co 1.0000 0.0000 0.0000
N1 N 0.6352(3) 0.1812(3) 0.2157(2)
N2 N 0.5728(4) 0.0354(3) 0.2084(3)
N3 N 0.7995(3) 0.0625(3) 0.1044(2)
N4 N 0.7413(3) 0.1313(3) 0.6393(2)
N5 N 0.8430(4) 0.0608(3) 0.5692(3)
N6 N 0.8898(3) 0.0428(3) 0.8003(2)
N7 N 1.1984(3) 0.4878(3) 0.0020(3)
N8 N 1.1042(3) 0.2262(3) 0.0262(3)
N9 N 1.4468(3) 0.6425(3) 0.0931(3)
C1 C 0.6521(4) 0.3991(3) 0.3874(3)
C2 C 0.6915(4) 0.3559(4) 0.5211(3)
C3 C 0.7892(4) 0.4559(4) 0.6162(4)
H1 H 0.8178 0.4273 0.7048
C4 C 0.8452(5) 0.5969(4) 0.5828(4)
H2 H 0.9114 0.6621 0.6483
C5 C 0.8034(5) 0.6410(4) 0.4529(4)
H3 H 0.8385 0.7370 0.4308
C6 C 0.7093(5) 0.5422(4) 0.3556(4)
H4 H 0.6834 0.5715 0.2668
C7 C 0.5494(4) 0.2970(4) 0.2755(3)
H5 H 0.4564 0.2499 0.3151
H6 H 0.5130 0.3552 0.2015
C8 C 0.6221(4) 0.2075(4) 0.5666(3)
H7 H 0.5403 0.2229 0.6281
H8 H 0.5722 0.1446 0.4849
C9 C 0.6753(4) -0.0309(4) 0.1403(4)
H9 H 0.6631 -0.1333 0.1188
C10 C 0.7693(3) 0.1939(3) 0.1547(3)
H10 H 0.8339 0.2835 0.1482
C11 C 0.9294(4) 0.0098(4) 0.6696(3)
H11 H 1.0116 -0.0449 0.6525
C12 C 0.7701(4) 0.1187(3) 0.7761(3)
H12 H 0.7136 0.1580 0.8448
C13 C 1.1548(3) 0.3483(3) 0.0180(3)
C14 C 1.3340(4) 0.5617(3) 0.0535(3)
N1A N 1.3648(3) -0.1812(3) -0.2157(2)
N2A N 1.4272(4) -0.0354(3) -0.2084(3)
N3A N 1.2005(3) -0.0625(3) -0.1044(2)
N4A N 1.2587(3) -0.1313(3) -0.6393(2)
N5A N 1.1570(4) -0.0608(3) -0.5692(3)
N6A N 1.1102(3) -0.0428(3) -0.8003(2)
N7A N 0.8016(3) -0.4878(3) -0.0020(3)
N8A N 0.8958(3) -0.2262(3) -0.0262(3)
N9A N 0.5532(3) -0.6425(3) -0.0931(3)
C1A C 1.3479(4) -0.3991(3) -0.3874(3)
C2A C 1.3085(4) -0.3559(4) -0.5211(3)
C3A C 1.2108(4) -0.4559(4) -0.6162(4)
H1A H 1.1822 -0.4273 -0.7048
C4A C 1.1548(5) -0.5969(4) -0.5828(4)
H2A H 1.0886 -0.6621 -0.6483
C5A C 1.1966(5) -0.6410(4) -0.4529(4)
H3A H 1.1615 -0.7370 -0.4308
C6A C 1.2907(5) -0.5422(4) -0.3556(4)
H4A H 1.3166 -0.5715 -0.2668
C7A C 1.4506(4) -0.2970(4) -0.2755(3)
H5A H 1.5436 -0.2499 -0.3151
H6A H 1.4870 -0.3552 -0.2015
C8A C 1.3779(4) -0.2075(4) -0.5666(3)
H7A H 1.4597 -0.2229 -0.6281
H8A H 1.4278 -0.1446 -0.4849
C9A C 1.3247(4) 0.0309(4) -0.1403(4)
H9A H 1.3369 0.1333 -0.1188
C10A C 1.2307(3) -0.1939(3) -0.1547(3)
H10A H 1.1661 -0.2835 -0.1482
C11A C 1.0706(4) -0.0098(4) -0.6696(3)
H11A H 0.9884 0.0449 -0.6525
C12A C 1.2299(4) -0.1187(3) -0.7761(3)
H12A H 1.2864 -0.1580 -0.8448
C13A C 0.8452(3) -0.3483(3) -0.0180(3)
C14A C 0.6660(4) -0.5617(3) -0.0535(3)
Co1_2 Co 1.0000 0.0000 -1.0000
Co1_3 Co 1.0000 0.0000 1.0000
N6_2 N 0.8898(3) 0.0428(3) -0.1997(2)
N6A_2 N 1.1102(3) -0.0428(3) 0.1997(2)
loop_
_geom_bond_atom_site_label_1
_geom_bond_atom_site_label_2
_geom_bond_site_symmetry_1
_geom_bond_site_symmetry_2
Co1 N3 1_555 1_555
N1 N2 1_555 1_555
N2 C9 1_555 1_555
N3 C9 1_555 1_555
N4 N5 1_555 1_555
N5 C11 1_555 1_555
N6 C11 1_555 1_555
N7 C13 1_555 1_555
N8 Co1 1_555 1_555
N9 C14 1_555 1_555
C1 C2 1_555 1_555
C2 C3 1_555 1_555
C3 H1 1_555 1_555
C4 C3 1_555 1_555
H2 C4 1_555 1_555
C5 C4 1_555 1_555
H3 C5 1_555 1_555
C6 C1 1_555 1_555
H4 C6 1_555 1_555
C7 N1 1_555 1_555
H5 C7 1_555 1_555
H6 C7 1_555 1_555
C8 N4 1_555 1_555
H7 C8 1_555 1_555
H8 C8 1_555 1_555
C9 H9 1_555 1_555
C10 N1 1_555 1_555
H10 C10 1_555 1_555
C11 H11 1_555 1_555
C12 N4 1_555 1_555
H12 C12 1_555 1_555
C13 N8 1_555 1_555
C14 N7 1_555 1_555
N1A N2A 1_555 1_555
N2A C9A 1_555 1_555
N3A Co1 1_555 1_555
N4A N5A 1_555 1_555
N5A C11A 1_555 1_555
N6A C11A 1_555 1_555
N7A C13A 1_555 1_555
N8A Co1 1_555 1_555
N9A C14A 1_555 1_555
C1A C2A 1_555 1_555
C2A C3A 1_555 1_555
C3A H1A 1_555 1_555
C4A C3A 1_555 1_555
H2A C4A 1_555 1_555
C5A C4A 1_555 1_555
H3A C5A 1_555 1_555
C6A C1A 1_555 1_555
H4A C6A 1_555 1_555
C7A N1A 1_555 1_555
H5A C7A 1_555 1_555
H6A C7A 1_555 1_555
C8A N4A 1_555 1_555
H7A C8A 1_555 1_555
H8A C8A 1_555 1_555
C9A N3A 1_555 1_555
H9A C9A 1_555 1_555
C10A N1A 1_555 1_555
H10A C10A 1_555 1_555
C11A H11A 1_555 1_555
C12A N4A 1_555 1_555
H12A C12A 1_555 1_555
C13A N8A 1_555 1_555
C14A N7A 1_555 1_555
Co1_2 N6A 1_555 1_555
Co1_3 N6 1_555 1_555
N6_2 Co1 1_555 1_555
N6A_2 Co1 1_555 1_555
N3 C10 1_555 1_555
N6 C12 1_555 1_555
C1 C7 1_555 1_555
C2 C8 1_555 1_555
C5 C6 1_555 1_555
N3A C10A 1_555 1_555
N6A C12A 1_555 1_555
C1A C7A 1_555 1_555
C2A C8A 1_555 1_555
C5A C6A 1_555 1_555

#END
