
#######################################################################
#
#                 Cambridge Crystallographic Data Centre
#                                CCDC 
#
#######################################################################
#
# If this CIF has been generated from an entry in the Cambridge 
# Structural Database, then it will include bibliographic, chemical, 
# crystal, experimental, refinement or atomic coordinate data resulting 
# from the CCDC's data processing and validation procedures.
#
#######################################################################

data_SOJSUH
_symmetry_cell_setting           monoclinic
_symmetry_space_group_name_H-M   'C 2/c'
_symmetry_Int_Tables_number      15
_space_group_name_Hall           '-C 2yn'
loop_
_symmetry_equiv_pos_site_id
_symmetry_equiv_pos_as_xyz
1 x,y,z
2 -x,y,1/2-z
3 1/2+x,1/2+y,z
4 1/2-x,1/2+y,1/2-z
5 -x,-y,-z
6 x,-y,1/2+z
7 1/2-x,1/2-y,-z
8 1/2+x,1/2-y,1/2+z
_cell_length_a                   31.517(12)
_cell_length_b                   14.882(4)
_cell_length_c                   28.494(8)
_cell_angle_alpha                90
_cell_angle_beta                 120.19(2)
_cell_angle_gamma                90
_cell_volume                     11552
loop_
_atom_site_label
_atom_site_type_symbol
_atom_site_fract_x
_atom_site_fract_y
_atom_site_fract_z
Gd1 Gd 0.267515(8) 0.118113(15) 0.487805(9)
O1 O 0.07431(17) 0.3571(3) 0.3558(2)
H1 H 0.0890 0.4027 0.3560
O2 O 0.25307(14) -0.0257(3) 0.12819(15)
H2 H 0.2343 0.0142 0.1093
O3 O 0.22859(14) 0.0704(3) 0.30124(16)
H3 H 0.2328 0.1196 0.3160
O4 O 0.24117(13) -0.1323(2) 0.05091(14)
O5 O 0.20322(13) -0.2602(3) 0.04090(15)
O6 O 0.25082(15) 0.0729(3) 0.40110(16)
O7 O 0.32533(15) 0.0485(3) 0.46461(16)
O8 O 0.29927(18) -0.0118(3) 0.5455(2)
O9 O 0.20066(14) 0.2087(3) 0.43746(16)
O10 O 0.16113(13) 0.3353(3) 0.43457(16)
O11 O 0.20344(18) 0.0143(4) 0.4556(2)
C1 C 0.12767(19) 0.2395(4) 0.3577(2)
C2 C 0.1338(2) 0.1724(5) 0.3287(3)
H4 H 0.1621 0.1375 0.3460
C3 C 0.1000(2) 0.1543(5) 0.2751(3)
C4 C 0.0562(2) 0.2064(4) 0.2471(3)
C5 C 0.0474(2) 0.2720(4) 0.2755(2)
C6 C 0.08192(19) 0.2917(4) 0.3278(2)
C7 C 0.0000 0.3256(6) 0.2500
H5 H -0.0005 0.3643 0.2223
C8 C 0.0232(2) 0.1885(5) 0.1903(3)
H6 H -0.0066 0.2189 0.1721
C9 C 0.0347(3) 0.1294(6) 0.1640(4)
H7 H 0.0167 0.1267 0.1263
C10 C 0.21110(17) -0.1709(3) 0.11012(19)
C11 C 0.1874(2) -0.2316(4) 0.1256(3)
H8 H 0.1763 -0.2855 0.1068
C12 C 0.17958(17) -0.2140(3) 0.16919(18)
C13 C 0.19817(19) -0.1335(4) 0.1993(2)
C14 C 0.22802(17) -0.0868(3) 0.14105(19)
C15 C 0.22447(18) -0.0717(3) 0.18644(19)
C16 C 0.24455(19) 0.0171(4) 0.2190(2)
H9 H 0.2571 0.0536 0.2004
H10 H 0.2171 0.0493 0.2174
C17 C 0.1874(2) -0.1185(4) 0.2405(2)
H11 H 0.1971 -0.0652 0.2602
C18 C 0.29512(18) 0.0479(4) 0.41353(19)
C19 C 0.2715(2) 0.0348(4) 0.3146(2)
C20 C 0.3515(2) -0.0080(4) 0.3860(3)
H12 H 0.3730 -0.0205 0.4225
C21 C 0.30677(17) 0.0285(3) 0.3728(2)
C22 C 0.28412(18) 0.0103(3) 0.27764(19)
C23 C 0.33103(19) -0.0238(3) 0.2933(2)
C24 C 0.36728(18) -0.0279(4) 0.3497(2)
C25 C 0.3456(3) -0.0460(5) 0.2551(3)
H13 H 0.3229 -0.0408 0.2182
C26 C 0.3925(3) -0.0750(5) 0.2709(3)
H14 H 0.4006 -0.0913 0.2449
C27 C 0.1620(2) -0.1839(4) 0.2522(3)
H15 H 0.1560 -0.1731 0.2805
C28 C 0.4139(3) -0.0570(6) 0.3623(4)
H16 H 0.4372 -0.0608 0.3990
C29 C 0.21977(15) -0.1913(3) 0.06505(18)
C30 C 0.1075(3) 0.0908(7) 0.2428(5)
H17 H 0.1385 0.0647 0.2586
C31 C 0.0775(3) 0.0660(7) 0.1956(5)
H18 H 0.0811 0.0126 0.1810
C32 C 0.16539(18) 0.2607(4) 0.4131(2)
C33 C 0.1452(3) -0.2646(4) 0.2233(3)
H19 H 0.1281 -0.3071 0.2313
C34 C 0.1552(3) -0.2761(5) 0.1841(3)
H20 H 0.1454 -0.3297 0.1649
C35 C 0.4288(3) -0.0800(6) 0.3277(4)
H21 H 0.4609 -0.0982 0.3396
C36 C 0.3052(8) -0.0900(15) 0.5259(10)
C37 C 0.2393(9) -0.0919(12) 0.5243(12)
C38 C 0.3043(15) -0.251(2) 0.5382(17)
N1 N 0.2761(8) -0.1536(9) 0.5280(9)
O1A O -0.07431(17) 0.3571(3) 0.1442(2)
H1A H -0.0890 0.4027 0.1440
O9A O -0.20066(14) 0.2087(3) 0.06254(16)
O10A O -0.16113(13) 0.3353(3) 0.06543(16)
C1A C -0.12767(19) 0.2395(4) 0.1423(2)
C2A C -0.1338(2) 0.1724(5) 0.1713(3)
H4A H -0.1621 0.1375 0.1540
C3A C -0.1000(2) 0.1543(5) 0.2249(3)
C4A C -0.0562(2) 0.2064(4) 0.2529(3)
C5A C -0.0474(2) 0.2720(4) 0.2245(2)
C6A C -0.08192(19) 0.2917(4) 0.1722(2)
H5A H 0.0005 0.3643 0.2777
C8A C -0.0232(2) 0.1885(5) 0.3097(3)
H6A H 0.0066 0.2189 0.3279
C9A C -0.0347(3) 0.1294(6) 0.3360(4)
H7A H -0.0167 0.1267 0.3737
C30A C -0.1075(3) 0.0908(7) 0.2572(5)
H17A H -0.1385 0.0647 0.2414
C31A C -0.0775(3) 0.0660(7) 0.3044(5)
H18A H -0.0811 0.0126 0.3190
C32A C -0.16539(18) 0.2607(4) 0.0869(2)
Gd1A Gd -0.267515(8) 0.118113(15) 0.012195(9)
O2A O -0.25307(14) -0.0257(3) 0.37181(15)
H2A H -0.2343 0.0142 0.3907
O3A O -0.22859(14) 0.0704(3) 0.19876(16)
H3A H -0.2328 0.1196 0.1840
O4A O -0.24117(13) -0.1323(2) 0.44909(14)
O5A O -0.20322(13) -0.2602(3) 0.45910(15)
O6A O -0.25082(15) 0.0729(3) 0.09890(16)
O7A O -0.32533(15) 0.0485(3) 0.03539(16)
O8A O -0.29927(18) -0.0118(3) -0.0455(2)
O11A O -0.20344(18) 0.0143(4) 0.0444(2)
C10A C -0.21110(17) -0.1709(3) 0.38988(19)
C11A C -0.1874(2) -0.2316(4) 0.3744(3)
H8A H -0.1763 -0.2855 0.3932
C12A C -0.17958(17) -0.2140(3) 0.33081(18)
C13A C -0.19817(19) -0.1335(4) 0.3007(2)
C14A C -0.22802(17) -0.0868(3) 0.35895(19)
C15A C -0.22447(18) -0.0717(3) 0.31356(19)
C16A C -0.24455(19) 0.0171(4) 0.2810(2)
H9A H -0.2571 0.0536 0.2996
H10A H -0.2171 0.0493 0.2826
C17A C -0.1874(2) -0.1185(4) 0.2595(2)
H11A H -0.1971 -0.0652 0.2398
C18A C -0.29512(18) 0.0479(4) 0.08647(19)
C19A C -0.2715(2) 0.0348(4) 0.1854(2)
C20A C -0.3515(2) -0.0080(4) 0.1140(3)
H12A H -0.3730 -0.0205 0.0775
C21A C -0.30677(17) 0.0285(3) 0.1272(2)
C22A C -0.28412(18) 0.0103(3) 0.22236(19)
C23A C -0.33103(19) -0.0238(3) 0.2067(2)
C24A C -0.36728(18) -0.0279(4) 0.1503(2)
C25A C -0.3456(3) -0.0460(5) 0.2449(3)
H13A H -0.3229 -0.0408 0.2818
C26A C -0.3925(3) -0.0750(5) 0.2291(3)
H14A H -0.4006 -0.0913 0.2551
C27A C -0.1620(2) -0.1839(4) 0.2478(3)
H15A H -0.1560 -0.1731 0.2195
C28A C -0.4139(3) -0.0570(6) 0.1377(4)
H16A H -0.4372 -0.0608 0.1010
C29A C -0.21977(15) -0.1913(3) 0.43495(18)
C33A C -0.1452(3) -0.2646(4) 0.2767(3)
H19A H -0.1281 -0.3071 0.2687
C34A C -0.1552(3) -0.2761(5) 0.3159(3)
H20A H -0.1454 -0.3297 0.3351
C35A C -0.4288(3) -0.0800(6) 0.1723(4)
H21A H -0.4609 -0.0982 0.1604
C36A C -0.3052(8) -0.0900(15) -0.0259(10)
C37A C -0.2393(9) -0.0919(12) -0.0243(12)
C38A C -0.3043(15) -0.251(2) -0.0382(17)
N1A N -0.2761(8) -0.1536(9) -0.0280(9)
Gd1B Gd -0.232485(8) -0.381887(15) 0.487805(9)
Gd1C Gd 0.232485(8) -0.381887(15) 0.012195(9)
Gd1D Gd -0.267515(8) -0.118113(15) 0.512195(9)
Gd1E Gd 0.267515(8) -0.118113(15) -0.012195(9)
Gd1F Gd 0.232485(8) 0.381887(15) 0.512195(9)
Gd1G Gd -0.232485(8) 0.381887(15) -0.012195(9)
O4D O -0.24117(13) 0.1323(2) -0.05091(14)
O4E O 0.24117(13) 0.1323(2) 0.55091(14)
O5B O -0.29678(13) 0.2398(3) 0.04090(15)
O5C O 0.29678(13) 0.2398(3) 0.45910(15)
O10F O 0.33887(13) 0.1647(3) 0.56543(16)
O10G O -0.33887(13) 0.1647(3) -0.06543(16)
loop_
_geom_bond_atom_site_label_1
_geom_bond_atom_site_label_2
_geom_bond_site_symmetry_1
_geom_bond_site_symmetry_2
Gd1 O6 1_555 1_555
O1 H1 1_555 1_555
O2 H2 1_555 1_555
O3 H3 1_555 1_555
O4 C29 1_555 1_555
O5 C29 1_555 1_555
O6 C18 1_555 1_555
O7 Gd1 1_555 1_555
O8 Gd1 1_555 1_555
O9 Gd1 1_555 1_555
O10 C32 1_555 1_555
O11 Gd1 1_555 1_555
C1 C2 1_555 1_555
C2 H4 1_555 1_555
C3 C2 1_555 1_555
C4 C3 1_555 1_555
C5 C4 1_555 1_555
C6 O1 1_555 1_555
C7 C5 1_555 1_555
H5 C7 1_555 1_555
C8 C4 1_555 1_555
H6 C8 1_555 1_555
C9 C8 1_555 1_555
H7 C9 1_555 1_555
C10 C11 1_555 1_555
C11 H8 1_555 1_555
C12 C11 1_555 1_555
C13 C12 1_555 1_555
C14 O2 1_555 1_555
C15 C13 1_555 1_555
C16 C15 1_555 1_555
H9 C16 1_555 1_555
H10 C16 1_555 1_555
C17 C13 1_555 1_555
H11 C17 1_555 1_555
C18 O7 1_555 1_555
C19 O3 1_555 1_555
C20 H12 1_555 1_555
C21 C18 1_555 1_555
C22 C16 1_555 1_555
C23 C22 1_555 1_555
C24 C20 1_555 1_555
C25 C23 1_555 1_555
H13 C25 1_555 1_555
C26 C25 1_555 1_555
H14 C26 1_555 1_555
C27 C17 1_555 1_555
H15 C27 1_555 1_555
C28 C24 1_555 1_555
H16 C28 1_555 1_555
C29 C10 1_555 1_555
C30 C3 1_555 1_555
H17 C30 1_555 1_555
C31 C9 1_555 1_555
H18 C31 1_555 1_555
C32 O9 1_555 1_555
C33 C27 1_555 1_555
H19 C33 1_555 1_555
C34 C12 1_555 1_555
H20 C34 1_555 1_555
C35 C26 1_555 1_555
H21 C35 1_555 1_555
C36 O8 1_555 1_555
C37 N1 1_555 1_555
C38 N1 1_555 1_555
N1 C36 1_555 1_555
O1A H1A 1_555 1_555
O9A C32A 1_555 1_555
O10A C32A 1_555 1_555
C1A C2A 1_555 1_555
C2A H4A 1_555 1_555
C3A C2A 1_555 1_555
C4A C3A 1_555 1_555
C5A C7 1_555 1_555
C6A O1A 1_555 1_555
H5A C7 1_555 1_555
C8A C4A 1_555 1_555
H6A C8A 1_555 1_555
C9A C8A 1_555 1_555
H7A C9A 1_555 1_555
C30A C3A 1_555 1_555
H17A C30A 1_555 1_555
C31A C9A 1_555 1_555
H18A C31A 1_555 1_555
C32A C1A 1_555 1_555
Gd1A O9A 1_555 1_555
O2A H2A 1_555 1_555
O3A H3A 1_555 1_555
O4A C29A 1_555 1_555
O5A C29A 1_555 1_555
O6A Gd1A 1_555 1_555
O7A Gd1A 1_555 1_555
O8A Gd1A 1_555 1_555
O11A Gd1A 1_555 1_555
C10A C11A 1_555 1_555
C11A H8A 1_555 1_555
C12A C11A 1_555 1_555
C13A C12A 1_555 1_555
C14A O2A 1_555 1_555
C15A C13A 1_555 1_555
C16A C15A 1_555 1_555
H9A C16A 1_555 1_555
H10A C16A 1_555 1_555
C17A C13A 1_555 1_555
H11A C17A 1_555 1_555
C18A O6A 1_555 1_555
C19A O3A 1_555 1_555
C20A H12A 1_555 1_555
C21A C18A 1_555 1_555
C22A C16A 1_555 1_555
C23A C22A 1_555 1_555
C24A C20A 1_555 1_555
C25A C23A 1_555 1_555
H13A C25A 1_555 1_555
C26A C25A 1_555 1_555
H14A C26A 1_555 1_555
C27A C17A 1_555 1_555
H15A C27A 1_555 1_555
C28A C24A 1_555 1_555
H16A C28A 1_555 1_555
C29A C10A 1_555 1_555
C33A C27A 1_555 1_555
H19A C33A 1_555 1_555
C34A C12A 1_555 1_555
H20A C34A 1_555 1_555
C35A C26A 1_555 1_555
H21A C35A 1_555 1_555
C36A O8A 1_555 1_555
C37A N1A 1_555 1_555
C38A N1A 1_555 1_555
N1A C36A 1_555 1_555
Gd1B O5A 1_555 1_555
Gd1C O5 1_555 1_555
Gd1D O4A 1_555 1_555
Gd1E O4 1_555 1_555
Gd1F O10 1_555 1_555
Gd1G O10A 1_555 1_555
O4D Gd1A 1_555 1_555
O4E Gd1 1_555 1_555
O5B Gd1A 1_555 1_555
O5C Gd1 1_555 1_555
O10F Gd1 1_555 1_555
O10G Gd1A 1_555 1_555
C1 C6 1_555 1_555
C1 C32 1_555 1_555
C5 C6 1_555 1_555
C10 C14 1_555 1_555
C14 C15 1_555 1_555
C19 C21 1_555 1_555
C19 C22 1_555 1_555
C20 C21 1_555 1_555
C23 C24 1_555 1_555
C28 C35 1_555 1_555
C30 C31 1_555 1_555
C33 C34 1_555 1_555
C1A C6A 1_555 1_555
C4A C5A 1_555 1_555
C5A C6A 1_555 1_555
C30A C31A 1_555 1_555
O7A C18A 1_555 1_555
C10A C14A 1_555 1_555
C14A C15A 1_555 1_555
C19A C21A 1_555 1_555
C19A C22A 1_555 1_555
C20A C21A 1_555 1_555
C23A C24A 1_555 1_555
C28A C35A 1_555 1_555
C33A C34A 1_555 1_555

#END
