
#######################################################################
#
#                 Cambridge Crystallographic Data Centre
#                                CCDC 
#
#######################################################################
#
# If this CIF has been generated from an entry in the Cambridge 
# Structural Database, then it will include bibliographic, chemical, 
# crystal, experimental, refinement or atomic coordinate data resulting 
# from the CCDC's data processing and validation procedures.
#
#######################################################################

data_SOJTEQ
_symmetry_cell_setting           monoclinic
_symmetry_space_group_name_H-M   'C 2/c'
_symmetry_Int_Tables_number      15
_space_group_name_Hall           '-C 2yn'
loop_
_symmetry_equiv_pos_site_id
_symmetry_equiv_pos_as_xyz
1 x,y,z
2 -x,y,1/2-z
3 1/2+x,1/2+y,z
4 1/2-x,1/2+y,1/2-z
5 -x,-y,-z
6 x,-y,1/2+z
7 1/2-x,1/2-y,-z
8 1/2+x,1/2-y,1/2+z
_cell_length_a                   9.903(4)
_cell_length_b                   12.001(10)
_cell_length_c                   7.400(3)
_cell_angle_alpha                90
_cell_angle_beta                 105.71(3)
_cell_angle_gamma                90
_cell_volume                     846.607
loop_
_atom_site_label
_atom_site_type_symbol
_atom_site_fract_x
_atom_site_fract_y
_atom_site_fract_z
Co1 Co 0.5000 0.1613(1) 0.2500
O1 O 0.1374(5) 0.5233(4) 0.2417(7)
O2 O 0.2511(5) 0.6807(4) 0.2980(7)
N1 N 0.5000 0.3447(6) 0.2500
C1 C 0.6120(7) 0.4014(5) 0.2334(9)
C2 C 0.6179(7) 0.5187(5) 0.2381(9)
C3 C 0.5000 0.5782(8) 0.2500
C4 C 0.2503(8) 0.5767(6) 0.2687(10)
O3 O 0.5374(5) 0.1703(4) 0.5408(6)
O1B O 0.6374(5) 0.0233(4) 0.2417(7)
O2B O 0.7511(5) 0.1807(4) 0.2980(7)
C2A C 0.3821(7) 0.5187(5) 0.2619(9)
C1A C 0.3880(7) 0.4014(5) 0.2666(9)
O1C O 0.3626(5) 0.0233(4) 0.2583(7)
Co1C Co 0.0000 0.6613(1) 0.2500
O2C O 0.2489(5) 0.1807(4) 0.2020(7)
C4A C 0.7497(8) 0.5767(6) 0.2313(10)
O1A O 0.8626(5) 0.5233(4) 0.2583(7)
Co1B Co 1.0000 0.6613(1) 0.2500
O2A O 0.7489(5) 0.6807(4) 0.2020(7)
O3A O 0.4626(5) 0.1703(4) -0.0408(6)
loop_
_geom_bond_atom_site_label_1
_geom_bond_atom_site_label_2
_geom_bond_site_symmetry_1
_geom_bond_site_symmetry_2
Co1 N1 1_555 1_555
O1 C4 1_555 1_555
O2 C4 1_555 1_555
N1 C1 1_555 1_555
C1 C2 1_555 1_555
C2 C3 1_555 1_555
C3 C2A 1_555 1_555
C4 C2A 1_555 1_555
O3 Co1 1_555 1_555
O1B Co1 1_555 1_555
O2B Co1 1_555 1_555
C2A C1A 1_555 1_555
C1A N1 1_555 1_555
O1C Co1 1_555 1_555
Co1C O1 1_555 1_555
O2C Co1 1_555 1_555
C4A C2 1_555 1_555
O1A C4A 1_555 1_555
Co1B O1A 1_555 1_555
O2A C4A 1_555 1_555
O3A Co1 1_555 1_555
O2 Co1C 1_555 1_555
Co1B O2A 1_555 1_555

#END
