
#######################################################################
#
#                 Cambridge Crystallographic Data Centre
#                                CCDC 
#
#######################################################################
#
# If this CIF has been generated from an entry in the Cambridge 
# Structural Database, then it will include bibliographic, chemical, 
# crystal, experimental, refinement or atomic coordinate data resulting 
# from the CCDC's data processing and validation procedures.
#
#######################################################################

data_SOJTOC
_symmetry_cell_setting           monoclinic
_symmetry_space_group_name_H-M   'C 2/c'
_symmetry_Int_Tables_number      15
_space_group_name_Hall           '-C 2yn'
loop_
_symmetry_equiv_pos_site_id
_symmetry_equiv_pos_as_xyz
1 x,y,z
2 -x,y,1/2-z
3 1/2+x,1/2+y,z
4 1/2-x,1/2+y,1/2-z
5 -x,-y,-z
6 x,-y,1/2+z
7 1/2-x,1/2-y,-z
8 1/2+x,1/2-y,1/2+z
_cell_length_a                   15.437(5)
_cell_length_b                   15.985(5)
_cell_length_c                   16.475(6)
_cell_angle_alpha                90
_cell_angle_beta                 90.145(13)
_cell_angle_gamma                90
_cell_volume                     4065.37
loop_
_atom_site_label
_atom_site_type_symbol
_atom_site_fract_x
_atom_site_fract_y
_atom_site_fract_z
C1 C 0.4555(7) 0.7662(7) -0.1514(5)
H1 H 0.4403 0.7186 -0.1839
H2 H 0.5174 0.7704 -0.1476
H3 H 0.4327 0.8160 -0.1761
C2 C 0.4177(5) 0.7563(5) -0.0674(5)
C3 C 0.4419(5) 0.8104(5) -0.0039(5)
C4 C 0.5015(6) 0.8816(5) -0.0206(6)
H4 H 0.4904 0.9249 0.0194
H5 H 0.4866 0.9046 -0.0733
C5 C 0.5977(6) 0.8631(6) -0.0200(6)
C6 C 0.4429(7) 0.8495(6) 0.1418(6)
H6 H 0.4998 0.8701 0.1298
H7 H 0.4447 0.8171 0.1909
H8 H 0.4040 0.8958 0.1487
C7 C 0.4118(5) 0.7956(5) 0.0733(5)
C8 C 0.3549(5) 0.7301(5) 0.0895(4)
C9 C 0.3293(5) 0.6751(4) 0.0255(4)
C10 C 0.3616(5) 0.6898(5) -0.0516(4)
C11 C 0.2739(6) 0.6000(6) 0.0435(6)
H9 H 0.2801 0.5596 0.0008
H10 H 0.2144 0.6168 0.0473
H11 H 0.2919 0.5755 0.0941
C12 C 0.3382(6) 0.6319(5) -0.1214(5)
H12 H 0.2857 0.6017 -0.1076
H13 H 0.3261 0.6654 -0.1692
C13 C 0.4089(5) 0.5695(5) -0.1412(5)
C14 C 0.3790(5) 0.6529(5) 0.2227(4)
C15 C 0.3223(6) 0.7134(5) 0.1754(4)
H14 H 0.3196 0.7661 0.2047
H15 H 0.2640 0.6910 0.1724
O1 O 0.6224(4) 0.7918(3) 0.0020(3)
O2 O 0.6461(4) 0.9215(4) -0.0398(5)
O3 O 0.4584(4) 0.5441(3) -0.0903(3)
O4 O 0.4088(4) 0.5466(3) -0.2163(3)
O5 O 0.4315(3) 0.6087(3) 0.1825(3)
O6 O 0.7975(4) 0.8757(3) 0.0091(3)
O7 O 0.7509(4) 0.7396(4) 0.1271(3)
O8 O 0.3697(4) 0.6489(4) 0.2972(3)
Zn1 Zn 0.5000 0.46868(7) -0.2500
Zn2 Zn 0.7500 0.7500 0.0000
C1A C 0.5445(7) 0.7662(7) -0.3486(5)
H1A H 0.5597 0.7186 -0.3161
H2A H 0.4826 0.7704 -0.3524
H3A H 0.5673 0.8160 -0.3239
C2A C 0.5823(5) 0.7563(5) -0.4326(5)
C3A C 0.5581(5) 0.8104(5) -0.4961(5)
C4A C 0.4985(6) 0.8816(5) -0.4794(6)
H4A H 0.5096 0.9249 -0.5194
H5A H 0.5134 0.9046 -0.4267
C5A C 0.4023(6) 0.8631(6) -0.4800(6)
C6A C 0.5571(7) 0.8495(6) -0.6418(6)
H6A H 0.5002 0.8701 -0.6298
H7A H 0.5553 0.8171 -0.6909
H8A H 0.5960 0.8958 -0.6487
C7A C 0.5882(5) 0.7956(5) -0.5733(5)
C8A C 0.6451(5) 0.7301(5) -0.5895(4)
C9A C 0.6707(5) 0.6751(4) -0.5255(4)
C10A C 0.6384(5) 0.6898(5) -0.4484(4)
C11A C 0.7261(6) 0.6000(6) -0.5435(6)
H9A H 0.7199 0.5596 -0.5008
H10A H 0.7856 0.6168 -0.5473
H11A H 0.7081 0.5755 -0.5941
C12A C 0.6618(6) 0.6319(5) -0.3786(5)
H12A H 0.7143 0.6017 -0.3924
H13A H 0.6739 0.6654 -0.3308
C13A C 0.5911(5) 0.5695(5) -0.3588(5)
C14A C 0.6210(5) 0.6529(5) -0.7227(4)
C15A C 0.6777(6) 0.7134(5) -0.6754(4)
H14A H 0.6804 0.7661 -0.7047
H15A H 0.7360 0.6910 -0.6724
O1A O 0.3776(4) 0.7918(3) -0.5020(3)
O2A O 0.3539(4) 0.9215(4) -0.4602(5)
O3A O 0.5416(4) 0.5441(3) -0.4097(3)
O4A O 0.5912(4) 0.5466(3) -0.2837(3)
O5A O 0.5685(3) 0.6087(3) -0.6825(3)
O8A O 0.6303(4) 0.6489(4) -0.7972(3)
O6F O 0.7025(4) 0.6243(3) -0.0091(3)
O7F O 0.7491(4) 0.7604(4) -0.1271(3)
O1F O 0.8776(4) 0.7082(3) -0.0020(3)
O5D O 0.5685(3) 0.3913(3) -0.1825(3)
O5E O 0.4315(3) 0.3913(3) -0.3175(3)
Zn1D Zn 0.5000 0.53132(7) -0.7500
Zn1D_2 Zn 0.5000 0.53132(7) 0.2500
Zn2A Zn 0.2500 0.7500 -0.5000
K1 K 0.53422(11) 0.62756(11) 0.04738(10)
O9 O 0.7809(5) 0.9049(5) 0.1796(4)
O10 O 0.1962(8) 0.5406(7) 0.2928(7)
loop_
_geom_bond_atom_site_label_1
_geom_bond_atom_site_label_2
_geom_bond_site_symmetry_1
_geom_bond_site_symmetry_2
C1 H1 1_555 1_555
H2 C1 1_555 1_555
H3 C1 1_555 1_555
C2 C1 1_555 1_555
C3 C2 1_555 1_555
C4 C3 1_555 1_555
H4 C4 1_555 1_555
H5 C4 1_555 1_555
C5 C4 1_555 1_555
C6 H6 1_555 1_555
H7 C6 1_555 1_555
H8 C6 1_555 1_555
C7 C3 1_555 1_555
C8 C7 1_555 1_555
C9 C8 1_555 1_555
C10 C2 1_555 1_555
C11 C9 1_555 1_555
H9 C11 1_555 1_555
H10 C11 1_555 1_555
H11 C11 1_555 1_555
C12 C10 1_555 1_555
H12 C12 1_555 1_555
H13 C12 1_555 1_555
C13 C12 1_555 1_555
C14 C15 1_555 1_555
C15 C8 1_555 1_555
H14 C15 1_555 1_555
H15 C15 1_555 1_555
O1 C5 1_555 1_555
O2 C5 1_555 1_555
O3 C13 1_555 1_555
O4 C13 1_555 1_555
O5 C14 1_555 1_555
O6 Zn2 1_555 1_555
O7 Zn2 1_555 1_555
O8 C14 1_555 1_555
Zn1 O4 1_555 1_555
Zn2 O1 1_555 1_555
C1A H1A 1_555 1_555
H2A C1A 1_555 1_555
H3A C1A 1_555 1_555
C2A C1A 1_555 1_555
C3A C2A 1_555 1_555
C4A C3A 1_555 1_555
H4A C4A 1_555 1_555
H5A C4A 1_555 1_555
C5A C4A 1_555 1_555
C6A H6A 1_555 1_555
H7A C6A 1_555 1_555
H8A C6A 1_555 1_555
C7A C3A 1_555 1_555
C8A C7A 1_555 1_555
C9A C8A 1_555 1_555
C10A C2A 1_555 1_555
C11A C9A 1_555 1_555
H9A C11A 1_555 1_555
H10A C11A 1_555 1_555
H11A C11A 1_555 1_555
C12A C10A 1_555 1_555
H12A C12A 1_555 1_555
H13A C12A 1_555 1_555
C13A C12A 1_555 1_555
C14A C15A 1_555 1_555
C15A C8A 1_555 1_555
H14A C15A 1_555 1_555
H15A C15A 1_555 1_555
O1A C5A 1_555 1_555
O2A C5A 1_555 1_555
O3A C13A 1_555 1_555
O4A Zn1 1_555 1_555
O5A C14A 1_555 1_555
O8A C14A 1_555 1_555
O6F Zn2 1_555 1_555
O7F Zn2 1_555 1_555
O1F Zn2 1_555 1_555
O5D Zn1 1_555 1_555
O5E Zn1 1_555 1_555
Zn1D O5A 1_555 1_555
Zn1D_2 O5 1_555 1_555
Zn2A O1A 1_555 1_555
C6 C7 1_555 1_555
C9 C10 1_555 1_555
C6A C7A 1_555 1_555
C9A C10A 1_555 1_555
C13A O4A 1_555 1_555

#END
