
#######################################################################
#
#                 Cambridge Crystallographic Data Centre
#                                CCDC 
#
#######################################################################
#
# If this CIF has been generated from an entry in the Cambridge 
# Structural Database, then it will include bibliographic, chemical, 
# crystal, experimental, refinement or atomic coordinate data resulting 
# from the CCDC's data processing and validation procedures.
#
#######################################################################

data_SOJTEQ03
_symmetry_cell_setting           monoclinic
_symmetry_space_group_name_H-M   'C 2/c'
_symmetry_Int_Tables_number      15
_space_group_name_Hall           '-C 2yn'
loop_
_symmetry_equiv_pos_site_id
_symmetry_equiv_pos_as_xyz
1 x,y,z
2 -x,y,1/2-z
3 1/2+x,1/2+y,z
4 1/2-x,1/2+y,1/2-z
5 -x,-y,-z
6 x,-y,1/2+z
7 1/2-x,1/2-y,-z
8 1/2+x,1/2-y,1/2+z
_cell_length_a                   9.8871(12)
_cell_length_b                   11.9597(15)
_cell_length_c                   7.3885(9)
_cell_angle_alpha                90
_cell_angle_beta                 105.144(2)
_cell_angle_gamma                90
_cell_volume                     843.326
loop_
_atom_site_label
_atom_site_type_symbol
_atom_site_fract_x
_atom_site_fract_y
_atom_site_fract_z
Co1 Co 0.0000 0.16130(3) 0.2500
O1 O 0.25180(17) 0.18025(13) 0.2995(3)
O2 O 0.13767(15) 0.02351(13) 0.2416(2)
O3 O -0.03713(18) 0.17013(14) -0.0393(2)
N1 N 0.5000 -0.15573(17) 0.2500
C1 C 0.24961(19) 0.07785(16) 0.2689(3)
C2 C 0.38160(18) 0.01855(15) 0.2620(3)
C3 C 0.38739(19) -0.09736(16) 0.2660(3)
C4 C 0.5000 0.0770(2) 0.2500
H1 H 0.315(3) -0.140(2) 0.289(4)
H2 H 0.5000 0.149(3) 0.2500
H3 H -0.094(3) 0.212(3) -0.085(4)
H4 H -0.059(3) 0.117(2) -0.087(4)
Co1B Co 0.5000 -0.33870(3) 0.2500
Co1_2 Co 1.0000 0.16130(3) 0.2500
O1A O 0.74820(17) 0.18025(13) 0.2005(3)
O1A_2 O -0.25180(17) 0.18025(13) 0.2005(3)
O2A O 0.86233(15) 0.02351(13) 0.2584(2)
O2A_2 O -0.13767(15) 0.02351(13) 0.2584(2)
O3A O 0.03713(18) 0.17013(14) 0.5393(2)
N1B N 0.0000 0.34427(17) 0.2500
C1A C 0.75039(19) 0.07785(16) 0.2311(3)
C2A C 0.61840(18) 0.01855(15) 0.2380(3)
C3A C 0.61261(19) -0.09736(16) 0.2340(3)
H1A H 0.685(3) -0.140(2) 0.211(4)
H3A H 0.094(3) 0.212(3) 0.585(4)
H4A H 0.059(3) 0.117(2) 0.587(4)
loop_
_geom_bond_atom_site_label_1
_geom_bond_atom_site_label_2
_geom_bond_site_symmetry_1
_geom_bond_site_symmetry_2
Co1 O1 1_555 1_555
O1 C1 1_555 1_555
O2 Co1 1_555 1_555
O3 Co1 1_555 1_555
N1 C3 1_555 1_555
C1 O2 1_555 1_555
C2 C1 1_555 1_555
C3 C2 1_555 1_555
C4 C2 1_555 1_555
H1 C3 1_555 1_555
H2 C4 1_555 1_555
H3 O3 1_555 1_555
H4 O3 1_555 1_555
Co1B N1 1_555 1_555
Co1_2 O1A 1_555 1_555
O1A C1A 1_555 1_555
O1A_2 Co1 1_555 1_555
O2A Co1_2 1_555 1_555
O2A_2 Co1 1_555 1_555
O3A Co1 1_555 1_555
N1B Co1 1_555 1_555
C1A O2A 1_555 1_555
C2A C4 1_555 1_555
C3A N1 1_555 1_555
H1A C3A 1_555 1_555
H3A O3A 1_555 1_555
H4A O3A 1_555 1_555
C1A C2A 1_555 1_555
C2A C3A 1_555 1_555

#END
