
#######################################################################
#
#                 Cambridge Crystallographic Data Centre
#                                CCDC 
#
#######################################################################
#
# If this CIF has been generated from an entry in the Cambridge 
# Structural Database, then it will include bibliographic, chemical, 
# crystal, experimental, refinement or atomic coordinate data resulting 
# from the CCDC's data processing and validation procedures.
#
#######################################################################

data_SOJTEQ01
_symmetry_cell_setting           monoclinic
_symmetry_space_group_name_H-M   'C 2/c'
_symmetry_Int_Tables_number      15
_space_group_name_Hall           '-C 2yn'
loop_
_symmetry_equiv_pos_site_id
_symmetry_equiv_pos_as_xyz
1 x,y,z
2 -x,y,1/2-z
3 1/2+x,1/2+y,z
4 1/2-x,1/2+y,1/2-z
5 -x,-y,-z
6 x,-y,1/2+z
7 1/2-x,1/2-y,-z
8 1/2+x,1/2-y,1/2+z
_cell_length_a                   9.900(2)
_cell_length_b                   11.984(2)
_cell_length_c                   7.375(2)
_cell_angle_alpha                90
_cell_angle_beta                 105.37(3)
_cell_angle_gamma                90
_cell_volume                     843.687
loop_
_atom_site_label
_atom_site_type_symbol
_atom_site_fract_x
_atom_site_fract_y
_atom_site_fract_z
Co1 Co 0.5000 0.16157(2) 0.2500
N1 N 0.5000 0.34453(13) 0.2500
O1 O 0.86280(11) 0.52323(9) 0.25943(16)
O2 O 0.74847(12) 0.68102(9) 0.20031(17)
O3 O 0.53741(13) 0.17035(9) 0.54045(16)
C1 C 0.61242(14) 0.40277(12) 0.2336(2)
H1 H 0.6899 0.3636 0.2187
C2 C 0.61824(13) 0.51891(11) 0.23799(19)
C3 C 0.5000 0.57788(16) 0.2500
H2 H 0.5000 0.6555 0.2500
C4 C 0.75066(14) 0.57813(13) 0.23150(15)
H3 H 0.556(2) 0.114(2) 0.589(3)
H4 H 0.595(2) 0.214(2) 0.583(3)
C2A C 0.38176(13) 0.51891(11) 0.26201(19)
C1A C 0.38758(14) 0.40277(12) 0.2664(2)
H1A H 0.3101 0.3636 0.2813
C4A C 0.24934(14) 0.57813(13) 0.26850(15)
O1A O 0.13720(11) 0.52323(9) 0.24057(16)
O2A O 0.25153(12) 0.68102(9) 0.29969(17)
O3A O 0.46259(13) 0.17035(9) -0.04045(16)
H3A H 0.444(2) 0.114(2) -0.089(3)
H4A H 0.405(2) 0.214(2) -0.083(3)
O1B O 0.36280(11) 0.02323(9) 0.25943(16)
O1C O 0.63720(11) 0.02323(9) 0.24057(16)
Co1B Co 1.0000 0.66157(2) 0.2500
Co1B_2 Co 0.0000 0.66157(2) 0.2500
loop_
_geom_bond_atom_site_label_1
_geom_bond_atom_site_label_2
_geom_bond_site_symmetry_1
_geom_bond_site_symmetry_2
Co1 N1 1_555 1_555
N1 C1 1_555 1_555
O1 C4 1_555 1_555
O2 C4 1_555 1_555
O3 Co1 1_555 1_555
C1 H1 1_555 1_555
C2 C1 1_555 1_555
C3 C2 1_555 1_555
H2 C3 1_555 1_555
C4 C2 1_555 1_555
H3 O3 1_555 1_555
H4 O3 1_555 1_555
C2A C3 1_555 1_555
C1A N1 1_555 1_555
H1A C1A 1_555 1_555
C4A C2A 1_555 1_555
O1A C4A 1_555 1_555
O2A C4A 1_555 1_555
O3A Co1 1_555 1_555
H3A O3A 1_555 1_555
H4A O3A 1_555 1_555
O1B Co1 1_555 1_555
O1C Co1 1_555 1_555
Co1B O1 1_555 1_555
Co1B_2 O1A 1_555 1_555
C2A C1A 1_555 1_555

#END
