
#######################################################################
#
#                 Cambridge Crystallographic Data Centre
#                                CCDC 
#
#######################################################################
#
# If this CIF has been generated from an entry in the Cambridge 
# Structural Database, then it will include bibliographic, chemical, 
# crystal, experimental, refinement or atomic coordinate data resulting 
# from the CCDC's data processing and validation procedures.
#
#######################################################################

data_SOJZUO
_symmetry_cell_setting           orthorhombic
_symmetry_space_group_name_H-M   'P n a 21'
_symmetry_Int_Tables_number      33
_space_group_name_Hall           'P 2c -2n'
loop_
_symmetry_equiv_pos_site_id
_symmetry_equiv_pos_as_xyz
1 x,y,z
2 -x,-y,1/2+z
3 1/2-x,1/2+y,1/2+z
4 1/2+x,1/2-y,z
_cell_length_a                   15.0914(2)
_cell_length_b                   16.7363(3)
_cell_length_c                   13.0708(3)
_cell_angle_alpha                90
_cell_angle_beta                 90
_cell_angle_gamma                90
_cell_volume                     3301.35
loop_
_atom_site_label
_atom_site_type_symbol
_atom_site_fract_x
_atom_site_fract_y
_atom_site_fract_z
Tb1 Tb -0.008413(17) 1.173004(17) 1.26756(4)
O1 O 0.0511(3) 1.1020(3) 1.1386(4)
O2 O 0.5309(3) 1.5460(2) 0.8307(4)
O3 O 0.8644(3) 0.8325(3) 0.8250(4)
O4 O -0.1915(4) 1.1946(3) 1.0337(5)
O5 O -0.1375(3) 1.1254(3) 1.1590(4)
O6 O -0.1066(3) 1.2494(3) 1.1472(4)
O7 O 0.1023(4) 1.3981(3) 1.2400(4)
O8 O 0.0759(3) 1.2817(3) 1.1733(4)
O9 O 0.0137(3) 1.3128(3) 1.3177(4)
O10 O -0.1418(3) 1.1936(3) 1.5414(4)
O11 O -0.0185(3) 1.1870(3) 1.4591(4)
O12 O -0.1411(3) 1.1938(3) 1.3776(4)
N1 N 0.2543(3) 1.0502(3) 0.9472(4)
N2 N 0.5302(3) 1.3118(3) 0.7398(4)
N3 N 0.6896(3) 0.9952(3) 0.9408(4)
N4 N -0.1459(4) 1.1895(3) 1.1086(6)
N5 N 0.0650(4) 1.3327(3) 1.2422(4)
N6 N -0.1000(3) 1.1927(3) 1.4616(5)
C1 C 0.4021(3) 1.0740(3) 0.8603(5)
C2 C 0.4689(4) 1.0461(3) 0.9247(5)
C3 C 0.5549(4) 1.0802(4) 0.9182(5)
C4 C 0.5723(4) 1.1387(3) 0.8429(5)
C5 C 0.5045(3) 1.1664(3) 0.7829(6)
C6 C 0.4172(3) 1.1365(3) 0.7918(5)
C7 C 0.4494(4) 0.9831(4) 1.0043(5)
H1 H 0.5012 0.9470 1.0101
H2 H 0.3983 0.9507 0.9813
C8 C 0.4287(5) 1.0182(5) 1.1103(6)
H3 H 0.4153 0.9747 1.1582
H4 H 0.3775 1.0539 1.1053
H5 H 0.4801 1.0482 1.1351
C9 C 0.6671(3) 1.1710(4) 0.8304(5)
H6 H 0.6980 1.1676 0.8970
H7 H 0.6642 1.2280 0.8106
C10 C 0.7216(3) 1.1248(4) 0.7490(5)
H8 H 0.7812 1.1477 0.7444
H9 H 0.6922 1.1290 0.6823
H10 H 0.7258 1.0684 0.7687
C11 C 0.3420(4) 1.1717(4) 0.7302(5)
H11 H 0.3544 1.2290 0.7177
H12 H 0.2867 1.1682 0.7707
C12 C 0.3278(5) 1.1299(4) 0.6274(6)
H13 H 0.2784 1.1553 0.5911
H14 H 0.3141 1.0734 0.6391
H15 H 0.3818 1.1343 0.5860
C13 C 0.3122(3) 1.0325(4) 0.8601(6)
H16 H 0.2807 1.0474 0.7965
H17 H 0.3223 0.9741 0.8579
C14 C 0.2452(4) 1.1252(4) 0.9825(5)
H18 H 0.2846 1.1656 0.9592
C15 C 0.1798(4) 1.1449(4) 1.0520(6)
H19 H 0.1756 1.1980 1.0773
C16 C 0.1189(4) 1.0862(4) 1.0857(6)
C17 C 0.1363(4) 1.0070(4) 1.0519(6)
H20 H 0.1011 0.9642 1.0770
C18 C 0.2011(4) 0.9919(4) 0.9858(6)
H21 H 0.2106 0.9383 0.9646
C19 C 0.5237(4) 1.2286(3) 0.7005(5)
H22 H 0.5800 1.2145 0.6662
H23 H 0.4761 1.2263 0.6485
C20 C 0.4959(4) 1.3340(3) 0.8303(6)
H24 H 0.4698 1.2940 0.8723
C21 C 0.4965(4) 1.4106(3) 0.8651(5)
H25 H 0.4732 1.4228 0.9307
C22 C 0.5325(4) 1.4728(4) 0.8024(5)
C23 C 0.5691(4) 1.4462(4) 0.7080(5)
H26 H 0.5956 1.4841 0.6633
C24 C 0.5672(4) 1.3678(4) 0.6802(5)
H27 H 0.5928 1.3523 0.6168
C25 C 0.6263(4) 1.0534(4) 0.9890(5)
H28 H 0.5988 1.0280 1.0497
H29 H 0.6598 1.1007 1.0129
C26 C 0.7774(4) 0.9991(4) 0.9655(5)
H30 H 0.7973 1.0406 1.0094
C27 C 0.8367(4) 0.9455(4) 0.9294(5)
H31 H 0.8971 0.9493 0.9496
C28 C 0.8101(4) 0.8839(4) 0.8620(5)
C29 C 0.7185(4) 0.8817(4) 0.8371(5)
H32 H 0.6968 0.8413 0.7925
C30 C 0.6611(4) 0.9368(4) 0.8766(5)
H33 H 0.6001 0.9343 0.8587
Tb1A Tb 1.008413(17) 0.826996(17) 0.76756(4)
Tb1B Tb 0.508413(17) 1.673004(17) 0.76756(4)
O2B O -0.0309(3) 1.0460(2) 1.3307(4)
O3A O 0.1356(3) 1.1675(3) 1.3250(4)
O13 O 0.1658(4) 1.2860(4) 1.5066(5)
H34 H 0.2224(19) 1.301(4) 1.484(4)
H35 H 0.130(4) 1.281(6) 1.447(4)
loop_
_geom_bond_atom_site_label_1
_geom_bond_atom_site_label_2
_geom_bond_site_symmetry_1
_geom_bond_site_symmetry_2
Tb1 O1 1_555 1_555
O1 C16 1_555 1_555
O2 C22 1_555 1_555
O3 C28 1_555 1_555
O4 N4 1_555 1_555
O5 Tb1 1_555 1_555
O6 Tb1 1_555 1_555
O7 N5 1_555 1_555
O8 Tb1 1_555 1_555
O9 Tb1 1_555 1_555
O10 N6 1_555 1_555
O11 Tb1 1_555 1_555
O12 Tb1 1_555 1_555
N1 C13 1_555 1_555
N2 C19 1_555 1_555
N3 C25 1_555 1_555
N4 O5 1_555 1_555
N5 O8 1_555 1_555
N6 O11 1_555 1_555
C1 C2 1_555 1_555
C2 C3 1_555 1_555
C3 C4 1_555 1_555
C4 C5 1_555 1_555
C5 C6 1_555 1_555
C6 C1 1_555 1_555
C7 C2 1_555 1_555
H1 C7 1_555 1_555
H2 C7 1_555 1_555
C8 C7 1_555 1_555
H3 C8 1_555 1_555
H4 C8 1_555 1_555
H5 C8 1_555 1_555
C9 C4 1_555 1_555
H6 C9 1_555 1_555
H7 C9 1_555 1_555
C10 C9 1_555 1_555
H8 C10 1_555 1_555
H9 C10 1_555 1_555
H10 C10 1_555 1_555
C11 C6 1_555 1_555
H11 C11 1_555 1_555
H12 C11 1_555 1_555
C12 C11 1_555 1_555
H13 C12 1_555 1_555
H14 C12 1_555 1_555
H15 C12 1_555 1_555
C13 C1 1_555 1_555
H16 C13 1_555 1_555
H17 C13 1_555 1_555
C14 N1 1_555 1_555
H18 C14 1_555 1_555
C15 C14 1_555 1_555
H19 C15 1_555 1_555
C16 C15 1_555 1_555
C17 C16 1_555 1_555
H20 C17 1_555 1_555
C18 N1 1_555 1_555
H21 C18 1_555 1_555
C19 C5 1_555 1_555
H22 C19 1_555 1_555
H23 C19 1_555 1_555
C20 N2 1_555 1_555
H24 C20 1_555 1_555
C21 C20 1_555 1_555
H25 C21 1_555 1_555
C22 C21 1_555 1_555
C23 C22 1_555 1_555
H26 C23 1_555 1_555
C24 N2 1_555 1_555
H27 C24 1_555 1_555
C25 C3 1_555 1_555
H28 C25 1_555 1_555
H29 C25 1_555 1_555
C26 N3 1_555 1_555
H30 C26 1_555 1_555
C27 C26 1_555 1_555
H31 C27 1_555 1_555
C28 C27 1_555 1_555
C29 C28 1_555 1_555
H32 C29 1_555 1_555
C30 N3 1_555 1_555
H33 C30 1_555 1_555
O13 H34 1_555 1_555
H35 O13 1_555 1_555
Tb1A O3 1_555 1_555
Tb1B O2 1_555 1_555
O2B Tb1 1_555 1_555
O3A Tb1 1_555 1_555
O6 N4 1_555 1_555
O9 N5 1_555 1_555
O12 N6 1_555 1_555
C17 C18 1_555 1_555
C23 C24 1_555 1_555
C29 C30 1_555 1_555

#END
