
#######################################################################
#
#                 Cambridge Crystallographic Data Centre
#                                CCDC 
#
#######################################################################
#
# If this CIF has been generated from an entry in the Cambridge 
# Structural Database, then it will include bibliographic, chemical, 
# crystal, experimental, refinement or atomic coordinate data resulting 
# from the CCDC's data processing and validation procedures.
#
#######################################################################

data_SOKCOM
_symmetry_cell_setting           triclinic
_symmetry_space_group_name_H-M   'P -1'
_symmetry_Int_Tables_number      2
_space_group_name_Hall           '-P 1'
loop_
_symmetry_equiv_pos_site_id
_symmetry_equiv_pos_as_xyz
1 x,y,z
2 -x,-y,-z
_cell_length_a                   9.572(2)
_cell_length_b                   14.718(4)
_cell_length_c                   19.571(5)
_cell_angle_alpha                73.658(3)
_cell_angle_beta                 77.093(3)
_cell_angle_gamma                80.260(3)
_cell_volume                     2562.22
loop_
_atom_site_label
_atom_site_type_symbol
_atom_site_fract_x
_atom_site_fract_y
_atom_site_fract_z
Zn1 Zn 0.72721(5) 0.12622(4) 0.45317(3)
Zn2 Zn 0.73997(5) -0.11572(4) 1.04875(3)
O1 O 0.5570(3) -0.1730(3) 1.19437(17)
O2 O 0.5458(3) -0.1543(2) 1.08072(15)
O3 O 0.9286(3) 0.1573(2) 0.42250(15)
O4 O 0.9126(4) 0.1704(3) 0.30953(19)
O5 O 0.7707(3) -0.01440(19) 0.43967(14)
H1 H 0.7582 -0.0083 0.3969
H2 H 0.7161 -0.0555 0.4667
O6 O 0.7348(3) 0.0158(2) 1.06216(15)
H3 H 0.7888 0.0542 1.0310
H4 H 0.7341 0.0208 1.1044
O7 O -0.1144(3) -0.1914(2) 1.10006(16)
O8 O 0.0536(3) -0.1134(2) 1.01749(17)
O9 O 1.6010(3) 0.1731(2) 0.38072(17)
O10 O 1.4333(3) 0.1183(2) 0.47328(16)
N1 N 0.7504(4) -0.0869(3) 0.93927(17)
N2 N 0.7213(3) 0.0727(2) 0.56402(17)
N3 N 0.6452(4) 0.2684(3) 0.4807(2)
N4 N 0.0820(4) -0.3252(3) 1.3245(2)
H5 H -0.0067 -0.3355 1.3320
N5 N 1.3580(4) 0.3244(3) 0.1654(2)
H6 H 1.3055 0.3286 0.1340
C1 C 0.1094(4) -0.1942(3) 1.1329(2)
C2 C 0.2526(4) -0.1716(3) 1.1151(2)
H7 H 0.2897 -0.1396 1.0679
C3 C 0.3376(4) -0.1965(3) 1.1670(2)
C4 C 0.2838(5) -0.2471(3) 1.2381(2)
H8 H 0.3413 -0.2638 1.2733
C5 C 0.1425(5) -0.2719(3) 1.2553(2)
C6 C 0.0565(5) -0.2446(3) 1.2021(2)
H9 H -0.0373 -0.2607 1.2137
C7 C 0.1581(5) -0.3625(3) 1.3819(2)
H10 H 0.1723 -0.3115 1.4012
H11 H 0.2520 -0.3934 1.3647
C8 C 0.0702(5) -0.4353(3) 1.4416(2)
C9 C -0.0361(4) -0.4019(3) 1.4947(2)
C10 C 0.1017(5) -0.5331(3) 1.4457(2)
C11 C 1.5491(5) 0.4025(3) 0.0076(2)
C12 C 1.4339(5) 0.5329(4) 0.0610(2)
C13 C 1.4873(5) 0.4378(3) 0.0688(2)
C14 C 1.4843(5) 0.3695(3) 0.1443(2)
H12 H 1.5680 0.3220 0.1435
H13 H 1.4877 0.4046 0.1789
C15 C 1.3162(5) 0.2722(3) 0.2377(2)
C16 C 1.4126(4) 0.2420(3) 0.2853(2)
H14 H 1.5082 0.2547 0.2697
C17 C 1.3647(4) 0.1924(3) 0.3571(2)
C18 C 1.2240(4) 0.1732(3) 0.3804(2)
H15 H 1.1918 0.1428 0.4286
C19 C 1.1295(4) 0.1995(3) 0.3313(2)
C20 C 1.1761(5) 0.2487(3) 0.2606(2)
H16 H 1.1129 0.2661 0.2280
C21 C 0.8465(4) 0.0640(3) 0.5872(2)
H17 H 0.9295 0.0791 0.5532
C22 C 0.8557(4) 0.0336(3) 0.6598(2)
H18 H 0.9438 0.0286 0.6740
C23 C 0.7330(4) 0.0105(3) 0.7115(2)
C24 C 0.6056(5) 0.0192(3) 0.6870(2)
H19 H 0.5207 0.0047 0.7197
C25 C 0.6056(4) 0.0490(3) 0.6153(2)
H20 H 0.5185 0.0535 0.6003
C26 C 0.7428(4) -0.0264(3) 0.7912(2)
C27 C 0.8685(5) -0.0391(4) 0.8155(2)
H21 H 0.9541 -0.0275 0.7825
C28 C 0.8702(5) -0.0698(4) 0.8901(3)
H22 H 0.9576 -0.0784 0.9056
C29 C 0.6276(5) -0.0761(3) 0.9155(2)
H23 H 0.5434 -0.0895 0.9491
C30 C 0.6199(4) -0.0461(3) 0.8436(2)
H24 H 0.5312 -0.0389 0.8295
C31 C 0.5153(6) 0.2861(4) 0.5182(3)
H25 H 0.4618 0.2351 0.5412
C32 C 0.4549(6) 0.3746(4) 0.5254(3)
H26 H 0.3608 0.3827 0.5503
C33 C 0.5313(5) 0.4512(3) 0.4963(3)
C34 C 0.6683(6) 0.4331(4) 0.4609(3)
H27 H 0.7262 0.4824 0.4406
C35 C 0.7217(6) 0.3420(4) 0.4550(3)
H28 H 0.8167 0.3316 0.4317
C36 C 0.0123(5) -0.1641(3) 1.0786(3)
C37 C 0.4904(5) -0.1737(3) 1.1478(2)
C38 C 1.4714(5) 0.1583(3) 0.4087(3)
C39 C 0.9783(4) 0.1752(3) 0.3557(3)
C40 C 0.2109(6) -0.5675(4) 1.3861(3)
H29 H 0.2999 -0.5929 1.4029
H30 H 0.2277 -0.5150 1.3442
H31 H 0.1740 -0.6162 1.3736
C41 C -0.0784(5) -0.2964(3) 1.4857(3)
H32 H -0.1817 -0.2834 1.4942
H33 H -0.0395 -0.2627 1.4373
H34 H -0.0410 -0.2758 1.5198
C42 C 1.3633(6) 0.5709(4) 0.1267(3)
H35 H 1.4327 0.5992 0.1403
H36 H 1.3289 0.5194 0.1662
H37 H 1.2838 0.6179 0.1150
C43 C 1.5967(5) 0.2965(3) 0.0152(2)
H38 H 1.5572 0.2753 -0.0178
H39 H 1.5627 0.2617 0.0640
H40 H 1.7001 0.2859 0.0043
O1A O -0.5570(3) -0.8270(3) 1.80563(17)
O2A O -0.5458(3) -0.8457(2) 1.91928(15)
O7A O 0.1144(3) -0.8086(2) 1.89994(16)
O8A O -0.0536(3) -0.8866(2) 1.98251(17)
N4A N -0.0820(4) -0.6748(3) 1.6755(2)
H5A H 0.0067 -0.6645 1.6680
C1A C -0.1094(4) -0.8058(3) 1.8671(2)
C2A C -0.2526(4) -0.8284(3) 1.8849(2)
H7A H -0.2897 -0.8604 1.9321
C3A C -0.3376(4) -0.8035(3) 1.8330(2)
C4A C -0.2838(5) -0.7529(3) 1.7619(2)
H8A H -0.3413 -0.7362 1.7267
C5A C -0.1425(5) -0.7281(3) 1.7447(2)
C6A C -0.0565(5) -0.7554(3) 1.7979(2)
H9A H 0.0373 -0.7393 1.7863
C7A C -0.1581(5) -0.6375(3) 1.6181(2)
H10A H -0.1723 -0.6885 1.5988
H11A H -0.2520 -0.6066 1.6353
C8A C -0.0702(5) -0.5647(3) 1.5584(2)
C9A C 0.0361(4) -0.5981(3) 1.5053(2)
C10A C -0.1017(5) -0.4669(3) 1.5543(2)
C36A C -0.0123(5) -0.8359(3) 1.9214(3)
C37A C -0.4904(5) -0.8263(3) 1.8522(2)
C40A C -0.2109(6) -0.4325(4) 1.6139(3)
H29A H -0.2999 -0.4071 1.5971
H30A H -0.2277 -0.4850 1.6558
H31A H -0.1740 -0.3838 1.6264
C41A C 0.0784(5) -0.7036(3) 1.5143(3)
H32A H 0.1817 -0.7166 1.5058
H33A H 0.0395 -0.7373 1.5627
H34A H 0.0410 -0.7242 1.4802
O3A O 2.0714(3) 0.8427(2) -0.42250(15)
O4A O 2.0874(4) 0.8296(3) -0.30953(19)
O9A O 1.3990(3) 0.8269(2) -0.38072(17)
O10A O 1.5667(3) 0.8817(2) -0.47328(16)
N5A N 1.6420(4) 0.6756(3) -0.1654(2)
H6A H 1.6945 0.6714 -0.1340
C11A C 1.4509(5) 0.5975(3) -0.0076(2)
C12A C 1.5661(5) 0.4671(4) -0.0610(2)
C13A C 1.5127(5) 0.5622(3) -0.0688(2)
C14A C 1.5157(5) 0.6305(3) -0.1443(2)
H12A H 1.4320 0.6780 -0.1435
H13A H 1.5123 0.5954 -0.1789
C15A C 1.6838(5) 0.7278(3) -0.2377(2)
C16A C 1.5874(4) 0.7580(3) -0.2853(2)
H14A H 1.4918 0.7453 -0.2697
C17A C 1.6353(4) 0.8076(3) -0.3571(2)
C18A C 1.7760(4) 0.8268(3) -0.3804(2)
H15A H 1.8082 0.8572 -0.4286
C19A C 1.8705(4) 0.8005(3) -0.3313(2)
C20A C 1.8239(5) 0.7513(3) -0.2606(2)
H16A H 1.8871 0.7339 -0.2280
C38A C 1.5286(5) 0.8417(3) -0.4087(3)
C39A C 2.0217(4) 0.8248(3) -0.3557(3)
C42A C 1.6367(6) 0.4291(4) -0.1267(3)
H35A H 1.5673 0.4008 -0.1403
H36A H 1.6711 0.4806 -0.1662
H37A H 1.7162 0.3821 -0.1150
C43A C 1.4033(5) 0.7035(3) -0.0152(2)
H38A H 1.4428 0.7247 0.0178
H39A H 1.4373 0.7383 -0.0640
H40A H 1.2999 0.7141 -0.0043
N3A N 0.3548(4) 0.7316(3) 0.5193(2)
C31A C 0.4847(6) 0.7139(4) 0.4818(3)
H25A H 0.5382 0.7649 0.4588
C32A C 0.5451(6) 0.6254(4) 0.4746(3)
H26A H 0.6392 0.6173 0.4497
C33A C 0.4687(5) 0.5488(3) 0.5037(3)
C34A C 0.3317(6) 0.5669(4) 0.5391(3)
H27A H 0.2738 0.5176 0.5594
C35A C 0.2783(6) 0.6580(4) 0.5450(3)
H28A H 0.1833 0.6684 0.5683
Zn1A Zn -0.72721(5) -1.12622(4) 2.54683(3)
Zn2A Zn -0.73997(5) -0.88428(4) 1.95125(3)
O5A O -0.7707(3) -0.98560(19) 2.56033(14)
H1A H -0.7582 -0.9917 2.6031
H2A H -0.7161 -0.9445 2.5333
O6A O -0.7348(3) -1.0158(2) 1.93784(15)
H3A H -0.7888 -1.0542 1.9690
H4A H -0.7341 -1.0208 1.8956
N1A N -0.7504(4) -0.9131(3) 2.06073(17)
N2A N -0.7213(3) -1.0727(2) 2.43598(17)
C21A C -0.8465(4) -1.0640(3) 2.4128(2)
H17A H -0.9295 -1.0791 2.4468
C22A C -0.8557(4) -1.0336(3) 2.3402(2)
H18A H -0.9438 -1.0286 2.3260
C23A C -0.7330(4) -1.0105(3) 2.2885(2)
C24A C -0.6056(5) -1.0192(3) 2.3130(2)
H19A H -0.5207 -1.0047 2.2803
C25A C -0.6056(4) -1.0490(3) 2.3847(2)
H20A H -0.5185 -1.0535 2.3997
C26A C -0.7428(4) -0.9736(3) 2.2088(2)
C27A C -0.8685(5) -0.9609(4) 2.1845(2)
H21A H -0.9541 -0.9725 2.2175
C28A C -0.8702(5) -0.9302(4) 2.1099(3)
H22A H -0.9576 -0.9216 2.0944
C29A C -0.6276(5) -0.9239(3) 2.0845(2)
H23A H -0.5434 -0.9105 2.0509
C30A C -0.6199(4) -0.9539(3) 2.1564(2)
H24A H -0.5312 -0.9611 2.1705
Zn1_2 Zn 1.72721(5) 0.12622(4) 0.45317(3)
Zn1A_2 Zn 0.27279(5) 0.87378(4) 0.54683(3)
Zn1A_3 Zn 1.27279(5) 0.87378(4) -0.45317(3)
Zn1A_4 Zn 2.27279(5) 0.87378(4) -0.45317(3)
Zn2_2 Zn -0.26003(5) -0.11572(4) 1.04875(3)
Zn2A_2 Zn 0.26003(5) -0.88428(4) 1.95125(3)
O3A_2 O -0.9286(3) -1.1573(2) 2.57750(15)
O7_2 O 0.8856(3) -0.1914(2) 1.10006(16)
O7A_2 O -0.8856(3) -0.8086(2) 1.89994(16)
O9_2 O 0.6010(3) 0.1731(2) 0.38072(17)
O9A_2 O -0.6010(3) -1.1731(2) 2.61928(17)
N3A_2 N -0.6452(4) -1.2684(3) 2.5193(2)
loop_
_geom_bond_atom_site_label_1
_geom_bond_atom_site_label_2
_geom_bond_site_symmetry_1
_geom_bond_site_symmetry_2
Zn1 O3 1_555 1_555
Zn2 O2 1_555 1_555
O1 C37 1_555 1_555
O2 C37 1_555 1_555
O3 C39 1_555 1_555
O4 C39 1_555 1_555
O5 Zn1 1_555 1_555
H1 O5 1_555 1_555
H2 O5 1_555 1_555
O6 Zn2 1_555 1_555
H3 O6 1_555 1_555
H4 O6 1_555 1_555
O7 C36 1_555 1_555
O8 C36 1_555 1_555
O9 C38 1_555 1_555
O10 C38 1_555 1_555
N1 Zn2 1_555 1_555
N2 Zn1 1_555 1_555
N3 Zn1 1_555 1_555
N4 H5 1_555 1_555
N5 H6 1_555 1_555
C1 C2 1_555 1_555
C2 H7 1_555 1_555
C3 C2 1_555 1_555
C4 C3 1_555 1_555
H8 C4 1_555 1_555
C5 N4 1_555 1_555
C6 C1 1_555 1_555
H9 C6 1_555 1_555
C7 N4 1_555 1_555
H10 C7 1_555 1_555
H11 C7 1_555 1_555
C8 C7 1_555 1_555
C9 C8 1_555 1_555
C10 C8 1_555 1_555
C11 C13 1_555 1_555
C12 C13 1_555 1_555
C13 C14 1_555 1_555
C14 N5 1_555 1_555
H12 C14 1_555 1_555
H13 C14 1_555 1_555
C15 N5 1_555 1_555
C16 C15 1_555 1_555
H14 C16 1_555 1_555
C17 C16 1_555 1_555
C18 C17 1_555 1_555
H15 C18 1_555 1_555
C19 C18 1_555 1_555
C20 C15 1_555 1_555
H16 C20 1_555 1_555
C21 N2 1_555 1_555
H17 C21 1_555 1_555
C22 C21 1_555 1_555
H18 C22 1_555 1_555
C23 C22 1_555 1_555
C24 C23 1_555 1_555
H19 C24 1_555 1_555
C25 N2 1_555 1_555
H20 C25 1_555 1_555
C26 C23 1_555 1_555
C27 C26 1_555 1_555
H21 C27 1_555 1_555
C28 N1 1_555 1_555
H22 C28 1_555 1_555
C29 N1 1_555 1_555
H23 C29 1_555 1_555
C30 C26 1_555 1_555
H24 C30 1_555 1_555
C31 N3 1_555 1_555
H25 C31 1_555 1_555
C32 C31 1_555 1_555
H26 C32 1_555 1_555
C33 C32 1_555 1_555
C34 C33 1_555 1_555
H27 C34 1_555 1_555
C35 N3 1_555 1_555
H28 C35 1_555 1_555
C36 C1 1_555 1_555
C37 C3 1_555 1_555
C38 C17 1_555 1_555
C39 C19 1_555 1_555
C40 C10 1_555 1_555
H29 C40 1_555 1_555
H30 C40 1_555 1_555
H31 C40 1_555 1_555
C41 C9 1_555 1_555
H32 C41 1_555 1_555
H33 C41 1_555 1_555
H34 C41 1_555 1_555
C42 C12 1_555 1_555
H35 C42 1_555 1_555
H36 C42 1_555 1_555
H37 C42 1_555 1_555
C43 C11 1_555 1_555
H38 C43 1_555 1_555
H39 C43 1_555 1_555
H40 C43 1_555 1_555
O1A C37A 1_555 1_555
O2A C37A 1_555 1_555
O7A C36A 1_555 1_555
O8A C36A 1_555 1_555
N4A H5A 1_555 1_555
C1A C2A 1_555 1_555
C2A H7A 1_555 1_555
C3A C2A 1_555 1_555
C4A C3A 1_555 1_555
H8A C4A 1_555 1_555
C5A N4A 1_555 1_555
C6A C1A 1_555 1_555
H9A C6A 1_555 1_555
C7A N4A 1_555 1_555
H10A C7A 1_555 1_555
H11A C7A 1_555 1_555
C8A C7A 1_555 1_555
C9A C10 1_555 1_555
C10A C9 1_555 1_555
C36A C1A 1_555 1_555
C37A C3A 1_555 1_555
C40A C10A 1_555 1_555
H29A C40A 1_555 1_555
H30A C40A 1_555 1_555
H31A C40A 1_555 1_555
C41A C9A 1_555 1_555
H32A C41A 1_555 1_555
H33A C41A 1_555 1_555
H34A C41A 1_555 1_555
O3A C39A 1_555 1_555
O4A C39A 1_555 1_555
O9A C38A 1_555 1_555
O10A C38A 1_555 1_555
N5A H6A 1_555 1_555
C11A C12 1_555 1_555
C12A C11 1_555 1_555
C13A C11A 1_555 1_555
C14A N5A 1_555 1_555
H12A C14A 1_555 1_555
H13A C14A 1_555 1_555
C15A N5A 1_555 1_555
C16A C15A 1_555 1_555
H14A C16A 1_555 1_555
C17A C16A 1_555 1_555
C18A C17A 1_555 1_555
H15A C18A 1_555 1_555
C19A C18A 1_555 1_555
C20A C15A 1_555 1_555
H16A C20A 1_555 1_555
C38A C17A 1_555 1_555
C39A C19A 1_555 1_555
C42A C12A 1_555 1_555
H35A C42A 1_555 1_555
H36A C42A 1_555 1_555
H37A C42A 1_555 1_555
C43A C11A 1_555 1_555
H38A C43A 1_555 1_555
H39A C43A 1_555 1_555
H40A C43A 1_555 1_555
N3A C31A 1_555 1_555
C31A H25A 1_555 1_555
C32A C31A 1_555 1_555
H26A C32A 1_555 1_555
C33A C33 1_555 1_555
C34A C33A 1_555 1_555
H27A C34A 1_555 1_555
C35A N3A 1_555 1_555
H28A C35A 1_555 1_555
Zn1A O5A 1_555 1_555
Zn2A O2A 1_555 1_555
O5A H1A 1_555 1_555
H2A O5A 1_555 1_555
O6A Zn2A 1_555 1_555
H3A O6A 1_555 1_555
H4A O6A 1_555 1_555
N1A Zn2A 1_555 1_555
N2A Zn1A 1_555 1_555
C21A N2A 1_555 1_555
H17A C21A 1_555 1_555
C22A C21A 1_555 1_555
H18A C22A 1_555 1_555
C23A C22A 1_555 1_555
C24A C23A 1_555 1_555
H19A C24A 1_555 1_555
C25A N2A 1_555 1_555
H20A C25A 1_555 1_555
C26A C23A 1_555 1_555
C27A C26A 1_555 1_555
H21A C27A 1_555 1_555
C28A N1A 1_555 1_555
H22A C28A 1_555 1_555
C29A N1A 1_555 1_555
H23A C29A 1_555 1_555
C30A C26A 1_555 1_555
H24A C30A 1_555 1_555
Zn1_2 O9 1_555 1_555
Zn1A_2 N3A 1_555 1_555
Zn1A_3 O9A 1_555 1_555
Zn1A_4 O3A 1_555 1_555
Zn2_2 O7 1_555 1_555
Zn2A_2 O7A 1_555 1_555
O3A_2 Zn1A 1_555 1_555
O7_2 Zn2 1_555 1_555
O7A_2 Zn2A 1_555 1_555
O9_2 Zn1 1_555 1_555
O9A_2 Zn1A 1_555 1_555
N3A_2 Zn1A 1_555 1_555
C4 C5 1_555 1_555
C5 C6 1_555 1_555
C19 C20 1_555 1_555
C24 C25 1_555 1_555
C27 C28 1_555 1_555
C29 C30 1_555 1_555
C34 C35 1_555 1_555
C4A C5A 1_555 1_555
C5A C6A 1_555 1_555
C8A C9A 1_555 1_555
C8A C10A 1_555 1_555
C12A C13A 1_555 1_555
C13A C14A 1_555 1_555
C19A C20A 1_555 1_555
C32A C33A 1_555 1_555
C34A C35A 1_555 1_555
C24A C25A 1_555 1_555
C27A C28A 1_555 1_555
C29A C30A 1_555 1_555

#END
