
#######################################################################
#
#                 Cambridge Crystallographic Data Centre
#                                CCDC 
#
#######################################################################
#
# If this CIF has been generated from an entry in the Cambridge 
# Structural Database, then it will include bibliographic, chemical, 
# crystal, experimental, refinement or atomic coordinate data resulting 
# from the CCDC's data processing and validation procedures.
#
#######################################################################

data_SOKCUS
_symmetry_cell_setting           triclinic
_symmetry_space_group_name_H-M   'P -1'
_symmetry_Int_Tables_number      2
_space_group_name_Hall           '-P 1'
loop_
_symmetry_equiv_pos_site_id
_symmetry_equiv_pos_as_xyz
1 x,y,z
2 -x,-y,-z
_cell_length_a                   9.000(3)
_cell_length_b                   10.197(3)
_cell_length_c                   18.109(4)
_cell_angle_alpha                100.459(7)
_cell_angle_beta                 90.851(9)
_cell_angle_gamma                106.781(8)
_cell_volume                     1560.71
loop_
_atom_site_label
_atom_site_type_symbol
_atom_site_fract_x
_atom_site_fract_y
_atom_site_fract_z
O1 O 0.8134(17) 0.2488(15) 0.3964(9)
C1 C 0.928(2) 0.289(2) 0.4444(11)
H1 H 1.0327 0.2977 0.4325
N1 N 0.884(2) 0.3180(18) 0.5150(10)
C2 C 1.005(3) 0.375(3) 0.5788(12)
H2 H 0.9553 0.3897 0.6260
H3 H 1.0759 0.4634 0.5712
H4 H 1.0637 0.3079 0.5810
C3 C 0.729(2) 0.307(3) 0.5338(14)
H5 H 0.7274 0.3334 0.5885
H6 H 0.6637 0.2106 0.5167
H7 H 0.6897 0.3695 0.5092
C4 C 0.5414(10) 0.8998(10) 0.3137(5)
C5 C 0.4952(10) 1.0013(8) 0.2836(5)
H8 H 0.5317 1.0963 0.3085
C6 C 0.3971(10) 0.9656(10) 0.2181(5)
C7 C 0.3393(10) 0.8222(10) 0.1822(4)
H9 H 0.2751 0.7958 0.1367
C8 C 0.3773(10) 0.7229(9) 0.2139(5)
C9 C 0.4776(10) 0.7625(9) 0.2792(5)
H10 H 0.5024 0.6921 0.3004
C10 C 0.7289(13) 0.8489(11) 0.3948(6)
H11 H 0.7608 0.8002 0.3482
H12 H 0.6598 0.7776 0.4195
C11 C 1.0160(12) 0.9856(12) 0.4237(5)
C12 C 0.8762(13) 0.9323(13) 0.4487(5)
C13 C 0.8523(12) 0.9447(13) 0.5277(5)
C14 C 1.0325(15) 0.9787(14) 0.3377(6)
H13 H 0.9310 0.9306 0.3103
H14 H 1.1067 0.9275 0.3209
H15 H 1.0702 1.0736 0.3277
C15 C 0.6917(14) 0.8822(17) 0.5561(8)
H16 H 0.6147 0.8411 0.5130
H17 H 0.6612 0.9559 0.5892
H18 H 0.6968 0.8097 0.5841
C16 C 0.3593(11) 1.0748(10) 0.1806(6)
C17 C 0.3198(10) 0.5716(9) 0.1715(5)
C18 C -0.0039(11) 0.1761(9) 0.0709(5)
C19 C -0.1661(12) 0.1274(11) 0.0642(6)
H19 H -0.2203 0.0968 0.0159
C20 C -0.2475(11) 0.1237(10) 0.1285(7)
H20 H -0.3580 0.0909 0.1246
C21 C -0.1653(13) 0.1690(12) 0.1993(7)
H21 H -0.2183 0.1689 0.2443
C22 C -0.0035(13) 0.2140(11) 0.2016(6)
H22 H 0.0537 0.2425 0.2492
C23 C 0.0909(10) 0.1913(9) 0.0070(5)
C24 C 0.0279(11) 0.1477(10) -0.0689(5)
H23 H -0.0809 0.1066 -0.0803
C25 C 0.1267(12) 0.1660(10) -0.1252(5)
H24 H 0.0864 0.1385 -0.1763
C26 C 0.2857(13) 0.2245(11) -0.1081(6)
H25 H 0.3541 0.2375 -0.1474
C27 C 0.3423(11) 0.2626(11) -0.0362(6)
H26 H 0.4514 0.3022 -0.0255
C28 C 0.6623(13) 0.4296(12) 0.1594(6)
H27 H 0.6349 0.4390 0.2101
C29 C 0.8561(13) 0.4716(11) 0.0671(6)
H28 H 0.9674 0.5200 0.0674
H29 H 0.7966 0.5137 0.0377
H30 H 0.8359 0.3728 0.0444
C30 C 0.9230(12) 0.5499(12) 0.2101(6)
H31 H 1.0246 0.5876 0.1908
H32 H 0.9290 0.4803 0.2399
H33 H 0.8935 0.6258 0.2417
N2 N 0.6444(9) 0.9419(8) 0.3759(4)
H34 H 0.6596 1.0250 0.4043
N3 N 0.0742(8) 0.2187(8) 0.1394(5)
N4 N 0.2501(9) 0.2470(8) 0.0223(4)
N5 N 0.8070(9) 0.4846(9) 0.1472(5)
O2 O 0.3184(8) 1.0461(7) 0.1128(4)
O3 O 0.3816(8) 1.1944(6) 0.2214(4)
O4 O 0.3486(8) 0.4807(7) 0.2066(4)
O5 O 0.2540(9) 0.5434(7) 0.1095(4)
O6 O 0.5540(8) 0.3636(8) 0.1077(4)
Zn1 Zn 0.32300(13) 0.29531(13) 0.13742(7)
C4A C 1.4586(10) 1.1002(10) 0.6863(5)
C5A C 1.5048(10) 0.9987(8) 0.7164(5)
H8A H 1.4683 0.9037 0.6915
C6A C 1.6029(10) 1.0344(10) 0.7819(5)
C7A C 1.6607(10) 1.1778(10) 0.8178(4)
H9A H 1.7249 1.2042 0.8633
C8A C 1.6227(10) 1.2771(9) 0.7861(5)
C9A C 1.5224(10) 1.2375(9) 0.7208(5)
H10A H 1.4976 1.3079 0.6996
C10A C 1.2711(13) 1.1511(11) 0.6052(6)
H11A H 1.2392 1.1998 0.6518
H12A H 1.3402 1.2224 0.5805
C11A C 0.9840(12) 1.0144(12) 0.5763(5)
C12A C 1.1238(13) 1.0677(13) 0.5513(5)
C13A C 1.1477(12) 1.0553(13) 0.4723(5)
C14A C 0.9675(15) 1.0213(14) 0.6623(6)
H13A H 1.0690 1.0694 0.6897
H14A H 0.8933 1.0725 0.6791
H15A H 0.9298 0.9264 0.6723
C15A C 1.3083(14) 1.1178(17) 0.4439(8)
H16A H 1.3853 1.1589 0.4870
H17A H 1.3388 1.0441 0.4108
H18A H 1.3032 1.1903 0.4159
C16A C 1.6407(11) 0.9252(10) 0.8194(6)
C17A C 1.6802(10) 1.4284(9) 0.8285(5)
N2A N 1.3556(9) 1.0581(8) 0.6241(4)
H34A H 1.3404 0.9750 0.5957
O2A O 1.6816(8) 0.9539(7) 0.8872(4)
O3A O 1.6184(8) 0.8056(6) 0.7786(4)
O4A O 1.6514(8) 1.5193(7) 0.7934(4)
O5A O 1.7460(9) 1.4566(7) 0.8905(4)
C18A C 2.0039(11) 0.8239(9) 0.9291(5)
C19A C 2.1661(12) 0.8726(11) 0.9358(6)
H19A H 2.2203 0.9032 0.9841
C20A C 2.2475(11) 0.8763(10) 0.8715(7)
H20A H 2.3580 0.9091 0.8754
C21A C 2.1653(13) 0.8310(12) 0.8007(7)
H21A H 2.2183 0.8311 0.7557
C22A C 2.0035(13) 0.7860(11) 0.7984(6)
H22A H 1.9463 0.7575 0.7508
C23A C 1.9091(10) 0.8087(9) 0.9930(5)
C24A C 1.9721(11) 0.8523(10) 1.0689(5)
H23A H 2.0809 0.8934 1.0803
C25A C 1.8733(12) 0.8340(10) 1.1252(5)
H24A H 1.9136 0.8615 1.1763
C26A C 1.7143(13) 0.7755(11) 1.1081(6)
H25A H 1.6459 0.7625 1.1474
C27A C 1.6577(11) 0.7374(11) 1.0362(6)
H26A H 1.5486 0.6978 1.0255
C28A C 1.3377(13) 0.5704(12) 0.8406(6)
H27A H 1.3651 0.5610 0.7899
C29A C 1.1439(13) 0.5284(11) 0.9329(6)
H28A H 1.0326 0.4800 0.9326
H29A H 1.2034 0.4863 0.9623
H30A H 1.1641 0.6272 0.9556
C30A C 1.0770(12) 0.4501(12) 0.7899(6)
H31A H 0.9754 0.4124 0.8092
H32A H 1.0710 0.5197 0.7601
H33A H 1.1065 0.3742 0.7583
N3A N 1.9258(8) 0.7813(8) 0.8606(5)
N4A N 1.7499(9) 0.7530(8) 0.9777(4)
N5A N 1.1930(9) 0.5154(9) 0.8528(5)
O6A O 1.4460(8) 0.6364(8) 0.8923(4)
Zn1A Zn 1.67700(13) 0.70469(13) 0.86258(7)
O2_2 O 0.3184(8) 0.0461(7) 0.1128(4)
O3_2 O 0.3816(8) 0.1944(6) 0.2214(4)
O4A_2 O 1.6514(8) 0.5193(7) 0.7934(4)
Zn1_2 Zn 0.32300(13) 1.29531(13) 0.13742(7)
Zn1A_2 Zn 1.67700(13) 1.70469(13) 0.86258(7)
O7 O 0.671(3) 0.597(3) 0.6432(13)
H35 H 0.7063 0.6719 0.6660
H36 H 0.6702 0.5454 0.6755
O8 O 0.623(3) 0.417(3) 0.3515(12)
H37 H 0.5364 0.4167 0.3671
H38 H 0.6590 0.3579 0.3677
loop_
_geom_bond_atom_site_label_1
_geom_bond_atom_site_label_2
_geom_bond_site_symmetry_1
_geom_bond_site_symmetry_2
O1 C1 1_555 1_555
C1 H1 1_555 1_555
N1 C1 1_555 1_555
C2 N1 1_555 1_555
H2 C2 1_555 1_555
H3 C2 1_555 1_555
H4 C2 1_555 1_555
C3 N1 1_555 1_555
H5 C3 1_555 1_555
H6 C3 1_555 1_555
H7 C3 1_555 1_555
C4 C5 1_555 1_555
C5 H8 1_555 1_555
C6 C5 1_555 1_555
C7 C6 1_555 1_555
H9 C7 1_555 1_555
C8 C7 1_555 1_555
C9 C4 1_555 1_555
H10 C9 1_555 1_555
C10 H11 1_555 1_555
H12 C10 1_555 1_555
C11 C12 1_555 1_555
C12 C10 1_555 1_555
C13 C12 1_555 1_555
C14 C11 1_555 1_555
H13 C14 1_555 1_555
H14 C14 1_555 1_555
H15 C14 1_555 1_555
C15 C13 1_555 1_555
H16 C15 1_555 1_555
H17 C15 1_555 1_555
H18 C15 1_555 1_555
C16 C6 1_555 1_555
C17 C8 1_555 1_555
C18 C19 1_555 1_555
C19 H19 1_555 1_555
C20 C19 1_555 1_555
H20 C20 1_555 1_555
C21 C20 1_555 1_555
H21 C21 1_555 1_555
C22 C21 1_555 1_555
H22 C22 1_555 1_555
C23 C18 1_555 1_555
C24 C23 1_555 1_555
H23 C24 1_555 1_555
C25 C24 1_555 1_555
H24 C25 1_555 1_555
C26 C25 1_555 1_555
H25 C26 1_555 1_555
C27 C26 1_555 1_555
H26 C27 1_555 1_555
C28 H27 1_555 1_555
C29 H28 1_555 1_555
H29 C29 1_555 1_555
H30 C29 1_555 1_555
C30 H31 1_555 1_555
H32 C30 1_555 1_555
H33 C30 1_555 1_555
N2 C4 1_555 1_555
H34 N2 1_555 1_555
N3 C18 1_555 1_555
N4 C23 1_555 1_555
N5 C28 1_555 1_555
O2 C16 1_555 1_555
O3 C16 1_555 1_555
O4 C17 1_555 1_555
O5 C17 1_555 1_555
O6 C28 1_555 1_555
Zn1 N3 1_555 1_555
O7 H35 1_555 1_555
H36 O7 1_555 1_555
O8 H37 1_555 1_555
H38 O8 1_555 1_555
C4A C5A 1_555 1_555
C5A H8A 1_555 1_555
C6A C5A 1_555 1_555
C7A C6A 1_555 1_555
H9A C7A 1_555 1_555
C8A C7A 1_555 1_555
C9A C4A 1_555 1_555
H10A C9A 1_555 1_555
C10A H11A 1_555 1_555
H12A C10A 1_555 1_555
C11A C13 1_555 1_555
C12A C10A 1_555 1_555
C13A C11 1_555 1_555
C14A C11A 1_555 1_555
H13A C14A 1_555 1_555
H14A C14A 1_555 1_555
H15A C14A 1_555 1_555
C15A C13A 1_555 1_555
H16A C15A 1_555 1_555
H17A C15A 1_555 1_555
H18A C15A 1_555 1_555
C16A C6A 1_555 1_555
C17A C8A 1_555 1_555
N2A C4A 1_555 1_555
H34A N2A 1_555 1_555
O2A C16A 1_555 1_555
O3A C16A 1_555 1_555
O4A C17A 1_555 1_555
O5A C17A 1_555 1_555
C18A C19A 1_555 1_555
C19A H19A 1_555 1_555
C20A C19A 1_555 1_555
H20A C20A 1_555 1_555
C21A C20A 1_555 1_555
H21A C21A 1_555 1_555
C22A C21A 1_555 1_555
H22A C22A 1_555 1_555
C23A C18A 1_555 1_555
C24A C23A 1_555 1_555
H23A C24A 1_555 1_555
C25A C24A 1_555 1_555
H24A C25A 1_555 1_555
C26A C25A 1_555 1_555
H25A C26A 1_555 1_555
C27A C26A 1_555 1_555
H26A C27A 1_555 1_555
C28A H27A 1_555 1_555
C29A H28A 1_555 1_555
H29A C29A 1_555 1_555
H30A C29A 1_555 1_555
C30A H31A 1_555 1_555
H32A C30A 1_555 1_555
H33A C30A 1_555 1_555
N3A C18A 1_555 1_555
N4A C23A 1_555 1_555
N5A C28A 1_555 1_555
O6A C28A 1_555 1_555
Zn1A O2A 1_555 1_555
O2_2 Zn1 1_555 1_555
O3_2 Zn1 1_555 1_555
O4A_2 Zn1A 1_555 1_555
Zn1_2 O2 1_555 1_555
Zn1A_2 O4A 1_555 1_555
C8 C9 1_555 1_555
C10 N2 1_555 1_555
C22 N3 1_555 1_555
C27 N4 1_555 1_555
C29 N5 1_555 1_555
C30 N5 1_555 1_555
N4 Zn1 1_555 1_555
O3 Zn1_2 1_555 1_555
O4 Zn1 1_555 1_555
O6 Zn1 1_555 1_555
C8A C9A 1_555 1_555
C10A N2A 1_555 1_555
C11A C12A 1_555 1_555
C12A C13A 1_555 1_555
O3A Zn1A 1_555 1_555
C22A N3A 1_555 1_555
C27A N4A 1_555 1_555
C29A N5A 1_555 1_555
C30A N5A 1_555 1_555
N3A Zn1A 1_555 1_555
N4A Zn1A 1_555 1_555
O6A Zn1A 1_555 1_555

#END
