
#######################################################################
#
#                 Cambridge Crystallographic Data Centre
#                                CCDC 
#
#######################################################################
#
# If this CIF has been generated from an entry in the Cambridge 
# Structural Database, then it will include bibliographic, chemical, 
# crystal, experimental, refinement or atomic coordinate data resulting 
# from the CCDC's data processing and validation procedures.
#
#######################################################################

data_SOKDED
_symmetry_cell_setting           triclinic
_symmetry_space_group_name_H-M   'P -1'
_symmetry_Int_Tables_number      2
_space_group_name_Hall           '-P 1'
loop_
_symmetry_equiv_pos_site_id
_symmetry_equiv_pos_as_xyz
1 x,y,z
2 -x,-y,-z
_cell_length_a                   5.9675(4)
_cell_length_b                   7.3950(5)
_cell_length_c                   9.0670(6)
_cell_angle_alpha                93.788(2)
_cell_angle_beta                 105.998(2)
_cell_angle_gamma                90.816(2)
_cell_volume                     383.567
loop_
_atom_site_label
_atom_site_type_symbol
_atom_site_fract_x
_atom_site_fract_y
_atom_site_fract_z
Cu1 Cu 1.5000 1.0000 0.5000
Cu2 Cu 1.5000 0.5000 0.5000
Cl1 Cl 1.75714(8) 0.75433(7) 0.52399(6)
N1 N 1.2483(3) 0.8314(3) 0.3726(2)
N2 N 1.2505(3) 0.6448(3) 0.3749(2)
N3 N 0.9396(3) 0.7174(3) 0.2016(2)
O1 O 0.4000(3) 0.9312(2) -0.2820(2)
O2 O 0.2450(3) 0.7735(2) -0.1030(2)
O3 O 0.4288(3) 0.6021(2) -0.2712(2)
S1 S 0.42078(9) 0.77644(7) -0.18787(6)
C1 C 1.0583(4) 0.8717(3) 0.2698(3)
H1 H 1.0109 0.9911 0.2464
C2 C 1.0613(4) 0.5799(3) 0.2713(3)
H2 H 1.0172 0.4550 0.2489
C3 C 0.7094(4) 0.6964(3) 0.0873(3)
H3 H 0.5868 0.7324 0.1370
H4 H 0.6794 0.5674 0.0488
C4 C 0.6970(4) 0.8117(3) -0.0470(3)
H5 H 0.8234 0.7795 -0.0943
H6 H 0.7195 0.9413 -0.0096
N1A N 0.7517(3) 0.1686(3) -0.3726(2)
N2A N 0.7495(3) 0.3552(3) -0.3749(2)
N3A N 1.0604(3) 0.2826(3) -0.2016(2)
O1A O 1.6000(3) 0.0688(2) 0.2820(2)
O2A O 1.7550(3) 0.2265(2) 0.1030(2)
O3A O 1.5712(3) 0.3979(2) 0.2712(2)
S1A S 1.57922(9) 0.22356(7) 0.18787(6)
C1A C 0.9417(4) 0.1283(3) -0.2698(3)
H1A H 0.9891 0.0089 -0.2464
C2A C 0.9387(4) 0.4201(3) -0.2713(3)
H2A H 0.9828 0.5450 -0.2489
C3A C 1.2906(4) 0.3036(3) -0.0873(3)
H3A H 1.4132 0.2676 -0.1370
H4A H 1.3206 0.4326 -0.0488
C4A C 1.3030(4) 0.1883(3) 0.0470(3)
H5A H 1.1766 0.2205 0.0943
H6A H 1.2805 0.0587 0.0096
Cl1A Cl 1.24286(8) 1.24567(7) 0.47601(6)
Cu1_2 Cu 0.5000 0.0000 -0.5000
Cu1_3 Cu 0.5000 1.0000 -0.5000
Cu1_4 Cu 1.5000 0.0000 0.5000
Cu2_2 Cu 0.5000 0.5000 -0.5000
Cu2_3 Cu 1.5000 1.5000 0.5000
Cl1A_2 Cl 1.24286(8) 0.24567(7) 0.47601(6)
N1A_2 N 1.7517(3) 1.1686(3) 0.6274(2)
N2A_2 N 1.7495(3) 0.3552(3) 0.6251(2)
O1_2 O 1.4000(3) 0.9312(2) 0.7180(2)
O1A_2 O 1.6000(3) 1.0688(2) 0.2820(2)
O3_2 O 1.4288(3) 0.6021(2) 0.7288(2)
loop_
_geom_bond_atom_site_label_1
_geom_bond_atom_site_label_2
_geom_bond_site_symmetry_1
_geom_bond_site_symmetry_2
Cu1 Cl1 1_555 1_555
Cu2 Cl1 1_555 1_555
N1 Cu1 1_555 1_555
N2 Cu2 1_555 1_555
N3 C1 1_555 1_555
O1 S1 1_555 1_555
O2 S1 1_555 1_555
O3 S1 1_555 1_555
S1 C4 1_555 1_555
C1 N1 1_555 1_555
H1 C1 1_555 1_555
C2 N2 1_555 1_555
H2 C2 1_555 1_555
C3 N3 1_555 1_555
H3 C3 1_555 1_555
H4 C3 1_555 1_555
C4 C3 1_555 1_555
H5 C4 1_555 1_555
H6 C4 1_555 1_555
N1A N2A 1_555 1_555
N2A C2A 1_555 1_555
N3A C1A 1_555 1_555
O1A S1A 1_555 1_555
O2A S1A 1_555 1_555
O3A Cu2 1_555 1_555
S1A O3A 1_555 1_555
C1A N1A 1_555 1_555
H1A C1A 1_555 1_555
C2A N3A 1_555 1_555
H2A C2A 1_555 1_555
C3A N3A 1_555 1_555
H3A C3A 1_555 1_555
H4A C3A 1_555 1_555
C4A S1A 1_555 1_555
H5A C4A 1_555 1_555
H6A C4A 1_555 1_555
Cl1A Cu1 1_555 1_555
Cu1_2 N1A 1_555 1_555
Cu1_3 O1 1_555 1_555
Cu1_4 O1A 1_555 1_555
Cu2_2 O3 1_555 1_555
Cu2_3 Cl1A 1_555 1_555
Cl1A_2 Cu2 1_555 1_555
N1A_2 Cu1 1_555 1_555
N2A_2 Cu2 1_555 1_555
O1_2 Cu1 1_555 1_555
O1A_2 Cu1 1_555 1_555
O3_2 Cu2 1_555 1_555
N1 N2 1_555 1_555
N3 C2 1_555 1_555
N2A Cu2_2 1_555 1_555
C3A C4A 1_555 1_555
Cu1_4 Cl1A_2 1_555 1_555

#END
