
#######################################################################
#
#                 Cambridge Crystallographic Data Centre
#                                CCDC 
#
#######################################################################
#
# If this CIF has been generated from an entry in the Cambridge 
# Structural Database, then it will include bibliographic, chemical, 
# crystal, experimental, refinement or atomic coordinate data resulting 
# from the CCDC's data processing and validation procedures.
#
#######################################################################

data_SOKDIH
_symmetry_cell_setting           monoclinic
_symmetry_space_group_name_H-M   'P 21'
_symmetry_Int_Tables_number      4
_space_group_name_Hall           'P 2yb'
loop_
_symmetry_equiv_pos_site_id
_symmetry_equiv_pos_as_xyz
1 x,y,z
2 -x,1/2+y,-z
_cell_length_a                   6.2015(16)
_cell_length_b                   6.9924(18)
_cell_length_c                   13.354(3)
_cell_angle_alpha                90
_cell_angle_beta                 92.599(9)
_cell_angle_gamma                90
_cell_volume                     578.479
loop_
_atom_site_label
_atom_site_type_symbol
_atom_site_fract_x
_atom_site_fract_y
_atom_site_fract_z
Cu1 Cu 1.0065(2) 0.8079(3) 0.00129(10)
S1 S 0.6081(4) 0.5202(3) 0.69612(14)
N1 N 0.9089(14) 0.6606(13) 0.1187(6)
N2 N 0.8958(14) 0.4634(13) 0.1169(7)
N3 N 0.8188(11) 0.5605(14) 0.2659(5)
O1 O 0.3763(10) 0.5547(12) 0.6968(4)
O2 O 0.6682(11) 0.3302(12) 0.7270(5)
O3 O 0.7381(12) 0.6671(12) 0.7493(5)
O4 O 0.9755(9) 1.0604(12) 0.0742(4)
H1 H 0.8627 1.0796 0.1117
O5 O 1.3688(13) 0.7411(11) 0.0699(6)
H2 H 1.360(19) 0.801(12) 0.128(4)
H3 H 1.39(2) 0.618(4) 0.084(7)
O6 O 0.6418(11) 0.8573(11) -0.0711(5)
H4 H 0.6419 0.7677 -0.1188
H5 H 0.5461 0.8057 -0.0398
C1 C 0.8612(18) 0.7162(16) 0.2095(8)
H6 H 0.8574 0.8423 0.2315
C2 C 0.8416(17) 0.4062(16) 0.2053(8)
H7 H 0.8216 0.2796 0.2240
C3 C 0.7690(13) 0.5561(17) 0.3703(6)
C4 C 0.5663(15) 0.4920(15) 0.3955(6)
H8 H 0.4640 0.4556 0.3461
C5 C 0.5203(15) 0.4836(16) 0.4954(7)
H9 H 0.3857 0.4414 0.5141
C6 C 0.6751(13) 0.5382(15) 0.5682(6)
C7 C 0.8784(15) 0.6030(13) 0.5420(6)
H10 H 0.9809 0.6401 0.5911
C8 C 0.9247(16) 0.6112(14) 0.4407(7)
H11 H 1.0588 0.6532 0.4214
Cu1A Cu 0.9935(2) 0.3079(3) -0.00129(10)
Cu1A_2 Cu 0.9935(2) 1.3079(3) -0.00129(10)
N2A N 1.1042(14) 0.9634(13) -0.1169(7)
O4A O 1.0245(9) 0.5604(12) -0.0742(4)
loop_
_geom_bond_atom_site_label_1
_geom_bond_atom_site_label_2
_geom_bond_site_symmetry_1
_geom_bond_site_symmetry_2
Cu1 N1 1_555 1_555
S1 O1 1_555 1_555
N1 N2 1_555 1_555
N2 C2 1_555 1_555
N3 C1 1_555 1_555
O2 S1 1_555 1_555
O3 S1 1_555 1_555
O4 Cu1 1_555 1_555
H1 O4 1_555 1_555
O5 Cu1 1_555 1_555
H2 O5 1_555 1_555
H3 O5 1_555 1_555
O6 Cu1 1_555 1_555
H4 O6 1_555 1_555
H5 O6 1_555 1_555
C1 N1 1_555 1_555
H6 C1 1_555 1_555
C2 N3 1_555 1_555
H7 C2 1_555 1_555
C3 N3 1_555 1_555
C4 C3 1_555 1_555
H8 C4 1_555 1_555
C5 C4 1_555 1_555
H9 C5 1_555 1_555
C6 S1 1_555 1_555
C7 C6 1_555 1_555
H10 C7 1_555 1_555
C8 C3 1_555 1_555
H11 C8 1_555 1_555
Cu1A N2 1_555 1_555
Cu1A_2 O4 1_555 1_555
N2A Cu1 1_555 1_555
O4A Cu1 1_555 1_555
C5 C6 1_555 1_555
C7 C8 1_555 1_555
Cu1A O4A 1_555 1_555

#END
