
#######################################################################
#
#                 Cambridge Crystallographic Data Centre
#                                CCDC 
#
#######################################################################
#
# If this CIF has been generated from an entry in the Cambridge 
# Structural Database, then it will include bibliographic, chemical, 
# crystal, experimental, refinement or atomic coordinate data resulting 
# from the CCDC's data processing and validation procedures.
#
#######################################################################

data_SOKFAB
_symmetry_cell_setting           triclinic
_symmetry_space_group_name_H-M   'P -1'
_symmetry_Int_Tables_number      2
_space_group_name_Hall           '-P 1'
loop_
_symmetry_equiv_pos_site_id
_symmetry_equiv_pos_as_xyz
1 x,y,z
2 -x,-y,-z
_cell_length_a                   13.238(7)
_cell_length_b                   13.993(4)
_cell_length_c                   15.354(9)
_cell_angle_alpha                77.87(4)
_cell_angle_beta                 70.08(5)
_cell_angle_gamma                74.89(4)
_cell_volume                     2558.39
loop_
_atom_site_label
_atom_site_type_symbol
_atom_site_fract_x
_atom_site_fract_y
_atom_site_fract_z
Ni1 Ni 0.4863(4) 0.7592(3) -0.0264(4)
S1 S 0.5476(8) 0.7739(7) -0.1893(7)
C1 C 0.694(3) 0.782(2) -0.225(3)
N1 N 0.764(2) 0.763(2) -0.183(2)
P1 P 0.7436(10) 0.7364(8) -0.0821(10)
O1 O 0.6451(19) 0.7156(16) -0.0035(17)
N2 N 0.723(2) 0.7978(18) -0.321(2)
H1 H 0.6694 0.7946 -0.3410
C2 C 0.8209(17) 0.8186(16) -0.3998(18)
C3 C 0.903(2) 0.8342(16) -0.3707(13)
H2 H 0.8931 0.8314 -0.3060
C4 C 1.000(2) 0.8539(16) -0.436(2)
H3 H 1.0567 0.8646 -0.4166
C5 C 1.0153(17) 0.8580(16) -0.5311(18)
H4 H 1.0817 0.8715 -0.5760
C6 C 0.933(2) 0.8424(16) -0.5601(13)
H5 H 0.9430 0.8452 -0.6248
C7 C 0.8357(19) 0.8227(16) -0.494(2)
H6 H 0.7794 0.8120 -0.5143
O2 O 0.7816(19) 0.8199(17) -0.0480(16)
C8 C 0.870(2) 0.863(2) -0.1115(15)
C9 C 0.979(2) 0.8109(13) -0.1355(17)
H7 H 0.9953 0.7417 -0.1136
C10 C 1.0623(17) 0.8598(19) -0.1915(17)
H8 H 1.1362 0.8239 -0.2078
C11 C 1.0377(19) 0.9611(19) -0.2235(15)
H9 H 1.0949 0.9944 -0.2618
C12 C 0.930(2) 1.0135(13) -0.1996(16)
H10 H 0.9128 1.0827 -0.2215
C13 C 0.8459(16) 0.9647(19) -0.1436(17)
H11 H 0.7719 1.0005 -0.1272
O3 O 0.8389(19) 0.6343(17) -0.0821(16)
C14 C 0.837(2) 0.5788(18) 0.0024(16)
C15 C 0.8185(19) 0.485(2) 0.0033(16)
H12 H 0.8079 0.4699 -0.0499
C16 C 0.8151(19) 0.4145(15) 0.082(2)
H13 H 0.8023 0.3506 0.0828
C17 C 0.831(2) 0.4371(18) 0.1601(16)
H14 H 0.8283 0.3886 0.2139
C18 C 0.8493(19) 0.531(2) 0.1591(16)
H15 H 0.8599 0.5460 0.2124
C19 C 0.8527(19) 0.6014(15) 0.080(2)
H16 H 0.8655 0.6653 0.0797
S2 S 0.3065(8) 0.8103(7) -0.0519(8)
C20 C 0.210(3) 0.793(2) 0.049(3)
N3 N 0.199(2) 0.7626(19) 0.141(2)
P2 P 0.3078(10) 0.7328(8) 0.1755(9)
O4 O 0.4238(18) 0.7463(14) 0.1118(16)
N4 N 0.099(2) 0.8199(19) 0.036(2)
H17 H 0.0971 0.8389 -0.0216
C21 C -0.0058(16) 0.820(2) 0.1050(17)
C22 C -0.088(2) 0.8958(17) 0.0825(14)
H18 H -0.0706 0.9414 0.0269
C23 C -0.195(2) 0.9053(15) 0.1414(19)
H19 H -0.2513 0.9573 0.1261
C24 C -0.2205(16) 0.839(2) 0.2228(17)
H20 H -0.2939 0.8450 0.2631
C25 C -0.138(2) 0.7625(17) 0.2453(14)
H21 H -0.1557 0.7169 0.3009
C26 C -0.031(2) 0.7530(15) 0.1864(19)
H22 H 0.0250 0.7010 0.2017
O5 O 0.267(2) 0.7971(17) 0.2623(18)
C27 C 0.340(2) 0.820(2) 0.2977(16)
C28 C 0.3302(19) 0.917(2) 0.3148(17)
H23 H 0.2785 0.9702 0.2949
C29 C 0.396(2) 0.9345(16) 0.3610(18)
H24 H 0.3892 1.0003 0.3727
C30 C 0.472(2) 0.856(2) 0.3902(16)
H25 H 0.5165 0.8684 0.4218
C31 C 0.4815(19) 0.7599(19) 0.3731(17)
H26 H 0.5332 0.7063 0.3930
C32 C 0.416(2) 0.7420(16) 0.3269(18)
H27 H 0.4226 0.6763 0.3152
O6 O 0.3107(19) 0.6183(16) 0.2254(16)
C33 C 0.2129(18) 0.5830(18) 0.2749(18)
C34 C 0.2079(18) 0.4978(18) 0.2449(14)
H28 H 0.2648 0.4715 0.1933
C35 C 0.120(2) 0.4511(14) 0.2904(17)
H29 H 0.1161 0.3928 0.2699
C36 C 0.0363(18) 0.4896(18) 0.3659(17)
H30 H -0.0240 0.4577 0.3970
C37 C 0.0413(19) 0.5748(18) 0.3959(15)
H31 H -0.0156 0.6012 0.4475
C38 C 0.130(2) 0.6216(14) 0.3504(18)
H32 H 0.1331 0.6798 0.3709
N5 N 0.488(2) 0.601(2) -0.008(2)
C39 C 0.453(3) 0.561(3) -0.066(2)
H33 H 0.4230 0.6041 -0.1116
C40 C 0.462(3) 0.456(3) -0.055(2)
H34 H 0.4345 0.4266 -0.0909
N6 N 0.494(2) 0.911(2) -0.017(2)
C41 C 0.474(3) 0.990(3) -0.084(3)
H35 H 0.4560 0.9859 -0.1376
C42 C 0.484(3) 1.081(3) -0.061(3)
H36 H 0.4753 1.1402 -0.1034
N5A N 0.512(2) 0.399(2) 0.008(2)
C39A C 0.547(3) 0.439(3) 0.066(2)
H33A H 0.5770 0.3959 0.1116
C40A C 0.538(3) 0.544(3) 0.055(2)
H34A H 0.5655 0.5734 0.0909
N6A N 0.506(2) 1.089(2) 0.017(2)
C41A C 0.526(3) 1.010(3) 0.084(3)
H35A H 0.5440 1.0141 0.1376
C42A C 0.516(3) 0.919(3) 0.061(3)
H36A H 0.5247 0.8598 0.1034
Ni1A Ni 0.5137(4) 0.2408(3) 0.0264(4)
S1A S 0.4524(8) 0.2261(7) 0.1893(7)
C1A C 0.306(3) 0.218(2) 0.225(3)
N1A N 0.236(2) 0.237(2) 0.183(2)
P1A P 0.2564(10) 0.2636(8) 0.0821(10)
O1A O 0.3549(19) 0.2844(16) 0.0035(17)
N2A N 0.277(2) 0.2022(18) 0.321(2)
H1A H 0.3306 0.2054 0.3410
C2A C 0.1791(17) 0.1814(16) 0.3998(18)
C3A C 0.097(2) 0.1658(16) 0.3707(13)
H2A H 0.1069 0.1686 0.3060
C4A C 0.000(2) 0.1461(16) 0.436(2)
H3A H -0.0567 0.1354 0.4166
C5A C -0.0153(17) 0.1420(16) 0.5311(18)
H4A H -0.0817 0.1285 0.5760
C6A C 0.067(2) 0.1576(16) 0.5601(13)
H5A H 0.0570 0.1548 0.6248
C7A C 0.1643(19) 0.1773(16) 0.494(2)
H6A H 0.2206 0.1880 0.5143
O2A O 0.2184(19) 0.1801(17) 0.0480(16)
C8A C 0.130(2) 0.137(2) 0.1115(15)
C9A C 0.021(2) 0.1891(13) 0.1355(17)
H7A H 0.0047 0.2583 0.1136
C10A C -0.0623(17) 0.1402(19) 0.1915(17)
H8A H -0.1362 0.1761 0.2078
C11A C -0.0377(19) 0.0389(19) 0.2235(15)
H9A H -0.0949 0.0056 0.2618
C12A C 0.070(2) -0.0135(13) 0.1996(16)
H10A H 0.0872 -0.0827 0.2215
C13A C 0.1541(16) 0.0353(19) 0.1436(17)
H11A H 0.2281 -0.0005 0.1272
O3A O 0.1611(19) 0.3657(17) 0.0821(16)
C14A C 0.163(2) 0.4212(18) -0.0024(16)
C15A C 0.1815(19) 0.515(2) -0.0033(16)
H12A H 0.1921 0.5301 0.0499
C16A C 0.1849(19) 0.5855(15) -0.082(2)
H13A H 0.1977 0.6494 -0.0828
C17A C 0.169(2) 0.5629(18) -0.1601(16)
H14A H 0.1717 0.6114 -0.2139
C18A C 0.1507(19) 0.469(2) -0.1591(16)
H15A H 0.1401 0.4540 -0.2124
C19A C 0.1473(19) 0.3986(15) -0.080(2)
H16A H 0.1345 0.3347 -0.0797
S2A S 0.6935(8) 0.1897(7) 0.0519(8)
C20A C 0.790(3) 0.207(2) -0.049(3)
N3A N 0.801(2) 0.2374(19) -0.141(2)
P2A P 0.6922(10) 0.2672(8) -0.1755(9)
O4A O 0.5762(18) 0.2537(14) -0.1118(16)
N4A N 0.901(2) 0.1801(19) -0.036(2)
H17A H 0.9029 0.1611 0.0216
C21A C 1.0058(16) 0.180(2) -0.1050(17)
C22A C 1.088(2) 0.1042(17) -0.0825(14)
H18A H 1.0706 0.0586 -0.0269
C23A C 1.195(2) 0.0947(15) -0.1414(19)
H19A H 1.2513 0.0427 -0.1261
C24A C 1.2205(16) 0.161(2) -0.2228(17)
H20A H 1.2939 0.1550 -0.2631
C25A C 1.138(2) 0.2375(17) -0.2453(14)
H21A H 1.1557 0.2831 -0.3009
C26A C 1.031(2) 0.2470(15) -0.1864(19)
H22A H 0.9750 0.2990 -0.2017
O5A O 0.733(2) 0.2029(17) -0.2623(18)
C27A C 0.660(2) 0.180(2) -0.2977(16)
C28A C 0.6698(19) 0.083(2) -0.3148(17)
H23A H 0.7215 0.0298 -0.2949
C29A C 0.604(2) 0.0655(16) -0.3610(18)
H24A H 0.6108 -0.0003 -0.3727
C30A C 0.528(2) 0.144(2) -0.3902(16)
H25A H 0.4835 0.1316 -0.4218
C31A C 0.5185(19) 0.2401(19) -0.3731(17)
H26A H 0.4668 0.2937 -0.3930
C32A C 0.584(2) 0.2580(16) -0.3269(18)
H27A H 0.5774 0.3237 -0.3152
O6A O 0.6893(19) 0.3817(16) -0.2254(16)
C33A C 0.7871(18) 0.4170(18) -0.2749(18)
C34A C 0.7921(18) 0.5022(18) -0.2449(14)
H28A H 0.7352 0.5285 -0.1933
C35A C 0.880(2) 0.5489(14) -0.2904(17)
H29A H 0.8839 0.6072 -0.2699
C36A C 0.9637(18) 0.5104(18) -0.3659(17)
H30A H 1.0240 0.5423 -0.3970
C37A C 0.9587(19) 0.4252(18) -0.3959(15)
H31A H 1.0156 0.3988 -0.4475
C38A C 0.870(2) 0.3784(14) -0.3504(18)
H32A H 0.8669 0.3202 -0.3709
Ni1A_2 Ni 0.5137(4) 1.2408(3) 0.0264(4)
N6A_2 N 0.506(2) 0.089(2) 0.017(2)
loop_
_geom_bond_atom_site_label_1
_geom_bond_atom_site_label_2
_geom_bond_site_symmetry_1
_geom_bond_site_symmetry_2
Ni1 S1 1_555 1_555
S1 C1 1_555 1_555
C1 N1 1_555 1_555
N1 P1 1_555 1_555
P1 O1 1_555 1_555
O1 Ni1 1_555 1_555
N2 C1 1_555 1_555
H1 N2 1_555 1_555
C2 N2 1_555 1_555
C3 C2 1_555 1_555
H2 C3 1_555 1_555
C4 C3 1_555 1_555
H3 C4 1_555 1_555
C5 C4 1_555 1_555
H4 C5 1_555 1_555
C6 C5 1_555 1_555
H5 C6 1_555 1_555
C7 C2 1_555 1_555
H6 C7 1_555 1_555
O2 P1 1_555 1_555
C8 O2 1_555 1_555
C9 C8 1_555 1_555
H7 C9 1_555 1_555
C10 C9 1_555 1_555
H8 C10 1_555 1_555
C11 C10 1_555 1_555
H9 C11 1_555 1_555
C12 C11 1_555 1_555
H10 C12 1_555 1_555
C13 C8 1_555 1_555
H11 C13 1_555 1_555
O3 P1 1_555 1_555
C14 O3 1_555 1_555
C15 C14 1_555 1_555
H12 C15 1_555 1_555
C16 C15 1_555 1_555
H13 C16 1_555 1_555
C17 C16 1_555 1_555
H14 C17 1_555 1_555
C18 C17 1_555 1_555
H15 C18 1_555 1_555
C19 C14 1_555 1_555
H16 C19 1_555 1_555
S2 Ni1 1_555 1_555
C20 S2 1_555 1_555
N3 C20 1_555 1_555
P2 N3 1_555 1_555
O4 Ni1 1_555 1_555
N4 C20 1_555 1_555
H17 N4 1_555 1_555
C21 N4 1_555 1_555
C22 C21 1_555 1_555
H18 C22 1_555 1_555
C23 C22 1_555 1_555
H19 C23 1_555 1_555
C24 C23 1_555 1_555
H20 C24 1_555 1_555
C25 C24 1_555 1_555
H21 C25 1_555 1_555
C26 C21 1_555 1_555
H22 C26 1_555 1_555
O5 P2 1_555 1_555
C27 O5 1_555 1_555
C28 C27 1_555 1_555
H23 C28 1_555 1_555
C29 C28 1_555 1_555
H24 C29 1_555 1_555
C30 C29 1_555 1_555
H25 C30 1_555 1_555
C31 C30 1_555 1_555
H26 C31 1_555 1_555
C32 C27 1_555 1_555
H27 C32 1_555 1_555
O6 P2 1_555 1_555
C33 O6 1_555 1_555
C34 C33 1_555 1_555
H28 C34 1_555 1_555
C35 C34 1_555 1_555
H29 C35 1_555 1_555
C36 C35 1_555 1_555
H30 C36 1_555 1_555
C37 C36 1_555 1_555
H31 C37 1_555 1_555
C38 C33 1_555 1_555
H32 C38 1_555 1_555
N5 Ni1 1_555 1_555
C39 N5 1_555 1_555
H33 C39 1_555 1_555
C40 C39 1_555 1_555
H34 C40 1_555 1_555
N6 Ni1 1_555 1_555
C41 N6 1_555 1_555
H35 C41 1_555 1_555
C42 C41 1_555 1_555
H36 C42 1_555 1_555
N5A C40 1_555 1_555
C39A N5A 1_555 1_555
H33A C39A 1_555 1_555
C40A N5 1_555 1_555
H34A C40A 1_555 1_555
N6A C42 1_555 1_555
C41A N6A 1_555 1_555
H35A C41A 1_555 1_555
C42A N6 1_555 1_555
H36A C42A 1_555 1_555
Ni1A N5A 1_555 1_555
S1A Ni1A 1_555 1_555
C1A S1A 1_555 1_555
N1A C1A 1_555 1_555
P1A N1A 1_555 1_555
O1A Ni1A 1_555 1_555
N2A C1A 1_555 1_555
H1A N2A 1_555 1_555
C2A N2A 1_555 1_555
C3A C2A 1_555 1_555
H2A C3A 1_555 1_555
C4A C3A 1_555 1_555
H3A C4A 1_555 1_555
C5A C4A 1_555 1_555
H4A C5A 1_555 1_555
C6A C5A 1_555 1_555
H5A C6A 1_555 1_555
C7A C2A 1_555 1_555
H6A C7A 1_555 1_555
O2A P1A 1_555 1_555
C8A O2A 1_555 1_555
C9A C8A 1_555 1_555
H7A C9A 1_555 1_555
C10A C9A 1_555 1_555
H8A C10A 1_555 1_555
C11A C10A 1_555 1_555
H9A C11A 1_555 1_555
C12A C11A 1_555 1_555
H10A C12A 1_555 1_555
C13A C8A 1_555 1_555
H11A C13A 1_555 1_555
O3A P1A 1_555 1_555
C14A O3A 1_555 1_555
C15A C14A 1_555 1_555
H12A C15A 1_555 1_555
C16A C15A 1_555 1_555
H13A C16A 1_555 1_555
C17A C16A 1_555 1_555
H14A C17A 1_555 1_555
C18A C17A 1_555 1_555
H15A C18A 1_555 1_555
C19A C14A 1_555 1_555
H16A C19A 1_555 1_555
S2A Ni1A 1_555 1_555
C20A S2A 1_555 1_555
N3A C20A 1_555 1_555
P2A N3A 1_555 1_555
O4A Ni1A 1_555 1_555
N4A C20A 1_555 1_555
H17A N4A 1_555 1_555
C21A N4A 1_555 1_555
C22A C21A 1_555 1_555
H18A C22A 1_555 1_555
C23A C22A 1_555 1_555
H19A C23A 1_555 1_555
C24A C23A 1_555 1_555
H20A C24A 1_555 1_555
C25A C24A 1_555 1_555
H21A C25A 1_555 1_555
C26A C21A 1_555 1_555
H22A C26A 1_555 1_555
O5A P2A 1_555 1_555
C27A O5A 1_555 1_555
C28A C27A 1_555 1_555
H23A C28A 1_555 1_555
C29A C28A 1_555 1_555
H24A C29A 1_555 1_555
C30A C29A 1_555 1_555
H25A C30A 1_555 1_555
C31A C30A 1_555 1_555
H26A C31A 1_555 1_555
C32A C27A 1_555 1_555
H27A C32A 1_555 1_555
O6A P2A 1_555 1_555
C33A O6A 1_555 1_555
C34A C33A 1_555 1_555
H28A C34A 1_555 1_555
C35A C34A 1_555 1_555
H29A C35A 1_555 1_555
C36A C35A 1_555 1_555
H30A C36A 1_555 1_555
C37A C36A 1_555 1_555
H31A C37A 1_555 1_555
C38A C33A 1_555 1_555
H32A C38A 1_555 1_555
Ni1A_2 N6A 1_555 1_555
N6A_2 Ni1A 1_555 1_555
C6 C7 1_555 1_555
C12 C13 1_555 1_555
C18 C19 1_555 1_555
P2 O4 1_555 1_555
C25 C26 1_555 1_555
C31 C32 1_555 1_555
C37 C38 1_555 1_555
C39A C40A 1_555 1_555
C41A C42A 1_555 1_555
P1A O1A 1_555 1_555
C6A C7A 1_555 1_555
C12A C13A 1_555 1_555
C18A C19A 1_555 1_555
P2A O4A 1_555 1_555
C25A C26A 1_555 1_555
C31A C32A 1_555 1_555
C37A C38A 1_555 1_555

#END
