
#######################################################################
#
#                 Cambridge Crystallographic Data Centre
#                                CCDC 
#
#######################################################################
#
# If this CIF has been generated from an entry in the Cambridge 
# Structural Database, then it will include bibliographic, chemical, 
# crystal, experimental, refinement or atomic coordinate data resulting 
# from the CCDC's data processing and validation procedures.
#
#######################################################################

data_SOKGOO
_symmetry_cell_setting           monoclinic
_symmetry_space_group_name_H-M   'P 21/c'
_symmetry_Int_Tables_number      14
_space_group_name_Hall           '-P 2ybc'
loop_
_symmetry_equiv_pos_site_id
_symmetry_equiv_pos_as_xyz
1 x,y,z
2 -x,1/2+y,1/2-z
3 -x,-y,-z
4 x,1/2-y,1/2+z
_cell_length_a                   8.407(2)
_cell_length_b                   7.931(1)
_cell_length_c                   15.012(4)
_cell_angle_alpha                90
_cell_angle_beta                 93.88(2)
_cell_angle_gamma                90
_cell_volume                     998.645
loop_
_atom_site_label
_atom_site_type_symbol
_atom_site_fract_x
_atom_site_fract_y
_atom_site_fract_z
Nd1 Nd 0.0486(1) 0.1231(1) 0.2150(1)
O1 O 0.1566(6) -0.1614(7) 0.2833(3)
O2 O 0.3217(7) 0.0519(7) 0.2805(4)
O3 O -0.1474(6) -0.1222(7) 0.1937(3)
O4 O -0.1547(7) 0.0572(7) 0.0829(4)
O5 O 0.1371(7) 0.3260(7) 0.1117(4)
O6 O 0.0806(8) 0.5957(7) 0.1438(4)
O7 O 0.1704(7) -0.0692(7) 0.1036(3)
C1 C 0.2982(9) -0.1026(10) 0.2934(5)
C2 C 0.4323(11) -0.2152(13) 0.3197(8)
C3 C -0.2123(10) -0.0669(9) 0.1195(5)
C4 C -0.3631(12) -0.1472(12) 0.0805(7)
C5 C 0.1453(9) 0.4838(10) 0.0982(5)
C6 C 0.2404(15) 0.5432(12) 0.0242(7)
O1A O -0.1566(6) 0.3386(7) 0.2167(3)
O3A O 0.1474(6) 0.3778(7) 0.3063(3)
O6A O -0.0806(8) 0.0957(7) 0.3562(4)
Nd1A Nd -0.0486(1) -0.3769(1) 0.2850(1)
Nd1A_2 Nd -0.0486(1) 0.6231(1) 0.2850(1)
loop_
_geom_bond_atom_site_label_1
_geom_bond_atom_site_label_2
_geom_bond_site_symmetry_1
_geom_bond_site_symmetry_2
Nd1 O1 1_555 1_555
O1 C1 1_555 1_555
O2 Nd1 1_555 1_555
O3 Nd1 1_555 1_555
O4 Nd1 1_555 1_555
O5 Nd1 1_555 1_555
O6 C5 1_555 1_555
O7 Nd1 1_555 1_555
C1 O2 1_555 1_555
C2 C1 1_555 1_555
C3 O3 1_555 1_555
C4 C3 1_555 1_555
C5 O5 1_555 1_555
C6 C5 1_555 1_555
O1A Nd1 1_555 1_555
O3A Nd1 1_555 1_555
O6A Nd1 1_555 1_555
Nd1A O1 1_555 1_555
Nd1A_2 O6 1_555 1_555
O3 Nd1A 1_555 1_555
O4 C3 1_555 1_555
O1A Nd1A_2 1_555 1_555
O3A Nd1A_2 1_555 1_555

#END
