
#######################################################################
#
#                 Cambridge Crystallographic Data Centre
#                                CCDC 
#
#######################################################################
#
# If this CIF has been generated from an entry in the Cambridge 
# Structural Database, then it will include bibliographic, chemical, 
# crystal, experimental, refinement or atomic coordinate data resulting 
# from the CCDC's data processing and validation procedures.
#
#######################################################################

data_SOKKAG
_symmetry_cell_setting           monoclinic
_symmetry_space_group_name_H-M   'P 21/n'
_symmetry_Int_Tables_number      14
_space_group_name_Hall           '-P 2yn'
loop_
_symmetry_equiv_pos_site_id
_symmetry_equiv_pos_as_xyz
1 x,y,z
2 1/2-x,1/2+y,1/2-z
3 -x,-y,-z
4 1/2+x,1/2-y,1/2+z
_cell_length_a                   11.3966(18)
_cell_length_b                   10.2604(15)
_cell_length_c                   17.864(3)
_cell_angle_alpha                90
_cell_angle_beta                 94.538(4)
_cell_angle_gamma                90
_cell_volume                     2082.35
loop_
_atom_site_label
_atom_site_type_symbol
_atom_site_fract_x
_atom_site_fract_y
_atom_site_fract_z
Mn1 Mn 0.38864(3) 0.51075(3) 0.164506(19)
O1 O 0.35529(15) 0.68102(14) 0.10017(9)
O2 O 0.34007(19) 0.80464(17) 0.20086(10)
O3 O 0.40481(15) 1.28472(15) 0.17598(9)
O4 O 0.37178(14) 1.37392(14) 0.06406(9)
O5 O 0.3296(2) 1.0905(2) -0.15882(11)
O6 O 0.3242(2) 0.88249(19) -0.14658(10)
O7 O 0.20468(16) 0.47437(19) 0.18557(12)
N1 N 0.74066(17) 0.49616(18) 0.08495(11)
N2 N 0.77565(19) 0.5692(2) 0.14603(13)
N3 N 0.58149(17) 0.52667(19) 0.14306(12)
N4 N 1.05384(17) 0.11963(18) 0.10167(11)
N5 N 0.9716(2) 0.0222(2) 0.09882(13)
N6 N 1.06267(18) 0.03937(19) 0.21472(11)
N7 N 0.3320(2) 0.9927(2) -0.12053(12)
C1 C 0.8219(2) 0.4492(2) 0.03217(14)
H1 H 0.8634 0.5237 0.0123
H2 H 0.7771 0.4066 -0.0101
C2 C 0.9114(2) 0.3540(2) 0.06751(14)
H3 H 0.8736 0.2975 0.1027
H4 H 0.9747 0.4021 0.0957
C3 C 0.9629(2) 0.2710(2) 0.00739(13)
H5 H 0.9038 0.2073 -0.0117
H6 H 0.9808 0.3272 -0.0346
C4 C 1.0732(2) 0.1996(2) 0.03596(13)
H7 H 1.0993 0.1438 -0.0040
H8 H 1.1357 0.2630 0.0493
C5 C 0.6771(2) 0.5851(3) 0.17922(16)
H9 H 0.6733 0.6326 0.2239
C6 C 0.6262(2) 0.4730(2) 0.08432(14)
H10 H 0.5826 0.4248 0.0470
C7 C 0.9814(3) -0.0227(3) 0.16806(15)
H11 H 0.9356 -0.0922 0.1839
C8 C 1.1058(2) 0.1279(2) 0.17069(13)
H12 H 1.1649 0.1883 0.1861
C9 C 0.35299(19) 0.9087(2) 0.08326(13)
C10 C 0.36899(19) 1.0318(2) 0.11490(13)
H13 H 0.3773 1.0404 0.1674
C11 C 0.37287(18) 1.1428(2) 0.07006(12)
C12 C 0.36043(19) 1.1304(2) -0.00779(13)
H14 H 0.3619 1.2042 -0.0389
C13 C 0.34590(19) 1.0073(2) -0.03812(13)
C14 C 0.34170(19) 0.8967(2) 0.00554(13)
H15 H 0.3313 0.8143 -0.0170
C15 C 0.3485(2) 0.7898(2) 0.13282(14)
C16 C 0.38505(19) 1.2754(2) 0.10588(13)
H16 H 0.196(3) 0.431(4) 0.221(2)
H17 H 0.144(3) 0.535(4) 0.181(2)
Mn1_2 Mn 0.38864(3) 1.51075(3) 0.164506(19)
Mn1A Mn 1.11136(3) 0.01075(3) 0.335494(19)
O3_2 O 0.40481(15) 0.28472(15) 0.17598(9)
O4_2 O 0.37178(14) 0.37392(14) 0.06406(9)
N6A N 0.43733(18) 0.53937(19) 0.28528(11)
O8 O 0.47641(19) 1.1452(2) 0.30793(13)
H18 H 0.469(4) 1.173(4) 0.269(2)
H19 H 0.551(4) 1.114(5) 0.315(2)
loop_
_geom_bond_atom_site_label_1
_geom_bond_atom_site_label_2
_geom_bond_site_symmetry_1
_geom_bond_site_symmetry_2
Mn1 O1 1_555 1_555
O1 C15 1_555 1_555
O2 C15 1_555 1_555
O3 C16 1_555 1_555
O4 C16 1_555 1_555
O5 N7 1_555 1_555
O6 N7 1_555 1_555
O7 Mn1 1_555 1_555
N1 N2 1_555 1_555
N2 C5 1_555 1_555
N3 Mn1 1_555 1_555
N4 N5 1_555 1_555
N5 C7 1_555 1_555
N6 C7 1_555 1_555
N7 C13 1_555 1_555
C1 N1 1_555 1_555
H1 C1 1_555 1_555
H2 C1 1_555 1_555
C2 C1 1_555 1_555
H3 C2 1_555 1_555
H4 C2 1_555 1_555
C3 C2 1_555 1_555
H5 C3 1_555 1_555
H6 C3 1_555 1_555
C4 N4 1_555 1_555
H7 C4 1_555 1_555
H8 C4 1_555 1_555
C5 N3 1_555 1_555
H9 C5 1_555 1_555
C6 N1 1_555 1_555
H10 C6 1_555 1_555
C7 H11 1_555 1_555
C8 N4 1_555 1_555
H12 C8 1_555 1_555
C9 C10 1_555 1_555
C10 H13 1_555 1_555
C11 C10 1_555 1_555
C12 C11 1_555 1_555
H14 C12 1_555 1_555
C13 C12 1_555 1_555
C14 C9 1_555 1_555
H15 C14 1_555 1_555
C15 C9 1_555 1_555
C16 C11 1_555 1_555
H16 O7 1_555 1_555
H17 O7 1_555 1_555
O8 H18 1_555 1_555
H19 O8 1_555 1_555
Mn1_2 O3 1_555 1_555
Mn1A N6 1_555 1_555
O3_2 Mn1 1_555 1_555
O4_2 Mn1 1_555 1_555
N6A Mn1 1_555 1_555
O4 Mn1_2 1_555 1_555
N3 C6 1_555 1_555
N6 C8 1_555 1_555
C3 C4 1_555 1_555
C13 C14 1_555 1_555

#END
