
#######################################################################
#
#                 Cambridge Crystallographic Data Centre
#                                CCDC 
#
#######################################################################
#
# If this CIF has been generated from an entry in the Cambridge 
# Structural Database, then it will include bibliographic, chemical, 
# crystal, experimental, refinement or atomic coordinate data resulting 
# from the CCDC's data processing and validation procedures.
#
#######################################################################

data_SOKKOT
_symmetry_cell_setting           tetragonal
_symmetry_space_group_name_H-M   'P 43 2 2'
_symmetry_Int_Tables_number      95
_space_group_name_Hall           'P 4cw 2c'
loop_
_symmetry_equiv_pos_site_id
_symmetry_equiv_pos_as_xyz
1 x,y,z
2 -y,x,3/4+z
3 -x,-y,1/2+z
4 y,-x,1/4+z
5 x,-y,1/2-z
6 y,x,1/4-z
7 -x,y,-z
8 -y,-x,3/4-z
_cell_length_a                   13.5065(2)
_cell_length_b                   13.5065(2)
_cell_length_c                   15.9076(4)
_cell_angle_alpha                90
_cell_angle_beta                 90
_cell_angle_gamma                90
_cell_volume                     2901.95
loop_
_atom_site_label
_atom_site_type_symbol
_atom_site_fract_x
_atom_site_fract_y
_atom_site_fract_z
N1 N 0.5000 0.165(2) 0.5000
C7 C 0.446(4) 0.216(3) 0.571(2)
C8 C 0.429(5) 0.328(3) 0.552(3)
C7F C 0.554(4) 0.216(3) 0.429(2)
C8F C 0.571(5) 0.328(3) 0.448(3)
In1 In 0.0000 0.58199(8) 0.5000
S1 S 0.2211(2) 0.2867(3) 0.3902(2)
O1 O 0.1211(6) 0.4561(6) 0.4836(5)
O2 O 0.0249(5) 0.5027(6) 0.3803(5)
O3 O 0.2996(7) 0.1061(7) 0.2071(5)
O4 O 0.3485(7) 0.1139(5) 0.3400(5)
C1 C 0.2262(9) 0.2289(9) 0.2938(7)
C2 C 0.1349(9) 0.3661(8) 0.3560(7)
C3 C 0.0929(9) 0.4485(9) 0.4097(8)
C4 C 0.2911(10) 0.1474(10) 0.2798(9)
C5 C 0.1110(9) 0.3533(10) 0.2715(7)
H1 H 0.0690 0.3945 0.2411
C6 C 0.1595(11) 0.2686(10) 0.2381(8)
H2 H 0.1475 0.2430 0.1848
In1A In 0.41801(8) 0.0000 0.2500
In1C In 0.58199(8) 1.0000 0.7500
S1C S 0.2867(3) 0.7789(2) 0.6402(2)
O1C O 0.4561(6) 0.8789(6) 0.7336(5)
O1F O -0.1211(6) 0.4561(6) 0.5164(5)
O2C O 0.5027(6) 0.9751(5) 0.6303(5)
O2F O -0.0249(5) 0.5027(6) 0.6197(5)
O3C O 0.1061(7) 0.7004(7) 0.4571(5)
O3G O -0.1061(7) 0.7004(7) 0.5429(5)
O4C O 0.1139(5) 0.6515(7) 0.5900(5)
O4G O -0.1139(5) 0.6515(7) 0.4100(5)
C1C C 0.2289(9) 0.7738(9) 0.5438(7)
C2C C 0.3661(8) 0.8651(9) 0.6060(7)
C3C C 0.4485(9) 0.9071(9) 0.6597(8)
C4C C 0.1474(10) 0.7089(10) 0.5298(9)
C5C C 0.3533(10) 0.8890(9) 0.5215(7)
H1C H 0.3945 0.9310 0.4911
C6C C 0.2686(10) 0.8405(11) 0.4881(8)
H2C H 0.2430 0.8525 0.4348
loop_
_geom_bond_atom_site_label_1
_geom_bond_atom_site_label_2
_geom_bond_site_symmetry_1
_geom_bond_site_symmetry_2
In1 O1 1_555 1_555
S1 C1 1_555 1_555
O1 C3 1_555 1_555
O2 In1 1_555 1_555
O3 C4 1_555 1_555
O4 C4 1_555 1_555
C1 C4 1_555 1_555
C2 S1 1_555 1_555
C3 O2 1_555 1_555
C5 C2 1_555 1_555
H1 C5 1_555 1_555
C6 C1 1_555 1_555
H2 C6 1_555 1_555
N1 C7 1_555 1_555
C7 C8 1_555 1_555
In1A O3 1_555 1_555
In1C O1C 1_555 1_555
S1C C1C 1_555 1_555
O1C C3C 1_555 1_555
O1F In1 1_555 1_555
O2C In1C 1_555 1_555
O2F In1 1_555 1_555
O3C In1 1_555 1_555
O3G In1 1_555 1_555
O4C In1 1_555 1_555
O4G In1 1_555 1_555
C1C C4C 1_555 1_555
C2C S1C 1_555 1_555
C3C O2C 1_555 1_555
C4C O3C 1_555 1_555
C5C C2C 1_555 1_555
H1C C5C 1_555 1_555
C6C C1C 1_555 1_555
H2C C6C 1_555 1_555
C7F N1 1_555 1_555
C8F C7F 1_555 1_555
O4 In1A 1_555 1_555
C2 C3 1_555 1_555
C5 C6 1_555 1_555
O4C C4C 1_555 1_555
C2C C3C 1_555 1_555
C5C C6C 1_555 1_555

#END
