
#######################################################################
#
#                 Cambridge Crystallographic Data Centre
#                                CCDC 
#
#######################################################################
#
# If this CIF has been generated from an entry in the Cambridge 
# Structural Database, then it will include bibliographic, chemical, 
# crystal, experimental, refinement or atomic coordinate data resulting 
# from the CCDC's data processing and validation procedures.
#
#######################################################################

data_SOKKUZ
_symmetry_cell_setting           tetragonal
_symmetry_space_group_name_H-M   'P 41 2 2'
_symmetry_Int_Tables_number      91
_space_group_name_Hall           'P 4w 2c'
loop_
_symmetry_equiv_pos_site_id
_symmetry_equiv_pos_as_xyz
1 x,y,z
2 -x,-y,1/2+z
3 -y,x,1/4+z
4 y,-x,3/4+z
5 -x,y,-z
6 x,-y,1/2-z
7 y,x,3/4-z
8 -y,-x,1/4-z
_cell_length_a                   13.565(5)
_cell_length_b                   13.565(5)
_cell_length_c                   15.503(13)
_cell_angle_alpha                90
_cell_angle_beta                 90
_cell_angle_gamma                90
_cell_volume                     2852.7
loop_
_atom_site_label
_atom_site_type_symbol
_atom_site_fract_x
_atom_site_fract_y
_atom_site_fract_z
In1 In 0.42366(5) 0.0000 0.2500
S1 S 0.22329(17) 0.28493(17) 0.10762(14)
O1 O 0.3071(4) 0.1063(4) 0.2900(3)
O2 O 0.3520(4) 0.1139(4) 0.1556(3)
O3 O 0.0263(3) 0.4978(4) 0.1228(3)
O4 O 0.1209(4) 0.4526(4) 0.0153(4)
C2 C 0.2304(6) 0.2255(5) 0.2044(5)
C3 C 0.1668(7) 0.2635(6) 0.2625(5)
H1 H 0.1581 0.2384 0.3178
C4 C 0.1147(6) 0.3462(7) 0.2295(5)
H2 H 0.0703 0.3834 0.2615
C5 C 0.1371(6) 0.3645(6) 0.1466(5)
C6 C 0.2984(6) 0.1439(6) 0.2167(5)
C7 C 0.0932(6) 0.4430(6) 0.0903(5)
In1C In 0.0000 0.57634(5) 0.0000
In1B In 1.0000 0.42366(5) 0.5000
S1B S 0.71507(17) 0.22329(17) 0.35762(14)
O1B O 0.8937(4) 0.3071(4) 0.5400(3)
O1E O 0.3071(4) -0.1063(4) 0.2100(3)
O2B O 0.8861(4) 0.3520(4) 0.4056(3)
O2E O 0.3520(4) -0.1139(4) 0.3444(3)
O3B O 0.5022(4) 0.0263(3) 0.3728(3)
O3G O 0.5022(4) -0.0263(3) 0.1272(3)
O4B O 0.5474(4) 0.1209(4) 0.2653(4)
O4G O 0.5474(4) -0.1209(4) 0.2347(4)
C2B C 0.7745(5) 0.2304(6) 0.4544(5)
C3B C 0.7365(6) 0.1668(7) 0.5125(5)
H1B H 0.7616 0.1581 0.5678
C4B C 0.6538(7) 0.1147(6) 0.4795(5)
H2B H 0.6166 0.0703 0.5115
C5B C 0.6355(6) 0.1371(6) 0.3966(5)
C6B C 0.8561(6) 0.2984(6) 0.4667(5)
C7B C 0.5570(6) 0.0932(6) 0.3403(5)
C1 C 0.5587(16) 0.1947(17) 0.0604(15)
N1 N 0.5000 0.155(2) 0.0000
C1D C 0.4413(16) 0.1947(17) -0.0604(15)
loop_
_geom_bond_atom_site_label_1
_geom_bond_atom_site_label_2
_geom_bond_site_symmetry_1
_geom_bond_site_symmetry_2
C1 N1 1_555 1_555
N1 C1D 1_555 1_555
In1 O1 1_555 1_555
S1 C2 1_555 1_555
O1 C6 1_555 1_555
O2 In1 1_555 1_555
O3 C7 1_555 1_555
O4 C7 1_555 1_555
C2 C3 1_555 1_555
C3 H1 1_555 1_555
C4 C3 1_555 1_555
H2 C4 1_555 1_555
C5 S1 1_555 1_555
C6 O2 1_555 1_555
C7 C5 1_555 1_555
In1C O3 1_555 1_555
In1B O1B 1_555 1_555
S1B C2B 1_555 1_555
O1B C6B 1_555 1_555
O1E In1 1_555 1_555
O2B In1B 1_555 1_555
O2E In1 1_555 1_555
O3B In1 1_555 1_555
O3G In1 1_555 1_555
O4B In1 1_555 1_555
O4G In1 1_555 1_555
C2B C3B 1_555 1_555
C3B H1B 1_555 1_555
C4B C3B 1_555 1_555
H2B C4B 1_555 1_555
C5B S1B 1_555 1_555
C6B O2B 1_555 1_555
C7B O3B 1_555 1_555
O4 In1C 1_555 1_555
C2 C6 1_555 1_555
C4 C5 1_555 1_555
O4B C7B 1_555 1_555
C2B C6B 1_555 1_555
C4B C5B 1_555 1_555
C5B C7B 1_555 1_555

#END
