
#######################################################################
#
#                 Cambridge Crystallographic Data Centre
#                                CCDC 
#
#######################################################################
#
# If this CIF has been generated from an entry in the Cambridge 
# Structural Database, then it will include bibliographic, chemical, 
# crystal, experimental, refinement or atomic coordinate data resulting 
# from the CCDC's data processing and validation procedures.
#
#######################################################################

data_SOKKEK
_symmetry_cell_setting           triclinic
_symmetry_space_group_name_H-M   'P -1'
_symmetry_Int_Tables_number      2
_space_group_name_Hall           '-P 1'
loop_
_symmetry_equiv_pos_site_id
_symmetry_equiv_pos_as_xyz
1 x,y,z
2 -x,-y,-z
_cell_length_a                   10.123(2)
_cell_length_b                   10.2447(13)
_cell_length_c                   11.051(3)
_cell_angle_alpha                70.70(3)
_cell_angle_beta                 80.89(3)
_cell_angle_gamma                68.36(3)
_cell_volume                     1004.56
loop_
_atom_site_label
_atom_site_type_symbol
_atom_site_fract_x
_atom_site_fract_y
_atom_site_fract_z
Mn1 Mn 0.08279(5) 0.55340(5) 0.70119(5)
O1 O -0.0457(3) 0.4140(3) 0.8263(2)
O2 O 0.0841(3) 0.3334(3) 0.6701(2)
O3 O -0.0145(3) -0.2804(3) 0.7929(2)
O4 O 0.1147(3) -0.1630(3) 0.6495(3)
O5 O -0.3378(4) -0.0514(4) 1.0980(3)
O6 O -0.2996(3) 0.1207(3) 1.1396(2)
O7 O -0.0875(3) 0.6831(3) 0.5675(3)
N1 N 0.3314(3) 0.3571(3) 1.0414(3)
N2 N 0.4361(3) 0.2865(3) 0.9684(3)
N3 N 0.2452(3) 0.4355(3) 0.8521(3)
N4 N 0.3938(3) 0.4636(3) 1.3945(3)
N5 N 0.3667(3) 0.6109(3) 1.3560(3)
N6 N 0.2436(3) 0.5431(3) 1.5397(3)
N7 N -0.2824(3) 0.0420(4) 1.0731(3)
C1 C 0.3546(4) 0.3336(4) 1.1756(3)
H1 H 0.3939 0.2289 1.2183
H2 H 0.2642 0.3724 1.2187
C2 C 0.4540(4) 0.4072(4) 1.1855(3)
H3 H 0.4090 0.5128 1.1514
H4 H 0.5391 0.3776 1.1326
C3 C 0.4966(4) 0.3717(4) 1.3214(3)
H5 H 0.5082 0.2694 1.3662
H6 H 0.5879 0.3837 1.3179
C4 C 0.3782(4) 0.3381(4) 0.8565(3)
H7 H 0.4257 0.3095 0.7853
C5 C 0.2192(4) 0.4446(4) 0.9714(3)
H8 H 0.1349 0.5035 1.0013
C6 C 0.2751(4) 0.6525(4) 1.4468(3)
H9 H 0.2353 0.7501 1.4466
C7 C 0.3211(4) 0.4262(4) 1.5020(3)
H10 H 0.3239 0.3306 1.5457
C8 C -0.0505(3) 0.1906(3) 0.8107(3)
C9 C 0.0015(4) 0.0783(4) 0.7530(3)
H11 H 0.0658 0.0857 0.6830
C10 C -0.0404(4) -0.0437(4) 0.7976(3)
C11 C -0.1376(4) -0.0541(4) 0.9004(3)
H12 H -0.1688 -0.1344 0.9305
C12 C -0.1873(3) 0.0573(4) 0.9574(3)
C13 C -0.1459(3) 0.1789(3) 0.9150(3)
H13 H -0.1813 0.2520 0.9556
C14 C -0.0015(4) 0.3211(4) 0.7654(3)
C15 C 0.0259(4) -0.1709(4) 0.7411(4)
H14 H -0.136(4) 0.761(5) 0.568(4)
H15 H -0.079(5) 0.679(6) 0.492(2)
Mn1_2 Mn 0.08279(5) -0.44660(5) 0.70119(5)
Mn1_3 Mn 0.08279(5) 0.55340(5) 1.70119(5)
O3_2 O -0.0145(3) 0.7196(3) 0.7929(2)
N6_2 N 0.2436(3) 0.5431(3) 0.5397(3)
O8 O -0.4616(5) -0.0704(4) 1.3684(4)
H16 H -0.454(4) -0.010(5) 1.401(4)
H17 H -0.463(6) -0.033(5) 1.2871(18)
O9 O -0.7328(4) 0.0187(4) 1.4993(4)
H18 H -0.777(5) -0.039(5) 1.539(5)
H19 H -0.666(4) -0.018(6) 1.451(4)
loop_
_geom_bond_atom_site_label_1
_geom_bond_atom_site_label_2
_geom_bond_site_symmetry_1
_geom_bond_site_symmetry_2
Mn1 O1 1_555 1_555
O1 C14 1_555 1_555
O2 Mn1 1_555 1_555
O3 C15 1_555 1_555
O4 C15 1_555 1_555
O5 N7 1_555 1_555
O6 N7 1_555 1_555
O7 Mn1 1_555 1_555
N1 N2 1_555 1_555
N2 C4 1_555 1_555
N3 Mn1 1_555 1_555
N4 N5 1_555 1_555
N5 C6 1_555 1_555
N6 C6 1_555 1_555
N7 C12 1_555 1_555
C1 N1 1_555 1_555
H1 C1 1_555 1_555
H2 C1 1_555 1_555
C2 C1 1_555 1_555
H3 C2 1_555 1_555
H4 C2 1_555 1_555
C3 N4 1_555 1_555
H5 C3 1_555 1_555
H6 C3 1_555 1_555
C4 N3 1_555 1_555
H7 C4 1_555 1_555
C5 N1 1_555 1_555
H8 C5 1_555 1_555
C6 H9 1_555 1_555
C7 N4 1_555 1_555
H10 C7 1_555 1_555
C8 C9 1_555 1_555
C9 H11 1_555 1_555
C10 C9 1_555 1_555
C11 C10 1_555 1_555
H12 C11 1_555 1_555
C12 C11 1_555 1_555
C13 C8 1_555 1_555
H13 C13 1_555 1_555
C14 O2 1_555 1_555
C15 C10 1_555 1_555
H14 O7 1_555 1_555
H15 O7 1_555 1_555
O8 H16 1_555 1_555
H17 O8 1_555 1_555
O9 H18 1_555 1_555
H19 O9 1_555 1_555
Mn1_2 O3 1_555 1_555
Mn1_3 N6 1_555 1_555
O3_2 Mn1 1_555 1_555
N6_2 Mn1 1_555 1_555
N3 C5 1_555 1_555
N6 C7 1_555 1_555
C2 C3 1_555 1_555
C8 C14 1_555 1_555
C12 C13 1_555 1_555

#END
