
#######################################################################
#
#                 Cambridge Crystallographic Data Centre
#                                CCDC 
#
#######################################################################
#
# If this CIF has been generated from an entry in the Cambridge 
# Structural Database, then it will include bibliographic, chemical, 
# crystal, experimental, refinement or atomic coordinate data resulting 
# from the CCDC's data processing and validation procedures.
#
#######################################################################

data_SOKLUB
_symmetry_cell_setting           orthorhombic
_symmetry_space_group_name_H-M   'P b c n'
_symmetry_Int_Tables_number      60
_space_group_name_Hall           '-P 2n 2ab'
loop_
_symmetry_equiv_pos_site_id
_symmetry_equiv_pos_as_xyz
1 x,y,z
2 1/2-x,1/2-y,1/2+z
3 1/2+x,1/2-y,-z
4 -x,y,1/2-z
5 -x,-y,-z
6 1/2+x,1/2+y,1/2-z
7 1/2-x,1/2+y,z
8 x,-y,1/2+z
_cell_length_a                   23.8663(9)
_cell_length_b                   8.9741(6)
_cell_length_c                   16.8848(7)
_cell_angle_alpha                90
_cell_angle_beta                 90
_cell_angle_gamma                90
_cell_volume                     3616.36
loop_
_atom_site_label
_atom_site_type_symbol
_atom_site_fract_x
_atom_site_fract_y
_atom_site_fract_z
Hg1 Hg 0.33531(2) 0.37146(5) 0.68709(3)
S1 S 0.40643(10) 0.6071(3) 0.60148(18)
S2 S 0.35084(13) 0.6270(3) 0.81344(19)
O1 O 0.3879(7) 0.1479(14) 0.6281(7)
O2 O 0.4158(9) 0.0579(15) 0.5167(9)
O3 O 0.3958(7) 0.2869(12) 0.5268(8)
O4 O 0.2705(6) 0.1614(13) 0.6911(9)
O5 O 0.3123(6) 0.1189(13) 0.8000(10)
O6 O 0.2641(5) -0.0549(9) 0.7478(9)
N1 N 0.3999(5) 0.1659(12) 0.5559(7)
N2 N 0.2817(4) 0.0770(11) 0.7488(10)
N3 N 0.3048(5) 0.4912(11) 0.5832(6)
N4 N 0.3942(4) 0.3642(10) 0.7859(6)
C1 C 0.5049(5) 0.8076(11) 0.6675(7)
H1 H 0.5087 0.8147 0.6129
C2 C 0.4507(4) 0.8023(11) 0.7008(7)
C3 C 0.4461(5) 0.8025(11) 0.7845(7)
C4 C 0.4018(5) 0.7935(11) 0.6475(8)
H2 H 0.4034 0.8711 0.6076
H3 H 0.3672 0.8039 0.6772
C5 C 0.3409(5) 0.5942(12) 0.5525(6)
C6 C 0.3285(5) 0.6726(13) 0.4843(9)
H4 H 0.3535 0.7401 0.4620
C7 C 0.2763(5) 0.6441(16) 0.4512(9)
H5 H 0.2663 0.6958 0.4056
C8 C 0.2386(7) 0.5437(16) 0.4821(10)
H6 H 0.2034 0.5280 0.4599
C9 C 0.2570(7) 0.4669(16) 0.5492(9)
H7 H 0.2337 0.3944 0.5706
C10 C 0.3906(5) 0.7980(13) 0.8268(7)
H8 H 0.3679 0.8809 0.8084
H9 H 0.3971 0.8123 0.8830
C11 C 0.3986(5) 0.4847(13) 0.8317(7)
C12 C 0.4386(5) 0.4873(14) 0.8915(9)
H10 H 0.4426 0.5720 0.9227
C13 C 0.4730(5) 0.3640(15) 0.9050(9)
H11 H 0.4998 0.3655 0.9450
C14 C 0.4663(6) 0.2383(15) 0.8571(9)
H12 H 0.4878 0.1533 0.8649
C15 C 0.4263(5) 0.2444(16) 0.7974(8)
H13 H 0.4217 0.1624 0.7644
S1C S 0.59357(10) 0.6071(3) 0.89852(18)
S2C S 0.64916(13) 0.6270(3) 0.68656(19)
N3C N 0.6952(5) 0.4912(11) 0.9168(6)
N4C N 0.6058(4) 0.3642(10) 0.7141(6)
C1C C 0.4951(5) 0.8076(11) 0.8325(7)
H1C H 0.4913 0.8147 0.8871
C2C C 0.5493(4) 0.8023(11) 0.7992(7)
C3C C 0.5539(5) 0.8025(11) 0.7155(7)
C4C C 0.5982(5) 0.7935(11) 0.8525(8)
H2C H 0.5966 0.8711 0.8924
H3C H 0.6328 0.8039 0.8228
C5C C 0.6591(5) 0.5942(12) 0.9475(6)
C6C C 0.6715(5) 0.6726(13) 1.0157(9)
H4C H 0.6465 0.7401 1.0380
C7C C 0.7237(5) 0.6441(16) 1.0488(9)
H5C H 0.7337 0.6958 1.0944
C8C C 0.7614(7) 0.5437(16) 1.0179(10)
H6C H 0.7966 0.5280 1.0401
C9C C 0.7430(7) 0.4669(16) 0.9508(9)
H7C H 0.7663 0.3944 0.9294
C10C C 0.6094(5) 0.7980(13) 0.6732(7)
H8C H 0.6321 0.8809 0.6916
H9C H 0.6029 0.8123 0.6170
C11C C 0.6014(5) 0.4847(13) 0.6683(7)
C12C C 0.5614(5) 0.4873(14) 0.6085(9)
H10C H 0.5574 0.5720 0.5773
C13C C 0.5270(5) 0.3640(15) 0.5950(9)
H11C H 0.5002 0.3655 0.5550
C14C C 0.5337(6) 0.2383(15) 0.6429(9)
H12C H 0.5122 0.1533 0.6351
C15C C 0.5737(5) 0.2444(16) 0.7026(8)
H13C H 0.5783 0.1624 0.7356
Hg1C Hg 0.66469(2) 0.37146(5) 0.81291(3)
O1C O 0.6121(7) 0.1479(14) 0.8719(7)
O2C O 0.5842(9) 0.0579(15) 0.9833(9)
O3C O 0.6042(7) 0.2869(12) 0.9732(8)
O4C O 0.7295(6) 0.1614(13) 0.8089(9)
O5C O 0.6877(6) 0.1189(13) 0.7000(10)
O6C O 0.7359(5) -0.0549(9) 0.7522(9)
N1C N 0.6001(5) 0.1659(12) 0.9441(7)
N2C N 0.7183(4) 0.0770(11) 0.7512(10)
Hg1E Hg 0.83531(2) -0.12854(5) 0.81291(3)
Hg1F Hg 0.16469(2) -0.12854(5) 0.68709(3)
O6E O 0.7641(5) 0.4451(9) 0.7522(9)
O6F O 0.2359(5) 0.4451(9) 0.7478(9)
loop_
_geom_bond_atom_site_label_1
_geom_bond_atom_site_label_2
_geom_bond_site_symmetry_1
_geom_bond_site_symmetry_2
Hg1 S1 1_555 1_555
S1 C4 1_555 1_555
S2 Hg1 1_555 1_555
O1 Hg1 1_555 1_555
O2 N1 1_555 1_555
O3 N1 1_555 1_555
O4 Hg1 1_555 1_555
O5 Hg1 1_555 1_555
O6 N2 1_555 1_555
N1 O1 1_555 1_555
N2 O4 1_555 1_555
N3 Hg1 1_555 1_555
N4 Hg1 1_555 1_555
C1 H1 1_555 1_555
C2 C1 1_555 1_555
C3 C2 1_555 1_555
C4 C2 1_555 1_555
H2 C4 1_555 1_555
H3 C4 1_555 1_555
C5 S1 1_555 1_555
C6 C5 1_555 1_555
H4 C6 1_555 1_555
C7 C6 1_555 1_555
H5 C7 1_555 1_555
C8 C7 1_555 1_555
H6 C8 1_555 1_555
C9 N3 1_555 1_555
H7 C9 1_555 1_555
C10 S2 1_555 1_555
H8 C10 1_555 1_555
H9 C10 1_555 1_555
C11 S2 1_555 1_555
C12 C11 1_555 1_555
H10 C12 1_555 1_555
C13 C12 1_555 1_555
H11 C13 1_555 1_555
C14 C13 1_555 1_555
H12 C14 1_555 1_555
C15 N4 1_555 1_555
H13 C15 1_555 1_555
S1C C4C 1_555 1_555
S2C C10C 1_555 1_555
N3C C5C 1_555 1_555
N4C C11C 1_555 1_555
C1C C3 1_555 1_555
H1C C1C 1_555 1_555
C2C C1C 1_555 1_555
C3C C1 1_555 1_555
C4C C2C 1_555 1_555
H2C C4C 1_555 1_555
H3C C4C 1_555 1_555
C5C S1C 1_555 1_555
C6C C5C 1_555 1_555
H4C C6C 1_555 1_555
C7C C6C 1_555 1_555
H5C C7C 1_555 1_555
C8C C7C 1_555 1_555
H6C C8C 1_555 1_555
C9C N3C 1_555 1_555
H7C C9C 1_555 1_555
C10C C3C 1_555 1_555
H8C C10C 1_555 1_555
H9C C10C 1_555 1_555
C11C S2C 1_555 1_555
C12C C11C 1_555 1_555
H10C C12C 1_555 1_555
C13C C12C 1_555 1_555
H11C C13C 1_555 1_555
C14C C13C 1_555 1_555
H12C C14C 1_555 1_555
C15C N4C 1_555 1_555
H13C C15C 1_555 1_555
Hg1C S1C 1_555 1_555
O1C Hg1C 1_555 1_555
O2C N1C 1_555 1_555
O3C N1C 1_555 1_555
O4C Hg1C 1_555 1_555
O5C Hg1C 1_555 1_555
O6C N2C 1_555 1_555
N1C O1C 1_555 1_555
N2C O4C 1_555 1_555
Hg1E O6C 1_555 1_555
Hg1F O6 1_555 1_555
O6E Hg1C 1_555 1_555
O6F Hg1 1_555 1_555
O5 N2 1_555 1_555
N3 C5 1_555 1_555
N4 C11 1_555 1_555
C3 C10 1_555 1_555
C8 C9 1_555 1_555
C14 C15 1_555 1_555
S2C Hg1C 1_555 1_555
N3C Hg1C 1_555 1_555
N4C Hg1C 1_555 1_555
C2C C3C 1_555 1_555
C8C C9C 1_555 1_555
C14C C15C 1_555 1_555
O5C N2C 1_555 1_555

#END
