
#######################################################################
#
#                 Cambridge Crystallographic Data Centre
#                                CCDC 
#
#######################################################################
#
# If this CIF has been generated from an entry in the Cambridge 
# Structural Database, then it will include bibliographic, chemical, 
# crystal, experimental, refinement or atomic coordinate data resulting 
# from the CCDC's data processing and validation procedures.
#
#######################################################################

data_SOKMOW
_symmetry_cell_setting           triclinic
_symmetry_space_group_name_H-M   'P -1'
_symmetry_Int_Tables_number      2
_space_group_name_Hall           '-P 1'
loop_
_symmetry_equiv_pos_site_id
_symmetry_equiv_pos_as_xyz
1 x,y,z
2 -x,-y,-z
_cell_length_a                   9.9905(5)
_cell_length_b                   13.2420(6)
_cell_length_c                   15.4464(7)
_cell_angle_alpha                107.2920(10)
_cell_angle_beta                 95.8580(10)
_cell_angle_gamma                97.4250(10)
_cell_volume                     1913.34
loop_
_atom_site_label
_atom_site_type_symbol
_atom_site_fract_x
_atom_site_fract_y
_atom_site_fract_z
O10 O 0.3785(4) 0.7154(4) 0.2315(3)
H35 H 0.4250 0.6666 0.2336
H36 H 0.3010 0.7142 0.2496
O11 O 0.9591(4) 0.2778(3) 0.2172(3)
H37 H 1.0269 0.2769 0.2548
H38 H 0.9153 0.2193 0.1794
Eu1 Eu 1.04891(3) 0.60333(2) 0.341925(17)
C1 C 0.7351(5) 1.0052(4) -0.0285(3)
C2 C 0.6583(5) 1.0004(4) -0.1106(3)
H1 H 0.6530 0.9411 -0.1622
C3 C 0.5898(5) 1.0836(4) -0.1160(3)
C4 C 0.5935(5) 1.1700(4) -0.0377(4)
H2 H 0.5495 1.2267 -0.0414
C5 C 0.6625(5) 1.1727(4) 0.0462(3)
C6 C 0.7345(5) 1.0895(4) 0.0508(3)
H3 H 0.7813 1.0907 0.1064
C7 C 0.8621(5) 0.8863(4) 0.0366(4)
C8 C 0.7980(5) 0.8917(4) 0.1138(4)
H4 H 0.7241 0.9278 0.1227
C9 C 0.8425(5) 0.8446(4) 0.1763(4)
H5 H 0.7985 0.8493 0.2272
C10 C 0.9532(5) 0.7892(4) 0.1654(4)
C11 C 1.0156(5) 0.7832(4) 0.0882(4)
H6 H 1.0892 0.7468 0.0794
C12 C 0.9716(5) 0.8296(4) 0.0245(4)
H7 H 1.0147 0.8234 -0.0270
C13 C 0.9974(5) 0.7353(4) 0.2316(4)
C14 C 0.4553(5) 1.0010(4) -0.2709(3)
C15 C 0.4299(6) 1.0136(4) -0.3580(4)
H8 H 0.4658 1.0777 -0.3667
C16 C 0.3525(6) 0.9327(4) -0.4311(4)
H9 H 0.3355 0.9438 -0.4876
C17 C 0.2997(5) 0.8350(4) -0.4215(4)
C18 C 0.3277(5) 0.8211(4) -0.3360(4)
H10 H 0.2942 0.7557 -0.3287
C19 C 0.4031(5) 0.9007(4) -0.2623(4)
H11 H 0.4200 0.8886 -0.2062
C20 C 0.2114(5) 0.7508(4) -0.4999(4)
C21 C 0.5678(5) 1.3110(4) 0.1602(3)
C22 C 0.5964(5) 1.3962(4) 0.2427(4)
H12 H 0.6846 1.4156 0.2749
C23 C 0.4962(5) 1.4513(4) 0.2765(4)
H13 H 0.5181 1.5079 0.3310
C24 C 0.3625(5) 1.4248(4) 0.2316(3)
C25 C 0.3328(5) 1.3377(4) 0.1512(4)
H14 H 0.2435 1.3165 0.1209
C26 C 0.4325(5) 1.2824(4) 0.1158(4)
H15 H 0.4099 1.2253 0.0616
C27 C 0.2563(5) 1.4864(4) 0.2679(3)
C28 C 0.6881(11) 0.6307(10) 0.5572(7)
H16 H 0.7641 0.5928 0.5521
H17 H 0.6053 0.5809 0.5485
H18 H 0.7000 0.6830 0.6169
C29 C 0.5730(8) 0.7452(7) 0.4848(6)
H19 H 0.5834 0.7782 0.4377
H20 H 0.5782 0.7998 0.5427
H21 H 0.4859 0.6991 0.4706
C30 C 0.7735(8) 0.6797(6) 0.4335(5)
H22 H 0.7657 0.7188 0.3928
C31 C 0.7774(9) 0.4770(6) -0.0213(4)
H23 H 0.8539 0.4408 -0.0339
H24 H 0.7870 0.5392 -0.0413
H25 H 0.6947 0.4294 -0.0534
C32 C 0.6624(6) 0.5666(5) 0.1094(5)
H26 H 0.6707 0.5837 0.1749
H27 H 0.5758 0.5221 0.0817
H28 H 0.6685 0.6316 0.0934
C33 C 0.8622(6) 0.4881(4) 0.1333(4)
H29 H 0.9306 0.4522 0.1088
N1 N 0.8189(4) 0.9277(3) -0.0318(3)
H30 H 0.8474 0.9022 -0.0833
N2 N 0.5238(4) 1.0865(3) -0.1996(3)
H31 H 0.5269 1.1487 -0.2068
N3 N 0.6717(4) 1.2593(3) 0.1269(3)
H32 H 0.7513 1.2826 0.1591
N4 N 0.6807(5) 0.6827(4) 0.4897(3)
N5 N 0.7723(5) 0.5094(4) 0.0763(3)
O1 O 0.9348(4) 0.7398(3) 0.3002(2)
O2 O 1.0939(4) 0.6806(3) 0.2185(2)
O3 O 0.1623(4) 0.6609(3) -0.4936(2)
O4 O 0.1879(4) 0.7726(3) -0.5738(3)
O5 O 0.1321(3) 1.4565(3) 0.2287(2)
O6 O 0.2876(4) 1.5697(3) 0.3365(2)
O7 O 0.8665(4) 0.6305(4) 0.4313(3)
O8 O 0.8633(4) 0.5119(3) 0.2175(3)
O9 O 0.9826(4) 0.4378(3) 0.3800(3)
H33 H 0.9124 0.3931 0.3498
H34 H 1.0301 0.4255 0.4235
Eu1_2 Eu 0.04891(3) 0.60333(2) -0.658075(17)
Eu1_3 Eu 0.04891(3) 1.60333(2) 0.341925(17)
O3_2 O 1.1623(4) 0.6609(3) 0.5064(2)
O4_2 O 1.1879(4) 0.7726(3) 0.4262(3)
O5_2 O 1.1321(3) 0.4565(3) 0.2287(2)
O6_2 O 1.2876(4) 0.5697(3) 0.3365(2)
loop_
_geom_bond_atom_site_label_1
_geom_bond_atom_site_label_2
_geom_bond_site_symmetry_1
_geom_bond_site_symmetry_2
Eu1 O1 1_555 1_555
C1 C2 1_555 1_555
C2 H1 1_555 1_555
C3 C2 1_555 1_555
C4 C3 1_555 1_555
H2 C4 1_555 1_555
C5 C4 1_555 1_555
C6 C1 1_555 1_555
H3 C6 1_555 1_555
C7 C8 1_555 1_555
C8 H4 1_555 1_555
C9 C8 1_555 1_555
H5 C9 1_555 1_555
C10 C9 1_555 1_555
C11 C10 1_555 1_555
H6 C11 1_555 1_555
C12 C7 1_555 1_555
H7 C12 1_555 1_555
C13 C10 1_555 1_555
C14 C15 1_555 1_555
C15 H8 1_555 1_555
C16 C15 1_555 1_555
H9 C16 1_555 1_555
C17 C16 1_555 1_555
C18 C17 1_555 1_555
H10 C18 1_555 1_555
C19 C14 1_555 1_555
H11 C19 1_555 1_555
C20 C17 1_555 1_555
C21 C22 1_555 1_555
C22 H12 1_555 1_555
C23 C22 1_555 1_555
H13 C23 1_555 1_555
C24 C23 1_555 1_555
C25 C24 1_555 1_555
H14 C25 1_555 1_555
C26 C21 1_555 1_555
H15 C26 1_555 1_555
C27 C24 1_555 1_555
C28 H16 1_555 1_555
H17 C28 1_555 1_555
H18 C28 1_555 1_555
C29 H19 1_555 1_555
H20 C29 1_555 1_555
H21 C29 1_555 1_555
C30 H22 1_555 1_555
C31 H23 1_555 1_555
H24 C31 1_555 1_555
H25 C31 1_555 1_555
C32 H26 1_555 1_555
H27 C32 1_555 1_555
H28 C32 1_555 1_555
C33 H29 1_555 1_555
N1 C1 1_555 1_555
H30 N1 1_555 1_555
N2 C3 1_555 1_555
H31 N2 1_555 1_555
N3 C5 1_555 1_555
H32 N3 1_555 1_555
N4 C28 1_555 1_555
N5 C31 1_555 1_555
O1 C13 1_555 1_555
O2 Eu1 1_555 1_555
O3 C20 1_555 1_555
O4 C20 1_555 1_555
O5 C27 1_555 1_555
O6 C27 1_555 1_555
O7 Eu1 1_555 1_555
O8 Eu1 1_555 1_555
O9 Eu1 1_555 1_555
H33 O9 1_555 1_555
H34 O9 1_555 1_555
O10 H35 1_555 1_555
H36 O10 1_555 1_555
O11 H37 1_555 1_555
H38 O11 1_555 1_555
Eu1_2 O3 1_555 1_555
Eu1_3 O5 1_555 1_555
O3_2 Eu1 1_555 1_555
O4_2 Eu1 1_555 1_555
O5_2 Eu1 1_555 1_555
O6_2 Eu1 1_555 1_555
C5 C6 1_555 1_555
C7 N1 1_555 1_555
C11 C12 1_555 1_555
C13 O2 1_555 1_555
C14 N2 1_555 1_555
C18 C19 1_555 1_555
C21 N3 1_555 1_555
C25 C26 1_555 1_555
C29 N4 1_555 1_555
C30 N4 1_555 1_555
C30 O7 1_555 1_555
C32 N5 1_555 1_555
C33 N5 1_555 1_555
C33 O8 1_555 1_555
O4 Eu1_2 1_555 1_555
O6 Eu1_3 1_555 1_555

#END
