
#######################################################################
#
#                 Cambridge Crystallographic Data Centre
#                                CCDC 
#
#######################################################################
#
# If this CIF has been generated from an entry in the Cambridge 
# Structural Database, then it will include bibliographic, chemical, 
# crystal, experimental, refinement or atomic coordinate data resulting 
# from the CCDC's data processing and validation procedures.
#
#######################################################################

data_SOKMUC
_symmetry_cell_setting           triclinic
_symmetry_space_group_name_H-M   'P -1'
_symmetry_Int_Tables_number      2
_space_group_name_Hall           '-P 1'
loop_
_symmetry_equiv_pos_site_id
_symmetry_equiv_pos_as_xyz
1 x,y,z
2 -x,-y,-z
_cell_length_a                   9.9808(5)
_cell_length_b                   13.2130(7)
_cell_length_c                   15.4078(8)
_cell_angle_alpha                107.4350(10)
_cell_angle_beta                 95.8690(10)
_cell_angle_gamma                97.2850(10)
_cell_volume                     1901.69
loop_
_atom_site_label
_atom_site_type_symbol
_atom_site_fract_x
_atom_site_fract_y
_atom_site_fract_z
O10 O 0.5416(4) 0.7211(3) 0.2823(3)
H35 H 0.4796 0.7554 0.3040
H36 H 0.6218 0.7545 0.2866
O11 O 0.1218(4) 0.2868(4) 0.2670(3)
H37 H 0.2009 0.2887 0.2939
H38 H 0.0664 0.2287 0.2485
Tb1 Tb 0.45186(3) 0.39631(2) 0.157876(18)
C1 C -0.1626(5) 0.8270(4) 0.4532(4)
C2 C -0.0946(5) 0.8289(4) 0.5372(4)
H1 H -0.0518 0.7715 0.5409
C3 C -0.0902(5) 0.9150(4) 0.6149(4)
C4 C -0.1598(5) 1.0002(4) 0.6109(4)
H2 H -0.1556 1.0595 0.6628
C5 C -0.2356(5) 0.9936(4) 0.5271(4)
C6 C -0.2329(5) 0.9107(4) 0.4493(4)
H3 H -0.2783 0.9101 0.3933
C7 C -0.0659(5) 0.6886(4) 0.3398(4)
C8 C -0.0951(5) 0.6036(4) 0.2566(4)
H4 H -0.1832 0.5848 0.2243
C9 C 0.0060(5) 0.5477(4) 0.2225(4)
H5 H -0.0154 0.4910 0.1676
C10 C 0.1392(5) 0.5746(4) 0.2686(4)
C11 C 0.1676(5) 0.6611(4) 0.3486(4)
H6 H 0.2566 0.6817 0.3795
C12 C 0.0691(5) 0.7175(4) 0.3840(4)
H7 H 0.0922 0.7755 0.4379
C13 C 0.2447(5) 0.5117(4) 0.2307(4)
C14 C 0.0454(5) 1.0005(4) 0.7718(4)
C15 C 0.0717(6) 0.9872(5) 0.8583(4)
H8 H 0.0369 0.9225 0.8664
C16 C 0.1476(6) 1.0678(5) 0.9312(4)
H9 H 0.1629 1.0569 0.9881
C17 C 0.2028(5) 1.1662(4) 0.9217(4)
C18 C 0.1727(6) 1.1808(5) 0.8366(4)
H10 H 0.2047 1.2465 0.8293
C19 C 0.0961(5) 1.0996(4) 0.7624(4)
H11 H 0.0783 1.1111 0.7060
C20 C 0.2919(5) 1.2510(5) 1.0008(4)
C21 C -0.3625(5) 1.1139(4) 0.4629(4)
C22 C -0.2984(5) 1.1074(4) 0.3856(4)
H12 H -0.2255 1.0700 0.3767
C23 C -0.3414(5) 1.1552(4) 0.3229(4)
H13 H -0.2963 1.1507 0.2723
C24 C -0.4525(5) 1.2109(4) 0.3337(4)
C25 C -0.5169(5) 1.2177(4) 0.4109(4)
H14 H -0.5906 1.2544 0.4195
C26 C -0.4720(5) 1.1702(4) 0.4748(4)
H15 H -0.5153 1.1758 0.5263
C27 C -0.4971(5) 1.2653(4) 0.2668(4)
C28 C 0.8130(9) 0.3730(9) -0.0553(6)
H16 H 0.7340 0.4078 -0.0521
H17 H 0.8078 0.3231 -0.1158
H18 H 0.8939 0.4261 -0.0421
C29 C 0.9263(8) 0.2550(7) 0.0153(6)
H19 H 0.9178 0.2239 0.0637
H20 H 1.0131 0.3012 0.0277
H21 H 0.9198 0.1989 -0.0422
C30 C 0.7266(7) 0.3201(6) 0.0666(5)
H22 H 0.7352 0.2812 0.1075
C31 C 0.7229(8) 0.5243(6) 0.5212(5)
H23 H 0.6466 0.5611 0.5334
H24 H 0.8058 0.5719 0.5533
H25 H 0.7128 0.4625 0.5419
C32 C 0.8389(6) 0.4329(6) 0.3901(5)
H26 H 0.8322 0.4155 0.3245
H27 H 0.8323 0.3679 0.4063
H28 H 0.9251 0.4778 0.4186
C33 C 0.6364(5) 0.5095(5) 0.3640(4)
H29 H 0.5660 0.5433 0.3881
N1 N -0.1698(4) 0.7407(3) 0.3730(3)
H30 H -0.2492 0.7171 0.3404
N2 N -0.0233(4) 0.9152(4) 0.7003(3)
H31 H -0.0262 0.8533 0.7082
N3 N -0.3198(4) 1.0724(3) 0.5318(3)
H32 H -0.3482 1.0978 0.5836
N4 N 0.8180(5) 0.3170(5) 0.0103(3)
N5 N 0.7285(5) 0.4899(4) 0.4217(3)
O1 O 0.2154(4) 0.4290(3) 0.1626(3)
O2 O 0.3698(3) 0.5428(3) 0.2709(2)
O3 O 0.3172(4) 1.2285(3) 1.0742(3)
O4 O 0.3392(4) 1.3411(3) 0.9941(3)
O5 O -0.5940(3) 1.3206(3) 0.2806(3)
O6 O -0.4344(4) 1.2605(3) 0.1996(3)
O7 O 0.6320(4) 0.3698(3) 0.0691(3)
O8 O 0.6368(4) 0.4860(3) 0.2795(3)
O9 O 0.5172(4) 0.5603(3) 0.1202(3)
H33 H 0.4714 0.6116 0.1353
H34 H 0.5844 0.5657 0.0917
Tb1_2 Tb -0.54814(3) 1.39631(2) 0.157876(18)
Tb1_3 Tb 0.45186(3) 1.39631(2) 1.157876(18)
O3_2 O 0.3172(4) 0.2285(3) 0.0742(3)
O4_2 O 0.3392(4) 0.3411(3) -0.0059(3)
O5_2 O 0.4060(3) 0.3206(3) 0.2806(3)
O6_2 O 0.5656(4) 0.2605(3) 0.1996(3)
loop_
_geom_bond_atom_site_label_1
_geom_bond_atom_site_label_2
_geom_bond_site_symmetry_1
_geom_bond_site_symmetry_2
Tb1 O1 1_555 1_555
C1 C2 1_555 1_555
C2 H1 1_555 1_555
C3 C2 1_555 1_555
C4 C3 1_555 1_555
H2 C4 1_555 1_555
C5 C4 1_555 1_555
C6 C1 1_555 1_555
H3 C6 1_555 1_555
C7 C8 1_555 1_555
C8 H4 1_555 1_555
C9 C8 1_555 1_555
H5 C9 1_555 1_555
C10 C9 1_555 1_555
C11 C10 1_555 1_555
H6 C11 1_555 1_555
C12 C7 1_555 1_555
H7 C12 1_555 1_555
C13 C10 1_555 1_555
C14 C15 1_555 1_555
C15 H8 1_555 1_555
C16 C15 1_555 1_555
H9 C16 1_555 1_555
C17 C16 1_555 1_555
C18 C17 1_555 1_555
H10 C18 1_555 1_555
C19 C14 1_555 1_555
H11 C19 1_555 1_555
C20 C17 1_555 1_555
C21 C22 1_555 1_555
C22 H12 1_555 1_555
C23 C22 1_555 1_555
H13 C23 1_555 1_555
C24 C23 1_555 1_555
C25 C24 1_555 1_555
H14 C25 1_555 1_555
C26 C21 1_555 1_555
H15 C26 1_555 1_555
C27 C24 1_555 1_555
C28 H16 1_555 1_555
H17 C28 1_555 1_555
H18 C28 1_555 1_555
C29 H19 1_555 1_555
H20 C29 1_555 1_555
H21 C29 1_555 1_555
C30 H22 1_555 1_555
C31 H23 1_555 1_555
H24 C31 1_555 1_555
H25 C31 1_555 1_555
C32 H26 1_555 1_555
H27 C32 1_555 1_555
H28 C32 1_555 1_555
C33 H29 1_555 1_555
N1 C1 1_555 1_555
H30 N1 1_555 1_555
N2 C3 1_555 1_555
H31 N2 1_555 1_555
N3 C5 1_555 1_555
H32 N3 1_555 1_555
N4 C28 1_555 1_555
N5 C31 1_555 1_555
O1 C13 1_555 1_555
O2 Tb1 1_555 1_555
O3 C20 1_555 1_555
O4 C20 1_555 1_555
O5 C27 1_555 1_555
O6 C27 1_555 1_555
O7 Tb1 1_555 1_555
O8 Tb1 1_555 1_555
O9 Tb1 1_555 1_555
H33 O9 1_555 1_555
H34 O9 1_555 1_555
O10 H35 1_555 1_555
H36 O10 1_555 1_555
O11 H37 1_555 1_555
H38 O11 1_555 1_555
Tb1_2 O5 1_555 1_555
Tb1_3 O3 1_555 1_555
O3_2 Tb1 1_555 1_555
O4_2 Tb1 1_555 1_555
O5_2 Tb1 1_555 1_555
O6_2 Tb1 1_555 1_555
C5 C6 1_555 1_555
C7 N1 1_555 1_555
C11 C12 1_555 1_555
C13 O2 1_555 1_555
C14 N2 1_555 1_555
C18 C19 1_555 1_555
C21 N3 1_555 1_555
C25 C26 1_555 1_555
C29 N4 1_555 1_555
C30 N4 1_555 1_555
C30 O7 1_555 1_555
C32 N5 1_555 1_555
C33 N5 1_555 1_555
C33 O8 1_555 1_555
O4 Tb1_3 1_555 1_555
O6 Tb1_2 1_555 1_555

#END
