
#######################################################################
#
#                 Cambridge Crystallographic Data Centre
#                                CCDC 
#
#######################################################################
#
# If this CIF has been generated from an entry in the Cambridge 
# Structural Database, then it will include bibliographic, chemical, 
# crystal, experimental, refinement or atomic coordinate data resulting 
# from the CCDC's data processing and validation procedures.
#
#######################################################################

data_SOKMIQ
_symmetry_cell_setting           triclinic
_symmetry_space_group_name_H-M   'P -1'
_symmetry_Int_Tables_number      2
_space_group_name_Hall           '-P 1'
loop_
_symmetry_equiv_pos_site_id
_symmetry_equiv_pos_as_xyz
1 x,y,z
2 -x,-y,-z
_cell_length_a                   10.071(4)
_cell_length_b                   13.401(6)
_cell_length_c                   15.645(7)
_cell_angle_alpha                106.901(7)
_cell_angle_beta                 96.009(7)
_cell_angle_gamma                96.899(7)
_cell_volume                     1983.87
loop_
_atom_site_label
_atom_site_type_symbol
_atom_site_fract_x
_atom_site_fract_y
_atom_site_fract_z
O10 O 0.1210(5) 0.2850(4) 0.2668(4)
H35 H 0.1765 0.2478 0.2818
H36 H 0.0416 0.2796 0.2805
O11 O 0.5373(4) 0.7222(3) 0.2864(3)
H37 H 0.6121 0.7060 0.2706
H38 H 0.5318 0.7859 0.3144
La1 La 0.45048(3) 0.39649(2) 0.156777(19)
C1 C -0.1628(5) 0.8294(4) 0.4576(3)
C2 C -0.0926(5) 0.8316(4) 0.5390(3)
H1 H -0.0467 0.7746 0.5425
C3 C -0.0888(5) 0.9172(4) 0.6160(3)
C4 C -0.1574(5) 0.9990(4) 0.6110(3)
H2 H -0.1529 1.0582 0.6630
C5 C -0.2332(5) 0.9950(4) 0.5300(3)
C6 C -0.2333(4) 0.9115(4) 0.4524(3)
H3 H -0.2809 0.9103 0.3963
C7 C -0.0682(5) 0.6914(4) 0.3436(3)
C8 C -0.0996(5) 0.6079(4) 0.2631(3)
H4 H -0.1896 0.5888 0.2321
C9 C -0.0009(5) 0.5540(4) 0.2290(3)
H5 H -0.0242 0.4973 0.1743
C10 C 0.1335(5) 0.5787(4) 0.2713(3)
C11 C 0.1638(5) 0.6645(4) 0.3496(3)
H6 H 0.2546 0.6856 0.3791
C12 C 0.0652(5) 0.7198(4) 0.3856(3)
H7 H 0.0886 0.7777 0.4396
C13 C 0.2392(5) 0.5176(4) 0.2338(3)
C14 C 0.0457(5) 0.9997(4) 0.7699(3)
C15 C 0.0683(6) 0.9867(4) 0.8570(4)
H8 H 0.0320 0.9221 0.8657
C16 C 0.1414(6) 1.0657(4) 0.9281(4)
H9 H 0.1569 1.0545 0.9853
C17 C 0.1949(5) 1.1641(4) 0.9188(3)
C18 C 0.1692(5) 1.1763(4) 0.8338(3)
H10 H 0.2041 1.2414 0.8256
C19 C 0.0951(5) 1.0978(4) 0.7610(3)
H11 H 0.0776 1.1103 0.7044
C20 C 0.2797(5) 1.2465(4) 0.9968(3)
C21 C -0.3603(5) 1.1139(4) 0.4650(3)
C22 C -0.2964(5) 1.1069(4) 0.3886(3)
H12 H -0.2213 1.0703 0.3802
C23 C -0.3424(5) 1.1530(4) 0.3255(4)
H13 H -0.2982 1.1475 0.2740
C24 C -0.4523(5) 1.2074(4) 0.3354(3)
C25 C -0.5155(5) 1.2147(4) 0.4119(4)
H14 H -0.5898 1.2522 0.4206
C26 C -0.4703(5) 1.1676(4) 0.4751(3)
H15 H -0.5153 1.1721 0.5262
C27 C -0.4988(5) 1.2600(4) 0.2685(4)
C28 C 0.890(2) 0.3507(15) -0.0545(10)
H16 H 0.8379 0.3976 -0.0773
H17 H 0.8931 0.2872 -0.1043
H18 H 0.9816 0.3875 -0.0290
C29 C 0.8846(16) 0.2571(9) 0.0452(10)
H19 H 0.8377 0.2476 0.0947
H20 H 0.9801 0.2857 0.0683
H21 H 0.8777 0.1888 -0.0014
C30 C 0.7302(10) 0.3610(15) 0.0338(11)
H22 H 0.7302 0.4154 0.0061
C31 C 0.7231(12) 0.5272(8) 0.5266(5)
H23 H 0.6462 0.5650 0.5385
H24 H 0.8071 0.5744 0.5578
H25 H 0.7128 0.4658 0.5488
C32 C 0.8320(8) 0.4328(7) 0.3964(5)
H26 H 0.8245 0.4157 0.3306
H27 H 0.8227 0.3673 0.4128
H28 H 0.9204 0.4752 0.4245
C33 C 0.6391(6) 0.5142(5) 0.3717(4)
H29 H 0.5733 0.5544 0.3968
N1 N -0.1714(4) 0.7441(3) 0.3778(3)
H30 H -0.2523 0.7215 0.3456
N2 N -0.0223(4) 0.9142(3) 0.6992(3)
H31 H -0.0243 0.8516 0.7068
N3 N -0.3174(4) 1.0719(3) 0.5328(3)
H32 H -0.3471 1.0970 0.5845
N4 N 0.8287(5) 0.3231(5) 0.0102(4)
N5 N 0.7277(6) 0.4912(4) 0.4276(4)
O1 O 0.2063(4) 0.4372(3) 0.1644(3)
O2 O 0.3612(3) 0.5456(3) 0.2723(2)
O3 O 0.3004(5) 1.2264(3) 1.0697(3)
O4 O 0.3309(4) 1.3336(3) 0.9884(2)
O5 O -0.5962(4) 1.3122(3) 0.2810(2)
O6 O -0.4367(4) 1.2548(3) 0.2010(3)
O7 O 0.6419(5) 0.3692(4) 0.0681(3)
O8 O 0.6345(4) 0.4879(3) 0.2894(3)
O9 O 0.5263(4) 0.5717(3) 0.1225(3)
H33 H 0.4823 0.6228 0.1377
H34 H 0.5948 0.5777 0.0959
La1_2 La -0.54952(3) 1.39649(2) 0.156777(19)
La1_3 La 0.45048(3) 1.39649(2) 1.156777(19)
O3_2 O 0.3004(5) 0.2264(3) 0.0697(3)
O4_2 O 0.3309(4) 0.3336(3) -0.0116(2)
O5_2 O 0.4038(4) 0.3122(3) 0.2810(2)
O6_2 O 0.5633(4) 0.2548(3) 0.2010(3)
loop_
_geom_bond_atom_site_label_1
_geom_bond_atom_site_label_2
_geom_bond_site_symmetry_1
_geom_bond_site_symmetry_2
La1 O1 1_555 1_555
C1 C2 1_555 1_555
C2 H1 1_555 1_555
C3 C2 1_555 1_555
C4 C3 1_555 1_555
H2 C4 1_555 1_555
C5 C4 1_555 1_555
C6 C1 1_555 1_555
H3 C6 1_555 1_555
C7 C8 1_555 1_555
C8 H4 1_555 1_555
C9 C8 1_555 1_555
H5 C9 1_555 1_555
C10 C9 1_555 1_555
C11 C10 1_555 1_555
H6 C11 1_555 1_555
C12 C7 1_555 1_555
H7 C12 1_555 1_555
C13 C10 1_555 1_555
C14 C15 1_555 1_555
C15 H8 1_555 1_555
C16 C15 1_555 1_555
H9 C16 1_555 1_555
C17 C16 1_555 1_555
C18 C17 1_555 1_555
H10 C18 1_555 1_555
C19 C14 1_555 1_555
H11 C19 1_555 1_555
C20 C17 1_555 1_555
C21 C22 1_555 1_555
C22 H12 1_555 1_555
C23 C22 1_555 1_555
H13 C23 1_555 1_555
C24 C23 1_555 1_555
C25 C24 1_555 1_555
H14 C25 1_555 1_555
C26 C21 1_555 1_555
H15 C26 1_555 1_555
C27 C24 1_555 1_555
C28 H16 1_555 1_555
H17 C28 1_555 1_555
H18 C28 1_555 1_555
C29 H19 1_555 1_555
H20 C29 1_555 1_555
H21 C29 1_555 1_555
C30 H22 1_555 1_555
C31 H23 1_555 1_555
H24 C31 1_555 1_555
H25 C31 1_555 1_555
C32 H26 1_555 1_555
H27 C32 1_555 1_555
H28 C32 1_555 1_555
C33 H29 1_555 1_555
N1 C1 1_555 1_555
H30 N1 1_555 1_555
N2 C3 1_555 1_555
H31 N2 1_555 1_555
N3 C5 1_555 1_555
H32 N3 1_555 1_555
N4 C28 1_555 1_555
N5 C31 1_555 1_555
O1 C13 1_555 1_555
O2 La1 1_555 1_555
O3 C20 1_555 1_555
O4 C20 1_555 1_555
O5 C27 1_555 1_555
O6 C27 1_555 1_555
O7 La1 1_555 1_555
O8 La1 1_555 1_555
O9 La1 1_555 1_555
H33 O9 1_555 1_555
H34 O9 1_555 1_555
O10 H35 1_555 1_555
H36 O10 1_555 1_555
O11 H37 1_555 1_555
H38 O11 1_555 1_555
La1_2 O5 1_555 1_555
La1_3 O3 1_555 1_555
O3_2 La1 1_555 1_555
O4_2 La1 1_555 1_555
O5_2 La1 1_555 1_555
O6_2 La1 1_555 1_555
C5 C6 1_555 1_555
C7 N1 1_555 1_555
C11 C12 1_555 1_555
C13 O2 1_555 1_555
C14 N2 1_555 1_555
C18 C19 1_555 1_555
C21 N3 1_555 1_555
C25 C26 1_555 1_555
C29 N4 1_555 1_555
C30 N4 1_555 1_555
C30 O7 1_555 1_555
C32 N5 1_555 1_555
C33 N5 1_555 1_555
C33 O8 1_555 1_555
O4 La1_3 1_555 1_555
O6 La1_2 1_555 1_555

#END
