
#######################################################################
#
#                 Cambridge Crystallographic Data Centre
#                                CCDC 
#
#######################################################################
#
# If this CIF has been generated from an entry in the Cambridge 
# Structural Database, then it will include bibliographic, chemical, 
# crystal, experimental, refinement or atomic coordinate data resulting 
# from the CCDC's data processing and validation procedures.
#
#######################################################################

data_SOKNAJ
_symmetry_cell_setting           triclinic
_symmetry_space_group_name_H-M   'P -1'
_symmetry_Int_Tables_number      2
_space_group_name_Hall           '-P 1'
loop_
_symmetry_equiv_pos_site_id
_symmetry_equiv_pos_as_xyz
1 x,y,z
2 -x,-y,-z
_cell_length_a                   10.0286(3)
_cell_length_b                   13.2632(3)
_cell_length_c                   15.4066(5)
_cell_angle_alpha                107.730(3)
_cell_angle_beta                 96.065(2)
_cell_angle_gamma                96.308(2)
_cell_volume                     1919.04
loop_
_atom_site_label
_atom_site_type_symbol
_atom_site_fract_x
_atom_site_fract_y
_atom_site_fract_z
Er1 Er 0.45316(2) 0.393864(16) 0.156788(13)
C1 C -0.1598(3) 0.8272(3) 0.4547(3)
C2 C -0.0900(4) 0.8309(3) 0.5391(3)
H1 H -0.0446 0.7748 0.5434
C3 C -0.0883(4) 0.9190(3) 0.6169(3)
C4 C -0.1593(4) 1.0018(3) 0.6109(3)
H2 H -0.1559 1.0615 0.6625
C5 C -0.2346(4) 0.9953(3) 0.5284(3)
C6 C -0.2335(4) 0.9096(3) 0.4490(2)
H3 H -0.2810 0.9070 0.3930
C7 C -0.0623(3) 0.6878(3) 0.3409(3)
C8 C -0.0899(4) 0.6029(3) 0.2578(3)
H4 H -0.1775 0.5843 0.2255
C9 C 0.0104(4) 0.5467(3) 0.2234(3)
H5 H -0.0110 0.4897 0.1688
C10 C 0.1444(4) 0.5734(3) 0.2689(2)
C11 C 0.1729(4) 0.6609(3) 0.3489(3)
H6 H 0.2619 0.6822 0.3788
C12 C 0.0731(4) 0.7171(3) 0.3854(3)
H7 H 0.0952 0.7747 0.4395
C13 C 0.2516(4) 0.5119(3) 0.2316(2)
C14 C 0.0474(4) 1.0033(3) 0.7731(3)
C15 C 0.0758(5) 0.9914(3) 0.8604(3)
H8 H 0.0419 0.9279 0.8696
C16 C 0.1526(5) 1.0718(3) 0.9321(3)
H9 H 0.1700 1.0618 0.9891
C17 C 0.2053(4) 1.1685(3) 0.9216(3)
C18 C 0.1743(4) 1.1818(3) 0.8360(3)
H10 H 0.2068 1.2462 0.8278
C19 C 0.0966(4) 1.1021(3) 0.7633(3)
H11 H 0.0765 1.1136 0.7070
C20 C 0.2933(4) 1.2517(3) 0.9997(3)
C21 C -0.3635(4) 1.1137(3) 0.4620(3)
C22 C -0.2983(4) 1.1061(3) 0.3851(3)
H12 H -0.2246 1.0692 0.3771
C23 C -0.3424(4) 1.1529(3) 0.3210(3)
H13 H -0.2984 1.1469 0.2699
C24 C -0.4532(4) 1.2097(3) 0.3322(3)
C25 C -0.5179(4) 1.2168(3) 0.4086(3)
H14 H -0.5919 1.2535 0.4165
C26 C -0.4742(4) 1.1706(3) 0.4728(3)
H15 H -0.5183 1.1769 0.5239
C27 C -0.4956(4) 1.2642(3) 0.2648(3)
C28 C 0.8095(10) 0.3764(10) -0.0520(7)
H16 H 0.7302 0.4111 -0.0471
H17 H 0.8035 0.3276 -0.1134
H18 H 0.8887 0.4292 -0.0391
C29 C 0.9313(7) 0.2611(7) 0.0159(6)
H19 H 0.9268 0.2285 0.0635
H20 H 1.0146 0.3096 0.0289
H21 H 0.9275 0.2065 -0.0423
C30 C 0.7262(5) 0.3201(4) 0.0670(4)
H22 H 0.7360 0.2817 0.1081
C31 C 0.7248(10) 0.5243(7) 0.5174(4)
H23 H 0.6479 0.5611 0.5287
H24 H 0.8063 0.5722 0.5489
H25 H 0.7163 0.4640 0.5395
C32 C 0.8394(6) 0.4290(5) 0.3869(5)
H26 H 0.8329 0.4115 0.3213
H27 H 0.8323 0.3643 0.4030
H28 H 0.9251 0.4724 0.4156
C33 C 0.6395(5) 0.5069(4) 0.3599(3)
H29 H 0.5705 0.5431 0.3839
N1 N -0.1674(3) 0.7398(2) 0.3741(2)
H30 H -0.2464 0.7162 0.3418
N2 N -0.0217(4) 0.9176(2) 0.7016(2)
H31 H -0.0247 0.8560 0.7096
N3 N -0.3211(3) 1.0722(2) 0.5310(2)
H32 H -0.3519 1.0968 0.5821
N4 N 0.8185(4) 0.3188(4) 0.0124(3)
N5 N 0.7306(5) 0.4875(3) 0.4186(3)
O1 O 0.2216(3) 0.4290(2) 0.1618(2)
O2 O 0.3737(3) 0.5411(2) 0.2700(2)
O3 O 0.3215(4) 1.2303(2) 1.0733(2)
O4 O 0.3424(3) 1.3413(2) 0.9941(2)
O5 O -0.5912(3) 1.3208(2) 0.27822(19)
O6 O -0.4341(3) 1.2582(2) 0.1972(2)
O7 O 0.6298(3) 0.3670(3) 0.0682(2)
O8 O 0.6382(3) 0.4810(3) 0.2757(2)
O9 O 0.5137(3) 0.5546(2) 0.1188(2)
H33 H 0.4679 0.6059 0.1339
H34 H 0.5808 0.5600 0.0903
Er1_2 Er -0.54684(2) 1.393864(16) 0.156788(13)
Er1_3 Er 0.45316(2) 1.393864(16) 1.156788(13)
O3_2 O 0.3215(4) 0.2303(2) 0.0733(2)
O4_2 O 0.3424(3) 0.3413(2) -0.0059(2)
O5_2 O 0.4088(3) 0.3208(2) 0.27822(19)
O6_2 O 0.5659(3) 0.2582(2) 0.1972(2)
O10 O 0.5445(3) 0.7192(2) 0.2835(2)
H35 H 0.5666 0.6787 0.2345
H36 H 0.6010 0.7721 0.3186
O11 O 0.1224(4) 0.2809(4) 0.2635(4)
H37 H 0.2015 0.2828 0.2904
H38 H 0.0671 0.2228 0.2450
N6 N 0.4050(5) 0.9520(4) 0.1597(4)
O12 O 0.4133(6) 0.8839(4) 0.2772(4)
C34 C 0.3051(12) 1.0133(8) 0.1635(12)
H39 H 0.2557 1.0094 0.2127
H40 H 0.2447 0.9879 0.1062
H41 H 0.3442 1.0863 0.1743
C35 C 0.454(2) 0.9019(12) 0.1954(19)
H42 H 0.5256 0.8695 0.1714
C36 C 0.4626(19) 0.9735(13) 0.0791(11)
H43 H 0.5376 0.9350 0.0659
H44 H 0.4931 1.0489 0.0942
H45 H 0.3937 0.9505 0.0260
loop_
_geom_bond_atom_site_label_1
_geom_bond_atom_site_label_2
_geom_bond_site_symmetry_1
_geom_bond_site_symmetry_2
Er1 O1 1_555 1_555
C1 C2 1_555 1_555
C2 H1 1_555 1_555
C3 C2 1_555 1_555
C4 C3 1_555 1_555
H2 C4 1_555 1_555
C5 C4 1_555 1_555
C6 C1 1_555 1_555
H3 C6 1_555 1_555
C7 C8 1_555 1_555
C8 H4 1_555 1_555
C9 C8 1_555 1_555
H5 C9 1_555 1_555
C10 C9 1_555 1_555
C11 C10 1_555 1_555
H6 C11 1_555 1_555
C12 C7 1_555 1_555
H7 C12 1_555 1_555
C13 C10 1_555 1_555
C14 C15 1_555 1_555
C15 H8 1_555 1_555
C16 C15 1_555 1_555
H9 C16 1_555 1_555
C17 C16 1_555 1_555
C18 C17 1_555 1_555
H10 C18 1_555 1_555
C19 C14 1_555 1_555
H11 C19 1_555 1_555
C20 C17 1_555 1_555
C21 C22 1_555 1_555
C22 H12 1_555 1_555
C23 C22 1_555 1_555
H13 C23 1_555 1_555
C24 C23 1_555 1_555
C25 C24 1_555 1_555
H14 C25 1_555 1_555
C26 C21 1_555 1_555
H15 C26 1_555 1_555
C27 C24 1_555 1_555
C28 H16 1_555 1_555
H17 C28 1_555 1_555
H18 C28 1_555 1_555
C29 H19 1_555 1_555
H20 C29 1_555 1_555
H21 C29 1_555 1_555
C30 H22 1_555 1_555
C31 H23 1_555 1_555
H24 C31 1_555 1_555
H25 C31 1_555 1_555
C32 H26 1_555 1_555
H27 C32 1_555 1_555
H28 C32 1_555 1_555
C33 H29 1_555 1_555
N1 C1 1_555 1_555
H30 N1 1_555 1_555
N2 C3 1_555 1_555
H31 N2 1_555 1_555
N3 C5 1_555 1_555
H32 N3 1_555 1_555
N4 C28 1_555 1_555
N5 C31 1_555 1_555
O1 C13 1_555 1_555
O2 Er1 1_555 1_555
O3 C20 1_555 1_555
O4 C20 1_555 1_555
O5 C27 1_555 1_555
O6 C27 1_555 1_555
O7 Er1 1_555 1_555
O8 Er1 1_555 1_555
O9 Er1 1_555 1_555
H33 O9 1_555 1_555
H34 O9 1_555 1_555
O10 H35 1_555 1_555
H36 O10 1_555 1_555
O11 H37 1_555 1_555
H38 O11 1_555 1_555
N6 C34 1_555 1_555
O12 C35 1_555 1_555
C34 H39 1_555 1_555
H40 C34 1_555 1_555
H41 C34 1_555 1_555
C35 N6 1_555 1_555
H42 C35 1_555 1_555
C36 N6 1_555 1_555
H43 C36 1_555 1_555
H44 C36 1_555 1_555
H45 C36 1_555 1_555
Er1_2 O5 1_555 1_555
Er1_3 O3 1_555 1_555
O3_2 Er1 1_555 1_555
O4_2 Er1 1_555 1_555
O5_2 Er1 1_555 1_555
O6_2 Er1 1_555 1_555
C5 C6 1_555 1_555
C7 N1 1_555 1_555
C11 C12 1_555 1_555
C13 O2 1_555 1_555
C14 N2 1_555 1_555
C18 C19 1_555 1_555
C21 N3 1_555 1_555
C25 C26 1_555 1_555
C29 N4 1_555 1_555
C30 N4 1_555 1_555
C30 O7 1_555 1_555
C32 N5 1_555 1_555
C33 N5 1_555 1_555
C33 O8 1_555 1_555
O4 Er1_3 1_555 1_555
O6 Er1_2 1_555 1_555

#END
