
#######################################################################
#
#                 Cambridge Crystallographic Data Centre
#                                CCDC 
#
#######################################################################
#
# If this CIF has been generated from an entry in the Cambridge 
# Structural Database, then it will include bibliographic, chemical, 
# crystal, experimental, refinement or atomic coordinate data resulting 
# from the CCDC's data processing and validation procedures.
#
#######################################################################

data_SOKNEN
_symmetry_cell_setting           triclinic
_symmetry_space_group_name_H-M   'P -1'
_symmetry_Int_Tables_number      2
_space_group_name_Hall           '-P 1'
loop_
_symmetry_equiv_pos_site_id
_symmetry_equiv_pos_as_xyz
1 x,y,z
2 -x,-y,-z
_cell_length_a                   11.8978(4)
_cell_length_b                   12.4423(4)
_cell_length_c                   13.2083(5)
_cell_angle_alpha                84.049(3)
_cell_angle_beta                 85.054(3)
_cell_angle_gamma                85.456(3)
_cell_volume                     1932.64
loop_
_atom_site_label
_atom_site_type_symbol
_atom_site_fract_x
_atom_site_fract_y
_atom_site_fract_z
Er1 Er 0.64565(2) 1.06371(2) 0.39396(2)
C1 C 0.6411(6) 0.5358(5) 0.2930(5)
C2 C 0.6977(6) 0.6315(6) 0.2749(6)
H1 H 0.7645 0.6331 0.2329
C3 C 0.6548(6) 0.7233(6) 0.3190(6)
H2 H 0.6938 0.7858 0.3066
C4 C 0.5540(6) 0.7248(5) 0.3818(5)
C5 C 0.4980(6) 0.6288(6) 0.3995(5)
H3 H 0.4311 0.6274 0.4414
C6 C 0.5400(6) 0.5373(6) 0.3563(6)
H4 H 0.5009 0.4749 0.3690
C7 C 0.5092(6) 0.8234(5) 0.4319(5)
C8 C 1.0261(6) 0.1572(6) 0.0125(6)
C9 C 0.9891(6) 0.1714(6) -0.0858(6)
H5 H 0.9210 0.2107 -0.0980
C10 C 1.0541(7) 0.1269(7) -0.1650(7)
H6 H 1.0300 0.1385 -0.2306
C11 C 1.1540(6) 0.0656(6) -0.1487(6)
C12 C 1.1873(7) 0.0469(6) -0.0488(6)
H7 H 1.2530 0.0038 -0.0360
C13 C 1.1241(7) 0.0914(7) 0.0306(6)
H8 H 1.1467 0.0775 0.0966
C14 C 1.2234(6) 0.0212(6) -0.2349(6)
C15 C 0.7704(6) 0.6105(6) -0.1302(6)
C16 C 0.6598(6) 0.5780(6) -0.1219(6)
H9 H 0.6418 0.5158 -0.0803
C17 C 0.5772(6) 0.6375(6) -0.1749(6)
H10 H 0.5040 0.6152 -0.1681
C18 C 0.6018(6) 0.7304(6) -0.2383(6)
C19 C 0.7131(6) 0.7625(6) -0.2475(7)
H11 H 0.7308 0.8246 -0.2895
C20 C 0.7956(6) 0.7036(7) -0.1958(7)
H12 H 0.8691 0.7253 -0.2039
C21 C 0.5133(6) 0.7957(6) -0.2946(5)
C22 C 0.7598(6) 0.4224(6) 0.1732(5)
C23 C 0.7676(6) 0.4987(6) 0.0872(6)
H13 H 0.7229 0.5636 0.0854
C24 C 0.8432(6) 0.4757(6) 0.0051(6)
C25 C 0.9106(6) 0.3793(6) 0.0059(6)
H14 H 0.9632 0.3672 -0.0488
C26 C 0.8992(6) 0.3002(6) 0.0891(5)
C27 C 0.8235(6) 0.3240(6) 0.1727(6)
H15 H 0.8159 0.2728 0.2290
N1 N 0.6836(5) 0.4386(5) 0.2578(5)
H16 H 0.6603 0.3810 0.2922
N2 N 0.9640(5) 0.2029(5) 0.0943(5)
H17 H 0.9665 0.1669 0.1534
N3 N 0.8565(5) 0.5517(5) -0.0821(5)
H18 H 0.9244 0.5618 -0.1070
O1 O 0.5639(4) 0.9063(4) 0.4171(4)
O2 O 0.4184(4) 0.8175(4) 0.4880(4)
O3 O 1.3133(5) -0.0375(5) -0.2195(4)
O4 O 1.1940(4) 0.0414(4) -0.3258(4)
O5 O 0.5378(4) 0.8862(4) -0.3436(4)
O6 O 0.4153(4) 0.7643(4) -0.2947(4)
O7 O 0.8024(4) 1.1590(4) 0.4066(4)
H19 H 0.8436 1.1425 0.4562
H20 H 0.8187 1.2105 0.3616
O8 O 0.7144(4) 0.9752(4) 0.5446(4)
H21 H 0.7735 0.9952 0.5670
H22 H 0.6801 0.9230 0.5768
Er1A Er 0.35435(2) 0.93629(2) -0.39396(2)
Er1A_2 Er 0.35435(2) 0.93629(2) 0.60604(2)
Er1A_3 Er 1.35435(2) -0.06371(2) -0.39396(2)
O2A O 0.5816(4) 1.1825(4) 0.5120(4)
O3A O 0.6867(5) 1.0375(5) 0.2195(4)
O4A O 0.8060(4) 0.9586(4) 0.3258(4)
O5A O 0.4622(4) 1.1138(4) 0.3436(4)
O6A O 0.5847(4) 1.2357(4) 0.2947(4)
C28 C 0.5419(13) 0.8263(14) 0.0366(12)
H23 H 0.5720 0.8709 0.0813
H24 H 0.5551 0.8567 -0.0328
H25 H 0.5784 0.7546 0.0445
C29 C 0.3601(11) 0.7558(13) -0.0002(12)
H26 H 0.2811 0.7583 0.0220
H27 H 0.3914 0.6822 0.0070
H28 H 0.3696 0.7845 -0.0705
C30 C 0.3631(16) 0.8681(10) 0.1397(11)
C31 C 0.2654(8) 0.8543(12) 0.1612(10)
H29 H 0.2407 0.8057 0.1170
H30 H 0.2216 0.9224 0.1531
H31 H 0.2552 0.8235 0.2308
N4 N 0.4188(9) 0.8210(8) 0.0626(9)
O9 O 0.4332(16) 0.9409(13) 0.1931(12)
O10 O 0.080(3) 0.400(2) 0.4223(15)
H32 H 0.1276 0.3483 0.4414
H33 H 0.0099 0.3936 0.4362
O11 O 0.9357(13) 0.8144(9) 0.4697(13)
H34 H 0.9258 0.8307 0.5310
H35 H 1.0010 0.8161 0.4381
O12 O 0.1579(6) 0.9267(6) 0.3333(6)
H36 H 0.1282 0.8905 0.2927
H37 H 0.1217 0.9822 0.3556
O13 O 0.0209(5) 0.1219(5) 0.3266(5)
H38 H 0.0255 0.1047 0.3902
H39 H -0.0138 0.0830 0.2921
loop_
_geom_bond_atom_site_label_1
_geom_bond_atom_site_label_2
_geom_bond_site_symmetry_1
_geom_bond_site_symmetry_2
Er1 O1 1_555 1_555
C1 C2 1_555 1_555
C2 H1 1_555 1_555
C3 C2 1_555 1_555
H2 C3 1_555 1_555
C4 C3 1_555 1_555
C5 C4 1_555 1_555
H3 C5 1_555 1_555
C6 C1 1_555 1_555
H4 C6 1_555 1_555
C7 C4 1_555 1_555
C8 C9 1_555 1_555
C9 H5 1_555 1_555
C10 C9 1_555 1_555
H6 C10 1_555 1_555
C11 C10 1_555 1_555
C12 C11 1_555 1_555
H7 C12 1_555 1_555
C13 C8 1_555 1_555
H8 C13 1_555 1_555
C14 C11 1_555 1_555
C15 C16 1_555 1_555
C16 H9 1_555 1_555
C17 C16 1_555 1_555
H10 C17 1_555 1_555
C18 C17 1_555 1_555
C19 C18 1_555 1_555
H11 C19 1_555 1_555
C20 C15 1_555 1_555
H12 C20 1_555 1_555
C21 C18 1_555 1_555
C22 C23 1_555 1_555
C23 H13 1_555 1_555
C24 C23 1_555 1_555
C25 C24 1_555 1_555
H14 C25 1_555 1_555
C26 C25 1_555 1_555
C27 C22 1_555 1_555
H15 C27 1_555 1_555
N1 C1 1_555 1_555
H16 N1 1_555 1_555
N2 C8 1_555 1_555
H17 N2 1_555 1_555
N3 C15 1_555 1_555
H18 N3 1_555 1_555
O1 C7 1_555 1_555
O2 C7 1_555 1_555
O3 C14 1_555 1_555
O4 C14 1_555 1_555
O5 C21 1_555 1_555
O6 C21 1_555 1_555
O7 Er1 1_555 1_555
H19 O7 1_555 1_555
H20 O7 1_555 1_555
O8 Er1 1_555 1_555
H21 O8 1_555 1_555
H22 O8 1_555 1_555
C28 H23 1_555 1_555
H24 C28 1_555 1_555
H25 C28 1_555 1_555
C29 H26 1_555 1_555
H27 C29 1_555 1_555
H28 C29 1_555 1_555
C30 C31 1_555 1_555
C31 H29 1_555 1_555
H30 C31 1_555 1_555
H31 C31 1_555 1_555
N4 C28 1_555 1_555
O9 C30 1_555 1_555
O10 H32 1_555 1_555
H33 O10 1_555 1_555
O11 H34 1_555 1_555
H35 O11 1_555 1_555
O12 H36 1_555 1_555
H37 O12 1_555 1_555
O13 H38 1_555 1_555
H39 O13 1_555 1_555
Er1A O5 1_555 1_555
Er1A_2 O2 1_555 1_555
Er1A_3 O3 1_555 1_555
O2A Er1 1_555 1_555
O3A Er1 1_555 1_555
O4A Er1 1_555 1_555
O5A Er1 1_555 1_555
O6A Er1 1_555 1_555
C5 C6 1_555 1_555
C12 C13 1_555 1_555
C19 C20 1_555 1_555
C22 N1 1_555 1_555
C24 N3 1_555 1_555
C26 C27 1_555 1_555
C26 N2 1_555 1_555
O4 Er1A_3 1_555 1_555
O6 Er1A 1_555 1_555
C29 N4 1_555 1_555
C30 N4 1_555 1_555

#END
