
#######################################################################
#
#                 Cambridge Crystallographic Data Centre
#                                CCDC 
#
#######################################################################
#
# If this CIF has been generated from an entry in the Cambridge 
# Structural Database, then it will include bibliographic, chemical, 
# crystal, experimental, refinement or atomic coordinate data resulting 
# from the CCDC's data processing and validation procedures.
#
#######################################################################

data_SOKNOX
_symmetry_cell_setting           triclinic
_symmetry_space_group_name_H-M   'P -1'
_symmetry_Int_Tables_number      2
_space_group_name_Hall           '-P 1'
loop_
_symmetry_equiv_pos_site_id
_symmetry_equiv_pos_as_xyz
1 x,y,z
2 -x,-y,-z
_cell_length_a                   11.8842(3)
_cell_length_b                   12.4550(3)
_cell_length_c                   13.1712(3)
_cell_angle_alpha                83.924(2)
_cell_angle_beta                 84.970(2)
_cell_angle_gamma                85.196(2)
_cell_volume                     1925.69
loop_
_atom_site_label
_atom_site_type_symbol
_atom_site_fract_x
_atom_site_fract_y
_atom_site_fract_z
Lu1 Lu 1.145867(16) -0.437350(15) 0.893389(14)
C1 C 0.9886(4) -0.2979(4) 0.7942(3)
C2 C 0.8996(4) -0.2332(4) 0.7376(4)
C3 C 0.9247(4) -0.1396(4) 0.6738(4)
H1 H 0.9979 -0.1171 0.6676
C4 C 0.8415(4) -0.0801(4) 0.6198(4)
H2 H 0.8596 -0.0184 0.5772
C5 C 0.7312(4) -0.1118(4) 0.6287(4)
C6 C 0.7056(5) -0.2046(5) 0.6944(4)
H3 H 0.6318 -0.2256 0.7029
C7 C 0.7887(5) -0.2642(4) 0.7459(4)
H4 H 0.7709 -0.3267 0.7872
C8 C 0.2751(4) 0.4797(4) 0.7346(4)
C9 C 0.3453(4) 0.4350(4) 0.6476(4)
C10 C 0.3122(5) 0.4544(4) 0.5480(4)
H5 H 0.2467 0.4983 0.5353
C11 C 0.3756(5) 0.4093(4) 0.4677(4)
H6 H 0.3525 0.4228 0.4016
C12 C 0.4739(4) 0.3438(4) 0.4860(4)
C13 C 0.5105(5) 0.3288(4) 0.5848(4)
H7 H 0.5785 0.2889 0.5971
C14 C 0.4457(5) 0.3733(4) 0.6642(4)
H8 H 0.4699 0.3616 0.7300
C15 C 0.9901(4) -0.3253(4) 0.0676(4)
C16 C 0.9468(4) -0.2259(4) 0.1177(4)
C17 C 0.8457(4) -0.2241(4) 0.1805(4)
H9 H 0.8063 -0.2862 0.1932
C18 C 0.8034(4) -0.1308(4) 0.2241(4)
H10 H 0.7364 -0.1311 0.2663
C19 C 0.8609(4) -0.0362(4) 0.2050(4)
C20 C 0.9626(4) -0.0387(4) 0.1434(4)
H11 H 1.0029 0.0229 0.1316
C21 C 1.0043(4) -0.1316(4) 0.0997(4)
H12 H 1.0715 -0.1314 0.0578
C22 C 0.6576(4) 0.0240(4) 0.4938(4)
C23 C 0.5904(4) 0.1208(4) 0.4924(4)
H13 H 0.5380 0.1334 0.5473
C24 C 0.6013(4) 0.1992(4) 0.4091(4)
C25 C 0.6775(4) 0.1766(4) 0.3256(4)
H14 H 0.6855 0.2281 0.2694
C26 C 0.7414(4) 0.0779(4) 0.3259(4)
C27 C 0.7343(4) 0.0017(4) 0.4108(4)
H15 H 0.7797 -0.0629 0.4123
N1 N 0.6446(4) -0.0521(4) 0.5805(3)
H16 H 0.5766 -0.0622 0.6055
N2 N 0.5361(4) 0.2979(3) 0.4038(3)
H17 H 0.5339 0.3339 0.3445
N3 N 0.8179(3) 0.0624(3) 0.2396(3)
H18 H 0.8405 0.1199 0.2046
O1 O 0.9641(3) -0.3880(3) 0.8433(2)
O2 O 1.0861(3) -0.2663(3) 0.7951(3)
O3 O 0.3051(3) 0.4584(3) 0.8257(3)
O4 O 0.1845(3) 0.5372(3) 0.7199(3)
O5 O 0.9332(3) -0.4079(3) 0.0839(3)
O6 O 1.0803(3) -0.3208(3) 0.0110(3)
O7 O 1.2998(3) -0.3441(3) 0.9052(3)
H19 H 1.3004 -0.2781 0.8809
H20 H 1.3569 -0.3752 0.9339
O8 O 1.2143(3) -0.5249(3) 1.0419(3)
H21 H 1.1797 -0.5147 1.0997
H22 H 1.2742 -0.5673 1.0385
Lu1_2 Lu 0.145867(16) 0.562650(15) 0.893389(14)
Lu1_3 Lu 1.145867(16) -0.437350(15) -0.106611(14)
Lu1A Lu 0.854133(16) -0.562650(15) 0.106611(14)
O3_2 O 1.3051(3) -0.5416(3) 0.8257(3)
O4_2 O 1.1845(3) -0.4628(3) 0.7199(3)
O5A O 1.0668(3) -0.5921(3) 0.9161(3)
O6_2 O 1.0803(3) -0.3208(3) 1.0110(3)
C28 C 0.5462(5) -0.1228(7) 0.9381(6)
H23 H 0.4780 -0.0948 0.9075
H24 H 0.5347 -0.1223 1.0112
H25 H 0.5655 -0.1957 0.9215
C29 C 0.7415(6) -0.0858(8) 0.9356(6)
H26 H 0.7471 -0.1508 0.9817
H27 H 0.7608 -0.0259 0.9691
H28 H 0.7928 -0.0940 0.8759
C30 C 0.6936(8) 0.1045(8) 0.8028(7)
H29 H 0.7644 0.0777 0.8292
H30 H 0.6699 0.1734 0.8273
H31 H 0.7026 0.1128 0.7293
C31 C 0.6034(6) 0.0238(7) 0.8388(5)
N4 N 0.6244(9) -0.0655(9) 0.9048(7)
O9 O 0.4869(9) 0.0477(11) 0.8071(9)
C32 C 0.0818(9) 0.5599(7) 0.3010(7)
H32 H 0.0078 0.5513 0.3350
H33 H 0.1245 0.4909 0.3031
H34 H 0.0748 0.5883 0.2311
C33 C 0.2404(5) 0.6608(7) 0.3283(6)
H35 H 0.2638 0.7084 0.3739
H36 H 0.2437 0.6961 0.2598
H37 H 0.2900 0.5958 0.3305
C34 C 0.1400(8) 0.7507(9) 0.4929(8)
H38 H 0.2182 0.7530 0.4679
H39 H 0.1350 0.7218 0.5636
H40 H 0.1035 0.8225 0.4867
C35 C 0.0840(7) 0.6814(6) 0.4328(6)
N5 N 0.1427(12) 0.6379(7) 0.3550(7)
O10 O -0.0407(9) 0.6682(10) 0.4618(8)
O11 O 0.6820(5) 0.1400(4) 0.0552(4)
H41 H 0.7336 0.1282 0.0080
H42 H 0.6166 0.1663 0.0399
O12 O 0.5429(6) 0.6774(5) 0.0454(6)
H43 H 0.5801 0.6540 -0.0069
H44 H 0.5143 0.7425 0.0426
O13 O 0.4800(3) 0.3790(3) 0.1729(3)
H45 H 0.5144 0.3770 0.1137
H46 H 0.4194 0.4196 0.1811
O14 O 0.3464(4) 0.5749(4) 0.1612(4)
H47 H 0.3333 0.5315 0.1188
H48 H 0.4097 0.6030 0.1562
loop_
_geom_bond_atom_site_label_1
_geom_bond_atom_site_label_2
_geom_bond_site_symmetry_1
_geom_bond_site_symmetry_2
Lu1 O1 1_555 1_555
C1 C2 1_555 1_555
C2 C3 1_555 1_555
C3 H1 1_555 1_555
C4 C3 1_555 1_555
H2 C4 1_555 1_555
C5 C4 1_555 1_555
C6 C5 1_555 1_555
H3 C6 1_555 1_555
C7 C2 1_555 1_555
H4 C7 1_555 1_555
C8 C9 1_555 1_555
C9 C10 1_555 1_555
C10 H5 1_555 1_555
C11 C10 1_555 1_555
H6 C11 1_555 1_555
C12 C11 1_555 1_555
C13 C12 1_555 1_555
H7 C13 1_555 1_555
C14 C9 1_555 1_555
H8 C14 1_555 1_555
C15 C16 1_555 1_555
C16 C17 1_555 1_555
C17 H9 1_555 1_555
C18 C17 1_555 1_555
H10 C18 1_555 1_555
C19 C18 1_555 1_555
C20 C19 1_555 1_555
H11 C20 1_555 1_555
C21 C16 1_555 1_555
H12 C21 1_555 1_555
C22 C23 1_555 1_555
C23 H13 1_555 1_555
C24 C23 1_555 1_555
C25 C24 1_555 1_555
H14 C25 1_555 1_555
C26 C25 1_555 1_555
C27 C22 1_555 1_555
H15 C27 1_555 1_555
N1 C5 1_555 1_555
H16 N1 1_555 1_555
N2 C12 1_555 1_555
H17 N2 1_555 1_555
N3 C19 1_555 1_555
H18 N3 1_555 1_555
O1 C1 1_555 1_555
O2 Lu1 1_555 1_555
O3 C8 1_555 1_555
O4 C8 1_555 1_555
O5 C15 1_555 1_555
O6 C15 1_555 1_555
O7 Lu1 1_555 1_555
H19 O7 1_555 1_555
H20 O7 1_555 1_555
O8 Lu1 1_555 1_555
H21 O8 1_555 1_555
H22 O8 1_555 1_555
C28 H23 1_555 1_555
H24 C28 1_555 1_555
H25 C28 1_555 1_555
C29 H26 1_555 1_555
H27 C29 1_555 1_555
H28 C29 1_555 1_555
C30 H29 1_555 1_555
H30 C30 1_555 1_555
H31 C30 1_555 1_555
C31 C30 1_555 1_555
N4 C28 1_555 1_555
O9 C31 1_555 1_555
C32 H32 1_555 1_555
H33 C32 1_555 1_555
H34 C32 1_555 1_555
C33 H35 1_555 1_555
H36 C33 1_555 1_555
H37 C33 1_555 1_555
C34 H38 1_555 1_555
H39 C34 1_555 1_555
H40 C34 1_555 1_555
C35 C34 1_555 1_555
N5 C32 1_555 1_555
O10 C35 1_555 1_555
O11 H41 1_555 1_555
H42 O11 1_555 1_555
O12 H43 1_555 1_555
H44 O12 1_555 1_555
O13 H45 1_555 1_555
H46 O13 1_555 1_555
O14 H47 1_555 1_555
H48 O14 1_555 1_555
Lu1_2 O3 1_555 1_555
Lu1_3 O6 1_555 1_555
Lu1A O5 1_555 1_555
O3_2 Lu1 1_555 1_555
O4_2 Lu1 1_555 1_555
O5A Lu1 1_555 1_555
O6_2 Lu1 1_555 1_555
C1 O2 1_555 1_555
C6 C7 1_555 1_555
C13 C14 1_555 1_555
C20 C21 1_555 1_555
C22 N1 1_555 1_555
C24 N2 1_555 1_555
C26 C27 1_555 1_555
C26 N3 1_555 1_555
O4 Lu1_2 1_555 1_555
C29 N4 1_555 1_555
C31 N4 1_555 1_555
C33 N5 1_555 1_555
C35 N5 1_555 1_555

#END
