
#######################################################################
#
#                 Cambridge Crystallographic Data Centre
#                                CCDC 
#
#######################################################################
#
# If this CIF has been generated from an entry in the Cambridge 
# Structural Database, then it will include bibliographic, chemical, 
# crystal, experimental, refinement or atomic coordinate data resulting 
# from the CCDC's data processing and validation procedures.
#
#######################################################################

data_SOKNIR
_symmetry_cell_setting           triclinic
_symmetry_space_group_name_H-M   'P -1'
_symmetry_Int_Tables_number      2
_space_group_name_Hall           '-P 1'
loop_
_symmetry_equiv_pos_site_id
_symmetry_equiv_pos_as_xyz
1 x,y,z
2 -x,-y,-z
_cell_length_a                   11.8938(4)
_cell_length_b                   12.4541(3)
_cell_length_c                   13.1622(3)
_cell_angle_alpha                84.035(2)
_cell_angle_beta                 85.080(2)
_cell_angle_gamma                85.246(2)
_cell_volume                     1926.58
loop_
_atom_site_label
_atom_site_type_symbol
_atom_site_fract_x
_atom_site_fract_y
_atom_site_fract_z
Yb1 Yb 0.645600(13) 1.062345(12) 0.393355(11)
C1 C 0.6381(3) 0.5353(3) 0.2949(3)
C2 C 0.6959(3) 0.6304(3) 0.2766(3)
H1 H 0.7631 0.6307 0.2347
C3 C 0.6542(3) 0.7231(3) 0.3198(3)
H2 H 0.6937 0.7851 0.3074
C4 C 0.5526(3) 0.7246(3) 0.3826(3)
C5 C 0.4952(3) 0.6315(3) 0.3998(3)
H3 H 0.4276 0.6316 0.4410
C6 C 0.5368(3) 0.5381(3) 0.3566(3)
H4 H 0.4967 0.4765 0.3689
C7 C 0.5094(3) 0.8246(3) 0.4328(3)
C8 C 1.0258(3) 0.1562(3) 0.0148(3)
C9 C 0.9894(3) 0.1707(3) -0.0843(3)
H5 H 0.9210 0.2096 -0.0967
C10 C 1.0555(3) 0.1270(3) -0.1640(3)
H6 H 1.0320 0.1393 -0.2301
C11 C 1.1554(3) 0.0657(3) -0.1473(3)
C12 C 1.1882(3) 0.0466(3) -0.0473(3)
H7 H 1.2537 0.0030 -0.0343
C13 C 1.1247(3) 0.0914(3) 0.0322(3)
H8 H 1.1481 0.0782 0.0982
C14 C 1.2261(3) 0.0215(3) -0.2346(3)
C15 C 0.7685(3) 0.6115(3) -0.1279(3)
C16 C 0.6578(3) 0.5799(3) -0.1192(3)
H9 H 0.6395 0.5183 -0.0769
C17 C 0.5755(3) 0.6397(3) -0.1733(3)
H10 H 0.5024 0.6172 -0.1672
C18 C 0.5998(3) 0.7331(3) -0.2368(3)
C19 C 0.7109(3) 0.7636(3) -0.2454(3)
H11 H 0.7290 0.8253 -0.2877
C20 C 0.7943(3) 0.7047(3) -0.1929(3)
H12 H 0.8677 0.7265 -0.2003
C21 C 0.5123(3) 0.7974(3) -0.2937(3)
C22 C 0.7578(3) 0.4219(3) 0.1749(3)
C23 C 0.7658(3) 0.4977(3) 0.0896(3)
H13 H 0.7205 0.5623 0.0879
C24 C 0.8423(3) 0.4759(3) 0.0070(3)
C25 C 0.9100(3) 0.3793(3) 0.0077(3)
H14 H 0.9624 0.3670 -0.0473
C26 C 0.8991(3) 0.3006(3) 0.0911(3)
C27 C 0.8226(3) 0.3225(3) 0.1751(3)
H15 H 0.8148 0.2709 0.2311
N1 N 0.6823(3) 0.4372(2) 0.2607(2)
H16 H 0.6609 0.3796 0.2963
N2 N 0.9637(3) 0.2012(2) 0.0964(2)
H17 H 0.9651 0.1647 0.1555
N3 N 0.8552(3) 0.5519(3) -0.0794(2)
H18 H 0.9232 0.5622 -0.1043
O1 O 0.5648(2) 0.90700(19) 0.41693(18)
O2 O 0.4188(2) 0.8198(2) 0.48909(18)
O3 O 1.3173(2) -0.0355(2) -0.21904(19)
O4 O 1.1954(2) 0.0420(2) -0.32516(19)
O5 O 0.5365(2) 0.88759(19) -0.34357(17)
O6 O 0.4141(2) 0.76669(19) -0.29425(18)
O7 O 0.8009(2) 1.1553(2) 0.40555(19)
H19 H 0.8423 1.1383 0.4551
H20 H 0.8172 1.2069 0.3606
O8 O 0.7148(2) 0.9745(2) 0.54232(18)
H21 H 0.7741 0.9944 0.5643
H22 H 0.6808 0.9224 0.5748
Yb1A Yb 0.354400(13) 0.937655(12) -0.393355(11)
Yb1A_2 Yb 0.354400(13) 0.937655(12) 0.606645(11)
Yb1A_3 Yb 1.354400(13) -0.062345(12) -0.393355(11)
O2A O 0.5812(2) 1.1802(2) 0.51091(18)
O3A O 0.6827(2) 1.0355(2) 0.21904(19)
O4A O 0.8046(2) 0.9580(2) 0.32516(19)
O5A O 0.4635(2) 1.11241(19) 0.34357(17)
O6A O 0.5859(2) 1.23331(19) 0.29425(18)
loop_
_geom_bond_atom_site_label_1
_geom_bond_atom_site_label_2
_geom_bond_site_symmetry_1
_geom_bond_site_symmetry_2
Yb1 O1 1_555 1_555
C1 C2 1_555 1_555
C2 H1 1_555 1_555
C3 C2 1_555 1_555
H2 C3 1_555 1_555
C4 C3 1_555 1_555
C5 C4 1_555 1_555
H3 C5 1_555 1_555
C6 C1 1_555 1_555
H4 C6 1_555 1_555
C7 C4 1_555 1_555
C8 C9 1_555 1_555
C9 H5 1_555 1_555
C10 C9 1_555 1_555
H6 C10 1_555 1_555
C11 C10 1_555 1_555
C12 C11 1_555 1_555
H7 C12 1_555 1_555
C13 C8 1_555 1_555
H8 C13 1_555 1_555
C14 C11 1_555 1_555
C15 C16 1_555 1_555
C16 H9 1_555 1_555
C17 C16 1_555 1_555
H10 C17 1_555 1_555
C18 C17 1_555 1_555
C19 C18 1_555 1_555
H11 C19 1_555 1_555
C20 C15 1_555 1_555
H12 C20 1_555 1_555
C21 C18 1_555 1_555
C22 C23 1_555 1_555
C23 H13 1_555 1_555
C24 C23 1_555 1_555
C25 C24 1_555 1_555
H14 C25 1_555 1_555
C26 C25 1_555 1_555
C27 C22 1_555 1_555
H15 C27 1_555 1_555
N1 C1 1_555 1_555
H16 N1 1_555 1_555
N2 C8 1_555 1_555
H17 N2 1_555 1_555
N3 C15 1_555 1_555
H18 N3 1_555 1_555
O1 C7 1_555 1_555
O2 C7 1_555 1_555
O3 C14 1_555 1_555
O4 C14 1_555 1_555
O5 C21 1_555 1_555
O6 C21 1_555 1_555
O7 Yb1 1_555 1_555
H19 O7 1_555 1_555
H20 O7 1_555 1_555
O8 Yb1 1_555 1_555
H21 O8 1_555 1_555
H22 O8 1_555 1_555
Yb1A O5 1_555 1_555
Yb1A_2 O2 1_555 1_555
Yb1A_3 O3 1_555 1_555
O2A Yb1 1_555 1_555
O3A Yb1 1_555 1_555
O4A Yb1 1_555 1_555
O5A Yb1 1_555 1_555
O6A Yb1 1_555 1_555
C5 C6 1_555 1_555
C12 C13 1_555 1_555
C19 C20 1_555 1_555
C22 N1 1_555 1_555
C24 N3 1_555 1_555
C26 C27 1_555 1_555
C26 N2 1_555 1_555
O4 Yb1A_3 1_555 1_555
O6 Yb1A 1_555 1_555

#END
