
#######################################################################
#
#                 Cambridge Crystallographic Data Centre
#                                CCDC 
#
#######################################################################
#
# If this CIF has been generated from an entry in the Cambridge 
# Structural Database, then it will include bibliographic, chemical, 
# crystal, experimental, refinement or atomic coordinate data resulting 
# from the CCDC's data processing and validation procedures.
#
#######################################################################

data_SOKQUF
_symmetry_cell_setting           monoclinic
_symmetry_space_group_name_H-M   'C 2/c'
_symmetry_Int_Tables_number      15
_space_group_name_Hall           '-C 2yn'
loop_
_symmetry_equiv_pos_site_id
_symmetry_equiv_pos_as_xyz
1 x,y,z
2 1/2+x,1/2+y,z
3 -x,y,1/2-z
4 1/2-x,1/2+y,1/2-z
5 -x,-y,-z
6 1/2-x,1/2-y,-z
7 x,-y,1/2+z
8 1/2+x,1/2-y,1/2+z
_cell_length_a                   21.0808(10)
_cell_length_b                   13.6975(6)
_cell_length_c                   17.5313(8)
_cell_angle_alpha                90
_cell_angle_beta                 94.734(1)
_cell_angle_gamma                90
_cell_volume                     5044.97
loop_
_atom_site_label
_atom_site_type_symbol
_atom_site_fract_x
_atom_site_fract_y
_atom_site_fract_z
Mn1 Mn 0.180289(13) 0.16740(2) 0.162201(17)
Mn2 Mn 0.2500 0.2500 0.0000
O1 O 0.17455(7) 0.28233(12) 0.07423(9)
O2 O 0.19763(9) 0.03624(12) 0.11055(11)
O3 O 0.08397(8) 0.21252(13) 0.08967(12)
O4 O 0.27335(8) 0.19357(16) 0.20393(11)
O5 O 0.31631(8) 0.22763(14) 0.09626(10)
O6 O 0.22428(9) 0.09775(11) 0.00023(10)
N1 N 0.15099(12) 0.28831(16) 0.23988(13)
N2 N 0.12325(11) 0.10252(15) 0.24972(14)
C1 C 0.1688(3) 0.3806(2) 0.2320(2)
H1 H 0.2019 0.3941 0.2017
C2 C 0.1408(5) 0.4557(3) 0.2663(3)
H2 H 0.1556 0.5194 0.2631
C3 C 0.0881(5) 0.4327(4) 0.3070(4)
H3 H 0.0655 0.4826 0.3285
C4 C 0.0699(4) 0.3389(4) 0.3152(3)
H4 H 0.0350 0.3237 0.3423
C5 C 0.10380(18) 0.2666(2) 0.28279(17)
C6 C 0.09056(15) 0.1634(2) 0.29165(19)
C7 C 0.0491(2) 0.1278(4) 0.3418(3)
H5 H 0.0250 0.1708 0.3687
C8 C 0.0436(4) 0.0335(5) 0.3516(4)
H6 H 0.0167 0.0095 0.3867
C9 C 0.0767(4) -0.0283(4) 0.3111(5)
H7 H 0.0730 -0.0954 0.3177
C10 C 0.1164(2) 0.0084(2) 0.2595(3)
H8 H 0.1389 -0.0347 0.2309
C11 C 0.31916(10) 0.21129(16) 0.16532(13)
C12 C 0.38855(11) 0.2134(3) 0.28837(15)
H9 H 0.3519 0.2144 0.3144
C13 C 0.38356(10) 0.21199(16) 0.20854(13)
C14 C 0.43685(10) 0.21190(18) 0.17043(13)
H10 H 0.4331 0.2120 0.1172
C15 C 0.49781(10) 0.21160(18) 0.20976(12)
C16 C 0.44647(12) 0.2132(3) 0.32826(15)
H11 H 0.4491 0.2141 0.3815
C17 C 0.21527(10) 0.02898(15) 0.04429(14)
C18 C 0.22706(10) -0.07189(15) 0.01601(13)
C19 C 0.23154(12) -0.08743(16) -0.06284(13)
H12 H 0.2266 -0.0352 -0.0967
C20 C 0.24303(12) -0.17783(16) -0.08974(13)
H13 H 0.2450 -0.1872 -0.1420
C21 C 0.25196(11) -0.25773(14) -0.03952(13)
C22 C 0.23492(11) -0.14765(15) 0.06522(13)
H14 H 0.2316 -0.1371 0.1171
C23 C 0.11419(10) 0.28102(16) 0.06667(12)
C24 C 0.08070(9) 0.37101(16) 0.03664(12)
C25 C 0.11503(10) 0.45650(17) 0.02740(14)
H15 H 0.1592 0.4555 0.0344
C26 C 0.01614(10) 0.37065(16) 0.02440(12)
H16 H -0.0061 0.3127 0.0297
C27 C -0.01740(9) 0.45679(16) 0.00383(12)
C28 C 0.08438(10) 0.54108(18) 0.00825(15)
H17 H 0.1076 0.5980 0.0030
Mn1D Mn -0.180289(13) 0.83260(2) -0.162201(17)
Mn1E Mn 0.319711(13) -0.66740(2) -0.162201(17)
Mn1B Mn 0.819711(13) 0.16740(2) 0.337799(17)
Mn2A Mn -0.2500 0.7500 0.0000
Mn2_2 Mn 0.2500 -0.7500 0.0000
Mn2G Mn 0.7500 0.2500 0.5000
O1D O -0.17455(7) 0.71767(12) -0.07423(9)
O1E O 0.32545(7) 0.21767(12) -0.07423(9)
O2E O 0.30237(9) -0.53624(12) -0.11055(11)
O2D O -0.19763(9) 0.96376(12) -0.11055(11)
O3D O -0.08397(8) 0.78748(13) -0.08967(12)
O4B O 0.72665(8) 0.19357(16) 0.29607(11)
O4D O -0.27335(8) 0.80643(16) -0.20393(11)
O5B O 0.68369(8) 0.22763(14) 0.40374(10)
O5E O 0.18369(8) 0.27237(14) -0.09626(10)
O6E O 0.27572(9) -0.59775(11) -0.00023(10)
O6E_2 O 0.27572(9) 0.40225(11) -0.00023(10)
N1D N -0.15099(12) 0.71169(16) -0.23988(13)
N2D N -0.12325(11) 0.89748(15) -0.24972(14)
C1D C -0.1688(3) 0.6194(2) -0.2320(2)
H1D H -0.2019 0.6059 -0.2017
C2D C -0.1408(5) 0.5443(3) -0.2663(3)
H2D H -0.1556 0.4806 -0.2631
C3D C -0.0881(5) 0.5673(4) -0.3070(4)
H3D H -0.0655 0.5174 -0.3285
C4D C -0.0699(4) 0.6611(4) -0.3152(3)
H4D H -0.0350 0.6763 -0.3423
C5D C -0.10380(18) 0.7334(2) -0.28279(17)
C6D C -0.09056(15) 0.8366(2) -0.29165(19)
C7D C -0.0491(2) 0.8722(4) -0.3418(3)
H5D H -0.0250 0.8292 -0.3687
C8D C -0.0436(4) 0.9665(5) -0.3516(4)
H6D H -0.0167 0.9905 -0.3867
C9D C -0.0767(4) 1.0283(4) -0.3111(5)
H7D H -0.0730 1.0954 -0.3177
C10D C -0.1164(2) 0.9916(2) -0.2595(3)
H8D H -0.1389 1.0347 -0.2309
C11B C 0.68084(10) 0.21129(16) 0.33468(13)
C12B C 0.61145(11) 0.2134(3) 0.21163(15)
H9B H 0.6481 0.2144 0.1856
C13B C 0.61644(10) 0.21199(16) 0.29146(13)
C14B C 0.56315(10) 0.21190(18) 0.32957(13)
H10B H 0.5669 0.2120 0.3828
C15B C 0.50219(10) 0.21160(18) 0.29024(12)
C16B C 0.55353(12) 0.2132(3) 0.17174(15)
H11B H 0.5509 0.2141 0.1185
C17E C 0.28473(10) -0.52898(15) -0.04429(14)
C18E C 0.27294(10) -0.42811(15) -0.01601(13)
C19E C 0.26846(12) -0.41257(16) 0.06284(13)
H12E H 0.2734 -0.4648 0.0967
C20E C 0.25697(12) -0.32217(16) 0.08974(13)
H13E H 0.2550 -0.3128 0.1420
C21E C 0.24804(11) -0.24227(14) 0.03952(13)
C22E C 0.26508(11) -0.35235(15) -0.06522(13)
H14E H 0.2684 -0.3629 -0.1171
C23D C -0.11419(10) 0.71898(16) -0.06667(12)
C24D C -0.08070(9) 0.62899(16) -0.03664(12)
C25D C -0.11503(10) 0.54350(17) -0.02740(14)
H15D H -0.1592 0.5445 -0.0344
C26D C -0.01614(10) 0.62935(16) -0.02440(12)
H16D H 0.0061 0.6873 -0.0297
C27D C 0.01740(9) 0.54321(16) -0.00383(12)
C28D C -0.08438(10) 0.45892(18) -0.00825(15)
H17D H -0.1076 0.4020 -0.0030
loop_
_geom_bond_atom_site_label_1
_geom_bond_atom_site_label_2
_geom_bond_site_symmetry_1
_geom_bond_site_symmetry_2
Mn1 O1 1_555 1_555
Mn2 O1 1_555 1_555
O1 C23 1_555 1_555
O2 Mn1 1_555 1_555
O3 Mn1 1_555 1_555
O4 Mn1 1_555 1_555
O5 Mn2 1_555 1_555
O6 Mn2 1_555 1_555
N1 Mn1 1_555 1_555
N2 Mn1 1_555 1_555
C1 N1 1_555 1_555
H1 C1 1_555 1_555
C2 C1 1_555 1_555
H2 C2 1_555 1_555
C3 C2 1_555 1_555
H3 C3 1_555 1_555
C4 C3 1_555 1_555
H4 C4 1_555 1_555
C5 N1 1_555 1_555
C6 N2 1_555 1_555
C7 C6 1_555 1_555
H5 C7 1_555 1_555
C8 C7 1_555 1_555
H6 C8 1_555 1_555
C9 C8 1_555 1_555
H7 C9 1_555 1_555
C10 N2 1_555 1_555
H8 C10 1_555 1_555
C11 O4 1_555 1_555
C12 H9 1_555 1_555
C13 C11 1_555 1_555
C14 C13 1_555 1_555
H10 C14 1_555 1_555
C15 C14 1_555 1_555
C16 C12 1_555 1_555
H11 C16 1_555 1_555
C17 O2 1_555 1_555
C18 C17 1_555 1_555
C19 C18 1_555 1_555
H12 C19 1_555 1_555
C20 C19 1_555 1_555
H13 C20 1_555 1_555
C21 C20 1_555 1_555
C22 C18 1_555 1_555
H14 C22 1_555 1_555
C23 O3 1_555 1_555
C24 C23 1_555 1_555
C25 C24 1_555 1_555
H15 C25 1_555 1_555
C26 C24 1_555 1_555
H16 C26 1_555 1_555
C27 C26 1_555 1_555
C28 C25 1_555 1_555
H17 C28 1_555 1_555
Mn1D O1D 1_555 1_555
Mn1E O2E 1_555 1_555
Mn1B O4B 1_555 1_555
Mn2A O1D 1_555 1_555
Mn2_2 O6E 1_555 1_555
Mn2G O5B 1_555 1_555
O1D C23D 1_555 1_555
O1E Mn2 1_555 1_555
O2E C17E 1_555 1_555
O2D Mn1D 1_555 1_555
O3D Mn1D 1_555 1_555
O4B C11B 1_555 1_555
O4D Mn1D 1_555 1_555
O5B C11B 1_555 1_555
O5E Mn2 1_555 1_555
O6E C17E 1_555 1_555
O6E_2 Mn2 1_555 1_555
N1D Mn1D 1_555 1_555
N2D Mn1D 1_555 1_555
C1D N1D 1_555 1_555
H1D C1D 1_555 1_555
C2D C1D 1_555 1_555
H2D C2D 1_555 1_555
C3D C2D 1_555 1_555
H3D C3D 1_555 1_555
C4D C3D 1_555 1_555
H4D C4D 1_555 1_555
C5D N1D 1_555 1_555
C6D N2D 1_555 1_555
C7D C6D 1_555 1_555
H5D C7D 1_555 1_555
C8D C7D 1_555 1_555
H6D C8D 1_555 1_555
C9D C8D 1_555 1_555
H7D C9D 1_555 1_555
C10D N2D 1_555 1_555
H8D C10D 1_555 1_555
C11B C13B 1_555 1_555
C12B H9B 1_555 1_555
C13B C12B 1_555 1_555
C14B C13B 1_555 1_555
H10B C14B 1_555 1_555
C15B C15 1_555 1_555
C16B C15 1_555 1_555
H11B C16B 1_555 1_555
C17E C18E 1_555 1_555
C18E C19E 1_555 1_555
C19E H12E 1_555 1_555
C20E C19E 1_555 1_555
H13E C20E 1_555 1_555
C21E C21 1_555 1_555
C22E C21 1_555 1_555
H14E C22E 1_555 1_555
C23D O3D 1_555 1_555
C24D C23D 1_555 1_555
C25D C24D 1_555 1_555
H15D C25D 1_555 1_555
C26D C24D 1_555 1_555
H16D C26D 1_555 1_555
C27D C27 1_555 1_555
C28D C27 1_555 1_555
H17D C28D 1_555 1_555
O5 C11 1_555 1_555
O6 C17 1_555 1_555
C4 C5 1_555 1_555
C5 C6 1_555 1_555
C9 C10 1_555 1_555
C12 C13 1_555 1_555
C16 C15B 1_555 1_555
C22 C21E 1_555 1_555
C28 C27D 1_555 1_555
C4D C5D 1_555 1_555
C5D C6D 1_555 1_555
C9D C10D 1_555 1_555
C12B C16B 1_555 1_555
C14B C15B 1_555 1_555
C18E C22E 1_555 1_555
C20E C21E 1_555 1_555
C25D C28D 1_555 1_555
C26D C27D 1_555 1_555

#END
