
#######################################################################
#
#                 Cambridge Crystallographic Data Centre
#                                CCDC 
#
#######################################################################
#
# If this CIF has been generated from an entry in the Cambridge 
# Structural Database, then it will include bibliographic, chemical, 
# crystal, experimental, refinement or atomic coordinate data resulting 
# from the CCDC's data processing and validation procedures.
#
#######################################################################

data_SOKQEP
_symmetry_cell_setting           orthorhombic
_symmetry_space_group_name_H-M   'P b c a'
_symmetry_Int_Tables_number      61
_space_group_name_Hall           '-P 2ac 2ab'
loop_
_symmetry_equiv_pos_site_id
_symmetry_equiv_pos_as_xyz
1 x,y,z
2 1/2-x,-y,1/2+z
3 -x,1/2+y,1/2-z
4 1/2+x,1/2-y,-z
5 -x,-y,-z
6 1/2+x,y,1/2-z
7 x,1/2-y,1/2+z
8 1/2-x,1/2+y,z
_cell_length_a                   13.1767(13)
_cell_length_b                   9.7141(10)
_cell_length_c                   25.671(3)
_cell_angle_alpha                90
_cell_angle_beta                 90
_cell_angle_gamma                90
_cell_volume                     3285.88
loop_
_atom_site_label
_atom_site_type_symbol
_atom_site_fract_x
_atom_site_fract_y
_atom_site_fract_z
Cu1 Cu 0.38889(3) 0.10026(4) 0.261519(13)
O1 O 0.35322(16) 0.0529(2) 0.19205(8)
O2 O 0.2559(2) 0.0212(3) 0.09846(10)
N1 N 0.52536(17) 0.1571(2) 0.24267(9)
N2 N 0.43174(19) 0.1544(3) 0.33662(9)
N3 N 0.2688(2) 0.0042(3) 0.28872(10)
N4 N 0.21678(19) -0.0708(3) 0.26374(10)
N5 N 0.1625(2) -0.1445(3) 0.24170(11)
C1 C 0.5036(2) 0.1382(3) 0.14944(12)
C2 C 0.4037(2) 0.0830(3) 0.15011(12)
C3 C 0.3573(3) 0.0604(3) 0.10074(13)
C4 C 0.4082(3) 0.0848(4) 0.05503(13)
H1 H 0.3764 0.0665 0.0234
C5 C 0.5062(3) 0.1365(4) 0.05540(14)
H2 H 0.5401 0.1527 0.0242
C6 C 0.5525(3) 0.1632(4) 0.10162(13)
H3 H 0.6180 0.1990 0.1017
C7 C 0.5582(2) 0.1714(3) 0.19620(12)
H4 H 0.6234 0.2066 0.1923
C8 C 0.5881(2) 0.1955(4) 0.28742(13)
H5 H 0.6367 0.2657 0.2775
H6 H 0.6251 0.1159 0.3001
C9 C 0.5183(3) 0.2495(3) 0.32922(13)
H7 H 0.5555 0.2588 0.3617
H8 H 0.4934 0.3398 0.3194
C10 C 0.4585(3) 0.0260(4) 0.36467(13)
H9 H 0.5172 -0.0151 0.3480
H10 H 0.4026 -0.0384 0.3615
C11 C 0.4820(4) 0.0472(4) 0.42217(15)
H11 H 0.4939 -0.0414 0.4385
H12 H 0.5433 0.1017 0.4256
C12 C 0.3955(4) 0.1194(5) 0.44976(15)
H13 H 0.3361 0.0603 0.4501
H14 H 0.4145 0.1383 0.4856
C13 C 0.3708(3) 0.2526(4) 0.42221(13)
H15 H 0.4278 0.3153 0.4251
H16 H 0.3124 0.2954 0.4386
C14 C 0.3481(3) 0.2254(4) 0.36491(12)
H17 H 0.2872 0.1695 0.3625
H18 H 0.3343 0.3124 0.3478
C15 C 0.2358(3) -0.1177(4) 0.10626(19)
H19 H 0.2699 -0.1710 0.0801
H20 H 0.1640 -0.1333 0.1040
H21 H 0.2595 -0.1446 0.1401
Cu1G Cu 0.11111(3) -0.39974(4) 0.261519(13)
N5G N 0.3375(2) 0.3555(3) 0.24170(11)
loop_
_geom_bond_atom_site_label_1
_geom_bond_atom_site_label_2
_geom_bond_site_symmetry_1
_geom_bond_site_symmetry_2
Cu1 O1 1_555 1_555
O1 C2 1_555 1_555
O2 C3 1_555 1_555
N1 Cu1 1_555 1_555
N2 Cu1 1_555 1_555
N3 Cu1 1_555 1_555
N4 N3 1_555 1_555
N5 N4 1_555 1_555
C1 C2 1_555 1_555
C2 C3 1_555 1_555
C3 C4 1_555 1_555
C4 H1 1_555 1_555
C5 C4 1_555 1_555
H2 C5 1_555 1_555
C6 C1 1_555 1_555
H3 C6 1_555 1_555
C7 N1 1_555 1_555
H4 C7 1_555 1_555
C8 N1 1_555 1_555
H5 C8 1_555 1_555
H6 C8 1_555 1_555
C9 N2 1_555 1_555
H7 C9 1_555 1_555
H8 C9 1_555 1_555
C10 N2 1_555 1_555
H9 C10 1_555 1_555
H10 C10 1_555 1_555
C11 C10 1_555 1_555
H11 C11 1_555 1_555
H12 C11 1_555 1_555
C12 C11 1_555 1_555
H13 C12 1_555 1_555
H14 C12 1_555 1_555
C13 C12 1_555 1_555
H15 C13 1_555 1_555
H16 C13 1_555 1_555
C14 N2 1_555 1_555
H17 C14 1_555 1_555
H18 C14 1_555 1_555
C15 O2 1_555 1_555
H19 C15 1_555 1_555
H20 C15 1_555 1_555
H21 C15 1_555 1_555
Cu1G N5 1_555 1_555
N5G Cu1 1_555 1_555
C1 C7 1_555 1_555
C5 C6 1_555 1_555
C8 C9 1_555 1_555
C13 C14 1_555 1_555

#END
