
#######################################################################
#
#                 Cambridge Crystallographic Data Centre
#                                CCDC 
#
#######################################################################
#
# If this CIF has been generated from an entry in the Cambridge 
# Structural Database, then it will include bibliographic, chemical, 
# crystal, experimental, refinement or atomic coordinate data resulting 
# from the CCDC's data processing and validation procedures.
#
#######################################################################

data_SOKQIT
_symmetry_cell_setting           monoclinic
_symmetry_space_group_name_H-M   'P 21'
_symmetry_Int_Tables_number      4
_space_group_name_Hall           'P 2yb'
loop_
_symmetry_equiv_pos_site_id
_symmetry_equiv_pos_as_xyz
1 x,y,z
2 -x,1/2+y,-z
_cell_length_a                   10.145(2)
_cell_length_b                   7.1844(16)
_cell_length_c                   10.757(2)
_cell_angle_alpha                90.00
_cell_angle_beta                 114.903(3)
_cell_angle_gamma                90.00
_cell_volume                     711.134
loop_
_atom_site_label
_atom_site_type_symbol
_atom_site_fract_x
_atom_site_fract_y
_atom_site_fract_z
Cu1 Cu 0.74498(3) 0.84269(6) 0.54652(3)
N1 N 0.8219(3) 0.6843(4) 0.4461(2)
N2 N 0.8010(3) 0.6262(4) 0.6856(2)
N3 N 0.7018(4) 1.0079(4) 0.6719(3)
N4 N 0.5962(3) 1.1027(4) 0.6276(3)
N5 N 0.4989(4) 1.2015(6) 0.5922(4)
O1 O 0.7137(3) 1.0445(3) 0.4231(2)
O2 O 0.8626(3) 0.5299(4) 0.9675(2)
C1 C 0.7389(3) 0.8746(5) 0.2424(3)
C2 C 0.6992(3) 1.0316(5) 0.2972(3)
C3 C 0.6411(4) 1.1853(6) 0.2091(4)
H1 H 0.6147 1.2919 0.2422
C4 C 0.6230(4) 1.1797(7) 0.0754(4)
H2 H 0.5834 1.2823 0.0192
C5 C 0.6619(4) 1.0266(7) 0.0224(4)
H3 H 0.6489 1.0258 -0.0685
C6 C 0.7203(4) 0.8741(7) 0.1047(3)
H4 H 0.7477 0.7704 0.0695
C7 C 0.8023(3) 0.7100(5) 0.3219(3)
H5 H 0.8311 0.6155 0.2796
C8 C 0.8897(4) 0.5135(4) 0.5190(3)
H6 H 0.9925 0.5340 0.5744
H7 H 0.8792 0.4147 0.4541
C9 C 0.8151(3) 0.4599(4) 0.6095(3)
H8 H 0.7195 0.4096 0.5537
H9 H 0.8712 0.3646 0.6739
C10 C 0.9393(3) 0.6749(4) 0.8043(3)
H10 H 0.9320 0.8005 0.8339
H11 H 1.0178 0.6729 0.7753
C11 C 0.9754(4) 0.5431(5) 0.9240(3)
H12 H 0.9946 0.4205 0.8978
H13 H 1.0631 0.5857 1.0000
C12 C 0.7335(4) 0.4647(5) 0.8565(3)
H14 H 0.6563 0.4528 0.8867
H15 H 0.7512 0.3428 0.8278
C13 C 0.6868(4) 0.5978(5) 0.7367(3)
H16 H 0.5997 0.5499 0.6627
H17 H 0.6629 0.7169 0.7644
Cu1A Cu 0.25502(3) 1.34269(6) 0.45348(3)
N5A N 0.5011(4) 0.7015(6) 0.4078(4)
loop_
_geom_bond_atom_site_label_1
_geom_bond_atom_site_label_2
_geom_bond_site_symmetry_1
_geom_bond_site_symmetry_2
Cu1 N1 1_555 1_555
N1 C7 1_555 1_555
N2 Cu1 1_555 1_555
N3 Cu1 1_555 1_555
N4 N3 1_555 1_555
N5 N4 1_555 1_555
O1 Cu1 1_555 1_555
O2 C11 1_555 1_555
C1 C2 1_555 1_555
C2 O1 1_555 1_555
C3 C2 1_555 1_555
H1 C3 1_555 1_555
C4 C3 1_555 1_555
H2 C4 1_555 1_555
C5 C4 1_555 1_555
H3 C5 1_555 1_555
C6 C1 1_555 1_555
H4 C6 1_555 1_555
C7 C1 1_555 1_555
H5 C7 1_555 1_555
C8 N1 1_555 1_555
H6 C8 1_555 1_555
H7 C8 1_555 1_555
C9 N2 1_555 1_555
H8 C9 1_555 1_555
H9 C9 1_555 1_555
C10 N2 1_555 1_555
H10 C10 1_555 1_555
H11 C10 1_555 1_555
C11 C10 1_555 1_555
H12 C11 1_555 1_555
H13 C11 1_555 1_555
C12 O2 1_555 1_555
H14 C12 1_555 1_555
H15 C12 1_555 1_555
C13 N2 1_555 1_555
H16 C13 1_555 1_555
H17 C13 1_555 1_555
Cu1A N5 1_555 1_555
N5A Cu1 1_555 1_555
C5 C6 1_555 1_555
C8 C9 1_555 1_555
C12 C13 1_555 1_555

#END
