
#######################################################################
#
#                 Cambridge Crystallographic Data Centre
#                                CCDC 
#
#######################################################################
#
# If this CIF has been generated from an entry in the Cambridge 
# Structural Database, then it will include bibliographic, chemical, 
# crystal, experimental, refinement or atomic coordinate data resulting 
# from the CCDC's data processing and validation procedures.
#
#######################################################################

data_SOKQOZ
_symmetry_cell_setting           monoclinic
_symmetry_space_group_name_H-M   'C 2/c'
_symmetry_Int_Tables_number      15
_space_group_name_Hall           '-C 2yn'
loop_
_symmetry_equiv_pos_site_id
_symmetry_equiv_pos_as_xyz
1 x,y,z
2 1/2+x,1/2+y,z
3 -x,y,1/2-z
4 1/2-x,1/2+y,1/2-z
5 -x,-y,-z
6 1/2-x,1/2-y,-z
7 x,-y,1/2+z
8 1/2+x,1/2-y,1/2+z
_cell_length_a                   21.5136(15)
_cell_length_b                   11.5098(8)
_cell_length_c                   7.4520(5)
_cell_angle_alpha                90
_cell_angle_beta                 99.322(1)
_cell_angle_gamma                90
_cell_volume                     1820.87
loop_
_atom_site_label
_atom_site_type_symbol
_atom_site_fract_x
_atom_site_fract_y
_atom_site_fract_z
Mn1 Mn 0.5000 0.11399(4) 0.7500
O1 O 0.45195(7) 0.13604(13) 0.9838(2)
O2 O 0.42310(7) -0.01403(14) 1.1378(3)
N1 N 0.55471(8) 0.27539(15) 0.8649(2)
C1 C 0.60857(10) 0.2746(2) 0.9775(3)
H1 H 0.6257 0.2035 1.0190
C2 C 0.64069(12) 0.3752(2) 1.0367(4)
H2 H 0.6791 0.3713 1.1142
C3 C 0.61577(12) 0.4786(2) 0.9810(4)
H3 H 0.6371 0.5468 1.0190
C4 C 0.55792(12) 0.48367(19) 0.8664(3)
C5 C 0.52943(10) 0.37827(17) 0.8108(3)
C6 C 0.52754(13) 0.5900(2) 0.8057(3)
H4 H 0.5464 0.6603 0.8443
C7 C 0.41396(10) 0.08105(18) 1.0587(3)
C8 C 0.34947(9) 0.13266(17) 1.0568(3)
C9 C 0.32905(9) 0.22026(18) 0.9420(3)
H5 H 0.3551 0.2479 0.8633
C10 C 0.26906(9) 0.27093(17) 0.9387(3)
C11 C 0.24669(10) 0.3618(2) 0.8208(3)
H6 H 0.2715 0.3894 0.7387
C12 C 0.31061(10) 0.08970(19) 1.1755(3)
H7 H 0.3241 0.0277 1.2520
Mn1D Mn 0.5000 -0.11399(4) 1.2500
Mn1E Mn 0.0000 0.38601(4) 1.2500
Mn1A Mn 0.0000 0.61399(4) 0.7500
O1E O 0.04805(7) 0.36396(13) 1.0162(2)
O1B O 0.54805(7) 0.13604(13) 0.5162(2)
O2E O 0.07690(7) 0.51403(14) 0.8622(3)
O2F O 0.42310(7) 0.01403(14) 0.6378(3)
O2D O 0.57690(7) 0.01403(14) 0.8622(3)
N1B N 0.44529(8) 0.27539(15) 0.6351(2)
C1B C 0.39143(10) 0.2746(2) 0.5225(3)
H1B H 0.3743 0.2035 0.4810
C2B C 0.35931(12) 0.3752(2) 0.4633(4)
H2B H 0.3209 0.3713 0.3858
C3B C 0.38423(12) 0.4786(2) 0.5190(4)
H3B H 0.3629 0.5468 0.4810
C4B C 0.44208(12) 0.48367(19) 0.6336(3)
C5B C 0.47057(10) 0.37827(17) 0.6892(3)
C6B C 0.47246(13) 0.5900(2) 0.6943(3)
H4B H 0.4536 0.6603 0.6557
C7E C 0.08604(10) 0.41895(18) 0.9413(3)
C8E C 0.15053(9) 0.36734(17) 0.9432(3)
C9E C 0.17095(9) 0.27974(18) 1.0580(3)
H5E H 0.1449 0.2521 1.1367
C10E C 0.23094(9) 0.22907(17) 1.0613(3)
C11E C 0.25331(10) 0.1382(2) 1.1792(3)
H6E H 0.2285 0.1106 1.2613
C12E C 0.18939(10) 0.41030(19) 0.8245(3)
H7E H 0.1759 0.4723 0.7480
loop_
_geom_bond_atom_site_label_1
_geom_bond_atom_site_label_2
_geom_bond_site_symmetry_1
_geom_bond_site_symmetry_2
Mn1 O1 1_555 1_555
O1 C7 1_555 1_555
O2 C7 1_555 1_555
N1 Mn1 1_555 1_555
C1 N1 1_555 1_555
H1 C1 1_555 1_555
C2 C1 1_555 1_555
H2 C2 1_555 1_555
C3 C2 1_555 1_555
H3 C3 1_555 1_555
C4 C3 1_555 1_555
C5 N1 1_555 1_555
C6 C4 1_555 1_555
H4 C6 1_555 1_555
C7 C8 1_555 1_555
C8 C9 1_555 1_555
C9 H5 1_555 1_555
C10 C9 1_555 1_555
C11 C10 1_555 1_555
H6 C11 1_555 1_555
C12 C8 1_555 1_555
H7 C12 1_555 1_555
Mn1D O2 1_555 1_555
Mn1E O1E 1_555 1_555
Mn1A O2E 1_555 1_555
O1E C7E 1_555 1_555
O1B Mn1 1_555 1_555
O2E C7E 1_555 1_555
O2F Mn1 1_555 1_555
O2D Mn1 1_555 1_555
N1B Mn1 1_555 1_555
C1B N1B 1_555 1_555
H1B C1B 1_555 1_555
C2B C1B 1_555 1_555
H2B C2B 1_555 1_555
C3B C2B 1_555 1_555
H3B C3B 1_555 1_555
C4B C3B 1_555 1_555
C5B C5 1_555 1_555
C6B C6 1_555 1_555
H4B C6B 1_555 1_555
C7E C8E 1_555 1_555
C8E C9E 1_555 1_555
C9E H5E 1_555 1_555
C10E C10 1_555 1_555
C11E C12 1_555 1_555
H6E C11E 1_555 1_555
C12E C11 1_555 1_555
H7E C12E 1_555 1_555
C4 C5 1_555 1_555
N1B C5B 1_555 1_555
C4B C5B 1_555 1_555
C4B C6B 1_555 1_555
C8E C12E 1_555 1_555
C9E C10E 1_555 1_555
C10E C11E 1_555 1_555

#END
