
#######################################################################
#
#                 Cambridge Crystallographic Data Centre
#                                CCDC 
#
#######################################################################
#
# If this CIF has been generated from an entry in the Cambridge 
# Structural Database, then it will include bibliographic, chemical, 
# crystal, experimental, refinement or atomic coordinate data resulting 
# from the CCDC's data processing and validation procedures.
#
#######################################################################

data_SOKQEP01
_symmetry_cell_setting           orthorhombic
_symmetry_space_group_name_H-M   'P b c a'
_symmetry_Int_Tables_number      61
_space_group_name_Hall           '-P 2ac 2ab'
loop_
_symmetry_equiv_pos_site_id
_symmetry_equiv_pos_as_xyz
1 x,y,z
2 1/2-x,-y,1/2+z
3 -x,1/2+y,1/2-z
4 1/2+x,1/2-y,-z
5 -x,-y,-z
6 1/2+x,y,1/2-z
7 x,1/2-y,1/2+z
8 1/2-x,1/2+y,z
_cell_length_a                   13.0218(6)
_cell_length_b                   9.6216(5)
_cell_length_c                   25.4583(12)
_cell_angle_alpha                90
_cell_angle_beta                 90
_cell_angle_gamma                90
_cell_volume                     3189.68
loop_
_atom_site_label
_atom_site_type_symbol
_atom_site_fract_x
_atom_site_fract_y
_atom_site_fract_z
C1 C 0.09741(15) 0.41877(19) 0.14826(8)
C2 C 0.14507(16) 0.4391(2) 0.09865(8)
C3 C 0.09436(19) 0.4120(2) 0.05224(9)
C4 C -0.00622(17) 0.3608(2) 0.05211(8)
C5 C -0.05368(16) 0.3366(2) 0.09947(8)
C6 C -0.00434(15) 0.36361(19) 0.14772(7)
C7 C -0.05998(15) 0.33044(19) 0.19503(7)
C8 C -0.09051(16) 0.3074(2) 0.28709(8)
C9 C -0.01939(15) 0.25037(19) 0.32895(8)
C10 C 0.04089(16) 0.4760(2) 0.36488(8)
C11 C 0.01800(18) 0.4537(2) 0.42294(9)
C12 C 0.10676(18) 0.3826(3) 0.45053(9)
C13 C 0.13267(18) 0.2467(2) 0.42236(8)
C14 C 0.15467(16) 0.2751(2) 0.36430(7)
C15 C 0.26610(18) 0.6213(2) 0.10591(9)
Cu1 Cu 0.111396(18) 0.40226(2) 0.260704(9)
H1 H 0.131(2) 0.426(3) 0.0208(13)
H2 H -0.0396(19) 0.343(2) 0.0203(10)
H3 H -0.1209(18) 0.307(3) 0.1016(10)
H4 H -0.1312(18) 0.293(2) 0.1879(9)
H5 H -0.143(2) 0.244(3) 0.2752(11)
H6 H -0.058(2) 0.232(2) 0.3602(9)
H7 H 0.1006(17) 0.531(3) 0.3625(9)
H8 H -0.0461(19) 0.400(2) 0.4285(9)
H9 H 0.093(2) 0.361(3) 0.4866(13)
H10 H 0.073(2) 0.186(2) 0.4235(9)
H11 H 0.1722(17) 0.191(2) 0.3472(9)
H12 H 0.245(2) 0.644(3) 0.1389(12)
H13 H -0.126(2) 0.388(3) 0.2967(12)
H14 H 0.0069(18) 0.155(2) 0.3187(9)
H15 H -0.0170(16) 0.522(2) 0.3476(8)
H16 H 0.002(2) 0.533(3) 0.4385(11)
H17 H 0.1694(19) 0.442(2) 0.4524(9)
H18 H 0.192(2) 0.207(2) 0.4377(10)
H19 H 0.213(2) 0.331(3) 0.3611(9)
H20 H 0.228(2) 0.679(3) 0.0813(12)
H21 H 0.336(2) 0.642(2) 0.1014(9)
N1 N -0.02743(13) 0.34781(17) 0.24202(6)
N2 N 0.06940(13) 0.34525(16) 0.33615(6)
N3 N 0.23364(13) 0.49867(17) 0.28811(6)
N4 N 0.28615(14) 0.57408(17) 0.26241(6)
N5 N 0.34057(14) 0.6478(2) 0.23973(6)
O1 O 0.14779(10) 0.45142(14) 0.19077(5)
O2 O 0.24730(11) 0.47648(14) 0.09627(6)
Cu1G Cu 0.388604(18) 0.90226(2) 0.260704(9)
N5G N 0.15943(14) 0.1478(2) 0.23973(6)
loop_
_geom_bond_atom_site_label_1
_geom_bond_atom_site_label_2
_geom_bond_site_symmetry_1
_geom_bond_site_symmetry_2
C1 C2 1_555 1_555
C2 C3 1_555 1_555
C3 C4 1_555 1_555
C4 C5 1_555 1_555
C5 C6 1_555 1_555
C6 C1 1_555 1_555
C7 C6 1_555 1_555
C8 C9 1_555 1_555
C9 H6 1_555 1_555
C10 C11 1_555 1_555
C11 C12 1_555 1_555
C12 C13 1_555 1_555
C13 C14 1_555 1_555
C14 H11 1_555 1_555
C15 H12 1_555 1_555
Cu1 N1 1_555 1_555
H1 C3 1_555 1_555
H2 C4 1_555 1_555
H3 C5 1_555 1_555
H4 C7 1_555 1_555
H5 C8 1_555 1_555
H7 C10 1_555 1_555
H8 C11 1_555 1_555
H9 C12 1_555 1_555
H10 C13 1_555 1_555
H13 C8 1_555 1_555
H14 C9 1_555 1_555
H15 C10 1_555 1_555
H16 C11 1_555 1_555
H17 C12 1_555 1_555
H18 C13 1_555 1_555
H19 C14 1_555 1_555
H20 C15 1_555 1_555
H21 C15 1_555 1_555
N1 C7 1_555 1_555
N2 C9 1_555 1_555
N3 Cu1 1_555 1_555
N4 N3 1_555 1_555
N5 N4 1_555 1_555
O1 C1 1_555 1_555
O2 C2 1_555 1_555
Cu1G N5 1_555 1_555
N5G Cu1 1_555 1_555
C8 N1 1_555 1_555
C10 N2 1_555 1_555
C14 N2 1_555 1_555
C15 O2 1_555 1_555
Cu1 N2 1_555 1_555
Cu1 O1 1_555 1_555

#END
