
#######################################################################
#
#                 Cambridge Crystallographic Data Centre
#                                CCDC 
#
#######################################################################
#
# If this CIF has been generated from an entry in the Cambridge 
# Structural Database, then it will include bibliographic, chemical, 
# crystal, experimental, refinement or atomic coordinate data resulting 
# from the CCDC's data processing and validation procedures.
#
#######################################################################

data_SOKQOZ01
_symmetry_cell_setting           monoclinic
_symmetry_space_group_name_H-M   'C 2/c'
_symmetry_Int_Tables_number      15
_space_group_name_Hall           '-C 2yn'
loop_
_symmetry_equiv_pos_site_id
_symmetry_equiv_pos_as_xyz
1 x,y,z
2 -x,y,1/2-z
3 1/2+x,1/2+y,z
4 1/2-x,1/2+y,1/2-z
5 -x,-y,-z
6 x,-y,1/2+z
7 1/2-x,1/2-y,-z
8 1/2+x,1/2-y,1/2+z
_cell_length_a                   21.690(4)
_cell_length_b                   11.625(2)
_cell_length_c                   7.5120(15)
_cell_angle_alpha                90
_cell_angle_beta                 99.30(3)
_cell_angle_gamma                90
_cell_volume                     1869.23
loop_
_atom_site_label
_atom_site_type_symbol
_atom_site_fract_x
_atom_site_fract_y
_atom_site_fract_z
Mn1 Mn 0.0000 0.11406(5) 0.2500
C1 C 0.10858(14) 0.2747(3) 0.4768(4)
H1 H 0.1259 0.2043 0.5173
C2 C 0.14056(15) 0.3752(3) 0.5363(5)
H2 H 0.1787 0.3712 0.6131
C3 C 0.11575(16) 0.4787(3) 0.4815(5)
H3 H 0.1370 0.5461 0.5200
C4 C 0.05783(15) 0.4841(3) 0.3663(4)
C5 C 0.02961(14) 0.3787(2) 0.3104(4)
C6 C 0.02745(17) 0.5895(3) 0.3050(5)
H4 H 0.0463 0.6592 0.3424
C7 C 0.25335(14) 0.3618(3) 0.1787(4)
H5 H 0.2287 0.3894 0.2597
C8 C 0.23091(12) 0.2705(2) 0.0609(4)
C9 C 0.17109(13) 0.2203(2) 0.0581(4)
H6 H 0.1454 0.2479 0.1364
C10 C 0.15034(12) 0.1322(2) -0.0571(4)
C11 C 0.18930(14) 0.0898(3) -0.1754(4)
H7 H 0.1759 0.0287 -0.2517
C12 C 0.08619(14) 0.0815(3) -0.0583(4)
N1 N 0.05456(11) 0.2751(2) 0.3651(3)
O1 O 0.04813(9) 0.13593(18) 0.0161(3)
O2 O 0.07695(10) -0.01386(19) -0.1381(3)
C1A C -0.10858(14) 0.2747(3) 0.0232(4)
H1A H -0.1259 0.2043 -0.0173
C2A C -0.14056(15) 0.3752(3) -0.0363(5)
H2A H -0.1787 0.3712 -0.1131
C3A C -0.11575(16) 0.4787(3) 0.0185(5)
H3A H -0.1370 0.5461 -0.0200
C4A C -0.05783(15) 0.4841(3) 0.1337(4)
C5A C -0.02961(14) 0.3787(2) 0.1896(4)
C6A C -0.02745(17) 0.5895(3) 0.1950(5)
H4A H -0.0463 0.6592 0.1576
N1A N -0.05456(11) 0.2751(2) 0.1349(3)
C7F C 0.24665(14) 0.1382(3) -0.1787(4)
H5F H 0.2713 0.1106 -0.2597
C8F C 0.26909(12) 0.2295(2) -0.0609(4)
C9F C 0.32891(13) 0.2797(2) -0.0581(4)
H6F H 0.3546 0.2521 -0.1364
C10F C 0.34966(12) 0.3678(2) 0.0571(4)
C11F C 0.31070(14) 0.4102(3) 0.1754(4)
H7F H 0.3241 0.4713 0.2517
C12F C 0.41381(14) 0.4185(3) 0.0583(4)
O1F O 0.45187(9) 0.36407(18) -0.0161(3)
O2F O 0.42305(10) 0.51386(19) 0.1381(3)
Mn1B Mn 0.5000 0.61406(5) 0.2500
Mn1D Mn 0.0000 -0.11406(5) -0.2500
Mn1F Mn 0.5000 0.38594(5) -0.2500
O1A O -0.04813(9) 0.13593(18) 0.4839(3)
O2D O -0.07695(10) 0.01386(19) 0.1381(3)
O2E O 0.07695(10) 0.01386(19) 0.3619(3)
loop_
_geom_bond_atom_site_label_1
_geom_bond_atom_site_label_2
_geom_bond_site_symmetry_1
_geom_bond_site_symmetry_2
Mn1 N1 1_555 1_555
C1 H1 1_555 1_555
C2 C1 1_555 1_555
H2 C2 1_555 1_555
C3 C2 1_555 1_555
H3 C3 1_555 1_555
C4 C3 1_555 1_555
C5 C4 1_555 1_555
C6 C4 1_555 1_555
H4 C6 1_555 1_555
C7 H5 1_555 1_555
C8 C7 1_555 1_555
C9 C8 1_555 1_555
H6 C9 1_555 1_555
C10 C9 1_555 1_555
C11 C10 1_555 1_555
H7 C11 1_555 1_555
C12 C10 1_555 1_555
N1 C1 1_555 1_555
O1 Mn1 1_555 1_555
O2 C12 1_555 1_555
C1A H1A 1_555 1_555
C2A C1A 1_555 1_555
H2A C2A 1_555 1_555
C3A C2A 1_555 1_555
H3A C3A 1_555 1_555
C4A C3A 1_555 1_555
C5A C5 1_555 1_555
C6A C6 1_555 1_555
H4A C6A 1_555 1_555
N1A Mn1 1_555 1_555
C7F C11 1_555 1_555
H5F C7F 1_555 1_555
C8F C8 1_555 1_555
C9F C8F 1_555 1_555
H6F C9F 1_555 1_555
C10F C9F 1_555 1_555
C11F C7 1_555 1_555
H7F C11F 1_555 1_555
C12F C10F 1_555 1_555
O1F C12F 1_555 1_555
O2F C12F 1_555 1_555
Mn1B O2F 1_555 1_555
Mn1D O2 1_555 1_555
Mn1F O1F 1_555 1_555
O1A Mn1 1_555 1_555
O2D Mn1 1_555 1_555
O2E Mn1 1_555 1_555
C5 N1 1_555 1_555
C12 O1 1_555 1_555
C1A N1A 1_555 1_555
C4A C5A 1_555 1_555
C4A C6A 1_555 1_555
C5A N1A 1_555 1_555
C7F C8F 1_555 1_555
C10F C11F 1_555 1_555

#END
