
#######################################################################
#
#                 Cambridge Crystallographic Data Centre
#                                CCDC 
#
#######################################################################
#
# If this CIF has been generated from an entry in the Cambridge 
# Structural Database, then it will include bibliographic, chemical, 
# crystal, experimental, refinement or atomic coordinate data resulting 
# from the CCDC's data processing and validation procedures.
#
#######################################################################

data_SOKVAR
_symmetry_cell_setting           orthorhombic
_symmetry_space_group_name_H-M   'P 21 21 21'
_symmetry_Int_Tables_number      19
_space_group_name_Hall           'P 2ac 2ab'
loop_
_symmetry_equiv_pos_site_id
_symmetry_equiv_pos_as_xyz
1 x,y,z
2 1/2+x,1/2-y,-z
3 -x,1/2+y,1/2-z
4 1/2-x,-y,1/2+z
_cell_length_a                   16.6414(17)
_cell_length_b                   19.756(2)
_cell_length_c                   34.283(3)
_cell_angle_alpha                90
_cell_angle_beta                 90
_cell_angle_gamma                90
_cell_volume                     11271.1
loop_
_atom_site_label
_atom_site_type_symbol
_atom_site_fract_x
_atom_site_fract_y
_atom_site_fract_z
U1 U 0.33350(3) 0.54431(2) 0.145837(12)
O1 O 0.3227(6) 0.5256(4) 0.0955(2)
O2 O 0.3426(5) 0.5657(5) 0.1957(2)
N1 N 0.3936(6) 0.4227(5) 0.1463(3)
N2 N 0.4783(6) 0.5050(6) 0.1561(3)
N3 N 0.2235(6) 0.4670(6) 0.1707(3)
N4 N 0.1837(5) 0.5561(6) 0.1426(3)
N5 N 0.4278(6) 0.6334(6) 0.1185(3)
N6 N 0.3038(5) 0.6675(5) 0.1404(2)
C1 C 0.3627(6) 0.3581(6) 0.1419(3)
C2 C 0.3778(7) 0.3057(7) 0.1687(3)
C3 C 0.3474(8) 0.2415(7) 0.1644(4)
C4 C 0.2984(10) 0.2249(7) 0.1334(5)
C5 C 0.2844(7) 0.2741(7) 0.1071(4)
C6 C 0.3151(7) 0.3382(6) 0.1104(4)
C7 C 0.4680(8) 0.4389(7) 0.1522(3)
C8 C 0.5511(8) 0.5277(9) 0.1634(5)
H1 H 0.5564 0.5741 0.1671
C9 C 0.6191(9) 0.4905(9) 0.1660(5)
H2 H 0.6687 0.5088 0.1727
C10 C 0.6073(9) 0.4206(9) 0.1575(4)
H3 H 0.6520 0.3926 0.1560
C11 C 0.5330(7) 0.3929(8) 0.1515(3)
H4 H 0.5257 0.3468 0.1472
C12 C 0.2163(6) 0.4077(7) 0.1909(3)
C13 C 0.2607(8) 0.3947(7) 0.2250(3)
C14 C 0.2577(8) 0.3334(7) 0.2445(4)
C15 C 0.2103(10) 0.2808(8) 0.2315(4)
C16 C 0.1669(9) 0.2918(8) 0.1971(4)
C17 C 0.1700(9) 0.3528(8) 0.1781(4)
C18 C 0.1584(8) 0.5057(6) 0.1596(4)
C19 C 0.1266(9) 0.6042(9) 0.1257(4)
H5 H 0.1448 0.6403 0.1107
C20 C 0.0486(10) 0.5957(10) 0.1319(5)
H6 H 0.0104 0.6264 0.1229
C21 C 0.0275(10) 0.5376(9) 0.1528(5)
H7 H -0.0271 0.5308 0.1569
C22 C 0.0764(8) 0.4912(8) 0.1675(5)
H8 H 0.0589 0.4535 0.1813
C23 C 0.4956(8) 0.6376(6) 0.0973(4)
C24 C 0.5005(8) 0.6113(7) 0.0584(4)
C25 C 0.5702(10) 0.6077(9) 0.0380(5)
C26 C 0.6369(10) 0.6317(9) 0.0514(5)
C27 C 0.6404(10) 0.6586(10) 0.0896(6)
C28 C 0.5714(9) 0.6639(7) 0.1113(5)
C29 C 0.3781(6) 0.6885(7) 0.1208(4)
C30 C 0.2583(10) 0.7256(8) 0.1466(5)
H9 H 0.2139 0.7203 0.1627
C31 C 0.2692(10) 0.7872(8) 0.1326(6)
H10 H 0.2316 0.8210 0.1373
C32 C 0.3359(9) 0.8003(8) 0.1115(6)
H11 H 0.3453 0.8443 0.1029
C33 C 0.3894(9) 0.7512(7) 0.1025(6)
H12 H 0.4313 0.7585 0.0850
F1 F 0.4200(5) 0.3202(4) 0.2015(2)
F2 F 0.3605(6) 0.1952(5) 0.1930(3)
F3 F 0.2694(6) 0.1633(4) 0.1315(3)
F4 F 0.2367(6) 0.2583(5) 0.0758(3)
F5 F 0.2965(5) 0.3827(4) 0.0823(2)
F6 F 0.3064(5) 0.4428(5) 0.2397(2)
F7 F 0.3033(6) 0.3252(5) 0.2766(2)
F8 F 0.2083(7) 0.2235(5) 0.2506(3)
F9 F 0.1210(6) 0.2399(5) 0.1841(3)
F10 F 0.1328(8) 0.3563(5) 0.1457(3)
F11 F 0.4330(6) 0.5871(6) 0.0428(2)
F12 F 0.5697(7) 0.5802(6) 0.0014(3)
F13 F 0.7068(6) 0.6280(7) 0.0308(4)
F14 F 0.7083(7) 0.6842(8) 0.1046(5)
F15 F 0.5667(7) 0.6925(5) 0.1456(3)
K1 K 0.30021(19) 0.57167(17) 0.27190(8)
O3 O 0.3893(10) 0.6855(7) 0.2666(4)
C34 C 0.4396(18) 0.7039(11) 0.2340(7)
H13 H 0.4956 0.6959 0.2404
H14 H 0.4259 0.6767 0.2114
C35 C 0.427(2) 0.7746(15) 0.2256(9)
H15 H 0.4016 0.7808 0.2004
H16 H 0.4770 0.7997 0.2263
C36 C 0.371(2) 0.7956(16) 0.2587(9)
H17 H 0.3880 0.8390 0.2691
H18 H 0.3167 0.8000 0.2491
C37 C 0.374(2) 0.7449(12) 0.2890(8)
H19 H 0.4174 0.7537 0.3073
H20 H 0.3237 0.7419 0.3030
O4 O 0.1738(9) 0.6591(9) 0.2593(4)
C38 C 0.1207(14) 0.6937(12) 0.2860(7)
H21 H 0.1460 0.7005 0.3112
H22 H 0.1037 0.7371 0.2757
C39 C 0.0512(16) 0.6445(15) 0.2887(8)
H23 H 0.0001 0.6682 0.2890
H24 H 0.0553 0.6166 0.3119
C40 C 0.060(2) 0.6024(16) 0.2521(8)
H25 H 0.0754 0.5564 0.2586
H26 H 0.0100 0.6012 0.2377
C41 C 0.1248(13) 0.6356(16) 0.2281(6)
H27 H 0.1040 0.6725 0.2124
H28 H 0.1527 0.6035 0.2116
O5 O 0.4489(6) 0.5178(7) 0.2871(3)
C42 C 0.4780(10) 0.4523(13) 0.2839(7)
H29 H 0.4778 0.4379 0.2569
H30 H 0.4448 0.4214 0.2989
C43 C 0.5610(13) 0.4526(16) 0.2994(9)
H31 H 0.5621 0.4350 0.3258
H32 H 0.5957 0.4249 0.2832
C44 C 0.5868(14) 0.5215(14) 0.2988(11)
H33 H 0.6367 0.5263 0.2844
H34 H 0.5943 0.5387 0.3250
C45 C 0.5174(10) 0.5586(13) 0.2779(6)
H35 H 0.5110 0.6043 0.2878
H36 H 0.5263 0.5605 0.2500
U2 U 0.23118(3) 0.55927(2) 0.392999(11)
O6 O 0.2313(5) 0.5368(4) 0.44325(19)
O7 O 0.2327(5) 0.5838(4) 0.3429(2)
N7 N 0.2347(6) 0.4407(5) 0.3658(3)
N8 N 0.3485(6) 0.4733(5) 0.3940(3)
N9 N 0.0905(6) 0.5215(5) 0.3936(3)
N10 N 0.1018(6) 0.6299(6) 0.3922(3)
N11 N 0.2697(7) 0.6765(6) 0.4201(3)
N12 N 0.3650(6) 0.6206(6) 0.3896(3)
C46 C 0.1841(8) 0.3960(7) 0.3458(4)
C47 C 0.1633(9) 0.3313(8) 0.3584(5)
C48 C 0.1137(11) 0.2875(10) 0.3392(7)
C49 C 0.0811(10) 0.3070(11) 0.3046(6)
C50 C 0.0951(10) 0.3694(11) 0.2928(5)
C51 C 0.1491(7) 0.4161(8) 0.3104(4)
C52 C 0.3082(7) 0.4232(7) 0.3753(3)
C53 C 0.4189(7) 0.4640(9) 0.4081(4)
H37 H 0.4398 0.4975 0.4243
C54 C 0.4657(8) 0.4084(7) 0.4011(4)
H38 H 0.5186 0.4043 0.4095
C55 C 0.4226(9) 0.3554(8) 0.3784(4)
H39 H 0.4497 0.3157 0.3721
C56 C 0.3496(8) 0.3623(8) 0.3673(4)
H40 H 0.3240 0.3275 0.3539
C57 C 0.0405(5) 0.4576(7) 0.3968(4)
C58 C 0.0530(7) 0.4151(7) 0.4286(4)
C59 C 0.0184(9) 0.3524(8) 0.4311(5)
C60 C -0.0318(8) 0.3325(8) 0.4013(5)
C61 C -0.0446(8) 0.3748(9) 0.3689(5)
C62 C -0.0068(7) 0.4347(8) 0.3667(4)
C63 C 0.0460(7) 0.5780(6) 0.3916(3)
C64 C 0.0731(8) 0.6932(8) 0.3916(4)
H41 H 0.1097 0.7286 0.3933
C65 C -0.0066(9) 0.7093(8) 0.3886(5)
H42 H -0.0238 0.7539 0.3865
C66 C -0.0597(8) 0.6562(9) 0.3891(4)
H43 H -0.1146 0.6653 0.3883
C67 C -0.0350(8) 0.5919(8) 0.3905(4)
H44 H -0.0722 0.5568 0.3908
C68 C 0.2387(8) 0.7308(7) 0.4406(4)
C69 C 0.1948(10) 0.7197(8) 0.4755(4)
C70 C 0.1617(13) 0.7703(10) 0.4950(5)
C71 C 0.1609(12) 0.8353(9) 0.4816(6)
C72 C 0.2046(11) 0.8491(9) 0.4480(7)
C73 C 0.2362(10) 0.7973(8) 0.4283(5)
C74 C 0.3482(8) 0.6770(6) 0.4092(3)
C75 C 0.4412(8) 0.6129(8) 0.3755(4)
H45 H 0.4515 0.5748 0.3605
C76 C 0.5031(8) 0.6564(8) 0.3818(5)
H46 H 0.5546 0.6488 0.3721
C77 C 0.4832(9) 0.7132(8) 0.4038(4)
H47 H 0.5230 0.7449 0.4092
C78 C 0.4074(8) 0.7242(8) 0.4178(4)
H48 H 0.3958 0.7623 0.4328
F16 F 0.1941(6) 0.3122(5) 0.3950(3)
F17 F 0.0976(7) 0.2273(6) 0.3548(5)
F18 F 0.0318(8) 0.2668(9) 0.2849(5)
F19 F 0.0616(7) 0.3930(8) 0.2580(3)
F20 F 0.1635(5) 0.4747(5) 0.2946(2)
F21 F 0.1037(5) 0.4337(5) 0.4579(2)
F22 F 0.0269(6) 0.3143(6) 0.4621(3)
F23 F -0.0675(7) 0.2719(6) 0.4048(4)
F24 F -0.0898(6) 0.3525(6) 0.3402(3)
F25 F -0.0191(5) 0.4739(5) 0.3354(2)
F26 F 0.1891(8) 0.6556(5) 0.4898(3)
F27 F 0.1183(7) 0.7553(8) 0.5278(3)
F28 F 0.1264(7) 0.8830(7) 0.5037(4)
F29 F 0.2059(8) 0.9105(6) 0.4375(5)
F30 F 0.2731(7) 0.8116(5) 0.3942(3)
K2 K 0.19410(18) 0.51234(17) 0.51909(8)
O8 O 0.3510(7) 0.5517(8) 0.5246(3)
C79 C 0.3892(12) 0.6014(11) 0.5014(5)
H49 H 0.3500 0.6247 0.4853
H50 H 0.4287 0.5806 0.4845
C80 C 0.4263(13) 0.6469(12) 0.5267(7)
H51 H 0.3883 0.6795 0.5370
H52 H 0.4700 0.6707 0.5140
C81 C 0.4583(12) 0.5970(12) 0.5597(6)
H53 H 0.5071 0.5738 0.5519
H54 H 0.4670 0.6202 0.5843
C82 C 0.3890(9) 0.5512(11) 0.5613(4)
H55 H 0.4067 0.5057 0.5676
H56 H 0.3518 0.5660 0.5813
O9 O 0.0472(7) 0.5706(8) 0.5197(3)
C83 C -0.0013(12) 0.5924(14) 0.4879(5)
H57 H -0.0167 0.5538 0.4720
H58 H 0.0286 0.6237 0.4716
C84 C -0.0730(11) 0.6255(13) 0.5034(6)
H59 H -0.1187 0.6196 0.4862
H60 H -0.0639 0.6735 0.5076
C85 C -0.0853(12) 0.5861(11) 0.5438(6)
H61 H -0.1144 0.6130 0.5628
H62 H -0.1120 0.5428 0.5402
C86 C -0.0005(11) 0.5781(12) 0.5541(5)
H63 H 0.0175 0.6174 0.5686
H64 H 0.0060 0.5386 0.5706
O10 O 0.2597(8) 0.3910(6) 0.5131(4)
C87 C 0.3097(13) 0.3771(11) 0.4794(7)
H65 H 0.2810 0.3864 0.4554
H66 H 0.3585 0.4039 0.4800
C88 C 0.327(2) 0.3084(12) 0.4827(8)
H67 H 0.2922 0.2834 0.4652
H68 H 0.3820 0.3009 0.4744
C89 C 0.318(2) 0.2838(14) 0.5190(8)
H69 H 0.3655 0.2901 0.5349
H70 H 0.3023 0.2365 0.5191
C90 C 0.2483(19) 0.3313(11) 0.5312(7)
H71 H 0.1971 0.3119 0.5235
H72 H 0.2481 0.3375 0.5593
O1C O 0.1773(6) 0.4744(4) 0.5955(2)
F5C F 0.2035(5) 0.6173(4) 0.5823(2)
F11C F 0.0670(6) 0.4129(6) 0.5428(2)
K2C K 0.30590(18) 0.48766(17) 0.01909(8)
O11 O 0.1980(9) 0.9554(8) 0.1094(4)
C91 C 0.1948(13) 0.9522(13) 0.0683(6)
H73 H 0.1401 0.9573 0.0589
H74 H 0.2165 0.9097 0.0588
C92 C 0.2448(15) 1.0093(15) 0.0565(8)
H75 H 0.2651 1.0037 0.0302
H76 H 0.2158 1.0518 0.0583
C93 C 0.3114(14) 1.0054(14) 0.0863(8)
H77 H 0.3491 0.9694 0.0805
H78 H 0.3398 1.0480 0.0889
C94 C 0.2629(12) 0.9907(11) 0.1196(7)
H79 H 0.2942 0.9649 0.1383
H80 H 0.2466 1.0326 0.1320
O12 O 0.5935(11) 0.3875(9) 0.4779(4)
C95 C 0.5959(18) 0.3281(12) 0.5003(6)
H81 H 0.6460 0.3044 0.4957
H82 H 0.5519 0.2985 0.4929
C96 C 0.5893(14) 0.3461(12) 0.5413(6)
H83 H 0.6350 0.3290 0.5558
H84 H 0.5405 0.3275 0.5525
C97 C 0.5874(14) 0.4222(12) 0.5423(6)
H85 H 0.5493 0.4382 0.5616
H86 H 0.6401 0.4403 0.5484
C98 C 0.5628(17) 0.4424(14) 0.5034(7)
H87 H 0.5048 0.4460 0.5016
H88 H 0.5865 0.4856 0.4963
loop_
_geom_bond_atom_site_label_1
_geom_bond_atom_site_label_2
_geom_bond_site_symmetry_1
_geom_bond_site_symmetry_2
U1 O1 1_555 1_555
O1 K2C 1_555 1_555
O2 U1 1_555 1_555
N1 U1 1_555 1_555
N2 U1 1_555 1_555
N3 U1 1_555 1_555
N4 U1 1_555 1_555
N5 U1 1_555 1_555
N6 U1 1_555 1_555
C1 N1 1_555 1_555
C2 C1 1_555 1_555
C3 C2 1_555 1_555
C4 C3 1_555 1_555
C5 C4 1_555 1_555
C6 C1 1_555 1_555
C7 N1 1_555 1_555
C8 N2 1_555 1_555
H1 C8 1_555 1_555
C9 C8 1_555 1_555
H2 C9 1_555 1_555
C10 C9 1_555 1_555
H3 C10 1_555 1_555
C11 C7 1_555 1_555
H4 C11 1_555 1_555
C12 N3 1_555 1_555
C13 C12 1_555 1_555
C14 C13 1_555 1_555
C15 C14 1_555 1_555
C16 C15 1_555 1_555
C17 C12 1_555 1_555
C18 N3 1_555 1_555
C19 N4 1_555 1_555
H5 C19 1_555 1_555
C20 C19 1_555 1_555
H6 C20 1_555 1_555
C21 C20 1_555 1_555
H7 C21 1_555 1_555
C22 C18 1_555 1_555
H8 C22 1_555 1_555
C23 N5 1_555 1_555
C24 C23 1_555 1_555
C25 C24 1_555 1_555
C26 C25 1_555 1_555
C27 C26 1_555 1_555
C28 C23 1_555 1_555
C29 N5 1_555 1_555
C30 N6 1_555 1_555
H9 C30 1_555 1_555
C31 C30 1_555 1_555
H10 C31 1_555 1_555
C32 C31 1_555 1_555
H11 C32 1_555 1_555
C33 C29 1_555 1_555
H12 C33 1_555 1_555
F1 C2 1_555 1_555
F2 C3 1_555 1_555
F3 C4 1_555 1_555
F4 C5 1_555 1_555
F5 C6 1_555 1_555
F6 C13 1_555 1_555
F7 C14 1_555 1_555
F8 C15 1_555 1_555
F9 C16 1_555 1_555
F10 C17 1_555 1_555
F11 C24 1_555 1_555
F12 C25 1_555 1_555
F13 C26 1_555 1_555
F14 C27 1_555 1_555
F15 C28 1_555 1_555
K1 O2 1_555 1_555
O3 K1 1_555 1_555
C34 O3 1_555 1_555
H13 C34 1_555 1_555
H14 C34 1_555 1_555
C35 C34 1_555 1_555
H15 C35 1_555 1_555
H16 C35 1_555 1_555
C36 C35 1_555 1_555
H17 C36 1_555 1_555
H18 C36 1_555 1_555
C37 O3 1_555 1_555
H19 C37 1_555 1_555
H20 C37 1_555 1_555
O4 K1 1_555 1_555
C38 O4 1_555 1_555
H21 C38 1_555 1_555
H22 C38 1_555 1_555
C39 C38 1_555 1_555
H23 C39 1_555 1_555
H24 C39 1_555 1_555
C40 C39 1_555 1_555
H25 C40 1_555 1_555
H26 C40 1_555 1_555
C41 O4 1_555 1_555
H27 C41 1_555 1_555
H28 C41 1_555 1_555
O5 K1 1_555 1_555
C42 O5 1_555 1_555
H29 C42 1_555 1_555
H30 C42 1_555 1_555
C43 C42 1_555 1_555
H31 C43 1_555 1_555
H32 C43 1_555 1_555
C44 C43 1_555 1_555
H33 C44 1_555 1_555
H34 C44 1_555 1_555
C45 O5 1_555 1_555
H35 C45 1_555 1_555
H36 C45 1_555 1_555
U2 O6 1_555 1_555
O6 K2 1_555 1_555
O7 K1 1_555 1_555
N7 U2 1_555 1_555
N8 U2 1_555 1_555
N9 U2 1_555 1_555
N10 U2 1_555 1_555
N11 U2 1_555 1_555
N12 U2 1_555 1_555
C46 N7 1_555 1_555
C47 C46 1_555 1_555
C48 C47 1_555 1_555
C49 C48 1_555 1_555
C50 C49 1_555 1_555
C51 C46 1_555 1_555
C52 N7 1_555 1_555
C53 N8 1_555 1_555
H37 C53 1_555 1_555
C54 C53 1_555 1_555
H38 C54 1_555 1_555
C55 C54 1_555 1_555
H39 C55 1_555 1_555
C56 C52 1_555 1_555
H40 C56 1_555 1_555
C57 N9 1_555 1_555
C58 C57 1_555 1_555
C59 C58 1_555 1_555
C60 C59 1_555 1_555
C61 C60 1_555 1_555
C62 C57 1_555 1_555
C63 N9 1_555 1_555
C64 N10 1_555 1_555
H41 C64 1_555 1_555
C65 C64 1_555 1_555
H42 C65 1_555 1_555
C66 C65 1_555 1_555
H43 C66 1_555 1_555
C67 C63 1_555 1_555
H44 C67 1_555 1_555
C68 N11 1_555 1_555
C69 C68 1_555 1_555
C70 C69 1_555 1_555
C71 C70 1_555 1_555
C72 C71 1_555 1_555
C73 C68 1_555 1_555
C74 N11 1_555 1_555
C75 N12 1_555 1_555
H45 C75 1_555 1_555
C76 C75 1_555 1_555
H46 C76 1_555 1_555
C77 C76 1_555 1_555
H47 C77 1_555 1_555
C78 C74 1_555 1_555
H48 C78 1_555 1_555
F16 C47 1_555 1_555
F17 C48 1_555 1_555
F18 C49 1_555 1_555
F19 C50 1_555 1_555
F20 K1 1_555 1_555
F21 C58 1_555 1_555
F22 C59 1_555 1_555
F23 C60 1_555 1_555
F24 C61 1_555 1_555
F25 C62 1_555 1_555
F26 C69 1_555 1_555
F27 C70 1_555 1_555
F28 C71 1_555 1_555
F29 C72 1_555 1_555
F30 C73 1_555 1_555
K2 F21 1_555 1_555
O8 K2 1_555 1_555
C79 O8 1_555 1_555
H49 C79 1_555 1_555
H50 C79 1_555 1_555
C80 C79 1_555 1_555
H51 C80 1_555 1_555
H52 C80 1_555 1_555
C81 C80 1_555 1_555
H53 C81 1_555 1_555
H54 C81 1_555 1_555
C82 O8 1_555 1_555
H55 C82 1_555 1_555
H56 C82 1_555 1_555
O9 K2 1_555 1_555
C83 O9 1_555 1_555
H57 C83 1_555 1_555
H58 C83 1_555 1_555
C84 C83 1_555 1_555
H59 C84 1_555 1_555
H60 C84 1_555 1_555
C85 C84 1_555 1_555
H61 C85 1_555 1_555
H62 C85 1_555 1_555
C86 O9 1_555 1_555
H63 C86 1_555 1_555
H64 C86 1_555 1_555
O10 K2 1_555 1_555
C87 O10 1_555 1_555
H65 C87 1_555 1_555
H66 C87 1_555 1_555
C88 C87 1_555 1_555
H67 C88 1_555 1_555
H68 C88 1_555 1_555
C89 C88 1_555 1_555
H69 C89 1_555 1_555
H70 C89 1_555 1_555
C90 O10 1_555 1_555
H71 C90 1_555 1_555
H72 C90 1_555 1_555
O11 C91 1_555 1_555
C91 H73 1_555 1_555
H74 C91 1_555 1_555
C92 C91 1_555 1_555
H75 C92 1_555 1_555
H76 C92 1_555 1_555
C93 C92 1_555 1_555
H77 C93 1_555 1_555
H78 C93 1_555 1_555
C94 O11 1_555 1_555
H79 C94 1_555 1_555
H80 C94 1_555 1_555
O12 C95 1_555 1_555
C95 H81 1_555 1_555
H82 C95 1_555 1_555
C96 C95 1_555 1_555
H83 C96 1_555 1_555
H84 C96 1_555 1_555
C97 C96 1_555 1_555
H85 C97 1_555 1_555
H86 C97 1_555 1_555
C98 O12 1_555 1_555
H87 C98 1_555 1_555
H88 C98 1_555 1_555
O1C K2 1_555 1_555
F5C K2 1_555 1_555
F11C K2 1_555 1_555
K2C F5 1_555 1_555
N2 C7 1_555 1_555
N4 C18 1_555 1_555
N6 C29 1_555 1_555
C5 C6 1_555 1_555
C10 C11 1_555 1_555
C16 C17 1_555 1_555
C21 C22 1_555 1_555
C27 C28 1_555 1_555
C32 C33 1_555 1_555
F6 K1 1_555 1_555
F11 K2C 1_555 1_555
C36 C37 1_555 1_555
C40 C41 1_555 1_555
C44 C45 1_555 1_555
U2 O7 1_555 1_555
N8 C52 1_555 1_555
N10 C63 1_555 1_555
N12 C74 1_555 1_555
C50 C51 1_555 1_555
C51 F20 1_555 1_555
C55 C56 1_555 1_555
C61 C62 1_555 1_555
C66 C67 1_555 1_555
C72 C73 1_555 1_555
C77 C78 1_555 1_555
F26 K2 1_555 1_555
C81 C82 1_555 1_555
C85 C86 1_555 1_555
C89 C90 1_555 1_555
C93 C94 1_555 1_555
C97 C98 1_555 1_555

#END
