
#######################################################################
#
#                 Cambridge Crystallographic Data Centre
#                                CCDC 
#
#######################################################################
#
# If this CIF has been generated from an entry in the Cambridge 
# Structural Database, then it will include bibliographic, chemical, 
# crystal, experimental, refinement or atomic coordinate data resulting 
# from the CCDC's data processing and validation procedures.
#
#######################################################################

data_SOKWAS
_symmetry_cell_setting           orthorhombic
_symmetry_space_group_name_H-M   'P b c n'
_symmetry_Int_Tables_number      60
_space_group_name_Hall           '-P 2n 2ab'
loop_
_symmetry_equiv_pos_site_id
_symmetry_equiv_pos_as_xyz
1 x,y,z
2 1/2-x,1/2-y,1/2+z
3 -x,y,1/2-z
4 1/2+x,1/2-y,-z
5 -x,-y,-z
6 1/2+x,1/2+y,1/2-z
7 x,-y,1/2+z
8 1/2-x,1/2+y,z
_cell_length_a                   12.7337(4)
_cell_length_b                   12.5615(3)
_cell_length_c                   17.8737(5)
_cell_angle_alpha                90
_cell_angle_beta                 90
_cell_angle_gamma                90
_cell_volume                     2858.98
loop_
_atom_site_label
_atom_site_type_symbol
_atom_site_fract_x
_atom_site_fract_y
_atom_site_fract_z
U1 U 0.082218(8) 0.644258(8) 0.380478(5)
S1 S 0.27728(6) 0.63238(5) 0.58533(4)
O1 O 0.06405(15) 0.53644(15) 0.31898(10)
O2 O 0.10349(16) 0.75148(16) 0.44294(11)
O3 O 0.14918(15) 0.52422(15) 0.47124(10)
O4 O 0.06322(15) 0.41363(15) 0.54653(10)
O5 O 0.43090(16) 0.76945(16) 0.66604(12)
O6 O 0.36710(17) 0.73624(16) 0.78057(11)
O7 O 0.26535(16) 0.62062(17) 0.36010(13)
N1 N 0.4405(2) 0.6064(2) 0.37703(15)
C1 C 0.1314(2) 0.4851(2) 0.53478(14)
C2 C 0.1950(2) 0.5245(2) 0.59805(15)
C3 C 0.1912(2) 0.4930(2) 0.67132(14)
H1 H 0.1514 0.4340 0.6886
C4 C 0.2534(2) 0.5581(2) 0.71854(14)
H2 H 0.2591 0.5484 0.7711
C5 C 0.3042(2) 0.6363(2) 0.67980(15)
C6 C 0.3730(2) 0.7203(2) 0.71131(15)
C7 C 0.3540(2) 0.6621(2) 0.36543(16)
C8 C 0.3810(3) 0.7774(3) 0.3574(3)
H3 H 0.3417 0.8206 0.3943
H4 H 0.3636 0.8030 0.3065
C9 C 0.4968(3) 0.7851(3) 0.3714(2)
H5 H 0.5109 0.8234 0.4187
H6 H 0.5319 0.8235 0.3300
C10 C 0.5361(3) 0.6709(3) 0.3760(2)
H7 H 0.5802 0.6531 0.3321
H8 H 0.5778 0.6596 0.4221
C11 C 0.4416(4) 0.4926(3) 0.3881(3)
H9 H 0.3733 0.4695 0.4074
H10 H 0.4966 0.4740 0.4242
H11 H 0.4557 0.4570 0.3404
U1A U 0.417782(8) 0.855742(8) 0.880478(5)
U1C U 0.582218(8) 0.855742(8) 0.619522(5)
U1D U -0.082218(8) 0.355742(8) 0.619522(5)
O4D O -0.06322(15) 0.58637(15) 0.45347(10)
O5C O -0.06910(16) 0.73055(16) 0.33396(12)
O6A O 0.13290(17) 0.76376(16) 0.28057(11)
loop_
_geom_bond_atom_site_label_1
_geom_bond_atom_site_label_2
_geom_bond_site_symmetry_1
_geom_bond_site_symmetry_2
U1 O1 1_555 1_555
S1 C2 1_555 1_555
O2 U1 1_555 1_555
O3 U1 1_555 1_555
O4 C1 1_555 1_555
O5 C6 1_555 1_555
O6 C6 1_555 1_555
O7 U1 1_555 1_555
N1 C7 1_555 1_555
C1 O3 1_555 1_555
C2 C1 1_555 1_555
C3 C2 1_555 1_555
H1 C3 1_555 1_555
C4 C3 1_555 1_555
H2 C4 1_555 1_555
C5 S1 1_555 1_555
C6 C5 1_555 1_555
C7 O7 1_555 1_555
C8 C7 1_555 1_555
H3 C8 1_555 1_555
H4 C8 1_555 1_555
C9 C8 1_555 1_555
H5 C9 1_555 1_555
H6 C9 1_555 1_555
C10 N1 1_555 1_555
H7 C10 1_555 1_555
H8 C10 1_555 1_555
C11 N1 1_555 1_555
H9 C11 1_555 1_555
H10 C11 1_555 1_555
H11 C11 1_555 1_555
U1A O6 1_555 1_555
U1C O5 1_555 1_555
U1D O4 1_555 1_555
O4D U1 1_555 1_555
O5C U1 1_555 1_555
O6A U1 1_555 1_555
C4 C5 1_555 1_555
C9 C10 1_555 1_555

#END
