
#######################################################################
#
#                 Cambridge Crystallographic Data Centre
#                                CCDC 
#
#######################################################################
#
# If this CIF has been generated from an entry in the Cambridge 
# Structural Database, then it will include bibliographic, chemical, 
# crystal, experimental, refinement or atomic coordinate data resulting 
# from the CCDC's data processing and validation procedures.
#
#######################################################################

data_SOKWOG
_symmetry_cell_setting           triclinic
_symmetry_space_group_name_H-M   'P -1'
_symmetry_Int_Tables_number      2
_space_group_name_Hall           '-P 1'
loop_
_symmetry_equiv_pos_site_id
_symmetry_equiv_pos_as_xyz
1 x,y,z
2 -x,-y,-z
_cell_length_a                   11.1750(6)
_cell_length_b                   11.2003(5)
_cell_length_c                   11.2336(6)
_cell_angle_alpha                61.510(3)
_cell_angle_beta                 66.654(2)
_cell_angle_gamma                62.995(3)
_cell_volume                     1071.65
loop_
_atom_site_label
_atom_site_type_symbol
_atom_site_fract_x
_atom_site_fract_y
_atom_site_fract_z
U1 U 0.701583(9) 0.737318(10) 0.216593(10)
O1 O 0.7201(2) 0.6742(2) 0.3882(2)
O2 O 0.6790(2) 0.8012(2) 0.0461(2)
O3 O 0.4778(2) 0.6935(2) 0.3155(2)
O4 O 0.6599(2) 0.5166(2) 0.2728(2)
O5 O -0.0935(2) 0.5479(2) 0.1644(2)
O6 O -0.0567(2) 0.7427(2) 0.1202(2)
O7 O 0.2930(2) 1.0309(2) -0.1800(2)
O8 O 0.5006(2) 1.0424(2) -0.2429(2)
C1 C 0.3913(3) 0.5740(3) 0.1714(3)
C2 C 0.2828(3) 0.5455(3) 0.1692(3)
H1 H 0.2363 0.4886 0.2529
C3 C 0.2420(3) 0.5994(3) 0.0460(3)
C4 C 0.3058(3) 0.6879(3) -0.0742(3)
H2 H 0.2765 0.7272 -0.1579
C5 C 0.4130(3) 0.7202(3) -0.0740(3)
C6 C 0.4554(3) 0.6609(3) 0.0481(3)
H3 H 0.5302 0.6797 0.0480
C7 C 0.4403(3) 0.5031(3) 0.3048(3)
H4 H 0.3593 0.5090 0.3841
H5 H 0.4930 0.4002 0.3202
C8 C 0.5304(3) 0.5735(3) 0.3003(3)
C9 C 0.1338(3) 0.5547(3) 0.0443(4)
H6 H 0.1368 0.5798 -0.0539
H7 H 0.1595 0.4488 0.0896
C10 C -0.0117(3) 0.6193(3) 0.1137(3)
C11 C 0.4824(3) 0.8182(3) -0.2035(3)
H8 H 0.4720 0.8170 -0.2864
H9 H 0.5822 0.7814 -0.2069
C12 C 0.4226(3) 0.9716(3) -0.2087(3)
U1_2 U -0.298417(9) 0.737318(10) 0.216593(10)
U1A U 0.298417(9) 1.262682(10) -0.216593(10)
O5_2 O 0.9065(2) 0.5479(2) 0.1644(2)
O6_2 O 0.9433(2) 0.7427(2) 0.1202(2)
O7A O 0.7070(2) 0.9691(2) 0.1800(2)
O8A O 0.4994(2) 0.9576(2) 0.2429(2)
O9 O 0.3435(3) 0.8234(3) 0.5429(3)
H10 H 0.4046 0.7805 0.4847
H11 H 0.3296 0.9240 0.4868
N1 N 0.7846(2) 0.9885(3) -0.2399(3)
H12 H 0.6991 1.0026 -0.2598
N2 N 0.8127(3) 0.8655(3) -0.4071(3)
C13 C 0.7564(3) 1.0650(3) -0.1639(3)
H13 H 0.6634 1.1121 -0.1266
C14 C 0.8631(3) 1.0749(3) -0.1401(3)
H14 H 0.8444 1.1303 -0.0880
C15 C 0.9968(3) 1.0034(4) -0.1928(3)
H15 H 1.0712 1.0082 -0.1761
C16 C 1.0237(3) 0.9240(3) -0.2706(3)
H16 H 1.1161 0.8748 -0.3073
C17 C 0.9149(3) 0.9173(3) -0.2941(3)
C18 C 0.9289(3) 0.8376(3) -0.3754(3)
C19 C 1.0539(3) 0.7397(4) -0.4144(4)
H17 H 1.1339 0.7200 -0.3881
C20 C 1.0590(4) 0.6724(4) -0.4918(4)
H18 H 1.1434 0.6053 -0.5200
C21 C 0.9409(3) 0.7021(4) -0.5291(4)
H19 H 0.9428 0.6584 -0.5849
C22 C 0.8204(3) 0.7980(4) -0.4815(4)
H20 H 0.7382 0.8167 -0.5034
loop_
_geom_bond_atom_site_label_1
_geom_bond_atom_site_label_2
_geom_bond_site_symmetry_1
_geom_bond_site_symmetry_2
U1 O1 1_555 1_555
O2 U1 1_555 1_555
O3 U1 1_555 1_555
O4 U1 1_555 1_555
O5 C10 1_555 1_555
O6 C10 1_555 1_555
O7 C12 1_555 1_555
O8 C12 1_555 1_555
C1 C2 1_555 1_555
C2 H1 1_555 1_555
C3 C2 1_555 1_555
C4 C3 1_555 1_555
H2 C4 1_555 1_555
C5 C4 1_555 1_555
C6 C1 1_555 1_555
H3 C6 1_555 1_555
C7 C1 1_555 1_555
H4 C7 1_555 1_555
H5 C7 1_555 1_555
C8 O3 1_555 1_555
C9 C3 1_555 1_555
H6 C9 1_555 1_555
H7 C9 1_555 1_555
C10 C9 1_555 1_555
C11 C5 1_555 1_555
H8 C11 1_555 1_555
H9 C11 1_555 1_555
C12 C11 1_555 1_555
O9 H10 1_555 1_555
H11 O9 1_555 1_555
N1 H12 1_555 1_555
N2 C18 1_555 1_555
C13 N1 1_555 1_555
H13 C13 1_555 1_555
C14 C13 1_555 1_555
H14 C14 1_555 1_555
C15 C14 1_555 1_555
H15 C15 1_555 1_555
C16 C15 1_555 1_555
H16 C16 1_555 1_555
C17 N1 1_555 1_555
C18 C17 1_555 1_555
C19 C18 1_555 1_555
H17 C19 1_555 1_555
C20 C19 1_555 1_555
H18 C20 1_555 1_555
C21 C20 1_555 1_555
H19 C21 1_555 1_555
C22 N2 1_555 1_555
H20 C22 1_555 1_555
U1_2 O5 1_555 1_555
U1A O7 1_555 1_555
O5_2 U1 1_555 1_555
O6_2 U1 1_555 1_555
O7A U1 1_555 1_555
O8A U1 1_555 1_555
O4 C8 1_555 1_555
O6 U1_2 1_555 1_555
O8 U1A 1_555 1_555
C5 C6 1_555 1_555
C7 C8 1_555 1_555
C16 C17 1_555 1_555
C21 C22 1_555 1_555

#END
