
#######################################################################
#
#                 Cambridge Crystallographic Data Centre
#                                CCDC 
#
#######################################################################
#
# If this CIF has been generated from an entry in the Cambridge 
# Structural Database, then it will include bibliographic, chemical, 
# crystal, experimental, refinement or atomic coordinate data resulting 
# from the CCDC's data processing and validation procedures.
#
#######################################################################

data_SOKWAS01
_symmetry_cell_setting           orthorhombic
_symmetry_space_group_name_H-M   'P 21 21 21'
_symmetry_Int_Tables_number      19
_space_group_name_Hall           'P 2ac 2ab'
loop_
_symmetry_equiv_pos_site_id
_symmetry_equiv_pos_as_xyz
1 x,y,z
2 1/2-x,-y,1/2+z
3 -x,1/2+y,1/2-z
4 1/2+x,1/2-y,-z
_cell_length_a                   9.7799(2)
_cell_length_b                   11.3381(4)
_cell_length_c                   12.6008(5)
_cell_angle_alpha                90
_cell_angle_beta                 90
_cell_angle_gamma                90
_cell_volume                     1397.25
loop_
_atom_site_label
_atom_site_type_symbol
_atom_site_fract_x
_atom_site_fract_y
_atom_site_fract_z
U1 U 0.926681(12) 0.323865(11) 0.456497(9)
S1 S 0.51514(10) 0.50707(9) 0.24219(8)
O1 O 0.8500(3) 0.2931(2) 0.5798(2)
O2 O 1.0043(3) 0.3564(3) 0.3335(2)
O3 O 0.7103(3) 0.3940(3) 0.3893(2)
O4 O 0.5583(3) 0.3491(2) 0.5163(2)
O5 O 0.1880(3) 0.6682(2) 0.1387(2)
O6 O 0.3794(3) 0.6174(3) 0.0543(2)
O7 O 0.9035(3) 0.5330(3) 0.4855(2)
N1 N 0.7290(4) 0.6664(4) 0.4951(3)
C1 C 0.5921(4) 0.3972(3) 0.4301(3)
C2 C 0.4858(4) 0.4640(3) 0.3703(3)
C3 C 0.3587(4) 0.4939(4) 0.4053(3)
H1 H 0.3259 0.4770 0.4746
C4 C 0.2814(4) 0.5528(3) 0.3270(3)
H2 H 0.1903 0.5799 0.3370
C5 C 0.3542(4) 0.5663(3) 0.2345(3)
C6 C 0.3039(4) 0.6220(3) 0.1352(3)
C7 C 0.8316(4) 0.6141(3) 0.4465(4)
C8 C 0.8474(5) 0.6646(4) 0.3363(4)
H3 H 0.8155 0.6080 0.2818
H4 H 0.9439 0.6854 0.3216
C9 C 0.7574(5) 0.7744(4) 0.3384(4)
H5 H 0.8132 0.8461 0.3504
H6 H 0.7070 0.7832 0.2707
C10 C 0.6590(5) 0.7546(4) 0.4301(4)
H7 H 0.6439 0.8284 0.4705
H8 H 0.5698 0.7246 0.4044
C11 C 0.6769(6) 0.6302(5) 0.5961(4)
H9 H 0.7185 0.5548 0.6163
H10 H 0.5775 0.6210 0.5917
H11 H 0.6992 0.6901 0.6495
U1A U 0.573319(12) 0.676135(11) -0.043503(9)
U1B U 0.073319(12) 0.823865(11) 0.043503(9)
U1C U 0.426681(12) 0.176135(11) 0.543503(9)
O4C O 1.0583(3) 0.1509(2) 0.4837(2)
O5B O 0.8120(3) 0.1682(2) 0.3613(2)
O6A O 1.1206(3) 0.3826(3) 0.5543(2)
loop_
_geom_bond_atom_site_label_1
_geom_bond_atom_site_label_2
_geom_bond_site_symmetry_1
_geom_bond_site_symmetry_2
U1 O1 1_555 1_555
S1 C2 1_555 1_555
O2 U1 1_555 1_555
O3 U1 1_555 1_555
O4 C1 1_555 1_555
O5 C6 1_555 1_555
O6 C6 1_555 1_555
O7 U1 1_555 1_555
N1 C7 1_555 1_555
C1 O3 1_555 1_555
C2 C1 1_555 1_555
C3 C2 1_555 1_555
H1 C3 1_555 1_555
C4 C3 1_555 1_555
H2 C4 1_555 1_555
C5 S1 1_555 1_555
C6 C5 1_555 1_555
C7 O7 1_555 1_555
C8 C7 1_555 1_555
H3 C8 1_555 1_555
H4 C8 1_555 1_555
C9 C8 1_555 1_555
H5 C9 1_555 1_555
H6 C9 1_555 1_555
C10 N1 1_555 1_555
H7 C10 1_555 1_555
H8 C10 1_555 1_555
C11 N1 1_555 1_555
H9 C11 1_555 1_555
H10 C11 1_555 1_555
H11 C11 1_555 1_555
U1A O6 1_555 1_555
U1B O5 1_555 1_555
U1C O4 1_555 1_555
O4C U1 1_555 1_555
O5B U1 1_555 1_555
O6A U1 1_555 1_555
C4 C5 1_555 1_555
C9 C10 1_555 1_555

#END
