
#######################################################################
#
#                 Cambridge Crystallographic Data Centre
#                                CCDC 
#
#######################################################################
#
# If this CIF has been generated from an entry in the Cambridge 
# Structural Database, then it will include bibliographic, chemical, 
# crystal, experimental, refinement or atomic coordinate data resulting 
# from the CCDC's data processing and validation procedures.
#
#######################################################################

data_SOKWUM
_symmetry_cell_setting           monoclinic
_symmetry_space_group_name_H-M   'P 21/c'
_symmetry_Int_Tables_number      14
_space_group_name_Hall           '-P 2ybc'
loop_
_symmetry_equiv_pos_site_id
_symmetry_equiv_pos_as_xyz
1 x,y,z
2 -x,1/2+y,1/2-z
3 -x,-y,-z
4 x,1/2-y,1/2+z
_cell_length_a                   14.0316(4)
_cell_length_b                   15.2564(6)
_cell_length_c                   17.7817(6)
_cell_angle_alpha                90
_cell_angle_beta                 102.405(2)
_cell_angle_gamma                90
_cell_volume                     3717.69
loop_
_atom_site_label
_atom_site_type_symbol
_atom_site_fract_x
_atom_site_fract_y
_atom_site_fract_z
U1 U 0.869775(13) 0.166002(12) 0.613736(10)
U2 U 0.614797(12) -0.146221(11) 0.890712(9)
Ni1 Ni 1.0000 0.0000 1.0000
Ni2 Ni 0.5000 0.0000 0.5000
O1 O 0.7651(2) 0.1997(2) 0.64785(18)
O2 O 0.9717(2) 0.1316(3) 0.5796(2)
O3 O 0.5162(2) -0.0947(2) 0.92036(19)
O4 O 0.7154(3) -0.1938(2) 0.86079(18)
O5 O 0.8917(2) 0.0551(2) 0.72164(17)
O6 O 0.9708(3) 0.1803(2) 0.7449(2)
O7 O 0.7113(2) -0.0274(2) 0.93993(17)
O8 O 0.8653(2) -0.0510(2) 1.00020(17)
O9 O 1.0704(3) -0.1917(2) 0.8707(2)
O10 O 1.0519(2) -0.1162(2) 0.97342(17)
O11 O 0.7875(2) 0.0410(2) 0.56269(17)
O12 O 0.6344(2) 0.0527(2) 0.49850(17)
O13 O 0.6105(2) -0.0447(2) 0.77898(17)
O14 O 0.5143(3) -0.1606(2) 0.76132(19)
O15 O 0.4601(3) 0.2194(2) 0.6111(2)
O16 O 0.4487(2) 0.1192(2) 0.52026(17)
O17 O 0.7928(2) 0.2196(2) 0.49018(18)
O18 O 0.6844(3) -0.1955(2) 1.01903(19)
N1 N 0.9396(3) 0.0095(2) 0.88272(19)
N2 N 0.5589(3) -0.0011(2) 0.61755(19)
N3 N 0.6863(3) 0.2697(3) 0.3837(2)
N4 N 0.7806(4) -0.2556(3) 1.1255(3)
C1 C 0.9866(3) 0.0832(3) 0.8510(2)
H1 H 1.0568 0.0693 0.8572
H2 H 0.9818 0.1358 0.8826
C2 C 0.9466(3) 0.1066(3) 0.7674(3)
C3 C 0.8353(3) 0.0255(3) 0.8795(2)
H3 H 0.7963 0.0043 0.8297
H4 H 0.8238 0.0893 0.8830
C4 C 0.8024(3) -0.0216(3) 0.9457(2)
C5 C 0.9575(3) -0.0770(3) 0.8492(2)
H5 H 0.9800 -0.0671 0.8007
H6 H 0.8953 -0.1099 0.8363
C6 C 1.0328(3) -0.1317(3) 0.9033(3)
C7 C 0.6640(3) -0.0167(3) 0.6220(2)
H7 H 0.6762 -0.0804 0.6193
H8 H 0.7023 0.0054 0.6717
C8 C 0.6959(3) 0.0298(3) 0.5558(2)
C9 C 0.5117(3) -0.0733(3) 0.6512(2)
H9 H 0.5185 -0.1274 0.6221
H10 H 0.4411 -0.0602 0.6427
C10 C 0.5483(3) -0.0928(3) 0.7360(2)
C11 C 0.5402(3) 0.0871(3) 0.6485(2)
H11 H 0.6033 0.1164 0.6690
H12 H 0.5065 0.0793 0.6916
C12 C 0.4785(3) 0.1449(3) 0.5877(3)
C13 C 0.7171(4) 0.2622(3) 0.4586(3)
C14 C 0.6517(4) 0.3137(4) 0.4988(3)
H13 H 0.6846 0.3677 0.5220
H14 H 0.6323 0.2783 0.5397
C15 C 0.5634(4) 0.3360(4) 0.4357(3)
H15 H 0.5416 0.3969 0.4414
H16 H 0.5087 0.2955 0.4370
C16 C 0.5991(4) 0.3254(3) 0.3607(3)
H17 H 0.5490 0.2964 0.3207
H18 H 0.6159 0.3828 0.3411
C17 C 0.7350(4) 0.2337(4) 0.3268(3)
H19 H 0.7533 0.2814 0.2957
H20 H 0.6909 0.1932 0.2933
H21 H 0.7937 0.2022 0.3527
C18 C 0.7565(4) -0.2423(3) 1.0513(3)
C19 C 0.8234(6) -0.2923(5) 1.0130(4)
H22 H 0.8526 -0.2530 0.9798
H23 H 0.7874 -0.3395 0.9806
C20 C 0.9019(6) -0.3308(5) 1.0758(5)
H24 H 0.9653 -0.3013 1.0780
H25 H 0.9096 -0.3944 1.0677
C21 C 0.8649(5) -0.3140(4) 1.1489(4)
H26 H 0.8452 -0.3695 1.1700
H27 H 0.9160 -0.2857 1.1885
C22 C 0.7303(6) -0.2186(6) 1.1799(4)
H28 H 0.6767 -0.1817 1.1528
H29 H 0.7757 -0.1831 1.2173
H30 H 0.7040 -0.2659 1.2069
U1B U 0.130225(13) -0.166002(12) 0.386264(10)
U2B U 0.385203(12) 0.146221(11) 0.109288(9)
O1B O 0.2349(2) -0.1997(2) 0.35215(18)
O2B O 0.0283(2) -0.1316(3) 0.4204(2)
O3B O 0.4838(2) 0.0947(2) 0.07964(19)
O4B O 0.2846(3) 0.1938(2) 0.13921(18)
O5B O 0.1083(2) -0.0551(2) 0.27836(17)
O6B O 0.0292(3) -0.1803(2) 0.2551(2)
O7B O 0.2887(2) 0.0274(2) 0.06007(17)
O8B O 0.1347(2) 0.0510(2) -0.00020(17)
O9B O -0.0704(3) 0.1917(2) 0.1293(2)
O10B O -0.0519(2) 0.1162(2) 0.02658(17)
O11B O 0.2125(2) -0.0410(2) 0.43731(17)
O12B O 0.3656(2) -0.0527(2) 0.50150(17)
O13B O 0.3895(2) 0.0447(2) 0.22102(17)
O14B O 0.4857(3) 0.1606(2) 0.23868(19)
O15B O 0.5399(3) -0.2194(2) 0.3889(2)
O16B O 0.5513(2) -0.1192(2) 0.47974(17)
O17B O 0.2072(2) -0.2196(2) 0.50982(18)
O18B O 0.3156(3) 0.1955(2) -0.01903(19)
N1B N 0.0604(3) -0.0095(2) 0.11728(19)
N2B N 0.4411(3) 0.0011(2) 0.38245(19)
N3B N 0.3137(3) -0.2697(3) 0.6163(2)
N4B N 0.2194(4) 0.2556(3) -0.1255(3)
C1B C 0.0134(3) -0.0832(3) 0.1490(2)
H1B H -0.0568 -0.0693 0.1428
H2B H 0.0182 -0.1358 0.1174
C2B C 0.0534(3) -0.1066(3) 0.2326(3)
C3B C 0.1647(3) -0.0255(3) 0.1205(2)
H3B H 0.2037 -0.0043 0.1703
H4B H 0.1762 -0.0893 0.1170
C4B C 0.1976(3) 0.0216(3) 0.0543(2)
C5B C 0.0425(3) 0.0770(3) 0.1508(2)
H5B H 0.0200 0.0671 0.1993
H6B H 0.1047 0.1099 0.1637
C6B C -0.0328(3) 0.1317(3) 0.0967(3)
C7B C 0.3360(3) 0.0167(3) 0.3780(2)
H7B H 0.3238 0.0804 0.3807
H8B H 0.2977 -0.0054 0.3283
C8B C 0.3041(3) -0.0298(3) 0.4442(2)
C9B C 0.4883(3) 0.0733(3) 0.3488(2)
H9B H 0.4815 0.1274 0.3779
H10B H 0.5589 0.0602 0.3573
C10B C 0.4517(3) 0.0928(3) 0.2640(2)
C11B C 0.4598(3) -0.0871(3) 0.3515(2)
H11B H 0.3967 -0.1164 0.3310
H12B H 0.4935 -0.0793 0.3084
C12B C 0.5215(3) -0.1449(3) 0.4123(3)
C13B C 0.2829(4) -0.2622(3) 0.5414(3)
C14B C 0.3483(4) -0.3137(4) 0.5012(3)
H13B H 0.3154 -0.3677 0.4780
H14B H 0.3677 -0.2783 0.4603
C15B C 0.4366(4) -0.3360(4) 0.5643(3)
H15B H 0.4584 -0.3969 0.5586
H16B H 0.4913 -0.2955 0.5630
C16B C 0.4009(4) -0.3254(3) 0.6393(3)
H17B H 0.4510 -0.2964 0.6793
H18B H 0.3841 -0.3828 0.6589
C17B C 0.2650(4) -0.2337(4) 0.6732(3)
H19B H 0.2467 -0.2814 0.7043
H20B H 0.3091 -0.1932 0.7067
H21B H 0.2063 -0.2022 0.6473
C18B C 0.2435(4) 0.2423(3) -0.0513(3)
C19B C 0.1766(6) 0.2923(5) -0.0130(4)
H22B H 0.1474 0.2530 0.0202
H23B H 0.2126 0.3395 0.0194
C20B C 0.0981(6) 0.3308(5) -0.0758(5)
H24B H 0.0347 0.3013 -0.0780
H25B H 0.0904 0.3944 -0.0677
C21B C 0.1351(5) 0.3140(4) -0.1489(4)
H26B H 0.1548 0.3695 -0.1700
H27B H 0.0840 0.2857 -0.1885
C22B C 0.2697(6) 0.2186(6) -0.1799(4)
H28B H 0.3233 0.1817 -0.1528
H29B H 0.2243 0.1831 -0.2173
H30B H 0.2960 0.2659 -0.2069
U1A U 1.130225(13) -0.333998(12) 0.886264(10)
U1C U -0.130225(13) 0.333998(12) 0.113736(10)
U2A U 0.385203(12) 0.353779(11) 0.609288(9)
U2C U 0.614797(12) -0.353779(11) 0.390712(9)
Ni1_2 Ni 0.0000 0.0000 0.0000
O8B_2 O 1.1347(2) 0.0510(2) 0.99980(17)
O9A O 0.9296(3) 0.3083(2) 0.6293(2)
O9C O 0.0704(3) -0.3083(2) 0.3707(2)
O10B_2 O 0.9481(2) 0.1162(2) 1.02658(17)
O15A O 0.5399(3) -0.2806(2) 0.8889(2)
O15C O 0.4601(3) 0.2806(2) 0.1111(2)
N1B_2 N 1.0604(3) -0.0095(2) 1.11728(19)
O19 O 0.6112(5) -0.0449(5) 0.2449(4)
N5 N 0.7614(5) 0.0204(4) 0.2484(3)
C23 C 0.6957(8) -0.0248(6) 0.2797(6)
C24 C 0.7466(9) -0.0507(7) 0.3572(6)
H31 H 0.7638 -0.1137 0.3584
H32 H 0.7049 -0.0401 0.3946
C25 C 0.8415(8) 0.0071(8) 0.3773(5)
H33 H 0.8973 -0.0265 0.4072
H34 H 0.8311 0.0602 0.4065
C26 C 0.8580(7) 0.0314(7) 0.2944(4)
H35 H 0.8812 0.0924 0.2925
H36 H 0.9050 -0.0090 0.2781
C27 C 0.7384(6) 0.0489(5) 0.1669(4)
H37 H 0.6816 0.0164 0.1388
H38 H 0.7945 0.0372 0.1437
H39 H 0.7240 0.1118 0.1642
loop_
_geom_bond_atom_site_label_1
_geom_bond_atom_site_label_2
_geom_bond_site_symmetry_1
_geom_bond_site_symmetry_2
U1 O1 1_555 1_555
U2 O3 1_555 1_555
Ni1 O8 1_555 1_555
Ni2 O12 1_555 1_555
O2 U1 1_555 1_555
O4 U2 1_555 1_555
O5 U1 1_555 1_555
O6 U1 1_555 1_555
O7 U2 1_555 1_555
O8 C4 1_555 1_555
O9 C6 1_555 1_555
O10 Ni1 1_555 1_555
O11 U1 1_555 1_555
O12 C8 1_555 1_555
O13 U2 1_555 1_555
O14 U2 1_555 1_555
O15 C12 1_555 1_555
O16 Ni2 1_555 1_555
O17 U1 1_555 1_555
O18 U2 1_555 1_555
N1 Ni1 1_555 1_555
N2 Ni2 1_555 1_555
N3 C13 1_555 1_555
N4 C18 1_555 1_555
C1 N1 1_555 1_555
H1 C1 1_555 1_555
H2 C1 1_555 1_555
C2 O5 1_555 1_555
C3 N1 1_555 1_555
H3 C3 1_555 1_555
H4 C3 1_555 1_555
C4 O7 1_555 1_555
C5 N1 1_555 1_555
H5 C5 1_555 1_555
H6 C5 1_555 1_555
C6 O10 1_555 1_555
C7 N2 1_555 1_555
H7 C7 1_555 1_555
H8 C7 1_555 1_555
C8 O11 1_555 1_555
C9 N2 1_555 1_555
H9 C9 1_555 1_555
H10 C9 1_555 1_555
C10 O13 1_555 1_555
C11 N2 1_555 1_555
H11 C11 1_555 1_555
H12 C11 1_555 1_555
C12 O16 1_555 1_555
C13 O17 1_555 1_555
C14 C13 1_555 1_555
H13 C14 1_555 1_555
H14 C14 1_555 1_555
C15 C14 1_555 1_555
H15 C15 1_555 1_555
H16 C15 1_555 1_555
C16 N3 1_555 1_555
H17 C16 1_555 1_555
H18 C16 1_555 1_555
C17 N3 1_555 1_555
H19 C17 1_555 1_555
H20 C17 1_555 1_555
H21 C17 1_555 1_555
C18 O18 1_555 1_555
C19 C18 1_555 1_555
H22 C19 1_555 1_555
H23 C19 1_555 1_555
C20 C19 1_555 1_555
H24 C20 1_555 1_555
H25 C20 1_555 1_555
C21 N4 1_555 1_555
H26 C21 1_555 1_555
H27 C21 1_555 1_555
C22 N4 1_555 1_555
H28 C22 1_555 1_555
H29 C22 1_555 1_555
H30 C22 1_555 1_555
O19 C23 1_555 1_555
N5 C23 1_555 1_555
C23 C24 1_555 1_555
C24 H31 1_555 1_555
H32 C24 1_555 1_555
C25 C24 1_555 1_555
H33 C25 1_555 1_555
H34 C25 1_555 1_555
C26 N5 1_555 1_555
H35 C26 1_555 1_555
H36 C26 1_555 1_555
C27 N5 1_555 1_555
H37 C27 1_555 1_555
H38 C27 1_555 1_555
H39 C27 1_555 1_555
U1B O1B 1_555 1_555
U2B O3B 1_555 1_555
O2B U1B 1_555 1_555
O4B U2B 1_555 1_555
O5B U1B 1_555 1_555
O6B U1B 1_555 1_555
O7B U2B 1_555 1_555
O8B C4B 1_555 1_555
O9B C6B 1_555 1_555
O10B C6B 1_555 1_555
O11B U1B 1_555 1_555
O12B Ni2 1_555 1_555
O13B U2B 1_555 1_555
O14B U2B 1_555 1_555
O15B C12B 1_555 1_555
O16B Ni2 1_555 1_555
O17B U1B 1_555 1_555
O18B U2B 1_555 1_555
N1B C1B 1_555 1_555
N2B Ni2 1_555 1_555
N3B C13B 1_555 1_555
N4B C18B 1_555 1_555
C1B H1B 1_555 1_555
H2B C1B 1_555 1_555
C2B O5B 1_555 1_555
C3B N1B 1_555 1_555
H3B C3B 1_555 1_555
H4B C3B 1_555 1_555
C4B O7B 1_555 1_555
C5B N1B 1_555 1_555
H5B C5B 1_555 1_555
H6B C5B 1_555 1_555
C6B C5B 1_555 1_555
C7B N2B 1_555 1_555
H7B C7B 1_555 1_555
H8B C7B 1_555 1_555
C8B O11B 1_555 1_555
C9B N2B 1_555 1_555
H9B C9B 1_555 1_555
H10B C9B 1_555 1_555
C10B O13B 1_555 1_555
C11B N2B 1_555 1_555
H11B C11B 1_555 1_555
H12B C11B 1_555 1_555
C12B O16B 1_555 1_555
C13B O17B 1_555 1_555
C14B C13B 1_555 1_555
H13B C14B 1_555 1_555
H14B C14B 1_555 1_555
C15B C14B 1_555 1_555
H15B C15B 1_555 1_555
H16B C15B 1_555 1_555
C16B N3B 1_555 1_555
H17B C16B 1_555 1_555
H18B C16B 1_555 1_555
C17B N3B 1_555 1_555
H19B C17B 1_555 1_555
H20B C17B 1_555 1_555
H21B C17B 1_555 1_555
C18B O18B 1_555 1_555
C19B C18B 1_555 1_555
H22B C19B 1_555 1_555
H23B C19B 1_555 1_555
C20B C19B 1_555 1_555
H24B C20B 1_555 1_555
H25B C20B 1_555 1_555
C21B N4B 1_555 1_555
H26B C21B 1_555 1_555
H27B C21B 1_555 1_555
C22B N4B 1_555 1_555
H28B C22B 1_555 1_555
H29B C22B 1_555 1_555
H30B C22B 1_555 1_555
U1A O9 1_555 1_555
U1C O9B 1_555 1_555
U2A O15 1_555 1_555
U2C O15B 1_555 1_555
Ni1_2 O8B 1_555 1_555
O8B_2 Ni1 1_555 1_555
O9A U1 1_555 1_555
O9C U1B 1_555 1_555
O10B_2 Ni1 1_555 1_555
O15A U2 1_555 1_555
O15C U2B 1_555 1_555
N1B_2 Ni1 1_555 1_555
O6 C2 1_555 1_555
O14 C10 1_555 1_555
C1 C2 1_555 1_555
C3 C4 1_555 1_555
C5 C6 1_555 1_555
C7 C8 1_555 1_555
C9 C10 1_555 1_555
C11 C12 1_555 1_555
C15 C16 1_555 1_555
C20 C21 1_555 1_555
C25 C26 1_555 1_555
O6B C2B 1_555 1_555
O10B Ni1_2 1_555 1_555
O12B C8B 1_555 1_555
O14B C10B 1_555 1_555
N1B Ni1_2 1_555 1_555
C1B C2B 1_555 1_555
C3B C4B 1_555 1_555
C7B C8B 1_555 1_555
C9B C10B 1_555 1_555
C11B C12B 1_555 1_555
C15B C16B 1_555 1_555
C20B C21B 1_555 1_555

#END
