
#######################################################################
#
#                 Cambridge Crystallographic Data Centre
#                                CCDC 
#
#######################################################################
#
# If this CIF has been generated from an entry in the Cambridge 
# Structural Database, then it will include bibliographic, chemical, 
# crystal, experimental, refinement or atomic coordinate data resulting 
# from the CCDC's data processing and validation procedures.
#
#######################################################################

data_SOKYUO
_symmetry_cell_setting           monoclinic
_symmetry_space_group_name_H-M   'P 21/n'
_symmetry_Int_Tables_number      14
_space_group_name_Hall           '-P 2yn'
loop_
_symmetry_equiv_pos_site_id
_symmetry_equiv_pos_as_xyz
1 x,y,z
2 1/2-x,1/2+y,1/2-z
3 -x,-y,-z
4 1/2+x,1/2-y,1/2+z
_cell_length_a                   9.536(2)
_cell_length_b                   28.337(7)
_cell_length_c                   13.672(4)
_cell_angle_alpha                90
_cell_angle_beta                 93.694(5)
_cell_angle_gamma                90
_cell_volume                     3686.79
loop_
_atom_site_label
_atom_site_type_symbol
_atom_site_fract_x
_atom_site_fract_y
_atom_site_fract_z
U1 U 0.08296(6) 0.217763(19) 0.73170(4)
U2 U -0.33515(6) 0.26074(2) 0.72795(4)
Zn1 Zn -0.34602(18) 0.08568(6) 0.76672(13)
P1 P -0.5683(4) 0.16472(13) 0.8006(3)
P2 P -0.6191(4) 0.17963(13) 1.1187(3)
P3 P -0.1311(4) 0.16492(14) 0.8530(3)
P4 P -0.1843(4) 0.19041(15) 1.1655(3)
P5 P -0.4716(4) -0.01266(14) 0.8425(3)
N1 N -0.2791(13) 0.0681(4) 0.6371(10)
N2 N -0.1534(12) 0.0606(5) 0.5084(9)
N3 N 0.4599(16) 0.1653(5) 0.5063(11)
H1 H 0.4978 0.1856 0.5465
N4 N 0.3060(13) 0.1194(4) 0.4349(9)
N5 N 0.0149(13) 0.0574(4) 0.0187(10)
H2 H 0.0530 0.0578 -0.0366
N6 N -0.0133(12) 0.0622(4) 0.1724(9)
O1 O 0.0485(10) 0.1815(3) 0.6261(7)
O2 O 0.1118(11) 0.2530(3) 0.8388(7)
O3 O -0.3832(11) 0.2337(4) 0.6134(8)
O4 O -0.2906(10) 0.2877(3) 0.8414(7)
O5 O -0.5201(11) 0.1208(3) 0.7482(7)
O6 O -0.4625(10) 0.2036(3) 0.8004(8)
O7 O -0.7091(10) 0.1794(3) 0.7540(8)
O8 O -0.5149(11) 0.1411(3) 1.1499(8)
O9 O -0.7688(9) 0.1684(3) 1.1414(7)
O10 O -0.5894(9) 0.2270(3) 1.1746(7)
O11 O 0.0256(10) 0.1554(3) 0.8429(8)
O12 O -0.1680(10) 0.2007(3) 0.7698(7)
O13 O -0.2173(11) 0.1216(4) 0.8519(8)
O14 O -0.2822(10) 0.2323(3) 1.1456(7)
O15 O -0.0484(11) 0.2006(4) 1.2241(8)
O16 O -0.2596(12) 0.1516(4) 1.2245(9)
H3 H -0.3401 0.1481 1.2008
O17 O -0.3677(11) 0.0268(4) 0.8326(8)
O18 O -0.3845(11) -0.0591(4) 0.8541(9)
H4 H -0.4377 -0.0818 0.8505
O19 O -0.5821(12) -0.0174(4) 0.7603(8)
C1 C -0.5937(17) 0.1501(5) 0.9249(12)
H5 H -0.6777 0.1309 0.9268
H6 H -0.5149 0.1311 0.9502
C2 C -0.6076(17) 0.1916(5) 0.9906(10)
H7 H -0.6909 0.2090 0.9677
H8 H -0.5275 0.2121 0.9834
C3 C -0.151(2) 0.1949(6) 0.9671(14)
H9 H -0.0749 0.2173 0.9778
H10 H -0.2384 0.2126 0.9618
C4 C -0.153(2) 0.1641(6) 1.0513(12)
H11 H -0.0629 0.1481 1.0584
H12 H -0.2242 0.1402 1.0375
C5 C -0.5517(16) -0.0058(6) 0.9571(11)
H13 H -0.6213 0.0191 0.9503
H14 H -0.6003 -0.0348 0.9715
C6 C -0.0835(16) 0.0618(5) 0.3418(11)
H15 H -0.1708 0.0496 0.3208
C7 C 0.0154(15) 0.0726(5) 0.2732(11)
C8 C 0.1473(16) 0.0924(5) 0.3052(12)
H16 H 0.2131 0.1009 0.2610
C9 C 0.1731(16) 0.0985(6) 0.4042(11)
C10 C 0.0780(17) 0.0877(5) 0.4728(12)
H17 H 0.0996 0.0925 0.5393
C11 C -0.1735(16) 0.0847(6) 0.5908(12)
H18 H -0.1189 0.1103 0.6125
C12 C -0.3220(18) 0.0294(6) 0.5846(13)
H19 H -0.3930 0.0092 0.6021
C13 C -0.2493(18) 0.0240(7) 0.5041(13)
H20 H -0.2610 0.0007 0.4563
C14 C 0.3274(17) 0.1515(6) 0.5031(13)
H21 H 0.2597 0.1628 0.5432
C15 C 0.4312(17) 0.1135(6) 0.3916(12)
H22 H 0.4461 0.0929 0.3402
C16 C 0.5275(19) 0.1418(7) 0.4350(13)
H23 H 0.6208 0.1450 0.4202
C17 C -0.1411(16) 0.0479(5) 0.1264(11)
H24 H -0.2236 0.0417 0.1567
C18 C -0.1229(17) 0.0451(6) 0.0327(13)
H25 H -0.1905 0.0363 -0.0159
C19 C 0.0763(11) 0.0681(4) 0.1020(8)
H26 H 0.1687 0.0784 0.1119
C20 C -0.0518(11) 0.0693(4) 0.4385(8)
P5B P -0.5284(4) 0.01266(14) 1.1575(3)
O17B O -0.6323(11) -0.0268(4) 1.1674(8)
O18B O -0.6155(11) 0.0591(4) 1.1459(9)
H4B H -0.5623 0.0818 1.1495
O19B O -0.4179(12) 0.0174(4) 1.2397(8)
C5B C -0.4483(16) 0.0058(6) 1.0429(11)
H13B H -0.3787 -0.0191 1.0497
H14B H -0.3997 0.0348 1.0285
U1B U -1.08296(6) -0.217763(19) 1.26830(4)
U2B U -0.66485(6) -0.26074(2) 1.27205(4)
Zn1B Zn -0.65398(18) -0.08568(6) 1.23328(13)
P1B P -0.4317(4) -0.16472(13) 1.1994(3)
P2B P -0.3809(4) -0.17963(13) 0.8813(3)
P3B P -0.8689(4) -0.16492(14) 1.1470(3)
P4B P -0.8157(4) -0.19041(15) 0.8345(3)
N1B N -0.7209(13) -0.0681(4) 1.3629(10)
N2B N -0.8466(12) -0.0606(5) 1.4916(9)
N3B N -1.4599(16) -0.1653(5) 1.4937(11)
H1B H -1.4978 -0.1856 1.4535
N4B N -1.3060(13) -0.1194(4) 1.5651(9)
N5B N -1.0149(13) -0.0574(4) 1.9813(10)
H2B H -1.0530 -0.0578 2.0366
N6B N -0.9867(12) -0.0622(4) 1.8276(9)
O1B O -1.0485(10) -0.1815(3) 1.3739(7)
O2B O -1.1118(11) -0.2530(3) 1.1612(7)
O3B O -0.6168(11) -0.2337(4) 1.3866(8)
O4B O -0.7094(10) -0.2877(3) 1.1586(7)
O5B O -0.4799(11) -0.1208(3) 1.2518(7)
O6B O -0.5375(10) -0.2036(3) 1.1996(8)
O7B O -0.2909(10) -0.1794(3) 1.2460(8)
O8B O -0.4851(11) -0.1411(3) 0.8501(8)
O9B O -0.2312(9) -0.1684(3) 0.8586(7)
O10B O -0.4106(9) -0.2270(3) 0.8254(7)
O11B O -1.0256(10) -0.1554(3) 1.1571(8)
O12B O -0.8320(10) -0.2007(3) 1.2302(7)
O13B O -0.7827(11) -0.1216(4) 1.1481(8)
O14B O -0.7178(10) -0.2323(3) 0.8544(7)
O15B O -0.9516(11) -0.2006(4) 0.7759(8)
O16B O -0.7404(12) -0.1516(4) 0.7755(9)
H3B H -0.6599 -0.1481 0.7992
C1B C -0.4063(17) -0.1501(5) 1.0751(12)
H5B H -0.3223 -0.1309 1.0732
H6B H -0.4851 -0.1311 1.0498
C2B C -0.3924(17) -0.1916(5) 1.0094(10)
H7B H -0.3091 -0.2090 1.0323
H8B H -0.4725 -0.2121 1.0166
C3B C -0.849(2) -0.1949(6) 1.0329(14)
H9B H -0.9251 -0.2173 1.0222
H10B H -0.7616 -0.2126 1.0382
C4B C -0.847(2) -0.1641(6) 0.9487(12)
H11B H -0.9371 -0.1481 0.9416
H12B H -0.7758 -0.1402 0.9625
C6B C -0.9165(16) -0.0618(5) 1.6582(11)
H15B H -0.8292 -0.0496 1.6792
C7B C -1.0154(15) -0.0726(5) 1.7268(11)
C8B C -1.1473(16) -0.0924(5) 1.6948(12)
H16B H -1.2131 -0.1009 1.7390
C9B C -1.1731(16) -0.0985(6) 1.5958(11)
C10B C -1.0780(17) -0.0877(5) 1.5272(12)
H17B H -1.0996 -0.0925 1.4607
C11B C -0.8265(16) -0.0847(6) 1.4092(12)
H18B H -0.8811 -0.1103 1.3875
C12B C -0.6780(18) -0.0294(6) 1.4154(13)
H19B H -0.6070 -0.0092 1.3979
C13B C -0.7507(18) -0.0240(7) 1.4959(13)
H20B H -0.7390 -0.0007 1.5437
C14B C -1.3274(17) -0.1515(6) 1.4969(13)
H21B H -1.2597 -0.1628 1.4568
C15B C -1.4312(17) -0.1135(6) 1.6084(12)
H22B H -1.4461 -0.0929 1.6598
C16B C -1.5275(19) -0.1418(7) 1.5650(13)
H23B H -1.6208 -0.1450 1.5798
C17B C -0.8589(16) -0.0479(5) 1.8736(11)
H24B H -0.7764 -0.0417 1.8433
C18B C -0.8771(17) -0.0451(6) 1.9673(13)
H25B H -0.8095 -0.0363 2.0159
C19B C -1.0763(11) -0.0681(4) 1.8980(8)
H26B H -1.1687 -0.0784 1.8881
C20B C -0.9482(11) -0.0693(4) 1.5615(8)
U1_2 U -0.91704(6) 0.217763(19) 0.73170(4)
U1A U -0.58296(6) -0.282237(19) 0.76830(4)
U1B_2 U -0.08296(6) -0.217763(19) 1.26830(4)
U1C U -0.41704(6) 0.282237(19) 1.23170(4)
U2A U -1.16485(6) -0.23926(2) 0.77205(4)
U2A_2 U -0.16485(6) -0.23926(2) 0.77205(4)
U2C U -0.83515(6) 0.23926(2) 1.22795(4)
U2C_2 U 0.16485(6) 0.23926(2) 1.22795(4)
O7_2 O 0.2909(10) 0.1794(3) 0.7540(8)
O7B_2 O -1.2909(10) -0.1794(3) 1.2460(8)
O9A O -0.7312(9) -0.3316(3) 1.3586(7)
O9C O -0.2688(9) 0.3316(3) 0.6414(7)
O10A O -0.9106(9) -0.2730(3) 1.3254(7)
O10C O -0.0894(9) 0.2730(3) 0.6746(7)
O14A O -1.2178(10) -0.2677(3) 1.3544(7)
O14C O 0.2178(10) 0.2677(3) 0.6456(7)
O15A O -0.4516(11) -0.2994(4) 1.2759(8)
O15C O -0.5484(11) 0.2994(4) 0.7241(8)
O20 O 0.1122(18) 0.0670(5) 0.8400(11)
O21 O 0.854(2) 0.1765(7) 0.4472(15)
O22 O 0.7754(12) 0.4451(4) 0.1794(9)
loop_
_geom_bond_atom_site_label_1
_geom_bond_atom_site_label_2
_geom_bond_site_symmetry_1
_geom_bond_site_symmetry_2
U1 O1 1_555 1_555
U2 O3 1_555 1_555
Zn1 N1 1_555 1_555
P1 O5 1_555 1_555
P2 O8 1_555 1_555
P3 O11 1_555 1_555
P4 O14 1_555 1_555
P5 O17 1_555 1_555
N1 C11 1_555 1_555
N2 C11 1_555 1_555
N3 H1 1_555 1_555
N4 C9 1_555 1_555
N5 H2 1_555 1_555
N6 C7 1_555 1_555
O2 U1 1_555 1_555
O4 U2 1_555 1_555
O5 Zn1 1_555 1_555
O6 U2 1_555 1_555
O7 P1 1_555 1_555
O9 P2 1_555 1_555
O10 P2 1_555 1_555
O11 U1 1_555 1_555
O12 U1 1_555 1_555
O13 Zn1 1_555 1_555
O14 U1C 1_555 1_555
O15 P4 1_555 1_555
O16 P4 1_555 1_555
H3 O16 1_555 1_555
O17 Zn1 1_555 1_555
O18 P5 1_555 1_555
H4 O18 1_555 1_555
O19 P5 1_555 1_555
C1 P1 1_555 1_555
H5 C1 1_555 1_555
H6 C1 1_555 1_555
C2 P2 1_555 1_555
H7 C2 1_555 1_555
H8 C2 1_555 1_555
C3 P3 1_555 1_555
H9 C3 1_555 1_555
H10 C3 1_555 1_555
C4 P4 1_555 1_555
H11 C4 1_555 1_555
H12 C4 1_555 1_555
C5 P5 1_555 1_555
H13 C5 1_555 1_555
H14 C5 1_555 1_555
C6 H15 1_555 1_555
C7 C6 1_555 1_555
C8 C7 1_555 1_555
H16 C8 1_555 1_555
C9 C8 1_555 1_555
C10 C9 1_555 1_555
H17 C10 1_555 1_555
C11 H18 1_555 1_555
C12 N1 1_555 1_555
H19 C12 1_555 1_555
C13 N2 1_555 1_555
H20 C13 1_555 1_555
C14 N3 1_555 1_555
H21 C14 1_555 1_555
C15 N4 1_555 1_555
H22 C15 1_555 1_555
C16 N3 1_555 1_555
H23 C16 1_555 1_555
C17 N6 1_555 1_555
H24 C17 1_555 1_555
C18 N5 1_555 1_555
H25 C18 1_555 1_555
C19 N5 1_555 1_555
H26 C19 1_555 1_555
C20 N2 1_555 1_555
P5B O17B 1_555 1_555
O17B Zn1B 1_555 1_555
O18B P5B 1_555 1_555
H4B O18B 1_555 1_555
O19B P5B 1_555 1_555
C5B C5 1_555 1_555
H13B C5B 1_555 1_555
H14B C5B 1_555 1_555
U1B O1B 1_555 1_555
U2B O3B 1_555 1_555
Zn1B N1B 1_555 1_555
P1B O5B 1_555 1_555
P2B O8B 1_555 1_555
P3B O11B 1_555 1_555
P4B O14B 1_555 1_555
N1B C11B 1_555 1_555
N2B C11B 1_555 1_555
N3B H1B 1_555 1_555
N4B C9B 1_555 1_555
N5B H2B 1_555 1_555
N6B C7B 1_555 1_555
O2B U1B 1_555 1_555
O4B U2B 1_555 1_555
O5B Zn1B 1_555 1_555
O6B U2B 1_555 1_555
O7B P1B 1_555 1_555
O9B P2B 1_555 1_555
O10B P2B 1_555 1_555
O11B U1B 1_555 1_555
O12B U1B 1_555 1_555
O13B Zn1B 1_555 1_555
O14B U1A 1_555 1_555
O15B P4B 1_555 1_555
O16B P4B 1_555 1_555
H3B O16B 1_555 1_555
C1B P1B 1_555 1_555
H5B C1B 1_555 1_555
H6B C1B 1_555 1_555
C2B P2B 1_555 1_555
H7B C2B 1_555 1_555
H8B C2B 1_555 1_555
C3B P3B 1_555 1_555
H9B C3B 1_555 1_555
H10B C3B 1_555 1_555
C4B P4B 1_555 1_555
H11B C4B 1_555 1_555
H12B C4B 1_555 1_555
C6B H15B 1_555 1_555
C7B C6B 1_555 1_555
C8B C7B 1_555 1_555
H16B C8B 1_555 1_555
C9B C8B 1_555 1_555
C10B C9B 1_555 1_555
H17B C10B 1_555 1_555
C11B H18B 1_555 1_555
C12B N1B 1_555 1_555
H19B C12B 1_555 1_555
C13B N2B 1_555 1_555
H20B C13B 1_555 1_555
C14B N3B 1_555 1_555
H21B C14B 1_555 1_555
C15B N4B 1_555 1_555
H22B C15B 1_555 1_555
C16B N3B 1_555 1_555
H23B C16B 1_555 1_555
C17B N6B 1_555 1_555
H24B C17B 1_555 1_555
C18B N5B 1_555 1_555
H25B C18B 1_555 1_555
C19B N5B 1_555 1_555
H26B C19B 1_555 1_555
C20B N2B 1_555 1_555
U1_2 O7 1_555 1_555
U1A O10B 1_555 1_555
U1B_2 O7B 1_555 1_555
U1C O10 1_555 1_555
U2A O15B 1_555 1_555
U2A_2 O9B 1_555 1_555
U2C O9 1_555 1_555
U2C_2 O15 1_555 1_555
O7_2 U1 1_555 1_555
O7B_2 U1B 1_555 1_555
O9A U2B 1_555 1_555
O9C U2 1_555 1_555
O10A U1B 1_555 1_555
O10C U1 1_555 1_555
O14A U1B 1_555 1_555
O14C U1 1_555 1_555
O15A U2B 1_555 1_555
O15C U2 1_555 1_555
U2 O12 1_555 1_555
U2 O10C 1_555 1_555
P1 O6 1_555 1_555
P3 O12 1_555 1_555
P3 O13 1_555 1_555
N4 C14 1_555 1_555
N6 C19 1_555 1_555
O10 U2C 1_555 1_555
C1 C2 1_555 1_555
C3 C4 1_555 1_555
C6 C20 1_555 1_555
C10 C20 1_555 1_555
C12 C13 1_555 1_555
C15 C16 1_555 1_555
C17 C18 1_555 1_555
P5B C5B 1_555 1_555
U2B O12B 1_555 1_555
U2B O10A 1_555 1_555
P1B O6B 1_555 1_555
P3B O12B 1_555 1_555
P3B O13B 1_555 1_555
N4B C14B 1_555 1_555
N6B C19B 1_555 1_555
O10B U2A_2 1_555 1_555
C1B C2B 1_555 1_555
C3B C4B 1_555 1_555
C6B C20B 1_555 1_555
C10B C20B 1_555 1_555
C12B C13B 1_555 1_555
C15B C16B 1_555 1_555
C17B C18B 1_555 1_555

#END
