
#######################################################################
#
#                 Cambridge Crystallographic Data Centre
#                                CCDC 
#
#######################################################################
#
# If this CIF has been generated from an entry in the Cambridge 
# Structural Database, then it will include bibliographic, chemical, 
# crystal, experimental, refinement or atomic coordinate data resulting 
# from the CCDC's data processing and validation procedures.
#
#######################################################################

data_SOKZOJ
_symmetry_cell_setting           triclinic
_symmetry_space_group_name_H-M   'P -1'
_symmetry_Int_Tables_number      2
_space_group_name_Hall           '-P 1'
loop_
_symmetry_equiv_pos_site_id
_symmetry_equiv_pos_as_xyz
1 x,y,z
2 -x,-y,-z
_cell_length_a                   12.2596(9)
_cell_length_b                   12.6030(10)
_cell_length_c                   13.0430(10)
_cell_angle_alpha                99.2250(10)
_cell_angle_beta                 105.5800(10)
_cell_angle_gamma                105.0420(10)
_cell_volume                     1816.47
loop_
_atom_site_label
_atom_site_type_symbol
_atom_site_fract_x
_atom_site_fract_y
_atom_site_fract_z
U1 U 0.67115(2) 0.61575(2) 0.55932(2)
U2 U 1.0000 1.0000 0.5000
Zn1 Zn 1.11418(8) 0.71502(8) 0.86902(8)
P1 P 0.68512(17) -0.13432(17) 0.42802(18)
P2 P 0.62493(18) 0.38702(17) 0.62485(18)
P3 P 0.99176(17) 0.75887(17) 0.63444(17)
O1 O 0.6769(4) -0.2306(4) 0.4829(5)
O2 O 0.5821(4) -0.1666(5) 0.3183(5)
H1 H 0.5283 -0.2248 0.3159
O3 O 0.8006(4) -0.0924(4) 0.4035(4)
O4 O 0.7372(4) 0.4897(4) 0.6669(4)
O5 O 0.5286(4) 0.4326(4) 0.5599(4)
O6 O 0.5922(4) 0.3367(4) 0.7142(4)
O7 O 1.0917(4) 0.7780(4) 0.7412(4)
O8 O 0.8691(4) 0.7130(4) 0.6451(4)
O9 O 1.0046(4) 0.8704(4) 0.5995(4)
O10 O 0.6359(4) 0.6878(4) 0.6684(5)
O11 O 0.7053(4) 0.5422(4) 0.4518(4)
O12 O 1.0385(4) 0.9173(4) 0.3999(5)
N1 N 1.2625(6) 0.6703(6) 0.8381(6)
N2 N 1.0584(6) 0.5402(6) 0.8529(5)
N3 N 1.2185(6) 0.8389(6) 1.0169(6)
N4 N 0.9805(5) 0.7570(5) 0.9288(5)
C1 C 0.6710(7) -0.0182(6) 0.5189(7)
H2 H 0.5968 -0.0462 0.5368
H3 H 0.7387 0.0048 0.5883
C2 C 0.6678(7) 0.0870(7) 0.4755(8)
H4 H 0.7369 0.1115 0.4495
H5 H 0.5939 0.0684 0.4124
C3 C 0.6719(8) 0.1836(7) 0.5652(7)
H6 H 0.6187 0.1522 0.6058
H7 H 0.7542 0.2157 0.6178
C4 C 0.6354(7) 0.2771(7) 0.5235(7)
H8 H 0.5566 0.2433 0.4652
H9 H 0.6935 0.3129 0.4892
C5 C 1.0057(7) 0.6576(7) 0.5276(7)
H10 H 0.9408 0.6470 0.4587
H11 H 1.0824 0.6908 0.5155
C6 C 1.0013(8) 0.5426(7) 0.5486(7)
H12 H 0.9292 0.5125 0.5690
H13 H 1.0720 0.5513 0.6118
C7 C 1.3585(7) 0.7351(8) 0.8228(7)
H14 H 1.3693 0.8138 0.8305
C8 C 1.4433(8) 0.6920(9) 0.7959(8)
H15 H 1.5115 0.7409 0.7867
C9 C 1.4279(8) 0.5780(9) 0.7827(8)
H16 H 1.4867 0.5481 0.7666
C10 C 1.3243(8) 0.5056(8) 0.7932(7)
C11 C 1.2955(9) 0.3860(9) 0.7718(8)
H17 H 1.3519 0.3522 0.7561
C12 C 1.1909(9) 0.3188(8) 0.7729(7)
H18 H 1.1726 0.2387 0.7563
C13 C 1.1079(8) 0.3709(7) 0.7997(7)
C14 C 0.9933(8) 0.3047(8) 0.7984(7)
H19 H 0.9690 0.2243 0.7770
C15 C 0.9195(8) 0.3584(8) 0.8283(8)
H20 H 0.8445 0.3154 0.8306
C16 C 0.9539(7) 0.4762(8) 0.8554(7)
H21 H 0.9015 0.5123 0.8763
C17 C 1.2444(7) 0.5572(7) 0.8201(7)
C18 C 1.1341(7) 0.4881(7) 0.8265(6)
C19 C 1.3369(7) 0.8743(8) 1.0639(8)
H22 H 1.3826 0.8360 1.0335
C20 C 1.3962(8) 0.9658(9) 1.1560(8)
H23 H 1.4809 0.9903 1.1858
C21 C 1.3327(8) 1.0191(8) 1.2024(8)
H24 H 1.3726 1.0809 1.2654
C22 C 1.2069(8) 0.9828(7) 1.1572(7)
C23 C 1.1330(9) 1.0315(8) 1.2027(7)
H25 H 1.1691 1.0944 1.2651
C24 C 1.0139(9) 0.9912(8) 1.1601(7)
H26 H 0.9669 1.0261 1.1922
C25 C 0.9560(8) 0.8957(7) 1.0662(7)
C26 C 0.8322(7) 0.8453(8) 1.0208(7)
H27 H 0.7807 0.8744 1.0516
C27 C 0.7860(8) 0.7547(7) 0.9327(7)
H28 H 0.7021 0.7190 0.9022
C28 C 0.8623(7) 0.7143(7) 0.8873(7)
H29 H 0.8282 0.6531 0.8235
C29 C 1.1552(7) 0.8907(7) 1.0641(6)
C30 C 1.0265(7) 0.8462(7) 1.0168(7)
P3A P 1.00824(17) 0.24113(17) 0.36556(17)
O7A O 0.9083(4) 0.2220(4) 0.2588(4)
O8A O 1.1309(4) 0.2870(4) 0.3549(4)
O9A O 0.9954(4) 0.1296(4) 0.4005(4)
C5A C 0.9943(7) 0.3424(7) 0.4724(7)
H10A H 1.0592 0.3530 0.5413
H11A H 0.9176 0.3092 0.4845
C6A C 0.9987(8) 0.4574(7) 0.4514(7)
H12A H 1.0708 0.4875 0.4310
H13A H 0.9280 0.4487 0.3882
U1A U 0.32885(2) 0.38425(2) 0.44068(2)
P1A P 0.31488(17) 1.13432(17) 0.57198(18)
P2A P 0.37507(18) 0.61298(17) 0.37515(18)
O1A O 0.3231(4) 1.2306(4) 0.5171(5)
O2A O 0.4179(4) 1.1666(5) 0.6817(5)
H1A H 0.4717 1.2248 0.6841
O3A O 0.1994(4) 1.0924(4) 0.5965(4)
O4A O 0.2628(4) 0.5103(4) 0.3331(4)
O5A O 0.4714(4) 0.5674(4) 0.4401(4)
O6A O 0.4078(4) 0.6633(4) 0.2858(4)
O10A O 0.3641(4) 0.3122(4) 0.3316(5)
O11A O 0.2947(4) 0.4578(4) 0.5482(4)
C1A C 0.3290(7) 1.0182(6) 0.4811(7)
H2A H 0.4032 1.0462 0.4632
H3A H 0.2613 0.9952 0.4117
C2A C 0.3322(7) 0.9130(7) 0.5245(8)
H4A H 0.2631 0.8885 0.5505
H5A H 0.4061 0.9316 0.5876
C3A C 0.3281(8) 0.8164(7) 0.4348(7)
H6A H 0.3813 0.8478 0.3942
H7A H 0.2458 0.7843 0.3822
C4A C 0.3646(7) 0.7229(7) 0.4765(7)
H8A H 0.4434 0.7567 0.5348
H9A H 0.3065 0.6871 0.5108
Zn1A Zn 0.88582(8) 0.28498(8) 0.13098(8)
N1A N 0.7375(6) 0.3297(6) 0.1619(6)
N2A N 0.9416(6) 0.4598(6) 0.1471(5)
N3A N 0.7815(6) 0.1611(6) -0.0169(6)
N4A N 1.0195(5) 0.2430(5) 0.0712(5)
C7A C 0.6415(7) 0.2649(8) 0.1772(7)
H14A H 0.6307 0.1862 0.1695
C8A C 0.5567(8) 0.3080(9) 0.2041(8)
H15A H 0.4885 0.2591 0.2133
C9A C 0.5721(8) 0.4220(9) 0.2173(8)
H16A H 0.5133 0.4519 0.2334
C10A C 0.6757(8) 0.4944(8) 0.2068(7)
C11A C 0.7045(9) 0.6140(9) 0.2282(8)
H17A H 0.6481 0.6478 0.2439
C12A C 0.8091(9) 0.6812(8) 0.2271(7)
H18A H 0.8274 0.7613 0.2437
C13A C 0.8921(8) 0.6291(7) 0.2003(7)
C14A C 1.0067(8) 0.6953(8) 0.2016(7)
H19A H 1.0310 0.7757 0.2230
C15A C 1.0805(8) 0.6416(8) 0.1717(8)
H20A H 1.1555 0.6846 0.1694
C16A C 1.0461(7) 0.5238(8) 0.1446(7)
H21A H 1.0985 0.4877 0.1237
C17A C 0.7556(7) 0.4428(7) 0.1799(7)
C18A C 0.8659(7) 0.5119(7) 0.1735(6)
C19A C 0.6631(7) 0.1257(8) -0.0639(8)
H22A H 0.6174 0.1640 -0.0335
C20A C 0.6038(8) 0.0342(9) -0.1560(8)
H23A H 0.5191 0.0097 -0.1858
C21A C 0.6673(8) -0.0191(8) -0.2024(8)
H24A H 0.6274 -0.0809 -0.2654
C22A C 0.7931(8) 0.0172(7) -0.1572(7)
C23A C 0.8670(9) -0.0315(8) -0.2027(7)
H25A H 0.8309 -0.0944 -0.2651
C24A C 0.9861(9) 0.0088(8) -0.1601(7)
H26A H 1.0331 -0.0261 -0.1922
C25A C 1.0440(8) 0.1043(7) -0.0662(7)
C26A C 1.1678(7) 0.1547(8) -0.0208(7)
H27A H 1.2193 0.1256 -0.0516
C27A C 1.2140(8) 0.2453(7) 0.0673(7)
H28A H 1.2979 0.2810 0.0978
C28A C 1.1377(7) 0.2857(7) 0.1127(7)
H29A H 1.1718 0.3469 0.1765
C29A C 0.8448(7) 0.1093(7) -0.0641(6)
C30A C 0.9735(7) 0.1538(7) -0.0168(7)
O12A O 0.9615(4) 1.0827(4) 0.6001(5)
U1_2 U 0.67115(2) -0.38425(2) 0.55932(2)
U1A_2 U 0.32885(2) 1.38425(2) 0.44068(2)
U1A_3 U 1.32885(2) 0.38425(2) 0.44068(2)
U2_2 U 0.0000 1.0000 0.5000
U2_3 U 1.0000 0.0000 0.5000
O1_2 O 0.6769(4) 0.7694(4) 0.4829(5)
O1A_2 O 0.3231(4) 0.2306(4) 0.5171(5)
O3_2 O 0.8006(4) 0.9076(4) 0.4035(4)
O3A_2 O 1.1994(4) 1.0924(4) 0.5965(4)
O8A_2 O 0.1309(4) 0.2870(4) 0.3549(4)
O9A_2 O 0.9954(4) 1.1296(4) 0.4005(4)
O13 O 0.7130(6) 0.0077(6) 0.1922(6)
O14 O 0.6832(14) 0.4428(15) 0.9269(15)
loop_
_geom_bond_atom_site_label_1
_geom_bond_atom_site_label_2
_geom_bond_site_symmetry_1
_geom_bond_site_symmetry_2
U1 O4 1_555 1_555
U2 O9 1_555 1_555
Zn1 O7 1_555 1_555
P1 O1 1_555 1_555
P2 O4 1_555 1_555
P3 O7 1_555 1_555
O1 U1_2 1_555 1_555
O2 P1 1_555 1_555
H1 O2 1_555 1_555
O3 P1 1_555 1_555
O5 U1 1_555 1_555
O6 P2 1_555 1_555
O8 U1 1_555 1_555
O9 P3 1_555 1_555
O10 U1 1_555 1_555
O11 U1 1_555 1_555
O12 U2 1_555 1_555
N1 Zn1 1_555 1_555
N2 Zn1 1_555 1_555
N3 Zn1 1_555 1_555
N4 Zn1 1_555 1_555
C1 P1 1_555 1_555
H2 C1 1_555 1_555
H3 C1 1_555 1_555
C2 C1 1_555 1_555
H4 C2 1_555 1_555
H5 C2 1_555 1_555
C3 C2 1_555 1_555
H6 C3 1_555 1_555
H7 C3 1_555 1_555
C4 P2 1_555 1_555
H8 C4 1_555 1_555
H9 C4 1_555 1_555
C5 P3 1_555 1_555
H10 C5 1_555 1_555
H11 C5 1_555 1_555
C6 C5 1_555 1_555
H12 C6 1_555 1_555
H13 C6 1_555 1_555
C7 N1 1_555 1_555
H14 C7 1_555 1_555
C8 C7 1_555 1_555
H15 C8 1_555 1_555
C9 C8 1_555 1_555
H16 C9 1_555 1_555
C10 C9 1_555 1_555
C11 C10 1_555 1_555
H17 C11 1_555 1_555
C12 C11 1_555 1_555
H18 C12 1_555 1_555
C13 C12 1_555 1_555
C14 C13 1_555 1_555
H19 C14 1_555 1_555
C15 C14 1_555 1_555
H20 C15 1_555 1_555
C16 N2 1_555 1_555
H21 C16 1_555 1_555
C17 N1 1_555 1_555
C18 N2 1_555 1_555
C19 N3 1_555 1_555
H22 C19 1_555 1_555
C20 C19 1_555 1_555
H23 C20 1_555 1_555
C21 C20 1_555 1_555
H24 C21 1_555 1_555
C22 C21 1_555 1_555
C23 C22 1_555 1_555
H25 C23 1_555 1_555
C24 C23 1_555 1_555
H26 C24 1_555 1_555
C25 C24 1_555 1_555
C26 C25 1_555 1_555
H27 C26 1_555 1_555
C27 C26 1_555 1_555
H28 C27 1_555 1_555
C28 N4 1_555 1_555
H29 C28 1_555 1_555
C29 N3 1_555 1_555
C30 N4 1_555 1_555
P3A O7A 1_555 1_555
O7A Zn1A 1_555 1_555
O8A P3A 1_555 1_555
O9A P3A 1_555 1_555
C5A P3A 1_555 1_555
H10A C5A 1_555 1_555
H11A C5A 1_555 1_555
C6A C6 1_555 1_555
H12A C6A 1_555 1_555
H13A C6A 1_555 1_555
U1A O5 1_555 1_555
P1A O1A 1_555 1_555
P2A O4A 1_555 1_555
O1A U1A_2 1_555 1_555
O2A P1A 1_555 1_555
H1A O2A 1_555 1_555
O3A P1A 1_555 1_555
O4A U1A 1_555 1_555
O5A U1 1_555 1_555
O6A P2A 1_555 1_555
O10A U1A 1_555 1_555
O11A U1A 1_555 1_555
C1A P1A 1_555 1_555
H2A C1A 1_555 1_555
H3A C1A 1_555 1_555
C2A C1A 1_555 1_555
H4A C2A 1_555 1_555
H5A C2A 1_555 1_555
C3A C2A 1_555 1_555
H6A C3A 1_555 1_555
H7A C3A 1_555 1_555
C4A P2A 1_555 1_555
H8A C4A 1_555 1_555
H9A C4A 1_555 1_555
Zn1A N1A 1_555 1_555
N1A C7A 1_555 1_555
N2A Zn1A 1_555 1_555
N3A Zn1A 1_555 1_555
N4A Zn1A 1_555 1_555
C7A H14A 1_555 1_555
C8A C7A 1_555 1_555
H15A C8A 1_555 1_555
C9A C8A 1_555 1_555
H16A C9A 1_555 1_555
C10A C9A 1_555 1_555
C11A C10A 1_555 1_555
H17A C11A 1_555 1_555
C12A C11A 1_555 1_555
H18A C12A 1_555 1_555
C13A C12A 1_555 1_555
C14A C13A 1_555 1_555
H19A C14A 1_555 1_555
C15A C14A 1_555 1_555
H20A C15A 1_555 1_555
C16A N2A 1_555 1_555
H21A C16A 1_555 1_555
C17A N1A 1_555 1_555
C18A N2A 1_555 1_555
C19A N3A 1_555 1_555
H22A C19A 1_555 1_555
C20A C19A 1_555 1_555
H23A C20A 1_555 1_555
C21A C20A 1_555 1_555
H24A C21A 1_555 1_555
C22A C21A 1_555 1_555
C23A C22A 1_555 1_555
H25A C23A 1_555 1_555
C24A C23A 1_555 1_555
H26A C24A 1_555 1_555
C25A C24A 1_555 1_555
C26A C25A 1_555 1_555
H27A C26A 1_555 1_555
C27A C26A 1_555 1_555
H28A C27A 1_555 1_555
C28A N4A 1_555 1_555
H29A C28A 1_555 1_555
C29A N3A 1_555 1_555
C30A N4A 1_555 1_555
O12A U2 1_555 1_555
U1A_3 O8A 1_555 1_555
U2_2 O3A 1_555 1_555
U2_3 O3 1_555 1_555
O1_2 U1 1_555 1_555
O1A_2 U1A 1_555 1_555
O3_2 U2 1_555 1_555
O3A_2 U2 1_555 1_555
O8A_2 U1A 1_555 1_555
O9A_2 U2 1_555 1_555
P2 O5 1_555 1_555
P3 O8 1_555 1_555
C3 C4 1_555 1_555
C10 C17 1_555 1_555
C13 C18 1_555 1_555
C15 C16 1_555 1_555
C17 C18 1_555 1_555
C22 C29 1_555 1_555
C25 C30 1_555 1_555
C27 C28 1_555 1_555
C29 C30 1_555 1_555
O9A U2_3 1_555 1_555
C5A C6A 1_555 1_555
U1A O5A 1_555 1_555
P2A O5A 1_555 1_555
C3A C4A 1_555 1_555
C10A C17A 1_555 1_555
C13A C18A 1_555 1_555
C15A C16A 1_555 1_555
C17A C18A 1_555 1_555
C22A C29A 1_555 1_555
C25A C30A 1_555 1_555
C27A C28A 1_555 1_555
C29A C30A 1_555 1_555

#END
