
#######################################################################
#
#                 Cambridge Crystallographic Data Centre
#                                CCDC 
#
#######################################################################
#
# If this CIF has been generated from an entry in the Cambridge 
# Structural Database, then it will include bibliographic, chemical, 
# crystal, experimental, refinement or atomic coordinate data resulting 
# from the CCDC's data processing and validation procedures.
#
#######################################################################

data_SOKZAV
_symmetry_cell_setting           monoclinic
_symmetry_space_group_name_H-M   'P 21/c'
_symmetry_Int_Tables_number      14
_space_group_name_Hall           '-P 2ybc'
loop_
_symmetry_equiv_pos_site_id
_symmetry_equiv_pos_as_xyz
1 x,y,z
2 -x,1/2+y,1/2-z
3 -x,-y,-z
4 x,1/2-y,1/2+z
_cell_length_a                   10.7002(5)
_cell_length_b                   18.6131(9)
_cell_length_c                   9.4676(5)
_cell_angle_alpha                90
_cell_angle_beta                 98.2260(10)
_cell_angle_gamma                90
_cell_volume                     1866.2
loop_
_atom_site_label
_atom_site_type_symbol
_atom_site_fract_x
_atom_site_fract_y
_atom_site_fract_z
U1 U 1.04397(2) 1.011569(12) 0.29295(3)
Zn1 Zn 0.70445(7) 0.82185(4) 0.20207(8)
P1 P 0.91794(17) 0.63939(8) -0.01092(18)
P2 P 0.90924(17) 0.88537(8) 0.01811(18)
O1 O 1.1917(5) 0.9708(2) 0.3509(5)
O2 O 0.8947(4) 1.0526(2) 0.2426(5)
O3 O 0.8189(5) 0.6735(2) -0.1177(5)
O4 O 0.8775(4) 0.6326(2) 0.1380(5)
O5 O 0.9498(4) 0.5608(2) -0.0441(5)
O6 O 0.9793(5) 0.9145(2) 0.1568(5)
O7 O 0.8825(4) 0.9436(2) -0.0949(5)
O8 O 0.7883(4) 0.8462(2) 0.0399(5)
O9 O 0.7054(4) 0.7089(2) 0.2441(5)
N1 N 0.5967(6) 0.9148(3) 0.2361(7)
N2 N 0.5271(6) 0.8033(3) 0.0693(7)
C1 C 0.6336(9) 0.9669(4) 0.3285(9)
H1 H 0.7096 0.9612 0.3888
C2 C 0.5658(10) 1.0286(5) 0.3400(12)
H2 H 0.5949 1.0641 0.4057
C3 C 0.4532(10) 1.0362(5) 0.2513(13)
H3 H 0.4048 1.0774 0.2556
C4 C 0.4124(8) 0.9821(5) 0.1554(11)
H4 H 0.3359 0.9863 0.0956
C5 C 0.4865(7) 0.9218(4) 0.1494(8)
C6 C 0.4511(7) 0.8605(5) 0.0506(8)
C7 C 0.3468(7) 0.8618(6) -0.0547(10)
H5 H 0.2959 0.9024 -0.0691
C8 C 0.3207(9) 0.8015(7) -0.1373(10)
H6 H 0.2515 0.8010 -0.2090
C9 C 0.3959(9) 0.7425(6) -0.1139(10)
H7 H 0.3774 0.7011 -0.1680
C10 C 0.4988(8) 0.7446(5) -0.0105(9)
H8 H 0.5504 0.7043 0.0049
C11 C 1.0646(7) 0.6873(3) 0.0047(7)
H9 H 1.1285 0.6597 0.0645
H10 H 1.0904 0.6911 -0.0891
C12 C 1.0591(7) 0.7634(3) 0.0682(7)
H11 H 1.0051 0.7628 0.1422
H12 H 1.1432 0.7776 0.1116
C13 C 1.0082(7) 0.8189(3) -0.0467(7)
H13 H 0.9604 0.7940 -0.1269
H14 H 1.0789 0.8427 -0.0808
U1A U 0.95603(2) 0.511569(12) 0.20705(3)
U1B U 0.95603(2) 0.988431(12) -0.29295(3)
U1C U 1.04397(2) 0.488431(12) -0.20705(3)
Zn1C Zn 0.70445(7) 0.67815(4) -0.29793(8)
O3C O 0.8189(5) 0.8265(2) 0.3823(5)
O4A O 1.1225(4) 1.1326(2) 0.3620(5)
O5A O 1.0502(4) 1.0608(2) 0.5441(5)
O5C O 0.9498(4) 0.9392(2) 0.4559(5)
O7B O 1.1175(4) 1.0564(2) 0.0949(5)
loop_
_geom_bond_atom_site_label_1
_geom_bond_atom_site_label_2
_geom_bond_site_symmetry_1
_geom_bond_site_symmetry_2
U1 O1 1_555 1_555
Zn1 O8 1_555 1_555
P1 O3 1_555 1_555
P2 O6 1_555 1_555
O2 U1 1_555 1_555
O3 Zn1C 1_555 1_555
O4 P1 1_555 1_555
O5 P1 1_555 1_555
O6 U1 1_555 1_555
O7 P2 1_555 1_555
O8 P2 1_555 1_555
O9 Zn1 1_555 1_555
N1 Zn1 1_555 1_555
N2 Zn1 1_555 1_555
C1 N1 1_555 1_555
H1 C1 1_555 1_555
C2 C1 1_555 1_555
H2 C2 1_555 1_555
C3 C2 1_555 1_555
H3 C3 1_555 1_555
C4 C3 1_555 1_555
H4 C4 1_555 1_555
C5 N1 1_555 1_555
C6 N2 1_555 1_555
C7 C6 1_555 1_555
H5 C7 1_555 1_555
C8 C7 1_555 1_555
H6 C8 1_555 1_555
C9 C8 1_555 1_555
H7 C9 1_555 1_555
C10 N2 1_555 1_555
H8 C10 1_555 1_555
C11 P1 1_555 1_555
H9 C11 1_555 1_555
H10 C11 1_555 1_555
C12 C11 1_555 1_555
H11 C12 1_555 1_555
H12 C12 1_555 1_555
C13 P2 1_555 1_555
H13 C13 1_555 1_555
H14 C13 1_555 1_555
U1A O4 1_555 1_555
U1B O7 1_555 1_555
U1C O5 1_555 1_555
O3C Zn1 1_555 1_555
O4A U1 1_555 1_555
O5A U1 1_555 1_555
O5C U1 1_555 1_555
O7B U1 1_555 1_555
O5 U1A 1_555 1_555
C4 C5 1_555 1_555
C5 C6 1_555 1_555
C9 C10 1_555 1_555
C12 C13 1_555 1_555

#END
