
#######################################################################
#
#                 Cambridge Crystallographic Data Centre
#                                CCDC 
#
#######################################################################
#
# If this CIF has been generated from an entry in the Cambridge 
# Structural Database, then it will include bibliographic, chemical, 
# crystal, experimental, refinement or atomic coordinate data resulting 
# from the CCDC's data processing and validation procedures.
#
#######################################################################

data_SOKZEZ
_symmetry_cell_setting           monoclinic
_symmetry_space_group_name_H-M   'P 21/c'
_symmetry_Int_Tables_number      14
_space_group_name_Hall           '-P 2ybc'
loop_
_symmetry_equiv_pos_site_id
_symmetry_equiv_pos_as_xyz
1 x,y,z
2 -x,1/2+y,1/2-z
3 -x,-y,-z
4 x,1/2-y,1/2+z
_cell_length_a                   8.635(2)
_cell_length_b                   10.233(2)
_cell_length_c                   20.868(5)
_cell_angle_alpha                90
_cell_angle_beta                 100.692(3)
_cell_angle_gamma                90
_cell_volume                     1811.92
loop_
_atom_site_label
_atom_site_type_symbol
_atom_site_fract_x
_atom_site_fract_y
_atom_site_fract_z
U1 U 0.74517(2) -0.002727(16) 0.235237(8)
Zn1 Zn 0.20494(8) 0.12440(6) 0.37018(3)
P1 P 0.36475(15) 0.14883(12) 0.25300(6)
P2 P 0.07121(15) -0.20242(12) 0.21057(6)
O1 O 0.7774(5) -0.0064(3) 0.32172(18)
O2 O 0.7126(5) 0.0006(3) 0.14843(18)
O3 O 0.3613(4) 0.2939(3) 0.26810(19)
O4 O 0.5192(4) 0.1091(3) 0.23338(18)
O5 O 0.3349(4) 0.0700(4) 0.31123(17)
O6 O -0.0134(4) -0.0959(3) 0.24205(16)
O7 O -0.0334(4) -0.2580(4) 0.14980(17)
O8 O 0.1286(4) -0.3081(3) 0.26134(17)
N1 N 0.1689(5) -0.0341(4) 0.4259(2)
N2 N 0.3352(5) 0.1825(4) 0.4585(2)
C1 C 0.2134(6) 0.1171(5) 0.1835(2)
H1 H 0.1127 0.1165 0.1978
H2 H 0.2115 0.1890 0.1531
C2 C 0.2294(7) -0.0105(5) 0.1472(3)
H3 H 0.1377 -0.0191 0.1127
H4 H 0.3208 -0.0031 0.1266
C3 C 0.2457(6) -0.1364(5) 0.1874(2)
H5 H 0.3222 -0.1207 0.2270
H6 H 0.2894 -0.2029 0.1628
C4 C 0.0866(7) -0.1397(5) 0.4059(3)
H7 H 0.0469 -0.1499 0.3616
C5 C 0.0575(8) -0.2353(6) 0.4485(3)
H8 H 0.0021 -0.3105 0.4332
C6 C 0.1119(9) -0.2173(6) 0.5138(3)
H9 H 0.0894 -0.2782 0.5439
C7 C 0.2001(8) -0.1084(6) 0.5344(3)
H10 H 0.2397 -0.0958 0.5786
C8 C 0.2294(7) -0.0186(5) 0.4897(3)
C9 C 0.3282(6) 0.0999(5) 0.5071(3)
C10 C 0.4135(7) 0.1221(6) 0.5690(3)
H11 H 0.4089 0.0626 0.6023
C11 C 0.5054(7) 0.2325(6) 0.5812(3)
H12 H 0.5621 0.2490 0.6229
C12 C 0.5119(8) 0.3177(6) 0.5311(3)
H13 H 0.5740 0.3925 0.5378
C13 C 0.4243(9) 0.2898(6) 0.4704(3)
H14 H 0.4272 0.3479 0.4364
U1_2 U -0.25483(2) -0.002727(16) 0.235237(8)
U1A U 0.25483(2) -0.502727(16) 0.264763(8)
U1A_2 U 0.25483(2) 0.497273(16) 0.264763(8)
Zn1A Zn -0.20494(8) -0.37560(6) 0.12982(3)
O3A O 0.6387(4) -0.2061(3) 0.23190(19)
O6_2 O 0.9866(4) -0.0959(3) 0.24205(16)
O7A O 0.0334(4) 0.2420(4) 0.35020(17)
O8A O 0.8714(4) 0.1919(3) 0.23866(17)
loop_
_geom_bond_atom_site_label_1
_geom_bond_atom_site_label_2
_geom_bond_site_symmetry_1
_geom_bond_site_symmetry_2
U1 O1 1_555 1_555
Zn1 O5 1_555 1_555
P1 O3 1_555 1_555
P2 O6 1_555 1_555
O2 U1 1_555 1_555
O3 U1A_2 1_555 1_555
O4 U1 1_555 1_555
O5 P1 1_555 1_555
O6 U1_2 1_555 1_555
O7 P2 1_555 1_555
O8 P2 1_555 1_555
N1 Zn1 1_555 1_555
N2 Zn1 1_555 1_555
C1 P1 1_555 1_555
H1 C1 1_555 1_555
H2 C1 1_555 1_555
C2 C1 1_555 1_555
H3 C2 1_555 1_555
H4 C2 1_555 1_555
C3 P2 1_555 1_555
H5 C3 1_555 1_555
H6 C3 1_555 1_555
C4 N1 1_555 1_555
H7 C4 1_555 1_555
C5 C4 1_555 1_555
H8 C5 1_555 1_555
C6 C5 1_555 1_555
H9 C6 1_555 1_555
C7 C6 1_555 1_555
H10 C7 1_555 1_555
C8 N1 1_555 1_555
C9 N2 1_555 1_555
C10 C9 1_555 1_555
H11 C10 1_555 1_555
C11 C10 1_555 1_555
H12 C11 1_555 1_555
C12 C11 1_555 1_555
H13 C12 1_555 1_555
C13 N2 1_555 1_555
H14 C13 1_555 1_555
U1A O8 1_555 1_555
Zn1A O7 1_555 1_555
O3A U1 1_555 1_555
O6_2 U1 1_555 1_555
O7A Zn1 1_555 1_555
O8A U1 1_555 1_555
P1 O4 1_555 1_555
C2 C3 1_555 1_555
C7 C8 1_555 1_555
C8 C9 1_555 1_555
C12 C13 1_555 1_555

#END
