
#######################################################################
#
#                 Cambridge Crystallographic Data Centre
#                                CCDC 
#
#######################################################################
#
# If this CIF has been generated from an entry in the Cambridge 
# Structural Database, then it will include bibliographic, chemical, 
# crystal, experimental, refinement or atomic coordinate data resulting 
# from the CCDC's data processing and validation procedures.
#
#######################################################################

data_SOLBAW
_symmetry_cell_setting           monoclinic
_symmetry_space_group_name_H-M   'C 2/c'
_symmetry_Int_Tables_number      15
_space_group_name_Hall           '-C 2yn'
loop_
_symmetry_equiv_pos_site_id
_symmetry_equiv_pos_as_xyz
1 x,y,z
2 1/2+x,1/2+y,z
3 -x,y,1/2-z
4 1/2-x,1/2+y,1/2-z
5 -x,-y,-z
6 1/2-x,1/2-y,-z
7 x,-y,1/2+z
8 1/2+x,1/2-y,1/2+z
_cell_length_a                   36.540(9)
_cell_length_b                   23.484(7)
_cell_length_c                   21.292(6)
_cell_angle_alpha                90
_cell_angle_beta                 118.90(2)
_cell_angle_gamma                90
_cell_volume                     15995.4
loop_
_atom_site_label
_atom_site_type_symbol
_atom_site_fract_x
_atom_site_fract_y
_atom_site_fract_z
Cu1 Cu 0.3255(1) 0.2909(1) 0.3826(1)
Cu2 Cu 0.0924(1) 0.2965(1) 0.0806(1)
Cu3 Cu 0.2164(1) 0.4862(1) -0.0264(1)
O1 O 0.1091(3) 0.3496(5) 0.2033(6)
O2 O 0.1796(3) 0.5034(4) 0.3426(5)
O3 O 0.2962(3) 0.2244(4) 0.3299(5)
O4 O 0.3787(3) 0.2649(4) 0.3857(5)
O5 O 0.3564(3) 0.3576(4) 0.4364(5)
O6 O 0.3402(3) 0.2499(4) 0.4841(5)
O7 O 0.3109(3) 0.3208(4) 0.2501(5)
O8 O 0.2522(3) 0.4787(4) 0.1057(5)
O9 O 0.1189(63) 0.2352(4) 0.1472(5)
O10 O 0.0399(3) 0.2836(4) 0.0811(5)
O11 O 0.0815(4) 0.2426(5) -0.0111(7)
O12 O 0.0654(3) 0.3596(5) 0.0152(6)
O13 O 0.2412(3) 0.5609(4) -0.0064(5)
O14 O 0.1691(3) 0.5128(4) -0.0166(5)
O15 O 0.1939(3) 0.4095(4) -0.0410(5)
O16 O 0.2639(3) 0.4606(4) -0.0346(5)
N1 N 0.1176(3) 0.3982(5) 0.2339(6)
N2 N 0.1510(4) 0.4704(5) 0.3002(6)
N3 N 0.2704(3) 0.3313(4) 0.3508(5)
N4 N 0.3070(4) 0.3687(5) 0.2196(6)
N5 N 0.2789(4) 0.4446(5) 0.1519(7)
N6 N 0.1492(3) 0.3242(5) 0.1038(6)
C1 C 0.1550(4) 0.4180(5) 0.2805(7)
C2 C 0.0828(5) 0.4377(7) 0.2251(9)
C3 C 0.1070(5) 0.4914(7) 0.2550(9)
C4 C 0.0681(7) 0.4110(9) 0.2790(12)
C5 C 0.0480(7) 0.4364(9) 0.1479(12)
C6 C 0.0941(7) 0.5309(9) 0.2979(12)
C7 C 0.1074(6) 0.5281(9) 0.1920(11)
C8 C 0.1943(4) 0.3893(6) 0.3048(7)
C9 C 0.2319(5) 0.4184(6) 0.3313(3)
C10 C 0.2692(4) 0.3882(6) 0.3535(7)
C11 C 0.2344(4) 0.3034(6) 0.3237(7)
C12 C 0.1960(4) 0.3295(6) 0.2996(7)
C13 C 0.3116(5) 0.1884(7) 0.3022(8)
C14 C 0.3499(5) 0.1853(7) 0.3080(8)
C15 C 0.3790(5) 0.2236(7) 0.3491(8)
C16 C 0.2775(6) 0.1431(8) 0.2608(10)
C17 C 0.4214(9) 0.2145(13) 0.3537(16)
C18 C 0.3767(5) 0.3619(7) 0.5047(9)
C19 C 0.3816(5) 0.3255(7) 0.5570(8)
C20 C 0.3644(5) 0.2740(7) 0.5426(8)
C21 C 0.3963(10) 0.4220(13) 0.5279(18)
C22 C 0.3728(8) 0.2383(11) 0.6065(14)
C23 C 0.2710(4) 0.3927(6) 0.1716(8)
C24 C 0.3426(5) 0.4015(7) 0.2244(9)
C25 C 0.3217(5) 0.4615(7) 0.1975(8)
C26 C 0.3547(5) 0.3705(7) 0.1726(9)
C27 C 0.3801(6) 0.3986(8) 0.3031(10)
C28 C 0.3224(6) 0.4973(8) 0.2578(10)
C29 C 0.3386(6) 0.4952(8) 0.1561(10)
C30 C 0.2287(4) 0.3696(6) 0.1459(7)
C31 C 0.1944(4) 0.4046(6) 0.1233(8)
C32 C 0.1546(5) 0.3829(7) 0.0998(8)
C33 C 0.1840(5) 0.2911(6) 0.1267(8)
C34 C 0.2229(4) 0.3115(6) 0.1498(7)
C35 C 0.1012(5) 0.2020(7) 0.1690(9)
C36 C 0.0609(6) 0.2035(8) 0.1595(10)
C37 C 0.0350(6) 0.2444(8) 0.1167(10)
C38 C 0.1299(9) 0.1549(13) 0.2155(16)
C39 C -0.0113(14) 0.2484(20) 0.1094(24)
C40 C 0.0602(8) 0.2630(12) -0.0770(13)
C41 C 0.0450(6) 0.3142(10) -0.0967(11)
C42 C 0.0476(5) 0.3537(8) -0.0549(9)
C43 C 0.0555(20) 0.2204(25) -0.1288(37)
C44 C 0.0280(13) 0.4117(16) -0.0878(22)
C45 C 0.2299(4) 0.6023(5) 0.0172(7)
C46 C 0.1949(4) 0.6056(6) 0.0250(8)
C47 C 0.1678(5) 0.5608(6) 0.0084(8)
C48 C 0.2587(6) 0.6525(8) 0.0378(10)
C49 C 0.1305(6) 0.5664(9) 0.0204(11)
C50 C 0.2119(5) 0.3677(7) -0.0507(8)
C51 C 0.2468(5) 0.3627(7) -0.0513(8)
C52 C 0.2717(5) 0.4109(6) -0.0447(8)
C53 C 0.1809(7) 0.3161(10) -0.0708(13)
C54 C 0.3124(6) 0.4042(9) -0.0499(12)
F1 F 0.2643(5) 0.1167(6) 0.2969(8)
F2 F 0.2896(4) 0.1090(5) 0.2245(7)
F3 F 0.2455(4) 0.1679(5) 0.2050(7)
F4 F 0.4232(5) 0.1894(11) 0.3056(11)
F5 F 0.4461(6) 0.1869(14) 0.4052(13)
F6 F 0.4430(7) 0.2568(7) 0.3663(21)
F7 F 0.3706(8) 0.4584(7) 0.4951(16)
F8 F 0.4214(9) 0.4306(9) 0.5050(16)
F9 F 0.4128(8) 0.4349(8) 0.5888(10)
F10 F 0.3425(7) 0.2360(13) 0.6170(12)
F11 F 0.4030(6) 0.2507(9) 0.6662(7)
F12 F 0.3800(9) 0.1870(7) 0.6008(7)
F13 F 0.1657(5) 0.1742(8) 0.2623(10)
F14 F 0.1166(4) 0.1275(7) 0.2528(10)
F15 F 0.1367(8) 0.1222(7) 0.1769(10)
F16 F -0.0123(8) 0.2935(12) 0.1378(24)
F17 F -0.0159(5) 0.2155(11) 0.1490(13)
F18 F -0.0384(5) 0.2488(18) 0.0536(12)
F19 F 0.0611(15) 0.2401(19) -0.1781(18)
F20 F 0.0233(10) 0.1933(15) -0.1543(18)
F21 F 0.0812(11) 0.1757(18) -0.1035(13)
F22 F 0.0556(6) 0.4499(10) -0.0725(14)
F23 F 0.0030(7) 0.4302(7) -0.0631(11)
F24 F 0.0045(7) 0.4104(9) -0.1536(13)
F25 F 0.2588(5) 0.6766(6) -0.0133(6)
F26 F 0.2968(4) 0.6383(5) 0.0770(10)
F27 F 0.2527(4) 0.6910(5) 0.0725(8)
F28 F 0.0957(4) 0.5618(6) -0.0411(7)
F29 F 0.1275(4) 0.5290(6) 0.0580(9)
F30 F 0.1263(4) 0.6158(6) 0.0426(9)
F31 F 0.1616(8) 0.3048(9) -0.1301(9)
F32 F 0.1591(7) 0.3121(7) -0.0440(11)
F33 F 0.2035(6) 0.2797(6) -0.0416(17)
F34 F 0.3433(3) 0.4238(5) 0.0077(6)
F35 F 0.3197(4) 0.3502(5) -0.0582(8)
F36 F 0.3090(3) 0.4318(5) -0.1039(6)
Cu3F Cu 0.2164(1) 0.5138(1) 0.4736(1)
O2F O 0.1796(3) 0.4966(4) -0.1574(5)
loop_
_geom_bond_atom_site_label_1
_geom_bond_atom_site_label_2
_geom_bond_site_symmetry_1
_geom_bond_site_symmetry_2
Cu1 O3 1_555 1_555
Cu2 O1 1_555 1_555
Cu3 O8 1_555 1_555
O1 N1 1_555 1_555
O2 N2 1_555 1_555
O3 C13 1_555 1_555
O4 Cu1 1_555 1_555
O5 Cu1 1_555 1_555
O6 Cu1 1_555 1_555
O7 Cu1 1_555 1_555
O8 N5 1_555 1_555
O9 Cu2 1_555 1_555
O10 Cu2 1_555 1_555
O11 Cu2 1_555 1_555
O12 Cu2 1_555 1_555
O13 Cu3 1_555 1_555
O14 Cu3 1_555 1_555
O15 Cu3 1_555 1_555
O16 Cu3 1_555 1_555
N1 C1 1_555 1_555
N2 C1 1_555 1_555
N3 Cu1 1_555 1_555
N4 O7 1_555 1_555
N5 C23 1_555 1_555
N6 Cu2 1_555 1_555
C1 C8 1_555 1_555
C2 N1 1_555 1_555
C3 N2 1_555 1_555
C4 C2 1_555 1_555
C5 C2 1_555 1_555
C6 C3 1_555 1_555
C7 C3 1_555 1_555
C8 C9 1_555 1_555
C9 C10 1_555 1_555
C10 N3 1_555 1_555
C11 N3 1_555 1_555
C12 C8 1_555 1_555
C13 C14 1_555 1_555
C14 C15 1_555 1_555
C15 O4 1_555 1_555
C16 C13 1_555 1_555
C17 C15 1_555 1_555
C18 O5 1_555 1_555
C19 C18 1_555 1_555
C20 O6 1_555 1_555
C21 C18 1_555 1_555
C22 C20 1_555 1_555
C23 N4 1_555 1_555
C24 N4 1_555 1_555
C25 N5 1_555 1_555
C26 C24 1_555 1_555
C27 C24 1_555 1_555
C28 C25 1_555 1_555
C29 C25 1_555 1_555
C30 C23 1_555 1_555
C31 C30 1_555 1_555
C32 N6 1_555 1_555
C33 N6 1_555 1_555
C34 C30 1_555 1_555
C35 O9 1_555 1_555
C36 C35 1_555 1_555
C37 O10 1_555 1_555
C38 C35 1_555 1_555
C39 C37 1_555 1_555
C40 O11 1_555 1_555
C41 C40 1_555 1_555
C42 O12 1_555 1_555
C43 C40 1_555 1_555
C44 C42 1_555 1_555
C45 O13 1_555 1_555
C46 C45 1_555 1_555
C47 O14 1_555 1_555
C48 C45 1_555 1_555
C49 C47 1_555 1_555
C50 O15 1_555 1_555
C51 C50 1_555 1_555
C52 O16 1_555 1_555
C53 C50 1_555 1_555
C54 C52 1_555 1_555
F1 C16 1_555 1_555
F2 C16 1_555 1_555
F3 C16 1_555 1_555
F4 C17 1_555 1_555
F5 C17 1_555 1_555
F6 C17 1_555 1_555
F7 C21 1_555 1_555
F8 C21 1_555 1_555
F9 C21 1_555 1_555
F10 C22 1_555 1_555
F11 C22 1_555 1_555
F12 C22 1_555 1_555
F13 C38 1_555 1_555
F14 C38 1_555 1_555
F15 C38 1_555 1_555
F16 C39 1_555 1_555
F17 C39 1_555 1_555
F18 C39 1_555 1_555
F19 C43 1_555 1_555
F20 C43 1_555 1_555
F21 C43 1_555 1_555
F22 C44 1_555 1_555
F23 C44 1_555 1_555
F24 C44 1_555 1_555
F25 C48 1_555 1_555
F26 C48 1_555 1_555
F27 C48 1_555 1_555
F28 C49 1_555 1_555
F29 C49 1_555 1_555
F30 C49 1_555 1_555
F31 C53 1_555 1_555
F32 C53 1_555 1_555
F33 C53 1_555 1_555
F34 C54 1_555 1_555
F35 C54 1_555 1_555
F36 C54 1_555 1_555
Cu3F O2 1_555 1_555
O2F Cu3 1_555 1_555
C2 C3 1_555 1_555
C11 C12 1_555 1_555
C19 C20 1_555 1_555
C24 C25 1_555 1_555
C31 C32 1_555 1_555
C33 C34 1_555 1_555
C36 C37 1_555 1_555
C41 C42 1_555 1_555
C46 C47 1_555 1_555
C51 C52 1_555 1_555

#END
