
#######################################################################
#
#                 Cambridge Crystallographic Data Centre
#                                CCDC 
#
#######################################################################
#
# If this CIF has been generated from an entry in the Cambridge 
# Structural Database, then it will include bibliographic, chemical, 
# crystal, experimental, refinement or atomic coordinate data resulting 
# from the CCDC's data processing and validation procedures.
#
#######################################################################

data_SOLBOM
_symmetry_cell_setting           orthorhombic
_symmetry_space_group_name_H-M   'P 21 21 21'
_symmetry_Int_Tables_number      19
_space_group_name_Hall           'P 2ac 2ab'
loop_
_symmetry_equiv_pos_site_id
_symmetry_equiv_pos_as_xyz
1 x,y,z
2 1/2-x,-y,1/2+z
3 1/2+x,1/2-y,-z
4 -x,1/2+y,1/2-z
_cell_length_a                   12.581(5)
_cell_length_b                   26.347(5)
_cell_length_c                   29.852(5)
_cell_angle_alpha                90
_cell_angle_beta                 90
_cell_angle_gamma                90
_cell_volume                     9895.09
loop_
_atom_site_label
_atom_site_type_symbol
_atom_site_fract_x
_atom_site_fract_y
_atom_site_fract_z
Pb1 Pb -0.16500(4) 0.990405(15) 0.360137(14)
Pb2 Pb 0.09867(3) 1.068871(16) 0.392184(14)
Pb3 Pb 0.14177(4) 0.926246(16) 0.379054(15)
Pb4 Pb 0.56234(3) 0.936056(15) 0.319548(15)
Pb5 Pb 0.32974(3) 1.027774(15) 0.312948(13)
Pb6 Pb 0.53744(3) 1.034079(16) 0.414918(14)
F1 F 0.0226(9) 1.2425(4) 0.4030(3)
F2 F -0.0925(8) 1.2912(3) 0.4353(3)
F3 F 0.0526(8) 1.2699(3) 0.4690(3)
F4 F 0.1516(7) 1.2622(4) 0.5642(4)
F5 F 0.0761(8) 1.1956(3) 0.5435(3)
F6 F 0.0734(9) 1.2148(4) 0.6118(3)
F7 F -0.0212(13) 0.8586(4) 0.2076(4)
F8 F -0.0226(11) 0.8822(4) 0.1387(4)
F9 F 0.1326(15) 0.8576(4) 0.1677(4)
F10 F -0.1060(8) 0.9863(6) 0.1188(3)
F11 F -0.0334(11) 1.0596(5) 0.1019(4)
F12 F -0.1089(8) 1.0161(6) 0.0512(3)
F13 F 0.1810(7) 0.9299(4) 0.6180(3)
F14 F 0.0359(8) 0.9100(4) 0.6510(3)
F15 F 0.0969(9) 0.9832(4) 0.6590(3)
F16 F 0.0155(8) 1.0790(4) 0.6254(4)
F17 F -0.1330(10) 1.1031(4) 0.6037(3)
F18 F -0.0776(8) 1.1248(3) 0.6666(3)
F19 F 0.5202(18) 0.6940(5) 0.4054(10)
F20 F 0.3697(17) 0.6520(4) 0.4206(5)
F21 F 0.4879(14) 0.6742(6) 0.4765(9)
F22 F 0.359(3) 0.7266(16) 0.5961(13)
F23 F 0.4506(17) 0.7406(7) 0.5403(7)
F24 F 0.4838 0.6633 0.5681
F25 F 0.1451(13) 0.7080(4) 0.2954(5)
F26 F 0.137(2) 0.7617(6) 0.3435(11)
F27 F 0.2698(19) 0.7062(6) 0.3375(6)
F28 F 0.1265(15) 0.7425(5) 0.2118(6)
F29 F 0.2094(13) 0.7247(6) 0.1423(5)
F30 F 0.0942(9) 0.6755(4) 0.1749(4)
O1 O -0.1232(6) 1.0760(3) 0.3831(2)
O2 O -0.2416(6) 1.0465(3) 0.4316(2)
O3 O -0.2384(6) 1.3907(3) 0.6377(3)
O4 O -0.0658(6) 1.4025(3) 0.6392(3)
O5 O 0.0198(6) 0.9809(3) 0.3274(2)
O6 O 0.0979(7) 1.0552(3) 0.3114(3)
O7 O 0.3070(6) 0.9371(3) -0.0341(3)
O8 O 0.1501(6) 0.9688(3) -0.0554(2)
O9 O 0.0129(6) 0.9852(3) 0.4277(3)
O10 O 0.1445(6) 0.9401(3) 0.4601(3)
O11 O -0.3315(6) 0.9737(3) 0.7839(2)
O12 O -0.2696(6) 1.0516(3) 0.7858(2)
O13 O 0.3338(7) 0.9092(3) 0.3948(3)
O14 O 0.4732(7) 0.8681(3) 0.3679(3)
O15 O 0.0499(8) 0.5472(3) 0.5483(3)
O16 O 0.1609(7) 0.5587(3) 0.6049(3)
O17 O 0.2362(7) 0.9356(3) 0.3022(3)
O18 O 0.3972(7) 0.9419(3) 0.2727(2)
O19 O 0.4579(7) 0.5255(3) 0.2159(2)
O20 O 0.3513(6) 0.5346(3) 0.1575(2)
O21 O 0.2202(6) 1.0044(3) 0.3783(2)
O22 O 0.4461(6) 0.9862(2) 0.3633(2)
C1 C -0.1766(10) 1.0798(4) 0.4199(4)
C2 C -0.1563(11) 1.1235(5) 0.4486(4)
C3 C -0.0957(10) 1.1667(5) 0.4334(4)
H1 H -0.0670 1.1664 0.4047
C4 C -0.0793(11) 1.2078(5) 0.4601(4)
C5 C -0.1202(10) 1.2082(5) 0.5044(4)
C6 C -0.1804(11) 1.1665(4) 0.5202(4)
H2 H -0.2093 1.1668 0.5488
C7 C -0.1953(11) 1.1253(5) 0.4922(4)
H3 H -0.2330 1.0975 0.5030
C8 C -0.0224(12) 1.2521(6) 0.4423(5)
C9 C -0.1147(10) 1.2546(4) 0.5351(4)
C10 C -0.0301(12) 1.2654(5) 0.5644(4)
C11 C -0.0420(10) 1.3075(4) 0.5930(4)
H4 H 0.0132 1.3159 0.6124
C12 C -0.1316(9) 1.3362(4) 0.5931(4)
C13 C -0.2161(11) 1.3249(5) 0.5639(5)
H5 H -0.2782 1.3441 0.5641
C14 C -0.2045(11) 1.2851(5) 0.5351(5)
H6 H -0.2586 1.2781 0.5148
C15 C -0.1464(10) 1.3792(4) 0.6256(3)
C16 C 0.0665(11) 1.2335(5) 0.5708(5)
C17 C 0.0589(11) 1.0119(5) 0.2987(4)
C18 C 0.0649(10) 0.9986(5) 0.2518(4)
C19 C 0.0421(10) 0.9504(5) 0.2375(4)
H7 H 0.0173 0.9264 0.2578
C20 C 0.0560(12) 0.9371(6) 0.1920(4)
C21 C 0.0940(10) 0.9726(5) 0.1611(4)
C22 C 0.1167(11) 1.0216(6) 0.1770(4)
H8 H 0.1409 1.0462 0.1571
C23 C 0.1040(11) 1.0338(5) 0.2213(4)
H9 H 0.1219 1.0662 0.2312
C24 C 0.036(2) 0.8835(8) 0.1764(5)
C25 C 0.1183(11) 0.9623(6) 0.1119(4)
C26 C 0.0544(10) 0.9843(6) 0.0781(4)
C27 C 0.0870(11) 0.9812(5) 0.0331(4)
H10 H 0.0469 0.9963 0.0105
C28 C 0.1793(9) 0.9554(4) 0.0228(3)
C29 C 0.2416(11) 0.9345(6) 0.0566(4)
H11 H 0.3048 0.9181 0.0495
C30 C 0.2096(11) 0.9383(6) 0.1003(4)
H12 H 0.2516 0.9240 0.1226
C31 C 0.2158(10) 0.9520(5) -0.0244(4)
C32 C -0.0495(14) 1.0138(8) 0.0857(6)
C33 C 0.0593(9) 0.9657(5) 0.4630(4)
C34 C 0.0079(11) 0.9718(5) 0.5082(4)
C35 C 0.0642(10) 0.9592(5) 0.5458(4)
H13 H 0.1333 0.9471 0.5428
C36 C 0.0215(10) 0.9639(6) 0.5879(4)
C37 C -0.0811(11) 0.9855(5) 0.5924(4)
C38 C -0.1357(12) 0.9993(6) 0.5541(4)
H14 H -0.2031 1.0134 0.5570
C39 C -0.0946(10) 0.9928(5) 0.5125(4)
H15 H -0.1333 1.0021 0.4873
C40 C 0.0836(13) 0.9476(7) 0.6288(5)
C41 C -0.1347(10) 0.9931(5) 0.6378(4)
C42 C -0.1380(10) 1.0410(5) 0.6587(4)
C43 C -0.1888(10) 1.0452(5) 0.6994(4)
H16 H -0.1886 1.0763 0.7140
C44 C -0.2400(9) 1.0046(4) 0.7194(4)
C45 C -0.2431(10) 0.9585(5) 0.6973(4)
H17 H -0.2810 0.9313 0.7092
C46 C -0.1890(10) 0.9535(5) 0.6574(4)
H18 H -0.1892 0.9222 0.6432
C47 C -0.2863(11) 1.0102(5) 0.7659(4)
C48 C -0.0831(13) 1.0866(6) 0.6389(5)
C49 C 0.3932(10) 0.8713(4) 0.3923(4)
C50 C 0.3632(11) 0.8273(5) 0.4210(4)
C51 C 0.4142(11) 0.7801(4) 0.4155(5)
H19 H 0.4713 0.7775 0.3959
C52 C 0.3804(17) 0.7375(6) 0.4391(6)
C53 C 0.3042(14) 0.7421(6) 0.4722(5)
C54 C 0.2563(14) 0.7880(6) 0.4773(6)
H20 H 0.1996 0.7909 0.4971
C55 C 0.2903(15) 0.8319(5) 0.4531(5)
H21 H 0.2616 0.8635 0.4597
C56 C 0.432(3) 0.6896(13) 0.4343(11)
C57 C 0.2602(14) 0.6970(6) 0.4977(6)
C58 C 0.301(2) 0.6798(8) 0.5353(8)
C59 C 0.2495(17) 0.6411(7) 0.5594(7)
H22 H 0.2742 0.6329 0.5879
C60 C 0.1674(11) 0.6160(5) 0.5433(5)
C61 C 0.1272(13) 0.6316(6) 0.5047(5)
H23 H 0.0655 0.6166 0.4938
C62 C 0.1783(17) 0.6716(8) 0.4794(6)
H24 H 0.1546 0.6797 0.4508
C63 C 0.1205(11) 0.5706(5) 0.5667(5)
C64 C 0.4061 0.6995 0.5575
C65 C 0.3165(10) 0.9175(4) 0.2818(4)
C66 C 0.3129(10) 0.8622(4) 0.2704(5)
C67 C 0.2510(15) 0.8279(6) 0.2925(7)
H25 H 0.2042 0.8396 0.3143
C68 C 0.2552(15) 0.7766(6) 0.2837(7)
C69 C 0.3209(12) 0.7588(5) 0.2507(5)
C70 C 0.3808(13) 0.7927(6) 0.2286(5)
H26 H 0.4263 0.7811 0.2063
C71 C 0.3777(11) 0.8435(5) 0.2374(4)
H27 H 0.4198 0.8656 0.2208
C72 C 0.1911 0.7400 0.3183
C73 C 0.3268(11) 0.7037(5) 0.2365(5)
C74 C 0.2721(14) 0.6824(6) 0.2028(7)
C75 C 0.2933(11) 0.6324(5) 0.1875(5)
H28 H 0.2551 0.6191 0.1635
C76 C 0.3703(9) 0.6036(4) 0.2080(3)
C77 C 0.4213(11) 0.6242(4) 0.2441(4)
H29 H 0.4693 0.6042 0.2599
C78 C 0.4039(14) 0.6745(5) 0.2582(5)
H30 H 0.4431 0.6882 0.2817
C79 C 0.3937(9) 0.5515(4) 0.1937(3)
C80 C 0.1781(19) 0.7065(7) 0.1849(7)
Pb1A Pb -0.33500(4) 1.009595(15) 0.860137(14)
Pb1B Pb 0.33500(4) 0.509595(15) 0.639863(14)
Pb1C Pb 0.16500(4) 0.490405(15) 0.139863(14)
Pb2A Pb 0.40133(3) 0.931129(16) -0.107816(14)
Pb2B Pb -0.40133(3) 1.431129(16) 0.607816(14)
Pb4A Pb -0.06234(3) 1.063944(15) 0.819548(15)
Pb4B Pb 0.06234(3) 0.563944(15) 0.680452(15)
Pb4C Pb 0.43766(3) 0.436056(15) 0.180452(15)
Pb5B Pb -0.17026(3) 1.472226(15) 0.687052(13)
Pb5C Pb 0.67026(3) 0.527774(15) 0.187052(13)
Pb6_2 Pb -0.46256(3) 1.034079(16) 0.414918(14)
Pb6A Pb -0.03744(3) 0.965921(16) -0.085082(14)
Pb6B Pb 0.03744(3) 0.465921(16) 0.585082(14)
Pb6B_2 Pb 0.03744(3) 1.465921(16) 0.585082(14)
Pb6C Pb 0.46256(3) 0.534079(16) 0.085082(14)
O2_2 O 0.7584(6) 1.0465(3) 0.4316(2)
O3B O 0.2616(6) 1.1093(3) 0.3623(3)
O4B O 0.4342(6) 1.0975(3) 0.3608(3)
O7A O 0.1930(6) 1.0629(3) 0.4659(3)
O8A O 0.3499(6) 1.0312(3) 0.4446(2)
O11A O -0.1685(6) 1.0263(3) 0.2839(2)
O12A O -0.2304(6) 0.9484(3) 0.2858(2)
O12A_2 O 0.7696(6) 0.9484(3) 0.2858(2)
O15B O 0.5499(8) 0.9528(3) 0.4517(3)
O16B O -0.3391(7) 0.9413(3) 0.3951(3)
O16B_2 O 0.6609(7) 0.9413(3) 0.3951(3)
O19C O 0.5421(7) 1.0255(3) 0.2841(2)
O20C O -0.3513(6) 1.0346(3) 0.3425(2)
O20C_2 O 0.6487(6) 1.0346(3) 0.3425(2)
loop_
_geom_bond_atom_site_label_1
_geom_bond_atom_site_label_2
_geom_bond_site_symmetry_1
_geom_bond_site_symmetry_2
Pb1 O1 1_555 1_555
Pb2 O1 1_555 1_555
Pb3 O5 1_555 1_555
Pb4 O14 1_555 1_555
Pb5 O17 1_555 1_555
Pb6 O22 1_555 1_555
F1 C8 1_555 1_555
F2 C8 1_555 1_555
F3 C8 1_555 1_555
F4 C16 1_555 1_555
F5 C16 1_555 1_555
F6 C16 1_555 1_555
F7 C24 1_555 1_555
F8 C24 1_555 1_555
F9 C24 1_555 1_555
F10 C32 1_555 1_555
F11 C32 1_555 1_555
F12 C32 1_555 1_555
F13 C40 1_555 1_555
F14 C40 1_555 1_555
F15 C40 1_555 1_555
F16 C48 1_555 1_555
F17 C48 1_555 1_555
F18 C48 1_555 1_555
F19 C56 1_555 1_555
F20 C56 1_555 1_555
F21 C56 1_555 1_555
F22 C64 1_555 1_555
F23 C64 1_555 1_555
F24 C64 1_555 1_555
F25 C72 1_555 1_555
F26 C72 1_555 1_555
F27 C72 1_555 1_555
F28 C80 1_555 1_555
F29 C80 1_555 1_555
F30 C80 1_555 1_555
O1 C1 1_555 1_555
O2 Pb1 1_555 1_555
O3 C15 1_555 1_555
O4 C15 1_555 1_555
O5 Pb1 1_555 1_555
O6 Pb2 1_555 1_555
O7 C31 1_555 1_555
O8 C31 1_555 1_555
O9 Pb2 1_555 1_555
O10 Pb3 1_555 1_555
O11 C47 1_555 1_555
O12 C47 1_555 1_555
O13 Pb3 1_555 1_555
O14 C49 1_555 1_555
O15 C63 1_555 1_555
O16 C63 1_555 1_555
O17 Pb3 1_555 1_555
O18 Pb4 1_555 1_555
O19 C79 1_555 1_555
O20 C79 1_555 1_555
O21 Pb2 1_555 1_555
O22 Pb4 1_555 1_555
C1 O2 1_555 1_555
C2 C1 1_555 1_555
C3 C2 1_555 1_555
H1 C3 1_555 1_555
C4 C3 1_555 1_555
C5 C4 1_555 1_555
C6 C5 1_555 1_555
H2 C6 1_555 1_555
C7 C2 1_555 1_555
H3 C7 1_555 1_555
C8 C4 1_555 1_555
C9 C5 1_555 1_555
C10 C9 1_555 1_555
C11 C10 1_555 1_555
H4 C11 1_555 1_555
C12 C11 1_555 1_555
C13 C12 1_555 1_555
H5 C13 1_555 1_555
C14 C9 1_555 1_555
H6 C14 1_555 1_555
C15 C12 1_555 1_555
C16 C10 1_555 1_555
C17 O5 1_555 1_555
C18 C17 1_555 1_555
C19 C18 1_555 1_555
H7 C19 1_555 1_555
C20 C19 1_555 1_555
C21 C20 1_555 1_555
C22 C21 1_555 1_555
H8 C22 1_555 1_555
C23 C18 1_555 1_555
H9 C23 1_555 1_555
C24 C20 1_555 1_555
C25 C21 1_555 1_555
C26 C25 1_555 1_555
C27 C26 1_555 1_555
H10 C27 1_555 1_555
C28 C27 1_555 1_555
C29 C28 1_555 1_555
H11 C29 1_555 1_555
C30 C25 1_555 1_555
H12 C30 1_555 1_555
C31 C28 1_555 1_555
C32 C26 1_555 1_555
C33 O9 1_555 1_555
C34 C33 1_555 1_555
C35 C34 1_555 1_555
H13 C35 1_555 1_555
C36 C35 1_555 1_555
C37 C36 1_555 1_555
C38 C37 1_555 1_555
H14 C38 1_555 1_555
C39 C34 1_555 1_555
H15 C39 1_555 1_555
C40 C36 1_555 1_555
C41 C37 1_555 1_555
C42 C41 1_555 1_555
C43 C42 1_555 1_555
H16 C43 1_555 1_555
C44 C43 1_555 1_555
C45 C44 1_555 1_555
H17 C45 1_555 1_555
C46 C41 1_555 1_555
H18 C46 1_555 1_555
C47 C44 1_555 1_555
C48 C42 1_555 1_555
C49 O13 1_555 1_555
C50 C49 1_555 1_555
C51 C50 1_555 1_555
H19 C51 1_555 1_555
C52 C51 1_555 1_555
C53 C52 1_555 1_555
C54 C53 1_555 1_555
H20 C54 1_555 1_555
C55 C50 1_555 1_555
H21 C55 1_555 1_555
C56 C52 1_555 1_555
C57 C53 1_555 1_555
C58 C57 1_555 1_555
C59 C58 1_555 1_555
H22 C59 1_555 1_555
C60 C59 1_555 1_555
C61 C60 1_555 1_555
H23 C61 1_555 1_555
C62 C57 1_555 1_555
H24 C62 1_555 1_555
C63 C60 1_555 1_555
C64 C58 1_555 1_555
C65 O17 1_555 1_555
C66 C65 1_555 1_555
C67 C66 1_555 1_555
H25 C67 1_555 1_555
C68 C67 1_555 1_555
C69 C68 1_555 1_555
C70 C69 1_555 1_555
H26 C70 1_555 1_555
C71 C66 1_555 1_555
H27 C71 1_555 1_555
C72 C68 1_555 1_555
C73 C69 1_555 1_555
C74 C73 1_555 1_555
C75 C74 1_555 1_555
H28 C75 1_555 1_555
C76 C75 1_555 1_555
C77 C76 1_555 1_555
H29 C77 1_555 1_555
C78 C73 1_555 1_555
H30 C78 1_555 1_555
C79 C76 1_555 1_555
C80 C74 1_555 1_555
Pb1A O11 1_555 1_555
Pb1B O16 1_555 1_555
Pb1C O20 1_555 1_555
Pb2A O7 1_555 1_555
Pb2B O3 1_555 1_555
Pb4A O12 1_555 1_555
Pb4B O16 1_555 1_555
Pb4C O19 1_555 1_555
Pb5B O3 1_555 1_555
Pb5C O19 1_555 1_555
Pb6_2 O2 1_555 1_555
Pb6A O8 1_555 1_555
Pb6B O15 1_555 1_555
Pb6B_2 O4 1_555 1_555
Pb6C O20 1_555 1_555
O2_2 Pb6 1_555 1_555
O3B Pb2 1_555 1_555
O4B Pb5 1_555 1_555
O7A Pb2 1_555 1_555
O8A Pb6 1_555 1_555
O11A Pb1 1_555 1_555
O12A Pb1 1_555 1_555
O12A_2 Pb4 1_555 1_555
O15B Pb6 1_555 1_555
O16B Pb1 1_555 1_555
O16B_2 Pb4 1_555 1_555
O19C Pb4 1_555 1_555
O20C Pb1 1_555 1_555
O20C_2 Pb4 1_555 1_555
Pb3 O9 1_555 1_555
Pb3 O21 1_555 1_555
Pb5 O18 1_555 1_555
Pb5 O21 1_555 1_555
Pb5 O22 1_555 1_555
Pb5 O3B 1_555 1_555
Pb5 O19C 1_555 1_555
Pb6 O4B 1_555 1_555
Pb6 O20C_2 1_555 1_555
O4 Pb5B 1_555 1_555
O6 C17 1_555 1_555
O10 C33 1_555 1_555
O12 Pb1A 1_555 1_555
O18 C65 1_555 1_555
O20 Pb4C 1_555 1_555
C6 C7 1_555 1_555
C13 C14 1_555 1_555
C22 C23 1_555 1_555
C29 C30 1_555 1_555
C38 C39 1_555 1_555
C45 C46 1_555 1_555
C54 C55 1_555 1_555
C61 C62 1_555 1_555
C70 C71 1_555 1_555
C77 C78 1_555 1_555
Pb6_2 O20C 1_555 1_555

#END
