
#######################################################################
#
#                 Cambridge Crystallographic Data Centre
#                                CCDC 
#
#######################################################################
#
# If this CIF has been generated from an entry in the Cambridge 
# Structural Database, then it will include bibliographic, chemical, 
# crystal, experimental, refinement or atomic coordinate data resulting 
# from the CCDC's data processing and validation procedures.
#
#######################################################################

data_SOLBUS
_symmetry_cell_setting           monoclinic
_symmetry_space_group_name_H-M   'C 2/c'
_symmetry_Int_Tables_number      15
_space_group_name_Hall           '-C 2yn'
loop_
_symmetry_equiv_pos_site_id
_symmetry_equiv_pos_as_xyz
1 x,y,z
2 -x,y,1/2-z
3 1/2+x,1/2+y,z
4 1/2-x,1/2+y,1/2-z
5 -x,-y,-z
6 x,-y,1/2+z
7 1/2-x,1/2-y,-z
8 1/2+x,1/2-y,1/2+z
_cell_length_a                   32.565(5)
_cell_length_b                   14.331(5)
_cell_length_c                   18.549(5)
_cell_angle_alpha                90
_cell_angle_beta                 114.870(5)
_cell_angle_gamma                90
_cell_volume                     7853.84
loop_
_atom_site_label
_atom_site_type_symbol
_atom_site_fract_x
_atom_site_fract_y
_atom_site_fract_z
Pb1 Pb 0.413952(13) 0.50373(3) -0.45229(2)
F1 F 0.3477(8) 0.0245(8) -0.5617(11)
F2 F 0.3547(4) -0.0831(7) -0.4866(7)
F3 F 0.4124(8) -0.0640(9) -0.5188(8)
F4 F 0.3492(6) -0.1299(8) -0.2347(14)
F5 F 0.3424(5) -0.0217(10) -0.3214(13)
F6 F 0.3971(5) -0.0159(8) -0.1993(9)
O1 O 0.4456(3) -0.4001(5) -0.2058(4)
O2 O 0.4552(3) -0.4322(5) -0.3160(4)
O3 O 0.4424(3) 0.3618(5) -0.3537(4)
O4 O 0.4101(3) 0.3293(5) -0.4805(4)
O5 O 0.3517(4) 0.4760(11) -0.3873(6)
C1 C 0.4232(4) 0.2043(7) -0.3889(6)
C2 C 0.4415(4) 0.1746(8) -0.3125(6)
H1 H 0.4545 0.2178 -0.2717
C3 C 0.4413(4) 0.0820(8) -0.2943(7)
H2 H 0.4551 0.0630 -0.2415
C4 C 0.4205(5) 0.0159(8) -0.3536(7)
C5 C 0.3993(6) 0.0493(10) -0.4330(8)
C6 C 0.4242(5) -0.0866(9) -0.3346(8)
C7 C 0.4028(5) -0.1286(9) -0.2870(10)
C8 C 0.4110(5) -0.2224(8) -0.2691(9)
H3 H 0.3984 -0.2494 -0.2375
C9 C 0.4509(5) -0.1423(8) -0.3578(7)
H4 H 0.4662 -0.1157 -0.3852
C10 C 0.4557(5) -0.2357(8) -0.3416(7)
H5 H 0.4719 -0.2723 -0.3619
C11 C 0.4459(4) -0.3766(8) -0.2717(6)
C12 C 0.4026(6) 0.1446(10) -0.4468(9)
H6 H 0.3896 0.1664 -0.4989
C13 C 0.3810 -0.0177 -0.5091
C14 C 0.4361(4) -0.2776(7) -0.2942(6)
C15 C 0.3734(8) -0.0764(12) -0.2626(18)
C16 C 0.4251(4) 0.3047(7) -0.4097(6)
C17 C 0.3123(7) 0.407(2) -0.4310(11)
H7 H 0.3006 0.3829 -0.3943
H8 H 0.3232 0.3542 -0.4511
C18 C 0.2722(15) 0.461(3) -0.505(3)
H9 H 0.2476 0.4182 -0.5316
H10 H 0.2838 0.4832 -0.5410
H11 H 0.2614 0.5122 -0.4843
H12 H 0.359(4) 0.486(8) -0.325(7)
Pb2 Pb 0.518183(13) 0.61798(3) -0.46393(2)
Pb3 Pb 0.466086(13) 0.56691(3) -0.68939(2)
F7 F 0.2323(3) 0.7249(9) -0.6456(8)
F8 F 0.2872(4) 0.6967(11) -0.5320(8)
F9 F 0.2646(4) 0.8341(9) -0.5635(6)
F10 F 0.2481(5) 0.7485(9) -0.8778(6)
F11 F 0.1813(4) 0.7138(10) -0.9007(10)
F12 F 0.2355(4) 0.6713(6) -0.7951(8)
O6 O 0.4551(2) 0.6988(5) -0.6041(4)
O7 O 0.4365(3) 0.6644(5) -0.5044(4)
O8 O 0.1149(2) 1.0531(5) -0.7803(4)
O9 O 0.5125(2) 0.5144(4) -0.5639(4)
O10 O 0.0910(2) 0.9865(5) -0.8987(4)
C19 C 0.4278(4) 0.6970(7) -0.5740(6)
C20 C 0.3805(4) 0.7373(7) -0.6190(6)
C21 C 0.3489(4) 0.7295(7) -0.5898(6)
H13 H 0.3562 0.6983 -0.5420
C22 C 0.3057(4) 0.7671(8) -0.6298(7)
C23 C 0.2944(4) 0.8155(7) -0.7010(6)
C24 C 0.3276(4) 0.8236(8) -0.7281(7)
H14 H 0.3210 0.8561 -0.7750
C25 C 0.3708(4) 0.7852(8) -0.6883(6)
H15 H 0.3924 0.7920 -0.7084
C26 C 0.2720(6) 0.7529(13) -0.5936(11)
C27 C 0.2498(4) 0.8653(8) -0.7409(6)
C28 C 0.2453(4) 0.9503(7) -0.7123(7)
H16 H 0.2703 0.9779 -0.6721
C29 C 0.2045(4) 0.9961(8) -0.7418(6)
H17 H 0.2022 1.0537 -0.7206
C30 C 0.1672(3) 0.9582(7) -0.8018(6)
C31 C 0.1718(4) 0.8774(8) -0.8373(7)
H18 H 0.1475 0.8543 -0.8817
C32 C 0.2137(4) 0.8292(9) -0.8058(7)
C33 C 0.2168(5) 0.7381(15) -0.8438(14)
C34 C 0.1211(4) 1.0028(7) -0.8291(6)
Pb1_2 Pb 0.413952(13) -0.49627(3) -0.45229(2)
Pb1C Pb 0.086048(13) 1.00373(3) -1.04771(2)
Pb1D Pb 0.586048(13) 0.49627(3) -0.54771(2)
O1A O 0.5544(3) 0.5999(5) -0.2942(4)
O1E O 0.4456(3) 0.4001(5) -0.7058(4)
O2_2 O 0.4552(3) 0.5678(5) -0.3160(4)
O3D O 0.5576(3) 0.6382(5) -0.6463(4)
Pb2A Pb 0.481817(13) -0.38202(3) -0.03607(2)
Pb2D Pb 0.481817(13) 0.38202(3) -0.53607(2)
Pb2G Pb 0.018183(13) 0.88202(3) -0.96393(2)
Pb3C Pb 0.033914(13) 1.06691(3) -0.81061(2)
Pb3D Pb 0.533914(13) 0.43309(3) -0.31061(2)
Pb3E Pb 0.466086(13) -0.56691(3) -0.18939(2)
O8C O 0.3851(2) 0.5531(5) -0.7197(4)
O9D O 0.4875(2) 0.4856(4) -0.4361(4)
O10C O 0.4090(2) 0.4865(5) -0.6013(4)
O10G O 0.5910(2) 0.5135(5) -0.3987(4)
loop_
_geom_bond_atom_site_label_1
_geom_bond_atom_site_label_2
_geom_bond_site_symmetry_1
_geom_bond_site_symmetry_2
Pb1 O3 1_555 1_555
F1 C13 1_555 1_555
F2 C13 1_555 1_555
F3 C13 1_555 1_555
F4 C15 1_555 1_555
F5 C15 1_555 1_555
F6 C15 1_555 1_555
O1 C11 1_555 1_555
O2 C11 1_555 1_555
O3 C16 1_555 1_555
O4 Pb1 1_555 1_555
O5 Pb1 1_555 1_555
C1 C2 1_555 1_555
C2 H1 1_555 1_555
C3 C2 1_555 1_555
H2 C3 1_555 1_555
C4 C3 1_555 1_555
C5 C4 1_555 1_555
C6 C4 1_555 1_555
C7 C6 1_555 1_555
C8 C7 1_555 1_555
H3 C8 1_555 1_555
C9 C6 1_555 1_555
H4 C9 1_555 1_555
C10 C9 1_555 1_555
H5 C10 1_555 1_555
C11 C14 1_555 1_555
C12 C1 1_555 1_555
H6 C12 1_555 1_555
C13 C5 1_555 1_555
C14 C8 1_555 1_555
C15 C7 1_555 1_555
C16 O4 1_555 1_555
C17 O5 1_555 1_555
H7 C17 1_555 1_555
H8 C17 1_555 1_555
C18 C17 1_555 1_555
H9 C18 1_555 1_555
H10 C18 1_555 1_555
H11 C18 1_555 1_555
H12 O5 1_555 1_555
Pb2 O6 1_555 1_555
Pb3 O6 1_555 1_555
F7 C26 1_555 1_555
F8 C26 1_555 1_555
F9 C26 1_555 1_555
F10 C33 1_555 1_555
F11 C33 1_555 1_555
F12 C33 1_555 1_555
O6 C19 1_555 1_555
O7 Pb1 1_555 1_555
O8 C34 1_555 1_555
O9 Pb2 1_555 1_555
O10 C34 1_555 1_555
C19 O7 1_555 1_555
C20 C19 1_555 1_555
C21 C20 1_555 1_555
H13 C21 1_555 1_555
C22 C21 1_555 1_555
C23 C22 1_555 1_555
C24 C23 1_555 1_555
H14 C24 1_555 1_555
C25 C20 1_555 1_555
H15 C25 1_555 1_555
C26 C22 1_555 1_555
C27 C23 1_555 1_555
C28 C27 1_555 1_555
H16 C28 1_555 1_555
C29 C28 1_555 1_555
H17 C29 1_555 1_555
C30 C29 1_555 1_555
C31 C30 1_555 1_555
H18 C31 1_555 1_555
C32 C27 1_555 1_555
C33 C32 1_555 1_555
C34 C30 1_555 1_555
Pb1_2 O2 1_555 1_555
Pb1C O10 1_555 1_555
Pb1D O9 1_555 1_555
O1A Pb2 1_555 1_555
O1E Pb3 1_555 1_555
O2_2 Pb1 1_555 1_555
O3D Pb3 1_555 1_555
Pb2A O1 1_555 1_555
Pb2D O9 1_555 1_555
Pb2G O10 1_555 1_555
Pb3C O8 1_555 1_555
Pb3D O3 1_555 1_555
Pb3E O1 1_555 1_555
O8C Pb3 1_555 1_555
O9D Pb1 1_555 1_555
O10C Pb1 1_555 1_555
O10G Pb2 1_555 1_555
C1 C16 1_555 1_555
C5 C12 1_555 1_555
C10 C14 1_555 1_555
Pb2 O7 1_555 1_555
Pb2 O9D 1_555 1_555
Pb3 O9 1_555 1_555
C24 C25 1_555 1_555
C31 C32 1_555 1_555
Pb1D O3D 1_555 1_555
Pb1D O10G 1_555 1_555
O1A Pb3D 1_555 1_555
O1E Pb2D 1_555 1_555
Pb2D O9D 1_555 1_555
Pb2D O10C 1_555 1_555
Pb3D O9D 1_555 1_555

#END
