
#######################################################################
#
#                 Cambridge Crystallographic Data Centre
#                                CCDC 
#
#######################################################################
#
# If this CIF has been generated from an entry in the Cambridge 
# Structural Database, then it will include bibliographic, chemical, 
# crystal, experimental, refinement or atomic coordinate data resulting 
# from the CCDC's data processing and validation procedures.
#
#######################################################################

data_SOLCAZ
_symmetry_cell_setting           monoclinic
_symmetry_space_group_name_H-M   'C 2/c'
_symmetry_Int_Tables_number      15
_space_group_name_Hall           '-C 2yn'
loop_
_symmetry_equiv_pos_site_id
_symmetry_equiv_pos_as_xyz
1 x,y,z
2 -x,y,1/2-z
3 1/2+x,1/2+y,z
4 1/2-x,1/2+y,1/2-z
5 -x,-y,-z
6 x,-y,1/2+z
7 1/2-x,1/2-y,-z
8 1/2+x,1/2-y,1/2+z
_cell_length_a                   32.486(5)
_cell_length_b                   14.351(5)
_cell_length_c                   18.557(5)
_cell_angle_alpha                90
_cell_angle_beta                 114.461(5)
_cell_angle_gamma                90
_cell_volume                     7874.88
loop_
_atom_site_label
_atom_site_type_symbol
_atom_site_fract_x
_atom_site_fract_y
_atom_site_fract_z
Pb1 Pb -0.085980(12) -0.00146(3) 0.54916(2)
F1 F -0.1529(6) 0.4767(8) 0.4401(8)
F2 F -0.0935(6) 0.5637(9) 0.4785(6)
F3 F -0.1454(4) 0.5857(7) 0.5196(6)
F4 F -0.1542(4) 0.5216(9) 0.6877(11)
F5 F -0.1491(5) 0.6287(9) 0.7718(12)
F6 F -0.0999(5) 0.5172(8) 0.8074(7)
O1 O -0.0538(2) 0.9020(5) 0.7955(4)
O2 O -0.0452(2) 0.9338(5) 0.6844(4)
O3 O -0.0568(3) 0.1391(6) 0.6470(4)
O4 O -0.0891(2) 0.1732(5) 0.5198(4)
O5 O -0.0127(2) 0.0148(5) 0.5634(4)
O6 O -0.1463(4) 0.0308(8) 0.6177(6)
C1 C -0.0540(4) 0.8764(8) 0.7298(6)
C2 C -0.0744(3) 0.1960(7) 0.5910(6)
C3 C -0.0773(4) 0.2957(8) 0.6122(6)
C4 C -0.0976(5) 0.3593(9) 0.5524(8)
H1 H -0.1096 0.3392 0.5001
C5 C -0.1004(5) 0.4524(9) 0.5687(7)
C6 C -0.0787(4) 0.4845(9) 0.6483(7)
C7 C -0.0586(4) 0.4204(8) 0.7078(7)
H2 H -0.0457 0.4396 0.7604
C8 C -0.0575(4) 0.3274(7) 0.6894(6)
H3 H -0.0430 0.2850 0.7300
C9 C -0.0753(4) 0.5864(9) 0.6689(7)
C10 C -0.0485(4) 0.6436(8) 0.6429(7)
H4 H -0.0337 0.6166 0.6146
C11 C -0.0437(4) 0.7372(9) 0.6582(6)
H5 H -0.0273 0.7734 0.6376
C12 C -0.0635(3) 0.7792(8) 0.7053(6)
C13 C -0.0873(4) 0.7234(9) 0.7349(8)
H6 H -0.0988 0.7497 0.7686
C14 C -0.0950(4) 0.6287(10) 0.7162(8)
C15 C -0.1234(8) 0.5753(14) 0.7477(17)
C16 C -0.1255(8) 0.5186(11) 0.5023(11)
C17 C -0.1828 0.1069 0.5740
H7 H -0.1881 0.1466 0.6116
H8 H -0.1736 0.1453 0.5403
C18 C -0.2262 0.0491 0.5235
H9 H -0.2528 0.0887 0.5047
H10 H -0.2306 -0.0009 0.5549
C19 C -0.218(2) 0.008(4) 0.451(3)
H11 H -0.2427 -0.0308 0.4192
H12 H -0.1904 -0.0280 0.4706
H13 H -0.2149 0.0585 0.4192
H14 H -0.1345 0.0589 0.6820
Pb2 Pb 0.017724(12) -0.11797(3) 0.53585(2)
Pb3 Pb -0.466233(12) -0.56762(3) 0.18871(2)
F7 F -0.2120(3) -0.2086(10) 0.4731(6)
F8 F -0.2678(3) -0.2267(8) 0.3578(7)
F9 F -0.2369(3) -0.3434(8) 0.4331(5)
F10 F -0.2659(3) -0.1710(6) 0.2075(7)
F11 F -0.3193(3) -0.2096(9) 0.1014(8)
F12 F -0.2512(4) -0.2437(9) 0.1261(7)
O7 O -0.0443(2) -0.1994(5) 0.3977(4)
O8 O -0.0641(2) -0.1628(5) 0.4959(4)
O9 O -0.3860(2) -0.5535(5) 0.2164(4)
O10 O -0.4083(2) -0.4830(5) 0.0989(4)
C20 C -0.0734(3) -0.1962(7) 0.4273(5)
C21 C -0.1189(3) -0.2375(7) 0.3817(6)
C22 C -0.1302(3) -0.2814(8) 0.3099(6)
H15 H -0.1092 -0.2842 0.2880
C23 C -0.1724(4) -0.3214(8) 0.2699(6)
H16 H -0.1788 -0.3529 0.2227
C24 C -0.2056(3) -0.3147(8) 0.3000(6)
C25 C -0.1947(4) -0.2694(8) 0.3717(6)
C26 C -0.1514(4) -0.2308(8) 0.4115(7)
H17 H -0.1444 -0.1999 0.4591
C27 C -0.2268(4) -0.2612(12) 0.4089(9)
C28 C -0.2496(3) -0.3646(8) 0.2579(6)
C29 C -0.2552(3) -0.4523(8) 0.2855(6)
H18 H -0.2307 -0.4815 0.3252
C30 C -0.2971(4) -0.4960(8) 0.2542(6)
H19 H -0.3006 -0.5534 0.2742
C31 C -0.3324(3) -0.4563(7) 0.1956(6)
C32 C -0.2863(4) -0.3273(10) 0.1935(6)
C33 C -0.3789(3) -0.5021(8) 0.1674(6)
C34 C -0.3274(4) -0.3741(8) 0.1634(7)
H20 H -0.3518 -0.3491 0.1207
C35 C -0.2821(5) -0.2395(12) 0.1570(11)
Pb1_2 Pb -0.085980(12) 0.99854(3) 0.54916(2)
Pb1C Pb -0.414020(12) -0.50146(3) -0.04916(2)
O1A O 0.0538(2) -0.0980(5) 0.7045(4)
O1F O -0.4462(2) -0.4020(5) 0.2045(4)
O2_2 O -0.0452(2) -0.0662(5) 0.6844(4)
O3G O -0.5568(3) -0.6391(6) 0.1470(4)
O5D O 0.0127(2) -0.0148(5) 0.4366(4)
O5G O -0.5127(2) -0.5148(5) 0.0634(4)
Pb2A Pb -0.017724(12) 0.88203(3) 0.96415(2)
Pb2D Pb -0.017724(12) 0.11797(3) 0.46415(2)
Pb2G Pb -0.482276(12) -0.38203(3) 0.03585(2)
Pb3C Pb -0.033767(12) -0.06762(3) 0.31129(2)
Pb3F Pb -0.033767(12) 1.06762(3) 0.81129(2)
Pb3G Pb 0.033767(12) 0.06762(3) 0.68871(2)
O7C O -0.4557(2) -0.6994(5) 0.1023(4)
O10C O -0.0917(2) 0.0170(5) 0.4011(4)
O10G O 0.0917(2) -0.0170(5) 0.5989(4)
loop_
_geom_bond_atom_site_label_1
_geom_bond_atom_site_label_2
_geom_bond_site_symmetry_1
_geom_bond_site_symmetry_2
Pb1 O3 1_555 1_555
F1 C16 1_555 1_555
F2 C16 1_555 1_555
F3 C16 1_555 1_555
F4 C15 1_555 1_555
F5 C15 1_555 1_555
F6 C15 1_555 1_555
O1 C1 1_555 1_555
O2 C1 1_555 1_555
O3 C2 1_555 1_555
O4 Pb1 1_555 1_555
O5 Pb1 1_555 1_555
O6 Pb1 1_555 1_555
C1 C12 1_555 1_555
C2 O4 1_555 1_555
C3 C2 1_555 1_555
C4 C3 1_555 1_555
H1 C4 1_555 1_555
C5 C4 1_555 1_555
C6 C5 1_555 1_555
C7 C6 1_555 1_555
H2 C7 1_555 1_555
C8 C3 1_555 1_555
H3 C8 1_555 1_555
C9 C6 1_555 1_555
C10 C9 1_555 1_555
H4 C10 1_555 1_555
C11 C10 1_555 1_555
H5 C11 1_555 1_555
C12 C11 1_555 1_555
C13 C12 1_555 1_555
H6 C13 1_555 1_555
C14 C9 1_555 1_555
C15 C14 1_555 1_555
C16 C5 1_555 1_555
C17 O6 1_555 1_555
H7 C17 1_555 1_555
H8 C17 1_555 1_555
C18 C17 1_555 1_555
H9 C18 1_555 1_555
H10 C18 1_555 1_555
C19 C18 1_555 1_555
H11 C19 1_555 1_555
H12 C19 1_555 1_555
H13 C19 1_555 1_555
H14 O6 1_555 1_555
Pb2 O5 1_555 1_555
Pb3 O9 1_555 1_555
F7 C27 1_555 1_555
F8 C27 1_555 1_555
F9 C27 1_555 1_555
F10 C35 1_555 1_555
F11 C35 1_555 1_555
F12 C35 1_555 1_555
O7 Pb2 1_555 1_555
O8 Pb1 1_555 1_555
O9 C33 1_555 1_555
O10 C33 1_555 1_555
C20 O7 1_555 1_555
C21 C20 1_555 1_555
C22 C21 1_555 1_555
H15 C22 1_555 1_555
C23 C22 1_555 1_555
H16 C23 1_555 1_555
C24 C23 1_555 1_555
C25 C24 1_555 1_555
C26 C21 1_555 1_555
H17 C26 1_555 1_555
C27 C25 1_555 1_555
C28 C24 1_555 1_555
C29 C28 1_555 1_555
H18 C29 1_555 1_555
C30 C29 1_555 1_555
H19 C30 1_555 1_555
C31 C30 1_555 1_555
C32 C28 1_555 1_555
C33 C31 1_555 1_555
C34 C31 1_555 1_555
H20 C34 1_555 1_555
C35 C32 1_555 1_555
Pb1_2 O2 1_555 1_555
Pb1C O10 1_555 1_555
O1A Pb2 1_555 1_555
O1F Pb3 1_555 1_555
O2_2 Pb1 1_555 1_555
O3G Pb3 1_555 1_555
O5D Pb2 1_555 1_555
O5G Pb3 1_555 1_555
Pb2A O1 1_555 1_555
Pb2D O5 1_555 1_555
Pb2G O10 1_555 1_555
Pb3C O7 1_555 1_555
Pb3F O1 1_555 1_555
Pb3G O3 1_555 1_555
O7C Pb3 1_555 1_555
O10C Pb1 1_555 1_555
O10G Pb2 1_555 1_555
O5 Pb3G 1_555 1_555
C7 C8 1_555 1_555
C13 C14 1_555 1_555
Pb2 O8 1_555 1_555
O8 C20 1_555 1_555
C25 C26 1_555 1_555
C32 C34 1_555 1_555
O1A Pb3G 1_555 1_555
O1F Pb2G 1_555 1_555
O5D Pb2D 1_555 1_555
O5D Pb3C 1_555 1_555
O5G Pb2G 1_555 1_555
Pb2D O10C 1_555 1_555

#END
