
#######################################################################
#
#                 Cambridge Crystallographic Data Centre
#                                CCDC 
#
#######################################################################
#
# If this CIF has been generated from an entry in the Cambridge 
# Structural Database, then it will include bibliographic, chemical, 
# crystal, experimental, refinement or atomic coordinate data resulting 
# from the CCDC's data processing and validation procedures.
#
#######################################################################

data_SOLCUS
_symmetry_cell_setting           monoclinic
_symmetry_space_group_name_H-M   'P 21/c'
_symmetry_Int_Tables_number      14
_space_group_name_Hall           '-P 2ybc'
loop_
_symmetry_equiv_pos_site_id
_symmetry_equiv_pos_as_xyz
1 x,y,z
2 -x,1/2+y,1/2-z
3 -x,-y,-z
4 x,1/2-y,1/2+z
_cell_length_a                   9.7930(5)
_cell_length_b                   14.4770(7)
_cell_length_c                   7.6369(4)
_cell_angle_alpha                90
_cell_angle_beta                 106.032(3)
_cell_angle_gamma                90
_cell_volume                     1040.6
loop_
_atom_site_label
_atom_site_type_symbol
_atom_site_fract_x
_atom_site_fract_y
_atom_site_fract_z
Cu1 Cu 0.10651(2) -0.013673(16) -0.13625(3)
O1 O 0.02932(14) 0.09626(9) -0.04721(18)
H1 H -0.0261 0.1319 -0.1089
H2 H 0.1000 0.1277 0.0167
O2 O 0.17383(14) -0.13057(9) -0.19205(18)
O3 O 0.13844(15) -0.27505(9) -0.28097(19)
O4 O -0.06496(14) -0.01576(9) -0.33656(18)
O5 O -0.21097(14) -0.06608(10) -0.59332(19)
N1 N 0.47787(17) 0.21102(12) 0.3963(2)
N2 N 0.27088(17) 0.15864(11) 0.1658(2)
N3 N 0.50885(17) -0.02778(11) 0.2331(2)
H3 H 0.5876 -0.0561 0.2722
N4 N 0.29087(16) 0.00174(11) 0.0581(2)
N5 N 0.67559(17) 0.11897(12) 0.5106(2)
H4 H 0.7134 0.1612 0.5808
H5 H 0.7199 0.0716 0.5106
C1 C 0.3468(2) 0.21988(14) 0.2839(3)
H6 H 0.3005 0.2805 0.2876
C2 C 0.34124(19) 0.07838(13) 0.1642(3)
C3 C 0.47682(19) 0.06137(13) 0.2735(2)
C4 C 0.5476(2) 0.13039(14) 0.3960(3)
C5 C 0.39548(19) -0.06040(14) 0.1057(2)
H7 H 0.3945 -0.1186 0.0575
C6 C 0.10256(19) -0.19209(13) -0.2958(3)
C7 C -0.0268(2) -0.16777(14) -0.4511(3)
H8 H -0.0953 -0.2173 -0.4674
H9 H 0.0043 -0.1685 -0.5594
C8 C -0.10504(19) -0.07744(13) -0.4588(3)
Cu1B Cu -0.10651(2) 0.013673(16) 0.13625(3)
Cu1B_2 Cu -0.10651(2) 0.013673(16) -0.86375(3)
O1B O -0.02932(14) -0.09626(9) 0.04721(18)
H1B H 0.0261 -0.1319 0.1089
H2B H -0.1000 -0.1277 -0.0167
O5B O 0.21097(14) 0.06608(10) -0.40668(19)
loop_
_geom_bond_atom_site_label_1
_geom_bond_atom_site_label_2
_geom_bond_site_symmetry_1
_geom_bond_site_symmetry_2
Cu1 O1 1_555 1_555
O1 H1 1_555 1_555
H2 O1 1_555 1_555
O2 Cu1 1_555 1_555
O3 C6 1_555 1_555
O4 Cu1 1_555 1_555
O5 C8 1_555 1_555
N1 C1 1_555 1_555
N2 C1 1_555 1_555
N3 H3 1_555 1_555
N4 Cu1 1_555 1_555
N5 H4 1_555 1_555
H5 N5 1_555 1_555
C1 H6 1_555 1_555
C2 N2 1_555 1_555
C3 N3 1_555 1_555
C4 N1 1_555 1_555
C5 N3 1_555 1_555
H7 C5 1_555 1_555
C6 O2 1_555 1_555
C7 C6 1_555 1_555
H8 C7 1_555 1_555
H9 C7 1_555 1_555
C8 O4 1_555 1_555
Cu1B O1 1_555 1_555
Cu1B_2 O5 1_555 1_555
O1B Cu1 1_555 1_555
H1B O1B 1_555 1_555
H2B O1B 1_555 1_555
O5B Cu1 1_555 1_555
N4 C2 1_555 1_555
N4 C5 1_555 1_555
N5 C4 1_555 1_555
C2 C3 1_555 1_555
C3 C4 1_555 1_555
C7 C8 1_555 1_555
Cu1B O1B 1_555 1_555

#END
