
#######################################################################
#
#                 Cambridge Crystallographic Data Centre
#                                CCDC 
#
#######################################################################
#
# If this CIF has been generated from an entry in the Cambridge 
# Structural Database, then it will include bibliographic, chemical, 
# crystal, experimental, refinement or atomic coordinate data resulting 
# from the CCDC's data processing and validation procedures.
#
#######################################################################

data_SOLJOU
_symmetry_cell_setting           monoclinic
_symmetry_space_group_name_H-M   'C 2/c'
_symmetry_Int_Tables_number      15
_space_group_name_Hall           '-C 2yn'
loop_
_symmetry_equiv_pos_site_id
_symmetry_equiv_pos_as_xyz
1 x,y,z
2 -x,y,1/2-z
3 1/2+x,1/2+y,z
4 1/2-x,1/2+y,1/2-z
5 -x,-y,-z
6 x,-y,1/2+z
7 1/2-x,1/2-y,-z
8 1/2+x,1/2-y,1/2+z
_cell_length_a                   46.715(6)
_cell_length_b                   9.674(5)
_cell_length_c                   32.798(4)
_cell_angle_alpha                90
_cell_angle_beta                 100.790(5)
_cell_angle_gamma                90
_cell_volume                     14560
loop_
_atom_site_label
_atom_site_type_symbol
_atom_site_fract_x
_atom_site_fract_y
_atom_site_fract_z
Cd1 Cd 0.242018(10) -0.17821(5) -0.134890(12)
Cd2 Cd 0.601321(11) 0.53899(5) 0.042694(15)
O1 O 0.28509(9) -0.0409(4) -0.10692(11)
O2 O 0.23921(11) -0.0343(5) -0.19979(12)
O3 O 0.24393(10) -0.7285(5) -0.57063(12)
O4 O 0.29002(10) -0.2358(5) -0.13859(13)
O5 O 0.58754(11) 0.6882(5) 0.09443(14)
O6 O 0.22410(10) -0.2501(5) -0.20008(12)
N1 N 0.21060(10) -0.1727(5) -0.39412(13)
N2 N 0.21145(10) -0.2515(5) -0.45547(13)
O7 O 0.62575(10) 0.5529(5) 0.10994(13)
O8 O 0.64159(10) 0.4145(5) 0.02955(14)
C1 C 0.21931(13) -0.3356(6) -0.48822(16)
C2 C 0.18820(13) -0.1565(6) -0.45977(17)
H1 H 0.1756 -0.1316 -0.4841
C3 C 0.21579(13) -0.1628(6) -0.34972(17)
N3 N 0.42296(13) -0.0581(6) -0.0926(2)
N4 N 0.46619(13) 0.0263(7) -0.0704(2)
C4 C 0.22438(14) -0.2582(6) -0.41557(16)
H2 H 0.2403 -0.3134 -0.4047
N5 N 0.63564(13) 0.9899(7) 0.33808(16)
C5 C 0.30072(15) -0.1325(7) -0.11958(18)
C6 C 0.33283(13) -0.1166(7) -0.1108(2)
C7 C 0.18805(14) -0.1103(6) -0.42198(18)
H3 H 0.1750 -0.0461 -0.4150
C8 C 0.23165(13) -0.5107(6) -0.54915(17)
C9 C 0.21128(13) -0.2934(6) -0.52965(16)
H4 H 0.2020 -0.2093 -0.5367
N6 N 0.66186(14) 0.2357(7) 0.0020(2)
C10 C 0.55588(17) 0.3657(9) 0.0132(3)
C11 C 0.22975(15) -0.1410(8) -0.21838(19)
C12 C 0.22483(13) -0.1491(7) -0.26460(18)
C13 C 0.21611(13) -0.0345(7) -0.33126(19)
H5 H 0.2131 0.0460 -0.3470
C14 C 0.60979(16) 0.6448(7) 0.1195(2)
O9 O 0.55232(14) 0.4859(7) 0.0180(3)
C15 C 0.23386(13) -0.4585(6) -0.47685(18)
H6 H 0.2394 -0.4831 -0.4491
C16 C 0.22489(14) -0.2746(6) -0.28356(17)
H7 H 0.2279 -0.3546 -0.2676
N7 N 0.63797(13) 0.8842(7) 0.28134(17)
C17 C 0.22046(14) -0.2835(7) -0.32666(18)
H8 H 0.2206 -0.3687 -0.3397
C18 C 0.62002(17) 0.9473(8) 0.3024(2)
H9 H 0.6001 0.9594 0.2935
C19 C 0.63021(17) 0.8238(8) 0.2401(2)
C20 C 0.22117(14) -0.0309(7) -0.28833(18)
H10 H 0.2221 0.0543 -0.2750
C21 C 0.34544(15) 0.0054(7) -0.0927(2)
H11 H 0.3337 0.0749 -0.0851
C22 C 0.23990(13) -0.5436(6) -0.50807(17)
H12 H 0.2499 -0.6258 -0.5009
C23 C 0.21776(13) -0.3820(7) -0.55935(17)
H13 H 0.2129 -0.3565 -0.5871
C24 C 0.64080(16) 0.2953(7) 0.0166(2)
H14 H 0.6241 0.2438 0.0172
C25 C 0.37468(16) 0.0218(6) -0.0861(2)
H15 H 0.3829 0.1023 -0.0735
C26 C 0.43822(15) 0.0292(7) -0.0645(2)
H16 H 0.4310 0.0814 -0.0449
C27 C 0.23524(14) -0.6092(7) -0.58154(18)
C28 C 0.46847(18) -0.0649(10) -0.1024(3)
H17 H 0.4854 -0.0855 -0.1121
C29 C 0.35085(14) -0.2155(6) -0.1224(2)
H18 H 0.3426 -0.2953 -0.1355
C30 C 0.53307(15) 0.2721(8) -0.0060(2)
C31 C 0.38035(16) -0.2008(7) -0.1154(2)
H19 H 0.3922 -0.2708 -0.1224
C32 C 0.39235(14) -0.0786(7) -0.0976(2)
C33 C 0.48965(16) 0.1075(8) -0.0473(2)
C34 C 0.60514(18) 0.8661(9) 0.2133(2)
H20 H 0.5931 0.9339 0.2211
C35 C 0.64776(17) 0.7243(10) 0.2292(2)
H21 H 0.6645 0.6975 0.2476
C36 C 0.65754(19) 0.0913(9) -0.0128(3)
H22 H 0.6742 0.0616 -0.0236
H23 H 0.6405 0.0860 -0.0342
H24 H 0.6551 0.0326 0.0099
C37 C 0.66651(17) 0.8883(9) 0.3052(2)
H25 H 0.6833 0.8516 0.2981
C38 C 0.61651(16) 0.7044(8) 0.1625(2)
C39 C 0.6895(2) 0.2990(10) 0.0027(4)
H26 H 0.7012 0.2407 -0.0114
H27 H 0.6992 0.3116 0.0310
H28 H 0.6868 0.3871 -0.0109
C40 C 0.66426(17) 0.9557(9) 0.3399(2)
H29 H 0.6795 0.9760 0.3616
C41 C 0.51736(17) 0.0642(10) -0.0431(3)
H30 H 0.5216 -0.0209 -0.0538
C42 C 0.59880(18) 0.8052(8) 0.1754(2)
H31 H 0.5819 0.8319 0.1572
C43 C 0.53951(18) 0.1487(9) -0.0226(3)
H32 H 0.5588 0.1212 -0.0202
C44 C 0.48196(18) 0.2263(10) -0.0296(3)
H33 H 0.4626 0.2517 -0.0315
C45 C 0.64066(18) 0.6627(9) 0.1903(2)
H34 H 0.6524 0.5926 0.1831
C46 C 0.44172(19) -0.1188(10) -0.1170(3)
H35 H 0.4367 -0.1821 -0.1385
C47 C 0.50505(19) 0.3093(10) -0.0081(3)
H36 H 0.5008 0.3904 0.0048
O10 O 0.22893(9) -0.5755(4) -0.61918(12)
O11 O 0.57973(14) 0.3195(6) 0.0299(2)
C48 C 0.62477(16) 1.0554(8) 0.3719(2)
C49 C 0.64055(16) 1.1592(9) 0.3927(2)
H37 H 0.6570 1.1920 0.3837
C50 C 0.59972(16) 1.0083(8) 0.3841(2)
H38 H 0.5887 0.9387 0.3691
C51 C 0.59093(16) 1.0649(8) 0.4187(2)
H39 H 0.5741 1.0332 0.4271
C52 C 0.60732(14) 1.1680(7) 0.44051(18)
C53 C 0.59879(17) 1.2232(7) 0.48014(19)
C54 C 0.63216(17) 1.2164(8) 0.4272(2)
H40 H 0.6431 1.2874 0.4416
O12 O 0.61459(11) 1.3238(5) 0.49625(13)
O13 O 0.57841(11) 1.1735(6) 0.49269(14)
O14 O 0.18972(15) -0.1266(10) -0.1259(2)
O15 O 0.22045(13) 0.0264(6) -0.11242(15)
N8 N 0.1939(4) 0.0068(13) -0.1103(3)
O16 O 0.1755(3) 0.030(2) -0.0811(7)
Cd1E Cd 0.242018(10) -0.82179(5) -0.634890(12)
Cd2E Cd 0.601321(11) 1.46101(5) 0.542694(15)
O3E O 0.24393(10) -0.2715(5) -0.07063(12)
O10E O 0.22893(9) -0.4245(4) -0.11918(12)
O12E O 0.61459(11) 0.6762(5) -0.00375(13)
loop_
_geom_bond_atom_site_label_1
_geom_bond_atom_site_label_2
_geom_bond_site_symmetry_1
_geom_bond_site_symmetry_2
Cd1 O1 1_555 1_555
Cd2 O5 1_555 1_555
O1 C5 1_555 1_555
O2 Cd1 1_555 1_555
O3 C27 1_555 1_555
O4 Cd1 1_555 1_555
O5 C14 1_555 1_555
O6 Cd1 1_555 1_555
N1 C3 1_555 1_555
N2 C1 1_555 1_555
O7 Cd2 1_555 1_555
O8 Cd2 1_555 1_555
C1 C9 1_555 1_555
C2 N2 1_555 1_555
H1 C2 1_555 1_555
C3 C13 1_555 1_555
N3 C26 1_555 1_555
N4 C26 1_555 1_555
C4 N1 1_555 1_555
H2 C4 1_555 1_555
N5 C18 1_555 1_555
C5 O4 1_555 1_555
C6 C5 1_555 1_555
C7 N1 1_555 1_555
H3 C7 1_555 1_555
C8 C22 1_555 1_555
C9 H4 1_555 1_555
N6 C24 1_555 1_555
C10 O9 1_555 1_555
C11 O2 1_555 1_555
C12 C11 1_555 1_555
C13 H5 1_555 1_555
C14 O7 1_555 1_555
O9 Cd2 1_555 1_555
C15 C1 1_555 1_555
H6 C15 1_555 1_555
C16 C12 1_555 1_555
H7 C16 1_555 1_555
N7 C18 1_555 1_555
C17 C3 1_555 1_555
H8 C17 1_555 1_555
C18 H9 1_555 1_555
C19 N7 1_555 1_555
C20 C12 1_555 1_555
H10 C20 1_555 1_555
C21 C6 1_555 1_555
H11 C21 1_555 1_555
C22 C15 1_555 1_555
H12 C22 1_555 1_555
C23 C8 1_555 1_555
H13 C23 1_555 1_555
C24 O8 1_555 1_555
H14 C24 1_555 1_555
C25 C21 1_555 1_555
H15 C25 1_555 1_555
C26 H16 1_555 1_555
C27 C8 1_555 1_555
C28 N4 1_555 1_555
H17 C28 1_555 1_555
C29 C6 1_555 1_555
H18 C29 1_555 1_555
C30 C10 1_555 1_555
C31 C29 1_555 1_555
H19 C31 1_555 1_555
C32 N3 1_555 1_555
C33 N4 1_555 1_555
C34 C19 1_555 1_555
H20 C34 1_555 1_555
C35 C19 1_555 1_555
H21 C35 1_555 1_555
C36 N6 1_555 1_555
H22 C36 1_555 1_555
H23 C36 1_555 1_555
H24 C36 1_555 1_555
C37 N7 1_555 1_555
H25 C37 1_555 1_555
C38 C14 1_555 1_555
C39 N6 1_555 1_555
H26 C39 1_555 1_555
H27 C39 1_555 1_555
H28 C39 1_555 1_555
C40 N5 1_555 1_555
H29 C40 1_555 1_555
C41 C33 1_555 1_555
H30 C41 1_555 1_555
C42 C34 1_555 1_555
H31 C42 1_555 1_555
C43 C30 1_555 1_555
H32 C43 1_555 1_555
C44 C33 1_555 1_555
H33 C44 1_555 1_555
C45 C35 1_555 1_555
H34 C45 1_555 1_555
C46 N3 1_555 1_555
H35 C46 1_555 1_555
C47 C30 1_555 1_555
H36 C47 1_555 1_555
O10 C27 1_555 1_555
O11 Cd2 1_555 1_555
C48 N5 1_555 1_555
C49 C48 1_555 1_555
H37 C49 1_555 1_555
C50 C48 1_555 1_555
H38 C50 1_555 1_555
C51 C50 1_555 1_555
H39 C51 1_555 1_555
C52 C51 1_555 1_555
C53 C52 1_555 1_555
C54 C49 1_555 1_555
H40 C54 1_555 1_555
O12 C53 1_555 1_555
O13 C53 1_555 1_555
O14 Cd1 1_555 1_555
O15 Cd1 1_555 1_555
N8 O14 1_555 1_555
O16 N8 1_555 1_555
Cd1E O3 1_555 1_555
Cd2E O12 1_555 1_555
O3E Cd1 1_555 1_555
O10E Cd1 1_555 1_555
O12E Cd2 1_555 1_555
O6 C11 1_555 1_555
N2 C4 1_555 1_555
C2 C7 1_555 1_555
C9 C23 1_555 1_555
C10 O11 1_555 1_555
C13 C20 1_555 1_555
C16 C17 1_555 1_555
C25 C32 1_555 1_555
C28 C46 1_555 1_555
C31 C32 1_555 1_555
C37 C40 1_555 1_555
C38 C42 1_555 1_555
C38 C45 1_555 1_555
C41 C43 1_555 1_555
C44 C47 1_555 1_555
O10 Cd1E 1_555 1_555
C52 C54 1_555 1_555
O15 N8 1_555 1_555

#END
