
#######################################################################
#
#                 Cambridge Crystallographic Data Centre
#                                CCDC 
#
#######################################################################
#
# If this CIF has been generated from an entry in the Cambridge 
# Structural Database, then it will include bibliographic, chemical, 
# crystal, experimental, refinement or atomic coordinate data resulting 
# from the CCDC's data processing and validation procedures.
#
#######################################################################

data_SOLLIO
_symmetry_cell_setting           monoclinic
_symmetry_space_group_name_H-M   'P 21/n'
_symmetry_Int_Tables_number      14
_space_group_name_Hall           '-P 2yn'
loop_
_symmetry_equiv_pos_site_id
_symmetry_equiv_pos_as_xyz
1 x,y,z
2 1/2-x,1/2+y,1/2-z
3 -x,-y,-z
4 1/2+x,1/2-y,1/2+z
_cell_length_a                   11.592(2)
_cell_length_b                   10.327(2)
_cell_length_c                   10.758(8)
_cell_angle_alpha                90
_cell_angle_beta                 93.75(5)
_cell_angle_gamma                90
_cell_volume                     1285.09
loop_
_atom_site_label
_atom_site_type_symbol
_atom_site_fract_x
_atom_site_fract_y
_atom_site_fract_z
Cu1 Cu 0.3405(1) 0.1522(1) 0.0632(1)
S1 S 0.2193(4) -0.2804(3) -0.0250(3)
O1 O -0.0477(5) 0.4428(6) -0.3154(6)
O2 O -0.0140(6) 0.2378(7) -0.2712(7)
N1 N 0.2213(6) 0.1717(8) 0.1888(7)
N2 N 0.2659(6) 0.3186(7) -0.0125(6)
N3 N 0.4643(6) 0.1838(8) -0.0543(7)
N4 N 0.2649(8) -0.0175(9) -0.0308(9)
C1 C 0.1595(8) 0.2937(10) 0.1710(9)
C2 C 0.2268(8) 0.3860(9) 0.0971(8)
C3 C 0.3637(9) 0.3873(11) -0.0682(10)
C4 C 0.4323(9) 0.2939(11) -0.1369(9)
C5 C 0.1710(7) 0.2856(9) -0.1061(8)
C6 C 0.1031(9) 0.3978(11) -0.1603(10)
C7 C 0.0075(7) 0.3554(10) -0.2548(8)
C8 C 0.2437(8) -0.1259(9) -0.0271(9)
H3 H 0.159(8) 0.110(9) 0.192(8)
H4 H 0.263(8) 0.174(9) 0.257(9)
H5 H 0.491(8) 0.188(9) -0.012(8)
H6 H 0.479(8) 0.117(9) -0.119(8)
H7 H 0.088(8) 0.279(9) 0.127(8)
H8 H 0.136(7) 0.335(9) 0.239(8)
H9 H 0.292(8) 0.415(9) 0.156(8)
H10 H 0.198(8) 0.467(9) 0.071(8)
H11 H 0.345(8) 0.454(9) -0.102(9)
H12 H 0.407(7) 0.430(9) -0.011(8)
H13 H 0.393(8) 0.255(9) -0.202(8)
H14 H 0.501(7) 0.330(9) -0.163(8)
H15 H 0.128(7) 0.229(9) -0.071(8)
H16 H 0.212(8) 0.246(9) -0.175(8)
H17 H 0.067(8) 0.447(9) -0.118(8)
H18 H 0.153(8) 0.483(9) -0.185(8)
O1C O 0.4523(5) 0.0572(6) 0.1846(6)
O2C O 0.4860(6) 0.2622(7) 0.2288(7)
Cu1C Cu -0.1595(1) 0.3478(1) -0.4368(1)
O3 O 0.0188(7) -0.0028(8) 0.1488(8)
H1 H 0.003(8) -0.077(10) 0.199(9)
H2 H -0.007(8) -0.015(10) 0.094(9)
loop_
_geom_bond_atom_site_label_1
_geom_bond_atom_site_label_2
_geom_bond_site_symmetry_1
_geom_bond_site_symmetry_2
Cu1 N1 1_555 1_555
S1 C8 1_555 1_555
O1 C7 1_555 1_555
O2 C7 1_555 1_555
O3 H1 1_555 1_555
N1 C1 1_555 1_555
N2 Cu1 1_555 1_555
N3 Cu1 1_555 1_555
N4 Cu1 1_555 1_555
C1 C2 1_555 1_555
C2 N2 1_555 1_555
C3 N2 1_555 1_555
C4 N3 1_555 1_555
C5 N2 1_555 1_555
C6 C5 1_555 1_555
C7 C6 1_555 1_555
C8 N4 1_555 1_555
H2 O3 1_555 1_555
H3 N1 1_555 1_555
H4 N1 1_555 1_555
H5 N3 1_555 1_555
H6 N3 1_555 1_555
H7 C1 1_555 1_555
H8 C1 1_555 1_555
H9 C2 1_555 1_555
H10 C2 1_555 1_555
H11 C3 1_555 1_555
H12 C3 1_555 1_555
H13 C4 1_555 1_555
H14 C4 1_555 1_555
H15 C5 1_555 1_555
H16 C5 1_555 1_555
H17 C6 1_555 1_555
H18 C6 1_555 1_555
O1C Cu1 1_555 1_555
O2C Cu1 1_555 1_555
Cu1C O1 1_555 1_555
O2 Cu1C 1_555 1_555
C3 C4 1_555 1_555

#END
