
#######################################################################
#
#                 Cambridge Crystallographic Data Centre
#                                CCDC 
#
#######################################################################
#
# If this CIF has been generated from an entry in the Cambridge 
# Structural Database, then it will include bibliographic, chemical, 
# crystal, experimental, refinement or atomic coordinate data resulting 
# from the CCDC's data processing and validation procedures.
#
#######################################################################

data_SOLNUE
_symmetry_cell_setting           monoclinic
_symmetry_space_group_name_H-M   'P 21'
_symmetry_Int_Tables_number      4
_space_group_name_Hall           'P 2yb'
loop_
_symmetry_equiv_pos_site_id
_symmetry_equiv_pos_as_xyz
1 x,y,z
2 -x,1/2+y,-z
_cell_length_a                   8.4181(2)
_cell_length_b                   10.3794(2)
_cell_length_c                   13.6828(3)
_cell_angle_alpha                90
_cell_angle_beta                 103.6970(10)
_cell_angle_gamma                90
_cell_volume                     1161.53
loop_
_atom_site_label
_atom_site_type_symbol
_atom_site_fract_x
_atom_site_fract_y
_atom_site_fract_z
C1 C 0.1318(5) 0.5459(4) 0.0259(3)
C2 C 0.2364(5) 0.6646(4) 0.0620(3)
H1 H 0.3373 0.6606 0.0355
C3 C 0.2863(5) 0.6619(4) 0.1778(3)
H2 H 0.1859 0.6608 0.2036
H3 H 0.3465 0.5809 0.1995
C4 C 0.3900(4) 0.7725(5) 0.2244(3)
C5 C 0.4833(5) 0.8527(5) 0.1818(3)
H4 H 0.4903 0.8488 0.1135
C6 C 0.5281(5) 0.9156(5) 0.3425(3)
C7 C 0.5798(5) 0.9796(5) 0.4345(3)
H5 H 0.6563 1.0484 0.4429
C8 C 0.5143(6) 0.9379(5) 0.5125(3)
H6 H 0.5455 0.9799 0.5758
C9 C 0.4044(6) 0.8365(6) 0.5009(3)
H7 H 0.3627 0.8103 0.5565
C10 C 0.3542(5) 0.7727(5) 0.4102(3)
H8 H 0.2788 0.7032 0.4031
C11 C 0.4170(5) 0.8129(4) 0.3283(3)
C12 C -0.0615(5) 0.8640(5) 0.2056(3)
H9 H -0.0296 0.9364 0.1722
C13 C -0.0478(5) 0.8723(5) 0.3079(3)
H10 H -0.0042 0.9478 0.3437
C14 C -0.0983(5) 0.7697(5) 0.3583(3)
C15 C -0.1581(5) 0.6603(5) 0.3015(3)
H11 H -0.1938 0.5877 0.3327
C16 C -0.1649(5) 0.6590(5) 0.1998(3)
H12 H -0.2050 0.5839 0.1623
C17 C -0.0878(5) 0.7804(4) 0.4663(3)
H13 H -0.0166 0.8445 0.5021
C18 C -0.1686(5) 0.7089(5) 0.5188(3)
H14 H -0.2358 0.6419 0.4840
C19 C -0.1627(5) 0.7245(5) 0.6259(3)
C20 C -0.2236(5) 0.6290(5) 0.6772(3)
H15 H -0.2721 0.5544 0.6423
C21 C -0.2145(5) 0.6413(5) 0.7789(3)
H16 H -0.2566 0.5737 0.8122
C22 C -0.0910(6) 0.8389(5) 0.7826(3)
H17 H -0.0438 0.9127 0.8193
C23 C -0.0965(6) 0.8339(5) 0.6816(3)
H18 H -0.0560 0.9037 0.6497
N1 N 0.1437(4) 0.7823(3) 0.0230(2)
H19 H 0.1707 0.8076 -0.0354
H20 H 0.1724 0.8477 0.0692
N2 N 0.5654(4) 0.9394(4) 0.2512(3)
H21 H 0.6312 1.0003 0.2394
N3 N -0.1171(3) 0.7599(5) 0.1509(2)
N4 N -0.1487(3) 0.7448(5) 0.8327(2)
O1 O -0.0219(3) 0.5564(3) 0.0034(2)
O2 O 0.2081(3) 0.4414(3) 0.02517(19)
O3 O -0.3577(3) 0.6694(3) -0.0304(2)
H22 H -0.3927 0.6040 0.0018
H23 H -0.4583 0.6863 -0.0819
Zn1 Zn -0.11685(5) 0.75075(5) -0.00641(3)
N4_2 N -0.1487(3) 0.7448(5) -0.1673(2)
O2A O -0.2081(3) 0.9414(3) -0.02517(19)
Zn1_2 Zn -0.11685(5) 0.75075(5) 0.99359(3)
Zn1A Zn 0.11685(5) 0.25075(5) 0.00641(3)
N5 N 0.7181(4) 0.2449(5) 0.2409(2)
O4 O 0.6973(5) 0.3648(4) 0.2435(3)
O5 O 0.7722(4) 0.1840(4) 0.3193(2)
O6 O 0.6830(4) 0.1873(4) 0.1580(2)
O7 O 0.5474(4) 0.4543(3) 0.0528(2)
H24 H 0.5956 0.4484 0.1182
H25 H 0.4445 0.4416 0.0439
loop_
_geom_bond_atom_site_label_1
_geom_bond_atom_site_label_2
_geom_bond_site_symmetry_1
_geom_bond_site_symmetry_2
C1 C2 1_555 1_555
C2 H1 1_555 1_555
C3 C2 1_555 1_555
H2 C3 1_555 1_555
H3 C3 1_555 1_555
C4 C3 1_555 1_555
C5 C4 1_555 1_555
H4 C5 1_555 1_555
C6 C7 1_555 1_555
C7 H5 1_555 1_555
C8 C7 1_555 1_555
H6 C8 1_555 1_555
C9 C8 1_555 1_555
H7 C9 1_555 1_555
C10 C9 1_555 1_555
H8 C10 1_555 1_555
C11 C4 1_555 1_555
C12 H9 1_555 1_555
C13 C12 1_555 1_555
H10 C13 1_555 1_555
C14 C13 1_555 1_555
C15 C14 1_555 1_555
H11 C15 1_555 1_555
C16 C15 1_555 1_555
H12 C16 1_555 1_555
C17 C14 1_555 1_555
H13 C17 1_555 1_555
C18 C17 1_555 1_555
H14 C18 1_555 1_555
C19 C18 1_555 1_555
C20 C19 1_555 1_555
H15 C20 1_555 1_555
C21 C20 1_555 1_555
H16 C21 1_555 1_555
C22 H17 1_555 1_555
C23 C19 1_555 1_555
H18 C23 1_555 1_555
N1 C2 1_555 1_555
H19 N1 1_555 1_555
H20 N1 1_555 1_555
N2 C5 1_555 1_555
H21 N2 1_555 1_555
N3 C12 1_555 1_555
N4 C21 1_555 1_555
O1 C1 1_555 1_555
O2 C1 1_555 1_555
O3 H22 1_555 1_555
H23 O3 1_555 1_555
Zn1 N1 1_555 1_555
N5 O4 1_555 1_555
O5 N5 1_555 1_555
O6 N5 1_555 1_555
O7 H24 1_555 1_555
H25 O7 1_555 1_555
N4_2 Zn1 1_555 1_555
O2A Zn1 1_555 1_555
Zn1_2 N4 1_555 1_555
Zn1A O2 1_555 1_555
C6 C11 1_555 1_555
C6 N2 1_555 1_555
C10 C11 1_555 1_555
C16 N3 1_555 1_555
C22 C23 1_555 1_555
C22 N4 1_555 1_555
N3 Zn1 1_555 1_555
O1 Zn1 1_555 1_555
O3 Zn1 1_555 1_555

#END
