
#######################################################################
#
#                 Cambridge Crystallographic Data Centre
#                                CCDC 
#
#######################################################################
#
# If this CIF has been generated from an entry in the Cambridge 
# Structural Database, then it will include bibliographic, chemical, 
# crystal, experimental, refinement or atomic coordinate data resulting 
# from the CCDC's data processing and validation procedures.
#
#######################################################################

data_SOLPEQ
_symmetry_cell_setting           monoclinic
_symmetry_space_group_name_H-M   'P 21'
_symmetry_Int_Tables_number      4
_space_group_name_Hall           'P 2yb'
loop_
_symmetry_equiv_pos_site_id
_symmetry_equiv_pos_as_xyz
1 x,y,z
2 -x,1/2+y,-z
_cell_length_a                   8.4484(6)
_cell_length_b                   10.3292(7)
_cell_length_c                   13.6867(9)
_cell_angle_alpha                90
_cell_angle_beta                 104.576(4)
_cell_angle_gamma                90
_cell_volume                     1155.93
loop_
_atom_site_label
_atom_site_type_symbol
_atom_site_fract_x
_atom_site_fract_y
_atom_site_fract_z
Co1 Co 0.88099(7) 0.10755(6) 0.99457(4)
C1 C 0.9463(6) 0.2258(5) 1.2053(4)
H1 H 0.9774 0.2957 1.1716
C2 C 0.9577(6) 0.2377(5) 1.3068(4)
H2 H 0.9954 0.3147 1.3398
C3 C 0.9133(6) 0.1354(5) 1.3605(4)
C4 C 0.8563(6) 0.0223(5) 1.3059(4)
H3 H 0.8239 -0.0487 1.3379
C5 C 0.8491(6) 0.0181(5) 1.2037(4)
H4 H 0.8124 -0.0578 1.1687
C6 C 0.9307(6) 0.1502(5) 1.4723(4)
H5 H 0.9049 0.2390 1.4855
H6 H 1.0441 0.1352 1.5072
C7 C 0.8247(6) 0.0612(5) 1.5173(4)
H7 H 0.7118 0.0726 1.4797
H8 H 0.8549 -0.0275 1.5076
C8 C 0.8345(6) 0.0807(4) 1.6273(3)
C9 C 0.8996(6) 0.1908(5) 1.6818(4)
H9 H 0.9377 0.2595 1.6500
C10 C 0.9065(6) 0.1963(5) 1.7837(4)
H10 H 0.9536 0.2692 1.8194
C11 C 0.7833(6) -0.0005(5) 1.7811(4)
H11 H 0.7420 -0.0663 1.8140
C12 C 0.7737(6) -0.0140(5) 1.6791(4)
H12 H 0.7257 -0.0877 1.6451
C13 C 1.1296(6) -0.0944(4) 1.0254(3)
C14 C 1.2349(6) 0.0241(5) 1.0599(3)
H13 H 1.3320 0.0202 1.0330
C15 C 1.2885(6) 0.0204(5) 1.1764(3)
H14 H 1.1914 0.0185 1.2020
H15 H 1.3483 -0.0593 1.1971
C16 C 1.3937(5) 0.1327(5) 1.2241(4)
C17 C 1.4883(6) 0.2115(5) 1.1818(4)
H16 H 1.4958 0.2062 1.1153
C18 C 1.5319(6) 0.2776(5) 1.3418(4)
C19 C 1.5824(6) 0.3424(5) 1.4341(4)
H17 H 1.6564 0.4106 1.4426
C20 C 1.5180(6) 0.3013(5) 1.5124(4)
H18 H 1.5497 0.3426 1.5746
C21 C 1.4053(6) 0.1979(5) 1.4997(4)
H19 H 1.3633 0.1724 1.5533
C22 C 1.3569(6) 0.1343(5) 1.4084(3)
H20 H 1.2829 0.0661 1.4004
C23 C 1.4201(6) 0.1733(5) 1.3274(4)
N1 N 0.8919(4) 0.1173(5) 1.1519(3)
N2 N 0.8501(4) 0.1039(5) 1.8345(3)
N3 N 1.1393(5) 0.1428(3) 1.0211(3)
H21 H 1.1621 0.1679 0.9632
H22 H 1.1686 0.2073 1.0663
N4 N 1.5705(5) 0.2997(4) 1.2513(3)
H23 H 1.6354 0.3589 1.2402
O1 O 0.9768(4) -0.0841(3) 1.0045(3)
O2 O 1.2055(4) -0.2004(3) 1.0236(2)
O3 O 0.6418(4) 0.0327(3) 0.9707(3)
H24 H 0.608(6) -0.014(5) 1.008(3)
H25 H 0.556(4) 0.043(6) 0.926(3)
Co1_2 Co 0.88099(7) 0.10755(6) 1.99457(4)
Co1A Co 1.11901(7) -0.39245(6) 1.00543(4)
N2_2 N 0.8501(4) 0.1039(5) 0.8345(3)
O2A O 0.7945(4) 0.2996(3) 0.9764(2)
N5 N 0.7190(4) 0.6041(5) 1.2438(3)
O4 O 0.7735(5) 0.5431(4) 1.3231(3)
O5 O 0.6811(5) 0.5477(4) 1.1604(3)
O6 O 0.7005(5) 0.7258(3) 1.2464(3)
O7 O 0.5471(4) -0.1827(4) 1.0547(3)
H26 H 0.446(2) -0.187(6) 1.046(4)
H27 H 0.590(6) -0.208(6) 1.112(2)
loop_
_geom_bond_atom_site_label_1
_geom_bond_atom_site_label_2
_geom_bond_site_symmetry_1
_geom_bond_site_symmetry_2
Co1 N1 1_555 1_555
C1 H1 1_555 1_555
C2 C1 1_555 1_555
H2 C2 1_555 1_555
C3 C2 1_555 1_555
C4 C3 1_555 1_555
H3 C4 1_555 1_555
C5 C4 1_555 1_555
H4 C5 1_555 1_555
C6 C3 1_555 1_555
H5 C6 1_555 1_555
H6 C6 1_555 1_555
C7 C6 1_555 1_555
H7 C7 1_555 1_555
H8 C7 1_555 1_555
C8 C7 1_555 1_555
C9 C8 1_555 1_555
H9 C9 1_555 1_555
C10 C9 1_555 1_555
H10 C10 1_555 1_555
C11 H11 1_555 1_555
C12 C8 1_555 1_555
H12 C12 1_555 1_555
C13 C14 1_555 1_555
C14 H13 1_555 1_555
C15 C14 1_555 1_555
H14 C15 1_555 1_555
H15 C15 1_555 1_555
C16 C15 1_555 1_555
C17 C16 1_555 1_555
H16 C17 1_555 1_555
C18 C19 1_555 1_555
C19 H17 1_555 1_555
C20 C19 1_555 1_555
H18 C20 1_555 1_555
C21 C20 1_555 1_555
H19 C21 1_555 1_555
C22 C21 1_555 1_555
H20 C22 1_555 1_555
C23 C16 1_555 1_555
N1 C1 1_555 1_555
N2 C10 1_555 1_555
N3 Co1 1_555 1_555
H21 N3 1_555 1_555
H22 N3 1_555 1_555
N4 C17 1_555 1_555
H23 N4 1_555 1_555
O1 Co1 1_555 1_555
O2 C13 1_555 1_555
O3 Co1 1_555 1_555
H24 O3 1_555 1_555
H25 O3 1_555 1_555
N5 O4 1_555 1_555
O5 N5 1_555 1_555
O6 N5 1_555 1_555
O7 H26 1_555 1_555
H27 O7 1_555 1_555
Co1_2 N2 1_555 1_555
Co1A O2 1_555 1_555
N2_2 Co1 1_555 1_555
O2A Co1 1_555 1_555
C5 N1 1_555 1_555
C11 C12 1_555 1_555
C11 N2 1_555 1_555
C13 O1 1_555 1_555
C14 N3 1_555 1_555
C18 C23 1_555 1_555
C18 N4 1_555 1_555
C22 C23 1_555 1_555

#END
