
#######################################################################
#
#                 Cambridge Crystallographic Data Centre
#                                CCDC 
#
#######################################################################
#
# If this CIF has been generated from an entry in the Cambridge 
# Structural Database, then it will include bibliographic, chemical, 
# crystal, experimental, refinement or atomic coordinate data resulting 
# from the CCDC's data processing and validation procedures.
#
#######################################################################

data_SOLQUH01
_symmetry_cell_setting           orthorhombic
_symmetry_space_group_name_H-M   'C c c m'
_symmetry_Int_Tables_number      66
_space_group_name_Hall           '-C 2 2n'
loop_
_symmetry_equiv_pos_site_id
_symmetry_equiv_pos_as_xyz
1 x,y,z
2 -x,-y,z
3 -x,y,1/2-z
4 x,-y,1/2-z
5 1/2+x,1/2+y,z
6 1/2-x,1/2-y,z
7 1/2-x,1/2+y,1/2-z
8 1/2+x,1/2-y,1/2-z
9 -x,-y,-z
10 x,y,-z
11 x,-y,1/2+z
12 -x,y,1/2+z
13 1/2-x,1/2-y,-z
14 1/2+x,1/2+y,-z
15 1/2+x,1/2-y,1/2+z
16 1/2-x,1/2+y,1/2+z
_cell_length_a                   13.158(8)
_cell_length_b                   14.942(9)
_cell_length_c                   16.667(10)
_cell_angle_alpha                90
_cell_angle_beta                 90
_cell_angle_gamma                90
_cell_volume                     3276.85
loop_
_atom_site_label
_atom_site_type_symbol
_atom_site_fract_x
_atom_site_fract_y
_atom_site_fract_z
N3 N 0.0053(11) 0.3623(10) 0.4536(11)
C6 C 0.0041(10) 0.3714(11) 0.3878(15)
H7 H 0.0458 0.3313 0.3607
C7 C -0.0780(17) 0.4005(15) 0.5000
H8 H -0.0848 0.4651 0.5000
H9 H -0.1421 0.3683 0.5000
C8 C 0.0784(15) 0.3101(12) 0.5000
H10 H 0.1485 0.3304 0.5000
H11 H 0.0705 0.2456 0.5000
O3 O -0.0453(11) 0.4287(13) 0.3382(13)
N3I N 0.0053(11) 0.3623(10) 0.5464(11)
C6I C 0.0041(10) 0.3714(11) 0.6122(15)
H7I H 0.0458 0.3313 0.6393
O3I O -0.0453(11) 0.4287(13) 0.6618(13)
O4 O 0.0000 0.4094(14) 0.2500
Cu1 Cu 1.0000 0.0000 0.0000
P1 P 0.7500 0.2500 0.32214(6)
N1 N 0.7249(2) 0.16460(18) 0.26096(17)
H1 H 0.6652 0.1416 0.2651
C1 C 0.7872(2) 0.12672(19) 0.20510(18)
C2 C 0.9426(2) 0.1133(2) 0.1344(2)
H2 H 1.0093 0.1325 0.1276
C3 C 0.8854(2) 0.1538(2) 0.1925(2)
H3 H 0.9131 0.1995 0.2234
C4 C 0.8151(3) 0.0208(2) 0.1010(2)
H4 H 0.7903 -0.0264 0.0703
C5 C 0.7527(3) 0.0567(2) 0.1574(3)
H5 H 0.6872 0.0346 0.1640
N2 N 0.9088(2) 0.04850(18) 0.08699(15)
O1 O 0.8460(2) 0.2356(2) 0.36502(15)
O2 O 1.1128(3) 0.1419(2) 0.0000
H6 H 1.138(3) 0.179(2) 0.035(2)
N1E N 0.7751(2) 0.33540(18) 0.26096(17)
H1E H 0.8348 0.3584 0.2651
C1E C 0.7128(2) 0.37328(19) 0.20510(18)
C2E C 0.5574(2) 0.3867(2) 0.1344(2)
H2E H 0.4907 0.3675 0.1276
C3E C 0.6146(2) 0.3462(2) 0.1925(2)
H3E H 0.5869 0.3005 0.2234
C4E C 0.6849(3) 0.4792(2) 0.1010(2)
H4E H 0.7097 0.5264 0.0703
C5E C 0.7473(3) 0.4433(2) 0.1574(3)
H5E H 0.8128 0.4654 0.1640
N2E N 0.5912(2) 0.45150(18) 0.08699(15)
O1E O 0.6540(2) 0.2644(2) 0.36502(15)
H6I H 1.138(3) 0.179(2) -0.035(2)
O2A O 0.8872(3) -0.1419(2) 0.0000
H6A H 0.862(3) -0.179(2) 0.035(2)
H6H H 0.862(3) -0.179(2) -0.035(2)
P1I P 0.7500 0.2500 -0.32214(6)
N1I N 0.7249(2) 0.16460(18) -0.26096(17)
H1I H 0.6652 0.1416 -0.2651
C1I C 0.7872(2) 0.12672(19) -0.20510(18)
C2I C 0.9426(2) 0.1133(2) -0.1344(2)
H2I H 1.0093 0.1325 -0.1276
C3I C 0.8854(2) 0.1538(2) -0.1925(2)
H3I H 0.9131 0.1995 -0.2234
C4I C 0.8151(3) 0.0208(2) -0.1010(2)
H4I H 0.7903 -0.0264 -0.0703
C5I C 0.7527(3) 0.0567(2) -0.1574(3)
H5I H 0.6872 0.0346 -0.1640
N2I N 0.9088(2) 0.04850(18) -0.08699(15)
O1I O 0.8460(2) 0.2356(2) -0.36502(15)
N1L N 0.7751(2) 0.33540(18) -0.26096(17)
H1L H 0.8348 0.3584 -0.2651
C1L C 0.7128(2) 0.37328(19) -0.20510(18)
C2L C 0.5574(2) 0.3867(2) -0.1344(2)
H2L H 0.4907 0.3675 -0.1276
C3L C 0.6146(2) 0.3462(2) -0.1925(2)
H3L H 0.5869 0.3005 -0.2234
C4L C 0.6849(3) 0.4792(2) -0.1010(2)
H4L H 0.7097 0.5264 -0.0703
C5L C 0.7473(3) 0.4433(2) -0.1574(3)
H5L H 0.8128 0.4654 -0.1640
N2L N 0.5912(2) 0.45150(18) -0.08699(15)
O1L O 0.6540(2) 0.2644(2) -0.36502(15)
Cu1D Cu 0.5000 0.5000 0.0000
N2A N 1.0912(2) -0.04850(18) 0.08699(15)
N2H N 1.0912(2) -0.04850(18) -0.08699(15)
loop_
_geom_bond_atom_site_label_1
_geom_bond_atom_site_label_2
_geom_bond_site_symmetry_1
_geom_bond_site_symmetry_2
Cu1 N2 1_555 1_555
P1 N1 1_555 1_555
N1 H1 1_555 1_555
C1 N1 1_555 1_555
C2 H2 1_555 1_555
C3 C1 1_555 1_555
H3 C3 1_555 1_555
C4 H4 1_555 1_555
C5 C1 1_555 1_555
H5 C5 1_555 1_555
N2 C2 1_555 1_555
O1 P1 1_555 1_555
O2 Cu1 1_555 1_555
H6 O2 1_555 1_555
N3 C6 1_555 1_555
C6 H7 1_555 1_555
C7 N3 1_555 1_555
H8 C7 1_555 1_555
H9 C7 1_555 1_555
C8 N3 1_555 1_555
H10 C8 1_555 1_555
H11 C8 1_555 1_555
O3 C6 1_555 1_555
N1E P1 1_555 1_555
H1E N1E 1_555 1_555
C1E N1E 1_555 1_555
C2E H2E 1_555 1_555
C3E C1E 1_555 1_555
H3E C3E 1_555 1_555
C4E H4E 1_555 1_555
C5E C1E 1_555 1_555
H5E C5E 1_555 1_555
N2E C2E 1_555 1_555
O1E P1 1_555 1_555
H6I O2 1_555 1_555
O2A Cu1 1_555 1_555
H6A O2A 1_555 1_555
H6H O2A 1_555 1_555
P1I N1I 1_555 1_555
N1I H1I 1_555 1_555
C1I N1I 1_555 1_555
C2I H2I 1_555 1_555
C3I C1I 1_555 1_555
H3I C3I 1_555 1_555
C4I H4I 1_555 1_555
C5I C1I 1_555 1_555
H5I C5I 1_555 1_555
N2I Cu1 1_555 1_555
O1I P1I 1_555 1_555
N1L P1I 1_555 1_555
H1L N1L 1_555 1_555
C1L N1L 1_555 1_555
C2L H2L 1_555 1_555
C3L C1L 1_555 1_555
H3L C3L 1_555 1_555
C4L H4L 1_555 1_555
C5L C1L 1_555 1_555
H5L C5L 1_555 1_555
N2L C2L 1_555 1_555
O1L P1I 1_555 1_555
Cu1D N2E 1_555 1_555
N2A Cu1 1_555 1_555
N2H Cu1 1_555 1_555
N3I N3 1_555 1_555
C6I N3I 1_555 1_555
H7I C6I 1_555 1_555
O3I C6I 1_555 1_555
C2 C3 1_555 1_555
C4 C5 1_555 1_555
C4 N2 1_555 1_555
C7 N3I 1_555 1_555
C8 N3I 1_555 1_555
C2E C3E 1_555 1_555
C4E C5E 1_555 1_555
C4E N2E 1_555 1_555
C2I C3I 1_555 1_555
C2I N2I 1_555 1_555
C4I C5I 1_555 1_555
C4I N2I 1_555 1_555
C2L C3L 1_555 1_555
C4L C5L 1_555 1_555
C4L N2L 1_555 1_555
N2L Cu1D 1_555 1_555

#END
