
#######################################################################
#
#                 Cambridge Crystallographic Data Centre
#                                CCDC 
#
#######################################################################
#
# If this CIF has been generated from an entry in the Cambridge 
# Structural Database, then it will include bibliographic, chemical, 
# crystal, experimental, refinement or atomic coordinate data resulting 
# from the CCDC's data processing and validation procedures.
#
#######################################################################

data_SOLRAO01
_symmetry_cell_setting           orthorhombic
_symmetry_space_group_name_H-M   'C c c m'
_symmetry_Int_Tables_number      66
_space_group_name_Hall           '-C 2 2n'
loop_
_symmetry_equiv_pos_site_id
_symmetry_equiv_pos_as_xyz
1 x,y,z
2 -x,-y,z
3 -x,y,1/2-z
4 x,-y,1/2-z
5 1/2+x,1/2+y,z
6 1/2-x,1/2-y,z
7 1/2-x,1/2+y,1/2-z
8 1/2+x,1/2-y,1/2-z
9 -x,-y,-z
10 x,y,-z
11 x,-y,1/2+z
12 -x,y,1/2+z
13 1/2-x,1/2-y,-z
14 1/2+x,1/2+y,-z
15 1/2+x,1/2-y,1/2+z
16 1/2-x,1/2+y,1/2+z
_cell_length_a                   13.4495(14)
_cell_length_b                   15.0521(16)
_cell_length_c                   16.6729(17)
_cell_angle_alpha                90
_cell_angle_beta                 90
_cell_angle_gamma                90
_cell_volume                     3375.32
loop_
_atom_site_label
_atom_site_type_symbol
_atom_site_fract_x
_atom_site_fract_y
_atom_site_fract_z
Cu1 Cu 1.0000 0.5000 0.0000
P1 P 0.7500 0.2500 0.32335(12)
N1 N 0.9104(3) 0.4512(3) 0.0876(3)
N2 N 0.7257(4) 0.3360(3) 0.2626(3)
H1 H 0.6662 0.3597 0.2672
O1 O 1.1110(5) 0.3593(4) 0.0000
H2 H 1.090(4) 0.313(2) 0.033(3)
O2 O 0.8449(4) 0.2638(3) 0.3668(2)
C1 C 0.7873(4) 0.3741(4) 0.2063(3)
C2 C 0.8165(5) 0.4787(4) 0.1006(3)
H3 H 0.7916 0.5257 0.0683
C3 C 0.7546(5) 0.4433(4) 0.1576(4)
H4 H 0.6892 0.4661 0.1638
C4 C 0.9427(4) 0.3863(4) 0.1358(3)
H5 H 1.0095 0.3669 0.1296
C5 C 0.8857(4) 0.3457(4) 0.1938(3)
H6 H 0.9127 0.2989 0.2252
N1E N 0.5896(3) 0.0488(3) 0.0876(3)
N2E N 0.7743(4) 0.1640(3) 0.2626(3)
H1E H 0.8338 0.1403 0.2672
O2E O 0.6551(4) 0.2362(3) 0.3668(2)
C1E C 0.7127(4) 0.1259(4) 0.2063(3)
C2E C 0.6835(5) 0.0213(4) 0.1006(3)
H3E H 0.7084 -0.0257 0.0683
C3E C 0.7454(5) 0.0567(4) 0.1576(4)
H4E H 0.8108 0.0339 0.1638
C4E C 0.5573(4) 0.1137(4) 0.1358(3)
H5E H 0.4905 0.1331 0.1296
C5E C 0.6143(4) 0.1543(4) 0.1938(3)
H6E H 0.5873 0.2011 0.2252
H2I H 1.090(4) 0.313(2) -0.033(3)
O1A O 0.8890(5) 0.6407(4) 0.0000
H2A H 0.910(4) 0.687(2) 0.033(3)
H2H H 0.910(4) 0.687(2) -0.033(3)
P1I P 0.7500 0.2500 -0.32335(12)
N1I N 0.9104(3) 0.4512(3) -0.0876(3)
N2I N 0.7257(4) 0.3360(3) -0.2626(3)
H1I H 0.6662 0.3597 -0.2672
O2I O 0.8449(4) 0.2638(3) -0.3668(2)
C1I C 0.7873(4) 0.3741(4) -0.2063(3)
C2I C 0.8165(5) 0.4787(4) -0.1006(3)
H3I H 0.7916 0.5257 -0.0683
C3I C 0.7546(5) 0.4433(4) -0.1576(4)
H4I H 0.6892 0.4661 -0.1638
C4I C 0.9427(4) 0.3863(4) -0.1358(3)
H5I H 1.0095 0.3669 -0.1296
C5I C 0.8857(4) 0.3457(4) -0.1938(3)
H6I H 0.9127 0.2989 -0.2252
N1L N 0.5896(3) 0.0488(3) -0.0876(3)
N2L N 0.7743(4) 0.1640(3) -0.2626(3)
H1L H 0.8338 0.1403 -0.2672
O2L O 0.6551(4) 0.2362(3) -0.3668(2)
C1L C 0.7127(4) 0.1259(4) -0.2063(3)
C2L C 0.6835(5) 0.0213(4) -0.1006(3)
H3L H 0.7084 -0.0257 -0.0683
C3L C 0.7454(5) 0.0567(4) -0.1576(4)
H4L H 0.8108 0.0339 -0.1638
C4L C 0.5573(4) 0.1137(4) -0.1358(3)
H5L H 0.4905 0.1331 -0.1296
C5L C 0.6143(4) 0.1543(4) -0.1938(3)
H6L H 0.5873 0.2011 -0.2252
Cu1D Cu 0.5000 0.0000 0.0000
N1A N 1.0896(3) 0.5488(3) 0.0876(3)
N1H N 1.0896(3) 0.5488(3) -0.0876(3)
loop_
_geom_bond_atom_site_label_1
_geom_bond_atom_site_label_2
_geom_bond_site_symmetry_1
_geom_bond_site_symmetry_2
Cu1 N1 1_555 1_555
P1 N2 1_555 1_555
N1 C2 1_555 1_555
N2 H1 1_555 1_555
O1 Cu1 1_555 1_555
H2 O1 1_555 1_555
O2 P1 1_555 1_555
C1 N2 1_555 1_555
C2 H3 1_555 1_555
C3 C1 1_555 1_555
H4 C3 1_555 1_555
C4 N1 1_555 1_555
H5 C4 1_555 1_555
C5 C1 1_555 1_555
H6 C5 1_555 1_555
N1E C2E 1_555 1_555
N2E P1 1_555 1_555
H1E N2E 1_555 1_555
O2E P1 1_555 1_555
C1E N2E 1_555 1_555
C2E H3E 1_555 1_555
C3E C1E 1_555 1_555
H4E C3E 1_555 1_555
C4E N1E 1_555 1_555
H5E C4E 1_555 1_555
C5E C1E 1_555 1_555
H6E C5E 1_555 1_555
H2I O1 1_555 1_555
O1A Cu1 1_555 1_555
H2A O1A 1_555 1_555
H2H O1A 1_555 1_555
P1I N2I 1_555 1_555
N1I Cu1 1_555 1_555
N2I H1I 1_555 1_555
O2I P1I 1_555 1_555
C1I N2I 1_555 1_555
C2I N1I 1_555 1_555
H3I C2I 1_555 1_555
C3I C1I 1_555 1_555
H4I C3I 1_555 1_555
C4I N1I 1_555 1_555
H5I C4I 1_555 1_555
C5I C1I 1_555 1_555
H6I C5I 1_555 1_555
N1L C2L 1_555 1_555
N2L P1I 1_555 1_555
H1L N2L 1_555 1_555
O2L P1I 1_555 1_555
C1L N2L 1_555 1_555
C2L H3L 1_555 1_555
C3L C1L 1_555 1_555
H4L C3L 1_555 1_555
C4L N1L 1_555 1_555
H5L C4L 1_555 1_555
C5L C1L 1_555 1_555
H6L C5L 1_555 1_555
Cu1D N1E 1_555 1_555
N1A Cu1 1_555 1_555
N1H Cu1 1_555 1_555
C2 C3 1_555 1_555
C4 C5 1_555 1_555
C2E C3E 1_555 1_555
C4E C5E 1_555 1_555
C2I C3I 1_555 1_555
C4I C5I 1_555 1_555
N1L Cu1D 1_555 1_555
C2L C3L 1_555 1_555
C4L C5L 1_555 1_555

#END
