
#######################################################################
#
#                 Cambridge Crystallographic Data Centre
#                                CCDC 
#
#######################################################################
#
# If this CIF has been generated from an entry in the Cambridge 
# Structural Database, then it will include bibliographic, chemical, 
# crystal, experimental, refinement or atomic coordinate data resulting 
# from the CCDC's data processing and validation procedures.
#
#######################################################################

data_SOLRAO
_symmetry_cell_setting           orthorhombic
_symmetry_space_group_name_H-M   'C c c m'
_symmetry_Int_Tables_number      66
_space_group_name_Hall           '-C 2 2n'
loop_
_symmetry_equiv_pos_site_id
_symmetry_equiv_pos_as_xyz
1 x,y,z
2 -x,-y,z
3 -x,y,1/2-z
4 x,-y,1/2-z
5 1/2+x,1/2+y,z
6 1/2-x,1/2-y,z
7 1/2-x,1/2+y,1/2-z
8 1/2+x,1/2-y,1/2-z
9 -x,-y,-z
10 x,y,-z
11 x,-y,1/2+z
12 -x,y,1/2+z
13 1/2-x,1/2-y,-z
14 1/2+x,1/2+y,-z
15 1/2+x,1/2-y,1/2+z
16 1/2-x,1/2+y,1/2+z
_cell_length_a                   13.158(8)
_cell_length_b                   14.942(9)
_cell_length_c                   16.667(10)
_cell_angle_alpha                90
_cell_angle_beta                 90
_cell_angle_gamma                90
_cell_volume                     3276.85
loop_
_atom_site_label
_atom_site_type_symbol
_atom_site_fract_x
_atom_site_fract_y
_atom_site_fract_z
Cu1 Cu 1.0000 0.0000 0.0000
P1 P 0.7500 0.2500 0.32207(5)
N1 N 0.72475(16) 0.16454(13) 0.26076(12)
H1 H 0.6637 0.1410 0.2650
C1 C 0.78689(17) 0.12666(14) 0.20494(13)
C2 C 0.94260(17) 0.11352(17) 0.13433(14)
H2 H 1.0107 0.1332 0.1274
C3 C 0.88552(18) 0.15356(16) 0.19244(14)
H3 H 0.9139 0.2000 0.2243
C4 C 0.81499(19) 0.02089(17) 0.10079(16)
H4 H 0.7897 -0.0274 0.0695
C5 C 0.7524(2) 0.05693(17) 0.15711(18)
H5 H 0.6853 0.0345 0.1637
N2 N 0.90871(14) 0.04870(13) 0.08674(11)
O1 O 0.84621(15) 0.23565(14) 0.36487(10)
O2 O 1.1124(2) 0.14186(17) 0.0000
H6 H 1.132(2) 0.1668(19) 0.0357(17)
N1E N 0.77525(16) 0.33546(13) 0.26076(12)
H1E H 0.8363 0.3590 0.2650
C1E C 0.71311(17) 0.37334(14) 0.20494(13)
C2E C 0.55740(17) 0.38648(17) 0.13433(14)
H2E H 0.4893 0.3668 0.1274
C3E C 0.61448(18) 0.34644(16) 0.19244(14)
H3E H 0.5861 0.3000 0.2243
C4E C 0.68501(19) 0.47911(17) 0.10079(16)
H4E H 0.7103 0.5274 0.0695
C5E C 0.7476(2) 0.44307(17) 0.15711(18)
H5E H 0.8147 0.4655 0.1637
N2E N 0.59129(14) 0.45130(13) 0.08674(11)
O1E O 0.65379(15) 0.26435(14) 0.36487(10)
H6I H 1.132(2) 0.1668(19) -0.0357(17)
O2A O 0.8876(2) -0.14186(17) 0.0000
H6A H 0.868(2) -0.1668(19) 0.0357(17)
H6H H 0.868(2) -0.1668(19) -0.0357(17)
P1I P 0.7500 0.2500 -0.32207(5)
N1I N 0.72475(16) 0.16454(13) -0.26076(12)
H1I H 0.6637 0.1410 -0.2650
C1I C 0.78689(17) 0.12666(14) -0.20494(13)
C2I C 0.94260(17) 0.11352(17) -0.13433(14)
H2I H 1.0107 0.1332 -0.1274
C3I C 0.88552(18) 0.15356(16) -0.19244(14)
H3I H 0.9139 0.2000 -0.2243
C4I C 0.81499(19) 0.02089(17) -0.10079(16)
H4I H 0.7897 -0.0274 -0.0695
C5I C 0.7524(2) 0.05693(17) -0.15711(18)
H5I H 0.6853 0.0345 -0.1637
N2I N 0.90871(14) 0.04870(13) -0.08674(11)
O1I O 0.84621(15) 0.23565(14) -0.36487(10)
N1L N 0.77525(16) 0.33546(13) -0.26076(12)
H1L H 0.8363 0.3590 -0.2650
C1L C 0.71311(17) 0.37334(14) -0.20494(13)
C2L C 0.55740(17) 0.38648(17) -0.13433(14)
H2L H 0.4893 0.3668 -0.1274
C3L C 0.61448(18) 0.34644(16) -0.19244(14)
H3L H 0.5861 0.3000 -0.2243
C4L C 0.68501(19) 0.47911(17) -0.10079(16)
H4L H 0.7103 0.5274 -0.0695
C5L C 0.7476(2) 0.44307(17) -0.15711(18)
H5L H 0.8147 0.4655 -0.1637
N2L N 0.59129(14) 0.45130(13) -0.08674(11)
O1L O 0.65379(15) 0.26435(14) -0.36487(10)
Cu1D Cu 0.5000 0.5000 0.0000
N2A N 1.09129(14) -0.04870(13) 0.08674(11)
N2H N 1.09129(14) -0.04870(13) -0.08674(11)
loop_
_geom_bond_atom_site_label_1
_geom_bond_atom_site_label_2
_geom_bond_site_symmetry_1
_geom_bond_site_symmetry_2
Cu1 N2 1_555 1_555
P1 N1 1_555 1_555
N1 H1 1_555 1_555
C1 N1 1_555 1_555
C2 H2 1_555 1_555
C3 C1 1_555 1_555
H3 C3 1_555 1_555
C4 H4 1_555 1_555
C5 C1 1_555 1_555
H5 C5 1_555 1_555
N2 C2 1_555 1_555
O1 P1 1_555 1_555
O2 Cu1 1_555 1_555
H6 O2 1_555 1_555
N1E P1 1_555 1_555
H1E N1E 1_555 1_555
C1E N1E 1_555 1_555
C2E H2E 1_555 1_555
C3E C1E 1_555 1_555
H3E C3E 1_555 1_555
C4E H4E 1_555 1_555
C5E C1E 1_555 1_555
H5E C5E 1_555 1_555
N2E C2E 1_555 1_555
O1E P1 1_555 1_555
H6I O2 1_555 1_555
O2A Cu1 1_555 1_555
H6A O2A 1_555 1_555
H6H O2A 1_555 1_555
P1I N1I 1_555 1_555
N1I H1I 1_555 1_555
C1I N1I 1_555 1_555
C2I H2I 1_555 1_555
C3I C1I 1_555 1_555
H3I C3I 1_555 1_555
C4I H4I 1_555 1_555
C5I C1I 1_555 1_555
H5I C5I 1_555 1_555
N2I Cu1 1_555 1_555
O1I P1I 1_555 1_555
N1L P1I 1_555 1_555
H1L N1L 1_555 1_555
C1L N1L 1_555 1_555
C2L H2L 1_555 1_555
C3L C1L 1_555 1_555
H3L C3L 1_555 1_555
C4L H4L 1_555 1_555
C5L C1L 1_555 1_555
H5L C5L 1_555 1_555
N2L C2L 1_555 1_555
O1L P1I 1_555 1_555
Cu1D N2E 1_555 1_555
N2A Cu1 1_555 1_555
N2H Cu1 1_555 1_555
C2 C3 1_555 1_555
C4 C5 1_555 1_555
C4 N2 1_555 1_555
C2E C3E 1_555 1_555
C4E C5E 1_555 1_555
C4E N2E 1_555 1_555
C2I C3I 1_555 1_555
C2I N2I 1_555 1_555
C4I C5I 1_555 1_555
C4I N2I 1_555 1_555
C2L C3L 1_555 1_555
C4L C5L 1_555 1_555
C4L N2L 1_555 1_555
N2L Cu1D 1_555 1_555

#END
