
#######################################################################
#
#                 Cambridge Crystallographic Data Centre
#                                CCDC 
#
#######################################################################
#
# If this CIF has been generated from an entry in the Cambridge 
# Structural Database, then it will include bibliographic, chemical, 
# crystal, experimental, refinement or atomic coordinate data resulting 
# from the CCDC's data processing and validation procedures.
#
#######################################################################

data_SOMCUU
_symmetry_cell_setting           monoclinic
_symmetry_space_group_name_H-M   'P 21/n'
_symmetry_Int_Tables_number      14
_space_group_name_Hall           '-P 2yn'
loop_
_symmetry_equiv_pos_site_id
_symmetry_equiv_pos_as_xyz
1 x,y,z
2 1/2-x,1/2+y,1/2-z
3 -x,-y,-z
4 1/2+x,1/2-y,1/2+z
_cell_length_a                   14.2095(8)
_cell_length_b                   11.0633(6)
_cell_length_c                   21.2998(11)
_cell_angle_alpha                90
_cell_angle_beta                 105.253(3)
_cell_angle_gamma                90
_cell_volume                     3230.46
loop_
_atom_site_label
_atom_site_type_symbol
_atom_site_fract_x
_atom_site_fract_y
_atom_site_fract_z
Ga1 Ga 0.00621(7) 0.18092(8) 0.38267(4)
Ga2 Ga 0.03075(7) 0.21905(8) 0.55426(4)
Ga3 Ga -0.10267(7) -0.04381(8) 0.30200(4)
Ga4 Ga -0.14399(7) 0.40902(8) 0.28111(4)
Se1 Se 0.05069(6) 0.05276(8) 0.30399(4)
Se2 Se 0.00203(6) 0.39677(7) 0.36364(4)
Se3 Se -0.15245(6) 0.09513(7) 0.37479(4)
Se4 Se 0.12530(6) 0.16252(7) 0.48597(4)
Se5 Se 0.09506(7) 0.25287(7) 0.66489(4)
Se6 Se -0.21026(6) -0.04782(7) 0.19432(4)
N1 N -0.1489(5) 0.2664(6) 0.2214(3)
N2 N -0.1137(5) 0.5075(7) 0.2082(3)
C1 C -0.0717(8) 0.4713(10) 0.1024(5)
C2 C -0.0515(13) 0.3809(11) 0.0534(7)
C3 C -0.1001(19) 0.2581(16) 0.0525(7)
C4 C -0.1083(8) 0.2105(9) 0.1186(5)
C5 C -0.1464(13) 0.3102(9) 0.1561(6)
N3 N -0.1013(5) 0.1407(7) 0.5445(3)
N4 N -0.0486(5) 0.3690(6) 0.5179(3)
C6 C -0.1527(7) 0.3373(7) 0.4974(4)
C7 C -0.2199(6) 0.4459(7) 0.4974(4)
C8 C -0.3272(7) 0.4094(10) 0.4783(5)
C9 C -0.3476(8) 0.3041(8) 0.5195(5)
C10 C -0.2786(6) 0.1967(8) 0.5232(5)
C11 C -0.1722(6) 0.2385(8) 0.5426(4)
C12 C -0.1086(15) 0.4245(12) 0.1530(10)
H1 H -0.1671 0.3054 0.4541
H2 H -0.2044 0.4804 0.5398
H3 H -0.2094 0.5051 0.4673
H4 H -0.3660 0.4769 0.4837
H5 H -0.3452 0.3856 0.4337
H6 H -0.3418 0.3329 0.5625
H7 H -0.4130 0.2770 0.5014
H8 H -0.2890 0.1402 0.5545
H9 H -0.2921 0.1583 0.4818
H10 H -0.1598 0.2728 0.5853
H11 H -0.0989 0.0881 0.5804
H12 H -0.1191 0.0948 0.5053
H13 H -0.0387 0.4299 0.5506
H14 H -0.0283 0.3992 0.4817
H15 H -0.2077 0.2220 0.2178
H16 H -0.0947 0.2143 0.2387
H17 H -0.1637 0.5659 0.1926
H18 H -0.0530 0.5487 0.2241
H19 H -0.1181 0.5284 0.0788
H20 H -0.0120 0.5132 0.1214
H21 H -0.0733 0.4148 0.0111
H22 H 0.0172 0.3681 0.0633
H23 H -0.1639 0.2630 0.0242
H24 H -0.0632 0.2005 0.0351
H25 H -0.1524 0.1438 0.1115
H26 H -0.0457 0.1836 0.1432
H27 H -0.2122 0.3185 0.1335
H28 H -0.0441 0.3981 0.1768
Ga3B Ga 0.10267(7) 0.04381(8) 0.69800(4)
Ga4A Ga -0.35601(7) -0.09098(8) 0.21889(4)
Se5B Se -0.09506(7) -0.25287(7) 0.33511(4)
Se6A Se -0.28974(6) 0.45218(7) 0.30568(4)
N5 N 0.0759(10) 0.6253(12) 0.2543(6)
C16 C 0.2264(11) 0.7447(18) 0.2443(9)
N6 N 0.229(2) 0.792(3) 0.3092(8)
C17 C 0.085(2) 0.893(3) 0.1379(18)
C18 C 0.255(2) 0.868(3) 0.2207(12)
C19 C 0.196(2) 0.901(3) 0.1512(13)
C20 C 0.0509(13) 0.7858(16) 0.1714(9)
C21 C 0.1152(16) 0.718(3) 0.2203(10)
H33 H -0.0001 0.8163 0.1883
H34 H 0.0219 0.7282 0.1373
H35 H 0.0629 0.9637 0.1516
H36 H 0.0584 0.8830 0.0914
H37 H 0.2126 0.9805 0.1412
H38 H 0.2164 0.8465 0.1205
H39 H 0.2458 0.9290 0.2480
H40 H 0.3230 0.8642 0.2202
H41 H 0.1370 0.6685 0.1923
H42 H 0.2748 0.6842 0.2459
C13? C -0.0766(15) 0.4201(10) 0.1684(7)
C14? C -0.098(2) 0.3002(11) 0.1748(8)
C15? C -0.045(2) 0.2474(16) 0.0736(14)
H29? H 0.0197 0.2273 0.0929
H30? H -0.0678 0.2004 0.0336
H31? H -0.0341 0.2760 0.1988
H32? H -0.0085 0.4210 0.1907
N7? N 0.2807(17) 0.697(3) 0.2836(12)
C22? C 0.1244(14) 0.6980(18) 0.2135(8)
C23? C 0.0974(17) 0.846(4) 0.1213(13)
C24? C 0.2086(18) 0.856(4) 0.1332(14)
C25? C 0.2074(14) 0.7844(17) 0.2477(9)
C26? C 0.2694(13) 0.817(3) 0.2009(16)
H43? H 0.0759 0.9275 0.1177
H44? H 0.0707 0.8060 0.0807
H45? H 0.2257 0.9283 0.1217
H46? H 0.2240 0.7935 0.1014
H47? H 0.3102 0.8820 0.2171
H48? H 0.3081 0.7471 0.1968
H49? H 0.2002 0.8521 0.2735
H50? H 0.1343 0.6409 0.1820
loop_
_geom_bond_atom_site_label_1
_geom_bond_atom_site_label_2
_geom_bond_site_symmetry_1
_geom_bond_site_symmetry_2
Ga1 Se1 1_555 1_555
Ga2 Se4 1_555 1_555
Ga3 Se1 1_555 1_555
Ga4 Se2 1_555 1_555
Se2 Ga1 1_555 1_555
Se3 Ga1 1_555 1_555
Se4 Ga1 1_555 1_555
Se5 Ga2 1_555 1_555
Se6 Ga3 1_555 1_555
N1 Ga4 1_555 1_555
N2 Ga4 1_555 1_555
C1 C2 1_555 1_555
C2 C3 1_555 1_555
C3 C4 1_555 1_555
C4 C5 1_555 1_555
C5 N1 1_555 1_555
N3 Ga2 1_555 1_555
N4 Ga2 1_555 1_555
C6 N4 1_555 1_555
C7 C6 1_555 1_555
C8 C7 1_555 1_555
C9 C8 1_555 1_555
C10 C9 1_555 1_555
C11 N3 1_555 1_555
C12 N2 1_555 1_555
H1 C6 1_555 1_555
H2 C7 1_555 1_555
H3 C7 1_555 1_555
H4 C8 1_555 1_555
H5 C8 1_555 1_555
H6 C9 1_555 1_555
H7 C9 1_555 1_555
H8 C10 1_555 1_555
H9 C10 1_555 1_555
H10 C11 1_555 1_555
H11 N3 1_555 1_555
H12 N3 1_555 1_555
H13 N4 1_555 1_555
H14 N4 1_555 1_555
H15 N1 1_555 1_555
H16 N1 1_555 1_555
H17 N2 1_555 1_555
H18 N2 1_555 1_555
H19 C1 1_555 1_555
H20 C1 1_555 1_555
H21 C2 1_555 1_555
H22 C2 1_555 1_555
H23 C3 1_555 1_555
H24 C3 1_555 1_555
H25 C4 1_555 1_555
H26 C4 1_555 1_555
H27 C5 1_555 1_555
H28 C12 1_555 1_555
N5 C21 1_555 1_555
C16 N6 1_555 1_555
C17 C19 1_555 1_555
C18 C16 1_555 1_555
C19 C18 1_555 1_555
C20 C17 1_555 1_555
C21 C16 1_555 1_555
H33 C20 1_555 1_555
H34 C20 1_555 1_555
H35 C17 1_555 1_555
H36 C17 1_555 1_555
H37 C19 1_555 1_555
H38 C19 1_555 1_555
H39 C18 1_555 1_555
H40 C18 1_555 1_555
H41 C21 1_555 1_555
H42 C16 1_555 1_555
Ga3B Se5 1_555 1_555
Ga4A Se6 1_555 1_555
Se5B Ga3 1_555 1_555
Se6A Ga4 1_555 1_555
Ga3 Se3 1_555 1_555
C1 C12 1_555 1_555
C5 C12 1_555 1_555
C6 C11 1_555 1_555
C10 C11 1_555 1_555
C20 C21 1_555 1_555

#END
