
#######################################################################
#
#                 Cambridge Crystallographic Data Centre
#                                CCDC 
#
#######################################################################
#
# If this CIF has been generated from an entry in the Cambridge 
# Structural Database, then it will include bibliographic, chemical, 
# crystal, experimental, refinement or atomic coordinate data resulting 
# from the CCDC's data processing and validation procedures.
#
#######################################################################

data_SOMDAA02
_symmetry_cell_setting           triclinic
_symmetry_space_group_name_H-M   'P -1'
_symmetry_Int_Tables_number      2
_space_group_name_Hall           '-P 1'
loop_
_symmetry_equiv_pos_site_id
_symmetry_equiv_pos_as_xyz
1 x,y,z
2 -x,-y,-z
_cell_length_a                   10.824(4)
_cell_length_b                   13.310(4)
_cell_length_c                   13.347(4)
_cell_angle_alpha                98.744(6)
_cell_angle_beta                 112.719(5)
_cell_angle_gamma                96.281(6)
_cell_volume                     1723
loop_
_atom_site_label
_atom_site_type_symbol
_atom_site_fract_x
_atom_site_fract_y
_atom_site_fract_z
C25 C -0.363(2) 0.7312(17) 0.127(2)
C26 C -0.384(4) 0.677(3) 0.007(3)
C27 C -0.452(3) 0.5703(18) 0.012(3)
C28 C -0.513(3) 0.455(3) -0.004(2)
C29 C -0.383(3) 0.612(4) 0.118(2)
C30 C -0.440(3) 0.6555(19) 0.013(2)
C31 C -0.341(2) 0.7604(12) 0.049(2)
C25A C -0.637(2) 0.2688(17) -0.127(2)
C26A C -0.616(4) 0.323(3) -0.007(3)
C27A C -0.548(3) 0.4297(18) -0.012(3)
C28A C -0.487(3) 0.545(3) 0.004(2)
C29A C -0.617(3) 0.388(4) -0.118(2)
C30A C -0.560(3) 0.3445(19) -0.013(2)
C31A C -0.659(2) 0.2396(12) -0.049(2)
Cu1 Cu 0.5000 0.5000 0.5000
O1 O 0.3660(2) 0.37435(16) 0.47131(17)
C1 C 0.2004(4) 0.2562(3) 0.4825(3)
F1 F 0.1054(3) 0.24662(18) 0.5203(3)
F2 F 0.1465(14) 0.2108(11) 0.3670(15)
F3 F 0.277(2) 0.2044(16) 0.5273(17)
C2 C 0.2743(3) 0.3670(2) 0.5059(3)
C3 C 0.2345(4) 0.4443(3) 0.5595(3)
H1 H 0.179(4) 0.431(3) 0.574(3)
C4 C 0.2939(3) 0.5472(2) 0.5833(3)
C5 C 0.2453(5) 0.6265(3) 0.6467(4)
F6 F 0.2148(16) 0.7009(11) 0.5950(13)
F7 F 0.1594(13) 0.5930(9) 0.6785(12)
F8 F 0.3567(10) 0.6772(9) 0.7424(9)
O2 O 0.3866(2) 0.58494(17) 0.55938(18)
Cu2 Cu 0.0000 0.0000 0.0000
O3 O 0.0271(2) -0.04555(15) 0.13995(17)
C6 C 0.0191(5) -0.0500(3) 0.3111(3)
F12 F -0.0065(3) 0.0044(2) 0.38748(19)
F13 F -0.0274(5) -0.14599(19) 0.2992(2)
F14 F 0.1535(4) -0.0418(4) 0.3550(3)
C7 C -0.0310(3) -0.0159(2) 0.2006(3)
C8 C -0.1346(4) 0.0412(3) 0.1774(3)
H2 H -0.162(4) 0.051(3) 0.220(3)
C9 C -0.1905(3) 0.0728(2) 0.0787(3)
C10 C -0.3092(4) 0.1306(3) 0.0564(3)
F15 F -0.409(2) 0.093(2) -0.0456(18)
F16 F -0.268(4) 0.229(3) 0.063(3)
F17 F -0.370(2) 0.1303(13) 0.122(2)
O4 O -0.1544(2) 0.06125(15) -0.00091(17)
O5 O 0.4101(2) 0.51851(17) 0.3256(2)
N1 N 0.2833(3) 0.52662(19) 0.2728(2)
C11 C 0.2420(4) 0.6283(2) 0.2544(3)
C12 C 0.3142(4) 0.7111(2) 0.3604(3)
H3 H 0.4106 0.7222 0.3802
H4 H 0.2961 0.6891 0.4194
H5 H 0.2816 0.7744 0.3487
C13 C 0.2841(6) 0.6563(3) 0.1640(4)
H6 H 0.371(4) 0.659(3) 0.188(3)
H7 H 0.265(4) 0.729(4) 0.151(3)
H8 H 0.245(4) 0.609(3) 0.100(3)
C14 C 0.0856(4) 0.5978(2) 0.2143(3)
C15 C 0.0387(4) 0.6060(3) 0.3086(3)
H9 H -0.059(4) 0.574(3) 0.272(3)
H10 H 0.046(4) 0.670(3) 0.339(3)
H11 H 0.095(4) 0.569(3) 0.372(3)
C16 C 0.0015(5) 0.6496(3) 0.1243(3)
H12 H -0.090(5) 0.625(3) 0.103(3)
H13 H 0.019(3) 0.633(3) 0.062(3)
H14 H 0.027(4) 0.726(3) 0.151(3)
N2 N 0.0648(3) 0.4846(2) 0.1682(2)
O6 O -0.0531(2) 0.43071(18) 0.1075(2)
C17 C 0.1811(3) 0.4471(2) 0.2102(3)
C18 C 0.1931(3) 0.3407(2) 0.1891(3)
C19 C 0.0909(3) 0.2551(2) 0.1223(3)
H15 H 0.003(4) 0.254(2) 0.083(3)
N3 N 0.1403(3) 0.16870(19) 0.1203(2)
N4 N 0.2763(3) 0.19835(19) 0.1880(2)
C20 C 0.3658(4) 0.1223(3) 0.2104(3)
H16 H 0.3138 0.0548 0.1667
H17 H 0.4378 0.1396 0.1864
C21 C 0.4265(7) 0.1164(5) 0.3259(5)
H18 H 0.3613 0.1238 0.3588
H19 H 0.5052 0.1714 0.3665
C22 C 0.4802(9) -0.0157(10) 0.3329(8)
H20 H 0.4758 -0.0454 0.3937
H21 H 0.4430 -0.0658 0.2629
C23 C 0.5915(11) 0.0428(6) 0.3543(7)
H22 H 0.6652 0.0060 0.3803
H23 H 0.6052 0.1024 0.4105
H24 H 0.5884 0.0645 0.2881
C24 C 0.3103(4) 0.2994(2) 0.2292(3)
H25 H 0.398(4) 0.328(2) 0.276(3)
O1A O 0.6340(2) 0.62565(16) 0.52869(17)
C1A C 0.7996(4) 0.7438(3) 0.5175(3)
F1A F 0.8946(3) 0.75338(18) 0.4797(3)
F2A F 0.8535(14) 0.7892(11) 0.6330(15)
F3A F 0.723(2) 0.7956(16) 0.4727(17)
C2A C 0.7257(3) 0.6330(2) 0.4941(3)
C3A C 0.7655(4) 0.5557(3) 0.4405(3)
H1A H 0.821(4) 0.569(3) 0.426(3)
C4A C 0.7061(3) 0.4528(2) 0.4167(3)
C5A C 0.7547(5) 0.3735(3) 0.3533(4)
F6A F 0.7852(16) 0.2991(11) 0.4050(13)
F7A F 0.8406(13) 0.4070(9) 0.3215(12)
F8A F 0.6433(10) 0.3228(9) 0.2576(9)
O2A O 0.6134(2) 0.41506(17) 0.44062(18)
Cu2_2 Cu 1.0000 1.0000 1.0000
O3A O -0.0271(2) 0.04555(15) -0.13995(17)
C6A C -0.0191(5) 0.0500(3) -0.3111(3)
F12A F 0.0065(3) -0.0044(2) -0.38748(19)
F13A F 0.0274(5) 0.14599(19) -0.2992(2)
F14A F -0.1535(4) 0.0418(4) -0.3550(3)
C7A C 0.0310(3) 0.0159(2) -0.2006(3)
C8A C 0.1346(4) -0.0412(3) -0.1774(3)
H2A H 0.162(4) -0.051(3) -0.220(3)
C9A C 0.1905(3) -0.0728(2) -0.0787(3)
C10A C 0.3092(4) -0.1306(3) -0.0564(3)
F15A F 0.409(2) -0.093(2) 0.0456(18)
F16A F 0.268(4) -0.229(3) -0.063(3)
F17A F 0.370(2) -0.1303(13) -0.122(2)
O4A O 0.1544(2) -0.06125(15) 0.00091(17)
O5A O 0.5899(2) 0.48149(17) 0.6744(2)
N1A N 0.7167(3) 0.47338(19) 0.7272(2)
C11A C 0.7580(4) 0.3717(2) 0.7456(3)
C12A C 0.6858(4) 0.2889(2) 0.6396(3)
H3A H 0.5894 0.2778 0.6198
H4A H 0.7039 0.3109 0.5806
H5A H 0.7184 0.2256 0.6513
C13A C 0.7159(6) 0.3437(3) 0.8360(4)
H6A H 0.629(4) 0.341(3) 0.812(3)
H7A H 0.735(4) 0.271(4) 0.849(3)
H8A H 0.755(4) 0.391(3) 0.900(3)
C14A C 0.9144(4) 0.4022(2) 0.7857(3)
C15A C 0.9613(4) 0.3940(3) 0.6914(3)
H9A H 1.059(4) 0.426(3) 0.728(3)
H10A H 0.954(4) 0.330(3) 0.661(3)
H11A H 0.905(4) 0.431(3) 0.628(3)
C16A C 0.9985(5) 0.3504(3) 0.8757(3)
H12A H 1.090(5) 0.375(3) 0.897(3)
H13A H 0.981(3) 0.367(3) 0.938(3)
H14A H 0.973(4) 0.274(3) 0.849(3)
N2A N 0.9352(3) 0.5154(2) 0.8318(2)
O6A O 1.0531(2) 0.56929(18) 0.8925(2)
C17A C 0.8189(3) 0.5529(2) 0.7898(3)
C18A C 0.8069(3) 0.6593(2) 0.8109(3)
C19A C 0.9091(3) 0.7449(2) 0.8777(3)
H15A H 0.997(4) 0.746(2) 0.917(3)
N3A N 0.8597(3) 0.83130(19) 0.8797(2)
N3A_2 N -0.1403(3) -0.16870(19) -0.1203(2)
N4A N 0.7237(3) 0.80165(19) 0.8120(2)
C20A C 0.6342(4) 0.8777(3) 0.7896(3)
H16A H 0.6862 0.9452 0.8333
H17A H 0.5622 0.8604 0.8136
C21A C 0.5735(7) 0.8836(5) 0.6741(5)
H18A H 0.6387 0.8762 0.6412
H19A H 0.4948 0.8286 0.6335
C22A C 0.5198(9) 1.0157(10) 0.6671(8)
H20A H 0.5242 1.0454 0.6063
H21A H 0.5570 1.0658 0.7371
C23A C 0.4085(11) 0.9572(6) 0.6457(7)
H22A H 0.3348 0.9940 0.6197
H23A H 0.3948 0.8976 0.5895
H24A H 0.4116 0.9355 0.7119
C24A C 0.6897(4) 0.7006(2) 0.7708(3)
H25A H 0.602(4) 0.672(2) 0.724(3)
F4? F 0.145(2) 0.2182(14) 0.3881(17)
F5? F 0.299(2) 0.1937(13) 0.5344(11)
F9? F 0.2966(18) 0.6308(12) 0.7485(8)
F10? F 0.1051(12) 0.5977(11) 0.6160(11)
F11? F 0.2477(17) 0.7138(10) 0.6204(16)
F18? F -0.344(2) 0.1388(13) 0.143(2)
F19? F -0.414(2) 0.0792(19) -0.0301(18)
F20? F -0.279(4) 0.221(2) 0.040(3)
loop_
_geom_bond_atom_site_label_1
_geom_bond_atom_site_label_2
_geom_bond_site_symmetry_1
_geom_bond_site_symmetry_2
Cu1 O1 1_555 1_555
O1 C2 1_555 1_555
C1 F1 1_555 1_555
F2 C1 1_555 1_555
F3 C1 1_555 1_555
C2 C1 1_555 1_555
C3 C2 1_555 1_555
H1 C3 1_555 1_555
C4 C3 1_555 1_555
C5 C4 1_555 1_555
F6 C5 1_555 1_555
F7 C5 1_555 1_555
F8 C5 1_555 1_555
O2 Cu1 1_555 1_555
Cu2 O3 1_555 1_555
O3 C7 1_555 1_555
C6 F12 1_555 1_555
F13 C6 1_555 1_555
F14 C6 1_555 1_555
C7 C6 1_555 1_555
C8 C7 1_555 1_555
H2 C8 1_555 1_555
C9 C8 1_555 1_555
C10 C9 1_555 1_555
F15 C10 1_555 1_555
F16 C10 1_555 1_555
F17 C10 1_555 1_555
O4 Cu2 1_555 1_555
O5 Cu1 1_555 1_555
N1 O5 1_555 1_555
C11 N1 1_555 1_555
C12 C11 1_555 1_555
H3 C12 1_555 1_555
H4 C12 1_555 1_555
H5 C12 1_555 1_555
C13 C11 1_555 1_555
H6 C13 1_555 1_555
H7 C13 1_555 1_555
H8 C13 1_555 1_555
C14 C11 1_555 1_555
C15 C14 1_555 1_555
H9 C15 1_555 1_555
H10 C15 1_555 1_555
H11 C15 1_555 1_555
C16 C14 1_555 1_555
H12 C16 1_555 1_555
H13 C16 1_555 1_555
H14 C16 1_555 1_555
N2 C14 1_555 1_555
O6 N2 1_555 1_555
C17 N1 1_555 1_555
C18 C17 1_555 1_555
C19 C18 1_555 1_555
H15 C19 1_555 1_555
N3 Cu2 1_555 1_555
N4 N3 1_555 1_555
C20 N4 1_555 1_555
H16 C20 1_555 1_555
H17 C20 1_555 1_555
C21 C20 1_555 1_555
H18 C21 1_555 1_555
H19 C21 1_555 1_555
C22 C21 1_555 1_555
H20 C22 1_555 1_555
H21 C22 1_555 1_555
C23 C22 1_555 1_555
H22 C23 1_555 1_555
H23 C23 1_555 1_555
H24 C23 1_555 1_555
C24 C18 1_555 1_555
H25 C24 1_555 1_555
C25 C26 1_555 1_555
C26 C27 1_555 1_555
C27 C28 1_555 1_555
C28 C27A 1_555 1_555
C29 C25 1_555 1_555
C30 C25 1_555 1_555
C31 C25 1_555 1_555
O1A Cu1 1_555 1_555
C1A F1A 1_555 1_555
F2A C1A 1_555 1_555
F3A C1A 1_555 1_555
C2A O1A 1_555 1_555
C3A C2A 1_555 1_555
H1A C3A 1_555 1_555
C4A C3A 1_555 1_555
C5A C4A 1_555 1_555
F6A C5A 1_555 1_555
F7A C5A 1_555 1_555
F8A C5A 1_555 1_555
O2A Cu1 1_555 1_555
Cu2_2 N3A 1_555 1_555
O3A Cu2 1_555 1_555
C6A F12A 1_555 1_555
F13A C6A 1_555 1_555
F14A C6A 1_555 1_555
C7A O3A 1_555 1_555
C8A C7A 1_555 1_555
H2A C8A 1_555 1_555
C9A C8A 1_555 1_555
C10A C9A 1_555 1_555
F15A C10A 1_555 1_555
F16A C10A 1_555 1_555
F17A C10A 1_555 1_555
O4A Cu2 1_555 1_555
O5A Cu1 1_555 1_555
N1A O5A 1_555 1_555
C11A N1A 1_555 1_555
C12A C11A 1_555 1_555
H3A C12A 1_555 1_555
H4A C12A 1_555 1_555
H5A C12A 1_555 1_555
C13A C11A 1_555 1_555
H6A C13A 1_555 1_555
H7A C13A 1_555 1_555
H8A C13A 1_555 1_555
C14A C11A 1_555 1_555
C15A C14A 1_555 1_555
H9A C15A 1_555 1_555
H10A C15A 1_555 1_555
H11A C15A 1_555 1_555
C16A C14A 1_555 1_555
H12A C16A 1_555 1_555
H13A C16A 1_555 1_555
H14A C16A 1_555 1_555
N2A C14A 1_555 1_555
O6A N2A 1_555 1_555
C17A N1A 1_555 1_555
C18A C17A 1_555 1_555
C19A C18A 1_555 1_555
H15A C19A 1_555 1_555
N3A C19A 1_555 1_555
N3A_2 Cu2 1_555 1_555
N4A N3A 1_555 1_555
C20A N4A 1_555 1_555
H16A C20A 1_555 1_555
H17A C20A 1_555 1_555
C21A C20A 1_555 1_555
H18A C21A 1_555 1_555
H19A C21A 1_555 1_555
C22A C21A 1_555 1_555
H20A C22A 1_555 1_555
H21A C22A 1_555 1_555
C23A C22A 1_555 1_555
H22A C23A 1_555 1_555
H23A C23A 1_555 1_555
H24A C23A 1_555 1_555
C24A C18A 1_555 1_555
H25A C24A 1_555 1_555
C25A C26A 1_555 1_555
C26A C27A 1_555 1_555
C27A C28A 1_555 1_555
C28A C27 1_555 1_555
C29A C28 1_555 1_555
C30A C28 1_555 1_555
C31A C25A 1_555 1_555
C4 O2 1_555 1_555
C9 O4 1_555 1_555
N2 C17 1_555 1_555
C19 N3 1_555 1_555
N4 C24 1_555 1_555
C26 C29 1_555 1_555
C26 C30 1_555 1_555
C26 C31 1_555 1_555
C27 C29 1_555 1_555
C27 C30 1_555 1_555
C28 C28A 1_555 1_555
C29 C30 1_555 1_555
C29 C28A 1_555 1_555
C30 C31 1_555 1_555
C30 C28A 1_555 1_555
C1A C2A 1_555 1_555
C4A O2A 1_555 1_555
C6A C7A 1_555 1_555
C9A O4A 1_555 1_555
N2A C17A 1_555 1_555
N4A C24A 1_555 1_555
C25A C29A 1_555 1_555
C25A C30A 1_555 1_555
C26A C29A 1_555 1_555
C26A C30A 1_555 1_555
C26A C31A 1_555 1_555
C27A C29A 1_555 1_555
C27A C30A 1_555 1_555
C29A C30A 1_555 1_555
C30A C31A 1_555 1_555

#END
