
#######################################################################
#
#                 Cambridge Crystallographic Data Centre
#                                CCDC 
#
#######################################################################
#
# If this CIF has been generated from an entry in the Cambridge 
# Structural Database, then it will include bibliographic, chemical, 
# crystal, experimental, refinement or atomic coordinate data resulting 
# from the CCDC's data processing and validation procedures.
#
#######################################################################

data_SOMDAA03
_symmetry_cell_setting           triclinic
_symmetry_space_group_name_H-M   'P -1'
_symmetry_Int_Tables_number      2
_space_group_name_Hall           '-P 1'
loop_
_symmetry_equiv_pos_site_id
_symmetry_equiv_pos_as_xyz
1 x,y,z
2 -x,-y,-z
_cell_length_a                   10.958(3)
_cell_length_b                   13.378(4)
_cell_length_c                   13.420(4)
_cell_angle_alpha                98.345(5)
_cell_angle_beta                 112.438(5)
_cell_angle_gamma                96.676(6)
_cell_volume                     1767.15
loop_
_atom_site_label
_atom_site_type_symbol
_atom_site_fract_x
_atom_site_fract_y
_atom_site_fract_z
C25 C -0.354(2) 0.7495(16) 0.1332(16)
C26 C -0.392(3) 0.696(2) 0.0146(17)
C27 C -0.456(3) 0.5893(13) 0.021(2)
C28 C -0.501(4) 0.490(2) 0.054(3)
C29 C -0.434(3) 0.552(2) 0.071(2)
C30 C -0.398(3) 0.6698(18) 0.090(4)
C31 C -0.3394(17) 0.7611(14) 0.056(2)
C25A C -0.646(2) 0.2505(16) -0.1332(16)
C26A C -0.608(3) 0.304(2) -0.0146(17)
C27A C -0.544(3) 0.4107(13) -0.021(2)
C28A C -0.499(4) 0.510(2) -0.054(3)
C29A C -0.566(3) 0.448(2) -0.071(2)
C30A C -0.602(3) 0.3302(18) -0.090(4)
C31A C -0.6606(17) 0.2389(14) -0.056(2)
Cu1 Cu 0.5000 0.5000 0.5000
O1 O 0.3724(2) 0.37272(15) 0.47308(17)
C1 C 0.2064(5) 0.2560(3) 0.4822(4)
F1 F 0.1163(4) 0.2441(2) 0.5211(3)
F2 F 0.1546(7) 0.2078(5) 0.3696(5)
F3 F 0.2706(13) 0.2054(8) 0.5274(16)
C2 C 0.2806(3) 0.3648(2) 0.5063(3)
C3 C 0.2406(4) 0.4422(3) 0.5588(3)
H1 H 0.186(4) 0.425(3) 0.585(3)
C4 C 0.3001(3) 0.5434(2) 0.5825(3)
C5 C 0.2513(4) 0.6231(3) 0.6440(4)
F6 F 0.2196(10) 0.6961(7) 0.5926(8)
F7 F 0.1700(9) 0.5898(5) 0.6826(8)
F8 F 0.3613(8) 0.6774(7) 0.7375(8)
O2 O 0.3931(2) 0.58135(15) 0.55933(17)
Cu2 Cu 0.0000 0.0000 0.0000
O3 O 0.0271(2) -0.04594(15) 0.13840(17)
C6 C 0.0200(5) -0.0530(3) 0.3084(3)
F12 F -0.0007(4) 0.0017(2) 0.3857(2)
F13 F -0.0276(4) -0.14786(19) 0.2962(2)
F14 F 0.1493(4) -0.0490(4) 0.3493(3)
C7 C -0.0289(3) -0.0172(2) 0.2003(3)
C8 C -0.1291(4) 0.0407(3) 0.1792(3)
H2 H -0.156(4) 0.049(3) 0.226(3)
C9 C -0.1830(3) 0.0737(2) 0.0824(3)
C10 C -0.2975(4) 0.1333(3) 0.0638(3)
F15 F -0.3903(9) 0.1086(9) -0.0402(8)
F16 F -0.2576(10) 0.2303(7) 0.0769(9)
F17 F -0.3612(7) 0.1281(7) 0.1249(7)
O4 O -0.1493(2) 0.06238(15) 0.00302(17)
O5 O 0.4051(2) 0.51826(16) 0.32049(18)
N1 N 0.2809(2) 0.52507(18) 0.2689(2)
C11 C 0.2393(3) 0.6264(2) 0.2518(3)
C12 C 0.3107(4) 0.7073(2) 0.3572(3)
H3 H 0.4058 0.7182 0.3766
H4 H 0.2922 0.6844 0.4155
H5 H 0.2792 0.7706 0.3463
C13 C 0.2794(5) 0.6552(4) 0.1621(4)
H6 H 0.366(4) 0.658(2) 0.188(3)
H7 H 0.265(4) 0.723(4) 0.154(4)
H8 H 0.245(4) 0.611(3) 0.099(3)
C14 C 0.0861(3) 0.5948(2) 0.2140(3)
C15 C 0.0400(5) 0.6012(3) 0.3075(3)
H9 H -0.060(4) 0.574(3) 0.278(3)
H10 H 0.042(3) 0.663(3) 0.336(3)
H11 H 0.095(3) 0.561(3) 0.367(3)
C16 C 0.0014(5) 0.6453(3) 0.1250(3)
H12 H -0.089(4) 0.617(3) 0.104(3)
H13 H 0.018(3) 0.634(2) 0.063(3)
H14 H 0.030(4) 0.722(3) 0.151(3)
N2 N 0.0661(3) 0.48198(19) 0.1673(2)
O6 O -0.0496(2) 0.42798(18) 0.1093(2)
C17 C 0.1813(3) 0.4460(2) 0.2085(2)
C18 C 0.1931(3) 0.3399(2) 0.1864(2)
C19 C 0.0938(3) 0.2551(2) 0.1206(3)
H15 H 0.008(3) 0.252(2) 0.089(2)
N3 N 0.1426(3) 0.16945(18) 0.1171(2)
N4 N 0.2753(3) 0.19918(19) 0.1828(2)
C20 C 0.3645(5) 0.1238(3) 0.2028(4)
H16 H 0.427(5) 0.149(4) 0.181(4)
H17 H 0.318(5) 0.067(4) 0.160(5)
C21 C 0.4271(8) 0.1153(5) 0.3159(6)
H18 H 0.355(7) 0.058(6) 0.277(6)
H19 H 0.440(7) 0.162(5) 0.361(6)
C22 C 0.5128(13) 0.0377(11) 0.3281(10)
H20 H 0.467(12) -0.034(12) 0.300(11)
C23 C 0.6114(15) 0.0409(10) 0.3681(16)
C24 C 0.3080(3) 0.2995(2) 0.2245(3)
H25 H 0.392(4) 0.329(3) 0.267(3)
O1A O 0.6276(2) 0.62728(15) 0.52692(17)
C1A C 0.7936(5) 0.7440(3) 0.5178(4)
F1A F 0.8837(4) 0.7559(2) 0.4789(3)
F2A F 0.8454(7) 0.7922(5) 0.6304(5)
F3A F 0.7294(13) 0.7946(8) 0.4726(16)
C2A C 0.7194(3) 0.6352(2) 0.4937(3)
C3A C 0.7594(4) 0.5578(3) 0.4412(3)
H1A H 0.814(4) 0.575(3) 0.415(3)
C4A C 0.6999(3) 0.4566(2) 0.4175(3)
C5A C 0.7487(4) 0.3769(3) 0.3560(4)
F6A F 0.7804(10) 0.3039(7) 0.4074(8)
F7A F 0.8300(9) 0.4102(5) 0.3174(8)
F8A F 0.6387(8) 0.3226(7) 0.2625(8)
O2A O 0.6069(2) 0.41865(15) 0.44067(17)
Cu2_2 Cu 1.0000 1.0000 1.0000
O3A O -0.0271(2) 0.04594(15) -0.13840(17)
C6A C -0.0200(5) 0.0530(3) -0.3084(3)
F12A F 0.0007(4) -0.0017(2) -0.3857(2)
F13A F 0.0276(4) 0.14786(19) -0.2962(2)
F14A F -0.1493(4) 0.0490(4) -0.3493(3)
C7A C 0.0289(3) 0.0172(2) -0.2003(3)
C8A C 0.1291(4) -0.0407(3) -0.1792(3)
H2A H 0.156(4) -0.049(3) -0.226(3)
C9A C 0.1830(3) -0.0737(2) -0.0824(3)
C10A C 0.2975(4) -0.1333(3) -0.0638(3)
F15A F 0.3903(9) -0.1086(9) 0.0402(8)
F16A F 0.2576(10) -0.2303(7) -0.0769(9)
F17A F 0.3612(7) -0.1281(7) -0.1249(7)
O4A O 0.1493(2) -0.06238(15) -0.00302(17)
O5A O 0.5949(2) 0.48174(16) 0.67951(18)
N1A N 0.7191(2) 0.47493(18) 0.7311(2)
C11A C 0.7607(3) 0.3736(2) 0.7482(3)
C12A C 0.6893(4) 0.2927(2) 0.6428(3)
H3A H 0.5942 0.2818 0.6234
H4A H 0.7078 0.3156 0.5845
H5A H 0.7208 0.2294 0.6537
C13A C 0.7206(5) 0.3448(4) 0.8379(4)
H6A H 0.634(4) 0.342(2) 0.812(3)
H7A H 0.735(4) 0.277(4) 0.846(4)
H8A H 0.755(4) 0.389(3) 0.901(3)
C14A C 0.9139(3) 0.4052(2) 0.7860(3)
C15A C 0.9600(5) 0.3988(3) 0.6925(3)
H9A H 1.060(4) 0.426(3) 0.722(3)
H10A H 0.958(3) 0.337(3) 0.664(3)
H11A H 0.905(3) 0.439(3) 0.633(3)
C16A C 0.9986(5) 0.3547(3) 0.8750(3)
H12A H 1.089(4) 0.383(3) 0.896(3)
H13A H 0.982(3) 0.366(2) 0.937(3)
H14A H 0.970(4) 0.278(3) 0.849(3)
N2A N 0.9339(3) 0.51802(19) 0.8327(2)
O6A O 1.0496(2) 0.57202(18) 0.8907(2)
C17A C 0.8187(3) 0.5540(2) 0.7915(2)
C18A C 0.8069(3) 0.6601(2) 0.8136(2)
C19A C 0.9062(3) 0.7449(2) 0.8794(3)
H15A H 0.992(3) 0.748(2) 0.911(2)
N3A N 0.8574(3) 0.83055(18) 0.8829(2)
N3A_2 N -0.1426(3) -0.16945(18) -0.1171(2)
N4A N 0.7247(3) 0.80082(19) 0.8172(2)
C20A C 0.6355(5) 0.8762(3) 0.7972(4)
H16A H 0.573(5) 0.851(4) 0.819(4)
H17A H 0.682(5) 0.933(4) 0.840(5)
C21A C 0.5729(8) 0.8847(5) 0.6841(6)
H18A H 0.645(7) 0.942(6) 0.723(6)
H19A H 0.560(7) 0.838(5) 0.639(6)
C22A C 0.4872(13) 0.9623(11) 0.6719(10)
H20A H 0.533(12) 1.034(12) 0.700(11)
C23A C 0.3886(15) 0.9591(10) 0.6319(16)
C24A C 0.6920(3) 0.7005(2) 0.7755(3)
H25A H 0.608(4) 0.671(3) 0.733(3)
F4? F 0.1549(17) 0.2229(9) 0.3979(9)
F5? F 0.3031(11) 0.1910(7) 0.5310(9)
F9? F 0.2971(12) 0.6257(9) 0.7422(6)
F10? F 0.1151(7) 0.5966(6) 0.6086(7)
F11? F 0.2601(12) 0.7096(6) 0.6197(11)
F18? F -0.3183(11) 0.1517(10) 0.1546(8)
F19? F -0.4062(9) 0.0742(8) -0.0088(10)
F20? F -0.2744(11) 0.2143(8) 0.0331(10)
H21? H 0.486(16) -0.064(11) 0.366(11)
H22? H 0.906(15) -0.081(13) 0.328(13)
H23? H 1.069(18) 0.244(13) 0.401(16)
H24? H 0.480(19) -0.08(2) 0.27(2)
loop_
_geom_bond_atom_site_label_1
_geom_bond_atom_site_label_2
_geom_bond_site_symmetry_1
_geom_bond_site_symmetry_2
Cu1 O1 1_555 1_555
O1 C2 1_555 1_555
C1 F1 1_555 1_555
F2 C1 1_555 1_555
F3 C1 1_555 1_555
C2 C1 1_555 1_555
C3 C2 1_555 1_555
H1 C3 1_555 1_555
C4 C3 1_555 1_555
C5 C4 1_555 1_555
F6 C5 1_555 1_555
F7 C5 1_555 1_555
F8 C5 1_555 1_555
O2 Cu1 1_555 1_555
Cu2 O3 1_555 1_555
O3 C7 1_555 1_555
C6 F12 1_555 1_555
F13 C6 1_555 1_555
F14 C6 1_555 1_555
C7 C6 1_555 1_555
C8 C7 1_555 1_555
H2 C8 1_555 1_555
C9 C8 1_555 1_555
C10 C9 1_555 1_555
F15 C10 1_555 1_555
F16 C10 1_555 1_555
F17 C10 1_555 1_555
O4 Cu2 1_555 1_555
O5 Cu1 1_555 1_555
N1 O5 1_555 1_555
C11 N1 1_555 1_555
C12 C11 1_555 1_555
H3 C12 1_555 1_555
H4 C12 1_555 1_555
H5 C12 1_555 1_555
C13 C11 1_555 1_555
H6 C13 1_555 1_555
H7 C13 1_555 1_555
H8 C13 1_555 1_555
C14 C11 1_555 1_555
C15 C14 1_555 1_555
H9 C15 1_555 1_555
H10 C15 1_555 1_555
H11 C15 1_555 1_555
C16 C14 1_555 1_555
H12 C16 1_555 1_555
H13 C16 1_555 1_555
H14 C16 1_555 1_555
N2 C14 1_555 1_555
O6 N2 1_555 1_555
C17 N1 1_555 1_555
C18 C17 1_555 1_555
C19 C18 1_555 1_555
H15 C19 1_555 1_555
N3 Cu2 1_555 1_555
N4 N3 1_555 1_555
C20 N4 1_555 1_555
H16 C20 1_555 1_555
H17 C20 1_555 1_555
C21 C20 1_555 1_555
H18 C21 1_555 1_555
H19 C21 1_555 1_555
C22 C21 1_555 1_555
H20 C22 1_555 1_555
C23 C22 1_555 1_555
C24 C18 1_555 1_555
H25 C24 1_555 1_555
C25 C26 1_555 1_555
C26 C27 1_555 1_555
C27 C28 1_555 1_555
C28 C29 1_555 1_555
C29 C27 1_555 1_555
C30 C25 1_555 1_555
C31 C25 1_555 1_555
O1A Cu1 1_555 1_555
C1A F1A 1_555 1_555
F2A C1A 1_555 1_555
F3A C1A 1_555 1_555
C2A O1A 1_555 1_555
C3A C2A 1_555 1_555
H1A C3A 1_555 1_555
C4A C3A 1_555 1_555
C5A C4A 1_555 1_555
F6A C5A 1_555 1_555
F7A C5A 1_555 1_555
F8A C5A 1_555 1_555
O2A Cu1 1_555 1_555
Cu2_2 N3A 1_555 1_555
O3A Cu2 1_555 1_555
C6A F12A 1_555 1_555
F13A C6A 1_555 1_555
F14A C6A 1_555 1_555
C7A O3A 1_555 1_555
C8A C7A 1_555 1_555
H2A C8A 1_555 1_555
C9A C8A 1_555 1_555
C10A C9A 1_555 1_555
F15A C10A 1_555 1_555
F16A C10A 1_555 1_555
F17A C10A 1_555 1_555
O4A Cu2 1_555 1_555
O5A Cu1 1_555 1_555
N1A O5A 1_555 1_555
C11A N1A 1_555 1_555
C12A C11A 1_555 1_555
H3A C12A 1_555 1_555
H4A C12A 1_555 1_555
H5A C12A 1_555 1_555
C13A C11A 1_555 1_555
H6A C13A 1_555 1_555
H7A C13A 1_555 1_555
H8A C13A 1_555 1_555
C14A C11A 1_555 1_555
C15A C14A 1_555 1_555
H9A C15A 1_555 1_555
H10A C15A 1_555 1_555
H11A C15A 1_555 1_555
C16A C14A 1_555 1_555
H12A C16A 1_555 1_555
H13A C16A 1_555 1_555
H14A C16A 1_555 1_555
N2A C14A 1_555 1_555
O6A N2A 1_555 1_555
C17A N1A 1_555 1_555
C18A C17A 1_555 1_555
C19A C18A 1_555 1_555
H15A C19A 1_555 1_555
N3A C19A 1_555 1_555
N3A_2 Cu2 1_555 1_555
N4A N3A 1_555 1_555
C20A N4A 1_555 1_555
H16A C20A 1_555 1_555
H17A C20A 1_555 1_555
C21A C20A 1_555 1_555
H18A C21A 1_555 1_555
H19A C21A 1_555 1_555
C22A C21A 1_555 1_555
H20A C22A 1_555 1_555
C23A C22A 1_555 1_555
C24A C18A 1_555 1_555
H25A C24A 1_555 1_555
C25A C26A 1_555 1_555
C26A C27A 1_555 1_555
C27A C28 1_555 1_555
C28A C27 1_555 1_555
C29A C28 1_555 1_555
C30A C25A 1_555 1_555
C31A C25A 1_555 1_555
C4 O2 1_555 1_555
C9 O4 1_555 1_555
N2 C17 1_555 1_555
C19 N3 1_555 1_555
N4 C24 1_555 1_555
C26 C30 1_555 1_555
C26 C31 1_555 1_555
C27 C30 1_555 1_555
C28 C28A 1_555 1_555
C29 C30 1_555 1_555
C29 C28A 1_555 1_555
C30 C31 1_555 1_555
C1A C2A 1_555 1_555
C4A O2A 1_555 1_555
C6A C7A 1_555 1_555
C9A O4A 1_555 1_555
N2A C17A 1_555 1_555
N4A C24A 1_555 1_555
C26A C30A 1_555 1_555
C26A C31A 1_555 1_555
C27A C28A 1_555 1_555
C27A C29A 1_555 1_555
C27A C30A 1_555 1_555
C28A C29A 1_555 1_555
C29A C30A 1_555 1_555
C30A C31A 1_555 1_555

#END
