
#######################################################################
#
#                 Cambridge Crystallographic Data Centre
#                                CCDC 
#
#######################################################################
#
# If this CIF has been generated from an entry in the Cambridge 
# Structural Database, then it will include bibliographic, chemical, 
# crystal, experimental, refinement or atomic coordinate data resulting 
# from the CCDC's data processing and validation procedures.
#
#######################################################################

data_SOMFEG
_symmetry_cell_setting           tetragonal
_symmetry_space_group_name_H-M   'P 41 2 2'
_symmetry_Int_Tables_number      91
_space_group_name_Hall           'P 4w 2c'
loop_
_symmetry_equiv_pos_site_id
_symmetry_equiv_pos_as_xyz
1 x,y,z
2 -x,-y,1/2+z
3 -y,x,1/4+z
4 y,-x,3/4+z
5 -x,y,-z
6 x,-y,1/2-z
7 y,x,3/4-z
8 -y,-x,1/4-z
_cell_length_a                   13.5770(4)
_cell_length_b                   13.5770(4)
_cell_length_c                   15.5394(9)
_cell_angle_alpha                90
_cell_angle_beta                 90
_cell_angle_gamma                90
_cell_volume                     2864.45
loop_
_atom_site_label
_atom_site_type_symbol
_atom_site_fract_x
_atom_site_fract_y
_atom_site_fract_z
In1 In 0.42385(3) 0.0000 0.2500
S1 S 0.22330(12) 0.28496(12) 0.10754(10)
O1 O 0.3067(3) 0.1052(3) 0.2903(3)
O2 O 0.3529(3) 0.1149(3) 0.1560(3)
O3 O 0.0262(2) 0.4970(3) 0.1233(2)
O4 O 0.1207(3) 0.4531(3) 0.0155(3)
C2 C 0.2300(4) 0.2249(4) 0.2036(4)
C3 C 0.1652(5) 0.2625(5) 0.2627(4)
H1 H 0.1554 0.2368 0.3175
C4 C 0.1150(5) 0.3457(5) 0.2293(4)
H2 H 0.0715 0.3836 0.2615
C5 C 0.1366(4) 0.3644(4) 0.1464(4)
C6 C 0.2998(5) 0.1432(4) 0.2167(4)
C7 C 0.0925(4) 0.4429(4) 0.0913(4)
In1C In 0.0000 0.57615(3) 0.0000
In1B In 1.0000 0.42385(3) 0.5000
S1B S 0.71504(12) 0.22330(12) 0.35754(10)
O1B O 0.8948(3) 0.3067(3) 0.5403(3)
O1E O 0.3067(3) -0.1052(3) 0.2097(3)
O2B O 0.8851(3) 0.3529(3) 0.4060(3)
O2E O 0.3529(3) -0.1149(3) 0.3440(3)
O3B O 0.5030(3) 0.0262(2) 0.3733(2)
O3G O 0.5030(3) -0.0262(2) 0.1267(2)
O4B O 0.5469(3) 0.1207(3) 0.2655(3)
O4G O 0.5469(3) -0.1207(3) 0.2345(3)
C2B C 0.7751(4) 0.2300(4) 0.4536(4)
C3B C 0.7375(5) 0.1652(5) 0.5127(4)
H1B H 0.7632 0.1554 0.5675
C4B C 0.6543(5) 0.1150(5) 0.4793(4)
H2B H 0.6164 0.0715 0.5115
C5B C 0.6356(4) 0.1366(4) 0.3964(4)
C6B C 0.8568(4) 0.2998(5) 0.4667(4)
C7B C 0.5571(4) 0.0925(4) 0.3413(4)
C1 C 0.5540(15) 0.1959(17) 0.0570(14)
N1 N 0.5000 0.161(2) 0.0000
C1D C 0.4460(15) 0.1959(17) -0.0570(14)
loop_
_geom_bond_atom_site_label_1
_geom_bond_atom_site_label_2
_geom_bond_site_symmetry_1
_geom_bond_site_symmetry_2
C1 N1 1_555 1_555
N1 C1D 1_555 1_555
In1 O1 1_555 1_555
S1 C2 1_555 1_555
O1 C6 1_555 1_555
O2 In1 1_555 1_555
O3 C7 1_555 1_555
O4 C7 1_555 1_555
C2 C3 1_555 1_555
C3 H1 1_555 1_555
C4 C3 1_555 1_555
H2 C4 1_555 1_555
C5 S1 1_555 1_555
C6 O2 1_555 1_555
C7 C5 1_555 1_555
In1C O3 1_555 1_555
In1B O1B 1_555 1_555
S1B C2B 1_555 1_555
O1B C6B 1_555 1_555
O1E In1 1_555 1_555
O2B In1B 1_555 1_555
O2E In1 1_555 1_555
O3B In1 1_555 1_555
O3G In1 1_555 1_555
O4B In1 1_555 1_555
O4G In1 1_555 1_555
C2B C3B 1_555 1_555
C3B H1B 1_555 1_555
C4B C3B 1_555 1_555
H2B C4B 1_555 1_555
C5B S1B 1_555 1_555
C6B O2B 1_555 1_555
C7B O3B 1_555 1_555
O4 In1C 1_555 1_555
C2 C6 1_555 1_555
C4 C5 1_555 1_555
O4B C7B 1_555 1_555
C2B C6B 1_555 1_555
C4B C5B 1_555 1_555
C5B C7B 1_555 1_555

#END
