
#######################################################################
#
#                 Cambridge Crystallographic Data Centre
#                                CCDC 
#
#######################################################################
#
# If this CIF has been generated from an entry in the Cambridge 
# Structural Database, then it will include bibliographic, chemical, 
# crystal, experimental, refinement or atomic coordinate data resulting 
# from the CCDC's data processing and validation procedures.
#
#######################################################################

data_SOMFIK
_symmetry_cell_setting           tetragonal
_symmetry_space_group_name_H-M   'P 41 2 2'
_symmetry_Int_Tables_number      91
_space_group_name_Hall           'P 4w 2c'
loop_
_symmetry_equiv_pos_site_id
_symmetry_equiv_pos_as_xyz
1 x,y,z
2 -y,x,1/4+z
3 -x,-y,1/2+z
4 y,-x,3/4+z
5 x,-y,1/2-z
6 y,x,3/4-z
7 -x,y,-z
8 -y,-x,1/4-z
_cell_length_a                   13.5100(1)
_cell_length_b                   13.5100(1)
_cell_length_c                   16.0684(3)
_cell_angle_alpha                90
_cell_angle_beta                 90
_cell_angle_gamma                90
_cell_volume                     2932.81
loop_
_atom_site_label
_atom_site_type_symbol
_atom_site_fract_x
_atom_site_fract_y
_atom_site_fract_z
C7 C 0.555(2) -0.186(3) -0.064(2)
H3 H 0.5680 -0.2551 -0.0748
H4 H 0.5820 -0.1380 -0.1033
C8 C 0.711(3) -0.146(4) -0.095(3)
N1 N 0.471(3) -0.157(2) -0.010(3)
C7F C 0.445(2) -0.186(3) 0.064(2)
H3F H 0.4320 -0.2551 0.0748
H4F H 0.4180 -0.1380 0.1033
C8F C 0.289(3) -0.146(4) 0.095(3)
N1F N 0.529(3) -0.157(2) 0.010(3)
In1 In 0.58169(6) 0.0000 0.2500
S1 S 0.2862(2) 0.2218(2) 0.13937(16)
O1 O 0.4555(6) 0.1239(6) 0.2330(4)
O2 O 0.5020(6) 0.0260(5) 0.1324(4)
O3 O 0.1073(6) 0.3008(6) -0.0418(4)
O4 O 0.1146(5) 0.3472(5) 0.0883(4)
C1 C 0.3681(7) 0.1371(8) 0.1050(6)
C2 C 0.3540(8) 0.1149(9) 0.0229(6)
H1 H 0.3948 0.0721 -0.0067
C3 C 0.2722(8) 0.1625(9) -0.0125(6)
H2 H 0.2494 0.1519 -0.0664
C4 C 0.2301(7) 0.2275(7) 0.0436(6)
C5 C 0.4475(8) 0.0937(8) 0.1605(7)
C6 C 0.1468(7) 0.2941(7) 0.0288(6)
In1C In 0.0000 0.41831(6) 0.0000
In1A In 0.0000 -0.41831(6) 0.5000
S1D S 0.2862(2) -0.2218(2) 0.36063(16)
O1D O 0.4555(6) -0.1239(6) 0.2670(4)
O2D O 0.5020(6) -0.0260(5) 0.3676(4)
O3D O 0.1073(6) -0.3008(6) 0.5418(4)
O3A O 0.6992(6) 0.1073(6) 0.2082(4)
O3G O 0.6992(6) -0.1073(6) 0.2918(4)
O4D O 0.1146(5) -0.3472(5) 0.4117(4)
O4A O 0.6528(5) 0.1146(5) 0.3383(4)
O4G O 0.6528(5) -0.1146(5) 0.1617(4)
C1D C 0.3681(7) -0.1371(8) 0.3950(6)
C2D C 0.3540(8) -0.1149(9) 0.4771(6)
H1D H 0.3948 -0.0721 0.5067
C3D C 0.2722(8) -0.1625(9) 0.5125(6)
H2D H 0.2494 -0.1519 0.5664
C4D C 0.2301(7) -0.2275(7) 0.4564(6)
C5D C 0.4475(8) -0.0937(8) 0.3395(7)
C6D C 0.1468(7) -0.2941(7) 0.4712(6)
loop_
_geom_bond_atom_site_label_1
_geom_bond_atom_site_label_2
_geom_bond_site_symmetry_1
_geom_bond_site_symmetry_2
In1 O1 1_555 1_555
S1 C1 1_555 1_555
O1 C5 1_555 1_555
O2 In1 1_555 1_555
O3 C6 1_555 1_555
O4 C6 1_555 1_555
C1 C2 1_555 1_555
C2 H1 1_555 1_555
C3 C2 1_555 1_555
H2 C3 1_555 1_555
C4 S1 1_555 1_555
C5 O2 1_555 1_555
C6 C4 1_555 1_555
C7 H3 1_555 1_555
H4 C7 1_555 1_555
C8 C7 1_555 1_555
N1 C7 1_555 1_555
In1C O3 1_555 1_555
In1A O3D 1_555 1_555
S1D C1D 1_555 1_555
O1D In1 1_555 1_555
O2D In1 1_555 1_555
O3D C6D 1_555 1_555
O3A In1 1_555 1_555
O3G In1 1_555 1_555
O4D In1A 1_555 1_555
O4A In1 1_555 1_555
O4G In1 1_555 1_555
C1D C2D 1_555 1_555
C2D H1D 1_555 1_555
C3D C2D 1_555 1_555
H2D C3D 1_555 1_555
C4D S1D 1_555 1_555
C5D O1D 1_555 1_555
C6D O4D 1_555 1_555
C7F N1 1_555 1_555
H3F C7F 1_555 1_555
H4F C7F 1_555 1_555
C8F C7F 1_555 1_555
N1F C7 1_555 1_555
O4 In1C 1_555 1_555
C1 C5 1_555 1_555
C3 C4 1_555 1_555
N1 N1F 1_555 1_555
O2D C5D 1_555 1_555
C1D C5D 1_555 1_555
C3D C4D 1_555 1_555
C4D C6D 1_555 1_555
C7F N1F 1_555 1_555

#END
