
#######################################################################
#
#                 Cambridge Crystallographic Data Centre
#                                CCDC 
#
#######################################################################
#
# If this CIF has been generated from an entry in the Cambridge 
# Structural Database, then it will include bibliographic, chemical, 
# crystal, experimental, refinement or atomic coordinate data resulting 
# from the CCDC's data processing and validation procedures.
#
#######################################################################

data_SOMFAC
_symmetry_cell_setting           tetragonal
_symmetry_space_group_name_H-M   'P 43 2 2'
_symmetry_Int_Tables_number      95
_space_group_name_Hall           'P 4cw 2c'
loop_
_symmetry_equiv_pos_site_id
_symmetry_equiv_pos_as_xyz
1 x,y,z
2 -x,-y,1/2+z
3 -y,x,3/4+z
4 y,-x,1/4+z
5 -x,y,-z
6 x,-y,1/2-z
7 y,x,1/4-z
8 -y,-x,3/4-z
_cell_length_a                   13.559
_cell_length_b                   13.559
_cell_length_c                   15.6782(2)
_cell_angle_alpha                90
_cell_angle_beta                 90
_cell_angle_gamma                90
_cell_volume                     2882.38
loop_
_atom_site_label
_atom_site_type_symbol
_atom_site_fract_x
_atom_site_fract_y
_atom_site_fract_z
In1 In 0.5000 0.07701(4) 0.0000
S1 S 0.27708(15) -0.21496(14) 0.10828(11)
O1 O 0.3791(4) -0.0473(4) 0.0160(3)
O2 O 0.4733(3) -0.0021(4) 0.1219(3)
O3 O 0.1480(4) -0.3844(3) 0.1575(3)
O4 O 0.1943(4) -0.3940(4) 0.2908(3)
C2 C 0.3848(6) -0.1509(6) 0.2286(4)
H1 H 0.4285 -0.1125 0.2601
C3 C 0.2701(5) -0.2724(5) 0.2038(4)
C4 C 0.3635(5) -0.1340(5) 0.1459(4)
C5 C 0.3340(6) -0.2331(6) 0.2626(4)
H2 H 0.3426 -0.2573 0.3176
C6 C 0.4069(5) -0.0571(5) 0.0912(4)
C7 C 0.2004(6) -0.3550(5) 0.2177(4)
In1C In 0.07701(4) -0.5000 0.2500
In1B In -0.07701(4) 0.5000 -0.2500
S1B S 0.21496(14) 0.27708(15) -0.14172(11)
O1B O 0.0473(4) 0.3791(4) -0.2340(3)
O1D O 0.6209(4) -0.0473(4) -0.0160(3)
O2B O 0.0021(4) 0.4733(3) -0.1281(3)
O2D O 0.5267(3) -0.0021(4) -0.1219(3)
O3B O 0.3844(3) 0.1480(4) -0.0925(3)
O3F O 0.6156(3) 0.1480(4) 0.0925(3)
O4B O 0.3940(4) 0.1943(4) 0.0408(3)
O4F O 0.6060(4) 0.1943(4) -0.0408(3)
C2B C 0.1509(6) 0.3848(6) -0.0214(4)
H1B H 0.1125 0.4285 0.0101
C3B C 0.2724(5) 0.2701(5) -0.0462(4)
C4B C 0.1340(5) 0.3635(5) -0.1041(4)
C5B C 0.2331(6) 0.3340(6) 0.0126(4)
H2B H 0.2573 0.3426 0.0676
C6B C 0.0571(5) 0.4069(5) -0.1588(4)
C7B C 0.3550(5) 0.2004(6) -0.0323(4)
C1 C 0.696(3) 0.049(2) 0.316(2)
N1 N 0.672(3) 0.0000 0.2500
C1E C 0.696(3) -0.049(2) 0.184(2)
loop_
_geom_bond_atom_site_label_1
_geom_bond_atom_site_label_2
_geom_bond_site_symmetry_1
_geom_bond_site_symmetry_2
C1 N1 1_555 1_555
N1 C1E 1_555 1_555
In1 O1 1_555 1_555
S1 C3 1_555 1_555
O1 C6 1_555 1_555
O2 In1 1_555 1_555
O3 C7 1_555 1_555
O4 C7 1_555 1_555
C2 H1 1_555 1_555
C3 C5 1_555 1_555
C4 S1 1_555 1_555
C5 C2 1_555 1_555
H2 C5 1_555 1_555
C6 O2 1_555 1_555
C7 C3 1_555 1_555
In1C O3 1_555 1_555
In1B O1B 1_555 1_555
S1B C3B 1_555 1_555
O1B C6B 1_555 1_555
O1D In1 1_555 1_555
O2B In1B 1_555 1_555
O2D In1 1_555 1_555
O3B In1 1_555 1_555
O3F In1 1_555 1_555
O4B In1 1_555 1_555
O4F In1 1_555 1_555
C2B H1B 1_555 1_555
C3B C5B 1_555 1_555
C4B S1B 1_555 1_555
C5B C2B 1_555 1_555
H2B C5B 1_555 1_555
C6B O2B 1_555 1_555
C7B O3B 1_555 1_555
O4 In1C 1_555 1_555
C2 C4 1_555 1_555
C4 C6 1_555 1_555
O4B C7B 1_555 1_555
C2B C4B 1_555 1_555
C3B C7B 1_555 1_555
C4B C6B 1_555 1_555

#END
