
#######################################################################
#
#                 Cambridge Crystallographic Data Centre
#                                CCDC 
#
#######################################################################
#
# If this CIF has been generated from an entry in the Cambridge 
# Structural Database, then it will include bibliographic, chemical, 
# crystal, experimental, refinement or atomic coordinate data resulting 
# from the CCDC's data processing and validation procedures.
#
#######################################################################

data_SOMFOQ
_symmetry_cell_setting           monoclinic
_symmetry_space_group_name_H-M   'C 2/c'
_symmetry_Int_Tables_number      15
_space_group_name_Hall           '-C 2yn'
loop_
_symmetry_equiv_pos_site_id
_symmetry_equiv_pos_as_xyz
1 x,y,z
2 1/2+x,1/2+y,z
3 -x,y,1/2-z
4 1/2-x,1/2+y,1/2-z
5 -x,-y,-z
6 1/2-x,1/2-y,-z
7 x,-y,1/2+z
8 1/2+x,1/2-y,1/2+z
_cell_length_a                   21.0089(14)
_cell_length_b                   12.0447(8)
_cell_length_c                   7.3182(5)
_cell_angle_alpha                90
_cell_angle_beta                 99.247(1)
_cell_angle_gamma                90
_cell_volume                     1827.78
loop_
_atom_site_label
_atom_site_type_symbol
_atom_site_fract_x
_atom_site_fract_y
_atom_site_fract_z
Mn1 Mn 1.0000 0.60860(3) 0.7500
O1 O 1.04584(7) 0.62830(13) 0.5064(2)
O2 O 1.07938(8) 0.48760(14) 0.3551(3)
N1 N 1.05487(9) 0.76091(15) 0.8656(2)
C1 C 1.11009(12) 0.7565(2) 0.9800(3)
H1 H 1.1265 0.6873 1.0190
C2 C 1.14393(13) 0.8481(3) 1.0433(4)
H2 H 1.1826 0.8421 1.1246
C3 C 1.12007(14) 0.9483(2) 0.9854(4)
H3 H 1.1428 1.0125 1.0248
C4 C 1.06276(13) 0.9552(2) 0.8693(4)
H4 H 1.0455 1.0238 0.8294
C5 C 1.03110(10) 0.85921(18) 0.8126(3)
C6 C 1.08689(10) 0.57833(17) 0.4350(3)
C7 C 1.15153(9) 0.63088(16) 0.4414(3)
C8 C 1.19504(10) 0.58717(17) 0.3351(3)
H5 H 1.1840 0.5242 0.2635
C9 C 1.25291(10) 0.63537(18) 0.3354(3)
H6 H 1.2809 0.6065 0.2611
C10 C 1.27157(9) 0.72835(17) 0.4458(3)
C11 C 1.16802(10) 0.72143(18) 0.5476(3)
H7 H 1.1388 0.7508 0.6175
Mn1F Mn 1.0000 0.39140(3) 0.2500
Mn1G Mn 1.5000 0.89140(3) 0.2500
Mn1A Mn 1.5000 1.10860(3) 0.7500
O1E O 1.45416(7) 0.87170(13) 0.4936(2)
O1B O 0.95416(7) 0.62830(13) 0.9936(2)
O2E O 1.42062(8) 1.01240(14) 0.6449(3)
O2F O 1.07938(8) 0.51240(14) 0.8551(3)
O2D O 0.92062(8) 0.51240(14) 0.6449(3)
N1B N 0.94513(9) 0.76091(15) 0.6344(2)
C1B C 0.88991(12) 0.7565(2) 0.5200(3)
H1B H 0.8735 0.6873 0.4810
C2B C 0.85607(13) 0.8481(3) 0.4567(4)
H2B H 0.8174 0.8421 0.3754
C3B C 0.87993(14) 0.9483(2) 0.5146(4)
H3B H 0.8572 1.0125 0.4752
C4B C 0.93724(13) 0.9552(2) 0.6307(4)
H4B H 0.9545 1.0238 0.6706
C5B C 0.96890(10) 0.85921(18) 0.6874(3)
C6E C 1.41311(10) 0.92167(17) 0.5650(3)
C7E C 1.34847(9) 0.86912(16) 0.5586(3)
C8E C 1.30496(10) 0.91283(17) 0.6649(3)
H5E H 1.3160 0.9758 0.7365
C9E C 1.24709(10) 0.86463(18) 0.6646(3)
H6E H 1.2191 0.8935 0.7389
C10E C 1.22843(9) 0.77165(17) 0.5542(3)
C11E C 1.33198(10) 0.77857(18) 0.4524(3)
H7E H 1.3612 0.7492 0.3825
O3 O 1.0000 0.8009(2) 1.2500
H8 H 0.9869(17) 0.765(3) 1.164(4)
H8B H 1.0131(17) 0.765(3) 1.336(4)
loop_
_geom_bond_atom_site_label_1
_geom_bond_atom_site_label_2
_geom_bond_site_symmetry_1
_geom_bond_site_symmetry_2
Mn1 O1 1_555 1_555
O1 C6 1_555 1_555
O2 C6 1_555 1_555
N1 Mn1 1_555 1_555
C1 N1 1_555 1_555
H1 C1 1_555 1_555
C2 C1 1_555 1_555
H2 C2 1_555 1_555
C3 C2 1_555 1_555
H3 C3 1_555 1_555
C4 C3 1_555 1_555
H4 C4 1_555 1_555
C5 N1 1_555 1_555
C6 C7 1_555 1_555
C7 C8 1_555 1_555
C8 H5 1_555 1_555
C9 C8 1_555 1_555
H6 C9 1_555 1_555
C10 C9 1_555 1_555
C11 C7 1_555 1_555
H7 C11 1_555 1_555
O3 H8 1_555 1_555
Mn1F O2 1_555 1_555
Mn1G O1E 1_555 1_555
Mn1A O2E 1_555 1_555
O1E C6E 1_555 1_555
O1B Mn1 1_555 1_555
O2E C6E 1_555 1_555
O2F Mn1 1_555 1_555
O2D Mn1 1_555 1_555
N1B Mn1 1_555 1_555
C1B N1B 1_555 1_555
H1B C1B 1_555 1_555
C2B C1B 1_555 1_555
H2B C2B 1_555 1_555
C3B C2B 1_555 1_555
H3B C3B 1_555 1_555
C4B C3B 1_555 1_555
H4B C4B 1_555 1_555
C5B C5 1_555 1_555
C6E C7E 1_555 1_555
C7E C8E 1_555 1_555
C8E H5E 1_555 1_555
C9E C8E 1_555 1_555
H6E C9E 1_555 1_555
C10E C10 1_555 1_555
C11E C10 1_555 1_555
H7E C11E 1_555 1_555
H8B O3 1_555 1_555
C4 C5 1_555 1_555
C11 C10E 1_555 1_555
N1B C5B 1_555 1_555
C4B C5B 1_555 1_555
C7E C11E 1_555 1_555
C9E C10E 1_555 1_555

#END
