
#######################################################################
#
#                 Cambridge Crystallographic Data Centre
#                                CCDC 
#
#######################################################################
#
# If this CIF has been generated from an entry in the Cambridge 
# Structural Database, then it will include bibliographic, chemical, 
# crystal, experimental, refinement or atomic coordinate data resulting 
# from the CCDC's data processing and validation procedures.
#
#######################################################################

data_SOMHOS
_symmetry_cell_setting           monoclinic
_symmetry_space_group_name_H-M   'P 21/n'
_symmetry_Int_Tables_number      14
_space_group_name_Hall           '-P 2yn'
loop_
_symmetry_equiv_pos_site_id
_symmetry_equiv_pos_as_xyz
1 x,y,z
2 1/2-x,1/2+y,1/2-z
3 -x,-y,-z
4 1/2+x,1/2-y,1/2+z
_cell_length_a                   9.5020(12)
_cell_length_b                   19.628(2)
_cell_length_c                   9.7525(13)
_cell_angle_alpha                90
_cell_angle_beta                 110.245(2)
_cell_angle_gamma                90
_cell_volume                     1706.52
loop_
_atom_site_label
_atom_site_type_symbol
_atom_site_fract_x
_atom_site_fract_y
_atom_site_fract_z
Cd1 Cd 1.0000 0.5000 1.0000
N1 N 0.8046(3) 0.57596(14) 0.8889(3)
N2 N 0.1348(3) 0.58660(14) 0.1625(3)
O1 O 1.1067(3) 0.53232(14) 0.8269(3)
H1 H 1.0975 0.5725 0.7923
H2 H 1.1642 0.5101 0.7931
S1 S 0.44411(10) 0.73217(4) 0.66222(9)
S2 S 0.45106(10) 0.74243(4) 0.45790(9)
C1 C 0.7666(4) 0.58754(18) 0.7458(4)
H3 H 0.8160 0.5633 0.6941
C2 C 0.6578(4) 0.63355(18) 0.6707(4)
H4 H 0.6349 0.6399 0.5708
C3 C 0.5836(3) 0.66995(16) 0.7450(3)
C4 C 0.6203(4) 0.65833(18) 0.8932(4)
H5 H 0.5717 0.6817 0.9469
C5 C 0.7304(4) 0.61135(18) 0.9593(4)
H6 H 0.7547 0.6038 1.0589
C6 C 0.2174(4) 0.63027(18) 0.1175(4)
H7 H 0.2099 0.6287 0.0199
C7 C 0.3127(4) 0.67731(18) 0.2065(4)
H8 H 0.3684 0.7064 0.1699
C8 C 0.3244(4) 0.68062(16) 0.3515(3)
C9 C 0.2377(4) 0.63732(18) 0.3998(4)
H9 H 0.2417 0.6386 0.4964
C10 C 0.1447(4) 0.59185(18) 0.3020(4)
H10 H 0.0854 0.5632 0.3352
Cd1_2 Cd 0.0000 0.5000 0.0000
N1B N 0.1954(3) 0.42404(14) 0.1111(3)
N1B_2 N 1.1954(3) 0.42404(14) 1.1111(3)
N2B N 0.8652(3) 0.41340(14) 0.8375(3)
N2_2 N 1.1348(3) 0.58660(14) 1.1625(3)
O1B O 0.8933(3) 0.46768(14) 1.1731(3)
H1B H 0.9025 0.4275 1.2077
H2B H 0.8358 0.4899 1.2069
S1B S 0.55589(10) 0.26783(4) 0.33778(9)
S2B S 0.54894(10) 0.25757(4) 0.54210(9)
C1B C 0.2334(4) 0.41246(18) 0.2542(4)
H3B H 0.1840 0.4367 0.3059
C2B C 0.3422(4) 0.36645(18) 0.3293(4)
H4B H 0.3651 0.3601 0.4292
C3B C 0.4164(3) 0.33005(16) 0.2550(3)
C4B C 0.3797(4) 0.34167(18) 0.1068(4)
H5B H 0.4283 0.3183 0.0531
C5B C 0.2696(4) 0.38865(18) 0.0407(4)
H6B H 0.2453 0.3962 -0.0589
C6B C 0.7826(4) 0.36973(18) 0.8825(4)
H7B H 0.7901 0.3713 0.9801
C7B C 0.6873(4) 0.32269(18) 0.7935(4)
H8B H 0.6316 0.2936 0.8301
C8B C 0.6756(4) 0.31938(16) 0.6485(3)
C9B C 0.7623(4) 0.36268(18) 0.6002(4)
H9B H 0.7583 0.3614 0.5036
C10B C 0.8553(4) 0.40815(18) 0.6980(4)
H10B H 0.9146 0.4368 0.6648
N3 N 0.2862(4) 0.8042(2) 0.8725(4)
O2 O 0.3300(4) 0.74744(17) 0.9222(4)
O3 O 0.3516(4) 0.8563(2) 0.9364(4)
O4 O 0.1778(4) 0.81032(17) 0.7591(4)
O5 O 0.0905(4) 0.65650(16) 0.7073(4)
H11 H 0.1432 0.6914 0.7435
H12 H 0.0265 0.6669 0.6247
O6 O 0.2859(6) 0.4713(2) 0.7114(7)
H13 H 0.2670 0.4317 0.6844
C11 C 0.4191(8) 0.4858(3) 0.7190(11)
H14 H 0.4302 0.5344 0.7172
H15 H 0.4386 0.4660 0.6374
H16 H 0.4890 0.4680 0.8083
loop_
_geom_bond_atom_site_label_1
_geom_bond_atom_site_label_2
_geom_bond_site_symmetry_1
_geom_bond_site_symmetry_2
Cd1 N1 1_555 1_555
N1 C1 1_555 1_555
N2 C6 1_555 1_555
O1 Cd1 1_555 1_555
H1 O1 1_555 1_555
H2 O1 1_555 1_555
S1 S2 1_555 1_555
S2 C8 1_555 1_555
C1 H3 1_555 1_555
C2 C1 1_555 1_555
H4 C2 1_555 1_555
C3 S1 1_555 1_555
C4 C3 1_555 1_555
H5 C4 1_555 1_555
C5 N1 1_555 1_555
H6 C5 1_555 1_555
C6 H7 1_555 1_555
C7 C6 1_555 1_555
H8 C7 1_555 1_555
C8 C7 1_555 1_555
C9 C8 1_555 1_555
H9 C9 1_555 1_555
C10 N2 1_555 1_555
H10 C10 1_555 1_555
N3 O2 1_555 1_555
O3 N3 1_555 1_555
O4 N3 1_555 1_555
O5 H11 1_555 1_555
H12 O5 1_555 1_555
O6 H13 1_555 1_555
C11 O6 1_555 1_555
H14 C11 1_555 1_555
H15 C11 1_555 1_555
H16 C11 1_555 1_555
Cd1_2 N2 1_555 1_555
N1B Cd1_2 1_555 1_555
N1B_2 Cd1 1_555 1_555
N2B Cd1 1_555 1_555
N2_2 Cd1 1_555 1_555
O1B Cd1 1_555 1_555
H1B O1B 1_555 1_555
H2B O1B 1_555 1_555
S1B S2B 1_555 1_555
S2B C8B 1_555 1_555
C1B N1B 1_555 1_555
H3B C1B 1_555 1_555
C2B C1B 1_555 1_555
H4B C2B 1_555 1_555
C3B S1B 1_555 1_555
C4B C3B 1_555 1_555
H5B C4B 1_555 1_555
C5B N1B 1_555 1_555
H6B C5B 1_555 1_555
C6B N2B 1_555 1_555
H7B C6B 1_555 1_555
C7B C6B 1_555 1_555
H8B C7B 1_555 1_555
C8B C7B 1_555 1_555
C9B C8B 1_555 1_555
H9B C9B 1_555 1_555
C10B N2B 1_555 1_555
H10B C10B 1_555 1_555
C2 C3 1_555 1_555
C4 C5 1_555 1_555
C9 C10 1_555 1_555
C2B C3B 1_555 1_555
C4B C5B 1_555 1_555
C9B C10B 1_555 1_555

#END
