
#######################################################################
#
#                 Cambridge Crystallographic Data Centre
#                                CCDC 
#
#######################################################################
#
# If this CIF has been generated from an entry in the Cambridge 
# Structural Database, then it will include bibliographic, chemical, 
# crystal, experimental, refinement or atomic coordinate data resulting 
# from the CCDC's data processing and validation procedures.
#
#######################################################################

data_SOMKUC
_symmetry_cell_setting           monoclinic
_symmetry_space_group_name_H-M   'P 21/c'
_symmetry_Int_Tables_number      14
_space_group_name_Hall           '-P 2ybc'
loop_
_symmetry_equiv_pos_site_id
_symmetry_equiv_pos_as_xyz
1 x,y,z
2 -x,1/2+y,1/2-z
3 -x,-y,-z
4 x,1/2-y,1/2+z
_cell_length_a                   12.511(3)
_cell_length_b                   10.165(2)
_cell_length_c                   12.487(3)
_cell_angle_alpha                90
_cell_angle_beta                 102.05(3)
_cell_angle_gamma                90
_cell_volume                     1553.03
loop_
_atom_site_label
_atom_site_type_symbol
_atom_site_fract_x
_atom_site_fract_y
_atom_site_fract_z
C1 C 0.1806(6) 0.9650(8) 0.1877(7)
C2 C 0.0856(6) 0.9800(7) 0.0882(7)
C3 C 0.0745(6) 1.0990(7) 0.0335(6)
H1 H 0.1261 1.1671 0.0570
C4 C 0.0117(6) 0.8794(7) 0.0559(6)
C5 C 0.0215(6) 0.7454(8) 0.1060(7)
C6 C 0.5040(6) 0.7869(7) 0.2110(6)
C7 C 0.2995(6) 0.9639(7) 0.5132(7)
N1 N 0.5163(5) 0.6579(6) 0.2304(5)
N2 N 0.4691(6) 0.6322(6) 0.3164(6)
N3 N 0.4288(6) 0.7406(6) 0.3469(6)
N4 N 0.4488(5) 0.8406(6) 0.2821(5)
N5 N 0.5352(5) 0.8539(6) 0.1294(6)
H2 H 0.5670 0.8123 0.0827
H3 H 0.5238 0.9392 0.1229
N6 N 0.3519(5) 1.0382(6) 0.4527(5)
N7 N 0.3402(6) 1.1643(6) 0.4877(6)
N8 N 0.2838(6) 1.1629(6) 0.5615(6)
N9 N 0.2562(6) 1.0360(6) 0.5803(6)
N10 N 0.2950(6) 0.8317(6) 0.5081(6)
H4 H 0.2612 0.7876 0.5518
H5 H 0.3259 0.7894 0.4611
O1 O 0.2609(4) 1.0421(6) 0.1901(5)
O2 O 0.1731(5) 0.8852(6) 0.2584(5)
O3 O 0.1028(5) 0.6782(5) 0.0961(5)
O4 O -0.0514(6) 0.7029(7) 0.1471(8)
O5 O 0.1827(5) 0.8974(6) 0.8136(5)
H6 H 0.1730 0.8183 0.7985
H7 H 0.2355 0.9193 0.8661
O6 O 0.2002(5) 1.1738(6) 0.7649(5)
H8 H 0.2034 1.2233 0.8204
H9 H 0.2431 1.2053 0.7269
O7 O -0.0025(5) 1.0680(8) 0.6344(6)
H10 H -0.0576 1.0597 0.6638
H11 H -0.0229 1.1108 0.5752
Zn1 Zn 0.39013(7) 1.01504(8) 0.30914(7)
Zn2 Zn 0.14903(8) 1.00020(8) 0.67564(8)
C1B C -0.1806(6) 1.0350(8) -0.1877(7)
C2B C -0.0856(6) 1.0200(7) -0.0882(7)
C3B C -0.0745(6) 0.9010(7) -0.0335(6)
H1B H -0.1261 0.8329 -0.0570
O1B O -0.2609(4) 0.9579(6) -0.1901(5)
O2B O -0.1731(5) 1.1148(6) -0.2584(5)
C4B C -0.0117(6) 1.1206(7) -0.0559(6)
C5B C -0.0215(6) 1.2546(8) -0.1060(7)
O3B O -0.1028(5) 1.3218(5) -0.0961(5)
O4B O 0.0514(6) 1.2971(7) -0.1471(8)
C6B C -0.5040(6) 1.2131(7) -0.2110(6)
C7B C -0.2995(6) 1.0361(7) -0.5132(7)
N1B N -0.5163(5) 1.3421(6) -0.2304(5)
N2B N -0.4691(6) 1.3678(6) -0.3164(6)
N3B N -0.4288(6) 1.2594(6) -0.3469(6)
N4B N -0.4488(5) 1.1594(6) -0.2821(5)
N5B N -0.5352(5) 1.1461(6) -0.1294(6)
H2B H -0.5670 1.1877 -0.0827
H3B H -0.5238 1.0608 -0.1229
N6B N -0.3519(5) 0.9618(6) -0.4527(5)
N7B N -0.3402(6) 0.8357(6) -0.4877(6)
N8B N -0.2838(6) 0.8371(6) -0.5615(6)
N9B N -0.2562(6) 0.9640(6) -0.5803(6)
N10B N -0.2950(6) 1.1683(6) -0.5081(6)
H4B H -0.2612 1.2124 -0.5518
H5B H -0.3259 1.2106 -0.4611
O5B O -0.1827(5) 1.1026(6) -0.8136(5)
H6B H -0.1730 1.1817 -0.7985
H7B H -0.2355 1.0807 -0.8661
O6B O -0.2002(5) 0.8262(6) -0.7649(5)
H8B H -0.2034 0.7767 -0.8204
H9B H -0.2431 0.7947 -0.7269
O7B O 0.0025(5) 0.9320(8) -0.6344(6)
H10B H 0.0576 0.9403 -0.6638
H11B H 0.0229 0.8892 -0.5752
Zn1B Zn -0.39013(7) 0.98496(8) -0.30914(7)
Zn2B Zn -0.14903(8) 0.99980(8) -0.67564(8)
N1A N 0.4837(5) 1.1579(6) 0.2696(5)
N1C N -0.4837(5) 0.8421(6) -0.2696(5)
O3A O -0.1028(5) 1.1782(5) -0.5961(5)
O3C O 0.1028(5) 0.8218(5) 0.5961(5)
Zn1A Zn 0.60987(7) 0.51504(8) 0.19086(7)
Zn1C Zn -0.60987(7) 1.48496(8) -0.19086(7)
Zn2A Zn -0.14903(8) 1.50020(8) -0.17564(8)
Zn2C Zn 0.14903(8) 0.49980(8) 0.17564(8)
O8 O 0.3280(5) 0.9781(6) -0.0121(5)
H12 H 0.3041 1.0164 0.0386
H13 H 0.3852 0.9312 0.0077
loop_
_geom_bond_atom_site_label_1
_geom_bond_atom_site_label_2
_geom_bond_site_symmetry_1
_geom_bond_site_symmetry_2
C1 C2 1_555 1_555
C2 C3 1_555 1_555
C3 H1 1_555 1_555
C4 C2 1_555 1_555
C5 C4 1_555 1_555
C6 N1 1_555 1_555
C7 N6 1_555 1_555
N1 N2 1_555 1_555
N2 N3 1_555 1_555
N3 N4 1_555 1_555
N4 C6 1_555 1_555
N5 C6 1_555 1_555
H2 N5 1_555 1_555
H3 N5 1_555 1_555
N6 N7 1_555 1_555
N7 N8 1_555 1_555
N8 N9 1_555 1_555
N9 C7 1_555 1_555
N10 C7 1_555 1_555
H4 N10 1_555 1_555
H5 N10 1_555 1_555
O1 C1 1_555 1_555
O2 C1 1_555 1_555
O3 C5 1_555 1_555
O4 C5 1_555 1_555
O5 H6 1_555 1_555
H7 O5 1_555 1_555
O6 H8 1_555 1_555
H9 O6 1_555 1_555
O7 H10 1_555 1_555
H11 O7 1_555 1_555
Zn1 N4 1_555 1_555
Zn2 N9 1_555 1_555
O8 H12 1_555 1_555
H13 O8 1_555 1_555
C1B C2B 1_555 1_555
C2B C3B 1_555 1_555
C3B C4 1_555 1_555
H1B C3B 1_555 1_555
O1B C1B 1_555 1_555
O2B C1B 1_555 1_555
C4B C3 1_555 1_555
C5B C4B 1_555 1_555
O3B C5B 1_555 1_555
O4B C5B 1_555 1_555
C6B N1B 1_555 1_555
C7B N6B 1_555 1_555
N1B N2B 1_555 1_555
N2B N3B 1_555 1_555
N3B N4B 1_555 1_555
N4B C6B 1_555 1_555
N5B C6B 1_555 1_555
H2B N5B 1_555 1_555
H3B N5B 1_555 1_555
N6B N7B 1_555 1_555
N7B N8B 1_555 1_555
N8B N9B 1_555 1_555
N9B C7B 1_555 1_555
N10B C7B 1_555 1_555
H4B N10B 1_555 1_555
H5B N10B 1_555 1_555
O5B H6B 1_555 1_555
H7B O5B 1_555 1_555
O6B H8B 1_555 1_555
H9B O6B 1_555 1_555
O7B H10B 1_555 1_555
H11B O7B 1_555 1_555
Zn1B O1B 1_555 1_555
Zn2B N9B 1_555 1_555
N1A Zn1 1_555 1_555
N1C Zn1B 1_555 1_555
O3A Zn2B 1_555 1_555
O3C Zn2 1_555 1_555
Zn1A N1 1_555 1_555
Zn1C N1B 1_555 1_555
Zn2A O3B 1_555 1_555
Zn2C O3 1_555 1_555
N6 Zn1 1_555 1_555
O1 Zn1 1_555 1_555
O5 Zn2 1_555 1_555
O6 Zn2 1_555 1_555
O7 Zn2 1_555 1_555
C2B C4B 1_555 1_555
N4B Zn1B 1_555 1_555
N6B Zn1B 1_555 1_555
O5B Zn2B 1_555 1_555
O6B Zn2B 1_555 1_555
O7B Zn2B 1_555 1_555

#END
