
#######################################################################
#
#                 Cambridge Crystallographic Data Centre
#                                CCDC 
#
#######################################################################
#
# If this CIF has been generated from an entry in the Cambridge 
# Structural Database, then it will include bibliographic, chemical, 
# crystal, experimental, refinement or atomic coordinate data resulting 
# from the CCDC's data processing and validation procedures.
#
#######################################################################

data_SOMMOY
_symmetry_cell_setting           monoclinic
_symmetry_space_group_name_H-M   'P 21'
_symmetry_Int_Tables_number      4
_space_group_name_Hall           'P 2yb'
loop_
_symmetry_equiv_pos_site_id
_symmetry_equiv_pos_as_xyz
1 x,y,z
2 -x,1/2+y,-z
_cell_length_a                   7.6233(6)
_cell_length_b                   12.8461(10)
_cell_length_c                   9.4625(7)
_cell_angle_alpha                90
_cell_angle_beta                 98.1550(10)
_cell_angle_gamma                90
_cell_volume                     917.289
loop_
_atom_site_label
_atom_site_type_symbol
_atom_site_fract_x
_atom_site_fract_y
_atom_site_fract_z
C1 C 0.7119(3) 0.11149(18) 0.4387(2)
H1 H 0.6659 0.0842 0.5167
C2 C 0.7228(3) 0.04706(19) 0.3233(3)
H2 H 0.6851 -0.0217 0.3254
C3 C 0.7902(3) 0.08485(19) 0.2036(3)
H3 H 0.7993 0.0427 0.1251
C4 C 0.8423(3) 0.18736(18) 0.2071(2)
C5 C 0.9171(3) 0.2583(2) 0.1039(3)
C6 C 0.9390(2) 0.3622(3) 0.17581(19)
C7 C 1.0001(3) 0.4579(2) 0.1391(3)
H4 H 1.0365 0.4693 0.0506
C8 C 1.0049(3) 0.5374(2) 0.2407(3)
H5 H 1.0489 0.6026 0.2215
C9 C 0.9445(3) 0.51923(17) 0.3698(3)
H6 H 0.9428 0.5746 0.4329
C10 C 0.8864(2) 0.3516(2) 0.3100(2)
C11 C 0.8275(3) 0.24562(16) 0.3282(2)
C12 C 0.4313(3) 0.19306(15) 0.9233(2)
C13 C 0.3771(3) 0.11221(16) 1.0031(2)
H7 H 0.3678 0.0454 0.9650
C14 C 0.3361(3) 0.12964(15) 1.1403(2)
C15 C 0.3489(3) 0.23148(16) 1.1954(2)
C16 C 0.4067(3) 0.31269(17) 1.1150(2)
H8 H 0.4169 0.3797 1.1525
C17 C 0.4488(3) 0.29364(16) 0.9797(2)
H9 H 0.4885 0.3475 0.9267
C18 C 0.2836(3) 0.04158(16) 1.2294(2)
Cd1 Cd 0.760273(16) 0.360333(13) 0.613628(12)
N1 N 0.7645(2) 0.21201(14) 0.44437(19)
N2 N 0.8881(2) 0.42577(14) 0.4086(2)
O1 O 0.9547(2) 0.23396(15) -0.01156(18)
O2 O 0.2854(2) -0.04920(12) 1.18426(18)
O3 O 0.2427(2) 0.06334(13) 1.35128(17)
O4 O 0.3065(2) 0.25331(12) 1.32612(16)
H10 H 0.2813 0.1972 1.3664
O5 O 0.3267(2) 0.22249(15) 0.65477(18)
O6 O 0.4806(2) 0.06102(12) 0.72661(17)
O7 O 0.6409(2) 0.22356(13) 0.73467(17)
O8 O 0.4984(2) 0.40770(12) 0.48081(17)
O9 O 1.0370(2) 0.32540(13) 0.73495(18)
S1 S 0.47242(7) 0.17302(4) 0.74579(5)
H11 H 0.4229 0.3687 0.4315
H12 H 0.5159 0.4564 0.4233
H13 H 1.0268 0.3091 0.8205
H14 H 1.1283 0.3117 0.6959
Cd1A Cd 0.239727(16) -0.139667(13) 1.386372(12)
O2A O 0.7146(2) 0.45080(12) 0.81574(18)
O3A O 0.7573(2) 0.56334(13) 0.64872(17)
loop_
_geom_bond_atom_site_label_1
_geom_bond_atom_site_label_2
_geom_bond_site_symmetry_1
_geom_bond_site_symmetry_2
C1 H1 1_555 1_555
C2 C1 1_555 1_555
H2 C2 1_555 1_555
C3 C2 1_555 1_555
H3 C3 1_555 1_555
C4 C3 1_555 1_555
C5 C4 1_555 1_555
C6 C5 1_555 1_555
C7 C6 1_555 1_555
H4 C7 1_555 1_555
C8 C7 1_555 1_555
H5 C8 1_555 1_555
C9 C8 1_555 1_555
H6 C9 1_555 1_555
C10 C6 1_555 1_555
C11 C4 1_555 1_555
C12 C13 1_555 1_555
C13 H7 1_555 1_555
C14 C13 1_555 1_555
C15 C14 1_555 1_555
C16 C15 1_555 1_555
H8 C16 1_555 1_555
C17 C12 1_555 1_555
H9 C17 1_555 1_555
C18 C14 1_555 1_555
Cd1 N1 1_555 1_555
N1 C1 1_555 1_555
N2 C9 1_555 1_555
O1 C5 1_555 1_555
O2 C18 1_555 1_555
O3 C18 1_555 1_555
O4 C15 1_555 1_555
H10 O4 1_555 1_555
O5 S1 1_555 1_555
O6 S1 1_555 1_555
O7 Cd1 1_555 1_555
O8 Cd1 1_555 1_555
O9 Cd1 1_555 1_555
S1 C12 1_555 1_555
H11 O8 1_555 1_555
H12 O8 1_555 1_555
H13 O9 1_555 1_555
H14 O9 1_555 1_555
Cd1A O2 1_555 1_555
O2A Cd1 1_555 1_555
O3A Cd1 1_555 1_555
C10 C11 1_555 1_555
C10 N2 1_555 1_555
C11 N1 1_555 1_555
C16 C17 1_555 1_555
Cd1 N2 1_555 1_555
O3 Cd1A 1_555 1_555
O7 S1 1_555 1_555

#END
