
#######################################################################
#
#                 Cambridge Crystallographic Data Centre
#                                CCDC 
#
#######################################################################
#
# If this CIF has been generated from an entry in the Cambridge 
# Structural Database, then it will include bibliographic, chemical, 
# crystal, experimental, refinement or atomic coordinate data resulting 
# from the CCDC's data processing and validation procedures.
#
#######################################################################

data_SOMNUD
_symmetry_cell_setting           monoclinic
_symmetry_space_group_name_H-M   'P 21'
_symmetry_Int_Tables_number      4
_space_group_name_Hall           'P 2yb'
loop_
_symmetry_equiv_pos_site_id
_symmetry_equiv_pos_as_xyz
1 x,y,z
2 -x,1/2+y,-z
_cell_length_a                   11.170(3)
_cell_length_b                   10.853(4)
_cell_length_c                   18.570(7)
_cell_angle_alpha                90
_cell_angle_beta                 103.74(3)
_cell_angle_gamma                90
_cell_volume                     2186.78
loop_
_atom_site_label
_atom_site_type_symbol
_atom_site_fract_x
_atom_site_fract_y
_atom_site_fract_z
Cu1 Cu 0.12339(9) 0.04249 0.08104(6)
N1 N 0.1868(6) 0.1955(7) 0.1425(4)
N2 N -0.0523(6) -0.0072(6) 0.0821(4)
N3 N 0.2947(6) 0.0333(7) 0.0770(4)
N4 N 0.1165(6) -0.1118(7) 0.0294(4)
C1 C 0.3038(8) 0.2214(8) 0.1404(5)
C2 C 0.3610(9) 0.3261(10) 0.1688(6)
C3 C 0.2995(10) 0.4122(10) 0.2029(6)
C4 C 0.1804(10) 0.3859(11) 0.2079(7)
C5 C 0.1263(9) 0.2781(9) 0.1763(6)
C6 C 0.3699(8) 0.1243(9) 0.1044(5)
O1 O 0.4808(6) 0.1351(6) 0.1063(4)
C7 C 0.3345(8) -0.0791(9) 0.0481(5)
C8 C 0.2211(7) -0.1402(8) -0.0016(5)
C9 C 0.4013(8) -0.1685(8) 0.1099(5)
C10 C 0.4557(8) -0.2740(10) 0.0895(5)
C11 C 0.5182(10) -0.3539(10) 0.1430(6)
C12 C 0.5252(9) -0.3335(10) 0.2165(6)
C13 C 0.4688(10) -0.2308(10) 0.2386(5)
C14 C 0.4054(8) -0.1501(8) 0.1845(5)
C15 C 0.2035(8) -0.0939(8) -0.0800(5)
C16 C 0.1185(8) -0.0027(9) -0.1097(5)
C17 C 0.1098(9) 0.0413(12) -0.1811(5)
C18 C 0.1814(10) -0.0039(10) -0.2247(6)
C19 C 0.2665(10) -0.0962(9) -0.1981(5)
C20 C 0.2757(8) -0.1419(8) -0.1249(5)
O2 O -0.0058(6) 0.2086(6) 0.0010(4)
C21 C 0.0233(8) -0.1859(9) 0.0237(4)
C22 C -0.0766(7) -0.1211(8) 0.0543(5)
C23 C -0.1935(9) -0.1753(9) 0.0467(5)
C24 C -0.2847(9) -0.1059(11) 0.0657(6)
C25 C -0.2609(8) 0.0117(8) 0.0935(5)
C26 C -0.1411(8) 0.0548(9) 0.1004(4)
C21A C -0.0233(8) 0.3141(9) -0.0237(4)
O2A O 0.0058(6) -0.2914(6) -0.0010(4)
N4A N -0.1165(6) 0.3882(7) -0.0294(4)
C22A C 0.0766(7) 0.3789(8) -0.0543(5)
Cu1A Cu -0.12339(9) -0.45751 -0.08104(6)
Cu1A_2 Cu -0.12339(9) 0.54249 -0.08104(6)
C8A C -0.2211(7) 0.3598(8) 0.0016(5)
N2A N 0.0523(6) 0.4928(6) -0.0821(4)
C23A C 0.1935(9) 0.3247(9) -0.0467(5)
C7A C -0.3345(8) 0.4209(9) -0.0481(5)
C15A C -0.2035(8) 0.4061(8) 0.0800(5)
C26A C 0.1411(8) 0.5548(9) -0.1004(4)
C24A C 0.2847(9) 0.3941(11) -0.0657(6)
N3A N -0.2947(6) 0.5333(7) -0.0770(4)
C9A C -0.4013(8) 0.3315(8) -0.1099(5)
C16A C -0.1185(8) 0.4973(9) 0.1097(5)
C20A C -0.2757(8) 0.3581(8) 0.1249(5)
C25A C 0.2609(8) 0.5117(8) -0.0935(5)
C10A C -0.4557(8) 0.2260(10) -0.0895(5)
C14A C -0.4054(8) 0.3499(8) -0.1845(5)
C17A C -0.1098(9) 0.5413(12) 0.1811(5)
C19A C -0.2665(10) 0.4038(9) 0.1981(5)
C11A C -0.5182(10) 0.1461(10) -0.1430(6)
C13A C -0.4688(10) 0.2692(10) -0.2386(5)
C18A C -0.1814(10) 0.4961(10) 0.2247(6)
C12A C -0.5252(9) 0.1665(10) -0.2165(6)
N1A N -0.1868(6) 0.6955(7) -0.1425(4)
O2A_2 O 0.0058(6) 0.7086(6) -0.0010(4)
C6A C -0.3699(8) 0.6243(9) -0.1044(5)
C1A C -0.3038(8) 0.7214(8) -0.1404(5)
C5A C -0.1263(9) 0.7781(9) -0.1763(6)
O1A O -0.4808(6) 0.6351(6) -0.1063(4)
C2A C -0.3610(9) 0.8261(10) -0.1688(6)
C4A C -0.1804(10) 0.8859(11) -0.2079(7)
C3A C -0.2995(10) 0.9122(10) -0.2029(6)
Cu2 Cu 0.39508(10) 0.47140(12) 0.42888(6)
N5 N 0.3461(6) 0.2995(7) 0.3906(4)
N6 N 0.5644(7) 0.5196(7) 0.4197(4)
N7 N 0.2382(6) 0.4683(7) 0.4510(4)
N8 N 0.3767(6) 0.6466(7) 0.4382(4)
C27 C 0.2286(8) 0.2753(8) 0.3955(5)
C28 C 0.1739(10) 0.1626(9) 0.3749(6)
C29 C 0.2401(10) 0.0701(9) 0.3500(6)
C30 C 0.3602(9) 0.0973(9) 0.3459(6)
C31 C 0.4061(8) 0.2092(10) 0.3666(5)
C32 C 0.1631(9) 0.3770(8) 0.4276(5)
O3 O 0.0548(6) 0.3640(7) 0.4297(5)
C33 C 0.1959(7) 0.5830(7) 0.4795(5)
C34 C 0.2598(8) 0.6930(8) 0.4488(5)
C35 C 0.2222(7) 0.5867(8) 0.5633(5)
C36 C 0.3206(8) 0.5237(8) 0.6099(5)
C37 C 0.3428(7) 0.5391(10) 0.6857(5)
C38 C 0.2700(9) 0.6147(10) 0.7174(5)
C39 C 0.1722(9) 0.6776(9) 0.6720(5)
C40 C 0.1496(8) 0.6607(9) 0.5963(5)
C41 C 0.1757(7) 0.7466(8) 0.3808(5)
C42 C 0.1949(8) 0.7347(9) 0.3104(5)
C43 C 0.1129(10) 0.7870(10) 0.2489(5)
C44 C 0.0077(9) 0.8435(10) 0.2574(5)
C45 C -0.0130(9) 0.8604(9) 0.3276(6)
C46 C 0.0709(8) 0.8086(8) 0.3895(5)
O4 O 0.5156(5) 0.3318(6) 0.5482(4)
C47 C 0.4745(7) 0.7164(9) 0.4420(5)
C48 C 0.5867(8) 0.6416(8) 0.4305(5)
C49 C 0.6959(8) 0.6953(8) 0.4308(5)
C50 C 0.7927(8) 0.6242(9) 0.4234(6)
C51 C 0.7768(8) 0.4961(8) 0.4146(5)
C52 C 0.6605(8) 0.4496(8) 0.4120(5)
C47A C 0.5255(7) 0.2164(9) 0.5580(5)
O4A O 0.4844(5) 0.8318(6) 0.4518(4)
N8A N 0.6233(6) 0.1466(7) 0.5618(4)
C48A C 0.4133(8) 0.1416(8) 0.5695(5)
Cu2A Cu 0.60492(10) 0.97140(12) 0.57112(6)
Cu2A_2 Cu 0.60492(10) -0.02860(12) 0.57112(6)
C34A C 0.7402(8) 0.1930(8) 0.5512(5)
N6A N 0.4356(7) 0.0196(7) 0.5803(4)
C49A C 0.3041(8) 0.1953(8) 0.5692(5)
C33A C 0.8041(7) 0.0830(7) 0.5205(5)
C41A C 0.8243(7) 0.2466(8) 0.6192(5)
C52A C 0.3395(8) -0.0504(8) 0.5880(5)
C50A C 0.2073(8) 0.1242(9) 0.5766(6)
N7A N 0.7618(6) -0.0317(7) 0.5490(4)
C35A C 0.7778(7) 0.0867(8) 0.4367(5)
C42A C 0.8051(8) 0.2347(9) 0.6896(5)
C46A C 0.9291(8) 0.3086(8) 0.6105(5)
C51A C 0.2232(8) -0.0039(8) 0.5854(5)
C36A C 0.6794(8) 0.0237(8) 0.3901(5)
C40A C 0.8504(8) 0.1607(9) 0.4037(5)
C43A C 0.8871(10) 0.2870(10) 0.7511(5)
C45A C 1.0130(9) 0.3604(9) 0.6724(6)
C37A C 0.6572(7) 0.0391(10) 0.3143(5)
C39A C 0.8278(9) 0.1776(9) 0.3280(5)
C44A C 0.9923(9) 0.3435(10) 0.7426(5)
C38A C 0.7300(9) 0.1147(10) 0.2826(5)
N5A N 0.6539(6) -0.2005(7) 0.6094(4)
O4A_2 O 0.4844(5) -0.1682(6) 0.4518(4)
C32A C 0.8369(9) -0.1230(8) 0.5724(5)
C27A C 0.7714(8) -0.2247(8) 0.6045(5)
C31A C 0.5939(8) -0.2908(10) 0.6334(5)
O3A O 0.9452(6) -0.1360(7) 0.5703(5)
C28A C 0.8261(10) -0.3374(9) 0.6251(6)
C30A C 0.6398(9) -0.4027(9) 0.6541(6)
C29A C 0.7599(10) -0.4299(9) 0.6500(6)
loop_
_geom_bond_atom_site_label_1
_geom_bond_atom_site_label_2
_geom_bond_site_symmetry_1
_geom_bond_site_symmetry_2
Cu1 N1 1_555 1_555
N1 C1 1_555 1_555
N2 Cu1 1_555 1_555
N3 Cu1 1_555 1_555
N4 Cu1 1_555 1_555
C1 C2 1_555 1_555
C2 C3 1_555 1_555
C3 C4 1_555 1_555
C4 C5 1_555 1_555
C5 N1 1_555 1_555
C6 N3 1_555 1_555
O1 C6 1_555 1_555
C7 N3 1_555 1_555
C8 N4 1_555 1_555
C9 C7 1_555 1_555
C10 C9 1_555 1_555
C11 C10 1_555 1_555
C12 C11 1_555 1_555
C13 C12 1_555 1_555
C14 C9 1_555 1_555
C15 C8 1_555 1_555
C16 C15 1_555 1_555
C17 C16 1_555 1_555
C18 C17 1_555 1_555
C19 C18 1_555 1_555
C20 C15 1_555 1_555
O2 Cu1 1_555 1_555
C21 N4 1_555 1_555
C22 N2 1_555 1_555
C23 C22 1_555 1_555
C24 C23 1_555 1_555
C25 C24 1_555 1_555
C26 N2 1_555 1_555
Cu2 N5 1_555 1_555
N5 C27 1_555 1_555
N6 Cu2 1_555 1_555
N7 Cu2 1_555 1_555
N8 Cu2 1_555 1_555
C27 C28 1_555 1_555
C28 C29 1_555 1_555
C29 C30 1_555 1_555
C30 C31 1_555 1_555
C31 N5 1_555 1_555
C32 N7 1_555 1_555
O3 C32 1_555 1_555
C33 N7 1_555 1_555
C34 N8 1_555 1_555
C35 C33 1_555 1_555
C36 C35 1_555 1_555
C37 C36 1_555 1_555
C38 C37 1_555 1_555
C39 C38 1_555 1_555
C40 C35 1_555 1_555
C41 C34 1_555 1_555
C42 C41 1_555 1_555
C43 C42 1_555 1_555
C44 C43 1_555 1_555
C45 C44 1_555 1_555
C46 C41 1_555 1_555
O4 Cu2 1_555 1_555
C47 N8 1_555 1_555
C48 N6 1_555 1_555
C49 C48 1_555 1_555
C50 C49 1_555 1_555
C51 C50 1_555 1_555
C52 N6 1_555 1_555
C21A O2 1_555 1_555
O2A C21 1_555 1_555
N4A C21A 1_555 1_555
C22A C21A 1_555 1_555
Cu1A O2A 1_555 1_555
Cu1A_2 N4A 1_555 1_555
C8A N4A 1_555 1_555
N2A C22A 1_555 1_555
C23A C22A 1_555 1_555
C7A C8A 1_555 1_555
C15A C8A 1_555 1_555
C26A N2A 1_555 1_555
C24A C23A 1_555 1_555
N3A Cu1A_2 1_555 1_555
C9A C7A 1_555 1_555
C16A C15A 1_555 1_555
C20A C15A 1_555 1_555
C25A C26A 1_555 1_555
C10A C9A 1_555 1_555
C14A C9A 1_555 1_555
C17A C16A 1_555 1_555
C19A C20A 1_555 1_555
C11A C10A 1_555 1_555
C13A C14A 1_555 1_555
C18A C17A 1_555 1_555
C12A C11A 1_555 1_555
C47A O4 1_555 1_555
O4A C47 1_555 1_555
N8A C47A 1_555 1_555
C48A C47A 1_555 1_555
Cu2A O4A 1_555 1_555
Cu2A_2 N8A 1_555 1_555
C34A N8A 1_555 1_555
N6A C48A 1_555 1_555
C49A C48A 1_555 1_555
C33A C34A 1_555 1_555
C41A C34A 1_555 1_555
C52A N6A 1_555 1_555
C50A C49A 1_555 1_555
N7A Cu2A_2 1_555 1_555
C35A C33A 1_555 1_555
C42A C41A 1_555 1_555
C46A C41A 1_555 1_555
C51A C52A 1_555 1_555
C36A C35A 1_555 1_555
C40A C35A 1_555 1_555
C43A C42A 1_555 1_555
C45A C46A 1_555 1_555
C37A C36A 1_555 1_555
C39A C40A 1_555 1_555
C44A C43A 1_555 1_555
C38A C37A 1_555 1_555
N1A Cu1A_2 1_555 1_555
O2A_2 Cu1A_2 1_555 1_555
C6A N3A 1_555 1_555
N5A Cu2A_2 1_555 1_555
O4A_2 Cu2A_2 1_555 1_555
C32A N7A 1_555 1_555
C1A N1A 1_555 1_555
C5A N1A 1_555 1_555
O1A C6A 1_555 1_555
C27A N5A 1_555 1_555
C31A N5A 1_555 1_555
O3A C32A 1_555 1_555
C2A C1A 1_555 1_555
C4A C5A 1_555 1_555
C28A C27A 1_555 1_555
C30A C31A 1_555 1_555
C3A C2A 1_555 1_555
C29A C28A 1_555 1_555
C1 C6 1_555 1_555
C7 C8 1_555 1_555
C13 C14 1_555 1_555
C19 C20 1_555 1_555
C21 C22 1_555 1_555
C25 C26 1_555 1_555
C27 C32 1_555 1_555
C33 C34 1_555 1_555
C39 C40 1_555 1_555
C45 C46 1_555 1_555
C47 C48 1_555 1_555
C51 C52 1_555 1_555
Cu1A_2 N2A 1_555 1_555
C7A N3A 1_555 1_555
C24A C25A 1_555 1_555
C19A C18A 1_555 1_555
C13A C12A 1_555 1_555
Cu2A_2 N6A 1_555 1_555
C33A N7A 1_555 1_555
C50A C51A 1_555 1_555
C45A C44A 1_555 1_555
C39A C38A 1_555 1_555
C6A C1A 1_555 1_555
C32A C27A 1_555 1_555
C4A C3A 1_555 1_555
C30A C29A 1_555 1_555

#END
