
#######################################################################
#
#                 Cambridge Crystallographic Data Centre
#                                CCDC 
#
#######################################################################
#
# If this CIF has been generated from an entry in the Cambridge 
# Structural Database, then it will include bibliographic, chemical, 
# crystal, experimental, refinement or atomic coordinate data resulting 
# from the CCDC's data processing and validation procedures.
#
#######################################################################

data_SOMQUG
_symmetry_cell_setting           monoclinic
_symmetry_space_group_name_H-M   'P 21/c'
_symmetry_Int_Tables_number      14
_space_group_name_Hall           '-P 2ybc'
loop_
_symmetry_equiv_pos_site_id
_symmetry_equiv_pos_as_xyz
1 x,y,z
2 -x,1/2+y,1/2-z
3 -x,-y,-z
4 x,1/2-y,1/2+z
_cell_length_a                   4.6086(9)
_cell_length_b                   10.278(3)
_cell_length_c                   17.504(4)
_cell_angle_alpha                90
_cell_angle_beta                 95.74(1)
_cell_angle_gamma                90
_cell_volume                     824.958
loop_
_atom_site_label
_atom_site_type_symbol
_atom_site_fract_x
_atom_site_fract_y
_atom_site_fract_z
Co1 Co 0.48599(13) 0.27433(7) -0.58244(4)
Co2 Co 0.5000 0.0000 -0.5000
P1 P 0.0090(3) 0.20770(12) -0.45761(8)
O1 O 0.2455(7) 0.1696(3) -0.5101(2)
O2 O -0.1620(7) 0.0903(4) -0.4347(2)
O3 O -0.1886(7) 0.3127(3) -0.4961(2)
O4 O 0.1838(8) 0.2692(4) -0.1772(2)
O5 O 0.3829(8) 0.4342(4) -0.2352(2)
C1 C 0.2062(11) 0.3407(6) -0.2354(3)
C2 C 0.0167(12) 0.3085(7) -0.3083(4)
C3 C 0.2041(12) 0.2746(6) -0.3719(3)
O6 O 0.6729(9) 0.0796(4) -0.6008(2)
O7 O 0.2567(10) 0.4464(5) -0.5650(3)
O8 O 0.7198(11) 0.3706(5) -0.6587(3)
H1 H 0.59(2) 0.061(7) -0.645(5)
H2 H 0.327(13) 0.203(6) -0.354(4)
H3 H 0.67(2) 0.425(8) -0.674(5)
H4 H 0.81(2) 0.070(7) -0.611(4)
H5 H -0.093(13) 0.405(7) -0.327(4)
H6 H 0.259(13) 0.506(8) -0.531(4)
H7 H 0.290(14) 0.355(7) -0.367(5)
H8 H -0.11(2) 0.226(12) -0.344(8)
H9 H 0.86(2) 0.338(7) -0.668(4)
H10 H 0.16(2) 0.419(11) -0.545(6)
O2_2 O 0.8380(7) 0.0903(4) -0.4347(2)
O3_2 O 0.8114(7) 0.3127(3) -0.4961(2)
O4C O 0.1838(8) 0.2308(4) -0.6772(2)
Co1_2 Co -0.51401(13) 0.27433(7) -0.58244(4)
Co1C Co 0.48599(13) 0.22567(7) -0.08244(4)
Co2_2 Co 1.5000 0.0000 -0.5000
Co2_3 Co -0.5000 0.0000 -0.5000
P1B P 0.9910(3) -0.20770(12) -0.54239(8)
O1B O 0.7545(7) -0.1696(3) -0.4899(2)
O2B O 1.1620(7) -0.0903(4) -0.5653(2)
O3B O 1.1886(7) -0.3127(3) -0.5039(2)
O4B O 0.8162(8) -0.2692(4) -0.8228(2)
O5B O 0.6171(8) -0.4342(4) -0.7648(2)
C1B C 0.7938(11) -0.3407(6) -0.7646(3)
C2B C 0.9833(12) -0.3085(7) -0.6917(4)
C3B C 0.7959(12) -0.2746(6) -0.6281(3)
H2B H 0.673(13) -0.203(6) -0.646(4)
H5B H 1.093(13) -0.405(7) -0.673(4)
H7B H 0.710(14) -0.355(7) -0.633(5)
H8B H 1.11(2) -0.226(12) -0.656(8)
O2B_2 O 0.1620(7) -0.0903(4) -0.5653(2)
O3B_2 O 0.1886(7) -0.3127(3) -0.5039(2)
O6B O 0.3271(9) -0.0796(4) -0.3992(2)
H1B H 0.41(2) -0.061(7) -0.355(5)
H4B H 0.19(2) -0.070(7) -0.389(4)
Co1B Co 0.51401(13) -0.27433(7) -0.41756(4)
Co1B_2 Co 1.51401(13) -0.27433(7) -0.41756(4)
Co1A Co 0.51401(13) -0.22567(7) -0.91756(4)
O4A O 0.8162(8) -0.2308(4) -0.3228(2)
O7B O 0.7433(10) -0.4464(5) -0.4350(3)
H6B H 0.741(13) -0.506(8) -0.469(4)
H10B H 0.84(2) -0.419(11) -0.455(6)
O8B O 0.2802(11) -0.3706(5) -0.3413(3)
H3B H 0.33(2) -0.425(8) -0.326(5)
H9B H 0.14(2) -0.338(7) -0.332(4)
loop_
_geom_bond_atom_site_label_1
_geom_bond_atom_site_label_2
_geom_bond_site_symmetry_1
_geom_bond_site_symmetry_2
Co1 O1 1_555 1_555
Co2 O1 1_555 1_555
P1 O1 1_555 1_555
O2 P1 1_555 1_555
O3 P1 1_555 1_555
O4 C1 1_555 1_555
O5 C1 1_555 1_555
C1 C2 1_555 1_555
C2 C3 1_555 1_555
C3 P1 1_555 1_555
O6 Co1 1_555 1_555
O7 Co1 1_555 1_555
O8 Co1 1_555 1_555
H1 O6 1_555 1_555
H2 C3 1_555 1_555
H3 O8 1_555 1_555
H4 O6 1_555 1_555
H5 C2 1_555 1_555
H6 O7 1_555 1_555
H7 C3 1_555 1_555
H8 C2 1_555 1_555
H9 O8 1_555 1_555
H10 O7 1_555 1_555
O2_2 Co2 1_555 1_555
O3_2 Co1 1_555 1_555
O4C Co1 1_555 1_555
Co1_2 O3 1_555 1_555
Co1C O4 1_555 1_555
Co2_2 O2B 1_555 1_555
Co2_3 O2 1_555 1_555
P1B O1B 1_555 1_555
O1B Co2 1_555 1_555
O2B P1B 1_555 1_555
O3B P1B 1_555 1_555
O4B C1B 1_555 1_555
O5B C1B 1_555 1_555
C1B C2B 1_555 1_555
C2B C3B 1_555 1_555
C3B P1B 1_555 1_555
H2B C3B 1_555 1_555
H5B C2B 1_555 1_555
H7B C3B 1_555 1_555
H8B C2B 1_555 1_555
O2B_2 Co2 1_555 1_555
O3B_2 Co1B 1_555 1_555
O6B Co2 1_555 1_555
H1B O6B 1_555 1_555
H4B O6B 1_555 1_555
Co1B O1B 1_555 1_555
Co1B_2 O3B 1_555 1_555
Co1A O4B 1_555 1_555
O4A Co1B 1_555 1_555
O7B Co1B 1_555 1_555
H6B O7B 1_555 1_555
H10B O7B 1_555 1_555
O8B Co1B 1_555 1_555
H3B O8B 1_555 1_555
H9B O8B 1_555 1_555
Co2 O6 1_555 1_555
O6B Co1B 1_555 1_555

#END
