
#######################################################################
#
#                 Cambridge Crystallographic Data Centre
#                                CCDC 
#
#######################################################################
#
# If this CIF has been generated from an entry in the Cambridge 
# Structural Database, then it will include bibliographic, chemical, 
# crystal, experimental, refinement or atomic coordinate data resulting 
# from the CCDC's data processing and validation procedures.
#
#######################################################################

data_SOMRUJ
_symmetry_cell_setting           monoclinic
_symmetry_space_group_name_H-M   'C 2/c'
_symmetry_Int_Tables_number      15
_space_group_name_Hall           '-C 2yn'
loop_
_symmetry_equiv_pos_site_id
_symmetry_equiv_pos_as_xyz
1 x,y,z
2 -x,y,1/2-z
3 1/2+x,1/2+y,z
4 1/2-x,1/2+y,1/2-z
5 -x,-y,-z
6 x,-y,1/2+z
7 1/2-x,1/2-y,-z
8 1/2+x,1/2-y,1/2+z
_cell_length_a                   19.474(4)
_cell_length_b                   9.849(2)
_cell_length_c                   12.064(2)
_cell_angle_alpha                90
_cell_angle_beta                 96.55(3)
_cell_angle_gamma                90
_cell_volume                     2298.76
loop_
_atom_site_label
_atom_site_type_symbol
_atom_site_fract_x
_atom_site_fract_y
_atom_site_fract_z
Zn1 Zn 0.5000 0.5000 1.0000
Zn2 Zn 0.315531(14) 0.75007(3) 0.371289(19)
O1 O 0.47628(8) 0.65551(17) 1.10092(12)
O2 O 0.41631(10) 0.8478(2) 1.10051(13)
O3 O 0.33004(9) 0.77540(17) 0.53261(12)
O4 O 0.40616(9) 0.60923(18) 0.52598(12)
O5 O 0.40623(9) 0.79628(18) 0.31490(13)
H1 H 0.4422 0.7540 0.3457
H2 H 0.4061 0.8064 0.2442
N1 N 0.43991(9) 0.6250(2) 0.87952(13)
N2 N 0.28487(10) 0.58717(19) 0.28251(14)
N3 N 0.28660(11) 0.6075(2) 0.17036(15)
N4 N 0.26038(11) 0.5040(2) 0.11718(15)
N5 N 0.23993(10) 0.41088(19) 0.18989(14)
N6 N 0.24650(13) 0.4041(2) 0.38767(15)
H3 H 0.2470 0.4499 0.4480
H4 H 0.2289 0.3247 0.3885
C1 C 0.42607(12) 0.7448(2) 0.92638(18)
C2 C 0.43989(12) 0.7509(2) 1.05294(18)
C3 C 0.40074(13) 0.8564(3) 0.86525(18)
H5 H 0.3931 0.9402 0.9009
C4 C 0.38671(12) 0.8425(3) 0.75015(18)
H6 H 0.3706 0.9179 0.7054
C5 C 0.39658(11) 0.7172(2) 0.70146(17)
C6 C 0.37756(11) 0.6970(2) 0.57840(17)
C7 C 0.42397(11) 0.6107(2) 0.76885(16)
H7 H 0.4316 0.5255 0.7354
C8 C 0.25634(11) 0.4649(2) 0.29215(17)
Zn2A Zn 0.684469(14) 0.75007(3) 1.128711(19)
O1A O 0.52372(8) 0.65551(17) 0.39908(12)
O2A O 0.58369(10) 0.8478(2) 0.39949(13)
O3A O 0.66996(9) 0.77540(17) 0.96739(12)
O4A O 0.59384(9) 0.60923(18) 0.97402(12)
O5A O 0.59377(9) 0.79628(18) 1.18510(13)
H1A H 0.5578 0.7540 1.1543
H2A H 0.5939 0.8064 1.2558
N1A N 0.56009(9) 0.6250(2) 0.62048(13)
N2A N 0.71513(10) 0.58717(19) 1.21749(14)
N3A N 0.71340(11) 0.6075(2) 1.32964(15)
N4A N 0.73962(11) 0.5040(2) 1.38282(15)
N5A N 0.76007(10) 0.41088(19) 1.31011(14)
N6A N 0.75350(13) 0.4041(2) 1.11233(15)
H3A H 0.7530 0.4499 1.0520
H4A H 0.7711 0.3247 1.1115
C1A C 0.57393(12) 0.7448(2) 0.57362(18)
C2A C 0.56011(12) 0.7509(2) 0.44706(18)
C3A C 0.59926(13) 0.8564(3) 0.63475(18)
H5A H 0.6069 0.9402 0.5991
C4A C 0.61329(12) 0.8425(3) 0.74985(18)
H6A H 0.6294 0.9179 0.7946
C5A C 0.60342(11) 0.7172(2) 0.79854(17)
C6A C 0.62244(11) 0.6970(2) 0.92160(17)
C7A C 0.57603(11) 0.6107(2) 0.73115(16)
H7A H 0.5684 0.5255 0.7646
C8A C 0.74366(11) 0.4649(2) 1.20785(17)
Zn1A Zn 0.5000 0.5000 0.5000
Zn2B Zn 0.815531(14) 0.25007(3) 1.371289(19)
Zn2C Zn 0.184469(14) 0.25007(3) 0.128711(19)
O1D O 0.52372(8) 0.34449(17) 0.89908(12)
O4E O 0.40616(9) 0.39077(18) 1.02598(12)
N1D N 0.56009(9) 0.3750(2) 1.12048(13)
N5B N 0.73993(10) 0.91088(19) 1.18989(14)
N5C N 0.26007(10) 0.91088(19) 0.31011(14)
loop_
_geom_bond_atom_site_label_1
_geom_bond_atom_site_label_2
_geom_bond_site_symmetry_1
_geom_bond_site_symmetry_2
Zn1 O1 1_555 1_555
Zn2 O3 1_555 1_555
O1 C2 1_555 1_555
O2 C2 1_555 1_555
O3 C6 1_555 1_555
O4 C6 1_555 1_555
O5 Zn2 1_555 1_555
H1 O5 1_555 1_555
H2 O5 1_555 1_555
N1 Zn1 1_555 1_555
N2 Zn2 1_555 1_555
N3 N2 1_555 1_555
N4 N3 1_555 1_555
N5 N4 1_555 1_555
N6 H3 1_555 1_555
H4 N6 1_555 1_555
C1 N1 1_555 1_555
C2 C1 1_555 1_555
C3 C1 1_555 1_555
H5 C3 1_555 1_555
C4 C3 1_555 1_555
H6 C4 1_555 1_555
C5 C4 1_555 1_555
C6 C5 1_555 1_555
C7 N1 1_555 1_555
H7 C7 1_555 1_555
C8 N2 1_555 1_555
Zn2A O3A 1_555 1_555
O1A C2A 1_555 1_555
O2A C2A 1_555 1_555
O3A C6A 1_555 1_555
O4A Zn1 1_555 1_555
O5A Zn2A 1_555 1_555
H1A O5A 1_555 1_555
H2A O5A 1_555 1_555
N1A C1A 1_555 1_555
N2A Zn2A 1_555 1_555
N3A N2A 1_555 1_555
N4A N3A 1_555 1_555
N5A N4A 1_555 1_555
N6A H3A 1_555 1_555
H4A N6A 1_555 1_555
C1A C2A 1_555 1_555
C3A C1A 1_555 1_555
H5A C3A 1_555 1_555
C4A C3A 1_555 1_555
H6A C4A 1_555 1_555
C5A C4A 1_555 1_555
C6A O4A 1_555 1_555
C7A N1A 1_555 1_555
H7A C7A 1_555 1_555
C8A N2A 1_555 1_555
Zn1A O4 1_555 1_555
Zn2B N5A 1_555 1_555
Zn2C N5 1_555 1_555
O1D Zn1 1_555 1_555
O4E Zn1 1_555 1_555
N1D Zn1 1_555 1_555
N5B Zn2A 1_555 1_555
N5C Zn2 1_555 1_555
N5 C8 1_555 1_555
N6 C8 1_555 1_555
C5 C7 1_555 1_555
O1A Zn1A 1_555 1_555
N1A Zn1A 1_555 1_555
N5A C8A 1_555 1_555
N6A C8A 1_555 1_555
C5A C6A 1_555 1_555
C5A C7A 1_555 1_555

#END
