
#######################################################################
#
#                 Cambridge Crystallographic Data Centre
#                                CCDC 
#
#######################################################################
#
# If this CIF has been generated from an entry in the Cambridge 
# Structural Database, then it will include bibliographic, chemical, 
# crystal, experimental, refinement or atomic coordinate data resulting 
# from the CCDC's data processing and validation procedures.
#
#######################################################################

data_SOMSIY
_symmetry_cell_setting           orthorhombic
_symmetry_space_group_name_H-M   'I m m a'
_symmetry_Int_Tables_number      74
_space_group_name_Hall           '-I 2b 2'
loop_
_symmetry_equiv_pos_site_id
_symmetry_equiv_pos_as_xyz
1 x,y,z
2 -x,1/2-y,z
3 -x,1/2+y,-z
4 x,-y,-z
5 1/2+x,1/2+y,1/2+z
6 1/2-x,-y,1/2+z
7 1/2-x,y,1/2-z
8 1/2+x,1/2-y,1/2-z
9 -x,-y,-z
10 x,1/2+y,-z
11 x,1/2-y,z
12 -x,y,z
13 1/2-x,1/2-y,1/2-z
14 1/2+x,y,1/2-z
15 1/2+x,-y,1/2+z
16 1/2-x,1/2+y,1/2+z
_cell_length_a                   14.8281(16)
_cell_length_b                   6.4872(5)
_cell_length_c                   11.3503(12)
_cell_angle_alpha                90
_cell_angle_beta                 90
_cell_angle_gamma                90
_cell_volume                     1091.82
loop_
_atom_site_label
_atom_site_type_symbol
_atom_site_fract_x
_atom_site_fract_y
_atom_site_fract_z
Ga1 Ga 0.50000 0.5000 0.5000
C1 C 0.6650(5) 0.5864(2) 0.6657(9)
C2 C 0.71171(10) 0.7500 0.7112(2)
N1 N 0.5988(4) 0.6412(10) 0.5960(7)
O1 O 0.50000 0.2500 0.5872(2)
C1J C 0.6650(5) 0.9136(2) 0.6657(9)
N1J N 0.5988(4) 0.8588(10) 0.5960(7)
C1F C 0.8350(5) 0.5864(2) 0.8343(9)
C2F C 0.78829(10) 0.7500 0.7888(2)
N1F N 0.9012(4) 0.6412(10) 0.9040(7)
C1L C 0.8350(5) 0.9136(2) 0.8343(9)
N1L N 0.9012(4) 0.8588(10) 0.9040(7)
Ga1A Ga 0.50000 0.0000 0.5000
Ga1A_2 Ga 0.50000 1.0000 0.5000
Ga1D Ga 1.00000 1.0000 1.0000
Ga1E Ga 1.00000 0.5000 1.0000
N1C N 0.5988(4) 0.3588(10) 0.4040(7)
N1H N 0.4012(4) 0.3588(10) 0.4040(7)
N1K N 0.4012(4) 0.6412(10) 0.5960(7)
O1B O 0.50000 0.7500 0.4128(2)
O2 O 0.00000 0.2500 0.367(2)
O3 O 0.00000 0.2500 0.597(2)
loop_
_geom_bond_atom_site_label_1
_geom_bond_atom_site_label_2
_geom_bond_site_symmetry_1
_geom_bond_site_symmetry_2
Ga1 N1 1_555 1_555
C1 C2 1_555 1_555
C2 C1J 1_555 1_555
N1 C1 1_555 1_555
O1 Ga1 1_555 1_555
C1J N1J 1_555 1_555
N1J N1 1_555 1_555
C1F C2F 1_555 1_555
C2F C2 1_555 1_555
N1F C1F 1_555 1_555
C1L C2F 1_555 1_555
N1L N1F 1_555 1_555
Ga1A O1 1_555 1_555
Ga1A_2 N1J 1_555 1_555
Ga1D N1L 1_555 1_555
Ga1E N1F 1_555 1_555
N1C Ga1 1_555 1_555
N1H Ga1 1_555 1_555
N1K Ga1 1_555 1_555
O1B Ga1 1_555 1_555
C1L N1L 1_555 1_555
Ga1A_2 O1B 1_555 1_555

#END
