
#######################################################################
#
#                 Cambridge Crystallographic Data Centre
#                                CCDC 
#
#######################################################################
#
# If this CIF has been generated from an entry in the Cambridge 
# Structural Database, then it will include bibliographic, chemical, 
# crystal, experimental, refinement or atomic coordinate data resulting 
# from the CCDC's data processing and validation procedures.
#
#######################################################################

data_SONFEH
_symmetry_cell_setting           monoclinic
_symmetry_space_group_name_H-M   'P 21/c'
_symmetry_Int_Tables_number      14
_space_group_name_Hall           '-P 2ybc'
loop_
_symmetry_equiv_pos_site_id
_symmetry_equiv_pos_as_xyz
1 x,y,z
2 -x,1/2+y,1/2-z
3 -x,-y,-z
4 x,1/2-y,1/2+z
_cell_length_a                   10.697(3)
_cell_length_b                   18.619(5)
_cell_length_c                   12.600(3)
_cell_angle_alpha                90
_cell_angle_beta                 107.418(5)
_cell_angle_gamma                90
_cell_volume                     2394.44
loop_
_atom_site_label
_atom_site_type_symbol
_atom_site_fract_x
_atom_site_fract_y
_atom_site_fract_z
O1 O 1.5130(15) 0.2928(6) 0.2296(9)
H1 H 1.4905 0.3292 0.2569
H2 H 1.4711 0.2565 0.2382
Mn1 Mn 1.41165(7) 0.05700(4) 0.10632(6)
O2 O 1.3731(4) 0.15978(19) 0.1934(3)
O3 O 1.2492(3) 0.0642(2) 0.1867(3)
O4 O 1.0744(4) 0.2334(2) 0.5490(3)
O5 O 0.5905(3) 0.44508(19) 0.4124(3)
O6 O 0.5511(3) 0.3871(2) 0.5514(3)
N1 N 1.2534(4) 0.0646(2) -0.0582(3)
N2 N 0.5616(4) 0.0398(2) -0.7238(3)
C1 C 1.2626(5) 0.0986(3) -0.1511(4)
H3 H 1.3402 0.1227 -0.1462
C2 C 1.1679(5) 0.1000(3) -0.2499(4)
H4 H 1.1810 0.1252 -0.3095
C3 C 1.0516(5) 0.0641(3) -0.2625(4)
C4 C 1.0382(5) 0.0297(3) -0.1697(4)
H5 H 0.9613 0.0051 -0.1736
C5 C 1.1390(5) 0.0318(3) -0.0706(4)
H6 H 1.1261 0.0090 -0.0091
C6 C 0.9520(5) 0.0642(3) -0.3684(4)
H7 H 0.9711 0.0905 -0.4244
C7 C 0.8370(6) 0.0319(3) -0.3966(4)
H8 H 0.8152 0.0051 -0.3424
C8 C 0.7399(5) 0.0353(3) -0.5087(4)
C9 C 0.7288(6) 0.0953(4) -0.5727(5)
H9 H 0.7785 0.1360 -0.5457
C10 C 0.6411(6) 0.0940(4) -0.6796(5)
H10 H 0.6378 0.1344 -0.7237
C11 C 0.5687(6) -0.0152(3) -0.6579(5)
H11 H 0.5132 -0.0539 -0.6849
C12 C 0.6558(6) -0.0202(3) -0.5474(5)
H12 H 0.6550 -0.0601 -0.5031
C13 C 1.2873(5) 0.1267(3) 0.2220(4)
C14 C 1.2262(5) 0.1608(3) 0.3032(4)
C15 C 1.3005(6) 0.2031(3) 0.3878(5)
H13 H 1.3854 0.2154 0.3895
C16 C 1.2494(6) 0.2283(3) 0.4724(4)
H14 H 1.3006 0.2553 0.5317
C17 C 1.1227(6) 0.2118(3) 0.4639(5)
C18 C 1.0437(6) 0.1720(3) 0.3742(5)
H15 H 0.9557 0.1639 0.3670
C19 C 1.0995(5) 0.1456(3) 0.2978(4)
H16 H 1.0499 0.1165 0.2406
C20 C 0.9568(5) 0.2705(3) 0.5243(4)
C21 C 0.8847(6) 0.2609(3) 0.5978(4)
H17 H 0.9113 0.2288 0.6568
C22 C 0.7712(6) 0.3010(3) 0.5802(5)
H18 H 0.7200 0.2945 0.6274
C23 C 0.7317(5) 0.3502(3) 0.4954(4)
C24 C 0.8060(5) 0.3578(3) 0.4247(4)
H19 H 0.7805 0.3906 0.3666
C25 C 0.9173(6) 0.3178(3) 0.4380(5)
H20 H 0.9658 0.3230 0.3883
C26 C 0.6165(5) 0.3976(3) 0.4865(4)
Mn1A Mn 0.58835(7) 0.55700(4) 0.39368(6)
Mn1C Mn 0.41165(7) 0.44300(4) 0.60632(6)
Mn1_2 Mn 0.41165(7) 0.05700(4) -0.89368(6)
O5A O 1.4095(3) -0.05492(19) 0.0876(3)
O6C O 1.5511(3) 0.1129(2) 0.0514(3)
N2_2 N 1.5616(4) 0.0398(2) 0.2762(3)
loop_
_geom_bond_atom_site_label_1
_geom_bond_atom_site_label_2
_geom_bond_site_symmetry_1
_geom_bond_site_symmetry_2
O1 H1 1_555 1_555
H2 O1 1_555 1_555
Mn1 O2 1_555 1_555
O2 C13 1_555 1_555
O3 Mn1 1_555 1_555
O4 C17 1_555 1_555
O5 C26 1_555 1_555
O6 C26 1_555 1_555
N1 Mn1 1_555 1_555
N2 C10 1_555 1_555
C1 N1 1_555 1_555
H3 C1 1_555 1_555
C2 C1 1_555 1_555
H4 C2 1_555 1_555
C3 C2 1_555 1_555
C4 C3 1_555 1_555
H5 C4 1_555 1_555
C5 N1 1_555 1_555
H6 C5 1_555 1_555
C6 C3 1_555 1_555
H7 C6 1_555 1_555
C7 C6 1_555 1_555
H8 C7 1_555 1_555
C8 C7 1_555 1_555
C9 C8 1_555 1_555
H9 C9 1_555 1_555
C10 C9 1_555 1_555
H10 C10 1_555 1_555
C11 N2 1_555 1_555
H11 C11 1_555 1_555
C12 C8 1_555 1_555
H12 C12 1_555 1_555
C13 O3 1_555 1_555
C14 C13 1_555 1_555
C15 C14 1_555 1_555
H13 C15 1_555 1_555
C16 C15 1_555 1_555
H14 C16 1_555 1_555
C17 C16 1_555 1_555
C18 C17 1_555 1_555
H15 C18 1_555 1_555
C19 C14 1_555 1_555
H16 C19 1_555 1_555
C20 O4 1_555 1_555
C21 C20 1_555 1_555
H17 C21 1_555 1_555
C22 C21 1_555 1_555
H18 C22 1_555 1_555
C23 C22 1_555 1_555
C24 C23 1_555 1_555
H19 C24 1_555 1_555
C25 C20 1_555 1_555
H20 C25 1_555 1_555
C26 C23 1_555 1_555
Mn1A O5 1_555 1_555
Mn1C O6 1_555 1_555
Mn1_2 N2 1_555 1_555
O5A Mn1 1_555 1_555
O6C Mn1 1_555 1_555
N2_2 Mn1 1_555 1_555
C4 C5 1_555 1_555
C11 C12 1_555 1_555
C18 C19 1_555 1_555
C24 C25 1_555 1_555

#END
