
#######################################################################
#
#                 Cambridge Crystallographic Data Centre
#                                CCDC 
#
#######################################################################
#
# If this CIF has been generated from an entry in the Cambridge 
# Structural Database, then it will include bibliographic, chemical, 
# crystal, experimental, refinement or atomic coordinate data resulting 
# from the CCDC's data processing and validation procedures.
#
#######################################################################

data_SONFEG
_symmetry_cell_setting           orthorhombic
_symmetry_space_group_name_H-M   'P n a 21'
_symmetry_Int_Tables_number      33
_space_group_name_Hall           'P 2c -2n'
loop_
_symmetry_equiv_pos_site_id
_symmetry_equiv_pos_as_xyz
1 x,y,z
2 -x,-y,1/2+z
3 1/2-x,1/2+y,1/2+z
4 1/2+x,1/2-y,z
_cell_length_a                   8.966(2)
_cell_length_b                   14.552(5)
_cell_length_c                   13.085(4)
_cell_angle_alpha                90
_cell_angle_beta                 90
_cell_angle_gamma                90
_cell_volume                     1707.24
loop_
_atom_site_label
_atom_site_type_symbol
_atom_site_fract_x
_atom_site_fract_y
_atom_site_fract_z
Sn1 Sn 0.0623(1) -0.0005(1) 0.0000
S1 S 0.2456(4) 0.0051(6) 0.1829(3)
C1 C 0.1374(15) -0.0045(15) 0.2787(12)
N1 N -0.0635(14) 0.0080(16) -0.1490(10)
C2 C -0.1118(9) 0.0684(7) 0.0783(8)
C3 C -0.1277 0.1633 0.0679
C4 C -0.2478 0.2081 0.1139
C5 C -0.3519 0.1580 0.1703
C6 C -0.3359 0.0631 0.1807
C7 C -0.2159 0.0183 0.1347
C8 C 0.2424(10) 0.0732(7) -0.0681(8)
C9 C 0.2123 0.1391 -0.1427
C10 C 0.3294 0.1835 -0.1926
C11 C 0.4766 0.1619 -0.1680
C12 C 0.5068 0.0960 -0.0934
C13 C 0.3896 0.0516 -0.0435
C14 C 0.0798(12) -0.1460(6) -0.0081(13)
C15 C 0.1542 -0.1809 -0.0933
C16 C 0.1689 -0.2756 -0.1061
C17 C 0.1092 -0.3355 -0.0336
C18 C 0.0348 -0.3007 0.0516
C19 C 0.0201 -0.2059 0.0644
H1 H -0.0561 0.1977 0.0292
H2 H -0.2587 0.2734 0.1068
H3 H -0.4345 0.1889 0.2019
H4 H -0.4076 0.0287 0.2195
H5 H -0.2049 -0.0470 0.1418
H6 H 0.1109 0.1540 -0.1597
H7 H 0.3087 0.2289 -0.2439
H8 H 0.5576 0.1924 -0.2023
H9 H 0.6081 0.0811 -0.0764
H10 H 0.4104 0.0062 0.0078
H11 H 0.1953 -0.1396 -0.1432
H12 H 0.2201 -0.2996 -0.1647
H13 H 0.1193 -0.4007 -0.0424
H14 H -0.0063 -0.3419 0.1015
H15 H -0.0312 -0.1820 0.1231
N1A N 0.0635(14) -0.0080(16) 0.3510(10)
C1A C -0.1374(15) 0.0045(15) -0.2213(12)
Sn1A Sn -0.0623(1) 0.0005(1) 0.5000
S1A S -0.2456(4) -0.0051(6) -0.3171(3)
S1A_2 S -0.2456(4) -0.0051(6) 0.6829(3)
C2A C 0.1118(9) -0.0684(7) 0.5783(8)
C8A C -0.2424(10) -0.0732(7) 0.4319(8)
C14A C -0.0798(12) 0.1460(6) 0.4919(13)
Sn1A_2 Sn -0.0623(1) 0.0005(1) -0.5000
C3A C 0.1277 -0.1633 0.5679
C7A C 0.2159 -0.0183 0.6347
C9A C -0.2123 -0.1391 0.3573
C13A C -0.3896 -0.0516 0.4565
C15A C -0.1542 0.1809 0.4067
C19A C -0.0201 0.2059 0.5644
C4A C 0.2478 -0.2081 0.6139
H1A H 0.0561 -0.1977 0.5292
C6A C 0.3359 -0.0631 0.6807
H5A H 0.2049 0.0470 0.6418
C10A C -0.3294 -0.1835 0.3074
H6A H -0.1109 -0.1540 0.3403
C12A C -0.5068 -0.0960 0.4066
H10A H -0.4104 -0.0062 0.5078
C16A C -0.1689 0.2756 0.3939
H11A H -0.1953 0.1396 0.3568
C18A C -0.0348 0.3007 0.5516
H15A H 0.0312 0.1820 0.6231
C5A C 0.3519 -0.1580 0.6703
H2A H 0.2587 -0.2734 0.6068
H4A H 0.4076 -0.0287 0.7195
C11A C -0.4766 -0.1619 0.3320
H7A H -0.3087 -0.2289 0.2561
H9A H -0.6081 -0.0811 0.4236
C17A C -0.1092 0.3355 0.4664
H12A H -0.2201 0.2996 0.3353
H14A H 0.0063 0.3419 0.6015
H3A H 0.4345 -0.1889 0.7019
H8A H -0.5576 -0.1924 0.2977
H13A H -0.1193 0.4007 0.4576
loop_
_geom_bond_atom_site_label_1
_geom_bond_atom_site_label_2
_geom_bond_site_symmetry_1
_geom_bond_site_symmetry_2
Sn1 S1 1_555 1_555
S1 C1 1_555 1_555
C1 N1A 1_555 1_555
N1 Sn1 1_555 1_555
C2 Sn1 1_555 1_555
C3 C2 1_555 1_555
C4 C3 1_555 1_555
C5 C4 1_555 1_555
C6 C5 1_555 1_555
C7 C2 1_555 1_555
C8 Sn1 1_555 1_555
C9 C8 1_555 1_555
C10 C9 1_555 1_555
C11 C10 1_555 1_555
C12 C11 1_555 1_555
C13 C8 1_555 1_555
C14 Sn1 1_555 1_555
C15 C14 1_555 1_555
C16 C15 1_555 1_555
C17 C16 1_555 1_555
C18 C17 1_555 1_555
C19 C14 1_555 1_555
H1 C3 1_555 1_555
H2 C4 1_555 1_555
H3 C5 1_555 1_555
H4 C6 1_555 1_555
H5 C7 1_555 1_555
H6 C9 1_555 1_555
H7 C10 1_555 1_555
H8 C11 1_555 1_555
H9 C12 1_555 1_555
H10 C13 1_555 1_555
H11 C15 1_555 1_555
H12 C16 1_555 1_555
H13 C17 1_555 1_555
H14 C18 1_555 1_555
H15 C19 1_555 1_555
N1A Sn1A 1_555 1_555
C1A N1 1_555 1_555
Sn1A S1A_2 1_555 1_555
S1A C1A 1_555 1_555
C2A Sn1A 1_555 1_555
C8A Sn1A 1_555 1_555
C14A Sn1A 1_555 1_555
Sn1A_2 S1A 1_555 1_555
C3A C2A 1_555 1_555
C7A C2A 1_555 1_555
C9A C8A 1_555 1_555
C13A C8A 1_555 1_555
C15A C14A 1_555 1_555
C19A C14A 1_555 1_555
C4A C3A 1_555 1_555
H1A C3A 1_555 1_555
C6A C7A 1_555 1_555
H5A C7A 1_555 1_555
C10A C9A 1_555 1_555
H6A C9A 1_555 1_555
C12A C13A 1_555 1_555
H10A C13A 1_555 1_555
C16A C15A 1_555 1_555
H11A C15A 1_555 1_555
C18A C19A 1_555 1_555
H15A C19A 1_555 1_555
C5A C4A 1_555 1_555
H2A C4A 1_555 1_555
H4A C6A 1_555 1_555
C11A C10A 1_555 1_555
H7A C10A 1_555 1_555
H9A C12A 1_555 1_555
C17A C16A 1_555 1_555
H12A C16A 1_555 1_555
H14A C18A 1_555 1_555
H3A C5A 1_555 1_555
H8A C11A 1_555 1_555
H13A C17A 1_555 1_555
C6 C7 1_555 1_555
C12 C13 1_555 1_555
C18 C19 1_555 1_555
C6A C5A 1_555 1_555
C12A C11A 1_555 1_555
C18A C17A 1_555 1_555

#END
