
#######################################################################
#
#                 Cambridge Crystallographic Data Centre
#                                CCDC 
#
#######################################################################
#
# If this CIF has been generated from an entry in the Cambridge 
# Structural Database, then it will include bibliographic, chemical, 
# crystal, experimental, refinement or atomic coordinate data resulting 
# from the CCDC's data processing and validation procedures.
#
#######################################################################

data_SONFEG01
_symmetry_cell_setting           monoclinic
_symmetry_space_group_name_H-M   'P 21'
_symmetry_Int_Tables_number      4
_space_group_name_Hall           'P 2yb'
loop_
_symmetry_equiv_pos_site_id
_symmetry_equiv_pos_as_xyz
1 x,y,z
2 -x,1/2+y,-z
_cell_length_a                   19.02(3)
_cell_length_b                   11.67(2)
_cell_length_c                   15.49(2)
_cell_angle_alpha                90
_cell_angle_beta                 95.64(10)
_cell_angle_gamma                90
_cell_volume                     3421.57
loop_
_atom_site_label
_atom_site_type_symbol
_atom_site_fract_x
_atom_site_fract_y
_atom_site_fract_z
C1 C -0.47340 -0.41010 -0.09390
C8 C -0.63330 -0.07450 -0.08840
C15 C -0.66820 -0.01110 -0.16060
C22 C -0.63230 0.02640 -0.22500
C23 C -0.56150 0.00060 -0.21720
C24 C -0.52650 -0.06280 -0.14500
C25 C -0.56240 -0.10030 -0.08060
C27 C -0.63780 -0.35940 0.03790
C28 C -0.68260 -0.43700 0.07610
C29 C -0.67810 -0.44730 0.16500
C30 C -0.62890 -0.38000 0.21570
C31 C -0.58420 -0.30240 0.17750
C32 C -0.58860 -0.29210 0.08860
C34 C -0.39180 -0.09780 0.12920
C35 C -0.31810 -0.09060 0.15960
C36 C -0.26560 -0.15250 0.12250
C37 C -0.28680 -0.22140 0.05490
C38 C -0.36050 -0.22860 0.02450
C39 C -0.41300 -0.16670 0.06170
N1 N -0.49110 -0.32680 -0.06950
Sn1 Sn -0.52090 -0.19600 0.01990
S1 S -0.43740 -0.52230 -0.14060
S1A S -0.56260 -0.02230 0.14060
Sn1A Sn -0.47910 -0.69600 -0.01990
C2 C 0.46160 0.33290 0.36450
C3 C 0.42300 0.26000 0.29770
C4 C 0.35290 0.25690 0.28990
C5 C 0.32150 0.32670 0.34890
C6 C 0.36020 0.39960 0.41570
C7 C 0.43030 0.40270 0.42350
C9 C 0.36880 0.66690 0.54050
C10 C 0.32130 0.73670 0.58140
C11 C 0.32310 0.73600 0.67160
C12 C 0.37250 0.66540 0.72100
C13 C 0.42000 0.59560 0.68010
C14 C 0.41810 0.59640 0.58990
C16 C 0.61150 0.40740 0.62980
C17 C 0.68400 0.38380 0.65720
C18 C 0.73570 0.43080 0.62020
C19 C 0.71480 0.50140 0.55590
C20 C 0.64230 0.52500 0.52850
C21 C 0.59060 0.47800 0.56550
C40 C 0.52540 0.71790 0.40660
N4 N 0.49680 0.62510 0.43610
Sn4 Sn 0.48190 0.48810 0.52390
S4 S 0.56180 0.81360 0.35750
S4A S 0.43820 0.31360 0.64250
Sn4A Sn 0.51810 0.98810 0.47610
C26 C -0.03080 -0.35900 -0.40380
C41 C 0.03130 0.01890 -0.36890
C42 C 0.06870 0.07890 -0.30500
C43 C 0.14290 0.08040 -0.29570
C44 C 0.17970 0.02190 -0.35030
C45 C 0.14230 -0.03810 -0.41420
C46 C 0.06810 -0.03960 -0.42350
C47 C 0.13460 -0.31840 -0.54870
C48 C 0.18160 -0.38930 -0.58610
C49 C 0.18290 -0.38320 -0.67090
C50 C 0.13730 -0.30640 -0.71820
C51 C 0.09030 -0.23550 -0.68070
C52 C 0.08900 -0.24160 -0.59600
C53 C -0.11230 -0.03210 -0.63030
C54 C -0.18620 -0.02420 -0.65570
C55 C -0.23610 -0.09660 -0.61660
C56 C -0.21220 -0.17700 -0.55190
C57 C -0.13830 -0.18480 -0.52640
C58 C -0.08840 -0.11240 -0.56560
N2 N -0.01140 -0.28380 -0.43420
Sn2 Sn 0.01990 -0.14540 -0.52660
S2 S -0.06360 -0.46730 -0.35870
S2A S 0.06360 0.03270 -0.64130
Sn2A Sn -0.01990 -0.64540 -0.47340
C33 C -0.02730 -0.25550 0.10280
C59 C 0.05210 -0.57280 0.16330
C60 C 0.08450 -0.63740 0.23410
C61 C 0.14280 -0.70020 0.22740
C62 C 0.16860 -0.69850 0.15000
C63 C 0.13620 -0.63390 0.07930
C64 C 0.07790 -0.57100 0.08590
C65 C 0.15670 -0.37110 -0.07820
C66 C 0.19400 -0.30310 -0.13460
C67 C 0.16150 -0.24450 -0.20210
C68 C 0.09170 -0.25390 -0.21330
C69 C 0.05440 -0.32190 -0.15700
C70 C 0.08690 -0.38050 -0.08950
C71 C -0.10930 -0.48420 -0.13030
C72 C -0.17900 -0.51360 -0.15190
C73 C -0.22320 -0.53620 -0.09410
C74 C -0.19770 -0.52950 -0.01470
C75 C -0.12790 -0.50010 0.00680
C76 C -0.08370 -0.47750 -0.05100
N3 N 0.00640 -0.32550 0.06850
Sn3 Sn 0.02620 -0.48040 -0.01540
S3 S -0.06180 -0.15410 0.13970
S3A S 0.06180 -0.65410 -0.13970
Sn3A Sn -0.02620 0.01960 0.01540
loop_
_geom_bond_atom_site_label_1
_geom_bond_atom_site_label_2
_geom_bond_site_symmetry_1
_geom_bond_site_symmetry_2
C1 N1 1_555 1_555
C2 C3 1_555 1_555
C3 C4 1_555 1_555
C4 C5 1_555 1_555
C5 C6 1_555 1_555
C6 C7 1_555 1_555
C7 C2 1_555 1_555
C8 C15 1_555 1_555
C9 C10 1_555 1_555
C10 C11 1_555 1_555
C11 C12 1_555 1_555
C12 C13 1_555 1_555
C13 C14 1_555 1_555
C14 C9 1_555 1_555
C15 C22 1_555 1_555
C16 C17 1_555 1_555
C17 C18 1_555 1_555
C18 C19 1_555 1_555
C19 C20 1_555 1_555
C20 C21 1_555 1_555
C21 C16 1_555 1_555
C22 C23 1_555 1_555
C23 C24 1_555 1_555
C24 C25 1_555 1_555
C25 C8 1_555 1_555
C26 N2 1_555 1_555
C27 C28 1_555 1_555
C28 C29 1_555 1_555
C29 C30 1_555 1_555
C30 C31 1_555 1_555
C31 C32 1_555 1_555
C32 C27 1_555 1_555
C33 N3 1_555 1_555
C34 C35 1_555 1_555
C35 C36 1_555 1_555
C36 C37 1_555 1_555
C37 C38 1_555 1_555
C38 C39 1_555 1_555
C39 C34 1_555 1_555
C40 N4 1_555 1_555
C41 C42 1_555 1_555
C42 C43 1_555 1_555
C43 C44 1_555 1_555
C44 C45 1_555 1_555
C45 C46 1_555 1_555
C46 C41 1_555 1_555
C47 C48 1_555 1_555
C48 C49 1_555 1_555
C49 C50 1_555 1_555
C50 C51 1_555 1_555
C51 C52 1_555 1_555
C52 C47 1_555 1_555
C53 C54 1_555 1_555
C54 C55 1_555 1_555
C55 C56 1_555 1_555
C56 C57 1_555 1_555
C57 C58 1_555 1_555
C58 C53 1_555 1_555
C59 C60 1_555 1_555
C60 C61 1_555 1_555
C61 C62 1_555 1_555
C62 C63 1_555 1_555
C63 C64 1_555 1_555
C64 C59 1_555 1_555
C65 C66 1_555 1_555
C66 C67 1_555 1_555
C67 C68 1_555 1_555
C68 C69 1_555 1_555
C69 C70 1_555 1_555
C70 C65 1_555 1_555
C71 C72 1_555 1_555
C72 C73 1_555 1_555
C73 C74 1_555 1_555
C74 C75 1_555 1_555
C75 C76 1_555 1_555
C76 C71 1_555 1_555
N1 Sn1 1_555 1_555
N2 Sn2 1_555 1_555
N3 Sn3 1_555 1_555
N4 Sn4 1_555 1_555
Sn1 C25 1_555 1_555
Sn2 C46 1_555 1_555
Sn3 C64 1_555 1_555
Sn4 C7 1_555 1_555
S1 C1 1_555 1_555
S2 C26 1_555 1_555
S3 C33 1_555 1_555
S4 C40 1_555 1_555
S1A Sn1 1_555 1_555
S2A Sn2 1_555 1_555
S3A Sn3 1_555 1_555
S4A Sn4 1_555 1_555
Sn1A S1 1_555 1_555
Sn2A S2 1_555 1_555
Sn3A S3 1_555 1_555
Sn4A S4 1_555 1_555
C14 Sn4 1_555 1_555
C21 Sn4 1_555 1_555
C32 Sn1 1_555 1_555
C39 Sn1 1_555 1_555
C52 Sn2 1_555 1_555
C58 Sn2 1_555 1_555
C70 Sn3 1_555 1_555
C76 Sn3 1_555 1_555

#END
