
#######################################################################
#
#                 Cambridge Crystallographic Data Centre
#                                CCDC 
#
#######################################################################
#
# If this CIF has been generated from an entry in the Cambridge 
# Structural Database, then it will include bibliographic, chemical, 
# crystal, experimental, refinement or atomic coordinate data resulting 
# from the CCDC's data processing and validation procedures.
#
#######################################################################

data_SONFIL
_symmetry_cell_setting           triclinic
_symmetry_space_group_name_H-M   'P -1'
_symmetry_Int_Tables_number      2
_space_group_name_Hall           '-P 1'
loop_
_symmetry_equiv_pos_site_id
_symmetry_equiv_pos_as_xyz
1 x,y,z
2 -x,-y,-z
_cell_length_a                   9.314(5)
_cell_length_b                   11.334(7)
_cell_length_c                   12.472(7)
_cell_angle_alpha                69.658(9)
_cell_angle_beta                 80.316(9)
_cell_angle_gamma                87.866(9)
_cell_volume                     1216.58
loop_
_atom_site_label
_atom_site_type_symbol
_atom_site_fract_x
_atom_site_fract_y
_atom_site_fract_z
C1 C 0.7482(4) 0.8404(4) 0.4385(3)
C2 C 0.6577(4) 0.9100(4) 0.3483(3)
C3 C 0.5977(4) 1.0213(4) 0.3508(3)
H1 H 0.6107 1.0501 0.4099
C4 C 0.5175(4) 1.0924(4) 0.2666(4)
H2 H 0.4757 1.1670 0.2700
C5 C 0.5014(4) 1.0509(4) 0.1795(4)
C6 C 0.5550(5) 0.9391(4) 0.1762(3)
H3 H 0.5398 0.9106 0.1173
C7 C 0.6332(4) 0.8670(4) 0.2622(3)
H4 H 0.6688 0.7895 0.2612
C8 C 0.5038(5) 1.2305(4) 0.0131(3)
C9 C 0.6522(5) 1.2407(4) -0.0066(4)
H5 H 0.7062 1.1758 0.0359
C10 C 0.7232(5) 1.3473(4) -0.0898(4)
H6 H 0.8244 1.3529 -0.1022
C11 C 0.6460(5) 1.4452(4) -0.1545(3)
C12 C 0.4962(5) 1.4338(4) -0.1334(4)
H7 H 0.4418 1.4992 -0.1747
C13 C 0.4244(4) 1.3256(4) -0.0511(4)
H8 H 0.3234 1.3181 -0.0399
C14 C 0.7232(5) 1.5582(4) -0.2435(3)
C15 C 0.8990(4) 0.9529(4) 0.6926(3)
H9 H 0.8783 0.9984 0.6192
C16 C 0.9287(4) 1.0193(4) 0.7625(3)
H10 H 0.9275 1.1068 0.7353
C17 C 0.9599(4) 0.9548(4) 0.8721(3)
C18 C 0.9593(4) 0.8238(4) 0.9079(3)
H11 H 0.9791 0.7759 0.9810
C19 C 0.9286(4) 0.7661(4) 0.8321(4)
H12 H 0.9289 0.6787 0.8569
C20 C 0.9918(4) 1.0254(4) 0.9459(3)
H13 H 1.0010 1.1126 0.9124
C21 C 1.1891(5) 0.7527(4) 0.5887(3)
H14 H 1.1759 0.8093 0.6283
C22 C 1.3249(4) 0.6998(4) 0.5775(4)
H15 H 1.4001 0.7216 0.6081
C23 C 1.3471(4) 0.6138(4) 0.5200(3)
C24 C 1.2333(4) 0.5914(4) 0.4719(3)
H16 H 1.2443 0.5374 0.4296
C25 C 1.1022(4) 0.6499(4) 0.4868(3)
H17 H 1.0273 0.6335 0.4528
C26 C 1.4880(4) 0.5505(3) 0.5148(3)
H18 H 1.5655 0.5842 0.5338
Co1 Co 0.86134(5) 0.74191(5) 0.61294(4)
N1 N 0.8988(3) 0.8283(3) 0.7258(3)
N2 N 1.0757(3) 0.7275(3) 0.5461(3)
O1 O 0.7838(3) 0.8968(2) 0.5032(2)
O2 O 0.7876(3) 0.7286(2) 0.4524(2)
O3 O 0.6532(3) 1.6556(2) -0.2913(2)
O4 O 0.8617(3) 1.5574(2) -0.2725(2)
O5 O 0.4264(3) 1.1255(3) 0.0911(2)
C1_2 C 0.7482(4) -0.1596(4) 1.4385(3)
C2_2 C 0.6577(4) -0.0900(4) 1.3483(3)
C3_2 C 0.5977(4) 0.0213(4) 1.3508(3)
H1_2 H 0.6107 0.0501 1.4099
C4_2 C 0.5175(4) 0.0924(4) 1.2666(4)
H2_2 H 0.4757 0.1670 1.2700
C5_2 C 0.5014(4) 0.0509(4) 1.1795(4)
C6_2 C 0.5550(5) -0.0609(4) 1.1762(3)
H3_2 H 0.5398 -0.0894 1.1173
C7_2 C 0.6332(4) -0.1330(4) 1.2622(3)
H4_2 H 0.6688 -0.2105 1.2612
C8_2 C 0.5038(5) 0.2305(4) 1.0131(3)
C9_2 C 0.6522(5) 0.2407(4) 0.9934(4)
H5_2 H 0.7062 0.1758 1.0359
C10_2 C 0.7232(5) 0.3473(4) 0.9102(4)
H6_2 H 0.8244 0.3529 0.8978
C11_2 C 0.6460(5) 0.4452(4) 0.8455(3)
C12_2 C 0.4962(5) 0.4338(4) 0.8666(4)
H7_2 H 0.4418 0.4992 0.8253
C13_2 C 0.4244(4) 0.3256(4) 0.9489(4)
H8_2 H 0.3234 0.3181 0.9601
C14_2 C 0.7232(5) 0.5582(4) 0.7565(3)
C15A C 1.1010(4) 1.0471(4) 1.3074(3)
H9A H 1.1217 1.0016 1.3808
C16A C 1.0713(4) 0.9807(4) 1.2375(3)
H10A H 1.0725 0.8932 1.2647
C17A C 1.0401(4) 1.0452(4) 1.1279(3)
C18A C 1.0407(4) 1.1762(4) 1.0921(3)
H11A H 1.0209 1.2241 1.0190
C19A C 1.0714(4) 1.2339(4) 1.1679(4)
H12A H 1.0711 1.3213 1.1431
C20A C 1.0082(4) 0.9746(4) 1.0541(3)
H13A H 0.9990 0.8874 1.0876
C21A C 1.8109(5) 0.2473(4) 0.4113(3)
H14A H 1.8241 0.1907 0.3717
C22A C 1.6751(4) 0.3002(4) 0.4225(4)
H15A H 1.5999 0.2784 0.3919
C23A C 1.6529(4) 0.3862(4) 0.4800(3)
C24A C 1.7667(4) 0.4086(4) 0.5281(3)
H16A H 1.7557 0.4626 0.5704
C25A C 1.8978(4) 0.3501(4) 0.5132(3)
H17A H 1.9727 0.3665 0.5472
C26A C 1.5120(4) 0.4495(3) 0.4852(3)
H18A H 1.4345 0.4158 0.4662
Co1A Co 1.13866(5) 1.25809(5) 1.38706(4)
Co1_2 Co 0.86134(5) 1.74191(5) -0.38706(4)
Co1A_2 Co 2.13866(5) 0.25809(5) 0.38706(4)
Co1_3 Co 0.86134(5) -0.25809(5) 1.61294(4)
N1A N 1.1012(3) 1.1717(3) 1.2742(3)
N2A N 1.9243(3) 0.2725(3) 0.4539(3)
N2A_2 N 0.9243(3) 1.2725(3) 1.4539(3)
O1_2 O 0.7838(3) -0.1032(2) 1.5032(2)
O1A O 1.2162(3) 1.1032(2) 1.4968(2)
O2_2 O 0.7876(3) -0.2714(2) 1.4524(2)
O2A O 1.2124(3) 1.2714(2) 1.5476(2)
O3_2 O 0.6532(3) 0.6556(2) 0.7087(2)
O3A O 1.3468(3) 1.3444(2) 1.2913(2)
O4_2 O 0.8617(3) 0.5574(2) 0.7275(2)
O4A O 1.1383(3) 1.4426(2) 1.2725(2)
O5_2 O 0.4264(3) 0.1255(3) 1.0911(2)
O6 O 0.0806(5) 0.3563(4) 0.7624(3)
H19 H 0.136(5) 0.394(4) 0.698(2)
H20 H 0.082(7) 0.402(4) 0.806(4)
loop_
_geom_bond_atom_site_label_1
_geom_bond_atom_site_label_2
_geom_bond_site_symmetry_1
_geom_bond_site_symmetry_2
C1 C2 1_555 1_555
C2 C3 1_555 1_555
C3 H1 1_555 1_555
C4 C3 1_555 1_555
H2 C4 1_555 1_555
C5 C4 1_555 1_555
C6 C5 1_555 1_555
H3 C6 1_555 1_555
C7 C2 1_555 1_555
H4 C7 1_555 1_555
C8 C9 1_555 1_555
C9 H5 1_555 1_555
C10 C9 1_555 1_555
H6 C10 1_555 1_555
C11 C10 1_555 1_555
C12 C11 1_555 1_555
H7 C12 1_555 1_555
C13 C8 1_555 1_555
H8 C13 1_555 1_555
C14 C11 1_555 1_555
C15 H9 1_555 1_555
C16 C15 1_555 1_555
H10 C16 1_555 1_555
C17 C16 1_555 1_555
C18 C17 1_555 1_555
H11 C18 1_555 1_555
C19 C18 1_555 1_555
H12 C19 1_555 1_555
C20 C17 1_555 1_555
H13 C20 1_555 1_555
C21 H14 1_555 1_555
C22 C21 1_555 1_555
H15 C22 1_555 1_555
C23 C22 1_555 1_555
C24 C23 1_555 1_555
H16 C24 1_555 1_555
C25 C24 1_555 1_555
H17 C25 1_555 1_555
C26 C23 1_555 1_555
H18 C26 1_555 1_555
Co1 N1 1_555 1_555
N1 C15 1_555 1_555
N2 C21 1_555 1_555
O1 C1 1_555 1_555
O2 C1 1_555 1_555
O3 C14 1_555 1_555
O4 C14 1_555 1_555
O5 C5 1_555 1_555
O6 H19 1_555 1_555
H20 O6 1_555 1_555
C1_2 C2_2 1_555 1_555
C2_2 C3_2 1_555 1_555
C3_2 H1_2 1_555 1_555
C4_2 C3_2 1_555 1_555
H2_2 C4_2 1_555 1_555
C5_2 C4_2 1_555 1_555
C6_2 C5_2 1_555 1_555
H3_2 C6_2 1_555 1_555
C7_2 C2_2 1_555 1_555
H4_2 C7_2 1_555 1_555
C8_2 C9_2 1_555 1_555
C9_2 H5_2 1_555 1_555
C10_2 C9_2 1_555 1_555
H6_2 C10_2 1_555 1_555
C11_2 C10_2 1_555 1_555
C12_2 C11_2 1_555 1_555
H7_2 C12_2 1_555 1_555
C13_2 C8_2 1_555 1_555
H8_2 C13_2 1_555 1_555
C14_2 C11_2 1_555 1_555
C15A H9A 1_555 1_555
C16A C15A 1_555 1_555
H10A C16A 1_555 1_555
C17A C16A 1_555 1_555
C18A C17A 1_555 1_555
H11A C18A 1_555 1_555
C19A C18A 1_555 1_555
H12A C19A 1_555 1_555
C20A C20 1_555 1_555
H13A C20A 1_555 1_555
C21A H14A 1_555 1_555
C22A C21A 1_555 1_555
H15A C22A 1_555 1_555
C23A C22A 1_555 1_555
C24A C23A 1_555 1_555
H16A C24A 1_555 1_555
C25A C24A 1_555 1_555
H17A C25A 1_555 1_555
C26A C26 1_555 1_555
H18A C26A 1_555 1_555
Co1A N1A 1_555 1_555
Co1_2 O3 1_555 1_555
Co1A_2 N2A 1_555 1_555
Co1_3 O1_2 1_555 1_555
N1A C15A 1_555 1_555
N2A C21A 1_555 1_555
N2A_2 Co1A 1_555 1_555
O1_2 C1_2 1_555 1_555
O1A Co1A 1_555 1_555
O2_2 C1_2 1_555 1_555
O2A Co1A 1_555 1_555
O3_2 Co1 1_555 1_555
O3A Co1A 1_555 1_555
O4_2 Co1 1_555 1_555
O4A Co1A 1_555 1_555
O5_2 C5_2 1_555 1_555
C6 C7 1_555 1_555
C8 O5 1_555 1_555
C12 C13 1_555 1_555
C19 N1 1_555 1_555
C25 N2 1_555 1_555
Co1 N2 1_555 1_555
Co1 O1 1_555 1_555
Co1 O2 1_555 1_555
O4 Co1_2 1_555 1_555
C6_2 C7_2 1_555 1_555
C8_2 O5_2 1_555 1_555
C12_2 C13_2 1_555 1_555
C14_2 O3_2 1_555 1_555
C14_2 O4_2 1_555 1_555
C17A C20A 1_555 1_555
C19A N1A 1_555 1_555
C23A C26A 1_555 1_555
C25A N2A 1_555 1_555
Co1_3 O2_2 1_555 1_555

#END
