
#######################################################################
#
#                 Cambridge Crystallographic Data Centre
#                                CCDC 
#
#######################################################################
#
# If this CIF has been generated from an entry in the Cambridge 
# Structural Database, then it will include bibliographic, chemical, 
# crystal, experimental, refinement or atomic coordinate data resulting 
# from the CCDC's data processing and validation procedures.
#
#######################################################################

data_SONFUX
_symmetry_cell_setting           monoclinic
_symmetry_space_group_name_H-M   'P 21/n'
_symmetry_Int_Tables_number      14
_space_group_name_Hall           '-P 2yn'
loop_
_symmetry_equiv_pos_site_id
_symmetry_equiv_pos_as_xyz
1 x,y,z
2 1/2-x,1/2+y,1/2-z
3 -x,-y,-z
4 1/2+x,1/2-y,1/2+z
_cell_length_a                   14.8933(11)
_cell_length_b                   8.1547(6)
_cell_length_c                   23.1093(17)
_cell_angle_alpha                90
_cell_angle_beta                 90.1890(10)
_cell_angle_gamma                90
_cell_volume                     2806.62
loop_
_atom_site_label
_atom_site_type_symbol
_atom_site_fract_x
_atom_site_fract_y
_atom_site_fract_z
Zn1 Zn 0.30433(4) 0.62667(7) 0.89490(2)
N1 N 0.3526(3) 0.3958(5) 0.91442(17)
N2 N 0.3914(3) 0.4631(5) 1.01028(18)
H1 H 0.4274 0.4328 1.0374
N3 N 0.3005(3) 0.6921(5) 0.98305(17)
N4 N 0.2089(4) 0.9277(7) 0.9647(2)
H2 H 0.1722 0.9898 0.9832
N5 N 0.2503(3) 0.8533(5) 0.87120(18)
O1 O 0.4007(2) 0.6454(4) 0.82952(14)
O2 O 0.4768(2) 0.6944(5) 0.90988(15)
O3 O 0.8063(2) 0.5914(6) 0.74380(16)
O4 O 1.1983(2) 0.5321(5) 0.84794(16)
O5 O 1.1186(3) 0.4923(7) 0.92770(19)
C1 C 0.3570(3) 0.2873(7) 0.8707(2)
H3 H 0.3291 0.3148 0.8359
C2 C 0.3996(4) 0.1405(7) 0.8739(2)
H4 H 0.4018 0.0701 0.8423
C3 C 0.4390(5) 0.1001(7) 0.9254(3)
H5 H 0.4686 0.0003 0.9295
C4 C 0.4348(4) 0.2066(8) 0.9708(3)
H6 H 0.4607 0.1793 1.0062
C5 C 0.3916(3) 0.3559(6) 0.9637(2)
C6 C 0.3467(3) 0.6075(6) 1.0236(2)
C7 C 0.3543(4) 0.6563(7) 1.0807(2)
H7 H 0.3877 0.5949 1.1070
C8 C 0.3115(5) 0.7971(8) 1.0979(2)
H8 H 0.3149 0.8319 1.1361
C9 C 0.2640(5) 0.8853(8) 1.0582(2)
H9 H 0.2346 0.9811 1.0690
C10 C 0.2598(4) 0.8304(7) 1.0013(2)
C11 C 0.2032(4) 0.9487(7) 0.9055(2)
C12 C 0.1490(4) 1.0750(8) 0.8840(3)
H10 H 0.1151 1.1390 0.9091
C13 C 0.1465(4) 1.1031(8) 0.8262(3)
H11 H 0.1112 1.1872 0.8112
C14 C 0.1961(4) 1.0070(7) 0.7903(3)
H12 H 0.1953 1.0245 0.7505
C15 C 0.2470(4) 0.8845(7) 0.8137(2)
H13 H 0.2810 0.8194 0.7890
C16 C 0.4736(3) 0.6716(6) 0.8565(2)
C17 C 0.5601(3) 0.6665(6) 0.8235(2)
C18 C 0.5665(3) 0.5855(7) 0.7712(2)
H14 H 0.5148 0.5473 0.7531
C19 C 0.6497(3) 0.5606(9) 0.7454(2)
H15 H 0.6541 0.5032 0.7108
C20 C 0.7250(3) 0.6220(8) 0.7719(2)
C21 C 0.7207(3) 0.7105(7) 0.8221(2)
H16 H 0.7722 0.7556 0.8385
C22 C 0.6374(3) 0.7309(7) 0.8479(2)
H17 H 0.6334 0.7893 0.8823
C23 C 0.8825(3) 0.5650(8) 0.7771(2)
C24 C 0.9614(4) 0.6256(8) 0.7561(2)
H18 H 0.9616 0.6818 0.7211
C25 C 1.0410(4) 0.6046(8) 0.7862(3)
H19 H 1.0944 0.6459 0.7715
C26 C 1.0402(3) 0.5215(7) 0.8385(2)
C27 C 0.9606(4) 0.4574(8) 0.8585(3)
H20 H 0.9592 0.4012 0.8935
C28 C 0.8828(3) 0.4767(8) 0.8264(3)
H21 H 0.8299 0.4280 0.8391
C29 C 1.1250(4) 0.5128(7) 0.8745(2)
Zn1_2 Zn 1.30433(4) 0.62667(7) 0.89490(2)
O4_2 O 0.1983(2) 0.5321(5) 0.84794(16)
O6 O 1.0085(7) 0.6900(15) 0.9948(4)
H22 H 1.0145 0.6343 1.0207
H23 H 1.0344 0.6553 0.9658
O7 O 0.8221(5) 0.7260(11) 0.9817(3)
H24 H 0.8789 0.7188 0.9845
H25 H 0.8273 0.8169 0.9659
loop_
_geom_bond_atom_site_label_1
_geom_bond_atom_site_label_2
_geom_bond_site_symmetry_1
_geom_bond_site_symmetry_2
Zn1 N1 1_555 1_555
N1 C1 1_555 1_555
N2 H1 1_555 1_555
N3 Zn1 1_555 1_555
N4 H2 1_555 1_555
N5 Zn1 1_555 1_555
O1 Zn1 1_555 1_555
O2 C16 1_555 1_555
O3 C20 1_555 1_555
O4 C29 1_555 1_555
O5 C29 1_555 1_555
C1 H3 1_555 1_555
C2 C1 1_555 1_555
H4 C2 1_555 1_555
C3 C2 1_555 1_555
H5 C3 1_555 1_555
C4 C3 1_555 1_555
H6 C4 1_555 1_555
C5 N1 1_555 1_555
C6 N2 1_555 1_555
C7 C6 1_555 1_555
H7 C7 1_555 1_555
C8 C7 1_555 1_555
H8 C8 1_555 1_555
C9 C8 1_555 1_555
H9 C9 1_555 1_555
C10 N3 1_555 1_555
C11 N4 1_555 1_555
C12 C11 1_555 1_555
H10 C12 1_555 1_555
C13 C12 1_555 1_555
H11 C13 1_555 1_555
C14 C13 1_555 1_555
H12 C14 1_555 1_555
C15 N5 1_555 1_555
H13 C15 1_555 1_555
C16 O1 1_555 1_555
C17 C16 1_555 1_555
C18 C17 1_555 1_555
H14 C18 1_555 1_555
C19 C18 1_555 1_555
H15 C19 1_555 1_555
C20 C19 1_555 1_555
C21 C20 1_555 1_555
H16 C21 1_555 1_555
C22 C17 1_555 1_555
H17 C22 1_555 1_555
C23 O3 1_555 1_555
C24 C23 1_555 1_555
H18 C24 1_555 1_555
C25 C24 1_555 1_555
H19 C25 1_555 1_555
C26 C25 1_555 1_555
C27 C26 1_555 1_555
H20 C27 1_555 1_555
C28 C23 1_555 1_555
H21 C28 1_555 1_555
C29 C26 1_555 1_555
O6 H22 1_555 1_555
H23 O6 1_555 1_555
O7 H24 1_555 1_555
H25 O7 1_555 1_555
Zn1_2 O4 1_555 1_555
O4_2 Zn1 1_555 1_555
N2 C5 1_555 1_555
N3 C6 1_555 1_555
N4 C10 1_555 1_555
N5 C11 1_555 1_555
C4 C5 1_555 1_555
C9 C10 1_555 1_555
C14 C15 1_555 1_555
C21 C22 1_555 1_555
C27 C28 1_555 1_555

#END
