
#######################################################################
#
#                 Cambridge Crystallographic Data Centre
#                                CCDC 
#
#######################################################################
#
# If this CIF has been generated from an entry in the Cambridge 
# Structural Database, then it will include bibliographic, chemical, 
# crystal, experimental, refinement or atomic coordinate data resulting 
# from the CCDC's data processing and validation procedures.
#
#######################################################################

data_SONKAI
_symmetry_cell_setting           tetragonal
_symmetry_space_group_name_H-M   'P 4/n c c'
_symmetry_Int_Tables_number      130
_space_group_name_Hall           '-P 4a 2ac'
loop_
_symmetry_equiv_pos_site_id
_symmetry_equiv_pos_as_xyz
1 x,y,z
2 1/2-y,x,z
3 1/2+x,-y,1/2-z
4 1/2-x,1/2-y,z
5 1/2+y,1/2+x,1/2-z
6 y,1/2-x,z
7 -x,1/2+y,1/2-z
8 -y,-x,1/2-z
9 -x,-y,-z
10 1/2+y,-x,-z
11 1/2-x,y,1/2+z
12 1/2+x,1/2+y,-z
13 1/2-y,1/2-x,1/2+z
14 -y,1/2+x,-z
15 x,1/2-y,1/2+z
16 y,x,1/2+z
_cell_length_a                   48.488(7)
_cell_length_b                   48.488(7)
_cell_length_c                   33.480(7)
_cell_angle_alpha                90
_cell_angle_beta                 90
_cell_angle_gamma                90
_cell_volume                     78714.4
loop_
_atom_site_label
_atom_site_type_symbol
_atom_site_fract_x
_atom_site_fract_y
_atom_site_fract_z
Cu1 Cu 0.491262(14) 0.603379(13) 0.60332(2)
Cu2 Cu 0.672983(14) 0.465369(15) 0.59792(3)
N1 N 0.52273(11) 0.60713(9) 0.64190(18)
N2 N 0.56499(14) 0.61093(11) 0.6668(2)
N3 N 0.55809(9) 0.54717(10) 0.51284(17)
N4 N 0.58939(9) 0.57534(12) 0.48548(19)
N5 N 0.66579(9) 0.49782(12) 0.5621(2)
N6 N 0.66217(10) 0.53963(13) 0.5374(2)
N7 N 0.61353(11) 0.52116(12) 0.7026(2)
N8 N 0.63396(13) 0.55965(12) 0.7240(3)
N9 N 0.48650(11) 0.80307(11) 0.6347(2)
N10 N 0.52215(11) 0.77920(13) 0.6597(2)
N11 N 0.47671(11) 0.74327(17) 0.4997(3)
N12 N 0.51897(13) 0.74275(17) 0.4750(3)
N13 N 0.50843(9) 0.62881(10) 0.56400(16)
N14 N 0.53361(10) 0.66129(10) 0.53659(19)
N15 N 0.47437(17) 0.69064(12) 0.6871(2)
N16 N 0.5129(2) 0.70394(12) 0.7195(2)
O1 O 0.64255(10) 0.44468(9) 0.57331(16)
O2 O 0.62621(9) 0.44899(10) 0.63507(19)
O3 O 0.47363(8) 0.57854(9) 0.64139(13)
O4 O 0.49282(9) 0.54428(8) 0.60596(14)
O5 O 0.43947(9) 0.63015(9) 0.60755(15)
O6 O 0.45968(8) 0.59911(8) 0.56810(12)
O7 O 0.42532(12) 0.79656(10) 0.5592(2)
O8 O 0.43021(11) 0.81384(12) 0.6199(2)
C1 C 0.55015(16) 0.60441(11) 0.6336(3)
C2 C 0.52036(19) 0.61610(12) 0.6811(2)
C3 C 0.49652(18) 0.62319(13) 0.7020(3)
H1 H 0.4789 0.6212 0.6905
C4 C 0.4999(2) 0.63339(14) 0.7408(3)
H2 H 0.4844 0.6391 0.7556
C5 C 0.5266(3) 0.63523(17) 0.7581(3)
H3 H 0.5286 0.6413 0.7846
C6 C 0.5498(2) 0.62817(17) 0.7361(3)
H4 H 0.5673 0.6298 0.7479
C7 C 0.5476(2) 0.61873(14) 0.6970(4)
C8 C 0.59471(15) 0.60925(15) 0.6734(2)
H5 H 0.6027 0.5963 0.6546
H6 H 0.5983 0.6030 0.7005
H7 H 0.6029 0.6273 0.6695
C9 C 0.56217(13) 0.59717(12) 0.5958(2)
C10 C 0.55203(12) 0.57357(13) 0.5778(2)
H8 H 0.5388 0.5622 0.5899
C11 C 0.56267(12) 0.56811(13) 0.5411(2)
C12 C 0.57378(13) 0.55209(15) 0.4807(2)
C13 C 0.58240(13) 0.58566(14) 0.5226(2)
C14 C 0.59210(13) 0.60932(14) 0.5413(3)
C15 C 0.58182(13) 0.61396(12) 0.5778(3)
H9 H 0.5882 0.6294 0.5920
C16 C 0.61123(13) 0.62852(13) 0.5208(2)
H10 H 0.6031 0.6345 0.4958
H11 H 0.6285 0.6192 0.5155
H12 H 0.6146 0.6444 0.5377
C17 C 0.57592(13) 0.53362(15) 0.4458(2)
H13 H 0.5768 0.5446 0.4213
H14 H 0.5596 0.5218 0.4444
C18 C 0.60247(15) 0.5155(2) 0.4496(3)
H15 H 0.6187 0.5274 0.4504
H16 H 0.6018 0.5051 0.4748
C19 C 0.60499(19) 0.4967(2) 0.4174(4)
H17 H 0.6070 0.5069 0.3926
H18 H 0.5886 0.4852 0.4160
H19 H 0.6211 0.4851 0.4214
C20 C 0.53723(10) 0.52510(12) 0.51828(18)
H20 H 0.5272 0.5225 0.4932
H21 H 0.5239 0.5309 0.5386
C21 C 0.55000(12) 0.49757(12) 0.5309(2)
C22 C 0.56263(13) 0.49504(14) 0.5664(2)
H22 H 0.5643 0.5105 0.5833
C23 C 0.57310(12) 0.47007(15) 0.5783(2)
H23 H 0.5818 0.4686 0.6033
C24 C 0.57102(11) 0.44681(12) 0.5540(2)
C25 C 0.55830(12) 0.44970(13) 0.5189(2)
H24 H 0.5566 0.4344 0.5019
C26 C 0.54745(11) 0.47496(14) 0.50710(18)
H25 H 0.5383 0.4764 0.4825
C27 C 0.58109(12) 0.41965(13) 0.56960(19)
C28 C 0.60507(13) 0.41608(13) 0.5909(2)
C29 C 0.61265(14) 0.39010(15) 0.6046(2)
H26 H 0.6287 0.3879 0.6201
C30 C 0.59620(17) 0.36737(15) 0.5954(2)
H27 H 0.6014 0.3498 0.6044
C31 C 0.57366(15) 0.37018(15) 0.5743(2)
H28 H 0.5628 0.3547 0.5681
C32 C 0.56598(13) 0.39592(14) 0.5613(2)
H29 H 0.5498 0.3976 0.5461
C33 C 0.62528(16) 0.43865(15) 0.6007(3)
C34 C 0.65964(11) 0.52445(16) 0.5704(3)
C35 C 0.67245(12) 0.49677(18) 0.5233(3)
C36 C 0.68094(13) 0.47461(17) 0.5004(3)
H30 H 0.6820 0.4568 0.5115
C37 C 0.68768(15) 0.4791(2) 0.4618(3)
H31 H 0.6934 0.4642 0.4459
C38 C 0.68614(16) 0.5068(3) 0.4443(3)
H32 H 0.6913 0.5097 0.4175
C39 C 0.67694(14) 0.52875(19) 0.4676(3)
H33 H 0.6753 0.5466 0.4571
C40 C 0.67053(13) 0.52313(18) 0.5060(3)
C41 C 0.65464(13) 0.56924(13) 0.5313(2)
H34 H 0.6432 0.5710 0.5077
H35 H 0.6713 0.5801 0.5278
H36 H 0.6446 0.5759 0.5544
C42 C 0.65187(12) 0.53469(14) 0.6097(2)
C43 C 0.63394(11) 0.52027(12) 0.6345(2)
H37 H 0.6255 0.5039 0.6258
C44 C 0.62910(12) 0.53003(15) 0.6703(2)
C45 C 0.61663(18) 0.53950(19) 0.7348(3)
C46 C 0.64232(15) 0.55491(16) 0.6846(3)
C47 C 0.65964(14) 0.56929(15) 0.6619(3)
C48 C 0.66461(12) 0.55959(14) 0.6241(3)
H38 H 0.6766 0.5694 0.6073
C49 C 0.67453(15) 0.59512(16) 0.6778(3)
H39 H 0.6611 0.6080 0.6883
H40 H 0.6847 0.6038 0.6562
H41 H 0.6872 0.5898 0.6988
C50 C 0.60307(17) 0.53617(16) 0.7738(3)
H42 H 0.5928 0.5187 0.7736
H43 H 0.6174 0.5347 0.7944
C51 C 0.5842(2) 0.5582(2) 0.7850(3)
H44 H 0.5690 0.5586 0.7657
H45 H 0.5940 0.5758 0.7829
C52 C 0.5719(2) 0.5559(2) 0.8273(3)
H46 H 0.5622 0.5384 0.8299
H47 H 0.5591 0.5709 0.8318
H48 H 0.5866 0.5567 0.8469
C53 C 0.59643(13) 0.49634(13) 0.70175(19)
H49 H 0.5992 0.4862 0.7267
H50 H 0.6027 0.4845 0.6798
C54 C 0.56520(13) 0.50190(14) 0.69636(17)
C55 C 0.55460(14) 0.52865(13) 0.68823(17)
H51 H 0.5667 0.5436 0.6850
C56 C 0.52653(13) 0.53252(12) 0.68515(17)
H52 H 0.5196 0.5504 0.6808
C57 C 0.50856(12) 0.51101(12) 0.68826(17)
C58 C 0.51922(14) 0.48482(12) 0.69528(17)
H53 H 0.5072 0.4697 0.6971
C59 C 0.54720(15) 0.48090(13) 0.69953(19)
H54 H 0.5539 0.4631 0.7048
C60 C 0.47844(13) 0.51477(12) 0.68666(18)
C61 C 0.46438(13) 0.53340(12) 0.66183(18)
C62 C 0.43569(15) 0.53563(14) 0.6635(2)
H55 H 0.4268 0.5488 0.6473
C63 C 0.41988(15) 0.51891(17) 0.6884(3)
H56 H 0.4006 0.5203 0.6887
C64 C 0.43309(16) 0.50049(16) 0.7122(2)
H57 H 0.4227 0.4891 0.7293
C65 C 0.46183(15) 0.49823(12) 0.71181(19)
H58 H 0.4704 0.4853 0.7287
C66 C 0.47863(14) 0.55270(16) 0.6340(2)
C67 C 0.50660(14) 0.78428(17) 0.6273(3)
C68 C 0.49010(16) 0.8091(2) 0.6743(3)
C69 C 0.47505(17) 0.82815(18) 0.6983(3)
H59 H 0.4603 0.8381 0.6870
C70 C 0.48190(19) 0.8323(3) 0.7381(3)
H60 H 0.4715 0.8444 0.7541
C71 C 0.5046(2) 0.8180(3) 0.7542(3)
H61 H 0.5100 0.8214 0.7807
C72 C 0.51910(19) 0.7991(2) 0.7317(3)
H62 H 0.5337 0.7890 0.7429
C73 C 0.51117(17) 0.79527(19) 0.6913(3)
C74 C 0.54361(15) 0.75937(16) 0.6649(3)
H63 H 0.5413 0.7446 0.6457
H64 H 0.5428 0.7519 0.6917
H65 H 0.5614 0.7682 0.6607
C75 C 0.51101(12) 0.77212(16) 0.5873(3)
C76 C 0.48862(12) 0.76249(14) 0.5645(3)
H66 H 0.4705 0.7628 0.5745
C77 C 0.49410(13) 0.7533(2) 0.5293(3)
C78 C 0.49270(14) 0.7375(3) 0.4674(3)
C79 C 0.52020(14) 0.7526(2) 0.5125(3)
C80 C 0.54309(14) 0.76154(18) 0.5343(3)
C81 C 0.53744(12) 0.77098(17) 0.5703(3)
H67 H 0.5523 0.7774 0.5858
C82 C 0.57129(14) 0.76187(16) 0.5147(3)
H68 H 0.5796 0.7799 0.5182
H69 H 0.5694 0.7580 0.4864
H70 H 0.5829 0.7480 0.5270
C83 C 0.4820(2) 0.7263(2) 0.4292(3)
H71 H 0.4891 0.7379 0.4076
H72 H 0.4619 0.7283 0.4293
C84 C 0.4888(3) 0.6960(3) 0.4189(4)
H73 H 0.5088 0.6933 0.4211
H74 H 0.4799 0.6840 0.4387
C85 C 0.4797(3) 0.6874(4) 0.3780(4)
H75 H 0.4608 0.6933 0.3737
H76 H 0.4808 0.6675 0.3758
H77 H 0.4915 0.6959 0.3582
C86 C 0.44552(14) 0.74078(17) 0.5033(3)
H78 H 0.4371 0.7468 0.4781
H79 H 0.4391 0.7532 0.5244
C87 C 0.43591(13) 0.71149(17) 0.5127(2)
C88 C 0.45309(13) 0.68921(14) 0.5170(2)
H80 H 0.4723 0.6918 0.5155
C89 C 0.44287(14) 0.66345(15) 0.52331(19)
H81 H 0.4550 0.6485 0.5259
C90 C 0.41432(14) 0.65902(14) 0.52605(19)
C91 C 0.39792(18) 0.68159(15) 0.5221(2)
H82 H 0.3787 0.6793 0.5242
C92 C 0.40786(17) 0.70730(17) 0.5152(2)
H83 H 0.3956 0.7222 0.5121
C93 C 0.40161(14) 0.63066(13) 0.5292(2)
C94 C 0.41356(14) 0.60973(12) 0.5541(2)
C95 C 0.40171(14) 0.58354(14) 0.5545(2)
H84 H 0.4092 0.5695 0.5705
C96 C 0.37821(17) 0.57824(15) 0.5305(3)
H85 H 0.3701 0.5606 0.5306
C97 C 0.3671(2) 0.59900(16) 0.5069(3)
H86 H 0.3517 0.5956 0.4907
C98 C 0.37900(17) 0.62434(14) 0.5077(2)
H87 H 0.3710 0.6384 0.4922
C99 C 0.43907(14) 0.61449(13) 0.5798(2)
C100 C 0.52066(12) 0.65298(13) 0.5702(2)
C101 C 0.51379(12) 0.62206(14) 0.5238(2)
C102 C 0.50643(13) 0.59885(14) 0.5004(3)
H88 H 0.4956 0.5846 0.5113
C103 C 0.51539(17) 0.59746(19) 0.4615(3)
H89 H 0.5106 0.5823 0.4455
C104 C 0.53151(18) 0.6184(2) 0.4459(2)
H90 H 0.5375 0.6174 0.4193
C105 C 0.53899(14) 0.64125(17) 0.4691(3)
H91 H 0.5499 0.6555 0.4586
C106 C 0.52983(13) 0.64202(15) 0.5078(2)
C107 C 0.54894(14) 0.68792(13) 0.5316(2)
H92 H 0.5428 0.7010 0.5517
H93 H 0.5454 0.6954 0.5052
H94 H 0.5686 0.6846 0.5347
C108 C 0.52026(15) 0.66762(11) 0.6085(2)
C109 C 0.49484(14) 0.67171(11) 0.6256(2)
H95 H 0.4783 0.6662 0.6131
C110 C 0.49535(17) 0.68433(13) 0.6618(2)
C111 C 0.4854(3) 0.70233(15) 0.7201(3)
C112 C 0.5197(2) 0.69236(14) 0.6825(3)
C113 C 0.5455(2) 0.68769(13) 0.6650(3)
C114 C 0.54511(14) 0.67566(12) 0.6275(3)
H96 H 0.5619 0.6727 0.6142
C115 C 0.57181(16) 0.69366(14) 0.6857(2)
H97 H 0.5741 0.7135 0.6883
H98 H 0.5870 0.6861 0.6704
H99 H 0.5716 0.6853 0.7121
C116 C 0.4699(2) 0.71328(17) 0.7576(3)
H100 H 0.4794 0.7074 0.7820
H101 H 0.4510 0.7061 0.7582
C117 C 0.4695(3) 0.7454(3) 0.7549(5)
H102 H 0.4588 0.7515 0.7317
H103 H 0.4882 0.7528 0.7528
C118 C 0.4551(5) 0.7551(4) 0.7955(7)
H104 H 0.4353 0.7560 0.7918
H105 H 0.4620 0.7732 0.8030
H106 H 0.4593 0.7420 0.8166
C119 C 0.44428(18) 0.68437(15) 0.6818(2)
H107 H 0.4365 0.6792 0.7078
H108 H 0.4424 0.6684 0.6641
C120 C 0.42762(19) 0.70814(17) 0.6648(3)
C121 C 0.4297(2) 0.7188(2) 0.6287(3)
H109 H 0.4426 0.7116 0.6106
C122 C 0.4118(2) 0.7419(2) 0.6168(4)
H110 H 0.4141 0.7482 0.5904
C123 C 0.3945(2) 0.7539(2) 0.6365(4)
C124 C 0.3898(3) 0.7425(3) 0.6728(6)
H111 H 0.3754 0.7498 0.6884
C125 C 0.4062(3) 0.7192(3) 0.6895(4)
H112 H 0.4145 0.7254 0.7147
H113 H 0.3934 0.7042 0.6960
C126 C 0.37701(14) 0.77469(13) 0.6209(2)
C127 C 0.38639(11) 0.79710(14) 0.5988(2)
C128 C 0.36783(17) 0.81680(13) 0.5851(2)
H114 H 0.3742 0.8320 0.5703
C129 C 0.33988(15) 0.81408(17) 0.5935(3)
H115 H 0.3273 0.8274 0.5842
C130 C 0.33049(10) 0.7917(2) 0.6155(3)
H116 H 0.3116 0.7898 0.6212
C131 C 0.34906(16) 0.77197(16) 0.6292(3)
H117 H 0.3427 0.7568 0.6441
C132 C 0.41646(18) 0.80217(17) 0.5925(4)
Cu2E Cu 0.465369(15) 0.827017(14) 0.59792(3)
N9A N 0.69693(11) 0.48650(11) 0.6347(2)
O8A O 0.68616(12) 0.43021(11) 0.6199(2)
loop_
_geom_bond_atom_site_label_1
_geom_bond_atom_site_label_2
_geom_bond_site_symmetry_1
_geom_bond_site_symmetry_2
Cu1 N1 1_555 1_555
Cu2 N5 1_555 1_555
N1 C1 1_555 1_555
N2 C1 1_555 1_555
N3 C11 1_555 1_555
N4 C12 1_555 1_555
N5 C34 1_555 1_555
N6 C34 1_555 1_555
N7 C44 1_555 1_555
N8 C45 1_555 1_555
N9 C67 1_555 1_555
N10 C67 1_555 1_555
N11 C77 1_555 1_555
N12 C78 1_555 1_555
N13 Cu1 1_555 1_555
N14 C100 1_555 1_555
N15 C110 1_555 1_555
N16 C111 1_555 1_555
O1 Cu2 1_555 1_555
O2 C33 1_555 1_555
O3 Cu1 1_555 1_555
O4 C66 1_555 1_555
O5 C99 1_555 1_555
O6 Cu1 1_555 1_555
O7 C132 1_555 1_555
O8 C132 1_555 1_555
C1 C9 1_555 1_555
C2 N1 1_555 1_555
C3 C2 1_555 1_555
H1 C3 1_555 1_555
C4 C3 1_555 1_555
H2 C4 1_555 1_555
C5 C4 1_555 1_555
H3 C5 1_555 1_555
C6 C5 1_555 1_555
H4 C6 1_555 1_555
C7 N2 1_555 1_555
C8 N2 1_555 1_555
H5 C8 1_555 1_555
H6 C8 1_555 1_555
H7 C8 1_555 1_555
C9 C10 1_555 1_555
C10 H8 1_555 1_555
C11 C10 1_555 1_555
C12 N3 1_555 1_555
C13 N4 1_555 1_555
C14 C13 1_555 1_555
C15 C9 1_555 1_555
H9 C15 1_555 1_555
C16 C14 1_555 1_555
H10 C16 1_555 1_555
H11 C16 1_555 1_555
H12 C16 1_555 1_555
C17 C12 1_555 1_555
H13 C17 1_555 1_555
H14 C17 1_555 1_555
C18 C17 1_555 1_555
H15 C18 1_555 1_555
H16 C18 1_555 1_555
C19 C18 1_555 1_555
H17 C19 1_555 1_555
H18 C19 1_555 1_555
H19 C19 1_555 1_555
C20 N3 1_555 1_555
H20 C20 1_555 1_555
H21 C20 1_555 1_555
C21 C20 1_555 1_555
C22 C21 1_555 1_555
H22 C22 1_555 1_555
C23 C22 1_555 1_555
H23 C23 1_555 1_555
C24 C23 1_555 1_555
C25 C24 1_555 1_555
H24 C25 1_555 1_555
C26 C21 1_555 1_555
H25 C26 1_555 1_555
C27 C24 1_555 1_555
C28 C27 1_555 1_555
C29 C28 1_555 1_555
H26 C29 1_555 1_555
C30 C29 1_555 1_555
H27 C30 1_555 1_555
C31 C30 1_555 1_555
H28 C31 1_555 1_555
C32 C27 1_555 1_555
H29 C32 1_555 1_555
C33 O1 1_555 1_555
C34 C42 1_555 1_555
C35 N5 1_555 1_555
C36 C35 1_555 1_555
H30 C36 1_555 1_555
C37 C36 1_555 1_555
H31 C37 1_555 1_555
C38 C37 1_555 1_555
H32 C38 1_555 1_555
C39 C38 1_555 1_555
H33 C39 1_555 1_555
C40 N6 1_555 1_555
C41 N6 1_555 1_555
H34 C41 1_555 1_555
H35 C41 1_555 1_555
H36 C41 1_555 1_555
C42 C43 1_555 1_555
C43 H37 1_555 1_555
C44 C43 1_555 1_555
C45 N7 1_555 1_555
C46 N8 1_555 1_555
C47 C46 1_555 1_555
C48 C42 1_555 1_555
H38 C48 1_555 1_555
C49 C47 1_555 1_555
H39 C49 1_555 1_555
H40 C49 1_555 1_555
H41 C49 1_555 1_555
C50 C45 1_555 1_555
H42 C50 1_555 1_555
H43 C50 1_555 1_555
C51 C50 1_555 1_555
H44 C51 1_555 1_555
H45 C51 1_555 1_555
C52 C51 1_555 1_555
H46 C52 1_555 1_555
H47 C52 1_555 1_555
H48 C52 1_555 1_555
C53 N7 1_555 1_555
H49 C53 1_555 1_555
H50 C53 1_555 1_555
C54 C53 1_555 1_555
C55 C54 1_555 1_555
H51 C55 1_555 1_555
C56 C55 1_555 1_555
H52 C56 1_555 1_555
C57 C56 1_555 1_555
C58 C57 1_555 1_555
H53 C58 1_555 1_555
C59 C54 1_555 1_555
H54 C59 1_555 1_555
C60 C57 1_555 1_555
C61 C60 1_555 1_555
C62 C61 1_555 1_555
H55 C62 1_555 1_555
C63 C62 1_555 1_555
H56 C63 1_555 1_555
C64 C63 1_555 1_555
H57 C64 1_555 1_555
C65 C60 1_555 1_555
H58 C65 1_555 1_555
C66 O3 1_555 1_555
C67 C75 1_555 1_555
C68 N9 1_555 1_555
C69 C68 1_555 1_555
H59 C69 1_555 1_555
C70 C69 1_555 1_555
H60 C70 1_555 1_555
C71 C70 1_555 1_555
H61 C71 1_555 1_555
C72 C71 1_555 1_555
H62 C72 1_555 1_555
C73 N10 1_555 1_555
C74 N10 1_555 1_555
H63 C74 1_555 1_555
H64 C74 1_555 1_555
H65 C74 1_555 1_555
C75 C76 1_555 1_555
C76 H66 1_555 1_555
C77 C76 1_555 1_555
C78 N11 1_555 1_555
C79 N12 1_555 1_555
C80 C79 1_555 1_555
C81 C75 1_555 1_555
H67 C81 1_555 1_555
C82 C80 1_555 1_555
H68 C82 1_555 1_555
H69 C82 1_555 1_555
H70 C82 1_555 1_555
C83 C78 1_555 1_555
H71 C83 1_555 1_555
H72 C83 1_555 1_555
C84 C83 1_555 1_555
H73 C84 1_555 1_555
H74 C84 1_555 1_555
C85 C84 1_555 1_555
H75 C85 1_555 1_555
H76 C85 1_555 1_555
H77 C85 1_555 1_555
C86 N11 1_555 1_555
H78 C86 1_555 1_555
H79 C86 1_555 1_555
C87 C86 1_555 1_555
C88 C87 1_555 1_555
H80 C88 1_555 1_555
C89 C88 1_555 1_555
H81 C89 1_555 1_555
C90 C89 1_555 1_555
C91 C90 1_555 1_555
H82 C91 1_555 1_555
C92 C87 1_555 1_555
H83 C92 1_555 1_555
C93 C90 1_555 1_555
C94 C93 1_555 1_555
C95 C94 1_555 1_555
H84 C95 1_555 1_555
C96 C95 1_555 1_555
H85 C96 1_555 1_555
C97 C96 1_555 1_555
H86 C97 1_555 1_555
C98 C93 1_555 1_555
H87 C98 1_555 1_555
C99 O6 1_555 1_555
C100 N13 1_555 1_555
C101 N13 1_555 1_555
C102 C101 1_555 1_555
H88 C102 1_555 1_555
C103 C102 1_555 1_555
H89 C103 1_555 1_555
C104 C103 1_555 1_555
H90 C104 1_555 1_555
C105 C104 1_555 1_555
H91 C105 1_555 1_555
C106 N14 1_555 1_555
C107 N14 1_555 1_555
H92 C107 1_555 1_555
H93 C107 1_555 1_555
H94 C107 1_555 1_555
C108 C100 1_555 1_555
C109 C108 1_555 1_555
H95 C109 1_555 1_555
C110 C109 1_555 1_555
C111 N15 1_555 1_555
C112 N16 1_555 1_555
C113 C112 1_555 1_555
C114 C108 1_555 1_555
H96 C114 1_555 1_555
C115 C113 1_555 1_555
H97 C115 1_555 1_555
H98 C115 1_555 1_555
H99 C115 1_555 1_555
C116 C111 1_555 1_555
H100 C116 1_555 1_555
H101 C116 1_555 1_555
C117 C116 1_555 1_555
H102 C117 1_555 1_555
H103 C117 1_555 1_555
C118 C117 1_555 1_555
H104 C118 1_555 1_555
H105 C118 1_555 1_555
H106 C118 1_555 1_555
C119 N15 1_555 1_555
H107 C119 1_555 1_555
H108 C119 1_555 1_555
C120 C119 1_555 1_555
C121 C120 1_555 1_555
H109 C121 1_555 1_555
C122 C121 1_555 1_555
H110 C122 1_555 1_555
C123 C122 1_555 1_555
C124 C123 1_555 1_555
H111 C124 1_555 1_555
C125 C120 1_555 1_555
H112 C125 1_555 1_555
H113 C125 1_555 1_555
C126 C123 1_555 1_555
C127 C126 1_555 1_555
C128 C127 1_555 1_555
H114 C128 1_555 1_555
C129 C128 1_555 1_555
H115 C129 1_555 1_555
C130 C129 1_555 1_555
H116 C130 1_555 1_555
C131 C126 1_555 1_555
H117 C131 1_555 1_555
C132 C127 1_555 1_555
Cu2E N9 1_555 1_555
N9A Cu2 1_555 1_555
O8A Cu2 1_555 1_555
O8 Cu2E 1_555 1_555
C2 C7 1_555 1_555
C6 C7 1_555 1_555
C11 C13 1_555 1_555
C14 C15 1_555 1_555
C25 C26 1_555 1_555
C28 C33 1_555 1_555
C31 C32 1_555 1_555
C35 C40 1_555 1_555
C39 C40 1_555 1_555
C44 C46 1_555 1_555
C47 C48 1_555 1_555
C58 C59 1_555 1_555
C61 C66 1_555 1_555
C64 C65 1_555 1_555
C68 C73 1_555 1_555
C72 C73 1_555 1_555
C77 C79 1_555 1_555
C80 C81 1_555 1_555
C91 C92 1_555 1_555
C94 C99 1_555 1_555
C97 C98 1_555 1_555
C101 C106 1_555 1_555
C105 C106 1_555 1_555
C110 C112 1_555 1_555
C113 C114 1_555 1_555
C124 C125 1_555 1_555
C130 C131 1_555 1_555

#END
