
#######################################################################
#
#                 Cambridge Crystallographic Data Centre
#                                CCDC 
#
#######################################################################
#
# If this CIF has been generated from an entry in the Cambridge 
# Structural Database, then it will include bibliographic, chemical, 
# crystal, experimental, refinement or atomic coordinate data resulting 
# from the CCDC's data processing and validation procedures.
#
#######################################################################

data_SONMUF
_symmetry_cell_setting           monoclinic
_symmetry_space_group_name_H-M   'C 2/m'
_symmetry_Int_Tables_number      12
_space_group_name_Hall           '-C 2y'
loop_
_symmetry_equiv_pos_site_id
_symmetry_equiv_pos_as_xyz
1 x,y,z
2 -x,y,-z
3 1/2+x,1/2+y,z
4 1/2-x,1/2+y,-z
5 -x,-y,-z
6 x,-y,z
7 1/2-x,1/2-y,-z
8 1/2+x,1/2-y,z
_cell_length_a                   21.8038(17)
_cell_length_b                   7.6087(6)
_cell_length_c                   7.8342(6)
_cell_angle_alpha                90
_cell_angle_beta                 106.166(2)
_cell_angle_gamma                90
_cell_volume                     1248.29
loop_
_atom_site_label
_atom_site_type_symbol
_atom_site_fract_x
_atom_site_fract_y
_atom_site_fract_z
Cd1 Cd 0.2500 0.2500 1.0000
C1 C 0.3928(2) 0.1529(5) 0.6065(7)
H1 H 0.3706 0.2584 0.5801
C2 C 0.4573(2) 0.1555(6) 0.6788(8)
H2 H 0.4787 0.2624 0.7028
C3 C 0.4912(3) 0.0000 0.7166(8)
C4 C 0.5606(3) 0.0000 0.7875(9)
C5 C 0.2901(3) 0.0000 0.5049(8)
H3 H 0.276(2) -0.114(6) 0.436(6)
C6 C 0.2641(3) 0.0000 0.6697(7)
O1 O 0.25573(17) 0.1460(4) 0.7289(4)
N1 N 0.3607(2) 0.0000 0.5728(7)
N2 N 0.59619(17) -0.1444(5) 0.8220(5)
N3 N 0.65573(16) -0.0875(4) 0.8787(5)
N4 N 0.1951(3) 0.0000 1.0441(8)
N5 N 0.1603(3) 0.0000 1.1143(9)
N6 N 0.1183(5) 0.0000 1.1861(15)
C1E C 0.3928(2) -0.1529(5) 0.6065(7)
H1E H 0.3706 -0.2584 0.5801
C2E C 0.4573(2) -0.1555(6) 0.6788(8)
H2E H 0.4787 -0.2624 0.7028
H3E H 0.276(2) 0.114(6) 0.436(6)
O1E O 0.25573(17) -0.1460(4) 0.7289(4)
N2E N 0.59619(17) 0.1444(5) 0.8220(5)
N3E N 0.65573(16) 0.0875(4) 0.8787(5)
Cd1A Cd 0.7500 0.2500 1.0000
Cd1B Cd 0.7500 -0.2500 1.0000
Cd1C Cd 0.2500 -0.2500 1.0000
O1F O 0.24427(17) 0.3540(4) 1.2711(4)
N3B N 0.15573(16) 0.4125(4) 0.8787(5)
N3D N 0.34427(16) 0.0875(4) 1.1213(5)
N4C N 0.3049(3) 0.5000 0.9559(8)
O2 O 0.4217(7) 0.5000 1.3620(13)
H4 H 0.414(6) 0.5911(14) 1.292(5)
H4E H 0.414(6) 0.4089(14) 1.292(5)
loop_
_geom_bond_atom_site_label_1
_geom_bond_atom_site_label_2
_geom_bond_site_symmetry_1
_geom_bond_site_symmetry_2
Cd1 O1 1_555 1_555
C1 H1 1_555 1_555
C2 C1 1_555 1_555
H2 C2 1_555 1_555
C3 C2 1_555 1_555
C4 C3 1_555 1_555
C5 H3 1_555 1_555
C6 C5 1_555 1_555
O1 C6 1_555 1_555
N1 C1 1_555 1_555
N2 C4 1_555 1_555
N3 N2 1_555 1_555
N4 Cd1 1_555 1_555
N5 N4 1_555 1_555
N6 N5 1_555 1_555
O2 H4 1_555 1_555
C1E N1 1_555 1_555
H1E C1E 1_555 1_555
C2E C3 1_555 1_555
H2E C2E 1_555 1_555
H3E C5 1_555 1_555
O1E C6 1_555 1_555
N2E C4 1_555 1_555
N3E N3 1_555 1_555
Cd1A N3E 1_555 1_555
Cd1B N3 1_555 1_555
Cd1C N4 1_555 1_555
O1F Cd1 1_555 1_555
N3B Cd1 1_555 1_555
N3D Cd1 1_555 1_555
N4C Cd1 1_555 1_555
H4E O2 1_555 1_555
C5 N1 1_555 1_555
C1E C2E 1_555 1_555
O1E Cd1C 1_555 1_555
N2E N3E 1_555 1_555

#END
