
#######################################################################
#
#                 Cambridge Crystallographic Data Centre
#                                CCDC 
#
#######################################################################
#
# If this CIF has been generated from an entry in the Cambridge 
# Structural Database, then it will include bibliographic, chemical, 
# crystal, experimental, refinement or atomic coordinate data resulting 
# from the CCDC's data processing and validation procedures.
#
#######################################################################

data_SONSOF
_symmetry_cell_setting           monoclinic
_symmetry_space_group_name_H-M   'P 21/c'
_symmetry_Int_Tables_number      14
_space_group_name_Hall           '-P 2ybc'
loop_
_symmetry_equiv_pos_site_id
_symmetry_equiv_pos_as_xyz
1 x,y,z
2 -x,1/2+y,1/2-z
3 -x,-y,-z
4 x,1/2-y,1/2+z
_cell_length_a                   27.055(5)
_cell_length_b                   13.391(3)
_cell_length_c                   24.756(5)
_cell_angle_alpha                90
_cell_angle_beta                 103.88(3)
_cell_angle_gamma                90
_cell_volume                     8707.05
loop_
_atom_site_label
_atom_site_type_symbol
_atom_site_fract_x
_atom_site_fract_y
_atom_site_fract_z
Sn1 Sn 0.00004(4) 0.99117(7) 0.42514(4)
Sn2 Sn -0.00286(4) 1.09712(7) 0.28387(4)
Sn3 Sn -0.00466(4) 0.81867(7) 0.30269(4)
Se1 Se 0.06284(5) 0.96818(10) 0.35367(5)
Se2 Se -0.03276(6) 1.15112(11) 0.37025(6)
Se3 Se -0.04070(6) 0.82246(11) 0.38926(6)
Se4 Se 0.06976(6) 0.98423(12) 0.51317(6)
Se5 Se -0.05206(6) 0.94750(11) 0.23311(6)
Se6 Se 0.06852(6) 1.17351(11) 0.24784(6)
Se7 Se 0.06916(5) 0.72317(11) 0.28202(6)
Sn1B Sn -0.00004(4) 1.00883(7) 0.57486(4)
Sn2A Sn 0.00286(4) 0.59712(7) 0.21613(4)
Sn3A Sn 0.00466(4) 1.31867(7) 0.19731(4)
Se4B Se -0.06976(6) 1.01577(12) 0.48683(6)
Se6A Se -0.06852(6) 0.67351(11) 0.25216(6)
Se7A Se -0.06916(5) 1.22317(11) 0.21798(6)
Sn4 Sn 0.38875(4) 0.60210(8) 0.34126(4)
Sn5 Sn 0.46653(4) 0.75270(7) 0.27425(4)
Sn6 Sn 0.53895(4) 0.96724(8) 0.24871(5)
Se8 Se 0.37890(6) 0.77491(12) 0.29410(7)
Se9 Se 0.48518(6) 0.60343(12) 0.35745(6)
Se10 Se 0.34051(9) 0.58337(19) 0.41070(9)
Se11 Se 0.37325(6) 0.45506(12) 0.27067(7)
Se12 Se 0.54894(6) 0.83340(12) 0.32839(7)
Se13 Se 0.45718(6) 0.89107(12) 0.19450(7)
Se14 Se 0.46662(6) 0.62407(11) 0.19734(6)
Sn6A Sn 0.46105(4) 0.46724(8) 0.25129(5)
Se11A Se 0.62675(6) 0.95506(12) 0.22933(7)
Se14A Se 0.53338(6) 1.12407(11) 0.30266(6)
Fe1 Fe 0.17430(8) 0.04300(15) 0.07842(8)
N1 N 0.1947(4) 0.1532(8) 0.1309(4)
N2 N 0.2460(4) 0.0558(9) 0.0744(4)
N3 N 0.1900(4) -0.0492(9) 0.1403(5)
N4 N 0.1046(4) 0.0279(9) 0.0911(5)
N5 N 0.1571(4) -0.0652(9) 0.0223(4)
N6 N 0.1503(4) 0.1270(9) 0.0122(5)
C1 C 0.1672(5) 0.2004(11) 0.1594(6)
H1 H 0.1330 0.1829 0.1528
C2 C 0.1848(6) 0.2758(12) 0.1991(6)
H2 H 0.1632 0.3085 0.2174
C3 C 0.2351(6) 0.2975(13) 0.2090(7)
H3 H 0.2486 0.3467 0.2349
C4 C 0.2666(6) 0.2488(11) 0.1819(6)
H4 H 0.3012 0.2631 0.1901
C5 C 0.2463(5) 0.1784(10) 0.1424(6)
C6 C 0.2747(6) 0.1258(11) 0.1079(6)
C7 C 0.3247(6) 0.1382(13) 0.1119(6)
H5 H 0.3431 0.1853 0.1362
C8 C 0.3493(7) 0.0781(15) 0.0783(8)
H6 H 0.3842 0.0828 0.0814
C9 C 0.3204(7) 0.0150(15) 0.0422(8)
H7 H 0.3347 -0.0216 0.0179
C10 C 0.2692(6) 0.0040(14) 0.0408(6)
H8 H 0.2501 -0.0410 0.0156
C11 C 0.2346(7) -0.0881(12) 0.1652(6)
H9 H 0.2625 -0.0703 0.1516
C12 C 0.2431(7) -0.1535(12) 0.2101(7)
H10 H 0.2757 -0.1763 0.2267
C13 C 0.2011(10) -0.1838(14) 0.2294(8)
H11 H 0.2045 -0.2286 0.2587
C14 C 0.1539(8) -0.1446(12) 0.2032(7)
H12 H 0.1248 -0.1642 0.2142
C15 C 0.1506(7) -0.0765(12) 0.1607(6)
C16 C 0.1027(6) -0.0351(11) 0.1337(6)
C17 C 0.0564(6) -0.0537(14) 0.1437(8)
H13 H 0.0551 -0.0983 0.1722
C18 C 0.0126(8) -0.0131(18) 0.1160(9)
H14 H -0.0180 -0.0284 0.1250
C19 C 0.0145(7) 0.0518(16) 0.0741(8)
H15 H -0.0153 0.0820 0.0541
C20 C 0.0617(7) 0.0736(12) 0.0609(7)
H16 H 0.0633 0.1178 0.0325
C21 C 0.1560(6) -0.1635(12) 0.0312(6)
H17 H 0.1673 -0.1857 0.0676
C22 C 0.1397(7) -0.2337(14) -0.0090(7)
H18 H 0.1418 -0.3014 -0.0004
C23 C 0.1207(7) -0.2023(14) -0.0611(8)
H19 H 0.1077 -0.2481 -0.0891
C24 C 0.1204(6) -0.1021(13) -0.0731(6)
H20 H 0.1089 -0.0806 -0.1097
C25 C 0.1370(6) -0.0328(11) -0.0310(6)
C26 C 0.1339(5) 0.0763(12) -0.0358(6)
C27 C 0.1137(5) 0.1289(13) -0.0850(6)
H21 H 0.1036 0.0939 -0.1183
C28 C 0.1085(7) 0.2308(15) -0.0854(8)
H22 H 0.0942 0.2643 -0.1184
C29 C 0.1246(7) 0.2819(12) -0.0370(7)
H23 H 0.1210 0.3508 -0.0353
C30 C 0.1472(6) 0.2252(11) 0.0105(6)
H24 H 0.1610 0.2598 0.0432
Fe2 Fe 0.34038(7) 0.09504(16) 0.41830(8)
N7 N 0.2870(4) -0.0039(10) 0.3934(5)
N8 N 0.2837(5) 0.1850(10) 0.3887(5)
N9 N 0.3285(4) 0.0876(9) 0.4944(4)
N10 N 0.3939(4) -0.0001(9) 0.4493(5)
N11 N 0.3894(4) 0.2048(8) 0.4364(5)
N12 N 0.3585(4) 0.1036(9) 0.3476(4)
C31 C 0.2913(7) -0.1065(13) 0.3960(6)
H25 H 0.3237 -0.1330 0.4091
C32 C 0.2519(9) -0.1723(15) 0.3808(7)
H26 H 0.2568 -0.2409 0.3848
C33 C 0.2047(9) -0.132(2) 0.3592(9)
H27 H 0.1768 -0.1735 0.3466
C34 C 0.1986(6) -0.030(2) 0.3561(8)
H28 H 0.1661 -0.0029 0.3440
C35 C 0.2397(7) 0.0326(16) 0.3706(7)
C36 C 0.2376(6) 0.1397(14) 0.3666(6)
C37 C 0.1941(8) 0.193(2) 0.3412(8)
H29 H 0.1636 0.1615 0.3249
C38 C 0.1984(8) 0.296(2) 0.3413(8)
H30 H 0.1698 0.3331 0.3251
C39 C 0.2430(8) 0.3451(14) 0.3643(7)
H31 H 0.2453 0.4144 0.3646
C40 C 0.2848(6) 0.2834(13) 0.3873(7)
H32 H 0.3157 0.3145 0.4027
C41 C 0.2905(5) 0.1275(12) 0.5119(6)
H33 H 0.2668 0.1652 0.4866
C42 C 0.2837(6) 0.1172(13) 0.5644(6)
H34 H 0.2561 0.1471 0.5743
C43 C 0.3179(7) 0.0624(12) 0.6020(7)
H35 H 0.3150 0.0542 0.6385
C44 C 0.3574(6) 0.0194(11) 0.5834(6)
H36 H 0.3817 -0.0177 0.6083
C45 C 0.3619(6) 0.0295(12) 0.5293(6)
C46 C 0.3996(6) -0.0191(11) 0.5046(6)
C47 C 0.4375(7) -0.0831(13) 0.5342(7)
H37 H 0.4420 -0.0929 0.5723
C48 C 0.4683(7) -0.1320(14) 0.5044(9)
H38 H 0.4922 -0.1789 0.5219
C49 C 0.4629(7) -0.1104(15) 0.4505(8)
H39 H 0.4839 -0.1403 0.4304
C50 C 0.4266(5) -0.0443(11) 0.4255(7)
H40 H 0.4247 -0.0290 0.3884
C51 C 0.4064(6) 0.2536(12) 0.4854(7)
H41 H 0.3942 0.2323 0.5155
C52 C 0.4394(7) 0.3307(11) 0.4938(7)
H42 H 0.4499 0.3601 0.5288
C53 C 0.4573(6) 0.3647(13) 0.4499(7)
H43 H 0.4778 0.4212 0.4536
C54 C 0.4441(5) 0.3122(11) 0.3984(6)
H44 H 0.4583 0.3292 0.3690
C55 C 0.4097(5) 0.2360(12) 0.3936(6)
C56 C 0.3920(5) 0.1770(11) 0.3424(5)
C57 C 0.4092(5) 0.1880(11) 0.2955(6)
H45 H 0.4313 0.2401 0.2930
C58 C 0.3940(6) 0.1213(13) 0.2507(6)
H46 H 0.4071 0.1261 0.2193
C59 C 0.3592(5) 0.0486(13) 0.2550(6)
H47 H 0.3469 0.0050 0.2256
C60 C 0.3432(5) 0.0416(10) 0.3029(6)
H48 H 0.3203 -0.0090 0.3054
N13 N 0.2617(5) 0.6070(12) 0.2162(7)
N14 N 0.3143(7) 0.6906(12) 0.1421(8)
C61 C 0.2378(7) 0.5719(15) 0.2551(9)
H49 H 0.2559 0.5678 0.2921
C62 C 0.1881(9) 0.5426(16) 0.2413(9)
H50 H 0.1710 0.5280 0.2687
C63 C 0.1636(8) 0.5350(15) 0.1850(10)
H51 H 0.1317 0.5052 0.1744
C64 C 0.1857(7) 0.5702(14) 0.1471(8)
H52 H 0.1679 0.5712 0.1100
C65 C 0.2361(7) 0.6065(12) 0.1620(9)
C66 C 0.2647(7) 0.6472(14) 0.1235(9)
C67 C 0.2433(6) 0.6439(14) 0.0701(6)
H53 H 0.2119 0.6126 0.0579
C68 C 0.2649(9) 0.6832(18) 0.0345(8)
H54 H 0.2480 0.6812 -0.0030
C69 C 0.3128(9) 0.7291(17) 0.0494(10)
H55 H 0.3273 0.7556 0.0222
C70 C 0.3376(8) 0.7346(15) 0.1034(10)
H56 H 0.3689 0.7664 0.1145
O1 O 0.1876(10) 0.506(2) 0.9797(11)
O2 O 0.9765(12) 0.201(2) 0.9800(13)
loop_
_geom_bond_atom_site_label_1
_geom_bond_atom_site_label_2
_geom_bond_site_symmetry_1
_geom_bond_site_symmetry_2
Sn1 Se1 1_555 1_555
Sn2 Se1 1_555 1_555
Sn3 Se1 1_555 1_555
Se2 Sn1 1_555 1_555
Se3 Sn1 1_555 1_555
Se4 Sn1 1_555 1_555
Se5 Sn2 1_555 1_555
Se6 Sn2 1_555 1_555
Se7 Sn3 1_555 1_555
Sn4 Se8 1_555 1_555
Sn5 Se8 1_555 1_555
Sn6 Se12 1_555 1_555
Se9 Sn4 1_555 1_555
Se10 Sn4 1_555 1_555
Se11 Sn4 1_555 1_555
Se12 Sn5 1_555 1_555
Se13 Sn5 1_555 1_555
Se14 Sn5 1_555 1_555
Fe1 N1 1_555 1_555
N1 C1 1_555 1_555
N2 Fe1 1_555 1_555
N3 Fe1 1_555 1_555
N4 Fe1 1_555 1_555
N5 Fe1 1_555 1_555
N6 Fe1 1_555 1_555
C1 H1 1_555 1_555
C2 C1 1_555 1_555
H2 C2 1_555 1_555
C3 C2 1_555 1_555
H3 C3 1_555 1_555
C4 C3 1_555 1_555
H4 C4 1_555 1_555
C5 N1 1_555 1_555
C6 N2 1_555 1_555
C7 C6 1_555 1_555
H5 C7 1_555 1_555
C8 C7 1_555 1_555
H6 C8 1_555 1_555
C9 C8 1_555 1_555
H7 C9 1_555 1_555
C10 N2 1_555 1_555
H8 C10 1_555 1_555
C11 N3 1_555 1_555
H9 C11 1_555 1_555
C12 C11 1_555 1_555
H10 C12 1_555 1_555
C13 C12 1_555 1_555
H11 C13 1_555 1_555
C14 C13 1_555 1_555
H12 C14 1_555 1_555
C15 N3 1_555 1_555
C16 N4 1_555 1_555
C17 C16 1_555 1_555
H13 C17 1_555 1_555
C18 C17 1_555 1_555
H14 C18 1_555 1_555
C19 C18 1_555 1_555
H15 C19 1_555 1_555
C20 N4 1_555 1_555
H16 C20 1_555 1_555
C21 N5 1_555 1_555
H17 C21 1_555 1_555
C22 C21 1_555 1_555
H18 C22 1_555 1_555
C23 C22 1_555 1_555
H19 C23 1_555 1_555
C24 C23 1_555 1_555
H20 C24 1_555 1_555
C25 N5 1_555 1_555
C26 N6 1_555 1_555
C27 C26 1_555 1_555
H21 C27 1_555 1_555
C28 C27 1_555 1_555
H22 C28 1_555 1_555
C29 C28 1_555 1_555
H23 C29 1_555 1_555
C30 N6 1_555 1_555
H24 C30 1_555 1_555
Fe2 N7 1_555 1_555
N7 C31 1_555 1_555
N8 Fe2 1_555 1_555
N9 Fe2 1_555 1_555
N10 Fe2 1_555 1_555
N11 Fe2 1_555 1_555
N12 Fe2 1_555 1_555
C31 H25 1_555 1_555
C32 C31 1_555 1_555
H26 C32 1_555 1_555
C33 C32 1_555 1_555
H27 C33 1_555 1_555
C34 C33 1_555 1_555
H28 C34 1_555 1_555
C35 N7 1_555 1_555
C36 N8 1_555 1_555
C37 C36 1_555 1_555
H29 C37 1_555 1_555
C38 C37 1_555 1_555
H30 C38 1_555 1_555
C39 C38 1_555 1_555
H31 C39 1_555 1_555
C40 N8 1_555 1_555
H32 C40 1_555 1_555
C41 N9 1_555 1_555
H33 C41 1_555 1_555
C42 C41 1_555 1_555
H34 C42 1_555 1_555
C43 C42 1_555 1_555
H35 C43 1_555 1_555
C44 C43 1_555 1_555
H36 C44 1_555 1_555
C45 N9 1_555 1_555
C46 N10 1_555 1_555
C47 C46 1_555 1_555
H37 C47 1_555 1_555
C48 C47 1_555 1_555
H38 C48 1_555 1_555
C49 C48 1_555 1_555
H39 C49 1_555 1_555
C50 N10 1_555 1_555
H40 C50 1_555 1_555
C51 N11 1_555 1_555
H41 C51 1_555 1_555
C52 C51 1_555 1_555
H42 C52 1_555 1_555
C53 C52 1_555 1_555
H43 C53 1_555 1_555
C54 C53 1_555 1_555
H44 C54 1_555 1_555
C55 N11 1_555 1_555
C56 N12 1_555 1_555
C57 C56 1_555 1_555
H45 C57 1_555 1_555
C58 C57 1_555 1_555
H46 C58 1_555 1_555
C59 C58 1_555 1_555
H47 C59 1_555 1_555
C60 N12 1_555 1_555
H48 C60 1_555 1_555
N13 C61 1_555 1_555
N14 C66 1_555 1_555
C61 H49 1_555 1_555
C62 C61 1_555 1_555
H50 C62 1_555 1_555
C63 C62 1_555 1_555
H51 C63 1_555 1_555
C64 C63 1_555 1_555
H52 C64 1_555 1_555
C65 N13 1_555 1_555
C66 C65 1_555 1_555
C67 C66 1_555 1_555
H53 C67 1_555 1_555
C68 C67 1_555 1_555
H54 C68 1_555 1_555
C69 C68 1_555 1_555
H55 C69 1_555 1_555
C70 N14 1_555 1_555
H56 C70 1_555 1_555
Sn1B Se4 1_555 1_555
Sn2A Se7 1_555 1_555
Sn3A Se6 1_555 1_555
Se4B Sn1 1_555 1_555
Se6A Sn3 1_555 1_555
Se7A Sn2 1_555 1_555
Sn6A Se11 1_555 1_555
Se11A Sn6 1_555 1_555
Se14A Sn6 1_555 1_555
Sn2 Se2 1_555 1_555
Sn3 Se3 1_555 1_555
Sn3 Se5 1_555 1_555
Sn5 Se9 1_555 1_555
Sn6 Se13 1_555 1_555
Se14 Sn6A 1_555 1_555
C4 C5 1_555 1_555
C5 C6 1_555 1_555
C9 C10 1_555 1_555
C14 C15 1_555 1_555
C15 C16 1_555 1_555
C19 C20 1_555 1_555
C24 C25 1_555 1_555
C25 C26 1_555 1_555
C29 C30 1_555 1_555
C34 C35 1_555 1_555
C35 C36 1_555 1_555
C39 C40 1_555 1_555
C44 C45 1_555 1_555
C45 C46 1_555 1_555
C49 C50 1_555 1_555
C54 C55 1_555 1_555
C55 C56 1_555 1_555
C59 C60 1_555 1_555
C64 C65 1_555 1_555
C69 C70 1_555 1_555
Sn1B Se4B 1_555 1_555
Sn2A Se6A 1_555 1_555
Sn3A Se7A 1_555 1_555

#END
