
#######################################################################
#
#                 Cambridge Crystallographic Data Centre
#                                CCDC 
#
#######################################################################
#
# If this CIF has been generated from an entry in the Cambridge 
# Structural Database, then it will include bibliographic, chemical, 
# crystal, experimental, refinement or atomic coordinate data resulting 
# from the CCDC's data processing and validation procedures.
#
#######################################################################

data_SONTAQ
_symmetry_cell_setting           monoclinic
_symmetry_space_group_name_H-M   'P 21/c'
_symmetry_Int_Tables_number      14
_space_group_name_Hall           '-P 2ybc'
loop_
_symmetry_equiv_pos_site_id
_symmetry_equiv_pos_as_xyz
1 x,y,z
2 -x,1/2+y,1/2-z
3 -x,-y,-z
4 x,1/2-y,1/2+z
_cell_length_a                   7.889(2)
_cell_length_b                   21.598(4)
_cell_length_c                   9.093(2)
_cell_angle_alpha                90
_cell_angle_beta                 96.98(3)
_cell_angle_gamma                90
_cell_volume                     1537.84
loop_
_atom_site_label
_atom_site_type_symbol
_atom_site_fract_x
_atom_site_fract_y
_atom_site_fract_z
Zn1 Zn -0.6729(1) -0.3907(1) 0.1927(1)
Br1 Br -0.4197(1) -0.4502(1) 0.2264(1)
Br2 Br -0.8434(1) -0.3951(1) 0.3966(1)
O1 O 0.1598(6) -0.0694(2) 0.5411(5)
O2 O 0.2831(6) -0.1098(2) 0.3573(6)
C1 C 0.1719(8) -0.0788(3) 0.4054(7)
C2 C 0.0330(8) -0.0491(3) 0.2956(7)
N1 N -0.1203(6) -0.0919(2) 0.2638(5)
C3 C -0.2407(8) -0.0653(3) 0.1395(8)
C4 C -0.4086(8) -0.1017(3) 0.1296(8)
C5 C -0.2154(8) -0.0990(3) 0.3967(7)
C6 C -0.3393(8) -0.1534(3) 0.3689(7)
C7 C -0.0651(8) -0.1546(3) 0.2152(8)
C8 C -0.2215(7) -0.1913(3) 0.1502(7)
N2 N -0.3780(6) -0.1637(2) 0.2052(5)
C9 C -0.5348(8) -0.2030(3) 0.1599(8)
C10 C -0.5292(8) -0.2694(3) 0.2190(7)
O3 O -0.6460(6) -0.3019(2) 0.1471(6)
O4 O -0.4288(7) -0.2858(2) 0.3237(6)
Zn1C Zn 0.3271(1) -0.1093(1) 0.6927(1)
O1C O -0.8402(6) -0.4306(2) 0.0411(5)
O5 O 1.0524(7) -0.2539(3) 0.9847(8)
loop_
_geom_bond_atom_site_label_1
_geom_bond_atom_site_label_2
_geom_bond_site_symmetry_1
_geom_bond_site_symmetry_2
Zn1 Br1 1_555 1_555
Br2 Zn1 1_555 1_555
O1 C1 1_555 1_555
O2 C1 1_555 1_555
C1 C2 1_555 1_555
C2 N1 1_555 1_555
N1 C3 1_555 1_555
C3 C4 1_555 1_555
C4 N2 1_555 1_555
C5 N1 1_555 1_555
C6 C5 1_555 1_555
C7 N1 1_555 1_555
C8 C7 1_555 1_555
N2 C6 1_555 1_555
C9 N2 1_555 1_555
C10 C9 1_555 1_555
O3 Zn1 1_555 1_555
O4 C10 1_555 1_555
Zn1C O1 1_555 1_555
O1C Zn1 1_555 1_555
C8 N2 1_555 1_555
C10 O3 1_555 1_555

#END
