
#######################################################################
#
#                 Cambridge Crystallographic Data Centre
#                                CCDC 
#
#######################################################################
#
# If this CIF has been generated from an entry in the Cambridge 
# Structural Database, then it will include bibliographic, chemical, 
# crystal, experimental, refinement or atomic coordinate data resulting 
# from the CCDC's data processing and validation procedures.
#
#######################################################################

data_SONTOF
_symmetry_cell_setting           triclinic
_symmetry_space_group_name_H-M   'P -1'
_symmetry_Int_Tables_number      2
_space_group_name_Hall           '-P 1'
loop_
_symmetry_equiv_pos_site_id
_symmetry_equiv_pos_as_xyz
1 x,y,z
2 -x,-y,-z
_cell_length_a                   10.5059(9)
_cell_length_b                   11.1476(9)
_cell_length_c                   12.7931(10)
_cell_angle_alpha                100.9550(10)
_cell_angle_beta                 110.4500(10)
_cell_angle_gamma                99.9390(10)
_cell_volume                     1330.93
loop_
_atom_site_label
_atom_site_type_symbol
_atom_site_fract_x
_atom_site_fract_y
_atom_site_fract_z
Dy1 Dy 1.39328(2) 0.950908(19) 0.824149(19)
O1 O 1.3418(4) 0.9944(4) 0.9857(4)
O2 O 1.3809(4) 1.0584(4) 1.1699(3)
O3 O 1.4326(4) 0.7803(3) 0.9034(3)
O4 O 1.5008(4) 0.8307(3) 1.0961(3)
O5 O 1.1677(4) 0.7930(4) 0.7379(4)
O6 O 1.3183(4) 0.7650(4) 0.6595(3)
O7 O 1.4176(5) 1.0286(4) 0.6676(4)
O8 O 1.2054(5) 1.0474(6) 0.7481(5)
C1 C 1.2981(5) 1.0228(5) 1.0651(5)
C2 C 1.1443(5) 1.0126(5) 1.0326(5)
C3 C 1.0932(6) 1.0577(6) 1.1158(5)
C4 C 1.0511(6) 0.9549(6) 0.9185(5)
H1 H 1.0856 0.9241 0.8639
C5 C 1.4711(6) 0.7545(4) 0.9980(4)
C6 C 1.4839(6) 0.6216(4) 0.9980(5)
C7 C 1.4860(8) 0.5407(5) 0.9005(5)
C8 C 1.4974(8) 0.5800(5) 1.0953(5)
H2 H 1.4955 0.6338 1.1596
C9 C 1.2007(6) 0.7294(5) 0.6650(5)
C10 C 1.0976(6) 0.6102(5) 0.5804(4)
C11 C 1.1363(7) 0.5313(6) 0.5048(5)
C12 C 0.9614(7) 0.5791(6) 0.5754(6)
C13 C 1.5186(11) 1.1069(8) 0.6691(7)
H3 H 1.6021 1.1259 0.7342
C14 C 1.395(2) 1.1442(17) 0.4898(13)
H4 H 1.3474 1.2083 0.5027
H5 H 1.4191 1.1484 0.4247
H6 H 1.3338 1.0624 0.4743
C15 C 1.641(2) 1.2526(16) 0.5980(16)
H7 H 1.6246 1.3353 0.6062
H8 H 1.7223 1.2541 0.6635
H9 H 1.6563 1.2277 0.5283
C16 C 1.1905(13) 1.1403(12) 0.7398(12)
H10 H 1.2691 1.2056 0.7893
C17 C 1.106(2) 1.3162(18) 0.6933(18)
H11 H 1.1690 1.3613 0.7715
H12 H 1.1439 1.3429 0.6406
H13 H 1.0160 1.3336 0.6777
C18 C 0.965(3) 1.108(3) 0.614(2)
H14 H 0.9654 1.0219 0.6144
H15 H 0.8997 1.1326 0.6455
H16 H 0.9381 1.1154 0.5366
N1 N 1.1758(12) 1.1163(15) 1.2248(9)
N2 N 1.279(2) 0.534(2) 0.5216(19)
N3 N 0.905(3) 0.653(3) 0.643(3)
N4 N 1.5218(12) 1.1646(9) 0.5923(8)
N5 N 1.0908(13) 1.1814(14) 0.6782(12)
Dy1A Dy 0.60672(2) 1.049092(19) 1.175851(19)
Dy1A_2 Dy 1.60672(2) 1.049092(19) 1.175851(19)
Dy1_2 Dy 0.39328(2) 0.950908(19) 0.824149(19)
Dy1A_3 Dy 1.60672(2) 0.049092(19) 1.175851(19)
Dy1_3 Dy 1.39328(2) -0.049092(19) 0.824149(19)
Dy1A_4 Dy 0.60672(2) 0.049092(19) 0.175851(19)
O1A O 0.6582(4) 1.0056(4) 1.0143(4)
O1A_2 O 1.6582(4) 1.0056(4) 1.0143(4)
O1_2 O 0.3418(4) 0.9944(4) 0.9857(4)
O2A O 0.6191(4) 0.9416(4) 0.8301(3)
O2A_2 O 1.6191(4) 0.9416(4) 0.8301(3)
O2_2 O 0.3809(4) 1.0584(4) 1.1699(3)
O3A O 1.5674(4) 0.2197(3) 1.0966(3)
O3A_2 O 0.5674(4) 1.2197(3) 1.0966(3)
O4A O 1.4992(4) 0.1693(3) 0.9039(3)
O4A_2 O 1.4992(4) 1.1693(3) 0.9039(3)
O4_2 O 0.5008(4) 0.8307(3) 1.0961(3)
O5A O 0.8323(4) 0.2070(4) 0.2621(4)
O5A_2 O 0.8323(4) 1.2070(4) 1.2621(4)
O6A O 0.6817(4) 0.2350(4) 0.3405(3)
O6A_2 O 0.6817(4) 1.2350(4) 1.3405(3)
O7A O 0.5824(5) 0.9714(4) 1.3324(4)
O8A O 0.7946(5) 0.9526(6) 1.2519(5)
C1A C 0.7019(5) 0.9772(5) 0.9349(5)
C2A C 0.8557(5) 0.9874(5) 0.9674(5)
C3A C 0.9068(6) 0.9423(6) 0.8842(5)
C4A C 0.9489(6) 1.0451(6) 1.0815(5)
H1A H 0.9144 1.0759 1.1361
C5A C 1.5289(6) 0.2455(4) 1.0020(4)
C6A C 1.5161(6) 0.3784(4) 1.0020(5)
C7A C 1.5140(8) 0.4593(5) 1.0995(5)
C8A C 1.5026(8) 0.4200(5) 0.9047(5)
H2A H 1.5045 0.3662 0.8404
C9A C 0.7993(6) 0.2706(5) 0.3350(5)
C10A C 0.9024(6) 0.3898(5) 0.4196(4)
C11A C 0.8637(7) 0.4687(6) 0.4952(5)
C12A C 1.0386(7) 0.4209(6) 0.4246(6)
C13A C 0.4814(11) 0.8931(8) 1.3309(7)
H3A H 0.3979 0.8741 1.2658
C14A C 0.605(2) 0.8558(17) 1.5102(13)
H4A H 0.6526 0.7917 1.4973
H5A H 0.5809 0.8516 1.5753
H6A H 0.6662 0.9376 1.5257
C15A C 0.359(2) 0.7474(16) 1.4020(16)
H7A H 0.3754 0.6647 1.3938
H8A H 0.2777 0.7459 1.3365
H9A H 0.3437 0.7723 1.4717
C16A C 0.8095(13) 0.8597(12) 1.2602(12)
H10A H 0.7309 0.7944 1.2107
C17A C 0.894(2) 0.6838(18) 1.3067(18)
H11A H 0.8310 0.6387 1.2285
H12A H 0.8561 0.6571 1.3594
H13A H 0.9840 0.6664 1.3223
C18A C 1.035(3) 0.892(3) 1.386(2)
H14A H 1.0346 0.9781 1.3856
H15A H 1.1003 0.8674 1.3545
H16A H 1.0619 0.8846 1.4634
N1A N 0.8242(12) 0.8837(15) 0.7752(9)
N2A N 0.721(2) 0.466(2) 0.4784(19)
N3A N 1.095(3) 0.347(3) 0.357(3)
N4A N 0.4782(12) 0.8354(9) 1.4077(8)
N5A N 0.9092(13) 0.8186(14) 1.3218(12)
loop_
_geom_bond_atom_site_label_1
_geom_bond_atom_site_label_2
_geom_bond_site_symmetry_1
_geom_bond_site_symmetry_2
Dy1 O1 1_555 1_555
O1 C1 1_555 1_555
O2 C1 1_555 1_555
O3 Dy1 1_555 1_555
O4 C5 1_555 1_555
O5 Dy1 1_555 1_555
O6 Dy1 1_555 1_555
O7 Dy1 1_555 1_555
O8 Dy1 1_555 1_555
C1 C2 1_555 1_555
C2 C3 1_555 1_555
C3 N1 1_555 1_555
C4 C2 1_555 1_555
H1 C4 1_555 1_555
C5 O3 1_555 1_555
C6 C5 1_555 1_555
C7 C6 1_555 1_555
C8 C6 1_555 1_555
H2 C8 1_555 1_555
C9 O5 1_555 1_555
C10 C9 1_555 1_555
C11 C10 1_555 1_555
C12 C10 1_555 1_555
C13 O7 1_555 1_555
H3 C13 1_555 1_555
C14 H4 1_555 1_555
H5 C14 1_555 1_555
H6 C14 1_555 1_555
C15 H7 1_555 1_555
H8 C15 1_555 1_555
H9 C15 1_555 1_555
C16 O8 1_555 1_555
H10 C16 1_555 1_555
C17 H11 1_555 1_555
H12 C17 1_555 1_555
H13 C17 1_555 1_555
C18 H14 1_555 1_555
H15 C18 1_555 1_555
H16 C18 1_555 1_555
N2 C11 1_555 1_555
N3 C12 1_555 1_555
N4 C13 1_555 1_555
N5 C16 1_555 1_555
Dy1A O1A 1_555 1_555
Dy1A_2 O1 1_555 1_555
Dy1_2 O1A 1_555 1_555
Dy1A_3 O3A 1_555 1_555
Dy1_3 O4A 1_555 1_555
Dy1A_4 O5A 1_555 1_555
O1A C1A 1_555 1_555
O1A_2 Dy1 1_555 1_555
O1_2 Dy1A 1_555 1_555
O2A Dy1_2 1_555 1_555
O2A_2 Dy1 1_555 1_555
O2_2 Dy1A 1_555 1_555
O3A C5A 1_555 1_555
O3A_2 Dy1A 1_555 1_555
O4A C5A 1_555 1_555
O4A_2 Dy1 1_555 1_555
O4_2 Dy1A 1_555 1_555
O5A C9A 1_555 1_555
O5A_2 Dy1A 1_555 1_555
O6A Dy1A_4 1_555 1_555
O6A_2 Dy1A 1_555 1_555
O7A Dy1A 1_555 1_555
O8A Dy1A 1_555 1_555
C1A O2A 1_555 1_555
C2A C1A 1_555 1_555
C3A C4 1_555 1_555
C4A C3 1_555 1_555
H1A C4A 1_555 1_555
C5A C6A 1_555 1_555
C6A C7A 1_555 1_555
C7A C8 1_555 1_555
C8A C7 1_555 1_555
H2A C8A 1_555 1_555
C9A O6A 1_555 1_555
C10A C9A 1_555 1_555
C11A C12 1_555 1_555
C12A C11 1_555 1_555
C13A O7A 1_555 1_555
H3A C13A 1_555 1_555
C14A H4A 1_555 1_555
H5A C14A 1_555 1_555
H6A C14A 1_555 1_555
C15A H7A 1_555 1_555
H8A C15A 1_555 1_555
H9A C15A 1_555 1_555
C16A O8A 1_555 1_555
H10A C16A 1_555 1_555
C17A H11A 1_555 1_555
H12A C17A 1_555 1_555
H13A C17A 1_555 1_555
C18A H14A 1_555 1_555
H15A C18A 1_555 1_555
H16A C18A 1_555 1_555
N1A C3A 1_555 1_555
N2A C11A 1_555 1_555
N3A C12A 1_555 1_555
N4A C13A 1_555 1_555
N5A C16A 1_555 1_555
O2 Dy1A_2 1_555 1_555
O4 Dy1A_2 1_555 1_555
O6 C9 1_555 1_555
C14 N4 1_555 1_555
C15 N4 1_555 1_555
C17 N5 1_555 1_555
C18 N5 1_555 1_555
Dy1A_2 O1A_2 1_555 1_555
Dy1_2 O1_2 1_555 1_555
C2A C3A 1_555 1_555
C2A C4A 1_555 1_555
C6A C8A 1_555 1_555
C10A C11A 1_555 1_555
C10A C12A 1_555 1_555
C14A N4A 1_555 1_555
C15A N4A 1_555 1_555
C17A N5A 1_555 1_555
C18A N5A 1_555 1_555

#END
