
#######################################################################
#
#                 Cambridge Crystallographic Data Centre
#                                CCDC 
#
#######################################################################
#
# If this CIF has been generated from an entry in the Cambridge 
# Structural Database, then it will include bibliographic, chemical, 
# crystal, experimental, refinement or atomic coordinate data resulting 
# from the CCDC's data processing and validation procedures.
#
#######################################################################

data_SONZOK
_symmetry_cell_setting           monoclinic
_symmetry_space_group_name_H-M   'P 21/c'
_symmetry_Int_Tables_number      14
_space_group_name_Hall           '-P 2ybc'
loop_
_symmetry_equiv_pos_site_id
_symmetry_equiv_pos_as_xyz
1 x,y,z
2 -x,1/2+y,1/2-z
3 -x,-y,-z
4 x,1/2-y,1/2+z
_cell_length_a                   9.055(1)
_cell_length_b                   13.464(1)
_cell_length_c                   14.381(1)
_cell_angle_alpha                90
_cell_angle_beta                 106.12(1)
_cell_angle_gamma                90
_cell_volume                     1684.35
loop_
_atom_site_label
_atom_site_type_symbol
_atom_site_fract_x
_atom_site_fract_y
_atom_site_fract_z
Zn1 Zn 0.0000 0.0000 0.0000
O1 O -0.0978(2) 0.1441(1) -0.0152(1)
N1 N 0.2766(2) 0.1323(1) 0.3230(1)
N2 N 0.3250(2) 0.3202(1) 0.3494(1)
O2 O 0.1086(2) 0.0367(1) 0.1467(1)
O3 O 0.1980(3) -0.1117(1) 0.2062(1)
C1 C 0.1805(3) -0.0207(2) 0.2122(2)
C2 C 0.2533(3) 0.0211(2) 0.3139(1)
C3 C 0.3718(3) 0.1541(2) 0.4261(1)
C4 C 0.3733(3) 0.2653(2) 0.4448(2)
C5 C 0.1265(2) 0.1887(2) 0.3053(2)
C6 C 0.1585(2) 0.2995(2) 0.2998(2)
C7 C 0.3626(3) 0.1725(2) 0.2545(2)
C8 C 0.4172(3) 0.2784(2) 0.2848(2)
C9 C 0.3624(3) 0.4294(2) 0.3630(2)
C10 C 0.2808(3) 0.4873(2) 0.4261(2)
O4 O 0.1856(2) 0.4422(1) 0.4594(1)
O5 O 0.3194(3) 0.5758(1) 0.4376(2)
O1B O 0.0978(2) -0.1441(1) 0.0152(1)
O4A O -0.1856(2) -0.0578(1) 0.0406(1)
Zn1A Zn 0.0000 0.5000 0.5000
Zn1C Zn 0.0000 0.5000 -0.5000
O2C O 0.1086(2) 0.4633(1) -0.3533(1)
C1C C 0.1805(3) 0.5207(2) -0.2878(2)
O3C O 0.1980(3) 0.6117(1) -0.2938(1)
C2C C 0.2533(3) 0.4789(2) -0.1861(1)
N1C N 0.2766(2) 0.3677(1) -0.1770(1)
C3C C 0.3718(3) 0.3459(2) -0.0739(1)
C4C C 0.3733(3) 0.2347(2) -0.0552(2)
N2C N 0.3250(2) 0.1798(1) -0.1506(1)
C6C C 0.1585(2) 0.2005(2) -0.2002(2)
C5C C 0.1265(2) 0.3113(2) -0.1947(2)
C7C C 0.3626(3) 0.3275(2) -0.2455(2)
C8C C 0.4172(3) 0.2216(2) -0.2152(2)
C9C C 0.3624(3) 0.0706(2) -0.1370(2)
C10C C 0.2808(3) 0.0127(2) -0.0739(2)
O4C O 0.1856(2) 0.0578(1) -0.0406(1)
O2B O -0.1086(2) -0.0367(1) -0.1467(1)
O5C O 0.3194(3) -0.0758(1) -0.0624(2)
O6 O 0.1134(3) 0.3005(2) 0.0579(2)
O7 O 0.3869(3) -0.2349(2) 0.3580(2)
Cl1 Cl 0.2246(1) 0.5597(1) 0.1113(1)
O8 O 0.1161(3) 0.5161(3) 0.1557(3)
O9 O 0.1634(4) 0.5505(4) 0.0099(2)
O10 O 0.3644(3) 0.5024(2) 0.1403(3)
O11 O 0.2526(4) 0.6584(2) 0.1416(4)
loop_
_geom_bond_atom_site_label_1
_geom_bond_atom_site_label_2
_geom_bond_site_symmetry_1
_geom_bond_site_symmetry_2
Zn1 O1 1_555 1_555
N1 C2 1_555 1_555
N2 C4 1_555 1_555
O2 Zn1 1_555 1_555
O3 C1 1_555 1_555
C1 O2 1_555 1_555
C2 C1 1_555 1_555
C3 N1 1_555 1_555
C4 C3 1_555 1_555
C5 N1 1_555 1_555
C6 N2 1_555 1_555
C7 N1 1_555 1_555
C8 N2 1_555 1_555
C9 N2 1_555 1_555
C10 C9 1_555 1_555
O4 C10 1_555 1_555
O5 C10 1_555 1_555
Cl1 O8 1_555 1_555
O9 Cl1 1_555 1_555
O10 Cl1 1_555 1_555
O11 Cl1 1_555 1_555
O1B Zn1 1_555 1_555
O4A Zn1 1_555 1_555
Zn1A O4 1_555 1_555
Zn1C O2C 1_555 1_555
O2C C1C 1_555 1_555
C1C O3C 1_555 1_555
C2C C1C 1_555 1_555
N1C C2C 1_555 1_555
C3C N1C 1_555 1_555
C4C C3C 1_555 1_555
N2C C4C 1_555 1_555
C6C N2C 1_555 1_555
C5C N1C 1_555 1_555
C7C N1C 1_555 1_555
C8C N2C 1_555 1_555
C9C N2C 1_555 1_555
C10C C9C 1_555 1_555
O4C Zn1 1_555 1_555
O2B Zn1 1_555 1_555
O5C C10C 1_555 1_555
C5 C6 1_555 1_555
C7 C8 1_555 1_555
C6C C5C 1_555 1_555
C7C C8C 1_555 1_555
C10C O4C 1_555 1_555

#END
