
#######################################################################
#
#                 Cambridge Crystallographic Data Centre
#                                CCDC 
#
#######################################################################
#
# If this CIF has been generated from an entry in the Cambridge 
# Structural Database, then it will include bibliographic, chemical, 
# crystal, experimental, refinement or atomic coordinate data resulting 
# from the CCDC's data processing and validation procedures.
#
#######################################################################

data_SOPLEP
_symmetry_cell_setting           monoclinic
_symmetry_space_group_name_H-M   'P 21/n'
_symmetry_Int_Tables_number      14
_space_group_name_Hall           '-P 2yn'
loop_
_symmetry_equiv_pos_site_id
_symmetry_equiv_pos_as_xyz
1 x,y,z
2 1/2-x,1/2+y,1/2-z
3 -x,-y,-z
4 1/2+x,1/2-y,1/2+z
_cell_length_a                   8.0741(9)
_cell_length_b                   8.7580(10)
_cell_length_c                   25.713(3)
_cell_angle_alpha                90
_cell_angle_beta                 90.733(2)
_cell_angle_gamma                90
_cell_volume                     1818.09
loop_
_atom_site_label
_atom_site_type_symbol
_atom_site_fract_x
_atom_site_fract_y
_atom_site_fract_z
Cd1 Cd 0.20994(7) -0.02020(5) 0.17100(2)
N1 N 0.0769(7) -0.2295(6) 0.1426(2)
N2 N -0.2922(8) -0.1816(6) -0.1251(2)
N3 N -0.3799(7) -0.6151(6) -0.0638(2)
H1 H -0.4436 -0.6671 -0.0842
N4 N -0.2629(7) -0.6222(6) 0.0216(2)
N5 N -0.1583(7) -0.6425(6) 0.1081(2)
H2 H -0.1612 -0.7006 0.1351
O1 O 0.5626(6) -0.3922(5) 0.32473(18)
O2 O 0.4230(7) -0.4480(6) 0.2543(2)
O3 O 0.4246(7) -0.0929(7) 0.22098(19)
O4 O 0.4784(7) -0.1665(5) 0.14143(19)
C1 C 0.5473(10) -0.3918(8) 0.2759(3)
C2 C 0.6877(9) -0.3302(8) 0.2449(3)
H3 H 0.7936 -0.3660 0.2526
C3 C 0.6715(9) -0.2294(8) 0.2077(3)
H4 H 0.7685 -0.1974 0.1919
C4 C 0.5162(10) -0.1612(8) 0.1881(3)
C5 C 0.0916(9) -0.3536(8) 0.1725(3)
H5 H 0.1591 -0.3478 0.2020
C6 C 0.0125(8) -0.4891(7) 0.1621(2)
H6 H 0.0255 -0.5717 0.1845
C7 C -0.0878(8) -0.5024(7) 0.1175(2)
C8 C -0.1096(9) -0.3707(7) 0.0869(3)
H7 H -0.1791 -0.3711 0.0577
C9 C -0.0238(9) -0.2399(8) 0.1015(3)
H8 H -0.0379 -0.1532 0.0811
C10 C -0.3928(10) -0.2830(8) -0.1469(3)
H9 H -0.4449 -0.2561 -0.1781
C11 C -0.4258(9) -0.4251(7) -0.1269(3)
H10 H -0.4976 -0.4911 -0.1444
C12 C -0.3510(9) -0.4690(7) -0.0804(3)
C13 C -0.2474(9) -0.3636(8) -0.0556(3)
H11 H -0.1966 -0.3860 -0.0239
C14 C -0.2227(9) -0.2234(8) -0.0801(3)
H12 H -0.1524 -0.1538 -0.0637
C15 C -0.3249(9) -0.6960(7) -0.0196(3)
C16 C -0.3442(9) -0.8538(7) -0.0225(3)
H13 H -0.3824 -0.9010 -0.0528
C17 C -0.3042(10) -0.9374(7) 0.0217(3)
H14 H -0.3159 -1.0430 0.0214
C18 C -0.2476(9) -0.8656(8) 0.0655(3)
H15 H -0.2241 -0.9197 0.0958
C19 C -0.2268(8) -0.7094(7) 0.0630(3)
Cd1B Cd -0.20994(7) 0.02020(5) -0.17100(2)
Cd1A Cd 0.29006(7) -0.52020(5) 0.32900(2)
N2B N 0.2922(8) 0.1816(6) 0.1251(2)
O1A O -0.0626(6) 0.1078(5) 0.17527(18)
O2A O 0.0770(7) 0.0520(6) 0.2457(2)
loop_
_geom_bond_atom_site_label_1
_geom_bond_atom_site_label_2
_geom_bond_site_symmetry_1
_geom_bond_site_symmetry_2
Cd1 N1 1_555 1_555
N1 C5 1_555 1_555
N2 C10 1_555 1_555
N3 H1 1_555 1_555
N4 C15 1_555 1_555
N5 H2 1_555 1_555
O1 C1 1_555 1_555
O2 C1 1_555 1_555
O3 Cd1 1_555 1_555
O4 Cd1 1_555 1_555
C1 C2 1_555 1_555
C2 H3 1_555 1_555
C3 C2 1_555 1_555
H4 C3 1_555 1_555
C4 O3 1_555 1_555
C5 H5 1_555 1_555
C6 C5 1_555 1_555
H6 C6 1_555 1_555
C7 N5 1_555 1_555
C8 C7 1_555 1_555
H7 C8 1_555 1_555
C9 N1 1_555 1_555
H8 C9 1_555 1_555
C10 H9 1_555 1_555
C11 C10 1_555 1_555
H10 C11 1_555 1_555
C12 N3 1_555 1_555
C13 C12 1_555 1_555
H11 C13 1_555 1_555
C14 N2 1_555 1_555
H12 C14 1_555 1_555
C15 N3 1_555 1_555
C16 C15 1_555 1_555
H13 C16 1_555 1_555
C17 C16 1_555 1_555
H14 C17 1_555 1_555
C18 C17 1_555 1_555
H15 C18 1_555 1_555
C19 N4 1_555 1_555
Cd1B N2 1_555 1_555
Cd1A O1 1_555 1_555
N2B Cd1 1_555 1_555
O1A Cd1 1_555 1_555
O2A Cd1 1_555 1_555
N5 C19 1_555 1_555
O2 Cd1A 1_555 1_555
O4 C4 1_555 1_555
C3 C4 1_555 1_555
C6 C7 1_555 1_555
C8 C9 1_555 1_555
C11 C12 1_555 1_555
C13 C14 1_555 1_555
C18 C19 1_555 1_555

#END
