
#######################################################################
#
#                 Cambridge Crystallographic Data Centre
#                                CCDC 
#
#######################################################################
#
# If this CIF has been generated from an entry in the Cambridge 
# Structural Database, then it will include bibliographic, chemical, 
# crystal, experimental, refinement or atomic coordinate data resulting 
# from the CCDC's data processing and validation procedures.
#
#######################################################################

data_SOPLOZ
_symmetry_cell_setting           monoclinic
_symmetry_space_group_name_H-M   'C 2/c'
_symmetry_Int_Tables_number      15
_space_group_name_Hall           '-C 2yn'
loop_
_symmetry_equiv_pos_site_id
_symmetry_equiv_pos_as_xyz
1 x,y,z
2 -x,y,1/2-z
3 1/2+x,1/2+y,z
4 1/2-x,1/2+y,1/2-z
5 -x,-y,-z
6 x,-y,1/2+z
7 1/2-x,1/2-y,-z
8 1/2+x,1/2-y,1/2+z
_cell_length_a                   22.213(8)
_cell_length_b                   14.269(5)
_cell_length_c                   19.978(7)
_cell_angle_alpha                90
_cell_angle_beta                 112.402(7)
_cell_angle_gamma                90
_cell_volume                     5854.3
loop_
_atom_site_label
_atom_site_type_symbol
_atom_site_fract_x
_atom_site_fract_y
_atom_site_fract_z
Mn1 Mn 0.80047(5) 1.08024(8) 0.67795(6)
S1 S 0.39531(11) 1.13349(17) 0.59216(16)
O1 O 0.7239(2) 1.1550(4) 0.7147(3)
O2 O 0.7045(2) 1.0383(4) 0.6341(3)
O3 O 0.3851(2) 1.1984(3) 0.6447(3)
O4 O 0.3644(2) 1.1482(3) 0.5146(3)
O5 O 0.8619(2) 1.1985(4) 0.7049(3)
O6 O 0.7766(3) 1.2022(4) 0.5983(3)
N1 N 0.8355(4) 1.0003(5) 0.6130(3)
N2 N 0.8709(3) 0.8447(4) 0.4518(3)
H1 H 0.8356 0.8272 0.4173
N3 N 1.0996(3) 0.8280(4) 0.5482(4)
H2 H 1.1319 0.7989 0.5440
N4 N 0.8332(4) 1.0028(5) 0.7696(4)
N5 N 0.9867(5) 0.8385(4) 0.5002(3)
C1 C 0.6867(4) 1.0991(6) 0.6681(5)
C2 C 0.6136(4) 1.1073(6) 0.6509(5)
C3 C 0.5728(5) 1.0421(6) 0.6054(5)
H3 H 0.5892 0.9932 0.5866
C4 C 0.5060(5) 1.0514(6) 0.5883(4)
H4 H 0.4778 1.0080 0.5573
C5 C 0.4805(4) 1.1235(7) 0.6160(5)
C6 C 0.5219(5) 1.1842(5) 0.6624(4)
H5 H 0.5057 1.2304 0.6838
C7 C 0.5895(4) 1.1789(6) 0.6793(4)
H6 H 0.6174 1.2235 0.7094
C8 C 0.3722(4) 1.0173(5) 0.6076(6)
C9 C 0.3346(3) 0.9615(8) 0.5493(4)
H7 H 0.3212 0.9840 0.5022
C10 C 0.3179(4) 0.8731(6) 0.5624(5)
H8 H 0.2920 0.8350 0.5247
C11 C 0.3405(4) 0.8421(6) 0.6335(6)
C12 C 0.3783(4) 0.8956(7) 0.6917(5)
H9 H 0.3934 0.8704 0.7381
C13 C 0.3941(3) 0.9889(6) 0.6810(5)
H10 H 0.4171 1.0285 0.7192
C14 C 0.8246(5) 1.2376(6) 0.6456(6)
C15 C 0.7956(3) 0.9314(7) 0.5771(5)
H11 H 0.7593 0.9177 0.5876
C16 C 0.8078(4) 0.8785(5) 0.5230(4)
H12 H 0.7793 0.8312 0.4978
C17 C 0.8635(4) 0.8988(6) 0.5082(5)
C18 C 0.9048(4) 0.9724(6) 0.5492(5)
H13 H 0.9434 0.9870 0.5436
C19 C 0.8858(4) 1.0210(6) 0.5971(5)
H14 H 0.9106 1.0726 0.6200
C20 C 0.9299(5) 0.8159(6) 0.4451(7)
C21 C 0.9229(5) 0.7596(7) 0.3858(5)
H15 H 0.8824 0.7453 0.3505
C22 C 0.9781(6) 0.7274(7) 0.3831(6)
H16 H 0.9768 0.6904 0.3442
C23 C 1.0388(5) 0.7488(7) 0.4384(6)
H17 H 1.0771 0.7252 0.4365
C24 C 1.0406(5) 0.8039(6) 0.4941(6)
C25 C 1.1157(5) 0.8884(6) 0.6078(5)
C26 C 1.1813(5) 0.9028(7) 0.6422(6)
H18 H 1.2098 0.8737 0.6247
C27 C 0.7944(4) 0.9589(8) 0.7986(6)
H19 H 0.7496 0.9677 0.7770
C28 C 0.8931(6) 0.9901(6) 0.8040(5)
H20 H 0.9204 1.0227 0.7867
C29 C 1.0751(4) 0.9333(7) 0.6346(6)
H21 H 1.0301 0.9269 0.6141
Mn1B Mn 0.30047(5) 0.58024(8) 0.67795(6)
Mn1A Mn 1.19953(5) 1.08024(8) 0.82205(6)
Mn1B_2 Mn 1.30047(5) 1.58024(8) 0.67795(6)
S1B S 0.89531(11) 1.63349(17) 0.59216(16)
O1B O 1.2239(2) 1.6550(4) 0.7147(3)
O1A O 1.2761(2) 1.1550(4) 0.7853(3)
O2B O 1.2045(2) 1.5383(4) 0.6341(3)
O2A O 1.2955(2) 1.0383(4) 0.8659(3)
O3B O 0.8851(2) 1.6984(3) 0.6447(3)
O4B O 0.8644(2) 1.6482(3) 0.5146(3)
O5B O 0.3619(2) 0.6985(4) 0.7049(3)
O5A O 1.1381(2) 1.1985(4) 0.7951(3)
O6B O 0.2766(3) 0.7022(4) 0.5983(3)
O6A O 1.2234(3) 1.2022(4) 0.9017(3)
N1A N 1.1645(4) 1.0003(5) 0.8870(3)
N2A N 1.1291(3) 0.8447(4) 1.0482(3)
H1A H 1.1644 0.8272 1.0827
N3A N 0.9004(3) 0.8280(4) 0.9518(4)
H2A H 0.8681 0.7989 0.9560
N4A N 1.1668(4) 1.0028(5) 0.7304(4)
N5A N 1.0133(5) 0.8385(4) 0.9998(3)
C1B C 1.1867(4) 1.5991(6) 0.6681(5)
C2B C 1.1136(4) 1.6073(6) 0.6509(5)
C3B C 1.0728(5) 1.5421(6) 0.6054(5)
H3B H 1.0892 1.4932 0.5866
C4B C 1.0060(5) 1.5514(6) 0.5883(4)
H4B H 0.9778 1.5080 0.5573
C5B C 0.9805(4) 1.6235(7) 0.6160(5)
C6B C 1.0219(5) 1.6842(5) 0.6624(4)
H5B H 1.0057 1.7304 0.6838
C7B C 1.0895(4) 1.6789(6) 0.6793(4)
H6B H 1.1174 1.7235 0.7094
C8B C 0.8722(4) 1.5173(5) 0.6076(6)
C9B C 0.8346(3) 1.4615(8) 0.5493(4)
H7B H 0.8212 1.4840 0.5022
C10B C 0.8179(4) 1.3731(6) 0.5624(5)
H8B H 0.7920 1.3350 0.5247
C11B C 0.8405(4) 1.3421(6) 0.6335(6)
C12B C 0.8783(4) 1.3956(7) 0.6917(5)
H9B H 0.8934 1.3704 0.7381
C13B C 0.8941(3) 1.4889(6) 0.6810(5)
H10B H 0.9171 1.5285 0.7192
C14B C 0.3246(5) 0.7376(6) 0.6456(6)
C15A C 1.2044(3) 0.9314(7) 0.9229(5)
H11A H 1.2407 0.9177 0.9124
C16A C 1.1922(4) 0.8785(5) 0.9770(4)
H12A H 1.2207 0.8312 1.0022
C17A C 1.1365(4) 0.8988(6) 0.9918(5)
C18A C 1.0952(4) 0.9724(6) 0.9508(5)
H13A H 1.0566 0.9870 0.9564
C19A C 1.1142(4) 1.0210(6) 0.9029(5)
H14A H 1.0894 1.0726 0.8800
C20A C 1.0701(5) 0.8159(6) 1.0549(7)
C21A C 1.0771(5) 0.7596(7) 1.1142(5)
H15A H 1.1176 0.7453 1.1495
C22A C 1.0219(6) 0.7274(7) 1.1169(6)
H16A H 1.0232 0.6904 1.1558
C23A C 0.9612(5) 0.7488(7) 1.0616(6)
H17A H 0.9229 0.7252 1.0635
C24A C 0.9594(5) 0.8039(6) 1.0059(6)
C25A C 0.8843(5) 0.8884(6) 0.8922(5)
C26A C 0.8187(5) 0.9028(7) 0.8578(6)
H18A H 0.7902 0.8737 0.8753
C27A C 1.2056(4) 0.9589(8) 0.7014(6)
H19A H 1.2504 0.9677 0.7230
C28A C 1.1069(6) 0.9901(6) 0.6960(5)
H20A H 1.0796 1.0227 0.7133
C29A C 0.9249(4) 0.9333(7) 0.8654(6)
H21A H 0.9699 0.9269 0.8859
O7 O 0.7461(2) 0.7671(3) 0.3481(2)
H22 H 0.7304 0.8029 0.3704
H23 H 0.7390 0.7869 0.3063
O8 O 1.0000 0.1412(6) 0.7500
H24 H 0.9668 0.1074 0.7341
H24A H 1.0332 0.1074 0.7659
loop_
_geom_bond_atom_site_label_1
_geom_bond_atom_site_label_2
_geom_bond_site_symmetry_1
_geom_bond_site_symmetry_2
Mn1 O1 1_555 1_555
S1 O3 1_555 1_555
O1 C1 1_555 1_555
O2 Mn1 1_555 1_555
O4 S1 1_555 1_555
O5 Mn1 1_555 1_555
O6 Mn1 1_555 1_555
N1 Mn1 1_555 1_555
N2 H1 1_555 1_555
N3 H2 1_555 1_555
N4 Mn1 1_555 1_555
N5 C20 1_555 1_555
C1 O2 1_555 1_555
C2 C1 1_555 1_555
C3 C2 1_555 1_555
H3 C3 1_555 1_555
C4 C3 1_555 1_555
H4 C4 1_555 1_555
C5 S1 1_555 1_555
C6 C5 1_555 1_555
H5 C6 1_555 1_555
C7 C2 1_555 1_555
H6 C7 1_555 1_555
C8 S1 1_555 1_555
C9 C8 1_555 1_555
H7 C9 1_555 1_555
C10 C9 1_555 1_555
H8 C10 1_555 1_555
C11 C10 1_555 1_555
C12 C11 1_555 1_555
H9 C12 1_555 1_555
C13 C8 1_555 1_555
H10 C13 1_555 1_555
C14 O5 1_555 1_555
C15 N1 1_555 1_555
H11 C15 1_555 1_555
C16 C15 1_555 1_555
H12 C16 1_555 1_555
C17 N2 1_555 1_555
C18 C17 1_555 1_555
H13 C18 1_555 1_555
C19 N1 1_555 1_555
H14 C19 1_555 1_555
C20 N2 1_555 1_555
C21 C20 1_555 1_555
H15 C21 1_555 1_555
C22 C21 1_555 1_555
H16 C22 1_555 1_555
C23 C22 1_555 1_555
H17 C23 1_555 1_555
C24 N3 1_555 1_555
C25 N3 1_555 1_555
C26 C25 1_555 1_555
H18 C26 1_555 1_555
C27 N4 1_555 1_555
H19 C27 1_555 1_555
C28 N4 1_555 1_555
H20 C28 1_555 1_555
C29 C25 1_555 1_555
H21 C29 1_555 1_555
O7 H22 1_555 1_555
H23 O7 1_555 1_555
O8 H24 1_555 1_555
Mn1B O5B 1_555 1_555
Mn1A O1A 1_555 1_555
Mn1B_2 O1B 1_555 1_555
S1B O3B 1_555 1_555
O1B C1B 1_555 1_555
O2B Mn1B_2 1_555 1_555
O2A Mn1A 1_555 1_555
O4B S1B 1_555 1_555
O5B C14B 1_555 1_555
O5A Mn1A 1_555 1_555
O6B Mn1B 1_555 1_555
O6A Mn1A 1_555 1_555
N1A Mn1A 1_555 1_555
N2A H1A 1_555 1_555
N3A H2A 1_555 1_555
N4A Mn1A 1_555 1_555
N5A C20A 1_555 1_555
C1B O2B 1_555 1_555
C2B C1B 1_555 1_555
C3B C2B 1_555 1_555
H3B C3B 1_555 1_555
C4B C3B 1_555 1_555
H4B C4B 1_555 1_555
C5B S1B 1_555 1_555
C6B C5B 1_555 1_555
H5B C6B 1_555 1_555
C7B C2B 1_555 1_555
H6B C7B 1_555 1_555
C8B S1B 1_555 1_555
C9B C8B 1_555 1_555
H7B C9B 1_555 1_555
C10B C9B 1_555 1_555
H8B C10B 1_555 1_555
C11B C14 1_555 1_555
C12B C11B 1_555 1_555
H9B C12B 1_555 1_555
C13B C8B 1_555 1_555
H10B C13B 1_555 1_555
C14B C11 1_555 1_555
C15A N1A 1_555 1_555
H11A C15A 1_555 1_555
C16A C15A 1_555 1_555
H12A C16A 1_555 1_555
C17A N2A 1_555 1_555
C18A C17A 1_555 1_555
H13A C18A 1_555 1_555
C19A N1A 1_555 1_555
H14A C19A 1_555 1_555
C20A N2A 1_555 1_555
C21A C20A 1_555 1_555
H15A C21A 1_555 1_555
C22A C21A 1_555 1_555
H16A C22A 1_555 1_555
C23A C22A 1_555 1_555
H17A C23A 1_555 1_555
C24A N3A 1_555 1_555
C25A N3A 1_555 1_555
C26A C27 1_555 1_555
H18A C26A 1_555 1_555
C27A C26 1_555 1_555
H19A C27A 1_555 1_555
C28A C29 1_555 1_555
H20A C28A 1_555 1_555
C29A C28 1_555 1_555
H21A C29A 1_555 1_555
H24A O8 1_555 1_555
O6 C14 1_555 1_555
N5 C24 1_555 1_555
C4 C5 1_555 1_555
C6 C7 1_555 1_555
C12 C13 1_555 1_555
C16 C17 1_555 1_555
C18 C19 1_555 1_555
C23 C24 1_555 1_555
O6B C14B 1_555 1_555
N4A C27A 1_555 1_555
N4A C28A 1_555 1_555
N5A C24A 1_555 1_555
C4B C5B 1_555 1_555
C6B C7B 1_555 1_555
C10B C11B 1_555 1_555
C12B C13B 1_555 1_555
C16A C17A 1_555 1_555
C18A C19A 1_555 1_555
C23A C24A 1_555 1_555
C25A C26A 1_555 1_555
C25A C29A 1_555 1_555

#END
