
#######################################################################
#
#                 Cambridge Crystallographic Data Centre
#                                CCDC 
#
#######################################################################
#
# If this CIF has been generated from an entry in the Cambridge 
# Structural Database, then it will include bibliographic, chemical, 
# crystal, experimental, refinement or atomic coordinate data resulting 
# from the CCDC's data processing and validation procedures.
#
#######################################################################

data_SOPLAM
_symmetry_cell_setting           triclinic
_symmetry_space_group_name_H-M   'P -1'
_symmetry_Int_Tables_number      2
_space_group_name_Hall           '-P 1'
loop_
_symmetry_equiv_pos_site_id
_symmetry_equiv_pos_as_xyz
1 x,y,z
2 -x,-y,-z
_cell_length_a                   15.1431(6)
_cell_length_b                   15.2322(6)
_cell_length_c                   16.0597(4)
_cell_angle_alpha                98.484(2)
_cell_angle_beta                 102.682(2)
_cell_angle_gamma                104.206(3)
_cell_volume                     3423.12
loop_
_atom_site_label
_atom_site_type_symbol
_atom_site_fract_x
_atom_site_fract_y
_atom_site_fract_z
C1 C 0.3761(3) 0.9810(3) 0.3121(3)
C2 C 0.3739(4) 1.0786(3) 0.3100(3)
C3 C 0.3760(4) 1.1386(3) 0.3841(3)
H1 H 0.3811 1.1186 0.4378
C4 C 0.3707(4) 1.2280(3) 0.3812(3)
H2 H 0.3708 1.2678 0.4326
C5 C 0.3654(5) 1.2603(3) 0.3036(3)
C6 C 0.3675(6) 1.2004(4) 0.2302(4)
H3 H 0.3669 1.2214 0.1773
C7 C 0.3704(5) 1.1104(4) 0.2331(4)
H4 H 0.3699 1.0702 0.1817
C8 C 0.1834(3) 0.7885(3) 0.2757(3)
C9 C 0.0881(3) 0.7964(4) 0.2812(3)
C10 C 0.0207(4) 0.7973(7) 0.2085(4)
H5 H 0.0334 0.7900 0.1529
C11 C -0.0652(4) 0.8086(7) 0.2154(4)
H6 H -0.1101 0.8097 0.1642
C12 C -0.0880(4) 0.8184(5) 0.2941(3)
C13 C -0.0189(4) 0.8178(6) 0.3673(4)
H7 H -0.0317 0.8249 0.4229
C14 C 0.0663(4) 0.8072(6) 0.3614(4)
H8 H 0.1117 0.8072 0.4127
C15 C 0.3476(3) 1.6351(3) 0.2932(3)
C16 C 0.3499(4) 1.5371(3) 0.2956(3)
C17 C 0.3179(5) 1.4685(4) 0.2199(3)
H9 H 0.2928 1.4830 0.1657
C18 C 0.3222(5) 1.3787(4) 0.2225(4)
H10 H 0.2993 1.3325 0.1701
C19 C 0.3593(5) 1.3556(3) 0.3008(3)
C20 C 0.3971(5) 1.4266(4) 0.3767(4)
H11 H 0.4260 1.4132 0.4302
C21 C 0.3923(5) 1.5161(4) 0.3739(4)
H12 H 0.4180 1.5634 0.4255
C22 C -0.4606(3) 0.8318(3) 0.3184(3)
C23 C -0.3611(3) 0.8364(4) 0.3134(3)
C24 C -0.3430(4) 0.8185(5) 0.2340(3)
H13 H -0.3918 0.8093 0.1823
C25 C -0.2544(4) 0.8137(5) 0.2277(4)
H14 H -0.2438 0.8005 0.1716
C26 C -0.1817(3) 0.8277(5) 0.3011(3)
C27 C -0.2005(4) 0.8476(7) 0.3809(4)
H15 H -0.1518 0.8570 0.4329
C28 C -0.2882(4) 0.8542(7) 0.3871(4)
H16 H -0.2981 0.8713 0.4429
C29 C 0.3803(4) 0.7644(4) 0.5608(3)
H17 H 0.3777 0.7070 0.5264
C30 C 0.3765(5) 0.7682(4) 0.6469(4)
H18 H 0.3691 0.7138 0.6701
C31 C 0.3836(5) 0.8515(4) 0.6977(3)
C32 C 0.3924(4) 0.9283(4) 0.6604(3)
H19 H 0.3974 0.9870 0.6939
C33 C 0.3937(3) 0.9189(3) 0.5745(3)
H20 H 0.3993 0.9721 0.5494
C34 C 0.3895(6) 0.8693(5) 0.7951(4)
C35 C 0.4058(4) 0.8511(4) 1.0648(3)
H21 H 0.4505 0.8946 1.1134
C36 C 0.4122(5) 0.8587(5) 0.9815(4)
H22 H 0.4599 0.9075 0.9730
C37 C 0.3475(5) 0.7935(5) 0.9099(4)
C38 C 0.2806(6) 0.7255(6) 0.9251(4)
H23 H 0.2364 0.6795 0.8780
C39 C 0.2776(5) 0.7242(5) 1.0099(3)
H24 H 0.2289 0.6773 1.0196
N1 N 0.3875(3) 0.8381(2) 0.5248(2)
N2 N 0.3493(5) 0.7944(4) 0.8230(3)
H25 H 0.3222 0.7421 0.7841
N3 N 0.3385(3) 0.7844(3) 1.0789(2)
O1 O 0.3617(3) 0.9273(2) 0.2400(2)
O2 O 0.3904(2) 0.9598(2) 0.3858(2)
O3 O 0.2426(2) 0.7944(2) 0.3461(2)
O4 O 0.1975(2) 0.7766(3) 0.2010(2)
O5 O 0.3170(2) 1.6529(2) 0.2198(2)
O6 O 0.3776(2) 1.6917(2) 0.3657(2)
O7 O -0.4736(2) 0.8541(2) 0.3929(2)
O8 O -0.5233(2) 0.8052(2) 0.2475(2)
O9 O 0.4252(4) 0.9490(3) 0.8419(2)
Zn1 Zn 0.38853(3) 0.82902(3) 0.39747(3)
Zn2 Zn 0.33348(3) 0.78512(3) 0.20377(3)
N3_2 N 0.3385(3) 0.7844(3) 0.0789(2)
O5_2 O 0.3170(2) 0.6529(2) 0.2198(2)
O6_2 O 0.3776(2) 0.6917(2) 0.3657(2)
O7_2 O 0.5264(2) 0.8541(2) 0.3929(2)
O8_2 O 0.4767(2) 0.8052(2) 0.2475(2)
Zn1_2 Zn -0.61147(3) 0.82902(3) 0.39747(3)
Zn1_3 Zn 0.38853(3) 1.82902(3) 0.39747(3)
Zn2_2 Zn -0.66652(3) 0.78512(3) 0.20377(3)
Zn2_3 Zn 0.33348(3) 0.78512(3) 1.20377(3)
Zn2_4 Zn 0.33348(3) 1.78512(3) 0.20377(3)
O10 O 0.2341(6) 0.6196(6) 0.7313(5)
N4 N 0.1419(8) 0.4756(7) 0.6600(7)
C40 C 0.1840(11) 0.5656(9) 0.6651(9)
C41 C 0.0810(17) 0.4148(16) 0.5754(13)
C42 C 0.1540(11) 0.4341(11) 0.7343(9)
O11 O 0.1205(9) 0.2184(8) 0.4265(8)
N5 N 0.1081(8) 0.1133(7) 0.3050(7)
C43 C 0.1160(12) 0.1979(10) 0.3479(9)
C44 C 0.1055(16) 0.0673(15) 0.2189(12)
C45 C 0.1168(14) 0.0462(12) 0.3610(12)
N6 N 0.1638(14) 0.0935(13) 0.9966(16)
C46 C 0.2181(18) 0.1919(15) 0.9979(17)
C47 C 0.0650(18) 0.033(2) 0.983(2)
O13 O 0.1783(12) -0.0334(13) 1.0060(12)
C48 C 0.2291(14) 0.0458(14) 1.0029(15)
O12? O 0.2912(12) 0.0498(13) 0.9830(12)
C49? C 0.2038(14) 0.0172(15) 0.9961(13)
O14? O 0.3284(11) 0.5515(11) 0.5624(11)
N7? N 0.3666(11) 0.4487(11) 0.6459(10)
C50? C 0.384(3) 0.536(2) 0.624(3)
C51? C 0.341(2) 0.3496(14) 0.6068(18)
C52? C 0.4166(18) 0.4219(18) 0.7291(15)
loop_
_geom_bond_atom_site_label_1
_geom_bond_atom_site_label_2
_geom_bond_site_symmetry_1
_geom_bond_site_symmetry_2
C1 C2 1_555 1_555
C2 C3 1_555 1_555
C3 H1 1_555 1_555
C4 C3 1_555 1_555
H2 C4 1_555 1_555
C5 C4 1_555 1_555
C6 C5 1_555 1_555
H3 C6 1_555 1_555
C7 C2 1_555 1_555
H4 C7 1_555 1_555
C8 C9 1_555 1_555
C9 C10 1_555 1_555
C10 H5 1_555 1_555
C11 C10 1_555 1_555
H6 C11 1_555 1_555
C12 C11 1_555 1_555
C13 C12 1_555 1_555
H7 C13 1_555 1_555
C14 C9 1_555 1_555
H8 C14 1_555 1_555
C15 C16 1_555 1_555
C16 C17 1_555 1_555
C17 H9 1_555 1_555
C18 C17 1_555 1_555
H10 C18 1_555 1_555
C19 C5 1_555 1_555
C20 C19 1_555 1_555
H11 C20 1_555 1_555
C21 C16 1_555 1_555
H12 C21 1_555 1_555
C22 C23 1_555 1_555
C23 C24 1_555 1_555
C24 H13 1_555 1_555
C25 C24 1_555 1_555
H14 C25 1_555 1_555
C26 C12 1_555 1_555
C27 C26 1_555 1_555
H15 C27 1_555 1_555
C28 C23 1_555 1_555
H16 C28 1_555 1_555
C29 H17 1_555 1_555
C30 C29 1_555 1_555
H18 C30 1_555 1_555
C31 C30 1_555 1_555
C32 C31 1_555 1_555
H19 C32 1_555 1_555
C33 C32 1_555 1_555
H20 C33 1_555 1_555
C34 C31 1_555 1_555
C35 H21 1_555 1_555
C36 C35 1_555 1_555
H22 C36 1_555 1_555
C37 C36 1_555 1_555
C38 C37 1_555 1_555
H23 C38 1_555 1_555
C39 C38 1_555 1_555
H24 C39 1_555 1_555
N1 C29 1_555 1_555
N2 C34 1_555 1_555
H25 N2 1_555 1_555
N3 C35 1_555 1_555
O1 C1 1_555 1_555
O2 C1 1_555 1_555
O3 C8 1_555 1_555
O4 C8 1_555 1_555
O5 C15 1_555 1_555
O6 C15 1_555 1_555
O7 C22 1_555 1_555
O8 C22 1_555 1_555
O9 C34 1_555 1_555
Zn1 N1 1_555 1_555
Zn2 O1 1_555 1_555
O10 C40 1_555 1_555
N4 C40 1_555 1_555
C41 N4 1_555 1_555
C42 N4 1_555 1_555
O11 C43 1_555 1_555
N5 C43 1_555 1_555
C44 N5 1_555 1_555
C45 N5 1_555 1_555
N6 C46 1_555 1_555
C47 N6 1_555 1_555
O13 C48 1_555 1_555
C48 N6 1_555 1_555
N3_2 Zn2 1_555 1_555
O5_2 Zn2 1_555 1_555
O6_2 Zn1 1_555 1_555
O7_2 Zn1 1_555 1_555
O8_2 Zn2 1_555 1_555
Zn1_2 O7 1_555 1_555
Zn1_3 O6 1_555 1_555
Zn2_2 O8 1_555 1_555
Zn2_3 N3 1_555 1_555
Zn2_4 O5 1_555 1_555
C6 C7 1_555 1_555
C13 C14 1_555 1_555
C18 C19 1_555 1_555
C20 C21 1_555 1_555
C25 C26 1_555 1_555
C27 C28 1_555 1_555
C33 N1 1_555 1_555
C37 N2 1_555 1_555
C39 N3 1_555 1_555
O2 Zn1 1_555 1_555
O3 Zn1 1_555 1_555
O4 Zn2 1_555 1_555

#END
