
#######################################################################
#
#                 Cambridge Crystallographic Data Centre
#                                CCDC 
#
#######################################################################
#
# If this CIF has been generated from an entry in the Cambridge 
# Structural Database, then it will include bibliographic, chemical, 
# crystal, experimental, refinement or atomic coordinate data resulting 
# from the CCDC's data processing and validation procedures.
#
#######################################################################

data_SOPLUF
_symmetry_cell_setting           monoclinic
_symmetry_space_group_name_H-M   'P 21/n'
_symmetry_Int_Tables_number      14
_space_group_name_Hall           '-P 2yn'
loop_
_symmetry_equiv_pos_site_id
_symmetry_equiv_pos_as_xyz
1 x,y,z
2 1/2-x,1/2+y,1/2-z
3 -x,-y,-z
4 1/2+x,1/2-y,1/2+z
_cell_length_a                   6.2948(4)
_cell_length_b                   25.7829(15)
_cell_length_c                   16.9050(10)
_cell_angle_alpha                90
_cell_angle_beta                 96.7530(10)
_cell_angle_gamma                90
_cell_volume                     2724.62
loop_
_atom_site_label
_atom_site_type_symbol
_atom_site_fract_x
_atom_site_fract_y
_atom_site_fract_z
Co1 Co 0.15518(4) 0.035560(11) -0.175320(17)
N1 N 0.0628(3) 0.11429(7) -0.16735(10)
N2 N 0.2586(3) 0.45682(7) -0.31414(10)
O1 O -0.0043(3) 0.03222(7) -0.29271(10)
O2 O 0.4198(3) 0.06003(7) -0.22992(10)
O3 O -0.0997(3) 0.01096(6) -0.11494(10)
O4 O 0.3344(3) 0.04231(7) -0.05946(10)
C1 C -0.1362(4) 0.12926(9) -0.19294(15)
H1 H -0.2303 0.1048 -0.2177
C2 C -0.2093(4) 0.17901(9) -0.18455(15)
H2 H -0.3494 0.1876 -0.2038
C3 C -0.0752(4) 0.21597(9) -0.14771(14)
C4 C 0.1331(4) 0.20082(9) -0.12342(14)
H3 H 0.2312 0.2248 -0.0998
C5 C 0.1953(4) 0.15069(8) -0.13403(13)
H4 H 0.3363 0.1416 -0.1173
C6 C -0.1535(5) 0.27024(10) -0.13430(19)
H5 H -0.2964 0.2739 -0.1622
H6 H -0.1635 0.2747 -0.0779
C7 C -0.0148(6) 0.31282(10) -0.16140(18)
H7 H -0.0856 0.3458 -0.1557
H8 H 0.1189 0.3134 -0.1265
C8 C 0.0344(5) 0.30781(9) -0.24577(16)
H9 H -0.0941 0.2981 -0.2799
H10 H 0.1404 0.2808 -0.2490
C9 C 0.1185(4) 0.35869(9) -0.27398(14)
C10 C 0.3305(4) 0.37361(9) -0.25576(14)
H11 H 0.4295 0.3507 -0.2297
C11 C 0.3935(4) 0.42231(9) -0.27636(14)
H12 H 0.5360 0.4317 -0.2635
C12 C 0.0566(4) 0.44143(9) -0.33402(14)
H13 H -0.0382 0.4644 -0.3620
C13 C -0.0182(4) 0.39360(9) -0.31531(15)
H14 H -0.1604 0.3848 -0.3304
H23 H 0.075(4) 0.0206(10) -0.3232(14)
H24 H 0.385(5) 0.0858(9) -0.2561(18)
H25 H -0.070(4) -0.0154(8) -0.0889(15)
H26 H 0.264(4) 0.0573(10) -0.0289(15)
H27 H -0.125(3) 0.0211(12) -0.3077(19)
H28 H 0.475(5) 0.0389(10) -0.2582(17)
H29 H -0.141(5) 0.0328(10) -0.0842(16)
H30 H 0.456(3) 0.0531(11) -0.0482(18)
Co1A Co 0.34482(4) 0.535560(11) -0.324680(17)
N2A N 0.2414(3) -0.04318(7) -0.18586(10)
S1 S 0.21435(9) 0.17055(2) -0.38387(3)
O5 O -0.0142(3) 0.16613(6) -0.38952(10)
O6 O 0.3419(3) 0.16187(6) -0.30828(9)
O7 O 0.2481(2) 0.41483(6) -0.52373(10)
O8 O 0.5758(2) 0.41018(6) -0.45741(9)
O9 O 0.4124(2) 0.00322(7) -0.67367(9)
O10 O 0.7406(3) 0.01502(8) -0.61214(10)
C14 C 0.2719(3) 0.23454(8) -0.41401(12)
C15 C 0.1054(3) 0.26525(9) -0.44812(13)
H15 H -0.0329 0.2520 -0.4567
C16 C 0.1466(4) 0.31591(9) -0.46934(13)
H16 H 0.0346 0.3366 -0.4919
C17 C 0.3515(3) 0.33619(8) -0.45752(12)
C18 C 0.5168(3) 0.30450(8) -0.42399(14)
H17 H 0.6554 0.3175 -0.4162
C19 C 0.4791(4) 0.25376(9) -0.40183(14)
H18 H 0.5910 0.2330 -0.3792
C20 C 0.3948(4) 0.39171(8) -0.48137(13)
C21 C 0.3105(3) 0.12778(8) -0.45331(13)
C22 C 0.5211(4) 0.11151(9) -0.44181(14)
H19 H 0.6131 0.1236 -0.3986
C23 C 0.5934(4) 0.07701(9) -0.49554(14)
H20 H 0.7350 0.0660 -0.4882
C24 C 0.4579(3) 0.05863(8) -0.56023(13)
C25 C 0.2458(4) 0.07457(9) -0.56938(14)
H21 H 0.1524 0.0616 -0.6115
C26 C 0.1711(4) 0.10938(9) -0.51699(14)
H22 H 0.0294 0.1204 -0.5242
C27 C 0.5455(4) 0.02251(9) -0.61954(13)
loop_
_geom_bond_atom_site_label_1
_geom_bond_atom_site_label_2
_geom_bond_site_symmetry_1
_geom_bond_site_symmetry_2
Co1 N1 1_555 1_555
S1 O5 1_555 1_555
N1 C1 1_555 1_555
N2 C11 1_555 1_555
O1 Co1 1_555 1_555
O2 Co1 1_555 1_555
O3 Co1 1_555 1_555
O4 Co1 1_555 1_555
O6 S1 1_555 1_555
O7 C20 1_555 1_555
O8 C20 1_555 1_555
O9 C27 1_555 1_555
O10 C27 1_555 1_555
C1 H1 1_555 1_555
C2 C1 1_555 1_555
H2 C2 1_555 1_555
C3 C2 1_555 1_555
C4 C3 1_555 1_555
H3 C4 1_555 1_555
C5 N1 1_555 1_555
H4 C5 1_555 1_555
C6 C3 1_555 1_555
H5 C6 1_555 1_555
H6 C6 1_555 1_555
C7 C6 1_555 1_555
H7 C7 1_555 1_555
H8 C7 1_555 1_555
C8 C7 1_555 1_555
H9 C8 1_555 1_555
H10 C8 1_555 1_555
C9 C8 1_555 1_555
C10 C9 1_555 1_555
H11 C10 1_555 1_555
C11 C10 1_555 1_555
H12 C11 1_555 1_555
C12 N2 1_555 1_555
H13 C12 1_555 1_555
C13 C9 1_555 1_555
H14 C13 1_555 1_555
C14 S1 1_555 1_555
C15 C14 1_555 1_555
H15 C15 1_555 1_555
C16 C15 1_555 1_555
H16 C16 1_555 1_555
C17 C16 1_555 1_555
C18 C17 1_555 1_555
H17 C18 1_555 1_555
C19 C14 1_555 1_555
H18 C19 1_555 1_555
C20 C17 1_555 1_555
C21 S1 1_555 1_555
C22 C21 1_555 1_555
H19 C22 1_555 1_555
C23 C22 1_555 1_555
H20 C23 1_555 1_555
C24 C23 1_555 1_555
C25 C24 1_555 1_555
H21 C25 1_555 1_555
C26 C21 1_555 1_555
H22 C26 1_555 1_555
C27 C24 1_555 1_555
H23 O1 1_555 1_555
H24 O2 1_555 1_555
H25 O3 1_555 1_555
H26 O4 1_555 1_555
H27 O1 1_555 1_555
H28 O2 1_555 1_555
H29 O3 1_555 1_555
H30 O4 1_555 1_555
Co1A N2 1_555 1_555
N2A Co1 1_555 1_555
C4 C5 1_555 1_555
C12 C13 1_555 1_555
C18 C19 1_555 1_555
C25 C26 1_555 1_555

#END
