
#######################################################################
#
#                 Cambridge Crystallographic Data Centre
#                                CCDC 
#
#######################################################################
#
# If this CIF has been generated from an entry in the Cambridge 
# Structural Database, then it will include bibliographic, chemical, 
# crystal, experimental, refinement or atomic coordinate data resulting 
# from the CCDC's data processing and validation procedures.
#
#######################################################################

data_SOPLIT
_symmetry_cell_setting           monoclinic
_symmetry_space_group_name_H-M   'P 21/c'
_symmetry_Int_Tables_number      14
_space_group_name_Hall           '-P 2ybc'
loop_
_symmetry_equiv_pos_site_id
_symmetry_equiv_pos_as_xyz
1 x,y,z
2 -x,1/2+y,1/2-z
3 -x,-y,-z
4 x,1/2-y,1/2+z
_cell_length_a                   22.3808(16)
_cell_length_b                   14.9314(11)
_cell_length_c                   20.4597(15)
_cell_angle_alpha                90
_cell_angle_beta                 114.4980(10)
_cell_angle_gamma                90
_cell_volume                     6221.64
loop_
_atom_site_label
_atom_site_type_symbol
_atom_site_fract_x
_atom_site_fract_y
_atom_site_fract_z
Cd1 Cd 0.426143(19) 0.35205(2) 0.32281(2)
Cd2 Cd 0.03948(2) 0.36553(3) 0.17240(2)
S1 S 0.84131(7) 0.39545(10) 0.40783(10)
S2 S 0.37183(7) 0.91353(9) 0.40247(9)
N1 N 0.3875(2) 0.2737(3) 0.2218(3)
N2 N 0.3276(2) 0.1026(3) 0.0453(2)
H1 H 0.3606 0.0796 0.0403
N3 N 0.2128(2) 0.1044(3) -0.0005(2)
N4 N 0.0988(2) 0.1029(3) -0.0435(2)
H2 H 0.0629 0.0804 -0.0746
N5 N 0.0710(2) 0.2682(3) 0.1068(2)
N6 N 0.0739(2) 0.2746(3) 0.2690(3)
N7 N 0.1266(2) 0.0881(3) 0.4353(2)
H3 H 0.0932 0.0607 0.4364
N8 N 0.2414(2) 0.0944(3) 0.4866(2)
N9 N 0.3563(2) 0.0983(3) 0.5367(2)
H4 H 0.3915 0.0781 0.5706
N10 N 0.3956(2) 0.2627(3) 0.3929(2)
O1 O 0.53757(18) 0.3157(3) 0.3833(2)
O2 O 0.51341(18) 0.4160(3) 0.2979(2)
O3 O 0.87849(19) 0.4110(3) 0.4823(2)
O4 O 0.84762(19) 0.4563(2) 0.3563(3)
O5 O 0.88792(18) -0.0148(3) 0.2975(2)
O6 O 0.9741(2) -0.0032(2) 0.4005(2)
O7 O 0.43288(18) 0.4780(2) 0.3888(2)
O8 O 0.36125(19) 0.4924(2) 0.2772(2)
O9 O 0.41306(18) 0.9270(2) 0.4776(2)
O10 O 0.37929(18) 0.9690(2) 0.3490(2)
O11 O 0.07185(19) 0.8413(3) 0.3872(2)
O12 O 0.04365(18) 0.9275(3) 0.2920(2)
C1 C 0.4280(3) 0.2430(4) 0.1936(3)
H13 H 0.4716 0.2612 0.2144
C2 C 0.4087(3) 0.1867(4) 0.1361(3)
H14 H 0.4390 0.1668 0.1191
C3 C 0.3435(2) 0.1589(3) 0.1028(3)
C4 C 0.3012(3) 0.1897(4) 0.1313(3)
H15 H 0.2573 0.1723 0.1116
C5 C 0.3249(3) 0.2456(4) 0.1886(3)
H16 H 0.2954 0.2664 0.2065
C6 C 0.2668(3) 0.0766(3) -0.0063(3)
C7 C 0.2659(3) 0.0222(4) -0.0608(3)
H17 H 0.3047 0.0022 -0.0621
C8 C 0.2052(3) -0.0021(4) -0.1142(4)
H18 H 0.2030 -0.0382 -0.1522
C9 C 0.1492(3) 0.0275(4) -0.1105(3)
H19 H 0.1081 0.0136 -0.1462
C10 C 0.1555(3) 0.0792(3) -0.0516(3)
C11 C 0.0923(3) 0.1568(3) 0.0069(3)
C12 C 0.0430(3) 0.1399(3) 0.0301(3)
H20 H 0.0157 0.0906 0.0124
C13 C 0.0345(3) 0.1950(4) 0.0783(3)
H21 H 0.0012 0.1812 0.0926
C14 C 0.1192(3) 0.2844(3) 0.0851(3)
H22 H 0.1457 0.3344 0.1038
C15 C 0.1317(3) 0.2318(3) 0.0373(3)
H23 H 0.1662 0.2459 0.0250
C16 C 0.1336(3) 0.2387(4) 0.2974(3)
H24 H 0.1634 0.2570 0.2791
C17 C 0.1543(3) 0.1767(4) 0.3516(3)
H25 H 0.1967 0.1539 0.3688
C18 C 0.1119(3) 0.1484(3) 0.3806(3)
C19 C 0.0503(3) 0.1856(4) 0.3516(4)
H26 H 0.0198 0.1693 0.3695
C20 C 0.0332(3) 0.2463(4) 0.2970(4)
H27 H -0.0093 0.2691 0.2782
C21 C 0.1870(3) 0.0637(3) 0.4898(3)
C22 C 0.1870(3) 0.0094(4) 0.5442(3)
H28 H 0.1480 -0.0113 0.5446
C23 C 0.2470(3) -0.0132(4) 0.5979(4)
H29 H 0.2485 -0.0503 0.6351
C24 C 0.3039(3) 0.0179(4) 0.5973(3)
H30 H 0.3444 0.0046 0.6342
C25 C 0.2988(3) 0.0701(3) 0.5396(3)
C26 C 0.3667(3) 0.1531(3) 0.4888(3)
C27 C 0.4262(3) 0.1469(3) 0.4819(3)
H31 H 0.4579 0.1060 0.5097
C28 C 0.4378(3) 0.2009(4) 0.4342(3)
H32 H 0.4775 0.1943 0.4303
C29 C 0.3400(3) 0.2704(3) 0.4013(3)
H33 H 0.3103 0.3142 0.3749
C30 C 0.3232(3) 0.2176(3) 0.4467(3)
H34 H 0.2829 0.2253 0.4490
C31 C 0.5542(3) 0.3710(4) 0.3468(3)
C32 C 0.6263(3) 0.3795(4) 0.3636(3)
C33 C 0.6475(3) 0.4406(3) 0.3294(3)
H35 H 0.6176 0.4795 0.2966
C34 C 0.7130(3) 0.4460(4) 0.3425(3)
H36 H 0.7269 0.4881 0.3183
C35 C 0.7572(3) 0.3900(4) 0.3905(4)
C36 C 0.7368(3) 0.3305(5) 0.4276(4)
H37 H 0.7669 0.2935 0.4623
C37 C 0.6706(3) 0.3259(5) 0.4129(4)
H38 H 0.6565 0.2848 0.4377
C38 C 0.8610(3) 0.2852(4) 0.3895(3)
C39 C 0.8424(3) 0.2565(4) 0.3195(3)
H39 H 0.8177 0.2933 0.2811
C40 C 0.8613(3) 0.1722(4) 0.3082(3)
H40 H 0.8481 0.1511 0.2615
C41 C 0.8997(3) 0.1182(4) 0.3656(3)
C42 C 0.9181(3) 0.1494(3) 0.4341(3)
H41 H 0.9448 0.1141 0.4726
C43 C 0.8978(3) 0.2318(4) 0.4472(3)
H42 H 0.9086 0.2511 0.4940
C44 C 0.9222(3) 0.0273(4) 0.3537(4)
C45 C 0.3929(3) 0.5247(4) 0.3371(3)
C46 C 0.3881(3) 0.6218(3) 0.3534(3)
C47 C 0.3663(3) 0.6845(4) 0.2977(3)
H43 H 0.3543 0.6658 0.2506
C48 C 0.3626(3) 0.7736(4) 0.3123(4)
H44 H 0.3485 0.8154 0.2752
C49 C 0.3801(2) 0.8009(3) 0.3824(3)
C50 C 0.4011(3) 0.7397(3) 0.4370(3)
H45 H 0.4125 0.7584 0.4840
C51 C 0.4053(3) 0.6500(3) 0.4227(3)
H46 H 0.4199 0.6087 0.4601
C52 C 0.2885(3) 0.9155(4) 0.3892(3)
C53 C 0.2426(3) 0.9573(4) 0.3304(3)
H47 H 0.2554 0.9899 0.2996
C54 C 0.1771(3) 0.9505(4) 0.3175(3)
H48 H 0.1456 0.9797 0.2781
C55 C 0.1581(3) 0.9007(3) 0.3625(3)
C56 C 0.2052(3) 0.8637(4) 0.4233(4)
H49 H 0.1930 0.8335 0.4556
C57 C 0.2706(3) 0.8711(4) 0.4367(4)
H50 H 0.3025 0.8461 0.4781
C58 C 0.0863(3) 0.8901(4) 0.3459(3)
Cd2A Cd 0.96052(2) -0.13447(3) 0.32760(2)
Cd2A_2 Cd -0.03948(2) 0.86553(3) 0.32760(2)
O5A O 0.11208(18) 0.4852(3) 0.2025(2)
O6A O 0.0259(2) 0.4968(2) 0.0995(2)
O11A O -0.07185(19) 0.3413(3) 0.1128(2)
O12A O -0.04365(18) 0.4275(3) 0.2080(2)
O13 O 0.02164(18) 0.9793(3) 0.1498(2)
H5 H 0.0281 1.0120 0.1854
H6 H 0.0587 0.9723 0.1482
O14 O 0.2386(2) 0.3957(3) 0.2480(2)
H7 H 0.2648 0.4235 0.2362
H8 H 0.2029 0.4227 0.2345
O15 O 0.4795(2) 0.4753(4) 0.1534(3)
H9 H 0.5173 0.4742 0.1528
H10 H 0.4837 0.4487 0.1906
O16 O 0.44006(18) 0.4508(3) 0.5269(2)
H11 H 0.4366 0.4473 0.4849
H12 H 0.4764 0.4715 0.5539
loop_
_geom_bond_atom_site_label_1
_geom_bond_atom_site_label_2
_geom_bond_site_symmetry_1
_geom_bond_site_symmetry_2
Cd1 N1 1_555 1_555
Cd2 N5 1_555 1_555
S1 O3 1_555 1_555
S2 O9 1_555 1_555
N1 C1 1_555 1_555
N2 H1 1_555 1_555
N3 C6 1_555 1_555
N4 H2 1_555 1_555
N5 C13 1_555 1_555
N6 Cd2 1_555 1_555
N7 H3 1_555 1_555
N8 C21 1_555 1_555
N9 H4 1_555 1_555
N10 Cd1 1_555 1_555
O1 Cd1 1_555 1_555
O2 Cd1 1_555 1_555
O4 S1 1_555 1_555
O5 C44 1_555 1_555
O6 C44 1_555 1_555
O7 Cd1 1_555 1_555
O8 Cd1 1_555 1_555
O10 S2 1_555 1_555
O11 C58 1_555 1_555
O12 C58 1_555 1_555
O13 H5 1_555 1_555
H6 O13 1_555 1_555
O14 H7 1_555 1_555
H8 O14 1_555 1_555
O15 H9 1_555 1_555
H10 O15 1_555 1_555
O16 H11 1_555 1_555
H12 O16 1_555 1_555
C1 H13 1_555 1_555
C2 C1 1_555 1_555
H14 C2 1_555 1_555
C3 N2 1_555 1_555
C4 C3 1_555 1_555
H15 C4 1_555 1_555
C5 N1 1_555 1_555
H16 C5 1_555 1_555
C6 N2 1_555 1_555
C7 C6 1_555 1_555
H17 C7 1_555 1_555
C8 C7 1_555 1_555
H18 C8 1_555 1_555
C9 C8 1_555 1_555
H19 C9 1_555 1_555
C10 N3 1_555 1_555
C11 N4 1_555 1_555
C12 C11 1_555 1_555
H20 C12 1_555 1_555
C13 C12 1_555 1_555
H21 C13 1_555 1_555
C14 N5 1_555 1_555
H22 C14 1_555 1_555
C15 C11 1_555 1_555
H23 C15 1_555 1_555
C16 N6 1_555 1_555
H24 C16 1_555 1_555
C17 C16 1_555 1_555
H25 C17 1_555 1_555
C18 N7 1_555 1_555
C19 C18 1_555 1_555
H26 C19 1_555 1_555
C20 N6 1_555 1_555
H27 C20 1_555 1_555
C21 N7 1_555 1_555
C22 C21 1_555 1_555
H28 C22 1_555 1_555
C23 C22 1_555 1_555
H29 C23 1_555 1_555
C24 C23 1_555 1_555
H30 C24 1_555 1_555
C25 N8 1_555 1_555
C26 N9 1_555 1_555
C27 C26 1_555 1_555
H31 C27 1_555 1_555
C28 N10 1_555 1_555
H32 C28 1_555 1_555
C29 N10 1_555 1_555
H33 C29 1_555 1_555
C30 C26 1_555 1_555
H34 C30 1_555 1_555
C31 O1 1_555 1_555
C32 C31 1_555 1_555
C33 C32 1_555 1_555
H35 C33 1_555 1_555
C34 C33 1_555 1_555
H36 C34 1_555 1_555
C35 S1 1_555 1_555
C36 C35 1_555 1_555
H37 C36 1_555 1_555
C37 C32 1_555 1_555
H38 C37 1_555 1_555
C38 S1 1_555 1_555
C39 C38 1_555 1_555
H39 C39 1_555 1_555
C40 C39 1_555 1_555
H40 C40 1_555 1_555
C41 C40 1_555 1_555
C42 C41 1_555 1_555
H41 C42 1_555 1_555
C43 C38 1_555 1_555
H42 C43 1_555 1_555
C44 C41 1_555 1_555
C45 O7 1_555 1_555
C46 C45 1_555 1_555
C47 C46 1_555 1_555
H43 C47 1_555 1_555
C48 C47 1_555 1_555
H44 C48 1_555 1_555
C49 S2 1_555 1_555
C50 C49 1_555 1_555
H45 C50 1_555 1_555
C51 C46 1_555 1_555
H46 C51 1_555 1_555
C52 S2 1_555 1_555
C53 C52 1_555 1_555
H47 C53 1_555 1_555
C54 C53 1_555 1_555
H48 C54 1_555 1_555
C55 C54 1_555 1_555
C56 C55 1_555 1_555
H49 C56 1_555 1_555
C57 C52 1_555 1_555
H50 C57 1_555 1_555
C58 C55 1_555 1_555
Cd2A O5 1_555 1_555
Cd2A_2 O11 1_555 1_555
O5A Cd2 1_555 1_555
O6A Cd2 1_555 1_555
O11A Cd2 1_555 1_555
O12A Cd2 1_555 1_555
N4 C10 1_555 1_555
N9 C25 1_555 1_555
O2 C31 1_555 1_555
O6 Cd2A 1_555 1_555
O8 C45 1_555 1_555
O12 Cd2A_2 1_555 1_555
C2 C3 1_555 1_555
C4 C5 1_555 1_555
C9 C10 1_555 1_555
C14 C15 1_555 1_555
C17 C18 1_555 1_555
C19 C20 1_555 1_555
C24 C25 1_555 1_555
C27 C28 1_555 1_555
C29 C30 1_555 1_555
C34 C35 1_555 1_555
C36 C37 1_555 1_555
C42 C43 1_555 1_555
C48 C49 1_555 1_555
C50 C51 1_555 1_555
C56 C57 1_555 1_555

#END
