
#######################################################################
#
#                 Cambridge Crystallographic Data Centre
#                                CCDC 
#
#######################################################################
#
# If this CIF has been generated from an entry in the Cambridge 
# Structural Database, then it will include bibliographic, chemical, 
# crystal, experimental, refinement or atomic coordinate data resulting 
# from the CCDC's data processing and validation procedures.
#
#######################################################################

data_SOPPIX
_symmetry_cell_setting           triclinic
_symmetry_space_group_name_H-M   'P -1'
_symmetry_Int_Tables_number      2
_space_group_name_Hall           '-P 1'
loop_
_symmetry_equiv_pos_site_id
_symmetry_equiv_pos_as_xyz
1 x,y,z
2 -x,-y,-z
_cell_length_a                   6.861(3)
_cell_length_b                   7.111(3)
_cell_length_c                   8.659(6)
_cell_angle_alpha                103.485(5)
_cell_angle_beta                 104.530(5)
_cell_angle_gamma                105.581(4)
_cell_volume                     372.892
loop_
_atom_site_label
_atom_site_type_symbol
_atom_site_fract_x
_atom_site_fract_y
_atom_site_fract_z
H1 H 0.404(18) 0.268(17) 0.851(15)
H2 H 0.227(13) 0.294(14) 0.792(12)
Nd1 Nd 0.16745(4) -0.14426(4) 0.85639(4)
C1 C 0.3407(12) 0.0990(11) 1.2273(11)
C2 C 0.0449(12) -0.5722(12) 0.5406(11)
C3 C 0.1175(10) -0.4802(11) 1.0552(9)
C4 C 0.4347(15) 0.199(2) 1.4117(15)
H3 H 0.5884 0.2497 1.4442
H4 H 0.3907 0.1009 1.4668
H5 H 0.3860 0.3121 1.4441
O1 O 0.1566(9) -0.4982(9) 0.6934(8)
O2 O 0.2636(8) -0.3408(8) 1.0439(7)
O3 O 0.0060(9) -0.2461(8) 0.5531(8)
O4 O 0.1392(8) 0.0204(8) 1.1574(7)
O5 O 0.4613(8) 0.0932(8) 1.1397(8)
O6 O 0.2953(9) 0.1919(9) 0.8099(9)
O7 O -0.1425(8) -0.4085(8) 0.8547(8)
H1A H -0.404(18) -1.268(17) 0.149(15)
H2A H -0.227(13) -1.294(14) 0.208(12)
Nd1A Nd -0.16745(4) 0.14426(4) 1.14361(4)
Nd1A_2 Nd 0.83255(4) 0.14426(4) 1.14361(4)
Nd1A_3 Nd -0.16745(4) -0.85574(4) 0.14361(4)
Nd1A_4 Nd -0.16745(4) -0.85574(4) 1.14361(4)
Nd1_2 Nd -0.83255(4) -0.14426(4) 0.85639(4)
C1A C -0.3407(12) -0.0990(11) 0.7727(11)
C2A C -0.0449(12) -0.4278(12) 0.4594(11)
C3A C -0.1175(10) -0.5198(11) 0.9448(9)
C4A C -0.4347(15) -0.199(2) 0.5883(15)
H3A H -0.5884 -0.2497 0.5558
H4A H -0.3907 -0.1009 0.5332
H5A H -0.3860 -0.3121 0.5559
O1A O -0.1566(9) -0.5018(9) 0.3066(8)
O2A O -0.2636(8) -0.6592(8) 0.9561(7)
O2A_2 O -0.2636(8) -0.6592(8) -0.0439(7)
O3A O -0.0060(9) -0.7539(8) 0.4469(8)
O4A O -0.1392(8) -0.0204(8) 0.8426(7)
O4_2 O 0.1392(8) -0.9796(8) 0.1574(7)
O4A_2 O -0.1392(8) -1.0204(8) -0.1574(7)
O5A O 0.5387(8) -0.0932(8) 0.8603(8)
O5A_2 O -0.4613(8) -0.0932(8) 0.8603(8)
O5_2 O -0.5387(8) -0.9068(8) 0.1397(8)
O5A_3 O -0.4613(8) -1.0932(8) -0.1397(8)
O6A O -0.2953(9) -1.1919(9) 0.1901(9)
O7A O 0.1425(8) -0.5915(8) 1.1453(8)
O7A_2 O 0.1425(8) -0.5915(8) 0.1453(8)
loop_
_geom_bond_atom_site_label_1
_geom_bond_atom_site_label_2
_geom_bond_site_symmetry_1
_geom_bond_site_symmetry_2
H1 O6 1_555 1_555
H2 O6 1_555 1_555
Nd1 O1 1_555 1_555
C1 C4 1_555 1_555
C2 O1 1_555 1_555
C3 O2 1_555 1_555
C4 H3 1_555 1_555
H4 C4 1_555 1_555
H5 C4 1_555 1_555
O2 Nd1 1_555 1_555
O3 Nd1 1_555 1_555
O4 Nd1 1_555 1_555
O5 Nd1 1_555 1_555
O6 Nd1 1_555 1_555
O7 Nd1 1_555 1_555
H1A O6A 1_555 1_555
H2A O6A 1_555 1_555
Nd1A O4 1_555 1_555
Nd1A_2 O5 1_555 1_555
Nd1A_3 O1A 1_555 1_555
Nd1A_4 O2A 1_555 1_555
Nd1_2 O5A_2 1_555 1_555
C1A C4A 1_555 1_555
C2A C2 1_555 1_555
C3A C3 1_555 1_555
C4A H3A 1_555 1_555
H4A C4A 1_555 1_555
H5A C4A 1_555 1_555
O1A C2A 1_555 1_555
O2A C3A 1_555 1_555
O2A_2 Nd1A_3 1_555 1_555
O3A C2 1_555 1_555
O4A Nd1 1_555 1_555
O4_2 Nd1A_3 1_555 1_555
O4A_2 Nd1A_3 1_555 1_555
O5A Nd1 1_555 1_555
O5A_2 Nd1A 1_555 1_555
O5_2 Nd1A_3 1_555 1_555
O5A_3 Nd1A_3 1_555 1_555
O6A Nd1A_3 1_555 1_555
O7A C3 1_555 1_555
O7A_2 Nd1A_3 1_555 1_555
C1 O4 1_555 1_555
C1 O5 1_555 1_555
O3 C2A 1_555 1_555
O7 C3A 1_555 1_555
Nd1A O4A 1_555 1_555
Nd1A_2 O5A 1_555 1_555
Nd1A_3 O3A 1_555 1_555
Nd1A_4 O7A 1_555 1_555
C1A O4A 1_555 1_555
C1A O5A_2 1_555 1_555

#END
