
#######################################################################
#
#                 Cambridge Crystallographic Data Centre
#                                CCDC 
#
#######################################################################
#
# If this CIF has been generated from an entry in the Cambridge 
# Structural Database, then it will include bibliographic, chemical, 
# crystal, experimental, refinement or atomic coordinate data resulting 
# from the CCDC's data processing and validation procedures.
#
#######################################################################

data_SOPPOD
_symmetry_cell_setting           tetragonal
_symmetry_space_group_name_H-M   'I 41/a'
_symmetry_Int_Tables_number      88
_space_group_name_Hall           '-I 4ad'
loop_
_symmetry_equiv_pos_site_id
_symmetry_equiv_pos_as_xyz
1 x,y,z
2 1/2-x,-y,1/2+z
3 3/4-y,1/4+x,1/4+z
4 3/4+y,3/4-x,3/4+z
5 1/2+x,1/2+y,1/2+z
6 -x,1/2-y,z
7 1/4-y,3/4+x,3/4+z
8 1/4+y,1/4-x,1/4+z
9 -x,-y,-z
10 1/2+x,y,1/2-z
11 1/4+y,3/4-x,3/4-z
12 1/4-y,1/4+x,1/4-z
13 1/2-x,1/2-y,1/2-z
14 x,1/2+y,-z
15 3/4+y,1/4-x,1/4-z
16 3/4-y,3/4+x,3/4-z
_cell_length_a                   11.5669(16)
_cell_length_b                   11.5669(16)
_cell_length_c                   8.9151(18)
_cell_angle_alpha                90
_cell_angle_beta                 90
_cell_angle_gamma                90
_cell_volume                     1192.78
loop_
_atom_site_label
_atom_site_type_symbol
_atom_site_fract_x
_atom_site_fract_y
_atom_site_fract_z
Tb1 Tb 0.0000 -0.2500 -0.1250
K1 K 0.0000 -0.2500 0.3750
C1 C 0.0047(4) -0.4767(4) 0.0802(5)
O1 O 0.1433(6) -0.4540(5) 0.4194(7)
O2 O 0.0097(4) -0.3690(3) 0.0943(4)
O3 O -0.1991(3) -0.2422(4) -0.0666(4)
Tb1B Tb 0.0000 -0.7500 0.1250
Tb1C Tb -0.5000 -0.2500 -0.3750
K1_2 K 0.0000 -0.2500 -0.6250
K1B K 0.0000 -0.7500 -0.3750
K1C K -0.5000 -0.2500 0.1250
C1H C -0.0047(4) -0.5233(4) -0.0802(5)
C1J C -0.2267(4) -0.2547(4) -0.3302(5)
C1F C -0.2733(4) -0.2453(4) -0.1698(5)
O1E O -0.1433(6) -0.0460(5) 0.4194(7)
O1J O -0.2040(5) -0.3933(6) 0.3306(7)
O1O O 0.2040(5) -0.1067(6) 0.3306(7)
O2E O -0.0097(4) -0.1310(3) 0.0943(4)
O2J O -0.1190(3) -0.2597(4) -0.3443(4)
O2O O 0.1190(3) -0.2403(4) -0.3443(4)
O2J_2 O -0.1190(3) -0.2597(4) 0.6557(4)
O2O_2 O 0.1190(3) -0.2403(4) 0.6557(4)
O2H O -0.0097(4) -0.6310(3) -0.0943(4)
O2F O -0.3810(3) -0.2403(4) -0.1557(4)
O3E O 0.1991(3) -0.2578(4) -0.0666(4)
O3O O -0.0078(4) -0.4491(3) -0.1834(4)
O3J O 0.0078(4) -0.0509(3) -0.1834(4)
O3G O 0.0078(4) -0.5509(3) 0.1834(4)
O3L O -0.3009(3) -0.2578(4) -0.4334(4)
loop_
_geom_bond_atom_site_label_1
_geom_bond_atom_site_label_2
_geom_bond_site_symmetry_1
_geom_bond_site_symmetry_2
Tb1 O2 1_555 1_555
K1 O1 1_555 1_555
C1 O2 1_555 1_555
O2 K1 1_555 1_555
O3 Tb1 1_555 1_555
Tb1B O2H 1_555 1_555
Tb1C O2F 1_555 1_555
K1_2 O2J 1_555 1_555
K1B O2H 1_555 1_555
K1C O2F 1_555 1_555
C1H C1 1_555 1_555
C1J C1F 1_555 1_555
C1F O3 1_555 1_555
O1E K1 1_555 1_555
O1J K1 1_555 1_555
O1O K1 1_555 1_555
O2E Tb1 1_555 1_555
O2J Tb1 1_555 1_555
O2O Tb1 1_555 1_555
O2J_2 K1 1_555 1_555
O2O_2 K1 1_555 1_555
O2H C1H 1_555 1_555
O2F C1F 1_555 1_555
O3E Tb1 1_555 1_555
O3O Tb1 1_555 1_555
O3J Tb1 1_555 1_555
O3G C1 1_555 1_555
O3L Tb1C 1_555 1_555
K1 O2E 1_555 1_555
Tb1B O3G 1_555 1_555
K1_2 O2O 1_555 1_555
C1H O3O 1_555 1_555
C1J O2J 1_555 1_555
C1J O3L 1_555 1_555

#END
