
#######################################################################
#
#                 Cambridge Crystallographic Data Centre
#                                CCDC 
#
#######################################################################
#
# If this CIF has been generated from an entry in the Cambridge 
# Structural Database, then it will include bibliographic, chemical, 
# crystal, experimental, refinement or atomic coordinate data resulting 
# from the CCDC's data processing and validation procedures.
#
#######################################################################

data_SOPQAP
_symmetry_cell_setting           triclinic
_symmetry_space_group_name_H-M   'P -1'
_symmetry_Int_Tables_number      2
_space_group_name_Hall           '-P 1'
loop_
_symmetry_equiv_pos_site_id
_symmetry_equiv_pos_as_xyz
1 x,y,z
2 -x,-y,-z
_cell_length_a                   12.515(3)
_cell_length_b                   12.540(2)
_cell_length_c                   11.610(3)
_cell_angle_alpha                106.18(2)
_cell_angle_beta                 119.15(2)
_cell_angle_gamma                91.14(2)
_cell_volume                     1501.72
loop_
_atom_site_label
_atom_site_type_symbol
_atom_site_fract_x
_atom_site_fract_y
_atom_site_fract_z
O1 O -0.1100(3) 0.0757(3) 0.0548(4)
O2 O 0.0754(3) -0.0493(3) 0.1637(3)
F1 F -0.1581(6) 0.2725(4) 0.1837(7)
F2 F -0.2949(4) 0.1363(4) 0.1050(5)
F3 F -0.1646(5) 0.2034(5) 0.3203(5)
F4 F 0.0798(5) -0.1185(5) 0.4087(6)
F5 F 0.1983(6) 0.0315(4) 0.5058(5)
F6 F 0.2242(5) -0.1048(5) 0.3783(5)
C1 C -0.0954(4) 0.0970(5) 0.1738(5)
C2 C -0.0165(5) 0.0598(5) 0.2802(6)
C3 C 0.0629(5) -0.0125(4) 0.2661(5)
C4 C -0.1798(6) 0.1758(6) 0.1983(7)
C5 C 0.1439(6) -0.0491(5) 0.3902(6)
O3 O 0.3464(3) 0.4817(3) -0.1720(3)
O4 O 0.5394(3) 0.3604(3) -0.0809(3)
F7 F 0.1572(6) 0.4981(5) -0.3923(7)
F8 F 0.1664(5) 0.3651(7) -0.5211(5)
F9 F 0.0933(4) 0.3482(7) -0.4151(6)
F10 F 0.4933(5) 0.1515(4) -0.3686(4)
F11 F 0.6414(3) 0.1970(3) -0.1579(5)
F12 F 0.4682(4) 0.1054(3) -0.2239(5)
C6 C 0.3062(4) 0.4008(4) -0.2815(5)
C7 C 0.3609(5) 0.3087(4) -0.3064(5)
C8 C 0.4727(5) 0.2962(4) -0.2028(5)
C9 C 0.1824(5) 0.4052(5) -0.4026(6)
C10 C 0.5218(5) 0.1881(5) -0.2396(6)
O5 O 0.1465(3) 0.1768(3) 0.1626(4)
O6 O 0.3558(3) 0.3810(4) 0.0339(5)
O7 O -0.3134(4) 0.4157(5) -0.2407(6)
O8 O -0.2434(5) 0.4421(7) -0.3613(6)
N1 N 0.2332(3) 0.2254(3) 0.1552(4)
N2 N 0.3324(3) 0.3195(3) 0.0920(4)
N3 N -0.2338(4) 0.4150(4) -0.2670(5)
C11 C 0.2197(4) 0.2905(4) 0.0758(5)
C12 C 0.3682(4) 0.2255(4) 0.2526(5)
C13 C 0.4259(4) 0.2548(5) 0.1723(6)
C14 C 0.3818(5) 0.1123(5) 0.2750(7)
C15 C 0.4056(5) 0.3204(6) 0.3891(6)
C16 C 0.5542(5) 0.3252(6) 0.2587(8)
C17 C 0.4186(6) 0.1505(6) 0.0601(7)
C18 C 0.1037(4) 0.3234(4) -0.0119(5)
C19 C 0.0868(5) 0.3536(5) -0.1246(6)
C20 C -0.0233(5) 0.3834(6) -0.2075(6)
C21 C -0.1151(4) 0.3832(4) -0.1764(6)
C22 C -0.1013(4) 0.3560(5) -0.0650(6)
C23 C 0.0087(4) 0.3253(4) 0.0182(6)
Cu1 Cu 0.0000 0.0000 0.0000
Cu2 Cu 0.5000 0.5000 0.0000
O1A O 0.1100(3) -0.0757(3) -0.0548(4)
C1A C 0.0954(4) -0.0970(5) -0.1738(5)
C2A C 0.0165(5) -0.0598(5) -0.2802(6)
C3A C -0.0629(5) 0.0125(4) -0.2661(5)
O2A O -0.0754(3) 0.0493(3) -0.1637(3)
O3A O 0.6536(3) 0.5183(3) 0.1720(3)
C6A C 0.6938(4) 0.5992(4) 0.2815(5)
C7A C 0.6391(5) 0.6913(4) 0.3064(5)
C8A C 0.5273(5) 0.7038(4) 0.2028(5)
O4A O 0.4606(3) 0.6396(3) 0.0809(3)
O6A O 0.6442(3) 0.6190(4) -0.0339(5)
N2A N 0.6676(3) 0.6805(3) -0.0920(4)
C11A C 0.7803(4) 0.7095(4) -0.0758(5)
N1A N 0.7668(3) 0.7746(3) -0.1552(4)
O5A O 0.8535(3) 0.8232(3) -0.1626(4)
Cu1A Cu 1.0000 1.0000 0.0000
C12A C 0.6318(4) 0.7745(4) -0.2526(5)
C13A C 0.5741(4) 0.7452(5) -0.1723(6)
C16A C 0.4458(5) 0.6748(6) -0.2587(8)
C17A C 0.5814(6) 0.8495(6) -0.0601(7)
C14A C 0.6182(5) 0.8877(5) -0.2750(7)
C15A C 0.5944(5) 0.6796(6) -0.3891(6)
C18A C 0.8963(4) 0.6766(4) 0.0119(5)
C19A C 0.9132(5) 0.6464(5) 0.1246(6)
C20A C 1.0233(5) 0.6166(6) 0.2075(6)
C21A C 1.1151(4) 0.6168(4) 0.1764(6)
N3A N 1.2338(4) 0.5850(4) 0.2670(5)
O7A O 1.3134(4) 0.5843(5) 0.2407(6)
O8A O 1.2434(5) 0.5579(7) 0.3613(6)
C22A C 1.1013(4) 0.6440(5) 0.0650(6)
C23A C 0.9913(4) 0.6747(4) -0.0182(6)
C10A C 0.4782(5) 0.8119(5) 0.2396(6)
F10A F 0.5067(5) 0.8485(4) 0.3686(4)
F11A F 0.3586(3) 0.8030(3) 0.1579(5)
F12A F 0.5318(4) 0.8946(3) 0.2239(5)
C9A C 0.8176(5) 0.5948(5) 0.4026(6)
F7A F 0.8428(6) 0.5019(5) 0.3923(7)
F8A F 0.8336(5) 0.6349(7) 0.5211(5)
F9A F 0.9067(4) 0.6518(7) 0.4151(6)
O5A_2 O -0.1465(3) -0.1768(3) -0.1626(4)
C5A C -0.1439(6) 0.0491(5) -0.3902(6)
F4A F -0.0798(5) 0.1185(5) -0.4087(6)
F5A F -0.1983(6) -0.0315(4) -0.5058(5)
F6A F -0.2242(5) 0.1048(5) -0.3783(5)
C4A C 0.1798(6) -0.1758(6) -0.1983(7)
F1A F 0.1581(6) -0.2725(4) -0.1837(7)
F2A F 0.2949(4) -0.1363(4) -0.1050(5)
F3A F 0.1646(5) -0.2034(5) -0.3203(5)
loop_
_geom_bond_atom_site_label_1
_geom_bond_atom_site_label_2
_geom_bond_site_symmetry_1
_geom_bond_site_symmetry_2
O1 C1 1_555 1_555
O2 C3 1_555 1_555
F1 C4 1_555 1_555
F2 C4 1_555 1_555
F3 C4 1_555 1_555
F4 C5 1_555 1_555
F5 C5 1_555 1_555
F6 C5 1_555 1_555
C1 C2 1_555 1_555
C2 C3 1_555 1_555
C3 C5 1_555 1_555
C4 C1 1_555 1_555
O3 C6 1_555 1_555
O4 C8 1_555 1_555
F7 C9 1_555 1_555
F8 C9 1_555 1_555
F9 C9 1_555 1_555
F10 C10 1_555 1_555
F11 C10 1_555 1_555
F12 C10 1_555 1_555
C6 C7 1_555 1_555
C7 C8 1_555 1_555
C8 C10 1_555 1_555
C9 C6 1_555 1_555
O5 N1 1_555 1_555
O6 N2 1_555 1_555
O7 N3 1_555 1_555
O8 N3 1_555 1_555
N1 C11 1_555 1_555
N2 C11 1_555 1_555
N3 C21 1_555 1_555
C11 C18 1_555 1_555
C12 N1 1_555 1_555
C13 N2 1_555 1_555
C14 C12 1_555 1_555
C15 C12 1_555 1_555
C16 C13 1_555 1_555
C17 C13 1_555 1_555
C18 C19 1_555 1_555
C19 C20 1_555 1_555
C20 C21 1_555 1_555
C21 C22 1_555 1_555
C22 C23 1_555 1_555
C23 C18 1_555 1_555
Cu1 O1 1_555 1_555
Cu2 O3 1_555 1_555
O1A Cu1 1_555 1_555
C1A O1A 1_555 1_555
C2A C1A 1_555 1_555
C3A C2A 1_555 1_555
O2A Cu1 1_555 1_555
O3A Cu2 1_555 1_555
C6A O3A 1_555 1_555
C7A C6A 1_555 1_555
C8A C7A 1_555 1_555
O4A Cu2 1_555 1_555
O6A Cu2 1_555 1_555
N2A O6A 1_555 1_555
C11A N2A 1_555 1_555
N1A C11A 1_555 1_555
O5A N1A 1_555 1_555
Cu1A O5A 1_555 1_555
C12A N1A 1_555 1_555
C13A N2A 1_555 1_555
C16A C13A 1_555 1_555
C17A C13A 1_555 1_555
C14A C12A 1_555 1_555
C15A C12A 1_555 1_555
C18A C11A 1_555 1_555
C19A C18A 1_555 1_555
C20A C19A 1_555 1_555
C21A C20A 1_555 1_555
N3A C21A 1_555 1_555
O7A N3A 1_555 1_555
O8A N3A 1_555 1_555
C22A C21A 1_555 1_555
C23A C18A 1_555 1_555
C10A C8A 1_555 1_555
F10A C10A 1_555 1_555
F11A C10A 1_555 1_555
F12A C10A 1_555 1_555
C9A C6A 1_555 1_555
F7A C9A 1_555 1_555
F8A C9A 1_555 1_555
F9A C9A 1_555 1_555
O5A_2 Cu1 1_555 1_555
C5A C3A 1_555 1_555
F4A C5A 1_555 1_555
F5A C5A 1_555 1_555
F6A C5A 1_555 1_555
C4A C1A 1_555 1_555
F1A C4A 1_555 1_555
F2A C4A 1_555 1_555
F3A C4A 1_555 1_555
O2 Cu1 1_555 1_555
O4 Cu2 1_555 1_555
O5 Cu1 1_555 1_555
O6 Cu2 1_555 1_555
C12 C13 1_555 1_555
C3A O2A 1_555 1_555
C8A O4A 1_555 1_555
C12A C13A 1_555 1_555
C22A C23A 1_555 1_555

#END
