
#######################################################################
#
#                 Cambridge Crystallographic Data Centre
#                                CCDC 
#
#######################################################################
#
# If this CIF has been generated from an entry in the Cambridge 
# Structural Database, then it will include bibliographic, chemical, 
# crystal, experimental, refinement or atomic coordinate data resulting 
# from the CCDC's data processing and validation procedures.
#
#######################################################################

data_SOPRIZ
_symmetry_cell_setting           triclinic
_symmetry_space_group_name_H-M   'P -1'
_symmetry_Int_Tables_number      2
_space_group_name_Hall           '-P 1'
loop_
_symmetry_equiv_pos_site_id
_symmetry_equiv_pos_as_xyz
1 x,y,z
2 -x,-y,-z
_cell_length_a                   11.580(2)
_cell_length_b                   11.594(2)
_cell_length_c                   15.753(3)
_cell_angle_alpha                92.10(3)
_cell_angle_beta                 99.40(3)
_cell_angle_gamma                111.79(3)
_cell_volume                     1926.54
loop_
_atom_site_label
_atom_site_type_symbol
_atom_site_fract_x
_atom_site_fract_y
_atom_site_fract_z
C1 C 0.4702(8) 0.0443(8) 1.0116(6)
H1 H 0.4839 0.0588 1.0754
H2 H 0.3777 0.0046 0.9897
C2 C 0.5207(9) 0.1694(8) 0.9760(6)
H3 H 0.6144 0.2041 0.9911
H4 H 0.4907 0.2278 1.0042
C3 C 0.3236(7) 0.1749(7) 0.8430(5)
C4 C 0.2910(9) 0.2486(8) 0.8975(7)
H5 H 0.3474 0.2912 0.9498
C5 C 0.1732(10) 0.2601(9) 0.8750(8)
H6 H 0.152 0.314 0.9108
C6 C 0.0890(9) 0.1941(10) 0.8018(7)
H7 H 0.0071 0.1969 0.7894
C7 C 0.1238(10) 0.1235(11) 0.7463(8)
H8 H 0.0672 0.0812 0.6941
C8 C 0.2403(8) 0.1140(9) 0.7662(6)
H9 H 0.2637 0.0657 0.7274
C9 C 0.2674(7) 0.5028(8) 0.6332(5)
H10 H 0.2745 0.5867 0.6552
H11 H 0.2963 0.4633 0.6825
C10 C 0.3492(7) 0.5147(7) 0.5663(5)
H12 H 0.3179 0.5535 0.5175
H13 H 0.3381 0.4297 0.5437
C11 C 0.5230(7) 0.7501(7) 0.6443(6)
C12 C 0.4547(8) 0.8118(8) 0.5986(6)
H14 H 0.3963 0.7714 0.5466
C13 C 0.4709(9) 0.9309(8) 0.6280(7)
H15 H 0.4261 0.974 0.5956
C14 C 0.5528(10) 0.9870(9) 0.7048(8)
H16 H 0.5619 1.0681 0.7265
C15 C 0.6220(10) 0.9266(8) 0.7510(7)
H17 H 0.6803 0.9675 0.8029
C16 C 0.6061(8) 0.8076(7) 0.7216(5)
H18 H 0.6514 0.765 0.7539
C17 C 1.0271(8) 0.9479(8) 0.9974(6)
H19 H 1.1121 0.9828 0.9821
H20 H 1.0353 0.915 1.0542
C18 C 0.9369(8) 0.8419(7) 0.9282(6)
H21 H 0.9483 0.8688 0.8701
H22 H 0.8483 0.8263 0.9332
C19 C 1.1005(7) 0.7160(8) 0.8938(5)
C20 C 1.1571(8) 0.8102(8) 0.8466(6)
H23 H 1.1274 0.8759 0.8385
C21 C 1.2584(9) 0.8094(10) 0.8106(7)
H24 H 1.2974 0.8752 0.7778
C22 C 1.3032(8) 0.7176(10) 0.8209(6)
H25 H 1.3729 0.7195 0.7958
C23 C 1.2463(8) 0.6195(10) 0.8689(7)
H26 H 1.2766 0.554 0.8759
C24 C 1.1446(7) 0.6190(9) 0.9061(6)
H27 H 1.1058 0.5538 0.9394
C25 C 0.1307(7) 0.4239(8) 0.5932(6)
H28 H 0.1218 0.3362 0.5819
H29 H 0.1088 0.4533 0.5368
C26 C 0.0372(7) 0.4283(8) 0.6499(5)
H30 H 0.0598 0.5159 0.6734
H31 H 0.0442 0.3794 0.6993
C27 C 0.8570(7) 0.2146(8) 0.5552(6)
C28 C 0.8129(8) 0.1151(9) 0.6030(8)
H32 H 0.7921 0.1278 0.6575
C29 C 0.7993(10) -0.0019(10) 0.5716(11)
H33 H 0.7696 -0.0709 0.6041
C30 C 0.8304(11) -0.0178(13) 0.4896(11)
H34 H 0.8203 -0.0987 0.4668
C31 C 0.8732(10) 0.0781(12) 0.4445(9)
H35 H 0.8968 0.0653 0.391
C32 C 0.8844(9) 0.1975(10) 0.4734(7)
H36 H 0.9097 0.2648 0.4389
Cu1 Cu 0.60231(9) 0.33504(9) 0.80706(7)
Cu2 Cu 0.60618(9) 0.51404(8) 0.70627(6)
Cu3 Cu 0.80444(8) 0.55371(9) 0.83318(6)
Cu4 Cu 0.75807(9) 0.38953(10) 0.69009(7)
I1 I 0.58274(4) 0.53966(5) 0.87137(3)
I2 I 0.83205(4) 0.33329(5) 0.84648(3)
I3 I 0.51100(4) 0.28156(4) 0.63498(3)
I4 I 0.85058(4) 0.64647(5) 0.68553(3)
S1 S 0.47273(17) 0.16081(17) 0.85917(13)
S2 S 0.51700(16) 0.60469(16) 0.60267(12)
S3 S 0.96308(17) 0.69709(17) 0.93762(13)
S4 S 0.87570(17) 0.36681(19) 0.59162(13)
C1A C 0.5298(8) -0.0443(8) 0.9884(6)
H1A H 0.5161 -0.0588 0.9246
H2A H 0.6223 -0.0046 1.0103
C2A C 0.4793(9) -0.1694(8) 1.0240(6)
H3A H 0.3856 -0.2041 1.0089
H4A H 0.5093 -0.2278 0.9958
C3A C 0.6764(7) -0.1749(7) 1.1570(5)
C4A C 0.7090(9) -0.2486(8) 1.1025(7)
H5A H 0.6526 -0.2912 1.0502
C5A C 0.8268(10) -0.2601(9) 1.1250(8)
H6A H 0.848 -0.314 1.0892
C6A C 0.9110(9) -0.1941(10) 1.1982(7)
H7A H 0.9929 -0.1969 1.2106
C7A C 0.8762(10) -0.1235(11) 1.2537(8)
H8A H 0.9328 -0.0812 1.3059
C8A C 0.7597(8) -0.1140(9) 1.2338(6)
H9A H 0.7363 -0.0657 1.2726
C9_2 C 1.2674(7) 0.5028(8) 0.6332(5)
H10_2 H 1.2745 0.5867 0.6552
H11_2 H 1.2963 0.4633 0.6825
C10_2 C 1.3492(7) 0.5147(7) 0.5663(5)
H12_2 H 1.3179 0.5535 0.5175
H13_2 H 1.3381 0.4297 0.5437
C11_2 C 1.5230(7) 0.7501(7) 0.6443(6)
C12_2 C 1.4547(8) 0.8118(8) 0.5986(6)
H14_2 H 1.3963 0.7714 0.5466
C13_2 C 1.4709(9) 0.9309(8) 0.6280(7)
H15_2 H 1.4261 0.974 0.5956
C14_2 C 1.5528(10) 0.9870(9) 0.7048(8)
H16_2 H 1.5619 1.0681 0.7265
C15_2 C 1.6220(10) 0.9266(8) 0.7510(7)
H17_2 H 1.6803 0.9675 0.8029
C16_2 C 1.6061(8) 0.8076(7) 0.7216(5)
H18_2 H 1.6514 0.765 0.7539
C17A C 0.9729(8) 1.0521(8) 1.0026(6)
H19A H 0.8879 1.0172 1.0179
H20A H 0.9647 1.085 0.9458
C18A C 1.0631(8) 1.1581(7) 1.0718(6)
H21A H 1.0517 1.1312 1.1299
H22A H 1.1517 1.1737 1.0668
C19A C 0.8995(7) 1.2840(8) 1.1062(5)
C20A C 0.8429(8) 1.1898(8) 1.1534(6)
H23A H 0.8726 1.1241 1.1615
C21A C 0.7416(9) 1.1906(10) 1.1894(7)
H24A H 0.7026 1.1248 1.2222
C22A C 0.6968(8) 1.2824(10) 1.1791(6)
H25A H 0.6271 1.2805 1.2042
C23A C 0.7537(8) 1.3805(10) 1.1311(7)
H26A H 0.7234 1.446 1.1241
C24A C 0.8554(7) 1.3810(9) 1.0939(6)
H27A H 0.8942 1.4462 1.0606
C25_2 C 1.1307(7) 0.4239(8) 0.5932(6)
H28_2 H 1.1218 0.3362 0.5819
H29_2 H 1.1088 0.4533 0.5368
C26_2 C 1.0372(7) 0.4283(8) 0.6499(5)
H30_2 H 1.0598 0.5159 0.6734
H31_2 H 1.0442 0.3794 0.6993
C27_2 C -0.1430(7) 0.2146(8) 0.5552(6)
C28_2 C -0.1871(8) 0.1151(9) 0.6030(8)
H32_2 H -0.2079 0.1278 0.6575
C29_2 C -0.2007(10) -0.0019(10) 0.5716(11)
H33_2 H -0.2304 -0.0709 0.6041
C30_2 C -0.1696(11) -0.0178(13) 0.4896(11)
H34_2 H -0.1797 -0.0987 0.4668
C31_2 C -0.1268(10) 0.0781(12) 0.4445(9)
H35_2 H -0.1032 0.0653 0.391
C32_2 C -0.1156(9) 0.1975(10) 0.4734(7)
H36_2 H -0.0903 0.2648 0.4389
Cu1A Cu 0.39769(9) -0.33504(9) 1.19294(7)
Cu2_2 Cu 1.60618(9) 0.51404(8) 0.70627(6)
Cu2A Cu 0.39382(9) -0.51404(8) 1.29373(6)
Cu3A Cu 1.19556(8) 1.44629(9) 1.16682(6)
Cu3A_2 Cu 0.19556(8) -0.55371(9) 1.16682(6)
Cu4_2 Cu -0.24193(9) 0.38953(10) 0.69009(7)
Cu4A Cu 0.24193(9) -0.38953(10) 1.30991(7)
I1A I 0.41726(4) -0.53966(5) 1.12863(3)
I2A I 0.16795(4) -0.33329(5) 1.15352(3)
I3A I 0.48900(4) -0.28156(4) 1.36502(3)
I4A I 0.14942(4) -0.64647(5) 1.31447(3)
S1A S 0.52727(17) -0.16081(17) 1.14083(13)
S2_2 S 1.51700(16) 0.60469(16) 0.60267(12)
S2A S 0.48300(16) -0.60469(16) 1.39733(12)
S3A S 1.03692(17) 1.30291(17) 1.06238(13)
S3A_2 S 0.03692(17) -0.69709(17) 1.06238(13)
S4_2 S -0.12430(17) 0.36681(19) 0.59162(13)
S4A S 0.12430(17) -0.36681(19) 1.40838(13)
loop_
_geom_bond_atom_site_label_1
_geom_bond_atom_site_label_2
_geom_bond_site_symmetry_1
_geom_bond_site_symmetry_2
C1 H1 1_555 1_555
H2 C1 1_555 1_555
C2 C1 1_555 1_555
H3 C2 1_555 1_555
H4 C2 1_555 1_555
C3 C4 1_555 1_555
C4 H5 1_555 1_555
C5 C4 1_555 1_555
H6 C5 1_555 1_555
C6 C5 1_555 1_555
H7 C6 1_555 1_555
C7 C6 1_555 1_555
H8 C7 1_555 1_555
C8 C3 1_555 1_555
H9 C8 1_555 1_555
C9 H10 1_555 1_555
H11 C9 1_555 1_555
C10 C9 1_555 1_555
H12 C10 1_555 1_555
H13 C10 1_555 1_555
C11 C12 1_555 1_555
C12 H14 1_555 1_555
C13 C12 1_555 1_555
H15 C13 1_555 1_555
C14 C13 1_555 1_555
H16 C14 1_555 1_555
C15 C14 1_555 1_555
H17 C15 1_555 1_555
C16 C11 1_555 1_555
H18 C16 1_555 1_555
C17 H19 1_555 1_555
H20 C17 1_555 1_555
C18 C17 1_555 1_555
H21 C18 1_555 1_555
H22 C18 1_555 1_555
C19 C20 1_555 1_555
C20 H23 1_555 1_555
C21 C20 1_555 1_555
H24 C21 1_555 1_555
C22 C21 1_555 1_555
H25 C22 1_555 1_555
C23 C22 1_555 1_555
H26 C23 1_555 1_555
C24 C19 1_555 1_555
H27 C24 1_555 1_555
C25 C9 1_555 1_555
H28 C25 1_555 1_555
H29 C25 1_555 1_555
C26 C25 1_555 1_555
H30 C26 1_555 1_555
H31 C26 1_555 1_555
C27 C28 1_555 1_555
C28 H32 1_555 1_555
C29 C28 1_555 1_555
H33 C29 1_555 1_555
C30 C29 1_555 1_555
H34 C30 1_555 1_555
C31 C30 1_555 1_555
H35 C31 1_555 1_555
C32 C27 1_555 1_555
H36 C32 1_555 1_555
Cu1 I1 1_555 1_555
Cu2 I1 1_555 1_555
Cu3 I1 1_555 1_555
Cu4 I2 1_555 1_555
I2 Cu1 1_555 1_555
I3 Cu1 1_555 1_555
I4 Cu2 1_555 1_555
S1 C2 1_555 1_555
S2 C10 1_555 1_555
S3 C18 1_555 1_555
S4 C27 1_555 1_555
C1A C1 1_555 1_555
H1A C1A 1_555 1_555
H2A C1A 1_555 1_555
C2A C1A 1_555 1_555
H3A C2A 1_555 1_555
H4A C2A 1_555 1_555
C3A C4A 1_555 1_555
C4A H5A 1_555 1_555
C5A C4A 1_555 1_555
H6A C5A 1_555 1_555
C6A C5A 1_555 1_555
H7A C6A 1_555 1_555
C7A C6A 1_555 1_555
H8A C7A 1_555 1_555
C8A C3A 1_555 1_555
H9A C8A 1_555 1_555
C9_2 H10_2 1_555 1_555
H11_2 C9_2 1_555 1_555
C10_2 C9_2 1_555 1_555
H12_2 C10_2 1_555 1_555
H13_2 C10_2 1_555 1_555
C11_2 C12_2 1_555 1_555
C12_2 H14_2 1_555 1_555
C13_2 C12_2 1_555 1_555
H15_2 C13_2 1_555 1_555
C14_2 C13_2 1_555 1_555
H16_2 C14_2 1_555 1_555
C15_2 C14_2 1_555 1_555
H17_2 C15_2 1_555 1_555
C16_2 C11_2 1_555 1_555
H18_2 C16_2 1_555 1_555
C17A C17 1_555 1_555
H19A C17A 1_555 1_555
H20A C17A 1_555 1_555
C18A C17A 1_555 1_555
H21A C18A 1_555 1_555
H22A C18A 1_555 1_555
C19A C20A 1_555 1_555
C20A H23A 1_555 1_555
C21A C20A 1_555 1_555
H24A C21A 1_555 1_555
C22A C21A 1_555 1_555
H25A C22A 1_555 1_555
C23A C22A 1_555 1_555
H26A C23A 1_555 1_555
C24A C19A 1_555 1_555
H27A C24A 1_555 1_555
C25_2 C9_2 1_555 1_555
H28_2 C25_2 1_555 1_555
H29_2 C25_2 1_555 1_555
C26_2 S4 1_555 1_555
H30_2 C26_2 1_555 1_555
H31_2 C26_2 1_555 1_555
C27_2 C28_2 1_555 1_555
C28_2 H32_2 1_555 1_555
C29_2 C28_2 1_555 1_555
H33_2 C29_2 1_555 1_555
C30_2 C29_2 1_555 1_555
H34_2 C30_2 1_555 1_555
C31_2 C30_2 1_555 1_555
H35_2 C31_2 1_555 1_555
C32_2 C27_2 1_555 1_555
H36_2 C32_2 1_555 1_555
Cu1A I1A 1_555 1_555
Cu2_2 S2_2 1_555 1_555
Cu2A I1A 1_555 1_555
Cu3A S3A 1_555 1_555
Cu3A_2 I1A 1_555 1_555
Cu4_2 S4_2 1_555 1_555
Cu4A I2A 1_555 1_555
I2A Cu1A 1_555 1_555
I3A Cu1A 1_555 1_555
I4A Cu2A 1_555 1_555
S1A C2A 1_555 1_555
S2_2 C10_2 1_555 1_555
S2A Cu2A 1_555 1_555
S3A C18A 1_555 1_555
S3A_2 Cu3A_2 1_555 1_555
S4_2 C26 1_555 1_555
S4A Cu4A 1_555 1_555
C3 S1 1_555 1_555
C7 C8 1_555 1_555
C11 S2 1_555 1_555
C15 C16 1_555 1_555
C19 S3 1_555 1_555
C23 C24 1_555 1_555
C31 C32 1_555 1_555
Cu1 S1 1_555 1_555
Cu2 I3 1_555 1_555
Cu2 S2 1_555 1_555
Cu3 I2 1_555 1_555
Cu3 I4 1_555 1_555
Cu3 S3 1_555 1_555
Cu4 I3 1_555 1_555
Cu4 I4 1_555 1_555
Cu4 S4 1_555 1_555
C3A S1A 1_555 1_555
C7A C8A 1_555 1_555
C11_2 S2_2 1_555 1_555
C15_2 C16_2 1_555 1_555
C19A S3A 1_555 1_555
C23A C24A 1_555 1_555
C25_2 C26_2 1_555 1_555
C27_2 S4_2 1_555 1_555
C31_2 C32_2 1_555 1_555
Cu1A S1A 1_555 1_555
Cu2A I3A 1_555 1_555
Cu3A_2 I2A 1_555 1_555
Cu3A_2 I4A 1_555 1_555
Cu4A I3A 1_555 1_555
Cu4A I4A 1_555 1_555

#END
