
#######################################################################
#
#                 Cambridge Crystallographic Data Centre
#                                CCDC 
#
#######################################################################
#
# If this CIF has been generated from an entry in the Cambridge 
# Structural Database, then it will include bibliographic, chemical, 
# crystal, experimental, refinement or atomic coordinate data resulting 
# from the CCDC's data processing and validation procedures.
#
#######################################################################

data_SOPROF
_symmetry_cell_setting           rhombohedral
_symmetry_space_group_name_H-M   'R -3'
_symmetry_Int_Tables_number      148
_space_group_name_Hall           '-R 3'
loop_
_symmetry_equiv_pos_site_id
_symmetry_equiv_pos_as_xyz
1 x,y,z
2 -y,x-y,z
3 -x+y,-x,z
4 2/3+x,1/3+y,1/3+z
5 2/3-y,1/3+x-y,1/3+z
6 2/3-x+y,1/3-x,1/3+z
7 1/3+x,2/3+y,2/3+z
8 1/3-y,2/3+x-y,2/3+z
9 1/3-x+y,2/3-x,2/3+z
10 -x,-y,-z
11 y,-x+y,-z
12 x-y,x,-z
13 1/3-x,2/3-y,2/3-z
14 1/3+y,2/3-x+y,2/3-z
15 1/3+x-y,2/3+x,2/3-z
16 2/3-x,1/3-y,1/3-z
17 2/3+y,1/3-x+y,1/3-z
18 2/3+x-y,1/3+x,1/3-z
_cell_length_a                   25.904(3)
_cell_length_b                   25.904(3)
_cell_length_c                   7.2277(15)
_cell_angle_alpha                90
_cell_angle_beta                 90
_cell_angle_gamma                120
_cell_volume                     4200.15
loop_
_atom_site_label
_atom_site_type_symbol
_atom_site_fract_x
_atom_site_fract_y
_atom_site_fract_z
C1 C -0.21178(14) 0.20948(13) -0.2524(5)
H1 H -0.2544 0.1795 -0.2355
H2 H -0.1961 0.2291 -0.1315
C2 C -0.17951(13) 0.17901(13) -0.3089(5)
C3 C -0.12937(12) 0.32120(12) -0.4088(4)
C4 C -0.11016(14) 0.36258(14) -0.5500(5)
H3 H -0.1370 0.3595 -0.6447
C5 C -0.05114(16) 0.40898(17) -0.5530(6)
H4 H -0.0378 0.4375 -0.6502
C6 C -0.01245(16) 0.41357(16) -0.4165(6)
H5 H 0.0277 0.4453 -0.419
C7 C -0.03125(16) 0.37295(15) -0.2765(6)
H6 H -0.0040 0.376 -0.1828
C8 C -0.09033(14) 0.32626(13) -0.2696(5)
H7 H -0.1036 0.2984 -0.1707
Cu1 Cu -0.363440(16) 0.232620(16) -0.05229(6)
I1 I -0.256430(8) 0.298940(8) 0.08227(3)
S1 S -0.20578(3) 0.26497(3) -0.41767(11)
C1L C -0.45489(14) 0.45719(13) -0.0809(5)
C1B C -0.57874(19) 0.21178(14) -0.2524(5)
C1O C -0.12155(14) 0.12385(13) -0.4143(5)
C1C C -0.54511(14) 0.54281(13) 0.0809(5)
C1Q C -0.75459(19) 0.12155(14) -0.4143(5)
H1L H -0.4123 0.4872 -0.0978
H1B H -0.5661 0.2544 -0.2355
H1O H -0.0789 0.1538 -0.4312
H1C H -0.5877 0.5128 0.0978
H1Q H -0.7672 0.0789 -0.4312
H2L H -0.4706 0.4376 -0.2018
H2B H -0.5748 0.1961 -0.1315
H2O H -0.1372 0.1042 -0.5352
H2C H -0.5294 0.5624 0.2018
H2Q H -0.7585 0.1372 -0.5352
C2L C -0.48716(13) 0.48766(13) -0.0244(5)
C2B C -0.64148(18) 0.17951(13) -0.3089(5)
C2O C -0.15382(13) 0.15432(13) -0.3578(5)
C2C C -0.51284(13) 0.51234(13) 0.0244(5)
C2Q C -0.69185(18) 0.15382(13) -0.3578(5)
C3L C -0.53730(12) 0.34547(12) 0.0755(4)
C3B C -0.54943(17) 0.12937(12) -0.4088(4)
C3O C -0.20396(12) 0.01213(12) -0.2579(4)
C3C C -0.46270(12) 0.65453(12) -0.0755(4)
C3Q C -0.78390(17) 0.20396(12) -0.2579(4)
C4L C -0.55651(14) 0.30409(14) 0.2167(5)
C4B C -0.52726(20) 0.11016(14) -0.5500(5)
C4O C -0.22317(14) -0.02925(14) -0.1167(5)
C4C C -0.44349(14) 0.69591(14) -0.2167(5)
C4Q C -0.80607(20) 0.22317(14) -0.1167(5)
H3L H -0.5297 0.3072 0.3114
H3B H -0.5035 0.1370 -0.6447
H3O H -0.1963 -0.0262 -0.0220
H3C H -0.4703 0.6928 -0.3114
H3Q H -0.8298 0.1963 -0.0220
C5L C -0.61553(16) 0.25769(17) 0.2197(6)
C5B C -0.53988(23) 0.05114(16) -0.5530(6)
C5O C -0.28219(16) -0.07565(17) -0.1137(6)
C5C C -0.38447(16) 0.74231(17) -0.2197(6)
C5Q C -0.79345(23) 0.28219(16) -0.1137(6)
H4L H -0.6289 0.2292 0.3169
H4B H -0.5247 0.0378 -0.6502
H4O H -0.2955 -0.1042 -0.0165
H4C H -0.3711 0.7708 -0.3169
H4Q H -0.8086 0.2955 -0.0165
C6L C -0.65422(16) 0.25310(16) 0.0832(6)
C6B C -0.57398(23) 0.01245(16) -0.4165(6)
C6O C -0.32088(16) -0.08024(16) -0.2502(6)
C6C C -0.34578(16) 0.74690(16) -0.0832(6)
C6Q C -0.75935(23) 0.32088(16) -0.2502(6)
H5L H -0.6944 0.2214 0.085667
H5B H -0.5824 -0.0277 -0.419
H5O H -0.3610 -0.1120 -0.247667
H5C H -0.3056 0.7786 -0.085667
H5Q H -0.7509 0.3610 -0.247667
C7L C -0.63542(16) 0.29372(15) -0.0568(6)
C7B C -0.59580(22) 0.03125(16) -0.2765(6)
C7O C -0.30208(16) -0.03962(15) -0.3902(6)
C7C C -0.36458(16) 0.70628(15) 0.0568(6)
C7Q C -0.73753(22) 0.30208(16) -0.3902(6)
H6L H -0.6627 0.290667 -0.1505
H6B H -0.6200 0.0040 -0.1828
H6O H -0.3293 -0.042667 -0.4839
H6C H -0.3373 0.709333 0.1505
H6Q H -0.7133 0.3293 -0.4839
C8L C -0.57634(14) 0.34041(13) -0.0637(5)
C8B C -0.58341(19) 0.09033(14) -0.2696(5)
C8O C -0.24300(14) 0.00707(13) -0.3971(5)
C8C C -0.42366(14) 0.65959(13) 0.0637(5)
C8Q C -0.74992(19) 0.24300(14) -0.3971(5)
H7L H -0.5631 0.3683 -0.1626
H7B H -0.5980 0.1036 -0.1707
H7O H -0.2297 0.0349 -0.4960
H7C H -0.4369 0.6317 0.1626
H7Q H -0.7353 0.2297 -0.4960
Cu1A Cu -0.232620(16) 0.403940(23) -0.05229(6)
Cu1N Cu -0.262727(23) 0.303227(16) -0.28104(6)
Cu1B Cu -0.403940(23) 0.363440(16) -0.05229(6)
Cu1M Cu -0.434047(16) 0.262727(23) -0.28104(6)
Cu1L Cu -0.303227(16) 0.434047(16) -0.28104(6)
Cu1H Cu -0.070607(23) 0.030107(16) -0.38562(6)
Cu1K Cu -0.596060(23) 0.636560(16) 0.05229(6)
Cu1G Cu -0.899287(16) 0.070607(23) -0.38562(6)
I1B I -0.444630(11) 0.256430(8) 0.08227(3)
I1M I -0.367727(8) 0.222037(11) -0.41560(3)
I1A I -0.298940(8) 0.444630(11) 0.08227(3)
I1N I -0.222037(11) 0.410237(8) -0.41560(3)
I1L I -0.410237(8) 0.367727(8) -0.41560(3)
S1N S -0.13742(4) 0.46089(3) 0.08434(11)
S1M S -0.40170(3) 0.13742(4) 0.08434(11)
S1L S -0.46089(3) 0.40170(3) 0.08434(11)
S1B S -0.52925(4) 0.20578(3) -0.41767(11)
S1A S -0.26497(3) 0.52925(4) -0.41767(11)
S1O S -0.12755(3) 0.06836(3) -0.24900(11)
S1C S -0.53911(3) 0.59830(3) -0.08434(11)
S1Q S -0.80408(4) 0.12755(3) -0.24900(11)
loop_
_geom_bond_atom_site_label_1
_geom_bond_atom_site_label_2
_geom_bond_site_symmetry_1
_geom_bond_site_symmetry_2
C1 H1 1_555 1_555
H2 C1 1_555 1_555
C2 C1 1_555 1_555
C3 C4 1_555 1_555
C4 H3 1_555 1_555
C5 C4 1_555 1_555
H4 C5 1_555 1_555
C6 C5 1_555 1_555
H5 C6 1_555 1_555
C7 C6 1_555 1_555
H6 C7 1_555 1_555
C8 C3 1_555 1_555
H7 C8 1_555 1_555
Cu1 I1 1_555 1_555
I1 Cu1A 1_555 1_555
S1 C1 1_555 1_555
C1L H1L 1_555 1_555
C1B H1B 1_555 1_555
C1O H1O 1_555 1_555
C1C H1C 1_555 1_555
C1Q H1Q 1_555 1_555
H2L C1L 1_555 1_555
H2B C1B 1_555 1_555
H2O C1O 1_555 1_555
H2C C1C 1_555 1_555
H2Q C1Q 1_555 1_555
C2L C1L 1_555 1_555
C2B C1B 1_555 1_555
C2O C2 1_555 1_555
C2C C1C 1_555 1_555
C2Q C1Q 1_555 1_555
C3L C4L 1_555 1_555
C3B C4B 1_555 1_555
C3O C4O 1_555 1_555
C3C C4C 1_555 1_555
C3Q C4Q 1_555 1_555
C4L H3L 1_555 1_555
C4B H3B 1_555 1_555
C4O H3O 1_555 1_555
C4C H3C 1_555 1_555
C4Q H3Q 1_555 1_555
C5L C4L 1_555 1_555
C5B C4B 1_555 1_555
C5O C4O 1_555 1_555
C5C C4C 1_555 1_555
C5Q C4Q 1_555 1_555
H4L C5L 1_555 1_555
H4B C5B 1_555 1_555
H4O C5O 1_555 1_555
H4C C5C 1_555 1_555
H4Q C5Q 1_555 1_555
C6L C5L 1_555 1_555
C6B C5B 1_555 1_555
C6O C5O 1_555 1_555
C6C C5C 1_555 1_555
C6Q C5Q 1_555 1_555
H5L C6L 1_555 1_555
H5B C6B 1_555 1_555
H5O C6O 1_555 1_555
H5C C6C 1_555 1_555
H5Q C6Q 1_555 1_555
C7L C6L 1_555 1_555
C7B C6B 1_555 1_555
C7O C6O 1_555 1_555
C7C C6C 1_555 1_555
C7Q C6Q 1_555 1_555
H6L C7L 1_555 1_555
H6B C7B 1_555 1_555
H6O C7O 1_555 1_555
H6C C7C 1_555 1_555
H6Q C7Q 1_555 1_555
C8L C3L 1_555 1_555
C8B C3B 1_555 1_555
C8O C3O 1_555 1_555
C8C C3C 1_555 1_555
C8Q C3Q 1_555 1_555
H7L C8L 1_555 1_555
H7B C8B 1_555 1_555
H7O C8O 1_555 1_555
H7C C8C 1_555 1_555
H7Q C8Q 1_555 1_555
Cu1A I1A 1_555 1_555
Cu1N I1 1_555 1_555
Cu1B I1B 1_555 1_555
Cu1M I1B 1_555 1_555
Cu1L I1A 1_555 1_555
Cu1H S1O 1_555 1_555
Cu1K S1C 1_555 1_555
Cu1G S1Q 1_555 1_555
I1B Cu1 1_555 1_555
I1M Cu1 1_555 1_555
I1A Cu1B 1_555 1_555
I1N Cu1A 1_555 1_555
I1L Cu1B 1_555 1_555
S1N Cu1A 1_555 1_555
S1M Cu1 1_555 1_555
S1L C1L 1_555 1_555
S1B C1B 1_555 1_555
S1A Cu1L 1_555 1_555
S1O C1O 1_555 1_555
S1C C1C 1_555 1_555
S1Q C1Q 1_555 1_555
C3 S1 1_555 1_555
C7 C8 1_555 1_555
S1 Cu1N 1_555 1_555
C1O C2O 1_555 1_555
C2L C2C 1_555 1_555
C2B C2Q 1_555 1_555
C3L S1L 1_555 1_555
C3B S1B 1_555 1_555
C3O S1O 1_555 1_555
C3C S1C 1_555 1_555
C3Q S1Q 1_555 1_555
C7L C8L 1_555 1_555
C7B C8B 1_555 1_555
C7O C8O 1_555 1_555
C7C C8C 1_555 1_555
C7Q C8Q 1_555 1_555
Cu1N I1M 1_555 1_555
Cu1N I1N 1_555 1_555
Cu1B S1L 1_555 1_555
Cu1M I1M 1_555 1_555
Cu1M I1L 1_555 1_555
Cu1M S1B 1_555 1_555
Cu1L I1N 1_555 1_555
Cu1L I1L 1_555 1_555

#END
