
#######################################################################
#
#                 Cambridge Crystallographic Data Centre
#                                CCDC 
#
#######################################################################
#
# If this CIF has been generated from an entry in the Cambridge 
# Structural Database, then it will include bibliographic, chemical, 
# crystal, experimental, refinement or atomic coordinate data resulting 
# from the CCDC's data processing and validation procedures.
#
#######################################################################

data_SOPVAV
_symmetry_cell_setting           orthorhombic
_symmetry_space_group_name_H-M   'I b a 2'
_symmetry_Int_Tables_number      45
_space_group_name_Hall           'I 2 -2c'
loop_
_symmetry_equiv_pos_site_id
_symmetry_equiv_pos_as_xyz
1 x,y,z
2 -x,-y,z
3 1/2+x,1/2-y,z
4 1/2-x,1/2+y,z
5 1/2+x,1/2+y,1/2+z
6 1/2-x,1/2-y,1/2+z
7 x,-y,1/2+z
8 -x,y,1/2+z
_cell_length_a                   43.256(3)
_cell_length_b                   6.9566(5)
_cell_length_c                   10.6961(7)
_cell_angle_alpha                90
_cell_angle_beta                 90
_cell_angle_gamma                90
_cell_volume                     3218.61
loop_
_atom_site_label
_atom_site_type_symbol
_atom_site_fract_x
_atom_site_fract_y
_atom_site_fract_z
Sb1 Sb -0.154690(8) -0.03892(5) 0.09070(5)
Cu1 Cu -0.028640(18) -0.10371(13) 0.00375(7)
Cu2 Cu -0.222910(16) 0.14510(12) -0.09045(7)
S1 S -0.02347(3) 0.2265(2) 0.06901(14)
S2 S -0.10060(3) 0.0103(3) 0.02189(18)
S3 S -0.15456(4) 0.1717(3) 0.27176(17)
S4 S -0.17428(3) 0.2414(2) -0.03220(15)
S5 S -0.23350(4) -0.1761(2) -0.03211(14)
N1 N -0.02958(11) 0.1564(8) 0.3264(5)
N2 N -0.05896(10) -0.2168(6) 0.1302(4)
N3 N -0.11009(11) -0.2225(7) 0.2110(5)
N4 N -0.22841(12) -0.1525(8) 0.2273(5)
C1 C -0.02690(13) 0.1832(8) 0.2204(5)
C2 C -0.08829(12) -0.1582(8) 0.1316(5)
C3 C -0.05092(14) -0.3453(8) 0.2178(6)
H1 H -0.0305 -0.3871 0.2213
C4 C -0.07201(14) -0.4182(9) 0.3034(7)
H2 H -0.0661 -0.5064 0.3642
C5 C -0.10183(14) -0.3553(9) 0.2949(6)
H3 H -0.1167 -0.4058 0.3485
C6 C -0.18449(17) 0.3339(10) 0.2171(7)
H4 H -0.2039 0.2643 0.2108
H5 H -0.1872 0.4363 0.2776
C7 C -0.17665(14) 0.4201(7) 0.0915(8)
H6 H -0.1570 0.4866 0.0976
H7 H -0.1923 0.5143 0.0696
C8 C -0.23124(12) -0.1617(8) 0.1220(5)
Cu1A Cu 0.028640(18) 0.10371(13) 0.00375(7)
Cu1F Cu -0.028640(18) 0.10371(13) 0.50375(7)
Cu2C Cu -0.277090(16) -0.35490(12) -0.09045(7)
Cu2F Cu -0.222910(16) -0.14510(12) 0.40955(7)
S1A S 0.02347(3) -0.2265(2) 0.06901(14)
S5C S -0.26650(4) 0.3239(2) -0.03211(14)
N1F N -0.02958(11) -0.1564(8) -0.1736(5)
N4F N -0.22841(12) 0.1525(8) -0.2727(5)
loop_
_geom_bond_atom_site_label_1
_geom_bond_atom_site_label_2
_geom_bond_site_symmetry_1
_geom_bond_site_symmetry_2
Sb1 S2 1_555 1_555
Cu1 S1 1_555 1_555
Cu2 S4 1_555 1_555
S1 C1 1_555 1_555
S2 C2 1_555 1_555
S3 Sb1 1_555 1_555
S4 Sb1 1_555 1_555
S5 Cu2 1_555 1_555
N1 C1 1_555 1_555
N2 Cu1 1_555 1_555
N3 C2 1_555 1_555
N4 C8 1_555 1_555
C2 N2 1_555 1_555
C3 N2 1_555 1_555
H1 C3 1_555 1_555
C4 C3 1_555 1_555
H2 C4 1_555 1_555
C5 N3 1_555 1_555
H3 C5 1_555 1_555
C6 S3 1_555 1_555
H4 C6 1_555 1_555
H5 C6 1_555 1_555
C7 S4 1_555 1_555
H6 C7 1_555 1_555
H7 C7 1_555 1_555
C8 S5 1_555 1_555
Cu1A S1 1_555 1_555
Cu1F N1 1_555 1_555
Cu2C S5 1_555 1_555
Cu2F N4 1_555 1_555
S1A Cu1 1_555 1_555
S5C Cu2 1_555 1_555
N1F Cu1 1_555 1_555
N4F Cu2 1_555 1_555
C4 C5 1_555 1_555
C6 C7 1_555 1_555
Cu1A S1A 1_555 1_555

#END
