
#######################################################################
#
#                 Cambridge Crystallographic Data Centre
#                                CCDC 
#
#######################################################################
#
# If this CIF has been generated from an entry in the Cambridge 
# Structural Database, then it will include bibliographic, chemical, 
# crystal, experimental, refinement or atomic coordinate data resulting 
# from the CCDC's data processing and validation procedures.
#
#######################################################################

data_SOQCEH
_symmetry_cell_setting           monoclinic
_symmetry_space_group_name_H-M   'P 21/n'
_symmetry_Int_Tables_number      14
_space_group_name_Hall           '-P 2yn'
loop_
_symmetry_equiv_pos_site_id
_symmetry_equiv_pos_as_xyz
1 x,y,z
2 1/2-x,1/2+y,1/2-z
3 -x,-y,-z
4 1/2+x,1/2-y,1/2+z
_cell_length_a                   11.063(3)
_cell_length_b                   8.123(2)
_cell_length_c                   12.584(3)
_cell_angle_alpha                90
_cell_angle_beta                 96.791(4)
_cell_angle_gamma                90
_cell_volume                     1122.92
loop_
_atom_site_label
_atom_site_type_symbol
_atom_site_fract_x
_atom_site_fract_y
_atom_site_fract_z
C1 C 0.7735(3) 0.2479(4) 0.3445(2)
H1 H 0.8369 0.1692 0.3683
H2 H 0.7777 0.2703 0.2693
C2 C 0.6520(2) 0.1752(4) 0.3579(2)
H3 H 0.6422 0.0714 0.3198
H4 H 0.6469 0.1540 0.4331
C3 C 0.6946(2) 0.4952(3) 0.39961(18)
C4 C 0.5763(2) 0.4418(3) 0.35701(18)
C5 C 0.6948(2) 0.6544(3) 0.43529(18)
C6 C 0.4891(2) 0.5591(3) 0.36215(18)
C7 C 0.3564(2) 0.5467(3) 0.33300(18)
C8 C 0.7976(2) 0.7599(3) 0.48014(19)
Co1 Co 0.38155(3) 0.21910(4) 0.22226(2)
H5 H 0.335(3) 0.073(5) 0.385(3)
H6 H 0.518(4) 0.074(7) 0.113(4)
H7 H 0.469(3) 0.345(5) 0.073(3)
H8 H 0.342(4) -0.039(7) 0.317(4)
H9 H 0.438(3) -0.034(5) 0.123(3)
H10 H 0.389(5) 0.467(8) 0.085(5)
O1 O 0.55618(16) 0.2878(2) 0.31662(15)
O2 O 0.79386(15) 0.3980(2) 0.40480(15)
O3 O 0.31087(15) 0.4120(2) 0.30103(14)
O4 O 0.90247(15) 0.7009(2) 0.48925(15)
O5 O 0.77203(16) 0.9040(2) 0.50556(15)
O6 O 0.37609(17) 0.0470(3) 0.34345(16)
O7 O 0.29560(15) 0.6755(3) 0.34394(14)
O8 O 0.4704(2) 0.0344(3) 0.14964(16)
O9 O 0.4308(2) 0.3828(3) 0.10858(16)
S1 S 0.55108(6) 0.73820(8) 0.41633(5)
Co1A Co 0.11845(3) 0.71910(4) 0.27774(2)
O7A O 0.20440(15) 0.1755(3) 0.15606(14)
loop_
_geom_bond_atom_site_label_1
_geom_bond_atom_site_label_2
_geom_bond_site_symmetry_1
_geom_bond_site_symmetry_2
C1 H1 1_555 1_555
H2 C1 1_555 1_555
C2 C1 1_555 1_555
H3 C2 1_555 1_555
H4 C2 1_555 1_555
C3 C4 1_555 1_555
C4 C6 1_555 1_555
C5 C3 1_555 1_555
C6 C7 1_555 1_555
C7 O3 1_555 1_555
C8 C5 1_555 1_555
Co1 O1 1_555 1_555
H5 O6 1_555 1_555
H6 O8 1_555 1_555
H7 O9 1_555 1_555
H8 O6 1_555 1_555
H9 O8 1_555 1_555
H10 O9 1_555 1_555
O1 C2 1_555 1_555
O2 C1 1_555 1_555
O3 Co1 1_555 1_555
O4 C8 1_555 1_555
O5 C8 1_555 1_555
O6 Co1 1_555 1_555
O7 C7 1_555 1_555
O8 Co1 1_555 1_555
O9 Co1 1_555 1_555
S1 C5 1_555 1_555
Co1A O7 1_555 1_555
O7A Co1 1_555 1_555
C3 O2 1_555 1_555
C4 O1 1_555 1_555
C6 S1 1_555 1_555

#END
