
#######################################################################
#
#                 Cambridge Crystallographic Data Centre
#                                CCDC 
#
#######################################################################
#
# If this CIF has been generated from an entry in the Cambridge 
# Structural Database, then it will include bibliographic, chemical, 
# crystal, experimental, refinement or atomic coordinate data resulting 
# from the CCDC's data processing and validation procedures.
#
#######################################################################

data_SOQCOR
_symmetry_cell_setting           monoclinic
_symmetry_space_group_name_H-M   'P 21/n'
_symmetry_Int_Tables_number      14
_space_group_name_Hall           '-P 2yn'
loop_
_symmetry_equiv_pos_site_id
_symmetry_equiv_pos_as_xyz
1 x,y,z
2 1/2-x,1/2+y,1/2-z
3 -x,-y,-z
4 1/2+x,1/2-y,1/2+z
_cell_length_a                   7.699(3)
_cell_length_b                   16.240(5)
_cell_length_c                   16.724(6)
_cell_angle_alpha                90
_cell_angle_beta                 101.695(5)
_cell_angle_gamma                90
_cell_volume                     2047.62
loop_
_atom_site_label
_atom_site_type_symbol
_atom_site_fract_x
_atom_site_fract_y
_atom_site_fract_z
C1 C 0.0051(6) 0.9077(3) -0.1918(3)
C2 C 0.1088(6) 0.8656(3) -0.1190(3)
C3 C 0.1876(6) 0.7713(3) -0.0015(3)
C4 C 0.1835(6) 0.7110(3) 0.0638(3)
C5 C 0.2816(6) 0.8727(3) -0.0809(3)
C6 C 0.3249(6) 0.8184(3) -0.0125(3)
C7 C 0.5794(7) 0.8998(4) -0.0685(4)
H1 H 0.6108 0.8526 -0.0980
H2 H 0.6583 0.9446 -0.0755
C8 C 0.6065(7) 0.8793(4) 0.0178(4)
H3 H 0.5850 0.9279 0.0481
H4 H 0.7289 0.8629 0.0371
C9 C 0.0875(6) 0.4626(3) 0.2557(3)
H5 H 0.1917 0.4746 0.2928
C10 C -0.0105(7) 0.3970(3) 0.2707(3)
H6 H 0.0274 0.3651 0.3172
C11 C -0.1679(6) 0.3774(3) 0.2166(3)
C12 C -0.2113(6) 0.4244(3) 0.1472(3)
H7 H -0.3123 0.4123 0.1080
C13 C -0.1036(6) 0.4896(3) 0.1359(3)
H8 H -0.1340 0.5202 0.0881
C14 C -0.2863(6) 0.3120(3) 0.2359(3)
C15 C -0.2209(6) 0.2426(3) 0.2789(3)
H9 H -0.0992 0.2343 0.2947
C16 C -0.3382(6) 0.1858(3) 0.2982(3)
H10 H -0.2915 0.1387 0.3262
C17 C -0.5769(6) 0.2605(3) 0.2367(3)
H11 H -0.6991 0.2672 0.2218
C18 C -0.4695(6) 0.3194(3) 0.2139(3)
H12 H -0.5194 0.3646 0.1835
N1 N 0.0409(5) 0.5110(2) 0.1898(2)
N2 N -0.5138(5) 0.1935(2) 0.2797(2)
Ni1 Ni 0.18435(7) 0.61451(3) 0.17663(3)
O1 O -0.1537(4) 0.88301(18) -0.21257(18)
O2 O 0.0757(5) 0.9617(2) -0.2262(2)
O3 O 0.0677(4) 0.65504(19) 0.05463(18)
O4 O 0.2974(4) 0.71627(18) 0.12887(18)
O5 O 0.4908(4) 0.81343(19) 0.03373(19)
O6 O 0.4018(4) 0.9233(2) -0.1029(2)
O7 O 0.3630(4) 0.54049(19) 0.13032(19)
H13 H 0.4446 0.5705 0.1185
H14 H 0.4082 0.5052 0.1660
S1 S 0.00145(15) 0.79117(7) -0.07412(7)
N2A N 0.0138(5) 0.6935(2) 0.2203(2)
Ni1A Ni -0.68435(7) 0.11451(3) 0.32337(3)
Ni1C Ni -0.31565(7) 0.88549(3) -0.32337(3)
O1C O 0.3463(4) 0.61699(18) 0.28743(18)
O8 O 0.2270(5) 0.3969(2) 0.0607(2)
H15 H 0.1805 0.4259 0.0930
H16 H 0.1826 0.3488 0.0576
O9 O 0.5319(6) 0.6311(2) 0.0307(2)
H17 H 0.6040 0.6005 0.0120
H18 H 0.5886 0.6702 0.0581
O10 O 0.449(4) 0.4362(14) 0.4169(15)
H19 H 0.4729 0.3957 0.4495
H20 H 0.5286 0.4404 0.3885
loop_
_geom_bond_atom_site_label_1
_geom_bond_atom_site_label_2
_geom_bond_site_symmetry_1
_geom_bond_site_symmetry_2
C1 C2 1_555 1_555
C2 C5 1_555 1_555
C3 C4 1_555 1_555
C4 O3 1_555 1_555
C5 C6 1_555 1_555
C6 C3 1_555 1_555
C7 H1 1_555 1_555
H2 C7 1_555 1_555
C8 C7 1_555 1_555
H3 C8 1_555 1_555
H4 C8 1_555 1_555
C9 H5 1_555 1_555
C10 C9 1_555 1_555
H6 C10 1_555 1_555
C11 C10 1_555 1_555
C12 C11 1_555 1_555
H7 C12 1_555 1_555
C13 C12 1_555 1_555
H8 C13 1_555 1_555
C14 C11 1_555 1_555
C15 C14 1_555 1_555
H9 C15 1_555 1_555
C16 C15 1_555 1_555
H10 C16 1_555 1_555
C17 H11 1_555 1_555
C18 C14 1_555 1_555
H12 C18 1_555 1_555
N1 C9 1_555 1_555
N2 C16 1_555 1_555
Ni1 N1 1_555 1_555
O1 C1 1_555 1_555
O2 C1 1_555 1_555
O3 Ni1 1_555 1_555
O4 C4 1_555 1_555
O5 C6 1_555 1_555
O6 C5 1_555 1_555
O7 Ni1 1_555 1_555
H13 O7 1_555 1_555
H14 O7 1_555 1_555
O8 H15 1_555 1_555
H16 O8 1_555 1_555
O9 H17 1_555 1_555
H18 O9 1_555 1_555
O10 H19 1_555 1_555
H20 O10 1_555 1_555
S1 C2 1_555 1_555
N2A Ni1 1_555 1_555
Ni1A N2 1_555 1_555
Ni1C O1 1_555 1_555
O1C Ni1 1_555 1_555
C3 S1 1_555 1_555
C7 O6 1_555 1_555
C8 O5 1_555 1_555
C13 N1 1_555 1_555
C17 C18 1_555 1_555
C17 N2 1_555 1_555
Ni1 O4 1_555 1_555

#END
