
#######################################################################
#
#                 Cambridge Crystallographic Data Centre
#                                CCDC 
#
#######################################################################
#
# If this CIF has been generated from an entry in the Cambridge 
# Structural Database, then it will include bibliographic, chemical, 
# crystal, experimental, refinement or atomic coordinate data resulting 
# from the CCDC's data processing and validation procedures.
#
#######################################################################

data_SOQDUZ
_symmetry_cell_setting           triclinic
_symmetry_space_group_name_H-M   'P -1'
_symmetry_Int_Tables_number      2
_space_group_name_Hall           '-P 1'
loop_
_symmetry_equiv_pos_site_id
_symmetry_equiv_pos_as_xyz
1 x,y,z
2 -x,-y,-z
_cell_length_a                   6.9962(10)
_cell_length_b                   7.3291(10)
_cell_length_c                   12.2811(17)
_cell_angle_alpha                82.446(7)
_cell_angle_beta                 75.431(7)
_cell_angle_gamma                61.970(7)
_cell_volume                     537.92
loop_
_atom_site_label
_atom_site_type_symbol
_atom_site_fract_x
_atom_site_fract_y
_atom_site_fract_z
Cd1 Cd 0.5000 0.5000 0.0000
O1 O 0.1905(6) 0.4840(4) 0.3016(3)
O2 O 0.4471(4) 0.2912(3) 0.15877(18)
O3 O 0.6216(4) -0.1192(4) 0.18666(19)
H1 H 0.5891 -0.0224 0.1485
O4 O 0.7625(5) 0.5214(4) 0.0631(3)
N1 N 0.1094(4) 0.0488(4) 0.6183(2)
C1 C 0.3522(5) 0.1276(4) 0.3283(2)
C2 C 0.4919(5) -0.0738(4) 0.2903(2)
C3 C 0.5026(6) -0.2407(5) 0.3625(3)
H2 H 0.5943 -0.3748 0.3367
C4 C 0.3801(6) -0.2103(5) 0.4708(3)
H3 H 0.3881 -0.3226 0.5181
C5 C 0.2422(5) -0.0076(4) 0.5098(2)
C6 C 0.2284(5) 0.1577(4) 0.4383(2)
H4 H 0.1346 0.2915 0.4641
C7 C 0.3331(5) 0.3100(4) 0.2548(3)
H5 H 0.7517 0.6291 0.0794
H6 H 0.8518 0.4251 0.0881
N2 N -0.2553(4) 0.1889(4) 0.9216(2)
N3 N -0.1448(4) 0.1852(4) 0.8160(2)
C8 C -0.0244(4) -0.0135(4) 0.7914(2)
N4 N -0.2041(4) -0.0003(4) 0.9593(2)
H7 H -0.2563 -0.0342 1.0256
N5 N -0.0580(4) -0.1318(4) 0.8783(2)
N6 N 0.1192(4) -0.0964(4) 0.6877(2)
O1A O -0.1905(6) 0.5160(4) 0.6984(3)
O2A O -0.4471(4) 0.7088(3) 0.84123(18)
O3A O -0.6216(4) 1.1192(4) 0.81334(19)
H1A H -0.5891 1.0224 0.8515
N1A N -0.1094(4) 0.9512(4) 0.3817(2)
C1A C -0.3522(5) 0.8724(4) 0.6717(2)
C2A C -0.4919(5) 1.0738(4) 0.7097(2)
C3A C -0.5026(6) 1.2407(5) 0.6375(3)
H2A H -0.5943 1.3748 0.6633
C4A C -0.3801(6) 1.2103(5) 0.5292(3)
H3A H -0.3881 1.3226 0.4819
C5A C -0.2422(5) 1.0076(4) 0.4902(2)
C6A C -0.2284(5) 0.8423(4) 0.5617(2)
H4A H -0.1346 0.7085 0.5359
C7A C -0.3331(5) 0.6900(4) 0.7452(3)
N2A N 0.2553(4) 0.8111(4) 0.0784(2)
N3A N 0.1448(4) 0.8148(4) 0.1840(2)
C8A C 0.0244(4) 1.0135(4) 0.2086(2)
N4A N 0.2041(4) 1.0003(4) 0.0407(2)
H7A H 0.2563 1.0342 -0.0256
N5A N 0.0580(4) 1.1318(4) 0.1217(2)
N6A N -0.1192(4) 1.0964(4) 0.3123(2)
O4A O 0.2375(5) 0.4786(4) -0.0631(3)
H5A H 0.2483 0.3709 -0.0794
H6A H 0.1482 0.5749 -0.0881
Cd1_2 Cd -0.5000 0.5000 1.0000
O2A_2 O 0.5529(4) 0.7088(3) -0.15877(18)
N2_2 N 0.7447(4) 0.1889(4) -0.0784(2)
loop_
_geom_bond_atom_site_label_1
_geom_bond_atom_site_label_2
_geom_bond_site_symmetry_1
_geom_bond_site_symmetry_2
Cd1 O2 1_555 1_555
O1 C7 1_555 1_555
O2 C7 1_555 1_555
O3 H1 1_555 1_555
O4 Cd1 1_555 1_555
N1 C5 1_555 1_555
C1 C2 1_555 1_555
C2 O3 1_555 1_555
C3 C2 1_555 1_555
H2 C3 1_555 1_555
C4 C3 1_555 1_555
H3 C4 1_555 1_555
C5 C4 1_555 1_555
C6 C1 1_555 1_555
H4 C6 1_555 1_555
C7 C1 1_555 1_555
H5 O4 1_555 1_555
H6 O4 1_555 1_555
N2 N3 1_555 1_555
N3 C8 1_555 1_555
C8 N5 1_555 1_555
N4 N2 1_555 1_555
H7 N4 1_555 1_555
N5 N4 1_555 1_555
N6 N1 1_555 1_555
O1A C7A 1_555 1_555
O2A C7A 1_555 1_555
O3A H1A 1_555 1_555
N1A C5A 1_555 1_555
C1A C2A 1_555 1_555
C2A O3A 1_555 1_555
C3A C2A 1_555 1_555
H2A C3A 1_555 1_555
C4A C3A 1_555 1_555
H3A C4A 1_555 1_555
C5A C4A 1_555 1_555
C6A C1A 1_555 1_555
H4A C6A 1_555 1_555
C7A C1A 1_555 1_555
N2A Cd1 1_555 1_555
N3A N2A 1_555 1_555
C8A N3A 1_555 1_555
N4A N2A 1_555 1_555
H7A N4A 1_555 1_555
N5A C8A 1_555 1_555
N6A N1A 1_555 1_555
O4A Cd1 1_555 1_555
H5A O4A 1_555 1_555
H6A O4A 1_555 1_555
Cd1_2 N2 1_555 1_555
O2A_2 Cd1 1_555 1_555
N2_2 Cd1 1_555 1_555
C5 C6 1_555 1_555
C8 N6 1_555 1_555
O2A Cd1_2 1_555 1_555
C5A C6A 1_555 1_555
C8A N6A 1_555 1_555
N4A N5A 1_555 1_555

#END
