
#######################################################################
#
#                 Cambridge Crystallographic Data Centre
#                                CCDC 
#
#######################################################################
#
# If this CIF has been generated from an entry in the Cambridge 
# Structural Database, then it will include bibliographic, chemical, 
# crystal, experimental, refinement or atomic coordinate data resulting 
# from the CCDC's data processing and validation procedures.
#
#######################################################################

data_SOQDEI
_symmetry_cell_setting           monoclinic
_symmetry_space_group_name_H-M   'P 21'
_symmetry_Int_Tables_number      4
_space_group_name_Hall           'P 2yb'
loop_
_symmetry_equiv_pos_site_id
_symmetry_equiv_pos_as_xyz
1 x,y,z
2 -x,1/2+y,-z
_cell_length_a                   10.176(2)
_cell_length_b                   18.448(4)
_cell_length_c                   11.719(2)
_cell_angle_alpha                90
_cell_angle_beta                 104.389(4)
_cell_angle_gamma                90
_cell_volume                     2130.96
loop_
_atom_site_label
_atom_site_type_symbol
_atom_site_fract_x
_atom_site_fract_y
_atom_site_fract_z
C1 C 1.0327(7) 0.1082(4) 1.0656(7)
C2 C 0.9278(7) 0.1661(4) 1.0156(7)
C3 C 0.7957(7) 0.1545(4) 0.9618(7)
C4 C 0.6158(7) 0.0908(4) 0.8528(7)
H1 H 0.5676 0.0453 0.8512
H2 H 0.6408 0.0951 0.7784
C5 C 0.5214(7) 0.1508(4) 0.8608(7)
H3 H 0.4444 0.1498 0.7927
H4 H 0.4879 0.1448 0.9308
C6 C 0.7242(7) 0.2197(4) 0.9232(6)
C7 C 0.8021(7) 0.2777(4) 0.9415(7)
C8 C 0.7729(6) 0.3584(5) 0.9136(6)
C9 C -0.5518(7) 1.2448(4) 0.4997(7)
C10 C -0.4361(8) 1.1949(4) 0.5337(7)
C11 C -0.3007(7) 1.2081(4) 0.5806(7)
C12 C -0.1071(7) 1.2776(4) 0.6480(7)
H5 H -0.0766 1.3184 0.7000
H6 H -0.0781 1.2856 0.5762
C13 C -0.0450(8) 1.2119(5) 0.7041(7)
H7 H -0.0699 1.2057 0.7782
H8 H 0.0529 1.2171 0.7218
C14 C -0.2210(8) 1.1413(4) 0.5907(7)
C15 C -0.2900(7) 1.0852(4) 0.5502(6)
C16 C -0.2572(6) 1.0080(5) 0.5455(6)
C17 C 0.8355(9) 0.5293(5) 1.1633(7)
H9 H 0.9017 0.5559 1.1394
C18 C 0.8419(9) 0.5264(5) 1.2784(7)
H10 H 0.9115 0.5501 1.3319
C19 C 0.7451(7) 0.4880(4) 1.3185(6)
C20 C 0.6460(8) 0.4538(4) 1.2318(7)
H11 H 0.5788 0.4266 1.2531
C21 C 0.6465(7) 0.4599(5) 1.1146(7)
H12 H 0.5781 0.4372 1.0584
C22 C 0.6792(7) 0.4437(4) 1.6156(7)
H13 H 0.6285 0.4111 1.6478
C23 C 0.6769(7) 0.4359(4) 1.4932(7)
H14 H 0.6303 0.3982 1.4478
C24 C 0.7483(6) 0.4879(4) 1.4454(6)
C25 C 0.8061(7) 0.5436(5) 1.5169(6)
H15 H 0.8445 0.5817 1.4845
C26 C 0.8099(8) 0.5458(4) 1.6339(7)
H16 H 0.8555 0.5835 1.6797
C27 C -0.3385(8) 0.8285(4) 1.2701(7)
H17 H -0.4072 0.8044 1.2942
C28 C -0.3458(7) 0.8310(4) 1.1529(6)
H18 H -0.4185 0.8098 1.0992
C29 C -0.2422(7) 0.8661(4) 1.1134(6)
C30 C -0.1406(8) 0.9018(4) 1.2009(7)
H19 H -0.0725 0.9287 1.1805
C31 C -0.1464(8) 0.8952(4) 1.3171(7)
H20 H -0.0792 0.9189 1.3730
C32 C -0.2877(7) 0.8071(4) 0.7980(6)
H21 H -0.3163 0.7666 0.7511
C33 C -0.2983(9) 0.8073(5) 0.9164(7)
H22 H -0.3383 0.7690 0.9469
C34 C -0.2458(7) 0.8678(4) 0.9861(6)
C35 C -0.1903(7) 0.9233(5) 0.9370(7)
H23 H -0.1544 0.9633 0.9824
C36 C -0.1873(7) 0.9200(4) 0.8192(6)
H24 H -0.1488 0.9584 0.7876
C37 C 0.4142(7) 0.5412(4) 0.8089(7)
H25 H 0.4051 0.4919 0.8218
C38 C 0.2989(8) 0.5826(4) 0.7738(7)
H26 H 0.2141 0.5610 0.7632
C39 C 0.3083(8) 0.6544(4) 0.7545(7)
C40 C 0.4389(7) 0.6854(4) 0.7764(7)
H27 H 0.4510 0.7351 0.7710
C41 C 0.5496(7) 0.6378(4) 0.8066(6)
H28 H 0.6360 0.6567 0.8136
C42 C 0.1879(7) 0.7027(4) 0.7114(6)
C43 C 0.0738(7) 0.6747(4) 0.6373(7)
H29 H 0.0710 0.6261 0.6157
C44 C -0.0369(7) 0.7187(4) 0.5945(7)
H30 H -0.1143 0.6984 0.5456
C45 C 0.0729(6) 0.8158(4) 0.6940(6)
H31 H 0.0740 0.8641 0.7169
C46 C 0.1861(7) 0.7735(4) 0.7375(7)
H32 H 0.2630 0.7945 0.7860
Cd1 Cd 0.75730(5) 0.50419(8) 0.88189(4)
Cd2 Cd -0.24962(5) 0.85364(8) 0.55065(4)
N1 N 0.7395(6) 0.4964(5) 1.0796(5)
N2 N 0.7485(6) 0.4940(4) 1.6855(6)
N3 N -0.2354(6) 0.8596(5) 1.3561(5)
N4 N -0.2360(6) 0.8657(4) 0.7514(5)
N5 N 0.5388(7) 0.5688(3) 0.8254(5)
N6 N -0.0379(6) 0.7892(4) 0.6201(5)
O1 O 1.0042(5) 0.0482(3) 1.0807(5)
O2 O 1.1560(5) 0.1307(3) 1.0816(5)
O3 O 0.8741(5) 0.3971(3) 0.9224(5)
O4 O 0.6548(5) 0.3782(3) 0.8813(5)
O5 O 0.7343(5) 0.0873(3) 0.9429(4)
O6 O 0.5885(4) 0.2172(3) 0.8656(4)
O7 O -0.6689(5) 1.2211(3) 0.4736(5)
O8 O -0.5301(5) 1.3100(3) 0.4981(5)
O9 O -0.3496(6) 0.9621(3) 0.5282(5)
O10 O -0.1333(5) 0.9880(3) 0.5668(5)
O11 O -0.2512(5) 1.2740(3) 0.6205(4)
O12 O -0.0838(4) 1.1472(3) 0.6330(4)
S1 S 0.96660(17) 0.25566(12) 1.01478(16)
S2 S -0.46418(16) 1.10332(12) 0.50247(16)
Cd1_2 Cd 0.75730(5) 0.50419(8) 1.88189(4)
Cd1A Cd 1.24270(5) 0.00419(8) 1.11811(4)
Cd2_2 Cd -0.24962(5) 0.85364(8) 1.55065(4)
Cd2A Cd -0.75038(5) 1.35364(8) 0.44935(4)
N2_2 N 0.7485(6) 0.4940(4) 0.6855(6)
N3_2 N -0.2354(6) 0.8596(5) 0.3561(5)
O1A O 0.9958(5) 0.5482(3) 0.9193(5)
O2A O 0.8440(5) 0.6307(3) 0.9184(5)
O7A O -0.3311(5) 0.7211(3) 0.5264(5)
O8A O -0.4699(5) 0.8100(3) 0.5019(5)
loop_
_geom_bond_atom_site_label_1
_geom_bond_atom_site_label_2
_geom_bond_site_symmetry_1
_geom_bond_site_symmetry_2
C1 C2 1_555 1_555
C2 C3 1_555 1_555
C3 C6 1_555 1_555
C4 H1 1_555 1_555
H2 C4 1_555 1_555
C5 C4 1_555 1_555
H3 C5 1_555 1_555
H4 C5 1_555 1_555
C6 C7 1_555 1_555
C7 C8 1_555 1_555
C8 O3 1_555 1_555
C9 C10 1_555 1_555
C10 C11 1_555 1_555
C11 C14 1_555 1_555
C12 H5 1_555 1_555
H6 C12 1_555 1_555
C13 C12 1_555 1_555
H7 C13 1_555 1_555
H8 C13 1_555 1_555
C14 C15 1_555 1_555
C15 C16 1_555 1_555
C16 O9 1_555 1_555
C17 H9 1_555 1_555
C18 C17 1_555 1_555
H10 C18 1_555 1_555
C19 C18 1_555 1_555
C20 C19 1_555 1_555
H11 C20 1_555 1_555
C21 C20 1_555 1_555
H12 C21 1_555 1_555
C22 H13 1_555 1_555
C23 C22 1_555 1_555
H14 C23 1_555 1_555
C24 C19 1_555 1_555
C25 C24 1_555 1_555
H15 C25 1_555 1_555
C26 C25 1_555 1_555
H16 C26 1_555 1_555
C27 H17 1_555 1_555
C28 C27 1_555 1_555
H18 C28 1_555 1_555
C29 C28 1_555 1_555
C30 C29 1_555 1_555
H19 C30 1_555 1_555
C31 C30 1_555 1_555
H20 C31 1_555 1_555
C32 H21 1_555 1_555
C33 C32 1_555 1_555
H22 C33 1_555 1_555
C34 C29 1_555 1_555
C35 C34 1_555 1_555
H23 C35 1_555 1_555
C36 C35 1_555 1_555
H24 C36 1_555 1_555
C37 H25 1_555 1_555
C38 C37 1_555 1_555
H26 C38 1_555 1_555
C39 C38 1_555 1_555
C40 C39 1_555 1_555
H27 C40 1_555 1_555
C41 C40 1_555 1_555
H28 C41 1_555 1_555
C42 C39 1_555 1_555
C43 C42 1_555 1_555
H29 C43 1_555 1_555
C44 C43 1_555 1_555
H30 C44 1_555 1_555
C45 H31 1_555 1_555
C46 C42 1_555 1_555
H32 C46 1_555 1_555
Cd1 N1 1_555 1_555
Cd2 N4 1_555 1_555
N1 C17 1_555 1_555
N2 C22 1_555 1_555
N3 C27 1_555 1_555
N4 C32 1_555 1_555
N5 C37 1_555 1_555
N6 C44 1_555 1_555
O1 C1 1_555 1_555
O2 C1 1_555 1_555
O3 Cd1 1_555 1_555
O4 C8 1_555 1_555
O5 C3 1_555 1_555
O6 C5 1_555 1_555
O7 C9 1_555 1_555
O8 C9 1_555 1_555
O9 Cd2 1_555 1_555
O10 C16 1_555 1_555
O11 C11 1_555 1_555
O12 C13 1_555 1_555
S1 C2 1_555 1_555
S2 C10 1_555 1_555
Cd1_2 N2 1_555 1_555
Cd1A O1 1_555 1_555
Cd2_2 N3 1_555 1_555
Cd2A O7 1_555 1_555
N2_2 Cd1 1_555 1_555
N3_2 Cd2 1_555 1_555
O1A Cd1 1_555 1_555
O2A Cd1 1_555 1_555
O7A Cd2 1_555 1_555
O8A Cd2 1_555 1_555
C4 O5 1_555 1_555
C6 O6 1_555 1_555
C7 S1 1_555 1_555
C12 O11 1_555 1_555
C14 O12 1_555 1_555
C15 S2 1_555 1_555
C21 N1 1_555 1_555
C23 C24 1_555 1_555
C26 N2 1_555 1_555
C31 N3 1_555 1_555
C33 C34 1_555 1_555
C36 N4 1_555 1_555
C41 N5 1_555 1_555
C45 C46 1_555 1_555
C45 N6 1_555 1_555
Cd1 N5 1_555 1_555
Cd1 O4 1_555 1_555
Cd2 N6 1_555 1_555
Cd2 O10 1_555 1_555
O2 Cd1A 1_555 1_555
O8 Cd2A 1_555 1_555

#END
