
#######################################################################
#
#                 Cambridge Crystallographic Data Centre
#                                CCDC 
#
#######################################################################
#
# If this CIF has been generated from an entry in the Cambridge 
# Structural Database, then it will include bibliographic, chemical, 
# crystal, experimental, refinement or atomic coordinate data resulting 
# from the CCDC's data processing and validation procedures.
#
#######################################################################

data_SOQHIR
_symmetry_cell_setting           triclinic
_symmetry_space_group_name_H-M   'P -1'
_symmetry_Int_Tables_number      2
_space_group_name_Hall           '-P 1'
loop_
_symmetry_equiv_pos_site_id
_symmetry_equiv_pos_as_xyz
1 x,y,z
2 -x,-y,-z
_cell_length_a                   8.8300(9)
_cell_length_b                   10.2225(11)
_cell_length_c                   10.2870(12)
_cell_angle_alpha                66.855(11)
_cell_angle_beta                 74.036(10)
_cell_angle_gamma                75.820(9)
_cell_volume                     810.992
loop_
_atom_site_label
_atom_site_type_symbol
_atom_site_fract_x
_atom_site_fract_y
_atom_site_fract_z
Tb1 Tb 0.83723(5) 0.91225(4) -0.03855(5)
O1 O 0.6171(6) 0.7709(5) 0.0925(7)
O2 O 0.8472(7) 0.6574(5) 0.0103(7)
O3 O 0.8914(6) 0.1354(6) 0.0643(7)
O4 O 0.6658(6) 0.0767(5) 0.0723(6)
O5 O 0.4636(8) 0.2688(7) 0.5537(9)
H1 H 0.5467 0.1992 0.5975
O6 O 0.3775(7) 0.0667(6) 0.5955(7)
O7 O 0.1259(7) 0.1852(6) 0.7996(7)
O8 O -0.0927(7) 0.1248(6) 0.7762(7)
O9 O 0.6210(6) 1.0258(6) -0.1721(7)
H2 H 0.5774 1.1057 -0.1610
H3 H 0.5556 0.9659 -0.1352
O10 O 0.9265(7) 0.8612(6) -0.2692(7)
H4 H 0.9685 0.7739 -0.2560
H5 H 0.8341 0.8801 -0.2883
C1 C 0.7006(11) 0.6569(9) 0.0757(10)
C2 C 0.6319(10) 0.5197(8) 0.1318(9)
C3 C 0.7225(10) 0.3967(8) 0.1054(10)
H6 H 0.8304 0.3958 0.0638
C4 C 0.6537(10) 0.2764(8) 0.1409(10)
C5 C 0.7410(10) 0.1541(8) 0.0929(10)
C6 C 0.4971(10) 0.2743(8) 0.2161(9)
H7 H 0.4511 0.1926 0.2423
C7 C 0.4069(10) 0.3926(8) 0.2536(10)
C8 C 0.4727(10) 0.5159(8) 0.2048(10)
H8 H 0.4111 0.5981 0.2208
C9 C 0.2424(9) 0.3812(7) 0.3437(10)
C10 C 0.2168(10) 0.2883(8) 0.4882(10)
C11 C 0.3567(11) 0.2010(10) 0.5520(10)
C12 C 0.0607(10) 0.2730(8) 0.5678(10)
C13 C 0.0332(10) 0.1840(8) 0.7282(10)
C14 C -0.0687(10) 0.3458(8) 0.5015(9)
H9 H -0.1715 0.3310 0.5526
C15 C -0.0449(10) 0.4395(8) 0.3606(10)
H10 H -0.1319 0.4910 0.3181
C16 C 0.1094(10) 0.4571(8) 0.2824(11)
H11 H 0.1244 0.5204 0.1875
Tb1_2 Tb -0.16277(5) -0.08775(4) 0.96145(5)
Tb1_3 Tb 0.83723(5) -0.08775(4) -0.03855(5)
Tb1A Tb 0.16277(5) 0.08775(4) 1.03855(5)
Tb1A_2 Tb 1.16277(5) 0.08775(4) 0.03855(5)
O3A O 1.1086(6) 0.8646(6) -0.0643(7)
O4_2 O 0.6658(6) 1.0767(5) 0.0723(6)
O7A O 0.8741(7) 0.8148(6) 0.2004(7)
O8_2 O 0.9073(7) 1.1248(6) -0.2238(7)
O11 O 0.2229(8) 0.9198(7) 0.5091(8)
H12 H 0.1287 0.9026 0.5506
H13 H 0.2387 0.9948 0.5172
loop_
_geom_bond_atom_site_label_1
_geom_bond_atom_site_label_2
_geom_bond_site_symmetry_1
_geom_bond_site_symmetry_2
Tb1 O1 1_555 1_555
O1 C1 1_555 1_555
O2 Tb1 1_555 1_555
O3 C5 1_555 1_555
O4 C5 1_555 1_555
O5 H1 1_555 1_555
O6 C11 1_555 1_555
O7 C13 1_555 1_555
O8 C13 1_555 1_555
O9 Tb1 1_555 1_555
H2 O9 1_555 1_555
H3 O9 1_555 1_555
O10 Tb1 1_555 1_555
H4 O10 1_555 1_555
H5 O10 1_555 1_555
C1 O2 1_555 1_555
C2 C1 1_555 1_555
C3 C2 1_555 1_555
H6 C3 1_555 1_555
C4 C3 1_555 1_555
C5 C4 1_555 1_555
C6 C4 1_555 1_555
H7 C6 1_555 1_555
C7 C6 1_555 1_555
C8 C2 1_555 1_555
H8 C8 1_555 1_555
C9 C7 1_555 1_555
C10 C9 1_555 1_555
C11 O5 1_555 1_555
C12 C10 1_555 1_555
C13 C12 1_555 1_555
C14 C12 1_555 1_555
H9 C14 1_555 1_555
C15 C14 1_555 1_555
H10 C15 1_555 1_555
C16 C9 1_555 1_555
H11 C16 1_555 1_555
O11 H12 1_555 1_555
H13 O11 1_555 1_555
Tb1_2 O8 1_555 1_555
Tb1_3 O4 1_555 1_555
Tb1A O7 1_555 1_555
Tb1A_2 O3 1_555 1_555
O3A Tb1 1_555 1_555
O4_2 Tb1 1_555 1_555
O7A Tb1 1_555 1_555
O8_2 Tb1 1_555 1_555
C7 C8 1_555 1_555
C10 C11 1_555 1_555
C15 C16 1_555 1_555

#END
