
#######################################################################
#
#                 Cambridge Crystallographic Data Centre
#                                CCDC 
#
#######################################################################
#
# If this CIF has been generated from an entry in the Cambridge 
# Structural Database, then it will include bibliographic, chemical, 
# crystal, experimental, refinement or atomic coordinate data resulting 
# from the CCDC's data processing and validation procedures.
#
#######################################################################

data_SOQRAS
_symmetry_cell_setting           monoclinic
_symmetry_space_group_name_H-M   'P 21/n'
_symmetry_Int_Tables_number      14
_space_group_name_Hall           '-P 2yn'
loop_
_symmetry_equiv_pos_site_id
_symmetry_equiv_pos_as_xyz
1 x,y,z
2 1/2-x,1/2+y,1/2-z
3 -x,-y,-z
4 1/2+x,1/2-y,1/2+z
_cell_length_a                   7.5515(6)
_cell_length_b                   9.1813(8)
_cell_length_c                   10.0125(8)
_cell_angle_alpha                90
_cell_angle_beta                 111.267(1)
_cell_angle_gamma                90
_cell_volume                     646.918
loop_
_atom_site_label
_atom_site_type_symbol
_atom_site_fract_x
_atom_site_fract_y
_atom_site_fract_z
C1 C 0.2255(5) 0.4321(3) 0.4850(3)
H1 H 0.2409 0.4971 0.5596
N1 N 0.2180(4) 0.3411(3) 0.2933(3)
H2 H 0.2265 0.3293 0.2106
N2 N 0.1662(4) 0.2925(2) 0.4858(2)
C2 C 0.1637(5) 0.2396(3) 0.3622(3)
H3 H 0.1288 0.1452 0.3294
N3 N 0.2592(4) 0.4668(3) 0.3692(3)
O1 O 0.1408(4) 0.2496(2) 0.8182(2)
O2 O 0.2773(4) 0.4960(2) 0.8273(2)
O3 O 0.3197(3) 0.3627(2) 1.05593(19)
P1 P 0.19356(10) 0.38852(8) 0.90040(7)
Zn1 Zn 0.09261(5) 0.18023(3) 0.62927(3)
H4 H 0.033(4) 0.446(3) 0.906(3)
O2A O 0.2227(4) -0.0040(2) 0.6727(2)
O3C O -0.1803(3) 0.1373(2) 0.55593(19)
Zn1A Zn 0.40739(5) 0.68023(3) 0.87073(3)
Zn1C Zn 0.59261(5) 0.31977(3) 1.12927(3)
loop_
_geom_bond_atom_site_label_1
_geom_bond_atom_site_label_2
_geom_bond_site_symmetry_1
_geom_bond_site_symmetry_2
C1 H1 1_555 1_555
N1 H2 1_555 1_555
N2 C1 1_555 1_555
C2 N1 1_555 1_555
H3 C2 1_555 1_555
N3 C1 1_555 1_555
O1 P1 1_555 1_555
O2 P1 1_555 1_555
O3 P1 1_555 1_555
P1 H4 1_555 1_555
Zn1 N2 1_555 1_555
O2A Zn1 1_555 1_555
O3C Zn1 1_555 1_555
Zn1A O2 1_555 1_555
Zn1C O3 1_555 1_555
N1 N3 1_555 1_555
N2 C2 1_555 1_555
O1 Zn1 1_555 1_555

#END
