
#######################################################################
#
#                 Cambridge Crystallographic Data Centre
#                                CCDC 
#
#######################################################################
#
# If this CIF has been generated from an entry in the Cambridge 
# Structural Database, then it will include bibliographic, chemical, 
# crystal, experimental, refinement or atomic coordinate data resulting 
# from the CCDC's data processing and validation procedures.
#
#######################################################################

data_SOQRUM
_symmetry_cell_setting           rhombohedral
_symmetry_space_group_name_H-M   'R -3 c'
_symmetry_Int_Tables_number      167
_space_group_name_Hall           '-R 3 2"c'
loop_
_symmetry_equiv_pos_site_id
_symmetry_equiv_pos_as_xyz
1 x,y,z
2 -y,x-y,z
3 -x+y,-x,z
4 y,x,1/2-z
5 x-y,-y,1/2-z
6 -x,-x+y,1/2-z
7 2/3+x,1/3+y,1/3+z
8 2/3-y,1/3+x-y,1/3+z
9 2/3-x+y,1/3-x,1/3+z
10 2/3+y,1/3+x,5/6-z
11 2/3+x-y,1/3-y,5/6-z
12 2/3-x,1/3-x+y,5/6-z
13 1/3+x,2/3+y,2/3+z
14 1/3-y,2/3+x-y,2/3+z
15 1/3-x+y,2/3-x,2/3+z
16 1/3+y,2/3+x,1/6-z
17 1/3+x-y,2/3-y,1/6-z
18 1/3-x,2/3-x+y,1/6-z
19 -x,-y,-z
20 y,-x+y,-z
21 x-y,x,-z
22 -y,-x,1/2+z
23 -x+y,y,1/2+z
24 x,x-y,1/2+z
25 1/3-x,2/3-y,2/3-z
26 1/3+y,2/3-x+y,2/3-z
27 1/3+x-y,2/3+x,2/3-z
28 1/3-y,2/3-x,1/6+z
29 1/3-x+y,2/3+y,1/6+z
30 1/3+x,2/3+x-y,1/6+z
31 2/3-x,1/3-y,1/3-z
32 2/3+y,1/3-x+y,1/3-z
33 2/3+x-y,1/3+x,1/3-z
34 2/3-y,1/3-x,5/6+z
35 2/3-x+y,1/3+y,5/6+z
36 2/3+x,1/3+x-y,5/6+z
_cell_length_a                   16.967(2)
_cell_length_b                   16.967(2)
_cell_length_c                   12.921(3)
_cell_angle_alpha                90
_cell_angle_beta                 90
_cell_angle_gamma                120
_cell_volume                     3221.34
loop_
_atom_site_label
_atom_site_type_symbol
_atom_site_fract_x
_atom_site_fract_y
_atom_site_fract_z
Ni1 Ni -0.12107(4) 0.0000 0.2500
O1 O 0.0000 0.0000 0.2500
O2 O -0.07997(19) 0.09535(19) 0.1326(2)
O3 O -0.17584(19) -0.1037(2) 0.1421(2)
N1 N -0.0872 0.3334(3) 0.0834
C1 C -0.0046(3) 0.1671(3) 0.1253(3)
C2 C -0.0048(3) 0.2534(3) 0.0970(3)
C3 C 0.0760 0.3333(3) 0.0833
H1 H 0.1308 0.3333 0.0833
C4 C -0.0848(3) 0.2556(3) 0.0918(3)
H2 H -0.1397 0.2008 0.0943
Ni1B Ni 0.12107(4) 0.12107(4) 0.2500
Ni1A Ni 0.0000 -0.12107(4) 0.2500
Ni1DA Ni -0.21226(4) 0.3333 0.0833
Ni1M Ni 0.3333 0.54560(4) -0.0833
Ni1L Ni 0.21226(4) 0.6667 -0.0833
Ni1EA Ni -0.3333 -0.54560(4) 0.0833
Ni1N Ni -0.54560(4) -0.21226(4) -0.0833
Ni1M_2 Ni -0.6667 -0.45440(4) -0.0833
Ni1FA Ni 0.54560(4) 0.21226(4) 0.0833
Ni1N_2 Ni 0.45440(4) -0.21226(4) -0.0833
Ni1L_2 Ni 0.21226(4) -0.3333 -0.0833
O2D O -0.17532(27) -0.09535(19) 0.3674(2)
O2P O 0.15801(27) 0.57132(19) 0.0341(2)
O2A O -0.09535(19) -0.17532(27) 0.1326(2)
O2C O 0.09535(19) -0.07997(19) 0.3674(2)
O2B O 0.17532(27) 0.07997(19) 0.1326(2)
O2E O 0.07997(19) 0.17532(27) 0.3674(2)
O2O O -0.57132(19) -0.41330(19) 0.0341(2)
O2Q O 0.41330(19) -0.15801(27) 0.0341(2)
O3D O -0.07214(28) 0.1037(2) 0.3579(2)
O3B O 0.07214(28) 0.17584(19) 0.1421(2)
O3O O 0.2296(2) 0.49083(19) 0.0246(2)
O3A O 0.1037(2) -0.07214(28) 0.1421(2)
O3C O -0.1037(2) -0.17584(19) 0.3579(2)
O3E O 0.17584(19) 0.07214(28) 0.3579(2)
O3Q O -0.49083(19) -0.26119(28) 0.0246(2)
O3P O 0.26119(28) -0.2296(2) 0.0246(2)
N1BA N -0.2461(3) 0.0001(3) 0.2501
N1AA N -0.0001(3) -0.2461 0.2501
N1CA N 0.2461 0.2461(3) 0.2501
N1A N -0.3334(3) -0.4206(3) 0.0834
N1B N 0.4206(3) 0.0872 0.0834
C1A C -0.1671(3) -0.1717(4) 0.1253(3)
C1P C 0.1616(4) 0.4996(3) 0.0414(3)
C1O C -0.4996(3) -0.3379(3) 0.0414(3)
C1B C 0.1717(4) 0.0046(3) 0.1253(3)
C1Q C 0.3379(3) -0.1616(4) 0.0414(3)
C2P C 0.0751(4) 0.4133(3) 0.0697(3)
C2A C -0.2534(3) -0.2582(4) 0.0970(3)
C2O C -0.4133(3) -0.3381(3) 0.0697(3)
C2B C 0.2582(4) 0.0048(3) 0.0970(3)
C2Q C 0.3381(3) -0.0751(4) 0.0697(3)
C3A C -0.3333(3) -0.2573(3) 0.0833
C3B C 0.2573(3) -0.0760 0.0833
H1A H -0.3333 -0.2025 0.0833
H1B H 0.2025 -0.1308 0.0833
C4P C -0.0071(4) 0.4111(3) 0.0749(3)
C4A C -0.2556(3) -0.3404(4) 0.0918(3)
C4O C -0.4111(3) -0.4181(3) 0.0749(3)
C4B C 0.3404(4) 0.0848(3) 0.0918(3)
C4Q C 0.4181(3) 0.0071(4) 0.0749(3)
H2P H -0.0072 0.4659 0.0724
H2A H -0.2008 -0.3405 0.0943
H2B H 0.3405 0.1397 0.0943
H2O H -0.4659 -0.4730 0.0724
H2Q H 0.4730 0.0072 0.0724
O4 O 0.0000 0.0000 0.0000
H3? H 0.0146 0.0421 -0.0444
H4? H 0.0123 -0.0421 -0.0111
loop_
_geom_bond_atom_site_label_1
_geom_bond_atom_site_label_2
_geom_bond_site_symmetry_1
_geom_bond_site_symmetry_2
Ni1 O1 1_555 1_555
O1 Ni1B 1_555 1_555
O2 Ni1 1_555 1_555
O3 Ni1 1_555 1_555
N1 C4 1_555 1_555
C1 O2 1_555 1_555
C2 C1 1_555 1_555
C3 C2 1_555 1_555
H1 C3 1_555 1_555
C4 C2 1_555 1_555
H2 C4 1_555 1_555
Ni1B O2B 1_555 1_555
Ni1A O1 1_555 1_555
Ni1DA N1 1_555 1_555
Ni1M O3O 1_555 1_555
Ni1L O2P 1_555 1_555
Ni1EA N1A 1_555 1_555
Ni1N O3Q 1_555 1_555
Ni1M_2 O2O 1_555 1_555
Ni1FA N1B 1_555 1_555
Ni1N_2 O2Q 1_555 1_555
Ni1L_2 O3P 1_555 1_555
O2D Ni1 1_555 1_555
O2P C1P 1_555 1_555
O2A Ni1A 1_555 1_555
O2C Ni1A 1_555 1_555
O2B C1B 1_555 1_555
O2E Ni1B 1_555 1_555
O2O C1O 1_555 1_555
O2Q C1Q 1_555 1_555
O3D Ni1 1_555 1_555
O3B C1 1_555 1_555
O3O C1P 1_555 1_555
O3A Ni1A 1_555 1_555
O3C Ni1A 1_555 1_555
O3E Ni1B 1_555 1_555
O3Q C1O 1_555 1_555
O3P C1Q 1_555 1_555
N1BA Ni1 1_555 1_555
N1AA Ni1A 1_555 1_555
N1CA Ni1B 1_555 1_555
N1A C4A 1_555 1_555
N1B C4B 1_555 1_555
C1A O3 1_555 1_555
C1P C2P 1_555 1_555
C1O C2O 1_555 1_555
C1B O3A 1_555 1_555
C1Q C2Q 1_555 1_555
C2P C3 1_555 1_555
C2A C1A 1_555 1_555
C2O C3A 1_555 1_555
C2B C1B 1_555 1_555
C2Q C3B 1_555 1_555
C3A C2A 1_555 1_555
C3B C2B 1_555 1_555
H1A C3A 1_555 1_555
H1B C3B 1_555 1_555
C4P N1 1_555 1_555
C4A C2A 1_555 1_555
C4O N1A 1_555 1_555
C4B C2B 1_555 1_555
C4Q N1B 1_555 1_555
H2P C4P 1_555 1_555
H2A C4A 1_555 1_555
H2B C4B 1_555 1_555
H2O C4O 1_555 1_555
H2Q C4Q 1_555 1_555
Ni1B O3B 1_555 1_555
O2A C1A 1_555 1_555
C2P C4P 1_555 1_555
C2O C4O 1_555 1_555
C2Q C4Q 1_555 1_555

#END
