
#######################################################################
#
#                 Cambridge Crystallographic Data Centre
#                                CCDC 
#
#######################################################################
#
# If this CIF has been generated from an entry in the Cambridge 
# Structural Database, then it will include bibliographic, chemical, 
# crystal, experimental, refinement or atomic coordinate data resulting 
# from the CCDC's data processing and validation procedures.
#
#######################################################################

data_SOQSUN
_symmetry_cell_setting           monoclinic
_symmetry_space_group_name_H-M   'C 2/c'
_symmetry_Int_Tables_number      15
_space_group_name_Hall           '-C 2yn'
loop_
_symmetry_equiv_pos_site_id
_symmetry_equiv_pos_as_xyz
1 x,y,z
2 -x,y,1/2-z
3 1/2+x,1/2+y,z
4 1/2-x,1/2+y,1/2-z
5 -x,-y,-z
6 x,-y,1/2+z
7 1/2-x,1/2-y,-z
8 1/2+x,1/2-y,1/2+z
_cell_length_a                   20.1268(13)
_cell_length_b                   9.1796(6)
_cell_length_c                   23.2821(15)
_cell_angle_alpha                90
_cell_angle_beta                 103.5000(10)
_cell_angle_gamma                90
_cell_volume                     4182.66
loop_
_atom_site_label
_atom_site_type_symbol
_atom_site_fract_x
_atom_site_fract_y
_atom_site_fract_z
Ag3 Ag -0.01447(12) 0.29791(19) 0.77558(11)
O1 O -0.026(3) 0.534(3) 0.796(2)
O2 O -0.009(3) 0.540(3) 0.784(2)
N1 N -0.0078(11) 1.0642(11) 0.7689(6)
C16 C -0.0006(11) 0.9972(15) 0.7171(5)
H9 H 0.0043 1.0535 0.6852
C17 C -0.0007(13) 0.8461(16) 0.7132(7)
H10 H 0.0041 0.8013 0.6786
C18 C -0.0081(14) 0.7620(11) 0.7610(8)
C19 C -0.0153(10) 0.8290(13) 0.8127(6)
H11 H 0.0202 0.7728 0.6553
C20 C 0.0151(8) 0.9801(13) 0.6833(5)
H12 H 0.0200 1.0250 0.6487
C21 C -0.007(4) 0.603(3) 0.7567(18)
Ag3A Ag 0.01447(12) 0.29791(19) 0.72442(11)
Ag3_2 Ag -0.01447(12) 1.29791(19) 0.77558(11)
Ag3A_2 Ag 0.01447(12) 1.29791(19) 0.72442(11)
O1A O 0.026(3) 0.534(3) 0.704(2)
O2A O 0.009(3) 0.540(3) 0.716(2)
N1A N 0.0078(11) 1.0642(11) 0.7311(6)
N1_2 N -0.0078(11) 0.0642(11) 0.7689(6)
N1A_2 N 0.0078(11) 0.0642(11) 0.7311(6)
C16A C 0.0006(11) 0.9972(15) 0.7829(5)
H9A H -0.0043 1.0535 0.8148
C17A C 0.0007(13) 0.8461(16) 0.7868(7)
H10A H -0.0041 0.8013 0.8214
C18A C 0.0081(14) 0.7620(11) 0.7390(8)
C19A C 0.0153(10) 0.8290(13) 0.6873(6)
H11A H -0.0202 0.7728 0.8447
C20A C -0.0151(8) 0.9801(13) 0.8167(5)
H12A H -0.0200 1.0250 0.8513
C21A C 0.007(4) 0.603(3) 0.7433(18)
Yb1 Yb -0.099009(18) 0.25081(4) -0.001101(16)
Ag1 Ag -0.16537(6) -0.57491(10) -0.16008(4)
Ag2 Ag -0.15421(5) 1.08887(8) 0.14260(4)
C1 C -0.1798(6) -0.2578(11) -0.2042(5)
H1 H -0.1814 -0.3018 -0.2404
C2 C -0.1798(5) -0.1101(11) -0.2009(4)
H2 H -0.1821 -0.0546 -0.2347
C3 C -0.1764(5) -0.0415(11) -0.1470(4)
C4 C -0.1751(6) -0.1276(11) -0.0983(4)
H3 H -0.1738 -0.0861 -0.0616
C5 C -0.1757(5) -0.2768(12) -0.1052(5)
H4 H -0.1747 -0.3350 -0.0723
C6 C -0.1715(5) 0.1225(11) -0.1405(4)
C7 C -0.1529(5) 0.7699(10) 0.1841(4)
H5 H -0.1557 0.8122 0.2198
C8 C -0.1492(5) 0.6204(10) 0.1808(4)
H6 H -0.1531 0.5631 0.2127
C9 C -0.1396(5) 0.5557(10) 0.1295(4)
C10 C -0.1377(5) 0.6464(11) 0.0819(4)
H7 H -0.1312 0.6071 0.0468
C11 C -0.1454(6) 0.7931(11) 0.0871(5)
H8 H -0.1457 0.8522 0.0545
C12 C -0.1327(5) 0.3936(10) 0.1243(4)
C13 C -0.2537(4) 0.3284(9) -0.0128(4)
C14 C -0.0256(4) 0.5352(10) -0.0269(4)
C15 C 0.0086(5) 0.0284(10) -0.0289(4)
N2 N -0.1777(4) -0.3418(9) -0.1569(4)
N3 N -0.1525(4) 0.8560(8) 0.1382(3)
O3 O -0.1590(4) 0.1769(8) -0.0901(3)
O4 O -0.1822(5) 0.1953(8) -0.1871(3)
O5 O -0.1056(3) 0.3437(7) 0.0869(3)
O6 O -0.1585(4) 0.3181(7) 0.1597(3)
O7 O -0.2010(3) 0.3883(6) -0.0210(3)
O8 O -0.3122(3) 0.3853(6) -0.0216(3)
O9 O -0.0779(3) 0.4592(6) -0.0481(3)
O10 O -0.0107(3) 0.6544(7) -0.0444(3)
O11 O -0.0214(3) 0.1411(7) -0.0506(3)
O12 O 0.0511(3) -0.0446(6) -0.0485(3)
Yb1F Yb -0.400991(18) 0.24919(4) 0.001101(16)
Yb1D Yb 0.099009(18) 0.74919(4) 0.001101(16)
Yb1D_2 Yb 0.099009(18) -0.25081(4) 0.001101(16)
Yb1_2 Yb -0.099009(18) -0.74919(4) -0.001101(16)
Yb1_3 Yb -0.099009(18) 1.25081(4) -0.001101(16)
Ag1_2 Ag -0.16537(6) 0.42509(10) -0.16008(4)
Ag1_3 Ag -0.16537(6) -1.57491(10) -0.16008(4)
Ag2_2 Ag -0.15421(5) 0.08887(8) 0.14260(4)
Ag2_3 Ag -0.15421(5) 2.08887(8) 0.14260(4)
C1_2 C -0.1798(6) -1.2578(11) -0.2042(5)
H1_2 H -0.1814 -1.3018 -0.2404
C2_2 C -0.1798(5) -1.1101(11) -0.2009(4)
H2_2 H -0.1821 -1.0546 -0.2347
C3_2 C -0.1764(5) -1.0415(11) -0.1470(4)
C4_2 C -0.1751(6) -1.1276(11) -0.0983(4)
H3_2 H -0.1738 -1.0861 -0.0616
C5_2 C -0.1757(5) -1.2768(12) -0.1052(5)
H4_2 H -0.1747 -1.3350 -0.0723
C6_2 C -0.1715(5) -0.8775(11) -0.1405(4)
C7_2 C -0.1529(5) 1.7699(10) 0.1841(4)
H5_2 H -0.1557 1.8122 0.2198
C8_2 C -0.1492(5) 1.6204(10) 0.1808(4)
H6_2 H -0.1531 1.5631 0.2127
C9_2 C -0.1396(5) 1.5557(10) 0.1295(4)
C10_2 C -0.1377(5) 1.6464(11) 0.0819(4)
H7_2 H -0.1312 1.6071 0.0468
C11_2 C -0.1454(6) 1.7931(11) 0.0871(5)
H8_2 H -0.1457 1.8522 0.0545
C12_2 C -0.1327(5) 1.3936(10) 0.1243(4)
C13F C -0.2463(4) 0.1716(9) 0.0128(4)
C14D C 0.0256(4) 0.4648(10) 0.0269(4)
C15D C -0.0086(5) -0.0284(10) 0.0289(4)
N2_2 N -0.1777(4) -1.3418(9) -0.1569(4)
N2_3 N -0.1777(4) 0.6582(9) -0.1569(4)
N3_2 N -0.1525(4) 1.8560(8) 0.1382(3)
N3_3 N -0.1525(4) -0.1440(8) 0.1382(3)
O3_2 O -0.1590(4) -0.8231(8) -0.0901(3)
O3F O -0.3410(4) 0.3231(8) 0.0901(3)
O4_2 O -0.1822(5) -0.8047(8) -0.1871(3)
O5_2 O -0.1056(3) 1.3437(7) 0.0869(3)
O5F O -0.3944(3) 0.1563(7) -0.0869(3)
O6_2 O -0.1585(4) 1.3181(7) 0.1597(3)
O7F O -0.2990(3) 0.1117(6) 0.0210(3)
O8F O -0.1878(3) 0.1147(6) 0.0216(3)
O9D O 0.0779(3) 0.5408(6) 0.0481(3)
O9F O -0.4221(3) 0.0408(6) 0.0481(3)
O10D O 0.0107(3) 0.3456(7) 0.0444(3)
O10B O -0.5107(3) 0.1544(7) -0.0444(3)
O11D O 0.0214(3) -0.1411(7) 0.0506(3)
O11F O -0.4786(3) 0.3589(7) 0.0506(3)
O12D O -0.0511(3) 0.0446(6) 0.0485(3)
O12B O -0.4489(3) 0.4554(6) -0.0485(3)
loop_
_geom_bond_atom_site_label_1
_geom_bond_atom_site_label_2
_geom_bond_site_symmetry_1
_geom_bond_site_symmetry_2
Yb1 O3 1_555 1_555
Ag1 N2 1_555 1_555
Ag2 N3 1_555 1_555
C1 H1 1_555 1_555
C2 C1 1_555 1_555
H2 C2 1_555 1_555
C3 C2 1_555 1_555
C4 C3 1_555 1_555
H3 C4 1_555 1_555
C5 C4 1_555 1_555
H4 C5 1_555 1_555
C6 C3 1_555 1_555
C7 H5 1_555 1_555
C8 C7 1_555 1_555
H6 C8 1_555 1_555
C9 C8 1_555 1_555
C10 C9 1_555 1_555
H7 C10 1_555 1_555
C11 C10 1_555 1_555
H8 C11 1_555 1_555
C12 C9 1_555 1_555
C13 O7 1_555 1_555
C14 O9 1_555 1_555
C15 O11 1_555 1_555
Ag3 O1 1_555 1_555
O1 O2 1_555 1_555
O2 Ag3 1_555 1_555
N1 C16 1_555 1_555
C16 H9 1_555 1_555
H9 C20 1_555 1_555
C17 C16 1_555 1_555
H10 C17 1_555 1_555
C18 C17 1_555 1_555
C19 C18 1_555 1_555
H11 H10 1_555 1_555
C20 C16 1_555 1_555
H12 C20 1_555 1_555
C21 O1 1_555 1_555
N2 C1 1_555 1_555
N3 C7 1_555 1_555
O3 C6 1_555 1_555
O4 C6 1_555 1_555
O5 Yb1 1_555 1_555
O6 C12 1_555 1_555
O7 Yb1 1_555 1_555
O8 C13 1_555 1_555
O9 Yb1 1_555 1_555
O10 C14 1_555 1_555
O11 Yb1 1_555 1_555
O12 C15 1_555 1_555
Yb1F O8 1_555 1_555
Yb1D O10 1_555 1_555
Yb1D_2 O12 1_555 1_555
Yb1_2 O3_2 1_555 1_555
Yb1_3 O5_2 1_555 1_555
Ag1_2 O4 1_555 1_555
Ag1_3 N2_2 1_555 1_555
Ag2_2 O6 1_555 1_555
Ag2_3 N3_2 1_555 1_555
C1_2 H1_2 1_555 1_555
C2_2 C1_2 1_555 1_555
H2_2 C2_2 1_555 1_555
C3_2 C2_2 1_555 1_555
C4_2 C3_2 1_555 1_555
H3_2 C4_2 1_555 1_555
C5_2 C4_2 1_555 1_555
H4_2 C5_2 1_555 1_555
C6_2 C3_2 1_555 1_555
C7_2 H5_2 1_555 1_555
C8_2 C7_2 1_555 1_555
H6_2 C8_2 1_555 1_555
C9_2 C8_2 1_555 1_555
C10_2 C9_2 1_555 1_555
H7_2 C10_2 1_555 1_555
C11_2 C10_2 1_555 1_555
H8_2 C11_2 1_555 1_555
C12_2 C9_2 1_555 1_555
C13F C13 1_555 1_555
C14D C14 1_555 1_555
C15D C15 1_555 1_555
Ag3A Ag3 1_555 1_555
Ag3_2 N1 1_555 1_555
Ag3A_2 N1 1_555 1_555
O1A C21 1_555 1_555
O2A O2 1_555 1_555
N1A N1 1_555 1_555
N1_2 Ag3 1_555 1_555
N1A_2 Ag3 1_555 1_555
C16A N1 1_555 1_555
H9A N1 1_555 1_555
C17A C17 1_555 1_555
H10A C19 1_555 1_555
C18A C17 1_555 1_555
C19A C16 1_555 1_555
H11A C19 1_555 1_555
C20A N1 1_555 1_555
H12A C20A 1_555 1_555
C21A O1 1_555 1_555
N2_2 C1_2 1_555 1_555
N2_3 Ag1_2 1_555 1_555
N3_2 C7_2 1_555 1_555
N3_3 Ag2_2 1_555 1_555
O3_2 C6_2 1_555 1_555
O3F Yb1F 1_555 1_555
O4_2 Ag1 1_555 1_555
O5_2 C12_2 1_555 1_555
O5F Yb1F 1_555 1_555
O6_2 Ag2 1_555 1_555
O7F Yb1F 1_555 1_555
O8F Yb1 1_555 1_555
O9D Yb1D 1_555 1_555
O9F Yb1F 1_555 1_555
O10D Yb1 1_555 1_555
O10B Yb1F 1_555 1_555
O11D Yb1D_2 1_555 1_555
O11F Yb1F 1_555 1_555
O12D Yb1 1_555 1_555
O12B Yb1F 1_555 1_555
C5 N2 1_555 1_555
C11 N3 1_555 1_555
C12 O5 1_555 1_555
O2 C21 1_555 1_555
O2 C21A 1_555 1_555
C16 N1A 1_555 1_555
C16 C16A 1_555 1_555
H9 N1A 1_555 1_555
C17 C20 1_555 1_555
C17 C19A 1_555 1_555
H10 C19A 1_555 1_555
C18 C21 1_555 1_555
C18 C17A 1_555 1_555
C18 C18A 1_555 1_555
C18 C21A 1_555 1_555
C19 C16A 1_555 1_555
C19 C17A 1_555 1_555
C19 C20A 1_555 1_555
H11 C19A 1_555 1_555
C20 N1A 1_555 1_555
C20 C19A 1_555 1_555
C21 O2A 1_555 1_555
C21 C18A 1_555 1_555
C21 C21A 1_555 1_555
C5_2 N2_2 1_555 1_555
C6_2 O4_2 1_555 1_555
C11_2 N3_2 1_555 1_555
C12_2 O6_2 1_555 1_555
C13F O7F 1_555 1_555
C13F O8F 1_555 1_555
C14D O9D 1_555 1_555
C14D O10D 1_555 1_555
C15D O11D 1_555 1_555
C15D O12D 1_555 1_555
Ag3A O1A 1_555 1_555
Ag3A O2A 1_555 1_555
Ag3A N1_2 1_555 1_555
Ag3A N1A_2 1_555 1_555
Ag3_2 Ag3A_2 1_555 1_555
Ag3_2 N1A 1_555 1_555
Ag3A_2 N1A 1_555 1_555
O1A O2A 1_555 1_555
O1A C21A 1_555 1_555
O2A C21A 1_555 1_555
N1A C16A 1_555 1_555
N1_2 N1A_2 1_555 1_555
C16A H9A 1_555 1_555
C16A C17A 1_555 1_555
C16A C20A 1_555 1_555
H9A C20A 1_555 1_555
C17A H10A 1_555 1_555
C17A C18A 1_555 1_555
C17A C20A 1_555 1_555
H10A H11A 1_555 1_555
C18A C19A 1_555 1_555
C18A C21A 1_555 1_555

#END
