
#######################################################################
#
#                 Cambridge Crystallographic Data Centre
#                                CCDC 
#
#######################################################################
#
# If this CIF has been generated from an entry in the Cambridge 
# Structural Database, then it will include bibliographic, chemical, 
# crystal, experimental, refinement or atomic coordinate data resulting 
# from the CCDC's data processing and validation procedures.
#
#######################################################################

data_SOQVEB
_symmetry_cell_setting           monoclinic
_symmetry_space_group_name_H-M   'P 21/n'
_symmetry_Int_Tables_number      14
_space_group_name_Hall           '-P 2yn'
loop_
_symmetry_equiv_pos_site_id
_symmetry_equiv_pos_as_xyz
1 x,y,z
2 1/2-x,1/2+y,1/2-z
3 -x,-y,-z
4 1/2+x,1/2-y,1/2+z
_cell_length_a                   9.0998(4)
_cell_length_b                   15.1821(5)
_cell_length_c                   12.1023(5)
_cell_angle_alpha                90
_cell_angle_beta                 109.519(5)
_cell_angle_gamma                90
_cell_volume                     1575.89
loop_
_atom_site_label
_atom_site_type_symbol
_atom_site_fract_x
_atom_site_fract_y
_atom_site_fract_z
Gd1 Gd 0.74565(5) 0.00983(4) 0.25308(4)
Cl1 Cl 0.7810(2) 0.17918(11) 0.32521(16)
O1 O 0.5890(6) -0.0828(3) 0.0983(4)
O2 O 0.8922(6) 0.0172(4) 0.1296(5)
H1 H 0.9772 -0.0104 0.1414
H2 H 0.8518 0.0505 0.0712
O3 O 0.4116(5) -0.0917(3) -0.0817(4)
O4 O 0.5085(6) 0.0122(3) 0.2861(5)
H3 H 0.4788 0.0586 0.3115
H4 H 0.4515 -0.0334 0.2727
O5 O 1.0177(6) 0.0095(3) 0.3622(5)
O6 O 0.7923(6) -0.1382(4) 0.2958(5)
H5 H 0.8440 -0.1543 0.3648
H6 H 0.7576 -0.1764 0.2424
O7 O 1.2030(6) 0.0082(3) 0.5395(5)
C1 C 0.5001(7) -0.0511(5) 0.0050(6)
C2 C 1.0627(8) 0.0048(4) 0.4708(6)
O1B O 0.4110(6) 0.0828(3) -0.0983(4)
O3B O 0.5884(5) 0.0917(3) 0.0817(4)
C1B C 0.4999(7) 0.0511(5) -0.0050(6)
O5B O 0.9823(6) -0.0095(3) 0.6378(5)
O7B O 0.7970(6) -0.0082(3) 0.4605(5)
C2B C 0.9373(8) -0.0048(4) 0.5292(6)
Gd1B Gd 0.25435(5) -0.00983(4) -0.25308(4)
Cl1B Cl 0.2190(2) -0.17918(11) -0.32521(16)
O2B O 0.1078(6) -0.0172(4) -0.1296(5)
H1B H 0.0228 0.0104 -0.1414
H2B H 0.1482 -0.0505 -0.0712
O4B O 0.4915(6) -0.0122(3) -0.2861(5)
H3B H 0.5212 -0.0586 -0.3115
H4B H 0.5485 0.0334 -0.2727
O6B O 0.2077(6) 0.1382(4) -0.2958(5)
H5B H 0.1560 0.1543 -0.3648
H6B H 0.2424 0.1764 -0.2424
Gd1B_2 Gd 1.25435(5) -0.00983(4) 0.74692(4)
O5B_2 O -0.0177(6) -0.0095(3) -0.3622(5)
O7_2 O 0.2030(6) 0.0082(3) -0.4605(5)
Cl2 Cl 1.29553(19) -0.56632(12) 0.37097(15)
O8 O 1.0880(6) -0.4071(4) 0.0500(5)
H7 H 1.1477 -0.4425 0.0310
N1 N 0.8038(7) -0.2437(4) -0.1320(6)
C3 C 0.8752(10) -0.2176(6) -0.2248(8)
H8 H 0.8269 -0.1629 -0.2630
H9 H 0.8570 -0.2645 -0.2834
H10 H 0.9876 -0.2085 -0.1875
C4 C 0.6317(9) -0.2549(5) -0.1905(9)
H11 H 0.5863 -0.1993 -0.2277
H12 H 0.5840 -0.2714 -0.1319
H13 H 0.6121 -0.3012 -0.2501
C5 C 0.8289(10) -0.1703(5) -0.0452(8)
H14 H 0.7854 -0.1157 -0.0862
H15 H 0.9409 -0.1628 -0.0040
H16 H 0.7768 -0.1845 0.0116
C6 C 0.8695(8) -0.3285(5) -0.0748(7)
H17 H 0.8379 -0.3760 -0.1342
H18 H 0.8228 -0.3418 -0.0136
C7 C 1.0460(9) -0.3300(5) -0.0190(7)
H19 H 1.0954 -0.3300 -0.0806
H20 H 1.0820 -0.2772 0.0306
O9 O 0.8906(6) -0.2316(3) 0.4899(5)
H21 H 0.8391 -0.2789 0.4851
H22 H 0.9641 -0.2194 0.5524
loop_
_geom_bond_atom_site_label_1
_geom_bond_atom_site_label_2
_geom_bond_site_symmetry_1
_geom_bond_site_symmetry_2
Gd1 Cl1 1_555 1_555
O1 Gd1 1_555 1_555
O2 Gd1 1_555 1_555
H1 O2 1_555 1_555
H2 O2 1_555 1_555
O3 C1 1_555 1_555
O4 Gd1 1_555 1_555
H3 O4 1_555 1_555
H4 O4 1_555 1_555
O5 Gd1 1_555 1_555
O6 Gd1 1_555 1_555
H5 O6 1_555 1_555
H6 O6 1_555 1_555
O7 C2 1_555 1_555
C1 O1 1_555 1_555
C2 O5 1_555 1_555
O8 H7 1_555 1_555
N1 C3 1_555 1_555
C3 H8 1_555 1_555
H9 C3 1_555 1_555
H10 C3 1_555 1_555
C4 N1 1_555 1_555
H11 C4 1_555 1_555
H12 C4 1_555 1_555
H13 C4 1_555 1_555
C5 N1 1_555 1_555
H14 C5 1_555 1_555
H15 C5 1_555 1_555
H16 C5 1_555 1_555
C6 N1 1_555 1_555
H17 C6 1_555 1_555
H18 C6 1_555 1_555
C7 O8 1_555 1_555
H19 C7 1_555 1_555
H20 C7 1_555 1_555
O9 H21 1_555 1_555
H22 O9 1_555 1_555
O1B C1B 1_555 1_555
O3B Gd1 1_555 1_555
C1B C1 1_555 1_555
O5B C2B 1_555 1_555
O7B Gd1 1_555 1_555
C2B C2 1_555 1_555
Gd1B O3 1_555 1_555
Cl1B Gd1B 1_555 1_555
O2B Gd1B 1_555 1_555
H1B O2B 1_555 1_555
H2B O2B 1_555 1_555
O4B Gd1B 1_555 1_555
H3B O4B 1_555 1_555
H4B O4B 1_555 1_555
O6B Gd1B 1_555 1_555
H5B O6B 1_555 1_555
H6B O6B 1_555 1_555
Gd1B_2 O7 1_555 1_555
O5B_2 Gd1B 1_555 1_555
O7_2 Gd1B 1_555 1_555
C6 C7 1_555 1_555
O1B Gd1B 1_555 1_555
O3B C1B 1_555 1_555
O5B Gd1B_2 1_555 1_555
O7B C2B 1_555 1_555

#END
