
#######################################################################
#
#                 Cambridge Crystallographic Data Centre
#                                CCDC 
#
#######################################################################
#
# If this CIF has been generated from an entry in the Cambridge 
# Structural Database, then it will include bibliographic, chemical, 
# crystal, experimental, refinement or atomic coordinate data resulting 
# from the CCDC's data processing and validation procedures.
#
#######################################################################

data_SOQVIF
_symmetry_cell_setting           monoclinic
_symmetry_space_group_name_H-M   'P 21/n'
_symmetry_Int_Tables_number      14
_space_group_name_Hall           '-P 2yn'
loop_
_symmetry_equiv_pos_site_id
_symmetry_equiv_pos_as_xyz
1 x,y,z
2 1/2-x,1/2+y,1/2-z
3 -x,-y,-z
4 1/2+x,1/2-y,1/2+z
_cell_length_a                   5.8391(2)
_cell_length_b                   15.7538(7)
_cell_length_c                   8.2954(3)
_cell_angle_alpha                90
_cell_angle_beta                 104.021(2)
_cell_angle_gamma                90
_cell_volume                     740.343
loop_
_atom_site_label
_atom_site_type_symbol
_atom_site_fract_x
_atom_site_fract_y
_atom_site_fract_z
Gd1 Gd 0.02483(5) 0.60471(2) 0.82803(4)
Cl1 Cl 0.2163(3) 0.76450(12) 0.7815(2)
O1 O -0.0808(11) 0.4730(4) 0.6837(6)
O2 O -0.1199(11) 0.4001(3) 0.4468(8)
O3 O 0.4324(9) 0.5771(4) 0.8468(7)
O4 O 0.7834(8) 0.5250(4) 0.9803(6)
O5 O -0.3270(10) 0.6367(4) 0.6069(7)
H1 H -0.3129 0.6904 0.6093
H2 H -0.4724 0.6246 0.5926
O6 O -0.2179(9) 0.7146(4) 0.9184(7)
H3 H -0.2210 0.7259 1.0180
H4 H -0.3152 0.6746 0.8840
O7 O 0.2030(10) 0.6468(4) 1.1138(6)
H5 H 0.3357 0.6687 1.1600
H6 H 0.1690 0.6100 1.1792
C1 C -0.0584(11) 0.4629(5) 0.5346(8)
C2 C 0.5603(11) 0.5305(5) 0.9498(9)
O1B O 0.0808(11) 0.5270(4) 0.3163(6)
O2B O 0.1199(11) 0.5999(3) 0.5532(8)
C1B C 0.0584(11) 0.5371(5) 0.4654(8)
O3B O 0.5676(9) 0.4229(4) 1.1532(7)
O4B O 0.2166(8) 0.4750(4) 1.0197(6)
C2B C 0.4397(11) 0.4695(5) 1.0502(9)
Gd1B Gd -0.02483(5) 0.39529(2) 0.17197(4)
Cl1B Cl -0.2163(3) 0.23550(12) 0.2185(2)
O5B O 0.3270(10) 0.3633(4) 0.3931(7)
H1B H 0.3129 0.3096 0.3907
H2B H 0.4724 0.3754 0.4074
O6B O 0.2179(9) 0.2854(4) 0.0816(7)
H3B H 0.2210 0.2741 -0.0180
H4B H 0.3152 0.3254 0.1160
O7B O -0.2030(10) 0.3532(4) -0.1138(6)
H5B H -0.3357 0.3313 -0.1600
H6B H -0.1690 0.3900 -0.1792
Gd1_2 Gd 1.02483(5) 0.60471(2) 0.82803(4)
Gd1B_2 Gd -0.02483(5) 0.39529(2) 1.17197(4)
Gd1B_3 Gd 0.97517(5) 0.39529(2) 1.17197(4)
O3B_2 O -0.4324(9) 0.4229(4) 0.1532(7)
O4_2 O -0.2166(8) 0.5250(4) -0.0197(6)
O4_3 O -0.2166(8) 0.5250(4) 0.9803(6)
O4B_2 O 0.2166(8) 0.4750(4) 0.0197(6)
loop_
_geom_bond_atom_site_label_1
_geom_bond_atom_site_label_2
_geom_bond_site_symmetry_1
_geom_bond_site_symmetry_2
Gd1 Cl1 1_555 1_555
O1 Gd1 1_555 1_555
O2 C1 1_555 1_555
O3 Gd1 1_555 1_555
O4 C2 1_555 1_555
O5 Gd1 1_555 1_555
H1 O5 1_555 1_555
H2 O5 1_555 1_555
O6 Gd1 1_555 1_555
H3 O6 1_555 1_555
H4 O6 1_555 1_555
O7 Gd1 1_555 1_555
H5 O7 1_555 1_555
H6 O7 1_555 1_555
C1 O1 1_555 1_555
C2 O3 1_555 1_555
O1B C1B 1_555 1_555
O2B Gd1 1_555 1_555
C1B C1 1_555 1_555
O3B C2B 1_555 1_555
O4B Gd1 1_555 1_555
C2B C2 1_555 1_555
Gd1B O2 1_555 1_555
Cl1B Gd1B 1_555 1_555
O5B Gd1B 1_555 1_555
H1B O5B 1_555 1_555
H2B O5B 1_555 1_555
O6B Gd1B 1_555 1_555
H3B O6B 1_555 1_555
H4B O6B 1_555 1_555
O7B Gd1B 1_555 1_555
H5B O7B 1_555 1_555
H6B O7B 1_555 1_555
Gd1_2 O4 1_555 1_555
Gd1B_2 O4B 1_555 1_555
Gd1B_3 O4 1_555 1_555
O3B_2 Gd1B 1_555 1_555
O4_2 Gd1B 1_555 1_555
O4_3 Gd1 1_555 1_555
O4B_2 Gd1B 1_555 1_555
O1B Gd1B 1_555 1_555
O2B C1B 1_555 1_555
O3B Gd1B_3 1_555 1_555
O4B C2B 1_555 1_555
Gd1B_2 O4_3 1_555 1_555

#END
