
#######################################################################
#
#                 Cambridge Crystallographic Data Centre
#                                CCDC 
#
#######################################################################
#
# If this CIF has been generated from an entry in the Cambridge 
# Structural Database, then it will include bibliographic, chemical, 
# crystal, experimental, refinement or atomic coordinate data resulting 
# from the CCDC's data processing and validation procedures.
#
#######################################################################

data_SOQVOK
_symmetry_cell_setting           triclinic
_symmetry_space_group_name_H-M   'P -1'
_symmetry_Int_Tables_number      2
_space_group_name_Hall           '-P 1'
loop_
_symmetry_equiv_pos_site_id
_symmetry_equiv_pos_as_xyz
1 x,y,z
2 -x,-y,-z
_cell_length_a                   7.5460(9)
_cell_length_b                   8.8890(14)
_cell_length_c                   9.0009(12)
_cell_angle_alpha                72.29(2)
_cell_angle_beta                 66.35(2)
_cell_angle_gamma                69.88(2)
_cell_volume                     509.503
loop_
_atom_site_label
_atom_site_type_symbol
_atom_site_fract_x
_atom_site_fract_y
_atom_site_fract_z
Mn1 Mn 0.0000 0.0000 1.0000
O1 O 0.1484(3) 0.1381(2) 1.0497(2)
O2 O 0.3682(3) 0.0738(2) 1.1822(2)
O3 O -0.2783(3) 0.0997(3) 1.1876(3)
H1 H -0.392(4) 0.107(5) 1.187(5)
H2 H -0.282(5) 0.081(4) 1.281(3)
N1 N 0.1016(3) 0.7574(3) 0.3329(3)
N2 N 0.0897(3) 0.7715(3) 0.1845(3)
N3 N 0.1649(4) 0.6274(3) 0.1395(3)
N4 N 0.2276(3) 0.5162(3) 0.2580(3)
N5 N 0.3278(3) 0.3723(3) 0.8119(3)
C1 C 0.1868(4) 0.5983(3) 0.3752(3)
C2 C 0.2298(4) 0.5216(3) 0.5294(3)
C3 C 0.1822(4) 0.6087(3) 0.6511(4)
H5 H 0.1154 0.7216 0.6369
C4 C 0.2318(4) 0.5317(3) 0.7914(4)
H6 H 0.1981 0.5913 0.8747
C5 C 0.3739(4) 0.2850(3) 0.6967(3)
H7 H 0.4412 0.1724 0.7138
C6 C 0.3254(4) 0.3559(3) 0.5548(3)
H8 H 0.3567 0.2927 0.4752
C7 C 0.3932(4) 0.2902(3) 0.9572(3)
H9 H 0.3662 0.3732 1.0214
H10 H 0.5397 0.2429 0.9183
C8 C 0.2927(4) 0.1553(3) 1.0719(3)
Mn1_2 Mn 0.0000 1.0000 0.0000
O1A O -0.1484(3) 0.8619(2) -0.0497(2)
O1A_2 O -0.1484(3) -0.1381(2) 0.9503(2)
O2A O -0.3682(3) 0.9262(2) -0.1822(2)
O3A O 0.2783(3) -0.0997(3) 0.8124(3)
H1A H 0.392(4) -0.107(5) 0.813(5)
H2A H 0.282(5) -0.081(4) 0.719(3)
N1A N -0.1016(3) 0.2426(3) 0.6671(3)
N2A N -0.0897(3) 0.2285(3) 0.8155(3)
N2_2 N 0.0897(3) -0.2285(3) 1.1845(3)
N3A N -0.1649(4) 0.3726(3) 0.8605(3)
N4A N -0.2276(3) 0.4838(3) 0.7420(3)
N5A N -0.3278(3) 0.6277(3) 0.1881(3)
C1A C -0.1868(4) 0.4017(3) 0.6248(3)
C2A C -0.2298(4) 0.4784(3) 0.4706(3)
C3A C -0.1822(4) 0.3913(3) 0.3489(4)
H5A H -0.1154 0.2784 0.3631
C4A C -0.2318(4) 0.4683(3) 0.2086(4)
H6A H -0.1981 0.4087 0.1253
C5A C -0.3739(4) 0.7150(3) 0.3033(3)
H7A H -0.4412 0.8276 0.2862
C6A C -0.3254(4) 0.6441(3) 0.4452(3)
H8A H -0.3567 0.7073 0.5248
C7A C -0.3932(4) 0.7098(3) 0.0428(3)
H9A H -0.3662 0.6268 -0.0214
H10A H -0.5397 0.7571 0.0817
C8A C -0.2927(4) 0.8447(3) -0.0719(3)
O4 O 0.7891(4) 1.0087(3) 0.4776(3)
H3 H 0.750(6) 0.995(5) 0.581(3)
H4 H 0.900(5) 0.936(4) 0.446(5)
loop_
_geom_bond_atom_site_label_1
_geom_bond_atom_site_label_2
_geom_bond_site_symmetry_1
_geom_bond_site_symmetry_2
Mn1 O1 1_555 1_555
O1 C8 1_555 1_555
O2 C8 1_555 1_555
O3 Mn1 1_555 1_555
H1 O3 1_555 1_555
H2 O3 1_555 1_555
O4 H3 1_555 1_555
H4 O4 1_555 1_555
N1 N2 1_555 1_555
N2 N3 1_555 1_555
N3 N4 1_555 1_555
N4 C1 1_555 1_555
N5 C4 1_555 1_555
C1 N1 1_555 1_555
C2 C1 1_555 1_555
C3 C2 1_555 1_555
H5 C3 1_555 1_555
C4 C3 1_555 1_555
H6 C4 1_555 1_555
C5 N5 1_555 1_555
H7 C5 1_555 1_555
C6 C2 1_555 1_555
H8 C6 1_555 1_555
C7 N5 1_555 1_555
H9 C7 1_555 1_555
H10 C7 1_555 1_555
C8 C7 1_555 1_555
Mn1_2 N2 1_555 1_555
O1A Mn1_2 1_555 1_555
O1A_2 Mn1 1_555 1_555
O2A C8A 1_555 1_555
O3A Mn1 1_555 1_555
H1A O3A 1_555 1_555
H2A O3A 1_555 1_555
N1A N2A 1_555 1_555
N2A Mn1 1_555 1_555
N2_2 Mn1 1_555 1_555
N3A N2A 1_555 1_555
N4A N3A 1_555 1_555
N5A C4A 1_555 1_555
C1A N1A 1_555 1_555
C2A C1A 1_555 1_555
C3A C2A 1_555 1_555
H5A C3A 1_555 1_555
C4A C3A 1_555 1_555
H6A C4A 1_555 1_555
C5A N5A 1_555 1_555
H7A C5A 1_555 1_555
C6A C2A 1_555 1_555
H8A C6A 1_555 1_555
C7A N5A 1_555 1_555
H9A C7A 1_555 1_555
H10A C7A 1_555 1_555
C8A O1A 1_555 1_555
C5 C6 1_555 1_555
N4A C1A 1_555 1_555
C5A C6A 1_555 1_555
C7A C8A 1_555 1_555

#END
