
#######################################################################
#
#                 Cambridge Crystallographic Data Centre
#                                CCDC 
#
#######################################################################
#
# If this CIF has been generated from an entry in the Cambridge 
# Structural Database, then it will include bibliographic, chemical, 
# crystal, experimental, refinement or atomic coordinate data resulting 
# from the CCDC's data processing and validation procedures.
#
#######################################################################

data_SOQWOL
_symmetry_cell_setting           monoclinic
_symmetry_space_group_name_H-M   'P 21/n'
_symmetry_Int_Tables_number      14
_space_group_name_Hall           '-P 2yn'
loop_
_symmetry_equiv_pos_site_id
_symmetry_equiv_pos_as_xyz
1 x,y,z
2 1/2-x,1/2+y,1/2-z
3 -x,-y,-z
4 1/2+x,1/2-y,1/2+z
_cell_length_a                   10.3796(3)
_cell_length_b                   31.0096(9)
_cell_length_c                   14.8454(5)
_cell_angle_alpha                90
_cell_angle_beta                 108.263(2)
_cell_angle_gamma                90
_cell_volume                     4537.56
loop_
_atom_site_label
_atom_site_type_symbol
_atom_site_fract_x
_atom_site_fract_y
_atom_site_fract_z
Pr1 Pr -0.15718(5) 1.015722(14) 0.22075(4)
Ru1 Ru 0.05975(7) 0.87976(2) 0.06227(5)
Ru2 Ru -0.44553(7) 0.87448(2) 0.29828(5)
C1 C 0.2038(8) 0.8237(3) -0.0528(6)
H1 H 0.2118 0.8496 -0.0847
C2 C 0.2597(9) 0.7867(3) -0.0755(7)
H2 H 0.3070 0.7875 -0.1209
C3 C 0.2468(9) 0.7497(3) -0.0330(7)
H3 H 0.2845 0.7240 -0.0489
C4 C 0.1790(9) 0.7482(3) 0.0341(7)
C5 C 0.1560(9) 0.7101(3) 0.0822(7)
H4 H 0.1871 0.6831 0.0674
C6 C 0.0913(9) 0.7121(3) 0.1480(7)
H5 H 0.0755 0.6862 0.1770
C7 C 0.0463(9) 0.7515(3) 0.1749(7)
C8 C -0.0150(9) 0.7557(3) 0.2471(7)
H6 H -0.0310 0.7310 0.2798
C9 C -0.0505(10) 0.7954(3) 0.2692(7)
H7 H -0.0911 0.7984 0.3181
C10 C -0.0282(9) 0.8320(3) 0.2208(7)
H8 H -0.0532 0.8595 0.2383
C11 C 0.0637(8) 0.7896(2) 0.1293(7)
C12 C 0.1288(8) 0.7879(3) 0.0567(6)
C13 C -0.0091(9) 0.9277(3) 0.1214(7)
C14 C -0.1271(9) 0.8711(2) -0.0288(7)
C15 C 0.2513(8) 0.8875(2) 0.1526(6)
C16 C -0.0907(9) 1.0799(3) 0.0294(7)
C17 C -0.3565(9) 0.8363(3) 0.1293(7)
H9 H -0.3290 0.8646 0.1192
C18 C -0.3399(10) 0.8032(3) 0.0710(7)
H10 H -0.3010 0.8092 0.0224
C19 C -0.3789(9) 0.7621(3) 0.0831(7)
H11 H -0.3672 0.7395 0.0432
C20 C -0.4364(8) 0.7539(3) 0.1550(7)
C21 C -0.4845(9) 0.7117(3) 0.1715(7)
H12 H -0.4711 0.6877 0.1357
C22 C -0.5474(8) 0.7062(3) 0.2363(7)
H13 H -0.5787 0.6782 0.2453
C23 C -0.5688(8) 0.7407(3) 0.2923(6)
C24 C -0.6405(9) 0.7377(3) 0.3578(7)
H14 H -0.6771 0.7107 0.3680
C25 C -0.6582(8) 0.7731(3) 0.4072(6)
H15 H -0.7084 0.7713 0.4506
C26 C -0.6006(8) 0.8125(3) 0.3926(6)
H16 H -0.6111 0.8368 0.4287
C27 C -0.5190(8) 0.7822(2) 0.2803(6)
C28 C -0.4528(8) 0.7883(2) 0.2101(6)
C29 C -0.4905(9) 0.9104(3) 0.3925(7)
C30 C -0.2608(9) 0.8614(3) 0.3919(7)
C31 C -0.3607(9) 0.9253(3) 0.2600(7)
N1 N 0.1386(6) 0.8251(2) 0.0120(5)
N2 N 0.0268(6) 0.8297(2) 0.1514(5)
N3 N -0.0469(9) 0.9558(3) 0.1573(6)
N4 N -0.2344(8) 0.8676(2) -0.0842(6)
N5 N 0.3634(9) 0.8867(2) 0.2024(6)
N6 N -0.1036(9) 1.0567(2) 0.0887(6)
N7 N -0.4102(6) 0.8295(2) 0.1993(5)
N8 N -0.5329(6) 0.8177(2) 0.3315(5)
N9 N -0.5268(10) 0.9313(3) 0.4439(7)
N10 N -0.1540(8) 0.8560(2) 0.4443(6)
N11 N -0.3079(8) 0.9553(2) 0.2409(6)
O1 O -0.3765(8) 1.0528(3) 0.1843(9)
H17 H -0.4110 1.0770 0.1627
H18 H -0.4367 1.0404 0.2028
O2 O -0.1095(11) 1.0941(3) 0.2706(8)
H19 H -0.1657 1.1070 0.2924
H20 H -0.0289 1.0982 0.2697
O3 O -0.0142(9) 0.9718(3) 0.3581(7)
H21 H 0.0440 0.9531 0.3548
H22 H -0.0421 0.9637 0.4035
O4 O -0.1960(15) 1.0342(4) 0.3757(8)
H23 H -0.2346 1.0228 0.4125
H24 H -0.1149 1.0398 0.4091
O5 O 0.0953(11) 1.0297(4) 0.2821(10)
H25 H 0.1282 1.0542 0.2757
H26 H 0.0886 1.0296 0.3377
O6 O -0.3156(7) 0.9927(2) 0.0534(5)
H27 H -0.2775 0.9903 0.0106
H28 H -0.3818 0.9759 0.0496
Ru1B Ru -0.05975(7) 1.12024(2) -0.06227(5)
Ru2_2 Ru 0.55447(7) 0.87448(2) 0.29828(5)
C16B C 0.0907(9) 0.9201(3) -0.0294(7)
N5_2 N -0.6366(9) 0.8867(2) 0.2024(6)
O7 O 0.1785(8) 0.9090(3) 0.3463(7)
H29 H 0.1648 0.8903 0.3841
H30 H 0.2612 0.9155 0.3734
O8 O 0.1334(8) 0.8440(3) 0.4760(7)
H31 H 0.1829 0.8497 0.5322
H32 H 0.0489 0.8474 0.4664
O9 O 0.5378(7) 0.0649(2) 0.9599(5)
H33 H 0.5819 0.0431 0.9880
H34 H 0.4775 0.0597 0.9072
O10 O 0.1871(8) 0.0159(3) 0.0900(6)
H35 H 0.2578 0.0140 0.1381
H36 H 0.1114 0.0265 0.0894
O11 O 0.4593(13) 0.0884(5) 0.3618(8)
H37 H 0.4787 0.0823 0.4204
H38 H 0.5271 0.1018 0.3551
O12 O 0.2000(11) 0.1095(3) 0.2640(7)
H39 H 0.2094 0.1163 0.2110
H40 H 0.2814 0.1030 0.2951
O13 O 0.5186(11) 0.1298(6) 0.1171(13)
H41 H 0.4335 0.1308 0.1079
H42 H 0.5245 0.1124 0.0744
O14 O 0.4156(13) 0.0092(4) 0.2486(9)
H43 H 0.4285 0.0321 0.2817
H44 H 0.4853 -0.0047 0.2467
O15 O 0.8982(19) 0.9462(4) 0.5015(8)
H45 H 0.8831 0.9200 0.4848
H46 H 0.8309 0.9620 0.5008
O16 O 0.2942(14) 0.8620(6) 0.6633(17)
H47 H 0.2692 0.8882 0.6535
H48 H 0.3437 0.8643 0.7207
O17 O 0.683(2) -0.0037(5) 0.4992(15)
H49 H 0.6148 -0.0252 0.4809
H50 H 0.6349 0.0190 0.5171
loop_
_geom_bond_atom_site_label_1
_geom_bond_atom_site_label_2
_geom_bond_site_symmetry_1
_geom_bond_site_symmetry_2
Pr1 N3 1_555 1_555
Ru1 C13 1_555 1_555
Ru2 C29 1_555 1_555
C1 H1 1_555 1_555
C2 C1 1_555 1_555
H2 C2 1_555 1_555
C3 C2 1_555 1_555
H3 C3 1_555 1_555
C4 C3 1_555 1_555
C5 C4 1_555 1_555
H4 C5 1_555 1_555
C6 C5 1_555 1_555
H5 C6 1_555 1_555
C7 C6 1_555 1_555
C8 C7 1_555 1_555
H6 C8 1_555 1_555
C9 C8 1_555 1_555
H7 C9 1_555 1_555
C10 C9 1_555 1_555
H8 C10 1_555 1_555
C11 C7 1_555 1_555
C12 C4 1_555 1_555
C13 N3 1_555 1_555
C14 Ru1 1_555 1_555
C15 Ru1 1_555 1_555
C16 N6 1_555 1_555
C17 H9 1_555 1_555
C18 C17 1_555 1_555
H10 C18 1_555 1_555
C19 C18 1_555 1_555
H11 C19 1_555 1_555
C20 C19 1_555 1_555
C21 C20 1_555 1_555
H12 C21 1_555 1_555
C22 C21 1_555 1_555
H13 C22 1_555 1_555
C23 C22 1_555 1_555
C24 C23 1_555 1_555
H14 C24 1_555 1_555
C25 C24 1_555 1_555
H15 C25 1_555 1_555
C26 C25 1_555 1_555
H16 C26 1_555 1_555
C27 C23 1_555 1_555
C28 C20 1_555 1_555
C29 N9 1_555 1_555
C30 Ru2 1_555 1_555
C31 Ru2 1_555 1_555
N1 Ru1 1_555 1_555
N2 Ru1 1_555 1_555
N4 C14 1_555 1_555
N5 C15 1_555 1_555
N6 Pr1 1_555 1_555
N7 Ru2 1_555 1_555
N8 Ru2 1_555 1_555
N10 C30 1_555 1_555
N11 Pr1 1_555 1_555
O1 Pr1 1_555 1_555
H17 O1 1_555 1_555
H18 O1 1_555 1_555
O2 Pr1 1_555 1_555
H19 O2 1_555 1_555
H20 O2 1_555 1_555
O3 Pr1 1_555 1_555
H21 O3 1_555 1_555
H22 O3 1_555 1_555
O4 Pr1 1_555 1_555
H23 O4 1_555 1_555
H24 O4 1_555 1_555
O5 Pr1 1_555 1_555
H25 O5 1_555 1_555
H26 O5 1_555 1_555
O6 Pr1 1_555 1_555
H27 O6 1_555 1_555
H28 O6 1_555 1_555
O7 H29 1_555 1_555
H30 O7 1_555 1_555
O8 H31 1_555 1_555
H32 O8 1_555 1_555
O9 H33 1_555 1_555
H34 O9 1_555 1_555
O10 H35 1_555 1_555
H36 O10 1_555 1_555
O11 H37 1_555 1_555
H38 O11 1_555 1_555
O12 H39 1_555 1_555
H40 O12 1_555 1_555
O13 H41 1_555 1_555
H42 O13 1_555 1_555
O14 H43 1_555 1_555
H44 O14 1_555 1_555
O15 H45 1_555 1_555
H46 O15 1_555 1_555
O16 H47 1_555 1_555
H48 O16 1_555 1_555
O17 H49 1_555 1_555
H50 O17 1_555 1_555
Ru1B C16 1_555 1_555
Ru2_2 N5 1_555 1_555
C16B Ru1 1_555 1_555
N5_2 Ru2 1_555 1_555
C1 N1 1_555 1_555
C10 N2 1_555 1_555
C11 C12 1_555 1_555
C11 N2 1_555 1_555
C12 N1 1_555 1_555
C17 N7 1_555 1_555
C26 N8 1_555 1_555
C27 C28 1_555 1_555
C27 N8 1_555 1_555
C28 N7 1_555 1_555
C31 N11 1_555 1_555

#END
