
#######################################################################
#
#                 Cambridge Crystallographic Data Centre
#                                CCDC 
#
#######################################################################
#
# If this CIF has been generated from an entry in the Cambridge 
# Structural Database, then it will include bibliographic, chemical, 
# crystal, experimental, refinement or atomic coordinate data resulting 
# from the CCDC's data processing and validation procedures.
#
#######################################################################

data_SOQZAB
_symmetry_cell_setting           monoclinic
_symmetry_space_group_name_H-M   'P 21/c'
_symmetry_Int_Tables_number      14
_space_group_name_Hall           '-P 2ybc'
loop_
_symmetry_equiv_pos_site_id
_symmetry_equiv_pos_as_xyz
1 x,y,z
2 -x,1/2+y,1/2-z
3 -x,-y,-z
4 x,1/2-y,1/2+z
_cell_length_a                   18.7933(9)
_cell_length_b                   17.7755(6)
_cell_length_c                   8.2471(3)
_cell_angle_alpha                90
_cell_angle_beta                 99.723(4)
_cell_angle_gamma                90
_cell_volume                     2715.45
loop_
_atom_site_label
_atom_site_type_symbol
_atom_site_fract_x
_atom_site_fract_y
_atom_site_fract_z
Pb1 Pb 0.18177(3) 0.51952(2) 0.04343(5)
Pb2 Pb 0.01333(3) 0.45338(2) 0.20498(5)
Pb3 Pb 0.05987(3) 0.65952(2) 0.16916(6)
O1 O 0.0616(4) 0.5459(4) 0.0430(8)
O2 O -0.1025(5) 0.5103(4) 0.2604(9)
O3 O 0.1631(5) 0.5701(5) 0.3096(9)
O4 O -0.0113(5) 0.5844(5) 0.3627(9)
C1 C -0.2014(7) 0.6131(6) 0.3554(13)
H1 H -0.2166 0.5634 0.3408
O5 O 0.2792(6) 0.5651(6) 0.3018(11)
C2 C 0.1879(7) 0.6374(6) 0.6231(13)
H2 H 0.1402 0.6353 0.5698
C3 C -0.1048(7) 0.7038(6) 0.3935(12)
H3 H -0.0559 0.7148 0.4044
C4 C -0.0789(7) 0.5705(7) 0.3287(13)
C5 C -0.1295(7) 0.6310(7) 0.3635(14)
C6 C 0.2758(8) 0.6645(6) 0.8635(14)
H4 H 0.2856 0.6810 0.9720
C7 C 0.3160(7) 0.6187(7) 0.6253(13)
H5 H 0.3527 0.6052 0.5683
C8 C 0.2050(7) 0.6631(7) 0.7835(13)
C9 C 0.2434(8) 0.6152(7) 0.5451(12)
C10 C 0.3332(7) 0.6419(7) 0.7867(15)
C11 C -0.2521(7) 0.6708(7) 0.3693(14)
C12 C 0.2282(9) 0.5827(7) 0.3740(16)
C13 C -0.3306(8) 0.6475(7) 0.3646(18)
C14 C 0.4124(9) 0.5946(10) 1.0398(16)
H6 H 0.3807 0.6157 1.1075
H7 H 0.4608 0.5934 1.1003
H8 H 0.3972 0.5444 1.0084
C15 C 0.4104(8) 0.6435(8) 0.8839(15)
C16 C 0.4296(9) 0.7247(10) 0.9398(17)
H9 H 0.4289 0.7562 0.8450
H10 H 0.4769 0.7256 1.0054
H11 H 0.3950 0.7428 1.0037
C17 C -0.3816(9) 0.7140(9) 0.347(2)
H12 H -0.3763 0.7407 0.4500
H13 H -0.4304 0.6965 0.3181
H14 H -0.3704 0.7471 0.2632
C18 C 0.4660(9) 0.6165(11) 0.7820(17)
H15 H 0.4530 0.5672 0.7393
H16 H 0.5128 0.6146 0.8502
H17 H 0.4673 0.6507 0.6925
C19 C -0.3398(9) 0.6013(10) 0.521(2)
H18 H -0.3059 0.5605 0.5347
H19 H -0.3880 0.5817 0.5080
H20 H -0.3310 0.6334 0.6157
C20 C -0.3562(9) 0.5969(10) 0.212(2)
H21 H -0.3550 0.6254 0.1133
H22 H -0.4046 0.5801 0.2133
H23 H -0.3248 0.5542 0.2144
C21 C -0.1552(7) 0.7606(6) 0.4071(13)
C22 C -0.1317(9) 0.8411(7) 0.4223(16)
C23 C -0.2269(8) 0.7427(6) 0.3941(15)
H24 H -0.2598 0.7811 0.4024
O6 O -0.0676(6) 0.8553(5) 0.4825(11)
O7 O -0.1764(5) 0.8920(5) 0.3730(10)
O8 O 0.1624(6) 0.6760(5) 1.0335(11)
O9 O 0.0803(6) 0.6858(5) 0.8097(11)
C24 C 0.1461(9) 0.6778(8) 0.8812(17)
Pb1_2 Pb 0.18177(3) 0.51952(2) 1.04343(5)
Pb1A Pb -0.18177(3) 1.01952(2) 0.45657(5)
Pb1B Pb -0.18177(3) 0.48048(2) -0.04343(5)
Pb2A Pb -0.01333(3) 0.95338(2) 0.29502(5)
Pb2B Pb -0.01333(3) 0.54662(2) -0.20498(5)
Pb3_2 Pb 0.05987(3) 0.65952(2) 1.16916(6)
Pb3C Pb 0.05987(3) 0.84048(2) 0.66916(6)
O1B O -0.0616(4) 0.4541(4) -0.0430(8)
O2B O 0.1025(5) 0.4897(4) -0.2604(9)
O6A O 0.0676(6) 0.3553(5) 0.0175(11)
O6C O -0.0676(6) 0.6447(5) -0.0175(11)
O7A O 0.1764(5) 0.3920(5) 0.1270(10)
O8_2 O 0.1624(6) 0.6760(5) 0.0335(11)
loop_
_geom_bond_atom_site_label_1
_geom_bond_atom_site_label_2
_geom_bond_site_symmetry_1
_geom_bond_site_symmetry_2
Pb1 O1 1_555 1_555
Pb2 O1 1_555 1_555
Pb3 O1 1_555 1_555
O1 Pb2B 1_555 1_555
O2 Pb2 1_555 1_555
O3 Pb1 1_555 1_555
O4 Pb2 1_555 1_555
C1 H1 1_555 1_555
O5 Pb1 1_555 1_555
C2 H2 1_555 1_555
C3 H3 1_555 1_555
C4 O2 1_555 1_555
C5 C1 1_555 1_555
C6 H4 1_555 1_555
C7 H5 1_555 1_555
C8 C2 1_555 1_555
C9 C2 1_555 1_555
C10 C6 1_555 1_555
C11 C1 1_555 1_555
C12 O3 1_555 1_555
C13 C11 1_555 1_555
C14 H6 1_555 1_555
H7 C14 1_555 1_555
H8 C14 1_555 1_555
C15 C10 1_555 1_555
C16 C15 1_555 1_555
H9 C16 1_555 1_555
H10 C16 1_555 1_555
H11 C16 1_555 1_555
C17 C13 1_555 1_555
H12 C17 1_555 1_555
H13 C17 1_555 1_555
H14 C17 1_555 1_555
C18 C15 1_555 1_555
H15 C18 1_555 1_555
H16 C18 1_555 1_555
H17 C18 1_555 1_555
C19 C13 1_555 1_555
H18 C19 1_555 1_555
H19 C19 1_555 1_555
H20 C19 1_555 1_555
C20 C13 1_555 1_555
H21 C20 1_555 1_555
H22 C20 1_555 1_555
H23 C20 1_555 1_555
C21 C3 1_555 1_555
C22 C21 1_555 1_555
C23 C11 1_555 1_555
H24 C23 1_555 1_555
O6 C22 1_555 1_555
O7 C22 1_555 1_555
O8 C24 1_555 1_555
O9 C24 1_555 1_555
C24 C8 1_555 1_555
Pb1_2 O8 1_555 1_555
Pb1A O7 1_555 1_555
Pb1B O2 1_555 1_555
Pb2A O6 1_555 1_555
Pb2B O1B 1_555 1_555
Pb3_2 O8 1_555 1_555
Pb3C O6 1_555 1_555
O1B Pb2 1_555 1_555
O2B Pb1 1_555 1_555
O6A Pb2 1_555 1_555
O6C Pb3 1_555 1_555
O7A Pb1 1_555 1_555
O8_2 Pb1 1_555 1_555
Pb3 O3 1_555 1_555
Pb3 O4 1_555 1_555
Pb3 O8_2 1_555 1_555
O4 C4 1_555 1_555
O5 C12 1_555 1_555
C3 C5 1_555 1_555
C4 C5 1_555 1_555
C6 C8 1_555 1_555
C7 C9 1_555 1_555
C7 C10 1_555 1_555
C9 C12 1_555 1_555
C14 C15 1_555 1_555
C21 C23 1_555 1_555
Pb1B O1B 1_555 1_555
Pb2B O2B 1_555 1_555
Pb2B O6C 1_555 1_555

#END
