
#######################################################################
#
#                 Cambridge Crystallographic Data Centre
#                                CCDC 
#
#######################################################################
#
# If this CIF has been generated from an entry in the Cambridge 
# Structural Database, then it will include bibliographic, chemical, 
# crystal, experimental, refinement or atomic coordinate data resulting 
# from the CCDC's data processing and validation procedures.
#
#######################################################################

data_SOQZIJ
_symmetry_cell_setting           orthorhombic
_symmetry_space_group_name_H-M   'I b a 2'
_symmetry_Int_Tables_number      45
_space_group_name_Hall           'I 2 -2c'
loop_
_symmetry_equiv_pos_site_id
_symmetry_equiv_pos_as_xyz
1 x,y,z
2 -x,-y,z
3 -x,y,1/2+z
4 x,-y,1/2+z
5 1/2+x,1/2+y,1/2+z
6 1/2-x,1/2-y,1/2+z
7 1/2-x,1/2+y,z
8 1/2+x,1/2-y,z
_cell_length_a                   16.2354(8)
_cell_length_b                   19.1181(10)
_cell_length_c                   8.2268(4)
_cell_angle_alpha                90
_cell_angle_beta                 90
_cell_angle_gamma                90
_cell_volume                     2553.52
loop_
_atom_site_label
_atom_site_type_symbol
_atom_site_fract_x
_atom_site_fract_y
_atom_site_fract_z
Pb1 Pb -0.00001(3) 0.878750(13) 0.6728(5)
O1 O 0.1097(4) 0.9112(3) 0.4186(12)
O2 O 0.1377(5) 0.8391(5) 0.6153(10)
O3 O 0.4058(5) 0.7159(4) 0.6389(10)
O4 O 0.4706(4) 0.6959(3) 0.4072(12)
C1 C 0.1590(7) 0.8675(5) 0.4820(13)
C2 C 0.2378(5) 0.8480(4) 0.4072(15)
C3 C 0.2875(6) 0.7997(5) 0.4834(12)
H1 H 0.2719 0.7799 0.5819
C4 C 0.3612(5) 0.7811(4) 0.4102(15)
C5 C 0.4163(8) 0.7275(6) 0.4872(15)
C6 C 0.3854(7) 0.8124(5) 0.2622(12)
H2 H 0.4344 0.7987 0.2130
C7 C 0.3383(7) 0.8621(5) 0.1908(13)
C8 C 0.2622(9) 0.8803(6) 0.2625(15)
H3 H 0.2285 0.9136 0.2137
C9 C 0.3644(7) 0.8996(6) 0.0330(14)
C10 C 0.4563(8) 0.8963(6) 0.0113(15)
H4 H 0.4698 0.8587 -0.0614
H5 H 0.4820 0.8883 0.1147
H6 H 0.4756 0.9396 -0.0333
C11 C 0.3224(16) 0.8621(9) -0.1064(19)
H7 H 0.2647 0.8576 -0.0836
H8 H 0.3462 0.8164 -0.1192
H9 H 0.3298 0.8884 -0.2047
C12 C 0.3401(10) 0.9741(7) 0.0259(18)
H10 H 0.3526 0.9963 0.1277
H11 H 0.2821 0.9775 0.0050
H12 H 0.3699 0.9970 -0.0597
Pb1B Pb 0.00001(3) 0.878750(13) 0.1728(5)
Pb1E Pb 0.50001(3) 0.621250(13) 0.1728(5)
Pb1G Pb 0.49999(3) 0.621250(13) 0.6728(5)
O1B O -0.1097(4) 0.9112(3) 0.9186(12)
O3G O -0.0942(5) 0.7841(4) 0.6389(10)
O4E O 0.0294(4) 0.8041(3) 0.9072(12)
O4G O -0.0294(4) 0.8041(3) 0.4072(12)
O5 O 0.1044(6) 0.9486(4) 0.9176(18)
H13 H 0.1009 0.9929 0.9166
H14 H 0.1333 0.9316 0.8410
loop_
_geom_bond_atom_site_label_1
_geom_bond_atom_site_label_2
_geom_bond_site_symmetry_1
_geom_bond_site_symmetry_2
Pb1 O1 1_555 1_555
O1 C1 1_555 1_555
O2 Pb1 1_555 1_555
O3 C5 1_555 1_555
O4 C5 1_555 1_555
C1 O2 1_555 1_555
C2 C1 1_555 1_555
C3 C2 1_555 1_555
H1 C3 1_555 1_555
C4 C3 1_555 1_555
C5 C4 1_555 1_555
C6 C4 1_555 1_555
H2 C6 1_555 1_555
C7 C6 1_555 1_555
C8 C2 1_555 1_555
H3 C8 1_555 1_555
C9 C7 1_555 1_555
C10 C9 1_555 1_555
H4 C10 1_555 1_555
H5 C10 1_555 1_555
H6 C10 1_555 1_555
C11 C9 1_555 1_555
H7 C11 1_555 1_555
H8 C11 1_555 1_555
H9 C11 1_555 1_555
C12 C9 1_555 1_555
H10 C12 1_555 1_555
H11 C12 1_555 1_555
H12 C12 1_555 1_555
O5 H13 1_555 1_555
H14 O5 1_555 1_555
Pb1B O1 1_555 1_555
Pb1E O4 1_555 1_555
Pb1G O3 1_555 1_555
O1B Pb1 1_555 1_555
O3G Pb1 1_555 1_555
O4E Pb1 1_555 1_555
O4G Pb1 1_555 1_555
O4 Pb1G 1_555 1_555
C7 C8 1_555 1_555
Pb1B O4G 1_555 1_555

#END
