
#######################################################################
#
#                 Cambridge Crystallographic Data Centre
#                                CCDC 
#
#######################################################################
#
# If this CIF has been generated from an entry in the Cambridge 
# Structural Database, then it will include bibliographic, chemical, 
# crystal, experimental, refinement or atomic coordinate data resulting 
# from the CCDC's data processing and validation procedures.
#
#######################################################################

data_SOQZEE
_symmetry_cell_setting           orthorhombic
_symmetry_space_group_name_H-M   'P b c a'
_symmetry_Int_Tables_number      61
_space_group_name_Hall           '-P 2ac 2ab'
loop_
_symmetry_equiv_pos_site_id
_symmetry_equiv_pos_as_xyz
1 x,y,z
2 1/2-x,-y,1/2+z
3 -x,1/2+y,1/2-z
4 1/2+x,1/2-y,-z
5 -x,-y,-z
6 1/2+x,y,1/2-z
7 x,1/2-y,1/2+z
8 1/2-x,1/2+y,z
_cell_length_a                   8.5556(11)
_cell_length_b                   14.8590(19)
_cell_length_c                   21.182(3)
_cell_angle_alpha                90
_cell_angle_beta                 90
_cell_angle_gamma                90
_cell_volume                     2692.82
loop_
_atom_site_label
_atom_site_type_symbol
_atom_site_fract_x
_atom_site_fract_y
_atom_site_fract_z
Mn1 Mn 0.07257(9) 0.09515(5) 0.46306(3)
N1 N 0.2489(5) 0.0101(3) 0.4106(2)
N2 N 0.0117(6) 0.2005(3) 0.1791(2)
N3 N -0.1024(5) -0.0177(3) 0.44925(19)
N4 N -0.1409(5) -0.0434(3) 0.3980(2)
N5 N -0.1750(6) -0.0665(3) 0.3488(2)
N6 N 0.2566(7) 0.1896(4) 0.4870(3)
N7 N 0.3235(6) 0.2517(4) 0.4985(2)
N8 N 0.3928(7) 0.3126(4) 0.5097(3)
O1 O 0.0546(4) 0.1282(2) 0.36365(15)
C1 C 0.2474(6) 0.0177(3) 0.3475(2)
C2 C 0.3434(7) -0.0337(4) 0.3097(3)
H1 H 0.3398 -0.0282 0.2660
C3 C 0.4440(7) -0.0930(4) 0.3378(3)
H2 H 0.5104 -0.1277 0.3130
C4 C 0.4476(7) -0.1015(4) 0.4013(3)
H3 H 0.5152 -0.1420 0.4207
C5 C 0.3488(7) -0.0487(4) 0.4364(3)
H4 H 0.3513 -0.0541 0.4802
C6 C 0.1361(6) 0.0878(3) 0.3238(2)
C7 C 0.1318(6) 0.1072(3) 0.2585(2)
H5 H 0.1966 0.0765 0.2306
C8 C 0.0315(6) 0.1716(3) 0.2369(3)
H6 H -0.0312 0.1986 0.2674
C9 C 0.1046(7) 0.1658(4) 0.1268(3)
H7 H 0.2116 0.1839 0.1320
H8 H 0.0650 0.1894 0.0878
H9 H 0.0984 0.1013 0.1262
C10 C -0.1043(7) 0.2696(4) 0.1648(3)
H10 H -0.1563 0.2874 0.2029
H11 H -0.1795 0.2460 0.1355
H12 H -0.0533 0.3209 0.1464
Mn1D Mn -0.07257(9) -0.09515(5) 0.53694(3)
Mn1C Mn 0.57257(9) 0.40485(5) 0.53694(3)
N3D N 0.1024(5) 0.0177(3) 0.55075(19)
N8C N -0.1072(7) 0.1874(4) 0.4903(3)
loop_
_geom_bond_atom_site_label_1
_geom_bond_atom_site_label_2
_geom_bond_site_symmetry_1
_geom_bond_site_symmetry_2
Mn1 N1 1_555 1_555
N1 C1 1_555 1_555
N2 C8 1_555 1_555
N3 Mn1 1_555 1_555
N4 N3 1_555 1_555
N5 N4 1_555 1_555
N6 Mn1 1_555 1_555
N7 N6 1_555 1_555
N8 N7 1_555 1_555
O1 Mn1 1_555 1_555
C1 C2 1_555 1_555
C2 H1 1_555 1_555
C3 C2 1_555 1_555
H2 C3 1_555 1_555
C4 C3 1_555 1_555
H3 C4 1_555 1_555
C5 N1 1_555 1_555
H4 C5 1_555 1_555
C6 O1 1_555 1_555
C7 C6 1_555 1_555
H5 C7 1_555 1_555
C8 C7 1_555 1_555
H6 C8 1_555 1_555
C9 N2 1_555 1_555
H7 C9 1_555 1_555
H8 C9 1_555 1_555
H9 C9 1_555 1_555
C10 N2 1_555 1_555
H10 C10 1_555 1_555
H11 C10 1_555 1_555
H12 C10 1_555 1_555
Mn1D N3 1_555 1_555
Mn1C N8 1_555 1_555
N3D Mn1 1_555 1_555
N8C Mn1 1_555 1_555
C1 C6 1_555 1_555
C4 C5 1_555 1_555
Mn1D N3D 1_555 1_555

#END
