
#######################################################################
#
#                 Cambridge Crystallographic Data Centre
#                                CCDC 
#
#######################################################################
#
# If this CIF has been generated from an entry in the Cambridge 
# Structural Database, then it will include bibliographic, chemical, 
# crystal, experimental, refinement or atomic coordinate data resulting 
# from the CCDC's data processing and validation procedures.
#
#######################################################################

data_SORBIL
_symmetry_cell_setting           monoclinic
_symmetry_space_group_name_H-M   'P 21/c'
_symmetry_Int_Tables_number      14
_space_group_name_Hall           '-P 2ybc'
loop_
_symmetry_equiv_pos_site_id
_symmetry_equiv_pos_as_xyz
1 x,y,z
2 -x,1/2+y,1/2-z
3 -x,-y,-z
4 x,1/2-y,1/2+z
_cell_length_a                   19.649(3)
_cell_length_b                   8.5803(11)
_cell_length_c                   10.7390(14)
_cell_angle_alpha                90
_cell_angle_beta                 104.249(2)
_cell_angle_gamma                90
_cell_volume                     1754.83
loop_
_atom_site_label
_atom_site_type_symbol
_atom_site_fract_x
_atom_site_fract_y
_atom_site_fract_z
Zn1 Zn 0.41545(3) 0.59398(7) 0.60189(5)
Zn2 Zn 0.19343(3) 0.67098(7) 0.22909(6)
P1 P 0.25310(7) 0.66674(16) 0.53503(12)
P2 P 0.54068(7) 0.37045(15) 0.66909(12)
Cl1 Cl 0.14743(9) 0.43457(19) 0.20244(18)
O1 O 0.31553(18) 0.5645(4) 0.5366(3)
O2 O 0.22031(19) 0.7371(5) 0.4042(3)
O3 O 0.26749(18) 0.7970(4) 0.6355(3)
O4 O -0.0144(2) 0.6617(6) 0.6056(4)
O5 O 0.46676(17) 0.4102(4) 0.6781(3)
O6 O 0.57224(18) 0.2448(4) 0.7627(3)
O7 O 0.54345(19) 0.3312(4) 0.5331(3)
O8 O 0.6834(2) 0.6549(5) 1.1144(3)
N1 N 0.1352(2) 0.6376(5) 0.6277(4)
N2 N 0.6362(2) 0.5376(5) 0.8571(4)
C1 C 0.1901(3) 0.5443(6) 0.5886(5)
H1 H 0.1680 0.4742 0.5196
H2 H 0.2148 0.4814 0.6607
C2 C 0.0836(3) 0.6963(7) 0.5108(5)
H3 H 0.0689 0.6104 0.4516
H4 H 0.1064 0.7731 0.4685
C3 C 0.0197(3) 0.7688(8) 0.5410(6)
H5 H 0.0337 0.8601 0.5945
H6 H -0.0126 0.8020 0.4618
C4 C 0.0321(3) 0.6171(9) 0.7211(6)
H7 H 0.0080 0.5483 0.7678
H8 H 0.0468 0.7089 0.7736
C5 C 0.0965(3) 0.5349(7) 0.6989(6)
H9 H 0.1273 0.5060 0.7809
H10 H 0.0822 0.4402 0.6500
C6 C 0.5966(3) 0.5430(6) 0.7187(4)
H11 H 0.6298 0.5509 0.6655
H12 H 0.5674 0.6356 0.7043
C7 C 0.6870(3) 0.6706(6) 0.8911(5)
H13 H 0.6615 0.7685 0.8805
H14 H 0.7185 0.6710 0.8343
C8 C 0.7288(3) 0.6538(7) 1.0289(5)
H15 H 0.7550 0.5569 1.0387
H16 H 0.7622 0.7389 1.0503
C9 C 0.6349(3) 0.5280(7) 1.0858(5)
H17 H 0.6047 0.5294 1.1450
H18 H 0.6605 0.4303 1.0973
C10 C 0.5902(3) 0.5383(6) 0.9492(5)
H19 H 0.5582 0.4505 0.9316
H20 H 0.5626 0.6332 0.9385
H21 H 0.663(3) 0.450(6) 0.866(4)
Zn1A Zn 0.58455(3) 0.09398(7) 0.89811(5)
Zn1B Zn 0.58455(3) 0.40602(7) 0.39811(5)
Zn2C Zn 0.19343(3) 0.82902(7) 0.72909(6)
O3C O 0.26749(18) 0.7030(4) 0.1355(3)
O6A O 0.42776(18) 0.7448(4) 0.7373(3)
O7B O 0.45655(19) 0.6688(4) 0.4669(3)
N1C N 0.1352(2) 0.8624(5) 0.1277(4)
loop_
_geom_bond_atom_site_label_1
_geom_bond_atom_site_label_2
_geom_bond_site_symmetry_1
_geom_bond_site_symmetry_2
Zn1 O1 1_555 1_555
Zn2 Cl1 1_555 1_555
P1 O1 1_555 1_555
P2 O5 1_555 1_555
O2 Zn2 1_555 1_555
O3 P1 1_555 1_555
O4 C3 1_555 1_555
O5 Zn1 1_555 1_555
O6 P2 1_555 1_555
O7 P2 1_555 1_555
O8 C8 1_555 1_555
N1 C1 1_555 1_555
N2 C6 1_555 1_555
C1 P1 1_555 1_555
H1 C1 1_555 1_555
H2 C1 1_555 1_555
C2 N1 1_555 1_555
H3 C2 1_555 1_555
H4 C2 1_555 1_555
C3 C2 1_555 1_555
H5 C3 1_555 1_555
H6 C3 1_555 1_555
C4 O4 1_555 1_555
H7 C4 1_555 1_555
H8 C4 1_555 1_555
C5 N1 1_555 1_555
H9 C5 1_555 1_555
H10 C5 1_555 1_555
C6 P2 1_555 1_555
H11 C6 1_555 1_555
H12 C6 1_555 1_555
C7 N2 1_555 1_555
H13 C7 1_555 1_555
H14 C7 1_555 1_555
C8 C7 1_555 1_555
H15 C8 1_555 1_555
H16 C8 1_555 1_555
C9 O8 1_555 1_555
H17 C9 1_555 1_555
H18 C9 1_555 1_555
C10 N2 1_555 1_555
H19 C10 1_555 1_555
H20 C10 1_555 1_555
H21 N2 1_555 1_555
Zn1A O6 1_555 1_555
Zn1B O7 1_555 1_555
Zn2C O3 1_555 1_555
O3C Zn2 1_555 1_555
O6A Zn1 1_555 1_555
O7B Zn1 1_555 1_555
N1C Zn2 1_555 1_555
P1 O2 1_555 1_555
N1 Zn2C 1_555 1_555
C4 C5 1_555 1_555
C9 C10 1_555 1_555

#END
