
#######################################################################
#
#                 Cambridge Crystallographic Data Centre
#                                CCDC 
#
#######################################################################
#
# If this CIF has been generated from an entry in the Cambridge 
# Structural Database, then it will include bibliographic, chemical, 
# crystal, experimental, refinement or atomic coordinate data resulting 
# from the CCDC's data processing and validation procedures.
#
#######################################################################

data_SORCUY
_symmetry_cell_setting           monoclinic
_symmetry_space_group_name_H-M   'C 2/c'
_symmetry_Int_Tables_number      15
_space_group_name_Hall           '-C 2yn'
loop_
_symmetry_equiv_pos_site_id
_symmetry_equiv_pos_as_xyz
1 x,y,z
2 -x,y,1/2-z
3 1/2+x,1/2+y,z
4 1/2-x,1/2+y,1/2-z
5 -x,-y,-z
6 x,-y,1/2+z
7 1/2-x,1/2-y,-z
8 1/2+x,1/2-y,1/2+z
_cell_length_a                   20.827(3)
_cell_length_b                   8.5006(12)
_cell_length_c                   12.4493(18)
_cell_angle_alpha                90
_cell_angle_beta                 107.584(3)
_cell_angle_gamma                90
_cell_volume                     2101.06
loop_
_atom_site_label
_atom_site_type_symbol
_atom_site_fract_x
_atom_site_fract_y
_atom_site_fract_z
Ag1 Ag -0.00849(4) 0.40529(8) 0.36469(6)
C1 C 0.3856(4) 0.2915(10) 0.6949(8)
C2 C 0.3233(4) 0.3870(10) 0.6523(7)
C3 C 0.2910(4) 0.4543(10) 0.7247(7)
H1 H 0.3092 0.4415 0.8021
C4 C 0.2331(4) 0.5387(11) 0.6826(7)
H2 H 0.2120 0.5797 0.7325
C5 C 0.2046(4) 0.5653(10) 0.5691(7)
C6 C 0.2382(4) 0.5055(10) 0.4961(7)
H3 H 0.2215 0.5237 0.4190
C7 C 0.2952(4) 0.4207(10) 0.5390(7)
H4 H 0.3169 0.3826 0.4891
C8 C 0.1140(4) 0.6903(11) 0.4134(7)
H5 H 0.1112 0.5981 0.3662
H6 H 0.1412 0.7684 0.3904
C9 C 0.0463(4) 0.7534(10) 0.3974(7)
C10 C -0.0604(5) 0.7564(10) 0.3763(7)
H7 H -0.1044 0.7243 0.3673
C11 C 0.0261(4) 0.9070(11) 0.3897(7)
H8 H 0.0527 0.9959 0.3930
N1 N 0.1461(3) 0.6479(8) 0.5309(6)
H9 H 0.1267 0.6770 0.5796
N2 N -0.0090(3) 0.6605(8) 0.3910(6)
N3 N -0.0416(3) 0.9021(9) 0.3761(6)
H10 H -0.0675 0.9826 0.3685
O1 O 0.4122(3) 0.2842(7) 0.8025(5)
O2 O 0.4090(3) 0.2250(7) 0.6270(5)
Ag1A Ag 0.00849(4) 0.40529(8) 0.13531(6)
Ag1F Ag -0.49151(4) 0.09471(8) -0.36469(6)
Ag1F_2 Ag 0.50849(4) 0.09471(8) 0.63531(6)
Ag1G Ag -0.50849(4) 0.09471(8) -0.13531(6)
Ag1G_2 Ag 0.49151(4) 0.09471(8) 0.86469(6)
C1A C -0.3856(4) 0.2915(10) -0.1949(8)
C2A C -0.3233(4) 0.3870(10) -0.1523(7)
C3A C -0.2910(4) 0.4543(10) -0.2247(7)
H1A H -0.3092 0.4415 -0.3021
C4A C -0.2331(4) 0.5387(11) -0.1826(7)
H2A H -0.2120 0.5797 -0.2325
C5A C -0.2046(4) 0.5653(10) -0.0691(7)
C6A C -0.2382(4) 0.5055(10) 0.0039(7)
H3A H -0.2215 0.5237 0.0810
C7A C -0.2952(4) 0.4207(10) -0.0390(7)
H4A H -0.3169 0.3826 0.0109
C8A C -0.1140(4) 0.6903(11) 0.0866(7)
H5A H -0.1112 0.5981 0.1338
H6A H -0.1412 0.7684 0.1096
C9A C -0.0463(4) 0.7534(10) 0.1026(7)
C10A C 0.0604(5) 0.7564(10) 0.1237(7)
H7A H 0.1044 0.7243 0.1327
C11A C -0.0261(4) 0.9070(11) 0.1103(7)
H8A H -0.0527 0.9959 0.1070
N1A N -0.1461(3) 0.6479(8) -0.0309(6)
H9A H -0.1267 0.6770 -0.0796
N2A N 0.0090(3) 0.6605(8) 0.1090(6)
N3A N 0.0416(3) 0.9021(9) 0.1239(6)
H10A H 0.0675 0.9826 0.1315
O1A O -0.4122(3) 0.2842(7) -0.3025(5)
O1F O 0.0878(3) 0.2158(7) 0.1975(5)
O1G O -0.0878(3) 0.2158(7) 0.3025(5)
O2A O -0.4090(3) 0.2250(7) -0.1270(5)
O2F O 0.0910(3) 0.2750(7) 0.3730(5)
O2G O -0.0910(3) 0.2750(7) 0.1270(5)
loop_
_geom_bond_atom_site_label_1
_geom_bond_atom_site_label_2
_geom_bond_site_symmetry_1
_geom_bond_site_symmetry_2
Ag1 N2 1_555 1_555
C1 C2 1_555 1_555
C2 C3 1_555 1_555
C3 H1 1_555 1_555
C4 C3 1_555 1_555
H2 C4 1_555 1_555
C5 C4 1_555 1_555
C6 C5 1_555 1_555
H3 C6 1_555 1_555
C7 C2 1_555 1_555
H4 C7 1_555 1_555
C8 H5 1_555 1_555
H6 C8 1_555 1_555
C9 C8 1_555 1_555
C10 H7 1_555 1_555
C11 C9 1_555 1_555
H8 C11 1_555 1_555
N1 C5 1_555 1_555
H9 N1 1_555 1_555
N2 C9 1_555 1_555
N3 C10 1_555 1_555
H10 N3 1_555 1_555
O1 C1 1_555 1_555
O2 C1 1_555 1_555
Ag1A Ag1 1_555 1_555
Ag1F Ag1G 1_555 1_555
Ag1F_2 O2 1_555 1_555
Ag1G O2A 1_555 1_555
Ag1G_2 O1 1_555 1_555
C1A C2A 1_555 1_555
C2A C3A 1_555 1_555
C3A H1A 1_555 1_555
C4A C3A 1_555 1_555
H2A C4A 1_555 1_555
C5A C4A 1_555 1_555
C6A C5A 1_555 1_555
H3A C6A 1_555 1_555
C7A C2A 1_555 1_555
H4A C7A 1_555 1_555
C8A H5A 1_555 1_555
H6A C8A 1_555 1_555
C9A C8A 1_555 1_555
C10A H7A 1_555 1_555
C11A C9A 1_555 1_555
H8A C11A 1_555 1_555
N1A C5A 1_555 1_555
H9A N1A 1_555 1_555
N2A Ag1A 1_555 1_555
N3A C10A 1_555 1_555
H10A N3A 1_555 1_555
O1A Ag1F 1_555 1_555
O1F Ag1A 1_555 1_555
O1G Ag1 1_555 1_555
O2A C1A 1_555 1_555
O2F Ag1 1_555 1_555
O2G Ag1A 1_555 1_555
C6 C7 1_555 1_555
C8 N1 1_555 1_555
C10 N2 1_555 1_555
C11 N3 1_555 1_555
Ag1F_2 Ag1G_2 1_555 1_555
C1A O1A 1_555 1_555
C6A C7A 1_555 1_555
C8A N1A 1_555 1_555
C9A N2A 1_555 1_555
C10A N2A 1_555 1_555
C11A N3A 1_555 1_555

#END
