
#######################################################################
#
#                 Cambridge Crystallographic Data Centre
#                                CCDC 
#
#######################################################################
#
# If this CIF has been generated from an entry in the Cambridge 
# Structural Database, then it will include bibliographic, chemical, 
# crystal, experimental, refinement or atomic coordinate data resulting 
# from the CCDC's data processing and validation procedures.
#
#######################################################################

data_SORDUZ
_symmetry_cell_setting           orthorhombic
_symmetry_space_group_name_H-M   'P c a 21'
_symmetry_Int_Tables_number      29
_space_group_name_Hall           'P 2c -2ac'
loop_
_symmetry_equiv_pos_site_id
_symmetry_equiv_pos_as_xyz
1 x,y,z
2 -x,-y,1/2+z
3 1/2+x,-y,z
4 1/2-x,y,1/2+z
_cell_length_a                   12.1794(8)
_cell_length_b                   11.3422(8)
_cell_length_c                   14.7572(10)
_cell_angle_alpha                90
_cell_angle_beta                 90
_cell_angle_gamma                90
_cell_volume                     2038.58
loop_
_atom_site_label
_atom_site_type_symbol
_atom_site_fract_x
_atom_site_fract_y
_atom_site_fract_z
Zn1 Zn 0.76502(3) 1.15194(3) 0.25608(4)
O1 O 0.6164(3) 1.1425(2) 0.1802(3)
H1 H 0.6006 1.2035 0.1523
H2 H 0.6332 1.0884 0.1440
O2 O 0.6692(3) 1.1659(3) 0.3774(2)
H3 H 0.6233 1.1217 0.4013
H4 H 0.7047 1.2025 0.4160
O3 O 0.9130(3) 1.1670(2) 0.3292(2)
H5 H 0.9144 1.2273 0.3605
H6 H 0.9553 1.1153 0.3504
O4 O 0.8460(3) 1.1508(2) 0.1268(2)
H7 H 0.8115 1.1066 0.0910
H8 H 0.9103 1.1283 0.1321
N1 N 0.7639(2) 1.3399(2) 0.2513(5)
N2 N 0.7711(3) 1.9660(3) 0.2642(4)
C1 C 0.8486(3) 1.4012(3) 0.2217(3)
H11 H 0.9078 1.3597 0.1979
C2 C 0.8554(4) 1.5226(3) 0.2235(3)
H12 H 0.9168 1.5609 0.2001
C3 C 0.7683(3) 1.5876(3) 0.2610(4)
C4 C 0.6779(3) 1.5238(3) 0.2924(3)
H13 H 0.6175 1.5626 0.3168
C5 C 0.6793(3) 1.4033(4) 0.2868(3)
H14 H 0.6187 1.3622 0.3086
C6 C 0.7704(3) 1.7179(3) 0.2646(4)
C7 C 0.8670(3) 1.7828(4) 0.2577(4)
H15 H 0.9341 1.7440 0.2534
C8 C 0.8639(3) 1.9030(3) 0.2572(5)
H16 H 0.9300 1.9436 0.2518
C9 C 0.6774(4) 1.9039(3) 0.2721(3)
H17 H 0.6118 1.9452 0.2776
C10 C 0.6735(3) 1.7817(3) 0.2726(3)
H18 H 0.6066 1.7428 0.2782
Zn1_2 Zn 0.76502(3) 2.15194(3) 0.25608(4)
N2_2 N 0.7711(3) 0.9660(3) 0.2642(4)
S1 S 0.62745(11) 0.37902(9) 0.00982(10)
O6 O 0.8134(4) 0.9381(3) 0.0476(3)
O7 O 0.6333(4) 0.9676(3) 0.0574(3)
O8 O 0.7349(3) 0.3191(3) 0.0072(4)
O9 O 0.5656(4) 0.3508(3) 0.0915(3)
O10 O 0.5606(4) 0.3633(3) -0.0708(3)
C11 C 0.7161(5) 0.9027(4) 0.0433(4)
C12 C 0.6950(4) 0.7713(4) 0.0295(3)
C13 C 0.7806(3) 0.6956(4) 0.0174(3)
H19 H 0.8516 0.7251 0.0129
C14 C 0.7630(4) 0.5755(4) 0.0116(5)
H20 H 0.8222 0.5244 0.0051
C15 C 0.6572(4) 0.5314(3) 0.0154(3)
C16 C 0.5693(4) 0.6089(5) 0.0263(4)
H21 H 0.4978 0.5803 0.0291
C17 C 0.5893(4) 0.7283(5) 0.0329(3)
H22 H 0.5309 0.7804 0.0397
O5 O 0.4775(3) 0.0065(3) 0.9360(2)
H9 H 0.4662 0.0595 0.9804
H10 H 0.5408 -0.0307 0.9444
loop_
_geom_bond_atom_site_label_1
_geom_bond_atom_site_label_2
_geom_bond_site_symmetry_1
_geom_bond_site_symmetry_2
Zn1 O1 1_555 1_555
S1 O8 1_555 1_555
O1 H1 1_555 1_555
H2 O1 1_555 1_555
O2 Zn1 1_555 1_555
H3 O2 1_555 1_555
H4 O2 1_555 1_555
O3 Zn1 1_555 1_555
H5 O3 1_555 1_555
H6 O3 1_555 1_555
O4 Zn1 1_555 1_555
H7 O4 1_555 1_555
H8 O4 1_555 1_555
O5 H9 1_555 1_555
H10 O5 1_555 1_555
O6 C11 1_555 1_555
O7 C11 1_555 1_555
O9 S1 1_555 1_555
O10 S1 1_555 1_555
N1 Zn1 1_555 1_555
N2 C8 1_555 1_555
C1 N1 1_555 1_555
H11 C1 1_555 1_555
C2 C1 1_555 1_555
H12 C2 1_555 1_555
C3 C2 1_555 1_555
C4 C3 1_555 1_555
H13 C4 1_555 1_555
C5 N1 1_555 1_555
H14 C5 1_555 1_555
C6 C3 1_555 1_555
C7 C6 1_555 1_555
H15 C7 1_555 1_555
C8 C7 1_555 1_555
H16 C8 1_555 1_555
C9 N2 1_555 1_555
H17 C9 1_555 1_555
C10 C6 1_555 1_555
H18 C10 1_555 1_555
C11 C12 1_555 1_555
C12 C13 1_555 1_555
C13 H19 1_555 1_555
C14 C13 1_555 1_555
H20 C14 1_555 1_555
C15 S1 1_555 1_555
C16 C15 1_555 1_555
H21 C16 1_555 1_555
C17 C12 1_555 1_555
H22 C17 1_555 1_555
Zn1_2 N2 1_555 1_555
N2_2 Zn1 1_555 1_555
C4 C5 1_555 1_555
C9 C10 1_555 1_555
C14 C15 1_555 1_555
C16 C17 1_555 1_555

#END
