
#######################################################################
#
#                 Cambridge Crystallographic Data Centre
#                                CCDC 
#
#######################################################################
#
# If this CIF has been generated from an entry in the Cambridge 
# Structural Database, then it will include bibliographic, chemical, 
# crystal, experimental, refinement or atomic coordinate data resulting 
# from the CCDC's data processing and validation procedures.
#
#######################################################################

data_SORFOV
_symmetry_cell_setting           monoclinic
_symmetry_space_group_name_H-M   'P 21/c'
_symmetry_Int_Tables_number      14
_space_group_name_Hall           '-P 2ybc'
loop_
_symmetry_equiv_pos_site_id
_symmetry_equiv_pos_as_xyz
1 x,y,z
2 -x,1/2+y,1/2-z
3 -x,-y,-z
4 x,1/2-y,1/2+z
_cell_length_a                   14.057(2)
_cell_length_b                   11.091(2)
_cell_length_c                   9.341(1)
_cell_angle_alpha                90
_cell_angle_beta                 92.149(2)
_cell_angle_gamma                90
_cell_volume                     1455.3
loop_
_atom_site_label
_atom_site_type_symbol
_atom_site_fract_x
_atom_site_fract_y
_atom_site_fract_z
Cu1 Cu 0.34611(2) 0.21748(2) 0.21546(3)
O1 O 0.33721(13) 0.05034(16) 0.31210(19)
O2 O 0.0027(2) -0.3061(3) 0.1935(4)
O3 O 0.08570(17) -0.4072(2) 0.3517(3)
O4 O 0.46402(13) 0.18082(18) 0.11310(17)
O5 O 0.38373(13) 0.22285(15) -0.08604(18)
N1 N 0.21186(16) 0.1823(2) 0.1290(2)
N2 N 0.3067(2) 0.3988(2) 0.1430(2)
N3 N 0.07209(19) -0.3178(3) 0.2752(3)
C1 C 0.18825(18) -0.0211(3) 0.2134(2)
C2 C 0.27492(17) -0.0323(2) 0.2990(2)
C3 C 0.2874(2) -0.1423(2) 0.3750(3)
H1 H 0.3427 -0.1526 0.4314
C4 C 0.2226(2) -0.2334(3) 0.3696(3)
H2 H 0.2332 -0.3037 0.4222
C5 C 0.1406(2) -0.2196(3) 0.2841(3)
C6 C 0.12378(19) -0.1162(3) 0.2083(3)
H3 H 0.0681 -0.1092 0.1520
C7 C 0.16244(18) 0.0863(3) 0.1346(3)
H4 H 0.1045 0.0855 0.0831
C8 C 0.1714(2) 0.2862(3) 0.0494(4)
H5 H 0.1025 0.2817 0.0459
H6 H 0.1930 0.2859 -0.0480
C9 C 0.2032(3) 0.3980(3) 0.1237(4)
H7 H 0.1827 0.4677 0.0677
H8 H 0.1745 0.4029 0.2163
C10 C 0.3429(4) 0.5039(3) 0.2274(4)
H9 H 0.3100 0.5754 0.1956
H10 H 0.4099 0.5133 0.2139
H11 H 0.3322 0.4909 0.3271
C11 C 0.5449(2) 0.1579(3) -0.1020(3)
H12 H 0.5370 0.0787 -0.1421
H13 H 0.6000 0.1590 -0.0381
H14 H 0.5530 0.2152 -0.1776
C12 C 0.45862(17) 0.1904(2) -0.0211(2)
H15 H 0.331(2) 0.404(3) 0.0551(19)
Cu1C Cu 0.34611(2) 0.28252(2) -0.28454(3)
O5C O 0.38373(13) 0.27715(15) 0.41396(18)
loop_
_geom_bond_atom_site_label_1
_geom_bond_atom_site_label_2
_geom_bond_site_symmetry_1
_geom_bond_site_symmetry_2
Cu1 O1 1_555 1_555
O1 C2 1_555 1_555
O2 N3 1_555 1_555
O3 N3 1_555 1_555
O4 Cu1 1_555 1_555
O5 C12 1_555 1_555
N1 Cu1 1_555 1_555
N2 Cu1 1_555 1_555
N3 C5 1_555 1_555
C1 C2 1_555 1_555
C2 C3 1_555 1_555
C3 H1 1_555 1_555
C4 C3 1_555 1_555
H2 C4 1_555 1_555
C5 C4 1_555 1_555
C6 C1 1_555 1_555
H3 C6 1_555 1_555
C7 N1 1_555 1_555
H4 C7 1_555 1_555
C8 N1 1_555 1_555
H5 C8 1_555 1_555
H6 C8 1_555 1_555
C9 N2 1_555 1_555
H7 C9 1_555 1_555
H8 C9 1_555 1_555
C10 N2 1_555 1_555
H9 C10 1_555 1_555
H10 C10 1_555 1_555
H11 C10 1_555 1_555
C11 H12 1_555 1_555
H13 C11 1_555 1_555
H14 C11 1_555 1_555
C12 O4 1_555 1_555
H15 N2 1_555 1_555
Cu1C O5 1_555 1_555
O5C Cu1 1_555 1_555
C1 C7 1_555 1_555
C5 C6 1_555 1_555
C8 C9 1_555 1_555
C11 C12 1_555 1_555

#END
