
#######################################################################
#
#                 Cambridge Crystallographic Data Centre
#                                CCDC 
#
#######################################################################
#
# If this CIF has been generated from an entry in the Cambridge 
# Structural Database, then it will include bibliographic, chemical, 
# crystal, experimental, refinement or atomic coordinate data resulting 
# from the CCDC's data processing and validation procedures.
#
#######################################################################

data_SORHUD
_symmetry_cell_setting           monoclinic
_symmetry_space_group_name_H-M   'P 21/c'
_symmetry_Int_Tables_number      14
_space_group_name_Hall           '-P 2ybc'
loop_
_symmetry_equiv_pos_site_id
_symmetry_equiv_pos_as_xyz
1 x,y,z
2 -x,1/2+y,1/2-z
3 -x,-y,-z
4 x,1/2-y,1/2+z
_cell_length_a                   8.793(2)
_cell_length_b                   10.155(2)
_cell_length_c                   18.705(3)
_cell_angle_alpha                90
_cell_angle_beta                 94.805(2)
_cell_angle_gamma                90
_cell_volume                     1664.35
loop_
_atom_site_label
_atom_site_type_symbol
_atom_site_fract_x
_atom_site_fract_y
_atom_site_fract_z
Cu1 Cu 0.33882(4) 0.75119(3) 0.19554(2)
S1 S 0.60049(10) 0.79502(8) 0.27672(5)
N1 N 0.1981(3) 0.7683(2) 0.27646(14)
N2 N 0.2874(3) 0.9363(2) 0.18677(13)
N3 N 0.4101(3) 0.7785(2) 0.09516(14)
N4 N 0.6275(3) 1.0645(3) 0.29453(15)
C1 C 0.1464(3) 0.8922(3) 0.28384(17)
C2 C 0.0471(4) 0.9260(4) 0.33304(19)
H1 H 0.0131 1.0124 0.3365
C3 C -0.0022(4) 0.8285(4) 0.3779(2)
H2 H -0.0706 0.8481 0.4117
C4 C 0.0517(4) 0.7035(4) 0.37138(19)
H3 H 0.0214 0.6371 0.4014
C5 C 0.1512(4) 0.6759(3) 0.32024(18)
H4 H 0.1866 0.5902 0.3161
C6 C 0.2023(4) 0.9843(3) 0.23142(18)
H5 H 0.1766 1.0731 0.2311
C7 C 0.3470(4) 1.0029(3) 0.12656(18)
H6 H 0.4513 1.0313 0.1388
H7 H 0.2853 1.0793 0.1126
C8 C 0.3403(4) 0.9028(3) 0.06662(17)
H8 H 0.2351 0.8875 0.0486
H9 H 0.3956 0.9352 0.0274
C9 C 0.3930(4) 0.6649(3) 0.04386(18)
H10 H 0.4576 0.5935 0.0645
C10 C 0.2298(5) 0.6147(4) 0.0377(2)
H11 H 0.2007 0.5922 0.0845
H12 H 0.2224 0.5381 0.0075
H13 H 0.1630 0.6821 0.0172
C11 C 0.4477(5) 0.6967(4) -0.0286(2)
H14 H 0.3832 0.7632 -0.0517
H15 H 0.4438 0.6187 -0.0577
H16 H 0.5508 0.7285 -0.0225
C12 C 0.6160(3) 0.9530(3) 0.28690(16)
H17 H 0.5102(16) 0.792(4) 0.106(2)
Cu1A Cu 0.66118(4) 1.25119(3) 0.30446(2)
N4A N 0.3725(3) 0.5645(3) 0.20547(15)
Cl1 Cl 0.84341(11) 0.81600(11) 0.08476(5)
O1 O 0.9622(4) 0.8276(6) 0.1370(2)
O2 O 0.7812(5) 0.6919(4) 0.0896(3)
O3 O 0.7242(3) 0.9091(3) 0.09366(17)
O4 O 0.8891(7) 0.8306(7) 0.0176(3)
loop_
_geom_bond_atom_site_label_1
_geom_bond_atom_site_label_2
_geom_bond_site_symmetry_1
_geom_bond_site_symmetry_2
Cu1 S1 1_555 1_555
S1 C12 1_555 1_555
N1 Cu1 1_555 1_555
N2 Cu1 1_555 1_555
N3 Cu1 1_555 1_555
N4 C12 1_555 1_555
C1 N1 1_555 1_555
C2 C1 1_555 1_555
H1 C2 1_555 1_555
C3 C2 1_555 1_555
H2 C3 1_555 1_555
C4 C3 1_555 1_555
H3 C4 1_555 1_555
C5 N1 1_555 1_555
H4 C5 1_555 1_555
C6 N2 1_555 1_555
H5 C6 1_555 1_555
C7 N2 1_555 1_555
H6 C7 1_555 1_555
H7 C7 1_555 1_555
C8 N3 1_555 1_555
H8 C8 1_555 1_555
H9 C8 1_555 1_555
C9 N3 1_555 1_555
H10 C9 1_555 1_555
C10 C9 1_555 1_555
H11 C10 1_555 1_555
H12 C10 1_555 1_555
H13 C10 1_555 1_555
C11 C9 1_555 1_555
H14 C11 1_555 1_555
H15 C11 1_555 1_555
H16 C11 1_555 1_555
H17 N3 1_555 1_555
Cl1 O1 1_555 1_555
O2 Cl1 1_555 1_555
O3 Cl1 1_555 1_555
O4 Cl1 1_555 1_555
Cu1A N4 1_555 1_555
N4A Cu1 1_555 1_555
C1 C6 1_555 1_555
C4 C5 1_555 1_555
C7 C8 1_555 1_555

#END
