
#######################################################################
#
#                 Cambridge Crystallographic Data Centre
#                                CCDC 
#
#######################################################################
#
# If this CIF has been generated from an entry in the Cambridge 
# Structural Database, then it will include bibliographic, chemical, 
# crystal, experimental, refinement or atomic coordinate data resulting 
# from the CCDC's data processing and validation procedures.
#
#######################################################################

data_SORQAT
_symmetry_cell_setting           monoclinic
_symmetry_space_group_name_H-M   'C 2/m'
_symmetry_Int_Tables_number      12
_space_group_name_Hall           '-C 2y'
loop_
_symmetry_equiv_pos_site_id
_symmetry_equiv_pos_as_xyz
1 x,y,z
2 -x,y,-z
3 1/2+x,1/2+y,z
4 1/2-x,1/2+y,-z
5 -x,-y,-z
6 x,-y,z
7 1/2-x,1/2-y,-z
8 1/2+x,1/2-y,z
_cell_length_a                   7.5999(16)
_cell_length_b                   21.092(5)
_cell_length_c                   19.515(4)
_cell_angle_alpha                90
_cell_angle_beta                 98.305(4)
_cell_angle_gamma                90
_cell_volume                     3095.39
loop_
_atom_site_label
_atom_site_type_symbol
_atom_site_fract_x
_atom_site_fract_y
_atom_site_fract_z
O8 O 0.989(4) 0.5000 0.663(2)
H4 H 1.0559 0.5323 0.6630
H4E H 1.0559 0.4677 0.6630
O9 O 0.963(4) 0.5668(9) 0.5807(16)
H5 H 0.9282 0.6039 0.5892
H6 H 0.8958 0.5571 0.5434
O10 O 0.766(5) 1.0000 0.526(2)
H7 H 0.7593 1.0312 0.5536
H7E H 0.7593 0.9688 0.5536
N4 N 1.347(3) 0.5000 0.9383(14)
O11 O 1.187(4) 0.5000 0.8173(18)
C13 C 1.310(5) 0.5000 0.8617(14)
C14 C 1.197(4) 0.5000 0.979(2)
C15 C 1.534(3) 0.5000 0.9718(17)
N4A N 1.653(3) 0.5000 1.0617(14)
O11A O 1.813(4) 0.5000 1.1827(18)
C13A C 1.690(5) 0.5000 1.1383(14)
C14A C 1.803(4) 0.5000 1.021(2)
C15A C 1.466(3) 0.5000 1.0282(17)
Nd1 Nd 0.98859(4) 0.72359(2) 0.75539(2)
O1 O 1.1261(6) 0.6180(2) 0.7366(3)
H1 H 1.2039 0.6149 0.7096
H2 H 1.0949 0.5854 0.7573
O2 O 0.8293(5) 0.6738(2) 0.6479(2)
O3 O 0.7002(6) 0.7609(2) 0.6750(2)
C1 C 0.7175(8) 0.7161(3) 0.6322(3)
C2 C 0.6022(8) 0.7158(3) 0.5643(3)
C3 C 0.5521(11) 0.6584(4) 0.5322(4)
C4 C 0.5488(8) 0.7728(3) 0.5324(3)
N1 N 0.599(5) 0.8264(18) 0.554(2)
O4 O 1.3146(6) 0.7105(2) 0.8225(2)
O5 O 1.0909(6) 0.6830(2) 0.8737(2)
C5 C 1.2543(8) 0.6901(3) 0.8758(3)
C6 C 1.3781(8) 0.6780(3) 0.9389(3)
C7 C 1.3173(9) 0.6748(4) 1.0033(3)
C8 C 1.5589(9) 0.6755(3) 0.9377(3)
H3 H 1.5993 0.6743 0.8949
O6 O 1.2345(7) 0.8333(2) 0.7860(2)
O7 O 0.9829(6) 0.8374(2) 0.7179(3)
C9 C 1.1137(9) 0.8646(3) 0.7519(3)
C10 C 1.1212(8) 0.9349(3) 0.7507(3)
C11 C 1.0044(8) 0.9676(3) 0.7025(3)
C12 C 1.2425(9) 0.9667(3) 0.7974(4)
N2 N 1.363(3) 0.9427(9) 0.8497(10)
N3 N 1.1467(17) 0.6609(6) 1.0095(7)
O2A O 0.1707(5) 0.6738(2) 0.3521(2)
O3A O 0.2998(6) 0.7609(2) 0.3250(2)
C1A C 0.2825(8) 0.7161(3) 0.3678(3)
C2A C 0.3978(8) 0.7158(3) 0.4357(3)
C3A C 0.4479(11) 0.6584(4) 0.4678(4)
C4A C 0.4512(8) 0.7728(3) 0.4676(3)
N1A N 0.401(5) 0.8264(18) 0.446(2)
O4A O 1.6854(6) 0.7105(2) 1.1775(2)
O5A O 1.9091(6) 0.6830(2) 1.1263(2)
C5A C 1.7457(8) 0.6901(3) 1.1242(3)
C6A C 1.6219(8) 0.6780(3) 1.0611(3)
C7A C 1.6827(9) 0.6748(4) 0.9967(3)
C8A C 1.4411(9) 0.6755(3) 1.0623(3)
H3A H 1.4007 0.6743 1.1051
N3A N 1.8533(17) 0.6609(6) 0.9905(7)
O6E O 1.2345(7) 1.1667(2) 0.7860(2)
O7E O 0.9829(6) 1.1626(2) 0.7179(3)
C9E C 1.1137(9) 1.1354(3) 0.7519(3)
C10E C 1.1212(8) 1.0651(3) 0.7507(3)
C11E C 1.0044(8) 1.0324(3) 0.7025(3)
C12E C 1.2425(9) 1.0333(3) 0.7974(4)
N2E N 1.363(3) 1.0573(9) 0.8497(10)
Nd1A Nd 0.01141(4) 0.72359(2) 0.24461(2)
O1A O -0.1261(6) 0.6180(2) 0.2634(3)
H1A H -0.2039 0.6149 0.2904
H2A H -0.0949 0.5854 0.2427
Nd1A_2 Nd 2.01141(4) 0.72359(2) 1.24461(2)
Nd1B Nd 1.48859(4) 1.22359(2) 0.75539(2)
Nd1E Nd 0.98859(4) 1.27641(2) 0.75539(2)
Nd1F Nd 0.51141(4) 0.77641(2) 0.24461(2)
Nd1F_2 Nd 1.51141(4) 0.77641(2) 1.24461(2)
Nd1G Nd 0.48859(4) 0.77641(2) 0.75539(2)
Nd1G_2 Nd 1.48859(4) 0.77641(2) 0.75539(2)
O3F O -0.2002(6) 0.7391(2) 0.3250(2)
O3G O 1.2002(6) 0.7391(2) 0.6750(2)
O4A_2 O -0.3146(6) 0.7105(2) 0.1775(2)
O4F O 0.1854(6) 0.7895(2) 0.1775(2)
O4G O 0.8146(6) 0.7895(2) 0.8225(2)
O5A_2 O -0.0909(6) 0.6830(2) 0.1263(2)
O6F O 0.2655(7) 0.6667(2) 0.2140(2)
O6G O 0.7345(7) 0.6667(2) 0.7860(2)
O7A O 0.0171(6) 0.8374(2) 0.2821(3)
N5? N 0.636(3) 0.5991(10) 0.5519(11)
N6? N 0.877(4) 0.9397(16) 0.6604(17)
loop_
_geom_bond_atom_site_label_1
_geom_bond_atom_site_label_2
_geom_bond_site_symmetry_1
_geom_bond_site_symmetry_2
Nd1 O1 1_555 1_555
O1 H1 1_555 1_555
H2 O1 1_555 1_555
O2 Nd1 1_555 1_555
O3 Nd1 1_555 1_555
C1 O2 1_555 1_555
C2 C1 1_555 1_555
C3 C2 1_555 1_555
C4 C2 1_555 1_555
N1 C4 1_555 1_555
O4 Nd1 1_555 1_555
O5 Nd1 1_555 1_555
C5 O4 1_555 1_555
C6 C5 1_555 1_555
C7 C6 1_555 1_555
C8 C6 1_555 1_555
H3 C8 1_555 1_555
O6 C9 1_555 1_555
O7 Nd1 1_555 1_555
C9 O7 1_555 1_555
C10 C9 1_555 1_555
C11 C10 1_555 1_555
C12 C10 1_555 1_555
N2 C12 1_555 1_555
N3 C7 1_555 1_555
O8 H4 1_555 1_555
O9 H5 1_555 1_555
H6 O9 1_555 1_555
O10 H7 1_555 1_555
N4 C13 1_555 1_555
O11 C13 1_555 1_555
C14 N4 1_555 1_555
C15 N4 1_555 1_555
O2A C1A 1_555 1_555
O3A C1A 1_555 1_555
C1A C2A 1_555 1_555
C2A C3A 1_555 1_555
C3A C3 1_555 1_555
C4A C4 1_555 1_555
N1A C4A 1_555 1_555
O4A C5A 1_555 1_555
O5A C5A 1_555 1_555
C5A C6A 1_555 1_555
C6A C7A 1_555 1_555
C7A C8 1_555 1_555
C8A C7 1_555 1_555
H3A C8A 1_555 1_555
N3A C7A 1_555 1_555
O6E C9E 1_555 1_555
O7E C9E 1_555 1_555
C9E C10E 1_555 1_555
C10E C11E 1_555 1_555
C11E C11 1_555 1_555
C12E C12 1_555 1_555
N2E C12E 1_555 1_555
Nd1A O2A 1_555 1_555
O1A Nd1A 1_555 1_555
H1A O1A 1_555 1_555
H2A O1A 1_555 1_555
Nd1A_2 O4A 1_555 1_555
Nd1B O6E 1_555 1_555
Nd1E O7E 1_555 1_555
Nd1F O3A 1_555 1_555
Nd1F_2 O4A 1_555 1_555
Nd1G O3 1_555 1_555
Nd1G_2 O4 1_555 1_555
O3F Nd1A 1_555 1_555
O3G Nd1 1_555 1_555
O4A_2 Nd1A 1_555 1_555
O4F Nd1A 1_555 1_555
O4G Nd1 1_555 1_555
O5A_2 Nd1A 1_555 1_555
O6F Nd1A 1_555 1_555
O6G Nd1 1_555 1_555
O7A Nd1A 1_555 1_555
H4E O8 1_555 1_555
H7E O10 1_555 1_555
N4A C13A 1_555 1_555
O11A C13A 1_555 1_555
C14A N4A 1_555 1_555
C15A N4A 1_555 1_555
O3 C1 1_555 1_555
O5 C5 1_555 1_555
O6 Nd1G_2 1_555 1_555
O3A Nd1A 1_555 1_555
C2A C4A 1_555 1_555
O5A Nd1A_2 1_555 1_555
C6A C8A 1_555 1_555
C10E C12E 1_555 1_555
Nd1F O4F 1_555 1_555
Nd1G O4G 1_555 1_555
Nd1G_2 O3G 1_555 1_555

#END
