
#######################################################################
#
#                 Cambridge Crystallographic Data Centre
#                                CCDC 
#
#######################################################################
#
# If this CIF has been generated from an entry in the Cambridge 
# Structural Database, then it will include bibliographic, chemical, 
# crystal, experimental, refinement or atomic coordinate data resulting 
# from the CCDC's data processing and validation procedures.
#
#######################################################################

data_SORTEA
_symmetry_cell_setting           triclinic
_symmetry_space_group_name_H-M   'P -1'
_symmetry_Int_Tables_number      2
_space_group_name_Hall           '-P 1'
loop_
_symmetry_equiv_pos_site_id
_symmetry_equiv_pos_as_xyz
1 x,y,z
2 -x,-y,-z
_cell_length_a                   14.473(3)
_cell_length_b                   17.611(3)
_cell_length_c                   20.541(4)
_cell_angle_alpha                68.12(3)
_cell_angle_beta                 77.79(3)
_cell_angle_gamma                69.05(3)
_cell_volume                     4518.72
loop_
_atom_site_label
_atom_site_type_symbol
_atom_site_fract_x
_atom_site_fract_y
_atom_site_fract_z
C1 C -0.0105(10) 0.2964(8) 0.7788(7)
C2 C -0.1104(10) 0.4036(8) 0.6829(9)
H1 H -0.1467 0.4322 0.7146
C3 C -0.1309(13) 0.4393(12) 0.6130(10)
H2 H -0.1829 0.4897 0.5983
C4 C -0.0714(12) 0.3979(11) 0.5642(9)
H3 H -0.0851 0.4200 0.5173
C5 C 0.0077(10) 0.3237(8) 0.5871(6)
C6 C 0.0227(9) 0.2906(8) 0.6574(6)
H4 H 0.0761 0.2416 0.6726
C7 C 0.0796(12) 0.3080(10) 0.4719(8)
C8 C 0.1460(9) 0.2374(8) 0.4416(6)
C9 C 0.2039(8) 0.2581(7) 0.3808(6)
H5 H 0.2067 0.3142 0.3607
C10 C 0.2604(8) 0.1969(7) 0.3472(6)
C11 C 0.2566(9) 0.1133(7) 0.3778(6)
H6 H 0.2947 0.0716 0.3572
C12 C 0.1971(9) 0.0921(8) 0.4384(6)
C13 C 0.1429(8) 0.1533(8) 0.4710(6)
H7 H 0.1040 0.1376 0.5130
C14 C 0.1957(9) 0.0002(8) 0.4693(7)
C15 C 0.1061(9) -0.0943(8) 0.5591(7)
C16 C 0.0440(8) -0.0987(7) 0.6206(6)
H8 H 0.0216 -0.0518 0.6367
C17 C 0.0144(8) -0.1685(7) 0.6581(6)
C18 C 0.0495(9) -0.2376(9) 0.6357(7)
H9 H 0.0334 -0.2874 0.6633
C19 C 0.1102(10) -0.2369(8) 0.5715(7)
H10 H 0.1301 -0.2833 0.5549
C20 C 0.1390(9) -0.1615(8) 0.5337(6)
H11 H 0.1802 -0.1582 0.4919
C21 C -0.0526(10) -0.1725(10) 0.7251(6)
C22 C 0.3226(9) 0.2137(7) 0.2795(5)
C23 C 0.4214(8) 0.3131(7) 0.2032(6)
C24 C 0.4520(8) 0.3809(7) 0.2007(6)
H12 H 0.4339 0.4022 0.2383
C25 C 0.5090(7) 0.4158(6) 0.1427(6)
C26 C 0.5330(7) 0.3842(6) 0.0859(5)
H13 H 0.5710 0.4080 0.0462
C27 C 0.5017(7) 0.3199(7) 0.0883(6)
H14 H 0.5178 0.3008 0.0495
C28 C 0.4465(7) 0.2811(6) 0.1463(5)
H15 H 0.4267 0.2357 0.1478
C29 C 0.5413(9) 0.4903(8) 0.1440(8)
C30 C 0.7331(8) 0.9371(7) 0.1331(6)
C31 C 0.7758(10) 0.9538(8) 0.1771(7)
H16 H 0.8375 0.9185 0.1930
C32 C 0.7232(12) 1.0261(9) 0.1974(8)
H17 H 0.7501 1.0395 0.2275
C33 C 0.6272(11) 1.0807(8) 0.1724(8)
H18 H 0.5911 1.1274 0.1877
C34 C 0.5906(10) 1.0620(8) 0.1254(7)
H19 H 0.5310 1.0988 0.1069
C35 C 0.5960(8) 1.0311(7) -0.1573(6)
C36 C 0.5316(9) 1.1142(8) -0.1921(7)
H20 H 0.4778 1.1421 -0.1668
C37 C 0.5496(9) 1.1519(8) -0.2622(6)
H21 H 0.5079 1.2051 -0.2864
C38 C 0.6356(10) 1.1061(8) -0.2976(7)
H22 H 0.6530 1.1348 -0.3442
C39 C 0.6917(9) 1.0268(7) -0.2691(6)
H23 H 0.7406 0.9971 -0.2960
C40 C 0.6739(8) 0.9888(6) -0.1951(5)
C41 C 0.7509(7) 0.5883(6) -0.0604(6)
C42 C 0.7432(8) 0.5086(7) -0.0569(6)
H24 H 0.7088 0.4781 -0.0188
C43 C 0.7884(10) 0.4788(8) -0.1120(7)
H25 H 0.7854 0.4265 -0.1109
C44 C 0.8381(9) 0.5240(9) -0.1690(7)
H26 H 0.8664 0.5020 -0.2059
C45 C 0.8476(8) 0.6021(7) -0.1734(5)
H27 H 0.8844 0.6310 -0.2110
C46 C 0.7977(7) 0.6353(7) -0.1171(5)
C47 C 0.6410(9) 0.9891(6) 0.1049(5)
C48 C 0.8292(10) 0.5994(7) 0.2069(6)
C49 C 0.8871(11) 0.5592(8) 0.2636(8)
H28 H 0.9341 0.5803 0.2697
C50 C 0.8686(14) 0.4870(10) 0.3090(9)
H29 H 0.9076 0.4555 0.3466
C51 C 0.7917(15) 0.4547(13) 0.3033(11)
H30 H 0.7796 0.4066 0.3384
C52 C 0.7363(12) 0.4967(10) 0.2444(9)
H31 H 0.6884 0.4768 0.2381
C53 C 0.7574(9) 0.5703(8) 0.1956(7)
C54 C 0.4330(4) 0.7571(5) 0.0810(4)
C55 C 0.4020(5) 0.8464(5) 0.0599(4)
C56 C 0.3022(6) 0.8911(4) 0.0703(4)
H32 H 0.2815 0.9508 0.0561
C57 C 0.2335(4) 0.8465(6) 0.1017(4)
H33 H 0.1668 0.8764 0.1087
C58 C 0.2645(6) 0.7572(6) 0.1228(4)
H34 H 0.2185 0.7274 0.1439
C59 C 0.3643(7) 0.7125(4) 0.1125(4)
H35 H 0.3851 0.6527 0.1266
C60 C -0.0372(9) 0.3265(8) 0.7060(6)
N1 N 0.7661(6) 0.8700(5) 0.1080(5)
N2 N 0.6980(7) 0.8858(5) 0.0634(4)
N3 N 0.6207(6) 0.9561(5) 0.0616(4)
N4 N 0.6001(6) 0.9769(5) -0.0887(4)
N5 N 0.6721(6) 0.9051(5) -0.0867(4)
N6 N 0.7215(6) 0.9102(5) -0.1505(4)
N7 N 0.7409(6) 0.7060(5) -0.0451(4)
N8 N 0.7130(6) 0.6330(5) -0.0149(4)
N9 N 0.7935(6) 0.7063(5) -0.1056(4)
N10 N 0.5617(5) 0.8006(5) 0.0380(4)
N11 N 0.5328(6) 0.7296(5) 0.0653(4)
N12 N 0.4862(6) 0.8696(5) 0.0353(4)
N13 N 0.8265(7) 0.6738(6) 0.1503(5)
N14 N 0.7600(6) 0.6839(5) 0.1086(4)
N15 N 0.7193(6) 0.6209(5) 0.1373(5)
N16 N 0.9392(7) 0.7790(6) 0.0214(5)
N17 N 0.8764(7) 0.7902(5) -0.0226(5)
N18 N 0.9213(6) 0.7976(6) -0.0867(4)
N19 N 0.0705(8) 0.2790(6) 0.5428(6)
H36 H 0.1071 0.2276 0.5628
N20 N 0.3619(6) 0.2788(6) 0.2645(4)
H37 H 0.3491 0.3025 0.2965
N21 N 0.1288(8) -0.0168(6) 0.5240(5)
H38 H 0.0954 0.0251 0.5398
O1 O -0.0861(6) -0.1100(6) 0.7437(4)
O2 O -0.0697(7) -0.2409(6) 0.7620(4)
O3 O 0.5871(6) 0.5212(5) 0.0819(5)
O4 O 0.5249(8) 0.5125(6) 0.1931(5)
O5 O -0.0627(7) 0.3272(5) 0.8241(5)
O6 O 0.0684(6) 0.2323(6) 0.7954(4)
O7 O 0.0397(8) 0.3779(6) 0.4356(4)
O8 O 0.2467(8) -0.0502(6) 0.4411(5)
O9 O 0.3277(7) 0.1799(5) 0.2384(4)
C61 C 1.0156(5) 0.7872(5) -0.0863(5)
C62 C 1.0967(7) 0.7838(6) -0.1366(4)
H39 H 1.0884 0.7920 -0.1826
C63 C 1.1904(6) 0.7683(7) -0.1180(5)
H40 H 1.2447 0.7660 -0.1517
C64 C 1.2029(5) 0.7560(7) -0.0492(6)
H41 H 1.2656 0.7456 -0.0368
C65 C 1.1218(7) 0.7594(6) 0.0011(4)
H42 H 1.1302 0.7512 0.0472
C66 C 1.0282(6) 0.7750(5) -0.0174(4)
Zn1 Zn 0.71525(8) 0.79831(7) 0.00675(6)
Zn2 Zn 0.88995(9) 0.76737(8) 0.12166(7)
Zn3 Zn 0.63115(10) 0.61302(8) 0.07770(7)
Zn4 Zn -0.16112(9) -0.18943(7) 0.83532(6)
Zn5 Zn 0.5000 1.0000 0.0000
C1A C 1.0105(10) 0.7036(8) 0.2212(7)
C2A C 1.1104(10) 0.5964(8) 0.3171(9)
H1A H 1.1467 0.5678 0.2854
C3A C 1.1309(13) 0.5607(12) 0.3870(10)
H2A H 1.1829 0.5103 0.4017
C4A C 1.0714(12) 0.6021(11) 0.4358(9)
H3A H 1.0851 0.5800 0.4827
C5A C 0.9923(10) 0.6763(8) 0.4129(6)
C6A C 0.9773(9) 0.7094(8) 0.3426(6)
H4A H 0.9239 0.7584 0.3274
C7A C 0.9204(12) 0.6920(10) 0.5281(8)
C8A C 0.8540(9) 0.7626(8) 0.5584(6)
C9A C 0.7961(8) 0.7419(7) 0.6192(6)
H5A H 0.7933 0.6858 0.6393
C10A C 0.7396(8) 0.8031(7) 0.6528(6)
C11A C 0.7434(9) 0.8867(7) 0.6222(6)
H6A H 0.7053 0.9284 0.6428
C12A C 0.8029(9) 0.9079(8) 0.5616(6)
C13A C 0.8571(8) 0.8467(8) 0.5290(6)
H7A H 0.8960 0.8624 0.4870
C14A C 0.8043(9) 0.9998(8) 0.5307(7)
C15A C 0.8939(9) 1.0943(8) 0.4409(7)
C16A C 0.9560(8) 1.0987(7) 0.3794(6)
H8A H 0.9784 1.0518 0.3633
C17A C 0.9856(8) 1.1685(7) 0.3419(6)
C18A C 0.9505(9) 1.2376(9) 0.3643(7)
H9A H 0.9666 1.2874 0.3367
C19A C 0.8898(10) 1.2369(8) 0.4285(7)
H10A H 0.8699 1.2833 0.4451
C20A C 0.8610(9) 1.1615(8) 0.4663(6)
H11A H 0.8198 1.1582 0.5081
C21A C 1.0526(10) 1.1725(10) 0.2749(6)
C22A C 0.6774(9) 0.7863(7) 0.7205(5)
C23A C 0.5786(8) 0.6869(7) 0.7968(6)
C24A C 0.5480(8) 0.6191(7) 0.7993(6)
H12A H 0.5661 0.5978 0.7617
C25A C 0.4910(7) 0.5842(6) 0.8573(6)
C26A C 0.4670(7) 0.6158(6) 0.9141(5)
H13A H 0.4290 0.5920 0.9538
C27A C 0.4983(7) 0.6801(7) 0.9117(6)
H14A H 0.4822 0.6992 0.9505
C28A C 0.5535(7) 0.7189(6) 0.8537(5)
H15A H 0.5733 0.7643 0.8522
C29A C 0.4587(9) 0.5097(8) 0.8560(8)
C30A C 0.2669(8) 0.0629(7) 0.8669(6)
C31A C 0.2242(10) 0.0462(8) 0.8229(7)
H16A H 0.1625 0.0815 0.8070
C32A C 0.2768(12) -0.0261(9) 0.8026(8)
H17A H 0.2499 -0.0395 0.7725
C33A C 0.3728(11) -0.0807(8) 0.8276(8)
H18A H 0.4089 -0.1274 0.8123
C34A C 0.4094(10) -0.0620(8) 0.8746(7)
H19A H 0.4690 -0.0988 0.8931
C35A C 0.4040(8) -0.0311(7) 1.1573(6)
C36A C 0.4684(9) -0.1142(8) 1.1921(7)
H20A H 0.5222 -0.1421 1.1668
C37A C 0.4504(9) -0.1519(8) 1.2622(6)
H21A H 0.4921 -0.2051 1.2864
C38A C 0.3644(10) -0.1061(8) 1.2976(7)
H22A H 0.3470 -0.1348 1.3442
C39A C 0.3083(9) -0.0268(7) 1.2691(6)
H23A H 0.2594 0.0029 1.2960
C40A C 0.3261(8) 0.0112(6) 1.1951(5)
C41A C 0.2491(7) 0.4117(6) 1.0604(6)
C42A C 0.2568(8) 0.4914(7) 1.0569(6)
H24A H 0.2912 0.5219 1.0188
C43A C 0.2116(10) 0.5212(8) 1.1120(7)
H25A H 0.2146 0.5735 1.1109
C44A C 0.1619(9) 0.4760(9) 1.1690(7)
H26A H 0.1336 0.4980 1.2059
C45A C 0.1524(8) 0.3979(7) 1.1734(5)
H27A H 0.1156 0.3690 1.2110
C46A C 0.2023(7) 0.3647(7) 1.1171(5)
C47A C 0.3590(9) 0.0109(6) 0.8951(5)
C48A C 0.1708(10) 0.4006(7) 0.7931(6)
C49A C 0.1129(11) 0.4408(8) 0.7364(8)
H28A H 0.0659 0.4197 0.7303
C50A C 0.1314(14) 0.5130(10) 0.6910(9)
H29A H 0.0924 0.5445 0.6534
C51A C 0.2083(15) 0.5453(13) 0.6967(11)
H30A H 0.2204 0.5934 0.6616
C52A C 0.2637(12) 0.5033(10) 0.7556(9)
H31A H 0.3116 0.5232 0.7619
C53A C 0.2426(9) 0.4297(8) 0.8044(7)
C54A C 0.5670(4) 0.2429(5) 0.9190(4)
C55A C 0.5980(5) 0.1536(5) 0.9401(4)
C56A C 0.6978(6) 0.1089(4) 0.9297(4)
H32A H 0.7185 0.0492 0.9439
C57A C 0.7665(4) 0.1535(6) 0.8983(4)
H33A H 0.8332 0.1236 0.8913
C58A C 0.7355(6) 0.2428(6) 0.8772(4)
H34A H 0.7815 0.2726 0.8561
C59A C 0.6357(7) 0.2875(4) 0.8875(4)
H35A H 0.6149 0.3473 0.8734
C60A C 1.0372(9) 0.6735(8) 0.2940(6)
N1A N 0.2339(6) 0.1300(5) 0.8920(5)
N2A N 0.3020(7) 0.1142(5) 0.9366(4)
N3A N 0.3793(6) 0.0439(5) 0.9384(4)
N4A N 0.3999(6) 0.0231(5) 1.0887(4)
N5A N 0.3279(6) 0.0949(5) 1.0867(4)
N6A N 0.2785(6) 0.0898(5) 1.1505(4)
N7A N 0.2591(6) 0.2940(5) 1.0451(4)
N8A N 0.2870(6) 0.3670(5) 1.0149(4)
N9A N 0.2065(6) 0.2937(5) 1.1056(4)
N10A N 0.4383(5) 0.1994(5) 0.9620(4)
N11A N 0.4672(6) 0.2704(5) 0.9347(4)
N12A N 0.5138(6) 0.1304(5) 0.9647(4)
N13A N 0.1735(7) 0.3262(6) 0.8497(5)
N14A N 0.2400(6) 0.3161(5) 0.8914(4)
N15A N 0.2807(6) 0.3791(5) 0.8627(5)
N16A N 0.0608(7) 0.2210(6) 0.9786(5)
N17A N 0.1236(7) 0.2098(5) 1.0226(5)
N18A N 0.0787(6) 0.2024(6) 1.0867(4)
N19A N 0.9295(8) 0.7210(6) 0.4572(6)
H36A H 0.8929 0.7724 0.4372
N20A N 0.6381(6) 0.7212(6) 0.7355(4)
H37A H 0.6509 0.6975 0.7035
N21A N 0.8712(8) 1.0168(6) 0.4760(5)
H38A H 0.9046 0.9749 0.4602
O1A O 1.0861(6) 1.1100(6) 0.2563(4)
O2A O 1.0697(7) 1.2409(6) 0.2380(4)
O3A O 0.4129(6) 0.4788(5) 0.9181(5)
O4A O 0.4751(8) 0.4875(6) 0.8069(5)
O5A O 1.0627(7) 0.6728(5) 0.1759(5)
O6A O 0.9316(6) 0.7677(6) 0.2046(4)
O7A O 0.9603(8) 0.6221(6) 0.5644(4)
O8A O 0.7533(8) 1.0502(6) 0.5589(5)
O9A O 0.6723(7) 0.8201(5) 0.7616(4)
C61A C -0.0156(5) 0.2128(5) 1.0863(5)
C62A C -0.0967(7) 0.2162(6) 1.1366(4)
H39A H -0.0884 0.2080 1.1826
C63A C -0.1904(6) 0.2317(7) 1.1180(5)
H40A H -0.2447 0.2340 1.1517
C64A C -0.2029(5) 0.2440(7) 1.0492(6)
H41A H -0.2656 0.2544 1.0368
C65A C -0.1218(7) 0.2406(6) 0.9989(4)
H42A H -0.1302 0.2488 0.9528
C66A C -0.0282(6) 0.2250(5) 1.0174(4)
Zn1A Zn 0.28475(8) 0.20169(7) 0.99325(6)
Zn2A Zn 0.11005(9) 0.23263(8) 0.87834(7)
Zn3A Zn 0.36885(10) 0.38698(8) 0.92230(7)
Zn4A Zn 1.16112(9) 1.18943(7) 0.16468(6)
N3A_2 N 0.3793(6) 1.0439(5) -0.0616(4)
N4A_2 N 0.3999(6) 1.0231(5) 0.0887(4)
N6_2 N -0.2785(6) -0.0898(5) 0.8495(4)
N6A_2 N 1.2785(6) 1.0898(5) 0.1505(4)
N9_2 N -0.2065(6) -0.2937(5) 0.8944(4)
N9A_2 N 1.2065(6) 1.2937(5) 0.1056(4)
N12A_2 N 0.5138(6) 1.1304(5) -0.0353(4)
N18_2 N -0.0787(6) -0.2024(6) 0.9133(4)
N18A_2 N 1.0787(6) 1.2024(6) 0.0867(4)
Zn4_2 Zn 0.83888(9) 0.81057(7) -0.16468(6)
Zn4A_2 Zn 0.16112(9) 0.18943(7) 1.16468(6)
Zn5_2 Zn 0.5000 0.0000 1.0000
O10 O 0.3688(10) 0.3493(9) 0.3776(6)
O11 O 1.0002(14) 0.1054(12) 0.6183(10)
O12 O 0.9096(14) 0.1175(12) 0.7153(10)
loop_
_geom_bond_atom_site_label_1
_geom_bond_atom_site_label_2
_geom_bond_site_symmetry_1
_geom_bond_site_symmetry_2
C1 C60 1_555 1_555
C2 H1 1_555 1_555
C3 C2 1_555 1_555
H2 C3 1_555 1_555
C4 C3 1_555 1_555
H3 C4 1_555 1_555
C5 C4 1_555 1_555
C6 C5 1_555 1_555
H4 C6 1_555 1_555
C7 C8 1_555 1_555
C8 C9 1_555 1_555
C9 H5 1_555 1_555
C10 C9 1_555 1_555
C11 C10 1_555 1_555
H6 C11 1_555 1_555
C12 C11 1_555 1_555
C13 C8 1_555 1_555
H7 C13 1_555 1_555
C14 C12 1_555 1_555
C15 C16 1_555 1_555
C16 H8 1_555 1_555
C17 C16 1_555 1_555
C18 C17 1_555 1_555
H9 C18 1_555 1_555
C19 C18 1_555 1_555
H10 C19 1_555 1_555
C20 C15 1_555 1_555
H11 C20 1_555 1_555
C21 C17 1_555 1_555
C22 C10 1_555 1_555
C23 C24 1_555 1_555
C24 H12 1_555 1_555
C25 C24 1_555 1_555
C26 C25 1_555 1_555
H13 C26 1_555 1_555
C27 C26 1_555 1_555
H14 C27 1_555 1_555
C28 C23 1_555 1_555
H15 C28 1_555 1_555
C29 C25 1_555 1_555
C30 C31 1_555 1_555
C31 H16 1_555 1_555
C32 C31 1_555 1_555
H17 C32 1_555 1_555
C33 C32 1_555 1_555
H18 C33 1_555 1_555
C34 C33 1_555 1_555
H19 C34 1_555 1_555
C35 C36 1_555 1_555
C36 H20 1_555 1_555
C37 C36 1_555 1_555
H21 C37 1_555 1_555
C38 C37 1_555 1_555
H22 C38 1_555 1_555
C39 C38 1_555 1_555
H23 C39 1_555 1_555
C40 C35 1_555 1_555
C41 C42 1_555 1_555
C42 H24 1_555 1_555
C43 C42 1_555 1_555
H25 C43 1_555 1_555
C44 C43 1_555 1_555
H26 C44 1_555 1_555
C45 C44 1_555 1_555
H27 C45 1_555 1_555
C46 C41 1_555 1_555
C47 C30 1_555 1_555
C48 C49 1_555 1_555
C49 H28 1_555 1_555
C50 C49 1_555 1_555
H29 C50 1_555 1_555
C51 C50 1_555 1_555
H30 C51 1_555 1_555
C52 C51 1_555 1_555
H31 C52 1_555 1_555
C53 C48 1_555 1_555
C54 C55 1_555 1_555
C55 C56 1_555 1_555
C56 H32 1_555 1_555
C57 C56 1_555 1_555
H33 C57 1_555 1_555
C58 C57 1_555 1_555
H34 C58 1_555 1_555
C59 C54 1_555 1_555
H35 C59 1_555 1_555
C60 C2 1_555 1_555
N1 C30 1_555 1_555
N2 N1 1_555 1_555
N3 C47 1_555 1_555
N4 C35 1_555 1_555
N5 N4 1_555 1_555
N6 C40 1_555 1_555
N7 N8 1_555 1_555
N8 C41 1_555 1_555
N9 C46 1_555 1_555
N10 N11 1_555 1_555
N11 C54 1_555 1_555
N12 C55 1_555 1_555
N13 C48 1_555 1_555
N14 N13 1_555 1_555
N15 C53 1_555 1_555
N16 N17 1_555 1_555
N17 N18 1_555 1_555
N18 C61 1_555 1_555
N19 C5 1_555 1_555
H36 N19 1_555 1_555
N20 C22 1_555 1_555
H37 N20 1_555 1_555
N21 C14 1_555 1_555
H38 N21 1_555 1_555
O1 C21 1_555 1_555
O2 C21 1_555 1_555
O3 C29 1_555 1_555
O4 C29 1_555 1_555
O5 C1 1_555 1_555
O6 C1 1_555 1_555
O7 C7 1_555 1_555
O8 C14 1_555 1_555
O9 C22 1_555 1_555
C61 C62 1_555 1_555
C62 H39 1_555 1_555
C63 C62 1_555 1_555
H40 C63 1_555 1_555
C64 C63 1_555 1_555
H41 C64 1_555 1_555
C65 C64 1_555 1_555
H42 C65 1_555 1_555
C66 N16 1_555 1_555
Zn1 N2 1_555 1_555
Zn2 N1 1_555 1_555
Zn3 N8 1_555 1_555
Zn4 O1 1_555 1_555
Zn5 N3 1_555 1_555
C1A C60A 1_555 1_555
C2A H1A 1_555 1_555
C3A C2A 1_555 1_555
H2A C3A 1_555 1_555
C4A C3A 1_555 1_555
H3A C4A 1_555 1_555
C5A C4A 1_555 1_555
C6A C5A 1_555 1_555
H4A C6A 1_555 1_555
C7A C8A 1_555 1_555
C8A C9A 1_555 1_555
C9A H5A 1_555 1_555
C10A C9A 1_555 1_555
C11A C10A 1_555 1_555
H6A C11A 1_555 1_555
C12A C11A 1_555 1_555
C13A C8A 1_555 1_555
H7A C13A 1_555 1_555
C14A C12A 1_555 1_555
C15A C16A 1_555 1_555
C16A H8A 1_555 1_555
C17A C16A 1_555 1_555
C18A C17A 1_555 1_555
H9A C18A 1_555 1_555
C19A C18A 1_555 1_555
H10A C19A 1_555 1_555
C20A C15A 1_555 1_555
H11A C20A 1_555 1_555
C21A C17A 1_555 1_555
C22A C10A 1_555 1_555
C23A C24A 1_555 1_555
C24A H12A 1_555 1_555
C25A C24A 1_555 1_555
C26A C25A 1_555 1_555
H13A C26A 1_555 1_555
C27A C26A 1_555 1_555
H14A C27A 1_555 1_555
C28A C23A 1_555 1_555
H15A C28A 1_555 1_555
C29A C25A 1_555 1_555
C30A C31A 1_555 1_555
C31A H16A 1_555 1_555
C32A C31A 1_555 1_555
H17A C32A 1_555 1_555
C33A C32A 1_555 1_555
H18A C33A 1_555 1_555
C34A C33A 1_555 1_555
H19A C34A 1_555 1_555
C35A C36A 1_555 1_555
C36A H20A 1_555 1_555
C37A C36A 1_555 1_555
H21A C37A 1_555 1_555
C38A C37A 1_555 1_555
H22A C38A 1_555 1_555
C39A C38A 1_555 1_555
H23A C39A 1_555 1_555
C40A C35A 1_555 1_555
C41A C42A 1_555 1_555
C42A H24A 1_555 1_555
C43A C42A 1_555 1_555
H25A C43A 1_555 1_555
C44A C43A 1_555 1_555
H26A C44A 1_555 1_555
C45A C44A 1_555 1_555
H27A C45A 1_555 1_555
C46A C41A 1_555 1_555
C47A C30A 1_555 1_555
C48A C49A 1_555 1_555
C49A H28A 1_555 1_555
C50A C49A 1_555 1_555
H29A C50A 1_555 1_555
C51A C50A 1_555 1_555
H30A C51A 1_555 1_555
C52A C51A 1_555 1_555
H31A C52A 1_555 1_555
C53A C48A 1_555 1_555
C54A C55A 1_555 1_555
C55A C56A 1_555 1_555
C56A H32A 1_555 1_555
C57A C56A 1_555 1_555
H33A C57A 1_555 1_555
C58A C57A 1_555 1_555
H34A C58A 1_555 1_555
C59A C54A 1_555 1_555
H35A C59A 1_555 1_555
C60A C2A 1_555 1_555
N1A C30A 1_555 1_555
N2A N1A 1_555 1_555
N3A C47A 1_555 1_555
N4A C35A 1_555 1_555
N5A N4A 1_555 1_555
N6A C40A 1_555 1_555
N7A N8A 1_555 1_555
N8A C41A 1_555 1_555
N9A C46A 1_555 1_555
N10A N11A 1_555 1_555
N11A C54A 1_555 1_555
N12A C55A 1_555 1_555
N13A C48A 1_555 1_555
N14A N13A 1_555 1_555
N15A C53A 1_555 1_555
N16A N17A 1_555 1_555
N17A N18A 1_555 1_555
N18A C61A 1_555 1_555
N19A C5A 1_555 1_555
H36A N19A 1_555 1_555
N20A C22A 1_555 1_555
H37A N20A 1_555 1_555
N21A C14A 1_555 1_555
H38A N21A 1_555 1_555
O1A C21A 1_555 1_555
O2A C21A 1_555 1_555
O3A C29A 1_555 1_555
O4A C29A 1_555 1_555
O5A C1A 1_555 1_555
O6A Zn2 1_555 1_555
O7A C7A 1_555 1_555
O8A C14A 1_555 1_555
O9A C22A 1_555 1_555
C61A C62A 1_555 1_555
C62A H39A 1_555 1_555
C63A C62A 1_555 1_555
H40A C63A 1_555 1_555
C64A C63A 1_555 1_555
H41A C64A 1_555 1_555
C65A C64A 1_555 1_555
H42A C65A 1_555 1_555
C66A N16A 1_555 1_555
Zn1A N2A 1_555 1_555
Zn2A O6 1_555 1_555
Zn3A N8A 1_555 1_555
Zn4A O1A 1_555 1_555
N3A_2 Zn5 1_555 1_555
N4A_2 Zn5 1_555 1_555
N6_2 Zn4 1_555 1_555
N6A_2 Zn4A 1_555 1_555
N9_2 Zn4 1_555 1_555
N9A_2 Zn4A 1_555 1_555
N12A_2 Zn5 1_555 1_555
N18_2 Zn4 1_555 1_555
N18A_2 Zn4A 1_555 1_555
Zn4_2 N6 1_555 1_555
Zn4A_2 N6A 1_555 1_555
Zn5_2 N3A 1_555 1_555
C6 C60 1_555 1_555
C7 N19 1_555 1_555
C12 C13 1_555 1_555
C15 N21 1_555 1_555
C19 C20 1_555 1_555
C23 N20 1_555 1_555
C27 C28 1_555 1_555
C34 C47 1_555 1_555
C39 C40 1_555 1_555
C45 C46 1_555 1_555
C52 C53 1_555 1_555
C58 C59 1_555 1_555
N2 N3 1_555 1_555
N4 Zn5 1_555 1_555
N5 N6 1_555 1_555
N5 Zn1 1_555 1_555
N7 N9 1_555 1_555
N7 Zn1 1_555 1_555
N9 Zn4_2 1_555 1_555
N10 N12 1_555 1_555
N10 Zn1 1_555 1_555
N11 Zn3 1_555 1_555
N12 Zn5 1_555 1_555
N13 Zn2 1_555 1_555
N14 N15 1_555 1_555
N14 Zn1 1_555 1_555
N15 Zn3 1_555 1_555
N16 Zn2 1_555 1_555
N17 Zn1 1_555 1_555
N18 Zn4_2 1_555 1_555
O2 Zn4 1_555 1_555
O3 Zn3 1_555 1_555
C61 C66 1_555 1_555
C65 C66 1_555 1_555
C1A O6A 1_555 1_555
C6A C60A 1_555 1_555
C7A N19A 1_555 1_555
C12A C13A 1_555 1_555
C15A N21A 1_555 1_555
C19A C20A 1_555 1_555
C23A N20A 1_555 1_555
C27A C28A 1_555 1_555
C34A C47A 1_555 1_555
C39A C40A 1_555 1_555
C45A C46A 1_555 1_555
C52A C53A 1_555 1_555
C58A C59A 1_555 1_555
N1A Zn2A 1_555 1_555
N2A N3A 1_555 1_555
N4A Zn5_2 1_555 1_555
N5A N6A 1_555 1_555
N5A Zn1A 1_555 1_555
N7A N9A 1_555 1_555
N7A Zn1A 1_555 1_555
N9A Zn4A_2 1_555 1_555
N10A N12A 1_555 1_555
N10A Zn1A 1_555 1_555
N11A Zn3A 1_555 1_555
N12A Zn5_2 1_555 1_555
N13A Zn2A 1_555 1_555
N14A N15A 1_555 1_555
N14A Zn1A 1_555 1_555
N15A Zn3A 1_555 1_555
N16A Zn2A 1_555 1_555
N17A Zn1A 1_555 1_555
N18A Zn4A_2 1_555 1_555
O2A Zn4A 1_555 1_555
O3A Zn3A 1_555 1_555
C61A C66A 1_555 1_555
C65A C66A 1_555 1_555

#END
