
#######################################################################
#
#                 Cambridge Crystallographic Data Centre
#                                CCDC 
#
#######################################################################
#
# If this CIF has been generated from an entry in the Cambridge 
# Structural Database, then it will include bibliographic, chemical, 
# crystal, experimental, refinement or atomic coordinate data resulting 
# from the CCDC's data processing and validation procedures.
#
#######################################################################

data_SORTAW
_symmetry_cell_setting           monoclinic
_symmetry_space_group_name_H-M   'C 2/c'
_symmetry_Int_Tables_number      15
_space_group_name_Hall           '-C 2yn'
loop_
_symmetry_equiv_pos_site_id
_symmetry_equiv_pos_as_xyz
1 x,y,z
2 -x,y,1/2-z
3 1/2+x,1/2+y,z
4 1/2-x,1/2+y,1/2-z
5 -x,-y,-z
6 x,-y,1/2+z
7 1/2-x,1/2-y,-z
8 1/2+x,1/2-y,1/2+z
_cell_length_a                   49.31(3)
_cell_length_b                   15.081(10)
_cell_length_c                   29.103(18)
_cell_angle_alpha                90
_cell_angle_beta                 99.335(13)
_cell_angle_gamma                90
_cell_volume                     21355.7
loop_
_atom_site_label
_atom_site_type_symbol
_atom_site_fract_x
_atom_site_fract_y
_atom_site_fract_z
O14 O 0.21690(11) 0.5281(3) 0.18057(14)
N23 N 0.2068(2) 0.4287(4) 0.2316(2)
C67 C 0.1798(2) 0.4903(7) 0.2306(4)
H45 H 0.1649 0.4549 0.2377
H46 H 0.1749 0.5160 0.2002
H47 H 0.1837 0.5367 0.2533
C68 C 0.2102(4) 0.3600(7) 0.2621(4)
H48 H 0.2294 0.3492 0.2718
H49 H 0.2016 0.3079 0.2473
H50 H 0.2018 0.3743 0.2888
C69 C 0.2510(2) 0.4143(8) 0.2089(5)
H51 H 0.2490 0.3658 0.1873
H52 H 0.2565 0.3921 0.2399
H53 H 0.2646 0.4547 0.2013
C70 C 0.2229(3) 0.4637(5) 0.2061(3)
O15 O 0.11488(10) 0.7037(3) 0.0908(2)
N24 N 0.15461(16) 0.7622(5) 0.1204(3)
C71 C 0.1333(2) 0.7610(6) 0.0908(4)
C72 C 0.1366(4) 0.8255(8) 0.0537(5)
H54 H 0.1311 0.8834 0.0623
H55 H 0.1254 0.8078 0.0250
H56 H 0.1555 0.8273 0.0496
C73 C 0.1773(2) 0.8185(11) 0.1330(6)
H57 H 0.1848 0.8344 0.1057
H58 H 0.1910 0.7885 0.1546
H59 H 0.1715 0.8711 0.1473
C74 C 0.1535(4) 0.6818(12) 0.1593(4)
H60 H 0.1443 0.7030 0.1838
H61 H 0.1719 0.6641 0.1722
H62 H 0.1437 0.6318 0.1444
O1 O 0.46265(10) 0.2308(4) 0.0268(2)
O2 O 0.45331(9) 0.1011(4) 0.05274(19)
C1 C 0.47049(13) 0.1545(6) 0.0413(3)
C2 C 0.49959(12) 0.1287(4) 0.0460(3)
C3 C 0.50715(12) 0.0442(5) 0.0551(3)
C4 C 0.52002(14) 0.1877(4) 0.0409(3)
C5 C 0.54727(12) 0.1630(4) 0.0463(3)
C6 C 0.53414(13) 0.0165(4) 0.0590(3)
C7 C 0.55421(10) 0.0770(3) 0.0551(2)
N1 N 0.58280(8) 0.0525(3) 0.06168(17)
C8 C 0.59251(10) -0.0278(3) 0.0566(2)
Zn1 Zn 0.849920(10) 0.72416(3) 0.057681(17)
Zn2 Zn 0.811011(11) 0.52536(3) 0.06251(2)
Zn3 Zn 0.817108(12) 0.85921(3) -0.03663(2)
Zn4 Zn 0.918623(11) 0.66718(4) 0.03634(2)
Zn5 Zn 0.644983(14) -0.66282(4) 0.32956(2)
O3 O 0.78299(7) 0.4375(2) 0.05828(14)
O4 O 0.80896(10) 0.3852(2) 0.12116(16)
O5 O 0.67446(14) -0.5889(3) 0.28639(19)
O6 O 0.63266(11) -0.5540(3) 0.29410(15)
O7 O 0.62842(13) -0.7458(5) 0.2659(2)
H1 H 0.6117 -0.7720 0.2677
H2 H 0.6256 -0.7131 0.2389
O8 O 0.68269(8) 0.1219(4) 0.02101(15)
O9 O 0.57838(7) -0.0933(2) 0.04301(17)
O10 O 0.69094(11) -0.2495(4) 0.1258(2)
N2 N 0.85111(7) 0.5158(2) 0.05997(13)
N3 N 0.86521(7) 0.5890(2) 0.05211(13)
N4 N 0.89109(8) 0.5695(2) 0.04772(14)
N5 N 0.81168(8) 0.6167(2) 0.11451(13)
N6 N 0.82972(8) 0.6837(2) 0.11719(13)
N7 N 0.82827(8) 0.7335(2) 0.15422(13)
N8 N 0.79884(7) 0.6149(2) 0.01087(13)
N9 N 0.81221(7) 0.6916(2) 0.01016(13)
N10 N 0.79874(7) 0.7459(2) -0.02271(13)
N11 N 0.83589(7) 0.8608(2) 0.06510(13)
N12 N 0.82584(7) 0.9133(2) 0.02859(13)
N13 N 0.84082(7) 0.9070(2) 0.10470(13)
N14 N 0.86891(8) 0.7666(2) -0.00298(14)
N15 N 0.85699(8) 0.8227(2) -0.03617(14)
N16 N 0.89558(8) 0.7519(2) -0.00716(15)
N17 N 0.88879(7) 0.7556(2) 0.10467(14)
N18 N 0.88933(8) 0.7988(3) 0.14493(15)
N19 N 0.91408(8) 0.7364(3) 0.09671(17)
N20 N 0.71025(7) 0.1018(2) 0.09063(14)
H3 H 0.7129 0.0680 0.1148
H4 H 0.5944 0.0941 0.0698
N21 N 0.65605(9) -0.2304(3) 0.16764(14)
H5 H 0.6435 -0.1932 0.1721
C9 C 0.76759(10) 0.3083(3) 0.09180(19)
C10 C 0.74716(12) 0.2986(4) 0.0550(3)
H6 H 0.7461 0.3382 0.0303
C11 C 0.72744(12) 0.2302(5) 0.0529(3)
H7 H 0.7133 0.2254 0.0276
C12 C 0.72960(9) 0.1707(3) 0.08943(18)
C13 C 0.75072(11) 0.1798(3) 0.12644(17)
H8 H 0.7522 0.1400 0.1511
C14 C 0.76976(11) 0.2476(3) 0.12726(18)
H9 H 0.7841 0.2520 0.1521
C15 C 0.68814(10) 0.0829(4) 0.05826(19)
C16 C 0.66984(9) 0.0115(3) 0.07145(16)
C17 C 0.64195(9) 0.0245(3) 0.05812(17)
H10 H 0.6356 0.0753 0.0416
C18 C 0.63270(10) -0.1124(3) 0.09404(17)
H11 H 0.6202 -0.1533 0.1022
C19 C 0.66099(10) -0.1275(3) 0.10714(18)
C20 C 0.67960(9) -0.0646(3) 0.09537(16)
H12 H 0.6984 -0.0739 0.1036
H13 H 0.5609 0.2049 0.0454
H14 H 0.5156 0.2462 0.0342
H15 H 0.4937 0.0014 0.0592
H16 H 0.5390 -0.0440 0.0648
C21 C 0.67123(11) -0.2073(3) 0.1350(2)
C22 C 0.65794(11) -0.3069(3) 0.19518(18)
C23 C 0.63615(13) -0.3207(4) 0.2198(2)
H17 H 0.6222 -0.2787 0.2183
C24 C 0.63535(14) -0.3951(5) 0.2457(2)
H18 H 0.6208 -0.4041 0.2619
C25 C 0.65604(15) -0.4578(4) 0.2482(2)
C26 C 0.67778(15) -0.4417(4) 0.2247(2)
H19 H 0.6919 -0.4830 0.2266
C27 C 0.67897(13) -0.3667(3) 0.19858(19)
H20 H 0.6939 -0.3565 0.1834
C28 C 0.65547(19) -0.5412(5) 0.2768(2)
C29 C 0.78822(11) 0.3801(3) 0.0912(2)
C30 C 0.77549(8) 0.6186(3) -0.02210(15)
C31 C 0.75524(9) 0.5545(3) -0.03660(18)
H21 H 0.7552 0.4994 -0.0223
C32 C 0.73560(10) 0.5785(4) -0.07310(19)
H22 H 0.7220 0.5376 -0.0843
C33 C 0.73501(10) 0.6626(4) -0.0946(2)
H23 H 0.7209 0.6758 -0.1190
C34 C 0.75474(10) 0.7252(3) -0.08047(19)
H24 H 0.7543 0.7807 -0.0945
C35 C 0.77582(9) 0.7018(3) -0.04362(16)
C36 C 0.87677(12) 0.8460(3) -0.06260(17)
C37 C 0.87528(13) 0.9023(3) -0.10143(19)
H25 H 0.8592 0.9313 -0.1141
C38 C 0.89933(18) 0.9115(5) -0.1194(3)
H26 H 0.8996 0.9499 -0.1443
C39 C 0.92360(18) 0.8646(5) -0.1013(3)
H27 H 0.9389 0.8721 -0.1157
C40 C 0.92579(14) 0.8081(4) -0.0632(3)
H28 H 0.9418 0.7778 -0.0512
C41 C 0.90068(12) 0.8012(3) -0.04414(19)
C42 C 0.82467(9) 0.9970(3) 0.04565(17)
C43 C 0.81542(10) 1.0766(3) 0.0228(2)
H29 H 0.8084 1.0784 -0.0089
C44 C 0.81749(12) 1.1519(3) 0.0504(2)
H30 H 0.8120 1.2062 0.0368
C45 C 0.82762(13) 1.1487(3) 0.0984(2)
H31 H 0.8285 1.2010 0.1155
C46 C 0.83613(11) 1.0718(3) 0.12078(19)
H32 H 0.8428 1.0706 0.1526
C47 C 0.83434(9) 0.9941(3) 0.09355(18)
C48 C 0.93211(12) 0.7714(5) 0.1322(3)
C49 C 0.96122(15) 0.7744(8) 0.1411(4)
H33 H 0.9719 0.7465 0.1218
C50 C 0.97254(19) 0.8212(11) 0.1800(5)
H34 H 0.9915 0.8278 0.1860
C51 C 0.95714(19) 0.8598(9) 0.2112(4)
H35 H 0.9662 0.8884 0.2376
C52 C 0.92901(17) 0.8560(7) 0.2037(3)
H36 H 0.9186 0.8816 0.2241
C53 C 0.91647(13) 0.8106(5) 0.1623(2)
C54 C 0.79808(10) 0.6239(3) 0.15151(17)
C55 C 0.80822(10) 0.6977(3) 0.17686(17)
C56 C 0.79803(13) 0.7239(4) 0.2172(2)
H37 H 0.8053 0.7720 0.2351
C57 C 0.77647(15) 0.6741(5) 0.2288(2)
H38 H 0.7690 0.6890 0.2551
C58 C 0.76556(13) 0.6008(4) 0.2012(2)
H39 H 0.7508 0.5699 0.2097
C59 C 0.77574(11) 0.5745(4) 0.1634(2)
H40 H 0.7685 0.5260 0.1457
C60 C 0.89444(10) 0.4801(3) 0.05282(17)
C61 C 0.91719(11) 0.4238(4) 0.0514(2)
H41 H 0.9342 0.4457 0.0469
C62 C 0.91268(14) 0.3345(4) 0.0570(2)
H42 H 0.9272 0.2953 0.0563
C63 C 0.88713(14) 0.3001(3) 0.0636(2)
H43 H 0.8853 0.2392 0.0671
C64 C 0.86479(12) 0.3534(3) 0.06523(19)
H44 H 0.8479 0.3305 0.0695
C65 C 0.86905(10) 0.4458(3) 0.05989(17)
N22 N 0.79456(7) 0.9661(2) -0.08971(11)
O11 O 0.77921(13) 0.9242(4) -0.0733(2)
C66 C 0.62317(10) -0.0381(3) 0.06933(16)
O12 O 0.81652(12) 0.9636(4) -0.08415(19)
O13 O 0.78271(12) 1.0250(4) -0.1227(2)
O1B O 0.96265(10) 0.7308(4) 0.0268(2)
O2B O 0.95331(9) 0.6011(4) 0.05274(19)
Zn4B Zn 0.418623(11) 0.16718(4) 0.03634(2)
Zn5C Zn 0.855017(14) 0.83718(4) 0.17044(2)
N7C N 0.67173(8) -0.7665(2) 0.34578(13)
N13C N 0.65918(7) -0.5930(2) 0.39530(13)
N18C N 0.61067(8) -0.7012(3) 0.35507(15)
loop_
_geom_bond_atom_site_label_1
_geom_bond_atom_site_label_2
_geom_bond_site_symmetry_1
_geom_bond_site_symmetry_2
O1 C1 1_555 1_555
O2 C1 1_555 1_555
C1 C2 1_555 1_555
C2 C3 1_555 1_555
C3 C6 1_555 1_555
C4 C2 1_555 1_555
C5 C4 1_555 1_555
C6 C7 1_555 1_555
C7 C5 1_555 1_555
N1 C7 1_555 1_555
C8 N1 1_555 1_555
Zn1 N3 1_555 1_555
Zn2 O3 1_555 1_555
Zn3 N10 1_555 1_555
Zn4 N4 1_555 1_555
Zn5 O5 1_555 1_555
O3 C29 1_555 1_555
O4 C29 1_555 1_555
O5 C28 1_555 1_555
O6 Zn5 1_555 1_555
O7 Zn5 1_555 1_555
H1 O7 1_555 1_555
H2 O7 1_555 1_555
O8 C15 1_555 1_555
O9 C8 1_555 1_555
O10 C21 1_555 1_555
N2 Zn2 1_555 1_555
N3 N2 1_555 1_555
N4 N3 1_555 1_555
N5 Zn2 1_555 1_555
N6 Zn1 1_555 1_555
N7 N6 1_555 1_555
N8 Zn2 1_555 1_555
N9 Zn1 1_555 1_555
N10 N9 1_555 1_555
N11 Zn1 1_555 1_555
N12 Zn3 1_555 1_555
N13 N11 1_555 1_555
N14 Zn1 1_555 1_555
N15 Zn3 1_555 1_555
N16 Zn4 1_555 1_555
N17 Zn1 1_555 1_555
N18 N17 1_555 1_555
N19 Zn4 1_555 1_555
N20 H3 1_555 1_555
H4 N1 1_555 1_555
N21 H5 1_555 1_555
C9 C10 1_555 1_555
C10 H6 1_555 1_555
C11 C10 1_555 1_555
H7 C11 1_555 1_555
C12 N20 1_555 1_555
C13 C12 1_555 1_555
H8 C13 1_555 1_555
C14 C9 1_555 1_555
H9 C14 1_555 1_555
C15 N20 1_555 1_555
C16 C15 1_555 1_555
C17 C16 1_555 1_555
H10 C17 1_555 1_555
C18 H11 1_555 1_555
C19 C18 1_555 1_555
C20 C16 1_555 1_555
H12 C20 1_555 1_555
H13 C5 1_555 1_555
H14 C4 1_555 1_555
H15 C3 1_555 1_555
H16 C6 1_555 1_555
C21 N21 1_555 1_555
C22 N21 1_555 1_555
C23 C22 1_555 1_555
H17 C23 1_555 1_555
C24 C23 1_555 1_555
H18 C24 1_555 1_555
C25 C24 1_555 1_555
C26 C25 1_555 1_555
H19 C26 1_555 1_555
C27 C22 1_555 1_555
H20 C27 1_555 1_555
C28 O6 1_555 1_555
C29 C9 1_555 1_555
C30 N8 1_555 1_555
C31 C30 1_555 1_555
H21 C31 1_555 1_555
C32 C31 1_555 1_555
H22 C32 1_555 1_555
C33 C32 1_555 1_555
H23 C33 1_555 1_555
C34 C33 1_555 1_555
H24 C34 1_555 1_555
C35 N10 1_555 1_555
C36 N15 1_555 1_555
C37 C36 1_555 1_555
H25 C37 1_555 1_555
C38 C37 1_555 1_555
H26 C38 1_555 1_555
C39 C38 1_555 1_555
H27 C39 1_555 1_555
C40 C39 1_555 1_555
H28 C40 1_555 1_555
C41 N16 1_555 1_555
C42 N12 1_555 1_555
C43 C42 1_555 1_555
H29 C43 1_555 1_555
C44 C43 1_555 1_555
H30 C44 1_555 1_555
C45 C44 1_555 1_555
H31 C45 1_555 1_555
C46 C45 1_555 1_555
H32 C46 1_555 1_555
C47 N13 1_555 1_555
C48 N19 1_555 1_555
C49 C48 1_555 1_555
H33 C49 1_555 1_555
C50 C49 1_555 1_555
H34 C50 1_555 1_555
C51 C50 1_555 1_555
H35 C51 1_555 1_555
C52 C51 1_555 1_555
H36 C52 1_555 1_555
C53 N18 1_555 1_555
C54 N5 1_555 1_555
C55 N7 1_555 1_555
C56 C55 1_555 1_555
H37 C56 1_555 1_555
C57 C56 1_555 1_555
H38 C57 1_555 1_555
C58 C57 1_555 1_555
H39 C58 1_555 1_555
C59 C54 1_555 1_555
H40 C59 1_555 1_555
C60 N4 1_555 1_555
C61 C60 1_555 1_555
H41 C61 1_555 1_555
C62 C61 1_555 1_555
H42 C62 1_555 1_555
C63 C62 1_555 1_555
H43 C63 1_555 1_555
C64 C63 1_555 1_555
H44 C64 1_555 1_555
C65 N2 1_555 1_555
N22 O11 1_555 1_555
O11 Zn3 1_555 1_555
C66 C8 1_555 1_555
O12 Zn3 1_555 1_555
O13 N22 1_555 1_555
O14 C70 1_555 1_555
N23 C67 1_555 1_555
C67 H45 1_555 1_555
H46 C67 1_555 1_555
H47 C67 1_555 1_555
C68 N23 1_555 1_555
H48 C68 1_555 1_555
H49 C68 1_555 1_555
H50 C68 1_555 1_555
C69 H51 1_555 1_555
H52 C69 1_555 1_555
H53 C69 1_555 1_555
C70 N23 1_555 1_555
O15 C71 1_555 1_555
N24 C71 1_555 1_555
C71 C72 1_555 1_555
C72 H54 1_555 1_555
H55 C72 1_555 1_555
H56 C72 1_555 1_555
C73 N24 1_555 1_555
H57 C73 1_555 1_555
H58 C73 1_555 1_555
H59 C73 1_555 1_555
C74 N24 1_555 1_555
H60 C74 1_555 1_555
H61 C74 1_555 1_555
H62 C74 1_555 1_555
O1B Zn4 1_555 1_555
O2B Zn4 1_555 1_555
Zn4B O1 1_555 1_555
Zn5C N7 1_555 1_555
N7C Zn5 1_555 1_555
N13C Zn5 1_555 1_555
N18C Zn5 1_555 1_555
O2 Zn4B 1_555 1_555
N5 N6 1_555 1_555
N8 N9 1_555 1_555
N11 N12 1_555 1_555
N13 Zn5C 1_555 1_555
N14 N15 1_555 1_555
N14 N16 1_555 1_555
N17 N19 1_555 1_555
N18 Zn5C 1_555 1_555
C11 C12 1_555 1_555
C13 C14 1_555 1_555
C17 C66 1_555 1_555
C18 C66 1_555 1_555
C19 C20 1_555 1_555
C19 C21 1_555 1_555
C25 C28 1_555 1_555
C26 C27 1_555 1_555
C30 C35 1_555 1_555
C34 C35 1_555 1_555
C36 C41 1_555 1_555
C40 C41 1_555 1_555
C42 C47 1_555 1_555
C46 C47 1_555 1_555
C48 C53 1_555 1_555
C52 C53 1_555 1_555
C54 C55 1_555 1_555
C58 C59 1_555 1_555
C60 C65 1_555 1_555
C64 C65 1_555 1_555
N22 O12 1_555 1_555
C69 C70 1_555 1_555

#END
