
#######################################################################
#
#                 Cambridge Crystallographic Data Centre
#                                CCDC 
#
#######################################################################
#
# If this CIF has been generated from an entry in the Cambridge 
# Structural Database, then it will include bibliographic, chemical, 
# crystal, experimental, refinement or atomic coordinate data resulting 
# from the CCDC's data processing and validation procedures.
#
#######################################################################

data_SORVAX
_symmetry_cell_setting           monoclinic
_symmetry_space_group_name_H-M   'C 2/c'
_symmetry_Int_Tables_number      15
_space_group_name_Hall           '-C 2yn'
loop_
_symmetry_equiv_pos_site_id
_symmetry_equiv_pos_as_xyz
1 x,y,z
2 -x,y,1/2-z
3 1/2+x,1/2+y,z
4 1/2-x,1/2+y,1/2-z
5 -x,-y,-z
6 x,-y,1/2+z
7 1/2-x,1/2-y,-z
8 1/2+x,1/2-y,1/2+z
_cell_length_a                   24.9319(7)
_cell_length_b                   10.6376(3)
_cell_length_c                   15.3725(4)
_cell_angle_alpha                90
_cell_angle_beta                 107.8060(10)
_cell_angle_gamma                90
_cell_volume                     3881.73
loop_
_atom_site_label
_atom_site_type_symbol
_atom_site_fract_x
_atom_site_fract_y
_atom_site_fract_z
Cu1 Cu 0.082415(15) 0.15585(3) 0.12009(2)
Cu2 Cu 0.083549(15) 0.34464(3) -0.03898(2)
Br1 Br 0.004832(12) 0.25161(4) 0.00188(2)
Br2 Br 0.161690(11) 0.25002(3) 0.080178(19)
C1 C 0.08381(11) 0.0649(2) 0.22816(18)
N1 N 0.11911(10) -0.0247(2) 0.27752(16)
C2 C 0.10759(13) -0.0490(3) 0.3589(2)
H1 H 0.1271 -0.1067 0.4050
C3 C 0.06395(13) 0.0237(3) 0.3606(2)
H2 H 0.0462 0.0270 0.4071
N2 N 0.05010(9) 0.0930(2) 0.28077(15)
C4 C 0.0000 0.1715(4) 0.2500
H3 H 0.0026 0.2261 0.1993
C5 C 0.08435(11) 0.4348(2) -0.14655(18)
N3 N 0.11973(9) 0.5244(2) -0.16144(15)
C6 C 0.10726(13) 0.5493(3) -0.2541(2)
H4 H 0.1264 0.6072 -0.2813
C7 C 0.06342(13) 0.4770(3) -0.2984(2)
H5 H 0.0452 0.4740 -0.3624
N4 N 0.05009(9) 0.4079(2) -0.23194(15)
C8 C 0.0000 0.3284(4) -0.2500
H6 H -0.0029 0.2738 -0.3034
C9 C 0.16654(11) -0.0840(3) 0.2514(2)
C10 C 0.14804(14) -0.1085(3) 0.1488(2)
H7 H 0.1129 -0.1569 0.1314
H8 H 0.1774 -0.1562 0.1329
H9 H 0.1419 -0.0282 0.1160
C11 C 0.18163(14) -0.2092(3) 0.3023(3)
H10 H 0.1938 -0.1937 0.3683
H11 H 0.2122 -0.2497 0.2851
H12 H 0.1485 -0.2642 0.2861
C12 C 0.21660(12) 0.0044(3) 0.2791(2)
H13 H 0.2065 0.0844 0.2465
H14 H 0.2483 -0.0334 0.2635
H15 H 0.2274 0.0194 0.3451
C13 C 0.16740(11) 0.5827(3) -0.0886(2)
C14 C 0.18441(14) 0.7048(3) -0.1260(2)
H16 H 0.1995 0.6852 -0.1764
H17 H 0.2133 0.7479 -0.0773
H18 H 0.1514 0.7593 -0.1483
C15 C 0.14873(13) 0.6129(3) -0.0057(2)
H19 H 0.1147 0.6650 -0.0244
H20 H 0.1788 0.6587 0.0393
H21 H 0.1407 0.5346 0.0215
C16 C 0.21681(12) 0.4921(3) -0.0641(2)
H22 H 0.2064 0.4153 -0.0380
H23 H 0.2491 0.5315 -0.0193
H24 H 0.2268 0.4710 -0.1193
Cu1A Cu -0.082415(15) 0.15585(3) 0.37991(2)
Cu2A Cu -0.083549(15) 0.34464(3) 0.53898(2)
Cu2A_2 Cu -0.083549(15) 0.34464(3) -0.46102(2)
Br1A Br -0.004832(12) 0.25161(4) 0.49812(2)
Br2A Br -0.161690(11) 0.25002(3) 0.419822(19)
C1A C -0.08381(11) 0.0649(2) 0.27184(18)
N1A N -0.11911(10) -0.0247(2) 0.22248(16)
C2A C -0.10759(13) -0.0490(3) 0.1411(2)
H1A H -0.1271 -0.1067 0.0950
C3A C -0.06395(13) 0.0237(3) 0.1394(2)
H2A H -0.0462 0.0270 0.0929
N2A N -0.05010(9) 0.0930(2) 0.21923(15)
H3A H -0.0026 0.2261 0.3007
C5A C -0.08435(11) 0.4348(2) -0.35345(18)
C5A_2 C -0.08435(11) 0.4348(2) 0.64655(18)
N3A N -0.11973(9) 0.5244(2) -0.33856(15)
C6A C -0.10726(13) 0.5493(3) -0.2459(2)
H4A H -0.1264 0.6072 -0.2187
C7A C -0.06342(13) 0.4770(3) -0.2016(2)
H5A H -0.0452 0.4740 -0.1376
N4A N -0.05009(9) 0.4079(2) -0.26806(15)
H6A H 0.0029 0.2738 -0.1966
C9A C -0.16654(11) -0.0840(3) 0.2486(2)
C10A C -0.14804(14) -0.1085(3) 0.3512(2)
H7A H -0.1129 -0.1569 0.3686
H8A H -0.1774 -0.1562 0.3671
H9A H -0.1419 -0.0282 0.3840
C11A C -0.18163(14) -0.2092(3) 0.1977(3)
H10A H -0.1938 -0.1937 0.1317
H11A H -0.2122 -0.2497 0.2149
H12A H -0.1485 -0.2642 0.2139
C12A C -0.21660(12) 0.0044(3) 0.2209(2)
H13A H -0.2065 0.0844 0.2535
H14A H -0.2483 -0.0334 0.2365
H15A H -0.2274 0.0194 0.1549
C13A C -0.16740(11) 0.5827(3) -0.4114(2)
C14A C -0.18441(14) 0.7048(3) -0.3740(2)
H16A H -0.1995 0.6852 -0.3236
H17A H -0.2133 0.7479 -0.4227
H18A H -0.1514 0.7593 -0.3517
C15A C -0.14873(13) 0.6129(3) -0.4943(2)
H19A H -0.1147 0.6650 -0.4756
H20A H -0.1788 0.6587 -0.5393
H21A H -0.1407 0.5346 -0.5215
C16A C -0.21681(12) 0.4921(3) -0.4359(2)
H22A H -0.2064 0.4153 -0.4620
H23A H -0.2491 0.5315 -0.4807
H24A H -0.2268 0.4710 -0.3807
loop_
_geom_bond_atom_site_label_1
_geom_bond_atom_site_label_2
_geom_bond_site_symmetry_1
_geom_bond_site_symmetry_2
Cu1 Br1 1_555 1_555
Cu2 Br1 1_555 1_555
Br2 Cu1 1_555 1_555
C1 Cu1 1_555 1_555
N1 C1 1_555 1_555
C2 N1 1_555 1_555
H1 C2 1_555 1_555
C3 C2 1_555 1_555
H2 C3 1_555 1_555
N2 C1 1_555 1_555
C4 N2 1_555 1_555
H3 C4 1_555 1_555
C5 Cu2 1_555 1_555
N3 C5 1_555 1_555
C6 N3 1_555 1_555
H4 C6 1_555 1_555
C7 C6 1_555 1_555
H5 C7 1_555 1_555
N4 C5 1_555 1_555
C8 N4 1_555 1_555
H6 C8 1_555 1_555
C9 N1 1_555 1_555
C10 C9 1_555 1_555
H7 C10 1_555 1_555
H8 C10 1_555 1_555
H9 C10 1_555 1_555
C11 C9 1_555 1_555
H10 C11 1_555 1_555
H11 C11 1_555 1_555
H12 C11 1_555 1_555
C12 C9 1_555 1_555
H13 C12 1_555 1_555
H14 C12 1_555 1_555
H15 C12 1_555 1_555
C13 N3 1_555 1_555
C14 C13 1_555 1_555
H16 C14 1_555 1_555
H17 C14 1_555 1_555
H18 C14 1_555 1_555
C15 C13 1_555 1_555
H19 C15 1_555 1_555
H20 C15 1_555 1_555
H21 C15 1_555 1_555
C16 C13 1_555 1_555
H22 C16 1_555 1_555
H23 C16 1_555 1_555
H24 C16 1_555 1_555
Cu1A Br1A 1_555 1_555
Cu2A Br1A 1_555 1_555
Cu2A_2 C5A 1_555 1_555
Br2A Cu1A 1_555 1_555
C1A Cu1A 1_555 1_555
N1A C1A 1_555 1_555
C2A N1A 1_555 1_555
H1A C2A 1_555 1_555
C3A C2A 1_555 1_555
H2A C3A 1_555 1_555
N2A C4 1_555 1_555
H3A C4 1_555 1_555
C5A N3A 1_555 1_555
C5A_2 Cu2A 1_555 1_555
N3A C6A 1_555 1_555
C6A H4A 1_555 1_555
C7A C6A 1_555 1_555
H5A C7A 1_555 1_555
N4A C8 1_555 1_555
H6A C8 1_555 1_555
C9A N1A 1_555 1_555
C10A C9A 1_555 1_555
H7A C10A 1_555 1_555
H8A C10A 1_555 1_555
H9A C10A 1_555 1_555
C11A C9A 1_555 1_555
H10A C11A 1_555 1_555
H11A C11A 1_555 1_555
H12A C11A 1_555 1_555
C12A C9A 1_555 1_555
H13A C12A 1_555 1_555
H14A C12A 1_555 1_555
H15A C12A 1_555 1_555
C13A N3A 1_555 1_555
C14A C13A 1_555 1_555
H16A C14A 1_555 1_555
H17A C14A 1_555 1_555
H18A C14A 1_555 1_555
C15A C13A 1_555 1_555
H19A C15A 1_555 1_555
H20A C15A 1_555 1_555
H21A C15A 1_555 1_555
C16A C13A 1_555 1_555
H22A C16A 1_555 1_555
H23A C16A 1_555 1_555
H24A C16A 1_555 1_555
Cu2 Br2 1_555 1_555
C3 N2 1_555 1_555
C7 N4 1_555 1_555
Cu2A Br2A 1_555 1_555
C1A N2A 1_555 1_555
C3A N2A 1_555 1_555
C5A N4A 1_555 1_555
C7A N4A 1_555 1_555

#END
