
#######################################################################
#
#                 Cambridge Crystallographic Data Centre
#                                CCDC 
#
#######################################################################
#
# If this CIF has been generated from an entry in the Cambridge 
# Structural Database, then it will include bibliographic, chemical, 
# crystal, experimental, refinement or atomic coordinate data resulting 
# from the CCDC's data processing and validation procedures.
#
#######################################################################

data_SORVOL
_symmetry_cell_setting           monoclinic
_symmetry_space_group_name_H-M   'C 2/c'
_symmetry_Int_Tables_number      15
_space_group_name_Hall           '-C 2yn'
loop_
_symmetry_equiv_pos_site_id
_symmetry_equiv_pos_as_xyz
1 x,y,z
2 -x,y,1/2-z
3 1/2+x,1/2+y,z
4 1/2-x,1/2+y,1/2-z
5 -x,-y,-z
6 x,-y,1/2+z
7 1/2-x,1/2-y,-z
8 1/2+x,1/2-y,1/2+z
_cell_length_a                   10.1810(18)
_cell_length_b                   14.4360(18)
_cell_length_c                   12.894(3)
_cell_angle_alpha                90
_cell_angle_beta                 112.94(3)
_cell_angle_gamma                90
_cell_volume                     1745.19
loop_
_atom_site_label
_atom_site_type_symbol
_atom_site_fract_x
_atom_site_fract_y
_atom_site_fract_z
Cu1 Cu 0.5000 0.19461(3) 0.2500
O1 O 0.5477(2) 0.28961(13) 0.36461(17)
O2 O 0.3237(3) 0.29128(15) 0.3498(2)
O3 O 0.5547(3) 0.25988(13) 0.60272(17)
O4 O 0.6949(2) 0.35270(15) 0.73635(17)
H1 H 0.729(4) 0.303(2) 0.764(4)
N1 N 0.5669(2) 0.09132(15) 0.35828(18)
C1 C 0.6412(3) 0.0989(2) 0.4691(2)
H2 H 0.6605 0.1575 0.5015
C2 C 0.6899(3) 0.0224(3) 0.5365(3)
H3 H 0.7409 0.0290 0.6136
C3 C 0.6626(4) -0.0639(3) 0.4888(3)
H4 H 0.6944 -0.1165 0.5332
C4 C 0.5881(3) -0.0720(2) 0.3752(3)
H5 H 0.5698 -0.1302 0.3416
C5 C 0.5404(3) 0.00670(17) 0.3111(2)
C6 C 0.4747(3) 0.41273(16) 0.4485(2)
C7 C 0.5476(3) 0.42041(16) 0.5648(2)
C8 C 0.5713(3) 0.50781(17) 0.6141(2)
H6 H 0.6196 0.5127 0.6917
C9 C 0.4452(3) 0.32233(17) 0.3842(2)
C10 C 0.5975(3) 0.33555(19) 0.6354(2)
Cu1D Cu 0.5000 0.80539(3) 0.7500
O1D O 0.4523(2) 0.71039(13) 0.63539(17)
O1A O 0.4523(2) 0.28961(13) 0.13539(17)
O2D O 0.6763(3) 0.70872(15) 0.6502(2)
O3D O 0.4453(3) 0.74012(13) 0.39728(17)
O4D O 0.3051(2) 0.64730(15) 0.26365(17)
H1D H 0.271(4) 0.697(2) 0.236(4)
N1A N 0.4331(2) 0.09132(15) 0.14172(18)
C1A C 0.3588(3) 0.0989(2) 0.0309(2)
H2A H 0.3395 0.1575 -0.0015
C2A C 0.3101(3) 0.0224(3) -0.0365(3)
H3A H 0.2591 0.0290 -0.1136
C3A C 0.3374(4) -0.0639(3) 0.0112(3)
H4A H 0.3056 -0.1165 -0.0332
C4A C 0.4119(3) -0.0720(2) 0.1248(3)
H5A H 0.4302 -0.1302 0.1584
C5A C 0.4596(3) 0.00670(17) 0.1889(2)
C6D C 0.5253(3) 0.58727(16) 0.5515(2)
C7D C 0.4524(3) 0.57959(16) 0.4352(2)
C8D C 0.4287(3) 0.49219(17) 0.3859(2)
H6D H 0.3804 0.4873 0.3083
C9D C 0.5548(3) 0.67767(17) 0.6158(2)
C10D C 0.4025(3) 0.66445(19) 0.3646(2)
loop_
_geom_bond_atom_site_label_1
_geom_bond_atom_site_label_2
_geom_bond_site_symmetry_1
_geom_bond_site_symmetry_2
Cu1 O1 1_555 1_555
O1 C9 1_555 1_555
O2 C9 1_555 1_555
O3 C10 1_555 1_555
O4 H1 1_555 1_555
N1 Cu1 1_555 1_555
C1 N1 1_555 1_555
H2 C1 1_555 1_555
C2 C1 1_555 1_555
H3 C2 1_555 1_555
C3 C2 1_555 1_555
H4 C3 1_555 1_555
C4 C3 1_555 1_555
H5 C4 1_555 1_555
C5 N1 1_555 1_555
C6 C7 1_555 1_555
C7 C8 1_555 1_555
C8 H6 1_555 1_555
C9 C6 1_555 1_555
C10 O4 1_555 1_555
Cu1D O1D 1_555 1_555
O1D C9D 1_555 1_555
O1A Cu1 1_555 1_555
O2D C9D 1_555 1_555
O3D C10D 1_555 1_555
O4D H1D 1_555 1_555
N1A Cu1 1_555 1_555
C1A N1A 1_555 1_555
H2A C1A 1_555 1_555
C2A C1A 1_555 1_555
H3A C2A 1_555 1_555
C3A C2A 1_555 1_555
H4A C3A 1_555 1_555
C4A C3A 1_555 1_555
H5A C4A 1_555 1_555
C5A C5 1_555 1_555
C6D C8 1_555 1_555
C7D C6D 1_555 1_555
C8D C6 1_555 1_555
H6D C8D 1_555 1_555
C9D C6D 1_555 1_555
C10D O4D 1_555 1_555
C4 C5 1_555 1_555
C7 C10 1_555 1_555
N1A C5A 1_555 1_555
C4A C5A 1_555 1_555
C7D C8D 1_555 1_555
C7D C10D 1_555 1_555

#END
