
#######################################################################
#
#                 Cambridge Crystallographic Data Centre
#                                CCDC 
#
#######################################################################
#
# If this CIF has been generated from an entry in the Cambridge 
# Structural Database, then it will include bibliographic, chemical, 
# crystal, experimental, refinement or atomic coordinate data resulting 
# from the CCDC's data processing and validation procedures.
#
#######################################################################

data_SORYUV
_symmetry_cell_setting           orthorhombic
_symmetry_space_group_name_H-M   'P b c a'
_symmetry_Int_Tables_number      61
_space_group_name_Hall           '-P 2ac 2ab'
loop_
_symmetry_equiv_pos_site_id
_symmetry_equiv_pos_as_xyz
1 x,y,z
2 1/2-x,-y,1/2+z
3 -x,1/2+y,1/2-z
4 1/2+x,1/2-y,-z
5 -x,-y,-z
6 1/2+x,y,1/2-z
7 x,1/2-y,1/2+z
8 1/2-x,1/2+y,z
_cell_length_a                   9.4366(19)
_cell_length_b                   11.993(3)
_cell_length_c                   17.039(4)
_cell_angle_alpha                90
_cell_angle_beta                 90
_cell_angle_gamma                90
_cell_volume                     1928.36
loop_
_atom_site_label
_atom_site_type_symbol
_atom_site_fract_x
_atom_site_fract_y
_atom_site_fract_z
C1 C -0.1178(11) 0.7487(8) -0.0047(6)
H1 H -0.1516 0.6759 -0.0066
C2 C 0.0126(9) 0.8915(8) 0.0228(6)
C3 C -0.1022(10) 0.9269(8) -0.0252(6)
C4 C 0.1165(9) 0.9630(8) 0.0511(6)
H2 H 0.1890 0.9397 0.0842
C5 C 0.1395(17) 0.6810(13) 0.3321(11)
H3 H 0.1021 0.6097 0.3171
H4 H 0.0628 0.7318 0.3417
H5 H 0.1951 0.6730 0.3789
C6 C 0.3067(15) 0.8723(12) 0.2989(9)
H6 H 0.3676 0.9097 0.2623
H7 H 0.3573 0.8593 0.3470
H8 H 0.2253 0.9180 0.3093
Cl1 Cl 0.0211(3) 0.5170(3) 0.1246(2)
N1 N -0.1841(9) 0.8324(6) -0.0412(5)
N2 N -0.0004(8) 0.7757(6) 0.0344(5)
O1 O 0.1574(11) 0.7653(10) 0.1885(8)
O2 O 0.1352(11) 0.8009(11) 0.2541(7)
S1 S 0.2471(4) 0.7334(4) 0.2558(2)
Zn1 Zn 0.12761(12) 0.67464(10) 0.09168(7)
C1D C 0.1178(11) 1.2513(8) 0.0047(6)
H1D H 0.1516 1.3241 0.0066
C2D C -0.0126(9) 1.1085(8) -0.0228(6)
C3D C 0.1022(10) 1.0731(8) 0.0252(6)
C4D C -0.1165(9) 1.0370(8) -0.0511(6)
H2D H -0.1890 1.0603 -0.0842
N1D N 0.1841(9) 1.1676(6) 0.0412(5)
N2D N 0.0004(8) 1.2243(6) -0.0344(5)
C5D C -0.1395(17) 1.3190(13) -0.3321(11)
H3D H -0.1021 1.3903 -0.3171
H4D H -0.0628 1.2682 -0.3417
H5D H -0.1951 1.3270 -0.3789
C6D C -0.3067(15) 1.1277(12) -0.2989(9)
H6D H -0.3676 1.0903 -0.2623
H7D H -0.3573 1.1407 -0.3470
H8D H -0.2253 1.0820 -0.3093
Cl1D Cl -0.0211(3) 1.4830(3) -0.1246(2)
O1D O -0.1574(11) 1.2347(10) -0.1885(8)
O2D O -0.1352(11) 1.1991(11) -0.2541(7)
S1D S -0.2471(4) 1.2666(4) -0.2558(2)
Zn1D Zn -0.12761(12) 1.32536(10) -0.09168(7)
N1C N 0.3159(9) 0.6676(6) 0.0412(5)
N1G N -0.3159(9) 1.3324(6) -0.0412(5)
Zn1C Zn -0.37239(12) 0.82536(10) -0.09168(7)
Zn1G Zn 0.37239(12) 1.17464(10) 0.09168(7)
loop_
_geom_bond_atom_site_label_1
_geom_bond_atom_site_label_2
_geom_bond_site_symmetry_1
_geom_bond_site_symmetry_2
C1 H1 1_555 1_555
C2 C3 1_555 1_555
C3 N1 1_555 1_555
C4 C2 1_555 1_555
H2 C4 1_555 1_555
C5 H3 1_555 1_555
H4 C5 1_555 1_555
H5 C5 1_555 1_555
C6 H6 1_555 1_555
H7 C6 1_555 1_555
H8 C6 1_555 1_555
Cl1 Zn1 1_555 1_555
N1 C1 1_555 1_555
N2 C1 1_555 1_555
O1 S1 1_555 1_555
O2 S1 1_555 1_555
S1 C5 1_555 1_555
Zn1 N2 1_555 1_555
C1D H1D 1_555 1_555
C2D C3D 1_555 1_555
C3D C4 1_555 1_555
C4D C3 1_555 1_555
H2D C4D 1_555 1_555
N1D C1D 1_555 1_555
N2D C1D 1_555 1_555
C5D H3D 1_555 1_555
H4D C5D 1_555 1_555
H5D C5D 1_555 1_555
C6D H6D 1_555 1_555
H7D C6D 1_555 1_555
H8D C6D 1_555 1_555
Cl1D Zn1D 1_555 1_555
O1D S1D 1_555 1_555
O2D S1D 1_555 1_555
S1D C5D 1_555 1_555
Zn1D N2D 1_555 1_555
N1C Zn1 1_555 1_555
N1G Zn1D 1_555 1_555
Zn1C N1 1_555 1_555
Zn1G N1D 1_555 1_555
C2 N2 1_555 1_555
C6 S1 1_555 1_555
O1 Zn1 1_555 1_555
C2D C4D 1_555 1_555
C2D N2D 1_555 1_555
C3D N1D 1_555 1_555
C6D S1D 1_555 1_555
O1D Zn1D 1_555 1_555

#END
