
#######################################################################
#
#                 Cambridge Crystallographic Data Centre
#                                CCDC 
#
#######################################################################
#
# If this CIF has been generated from an entry in the Cambridge 
# Structural Database, then it will include bibliographic, chemical, 
# crystal, experimental, refinement or atomic coordinate data resulting 
# from the CCDC's data processing and validation procedures.
#
#######################################################################

data_SORZAC
_symmetry_cell_setting           monoclinic
_symmetry_space_group_name_H-M   'P 21/c'
_symmetry_Int_Tables_number      14
_space_group_name_Hall           '-P 2ybc'
loop_
_symmetry_equiv_pos_site_id
_symmetry_equiv_pos_as_xyz
1 x,y,z
2 -x,1/2+y,1/2-z
3 -x,-y,-z
4 x,1/2-y,1/2+z
_cell_length_a                   9.641(2)
_cell_length_b                   10.926(2)
_cell_length_c                   10.351(2)
_cell_angle_alpha                90
_cell_angle_beta                 110.921(2)
_cell_angle_gamma                90
_cell_volume                     1018.47
loop_
_atom_site_label
_atom_site_type_symbol
_atom_site_fract_x
_atom_site_fract_y
_atom_site_fract_z
C1 C 0.4378(13) 0.4551(11) 0.5889(11)
C2 C 0.3293(14) 0.2831(11) 0.5865(12)
H1 H 0.2792 0.2195 0.6107
C3 C 0.4388(15) 0.3855(10) 0.4766(11)
C4 C 0.5030(15) 0.4272(11) 0.3838(12)
H2 H 0.5060 0.3805 0.3098
C5 C -0.076(4) -0.052(4) 0.303(5)
H3 H 0.0047 -0.1048 0.3548
H4 H -0.1092 -0.0749 0.2068
H5 H -0.1560 -0.0611 0.3364
C6 C -0.168(4) 0.158(4) 0.208(3)
H6 H -0.1979 0.2311 0.2426
H7 H -0.2436 0.0973 0.1901
H8 H -0.1521 0.1773 0.1233
Cd1 Cd 0.35681(11) 0.10143(7) 0.36608(8)
Cl1 Cl 0.3394(4) -0.0718(3) 0.5144(4)
N1 N 0.3636(12) 0.3859(9) 0.6607(10)
N2 N 0.3690(12) 0.2748(9) 0.4780(10)
O1 O 0.0981(16) 0.1255(16) 0.2673(16)
S1 S -0.0124(9) 0.1067(8) 0.3224(10)
C2B C 0.6707(14) 0.7169(11) 0.4135(12)
H1B H 0.7208 0.7805 0.3893
C3B C 0.5612(15) 0.6145(10) 0.5234(11)
C4B C 0.4970(15) 0.5728(11) 0.6162(12)
H2B H 0.4940 0.6195 0.6902
N2B N 0.6310(12) 0.7252(9) 0.5220(10)
C1B C 0.5622(13) 0.5449(11) 0.4111(11)
N1B N 0.6364(12) 0.6141(9) 0.3393(10)
C5B C 1.076(4) 0.052(4) 0.697(5)
H3B H 0.9953 0.1048 0.6452
H4B H 1.1092 0.0749 0.7932
H5B H 1.1560 0.0611 0.6636
C6B C 1.168(4) -0.158(4) 0.792(3)
H6B H 1.1979 -0.2311 0.7574
H7B H 1.2436 -0.0973 0.8099
H8B H 1.1521 -0.1773 0.8767
Cd1B Cd 0.64319(11) -0.10143(7) 0.63392(8)
Cl1B Cl 0.6606(4) 0.0718(3) 0.4856(4)
O1B O 0.9019(16) -0.1255(16) 0.7327(16)
S1B S 1.0124(9) -0.1067(8) 0.6776(10)
Cd1A Cd 0.64319(11) 0.60143(7) 0.13392(8)
Cd1B_2 Cd 0.64319(11) 0.89857(7) 0.63392(8)
Cd1C Cd 0.35681(11) 0.39857(7) 0.86608(8)
N1A N 0.6364(12) -0.1141(9) 0.8393(10)
N1C N 0.3636(12) 0.1141(9) 0.1607(10)
N2B_2 N 0.6310(12) -0.2748(9) 0.5220(10)
loop_
_geom_bond_atom_site_label_1
_geom_bond_atom_site_label_2
_geom_bond_site_symmetry_1
_geom_bond_site_symmetry_2
C1 C3 1_555 1_555
C2 H1 1_555 1_555
C3 C4 1_555 1_555
C4 H2 1_555 1_555
C5 H3 1_555 1_555
H4 C5 1_555 1_555
H5 C5 1_555 1_555
C6 H6 1_555 1_555
H7 C6 1_555 1_555
H8 C6 1_555 1_555
Cd1 Cl1 1_555 1_555
Cl1 Cd1B 1_555 1_555
N1 C1 1_555 1_555
N2 C2 1_555 1_555
O1 Cd1 1_555 1_555
S1 C5 1_555 1_555
C2B H1B 1_555 1_555
C3B C4B 1_555 1_555
C4B C1 1_555 1_555
H2B C4B 1_555 1_555
N2B C2B 1_555 1_555
C1B C4 1_555 1_555
N1B C2B 1_555 1_555
C5B H3B 1_555 1_555
H4B C5B 1_555 1_555
H5B C5B 1_555 1_555
C6B H6B 1_555 1_555
H7B C6B 1_555 1_555
H8B C6B 1_555 1_555
Cd1B Cl1B 1_555 1_555
Cl1B Cd1 1_555 1_555
O1B Cd1B 1_555 1_555
S1B C5B 1_555 1_555
Cd1A N1B 1_555 1_555
Cd1B_2 N2B 1_555 1_555
Cd1C N1 1_555 1_555
N1A Cd1B 1_555 1_555
N1C Cd1 1_555 1_555
N2B_2 Cd1B 1_555 1_555
C2 N1 1_555 1_555
C3 N2 1_555 1_555
C6 S1 1_555 1_555
Cd1 N2 1_555 1_555
O1 S1 1_555 1_555
C3B N2B 1_555 1_555
C3B C1B 1_555 1_555
C1B N1B 1_555 1_555
C6B S1B 1_555 1_555
O1B S1B 1_555 1_555

#END
