
#######################################################################
#
#                 Cambridge Crystallographic Data Centre
#                                CCDC 
#
#######################################################################
#
# If this CIF has been generated from an entry in the Cambridge 
# Structural Database, then it will include bibliographic, chemical, 
# crystal, experimental, refinement or atomic coordinate data resulting 
# from the CCDC's data processing and validation procedures.
#
#######################################################################

data_SOSBOR01
_symmetry_cell_setting           triclinic
_symmetry_space_group_name_H-M   'P -1'
_symmetry_Int_Tables_number      2
_space_group_name_Hall           '-P 1'
loop_
_symmetry_equiv_pos_site_id
_symmetry_equiv_pos_as_xyz
1 x,y,z
2 -x,-y,-z
_cell_length_a                   9.209(2)
_cell_length_b                   10.938(1)
_cell_length_c                   6.547(1)
_cell_angle_alpha                100.83(1)
_cell_angle_beta                 99.65(2)
_cell_angle_gamma                85.45(2)
_cell_volume                     637.776
loop_
_atom_site_label
_atom_site_type_symbol
_atom_site_fract_x
_atom_site_fract_y
_atom_site_fract_z
Ba1 Ba 0.09322(1) 0.21544(1) 0.16320(2)
Cu1 Cu 0.56137(3) 0.26684(3) 0.04312(5)
O1 O -0.0849(2) 0.1328(2) 0.4268(3)
O2 O 0.2121(2) 0.0889(2) -0.1970(3)
O3 O -0.0871(3) 0.4190(2) 0.3345(4)
O4 O -0.0042(3) 0.3465(2) -0.1591(4)
O5 O 0.2211(2) 0.2902(2) 0.5770(3)
O6 O 0.6184(2) 0.2024(2) 0.3908(3)
O7 O -0.2382(2) 0.2177(2) -0.0047(3)
O8 O -0.4883(2) 0.1079(2) -0.1370(3)
O9 O 0.1098(2) -0.0537(2) 0.1512(3)
O10 O 0.3713(2) 0.0640(2) 0.2898(3)
O11 O 0.6066(2) 0.4359(2) 0.1774(3)
O12 O 0.3621(2) 0.3164(2) 0.0947(3)
O13 O 0.4966(2) 0.6094(2) 0.3291(3)
O14 O 0.2384(2) 0.4766(2) 0.2611(4)
C1 C -0.2272(2) 0.1084(2) -0.1116(4)
C2 C -0.3736(2) 0.0429(2) -0.1898(4)
C3 C 0.4945(2) 0.4997(2) 0.2407(4)
C4 C 0.3516(2) 0.4282(2) 0.1977(4)
Ba1A Ba -0.09322(1) -0.21544(1) -0.16320(2)
Cu1_2 Cu -0.43863(3) 0.26684(3) 0.04312(5)
Cu1A Cu 0.43863(3) -0.26684(3) -0.04312(5)
Cu1A_2 Cu -0.56137(3) -0.26684(3) -0.04312(5)
O1A O 0.0849(2) -0.1328(2) -0.4268(3)
O2A O -0.2121(2) -0.0889(2) 0.1970(3)
O3A O 0.0871(3) -0.4190(2) -0.3345(4)
O4A O 0.0042(3) -0.3465(2) 0.1591(4)
O5A O -0.2211(2) -0.2902(2) -0.5770(3)
O6A O 0.3816(2) -0.2024(2) -0.3908(3)
O7A O 0.2382(2) -0.2177(2) 0.0047(3)
O7_2 O 0.7618(2) 0.2177(2) -0.0047(3)
O8A O 0.4883(2) -0.1079(2) 0.1370(3)
O8_2 O 0.5117(2) 0.1079(2) -0.1370(3)
O9A O -0.1098(2) 0.0537(2) -0.1512(3)
O10A O -0.3713(2) -0.0640(2) -0.2898(3)
O11A O 0.3934(2) -0.4359(2) -0.1774(3)
O11A_2 O -0.6066(2) -0.4359(2) -0.1774(3)
O12A O -0.3621(2) -0.3164(2) -0.0947(3)
O12A_2 O 0.6379(2) -0.3164(2) -0.0947(3)
O13A O -0.4966(2) -0.6094(2) -0.3291(3)
O14A O -0.2384(2) -0.4766(2) -0.2611(4)
C1A C 0.2272(2) -0.1084(2) 0.1116(4)
C2A C 0.3736(2) -0.0429(2) 0.1898(4)
C3A C -0.4945(2) -0.4997(2) -0.2407(4)
C4A C -0.3516(2) -0.4282(2) -0.1977(4)
loop_
_geom_bond_atom_site_label_1
_geom_bond_atom_site_label_2
_geom_bond_site_symmetry_1
_geom_bond_site_symmetry_2
Ba1 O1 1_555 1_555
Cu1 O6 1_555 1_555
O2 Ba1 1_555 1_555
O3 Ba1 1_555 1_555
O4 Ba1 1_555 1_555
O5 Ba1 1_555 1_555
O7 Ba1 1_555 1_555
O8 C2 1_555 1_555
O9 Ba1 1_555 1_555
O10 Ba1 1_555 1_555
O11 Cu1 1_555 1_555
O12 Ba1 1_555 1_555
O13 C3 1_555 1_555
O14 C4 1_555 1_555
C1 O7 1_555 1_555
C2 C1 1_555 1_555
C3 O11 1_555 1_555
C4 O12 1_555 1_555
Ba1A O9 1_555 1_555
Cu1_2 O7 1_555 1_555
Cu1A O6A 1_555 1_555
Cu1A_2 O11A_2 1_555 1_555
O1A Ba1A 1_555 1_555
O2A Ba1A 1_555 1_555
O3A Ba1A 1_555 1_555
O4A Ba1A 1_555 1_555
O5A Ba1A 1_555 1_555
O7A Ba1A 1_555 1_555
O7_2 Cu1 1_555 1_555
O8A Cu1A 1_555 1_555
O8_2 Cu1 1_555 1_555
O9A Ba1 1_555 1_555
O10A C2 1_555 1_555
O11A Cu1A 1_555 1_555
O11A_2 C3A 1_555 1_555
O12A Ba1A 1_555 1_555
O12A_2 Cu1A 1_555 1_555
O13A C3A 1_555 1_555
O14A C4A 1_555 1_555
C1A O9 1_555 1_555
C2A O10 1_555 1_555
C3A C4A 1_555 1_555
C4A O12A 1_555 1_555
Cu1 O12 1_555 1_555
O8 Cu1_2 1_555 1_555
C1 O9A 1_555 1_555
C3 C4 1_555 1_555
Ba1A O9A 1_555 1_555
Ba1A O10A 1_555 1_555
Cu1A O7A 1_555 1_555
Cu1A_2 O12A 1_555 1_555
O7A C1A 1_555 1_555
O8A C2A 1_555 1_555
C1A C2A 1_555 1_555

#END
