
#######################################################################
#
#                 Cambridge Crystallographic Data Centre
#                                CCDC 
#
#######################################################################
#
# If this CIF has been generated from an entry in the Cambridge 
# Structural Database, then it will include bibliographic, chemical, 
# crystal, experimental, refinement or atomic coordinate data resulting 
# from the CCDC's data processing and validation procedures.
#
#######################################################################

data_SOSBOR03
_symmetry_cell_setting           monoclinic
_symmetry_space_group_name_H-M   'C 2/c'
_symmetry_Int_Tables_number      15
_space_group_name_Hall           '-C 2yn'
loop_
_symmetry_equiv_pos_site_id
_symmetry_equiv_pos_as_xyz
1 x,y,z
2 1/2+x,1/2+y,z
3 -x,y,1/2-z
4 1/2-x,1/2+y,1/2-z
5 -x,-y,-z
6 1/2-x,1/2-y,-z
7 x,-y,1/2+z
8 1/2+x,1/2-y,1/2+z
_cell_length_a                   15.744(2)
_cell_length_b                   10.7565(15)
_cell_length_c                   15.345(2)
_cell_angle_alpha                90
_cell_angle_beta                 97.331(2)
_cell_angle_gamma                90
_cell_volume                     2577.44
loop_
_atom_site_label
_atom_site_type_symbol
_atom_site_fract_x
_atom_site_fract_y
_atom_site_fract_z
Ba1 Ba 0.141583(8) 0.466998(11) 0.208698(8)
Cu1 Cu 0.392690(18) 0.42642(3) 0.544540(18)
O1 O 0.32532(11) 0.31452(15) 0.46364(11)
O2 O 0.32797(11) 0.55628(15) 0.47918(11)
O3 O -0.03481(11) 0.20211(15) 0.10073(11)
O4 O -0.02288(11) -0.04102(14) 0.10183(12)
O5 O 0.09239(11) -0.03604(15) 0.20210(12)
O6 O 0.23179(11) 0.57822(15) 0.36098(11)
O7 O 0.23098(12) 0.32494(15) 0.34220(12)
O8 O 0.08384(11) 0.22003(16) 0.19560(12)
C1 C 0.27787(14) 0.5147(2) 0.41412(15)
C2 C 0.02919(14) 0.1586(2) 0.15113(14)
C3 C 0.03447(14) 0.0145(2) 0.15330(15)
C4 C 0.27694(14) 0.3719(2) 0.40448(15)
O9 O 0.29911(11) 0.57403(16) 0.16050(12)
O10 O 0.21699(14) 0.32422(18) 0.09118(15)
O11 O 0.09995(15) 0.58277(19) 0.04541(13)
O12 O 0.09098(17) 0.7070(2) 0.24223(18)
O14 O 0.03947(12) 0.45626(19) 0.34874(13)
H1 H 0.287(2) 0.648(2) 0.166(2)
H2 H 0.332(2) 0.557(3) 0.2032(19)
H3 H 0.257(2) 0.351(4) 0.069(2)
H4 H 0.237(2) 0.254(3) 0.106(3)
H5 H 0.129(2) 0.643(3) 0.040(2)
H6 H 0.0539(18) 0.611(4) 0.043(3)
H7 H 0.097(4) 0.779(3) 0.226(4)
H8 H 0.078(3) 0.721(5) 0.291(2)
H11 H 0.047(2) 0.386(3) 0.368(2)
H12 H 0.059(3) 0.506(4) 0.381(3)
Ba1B Ba -0.141583(8) 0.466998(11) 0.291302(8)
Cu1G Cu -0.107310(18) 0.07358(3) 0.044540(18)
Cu1F Cu 0.392690(18) 0.57358(3) 0.044540(18)
O3G O 0.46519(11) 0.29789(15) 0.60073(11)
O4G O 0.47712(11) 0.54102(14) 0.60183(12)
O9F O 0.29911(11) 0.42597(16) 0.66050(12)
O14B O -0.03947(12) 0.45626(19) 0.15126(13)
H1F H 0.287(2) 0.352(2) 0.666(2)
H2F H 0.332(2) 0.443(3) 0.7032(19)
H11B H -0.047(2) 0.386(3) 0.132(2)
H12B H -0.059(3) 0.506(4) 0.119(3)
O13 O -0.06779(16) 0.6935(2) 0.05515(17)
H9 H -0.106(2) 0.697(4) 0.016(2)
H10 H -0.047(3) 0.764(3) 0.061(3)
loop_
_geom_bond_atom_site_label_1
_geom_bond_atom_site_label_2
_geom_bond_site_symmetry_1
_geom_bond_site_symmetry_2
Ba1 O6 1_555 1_555
Cu1 O1 1_555 1_555
O1 C4 1_555 1_555
O2 Cu1 1_555 1_555
O3 C2 1_555 1_555
O4 C3 1_555 1_555
O5 C3 1_555 1_555
O6 C1 1_555 1_555
O7 Ba1 1_555 1_555
O8 Ba1 1_555 1_555
C1 O2 1_555 1_555
C2 O8 1_555 1_555
C3 C2 1_555 1_555
C4 O7 1_555 1_555
O9 Ba1 1_555 1_555
O10 Ba1 1_555 1_555
O11 Ba1 1_555 1_555
O12 Ba1 1_555 1_555
O13 H9 1_555 1_555
O14 Ba1 1_555 1_555
H1 O9 1_555 1_555
H2 O9 1_555 1_555
H3 O10 1_555 1_555
H4 O10 1_555 1_555
H5 O11 1_555 1_555
H6 O11 1_555 1_555
H7 O12 1_555 1_555
H8 O12 1_555 1_555
H10 O13 1_555 1_555
H11 O14 1_555 1_555
H12 O14 1_555 1_555
Ba1B O14 1_555 1_555
Cu1G O3 1_555 1_555
Cu1F O9 1_555 1_555
O3G Cu1 1_555 1_555
O4G Cu1 1_555 1_555
O9F Cu1 1_555 1_555
O14B Ba1 1_555 1_555
H1F O9F 1_555 1_555
H2F O9F 1_555 1_555
H11B O14B 1_555 1_555
H12B O14B 1_555 1_555
O4 Cu1G 1_555 1_555
C1 C4 1_555 1_555
Ba1B O14B 1_555 1_555

#END
