
#######################################################################
#
#                 Cambridge Crystallographic Data Centre
#                                CCDC 
#
#######################################################################
#
# If this CIF has been generated from an entry in the Cambridge 
# Structural Database, then it will include bibliographic, chemical, 
# crystal, experimental, refinement or atomic coordinate data resulting 
# from the CCDC's data processing and validation procedures.
#
#######################################################################

data_SOSBOR02
_symmetry_cell_setting           triclinic
_symmetry_space_group_name_H-M   'P -1'
_symmetry_Int_Tables_number      2
_space_group_name_Hall           '-P 1'
loop_
_symmetry_equiv_pos_site_id
_symmetry_equiv_pos_as_xyz
1 x,y,z
2 -x,-y,-z
_cell_length_a                   6.5405(9)
_cell_length_b                   9.202(3)
_cell_length_c                   10.939(1)
_cell_angle_alpha                85.46(2)
_cell_angle_beta                 79.22(1)
_cell_angle_gamma                80.45(2)
_cell_volume                     637.002
loop_
_atom_site_label
_atom_site_type_symbol
_atom_site_fract_x
_atom_site_fract_y
_atom_site_fract_z
Ba1 Ba 0.16320(6) 0.40680(4) 0.28450(3)
Cu1 Cu -0.0433(2) 1.0615(1) 0.76680(9)
O1 O -0.5750(11) 0.7212(7) 0.7899(7)
O2 O -0.3919(12) 1.1173(7) 0.7032(6)
O3 O 0.0066(10) 1.2629(6) 0.7159(5)
O4 O 0.1490(9) 0.3896(6) 0.5540(5)
O5 O -0.0965(10) 0.8602(6) 0.8163(4)
O6 O 0.1961(10) 0.7114(6) 0.5875(5)
O7 O -0.1781(9) 1.1072(5) 0.9363(4)
O8 O 0.2901(11) 0.1301(6) 0.4370(5)
O9 O -0.4290(10) 0.4155(7) 0.6333(6)
O10 O -0.3338(14) 0.4116(8) 0.9188(7)
O11 O -0.3282(11) 0.9966(6) 1.1100(5)
O12 O 0.1385(10) 0.0130(6) 0.6076(5)
O13 O -0.2610(11) 0.7383(7) 0.9763(6)
O14 O 0.1592(12) 0.4959(7) 0.8469(7)
C1 C -0.2422(12) 0.9943(9) 0.9984(7)
C2 C 0.1907(12) 0.1251(8) 0.5430(6)
C3 C -0.1981(13) 0.8508(8) 0.9293(7)
C4 C 0.1129(13) 0.2740(8) 0.6097(7)
Ba1A Ba -0.16320(6) 0.59320(4) 0.71550(3)
Cu1_2 Cu -0.0433(2) 0.0615(1) 0.76680(9)
O3_2 O 0.0066(10) 0.2629(6) 0.7159(5)
O4A O -0.1490(9) 0.6104(6) 0.4460(5)
O8A O -0.2901(11) 0.8699(6) 0.5630(5)
O12_2 O 0.1385(10) 1.0130(6) 0.6076(5)
loop_
_geom_bond_atom_site_label_1
_geom_bond_atom_site_label_2
_geom_bond_site_symmetry_1
_geom_bond_site_symmetry_2
Ba1 O4 1_555 1_555
Cu1 O2 1_555 1_555
O1 Ba1A 1_555 1_555
O3 Cu1 1_555 1_555
O4 C4 1_555 1_555
O5 Cu1 1_555 1_555
O6 Ba1A 1_555 1_555
O7 Cu1 1_555 1_555
O8 Ba1 1_555 1_555
O9 Ba1A 1_555 1_555
O10 Ba1A 1_555 1_555
O11 C1 1_555 1_555
O12 C2 1_555 1_555
O13 C3 1_555 1_555
O14 Ba1A 1_555 1_555
C1 O7 1_555 1_555
C2 O8 1_555 1_555
C3 O5 1_555 1_555
C4 C2 1_555 1_555
Ba1A O4 1_555 1_555
Cu1_2 O12 1_555 1_555
O3_2 C4 1_555 1_555
O4A Ba1 1_555 1_555
O8A Ba1A 1_555 1_555
O12_2 Cu1 1_555 1_555
O5 Ba1A 1_555 1_555
O13 Ba1A 1_555 1_555
C1 C3 1_555 1_555
Ba1A O3_2 1_555 1_555
Ba1A O4A 1_555 1_555
Cu1_2 O3_2 1_555 1_555

#END
