
#######################################################################
#
#                 Cambridge Crystallographic Data Centre
#                                CCDC 
#
#######################################################################
#
# If this CIF has been generated from an entry in the Cambridge 
# Structural Database, then it will include bibliographic, chemical, 
# crystal, experimental, refinement or atomic coordinate data resulting 
# from the CCDC's data processing and validation procedures.
#
#######################################################################

data_SOSBOR
_symmetry_cell_setting           triclinic
_symmetry_space_group_name_H-M   'P -1'
_symmetry_Int_Tables_number      2
_space_group_name_Hall           '-P 1'
loop_
_symmetry_equiv_pos_site_id
_symmetry_equiv_pos_as_xyz
1 x,y,z
2 -x,-y,-z
_cell_length_a                   6.5381(5)
_cell_length_b                   9.2118(5)
_cell_length_c                   10.9242(7)
_cell_angle_alpha                85.404(5)
_cell_angle_beta                 79.212(5)
_cell_angle_gamma                80.281(7)
_cell_volume                     636.234
loop_
_atom_site_label
_atom_site_type_symbol
_atom_site_fract_x
_atom_site_fract_y
_atom_site_fract_z
Ba1 Ba 0.16314(3) -0.09324(2) -0.21542(1)
Cu1 Cu 0.04310(7) 0.43863(4) -0.26689(3)
O1 O -0.0054(4) 0.2378(3) -0.2174(3)
O2 O -0.1369(4) 0.4877(2) -0.1075(2)
O3 O -0.1514(4) 0.1106(2) -0.0537(2)
O4 O 0.2903(5) -0.3708(3) -0.0637(2)
O5 O 0.1769(4) -0.6061(2) -0.4361(2)
O6 O 0.0952(4) -0.3624(2) -0.3165(2)
O7 O 0.3293(5) -0.4961(3) -0.6093(2)
O8 O 0.2617(5) -0.2389(3) -0.4764(3)
C1 C -0.1116(5) 0.2277(3) -0.1088(3)
C2 C -0.1896(5) 0.3737(3) -0.0431(3)
C3 C 0.2418(5) -0.4948(3) -0.4991(3)
C4 C 0.1982(5) -0.3520(3) -0.4279(3)
O9 O -0.1970(5) -0.2127(3) -0.0888(3)
O10 O -0.1596(6) 0.0042(4) -0.3468(3)
O11 O 0.3365(6) 0.0865(3) -0.4181(3)
O12 O 0.4276(5) 0.0845(3) -0.1334(3)
O13 O 0.5750(4) -0.2205(3) -0.2902(3)
O14 O 0.3923(5) 0.3810(3) -0.2028(2)
Ba1A Ba -0.16314(3) 0.09324(2) 0.21542(1)
Cu1A Cu -0.04310(7) -0.43863(4) 0.26689(3)
Cu1_2 Cu 0.04310(7) -0.56137(4) -0.26689(3)
Cu1A_2 Cu -0.04310(7) 0.56137(4) 0.26689(3)
O1A O 0.0054(4) -0.2378(3) 0.2174(3)
O1A_2 O 0.0054(4) 0.7622(3) 0.2174(3)
O2A O 0.1369(4) -0.4877(2) 0.1075(2)
O2A_2 O 0.1369(4) 0.5123(2) 0.1075(2)
O3A O 0.1514(4) -0.1106(2) 0.0537(2)
O4A O -0.2903(5) 0.3708(3) 0.0637(2)
O5_2 O 0.1769(4) 0.3939(2) -0.4361(2)
O5A O -0.1769(4) 0.6061(2) 0.4361(2)
O6A O -0.0952(4) 0.3624(2) 0.3165(2)
O6_2 O 0.0952(4) 0.6376(2) -0.3165(2)
O7A O -0.3293(5) 0.4961(3) 0.6093(2)
O8A O -0.2617(5) 0.2389(3) 0.4764(3)
C1A C 0.1116(5) -0.2277(3) 0.1088(3)
C2A C 0.1896(5) -0.3737(3) 0.0431(3)
C3A C -0.2418(5) 0.4948(3) 0.4991(3)
C4A C -0.1982(5) 0.3520(3) 0.4279(3)
O9A O 0.1970(5) 0.2127(3) 0.0888(3)
O10A O 0.1596(6) -0.0042(4) 0.3468(3)
O11A O -0.3365(6) -0.0865(3) 0.4181(3)
O12A O -0.4276(5) -0.0845(3) 0.1334(3)
O13A O -0.5750(4) 0.2205(3) 0.2902(3)
O14A O -0.3923(5) 0.6190(3) 0.2028(2)
loop_
_geom_bond_atom_site_label_1
_geom_bond_atom_site_label_2
_geom_bond_site_symmetry_1
_geom_bond_site_symmetry_2
Ba1 O1 1_555 1_555
Cu1 O1 1_555 1_555
O1 C1 1_555 1_555
O2 Cu1 1_555 1_555
O3 Ba1 1_555 1_555
O4 Ba1 1_555 1_555
O5 C3 1_555 1_555
O6 Ba1 1_555 1_555
O7 C3 1_555 1_555
O8 C4 1_555 1_555
C1 O3 1_555 1_555
C2 O2 1_555 1_555
C3 C4 1_555 1_555
C4 O6 1_555 1_555
O9 Ba1 1_555 1_555
O10 Ba1 1_555 1_555
O11 Ba1 1_555 1_555
O12 Ba1 1_555 1_555
O13 Ba1 1_555 1_555
O14 Cu1 1_555 1_555
Ba1A O3 1_555 1_555
Cu1A O1A 1_555 1_555
Cu1_2 O5 1_555 1_555
Cu1A_2 O1A_2 1_555 1_555
O1A Ba1A 1_555 1_555
O2A Cu1A 1_555 1_555
O2A_2 Cu1A_2 1_555 1_555
O3A Ba1 1_555 1_555
O4A C2 1_555 1_555
O5_2 Cu1 1_555 1_555
O5A Cu1A_2 1_555 1_555
O6A Ba1A 1_555 1_555
O6_2 Cu1 1_555 1_555
O7A C3A 1_555 1_555
O8A C4A 1_555 1_555
C1A O1A 1_555 1_555
C2A O4 1_555 1_555
C3A O5A 1_555 1_555
C4A O6A 1_555 1_555
O9A Ba1A 1_555 1_555
O10A Ba1A 1_555 1_555
O11A Ba1A 1_555 1_555
O12A Ba1A 1_555 1_555
O13A Ba1A 1_555 1_555
O14A Cu1A_2 1_555 1_555
O6 Cu1_2 1_555 1_555
C1 C2 1_555 1_555
Ba1A O3A 1_555 1_555
Ba1A O4A 1_555 1_555
Cu1A_2 O6A 1_555 1_555
O2A C2A 1_555 1_555
O3A C1A 1_555 1_555
C1A C2A 1_555 1_555
C3A C4A 1_555 1_555

#END
