
#######################################################################
#
#                 Cambridge Crystallographic Data Centre
#                                CCDC 
#
#######################################################################
#
# If this CIF has been generated from an entry in the Cambridge 
# Structural Database, then it will include bibliographic, chemical, 
# crystal, experimental, refinement or atomic coordinate data resulting 
# from the CCDC's data processing and validation procedures.
#
#######################################################################

data_SOSCOU
_symmetry_cell_setting           orthorhombic
_symmetry_space_group_name_H-M   'P b c n'
_symmetry_Int_Tables_number      60
_space_group_name_Hall           '-P 2n 2ab'
loop_
_symmetry_equiv_pos_site_id
_symmetry_equiv_pos_as_xyz
1 x,y,z
2 1/2-x,1/2-y,1/2+z
3 1/2+x,1/2-y,-z
4 -x,y,1/2-z
5 -x,-y,-z
6 1/2+x,1/2+y,1/2-z
7 1/2-x,1/2+y,z
8 x,-y,1/2+z
_cell_length_a                   18.2049(13)
_cell_length_b                   17.6193(13)
_cell_length_c                   29.996(2)
_cell_angle_alpha                90
_cell_angle_beta                 90
_cell_angle_gamma                90
_cell_volume                     9621.44
loop_
_atom_site_label
_atom_site_type_symbol
_atom_site_fract_x
_atom_site_fract_y
_atom_site_fract_z
Cd1 Cd 1.0000 0.17444(4) 0.2500
O1 O 0.8904(3) 0.1858(4) 0.20122(18)
O2 O 0.9157(3) 0.0677(4) 0.22248(16)
O3 O 0.9556(3) 0.2975(3) 0.27491(15)
O4 O 0.9863(4) 0.6942(3) 0.28567(19)
N1 N 0.7549(3) -0.0252(3) 0.01033(16)
N2 N 0.9490(3) -0.1366(3) -0.18099(16)
C1 C 0.8847(4) 0.1154(5) 0.1967(2)
C2 C 0.8399(4) 0.0849(4) 0.1576(2)
C3 C 0.7953(4) 0.1322(5) 0.1329(2)
H1 H 0.7931 0.1848 0.1398
C4 C 0.7532(4) 0.1032(4) 0.0979(2)
H2 H 0.7223 0.1363 0.0814
C5 C 0.7560(4) 0.0277(4) 0.0872(2)
C6 C 0.8010(4) -0.0194(5) 0.1111(2)
H3 H 0.8037 -0.0717 0.1035
C7 C 0.8429(4) 0.0080(5) 0.1464(2)
H4 H 0.8734 -0.0256 0.1629
C8 C 0.7098(4) -0.0026(5) 0.0494(2)
H5 H 0.6815 -0.0471 0.0600
H6 H 0.6742 0.0369 0.0401
C9 C 0.7963(3) 0.0261(4) -0.0107(2)
H7 H 0.7966 0.0771 -0.0004
C10 C 0.8386(3) 0.0068(4) -0.04714(19)
H8 H 0.8684 0.0437 -0.0614
C11 C 0.8368(3) -0.0684(4) -0.06275(18)
C12 C 0.7901(4) -0.1188(4) -0.0413(2)
H9 H 0.7863 -0.1696 -0.0517
C13 C 0.7493(4) -0.0959(4) -0.0051(2)
H10 H 0.7170 -0.1308 0.0090
C14 C 0.8792(3) -0.0916(4) -0.10284(17)
C15 C 0.9049(3) -0.0388(4) -0.13266(19)
H11 H 0.8990 0.0139 -0.1272
C16 C 0.9400(3) -0.0644(4) -0.17138(19)
H12 H 0.9582 -0.0277 -0.1918
C17 C 0.9264(5) -0.1871(4) -0.1504(2)
H13 H 0.9337 -0.2395 -0.1564
C18 C 0.8930(4) -0.1671(4) -0.1105(2)
H14 H 0.8801 -0.2046 -0.0892
C19 C 1.0000 0.3320(5) 0.2500
C20 C 1.0000 0.4181(5) 0.2500
C21 C 1.0341(3) 0.4570(4) 0.21616(19)
H15 H 1.0581 0.4299 0.1930
C22 C 1.0338(3) 0.5353(4) 0.21568(18)
H16 H 1.0566 0.5620 0.1919
C23 C 1.0000 0.5751(5) 0.2500
C24 C 1.0000 0.6598(6) 0.2500
O3C O 1.0444(3) 0.2975(3) 0.22509(15)
O4C O 1.0137(4) 0.6942(3) 0.21433(19)
C21C C 0.9659(3) 0.4570(4) 0.28384(19)
H15C H 0.9419 0.4299 0.3070
C22C C 0.9662(3) 0.5353(4) 0.28432(18)
H16C H 0.9434 0.5620 0.3081
O1C O 1.1096(3) 0.1858(4) 0.29878(18)
O2C O 1.0843(3) 0.0677(4) 0.27752(16)
N1C N 1.2451(3) -0.0252(3) 0.48967(16)
N2C N 1.0510(3) -0.1366(3) 0.68099(16)
C1C C 1.1153(4) 0.1154(5) 0.3033(2)
C2C C 1.1601(4) 0.0849(4) 0.3424(2)
C3C C 1.2047(4) 0.1322(5) 0.3671(2)
H1C H 1.2069 0.1848 0.3602
C4C C 1.2468(4) 0.1032(4) 0.4021(2)
H2C H 1.2777 0.1363 0.4186
C5C C 1.2440(4) 0.0277(4) 0.4128(2)
C6C C 1.1990(4) -0.0194(5) 0.3889(2)
H3C H 1.1963 -0.0717 0.3965
C7C C 1.1571(4) 0.0080(5) 0.3536(2)
H4C H 1.1266 -0.0256 0.3371
C8C C 1.2902(4) -0.0026(5) 0.4506(2)
H5C H 1.3185 -0.0471 0.4400
H6C H 1.3258 0.0369 0.4599
C9C C 1.2037(3) 0.0261(4) 0.5107(2)
H7C H 1.2034 0.0771 0.5004
C10C C 1.1614(3) 0.0068(4) 0.54714(19)
H8C H 1.1316 0.0437 0.5614
C11C C 1.1632(3) -0.0684(4) 0.56275(18)
C12C C 1.2099(4) -0.1188(4) 0.5413(2)
H9C H 1.2137 -0.1696 0.5517
C13C C 1.2507(4) -0.0959(4) 0.5051(2)
H10C H 1.2830 -0.1308 0.4910
C14C C 1.1208(3) -0.0916(4) 0.60284(17)
C15C C 1.0951(3) -0.0388(4) 0.63266(19)
H11C H 1.1010 0.0139 0.6272
C16C C 1.0600(3) -0.0644(4) 0.67138(19)
H12C H 1.0418 -0.0277 0.6918
C17C C 1.0736(5) -0.1871(4) 0.6504(2)
H13C H 1.0663 -0.2395 0.6564
C18C C 1.1070(4) -0.1671(4) 0.6105(2)
H14C H 1.1199 -0.2046 0.5892
Cd1D Cd 1.0000 -0.17444(4) -0.2500
Cd1D_2 Cd 1.0000 -0.17444(4) 0.7500
N2D N 1.0510(3) 0.1366(3) 0.18099(16)
N2G N 0.9490(3) 0.1366(3) 0.31901(16)
Cd2 Cd 0.98361(3) 0.31729(3) 0.495139(14)
Br1 Br 0.84813(11) 0.34475(10) 0.47295(7)
O5 O 1.0358(4) 0.3227(4) 0.56249(18)
O6 O 1.0721(4) 0.4233(4) 0.52595(18)
O7 O 0.9449(3) 0.1944(3) 0.52618(19)
O8 O 1.0279(3) 0.2005(2) 0.47351(17)
N3 N 1.2241(3) 0.4894(5) 0.74518(17)
N4 N 1.0341(3) 0.6377(3) 0.92981(16)
C25 C 1.0736(6) 0.3827(6) 0.5583(3)
C26 C 1.1232(4) 0.4024(4) 0.5974(2)
C27 C 1.1424(6) 0.3477(5) 0.6283(2)
H17 H 1.1234 0.2977 0.6257
C28 C 1.1898(5) 0.3660(5) 0.6630(2)
H18 H 1.2039 0.3278 0.6837
C29 C 1.2164(4) 0.4384(5) 0.6681(2)
C30 C 1.1964(4) 0.4932(4) 0.6374(2)
H19 H 1.2141 0.5436 0.6408
C31 C 1.1510(4) 0.4758(4) 0.6019(2)
H20 H 1.1389 0.5136 0.5805
C32 C 1.2669(4) 0.4584(7) 0.7062(2)
H21 H 1.2942 0.4125 0.7157
H22 H 1.3031 0.4967 0.6961
C33 C 1.1921(4) 0.4407(5) 0.7737(2)
H23 H 1.1968 0.3875 0.7693
C34 C 1.1524(3) 0.4686(4) 0.8094(2)
H24 H 1.1295 0.4345 0.8296
C35 C 1.1460(3) 0.5462(4) 0.81566(19)
C36 C 1.1794(4) 0.5936(5) 0.7853(2)
H25 H 1.1755 0.6471 0.7884
C37 C 1.2182(4) 0.5634(6) 0.7506(2)
H26 H 1.2415 0.5964 0.7299
C38 C 1.1045(3) 0.5774(4) 0.85482(18)
C39 C 1.0666(3) 0.5314(4) 0.88425(18)
H27 H 1.0637 0.4783 0.8793
C40 C 1.0332(3) 0.5637(3) 0.92079(18)
H28 H 1.0080 0.5311 0.9408
C41 C 1.0687(5) 0.6833(4) 0.9006(2)
H29 H 1.0694 0.7364 0.9061
C42 C 1.1031(5) 0.6561(4) 0.8632(2)
H30 H 1.1260 0.6902 0.8430
C43 C 0.9884(3) 0.1626(3) 0.5004(2)
C44 C 0.9981(3) 0.0784(3) 0.4998(2)
C45 C 0.9652(3) 0.0370(4) 0.5351(2)
H31 H 0.9408 0.0627 0.5587
C46 C 1.0307(3) 0.0412(4) 0.4654(2)
H32 H 1.0509 0.0694 0.4414
O7D O 1.0551(3) -0.1944(3) 0.47382(19)
O8D O 0.9721(3) -0.2005(2) 0.52649(17)
C43D C 1.0116(3) -0.1626(3) 0.4996(2)
C44D C 1.0019(3) -0.0784(3) 0.5002(2)
C45D C 1.0348(3) -0.0370(4) 0.4649(2)
H31D H 1.0592 -0.0627 0.4413
C46D C 0.9693(3) -0.0412(4) 0.5346(2)
H32D H 0.9491 -0.0694 0.5586
Cd2D Cd 1.01639(3) -0.31729(3) 0.504861(14)
Br1D Br 1.15187(11) -0.34475(10) 0.52705(7)
O5D O 0.9642(4) -0.3227(4) 0.43751(18)
O6D O 0.9279(4) -0.4233(4) 0.47405(18)
N3D N 0.7759(3) -0.4894(5) 0.25482(17)
N4D N 0.9659(3) -0.6377(3) 0.07019(16)
C25D C 0.9264(6) -0.3827(6) 0.4417(3)
C26D C 0.8768(4) -0.4024(4) 0.4026(2)
C27D C 0.8576(6) -0.3477(5) 0.3717(2)
H17D H 0.8766 -0.2977 0.3743
C28D C 0.8102(5) -0.3660(5) 0.3370(2)
H18D H 0.7961 -0.3278 0.3163
C29D C 0.7836(4) -0.4384(5) 0.3319(2)
C30D C 0.8036(4) -0.4932(4) 0.3626(2)
H19D H 0.7859 -0.5436 0.3592
C31D C 0.8490(4) -0.4758(4) 0.3981(2)
H20D H 0.8611 -0.5136 0.4195
C32D C 0.7331(4) -0.4584(7) 0.2938(2)
H21D H 0.7058 -0.4125 0.2843
H22D H 0.6969 -0.4967 0.3039
C33D C 0.8079(4) -0.4407(5) 0.2263(2)
H23D H 0.8032 -0.3875 0.2307
C34D C 0.8476(3) -0.4686(4) 0.1906(2)
H24D H 0.8705 -0.4345 0.1704
C35D C 0.8540(3) -0.5462(4) 0.18434(19)
C36D C 0.8206(4) -0.5936(5) 0.2147(2)
H25D H 0.8245 -0.6471 0.2116
C37D C 0.7818(4) -0.5634(6) 0.2494(2)
H26D H 0.7585 -0.5964 0.2701
C38D C 0.8955(3) -0.5774(4) 0.14518(18)
C39D C 0.9334(3) -0.5314(4) 0.11575(18)
H27D H 0.9363 -0.4783 0.1207
C40D C 0.9668(3) -0.5637(3) 0.07921(18)
H28D H 0.9920 -0.5311 0.0592
C41D C 0.9313(5) -0.6833(4) 0.0994(2)
H29D H 0.9306 -0.7364 0.0939
C42D C 0.8969(5) -0.6561(4) 0.1368(2)
H30D H 0.8740 -0.6902 0.1570
Cd2C Cd 1.01639(3) -0.68271(3) 0.004861(14)
Cd2G Cd 0.98361(3) 0.68271(3) 0.995139(14)
N4C N 0.9659(3) -0.3623(3) 0.57019(16)
N4G N 1.0341(3) 0.3623(3) 0.42981(16)
O9 O 0.1798(4) 0.2311(5) 0.4844(3)
O10 O 0.2020(4) 0.7920(4) 0.4338(3)
O11 O 0.0578(4) 0.6643(3) 0.3632(2)
Br2? Br 0.8594(7) 0.3665(11) 0.4848(5)
loop_
_geom_bond_atom_site_label_1
_geom_bond_atom_site_label_2
_geom_bond_site_symmetry_1
_geom_bond_site_symmetry_2
Cd1 O1 1_555 1_555
O1 C1 1_555 1_555
O2 Cd1 1_555 1_555
O3 Cd1 1_555 1_555
O4 C24 1_555 1_555
N1 C8 1_555 1_555
N2 C16 1_555 1_555
C1 O2 1_555 1_555
C2 C1 1_555 1_555
C3 C2 1_555 1_555
H1 C3 1_555 1_555
C4 C3 1_555 1_555
H2 C4 1_555 1_555
C5 C4 1_555 1_555
C6 C5 1_555 1_555
H3 C6 1_555 1_555
C7 C2 1_555 1_555
H4 C7 1_555 1_555
C8 C5 1_555 1_555
H5 C8 1_555 1_555
H6 C8 1_555 1_555
C9 N1 1_555 1_555
H7 C9 1_555 1_555
C10 C9 1_555 1_555
H8 C10 1_555 1_555
C11 C10 1_555 1_555
C12 C11 1_555 1_555
H9 C12 1_555 1_555
C13 N1 1_555 1_555
H10 C13 1_555 1_555
C14 C11 1_555 1_555
C15 C14 1_555 1_555
H11 C15 1_555 1_555
C16 C15 1_555 1_555
H12 C16 1_555 1_555
C17 N2 1_555 1_555
H13 C17 1_555 1_555
C18 C14 1_555 1_555
H14 C18 1_555 1_555
C19 O3 1_555 1_555
C20 C19 1_555 1_555
C21 C20 1_555 1_555
H15 C21 1_555 1_555
C22 C21 1_555 1_555
H16 C22 1_555 1_555
C23 C22 1_555 1_555
C24 C23 1_555 1_555
Cd2 Br1 1_555 1_555
O5 Cd2 1_555 1_555
O6 Cd2 1_555 1_555
O7 Cd2 1_555 1_555
O8 Cd2 1_555 1_555
N3 C32 1_555 1_555
N4 C40 1_555 1_555
C25 O5 1_555 1_555
C26 C25 1_555 1_555
C27 C26 1_555 1_555
H17 C27 1_555 1_555
C28 C27 1_555 1_555
H18 C28 1_555 1_555
C29 C28 1_555 1_555
C30 C29 1_555 1_555
H19 C30 1_555 1_555
C31 C26 1_555 1_555
H20 C31 1_555 1_555
C32 C29 1_555 1_555
H21 C32 1_555 1_555
H22 C32 1_555 1_555
C33 N3 1_555 1_555
H23 C33 1_555 1_555
C34 C33 1_555 1_555
H24 C34 1_555 1_555
C35 C34 1_555 1_555
C36 C35 1_555 1_555
H25 C36 1_555 1_555
C37 N3 1_555 1_555
H26 C37 1_555 1_555
C38 C35 1_555 1_555
C39 C38 1_555 1_555
H27 C39 1_555 1_555
C40 C39 1_555 1_555
H28 C40 1_555 1_555
C41 N4 1_555 1_555
H29 C41 1_555 1_555
C42 C38 1_555 1_555
H30 C42 1_555 1_555
C43 O7 1_555 1_555
C44 C43 1_555 1_555
C45 C44 1_555 1_555
H31 C45 1_555 1_555
C46 C44 1_555 1_555
H32 C46 1_555 1_555
O3C Cd1 1_555 1_555
O4C C24 1_555 1_555
C21C C20 1_555 1_555
H15C C21C 1_555 1_555
C22C C23 1_555 1_555
H16C C22C 1_555 1_555
O1C Cd1 1_555 1_555
O2C Cd1 1_555 1_555
N1C C8C 1_555 1_555
N2C C16C 1_555 1_555
C1C O1C 1_555 1_555
C2C C1C 1_555 1_555
C3C C2C 1_555 1_555
H1C C3C 1_555 1_555
C4C C3C 1_555 1_555
H2C C4C 1_555 1_555
C5C C4C 1_555 1_555
C6C C5C 1_555 1_555
H3C C6C 1_555 1_555
C7C C2C 1_555 1_555
H4C C7C 1_555 1_555
C8C C5C 1_555 1_555
H5C C8C 1_555 1_555
H6C C8C 1_555 1_555
C9C N1C 1_555 1_555
H7C C9C 1_555 1_555
C10C C9C 1_555 1_555
H8C C10C 1_555 1_555
C11C C10C 1_555 1_555
C12C C11C 1_555 1_555
H9C C12C 1_555 1_555
C13C N1C 1_555 1_555
H10C C13C 1_555 1_555
C14C C11C 1_555 1_555
C15C C14C 1_555 1_555
H11C C15C 1_555 1_555
C16C C15C 1_555 1_555
H12C C16C 1_555 1_555
C17C N2C 1_555 1_555
H13C C17C 1_555 1_555
C18C C14C 1_555 1_555
H14C C18C 1_555 1_555
Cd1D N2 1_555 1_555
Cd1D_2 N2C 1_555 1_555
N2D Cd1 1_555 1_555
N2G Cd1 1_555 1_555
O7D C43D 1_555 1_555
O8D C43D 1_555 1_555
C43D C44D 1_555 1_555
C44D C45D 1_555 1_555
C45D C46 1_555 1_555
H31D C45D 1_555 1_555
C46D C45 1_555 1_555
H32D C46D 1_555 1_555
Cd2D O7D 1_555 1_555
Br1D Cd2D 1_555 1_555
O5D Cd2D 1_555 1_555
O6D Cd2D 1_555 1_555
N3D C32D 1_555 1_555
N4D C40D 1_555 1_555
C25D O5D 1_555 1_555
C26D C25D 1_555 1_555
C27D C26D 1_555 1_555
H17D C27D 1_555 1_555
C28D C27D 1_555 1_555
H18D C28D 1_555 1_555
C29D C28D 1_555 1_555
C30D C29D 1_555 1_555
H19D C30D 1_555 1_555
C31D C26D 1_555 1_555
H20D C31D 1_555 1_555
C32D C29D 1_555 1_555
H21D C32D 1_555 1_555
H22D C32D 1_555 1_555
C33D N3D 1_555 1_555
H23D C33D 1_555 1_555
C34D C33D 1_555 1_555
H24D C34D 1_555 1_555
C35D C34D 1_555 1_555
C36D C35D 1_555 1_555
H25D C36D 1_555 1_555
C37D N3D 1_555 1_555
H26D C37D 1_555 1_555
C38D C35D 1_555 1_555
C39D C38D 1_555 1_555
H27D C39D 1_555 1_555
C40D C39D 1_555 1_555
H28D C40D 1_555 1_555
C41D N4D 1_555 1_555
H29D C41D 1_555 1_555
C42D C38D 1_555 1_555
H30D C42D 1_555 1_555
Cd2C N4D 1_555 1_555
Cd2G N4 1_555 1_555
N4C Cd2D 1_555 1_555
N4G Cd2 1_555 1_555
C6 C7 1_555 1_555
C12 C13 1_555 1_555
C17 C18 1_555 1_555
C19 O3C 1_555 1_555
O6 C25 1_555 1_555
O8 C43 1_555 1_555
C30 C31 1_555 1_555
C36 C37 1_555 1_555
C41 C42 1_555 1_555
C21C C22C 1_555 1_555
O2C C1C 1_555 1_555
C6C C7C 1_555 1_555
C12C C13C 1_555 1_555
C17C C18C 1_555 1_555
O8D Cd2D 1_555 1_555
C44D C46D 1_555 1_555
O6D C25D 1_555 1_555
C30D C31D 1_555 1_555
C36D C37D 1_555 1_555
C41D C42D 1_555 1_555

#END
