
#######################################################################
#
#                 Cambridge Crystallographic Data Centre
#                                CCDC 
#
#######################################################################
#
# If this CIF has been generated from an entry in the Cambridge 
# Structural Database, then it will include bibliographic, chemical, 
# crystal, experimental, refinement or atomic coordinate data resulting 
# from the CCDC's data processing and validation procedures.
#
#######################################################################

data_SOSFUD
_symmetry_cell_setting           monoclinic
_symmetry_space_group_name_H-M   'P c'
_symmetry_Int_Tables_number      7
_space_group_name_Hall           'P -2yc'
loop_
_symmetry_equiv_pos_site_id
_symmetry_equiv_pos_as_xyz
1 x,y,z
2 x,-y,1/2+z
_cell_length_a                   18.846(3)
_cell_length_b                   25.339(4)
_cell_length_c                   17.390(3)
_cell_angle_alpha                90
_cell_angle_beta                 102.082(2)
_cell_angle_gamma                90
_cell_volume                     8120.45
loop_
_atom_site_label
_atom_site_type_symbol
_atom_site_fract_x
_atom_site_fract_y
_atom_site_fract_z
Zn1 Zn 0.54410(7) -0.26704(5) 0.66377(9)
Zn2 Zn 0.63791(7) -0.41940(5) 0.62305(8)
Zn3 Zn 0.72090(8) -0.27685(6) 0.54698(10)
Zn4 Zn 0.75301(8) -0.30899(6) 0.79602(9)
Zn5 Zn 0.18925(7) 0.08103(5) 0.51720(8)
Zn6 Zn 0.27603(7) 0.23571(5) 0.59298(8)
Zn7 Zn 0.06674(8) 0.18781(6) 0.62771(9)
Zn8 Zn 0.10018(8) 0.22000(6) 0.39198(9)
P1 P 0.56985(17) -0.32870(13) 0.5068(2)
P2 P 0.59877(17) -0.35915(13) 0.77331(19)
P3 P 0.6979(2) -0.21060(14) 0.6943(2)
P4 P 0.79389(18) -0.37346(15) 0.6532(2)
P5 P 0.22416(17) 0.14603(13) 0.6847(2)
P6 P 0.25516(17) 0.17095(14) 0.4282(2)
P7 P 0.03136(17) 0.12070(14) 0.4732(2)
P8 P 0.11565(19) 0.28761(14) 0.5451(2)
O1 O 0.5417(4) -0.2868(3) 0.5560(5)
O2 O 0.5709(4) -0.3837(3) 0.5409(5)
O3 O 0.6416(5) -0.3132(4) 0.4839(5)
O4 O 0.5125(5) -0.3329(3) 0.4249(5)
O5 O 0.5352(4) -0.3272(3) 0.7268(5)
O6 O 0.6255(4) -0.4040(3) 0.7255(5)
O7 O 0.6580(5) -0.3236(3) 0.8155(5)
O8 O 0.5668(4) -0.3876(3) 0.8424(5)
O9 O 0.6217(5) -0.2198(4) 0.7077(6)
O10 O 0.7047(6) -0.2185(4) 0.6097(7)
O11 O 0.7546(5) -0.2392(4) 0.7528(6)
O12 O 0.7150(5) -0.1501(4) 0.7100(6)
O13 O 0.7388(5) -0.4148(4) 0.6195(5)
O14 O 0.7916(5) -0.3256(4) 0.6029(6)
O15 O 0.7959(5) -0.3609(4) 0.7376(5)
O16 O 0.8723(5) -0.3995(4) 0.6552(5)
O17 O 0.2028(5) 0.1002(4) 0.6237(5)
O18 O 0.2847(4) 0.1813(3) 0.6681(5)
O19 O 0.1589(5) 0.1781(4) 0.6973(5)
O20 O 0.2567(4) 0.1181(3) 0.7681(5)
O21 O 0.2522(5) 0.1157(3) 0.4600(6)
O22 O 0.2830(5) 0.2122(4) 0.4908(5)
O23 O 0.1836(5) 0.1862(4) 0.3734(6)
O24 O 0.3140(5) 0.1673(3) 0.3706(5)
O25 O 0.0876(4) 0.0793(4) 0.4676(5)
O26 O 0.0248(4) 0.1330(4) 0.5577(5)
O27 O 0.0370(5) 0.1700(4) 0.4277(6)
O28 O -0.0468(5) 0.0965(4) 0.4348(6)
O29 O 0.1932(5) 0.2787(4) 0.5904(6)
O30 O 0.0601(5) 0.2553(4) 0.5763(5)
O31 O 0.1071(5) 0.2818(3) 0.4574(5)
O32 O 0.0972(5) 0.3486(3) 0.5592(6)
C1 C 0.4504(7) -0.3007(5) 0.4016(7)
C2 C 0.4555(7) -0.2551(5) 0.3595(8)
C3 C 0.3891(8) -0.2270(6) 0.3357(9)
H1 H 0.3898 -0.1959 0.3074
C4 C 0.3265(8) -0.2423(5) 0.3513(9)
H2 H 0.2843 -0.2235 0.3316
C5 C 0.3243(7) -0.2888(6) 0.3994(8)
H3 H 0.2811 -0.2986 0.4133
C6 C 0.3852(7) -0.3184(6) 0.4244(8)
C7 C 0.5244(9) -0.2371(6) 0.3423(9)
H4 H 0.5569 -0.2676 0.3458
C8 C 0.5592(8) -0.1978(7) 0.4007(11)
H5 H 0.5758 -0.2148 0.4506
H6 H 0.5248 -0.1708 0.4059
H7 H 0.5998 -0.1822 0.3837
C9 C 0.5138(10) -0.2148(9) 0.2592(10)
H8 H 0.5592 -0.2153 0.2424
H9 H 0.4966 -0.1791 0.2587
H10 H 0.4789 -0.2358 0.2241
C10 C 0.3834(8) -0.3683(6) 0.4698(9)
H11 H 0.4324 -0.3833 0.4784
C11 C 0.3311(13) -0.4111(8) 0.4266(13)
H12 H 0.3243 -0.4060 0.3709
H13 H 0.2852 -0.4083 0.4420
H14 H 0.3515 -0.4454 0.4404
C12 C 0.3698(13) -0.3531(10) 0.5523(13)
H15 H 0.3878 -0.3182 0.5657
H16 H 0.3945 -0.3777 0.5908
H17 H 0.3187 -0.3542 0.5512
C13 C 0.5677(7) -0.4434(5) 0.8502(8)
C14 C 0.5049(7) -0.4709(5) 0.8212(8)
C15 C 0.5043(8) -0.5252(6) 0.8371(9)
H18 H 0.4615 -0.5441 0.8213
C16 C 0.5676(8) -0.5515(6) 0.8765(8)
H19 H 0.5673 -0.5875 0.8864
C17 C 0.6303(8) -0.5216(5) 0.9000(8)
H20 H 0.6734 -0.5386 0.9225
C18 C 0.6309(7) -0.4680(5) 0.8912(8)
C19 C 0.4367(7) -0.4434(6) 0.7751(8)
H21 H 0.4506 -0.4069 0.7663
C20 C 0.4144(10) -0.4681(9) 0.6962(12)
H22 H 0.3642 -0.4604 0.6752
H23 H 0.4211 -0.5056 0.7008
H24 H 0.4434 -0.4542 0.6617
C21 C 0.3777(9) -0.4403(8) 0.8217(10)
H25 H 0.3402 -0.4169 0.7958
H26 H 0.3977 -0.4274 0.8735
H27 H 0.3576 -0.4748 0.8253
C22 C 0.7002(7) -0.4378(6) 0.9239(9)
H28 H 0.6898 -0.4002 0.9143
C23 C 0.7246(9) -0.4453(7) 1.0119(9)
H29 H 0.6841 -0.4403 1.0366
H30 H 0.7618 -0.4201 1.0322
H31 H 0.7434 -0.4804 1.0225
C24 C 0.7612(8) -0.4532(6) 0.8803(10)
H32 H 0.7441 -0.4487 0.8247
H33 H 0.7746 -0.4894 0.8913
H34 H 0.8027 -0.4310 0.8980
C25 C 0.6690(8) -0.1110(6) 0.7319(10)
C26 C 0.6773(8) -0.1018(6) 0.8146(11)
C27 C 0.6336(14) -0.0592(11) 0.8369(17)
H35 H 0.6368 -0.0492 0.8890
C28 C 0.5876(14) -0.0352(10) 0.7760(15)
H36 H 0.5583 -0.0089 0.7902
C29 C 0.5785(13) -0.0441(8) 0.6976(16)
H37 H 0.5452 -0.0254 0.6605
C30 C 0.6255(9) -0.0861(7) 0.6754(13)
C31 C 0.7276(10) -0.1292(8) 0.8724(11)
H38 H 0.7628 -0.1452 0.8452
C32 C 0.6906(11) -0.1773(10) 0.9110(12)
H39 H 0.6587 -0.1964 0.8702
H40 H 0.6633 -0.1634 0.9473
H41 H 0.7277 -0.2005 0.9382
C33 C 0.7713(10) -0.0966(10) 0.9394(13)
H42 H 0.7976 -0.0697 0.9183
H43 H 0.8048 -0.1191 0.9736
H44 H 0.7391 -0.0805 0.9685
C34 C 0.6184(10) -0.0968(7) 0.5918(11)
H45 H 0.6171 -0.1353 0.5865
C35 C 0.6862(12) -0.0781(11) 0.5599(13)
H46 H 0.7286 -0.0965 0.5871
H47 H 0.6930 -0.0408 0.5685
H48 H 0.6786 -0.0854 0.5046
C36 C 0.5494(12) -0.0763(8) 0.5357(18)
H49 H 0.5132 -0.0682 0.5653
H50 H 0.5312 -0.1029 0.4973
H51 H 0.5609 -0.0450 0.5096
C37 C 0.8916(7) -0.4435(6) 0.6132(8)
C38 C 0.8920(8) -0.4928(6) 0.6485(10)
C39 C 0.9182(9) -0.5325(7) 0.6118(12)
H52 H 0.9198 -0.5665 0.6325
C40 C 0.9422(8) -0.5240(7) 0.5457(10)
H53 H 0.9597 -0.5528 0.5223
C41 C 0.9428(8) -0.4768(6) 0.5106(9)
H54 H 0.9627 -0.4728 0.4664
C42 C 0.9117(9) -0.4327(7) 0.5440(11)
C43 C 0.8667(9) -0.4996(6) 0.7246(10)
H55 H 0.8300 -0.4722 0.7241
C44 C 0.8283(10) -0.5509(8) 0.7316(12)
H56 H 0.7924 -0.5570 0.6844
H57 H 0.8051 -0.5492 0.7757
H58 H 0.8629 -0.5792 0.7391
C45 C 0.9240(11) -0.4884(8) 0.7940(12)
H59 H 0.9436 -0.4539 0.7890
H60 H 0.9617 -0.5143 0.7980
H61 H 0.9039 -0.4896 0.8404
C46 C 0.9094(11) -0.3784(8) 0.5082(13)
H62 H 0.8998 -0.3530 0.5473
C47 C 0.841(2) -0.3783(14) 0.436(2)
H63 H 0.8543 -0.3624 0.3912
H64 H 0.8021 -0.3586 0.4503
H65 H 0.8255 -0.4140 0.4238
C48 C 0.9758(15) -0.3608(11) 0.4818(17)
H66 H 1.0178 -0.3689 0.5218
H67 H 0.9734 -0.3235 0.4726
H68 H 0.9789 -0.3788 0.4341
C49 C 0.2590(9) 0.0638(6) 0.7783(9)
C50 C 0.1965(8) 0.0391(6) 0.7947(9)
C51 C 0.2023(9) -0.0155(7) 0.8052(9)
H69 H 0.1615 -0.0336 0.8132
C52 C 0.2639(9) -0.0441(6) 0.8045(8)
H70 H 0.2653 -0.0805 0.8116
C53 C 0.3225(9) -0.0170(6) 0.7930(10)
H71 H 0.3660 -0.0352 0.7972
C54 C 0.3216(8) 0.0366(6) 0.7751(8)
C55 C 0.1271(8) 0.0688(6) 0.7978(10)
H72 H 0.1377 0.1064 0.7938
C56 C 0.1007(10) 0.0613(9) 0.8740(12)
H73 H 0.0555 0.0796 0.8706
H74 H 0.1361 0.0753 0.9171
H75 H 0.0939 0.0244 0.8825
C57 C 0.0672(10) 0.0551(7) 0.7265(11)
H76 H 0.0868 0.0554 0.6798
H77 H 0.0289 0.0807 0.7215
H78 H 0.0482 0.0207 0.7335
C58 C 0.3881(8) 0.0656(6) 0.7609(9)
H79 H 0.3736 0.1020 0.7462
C59 C 0.4138(10) 0.0404(8) 0.6915(10)
H80 H 0.4553 0.0593 0.6819
H81 H 0.3754 0.0420 0.6455
H82 H 0.4268 0.0043 0.7035
C60 C 0.4487(9) 0.0678(7) 0.8327(10)
H83 H 0.4817 0.0956 0.8266
H84 H 0.4740 0.0347 0.8388
H85 H 0.4289 0.0745 0.8783
C61 C 0.3736(7) 0.2005(5) 0.3790(9)
C62 C 0.4390(8) 0.1828(6) 0.4272(10)
C63 C 0.4996(8) 0.2170(6) 0.4250(9)
H86 H 0.5452 0.2072 0.4533
C64 C 0.4936(7) 0.2619(5) 0.3843(8)
H87 H 0.5341 0.2833 0.3872
C65 C 0.4303(8) 0.2764(5) 0.3397(8)
H88 H 0.4285 0.3070 0.3099
C66 C 0.3660(8) 0.2472(6) 0.3359(9)
C67 C 0.4443(8) 0.1340(7) 0.4754(12)
H89 H 0.3961 0.1197 0.4758
C68 C 0.488(2) 0.1394(18) 0.557(3)
H90 H 0.4645 0.1631 0.5864
H91 H 0.5355 0.1529 0.5551
H92 H 0.4934 0.1054 0.5821
C69 C 0.4919(17) 0.0927(11) 0.4386(18)
H93 H 0.4604 0.0686 0.4051
H94 H 0.5228 0.0736 0.4801
H95 H 0.5211 0.1113 0.4083
C70 C 0.2927(8) 0.2654(7) 0.2867(9)
H96 H 0.2599 0.2350 0.2786
C71 C 0.2599(8) 0.3073(7) 0.3324(10)
H97 H 0.2700 0.2983 0.3872
H98 H 0.2084 0.3088 0.3129
H99 H 0.2809 0.3411 0.3256
C72 C 0.2988(9) 0.2856(7) 0.2095(9)
H100 H 0.2912 0.2572 0.1720
H101 H 0.3463 0.3002 0.2127
H102 H 0.2629 0.3124 0.1931
C73 C -0.0606(7) 0.0528(6) 0.3859(8)
C74 C -0.0735(8) 0.0045(6) 0.4156(10)
C75 C -0.0930(8) -0.0378(6) 0.3606(10)
H103 H -0.1017 -0.0712 0.3789
C76 C -0.0988(9) -0.0302(8) 0.2831(13)
H104 H -0.1109 -0.0585 0.2488
C77 C -0.0876(10) 0.0173(7) 0.2543(11)
H105 H -0.0919 0.0211 0.2003
C78 C -0.0697(9) 0.0614(7) 0.3025(9)
C79 C -0.0686(12) -0.0034(7) 0.4989(11)
H106 H -0.0632 0.0310 0.5251
C80 C -0.1400(11) -0.0323(8) 0.5170(14)
H107 H -0.1823 -0.0204 0.4802
H108 H -0.1449 -0.0239 0.5695
H109 H -0.1353 -0.0698 0.5121
C81 C -0.0068(11) -0.0383(10) 0.5375(11)
H110 H 0.0213 -0.0206 0.5826
H111 H 0.0235 -0.0458 0.5008
H112 H -0.0257 -0.0707 0.5537
C82 C -0.0549(10) 0.1130(8) 0.2690(10)
H113 H -0.0579 0.1401 0.3084
C83 C -0.1074(12) 0.1287(8) 0.1930(12)
H114 H -0.1546 0.1145 0.1931
H115 H -0.0902 0.1149 0.1488
H116 H -0.1103 0.1664 0.1894
C84 C 0.0242(9) 0.1141(7) 0.2538(10)
H117 H 0.0567 0.0976 0.2969
H118 H 0.0388 0.1500 0.2490
H119 H 0.0254 0.0954 0.2060
C85 C 0.1469(7) 0.3815(6) 0.6069(12)
C86 C 0.1473(10) 0.3819(8) 0.6872(10)
C87 C 0.1916(12) 0.4208(9) 0.7336(14)
H120 H 0.1890 0.4277 0.7855
C88 C 0.2379(17) 0.4472(12) 0.6966(18)
H121 H 0.2713 0.4692 0.7284
C89 C 0.2421(16) 0.4456(12) 0.6165(19)
H122 H 0.2752 0.4646 0.5946
C90 C 0.1869(14) 0.4097(8) 0.5724(13)
C91 C 0.0946(9) 0.3514(7) 0.7249(10)
H123 H 0.0604 0.3325 0.6839
C92 C 0.0513(13) 0.3872(11) 0.7712(13)
H124 H 0.0028 0.3738 0.7657
H125 H 0.0494 0.4225 0.7506
H126 H 0.0748 0.3875 0.8258
C93 C 0.1347(12) 0.3123(8) 0.7823(12)
H127 H 0.1608 0.2884 0.7555
H128 H 0.1008 0.2928 0.8056
H129 H 0.1683 0.3305 0.8227
C94 C 0.1857(10) 0.4101(7) 0.4900(12)
H130 H 0.1815 0.3728 0.4750
C95 C 0.2512(12) 0.4300(9) 0.4579(16)
H131 H 0.2945 0.4124 0.4848
H132 H 0.2565 0.4674 0.4663
H133 H 0.2435 0.4227 0.4026
C96 C 0.1165(11) 0.4368(9) 0.4364(16)
H134 H 0.0734 0.4199 0.4455
H135 H 0.1189 0.4330 0.3821
H136 H 0.1153 0.4736 0.4493
N1 N 0.4592(5) -0.2142(4) 0.6395(6)
C97 C 0.4283(7) -0.2062(5) 0.5626(8)
H137 H 0.4392 -0.2289 0.5248
C98 C 0.3803(8) -0.1641(6) 0.5394(9)
H138 H 0.3600 -0.1583 0.4865
C99 C 0.3636(7) -0.1309(5) 0.5982(7)
C100 C 0.3940(8) -0.1401(5) 0.6753(9)
H139 H 0.3818 -0.1193 0.7146
C101 C 0.4438(8) -0.1816(6) 0.6943(10)
H140 H 0.4668 -0.1867 0.7466
N2 N 0.2344(6) 0.0076(4) 0.5353(6)
C102 C 0.2228(7) -0.0225(5) 0.5918(8)
H141 H 0.1881 -0.0125 0.6199
C103 C 0.2615(7) -0.0705(5) 0.6122(8)
H142 H 0.2509 -0.0920 0.6516
C104 C 0.3150(8) -0.0848(5) 0.5728(8)
C105 C 0.3254(8) -0.0518(5) 0.5118(9)
H143 H 0.3591 -0.0611 0.4819
C106 C 0.2878(7) -0.0070(5) 0.4956(7)
H144 H 0.2978 0.0151 0.4565
N3 N 0.5912(5) -0.4933(4) 0.6136(6)
C107 C 0.5424(7) -0.5066(5) 0.5502(8)
H145 H 0.5363 -0.4851 0.5059
C108 C 0.5012(7) -0.5503(6) 0.5481(8)
H146 H 0.4670 -0.5583 0.5027
C109 C 0.5091(6) -0.5837(5) 0.6130(7)
C110 C 0.5640(7) -0.5713(6) 0.6780(8)
H147 H 0.5747 -0.5939 0.7210
C111 C 0.6020(7) -0.5249(5) 0.6770(8)
H148 H 0.6361 -0.5152 0.7216
N4 N 0.3582(6) -0.7112(4) 0.6070(7)
C112 C 0.3937(7) -0.7029(5) 0.5488(8)
H149 H 0.3853 -0.7256 0.5058
C113 C 0.4414(7) -0.6628(5) 0.5504(8)
H150 H 0.4638 -0.6588 0.5079
C114 C 0.4579(7) -0.6287(5) 0.6102(8)
C115 C 0.4282(8) -0.6406(6) 0.6741(9)
H151 H 0.4425 -0.6207 0.7197
C116 C 0.3786(8) -0.6801(5) 0.6739(8)
H152 H 0.3588 -0.6860 0.7178
N5 N -0.2285(6) 0.2431(5) 0.9667(7)
C117 C -0.2494(8) 0.2493(8) 0.8906(10)
H153 H -0.2959 0.2625 0.8728
C118 C -0.2104(8) 0.2385(7) 0.8342(10)
H154 H -0.2271 0.2462 0.7812
C119 C -0.1406(8) 0.2139(7) 0.8648(9)
C120 C -0.1224(9) 0.2027(7) 0.9433(10)
H155 H -0.0794 0.1848 0.9632
C121 C -0.1670(9) 0.2174(7) 0.9941(11)
H156 H -0.1538 0.2093 1.0473
N6 N 0.0007(7) 0.1899(6) 0.7058(8)
C122 C 0.0238(10) 0.1951(8) 0.7790(13)
H157 H 0.0738 0.1958 0.7975
C123 C -0.0190(9) 0.1998(8) 0.8331(11)
H158 H 0.0017 0.2022 0.8865
C124 C -0.0948(8) 0.2008(8) 0.8068(10)
C125 C -0.1207(10) 0.1927(8) 0.7290(11)
H159 H -0.1705 0.1916 0.7095
C126 C -0.0739(8) 0.1862(7) 0.6781(10)
H160 H -0.0924 0.1792 0.6252
S1 S 0.8861(2) -0.29787(18) 0.9397(3)
O33 O 0.8071(5) -0.3108(4) 0.9074(6)
C127 C 0.8991(10) -0.3142(8) 1.0419(8)
H161 H 0.8777 -0.3479 1.0475
H162 H 0.8764 -0.2878 1.0683
H163 H 0.9501 -0.3154 1.0646
C128 C 0.8905(10) -0.2274(5) 0.9526(12)
H164 H 0.8925 -0.2108 0.9035
H165 H 0.9331 -0.2184 0.9911
H166 H 0.8481 -0.2155 0.9700
S2 S -0.0172(3) 0.2714(2) 0.2676(3)
O34 O 0.0551(5) 0.2460(4) 0.2863(6)
C129 C -0.0023(12) 0.3388(5) 0.2945(11)
H167 H 0.0273 0.3410 0.3465
H168 H -0.0481 0.3557 0.2935
H169 H 0.0219 0.3560 0.2580
C130 C -0.0319(11) 0.2786(8) 0.1616(9)
H170 H -0.0262 0.2450 0.1382
H171 H 0.0027 0.3031 0.1488
H172 H -0.0802 0.2916 0.1417
Zn3A Zn -0.27910(8) 0.27685(6) 1.04698(10)
Zn6_2 Zn 0.27603(7) -0.76429(5) 0.59298(8)
N4_2 N 0.3582(6) 0.2888(4) 0.6070(7)
N5A N 0.7715(6) -0.2431(5) 0.4667(7)
S3 S 0.6593(4) 0.1074(3) 0.7271(6)
O35 O 0.6861(12) 0.1619(5) 0.7166(14)
C131 C 0.7076(15) 0.0876(11) 0.8212(11)
H173 H 0.6855 0.1030 0.8609
H174 H 0.7570 0.0993 0.8286
H175 H 0.7064 0.0498 0.8251
C132 C 0.7077(14) 0.0684(10) 0.6672(14)
H176 H 0.7180 0.0898 0.6253
H177 H 0.6783 0.0389 0.6454
H178 H 0.7524 0.0559 0.6991
S4 S 0.1586(4) 0.5903(3) 0.6666(7)
O36 O 0.1148(11) 0.6403(6) 0.6558(17)
C133 C 0.0958(12) 0.5396(8) 0.6785(16)
H179 H 0.0641 0.5524 0.7109
H180 H 0.1219 0.5094 0.7030
H181 H 0.0676 0.5298 0.6279
C134 C 0.1695(16) 0.5751(13) 0.5684(13)
H182 H 0.2180 0.5836 0.5637
H183 H 0.1355 0.5954 0.5311
H184 H 0.1607 0.5382 0.5583
loop_
_geom_bond_atom_site_label_1
_geom_bond_atom_site_label_2
_geom_bond_site_symmetry_1
_geom_bond_site_symmetry_2
Zn1 O1 1_555 1_555
Zn2 O2 1_555 1_555
Zn3 O3 1_555 1_555
Zn4 O7 1_555 1_555
Zn5 O17 1_555 1_555
Zn6 O18 1_555 1_555
Zn7 O19 1_555 1_555
Zn8 O23 1_555 1_555
P1 O1 1_555 1_555
P2 O5 1_555 1_555
P3 O9 1_555 1_555
P4 O13 1_555 1_555
P5 O17 1_555 1_555
P6 O21 1_555 1_555
P7 O25 1_555 1_555
P8 O29 1_555 1_555
O2 P1 1_555 1_555
O3 P1 1_555 1_555
O4 P1 1_555 1_555
O5 Zn1 1_555 1_555
O6 Zn2 1_555 1_555
O7 P2 1_555 1_555
O8 P2 1_555 1_555
O9 Zn1 1_555 1_555
O10 Zn3 1_555 1_555
O11 Zn4 1_555 1_555
O12 P3 1_555 1_555
O13 Zn2 1_555 1_555
O14 Zn3 1_555 1_555
O15 Zn4 1_555 1_555
O16 P4 1_555 1_555
O18 P5 1_555 1_555
O19 P5 1_555 1_555
O20 P5 1_555 1_555
O21 Zn5 1_555 1_555
O22 Zn6 1_555 1_555
O23 P6 1_555 1_555
O24 P6 1_555 1_555
O25 Zn5 1_555 1_555
O26 Zn7 1_555 1_555
O27 Zn8 1_555 1_555
O28 P7 1_555 1_555
O29 Zn6 1_555 1_555
O30 Zn7 1_555 1_555
O31 Zn8 1_555 1_555
O32 P8 1_555 1_555
C1 O4 1_555 1_555
C2 C1 1_555 1_555
C3 C2 1_555 1_555
H1 C3 1_555 1_555
C4 C3 1_555 1_555
H2 C4 1_555 1_555
C5 C4 1_555 1_555
H3 C5 1_555 1_555
C6 C1 1_555 1_555
C7 C2 1_555 1_555
H4 C7 1_555 1_555
C8 C7 1_555 1_555
H5 C8 1_555 1_555
H6 C8 1_555 1_555
H7 C8 1_555 1_555
C9 C7 1_555 1_555
H8 C9 1_555 1_555
H9 C9 1_555 1_555
H10 C9 1_555 1_555
C10 C6 1_555 1_555
H11 C10 1_555 1_555
C11 C10 1_555 1_555
H12 C11 1_555 1_555
H13 C11 1_555 1_555
H14 C11 1_555 1_555
C12 C10 1_555 1_555
H15 C12 1_555 1_555
H16 C12 1_555 1_555
H17 C12 1_555 1_555
C13 O8 1_555 1_555
C14 C13 1_555 1_555
C15 C14 1_555 1_555
H18 C15 1_555 1_555
C16 C15 1_555 1_555
H19 C16 1_555 1_555
C17 C16 1_555 1_555
H20 C17 1_555 1_555
C18 C13 1_555 1_555
C19 C14 1_555 1_555
H21 C19 1_555 1_555
C20 C19 1_555 1_555
H22 C20 1_555 1_555
H23 C20 1_555 1_555
H24 C20 1_555 1_555
C21 C19 1_555 1_555
H25 C21 1_555 1_555
H26 C21 1_555 1_555
H27 C21 1_555 1_555
C22 C18 1_555 1_555
H28 C22 1_555 1_555
C23 C22 1_555 1_555
H29 C23 1_555 1_555
H30 C23 1_555 1_555
H31 C23 1_555 1_555
C24 C22 1_555 1_555
H32 C24 1_555 1_555
H33 C24 1_555 1_555
H34 C24 1_555 1_555
C25 O12 1_555 1_555
C26 C25 1_555 1_555
C27 C26 1_555 1_555
H35 C27 1_555 1_555
C28 C27 1_555 1_555
H36 C28 1_555 1_555
C29 C28 1_555 1_555
H37 C29 1_555 1_555
C30 C25 1_555 1_555
C31 C26 1_555 1_555
H38 C31 1_555 1_555
C32 C31 1_555 1_555
H39 C32 1_555 1_555
H40 C32 1_555 1_555
H41 C32 1_555 1_555
C33 C31 1_555 1_555
H42 C33 1_555 1_555
H43 C33 1_555 1_555
H44 C33 1_555 1_555
C34 C30 1_555 1_555
H45 C34 1_555 1_555
C35 C34 1_555 1_555
H46 C35 1_555 1_555
H47 C35 1_555 1_555
H48 C35 1_555 1_555
C36 C34 1_555 1_555
H49 C36 1_555 1_555
H50 C36 1_555 1_555
H51 C36 1_555 1_555
C37 O16 1_555 1_555
C38 C37 1_555 1_555
C39 C38 1_555 1_555
H52 C39 1_555 1_555
C40 C39 1_555 1_555
H53 C40 1_555 1_555
C41 C40 1_555 1_555
H54 C41 1_555 1_555
C42 C37 1_555 1_555
C43 C38 1_555 1_555
H55 C43 1_555 1_555
C44 C43 1_555 1_555
H56 C44 1_555 1_555
H57 C44 1_555 1_555
H58 C44 1_555 1_555
C45 C43 1_555 1_555
H59 C45 1_555 1_555
H60 C45 1_555 1_555
H61 C45 1_555 1_555
C46 C42 1_555 1_555
H62 C46 1_555 1_555
C47 C46 1_555 1_555
H63 C47 1_555 1_555
H64 C47 1_555 1_555
H65 C47 1_555 1_555
C48 C46 1_555 1_555
H66 C48 1_555 1_555
H67 C48 1_555 1_555
H68 C48 1_555 1_555
C49 O20 1_555 1_555
C50 C49 1_555 1_555
C51 C50 1_555 1_555
H69 C51 1_555 1_555
C52 C51 1_555 1_555
H70 C52 1_555 1_555
C53 C52 1_555 1_555
H71 C53 1_555 1_555
C54 C49 1_555 1_555
C55 C50 1_555 1_555
H72 C55 1_555 1_555
C56 C55 1_555 1_555
H73 C56 1_555 1_555
H74 C56 1_555 1_555
H75 C56 1_555 1_555
C57 C55 1_555 1_555
H76 C57 1_555 1_555
H77 C57 1_555 1_555
H78 C57 1_555 1_555
C58 C54 1_555 1_555
H79 C58 1_555 1_555
C59 C58 1_555 1_555
H80 C59 1_555 1_555
H81 C59 1_555 1_555
H82 C59 1_555 1_555
C60 C58 1_555 1_555
H83 C60 1_555 1_555
H84 C60 1_555 1_555
H85 C60 1_555 1_555
C61 O24 1_555 1_555
C62 C61 1_555 1_555
C63 C62 1_555 1_555
H86 C63 1_555 1_555
C64 C63 1_555 1_555
H87 C64 1_555 1_555
C65 C64 1_555 1_555
H88 C65 1_555 1_555
C66 C61 1_555 1_555
C67 C62 1_555 1_555
H89 C67 1_555 1_555
C68 C67 1_555 1_555
H90 C68 1_555 1_555
H91 C68 1_555 1_555
H92 C68 1_555 1_555
C69 C67 1_555 1_555
H93 C69 1_555 1_555
H94 C69 1_555 1_555
H95 C69 1_555 1_555
C70 C66 1_555 1_555
H96 C70 1_555 1_555
C71 C70 1_555 1_555
H97 C71 1_555 1_555
H98 C71 1_555 1_555
H99 C71 1_555 1_555
C72 C70 1_555 1_555
H100 C72 1_555 1_555
H101 C72 1_555 1_555
H102 C72 1_555 1_555
C73 O28 1_555 1_555
C74 C73 1_555 1_555
C75 C74 1_555 1_555
H103 C75 1_555 1_555
C76 C75 1_555 1_555
H104 C76 1_555 1_555
C77 C76 1_555 1_555
H105 C77 1_555 1_555
C78 C73 1_555 1_555
C79 C74 1_555 1_555
H106 C79 1_555 1_555
C80 C79 1_555 1_555
H107 C80 1_555 1_555
H108 C80 1_555 1_555
H109 C80 1_555 1_555
C81 C79 1_555 1_555
H110 C81 1_555 1_555
H111 C81 1_555 1_555
H112 C81 1_555 1_555
C82 C78 1_555 1_555
H113 C82 1_555 1_555
C83 C82 1_555 1_555
H114 C83 1_555 1_555
H115 C83 1_555 1_555
H116 C83 1_555 1_555
C84 C82 1_555 1_555
H117 C84 1_555 1_555
H118 C84 1_555 1_555
H119 C84 1_555 1_555
C85 O32 1_555 1_555
C86 C85 1_555 1_555
C87 C86 1_555 1_555
H120 C87 1_555 1_555
C88 C87 1_555 1_555
H121 C88 1_555 1_555
C89 C88 1_555 1_555
H122 C89 1_555 1_555
C90 C85 1_555 1_555
C91 C86 1_555 1_555
H123 C91 1_555 1_555
C92 C91 1_555 1_555
H124 C92 1_555 1_555
H125 C92 1_555 1_555
H126 C92 1_555 1_555
C93 C91 1_555 1_555
H127 C93 1_555 1_555
H128 C93 1_555 1_555
H129 C93 1_555 1_555
C94 C90 1_555 1_555
H130 C94 1_555 1_555
C95 C94 1_555 1_555
H131 C95 1_555 1_555
H132 C95 1_555 1_555
H133 C95 1_555 1_555
C96 C94 1_555 1_555
H134 C96 1_555 1_555
H135 C96 1_555 1_555
H136 C96 1_555 1_555
N1 Zn1 1_555 1_555
C97 N1 1_555 1_555
H137 C97 1_555 1_555
C98 C97 1_555 1_555
H138 C98 1_555 1_555
C99 C98 1_555 1_555
C100 C99 1_555 1_555
H139 C100 1_555 1_555
C101 N1 1_555 1_555
H140 C101 1_555 1_555
N2 Zn5 1_555 1_555
C102 N2 1_555 1_555
H141 C102 1_555 1_555
C103 C102 1_555 1_555
H142 C103 1_555 1_555
C104 C99 1_555 1_555
C105 C104 1_555 1_555
H143 C105 1_555 1_555
C106 N2 1_555 1_555
H144 C106 1_555 1_555
N3 Zn2 1_555 1_555
C107 N3 1_555 1_555
H145 C107 1_555 1_555
C108 C107 1_555 1_555
H146 C108 1_555 1_555
C109 C108 1_555 1_555
C110 C109 1_555 1_555
H147 C110 1_555 1_555
C111 N3 1_555 1_555
H148 C111 1_555 1_555
N4 C112 1_555 1_555
C112 H149 1_555 1_555
C113 C112 1_555 1_555
H150 C113 1_555 1_555
C114 C109 1_555 1_555
C115 C114 1_555 1_555
H151 C115 1_555 1_555
C116 N4 1_555 1_555
H152 C116 1_555 1_555
N5 C117 1_555 1_555
C117 H153 1_555 1_555
C118 C117 1_555 1_555
H154 C118 1_555 1_555
C119 C118 1_555 1_555
C120 C119 1_555 1_555
H155 C120 1_555 1_555
C121 N5 1_555 1_555
H156 C121 1_555 1_555
N6 Zn7 1_555 1_555
C122 N6 1_555 1_555
H157 C122 1_555 1_555
C123 C122 1_555 1_555
H158 C123 1_555 1_555
C124 C119 1_555 1_555
C125 C124 1_555 1_555
H159 C125 1_555 1_555
C126 N6 1_555 1_555
H160 C126 1_555 1_555
S1 O33 1_555 1_555
O33 Zn4 1_555 1_555
C127 S1 1_555 1_555
H161 C127 1_555 1_555
H162 C127 1_555 1_555
H163 C127 1_555 1_555
C128 S1 1_555 1_555
H164 C128 1_555 1_555
H165 C128 1_555 1_555
H166 C128 1_555 1_555
S2 O34 1_555 1_555
O34 Zn8 1_555 1_555
C129 S2 1_555 1_555
H167 C129 1_555 1_555
H168 C129 1_555 1_555
H169 C129 1_555 1_555
C130 S2 1_555 1_555
H170 C130 1_555 1_555
H171 C130 1_555 1_555
H172 C130 1_555 1_555
S3 O35 1_555 1_555
C131 S3 1_555 1_555
H173 C131 1_555 1_555
H174 C131 1_555 1_555
H175 C131 1_555 1_555
C132 S3 1_555 1_555
H176 C132 1_555 1_555
H177 C132 1_555 1_555
H178 C132 1_555 1_555
S4 O36 1_555 1_555
C133 S4 1_555 1_555
H179 C133 1_555 1_555
H180 C133 1_555 1_555
H181 C133 1_555 1_555
C134 S4 1_555 1_555
H182 C134 1_555 1_555
H183 C134 1_555 1_555
H184 C134 1_555 1_555
Zn3A N5 1_555 1_555
Zn6_2 N4 1_555 1_555
N4_2 Zn6 1_555 1_555
N5A Zn3 1_555 1_555
P2 O6 1_555 1_555
P3 O10 1_555 1_555
P3 O11 1_555 1_555
P4 O14 1_555 1_555
P4 O15 1_555 1_555
P6 O22 1_555 1_555
P7 O26 1_555 1_555
P7 O27 1_555 1_555
P8 O30 1_555 1_555
P8 O31 1_555 1_555
C5 C6 1_555 1_555
C17 C18 1_555 1_555
C29 C30 1_555 1_555
C41 C42 1_555 1_555
C53 C54 1_555 1_555
C65 C66 1_555 1_555
C77 C78 1_555 1_555
C89 C90 1_555 1_555
C100 C101 1_555 1_555
C103 C104 1_555 1_555
C105 C106 1_555 1_555
C110 C111 1_555 1_555
C113 C114 1_555 1_555
C115 C116 1_555 1_555
C120 C121 1_555 1_555
C123 C124 1_555 1_555
C125 C126 1_555 1_555

#END
