
#######################################################################
#
#                 Cambridge Crystallographic Data Centre
#                                CCDC 
#
#######################################################################
#
# If this CIF has been generated from an entry in the Cambridge 
# Structural Database, then it will include bibliographic, chemical, 
# crystal, experimental, refinement or atomic coordinate data resulting 
# from the CCDC's data processing and validation procedures.
#
#######################################################################

data_SOSFAJ
_symmetry_cell_setting           monoclinic
_symmetry_space_group_name_H-M   'C 2/m'
_symmetry_Int_Tables_number      12
_space_group_name_Hall           '-C 2y'
loop_
_symmetry_equiv_pos_site_id
_symmetry_equiv_pos_as_xyz
1 x,y,z
2 -x,y,-z
3 1/2+x,1/2+y,z
4 1/2-x,1/2+y,-z
5 -x,-y,-z
6 x,-y,z
7 1/2-x,1/2-y,-z
8 1/2+x,1/2-y,z
_cell_length_a                   7.8046(7)
_cell_length_b                   21.3806(19)
_cell_length_c                   19.8173(15)
_cell_angle_alpha                90
_cell_angle_beta                 98.582(3)
_cell_angle_gamma                90
_cell_volume                     3269.83
loop_
_atom_site_label
_atom_site_type_symbol
_atom_site_fract_x
_atom_site_fract_y
_atom_site_fract_z
O8 O -0.005(5) 0.0000 0.161(2)
H4 H -0.0660 -0.0328 0.1535
H4E H -0.0660 0.0328 0.1535
O9 O 0.295(8) 0.0000 0.025(4)
H5 H 0.2812 -0.0311 0.0499
H5E H 0.2812 0.0311 0.0499
O10 O -0.017(7) -0.0633(16) 0.0738(19)
H6 H -0.0336 -0.1026 0.0745
H7 H -0.0905 -0.0505 0.0407
O11 O 0.189(4) 0.0000 0.3157(18)
N4 N 0.321(4) 0.0000 0.4369(16)
C13 C 0.308(5) 0.0000 0.3614(16)
C14 C 0.160(6) 0.0000 0.469(2)
C15 C 0.495(5) 0.0000 0.478(2)
O11A O 0.811(4) 0.0000 0.6843(18)
N4A N 0.679(4) 0.0000 0.5631(16)
C13A C 0.692(5) 0.0000 0.6386(16)
C14A C 0.840(6) 0.0000 0.531(2)
C15A C 0.505(5) 0.0000 0.522(2)
La1 La -0.01155(6) 0.22323(2) 0.25543(2)
O1 O 0.1277(9) 0.1159(3) 0.2348(3)
H1 H 0.2054 0.1005 0.2648
H2 H 0.0710 0.1162 0.1947
O2 O -0.1753(8) 0.1728(3) 0.1466(3)
O3 O -0.3015(7) 0.2599(3) 0.1733(3)
C1 C -0.2847(10) 0.2149(4) 0.1314(4)
C2 C -0.3977(10) 0.2154(5) 0.0636(4)
C3 C -0.4459(14) 0.1587(5) 0.0322(5)
C4 C -0.4509(11) 0.2710(5) 0.0325(4)
O4 O 0.3132(7) 0.2104(3) 0.3241(3)
O5 O 0.0960(7) 0.1808(3) 0.3754(3)
C5 C 0.2568(11) 0.1895(4) 0.3767(4)
C6 C 0.3807(10) 0.1776(4) 0.4406(4)
C7 C 0.3212(12) 0.1731(5) 0.5039(4)
C8 C 0.5561(10) 0.1764(4) 0.4376(4)
H3 H 0.5934 0.1779 0.3952
O6 O 0.2289(8) 0.3332(3) 0.2861(3)
O7 O -0.0210(8) 0.3387(3) 0.2172(4)
C9 C 0.1069(13) 0.3652(4) 0.2509(4)
C10 C 0.1197(11) 0.4346(4) 0.2507(5)
C11 C 0.2372(12) 0.4664(5) 0.2983(5)
C12 C 0.0045(12) 0.4679(4) 0.2019(4)
N1 N 0.150(2) 0.1614(8) 0.5109(8)
N2 N 0.354(3) 0.4414(11) 0.3517(12)
N3 N -0.364(4) 0.1003(14) 0.0525(13)
O2A O -0.8247(8) 0.1728(3) -0.1466(3)
O3A O -0.6985(7) 0.2599(3) -0.1733(3)
C1A C -0.7153(10) 0.2149(4) -0.1314(4)
C2A C -0.6023(10) 0.2154(5) -0.0636(4)
C3A C -0.5541(14) 0.1587(5) -0.0322(5)
C4A C -0.5491(11) 0.2710(5) -0.0325(4)
N3A N -0.636(4) 0.1003(14) -0.0525(13)
O4A O 0.6868(7) 0.2104(3) 0.6759(3)
O5A O 0.9040(7) 0.1808(3) 0.6246(3)
C5A C 0.7432(11) 0.1895(4) 0.6233(4)
C6A C 0.6193(10) 0.1776(4) 0.5594(4)
C7A C 0.6788(12) 0.1731(5) 0.4961(4)
C8A C 0.4439(10) 0.1764(4) 0.5624(4)
H3A H 0.4066 0.1779 0.6048
N1A N 0.850(2) 0.1614(8) 0.4891(8)
O6E O 0.2289(8) 0.6668(3) 0.2861(3)
O7E O -0.0210(8) 0.6613(3) 0.2172(4)
C9E C 0.1069(13) 0.6348(4) 0.2509(4)
C10E C 0.1197(11) 0.5654(4) 0.2507(5)
C11E C 0.2372(12) 0.5336(5) 0.2983(5)
C12E C 0.0045(12) 0.5321(4) 0.2019(4)
N2E N 0.354(3) 0.5586(11) 0.3517(12)
La1A La -0.98845(6) 0.22323(2) -0.25543(2)
O1A O -1.1277(9) 0.1159(3) -0.2348(3)
H1A H -1.2054 0.1005 -0.2648
H2A H -1.0710 0.1162 -0.1947
La1A_2 La 1.01155(6) 0.22323(2) 0.74457(2)
La1B La 0.48845(6) 0.72323(2) 0.25543(2)
La1E La -0.01155(6) 0.77677(2) 0.25543(2)
La1F La -0.48845(6) 0.27677(2) -0.25543(2)
La1F_2 La 0.51155(6) 0.27677(2) 0.74457(2)
La1G La -0.51155(6) 0.27677(2) 0.25543(2)
La1G_2 La 0.48845(6) 0.27677(2) 0.25543(2)
O3F O -1.1985(7) 0.2401(3) -0.1733(3)
O3G O 0.1985(7) 0.2401(3) 0.1733(3)
O4A_2 O -1.3132(7) 0.2104(3) -0.3241(3)
O4F O -0.8132(7) 0.2896(3) -0.3241(3)
O4G O -0.1868(7) 0.2896(3) 0.3241(3)
O5A_2 O -1.0960(7) 0.1808(3) -0.3754(3)
O6F O -0.7289(8) 0.1668(3) -0.2861(3)
O6G O -0.2711(8) 0.1668(3) 0.2861(3)
O7A O -0.9790(8) 0.3387(3) -0.2172(4)
N5? N -0.121(6) 0.439(2) 0.159(2)
N6? N -0.398(6) 0.326(2) 0.057(2)
loop_
_geom_bond_atom_site_label_1
_geom_bond_atom_site_label_2
_geom_bond_site_symmetry_1
_geom_bond_site_symmetry_2
La1 O1 1_555 1_555
O1 H1 1_555 1_555
H2 O1 1_555 1_555
O2 La1 1_555 1_555
O3 La1 1_555 1_555
C1 O2 1_555 1_555
C2 C1 1_555 1_555
C3 C2 1_555 1_555
C4 C2 1_555 1_555
O4 La1 1_555 1_555
O5 La1 1_555 1_555
C5 O4 1_555 1_555
C6 C5 1_555 1_555
C7 C6 1_555 1_555
C8 C6 1_555 1_555
H3 C8 1_555 1_555
O6 C9 1_555 1_555
O7 La1 1_555 1_555
C9 O7 1_555 1_555
C10 C9 1_555 1_555
C11 C10 1_555 1_555
C12 C10 1_555 1_555
N1 C7 1_555 1_555
N2 C11 1_555 1_555
N3 C3 1_555 1_555
O8 H4 1_555 1_555
O9 H5 1_555 1_555
O10 H6 1_555 1_555
H7 O10 1_555 1_555
O11 C13 1_555 1_555
N4 C13 1_555 1_555
C14 N4 1_555 1_555
C15 N4 1_555 1_555
O2A C1A 1_555 1_555
O3A C1A 1_555 1_555
C1A C2A 1_555 1_555
C2A C3A 1_555 1_555
C3A C3 1_555 1_555
C4A C4 1_555 1_555
N3A C3A 1_555 1_555
O4A C5A 1_555 1_555
O5A C5A 1_555 1_555
C5A C6A 1_555 1_555
C6A C7A 1_555 1_555
C7A C8 1_555 1_555
C8A C7 1_555 1_555
H3A C8A 1_555 1_555
N1A C7A 1_555 1_555
O6E C9E 1_555 1_555
O7E C9E 1_555 1_555
C9E C10E 1_555 1_555
C10E C11E 1_555 1_555
C11E C11 1_555 1_555
C12E C12 1_555 1_555
N2E C11E 1_555 1_555
La1A O2A 1_555 1_555
O1A La1A 1_555 1_555
H1A O1A 1_555 1_555
H2A O1A 1_555 1_555
La1A_2 O4A 1_555 1_555
La1B O6E 1_555 1_555
La1E O7E 1_555 1_555
La1F O3A 1_555 1_555
La1F_2 O4A 1_555 1_555
La1G O3 1_555 1_555
La1G_2 O4 1_555 1_555
O3F La1A 1_555 1_555
O3G La1 1_555 1_555
O4A_2 La1A 1_555 1_555
O4F La1A 1_555 1_555
O4G La1 1_555 1_555
O5A_2 La1A 1_555 1_555
O6F La1A 1_555 1_555
O6G La1 1_555 1_555
O7A La1A 1_555 1_555
H4E O8 1_555 1_555
H5E O9 1_555 1_555
O11A C13A 1_555 1_555
N4A C13A 1_555 1_555
C14A N4A 1_555 1_555
C15A N4A 1_555 1_555
O3 C1 1_555 1_555
O5 C5 1_555 1_555
O6 La1G_2 1_555 1_555
O3A La1A 1_555 1_555
C2A C4A 1_555 1_555
O5A La1A_2 1_555 1_555
C6A C8A 1_555 1_555
C10E C12E 1_555 1_555
La1F O4F 1_555 1_555
La1G O4G 1_555 1_555
La1G_2 O3G 1_555 1_555

#END
