
#######################################################################
#
#                 Cambridge Crystallographic Data Centre
#                                CCDC 
#
#######################################################################
#
# If this CIF has been generated from an entry in the Cambridge 
# Structural Database, then it will include bibliographic, chemical, 
# crystal, experimental, refinement or atomic coordinate data resulting 
# from the CCDC's data processing and validation procedures.
#
#######################################################################

data_SOSJOA
_symmetry_cell_setting           triclinic
_symmetry_space_group_name_H-M   'P -1'
_symmetry_Int_Tables_number      2
_space_group_name_Hall           '-P 1'
loop_
_symmetry_equiv_pos_site_id
_symmetry_equiv_pos_as_xyz
1 x,y,z
2 -x,-y,-z
_cell_length_a                   11.622(2)
_cell_length_b                   11.817(2)
_cell_length_c                   12.037(2)
_cell_angle_alpha                110.76(3)
_cell_angle_beta                 105.50(3)
_cell_angle_gamma                106.24(3)
_cell_volume                     1354.91
loop_
_atom_site_label
_atom_site_type_symbol
_atom_site_fract_x
_atom_site_fract_y
_atom_site_fract_z
Ag1 Ag 0.66295(4) 0.03696(4) 0.14790(4)
Ag2 Ag 0.45629(4) 0.22039(4) 0.23673(4)
Ag3 Ag 0.64017(3) 0.57959(4) 0.50002(4)
Ag4 Ag 1.00143(4) 0.30960(4) 0.24249(4)
Ag5 Ag 0.81822(3) 0.39507(3) 0.40533(3)
S1 S 0.64316(12) 0.24982(11) 0.04545(11)
S2 S 0.59486(9) 0.32410(10) 0.56910(10)
S3 S 1.03351(10) 0.24113(10) 0.47788(10)
O1 O 0.2682(4) 0.0185(5) 0.1796(4)
H1 H 0.239(7) -0.045(5) 0.104(3)
H2 H 0.219(6) 0.060(7) 0.181(7)
O2 O 0.5153(4) 0.1672(4) 0.0313(4)
O3 O 0.7472(4) 0.2615(4) 0.1538(4)
O4 O 0.6621(6) 0.2090(4) -0.0737(4)
O5 O 0.6166(3) 0.4317(3) 0.2828(3)
O6 O 0.6926(3) 0.4174(3) 0.5523(4)
O7 O 0.4622(3) 0.2781(3) 0.4710(3)
O8 O 0.6026(4) 0.3718(4) 0.6995(3)
O9 O 0.6168(3) 0.1446(3) 0.3238(3)
O10 O 0.9106(3) 0.2198(3) 0.3819(3)
O11 O 1.1422(3) 0.3569(3) 0.5004(3)
O12 O 1.0606(4) 0.1247(4) 0.4503(4)
O13 O 0.9899(3) 0.4797(3) 0.6365(3)
O14 O 0.1364(4) 0.3357(4) 0.1057(4)
O15 O 0.2045(4) 0.2706(4) 0.2468(3)
O16 O 0.3115(4) 0.3014(4) 0.1302(4)
O17 O 0.8625(5) 0.0632(4) 0.0900(4)
O18 O 0.8142(4) -0.0819(4) 0.1590(4)
O19 O 0.9897(4) -0.0359(4) 0.1231(5)
N1 N 0.6715(4) 0.5896(4) 0.0410(4)
H3 H 0.6853 0.6246 -0.0085
N2 N 0.6872(4) 0.0402(4) 0.6146(4)
H4 H 0.6993 0.0156 0.6744
N3 N 0.9990(4) 0.2258(4) 0.7917(4)
H5 H 1.0042 0.1744 0.8267
N4 N 0.2174(4) 0.3029(4) 0.1609(4)
N5 N 0.8893(4) -0.0185(4) 0.1238(4)
C1 C 0.6688(5) 0.4680(5) 0.0126(5)
H6 H 0.6807 0.4223 -0.0611
C2 C 0.6488(4) 0.4105(4) 0.0900(4)
C3 C 0.6323(4) 0.4791(4) 0.2056(4)
C4 C 0.6349(4) 0.6077(5) 0.2286(5)
H7 H 0.6239 0.6576 0.3013
C5 C 0.6529(5) 0.6576(5) 0.1464(5)
H8 H 0.6525 0.7405 0.1627
C6 C 0.6524(4) 0.1431(4) 0.6303(4)
H9 H 0.6433 0.1874 0.7063
C7 C 0.6303(4) 0.1825(4) 0.5354(4)
C8 C 0.6403(4) 0.1140(4) 0.4158(4)
C9 C 0.6819(5) 0.0093(5) 0.4098(5)
H10 H 0.6945 -0.0365 0.3366
C10 C 0.7033(4) -0.0246(5) 0.5057(5)
H11 H 0.7295 -0.0936 0.4976
C11 C 1.0179(4) 0.2010(4) 0.6818(4)
H12 H 1.0348 0.1275 0.6437
C12 C 1.0128(4) 0.2823(4) 0.6251(4)
C13 C 0.9897(4) 0.3985(4) 0.6834(4)
C14 C 0.9658(5) 0.4152(5) 0.7971(4)
H13 H 0.9457 0.4857 0.8370
C15 C 0.9719(5) 0.3307(5) 0.8483(4)
H14 H 0.9572 0.3449 0.9233
Ag1A Ag 0.33705(4) -0.03696(4) -0.14790(4)
Ag3A Ag 0.35983(3) 0.42041(4) 0.49998(4)
Ag3A_2 Ag 1.35983(3) 0.42041(4) 0.49998(4)
Ag4A Ag 0.99857(4) 0.69040(4) 0.75751(4)
Ag4_2 Ag 0.00143(4) 0.30960(4) 0.24249(4)
Ag5A Ag 1.18178(3) 0.60493(3) 0.59467(3)
O2A O 0.4847(4) -0.1672(4) -0.0313(4)
O7A O 0.5378(3) 0.7219(3) 0.5290(3)
O11A O 0.8578(3) 0.6431(3) 0.4996(3)
O13A O 1.0101(3) 0.5203(3) 0.3635(3)
O14_2 O 1.1364(4) 0.3357(4) 0.1057(4)
O15A O 0.7955(4) 0.7294(4) 0.7532(3)
O15_2 O 1.2045(4) 0.2706(4) 0.2468(3)
loop_
_geom_bond_atom_site_label_1
_geom_bond_atom_site_label_2
_geom_bond_site_symmetry_1
_geom_bond_site_symmetry_2
Ag1 O2 1_555 1_555
Ag2 O1 1_555 1_555
Ag3 O5 1_555 1_555
Ag4 O3 1_555 1_555
Ag5 O3 1_555 1_555
S1 O2 1_555 1_555
S2 O6 1_555 1_555
S3 O10 1_555 1_555
O1 H1 1_555 1_555
H2 O1 1_555 1_555
O2 Ag2 1_555 1_555
O3 Ag1 1_555 1_555
O4 S1 1_555 1_555
O5 Ag2 1_555 1_555
O6 Ag3 1_555 1_555
O7 Ag2 1_555 1_555
O8 S2 1_555 1_555
O9 Ag1 1_555 1_555
O10 Ag1 1_555 1_555
O11 Ag4 1_555 1_555
O12 S3 1_555 1_555
O13 Ag5 1_555 1_555
O14 N4 1_555 1_555
O15 N4 1_555 1_555
O16 Ag2 1_555 1_555
O17 Ag1 1_555 1_555
O18 Ag1 1_555 1_555
O19 N5 1_555 1_555
N1 H3 1_555 1_555
N2 H4 1_555 1_555
N3 H5 1_555 1_555
N4 O16 1_555 1_555
N5 O17 1_555 1_555
C1 N1 1_555 1_555
H6 C1 1_555 1_555
C2 S1 1_555 1_555
C3 O5 1_555 1_555
C4 C3 1_555 1_555
H7 C4 1_555 1_555
C5 N1 1_555 1_555
H8 C5 1_555 1_555
C6 N2 1_555 1_555
H9 C6 1_555 1_555
C7 S2 1_555 1_555
C8 O9 1_555 1_555
C9 C8 1_555 1_555
H10 C9 1_555 1_555
C10 N2 1_555 1_555
H11 C10 1_555 1_555
C11 N3 1_555 1_555
H12 C11 1_555 1_555
C12 S3 1_555 1_555
C13 O13 1_555 1_555
C14 C13 1_555 1_555
H13 C14 1_555 1_555
C15 N3 1_555 1_555
H14 C15 1_555 1_555
Ag1A O2 1_555 1_555
Ag3A O7 1_555 1_555
Ag3A_2 O11 1_555 1_555
Ag4A O13 1_555 1_555
Ag4_2 O14 1_555 1_555
Ag5A O11 1_555 1_555
O2A Ag1 1_555 1_555
O7A Ag3 1_555 1_555
O11A Ag3 1_555 1_555
O13A Ag4 1_555 1_555
O14_2 Ag4 1_555 1_555
O15A Ag3 1_555 1_555
O15_2 Ag4 1_555 1_555
Ag2 O9 1_555 1_555
Ag4 O10 1_555 1_555
Ag4 O17 1_555 1_555
Ag5 O5 1_555 1_555
Ag5 O6 1_555 1_555
Ag5 O9 1_555 1_555
Ag5 O10 1_555 1_555
Ag5 O11A 1_555 1_555
Ag5 O13A 1_555 1_555
S1 O3 1_555 1_555
S2 O7 1_555 1_555
S3 O11 1_555 1_555
O13 Ag5A 1_555 1_555
O15 Ag3A 1_555 1_555
O15 Ag4_2 1_555 1_555
O18 N5 1_555 1_555
C1 C2 1_555 1_555
C2 C3 1_555 1_555
C4 C5 1_555 1_555
C6 C7 1_555 1_555
C7 C8 1_555 1_555
C9 C10 1_555 1_555
C11 C12 1_555 1_555
C12 C13 1_555 1_555
C14 C15 1_555 1_555
Ag1A O2A 1_555 1_555
Ag3A_2 O15_2 1_555 1_555
Ag4A O11A 1_555 1_555
Ag4A O15A 1_555 1_555
Ag5A O13A 1_555 1_555

#END
