
#######################################################################
#
#                 Cambridge Crystallographic Data Centre
#                                CCDC 
#
#######################################################################
#
# If this CIF has been generated from an entry in the Cambridge 
# Structural Database, then it will include bibliographic, chemical, 
# crystal, experimental, refinement or atomic coordinate data resulting 
# from the CCDC's data processing and validation procedures.
#
#######################################################################

data_SOSKOC
_symmetry_cell_setting           monoclinic
_symmetry_space_group_name_H-M   'P 21'
_symmetry_Int_Tables_number      4
_space_group_name_Hall           'P 2yb'
loop_
_symmetry_equiv_pos_site_id
_symmetry_equiv_pos_as_xyz
1 x,y,z
2 -x,1/2+y,-z
_cell_length_a                   8.036(3)
_cell_length_b                   11.099(4)
_cell_length_c                   8.962(3)
_cell_angle_alpha                90
_cell_angle_beta                 100.694(7)
_cell_angle_gamma                90
_cell_volume                     785.452
loop_
_atom_site_label
_atom_site_type_symbol
_atom_site_fract_x
_atom_site_fract_y
_atom_site_fract_z
Co1 Co 0.29635(8) 0.51166(6) 0.21498(7)
C1 C 0.6390(5) 0.5344(5) 0.6608(5)
C2 C 0.7184(6) 0.6187(5) 0.5843(5)
H1 H 0.6948 0.6207 0.4788
C3 C 0.6798(6) 0.5299(6) 0.8187(5)
H2 H 0.6305 0.4717 0.8713
C4 C 0.8331(6) 0.7005(5) 0.6636(5)
H3 H 0.8862 0.7563 0.6108
C5 C 0.7935(6) 0.6115(5) 0.8980(5)
H4 H 0.8197 0.6078 1.0034
C6 C 0.8688(6) 0.6990(5) 0.8215(5)
C7 C 0.9930(6) 0.7895(5) 0.9080(6)
H5 H 1.0957 0.7477 0.9543
H6 H 1.0229 0.8481 0.8370
C8 C 0.9627(7) 0.8358(5) 1.1746(6)
H7 H 1.0398 0.7801 1.2247
C9 C 0.8699(7) 0.9145(5) 1.2426(6)
H8 H 0.8710 0.9243 1.3458
C10 C 0.7729(6) 0.9769(5) 1.1220(5)
H9 H 0.6953 1.0370 1.1328
C11 C 0.5631(6) 0.3212(5) 0.2287(5)
H10 H 0.5376 0.3105 0.1241
C12 C 0.6906(6) 0.2598(5) 0.3267(6)
H11 H 0.7647 0.2023 0.3013
C13 C 0.6826(7) 0.3023(5) 0.4661(6)
H12 H 0.7513 0.2778 0.5561
C14 C 0.5045(6) 0.4512(5) 0.5766(5)
H13 H 0.4718 0.3942 0.6479
H14 H 0.4053 0.4983 0.5343
N1 N 0.4834(5) 0.3969(4) 0.3060(4)
N2 N 0.5606(5) 0.3850(4) 0.4546(4)
N3 N 0.8056(5) 0.9395(4) 0.9902(4)
N4 N 0.9248(5) 0.8517(4) 1.0243(4)
Cl1 Cl 0.41466(18) 0.68553(13) 0.15798(16)
Cl2 Cl 0.09056(15) 0.54090(11) 0.35022(14)
Co1A Co 0.70365(8) 1.01166(6) 0.78502(7)
N3A N 0.1944(5) 0.4395(4) 0.0098(4)
loop_
_geom_bond_atom_site_label_1
_geom_bond_atom_site_label_2
_geom_bond_site_symmetry_1
_geom_bond_site_symmetry_2
Co1 N1 1_555 1_555
C1 C2 1_555 1_555
C2 H1 1_555 1_555
C3 C1 1_555 1_555
H2 C3 1_555 1_555
C4 C2 1_555 1_555
H3 C4 1_555 1_555
C5 C3 1_555 1_555
H4 C5 1_555 1_555
C6 C4 1_555 1_555
C7 C6 1_555 1_555
H5 C7 1_555 1_555
H6 C7 1_555 1_555
C8 H7 1_555 1_555
C9 C8 1_555 1_555
H8 C9 1_555 1_555
C10 C9 1_555 1_555
H9 C10 1_555 1_555
C11 H10 1_555 1_555
C12 C11 1_555 1_555
H11 C12 1_555 1_555
C13 C12 1_555 1_555
H12 C13 1_555 1_555
C14 C1 1_555 1_555
H13 C14 1_555 1_555
H14 C14 1_555 1_555
N1 C11 1_555 1_555
N2 C13 1_555 1_555
N3 C10 1_555 1_555
N4 C7 1_555 1_555
Cl1 Co1 1_555 1_555
Cl2 Co1 1_555 1_555
Co1A N3 1_555 1_555
N3A Co1 1_555 1_555
C5 C6 1_555 1_555
C8 N4 1_555 1_555
C14 N2 1_555 1_555
N1 N2 1_555 1_555
N3 N4 1_555 1_555

#END
