
#######################################################################
#
#                 Cambridge Crystallographic Data Centre
#                                CCDC 
#
#######################################################################
#
# If this CIF has been generated from an entry in the Cambridge 
# Structural Database, then it will include bibliographic, chemical, 
# crystal, experimental, refinement or atomic coordinate data resulting 
# from the CCDC's data processing and validation procedures.
#
#######################################################################

data_SOSPUN01
_symmetry_cell_setting           orthorhombic
_symmetry_space_group_name_H-M   'P b c n'
_symmetry_Int_Tables_number      60
_space_group_name_Hall           '-P 2n 2ab'
loop_
_symmetry_equiv_pos_site_id
_symmetry_equiv_pos_as_xyz
1 x,y,z
2 1/2-x,1/2-y,1/2+z
3 -x,y,1/2-z
4 1/2+x,1/2-y,-z
5 -x,-y,-z
6 1/2+x,1/2+y,1/2-z
7 x,-y,1/2+z
8 1/2-x,1/2+y,z
_cell_length_a                   15.772(2)
_cell_length_b                   9.1710(14)
_cell_length_c                   9.6050(14)
_cell_angle_alpha                90
_cell_angle_beta                 90
_cell_angle_gamma                90
_cell_volume                     1389.32
loop_
_atom_site_label
_atom_site_type_symbol
_atom_site_fract_x
_atom_site_fract_y
_atom_site_fract_z
Fe1 Fe 0.5000 0.04736(6) -0.2500
O1 O 0.46857(13) 0.2030(2) -0.0982(2)
O2 O 0.52612(11) 0.1131(2) 0.0962(2)
O3 O 0.17431(12) 0.3629(3) 0.0028(2)
H1 H 0.1246 0.3799 -0.0162
O4 O 0.13676(12) 0.4544(2) 0.2093(2)
C1 C 0.47445(16) 0.1972(3) 0.0306(3)
C2 C 0.42064(17) 0.2944(3) 0.1177(3)
C3 C 0.33524(18) 0.3072(3) 0.0850(3)
H2 H 0.3139 0.2594 0.0071
C4 C 0.28113(17) 0.3906(3) 0.1674(3)
C5 C 0.31290(19) 0.4607(4) 0.2832(4)
H3 H 0.2769 0.5140 0.3405
C6 C 0.39900(19) 0.4516(4) 0.3143(4)
H4 H 0.4203 0.5023 0.3905
C7 C 0.45374(16) 0.3679(3) 0.2334(3)
C8 C 0.19004(18) 0.4046(4) 0.1300(3)
O1B O 0.53143(13) 0.2030(2) 0.5982(2)
O2B O 0.47388(11) 0.1131(2) 0.4038(2)
O3B O 0.82569(12) 0.3629(3) 0.4972(2)
H1B H 0.8754 0.3799 0.5162
O4B O 0.86324(12) 0.4544(2) 0.2907(2)
C1B C 0.52555(16) 0.1972(3) 0.4694(3)
C2B C 0.57936(17) 0.2944(3) 0.3823(3)
C3B C 0.66476(18) 0.3072(3) 0.4150(3)
H2B H 0.6861 0.2594 0.4929
C4B C 0.71887(17) 0.3906(3) 0.3326(3)
C5B C 0.68710(19) 0.4607(4) 0.2168(4)
H3B H 0.7231 0.5140 0.1595
C6B C 0.60100(19) 0.4516(4) 0.1857(4)
H4B H 0.5797 0.5023 0.1095
C7B C 0.54626(16) 0.3679(3) 0.2666(3)
C8B C 0.80996(18) 0.4046(4) 0.3700(3)
Fe1_2 Fe 0.5000 0.04736(6) 0.7500
Fe1A Fe 0.0000 0.45264(6) 0.2500
Fe1A_2 Fe 1.0000 0.45264(6) 0.2500
Fe1D Fe 0.5000 -0.04736(6) 0.2500
O1B_2 O 0.53143(13) 0.2030(2) -0.4018(2)
O2D O 0.47388(11) -0.1131(2) -0.0962(2)
O2F O 0.52612(11) -0.1131(2) -0.4038(2)
O4A O 0.36324(12) 0.0456(2) -0.2907(2)
O4C O 0.63676(12) 0.0456(2) -0.2093(2)
loop_
_geom_bond_atom_site_label_1
_geom_bond_atom_site_label_2
_geom_bond_site_symmetry_1
_geom_bond_site_symmetry_2
Fe1 O1 1_555 1_555
O1 C1 1_555 1_555
O2 C1 1_555 1_555
O3 H1 1_555 1_555
O4 C8 1_555 1_555
C1 C2 1_555 1_555
C2 C3 1_555 1_555
C3 H2 1_555 1_555
C4 C3 1_555 1_555
C5 C4 1_555 1_555
H3 C5 1_555 1_555
C6 C5 1_555 1_555
H4 C6 1_555 1_555
C7 C2 1_555 1_555
C8 O3 1_555 1_555
O1B C1B 1_555 1_555
O2B C1B 1_555 1_555
O3B H1B 1_555 1_555
O4B C8B 1_555 1_555
C1B C2B 1_555 1_555
C2B C3B 1_555 1_555
C3B H2B 1_555 1_555
C4B C3B 1_555 1_555
C5B C4B 1_555 1_555
H3B C5B 1_555 1_555
C6B C5B 1_555 1_555
H4B C6B 1_555 1_555
C7B C7 1_555 1_555
C8B O3B 1_555 1_555
Fe1_2 O1B 1_555 1_555
Fe1A O4 1_555 1_555
Fe1A_2 O4B 1_555 1_555
Fe1D O2 1_555 1_555
O1B_2 Fe1 1_555 1_555
O2D Fe1 1_555 1_555
O2F Fe1 1_555 1_555
O4A Fe1 1_555 1_555
O4C Fe1 1_555 1_555
C4 C8 1_555 1_555
C6 C7 1_555 1_555
O2B Fe1D 1_555 1_555
C2B C7B 1_555 1_555
C4B C8B 1_555 1_555
C6B C7B 1_555 1_555

#END
