
#######################################################################
#
#                 Cambridge Crystallographic Data Centre
#                                CCDC 
#
#######################################################################
#
# If this CIF has been generated from an entry in the Cambridge 
# Structural Database, then it will include bibliographic, chemical, 
# crystal, experimental, refinement or atomic coordinate data resulting 
# from the CCDC's data processing and validation procedures.
#
#######################################################################

data_SOSQEY01
_symmetry_cell_setting           orthorhombic
_symmetry_space_group_name_H-M   'P b c n'
_symmetry_Int_Tables_number      60
_space_group_name_Hall           '-P 2n 2ab'
loop_
_symmetry_equiv_pos_site_id
_symmetry_equiv_pos_as_xyz
1 x,y,z
2 1/2-x,1/2-y,1/2+z
3 -x,y,1/2-z
4 1/2+x,1/2-y,-z
5 -x,-y,-z
6 1/2+x,1/2+y,1/2-z
7 x,-y,1/2+z
8 1/2-x,1/2+y,z
_cell_length_a                   16.160(3)
_cell_length_b                   9.4550(19)
_cell_length_c                   8.9840(18)
_cell_angle_alpha                90
_cell_angle_beta                 90
_cell_angle_gamma                90
_cell_volume                     1372.69
loop_
_atom_site_label
_atom_site_type_symbol
_atom_site_fract_x
_atom_site_fract_y
_atom_site_fract_z
Cu1 Cu 0.5000 0.03507(3) -0.2500
O1 O 0.46425(8) 0.18424(13) -0.11100(13)
O2 O 0.52690(7) 0.10810(12) 0.09648(13)
O3 O 0.17842(8) 0.34056(14) -0.00802(14)
H1 H 0.1305 0.3640 -0.0344
O4 O 0.14767(8) 0.47055(13) 0.19437(17)
C1 C 0.47363(9) 0.18431(16) 0.02751(18)
C2 C 0.42090(10) 0.28387(17) 0.11587(18)
C3 C 0.33729(10) 0.29586(17) 0.0790(2)
H2 H 0.3152 0.2419 -0.0009
C4 C 0.28618(9) 0.38716(17) 0.15927(19)
C5 C 0.31899(12) 0.46867(18) 0.2742(2)
H3 H 0.2843 0.5311 0.3286
C6 C 0.40289(10) 0.45842(17) 0.3091(2)
H4 H 0.4252 0.5154 0.3864
C7 C 0.45463(10) 0.36543(18) 0.23192(18)
C8 C 0.19690(10) 0.40360(17) 0.11906(19)
O1B O 0.53575(8) 0.18424(13) 0.61100(13)
O2B O 0.47310(7) 0.10810(12) 0.40352(13)
O3B O 0.82158(8) 0.34056(14) 0.50802(14)
H1B H 0.8695 0.3640 0.5344
O4B O 0.85233(8) 0.47055(13) 0.30563(17)
C1B C 0.52637(9) 0.18431(16) 0.47249(18)
C2B C 0.57910(10) 0.28387(17) 0.38413(18)
C3B C 0.66271(10) 0.29586(17) 0.4210(2)
H2B H 0.6848 0.2419 0.5009
C4B C 0.71382(9) 0.38716(17) 0.34073(19)
C5B C 0.68101(12) 0.46867(18) 0.2258(2)
H3B H 0.7157 0.5311 0.1714
C6B C 0.59711(10) 0.45842(17) 0.1909(2)
H4B H 0.5748 0.5154 0.1136
C7B C 0.54537(10) 0.36543(18) 0.26808(18)
C8B C 0.80310(10) 0.40360(17) 0.38094(19)
Cu1_2 Cu 0.5000 0.03507(3) 0.7500
Cu1A Cu 0.0000 0.46493(3) 0.2500
Cu1A_2 Cu 1.0000 0.46493(3) 0.2500
Cu1D Cu 0.5000 -0.03507(3) 0.2500
O1B_2 O 0.53575(8) 0.18424(13) -0.38900(13)
O2D O 0.47310(7) -0.10810(12) -0.09648(13)
O2F O 0.52690(7) -0.10810(12) -0.40352(13)
O4A O 0.35233(8) 0.02945(13) -0.30563(17)
O4C O 0.64767(8) 0.02945(13) -0.19437(17)
loop_
_geom_bond_atom_site_label_1
_geom_bond_atom_site_label_2
_geom_bond_site_symmetry_1
_geom_bond_site_symmetry_2
Cu1 O1 1_555 1_555
O1 C1 1_555 1_555
O2 C1 1_555 1_555
O3 H1 1_555 1_555
O4 C8 1_555 1_555
C1 C2 1_555 1_555
C2 C3 1_555 1_555
C3 H2 1_555 1_555
C4 C3 1_555 1_555
C5 C4 1_555 1_555
H3 C5 1_555 1_555
C6 C5 1_555 1_555
H4 C6 1_555 1_555
C7 C2 1_555 1_555
C8 O3 1_555 1_555
O1B C1B 1_555 1_555
O2B C1B 1_555 1_555
O3B H1B 1_555 1_555
O4B C8B 1_555 1_555
C1B C2B 1_555 1_555
C2B C3B 1_555 1_555
C3B H2B 1_555 1_555
C4B C3B 1_555 1_555
C5B C4B 1_555 1_555
H3B C5B 1_555 1_555
C6B C5B 1_555 1_555
H4B C6B 1_555 1_555
C7B C7 1_555 1_555
C8B O3B 1_555 1_555
Cu1_2 O1B 1_555 1_555
Cu1A O4 1_555 1_555
Cu1A_2 O4B 1_555 1_555
Cu1D O2 1_555 1_555
O1B_2 Cu1 1_555 1_555
O2D Cu1 1_555 1_555
O2F Cu1 1_555 1_555
O4A Cu1 1_555 1_555
O4C Cu1 1_555 1_555
C4 C8 1_555 1_555
C6 C7 1_555 1_555
O2B Cu1D 1_555 1_555
C2B C7B 1_555 1_555
C4B C8B 1_555 1_555
C6B C7B 1_555 1_555

#END
