
#######################################################################
#
#                 Cambridge Crystallographic Data Centre
#                                CCDC 
#
#######################################################################
#
# If this CIF has been generated from an entry in the Cambridge 
# Structural Database, then it will include bibliographic, chemical, 
# crystal, experimental, refinement or atomic coordinate data resulting 
# from the CCDC's data processing and validation procedures.
#
#######################################################################

data_SOSQAU01
_symmetry_cell_setting           orthorhombic
_symmetry_space_group_name_H-M   'P b c n'
_symmetry_Int_Tables_number      60
_space_group_name_Hall           '-P 2n 2ab'
loop_
_symmetry_equiv_pos_site_id
_symmetry_equiv_pos_as_xyz
1 x,y,z
2 1/2-x,1/2-y,1/2+z
3 -x,y,1/2-z
4 1/2+x,1/2-y,-z
5 -x,-y,-z
6 1/2+x,1/2+y,1/2-z
7 x,-y,1/2+z
8 1/2-x,1/2+y,z
_cell_length_a                   15.680(3)
_cell_length_b                   9.1490(18)
_cell_length_c                   9.4150(19)
_cell_angle_alpha                90
_cell_angle_beta                 90
_cell_angle_gamma                90
_cell_volume                     1350.64
loop_
_atom_site_label
_atom_site_type_symbol
_atom_site_fract_x
_atom_site_fract_y
_atom_site_fract_z
Ni1 Ni 0.5000 0.04655(3) -0.2500
O1 O 0.46919(7) 0.20349(12) -0.10290(11)
O2 O 0.52446(7) 0.10795(11) 0.09620(11)
O3 O 0.17068(8) 0.36217(14) 0.00499(12)
H1 H 0.1204 0.3850 -0.0167
O4 O 0.13342(8) 0.45575(12) 0.21746(13)
C1 C 0.47361(10) 0.19380(16) 0.02934(16)
C2 C 0.41832(10) 0.29128(16) 0.11864(15)
C3 C 0.33191(10) 0.30347(16) 0.08620(15)
H2 H 0.3093 0.2544 0.0056
C4 C 0.27837(10) 0.38799(16) 0.17235(15)
C5 C 0.31214(10) 0.46098(17) 0.28982(17)
H3 H 0.2758 0.5168 0.3496
C6 C 0.39899(10) 0.45213(17) 0.31949(17)
H4 H 0.4218 0.5045 0.3979
C7 C 0.45296(10) 0.36707(16) 0.23507(14)
C8 C 0.18664(10) 0.40440(17) 0.13449(16)
O1B O 0.53081(7) 0.20349(12) 0.60290(11)
O2B O 0.47554(7) 0.10795(11) 0.40380(11)
O3B O 0.82932(8) 0.36217(14) 0.49501(12)
H1B H 0.8796 0.3850 0.5167
O4B O 0.86658(8) 0.45575(12) 0.28254(13)
C1B C 0.52639(10) 0.19380(16) 0.47066(16)
C2B C 0.58168(10) 0.29128(16) 0.38136(15)
C3B C 0.66809(10) 0.30347(16) 0.41380(15)
H2B H 0.6907 0.2544 0.4944
C4B C 0.72163(10) 0.38799(16) 0.32765(15)
C5B C 0.68786(10) 0.46098(17) 0.21018(17)
H3B H 0.7242 0.5168 0.1504
C6B C 0.60101(10) 0.45213(17) 0.18051(17)
H4B H 0.5782 0.5045 0.1021
C7B C 0.54704(10) 0.36707(16) 0.26493(14)
C8B C 0.81336(10) 0.40440(17) 0.36551(16)
Ni1_2 Ni 0.5000 0.04655(3) 0.7500
Ni1A Ni 0.0000 0.45345(3) 0.2500
Ni1A_2 Ni 1.0000 0.45345(3) 0.2500
Ni1D Ni 0.5000 -0.04655(3) 0.2500
O1B_2 O 0.53081(7) 0.20349(12) -0.39710(11)
O2D O 0.47554(7) -0.10795(11) -0.09620(11)
O2F O 0.52446(7) -0.10795(11) -0.40380(11)
O4A O 0.36658(8) 0.04425(12) -0.28254(13)
O4C O 0.63342(8) 0.04425(12) -0.21746(13)
loop_
_geom_bond_atom_site_label_1
_geom_bond_atom_site_label_2
_geom_bond_site_symmetry_1
_geom_bond_site_symmetry_2
Ni1 O1 1_555 1_555
O1 C1 1_555 1_555
O2 C1 1_555 1_555
O3 H1 1_555 1_555
O4 C8 1_555 1_555
C1 C2 1_555 1_555
C2 C3 1_555 1_555
C3 H2 1_555 1_555
C4 C3 1_555 1_555
C5 C4 1_555 1_555
H3 C5 1_555 1_555
C6 C5 1_555 1_555
H4 C6 1_555 1_555
C7 C2 1_555 1_555
C8 O3 1_555 1_555
O1B C1B 1_555 1_555
O2B C1B 1_555 1_555
O3B H1B 1_555 1_555
O4B C8B 1_555 1_555
C1B C2B 1_555 1_555
C2B C3B 1_555 1_555
C3B H2B 1_555 1_555
C4B C3B 1_555 1_555
C5B C4B 1_555 1_555
H3B C5B 1_555 1_555
C6B C5B 1_555 1_555
H4B C6B 1_555 1_555
C7B C7 1_555 1_555
C8B O3B 1_555 1_555
Ni1_2 O1B 1_555 1_555
Ni1A O4 1_555 1_555
Ni1A_2 O4B 1_555 1_555
Ni1D O2 1_555 1_555
O1B_2 Ni1 1_555 1_555
O2D Ni1 1_555 1_555
O2F Ni1 1_555 1_555
O4A Ni1 1_555 1_555
O4C Ni1 1_555 1_555
C4 C8 1_555 1_555
C6 C7 1_555 1_555
O2B Ni1D 1_555 1_555
C2B C7B 1_555 1_555
C4B C8B 1_555 1_555
C6B C7B 1_555 1_555

#END
