
#######################################################################
#
#                 Cambridge Crystallographic Data Centre
#                                CCDC 
#
#######################################################################
#
# If this CIF has been generated from an entry in the Cambridge 
# Structural Database, then it will include bibliographic, chemical, 
# crystal, experimental, refinement or atomic coordinate data resulting 
# from the CCDC's data processing and validation procedures.
#
#######################################################################

data_SOSQOI
_symmetry_cell_setting           monoclinic
_symmetry_space_group_name_H-M   'C 2/c'
_symmetry_Int_Tables_number      15
_space_group_name_Hall           '-C 2yn'
loop_
_symmetry_equiv_pos_site_id
_symmetry_equiv_pos_as_xyz
1 x,y,z
2 -x,y,1/2-z
3 1/2+x,1/2+y,z
4 1/2-x,1/2+y,1/2-z
5 -x,-y,-z
6 x,-y,1/2+z
7 1/2-x,1/2-y,-z
8 1/2+x,1/2-y,1/2+z
_cell_length_a                   20.617(4)
_cell_length_b                   9.0830(18)
_cell_length_c                   18.240(4)
_cell_angle_alpha                90
_cell_angle_beta                 94.95(3)
_cell_angle_gamma                90
_cell_volume                     3402.96
loop_
_atom_site_label
_atom_site_type_symbol
_atom_site_fract_x
_atom_site_fract_y
_atom_site_fract_z
Pb1 Pb 0.211988(7) 0.027730(18) 0.498574(8)
Pb2 Pb 0.143273(7) -0.262159(18) 0.350899(8)
O1 O 0.14201(16) 0.0021(4) 0.36133(18)
O2 O 0.19713(17) -0.0535(4) 0.26582(19)
O3 O 0.24415(17) 0.3078(4) 0.08304(18)
O4 O 0.20993(17) 0.5391(4) 0.09213(19)
O5 O 0.20168(16) 0.2841(4) 0.4534(2)
O6 O 0.16605(19) 0.5108(4) 0.4349(2)
O7 O -0.03205(18) 0.2742(4) 0.60658(18)
O8 O -0.11321(16) 0.1959(4) 0.52857(17)
O9 O 0.17273(19) 0.1695(4) 0.62701(18)
H1 H 0.1905 0.1218 0.6678
H2 H 0.1865 0.2647 0.6279
C1 C 0.1632(2) 0.0346(5) 0.3000(2)
C2 C 0.1474(2) 0.1842(4) 0.2670(2)
C3 C 0.1799(2) 0.2252(5) 0.2056(2)
H3 H 0.2102 0.1592 0.1869
C4 C 0.16843(19) 0.3604(5) 0.1720(2)
C5 C 0.2094(2) 0.4044(5) 0.1118(2)
C6 C 0.1229(2) 0.4564(5) 0.1983(2)
H4 H 0.1143 0.5489 0.1752
C7 C 0.0899(2) 0.4148(5) 0.2592(2)
H5 H 0.0586 0.4796 0.2767
C8 C 0.1023(2) 0.2798(5) 0.2946(2)
C9 C 0.0650(2) 0.2501(5) 0.3608(2)
C10 C 0.0876(2) 0.3116(4) 0.4293(2)
C11 C 0.1552(2) 0.3766(5) 0.4390(2)
C12 C 0.0492(2) 0.3051(5) 0.4888(2)
H6 H 0.0637 0.3507 0.5342
C13 C -0.0099(2) 0.2321(5) 0.4815(2)
C14 C -0.0533(2) 0.2331(5) 0.5424(2)
C15 C -0.0311(2) 0.1648(5) 0.4144(2)
H7 H -0.0714 0.1136 0.4095
C16 C 0.0068(2) 0.1732(5) 0.3553(2)
H8 H -0.0074 0.1254 0.3104
O10 O 0.06561(19) -0.1870(5) 0.2199(2)
H9 H 0.0283 -0.1893 0.1980
H10 H 0.0779 -0.2389 0.1877
Pb1C Pb 0.288012(7) 0.527730(18) 0.001426(8)
Pb1D Pb -0.211988(7) -0.027730(18) 0.501426(8)
Pb1F Pb 0.288012(7) 0.472270(18) 0.501426(8)
Pb2_2 Pb 0.143273(7) 0.737841(18) 0.350899(8)
Pb2C Pb 0.356727(7) 0.237841(18) 0.149101(8)
Pb2D Pb -0.143273(7) 0.262159(18) 0.649101(8)
O3C O 0.25585(17) -0.1922(4) 0.41696(18)
O4C O 0.29007(17) 0.0391(4) 0.40787(19)
O5F O 0.29832(16) 0.2159(4) 0.5466(2)
O6_2 O 0.16605(19) -0.4892(4) 0.4349(2)
O6F O 0.33395(19) -0.0108(4) 0.5651(2)
O7D O 0.03205(18) -0.2742(4) 0.39342(18)
O8D O 0.11321(16) -0.1959(4) 0.47143(17)
loop_
_geom_bond_atom_site_label_1
_geom_bond_atom_site_label_2
_geom_bond_site_symmetry_1
_geom_bond_site_symmetry_2
Pb1 O1 1_555 1_555
Pb2 O1 1_555 1_555
O1 C1 1_555 1_555
O2 Pb2 1_555 1_555
O3 C5 1_555 1_555
O4 C5 1_555 1_555
O5 Pb1 1_555 1_555
O6 C11 1_555 1_555
O7 C14 1_555 1_555
O8 C14 1_555 1_555
O9 Pb1 1_555 1_555
H1 O9 1_555 1_555
H2 O9 1_555 1_555
C1 O2 1_555 1_555
C2 C1 1_555 1_555
C3 C2 1_555 1_555
H3 C3 1_555 1_555
C4 C3 1_555 1_555
C5 C4 1_555 1_555
C6 C4 1_555 1_555
H4 C6 1_555 1_555
C7 C6 1_555 1_555
H5 C7 1_555 1_555
C8 C2 1_555 1_555
C9 C8 1_555 1_555
C10 C9 1_555 1_555
C11 O5 1_555 1_555
C12 C10 1_555 1_555
H6 C12 1_555 1_555
C13 C12 1_555 1_555
C14 C13 1_555 1_555
C15 C13 1_555 1_555
H7 C15 1_555 1_555
C16 C9 1_555 1_555
H8 C16 1_555 1_555
O10 Pb2 1_555 1_555
H9 O10 1_555 1_555
H10 O10 1_555 1_555
Pb1C O3 1_555 1_555
Pb1D O8 1_555 1_555
Pb1F O5 1_555 1_555
Pb2_2 O6 1_555 1_555
Pb2C O3 1_555 1_555
Pb2D O7 1_555 1_555
O3C Pb1 1_555 1_555
O4C Pb1 1_555 1_555
O5F Pb1 1_555 1_555
O6_2 Pb2 1_555 1_555
O6F Pb1 1_555 1_555
O7D Pb2 1_555 1_555
O8D Pb1 1_555 1_555
Pb2 O3C 1_555 1_555
Pb2 O8D 1_555 1_555
O4 Pb1C 1_555 1_555
O6 Pb1F 1_555 1_555
O8 Pb2D 1_555 1_555
C7 C8 1_555 1_555
C10 C11 1_555 1_555
C15 C16 1_555 1_555
Pb1F O5F 1_555 1_555

#END
