
#######################################################################
#
#                 Cambridge Crystallographic Data Centre
#                                CCDC 
#
#######################################################################
#
# If this CIF has been generated from an entry in the Cambridge 
# Structural Database, then it will include bibliographic, chemical, 
# crystal, experimental, refinement or atomic coordinate data resulting 
# from the CCDC's data processing and validation procedures.
#
#######################################################################

data_SOSSAW
_symmetry_cell_setting           monoclinic
_symmetry_space_group_name_H-M   'P 21/c'
_symmetry_Int_Tables_number      14
_space_group_name_Hall           '-P 2ybc'
loop_
_symmetry_equiv_pos_site_id
_symmetry_equiv_pos_as_xyz
1 x,y,z
2 -x,1/2+y,1/2-z
3 -x,-y,-z
4 x,1/2-y,1/2+z
_cell_length_a                   12.9164(17)
_cell_length_b                   10.2951(14)
_cell_length_c                   14.240(2)
_cell_angle_alpha                90
_cell_angle_beta                 113.820(3)
_cell_angle_gamma                90
_cell_volume                     1732.28
loop_
_atom_site_label
_atom_site_type_symbol
_atom_site_fract_x
_atom_site_fract_y
_atom_site_fract_z
Zn1 Zn 0.5000 0.5000 0.0000
O1 O 0.57978(14) 0.58570(15) -0.07974(13)
N1 N 0.66000(17) 0.38336(19) 0.04991(15)
C1 C 0.6390(3) 0.2500(3) 0.1826(3)
H1 H 0.5655 0.2940 0.1581
H2 H 0.6851 0.2773 0.2532
H3 H 0.6275 0.1558 0.1809
N2 N 1.0925(3) 0.1475(3) -0.1556(4)
C2 C 0.6984(2) 0.2849(3) 0.1150(2)
N3 N 0.57619(17) 0.85644(19) -0.37411(16)
C3 C 0.7959(3) 0.2142(3) 0.1221(3)
H4 H 0.8240 0.1460 0.1708
C4 C 0.8489(3) 0.2437(3) 0.0599(2)
H5 H 0.9141 0.1961 0.0654
C5 C 0.8079(2) 0.3449(2) -0.01344(19)
C6 C 0.7141(2) 0.4156(2) -0.01258(17)
C7 C 0.66818(19) 0.52622(19) -0.07949(17)
C8 C 0.72159(19) 0.5610(2) -0.14464(18)
C9 C 0.81457(19) 0.4884(2) -0.14444(17)
H6 H 0.8491 0.5148 -0.1890
C10 C 0.8578(2) 0.3812(2) -0.08275(19)
C11 C 0.9428(2) 0.2995(3) -0.1004(2)
C12 C 0.9298(3) 0.1660(3) -0.1143(3)
H7 H 0.8697 0.1232 -0.1046
C13 C 1.0045(4) 0.0950(4) -0.1421(4)
H8 H 0.9924 0.0041 -0.1522
C14 C 1.1054(3) 0.2756(4) -0.1410(3)
H9 H 1.1674 0.3155 -0.1494
C15 C 1.0344(2) 0.3545(3) -0.1144(2)
H10 H 1.0480 0.4453 -0.1058
C16 C 0.67316(19) 0.6647(2) -0.22195(19)
C17 C 0.6365(2) 0.7845(2) -0.1998(2)
H11 H 0.6441 0.8031 -0.1320
C18 C 0.5895(2) 0.8753(2) -0.2766(2)
H12 H 0.5652 0.9557 -0.2596
C19 C 0.6110(2) 0.7423(2) -0.39553(19)
H13 H 0.6023 0.7265 -0.4641
C20 C 0.6591(2) 0.6462(2) -0.32320(19)
H14 H 0.6827 0.5670 -0.3427
O1B O 0.42022(14) 0.41430(15) 0.07974(13)
N1B N 0.34000(17) 0.61664(19) -0.04991(15)
C1B C 0.3610(3) 0.7500(3) -0.1826(3)
H1B H 0.4345 0.7060 -0.1581
H2B H 0.3149 0.7227 -0.2532
H3B H 0.3725 0.8442 -0.1809
N2B N -0.0925(3) 0.8525(3) 0.1556(4)
C2B C 0.3016(2) 0.7151(3) -0.1150(2)
N3B N 0.42381(17) 0.14356(19) 0.37411(16)
C3B C 0.2041(3) 0.7858(3) -0.1221(3)
H4B H 0.1760 0.8540 -0.1708
C4B C 0.1511(3) 0.7563(3) -0.0599(2)
H5B H 0.0859 0.8039 -0.0654
C5B C 0.1921(2) 0.6551(2) 0.01344(19)
C6B C 0.2859(2) 0.5844(2) 0.01258(17)
C7B C 0.33182(19) 0.47378(19) 0.07949(17)
C8B C 0.27841(19) 0.4390(2) 0.14464(18)
C9B C 0.18543(19) 0.5116(2) 0.14444(17)
H6B H 0.1509 0.4852 0.1890
C10B C 0.1422(2) 0.6188(2) 0.08275(19)
C11B C 0.0572(2) 0.7005(3) 0.1004(2)
C12B C 0.0702(3) 0.8340(3) 0.1143(3)
H7B H 0.1303 0.8768 0.1046
C13B C -0.0045(4) 0.9050(4) 0.1421(4)
H8B H 0.0076 0.9959 0.1522
C14B C -0.1054(3) 0.7244(4) 0.1410(3)
H9B H -0.1674 0.6845 0.1494
C15B C -0.0344(2) 0.6455(3) 0.1144(2)
H10B H -0.0480 0.5547 0.1058
C16B C 0.32684(19) 0.3353(2) 0.22195(19)
C17B C 0.3635(2) 0.2155(2) 0.1998(2)
H11B H 0.3559 0.1969 0.1320
C18B C 0.4105(2) 0.1247(2) 0.2766(2)
H12B H 0.4348 0.0443 0.2596
C19B C 0.3890(2) 0.2577(2) 0.39553(19)
H13B H 0.3977 0.2735 0.4641
C20B C 0.3409(2) 0.3538(2) 0.32320(19)
H14B H 0.3173 0.4330 0.3427
Zn1A Zn 0.5000 0.0000 0.5000
Zn1A_2 Zn 0.5000 1.0000 -0.5000
N3A N 0.42381(17) 0.35644(19) -0.12589(16)
N3C N 0.57619(17) 0.64356(19) 0.12589(16)
O2 O 0.7306(11) 1.0180(13) -0.0454(12)
H15 H 0.7392 0.9419 -0.0222
C21 C 0.6223(16) 1.0632(16) -0.0603(17)
H16 H 0.5653 1.0196 -0.1200
H17 H 0.6183 1.1572 -0.0722
H18 H 0.6080 1.0443 0.0008
loop_
_geom_bond_atom_site_label_1
_geom_bond_atom_site_label_2
_geom_bond_site_symmetry_1
_geom_bond_site_symmetry_2
Zn1 O1 1_555 1_555
O1 C7 1_555 1_555
N1 Zn1 1_555 1_555
C1 H1 1_555 1_555
H2 C1 1_555 1_555
H3 C1 1_555 1_555
N2 C13 1_555 1_555
C2 N1 1_555 1_555
N3 C18 1_555 1_555
C3 C2 1_555 1_555
H4 C3 1_555 1_555
C4 C3 1_555 1_555
H5 C4 1_555 1_555
C5 C4 1_555 1_555
C6 N1 1_555 1_555
C7 C6 1_555 1_555
C8 C7 1_555 1_555
C9 C8 1_555 1_555
H6 C9 1_555 1_555
C10 C5 1_555 1_555
C11 C10 1_555 1_555
C12 C11 1_555 1_555
H7 C12 1_555 1_555
C13 C12 1_555 1_555
H8 C13 1_555 1_555
C14 N2 1_555 1_555
H9 C14 1_555 1_555
C15 C11 1_555 1_555
H10 C15 1_555 1_555
C16 C8 1_555 1_555
C17 C16 1_555 1_555
H11 C17 1_555 1_555
C18 C17 1_555 1_555
H12 C18 1_555 1_555
C19 N3 1_555 1_555
H13 C19 1_555 1_555
C20 C16 1_555 1_555
H14 C20 1_555 1_555
O2 H15 1_555 1_555
C21 O2 1_555 1_555
H16 C21 1_555 1_555
H17 C21 1_555 1_555
H18 C21 1_555 1_555
O1B Zn1 1_555 1_555
N1B Zn1 1_555 1_555
C1B H1B 1_555 1_555
H2B C1B 1_555 1_555
H3B C1B 1_555 1_555
N2B C13B 1_555 1_555
C2B N1B 1_555 1_555
N3B C18B 1_555 1_555
C3B C2B 1_555 1_555
H4B C3B 1_555 1_555
C4B C3B 1_555 1_555
H5B C4B 1_555 1_555
C5B C4B 1_555 1_555
C6B N1B 1_555 1_555
C7B O1B 1_555 1_555
C8B C7B 1_555 1_555
C9B C8B 1_555 1_555
H6B C9B 1_555 1_555
C10B C5B 1_555 1_555
C11B C10B 1_555 1_555
C12B C11B 1_555 1_555
H7B C12B 1_555 1_555
C13B C12B 1_555 1_555
H8B C13B 1_555 1_555
C14B N2B 1_555 1_555
H9B C14B 1_555 1_555
C15B C11B 1_555 1_555
H10B C15B 1_555 1_555
C16B C8B 1_555 1_555
C17B C16B 1_555 1_555
H11B C17B 1_555 1_555
C18B C17B 1_555 1_555
H12B C18B 1_555 1_555
C19B N3B 1_555 1_555
H13B C19B 1_555 1_555
C20B C16B 1_555 1_555
H14B C20B 1_555 1_555
Zn1A N3B 1_555 1_555
Zn1A_2 N3 1_555 1_555
N3A Zn1 1_555 1_555
N3C Zn1 1_555 1_555
C1 C2 1_555 1_555
C5 C6 1_555 1_555
C9 C10 1_555 1_555
C14 C15 1_555 1_555
C19 C20 1_555 1_555
C1B C2B 1_555 1_555
C5B C6B 1_555 1_555
C6B C7B 1_555 1_555
C9B C10B 1_555 1_555
C14B C15B 1_555 1_555
C19B C20B 1_555 1_555

#END
