
#######################################################################
#
#                 Cambridge Crystallographic Data Centre
#                                CCDC 
#
#######################################################################
#
# If this CIF has been generated from an entry in the Cambridge 
# Structural Database, then it will include bibliographic, chemical, 
# crystal, experimental, refinement or atomic coordinate data resulting 
# from the CCDC's data processing and validation procedures.
#
#######################################################################

data_SOSWED
_symmetry_cell_setting           triclinic
_symmetry_space_group_name_H-M   'P -1'
_symmetry_Int_Tables_number      2
_space_group_name_Hall           '-P 1'
loop_
_symmetry_equiv_pos_site_id
_symmetry_equiv_pos_as_xyz
1 x,y,z
2 -x,-y,-z
_cell_length_a                   15.907(5)
_cell_length_b                   16.115(4)
_cell_length_c                   16.716(6)
_cell_angle_alpha                88.156(11)
_cell_angle_beta                 86.836(13)
_cell_angle_gamma                89.967(10)
_cell_volume                     4276.25
loop_
_atom_site_label
_atom_site_type_symbol
_atom_site_fract_x
_atom_site_fract_y
_atom_site_fract_z
Fe1 Fe 0.51140(3) 0.27138(3) 0.20674(3)
Fe2 Fe 0.99336(3) 0.27943(3) 0.69718(3)
O1 O 0.5777(2) 0.3641(2) 0.2312(2)
O2 O 0.60517(19) 0.2373(2) 0.14183(18)
O3 O 1.08941(19) 0.31991(18) 0.63544(19)
O4 O 1.05439(17) 0.17800(17) 0.70839(17)
N1 N 0.4178(2) 0.3029(2) 0.2756(2)
N2 N 0.4429(2) 0.1772(2) 0.1827(2)
N3 N 0.55445(19) 0.2060(2) 0.29911(19)
N4 N 0.6047(2) 0.1065(2) 0.37426(19)
N5 N 0.8984(2) 0.1630(2) 0.5055(2)
N6 N 0.94517(19) 0.2387(2) 0.59810(19)
N7 N 0.9298(2) 0.3792(2) 0.6851(2)
N8 N 0.8993(2) 0.2399(2) 0.7636(2)
N9 N 0.0477(2) 0.3226(2) -0.2076(2)
N10 N 0.1183(2) 0.3258(2) -0.0977(2)
N11 N 0.4221(2) 0.3657(2) -0.0043(2)
N12 N 0.4691(2) 0.3368(2) 0.1137(2)
C1 C 0.6130(4) 0.4949(3) 0.2761(3)
C2 C 0.5518(3) 0.4268(3) 0.2723(3)
C3 C 0.4759(3) 0.4343(2) 0.3106(3)
C4 C 0.4129(2) 0.3733(2) 0.3150(2)
C5 C 0.3356(3) 0.3851(3) 0.3733(3)
C6 C 0.3595(2) 0.2367(3) 0.2880(2)
C7 C 0.3585(2) 0.1885(3) 0.2118(2)
C8 C 0.4080(4) 0.0447(4) 0.1242(4)
C9 C 0.4677(3) 0.1140(3) 0.1388(2)
C10 C 0.5495(3) 0.1078(3) 0.1041(2)
C11 C 0.6138(2) 0.1678(3) 0.1070(2)
C12 C 0.7016(3) 0.1563(4) 0.0669(3)
C13 C 0.5838(2) 0.1307(2) 0.2995(2)
C14 C 0.5600(2) 0.2355(2) 0.3745(2)
C15 C 0.5903(2) 0.1739(2) 0.4219(2)
C16 C 0.6421(2) 0.0272(2) 0.3990(2)
C17 C 0.7387(2) 0.0341(2) 0.4010(2)
C18 C 0.7665(2) 0.0997(2) 0.4573(2)
C19 C 0.8617(2) 0.0920(2) 0.4661(2)
C20 C 0.9158(2) 0.1666(2) 0.5823(2)
C21 C 0.9173(2) 0.2353(2) 0.4694(2)
C22 C 0.9501(2) 0.2853(2) 0.5252(2)
C23 C 1.1843(3) 0.4126(3) 0.5748(3)
C24 C 1.0978(2) 0.3951(2) 0.6096(2)
C25 C 1.0367(3) 0.4561(2) 0.6109(3)
C26 C 0.9528(3) 0.4457(2) 0.6444(2)
C27 C 0.8916(3) 0.5144(3) 0.6337(3)
C28 C 0.8425(2) 0.3698(3) 0.7143(2)
C29 C 0.8404(2) 0.3078(2) 0.7830(2)
C30 C 0.8199(3) 0.1465(4) 0.8600(3)
C31 C 0.8919(2) 0.1667(2) 0.8007(2)
C32 C 0.9541(3) 0.1041(2) 0.7880(2)
C33 C 1.0286(3) 0.1114(2) 0.7470(2)
C34 C 1.0899(3) 0.0406(3) 0.7441(3)
C35 C 0.0843(3) 0.2772(2) -0.1524(2)
C36 C 0.0551(3) 0.4020(2) -0.1859(3)
C37 C 0.0988(3) 0.4049(3) -0.1199(3)
C38 C 0.1644(2) 0.2984(3) -0.0288(2)
C39 C 0.2573(3) 0.2856(3) -0.0488(2)
C40 C 0.2974(3) 0.3586(3) -0.0870(3)
C41 C 0.3949(3) 0.3560(4) -0.0856(2)
C42 C 0.4522(2) 0.3075(3) 0.0436(2)
C43 C 0.4222(3) 0.4388(3) 0.0349(3)
C44 C 0.4501(2) 0.4195(2) 0.1096(2)
H1 H 0.6461 0.4857 0.3211
H2 H 0.5839 0.5461 0.2811
H3 H 0.6486 0.4969 0.2285
H4 H 0.4639 0.4848 0.3367
H5 H 0.2917 0.4113 0.3455
H6 H 0.3506 0.4189 0.4159
H7 H 0.3167 0.3326 0.3946
H8 H 0.3760 0.2012 0.3308
H9 H 0.3050 0.2582 0.3008
H10 H 0.3283 0.2186 0.1730
H11 H 0.3325 0.1360 0.2228
H12 H 0.4117 0.0028 0.1652
H13 H 0.4224 0.0218 0.0736
H14 H 0.3521 0.0656 0.1246
H15 H 0.5629 0.0587 0.0760
H16 H 0.7024 0.1776 0.0132
H17 H 0.7153 0.0989 0.0670
H18 H 0.7418 0.1853 0.0954
H19 H 0.5897 0.0972 0.2538
H20 H 0.5452 0.2898 0.3908
H21 H 0.5998 0.1767 0.4774
H22 H 0.6194 0.0113 0.4511
H23 H 0.6286 -0.0138 0.3622
H24 H 0.7602 -0.0181 0.4181
H25 H 0.7611 0.0478 0.3484
H26 H 0.7540 0.1533 0.4359
H27 H 0.7378 0.0917 0.5083
H28 H 0.8885 0.0878 0.4141
H29 H 0.8720 0.0429 0.4970
H30 H 0.9076 0.1220 0.6205
H31 H 0.9096 0.2501 0.4148
H32 H 0.9717 0.3399 0.5163
H33 H 1.2185 0.4310 0.6156
H34 H 1.1820 0.4545 0.5337
H35 H 1.2076 0.3634 0.5529
H36 H 1.0517 0.5090 0.5876
H37 H 0.8623 0.5064 0.5865
H38 H 0.9209 0.5659 0.6289
H39 H 0.8525 0.5150 0.6787
H40 H 0.8209 0.4215 0.7319
H41 H 0.8096 0.3504 0.6729
H42 H 0.7851 0.2860 0.7919
H43 H 0.8566 0.3339 0.8299
H44 H 0.8347 0.1605 0.9122
H45 H 0.8078 0.0888 0.8594
H46 H 0.7716 0.1773 0.8460
H47 H 0.9411 0.0508 0.8114
H48 H 1.0802 0.0079 0.6992
H49 H 1.0825 0.0072 0.7918
H50 H 1.1457 0.0617 0.7394
H51 H 0.0866 0.2183 -0.1511
H52 H 0.0327 0.4488 -0.2133
H53 H 0.1136 0.4536 -0.0934
H54 H 0.1583 0.3391 0.0110
H55 H 0.1409 0.2473 -0.0082
H56 H 0.2841 0.2724 -0.0006
H57 H 0.2638 0.2406 -0.0840
H58 H 0.2824 0.3625 -0.1412
H59 H 0.2776 0.4063 -0.0597
H60 H 0.4181 0.3998 -0.1193
H61 H 0.4145 0.3043 -0.1048
H62 H 0.4607 0.2514 0.0293
H63 H 0.4062 0.4920 0.0147
H64 H 0.4553 0.4573 0.1514
Fe2_2 Fe -0.00664(3) 0.27943(3) -0.30282(3)
N9_2 N 1.0477(2) 0.3226(2) 0.7924(2)
O5 O 0.6820(3) 0.4128(3) 0.0823(2)
C93 C 0.7729(6) 0.3889(6) 0.0813(5)
H105 H 0.7886 0.3782 0.1347
H106 H 0.8063 0.4329 0.0575
H107 H 0.7815 0.3403 0.0512
C45 C 1.0497(3) 0.1871(2) 0.1395(2)
C46 C 0.9922(3) 0.1845(3) 0.0792(3)
C47 C 1.0049(4) 0.1347(4) 0.0125(3)
C48 C 1.0779(5) 0.0858(3) 0.0038(3)
C49 C 1.1382(4) 0.0870(3) 0.0624(3)
C50 C 1.1225(3) 0.1373(2) 0.1277(3)
C51 C 1.0930(2) 0.3344(2) 0.1806(2)
C52 C 1.0576(2) 0.4013(2) 0.1397(2)
C53 C 1.1064(3) 0.4685(2) 0.1071(3)
C54 C 1.1896(3) 0.4711(2) 0.1161(2)
C55 C 1.2270(3) 0.4044(3) 0.1569(3)
C56 C 1.1792(2) 0.3378(2) 0.1882(2)
C57 C 1.0760(2) 0.2081(2) 0.2969(2)
C58 C 1.1174(2) 0.2540(2) 0.3536(2)
C59 C 1.1332(2) 0.2170(2) 0.4296(2)
C60 C 1.1168(3) 0.1369(3) 0.4470(2)
C61 C 1.0780(2) 0.0897(2) 0.3917(2)
C62 C 1.0596(3) 0.1245(2) 0.3185(2)
C63 C 0.9439(2) 0.2731(2) 0.2400(2)
C64 C 0.9205(2) 0.3492(2) 0.2744(2)
C65 C 0.8351(2) 0.3626(2) 0.3054(2)
C66 C 0.7734(3) 0.3049(3) 0.3006(3)
C67 C 0.7930(2) 0.2300(3) 0.2683(2)
C68 C 0.8780(2) 0.2164(2) 0.2378(2)
B1 B 1.0404(3) 0.2510(2) 0.2138(2)
H65 H 0.9428 0.2176 0.0838
H66 H 0.9642 0.1339 -0.0269
H67 H 1.0866 0.0520 -0.0415
H68 H 1.1880 0.0546 0.0575
H69 H 1.1634 0.1383 0.1670
H70 H 0.9986 0.4017 0.1335
H71 H 1.0801 0.5123 0.0785
H72 H 1.2224 0.5170 0.0954
H73 H 1.2860 0.4049 0.1632
H74 H 1.2063 0.2935 0.2154
H75 H 1.1345 0.3095 0.3410
H76 H 1.1561 0.2501 0.4691
H77 H 1.1315 0.1126 0.4968
H78 H 1.0641 0.0333 0.4043
H79 H 1.0348 0.0905 0.2809
H80 H 0.9612 0.3920 0.2772
H81 H 0.8216 0.4136 0.3300
H82 H 0.7173 0.3166 0.3195
H83 H 0.7514 0.1880 0.2660
H84 H 0.8902 0.1646 0.2141
C69 C 0.5960(2) 0.2875(2) 0.5939(2)
C70 C 0.5467(2) 0.3511(2) 0.5615(2)
C71 C 0.5816(3) 0.4107(3) 0.5060(3)
C72 C 0.6639(3) 0.4080(3) 0.4825(3)
C73 C 0.7133(3) 0.3461(3) 0.5156(3)
C74 C 0.6792(3) 0.2870(2) 0.5697(2)
C75 C 0.6030(2) 0.1303(2) 0.6551(2)
C76 C 0.5681(2) 0.0608(2) 0.6238(2)
C77 C 0.6109(3) -0.0148(2) 0.6160(2)
C78 C 0.6900(3) -0.0244(2) 0.6426(2)
C79 C 0.7296(2) 0.0437(2) 0.6747(2)
C80 C 0.6858(2) 0.1183(2) 0.6819(2)
C81 C 0.5780(2) 0.2588(2) 0.7505(2)
C82 C 0.5714(3) 0.2062(3) 0.8203(2)
C83 C 0.5910(3) 0.2340(3) 0.8949(3)
C84 C 0.6168(3) 0.3142(4) 0.9046(3)
C85 C 0.6225(3) 0.3664(3) 0.8396(3)
C86 C 0.6018(2) 0.3376(2) 0.7647(2)
C87 C 0.4546(2) 0.2144(2) 0.6541(2)
C88 C 0.3948(3) 0.2216(6) 0.7181(3)
C89 C 0.3071(3) 0.2203(6) 0.7075(4)
C90 C 0.2755(3) 0.2023(4) 0.6365(3)
C91 C 0.3334(2) 0.1926(2) 0.5720(3)
C92 C 0.4209(2) 0.1984(2) 0.5812(2)
B2 B 0.5561(2) 0.2210(2) 0.6636(2)
H85 H 0.4886 0.3540 0.5775
H86 H 0.5468 0.4531 0.4849
H87 H 0.6876 0.4474 0.4442
H88 H 0.7717 0.3444 0.5008
H89 H 0.7146 0.2450 0.5904
H90 H 0.5122 0.0644 0.6066
H91 H 0.5846 -0.0598 0.5919
H92 H 0.7178 -0.0765 0.6393
H93 H 0.7855 0.0391 0.6915
H94 H 0.7125 0.1633 0.7058
H95 H 0.5531 0.1505 0.8159
H96 H 0.5865 0.1967 0.9401
H97 H 0.6303 0.3325 0.9558
H98 H 0.6405 0.4222 0.8444
H99 H 0.6045 0.3763 0.7206
H100 H 0.4138 0.2275 0.7705
H101 H 0.2693 0.2326 0.7515
H102 H 0.2167 0.1966 0.6310
H103 H 0.3137 0.1817 0.5208
H104 H 0.4582 0.1912 0.5356
loop_
_geom_bond_atom_site_label_1
_geom_bond_atom_site_label_2
_geom_bond_site_symmetry_1
_geom_bond_site_symmetry_2
Fe1 O1 1_555 1_555
Fe2 O3 1_555 1_555
O1 C2 1_555 1_555
O2 Fe1 1_555 1_555
O3 C24 1_555 1_555
O4 Fe2 1_555 1_555
O5 C93 1_555 1_555
N1 Fe1 1_555 1_555
N2 Fe1 1_555 1_555
N3 Fe1 1_555 1_555
N4 C13 1_555 1_555
N5 C19 1_555 1_555
N6 Fe2 1_555 1_555
N7 Fe2 1_555 1_555
N8 Fe2 1_555 1_555
N9 C35 1_555 1_555
N10 C35 1_555 1_555
N11 C41 1_555 1_555
N12 Fe1 1_555 1_555
C1 C2 1_555 1_555
C2 C3 1_555 1_555
C3 C4 1_555 1_555
C4 N1 1_555 1_555
C5 C4 1_555 1_555
C6 N1 1_555 1_555
C7 N2 1_555 1_555
C8 C9 1_555 1_555
C9 N2 1_555 1_555
C10 C9 1_555 1_555
C11 O2 1_555 1_555
C12 C11 1_555 1_555
C13 N3 1_555 1_555
C14 N3 1_555 1_555
C15 N4 1_555 1_555
C16 N4 1_555 1_555
C17 C16 1_555 1_555
C18 C17 1_555 1_555
C19 C18 1_555 1_555
C20 N5 1_555 1_555
C21 N5 1_555 1_555
C22 N6 1_555 1_555
C23 C24 1_555 1_555
C24 C25 1_555 1_555
C25 C26 1_555 1_555
C26 N7 1_555 1_555
C27 C26 1_555 1_555
C28 N7 1_555 1_555
C29 N8 1_555 1_555
C30 C31 1_555 1_555
C31 N8 1_555 1_555
C32 C31 1_555 1_555
C33 O4 1_555 1_555
C34 C33 1_555 1_555
C35 H51 1_555 1_555
C36 N9 1_555 1_555
C37 N10 1_555 1_555
C38 N10 1_555 1_555
C39 C38 1_555 1_555
C40 C39 1_555 1_555
C41 C40 1_555 1_555
C42 N11 1_555 1_555
C43 N11 1_555 1_555
C44 N12 1_555 1_555
C45 C46 1_555 1_555
C46 C47 1_555 1_555
C47 C48 1_555 1_555
C48 C49 1_555 1_555
C49 C50 1_555 1_555
C50 C45 1_555 1_555
C51 C52 1_555 1_555
C52 C53 1_555 1_555
C53 C54 1_555 1_555
C54 C55 1_555 1_555
C55 C56 1_555 1_555
C56 C51 1_555 1_555
C57 C58 1_555 1_555
C58 C59 1_555 1_555
C59 C60 1_555 1_555
C60 C61 1_555 1_555
C61 C62 1_555 1_555
C62 C57 1_555 1_555
C63 C64 1_555 1_555
C64 C65 1_555 1_555
C65 C66 1_555 1_555
C66 C67 1_555 1_555
C67 C68 1_555 1_555
C68 C63 1_555 1_555
C69 C70 1_555 1_555
C70 C71 1_555 1_555
C71 C72 1_555 1_555
C72 C73 1_555 1_555
C73 C74 1_555 1_555
C74 C69 1_555 1_555
C75 C76 1_555 1_555
C76 C77 1_555 1_555
C77 C78 1_555 1_555
C78 C79 1_555 1_555
C79 C80 1_555 1_555
C80 C75 1_555 1_555
C81 C82 1_555 1_555
C82 C83 1_555 1_555
C83 C84 1_555 1_555
C84 C85 1_555 1_555
C85 C86 1_555 1_555
C86 C81 1_555 1_555
C87 C88 1_555 1_555
C88 C89 1_555 1_555
C89 C90 1_555 1_555
C90 C91 1_555 1_555
C91 C92 1_555 1_555
C92 C87 1_555 1_555
C93 H105 1_555 1_555
B1 C45 1_555 1_555
B2 C69 1_555 1_555
H1 C1 1_555 1_555
H2 C1 1_555 1_555
H3 C1 1_555 1_555
H4 C3 1_555 1_555
H5 C5 1_555 1_555
H6 C5 1_555 1_555
H7 C5 1_555 1_555
H8 C6 1_555 1_555
H9 C6 1_555 1_555
H10 C7 1_555 1_555
H11 C7 1_555 1_555
H12 C8 1_555 1_555
H13 C8 1_555 1_555
H14 C8 1_555 1_555
H15 C10 1_555 1_555
H16 C12 1_555 1_555
H17 C12 1_555 1_555
H18 C12 1_555 1_555
H19 C13 1_555 1_555
H20 C14 1_555 1_555
H21 C15 1_555 1_555
H22 C16 1_555 1_555
H23 C16 1_555 1_555
H24 C17 1_555 1_555
H25 C17 1_555 1_555
H26 C18 1_555 1_555
H27 C18 1_555 1_555
H28 C19 1_555 1_555
H29 C19 1_555 1_555
H30 C20 1_555 1_555
H31 C21 1_555 1_555
H32 C22 1_555 1_555
H33 C23 1_555 1_555
H34 C23 1_555 1_555
H35 C23 1_555 1_555
H36 C25 1_555 1_555
H37 C27 1_555 1_555
H38 C27 1_555 1_555
H39 C27 1_555 1_555
H40 C28 1_555 1_555
H41 C28 1_555 1_555
H42 C29 1_555 1_555
H43 C29 1_555 1_555
H44 C30 1_555 1_555
H45 C30 1_555 1_555
H46 C30 1_555 1_555
H47 C32 1_555 1_555
H48 C34 1_555 1_555
H49 C34 1_555 1_555
H50 C34 1_555 1_555
H52 C36 1_555 1_555
H53 C37 1_555 1_555
H54 C38 1_555 1_555
H55 C38 1_555 1_555
H56 C39 1_555 1_555
H57 C39 1_555 1_555
H58 C40 1_555 1_555
H59 C40 1_555 1_555
H60 C41 1_555 1_555
H61 C41 1_555 1_555
H62 C42 1_555 1_555
H63 C43 1_555 1_555
H64 C44 1_555 1_555
H65 C46 1_555 1_555
H66 C47 1_555 1_555
H67 C48 1_555 1_555
H68 C49 1_555 1_555
H69 C50 1_555 1_555
H70 C52 1_555 1_555
H71 C53 1_555 1_555
H72 C54 1_555 1_555
H73 C55 1_555 1_555
H74 C56 1_555 1_555
H75 C58 1_555 1_555
H76 C59 1_555 1_555
H77 C60 1_555 1_555
H78 C61 1_555 1_555
H79 C62 1_555 1_555
H80 C64 1_555 1_555
H81 C65 1_555 1_555
H82 C66 1_555 1_555
H83 C67 1_555 1_555
H84 C68 1_555 1_555
H85 C70 1_555 1_555
H86 C71 1_555 1_555
H87 C72 1_555 1_555
H88 C73 1_555 1_555
H89 C74 1_555 1_555
H90 C76 1_555 1_555
H91 C77 1_555 1_555
H92 C78 1_555 1_555
H93 C79 1_555 1_555
H94 C80 1_555 1_555
H95 C82 1_555 1_555
H96 C83 1_555 1_555
H97 C84 1_555 1_555
H98 C85 1_555 1_555
H99 C86 1_555 1_555
H100 C88 1_555 1_555
H101 C89 1_555 1_555
H102 C90 1_555 1_555
H103 C91 1_555 1_555
H104 C92 1_555 1_555
H106 C93 1_555 1_555
H107 C93 1_555 1_555
Fe2_2 N9 1_555 1_555
N9_2 Fe2 1_555 1_555
N6 C20 1_555 1_555
N12 C42 1_555 1_555
C6 C7 1_555 1_555
C10 C11 1_555 1_555
C14 C15 1_555 1_555
C21 C22 1_555 1_555
C28 C29 1_555 1_555
C32 C33 1_555 1_555
C36 C37 1_555 1_555
C43 C44 1_555 1_555
C51 B1 1_555 1_555
C57 B1 1_555 1_555
C63 B1 1_555 1_555
C75 B2 1_555 1_555
C81 B2 1_555 1_555
C87 B2 1_555 1_555

#END
