
#######################################################################
#
#                 Cambridge Crystallographic Data Centre
#                                CCDC 
#
#######################################################################
#
# If this CIF has been generated from an entry in the Cambridge 
# Structural Database, then it will include bibliographic, chemical, 
# crystal, experimental, refinement or atomic coordinate data resulting 
# from the CCDC's data processing and validation procedures.
#
#######################################################################

data_SOSWAZ
_symmetry_cell_setting           monoclinic
_symmetry_space_group_name_H-M   'P 21'
_symmetry_Int_Tables_number      4
_space_group_name_Hall           'P 2yb'
loop_
_symmetry_equiv_pos_site_id
_symmetry_equiv_pos_as_xyz
1 x,y,z
2 -x,1/2+y,-z
_cell_length_a                   7.0901(15)
_cell_length_b                   7.1418(15)
_cell_length_c                   11.224(2)
_cell_angle_alpha                90
_cell_angle_beta                 90.145(3)
_cell_angle_gamma                90
_cell_volume                     568.337
loop_
_atom_site_label
_atom_site_type_symbol
_atom_site_fract_x
_atom_site_fract_y
_atom_site_fract_z
Cu1 Cu 0.29653(6) 0.25870(6) 1.01033(4)
N1 N 0.2448(4) 0.2368(5) 0.8308(3)
C1 C 0.3755(5) 0.2702(8) 0.5400(3)
H1 H 0.4623 0.1775 0.5596
O1 O -0.0991(4) 0.5863(4) 0.8845(3)
O2 O 0.1213(4) 0.4658(4) 1.0045(3)
C2 C 0.3167(5) 0.2895(6) 0.4228(3)
H2 H 0.3649 0.2103 0.3645
C3 C 0.0206(5) 0.4662(5) 0.9107(4)
C4 C 0.0446(5) 0.2979(5) 0.8275(3)
H3 H -0.0366 0.1963 0.8529
H4 H 0.0096 0.3325 0.7468
C5 C 0.5753(5) 0.3184(6) 0.7711(3)
H5 H 0.6082 0.3104 0.8540
H6 H 0.6516 0.4122 0.7334
H7 H 0.5969 0.1995 0.7336
C6 C 0.2787(5) 0.0369(5) 0.8025(3)
H8 H 0.3144 0.0237 0.7196
H9 H 0.1647 -0.0352 0.8158
C7 C 0.3670(5) 0.3711(5) 0.7589(3)
H10 H 0.3521 0.4955 0.7946
C8 C 0.1184(6) 0.5442(6) 0.4781(4)
H11 H 0.0313 0.6362 0.4576
C9 C 0.3066(5) 0.3874(5) 0.6289(3)
C10 C 0.1871(6) 0.4256(7) 0.3920(4)
H12 H 0.1464 0.4369 0.3134
C11 C 0.1785(5) 0.5275(6) 0.5955(4)
H13 H 0.1332 0.6103 0.6527
O3 O 0.5372(4) -0.1683(3) 0.8497(2)
O4 O 0.4543(4) 0.0418(4) 0.9842(2)
C12 C 0.4353(5) -0.0339(5) 0.8823(3)
Cu1A Cu -0.29653(6) 0.75870(6) 0.98967(4)
Cu1A_2 Cu 0.70347(6) -0.24130(6) 0.98967(4)
O1A O 0.0991(4) 0.0863(4) 1.1155(3)
O3A O 0.4628(4) 0.3317(3) 1.1503(2)
O4A O 0.5457(4) 0.5418(4) 1.0158(2)
loop_
_geom_bond_atom_site_label_1
_geom_bond_atom_site_label_2
_geom_bond_site_symmetry_1
_geom_bond_site_symmetry_2
Cu1 N1 1_555 1_555
N1 C4 1_555 1_555
C1 H1 1_555 1_555
O1 C3 1_555 1_555
O2 Cu1 1_555 1_555
C2 C1 1_555 1_555
H2 C2 1_555 1_555
C3 O2 1_555 1_555
C4 C3 1_555 1_555
H3 C4 1_555 1_555
H4 C4 1_555 1_555
C5 H5 1_555 1_555
H6 C5 1_555 1_555
H7 C5 1_555 1_555
C6 N1 1_555 1_555
H8 C6 1_555 1_555
H9 C6 1_555 1_555
C7 N1 1_555 1_555
H10 C7 1_555 1_555
C8 H11 1_555 1_555
C9 C1 1_555 1_555
C10 C2 1_555 1_555
H12 C10 1_555 1_555
C11 C8 1_555 1_555
H13 C11 1_555 1_555
O3 C12 1_555 1_555
O4 Cu1 1_555 1_555
C12 C6 1_555 1_555
Cu1A O1 1_555 1_555
Cu1A_2 O3 1_555 1_555
O1A Cu1 1_555 1_555
O3A Cu1 1_555 1_555
O4A Cu1 1_555 1_555
C5 C7 1_555 1_555
C7 C9 1_555 1_555
C8 C10 1_555 1_555
C9 C11 1_555 1_555
O4 C12 1_555 1_555
O4 Cu1A_2 1_555 1_555

#END
