
#######################################################################
#
#                 Cambridge Crystallographic Data Centre
#                                CCDC 
#
#######################################################################
#
# If this CIF has been generated from an entry in the Cambridge 
# Structural Database, then it will include bibliographic, chemical, 
# crystal, experimental, refinement or atomic coordinate data resulting 
# from the CCDC's data processing and validation procedures.
#
#######################################################################

data_SOSWED02
_symmetry_cell_setting           triclinic
_symmetry_space_group_name_H-M   'P -1'
_symmetry_Int_Tables_number      2
_space_group_name_Hall           '-P 1'
loop_
_symmetry_equiv_pos_site_id
_symmetry_equiv_pos_as_xyz
1 x,y,z
2 -x,-y,-z
_cell_length_a                   16.044(4)
_cell_length_b                   16.247(6)
_cell_length_c                   17.034(5)
_cell_angle_alpha                88.492(14)
_cell_angle_beta                 87.147(11)
_cell_angle_gamma                89.934(13)
_cell_volume                     4433.16
loop_
_atom_site_label
_atom_site_type_symbol
_atom_site_fract_x
_atom_site_fract_y
_atom_site_fract_z
Fe1 Fe 0.52070(3) 0.26622(3) 0.20472(3)
Fe2 Fe 0.99973(3) 0.27278(3) 0.69492(3)
O1 O 0.58003(15) 0.36381(18) 0.23178(15)
O2 O 0.60817(17) 0.2192(2) 0.13837(18)
O3 O 1.09055(15) 0.32383(16) 0.63319(15)
O4 O 1.05063(13) 0.16702(16) 0.71459(14)
N1 N 0.42148(16) 0.29997(18) 0.27529(17)
N2 N 0.44426(18) 0.1712(2) 0.18169(16)
N3 N 0.56475(17) 0.19941(19) 0.30163(17)
N4 N 0.61223(16) 0.09988(18) 0.37629(16)
N5 N 0.90313(17) 0.15689(18) 0.49701(16)
N6 N 0.95155(16) 0.23215(17) 0.58936(15)
N7 N 0.93002(18) 0.37566(18) 0.68324(19)
N8 N 0.89673(15) 0.23685(19) 0.76327(16)
N9 N 1.05395(19) 0.3183(2) 0.7958(2)
N10 N 1.1221(2) 0.3241(2) 0.90480(18)
N11 N 1.4248(2) 0.3598(3) 0.9922(2)
N12 N 1.47438(18) 0.3323(2) 1.10732(19)
C1 C 0.6137(3) 0.4952(3) 0.2734(3)
C2 C 0.5519(2) 0.4259(2) 0.2714(2)
C3 C 0.4761(2) 0.4291(2) 0.3102(2)
C4 C 0.4150(2) 0.3664(2) 0.3152(2)
C5 C 0.3418(3) 0.3792(3) 0.3749(3)
C6 C 0.3613(2) 0.2323(2) 0.2870(2)
C7 C 0.3592(2) 0.1845(2) 0.2144(2)
C8 C 0.3969(4) 0.0411(3) 0.1284(3)
C9 C 0.4638(3) 0.1064(2) 0.1413(2)
C10 C 0.5447(3) 0.0958(3) 0.1051(2)
C11 C 0.6098(3) 0.1487(4) 0.1053(2)
C12 C 0.6936(4) 0.1254(5) 0.0668(3)
C13 C 0.5937(2) 0.1238(2) 0.30435(19)
C14 C 0.5639(2) 0.2260(2) 0.3766(2)
C15 C 0.5943(2) 0.1653(2) 0.4232(2)
C16 C 0.6506(2) 0.0225(2) 0.3987(2)
C17 C 0.7443(2) 0.0276(2) 0.3992(2)
C18 C 0.7764(2) 0.0928(2) 0.4518(2)
C19 C 0.8704(2) 0.0868(2) 0.4577(2)
C20 C 0.9236(2) 0.1592(2) 0.5736(2)
C21 C 0.9199(2) 0.2316(2) 0.4648(2)
C22 C 0.9494(2) 0.2772(2) 0.5216(2)
C23 C 1.1825(3) 0.4216(3) 0.5720(4)
C24 C 1.0976(2) 0.3994(2) 0.6081(2)
C25 C 1.0350(3) 0.4551(2) 0.6122(2)
C26 C 0.9515(3) 0.4439(2) 0.6428(2)
C27 C 0.8922(3) 0.5113(3) 0.6322(3)
C28 C 0.8419(2) 0.3635(2) 0.7111(2)
C29 C 0.8396(2) 0.3040(2) 0.7808(2)
C30 C 0.8167(2) 0.1516(3) 0.8613(3)
C31 C 0.8892(2) 0.1666(2) 0.8049(2)
C32 C 0.9481(2) 0.1033(2) 0.7972(2)
C33 C 1.0228(2) 0.1055(2) 0.7556(2)
C34 C 1.0816(3) 0.0344(2) 0.7587(3)
C35 C 1.0918(2) 0.2765(2) 0.8503(2)
C36 C 1.0628(3) 0.3973(3) 0.8158(3)
C37 C 1.1049(3) 0.4025(3) 0.8803(3)
C38 C 1.1681(2) 0.2977(3) 0.9741(2)
C39 C 1.2587(2) 0.2838(3) 0.9559(2)
C40 C 1.3053(2) 0.3485(4) 0.9149(2)
C41 C 1.3946(2) 0.3485(4) 0.9139(2)
C42 C 1.4553(2) 0.3015(3) 1.0427(2)
C43 C 1.4241(2) 0.4320(3) 1.0322(3)
C44 C 1.4559(2) 0.4149(2) 1.1013(2)
H1 H 0.6468 0.4875 0.3177
H2 H 0.5847 0.5461 0.2772
H3 H 0.6488 0.4959 0.2267
H4 H 0.4628 0.4784 0.3368
H5 H 0.2971 0.4054 0.3494
H6 H 0.3591 0.4128 0.4159
H7 H 0.3236 0.3274 0.3963
H8 H 0.3774 0.1974 0.3292
H9 H 0.3074 0.2542 0.2992
H10 H 0.3280 0.2138 0.1769
H11 H 0.3336 0.1327 0.2264
H12 H 0.3966 0.0009 0.1699
H13 H 0.4090 0.0154 0.0797
H14 H 0.3438 0.0668 0.1275
H15 H 0.5541 0.0462 0.0776
H16 H 0.6964 0.1447 0.0136
H17 H 0.6996 0.0672 0.0685
H18 H 0.7371 0.1497 0.0940
H19 H 0.6005 0.0900 0.2598
H20 H 0.5451 0.2784 0.3934
H21 H 0.6018 0.1678 0.4781
H22 H 0.6293 0.0065 0.4499
H23 H 0.6362 -0.0179 0.3624
H24 H 0.7647 -0.0243 0.4167
H25 H 0.7655 0.0391 0.3470
H26 H 0.7629 0.1455 0.4307
H27 H 0.7504 0.0858 0.5029
H28 H 0.8959 0.0847 0.4062
H29 H 0.8832 0.0379 0.4865
H30 H 0.9184 0.1143 0.6102
H31 H 0.9123 0.2489 0.4119
H32 H 0.9663 0.3331 0.5153
H33 H 1.2168 0.4410 0.6115
H34 H 1.1769 0.4636 0.5327
H35 H 1.2074 0.3744 0.5489
H36 H 1.0485 0.5087 0.5920
H37 H 0.8628 0.5032 0.5860
H38 H 0.9214 0.5621 0.6275
H39 H 0.8538 0.5123 0.6765
H40 H 0.8181 0.4146 0.7262
H41 H 0.8113 0.3413 0.6703
H42 H 0.7847 0.2831 0.7904
H43 H 0.8564 0.3315 0.8259
H44 H 0.8296 0.1704 0.9116
H45 H 0.8047 0.0944 0.8648
H46 H 0.7694 0.1806 0.8435
H47 H 0.9343 0.0528 0.8242
H48 H 1.0719 -0.0011 0.7167
H49 H 1.0727 0.0051 0.8074
H50 H 1.1374 0.0540 0.7540
H51 H 1.0972 0.2183 0.8509
H52 H 1.0414 0.4432 0.7875
H53 H 1.1202 0.4517 0.9048
H54 H 1.1625 0.3391 1.0123
H55 H 1.1441 0.2478 0.9950
H56 H 1.2841 0.2730 1.0043
H57 H 1.2633 0.2365 0.9244
H58 H 1.2902 0.3484 0.8617
H59 H 1.2875 0.3986 0.9381
H60 H 1.4152 0.3919 0.8798
H61 H 1.4144 0.2973 0.8949
H62 H 1.4614 0.2449 1.0309
H63 H 1.4045 0.4840 1.0142
H64 H 1.4646 0.4538 1.1407
Fe1_2 Fe 1.52070(3) 0.26622(3) 1.20472(3)
N12_2 N 0.47438(18) 0.3323(2) 0.10732(19)
O5 O 0.7117(9) 0.4037(5) 0.0756(3)
C93 C 0.772(2) 0.3761(19) 0.091(2)
H105 H 0.7737 0.3853 0.1458
H106 H 0.8198 0.3997 0.0644
H107 H 0.7710 0.3186 0.0825
C45 C 1.0540(2) 0.1880(2) 0.1396(2)
C46 C 0.9989(3) 0.1844(3) 0.0803(2)
C47 C 1.0118(4) 0.1324(4) 0.0179(3)
C48 C 1.0799(5) 0.0843(4) 0.0110(4)
C49 C 1.1366(4) 0.0869(3) 0.0657(3)
C50 C 1.1261(2) 0.1357(2) 0.1333(2)
C51 C 1.09579(19) 0.3346(2) 0.18185(19)
C52 C 1.0588(2) 0.3990(2) 0.1416(2)
C53 C 1.1032(2) 0.4672(2) 0.1109(2)
C54 C 1.1896(3) 0.4702(3) 0.1237(3)
C55 C 1.2264(2) 0.4082(3) 0.1591(2)
C56 C 1.1811(2) 0.3430(2) 0.1868(2)
C57 C 1.08234(18) 0.2115(2) 0.2953(2)
C58 C 1.1169(2) 0.2575(2) 0.3513(2)
C59 C 1.1395(2) 0.2245(2) 0.4233(2)
C60 C 1.1259(2) 0.1441(3) 0.4412(2)
C61 C 1.0930(2) 0.0953(2) 0.3871(2)
C62 C 1.0721(2) 0.1288(2) 0.3156(2)
C63 C 0.94609(18) 0.2709(2) 0.23956(19)
C64 C 0.9219(2) 0.3449(2) 0.2729(2)
C65 C 0.8413(2) 0.3604(3) 0.2996(2)
C66 C 0.7811(2) 0.3016(3) 0.2966(2)
C67 C 0.8025(2) 0.2285(3) 0.2653(2)
C68 C 0.8842(2) 0.2133(2) 0.2376(2)
B1 B 1.0457(2) 0.2504(2) 0.2148(2)
H65 H 0.9508 0.2186 0.0822
H66 H 0.9715 0.1305 -0.0210
H67 H 1.0877 0.0489 -0.0323
H68 H 1.1858 0.0547 0.0591
H69 H 1.1656 0.1339 0.1731
H70 H 1.0005 0.3965 0.1344
H71 H 1.0765 0.5100 0.0826
H72 H 1.2212 0.5173 0.1065
H73 H 1.2849 0.4094 0.1653
H74 H 1.2101 0.2992 0.2116
H75 H 1.1258 0.3145 0.3405
H76 H 1.1648 0.2586 0.4599
H77 H 1.1390 0.1219 0.4912
H78 H 1.0844 0.0383 0.3986
H79 H 1.0496 0.0936 0.2784
H80 H 0.9628 0.3865 0.2773
H81 H 0.8275 0.4127 0.3205
H82 H 0.7256 0.3117 0.3159
H83 H 0.7614 0.1868 0.2621
H84 H 0.8973 0.1609 0.2167
C69 C 0.5947(2) 0.2865(2) 0.59585(18)
C70 C 0.5485(2) 0.3518(2) 0.5669(2)
C71 C 0.5821(3) 0.4093(2) 0.5111(2)
C72 C 0.6641(3) 0.4039(3) 0.4869(3)
C73 C 0.7111(2) 0.3412(3) 0.5132(2)
C74 C 0.6770(2) 0.2846(2) 0.5656(2)
C75 C 0.6030(2) 0.1310(2) 0.6572(2)
C76 C 0.5656(2) 0.0624(2) 0.6238(2)
C77 C 0.6069(2) -0.0122(2) 0.6164(2)
C78 C 0.6873(2) -0.0215(2) 0.6400(2)
C79 C 0.7246(2) 0.0437(2) 0.6732(2)
C80 C 0.6831(2) 0.1172(2) 0.6809(2)
C81 C 0.5775(2) 0.2581(2) 0.7492(2)
C82 C 0.5762(3) 0.2076(3) 0.8192(2)
C83 C 0.5938(3) 0.2349(5) 0.8911(3)
C84 C 0.6162(3) 0.3147(6) 0.9003(4)
C85 C 0.6193(2) 0.3669(4) 0.8362(3)
C86 C 0.5998(2) 0.3396(2) 0.7608(2)
C87 C 0.4542(2) 0.2132(2) 0.6560(2)
C88 C 0.3981(2) 0.2159(4) 0.7185(3)
C89 C 0.3110(3) 0.2112(6) 0.7069(5)
C90 C 0.2798(3) 0.2010(3) 0.6380(4)
C91 C 0.3341(2) 0.1976(2) 0.5735(3)
C92 C 0.4197(2) 0.2037(2) 0.5850(2)
B2 B 0.5563(2) 0.2213(2) 0.6640(2)
H85 H 0.4921 0.3577 0.5855
H86 H 0.5479 0.4516 0.4905
H87 H 0.6881 0.4444 0.4514
H88 H 0.7679 0.3367 0.4953
H89 H 0.7116 0.2409 0.5827
H90 H 0.5107 0.0675 0.6060
H91 H 0.5794 -0.0574 0.5947
H92 H 0.7162 -0.0721 0.6334
H93 H 0.7796 0.0382 0.6909
H94 H 0.7111 0.1613 0.7040
H95 H 0.5623 0.1511 0.8151
H96 H 0.5902 0.1982 0.9355
H97 H 0.6295 0.3337 0.9504
H98 H 0.6348 0.4227 0.8422
H99 H 0.6019 0.3776 0.7174
H100 H 0.4171 0.2210 0.7701
H101 H 0.2734 0.2157 0.7514
H102 H 0.2213 0.1963 0.6330
H103 H 0.3143 0.1911 0.5224
H104 H 0.4568 0.2011 0.5399
loop_
_geom_bond_atom_site_label_1
_geom_bond_atom_site_label_2
_geom_bond_site_symmetry_1
_geom_bond_site_symmetry_2
Fe1 O1 1_555 1_555
Fe2 O3 1_555 1_555
O1 C2 1_555 1_555
O2 Fe1 1_555 1_555
O3 C24 1_555 1_555
O4 Fe2 1_555 1_555
O5 C93 1_555 1_555
N1 Fe1 1_555 1_555
N2 Fe1 1_555 1_555
N3 Fe1 1_555 1_555
N4 C13 1_555 1_555
N5 C19 1_555 1_555
N6 Fe2 1_555 1_555
N7 Fe2 1_555 1_555
N8 Fe2 1_555 1_555
N9 Fe2 1_555 1_555
N10 C35 1_555 1_555
N11 C41 1_555 1_555
N12 C42 1_555 1_555
C1 C2 1_555 1_555
C2 C3 1_555 1_555
C3 C4 1_555 1_555
C4 N1 1_555 1_555
C5 C4 1_555 1_555
C6 N1 1_555 1_555
C7 N2 1_555 1_555
C8 C9 1_555 1_555
C9 N2 1_555 1_555
C10 C9 1_555 1_555
C11 O2 1_555 1_555
C12 C11 1_555 1_555
C13 N3 1_555 1_555
C14 N3 1_555 1_555
C15 N4 1_555 1_555
C16 N4 1_555 1_555
C17 C16 1_555 1_555
C18 C17 1_555 1_555
C19 C18 1_555 1_555
C20 N5 1_555 1_555
C21 N5 1_555 1_555
C22 N6 1_555 1_555
C23 C24 1_555 1_555
C24 C25 1_555 1_555
C25 C26 1_555 1_555
C26 N7 1_555 1_555
C27 C26 1_555 1_555
C28 N7 1_555 1_555
C29 N8 1_555 1_555
C30 C31 1_555 1_555
C31 N8 1_555 1_555
C32 C31 1_555 1_555
C33 O4 1_555 1_555
C34 C33 1_555 1_555
C35 N9 1_555 1_555
C36 N9 1_555 1_555
C37 N10 1_555 1_555
C38 N10 1_555 1_555
C39 C38 1_555 1_555
C40 C39 1_555 1_555
C41 C40 1_555 1_555
C42 N11 1_555 1_555
C43 N11 1_555 1_555
C44 N12 1_555 1_555
C45 C46 1_555 1_555
C46 C47 1_555 1_555
C47 C48 1_555 1_555
C48 C49 1_555 1_555
C49 C50 1_555 1_555
C50 C45 1_555 1_555
C51 C52 1_555 1_555
C52 C53 1_555 1_555
C53 C54 1_555 1_555
C54 C55 1_555 1_555
C55 C56 1_555 1_555
C56 C51 1_555 1_555
C57 C58 1_555 1_555
C58 C59 1_555 1_555
C59 C60 1_555 1_555
C60 C61 1_555 1_555
C61 C62 1_555 1_555
C62 C57 1_555 1_555
C63 C64 1_555 1_555
C64 C65 1_555 1_555
C65 C66 1_555 1_555
C66 C67 1_555 1_555
C67 C68 1_555 1_555
C68 C63 1_555 1_555
C69 C70 1_555 1_555
C70 C71 1_555 1_555
C71 C72 1_555 1_555
C72 C73 1_555 1_555
C73 C74 1_555 1_555
C74 C69 1_555 1_555
C75 C76 1_555 1_555
C76 C77 1_555 1_555
C77 C78 1_555 1_555
C78 C79 1_555 1_555
C79 C80 1_555 1_555
C80 C75 1_555 1_555
C81 C82 1_555 1_555
C82 C83 1_555 1_555
C83 C84 1_555 1_555
C84 C85 1_555 1_555
C85 C86 1_555 1_555
C86 C81 1_555 1_555
C87 C88 1_555 1_555
C88 C89 1_555 1_555
C89 C90 1_555 1_555
C90 C91 1_555 1_555
C91 C92 1_555 1_555
C92 C87 1_555 1_555
C93 H105 1_555 1_555
B1 C45 1_555 1_555
B2 C69 1_555 1_555
H1 C1 1_555 1_555
H2 C1 1_555 1_555
H3 C1 1_555 1_555
H4 C3 1_555 1_555
H5 C5 1_555 1_555
H6 C5 1_555 1_555
H7 C5 1_555 1_555
H8 C6 1_555 1_555
H9 C6 1_555 1_555
H10 C7 1_555 1_555
H11 C7 1_555 1_555
H12 C8 1_555 1_555
H13 C8 1_555 1_555
H14 C8 1_555 1_555
H15 C10 1_555 1_555
H16 C12 1_555 1_555
H17 C12 1_555 1_555
H18 C12 1_555 1_555
H19 C13 1_555 1_555
H20 C14 1_555 1_555
H21 C15 1_555 1_555
H22 C16 1_555 1_555
H23 C16 1_555 1_555
H24 C17 1_555 1_555
H25 C17 1_555 1_555
H26 C18 1_555 1_555
H27 C18 1_555 1_555
H28 C19 1_555 1_555
H29 C19 1_555 1_555
H30 C20 1_555 1_555
H31 C21 1_555 1_555
H32 C22 1_555 1_555
H33 C23 1_555 1_555
H34 C23 1_555 1_555
H35 C23 1_555 1_555
H36 C25 1_555 1_555
H37 C27 1_555 1_555
H38 C27 1_555 1_555
H39 C27 1_555 1_555
H40 C28 1_555 1_555
H41 C28 1_555 1_555
H42 C29 1_555 1_555
H43 C29 1_555 1_555
H44 C30 1_555 1_555
H45 C30 1_555 1_555
H46 C30 1_555 1_555
H47 C32 1_555 1_555
H48 C34 1_555 1_555
H49 C34 1_555 1_555
H50 C34 1_555 1_555
H51 C35 1_555 1_555
H52 C36 1_555 1_555
H53 C37 1_555 1_555
H54 C38 1_555 1_555
H55 C38 1_555 1_555
H56 C39 1_555 1_555
H57 C39 1_555 1_555
H58 C40 1_555 1_555
H59 C40 1_555 1_555
H60 C41 1_555 1_555
H61 C41 1_555 1_555
H62 C42 1_555 1_555
H63 C43 1_555 1_555
H64 C44 1_555 1_555
H65 C46 1_555 1_555
H66 C47 1_555 1_555
H67 C48 1_555 1_555
H68 C49 1_555 1_555
H69 C50 1_555 1_555
H70 C52 1_555 1_555
H71 C53 1_555 1_555
H72 C54 1_555 1_555
H73 C55 1_555 1_555
H74 C56 1_555 1_555
H75 C58 1_555 1_555
H76 C59 1_555 1_555
H77 C60 1_555 1_555
H78 C61 1_555 1_555
H79 C62 1_555 1_555
H80 C64 1_555 1_555
H81 C65 1_555 1_555
H82 C66 1_555 1_555
H83 C67 1_555 1_555
H84 C68 1_555 1_555
H85 C70 1_555 1_555
H86 C71 1_555 1_555
H87 C72 1_555 1_555
H88 C73 1_555 1_555
H89 C74 1_555 1_555
H90 C76 1_555 1_555
H91 C77 1_555 1_555
H92 C78 1_555 1_555
H93 C79 1_555 1_555
H94 C80 1_555 1_555
H95 C82 1_555 1_555
H96 C83 1_555 1_555
H97 C84 1_555 1_555
H98 C85 1_555 1_555
H99 C86 1_555 1_555
H100 C88 1_555 1_555
H101 C89 1_555 1_555
H102 C90 1_555 1_555
H103 C91 1_555 1_555
H104 C92 1_555 1_555
H106 C93 1_555 1_555
H107 C93 1_555 1_555
Fe1_2 N12 1_555 1_555
N12_2 Fe1 1_555 1_555
N6 C20 1_555 1_555
C6 C7 1_555 1_555
C10 C11 1_555 1_555
C14 C15 1_555 1_555
C21 C22 1_555 1_555
C28 C29 1_555 1_555
C32 C33 1_555 1_555
C36 C37 1_555 1_555
C43 C44 1_555 1_555
C51 B1 1_555 1_555
C57 B1 1_555 1_555
C63 B1 1_555 1_555
C75 B2 1_555 1_555
C81 B2 1_555 1_555
C87 B2 1_555 1_555

#END
