
#######################################################################
#
#                 Cambridge Crystallographic Data Centre
#                                CCDC 
#
#######################################################################
#
# If this CIF has been generated from an entry in the Cambridge 
# Structural Database, then it will include bibliographic, chemical, 
# crystal, experimental, refinement or atomic coordinate data resulting 
# from the CCDC's data processing and validation procedures.
#
#######################################################################

data_SOSYOQ
_symmetry_cell_setting           triclinic
_symmetry_space_group_name_H-M   'P 1'
_symmetry_Int_Tables_number      1
_space_group_name_Hall           'P 1'
loop_
_symmetry_equiv_pos_site_id
_symmetry_equiv_pos_as_xyz
1 x,y,z
_cell_length_a                   10.815(5)
_cell_length_b                   11.302(5)
_cell_length_c                   12.496(6)
_cell_angle_alpha                97.223(6)
_cell_angle_beta                 108.296(7)
_cell_angle_gamma                104.348(6)
_cell_volume                     1370.13
loop_
_atom_site_label
_atom_site_type_symbol
_atom_site_fract_x
_atom_site_fract_y
_atom_site_fract_z
Mn1 Mn 0.1355(5) -0.0755(4) 0.9029(4)
Mo1 Mo -0.5122(3) -0.0789(3) 0.9030(2)
Mo2 Mo 0.0823(3) -0.0770(3) 1.1503(3)
Mo3 Mo 0.0465(3) 0.1947(3) 0.8594(3)
Mo4 Mo -0.4303(3) -0.0615(3) 0.6376(3)
Mo5 Mo -0.2836(3) 0.2085(3) 0.8808(3)
Mo6 Mo -0.1169(3) -0.0913(3) 0.6360(3)
Mo7 Mo -0.0656(3) -0.3351(3) 0.9257(3)
Mo8 Mo -0.3556(3) -0.3368(3) 0.6744(2)
Mo9 Mo -0.2492(3) -0.0514(3) 1.1576(3)
Mo10 Mo -0.0090(3) 0.2131(3) 1.1188(2)
Mo11 Mo -0.4014(3) -0.3327(3) 0.9507(3)
P1 P -0.1772(15) -0.0660(13) 0.9001(12)
O1 O -0.425(3) -0.037(2) 1.066(2)
O2 O -0.418(3) 0.098(2) 0.910(2)
O3 O -0.430(2) -0.3527(17) 0.7874(17)
O4 O 0.020(2) -0.257(2) 1.0918(19)
O5 O -0.235(3) -0.357(2) 0.967(2)
O6 O 0.075(3) 0.090(2) 1.155(2)
O7 O -0.111(3) 0.274(2) 0.8399(19)
O8 O -0.158(3) 0.269(3) 1.037(2)
O9 O 0.140(3) 0.312(2) 0.827(2)
O10 O -0.533(3) -0.248(2) 0.906(2)
O11 O 0.029(3) -0.112(2) 0.736(2)
O12 O 0.081(2) 0.2668(19) 1.0263(18)
O13 O -0.354(3) -0.243(2) 1.095(2)
O14 O -0.189(3) -0.361(3) 0.781(2)
O15 O -0.665(3) -0.055(2) 0.886(2)
O16 O -0.503(2) -0.474(2) 0.9503(19)
O17 O -0.093(2) -0.0993(19) 1.1747(17)
O18 O -0.230(3) -0.258(2) 0.596(2)
O19 O -0.295(2) -0.1090(18) 0.9504(16)
O20 O 0.076(3) -0.261(3) 0.892(3)
O21 O -0.063(2) -0.1199(18) 0.9470(17)
O22 O -0.341(2) 0.1026(18) 0.7318(19)
O23 O -0.508(2) -0.0937(18) 0.7557(18)
O24 O -0.060(3) 0.085(2) 0.716(2)
O25 O 0.182(2) -0.0662(19) 1.2897(18)
O26 O 0.060(3) 0.322(2) 1.239(2)
O27 O -0.052(3) -0.473(2) 0.931(3)
O28 O 0.162(4) 0.096(2) 0.912(2)
O29 O -0.293(2) -0.0483(19) 0.5740(18)
O30 O 0.197(3) -0.050(2) 1.074(2)
O31 O -0.163(2) 0.1052(18) 1.157(2)
O32 O -0.346(3) 0.331(2) 0.854(2)
O33 O -0.559(2) -0.0460(19) 0.5326(18)
O34 O -0.266(3) -0.035(2) 1.288(2)
O35 O -0.075(3) -0.079(2) 0.5183(19)
O36 O -0.462(3) -0.245(2) 0.604(2)
O37 O -0.242(2) -0.1195(16) 0.7687(16)
O38 O -0.435(2) -0.478(2) 0.5767(18)
O39 O -0.128(2) 0.0749(16) 0.9257(17)
Ag1 Ag 0.4421(4) -0.0403(3) 1.2239(3)
C1 C 0.439(4) -0.791(3) 1.128(3)
H1 H 0.4331 -0.8386 1.0591
C2 C 0.410(5) -0.479(4) 1.221(4)
C3 C 0.500(4) -0.375(3) 1.318(3)
H2 H 0.5593 -0.3904 1.3827
C4 C 0.434(4) -0.684(3) 1.136(3)
H3 H 0.4413 -0.6479 1.0737
C5 C 0.420(4) -0.605(3) 1.228(3)
C6 C 0.340(4) -0.449(3) 1.131(3)
H4 H 0.2921 -0.5070 1.0615
C7 C 0.439(4) -0.776(4) 1.318(3)
H5 H 0.4335 -0.8112 1.3806
C8 C 0.339(4) -0.325(3) 1.141(3)
H6 H 0.2708 -0.3087 1.0834
C9 C 0.429(3) -0.662(3) 1.326(3)
H7 H 0.4286 -0.6181 1.3936
C10 C 0.499(4) -0.262(4) 1.315(3)
H8 H 0.5535 -0.1998 1.3808
N1 N 0.454(3) -0.846(3) 1.236(3)
N2 N 0.424(3) -0.229(3) 1.225(3)
Ag2 Ag -0.7891(4) -0.0950(3) 0.5949(4)
C11 C -0.786(5) 0.656(4) 0.489(5)
H9 H -0.7829 0.6926 0.4272
C12 C -0.691(4) 0.193(4) 0.690(3)
H10 H -0.6504 0.1728 0.7604
C13 C -0.769(4) 0.530(3) 0.497(3)
H11 H -0.7508 0.4875 0.4378
C14 C -0.837(4) 0.125(4) 0.493(4)
H12 H -0.8942 0.0610 0.4284
C15 C -0.778(4) 0.471(4) 0.588(3)
C16 C -0.824(5) 0.260(4) 0.490(5)
H13 H -0.8563 0.2828 0.4197
C17 C -0.816(4) 0.669(3) 0.658(3)
H14 H -0.8327 0.7165 0.7146
C18 C -0.802(4) 0.539(3) 0.674(3)
H15 H -0.8093 0.5085 0.7382
C19 C -0.771(5) 0.342(4) 0.582(4)
C20 C -0.678(4) 0.317(4) 0.687(3)
H16 H -0.6148 0.3815 0.7480
N3 N -0.763(4) 0.098(3) 0.593(3)
N4 N -0.806(4) 0.711(3) 0.583(3)
Mn1_2 Mn -0.8645(5) -0.0755(4) 0.9029(4)
O1_2 O 0.575(3) -0.037(2) 1.066(2)
O15_2 O 0.335(3) -0.055(2) 0.886(2)
Ag1_2 Ag -0.5579(4) -0.0403(3) 1.2239(3)
Ag1_3 Ag 0.4421(4) -1.0403(3) 1.2239(3)
N1_2 N 0.454(3) 0.154(3) 1.236(3)
Ag2_2 Ag -0.7891(4) 0.9050(3) 0.5949(4)
N4_2 N -0.806(4) -0.289(3) 0.583(3)
C21 C -0.184(4) -0.609(4) 0.437(3)
C22 C -0.186(4) -0.493(3) 0.169(3)
H17 H -0.2254 -0.5326 0.0912
C23 C -0.168(4) -0.554(4) 0.557(3)
H18 H -0.1288 -0.4691 0.5902
C24 C -0.132(4) -0.317(4) 0.320(3)
H19 H -0.1121 -0.2316 0.3463
C25 C -0.148(5) -0.393(4) 0.391(3)
H20 H -0.1433 -0.3612 0.4650
C26 C -0.162(4) -0.557(4) 0.256(3)
H21 H -0.1364 -0.6284 0.2419
C27 C -0.189(5) -0.804(5) 0.489(4)
H22 H -0.1683 -0.8791 0.4793
C28 C -0.198(4) -0.733(4) 0.404(4)
H23 H -0.2123 -0.7682 0.3283
C29 C -0.220(4) -0.645(3) 0.616(3)
H24 H -0.2550 -0.6258 0.6728
C30 C -0.172(5) -0.528(4) 0.353(4)
N5 N -0.145(4) -0.365(3) 0.207(3)
N6 N -0.211(3) -0.762(3) 0.581(3)
loop_
_geom_bond_atom_site_label_1
_geom_bond_atom_site_label_2
_geom_bond_site_symmetry_1
_geom_bond_site_symmetry_2
Mn1 O11 1_555 1_555
Mo1 O1 1_555 1_555
Mo2 O4 1_555 1_555
Mo3 O7 1_555 1_555
Mo4 O22 1_555 1_555
Mo5 O2 1_555 1_555
Mo6 O11 1_555 1_555
Mo7 O4 1_555 1_555
Mo8 O3 1_555 1_555
Mo9 O1 1_555 1_555
Mo10 O6 1_555 1_555
Mo11 O3 1_555 1_555
P1 O19 1_555 1_555
O1 Ag1_2 1_555 1_555
O2 Mo1 1_555 1_555
O5 Mo7 1_555 1_555
O6 Mo2 1_555 1_555
O7 Mo5 1_555 1_555
O8 Mo5 1_555 1_555
O9 Mo3 1_555 1_555
O10 Mo1 1_555 1_555
O12 Mo3 1_555 1_555
O13 Mo9 1_555 1_555
O14 Mo7 1_555 1_555
O15 Mo1 1_555 1_555
O16 Mo11 1_555 1_555
O17 Mo2 1_555 1_555
O18 Mo6 1_555 1_555
O19 Mo1 1_555 1_555
O20 Mn1 1_555 1_555
O21 Mn1 1_555 1_555
O22 Mo5 1_555 1_555
O23 Mo1 1_555 1_555
O24 Mo3 1_555 1_555
O25 Mo2 1_555 1_555
O26 Mo10 1_555 1_555
O27 Mo7 1_555 1_555
O28 Mn1 1_555 1_555
O29 Mo4 1_555 1_555
O30 Mn1 1_555 1_555
O31 Mo9 1_555 1_555
O32 Mo5 1_555 1_555
O33 Mo4 1_555 1_555
O34 Mo9 1_555 1_555
O35 Mo6 1_555 1_555
O36 Mo4 1_555 1_555
O37 Mo4 1_555 1_555
O38 Mo8 1_555 1_555
O39 Mo3 1_555 1_555
Ag1 O30 1_555 1_555
C1 H1 1_555 1_555
C2 C3 1_555 1_555
C3 H2 1_555 1_555
C4 C1 1_555 1_555
H3 C4 1_555 1_555
C5 C2 1_555 1_555
C6 C2 1_555 1_555
H4 C6 1_555 1_555
C7 H5 1_555 1_555
C8 C6 1_555 1_555
H6 C8 1_555 1_555
C9 C5 1_555 1_555
H7 C9 1_555 1_555
C10 C3 1_555 1_555
H8 C10 1_555 1_555
N1 C1 1_555 1_555
N2 Ag1 1_555 1_555
Ag2 O33 1_555 1_555
C11 H9 1_555 1_555
C12 H10 1_555 1_555
C13 C11 1_555 1_555
H11 C13 1_555 1_555
C14 H12 1_555 1_555
C15 C13 1_555 1_555
C16 C14 1_555 1_555
H13 C16 1_555 1_555
C17 H14 1_555 1_555
C18 C15 1_555 1_555
H15 C18 1_555 1_555
C19 C15 1_555 1_555
C20 C12 1_555 1_555
H16 C20 1_555 1_555
N3 Ag2 1_555 1_555
N4 C11 1_555 1_555
C21 C23 1_555 1_555
C22 H17 1_555 1_555
C23 H18 1_555 1_555
C24 H19 1_555 1_555
C25 C24 1_555 1_555
H20 C25 1_555 1_555
C26 C22 1_555 1_555
H21 C26 1_555 1_555
C27 H22 1_555 1_555
C28 C21 1_555 1_555
H23 C28 1_555 1_555
C29 C23 1_555 1_555
H24 C29 1_555 1_555
C30 C21 1_555 1_555
N5 C22 1_555 1_555
N6 C27 1_555 1_555
Mn1_2 O15 1_555 1_555
O1_2 Ag1 1_555 1_555
O15_2 Mn1 1_555 1_555
Ag1_3 N1 1_555 1_555
N1_2 Ag1 1_555 1_555
Ag2_2 N4 1_555 1_555
N4_2 Ag2 1_555 1_555
Mo2 O21 1_555 1_555
Mo2 O30 1_555 1_555
Mo3 O28 1_555 1_555
Mo4 O23 1_555 1_555
Mo5 O39 1_555 1_555
Mo6 O24 1_555 1_555
Mo6 O29 1_555 1_555
Mo6 O37 1_555 1_555
Mo7 O20 1_555 1_555
Mo7 O21 1_555 1_555
Mo8 O14 1_555 1_555
Mo8 O18 1_555 1_555
Mo8 O36 1_555 1_555
Mo8 O37 1_555 1_555
Mo9 O17 1_555 1_555
Mo9 O19 1_555 1_555
Mo10 O8 1_555 1_555
Mo10 O12 1_555 1_555
Mo10 O31 1_555 1_555
Mo10 O39 1_555 1_555
Mo11 O5 1_555 1_555
Mo11 O10 1_555 1_555
Mo11 O13 1_555 1_555
Mo11 O19 1_555 1_555
P1 O21 1_555 1_555
P1 O37 1_555 1_555
P1 O39 1_555 1_555
C4 C5 1_555 1_555
C7 C9 1_555 1_555
C7 N1 1_555 1_555
C8 N2 1_555 1_555
C10 N2 1_555 1_555
C12 N3 1_555 1_555
C14 N3 1_555 1_555
C16 C19 1_555 1_555
C17 C18 1_555 1_555
C17 N4 1_555 1_555
C19 C20 1_555 1_555
C24 N5 1_555 1_555
C25 C30 1_555 1_555
C26 C30 1_555 1_555
C27 C28 1_555 1_555
C29 N6 1_555 1_555

#END
