
#######################################################################
#
#                 Cambridge Crystallographic Data Centre
#                                CCDC 
#
#######################################################################
#
# If this CIF has been generated from an entry in the Cambridge 
# Structural Database, then it will include bibliographic, chemical, 
# crystal, experimental, refinement or atomic coordinate data resulting 
# from the CCDC's data processing and validation procedures.
#
#######################################################################

data_SOSZEH
_symmetry_cell_setting           triclinic
_symmetry_space_group_name_H-M   'P -1'
_symmetry_Int_Tables_number      2
_space_group_name_Hall           '-P 1'
loop_
_symmetry_equiv_pos_site_id
_symmetry_equiv_pos_as_xyz
1 x,y,z
2 -x,-y,-z
_cell_length_a                   12.2473(14)
_cell_length_b                   12.9490(15)
_cell_length_c                   14.6604(17)
_cell_angle_alpha                98.2080(10)
_cell_angle_beta                 109.5870(10)
_cell_angle_gamma                113.3770(10)
_cell_volume                     1905.67
loop_
_atom_site_label
_atom_site_type_symbol
_atom_site_fract_x
_atom_site_fract_y
_atom_site_fract_z
O25 O -0.361(2) 0.5584(18) 0.6076(15)
W1 W -0.32118(7) -0.03451(6) 0.37089(5)
O1 O -0.3550(18) -0.1792(13) 0.4023(11)
O2 O -0.2949(16) -0.1001(12) 0.2634(10)
O3 O -0.2775(13) 0.0352(11) 0.5110(10)
O4 O -0.2175(15) 0.1150(12) 0.3706(9)
O5 O -0.4745(12) -0.0503(14) 0.3086(10)
O6 O -0.1454(19) -0.0879(16) 0.4184(14)
W2 W -0.27985(8) -0.27842(6) 0.42843(6)
W3 W -0.19330(8) -0.17391(6) 0.23912(5)
W4 W -0.13128(7) 0.13022(6) 0.63438(5)
W5 W -0.04047(7) 0.24719(6) 0.45019(5)
P1 P 0.0000 0.0000 0.5000
O7 O -0.0820(18) 0.0579(15) 0.4944(13)
O8 O -0.2301(13) -0.2213(14) 0.5689(10)
O9 O -0.4116(13) -0.4101(11) 0.3953(12)
O10 O -0.0527(19) -0.1136(16) 0.5318(14)
O11 O -0.1408(15) -0.3179(18) 0.4668(10)
O12 O -0.265(2) -0.2795(15) 0.3039(14)
O13 O -0.0095(18) 0.0326(15) 0.6005(13)
O14 O 0.0513(14) 0.2032(12) 0.7305(13)
O15 O -0.1892(14) 0.1932(12) 0.7025(11)
O16 O -0.0741(13) 0.2408(11) 0.5638(9)
O17 O -0.1531(14) -0.0044(12) 0.6754(14)
O18 O -0.0602(16) 0.3650(11) 0.4233(10)
O19 O -0.0068(14) 0.1930(15) 0.3403(11)
W6 W -0.07867(8) -0.10876(7) 0.69056(5)
O20 O 0.0852(15) 0.0248(12) 0.7700(15)
O21 O -0.1134(14) -0.1548(13) 0.7846(9)
O22 O -0.2871(13) -0.2557(11) 0.1136(8)
Zn1 Zn -0.1782(3) 0.3882(2) 0.7220(2)
N1 N -0.2745(14) 0.3543(14) 0.8094(11)
N2 N -0.3006(18) 0.3225(13) 0.5742(14)
N3 N -0.0153(16) 0.5529(13) 0.2140(12)
C1 C -0.2635(17) 0.2916(16) 0.8757(14)
C2 C -0.3672(18) 0.3822(19) 0.8128(13)
C3 C -0.410(2) 0.226(2) 0.529(2)
C4 C -0.294(2) 0.3722(16) 0.5015(15)
H1 H -0.2044 0.2615 0.8907
N4 N -0.3480(14) 0.2788(12) 0.9164(9)
H2 H -0.3941 0.4275 0.7763
C5 C -0.4159(17) 0.3378(16) 0.8742(13)
C6 C -0.482(2) 0.2107(18) 0.431(2)
H3 H -0.4371 0.1699 0.5614
H4 H -0.2214 0.4418 0.5112
N5 N -0.3998(18) 0.3137(17) 0.4153(14)
C7 C -0.3627(18) 0.2233(14) 0.9912(12)
H5 H -0.4826 0.3445 0.8869
H6 H -0.5650 0.1489 0.3853
C8 C -0.431(2) 0.3375(18) 0.3205(18)
C9 C -0.249(2) 0.233(2) 1.0657(15)
C10 C -0.486(2) 0.1732(14) 0.9933(13)
C11 C -0.540(2) 0.3212(18) 0.2618(19)
C12 C -0.3156(19) 0.3963(17) 0.3038(15)
C13 C -0.276(2) 0.173(2) 1.1382(15)
H7 H -0.1649 0.2724 1.0684
H8 H -0.5555 0.1776 0.9461
C14 C -0.5061(19) 0.1154(17) 1.0666(14)
H9 H -0.6120 0.2824 0.2751
C15 C -0.558(2) 0.360(2) 0.173(2)
C16 C -0.331(2) 0.4325(14) 0.2239(14)
H10 H -0.2336 0.4079 0.3479
C17 C -0.396(2) 0.1254(17) 1.1413(17)
H11 H -0.2083 0.1665 1.1856
N6 N -0.6299(16) 0.0660(13) 1.0674(12)
H12 H -0.6408 0.3485 0.1304
C18 C -0.455(2) 0.4124(19) 0.1544(15)
N7 N -0.2158(15) 0.4905(12) 0.2010(11)
H13 H -0.4024 0.0989 1.1959
C19 C -0.736(3) 0.070(3) 1.008(2)
C20 C -0.657(2) 0.0186(17) 1.1450(13)
H14 H -0.4644 0.4358 0.0964
C21 C -0.208(3) 0.528(2) 0.1206(17)
C22 C -0.0964(18) 0.5097(16) 0.2550(15)
H15 H -0.7434 0.1057 0.9570
N8 N -0.833(3) 0.012(3) 1.037(2)
C23 C -0.7832(19) -0.010(2) 1.1230(16)
H16 H -0.5985 0.0097 1.1993
H17 H -0.2767 0.5293 0.0687
C24 C -0.083(2) 0.5651(16) 0.1282(16)
H18 H -0.0714 0.4941 0.3166
H19 H -0.8279 -0.0406 1.1612
H20 H -0.0520 0.5932 0.0822
Zn2 Zn -1.0434(5) -0.1081(4) 0.9391(3)
O23 O -0.158(2) 0.5662(15) 0.7361(15)
O24 O -1.0878(12) -0.2827(10) 0.9579(10)
O6A O 0.1454(19) 0.0879(16) 0.5816(14)
O7A O 0.0820(18) -0.0579(15) 0.5056(13)
O10A O 0.0527(19) 0.1136(16) 0.4682(14)
O13A O 0.0095(18) -0.0326(15) 0.3995(13)
W1A W -1.67882(7) 0.03451(6) 1.62911(5)
O1A O -1.6450(18) 0.1792(13) 1.5977(11)
O2A O -1.7051(16) 0.1001(12) 1.7366(10)
O3A O -1.7225(13) -0.0352(11) 1.4890(10)
O4A O -1.7825(15) -0.1150(12) 1.6294(9)
O5A O -1.5255(12) 0.0503(14) 1.6914(10)
W2A W -1.72015(8) 0.27842(6) 1.57157(6)
W3A W -1.80670(8) 0.17391(6) 1.76088(5)
W4A W -1.86872(7) -0.13022(6) 1.36562(5)
W5A W -1.95953(7) -0.24719(6) 1.54981(5)
O8A O -1.7699(13) 0.2213(14) 1.4311(10)
O9A O -1.5884(13) 0.4101(11) 1.6047(12)
O11A O -1.8592(15) 0.3179(18) 1.5332(10)
O12A O -1.735(2) 0.2795(15) 1.6961(14)
O14A O -2.0513(14) -0.2032(12) 1.2695(13)
O15A O -1.8108(14) -0.1932(12) 1.2975(11)
O16A O -1.9259(13) -0.2408(11) 1.4362(9)
O17A O -1.8469(14) 0.0044(12) 1.3246(14)
O18A O -1.9398(16) -0.3650(11) 1.5767(10)
O19A O -1.9932(14) -0.1930(15) 1.6597(11)
W6A W -1.92133(8) 0.10876(7) 1.30944(5)
O20A O -2.0852(15) -0.0248(12) 1.2300(15)
O21A O -1.8866(14) 0.1548(13) 1.2154(9)
O22A O -1.7129(13) 0.2557(11) 1.8864(8)
Zn1A Zn -1.8218(3) -0.3882(2) 1.2780(2)
N1A N -1.7255(14) -0.3543(14) 1.1906(11)
N2A N -1.6994(18) -0.3225(13) 1.4258(14)
N3A N -1.9847(16) -0.5529(13) 1.7860(12)
C1A C -1.7365(17) -0.2916(16) 1.1243(14)
C2A C -1.6328(18) -0.3822(19) 1.1872(13)
C3A C -1.590(2) -0.226(2) 1.471(2)
C4A C -1.706(2) -0.3722(16) 1.4985(15)
H1A H -1.7956 -0.2615 1.1093
N4A N -1.6520(14) -0.2788(12) 1.0836(9)
H2A H -1.6059 -0.4275 1.2237
C5A C -1.5841(17) -0.3378(16) 1.1258(13)
C6A C -1.518(2) -0.2107(18) 1.569(2)
H3A H -1.5629 -0.1699 1.4386
H4A H -1.7786 -0.4418 1.4888
N5A N -1.6002(18) -0.3137(17) 1.5847(14)
C7A C -1.6373(18) -0.2233(14) 1.0088(12)
H5A H -1.5174 -0.3445 1.1131
H6A H -1.4350 -0.1489 1.6147
C8A C -1.569(2) -0.3375(18) 1.6795(18)
C9A C -1.751(2) -0.233(2) 0.9343(15)
C10A C -1.514(2) -0.1732(14) 1.0067(13)
C11A C -1.460(2) -0.3212(18) 1.7382(19)
C12A C -1.6844(19) -0.3963(17) 1.6962(15)
C13A C -1.724(2) -0.173(2) 0.8618(15)
H7A H -1.8351 -0.2724 0.9316
H8A H -1.4445 -0.1776 1.0539
C14A C -1.4939(19) -0.1154(17) 0.9334(14)
H9A H -1.3880 -0.2824 1.7249
C15A C -1.442(2) -0.360(2) 1.827(2)
C16A C -1.669(2) -0.4325(14) 1.7761(14)
H10A H -1.7664 -0.4079 1.6521
C17A C -1.604(2) -0.1254(17) 0.8587(17)
H11A H -1.7917 -0.1665 0.8144
N6A N -1.3701(16) -0.0660(13) 0.9326(12)
H12A H -1.3592 -0.3485 1.8696
C18A C -1.545(2) -0.4124(19) 1.8456(15)
N7A N -1.7842(15) -0.4905(12) 1.7990(11)
H13A H -1.5976 -0.0989 0.8041
C19A C -1.264(3) -0.070(3) 0.992(2)
C20A C -1.343(2) -0.0186(17) 0.8550(13)
H14A H -1.5356 -0.4358 1.9036
C21A C -1.792(3) -0.528(2) 1.8794(17)
C22A C -1.9036(18) -0.5097(16) 1.7450(15)
H15A H -1.2566 -0.1057 1.0430
N8A N -1.167(3) -0.012(3) 0.963(2)
C23A C -1.2168(19) 0.010(2) 0.8770(16)
H16A H -1.4015 -0.0097 0.8007
H17A H -1.7233 -0.5293 1.9313
C24A C -1.917(2) -0.5651(16) 1.8718(16)
H18A H -1.9286 -0.4941 1.6834
H19A H -1.1721 0.0406 0.8388
H20A H -1.9480 -0.5932 1.9178
Zn2A Zn -0.9566(5) 0.1081(4) 1.0609(3)
O23A O -1.842(2) -0.5662(15) 1.2639(15)
O24A O -0.9122(12) 0.2827(10) 1.0421(10)
W1A_2 W 0.32118(7) 0.03451(6) 0.62911(5)
O6A_2 O -1.8546(19) 0.0879(16) 1.5816(14)
W2A_2 W 0.27985(8) 0.27842(6) 0.57157(6)
W3_2 W -2.19330(8) -0.17391(6) 1.23912(5)
W3A_2 W 0.19330(8) 0.17391(6) 0.76088(5)
W4A_2 W 0.13128(7) -0.13022(6) 0.36562(5)
W5_2 W -2.04047(7) 0.24719(6) 1.45019(5)
W5A_2 W 0.04047(7) -0.24719(6) 0.54981(5)
O7A_2 O -1.9180(18) -0.0579(15) 1.5056(13)
O10_2 O -2.0527(19) -0.1136(16) 1.5318(14)
O10A_2 O -1.9473(19) 0.1136(16) 1.4682(14)
O11_2 O -2.1408(15) -0.3179(18) 1.4668(10)
O11A_2 O 0.1408(15) 0.3179(18) 0.5332(10)
O13A_2 O -1.9905(18) -0.0326(15) 1.3995(13)
O14_2 O -1.9487(14) 0.2032(12) 1.7305(13)
O14A_2 O -0.0513(14) -0.2032(12) 0.2695(13)
O19_2 O -2.0068(14) 0.1930(15) 1.3403(11)
O19A_2 O 0.0068(14) -0.1930(15) 0.6597(11)
W6_2 W -2.07867(8) -0.10876(7) 1.69056(5)
W6A_2 W 0.07867(8) 0.10876(7) 0.30944(5)
O20_2 O -1.9148(15) 0.0248(12) 1.7700(15)
O20A_2 O -0.0852(15) -0.0248(12) 0.2300(15)
O21_2 O -1.1134(14) -0.1548(13) 0.7846(9)
O21A_2 O -0.8866(14) 0.1548(13) 1.2154(9)
Zn1_2 Zn -2.1782(3) -0.6118(2) 1.7220(2)
Zn1A_2 Zn 0.1782(3) 0.6118(2) 0.2780(2)
N3_2 N -2.0153(16) -0.4471(13) 1.2140(12)
N3A_2 N 0.0153(16) 0.4471(13) 0.7860(12)
Zn2_2 Zn -0.0434(5) -0.1081(4) 0.9391(3)
Zn2A_2 Zn -1.9566(5) 0.1081(4) 1.0609(3)
loop_
_geom_bond_atom_site_label_1
_geom_bond_atom_site_label_2
_geom_bond_site_symmetry_1
_geom_bond_site_symmetry_2
W1 O1 1_555 1_555
O1 W2 1_555 1_555
O2 W1 1_555 1_555
O3 W1 1_555 1_555
O4 W1 1_555 1_555
O5 W1 1_555 1_555
O6 W1 1_555 1_555
W2 O6 1_555 1_555
W3 O2 1_555 1_555
W4 O3 1_555 1_555
W5 O4 1_555 1_555
P1 O6 1_555 1_555
O7 O6 1_555 1_555
O8 W2 1_555 1_555
O9 W2 1_555 1_555
O10 W2 1_555 1_555
O11 W2 1_555 1_555
O12 W2 1_555 1_555
O13 W4 1_555 1_555
O14 W4 1_555 1_555
O15 W4 1_555 1_555
O16 W4 1_555 1_555
O17 W4 1_555 1_555
O18 W5 1_555 1_555
O19 W5 1_555 1_555
W6 O8 1_555 1_555
O20 W6 1_555 1_555
O21 W6 1_555 1_555
O22 W3 1_555 1_555
Zn1 O15 1_555 1_555
N1 Zn1 1_555 1_555
N2 Zn1 1_555 1_555
N3 C22 1_555 1_555
C1 N1 1_555 1_555
C2 N1 1_555 1_555
C3 N2 1_555 1_555
C4 N2 1_555 1_555
H1 C1 1_555 1_555
N4 C1 1_555 1_555
H2 C2 1_555 1_555
C5 C2 1_555 1_555
C6 C3 1_555 1_555
H3 C3 1_555 1_555
H4 C4 1_555 1_555
N5 C4 1_555 1_555
C7 N4 1_555 1_555
H5 C5 1_555 1_555
H6 C6 1_555 1_555
C8 N5 1_555 1_555
C9 C7 1_555 1_555
C10 C7 1_555 1_555
C11 C8 1_555 1_555
C12 C8 1_555 1_555
C13 C9 1_555 1_555
H7 C9 1_555 1_555
H8 C10 1_555 1_555
C14 C10 1_555 1_555
H9 C11 1_555 1_555
C15 C11 1_555 1_555
C16 C12 1_555 1_555
H10 C12 1_555 1_555
C17 C13 1_555 1_555
H11 C13 1_555 1_555
N6 C14 1_555 1_555
H12 C15 1_555 1_555
C18 C15 1_555 1_555
N7 C16 1_555 1_555
H13 C17 1_555 1_555
C19 N6 1_555 1_555
C20 N6 1_555 1_555
H14 C18 1_555 1_555
C21 N7 1_555 1_555
C22 N7 1_555 1_555
H15 C19 1_555 1_555
N8 C19 1_555 1_555
C23 C20 1_555 1_555
H16 C20 1_555 1_555
H17 C21 1_555 1_555
C24 N3 1_555 1_555
H18 C22 1_555 1_555
H19 C23 1_555 1_555
H20 C24 1_555 1_555
Zn2 N8 1_555 1_555
O23 Zn1 1_555 1_555
O24 Zn2 1_555 1_555
O6A P1 1_555 1_555
O7A P1 1_555 1_555
O10A W5 1_555 1_555
O13A P1 1_555 1_555
W1A O1A 1_555 1_555
O1A W2A 1_555 1_555
O2A W1A 1_555 1_555
O3A W1A 1_555 1_555
O4A W1A 1_555 1_555
O5A W1A 1_555 1_555
W2A O8A 1_555 1_555
W3A O2A 1_555 1_555
W4A O3A 1_555 1_555
W5A O4A 1_555 1_555
O8A W6A 1_555 1_555
O9A W2A 1_555 1_555
O11A W2A 1_555 1_555
O12A W2A 1_555 1_555
O14A W4A 1_555 1_555
O15A W4A 1_555 1_555
O16A W4A 1_555 1_555
O17A W4A 1_555 1_555
O18A W5A 1_555 1_555
O19A W5A 1_555 1_555
W6A O17A 1_555 1_555
O20A W6A 1_555 1_555
O21A W6A 1_555 1_555
O22A W3A 1_555 1_555
Zn1A O15A 1_555 1_555
N1A Zn1A 1_555 1_555
N2A Zn1A 1_555 1_555
N3A C22A 1_555 1_555
C1A N1A 1_555 1_555
C2A N1A 1_555 1_555
C3A N2A 1_555 1_555
C4A N2A 1_555 1_555
H1A C1A 1_555 1_555
N4A C1A 1_555 1_555
H2A C2A 1_555 1_555
C5A C2A 1_555 1_555
C6A C3A 1_555 1_555
H3A C3A 1_555 1_555
H4A C4A 1_555 1_555
N5A C4A 1_555 1_555
C7A N4A 1_555 1_555
H5A C5A 1_555 1_555
H6A C6A 1_555 1_555
C8A N5A 1_555 1_555
C9A C7A 1_555 1_555
C10A C7A 1_555 1_555
C11A C8A 1_555 1_555
C12A C8A 1_555 1_555
C13A C9A 1_555 1_555
H7A C9A 1_555 1_555
H8A C10A 1_555 1_555
C14A C10A 1_555 1_555
H9A C11A 1_555 1_555
C15A C11A 1_555 1_555
C16A C12A 1_555 1_555
H10A C12A 1_555 1_555
C17A C13A 1_555 1_555
H11A C13A 1_555 1_555
N6A C14A 1_555 1_555
H12A C15A 1_555 1_555
C18A C15A 1_555 1_555
N7A C16A 1_555 1_555
H13A C17A 1_555 1_555
C19A N6A 1_555 1_555
C20A N6A 1_555 1_555
H14A C18A 1_555 1_555
C21A N7A 1_555 1_555
C22A N7A 1_555 1_555
H15A C19A 1_555 1_555
N8A Zn2 1_555 1_555
C23A C20A 1_555 1_555
H16A C20A 1_555 1_555
H17A C21A 1_555 1_555
C24A N3A 1_555 1_555
H18A C22A 1_555 1_555
H19A C23A 1_555 1_555
H20A C24A 1_555 1_555
Zn2A N8 1_555 1_555
O23A Zn1A 1_555 1_555
O24A Zn2A 1_555 1_555
W1A_2 O6A 1_555 1_555
O6A_2 W1A 1_555 1_555
W2A_2 O6A 1_555 1_555
W3_2 O14A 1_555 1_555
W3A_2 O14 1_555 1_555
W4A_2 O7A 1_555 1_555
W5_2 O11A 1_555 1_555
W5A_2 O10 1_555 1_555
O7A_2 W4A 1_555 1_555
O10_2 W5A 1_555 1_555
O10A_2 W2A 1_555 1_555
O11_2 W5A 1_555 1_555
O11A_2 W5 1_555 1_555
O13A_2 W4A 1_555 1_555
O14_2 W3A 1_555 1_555
O14A_2 W3 1_555 1_555
O19_2 W6A 1_555 1_555
O19A_2 W6 1_555 1_555
W6_2 O19A 1_555 1_555
W6A_2 O19 1_555 1_555
O20_2 W3A 1_555 1_555
O20A_2 W3 1_555 1_555
O21_2 Zn2 1_555 1_555
O21A_2 Zn2A 1_555 1_555
Zn1_2 N3A 1_555 1_555
Zn1A_2 N3 1_555 1_555
N3_2 Zn1A 1_555 1_555
N3A_2 Zn1 1_555 1_555
Zn2_2 O21 1_555 1_555
Zn2A_2 O21A 1_555 1_555
O6 W3 1_555 1_555
W3 O12 1_555 1_555
W4 O7 1_555 1_555
W5 O16 1_555 1_555
P1 O7 1_555 1_555
P1 O10 1_555 1_555
P1 O13 1_555 1_555
P1 O10A 1_555 1_555
O7 O13 1_555 1_555
O7 O10A 1_555 1_555
O10 O13 1_555 1_555
O10 W6 1_555 1_555
O10 O7A 1_555 1_555
O11 W5A_2 1_555 1_555
O13 W6 1_555 1_555
O17 W6 1_555 1_555
O20 W3A_2 1_555 1_555
N4 C5 1_555 1_555
C6 N5 1_555 1_555
C14 C17 1_555 1_555
C16 C18 1_555 1_555
C21 C24 1_555 1_555
N8 C23 1_555 1_555
Zn2 Zn2A 1_555 1_555
O6A O7A 1_555 1_555
O6A W3A_2 1_555 1_555
O7A O13A 1_555 1_555
O10A O13A 1_555 1_555
O10A W2A_2 1_555 1_555
O10A W6A_2 1_555 1_555
O13A W4A_2 1_555 1_555
O13A W6A_2 1_555 1_555
W2A O6A_2 1_555 1_555
W3A O12A 1_555 1_555
W3A O6A_2 1_555 1_555
W5A O16A 1_555 1_555
W6A O10A_2 1_555 1_555
W6A O13A_2 1_555 1_555
O20A W3_2 1_555 1_555
N4A C5A 1_555 1_555
C6A N5A 1_555 1_555
C14A C17A 1_555 1_555
C16A C18A 1_555 1_555
C19A N8A 1_555 1_555
C21A C24A 1_555 1_555
N8A C23A 1_555 1_555
N8A Zn2A 1_555 1_555
O6A_2 O7A_2 1_555 1_555
W2A_2 O11A_2 1_555 1_555
W4A_2 O14A_2 1_555 1_555
W5_2 O10A_2 1_555 1_555
W5_2 O19_2 1_555 1_555
W5A_2 O19A_2 1_555 1_555
O7A_2 O10_2 1_555 1_555
O7A_2 O13A_2 1_555 1_555
O10_2 W6_2 1_555 1_555
O10A_2 O13A_2 1_555 1_555
W6_2 O20_2 1_555 1_555
W6A_2 O20A_2 1_555 1_555

#END
