
#######################################################################
#
#                 Cambridge Crystallographic Data Centre
#                                CCDC 
#
#######################################################################
#
# If this CIF has been generated from an entry in the Cambridge 
# Structural Database, then it will include bibliographic, chemical, 
# crystal, experimental, refinement or atomic coordinate data resulting 
# from the CCDC's data processing and validation procedures.
#
#######################################################################

data_SOTBAG
_symmetry_cell_setting           orthorhombic
_symmetry_space_group_name_H-M   'P b c a'
_symmetry_Int_Tables_number      61
_space_group_name_Hall           '-P 2ac 2ab'
loop_
_symmetry_equiv_pos_site_id
_symmetry_equiv_pos_as_xyz
1 x,y,z
2 1/2-x,-y,1/2+z
3 1/2+x,1/2-y,-z
4 -x,1/2+y,1/2-z
5 -x,-y,-z
6 1/2+x,y,1/2-z
7 1/2-x,1/2+y,z
8 x,1/2-y,1/2+z
_cell_length_a                   9.0309(8)
_cell_length_b                   17.7660(15)
_cell_length_c                   20.1395(18)
_cell_angle_alpha                90
_cell_angle_beta                 90
_cell_angle_gamma                90
_cell_volume                     3231.24
loop_
_atom_site_label
_atom_site_type_symbol
_atom_site_fract_x
_atom_site_fract_y
_atom_site_fract_z
Cd1 Cd 0.5000 0.0000 0.5000
O1 O 0.5974(3) 0.07610(16) 0.56345(16)
N1 N 0.3252(4) 0.0916(2) 0.50928(18)
C1 C 0.1404(7) 0.0376(3) 0.4352(3)
H1 H 0.2044 0.0396 0.3972
H2 H 0.0404 0.0476 0.4217
H3 H 0.1457 -0.0114 0.4550
N2 N 0.9497(6) 0.2567(4) 0.6803(3)
C2 C 0.1884(6) 0.0960(3) 0.4851(2)
N3 N 0.1177(5) 0.4415(2) 0.5894(2)
C3 C 0.0917(6) 0.1534(3) 0.5044(2)
H4 H -0.0058 0.1529 0.4896
C4 C 0.1389(5) 0.2095(2) 0.5445(2)
H5 H 0.0746 0.2482 0.5560
C5 C 0.2858(5) 0.2096(2) 0.5689(2)
C6 C 0.3745(5) 0.1465(2) 0.5519(2)
C7 C 0.5205(5) 0.1361(2) 0.5790(2)
C8 C 0.5758(5) 0.1921(2) 0.6215(2)
C9 C 0.4866(5) 0.2546(3) 0.6364(3)
H6 H 0.5251 0.2906 0.6651
C10 C 0.3465(5) 0.2664(2) 0.6118(2)
C11 C 0.7268(5) 0.1881(3) 0.6488(2)
C12 C 0.7908(6) 0.1211(3) 0.6713(3)
H7 H 0.7391 0.0759 0.6689
C13 C 0.9339(7) 0.1236(4) 0.6975(3)
H8 H 0.9801 0.0800 0.7124
C14 C 1.0048(7) 0.1916(6) 0.7006(3)
H9 H 1.0997 0.1921 0.7186
C15 C 0.8139(6) 0.2524(3) 0.6546(3)
H10 H 0.7730 0.2971 0.6389
C16 C 0.2667(5) 0.3373(2) 0.6274(2)
C17 C 0.2664(6) 0.3678(3) 0.6905(3)
H11 H 0.3166 0.3438 0.7248
C18 C 0.1911(7) 0.4344(3) 0.7024(3)
H12 H 0.1903 0.4555 0.7447
C19 C 0.1179(7) 0.4688(3) 0.6512(3)
H13 H 0.0661 0.5130 0.6598
C20 C 0.1924(5) 0.3775(2) 0.5789(2)
H14 H 0.1945 0.3586 0.5358
O1D O 0.4026(3) -0.07610(16) 0.43655(16)
N1D N 0.6748(4) -0.0916(2) 0.49072(18)
C1D C 0.8596(7) -0.0376(3) 0.5648(3)
H1D H 0.7956 -0.0396 0.6028
H2D H 0.9596 -0.0476 0.5783
H3D H 0.8543 0.0114 0.5450
N2D N 0.0503(6) -0.2567(4) 0.3197(3)
C2D C 0.8116(6) -0.0960(3) 0.5149(2)
N3D N 0.8823(5) -0.4415(2) 0.4106(2)
C3D C 0.9083(6) -0.1534(3) 0.4956(2)
H4D H 1.0058 -0.1529 0.5104
C4D C 0.8611(5) -0.2095(2) 0.4555(2)
H5D H 0.9254 -0.2482 0.4440
C5D C 0.7142(5) -0.2096(2) 0.4311(2)
C6D C 0.6255(5) -0.1465(2) 0.4481(2)
C7D C 0.4795(5) -0.1361(2) 0.4210(2)
C8D C 0.4242(5) -0.1921(2) 0.3785(2)
C9D C 0.5134(5) -0.2546(3) 0.3636(3)
H6D H 0.4749 -0.2906 0.3349
C10D C 0.6535(5) -0.2664(2) 0.3882(2)
C11D C 0.2732(5) -0.1881(3) 0.3512(2)
C12D C 0.2092(6) -0.1211(3) 0.3287(3)
H7D H 0.2609 -0.0759 0.3311
C13D C 0.0661(7) -0.1236(4) 0.3025(3)
H8D H 0.0199 -0.0800 0.2876
C14D C -0.0048(7) -0.1916(6) 0.2994(3)
H9D H -0.0997 -0.1921 0.2814
C15D C 0.1861(6) -0.2524(3) 0.3454(3)
H10D H 0.2270 -0.2971 0.3611
C16D C 0.7333(5) -0.3373(2) 0.3726(2)
C17D C 0.7336(6) -0.3678(3) 0.3095(3)
H11D H 0.6834 -0.3438 0.2752
C18D C 0.8089(7) -0.4344(3) 0.2976(3)
H12D H 0.8097 -0.4555 0.2553
C19D C 0.8821(7) -0.4688(3) 0.3488(3)
H13D H 0.9339 -0.5130 0.3402
C20D C 0.8076(5) -0.3775(2) 0.4211(2)
H14D H 0.8055 -0.3586 0.4642
Cd1B Cd 0.0000 0.5000 0.5000
Cd1B_2 Cd 1.0000 -0.5000 0.5000
N3B N 0.6177(5) 0.0585(2) 0.4106(2)
N3F N 0.3823(5) -0.0585(2) 0.5894(2)
loop_
_geom_bond_atom_site_label_1
_geom_bond_atom_site_label_2
_geom_bond_site_symmetry_1
_geom_bond_site_symmetry_2
Cd1 O1 1_555 1_555
O1 C7 1_555 1_555
N1 Cd1 1_555 1_555
C1 H1 1_555 1_555
H2 C1 1_555 1_555
H3 C1 1_555 1_555
N2 C14 1_555 1_555
C2 N1 1_555 1_555
N3 C19 1_555 1_555
C3 C2 1_555 1_555
H4 C3 1_555 1_555
C4 C3 1_555 1_555
H5 C4 1_555 1_555
C5 C4 1_555 1_555
C6 N1 1_555 1_555
C7 C6 1_555 1_555
C8 C7 1_555 1_555
C9 C8 1_555 1_555
H6 C9 1_555 1_555
C10 C5 1_555 1_555
C11 C8 1_555 1_555
C12 C11 1_555 1_555
H7 C12 1_555 1_555
C13 C12 1_555 1_555
H8 C13 1_555 1_555
C14 C13 1_555 1_555
H9 C14 1_555 1_555
C15 N2 1_555 1_555
H10 C15 1_555 1_555
C16 C10 1_555 1_555
C17 C16 1_555 1_555
H11 C17 1_555 1_555
C18 C17 1_555 1_555
H12 C18 1_555 1_555
C19 C18 1_555 1_555
H13 C19 1_555 1_555
C20 N3 1_555 1_555
H14 C20 1_555 1_555
O1D Cd1 1_555 1_555
N1D Cd1 1_555 1_555
C1D H1D 1_555 1_555
H2D C1D 1_555 1_555
H3D C1D 1_555 1_555
N2D C14D 1_555 1_555
C2D N1D 1_555 1_555
N3D C19D 1_555 1_555
C3D C2D 1_555 1_555
H4D C3D 1_555 1_555
C4D C3D 1_555 1_555
H5D C4D 1_555 1_555
C5D C4D 1_555 1_555
C6D N1D 1_555 1_555
C7D O1D 1_555 1_555
C8D C7D 1_555 1_555
C9D C8D 1_555 1_555
H6D C9D 1_555 1_555
C10D C5D 1_555 1_555
C11D C8D 1_555 1_555
C12D C11D 1_555 1_555
H7D C12D 1_555 1_555
C13D C12D 1_555 1_555
H8D C13D 1_555 1_555
C14D C13D 1_555 1_555
H9D C14D 1_555 1_555
C15D N2D 1_555 1_555
H10D C15D 1_555 1_555
C16D C10D 1_555 1_555
C17D C16D 1_555 1_555
H11D C17D 1_555 1_555
C18D C17D 1_555 1_555
H12D C18D 1_555 1_555
C19D C18D 1_555 1_555
H13D C19D 1_555 1_555
C20D N3D 1_555 1_555
H14D C20D 1_555 1_555
Cd1B N3 1_555 1_555
Cd1B_2 N3D 1_555 1_555
N3B Cd1 1_555 1_555
N3F Cd1 1_555 1_555
C1 C2 1_555 1_555
C5 C6 1_555 1_555
C9 C10 1_555 1_555
C11 C15 1_555 1_555
C16 C20 1_555 1_555
C1D C2D 1_555 1_555
C5D C6D 1_555 1_555
C6D C7D 1_555 1_555
C9D C10D 1_555 1_555
C11D C15D 1_555 1_555
C16D C20D 1_555 1_555

#END
