
#######################################################################
#
#                 Cambridge Crystallographic Data Centre
#                                CCDC 
#
#######################################################################
#
# If this CIF has been generated from an entry in the Cambridge 
# Structural Database, then it will include bibliographic, chemical, 
# crystal, experimental, refinement or atomic coordinate data resulting 
# from the CCDC's data processing and validation procedures.
#
#######################################################################

data_SOTHIS
_symmetry_cell_setting           orthorhombic
_symmetry_space_group_name_H-M   'P 21 21 21'
_symmetry_Int_Tables_number      19
_space_group_name_Hall           'P 2ac 2ab'
loop_
_symmetry_equiv_pos_site_id
_symmetry_equiv_pos_as_xyz
1 x,y,z
2 1/2+x,1/2-y,-z
3 -x,1/2+y,1/2-z
4 1/2-x,-y,1/2+z
_cell_length_a                   10.452(4)
_cell_length_b                   12.197(7)
_cell_length_c                   14.984(6)
_cell_angle_alpha                90
_cell_angle_beta                 90
_cell_angle_gamma                90
_cell_volume                     1910.21
loop_
_atom_site_label
_atom_site_type_symbol
_atom_site_fract_x
_atom_site_fract_y
_atom_site_fract_z
Cu1 Cu -0.0254(1) 0.21493(8) 0.16363(8)
Br1 Br -0.0329(1) 0.17918(7) 0.34417(7)
O1 O 0.3630(6) 0.1590(5) -0.1707(4)
O2 O 0.3943(6) 0.1511(6) -0.0253(4)
N1 N 0.0913(7) 0.0878(6) 0.1331(5)
N2 N 0.1428(7) 0.2944(6) 0.1657(5)
N3 N -0.1601(7) 0.1040(6) 0.1315(5)
C1 C 0.209(1) 0.1086(9) 0.1849(7)
C2 C 0.2439(9) 0.2284(8) 0.1799(6)
C3 C 0.3657(9) 0.2665(9) 0.1915(7)
C4 C 0.385(1) 0.3768(9) 0.1871(7)
C5 C 0.286(1) 0.4479(8) 0.1700(8)
C6 C 0.1645(9) 0.4025(8) 0.1602(7)
C7 C 0.0205(9) -0.0117(7) 0.1581(6)
C8 C -0.1148(9) 0.0006(8) 0.1258(6)
C9 C -0.187(1) -0.0837(9) 0.0969(7)
C10 C -0.312(1) -0.063(1) 0.0699(8)
C11 C -0.360(1) 0.0416(9) 0.0769(8)
C12 C -0.281(1) 0.1224(9) 0.1087(7)
C13 C 0.117(1) 0.0901(7) 0.0353(6)
C14 C 0.1990(9) -0.0039(8) 0.0004(8)
C15 C 0.252(1) 0.0215(7) -0.0918(7)
C16 C 0.3456(8) 0.1191(7) -0.0943(6)
H1 H 0.1980 0.0898 0.2458
H2 H 0.2794 0.0678 0.1611
H3 H 0.4351 0.2184 0.2059
H4 H 0.4685 0.4067 0.1941
H5 H 0.2992 0.5241 0.1646
H6 H 0.0951 0.4498 0.1523
H7 H 0.0595 -0.0730 0.1319
H8 H 0.0202 -0.0182 0.2212
H9 H -0.1519 -0.1552 0.0929
H10 H -0.3638 -0.1215 0.0482
H11 H -0.4472 0.0576 0.0582
H12 H -0.3123 0.1938 0.1124
H13 H 0.0372 0.0866 0.0052
H14 H 0.1594 0.1561 0.0209
H15 H 0.2677 -0.0157 0.0395
H16 H 0.1476 -0.0677 -0.0041
H17 H 0.2973 -0.0423 -0.1125
H18 H 0.1836 0.0360 -0.1314
O1A O -0.1370(6) 0.3410(5) 0.1707(4)
Cu1A Cu 0.4746(1) 0.28507(8) -0.16363(8)
O2A O -0.1057(6) 0.3489(6) 0.0253(4)
O3 O -0.3410(8) 0.3446(9) 0.2995(6)
C17 C -0.374(1) 0.268(1) 0.365(1)
H19 H -0.4230 0.3031 0.4099
H20 H -0.4234 0.2111 0.3385
H21 H -0.2987 0.2381 0.3902
H22 H -0.3237 0.3938 0.2536
loop_
_geom_bond_atom_site_label_1
_geom_bond_atom_site_label_2
_geom_bond_site_symmetry_1
_geom_bond_site_symmetry_2
Cu1 Br1 1_555 1_555
O1 C16 1_555 1_555
O2 C16 1_555 1_555
O3 C17 1_555 1_555
N1 Cu1 1_555 1_555
N2 Cu1 1_555 1_555
N3 Cu1 1_555 1_555
C1 N1 1_555 1_555
C2 N2 1_555 1_555
C3 C2 1_555 1_555
C4 C3 1_555 1_555
C5 C4 1_555 1_555
C6 N2 1_555 1_555
C7 N1 1_555 1_555
C8 N3 1_555 1_555
C9 C8 1_555 1_555
C10 C9 1_555 1_555
C11 C10 1_555 1_555
C12 N3 1_555 1_555
C13 N1 1_555 1_555
C14 C13 1_555 1_555
C15 C14 1_555 1_555
C16 C15 1_555 1_555
C17 H19 1_555 1_555
H1 C1 1_555 1_555
H2 C1 1_555 1_555
H3 C3 1_555 1_555
H4 C4 1_555 1_555
H5 C5 1_555 1_555
H6 C6 1_555 1_555
H7 C7 1_555 1_555
H8 C7 1_555 1_555
H9 C9 1_555 1_555
H10 C10 1_555 1_555
H11 C11 1_555 1_555
H12 C12 1_555 1_555
H13 C13 1_555 1_555
H14 C13 1_555 1_555
H15 C14 1_555 1_555
H16 C14 1_555 1_555
H17 C15 1_555 1_555
H18 C15 1_555 1_555
H20 C17 1_555 1_555
H21 C17 1_555 1_555
H22 O3 1_555 1_555
O1A Cu1 1_555 1_555
Cu1A O1 1_555 1_555
O2A Cu1 1_555 1_555
O2 Cu1A 1_555 1_555
C1 C2 1_555 1_555
C5 C6 1_555 1_555
C7 C8 1_555 1_555
C11 C12 1_555 1_555

#END
