
#######################################################################
#
#                 Cambridge Crystallographic Data Centre
#                                CCDC 
#
#######################################################################
#
# If this CIF has been generated from an entry in the Cambridge 
# Structural Database, then it will include bibliographic, chemical, 
# crystal, experimental, refinement or atomic coordinate data resulting 
# from the CCDC's data processing and validation procedures.
#
#######################################################################

data_SOTMUK
_symmetry_cell_setting           tetragonal
_symmetry_space_group_name_H-M   'I -4 2 d'
_symmetry_Int_Tables_number      122
_space_group_name_Hall           'I -4 2bw'
loop_
_symmetry_equiv_pos_site_id
_symmetry_equiv_pos_as_xyz
1 x,y,z
2 -x,-y,z
3 y,-x,-z
4 -y,x,-z
5 1/2-x,y,3/4-z
6 1/2+x,-y,3/4-z
7 1/2-y,-x,3/4+z
8 1/2+y,x,3/4+z
9 1/2+x,1/2+y,1/2+z
10 1/2-x,1/2-y,1/2+z
11 1/2+y,1/2-x,1/2-z
12 1/2-y,1/2+x,1/2-z
13 -x,1/2+y,1/4-z
14 x,1/2-y,1/4-z
15 -y,1/2-x,1/4+z
16 y,1/2+x,1/4+z
_cell_length_a                   15.1725(6)
_cell_length_b                   15.1725(6)
_cell_length_c                   4.9934(4)
_cell_angle_alpha                90
_cell_angle_beta                 90
_cell_angle_gamma                90
_cell_volume                     1149.5
loop_
_atom_site_label
_atom_site_type_symbol
_atom_site_fract_x
_atom_site_fract_y
_atom_site_fract_z
Ag1 Ag 0.7500 0.33419(3) -0.1250
N1 N 0.4867 0.2500(2) 0.1250
N2 N 0.62562(18) 0.28164(19) 0.0239(7)
C1 C 0.5133(3) 0.3616(2) -0.2382(9)
H1 H 0.4501 0.3634 -0.2451
H2 H 0.5359 0.3434 -0.4091
H3 H 0.5356 0.4191 -0.1953
C2 C 0.5416(2) 0.2979(2) -0.0296(8)
Ag1B Ag 0.33419(3) 0.2500 0.1250
Ag1I Ag 0.7500 0.16581(3) 0.3750
N1C N 0.7500(2) 0.4867 -0.1250
N2M N 0.62562(18) 0.21836(19) 0.2261(7)
N2D N 0.87438(18) 0.28164(19) -0.2739(7)
C1M C 0.5133(3) 0.1384(2) 0.4882(9)
H1M H 0.4501 0.1366 0.4951
H2M H 0.5359 0.1566 0.6591
H3M H 0.5356 0.0809 0.4453
C2M C 0.5416(2) 0.2021(2) 0.2796(8)
loop_
_geom_bond_atom_site_label_1
_geom_bond_atom_site_label_2
_geom_bond_site_symmetry_1
_geom_bond_site_symmetry_2
Ag1 N2 1_555 1_555
N1 C2 1_555 1_555
N2 C2 1_555 1_555
C1 H1 1_555 1_555
H2 C1 1_555 1_555
H3 C1 1_555 1_555
C2 C1 1_555 1_555
Ag1B N1 1_555 1_555
Ag1I N2M 1_555 1_555
N1C Ag1 1_555 1_555
N2M N2 1_555 1_555
N2D Ag1 1_555 1_555
C1M H1M 1_555 1_555
H2M C1M 1_555 1_555
H3M C1M 1_555 1_555
C2M N1 1_555 1_555
N2M C2M 1_555 1_555
C1M C2M 1_555 1_555

#END
