
#######################################################################
#
#                 Cambridge Crystallographic Data Centre
#                                CCDC 
#
#######################################################################
#
# If this CIF has been generated from an entry in the Cambridge 
# Structural Database, then it will include bibliographic, chemical, 
# crystal, experimental, refinement or atomic coordinate data resulting 
# from the CCDC's data processing and validation procedures.
#
#######################################################################

data_SOTRID
_symmetry_cell_setting           triclinic
_symmetry_space_group_name_H-M   'P -1'
_symmetry_Int_Tables_number      2
_space_group_name_Hall           '-P 1'
loop_
_symmetry_equiv_pos_site_id
_symmetry_equiv_pos_as_xyz
1 x,y,z
2 -x,-y,-z
_cell_length_a                   7.5476(17)
_cell_length_b                   10.822(3)
_cell_length_c                   10.930(3)
_cell_angle_alpha                96.754(3)
_cell_angle_beta                 91.454(4)
_cell_angle_gamma                105.337(3)
_cell_volume                     853.507
loop_
_atom_site_label
_atom_site_type_symbol
_atom_site_fract_x
_atom_site_fract_y
_atom_site_fract_z
Cu1 Cu 0.5000 0.5000 0.5000
S1 S 0.00719(15) 0.14602(11) 0.32842(11)
S2 S 0.58350(14) 0.19801(9) 0.55031(8)
O1 O -0.2025(3) 0.4112(2) 0.90084(19)
H1 H -0.2658 0.3440 0.9222
O2 O 0.6408(3) 0.3429(2) 0.5717(2)
N1 N 0.3455(3) 0.4938(2) 0.6499(2)
N2 N 0.2967(4) 0.3620(3) 0.4073(2)
C1 C 0.4081(4) 0.4757(3) 0.7607(3)
H2 H 0.5296 0.4730 0.7710
C2 C 0.2980(4) 0.4609(3) 0.8597(3)
H3 H 0.3468 0.4495 0.9353
C3 C 0.1146(4) 0.4629(3) 0.8477(3)
C4 C 0.0537(4) 0.4861(3) 0.7342(3)
H4 H -0.0658 0.4924 0.7221
C5 C 0.1713(4) 0.4999(3) 0.6396(3)
H5 H 0.1268 0.5143 0.5639
C6 C -0.0188(4) 0.4373(3) 0.9533(3)
C7 C 0.0068(4) 0.3234(3) 1.0155(3)
H6 H -0.0869 0.3011 1.0730
H7 H 0.1258 0.3470 1.0586
H8 H -0.0023 0.2506 0.9540
C8 C 0.1761(5) 0.2730(3) 0.3748(3)
C9 C 0.3922(6) 0.1477(4) 0.6419(4)
H9 H 0.4257 0.1844 0.7263
H10 H 0.3569 0.0551 0.6365
H11 H 0.2909 0.1763 0.6123
C10 C 0.7490(6) 0.1484(4) 0.6376(4)
H12 H 0.8666 0.1737 0.6027
H13 H 0.7115 0.0562 0.6356
H14 H 0.7580 0.1886 0.7215
Cu1_2 Cu -0.5000 0.5000 1.5000
S1A S 0.99281(15) 0.85398(11) 0.67158(11)
S2A S 0.41650(14) 0.80199(9) 0.44969(8)
O1A O 0.2025(3) 0.5888(2) 1.09916(19)
H1A H 0.2658 0.6560 1.0778
O2A O 0.3592(3) 0.6571(2) 0.4283(2)
N1A N -0.3455(3) 0.5062(2) 1.3501(2)
N1A_2 N 0.6545(3) 0.5062(2) 0.3501(2)
N2A N 0.7033(4) 0.6380(3) 0.5927(2)
C1A C -0.4081(4) 0.5243(3) 1.2393(3)
H2A H -0.5296 0.5270 1.2290
C2A C -0.2980(4) 0.5391(3) 1.1403(3)
H3A H -0.3468 0.5505 1.0647
C3A C -0.1146(4) 0.5371(3) 1.1523(3)
C4A C -0.0537(4) 0.5139(3) 1.2658(3)
H4A H 0.0658 0.5076 1.2779
C5A C -0.1713(4) 0.5001(3) 1.3604(3)
H5A H -0.1268 0.4857 1.4361
C6A C 0.0188(4) 0.5627(3) 1.0467(3)
C7A C -0.0068(4) 0.6766(3) 0.9845(3)
H6A H 0.0869 0.6989 0.9270
H7A H -0.1258 0.6530 0.9414
H8A H 0.0023 0.7494 1.0460
C8A C 0.8239(5) 0.7270(3) 0.6252(3)
C9A C 0.6078(6) 0.8523(4) 0.3581(4)
H9A H 0.5743 0.8156 0.2737
H10A H 0.6431 0.9449 0.3635
H11A H 0.7091 0.8237 0.3877
C10A C 0.2510(6) 0.8516(4) 0.3624(4)
H12A H 0.1334 0.8263 0.3973
H13A H 0.2885 0.9438 0.3644
H14A H 0.2420 0.8114 0.2785
S3 S 0.57149(12) 0.79752(9) 0.93974(9)
O3 O 0.4429(3) 0.8103(2) 1.0408(2)
C11 C 0.7612(5) 0.9373(4) 0.9707(4)
H15 H 0.7183 1.0133 0.9710
H16 H 0.8478 0.9361 0.9081
H17 H 0.8199 0.9380 1.0499
C12 C 0.4748(6) 0.8368(4) 0.8049(3)
H18 H 0.3592 0.7745 0.7806
H19 H 0.5572 0.8360 0.7395
H20 H 0.4555 0.9213 0.8215
loop_
_geom_bond_atom_site_label_1
_geom_bond_atom_site_label_2
_geom_bond_site_symmetry_1
_geom_bond_site_symmetry_2
Cu1 O2 1_555 1_555
S1 C8 1_555 1_555
S2 O2 1_555 1_555
S3 O3 1_555 1_555
O1 H1 1_555 1_555
N1 Cu1 1_555 1_555
N2 Cu1 1_555 1_555
C1 N1 1_555 1_555
H2 C1 1_555 1_555
C2 C1 1_555 1_555
H3 C2 1_555 1_555
C3 C2 1_555 1_555
C4 C3 1_555 1_555
H4 C4 1_555 1_555
C5 N1 1_555 1_555
H5 C5 1_555 1_555
C6 O1 1_555 1_555
C7 C6 1_555 1_555
H6 C7 1_555 1_555
H7 C7 1_555 1_555
H8 C7 1_555 1_555
C8 N2 1_555 1_555
C9 S2 1_555 1_555
H9 C9 1_555 1_555
H10 C9 1_555 1_555
H11 C9 1_555 1_555
C10 S2 1_555 1_555
H12 C10 1_555 1_555
H13 C10 1_555 1_555
H14 C10 1_555 1_555
C11 S3 1_555 1_555
H15 C11 1_555 1_555
H16 C11 1_555 1_555
H17 C11 1_555 1_555
C12 S3 1_555 1_555
H18 C12 1_555 1_555
H19 C12 1_555 1_555
H20 C12 1_555 1_555
Cu1_2 N1A 1_555 1_555
S1A C8A 1_555 1_555
S2A O2A 1_555 1_555
O1A H1A 1_555 1_555
O2A Cu1 1_555 1_555
N1A C1A 1_555 1_555
N1A_2 Cu1 1_555 1_555
N2A Cu1 1_555 1_555
C1A H2A 1_555 1_555
C2A C1A 1_555 1_555
H3A C2A 1_555 1_555
C3A C2A 1_555 1_555
C4A C3A 1_555 1_555
H4A C4A 1_555 1_555
C5A N1A 1_555 1_555
H5A C5A 1_555 1_555
C6A C6 1_555 1_555
C7A C6A 1_555 1_555
H6A C7A 1_555 1_555
H7A C7A 1_555 1_555
H8A C7A 1_555 1_555
C8A N2A 1_555 1_555
C9A S2A 1_555 1_555
H9A C9A 1_555 1_555
H10A C9A 1_555 1_555
H11A C9A 1_555 1_555
C10A S2A 1_555 1_555
H12A C10A 1_555 1_555
H13A C10A 1_555 1_555
H14A C10A 1_555 1_555
C3 C6 1_555 1_555
C4 C5 1_555 1_555
O1A C6A 1_555 1_555
C3A C6A 1_555 1_555
C4A C5A 1_555 1_555

#END
