
#######################################################################
#
#                 Cambridge Crystallographic Data Centre
#                                CCDC 
#
#######################################################################
#
# If this CIF has been generated from an entry in the Cambridge 
# Structural Database, then it will include bibliographic, chemical, 
# crystal, experimental, refinement or atomic coordinate data resulting 
# from the CCDC's data processing and validation procedures.
#
#######################################################################

data_SOTREZ
_symmetry_cell_setting           orthorhombic
_symmetry_space_group_name_H-M   'P c c n'
_symmetry_Int_Tables_number      56
_space_group_name_Hall           '-P 2ab 2ac'
loop_
_symmetry_equiv_pos_site_id
_symmetry_equiv_pos_as_xyz
1 x,y,z
2 1/2-x,1/2-y,z
3 -x,1/2+y,1/2-z
4 1/2+x,-y,1/2-z
5 -x,-y,-z
6 1/2+x,1/2+y,-z
7 x,1/2-y,1/2+z
8 1/2-x,y,1/2+z
_cell_length_a                   18.866(2)
_cell_length_b                   24.059(3)
_cell_length_c                   9.9612(12)
_cell_angle_alpha                90
_cell_angle_beta                 90
_cell_angle_gamma                90
_cell_volume                     4521.36
loop_
_atom_site_label
_atom_site_type_symbol
_atom_site_fract_x
_atom_site_fract_y
_atom_site_fract_z
Cu1 Cu 0.20569(3) 0.52177(2) 0.29600(5)
S1 S 0.32442(7) 0.55044(6) 0.32985(11)
O1 O 0.14087(16) 0.26619(12) 0.6090(2)
O2 O -0.02906(17) 0.27067(11) 0.3338(3)
N1 N 0.19187(19) 0.44093(14) 0.3572(3)
N2 N 0.11830(17) 0.23815(12) 0.3952(3)
N3 N -0.01101(18) 0.23769(12) 0.5452(3)
N4 N -0.14301(19) 0.41835(14) 0.6150(3)
N5 N 0.3204(2) 0.52700(15) 0.6050(4)
C1 C 0.2122(3) 0.41976(19) 0.4739(5)
H1 H 0.2389 0.4424 0.5303
C2 C 0.1972(3) 0.3674(2) 0.5177(4)
H2 H 0.2118 0.3560 0.6025
C3 C 0.1608(2) 0.33171(16) 0.4367(4)
C4 C 0.1432(3) 0.35075(17) 0.3098(4)
H3 H 0.1208 0.3276 0.2482
C5 C 0.1601(3) 0.40579(19) 0.2765(4)
H4 H 0.1480 0.4183 0.1912
C6 C 0.1390(2) 0.27540(15) 0.4875(4)
C7 C 0.0840(2) 0.18753(16) 0.4314(4)
C8 C 0.1120(3) 0.13701(16) 0.3892(4)
H5 H 0.1533 0.1364 0.3382
C9 C 0.0793(3) 0.08829(18) 0.4222(5)
H6 H 0.0983 0.0547 0.3932
C10 C 0.0201(3) 0.08849(18) 0.4961(5)
H7 H -0.0014 0.0550 0.5190
C11 C -0.0096(2) 0.13795(16) 0.5389(4)
H8 H -0.0505 0.1377 0.5911
C12 C 0.0216(2) 0.18737(14) 0.5040(4)
C13 C -0.0346(2) 0.27584(16) 0.4552(4)
C14 C -0.0708(2) 0.32577(16) 0.5141(4)
C15 C -0.0592(3) 0.34444(19) 0.6427(4)
H9 H -0.0271 0.3263 0.6982
C16 C -0.0960(3) 0.3907(2) 0.6887(5)
H10 H -0.0872 0.4030 0.7757
C17 C -0.1520(3) 0.4001(2) 0.4920(4)
H11 H -0.1840 0.4191 0.4377
C18 C -0.1177(3) 0.3552(2) 0.4377(4)
H12 H -0.1263 0.3449 0.3492
C19 C 0.3235(2) 0.53771(17) 0.4916(4)
Cu1G Cu 0.29431(3) 0.52177(2) -0.20400(5)
Cu1D Cu -0.20569(3) 0.47823(2) 0.70400(5)
Cu1G_2 Cu 0.29431(3) 0.52177(2) 0.79600(5)
S1G S 0.17558(7) 0.55044(6) -0.17015(11)
O1D O -0.14087(16) 0.73381(12) 0.3910(2)
O2D O 0.02906(17) 0.72933(11) 0.6662(3)
N1D N -0.19187(19) 0.55907(14) 0.6428(3)
N1G N 0.30813(19) 0.44093(14) -0.1428(3)
N2D N -0.11830(17) 0.76185(12) 0.6048(3)
N3D N 0.01101(18) 0.76231(12) 0.4548(3)
N4D N 0.14301(19) 0.58165(14) 0.3850(3)
N4C N 0.35699(19) 0.58165(14) -0.1150(3)
N5G N 0.1796(2) 0.52700(15) 0.1050(4)
N5_2 N 0.3204(2) 0.52700(15) -0.3950(4)
C1D C -0.2122(3) 0.58024(19) 0.5261(5)
H1D H -0.2389 0.5576 0.4697
C2D C -0.1972(3) 0.6326(2) 0.4823(4)
H2D H -0.2118 0.6440 0.3975
C3D C -0.1608(2) 0.66829(16) 0.5633(4)
C4D C -0.1432(3) 0.64925(17) 0.6902(4)
H3D H -0.1208 0.6724 0.7518
C5D C -0.1601(3) 0.59421(19) 0.7235(4)
H4D H -0.1480 0.5817 0.8088
C6D C -0.1390(2) 0.72460(15) 0.5125(4)
C7D C -0.0840(2) 0.81247(16) 0.5686(4)
C8D C -0.1120(3) 0.86299(16) 0.6108(4)
H5D H -0.1533 0.8636 0.6618
C9D C -0.0793(3) 0.91171(18) 0.5778(5)
H6D H -0.0983 0.9453 0.6068
C10D C -0.0201(3) 0.91151(18) 0.5039(5)
H7D H 0.0014 0.9450 0.4810
C11D C 0.0096(2) 0.86205(16) 0.4611(4)
H8D H 0.0505 0.8623 0.4089
C12D C -0.0216(2) 0.81263(14) 0.4960(4)
C13D C 0.0346(2) 0.72416(16) 0.5448(4)
C14D C 0.0708(2) 0.67423(16) 0.4859(4)
C15D C 0.0592(3) 0.65556(19) 0.3573(4)
H9D H 0.0271 0.6737 0.3018
C16D C 0.0960(3) 0.6093(2) 0.3113(5)
H10D H 0.0872 0.5970 0.2243
C17D C 0.1520(3) 0.5999(2) 0.5080(4)
H11D H 0.1840 0.5809 0.5623
C18D C 0.1177(3) 0.6448(2) 0.5623(4)
H12D H 0.1263 0.6551 0.6508
C19G C 0.1765(2) 0.53771(17) -0.0084(4)
O3 O 0.0000 0.5000 0.5000
O4 O 0.7500 0.2500 0.4455(8)
H13 H 0.7618 0.2718 0.3842
H13A H 0.7382 0.2282 0.3842
loop_
_geom_bond_atom_site_label_1
_geom_bond_atom_site_label_2
_geom_bond_site_symmetry_1
_geom_bond_site_symmetry_2
Cu1 S1 1_555 1_555
S1 C19 1_555 1_555
O1 C6 1_555 1_555
O2 C13 1_555 1_555
N1 Cu1 1_555 1_555
N2 C6 1_555 1_555
N3 C12 1_555 1_555
N4 C16 1_555 1_555
N5 C19 1_555 1_555
C1 N1 1_555 1_555
H1 C1 1_555 1_555
C2 C1 1_555 1_555
H2 C2 1_555 1_555
C3 C2 1_555 1_555
C4 C3 1_555 1_555
H3 C4 1_555 1_555
C5 N1 1_555 1_555
H4 C5 1_555 1_555
C6 C3 1_555 1_555
C7 N2 1_555 1_555
C8 C7 1_555 1_555
H5 C8 1_555 1_555
C9 C8 1_555 1_555
H6 C9 1_555 1_555
C10 C9 1_555 1_555
H7 C10 1_555 1_555
C11 C10 1_555 1_555
H8 C11 1_555 1_555
C12 C7 1_555 1_555
C13 N3 1_555 1_555
C14 C13 1_555 1_555
C15 C14 1_555 1_555
H9 C15 1_555 1_555
C16 C15 1_555 1_555
H10 C16 1_555 1_555
C17 N4 1_555 1_555
H11 C17 1_555 1_555
C18 C14 1_555 1_555
H12 C18 1_555 1_555
O4 H13 1_555 1_555
Cu1G S1G 1_555 1_555
Cu1D N4 1_555 1_555
Cu1G_2 N5 1_555 1_555
S1G C19G 1_555 1_555
O1D C6D 1_555 1_555
O2D C13D 1_555 1_555
N1D Cu1D 1_555 1_555
N1G Cu1G 1_555 1_555
N2D C6D 1_555 1_555
N3D C12D 1_555 1_555
N4D Cu1 1_555 1_555
N4C Cu1G 1_555 1_555
N5G Cu1 1_555 1_555
N5_2 Cu1G 1_555 1_555
C1D N1D 1_555 1_555
H1D C1D 1_555 1_555
C2D C1D 1_555 1_555
H2D C2D 1_555 1_555
C3D C2D 1_555 1_555
C4D C3D 1_555 1_555
H3D C4D 1_555 1_555
C5D N1D 1_555 1_555
H4D C5D 1_555 1_555
C6D C3D 1_555 1_555
C7D N2D 1_555 1_555
C8D C7D 1_555 1_555
H5D C8D 1_555 1_555
C9D C8D 1_555 1_555
H6D C9D 1_555 1_555
C10D C9D 1_555 1_555
H7D C10D 1_555 1_555
C11D C10D 1_555 1_555
H8D C11D 1_555 1_555
C12D C7D 1_555 1_555
C13D N3D 1_555 1_555
C14D C13D 1_555 1_555
C15D C14D 1_555 1_555
H9D C15D 1_555 1_555
C16D N4D 1_555 1_555
H10D C16D 1_555 1_555
C17D N4D 1_555 1_555
H11D C17D 1_555 1_555
C18D C14D 1_555 1_555
H12D C18D 1_555 1_555
C19G N5G 1_555 1_555
H13A O4 1_555 1_555
C4 C5 1_555 1_555
C11 C12 1_555 1_555
C17 C18 1_555 1_555
C4D C5D 1_555 1_555
C11D C12D 1_555 1_555
C15D C16D 1_555 1_555
C17D C18D 1_555 1_555

#END
