
#######################################################################
#
#                 Cambridge Crystallographic Data Centre
#                                CCDC 
#
#######################################################################
#
# If this CIF has been generated from an entry in the Cambridge 
# Structural Database, then it will include bibliographic, chemical, 
# crystal, experimental, refinement or atomic coordinate data resulting 
# from the CCDC's data processing and validation procedures.
#
#######################################################################

data_SOTWUV
_symmetry_cell_setting           monoclinic
_symmetry_space_group_name_H-M   'C 2/c'
_symmetry_Int_Tables_number      15
_space_group_name_Hall           '-C 2yn'
loop_
_symmetry_equiv_pos_site_id
_symmetry_equiv_pos_as_xyz
1 x,y,z
2 -x,y,1/2-z
3 1/2+x,1/2+y,z
4 1/2-x,1/2+y,1/2-z
5 -x,-y,-z
6 x,-y,1/2+z
7 1/2-x,1/2-y,-z
8 1/2+x,1/2-y,1/2+z
_cell_length_a                   22.214(4)
_cell_length_b                   13.407(3)
_cell_length_c                   14.781(3)
_cell_angle_alpha                90
_cell_angle_beta                 97.20(3)
_cell_angle_gamma                90
_cell_volume                     4367.41
loop_
_atom_site_label
_atom_site_type_symbol
_atom_site_fract_x
_atom_site_fract_y
_atom_site_fract_z
Tb1 Tb 0.330844(8) 0.319076(15) 0.527236(13)
O1 O 0.21218(19) 0.3286(3) 0.4336(3)
O2 O 0.28611(17) 0.4286(3) 0.4104(3)
O3 O 0.26057(15) 0.6249(3) 0.1208(3)
O4 O 0.17689(16) 0.7183(3) 0.1040(2)
C1 C 0.0915(2) 0.5099(4) 0.2575(3)
C2 C 0.1290(2) 0.4508(4) 0.3186(4)
H1 H 0.1119 0.4066 0.3566
C3 C 0.1915(2) 0.4576(4) 0.3230(3)
C4 C 0.21687(19) 0.5205(4) 0.2635(3)
H2 H 0.2588 0.5232 0.2648
C5 C 0.1806(2) 0.5788(4) 0.2024(3)
C6 C 0.1181(2) 0.5757(4) 0.2007(3)
H3 H 0.0937 0.6176 0.1615
C7 C 0.0269(2) 0.5059(4) 0.2533(4)
C8 C 0.2328(2) 0.4008(4) 0.3931(3)
C9 C 0.2079(2) 0.6460(4) 0.1371(3)
O5 O 0.3627(3) 0.4828(6) 0.5767(5)
N1 N 0.3365(4) 0.6346(7) 0.6388(6)
C10 C 0.3268(5) 0.5526(9) 0.5884(8)
H4 H 0.2879 0.5461 0.5573
C11 C 0.2917(5) 0.7066(9) 0.6514(8)
H5 H 0.3092 0.7579 0.6918
H6 H 0.2590 0.6753 0.6774
H7 H 0.2765 0.7356 0.5936
C12 C 0.3940(5) 0.6299(9) 0.6811(8)
H8 H 0.4031 0.6895 0.7160
H9 H 0.4216 0.6238 0.6363
H10 H 0.3982 0.5730 0.7208
O6 O 0.3815(3) 0.3003(5) 0.6768(5)
N2 N 0.4116(4) 0.3355(6) 0.8248(6)
C13 C 0.3789(5) 0.3410(8) 0.7482(7)
H11 H 0.3466 0.3851 0.7475
C14 C 0.4511(5) 0.2473(7) 0.8329(7)
H12 H 0.4693 0.2402 0.8950
H13 H 0.4824 0.2551 0.7941
H14 H 0.4275 0.1890 0.8149
C15 C 0.4021(5) 0.3876(7) 0.9056(7)
H15 H 0.4284 0.3610 0.9563
H16 H 0.3606 0.3798 0.9163
H17 H 0.4107 0.4571 0.8986
N3 N 0.4471(2) 0.2770(5) 0.4674(4)
O7 O 0.4200(2) 0.3579(4) 0.4514(4)
O8 O 0.4259(2) 0.2192(4) 0.5225(3)
O9 O 0.4912(3) 0.2527(6) 0.4302(5)
O1A O -0.21218(19) 0.3286(3) 0.0664(3)
O2A O -0.28611(17) 0.4286(3) 0.0896(3)
O3A O -0.26057(15) 0.6249(3) 0.3792(3)
O4A O -0.17689(16) 0.7183(3) 0.3960(2)
C1A C -0.0915(2) 0.5099(4) 0.2425(3)
C2A C -0.1290(2) 0.4508(4) 0.1814(4)
H1A H -0.1119 0.4066 0.1434
C3A C -0.1915(2) 0.4576(4) 0.1770(3)
C4A C -0.21687(19) 0.5205(4) 0.2365(3)
H2A H -0.2588 0.5232 0.2352
C5A C -0.1806(2) 0.5788(4) 0.2976(3)
C6A C -0.1181(2) 0.5757(4) 0.2993(3)
H3A H -0.0937 0.6176 0.3385
C7A C -0.0269(2) 0.5059(4) 0.2467(4)
C8A C -0.2328(2) 0.4008(4) 0.1069(3)
C9A C -0.2079(2) 0.6460(4) 0.3629(3)
Tb1A Tb -0.330844(8) 0.319076(15) -0.027236(13)
O5A O -0.3627(3) 0.4828(6) -0.0767(5)
N1A N -0.3365(4) 0.6346(7) -0.1388(6)
C10A C -0.3268(5) 0.5526(9) -0.0884(8)
H4A H -0.2879 0.5461 -0.0573
C11A C -0.2917(5) 0.7066(9) -0.1514(8)
H5A H -0.3092 0.7579 -0.1918
H6A H -0.2590 0.6753 -0.1774
H7A H -0.2765 0.7356 -0.0936
C12A C -0.3940(5) 0.6299(9) -0.1811(8)
H8A H -0.4031 0.6895 -0.2160
H9A H -0.4216 0.6238 -0.1363
H10A H -0.3982 0.5730 -0.2208
O6A O -0.3815(3) 0.3003(5) -0.1768(5)
N2A N -0.4116(4) 0.3355(6) -0.3248(6)
C13A C -0.3789(5) 0.3410(8) -0.2482(7)
H11A H -0.3466 0.3851 -0.2475
C14A C -0.4511(5) 0.2473(7) -0.3329(7)
H12A H -0.4693 0.2402 -0.3950
H13A H -0.4824 0.2551 -0.2941
H14A H -0.4275 0.1890 -0.3149
C15A C -0.4021(5) 0.3876(7) -0.4056(7)
H15A H -0.4284 0.3610 -0.4563
H16A H -0.3606 0.3798 -0.4163
H17A H -0.4107 0.4571 -0.3986
N3A N -0.4471(2) 0.2770(5) 0.0326(4)
O7A O -0.4200(2) 0.3579(4) 0.0486(4)
O8A O -0.4259(2) 0.2192(4) -0.0225(3)
O9A O -0.4912(3) 0.2527(6) 0.0698(5)
Tb1B Tb -0.169156(8) 0.819076(15) 0.527236(13)
Tb1C Tb 0.169156(8) 0.819076(15) -0.027236(13)
Tb1D Tb -0.330844(8) 0.680924(15) 0.472764(13)
Tb1E Tb 0.330844(8) 0.680924(15) 0.027236(13)
Tb1F Tb 0.169156(8) 0.180924(15) 0.472764(13)
Tb1G Tb -0.169156(8) 0.180924(15) 0.027236(13)
O1F O 0.28782(19) 0.1714(3) 0.5664(3)
O1G O -0.28782(19) 0.1714(3) -0.0664(3)
O3D O -0.26057(15) 0.3751(3) -0.1208(3)
O3E O 0.26057(15) 0.3751(3) 0.6208(3)
O4B O -0.32311(16) 0.2183(3) 0.1040(2)
O4C O 0.32311(16) 0.2183(3) 0.3960(2)
loop_
_geom_bond_atom_site_label_1
_geom_bond_atom_site_label_2
_geom_bond_site_symmetry_1
_geom_bond_site_symmetry_2
Tb1 O1 1_555 1_555
O1 C8 1_555 1_555
O2 Tb1 1_555 1_555
O3 C9 1_555 1_555
O4 C9 1_555 1_555
C1 C2 1_555 1_555
C2 H1 1_555 1_555
C3 C2 1_555 1_555
C4 C3 1_555 1_555
H2 C4 1_555 1_555
C5 C4 1_555 1_555
C6 C1 1_555 1_555
H3 C6 1_555 1_555
C7 C1 1_555 1_555
C8 O2 1_555 1_555
C9 C5 1_555 1_555
O5 Tb1 1_555 1_555
N1 C10 1_555 1_555
C10 O5 1_555 1_555
H4 C10 1_555 1_555
C11 N1 1_555 1_555
H5 C11 1_555 1_555
H6 C11 1_555 1_555
H7 C11 1_555 1_555
C12 N1 1_555 1_555
H8 C12 1_555 1_555
H9 C12 1_555 1_555
H10 C12 1_555 1_555
O6 Tb1 1_555 1_555
N2 C13 1_555 1_555
C13 O6 1_555 1_555
H11 C13 1_555 1_555
C14 N2 1_555 1_555
H12 C14 1_555 1_555
H13 C14 1_555 1_555
H14 C14 1_555 1_555
C15 N2 1_555 1_555
H15 C15 1_555 1_555
H16 C15 1_555 1_555
H17 C15 1_555 1_555
N3 O7 1_555 1_555
O7 Tb1 1_555 1_555
O8 Tb1 1_555 1_555
O9 N3 1_555 1_555
O1A C8A 1_555 1_555
O2A C8A 1_555 1_555
O3A C9A 1_555 1_555
O4A C9A 1_555 1_555
C1A C2A 1_555 1_555
C2A H1A 1_555 1_555
C3A C2A 1_555 1_555
C4A C3A 1_555 1_555
H2A C4A 1_555 1_555
C5A C4A 1_555 1_555
C6A C1A 1_555 1_555
H3A C6A 1_555 1_555
C7A C7 1_555 1_555
C8A C3A 1_555 1_555
C9A C5A 1_555 1_555
Tb1A O1A 1_555 1_555
O5A Tb1A 1_555 1_555
N1A C10A 1_555 1_555
C10A O5A 1_555 1_555
H4A C10A 1_555 1_555
C11A N1A 1_555 1_555
H5A C11A 1_555 1_555
H6A C11A 1_555 1_555
H7A C11A 1_555 1_555
C12A N1A 1_555 1_555
H8A C12A 1_555 1_555
H9A C12A 1_555 1_555
H10A C12A 1_555 1_555
O6A Tb1A 1_555 1_555
N2A C13A 1_555 1_555
C13A O6A 1_555 1_555
H11A C13A 1_555 1_555
C14A N2A 1_555 1_555
H12A C14A 1_555 1_555
H13A C14A 1_555 1_555
H14A C14A 1_555 1_555
C15A N2A 1_555 1_555
H15A C15A 1_555 1_555
H16A C15A 1_555 1_555
H17A C15A 1_555 1_555
N3A O7A 1_555 1_555
O7A Tb1A 1_555 1_555
O8A Tb1A 1_555 1_555
O9A N3A 1_555 1_555
Tb1B O4A 1_555 1_555
Tb1C O4 1_555 1_555
Tb1D O3A 1_555 1_555
Tb1E O3 1_555 1_555
Tb1F O1 1_555 1_555
Tb1G O1A 1_555 1_555
O1F Tb1 1_555 1_555
O1G Tb1A 1_555 1_555
O3D Tb1A 1_555 1_555
O3E Tb1 1_555 1_555
O4B Tb1A 1_555 1_555
O4C Tb1 1_555 1_555
C3 C8 1_555 1_555
C5 C6 1_555 1_555
N3 O8 1_555 1_555
O2A Tb1A 1_555 1_555
C1A C7A 1_555 1_555
C5A C6A 1_555 1_555
N3A O8A 1_555 1_555
Tb1F O1F 1_555 1_555
Tb1G O1G 1_555 1_555

#END
