
#######################################################################
#
#                 Cambridge Crystallographic Data Centre
#                                CCDC 
#
#######################################################################
#
# If this CIF has been generated from an entry in the Cambridge 
# Structural Database, then it will include bibliographic, chemical, 
# crystal, experimental, refinement or atomic coordinate data resulting 
# from the CCDC's data processing and validation procedures.
#
#######################################################################

data_SOTWOP
_symmetry_cell_setting           monoclinic
_symmetry_space_group_name_H-M   'C 2/c'
_symmetry_Int_Tables_number      15
_space_group_name_Hall           '-C 2yn'
loop_
_symmetry_equiv_pos_site_id
_symmetry_equiv_pos_as_xyz
1 x,y,z
2 -x,y,1/2-z
3 1/2+x,1/2+y,z
4 1/2-x,1/2+y,1/2-z
5 -x,-y,-z
6 x,-y,1/2+z
7 1/2-x,1/2-y,-z
8 1/2+x,1/2-y,1/2+z
_cell_length_a                   22.348(5)
_cell_length_b                   13.357(3)
_cell_length_c                   15.002(3)
_cell_angle_alpha                90
_cell_angle_beta                 97.35(3)
_cell_angle_gamma                90
_cell_volume                     4441.33
loop_
_atom_site_label
_atom_site_type_symbol
_atom_site_fract_x
_atom_site_fract_y
_atom_site_fract_z
Eu1 Eu 0.330597(12) 0.32038(2) 0.527188(17)
O1 O 0.2136(2) 0.3310(3) 0.4346(3)
O2 O 0.2866(2) 0.4322(4) 0.4086(3)
O3 O 0.2593(2) 0.6237(4) 0.1214(3)
O4 O 0.1761(2) 0.7175(4) 0.1032(3)
C1 C 0.0919(3) 0.5099(5) 0.2581(4)
C2 C 0.1287(3) 0.4519(5) 0.3199(4)
H1 H 0.1116 0.4088 0.3583
C3 C 0.1914(3) 0.4588(4) 0.3240(4)
C4 C 0.2164(3) 0.5203(5) 0.2635(4)
H2 H 0.2581 0.5228 0.2645
C5 C 0.1797(3) 0.5779(5) 0.2018(4)
C6 C 0.1174(3) 0.5750(5) 0.2006(4)
H3 H 0.0928 0.6163 0.1617
C7 C 0.0271(3) 0.5063(5) 0.2528(4)
C8 C 0.2336(3) 0.4039(5) 0.3936(4)
C9 C 0.2078(3) 0.6452(5) 0.1376(4)
O5 O 0.3615(4) 0.4861(7) 0.5761(6)
N1 N 0.3308(5) 0.6413(9) 0.6354(7)
C10 C 0.3238(7) 0.5547(11) 0.5865(9)
H4 H 0.2853 0.5445 0.5562
C11 C 0.2862(6) 0.7171(11) 0.6451(9)
H5 H 0.3019 0.7634 0.6912
H6 H 0.2504 0.6862 0.6614
H7 H 0.2767 0.7522 0.5893
C12 C 0.3911(6) 0.6398(11) 0.6794(9)
H8 H 0.3980 0.6976 0.7173
H9 H 0.4187 0.6404 0.6353
H10 H 0.3974 0.5803 0.7153
O6 O 0.3822(4) 0.3028(5) 0.6762(5)
N2 N 0.4105(5) 0.3357(6) 0.8247(6)
C13 C 0.3789(6) 0.3442(9) 0.7485(8)
H11 H 0.3475 0.3901 0.7472
C14 C 0.4509(5) 0.2497(8) 0.8327(7)
H12 H 0.4683 0.2421 0.8942
H13 H 0.4824 0.2599 0.7957
H14 H 0.4285 0.1905 0.8134
C15 C 0.3995(5) 0.3846(9) 0.9038(7)
H15 H 0.4273 0.3609 0.9533
H16 H 0.3590 0.3710 0.9151
H17 H 0.4046 0.4555 0.8970
N3 N 0.4482(3) 0.2769(6) 0.4699(5)
O7 O 0.4214(3) 0.3599(5) 0.4534(5)
O8 O 0.4264(3) 0.2205(5) 0.5232(4)
O9 O 0.4906(3) 0.2503(7) 0.4320(5)
O1A O -0.2136(2) 0.3310(3) 0.0654(3)
O2A O -0.2866(2) 0.4322(4) 0.0914(3)
O3A O -0.2593(2) 0.6237(4) 0.3786(3)
O4A O -0.1761(2) 0.7175(4) 0.3968(3)
C1A C -0.0919(3) 0.5099(5) 0.2419(4)
C2A C -0.1287(3) 0.4519(5) 0.1801(4)
H1A H -0.1116 0.4088 0.1417
C3A C -0.1914(3) 0.4588(4) 0.1760(4)
C4A C -0.2164(3) 0.5203(5) 0.2365(4)
H2A H -0.2581 0.5228 0.2355
C5A C -0.1797(3) 0.5779(5) 0.2982(4)
C6A C -0.1174(3) 0.5750(5) 0.2994(4)
H3A H -0.0928 0.6163 0.3383
C7A C -0.0271(3) 0.5063(5) 0.2472(4)
C8A C -0.2336(3) 0.4039(5) 0.1064(4)
C9A C -0.2078(3) 0.6452(5) 0.3624(4)
Eu1A Eu -0.330597(12) 0.32038(2) -0.027188(17)
O5A O -0.3615(4) 0.4861(7) -0.0761(6)
N1A N -0.3308(5) 0.6413(9) -0.1354(7)
C10A C -0.3238(7) 0.5547(11) -0.0865(9)
H4A H -0.2853 0.5445 -0.0562
C11A C -0.2862(6) 0.7171(11) -0.1451(9)
H5A H -0.3019 0.7634 -0.1912
H6A H -0.2504 0.6862 -0.1614
H7A H -0.2767 0.7522 -0.0893
C12A C -0.3911(6) 0.6398(11) -0.1794(9)
H8A H -0.3980 0.6976 -0.2173
H9A H -0.4187 0.6404 -0.1353
H10A H -0.3974 0.5803 -0.2153
O6A O -0.3822(4) 0.3028(5) -0.1762(5)
N2A N -0.4105(5) 0.3357(6) -0.3247(6)
C13A C -0.3789(6) 0.3442(9) -0.2485(8)
H11A H -0.3475 0.3901 -0.2472
C14A C -0.4509(5) 0.2497(8) -0.3327(7)
H12A H -0.4683 0.2421 -0.3942
H13A H -0.4824 0.2599 -0.2957
H14A H -0.4285 0.1905 -0.3134
C15A C -0.3995(5) 0.3846(9) -0.4038(7)
H15A H -0.4273 0.3609 -0.4533
H16A H -0.3590 0.3710 -0.4151
H17A H -0.4046 0.4555 -0.3970
N3A N -0.4482(3) 0.2769(6) 0.0301(5)
O7A O -0.4214(3) 0.3599(5) 0.0466(5)
O8A O -0.4264(3) 0.2205(5) -0.0232(4)
O9A O -0.4906(3) 0.2503(7) 0.0680(5)
Eu1B Eu -0.169403(12) 0.82038(2) 0.527188(17)
Eu1C Eu 0.169403(12) 0.82038(2) -0.027188(17)
Eu1D Eu -0.330597(12) 0.67962(2) 0.472812(17)
Eu1E Eu 0.330597(12) 0.67962(2) 0.027188(17)
Eu1F Eu 0.169403(12) 0.17962(2) 0.472812(17)
Eu1G Eu -0.169403(12) 0.17962(2) 0.027188(17)
O1F O 0.2864(2) 0.1690(3) 0.5654(3)
O1G O -0.2864(2) 0.1690(3) -0.0654(3)
O3D O -0.2593(2) 0.3763(4) -0.1214(3)
O3E O 0.2593(2) 0.3763(4) 0.6214(3)
O4B O -0.3239(2) 0.2175(4) 0.1032(3)
O4C O 0.3239(2) 0.2175(4) 0.3968(3)
loop_
_geom_bond_atom_site_label_1
_geom_bond_atom_site_label_2
_geom_bond_site_symmetry_1
_geom_bond_site_symmetry_2
Eu1 O1 1_555 1_555
O1 C8 1_555 1_555
O2 Eu1 1_555 1_555
O3 C9 1_555 1_555
O4 C9 1_555 1_555
C1 C2 1_555 1_555
C2 H1 1_555 1_555
C3 C2 1_555 1_555
C4 C3 1_555 1_555
H2 C4 1_555 1_555
C5 C4 1_555 1_555
C6 C1 1_555 1_555
H3 C6 1_555 1_555
C7 C1 1_555 1_555
C8 O2 1_555 1_555
C9 C5 1_555 1_555
O5 Eu1 1_555 1_555
N1 C10 1_555 1_555
C10 O5 1_555 1_555
H4 C10 1_555 1_555
C11 N1 1_555 1_555
H5 C11 1_555 1_555
H6 C11 1_555 1_555
H7 C11 1_555 1_555
C12 N1 1_555 1_555
H8 C12 1_555 1_555
H9 C12 1_555 1_555
H10 C12 1_555 1_555
O6 Eu1 1_555 1_555
N2 C13 1_555 1_555
C13 O6 1_555 1_555
H11 C13 1_555 1_555
C14 N2 1_555 1_555
H12 C14 1_555 1_555
H13 C14 1_555 1_555
H14 C14 1_555 1_555
C15 N2 1_555 1_555
H15 C15 1_555 1_555
H16 C15 1_555 1_555
H17 C15 1_555 1_555
N3 O7 1_555 1_555
O7 Eu1 1_555 1_555
O8 Eu1 1_555 1_555
O9 N3 1_555 1_555
O1A C8A 1_555 1_555
O2A C8A 1_555 1_555
O3A C9A 1_555 1_555
O4A C9A 1_555 1_555
C1A C2A 1_555 1_555
C2A H1A 1_555 1_555
C3A C2A 1_555 1_555
C4A C3A 1_555 1_555
H2A C4A 1_555 1_555
C5A C4A 1_555 1_555
C6A C1A 1_555 1_555
H3A C6A 1_555 1_555
C7A C7 1_555 1_555
C8A C3A 1_555 1_555
C9A C5A 1_555 1_555
Eu1A O1A 1_555 1_555
O5A Eu1A 1_555 1_555
N1A C10A 1_555 1_555
C10A O5A 1_555 1_555
H4A C10A 1_555 1_555
C11A N1A 1_555 1_555
H5A C11A 1_555 1_555
H6A C11A 1_555 1_555
H7A C11A 1_555 1_555
C12A N1A 1_555 1_555
H8A C12A 1_555 1_555
H9A C12A 1_555 1_555
H10A C12A 1_555 1_555
O6A Eu1A 1_555 1_555
N2A C13A 1_555 1_555
C13A O6A 1_555 1_555
H11A C13A 1_555 1_555
C14A N2A 1_555 1_555
H12A C14A 1_555 1_555
H13A C14A 1_555 1_555
H14A C14A 1_555 1_555
C15A N2A 1_555 1_555
H15A C15A 1_555 1_555
H16A C15A 1_555 1_555
H17A C15A 1_555 1_555
N3A O7A 1_555 1_555
O7A Eu1A 1_555 1_555
O8A Eu1A 1_555 1_555
O9A N3A 1_555 1_555
Eu1B O4A 1_555 1_555
Eu1C O4 1_555 1_555
Eu1D O3A 1_555 1_555
Eu1E O3 1_555 1_555
Eu1F O1 1_555 1_555
Eu1G O1A 1_555 1_555
O1F Eu1 1_555 1_555
O1G Eu1A 1_555 1_555
O3D Eu1A 1_555 1_555
O3E Eu1 1_555 1_555
O4B Eu1A 1_555 1_555
O4C Eu1 1_555 1_555
C3 C8 1_555 1_555
C5 C6 1_555 1_555
N3 O8 1_555 1_555
O2A Eu1A 1_555 1_555
C1A C7A 1_555 1_555
C5A C6A 1_555 1_555
N3A O8A 1_555 1_555
Eu1F O1F 1_555 1_555
Eu1G O1G 1_555 1_555

#END
