
#######################################################################
#
#                 Cambridge Crystallographic Data Centre
#                                CCDC 
#
#######################################################################
#
# If this CIF has been generated from an entry in the Cambridge 
# Structural Database, then it will include bibliographic, chemical, 
# crystal, experimental, refinement or atomic coordinate data resulting 
# from the CCDC's data processing and validation procedures.
#
#######################################################################

data_SOTXEG
_symmetry_cell_setting           monoclinic
_symmetry_space_group_name_H-M   'C 2/c'
_symmetry_Int_Tables_number      15
_space_group_name_Hall           '-C 2yn'
loop_
_symmetry_equiv_pos_site_id
_symmetry_equiv_pos_as_xyz
1 x,y,z
2 -x,y,1/2-z
3 1/2+x,1/2+y,z
4 1/2-x,1/2+y,1/2-z
5 -x,-y,-z
6 x,-y,1/2+z
7 1/2-x,1/2-y,-z
8 1/2+x,1/2-y,1/2+z
_cell_length_a                   27.918(6)
_cell_length_b                   9.2881(19)
_cell_length_c                   21.422(4)
_cell_angle_alpha                90
_cell_angle_beta                 118.07(3)
_cell_angle_gamma                90
_cell_volume                     4901.44
loop_
_atom_site_label
_atom_site_type_symbol
_atom_site_fract_x
_atom_site_fract_y
_atom_site_fract_z
Yb1 Yb 0.421626(11) 0.07453(3) 0.375130(14)
O1 O 0.4369(2) 0.1204(6) 0.4854(2)
O2 O 0.4953(2) 0.0107(7) 0.5841(3)
O3 O 0.3776(3) 0.0609(8) 0.7723(3)
O4 O 0.4352(2) -0.0953(6) 0.7726(3)
O5 O 0.3540(2) 0.2385(8) 0.3254(4)
O6 O 0.4663(2) 0.2891(6) 0.3943(3)
O7 O 0.4123(3) -0.1623(7) 0.4146(4)
O8 O 0.3413(3) -0.0267(9) 0.3751(4)
O9 O 0.3367(6) -0.2520(15) 0.3983(7)
N1 N 0.3098(4) 0.4390(9) 0.2720(6)
N2 N 0.5287(4) 0.4628(9) 0.4377(6)
N3 N 0.3616(5) -0.1435(14) 0.3949(6)
C1 C 0.3245(3) 0.1634(12) 0.5598(4)
C2 C 0.3607(3) 0.1428(10) 0.5331(4)
H1 H 0.3510 0.1715 0.4871
C3 C 0.4108(3) 0.0803(8) 0.5740(3)
C4 C 0.4245(3) 0.0308(8) 0.6425(3)
H2 H 0.4576 -0.0147 0.6697
C5 C 0.3885(3) 0.0502(9) 0.6688(4)
C6 C 0.3392(3) 0.1161(12) 0.6290(4)
H3 H 0.3155 0.1296 0.6479
C7 C 0.2722(4) 0.2260(13) 0.5173(4)
C8 C 0.4508(3) 0.0688(7) 0.5457(3)
C9 C 0.4014(3) 0.0016(10) 0.7422(4)
C10 C 0.3464(4) 0.3397(13) 0.2865(6)
H4 H 0.3686 0.3474 0.2652
C11 C 0.3039(8) 0.5567(19) 0.2241(10)
H5 H 0.2743 0.6175 0.2187
H6 H 0.2966 0.5184 0.1788
H7 H 0.3368 0.6119 0.2432
C12 C 0.2747(6) 0.4385(14) 0.3029(8)
H8 H 0.2495 0.5171 0.2842
H9 H 0.2957 0.4488 0.3532
H10 H 0.2551 0.3492 0.2921
C13 C 0.5124(5) 0.3299(11) 0.4279(6)
H11 H 0.5389 0.2595 0.4490
C14 C 0.5843(8) 0.512(2) 0.4826(10)
H12 H 0.5853 0.6151 0.4828
H13 H 0.6075 0.4751 0.4645
H14 H 0.5966 0.4773 0.5299
C15 C 0.4904(7) 0.5799(18) 0.4105(10)
H15 H 0.5096 0.6698 0.4233
H16 H 0.4659 0.5750 0.4301
H17 H 0.4703 0.5729 0.3599
O1F O 0.0631(2) 0.3796(6) 0.5146(2)
O2F O 0.0047(2) 0.4893(7) 0.4159(3)
O3F O 0.1224(3) 0.4391(8) 0.2277(3)
O4F O 0.0648(2) 0.5953(6) 0.2274(3)
C1F C 0.1755(3) 0.3366(12) 0.4402(4)
C2F C 0.1393(3) 0.3572(10) 0.4669(4)
H1F H 0.1490 0.3285 0.5129
C3F C 0.0892(3) 0.4197(8) 0.4260(3)
C4F C 0.0755(3) 0.4692(8) 0.3575(3)
H2F H 0.0424 0.5147 0.3303
C5F C 0.1115(3) 0.4498(9) 0.3312(4)
C6F C 0.1608(3) 0.3839(12) 0.3710(4)
H3F H 0.1845 0.3704 0.3521
C7F C 0.2278(4) 0.2740(13) 0.4827(4)
C8F C 0.0492(3) 0.4312(7) 0.4543(3)
C9F C 0.0986(3) 0.4984(10) 0.2578(4)
Yb1D Yb 0.578374(11) -0.07453(3) 0.624870(14)
O5D O 0.6460(2) -0.2385(8) 0.6746(4)
O6D O 0.5337(2) -0.2891(6) 0.6057(3)
O7D O 0.5877(3) 0.1623(7) 0.5854(4)
O8D O 0.6587(3) 0.0267(9) 0.6249(4)
O9D O 0.6633(6) 0.2520(15) 0.6017(7)
N1D N 0.6902(4) -0.4390(9) 0.7280(6)
N2D N 0.4713(4) -0.4628(9) 0.5623(6)
N3D N 0.6384(5) 0.1435(14) 0.6051(6)
C10D C 0.6536(4) -0.3397(13) 0.7135(6)
H4D H 0.6314 -0.3474 0.7348
C11D C 0.6961(8) -0.5567(19) 0.7759(10)
H5D H 0.7257 -0.6175 0.7813
H6D H 0.7034 -0.5184 0.8212
H7D H 0.6632 -0.6119 0.7568
C12D C 0.7253(6) -0.4385(14) 0.6971(8)
H8D H 0.7505 -0.5171 0.7158
H9D H 0.7043 -0.4488 0.6468
H10D H 0.7449 -0.3492 0.7079
C13D C 0.4876(5) -0.3299(11) 0.5721(6)
H11D H 0.4611 -0.2595 0.5510
C14D C 0.4157(8) -0.512(2) 0.5174(10)
H12D H 0.4147 -0.6151 0.5172
H13D H 0.3925 -0.4751 0.5355
H14D H 0.4034 -0.4773 0.4701
C15D C 0.5096(7) -0.5799(18) 0.5895(10)
H15D H 0.4904 -0.6698 0.5767
H16D H 0.5341 -0.5750 0.5699
H17D H 0.5297 -0.5729 0.6401
Yb1B Yb -0.078374(11) 0.57453(3) 0.375130(14)
Yb1C Yb 0.078374(11) 0.57453(3) 0.124870(14)
Yb1E Yb 0.421626(11) -0.07453(3) 0.875130(14)
Yb1F Yb 0.078374(11) 0.42547(3) 0.624870(14)
O1D O 0.5631(2) -0.1204(6) 0.5146(2)
O2D O 0.5047(2) -0.0107(7) 0.4159(3)
O3A O 0.6224(3) 0.0609(8) 0.7277(3)
O3E O 0.3776(3) -0.0609(8) 0.2723(3)
O4A O 0.5648(2) -0.0953(6) 0.7274(3)
O4E O 0.4352(2) 0.0953(6) 0.2726(3)
N4 N 0.0000 -0.001(6) 0.2500
O10 O 0.0000 0.164(5) 0.2500
O11 O 0.0568(13) -0.076(3) 0.2873(16)
O11A O -0.0568(13) -0.076(3) 0.2127(16)
O12 O 0.2500 0.7500 0.5000
loop_
_geom_bond_atom_site_label_1
_geom_bond_atom_site_label_2
_geom_bond_site_symmetry_1
_geom_bond_site_symmetry_2
Yb1 O1 1_555 1_555
O1 C8 1_555 1_555
O2 C8 1_555 1_555
O3 C9 1_555 1_555
O4 C9 1_555 1_555
O5 Yb1 1_555 1_555
O6 Yb1 1_555 1_555
O7 Yb1 1_555 1_555
O8 Yb1 1_555 1_555
O9 N3 1_555 1_555
N1 C10 1_555 1_555
N2 C13 1_555 1_555
N3 O7 1_555 1_555
C1 C2 1_555 1_555
C2 H1 1_555 1_555
C3 C2 1_555 1_555
C4 C3 1_555 1_555
H2 C4 1_555 1_555
C5 C4 1_555 1_555
C6 C1 1_555 1_555
H3 C6 1_555 1_555
C7 C1 1_555 1_555
C8 C3 1_555 1_555
C9 C5 1_555 1_555
C10 O5 1_555 1_555
H4 C10 1_555 1_555
C11 N1 1_555 1_555
H5 C11 1_555 1_555
H6 C11 1_555 1_555
H7 C11 1_555 1_555
C12 N1 1_555 1_555
H8 C12 1_555 1_555
H9 C12 1_555 1_555
H10 C12 1_555 1_555
C13 O6 1_555 1_555
H11 C13 1_555 1_555
C14 N2 1_555 1_555
H12 C14 1_555 1_555
H13 C14 1_555 1_555
H14 C14 1_555 1_555
C15 N2 1_555 1_555
H15 C15 1_555 1_555
H16 C15 1_555 1_555
H17 C15 1_555 1_555
N4 O10 1_555 1_555
O11 N4 1_555 1_555
O1F C8F 1_555 1_555
O2F C8F 1_555 1_555
O3F C9F 1_555 1_555
O4F C9F 1_555 1_555
C1F C2F 1_555 1_555
C2F H1F 1_555 1_555
C3F C2F 1_555 1_555
C4F C3F 1_555 1_555
H2F C4F 1_555 1_555
C5F C4F 1_555 1_555
C6F C1F 1_555 1_555
H3F C6F 1_555 1_555
C7F C7 1_555 1_555
C8F C3F 1_555 1_555
C9F C5F 1_555 1_555
Yb1D O2 1_555 1_555
O5D Yb1D 1_555 1_555
O6D Yb1D 1_555 1_555
O7D Yb1D 1_555 1_555
O8D Yb1D 1_555 1_555
O9D N3D 1_555 1_555
N1D C10D 1_555 1_555
N2D C13D 1_555 1_555
N3D O7D 1_555 1_555
C10D O5D 1_555 1_555
H4D C10D 1_555 1_555
C11D N1D 1_555 1_555
H5D C11D 1_555 1_555
H6D C11D 1_555 1_555
H7D C11D 1_555 1_555
C12D N1D 1_555 1_555
H8D C12D 1_555 1_555
H9D C12D 1_555 1_555
H10D C12D 1_555 1_555
C13D O6D 1_555 1_555
H11D C13D 1_555 1_555
C14D N2D 1_555 1_555
H12D C14D 1_555 1_555
H13D C14D 1_555 1_555
H14D C14D 1_555 1_555
C15D N2D 1_555 1_555
H15D C15D 1_555 1_555
H16D C15D 1_555 1_555
H17D C15D 1_555 1_555
Yb1B O2F 1_555 1_555
Yb1C O3F 1_555 1_555
Yb1E O3 1_555 1_555
Yb1F O1F 1_555 1_555
O1D Yb1D 1_555 1_555
O2D Yb1 1_555 1_555
O3A Yb1D 1_555 1_555
O3E Yb1 1_555 1_555
O4A Yb1D 1_555 1_555
O4E Yb1 1_555 1_555
O11A N4 1_555 1_555
O4 Yb1E 1_555 1_555
O8 N3 1_555 1_555
C5 C6 1_555 1_555
O4F Yb1C 1_555 1_555
C1F C7F 1_555 1_555
C5F C6F 1_555 1_555
O8D N3D 1_555 1_555

#END
