
#######################################################################
#
#                 Cambridge Crystallographic Data Centre
#                                CCDC 
#
#######################################################################
#
# If this CIF has been generated from an entry in the Cambridge 
# Structural Database, then it will include bibliographic, chemical, 
# crystal, experimental, refinement or atomic coordinate data resulting 
# from the CCDC's data processing and validation procedures.
#
#######################################################################

data_SOTXAC
_symmetry_cell_setting           monoclinic
_symmetry_space_group_name_H-M   'C 2/c'
_symmetry_Int_Tables_number      15
_space_group_name_Hall           '-C 2yn'
loop_
_symmetry_equiv_pos_site_id
_symmetry_equiv_pos_as_xyz
1 x,y,z
2 -x,y,1/2-z
3 1/2+x,1/2+y,z
4 1/2-x,1/2+y,1/2-z
5 -x,-y,-z
6 x,-y,1/2+z
7 1/2-x,1/2-y,-z
8 1/2+x,1/2-y,1/2+z
_cell_length_a                   22.228(4)
_cell_length_b                   13.257(3)
_cell_length_c                   14.639(3)
_cell_angle_alpha                90
_cell_angle_beta                 97.07(3)
_cell_angle_gamma                90
_cell_volume                     4280.97
loop_
_atom_site_label
_atom_site_type_symbol
_atom_site_fract_x
_atom_site_fract_y
_atom_site_fract_z
Er1 Er 0.330984(12) 0.32070(2) 0.527549(18)
O1 O 0.2090(3) 0.3271(3) 0.4317(3)
O2 O 0.2836(2) 0.4288(4) 0.4138(3)
O3 O 0.2603(2) 0.6241(4) 0.1177(3)
O4 O 0.1780(2) 0.7217(4) 0.1032(3)
C1 C 0.0916(3) 0.5138(5) 0.2582(5)
C2 C 0.1279(3) 0.4550(6) 0.3197(5)
H1 H 0.1103 0.4120 0.3591
C3 C 0.1904(3) 0.4594(5) 0.3235(4)
C4 C 0.2157(3) 0.5224(5) 0.2630(5)
H2 H 0.2576 0.5253 0.2646
C5 C 0.1800(3) 0.5802(5) 0.2013(4)
C6 C 0.1177(3) 0.5789(5) 0.1986(5)
H3 H 0.0936 0.6204 0.1581
C7 C 0.0276(3) 0.5121(5) 0.2537(5)
C8 C 0.2299(3) 0.3993(5) 0.3932(4)
C9 C 0.2088(3) 0.6483(5) 0.1354(5)
O5 O 0.3613(4) 0.4831(7) 0.5754(6)
N1 N 0.3338(5) 0.6363(9) 0.6333(7)
C10 C 0.3237(7) 0.5536(11) 0.5842(9)
H4 H 0.2850 0.5460 0.5525
C11 C 0.2873(6) 0.7085(10) 0.6414(10)
H5 H 0.3014 0.7574 0.6875
H6 H 0.2521 0.6749 0.6588
H7 H 0.2769 0.7419 0.5834
C12 C 0.3906(6) 0.6456(11) 0.6842(9)
H8 H 0.3929 0.7087 0.7166
H9 H 0.4213 0.6433 0.6436
H10 H 0.3967 0.5912 0.7276
O6 O 0.3810(5) 0.3035(7) 0.6750(7)
N2 N 0.4128(6) 0.3339(8) 0.8264(8)
C13 C 0.3787(7) 0.3413(11) 0.7462(11)
H11 H 0.3463 0.3856 0.7468
C14 C 0.4471(7) 0.2417(10) 0.8302(9)
H12 H 0.4696 0.2345 0.8901
H13 H 0.4747 0.2435 0.7846
H14 H 0.4200 0.1856 0.8183
C15 C 0.4115(7) 0.3888(11) 0.9093(9)
H15 H 0.4329 0.3520 0.9596
H16 H 0.3701 0.3984 0.9203
H17 H 0.4304 0.4533 0.9041
N3 N 0.4461(3) 0.2820(8) 0.4668(6)
O7 O 0.4170(3) 0.3631(5) 0.4511(5)
O8 O 0.4249(3) 0.2229(6) 0.5213(5)
O9 O 0.4885(3) 0.2570(8) 0.4272(6)
O1A O -0.2090(3) 0.3271(3) 0.0683(3)
O2A O -0.2836(2) 0.4288(4) 0.0862(3)
O3A O -0.2603(2) 0.6241(4) 0.3823(3)
O4A O -0.1780(2) 0.7217(4) 0.3968(3)
C1A C -0.0916(3) 0.5138(5) 0.2418(5)
C2A C -0.1279(3) 0.4550(6) 0.1803(5)
H1A H -0.1103 0.4120 0.1409
C3A C -0.1904(3) 0.4594(5) 0.1765(4)
C4A C -0.2157(3) 0.5224(5) 0.2370(5)
H2A H -0.2576 0.5253 0.2354
C5A C -0.1800(3) 0.5802(5) 0.2987(4)
C6A C -0.1177(3) 0.5789(5) 0.3014(5)
H3A H -0.0936 0.6204 0.3419
C7A C -0.0276(3) 0.5121(5) 0.2463(5)
C8A C -0.2299(3) 0.3993(5) 0.1068(4)
C9A C -0.2088(3) 0.6483(5) 0.3646(5)
Er1A Er -0.330984(12) 0.32070(2) -0.027549(18)
O5A O -0.3613(4) 0.4831(7) -0.0754(6)
N1A N -0.3338(5) 0.6363(9) -0.1333(7)
C10A C -0.3237(7) 0.5536(11) -0.0842(9)
H4A H -0.2850 0.5460 -0.0525
C11A C -0.2873(6) 0.7085(10) -0.1414(10)
H5A H -0.3014 0.7574 -0.1875
H6A H -0.2521 0.6749 -0.1588
H7A H -0.2769 0.7419 -0.0834
C12A C -0.3906(6) 0.6456(11) -0.1842(9)
H8A H -0.3929 0.7087 -0.2166
H9A H -0.4213 0.6433 -0.1436
H10A H -0.3967 0.5912 -0.2276
O6A O -0.3810(5) 0.3035(7) -0.1750(7)
N2A N -0.4128(6) 0.3339(8) -0.3264(8)
C13A C -0.3787(7) 0.3413(11) -0.2462(11)
H11A H -0.3463 0.3856 -0.2468
C14A C -0.4471(7) 0.2417(10) -0.3302(9)
H12A H -0.4696 0.2345 -0.3901
H13A H -0.4747 0.2435 -0.2846
H14A H -0.4200 0.1856 -0.3183
C15A C -0.4115(7) 0.3888(11) -0.4093(9)
H15A H -0.4329 0.3520 -0.4596
H16A H -0.3701 0.3984 -0.4203
H17A H -0.4304 0.4533 -0.4041
N3A N -0.4461(3) 0.2820(8) 0.0332(6)
O7A O -0.4170(3) 0.3631(5) 0.0489(5)
O8A O -0.4249(3) 0.2229(6) -0.0213(5)
O9A O -0.4885(3) 0.2570(8) 0.0728(6)
Er1B Er -0.169016(12) 0.82070(2) 0.527549(18)
Er1C Er 0.169016(12) 0.82070(2) -0.027549(18)
Er1D Er -0.330984(12) 0.67930(2) 0.472451(18)
Er1E Er 0.330984(12) 0.67930(2) 0.027549(18)
Er1F Er 0.169016(12) 0.17930(2) 0.472451(18)
Er1G Er -0.169016(12) 0.17930(2) 0.027549(18)
O1F O 0.2910(3) 0.1729(3) 0.5683(3)
O1G O -0.2910(3) 0.1729(3) -0.0683(3)
O3D O -0.2603(2) 0.3759(4) -0.1177(3)
O3E O 0.2603(2) 0.3759(4) 0.6177(3)
O4B O -0.3220(2) 0.2217(4) 0.1032(3)
O4C O 0.3220(2) 0.2217(4) 0.3968(3)
loop_
_geom_bond_atom_site_label_1
_geom_bond_atom_site_label_2
_geom_bond_site_symmetry_1
_geom_bond_site_symmetry_2
Er1 O2 1_555 1_555
O1 C8 1_555 1_555
O2 C8 1_555 1_555
O3 C9 1_555 1_555
O4 C9 1_555 1_555
C1 C2 1_555 1_555
C2 H1 1_555 1_555
C3 C2 1_555 1_555
C4 C3 1_555 1_555
H2 C4 1_555 1_555
C5 C4 1_555 1_555
C6 C1 1_555 1_555
H3 C6 1_555 1_555
C7 C1 1_555 1_555
C8 C3 1_555 1_555
C9 C5 1_555 1_555
O5 Er1 1_555 1_555
N1 C10 1_555 1_555
C10 O5 1_555 1_555
H4 C10 1_555 1_555
C11 N1 1_555 1_555
H5 C11 1_555 1_555
H6 C11 1_555 1_555
H7 C11 1_555 1_555
C12 N1 1_555 1_555
H8 C12 1_555 1_555
H9 C12 1_555 1_555
H10 C12 1_555 1_555
O6 Er1 1_555 1_555
N2 C13 1_555 1_555
C13 O6 1_555 1_555
H11 C13 1_555 1_555
C14 N2 1_555 1_555
H12 C14 1_555 1_555
H13 C14 1_555 1_555
H14 C14 1_555 1_555
C15 N2 1_555 1_555
H15 C15 1_555 1_555
H16 C15 1_555 1_555
H17 C15 1_555 1_555
N3 O7 1_555 1_555
O7 Er1 1_555 1_555
O8 Er1 1_555 1_555
O9 N3 1_555 1_555
O1A C8A 1_555 1_555
O2A C8A 1_555 1_555
O3A C9A 1_555 1_555
O4A C9A 1_555 1_555
C1A C2A 1_555 1_555
C2A H1A 1_555 1_555
C3A C2A 1_555 1_555
C4A C3A 1_555 1_555
H2A C4A 1_555 1_555
C5A C4A 1_555 1_555
C6A C1A 1_555 1_555
H3A C6A 1_555 1_555
C7A C7 1_555 1_555
C8A C3A 1_555 1_555
C9A C5A 1_555 1_555
Er1A O2A 1_555 1_555
O5A Er1A 1_555 1_555
N1A C10A 1_555 1_555
C10A O5A 1_555 1_555
H4A C10A 1_555 1_555
C11A N1A 1_555 1_555
H5A C11A 1_555 1_555
H6A C11A 1_555 1_555
H7A C11A 1_555 1_555
C12A N1A 1_555 1_555
H8A C12A 1_555 1_555
H9A C12A 1_555 1_555
H10A C12A 1_555 1_555
O6A Er1A 1_555 1_555
N2A C13A 1_555 1_555
C13A O6A 1_555 1_555
H11A C13A 1_555 1_555
C14A N2A 1_555 1_555
H12A C14A 1_555 1_555
H13A C14A 1_555 1_555
H14A C14A 1_555 1_555
C15A N2A 1_555 1_555
H15A C15A 1_555 1_555
H16A C15A 1_555 1_555
H17A C15A 1_555 1_555
N3A O7A 1_555 1_555
O7A Er1A 1_555 1_555
O8A Er1A 1_555 1_555
O9A N3A 1_555 1_555
Er1B O4A 1_555 1_555
Er1C O4 1_555 1_555
Er1D O3A 1_555 1_555
Er1E O3 1_555 1_555
Er1F O1 1_555 1_555
Er1G O1A 1_555 1_555
O1F Er1 1_555 1_555
O1G Er1A 1_555 1_555
O3D Er1A 1_555 1_555
O3E Er1 1_555 1_555
O4B Er1A 1_555 1_555
O4C Er1 1_555 1_555
C5 C6 1_555 1_555
N3 O8 1_555 1_555
C1A C7A 1_555 1_555
C5A C6A 1_555 1_555
N3A O8A 1_555 1_555

#END
