
#######################################################################
#
#                 Cambridge Crystallographic Data Centre
#                                CCDC 
#
#######################################################################
#
# If this CIF has been generated from an entry in the Cambridge 
# Structural Database, then it will include bibliographic, chemical, 
# crystal, experimental, refinement or atomic coordinate data resulting 
# from the CCDC's data processing and validation procedures.
#
#######################################################################

data_SOTXIK
_symmetry_cell_setting           monoclinic
_symmetry_space_group_name_H-M   'P 21/c'
_symmetry_Int_Tables_number      14
_space_group_name_Hall           '-P 2ybc'
loop_
_symmetry_equiv_pos_site_id
_symmetry_equiv_pos_as_xyz
1 x,y,z
2 -x,1/2+y,1/2-z
3 -x,-y,-z
4 x,1/2-y,1/2+z
_cell_length_a                   14.558(3)
_cell_length_b                   18.271(4)
_cell_length_c                   21.899(4)
_cell_angle_alpha                90
_cell_angle_beta                 112.12(3)
_cell_angle_gamma                90
_cell_volume                     5396.17
loop_
_atom_site_label
_atom_site_type_symbol
_atom_site_fract_x
_atom_site_fract_y
_atom_site_fract_z
Eu1 Eu 0.608444(17) 0.246177(15) 0.817653(12)
Eu2 Eu 0.697274(17) 0.782275(16) 0.922258(12)
O1 O 0.7542(3) 0.3218(2) 0.8259(2)
O2 O 0.6332(3) 0.3796(2) 0.8424(2)
O3 O 0.8252(3) 0.6988(2) 0.9099(2)
O4 O 0.6801(4) 0.6509(3) 0.8943(3)
O5 O 1.1757(3) 0.3626(3) 0.5699(2)
O6 O 1.0256(4) 0.3465(3) 0.5731(3)
O7 O 1.2849(4) 0.6699(3) 0.7172(3)
O8 O 1.3255(4) 0.6147(3) 0.6439(3)
O9 O 0.5814(3) 0.2890(3) 0.71100(19)
O10 O 0.4696(4) 0.2660(4) 0.6119(2)
O11 O 0.5704(3) 0.2687(3) 0.4184(2)
O12 O 0.7272(3) 0.2490(3) 0.4357(2)
O13 O 1.1878(3) 0.2420(3) 0.9641(2)
O14 O 1.3433(3) 0.2625(3) 0.9816(2)
O15 O 1.4425(3) 0.2921(2) 0.7893(2)
O16 O 1.3322(3) 0.2912(4) 0.6888(2)
C1 C 0.8909(5) 0.5189(4) 0.8113(3)
C2 C 0.8431(5) 0.4535(4) 0.8120(3)
H1 H 0.8612 0.4111 0.7958
C3 C 0.7670(4) 0.4508(4) 0.8371(3)
C4 C 0.7419(4) 0.5140(4) 0.8615(3)
H2 H 0.6903 0.5129 0.8767
C5 C 0.7919(4) 0.5793(4) 0.8639(3)
C6 C 0.8683(5) 0.5819(4) 0.8393(3)
H3 H 0.9034 0.6250 0.8416
C7 C 0.9627(5) 0.5209(4) 0.7813(4)
C8 C 1.0174(5) 0.5173(4) 0.7522(4)
C9 C 1.0792(5) 0.5105(4) 0.7150(3)
C10 C 1.0662(5) 0.4503(3) 0.6736(3)
H4 H 1.0191 0.4150 0.6716
C11 C 1.1236(4) 0.4423(3) 0.6350(3)
C12 C 1.1949(5) 0.4955(4) 0.6401(3)
H5 H 1.2359 0.4895 0.6167
C13 C 1.2060(4) 0.5565(4) 0.6790(3)
C14 C 1.1489(5) 0.5641(4) 0.7172(3)
H6 H 1.1570 0.6048 0.7441
C15 C 0.7164(4) 0.3797(3) 0.8356(3)
C16 C 0.7648(4) 0.6468(4) 0.8910(3)
C17 C 1.1056(4) 0.3781(4) 0.5891(3)
C18 C 1.2777(4) 0.6173(4) 0.6809(3)
C19 C 0.8120(3) 0.2648(3) 0.6403(2)
C20 C 0.7379(4) 0.2680(3) 0.6672(2)
H7 H 0.7550 0.2700 0.7126
C21 C 0.6386(4) 0.2683(3) 0.6247(3)
C22 C 0.6124(4) 0.2646(3) 0.5566(2)
H8 H 0.5458 0.2645 0.5289
C23 C 0.6852(3) 0.2611(3) 0.5298(2)
C24 C 0.7846(4) 0.2601(4) 0.5724(3)
H9 H 0.8336 0.2563 0.5550
C25 C 0.9141(4) 0.2633(4) 0.6833(3)
C26 C 1.0008(4) 0.2633(4) 0.7180(3)
C27 C 1.1027(3) 0.2663(3) 0.7608(2)
C28 C 1.1302(4) 0.2590(4) 0.8277(3)
H10 H 1.0815 0.2519 0.8450
C29 C 1.2291(4) 0.2620(3) 0.8703(3)
C30 C 1.3034(4) 0.2704(3) 0.8449(3)
H11 H 1.3697 0.2721 0.8731
C31 C 1.2775(3) 0.2761(3) 0.7772(2)
C32 C 1.1790(4) 0.2723(4) 0.7349(3)
H12 H 1.1625 0.2738 0.6896
C33 C 0.5579(3) 0.2745(4) 0.6517(3)
C34 C 0.6593(4) 0.2590(3) 0.4573(3)
C35 C 1.2555(4) 0.2554(3) 0.9430(3)
C36 C 1.3583(4) 0.2869(4) 0.7499(3)
O17 O 0.6619(6) 0.8921(5) 0.9692(4)
N1 N 0.7621(14) 0.9901(10) 1.0271(10)
C37 C 0.6863(17) 0.9602(13) 0.9788(12)
C38 C 0.8016(16) 1.0676(13) 1.0281(11)
C39 C 0.8429(16) 0.9420(13) 1.0783(11)
O18 O 0.4933(5) 0.1545(4) 0.7456(4)
Eu1_2 Eu 1.608444(17) 0.246177(15) 0.817653(12)
Eu1A Eu 1.391556(17) 0.746177(15) 0.682347(12)
Eu1C Eu 0.608444(17) 0.253823(15) 0.317653(12)
Eu2A Eu 0.302726(17) 0.282275(16) 0.577742(12)
Eu2A_2 Eu 1.302726(17) 0.282275(16) 0.577742(12)
Eu2B Eu 1.302726(17) 0.217725(16) 1.077742(12)
O5A O 0.8243(3) 0.8626(3) 0.9301(2)
O7A O 0.7151(4) 0.1699(3) 0.7828(3)
O8A O 0.6745(4) 0.1147(3) 0.8561(3)
O10A O 0.5304(4) 0.7660(4) 0.8881(2)
O11C O 0.5704(3) 0.2313(3) 0.9184(2)
O12C O 0.7272(3) 0.2510(3) 0.9357(2)
O13B O 0.8122(3) 0.7580(3) 1.0359(2)
O14B O 0.6567(3) 0.7375(3) 1.0184(2)
O15_2 O 0.4425(3) 0.2921(2) 0.7893(2)
O16A O 0.6678(3) 0.7912(4) 0.8112(2)
loop_
_geom_bond_atom_site_label_1
_geom_bond_atom_site_label_2
_geom_bond_site_symmetry_1
_geom_bond_site_symmetry_2
Eu1 O1 1_555 1_555
Eu2 O3 1_555 1_555
O1 C15 1_555 1_555
O2 Eu1 1_555 1_555
O3 C16 1_555 1_555
O4 Eu2 1_555 1_555
O5 C17 1_555 1_555
O6 C17 1_555 1_555
O7 C18 1_555 1_555
O8 C18 1_555 1_555
O9 Eu1 1_555 1_555
O10 C33 1_555 1_555
O11 C34 1_555 1_555
O12 C34 1_555 1_555
O13 C35 1_555 1_555
O14 C35 1_555 1_555
O15 C36 1_555 1_555
O16 C36 1_555 1_555
C1 C2 1_555 1_555
C2 H1 1_555 1_555
C3 C2 1_555 1_555
C4 C3 1_555 1_555
H2 C4 1_555 1_555
C5 C4 1_555 1_555
C6 C1 1_555 1_555
H3 C6 1_555 1_555
C7 C1 1_555 1_555
C8 C7 1_555 1_555
C9 C8 1_555 1_555
C10 C9 1_555 1_555
H4 C10 1_555 1_555
C11 C10 1_555 1_555
C12 C11 1_555 1_555
H5 C12 1_555 1_555
C13 C12 1_555 1_555
C14 C9 1_555 1_555
H6 C14 1_555 1_555
C15 O2 1_555 1_555
C16 O4 1_555 1_555
C17 C11 1_555 1_555
C18 C13 1_555 1_555
C19 C20 1_555 1_555
C20 H7 1_555 1_555
C21 C20 1_555 1_555
C22 C21 1_555 1_555
H8 C22 1_555 1_555
C23 C22 1_555 1_555
C24 C19 1_555 1_555
H9 C24 1_555 1_555
C25 C19 1_555 1_555
C26 C25 1_555 1_555
C27 C26 1_555 1_555
C28 C27 1_555 1_555
H10 C28 1_555 1_555
C29 C28 1_555 1_555
C30 C29 1_555 1_555
H11 C30 1_555 1_555
C31 C30 1_555 1_555
C32 C27 1_555 1_555
H12 C32 1_555 1_555
C33 O9 1_555 1_555
C34 C23 1_555 1_555
C35 C29 1_555 1_555
C36 C31 1_555 1_555
O17 Eu2 1_555 1_555
N1 C37 1_555 1_555
C37 O17 1_555 1_555
C38 N1 1_555 1_555
C39 N1 1_555 1_555
O18 Eu1 1_555 1_555
Eu1_2 O15 1_555 1_555
Eu1A O7 1_555 1_555
Eu1C O11 1_555 1_555
Eu2A O10 1_555 1_555
Eu2A_2 O5 1_555 1_555
Eu2B O13 1_555 1_555
O5A Eu2 1_555 1_555
O7A Eu1 1_555 1_555
O8A Eu1 1_555 1_555
O10A Eu2 1_555 1_555
O11C Eu1 1_555 1_555
O12C Eu1 1_555 1_555
O13B Eu2 1_555 1_555
O14B Eu2 1_555 1_555
O15_2 Eu1 1_555 1_555
O16A Eu2 1_555 1_555
O8 Eu1A 1_555 1_555
O12 Eu1C 1_555 1_555
O14 Eu2B 1_555 1_555
O16 Eu2A_2 1_555 1_555
C3 C15 1_555 1_555
C5 C6 1_555 1_555
C5 C16 1_555 1_555
C13 C14 1_555 1_555
C21 C33 1_555 1_555
C23 C24 1_555 1_555
C31 C32 1_555 1_555

#END
