
#######################################################################
#
#                 Cambridge Crystallographic Data Centre
#                                CCDC 
#
#######################################################################
#
# If this CIF has been generated from an entry in the Cambridge 
# Structural Database, then it will include bibliographic, chemical, 
# crystal, experimental, refinement or atomic coordinate data resulting 
# from the CCDC's data processing and validation procedures.
#
#######################################################################

data_SOTYIL
_symmetry_cell_setting           monoclinic
_symmetry_space_group_name_H-M   'C 2/c'
_symmetry_Int_Tables_number      15
_space_group_name_Hall           '-C 2yc'
loop_
_symmetry_equiv_pos_site_id
_symmetry_equiv_pos_as_xyz
1 x,y,z
2 -x,y,1/2-z
3 1/2-x,1/2+y,1/2-z
4 1/2+x,1/2+y,z
5 -x,-y,-z
6 x,-y,1/2+z
7 1/2+x,1/2-y,1/2+z
8 1/2-x,1/2-y,-z
_cell_length_a                   16.106(14)
_cell_length_b                   16.0452(98)
_cell_length_c                   19.512(11)
_cell_angle_alpha                90
_cell_angle_beta                 96.622(57)
_cell_angle_gamma                90
_cell_volume                     5008.73
loop_
_atom_site_label
_atom_site_type_symbol
_atom_site_fract_x
_atom_site_fract_y
_atom_site_fract_z
Co1 Co 1 1.085(13) 0.750
Co2 Co 1.2445(72) 1.3301(40) 0.750
C1 C 1.148121 1.178377 0.729211
H1 H 1.179778 1.152736 0.766143
C2 C 1.048748 1.203781 0.648483
C3 C 1.110359 1.264625 0.646610
C4 C 1.103371 1.326172 0.596413
H2 H 1.144326 1.366753 0.595039
C5 C 1.033343 1.324905 0.548342
H3 H 1.027057 1.365177 0.513917
C6 C 0.971565 1.263728 0.550698
H4 H 0.925355 1.26426 0.517347
C7 C 0.977158 1.202935 0.600755
H5 H 0.935399 1.163211 0.602666
C8 C 0.842892 0.984477 0.730371
H6 H 0.821416 1.011186 0.766749
C9 C 0.8609 0.894407 0.651771
C10 C 0.921221 0.956690 0.650741
C11 C 0.982017 0.952384 0.606026
H7 H 1.022275 0.993769 0.605249
C12 C 0.980730 0.884179 0.562714
H8 H 1.020866 0.879410 0.532341
C13 C 0.919748 0.821986 0.563889
H9 H 0.920834 0.776567 0.534356
C14 C 0.858393 0.826003 0.607356
H10 H 0.817359 0.785163 0.607221
C15 C 1.400649 1.206767 0.788073
H11 H 1.423029 1.233715 0.752244
C16 C 1.322759 1.179453 0.867672
C17 C 1.264493 1.179568 0.915393
H12 H 1.223767 1.220733 0.915144
C18 C 1.270442 1.11581 0.962866
H13 H 1.233496 1.114643 0.996165
C19 C 1.330467 1.052537 0.962665
H14 H 1.33218 1.010305 0.995377
C20 C 1.387061 1.052076 0.914584
H15 H 1.4268 1.010118 0.914261
C21 C 1.382496 1.116549 0.867002
C22 C 1.077519 1.465 0.745484
H16 H 1.046561 1.439728 0.708003
C23 C 1.11476 1.550492 0.828272
C24 C 1.122438 1.615642 0.876013
H17 H 1.079873 1.654362 0.878461
C25 C 1.196178 1.619756 0.919169
H18 H 1.204034 1.663144 0.950893
C26 C 1.259898 1.560627 0.916829
H19 H 1.308615 1.565325 0.9471
C27 C 1.251317 1.495543 0.870205
H20 H 1.293395 1.456182 0.868644
C28 C 1.177781 1.491251 0.825787
N1 N 1.074207 1.149062 0.701836
N2 N 1.173065 1.247705 0.69924
N3 N 0.811303 0.913420 0.703229
N4 N 0.908009 1.014262 0.701014
N5 N 1.431211 1.134783 0.815124
N6 N 1.335514 1.236703 0.816650
N7 N 1.152269 1.436525 0.772848
N8 N 1.05103 1.532523 0.776320
Co3 Co 1 1.586(14) 0.750
Co2A Co 0.7555(72) 1.3301(40) 0.750
C1A C 0.851879 1.178377 0.770789
H1A H 0.820222 1.152736 0.733857
C2A C 0.951252 1.203781 0.851517
C3A C 0.889641 1.264625 0.853390
C4A C 0.896629 1.326172 0.903587
H2A H 0.855674 1.366753 0.904961
C5A C 0.966657 1.324905 0.951658
H3A H 0.972943 1.365177 0.986083
C6A C 1.028435 1.263728 0.949302
H4A H 1.074645 1.26426 0.982653
C7A C 1.022842 1.202935 0.899245
H5A H 1.064601 1.163211 0.897334
C8A C 1.157108 0.984477 0.769629
H6A H 1.178584 1.011186 0.733251
C9A C 1.1391 0.894407 0.848229
C10A C 1.078779 0.956690 0.849259
C11A C 1.017983 0.952384 0.893974
H7A H 0.977725 0.993769 0.894751
C12A C 1.019270 0.884179 0.937286
H8A H 0.979134 0.879410 0.967659
C13A C 1.080252 0.821986 0.936111
H9A H 1.079166 0.776567 0.965644
C14A C 1.141607 0.826003 0.892644
H10A H 1.182641 0.785163 0.892779
C15A C 0.599351 1.206767 0.711927
H11A H 0.576971 1.233715 0.747756
C16A C 0.677241 1.179453 0.632328
C17A C 0.735507 1.179568 0.584607
H12A H 0.776233 1.220733 0.584856
C18A C 0.729558 1.11581 0.537134
H13A H 0.766504 1.114643 0.503835
C19A C 0.669533 1.052537 0.537335
H14A H 0.66782 1.010305 0.504623
C20A C 0.612939 1.052076 0.585416
H15A H 0.5732 1.010118 0.585739
C21A C 0.617504 1.116549 0.632998
C22A C 0.922481 1.465 0.754516
H16A H 0.953439 1.439728 0.791997
C23A C 0.88524 1.550492 0.671728
C24A C 0.877562 1.615642 0.623987
H17A H 0.920127 1.654362 0.621539
C25A C 0.803822 1.619756 0.580831
H18A H 0.795966 1.663144 0.549107
C26A C 0.740102 1.560627 0.583171
H19A H 0.691385 1.565325 0.5529
C27A C 0.748683 1.495543 0.629795
H20A H 0.706605 1.456182 0.631356
C28A C 0.822219 1.491251 0.674213
N1A N 0.925793 1.149062 0.798164
N2A N 0.826935 1.247705 0.80076
N3A N 1.188697 0.913420 0.796771
N4A N 1.091991 1.014262 0.798986
N5A N 0.568789 1.134783 0.684876
N6A N 0.664486 1.236703 0.683350
N7A N 0.847731 1.436525 0.727152
N8A N 0.94897 1.532523 0.723680
Co2B Co 1.2555(72) 0.8301(40) 0.750
Co2C Co 0.7445(72) 0.8301(40) 0.750
N3B N 0.688697 1.413420 0.796771
N3C N 1.311303 1.413420 0.703229
N5B N 1.068789 1.634783 0.684876
N5C N 0.931211 1.634783 0.815124
Co3B Co 0.5 1.086(14) 0.750
Co3B_2 Co 1.5 1.086(14) 0.750
loop_
_geom_bond_atom_site_label_1
_geom_bond_atom_site_label_2
_geom_bond_site_symmetry_1
_geom_bond_site_symmetry_2
Co1 N1 1_555 1_555
Co2 N2 1_555 1_555
C1 H1 1_555 1_555
C2 C3 1_555 1_555
C3 C4 1_555 1_555
C4 H2 1_555 1_555
C5 C4 1_555 1_555
H3 C5 1_555 1_555
C6 C5 1_555 1_555
H4 C6 1_555 1_555
C7 C2 1_555 1_555
H5 C7 1_555 1_555
C8 H6 1_555 1_555
C9 C10 1_555 1_555
C10 C11 1_555 1_555
C11 H7 1_555 1_555
C12 C11 1_555 1_555
H8 C12 1_555 1_555
C13 C12 1_555 1_555
H9 C13 1_555 1_555
C14 C9 1_555 1_555
H10 C14 1_555 1_555
C15 H11 1_555 1_555
C16 C17 1_555 1_555
C17 H12 1_555 1_555
C18 C17 1_555 1_555
H13 C18 1_555 1_555
C19 C18 1_555 1_555
H14 C19 1_555 1_555
C20 C19 1_555 1_555
H15 C20 1_555 1_555
C21 C16 1_555 1_555
C22 H16 1_555 1_555
C23 C24 1_555 1_555
C24 H17 1_555 1_555
C25 C24 1_555 1_555
H18 C25 1_555 1_555
C26 C25 1_555 1_555
H19 C26 1_555 1_555
C27 C26 1_555 1_555
H20 C27 1_555 1_555
C28 C23 1_555 1_555
N1 C1 1_555 1_555
N2 C1 1_555 1_555
N3 C8 1_555 1_555
N4 Co1 1_555 1_555
N5 C15 1_555 1_555
N6 Co2 1_555 1_555
N7 Co2 1_555 1_555
N8 C22 1_555 1_555
Co3 N8 1_555 1_555
Co2A N2A 1_555 1_555
C1A H1A 1_555 1_555
C2A C3A 1_555 1_555
C3A C4A 1_555 1_555
C4A H2A 1_555 1_555
C5A C4A 1_555 1_555
H3A C5A 1_555 1_555
C6A C5A 1_555 1_555
H4A C6A 1_555 1_555
C7A C2A 1_555 1_555
H5A C7A 1_555 1_555
C8A H6A 1_555 1_555
C9A C10A 1_555 1_555
C10A C11A 1_555 1_555
C11A H7A 1_555 1_555
C12A C11A 1_555 1_555
H8A C12A 1_555 1_555
C13A C12A 1_555 1_555
H9A C13A 1_555 1_555
C14A C9A 1_555 1_555
H10A C14A 1_555 1_555
C15A H11A 1_555 1_555
C16A C17A 1_555 1_555
C17A H12A 1_555 1_555
C18A C17A 1_555 1_555
H13A C18A 1_555 1_555
C19A C18A 1_555 1_555
H14A C19A 1_555 1_555
C20A C19A 1_555 1_555
H15A C20A 1_555 1_555
C21A C16A 1_555 1_555
C22A H16A 1_555 1_555
C23A C24A 1_555 1_555
C24A H17A 1_555 1_555
C25A C24A 1_555 1_555
H18A C25A 1_555 1_555
C26A C25A 1_555 1_555
H19A C26A 1_555 1_555
C27A C26A 1_555 1_555
H20A C27A 1_555 1_555
C28A C23A 1_555 1_555
N1A Co1 1_555 1_555
N2A C1A 1_555 1_555
N3A C8A 1_555 1_555
N4A Co1 1_555 1_555
N5A C15A 1_555 1_555
N6A Co2A 1_555 1_555
N7A Co2A 1_555 1_555
N8A Co3 1_555 1_555
Co2B N3A 1_555 1_555
Co2C N3 1_555 1_555
N3B Co2A 1_555 1_555
N3C Co2 1_555 1_555
N5B Co3 1_555 1_555
N5C Co3 1_555 1_555
Co3B N5A 1_555 1_555
Co3B_2 N5 1_555 1_555
C2 N1 1_555 1_555
C3 N2 1_555 1_555
C6 C7 1_555 1_555
C8 N4 1_555 1_555
C9 N3 1_555 1_555
C10 N4 1_555 1_555
C13 C14 1_555 1_555
C15 N6 1_555 1_555
C16 N6 1_555 1_555
C20 C21 1_555 1_555
C21 N5 1_555 1_555
C22 N7 1_555 1_555
C23 N8 1_555 1_555
C27 C28 1_555 1_555
C28 N7 1_555 1_555
C1A N1A 1_555 1_555
C2A N1A 1_555 1_555
C3A N2A 1_555 1_555
C6A C7A 1_555 1_555
C8A N4A 1_555 1_555
C9A N3A 1_555 1_555
C10A N4A 1_555 1_555
C13A C14A 1_555 1_555
C15A N6A 1_555 1_555
C16A N6A 1_555 1_555
C20A C21A 1_555 1_555
C21A N5A 1_555 1_555
C22A N7A 1_555 1_555
C22A N8A 1_555 1_555
C23A N8A 1_555 1_555
C27A C28A 1_555 1_555
C28A N7A 1_555 1_555

#END
