
#######################################################################
#
#                 Cambridge Crystallographic Data Centre
#                                CCDC 
#
#######################################################################
#
# If this CIF has been generated from an entry in the Cambridge 
# Structural Database, then it will include bibliographic, chemical, 
# crystal, experimental, refinement or atomic coordinate data resulting 
# from the CCDC's data processing and validation procedures.
#
#######################################################################

data_SOTZOR
_symmetry_cell_setting           triclinic
_symmetry_space_group_name_H-M   'P -1'
_symmetry_Int_Tables_number      2
_space_group_name_Hall           '-P 1'
loop_
_symmetry_equiv_pos_site_id
_symmetry_equiv_pos_as_xyz
1 x,y,z
2 -x,-y,-z
_cell_length_a                   6.9230(4)
_cell_length_b                   15.3370(9)
_cell_length_c                   16.1930(11)
_cell_angle_alpha                62.201(3)
_cell_angle_beta                 85.288(4)
_cell_angle_gamma                86.665(4)
_cell_volume                     1515.39
loop_
_atom_site_label
_atom_site_type_symbol
_atom_site_fract_x
_atom_site_fract_y
_atom_site_fract_z
Sr1 Sr 0.08947(7) 0.22590(4) 0.66124(4)
P1 P -0.5970(2) 1.02866(11) 0.87091(12)
C1 C -0.7905(8) 0.4339(4) 1.0927(4)
P2 P -0.4236(2) 0.35187(10) 0.62857(11)
Sr2 Sr -0.40594(8) 0.14826(4) 0.62138(4)
C2 C -0.7582(8) 0.4011(4) 1.0255(4)
H1 H -0.7621 0.3325 1.0445
P3 P -0.8837(2) 0.14138(11) 1.50834(11)
C3 C -0.7515(8) 0.6031(4) 0.9693(4)
O1 O -0.2561(6) 0.2798(3) 0.6602(3)
C4 C -0.7203(8) 0.4667(4) 0.9307(4)
O2 O -0.1364(6) 0.0675(3) 0.7535(3)
C5 C -0.7895(8) 0.5360(4) 1.0625(5)
H2 H -0.8155 0.5597 1.1071
C6 C -0.7165(8) 0.5669(4) 0.9040(5)
H3 H -0.6895 0.6121 0.8399
O3 O -0.7322(6) 1.0601(3) 0.9361(3)
H4 H -0.8394 1.0809 0.9124
C7 C -0.6621(9) 0.9056(4) 0.8986(4)
O4 O -0.6336(6) 1.0961(3) 0.7702(3)
C8 C -0.8002(9) 0.8499(5) 0.9702(5)
H5 H -0.8695 0.8782 1.0053
O5 O -0.3882(6) 1.0244(3) 0.8956(3)
C9 C -0.8353(9) 0.7547(5) 0.9896(4)
H6 H -0.9299 0.7185 1.0379
C10 C -0.7355(8) 0.7094(4) 0.9402(4)
C11 C -0.6026(8) 0.7668(4) 0.8672(5)
H7 H -0.5348 0.7388 0.8315
C12 C -0.5679(9) 0.8627(4) 0.8461(5)
H8 H -0.4790 0.9002 0.7953
O6 O -0.5879(5) 0.3079(3) 0.6043(3)
C13 C -0.5176(8) 0.3811(4) 0.7197(4)
O7 O -0.3585(6) 0.4512(3) 0.5443(3)
H9 H -0.4532 0.4790 0.5116
C14 C -0.6391(9) 0.4648(4) 0.6981(4)
H10 H -0.6699 0.5054 0.6351
C15 C -0.7143(9) 0.4893(4) 0.7661(4)
H11 H -0.7980 0.5455 0.7496
C16 C -0.6683(8) 0.4319(4) 0.8599(4)
C17 C -0.5571(8) 0.3456(4) 0.8828(4)
H12 H -0.5323 0.3032 0.9463
C18 C -0.4820(9) 0.3210(4) 0.8136(5)
H13 H -0.4054 0.2624 0.8306
C19 C -0.8567(8) 0.2288(4) 1.3858(4)
O8 O -0.7243(6) 0.1566(3) 1.5580(3)
O9 O -1.0791(6) 0.1575(3) 1.5473(3)
C20 C -0.9379(9) 0.2103(4) 1.3195(4)
H14 H -1.0068 0.1513 1.3394
O10 O -0.8624(7) 0.0386(3) 1.5119(3)
H15 H -0.7545 0.0129 1.5321
C21 C -0.9196(9) 0.2763(4) 1.2255(4)
H16 H -0.9761 0.2619 1.1818
C22 C -0.8187(8) 0.3646(4) 1.1931(4)
C23 C -0.7438(9) 0.3836(4) 1.2608(4)
H17 H -0.6787 0.4435 1.2415
C24 C -0.7621(10) 0.3177(5) 1.3543(5)
H18 H -0.7094 0.3329 1.3983
O11 O 0.0550(7) 0.3916(4) 0.5156(4)
O12 O -0.4221(8) -0.0115(4) 0.6093(4)
O13 O -0.3427(19) 0.2768(13) 0.4353(11)
O14 O 0.0821(8) 0.2425(4) 0.8136(4)
C25 C -0.0596(11) -0.0230(5) 0.7601(6)
H19 H -0.1397 -0.0454 0.7268
H20 H -0.0594 -0.0725 0.8260
H21 H 0.0733 -0.0137 0.7320
H22 H 0.146(8) 0.431(4) 0.488(5)
H23 H -0.052(6) 0.423(5) 0.513(6)
H24 H 0.059(12) 0.294(6) 0.801(6)
H25 H 0.125(11) 0.192(3) 0.858(4)
H26 H -0.501(9) -0.061(4) 0.616(6)
H27 H -0.366(10) -0.032(6) 0.575(5)
H28 H -0.229(9) 0.267(11) 0.453(12)
H29 H -0.40(2) 0.242(11) 0.419(13)
Sr1_2 Sr -0.91053(7) 1.22590(4) 0.66124(4)
Sr1_3 Sr -0.91053(7) 0.22590(4) 0.66124(4)
Sr1_4 Sr -0.91053(7) 0.22590(4) 1.66124(4)
Sr2_2 Sr -0.40594(8) 1.14826(4) 0.62138(4)
Sr2_3 Sr -0.40594(8) 0.14826(4) 1.62138(4)
Sr2_4 Sr -1.40594(8) 0.14826(4) 1.62138(4)
O4_2 O 0.3664(6) 0.0961(3) 0.7702(3)
O4_3 O -0.6336(6) 0.0961(3) 0.7702(3)
O6_2 O 0.4121(5) 0.3079(3) 0.6043(3)
O8_2 O 0.2757(6) 0.1566(3) 0.5580(3)
O8_3 O -0.7243(6) 0.1566(3) 0.5580(3)
O9_2 O -0.0791(6) 0.1575(3) 0.5473(3)
loop_
_geom_bond_atom_site_label_1
_geom_bond_atom_site_label_2
_geom_bond_site_symmetry_1
_geom_bond_site_symmetry_2
Sr1 O1 1_555 1_555
P1 O3 1_555 1_555
C1 C2 1_555 1_555
P2 O1 1_555 1_555
Sr2 O1 1_555 1_555
C2 H1 1_555 1_555
P3 C19 1_555 1_555
C3 C5 1_555 1_555
C4 C2 1_555 1_555
O2 Sr1 1_555 1_555
C5 C1 1_555 1_555
H2 C5 1_555 1_555
C6 C3 1_555 1_555
H3 C6 1_555 1_555
O3 H4 1_555 1_555
C7 P1 1_555 1_555
O4 P1 1_555 1_555
C8 C7 1_555 1_555
H5 C8 1_555 1_555
O5 P1 1_555 1_555
C9 C8 1_555 1_555
H6 C9 1_555 1_555
C10 C3 1_555 1_555
C11 C10 1_555 1_555
H7 C11 1_555 1_555
C12 C7 1_555 1_555
H8 C12 1_555 1_555
O6 P2 1_555 1_555
C13 P2 1_555 1_555
O7 P2 1_555 1_555
H9 O7 1_555 1_555
C14 C13 1_555 1_555
H10 C14 1_555 1_555
C15 C14 1_555 1_555
H11 C15 1_555 1_555
C16 C4 1_555 1_555
C17 C16 1_555 1_555
H12 C17 1_555 1_555
C18 C13 1_555 1_555
H13 C18 1_555 1_555
C19 C20 1_555 1_555
O8 P3 1_555 1_555
O9 P3 1_555 1_555
C20 H14 1_555 1_555
O10 P3 1_555 1_555
H15 O10 1_555 1_555
C21 C20 1_555 1_555
H16 C21 1_555 1_555
C22 C1 1_555 1_555
C23 C22 1_555 1_555
H17 C23 1_555 1_555
C24 C19 1_555 1_555
H18 C24 1_555 1_555
O11 Sr1 1_555 1_555
O12 Sr2 1_555 1_555
O13 Sr2 1_555 1_555
O14 Sr1 1_555 1_555
C25 O2 1_555 1_555
H19 C25 1_555 1_555
H20 C25 1_555 1_555
H21 C25 1_555 1_555
H22 O11 1_555 1_555
H23 O11 1_555 1_555
H24 O14 1_555 1_555
H25 O14 1_555 1_555
H26 O12 1_555 1_555
H27 O12 1_555 1_555
H28 O13 1_555 1_555
H29 O13 1_555 1_555
Sr1_2 O4 1_555 1_555
Sr1_3 O6 1_555 1_555
Sr1_4 O8 1_555 1_555
Sr2_2 O4 1_555 1_555
Sr2_3 O8 1_555 1_555
Sr2_4 O9 1_555 1_555
O4_2 Sr1 1_555 1_555
O4_3 Sr2 1_555 1_555
O6_2 Sr1 1_555 1_555
O8_2 Sr1 1_555 1_555
O8_3 Sr2 1_555 1_555
O9_2 Sr1 1_555 1_555
Sr2 O2 1_555 1_555
Sr2 O6 1_555 1_555
Sr2 O9_2 1_555 1_555
C4 C6 1_555 1_555
C9 C10 1_555 1_555
C11 C12 1_555 1_555
C15 C16 1_555 1_555
C17 C18 1_555 1_555
O9 Sr1_4 1_555 1_555
C21 C22 1_555 1_555
C23 C24 1_555 1_555
Sr1_3 O4_3 1_555 1_555
Sr1_3 O8_3 1_555 1_555

#END
