
#######################################################################
#
#                 Cambridge Crystallographic Data Centre
#                                CCDC 
#
#######################################################################
#
# If this CIF has been generated from an entry in the Cambridge 
# Structural Database, then it will include bibliographic, chemical, 
# crystal, experimental, refinement or atomic coordinate data resulting 
# from the CCDC's data processing and validation procedures.
#
#######################################################################

data_SOVDOX
_symmetry_cell_setting           orthorhombic
_symmetry_space_group_name_H-M   'P b c a'
_symmetry_Int_Tables_number      61
_space_group_name_Hall           '-P 2ac 2ab'
loop_
_symmetry_equiv_pos_site_id
_symmetry_equiv_pos_as_xyz
1 x,y,z
2 1/2-x,-y,1/2+z
3 1/2+x,1/2-y,-z
4 -x,1/2+y,1/2-z
5 -x,-y,-z
6 1/2+x,y,1/2-z
7 1/2-x,1/2+y,z
8 x,1/2-y,1/2+z
_cell_length_a                   10.4752(10)
_cell_length_b                   12.5024(12)
_cell_length_c                   21.267(2)
_cell_angle_alpha                90
_cell_angle_beta                 90
_cell_angle_gamma                90
_cell_volume                     2785.24
loop_
_atom_site_label
_atom_site_type_symbol
_atom_site_fract_x
_atom_site_fract_y
_atom_site_fract_z
Cu1 Cu -0.08878(6) -0.17534(5) 0.17528(3)
N1 N -0.3961(4) -0.0490(3) 0.06522(19)
N2 N -0.2447(4) -0.0922(3) 0.14531(19)
N3 N -0.5019(4) 0.1123(3) 0.0596(2)
H1 H -0.5386 0.0902 0.0258
H2 H -0.5185 0.1751 0.0739
N4 N -0.2198(4) 0.0496(3) 0.22256(18)
N5 N -0.3540(4) 0.1710(3) 0.18293(19)
N6 N 0.0238(4) -0.1518(4) 0.0942(2)
C1 C -0.3125(5) -0.1127(4) 0.0930(2)
H3 H -0.2991 -0.1790 0.0742
C2 C -0.2696(4) 0.0039(4) 0.1689(2)
C3 C -0.3543(4) 0.0807(4) 0.1448(2)
C4 C -0.4205(5) 0.0503(4) 0.0891(2)
C5 C -0.2744(5) 0.1467(4) 0.2286(2)
H4 H -0.2573 0.1925 0.2620
C6 C -0.1264(5) 0.0003(4) 0.2657(2)
H5 H -0.0936 0.0543 0.2941
H6 H -0.1685 -0.0543 0.2906
C7 C -0.0181(5) -0.0489(4) 0.2301(2)
H7 H 0.0114 -0.0145 0.1942
C8 C 0.0392(5) -0.1417(4) 0.2479(3)
H8 H 0.0113 -0.1776 0.2836
H9 H 0.1063 -0.1693 0.2243
C9 C 0.0933(5) -0.1189(4) 0.0580(3)
C10 C 0.1816(6) -0.0797(5) 0.0111(3)
H10 H 0.2639 -0.1117 0.0177
H11 H 0.1887 -0.0034 0.0146
H12 H 0.1510 -0.0980 -0.0300
Cu1F Cu -0.41122(6) 0.32466(5) 0.17528(3)
N5F N -0.1460(4) -0.3290(3) 0.18293(19)
Cl1 Cl -0.62177(14) -0.31452(11) 0.10699(6)
O1 O -0.6735(5) -0.2217(4) 0.1376(2)
O2 O -0.6864(4) -0.4084(3) 0.12953(19)
O3 O -0.6381(6) -0.3053(4) 0.0408(2)
O4 O -0.4884(4) -0.3238(4) 0.1224(2)
loop_
_geom_bond_atom_site_label_1
_geom_bond_atom_site_label_2
_geom_bond_site_symmetry_1
_geom_bond_site_symmetry_2
Cu1 N2 1_555 1_555
Cl1 O1 1_555 1_555
O2 Cl1 1_555 1_555
O3 Cl1 1_555 1_555
O4 Cl1 1_555 1_555
N1 C1 1_555 1_555
N2 C1 1_555 1_555
N3 H1 1_555 1_555
H2 N3 1_555 1_555
N4 C2 1_555 1_555
N5 C3 1_555 1_555
N6 Cu1 1_555 1_555
C1 H3 1_555 1_555
C2 N2 1_555 1_555
C3 C2 1_555 1_555
C4 N1 1_555 1_555
C5 N4 1_555 1_555
H4 C5 1_555 1_555
C6 N4 1_555 1_555
H5 C6 1_555 1_555
H6 C6 1_555 1_555
C7 Cu1 1_555 1_555
H7 C7 1_555 1_555
C8 Cu1 1_555 1_555
H8 C8 1_555 1_555
H9 C8 1_555 1_555
C9 N6 1_555 1_555
C10 C9 1_555 1_555
H10 C10 1_555 1_555
H11 C10 1_555 1_555
H12 C10 1_555 1_555
Cu1F N5 1_555 1_555
N5F Cu1 1_555 1_555
N3 C4 1_555 1_555
N5 C5 1_555 1_555
C3 C4 1_555 1_555
C6 C7 1_555 1_555
C7 C8 1_555 1_555

#END
