
#######################################################################
#
#                 Cambridge Crystallographic Data Centre
#                                CCDC 
#
#######################################################################
#
# If this CIF has been generated from an entry in the Cambridge 
# Structural Database, then it will include bibliographic, chemical, 
# crystal, experimental, refinement or atomic coordinate data resulting 
# from the CCDC's data processing and validation procedures.
#
#######################################################################

data_SOVGUF
_symmetry_cell_setting           tetragonal
_symmetry_space_group_name_H-M   'P 4/m m m'
_symmetry_Int_Tables_number      123
_space_group_name_Hall           '-P 4 2'
loop_
_symmetry_equiv_pos_site_id
_symmetry_equiv_pos_as_xyz
1 x,y,z
2 -y,x,z
3 -x,-y,z
4 y,-x,z
5 -x,y,z
6 y,x,z
7 x,-y,z
8 -y,-x,z
9 -x,-y,-z
10 y,-x,-z
11 x,y,-z
12 -y,x,-z
13 x,-y,-z
14 -y,-x,-z
15 -x,y,-z
16 y,x,-z
_cell_length_a                   7.485(7)
_cell_length_b                   7.485(7)
_cell_length_c                   10.06(3)
_cell_angle_alpha                90
_cell_angle_beta                 90
_cell_angle_gamma                90
_cell_volume                     563.614
loop_
_atom_site_label
_atom_site_type_symbol
_atom_site_fract_x
_atom_site_fract_y
_atom_site_fract_z
Cd1 Cd 0.000 0.000 0.00000
Ni1 Ni 0.500 0.500 0.00000
C1 C 0.215(5) 0.215 0.00000
N1 N 0.325(5) 0.325 0.00000
C1H C -0.215(5) -0.215 0.00000
C1A C -0.215 0.215(5) 0.00000
C1I C 0.215 -0.215(5) 0.00000
N1H N 0.675(5) 0.675 0.00000
N1A N 0.675 0.325(5) 0.00000
N1I N 0.325 0.675(5) 0.00000
N1H_2 N -0.325(5) -0.325 0.00000
N1A_2 N -0.325 0.325(5) 0.00000
N1I_2 N 0.325 -0.325(5) 0.00000
C1H_2 C 0.785(5) 0.785 0.00000
C1A_2 C 0.785 0.215(5) 0.00000
C1I_2 C 0.215 0.785(5) 0.00000
loop_
_geom_bond_atom_site_label_1
_geom_bond_atom_site_label_2
_geom_bond_site_symmetry_1
_geom_bond_site_symmetry_2
Cd1 C1 1_555 1_555
Ni1 N1 1_555 1_555
C1 N1 1_555 1_555
C1H Cd1 1_555 1_555
C1A Cd1 1_555 1_555
C1I Cd1 1_555 1_555
N1H Ni1 1_555 1_555
N1A Ni1 1_555 1_555
N1I Ni1 1_555 1_555
N1H_2 C1H 1_555 1_555
N1A_2 C1A 1_555 1_555
N1I_2 C1I 1_555 1_555
C1H_2 N1H 1_555 1_555
C1A_2 N1A 1_555 1_555
C1I_2 N1I 1_555 1_555

#END
