
#######################################################################
#
#                 Cambridge Crystallographic Data Centre
#                                CCDC 
#
#######################################################################
#
# If this CIF has been generated from an entry in the Cambridge 
# Structural Database, then it will include bibliographic, chemical, 
# crystal, experimental, refinement or atomic coordinate data resulting 
# from the CCDC's data processing and validation procedures.
#
#######################################################################

data_SOVGOZ
_symmetry_cell_setting           triclinic
_symmetry_space_group_name_H-M   'P -1'
_symmetry_Int_Tables_number      2
_space_group_name_Hall           '-P 1'
loop_
_symmetry_equiv_pos_site_id
_symmetry_equiv_pos_as_xyz
1 x,y,z
2 -x,-y,-z
_cell_length_a                   9.806(3)
_cell_length_b                   14.388(3)
_cell_length_c                   7.725(2)
_cell_angle_alpha                89.71(2)
_cell_angle_beta                 89.96(2)
_cell_angle_gamma                98.12(2)
_cell_volume                     1078.97
loop_
_atom_site_label
_atom_site_type_symbol
_atom_site_fract_x
_atom_site_fract_y
_atom_site_fract_z
Ni1 Ni 0.0000 0.00000 0.00000
N1 N 0.0315(8) 0.1455(5) 0.2808(9)
N4 N 0.0208(8) 0.1486(5) -0.2751(9)
C1 C 0.0187(8) 0.0902(5) 0.1750(9)
C4 C 0.0132(8) 0.0933(5) -0.1700(9)
C1A C -0.0187(8) -0.0902(5) -0.1750(9)
N1A N -0.0315(8) -0.1455(5) -0.2808(9)
C4A C -0.0132(8) -0.0933(5) 0.1700(9)
N4A N -0.0208(8) -0.1486(5) 0.2751(9)
Ni2 Ni 0.0000 0.50000 0.00000
N2 N 0.1044(7) 0.3798(5) 0.2753(8)
N3 N 0.0959(7) 0.3806(5) -0.2806(8)
C2 C 0.0688(8) 0.4256(5) 0.1683(9)
C3 C 0.0617(7) 0.4262(5) -0.1734(9)
C2A C -0.0688(8) 0.5744(5) -0.1683(9)
N2A N -0.1044(7) 0.6202(5) -0.2753(8)
C3A C -0.0617(7) 0.5738(5) 0.1734(9)
N3A N -0.0959(7) 0.6194(5) 0.2806(8)
N7 N 0.335(2) 0.274(2) -0.010(2)
C9 C 0.457(2) 0.255(1) 0.015(2)
C10 C 0.554(2) 0.336(2) -0.028(2)
C11 C 0.674(2) 0.332(1) -0.021(2)
C12 C 0.744(2) 0.247(2) 0.027(2)
C13 C 0.646(2) 0.168(1) 0.078(2)
C14 C 0.497(2) 0.177(1) 0.066(2)
C15 C 0.387(2) 0.131(2) 0.102(3)
N8 N 0.759(3) -0.016(2) 0.406(3)
C17 C 0.642(4) -0.011(2) 0.444(5)
C18 C 0.611(4) 0.054(2) 0.597(4)
C19 C 0.524(4) -0.054(2) 0.369(4)
C19A C 0.476(4) 0.054(2) 0.631(4)
C17A C 0.358(4) 0.011(2) 0.556(5)
N8A N 0.241(3) 0.016(2) 0.594(3)
C18A C 0.389(4) -0.054(2) 0.403(4)
Cd1 Cd 0.6446(6) 0.26574(4) 0.49982(7)
N5 N 0.2912(7) 0.2492(6) 0.509(1)
N6 N 0.8369(8) 0.2839(6) 0.471(1)
C5 C 0.3956(9) 0.3301(6) 0.482(1)
C6 C 0.5428(9) 0.3066(7) 0.500(1)
C7 C 0.6511(9) 0.3744(8) 0.466(1)
C8 C 0.795(1) 0.3744(8) 0.507(2)
C16? C 0.442(3) 0.383(3) -0.046(4)
C20? C 0.720(3) 0.101(2) 0.631(4)
loop_
_geom_bond_atom_site_label_1
_geom_bond_atom_site_label_2
_geom_bond_site_symmetry_1
_geom_bond_site_symmetry_2
Cd1 N6 1_555 1_555
Ni1 C1 1_555 1_555
Ni2 C2 1_555 1_555
N1 C1 1_555 1_555
N2 C2 1_555 1_555
N3 C3 1_555 1_555
N4 C4 1_555 1_555
N5 C5 1_555 1_555
N6 C8 1_555 1_555
N7 C9 1_555 1_555
N8 C17 1_555 1_555
C3 Ni2 1_555 1_555
C4 Ni1 1_555 1_555
C5 Cd1 1_555 1_555
C6 Cd1 1_555 1_555
C7 Cd1 1_555 1_555
C8 Cd1 1_555 1_555
C9 C10 1_555 1_555
C10 C11 1_555 1_555
C11 C12 1_555 1_555
C12 C13 1_555 1_555
C13 C14 1_555 1_555
C14 C9 1_555 1_555
C15 C14 1_555 1_555
C17 C18 1_555 1_555
C18 C19A 1_555 1_555
C19 C17 1_555 1_555
C1A Ni1 1_555 1_555
N1A C1A 1_555 1_555
C4A Ni1 1_555 1_555
N4A C4A 1_555 1_555
C2A Ni2 1_555 1_555
N2A C2A 1_555 1_555
C3A Ni2 1_555 1_555
N3A C3A 1_555 1_555
C19A C17A 1_555 1_555
C17A N8A 1_555 1_555
C18A C19 1_555 1_555
C5 C6 1_555 1_555
C6 C7 1_555 1_555
C7 C8 1_555 1_555
C17A C18A 1_555 1_555

#END
