
#######################################################################
#
#                 Cambridge Crystallographic Data Centre
#                                CCDC 
#
#######################################################################
#
# If this CIF has been generated from an entry in the Cambridge 
# Structural Database, then it will include bibliographic, chemical, 
# crystal, experimental, refinement or atomic coordinate data resulting 
# from the CCDC's data processing and validation procedures.
#
#######################################################################

data_SOVHOA
_symmetry_cell_setting           triclinic
_symmetry_space_group_name_H-M   'P -1'
_symmetry_Int_Tables_number      2
_space_group_name_Hall           '-P 1'
loop_
_symmetry_equiv_pos_site_id
_symmetry_equiv_pos_as_xyz
1 x,y,z
2 -x,-y,-z
_cell_length_a                   11.52(1)
_cell_length_b                   7.632(3)
_cell_length_c                   7.039(4)
_cell_angle_alpha                88.93(4)
_cell_angle_beta                 109.71(5)
_cell_angle_gamma                82.81(9)
_cell_volume                     576.804
loop_
_atom_site_label
_atom_site_type_symbol
_atom_site_fract_x
_atom_site_fract_y
_atom_site_fract_z
C7 C 0.617(1) 0.522(1) -0.015(2)
C8 C 0.600(2) 0.523(1) 0.171(2)
C9 C 0.518(2) 0.498(1) -0.179(2)
C10 C 0.739(1) 0.552(2) -0.044(2)
C9A C 0.482(2) 0.502(1) 0.179(2)
C7A C 0.383(1) 0.478(1) 0.015(2)
C8A C 0.400(2) 0.477(1) -0.171(2)
C10A C 0.261(1) 0.448(2) 0.044(2)
Cd1 Cd 1.00000 0.00000 0.00000
Ni1 Ni 1.00000 0.50000 0.50000
N1 N 1.0466(4) 0.2174(5) 0.2357(6)
N2 N 0.9277(5) 0.2327(5) -0.2585(6)
N3 N 0.8040(4) 0.0144(6) 0.0151(6)
C1 C 1.0309(4) 0.3234(5) 0.3379(6)
C2 C 0.9514(4) 0.3358(5) -0.3542(6)
C3 C 0.7869(4) 0.0250(8) 0.2138(7)
C4 C 0.6546(4) 0.0185(8) 0.2011(8)
C5 C 0.6420(4) 0.0171(9) 0.4119(8)
C6 C 0.5084(4) 0.0029(8) 0.3974(7)
H1 H 0.74813 0.13030 -0.07808
H2 H 0.76587 -0.10193 -0.05102
H3 H 0.81530 0.14743 0.27624
H4 H 0.84633 -0.08451 0.31288
H5 H 0.59517 0.13300 0.10968
H6 H 0.62326 -0.09952 0.12885
H7 H 0.66904 0.13788 0.48136
H8 H 0.70734 -0.09414 0.50500
H9 H 0.44748 0.11565 0.30590
H10 H 0.48130 -0.11642 0.32424
C6A C 0.4916(4) -0.0029(8) 0.6026(7)
C5A C 0.3580(4) -0.0171(9) 0.5881(8)
C4A C 0.3454(4) -0.0185(8) 0.7989(8)
C3A C 0.2131(4) -0.0250(8) 0.7862(7)
N3A N 0.1960(4) -0.0144(6) 0.9849(6)
H1A H 0.25187 -0.13030 1.07808
H2A H 0.23413 0.10193 1.05102
H3A H 0.18470 -0.14743 0.72376
H4A H 0.15367 0.08451 0.68712
H5A H 0.40483 -0.13300 0.89032
H6A H 0.37674 0.09952 0.87115
H7A H 0.33096 -0.13788 0.51864
H8A H 0.29266 0.09414 0.49500
H9A H 0.55252 -0.11565 0.69410
H10A H 0.51870 0.11642 0.67576
N1A N 0.9534(4) -0.2174(5) -0.2357(6)
C1A C 0.9691(4) -0.3234(5) -0.3379(6)
N2A N 1.0723(5) -0.2327(5) 0.2585(6)
C2A C 1.0486(4) -0.3358(5) 0.3542(6)
N3A_2 N 1.1960(4) -0.0144(6) -0.0151(6)
C1A_2 C 0.9691(4) 0.6766(5) 0.6621(6)
C2_2 C 0.9514(4) 0.3358(5) 0.6458(6)
C2A_2 C 1.0486(4) 0.6642(5) 0.3542(6)
Ni1_2 Ni 1.00000 0.50000 -0.50000
Cd1_2 Cd 0.00000 0.00000 1.00000
Ni1_3 Ni 1.00000 -0.50000 -0.50000
Ni1_4 Ni 1.00000 -0.50000 0.50000
H1A_2 H 1.25187 -0.13030 0.07808
H2A_2 H 1.23413 0.10193 0.05102
loop_
_geom_bond_atom_site_label_1
_geom_bond_atom_site_label_2
_geom_bond_site_symmetry_1
_geom_bond_site_symmetry_2
Cd1 N1 1_555 1_555
Ni1 C1 1_555 1_555
N1 C1 1_555 1_555
N2 Cd1 1_555 1_555
N3 Cd1 1_555 1_555
C2 N2 1_555 1_555
C3 N3 1_555 1_555
C4 C3 1_555 1_555
C5 C4 1_555 1_555
C6 C5 1_555 1_555
C7 C8 1_555 1_555
C8 C9A 1_555 1_555
C9 C7 1_555 1_555
C10 C7 1_555 1_555
H1 N3 1_555 1_555
H2 N3 1_555 1_555
H3 C3 1_555 1_555
H4 C3 1_555 1_555
H5 C4 1_555 1_555
H6 C4 1_555 1_555
H7 C5 1_555 1_555
H8 C5 1_555 1_555
H9 C6 1_555 1_555
H10 C6 1_555 1_555
C6A C6 1_555 1_555
C5A C6A 1_555 1_555
C4A C5A 1_555 1_555
C3A C4A 1_555 1_555
N3A C3A 1_555 1_555
H1A N3A 1_555 1_555
H2A N3A 1_555 1_555
H3A C3A 1_555 1_555
H4A C3A 1_555 1_555
H5A C4A 1_555 1_555
H6A C4A 1_555 1_555
H7A C5A 1_555 1_555
H8A C5A 1_555 1_555
H9A C6A 1_555 1_555
H10A C6A 1_555 1_555
C9A C7A 1_555 1_555
C7A C8A 1_555 1_555
C8A C9 1_555 1_555
C10A C7A 1_555 1_555
N1A Cd1 1_555 1_555
C1A N1A 1_555 1_555
N2A Cd1 1_555 1_555
C2A N2A 1_555 1_555
N3A_2 Cd1 1_555 1_555
C1A_2 Ni1 1_555 1_555
C2_2 Ni1 1_555 1_555
C2A_2 Ni1 1_555 1_555
Ni1_2 C2 1_555 1_555
Cd1_2 N3A 1_555 1_555
Ni1_3 C1A 1_555 1_555
Ni1_4 C2A 1_555 1_555
H1A_2 N3A_2 1_555 1_555
H2A_2 N3A_2 1_555 1_555

#END
