
#######################################################################
#
#                 Cambridge Crystallographic Data Centre
#                                CCDC 
#
#######################################################################
#
# If this CIF has been generated from an entry in the Cambridge 
# Structural Database, then it will include bibliographic, chemical, 
# crystal, experimental, refinement or atomic coordinate data resulting 
# from the CCDC's data processing and validation procedures.
#
#######################################################################

data_SOVKUK
_symmetry_cell_setting           triclinic
_symmetry_space_group_name_H-M   'P -1'
_symmetry_Int_Tables_number      2
_space_group_name_Hall           '-P 1'
loop_
_symmetry_equiv_pos_site_id
_symmetry_equiv_pos_as_xyz
1 x,y,z
2 -x,-y,-z
_cell_length_a                   5.7702(15)
_cell_length_b                   6.561(2)
_cell_length_c                   13.884(4)
_cell_angle_alpha                84.40(2)
_cell_angle_beta                 86.47(2)
_cell_angle_gamma                74.79(2)
_cell_volume                     504.437
loop_
_atom_site_label
_atom_site_type_symbol
_atom_site_fract_x
_atom_site_fract_y
_atom_site_fract_z
Cd1 Cd 0.5000 0.5000 0.5000
C1 C 0.5287(19) 0.1160(17) 0.6713(8)
H1 H 0.4234 0.0864 0.6299
C2 C 0.585(2) -0.012(2) 0.7552(9)
H2 H 0.5175 -0.1256 0.7707
C3 C 0.781(2) 0.3178(17) 0.7070(8)
H3 H 0.8539 0.4266 0.6880
C4 C 0.742(2) 0.0309(17) 0.8160(8)
H4 H 0.7829 -0.0561 0.8727
C5 C 0.8416(19) 0.2035(16) 0.7938(7)
C6 C 1.012(2) 0.2504(18) 0.8575(8)
H5 H 1.0655 0.1510 0.9092
C7 C 1.096(2) 0.4192(19) 0.8485(8)
H6 H 1.0483 0.5201 0.7968
C8 C 1.262(2) 0.4544(19) 0.9166(8)
C9 C 0.928(2) 0.7282(15) 0.5587(7)
N1 N 0.6216(16) 0.2836(13) 0.6469(6)
N2 N 0.7564(15) 0.7007(13) 0.5260(7)
O1 O 1.3281(17) 0.6293(14) 0.9014(6)
O2 O 1.3445(16) 0.3175(14) 0.9833(6)
H7 H 1.442(18) 0.32(2) 1.027(7)
S1 S 1.1615(5) 0.7715(5) 0.6065(2)
Cd1_2 Cd -0.5000 0.5000 0.5000
Cd1_3 Cd 1.5000 0.5000 0.5000
C1A C 0.4713(19) 0.8840(17) 0.3287(8)
H1A H 0.5766 0.9136 0.3701
C2A C 0.415(2) 1.012(2) 0.2448(9)
H2A H 0.4825 1.1256 0.2293
C3A C 0.219(2) 0.6822(17) 0.2930(8)
H3A H 0.1461 0.5734 0.3120
C4A C 0.258(2) 0.9691(17) 0.1840(8)
H4A H 0.2171 1.0561 0.1273
C5A C 0.1584(19) 0.7965(16) 0.2062(7)
C6A C -0.012(2) 0.7496(18) 0.1425(8)
H5A H -0.0655 0.8490 0.0908
C7A C -0.096(2) 0.5808(19) 0.1515(8)
H6A H -0.0483 0.4799 0.2032
C8A C -0.262(2) 0.5456(19) 0.0834(8)
C9A C 0.072(2) 0.2718(15) 0.4413(7)
N1A N 0.3784(16) 0.7164(13) 0.3531(6)
N2A N 0.2436(15) 0.2993(13) 0.4740(7)
O1A O -0.3281(17) 0.3707(14) 0.0986(6)
O2A O -0.3445(16) 0.6825(14) 0.0167(6)
H7A H -0.442(18) 0.68(2) -0.027(7)
S1A S -0.1615(5) 0.2285(5) 0.3935(2)
S1_2 S 0.1615(5) 0.7715(5) 0.6065(2)
S1A_2 S 0.8385(5) 0.2285(5) 0.3935(2)
loop_
_geom_bond_atom_site_label_1
_geom_bond_atom_site_label_2
_geom_bond_site_symmetry_1
_geom_bond_site_symmetry_2
Cd1 N1 1_555 1_555
C1 H1 1_555 1_555
C2 C1 1_555 1_555
H2 C2 1_555 1_555
C3 H3 1_555 1_555
C4 C2 1_555 1_555
H4 C4 1_555 1_555
C5 C3 1_555 1_555
C6 C5 1_555 1_555
H5 C6 1_555 1_555
C7 C6 1_555 1_555
H6 C7 1_555 1_555
C8 C7 1_555 1_555
C9 N2 1_555 1_555
N1 C1 1_555 1_555
N2 Cd1 1_555 1_555
O1 C8 1_555 1_555
O2 C8 1_555 1_555
H7 O2 1_555 1_555
S1 C9 1_555 1_555
Cd1_2 S1A 1_555 1_555
Cd1_3 S1 1_555 1_555
C1A H1A 1_555 1_555
C2A C1A 1_555 1_555
H2A C2A 1_555 1_555
C3A H3A 1_555 1_555
C4A C2A 1_555 1_555
H4A C4A 1_555 1_555
C5A C3A 1_555 1_555
C6A C5A 1_555 1_555
H5A C6A 1_555 1_555
C7A C6A 1_555 1_555
H6A C7A 1_555 1_555
C8A C7A 1_555 1_555
C9A N2A 1_555 1_555
N1A Cd1 1_555 1_555
N2A Cd1 1_555 1_555
O1A C8A 1_555 1_555
O2A C8A 1_555 1_555
H7A O2A 1_555 1_555
S1A C9A 1_555 1_555
S1_2 Cd1 1_555 1_555
S1A_2 Cd1 1_555 1_555
C3 N1 1_555 1_555
C4 C5 1_555 1_555
C1A N1A 1_555 1_555
C3A N1A 1_555 1_555
C4A C5A 1_555 1_555

#END
