
#######################################################################
#
#                 Cambridge Crystallographic Data Centre
#                                CCDC 
#
#######################################################################
#
# If this CIF has been generated from an entry in the Cambridge 
# Structural Database, then it will include bibliographic, chemical, 
# crystal, experimental, refinement or atomic coordinate data resulting 
# from the CCDC's data processing and validation procedures.
#
#######################################################################

data_SOVKOE
_symmetry_cell_setting           monoclinic
_symmetry_space_group_name_H-M   'P 21/c'
_symmetry_Int_Tables_number      14
_space_group_name_Hall           '-P 2ybc'
loop_
_symmetry_equiv_pos_site_id
_symmetry_equiv_pos_as_xyz
1 x,y,z
2 -x,1/2+y,1/2-z
3 -x,-y,-z
4 x,1/2-y,1/2+z
_cell_length_a                   10.0318(17)
_cell_length_b                   18.575(3)
_cell_length_c                   6.9096(11)
_cell_angle_alpha                90
_cell_angle_beta                 95.966(2)
_cell_angle_gamma                90
_cell_volume                     1280.57
loop_
_atom_site_label
_atom_site_type_symbol
_atom_site_fract_x
_atom_site_fract_y
_atom_site_fract_z
Cd1 Cd 0.15282(3) 0.107920(17) -0.15700(5)
C1 C -0.6370(7) 0.3137(4) -0.4961(8)
C2 C -0.5230(10) 0.2644(5) -0.4278(11)
H1 H -0.5385 0.2154 -0.4158
C3 C -0.4017(10) 0.2902(5) -0.3851(11)
H2 H -0.3884 0.3397 -0.3858
C4 C -0.2840(6) 0.2414(4) -0.3351(7)
C5 C -0.1657(6) 0.2744(3) -0.3047(8)
H3 H -0.1623 0.3244 -0.3125
C6 C -0.2819(5) 0.1666(4) -0.3179(8)
H4 H -0.3616 0.1408 -0.3379
C7 C -0.0498(5) 0.2369(3) -0.2625(7)
H5 H 0.0305 0.2623 -0.2459
C8 C -0.1620(5) 0.1306(3) -0.2711(9)
H6 H -0.1626 0.0808 -0.2584
C9 C -0.0196(6) 0.0511(3) 0.1979(8)
N1 N -0.0456(4) 0.1659(2) -0.2439(6)
N2 N 0.0698(5) 0.0739(3) 0.1341(7)
O1 O -0.6254(4) 0.3813(3) -0.5184(7)
O2 O -0.7427(4) 0.2826(2) -0.5352(6)
O3 O 0.2197(4) 0.1423(2) -0.4618(7)
H7 H 0.224(6) 0.1858(14) -0.493(9)
H8 H 0.291(4) 0.121(3) -0.466(11)
S1 S -0.1539(2) 0.02101(9) 0.2924(4)
Cd1C Cd -0.84718(3) 0.392080(17) -0.65700(5)
Cd1B Cd -0.15282(3) -0.107920(17) 0.15700(5)
O1C O 0.3746(4) 0.1187(3) -0.0184(7)
O2C O 0.2573(4) 0.2174(2) -0.0352(6)
S1B S 0.1539(2) -0.02101(9) -0.2924(4)
O4 O 0.4249(12) 0.0570(6) -0.5716(17)
C10? C 0.520(2) 0.1854(13) 0.078(3)
C11? C 0.558(2) 0.2545(15) 0.098(3)
H9? H 0.5745 0.1450 0.1023
H10? H 0.5015 0.2939 0.0758
O5? O 0.5536(15) 0.0185(7) -0.153(2)
loop_
_geom_bond_atom_site_label_1
_geom_bond_atom_site_label_2
_geom_bond_site_symmetry_1
_geom_bond_site_symmetry_2
Cd1 N1 1_555 1_555
C1 C2 1_555 1_555
C2 H1 1_555 1_555
C3 C2 1_555 1_555
H2 C3 1_555 1_555
C4 C3 1_555 1_555
C5 C4 1_555 1_555
H3 C5 1_555 1_555
C6 C4 1_555 1_555
H4 C6 1_555 1_555
C7 C5 1_555 1_555
H5 C7 1_555 1_555
C8 C6 1_555 1_555
H6 C8 1_555 1_555
C9 N2 1_555 1_555
N1 C7 1_555 1_555
N2 Cd1 1_555 1_555
O1 C1 1_555 1_555
O2 C1 1_555 1_555
O3 Cd1 1_555 1_555
H7 O3 1_555 1_555
H8 O3 1_555 1_555
S1 C9 1_555 1_555
Cd1C O1 1_555 1_555
Cd1B S1 1_555 1_555
O1C Cd1 1_555 1_555
O2C Cd1 1_555 1_555
S1B Cd1 1_555 1_555
C8 N1 1_555 1_555
O2 Cd1C 1_555 1_555

#END
