
#######################################################################
#
#                 Cambridge Crystallographic Data Centre
#                                CCDC 
#
#######################################################################
#
# If this CIF has been generated from an entry in the Cambridge 
# Structural Database, then it will include bibliographic, chemical, 
# crystal, experimental, refinement or atomic coordinate data resulting 
# from the CCDC's data processing and validation procedures.
#
#######################################################################

data_SOVQAX
_symmetry_cell_setting           monoclinic
_symmetry_space_group_name_H-M   'P 21/n'
_symmetry_Int_Tables_number      14
_space_group_name_Hall           '-P 2yn'
loop_
_symmetry_equiv_pos_site_id
_symmetry_equiv_pos_as_xyz
1 x,y,z
2 1/2-x,1/2+y,1/2-z
3 -x,-y,-z
4 1/2+x,1/2-y,1/2+z
_cell_length_a                   15.9050(15)
_cell_length_b                   13.9450(13)
_cell_length_c                   23.405(2)
_cell_angle_alpha                90
_cell_angle_beta                 94.6460(14)
_cell_angle_gamma                90
_cell_volume                     5174.06
loop_
_atom_site_label
_atom_site_type_symbol
_atom_site_fract_x
_atom_site_fract_y
_atom_site_fract_z
C1 C 0.5622(2) 0.1035(3) 1.11987(16)
C2 C 0.5865(2) 0.0593(3) 1.06428(16)
H1 H 0.5922 -0.0094 1.0697
H2 H 0.5409 0.0700 1.0349
C3 C 0.6619(3) 0.1828(3) 1.01801(16)
C4 C 0.5928(2) 0.2406(3) 1.00800(16)
H3 H 0.5409 0.2217 1.0197
C5 C 0.6008(3) 0.3282(3) 0.98004(18)
H4 H 0.5534 0.3668 0.9732
C6 C 0.6757(3) 0.3590(3) 0.96247(16)
H5 H 0.6794 0.4178 0.9441
C7 C 0.7480(2) 0.3000(3) 0.97269(16)
C8 C 0.7422(2) 0.2107(3) 1.00063(15)
C9 C 0.8142(3) 0.1516(3) 1.01104(16)
H6 H 0.8106 0.0927 1.0293
C10 C 0.8884(3) 0.1834(3) 0.99359(18)
H7 H 0.9362 0.1455 1.0008
C11 C 0.8961(3) 0.2710(3) 0.96512(17)
H8 H 0.9480 0.2898 0.9533
C12 C 0.8280(3) 0.3280(3) 0.95494(16)
C13 C 0.9038(2) 0.4515(3) 0.90865(17)
H9 H 0.9479 0.4442 0.9395
H10 H 0.8967 0.5195 0.9013
C14 C 0.9331(2) 0.4039(3) 0.85480(16)
C15 C 0.7491(3) 0.1820(3) 0.8207(2)
H11 H 0.7752 0.1956 0.8568
C16 C 0.7248(3) 0.1632(3) 0.73040(18)
H12 H 0.7328 0.1616 0.6915
C17 C 0.6530(3) 0.1394(3) 0.7534(2)
H13 H 0.6029 0.1193 0.7338
C18 C 0.6068(3) 0.1422(3) 0.85337(19)
H14 H 0.6364 0.1430 0.8913
H15 H 0.5785 0.0807 0.8485
C19 C 0.5406(2) 0.2216(3) 0.84973(17)
C20 C 0.4681(3) 0.2082(3) 0.87671(19)
H16 H 0.4581 0.1495 0.8937
C21 C 0.4094(3) 0.2816(3) 0.87877(18)
H17 H 0.3610 0.2718 0.8977
C22 C 0.4941(2) 0.3801(3) 0.82500(16)
H18 H 0.5032 0.4379 0.8067
C23 C 0.5525(2) 0.3078(3) 0.82342(16)
H19 H 0.6008 0.3175 0.8043
C24 C 0.4220(2) 0.3679(3) 0.85337(16)
C25 C 0.3551(2) 0.4459(3) 0.85264(16)
H20 H 0.3262 0.4425 0.8875
H21 H 0.3817 0.5083 0.8512
C26 C 0.2221(2) 0.3824(3) 0.80079(17)
H22 H 0.1991 0.3571 0.8328
C27 C 0.3081(2) 0.4563(3) 0.7480(2)
H23 H 0.3536 0.4907 0.7359
C28 C 0.2434(2) 0.4189(3) 0.71392(17)
H24 H 0.2366 0.4237 0.6742
C29 C -0.0466(2) 0.1608(2) 0.65904(15)
C30 C -0.0630(2) 0.1102(3) 0.60113(14)
H25 H -0.0228 0.1345 0.5756
H26 H -0.0515 0.0424 0.6068
C31 C -0.1661(2) 0.2047(2) 0.54564(14)
C32 C -0.1237(2) 0.2880(3) 0.55521(14)
H27 H -0.0764 0.2898 0.5813
C33 C -0.1509(2) 0.3720(3) 0.52596(15)
H28 H -0.1221 0.4292 0.5336
C34 C -0.2185(2) 0.3707(3) 0.48673(14)
H29 H -0.2351 0.4265 0.4672
C35 C -0.2634(2) 0.2850(2) 0.47566(13)
C36 C -0.2380(2) 0.1993(2) 0.50542(14)
C37 C -0.2848(2) 0.1145(2) 0.49482(14)
H30 H -0.2689 0.0584 0.5144
C38 C -0.3530(2) 0.1147(3) 0.45596(15)
H31 H -0.3836 0.0584 0.4494
C39 C -0.3785(2) 0.1974(3) 0.42561(14)
H32 H -0.4250 0.1952 0.3988
C40 C -0.3357(2) 0.2807(3) 0.43503(14)
C41 C -0.4373(2) 0.3767(3) 0.37999(14)
H33 H -0.4493 0.4448 0.3768
H34 H -0.4771 0.3495 0.4048
C42 C -0.4544(2) 0.3324(2) 0.32094(15)
C43 C 0.2503(3) 0.1827(3) 0.65498(18)
H35 H 0.2247 0.1995 0.6192
C44 C 0.3446(3) 0.1345(3) 0.7210(2)
H36 H 0.3944 0.1119 0.7398
C45 C 0.2741(2) 0.1591(3) 0.74547(17)
H37 H 0.2671 0.1565 0.7845
C46 C 0.3919(2) 0.1407(3) 0.62197(17)
H38 H 0.3628 0.1402 0.5839
H39 H 0.4207 0.0797 0.6275
C47 C 0.4567(2) 0.2199(3) 0.62498(17)
C48 C 0.5248(3) 0.2133(3) 0.59173(18)
H40 H 0.5311 0.1586 0.5697
C49 C 0.5828(3) 0.2853(4) 0.5906(2)
H41 H 0.6275 0.2790 0.5677
C50 C 0.5762(3) 0.3663(4) 0.62249(19)
C51 C 0.5094(3) 0.3733(3) 0.65722(17)
H42 H 0.5045 0.4271 0.6802
C52 C 0.4505(2) 0.3009(3) 0.65771(17)
H43 H 0.4057 0.3070 0.6806
C53 C 0.6425(3) 0.4444(3) 0.6230(2)
H44 H 0.6709 0.4415 0.5879
H45 H 0.6156 0.5067 0.6247
C54 C 0.7748(3) 0.3796(3) 0.6746(2)
H46 H 0.7969 0.3520 0.6428
C55 C 0.7565(3) 0.4210(3) 0.7603(2)
H47 H 0.7645 0.4282 0.7998
C56 C 0.6921(3) 0.4577(3) 0.7262(2)
H48 H 0.6474 0.4936 0.7382
N1 N 0.18882(18) 0.3720(2) 0.74837(14)
N2 N 0.2942(2) 0.4343(2) 0.80300(15)
N3 N 0.21349(18) 0.18884(19) 0.70318(14)
N4 N 0.3296(2) 0.1490(2) 0.66383(15)
N5 N 0.7039(2) 0.4332(2) 0.67193(18)
N6 N 0.80857(19) 0.3711(2) 0.72668(16)
N7 N 0.7851(2) 0.1903(2) 0.77319(15)
N8 N 0.6680(2) 0.1508(2) 0.81084(16)
O1 O -0.39373(14) 0.29487(17) 0.29871(10)
O2 O -0.53022(14) 0.34003(17) 0.30150(10)
O3 O -0.00066(16) 0.34477(16) 0.73817(15)
O4 O -0.35467(15) 0.36573(17) 0.40773(9)
O5 O -0.14578(15) 0.11992(17) 0.57299(10)
O6 O -0.10729(14) 0.20010(17) 0.68005(9)
O7 O 0.02891(14) 0.15638(16) 0.67902(9)
O8 O 0.50154(16) 0.06428(18) 1.14129(10)
O9 O 0.60357(15) 0.17406(17) 1.13877(9)
O10 O 0.66216(17) 0.09483(19) 1.04406(11)
O11 O 0.82690(17) 0.41441(19) 0.92757(11)
O12 O 0.89382(15) 0.33093(18) 0.83681(10)
O13 O 0.99349(16) 0.44443(18) 0.83411(11)
Ni1 Ni 0.10522(3) 0.26364(3) 0.718881(18)
Ni2 Ni 0.89332(3) 0.26427(3) 0.758366(18)
H49 H 0.0083(17) 0.3739(18) 0.7702(8)
H50 H -0.008(3) 0.385(2) 0.7125(11)
O1C O 0.10627(14) 0.20513(17) 0.79871(10)
O2C O 0.96978(14) 0.15997(17) 0.80150(10)
O3_2 O 0.99934(16) 0.34477(16) 0.73817(15)
O6_2 O 0.89271(14) 0.20010(17) 0.68005(9)
O9C O 0.10357(15) 0.32594(17) 0.63877(9)
Ni1C Ni -0.39478(3) 0.23636(3) 0.218881(18)
Ni1C_2 Ni 0.60522(3) 0.23636(3) 1.218881(18)
Ni2_2 Ni -0.10668(3) 0.26427(3) 0.758366(18)
Ni2C Ni -0.60668(3) 0.23573(3) 0.258366(18)
loop_
_geom_bond_atom_site_label_1
_geom_bond_atom_site_label_2
_geom_bond_site_symmetry_1
_geom_bond_site_symmetry_2
C1 C2 1_555 1_555
C2 H1 1_555 1_555
H2 C2 1_555 1_555
C3 C4 1_555 1_555
C4 H3 1_555 1_555
C5 C4 1_555 1_555
H4 C5 1_555 1_555
C6 C5 1_555 1_555
H5 C6 1_555 1_555
C7 C6 1_555 1_555
C8 C3 1_555 1_555
C9 C8 1_555 1_555
H6 C9 1_555 1_555
C10 C9 1_555 1_555
H7 C10 1_555 1_555
C11 C10 1_555 1_555
H8 C11 1_555 1_555
C12 C7 1_555 1_555
C13 H9 1_555 1_555
H10 C13 1_555 1_555
C14 C13 1_555 1_555
C15 H11 1_555 1_555
C16 H12 1_555 1_555
C17 C16 1_555 1_555
H13 C17 1_555 1_555
C18 H14 1_555 1_555
H15 C18 1_555 1_555
C19 C18 1_555 1_555
C20 C19 1_555 1_555
H16 C20 1_555 1_555
C21 C20 1_555 1_555
H17 C21 1_555 1_555
C22 H18 1_555 1_555
C23 C19 1_555 1_555
H19 C23 1_555 1_555
C24 C21 1_555 1_555
C25 C24 1_555 1_555
H20 C25 1_555 1_555
H21 C25 1_555 1_555
C26 H22 1_555 1_555
C27 H23 1_555 1_555
C28 C27 1_555 1_555
H24 C28 1_555 1_555
C29 C30 1_555 1_555
C30 H25 1_555 1_555
H26 C30 1_555 1_555
C31 C32 1_555 1_555
C32 H27 1_555 1_555
C33 C32 1_555 1_555
H28 C33 1_555 1_555
C34 C33 1_555 1_555
H29 C34 1_555 1_555
C35 C34 1_555 1_555
C36 C31 1_555 1_555
C37 C36 1_555 1_555
H30 C37 1_555 1_555
C38 C37 1_555 1_555
H31 C38 1_555 1_555
C39 C38 1_555 1_555
H32 C39 1_555 1_555
C40 C35 1_555 1_555
C41 H33 1_555 1_555
H34 C41 1_555 1_555
C42 C41 1_555 1_555
C43 H35 1_555 1_555
C44 H36 1_555 1_555
C45 C44 1_555 1_555
H37 C45 1_555 1_555
C46 H38 1_555 1_555
H39 C46 1_555 1_555
C47 C46 1_555 1_555
C48 C47 1_555 1_555
H40 C48 1_555 1_555
C49 C48 1_555 1_555
H41 C49 1_555 1_555
C50 C49 1_555 1_555
C51 C50 1_555 1_555
H42 C51 1_555 1_555
C52 C47 1_555 1_555
H43 C52 1_555 1_555
C53 C50 1_555 1_555
H44 C53 1_555 1_555
H45 C53 1_555 1_555
C54 H46 1_555 1_555
C55 H47 1_555 1_555
C56 C55 1_555 1_555
H48 C56 1_555 1_555
N1 C26 1_555 1_555
N2 C25 1_555 1_555
N3 C43 1_555 1_555
N4 C43 1_555 1_555
N5 C53 1_555 1_555
N6 C54 1_555 1_555
N7 C15 1_555 1_555
N8 C15 1_555 1_555
O1 C42 1_555 1_555
O2 C42 1_555 1_555
O3 Ni1 1_555 1_555
O4 C40 1_555 1_555
O5 C30 1_555 1_555
O6 C29 1_555 1_555
O7 C29 1_555 1_555
O8 C1 1_555 1_555
O9 C1 1_555 1_555
O10 C2 1_555 1_555
O11 C12 1_555 1_555
O12 C14 1_555 1_555
O13 C14 1_555 1_555
Ni1 N1 1_555 1_555
Ni2 N6 1_555 1_555
H49 O3 1_555 1_555
H50 O3 1_555 1_555
O1C Ni1 1_555 1_555
O2C Ni2 1_555 1_555
O3_2 Ni2 1_555 1_555
O6_2 Ni2 1_555 1_555
O9C Ni1 1_555 1_555
Ni1C O1 1_555 1_555
Ni1C_2 O9 1_555 1_555
Ni2_2 O3 1_555 1_555
Ni2C O2 1_555 1_555
C3 O10 1_555 1_555
C7 C8 1_555 1_555
C11 C12 1_555 1_555
C13 O11 1_555 1_555
C16 N7 1_555 1_555
C17 N8 1_555 1_555
C18 N8 1_555 1_555
C22 C23 1_555 1_555
C22 C24 1_555 1_555
C26 N2 1_555 1_555
C27 N2 1_555 1_555
C28 N1 1_555 1_555
C31 O5 1_555 1_555
C35 C36 1_555 1_555
C39 C40 1_555 1_555
C41 O4 1_555 1_555
C44 N4 1_555 1_555
C45 N3 1_555 1_555
C46 N4 1_555 1_555
C51 C52 1_555 1_555
C54 N5 1_555 1_555
C55 N6 1_555 1_555
C56 N5 1_555 1_555
N3 Ni1 1_555 1_555
N7 Ni2 1_555 1_555
O6 Ni2_2 1_555 1_555
O7 Ni1 1_555 1_555
O12 Ni2 1_555 1_555

#END
