
#######################################################################
#
#                 Cambridge Crystallographic Data Centre
#                                CCDC 
#
#######################################################################
#
# If this CIF has been generated from an entry in the Cambridge 
# Structural Database, then it will include bibliographic, chemical, 
# crystal, experimental, refinement or atomic coordinate data resulting 
# from the CCDC's data processing and validation procedures.
#
#######################################################################

data_SOVQUQ
_symmetry_cell_setting           monoclinic
_symmetry_space_group_name_H-M   'C 2/c'
_symmetry_Int_Tables_number      15
_space_group_name_Hall           '-C 2yn'
loop_
_symmetry_equiv_pos_site_id
_symmetry_equiv_pos_as_xyz
1 x,y,z
2 -x,y,1/2-z
3 1/2+x,1/2+y,z
4 1/2-x,1/2+y,1/2-z
5 -x,-y,-z
6 x,-y,1/2+z
7 1/2-x,1/2-y,-z
8 1/2+x,1/2-y,1/2+z
_cell_length_a                   24.347(7)
_cell_length_b                   10.291(3)
_cell_length_c                   16.337(5)
_cell_angle_alpha                90
_cell_angle_beta                 90.854(6)
_cell_angle_gamma                90
_cell_volume                     4092.86
loop_
_atom_site_label
_atom_site_type_symbol
_atom_site_fract_x
_atom_site_fract_y
_atom_site_fract_z
Co1 Co 0.187650(19) -0.27556(5) -0.41776(3)
C1 C 0.33215(14) -0.2529(4) -0.2509(2)
H1 H 0.3490 -0.1860 -0.2216
C2 C 0.28401(14) -0.2304(4) -0.2942(2)
H2 H 0.2699 -0.1464 -0.2943
C3 C 0.27760(15) -0.4403(4) -0.3333(2)
H3 H 0.2590 -0.5064 -0.3608
C4 C 0.32556(15) -0.4713(4) -0.2920(2)
H4 H 0.3382 -0.5566 -0.2913
C5 C 0.35483(15) -0.3746(4) -0.2513(2)
C6 C 0.40653(15) -0.4034(4) -0.2078(2)
C7 C 0.48235(15) -0.3963(4) -0.1447(2)
C8 C 0.53067(15) -0.3525(4) -0.0986(2)
C9 C 0.56271(16) -0.4427(4) -0.0570(2)
H5 H 0.5548 -0.5309 -0.0610
C10 C 0.60657(15) -0.4004(4) -0.0094(2)
H6 H 0.6273 -0.4627 0.0183
C11 C 0.59050(15) -0.1913(4) -0.0420(3)
H7 H 0.5998 -0.1040 -0.0373
C12 C 0.54564(15) -0.2232(4) -0.0917(2)
H8 H 0.5261 -0.1590 -0.1196
C13 C 0.25124(17) -0.0448(4) -0.4540(3)
C14 C 0.26276(14) 0.1004(3) -0.4492(2)
H9 H 0.2411 0.1382 -0.4059
H10 H 0.2516 0.1410 -0.5004
C15 C 0.32279(17) 0.1284(4) -0.4327(3)
C16 C 0.35771(18) 0.1683(4) -0.4940(3)
H11 H 0.3443 0.1813 -0.5470
C17 C 0.41270(18) 0.1888(4) -0.4759(3)
H12 H 0.4359 0.2171 -0.5170
C18 C 0.43391(18) 0.1679(4) -0.3977(3)
H13 H 0.4711 0.1804 -0.3866
C19 C 0.39898(17) 0.1280(4) -0.3360(3)
C20 C 0.42047(15) 0.0993(4) -0.2498(3)
H14 H 0.4545 0.1464 -0.2403
H15 H 0.4283 0.0072 -0.2448
C21 C 0.37956(16) 0.1378(5) -0.1867(3)
C22 C 0.34408(16) 0.1104(4) -0.3550(3)
H16 H 0.3205 0.0853 -0.3137
N1 N 0.25636(11) -0.3214(3) -0.33619(19)
N2 N 0.42412(14) -0.5250(4) -0.1942(2)
N3 N 0.47255(12) -0.5229(3) -0.15261(19)
N4 N 0.44229(12) -0.3180(3) -0.17791(18)
N5 N 0.62109(11) -0.2772(4) -0.00062(17)
O1 O 0.36577(9) 0.2566(3) -0.18224(15)
O2 O 0.35838(11) 0.0562(3) -0.14085(17)
O3 O 0.21091(10) -0.0858(2) -0.41634(16)
O4 O 0.28255(11) -0.1120(3) -0.49608(16)
H17 H 0.4056(15) -0.600(3) -0.197(3)
Co1C Co 0.312350(19) 0.22444(5) -0.08224(3)
Co1F Co 0.312350(19) -0.22444(5) -0.58224(3)
Co1E Co 0.187650(19) -0.72444(5) -0.91776(3)
Co1G Co 0.687650(19) -0.22444(5) 0.08224(3)
Co1A Co -0.187650(19) -0.27556(5) -1.08224(3)
C1F C 0.16785(14) -0.2471(4) -0.7491(2)
H1F H 0.1510 -0.3140 -0.7784
C2F C 0.21599(14) -0.2696(4) -0.7058(2)
H2F H 0.2301 -0.3536 -0.7057
C3F C 0.22240(15) -0.0597(4) -0.6667(2)
H3F H 0.2410 0.0064 -0.6392
C4F C 0.17444(15) -0.0287(4) -0.7080(2)
H4F H 0.1618 0.0566 -0.7087
C5F C 0.14517(15) -0.1254(4) -0.7487(2)
C6F C 0.09347(15) -0.0966(4) -0.7922(2)
C7F C 0.01765(15) -0.1037(4) -0.8553(2)
C8F C -0.03067(15) -0.1475(4) -0.9014(2)
C9F C -0.06271(16) -0.0573(4) -0.9430(2)
H5F H -0.0548 0.0309 -0.9390
C10F C -0.10657(15) -0.0996(4) -0.9906(2)
H6F H -0.1273 -0.0373 -1.0183
C11F C -0.09050(15) -0.3087(4) -0.9580(3)
H7F H -0.0998 -0.3960 -0.9627
C12F C -0.04564(15) -0.2768(4) -0.9083(2)
H8F H -0.0261 -0.3410 -0.8804
C13F C 0.24876(17) -0.4552(4) -0.5460(3)
C14F C 0.23724(14) -0.6004(3) -0.5508(2)
H9F H 0.2589 -0.6382 -0.5941
H10F H 0.2484 -0.6410 -0.4996
C15F C 0.17721(17) -0.6284(4) -0.5673(3)
C16F C 0.14229(18) -0.6683(4) -0.5060(3)
H11F H 0.1557 -0.6813 -0.4530
C17F C 0.08730(18) -0.6888(4) -0.5241(3)
H12F H 0.0641 -0.7171 -0.4830
C18F C 0.06609(18) -0.6679(4) -0.6023(3)
H13F H 0.0289 -0.6804 -0.6134
C19F C 0.10102(17) -0.6280(4) -0.6640(3)
C20F C 0.07953(15) -0.5993(4) -0.7502(3)
H14F H 0.0455 -0.6464 -0.7597
H15F H 0.0717 -0.5072 -0.7552
C21F C 0.12044(16) -0.6378(5) -0.8133(3)
C22F C 0.15592(16) -0.6104(4) -0.6450(3)
H16F H 0.1795 -0.5853 -0.6863
N1F N 0.24364(11) -0.1786(3) -0.66381(19)
N2F N 0.07588(14) 0.0250(4) -0.8058(2)
N3F N 0.02745(12) 0.0229(3) -0.84739(19)
N4F N 0.05771(12) -0.1820(3) -0.82209(18)
N5G N 0.12109(11) -0.2228(4) -0.50062(17)
N5A N 0.37891(11) -0.2772(4) -0.49938(17)
N5F N -0.12109(11) -0.2228(4) -0.99938(17)
O1C O 0.13423(9) -0.2434(3) -0.31776(15)
O1E O 0.36577(9) -0.2566(3) -0.68224(15)
O1F O 0.13423(9) -0.7566(3) -0.81776(15)
O2C O 0.14162(11) -0.4438(3) -0.35915(17)
O2E O 0.35838(11) -0.0562(3) -0.64085(17)
O2F O 0.14162(11) -0.5562(3) -0.85915(17)
O3F O 0.28909(10) -0.4142(2) -0.58366(16)
O4F O 0.21745(11) -0.3880(3) -0.50392(16)
H17F H 0.0944(15) 0.100(3) -0.803(3)
loop_
_geom_bond_atom_site_label_1
_geom_bond_atom_site_label_2
_geom_bond_site_symmetry_1
_geom_bond_site_symmetry_2
Co1 N1 1_555 1_555
C1 H1 1_555 1_555
C2 C1 1_555 1_555
H2 C2 1_555 1_555
C3 H3 1_555 1_555
C4 C3 1_555 1_555
H4 C4 1_555 1_555
C5 C1 1_555 1_555
C6 C5 1_555 1_555
C7 C8 1_555 1_555
C8 C9 1_555 1_555
C9 H5 1_555 1_555
C10 C9 1_555 1_555
H6 C10 1_555 1_555
C11 H7 1_555 1_555
C12 C8 1_555 1_555
H8 C12 1_555 1_555
C13 C14 1_555 1_555
C14 H9 1_555 1_555
H10 C14 1_555 1_555
C15 C14 1_555 1_555
C16 C15 1_555 1_555
H11 C16 1_555 1_555
C17 C16 1_555 1_555
H12 C17 1_555 1_555
C18 C17 1_555 1_555
H13 C18 1_555 1_555
C19 C18 1_555 1_555
C20 C19 1_555 1_555
H14 C20 1_555 1_555
H15 C20 1_555 1_555
C21 C20 1_555 1_555
C22 C15 1_555 1_555
H16 C22 1_555 1_555
N1 C2 1_555 1_555
N2 C6 1_555 1_555
N3 C7 1_555 1_555
N4 C6 1_555 1_555
N5 C10 1_555 1_555
O1 C21 1_555 1_555
O2 C21 1_555 1_555
O3 Co1 1_555 1_555
O4 C13 1_555 1_555
H17 N2 1_555 1_555
Co1C O1 1_555 1_555
Co1F O4 1_555 1_555
Co1E O1F 1_555 1_555
Co1G N5 1_555 1_555
Co1A N5F 1_555 1_555
C1F H1F 1_555 1_555
C2F C1F 1_555 1_555
H2F C2F 1_555 1_555
C3F H3F 1_555 1_555
C4F C3F 1_555 1_555
H4F C4F 1_555 1_555
C5F C1F 1_555 1_555
C6F C5F 1_555 1_555
C7F C8F 1_555 1_555
C8F C9F 1_555 1_555
C9F H5F 1_555 1_555
C10F C9F 1_555 1_555
H6F C10F 1_555 1_555
C11F H7F 1_555 1_555
C12F C8F 1_555 1_555
H8F C12F 1_555 1_555
C13F C14F 1_555 1_555
C14F H9F 1_555 1_555
H10F C14F 1_555 1_555
C15F C14F 1_555 1_555
C16F C15F 1_555 1_555
H11F C16F 1_555 1_555
C17F C16F 1_555 1_555
H12F C17F 1_555 1_555
C18F C17F 1_555 1_555
H13F C18F 1_555 1_555
C19F C18F 1_555 1_555
C20F C19F 1_555 1_555
H14F C20F 1_555 1_555
H15F C20F 1_555 1_555
C21F C20F 1_555 1_555
C22F C15F 1_555 1_555
H16F C22F 1_555 1_555
N1F Co1F 1_555 1_555
N2F C6F 1_555 1_555
N3F C7F 1_555 1_555
N4F C6F 1_555 1_555
N5G Co1 1_555 1_555
N5A Co1F 1_555 1_555
N5F C10F 1_555 1_555
O1C Co1 1_555 1_555
O1E Co1F 1_555 1_555
O1F C21F 1_555 1_555
O2C Co1 1_555 1_555
O2E Co1F 1_555 1_555
O2F Co1E 1_555 1_555
O3F Co1F 1_555 1_555
O4F Co1 1_555 1_555
H17F N2F 1_555 1_555
C3 N1 1_555 1_555
C4 C5 1_555 1_555
C7 N4 1_555 1_555
C11 C12 1_555 1_555
C11 N5 1_555 1_555
C13 O3 1_555 1_555
C19 C22 1_555 1_555
N2 N3 1_555 1_555
O2 Co1C 1_555 1_555
C2F N1F 1_555 1_555
C3F N1F 1_555 1_555
C4F C5F 1_555 1_555
C7F N4F 1_555 1_555
C11F C12F 1_555 1_555
C11F N5F 1_555 1_555
C13F O3F 1_555 1_555
C13F O4F 1_555 1_555
C19F C22F 1_555 1_555
C21F O2F 1_555 1_555
N2F N3F 1_555 1_555

#END
