
#######################################################################
#
#                 Cambridge Crystallographic Data Centre
#                                CCDC 
#
#######################################################################
#
# If this CIF has been generated from an entry in the Cambridge 
# Structural Database, then it will include bibliographic, chemical, 
# crystal, experimental, refinement or atomic coordinate data resulting 
# from the CCDC's data processing and validation procedures.
#
#######################################################################

data_SOVQOK
_symmetry_cell_setting           triclinic
_symmetry_space_group_name_H-M   'P -1'
_symmetry_Int_Tables_number      2
_space_group_name_Hall           '-P 1'
loop_
_symmetry_equiv_pos_site_id
_symmetry_equiv_pos_as_xyz
1 x,y,z
2 -x,-y,-z
_cell_length_a                   8.006(4)
_cell_length_b                   10.491(5)
_cell_length_c                   12.987(6)
_cell_angle_alpha                66.922(9)
_cell_angle_beta                 80.276(9)
_cell_angle_gamma                68.379(9)
_cell_volume                     932.51
loop_
_atom_site_label
_atom_site_type_symbol
_atom_site_fract_x
_atom_site_fract_y
_atom_site_fract_z
Co1 Co 1.0000 1.0000 0.0000
Co2 Co 0.0000 0.5000 1.0000
C1 C 0.695(2) 0.8179(13) 0.3021(11)
H1 H 0.7089 0.7900 0.3783
C2 C 0.807(2) 0.8787(14) 0.2290(11)
H2 H 0.8907 0.8984 0.2569
C3 C 0.673(2) 0.8922(13) 0.0845(11)
H3 H 0.6622 0.9186 0.0080
C4 C 0.5505(19) 0.8350(13) 0.1536(10)
H4 H 0.4619 0.8228 0.1241
C5 C 0.558(2) 0.7952(13) 0.2676(11)
C6 C 0.423(2) 0.7374(12) 0.3452(11)
C7 C 0.2804(19) 0.6489(12) 0.4850(11)
C8 C 0.212(2) 0.5989(12) 0.6060(10)
C9 C 0.3204(18) 0.5935(12) 0.6859(10)
H5 H 0.4269 0.6148 0.6657
C10 C 0.254(2) 0.5540(13) 0.7962(11)
H6 H 0.3169 0.5564 0.8492
C11 C 0.017(2) 0.5133(12) 0.7534(11)
H7 H -0.0861 0.4874 0.7756
C12 C 0.0722(19) 0.5508(13) 0.6411(10)
H8 H 0.0113 0.5422 0.5905
C13 C 1.088(2) 1.1573(13) 0.1222(11)
C14 C 1.1691(16) 1.1533(11) 0.2199(9)
C15 C 1.125(2) 1.0702(12) 0.3258(10)
H9 H 1.0436 1.0217 0.3359
C16 C 1.204(2) 1.0599(14) 0.4167(11)
H10 H 1.1709 1.0082 0.4888
C17 C 1.330(2) 1.1248(15) 0.4018(12)
H11 H 1.3821 1.1167 0.4636
C18 C 1.3796(19) 1.2025(14) 0.2955(11)
H12 H 1.4702 1.2423 0.2848
C19 C 1.2924(17) 1.2199(13) 0.2051(10)
C20 C 1.368(2) 1.3075(15) 0.0857(11)
N1 N 0.8075(16) 0.9139(10) 0.1165(9)
N2 N 0.2857(16) 0.7170(11) 0.3149(8)
H13 H 0.2626 0.7379 0.2467
N3 N 0.1890(17) 0.6600(12) 0.4039(9)
N4 N 0.4217(15) 0.6949(10) 0.4528(8)
N5 N 0.1110(15) 0.5136(10) 0.8322(9)
O1 O 1.0705(12) 1.0396(8) 0.1269(6)
O2 O 1.0253(12) 1.2774(9) 0.0420(7)
O3 O 1.2562(13) 1.4395(10) 0.0443(7)
O4 O 1.5047(9) 1.2476(6) 0.0531(5)
O5 O 0.8048(9) 1.2204(6) -0.0628(5)
H14 H 0.8279 1.2848 -0.0490
H15 H 0.7781 1.2558 -0.1313
Co2_2 Co 1.0000 1.5000 0.0000
Co2_3 Co 2.0000 1.5000 -1.0000
Co2_4 Co 1.0000 0.5000 0.0000
C1A C 1.305(2) 1.1821(13) -0.3021(11)
H1A H 1.2911 1.2100 -0.3783
C2A C 1.193(2) 1.1213(14) -0.2290(11)
H2A H 1.1093 1.1016 -0.2569
C3A C 1.327(2) 1.1078(13) -0.0845(11)
H3A H 1.3378 1.0814 -0.0080
C4A C 1.4495(19) 1.1650(13) -0.1536(10)
H4A H 1.5381 1.1772 -0.1241
C5A C 1.442(2) 1.2048(13) -0.2676(11)
C6A C 1.577(2) 1.2626(12) -0.3452(11)
C7A C 1.7196(19) 1.3511(12) -0.4850(11)
C8A C 1.788(2) 1.4011(12) -0.6060(10)
C9A C 1.6796(18) 1.4065(12) -0.6859(10)
H5A H 1.5731 1.3852 -0.6657
C10A C 1.746(2) 1.4460(13) -0.7962(11)
H6A H 1.6831 1.4436 -0.8492
C11A C 1.983(2) 1.4867(12) -0.7534(11)
H7A H 2.0861 1.5126 -0.7756
C12A C 1.9278(19) 1.4492(13) -0.6411(10)
H8A H 1.9887 1.4578 -0.5905
C13A C 0.912(2) 0.8427(13) -0.1222(11)
C14A C 0.8309(16) 0.8467(11) -0.2199(9)
C15A C 0.875(2) 0.9298(12) -0.3258(10)
H9A H 0.9564 0.9783 -0.3359
C16A C 0.796(2) 0.9401(14) -0.4167(11)
H10A H 0.8291 0.9918 -0.4888
C17A C 0.670(2) 0.8752(15) -0.4018(12)
H11A H 0.6179 0.8833 -0.4636
C18A C 0.6204(19) 0.7975(14) -0.2955(11)
H12A H 0.5298 0.7577 -0.2848
C19A C 0.7076(17) 0.7801(13) -0.2051(10)
C20A C 0.632(2) 0.6925(15) -0.0857(11)
N1A N 1.1925(16) 1.0861(10) -0.1165(9)
N2A N 1.7143(16) 1.2830(11) -0.3149(8)
H13A H 1.7374 1.2621 -0.2467
N3A N 1.8110(17) 1.3400(12) -0.4039(9)
N4A N 1.5783(15) 1.3051(10) -0.4528(8)
N5A N 1.8890(15) 1.4864(10) -0.8322(9)
N5A_2 N -0.1110(15) 0.4864(10) 1.1678(9)
O1A O 0.9295(12) 0.9604(8) -0.1269(6)
O2A O 0.9747(12) 0.7226(9) -0.0420(7)
O2A_2 O -0.0253(12) 0.7226(9) 0.9580(7)
O2_2 O 0.0253(12) 0.2774(9) 1.0420(7)
O3A O 0.7438(13) 0.5605(10) -0.0443(7)
O3A_2 O -0.2562(13) 0.5605(10) 0.9557(7)
O3_2 O 0.2562(13) 0.4395(10) 1.0443(7)
O4A O 0.4953(9) 0.7524(6) -0.0531(5)
O5A O 1.1952(9) 0.7796(6) 0.0628(5)
H14A H 1.1721 0.7152 0.0490
H15A H 1.2219 0.7442 0.1313
loop_
_geom_bond_atom_site_label_1
_geom_bond_atom_site_label_2
_geom_bond_site_symmetry_1
_geom_bond_site_symmetry_2
Co1 N1 1_555 1_555
Co2 N5 1_555 1_555
C1 H1 1_555 1_555
C2 C1 1_555 1_555
H2 C2 1_555 1_555
C3 H3 1_555 1_555
C4 C3 1_555 1_555
H4 C4 1_555 1_555
C5 C1 1_555 1_555
C6 C5 1_555 1_555
C7 C8 1_555 1_555
C8 C9 1_555 1_555
C9 H5 1_555 1_555
C10 C9 1_555 1_555
H6 C10 1_555 1_555
C11 H7 1_555 1_555
C12 C8 1_555 1_555
H8 C12 1_555 1_555
C13 C14 1_555 1_555
C14 C15 1_555 1_555
C15 H9 1_555 1_555
C16 C15 1_555 1_555
H10 C16 1_555 1_555
C17 C16 1_555 1_555
H11 C17 1_555 1_555
C18 C17 1_555 1_555
H12 C18 1_555 1_555
C19 C14 1_555 1_555
C20 C19 1_555 1_555
N1 C2 1_555 1_555
N2 C6 1_555 1_555
H13 N2 1_555 1_555
N3 C7 1_555 1_555
N4 C6 1_555 1_555
N5 C10 1_555 1_555
O1 Co1 1_555 1_555
O2 C13 1_555 1_555
O3 C20 1_555 1_555
O4 C20 1_555 1_555
O5 Co1 1_555 1_555
H14 O5 1_555 1_555
H15 O5 1_555 1_555
Co2_2 O2 1_555 1_555
Co2_3 N5A 1_555 1_555
Co2_4 O2A 1_555 1_555
C1A H1A 1_555 1_555
C2A C1A 1_555 1_555
H2A C2A 1_555 1_555
C3A H3A 1_555 1_555
C4A C3A 1_555 1_555
H4A C4A 1_555 1_555
C5A C1A 1_555 1_555
C6A C5A 1_555 1_555
C7A C8A 1_555 1_555
C8A C9A 1_555 1_555
C9A H5A 1_555 1_555
C10A C9A 1_555 1_555
H6A C10A 1_555 1_555
C11A H7A 1_555 1_555
C12A C8A 1_555 1_555
H8A C12A 1_555 1_555
C13A C14A 1_555 1_555
C14A C15A 1_555 1_555
C15A H9A 1_555 1_555
C16A C15A 1_555 1_555
H10A C16A 1_555 1_555
C17A C16A 1_555 1_555
H11A C17A 1_555 1_555
C18A C17A 1_555 1_555
H12A C18A 1_555 1_555
C19A C14A 1_555 1_555
C20A C19A 1_555 1_555
N1A Co1 1_555 1_555
N2A C6A 1_555 1_555
H13A N2A 1_555 1_555
N3A C7A 1_555 1_555
N4A C6A 1_555 1_555
N5A C10A 1_555 1_555
N5A_2 Co2 1_555 1_555
O1A Co1 1_555 1_555
O2A C13A 1_555 1_555
O2A_2 Co2 1_555 1_555
O2_2 Co2 1_555 1_555
O3A Co2_4 1_555 1_555
O3A_2 Co2 1_555 1_555
O3_2 Co2 1_555 1_555
O4A C20A 1_555 1_555
O5A Co1 1_555 1_555
H14A O5A 1_555 1_555
H15A O5A 1_555 1_555
C3 N1 1_555 1_555
C4 C5 1_555 1_555
C7 N4 1_555 1_555
C11 C12 1_555 1_555
C11 N5 1_555 1_555
C13 O1 1_555 1_555
C18 C19 1_555 1_555
N2 N3 1_555 1_555
O3 Co2_2 1_555 1_555
C2A N1A 1_555 1_555
C3A N1A 1_555 1_555
C4A C5A 1_555 1_555
C7A N4A 1_555 1_555
C11A C12A 1_555 1_555
C11A N5A 1_555 1_555
C13A O1A 1_555 1_555
C18A C19A 1_555 1_555
C20A O3A 1_555 1_555
N2A N3A 1_555 1_555

#END
