
#######################################################################
#
#                 Cambridge Crystallographic Data Centre
#                                CCDC 
#
#######################################################################
#
# If this CIF has been generated from an entry in the Cambridge 
# Structural Database, then it will include bibliographic, chemical, 
# crystal, experimental, refinement or atomic coordinate data resulting 
# from the CCDC's data processing and validation procedures.
#
#######################################################################

data_SOVWAD
_symmetry_cell_setting           orthorhombic
_symmetry_space_group_name_H-M   'P 21 21 2'
_symmetry_Int_Tables_number      18
_space_group_name_Hall           'P 2 2ab'
loop_
_symmetry_equiv_pos_site_id
_symmetry_equiv_pos_as_xyz
1 x,y,z
2 -x,-y,z
3 1/2-x,1/2+y,-z
4 1/2+x,1/2-y,-z
_cell_length_a                   8.309(3)
_cell_length_b                   28.924(12)
_cell_length_c                   5.622(2)
_cell_angle_alpha                90
_cell_angle_beta                 90
_cell_angle_gamma                90
_cell_volume                     1351.13
loop_
_atom_site_label
_atom_site_type_symbol
_atom_site_fract_x
_atom_site_fract_y
_atom_site_fract_z
Br1 Br -0.10120(8) 0.73463(2) -0.03097(12)
Ca1 Ca 0.5000 0.5000 0.1082(2)
S1 S 0.34973(14) 0.56919(4) 0.6203(2)
O1 O 0.3882(4) 0.54488(11) 0.4035(6)
O2 O 0.4549(4) 0.55530(11) 0.8159(6)
O3 O 0.1822(4) 0.56688(12) 0.6800(7)
O4 O 0.2418(4) 0.46984(14) 0.1235(8)
C1 C 0.2712(6) 0.65304(15) 0.4191(8)
C2 C 0.2107(6) 0.69451(15) 0.4982(10)
H1 H 0.2463 0.7065 0.6426
C3 C 0.0984(6) 0.71870(17) 0.3674(9)
H2 H 0.0572 0.7466 0.4229
C4 C 0.0486(6) 0.70082(18) 0.1540(9)
C5 C 0.1051(6) 0.65984(17) 0.0722(9)
H3 H 0.0685 0.6480 -0.0718
C6 C 0.2176(6) 0.63574(17) 0.2045(9)
H4 H 0.2573 0.6077 0.1486
C7 C 0.3977(6) 0.62910(15) 0.5655(9)
H5 H 0.4019 0.6447 0.7201
C8 C 0.5617(6) 0.6324(2) 0.4576(14)
H6 H 0.5734 0.6195 0.3071
C9 C 0.6854(10) 0.6505(3) 0.545(2)
H7 H 0.6812 0.6639 0.6953
H8 H 0.7815 0.6504 0.4602
C10 C 0.1592(8) 0.4391(3) -0.0299(16)
H9 H 0.0490 0.4487 -0.0445
H10 H 0.1634 0.4084 0.0346
H11 H 0.2092 0.4394 -0.1838
H12 H 0.183(8) 0.476(2) 0.256(8)
Br1A Br 1.10120(8) 0.26537(2) -0.03097(12)
S1A S 0.65027(14) 0.43081(4) 0.6203(2)
O1A O 0.6118(4) 0.45512(11) 0.4035(6)
O2A O 0.5451(4) 0.44470(11) 0.8159(6)
O3A O 0.8178(4) 0.43312(12) 0.6800(7)
O4A O 0.7582(4) 0.53016(14) 0.1235(8)
C1A C 0.7288(6) 0.34696(15) 0.4191(8)
C2A C 0.7893(6) 0.30549(15) 0.4982(10)
H1A H 0.7537 0.2935 0.6426
C3A C 0.9016(6) 0.28130(17) 0.3674(9)
H2A H 0.9428 0.2534 0.4229
C4A C 0.9514(6) 0.29918(18) 0.1540(9)
C5A C 0.8949(6) 0.34016(17) 0.0722(9)
H3A H 0.9315 0.3520 -0.0718
C6A C 0.7824(6) 0.36426(17) 0.2045(9)
H4A H 0.7427 0.3923 0.1486
C7A C 0.6023(6) 0.37090(15) 0.5655(9)
H5A H 0.5981 0.3553 0.7201
C8A C 0.4383(6) 0.3676(2) 0.4576(14)
H6A H 0.4266 0.3805 0.3071
C9A C 0.3146(10) 0.3495(3) 0.545(2)
H7A H 0.3188 0.3361 0.6953
H8A H 0.2185 0.3496 0.4602
C10A C 0.8408(8) 0.5609(3) -0.0299(16)
H9A H 0.9510 0.5513 -0.0445
H10A H 0.8366 0.5916 0.0346
H11A H 0.7908 0.5606 -0.1838
H12A H 0.817(8) 0.524(2) 0.256(8)
Ca1_2 Ca 0.5000 0.5000 1.1082(2)
O2_2 O 0.4549(4) 0.55530(11) -0.1841(6)
O2A_2 O 0.5451(4) 0.44470(11) -0.1841(6)
O5 O 0.0000 0.5000 0.4262(12)
H13 H 0.031(11) 0.522(3) 0.502(16)
H13A H -0.031(11) 0.478(3) 0.502(16)
loop_
_geom_bond_atom_site_label_1
_geom_bond_atom_site_label_2
_geom_bond_site_symmetry_1
_geom_bond_site_symmetry_2
Br1 C4 1_555 1_555
Ca1 O1 1_555 1_555
S1 O1 1_555 1_555
O2 S1 1_555 1_555
O3 S1 1_555 1_555
O4 Ca1 1_555 1_555
C1 C2 1_555 1_555
C2 H1 1_555 1_555
C3 C2 1_555 1_555
H2 C3 1_555 1_555
C4 C3 1_555 1_555
C5 C4 1_555 1_555
H3 C5 1_555 1_555
C6 C1 1_555 1_555
H4 C6 1_555 1_555
C7 S1 1_555 1_555
H5 C7 1_555 1_555
C8 C7 1_555 1_555
H6 C8 1_555 1_555
C9 C8 1_555 1_555
H7 C9 1_555 1_555
H8 C9 1_555 1_555
C10 O4 1_555 1_555
H9 C10 1_555 1_555
H10 C10 1_555 1_555
H11 C10 1_555 1_555
H12 O4 1_555 1_555
O5 H13 1_555 1_555
Br1A C4A 1_555 1_555
S1A O1A 1_555 1_555
O1A Ca1 1_555 1_555
O2A S1A 1_555 1_555
O3A S1A 1_555 1_555
O4A Ca1 1_555 1_555
C1A C2A 1_555 1_555
C2A H1A 1_555 1_555
C3A C2A 1_555 1_555
H2A C3A 1_555 1_555
C4A C3A 1_555 1_555
C5A C4A 1_555 1_555
H3A C5A 1_555 1_555
C6A C1A 1_555 1_555
H4A C6A 1_555 1_555
C7A S1A 1_555 1_555
H5A C7A 1_555 1_555
C8A C7A 1_555 1_555
H6A C8A 1_555 1_555
C9A C8A 1_555 1_555
H7A C9A 1_555 1_555
H8A C9A 1_555 1_555
C10A O4A 1_555 1_555
H9A C10A 1_555 1_555
H10A C10A 1_555 1_555
H11A C10A 1_555 1_555
H12A O4A 1_555 1_555
Ca1_2 O2 1_555 1_555
O2_2 Ca1 1_555 1_555
O2A_2 Ca1 1_555 1_555
H13A O5 1_555 1_555
C1 C7 1_555 1_555
C5 C6 1_555 1_555
O2A Ca1_2 1_555 1_555
C1A C7A 1_555 1_555
C5A C6A 1_555 1_555

#END
