
#######################################################################
#
#                 Cambridge Crystallographic Data Centre
#                                CCDC 
#
#######################################################################
#
# If this CIF has been generated from an entry in the Cambridge 
# Structural Database, then it will include bibliographic, chemical, 
# crystal, experimental, refinement or atomic coordinate data resulting 
# from the CCDC's data processing and validation procedures.
#
#######################################################################

data_SOVWUX
_symmetry_cell_setting           triclinic
_symmetry_space_group_name_H-M   'P -1'
_symmetry_Int_Tables_number      2
_space_group_name_Hall           '-P 1'
loop_
_symmetry_equiv_pos_site_id
_symmetry_equiv_pos_as_xyz
1 x,y,z
2 -x,-y,-z
_cell_length_a                   13.2336(11)
_cell_length_b                   18.1911(15)
_cell_length_c                   18.8804(16)
_cell_angle_alpha                109.9840(10)
_cell_angle_beta                 107.6050(10)
_cell_angle_gamma                103.9120(10)
_cell_volume                     3759.62
loop_
_atom_site_label
_atom_site_type_symbol
_atom_site_fract_x
_atom_site_fract_y
_atom_site_fract_z
C1 C 0.0113(4) 0.3018(3) 0.6872(3)
C2 C 0.0443(4) 0.3976(3) 0.7171(3)
H1 H -0.0222 0.4091 0.6891
H2 H 0.0681 0.4264 0.7779
C3 C 0.1950(4) 0.5130(3) 0.7309(3)
C4 C 0.1877(4) 0.5739(3) 0.7961(3)
H3 H 0.1377 0.5571 0.8196
C5 C 0.2537(4) 0.6590(3) 0.8266(3)
H4 H 0.2482 0.7003 0.8709
C6 C 0.3274(4) 0.6842(3) 0.7933(3)
C7 C 0.3350(4) 0.6236(3) 0.7280(3)
H5 H 0.3863 0.6410 0.7056
C8 C 0.2687(4) 0.5378(3) 0.6953(3)
C9 C 0.4012(4) 0.7766(3) 0.8277(3)
C10 C 0.2711(4) 0.4748(3) 0.6257(3)
C11 C 0.2708(4) 0.4213(3) 0.5670(3)
C12 C 0.2706(4) 0.3572(3) 0.4960(3)
C13 C 0.3741(5) 0.3526(4) 0.4960(4)
H6 H 0.4443 0.3920 0.5424
C14 C 0.3753(5) 0.2911(4) 0.4285(4)
H7 H 0.4466 0.2887 0.4291
C15 C 0.2732(5) 0.2324(3) 0.3596(3)
C16 C 0.1717(5) 0.2385(3) 0.3594(3)
H8 H 0.1015 0.2003 0.3124
C17 C 0.1703(4) 0.3001(3) 0.4272(3)
H9 H 0.0990 0.3029 0.4260
C18 C 0.1495(5) 0.0773(3) 0.2230(4)
H10 H 0.0934 0.0995 0.2009
H11 H 0.1294 0.0563 0.2603
H12 H 0.1489 0.0308 0.1770
C19 C 0.0020(4) 0.2576(3) 0.5996(3)
H13 H 0.0762 0.2804 0.5972
H14 H -0.0205 0.1959 0.5811
C20 C -0.1499(4) 0.2169(3) 0.4677(3)
C21 C -0.1121(4) 0.1619(3) 0.4210(3)
H15 H -0.0383 0.1614 0.4456
C22 C -0.1835(4) 0.1079(3) 0.3380(3)
H16 H -0.1572 0.0715 0.3054
C23 C -0.2932(4) 0.1060(3) 0.3016(3)
C24 C -0.3319(4) 0.1598(3) 0.3492(3)
H17 H -0.4072 0.1578 0.3248
C25 C -0.2608(4) 0.2162(3) 0.4320(3)
C26 C -0.3672(4) 0.0483(3) 0.2113(2)
C27 C -0.2942(4) 0.2754(3) 0.4831(3)
C28 C -0.3109(4) 0.3287(3) 0.5306(3)
C29 C -0.3295(5) 0.3910(4) 0.5906(4)
C30 C -0.3263(5) 0.4654(4) 0.5903(4)
H18 H -0.3110 0.4774 0.5485
C31 C -0.3450(5) 0.5268(4) 0.6504(4)
H19 H -0.3419 0.5791 0.6491
C32 C -0.3675(5) 0.5088(4) 0.7097(4)
C33 C -0.3751(6) 0.4315(4) 0.7111(4)
H20 H -0.3944 0.4188 0.7513
C34 C -0.3542(6) 0.3735(4) 0.6531(4)
H21 H -0.3563 0.3216 0.6549
C35 C -0.3676(5) 0.6672(5) 0.7668(7)
H22 H -0.4079 0.6499 0.7073
H23 H -0.2847 0.6935 0.7845
H24 H -0.3932 0.7081 0.7982
C36 C -0.1057(5) 0.2650(3) 0.6869(3)
H25 H -0.1652 0.2703 0.6444
H26 H -0.1259 0.2042 0.6726
C37 C -0.1359(5) 0.2664(3) 0.8077(3)
C38 C -0.1432(5) 0.1845(3) 0.7916(3)
H27 H -0.1269 0.1530 0.7479
C39 C -0.1745(5) 0.1492(3) 0.8400(3)
H28 H -0.1791 0.0932 0.8291
C40 C -0.1993(4) 0.1942(3) 0.9043(3)
C41 C -0.1907(4) 0.2758(3) 0.9206(3)
H29 H -0.2070 0.3069 0.9646
C42 C -0.1585(5) 0.3135(3) 0.8737(3)
C43 C -0.2281(4) 0.1549(3) 0.9567(3)
C44 C -0.1444(5) 0.3993(3) 0.8919(3)
C45 C -0.1281(5) 0.4707(3) 0.9016(3)
C46 C -0.1050(5) 0.5523(3) 0.9022(3)
C47 C -0.0726(5) 0.5635(3) 0.8416(3)
H30 H -0.0660 0.5178 0.8022
C48 C -0.0502(5) 0.6393(3) 0.8382(4)
H31 H -0.0264 0.6463 0.7974
C49 C -0.0621(4) 0.7067(3) 0.8944(3)
C50 C -0.0931(4) 0.6968(3) 0.9560(3)
H32 H -0.0996 0.7425 0.9954
C51 C -0.1144(5) 0.6200(3) 0.9596(3)
H33 H -0.1355 0.6134 1.0015
C52 C -0.0636(5) 0.8689(3) 0.9583(4)
H34 H -0.0085 0.8798 1.0126
H35 H -0.1419 0.8437 0.9522
H36 H -0.0528 0.9224 0.9544
C53 C 0.1046(6) 0.2906(3) 0.7479(3)
H37 H 0.1798 0.3164 0.7482
H38 H 0.1100 0.3186 0.8048
C54 C 0.1224(5) 0.1774(3) 0.7808(3)
C55 C 0.2050(5) 0.2334(3) 0.8609(3)
H39 H 0.2360 0.2924 0.8767
C56 C 0.2418(4) 0.2025(3) 0.9174(3)
H40 H 0.2986 0.2410 0.9720
C57 C 0.1980(4) 0.1172(3) 0.8963(3)
C58 C 0.1166(4) 0.0613(3) 0.8153(3)
H41 H 0.0860 0.0026 0.8003
C59 C 0.0787(4) 0.0892(3) 0.7558(3)
C60 C 0.2335(4) 0.0856(3) 0.9590(3)
C61 C -0.0024(5) 0.0324(3) 0.6727(3)
C62 C -0.0705(5) -0.0149(3) 0.6016(3)
C63 C -0.1503(5) -0.0678(3) 0.5160(3)
C64 C -0.2131(6) -0.1533(4) 0.4872(4)
H42 H -0.2011 -0.1784 0.5241
C65 C -0.2934(6) -0.2023(4) 0.4049(4)
H43 H -0.3364 -0.2606 0.3861
C66 C -0.3112(6) -0.1664(4) 0.3498(4)
C67 C -0.2472(6) -0.0824(4) 0.3777(4)
H44 H -0.2572 -0.0576 0.3406
C68 C -0.1680(6) -0.0337(4) 0.4602(4)
H45 H -0.1248 0.0244 0.4787
C69 C -0.4299(8) -0.1584(5) 0.2065(5)
H46 H -0.3611 -0.1382 0.1979
H47 H -0.4370 -0.1104 0.2457
H48 H -0.4978 -0.1862 0.1534
O1 O 0.3985(2) 0.99348(17) 1.00947(17)
O2 O 0.1369(3) 0.42811(19) 0.6975(2)
O3 O 0.4797(3) 0.79432(19) 0.8053(2)
O4 O 0.3807(3) 0.83135(18) 0.87810(19)
O5 O -0.0849(3) 0.2748(2) 0.54834(18)
O6 O -0.3170(3) 0.02651(19) 0.16544(18)
O7 O -0.4756(3) 0.0233(2) 0.18491(19)
O8 O -0.1023(4) 0.3096(2) 0.7675(3)
O9 O -0.2081(3) 0.0890(2) 0.9525(2)
O10 O -0.2685(3) 0.1895(2) 1.0058(2)
O11 O 0.0751(4) 0.2010(2) 0.7218(2)
O12 O 0.3256(3) 0.1349(2) 1.02429(19)
O13 O 0.1719(3) 0.0135(2) 0.9454(2)
S1 S 0.28652(14) 0.15807(10) 0.27806(10)
S2 S -0.39833(15) 0.57691(11) 0.78583(11)
S3 S -0.04101(11) 0.79761(7) 0.87765(8)
S4 S -0.4182(2) -0.23271(12) 0.24808(11)
O14 O 0.0716(4) 0.7391(3) 0.7438(3)
C70 C 0.1058(5) 0.7096(4) 0.6913(3)
H49 H 0.1740 0.7457 0.6946
N1 N 0.0547(4) 0.6306(3) 0.6295(3)
C71 C -0.0494(5) 0.5705(4) 0.6198(4)
H50 H -0.0786 0.5998 0.6581
H51 H -0.0324 0.5256 0.6323
H52 H -0.1075 0.5455 0.5625
C72 C 0.0990(6) 0.6018(4) 0.5679(4)
H53 H 0.1743 0.6445 0.5852
H54 H 0.0459 0.5934 0.5141
H55 H 0.1066 0.5482 0.5630
Pb1 Pb 0.637295(13) 0.932813(10) 0.885610(9)
Pb2 Pb 0.509221(13) 0.918820(9) 1.034996(9)
Pb3 Pb 0.222967(13) 0.885591(10) 0.904766(9)
O1A O 0.6015(2) 1.00652(17) 0.99053(17)
O6_2 O 0.6830(3) 1.02651(19) 1.16544(18)
O6A O 0.3170(3) 0.97349(19) 0.83456(18)
O7_2 O 0.5244(3) 1.0233(2) 1.18491(19)
O7A O 0.4756(3) 0.9767(2) 0.81509(19)
O9_2 O 0.7919(3) 1.0890(2) 0.9525(2)
O9A O 0.2081(3) 0.9110(2) 1.0475(2)
O10A O 0.2685(3) 0.8105(2) 0.9942(2)
O12A O 0.6744(3) 0.8651(2) 0.97571(19)
O13_2 O 0.1719(3) 1.0135(2) 0.9454(2)
Pb1_2 Pb -0.362705(13) -0.067187(10) 0.885610(9)
Pb1A Pb -0.637295(13) 0.067187(10) 0.114390(9)
Pb1A_2 Pb 0.362705(13) 0.067187(10) 1.114390(9)
Pb1A_3 Pb 0.362705(13) 1.067187(10) 1.114390(9)
Pb2_2 Pb -0.490779(13) -0.081180(9) 0.034996(9)
Pb2A Pb 0.490779(13) 1.081180(9) 0.965004(9)
Pb3_2 Pb 0.222967(13) -0.114409(10) 0.904766(9)
Pb3A Pb -0.222967(13) 0.114409(10) 0.095234(9)
Pb3A_2 Pb -0.222967(13) 0.114409(10) 1.095234(9)
C73 C 0.3132(9) 0.5149(6) 0.9680(5)
H56 H 0.2837 0.5410 1.0053
C74 C 0.4495(11) 0.5341(13) 0.9093(8)
H57 H 0.3978 0.4765 0.8666
H58 H 0.5227 0.5334 0.9412
H59 H 0.4629 0.5710 0.8827
C75 C 0.4444(13) 0.6564(8) 1.0171(11)
H60 H 0.3946 0.6816 0.9928
H61 H 0.5216 0.6819 1.0214
H62 H 0.4484 0.6669 1.0725
N2 N 0.3979(7) 0.5657(6) 0.9643(6)
O15 O 0.2684(6) 0.4392(3) 0.9298(4)
O16 O 0.691(2) 0.101(2) 0.5410(18)
C76 C 0.6108(11) 0.0588(10) 0.4721(11)
H63 H 0.6220 0.0168 0.4321
N3 N 0.5104(9) 0.0657(7) 0.4477(7)
C77 C 0.476(2) 0.1194(12) 0.5032(16)
H64 H 0.4176 0.0845 0.5130
H65 H 0.4432 0.1524 0.4782
H66 H 0.5424 0.1580 0.5561
C78 C 0.425(3) 0.014(3) 0.3615(14)
H67 H 0.4168 0.0503 0.3337
H68 H 0.3515 -0.0144 0.3603
H69 H 0.4509 -0.0286 0.3326
O17? O 0.694(3) 0.081(3) 0.540(2)
C79? C 0.659(2) 0.0349(14) 0.5704(15)
H70? H 0.6787 -0.0131 0.5656
N4? N 0.5936(19) 0.0542(14) 0.6103(14)
C80? C 0.576(2) 0.1326(15) 0.629(2)
H71? H 0.6273 0.1700 0.6168
H72? H 0.5917 0.1603 0.6880
H73? H 0.4959 0.1208 0.5949
C81? C 0.539(4) -0.004(3) 0.637(2)
H74? H 0.5545 -0.0558 0.6176
H75? H 0.4556 -0.0189 0.6126
H76? H 0.5690 0.0225 0.6974
loop_
_geom_bond_atom_site_label_1
_geom_bond_atom_site_label_2
_geom_bond_site_symmetry_1
_geom_bond_site_symmetry_2
C1 C2 1_555 1_555
C2 H1 1_555 1_555
H2 C2 1_555 1_555
C3 C4 1_555 1_555
C4 H3 1_555 1_555
C5 C4 1_555 1_555
H4 C5 1_555 1_555
C6 C5 1_555 1_555
C7 C6 1_555 1_555
H5 C7 1_555 1_555
C8 C3 1_555 1_555
C9 C6 1_555 1_555
C10 C8 1_555 1_555
C11 C10 1_555 1_555
C12 C11 1_555 1_555
C13 C12 1_555 1_555
H6 C13 1_555 1_555
C14 C13 1_555 1_555
H7 C14 1_555 1_555
C15 C14 1_555 1_555
C16 C15 1_555 1_555
H8 C16 1_555 1_555
C17 C12 1_555 1_555
H9 C17 1_555 1_555
C18 H10 1_555 1_555
H11 C18 1_555 1_555
H12 C18 1_555 1_555
C19 C1 1_555 1_555
H13 C19 1_555 1_555
H14 C19 1_555 1_555
C20 C21 1_555 1_555
C21 H15 1_555 1_555
C22 C21 1_555 1_555
H16 C22 1_555 1_555
C23 C22 1_555 1_555
C24 C23 1_555 1_555
H17 C24 1_555 1_555
C25 C20 1_555 1_555
C26 C23 1_555 1_555
C27 C25 1_555 1_555
C28 C27 1_555 1_555
C29 C28 1_555 1_555
C30 C29 1_555 1_555
H18 C30 1_555 1_555
C31 C30 1_555 1_555
H19 C31 1_555 1_555
C32 C31 1_555 1_555
C33 C32 1_555 1_555
H20 C33 1_555 1_555
C34 C29 1_555 1_555
H21 C34 1_555 1_555
C35 H22 1_555 1_555
H23 C35 1_555 1_555
H24 C35 1_555 1_555
C36 C1 1_555 1_555
H25 C36 1_555 1_555
H26 C36 1_555 1_555
C37 C38 1_555 1_555
C38 H27 1_555 1_555
C39 C38 1_555 1_555
H28 C39 1_555 1_555
C40 C39 1_555 1_555
C41 C40 1_555 1_555
H29 C41 1_555 1_555
C42 C37 1_555 1_555
C43 C40 1_555 1_555
C44 C42 1_555 1_555
C45 C44 1_555 1_555
C46 C45 1_555 1_555
C47 C46 1_555 1_555
H30 C47 1_555 1_555
C48 C47 1_555 1_555
H31 C48 1_555 1_555
C49 C48 1_555 1_555
C50 C49 1_555 1_555
H32 C50 1_555 1_555
C51 C46 1_555 1_555
H33 C51 1_555 1_555
C52 H34 1_555 1_555
H35 C52 1_555 1_555
H36 C52 1_555 1_555
C53 C1 1_555 1_555
H37 C53 1_555 1_555
H38 C53 1_555 1_555
C54 C55 1_555 1_555
C55 H39 1_555 1_555
C56 C55 1_555 1_555
H40 C56 1_555 1_555
C57 C56 1_555 1_555
C58 C57 1_555 1_555
H41 C58 1_555 1_555
C59 C54 1_555 1_555
C60 C57 1_555 1_555
C61 C59 1_555 1_555
C62 C61 1_555 1_555
C63 C62 1_555 1_555
C64 C63 1_555 1_555
H42 C64 1_555 1_555
C65 C64 1_555 1_555
H43 C65 1_555 1_555
C66 C65 1_555 1_555
C67 C66 1_555 1_555
H44 C67 1_555 1_555
C68 C63 1_555 1_555
H45 C68 1_555 1_555
C69 H46 1_555 1_555
H47 C69 1_555 1_555
H48 C69 1_555 1_555
O1 Pb2 1_555 1_555
O2 C2 1_555 1_555
O3 C9 1_555 1_555
O4 C9 1_555 1_555
O5 C19 1_555 1_555
O6 C26 1_555 1_555
O7 C26 1_555 1_555
O8 C36 1_555 1_555
O9 C43 1_555 1_555
O10 C43 1_555 1_555
O11 C53 1_555 1_555
O12 C60 1_555 1_555
O13 C60 1_555 1_555
S1 C15 1_555 1_555
S2 C32 1_555 1_555
S3 C49 1_555 1_555
S4 C66 1_555 1_555
O14 C70 1_555 1_555
C70 H49 1_555 1_555
N1 C70 1_555 1_555
C71 N1 1_555 1_555
H50 C71 1_555 1_555
H51 C71 1_555 1_555
H52 C71 1_555 1_555
C72 N1 1_555 1_555
H53 C72 1_555 1_555
H54 C72 1_555 1_555
H55 C72 1_555 1_555
Pb1 O3 1_555 1_555
Pb2 O4 1_555 1_555
Pb3 O1 1_555 1_555
C73 H56 1_555 1_555
C74 H57 1_555 1_555
H58 C74 1_555 1_555
H59 C74 1_555 1_555
C75 H60 1_555 1_555
H61 C75 1_555 1_555
H62 C75 1_555 1_555
N2 C73 1_555 1_555
O15 C73 1_555 1_555
O16 C76 1_555 1_555
C76 H63 1_555 1_555
N3 C76 1_555 1_555
C77 N3 1_555 1_555
H64 C77 1_555 1_555
H65 C77 1_555 1_555
H66 C77 1_555 1_555
C78 N3 1_555 1_555
H67 C78 1_555 1_555
H68 C78 1_555 1_555
H69 C78 1_555 1_555
O1A Pb1 1_555 1_555
O6_2 Pb2 1_555 1_555
O6A Pb3 1_555 1_555
O7_2 Pb2 1_555 1_555
O7A Pb1 1_555 1_555
O9_2 Pb1 1_555 1_555
O9A Pb3 1_555 1_555
O10A Pb3 1_555 1_555
O12A Pb1 1_555 1_555
O13_2 Pb3 1_555 1_555
Pb1_2 O9 1_555 1_555
Pb1A O7 1_555 1_555
Pb1A_2 O12 1_555 1_555
Pb1A_3 O1 1_555 1_555
Pb2_2 O6 1_555 1_555
Pb2A O1 1_555 1_555
Pb3_2 O13 1_555 1_555
Pb3A O6 1_555 1_555
Pb3A_2 O9 1_555 1_555
C3 O2 1_555 1_555
C7 C8 1_555 1_555
C16 C17 1_555 1_555
C18 S1 1_555 1_555
C20 O5 1_555 1_555
C24 C25 1_555 1_555
C33 C34 1_555 1_555
C35 S2 1_555 1_555
C37 O8 1_555 1_555
C41 C42 1_555 1_555
C50 C51 1_555 1_555
C52 S3 1_555 1_555
C54 O11 1_555 1_555
C58 C59 1_555 1_555
C67 C68 1_555 1_555
C69 S4 1_555 1_555
O4 Pb3 1_555 1_555
O7 Pb2_2 1_555 1_555
O10 Pb3A_2 1_555 1_555
O14 Pb3 1_555 1_555
Pb2 O1A 1_555 1_555
C74 N2 1_555 1_555
C75 N2 1_555 1_555
O1A Pb2A 1_555 1_555
O6A Pb2A 1_555 1_555
O7_2 Pb1A_3 1_555 1_555
O7A Pb2A 1_555 1_555
O9A Pb1A_3 1_555 1_555

#END
