
#######################################################################
#
#                 Cambridge Crystallographic Data Centre
#                                CCDC 
#
#######################################################################
#
# If this CIF has been generated from an entry in the Cambridge 
# Structural Database, then it will include bibliographic, chemical, 
# crystal, experimental, refinement or atomic coordinate data resulting 
# from the CCDC's data processing and validation procedures.
#
#######################################################################

data_SOWTAB
_symmetry_cell_setting           monoclinic
_symmetry_space_group_name_H-M   'P 21/n'
_symmetry_Int_Tables_number      14
_space_group_name_Hall           '-P 2yn'
loop_
_symmetry_equiv_pos_site_id
_symmetry_equiv_pos_as_xyz
1 x,y,z
2 1/2-x,1/2+y,1/2-z
3 -x,-y,-z
4 1/2+x,1/2-y,1/2+z
_cell_length_a                   9.609(4)
_cell_length_b                   8.957(4)
_cell_length_c                   21.346(9)
_cell_angle_alpha                90
_cell_angle_beta                 90.668(6)
_cell_angle_gamma                90
_cell_volume                     1837.08
loop_
_atom_site_label
_atom_site_type_symbol
_atom_site_fract_x
_atom_site_fract_y
_atom_site_fract_z
Co1 Co 0.69475(4) 0.10768(4) 0.838580(17)
N1 N 0.6344(3) -0.0500(3) 0.90789(12)
N2 N 0.8203(3) 0.1725(3) 0.91824(13)
O1 O 0.8414(2) 0.2024(3) 0.77617(11)
O2 O 0.8893(2) -0.0279(3) 0.80394(11)
O3 O 0.8242(2) -0.0476(3) 0.65669(13)
O4 O 0.9633(2) -0.2473(2) 0.66086(11)
O5 O 0.5863(3) -0.0132(3) 0.76846(12)
H1 H 0.6230 -0.0951 0.7639
C1 C 0.5410(4) -0.1583(4) 0.90240(17)
H2 H 0.5006 -0.1754 0.8633
C2 C 0.5005(4) -0.2474(4) 0.95217(18)
H3 H 0.4352 -0.3228 0.9463
C3 C 0.5585(4) -0.2222(4) 1.00991(18)
H4 H 0.5305 -0.2789 1.0440
C4 C 0.6592(4) -0.1121(4) 1.01789(16)
C5 C 0.7266(4) -0.0784(5) 1.07667(17)
H5 H 0.7013 -0.1305 1.1125
C6 C 0.8262(4) 0.0278(5) 1.08071(17)
H6 H 0.8708 0.0443 1.1190
C7 C 0.8650(4) 0.1156(4) 1.02771(17)
C8 C 0.9661(4) 0.2268(5) 1.02882(19)
H7 H 1.0156 0.2465 1.0656
C9 C 0.9926(4) 0.3077(5) 0.9753(2)
H8 H 1.0616 0.3806 0.9755
C10 C 0.9152(4) 0.2794(4) 0.92124(19)
H9 H 0.9307 0.3375 0.8859
C11 C 0.7958(3) 0.0901(4) 0.97028(15)
C12 C 0.6942(3) -0.0280(4) 0.96488(14)
C13 C 0.9176(3) 0.0878(3) 0.77317(15)
C14 C 1.0451(3) 0.0898(3) 0.73421(15)
C15 C 1.1542(3) 0.1862(4) 0.74930(17)
H10 H 1.1449 0.2534 0.7822
C16 C 1.2762(4) 0.1826(4) 0.71566(19)
H11 H 1.3485 0.2476 0.7258
C17 C 1.2905(3) 0.0824(4) 0.66703(18)
H12 H 1.3725 0.0798 0.6444
C18 C 1.1830(3) -0.0138(4) 0.65207(16)
H13 H 1.1936 -0.0817 0.6195
C19 C 1.0604(3) -0.0109(3) 0.68468(15)
C20 C 0.9383(3) -0.1079(4) 0.66625(14)
H14 H 0.590(6) 0.051(7) 0.733(3)
Co1A Co 0.80525(4) -0.39232(4) 0.661420(17)
O4A O 0.5367(2) 0.2527(2) 0.83914(11)
O6 O 0.6243(2) 0.1671(3) 0.66203(12)
H15 H 0.6792 0.1298 0.6353
H16 H 0.5540 0.2174 0.6499
loop_
_geom_bond_atom_site_label_1
_geom_bond_atom_site_label_2
_geom_bond_site_symmetry_1
_geom_bond_site_symmetry_2
Co1 N1 1_555 1_555
N1 C1 1_555 1_555
N2 Co1 1_555 1_555
O1 Co1 1_555 1_555
O2 Co1 1_555 1_555
O3 C20 1_555 1_555
O4 C20 1_555 1_555
O5 Co1 1_555 1_555
H1 O5 1_555 1_555
C1 H2 1_555 1_555
C2 C1 1_555 1_555
H3 C2 1_555 1_555
C3 C2 1_555 1_555
H4 C3 1_555 1_555
C4 C3 1_555 1_555
C5 C4 1_555 1_555
H5 C5 1_555 1_555
C6 C5 1_555 1_555
H6 C6 1_555 1_555
C7 C6 1_555 1_555
C8 C7 1_555 1_555
H7 C8 1_555 1_555
C9 C8 1_555 1_555
H8 C9 1_555 1_555
C10 N2 1_555 1_555
H9 C10 1_555 1_555
C11 N2 1_555 1_555
C12 N1 1_555 1_555
C13 O1 1_555 1_555
C14 C13 1_555 1_555
C15 C14 1_555 1_555
H10 C15 1_555 1_555
C16 C15 1_555 1_555
H11 C16 1_555 1_555
C17 C16 1_555 1_555
H12 C17 1_555 1_555
C18 C17 1_555 1_555
H13 C18 1_555 1_555
C19 C14 1_555 1_555
C20 C19 1_555 1_555
H14 O5 1_555 1_555
O6 H15 1_555 1_555
H16 O6 1_555 1_555
Co1A O4 1_555 1_555
O4A Co1 1_555 1_555
O2 C13 1_555 1_555
C4 C12 1_555 1_555
C7 C11 1_555 1_555
C9 C10 1_555 1_555
C11 C12 1_555 1_555
C18 C19 1_555 1_555

#END
