
#######################################################################
#
#                 Cambridge Crystallographic Data Centre
#                                CCDC 
#
#######################################################################
#
# If this CIF has been generated from an entry in the Cambridge 
# Structural Database, then it will include bibliographic, chemical, 
# crystal, experimental, refinement or atomic coordinate data resulting 
# from the CCDC's data processing and validation procedures.
#
#######################################################################

data_SOWYIM
_symmetry_cell_setting           tetragonal
_symmetry_space_group_name_H-M   'P 41 21 2'
_symmetry_Int_Tables_number      92
_space_group_name_Hall           'P 4abw 2nw'
loop_
_symmetry_equiv_pos_site_id
_symmetry_equiv_pos_as_xyz
1 x,y,z
2 1/2-y,1/2+x,1/4+z
3 -x,-y,1/2+z
4 1/2+y,1/2-x,3/4+z
5 y,x,-z
6 1/2+x,1/2-y,3/4-z
7 -y,-x,1/2-z
8 1/2-x,1/2+y,1/4-z
_cell_length_a                   11.499(1)
_cell_length_b                   11.499(1)
_cell_length_c                   15.795(1)
_cell_angle_alpha                90
_cell_angle_beta                 90
_cell_angle_gamma                90
_cell_volume                     2088.53
loop_
_atom_site_label
_atom_site_type_symbol
_atom_site_fract_x
_atom_site_fract_y
_atom_site_fract_z
Na1 Na 0.6083(1) 0.3917(1) 0.2500
N1 N 0.4620(2) 0.5380(2) 0.2500
Si1 Si 0.4799(1) 0.6416(1) 0.3232(1)
C1 C 0.3714(3) 0.6394(3) 0.4122(1)
C2 C 0.4757(4) 0.7947(3) 0.2813(2)
C3 C 0.6252(3) 0.6229(3) 0.3753(2)
O1 O 0.7838(2) 0.3488(2) 0.3282(1)
C4 C 0.8656(3) 0.4215(3) 0.3707(2)
C5 C 0.7820(3) 0.2366(3) 0.3681(2)
O2 O 0.9821(2) 0.2557(3) 0.4130(1)
C6 C 0.9007(3) 0.1827(2) 0.3687(2)
C7 C 0.9855(3) 0.3671(3) 0.3728(2)
H1 H 0.3791 0.6984 0.4543
H2 H 0.3776 0.5706 0.4454
H3 H 0.2904 0.6422 0.4007
H4 H 0.5018 0.8487 0.3226
H5 H 0.5263 0.8110 0.2350
H6 H 0.4057 0.8308 0.2622
H7 H 0.6322 0.5516 0.4056
H8 H 0.6936 0.6239 0.3422
H9 H 0.6432 0.6780 0.4185
H10 H 0.8661 0.4989 0.3323
H11 H 0.8321 0.4433 0.4322
H12 H 0.7238 0.1846 0.3308
H13 H 0.7498 0.2419 0.4317
H14 H 0.8917 0.1009 0.3993
H15 H 0.9295 0.1704 0.3047
H16 H 1.0184 0.3580 0.3094
H17 H 1.0440 0.4213 0.4082
Si1F Si 0.3584(1) 0.5201(1) 0.1768(1)
C1F C 0.3606(3) 0.6286(3) 0.0878(1)
H1F H 0.3016 0.6209 0.0457
H2F H 0.4294 0.6224 0.0546
H3F H 0.3578 0.7096 0.0993
C2F C 0.2053(3) 0.5243(4) 0.2187(2)
H4F H 0.1513 0.4982 0.1774
H5F H 0.1890 0.4737 0.2650
H6F H 0.1692 0.5943 0.2378
C3F C 0.3771(3) 0.3748(3) 0.1247(2)
H7F H 0.4484 0.3678 0.0944
H8F H 0.3761 0.3064 0.1578
H9F H 0.3220 0.3568 0.0815
O1F O 0.6512(2) 0.2162(2) 0.1718(1)
C4F C 0.5785(3) 0.1344(3) 0.1293(2)
C5F C 0.7634(3) 0.2180(3) 0.1319(2)
O2F O 0.7443(3) 0.0179(2) 0.0870(1)
C6F C 0.8173(2) 0.0993(3) 0.1313(2)
C7F C 0.6329(3) 0.0145(3) 0.1272(2)
H10F H 0.5011 0.1339 0.1677
H11F H 0.5567 0.1679 0.0678
H12F H 0.8154 0.2762 0.1692
H13F H 0.7581 0.2502 0.0683
H14F H 0.8991 0.1083 0.1007
H15F H 0.8296 0.0705 0.1953
H16F H 0.6420 -0.0184 0.1906
H17F H 0.5787 -0.0440 0.0918
O2C O 0.7557(3) 0.5179(2) 0.1630(1)
O2E O 0.4821(2) 0.2443(3) 0.3370(1)
Na1A Na 1.1083(1) 0.1083(1) 0.5000
Na1C Na 0.8917(1) -0.1083(1) 0.0000
loop_
_geom_bond_atom_site_label_1
_geom_bond_atom_site_label_2
_geom_bond_site_symmetry_1
_geom_bond_site_symmetry_2
Na1 N1 1_555 1_555
N1 Si1 1_555 1_555
Si1 C1 1_555 1_555
C1 H1 1_555 1_555
C2 Si1 1_555 1_555
C3 Si1 1_555 1_555
O1 Na1 1_555 1_555
C4 O1 1_555 1_555
C5 O1 1_555 1_555
O2 C6 1_555 1_555
C6 C5 1_555 1_555
C7 C4 1_555 1_555
H2 C1 1_555 1_555
H3 C1 1_555 1_555
H4 C2 1_555 1_555
H5 C2 1_555 1_555
H6 C2 1_555 1_555
H7 C3 1_555 1_555
H8 C3 1_555 1_555
H9 C3 1_555 1_555
H10 C4 1_555 1_555
H11 C4 1_555 1_555
H12 C5 1_555 1_555
H13 C5 1_555 1_555
H14 C6 1_555 1_555
H15 C6 1_555 1_555
H16 C7 1_555 1_555
H17 C7 1_555 1_555
Si1F N1 1_555 1_555
C1F Si1F 1_555 1_555
H1F C1F 1_555 1_555
H2F C1F 1_555 1_555
H3F C1F 1_555 1_555
C2F Si1F 1_555 1_555
H4F C2F 1_555 1_555
H5F C2F 1_555 1_555
H6F C2F 1_555 1_555
C3F Si1F 1_555 1_555
H7F C3F 1_555 1_555
H8F C3F 1_555 1_555
H9F C3F 1_555 1_555
O1F Na1 1_555 1_555
C4F O1F 1_555 1_555
C5F O1F 1_555 1_555
O2F C6F 1_555 1_555
C6F C5F 1_555 1_555
C7F C4F 1_555 1_555
H10F C4F 1_555 1_555
H11F C4F 1_555 1_555
H12F C5F 1_555 1_555
H13F C5F 1_555 1_555
H14F C6F 1_555 1_555
H15F C6F 1_555 1_555
H16F C7F 1_555 1_555
H17F C7F 1_555 1_555
O2C Na1 1_555 1_555
O2E Na1 1_555 1_555
Na1A O2 1_555 1_555
Na1C O2F 1_555 1_555
O2 C7 1_555 1_555
O2F C7F 1_555 1_555

#END
