
#######################################################################
#
#                 Cambridge Crystallographic Data Centre
#                                CCDC 
#
#######################################################################
#
# If this CIF has been generated from an entry in the Cambridge 
# Structural Database, then it will include bibliographic, chemical, 
# crystal, experimental, refinement or atomic coordinate data resulting 
# from the CCDC's data processing and validation procedures.
#
#######################################################################

data_SOWZUB
_symmetry_cell_setting           triclinic
_symmetry_space_group_name_H-M   'P -1'
_symmetry_Int_Tables_number      2
_space_group_name_Hall           '-P 1'
loop_
_symmetry_equiv_pos_site_id
_symmetry_equiv_pos_as_xyz
1 x,y,z
2 -x,-y,-z
_cell_length_a                   10.237(2)
_cell_length_b                   10.517(2)
_cell_length_c                   12.560(3)
_cell_angle_alpha                67.40(3)
_cell_angle_beta                 85.63(3)
_cell_angle_gamma                72.11(3)
_cell_volume                     1186.69
loop_
_atom_site_label
_atom_site_type_symbol
_atom_site_fract_x
_atom_site_fract_y
_atom_site_fract_z
Cd1 Cd 0.194836(19) 0.59376(2) 0.322451(18)
C1 C 0.2727(3) 0.7329(3) 0.4762(3)
H1 H 0.3514 0.7078 0.4375
C2 C 0.2750(3) 0.8055(3) 0.5466(3)
C3 C 0.1588(3) 0.8396(4) 0.6062(3)
H2 H 0.1566 0.8880 0.6549
C4 C 0.0465(3) 0.8007(4) 0.5922(3)
H3 H -0.0323 0.8218 0.6321
C5 C 0.0518(3) 0.7304(3) 0.5188(3)
H4 H -0.0250 0.7054 0.5095
C6 C 0.4021(3) 0.8411(4) 0.5609(3)
H5 H 0.3758 0.9344 0.5676
H6 H 0.4524 0.7695 0.6317
C7 C 0.4510(3) 0.9600(3) 0.3614(3)
C8 C 0.3404(3) 1.0811(4) 0.3442(3)
H7 H 0.2817 1.0868 0.4035
C9 C 0.3173(3) 1.1939(4) 0.2382(4)
H8 H 0.2438 1.2768 0.2269
C10 C 0.4019(4) 1.1856(4) 0.1486(3)
H9 H 0.3850 1.2618 0.0771
C11 C 0.5122(3) 1.0625(4) 0.1665(3)
C12 C 0.5371(3) 0.9490(3) 0.2717(3)
H10 H 0.6104 0.8659 0.2829
C13 C 0.7025(4) 0.9432(4) 0.0808(3)
H11 H 0.6676 0.8676 0.0802
H12 H 0.7563 0.9075 0.1524
C14 C 0.7910(3) 0.9837(4) -0.0206(3)
C15 C 0.9056(4) 0.8796(4) -0.0339(3)
H13 H 0.9259 0.7839 0.0175
C16 C 0.9890(4) 0.9198(4) -0.1244(3)
H14 H 1.0660 0.8516 -0.1352
C17 C 0.9568(3) 1.0605(4) -0.1974(3)
H15 H 1.0134 1.0863 -0.2584
C18 C 0.7682(3) 1.1237(4) -0.0993(3)
H16 H 0.6920 1.1944 -0.0907
C19 C 0.4564(3) 0.5362(3) 0.2418(3)
C20 C 0.6010(3) 0.5200(3) 0.2019(2)
C21 C 0.6930(3) 0.5550(3) 0.2533(3)
H17 H 0.6654 0.5889 0.3123
C22 C 0.8269(3) 0.5393(3) 0.2163(2)
C23 C 0.8666(3) 0.4899(3) 0.1276(3)
H18 H 0.9561 0.4785 0.1034
C24 C 0.7744(3) 0.4575(3) 0.0747(3)
C25 C 0.6420(3) 0.4701(3) 0.1132(3)
H19 H 0.5808 0.4452 0.0797
C26 C 0.9303(3) 0.5753(3) 0.2708(2)
N1 N 0.1631(2) 0.6965(3) 0.4605(2)
N2 N 0.8481(3) 1.1640(3) -0.1866(2)
O1 O 0.49011(19) 0.8448(2) 0.46552(18)
O2 O 0.5922(3) 1.0670(3) 0.0729(2)
O3 O 0.36861(19) 0.5258(3) 0.1840(2)
O4 O 0.4284(2) 0.5618(3) 0.3314(2)
O5 O 0.8923(2) 0.6491(3) 0.3308(2)
O6 O 1.05360(19) 0.5277(3) 0.2488(2)
O7 O 0.8200(2) 0.4132(3) -0.0137(2)
H20 H 0.758(3) 0.427(5) -0.056(3)
O8 O 0.2432(2) 0.3656(3) 0.4758(2)
H21 H 0.208(4) 0.365(4) 0.536(2)
H22 H 0.325(2) 0.322(4) 0.487(4)
Cd1_2 Cd 1.194836(19) 0.59376(2) 0.322451(18)
Cd1A Cd 0.805164(19) 1.40624(2) -0.322451(18)
N2A N 0.1519(3) 0.8360(3) 0.1866(2)
O6_2 O 0.05360(19) 0.5277(3) 0.2488(2)
loop_
_geom_bond_atom_site_label_1
_geom_bond_atom_site_label_2
_geom_bond_site_symmetry_1
_geom_bond_site_symmetry_2
Cd1 N1 1_555 1_555
C1 H1 1_555 1_555
C2 C1 1_555 1_555
C3 C2 1_555 1_555
H2 C3 1_555 1_555
C4 C3 1_555 1_555
H3 C4 1_555 1_555
C5 C4 1_555 1_555
H4 C5 1_555 1_555
C6 C2 1_555 1_555
H5 C6 1_555 1_555
H6 C6 1_555 1_555
C7 C8 1_555 1_555
C8 H7 1_555 1_555
C9 C8 1_555 1_555
H8 C9 1_555 1_555
C10 C9 1_555 1_555
H9 C10 1_555 1_555
C11 C10 1_555 1_555
C12 C7 1_555 1_555
H10 C12 1_555 1_555
C13 H11 1_555 1_555
H12 C13 1_555 1_555
C14 C13 1_555 1_555
C15 C14 1_555 1_555
H13 C15 1_555 1_555
C16 C15 1_555 1_555
H14 C16 1_555 1_555
C17 C16 1_555 1_555
H15 C17 1_555 1_555
C18 C14 1_555 1_555
H16 C18 1_555 1_555
C19 C20 1_555 1_555
C20 C21 1_555 1_555
C21 H17 1_555 1_555
C22 C21 1_555 1_555
C23 C22 1_555 1_555
H18 C23 1_555 1_555
C24 C23 1_555 1_555
C25 C20 1_555 1_555
H19 C25 1_555 1_555
C26 C22 1_555 1_555
N1 C1 1_555 1_555
N2 C17 1_555 1_555
O1 C6 1_555 1_555
O2 C11 1_555 1_555
O3 Cd1 1_555 1_555
O4 Cd1 1_555 1_555
O5 C26 1_555 1_555
O6 C26 1_555 1_555
O7 C24 1_555 1_555
H20 O7 1_555 1_555
O8 Cd1 1_555 1_555
H21 O8 1_555 1_555
H22 O8 1_555 1_555
Cd1_2 O6 1_555 1_555
Cd1A N2 1_555 1_555
N2A Cd1 1_555 1_555
O6_2 Cd1 1_555 1_555
C5 N1 1_555 1_555
C7 O1 1_555 1_555
C11 C12 1_555 1_555
C13 O2 1_555 1_555
C18 N2 1_555 1_555
C19 O3 1_555 1_555
C19 O4 1_555 1_555
C24 C25 1_555 1_555

#END
