
#######################################################################
#
#                 Cambridge Crystallographic Data Centre
#                                CCDC 
#
#######################################################################
#
# If this CIF has been generated from an entry in the Cambridge 
# Structural Database, then it will include bibliographic, chemical, 
# crystal, experimental, refinement or atomic coordinate data resulting 
# from the CCDC's data processing and validation procedures.
#
#######################################################################

data_SOXBOY
_symmetry_cell_setting           triclinic
_symmetry_space_group_name_H-M   'P -1'
_symmetry_Int_Tables_number      2
_space_group_name_Hall           '-P 1'
loop_
_symmetry_equiv_pos_site_id
_symmetry_equiv_pos_as_xyz
1 x,y,z
2 -x,-y,-z
_cell_length_a                   6.4235(13)
_cell_length_b                   13.158(3)
_cell_length_c                   14.840(3)
_cell_angle_alpha                87.94(3)
_cell_angle_beta                 78.26(3)
_cell_angle_gamma                83.90(3)
_cell_volume                     1220.96
loop_
_atom_site_label
_atom_site_type_symbol
_atom_site_fract_x
_atom_site_fract_y
_atom_site_fract_z
Cd1 Cd 0.61546(2) 0.321687(11) 0.218968(9)
C1 C 1.2620(3) 0.57097(18) 0.98224(14)
H1 H 1.2544 0.6379 1.0018
C2 C 1.2279(3) 0.4947(2) 1.04723(15)
H2 H 1.2021 0.5094 1.1096
C3 C 1.2322(3) 0.3963(2) 1.01891(16)
H3 H 1.2079 0.3436 1.0620
C4 C 1.2732(3) 0.37585(17) 0.92545(16)
C5 C 1.3119(3) 0.45702(17) 0.86463(15)
H4 H 1.3436 0.4438 0.8019
C6 C 1.2719(4) 0.27087(19) 0.89058(19)
H5 H 1.4155 0.2438 0.8617
H6 H 1.2186 0.2254 0.9409
C7 C 1.1081(4) 0.19155(18) 0.78456(17)
C8 C 1.2004(4) 0.09578(19) 0.80253(18)
H7 H 1.2910 0.0867 0.8443
C9 C 1.1555(4) 0.01343(19) 0.75714(19)
H8 H 1.2154 -0.0517 0.7696
C10 C 1.0255(4) 0.02510(19) 0.69448(18)
H9 H 0.9979 -0.0313 0.6644
C11 C 0.9353(4) 0.12202(18) 0.67635(17)
C12 C 0.9745(4) 0.20565(18) 0.72086(17)
H10 H 0.9131 0.2706 0.7087
C13 C 0.7175(5) 0.22287(19) 0.58514(18)
H11 H 0.8266 0.2679 0.5612
H12 H 0.6216 0.2548 0.6379
C14 C 0.5964(4) 0.20214(18) 0.51243(16)
C15 C 0.4312(5) 0.1413(2) 0.53143(19)
H13 H 0.3907 0.1134 0.5901
C16 C 0.3262(5) 0.1222(2) 0.4624(2)
H14 H 0.2148 0.0808 0.4737
C17 C 0.3887(4) 0.1653(2) 0.37664(17)
H15 H 0.3164 0.1527 0.3306
C18 C 0.6494(4) 0.24129(18) 0.42484(15)
H16 H 0.7619 0.2820 0.4117
C19 C 0.3238(3) 0.44746(16) 0.33822(14)
C20 C 0.1561(3) 0.47715(16) 0.42146(14)
C21 C -0.0547(3) 0.50452(18) 0.41421(15)
H17 H -0.0920 0.5075 0.3567
C22 C -0.2088(3) 0.52726(17) 0.49209(15)
H18 H -0.3496 0.5458 0.4867
C23 C 0.5503(4) 0.16965(16) 0.10894(15)
C24 C 0.5230(3) 0.08261(15) 0.05168(14)
C25 C 0.3316(4) 0.03993(18) 0.06622(16)
H19 H 0.2172 0.0669 0.1107
C26 C 0.3082(4) -0.04260(17) 0.01528(16)
H20 H 0.1790 -0.0713 0.0260
N1 N 1.3061(3) 0.55294(13) 0.89115(11)
N2 N 0.5480(3) 0.22431(14) 0.35679(12)
O1 O 1.1363(3) 0.27894(13) 0.82537(14)
O2 O 0.8122(3) 0.12620(13) 0.61054(13)
O3 O 0.5160(2) 0.45137(12) 0.34038(10)
O4 O 0.2658(2) 0.41490(12) 0.26906(10)
O5 O 0.3900(3) 0.21134(12) 0.16253(11)
O6 O 0.7333(3) 0.19735(12) 0.10338(12)
O7 O 0.9689(2) 0.29834(15) 0.23981(12)
H21 H 1.055(4) 0.2567(19) 0.2121(19)
H22 H 1.044(4) 0.3413(18) 0.252(2)
C19A C -0.3238(3) 0.55254(16) 0.66178(14)
C20A C -0.1561(3) 0.52285(16) 0.57854(14)
C21A C 0.0547(3) 0.49548(18) 0.58579(15)
H17A H 0.0920 0.4925 0.6433
C22A C 0.2088(3) 0.47274(17) 0.50791(15)
H18A H 0.3496 0.4542 0.5133
O3A O -0.5160(2) 0.54863(12) 0.65962(10)
O4A O -0.2658(2) 0.58510(12) 0.73094(10)
C23A C 0.4497(4) -0.16965(16) -0.10894(15)
C24A C 0.4770(3) -0.08261(15) -0.05168(14)
C25A C 0.6684(4) -0.03993(18) -0.06622(16)
H19A H 0.7828 -0.0669 -0.1107
C26A C 0.6918(4) 0.04260(17) -0.01528(16)
H20A H 0.8210 0.0713 -0.0260
O5A O 0.6100(3) -0.21134(12) -0.16253(11)
O6A O 0.2667(3) -0.19735(12) -0.10338(12)
Cd1A Cd -0.61546(2) 0.678313(11) 0.781032(9)
C1A C -1.2620(3) 0.42903(18) 0.01776(14)
H1A H -1.2544 0.3621 -0.0018
C2A C -1.2279(3) 0.5053(2) -0.04723(15)
H2A H -1.2021 0.4906 -0.1096
C3A C -1.2322(3) 0.6037(2) -0.01891(16)
H3A H -1.2079 0.6564 -0.0620
C4A C -1.2732(3) 0.62415(17) 0.07455(16)
C5A C -1.3119(3) 0.54298(17) 0.13537(15)
H4A H -1.3436 0.5562 0.1981
C6A C -1.2719(4) 0.72913(19) 0.10942(19)
H5A H -1.4155 0.7562 0.1383
H6A H -1.2186 0.7746 0.0591
C7A C -1.1081(4) 0.80845(18) 0.21544(17)
C8A C -1.2004(4) 0.90422(19) 0.19747(18)
H7A H -1.2910 0.9133 0.1557
C9A C -1.1555(4) 0.98657(19) 0.24286(19)
H8A H -1.2154 1.0517 0.2304
C10A C -1.0255(4) 0.97490(19) 0.30552(18)
H9A H -0.9979 1.0313 0.3356
C11A C -0.9353(4) 0.87798(18) 0.32365(17)
C12A C -0.9745(4) 0.79435(18) 0.27914(17)
H10A H -0.9131 0.7294 0.2913
C13A C -0.7175(5) 0.77713(19) 0.41486(18)
H11A H -0.8266 0.7321 0.4388
H12A H -0.6216 0.7452 0.3621
C14A C -0.5964(4) 0.79786(18) 0.48757(16)
C15A C -0.4312(5) 0.8587(2) 0.46857(19)
H13A H -0.3907 0.8866 0.4099
C16A C -0.3262(5) 0.8778(2) 0.5376(2)
H14A H -0.2148 0.9192 0.5263
C17A C -0.3887(4) 0.8347(2) 0.62336(17)
H15A H -0.3164 0.8473 0.6694
C18A C -0.6494(4) 0.75871(18) 0.57516(15)
H16A H -0.7619 0.7180 0.5883
N1A N -1.3061(3) 0.44706(13) 0.10885(11)
N2A N -0.5480(3) 0.77569(14) 0.64321(12)
O1A O -1.1363(3) 0.72106(13) 0.17463(14)
O2A O -0.8122(3) 0.87380(13) 0.38946(13)
O7A O -0.9689(2) 0.70166(15) 0.76019(12)
H21A H -1.055(4) 0.7433(19) 0.7879(19)
H22A H -1.044(4) 0.6587(18) 0.748(2)
Cd1_2 Cd -1.38454(2) 0.321687(11) 0.218968(9)
Cd1A_2 Cd 0.38454(2) -0.321687(11) -0.218968(9)
Cd1A_3 Cd 1.38454(2) 0.678313(11) 0.781032(9)
N1_2 N -0.6939(3) 0.55294(13) 0.89115(11)
N1A_2 N 0.6939(3) 0.44706(13) 0.10885(11)
O5A_2 O -0.3900(3) 0.78866(12) 0.83747(11)
O6A_2 O -0.7333(3) 0.80265(12) 0.89662(12)
loop_
_geom_bond_atom_site_label_1
_geom_bond_atom_site_label_2
_geom_bond_site_symmetry_1
_geom_bond_site_symmetry_2
Cd1 N2 1_555 1_555
C1 H1 1_555 1_555
C2 C1 1_555 1_555
H2 C2 1_555 1_555
C3 C2 1_555 1_555
H3 C3 1_555 1_555
C4 C3 1_555 1_555
C5 C4 1_555 1_555
H4 C5 1_555 1_555
C6 C4 1_555 1_555
H5 C6 1_555 1_555
H6 C6 1_555 1_555
C7 C8 1_555 1_555
C8 H7 1_555 1_555
C9 C8 1_555 1_555
H8 C9 1_555 1_555
C10 C9 1_555 1_555
H9 C10 1_555 1_555
C11 C10 1_555 1_555
C12 C7 1_555 1_555
H10 C12 1_555 1_555
C13 H11 1_555 1_555
H12 C13 1_555 1_555
C14 C13 1_555 1_555
C15 C14 1_555 1_555
H13 C15 1_555 1_555
C16 C15 1_555 1_555
H14 C16 1_555 1_555
C17 C16 1_555 1_555
H15 C17 1_555 1_555
C18 C14 1_555 1_555
H16 C18 1_555 1_555
C19 C20 1_555 1_555
C20 C21 1_555 1_555
C21 H17 1_555 1_555
C22 C21 1_555 1_555
H18 C22 1_555 1_555
C23 C24 1_555 1_555
C24 C25 1_555 1_555
C25 H19 1_555 1_555
C26 C25 1_555 1_555
H20 C26 1_555 1_555
N1 C1 1_555 1_555
N2 C17 1_555 1_555
O1 C6 1_555 1_555
O2 C11 1_555 1_555
O3 Cd1 1_555 1_555
O4 Cd1 1_555 1_555
O5 Cd1 1_555 1_555
O6 Cd1 1_555 1_555
O7 Cd1 1_555 1_555
H21 O7 1_555 1_555
H22 O7 1_555 1_555
C19A C20A 1_555 1_555
C20A C22 1_555 1_555
C21A C20A 1_555 1_555
H17A C21A 1_555 1_555
C22A C20 1_555 1_555
H18A C22A 1_555 1_555
O3A C19A 1_555 1_555
O4A C19A 1_555 1_555
C23A C24A 1_555 1_555
C24A C26 1_555 1_555
C25A C24A 1_555 1_555
H19A C25A 1_555 1_555
C26A C24 1_555 1_555
H20A C26A 1_555 1_555
O5A C23A 1_555 1_555
O6A C23A 1_555 1_555
Cd1A O3A 1_555 1_555
C1A H1A 1_555 1_555
C2A C1A 1_555 1_555
H2A C2A 1_555 1_555
C3A C2A 1_555 1_555
H3A C3A 1_555 1_555
C4A C3A 1_555 1_555
C5A C4A 1_555 1_555
H4A C5A 1_555 1_555
C6A C4A 1_555 1_555
H5A C6A 1_555 1_555
H6A C6A 1_555 1_555
C7A C8A 1_555 1_555
C8A H7A 1_555 1_555
C9A C8A 1_555 1_555
H8A C9A 1_555 1_555
C10A C9A 1_555 1_555
H9A C10A 1_555 1_555
C11A C10A 1_555 1_555
C12A C7A 1_555 1_555
H10A C12A 1_555 1_555
C13A H11A 1_555 1_555
H12A C13A 1_555 1_555
C14A C13A 1_555 1_555
C15A C14A 1_555 1_555
H13A C15A 1_555 1_555
C16A C15A 1_555 1_555
H14A C16A 1_555 1_555
C17A C16A 1_555 1_555
H15A C17A 1_555 1_555
C18A C14A 1_555 1_555
H16A C18A 1_555 1_555
N1A C1A 1_555 1_555
N2A Cd1A 1_555 1_555
O1A C6A 1_555 1_555
O2A C11A 1_555 1_555
O7A Cd1A 1_555 1_555
H21A O7A 1_555 1_555
H22A O7A 1_555 1_555
Cd1_2 N1A 1_555 1_555
Cd1A_2 O5A 1_555 1_555
Cd1A_3 N1 1_555 1_555
N1_2 Cd1A 1_555 1_555
N1A_2 Cd1 1_555 1_555
O5A_2 Cd1A 1_555 1_555
O6A_2 Cd1A 1_555 1_555
C5 N1 1_555 1_555
C7 O1 1_555 1_555
C11 C12 1_555 1_555
C13 O2 1_555 1_555
C18 N2 1_555 1_555
C19 O3 1_555 1_555
C19 O4 1_555 1_555
C23 O5 1_555 1_555
C23 O6 1_555 1_555
C21A C22A 1_555 1_555
O4A Cd1A 1_555 1_555
C25A C26A 1_555 1_555
O6A Cd1A_2 1_555 1_555
C5A N1A 1_555 1_555
C7A O1A 1_555 1_555
C11A C12A 1_555 1_555
C13A O2A 1_555 1_555
C17A N2A 1_555 1_555
C18A N2A 1_555 1_555

#END
