
#######################################################################
#
#                 Cambridge Crystallographic Data Centre
#                                CCDC 
#
#######################################################################
#
# If this CIF has been generated from an entry in the Cambridge 
# Structural Database, then it will include bibliographic, chemical, 
# crystal, experimental, refinement or atomic coordinate data resulting 
# from the CCDC's data processing and validation procedures.
#
#######################################################################

data_SOXBAK
_symmetry_cell_setting           monoclinic
_symmetry_space_group_name_H-M   'C 2/c'
_symmetry_Int_Tables_number      15
_space_group_name_Hall           '-C 2yn'
loop_
_symmetry_equiv_pos_site_id
_symmetry_equiv_pos_as_xyz
1 x,y,z
2 -x,y,1/2-z
3 1/2+x,1/2+y,z
4 1/2-x,1/2+y,1/2-z
5 -x,-y,-z
6 x,-y,1/2+z
7 1/2-x,1/2-y,-z
8 1/2+x,1/2-y,1/2+z
_cell_length_a                   15.109(3)
_cell_length_b                   13.165(3)
_cell_length_c                   25.900(5)
_cell_angle_alpha                90
_cell_angle_beta                 102.14(3)
_cell_angle_gamma                90
_cell_volume                     5036.56
loop_
_atom_site_label
_atom_site_type_symbol
_atom_site_fract_x
_atom_site_fract_y
_atom_site_fract_z
Cd1 Cd 0.504227(16) 0.414169(17) 0.402107(10)
C1 C 0.6019(2) 0.2030(3) 0.37668(14)
H1 H 0.5433 0.1827 0.3614
C2 C 0.6721(3) 0.1375(3) 0.37391(14)
C3 C 0.7581(3) 0.1664(3) 0.39789(16)
H2 H 0.8070 0.1239 0.3972
C4 C 0.7711(3) 0.2585(3) 0.42282(18)
H3 H 0.8289 0.2785 0.4398
C5 C 0.6988(2) 0.3206(3) 0.42263(15)
H4 H 0.7090 0.3839 0.4388
C6 C 0.6543(3) 0.0410(3) 0.34253(15)
H5 H 0.7050 -0.0053 0.3521
H6 H 0.6003 0.0077 0.3488
C7 C 0.6248(3) -0.0019(3) 0.25041(16)
C8 C 0.6087(3) 0.0347(4) 0.19971(18)
H7 H 0.6103 0.1042 0.1937
C9 C 0.5903(4) -0.0310(4) 0.15791(19)
H8 H 0.5793 -0.0062 0.1235
C10 C 0.5882(4) -0.1324(4) 0.16668(19)
H9 H 0.5747 -0.1771 0.1383
C11 C 0.6059(4) -0.1687(3) 0.2168(2)
C12 C 0.6245(3) -0.1047(3) 0.26019(16)
H10 H 0.6363 -0.1301 0.2945
C13 C 0.6370(4) -0.3262(3) 0.26599(17)
H11 H 0.6040 -0.3112 0.2934
H12 H 0.7001 -0.3087 0.2789
C14 C 0.6280(3) -0.4382(3) 0.25140(15)
C15 C 0.6607(3) -0.5143(4) 0.28661(16)
H13 H 0.6902 -0.4988 0.3210
C16 C 0.6491(3) -0.6133(3) 0.27034(16)
H14 H 0.6714 -0.6659 0.2934
C17 C 0.6041(3) -0.6343(3) 0.21949(16)
H15 H 0.5966 -0.7018 0.2089
C18 C 0.5838(3) -0.4665(3) 0.20120(15)
H16 H 0.5614 -0.4152 0.1773
C19 C 0.3405(2) 0.3338(3) 0.41978(14)
C20 C 0.2498(2) 0.3175(2) 0.43348(13)
C21 C 0.2161(2) 0.3863(2) 0.46504(14)
H17 H 0.2484 0.4449 0.4770
C22 C 0.1343(2) 0.3670(3) 0.47838(14)
C23 C 0.0839(2) 0.2820(3) 0.46129(13)
H18 H 0.0283 0.2711 0.4705
C24 C 0.1177(2) 0.2129(2) 0.43012(12)
C25 C 0.2006(2) 0.2302(2) 0.41685(12)
H19 H 0.2236 0.1827 0.3966
C26 C 0.0675(3) 0.1152(3) 0.41425(13)
N1 N 0.61346(19) 0.2943(2) 0.40013(11)
N2 N 0.57102(19) -0.5620(2) 0.18491(12)
N3 N 0.1024(2) 0.4351(3) 0.51583(15)
O1 O 0.6425(2) 0.0707(2) 0.28888(11)
O2 O 0.6015(4) -0.2713(3) 0.22070(15)
O3 O 0.37089(18) 0.2726(2) 0.39237(12)
O4 O 0.38218(17) 0.4139(2) 0.43781(11)
O5 O 0.1460(2) 0.5117(3) 0.52947(17)
O6 O 0.0343(2) 0.4119(2) 0.53144(13)
O7 O 0.10827(18) 0.04507(19) 0.39648(11)
O8 O -0.01231(17) 0.1078(2) 0.42061(10)
O9 O 0.58354(16) 0.4209(2) 0.49278(9)
H20 H 0.5605 0.3980 0.5177
H21 H 0.5992 0.4770 0.5083
Cd1A Cd 0.495773(16) -0.585831(17) 0.097893(10)
Cd1B Cd 0.004227(16) -0.085831(17) 0.402107(10)
N2A N 0.42898(19) 0.4380(2) 0.31509(12)
O7B O 0.60827(18) 0.54507(19) 0.39648(11)
O8B O 0.48769(17) 0.6078(2) 0.42061(10)
loop_
_geom_bond_atom_site_label_1
_geom_bond_atom_site_label_2
_geom_bond_site_symmetry_1
_geom_bond_site_symmetry_2
Cd1 N1 1_555 1_555
C1 H1 1_555 1_555
C2 C1 1_555 1_555
C3 C2 1_555 1_555
H2 C3 1_555 1_555
C4 C3 1_555 1_555
H3 C4 1_555 1_555
C5 C4 1_555 1_555
H4 C5 1_555 1_555
C6 C2 1_555 1_555
H5 C6 1_555 1_555
H6 C6 1_555 1_555
C7 C8 1_555 1_555
C8 H7 1_555 1_555
C9 C8 1_555 1_555
H8 C9 1_555 1_555
C10 C9 1_555 1_555
H9 C10 1_555 1_555
C11 C10 1_555 1_555
C12 C7 1_555 1_555
H10 C12 1_555 1_555
C13 H11 1_555 1_555
H12 C13 1_555 1_555
C14 C13 1_555 1_555
C15 C14 1_555 1_555
H13 C15 1_555 1_555
C16 C15 1_555 1_555
H14 C16 1_555 1_555
C17 C16 1_555 1_555
H15 C17 1_555 1_555
C18 C14 1_555 1_555
H16 C18 1_555 1_555
C19 C20 1_555 1_555
C20 C21 1_555 1_555
C21 H17 1_555 1_555
C22 C21 1_555 1_555
C23 C22 1_555 1_555
H18 C23 1_555 1_555
C24 C23 1_555 1_555
C25 C20 1_555 1_555
H19 C25 1_555 1_555
C26 C24 1_555 1_555
N1 C1 1_555 1_555
N2 C17 1_555 1_555
N3 C22 1_555 1_555
O1 C6 1_555 1_555
O2 C11 1_555 1_555
O3 Cd1 1_555 1_555
O4 Cd1 1_555 1_555
O5 N3 1_555 1_555
O6 N3 1_555 1_555
O7 C26 1_555 1_555
O8 C26 1_555 1_555
O9 Cd1 1_555 1_555
H20 O9 1_555 1_555
H21 O9 1_555 1_555
Cd1A N2 1_555 1_555
Cd1B O7 1_555 1_555
N2A Cd1 1_555 1_555
O7B Cd1 1_555 1_555
O8B Cd1 1_555 1_555
C5 N1 1_555 1_555
C7 O1 1_555 1_555
C11 C12 1_555 1_555
C13 O2 1_555 1_555
C18 N2 1_555 1_555
C19 O3 1_555 1_555
C19 O4 1_555 1_555
C24 C25 1_555 1_555
O8 Cd1B 1_555 1_555

#END
