
#######################################################################
#
#                 Cambridge Crystallographic Data Centre
#                                CCDC 
#
#######################################################################
#
# If this CIF has been generated from an entry in the Cambridge 
# Structural Database, then it will include bibliographic, chemical, 
# crystal, experimental, refinement or atomic coordinate data resulting 
# from the CCDC's data processing and validation procedures.
#
#######################################################################

data_SOXBIS
_symmetry_cell_setting           monoclinic
_symmetry_space_group_name_H-M   'P 2/c'
_symmetry_Int_Tables_number      13
_space_group_name_Hall           '-P 2yc'
loop_
_symmetry_equiv_pos_site_id
_symmetry_equiv_pos_as_xyz
1 x,y,z
2 -x,y,1/2-z
3 -x,-y,-z
4 x,-y,1/2+z
_cell_length_a                   10.266(2)
_cell_length_b                   13.899(3)
_cell_length_c                   16.102(3)
_cell_angle_alpha                90
_cell_angle_beta                 101.31(3)
_cell_angle_gamma                90
_cell_volume                     2252.93
loop_
_atom_site_label
_atom_site_type_symbol
_atom_site_fract_x
_atom_site_fract_y
_atom_site_fract_z
Cd1 Cd 0.118266(18) 0.415033(15) 0.165358(12)
C1 C 0.3360(3) 0.4105(2) 0.09171(18)
C2 C 0.4551(3) 0.39520(19) 0.05216(17)
C3 C 0.4391(3) 0.3655(2) -0.03102(18)
H1 H 0.3541 0.3582 -0.0634
C4 C 0.5487(3) 0.3465(2) -0.06659(18)
H2 H 0.5373 0.3264 -0.1226
C5 C 0.6748(3) 0.3576(2) -0.01897(17)
H3 H 0.7481 0.3440 -0.0429
C6 C 0.6934(3) 0.38872(19) 0.06417(17)
C7 C 0.5824(3) 0.40829(19) 0.09892(17)
H4 H 0.5938 0.4305 0.1544
C8 C 0.8315(3) 0.3995(2) 0.11546(17)
C9 C 0.2871(3) 0.2386(2) 0.25941(18)
H5 H 0.3411 0.2917 0.2758
C10 C 0.3295(3) 0.1507(2) 0.29421(18)
C11 C 0.2523(4) 0.0718(2) 0.2659(2)
H6 H 0.2771 0.0107 0.2868
C12 C 0.1374(4) 0.0849(3) 0.2059(3)
H7 H 0.0858 0.0321 0.1846
C13 C 0.0996(3) 0.1763(2) 0.1777(2)
H8 H 0.0199 0.1845 0.1394
C14 C 0.4545(3) 0.1459(2) 0.3611(2)
H9 H 0.5232 0.1853 0.3446
H10 H 0.4375 0.1698 0.4145
C15 C 0.6106(3) 0.0275(2) 0.42530(19)
C16 C 0.6936(3) 0.0945(2) 0.4726(2)
H11 H 0.6722 0.1596 0.4696
C17 C 0.8084(3) 0.0625(2) 0.5243(2)
C18 C 0.8404(3) -0.0334(2) 0.5294(2)
H12 H 0.9187 -0.0541 0.5641
C19 C 0.7561(4) -0.0985(2) 0.4830(2)
H13 H 0.7771 -0.1637 0.4869
C20 C 0.6416(3) -0.0691(2) 0.4309(2)
H14 H 0.5850 -0.1139 0.3995
C21 C 0.8919(4) 0.2196(2) 0.5616(2)
H15 H 0.8083 0.2436 0.5727
H16 H 0.8951 0.2335 0.5030
C22 C 1.0052(3) 0.2693(2) 0.61883(19)
C23 C 1.1055(3) 0.2209(3) 0.6720(2)
H17 H 1.1059 0.1540 0.6736
C24 C 1.2051(3) 0.2723(3) 0.7225(2)
H18 H 1.2737 0.2406 0.7584
C25 C 1.2021(3) 0.3706(2) 0.71944(19)
H19 H 1.2687 0.4050 0.7545
C26 C 1.0108(3) 0.3678(2) 0.61838(18)
H20 H 0.9444 0.4010 0.5818
N1 N 0.1738(2) 0.25266(18) 0.20376(15)
N2 N 1.1063(2) 0.41904(17) 0.66755(14)
O1 O 0.22263(18) 0.39865(16) 0.04688(13)
O2 O 0.35325(19) 0.43095(15) 0.16920(13)
O3 O 0.92606(18) 0.37058(18) 0.08281(13)
O4 O 0.8476(2) 0.43662(15) 0.18770(12)
O5 O 0.4962(2) 0.04910(17) 0.36974(16)
O6 O 0.8992(2) 0.12110(17) 0.57477(17)
Cd1_2 Cd 1.118266(18) 0.415033(15) 0.165358(12)
Cd1A Cd 0.881734(18) 0.415033(15) 0.334642(12)
Cd1C Cd 1.118266(18) 0.584967(15) 0.665358(12)
N2C N 0.1063(2) 0.58096(17) 0.16755(14)
O3_2 O -0.07394(18) 0.37058(18) 0.08281(13)
O4A O 0.1524(2) 0.43662(15) 0.31230(12)
O7 O 0.5000 0.4176(8) -0.2500
H21 H 0.5392 0.4449 -0.2047
H21A H 0.4608 0.4449 -0.2953
loop_
_geom_bond_atom_site_label_1
_geom_bond_atom_site_label_2
_geom_bond_site_symmetry_1
_geom_bond_site_symmetry_2
Cd1 N1 1_555 1_555
C1 C2 1_555 1_555
C2 C3 1_555 1_555
C3 H1 1_555 1_555
C4 C3 1_555 1_555
H2 C4 1_555 1_555
C5 C4 1_555 1_555
H3 C5 1_555 1_555
C6 C5 1_555 1_555
C7 C2 1_555 1_555
H4 C7 1_555 1_555
C8 C6 1_555 1_555
C9 H5 1_555 1_555
C10 C9 1_555 1_555
C11 C10 1_555 1_555
H6 C11 1_555 1_555
C12 C11 1_555 1_555
H7 C12 1_555 1_555
C13 C12 1_555 1_555
H8 C13 1_555 1_555
C14 C10 1_555 1_555
H9 C14 1_555 1_555
H10 C14 1_555 1_555
C15 C16 1_555 1_555
C16 H11 1_555 1_555
C17 C16 1_555 1_555
C18 C17 1_555 1_555
H12 C18 1_555 1_555
C19 C18 1_555 1_555
H13 C19 1_555 1_555
C20 C15 1_555 1_555
H14 C20 1_555 1_555
C21 H15 1_555 1_555
H16 C21 1_555 1_555
C22 C21 1_555 1_555
C23 C22 1_555 1_555
H17 C23 1_555 1_555
C24 C23 1_555 1_555
H18 C24 1_555 1_555
C25 C24 1_555 1_555
H19 C25 1_555 1_555
C26 C22 1_555 1_555
H20 C26 1_555 1_555
N1 C9 1_555 1_555
N2 C25 1_555 1_555
O1 Cd1 1_555 1_555
O2 Cd1 1_555 1_555
O3 C8 1_555 1_555
O4 C8 1_555 1_555
O5 C14 1_555 1_555
O6 C17 1_555 1_555
O7 H21 1_555 1_555
Cd1_2 O3 1_555 1_555
Cd1A O4 1_555 1_555
Cd1C N2 1_555 1_555
N2C Cd1 1_555 1_555
O3_2 Cd1 1_555 1_555
O4A Cd1 1_555 1_555
H21A O7 1_555 1_555
C1 O1 1_555 1_555
C1 O2 1_555 1_555
C6 C7 1_555 1_555
C13 N1 1_555 1_555
C15 O5 1_555 1_555
C19 C20 1_555 1_555
C21 O6 1_555 1_555
C26 N2 1_555 1_555

#END
