
#######################################################################
#
#                 Cambridge Crystallographic Data Centre
#                                CCDC 
#
#######################################################################
#
# If this CIF has been generated from an entry in the Cambridge 
# Structural Database, then it will include bibliographic, chemical, 
# crystal, experimental, refinement or atomic coordinate data resulting 
# from the CCDC's data processing and validation procedures.
#
#######################################################################

data_SOXCRP12
_symmetry_cell_setting           monoclinic
_symmetry_space_group_name_H-M   'C 2/c'
_symmetry_Int_Tables_number      15
_space_group_name_Hall           '-C 2yn'
loop_
_symmetry_equiv_pos_site_id
_symmetry_equiv_pos_as_xyz
1 x,y,z
2 -x,y,1/2-z
3 1/2+x,1/2+y,z
4 1/2-x,1/2+y,1/2-z
5 -x,-y,-z
6 x,-y,1/2+z
7 1/2-x,1/2-y,-z
8 1/2+x,1/2-y,1/2+z
_cell_length_a                   17.2551(19)
_cell_length_b                   12.4639(14)
_cell_length_c                   15.1228(16)
_cell_angle_alpha                90
_cell_angle_beta                 100.454(2)
_cell_angle_gamma                90
_cell_volume                     3198.41
loop_
_atom_site_label
_atom_site_type_symbol
_atom_site_fract_x
_atom_site_fract_y
_atom_site_fract_z
Cr1 Cr 0.30879(2) 0.36383(3) 0.26874(2)
Na1 Na 0.0000 0.49714(10) 0.2500
Na2 Na 0.0000 0.22709(10) 0.2500
Na3 Na 0.37797(6) 0.13090(8) 0.48420(6)
Na4 Na 0.45823(5) 0.38685(7) 0.50089(6)
O1 O 0.21201(9) 0.31645(12) 0.18779(10)
O2 O 0.23332(9) 0.40327(13) 0.34678(10)
O3 O 0.08082(9) 0.33282(13) 0.17219(10)
O4 O 0.10434(9) 0.39381(13) 0.35059(11)
O5 O 0.33124(9) 0.22479(12) 0.32818(10)
O6 O 0.37544(9) 0.30690(12) 0.18673(10)
O7 O 0.39569(9) 0.07261(13) 0.31596(11)
O8 O 0.43667(10) 0.15507(13) 0.15999(11)
O9 O 0.39891(9) 0.43572(12) 0.34622(10)
O10 O 0.30048(9) 0.50250(12) 0.20645(10)
O11 O 0.47071(9) 0.58604(13) 0.35034(10)
O12 O 0.37135(9) 0.65040(12) 0.19504(10)
O13 O 0.33583(10) 0.30674(14) 0.51512(11)
H1 H 0.3300(16) 0.325(2) 0.5686(11)
H2 H 0.2977(14) 0.338(2) 0.4786(15)
O14 O 0.50312(10) 0.20319(14) 0.49561(11)
H3 H 0.5371(15) 0.191(2) 0.5435(12)
H4 H 0.5272(15) 0.190(2) 0.4506(13)
O15 O 0.29017(14) 0.0004(2) 0.46732(13)
H5 H 0.2687 0.0000 0.5045
H6 H 0.2676(19) -0.008(3) 0.4124(10)
O16 O 0.58435(10) 0.43435(14) 0.46575(11)
H7 H 0.5896(16) 0.409(2) 0.4134(12)
H8 H 0.6249(13) 0.412(2) 0.5026(14)
C1 C 0.14758(12) 0.34140(17) 0.21490(14)
C2 C 0.16085(13) 0.38374(17) 0.31272(14)
C3 C 0.37379(12) 0.16178(18) 0.28915(14)
C4 C 0.39828(12) 0.20934(18) 0.20351(14)
C5 C 0.41599(12) 0.52825(17) 0.31691(14)
C6 C 0.35887(12) 0.56617(17) 0.23132(14)
Cr1A Cr -0.30879(2) 0.36383(3) 0.23126(2)
Na3A Na -0.37797(6) 0.13090(8) 0.01580(6)
Na4A Na -0.45823(5) 0.38685(7) -0.00089(6)
O1A O -0.21201(9) 0.31645(12) 0.31221(10)
O2A O -0.23332(9) 0.40327(13) 0.15322(10)
O3A O -0.08082(9) 0.33282(13) 0.32781(10)
O4A O -0.10434(9) 0.39381(13) 0.14941(11)
O5A O -0.33124(9) 0.22479(12) 0.17182(10)
O6A O -0.37544(9) 0.30690(12) 0.31327(10)
O7A O -0.39569(9) 0.07261(13) 0.18404(11)
O8A O -0.43667(10) 0.15507(13) 0.34001(11)
O9A O -0.39891(9) 0.43572(12) 0.15378(10)
O10A O -0.30048(9) 0.50250(12) 0.29355(10)
O11A O -0.47071(9) 0.58604(13) 0.14966(10)
O12A O -0.37135(9) 0.65040(12) 0.30496(10)
O13A O -0.33583(10) 0.30674(14) -0.01512(11)
H1A H -0.3300(16) 0.325(2) -0.0686(11)
H2A H -0.2977(14) 0.338(2) 0.0214(15)
O14A O -0.50312(10) 0.20319(14) 0.00439(11)
H3A H -0.5371(15) 0.191(2) -0.0435(12)
H4A H -0.5272(15) 0.190(2) 0.0494(13)
O15A O -0.29017(14) 0.0004(2) 0.03268(13)
H5A H -0.2687 0.0000 -0.0045
H6A H -0.2676(19) -0.008(3) 0.0876(10)
O16A O -0.58435(10) 0.43435(14) 0.03425(11)
H7A H -0.5896(16) 0.409(2) 0.0866(12)
H8A H -0.6249(13) 0.412(2) -0.0026(14)
C1A C -0.14758(12) 0.34140(17) 0.28510(14)
C2A C -0.16085(13) 0.38374(17) 0.18728(14)
C3A C -0.37379(12) 0.16178(18) 0.21085(14)
C4A C -0.39828(12) 0.20934(18) 0.29649(14)
C5A C -0.41599(12) 0.52825(17) 0.18309(14)
C6A C -0.35887(12) 0.56617(17) 0.26868(14)
Na1B Na -0.5000 -0.00286(10) 0.2500
Na1B_2 Na 0.5000 -0.00286(10) 0.2500
Na2B Na -0.5000 0.72709(10) 0.2500
Na2B_2 Na 0.5000 0.72709(10) 0.2500
Na3F Na 0.12203(6) 0.36910(8) 0.51580(6)
Na3G Na -0.12203(6) 0.36910(8) -0.01580(6)
Na4D Na 0.54177(5) 0.61315(7) 0.49911(6)
Na4E Na -0.54177(5) 0.61315(7) 0.00089(6)
O4F O 0.39566(9) 0.10619(13) 0.64941(11)
O4G O -0.39566(9) 0.10619(13) -0.14941(11)
O7B O -0.10431(9) 0.57261(13) 0.31596(11)
O7C O 0.10431(9) 0.57261(13) 0.18404(11)
O8B O -0.06333(10) 0.65507(13) 0.15999(11)
O8C O 0.06333(10) 0.65507(13) 0.34001(11)
O11B O -0.02929(9) 0.08604(13) 0.35034(10)
O11C O 0.02929(9) 0.08604(13) 0.14966(10)
O11D O 0.52929(9) 0.41396(13) 0.64966(10)
O11E O -0.52929(9) 0.41396(13) -0.14966(10)
O12B O -0.12865(9) 0.15040(12) 0.19504(10)
O12C O 0.12865(9) 0.15040(12) 0.30496(10)
O16D O 0.41565(10) 0.56565(14) 0.53425(11)
O16E O -0.41565(10) 0.56565(14) -0.03425(11)
O17 O 0.27937(14) 0.62503(19) 0.40891(16)
H9 H 0.2829(18) 0.6840(15) 0.3833(19)
H10 H 0.2590(17) 0.5777(18) 0.3707(17)
O18? O 0.2868(4) 0.6932(6) 0.4647(5)
loop_
_geom_bond_atom_site_label_1
_geom_bond_atom_site_label_2
_geom_bond_site_symmetry_1
_geom_bond_site_symmetry_2
Cr1 O1 1_555 1_555
Na1 O3 1_555 1_555
Na2 O3 1_555 1_555
Na3 O5 1_555 1_555
Na4 O9 1_555 1_555
O1 C1 1_555 1_555
O2 Cr1 1_555 1_555
O3 C1 1_555 1_555
O4 Na1 1_555 1_555
O5 Cr1 1_555 1_555
O6 Cr1 1_555 1_555
O7 Na3 1_555 1_555
O8 C4 1_555 1_555
O9 Cr1 1_555 1_555
O10 Cr1 1_555 1_555
O11 C5 1_555 1_555
O12 C6 1_555 1_555
O13 Na3 1_555 1_555
H1 O13 1_555 1_555
H2 O13 1_555 1_555
O14 Na3 1_555 1_555
H3 O14 1_555 1_555
H4 O14 1_555 1_555
O15 Na3 1_555 1_555
H5 O15 1_555 1_555
H6 O15 1_555 1_555
O16 Na4 1_555 1_555
H7 O16 1_555 1_555
H8 O16 1_555 1_555
C1 C2 1_555 1_555
C2 O2 1_555 1_555
C3 O5 1_555 1_555
C4 O6 1_555 1_555
C5 O9 1_555 1_555
C6 O10 1_555 1_555
O17 H9 1_555 1_555
H10 O17 1_555 1_555
Cr1A O1A 1_555 1_555
Na3A O5A 1_555 1_555
Na4A O9A 1_555 1_555
O1A C1A 1_555 1_555
O2A Cr1A 1_555 1_555
O3A Na1 1_555 1_555
O4A Na1 1_555 1_555
O5A Cr1A 1_555 1_555
O6A Cr1A 1_555 1_555
O7A Na3A 1_555 1_555
O8A C4A 1_555 1_555
O9A Cr1A 1_555 1_555
O10A Cr1A 1_555 1_555
O11A C5A 1_555 1_555
O12A C6A 1_555 1_555
O13A Na3A 1_555 1_555
H1A O13A 1_555 1_555
H2A O13A 1_555 1_555
O14A Na3A 1_555 1_555
H3A O14A 1_555 1_555
H4A O14A 1_555 1_555
O15A Na3A 1_555 1_555
H5A O15A 1_555 1_555
H6A O15A 1_555 1_555
O16A Na4A 1_555 1_555
H7A O16A 1_555 1_555
H8A O16A 1_555 1_555
C1A O3A 1_555 1_555
C2A O2A 1_555 1_555
C3A O5A 1_555 1_555
C4A O6A 1_555 1_555
C5A O9A 1_555 1_555
C6A O10A 1_555 1_555
Na1B O7A 1_555 1_555
Na1B_2 O7 1_555 1_555
Na2B O11A 1_555 1_555
Na2B_2 O11 1_555 1_555
Na3F O4 1_555 1_555
Na3G O4A 1_555 1_555
Na4D O11 1_555 1_555
Na4E O11A 1_555 1_555
O4F Na3 1_555 1_555
O4G Na3A 1_555 1_555
O7B Na1 1_555 1_555
O7C Na1 1_555 1_555
O8B Na1 1_555 1_555
O8C Na1 1_555 1_555
O11B Na2 1_555 1_555
O11C Na2 1_555 1_555
O11D Na4 1_555 1_555
O11E Na4A 1_555 1_555
O12B Na2 1_555 1_555
O12C Na2 1_555 1_555
O16D Na4 1_555 1_555
O16E Na4A 1_555 1_555
Na2 O4 1_555 1_555
Na2 O3A 1_555 1_555
Na2 O4A 1_555 1_555
Na4 O13 1_555 1_555
Na4 O14 1_555 1_555
O4 C2 1_555 1_555
O7 C3 1_555 1_555
O8 Na1B_2 1_555 1_555
O12 Na2B_2 1_555 1_555
O16 Na4D 1_555 1_555
C3 C4 1_555 1_555
C5 C6 1_555 1_555
Na4A O13A 1_555 1_555
Na4A O14A 1_555 1_555
O4A C2A 1_555 1_555
O7A C3A 1_555 1_555
O8A Na1B 1_555 1_555
O12A Na2B 1_555 1_555
O16A Na4E 1_555 1_555
C1A C2A 1_555 1_555
C3A C4A 1_555 1_555
C5A C6A 1_555 1_555
Na4D O16D 1_555 1_555
Na4E O16E 1_555 1_555

#END
