
#######################################################################
#
#                 Cambridge Crystallographic Data Centre
#                                CCDC 
#
#######################################################################
#
# If this CIF has been generated from an entry in the Cambridge 
# Structural Database, then it will include bibliographic, chemical, 
# crystal, experimental, refinement or atomic coordinate data resulting 
# from the CCDC's data processing and validation procedures.
#
#######################################################################

data_SOXQIF
_symmetry_cell_setting           monoclinic
_symmetry_space_group_name_H-M   'P 21'
_symmetry_Int_Tables_number      4
_space_group_name_Hall           'P 2yb'
loop_
_symmetry_equiv_pos_site_id
_symmetry_equiv_pos_as_xyz
1 x,y,z
2 -x,1/2+y,-z
_cell_length_a                   11.359(10)
_cell_length_b                   10.998(8)
_cell_length_c                   12.60(2)
_cell_angle_alpha                90
_cell_angle_beta                 111.82(9)
_cell_angle_gamma                90
_cell_volume                     1461.3
loop_
_atom_site_label
_atom_site_type_symbol
_atom_site_fract_x
_atom_site_fract_y
_atom_site_fract_z
Zn1 Zn 0.25756(17) 0.2252(2) 0.33145(17)
N1 N 0.2683(11) 0.2349(16) 0.4991(10)
N2 N 0.1111(13) 0.3444(14) 0.2791(12)
N3 N 0.2670(11) 0.2393(16) 0.1724(10)
N4 N 0.4234(13) 0.1327(13) 0.3872(13)
C1 C 0.3547(14) 0.1808(14) 0.5926(13)
C2 C 0.3078(16) 0.1885(17) 0.6848(15)
H1 H 0.3485 0.1563 0.7595
C3 C 0.1974(13) 0.2488(13) 0.6469(11)
H2 H 0.1473 0.2703 0.6899
C4 C 0.1696(15) 0.2746(16) 0.5271(12)
C5 C 0.0637(15) 0.3375(15) 0.4592(12)
C6 C 0.0386(15) 0.3734(15) 0.3440(13)
C7 C -0.0640(16) 0.4528(17) 0.2799(14)
H3 H -0.1262 0.4874 0.3045
C8 C -0.0535(17) 0.4680(18) 0.1777(16)
H4 H -0.1084 0.5156 0.1164
C9 C 0.0555(15) 0.3998(16) 0.1767(14)
C10 C 0.0934(14) 0.3869(15) 0.0848(13)
C11 C 0.1942(14) 0.3092(14) 0.0842(13)
C12 C 0.2296(17) 0.2884(17) -0.0134(14)
H5 H 0.1938 0.3272 -0.0857
C13 C 0.3223(16) 0.2045(17) 0.0165(13)
H6 H 0.3633 0.1720 -0.0306
C14 C 0.3473(15) 0.1732(15) 0.1343(13)
C15 C 0.4470(15) 0.0932(14) 0.2003(12)
C16 C 0.4794(15) 0.0778(16) 0.3160(12)
C17 C 0.5867(15) 0.0074(16) 0.3886(13)
H7 H 0.6432 -0.0370 0.3636
C18 C 0.5936(15) 0.0151(15) 0.4974(14)
H8 H 0.6531 -0.0248 0.5620
C19 C 0.4927(15) 0.0959(14) 0.4968(14)
C20 C 0.4632(14) 0.1207(15) 0.5959(13)
C21 C -0.0392(15) 0.3639(16) 0.5035(15)
C22 C -0.1480(16) 0.2846(17) 0.4694(15)
C23 C -0.2570(18) 0.3086(18) 0.5089(17)
H9 H -0.3313 0.2599 0.4816
C24 C -0.2470(17) 0.4014(17) 0.5846(15)
H10 H -0.3121 0.4145 0.6136
C25 C -0.1381(15) 0.4780(14) 0.6192(14)
C26 C -0.0320(16) 0.4552(16) 0.5781(15)
H11 H 0.0413 0.5053 0.6046
O1 O -0.1605(13) 0.1965(13) 0.4022(12)
O2 O -0.1257(10) 0.5657(10) 0.6858(10)
C27 C 0.0138(17) 0.4516(16) -0.0256(15)
H12 H 0.0610 0.4180 -0.0721
C28 C -0.1088(18) 0.397(2) -0.0948(18)
H13 H -0.1094 0.3114 -0.0741
H14 H -0.1219 0.4035 -0.1760
H15 H -0.1770 0.4403 -0.0806
C29 C 0.046(3) 0.579(2) -0.036(3)
H16 H 0.1326 0.5948 0.0178
H17 H -0.0134 0.6317 -0.0177
H18 H 0.0403 0.5945 -0.1139
C30 C 0.5201(18) 0.0226(18) 0.1413(18)
H19 H 0.5692 -0.0368 0.2015
C31 C 0.443(3) -0.058(3) 0.047(2)
H20 H 0.3785 -0.0984 0.0691
H21 H 0.4979 -0.1189 0.0328
H22 H 0.4016 -0.0093 -0.0217
C32 C 0.622(2) 0.092(2) 0.122(2)
H23 H 0.6667 0.1415 0.1892
H24 H 0.5843 0.1444 0.0550
H25 H 0.6811 0.0350 0.1084
C33 C 0.5538(19) 0.0712(17) 0.7094(17)
H26 H 0.6289 0.0426 0.6932
C34 C 0.605(3) 0.163(2) 0.799(2)
H27 H 0.6612 0.1243 0.8696
H28 H 0.5350 0.2035 0.8131
H29 H 0.6529 0.2239 0.7745
C35 C 0.508(2) -0.0386(19) 0.750(2)
H30 H 0.5713 -0.0641 0.8237
H31 H 0.4946 -0.1042 0.6941
H32 H 0.4280 -0.0202 0.7592
O2A O 0.1257(10) 0.0657(10) 0.3142(10)
Zn1A Zn -0.25756(17) 0.7252(2) 0.66855(17)
loop_
_geom_bond_atom_site_label_1
_geom_bond_atom_site_label_2
_geom_bond_site_symmetry_1
_geom_bond_site_symmetry_2
Zn1 N1 1_555 1_555
N1 C1 1_555 1_555
N2 Zn1 1_555 1_555
N3 Zn1 1_555 1_555
N4 Zn1 1_555 1_555
C1 C2 1_555 1_555
C2 H1 1_555 1_555
C3 C2 1_555 1_555
H2 C3 1_555 1_555
C4 N1 1_555 1_555
C5 C4 1_555 1_555
C6 N2 1_555 1_555
C7 C6 1_555 1_555
H3 C7 1_555 1_555
C8 C7 1_555 1_555
H4 C8 1_555 1_555
C9 N2 1_555 1_555
C10 C9 1_555 1_555
C11 N3 1_555 1_555
C12 C11 1_555 1_555
H5 C12 1_555 1_555
C13 C12 1_555 1_555
H6 C13 1_555 1_555
C14 N3 1_555 1_555
C15 C14 1_555 1_555
C16 N4 1_555 1_555
C17 C16 1_555 1_555
H7 C17 1_555 1_555
C18 C17 1_555 1_555
H8 C18 1_555 1_555
C19 N4 1_555 1_555
C20 C1 1_555 1_555
C21 C5 1_555 1_555
C22 C21 1_555 1_555
C23 C22 1_555 1_555
H9 C23 1_555 1_555
C24 C23 1_555 1_555
H10 C24 1_555 1_555
C25 C24 1_555 1_555
C26 C21 1_555 1_555
H11 C26 1_555 1_555
O1 C22 1_555 1_555
O2 C25 1_555 1_555
C27 C10 1_555 1_555
H12 C27 1_555 1_555
C28 C27 1_555 1_555
H13 C28 1_555 1_555
H14 C28 1_555 1_555
H15 C28 1_555 1_555
C29 C27 1_555 1_555
H16 C29 1_555 1_555
H17 C29 1_555 1_555
H18 C29 1_555 1_555
C30 C15 1_555 1_555
H19 C30 1_555 1_555
C31 C30 1_555 1_555
H20 C31 1_555 1_555
H21 C31 1_555 1_555
H22 C31 1_555 1_555
C32 C30 1_555 1_555
H23 C32 1_555 1_555
H24 C32 1_555 1_555
H25 C32 1_555 1_555
C33 C20 1_555 1_555
H26 C33 1_555 1_555
C34 C33 1_555 1_555
H27 C34 1_555 1_555
H28 C34 1_555 1_555
H29 C34 1_555 1_555
C35 C33 1_555 1_555
H30 C35 1_555 1_555
H31 C35 1_555 1_555
H32 C35 1_555 1_555
O2A Zn1 1_555 1_555
Zn1A O2 1_555 1_555
C3 C4 1_555 1_555
C5 C6 1_555 1_555
C8 C9 1_555 1_555
C10 C11 1_555 1_555
C13 C14 1_555 1_555
C15 C16 1_555 1_555
C18 C19 1_555 1_555
C19 C20 1_555 1_555
C25 C26 1_555 1_555

#END
