
#######################################################################
#
#                 Cambridge Crystallographic Data Centre
#                                CCDC 
#
#######################################################################
#
# If this CIF has been generated from an entry in the Cambridge 
# Structural Database, then it will include bibliographic, chemical, 
# crystal, experimental, refinement or atomic coordinate data resulting 
# from the CCDC's data processing and validation procedures.
#
#######################################################################

data_SOXRIG
_symmetry_cell_setting           monoclinic
_symmetry_space_group_name_H-M   'P 21/c'
_symmetry_Int_Tables_number      14
_space_group_name_Hall           '-P 2ybc'
loop_
_symmetry_equiv_pos_site_id
_symmetry_equiv_pos_as_xyz
1 x,y,z
2 -x,1/2+y,1/2-z
3 -x,-y,-z
4 x,1/2-y,1/2+z
_cell_length_a                   12.233(6)
_cell_length_b                   5.049(1)
_cell_length_c                   14.418(7)
_cell_angle_alpha                90
_cell_angle_beta                 94.96(4)
_cell_angle_gamma                90
_cell_volume                     887.185
loop_
_atom_site_label
_atom_site_type_symbol
_atom_site_fract_x
_atom_site_fract_y
_atom_site_fract_z
Ag1 Ag -0.57227(5) 0.49441(11) -0.27382(3)
O1 O -0.3426(4) -0.1467(11) 0.1979(3)
O2 O -0.1809(5) -0.1511(14) 0.2828(4)
O3 O -0.3580(4) 0.2510(9) -0.1047(3)
O4 O -0.4750(4) 0.5920(10) -0.1282(3)
N1 N -0.2500(4) 0.4925(11) 0.0479(3)
C1 C -0.2476(6) -0.0662(13) 0.2198(5)
C2 C -0.2073(5) 0.1580(14) 0.1610(4)
C3 C -0.0978(5) 0.2411(15) 0.1671(4)
C4 C -0.0666(5) 0.4489(14) 0.1131(5)
C5 C -0.1436(5) 0.5751(14) 0.0532(5)
C6 C -0.2812(5) 0.2902(12) 0.0997(4)
C7 C -0.3348(5) 0.6415(12) -0.0104(4)
C8 C -0.3930(5) 0.4728(12) -0.0879(4)
H1 H -0.0442 0.1536 0.2091
H2 H 0.0086 0.5054 0.1170
H3 H -0.1225 0.7203 0.0156
H4 H -0.3568 0.2368 0.0942
H5 H -0.3000 0.7882 -0.0383
H6 H -0.3884 0.7063 0.0288
O3A O -0.6420(4) 0.7510(9) -0.3953(3)
O1B O -0.6574(4) 0.1467(11) -0.1979(3)
Ag1B Ag -0.42773(5) -0.49441(11) 0.27382(3)
Ag1A Ag -0.42773(5) -0.00559(11) -0.22618(3)
O4A O -0.5250(4) 0.0920(10) -0.3718(3)
Ag1A_2 Ag -0.42773(5) 0.99441(11) -0.22618(3)
O5 O -0.1294(4) 1.0709(11) -0.0994(4)
H7 H -0.1984 1.1249 -0.0866
H8 H -0.1456 0.9593 -0.1482
loop_
_geom_bond_atom_site_label_1
_geom_bond_atom_site_label_2
_geom_bond_site_symmetry_1
_geom_bond_site_symmetry_2
Ag1 O4 1_555 1_555
O1 C1 1_555 1_555
O2 C1 1_555 1_555
O3 C8 1_555 1_555
O4 C8 1_555 1_555
N1 C5 1_555 1_555
C1 C2 1_555 1_555
C2 C3 1_555 1_555
C3 C4 1_555 1_555
C4 C5 1_555 1_555
C5 H3 1_555 1_555
C6 N1 1_555 1_555
C7 N1 1_555 1_555
C8 C7 1_555 1_555
H1 C3 1_555 1_555
H2 C4 1_555 1_555
H4 C6 1_555 1_555
H5 C7 1_555 1_555
H6 C7 1_555 1_555
O5 H7 1_555 1_555
H8 O5 1_555 1_555
O3A Ag1 1_555 1_555
O1B Ag1 1_555 1_555
Ag1B O1 1_555 1_555
Ag1A O3 1_555 1_555
O4A Ag1 1_555 1_555
Ag1A_2 O4 1_555 1_555
C2 C6 1_555 1_555
Ag1A O4A 1_555 1_555

#END
