
#######################################################################
#
#                 Cambridge Crystallographic Data Centre
#                                CCDC 
#
#######################################################################
#
# If this CIF has been generated from an entry in the Cambridge 
# Structural Database, then it will include bibliographic, chemical, 
# crystal, experimental, refinement or atomic coordinate data resulting 
# from the CCDC's data processing and validation procedures.
#
#######################################################################

data_SOXRAA
_symmetry_cell_setting           monoclinic
_symmetry_space_group_name_H-M   'P 21/n'
_symmetry_Int_Tables_number      14
_space_group_name_Hall           '-P 2yn'
loop_
_symmetry_equiv_pos_site_id
_symmetry_equiv_pos_as_xyz
1 x,y,z
2 1/2-x,1/2+y,1/2-z
3 -x,-y,-z
4 1/2+x,1/2-y,1/2+z
_cell_length_a                   10.1927(7)
_cell_length_b                   19.5443(14)
_cell_length_c                   17.7858(12)
_cell_angle_alpha                90
_cell_angle_beta                 94.747(2)
_cell_angle_gamma                90
_cell_volume                     3530.94
loop_
_atom_site_label
_atom_site_type_symbol
_atom_site_fract_x
_atom_site_fract_y
_atom_site_fract_z
Cu1 Cu 0.13390(14) 0.31105(7) 0.45282(8)
Cu2 Cu 0.33406(14) 0.19508(7) 0.44962(8)
Cu3 Cu 0.13903(15) 0.20330(7) 0.54453(8)
Cu4 Cu 0.33222(16) 0.29306(7) 0.55982(9)
I1 I 0.07984(7) 0.18491(3) 0.39557(4)
I2 I 0.38637(7) 0.32537(4) 0.41374(4)
I3 I 0.08762(8) 0.32770(4) 0.59451(4)
I4 I 0.38734(8) 0.16587(4) 0.59409(4)
S1 S 0.0464(3) 0.39774(14) 0.37593(16)
S2 S 0.4456(3) 0.12220(13) 0.37373(16)
O1 O 0.1375(7) 0.4703(4) 0.2343(4)
O2 O 0.2705(8) 0.2275(4) 0.2184(4)
N1 N 0.5278(10) 0.3664(5) 0.0920(5)
N2 N 0.2482(9) 0.3740(4) 0.2067(5)
H1 H 0.2481 0.3293 0.2130
N3 N -0.0468(9) 0.1341(4) 0.1094(5)
N4 N 0.2701(9) 0.1114(4) 0.2227(5)
H2 H 0.3126 0.0755 0.2420
C1 C 0.4277(11) 0.3509(5) 0.1330(6)
H3 H 0.4110 0.3039 0.1420
C2 C 0.5486(13) 0.4330(6) 0.0787(7)
H4 H 0.6197 0.4456 0.0503
C3 C 0.4695(12) 0.4842(6) 0.1053(7)
H5 H 0.4874 0.5308 0.0949
C4 C 0.3649(12) 0.4677(6) 0.1468(7)
H6 H 0.3079 0.5020 0.1632
C5 C 0.3463(11) 0.3991(5) 0.1635(6)
C6 C 0.1541(10) 0.4081(5) 0.2399(6)
C7 C 0.0678(11) 0.3635(5) 0.2842(6)
H7 H 0.1076 0.3174 0.2898
H8 H -0.0194 0.3586 0.2558
C8 C -0.1352(14) 0.4081(7) 0.3763(8)
C9 C -0.1821(14) 0.4578(7) 0.3139(8)
H9 H -0.1565 0.4407 0.2654
H10 H -0.1418 0.5027 0.3243
H11 H -0.2781 0.4620 0.3119
C10 C -0.1550(17) 0.4404(10) 0.4532(8)
H12 H -0.2486 0.4389 0.4621
H13 H -0.1251 0.4881 0.4536
H14 H -0.1040 0.4148 0.4930
C11 C -0.2006(14) 0.3388(8) 0.3658(12)
H15 H -0.2964 0.3447 0.3592
H16 H -0.1776 0.3104 0.4104
H17 H -0.1702 0.3164 0.3211
C12 C 0.0606(11) 0.1485(5) 0.1548(6)
H18 H 0.0739 0.1939 0.1731
C13 C -0.0679(13) 0.0703(6) 0.0870(7)
H19 H -0.1474 0.0608 0.0571
C14 C 0.0149(14) 0.0179(6) 0.1032(8)
H20 H -0.0043 -0.0269 0.0849
C15 C 0.1324(13) 0.0325(6) 0.1489(7)
H21 H 0.1957 -0.0023 0.1611
C16 C 0.1529(11) 0.0987(5) 0.1755(6)
C17 C 0.3218(11) 0.1732(5) 0.2405(6)
C18 C 0.4534(13) 0.1720(6) 0.2888(6)
H22 H 0.4794 0.2195 0.3026
H23 H 0.5220 0.1526 0.2588
C19 C 0.6229(12) 0.1136(7) 0.4057(7)
C20 C 0.6998(15) 0.0853(9) 0.3408(8)
H24 H 0.7030 0.1201 0.3014
H25 H 0.6554 0.0443 0.3196
H26 H 0.7896 0.0735 0.3605
C21 C 0.6280(15) 0.0600(8) 0.4686(8)
H27 H 0.7195 0.0534 0.4890
H28 H 0.5927 0.0165 0.4482
H29 H 0.5752 0.0756 0.5089
C22 C 0.6756(16) 0.1816(8) 0.4357(10)
H30 H 0.6115 0.2026 0.4668
H31 H 0.6906 0.2119 0.3934
H32 H 0.7588 0.1742 0.4664
Cu3C Cu 0.63903(15) 0.29670(7) 0.04453(8)
Cu4C Cu -0.16778(16) 0.20694(7) 0.05982(9)
N1C N 0.0278(10) 0.1336(5) 0.5920(5)
N3C N 0.4532(9) 0.3659(4) 0.6094(5)
loop_
_geom_bond_atom_site_label_1
_geom_bond_atom_site_label_2
_geom_bond_site_symmetry_1
_geom_bond_site_symmetry_2
Cu1 I1 1_555 1_555
Cu2 I1 1_555 1_555
Cu3 I1 1_555 1_555
Cu4 I2 1_555 1_555
I2 Cu1 1_555 1_555
I3 Cu1 1_555 1_555
I4 Cu2 1_555 1_555
S1 Cu1 1_555 1_555
S2 Cu2 1_555 1_555
O1 C6 1_555 1_555
O2 C17 1_555 1_555
N1 C1 1_555 1_555
N2 H1 1_555 1_555
N3 C12 1_555 1_555
N4 H2 1_555 1_555
C1 H3 1_555 1_555
C2 N1 1_555 1_555
H4 C2 1_555 1_555
C3 C2 1_555 1_555
H5 C3 1_555 1_555
C4 C3 1_555 1_555
H6 C4 1_555 1_555
C5 N2 1_555 1_555
C6 N2 1_555 1_555
C7 S1 1_555 1_555
H7 C7 1_555 1_555
H8 C7 1_555 1_555
C8 S1 1_555 1_555
C9 C8 1_555 1_555
H9 C9 1_555 1_555
H10 C9 1_555 1_555
H11 C9 1_555 1_555
C10 C8 1_555 1_555
H12 C10 1_555 1_555
H13 C10 1_555 1_555
H14 C10 1_555 1_555
C11 C8 1_555 1_555
H15 C11 1_555 1_555
H16 C11 1_555 1_555
H17 C11 1_555 1_555
C12 H18 1_555 1_555
C13 N3 1_555 1_555
H19 C13 1_555 1_555
C14 C13 1_555 1_555
H20 C14 1_555 1_555
C15 C14 1_555 1_555
H21 C15 1_555 1_555
C16 N4 1_555 1_555
C17 N4 1_555 1_555
C18 S2 1_555 1_555
H22 C18 1_555 1_555
H23 C18 1_555 1_555
C19 S2 1_555 1_555
C20 C19 1_555 1_555
H24 C20 1_555 1_555
H25 C20 1_555 1_555
H26 C20 1_555 1_555
C21 C19 1_555 1_555
H27 C21 1_555 1_555
H28 C21 1_555 1_555
H29 C21 1_555 1_555
C22 C19 1_555 1_555
H30 C22 1_555 1_555
H31 C22 1_555 1_555
H32 C22 1_555 1_555
Cu3C N1 1_555 1_555
Cu4C N3 1_555 1_555
N1C Cu3 1_555 1_555
N3C Cu4 1_555 1_555
Cu2 I2 1_555 1_555
Cu3 I3 1_555 1_555
Cu3 I4 1_555 1_555
Cu4 I3 1_555 1_555
Cu4 I4 1_555 1_555
C1 C5 1_555 1_555
C4 C5 1_555 1_555
C6 C7 1_555 1_555
C12 C16 1_555 1_555
C15 C16 1_555 1_555
C17 C18 1_555 1_555

#END
