
#######################################################################
#
#                 Cambridge Crystallographic Data Centre
#                                CCDC 
#
#######################################################################
#
# If this CIF has been generated from an entry in the Cambridge 
# Structural Database, then it will include bibliographic, chemical, 
# crystal, experimental, refinement or atomic coordinate data resulting 
# from the CCDC's data processing and validation procedures.
#
#######################################################################

data_SOXRIG01
_symmetry_cell_setting           monoclinic
_symmetry_space_group_name_H-M   'P 21/c'
_symmetry_Int_Tables_number      14
_space_group_name_Hall           '-P 2ybc'
loop_
_symmetry_equiv_pos_site_id
_symmetry_equiv_pos_as_xyz
1 x,y,z
2 -x,1/2+y,1/2-z
3 -x,-y,-z
4 x,1/2-y,1/2+z
_cell_length_a                   12.180(2)
_cell_length_b                   5.0283(10)
_cell_length_c                   14.396(3)
_cell_angle_alpha                90
_cell_angle_beta                 94.87(3)
_cell_angle_gamma                90
_cell_volume                     878.496
loop_
_atom_site_label
_atom_site_type_symbol
_atom_site_fract_x
_atom_site_fract_y
_atom_site_fract_z
Ag1 Ag 0.07226(2) 0.99470(4) 0.273872(15)
O1 O 0.15730(16) 0.6452(4) 0.19810(13)
O2 O 0.31877(19) 0.6526(5) 0.28267(16)
O3 O 0.02490(15) -0.0916(4) -0.12854(13)
O4 O 0.14205(16) 0.2497(4) -0.10486(13)
N1 N 0.25025(19) 0.0057(3) 0.04826(16)
C1 C 0.2536(2) 0.5673(5) 0.22003(19)
C2 C 0.2931(2) 0.3419(5) 0.16136(16)
C3 C 0.2189(2) 0.2107(5) 0.09975(16)
H1 H 0.1456 0.2651 0.0937
C4 C 0.3558(2) -0.0755(5) 0.05345(18)
H2 H 0.3761 -0.2171 0.0171
C5 C 0.4337(2) 0.0512(6) 0.1127(2)
H3 H 0.5070 -0.0024 0.1158
C6 C 0.4021(2) 0.2581(5) 0.16741(18)
H4 H 0.4541 0.3418 0.2085
C7 C 0.1649(2) -0.1401(5) -0.01011(17)
H5 H 0.1106 -0.2069 0.0296
H6 H 0.1989 -0.2924 -0.0375
C8 C 0.1059(2) 0.0241(4) -0.08808(19)
Ag1A Ag -0.07226(2) 0.49470(4) 0.226128(15)
Ag1A_2 Ag -0.07226(2) 1.49470(4) 0.226128(15)
Ag1B Ag -0.07226(2) 0.00530(4) -0.273872(15)
Ag1C Ag 0.07226(2) -0.49470(4) -0.226128(15)
Ag1C_2 Ag 0.07226(2) 0.50530(4) -0.226128(15)
O3B O -0.02490(15) 1.0916(4) 0.12854(13)
O3C O 0.02490(15) 0.5916(4) 0.37146(13)
O4C O 0.14205(16) 1.2503(4) 0.39514(13)
O5 O 0.37077(19) 0.0693(5) 0.40070(18)
H7 H 0.316(2) 0.162(7) 0.398(3)
H8 H 0.360(4) -0.030(7) 0.356(2)
loop_
_geom_bond_atom_site_label_1
_geom_bond_atom_site_label_2
_geom_bond_site_symmetry_1
_geom_bond_site_symmetry_2
Ag1 O1 1_555 1_555
O1 C1 1_555 1_555
O2 C1 1_555 1_555
O3 C8 1_555 1_555
O4 C8 1_555 1_555
N1 C3 1_555 1_555
C1 C2 1_555 1_555
C2 C3 1_555 1_555
C3 H1 1_555 1_555
C4 N1 1_555 1_555
H2 C4 1_555 1_555
C5 C4 1_555 1_555
H3 C5 1_555 1_555
C6 C2 1_555 1_555
H4 C6 1_555 1_555
C7 N1 1_555 1_555
H5 C7 1_555 1_555
H6 C7 1_555 1_555
C8 C7 1_555 1_555
O5 H7 1_555 1_555
H8 O5 1_555 1_555
Ag1A Ag1 1_555 1_555
Ag1A_2 Ag1 1_555 1_555
Ag1B O3 1_555 1_555
Ag1C O3 1_555 1_555
Ag1C_2 O4 1_555 1_555
O3B Ag1 1_555 1_555
O3C Ag1 1_555 1_555
O4C Ag1 1_555 1_555
C5 C6 1_555 1_555
Ag1A O3C 1_555 1_555
Ag1A_2 O3B 1_555 1_555
Ag1B Ag1C 1_555 1_555
Ag1B Ag1C_2 1_555 1_555

#END
