
#######################################################################
#
#                 Cambridge Crystallographic Data Centre
#                                CCDC 
#
#######################################################################
#
# If this CIF has been generated from an entry in the Cambridge 
# Structural Database, then it will include bibliographic, chemical, 
# crystal, experimental, refinement or atomic coordinate data resulting 
# from the CCDC's data processing and validation procedures.
#
#######################################################################

data_SOXSIJ
_symmetry_cell_setting           monoclinic
_symmetry_space_group_name_H-M   'P 21/c'
_symmetry_Int_Tables_number      14
_space_group_name_Hall           '-P 2ybc'
loop_
_symmetry_equiv_pos_site_id
_symmetry_equiv_pos_as_xyz
1 x,y,z
2 -x,1/2+y,1/2-z
3 -x,-y,-z
4 x,1/2-y,1/2+z
_cell_length_a                   7.9713(10)
_cell_length_b                   15.4036(16)
_cell_length_c                   25.046(3)
_cell_angle_alpha                90
_cell_angle_beta                 90.562(10)
_cell_angle_gamma                90
_cell_volume                     3075.17
loop_
_atom_site_label
_atom_site_type_symbol
_atom_site_fract_x
_atom_site_fract_y
_atom_site_fract_z
Zn1 Zn 0.32814(8) 0.18211(4) 0.28502(2)
Zn2 Zn 0.18117(8) 0.29755(4) 0.20620(2)
N1 N 0.0646(5) 0.3784(2) 0.15347(15)
N2 N -0.2509(5) 0.5040(2) 0.00000(14)
N3 N -0.5594(5) 0.3953(2) -0.15971(15)
C1 C -0.0069(6) 0.3470(3) 0.10900(18)
H1 H -0.0040 0.2862 0.1029
C2 C -0.0844(6) 0.3993(3) 0.07190(18)
H2 H -0.1326 0.3747 0.0405
C3 C -0.0921(6) 0.4892(3) 0.08043(18)
C4 C -0.0212(6) 0.5208(3) 0.12715(18)
H3 H -0.0250 0.5812 0.1349
C5 C 0.0543(6) 0.4644(3) 0.16215(18)
H4 H 0.1019 0.4871 0.1941
C6 C -0.1750(6) 0.5461(3) 0.03984(17)
C7 C -0.1723(6) 0.6363(3) 0.04350(18)
H5 H -0.1147 0.6639 0.0722
C8 C -0.2546(6) 0.6860(3) 0.00469(17)
C9 C -0.3360(6) 0.6412(3) -0.03660(18)
H6 H -0.3949 0.6722 -0.0637
C10 C -0.3301(6) 0.5505(3) -0.03782(17)
C11 C -0.5552(6) 0.4828(3) -0.16419(19)
H7 H -0.6047 0.5089 -0.1949
C12 C -0.4823(6) 0.5353(3) -0.12629(18)
H8 H -0.4812 0.5965 -0.1312
C13 C -0.4102(6) 0.4991(3) -0.08078(18)
C14 C -0.4128(6) 0.4083(3) -0.07695(18)
H9 H -0.3623 0.3804 -0.0470
C15 C -0.4880(6) 0.3599(3) -0.11620(18)
H10 H -0.4897 0.2985 -0.1125
C16 C -0.2562(6) 0.7821(3) 0.00795(19)
C17 C -0.2418(6) 0.8248(3) 0.05680(19)
H11 H -0.2320 0.7915 0.0886
C18 C -0.2414(7) 0.9139(3) 0.0601(2)
H12 H -0.2321 0.9413 0.0940
C19 C -0.2545(7) 0.9643(3) 0.0142(2)
C20 C -0.2707(7) 0.9232(3) -0.0347(2)
H13 H -0.2815 0.9567 -0.0664
C21 C -0.2713(7) 0.8333(3) -0.03752(19)
H14 H -0.2823 0.8061 -0.0714
O1 O -0.2510(5) 1.05185(19) 0.02187(14)
C22 C -0.2544(8) 1.1063(3) -0.0246(2)
H15 H -0.3620 1.0994 -0.0441
H16 H -0.1616 1.0909 -0.0488
C23 C -0.2346(8) 1.1990(3) -0.0048(2)
H17 H -0.3316 1.2148 0.0169
H18 H -0.2274 1.2384 -0.0355
H19 H -0.1320 1.2038 0.0169
O2 O 0.5024(5) 0.1796(2) 0.22628(15)
O3 O 0.3921(5) 0.2641(2) 0.16407(14)
C24 C 0.5057(6) 0.2162(3) 0.18229(19)
C25 C 0.6534(8) 0.1993(4) 0.1466(2)
H20 H 0.7563 0.1965 0.1683
H21 H 0.6628 0.2464 0.1205
H22 H 0.6371 0.1441 0.1279
O4 O 0.1905(5) 0.0922(2) 0.24426(14)
O5 O 0.0849(5) 0.1805(2) 0.18284(16)
C26 C 0.1033(6) 0.1082(3) 0.2042(2)
C27 C 0.0085(8) 0.0322(3) 0.1792(2)
H23 H -0.1094 0.0346 0.1898
H24 H 0.0583 -0.0225 0.1914
H25 H 0.0156 0.0358 0.1402
O6 O 0.1128(4) 0.2143(2) 0.32522(14)
O7 O 0.0063(5) 0.3033(3) 0.26460(15)
C28 C 0.0013(6) 0.2634(3) 0.3075(2)
C29 C -0.1501(8) 0.2764(4) 0.3423(3)
H26 H -0.1434 0.3334 0.3596
H27 H -0.1532 0.2309 0.3696
H28 H -0.2522 0.2734 0.3202
O8 O 0.4231(5) 0.2995(2) 0.31041(15)
O9 O 0.3216(5) 0.3859(2) 0.24679(14)
C30 C 0.4081(6) 0.3720(3) 0.28833(19)
C31 C 0.5029(7) 0.4476(3) 0.3124(2)
H29 H 0.5141 0.4393 0.3510
H30 H 0.4415 0.5016 0.3051
H31 H 0.6146 0.4511 0.2965
Zn1C Zn -0.67186(8) 0.31789(4) -0.21498(2)
N3C N 0.4406(5) 0.1047(2) 0.34029(15)
loop_
_geom_bond_atom_site_label_1
_geom_bond_atom_site_label_2
_geom_bond_site_symmetry_1
_geom_bond_site_symmetry_2
Zn1 O2 1_555 1_555
Zn2 N1 1_555 1_555
N1 C1 1_555 1_555
N2 C6 1_555 1_555
N3 C11 1_555 1_555
C1 H1 1_555 1_555
C2 C1 1_555 1_555
H2 C2 1_555 1_555
C3 C2 1_555 1_555
C4 C3 1_555 1_555
H3 C4 1_555 1_555
C5 N1 1_555 1_555
H4 C5 1_555 1_555
C6 C3 1_555 1_555
C7 C6 1_555 1_555
H5 C7 1_555 1_555
C8 C7 1_555 1_555
C9 C8 1_555 1_555
H6 C9 1_555 1_555
C10 N2 1_555 1_555
C11 H7 1_555 1_555
C12 C11 1_555 1_555
H8 C12 1_555 1_555
C13 C10 1_555 1_555
C14 C13 1_555 1_555
H9 C14 1_555 1_555
C15 N3 1_555 1_555
H10 C15 1_555 1_555
C16 C8 1_555 1_555
C17 C16 1_555 1_555
H11 C17 1_555 1_555
C18 C17 1_555 1_555
H12 C18 1_555 1_555
C19 C18 1_555 1_555
C20 C19 1_555 1_555
H13 C20 1_555 1_555
C21 C16 1_555 1_555
H14 C21 1_555 1_555
O1 C19 1_555 1_555
C22 O1 1_555 1_555
H15 C22 1_555 1_555
H16 C22 1_555 1_555
C23 C22 1_555 1_555
H17 C23 1_555 1_555
H18 C23 1_555 1_555
H19 C23 1_555 1_555
O2 C24 1_555 1_555
O3 Zn2 1_555 1_555
C24 O3 1_555 1_555
C25 C24 1_555 1_555
H20 C25 1_555 1_555
H21 C25 1_555 1_555
H22 C25 1_555 1_555
O4 Zn1 1_555 1_555
O5 Zn2 1_555 1_555
C26 O4 1_555 1_555
C27 C26 1_555 1_555
H23 C27 1_555 1_555
H24 C27 1_555 1_555
H25 C27 1_555 1_555
O6 Zn1 1_555 1_555
O7 Zn2 1_555 1_555
C28 O6 1_555 1_555
C29 C28 1_555 1_555
H26 C29 1_555 1_555
H27 C29 1_555 1_555
H28 C29 1_555 1_555
O8 Zn1 1_555 1_555
O9 Zn2 1_555 1_555
C30 O8 1_555 1_555
C31 C30 1_555 1_555
H29 C31 1_555 1_555
H30 C31 1_555 1_555
H31 C31 1_555 1_555
Zn1C N3 1_555 1_555
N3C Zn1 1_555 1_555
C4 C5 1_555 1_555
C9 C10 1_555 1_555
C12 C13 1_555 1_555
C14 C15 1_555 1_555
C20 C21 1_555 1_555
O5 C26 1_555 1_555
O7 C28 1_555 1_555
O9 C30 1_555 1_555

#END
