
#######################################################################
#
#                 Cambridge Crystallographic Data Centre
#                                CCDC 
#
#######################################################################
#
# If this CIF has been generated from an entry in the Cambridge 
# Structural Database, then it will include bibliographic, chemical, 
# crystal, experimental, refinement or atomic coordinate data resulting 
# from the CCDC's data processing and validation procedures.
#
#######################################################################

data_SOXSOP
_symmetry_cell_setting           monoclinic
_symmetry_space_group_name_H-M   'P 21/c'
_symmetry_Int_Tables_number      14
_space_group_name_Hall           '-P 2ybc'
loop_
_symmetry_equiv_pos_site_id
_symmetry_equiv_pos_as_xyz
1 x,y,z
2 -x,1/2+y,1/2-z
3 -x,-y,-z
4 x,1/2-y,1/2+z
_cell_length_a                   8.1511(6)
_cell_length_b                   16.0769(12)
_cell_length_c                   24.7374(18)
_cell_angle_alpha                90
_cell_angle_beta                 90.796(3)
_cell_angle_gamma                90
_cell_volume                     3241.39
loop_
_atom_site_label
_atom_site_type_symbol
_atom_site_fract_x
_atom_site_fract_y
_atom_site_fract_z
Zn1 Zn 0.32828(3) 0.68507(2) 0.28450(2)
Zn2 Zn 0.18109(3) 0.80233(2) 0.20861(2)
N1 N 0.4431(2) 0.60969(10) 0.33934(6)
N2 N 0.74976(16) 0.50236(10) 0.50044(5)
N3 N 1.06324(19) 0.61925(10) 0.65654(6)
C1 C 0.4485(2) 0.52659(13) 0.33382(8)
H1 H 0.3994 0.5022 0.3026
C2 C 0.5226(2) 0.47485(12) 0.37182(8)
H2 H 0.5248 0.4164 0.3663
C3 C 0.5936(2) 0.50948(12) 0.41793(7)
C4 C 0.5898(2) 0.59597(12) 0.42304(8)
H3 H 0.6390 0.6222 0.4536
C5 C 0.5142(2) 0.64302(12) 0.38330(8)
H4 H 0.5125 0.7018 0.3873
C6 C 0.6733(2) 0.45866(12) 0.46147(7)
C7 C 0.6676(2) 0.37218(12) 0.46148(7)
H5 H 0.6112 0.3433 0.4334
C8 C 0.7457(2) 0.32818(13) 0.50328(7)
C9 C 0.8257(2) 0.37425(12) 0.54363(7)
H6 H 0.8807 0.3468 0.5727
C10 C 0.8239(2) 0.46070(11) 0.54087(7)
C11 C 0.9953(2) 0.64918(12) 0.61104(8)
H7 H 1.0010 0.7073 0.6043
C12 C 0.9173(2) 0.59909(12) 0.57352(8)
H8 H 0.8709 0.6227 0.5416
C13 C 0.9068(2) 0.51384(12) 0.58244(7)
C14 C 0.9744(2) 0.48278(12) 0.63018(8)
H9 H 0.9678 0.4251 0.6383
C15 C 1.0516(3) 0.53721(13) 0.66585(8)
H10 H 1.0982 0.5155 0.6983
C16 C 0.7445(2) 0.23631(13) 0.50442(7)
C17 C 0.7554(3) 0.19251(12) 0.55343(8)
H11 H 0.7639 0.2224 0.5865
C18 C 0.7538(3) 0.10684(13) 0.55435(8)
H12 H 0.7621 0.0782 0.5879
C19 C 0.7402(3) 0.06185(14) 0.50614(8)
C20 C 0.7320(3) 0.10447(13) 0.45704(9)
H13 H 0.7251 0.0745 0.4240
C21 C 0.7341(3) 0.19029(12) 0.45659(8)
H14 H 0.7283 0.2188 0.4230
O1 O 0.7324(2) -0.02232(10) 0.51158(7)
C22 C 0.7023(3) -0.06946(15) 0.46357(10)
H15 H 0.7963 -0.0644 0.4389
H16 H 0.6027 -0.0486 0.4446
C23 C 0.6786(3) -0.15986(16) 0.47988(11)
H17 H 0.5849 -0.1641 0.5048
H18 H 0.6527 -0.1935 0.4473
C24 C 0.8284(4) -0.19334(19) 0.50684(13)
H19 H 0.9195 -0.1927 0.4814
H20 H 0.8081 -0.2506 0.5186
H21 H 0.8564 -0.1589 0.5383
C25 C 0.4992(3) 0.72620(14) 0.18196(9)
C26 C 0.6445(3) 0.7132(2) 0.14527(13)
H22 H 0.7466 0.7211 0.1660
H23 H 0.6394 0.7534 0.1155
H24 H 0.6413 0.6566 0.1306
O2 O 0.4958(2) 0.68436(13) 0.22447(7)
O3 O 0.39123(18) 0.77639(10) 0.16678(6)
C27 C 0.4054(3) 0.86877(13) 0.29122(8)
C28 C 0.5045(3) 0.93837(16) 0.31643(10)
H25 H 0.5149 0.9291 0.3555
H26 H 0.4491 0.9915 0.3097
H27 H 0.6138 0.9396 0.3005
O4 O 0.4226(2) 0.79737(10) 0.31064(7)
O5 O 0.3146(2) 0.88687(10) 0.25177(6)
C29 C 0.0090(3) 0.76040(14) 0.31071(8)
C30 C -0.1377(3) 0.7724(2) 0.34686(12)
H28 H -0.1380 0.8294 0.3609
H29 H -0.1313 0.7331 0.3771
H30 H -0.2389 0.7625 0.3260
O6 O 0.11969(18) 0.71228(9) 0.32679(6)
O7 O 0.0110(2) 0.80080(12) 0.26757(7)
C31 C 0.1055(3) 0.61902(13) 0.20122(8)
C32 C 0.0089(3) 0.54910(16) 0.17478(11)
H31 H -0.0987 0.5446 0.1917
H32 H 0.0688 0.4966 0.1794
H33 H -0.0058 0.5609 0.1361
O8 O 0.1918(2) 0.60108(10) 0.24171(6)
O9 O 0.0908(2) 0.69011(10) 0.18108(7)
Zn2C Zn 1.18109(3) 0.69767(2) 0.70861(2)
N3C N 0.06324(19) 0.88075(10) 0.15654(6)
loop_
_geom_bond_atom_site_label_1
_geom_bond_atom_site_label_2
_geom_bond_site_symmetry_1
_geom_bond_site_symmetry_2
Zn1 N1 1_555 1_555
Zn2 O3 1_555 1_555
N1 C1 1_555 1_555
N2 C6 1_555 1_555
N3 C11 1_555 1_555
C1 H1 1_555 1_555
C2 C1 1_555 1_555
H2 C2 1_555 1_555
C3 C2 1_555 1_555
C4 C3 1_555 1_555
H3 C4 1_555 1_555
C5 N1 1_555 1_555
H4 C5 1_555 1_555
C6 C3 1_555 1_555
C7 C6 1_555 1_555
H5 C7 1_555 1_555
C8 C7 1_555 1_555
C9 C8 1_555 1_555
H6 C9 1_555 1_555
C10 N2 1_555 1_555
C11 H7 1_555 1_555
C12 C11 1_555 1_555
H8 C12 1_555 1_555
C13 C10 1_555 1_555
C14 C13 1_555 1_555
H9 C14 1_555 1_555
C15 N3 1_555 1_555
H10 C15 1_555 1_555
C16 C8 1_555 1_555
C17 C16 1_555 1_555
H11 C17 1_555 1_555
C18 C17 1_555 1_555
H12 C18 1_555 1_555
C19 C18 1_555 1_555
C20 C19 1_555 1_555
H13 C20 1_555 1_555
C21 C16 1_555 1_555
H14 C21 1_555 1_555
O1 C19 1_555 1_555
C22 O1 1_555 1_555
H15 C22 1_555 1_555
H16 C22 1_555 1_555
C23 C22 1_555 1_555
H17 C23 1_555 1_555
H18 C23 1_555 1_555
C24 C23 1_555 1_555
H19 C24 1_555 1_555
H20 C24 1_555 1_555
H21 C24 1_555 1_555
C25 C26 1_555 1_555
C26 H22 1_555 1_555
H23 C26 1_555 1_555
H24 C26 1_555 1_555
O2 Zn1 1_555 1_555
O3 C25 1_555 1_555
C27 C28 1_555 1_555
C28 H25 1_555 1_555
H26 C28 1_555 1_555
H27 C28 1_555 1_555
O4 Zn1 1_555 1_555
O5 Zn2 1_555 1_555
C29 C30 1_555 1_555
C30 H28 1_555 1_555
H29 C30 1_555 1_555
H30 C30 1_555 1_555
O6 Zn1 1_555 1_555
O7 Zn2 1_555 1_555
C31 C32 1_555 1_555
C32 H31 1_555 1_555
H32 C32 1_555 1_555
H33 C32 1_555 1_555
O8 Zn1 1_555 1_555
O9 Zn2 1_555 1_555
Zn2C N3 1_555 1_555
N3C Zn2 1_555 1_555
C4 C5 1_555 1_555
C9 C10 1_555 1_555
C12 C13 1_555 1_555
C14 C15 1_555 1_555
C20 C21 1_555 1_555
C25 O2 1_555 1_555
C27 O4 1_555 1_555
C27 O5 1_555 1_555
C29 O6 1_555 1_555
C29 O7 1_555 1_555
C31 O8 1_555 1_555
C31 O9 1_555 1_555

#END
