
#######################################################################
#
#                 Cambridge Crystallographic Data Centre
#                                CCDC 
#
#######################################################################
#
# If this CIF has been generated from an entry in the Cambridge 
# Structural Database, then it will include bibliographic, chemical, 
# crystal, experimental, refinement or atomic coordinate data resulting 
# from the CCDC's data processing and validation procedures.
#
#######################################################################

data_SOXSEF
_symmetry_cell_setting           monoclinic
_symmetry_space_group_name_H-M   'P 21/c'
_symmetry_Int_Tables_number      14
_space_group_name_Hall           '-P 2ybc'
loop_
_symmetry_equiv_pos_site_id
_symmetry_equiv_pos_as_xyz
1 x,y,z
2 -x,1/2+y,1/2-z
3 -x,-y,-z
4 x,1/2-y,1/2+z
_cell_length_a                   7.9572(6)
_cell_length_b                   15.2139(11)
_cell_length_c                   24.9697(17)
_cell_angle_alpha                90
_cell_angle_beta                 90.666(5)
_cell_angle_gamma                90
_cell_volume                     3022.63
loop_
_atom_site_label
_atom_site_type_symbol
_atom_site_fract_x
_atom_site_fract_y
_atom_site_fract_z
Zn1 Zn 0.17766(7) 0.29664(3) 0.29344(2)
Zn2 Zn 0.32856(7) 0.17942(3) 0.21571(2)
N1 N 0.0615(4) 0.3768(2) 0.34633(12)
N2 N -0.2507(4) 0.5043(2) 0.50029(11)
N3 N -0.5589(4) 0.3977(2) 0.66006(12)
C1 C -0.0128(5) 0.3445(3) 0.39039(15)
H1 H -0.0119 0.2828 0.3961
C2 C -0.0897(5) 0.3974(2) 0.42735(15)
H2 H -0.1406 0.3723 0.4580
C3 C -0.0928(5) 0.4881(2) 0.41969(14)
C4 C -0.0209(5) 0.5212(2) 0.37350(15)
H3 H -0.0239 0.5825 0.3662
C5 C 0.0553(5) 0.4638(2) 0.33829(15)
H4 H 0.1054 0.4872 0.3070
C6 C -0.1751(5) 0.5460(2) 0.46006(14)
C7 C -0.1717(5) 0.6374(3) 0.45618(14)
H5 H -0.1147 0.6650 0.4275
C8 C -0.2527(5) 0.6882(3) 0.49472(14)
C9 C -0.3320(5) 0.6439(2) 0.53634(14)
H6 H -0.3886 0.6758 0.5634
C10 C -0.3274(5) 0.5522(2) 0.53777(14)
C11 C -0.4833(5) 0.3603(2) 0.61787(15)
H7 H -0.4824 0.2980 0.6153
C12 C -0.4071(5) 0.4084(2) 0.57823(15)
H8 H -0.3545 0.3794 0.5492
C13 C -0.4077(5) 0.4998(2) 0.58100(14)
C14 C -0.4839(5) 0.5385(2) 0.62499(15)
H9 H -0.4856 0.6006 0.6287
C15 C -0.5572(5) 0.4857(2) 0.66326(15)
H10 H -0.6087 0.5129 0.6931
C16 C -0.2540(5) 0.7856(3) 0.49089(15)
C17 C -0.2639(6) 0.8391(3) 0.53621(16)
H11 H -0.2707 0.8126 0.5706
C18 C -0.2641(7) 0.9299(3) 0.53220(17)
H12 H -0.2709 0.9651 0.5635
C19 C -0.2541(7) 0.9694(3) 0.48205(19)
C20 C -0.2463(6) 0.9171(3) 0.43632(17)
H13 H -0.2412 0.9438 0.4020
C21 C -0.2459(6) 0.8274(3) 0.44059(16)
H14 H -0.2401 0.7927 0.4091
O1 O -0.2547(5) 1.05809(19) 0.47264(14)
C22 C -0.2577(9) 1.1149(3) 0.5184(2)
H15 H -0.3609 1.1045 0.5385
H16 H -0.2546 1.1763 0.5065
H17 H -0.1599 1.1027 0.5414
O2 O 0.4992(4) 0.1738(2) 0.27710(12)
C23 C 0.4988(5) 0.2099(2) 0.32198(16)
C24 C 0.6427(7) 0.1908(3) 0.3602(2)
H18 H 0.6277 0.1324 0.3759
H19 H 0.6448 0.2351 0.3887
H20 H 0.7489 0.1926 0.3407
O3 O 0.3854(4) 0.26037(18) 0.33827(11)
O4 O 0.1845(4) 0.08952(18) 0.25415(11)
C25 C 0.0939(5) 0.1055(3) 0.29316(16)
C26 C -0.0067(7) 0.0300(3) 0.3162(2)
H21 H -0.1242 0.0349 0.3043
H22 H -0.0009 0.0321 0.3554
H23 H 0.0398 -0.0259 0.3037
O5 O 0.0755(4) 0.17937(19) 0.31450(13)
O6 O 0.1150(4) 0.21559(18) 0.17312(11)
C27 C 0.0042(5) 0.2672(2) 0.18865(15)
C28 C -0.1426(7) 0.2840(3) 0.1515(2)
H24 H -0.2477 0.2770 0.1711
H25 H -0.1400 0.2420 0.1217
H26 H -0.1357 0.3440 0.1374
O7 O 0.0058(4) 0.3067(2) 0.23263(12)
O8 O 0.4290(4) 0.29683(18) 0.19212(12)
C29 C 0.4131(5) 0.3704(2) 0.21444(15)
C30 C 0.5123(6) 0.4459(3) 0.19149(17)
H27 H 0.4572 0.5016 0.2004
H28 H 0.5177 0.4397 0.1525
H29 H 0.6264 0.4455 0.2067
O9 O 0.3251(4) 0.38494(18) 0.25446(11)
Zn2C Zn -0.67144(7) 0.32058(3) 0.71571(2)
N3C N 0.4411(4) 0.1023(2) 0.16006(12)
loop_
_geom_bond_atom_site_label_1
_geom_bond_atom_site_label_2
_geom_bond_site_symmetry_1
_geom_bond_site_symmetry_2
Zn1 N1 1_555 1_555
Zn2 O2 1_555 1_555
N1 C1 1_555 1_555
N2 C6 1_555 1_555
N3 C11 1_555 1_555
C1 H1 1_555 1_555
C2 C1 1_555 1_555
H2 C2 1_555 1_555
C3 C2 1_555 1_555
C4 C3 1_555 1_555
H3 C4 1_555 1_555
C5 N1 1_555 1_555
H4 C5 1_555 1_555
C6 C3 1_555 1_555
C7 C6 1_555 1_555
H5 C7 1_555 1_555
C8 C7 1_555 1_555
C9 C8 1_555 1_555
H6 C9 1_555 1_555
C10 N2 1_555 1_555
C11 H7 1_555 1_555
C12 C11 1_555 1_555
H8 C12 1_555 1_555
C13 C10 1_555 1_555
C14 C13 1_555 1_555
H9 C14 1_555 1_555
C15 N3 1_555 1_555
H10 C15 1_555 1_555
C16 C8 1_555 1_555
C17 C16 1_555 1_555
H11 C17 1_555 1_555
C18 C17 1_555 1_555
H12 C18 1_555 1_555
C19 C18 1_555 1_555
C20 C19 1_555 1_555
H13 C20 1_555 1_555
C21 C16 1_555 1_555
H14 C21 1_555 1_555
O1 C19 1_555 1_555
C22 O1 1_555 1_555
H15 C22 1_555 1_555
H16 C22 1_555 1_555
H17 C22 1_555 1_555
O2 C23 1_555 1_555
C23 C24 1_555 1_555
C24 H18 1_555 1_555
H19 C24 1_555 1_555
H20 C24 1_555 1_555
O3 Zn1 1_555 1_555
O4 Zn2 1_555 1_555
C25 O4 1_555 1_555
C26 C25 1_555 1_555
H21 C26 1_555 1_555
H22 C26 1_555 1_555
H23 C26 1_555 1_555
O5 Zn1 1_555 1_555
O6 Zn2 1_555 1_555
C27 O6 1_555 1_555
C28 C27 1_555 1_555
H24 C28 1_555 1_555
H25 C28 1_555 1_555
H26 C28 1_555 1_555
O7 Zn1 1_555 1_555
O8 Zn2 1_555 1_555
C29 O8 1_555 1_555
C30 C29 1_555 1_555
H27 C30 1_555 1_555
H28 C30 1_555 1_555
H29 C30 1_555 1_555
O9 Zn1 1_555 1_555
Zn2C N3 1_555 1_555
N3C Zn2 1_555 1_555
C4 C5 1_555 1_555
C9 C10 1_555 1_555
C12 C13 1_555 1_555
C14 C15 1_555 1_555
C20 C21 1_555 1_555
C23 O3 1_555 1_555
C25 O5 1_555 1_555
C27 O7 1_555 1_555
C29 O9 1_555 1_555

#END
