
#######################################################################
#
#                 Cambridge Crystallographic Data Centre
#                                CCDC 
#
#######################################################################
#
# If this CIF has been generated from an entry in the Cambridge 
# Structural Database, then it will include bibliographic, chemical, 
# crystal, experimental, refinement or atomic coordinate data resulting 
# from the CCDC's data processing and validation procedures.
#
#######################################################################

data_SOXTAC
_symmetry_cell_setting           triclinic
_symmetry_space_group_name_H-M   'P -1'
_symmetry_Int_Tables_number      2
_space_group_name_Hall           '-P 1'
loop_
_symmetry_equiv_pos_site_id
_symmetry_equiv_pos_as_xyz
1 x,y,z
2 -x,-y,-z
_cell_length_a                   15.1693(8)
_cell_length_b                   17.4457(10)
_cell_length_c                   17.6212(16)
_cell_angle_alpha                104.114(4)
_cell_angle_beta                 112.607(4)
_cell_angle_gamma                109.132(3)
_cell_volume                     3683.4
loop_
_atom_site_label
_atom_site_type_symbol
_atom_site_fract_x
_atom_site_fract_y
_atom_site_fract_z
Zn1 Zn 1.58761(5) 1.02963(4) 0.23829(4)
Zn2 Zn 1.42599(4) 0.84753(3) 0.17870(4)
Zn3 Zn 0.58653(4) 0.43511(4) 0.19461(4)
Zn4 Zn 0.42626(4) 0.45983(4) 0.23380(4)
N1 N 1.3146(3) 0.7227(2) 0.1436(2)
N2 N 1.0052(3) 0.4686(2) 0.1065(2)
N3 N 0.6963(3) 0.4209(2) 0.1611(2)
N4 N 0.3186(3) 0.4772(2) 0.2694(2)
N5 N 0.0107(3) 0.4192(2) 0.3248(2)
N6 N -0.3026(3) 0.1549(2) 0.2719(2)
C1 C 1.3286(3) 0.6501(3) 0.1195(3)
H1 H 1.3914 0.6573 0.1157
C2 C 1.2555(3) 0.5655(3) 0.1001(3)
H2 H 1.2687 0.5161 0.0842
C3 C 1.1627(3) 0.5536(3) 0.1042(2)
C4 C 1.1480(3) 0.6286(3) 0.1281(3)
H3 H 1.0849 0.6229 0.1309
C5 C 1.2249(3) 0.7112(3) 0.1479(3)
H4 H 1.2140 0.7618 0.1651
C6 C 1.0803(3) 0.4653(3) 0.0861(2)
C7 C 1.0815(3) 0.3853(3) 0.0502(3)
H5 H 1.1358 0.3853 0.0358
C8 C 1.0023(3) 0.3050(3) 0.0354(3)
C9 C 0.9257(3) 0.3100(3) 0.0589(3)
H6 H 0.8715 0.2574 0.0515
C10 C 0.9291(3) 0.3921(3) 0.0929(3)
C11 C 0.6797(3) 0.3402(3) 0.1141(3)
H7 H 0.6153 0.2893 0.0964
C12 C 0.7521(3) 0.3270(3) 0.0898(3)
H8 H 0.7371 0.2683 0.0559
C13 C 0.8469(3) 0.4008(3) 0.1158(2)
C14 C 0.8630(3) 0.4848(3) 0.1639(3)
H9 H 0.9263 0.5370 0.1819
C15 C 0.7873(3) 0.4925(3) 0.1853(3)
H10 H 0.7999 0.5505 0.2186
C16 C 0.9958(4) 0.2171(3) -0.0058(3)
C17 C 1.0871(4) 0.2084(3) 0.0053(3)
H11 H 1.1564 0.2597 0.0400
C18 C 1.0766(5) 0.1235(4) -0.0350(3)
H12 H 1.1394 0.1175 -0.0261
C19 C 0.9757(5) 0.0483(3) -0.0877(4)
C20 C 0.8849(5) 0.0573(3) -0.0982(4)
H13 H 0.8155 0.0061 -0.1332
C21 C 0.8951(4) 0.1394(3) -0.0583(3)
H14 H 0.8319 0.1444 -0.0663
O1 O 0.9505(4) -0.0394(3) -0.1330(3)
C22 C 1.0347(5) -0.0552(5) -0.1273(4)
H15 H 1.0853 -0.0400 -0.0635
H16 H 1.0748 -0.0181 -0.1492
C23 C 0.9862(5) -0.1558(4) -0.1871(4)
H17 H 1.0461 -0.1710 -0.1758
H18 H 0.9398 -0.1911 -0.1683
C24 C 0.9215(5) -0.1828(5) -0.2856(5)
H19 H 0.9176 -0.2399 -0.3181
H20 H 0.9615 -0.1372 -0.3006
C25 C 0.8088(5) -0.1951(5) -0.3229(5)
H21 H 0.7707 -0.2355 -0.3023
H22 H 0.8126 -0.1363 -0.2962
C26 C 0.7423(6) -0.2321(6) -0.4237(5)
H23 H 0.7745 -0.1856 -0.4416
H24 H 0.7528 -0.2834 -0.4491
C27 C 0.6265(6) -0.2623(7) -0.4700(6)
H25 H 0.5988 -0.2867 -0.5361
H26 H 0.6152 -0.2093 -0.4538
C28 C 0.5576(7) -0.3325(7) -0.4516(6)
H27 H 0.5560 -0.3896 -0.4781
H28 H 0.4838 -0.3401 -0.4788
H29 H 0.5886 -0.3129 -0.3859
C29 C 0.2353(3) 0.4049(3) 0.2545(3)
H30 H 0.2279 0.3474 0.2268
C30 C 0.1602(3) 0.4105(3) 0.2778(3)
H31 H 0.1022 0.3575 0.2659
C31 C 0.1691(3) 0.4937(3) 0.3186(2)
C32 C 0.2559(3) 0.5689(3) 0.3336(3)
H32 H 0.2653 0.6272 0.3610
C33 C 0.3276(3) 0.5573(3) 0.3081(3)
H33 H 0.3863 0.6089 0.3188
C34 C 0.0885(3) 0.4992(3) 0.3454(3)
C35 C 0.0920(3) 0.5793(3) 0.3868(3)
H34 H 0.1486 0.6343 0.4008
C36 C 0.0124(3) 0.5792(3) 0.4080(3)
C37 C -0.0670(3) 0.4960(3) 0.3879(3)
H35 H -0.1217 0.4927 0.4027
C38 C -0.0654(3) 0.4181(3) 0.3461(3)
C39 C -0.3183(3) 0.2264(3) 0.2968(3)
H36 H -0.3831 0.2172 0.2978
C40 C -0.2446(3) 0.3126(3) 0.3209(3)
H37 H -0.2590 0.3612 0.3376
C41 C -0.1497(3) 0.3273(3) 0.3206(3)
C42 C -0.1342(3) 0.2530(3) 0.2935(3)
H38 H -0.0706 0.2601 0.2912
C43 C -0.2120(4) 0.1694(3) 0.2701(3)
H39 H -0.2002 0.1195 0.2517
C44 C 0.0088(3) 0.6630(3) 0.4472(3)
C45 C -0.0895(4) 0.6613(3) 0.4316(3)
H40 H -0.1543 0.6058 0.3968
C46 C -0.0938(4) 0.7391(3) 0.4661(3)
H41 H -0.1611 0.7369 0.4553
C47 C 0.0006(4) 0.8209(3) 0.5167(3)
C48 C 0.0976(4) 0.8244(3) 0.5311(3)
H42 H 0.1617 0.8803 0.5646
C49 C 0.1017(3) 0.7460(3) 0.4967(3)
H43 H 0.1692 0.7488 0.5071
O2 O -0.0125(3) 0.8944(2) 0.5496(2)
C50 C 0.0834(5) 0.9788(3) 0.6088(4)
H44 H 0.1234 0.9950 0.5772
H45 H 0.1313 0.9751 0.6633
C51 C 0.0502(6) 1.0491(4) 0.6363(4)
H46 H 0.1152 1.1086 0.6712
H47 H -0.0007 1.0494 0.5807
C52 C 0.0006(7) 1.0363(4) 0.6891(5)
H48 H 0.0547 1.0432 0.7479
H49 H -0.0587 0.9740 0.6575
C53 C -0.0471(6) 1.1019(4) 0.7090(5)
H50 H -0.0964 1.0996 0.6510
H51 H -0.0900 1.0814 0.7372
C54 C 0.0373(6) 1.1939(4) 0.7690(4)
H52 H 0.0772 1.2160 0.7392
H53 H 0.0893 1.1958 0.8256
C55 C -0.0106(6) 1.2561(4) 0.7926(4)
H54 H -0.0539 1.2318 0.8192
H55 H 0.0496 1.3161 0.8391
C56 C -0.0788(7) 1.2654(5) 0.7141(4)
H56 H -0.0407 1.2795 0.6813
H57 H -0.0950 1.3139 0.7345
H58 H -0.1464 1.2092 0.6738
O3 O 1.4738(3) 1.0076(2) 0.1163(3)
O4 O 1.3488(3) 0.8700(2) 0.0683(2)
C57 C 1.3858(4) 0.9396(3) 0.0585(3)
C58 C 1.3187(5) 0.9431(4) -0.0282(4)
H59 H 1.2591 0.8829 -0.0720
H60 H 1.3640 0.9647 -0.0534
H61 H 1.2892 0.9838 -0.0157
O5 O 1.4994(4) 1.0605(3) 0.2927(4)
O6 O 1.3754(3) 0.9224(2) 0.2431(2)
C59 C 1.4152(4) 1.0042(3) 0.2837(3)
C60 C 1.3613(5) 1.0401(4) 0.3286(4)
H62 H 1.2851 0.9958 0.2989
H63 H 1.3660 1.0957 0.3231
H64 H 1.3978 1.0522 0.3929
C61 C 1.6216(4) 0.9375(3) 0.3616(3)
O7 O 1.6570(3) 1.0026(3) 0.3466(3)
O8 O 1.5347(3) 0.8682(2) 0.3061(2)
C62 C 1.6884(5) 0.9392(4) 0.4524(4)
H65 H 1.7355 0.9132 0.4478
H66 H 1.6401 0.9043 0.4693
H67 H 1.7329 1.0013 0.4987
O9 O 1.6427(3) 0.9587(2) 0.1761(3)
O10 O 1.5179(3) 0.8207(2) 0.1295(3)
C63 C 1.6004(4) 0.8754(3) 0.1355(3)
C64 C 1.6511(5) 0.8375(4) 0.0893(5)
H68 H 1.6403 0.7794 0.0906
H69 H 1.7288 0.8787 0.1210
H70 H 1.6175 0.8297 0.0262
O11 O 0.6423(3) 0.5706(2) 0.2349(2)
O12 O 0.5067(3) 0.5850(2) 0.2461(2)
C65 C 0.5949(4) 0.6150(3) 0.2481(3)
C66 C 0.6481(5) 0.7120(3) 0.2667(4)
H71 H 0.6108 0.7197 0.2120
H72 H 0.7241 0.7318 0.2838
H73 H 0.6441 0.7479 0.3164
O13 O 0.6663(2) 0.4617(2) 0.3291(2)
O14 O 0.5486(3) 0.4922(3) 0.3583(2)
C67 C 0.6325(3) 0.4842(3) 0.3814(3)
C68 C 0.7010(5) 0.5025(4) 0.4788(3)
H74 H 0.7105 0.4501 0.4811
H75 H 0.6651 0.5150 0.5125
H76 H 0.7719 0.5545 0.5060
O15 O 0.4930(3) 0.3066(2) 0.1700(2)
O16 O 0.3759(3) 0.3271(2) 0.2075(3)
C69 C 0.4149(3) 0.2803(3) 0.1825(3)
C70 C 0.3644(4) 0.1833(3) 0.1679(4)
H77 H 0.3663 0.1460 0.1176
H78 H 0.2892 0.1632 0.1533
H79 H 0.4052 0.1780 0.2233
O17 O 0.4759(3) 0.4157(3) 0.0710(2)
O18 O 0.3436(3) 0.4183(2) 0.0952(2)
C71 C 0.3856(4) 0.4118(3) 0.0462(3)
C72 C 0.3224(5) 0.4007(4) -0.0500(3)
H80 H 0.3716 0.4383 -0.0645
H81 H 0.2664 0.4188 -0.0553
H82 H 0.2883 0.3378 -0.0923
Zn1_2 Zn -0.41239(5) 0.02963(4) 0.23829(4)
N6_2 N 1.6974(3) 1.1549(2) 0.2719(2)
O19 O 0.4099(11) 0.7895(10) 0.3832(10)
O21 O 0.3541(7) 0.7862(9) 0.5130(8)
O20? O 0.4010(14) 0.8472(14) 0.4169(13)
loop_
_geom_bond_atom_site_label_1
_geom_bond_atom_site_label_2
_geom_bond_site_symmetry_1
_geom_bond_site_symmetry_2
Zn1 O3 1_555 1_555
Zn2 N1 1_555 1_555
Zn3 N3 1_555 1_555
Zn4 N4 1_555 1_555
N1 C1 1_555 1_555
N2 C6 1_555 1_555
N3 C11 1_555 1_555
N4 C29 1_555 1_555
N5 C34 1_555 1_555
N6 C39 1_555 1_555
C1 H1 1_555 1_555
C2 C1 1_555 1_555
H2 C2 1_555 1_555
C3 C2 1_555 1_555
C4 C3 1_555 1_555
H3 C4 1_555 1_555
C5 N1 1_555 1_555
H4 C5 1_555 1_555
C6 C3 1_555 1_555
C7 C6 1_555 1_555
H5 C7 1_555 1_555
C8 C7 1_555 1_555
C9 C8 1_555 1_555
H6 C9 1_555 1_555
C10 N2 1_555 1_555
C11 H7 1_555 1_555
C12 C11 1_555 1_555
H8 C12 1_555 1_555
C13 C10 1_555 1_555
C14 C13 1_555 1_555
H9 C14 1_555 1_555
C15 N3 1_555 1_555
H10 C15 1_555 1_555
C16 C8 1_555 1_555
C17 C16 1_555 1_555
H11 C17 1_555 1_555
C18 C17 1_555 1_555
H12 C18 1_555 1_555
C19 C18 1_555 1_555
C20 C19 1_555 1_555
H13 C20 1_555 1_555
C21 C16 1_555 1_555
H14 C21 1_555 1_555
O1 C19 1_555 1_555
C22 O1 1_555 1_555
H15 C22 1_555 1_555
H16 C22 1_555 1_555
C23 C22 1_555 1_555
H17 C23 1_555 1_555
H18 C23 1_555 1_555
C24 C23 1_555 1_555
H19 C24 1_555 1_555
H20 C24 1_555 1_555
C25 C24 1_555 1_555
H21 C25 1_555 1_555
H22 C25 1_555 1_555
C26 C25 1_555 1_555
H23 C26 1_555 1_555
H24 C26 1_555 1_555
C27 C26 1_555 1_555
H25 C27 1_555 1_555
H26 C27 1_555 1_555
C28 C27 1_555 1_555
H27 C28 1_555 1_555
H28 C28 1_555 1_555
H29 C28 1_555 1_555
C29 H30 1_555 1_555
C30 C29 1_555 1_555
H31 C30 1_555 1_555
C31 C30 1_555 1_555
C32 C31 1_555 1_555
H32 C32 1_555 1_555
C33 N4 1_555 1_555
H33 C33 1_555 1_555
C34 C31 1_555 1_555
C35 C34 1_555 1_555
H34 C35 1_555 1_555
C36 C35 1_555 1_555
C37 C36 1_555 1_555
H35 C37 1_555 1_555
C38 N5 1_555 1_555
C39 H36 1_555 1_555
C40 C39 1_555 1_555
H37 C40 1_555 1_555
C41 C38 1_555 1_555
C42 C41 1_555 1_555
H38 C42 1_555 1_555
C43 N6 1_555 1_555
H39 C43 1_555 1_555
C44 C36 1_555 1_555
C45 C44 1_555 1_555
H40 C45 1_555 1_555
C46 C45 1_555 1_555
H41 C46 1_555 1_555
C47 C46 1_555 1_555
C48 C47 1_555 1_555
H42 C48 1_555 1_555
C49 C44 1_555 1_555
H43 C49 1_555 1_555
O2 C47 1_555 1_555
C50 O2 1_555 1_555
H44 C50 1_555 1_555
H45 C50 1_555 1_555
C51 C50 1_555 1_555
H46 C51 1_555 1_555
H47 C51 1_555 1_555
C52 C51 1_555 1_555
H48 C52 1_555 1_555
H49 C52 1_555 1_555
C53 C52 1_555 1_555
H50 C53 1_555 1_555
H51 C53 1_555 1_555
C54 C53 1_555 1_555
H52 C54 1_555 1_555
H53 C54 1_555 1_555
C55 C54 1_555 1_555
H54 C55 1_555 1_555
H55 C55 1_555 1_555
C56 C55 1_555 1_555
H56 C56 1_555 1_555
H57 C56 1_555 1_555
H58 C56 1_555 1_555
O3 C57 1_555 1_555
O4 Zn2 1_555 1_555
C57 O4 1_555 1_555
C58 C57 1_555 1_555
H59 C58 1_555 1_555
H60 C58 1_555 1_555
H61 C58 1_555 1_555
O5 Zn1 1_555 1_555
O6 Zn2 1_555 1_555
C59 O5 1_555 1_555
C60 C59 1_555 1_555
H62 C60 1_555 1_555
H63 C60 1_555 1_555
H64 C60 1_555 1_555
C61 O7 1_555 1_555
O7 Zn1 1_555 1_555
O8 Zn2 1_555 1_555
C62 C61 1_555 1_555
H65 C62 1_555 1_555
H66 C62 1_555 1_555
H67 C62 1_555 1_555
O9 Zn1 1_555 1_555
O10 Zn2 1_555 1_555
C63 O9 1_555 1_555
C64 C63 1_555 1_555
H68 C64 1_555 1_555
H69 C64 1_555 1_555
H70 C64 1_555 1_555
O11 Zn3 1_555 1_555
O12 Zn4 1_555 1_555
C65 O11 1_555 1_555
C66 C65 1_555 1_555
H71 C66 1_555 1_555
H72 C66 1_555 1_555
H73 C66 1_555 1_555
O13 Zn3 1_555 1_555
O14 Zn4 1_555 1_555
C67 O13 1_555 1_555
C68 C67 1_555 1_555
H74 C68 1_555 1_555
H75 C68 1_555 1_555
H76 C68 1_555 1_555
O15 Zn3 1_555 1_555
O16 Zn4 1_555 1_555
C69 O15 1_555 1_555
C70 C69 1_555 1_555
H77 C70 1_555 1_555
H78 C70 1_555 1_555
H79 C70 1_555 1_555
O17 Zn3 1_555 1_555
O18 Zn4 1_555 1_555
C71 O17 1_555 1_555
C72 C71 1_555 1_555
H80 C72 1_555 1_555
H81 C72 1_555 1_555
H82 C72 1_555 1_555
Zn1_2 N6 1_555 1_555
N6_2 Zn1 1_555 1_555
C4 C5 1_555 1_555
C9 C10 1_555 1_555
C12 C13 1_555 1_555
C14 C15 1_555 1_555
C20 C21 1_555 1_555
C32 C33 1_555 1_555
C37 C38 1_555 1_555
C40 C41 1_555 1_555
C42 C43 1_555 1_555
C48 C49 1_555 1_555
O6 C59 1_555 1_555
C61 O8 1_555 1_555
O10 C63 1_555 1_555
O12 C65 1_555 1_555
O14 C67 1_555 1_555
O16 C69 1_555 1_555
O18 C71 1_555 1_555

#END
