
#######################################################################
#
#                 Cambridge Crystallographic Data Centre
#                                CCDC 
#
#######################################################################
#
# If this CIF has been generated from an entry in the Cambridge 
# Structural Database, then it will include bibliographic, chemical, 
# crystal, experimental, refinement or atomic coordinate data resulting 
# from the CCDC's data processing and validation procedures.
#
#######################################################################

data_SOXTUW
_symmetry_cell_setting           triclinic
_symmetry_space_group_name_H-M   'P -1'
_symmetry_Int_Tables_number      2
_space_group_name_Hall           '-P 1'
loop_
_symmetry_equiv_pos_site_id
_symmetry_equiv_pos_as_xyz
1 x,y,z
2 -x,-y,-z
_cell_length_a                   15.1794(6)
_cell_length_b                   17.1547(7)
_cell_length_c                   17.2922(7)
_cell_angle_alpha                115.890(2)
_cell_angle_beta                 100.999(2)
_cell_angle_gamma                108.227(2)
_cell_volume                     3554.1
loop_
_atom_site_label
_atom_site_type_symbol
_atom_site_fract_x
_atom_site_fract_y
_atom_site_fract_z
Zn1 Zn 0.76050(3) 0.32365(3) 0.68343(3)
Zn2 Zn 0.65796(4) 0.20205(4) 0.74486(3)
Zn3 Zn 1.61613(3) 0.75474(3) 0.69895(3)
Zn4 Zn 1.81708(3) 0.76991(3) 0.73906(3)
N1 N 0.8400(2) 0.4170(2) 0.65201(19)
N2 N 1.1084(2) 0.6320(2) 0.60993(19)
N3 N 1.4725(2) 0.7365(2) 0.6659(2)
N4 N 1.9611(2) 0.7865(2) 0.7745(2)
N5 N 2.3247(2) 0.8984(2) 0.83406(19)
N6 N 2.5825(2) 1.1105(2) 0.7804(2)
C1 C 0.9359(3) 0.4377(3) 0.6640(2)
H1 H 0.9662 0.4075 0.6872
C2 C 0.9928(3) 0.5011(3) 0.6439(2)
H2 H 1.0606 0.5135 0.6529
C3 C 0.9499(2) 0.5467(2) 0.6104(2)
C4 C 0.8507(3) 0.5260(3) 0.5994(2)
H3 H 0.8187 0.5558 0.5771
C5 C 0.7991(3) 0.4617(3) 0.6210(2)
H4 H 0.7314 0.4486 0.6135
C6 C 1.0116(2) 0.6154(2) 0.5889(2)
C7 C 0.9718(2) 0.6586(2) 0.5495(2)
H5 H 0.9027 0.6438 0.5342
C8 C 1.0338(3) 0.7235(2) 0.5328(2)
C9 C 1.1346(3) 0.7416(2) 0.5570(2)
H6 H 1.1800 0.7866 0.5482
C10 C 1.1682(2) 0.6940(2) 0.5937(2)
C11 C 1.4073(3) 0.6860(3) 0.6892(2)
H7 H 1.4298 0.6596 0.7225
C12 C 1.3090(3) 0.6715(2) 0.6664(2)
H8 H 1.2650 0.6354 0.6839
C13 C 1.2744(2) 0.7094(2) 0.6181(2)
C14 C 1.3416(3) 0.7602(3) 0.5928(3)
H9 H 1.3206 0.7863 0.5585
C15 C 1.4391(3) 0.7721(3) 0.6178(3)
H10 H 1.4843 0.8070 0.6003
C16 C 0.9966(3) 0.7724(3) 0.4917(2)
C17 C 0.9150(3) 0.7900(3) 0.5016(3)
H11 H 0.8803 0.7698 0.5348
C18 C 0.8841(3) 0.8378(3) 0.4625(3)
H12 H 0.8282 0.8500 0.4690
C19 C 0.9355(4) 0.8675(3) 0.4140(3)
C20 C 1.0165(4) 0.8500(3) 0.4040(3)
H13 H 1.0515 0.8706 0.3711
C21 C 1.0460(3) 0.8026(3) 0.4418(3)
H14 H 1.1013 0.7899 0.4342
O1 O 0.9160(3) 0.9158(3) 0.3725(3)
C22 C 0.8288(4) 0.9247(4) 0.3682(4)
H15 H 0.8340 0.9697 0.4311
H16 H 0.7713 0.8609 0.3416
C23 C 0.8147(4) 0.9657(4) 0.3042(3)
H17 H 0.7599 0.9850 0.3083
H18 H 0.8771 1.0246 0.3277
C24 C 0.7899(4) 0.8930(4) 0.2010(4)
H19 H 0.7567 0.9121 0.1621
H20 H 0.7416 0.8279 0.1831
C25 C 0.8843(5) 0.8867(5) 0.1797(4)
H21 H 0.9316 0.9508 0.1944
H22 H 0.9192 0.8696 0.2198
C26 C 0.8535(6) 0.8097(6) 0.0762(4)
H23 H 0.8218 0.7447 0.0656
H24 H 0.9132 0.8179 0.0606
H25 H 0.8059 0.8176 0.0367
C27 C 2.0270(3) 0.8407(3) 0.7555(2)
H26 H 2.0047 0.8689 0.7241
C28 C 2.1260(3) 0.8575(2) 0.7796(2)
H27 H 2.1707 0.8967 0.7651
C29 C 2.1599(2) 0.8168(2) 0.8248(2)
C30 C 2.0911(3) 0.7605(3) 0.8449(2)
H28 H 2.1113 0.7318 0.8765
C31 C 1.9936(3) 0.7471(3) 0.8185(3)
H29 H 1.9472 0.7082 0.8320
C32 C 2.2678(2) 0.8359(2) 0.8521(2)
C33 C 2.3059(2) 0.7912(2) 0.8907(2)
H30 H 2.2633 0.7470 0.9020
C34 C 2.4069(2) 0.8118(2) 0.9124(2)
C35 C 2.4656(2) 0.8781(2) 0.8947(2)
H31 H 2.5352 0.8952 0.9096
C36 C 2.4218(2) 0.9187(2) 0.8551(2)
C37 C 2.6239(3) 1.0639(3) 0.8071(3)
H32 H 2.6897 1.0740 0.8089
C38 C 2.5756(3) 1.0016(3) 0.8323(3)
H33 H 2.6079 0.9696 0.8506
C39 C 2.4799(2) 0.9860(2) 0.8306(2)
C40 C 2.4371(3) 1.0352(3) 0.8030(3)
H34 H 2.3718 1.0271 0.8012
C41 C 2.4901(3) 1.0959(3) 0.7782(3)
H35 H 2.4596 1.1284 0.7589
C42 C 2.4511(3) 0.7643(3) 0.9512(2)
C43 C 2.5339(3) 0.7512(3) 0.9364(3)
H36 H 2.5621 0.7726 0.9005
C44 C 2.5757(3) 0.7082(3) 0.9726(3)
H37 H 2.6306 0.6980 0.9598
C45 C 2.5377(3) 0.6794(3) 1.0281(3)
C46 C 2.4550(3) 0.6907(3) 1.0429(3)
H38 H 2.4280 0.6705 1.0799
C47 C 2.4115(3) 0.7314(3) 1.0036(2)
H39 H 2.3535 0.7371 1.0126
O2 O 2.5858(2) 0.6389(2) 1.0623(2)
C48 C 2.5520(4) 0.6118(4) 1.1230(4)
H40 H 2.4798 0.5654 1.0915
H41 H 2.5618 0.6697 1.1802
C49 C 2.6147(4) 0.5647(4) 1.1470(4)
H42 H 2.5847 0.5341 1.1788
H43 H 2.6106 0.5126 1.0884
C50 C 2.7192(4) 0.6310(4) 1.2056(4)
H44 H 2.7230 0.6793 1.2664
H45 H 2.7468 0.6665 1.1767
C51 C 2.7865(4) 0.5851(4) 1.2234(4)
H46 H 2.7905 0.5441 1.1638
H47 H 2.8550 0.6377 1.2662
C52 C 2.7552(5) 0.5266(5) 1.2623(6)
H48 H 2.7717 0.5690 1.3289
H49 H 2.7901 0.4860 1.2539
H50 H 2.6825 0.4852 1.2305
C53 C 0.7491(3) 0.4150(3) 0.8693(3)
C54 C 0.7709(4) 0.5041(4) 0.9594(3)
H51 H 0.8011 0.5619 0.9566
H52 H 0.8176 0.5094 1.0112
H53 H 0.7082 0.4990 0.9689
O3 O 0.7755(3) 0.4261(2) 0.8111(2)
O4 O 0.7081(3) 0.3350(3) 0.8607(3)
C55 C 0.5433(3) 0.2599(3) 0.6403(3)
C56 C 0.4450(3) 0.2560(4) 0.5946(4)
H54 H 0.4491 0.3212 0.6254
H55 H 0.3903 0.2125 0.6001
H56 H 0.4319 0.2319 0.5286
O5 O 0.6180(2) 0.3016(2) 0.6288(2)
O6 O 0.5433(2) 0.2220(3) 0.6878(3)
C57 C 0.6724(3) 0.1138(3) 0.5589(3)
C58 C 0.6440(4) 0.0226(3) 0.4673(3)
H57 H 0.6703 0.0402 0.4267
H58 H 0.5707 -0.0145 0.4371
H59 H 0.6726 -0.0171 0.4788
O7 O 0.7250(2) 0.19241(19) 0.56948(18)
O8 O 0.6410(3) 0.1042(2) 0.6170(2)
C59 C 0.8759(3) 0.2665(3) 0.7916(3)
C60 C 0.9743(3) 0.2732(3) 0.8392(3)
H60 H 1.0271 0.3090 0.8258
H61 H 0.9686 0.2078 0.8164
H62 H 0.9914 0.3072 0.9066
O9 O 0.8756(2) 0.3110(2) 0.7518(2)
O10 O 0.7997(2) 0.2172(3) 0.7962(3)
C61 C 1.6660(3) 0.6335(3) 0.5463(2)
C62 C 1.6307(4) 0.5524(4) 0.4466(3)
H63 H 1.5682 0.4986 0.4309
H64 H 1.6822 0.5299 0.4390
H65 H 1.6188 0.5761 0.4052
O11 O 1.6016(2) 0.6567(2) 0.5712(2)
O12 O 1.7557(2) 0.6707(2) 0.59727(18)
C63 C 1.6642(3) 0.6261(3) 0.7523(3)
C64 C 1.6321(4) 0.5429(3) 0.7673(4)
H66 H 1.6175 0.4830 0.7108
H67 H 1.5717 0.5359 0.7817
H68 H 1.6861 0.5559 0.8193
O13 O 1.6009(2) 0.6532(2) 0.7343(2)
O14 O 1.7520(2) 0.6603(2) 0.7567(2)
C65 C 1.7641(3) 0.8918(3) 0.8912(3)
C66 C 1.7943(4) 0.9712(4) 0.9910(3)
H69 H 1.8592 0.9830 1.0294
H70 H 1.7434 0.9511 1.0146
H71 H 1.8000 1.0308 0.9935
O15 O 1.6758(2) 0.8562(2) 0.83822(18)
O16 O 1.8285(2) 0.8673(3) 0.8682(2)
C67 C 1.7701(3) 0.8987(3) 0.6851(3)
C68 C 1.8021(3) 0.9788(3) 0.6660(4)
H72 H 1.7443 0.9699 0.6204
H73 H 1.8549 0.9771 0.6412
H74 H 1.8279 1.0415 0.7239
O17 O 1.6816(2) 0.8635(2) 0.6786(2)
O18 O 1.8347(2) 0.8734(2) 0.7074(2)
Zn2_2 Zn 2.65796(4) 1.20205(4) 0.74486(3)
N6_2 N 0.5825(2) 0.1105(2) 0.7804(2)
O19 O 2.1629(3) 0.6895(4) 0.9892(3)
O20 O 2.0152(7) 0.5263(7) 0.9300(5)
O21 O 1.0052(9) 0.9261(9) 0.0314(9)
O22 O 2.8686(10) 1.1451(11) 0.9247(9)
loop_
_geom_bond_atom_site_label_1
_geom_bond_atom_site_label_2
_geom_bond_site_symmetry_1
_geom_bond_site_symmetry_2
Zn1 N1 1_555 1_555
Zn2 O4 1_555 1_555
Zn3 N3 1_555 1_555
Zn4 N4 1_555 1_555
N1 C1 1_555 1_555
N2 C6 1_555 1_555
N3 C11 1_555 1_555
N4 C27 1_555 1_555
N5 C32 1_555 1_555
N6 C37 1_555 1_555
C1 H1 1_555 1_555
C2 C1 1_555 1_555
H2 C2 1_555 1_555
C3 C2 1_555 1_555
C4 C3 1_555 1_555
H3 C4 1_555 1_555
C5 N1 1_555 1_555
H4 C5 1_555 1_555
C6 C3 1_555 1_555
C7 C6 1_555 1_555
H5 C7 1_555 1_555
C8 C7 1_555 1_555
C9 C8 1_555 1_555
H6 C9 1_555 1_555
C10 N2 1_555 1_555
C11 H7 1_555 1_555
C12 C11 1_555 1_555
H8 C12 1_555 1_555
C13 C10 1_555 1_555
C14 C13 1_555 1_555
H9 C14 1_555 1_555
C15 N3 1_555 1_555
H10 C15 1_555 1_555
C16 C8 1_555 1_555
C17 C16 1_555 1_555
H11 C17 1_555 1_555
C18 C17 1_555 1_555
H12 C18 1_555 1_555
C19 C18 1_555 1_555
C20 C19 1_555 1_555
H13 C20 1_555 1_555
C21 C16 1_555 1_555
H14 C21 1_555 1_555
O1 C19 1_555 1_555
C22 O1 1_555 1_555
H15 C22 1_555 1_555
H16 C22 1_555 1_555
C23 C22 1_555 1_555
H17 C23 1_555 1_555
H18 C23 1_555 1_555
C24 C23 1_555 1_555
H19 C24 1_555 1_555
H20 C24 1_555 1_555
C25 C24 1_555 1_555
H21 C25 1_555 1_555
H22 C25 1_555 1_555
C26 C25 1_555 1_555
H23 C26 1_555 1_555
H24 C26 1_555 1_555
H25 C26 1_555 1_555
C27 H26 1_555 1_555
C28 C27 1_555 1_555
H27 C28 1_555 1_555
C29 C28 1_555 1_555
C30 C29 1_555 1_555
H28 C30 1_555 1_555
C31 N4 1_555 1_555
H29 C31 1_555 1_555
C32 C29 1_555 1_555
C33 C32 1_555 1_555
H30 C33 1_555 1_555
C34 C33 1_555 1_555
C35 C34 1_555 1_555
H31 C35 1_555 1_555
C36 N5 1_555 1_555
C37 H32 1_555 1_555
C38 C37 1_555 1_555
H33 C38 1_555 1_555
C39 C36 1_555 1_555
C40 C39 1_555 1_555
H34 C40 1_555 1_555
C41 N6 1_555 1_555
H35 C41 1_555 1_555
C42 C34 1_555 1_555
C43 C42 1_555 1_555
H36 C43 1_555 1_555
C44 C43 1_555 1_555
H37 C44 1_555 1_555
C45 C44 1_555 1_555
C46 C45 1_555 1_555
H38 C46 1_555 1_555
C47 C42 1_555 1_555
H39 C47 1_555 1_555
O2 C45 1_555 1_555
C48 O2 1_555 1_555
H40 C48 1_555 1_555
H41 C48 1_555 1_555
C49 C48 1_555 1_555
H42 C49 1_555 1_555
H43 C49 1_555 1_555
C50 C49 1_555 1_555
H44 C50 1_555 1_555
H45 C50 1_555 1_555
C51 C50 1_555 1_555
H46 C51 1_555 1_555
H47 C51 1_555 1_555
C52 C51 1_555 1_555
H48 C52 1_555 1_555
H49 C52 1_555 1_555
H50 C52 1_555 1_555
C53 C54 1_555 1_555
C54 H51 1_555 1_555
H52 C54 1_555 1_555
H53 C54 1_555 1_555
O3 Zn1 1_555 1_555
O4 C53 1_555 1_555
C55 C56 1_555 1_555
C56 H54 1_555 1_555
H55 C56 1_555 1_555
H56 C56 1_555 1_555
O5 Zn1 1_555 1_555
O6 Zn2 1_555 1_555
C57 C58 1_555 1_555
C58 H57 1_555 1_555
H58 C58 1_555 1_555
H59 C58 1_555 1_555
O7 Zn1 1_555 1_555
O8 Zn2 1_555 1_555
C59 C60 1_555 1_555
C60 H60 1_555 1_555
H61 C60 1_555 1_555
H62 C60 1_555 1_555
O9 Zn1 1_555 1_555
O10 Zn2 1_555 1_555
C61 C62 1_555 1_555
C62 H63 1_555 1_555
H64 C62 1_555 1_555
H65 C62 1_555 1_555
O11 Zn3 1_555 1_555
O12 Zn4 1_555 1_555
C63 C64 1_555 1_555
C64 H66 1_555 1_555
H67 C64 1_555 1_555
H68 C64 1_555 1_555
O13 Zn3 1_555 1_555
O14 Zn4 1_555 1_555
C65 C66 1_555 1_555
C66 H69 1_555 1_555
H70 C66 1_555 1_555
H71 C66 1_555 1_555
O15 Zn3 1_555 1_555
O16 Zn4 1_555 1_555
C67 C68 1_555 1_555
C68 H72 1_555 1_555
H73 C68 1_555 1_555
H74 C68 1_555 1_555
O17 Zn3 1_555 1_555
O18 Zn4 1_555 1_555
Zn2_2 N6 1_555 1_555
N6_2 Zn2 1_555 1_555
C4 C5 1_555 1_555
C9 C10 1_555 1_555
C12 C13 1_555 1_555
C14 C15 1_555 1_555
C20 C21 1_555 1_555
C30 C31 1_555 1_555
C35 C36 1_555 1_555
C38 C39 1_555 1_555
C40 C41 1_555 1_555
C46 C47 1_555 1_555
C53 O3 1_555 1_555
C55 O5 1_555 1_555
C55 O6 1_555 1_555
C57 O7 1_555 1_555
C57 O8 1_555 1_555
C59 O9 1_555 1_555
C59 O10 1_555 1_555
C61 O11 1_555 1_555
C61 O12 1_555 1_555
C63 O13 1_555 1_555
C63 O14 1_555 1_555
C65 O15 1_555 1_555
C65 O16 1_555 1_555
C67 O17 1_555 1_555
C67 O18 1_555 1_555

#END
