
#######################################################################
#
#                 Cambridge Crystallographic Data Centre
#                                CCDC 
#
#######################################################################
#
# If this CIF has been generated from an entry in the Cambridge 
# Structural Database, then it will include bibliographic, chemical, 
# crystal, experimental, refinement or atomic coordinate data resulting 
# from the CCDC's data processing and validation procedures.
#
#######################################################################

data_SOXTII
_symmetry_cell_setting           monoclinic
_symmetry_space_group_name_H-M   'P 21/c'
_symmetry_Int_Tables_number      14
_space_group_name_Hall           '-P 2ybc'
loop_
_symmetry_equiv_pos_site_id
_symmetry_equiv_pos_as_xyz
1 x,y,z
2 -x,1/2+y,1/2-z
3 -x,-y,-z
4 x,1/2-y,1/2+z
_cell_length_a                   14.673(5)
_cell_length_b                   17.800(9)
_cell_length_c                   8.402(3)
_cell_angle_alpha                90
_cell_angle_beta                 94.39(4)
_cell_angle_gamma                90
_cell_volume                     2187.99
loop_
_atom_site_label
_atom_site_type_symbol
_atom_site_fract_x
_atom_site_fract_y
_atom_site_fract_z
Ba1 Ba 0.46592(2) 0.01562(1) 0.74942(3)
Ba2 Ba 0.52501(2) -0.23216(1) 0.74135(3)
O1 O 0.3953(2) -0.1270(2) 0.8266(3)
O2 O 0.4642(2) -0.1451(2) 1.0692(4)
O3 O 0.6131(2) -0.0181(2) 0.9725(4)
O4 O 0.6128(2) -0.0968(2) 0.7683(4)
O5 O 0.3646(3) 0.1381(2) 0.6652(4)
O6 O 0.3565(2) 0.2328(2) 0.4949(4)
O7 O 0.4242(2) -0.0668(2) 0.4760(4)
O8 O 0.4212(2) -0.1916(2) 0.4564(4)
C1 C 0.3924(3) -0.1405(2) 0.9725(5)
C2 C 0.3015(3) -0.1542(3) 1.0387(5)
C3 C 0.2207(4) -0.1658(3) 0.9206(7)
C4 C 0.1337(4) -0.1793(5) 1.0041(8)
C5 C 0.6503(3) -0.0673(2) 0.8934(6)
C6 C 0.7448(4) -0.0947(4) 0.9546(8)
C7 C 0.8015(5) -0.0401(4) 1.0570(8)
C8 C 0.8977(5) -0.0708(5) 1.1020(9)
C9 C 0.3222(3) 0.1755(3) 0.5557(5)
C10 C 0.2260(4) 0.1520(3) 0.4993(7)
C11 C 0.1669(4) 0.2120(4) 0.4193(8)
C12 C 0.0714(5) 0.1862(5) 0.3631(8)
C13 C 0.3827(3) -0.1295(2) 0.4675(5)
C14 C 0.2799(3) -0.1290(3) 0.4730(6)
C15 C 0.2334(4) -0.0529(3) 0.4749(8)
C16 C 0.1309(5) -0.0582(5) 0.4729(9)
O2B O 0.5358(2) 0.1451(2) 0.9308(4)
O3B O 0.3869(2) 0.0181(2) 1.0275(4)
O7B O 0.5758(2) 0.0668(2) 0.5240(4)
O2C O 0.4642(2) -0.3549(2) 0.5692(4)
O5A O 0.6354(3) -0.3619(2) 0.8348(4)
O6A O 0.6435(2) -0.2672(2) 1.0051(4)
O6B O 0.6435(2) -0.2328(2) 0.5051(4)
O8C O 0.4212(2) -0.3084(2) 0.9564(4)
Ba1B Ba 0.53408(2) -0.01562(1) 1.25058(3)
Ba2C Ba 0.52501(2) -0.26784(1) 1.24135(3)
Ba2A Ba 0.47499(2) 0.26784(1) 0.75865(3)
Ba2B Ba 0.47499(2) 0.23216(1) 0.25865(3)
Ba1B_2 Ba 0.53408(2) -0.01562(1) 0.25058(3)
Ba2C_2 Ba 0.52501(2) -0.26784(1) 0.24135(3)
loop_
_geom_bond_atom_site_label_1
_geom_bond_atom_site_label_2
_geom_bond_site_symmetry_1
_geom_bond_site_symmetry_2
Ba1 O1 1_555 1_555
Ba2 O1 1_555 1_555
O1 C1 1_555 1_555
O2 C1 1_555 1_555
O3 Ba1 1_555 1_555
O4 Ba1 1_555 1_555
O5 Ba1 1_555 1_555
O6 C9 1_555 1_555
O7 Ba1 1_555 1_555
O8 Ba2 1_555 1_555
C1 C2 1_555 1_555
C2 C3 1_555 1_555
C3 C4 1_555 1_555
C5 O3 1_555 1_555
C6 C5 1_555 1_555
C7 C6 1_555 1_555
C8 C7 1_555 1_555
C9 O5 1_555 1_555
C10 C9 1_555 1_555
C11 C10 1_555 1_555
C12 C11 1_555 1_555
C13 O7 1_555 1_555
C14 C13 1_555 1_555
C15 C14 1_555 1_555
C16 C15 1_555 1_555
O2B Ba1 1_555 1_555
O3B Ba1 1_555 1_555
O7B Ba1 1_555 1_555
O2C Ba2 1_555 1_555
O5A Ba2 1_555 1_555
O6A Ba2 1_555 1_555
O6B Ba2 1_555 1_555
O8C Ba2 1_555 1_555
Ba1B O2 1_555 1_555
Ba2C O2 1_555 1_555
Ba2A O5 1_555 1_555
Ba2B O6 1_555 1_555
Ba1B_2 O7 1_555 1_555
Ba2C_2 O8 1_555 1_555
Ba2 O4 1_555 1_555
O3 Ba1B 1_555 1_555
O4 C5 1_555 1_555
O6 Ba2A 1_555 1_555
O8 C13 1_555 1_555
O2B Ba2A 1_555 1_555
O3B Ba1B 1_555 1_555
O7B Ba1B_2 1_555 1_555
O6A Ba2C 1_555 1_555
O6B Ba2C_2 1_555 1_555
O8C Ba2C 1_555 1_555

#END
