
#######################################################################
#
#                 Cambridge Crystallographic Data Centre
#                                CCDC 
#
#######################################################################
#
# If this CIF has been generated from an entry in the Cambridge 
# Structural Database, then it will include bibliographic, chemical, 
# crystal, experimental, refinement or atomic coordinate data resulting 
# from the CCDC's data processing and validation procedures.
#
#######################################################################

data_SOXVIM
_symmetry_cell_setting           triclinic
_symmetry_space_group_name_H-M   'P -1'
_symmetry_Int_Tables_number      2
_space_group_name_Hall           '-P 1'
loop_
_symmetry_equiv_pos_site_id
_symmetry_equiv_pos_as_xyz
1 x,y,z
2 -x,-y,-z
_cell_length_a                   7.2507(15)
_cell_length_b                   9.3814(19)
_cell_length_c                   10.667(2)
_cell_angle_alpha                64.79(3)
_cell_angle_beta                 73.84(3)
_cell_angle_gamma                79.87(3)
_cell_volume                     629.165
loop_
_atom_site_label
_atom_site_type_symbol
_atom_site_fract_x
_atom_site_fract_y
_atom_site_fract_z
Mn1 Mn 0.0000 1.5000 0.0000
O1 O 0.0412(3) 1.0856(2) 0.1749(3)
O2 O 0.1883(3) 1.3071(2) 0.1040(2)
O3 O -0.2170(3) 1.3329(3) 0.0715(2)
N1 N 0.2866(3) 0.8218(2) 0.3968(2)
N2 N 0.3550(3) 0.8977(2) 0.2578(2)
N3 N 0.4008(4) 0.8078(3) 0.1854(2)
N4 N 0.3612(3) 0.6631(3) 0.2810(2)
N5 N 0.1025(3) 0.4477(3) 0.7963(2)
C1 C 0.1792(4) 1.1582(3) 0.1549(3)
C2 C 0.3680(4) 1.0683(3) 0.1894(3)
H1 H 0.4672 1.0939 0.1019
H2 H 0.4065 1.1030 0.2514
C3 C 0.1029(4) 0.3027(3) 0.8000(3)
H3 H 0.0600 0.2212 0.8873
C4 C 0.1638(4) 0.2691(3) 0.6808(3)
H4 H 0.1607 0.1672 0.6877
C5 C 0.2296(4) 0.3886(3) 0.5507(3)
H5 H 0.2733 0.3682 0.4689
C6 C 0.2296(4) 0.5397(3) 0.5437(3)
C7 C 0.1651(4) 0.5628(3) 0.6682(3)
H6 H 0.1648 0.6642 0.6635
C8 C 0.2916(4) 0.6733(3) 0.4076(3)
H7 H -0.329(2) 1.344(3) 0.120(3)
H8 H -0.172(4) 1.242(2) 0.119(3)
O1A O -0.0412(3) 0.9144(2) 0.8251(3)
O2A O -0.1883(3) 0.6929(2) 0.8960(2)
N1A N -0.2866(3) 1.1782(2) 0.6032(2)
N2A N -0.3550(3) 1.1023(2) 0.7422(2)
N3A N -0.4008(4) 1.1922(3) 0.8146(2)
N4A N -0.3612(3) 1.3369(3) 0.7190(2)
N5A N -0.1025(3) 1.5523(3) 0.2037(2)
C1A C -0.1792(4) 0.8418(3) 0.8451(3)
C2A C -0.3680(4) 0.9317(3) 0.8106(3)
H1A H -0.4672 0.9061 0.8981
H2A H -0.4065 0.8970 0.7486
C3A C -0.1029(4) 1.6973(3) 0.2000(3)
H3A H -0.0600 1.7788 0.1127
C4A C -0.1638(4) 1.7309(3) 0.3192(3)
H4A H -0.1607 1.8328 0.3123
C5A C -0.2296(4) 1.6114(3) 0.4493(3)
H5A H -0.2733 1.6318 0.5311
C6A C -0.2296(4) 1.4603(3) 0.4563(3)
C7A C -0.1651(4) 1.4372(3) 0.3318(3)
H6A H -0.1648 1.3358 0.3365
C8A C -0.2916(4) 1.3267(3) 0.5924(3)
O3A O 0.2170(3) 1.6671(3) -0.0715(2)
H7A H 0.329(2) 1.656(3) -0.120(3)
H8A H 0.172(4) 1.758(2) -0.119(3)
Mn1_2 Mn 0.0000 0.5000 1.0000
O2A_2 O -0.1883(3) 1.6929(2) -0.1040(2)
N5_2 N 0.1025(3) 1.4477(3) -0.2037(2)
O4 O 0.4341(3) 0.3910(3) 0.2128(3)
H9 H 0.358(4) 0.386(3) 0.168(3)
H10 H 0.413(4) 0.4829(19) 0.213(3)
loop_
_geom_bond_atom_site_label_1
_geom_bond_atom_site_label_2
_geom_bond_site_symmetry_1
_geom_bond_site_symmetry_2
Mn1 O2 1_555 1_555
O1 C1 1_555 1_555
O2 C1 1_555 1_555
O3 Mn1 1_555 1_555
N1 N2 1_555 1_555
N2 N3 1_555 1_555
N3 N4 1_555 1_555
N4 C8 1_555 1_555
N5 C3 1_555 1_555
C1 C2 1_555 1_555
C2 N2 1_555 1_555
H1 C2 1_555 1_555
H2 C2 1_555 1_555
C3 H3 1_555 1_555
C4 C3 1_555 1_555
H4 C4 1_555 1_555
C5 C4 1_555 1_555
H5 C5 1_555 1_555
C6 C5 1_555 1_555
C7 N5 1_555 1_555
H6 C7 1_555 1_555
C8 N1 1_555 1_555
H7 O3 1_555 1_555
H8 O3 1_555 1_555
O4 H9 1_555 1_555
H10 O4 1_555 1_555
O1A C1A 1_555 1_555
O2A C1A 1_555 1_555
N1A N2A 1_555 1_555
N2A N3A 1_555 1_555
N3A N4A 1_555 1_555
N4A C8A 1_555 1_555
N5A Mn1 1_555 1_555
C1A C2A 1_555 1_555
C2A N2A 1_555 1_555
H1A C2A 1_555 1_555
H2A C2A 1_555 1_555
C3A N5A 1_555 1_555
H3A C3A 1_555 1_555
C4A C3A 1_555 1_555
H4A C4A 1_555 1_555
C5A C4A 1_555 1_555
H5A C5A 1_555 1_555
C6A C5A 1_555 1_555
C7A N5A 1_555 1_555
H6A C7A 1_555 1_555
C8A N1A 1_555 1_555
O3A Mn1 1_555 1_555
H7A O3A 1_555 1_555
H8A O3A 1_555 1_555
Mn1_2 N5 1_555 1_555
O2A_2 Mn1 1_555 1_555
N5_2 Mn1 1_555 1_555
C6 C7 1_555 1_555
C6 C8 1_555 1_555
O2A Mn1_2 1_555 1_555
C6A C7A 1_555 1_555
C6A C8A 1_555 1_555

#END
