
#######################################################################
#
#                 Cambridge Crystallographic Data Centre
#                                CCDC 
#
#######################################################################
#
# If this CIF has been generated from an entry in the Cambridge 
# Structural Database, then it will include bibliographic, chemical, 
# crystal, experimental, refinement or atomic coordinate data resulting 
# from the CCDC's data processing and validation procedures.
#
#######################################################################

data_SOXVOS
_symmetry_cell_setting           monoclinic
_symmetry_space_group_name_H-M   'C 2/c'
_symmetry_Int_Tables_number      15
_space_group_name_Hall           '-C 2yn'
loop_
_symmetry_equiv_pos_site_id
_symmetry_equiv_pos_as_xyz
1 x,y,z
2 -x,y,1/2-z
3 1/2+x,1/2+y,z
4 1/2-x,1/2+y,1/2-z
5 -x,-y,-z
6 x,-y,1/2+z
7 1/2-x,1/2-y,-z
8 1/2+x,1/2-y,1/2+z
_cell_length_a                   23.786(5)
_cell_length_b                   11.711(2)
_cell_length_c                   9.5154(19)
_cell_angle_alpha                90
_cell_angle_beta                 92.64(3)
_cell_angle_gamma                90
_cell_volume                     2647.78
loop_
_atom_site_label
_atom_site_type_symbol
_atom_site_fract_x
_atom_site_fract_y
_atom_site_fract_z
N1 N 0.0000 0.8385(4) -0.2500
C1 C -0.04400(19) 0.7791(3) -0.2107(5)
H1 H -0.0752 0.8188 -0.1810
Mn1 Mn 0.0000 0.03774(7) -0.2500
O1 O 0.05136(10) 0.0519(2) -0.0614(2)
O2 O 0.07775(10) -0.0404(2) 0.1355(2)
N2 N 0.21181(13) -0.0672(3) 0.1335(3)
N3 N 0.17599(14) -0.1096(3) 0.0368(4)
N4 N 0.17310(16) -0.2227(3) 0.0364(4)
N5 N 0.20909(16) -0.2571(3) 0.1373(4)
N6 N 0.33278(17) -0.2667(4) 0.4771(4)
N7 N 0.0000 0.2324(4) -0.2500
C2 C 0.08435(15) -0.0076(3) 0.0118(4)
C3 C 0.13921(15) -0.0390(4) -0.0539(4)
H2 H 0.1308 -0.0796 -0.1412
H3 H 0.1590 0.0305 -0.0766
C4 C 0.23230(17) -0.1611(4) 0.1949(4)
C5 C 0.27407(17) -0.1591(4) 0.3123(4)
C6 C 0.29154(18) -0.0588(4) 0.3769(5)
H4 H 0.2783 0.0112 0.3432
C7 C 0.3287(2) -0.0638(5) 0.4917(5)
H5 H 0.3409 0.0027 0.5371
C8 C 0.3478(2) -0.1688(5) 0.5386(5)
H6 H 0.3724 -0.1713 0.6173
C9 C 0.29624(19) -0.2610(4) 0.3670(5)
H7 H 0.2848 -0.3290 0.3240
C10 C -0.02856(19) 0.2930(3) -0.1586(4)
H8 H -0.0486 0.2531 -0.0929
C11 C -0.0304(2) 0.4100(4) -0.1545(5)
H9 H -0.0517 0.4474 -0.0891
C12 C 0.0000 0.4717(5) -0.2500
C13 C 0.0000 0.5990(5) -0.2500
C14 C -0.04592(19) 0.6621(3) -0.2116(5)
H10 H -0.0784 0.6248 -0.1860
C1A C 0.04400(19) 0.7791(3) -0.2893(5)
H1A H 0.0752 0.8188 -0.3190
C10A C 0.02856(19) 0.2930(3) -0.3414(4)
H8A H 0.0486 0.2531 -0.4071
C11A C 0.0304(2) 0.4100(4) -0.3455(5)
H9A H 0.0517 0.4474 -0.4109
C14A C 0.04592(19) 0.6621(3) -0.2884(5)
H10A H 0.0784 0.6248 -0.3140
O1A O -0.05136(10) 0.0519(2) -0.4386(2)
O2A O -0.07775(10) -0.0404(2) -0.6355(2)
N2A N -0.21181(13) -0.0672(3) -0.6335(3)
N3A N -0.17599(14) -0.1096(3) -0.5368(4)
N4A N -0.17310(16) -0.2227(3) -0.5364(4)
N5A N -0.20909(16) -0.2571(3) -0.6373(4)
N6A N -0.33278(17) -0.2667(4) -0.9771(4)
C2A C -0.08435(15) -0.0076(3) -0.5118(4)
C3A C -0.13921(15) -0.0390(4) -0.4461(4)
H2A H -0.1308 -0.0796 -0.3588
H3A H -0.1590 0.0305 -0.4234
C4A C -0.23230(17) -0.1611(4) -0.6949(4)
C5A C -0.27407(17) -0.1591(4) -0.8123(4)
C6A C -0.29154(18) -0.0588(4) -0.8769(5)
H4A H -0.2783 0.0112 -0.8432
C7A C -0.3287(2) -0.0638(5) -0.9917(5)
H5A H -0.3409 0.0027 -1.0371
C8A C -0.3478(2) -0.1688(5) -1.0386(5)
H6A H -0.3724 -0.1713 -1.1173
C9A C -0.29624(19) -0.2610(4) -0.8670(5)
H7A H -0.2848 -0.3290 -0.8240
N1_2 N 0.0000 -0.1615(4) -0.2500
Mn1_2 Mn 0.0000 1.03774(7) -0.2500
Mn1D Mn 0.0000 -0.03774(7) -0.7500
Mn1D_2 Mn 0.0000 -0.03774(7) 0.2500
O2D O -0.07775(10) 0.0404(2) -0.1355(2)
O2E O 0.07775(10) 0.0404(2) -0.3645(2)
loop_
_geom_bond_atom_site_label_1
_geom_bond_atom_site_label_2
_geom_bond_site_symmetry_1
_geom_bond_site_symmetry_2
N1 C1 1_555 1_555
C1 H1 1_555 1_555
Mn1 O1 1_555 1_555
O1 C2 1_555 1_555
O2 C2 1_555 1_555
N2 N3 1_555 1_555
N3 N4 1_555 1_555
N4 N5 1_555 1_555
N5 C4 1_555 1_555
N6 C8 1_555 1_555
N7 Mn1 1_555 1_555
C2 C3 1_555 1_555
C3 N3 1_555 1_555
H2 C3 1_555 1_555
H3 C3 1_555 1_555
C4 N2 1_555 1_555
C5 C4 1_555 1_555
C6 C5 1_555 1_555
H4 C6 1_555 1_555
C7 C6 1_555 1_555
H5 C7 1_555 1_555
C8 C7 1_555 1_555
H6 C8 1_555 1_555
C9 N6 1_555 1_555
H7 C9 1_555 1_555
C10 N7 1_555 1_555
H8 C10 1_555 1_555
C11 C10 1_555 1_555
H9 C11 1_555 1_555
C12 C11 1_555 1_555
C13 C12 1_555 1_555
C14 C1 1_555 1_555
H10 C14 1_555 1_555
C1A N1 1_555 1_555
H1A C1A 1_555 1_555
C10A N7 1_555 1_555
H8A C10A 1_555 1_555
C11A C12 1_555 1_555
H9A C11A 1_555 1_555
C14A C13 1_555 1_555
H10A C14A 1_555 1_555
O1A Mn1 1_555 1_555
O2A C2A 1_555 1_555
N2A N3A 1_555 1_555
N3A N4A 1_555 1_555
N4A N5A 1_555 1_555
N5A C4A 1_555 1_555
N6A C8A 1_555 1_555
C2A O1A 1_555 1_555
C3A N3A 1_555 1_555
H2A C3A 1_555 1_555
H3A C3A 1_555 1_555
C4A N2A 1_555 1_555
C5A C4A 1_555 1_555
C6A C5A 1_555 1_555
H4A C6A 1_555 1_555
C7A C6A 1_555 1_555
H5A C7A 1_555 1_555
C8A C7A 1_555 1_555
H6A C8A 1_555 1_555
C9A N6A 1_555 1_555
H7A C9A 1_555 1_555
N1_2 Mn1 1_555 1_555
Mn1_2 N1 1_555 1_555
Mn1D O2A 1_555 1_555
Mn1D_2 O2 1_555 1_555
O2D Mn1 1_555 1_555
O2E Mn1 1_555 1_555
C5 C9 1_555 1_555
C13 C14 1_555 1_555
C1A C14A 1_555 1_555
C10A C11A 1_555 1_555
C2A C3A 1_555 1_555
C5A C9A 1_555 1_555

#END
