
#######################################################################
#
#                 Cambridge Crystallographic Data Centre
#                                CCDC 
#
#######################################################################
#
# If this CIF has been generated from an entry in the Cambridge 
# Structural Database, then it will include bibliographic, chemical, 
# crystal, experimental, refinement or atomic coordinate data resulting 
# from the CCDC's data processing and validation procedures.
#
#######################################################################

data_SOXZUB
_symmetry_cell_setting           monoclinic
_symmetry_space_group_name_H-M   'P 21/m'
_symmetry_Int_Tables_number      11
_space_group_name_Hall           '-P 2yb'
loop_
_symmetry_equiv_pos_site_id
_symmetry_equiv_pos_as_xyz
1 x,y,z
2 -x,1/2+y,-z
3 -x,-y,-z
4 x,1/2-y,z
_cell_length_a                   5.6537(8)
_cell_length_b                   18.736(3)
_cell_length_c                   9.4535(15)
_cell_angle_alpha                90
_cell_angle_beta                 98.440(5)
_cell_angle_gamma                90
_cell_volume                     990.543
loop_
_atom_site_label
_atom_site_type_symbol
_atom_site_fract_x
_atom_site_fract_y
_atom_site_fract_z
U1 U 0.23252(8) 0.56111(3) 0.24329(5)
C1 C -0.020(2) 0.5384(8) 0.5237(13)
C2 C 0.498(2) 0.4647(7) 0.0342(14)
Se1 Se 0.3350(4) 0.7500 0.2861(3)
O1 O -0.0464(17) 0.5513(6) 0.1367(11)
O2 O 0.5106(19) 0.5745(6) 0.3539(11)
O3 O 0.1822(17) 0.6819(6) 0.2175(10)
O4 O 0.595(3) 0.7500 0.244(2)
O5 O 0.337(3) 0.7500 0.4550(16)
O6 O 0.0508(17) 0.5870(5) 0.4528(10)
O7 O -0.1291(19) 0.5449(6) 0.6288(11)
O8 O 0.4043(17) 0.4574(5) 0.1446(10)
O9 O 0.5977(17) 0.4157(6) -0.0271(10)
O10 O 0.518(6) 0.8285(19) 0.697(4)
O11 O 0.996(8) 0.834(2) 0.847(5)
Rb1 Rb 0.8752(8) 0.7718(4) 0.5436(5)
Rb2 Rb -0.2292(8) 0.7189(3) -0.0105(5)
U1C U 0.23252(8) 0.93889(3) 0.24329(5)
U1B U -0.23252(8) 0.43889(3) 0.75671(5)
U1B_2 U 0.76748(8) 0.43889(3) -0.24329(5)
C1B C 0.020(2) 0.4616(8) 0.4763(13)
C2B C 0.502(2) 0.5353(7) -0.0342(14)
O1C O -0.0464(17) 0.9487(6) 0.1367(11)
O2C O 0.5106(19) 0.9255(6) 0.3539(11)
O3C O 0.1822(17) 0.8181(6) 0.2175(10)
O4_2 O -0.405(3) 0.7500 0.244(2)
O5_2 O 1.337(3) 0.7500 0.4550(16)
O6B O -0.0508(17) 0.4130(5) 0.5472(10)
O6C O 1.0508(17) 0.9130(5) 0.4528(10)
O6C_2 O 0.0508(17) 0.9130(5) 0.4528(10)
O6_2 O 1.0508(17) 0.5870(5) 0.4528(10)
O7B O 0.1291(19) 0.4551(6) 0.3712(11)
O7A O 0.1291(19) 1.0449(6) 0.3712(11)
O8B O 0.5957(17) 0.5426(5) -0.1446(10)
O8C O 0.4043(17) 1.0426(5) 0.1446(10)
O9B O 0.4023(17) 0.5843(6) 0.0271(10)
O9A O 0.4023(17) 0.9157(6) 0.0271(10)
O10C O -0.482(6) 0.6715(19) -0.303(4)
O10C_2 O 0.518(6) 0.6715(19) 0.697(4)
O10_2 O -0.482(6) 0.8285(19) -0.303(4)
O11_2 O -0.004(8) 0.834(2) -0.153(5)
O11C O -0.004(8) 0.666(2) -0.153(5)
O11C_2 O 0.996(8) 0.666(2) 0.847(5)
Rb1C Rb 0.8752(8) 0.7282(4) 0.5436(5)
Rb1_2 Rb -0.1248(8) 0.7718(4) 0.5436(5)
Rb1C_2 Rb -0.1248(8) 0.7282(4) 0.5436(5)
Rb1_3 Rb -0.1248(8) 0.7718(4) -0.4564(5)
Rb1C_3 Rb -0.1248(8) 0.7282(4) -0.4564(5)
Rb1A Rb 0.1248(8) 0.2718(4) 0.4564(5)
Rb2C Rb -0.2292(8) 0.7811(3) -0.0105(5)
Rb2_2 Rb 0.7708(8) 0.7189(3) -0.0105(5)
Rb2C_2 Rb 0.7708(8) 0.7811(3) -0.0105(5)
Rb2C_3 Rb 0.7708(8) 0.7811(3) 0.9895(5)
Rb2_3 Rb 0.7708(8) 0.7189(3) 0.9895(5)
loop_
_geom_bond_atom_site_label_1
_geom_bond_atom_site_label_2
_geom_bond_site_symmetry_1
_geom_bond_site_symmetry_2
U1 O1 1_555 1_555
C1 O6 1_555 1_555
C2 O8 1_555 1_555
Se1 O3 1_555 1_555
O2 U1 1_555 1_555
O3 U1 1_555 1_555
O4 Se1 1_555 1_555
O5 Se1 1_555 1_555
O6 U1 1_555 1_555
O7 C1 1_555 1_555
O8 U1 1_555 1_555
O9 C2 1_555 1_555
O10 Rb1 1_555 1_555
O11 Rb1 1_555 1_555
Rb1 O4 1_555 1_555
Rb2 O3 1_555 1_555
U1C O1C 1_555 1_555
U1B O7 1_555 1_555
U1B_2 O9 1_555 1_555
C1B C1 1_555 1_555
C2B C2 1_555 1_555
O2C U1C 1_555 1_555
O3C Se1 1_555 1_555
O4_2 Rb2 1_555 1_555
O5_2 Rb1 1_555 1_555
O6B U1B 1_555 1_555
O6C Rb1 1_555 1_555
O6C_2 U1C 1_555 1_555
O6_2 Rb1C 1_555 1_555
O7B U1 1_555 1_555
O7A U1C 1_555 1_555
O8B U1B_2 1_555 1_555
O8C U1C 1_555 1_555
O9B U1 1_555 1_555
O9A U1C 1_555 1_555
O10C Rb2 1_555 1_555
O10C_2 Rb1C 1_555 1_555
O10_2 Rb1_3 1_555 1_555
O11_2 Rb2 1_555 1_555
O11C Rb2 1_555 1_555
O11C_2 Rb1C 1_555 1_555
Rb1C O4 1_555 1_555
Rb1_2 O5 1_555 1_555
Rb1C_2 O5 1_555 1_555
Rb1_3 O11_2 1_555 1_555
Rb1C_3 O10C 1_555 1_555
Rb1A O6B 1_555 1_555
Rb2C Rb2 1_555 1_555
Rb2_2 O4 1_555 1_555
Rb2C_2 O4 1_555 1_555
Rb2C_3 O10 1_555 1_555
Rb2_3 O11 1_555 1_555
O5 Rb1 1_555 1_555
O5 Rb1C 1_555 1_555
O6 Rb1C_2 1_555 1_555
O11 Rb2C_3 1_555 1_555
Rb1 Rb1C 1_555 1_555
U1C O3C 1_555 1_555
C1B O6B 1_555 1_555
C1B O7B 1_555 1_555
C2B O8B 1_555 1_555
C2B O9B 1_555 1_555
O3C Rb2C 1_555 1_555
O4_2 Rb1_2 1_555 1_555
O4_2 Rb1C_2 1_555 1_555
O4_2 Rb2C 1_555 1_555
O5_2 Rb1C 1_555 1_555
O6C_2 Rb1_2 1_555 1_555
O10C_2 Rb2_3 1_555 1_555
O10_2 Rb2C 1_555 1_555
O11_2 Rb2C 1_555 1_555
O11C Rb1C_3 1_555 1_555
O11C Rb2C 1_555 1_555
O11C_2 Rb2C_3 1_555 1_555
O11C_2 Rb2_3 1_555 1_555
Rb1_2 Rb1C_2 1_555 1_555
Rb1_3 Rb1C_3 1_555 1_555
Rb2_2 Rb2C_2 1_555 1_555
Rb2C_3 Rb2_3 1_555 1_555

#END
