
#######################################################################
#
#                 Cambridge Crystallographic Data Centre
#                                CCDC 
#
#######################################################################
#
# If this CIF has been generated from an entry in the Cambridge 
# Structural Database, then it will include bibliographic, chemical, 
# crystal, experimental, refinement or atomic coordinate data resulting 
# from the CCDC's data processing and validation procedures.
#
#######################################################################

data_SOXZIP
_symmetry_cell_setting           monoclinic
_symmetry_space_group_name_H-M   'I 2/c'
_symmetry_Int_Tables_number      15
_space_group_name_Hall           '-I 2yc'
loop_
_symmetry_equiv_pos_site_id
_symmetry_equiv_pos_as_xyz
1 x,y,z
2 -x,y,1/2-z
3 1/2+x,1/2+y,1/2+z
4 1/2-x,1/2+y,-z
5 -x,-y,-z
6 x,-y,1/2+z
7 1/2-x,1/2-y,1/2-z
8 1/2+x,1/2-y,z
_cell_length_a                   17.094(3)
_cell_length_b                   13.1873(13)
_cell_length_c                   21.490(3)
_cell_angle_alpha                90
_cell_angle_beta                 98.457(18)
_cell_angle_gamma                90
_cell_volume                     4791.68
loop_
_atom_site_label
_atom_site_type_symbol
_atom_site_fract_x
_atom_site_fract_y
_atom_site_fract_z
Ba1 Ba 0.1294(1) -0.5398(1) -0.0121(1)
Ba2 Ba 0.5000 -0.4697(1) -0.2500
Co1 Co 0.5000 -0.5000 0.0000
Co2 Co 0.2500 -0.2500 -0.2500
N1 N 0.4396(2) -0.6298(2) -0.0054(2)
N2 N 0.2726(2) -0.1432(2) -0.3123(1)
O1 O 0.4724(2) -0.4898(2) -0.0888(1)
O2 O 0.4115(2) -0.5695(3) -0.1731(2)
O3 O 0.4034(2) -0.4362(2) 0.0107(2)
O4 O 0.2825(2) -0.4654(2) 0.0334(2)
O5 O 0.4924(2) -0.8934(2) 0.0267(2)
O6 O 0.3730(2) -0.8253(3) 0.0142(2)
O7 O 0.3515(2) -0.3071(2) -0.2578(1)
O8 O 0.4481(2) -0.3003(3) -0.3173(2)
O9 O 0.2075(2) -0.3276(2) -0.3226(1)
O10 O 0.1704(3) -0.3132(3) -0.4257(2)
O11 O 0.2825(3) 0.0289(3) -0.3913(2)
O12 O 0.2860(3) 0.1358(3) -0.3110(2)
C1 C 0.4154(3) -0.6508(4) -0.0731(2)
C2 C 0.4339(2) -0.5650(3) -0.1154(2)
C3 C 0.3687(2) -0.6076(3) 0.0273(2)
C4 C 0.3481(2) -0.4962(3) 0.0229(2)
C5 C 0.4875(2) -0.7151(3) 0.0264(2)
C6 C 0.4467(2) -0.8186(3) 0.0210(2)
C7 C 0.3533(3) -0.1675(4) -0.3284(3)
C8 C 0.3868(3) -0.2650(4) -0.3001(2)
C9 C 0.2107(3) -0.1631(3) -0.3684(2)
C10 C 0.1952(3) -0.2761(3) -0.3742(2)
C11 C 0.2682(3) -0.0379(3) -0.2886(2)
C12 C 0.2801(3) 0.0486(3) -0.3354(2)
O13 O 0.1343(3) -0.4746(3) 0.1185(2)
O14 O 0.1665(5) -0.7358(4) -0.0668(3)
O15 O 0.0266(3) -0.5703(8) -0.1263(3)
O16 O 0.6276(7) -0.5505(11) -0.1741(3)
Ba1A Ba 0.8706(1) -0.5398(1) -0.4879(1)
Ba1C Ba 0.3706(1) -1.0398(1) 0.0121(1)
Ba1G Ba 0.6294(1) -0.9602(1) -0.0121(1)
Ba1E Ba 0.1294(1) -0.4602(1) -0.5121(1)
Ba1F Ba 0.3706(1) 0.0398(1) -0.4879(1)
Ba1B Ba 0.6294(1) -1.0398(1) -0.5121(1)
Ba1F_2 Ba 0.3706(1) -0.9602(1) -0.4879(1)
Ba1D Ba 0.8706(1) -0.4602(1) 0.0121(1)
Ba1G_2 Ba 0.6294(1) 0.0398(1) -0.0121(1)
Co1A Co 0.5000 -0.5000 -0.5000
Co2A Co 0.7500 -0.2500 -0.2500
N1A N 0.5604(2) -0.6298(2) -0.4946(2)
N1D N 0.5604(2) -0.3702(2) 0.0054(2)
N2A N 0.7274(2) -0.1432(2) -0.1877(1)
N2F N 0.2274(2) -0.3568(2) -0.1877(1)
O1A O 0.5276(2) -0.4898(2) -0.4112(1)
O1D O 0.5276(2) -0.5102(2) 0.0888(1)
O2A O 0.5885(2) -0.5695(3) -0.3269(2)
O3A O 0.5966(2) -0.4362(2) -0.5107(2)
O3D O 0.5966(2) -0.5638(2) -0.0107(2)
O4A O 0.7175(2) -0.4654(2) -0.5334(2)
O5A O 0.5076(2) -0.8934(2) -0.5267(2)
O5C O 0.0076(2) -0.3934(2) -0.0267(2)
O5G O -0.0076(2) -0.6066(2) 0.0267(2)
O5B O 0.9924(2) -0.3934(2) -0.4733(2)
O5F O 1.0076(2) -0.6066(2) -0.5267(2)
O6A O 0.6270(2) -0.8253(3) -0.5142(2)
O6C O 0.1270(2) -0.3253(3) -0.0142(2)
O6B O 0.8730(2) -0.3253(3) -0.4858(2)
O7A O 0.6485(2) -0.3071(2) -0.2422(1)
O7F O 0.1485(2) -0.1929(2) -0.2422(1)
O8A O 0.5519(2) -0.3003(3) -0.1827(2)
O9A O 0.7925(2) -0.3276(2) -0.1774(1)
O9F O 0.2925(2) -0.1724(2) -0.1774(1)
O10A O 0.8296(3) -0.3132(3) -0.0743(2)
O10E O 0.1704(3) -0.6868(3) 0.0743(2)
O10D O 0.8296(3) -0.6868(3) -0.5743(2)
O11A O 0.7175(3) 0.0289(3) -0.1087(2)
O11F O 0.2175(3) -0.5289(3) -0.1087(2)
O11G O 0.7825(3) -0.5289(3) -0.3913(2)
O12A O 0.7140(3) 0.1358(3) -0.1890(2)
C1A C 0.5846(3) -0.6508(4) -0.4269(2)
C2A C 0.5661(2) -0.5650(3) -0.3846(2)
C3A C 0.6313(2) -0.6076(3) -0.5273(2)
C4A C 0.6519(2) -0.4962(3) -0.5229(2)
C5A C 0.5125(2) -0.7151(3) -0.5264(2)
C6A C 0.5533(2) -0.8186(3) -0.5210(2)
C7A C 0.6467(3) -0.1675(4) -0.1716(3)
C8A C 0.6132(3) -0.2650(4) -0.1999(2)
C9A C 0.7893(3) -0.1631(3) -0.1316(2)
C10A C 0.8048(3) -0.2761(3) -0.1258(2)
C11A C 0.7318(3) -0.0379(3) -0.2114(2)
C12A C 0.7199(3) 0.0486(3) -0.1646(2)
O13A O 0.8657(3) -0.4746(3) -0.6185(2)
O14A O 0.8335(5) -0.7358(4) -0.4332(3)
O15A O 0.9734(3) -0.5703(8) -0.3737(3)
O16A O 0.3724(7) -0.5505(11) -0.3259(3)
O17 O -0.2608(4) -0.1628(4) 0.1873(3)
loop_
_geom_bond_atom_site_label_1
_geom_bond_atom_site_label_2
_geom_bond_site_symmetry_1
_geom_bond_site_symmetry_2
Ba1 O4 1_555 1_555
Ba2 O2 1_555 1_555
Co1 N1 1_555 1_555
Co2 N2 1_555 1_555
N1 C1 1_555 1_555
N2 C7 1_555 1_555
O1 Co1 1_555 1_555
O2 C2 1_555 1_555
O3 Co1 1_555 1_555
O4 C4 1_555 1_555
O5 C6 1_555 1_555
O6 C6 1_555 1_555
O7 Co2 1_555 1_555
O8 Ba2 1_555 1_555
O9 Co2 1_555 1_555
O10 C10 1_555 1_555
O11 C12 1_555 1_555
O12 C12 1_555 1_555
C1 C2 1_555 1_555
C2 O1 1_555 1_555
C3 N1 1_555 1_555
C4 O3 1_555 1_555
C5 N1 1_555 1_555
C6 C5 1_555 1_555
C7 C8 1_555 1_555
C8 O7 1_555 1_555
C9 N2 1_555 1_555
C10 O9 1_555 1_555
C11 N2 1_555 1_555
C12 C11 1_555 1_555
O13 Ba1 1_555 1_555
O14 Ba1 1_555 1_555
O15 Ba1 1_555 1_555
O16 Ba2 1_555 1_555
Ba1A O4A 1_555 1_555
Ba1C O5 1_555 1_555
Ba1G O5 1_555 1_555
Ba1E O10 1_555 1_555
Ba1F O11 1_555 1_555
Ba1B O5A 1_555 1_555
Ba1F_2 O5A 1_555 1_555
Ba1D O10A 1_555 1_555
Ba1G_2 O11A 1_555 1_555
Co1A N1A 1_555 1_555
Co2A N2A 1_555 1_555
N1A C1A 1_555 1_555
N1D Co1 1_555 1_555
N2A C7A 1_555 1_555
N2F Co2 1_555 1_555
O1A Co1A 1_555 1_555
O1D Co1 1_555 1_555
O2A Ba2 1_555 1_555
O3A Co1A 1_555 1_555
O3D Co1 1_555 1_555
O4A C4A 1_555 1_555
O5A C6A 1_555 1_555
O5C Ba1 1_555 1_555
O5G Ba1 1_555 1_555
O5B Ba1A 1_555 1_555
O5F Ba1A 1_555 1_555
O6A Ba1B 1_555 1_555
O6C Ba1 1_555 1_555
O6B Ba1A 1_555 1_555
O7A Co2A 1_555 1_555
O7F Co2 1_555 1_555
O8A Ba2 1_555 1_555
O9A Co2A 1_555 1_555
O9F Co2 1_555 1_555
O10A C10A 1_555 1_555
O10E Ba1 1_555 1_555
O10D Ba1A 1_555 1_555
O11A C12A 1_555 1_555
O11F Ba1 1_555 1_555
O11G Ba1A 1_555 1_555
O12A C12A 1_555 1_555
C1A C2A 1_555 1_555
C2A O1A 1_555 1_555
C3A N1A 1_555 1_555
C4A O3A 1_555 1_555
C5A N1A 1_555 1_555
C6A O6A 1_555 1_555
C7A C8A 1_555 1_555
C8A O7A 1_555 1_555
C9A N2A 1_555 1_555
C10A O9A 1_555 1_555
C11A N2A 1_555 1_555
C12A C11A 1_555 1_555
O13A Ba1A 1_555 1_555
O14A Ba1A 1_555 1_555
O15A Ba1A 1_555 1_555
O16A Ba2 1_555 1_555
O6 Ba1C 1_555 1_555
O8 C8 1_555 1_555
C3 C4 1_555 1_555
C9 C10 1_555 1_555
O2A C2A 1_555 1_555
O8A C8A 1_555 1_555
C3A C4A 1_555 1_555
C5A C6A 1_555 1_555
C9A C10A 1_555 1_555

#END
