
#######################################################################
#
#                 Cambridge Crystallographic Data Centre
#                                CCDC 
#
#######################################################################
#
# If this CIF has been generated from an entry in the Cambridge 
# Structural Database, then it will include bibliographic, chemical, 
# crystal, experimental, refinement or atomic coordinate data resulting 
# from the CCDC's data processing and validation procedures.
#
#######################################################################

data_SOYBAL
_symmetry_cell_setting           monoclinic
_symmetry_space_group_name_H-M   'P 21/c'
_symmetry_Int_Tables_number      14
_space_group_name_Hall           '-P 2ybc'
loop_
_symmetry_equiv_pos_site_id
_symmetry_equiv_pos_as_xyz
1 x,y,z
2 -x,1/2+y,1/2-z
3 -x,-y,-z
4 x,1/2-y,1/2+z
_cell_length_a                   12.572(5)
_cell_length_b                   22.797(9)
_cell_length_c                   8.213(3)
_cell_angle_alpha                90
_cell_angle_beta                 106.310(4)
_cell_angle_gamma                90
_cell_volume                     2259.15
loop_
_atom_site_label
_atom_site_type_symbol
_atom_site_fract_x
_atom_site_fract_y
_atom_site_fract_z
Mn1 Mn 0.43340(3) 0.605640(17) 0.53684(5)
S1 S 0.83534(5) 0.57000(3) 0.64857(8)
S2 S 0.99789(5) 0.57575(3) 0.64620(8)
O1 O 0.53964(13) 0.60516(7) 0.8137(2)
O2 O 0.36804(14) 0.52046(8) 0.6017(2)
H1 H 0.300(2) 0.5292(13) 0.591(4)
H2 H 0.364(2) 0.4915(13) 0.515(4)
O3 O 0.61248(13) 0.56827(7) 0.6229(2)
O4 O 1.18581(17) 0.57947(9) 0.5805(4)
O5 O 1.30218(15) 0.65292(9) 0.5891(3)
N1 N 0.51309(19) 0.68758(10) 0.4868(3)
N2 N 0.5380(3) 0.77837(13) 0.4215(4)
H3 H 0.5249 0.8150 0.3993
N3 N 0.37574(19) 0.58388(12) 0.2664(3)
C1 C 0.2684(3) 0.56671(17) 0.0077(4)
H4 H 0.2058 0.5605 -0.0829
C2 C 0.62238(18) 0.58489(10) 0.7720(3)
C3 C 0.7327(2) 0.58293(11) 0.9036(3)
C4 C 0.7345(2) 0.58907(16) 1.0726(4)
H5 H 0.6683 0.5953 1.0994
C5 C 0.8317(3) 0.58612(19) 1.2012(4)
H6 H 0.8306 0.5897 1.3135
C6 C 0.9307(2) 0.57794(16) 1.1639(4)
H7 H 0.9964 0.5753 1.2509
C7 C 0.9323(2) 0.57361(13) 0.9973(3)
H8 H 0.9995 0.5691 0.9723
C8 C 0.83386(19) 0.57595(11) 0.8653(3)
C9 C 1.0256(2) 0.65335(12) 0.6514(3)
C10 C 0.9508(2) 0.69435(14) 0.6814(4)
H9 H 0.8843 0.6816 0.6979
C11 C 0.9742(3) 0.75341(15) 0.6868(5)
H10 H 0.9231 0.7801 0.7058
C12 C 1.0721(3) 0.77343(15) 0.6644(5)
H11 H 1.0873 0.8134 0.6680
C13 C 1.1477(3) 0.73360(13) 0.6365(4)
H12 H 1.2142 0.7471 0.6220
C14 C 1.1265(2) 0.67371(12) 0.6297(3)
C15 C 1.2109(2) 0.63209(12) 0.5967(3)
C16 C 0.4682(3) 0.73973(14) 0.4568(5)
H13 H 0.3966 0.7486 0.4598
C17 C 0.6323(3) 0.74991(18) 0.4267(6)
H14 H 0.6955 0.7657 0.4063
C18 C 0.6171(3) 0.69444(15) 0.4673(5)
H15 H 0.6695 0.6647 0.4803
C19 C 0.2713(2) 0.57560(16) 0.1696(4)
H16 H 0.2092 0.5760 0.2100
N4 N 0.3729(3) 0.56858(17) 0.0019(4)
H17 H 0.3959 0.5648 -0.0868
C20 C 0.4349(3) 0.5774(2) 0.1597(5)
H18 H 0.5119 0.5789 0.1910
Mn1_2 Mn 1.43340(3) 0.605640(17) 0.53684(5)
O5_2 O 0.30218(15) 0.65292(9) 0.5891(3)
loop_
_geom_bond_atom_site_label_1
_geom_bond_atom_site_label_2
_geom_bond_site_symmetry_1
_geom_bond_site_symmetry_2
Mn1 O1 1_555 1_555
S1 S2 1_555 1_555
S2 C9 1_555 1_555
O1 C2 1_555 1_555
O2 Mn1 1_555 1_555
H1 O2 1_555 1_555
H2 O2 1_555 1_555
O3 Mn1 1_555 1_555
O4 C15 1_555 1_555
O5 C15 1_555 1_555
N1 Mn1 1_555 1_555
N2 H3 1_555 1_555
N3 Mn1 1_555 1_555
C1 H4 1_555 1_555
C2 O3 1_555 1_555
C3 C2 1_555 1_555
C4 C3 1_555 1_555
H5 C4 1_555 1_555
C5 C4 1_555 1_555
H6 C5 1_555 1_555
C6 C5 1_555 1_555
H7 C6 1_555 1_555
C7 C6 1_555 1_555
H8 C7 1_555 1_555
C8 S1 1_555 1_555
C9 C10 1_555 1_555
C10 H9 1_555 1_555
C11 C10 1_555 1_555
H10 C11 1_555 1_555
C12 C11 1_555 1_555
H11 C12 1_555 1_555
C13 C12 1_555 1_555
H12 C13 1_555 1_555
C14 C9 1_555 1_555
C15 C14 1_555 1_555
C16 N1 1_555 1_555
H13 C16 1_555 1_555
C17 N2 1_555 1_555
H14 C17 1_555 1_555
C18 N1 1_555 1_555
H15 C18 1_555 1_555
C19 N3 1_555 1_555
H16 C19 1_555 1_555
N4 C1 1_555 1_555
H17 N4 1_555 1_555
C20 N3 1_555 1_555
H18 C20 1_555 1_555
Mn1_2 O5 1_555 1_555
O5_2 Mn1 1_555 1_555
N2 C16 1_555 1_555
C1 C19 1_555 1_555
C3 C8 1_555 1_555
C7 C8 1_555 1_555
C13 C14 1_555 1_555
C17 C18 1_555 1_555
N4 C20 1_555 1_555

#END
