
#######################################################################
#
#                 Cambridge Crystallographic Data Centre
#                                CCDC 
#
#######################################################################
#
# If this CIF has been generated from an entry in the Cambridge 
# Structural Database, then it will include bibliographic, chemical, 
# crystal, experimental, refinement or atomic coordinate data resulting 
# from the CCDC's data processing and validation procedures.
#
#######################################################################

data_SOYDAN
_symmetry_cell_setting           trigonal
_symmetry_space_group_name_H-M   'P 32'
_symmetry_Int_Tables_number      145
_space_group_name_Hall           'P 32'
loop_
_symmetry_equiv_pos_site_id
_symmetry_equiv_pos_as_xyz
1 x,y,z
2 -y,x-y,2/3+z
3 -x+y,-x,1/3+z
_cell_length_a                   16.865(2)
_cell_length_b                   16.865(2)
_cell_length_c                   7.9656(10)
_cell_angle_alpha                90
_cell_angle_beta                 90
_cell_angle_gamma                120
_cell_volume                     1962.1
loop_
_atom_site_label
_atom_site_type_symbol
_atom_site_fract_x
_atom_site_fract_y
_atom_site_fract_z
Zn1 Zn 0.15356(7) 0.36573(6) 0.06877(12)
C1 C 0.5189(6) 0.6341(6) 0.4652(12)
H1 H 0.5769 0.6450 0.4358
C2 C 0.4440(6) 0.5668(6) 0.3780(12)
H2 H 0.4526 0.5361 0.2892
C3 C 0.3550(6) 0.5455(6) 0.4250(11)
C4 C 0.3506(6) 0.5964(6) 0.5588(11)
H3 H 0.2939 0.5845 0.5989
C5 C 0.4280(6) 0.6632(7) 0.6308(11)
H4 H 0.4214 0.6970 0.7162
C6 C 0.2746(6) 0.4794(6) 0.3278(12)
C7 C 0.0421(6) 0.3870(7) 0.3365(12)
H5 H 0.0382 0.4125 0.4375
C8 C -0.0408(6) 0.3321(6) 0.2466(12)
C9 C -0.0491(6) 0.2892(6) 0.0869(10)
C10 C -0.1373(6) 0.2389(6) 0.0187(12)
H6 H -0.1439 0.2098 -0.0838
C11 C -0.2150(7) 0.2299(7) 0.0945(14)
C12 C -0.2058(7) 0.2750(8) 0.2478(15)
H7 H -0.2564 0.2722 0.3003
C13 C -0.1195(7) 0.3236(7) 0.3190(14)
H8 H -0.1140 0.3522 0.4216
C14 C -0.3828(10) 0.1753(12) 0.096(2)
H9 H -0.3668 0.2357 0.1367
H10 H -0.4286 0.1586 0.0086
C15 C -0.4225(12) 0.1078(12) 0.237(2)
H11 H -0.4748 0.1088 0.2824
H12 H -0.3773 0.1238 0.3236
H13 H -0.4410 0.0475 0.1962
C16 C -0.3144(9) 0.1175(12) -0.123(2)
H14 H -0.2700 0.0970 -0.1169
H15 H -0.3750 0.0639 -0.1150
C17 C -0.3056(13) 0.1614(16) -0.283(2)
H16 H -0.3159 0.1188 -0.3718
H17 H -0.2451 0.2134 -0.2934
H18 H -0.3498 0.1812 -0.2906
C18 C 0.2364(7) 0.3521(7) -0.2689(13)
H19 H 0.2337 0.4045 -0.2941
C19 C 0.2736(8) 0.3192(8) -0.3895(14)
H20 H 0.2954 0.3491 -0.4915
C20 C 0.2766(8) 0.2417(8) -0.3519(13)
H21 H 0.3012 0.2184 -0.4287
C21 C 0.2426(7) 0.1970(7) -0.1974(13)
C22 C 0.2446(8) 0.1168(7) -0.1503(15)
H22 H 0.2701 0.0925 -0.2229
C23 C 0.2106(8) 0.0761(8) -0.0046(18)
H23 H 0.2110 0.0225 0.0209
C24 C 0.1732(7) 0.1121(6) 0.1151(14)
C25 C 0.1365(8) 0.0747(8) 0.2720(16)
H24 H 0.1363 0.0220 0.3069
C26 C 0.1017(9) 0.1126(8) 0.3728(16)
H25 H 0.0754 0.0853 0.4749
C27 C 0.1050(7) 0.1941(7) 0.3236(14)
H26 H 0.0817 0.2207 0.3958
C28 C 0.1726(6) 0.1938(6) 0.0737(13)
C29 C 0.2073(6) 0.2363(6) -0.0853(12)
N1 N 0.5122(5) 0.6842(5) 0.5898(10)
N2 N 0.1958(5) 0.4635(5) 0.3894(8)
H27 H 0.1900 0.4868 0.4814
N3 N 0.1227(5) 0.4042(5) 0.2882(9)
N4 N -0.3004(6) 0.1786(7) 0.0232(13)
N5 N 0.2056(5) 0.3133(5) -0.1240(9)
N6 N 0.1401(5) 0.2345(5) 0.1781(10)
O1 O 0.2851(4) 0.4447(4) 0.1917(8)
O2 O 0.0194(4) 0.2940(4) 0.0047(8)
Zn1A Zn 0.63427(6) 0.78783(9) 0.73544(12)
N1B N 0.1720(7) 0.4878(5) -0.0769(10)
O3 O 0.4116(17) 0.484(2) 0.955(4)
H28 H 0.4522 0.4692 0.9769
H29 H 0.4307 0.5323 0.8982
loop_
_geom_bond_atom_site_label_1
_geom_bond_atom_site_label_2
_geom_bond_site_symmetry_1
_geom_bond_site_symmetry_2
Zn1 N3 1_555 1_555
C1 H1 1_555 1_555
C2 C1 1_555 1_555
H2 C2 1_555 1_555
C3 C2 1_555 1_555
C4 C3 1_555 1_555
H3 C4 1_555 1_555
C5 C4 1_555 1_555
H4 C5 1_555 1_555
C6 C3 1_555 1_555
C7 H5 1_555 1_555
C8 C7 1_555 1_555
C9 C8 1_555 1_555
C10 C9 1_555 1_555
H6 C10 1_555 1_555
C11 C10 1_555 1_555
C12 C11 1_555 1_555
H7 C12 1_555 1_555
C13 C8 1_555 1_555
H8 C13 1_555 1_555
C14 H9 1_555 1_555
H10 C14 1_555 1_555
C15 C14 1_555 1_555
H11 C15 1_555 1_555
H12 C15 1_555 1_555
H13 C15 1_555 1_555
C16 H14 1_555 1_555
H15 C16 1_555 1_555
C17 C16 1_555 1_555
H16 C17 1_555 1_555
H17 C17 1_555 1_555
H18 C17 1_555 1_555
C18 H19 1_555 1_555
C19 C18 1_555 1_555
H20 C19 1_555 1_555
C20 C19 1_555 1_555
H21 C20 1_555 1_555
C21 C20 1_555 1_555
C22 C21 1_555 1_555
H22 C22 1_555 1_555
C23 C22 1_555 1_555
H23 C23 1_555 1_555
C24 C23 1_555 1_555
C25 C24 1_555 1_555
H24 C25 1_555 1_555
C26 C25 1_555 1_555
H25 C26 1_555 1_555
C27 C26 1_555 1_555
H26 C27 1_555 1_555
C28 C24 1_555 1_555
C29 C21 1_555 1_555
N1 C1 1_555 1_555
N2 C6 1_555 1_555
H27 N2 1_555 1_555
N3 C7 1_555 1_555
N4 C11 1_555 1_555
N5 Zn1 1_555 1_555
N6 Zn1 1_555 1_555
O1 Zn1 1_555 1_555
O2 Zn1 1_555 1_555
O3 H28 1_555 1_555
H29 O3 1_555 1_555
Zn1A N1 1_555 1_555
N1B Zn1 1_555 1_555
C5 N1 1_555 1_555
C6 O1 1_555 1_555
C9 O2 1_555 1_555
C12 C13 1_555 1_555
C14 N4 1_555 1_555
C16 N4 1_555 1_555
C18 N5 1_555 1_555
C27 N6 1_555 1_555
C28 C29 1_555 1_555
C28 N6 1_555 1_555
C29 N5 1_555 1_555
N2 N3 1_555 1_555

#END
