
#######################################################################
#
#                 Cambridge Crystallographic Data Centre
#                                CCDC 
#
#######################################################################
#
# If this CIF has been generated from an entry in the Cambridge 
# Structural Database, then it will include bibliographic, chemical, 
# crystal, experimental, refinement or atomic coordinate data resulting 
# from the CCDC's data processing and validation procedures.
#
#######################################################################

data_SOYDUH
_symmetry_cell_setting           monoclinic
_symmetry_space_group_name_H-M   'P 21/c'
_symmetry_Int_Tables_number      14
_space_group_name_Hall           '-P 2ybc'
loop_
_symmetry_equiv_pos_site_id
_symmetry_equiv_pos_as_xyz
1 x,y,z
2 -x,1/2+y,1/2-z
3 -x,-y,-z
4 x,1/2-y,1/2+z
_cell_length_a                   13.7491(8)
_cell_length_b                   10.8426(6)
_cell_length_c                   8.8097(5)
_cell_angle_alpha                90
_cell_angle_beta                 101.5640(10)
_cell_angle_gamma                90
_cell_volume                     1286.66
loop_
_atom_site_label
_atom_site_type_symbol
_atom_site_fract_x
_atom_site_fract_y
_atom_site_fract_z
Ag1 Ag 0.66499(2) 0.78831(3) 0.32820(4)
N1 N 0.8129(2) 0.8392(3) 0.4705(4)
N2 N 0.6625(2) 1.0087(3) 0.4336(3)
N3 N 0.5842(2) 1.0912(3) 0.4306(3)
N4 N 0.4740(3) 1.2161(3) 0.4945(4)
N5 N 0.4490(3) 1.1922(3) 0.3365(4)
C1 C 0.8914(4) 0.7639(5) 0.4851(7)
H1 H 0.8846 0.6898 0.4307
C2 C 0.9827(4) 0.7922(5) 0.5784(8)
H2 H 1.0358 0.7380 0.5849
C3 C 0.9940(4) 0.8986(7) 0.6595(6)
H3 H 1.0546 0.9183 0.7227
C4 C 0.9136(3) 0.9781(6) 0.6468(5)
H4 H 0.9191 1.0515 0.7024
C5 C 0.8248(3) 0.9460(4) 0.5496(5)
C6 C 0.7400(3) 1.0318(4) 0.5312(4)
H5 H 0.7441 1.1026 0.5917
C7 C 0.5557(3) 1.1549(4) 0.5472(4)
H6 H 0.5894 1.1549 0.6498
C8 C 0.5147(3) 1.1158(4) 0.3019(4)
H7 H 0.5139 1.0833 0.2039
Ag1A Ag 0.33501(2) 1.28831(3) 0.17180(4)
Ag1B Ag 0.33501(2) 1.21169(3) 0.67180(4)
N4B N 0.5260(3) 0.7839(3) 0.5055(4)
N5A N 0.5510(3) 0.6922(3) 0.1635(4)
P1 P 0.73755(9) 1.06367(10) 0.00518(13)
F1 F 0.7276(3) 0.9749(3) -0.1404(4)
F2 F 0.7454(6) 1.1525(4) 0.1461(5)
F3 F 0.709(3) 1.175(2) -0.109(3)
F4 F 0.771(2) 0.953(2) 0.117(3)
F5 F 0.8502(7) 1.0764(10) -0.0085(14)
F6 F 0.6274(10) 1.0416(18) 0.017(3)
F7? F 0.673(7) 1.154(5) -0.103(8)
F8? F 0.801(5) 0.972(5) 0.119(8)
F9? F 0.8268(18) 1.135(3) -0.015(4)
F10? F 0.648(3) 0.991(4) 0.038(7)
loop_
_geom_bond_atom_site_label_1
_geom_bond_atom_site_label_2
_geom_bond_site_symmetry_1
_geom_bond_site_symmetry_2
Ag1 N1 1_555 1_555
N1 C1 1_555 1_555
N2 Ag1 1_555 1_555
N3 N2 1_555 1_555
N4 N5 1_555 1_555
N5 C8 1_555 1_555
C1 H1 1_555 1_555
C2 C1 1_555 1_555
H2 C2 1_555 1_555
C3 C2 1_555 1_555
H3 C3 1_555 1_555
C4 C3 1_555 1_555
H4 C4 1_555 1_555
C5 N1 1_555 1_555
C6 N2 1_555 1_555
H5 C6 1_555 1_555
C7 N3 1_555 1_555
H6 C7 1_555 1_555
C8 N3 1_555 1_555
H7 C8 1_555 1_555
P1 F1 1_555 1_555
F2 P1 1_555 1_555
F3 P1 1_555 1_555
F4 P1 1_555 1_555
F5 P1 1_555 1_555
F6 P1 1_555 1_555
Ag1A N5 1_555 1_555
Ag1B N4 1_555 1_555
N4B Ag1 1_555 1_555
N5A Ag1 1_555 1_555
N4 C7 1_555 1_555
C4 C5 1_555 1_555
C5 C6 1_555 1_555

#END
