
#######################################################################
#
#                 Cambridge Crystallographic Data Centre
#                                CCDC 
#
#######################################################################
#
# If this CIF has been generated from an entry in the Cambridge 
# Structural Database, then it will include bibliographic, chemical, 
# crystal, experimental, refinement or atomic coordinate data resulting 
# from the CCDC's data processing and validation procedures.
#
#######################################################################

data_SOYFUJ
_symmetry_cell_setting           orthorhombic
_symmetry_space_group_name_H-M   'F d d 2'
_symmetry_Int_Tables_number      43
_space_group_name_Hall           'F 2 -2d'
loop_
_symmetry_equiv_pos_site_id
_symmetry_equiv_pos_as_xyz
1 x,y,z
2 -x,-y,z
3 1/4+x,1/4-y,1/4+z
4 1/4-x,1/4+y,1/4+z
5 x,1/2+y,1/2+z
6 -x,1/2-y,1/2+z
7 1/4+x,3/4-y,3/4+z
8 1/4-x,3/4+y,3/4+z
9 1/2+x,y,1/2+z
10 1/2-x,-y,1/2+z
11 3/4+x,1/4-y,3/4+z
12 3/4-x,1/4+y,3/4+z
13 1/2+x,1/2+y,z
14 1/2-x,1/2-y,z
15 3/4+x,3/4-y,1/4+z
16 3/4-x,3/4+y,1/4+z
_cell_length_a                   24.7394(16)
_cell_length_b                   38.269(3)
_cell_length_c                   5.3487(4)
_cell_angle_alpha                90
_cell_angle_beta                 90
_cell_angle_gamma                90
_cell_volume                     5063.89
loop_
_atom_site_label
_atom_site_type_symbol
_atom_site_fract_x
_atom_site_fract_y
_atom_site_fract_z
Ag1 Ag -0.039910(9) 0.231449(5) 0.43953(6)
N1 N 0.00704(9) 0.19663(6) 0.6826(6)
N2 N 0.03696(10) 0.20900(7) 0.8832(5)
N3 N 0.04714(10) 0.15253(7) 0.8586(6)
N4 N 0.06315(12) 0.11744(7) 0.8809(6)
N5 N 0.15914(11) 0.03245(6) 1.3471(5)
C1 C 0.01405(12) 0.16259(7) 0.6717(7)
H1 H -0.0014 0.1478 0.5536
C2 C 0.06124(12) 0.18211(8) 0.9858(6)
H2 H 0.0843 0.1830 1.1229
C3 C 0.09493(13) 0.11041(8) 1.0580(7)
H3 H 0.1072 0.1278 1.1653
C4 C 0.11208(12) 0.07354(8) 1.0901(6)
C5 C 0.09498(13) 0.04736(8) 0.9331(8)
H4 H 0.0734 0.0523 0.7952
C6 C 0.11066(14) 0.01332(8) 0.9849(7)
H5 H 0.1001 -0.0049 0.8808
C7 C 0.14214(11) 0.00684(7) 1.1935(7)
H6 H 0.1519 -0.0161 1.2289
C8 C 0.14407(13) 0.06517(8) 1.2934(6)
H7 H 0.1556 0.0831 1.3976
Ag1B Ag 0.210090(9) 0.018551(5) 1.68953(6)
Ag1E Ag 0.039910(9) 0.268551(5) 0.93953(6)
N2E N -0.03696(10) 0.29100(7) 0.3832(5)
N5J N -0.09086(11) 0.21755(6) 0.0971(5)
O1 O 0.13480(11) 0.17266(7) 1.4465(7)
O2 O 0.19505(18) 0.13155(9) 1.5477(10)
F1 F 0.26099(11) 0.18063(10) 1.7014(9)
F2 F 0.1914(2) 0.21384(14) 1.7640(14)
F3 F 0.2271(3) 0.21245(17) 1.464(2)
C9 C 0.17677(14) 0.16105(10) 1.5408(7)
C10 C 0.21187(18) 0.18808(13) 1.6685(18)
F4? F 0.2045(3) 0.1795(3) 1.9482(15)
loop_
_geom_bond_atom_site_label_1
_geom_bond_atom_site_label_2
_geom_bond_site_symmetry_1
_geom_bond_site_symmetry_2
Ag1 N1 1_555 1_555
N1 N2 1_555 1_555
N2 C2 1_555 1_555
N3 N4 1_555 1_555
N4 C3 1_555 1_555
N5 C7 1_555 1_555
C1 N1 1_555 1_555
H1 C1 1_555 1_555
C2 N3 1_555 1_555
H2 C2 1_555 1_555
C3 H3 1_555 1_555
C4 C3 1_555 1_555
C5 C4 1_555 1_555
H4 C5 1_555 1_555
C6 C5 1_555 1_555
H5 C6 1_555 1_555
C7 C6 1_555 1_555
H6 C7 1_555 1_555
C8 N5 1_555 1_555
H7 C8 1_555 1_555
O1 C9 1_555 1_555
O2 C9 1_555 1_555
F1 C10 1_555 1_555
F2 C10 1_555 1_555
F3 C10 1_555 1_555
C9 C10 1_555 1_555
Ag1B N5 1_555 1_555
Ag1E N2 1_555 1_555
N2E Ag1 1_555 1_555
N5J Ag1 1_555 1_555
N3 C1 1_555 1_555
C4 C8 1_555 1_555

#END
