
#######################################################################
#
#                 Cambridge Crystallographic Data Centre
#                                CCDC 
#
#######################################################################
#
# If this CIF has been generated from an entry in the Cambridge 
# Structural Database, then it will include bibliographic, chemical, 
# crystal, experimental, refinement or atomic coordinate data resulting 
# from the CCDC's data processing and validation procedures.
#
#######################################################################

data_SOYFIW
_symmetry_cell_setting           triclinic
_symmetry_space_group_name_H-M   'P -1'
_symmetry_Int_Tables_number      2
_space_group_name_Hall           '-P 1'
loop_
_symmetry_equiv_pos_site_id
_symmetry_equiv_pos_as_xyz
1 x,y,z
2 -x,-y,-z
_cell_length_a                   8.8625(7)
_cell_length_b                   9.0647(4)
_cell_length_c                   9.1650(5)
_cell_angle_alpha                68.37(2)
_cell_angle_beta                 85.31(3)
_cell_angle_gamma                69.86(2)
_cell_volume                     641.722
loop_
_atom_site_label
_atom_site_type_symbol
_atom_site_fract_x
_atom_site_fract_y
_atom_site_fract_z
Cu1 Cu 0.15918(18) 0.49745(17) 0.38776(18)
F1 F 0.1209(13) 0.5501(13) 0.8822(11)
F2 F 0.1810(13) 0.2877(13) 0.9387(10)
F3 F 0.3594(12) 0.3946(14) 0.9367(11)
O1 O 0.1232(9) 0.4635(10) 0.6128(9)
O2 O 0.3786(11) 0.4395(13) 0.6381(13)
O3 O 0.1623(11) -0.0085(10) 0.2471(11)
N1 N 0.2365(13) 0.0755(11) 0.3006(12)
N2 N 0.1451(12) 0.1934(11) 0.3563(13)
N3 N 0.2406(12) 0.2713(11) 0.3733(12)
C1 C 0.2488(15) 0.4404(12) 0.6880(15)
C2 C 0.2252(15) 0.4189(17) 0.8614(17)
C3 C 0.3855(16) 0.0777(13) 0.2768(15)
C4 C 0.5224(17) -0.0118(17) 0.215(2)
H1 H 0.5221 -0.097 0.1819
C5 C 0.652(2) 0.033(2) 0.208(2)
H2 H 0.7423 -0.0192 0.1625
C6 C 0.6582(18) 0.1556(19) 0.264(2)
H3 H 0.7545 0.1759 0.262
C7 C 0.5291(16) 0.2444(16) 0.3223(17)
H4 H 0.5319 0.3274 0.3576
C8 C 0.3925(14) 0.2031(13) 0.3251(14)
C9 C 0.1921(16) -0.1818(13) 0.3596(15)
H5 H 0.3066 -0.2429 0.382
H6 H 0.1409 -0.1818 0.4573
C10 C 0.1195(18) -0.2571(15) 0.2780(17)
H7 H 0.0127 -0.25 0.2949
C11 C 0.2005(17) -0.3365(15) 0.1793(15)
H8 H 0.3074 -0.3455 0.1603
H9 H 0.1487 -0.3815 0.1313
Cu1A Cu -0.15918(18) 0.50255(17) 0.61224(18)
Cu1_2 Cu 0.15918(18) -0.50255(17) 0.38776(18)
O1A O -0.1232(9) 0.5365(10) 0.3872(9)
C10_2 C 0.1195(18) 0.7429(15) 0.2780(17)
H7_2 H 0.0127 0.75 0.2949
C11_2 C 0.2005(17) 0.6635(15) 0.1793(15)
H8_2 H 0.3074 0.6545 0.1603
H9_2 H 0.1487 0.6185 0.1313
loop_
_geom_bond_atom_site_label_1
_geom_bond_atom_site_label_2
_geom_bond_site_symmetry_1
_geom_bond_site_symmetry_2
Cu1 O1 1_555 1_555
F1 C2 1_555 1_555
F2 C2 1_555 1_555
F3 C2 1_555 1_555
O1 C1 1_555 1_555
O2 C1 1_555 1_555
O3 N1 1_555 1_555
N1 N2 1_555 1_555
N2 N3 1_555 1_555
N3 Cu1 1_555 1_555
C1 C2 1_555 1_555
C3 N1 1_555 1_555
C4 C3 1_555 1_555
H1 C4 1_555 1_555
C5 C4 1_555 1_555
H2 C5 1_555 1_555
C6 C5 1_555 1_555
H3 C6 1_555 1_555
C7 C6 1_555 1_555
H4 C7 1_555 1_555
C8 N3 1_555 1_555
C9 O3 1_555 1_555
H5 C9 1_555 1_555
H6 C9 1_555 1_555
C10 C9 1_555 1_555
H7 C10 1_555 1_555
C11 C10 1_555 1_555
H8 C11 1_555 1_555
H9 C11 1_555 1_555
Cu1A O1 1_555 1_555
Cu1_2 C10 1_555 1_555
O1A Cu1 1_555 1_555
C10_2 Cu1 1_555 1_555
H7_2 C10_2 1_555 1_555
C11_2 Cu1 1_555 1_555
H8_2 C11_2 1_555 1_555
H9_2 C11_2 1_555 1_555
C3 C8 1_555 1_555
C7 C8 1_555 1_555
C11 Cu1_2 1_555 1_555
Cu1A O1A 1_555 1_555
C10_2 C11_2 1_555 1_555

#END
