
#######################################################################
#
#                 Cambridge Crystallographic Data Centre
#                                CCDC 
#
#######################################################################
#
# If this CIF has been generated from an entry in the Cambridge 
# Structural Database, then it will include bibliographic, chemical, 
# crystal, experimental, refinement or atomic coordinate data resulting 
# from the CCDC's data processing and validation procedures.
#
#######################################################################

data_SOYFET
_symmetry_cell_setting           monoclinic
_symmetry_space_group_name_H-M   'C c'
_symmetry_Int_Tables_number      9
_space_group_name_Hall           'C -2yc'
loop_
_symmetry_equiv_pos_site_id
_symmetry_equiv_pos_as_xyz
1 x,y,z
2 x,-y,1/2+z
3 1/2+x,1/2+y,z
4 1/2+x,1/2-y,1/2+z
_cell_length_a                   8.8954(4)
_cell_length_b                   17.4073(8)
_cell_length_c                   7.7942(4)
_cell_angle_alpha                90
_cell_angle_beta                 101.257(2)
_cell_angle_gamma                90
_cell_volume                     1183.67
loop_
_atom_site_label
_atom_site_type_symbol
_atom_site_fract_x
_atom_site_fract_y
_atom_site_fract_z
Ag1 Ag -1.00014(3) -0.123978(8) -0.24936(3)
N1 N -0.9637(2) 0.00005(9) -0.2057(2)
N2 N -0.7533(2) -0.10125(10) -0.0188(3)
N3 N -0.6437(2) -0.15041(9) 0.0747(2)
N4 N -0.5446(2) -0.25947(10) 0.1692(3)
N5 N -0.4462(2) -0.20179(11) 0.2469(3)
C1 C -1.0645(3) 0.05209(13) -0.2856(3)
H1 H -1.1540 0.0349 -0.3579
C2 C -1.0407(3) 0.13093(12) -0.2647(4)
H2 H -1.1126 0.1655 -0.3231
C3 C -0.9095(3) 0.15694(12) -0.1566(3)
H3 H -0.8914 0.2093 -0.1401
C4 C -0.8044(3) 0.10327(12) -0.0724(3)
H4 H -0.7146 0.1193 0.0010
C5 C -0.8352(2) 0.02595(10) -0.0995(3)
C6 C -0.7247(2) -0.03020(12) -0.0072(3)
H5 H -0.6329 -0.0132 0.0603
C7 C -0.66167(19) -0.22744(9) 0.0674(2)
H6 H -0.7441 -0.2534 0.0006
C8 C -0.50828(19) -0.13692(9) 0.1874(2)
H7 H -0.4666 -0.0886 0.2173
Ag1C Ag -0.50014(3) -0.376022(8) 0.25064(3)
N4C N -1.0446(2) -0.24053(10) -0.3308(3)
Cl1 Cl -0.39164(7) -0.11138(3) -0.24757(8)
O1 O -0.2738(3) -0.14257(18) -0.1173(3)
O2 O -0.3306(4) -0.09305(19) -0.3984(4)
O3 O -0.5094(3) -0.16784(15) -0.2890(4)
O4 O -0.4542(4) -0.04399(15) -0.1861(5)
loop_
_geom_bond_atom_site_label_1
_geom_bond_atom_site_label_2
_geom_bond_site_symmetry_1
_geom_bond_site_symmetry_2
Ag1 N1 1_555 1_555
N1 C1 1_555 1_555
N2 Ag1 1_555 1_555
N3 N2 1_555 1_555
N4 N5 1_555 1_555
N5 C8 1_555 1_555
C1 H1 1_555 1_555
C2 C1 1_555 1_555
H2 C2 1_555 1_555
C3 C2 1_555 1_555
H3 C3 1_555 1_555
C4 C3 1_555 1_555
H4 C4 1_555 1_555
C5 N1 1_555 1_555
C6 N2 1_555 1_555
H5 C6 1_555 1_555
C7 N3 1_555 1_555
H6 C7 1_555 1_555
C8 N3 1_555 1_555
H7 C8 1_555 1_555
Cl1 O1 1_555 1_555
O2 Cl1 1_555 1_555
O3 Cl1 1_555 1_555
O4 Cl1 1_555 1_555
Ag1C N4 1_555 1_555
N4C Ag1 1_555 1_555
N4 C7 1_555 1_555
C4 C5 1_555 1_555
C5 C6 1_555 1_555

#END
