
#######################################################################
#
#                 Cambridge Crystallographic Data Centre
#                                CCDC 
#
#######################################################################
#
# If this CIF has been generated from an entry in the Cambridge 
# Structural Database, then it will include bibliographic, chemical, 
# crystal, experimental, refinement or atomic coordinate data resulting 
# from the CCDC's data processing and validation procedures.
#
#######################################################################

data_SOYFOD
_symmetry_cell_setting           monoclinic
_symmetry_space_group_name_H-M   'P 21/n'
_symmetry_Int_Tables_number      14
_space_group_name_Hall           '-P 2yn'
loop_
_symmetry_equiv_pos_site_id
_symmetry_equiv_pos_as_xyz
1 x,y,z
2 1/2-x,1/2+y,1/2-z
3 -x,-y,-z
4 1/2+x,1/2-y,1/2+z
_cell_length_a                   12.1048(4)
_cell_length_b                   17.7123(5)
_cell_length_c                   16.8743(5)
_cell_angle_alpha                90
_cell_angle_beta                 103.073(3)
_cell_angle_gamma                90
_cell_volume                     3524.15
loop_
_atom_site_label
_atom_site_type_symbol
_atom_site_fract_x
_atom_site_fract_y
_atom_site_fract_z
Ag1 Ag -0.89610(3) 0.45881(2) -0.41619(2)
C1 C -1.3485(4) -0.0050(3) -0.7254(3)
H1 H -1.3769 -0.0529 -0.7460
C2 C -1.2994(4) 0.0004(3) -0.6439(3)
H2 H -1.2940 -0.0424 -0.6093
C3 C -1.2579(4) 0.0700(3) -0.6136(3)
H3 H -1.2228 0.0756 -0.5575
C4 C -1.2679(4) 0.1314(3) -0.6654(3)
C5 C -1.3201(4) 0.1196(3) -0.7468(3)
H4 H -1.3286 0.1617 -0.7826
C6 C -1.2244(4) 0.2059(3) -0.6421(3)
H5 H -1.2354 0.2453 -0.6814
C7 C -1.0385(4) 0.3098(3) -0.4957(3)
H6 H -0.9969 0.2748 -0.4577
C8 C -1.1647(4) 0.3586(3) -0.5944(3)
H7 H -1.2280 0.3641 -0.6391
C9 C -0.6135(4) 0.4381(3) -0.4211(3)
C10 C -0.4892(4) 0.4296(3) -0.4067(3)
H8 H -0.4588 0.4143 -0.3501
H9 H -0.4554 0.4778 -0.4170
H10 H -0.4710 0.3910 -0.4433
N1 N -1.3589(3) 0.0527(2) -0.7778(2)
N2 N -1.1714(3) 0.2193(2) -0.5696(2)
N3 N -1.1294(3) 0.2925(2) -0.5553(2)
N4 N -1.0159(3) 0.3817(2) -0.4980(2)
N5 N -1.0975(3) 0.4134(2) -0.5606(2)
N6 N -0.7077(4) 0.4450(2) -0.4336(3)
Ag1B Ag -1.10390(3) 0.54119(2) -0.58381(2)
Ag1C Ag -1.39610(3) 0.04119(2) -0.91619(2)
N1C N -0.8589(3) 0.4473(2) -0.2778(2)
N5B N -0.9025(3) 0.5866(2) -0.4394(2)
Ag2 Ag -0.90575(3) 0.541044(19) 0.08913(2)
C11 C -1.3621(4) 1.0022(2) -0.2177(3)
H11 H -1.3848 1.0514 -0.2374
C12 C -1.3242(4) 0.9917(3) -0.1352(3)
H12 H -1.3225 1.0328 -0.0988
C13 C -1.2887(3) 0.9211(2) -0.1057(3)
H13 H -1.2607 0.9130 -0.0491
C14 C -1.2947(3) 0.8623(2) -0.1604(2)
C15 C -1.3353(4) 0.8771(2) -0.2429(3)
H14 H -1.3398 0.8366 -0.2804
C16 C -1.2533(4) 0.7859(2) -0.1371(3)
H15 H -1.2659 0.7464 -0.1763
C17 C -1.0730(4) 0.6815(2) 0.0120(2)
H16 H -1.0348 0.7168 0.0511
C18 C -1.1902(4) 0.6323(2) -0.0905(3)
H17 H -1.2497 0.6268 -0.1377
C19 C -0.7600(6) 0.7002(4) 0.0560(5)
C20 C -0.7348(6) 0.7771(4) 0.0430(5)
H18 H -0.6693 0.7932 0.0851
H19 H -0.8005 0.8086 0.0456
H20 H -0.7174 0.7825 -0.0107
N7 N -1.3683(3) 0.9456(2) -0.2715(2)
N8 N -1.2007(3) 0.77236(19) -0.0644(2)
N9 N -1.1592(3) 0.69831(19) -0.0506(2)
N10 N -1.0489(3) 0.6094(2) 0.0113(2)
N11 N -1.1256(3) 0.57752(19) -0.0540(2)
N12 N -0.7789(5) 0.6391(3) 0.0680(3)
Ag2B Ag -1.09425(3) 0.458956(19) -0.08913(2)
Ag2C Ag -1.40575(3) 0.958956(19) -0.41087(2)
N7C N -0.8683(3) 0.5544(2) 0.2285(2)
N11B N -0.8744(3) 0.42248(19) 0.0540(2)
P1 P -0.52450(12) 0.35312(8) 0.30781(9)
F1 F -0.6092(5) 0.2909(3) 0.3271(4)
F2 F -0.5515(5) 0.3268(3) 0.2128(3)
F3 F -0.4272(5) 0.4068(3) 0.2917(3)
F4 F -0.5085(5) 0.3798(3) 0.3964(3)
F5 F -0.6137(5) 0.4191(3) 0.2811(3)
F6 F -0.4307(5) 0.2886(3) 0.3337(3)
P2 P -0.47495(17) 0.76505(10) 0.28402(13)
F13 F -0.3978(11) 0.6923(9) 0.2793(10)
F14 F -0.4594(16) 0.7511(9) 0.3713(11)
F15 F -0.5710(9) 0.8250(5) 0.2763(7)
F16 F -0.4946(9) 0.7663(8) 0.1808(7)
F17 F -0.5861(5) 0.7002(4) 0.2596(4)
F18 F -0.3800(11) 0.8169(5) 0.2962(11)
F7? F -0.649(3) 0.3231(18) 0.3041(19)
F8? F -0.635(2) 0.3787(15) 0.2522(15)
F9? F -0.427(2) 0.3136(14) 0.2747(15)
F10? F -0.429(2) 0.3560(14) 0.4027(14)
F11? F -0.464(2) 0.4348(15) 0.3033(16)
F12? F -0.491(2) 0.2628(15) 0.3119(15)
F19? F -0.438(3) 0.6958(13) 0.2603(19)
F20? F -0.4729(17) 0.7388(12) 0.3820(14)
F21? F -0.4791(14) 0.8552(6) 0.3295(8)
F22? F -0.4737(16) 0.8121(9) 0.2074(10)
F23? F -0.5880(10) 0.7590(13) 0.2777(8)
F24? F -0.3306(14) 0.7925(11) 0.3061(11)
loop_
_geom_bond_atom_site_label_1
_geom_bond_atom_site_label_2
_geom_bond_site_symmetry_1
_geom_bond_site_symmetry_2
Ag1 N4 1_555 1_555
C1 H1 1_555 1_555
C2 C1 1_555 1_555
H2 C2 1_555 1_555
C3 C2 1_555 1_555
H3 C3 1_555 1_555
C4 C3 1_555 1_555
C5 C4 1_555 1_555
H4 C5 1_555 1_555
C6 C4 1_555 1_555
H5 C6 1_555 1_555
C7 H6 1_555 1_555
C8 H7 1_555 1_555
C9 C10 1_555 1_555
C10 H8 1_555 1_555
H9 C10 1_555 1_555
H10 C10 1_555 1_555
N1 C1 1_555 1_555
N2 C6 1_555 1_555
N3 C7 1_555 1_555
N4 C7 1_555 1_555
N5 C8 1_555 1_555
N6 Ag1 1_555 1_555
Ag2 N10 1_555 1_555
C11 H11 1_555 1_555
C12 C11 1_555 1_555
H12 C12 1_555 1_555
C13 C12 1_555 1_555
H13 C13 1_555 1_555
C14 C13 1_555 1_555
C15 C14 1_555 1_555
H14 C15 1_555 1_555
C16 C14 1_555 1_555
H15 C16 1_555 1_555
C17 H16 1_555 1_555
C18 H17 1_555 1_555
C19 C20 1_555 1_555
C20 H18 1_555 1_555
H19 C20 1_555 1_555
H20 C20 1_555 1_555
N7 C11 1_555 1_555
N8 C16 1_555 1_555
N9 C17 1_555 1_555
N10 C17 1_555 1_555
N11 C18 1_555 1_555
N12 Ag2 1_555 1_555
P1 F1 1_555 1_555
F2 P1 1_555 1_555
F3 P1 1_555 1_555
F4 P1 1_555 1_555
F5 P1 1_555 1_555
F6 P1 1_555 1_555
P2 F13 1_555 1_555
F14 P2 1_555 1_555
F15 P2 1_555 1_555
F16 P2 1_555 1_555
F17 P2 1_555 1_555
F18 P2 1_555 1_555
Ag1B N5 1_555 1_555
Ag1C N1 1_555 1_555
N1C Ag1 1_555 1_555
N5B Ag1 1_555 1_555
Ag2B N11 1_555 1_555
Ag2C N7 1_555 1_555
N7C Ag2 1_555 1_555
N11B Ag2 1_555 1_555
C5 N1 1_555 1_555
C8 N3 1_555 1_555
C9 N6 1_555 1_555
N2 N3 1_555 1_555
N4 N5 1_555 1_555
C15 N7 1_555 1_555
C18 N9 1_555 1_555
C19 N12 1_555 1_555
N8 N9 1_555 1_555
N10 N11 1_555 1_555

#END
