
#######################################################################
#
#                 Cambridge Crystallographic Data Centre
#                                CCDC 
#
#######################################################################
#
# If this CIF has been generated from an entry in the Cambridge 
# Structural Database, then it will include bibliographic, chemical, 
# crystal, experimental, refinement or atomic coordinate data resulting 
# from the CCDC's data processing and validation procedures.
#
#######################################################################

data_SOYFAP
_symmetry_cell_setting           monoclinic
_symmetry_space_group_name_H-M   'C c'
_symmetry_Int_Tables_number      9
_space_group_name_Hall           'C -2yc'
loop_
_symmetry_equiv_pos_site_id
_symmetry_equiv_pos_as_xyz
1 x,y,z
2 x,-y,1/2+z
3 1/2+x,1/2+y,z
4 1/2+x,1/2-y,1/2+z
_cell_length_a                   8.8601(7)
_cell_length_b                   17.1824(13)
_cell_length_c                   7.7421(6)
_cell_angle_alpha                90
_cell_angle_beta                 101.594(2)
_cell_angle_gamma                90
_cell_volume                     1154.59
loop_
_atom_site_label
_atom_site_type_symbol
_atom_site_fract_x
_atom_site_fract_y
_atom_site_fract_z
Ag1 Ag 0.18709(4) 0.377613(7) -0.55891(4)
C1 C 0.1220(3) 0.55514(12) -0.5995(3)
H1 H 0.0322 0.5374 -0.6726
C2 C 0.1454(3) 0.63538(13) -0.5801(4)
H2 H 0.0732 0.6701 -0.6406
C3 C 0.2759(3) 0.66201(11) -0.4709(3)
H3 H 0.2931 0.7151 -0.4546
C4 C 0.3830(3) 0.60827(11) -0.3842(3)
H4 H 0.4733 0.6250 -0.3104
C5 C 0.3523(2) 0.52973(10) -0.4100(3)
C6 C 0.4641(2) 0.47330(11) -0.3173(3)
H5 H 0.5567 0.4908 -0.2494
C7 C 0.5247(2) 0.27352(10) -0.2404(3)
H6 H 0.4413 0.2475 -0.3081
C8 C 0.6813(3) 0.36398(12) -0.1197(4)
H7 H 0.7243 0.4127 -0.0896
N1 N 0.22295(19) 0.50279(9) -0.5178(2)
N2 N 0.43581(19) 0.40116(9) -0.3286(2)
N3 N 0.54495(19) 0.35112(8) -0.2344(2)
N4 N 0.6411(2) 0.24065(9) -0.1357(3)
N5 N 0.7422(2) 0.29809(10) -0.0586(3)
Ag1C Ag 0.68709(4) 0.122387(7) -0.05891(4)
N4C N 0.1411(2) 0.25935(9) -0.6357(3)
B1 B -0.2066(3) 0.60885(16) -0.0554(4)
F1 F -0.2682(4) 0.54352(15) 0.0017(4)
F2 F -0.1473(4) 0.5914(2) -0.2005(4)
F3 F -0.3223(3) 0.66284(15) -0.0998(4)
F4 F -0.0957(3) 0.64073(15) 0.0718(3)
loop_
_geom_bond_atom_site_label_1
_geom_bond_atom_site_label_2
_geom_bond_site_symmetry_1
_geom_bond_site_symmetry_2
Ag1 N1 1_555 1_555
C1 H1 1_555 1_555
C2 C1 1_555 1_555
H2 C2 1_555 1_555
C3 C2 1_555 1_555
H3 C3 1_555 1_555
C4 C3 1_555 1_555
H4 C4 1_555 1_555
C5 C4 1_555 1_555
C6 C5 1_555 1_555
H5 C6 1_555 1_555
C7 H6 1_555 1_555
C8 H7 1_555 1_555
N1 C1 1_555 1_555
N2 Ag1 1_555 1_555
N3 C7 1_555 1_555
N4 C7 1_555 1_555
N5 C8 1_555 1_555
B1 F1 1_555 1_555
F2 B1 1_555 1_555
F3 B1 1_555 1_555
F4 B1 1_555 1_555
Ag1C N4 1_555 1_555
N4C Ag1 1_555 1_555
C5 N1 1_555 1_555
C6 N2 1_555 1_555
C8 N3 1_555 1_555
N2 N3 1_555 1_555
N4 N5 1_555 1_555

#END
