
#######################################################################
#
#                 Cambridge Crystallographic Data Centre
#                                CCDC 
#
#######################################################################
#
# If this CIF has been generated from an entry in the Cambridge 
# Structural Database, then it will include bibliographic, chemical, 
# crystal, experimental, refinement or atomic coordinate data resulting 
# from the CCDC's data processing and validation procedures.
#
#######################################################################

data_SOYFES
_symmetry_cell_setting           monoclinic
_symmetry_space_group_name_H-M   'P 21/n'
_symmetry_Int_Tables_number      14
_space_group_name_Hall           '-P 2yn'
loop_
_symmetry_equiv_pos_site_id
_symmetry_equiv_pos_as_xyz
1 x,y,z
2 1/2-x,1/2+y,1/2-z
3 -x,-y,-z
4 1/2+x,1/2-y,1/2+z
_cell_length_a                   10.306(7)
_cell_length_b                   13.249(9)
_cell_length_c                   16.600(11)
_cell_angle_alpha                90
_cell_angle_beta                 98.929(7)
_cell_angle_gamma                90
_cell_volume                     2239.17
loop_
_atom_site_label
_atom_site_type_symbol
_atom_site_fract_x
_atom_site_fract_y
_atom_site_fract_z
Cu1 Cu 0.04369(13) 0.21954(11) 0.19495(9)
O1 O -0.4637(7) 0.1477(5) 0.1727(5)
O2 O 0.3197(7) 0.5226(5) 0.1034(5)
O3 O 0.0202(7) 0.1621(5) 0.0729(4)
H1 H -0.057 0.1911 0.0348
H2 H 0.0013 0.0922 0.0741
N1 N -0.3467(9) 0.1965(7) 0.2006(6)
N2 N -0.2330(9) 0.1667(6) 0.1785(5)
N3 N -0.1405(7) 0.2224(7) 0.2197(5)
N4 N 0.2021(8) 0.4851(6) 0.1213(5)
N5 N 0.1988(8) 0.3909(6) 0.1503(5)
N6 N 0.0760(8) 0.3681(6) 0.1567(5)
C1 C -0.3326(7) 0.2701(5) 0.2566(4)
C2 C -0.4144(6) 0.3262(6) 0.2988(5)
H3 H -0.5045 0.3153 0.2895
C3 C -0.3610(8) 0.3985(5) 0.3552(5)
H4 H -0.4156 0.4359 0.3834
C4 C -0.2259(9) 0.4148(5) 0.3693(5)
H5 H -0.1903 0.4631 0.4069
C5 C -0.1440(7) 0.3588(6) 0.3270(5)
H6 H -0.0539 0.3696 0.3364
C6 C -0.1974(7) 0.2864(6) 0.2706(5)
C7 C -0.5020(12) 0.1696(9) 0.0840(7)
H7 H -0.4323 0.1486 0.0547
H8 H -0.5805 0.1319 0.0628
C8 C -0.5266(12) 0.2770(12) 0.0715(8)
H9 H -0.5952 0.3055 0.094
C9 C -0.4582(16) 0.3364(12) 0.0304(9)
H10 H -0.3889 0.3103 0.0072
H11 H -0.479 0.4043 0.0247
C10 C 0.0813(6) 0.5247(6) 0.1061(4)
C11 C 0.0292(8) 0.6159(5) 0.0751(4)
H12 H 0.0845 0.6657 0.0604
C12 C -0.1055(8) 0.6326(6) 0.0661(5)
H13 H -0.1403 0.6935 0.0453
C13 C -0.1881(7) 0.5580(6) 0.0881(5)
H14 H -0.2781 0.5692 0.0821
C14 C -0.1360(7) 0.4668(6) 0.1192(5)
H15 H -0.1912 0.417 0.1339
C15 C -0.0013(7) 0.4501(5) 0.1282(4)
C16 C 0.3989(13) 0.5652(9) 0.1791(8)
H16 H 0.4025 0.5169 0.2232
H17 H 0.488 0.5777 0.1696
C17 C 0.3401(11) 0.6606(9) 0.2028(8)
H18 H 0.3516 0.7188 0.1737
C18 C 0.2677(11) 0.6658(12) 0.2676(8)
H19 H 0.2552 0.6083 0.2973
H20 H 0.2321 0.7269 0.2808
Cu1A Cu 0.45631(13) 0.71954(11) 0.30505(9)
C17A C 0.1599(11) 0.1606(9) 0.2972(8)
H18A H 0.1484 0.2188 0.3263
C18A C 0.2323(11) 0.1658(12) 0.2324(8)
H19A H 0.2448 0.1083 0.2027
H20A H 0.2679 0.2269 0.2192
F1 F 0.2830(7) 0.3303(5) 0.4609(4)
F2 F 0.2808(10) 0.4078(7) 0.3390(5)
F3 F 0.3467(8) 0.4913(5) 0.4561(4)
F4 F 0.1374(8) 0.4486(6) 0.4224(6)
B1 B 0.2641(15) 0.4201(10) 0.4184(10)
loop_
_geom_bond_atom_site_label_1
_geom_bond_atom_site_label_2
_geom_bond_site_symmetry_1
_geom_bond_site_symmetry_2
Cu1 O3 1_555 1_555
F1 B1 1_555 1_555
F2 B1 1_555 1_555
F3 B1 1_555 1_555
F4 B1 1_555 1_555
O1 N1 1_555 1_555
O2 N4 1_555 1_555
O3 H1 1_555 1_555
H2 O3 1_555 1_555
N1 N2 1_555 1_555
N2 N3 1_555 1_555
N3 Cu1 1_555 1_555
N4 N5 1_555 1_555
N5 N6 1_555 1_555
N6 Cu1 1_555 1_555
C1 N1 1_555 1_555
C2 C1 1_555 1_555
H3 C2 1_555 1_555
C3 C2 1_555 1_555
H4 C3 1_555 1_555
C4 C3 1_555 1_555
H5 C4 1_555 1_555
C5 C4 1_555 1_555
H6 C5 1_555 1_555
C6 N3 1_555 1_555
C7 O1 1_555 1_555
H7 C7 1_555 1_555
H8 C7 1_555 1_555
C8 C7 1_555 1_555
H9 C8 1_555 1_555
C9 C8 1_555 1_555
H10 C9 1_555 1_555
H11 C9 1_555 1_555
C10 N4 1_555 1_555
C11 C10 1_555 1_555
H12 C11 1_555 1_555
C12 C11 1_555 1_555
H13 C12 1_555 1_555
C13 C12 1_555 1_555
H14 C13 1_555 1_555
C14 C13 1_555 1_555
H15 C14 1_555 1_555
C15 N6 1_555 1_555
C16 O2 1_555 1_555
H16 C16 1_555 1_555
H17 C16 1_555 1_555
C17 C16 1_555 1_555
H18 C17 1_555 1_555
C18 C17 1_555 1_555
H19 C18 1_555 1_555
H20 C18 1_555 1_555
Cu1A C17 1_555 1_555
C17A Cu1 1_555 1_555
H18A C17A 1_555 1_555
C18A Cu1 1_555 1_555
H19A C18A 1_555 1_555
H20A C18A 1_555 1_555
C1 C6 1_555 1_555
C5 C6 1_555 1_555
C10 C15 1_555 1_555
C14 C15 1_555 1_555
C18 Cu1A 1_555 1_555
C17A C18A 1_555 1_555

#END
