
#######################################################################
#
#                 Cambridge Crystallographic Data Centre
#                                CCDC 
#
#######################################################################
#
# If this CIF has been generated from an entry in the Cambridge 
# Structural Database, then it will include bibliographic, chemical, 
# crystal, experimental, refinement or atomic coordinate data resulting 
# from the CCDC's data processing and validation procedures.
#
#######################################################################

data_SOYHEV
_symmetry_cell_setting           orthorhombic
_symmetry_space_group_name_H-M   'P b c a'
_symmetry_Int_Tables_number      61
_space_group_name_Hall           '-P 2ac 2ab'
loop_
_symmetry_equiv_pos_site_id
_symmetry_equiv_pos_as_xyz
1 x,y,z
2 1/2-x,-y,1/2+z
3 1/2+x,1/2-y,-z
4 -x,1/2+y,1/2-z
5 -x,-y,-z
6 1/2+x,y,1/2-z
7 1/2-x,1/2+y,z
8 x,1/2-y,1/2+z
_cell_length_a                   7.9060(13)
_cell_length_b                   16.145(3)
_cell_length_c                   18.118(3)
_cell_angle_alpha                90
_cell_angle_beta                 90
_cell_angle_gamma                90
_cell_volume                     2312.62
loop_
_atom_site_label
_atom_site_type_symbol
_atom_site_fract_x
_atom_site_fract_y
_atom_site_fract_z
Cu1 Cu 0.67090(4) 0.23366(2) 0.048210(17)
O1 O 0.7758(2) 0.14784(11) -0.01475(10)
O2 O 0.5407(2) 0.31660(11) 0.09530(9)
H1 H 0.4829 0.3501 0.0725
O3 O 0.8990(2) 0.33497(12) -0.00921(11)
O4 O 0.6470(2) 0.30101(12) -0.04507(9)
N1 N 0.7831(3) 0.34191(14) -0.05570(12)
N2 N 0.7252(3) 0.17643(13) 0.13950(12)
O5 O 0.7946(3) 0.38567(14) -0.11087(12)
C1 C 0.5974(4) 0.27882(16) 0.22083(15)
C2 C 0.6843(3) 0.20338(18) 0.20342(15)
H2 H 0.7144 0.1702 0.2432
C3 C 0.5792(4) 0.2997(2) 0.29636(15)
H3 H 0.6196 0.2634 0.3321
C4 C 0.8180(4) 0.09702(17) 0.13464(16)
H4 H 0.8189 0.0704 0.1826
H5 H 0.9342 0.1075 0.1203
C5 C 0.5325(3) 0.33317(16) 0.16706(14)
C6 C 0.7358(4) 0.04042(17) 0.07899(17)
H6 H 0.6139 0.0446 0.0839
H7 H 0.7676 -0.0163 0.0898
C7 C 0.4574(4) 0.40721(17) 0.19068(15)
H8 H 0.4160 0.4445 0.1559
C8 C 0.7850(4) 0.06039(18) -0.00028(18)
H9 H 0.8994 0.0411 -0.0094
H10 H 0.7100 0.0313 -0.0338
C9 C 0.5039(4) 0.3716(2) 0.31780(16)
H11 H 0.4929 0.3843 0.3676
C10 C 0.4441(4) 0.4255(2) 0.26479(17)
H12 H 0.3940 0.4750 0.2793
Cu1B Cu 1.17090(4) 0.26634(2) -0.048210(17)
O3B O 0.3990(2) 0.16503(12) 0.00921(11)
loop_
_geom_bond_atom_site_label_1
_geom_bond_atom_site_label_2
_geom_bond_site_symmetry_1
_geom_bond_site_symmetry_2
Cu1 O1 1_555 1_555
O1 C8 1_555 1_555
O2 Cu1 1_555 1_555
H1 O2 1_555 1_555
O3 Cu1 1_555 1_555
O4 Cu1 1_555 1_555
N1 O3 1_555 1_555
N2 Cu1 1_555 1_555
O5 N1 1_555 1_555
C1 C2 1_555 1_555
C2 N2 1_555 1_555
H2 C2 1_555 1_555
C3 C1 1_555 1_555
H3 C3 1_555 1_555
C4 N2 1_555 1_555
H4 C4 1_555 1_555
H5 C4 1_555 1_555
C5 O2 1_555 1_555
C6 C4 1_555 1_555
H6 C6 1_555 1_555
H7 C6 1_555 1_555
C7 C5 1_555 1_555
H8 C7 1_555 1_555
C8 C6 1_555 1_555
H9 C8 1_555 1_555
H10 C8 1_555 1_555
C9 C3 1_555 1_555
H11 C9 1_555 1_555
C10 C7 1_555 1_555
H12 C10 1_555 1_555
Cu1B O3 1_555 1_555
O3B Cu1 1_555 1_555
O4 N1 1_555 1_555
C1 C5 1_555 1_555
C9 C10 1_555 1_555

#END
