
#######################################################################
#
#                 Cambridge Crystallographic Data Centre
#                                CCDC 
#
#######################################################################
#
# If this CIF has been generated from an entry in the Cambridge 
# Structural Database, then it will include bibliographic, chemical, 
# crystal, experimental, refinement or atomic coordinate data resulting 
# from the CCDC's data processing and validation procedures.
#
#######################################################################

data_SOYNAX
_symmetry_cell_setting           monoclinic
_symmetry_space_group_name_H-M   'C 2/c'
_symmetry_Int_Tables_number      15
_space_group_name_Hall           '-C 2yn'
loop_
_symmetry_equiv_pos_site_id
_symmetry_equiv_pos_as_xyz
1 x,y,z
2 -x,y,1/2-z
3 1/2+x,1/2+y,z
4 1/2-x,1/2+y,1/2-z
5 -x,-y,-z
6 x,-y,1/2+z
7 1/2-x,1/2-y,-z
8 1/2+x,1/2-y,1/2+z
_cell_length_a                   17.2012(16)
_cell_length_b                   10.3001(9)
_cell_length_c                   9.2936(7)
_cell_angle_alpha                90
_cell_angle_beta                 95.919(2)
_cell_angle_gamma                90
_cell_volume                     1637.81
loop_
_atom_site_label
_atom_site_type_symbol
_atom_site_fract_x
_atom_site_fract_y
_atom_site_fract_z
Mg1 Mg 0.0000 0.05456(7) 0.2500
N1 N -0.05818(7) 0.23438(13) 0.13896(13)
C1 C -0.03218(9) 0.35152(15) 0.19302(16)
C2 C -0.11728(10) 0.23515(17) 0.03457(17)
H1 H -0.1347 0.1545 -0.0066
C3 C -0.15516(10) 0.34904(18) -0.01793(19)
H2 H -0.1984 0.3444 -0.0900
C4 C -0.12907(10) 0.46677(18) 0.03583(19)
H3 H -0.1541 0.5447 0.0015
C5 C -0.06480(10) 0.47114(17) 0.14253(18)
C6 C -0.03136(11) 0.59087(17) 0.1996(2)
H4 H -0.0536 0.6711 0.1660
O1 O 0.08195(6) 0.06960(11) 0.10685(11)
C7 C 0.18104(8) 0.17652(14) -0.00551(15)
C8 C 0.21681(9) 0.19938(16) -0.13109(16)
H5 H 0.1946 0.1648 -0.2208
C9 C 0.10551(8) 0.09925(15) -0.01168(15)
C10 C 0.21485(9) 0.22706(16) 0.12539(16)
H6 H 0.1911 0.2113 0.2116
O2 O 0.07357(6) 0.07043(11) -0.13532(11)
N1A N 0.05818(7) 0.23438(13) 0.36104(13)
C1A C 0.03218(9) 0.35152(15) 0.30698(16)
C2A C 0.11728(10) 0.23515(17) 0.46543(17)
H1A H 0.1347 0.1545 0.5066
C3A C 0.15516(10) 0.34904(18) 0.51793(19)
H2A H 0.1984 0.3444 0.5900
C4A C 0.12907(10) 0.46677(18) 0.46417(19)
H3A H 0.1541 0.5447 0.4985
C5A C 0.06480(10) 0.47114(17) 0.35747(18)
C6A C 0.03136(11) 0.59087(17) 0.3004(2)
H4A H 0.0536 0.6711 0.3340
O1F O 0.41805(6) 0.43040(11) -0.10685(11)
C7F C 0.31896(8) 0.32348(14) 0.00551(15)
C8F C 0.28319(9) 0.30062(16) 0.13109(16)
H5F H 0.3054 0.3352 0.2208
C9F C 0.39449(8) 0.40075(15) 0.01168(15)
C10F C 0.28515(9) 0.27294(16) -0.12539(16)
H6F H 0.3089 0.2887 -0.2116
O2F O 0.42643(6) 0.42957(11) 0.13532(11)
Mg1B Mg 0.5000 0.55456(7) 0.2500
Mg1D Mg 0.0000 -0.05456(7) -0.2500
Mg1F Mg 0.5000 0.44544(7) -0.2500
O1A O -0.08195(6) 0.06960(11) 0.39315(11)
O2D O -0.07357(6) -0.07043(11) 0.13532(11)
O2E O 0.07357(6) -0.07043(11) 0.36468(11)
loop_
_geom_bond_atom_site_label_1
_geom_bond_atom_site_label_2
_geom_bond_site_symmetry_1
_geom_bond_site_symmetry_2
Mg1 N1 1_555 1_555
N1 C1 1_555 1_555
C1 C5 1_555 1_555
C2 N1 1_555 1_555
H1 C2 1_555 1_555
C3 C2 1_555 1_555
H2 C3 1_555 1_555
C4 C3 1_555 1_555
H3 C4 1_555 1_555
C5 C4 1_555 1_555
C6 C5 1_555 1_555
H4 C6 1_555 1_555
O1 Mg1 1_555 1_555
C7 C8 1_555 1_555
C8 H5 1_555 1_555
C9 O1 1_555 1_555
C10 C7 1_555 1_555
H6 C10 1_555 1_555
O2 C9 1_555 1_555
N1A Mg1 1_555 1_555
C1A C1 1_555 1_555
C2A N1A 1_555 1_555
H1A C2A 1_555 1_555
C3A C2A 1_555 1_555
H2A C3A 1_555 1_555
C4A C3A 1_555 1_555
H3A C4A 1_555 1_555
C5A C1A 1_555 1_555
C6A C6 1_555 1_555
H4A C6A 1_555 1_555
O1F C9F 1_555 1_555
C7F C8F 1_555 1_555
C8F C10 1_555 1_555
H5F C8F 1_555 1_555
C9F C7F 1_555 1_555
C10F C8 1_555 1_555
H6F C10F 1_555 1_555
O2F C9F 1_555 1_555
Mg1B O2F 1_555 1_555
Mg1D O2 1_555 1_555
Mg1F O1F 1_555 1_555
O1A Mg1 1_555 1_555
O2D Mg1 1_555 1_555
O2E Mg1 1_555 1_555
C7 C9 1_555 1_555
N1A C1A 1_555 1_555
C4A C5A 1_555 1_555
C5A C6A 1_555 1_555
C7F C10F 1_555 1_555

#END
