
#######################################################################
#
#                 Cambridge Crystallographic Data Centre
#                                CCDC 
#
#######################################################################
#
# If this CIF has been generated from an entry in the Cambridge 
# Structural Database, then it will include bibliographic, chemical, 
# crystal, experimental, refinement or atomic coordinate data resulting 
# from the CCDC's data processing and validation procedures.
#
#######################################################################

data_SOYTEH
_symmetry_cell_setting           monoclinic
_symmetry_space_group_name_H-M   'C 2/c'
_symmetry_Int_Tables_number      15
_space_group_name_Hall           '-C 2yn'
loop_
_symmetry_equiv_pos_site_id
_symmetry_equiv_pos_as_xyz
1 x,y,z
2 -x,y,1/2-z
3 1/2+x,1/2+y,z
4 1/2-x,1/2+y,1/2-z
5 -x,-y,-z
6 x,-y,1/2+z
7 1/2-x,1/2-y,-z
8 1/2+x,1/2-y,1/2+z
_cell_length_a                   8.9195(17)
_cell_length_b                   17.177(4)
_cell_length_c                   15.304(3)
_cell_angle_alpha                90
_cell_angle_beta                 92.045(5)
_cell_angle_gamma                90
_cell_volume                     2343.24
loop_
_atom_site_label
_atom_site_type_symbol
_atom_site_fract_x
_atom_site_fract_y
_atom_site_fract_z
Co1 Co 0.5000 0.46166(4) 0.2500
C1 C 0.3072(5) 0.3398(2) 0.1600(2)
C2 C 0.2778(5) 0.2927(2) 0.0770(2)
C3 C 0.3553(5) 0.2252(2) 0.0613(2)
C4 C 0.3278(5) 0.1828(2) -0.0149(2)
C5 C 0.5289(4) 0.6293(2) 0.2959(2)
C6 C 0.5551(5) 0.6963(2) 0.3446(3)
H1 H 0.5385 0.7451 0.3196
C7 C 0.6052(5) 0.6899(3) 0.4286(3)
H2 H 0.6254 0.7346 0.4614
C8 C 0.6262(5) 0.6185(3) 0.4657(3)
H3 H 0.6576 0.6135 0.5241
C9 C 0.5996(5) 0.5544(2) 0.4143(2)
H4 H 0.6150 0.5054 0.4389
C10 C 0.1845(7) 0.5118(3) 0.3134(4)
H5 H 0.2286 0.5587 0.3368
H6 H 0.1025 0.4963 0.3485
H7 H 0.1484 0.5209 0.2545
Cl1 Cl 0.49134(15) 0.19497(7) 0.13669(7)
Cl2 Cl 0.42840(18) 0.09912(7) -0.03407(8)
N1 N 0.5529(4) 0.55860(17) 0.33098(18)
O1 O 0.4184(3) 0.38348(14) 0.15810(15)
O2 O 0.2206(4) 0.33068(19) 0.21966(19)
O3 O 0.2930(3) 0.45238(15) 0.31412(16)
H8 H 0.2481 0.4088 0.3101
C1F C 0.1928(5) 0.1602(2) -0.1600(2)
C2F C 0.2222(5) 0.2073(2) -0.0770(2)
C3F C 0.1447(5) 0.2748(2) -0.0613(2)
C4F C 0.1722(5) 0.3172(2) 0.0149(2)
Cl1F Cl 0.00866(15) 0.30503(7) -0.13669(7)
Cl2F Cl 0.07160(18) 0.40088(7) 0.03407(8)
O1F O 0.0816(3) 0.11652(14) -0.15810(15)
O2F O 0.2794(4) 0.16932(19) -0.21966(19)
C5A C 0.4711(4) 0.6293(2) 0.2041(2)
C6A C 0.4449(5) 0.6963(2) 0.1554(3)
H1A H 0.4615 0.7451 0.1804
C7A C 0.3948(5) 0.6899(3) 0.0714(3)
H2A H 0.3746 0.7346 0.0386
C8A C 0.3738(5) 0.6185(3) 0.0343(3)
H3A H 0.3424 0.6135 -0.0241
C9A C 0.4004(5) 0.5544(2) 0.0857(2)
H4A H 0.3850 0.5054 0.0611
N1A N 0.4471(4) 0.55860(17) 0.16902(18)
C10A C 0.8155(7) 0.5118(3) 0.1866(4)
H5A H 0.7714 0.5587 0.1632
H6A H 0.8975 0.4963 0.1515
H7A H 0.8516 0.5209 0.2455
O3A O 0.7070(3) 0.45238(15) 0.18588(16)
H8A H 0.7519 0.4088 0.1899
Co1F Co 0.0000 0.03834(4) -0.2500
O1A O 0.5816(3) 0.38348(14) 0.34190(15)
loop_
_geom_bond_atom_site_label_1
_geom_bond_atom_site_label_2
_geom_bond_site_symmetry_1
_geom_bond_site_symmetry_2
Co1 N1 1_555 1_555
C1 C2 1_555 1_555
C2 C3 1_555 1_555
C3 C4 1_555 1_555
C4 Cl2 1_555 1_555
C5 C6 1_555 1_555
C6 H1 1_555 1_555
C7 C6 1_555 1_555
H2 C7 1_555 1_555
C8 C7 1_555 1_555
H3 C8 1_555 1_555
C9 C8 1_555 1_555
H4 C9 1_555 1_555
C10 H5 1_555 1_555
H6 C10 1_555 1_555
H7 C10 1_555 1_555
Cl1 C3 1_555 1_555
N1 C5 1_555 1_555
O1 Co1 1_555 1_555
O2 C1 1_555 1_555
O3 Co1 1_555 1_555
H8 O3 1_555 1_555
C1F C2F 1_555 1_555
C2F C4 1_555 1_555
C3F C2F 1_555 1_555
C4F C2 1_555 1_555
Cl1F C3F 1_555 1_555
Cl2F C4F 1_555 1_555
O1F C1F 1_555 1_555
O2F C1F 1_555 1_555
C5A C5 1_555 1_555
C6A C5A 1_555 1_555
H1A C6A 1_555 1_555
C7A C6A 1_555 1_555
H2A C7A 1_555 1_555
C8A C7A 1_555 1_555
H3A C8A 1_555 1_555
C9A C8A 1_555 1_555
H4A C9A 1_555 1_555
N1A Co1 1_555 1_555
C10A H5A 1_555 1_555
H6A C10A 1_555 1_555
H7A C10A 1_555 1_555
O3A Co1 1_555 1_555
H8A O3A 1_555 1_555
Co1F O1F 1_555 1_555
O1A Co1 1_555 1_555
C1 O1 1_555 1_555
C9 N1 1_555 1_555
C10 O3 1_555 1_555
C3F C4F 1_555 1_555
C5A N1A 1_555 1_555
C9A N1A 1_555 1_555
C10A O3A 1_555 1_555

#END
