
#######################################################################
#
#                 Cambridge Crystallographic Data Centre
#                                CCDC 
#
#######################################################################
#
# If this CIF has been generated from an entry in the Cambridge 
# Structural Database, then it will include bibliographic, chemical, 
# crystal, experimental, refinement or atomic coordinate data resulting 
# from the CCDC's data processing and validation procedures.
#
#######################################################################

data_SOYVAF
_symmetry_cell_setting           monoclinic
_symmetry_space_group_name_H-M   'P 21/c'
_symmetry_Int_Tables_number      14
_space_group_name_Hall           '-P 2ybc'
loop_
_symmetry_equiv_pos_site_id
_symmetry_equiv_pos_as_xyz
1 x,y,z
2 -x,1/2+y,1/2-z
3 -x,-y,-z
4 x,1/2-y,1/2+z
_cell_length_a                   8.9225(5)
_cell_length_b                   27.2572(16)
_cell_length_c                   8.6957(6)
_cell_angle_alpha                90
_cell_angle_beta                 105.7800(10)
_cell_angle_gamma                90
_cell_volume                     2035.11
loop_
_atom_site_label
_atom_site_type_symbol
_atom_site_fract_x
_atom_site_fract_y
_atom_site_fract_z
Cd1 Cd 0.09786(3) 0.632650(9) 0.36412(4)
C1 C -0.4470(4) 0.67758(13) 0.7265(5)
H1 H -0.5180 0.6588 0.7619
C2 C -0.3354(4) 0.65462(12) 0.6694(5)
H2 H -0.3316 0.6205 0.6670
C3 C -0.2286(4) 0.68204(12) 0.6153(5)
C4 C -0.2333(4) 0.73282(13) 0.6230(5)
H3 H -0.1614 0.7515 0.5886
C5 C -0.3446(4) 0.75586(13) 0.6818(5)
H4 H -0.3463 0.7899 0.6880
C6 C -0.4546(4) 0.72806(12) 0.7319(5)
C7 C -0.5778(4) 0.75285(12) 0.7859(5)
C8 C -0.6079(4) 0.80085(13) 0.8078(5)
H5 H -0.5476 0.8270 0.7905
C9 C -0.7876(4) 0.75992(14) 0.8706(6)
H6 H -0.8745 0.7517 0.9046
C10 C -0.1115(4) 0.65683(13) 0.5485(5)
C11 C 0.4582(5) 0.43382(14) 0.7885(5)
H7 H 0.3708 0.4166 0.7308
C12 C 0.5628(5) 0.41146(14) 0.9168(5)
H8 H 0.5446 0.3795 0.9449
C13 C 0.6946(4) 0.43621(12) 1.0036(5)
C14 C 0.7205(4) 0.48409(14) 0.9590(5)
H9 H 0.8091 0.5010 1.0149
C15 C 0.6161(4) 0.50612(14) 0.8333(6)
H10 H 0.6343 0.5381 0.8058
C16 C 0.4824(4) 0.48172(13) 0.7452(5)
C17 C 0.3687(4) 0.50741(12) 0.6186(5)
C18 C 0.3534(4) 0.55586(13) 0.5797(5)
H11 H 0.4224 0.5803 0.6292
C19 C 0.1582(4) 0.51986(13) 0.4216(5)
H12 H 0.0666 0.5140 0.3420
C20 C 0.8010(4) 0.41177(13) 1.1437(5)
I1 I -0.10409(4) 0.618939(13) 0.07408(4)
N1 N -0.7395(3) 0.80526(11) 0.8588(4)
N2 N -0.6948(3) 0.72771(11) 0.8273(5)
H13 H -0.7061 0.6964 0.8254
N3 N 0.2215(3) 0.56343(11) 0.4571(4)
N4 N 0.2428(3) 0.48496(11) 0.5151(4)
H14 H 0.2221 0.4541 0.5110
O1 O -0.1106(3) 0.61031(9) 0.5392(4)
O2 O -0.0191(3) 0.68298(9) 0.4986(4)
O3 O 0.7791(4) 0.37062(9) 1.1860(5)
O4 O 0.9213(3) 0.43854(10) 1.2191(4)
H15 H 0.9826 0.4215 1.2849
Cd1C Cd -0.90214(3) 0.867350(9) 0.86412(4)
N1C N 0.2605(3) 0.69474(11) 0.3588(4)
loop_
_geom_bond_atom_site_label_1
_geom_bond_atom_site_label_2
_geom_bond_site_symmetry_1
_geom_bond_site_symmetry_2
Cd1 I1 1_555 1_555
C1 H1 1_555 1_555
C2 C1 1_555 1_555
H2 C2 1_555 1_555
C3 C2 1_555 1_555
C4 C3 1_555 1_555
H3 C4 1_555 1_555
C5 C4 1_555 1_555
H4 C5 1_555 1_555
C6 C1 1_555 1_555
C7 C6 1_555 1_555
C8 C7 1_555 1_555
H5 C8 1_555 1_555
C9 H6 1_555 1_555
C10 C3 1_555 1_555
C11 H7 1_555 1_555
C12 C11 1_555 1_555
H8 C12 1_555 1_555
C13 C12 1_555 1_555
C14 C13 1_555 1_555
H9 C14 1_555 1_555
C15 C14 1_555 1_555
H10 C15 1_555 1_555
C16 C11 1_555 1_555
C17 C16 1_555 1_555
C18 C17 1_555 1_555
H11 C18 1_555 1_555
C19 H12 1_555 1_555
C20 C13 1_555 1_555
N1 C8 1_555 1_555
N2 C7 1_555 1_555
H13 N2 1_555 1_555
N3 Cd1 1_555 1_555
N4 C17 1_555 1_555
H14 N4 1_555 1_555
O1 C10 1_555 1_555
O2 Cd1 1_555 1_555
O3 C20 1_555 1_555
O4 C20 1_555 1_555
H15 O4 1_555 1_555
Cd1C N1 1_555 1_555
N1C Cd1 1_555 1_555
C5 C6 1_555 1_555
C9 N1 1_555 1_555
C9 N2 1_555 1_555
C10 O2 1_555 1_555
C15 C16 1_555 1_555
C18 N3 1_555 1_555
C19 N3 1_555 1_555
C19 N4 1_555 1_555

#END
