
#######################################################################
#
#                 Cambridge Crystallographic Data Centre
#                                CCDC 
#
#######################################################################
#
# If this CIF has been generated from an entry in the Cambridge 
# Structural Database, then it will include bibliographic, chemical, 
# crystal, experimental, refinement or atomic coordinate data resulting 
# from the CCDC's data processing and validation procedures.
#
#######################################################################

data_SOYWOU
_symmetry_cell_setting           monoclinic
_symmetry_space_group_name_H-M   'C 2/c'
_symmetry_Int_Tables_number      15
_space_group_name_Hall           '-C 2yn'
loop_
_symmetry_equiv_pos_site_id
_symmetry_equiv_pos_as_xyz
1 x,y,z
2 -x,y,1/2-z
3 1/2+x,1/2+y,z
4 1/2-x,1/2+y,1/2-z
5 -x,-y,-z
6 x,-y,1/2+z
7 1/2-x,1/2-y,-z
8 1/2+x,1/2-y,1/2+z
_cell_length_a                   18.9713(13)
_cell_length_b                   10.5579(7)
_cell_length_c                   14.4649(10)
_cell_angle_alpha                90
_cell_angle_beta                 102.4890(10)
_cell_angle_gamma                90
_cell_volume                     2828.72
loop_
_atom_site_label
_atom_site_type_symbol
_atom_site_fract_x
_atom_site_fract_y
_atom_site_fract_z
Cd1 Cd 0.283559(13) 0.582477(17) 1.016379(18)
Cd2 Cd 0.2500 0.2500 1.0000
Cl1 Cl 0.30387(5) 0.40187(7) 1.14090(6)
Cl2 Cl 0.24532(6) 0.75478(7) 1.12184(6)
Cl3 Cl 0.30700(5) 0.40917(7) 0.89522(7)
N1 N 0.08056(15) 0.3569(3) 0.9269(2)
N2 N 0.09670(16) 0.5658(2) 0.9353(2)
N3 N 0.15882(14) 0.5074(2) 0.97196(19)
N4 N 0.14867(14) 0.3831(3) 0.96695(19)
O1 O 0.40000(16) 0.6587(3) 1.0561(2)
H1 H 0.4219 0.6284 1.1100
H2 H 0.4002 0.7384 1.0603
C1 C 0.04998(17) 0.4711(3) 0.9079(2)
C2 C -0.02552(17) 0.4896(3) 0.8593(2)
C3 C -0.0671(2) 0.3853(4) 0.8207(3)
H3 H -0.0477 0.3041 0.8270
C4 C -0.0559(2) 0.6092(4) 0.8485(3)
H4 H -0.0293 0.6797 0.8739
C5 C -0.1269(2) 0.6223(5) 0.7991(3)
H5 H -0.1482 0.7020 0.7907
C6 C -0.1375(2) 0.4053(4) 0.7728(3)
H6 H -0.1661 0.3372 0.7467
N5 N -0.16399(17) 0.5212(4) 0.7642(2)
H7 H -0.2080 0.5313 0.7342
Cd1F Cd 0.216441(13) -0.082477(17) 0.983621(18)
Cl1F Cl 0.19613(5) 0.09813(7) 0.85910(6)
Cl2F Cl 0.25468(6) -0.25478(7) 0.87816(6)
Cl3F Cl 0.19300(5) 0.09083(7) 1.10478(7)
N1F N 0.41944(15) 0.1431(3) 1.0731(2)
N2F N 0.40330(16) -0.0658(2) 1.0647(2)
N3F N 0.34118(14) -0.0074(2) 1.02804(19)
N4F N 0.35133(14) 0.1169(3) 1.03305(19)
O1F O 0.10000(16) -0.1587(3) 0.9439(2)
H1F H 0.0781 -0.1284 0.8900
H2F H 0.0998 -0.2384 0.9397
C1F C 0.45002(17) 0.0289(3) 1.0921(2)
C2F C 0.52552(17) 0.0104(3) 1.1407(2)
C3F C 0.5671(2) 0.1147(4) 1.1793(3)
H3F H 0.5477 0.1959 1.1730
C4F C 0.5559(2) -0.1092(4) 1.1515(3)
H4F H 0.5293 -0.1797 1.1261
C5F C 0.6269(2) -0.1223(5) 1.2009(3)
H5F H 0.6482 -0.2020 1.2093
C6F C 0.6375(2) 0.0947(4) 1.2272(3)
H6F H 0.6661 0.1628 1.2533
N5F N 0.66399(17) -0.0212(4) 1.2358(2)
H7F H 0.7080 -0.0313 1.2658
Cd1_2 Cd 0.283559(13) -0.417523(17) 1.016379(18)
Cd1F_2 Cd 0.216441(13) 0.917523(17) 0.983621(18)
Cl2_2 Cl 0.24532(6) -0.24522(7) 1.12184(6)
Cl2F_2 Cl 0.25468(6) 0.74522(7) 0.87816(6)
O2 O 0.5037(4) 0.6102(5) 0.9501(5)
H8 H 0.5128 0.6440 0.9007
H9 H 0.4589 0.5932 0.9408
O3 O 0.9420(7) 0.9330(13) 0.7841(9)
H10 H 0.8995 0.9599 0.7624
H11 H 0.9684 0.9496 0.7450
loop_
_geom_bond_atom_site_label_1
_geom_bond_atom_site_label_2
_geom_bond_site_symmetry_1
_geom_bond_site_symmetry_2
Cd1 Cl1 1_555 1_555
Cd2 Cl1 1_555 1_555
Cl2 Cd1 1_555 1_555
Cl3 Cd1 1_555 1_555
N1 N4 1_555 1_555
N2 N3 1_555 1_555
N3 Cd1 1_555 1_555
N4 Cd2 1_555 1_555
O1 Cd1 1_555 1_555
H1 O1 1_555 1_555
H2 O1 1_555 1_555
C1 N1 1_555 1_555
C2 C1 1_555 1_555
C3 C2 1_555 1_555
H3 C3 1_555 1_555
C4 C2 1_555 1_555
H4 C4 1_555 1_555
C5 C4 1_555 1_555
H5 C5 1_555 1_555
C6 C3 1_555 1_555
H6 C6 1_555 1_555
N5 C5 1_555 1_555
H7 N5 1_555 1_555
O2 H8 1_555 1_555
H9 O2 1_555 1_555
O3 H10 1_555 1_555
H11 O3 1_555 1_555
Cd1F Cl1F 1_555 1_555
Cl1F Cd2 1_555 1_555
Cl2F Cd1F 1_555 1_555
Cl3F Cd2 1_555 1_555
N1F N4F 1_555 1_555
N2F N3F 1_555 1_555
N3F Cd1F 1_555 1_555
N4F Cd2 1_555 1_555
O1F Cd1F 1_555 1_555
H1F O1F 1_555 1_555
H2F O1F 1_555 1_555
C1F N1F 1_555 1_555
C2F C1F 1_555 1_555
C3F C2F 1_555 1_555
H3F C3F 1_555 1_555
C4F C2F 1_555 1_555
H4F C4F 1_555 1_555
C5F C4F 1_555 1_555
H5F C5F 1_555 1_555
C6F C3F 1_555 1_555
H6F C6F 1_555 1_555
N5F C5F 1_555 1_555
H7F N5F 1_555 1_555
Cd1_2 Cl2F 1_555 1_555
Cd1F_2 Cl2 1_555 1_555
Cl2_2 Cd1F 1_555 1_555
Cl2F_2 Cd1 1_555 1_555
Cd2 Cl3 1_555 1_555
N2 C1 1_555 1_555
N3 N4 1_555 1_555
C6 N5 1_555 1_555
Cd1F Cl3F 1_555 1_555
N2F C1F 1_555 1_555
N3F N4F 1_555 1_555
C6F N5F 1_555 1_555
Cd1_2 Cl2_2 1_555 1_555
Cd1F_2 Cl2F_2 1_555 1_555

#END
