
#######################################################################
#
#                 Cambridge Crystallographic Data Centre
#                                CCDC 
#
#######################################################################
#
# If this CIF has been generated from an entry in the Cambridge 
# Structural Database, then it will include bibliographic, chemical, 
# crystal, experimental, refinement or atomic coordinate data resulting 
# from the CCDC's data processing and validation procedures.
#
#######################################################################

data_SOZGOF
_symmetry_cell_setting           cubic
_symmetry_space_group_name_H-M   'P 21 3'
_symmetry_Int_Tables_number      198
_space_group_name_Hall           'P 2ac 2ab 3'
loop_
_symmetry_equiv_pos_site_id
_symmetry_equiv_pos_as_xyz
1 x,y,z
2 1/2-x,-y,1/2+z
3 -x,1/2+y,1/2-z
4 1/2+x,1/2-y,-z
5 z,x,y
6 1/2+z,1/2-x,-y
7 1/2-z,-x,1/2+y
8 -z,1/2+x,1/2-y
9 y,z,x
10 -y,1/2+z,1/2-x
11 1/2+y,1/2-z,-x
12 1/2-y,-z,1/2+x
_cell_length_a                   20.3177(13)
_cell_length_b                   20.3177(13)
_cell_length_c                   20.3177(13)
_cell_angle_alpha                90
_cell_angle_beta                 90
_cell_angle_gamma                90
_cell_volume                     8387.33
loop_
_atom_site_label
_atom_site_type_symbol
_atom_site_fract_x
_atom_site_fract_y
_atom_site_fract_z
Yb1 Yb 0.15627(2) 0.84373(2) 0.34373(2)
O1 O 0.1297(4) 0.8146(4) 0.2441(4)
O2 O 0.0474(5) 0.8839(4) 0.2156(5)
O3 O 0.1696(5) 0.8673(5) 0.4497(4)
N1 N -0.0030(4) 0.6559(5) 0.0089(4)
H1 H -0.0392 0.6700 -0.0104
N2 N -0.0092(5) 0.5776(5) -0.0700(5)
N3 N 0.1935(8) 0.9078(7) 0.5473(7)
C1 C 0.0779(6) 0.8315(5) 0.2090(6)
C2 C 0.0576(6) 0.7838(5) 0.1548(6)
C3 C 0.0118(6) 0.7992(6) 0.1168(6)
H2 H -0.0089 0.8409 0.1211
C4 C -0.0094(6) 0.7549(6) 0.0675(6)
H3 H -0.0429 0.7686 0.0379
C5 C 0.0167(6) 0.6929(5) 0.0609(6)
C6 C 0.0733(6) 0.6798(5) 0.0998(5)
H4 H 0.0982 0.6409 0.0927
C7 C 0.0921(5) 0.7241(5) 0.1484(6)
H5 H 0.1278 0.7142 0.1769
C8 C 0.0242(5) 0.5988(5) -0.0198(5)
C9 C 0.2074(8) 0.8719(7) 0.4956(7)
C10 C 0.2695(9) 0.8344(9) 0.5016(8)
H6 H 0.2769 0.8091 0.4612
H7 H 0.2665 0.8043 0.5392
H8 H 0.3061 0.8650 0.5084
C11 C 0.1260(9) 0.9506(9) 0.5334(8)
H9 H 0.1176 0.9524 0.4860
H10 H 0.1316 0.9954 0.5505
H11 H 0.0887 0.9295 0.5556
C12 C 0.2400(9) 0.9195(9) 0.6017(8)
H12 H 0.2763 0.8879 0.5989
H13 H 0.2172 0.9142 0.6438
H14 H 0.2576 0.9644 0.5984
O1G O -0.2441(4) 0.6297(4) -0.3146(4)
O2G O -0.2156(5) 0.5474(5) -0.3839(4)
N1G N -0.0089(4) 0.4970(4) -0.1559(5)
H1G H 0.0104 0.4608 -0.1700
N2G N 0.0700(5) 0.4908(5) -0.0776(5)
C1G C -0.2090(6) 0.5779(6) -0.3315(5)
C2G C -0.1548(6) 0.5576(6) -0.2838(5)
C3G C -0.1168(6) 0.5118(6) -0.2992(6)
H2G H -0.1211 0.4911 -0.3409
C4G C -0.0675(6) 0.4906(6) -0.2549(6)
H3G H -0.0379 0.4571 -0.2686
C5G C -0.0609(6) 0.5167(6) -0.1929(5)
C6G C -0.0998(5) 0.5733(6) -0.1798(5)
H4G H -0.0927 0.5982 -0.1409
C7G C -0.1484(6) 0.5921(5) -0.2241(5)
H5G H -0.1769 0.6278 -0.2142
C8G C 0.0198(5) 0.5242(5) -0.0988(5)
O1J O 0.3146(4) 0.2559(4) -0.1297(4)
O2J O 0.3839(4) 0.2844(5) -0.0474(5)
N1J N 0.1559(5) 0.4911(4) 0.0030(4)
H1J H 0.1700 0.5104 0.0392
N2J N 0.0776(5) 0.5700(5) 0.0092(5)
C1J C 0.3315(5) 0.2910(6) -0.0779(6)
C2J C 0.2838(5) 0.3452(6) -0.0576(6)
C3J C 0.2992(6) 0.3832(6) -0.0118(6)
H2J H 0.3409 0.3789 0.0089
C4J C 0.2549(6) 0.4325(6) 0.0094(6)
H3J H 0.2686 0.4621 0.0429
C5J C 0.1929(5) 0.4391(6) -0.0167(6)
C6J C 0.1798(5) 0.4002(5) -0.0733(6)
H4J H 0.1409 0.4073 -0.0982
C7J C 0.2241(5) 0.3516(6) -0.0921(5)
H5J H 0.2142 0.3231 -0.1278
C8J C 0.0988(5) 0.5198(5) -0.0242(5)
O3F O 0.0503(4) 0.8304(5) 0.3673(5)
N3F N -0.0473(7) 0.8065(8) 0.4078(7)
C9F C 0.0044(7) 0.7926(8) 0.3719(7)
C10F C -0.0016(8) 0.7305(9) 0.3344(9)
H6F H 0.0388 0.7231 0.3091
H7F H -0.0392 0.7335 0.3043
H8F H -0.0084 0.6939 0.3650
C11F C -0.0334(8) 0.8740(9) 0.4506(9)
H9F H 0.0140 0.8824 0.4524
H10F H -0.0505 0.8684 0.4954
H11F H -0.0556 0.9113 0.4295
C12F C -0.1017(8) 0.7600(9) 0.4195(9)
H12F H -0.0989 0.7237 0.3879
H13F H -0.1438 0.7828 0.4142
H14F H -0.0984 0.7424 0.4644
O3I O 0.1327(5) 0.9497(4) 0.3304(5)
N3I N 0.0922(7) 1.0473(7) 0.3065(8)
C9I C 0.1281(7) 0.9956(7) 0.2926(8)
C10I C 0.1656(9) 1.0016(8) 0.2305(9)
H6I H 0.1909 0.9612 0.2231
H7I H 0.1957 1.0392 0.2335
H8I H 0.1350 1.0084 0.1939
C11I C 0.0494(9) 1.0334(8) 0.3740(9)
H9I H 0.0476 0.9860 0.3824
H10I H 0.0046 1.0505 0.3684
H11I H 0.0705 1.0556 0.4113
C12I C 0.0805(9) 1.1017(8) 0.2600(9)
H12I H 0.1121 1.0989 0.2237
H13I H 0.0858 1.1438 0.2828
H14I H 0.0356 1.0984 0.2424
Yb1A Yb 0.34373(2) 0.15627(2) -0.15627(2)
Yb1C Yb -0.34373(2) 0.65627(2) -0.34373(2)
O1F O 0.2559(4) 0.8703(4) 0.3146(4)
O1I O 0.1854(4) 0.7441(4) 0.3703(4)
Yb2 Yb 0.34236(3) 0.65764(3) 0.15764(3)
O4 O 0.2419(4) 0.6269(5) 0.1808(4)
O5 O 0.2120(4) 0.5501(5) 0.1138(4)
O6 O 0.2659(6) 0.7341(6) 0.2341(6)
H15 H 0.2544 0.7143 0.2780
O7 O 0.3319(5) 0.6319(5) 0.0511(5)
N4 N 0.0126(4) 0.4940(4) 0.3516(4)
H16 H -0.0020 0.4544 0.3421
N5 N 0.0124(5) 0.5726(5) 0.4305(5)
N6 N 0.3093(7) 0.5805(7) -0.0431(6)
C13 C 0.2065(6) 0.5804(6) 0.1647(6)
C14 C 0.1594(6) 0.5588(6) 0.2157(6)
C15 C 0.1535(6) 0.5870(6) 0.2759(6)
H17 H 0.1832 0.6213 0.2872
C16 C 0.1063(5) 0.5686(6) 0.3221(6)
H18 H 0.1051 0.5888 0.3642
C17 C 0.0613(6) 0.5206(6) 0.3055(6)
C18 C 0.0704(6) 0.4814(6) 0.2490(6)
H19 H 0.0458 0.4420 0.2433
C19 C 0.1140(6) 0.5003(5) 0.2037(6)
H20 H 0.1168 0.4770 0.1632
C20 C -0.0121(6) 0.5202(6) 0.4043(5)
C21 C 0.2923(10) 0.6224(9) 0.0025(9)
C22 C 0.2271(8) 0.6579(8) 0.0054(8)
H21 H 0.1925 0.6270 0.0186
H22 H 0.2167 0.6761 -0.0380
H23 H 0.2297 0.6938 0.0376
C23 C 0.2794(9) 0.5657(9) -0.1041(7)
H24 H 0.2335 0.5808 -0.1036
H25 H 0.2805 0.5181 -0.1114
H26 H 0.3032 0.5880 -0.1396
C24 C 0.3707(10) 0.5554(10) -0.0527(10)
H27 H 0.3974 0.5627 -0.0133
H28 H 0.3913 0.5773 -0.0904
H29 H 0.3674 0.5080 -0.0614
H15F H 0.2220 0.7456 0.2143
O4E O -0.3192(4) 0.2581(4) 0.3731(5)
O5E O -0.3862(4) 0.2880(4) 0.4499(5)
N4E N -0.1484(4) 0.4874(4) 0.5060(4)
H16E H -0.1579 0.5020 0.5456
N5E N -0.0695(5) 0.4876(5) 0.4274(5)
C13E C -0.3353(6) 0.2935(6) 0.4196(6)
C14E C -0.2843(6) 0.3406(6) 0.4412(6)
C15E C -0.2241(6) 0.3465(6) 0.4130(6)
H17E H -0.2128 0.3168 0.3787
C16E C -0.1779(6) 0.3937(5) 0.4314(6)
H18E H -0.1358 0.3949 0.4112
C17E C -0.1945(6) 0.4387(6) 0.4794(6)
C18E C -0.2510(6) 0.4296(6) 0.5186(6)
H19E H -0.2567 0.4542 0.5580
C19E C -0.2963(6) 0.3860(6) 0.4997(5)
H20E H -0.3368 0.3832 0.5230
C20E C -0.0957(5) 0.5121(6) 0.4798(6)
O4K O -0.1269(5) 0.8192(4) 0.7419(4)
O5K O -0.0501(5) 0.8862(4) 0.7120(4)
N4K N 0.0060(4) 0.6484(4) 0.5126(4)
H16K H 0.0456 0.6579 0.4980
N5K N -0.0726(5) 0.5695(5) 0.5124(5)
C13K C -0.0804(6) 0.8353(6) 0.7065(6)
C14K C -0.0588(6) 0.7843(6) 0.6594(6)
C15K C -0.0870(6) 0.7241(6) 0.6535(6)
H17K H -0.1213 0.7128 0.6832
C16K C -0.0686(6) 0.6779(6) 0.6063(5)
H18K H -0.0888 0.6358 0.6051
C17K C -0.0206(6) 0.6945(6) 0.5613(6)
C18K C 0.0186(6) 0.7510(6) 0.5704(6)
H19K H 0.0580 0.7567 0.5458
C19K C -0.0003(5) 0.7963(6) 0.6140(6)
H20K H 0.0230 0.8368 0.6168
C20K C -0.0202(6) 0.5957(5) 0.4879(6)
O7F O 0.4489(5) 0.6681(5) 0.1319(5)
N6F N 0.5431(6) 0.6907(7) 0.0805(7)
C21F C 0.4975(9) 0.7077(10) 0.1224(9)
C22F C 0.4946(8) 0.7729(8) 0.1579(8)
H21F H 0.4814 0.8075 0.1270
H22F H 0.5380 0.7833 0.1761
H23F H 0.4624 0.7703 0.1938
C23F C 0.6041(7) 0.7206(9) 0.0657(9)
H24F H 0.6036 0.7665 0.0808
H25F H 0.6114 0.7195 0.0181
H26F H 0.6396 0.6968 0.0880
C24F C 0.5527(10) 0.6293(10) 0.0554(10)
H27F H 0.5133 0.6026 0.0627
H28F H 0.5904 0.6087 0.0773
H29F H 0.5614 0.6326 0.0080
O7I O 0.3681(5) 0.5511(5) 0.1681(5)
N6I N 0.4195(7) 0.4569(6) 0.1907(7)
C21I C 0.3776(9) 0.5025(9) 0.2077(10)
C22I C 0.3421(8) 0.5054(8) 0.2729(8)
H21I H 0.3730 0.5186 0.3075
H22I H 0.3239 0.4620 0.2833
H23I H 0.3062 0.5376 0.2703
C23I C 0.4343(9) 0.3959(7) 0.2206(9)
H24I H 0.4192 0.3964 0.2665
H25I H 0.4819 0.3886 0.2195
H26I H 0.4120 0.3604 0.1968
C24I C 0.4446(10) 0.4473(10) 0.1293(10)
H27I H 0.4373 0.4867 0.1026
H28I H 0.4227 0.4096 0.1087
H29I H 0.4920 0.4386 0.1326
Yb2B Yb -0.34236(3) 0.15764(3) 0.34236(3)
Yb2C Yb -0.15764(3) 0.84236(3) 0.84236(3)
O4F O 0.3192(4) 0.7581(4) 0.1269(5)
O4I O 0.3731(5) 0.6808(4) 0.2581(4)
O8 O 0.2061(10) 0.7061(10) 0.7939(10)
O9 O 0.3071(9) 0.8071(9) 0.6929(9)
O10 O 0.177(2) 0.723(2) 0.686(2)
O11 O 0.2400(14) 0.3669(13) 0.1962(13)
H30? H 0.2544 0.7143 0.2780
loop_
_geom_bond_atom_site_label_1
_geom_bond_atom_site_label_2
_geom_bond_site_symmetry_1
_geom_bond_site_symmetry_2
Yb1 O1 1_555 1_555
O1 C1 1_555 1_555
O2 C1 1_555 1_555
O3 Yb1 1_555 1_555
N1 H1 1_555 1_555
N2 C8 1_555 1_555
N3 C9 1_555 1_555
C1 C2 1_555 1_555
C2 C3 1_555 1_555
C3 H2 1_555 1_555
C4 C3 1_555 1_555
H3 C4 1_555 1_555
C5 N1 1_555 1_555
C6 C5 1_555 1_555
H4 C6 1_555 1_555
C7 C2 1_555 1_555
H5 C7 1_555 1_555
C8 N1 1_555 1_555
C9 O3 1_555 1_555
C10 C9 1_555 1_555
H6 C10 1_555 1_555
H7 C10 1_555 1_555
H8 C10 1_555 1_555
C11 N3 1_555 1_555
H9 C11 1_555 1_555
H10 C11 1_555 1_555
H11 C11 1_555 1_555
C12 N3 1_555 1_555
H12 C12 1_555 1_555
H13 C12 1_555 1_555
H14 C12 1_555 1_555
Yb2 O4 1_555 1_555
O4 C13 1_555 1_555
O5 C13 1_555 1_555
O6 Yb2 1_555 1_555
H15 O6 1_555 1_555
O7 Yb2 1_555 1_555
N4 H16 1_555 1_555
N5 C20 1_555 1_555
N6 C21 1_555 1_555
C13 C14 1_555 1_555
C14 C15 1_555 1_555
C15 H17 1_555 1_555
C16 C15 1_555 1_555
H18 C16 1_555 1_555
C17 N4 1_555 1_555
C18 C17 1_555 1_555
H19 C18 1_555 1_555
C19 C14 1_555 1_555
H20 C19 1_555 1_555
C20 N4 1_555 1_555
C21 O7 1_555 1_555
C22 C21 1_555 1_555
H21 C22 1_555 1_555
H22 C22 1_555 1_555
H23 C22 1_555 1_555
C23 N6 1_555 1_555
H24 C23 1_555 1_555
H25 C23 1_555 1_555
H26 C23 1_555 1_555
C24 N6 1_555 1_555
H27 C24 1_555 1_555
H28 C24 1_555 1_555
H29 C24 1_555 1_555
O1G C1G 1_555 1_555
O2G C1G 1_555 1_555
N1G H1G 1_555 1_555
N2G C8G 1_555 1_555
C1G C2G 1_555 1_555
C2G C3G 1_555 1_555
C3G H2G 1_555 1_555
C4G C3G 1_555 1_555
H3G C4G 1_555 1_555
C5G N1G 1_555 1_555
C6G C5G 1_555 1_555
H4G C6G 1_555 1_555
C7G C2G 1_555 1_555
H5G C7G 1_555 1_555
C8G N2 1_555 1_555
O1J C1J 1_555 1_555
O2J C1J 1_555 1_555
N1J H1J 1_555 1_555
N2J C8 1_555 1_555
C1J C2J 1_555 1_555
C2J C3J 1_555 1_555
C3J H2J 1_555 1_555
C4J C3J 1_555 1_555
H3J C4J 1_555 1_555
C5J N1J 1_555 1_555
C6J C5J 1_555 1_555
H4J C6J 1_555 1_555
C7J C2J 1_555 1_555
H5J C7J 1_555 1_555
C8J N2G 1_555 1_555
O3F Yb1 1_555 1_555
N3F C9F 1_555 1_555
C9F O3F 1_555 1_555
C10F C9F 1_555 1_555
H6F C10F 1_555 1_555
H7F C10F 1_555 1_555
H8F C10F 1_555 1_555
C11F N3F 1_555 1_555
H9F C11F 1_555 1_555
H10F C11F 1_555 1_555
H11F C11F 1_555 1_555
C12F N3F 1_555 1_555
H12F C12F 1_555 1_555
H13F C12F 1_555 1_555
H14F C12F 1_555 1_555
O3I Yb1 1_555 1_555
N3I C9I 1_555 1_555
C9I O3I 1_555 1_555
C10I C9I 1_555 1_555
H6I C10I 1_555 1_555
H7I C10I 1_555 1_555
H8I C10I 1_555 1_555
C11I N3I 1_555 1_555
H9I C11I 1_555 1_555
H10I C11I 1_555 1_555
H11I C11I 1_555 1_555
C12I N3I 1_555 1_555
H12I C12I 1_555 1_555
H13I C12I 1_555 1_555
H14I C12I 1_555 1_555
Yb1A O1J 1_555 1_555
Yb1C O1G 1_555 1_555
O1F Yb1 1_555 1_555
O1I Yb1 1_555 1_555
H15F O6 1_555 1_555
O4E C13E 1_555 1_555
O5E C13E 1_555 1_555
N4E H16E 1_555 1_555
N5E C20 1_555 1_555
C13E C14E 1_555 1_555
C14E C15E 1_555 1_555
C15E H17E 1_555 1_555
C16E C15E 1_555 1_555
H18E C16E 1_555 1_555
C17E N4E 1_555 1_555
C18E C17E 1_555 1_555
H19E C18E 1_555 1_555
C19E C14E 1_555 1_555
H20E C19E 1_555 1_555
C20E N4E 1_555 1_555
O4K C13K 1_555 1_555
O5K C13K 1_555 1_555
N4K H16K 1_555 1_555
N5K C20E 1_555 1_555
C13K C14K 1_555 1_555
C14K C15K 1_555 1_555
C15K H17K 1_555 1_555
C16K C15K 1_555 1_555
H18K C16K 1_555 1_555
C17K N4K 1_555 1_555
C18K C17K 1_555 1_555
H19K C18K 1_555 1_555
C19K C14K 1_555 1_555
H20K C19K 1_555 1_555
C20K N5 1_555 1_555
O7F Yb2 1_555 1_555
N6F C21F 1_555 1_555
C21F O7F 1_555 1_555
C22F C21F 1_555 1_555
H21F C22F 1_555 1_555
H22F C22F 1_555 1_555
H23F C22F 1_555 1_555
C23F N6F 1_555 1_555
H24F C23F 1_555 1_555
H25F C23F 1_555 1_555
H26F C23F 1_555 1_555
C24F N6F 1_555 1_555
H27F C24F 1_555 1_555
H28F C24F 1_555 1_555
H29F C24F 1_555 1_555
O7I Yb2 1_555 1_555
N6I C21I 1_555 1_555
C21I O7I 1_555 1_555
C22I C21I 1_555 1_555
H21I C22I 1_555 1_555
H22I C22I 1_555 1_555
H23I C22I 1_555 1_555
C23I N6I 1_555 1_555
H24I C23I 1_555 1_555
H25I C23I 1_555 1_555
H26I C23I 1_555 1_555
C24I N6I 1_555 1_555
H27I C24I 1_555 1_555
H28I C24I 1_555 1_555
H29I C24I 1_555 1_555
Yb2B O4E 1_555 1_555
Yb2C O4K 1_555 1_555
O4F Yb2 1_555 1_555
O4I Yb2 1_555 1_555
C4 C5 1_555 1_555
C6 C7 1_555 1_555
C16 C17 1_555 1_555
C18 C19 1_555 1_555
N1G C8G 1_555 1_555
C4G C5G 1_555 1_555
C6G C7G 1_555 1_555
N1J C8J 1_555 1_555
N2J C8J 1_555 1_555
C4J C5J 1_555 1_555
C6J C7J 1_555 1_555
N5E C20E 1_555 1_555
C16E C17E 1_555 1_555
C18E C19E 1_555 1_555
N4K C20K 1_555 1_555
N5K C20K 1_555 1_555
C16K C17K 1_555 1_555
C18K C19K 1_555 1_555

#END
