
#######################################################################
#
#                 Cambridge Crystallographic Data Centre
#                                CCDC 
#
#######################################################################
#
# If this CIF has been generated from an entry in the Cambridge 
# Structural Database, then it will include bibliographic, chemical, 
# crystal, experimental, refinement or atomic coordinate data resulting 
# from the CCDC's data processing and validation procedures.
#
#######################################################################

data_SOZHIA
_symmetry_cell_setting           triclinic
_symmetry_space_group_name_H-M   'P -1'
_symmetry_Int_Tables_number      2
_space_group_name_Hall           '-P 1'
loop_
_symmetry_equiv_pos_site_id
_symmetry_equiv_pos_as_xyz
1 x,y,z
2 -x,-y,-z
_cell_length_a                   7.5739(15)
_cell_length_b                   14.164(3)
_cell_length_c                   14.996(3)
_cell_angle_alpha                99.39(3)
_cell_angle_beta                 90.35(3)
_cell_angle_gamma                92.81(3)
_cell_volume                     1585.09
loop_
_atom_site_label
_atom_site_type_symbol
_atom_site_fract_x
_atom_site_fract_y
_atom_site_fract_z
Mn1 Mn 0.4848(3) 0.29672(14) 0.63067(14)
O1 O 0.7312(11) 0.0280(6) 0.8205(6)
N1 N 0.5010(16) 0.1324(9) 0.4671(9)
C1 C 0.4914(17) 0.1951(9) 0.5269(9)
Mn2 Mn 0.9619(3) 0.10916(13) 0.77427(13)
O2 O 0.0017(15) 0.5898(8) 0.6344(7)
N2 N 0.1940(14) 0.1799(7) 0.7217(7)
C2 C 0.2990(17) 0.2239(8) 0.6895(8)
Mn3 Mn 0.0000 0.5000 0.5000
N3 N 0.4846(17) 0.4680(9) 0.7917(9)
C3 C 0.4862(16) 0.4026(10) 0.7357(10)
N4 N 0.7861(15) 0.2010(8) 0.7236(7)
C4 C 0.6765(18) 0.2365(9) 0.6900(9)
N5 N 0.1874(13) 0.4024(7) 0.5489(7)
C5 C 0.2927(16) 0.3639(8) 0.5768(8)
N6 N 0.3279(18) 0.6253(9) 0.4281(8)
C6 C 0.2226(16) 0.5832(8) 0.4606(8)
N7 N 1.0309(12) 0.1779(7) 0.9254(6)
C7 C 0.9813(16) 0.2620(8) 0.9660(9)
H1 H 0.9181 0.3010 0.9323
N8 N 1.1264(12) 0.0103(7) 0.8374(6)
C8 C 1.0194(16) 0.2952(9) 1.0573(9)
H2 H 0.9813 0.3558 1.0851
N9 N 0.9899(12) -0.0286(7) 0.6714(6)
C9 C 1.1109(16) 0.2408(9) 1.1062(8)
H3 H 1.1387 0.2634 1.1681
N10 N 1.2627(12) -0.0285(7) 0.9647(6)
C10 C 1.1628(16) 0.1528(9) 1.0654(8)
H4 H 1.2255 0.1136 1.0990
N11 N 1.2530(12) -0.1379(6) 0.8249(6)
C11 C 1.1230(15) 0.1216(8) 0.9748(8)
N12 N 1.4282(13) -0.1579(7) 1.0450(7)
C12 C 1.1767(15) 0.0300(8) 0.9243(8)
C13 C 1.1637(15) -0.0735(8) 0.7906(8)
C14 C 1.0915(15) -0.0957(8) 0.6961(8)
C15 C 1.1243(16) -0.1805(9) 0.6423(8)
H5 H 1.1970 -0.2258 0.6626
C16 C 1.0464(17) -0.1974(9) 0.5568(8)
H6 H 1.0663 -0.2551 0.5168
C17 C 0.9411(16) -0.1313(8) 0.5298(8)
H7 H 0.8862 -0.1428 0.4716
C18 C 0.9155(16) -0.0465(9) 0.5892(8)
H8 H 0.8429 -0.0003 0.5706
C19 C 1.3010(15) -0.1096(8) 0.9133(7)
C20 C 1.3909(15) -0.1849(9) 0.9568(8)
C21 C 1.4276(16) -0.2709(9) 0.9075(9)
H9 H 1.4043 -0.2844 0.8443
C22 C 1.4999(16) -0.3377(9) 0.9522(8)
H10 H 1.5217 -0.3999 0.9210
C23 C 1.5398(17) -0.3126(9) 1.0432(9)
H11 H 1.5924 -0.3566 1.0755
C24 C 1.5026(16) -0.2243(9) 1.0850(8)
H12 H 1.5313 -0.2080 1.1476
H13 H 0.691(10) 0.076(3) 0.859(7)
H14 H 0.042(14) 0.554(7) 0.677(7)
H15 H 0.661(11) 0.012(6) 0.773(4)
H16 H -0.080(17) 0.617(9) 0.657(8)
Mn1A Mn -0.4848(3) 0.70328(14) 0.36933(14)
O1A O -0.7312(11) 0.9720(6) 0.1795(6)
N1A N -0.5010(16) 0.8676(9) 0.5329(9)
C1A C -0.4914(17) 0.8049(9) 0.4731(9)
Mn2A Mn -0.9619(3) 0.89084(13) 0.22573(13)
O2A O -0.0017(15) 0.4102(8) 0.3656(7)
N2A N -0.1940(14) 0.8201(7) 0.2783(7)
C2A C -0.2990(17) 0.7761(8) 0.3105(8)
N3A N -0.4846(17) 0.5320(9) 0.2083(9)
C3A C -0.4862(16) 0.5974(10) 0.2643(10)
N4A N -0.7861(15) 0.7990(8) 0.2764(7)
C4A C -0.6765(18) 0.7635(9) 0.3100(9)
N5A N -0.1874(13) 0.5976(7) 0.4511(7)
C5A C -0.2927(16) 0.6361(8) 0.4232(8)
N6A N -0.3279(18) 0.3747(9) 0.5719(8)
C6A C -0.2226(16) 0.4168(8) 0.5394(8)
N7A N -1.0309(12) 0.8221(7) 0.0746(6)
C7A C -0.9813(16) 0.7380(8) 0.0340(9)
H1A H -0.9181 0.6990 0.0677
N8A N -1.1264(12) 0.9897(7) 0.1626(6)
C8A C -1.0194(16) 0.7048(9) -0.0573(9)
H2A H -0.9813 0.6442 -0.0851
N9A N -0.9899(12) 1.0286(7) 0.3286(6)
C9A C -1.1109(16) 0.7592(9) -0.1062(8)
H3A H -1.1387 0.7366 -0.1681
N10A N -1.2627(12) 1.0285(7) 0.0353(6)
C10A C -1.1628(16) 0.8472(9) -0.0654(8)
H4A H -1.2255 0.8864 -0.0990
N11A N -1.2530(12) 1.1379(6) 0.1751(6)
C11A C -1.1230(15) 0.8784(8) 0.0252(8)
N12A N -1.4282(13) 1.1579(7) -0.0450(7)
C12A C -1.1767(15) 0.9700(8) 0.0757(8)
C13A C -1.1637(15) 1.0735(8) 0.2094(8)
C14A C -1.0915(15) 1.0957(8) 0.3039(8)
C15A C -1.1243(16) 1.1805(9) 0.3577(8)
H5A H -1.1970 1.2258 0.3374
C16A C -1.0464(17) 1.1974(9) 0.4432(8)
H6A H -1.0663 1.2551 0.4832
C17A C -0.9411(16) 1.1313(8) 0.4702(8)
H7A H -0.8862 1.1428 0.5284
C18A C -0.9155(16) 1.0465(9) 0.4108(8)
H8A H -0.8429 1.0003 0.4294
C19A C -1.3010(15) 1.1096(8) 0.0867(7)
C20A C -1.3909(15) 1.1849(9) 0.0432(8)
C21A C -1.4276(16) 1.2709(9) 0.0925(9)
H9A H -1.4043 1.2844 0.1557
C22A C -1.4999(16) 1.3377(9) 0.0478(8)
H10A H -1.5217 1.3999 0.0790
C23A C -1.5398(17) 1.3126(9) -0.0432(9)
H11A H -1.5924 1.3566 -0.0755
C24A C -1.5026(16) 1.2243(9) -0.0850(8)
H12A H -1.5313 1.2080 -0.1476
H13A H -0.691(10) 0.924(3) 0.141(7)
H14A H -0.042(14) 0.446(7) 0.323(7)
H15A H -0.661(11) 0.988(6) 0.227(4)
H16A H 0.080(17) 0.383(9) 0.343(8)
Mn1_2 Mn -0.5152(3) 0.29672(14) 0.63067(14)
Mn1A_2 Mn 0.5152(3) 0.70328(14) 0.36933(14)
Mn2_2 Mn -0.0381(3) 0.10916(13) 0.77427(13)
Mn2A_2 Mn 0.0381(3) 0.89084(13) 0.22573(13)
N2_2 N 1.1940(14) 0.1799(7) 0.7217(7)
N2A_2 N -1.1940(14) 0.8201(7) 0.2783(7)
N6_2 N -0.6721(18) 0.6253(9) 0.4281(8)
N6A_2 N 0.6721(18) 0.3747(9) 0.5719(8)
O3 O 0.112(2) 0.5223(10) 0.7870(10)
H17 H 0.2056 0.5110 0.7583
C25 C 0.006(3) 0.4348(16) 0.7837(14)
H18 H 0.0671 0.3915 0.8169
H19 H -0.0122 0.4043 0.7206
H20 H -0.1083 0.4489 0.8114
O4 O -0.321(2) 0.639(2) 0.7042(10)
H21 H -0.3549 0.6411 0.7577
C26 C -0.467(3) 0.6431(16) 0.6479(16)
H22 H -0.5711 0.6132 0.6724
H23 H -0.4435 0.6087 0.5873
H24 H -0.4879 0.7101 0.6445
O5 O 0.4727(12) 0.0042(7) 0.6900(6)
loop_
_geom_bond_atom_site_label_1
_geom_bond_atom_site_label_2
_geom_bond_site_symmetry_1
_geom_bond_site_symmetry_2
Mn1 C1 1_555 1_555
O1 Mn2 1_555 1_555
N1 C1 1_555 1_555
Mn2 N4 1_555 1_555
O2 Mn3 1_555 1_555
N2 C2 1_555 1_555
C2 Mn1 1_555 1_555
Mn3 N5 1_555 1_555
N3 C3 1_555 1_555
C3 Mn1 1_555 1_555
N4 C4 1_555 1_555
C4 Mn1 1_555 1_555
N5 C5 1_555 1_555
C5 Mn1 1_555 1_555
N6 C6 1_555 1_555
C6 Mn3 1_555 1_555
N7 Mn2 1_555 1_555
C7 N7 1_555 1_555
H1 C7 1_555 1_555
N8 Mn2 1_555 1_555
C8 C7 1_555 1_555
H2 C8 1_555 1_555
N9 Mn2 1_555 1_555
C9 C8 1_555 1_555
H3 C9 1_555 1_555
N10 C12 1_555 1_555
C10 C9 1_555 1_555
H4 C10 1_555 1_555
N11 C13 1_555 1_555
C11 N7 1_555 1_555
N12 C20 1_555 1_555
C12 N8 1_555 1_555
C13 N8 1_555 1_555
C14 N9 1_555 1_555
C15 C14 1_555 1_555
H5 C15 1_555 1_555
C16 C15 1_555 1_555
H6 C16 1_555 1_555
C17 C16 1_555 1_555
H7 C17 1_555 1_555
C18 N9 1_555 1_555
H8 C18 1_555 1_555
C19 N10 1_555 1_555
C20 C19 1_555 1_555
C21 C20 1_555 1_555
H9 C21 1_555 1_555
C22 C21 1_555 1_555
H10 C22 1_555 1_555
C23 C22 1_555 1_555
H11 C23 1_555 1_555
C24 N12 1_555 1_555
H12 C24 1_555 1_555
H13 O1 1_555 1_555
H14 O2 1_555 1_555
H15 O1 1_555 1_555
H16 O2 1_555 1_555
O3 H17 1_555 1_555
C25 O3 1_555 1_555
H18 C25 1_555 1_555
H19 C25 1_555 1_555
H20 C25 1_555 1_555
O4 H21 1_555 1_555
C26 O4 1_555 1_555
H22 C26 1_555 1_555
H23 C26 1_555 1_555
H24 C26 1_555 1_555
Mn1A C1A 1_555 1_555
O1A Mn2A 1_555 1_555
N1A C1A 1_555 1_555
Mn2A N4A 1_555 1_555
O2A Mn3 1_555 1_555
N2A C2A 1_555 1_555
C2A Mn1A 1_555 1_555
N3A C3A 1_555 1_555
C3A Mn1A 1_555 1_555
N4A C4A 1_555 1_555
C4A Mn1A 1_555 1_555
N5A Mn3 1_555 1_555
C5A Mn1A 1_555 1_555
N6A C6A 1_555 1_555
C6A Mn3 1_555 1_555
N7A Mn2A 1_555 1_555
C7A N7A 1_555 1_555
H1A C7A 1_555 1_555
N8A Mn2A 1_555 1_555
C8A C7A 1_555 1_555
H2A C8A 1_555 1_555
N9A Mn2A 1_555 1_555
C9A C8A 1_555 1_555
H3A C9A 1_555 1_555
N10A C12A 1_555 1_555
C10A C9A 1_555 1_555
H4A C10A 1_555 1_555
N11A C13A 1_555 1_555
C11A N7A 1_555 1_555
N12A C20A 1_555 1_555
C12A N8A 1_555 1_555
C13A N8A 1_555 1_555
C14A N9A 1_555 1_555
C15A C14A 1_555 1_555
H5A C15A 1_555 1_555
C16A C15A 1_555 1_555
H6A C16A 1_555 1_555
C17A C16A 1_555 1_555
H7A C17A 1_555 1_555
C18A N9A 1_555 1_555
H8A C18A 1_555 1_555
C19A N10A 1_555 1_555
C20A C19A 1_555 1_555
C21A C20A 1_555 1_555
H9A C21A 1_555 1_555
C22A C21A 1_555 1_555
H10A C22A 1_555 1_555
C23A C22A 1_555 1_555
H11A C23A 1_555 1_555
C24A N12A 1_555 1_555
H12A C24A 1_555 1_555
H13A O1A 1_555 1_555
H14A O2A 1_555 1_555
H15A O1A 1_555 1_555
H16A O2A 1_555 1_555
Mn1_2 N6A 1_555 1_555
Mn1A_2 N6 1_555 1_555
Mn2_2 N2 1_555 1_555
Mn2A_2 N2A 1_555 1_555
N2_2 Mn2 1_555 1_555
N2A_2 Mn2A 1_555 1_555
N6_2 Mn1A 1_555 1_555
N6A_2 Mn1 1_555 1_555
C10 C11 1_555 1_555
N11 C19 1_555 1_555
C11 C12 1_555 1_555
C13 C14 1_555 1_555
C17 C18 1_555 1_555
C23 C24 1_555 1_555
N5A C5A 1_555 1_555
C10A C11A 1_555 1_555
N11A C19A 1_555 1_555
C11A C12A 1_555 1_555
C13A C14A 1_555 1_555
C17A C18A 1_555 1_555
C23A C24A 1_555 1_555

#END
