
#######################################################################
#
#                 Cambridge Crystallographic Data Centre
#                                CCDC 
#
#######################################################################
#
# If this CIF has been generated from an entry in the Cambridge 
# Structural Database, then it will include bibliographic, chemical, 
# crystal, experimental, refinement or atomic coordinate data resulting 
# from the CCDC's data processing and validation procedures.
#
#######################################################################

data_SOZJAU
_symmetry_cell_setting           monoclinic
_symmetry_space_group_name_H-M   'P 21/c'
_symmetry_Int_Tables_number      14
_space_group_name_Hall           '-P 2ybc'
loop_
_symmetry_equiv_pos_site_id
_symmetry_equiv_pos_as_xyz
1 x,y,z
2 -x,1/2+y,1/2-z
3 -x,-y,-z
4 x,1/2-y,1/2+z
_cell_length_a                   6.283(5)
_cell_length_b                   18.544(5)
_cell_length_c                   9.741(5)
_cell_angle_alpha                90
_cell_angle_beta                 100.177(5)
_cell_angle_gamma                90
_cell_volume                     1117.09
loop_
_atom_site_label
_atom_site_type_symbol
_atom_site_fract_x
_atom_site_fract_y
_atom_site_fract_z
Ca1 Ca 0.38129(4) 0.13377(2) 0.83092(3)
O1 O 0.68907(18) 0.05959(6) 0.81406(14)
O2 O 1.00479(17) 0.11870(6) 0.85079(12)
O3 O 0.3947(2) 0.07147(7) 1.05237(13)
N1 N 0.6043(2) 0.21646(7) 0.70808(14)
O4 O 0.20387(17) 0.17365(6) 0.58509(11)
O5 O 0.21936(17) 0.24761(6) 0.40314(11)
N2 N 0.62914(19) 0.29596(6) 0.53557(13)
N3 N 1.20166(19) 0.01049(7) 0.72324(13)
C1 C 0.2929(2) 0.22008(7) 0.51946(14)
N4 N 0.7967(2) 0.25243(7) 0.73649(14)
N5 N 0.86846(19) -0.03678(7) 0.64557(13)
C2 C 1.2183(2) -0.04563(8) 0.63975(16)
N6 N 0.9793(2) 0.34309(8) 0.63069(16)
N7 N 1.0221(2) -0.07387(7) 0.59143(13)
C3 C 0.8835(2) 0.06795(8) 0.80216(15)
C4 C 0.8108(2) 0.29887(8) 0.63244(14)
N8 N 1.4044(2) -0.07462(9) 0.61164(19)
C5 C 0.5123(2) 0.24460(7) 0.58859(14)
C6 C 0.9834(2) 0.01227(8) 0.72300(15)
H1 H 0.371(4) 0.0297(10) 1.078(3)
H2 H 0.500(5) 0.0893(18) 1.103(3)
H3 H 0.990(4) 0.3575(12) 0.553(3)
H4 H 1.087(4) 0.3398(14) 0.692(3)
H5 H 1.526(4) -0.0467(14) 0.631(3)
H6 H 1.399(4) -0.1083(16) 0.543(3)
Ca1_2 Ca 1.38129(4) 0.13377(2) 0.83092(3)
Ca1C Ca 0.38129(4) 0.36623(2) 0.33092(3)
O2_2 O 0.00479(17) 0.11870(6) 0.85079(12)
O5C O 0.21936(17) 0.25239(6) 0.90314(11)
N2C N 0.62914(19) 0.20404(6) 1.03557(13)
N3_2 N 0.20166(19) 0.01049(7) 0.72324(13)
loop_
_geom_bond_atom_site_label_1
_geom_bond_atom_site_label_2
_geom_bond_site_symmetry_1
_geom_bond_site_symmetry_2
Ca1 O1 1_555 1_555
O1 C3 1_555 1_555
O2 C3 1_555 1_555
O3 Ca1 1_555 1_555
N1 Ca1 1_555 1_555
O4 Ca1 1_555 1_555
O5 C1 1_555 1_555
N2 C4 1_555 1_555
N3 C2 1_555 1_555
C1 O4 1_555 1_555
N4 N1 1_555 1_555
N5 N7 1_555 1_555
C2 N7 1_555 1_555
N6 C4 1_555 1_555
C3 C6 1_555 1_555
C4 N4 1_555 1_555
N8 C2 1_555 1_555
C5 N1 1_555 1_555
C6 N3 1_555 1_555
H1 O3 1_555 1_555
H2 O3 1_555 1_555
H3 N6 1_555 1_555
H4 N6 1_555 1_555
H5 N8 1_555 1_555
H6 N8 1_555 1_555
Ca1_2 O2 1_555 1_555
Ca1C O5 1_555 1_555
O2_2 Ca1 1_555 1_555
O5C Ca1 1_555 1_555
N2C Ca1 1_555 1_555
N3_2 Ca1 1_555 1_555
N2 C5 1_555 1_555
N2 Ca1C 1_555 1_555
N3 Ca1_2 1_555 1_555
C1 C5 1_555 1_555
N5 C6 1_555 1_555

#END
