
#######################################################################
#
#                 Cambridge Crystallographic Data Centre
#                                CCDC 
#
#######################################################################
#
# If this CIF has been generated from an entry in the Cambridge 
# Structural Database, then it will include bibliographic, chemical, 
# crystal, experimental, refinement or atomic coordinate data resulting 
# from the CCDC's data processing and validation procedures.
#
#######################################################################

data_SOZKAV
_symmetry_cell_setting           triclinic
_symmetry_space_group_name_H-M   'P -1'
_symmetry_Int_Tables_number      2
_space_group_name_Hall           '-P 1'
loop_
_symmetry_equiv_pos_site_id
_symmetry_equiv_pos_as_xyz
1 x,y,z
2 -x,-y,-z
_cell_length_a                   6.6200(13)
_cell_length_b                   10.833(2)
_cell_length_c                   15.663(3)
_cell_angle_alpha                93.96(3)
_cell_angle_beta                 100.16(3)
_cell_angle_gamma                104.66(3)
_cell_volume                     1062
loop_
_atom_site_label
_atom_site_type_symbol
_atom_site_fract_x
_atom_site_fract_y
_atom_site_fract_z
Cd1 Cd 0.15173(4) 0.40261(3) 0.562740(17)
Cd2 Cd 0.41022(4) 0.47703(2) 0.871687(17)
C1 C 0.0355(6) 0.3900(4) 0.3561(2)
C2 C -0.0633(6) 0.2564(4) 0.3775(2)
C3 C -0.1707(6) 0.1561(4) 0.3139(2)
H1 H -0.1753 0.1661 0.2552
C4 C -0.2715(6) 0.0405(4) 0.3388(3)
C5 C -0.2588(6) 0.0286(4) 0.4267(3)
H2 H -0.3268 -0.0479 0.4454
C6 C -0.1439(6) 0.1321(4) 0.4852(2)
C7 C -0.1169(6) 0.1288(4) 0.5833(2)
C8 C 0.4336(6) 0.5840(3) 0.6850(2)
C9 C 0.5698(6) 0.6915(3) 0.7509(2)
C10 C 0.6624(6) 0.8083(4) 0.7270(2)
H3 H 0.6426 0.8220 0.6685
C11 C 0.7862(6) 0.9063(3) 0.7910(2)
C12 C 0.8118(6) 0.8804(4) 0.8773(2)
H4 H 0.8949 0.9433 0.9220
C13 C 0.7125(6) 0.7608(3) 0.8954(2)
C14 C 0.7367(6) 0.7283(4) 0.9881(2)
N1 N -0.0506(5) 0.2443(3) 0.46181(19)
N2 N 0.5925(5) 0.6675(3) 0.83357(19)
O1 O 0.0468(5) 0.4040(3) 0.27996(18)
O2 O 0.0995(4) 0.4787(3) 0.42000(17)
O3 O -0.3826(6) -0.0562(3) 0.2772(2)
H5 H -0.4619 -0.1105 0.2989
O4 O -0.2075(5) 0.0297(3) 0.60917(18)
O5 O -0.0049(5) 0.2288(3) 0.63141(17)
O6 O 0.4055(4) 0.5996(2) 0.60617(16)
O7 O 0.3465(4) 0.4819(2) 0.71135(17)
O8 O 0.8830(5) 1.0221(3) 0.77454(18)
H6 H 0.8479 1.0282 0.7225
O9 O 0.8635(5) 0.8093(3) 1.04477(18)
O10 O 0.6268(4) 0.6212(2) 1.00017(17)
O11 O 0.4317(5) 0.3174(3) 0.5420(2)
H7 H 0.5196 0.3483 0.5822
H8 H 0.4661 0.3632 0.4994
O12 O 0.1270(5) 0.5688(3) 0.88421(19)
H9 H 0.1797 0.6455 0.9160
H10 H 0.0874 0.5784 0.8287
O13 O 0.1765(7) 0.2956(3) 0.8090(2)
H11 H 0.1628 0.2567 0.7593
H12 H 0.1152 0.2498 0.8401
O14 O 0.7009(5) 0.3931(3) 0.8713(2)
H13 H 0.6644 0.3413 0.9077
H14 H 0.8208 0.4495 0.8847
Cd1A Cd -0.15173(4) 0.59739(3) 0.437260(17)
Cd2A Cd 0.58978(4) 0.52297(2) 1.128313(17)
O2A O -0.0995(4) 0.5213(3) 0.58000(17)
O10A O 0.3732(4) 0.3788(2) 0.99983(17)
O15 O 0.7377(7) 0.2070(4) 0.9895(3)
H15 H 0.7297 0.1589 1.0332
H16 H 0.8560 0.2114 0.9711
O16 O 0.3357(8) 0.7058(5) 0.2964(3)
H17 H 0.2998 0.6216 0.2843
H18 H 0.2190 0.7300 0.3016
O17 O 0.6310(7) 0.9774(4) 0.1104(3)
H19 H 0.5157 0.9203 0.0766
H20 H 0.7463 0.9536 0.1012
loop_
_geom_bond_atom_site_label_1
_geom_bond_atom_site_label_2
_geom_bond_site_symmetry_1
_geom_bond_site_symmetry_2
Cd1 N1 1_555 1_555
Cd2 N2 1_555 1_555
C1 C2 1_555 1_555
C2 C3 1_555 1_555
C3 H1 1_555 1_555
C4 C3 1_555 1_555
C5 C4 1_555 1_555
H2 C5 1_555 1_555
C6 C5 1_555 1_555
C7 C6 1_555 1_555
C8 C9 1_555 1_555
C9 C10 1_555 1_555
C10 H3 1_555 1_555
C11 C10 1_555 1_555
C12 C11 1_555 1_555
H4 C12 1_555 1_555
C13 C12 1_555 1_555
C14 C13 1_555 1_555
N1 C2 1_555 1_555
N2 C9 1_555 1_555
O1 C1 1_555 1_555
O2 Cd1 1_555 1_555
O3 C4 1_555 1_555
H5 O3 1_555 1_555
O4 C7 1_555 1_555
O5 Cd1 1_555 1_555
O6 Cd1 1_555 1_555
O7 Cd1 1_555 1_555
O8 C11 1_555 1_555
H6 O8 1_555 1_555
O9 C14 1_555 1_555
O10 Cd2 1_555 1_555
O11 Cd1 1_555 1_555
H7 O11 1_555 1_555
H8 O11 1_555 1_555
O12 Cd2 1_555 1_555
H9 O12 1_555 1_555
H10 O12 1_555 1_555
O13 Cd2 1_555 1_555
H11 O13 1_555 1_555
H12 O13 1_555 1_555
O14 Cd2 1_555 1_555
H13 O14 1_555 1_555
H14 O14 1_555 1_555
O15 H15 1_555 1_555
H16 O15 1_555 1_555
O16 H17 1_555 1_555
H18 O16 1_555 1_555
O17 H19 1_555 1_555
H20 O17 1_555 1_555
Cd1A O2 1_555 1_555
Cd2A O10 1_555 1_555
O2A Cd1 1_555 1_555
O10A Cd2 1_555 1_555
Cd2 O7 1_555 1_555
C1 O2 1_555 1_555
C6 N1 1_555 1_555
C7 O5 1_555 1_555
C8 O6 1_555 1_555
C8 O7 1_555 1_555
C13 N2 1_555 1_555
C14 O10 1_555 1_555
Cd1A O2A 1_555 1_555
Cd2A O10A 1_555 1_555

#END
