
#######################################################################
#
#                 Cambridge Crystallographic Data Centre
#                                CCDC 
#
#######################################################################
#
# If this CIF has been generated from an entry in the Cambridge 
# Structural Database, then it will include bibliographic, chemical, 
# crystal, experimental, refinement or atomic coordinate data resulting 
# from the CCDC's data processing and validation procedures.
#
#######################################################################

data_SOZKOJ
_symmetry_cell_setting           triclinic
_symmetry_space_group_name_H-M   'P -1'
_symmetry_Int_Tables_number      2
_space_group_name_Hall           '-P 1'
loop_
_symmetry_equiv_pos_site_id
_symmetry_equiv_pos_as_xyz
1 x,y,z
2 -x,-y,-z
_cell_length_a                   7.3806(6)
_cell_length_b                   9.3367(8)
_cell_length_c                   14.1223(11)
_cell_angle_alpha                91.363(4)
_cell_angle_beta                 99.060(4)
_cell_angle_gamma                112.882(3)
_cell_volume                     881.533
loop_
_atom_site_label
_atom_site_type_symbol
_atom_site_fract_x
_atom_site_fract_y
_atom_site_fract_z
Zn1 Zn 0.81391(7) 0.80525(5) 0.22013(3)
S1 S 0.72829(16) 0.58846(12) 0.11461(8)
S2 S 0.80514(18) 0.97353(13) 0.10244(8)
O1 O 1.0910(5) 0.9035(4) 0.2959(2)
O2 O 1.0319(5) 0.6896(4) 0.3719(3)
O3 O 1.7049(5) 0.8267(4) 0.3357(2)
O4 O 1.3934(5) 0.7823(4) 0.2639(3)
C1 C 0.6085(6) 0.4203(5) 0.1654(3)
C2 C 0.5273(7) 0.2768(5) 0.1078(3)
H1 H 0.5493 0.2722 0.0450
C3 C 0.4156(7) 0.1440(5) 0.1458(3)
H2 H 0.3570 0.0502 0.1067
N1 N 0.3883(6) 0.1450(5) 0.2372(3)
C4 C 0.4689(8) 0.2824(6) 0.2963(4)
H3 H 0.4477 0.2826 0.3595
C5 C 0.5795(8) 0.4176(6) 0.2621(4)
H4 H 0.6369 0.5096 0.3028
C6 C 0.9298(6) 1.1639(5) 0.1515(3)
C7 C 0.9522(8) 1.2142(6) 0.2474(4)
H5 H 0.9007 1.1423 0.2908
C8 C 1.0510(11) 1.3714(7) 0.2787(5)
H6 H 1.0641 1.4044 0.3431
N2 N 1.1260(8) 1.4740(7) 0.2191(4)
C9 C 1.1135(9) 1.4290(7) 0.1248(5)
H7 H 1.1739 1.5018 0.0835
C10 C 1.0132(8) 1.2788(7) 0.0929(4)
H8 H 0.9986 1.2499 0.0278
C11 C 1.1400(6) 0.8243(5) 0.3630(3)
C12 C 1.3291(6) 0.9151(4) 0.4322(3)
C13 C 1.3140(6) 0.9962(5) 0.5117(3)
H9 H 1.1898 0.9938 0.5190
C14 C 1.5164(6) 0.9178(5) 0.4181(3)
C15 C 1.5340(6) 0.8323(5) 0.3314(3)
O1A O 1.9090(5) 1.0965(4) 0.7041(2)
O2A O 1.9681(5) 1.3104(4) 0.6281(3)
C11A C 1.8600(6) 1.1757(5) 0.6370(3)
C12A C 1.6709(6) 1.0849(4) 0.5678(3)
C13A C 1.6860(6) 1.0038(5) 0.4883(3)
H9A H 1.8102 1.0062 0.4810
C14A C 1.4836(6) 1.0822(5) 0.5819(3)
O3A O 1.2951(5) 1.1733(4) 0.6643(2)
O4A O 1.6066(5) 1.2177(4) 0.7361(3)
C15A C 1.4660(6) 1.1677(5) 0.6686(3)
Zn1A Zn 1.18609(7) 1.19475(5) 0.77987(3)
S1A S 1.27171(16) 1.41154(12) 0.88539(8)
S2A S 1.19486(18) 1.02647(13) 0.89756(8)
C1A C 1.3915(6) 1.5797(5) 0.8346(3)
C2A C 1.4727(7) 1.7232(5) 0.8922(3)
H1A H 1.4507 1.7278 0.9550
C3A C 1.5844(7) 1.8560(5) 0.8542(3)
H2A H 1.6430 1.9498 0.8933
N1A N 1.6117(6) 1.8550(5) 0.7628(3)
C4A C 1.5311(8) 1.7176(6) 0.7037(4)
H3A H 1.5523 1.7174 0.6405
C5A C 1.4205(8) 1.5824(6) 0.7379(4)
H4A H 1.3631 1.4904 0.6972
C6A C 1.0702(6) 0.8361(5) 0.8485(3)
C7A C 1.0478(8) 0.7858(6) 0.7526(4)
H5A H 1.0993 0.8577 0.7092
C8A C 0.9490(11) 0.6286(7) 0.7213(5)
H6A H 0.9359 0.5956 0.6569
N2A N 0.8740(8) 0.5260(7) 0.7809(4)
C9A C 0.8865(9) 0.5710(7) 0.8752(5)
H7A H 0.8261 0.4982 0.9165
C10A C 0.9868(8) 0.7212(7) 0.9071(4)
H8A H 1.0014 0.7501 0.9722
Zn1_2 Zn 1.81391(7) 0.80525(5) 0.22013(3)
Zn1A_2 Zn 2.18609(7) 1.19475(5) 0.77987(3)
O1A_2 O 0.9090(5) 1.0965(4) 0.7041(2)
O3_2 O 0.7049(5) 0.8267(4) 0.3357(2)
O5 O 0.3364(13) 0.3730(11) 0.4961(6)
O6 O 0.8579(17) 0.4637(14) 0.4874(9)
loop_
_geom_bond_atom_site_label_1
_geom_bond_atom_site_label_2
_geom_bond_site_symmetry_1
_geom_bond_site_symmetry_2
Zn1 S1 1_555 1_555
S1 C1 1_555 1_555
S2 Zn1 1_555 1_555
O1 Zn1 1_555 1_555
O2 C11 1_555 1_555
O3 C15 1_555 1_555
O4 C15 1_555 1_555
C1 C2 1_555 1_555
C2 H1 1_555 1_555
C3 C2 1_555 1_555
H2 C3 1_555 1_555
N1 C3 1_555 1_555
C4 N1 1_555 1_555
H3 C4 1_555 1_555
C5 C1 1_555 1_555
H4 C5 1_555 1_555
C6 S2 1_555 1_555
C7 C6 1_555 1_555
H5 C7 1_555 1_555
C8 C7 1_555 1_555
H6 C8 1_555 1_555
N2 C8 1_555 1_555
C9 N2 1_555 1_555
H7 C9 1_555 1_555
C10 C6 1_555 1_555
H8 C10 1_555 1_555
C11 O1 1_555 1_555
C12 C11 1_555 1_555
C13 C12 1_555 1_555
H9 C13 1_555 1_555
C14 C12 1_555 1_555
C15 C14 1_555 1_555
O1A C11A 1_555 1_555
O2A C11A 1_555 1_555
C11A C12A 1_555 1_555
C12A C13A 1_555 1_555
C13A C14 1_555 1_555
H9A C13A 1_555 1_555
C14A C13 1_555 1_555
O3A C15A 1_555 1_555
O4A C15A 1_555 1_555
C15A C14A 1_555 1_555
Zn1A O3A 1_555 1_555
S1A Zn1A 1_555 1_555
S2A Zn1A 1_555 1_555
C1A S1A 1_555 1_555
C2A C1A 1_555 1_555
H1A C2A 1_555 1_555
C3A C2A 1_555 1_555
H2A C3A 1_555 1_555
N1A C3A 1_555 1_555
C4A N1A 1_555 1_555
H3A C4A 1_555 1_555
C5A C1A 1_555 1_555
H4A C5A 1_555 1_555
C6A S2A 1_555 1_555
C7A C6A 1_555 1_555
H5A C7A 1_555 1_555
C8A C7A 1_555 1_555
H6A C8A 1_555 1_555
N2A C8A 1_555 1_555
C9A N2A 1_555 1_555
H7A C9A 1_555 1_555
C10A C6A 1_555 1_555
H8A C10A 1_555 1_555
Zn1_2 O3 1_555 1_555
Zn1A_2 O1A 1_555 1_555
O1A_2 Zn1A 1_555 1_555
O3_2 Zn1 1_555 1_555
C4 C5 1_555 1_555
C9 C10 1_555 1_555
C12A C14A 1_555 1_555
C4A C5A 1_555 1_555
C9A C10A 1_555 1_555

#END
