
#######################################################################
#
#                 Cambridge Crystallographic Data Centre
#                                CCDC 
#
#######################################################################
#
# If this CIF has been generated from an entry in the Cambridge 
# Structural Database, then it will include bibliographic, chemical, 
# crystal, experimental, refinement or atomic coordinate data resulting 
# from the CCDC's data processing and validation procedures.
#
#######################################################################

data_SOZLAW
_symmetry_cell_setting           triclinic
_symmetry_space_group_name_H-M   'P -1'
_symmetry_Int_Tables_number      2
_space_group_name_Hall           '-P 1'
loop_
_symmetry_equiv_pos_site_id
_symmetry_equiv_pos_as_xyz
1 x,y,z
2 -x,-y,-z
_cell_length_a                   10.213(2)
_cell_length_b                   12.052(2)
_cell_length_c                   12.392(3)
_cell_angle_alpha                82.97(3)
_cell_angle_beta                 76.04(3)
_cell_angle_gamma                78.02(3)
_cell_volume                     1443.8
loop_
_atom_site_label
_atom_site_type_symbol
_atom_site_fract_x
_atom_site_fract_y
_atom_site_fract_z
C1 C 1.1255(3) 0.5722(3) 0.3380(3)
C2 C 1.2090(4) 0.4748(3) 0.3692(3)
H1 H 1.1738 0.4083 0.3915
C3 C 1.3451(4) 0.4748(3) 0.3677(3)
H2 H 1.4005 0.4092 0.3909
C4 C 1.3979(3) 0.5734(3) 0.3314(3)
C5 C 1.3166(4) 0.6703(3) 0.2953(3)
H3 H 1.3539 0.7349 0.2674
C6 C 1.1786(3) 0.6712(3) 0.3009(3)
H4 H 1.1222 0.7374 0.2800
C7 C 0.9769(3) 0.5726(3) 0.3416(3)
C8 C 1.5440(3) 0.5751(3) 0.3316(3)
C9 C 0.9289(4) 0.9278(4) 0.0773(3)
C10 C 0.9927(6) 0.8944(5) -0.0265(4)
H5 H 0.9893 0.8229 -0.0456
C11 C 0.9369(6) 1.0325(5) 0.1042(4)
H6 H 0.8948 1.0553 0.1753
C12 C 0.8503(5) 0.8494(5) 0.1613(4)
C13 C 0.9600(4) 0.0979(3) 0.4353(3)
C14 C 1.0639(5) 0.0125(4) 0.3883(4)
H7 H 1.1075 0.0203 0.3134
C15 C 0.8977(5) 0.0846(4) 0.5457(3)
H8 H 0.8281 0.1421 0.5772
C16 C 0.9201(4) 0.2046(3) 0.3648(3)
C17 C 0.8283(4) 0.5235(3) 0.0846(3)
H9 H 0.8795 0.5702 0.1040
C18 C 0.7152(6) 0.3906(4) 0.0892(4)
H10 H 0.6730 0.3278 0.1132
C19 C 0.7136(6) 0.4536(5) -0.0078(4)
H11 H 0.6718 0.4418 -0.0631
C20 C 0.8034(5) 0.6328(4) -0.0938(3)
H12 H 0.8298 0.6034 -0.1670
H13 H 0.8782 0.6661 -0.0844
C21 C 0.6788(4) 0.7243(4) -0.0900(3)
C22 C 0.5736(5) 0.7424(5) 0.0055(3)
H14 H 0.5779 0.6950 0.0701
C23 C 0.4646(6) 0.8296(6) 0.0038(4)
H15 H 0.3951 0.8404 0.0677
C24 C 0.4549(5) 0.9019(5) -0.0900(4)
H16 H 0.3792 0.9602 -0.0895
C25 C 0.5594(4) 0.8871(4) -0.1855(3)
C26 C 0.6687(4) 0.7979(4) -0.1839(3)
H17 H 0.7378 0.7869 -0.2481
C27 C 0.5511(5) 0.9657(4) -0.2895(3)
H18 H 0.4704 1.0251 -0.2739
H19 H 0.6312 1.0017 -0.3107
C28 C 0.6462(4) 0.8695(3) -0.4682(3)
H20 H 0.7334 0.8874 -0.4823
C29 C 0.4728(4) 0.8011(4) -0.4820(3)
H21 H 0.4183 0.7622 -0.5079
C30 C 0.4320(4) 0.8614(4) -0.3904(3)
H22 H 0.3456 0.8718 -0.3426
Zn1 Zn 0.72463(4) 0.73975(3) 0.32757(3)
Zn2 Zn 0.80175(4) 0.40981(3) 0.30826(3)
N1 N 0.7904(3) 0.4345(3) 0.1476(3)
N2 N 0.7852(4) 0.5388(3) -0.0100(3)
N3 N 0.6067(3) 0.8066(3) -0.5303(2)
N4 N 0.5441(3) 0.9039(3) -0.3825(2)
O1 O 0.8931(2) 0.6591(2) 0.3723(2)
O2 O 0.9514(3) 0.4845(3) 0.3131(3)
O3 O 1.6133(2) 0.4889(2) 0.3724(2)
O4 O 1.5888(2) 0.6650(2) 0.2901(2)
O5 O 0.7777(4) 0.8869(4) 0.2482(3)
O6 O 0.8660(5) 0.7484(4) 0.1422(3)
O7 O 0.8148(3) 0.2749(2) 0.4086(3)
O8 O 0.9895(4) 0.2227(3) 0.2706(3)
C9A C 1.0711(4) 1.0722(4) -0.0773(3)
C10A C 1.0073(6) 1.1056(5) 0.0265(4)
H5A H 1.0107 1.1771 0.0456
C11A C 1.0631(6) 0.9675(5) -0.1042(4)
H6A H 1.1052 0.9447 -0.1753
C12A C 1.1497(5) 1.1506(5) -0.1613(4)
O5A O 1.2223(4) 1.1131(4) -0.2482(3)
O6A O 1.1340(5) 1.2516(4) -0.1422(3)
C13A C 1.0400(4) -0.0979(3) 0.5647(3)
C14A C 0.9361(5) -0.0125(4) 0.6117(4)
H7A H 0.8925 -0.0203 0.6866
C15A C 1.1023(5) -0.0846(4) 0.4543(3)
H8A H 1.1719 -0.1421 0.4228
C16A C 1.0799(4) -0.2046(3) 0.6352(3)
O7A O 1.1852(3) -0.2749(2) 0.5914(3)
O8A O 1.0105(4) -0.2227(3) 0.7294(3)
C1A C 0.8745(3) -0.5722(3) 0.6620(3)
C2A C 0.7910(4) -0.4748(3) 0.6308(3)
H1A H 0.8262 -0.4083 0.6085
C3A C 0.6549(4) -0.4748(3) 0.6323(3)
H2A H 0.5995 -0.4092 0.6091
C4A C 0.6021(3) -0.5734(3) 0.6686(3)
C5A C 0.6834(4) -0.6703(3) 0.7047(3)
H3A H 0.6461 -0.7349 0.7326
C6A C 0.8214(3) -0.6712(3) 0.6991(3)
H4A H 0.8778 -0.7374 0.7200
C7A C 1.0231(3) -0.5726(3) 0.6584(3)
C8A C 0.4560(3) -0.5751(3) 0.6684(3)
C17A C 1.1717(4) -0.5235(3) 0.9154(3)
H9A H 1.1205 -0.5702 0.8960
C18A C 1.2848(6) -0.3906(4) 0.9108(4)
H10A H 1.3270 -0.3278 0.8868
C19A C 1.2864(6) -0.4536(5) 1.0078(4)
H11A H 1.3282 -0.4418 1.0631
C20A C 1.1966(5) -0.6328(4) 1.0938(3)
H12A H 1.1702 -0.6034 1.1670
H13A H 1.1218 -0.6661 1.0844
C21A C 1.3212(4) -0.7243(4) 1.0900(3)
C22A C 1.4264(5) -0.7424(5) 0.9945(3)
H14A H 1.4221 -0.6950 0.9299
C23A C 1.5354(6) -0.8296(6) 0.9962(4)
H15A H 1.6049 -0.8404 0.9323
C24A C 1.5451(5) -0.9019(5) 1.0900(4)
H16A H 1.6208 -0.9602 1.0895
C25A C 1.4406(4) -0.8871(4) 1.1855(3)
C26A C 1.3313(4) -0.7979(4) 1.1839(3)
H17A H 1.2622 -0.7869 1.2481
C27A C 1.4489(5) -0.9657(4) 1.2895(3)
H18A H 1.5296 -1.0251 1.2739
H19A H 1.3688 -1.0017 1.3107
C28A C 1.3538(4) -0.8695(3) 1.4682(3)
H20A H 1.2666 -0.8874 1.4823
C29A C 1.5272(4) -0.8011(4) 1.4820(3)
H21A H 1.5817 -0.7622 1.5079
C30A C 1.5680(4) -0.8614(4) 1.3904(3)
H22A H 1.6544 -0.8718 1.3426
Zn1A Zn 1.27537(4) -0.73975(3) 0.67243(3)
Zn2A Zn 1.19825(4) -0.40981(3) 0.69174(3)
N1A N 1.2096(3) -0.4345(3) 0.8524(3)
N2A N 1.2148(4) -0.5388(3) 1.0100(3)
N3A N 1.3933(3) -0.8066(3) 1.5303(2)
N4A N 1.4559(3) -0.9039(3) 1.3825(2)
O1A O 1.1069(2) -0.6591(2) 0.6277(2)
O2A O 1.0486(3) -0.4845(3) 0.6869(3)
O3A O 0.3867(2) -0.4889(2) 0.6276(2)
O4A O 0.4112(2) -0.6650(2) 0.7099(2)
Zn1_2 Zn 0.72463(4) 0.73975(3) -0.67243(3)
Zn1_3 Zn 1.72463(4) 0.73975(3) 0.32757(3)
Zn1A_2 Zn 0.27537(4) -0.73975(3) 0.67243(3)
Zn1A_3 Zn 1.27537(4) -0.73975(3) 1.67243(3)
Zn1A_4 Zn 1.27537(4) 1.26025(3) -0.32757(3)
Zn2_2 Zn 1.80175(4) 0.40981(3) 0.30826(3)
Zn2A_2 Zn 0.19825(4) -0.40981(3) 0.69174(3)
N3_2 N 0.6067(3) 0.8066(3) 0.4697(2)
N3A_2 N 1.3933(3) -0.8066(3) 0.5303(2)
O3_2 O 0.6133(2) 0.4889(2) 0.3724(2)
O3A_2 O 1.3867(2) -0.4889(2) 0.6276(2)
O4_2 O 0.5888(2) 0.6650(2) 0.2901(2)
O4A_2 O 1.4112(2) -0.6650(2) 0.7099(2)
O5A_2 O 1.2223(4) -0.8869(4) 0.7518(3)
O6A_2 O 1.1340(5) -0.7484(4) 0.8578(3)
loop_
_geom_bond_atom_site_label_1
_geom_bond_atom_site_label_2
_geom_bond_site_symmetry_1
_geom_bond_site_symmetry_2
C1 C2 1_555 1_555
C2 H1 1_555 1_555
C3 C2 1_555 1_555
H2 C3 1_555 1_555
C4 C3 1_555 1_555
C5 C4 1_555 1_555
H3 C5 1_555 1_555
C6 C1 1_555 1_555
H4 C6 1_555 1_555
C7 C1 1_555 1_555
C8 C4 1_555 1_555
C9 C10 1_555 1_555
C10 H5 1_555 1_555
C11 C9 1_555 1_555
H6 C11 1_555 1_555
C12 C9 1_555 1_555
C13 C14 1_555 1_555
C14 H7 1_555 1_555
C15 C13 1_555 1_555
H8 C15 1_555 1_555
C16 C13 1_555 1_555
C17 H9 1_555 1_555
C18 H10 1_555 1_555
C19 C18 1_555 1_555
H11 C19 1_555 1_555
C20 H12 1_555 1_555
H13 C20 1_555 1_555
C21 C20 1_555 1_555
C22 C21 1_555 1_555
H14 C22 1_555 1_555
C23 C22 1_555 1_555
H15 C23 1_555 1_555
C24 C23 1_555 1_555
H16 C24 1_555 1_555
C25 C24 1_555 1_555
C26 C21 1_555 1_555
H17 C26 1_555 1_555
C27 C25 1_555 1_555
H18 C27 1_555 1_555
H19 C27 1_555 1_555
C28 H20 1_555 1_555
C29 H21 1_555 1_555
C30 C29 1_555 1_555
H22 C30 1_555 1_555
Zn1 O1 1_555 1_555
Zn2 N1 1_555 1_555
N1 C17 1_555 1_555
N2 C17 1_555 1_555
N3 C28 1_555 1_555
N4 C27 1_555 1_555
O1 C7 1_555 1_555
O2 C7 1_555 1_555
O3 C8 1_555 1_555
O4 C8 1_555 1_555
O5 C12 1_555 1_555
O6 C12 1_555 1_555
O7 C16 1_555 1_555
O8 C16 1_555 1_555
C9A C10A 1_555 1_555
C10A C11 1_555 1_555
H5A C10A 1_555 1_555
C11A C10 1_555 1_555
H6A C11A 1_555 1_555
C12A C9A 1_555 1_555
O5A C12A 1_555 1_555
O6A C12A 1_555 1_555
C13A C14A 1_555 1_555
C14A C15 1_555 1_555
H7A C14A 1_555 1_555
C15A C14 1_555 1_555
H8A C15A 1_555 1_555
C16A C13A 1_555 1_555
O7A C16A 1_555 1_555
O8A C16A 1_555 1_555
C1A C2A 1_555 1_555
C2A H1A 1_555 1_555
C3A C2A 1_555 1_555
H2A C3A 1_555 1_555
C4A C3A 1_555 1_555
C5A C4A 1_555 1_555
H3A C5A 1_555 1_555
C6A C1A 1_555 1_555
H4A C6A 1_555 1_555
C7A C1A 1_555 1_555
C8A C4A 1_555 1_555
C17A H9A 1_555 1_555
C18A H10A 1_555 1_555
C19A C18A 1_555 1_555
H11A C19A 1_555 1_555
C20A H12A 1_555 1_555
H13A C20A 1_555 1_555
C21A C20A 1_555 1_555
C22A C21A 1_555 1_555
H14A C22A 1_555 1_555
C23A C22A 1_555 1_555
H15A C23A 1_555 1_555
C24A C23A 1_555 1_555
H16A C24A 1_555 1_555
C25A C24A 1_555 1_555
C26A C21A 1_555 1_555
H17A C26A 1_555 1_555
C27A C25A 1_555 1_555
H18A C27A 1_555 1_555
H19A C27A 1_555 1_555
C28A H20A 1_555 1_555
C29A H21A 1_555 1_555
C30A C29A 1_555 1_555
H22A C30A 1_555 1_555
Zn1A O1A 1_555 1_555
Zn2A O7A 1_555 1_555
N1A C17A 1_555 1_555
N2A C17A 1_555 1_555
N3A C28A 1_555 1_555
N4A C27A 1_555 1_555
O1A C7A 1_555 1_555
O2A C7A 1_555 1_555
O3A C8A 1_555 1_555
O4A C8A 1_555 1_555
Zn1_2 N3 1_555 1_555
Zn1_3 O4 1_555 1_555
Zn1A_2 O4A 1_555 1_555
Zn1A_3 N3A 1_555 1_555
Zn1A_4 O5A 1_555 1_555
Zn2_2 O3 1_555 1_555
Zn2A_2 O3A 1_555 1_555
N3_2 Zn1 1_555 1_555
N3A_2 Zn1A 1_555 1_555
O3_2 Zn2 1_555 1_555
O3A_2 Zn2A 1_555 1_555
O4_2 Zn1 1_555 1_555
O4A_2 Zn1A 1_555 1_555
O5A_2 Zn1A 1_555 1_555
O6A_2 Zn1A 1_555 1_555
C5 C6 1_555 1_555
C18 N1 1_555 1_555
C19 N2 1_555 1_555
C20 N2 1_555 1_555
C25 C26 1_555 1_555
C28 N4 1_555 1_555
C29 N3 1_555 1_555
C30 N4 1_555 1_555
Zn1 O5 1_555 1_555
Zn1 O6 1_555 1_555
Zn2 O2 1_555 1_555
Zn2 O7 1_555 1_555
C9A C11A 1_555 1_555
O6A Zn1A_4 1_555 1_555
C13A C15A 1_555 1_555
C5A C6A 1_555 1_555
C18A N1A 1_555 1_555
C19A N2A 1_555 1_555
C20A N2A 1_555 1_555
C25A C26A 1_555 1_555
C28A N4A 1_555 1_555
C29A N3A 1_555 1_555
C30A N4A 1_555 1_555
Zn2A N1A 1_555 1_555
Zn2A O2A 1_555 1_555

#END
