
#######################################################################
#
#                 Cambridge Crystallographic Data Centre
#                                CCDC 
#
#######################################################################
#
# If this CIF has been generated from an entry in the Cambridge 
# Structural Database, then it will include bibliographic, chemical, 
# crystal, experimental, refinement or atomic coordinate data resulting 
# from the CCDC's data processing and validation procedures.
#
#######################################################################

data_SOZRUW
_symmetry_cell_setting           cubic
_symmetry_space_group_name_H-M   'P 21 3'
_symmetry_Int_Tables_number      198
_space_group_name_Hall           'P 2ac 2ab 3'
loop_
_symmetry_equiv_pos_site_id
_symmetry_equiv_pos_as_xyz
1 x,y,z
2 1/2-x,-y,1/2+z
3 -x,1/2+y,1/2-z
4 1/2+x,1/2-y,-z
5 z,x,y
6 1/2+z,1/2-x,-y
7 1/2-z,-x,1/2+y
8 -z,1/2+x,1/2-y
9 y,z,x
10 -y,1/2+z,1/2-x
11 1/2+y,1/2-z,-x
12 1/2-y,-z,1/2+x
_cell_length_a                   20.4926(12)
_cell_length_b                   20.4926(12)
_cell_length_c                   20.4926(12)
_cell_angle_alpha                90
_cell_angle_beta                 90
_cell_angle_gamma                90
_cell_volume                     8605.8
loop_
_atom_site_label
_atom_site_type_symbol
_atom_site_fract_x
_atom_site_fract_y
_atom_site_fract_z
Sm1 Sm 0.153324(13) 0.846676(13) 0.346676(13)
O1 O 0.1338(3) 0.8081(3) 0.2438(2)
O2 O 0.0612(3) 0.8811(2) 0.2123(3)
O3 O 0.1676(3) 0.8668(3) 0.4574(2)
N1 N -0.0021(2) 0.6515(2) 0.0112(2)
H1 H -0.0389 0.6649 -0.0062
N2 N -0.0099(2) 0.5760(2) -0.0687(2)
N3 N 0.1940(4) 0.9155(4) 0.5482(4)
C1 C 0.0873(3) 0.8270(3) 0.2074(3)
C2 C 0.0656(3) 0.7799(3) 0.1561(3)
C3 C 0.0146(3) 0.7960(3) 0.1145(3)
H2 H -0.0057 0.8374 0.1182
C4 C -0.0067(3) 0.7528(3) 0.0681(3)
H3 H -0.0414 0.7648 0.0397
C5 C 0.0223(3) 0.6905(3) 0.0621(3)
C6 C 0.0741(3) 0.6757(3) 0.1046(3)
H4 H 0.0958 0.6349 0.1008
C7 C 0.0933(3) 0.7186(3) 0.1507(3)
H5 H 0.1267 0.7063 0.1803
C8 C 0.0231(3) 0.5962(3) -0.0148(3)
C9 C 0.2085(4) 0.8775(4) 0.5027(4)
C10 C 0.2725(4) 0.8431(5) 0.5061(6)
H6 H 0.2768 0.8137 0.4686
H7 H 0.2748 0.8177 0.5465
H8 H 0.3079 0.8752 0.5053
C11 C 0.1279(5) 0.9497(5) 0.5430(5)
H9 H 0.1049 0.9341 0.5041
H10 H 0.1346 0.9970 0.5396
H11 H 0.1018 0.9401 0.5819
C12 C 0.2352(7) 0.9325(6) 0.6063(5)
H12 H 0.2227 0.9048 0.6433
H13 H 0.2284 0.9784 0.6178
H14 H 0.2813 0.9253 0.5959
O1G O -0.2438(2) 0.6338(3) -0.3081(3)
O2G O -0.2123(3) 0.5612(3) -0.3811(2)
N1G N -0.0112(2) 0.4979(2) -0.1515(2)
H1G H 0.0062 0.4611 -0.1649
N2G N 0.0687(2) 0.4901(2) -0.0760(2)
C1G C -0.2074(3) 0.5873(3) -0.3270(3)
C2G C -0.1561(3) 0.5656(3) -0.2799(3)
C3G C -0.1145(3) 0.5146(3) -0.2960(3)
H2G H -0.1182 0.4943 -0.3374
C4G C -0.0681(3) 0.4933(3) -0.2528(3)
H3G H -0.0397 0.4586 -0.2648
C5G C -0.0621(3) 0.5223(3) -0.1905(3)
C6G C -0.1046(3) 0.5741(3) -0.1757(3)
H4G H -0.1008 0.5958 -0.1349
C7G C -0.1507(3) 0.5933(3) -0.2186(3)
H5G H -0.1803 0.6267 -0.2063
C8G C 0.0148(3) 0.5231(3) -0.0962(3)
O1J O 0.3081(3) 0.2562(2) -0.1338(3)
O2J O 0.3811(2) 0.2877(3) -0.0612(3)
N1J N 0.1515(2) 0.4888(2) 0.0021(2)
H1J H 0.1649 0.5062 0.0389
N2J N 0.0760(2) 0.5687(2) 0.0099(2)
C1J C 0.3270(3) 0.2926(3) -0.0873(3)
C2J C 0.2799(3) 0.3439(3) -0.0656(3)
C3J C 0.2960(3) 0.3855(3) -0.0146(3)
H2J H 0.3374 0.3818 0.0057
C4J C 0.2528(3) 0.4319(3) 0.0067(3)
H3J H 0.2648 0.4603 0.0414
C5J C 0.1905(3) 0.4379(3) -0.0223(3)
C6J C 0.1757(3) 0.3954(3) -0.0741(3)
H4J H 0.1349 0.3992 -0.0958
C7J C 0.2186(3) 0.3493(3) -0.0933(3)
H5J H 0.2063 0.3197 -0.1267
C8J C 0.0962(3) 0.5148(3) -0.0231(3)
O3F O 0.0426(2) 0.8324(3) 0.3668(3)
N3F N -0.0482(4) 0.8060(4) 0.4155(4)
C9F C -0.0027(4) 0.7915(4) 0.3775(4)
C10F C -0.0061(6) 0.7275(4) 0.3431(5)
H6F H 0.0314 0.7232 0.3137
H7F H -0.0465 0.7252 0.3177
H8F H -0.0053 0.6921 0.3752
C11F C -0.0430(5) 0.8721(5) 0.4497(5)
H9F H -0.0041 0.8951 0.4341
H10F H -0.0396 0.8654 0.4970
H11F H -0.0819 0.8982 0.4401
C12F C -0.1063(5) 0.7648(7) 0.4325(6)
H12F H -0.1433 0.7773 0.4048
H13F H -0.1178 0.7716 0.4784
H14F H -0.0959 0.7187 0.4253
O3I O 0.1332(3) 0.9574(2) 0.3324(3)
N3I N 0.0845(4) 1.0482(4) 0.3060(4)
C9I C 0.1225(4) 1.0027(4) 0.2915(4)
C10I C 0.1569(5) 1.0061(6) 0.2275(4)
H6I H 0.1863 0.9686 0.2232
H7I H 0.1823 1.0465 0.2252
H8I H 0.1248 1.0053 0.1921
C11I C 0.0503(5) 1.0430(5) 0.3721(5)
H9I H 0.0659 1.0041 0.3951
H10I H 0.0030 1.0396 0.3654
H11I H 0.0599 1.0819 0.3982
C12I C 0.0675(6) 1.1063(5) 0.2648(7)
H12I H 0.0952 1.1433 0.2773
H13I H 0.0216 1.1178 0.2716
H14I H 0.0747 1.0959 0.2187
Sm1A Sm 0.346676(13) 0.153324(13) -0.153324(13)
Sm1C Sm -0.346676(13) 0.653324(13) -0.346676(13)
O1F O 0.2562(2) 0.8662(3) 0.3081(3)
O1I O 0.1919(3) 0.7438(2) 0.3662(3)
Sm2 Sm 0.333571(11) 0.666429(11) 0.166429(11)
O4 O 0.2344(2) 0.6171(2) 0.1794(2)
O5 O 0.2086(2) 0.5332(2) 0.1162(2)
O6 O 0.26322(18) 0.73678(18) 0.23678(18)
H15 H 0.2544 0.7143 0.2780
O7 O 0.3246(2) 0.6339(2) 0.05505(19)
N4 N 0.0073(2) 0.4904(2) 0.3497(2)
H16 H -0.0118 0.4536 0.3384
N5 N 0.0116(2) 0.5710(2) 0.4295(2)
N6 N 0.3068(4) 0.5895(4) -0.0416(3)
C13 C 0.2017(2) 0.5662(3) 0.1665(3)
C14 C 0.1519(3) 0.5461(3) 0.2169(2)
C15 C 0.1470(3) 0.5785(3) 0.2749(3)
H17 H 0.1759 0.6136 0.2837
C16 C 0.1007(3) 0.5614(3) 0.3211(3)
H18 H 0.0984 0.5842 0.3614
C17 C 0.0576(3) 0.5104(3) 0.3080(3)
C18 C 0.0626(3) 0.4777(3) 0.2483(3)
H19 H 0.0333 0.4431 0.2386
C19 C 0.1090(3) 0.4948(3) 0.2040(3)
H20 H 0.1123 0.4717 0.1640
C20 C -0.0167(3) 0.5182(3) 0.4046(2)
C21 C 0.2889(3) 0.6265(3) 0.0085(3)
C22 C 0.2238(4) 0.6594(4) 0.0037(5)
H21 H 0.1894 0.6263 -0.0002
H22 H 0.2231 0.6877 -0.0347
H23 H 0.2162 0.6856 0.0430
C23 C 0.2665(6) 0.5763(5) -0.1002(4)
H24 H 0.2624 0.5291 -0.1064
H25 H 0.2873 0.5957 -0.1386
H26 H 0.2230 0.5954 -0.0943
C24 C 0.3726(5) 0.5577(6) -0.0377(5)
H27 H 0.3915 0.5652 0.0056
H28 H 0.4014 0.5765 -0.0710
H29 H 0.3681 0.5107 -0.0452
H15F H 0.2220 0.7456 0.2143
O4E O -0.3206(2) 0.2656(2) 0.3829(2)
O5E O -0.3838(2) 0.2914(2) 0.4668(2)
N4E N -0.1503(2) 0.4927(2) 0.5096(2)
H16E H -0.1616 0.5118 0.5464
N5E N -0.0705(2) 0.4884(2) 0.4290(2)
C13E C -0.3335(3) 0.2983(2) 0.4338(3)
C14E C -0.2831(2) 0.3481(3) 0.4539(3)
C15E C -0.2251(3) 0.3530(3) 0.4215(3)
H17E H -0.2163 0.3241 0.3864
C16E C -0.1789(3) 0.3993(3) 0.4386(3)
H18E H -0.1386 0.4016 0.4158
C17E C -0.1920(3) 0.4424(3) 0.4896(3)
C18E C -0.2517(3) 0.4374(3) 0.5223(3)
H19E H -0.2614 0.4667 0.5569
C19E C -0.2960(3) 0.3910(3) 0.5052(3)
H20E H -0.3360 0.3877 0.5283
C20E C -0.0954(2) 0.5167(3) 0.4818(3)
O4K O -0.1171(2) 0.8206(2) 0.7344(2)
O5K O -0.0332(2) 0.8838(2) 0.7086(2)
N4K N 0.0096(2) 0.6503(2) 0.5073(2)
H16K H 0.0464 0.6616 0.4882
N5K N -0.0710(2) 0.5705(2) 0.5116(2)
C13K C -0.0662(3) 0.8335(3) 0.7017(2)
C14K C -0.0461(3) 0.7831(2) 0.6519(3)
C15K C -0.0785(3) 0.7251(3) 0.6470(3)
H17K H -0.1136 0.7163 0.6759
C16K C -0.0614(3) 0.6789(3) 0.6007(3)
H18K H -0.0842 0.6386 0.5984
C17K C -0.0104(3) 0.6920(3) 0.5576(3)
C18K C 0.0223(3) 0.7517(3) 0.5626(3)
H19K H 0.0569 0.7614 0.5333
C19K C 0.0052(3) 0.7960(3) 0.6090(3)
H20K H 0.0283 0.8360 0.6123
C20K C -0.0182(3) 0.5954(2) 0.4833(3)
O7F O 0.44495(19) 0.6754(2) 0.1339(2)
N6F N 0.5416(3) 0.6932(4) 0.0895(4)
C21F C 0.4915(3) 0.7111(3) 0.1265(3)
C22F C 0.4963(5) 0.7762(4) 0.1594(4)
H21F H 0.5002 0.8106 0.1263
H22F H 0.5347 0.7769 0.1877
H23F H 0.4570 0.7838 0.1856
C23F C 0.6002(4) 0.7335(6) 0.0763(5)
H24F H 0.6064 0.7376 0.0291
H25F H 0.6386 0.7127 0.0957
H26F H 0.5943 0.7770 0.0954
C24F C 0.5377(5) 0.6274(5) 0.0577(6)
H27F H 0.4944 0.6085 0.0652
H28F H 0.5710 0.5986 0.0765
H29F H 0.5452 0.6319 0.0107
O7I O 0.3661(2) 0.55505(19) 0.1754(2)
N6I N 0.4105(4) 0.4584(3) 0.1932(4)
C21I C 0.3735(3) 0.5085(3) 0.2111(3)
C22I C 0.3406(4) 0.5037(5) 0.2762(4)
H21I H 0.3737 0.4998 0.3106
H22I H 0.3123 0.4653 0.2769
H23I H 0.3144 0.5430 0.2838
C23I C 0.4237(5) 0.3998(4) 0.2335(6)
H24I H 0.4709 0.3936 0.2376
H25I H 0.4043 0.3614 0.2127
H26I H 0.4046 0.4057 0.2770
C24I C 0.4423(6) 0.4623(5) 0.1274(5)
H27I H 0.4348 0.5056 0.1085
H28I H 0.4235 0.4290 0.0986
H29I H 0.4893 0.4548 0.1319
Sm2B Sm -0.333571(11) 0.166429(11) 0.333571(11)
Sm2C Sm -0.166429(11) 0.833571(11) 0.833571(11)
O4F O 0.3206(2) 0.7656(2) 0.1171(2)
O4I O 0.3829(2) 0.6794(2) 0.2656(2)
O8 O 0.1987(5) 0.6987(5) 0.8013(5)
O9 O 0.3013(5) 0.8013(5) 0.6987(5)
O10 O 0.1964(10) 0.7314(15) 0.6458(18)
O11 O 0.2448(11) 0.3677(9) 0.1908(13)
H30? H 0.2544 0.7143 0.2780
loop_
_geom_bond_atom_site_label_1
_geom_bond_atom_site_label_2
_geom_bond_site_symmetry_1
_geom_bond_site_symmetry_2
Sm1 O1 1_555 1_555
O1 C1 1_555 1_555
O2 C1 1_555 1_555
O3 Sm1 1_555 1_555
N1 H1 1_555 1_555
N2 C8 1_555 1_555
N3 C9 1_555 1_555
C1 C2 1_555 1_555
C2 C3 1_555 1_555
C3 H2 1_555 1_555
C4 C3 1_555 1_555
H3 C4 1_555 1_555
C5 N1 1_555 1_555
C6 C5 1_555 1_555
H4 C6 1_555 1_555
C7 C2 1_555 1_555
H5 C7 1_555 1_555
C8 N1 1_555 1_555
C9 O3 1_555 1_555
C10 C9 1_555 1_555
H6 C10 1_555 1_555
H7 C10 1_555 1_555
H8 C10 1_555 1_555
C11 N3 1_555 1_555
H9 C11 1_555 1_555
H10 C11 1_555 1_555
H11 C11 1_555 1_555
C12 N3 1_555 1_555
H12 C12 1_555 1_555
H13 C12 1_555 1_555
H14 C12 1_555 1_555
Sm2 O4 1_555 1_555
O4 C13 1_555 1_555
O5 C13 1_555 1_555
O6 Sm2 1_555 1_555
H15 O6 1_555 1_555
O7 Sm2 1_555 1_555
N4 H16 1_555 1_555
N5 C20 1_555 1_555
N6 C21 1_555 1_555
C13 C14 1_555 1_555
C14 C15 1_555 1_555
C15 H17 1_555 1_555
C16 C15 1_555 1_555
H18 C16 1_555 1_555
C17 N4 1_555 1_555
C18 C17 1_555 1_555
H19 C18 1_555 1_555
C19 C14 1_555 1_555
H20 C19 1_555 1_555
C20 N4 1_555 1_555
C21 O7 1_555 1_555
C22 C21 1_555 1_555
H21 C22 1_555 1_555
H22 C22 1_555 1_555
H23 C22 1_555 1_555
C23 N6 1_555 1_555
H24 C23 1_555 1_555
H25 C23 1_555 1_555
H26 C23 1_555 1_555
C24 N6 1_555 1_555
H27 C24 1_555 1_555
H28 C24 1_555 1_555
H29 C24 1_555 1_555
O1G C1G 1_555 1_555
O2G C1G 1_555 1_555
N1G H1G 1_555 1_555
N2G C8G 1_555 1_555
C1G C2G 1_555 1_555
C2G C3G 1_555 1_555
C3G H2G 1_555 1_555
C4G C3G 1_555 1_555
H3G C4G 1_555 1_555
C5G N1G 1_555 1_555
C6G C5G 1_555 1_555
H4G C6G 1_555 1_555
C7G C2G 1_555 1_555
H5G C7G 1_555 1_555
C8G N2 1_555 1_555
O1J C1J 1_555 1_555
O2J C1J 1_555 1_555
N1J H1J 1_555 1_555
N2J C8 1_555 1_555
C1J C2J 1_555 1_555
C2J C3J 1_555 1_555
C3J H2J 1_555 1_555
C4J C3J 1_555 1_555
H3J C4J 1_555 1_555
C5J N1J 1_555 1_555
C6J C5J 1_555 1_555
H4J C6J 1_555 1_555
C7J C2J 1_555 1_555
H5J C7J 1_555 1_555
C8J N2G 1_555 1_555
O3F Sm1 1_555 1_555
N3F C9F 1_555 1_555
C9F O3F 1_555 1_555
C10F C9F 1_555 1_555
H6F C10F 1_555 1_555
H7F C10F 1_555 1_555
H8F C10F 1_555 1_555
C11F N3F 1_555 1_555
H9F C11F 1_555 1_555
H10F C11F 1_555 1_555
H11F C11F 1_555 1_555
C12F N3F 1_555 1_555
H12F C12F 1_555 1_555
H13F C12F 1_555 1_555
H14F C12F 1_555 1_555
O3I Sm1 1_555 1_555
N3I C9I 1_555 1_555
C9I O3I 1_555 1_555
C10I C9I 1_555 1_555
H6I C10I 1_555 1_555
H7I C10I 1_555 1_555
H8I C10I 1_555 1_555
C11I N3I 1_555 1_555
H9I C11I 1_555 1_555
H10I C11I 1_555 1_555
H11I C11I 1_555 1_555
C12I N3I 1_555 1_555
H12I C12I 1_555 1_555
H13I C12I 1_555 1_555
H14I C12I 1_555 1_555
Sm1A O1J 1_555 1_555
Sm1C O1G 1_555 1_555
O1F Sm1 1_555 1_555
O1I Sm1 1_555 1_555
H15F O6 1_555 1_555
O4E C13E 1_555 1_555
O5E C13E 1_555 1_555
N4E H16E 1_555 1_555
N5E C20 1_555 1_555
C13E C14E 1_555 1_555
C14E C15E 1_555 1_555
C15E H17E 1_555 1_555
C16E C15E 1_555 1_555
H18E C16E 1_555 1_555
C17E N4E 1_555 1_555
C18E C17E 1_555 1_555
H19E C18E 1_555 1_555
C19E C14E 1_555 1_555
H20E C19E 1_555 1_555
C20E N4E 1_555 1_555
O4K C13K 1_555 1_555
O5K C13K 1_555 1_555
N4K H16K 1_555 1_555
N5K C20E 1_555 1_555
C13K C14K 1_555 1_555
C14K C15K 1_555 1_555
C15K H17K 1_555 1_555
C16K C15K 1_555 1_555
H18K C16K 1_555 1_555
C17K N4K 1_555 1_555
C18K C17K 1_555 1_555
H19K C18K 1_555 1_555
C19K C14K 1_555 1_555
H20K C19K 1_555 1_555
C20K N5 1_555 1_555
O7F Sm2 1_555 1_555
N6F C21F 1_555 1_555
C21F O7F 1_555 1_555
C22F C21F 1_555 1_555
H21F C22F 1_555 1_555
H22F C22F 1_555 1_555
H23F C22F 1_555 1_555
C23F N6F 1_555 1_555
H24F C23F 1_555 1_555
H25F C23F 1_555 1_555
H26F C23F 1_555 1_555
C24F N6F 1_555 1_555
H27F C24F 1_555 1_555
H28F C24F 1_555 1_555
H29F C24F 1_555 1_555
O7I Sm2 1_555 1_555
N6I C21I 1_555 1_555
C21I O7I 1_555 1_555
C22I C21I 1_555 1_555
H21I C22I 1_555 1_555
H22I C22I 1_555 1_555
H23I C22I 1_555 1_555
C23I N6I 1_555 1_555
H24I C23I 1_555 1_555
H25I C23I 1_555 1_555
H26I C23I 1_555 1_555
C24I N6I 1_555 1_555
H27I C24I 1_555 1_555
H28I C24I 1_555 1_555
H29I C24I 1_555 1_555
Sm2B O4E 1_555 1_555
Sm2C O4K 1_555 1_555
O4F Sm2 1_555 1_555
O4I Sm2 1_555 1_555
C4 C5 1_555 1_555
C6 C7 1_555 1_555
C16 C17 1_555 1_555
C18 C19 1_555 1_555
N1G C8G 1_555 1_555
C4G C5G 1_555 1_555
C6G C7G 1_555 1_555
N1J C8J 1_555 1_555
N2J C8J 1_555 1_555
C4J C5J 1_555 1_555
C6J C7J 1_555 1_555
N5E C20E 1_555 1_555
C16E C17E 1_555 1_555
C18E C19E 1_555 1_555
N4K C20K 1_555 1_555
N5K C20K 1_555 1_555
C16K C17K 1_555 1_555
C18K C19K 1_555 1_555

#END
