
#######################################################################
#
#                 Cambridge Crystallographic Data Centre
#                                CCDC 
#
#######################################################################
#
# If this CIF has been generated from an entry in the Cambridge 
# Structural Database, then it will include bibliographic, chemical, 
# crystal, experimental, refinement or atomic coordinate data resulting 
# from the CCDC's data processing and validation procedures.
#
#######################################################################

data_SOZSUX
_symmetry_cell_setting           cubic
_symmetry_space_group_name_H-M   'P 21 3'
_symmetry_Int_Tables_number      198
_space_group_name_Hall           'P 2ac 2ab 3'
loop_
_symmetry_equiv_pos_site_id
_symmetry_equiv_pos_as_xyz
1 x,y,z
2 1/2-x,-y,1/2+z
3 -x,1/2+y,1/2-z
4 1/2+x,1/2-y,-z
5 z,x,y
6 1/2+z,1/2-x,-y
7 1/2-z,-x,1/2+y
8 -z,1/2+x,1/2-y
9 y,z,x
10 -y,1/2+z,1/2-x
11 1/2+y,1/2-z,-x
12 1/2-y,-z,1/2+x
_cell_length_a                   20.3864(12)
_cell_length_b                   20.3864(12)
_cell_length_c                   20.3864(12)
_cell_angle_alpha                90
_cell_angle_beta                 90
_cell_angle_gamma                90
_cell_volume                     8472.7
loop_
_atom_site_label
_atom_site_type_symbol
_atom_site_fract_x
_atom_site_fract_y
_atom_site_fract_z
Er1 Er 0.154994(12) 0.845006(12) 0.345006(12)
O1 O 0.1346(2) 0.8123(2) 0.2432(2)
O2 O 0.0585(3) 0.8839(2) 0.2119(2)
O3 O 0.1682(2) 0.8652(2) 0.4529(2)
N1 N -0.0039(3) 0.6509(3) 0.0128(3)
H1 H -0.0414 0.6635 -0.0043
N2 N -0.0117(3) 0.5746(3) -0.0675(3)
N3 N 0.1946(5) 0.9139(4) 0.5457(4)
C1 C 0.0868(3) 0.8300(3) 0.2067(3)
C2 C 0.0645(3) 0.7818(3) 0.1566(3)
C3 C 0.0130(4) 0.7968(3) 0.1150(3)
H2 H -0.0083 0.8381 0.1187
C4 C -0.0076(3) 0.7531(4) 0.0688(4)
H3 H -0.0422 0.7650 0.0400
C5 C 0.0208(3) 0.6917(3) 0.0631(3)
C6 C 0.0717(3) 0.6754(3) 0.1053(3)
H4 H 0.0920 0.6336 0.1022
C7 C 0.0926(3) 0.7197(3) 0.1517(3)
H5 H 0.1269 0.7078 0.1810
C8 C 0.0218(3) 0.5949(3) -0.0131(3)
C9 C 0.2067(5) 0.8746(5) 0.4988(4)
C10 C 0.2724(4) 0.8388(5) 0.4999(5)
H6 H 0.2737 0.8066 0.4641
H7 H 0.2776 0.8162 0.5420
H8 H 0.3080 0.8705 0.4942
C11 C 0.1275(5) 0.9497(6) 0.5394(5)
H9 H 0.1099 0.9430 0.4952
H10 H 0.1336 0.9967 0.5473
H11 H 0.0967 0.9319 0.5718
C12 C 0.2347(6) 0.9288(6) 0.6019(5)
H12 H 0.2166 0.9070 0.6408
H13 H 0.2352 0.9764 0.6091
H14 H 0.2795 0.9133 0.5942
O1G O -0.2432(2) 0.6346(2) -0.3123(2)
O2G O -0.2119(2) 0.5585(3) -0.3839(2)
N1G N -0.0128(3) 0.4961(3) -0.1509(3)
H1G H 0.0043 0.4586 -0.1635
N2G N 0.0675(3) 0.4883(3) -0.0746(3)
C1G C -0.2067(3) 0.5868(3) -0.3300(3)
C2G C -0.1566(3) 0.5645(3) -0.2818(3)
C3G C -0.1150(3) 0.5130(4) -0.2968(3)
H2G H -0.1187 0.4917 -0.3381
C4G C -0.0688(4) 0.4924(3) -0.2531(4)
H3G H -0.0400 0.4578 -0.2650
C5G C -0.0631(3) 0.5208(3) -0.1917(3)
C6G C -0.1053(3) 0.5717(3) -0.1754(3)
H4G H -0.1022 0.5920 -0.1336
C7G C -0.1517(3) 0.5926(3) -0.2197(3)
H5G H -0.1810 0.6269 -0.2078
C8G C 0.0131(3) 0.5218(3) -0.0949(3)
O1J O 0.3123(2) 0.2568(2) -0.1346(2)
O2J O 0.3839(2) 0.2881(2) -0.0585(3)
N1J N 0.1509(3) 0.4872(3) 0.0039(3)
H1J H 0.1635 0.5043 0.0414
N2J N 0.0746(3) 0.5675(3) 0.0117(3)
C1J C 0.3300(3) 0.2933(3) -0.0868(3)
C2J C 0.2818(3) 0.3434(3) -0.0645(3)
C3J C 0.2968(3) 0.3850(3) -0.0130(4)
H2J H 0.3381 0.3813 0.0083
C4J C 0.2531(4) 0.4312(4) 0.0076(3)
H3J H 0.2650 0.4600 0.0422
C5J C 0.1917(3) 0.4369(3) -0.0208(3)
C6J C 0.1754(3) 0.3947(3) -0.0717(3)
H4J H 0.1336 0.3978 -0.0920
C7J C 0.2197(3) 0.3483(3) -0.0926(3)
H5J H 0.2078 0.3190 -0.1269
C8J C 0.0949(3) 0.5131(3) -0.0218(3)
O3F O 0.0471(2) 0.8318(2) 0.3652(2)
N3F N -0.0457(4) 0.8054(5) 0.4139(4)
C9F C 0.0012(4) 0.7933(5) 0.3746(5)
C10F C 0.0001(5) 0.7276(4) 0.3388(5)
H6F H 0.0359 0.7263 0.3066
H7F H -0.0420 0.7224 0.3162
H8F H 0.0058 0.6920 0.3705
C11F C -0.0394(5) 0.8725(5) 0.4497(6)
H9F H 0.0048 0.8901 0.4430
H10F H -0.0473 0.8664 0.4967
H11F H -0.0718 0.9033 0.4319
C12F C -0.1019(5) 0.7653(6) 0.4288(6)
H12F H -0.1408 0.7834 0.4070
H13F H -0.1091 0.7648 0.4764
H14F H -0.0942 0.7205 0.4133
O3I O 0.1348(2) 0.9529(2) 0.3318(2)
N3I N 0.0861(4) 1.0457(4) 0.3054(5)
C9I C 0.1254(5) 0.9988(4) 0.2933(5)
C10I C 0.1612(5) 0.9999(5) 0.2276(4)
H6I H 0.1934 0.9641 0.2263
H7I H 0.1838 1.0420 0.2224
H8I H 0.1295 0.9942 0.1920
C11I C 0.0503(6) 1.0394(5) 0.3725(5)
H9I H 0.0570 0.9952 0.3901
H10I H 0.0033 1.0473 0.3664
H11I H 0.0681 1.0718 0.4033
C12I C 0.0712(6) 1.1019(5) 0.2653(6)
H12I H 0.0930 1.1408 0.2834
H13I H 0.0236 1.1091 0.2648
H14I H 0.0867 1.0942 0.2205
Er1A Er 0.345006(12) 0.154994(12) -0.154994(12)
Er1C Er -0.345006(12) 0.654994(12) -0.345006(12)
O1F O 0.2568(2) 0.8654(2) 0.3123(2)
O1I O 0.1877(2) 0.7432(2) 0.3654(2)
Er2 Er 0.333257(13) 0.666743(13) 0.166743(13)
O4 O 0.2377(2) 0.6190(2) 0.1805(2)
O5 O 0.2117(2) 0.5356(3) 0.1153(2)
O6 O 0.2640(2) 0.7360(2) 0.2360(2)
O7 O 0.3253(3) 0.6332(3) 0.0582(2)
N4 N 0.0092(2) 0.4900(3) 0.3504(3)
H15 H -0.0087 0.4522 0.3398
N5 N 0.0118(3) 0.5711(3) 0.4307(3)
N6 N 0.3063(4) 0.5906(4) -0.0394(3)
C13 C 0.2042(3) 0.5683(3) 0.1666(3)
C14 C 0.1546(3) 0.5486(3) 0.2164(3)
C15 C 0.1492(3) 0.5803(3) 0.2754(3)
H16 H 0.1781 0.6156 0.2851
C16 C 0.1021(3) 0.5621(3) 0.3216(3)
H17 H 0.0995 0.5847 0.3623
C17 C 0.0586(3) 0.5105(3) 0.3083(3)
C18 C 0.0649(3) 0.4789(3) 0.2483(3)
H18 H 0.0360 0.4437 0.2384
C19 C 0.1108(3) 0.4965(3) 0.2030(3)
H19 H 0.1134 0.4738 0.1625
C20 C -0.0161(3) 0.5178(3) 0.4048(3)
C21 C 0.2880(4) 0.6275(4) 0.0112(4)
C22 C 0.2240(4) 0.6602(5) 0.0074(5)
H20 H 0.1891 0.6271 0.0077
H21 H 0.2214 0.6858 -0.0332
H22 H 0.2187 0.6894 0.0452
C23 C 0.2662(6) 0.5766(6) -0.0958(5)
H23 H 0.2605 0.5291 -0.1000
H24 H 0.2876 0.5937 -0.1353
H25 H 0.2233 0.5975 -0.0905
C24 C 0.3728(5) 0.5603(6) -0.0366(5)
H26 H 0.3883 0.5600 0.0089
H27 H 0.4031 0.5858 -0.0638
H28 H 0.3705 0.5152 -0.0531
O4E O -0.3195(2) 0.2623(2) 0.3810(2)
O5E O -0.3847(2) 0.2883(2) 0.4644(3)
N4E N -0.1496(3) 0.4908(2) 0.5100(3)
H15E H -0.1602 0.5087 0.5478
N5E N -0.0693(3) 0.4882(3) 0.4289(3)
C13E C -0.3334(3) 0.2958(3) 0.4317(3)
C14E C -0.2836(3) 0.3454(3) 0.4514(3)
C15E C -0.2246(3) 0.3508(3) 0.4197(3)
H16E H -0.2149 0.3219 0.3844
C16E C -0.1784(3) 0.3979(3) 0.4379(3)
H17E H -0.1377 0.4005 0.4153
C17E C -0.1917(3) 0.4414(3) 0.4895(3)
C18E C -0.2517(3) 0.4351(3) 0.5211(3)
H18E H -0.2616 0.4640 0.5563
C19E C -0.2970(3) 0.3892(3) 0.5035(3)
H19E H -0.3375 0.3866 0.5262
C20E C -0.0952(3) 0.5161(3) 0.4822(3)
O4K O -0.1190(2) 0.8195(2) 0.7377(2)
O5K O -0.0356(3) 0.8847(2) 0.7117(2)
N4K N 0.0100(3) 0.6496(3) 0.5092(2)
H15K H 0.0478 0.6602 0.4913
N5K N -0.0711(3) 0.5693(3) 0.5118(3)
C13K C -0.0683(3) 0.8334(3) 0.7042(3)
C14K C -0.0486(3) 0.7836(3) 0.6546(3)
C15K C -0.0803(3) 0.7246(3) 0.6492(3)
H16K H -0.1156 0.7149 0.6781
C16K C -0.0621(3) 0.6784(3) 0.6021(3)
H17K H -0.0847 0.6377 0.5995
C17K C -0.0105(3) 0.6917(3) 0.5586(3)
C18K C 0.0211(3) 0.7517(3) 0.5649(3)
H18K H 0.0563 0.7616 0.5360
C19K C 0.0035(3) 0.7970(3) 0.6108(3)
H19K H 0.0262 0.8375 0.6134
C20K C -0.0178(3) 0.5952(3) 0.4839(3)
O7F O 0.4418(2) 0.6747(3) 0.1332(3)
N6F N 0.5394(3) 0.6937(4) 0.0906(4)
C21F C 0.4888(4) 0.7120(4) 0.1275(4)
C22F C 0.4926(5) 0.7760(4) 0.1602(5)
H20F H 0.4923 0.8109 0.1271
H21F H 0.5332 0.7786 0.1858
H22F H 0.4548 0.7813 0.1894
C23F C 0.5958(5) 0.7338(6) 0.0766(6)
H23F H 0.6000 0.7395 0.0291
H24F H 0.6353 0.7124 0.0937
H25F H 0.5905 0.7767 0.0975
C24F C 0.5366(5) 0.6272(5) 0.0603(6)
H26F H 0.4911 0.6117 0.0600
H27F H 0.5638 0.5969 0.0858
H28F H 0.5531 0.6295 0.0152
O7I O 0.3668(3) 0.5582(2) 0.1747(3)
N6I N 0.4094(4) 0.4606(3) 0.1937(4)
C21I C 0.3725(4) 0.5112(4) 0.2120(4)
C22I C 0.3398(5) 0.5074(5) 0.2760(4)
H20I H 0.3729 0.5077 0.3109
H21I H 0.3142 0.4668 0.2786
H22I H 0.3106 0.5452 0.2813
C23I C 0.4234(6) 0.4042(5) 0.2338(6)
H23I H 0.4709 0.4000 0.2395
H24I H 0.4063 0.3647 0.2124
H25I H 0.4025 0.4095 0.2767
C24I C 0.4397(6) 0.4634(5) 0.1272(5)
H26I H 0.4400 0.5089 0.1117
H27I H 0.4142 0.4362 0.0969
H28I H 0.4848 0.4469 0.1295
Er2B Er -0.333257(13) 0.166743(13) 0.333257(13)
Er2C Er -0.166743(13) 0.833257(13) 0.833257(13)
O4F O 0.3195(2) 0.7623(2) 0.1190(2)
O4I O 0.3810(2) 0.6805(2) 0.2623(2)
O8 O 0.1971(6) 0.6971(6) 0.8029(6)
O9 O 0.3020(5) 0.8020(5) 0.6980(5)
O10 O 0.1954(14) 0.7367(13) 0.6338(13)
O11 O 0.2423(11) 0.3648(11) 0.1934(12)
H29? H 0.2544 0.7143 0.2780
loop_
_geom_bond_atom_site_label_1
_geom_bond_atom_site_label_2
_geom_bond_site_symmetry_1
_geom_bond_site_symmetry_2
Er1 O1 1_555 1_555
O1 C1 1_555 1_555
O2 C1 1_555 1_555
O3 Er1 1_555 1_555
N1 H1 1_555 1_555
N2 C8 1_555 1_555
N3 C9 1_555 1_555
C1 C2 1_555 1_555
C2 C3 1_555 1_555
C3 H2 1_555 1_555
C4 C3 1_555 1_555
H3 C4 1_555 1_555
C5 N1 1_555 1_555
C6 C5 1_555 1_555
H4 C6 1_555 1_555
C7 C2 1_555 1_555
H5 C7 1_555 1_555
C8 N1 1_555 1_555
C9 O3 1_555 1_555
C10 C9 1_555 1_555
H6 C10 1_555 1_555
H7 C10 1_555 1_555
H8 C10 1_555 1_555
C11 N3 1_555 1_555
H9 C11 1_555 1_555
H10 C11 1_555 1_555
H11 C11 1_555 1_555
C12 N3 1_555 1_555
H12 C12 1_555 1_555
H13 C12 1_555 1_555
H14 C12 1_555 1_555
Er2 O4 1_555 1_555
O4 C13 1_555 1_555
O5 C13 1_555 1_555
O6 Er2 1_555 1_555
O7 Er2 1_555 1_555
N4 H15 1_555 1_555
N5 C20 1_555 1_555
N6 C21 1_555 1_555
C13 C14 1_555 1_555
C14 C15 1_555 1_555
C15 H16 1_555 1_555
C16 C15 1_555 1_555
H17 C16 1_555 1_555
C17 N4 1_555 1_555
C18 C17 1_555 1_555
H18 C18 1_555 1_555
C19 C14 1_555 1_555
H19 C19 1_555 1_555
C20 N4 1_555 1_555
C21 O7 1_555 1_555
C22 C21 1_555 1_555
H20 C22 1_555 1_555
H21 C22 1_555 1_555
H22 C22 1_555 1_555
C23 N6 1_555 1_555
H23 C23 1_555 1_555
H24 C23 1_555 1_555
H25 C23 1_555 1_555
C24 N6 1_555 1_555
H26 C24 1_555 1_555
H27 C24 1_555 1_555
H28 C24 1_555 1_555
O1G C1G 1_555 1_555
O2G C1G 1_555 1_555
N1G H1G 1_555 1_555
N2G C8G 1_555 1_555
C1G C2G 1_555 1_555
C2G C3G 1_555 1_555
C3G H2G 1_555 1_555
C4G C3G 1_555 1_555
H3G C4G 1_555 1_555
C5G N1G 1_555 1_555
C6G C5G 1_555 1_555
H4G C6G 1_555 1_555
C7G C2G 1_555 1_555
H5G C7G 1_555 1_555
C8G N2 1_555 1_555
O1J C1J 1_555 1_555
O2J C1J 1_555 1_555
N1J H1J 1_555 1_555
N2J C8 1_555 1_555
C1J C2J 1_555 1_555
C2J C3J 1_555 1_555
C3J H2J 1_555 1_555
C4J C3J 1_555 1_555
H3J C4J 1_555 1_555
C5J N1J 1_555 1_555
C6J C5J 1_555 1_555
H4J C6J 1_555 1_555
C7J C2J 1_555 1_555
H5J C7J 1_555 1_555
C8J N2G 1_555 1_555
O3F Er1 1_555 1_555
N3F C9F 1_555 1_555
C9F O3F 1_555 1_555
C10F C9F 1_555 1_555
H6F C10F 1_555 1_555
H7F C10F 1_555 1_555
H8F C10F 1_555 1_555
C11F N3F 1_555 1_555
H9F C11F 1_555 1_555
H10F C11F 1_555 1_555
H11F C11F 1_555 1_555
C12F N3F 1_555 1_555
H12F C12F 1_555 1_555
H13F C12F 1_555 1_555
H14F C12F 1_555 1_555
O3I Er1 1_555 1_555
N3I C9I 1_555 1_555
C9I O3I 1_555 1_555
C10I C9I 1_555 1_555
H6I C10I 1_555 1_555
H7I C10I 1_555 1_555
H8I C10I 1_555 1_555
C11I N3I 1_555 1_555
H9I C11I 1_555 1_555
H10I C11I 1_555 1_555
H11I C11I 1_555 1_555
C12I N3I 1_555 1_555
H12I C12I 1_555 1_555
H13I C12I 1_555 1_555
H14I C12I 1_555 1_555
Er1A O1J 1_555 1_555
Er1C O1G 1_555 1_555
O1F Er1 1_555 1_555
O1I Er1 1_555 1_555
O4E C13E 1_555 1_555
O5E C13E 1_555 1_555
N4E H15E 1_555 1_555
N5E C20 1_555 1_555
C13E C14E 1_555 1_555
C14E C15E 1_555 1_555
C15E H16E 1_555 1_555
C16E C15E 1_555 1_555
H17E C16E 1_555 1_555
C17E N4E 1_555 1_555
C18E C17E 1_555 1_555
H18E C18E 1_555 1_555
C19E C14E 1_555 1_555
H19E C19E 1_555 1_555
C20E N4E 1_555 1_555
O4K C13K 1_555 1_555
O5K C13K 1_555 1_555
N4K H15K 1_555 1_555
N5K C20E 1_555 1_555
C13K C14K 1_555 1_555
C14K C15K 1_555 1_555
C15K H16K 1_555 1_555
C16K C15K 1_555 1_555
H17K C16K 1_555 1_555
C17K N4K 1_555 1_555
C18K C17K 1_555 1_555
H18K C18K 1_555 1_555
C19K C14K 1_555 1_555
H19K C19K 1_555 1_555
C20K N5 1_555 1_555
O7F Er2 1_555 1_555
N6F C21F 1_555 1_555
C21F O7F 1_555 1_555
C22F C21F 1_555 1_555
H20F C22F 1_555 1_555
H21F C22F 1_555 1_555
H22F C22F 1_555 1_555
C23F N6F 1_555 1_555
H23F C23F 1_555 1_555
H24F C23F 1_555 1_555
H25F C23F 1_555 1_555
C24F N6F 1_555 1_555
H26F C24F 1_555 1_555
H27F C24F 1_555 1_555
H28F C24F 1_555 1_555
O7I Er2 1_555 1_555
N6I C21I 1_555 1_555
C21I O7I 1_555 1_555
C22I C21I 1_555 1_555
H20I C22I 1_555 1_555
H21I C22I 1_555 1_555
H22I C22I 1_555 1_555
C23I N6I 1_555 1_555
H23I C23I 1_555 1_555
H24I C23I 1_555 1_555
H25I C23I 1_555 1_555
C24I N6I 1_555 1_555
H26I C24I 1_555 1_555
H27I C24I 1_555 1_555
H28I C24I 1_555 1_555
Er2B O4E 1_555 1_555
Er2C O4K 1_555 1_555
O4F Er2 1_555 1_555
O4I Er2 1_555 1_555
C4 C5 1_555 1_555
C6 C7 1_555 1_555
C16 C17 1_555 1_555
C18 C19 1_555 1_555
N1G C8G 1_555 1_555
C4G C5G 1_555 1_555
C6G C7G 1_555 1_555
N1J C8J 1_555 1_555
N2J C8J 1_555 1_555
C4J C5J 1_555 1_555
C6J C7J 1_555 1_555
N5E C20E 1_555 1_555
C16E C17E 1_555 1_555
C18E C19E 1_555 1_555
N4K C20K 1_555 1_555
N5K C20K 1_555 1_555
C16K C17K 1_555 1_555
C18K C19K 1_555 1_555

#END
