
#######################################################################
#
#                 Cambridge Crystallographic Data Centre
#                                CCDC 
#
#######################################################################
#
# If this CIF has been generated from an entry in the Cambridge 
# Structural Database, then it will include bibliographic, chemical, 
# crystal, experimental, refinement or atomic coordinate data resulting 
# from the CCDC's data processing and validation procedures.
#
#######################################################################

data_SOZSAD
_symmetry_cell_setting           cubic
_symmetry_space_group_name_H-M   'P 21 3'
_symmetry_Int_Tables_number      198
_space_group_name_Hall           'P 2ac 2ab 3'
loop_
_symmetry_equiv_pos_site_id
_symmetry_equiv_pos_as_xyz
1 x,y,z
2 1/2-x,-y,1/2+z
3 -x,1/2+y,1/2-z
4 1/2+x,1/2-y,-z
5 z,x,y
6 1/2+z,1/2-x,-y
7 1/2-z,-x,1/2+y
8 -z,1/2+x,1/2-y
9 y,z,x
10 -y,1/2+z,1/2-x
11 1/2+y,1/2-z,-x
12 1/2-y,-z,1/2+x
_cell_length_a                   20.501(3)
_cell_length_b                   20.501(3)
_cell_length_c                   20.501(3)
_cell_angle_alpha                90
_cell_angle_beta                 90
_cell_angle_gamma                90
_cell_volume                     8616.39
loop_
_atom_site_label
_atom_site_type_symbol
_atom_site_fract_x
_atom_site_fract_y
_atom_site_fract_z
Eu1 Eu 0.154330(19) 0.845670(19) 0.345670(19)
O1 O 0.1334(3) 0.8101(3) 0.2425(3)
O2 O 0.0587(3) 0.8815(3) 0.2117(3)
O3 O 0.1686(3) 0.8662(3) 0.4551(3)
N1 N -0.0037(3) 0.6507(3) 0.0130(3)
H1 H -0.0410 0.6632 -0.0041
N2 N -0.0112(3) 0.5745(3) -0.0680(3)
N3 N 0.1947(6) 0.9131(5) 0.5474(5)
C1 C 0.0865(3) 0.8279(4) 0.2073(3)
C2 C 0.0638(3) 0.7806(3) 0.1566(3)
C3 C 0.0139(4) 0.7959(4) 0.1145(4)
H2 H -0.0059 0.8377 0.1169
C4 C -0.0079(4) 0.7516(4) 0.0689(4)
H3 H -0.0431 0.7632 0.0411
C5 C 0.0204(3) 0.6907(3) 0.0628(3)
C6 C 0.0716(3) 0.6751(3) 0.1048(3)
H4 H 0.0919 0.6335 0.1019
C7 C 0.0925(3) 0.7184(3) 0.1495(4)
H5 H 0.1277 0.7067 0.1773
C8 C 0.0223(4) 0.5946(3) -0.0132(4)
C9 C 0.2062(6) 0.8771(6) 0.5001(6)
C10 C 0.2732(5) 0.8420(6) 0.5035(6)
H6 H 0.2741 0.8063 0.4717
H7 H 0.2797 0.8243 0.5474
H8 H 0.3080 0.8731 0.4935
C11 C 0.1276(7) 0.9480(7) 0.5430(7)
H9 H 0.1052 0.9345 0.5029
H10 H 0.1343 0.9953 0.5423
H11 H 0.1010 0.9361 0.5809
C12 C 0.2339(7) 0.9319(7) 0.6020(6)
H12 H 0.2058 0.9393 0.6400
H13 H 0.2575 0.9721 0.5916
H14 H 0.2652 0.8972 0.6119
O1G O -0.2425(3) 0.6334(3) -0.3101(3)
O2G O -0.2117(3) 0.5587(3) -0.3815(3)
N1G N -0.0130(3) 0.4963(3) -0.1507(3)
H1G H 0.0041 0.4590 -0.1632
N2G N 0.0680(3) 0.4888(3) -0.0745(3)
C1G C -0.2073(3) 0.5865(3) -0.3279(4)
C2G C -0.1566(3) 0.5638(3) -0.2806(3)
C3G C -0.1145(4) 0.5139(4) -0.2959(4)
H2G H -0.1169 0.4941 -0.3377
C4G C -0.0689(4) 0.4921(4) -0.2516(4)
H3G H -0.0411 0.4569 -0.2632
C5G C -0.0628(3) 0.5204(3) -0.1907(3)
C6G C -0.1048(3) 0.5716(3) -0.1751(3)
H4G H -0.1019 0.5919 -0.1335
C7G C -0.1495(4) 0.5925(3) -0.2184(3)
H5G H -0.1773 0.6277 -0.2067
C8G C 0.0132(4) 0.5223(4) -0.0946(3)
O1J O 0.3101(3) 0.2575(3) -0.1334(3)
O2J O 0.3815(3) 0.2883(3) -0.0587(3)
N1J N 0.1507(3) 0.4870(3) 0.0037(3)
H1J H 0.1632 0.5041 0.0410
N2J N 0.0745(3) 0.5680(3) 0.0112(3)
C1J C 0.3279(4) 0.2927(3) -0.0865(3)
C2J C 0.2806(3) 0.3434(3) -0.0638(3)
C3J C 0.2959(4) 0.3855(4) -0.0139(4)
H2J H 0.3377 0.3831 0.0059
C4J C 0.2516(4) 0.4311(4) 0.0079(4)
H3J H 0.2632 0.4589 0.0431
C5J C 0.1907(3) 0.4372(3) -0.0204(3)
C6J C 0.1751(3) 0.3952(3) -0.0716(3)
H4J H 0.1335 0.3981 -0.0919
C7J C 0.2184(3) 0.3505(4) -0.0925(3)
H5J H 0.2067 0.3227 -0.1277
C8J C 0.0946(3) 0.5132(4) -0.0223(4)
O3F O 0.0449(3) 0.8314(3) 0.3662(3)
N3F N -0.0474(5) 0.8053(6) 0.4131(5)
C9F C -0.0001(6) 0.7938(6) 0.3771(6)
C10F C -0.0035(6) 0.7268(5) 0.3420(6)
H6F H 0.0283 0.7259 0.3063
H7F H -0.0474 0.7203 0.3243
H8F H 0.0065 0.6920 0.3731
C11F C -0.0430(7) 0.8724(7) 0.4480(7)
H9F H -0.0029 0.8948 0.4345
H10F H -0.0423 0.8657 0.4953
H11F H -0.0809 0.8990 0.4361
C12F C -0.1020(6) 0.7661(7) 0.4319(7)
H12F H -0.1400 0.7942 0.4393
H13F H -0.0916 0.7425 0.4721
H14F H -0.1119 0.7348 0.3972
O3I O 0.1338(3) 0.9551(3) 0.3314(3)
N3I N 0.0869(5) 1.0474(5) 0.3053(6)
C9I C 0.1229(6) 1.0001(6) 0.2938(6)
C10I C 0.1580(6) 1.0035(6) 0.2268(5)
H6I H 0.1937 0.9717 0.2259
H7I H 0.1757 1.0474 0.2203
H8I H 0.1269 0.9935 0.1920
C11I C 0.0520(7) 1.0430(7) 0.3724(7)
H9I H 0.0655 1.0029 0.3948
H10I H 0.0047 1.0423 0.3657
H11I H 0.0639 1.0809 0.3990
C12I C 0.0681(7) 1.1020(6) 0.2661(7)
H12I H 0.0607 1.1400 0.2942
H13I H 0.0279 1.0916 0.2425
H14I H 0.1028 1.1119 0.2348
Eu1A Eu 0.345670(19) 0.154330(19) -0.154330(19)
Eu1C Eu -0.345670(19) 0.654330(19) -0.345670(19)
O1F O 0.2575(3) 0.8666(3) 0.3101(3)
O1I O 0.1899(3) 0.7425(3) 0.3666(3)
Eu2 Eu 0.333901(15) 0.666099(15) 0.166099(15)
O4 O 0.2353(2) 0.6178(3) 0.1804(3)
O5 O 0.2086(3) 0.5342(3) 0.1160(2)
O6 O 0.2629(2) 0.7371(2) 0.2371(2)
H15 H 0.2544 0.7143 0.2780
O7 O 0.3248(3) 0.6333(3) 0.0553(2)
N4 N 0.0081(3) 0.4901(3) 0.3513(3)
H16 H -0.0102 0.4527 0.3407
N5 N 0.0117(3) 0.5716(3) 0.4294(3)
N6 N 0.3071(4) 0.5889(4) -0.0414(3)
C13 C 0.2017(3) 0.5665(3) 0.1666(3)
C14 C 0.1525(3) 0.5475(3) 0.2163(3)
C15 C 0.1481(3) 0.5797(3) 0.2748(3)
H17 H 0.1775 0.6143 0.2842
C16 C 0.1005(3) 0.5621(3) 0.3211(3)
H18 H 0.0973 0.5852 0.3612
C17 C 0.0585(3) 0.5110(3) 0.3079(3)
C18 C 0.0644(4) 0.4789(4) 0.2487(4)
H19 H 0.0356 0.4438 0.2391
C19 C 0.1095(4) 0.4961(4) 0.2045(4)
H20 H 0.1122 0.4728 0.1645
C20 C -0.0160(3) 0.5177(3) 0.4048(3)
C21 C 0.2894(5) 0.6266(4) 0.0086(4)
C22 C 0.2245(4) 0.6591(5) 0.0038(5)
H21 H 0.1923 0.6280 -0.0129
H22 H 0.2275 0.6965 -0.0259
H23 H 0.2110 0.6742 0.0471
C23 C 0.2674(6) 0.5747(6) -0.0979(5)
H24 H 0.2814 0.6021 -0.1345
H25 H 0.2216 0.5838 -0.0879
H26 H 0.2723 0.5287 -0.1097
C24 C 0.3736(5) 0.5593(6) -0.0374(6)
H27 H 0.3846 0.5510 0.0084
H28 H 0.4056 0.5893 -0.0563
H29 H 0.3742 0.5181 -0.0616
H15F H 0.2220 0.7456 0.2143
O4E O -0.3196(3) 0.2647(2) 0.3822(3)
O5E O -0.3840(2) 0.2914(3) 0.4658(3)
N4E N -0.1487(3) 0.4919(3) 0.5099(3)
H16E H -0.1593 0.5102 0.5473
N5E N -0.0706(3) 0.4883(3) 0.4284(3)
C13E C -0.3334(3) 0.2983(3) 0.4335(3)
C14E C -0.2837(3) 0.3475(3) 0.4525(3)
C15E C -0.2252(3) 0.3519(3) 0.4203(3)
H17E H -0.2158 0.3225 0.3857
C16E C -0.1789(3) 0.3995(3) 0.4379(3)
H18E H -0.1388 0.4027 0.4148
C17E C -0.1921(3) 0.4415(3) 0.4890(3)
C18E C -0.2513(4) 0.4356(4) 0.5211(4)
H19E H -0.2609 0.4644 0.5562
C19E C -0.2955(4) 0.3905(4) 0.5039(4)
H20E H -0.3355 0.3878 0.5272
C20E C -0.0952(3) 0.5160(3) 0.4823(3)
O4K O -0.1178(3) 0.8196(3) 0.7353(2)
O5K O -0.0342(3) 0.8840(2) 0.7086(3)
N4K N 0.0099(3) 0.6487(3) 0.5081(3)
H16K H 0.0473 0.6593 0.4898
N5K N -0.0716(3) 0.5706(3) 0.5117(3)
C13K C -0.0665(3) 0.8334(3) 0.7017(3)
C14K C -0.0475(3) 0.7837(3) 0.6525(3)
C15K C -0.0797(3) 0.7252(3) 0.6481(3)
H17K H -0.1143 0.7158 0.6775
C16K C -0.0621(3) 0.6789(3) 0.6005(3)
H18K H -0.0852 0.6388 0.5973
C17K C -0.0110(3) 0.6921(3) 0.5585(3)
C18K C 0.0211(4) 0.7513(4) 0.5644(4)
H19K H 0.0562 0.7609 0.5356
C19K C 0.0039(4) 0.7955(4) 0.6095(4)
H20K H 0.0272 0.8355 0.6122
C20K C -0.0177(3) 0.5952(3) 0.4840(3)
O7F O 0.4447(2) 0.6752(3) 0.1333(3)
N6F N 0.5414(3) 0.6929(4) 0.0889(4)
C21F C 0.4914(4) 0.7106(5) 0.1266(4)
C22F C 0.4962(5) 0.7755(4) 0.1591(5)
H21F H 0.5129 0.8077 0.1280
H22F H 0.5259 0.7725 0.1965
H23F H 0.4529 0.7890 0.1742
C23F C 0.5979(5) 0.7326(6) 0.0747(6)
H24F H 0.6345 0.7186 0.1021
H25F H 0.5879 0.7784 0.0838
H26F H 0.6097 0.7277 0.0287
C24F C 0.5374(6) 0.6264(5) 0.0593(6)
H27F H 0.4916 0.6154 0.0510
H28F H 0.5563 0.5944 0.0893
H29F H 0.5616 0.6258 0.0181
O7I O 0.3667(3) 0.5553(2) 0.1752(3)
N6I N 0.4111(4) 0.4586(3) 0.1929(4)
C21I C 0.3734(4) 0.5086(4) 0.2106(5)
C22I C 0.3409(5) 0.5038(5) 0.2755(4)
H21I H 0.3720 0.4871 0.3077
H22I H 0.3035 0.4741 0.2725
H23I H 0.3258 0.5471 0.2890
C23I C 0.4253(6) 0.4021(5) 0.2326(6)
H24I H 0.3979 0.3655 0.2186
H25I H 0.4162 0.4121 0.2784
H26I H 0.4713 0.3903 0.2277
C24I C 0.4407(6) 0.4626(6) 0.1264(5)
H27I H 0.4490 0.5084 0.1154
H28I H 0.4107 0.4437 0.0944
H29I H 0.4819 0.4384 0.1258
Eu2B Eu -0.333901(15) 0.166099(15) 0.333901(15)
Eu2C Eu -0.166099(15) 0.833901(15) 0.833901(15)
O4F O 0.3196(3) 0.7647(2) 0.1178(3)
O4I O 0.3822(3) 0.6804(3) 0.2647(2)
O8 O 0.1977(6) 0.6977(6) 0.8023(6)
O9 O 0.3008(6) 0.8008(6) 0.6992(6)
O10 O 0.1920(13) 0.7350(14) 0.6296(13)
O11 O 0.2330(16) 0.3580(19) 0.1994(13)
H30? H 0.2544 0.7143 0.2780
loop_
_geom_bond_atom_site_label_1
_geom_bond_atom_site_label_2
_geom_bond_site_symmetry_1
_geom_bond_site_symmetry_2
Eu1 O1 1_555 1_555
O1 C1 1_555 1_555
O2 C1 1_555 1_555
O3 Eu1 1_555 1_555
N1 H1 1_555 1_555
N2 C8 1_555 1_555
N3 C9 1_555 1_555
C1 C2 1_555 1_555
C2 C3 1_555 1_555
C3 H2 1_555 1_555
C4 C3 1_555 1_555
H3 C4 1_555 1_555
C5 N1 1_555 1_555
C6 C5 1_555 1_555
H4 C6 1_555 1_555
C7 C2 1_555 1_555
H5 C7 1_555 1_555
C8 N1 1_555 1_555
C9 O3 1_555 1_555
C10 C9 1_555 1_555
H6 C10 1_555 1_555
H7 C10 1_555 1_555
H8 C10 1_555 1_555
C11 N3 1_555 1_555
H9 C11 1_555 1_555
H10 C11 1_555 1_555
H11 C11 1_555 1_555
C12 N3 1_555 1_555
H12 C12 1_555 1_555
H13 C12 1_555 1_555
H14 C12 1_555 1_555
Eu2 O4 1_555 1_555
O4 C13 1_555 1_555
O5 C13 1_555 1_555
O6 Eu2 1_555 1_555
H15 O6 1_555 1_555
O7 Eu2 1_555 1_555
N4 H16 1_555 1_555
N5 C20 1_555 1_555
N6 C21 1_555 1_555
C13 C14 1_555 1_555
C14 C15 1_555 1_555
C15 H17 1_555 1_555
C16 C15 1_555 1_555
H18 C16 1_555 1_555
C17 N4 1_555 1_555
C18 C17 1_555 1_555
H19 C18 1_555 1_555
C19 C14 1_555 1_555
H20 C19 1_555 1_555
C20 N4 1_555 1_555
C21 O7 1_555 1_555
C22 C21 1_555 1_555
H21 C22 1_555 1_555
H22 C22 1_555 1_555
H23 C22 1_555 1_555
C23 N6 1_555 1_555
H24 C23 1_555 1_555
H25 C23 1_555 1_555
H26 C23 1_555 1_555
C24 N6 1_555 1_555
H27 C24 1_555 1_555
H28 C24 1_555 1_555
H29 C24 1_555 1_555
O1G C1G 1_555 1_555
O2G C1G 1_555 1_555
N1G H1G 1_555 1_555
N2G C8G 1_555 1_555
C1G C2G 1_555 1_555
C2G C3G 1_555 1_555
C3G H2G 1_555 1_555
C4G C3G 1_555 1_555
H3G C4G 1_555 1_555
C5G N1G 1_555 1_555
C6G C5G 1_555 1_555
H4G C6G 1_555 1_555
C7G C2G 1_555 1_555
H5G C7G 1_555 1_555
C8G N2 1_555 1_555
O1J C1J 1_555 1_555
O2J C1J 1_555 1_555
N1J H1J 1_555 1_555
N2J C8 1_555 1_555
C1J C2J 1_555 1_555
C2J C3J 1_555 1_555
C3J H2J 1_555 1_555
C4J C3J 1_555 1_555
H3J C4J 1_555 1_555
C5J N1J 1_555 1_555
C6J C5J 1_555 1_555
H4J C6J 1_555 1_555
C7J C2J 1_555 1_555
H5J C7J 1_555 1_555
C8J N2G 1_555 1_555
O3F Eu1 1_555 1_555
N3F C9F 1_555 1_555
C9F O3F 1_555 1_555
C10F C9F 1_555 1_555
H6F C10F 1_555 1_555
H7F C10F 1_555 1_555
H8F C10F 1_555 1_555
C11F N3F 1_555 1_555
H9F C11F 1_555 1_555
H10F C11F 1_555 1_555
H11F C11F 1_555 1_555
C12F N3F 1_555 1_555
H12F C12F 1_555 1_555
H13F C12F 1_555 1_555
H14F C12F 1_555 1_555
O3I Eu1 1_555 1_555
N3I C9I 1_555 1_555
C9I O3I 1_555 1_555
C10I C9I 1_555 1_555
H6I C10I 1_555 1_555
H7I C10I 1_555 1_555
H8I C10I 1_555 1_555
C11I N3I 1_555 1_555
H9I C11I 1_555 1_555
H10I C11I 1_555 1_555
H11I C11I 1_555 1_555
C12I N3I 1_555 1_555
H12I C12I 1_555 1_555
H13I C12I 1_555 1_555
H14I C12I 1_555 1_555
Eu1A O1J 1_555 1_555
Eu1C O1G 1_555 1_555
O1F Eu1 1_555 1_555
O1I Eu1 1_555 1_555
H15F O6 1_555 1_555
O4E C13E 1_555 1_555
O5E C13E 1_555 1_555
N4E H16E 1_555 1_555
N5E C20 1_555 1_555
C13E C14E 1_555 1_555
C14E C15E 1_555 1_555
C15E H17E 1_555 1_555
C16E C15E 1_555 1_555
H18E C16E 1_555 1_555
C17E N4E 1_555 1_555
C18E C17E 1_555 1_555
H19E C18E 1_555 1_555
C19E C14E 1_555 1_555
H20E C19E 1_555 1_555
C20E N4E 1_555 1_555
O4K C13K 1_555 1_555
O5K C13K 1_555 1_555
N4K H16K 1_555 1_555
N5K C20E 1_555 1_555
C13K C14K 1_555 1_555
C14K C15K 1_555 1_555
C15K H17K 1_555 1_555
C16K C15K 1_555 1_555
H18K C16K 1_555 1_555
C17K N4K 1_555 1_555
C18K C17K 1_555 1_555
H19K C18K 1_555 1_555
C19K C14K 1_555 1_555
H20K C19K 1_555 1_555
C20K N5 1_555 1_555
O7F Eu2 1_555 1_555
N6F C21F 1_555 1_555
C21F O7F 1_555 1_555
C22F C21F 1_555 1_555
H21F C22F 1_555 1_555
H22F C22F 1_555 1_555
H23F C22F 1_555 1_555
C23F N6F 1_555 1_555
H24F C23F 1_555 1_555
H25F C23F 1_555 1_555
H26F C23F 1_555 1_555
C24F N6F 1_555 1_555
H27F C24F 1_555 1_555
H28F C24F 1_555 1_555
H29F C24F 1_555 1_555
O7I Eu2 1_555 1_555
N6I C21I 1_555 1_555
C21I O7I 1_555 1_555
C22I C21I 1_555 1_555
H21I C22I 1_555 1_555
H22I C22I 1_555 1_555
H23I C22I 1_555 1_555
C23I N6I 1_555 1_555
H24I C23I 1_555 1_555
H25I C23I 1_555 1_555
H26I C23I 1_555 1_555
C24I N6I 1_555 1_555
H27I C24I 1_555 1_555
H28I C24I 1_555 1_555
H29I C24I 1_555 1_555
Eu2B O4E 1_555 1_555
Eu2C O4K 1_555 1_555
O4F Eu2 1_555 1_555
O4I Eu2 1_555 1_555
C4 C5 1_555 1_555
C6 C7 1_555 1_555
C16 C17 1_555 1_555
C18 C19 1_555 1_555
N1G C8G 1_555 1_555
C4G C5G 1_555 1_555
C6G C7G 1_555 1_555
N1J C8J 1_555 1_555
N2J C8J 1_555 1_555
C4J C5J 1_555 1_555
C6J C7J 1_555 1_555
N5E C20E 1_555 1_555
C16E C17E 1_555 1_555
C18E C19E 1_555 1_555
N4K C20K 1_555 1_555
N5K C20K 1_555 1_555
C16K C17K 1_555 1_555
C18K C19K 1_555 1_555

#END
