
#######################################################################
#
#                 Cambridge Crystallographic Data Centre
#                                CCDC 
#
#######################################################################
#
# If this CIF has been generated from an entry in the Cambridge 
# Structural Database, then it will include bibliographic, chemical, 
# crystal, experimental, refinement or atomic coordinate data resulting 
# from the CCDC's data processing and validation procedures.
#
#######################################################################

data_SOZSUV
_symmetry_cell_setting           orthorhombic
_symmetry_space_group_name_H-M   'P 21 21 21'
_symmetry_Int_Tables_number      19
_space_group_name_Hall           'P 2ac 2ab'
loop_
_symmetry_equiv_pos_site_id
_symmetry_equiv_pos_as_xyz
1 x,y,z
2 1/2+x,1/2-y,-z
3 -x,1/2+y,1/2-z
4 1/2-x,-y,1/2+z
_cell_length_a                   7.360(2)
_cell_length_b                   14.644(3)
_cell_length_c                   22.844(4)
_cell_angle_alpha                90
_cell_angle_beta                 90
_cell_angle_gamma                90
_cell_volume                     2462.12
loop_
_atom_site_label
_atom_site_type_symbol
_atom_site_fract_x
_atom_site_fract_y
_atom_site_fract_z
Sb1 Sb 0.3087(3) 0.1720(1) 0.6422(1)
F1 F 0.5138(26) 0.2347(11) 0.6527(10)
F2 F 0.2878(41) 0.1498(36) 0.7153(13)
F3 F 0.1207(29) 0.0971(18) 0.6250(21)
F4 F 0.3269(44) 0.1715(33) 0.5676(8)
F5 F 0.1537(40) 0.2629(16) 0.6462(15)
F6 F 0.4582(30) 0.0749(12) 0.6409(24)
Ag1 Ag 0.2756(2) 0.6690(1) 0.4715(1)
P1 P 0.1160(7) 0.8008(3) 0.5113(2)
O1 O 0.1283(18) 0.8647(7) 0.4454(5)
O2 O 0.1364(18) 0.7536(7) 0.5855(5)
N1 N 0.2434(19) 0.8888(9) 0.5405(6)
N2 N 0.2633(36) 0.5173(11) 0.4946(14)
N3 N 0.2709(43) 0.6128(17) 0.3782(11)
C1 C 0.2162(37) 0.9448(12) 0.4497(9)
C2 C 0.2798(35) 0.9605(10) 0.5052(9)
C3 C 0.2846(36) 0.8833(12) 0.5954(9)
C4 C 0.2261(35) 0.8068(11) 0.6223(7)
C5 C 0.2769(45) 0.4448(16) 0.4838(15)
C6 C 0.2900(46) 0.3480(15) 0.4713(16)
C7 C 0.2766(55) 0.5657(24) 0.3397(18)
C8 C 0.2875(58) 0.5011(32) 0.2899(18)
C9 C 0.2214(55) 1.0063(17) 0.3980(11)
C10 C 0.3152(54) 1.0977(18) 0.4142(11)
C11 C 0.3226(57) 0.9606(23) 0.3486(12)
C12 C 0.0329(77) 1.0315(24) 0.3794(17)
C13 C 0.2368(61) 0.7743(15) 0.6850(9)
C14 C 0.3238(61) 0.6802(18) 0.6847(12)
C15 C 0.3350(66) 0.8458(23) 0.7198(10)
C16 C 0.0480(79) 0.7550(31) 0.7056(18)
H1 H 0.3580 1.0115 0.5175
H2 H 0.3442 0.9251 0.6202
H3 H 0.3216 0.3331 0.4277
H4 H 0.2052 0.3139 0.4830
H5 H 0.4138 0.3268 0.4887
H6 H 0.2553 0.5410 0.2516
H7 H 0.1809 0.4627 0.2906
H8 H 0.3890 0.4764 0.2839
H9 H 0.3432 1.1386 0.3811
H10 H 0.4535 1.0829 0.4267
H11 H 0.2720 1.1290 0.4447
H12 H 0.3420 0.9919 0.3143
H13 H 0.2670 0.9007 0.3390
H14 H 0.4484 0.9403 0.3627
H15 H 0.0474 1.0710 0.3446
H16 H -0.0178 1.0620 0.4089
H17 H -0.0221 0.9777 0.3677
H18 H 0.3674 0.6602 0.7229
H19 H 0.4538 0.6884 0.6636
H20 H 0.2671 0.6391 0.6647
H21 H 0.3689 0.8304 0.7587
H22 H 0.2847 0.9043 0.7183
H23 H 0.4644 0.8562 0.7005
H24 H 0.0521 0.7359 0.7429
H25 H 0.0149 0.7071 0.6786
H26 H -0.0159 0.8075 0.6979
Ag1A Ag -0.2244(2) 0.8310(1) 0.5285(1)
P1A P 0.6160(7) 0.6992(3) 0.4887(2)
loop_
_geom_bond_atom_site_label_1
_geom_bond_atom_site_label_2
_geom_bond_site_symmetry_1
_geom_bond_site_symmetry_2
Sb1 F1 1_555 1_555
Ag1 P1 1_555 1_555
P1 O1 1_555 1_555
F2 Sb1 1_555 1_555
F3 Sb1 1_555 1_555
F4 Sb1 1_555 1_555
F5 Sb1 1_555 1_555
F6 Sb1 1_555 1_555
O1 C1 1_555 1_555
O2 P1 1_555 1_555
N1 P1 1_555 1_555
N2 Ag1 1_555 1_555
N3 Ag1 1_555 1_555
C1 C2 1_555 1_555
C2 N1 1_555 1_555
C3 N1 1_555 1_555
C4 O2 1_555 1_555
C5 N2 1_555 1_555
C6 C5 1_555 1_555
C7 N3 1_555 1_555
C8 C7 1_555 1_555
C9 C1 1_555 1_555
C10 C9 1_555 1_555
C11 C9 1_555 1_555
C12 C9 1_555 1_555
C13 C4 1_555 1_555
C14 C13 1_555 1_555
C15 C13 1_555 1_555
C16 C13 1_555 1_555
H1 C2 1_555 1_555
H2 C3 1_555 1_555
H3 C6 1_555 1_555
H4 C6 1_555 1_555
H5 C6 1_555 1_555
H6 C8 1_555 1_555
H7 C8 1_555 1_555
H8 C8 1_555 1_555
H9 C10 1_555 1_555
H10 C10 1_555 1_555
H11 C10 1_555 1_555
H12 C11 1_555 1_555
H13 C11 1_555 1_555
H14 C11 1_555 1_555
H15 C12 1_555 1_555
H16 C12 1_555 1_555
H17 C12 1_555 1_555
H18 C14 1_555 1_555
H19 C14 1_555 1_555
H20 C14 1_555 1_555
H21 C15 1_555 1_555
H22 C15 1_555 1_555
H23 C15 1_555 1_555
H24 C16 1_555 1_555
H25 C16 1_555 1_555
H26 C16 1_555 1_555
Ag1A P1 1_555 1_555
P1A Ag1 1_555 1_555
C3 C4 1_555 1_555

#END
