
#######################################################################
#
#                 Cambridge Crystallographic Data Centre
#                                CCDC 
#
#######################################################################
#
# If this CIF has been generated from an entry in the Cambridge 
# Structural Database, then it will include bibliographic, chemical, 
# crystal, experimental, refinement or atomic coordinate data resulting 
# from the CCDC's data processing and validation procedures.
#
#######################################################################

data_SOZSOR
_symmetry_cell_setting           cubic
_symmetry_space_group_name_H-M   'P 21 3'
_symmetry_Int_Tables_number      198
_space_group_name_Hall           'P 2ac 2ab 3'
loop_
_symmetry_equiv_pos_site_id
_symmetry_equiv_pos_as_xyz
1 x,y,z
2 1/2-x,-y,1/2+z
3 -x,1/2+y,1/2-z
4 1/2+x,1/2-y,-z
5 z,x,y
6 1/2+z,1/2-x,-y
7 1/2-z,-x,1/2+y
8 -z,1/2+x,1/2-y
9 y,z,x
10 -y,1/2+z,1/2-x
11 1/2+y,1/2-z,-x
12 1/2-y,-z,1/2+x
_cell_length_a                   20.4032(10)
_cell_length_b                   20.4032(10)
_cell_length_c                   20.4032(10)
_cell_angle_alpha                90
_cell_angle_beta                 90
_cell_angle_gamma                90
_cell_volume                     8493.66
loop_
_atom_site_label
_atom_site_type_symbol
_atom_site_fract_x
_atom_site_fract_y
_atom_site_fract_z
Dy1 Dy 0.154167(10) 0.845833(10) 0.345833(10)
O1 O 0.1344(2) 0.8110(2) 0.24393(19)
O2 O 0.0594(2) 0.88358(19) 0.2120(2)
O3 O 0.1676(2) 0.8658(2) 0.45474(18)
N1 N -0.0021(2) 0.6523(2) 0.0116(2)
H1 H -0.0393 0.6655 -0.0059
N2 N -0.0104(2) 0.5760(2) -0.0688(2)
N3 N 0.1930(4) 0.9139(4) 0.5472(3)
C1 C 0.0872(2) 0.8293(3) 0.2068(2)
C2 C 0.0651(2) 0.7815(2) 0.1562(3)
C3 C 0.0139(3) 0.7966(3) 0.1147(3)
H2 H -0.0073 0.8378 0.1187
C4 C -0.0065(3) 0.7536(3) 0.0683(3)
H3 H -0.0409 0.7658 0.0394
C5 C 0.0218(2) 0.6919(2) 0.0622(3)
C6 C 0.0731(3) 0.6761(3) 0.1045(2)
H4 H 0.0941 0.6347 0.1009
C7 C 0.0935(2) 0.7199(2) 0.1510(3)
H5 H 0.1276 0.7079 0.1803
C8 C 0.0232(3) 0.5965(2) -0.0147(3)
C9 C 0.2062(4) 0.8753(4) 0.5005(3)
C10 C 0.2711(4) 0.8392(4) 0.5020(4)
H6 H 0.2731 0.8084 0.4652
H7 H 0.2751 0.8151 0.5433
H8 H 0.3071 0.8708 0.4984
C11 C 0.1279(4) 0.9501(5) 0.5420(4)
H9 H 0.1047 0.9357 0.5025
H10 H 0.1360 0.9974 0.5395
H11 H 0.1011 0.9405 0.5807
C12 C 0.2328(5) 0.9293(5) 0.6045(4)
H12 H 0.2126 0.9102 0.6436
H13 H 0.2356 0.9770 0.6096
H14 H 0.2769 0.9112 0.5987
O1G O -0.24393(19) 0.6344(2) -0.3110(2)
O2G O -0.2120(2) 0.5594(2) -0.38358(19)
N1G N -0.0116(2) 0.4979(2) -0.1523(2)
H1G H 0.0059 0.4607 -0.1655
N2G N 0.0688(2) 0.4896(2) -0.0760(2)
C1G C -0.2068(2) 0.5872(2) -0.3293(3)
C2G C -0.1562(3) 0.5651(2) -0.2815(2)
C3G C -0.1147(3) 0.5139(3) -0.2966(3)
H2G H -0.1187 0.4927 -0.3378
C4G C -0.0683(3) 0.4935(3) -0.2536(3)
H3G H -0.0394 0.4591 -0.2658
C5G C -0.0622(3) 0.5218(2) -0.1919(2)
C6G C -0.1045(2) 0.5731(3) -0.1761(3)
H4G H -0.1009 0.5941 -0.1347
C7G C -0.1510(3) 0.5935(2) -0.2199(2)
H5G H -0.1803 0.6276 -0.2079
C8G C 0.0147(3) 0.5232(3) -0.0965(2)
O1J O 0.3110(2) 0.25607(19) -0.1344(2)
O2J O 0.38358(19) 0.2880(2) -0.0594(2)
N1J N 0.1523(2) 0.4884(2) 0.0021(2)
H1J H 0.1655 0.5059 0.0393
N2J N 0.0760(2) 0.5688(2) 0.0104(2)
C1J C 0.3293(3) 0.2932(2) -0.0872(2)
C2J C 0.2815(2) 0.3438(3) -0.0651(2)
C3J C 0.2966(3) 0.3853(3) -0.0139(3)
H2J H 0.3378 0.3813 0.0073
C4J C 0.2536(3) 0.4317(3) 0.0065(3)
H3J H 0.2658 0.4606 0.0409
C5J C 0.1919(2) 0.4378(3) -0.0218(2)
C6J C 0.1761(3) 0.3955(2) -0.0731(3)
H4J H 0.1347 0.3991 -0.0941
C7J C 0.2199(2) 0.3490(3) -0.0935(2)
H5J H 0.2079 0.3197 -0.1276
C8J C 0.0965(2) 0.5147(3) -0.0232(3)
O3F O 0.04526(18) 0.8324(2) 0.3658(2)
N3F N -0.0472(3) 0.8070(4) 0.4139(4)
C9F C -0.0005(3) 0.7938(4) 0.3753(4)
C10F C -0.0020(4) 0.7289(4) 0.3392(4)
H6F H 0.0348 0.7269 0.3084
H7F H -0.0433 0.7249 0.3151
H8F H 0.0016 0.6929 0.3708
C11F C -0.0420(4) 0.8721(4) 0.4501(5)
H9F H -0.0025 0.8953 0.4357
H10F H -0.0395 0.8640 0.4974
H11F H -0.0807 0.8989 0.4405
C12F C -0.1045(4) 0.7672(5) 0.4293(5)
H12F H -0.1436 0.7874 0.4102
H13F H -0.1096 0.7644 0.4770
H14F H -0.0987 0.7231 0.4112
O3I O 0.1342(2) 0.95474(18) 0.3324(2)
N3I N 0.0861(4) 1.0472(3) 0.3070(4)
C9I C 0.1247(4) 1.0005(3) 0.2938(4)
C10I C 0.1608(4) 1.0020(4) 0.2289(4)
H6I H 0.1916 0.9652 0.2269
H7I H 0.1849 1.0433 0.2249
H8I H 0.1292 0.9984 0.1929
C11I C 0.0499(5) 1.0420(4) 0.3721(4)
H9I H 0.0643 1.0025 0.3953
H10I H 0.0026 1.0395 0.3640
H11I H 0.0595 1.0807 0.3989
C12I C 0.0707(5) 1.1045(4) 0.2672(5)
H12I H 0.0898 1.1436 0.2874
H13I H 0.0230 1.1096 0.2644
H14I H 0.0888 1.0987 0.2231
Dy1A Dy 0.345833(10) 0.154167(10) -0.154167(10)
Dy1C Dy -0.345833(10) 0.654167(10) -0.345833(10)
O1F O 0.25607(19) 0.8656(2) 0.3110(2)
O1I O 0.1890(2) 0.74393(19) 0.3656(2)
Dy2 Dy 0.333331(10) 0.666669(10) 0.166669(10)
O4 O 0.23692(19) 0.61815(19) 0.18025(19)
O5 O 0.21108(19) 0.5343(2) 0.11563(18)
O6 O 0.26395(17) 0.73605(17) 0.23605(17)
H15 H 0.2544 0.7143 0.2780
O7 O 0.3250(2) 0.6334(2) 0.05734(18)
N4 N 0.0080(2) 0.4904(2) 0.3495(2)
H16 H -0.0107 0.4532 0.3383
N5 N 0.0113(2) 0.5720(2) 0.4294(2)
N6 N 0.3072(3) 0.5912(4) -0.0408(3)
C13 C 0.2036(2) 0.5676(3) 0.1663(3)
C14 C 0.1539(2) 0.5476(2) 0.2163(2)
C15 C 0.1483(3) 0.5803(3) 0.2746(2)
H17 H 0.1772 0.6155 0.2840
C16 C 0.1006(3) 0.5625(3) 0.3207(3)
H18 H 0.0971 0.5860 0.3608
C17 C 0.0582(2) 0.5106(3) 0.3079(2)
C18 C 0.0635(3) 0.4781(3) 0.2480(3)
H19 H 0.0340 0.4435 0.2379
C19 C 0.1109(3) 0.4956(3) 0.2036(3)
H20 H 0.1146 0.4720 0.1637
C20 C -0.0166(3) 0.5186(2) 0.4040(2)
C21 C 0.2890(3) 0.6279(3) 0.0101(3)
C22 C 0.2247(3) 0.6608(4) 0.0059(4)
H21 H 0.1899 0.6277 0.0037
H22 H 0.2233 0.6882 -0.0335
H23 H 0.2182 0.6883 0.0448
C23 C 0.2687(5) 0.5774(5) -0.0982(4)
H24 H 0.2626 0.5300 -0.1024
H25 H 0.2914 0.5941 -0.1371
H26 H 0.2259 0.5988 -0.0943
C24 C 0.3730(4) 0.5607(5) -0.0383(5)
H27 H 0.3937 0.5708 0.0038
H28 H 0.4000 0.5781 -0.0740
H29 H 0.3687 0.5131 -0.0431
H15F H 0.2220 0.7456 0.2143
O4E O -0.31975(19) 0.26308(19) 0.38185(19)
O5E O -0.38437(18) 0.28892(19) 0.4657(2)
N4E N -0.1505(2) 0.4920(2) 0.5096(2)
H16E H -0.1617 0.5107 0.5468
N5E N -0.0706(2) 0.4887(2) 0.4280(2)
C13E C -0.3337(3) 0.2964(2) 0.4324(3)
C14E C -0.2837(2) 0.3461(2) 0.4524(2)
C15E C -0.2254(2) 0.3517(3) 0.4197(3)
H17E H -0.2160 0.3228 0.3845
C16E C -0.1793(3) 0.3994(3) 0.4375(3)
H18E H -0.1392 0.4029 0.4140
C17E C -0.1921(2) 0.4418(2) 0.4894(3)
C18E C -0.2520(3) 0.4365(3) 0.5219(3)
H19E H -0.2621 0.4660 0.5565
C19E C -0.2964(3) 0.3891(3) 0.5044(3)
H20E H -0.3363 0.3854 0.5280
C20E C -0.0960(2) 0.5166(3) 0.4814(2)
O4K O -0.11815(19) 0.81975(19) 0.73692(19)
O5K O -0.0343(2) 0.88437(18) 0.71108(19)
N4K N 0.0096(2) 0.6505(2) 0.5080(2)
H16K H 0.0468 0.6617 0.4893
N5K N -0.0720(2) 0.5706(2) 0.5113(2)
C13K C -0.0676(3) 0.8337(3) 0.7036(2)
C14K C -0.0476(2) 0.7837(2) 0.6539(2)
C15K C -0.0803(3) 0.7254(2) 0.6483(3)
H17K H -0.1155 0.7160 0.6772
C16K C -0.0625(3) 0.6793(3) 0.6006(3)
H18K H -0.0860 0.6392 0.5971
C17K C -0.0106(3) 0.6921(2) 0.5582(2)
C18K C 0.0219(3) 0.7520(3) 0.5635(3)
H19K H 0.0565 0.7621 0.5340
C19K C 0.0044(3) 0.7964(3) 0.6109(3)
H20K H 0.0280 0.8363 0.6146
C20K C -0.0186(2) 0.5960(2) 0.4834(3)
O7F O 0.44266(18) 0.6750(2) 0.1334(2)
N6F N 0.5408(3) 0.6928(3) 0.0912(4)
C21F C 0.4899(3) 0.7110(3) 0.1279(3)
C22F C 0.4941(4) 0.7753(3) 0.1608(4)
H21F H 0.4963 0.8101 0.1277
H22F H 0.5335 0.7767 0.1882
H23F H 0.4552 0.7818 0.1883
C23F C 0.5982(4) 0.7313(5) 0.0774(5)
H24F H 0.6024 0.7374 0.0300
H25F H 0.6371 0.7086 0.0941
H26F H 0.5943 0.7741 0.0988
C24F C 0.5383(5) 0.6270(4) 0.0607(5)
H27F H 0.4962 0.6063 0.0708
H28F H 0.5740 0.6000 0.0781
H29F H 0.5431 0.6313 0.0131
O7I O 0.3666(2) 0.55734(18) 0.1750(2)
N6I N 0.4088(4) 0.4592(3) 0.1928(3)
C21I C 0.3721(3) 0.5101(3) 0.2110(3)
C22I C 0.3392(4) 0.5059(4) 0.2753(3)
H21I H 0.3723 0.5037 0.3101
H22I H 0.3118 0.4665 0.2767
H23I H 0.3117 0.5448 0.2818
C23I C 0.4226(5) 0.4018(4) 0.2313(5)
H24I H 0.4700 0.3976 0.2374
H25I H 0.4059 0.3629 0.2086
H26I H 0.4012 0.4057 0.2741
C24I C 0.4393(5) 0.4617(5) 0.1270(4)
H27I H 0.4292 0.5038 0.1063
H28I H 0.4219 0.4260 0.1000
H29I H 0.4869 0.4569 0.1313
Dy2B Dy -0.333331(10) 0.166669(10) 0.333331(10)
Dy2C Dy -0.166669(10) 0.833331(10) 0.833331(10)
O4F O 0.31975(19) 0.76308(19) 0.11815(19)
O4I O 0.38185(19) 0.68025(19) 0.26308(19)
O8 O 0.1975(5) 0.6975(5) 0.8025(5)
O9 O 0.3014(5) 0.8014(5) 0.6986(5)
O10 O 0.1916(13) 0.7352(13) 0.6323(13)
O11 O 0.2415(11) 0.3631(13) 0.1888(16)
H30? H 0.2544 0.7143 0.2780
loop_
_geom_bond_atom_site_label_1
_geom_bond_atom_site_label_2
_geom_bond_site_symmetry_1
_geom_bond_site_symmetry_2
Dy1 O1 1_555 1_555
O1 C1 1_555 1_555
O2 C1 1_555 1_555
O3 Dy1 1_555 1_555
N1 H1 1_555 1_555
N2 C8 1_555 1_555
N3 C9 1_555 1_555
C1 C2 1_555 1_555
C2 C3 1_555 1_555
C3 H2 1_555 1_555
C4 C3 1_555 1_555
H3 C4 1_555 1_555
C5 N1 1_555 1_555
C6 C5 1_555 1_555
H4 C6 1_555 1_555
C7 C2 1_555 1_555
H5 C7 1_555 1_555
C8 N1 1_555 1_555
C9 O3 1_555 1_555
C10 C9 1_555 1_555
H6 C10 1_555 1_555
H7 C10 1_555 1_555
H8 C10 1_555 1_555
C11 N3 1_555 1_555
H9 C11 1_555 1_555
H10 C11 1_555 1_555
H11 C11 1_555 1_555
C12 N3 1_555 1_555
H12 C12 1_555 1_555
H13 C12 1_555 1_555
H14 C12 1_555 1_555
Dy2 O4 1_555 1_555
O4 C13 1_555 1_555
O5 C13 1_555 1_555
O6 Dy2 1_555 1_555
H15 O6 1_555 1_555
O7 Dy2 1_555 1_555
N4 H16 1_555 1_555
N5 C20 1_555 1_555
N6 C21 1_555 1_555
C13 C14 1_555 1_555
C14 C15 1_555 1_555
C15 H17 1_555 1_555
C16 C15 1_555 1_555
H18 C16 1_555 1_555
C17 N4 1_555 1_555
C18 C17 1_555 1_555
H19 C18 1_555 1_555
C19 C14 1_555 1_555
H20 C19 1_555 1_555
C20 N4 1_555 1_555
C21 O7 1_555 1_555
C22 C21 1_555 1_555
H21 C22 1_555 1_555
H22 C22 1_555 1_555
H23 C22 1_555 1_555
C23 N6 1_555 1_555
H24 C23 1_555 1_555
H25 C23 1_555 1_555
H26 C23 1_555 1_555
C24 N6 1_555 1_555
H27 C24 1_555 1_555
H28 C24 1_555 1_555
H29 C24 1_555 1_555
O1G C1G 1_555 1_555
O2G C1G 1_555 1_555
N1G H1G 1_555 1_555
N2G C8G 1_555 1_555
C1G C2G 1_555 1_555
C2G C3G 1_555 1_555
C3G H2G 1_555 1_555
C4G C3G 1_555 1_555
H3G C4G 1_555 1_555
C5G N1G 1_555 1_555
C6G C5G 1_555 1_555
H4G C6G 1_555 1_555
C7G C2G 1_555 1_555
H5G C7G 1_555 1_555
C8G N2 1_555 1_555
O1J C1J 1_555 1_555
O2J C1J 1_555 1_555
N1J H1J 1_555 1_555
N2J C8 1_555 1_555
C1J C2J 1_555 1_555
C2J C3J 1_555 1_555
C3J H2J 1_555 1_555
C4J C3J 1_555 1_555
H3J C4J 1_555 1_555
C5J N1J 1_555 1_555
C6J C5J 1_555 1_555
H4J C6J 1_555 1_555
C7J C2J 1_555 1_555
H5J C7J 1_555 1_555
C8J N2G 1_555 1_555
O3F Dy1 1_555 1_555
N3F C9F 1_555 1_555
C9F O3F 1_555 1_555
C10F C9F 1_555 1_555
H6F C10F 1_555 1_555
H7F C10F 1_555 1_555
H8F C10F 1_555 1_555
C11F N3F 1_555 1_555
H9F C11F 1_555 1_555
H10F C11F 1_555 1_555
H11F C11F 1_555 1_555
C12F N3F 1_555 1_555
H12F C12F 1_555 1_555
H13F C12F 1_555 1_555
H14F C12F 1_555 1_555
O3I Dy1 1_555 1_555
N3I C9I 1_555 1_555
C9I O3I 1_555 1_555
C10I C9I 1_555 1_555
H6I C10I 1_555 1_555
H7I C10I 1_555 1_555
H8I C10I 1_555 1_555
C11I N3I 1_555 1_555
H9I C11I 1_555 1_555
H10I C11I 1_555 1_555
H11I C11I 1_555 1_555
C12I N3I 1_555 1_555
H12I C12I 1_555 1_555
H13I C12I 1_555 1_555
H14I C12I 1_555 1_555
Dy1A O1J 1_555 1_555
Dy1C O1G 1_555 1_555
O1F Dy1 1_555 1_555
O1I Dy1 1_555 1_555
H15F O6 1_555 1_555
O4E C13E 1_555 1_555
O5E C13E 1_555 1_555
N4E H16E 1_555 1_555
N5E C20 1_555 1_555
C13E C14E 1_555 1_555
C14E C15E 1_555 1_555
C15E H17E 1_555 1_555
C16E C15E 1_555 1_555
H18E C16E 1_555 1_555
C17E N4E 1_555 1_555
C18E C17E 1_555 1_555
H19E C18E 1_555 1_555
C19E C14E 1_555 1_555
H20E C19E 1_555 1_555
C20E N4E 1_555 1_555
O4K C13K 1_555 1_555
O5K C13K 1_555 1_555
N4K H16K 1_555 1_555
N5K C20E 1_555 1_555
C13K C14K 1_555 1_555
C14K C15K 1_555 1_555
C15K H17K 1_555 1_555
C16K C15K 1_555 1_555
H18K C16K 1_555 1_555
C17K N4K 1_555 1_555
C18K C17K 1_555 1_555
H19K C18K 1_555 1_555
C19K C14K 1_555 1_555
H20K C19K 1_555 1_555
C20K N5 1_555 1_555
O7F Dy2 1_555 1_555
N6F C21F 1_555 1_555
C21F O7F 1_555 1_555
C22F C21F 1_555 1_555
H21F C22F 1_555 1_555
H22F C22F 1_555 1_555
H23F C22F 1_555 1_555
C23F N6F 1_555 1_555
H24F C23F 1_555 1_555
H25F C23F 1_555 1_555
H26F C23F 1_555 1_555
C24F N6F 1_555 1_555
H27F C24F 1_555 1_555
H28F C24F 1_555 1_555
H29F C24F 1_555 1_555
O7I Dy2 1_555 1_555
N6I C21I 1_555 1_555
C21I O7I 1_555 1_555
C22I C21I 1_555 1_555
H21I C22I 1_555 1_555
H22I C22I 1_555 1_555
H23I C22I 1_555 1_555
C23I N6I 1_555 1_555
H24I C23I 1_555 1_555
H25I C23I 1_555 1_555
H26I C23I 1_555 1_555
C24I N6I 1_555 1_555
H27I C24I 1_555 1_555
H28I C24I 1_555 1_555
H29I C24I 1_555 1_555
Dy2B O4E 1_555 1_555
Dy2C O4K 1_555 1_555
O4F Dy2 1_555 1_555
O4I Dy2 1_555 1_555
C4 C5 1_555 1_555
C6 C7 1_555 1_555
C16 C17 1_555 1_555
C18 C19 1_555 1_555
N1G C8G 1_555 1_555
C4G C5G 1_555 1_555
C6G C7G 1_555 1_555
N1J C8J 1_555 1_555
N2J C8J 1_555 1_555
C4J C5J 1_555 1_555
C6J C7J 1_555 1_555
N5E C20E 1_555 1_555
C16E C17E 1_555 1_555
C18E C19E 1_555 1_555
N4K C20K 1_555 1_555
N5K C20K 1_555 1_555
C16K C17K 1_555 1_555
C18K C19K 1_555 1_555

#END
