
#######################################################################
#
#                 Cambridge Crystallographic Data Centre
#                                CCDC 
#
#######################################################################
#
# If this CIF has been generated from an entry in the Cambridge 
# Structural Database, then it will include bibliographic, chemical, 
# crystal, experimental, refinement or atomic coordinate data resulting 
# from the CCDC's data processing and validation procedures.
#
#######################################################################

data_SOZSEH
_symmetry_cell_setting           cubic
_symmetry_space_group_name_H-M   'P 21 3'
_symmetry_Int_Tables_number      198
_space_group_name_Hall           'P 2ac 2ab 3'
loop_
_symmetry_equiv_pos_site_id
_symmetry_equiv_pos_as_xyz
1 x,y,z
2 1/2-x,-y,1/2+z
3 -x,1/2+y,1/2-z
4 1/2+x,1/2-y,-z
5 z,x,y
6 1/2+z,1/2-x,-y
7 1/2-z,-x,1/2+y
8 -z,1/2+x,1/2-y
9 y,z,x
10 -y,1/2+z,1/2-x
11 1/2+y,1/2-z,-x
12 1/2-y,-z,1/2+x
_cell_length_a                   20.425(4)
_cell_length_b                   20.425(4)
_cell_length_c                   20.425(4)
_cell_angle_alpha                90
_cell_angle_beta                 90
_cell_angle_gamma                90
_cell_volume                     8520.91
loop_
_atom_site_label
_atom_site_type_symbol
_atom_site_fract_x
_atom_site_fract_y
_atom_site_fract_z
Gd1 Gd 0.152518(15) 0.847482(15) 0.347482(15)
O1 O 0.1332(3) 0.8084(3) 0.2450(3)
O2 O 0.0625(3) 0.8822(3) 0.2144(3)
O3 O 0.1654(3) 0.8676(3) 0.4578(3)
N1 N -0.0008(3) 0.6556(3) 0.0092(3)
H1 H -0.0367 0.6703 -0.0093
N2 N -0.0085(3) 0.5780(3) -0.0706(3)
N3 N 0.1914(6) 0.9150(5) 0.5489(4)
C1 C 0.0876(3) 0.8280(4) 0.2090(3)
C2 C 0.0661(3) 0.7814(3) 0.1561(3)
C3 C 0.0173(4) 0.7974(3) 0.1140(4)
H2 H -0.0022 0.8395 0.1171
C4 C -0.0047(4) 0.7550(4) 0.0675(4)
H3 H -0.0394 0.7677 0.0393
C5 C 0.0238(3) 0.6922(3) 0.0607(3)
C6 C 0.0743(3) 0.6766(3) 0.1037(3)
H4 H 0.0952 0.6352 0.1003
C7 C 0.0939(3) 0.7189(3) 0.1499(3)
H5 H 0.1276 0.7062 0.1794
C8 C 0.0252(3) 0.5979(3) -0.0165(4)
C9 C 0.2036(6) 0.8772(5) 0.5030(5)
C10 C 0.2705(5) 0.8402(6) 0.5039(6)
H6 H 0.2702 0.8058 0.4703
H7 H 0.2772 0.8203 0.5470
H8 H 0.3060 0.8711 0.4948
C11 C 0.1266(6) 0.9508(6) 0.5453(6)
H9 H 0.1032 0.9375 0.5056
H10 H 0.1344 0.9981 0.5442
H11 H 0.1002 0.9398 0.5838
C12 C 0.2316(8) 0.9307(8) 0.6059(5)
H12 H 0.2236 0.8984 0.6404
H13 H 0.2201 0.9744 0.6220
H14 H 0.2779 0.9299 0.5935
O1G O -0.2450(3) 0.6332(3) -0.3084(3)
O2G O -0.2144(3) 0.5625(3) -0.3822(3)
N1G N -0.0092(3) 0.4992(3) -0.1556(3)
H1G H 0.0093 0.4633 -0.1703
N2G N 0.0706(3) 0.4915(3) -0.0780(3)
C1G C -0.2090(3) 0.5876(3) -0.3280(4)
C2G C -0.1561(3) 0.5661(3) -0.2814(3)
C3G C -0.1140(4) 0.5173(4) -0.2974(3)
H2G H -0.1171 0.4978 -0.3395
C4G C -0.0675(4) 0.4953(4) -0.2550(4)
H3G H -0.0393 0.4606 -0.2677
C5G C -0.0607(3) 0.5238(3) -0.1922(3)
C6G C -0.1037(3) 0.5743(3) -0.1766(3)
H4G H -0.1003 0.5952 -0.1352
C7G C -0.1499(3) 0.5939(3) -0.2189(3)
H5G H -0.1794 0.6276 -0.2062
C8G C 0.0165(4) 0.5252(3) -0.0979(3)
O1J O 0.3084(3) 0.2550(3) -0.1332(3)
O2J O 0.3822(3) 0.2856(3) -0.0625(3)
N1J N 0.1556(3) 0.4908(3) 0.0008(3)
H1J H 0.1703 0.5093 0.0367
N2J N 0.0780(3) 0.5706(3) 0.0085(3)
C1J C 0.3280(4) 0.2910(3) -0.0876(3)
C2J C 0.2814(3) 0.3439(3) -0.0661(3)
C3J C 0.2974(3) 0.3860(4) -0.0173(4)
H2J H 0.3395 0.3829 0.0022
C4J C 0.2550(4) 0.4325(4) 0.0047(4)
H3J H 0.2677 0.4607 0.0394
C5J C 0.1922(3) 0.4393(3) -0.0238(3)
C6J C 0.1766(3) 0.3963(3) -0.0743(3)
H4J H 0.1352 0.3997 -0.0952
C7J C 0.2189(3) 0.3501(3) -0.0939(3)
H5J H 0.2062 0.3206 -0.1276
C8J C 0.0979(3) 0.5165(4) -0.0252(3)
O3F O 0.0422(3) 0.8346(3) 0.3676(3)
N3F N -0.0489(4) 0.8086(6) 0.4150(5)
C9F C -0.0030(5) 0.7964(6) 0.3772(5)
C10F C -0.0039(6) 0.7295(5) 0.3402(6)
H6F H 0.0297 0.7298 0.3058
H7F H -0.0470 0.7228 0.3203
H8F H 0.0052 0.6940 0.3711
C11F C -0.0453(6) 0.8734(6) 0.4508(6)
H9F H -0.0056 0.8968 0.4375
H10F H -0.0442 0.8656 0.4981
H11F H -0.0838 0.8998 0.4398
C12F C -0.1059(5) 0.7684(8) 0.4307(8)
H12F H -0.1404 0.7764 0.3984
H13F H -0.1220 0.7799 0.4744
H14F H -0.0935 0.7221 0.4299
O3I O 0.1324(3) 0.9578(3) 0.3346(3)
N3I N 0.0850(5) 1.0489(4) 0.3086(6)
C9I C 0.1228(5) 1.0030(5) 0.2964(6)
C10I C 0.1598(6) 1.0039(6) 0.2295(5)
H6I H 0.1942 0.9703 0.2298
H7I H 0.1797 1.0470 0.2228
H8I H 0.1289 0.9948 0.1940
C11I C 0.0492(6) 1.0453(6) 0.3734(6)
H9I H 0.0625 1.0056 0.3968
H10I H 0.0019 1.0442 0.3656
H11I H 0.0602 1.0838 0.3998
C12I C 0.0693(8) 1.1059(5) 0.2684(8)
H12I H 0.1016 1.1404 0.2764
H13I H 0.0256 1.1220 0.2799
H14I H 0.0701 1.0935 0.2221
Gd1A Gd 0.347482(15) 0.152518(15) -0.152518(15)
Gd1C Gd -0.347482(15) 0.652518(15) -0.347482(15)
O1F O 0.2550(3) 0.8668(3) 0.3084(3)
O1I O 0.1916(3) 0.7450(3) 0.3668(3)
Gd2 Gd 0.333844(13) 0.666156(13) 0.166156(13)
O4 O 0.2355(2) 0.6172(2) 0.1788(2)
O5 O 0.2099(2) 0.5320(3) 0.1156(2)
O6 O 0.2637(2) 0.7363(2) 0.2363(2)
H15 H 0.2544 0.7143 0.2780
O7 O 0.3256(3) 0.6331(3) 0.0557(2)
N4 N 0.0062(3) 0.4916(3) 0.3485(3)
H16 H -0.0131 0.4548 0.3371
N5 N 0.0104(3) 0.5730(3) 0.4277(3)
N6 N 0.3092(5) 0.5911(4) -0.0432(4)
C13 C 0.2031(3) 0.5655(3) 0.1666(3)
C14 C 0.1525(3) 0.5461(3) 0.2151(3)
C15 C 0.1466(3) 0.5789(3) 0.2734(3)
H17 H 0.1758 0.6139 0.2827
C16 C 0.0997(3) 0.5627(3) 0.3189(3)
H18 H 0.0964 0.5868 0.3585
C17 C 0.0572(3) 0.5108(3) 0.3066(3)
C18 C 0.0624(4) 0.4780(4) 0.2468(4)
H19 H 0.0330 0.4434 0.2367
C19 C 0.1097(3) 0.4954(4) 0.2030(3)
H20 H 0.1132 0.4720 0.1630
C20 C -0.0180(3) 0.5191(3) 0.4025(3)
C21 C 0.2909(4) 0.6282(4) 0.0079(4)
C22 C 0.2266(5) 0.6617(6) 0.0032(6)
H21 H 0.1925 0.6295 -0.0066
H22 H 0.2282 0.6945 -0.0318
H23 H 0.2167 0.6833 0.0449
C23 C 0.2722(7) 0.5804(7) -0.1020(5)
H24 H 0.2655 0.5333 -0.1082
H25 H 0.2962 0.5982 -0.1395
H26 H 0.2297 0.6023 -0.0983
C24 C 0.3740(6) 0.5581(6) -0.0410(7)
H27 H 0.3972 0.5710 -0.0011
H28 H 0.3998 0.5709 -0.0794
H29 H 0.3676 0.5105 -0.0412
H15F H 0.2220 0.7456 0.2143
O4E O -0.3212(2) 0.2645(2) 0.3828(2)
O5E O -0.3844(2) 0.2901(2) 0.4680(3)
N4E N -0.1515(3) 0.4938(3) 0.5084(3)
H16E H -0.1629 0.5131 0.5452
N5E N -0.0723(3) 0.4896(3) 0.4270(3)
C13E C -0.3334(3) 0.2969(3) 0.4345(3)
C14E C -0.2849(3) 0.3475(3) 0.4539(3)
C15E C -0.2266(3) 0.3534(3) 0.4211(3)
H17E H -0.2173 0.3242 0.3861
C16E C -0.1811(3) 0.4003(3) 0.4373(3)
H18E H -0.1415 0.4036 0.4132
C17E C -0.1934(3) 0.4428(3) 0.4892(3)
C18E C -0.2532(4) 0.4376(4) 0.5220(4)
H19E H -0.2633 0.4670 0.5566
C19E C -0.2970(3) 0.3903(3) 0.5046(4)
H20E H -0.3370 0.3868 0.5280
C20E C -0.0975(3) 0.5180(3) 0.4809(3)
O4K O -0.1172(2) 0.8212(2) 0.7355(2)
O5K O -0.0320(3) 0.8844(2) 0.7099(2)
N4K N 0.0084(3) 0.6515(3) 0.5062(3)
H16K H 0.0452 0.6629 0.4869
N5K N -0.0730(3) 0.5723(3) 0.5104(3)
C13K C -0.0655(3) 0.8334(3) 0.7031(3)
C14K C -0.0461(3) 0.7849(3) 0.6525(3)
C15K C -0.0789(3) 0.7266(3) 0.6466(3)
H17K H -0.1139 0.7173 0.6758
C16K C -0.0627(3) 0.6811(3) 0.5997(3)
H18K H -0.0868 0.6415 0.5964
C17K C -0.0108(3) 0.6934(3) 0.5572(3)
C18K C 0.0220(4) 0.7532(4) 0.5624(4)
H19K H 0.0566 0.7633 0.5330
C19K C 0.0046(4) 0.7970(3) 0.6097(3)
H20K H 0.0280 0.8370 0.6132
C20K C -0.0191(3) 0.5975(3) 0.4820(3)
O7F O 0.4443(2) 0.6744(3) 0.1331(3)
N6F N 0.5432(4) 0.6908(5) 0.0911(4)
C21F C 0.4921(4) 0.7091(4) 0.1282(4)
C22F C 0.4968(6) 0.7734(5) 0.1617(6)
H21F H 0.5066 0.8075 0.1295
H22F H 0.5318 0.7718 0.1945
H23F H 0.4551 0.7833 0.1833
C23F C 0.6020(5) 0.7278(7) 0.0804(7)
H24F H 0.6082 0.7345 0.0333
H25F H 0.6395 0.7038 0.0982
H26F H 0.5983 0.7703 0.1023
C24F C 0.5410(7) 0.6260(6) 0.0581(6)
H27F H 0.5011 0.6028 0.0710
H28F H 0.5794 0.6002 0.0709
H29F H 0.5412 0.6324 0.0105
O7I O 0.3669(3) 0.5557(2) 0.1744(3)
N6I N 0.4089(4) 0.4568(4) 0.1908(5)
C21I C 0.3718(4) 0.5079(4) 0.2091(4)
C22I C 0.3383(6) 0.5032(6) 0.2734(5)
H21I H 0.3705 0.4934 0.3075
H22I H 0.3055 0.4682 0.2718
H23I H 0.3167 0.5449 0.2833
C23I C 0.4196(7) 0.3980(5) 0.2278(7)
H24I H 0.4667 0.3918 0.2345
H25I H 0.4018 0.3605 0.2038
H26I H 0.3977 0.4017 0.2703
C24I C 0.4419(6) 0.4590(7) 0.1260(6)
H27I H 0.4290 0.4989 0.1028
H28I H 0.4291 0.4206 0.1002
H29I H 0.4895 0.4588 0.1324
Gd2B Gd -0.333844(13) 0.166156(13) 0.333844(13)
Gd2C Gd -0.166156(13) 0.833844(13) 0.833844(13)
O4F O 0.3212(2) 0.7645(2) 0.1172(2)
O4I O 0.3828(2) 0.6788(2) 0.2645(2)
O8 O 0.1981(7) 0.6981(7) 0.8019(7)
O9 O 0.3001(8) 0.8001(8) 0.6999(8)
O10 O 0.1961(12) 0.7330(18) 0.6329(15)
O11 O 0.2379(14) 0.3639(14) 0.186(2)
H30? H 0.2544 0.7143 0.2780
loop_
_geom_bond_atom_site_label_1
_geom_bond_atom_site_label_2
_geom_bond_site_symmetry_1
_geom_bond_site_symmetry_2
Gd1 O1 1_555 1_555
O1 C1 1_555 1_555
O2 C1 1_555 1_555
O3 Gd1 1_555 1_555
N1 H1 1_555 1_555
N2 C8 1_555 1_555
N3 C9 1_555 1_555
C1 C2 1_555 1_555
C2 C3 1_555 1_555
C3 H2 1_555 1_555
C4 C3 1_555 1_555
H3 C4 1_555 1_555
C5 N1 1_555 1_555
C6 C5 1_555 1_555
H4 C6 1_555 1_555
C7 C2 1_555 1_555
H5 C7 1_555 1_555
C8 N1 1_555 1_555
C9 O3 1_555 1_555
C10 C9 1_555 1_555
H6 C10 1_555 1_555
H7 C10 1_555 1_555
H8 C10 1_555 1_555
C11 N3 1_555 1_555
H9 C11 1_555 1_555
H10 C11 1_555 1_555
H11 C11 1_555 1_555
C12 N3 1_555 1_555
H12 C12 1_555 1_555
H13 C12 1_555 1_555
H14 C12 1_555 1_555
Gd2 O4 1_555 1_555
O4 C13 1_555 1_555
O5 C13 1_555 1_555
O6 Gd2 1_555 1_555
H15 O6 1_555 1_555
O7 Gd2 1_555 1_555
N4 H16 1_555 1_555
N5 C20 1_555 1_555
N6 C21 1_555 1_555
C13 C14 1_555 1_555
C14 C15 1_555 1_555
C15 H17 1_555 1_555
C16 C15 1_555 1_555
H18 C16 1_555 1_555
C17 N4 1_555 1_555
C18 C17 1_555 1_555
H19 C18 1_555 1_555
C19 C14 1_555 1_555
H20 C19 1_555 1_555
C20 N4 1_555 1_555
C21 O7 1_555 1_555
C22 C21 1_555 1_555
H21 C22 1_555 1_555
H22 C22 1_555 1_555
H23 C22 1_555 1_555
C23 N6 1_555 1_555
H24 C23 1_555 1_555
H25 C23 1_555 1_555
H26 C23 1_555 1_555
C24 N6 1_555 1_555
H27 C24 1_555 1_555
H28 C24 1_555 1_555
H29 C24 1_555 1_555
O1G C1G 1_555 1_555
O2G C1G 1_555 1_555
N1G H1G 1_555 1_555
N2G C8G 1_555 1_555
C1G C2G 1_555 1_555
C2G C3G 1_555 1_555
C3G H2G 1_555 1_555
C4G C3G 1_555 1_555
H3G C4G 1_555 1_555
C5G N1G 1_555 1_555
C6G C5G 1_555 1_555
H4G C6G 1_555 1_555
C7G C2G 1_555 1_555
H5G C7G 1_555 1_555
C8G N2 1_555 1_555
O1J C1J 1_555 1_555
O2J C1J 1_555 1_555
N1J H1J 1_555 1_555
N2J C8 1_555 1_555
C1J C2J 1_555 1_555
C2J C3J 1_555 1_555
C3J H2J 1_555 1_555
C4J C3J 1_555 1_555
H3J C4J 1_555 1_555
C5J N1J 1_555 1_555
C6J C5J 1_555 1_555
H4J C6J 1_555 1_555
C7J C2J 1_555 1_555
H5J C7J 1_555 1_555
C8J N2G 1_555 1_555
O3F Gd1 1_555 1_555
N3F C9F 1_555 1_555
C9F O3F 1_555 1_555
C10F C9F 1_555 1_555
H6F C10F 1_555 1_555
H7F C10F 1_555 1_555
H8F C10F 1_555 1_555
C11F N3F 1_555 1_555
H9F C11F 1_555 1_555
H10F C11F 1_555 1_555
H11F C11F 1_555 1_555
C12F N3F 1_555 1_555
H12F C12F 1_555 1_555
H13F C12F 1_555 1_555
H14F C12F 1_555 1_555
O3I Gd1 1_555 1_555
N3I C9I 1_555 1_555
C9I O3I 1_555 1_555
C10I C9I 1_555 1_555
H6I C10I 1_555 1_555
H7I C10I 1_555 1_555
H8I C10I 1_555 1_555
C11I N3I 1_555 1_555
H9I C11I 1_555 1_555
H10I C11I 1_555 1_555
H11I C11I 1_555 1_555
C12I N3I 1_555 1_555
H12I C12I 1_555 1_555
H13I C12I 1_555 1_555
H14I C12I 1_555 1_555
Gd1A O1J 1_555 1_555
Gd1C O1G 1_555 1_555
O1F Gd1 1_555 1_555
O1I Gd1 1_555 1_555
H15F O6 1_555 1_555
O4E C13E 1_555 1_555
O5E C13E 1_555 1_555
N4E H16E 1_555 1_555
N5E C20 1_555 1_555
C13E C14E 1_555 1_555
C14E C15E 1_555 1_555
C15E H17E 1_555 1_555
C16E C15E 1_555 1_555
H18E C16E 1_555 1_555
C17E N4E 1_555 1_555
C18E C17E 1_555 1_555
H19E C18E 1_555 1_555
C19E C14E 1_555 1_555
H20E C19E 1_555 1_555
C20E N4E 1_555 1_555
O4K C13K 1_555 1_555
O5K C13K 1_555 1_555
N4K H16K 1_555 1_555
N5K C20E 1_555 1_555
C13K C14K 1_555 1_555
C14K C15K 1_555 1_555
C15K H17K 1_555 1_555
C16K C15K 1_555 1_555
H18K C16K 1_555 1_555
C17K N4K 1_555 1_555
C18K C17K 1_555 1_555
H19K C18K 1_555 1_555
C19K C14K 1_555 1_555
H20K C19K 1_555 1_555
C20K N5 1_555 1_555
O7F Gd2 1_555 1_555
N6F C21F 1_555 1_555
C21F O7F 1_555 1_555
C22F C21F 1_555 1_555
H21F C22F 1_555 1_555
H22F C22F 1_555 1_555
H23F C22F 1_555 1_555
C23F N6F 1_555 1_555
H24F C23F 1_555 1_555
H25F C23F 1_555 1_555
H26F C23F 1_555 1_555
C24F N6F 1_555 1_555
H27F C24F 1_555 1_555
H28F C24F 1_555 1_555
H29F C24F 1_555 1_555
O7I Gd2 1_555 1_555
N6I C21I 1_555 1_555
C21I O7I 1_555 1_555
C22I C21I 1_555 1_555
H21I C22I 1_555 1_555
H22I C22I 1_555 1_555
H23I C22I 1_555 1_555
C23I N6I 1_555 1_555
H24I C23I 1_555 1_555
H25I C23I 1_555 1_555
H26I C23I 1_555 1_555
C24I N6I 1_555 1_555
H27I C24I 1_555 1_555
H28I C24I 1_555 1_555
H29I C24I 1_555 1_555
Gd2B O4E 1_555 1_555
Gd2C O4K 1_555 1_555
O4F Gd2 1_555 1_555
O4I Gd2 1_555 1_555
C4 C5 1_555 1_555
C6 C7 1_555 1_555
C16 C17 1_555 1_555
C18 C19 1_555 1_555
N1G C8G 1_555 1_555
C4G C5G 1_555 1_555
C6G C7G 1_555 1_555
N1J C8J 1_555 1_555
N2J C8J 1_555 1_555
C4J C5J 1_555 1_555
C6J C7J 1_555 1_555
N5E C20E 1_555 1_555
C16E C17E 1_555 1_555
C18E C19E 1_555 1_555
N4K C20K 1_555 1_555
N5K C20K 1_555 1_555
C16K C17K 1_555 1_555
C18K C19K 1_555 1_555

#END
