
#######################################################################
#
#                 Cambridge Crystallographic Data Centre
#                                CCDC 
#
#######################################################################
#
# If this CIF has been generated from an entry in the Cambridge 
# Structural Database, then it will include bibliographic, chemical, 
# crystal, experimental, refinement or atomic coordinate data resulting 
# from the CCDC's data processing and validation procedures.
#
#######################################################################

data_SOZSIL
_symmetry_cell_setting           cubic
_symmetry_space_group_name_H-M   'P 21 3'
_symmetry_Int_Tables_number      198
_space_group_name_Hall           'P 2ac 2ab 3'
loop_
_symmetry_equiv_pos_site_id
_symmetry_equiv_pos_as_xyz
1 x,y,z
2 1/2-x,-y,1/2+z
3 -x,1/2+y,1/2-z
4 1/2+x,1/2-y,-z
5 z,x,y
6 1/2+z,1/2-x,-y
7 1/2-z,-x,1/2+y
8 -z,1/2+x,1/2-y
9 y,z,x
10 -y,1/2+z,1/2-x
11 1/2+y,1/2-z,-x
12 1/2-y,-z,1/2+x
_cell_length_a                   20.4391(14)
_cell_length_b                   20.4391(14)
_cell_length_c                   20.4391(14)
_cell_angle_alpha                90
_cell_angle_beta                 90
_cell_angle_gamma                90
_cell_volume                     8538.57
loop_
_atom_site_label
_atom_site_type_symbol
_atom_site_fract_x
_atom_site_fract_y
_atom_site_fract_z
Tb1 Tb 0.154662(11) 0.845338(11) 0.345338(11)
O1 O 0.1342(2) 0.8111(2) 0.2424(2)
O2 O 0.0586(2) 0.88325(19) 0.2116(2)
O3 O 0.1687(2) 0.8650(2) 0.45471(18)
N1 N -0.0043(2) 0.6500(2) 0.0133(2)
H1 H -0.0420 0.6623 -0.0035
N2 N -0.0123(2) 0.5741(2) -0.0672(2)
N3 N 0.1955(4) 0.9135(4) 0.5463(3)
C1 C 0.0863(2) 0.8289(3) 0.2063(2)
C2 C 0.0638(2) 0.7810(2) 0.1565(2)
C3 C 0.0132(3) 0.7957(3) 0.1149(3)
H2 H -0.0071 0.8374 0.1179
C4 C -0.0091(3) 0.7519(3) 0.0691(3)
H3 H -0.0446 0.7635 0.0414
C5 C 0.0201(2) 0.6906(2) 0.0630(2)
C6 C 0.0719(2) 0.6748(2) 0.1052(2)
H4 H 0.0929 0.6335 0.1021
C7 C 0.0921(2) 0.7192(2) 0.1509(3)
H5 H 0.1266 0.7076 0.1799
C8 C 0.0215(2) 0.5945(2) -0.0127(3)
C9 C 0.2077(4) 0.8757(4) 0.4999(4)
C10 C 0.2729(3) 0.8400(4) 0.5014(4)
H6 H 0.2716 0.8030 0.4710
H7 H 0.2812 0.8239 0.5458
H8 H 0.3079 0.8701 0.4885
C11 C 0.1289(4) 0.9482(5) 0.5421(5)
H9 H 0.1040 0.9307 0.5050
H10 H 0.1357 0.9953 0.5359
H11 H 0.1044 0.9408 0.5826
C12 C 0.2356(5) 0.9304(5) 0.6021(4)
H12 H 0.2213 0.9051 0.6402
H13 H 0.2311 0.9773 0.6114
H14 H 0.2814 0.9204 0.5924
O1G O -0.2424(2) 0.6342(2) -0.3111(2)
O2G O -0.2116(2) 0.5586(2) -0.38325(19)
N1G N -0.0133(2) 0.4957(2) -0.1500(2)
H1G H 0.0035 0.4580 -0.1623
N2G N 0.0672(2) 0.4877(2) -0.0741(2)
C1G C -0.2063(2) 0.5863(2) -0.3289(3)
C2G C -0.1565(2) 0.5638(2) -0.2810(2)
C3G C -0.1149(3) 0.5132(3) -0.2957(3)
H2G H -0.1179 0.4929 -0.3374
C4G C -0.0691(3) 0.4909(3) -0.2519(3)
H3G H -0.0414 0.4554 -0.2635
C5G C -0.0630(2) 0.5201(2) -0.1906(2)
C6G C -0.1052(2) 0.5719(2) -0.1748(2)
H4G H -0.1021 0.5929 -0.1335
C7G C -0.1509(3) 0.5921(2) -0.2192(2)
H5G H -0.1799 0.6266 -0.2076
C8G C 0.0127(3) 0.5215(2) -0.0945(2)
O1J O 0.3111(2) 0.2576(2) -0.1342(2)
O2J O 0.38325(19) 0.2884(2) -0.0586(2)
N1J N 0.1500(2) 0.4867(2) 0.0043(2)
H1J H 0.1623 0.5035 0.0420
N2J N 0.0741(2) 0.5672(2) 0.0123(2)
C1J C 0.3289(3) 0.2937(2) -0.0863(2)
C2J C 0.2810(2) 0.3435(2) -0.0638(2)
C3J C 0.2957(3) 0.3851(3) -0.0132(3)
H2J H 0.3374 0.3821 0.0071
C4J C 0.2519(3) 0.4309(3) 0.0091(3)
H3J H 0.2635 0.4586 0.0446
C5J C 0.1906(2) 0.4370(2) -0.0201(2)
C6J C 0.1748(2) 0.3948(2) -0.0719(2)
H4J H 0.1335 0.3979 -0.0929
C7J C 0.2192(2) 0.3491(3) -0.0921(2)
H5J H 0.2076 0.3201 -0.1266
C8J C 0.0945(2) 0.5127(3) -0.0215(2)
O3F O 0.04529(18) 0.8313(2) 0.3650(2)
N3F N -0.0463(3) 0.8045(4) 0.4135(4)
C9F C 0.0001(4) 0.7923(4) 0.3757(4)
C10F C -0.0014(4) 0.7271(3) 0.3400(4)
H6F H 0.0290 0.7284 0.3030
H7F H -0.0458 0.7188 0.3239
H8F H 0.0115 0.6921 0.3701
C11F C -0.0421(5) 0.8711(4) 0.4482(5)
H9F H -0.0050 0.8960 0.4307
H10F H -0.0359 0.8643 0.4953
H11F H -0.0826 0.8956 0.4408
C12F C -0.1021(4) 0.7644(5) 0.4304(5)
H12F H -0.1402 0.7787 0.4051
H13F H -0.1114 0.7689 0.4773
H14F H -0.0924 0.7186 0.4204
O3I O 0.1350(2) 0.95471(18) 0.3313(2)
N3I N 0.0865(4) 1.0463(3) 0.3045(4)
C9I C 0.1243(4) 0.9999(4) 0.2923(4)
C10I C 0.1600(4) 1.0014(4) 0.2271(3)
H6I H 0.1970 0.9710 0.2284
H7I H 0.1761 1.0458 0.2188
H8I H 0.1299 0.9885 0.1921
C11I C 0.0518(5) 1.0421(5) 0.3711(4)
H9I H 0.0693 1.0050 0.3960
H10I H 0.0047 1.0359 0.3643
H11I H 0.0592 1.0826 0.3956
C12I C 0.0696(5) 1.1021(4) 0.2644(5)
H12I H 0.0949 1.1402 0.2787
H13I H 0.0227 1.1114 0.2689
H14I H 0.0796 1.0924 0.2186
Tb1A Tb 0.345338(11) 0.154662(11) -0.154662(11)
Tb1C Tb -0.345338(11) 0.654662(11) -0.345338(11)
O1F O 0.2576(2) 0.8658(2) 0.3111(2)
O1I O 0.1889(2) 0.7424(2) 0.3658(2)
Tb2 Tb 0.333225(11) 0.666775(11) 0.166775(11)
O4 O 0.23605(19) 0.61931(19) 0.18038(19)
O5 O 0.20984(19) 0.5350(2) 0.11568(18)
O6 O 0.26340(18) 0.73660(18) 0.23660(18)
O7 O 0.3244(2) 0.6340(2) 0.05690(18)
N4 N 0.0092(2) 0.4896(2) 0.3507(2)
H15 H -0.0090 0.4521 0.3398
N5 N 0.0126(2) 0.5709(2) 0.4306(2)
N6 N 0.3054(3) 0.5893(3) -0.0404(3)
C13 C 0.2027(2) 0.5678(2) 0.1667(2)
C14 C 0.1536(2) 0.5479(2) 0.2166(2)
C15 C 0.1486(2) 0.5796(2) 0.2755(2)
H16 H 0.1779 0.6145 0.2850
C16 C 0.1015(2) 0.5619(3) 0.3220(2)
H17 H 0.0987 0.5846 0.3624
C17 C 0.0590(2) 0.5107(3) 0.3082(2)
C18 C 0.0644(3) 0.4778(3) 0.2490(3)
H18 H 0.0358 0.4424 0.2396
C19 C 0.1108(3) 0.4960(3) 0.2037(3)
H19 H 0.1139 0.4731 0.1633
C20 C -0.0152(2) 0.5172(2) 0.4056(2)
C21 C 0.2879(3) 0.6271(3) 0.0101(3)
C22 C 0.2239(3) 0.6600(4) 0.0064(4)
H20 H 0.1912 0.6295 -0.0110
H21 H 0.2271 0.6981 -0.0226
H22 H 0.2107 0.6743 0.0502
C23 C 0.2672(4) 0.5734(5) -0.0964(4)
H23 H 0.2674 0.5259 -0.1030
H24 H 0.2857 0.5950 -0.1350
H25 H 0.2221 0.5885 -0.0898
C24 C 0.3727(4) 0.5599(5) -0.0368(5)
H26 H 0.3863 0.5567 0.0090
H27 H 0.4036 0.5877 -0.0607
H28 H 0.3721 0.5162 -0.0564
O4E O -0.31962(19) 0.26395(19) 0.38069(19)
O5E O -0.38432(18) 0.29016(19) 0.4650(2)
N4E N -0.1493(2) 0.4908(2) 0.5104(2)
H15E H -0.1602 0.5090 0.5479
N5E N -0.0694(2) 0.4874(2) 0.4291(2)
C13E C -0.3333(2) 0.2973(2) 0.4322(2)
C14E C -0.2834(2) 0.3464(2) 0.4521(2)
C15E C -0.2245(2) 0.3514(2) 0.4204(2)
H16E H -0.2150 0.3221 0.3855
C16E C -0.1780(2) 0.3985(2) 0.4381(3)
H17E H -0.1376 0.4013 0.4154
C17E C -0.1918(2) 0.4410(2) 0.4893(3)
C18E C -0.2510(3) 0.4356(3) 0.5222(3)
H18E H -0.2604 0.4642 0.5576
C19E C -0.2963(3) 0.3892(3) 0.5040(3)
H19E H -0.3367 0.3861 0.5269
C20E C -0.0944(2) 0.5152(2) 0.4828(2)
O4K O -0.11931(19) 0.81962(19) 0.73605(19)
O5K O -0.0350(2) 0.88432(18) 0.70984(19)
N4K N 0.0104(2) 0.6493(2) 0.5092(2)
H15K H 0.0479 0.6602 0.4910
N5K N -0.0709(2) 0.5694(2) 0.5126(2)
C13K C -0.0678(2) 0.8333(2) 0.7027(2)
C14K C -0.0479(2) 0.7834(2) 0.6536(2)
C15K C -0.0796(2) 0.7245(2) 0.6486(2)
H16K H -0.1145 0.7150 0.6779
C16K C -0.0619(3) 0.6780(2) 0.6015(2)
H17K H -0.0846 0.6376 0.5987
C17K C -0.0107(3) 0.6918(2) 0.5590(2)
C18K C 0.0222(3) 0.7510(3) 0.5644(3)
H18K H 0.0576 0.7604 0.5358
C19K C 0.0040(3) 0.7963(3) 0.6108(3)
H19K H 0.0269 0.8367 0.6139
C20K C -0.0172(2) 0.5944(2) 0.4848(2)
O7F O 0.44310(18) 0.6756(2) 0.1340(2)
N6F N 0.5404(3) 0.6946(3) 0.0893(3)
C21F C 0.4899(3) 0.7121(3) 0.1271(3)
C22F C 0.4936(4) 0.7761(3) 0.1600(4)
H20F H 0.5110 0.8088 0.1295
H21F H 0.5226 0.7729 0.1981
H22F H 0.4498 0.7893 0.1743
C23F C 0.5964(4) 0.7328(4) 0.0734(5)
H23F H 0.6030 0.7326 0.0259
H24F H 0.6350 0.7143 0.0950
H25F H 0.5898 0.7779 0.0885
C24F C 0.5368(5) 0.6273(4) 0.0599(5)
H26F H 0.4910 0.6137 0.0567
H27F H 0.5607 0.5964 0.0877
H28F H 0.5564 0.6279 0.0162
O7I O 0.3660(2) 0.55690(18) 0.1756(2)
N6I N 0.4107(3) 0.4596(3) 0.1946(3)
C21I C 0.3729(3) 0.5101(3) 0.2121(3)
C22I C 0.3400(4) 0.5064(4) 0.2761(3)
H20I H 0.3705 0.4890 0.3088
H21I H 0.3019 0.4774 0.2729
H22I H 0.3257 0.5502 0.2893
C23I C 0.4266(5) 0.4036(4) 0.2328(4)
H23I H 0.4741 0.3970 0.2326
H24I H 0.4050 0.3650 0.2143
H25I H 0.4115 0.4102 0.2779
C24I C 0.4401(5) 0.4632(5) 0.1273(4)
H26I H 0.4433 0.5090 0.1137
H27I H 0.4123 0.4393 0.0964
H28I H 0.4838 0.4436 0.1279
Tb2B Tb -0.333225(11) 0.166775(11) 0.333225(11)
Tb2C Tb -0.166775(11) 0.833225(11) 0.833225(11)
O4F O 0.31962(19) 0.76395(19) 0.11931(19)
O4I O 0.38069(19) 0.68038(19) 0.26395(19)
O8 O 0.1984(4) 0.6984(4) 0.8016(4)
O9 O 0.3038(4) 0.8038(4) 0.6962(4)
O10 O 0.1955(10) 0.7387(11) 0.6336(11)
O11 O 0.2420(10) 0.3670(9) 0.1948(11)
H29? H 0.2544 0.7143 0.2780
loop_
_geom_bond_atom_site_label_1
_geom_bond_atom_site_label_2
_geom_bond_site_symmetry_1
_geom_bond_site_symmetry_2
Tb1 O1 1_555 1_555
O1 C1 1_555 1_555
O2 C1 1_555 1_555
O3 Tb1 1_555 1_555
N1 H1 1_555 1_555
N2 C8 1_555 1_555
N3 C9 1_555 1_555
C1 C2 1_555 1_555
C2 C3 1_555 1_555
C3 H2 1_555 1_555
C4 C3 1_555 1_555
H3 C4 1_555 1_555
C5 N1 1_555 1_555
C6 C5 1_555 1_555
H4 C6 1_555 1_555
C7 C2 1_555 1_555
H5 C7 1_555 1_555
C8 N1 1_555 1_555
C9 O3 1_555 1_555
C10 C9 1_555 1_555
H6 C10 1_555 1_555
H7 C10 1_555 1_555
H8 C10 1_555 1_555
C11 N3 1_555 1_555
H9 C11 1_555 1_555
H10 C11 1_555 1_555
H11 C11 1_555 1_555
C12 N3 1_555 1_555
H12 C12 1_555 1_555
H13 C12 1_555 1_555
H14 C12 1_555 1_555
Tb2 O4 1_555 1_555
O4 C13 1_555 1_555
O5 C13 1_555 1_555
O6 Tb2 1_555 1_555
O7 Tb2 1_555 1_555
N4 H15 1_555 1_555
N5 C20 1_555 1_555
N6 C21 1_555 1_555
C13 C14 1_555 1_555
C14 C15 1_555 1_555
C15 H16 1_555 1_555
C16 C15 1_555 1_555
H17 C16 1_555 1_555
C17 N4 1_555 1_555
C18 C17 1_555 1_555
H18 C18 1_555 1_555
C19 C14 1_555 1_555
H19 C19 1_555 1_555
C20 N4 1_555 1_555
C21 O7 1_555 1_555
C22 C21 1_555 1_555
H20 C22 1_555 1_555
H21 C22 1_555 1_555
H22 C22 1_555 1_555
C23 N6 1_555 1_555
H23 C23 1_555 1_555
H24 C23 1_555 1_555
H25 C23 1_555 1_555
C24 N6 1_555 1_555
H26 C24 1_555 1_555
H27 C24 1_555 1_555
H28 C24 1_555 1_555
O1G C1G 1_555 1_555
O2G C1G 1_555 1_555
N1G H1G 1_555 1_555
N2G C8G 1_555 1_555
C1G C2G 1_555 1_555
C2G C3G 1_555 1_555
C3G H2G 1_555 1_555
C4G C3G 1_555 1_555
H3G C4G 1_555 1_555
C5G N1G 1_555 1_555
C6G C5G 1_555 1_555
H4G C6G 1_555 1_555
C7G C2G 1_555 1_555
H5G C7G 1_555 1_555
C8G N2 1_555 1_555
O1J C1J 1_555 1_555
O2J C1J 1_555 1_555
N1J H1J 1_555 1_555
N2J C8 1_555 1_555
C1J C2J 1_555 1_555
C2J C3J 1_555 1_555
C3J H2J 1_555 1_555
C4J C3J 1_555 1_555
H3J C4J 1_555 1_555
C5J N1J 1_555 1_555
C6J C5J 1_555 1_555
H4J C6J 1_555 1_555
C7J C2J 1_555 1_555
H5J C7J 1_555 1_555
C8J N2G 1_555 1_555
O3F Tb1 1_555 1_555
N3F C9F 1_555 1_555
C9F O3F 1_555 1_555
C10F C9F 1_555 1_555
H6F C10F 1_555 1_555
H7F C10F 1_555 1_555
H8F C10F 1_555 1_555
C11F N3F 1_555 1_555
H9F C11F 1_555 1_555
H10F C11F 1_555 1_555
H11F C11F 1_555 1_555
C12F N3F 1_555 1_555
H12F C12F 1_555 1_555
H13F C12F 1_555 1_555
H14F C12F 1_555 1_555
O3I Tb1 1_555 1_555
N3I C9I 1_555 1_555
C9I O3I 1_555 1_555
C10I C9I 1_555 1_555
H6I C10I 1_555 1_555
H7I C10I 1_555 1_555
H8I C10I 1_555 1_555
C11I N3I 1_555 1_555
H9I C11I 1_555 1_555
H10I C11I 1_555 1_555
H11I C11I 1_555 1_555
C12I N3I 1_555 1_555
H12I C12I 1_555 1_555
H13I C12I 1_555 1_555
H14I C12I 1_555 1_555
Tb1A O1J 1_555 1_555
Tb1C O1G 1_555 1_555
O1F Tb1 1_555 1_555
O1I Tb1 1_555 1_555
O4E C13E 1_555 1_555
O5E C13E 1_555 1_555
N4E H15E 1_555 1_555
N5E C20 1_555 1_555
C13E C14E 1_555 1_555
C14E C15E 1_555 1_555
C15E H16E 1_555 1_555
C16E C15E 1_555 1_555
H17E C16E 1_555 1_555
C17E N4E 1_555 1_555
C18E C17E 1_555 1_555
H18E C18E 1_555 1_555
C19E C14E 1_555 1_555
H19E C19E 1_555 1_555
C20E N4E 1_555 1_555
O4K C13K 1_555 1_555
O5K C13K 1_555 1_555
N4K H15K 1_555 1_555
N5K C20E 1_555 1_555
C13K C14K 1_555 1_555
C14K C15K 1_555 1_555
C15K H16K 1_555 1_555
C16K C15K 1_555 1_555
H17K C16K 1_555 1_555
C17K N4K 1_555 1_555
C18K C17K 1_555 1_555
H18K C18K 1_555 1_555
C19K C14K 1_555 1_555
H19K C19K 1_555 1_555
C20K N5 1_555 1_555
O7F Tb2 1_555 1_555
N6F C21F 1_555 1_555
C21F O7F 1_555 1_555
C22F C21F 1_555 1_555
H20F C22F 1_555 1_555
H21F C22F 1_555 1_555
H22F C22F 1_555 1_555
C23F N6F 1_555 1_555
H23F C23F 1_555 1_555
H24F C23F 1_555 1_555
H25F C23F 1_555 1_555
C24F N6F 1_555 1_555
H26F C24F 1_555 1_555
H27F C24F 1_555 1_555
H28F C24F 1_555 1_555
O7I Tb2 1_555 1_555
N6I C21I 1_555 1_555
C21I O7I 1_555 1_555
C22I C21I 1_555 1_555
H20I C22I 1_555 1_555
H21I C22I 1_555 1_555
H22I C22I 1_555 1_555
C23I N6I 1_555 1_555
H23I C23I 1_555 1_555
H24I C23I 1_555 1_555
H25I C23I 1_555 1_555
C24I N6I 1_555 1_555
H26I C24I 1_555 1_555
H27I C24I 1_555 1_555
H28I C24I 1_555 1_555
Tb2B O4E 1_555 1_555
Tb2C O4K 1_555 1_555
O4F Tb2 1_555 1_555
O4I Tb2 1_555 1_555
C4 C5 1_555 1_555
C6 C7 1_555 1_555
C16 C17 1_555 1_555
C18 C19 1_555 1_555
N1G C8G 1_555 1_555
C4G C5G 1_555 1_555
C6G C7G 1_555 1_555
N1J C8J 1_555 1_555
N2J C8J 1_555 1_555
C4J C5J 1_555 1_555
C6J C7J 1_555 1_555
N5E C20E 1_555 1_555
C16E C17E 1_555 1_555
C18E C19E 1_555 1_555
N4K C20K 1_555 1_555
N5K C20K 1_555 1_555
C16K C17K 1_555 1_555
C18K C19K 1_555 1_555

#END
