
#######################################################################
#
#                 Cambridge Crystallographic Data Centre
#                                CCDC 
#
#######################################################################
#
# If this CIF has been generated from an entry in the Cambridge 
# Structural Database, then it will include bibliographic, chemical, 
# crystal, experimental, refinement or atomic coordinate data resulting 
# from the CCDC's data processing and validation procedures.
#
#######################################################################

data_SOZWAH
_symmetry_cell_setting           monoclinic
_symmetry_space_group_name_H-M   'P 21/c'
_symmetry_Int_Tables_number      14
_space_group_name_Hall           '-P 2ybc'
loop_
_symmetry_equiv_pos_site_id
_symmetry_equiv_pos_as_xyz
1 x,y,z
2 -x,1/2+y,1/2-z
3 -x,-y,-z
4 x,1/2-y,1/2+z
_cell_length_a                   24.7926(9)
_cell_length_b                   9.6843(3)
_cell_length_c                   22.7656(8)
_cell_angle_alpha                90
_cell_angle_beta                 116.8913(17)
_cell_angle_gamma                90
_cell_volume                     4874.94
loop_
_atom_site_label
_atom_site_type_symbol
_atom_site_fract_x
_atom_site_fract_y
_atom_site_fract_z
Li1 Li 0.3809(3) 1.0996(7) 0.1591(3)
Li2 Li 0.2006(3) 1.0542(6) -0.0618(3)
Li3 Li 0.0938(3) 0.5992(7) -0.1195(3)
Li4 Li 0.3112(3) 0.5534(6) 0.0471(3)
S1 S 0.24581(4) 0.98756(9) 0.08942(4)
S2 S 0.33763(4) 0.79437(9) 0.15311(4)
O1 O 0.29053(11) 1.0955(3) 0.11224(13)
O2 O 0.20185(11) 0.9898(3) 0.02166(12)
O3 O 0.38149(11) 0.8964(3) 0.15795(13)
O4 O 0.34641(11) 0.6566(3) 0.13646(12)
N1 N 0.26988(13) 0.8369(3) 0.11089(14)
C1 C 0.19959(18) 1.0168(4) 0.13222(19)
F1 F 0.17514(13) 1.1414(3) 0.11693(14)
F2 F 0.23345(13) 1.0118(3) 0.19694(11)
F3 F 0.15624(11) 0.9245(3) 0.11492(13)
C2 C 0.34743(19) 0.7783(4) 0.23761(18)
F4 F 0.34797(13) 0.9012(3) 0.26293(12)
F5 F 0.40006(12) 0.7162(3) 0.27456(11)
F6 F 0.30375(13) 0.7031(3) 0.23916(12)
S3 S 0.39099(4) 1.28788(9) 0.05379(4)
S4 S 0.28350(4) 1.31361(9) -0.06273(4)
O5 O 0.40958(12) 1.1751(3) 0.09909(13)
O6 O 0.37780(12) 1.4156(3) 0.07683(13)
O7 O 0.23396(12) 1.2194(3) -0.08704(13)
O8 O 0.27373(13) 1.4454(3) -0.04097(13)
N2 N 0.34351(14) 1.2377(3) -0.01581(15)
C3 C 0.45793(18) 1.3237(5) 0.0420(2)
F7 F 0.47296(13) 1.2143(4) 0.01841(16)
F8 F 0.50378(11) 1.3564(3) 0.09964(13)
F9 F 0.44737(13) 1.4279(4) 0.00136(16)
C4 C 0.29432(19) 1.3499(5) -0.1352(2)
F10 F 0.30139(16) 1.2351(4) -0.16183(14)
F11 F 0.24635(13) 1.4162(3) -0.17869(12)
F12 F 0.34274(14) 1.4287(4) -0.11954(14)
S5 S 0.29758(4) 0.81356(9) -0.04974(4)
S6 S 0.17971(4) 0.78591(9) -0.15075(4)
O9 O 0.28243(11) 0.9461(3) -0.03421(13)
O10 O 0.32758(12) 0.7197(3) 0.00334(13)
O11 O 0.16287(11) 0.9127(3) -0.13055(12)
O12 O 0.13963(12) 0.6709(3) -0.16306(13)
N3 N 0.24653(13) 0.7375(3) -0.11033(14)
C5 C 0.35415(18) 0.8472(5) -0.07855(19)
F13 F 0.33178(12) 0.9320(3) -0.13001(13)
F14 F 0.40193(10) 0.9082(3) -0.03092(12)
F15 F 0.37170(13) 0.7332(3) -0.09547(16)
C6 C 0.17386(18) 0.8237(4) -0.23219(18)
F16 F 0.20876(12) 0.9300(3) -0.22864(12)
F17 F 0.11709(11) 0.8548(3) -0.27304(11)
F18 F 0.19090(13) 0.7156(3) -0.25502(12)
S7 S 0.10741(4) 0.29359(9) -0.07060(4)
S8 S 0.17587(4) 0.48785(9) 0.02465(4)
O13 O 0.09338(13) 0.3967(3) -0.12094(12)
O14 O 0.11980(11) 0.1573(3) -0.08508(12)
O15 O 0.14540(13) 0.5951(3) -0.02252(13)
O16 O 0.24021(12) 0.4969(3) 0.06125(13)
N4 N 0.15611(13) 0.3360(3) -0.00003(14)
C7 C 0.03675(18) 0.2740(5) -0.0641(2)
F19 F 0.01563(12) 0.3976(3) -0.05932(16)
F20 F -0.00415(11) 0.2119(3) -0.11773(16)
F21 F 0.04489(13) 0.1982(3) -0.01256(15)
C8 C 0.1511(2) 0.5086(4) 0.0887(2)
F22 F 0.16250(15) 0.6352(3) 0.11206(14)
F23 F 0.09268(14) 0.4848(4) 0.06477(17)
F24 F 0.17998(15) 0.4225(3) 0.13798(13)
N5 N 0.42330(13) 1.1916(3) 0.24969(15)
C9 C 0.47889(16) 1.1457(4) 0.29224(18)
C10 C 0.51077(17) 1.2032(5) 0.35450(19)
H1 H 0.5497 1.1694 0.3838
C11 C 0.48501(19) 1.3100(5) 0.37315(19)
H2 H 0.5063 1.3506 0.4155
C12 C 0.42847(18) 1.3578(4) 0.33036(19)
H3 H 0.4104 1.4313 0.3427
C13 C 0.39822(16) 1.2963(4) 0.26852(17)
C14 C 0.50474(18) 1.0307(4) 0.2688(2)
H4 H 0.5017 1.0543 0.2256
H5 H 0.4821 0.9456 0.2653
H6 H 0.5473 1.0171 0.3003
C15 C 0.33676(18) 1.3454(4) 0.2194(2)
H7 H 0.3071 1.2714 0.2107
H8 H 0.3379 1.3706 0.1782
H9 H 0.3252 1.4261 0.2370
N6 N 0.01218(14) 0.6978(3) -0.15687(15)
C16 C -0.00016(17) 0.8001(4) -0.12454(19)
C17 C -0.0560(2) 0.8666(5) -0.1517(2)
H10 H -0.0637 0.9390 -0.1283
C18 C -0.10005(19) 0.8269(6) -0.2125(2)
H11 H -0.1385 0.8709 -0.2315
C19 C -0.08755(19) 0.7223(5) -0.2456(2)
H12 H -0.1173 0.6935 -0.2877
C20 C -0.03091(17) 0.6589(4) -0.21683(19)
C21 C 0.04929(19) 0.8418(5) -0.0585(2)
H13 H 0.0848 0.8714 -0.0634
H14 H 0.0601 0.7630 -0.0283
H15 H 0.0352 0.9181 -0.0407
C22 C -0.01434(19) 0.5472(5) -0.2513(2)
H16 H -0.0051 0.4622 -0.2252
H17 H 0.0212 0.5757 -0.2564
H18 H -0.0483 0.5306 -0.2948
Li2_2 Li 0.2006(3) 0.0542(6) -0.0618(3)
Li4_2 Li 0.3112(3) 1.5534(6) 0.0471(3)
O6_2 O 0.37780(12) 0.4156(3) 0.07683(13)
O8_2 O 0.27373(13) 0.4454(3) -0.04097(13)
O14_2 O 0.11980(11) 1.1573(3) -0.08508(12)
loop_
_geom_bond_atom_site_label_1
_geom_bond_atom_site_label_2
_geom_bond_site_symmetry_1
_geom_bond_site_symmetry_2
Li1 O1 1_555 1_555
Li2 O2 1_555 1_555
Li3 O12 1_555 1_555
Li4 O4 1_555 1_555
S1 O1 1_555 1_555
S2 O3 1_555 1_555
O2 S1 1_555 1_555
O3 Li1 1_555 1_555
O4 S2 1_555 1_555
N1 S1 1_555 1_555
C1 S1 1_555 1_555
F1 C1 1_555 1_555
F2 C1 1_555 1_555
F3 C1 1_555 1_555
C2 S2 1_555 1_555
F4 C2 1_555 1_555
F5 C2 1_555 1_555
F6 C2 1_555 1_555
S3 O5 1_555 1_555
S4 O7 1_555 1_555
O5 Li1 1_555 1_555
O6 S3 1_555 1_555
O7 Li2 1_555 1_555
O8 S4 1_555 1_555
N2 S3 1_555 1_555
C3 S3 1_555 1_555
F7 C3 1_555 1_555
F8 C3 1_555 1_555
F9 C3 1_555 1_555
C4 S4 1_555 1_555
F10 C4 1_555 1_555
F11 C4 1_555 1_555
F12 C4 1_555 1_555
S5 O9 1_555 1_555
S6 O11 1_555 1_555
O9 Li2 1_555 1_555
O10 Li4 1_555 1_555
O11 Li2 1_555 1_555
O12 S6 1_555 1_555
N3 S5 1_555 1_555
C5 S5 1_555 1_555
F13 C5 1_555 1_555
F14 C5 1_555 1_555
F15 C5 1_555 1_555
C6 S6 1_555 1_555
F16 C6 1_555 1_555
F17 C6 1_555 1_555
F18 C6 1_555 1_555
S7 O13 1_555 1_555
S8 O15 1_555 1_555
O13 Li3 1_555 1_555
O14 S7 1_555 1_555
O15 Li3 1_555 1_555
O16 Li4 1_555 1_555
N4 S7 1_555 1_555
C7 S7 1_555 1_555
F19 C7 1_555 1_555
F20 C7 1_555 1_555
F21 C7 1_555 1_555
C8 S8 1_555 1_555
F22 C8 1_555 1_555
F23 C8 1_555 1_555
F24 C8 1_555 1_555
N5 Li1 1_555 1_555
C9 N5 1_555 1_555
C10 C9 1_555 1_555
H1 C10 1_555 1_555
C11 C10 1_555 1_555
H2 C11 1_555 1_555
C12 C11 1_555 1_555
H3 C12 1_555 1_555
C13 N5 1_555 1_555
C14 C9 1_555 1_555
H4 C14 1_555 1_555
H5 C14 1_555 1_555
H6 C14 1_555 1_555
C15 C13 1_555 1_555
H7 C15 1_555 1_555
H8 C15 1_555 1_555
H9 C15 1_555 1_555
N6 Li3 1_555 1_555
C16 N6 1_555 1_555
C17 C16 1_555 1_555
H10 C17 1_555 1_555
C18 C17 1_555 1_555
H11 C18 1_555 1_555
C19 C18 1_555 1_555
H12 C19 1_555 1_555
C20 N6 1_555 1_555
C21 C16 1_555 1_555
H13 C21 1_555 1_555
H14 C21 1_555 1_555
H15 C21 1_555 1_555
C22 C20 1_555 1_555
H16 C22 1_555 1_555
H17 C22 1_555 1_555
H18 C22 1_555 1_555
Li2_2 O14 1_555 1_555
Li4_2 O6 1_555 1_555
O6_2 Li4 1_555 1_555
O8_2 Li4 1_555 1_555
O14_2 Li2 1_555 1_555
S2 N1 1_555 1_555
S4 N2 1_555 1_555
O8 Li4_2 1_555 1_555
S5 O10 1_555 1_555
S6 N3 1_555 1_555
S8 O16 1_555 1_555
S8 N4 1_555 1_555
C12 C13 1_555 1_555
C19 C20 1_555 1_555

#END
