
#######################################################################
#
#                 Cambridge Crystallographic Data Centre
#                                CCDC 
#
#######################################################################
#
# If this CIF has been generated from an entry in the Cambridge 
# Structural Database, then it will include bibliographic, chemical, 
# crystal, experimental, refinement or atomic coordinate data resulting 
# from the CCDC's data processing and validation procedures.
#
#######################################################################

data_SOZYEN
_symmetry_cell_setting           monoclinic
_symmetry_space_group_name_H-M   'C 2/c'
_symmetry_Int_Tables_number      15
_space_group_name_Hall           '-C 2yn'
loop_
_symmetry_equiv_pos_site_id
_symmetry_equiv_pos_as_xyz
1 x,y,z
2 -x,y,1/2-z
3 1/2+x,1/2+y,z
4 1/2-x,1/2+y,1/2-z
5 -x,-y,-z
6 x,-y,1/2+z
7 1/2-x,1/2-y,-z
8 1/2+x,1/2-y,1/2+z
_cell_length_a                   10.262(3)
_cell_length_b                   18.838(5)
_cell_length_c                   15.083(4)
_cell_angle_alpha                90
_cell_angle_beta                 99.203(4)
_cell_angle_gamma                90
_cell_volume                     2878.25
loop_
_atom_site_label
_atom_site_type_symbol
_atom_site_fract_x
_atom_site_fract_y
_atom_site_fract_z
Zn1 Zn 0.30161(3) 0.17737(2) 0.32676(2)
O1 O 0.9051(3) 0.43255(14) 0.65547(15)
O2 O 0.4215(2) 0.23988(14) 0.48594(16)
O3 O 0.4659(2) 0.22669(13) 0.34783(15)
O4 O 0.9077(3) 0.45742(14) 0.33292(15)
O5 O 0.7621(2) 0.35906(13) 0.70393(13)
O6 O 0.7620(4) 0.4012(2) 0.23362(16)
N1 N 0.2228(3) 0.10043(16) 0.39408(17)
O7 O 0.1619(3) 0.2560(2) 0.3276(2)
C1 C 0.2322(4) 0.0988(2) 0.4834(2)
H1 H 0.2989 0.1250 0.5176
C2 C 0.1480(4) 0.0602(2) 0.5273(2)
H2 H 0.1583 0.0608 0.5896
C3 C 0.1300(4) 0.0592(2) 0.3465(2)
H3 H 0.1245 0.0577 0.2844
C4 C 0.0483(3) 0.02048(16) 0.47826(19)
C5 C 0.8129(3) 0.39828(16) 0.47711(18)
H4 H 0.8844 0.4291 0.4885
C6 C 0.7597(3) 0.38113(17) 0.38877(18)
C7 C 0.7595(3) 0.36939(15) 0.54854(17)
C8 C 0.8146(3) 0.38847(16) 0.64361(18)
C9 C 0.6010(3) 0.30444(16) 0.44344(18)
C10 C 0.6552(3) 0.33328(17) 0.37207(19)
H5 H 0.6214 0.3205 0.3133
C11 C 0.4877(3) 0.25320(17) 0.4268(2)
C12 C 0.6531(3) 0.32316(15) 0.53068(18)
H6 H 0.6162 0.3045 0.5781
C13 C 0.0432(3) 0.01916(19) 0.3857(2)
H7 H -0.0191 -0.0089 0.3502
C14 C 0.8127(4) 0.4150(2) 0.3109(2)
C15 C 0.0672(7) 0.2833(5) 0.2446(5)
C16 C 0.0371(7) 0.2263(5) 0.2628(6)
Zn2 Zn 1.0000 0.49299(2) 0.7500
N1D N -0.2228(3) -0.10043(16) 0.60592(17)
C1D C -0.2322(4) -0.0988(2) 0.5166(2)
H1D H -0.2989 -0.1250 0.4824
C2D C -0.1480(4) -0.0602(2) 0.4727(2)
H2D H -0.1583 -0.0608 0.4104
C3D C -0.1300(4) -0.0592(2) 0.6535(2)
H3D H -0.1245 -0.0577 0.7156
C4D C -0.0483(3) -0.02048(16) 0.52174(19)
C13D C -0.0432(3) -0.01916(19) 0.6143(2)
H7D H 0.0191 0.0089 0.6498
O7A O -0.1619(3) 0.2560(2) 0.1724(2)
C15A C -0.0672(7) 0.2833(5) 0.2554(5)
C16A C -0.0371(7) 0.2263(5) 0.2372(6)
Zn1A Zn -0.30161(3) 0.17737(2) 0.17324(2)
O1A O -0.9051(3) 0.43255(14) -0.15547(15)
O2A O -0.4215(2) 0.23988(14) 0.01406(16)
O3A O -0.4659(2) 0.22669(13) 0.15217(15)
O4A O -0.9077(3) 0.45742(14) 0.16708(15)
O5A O -0.7621(2) 0.35906(13) -0.20393(13)
O6A O -0.7620(4) 0.4012(2) 0.26638(16)
C5A C -0.8129(3) 0.39828(16) 0.02289(18)
H4A H -0.8844 0.4291 0.0115
C6A C -0.7597(3) 0.38113(17) 0.11123(18)
C7A C -0.7595(3) 0.36939(15) -0.04854(17)
C8A C -0.8146(3) 0.38847(16) -0.14361(18)
C9A C -0.6010(3) 0.30444(16) 0.05656(18)
C10A C -0.6552(3) 0.33328(17) 0.12793(19)
H5A H -0.6214 0.3205 0.1867
C11A C -0.4877(3) 0.25320(17) 0.0732(2)
C12A C -0.6531(3) 0.32316(15) -0.03068(18)
H6A H -0.6162 0.3045 -0.0781
C14A C -0.8127(4) 0.4150(2) 0.1891(2)
Zn1D Zn -0.30161(3) -0.17737(2) 0.67324(2)
Zn1F Zn -0.80161(3) 0.32263(2) -0.32676(2)
Zn1G Zn 0.80161(3) 0.32263(2) 0.82676(2)
O1A_2 O 1.0949(3) 0.43255(14) 0.84453(15)
O4D O 1.0923(3) 0.54258(14) 0.66708(15)
O4E O 0.9077(3) 0.54258(14) 0.83292(15)
O5F O -0.2621(2) 0.14094(13) 0.29607(13)
O5G O 0.2621(2) 0.14094(13) 0.20393(13)
N1A N -0.2228(3) 0.10043(16) 0.10592(17)
Zn2_2 Zn -1.0000 0.49299(2) -0.2500
Zn2D Zn -1.0000 0.50701(2) 0.2500
Zn2D_2 Zn 1.0000 0.50701(2) 0.2500
loop_
_geom_bond_atom_site_label_1
_geom_bond_atom_site_label_2
_geom_bond_site_symmetry_1
_geom_bond_site_symmetry_2
Zn1 O3 1_555 1_555
O1 C8 1_555 1_555
O2 C11 1_555 1_555
O3 C11 1_555 1_555
O4 C14 1_555 1_555
O5 C8 1_555 1_555
O6 C14 1_555 1_555
N1 Zn1 1_555 1_555
O7 Zn1 1_555 1_555
C1 N1 1_555 1_555
H1 C1 1_555 1_555
C2 C1 1_555 1_555
H2 C2 1_555 1_555
C3 N1 1_555 1_555
H3 C3 1_555 1_555
C4 C2 1_555 1_555
C5 H4 1_555 1_555
C6 C5 1_555 1_555
C7 C5 1_555 1_555
C8 C7 1_555 1_555
C9 C10 1_555 1_555
C10 C6 1_555 1_555
H5 C10 1_555 1_555
C11 C9 1_555 1_555
C12 C7 1_555 1_555
H6 C12 1_555 1_555
C13 C3 1_555 1_555
H7 C13 1_555 1_555
C14 C6 1_555 1_555
C15 O7 1_555 1_555
C16 O7 1_555 1_555
Zn2 O1 1_555 1_555
N1D C1D 1_555 1_555
C1D H1D 1_555 1_555
C2D C1D 1_555 1_555
H2D C2D 1_555 1_555
C3D N1D 1_555 1_555
H3D C3D 1_555 1_555
C4D C4 1_555 1_555
C13D C3D 1_555 1_555
H7D C13D 1_555 1_555
O7A C15A 1_555 1_555
C15A C15 1_555 1_555
C16A C15 1_555 1_555
Zn1A O7A 1_555 1_555
O1A C8A 1_555 1_555
O2A C11A 1_555 1_555
O3A Zn1A 1_555 1_555
O4A C14A 1_555 1_555
O5A C8A 1_555 1_555
O6A C14A 1_555 1_555
C5A H4A 1_555 1_555
C6A C5A 1_555 1_555
C7A C5A 1_555 1_555
C8A C7A 1_555 1_555
C9A C10A 1_555 1_555
C10A C6A 1_555 1_555
H5A C10A 1_555 1_555
C11A O3A 1_555 1_555
C12A C7A 1_555 1_555
H6A C12A 1_555 1_555
C14A C6A 1_555 1_555
Zn1D N1D 1_555 1_555
Zn1F O5A 1_555 1_555
Zn1G O5 1_555 1_555
O1A_2 Zn2 1_555 1_555
O4D Zn2 1_555 1_555
O4E Zn2 1_555 1_555
O5F Zn1A 1_555 1_555
O5G Zn1 1_555 1_555
N1A Zn1A 1_555 1_555
Zn2_2 O1A 1_555 1_555
Zn2D O4A 1_555 1_555
Zn2D_2 O4 1_555 1_555
C4 C13 1_555 1_555
C9 C12 1_555 1_555
C15 C16 1_555 1_555
C16 C15A 1_555 1_555
C16 C16A 1_555 1_555
C2D C4D 1_555 1_555
C4D C13D 1_555 1_555
O7A C16A 1_555 1_555
C15A C16A 1_555 1_555
C9A C11A 1_555 1_555
C9A C12A 1_555 1_555

#END
