
#######################################################################
#
#                 Cambridge Crystallographic Data Centre
#                                CCDC 
#
#######################################################################
#
# If this CIF has been generated from an entry in the Cambridge 
# Structural Database, then it will include bibliographic, chemical, 
# crystal, experimental, refinement or atomic coordinate data resulting 
# from the CCDC's data processing and validation procedures.
#
#######################################################################

data_SRPHCU
_symmetry_cell_setting           monoclinic
_symmetry_space_group_name_H-M   'C 2/c'
_symmetry_Int_Tables_number      15
_space_group_name_Hall           '-C 2yn'
loop_
_symmetry_equiv_pos_site_id
_symmetry_equiv_pos_as_xyz
1 x,y,z
2 1/2+x,1/2+y,z
3 -x,y,1/2-z
4 1/2-x,1/2+y,1/2-z
5 -x,-y,-z
6 1/2-x,1/2-y,-z
7 x,-y,1/2+z
8 1/2+x,1/2-y,1/2+z
_cell_length_a                   22.144(18)
_cell_length_b                   9.122(9)
_cell_length_c                   9.083(8)
_cell_angle_alpha                90
_cell_angle_beta                 103.6(1)
_cell_angle_gamma                90
_cell_volume                     1783.3
loop_
_atom_site_label
_atom_site_type_symbol
_atom_site_fract_x
_atom_site_fract_y
_atom_site_fract_z
Cu1 Cu 0.00000 0.00000 0.50000
O1 O -0.04030 0.19260 0.46390
O2 O -0.10040 0.35850 0.53090
O3 O -0.06580 -0.07820 0.26360
O4 O -0.06550 0.08850 0.08510
C1 C -0.14930 0.19830 0.33520
C2 C -0.14550 0.10330 0.21570
C3 C -0.19940 0.06640 0.11010
C4 C -0.25700 0.11860 0.12440
C5 C -0.26090 0.20880 0.24300
C6 C -0.20770 0.24880 0.34680
C7 C -0.09360 0.25110 0.45220
C8 C -0.08690 0.03080 0.19120
H1 H -0.20000 0.00600 0.01800
H2 H -0.29900 0.07200 0.06200
H3 H -0.29900 0.23500 0.26000
H4 H -0.21200 0.31800 0.42600
Cu1B Cu 0.00000 0.00000 0.00000
O1D O 0.04030 -0.19260 0.53610
C7D C 0.09360 -0.25110 0.54780
O2D O 0.10040 -0.35850 0.46910
C1D C 0.14930 -0.19830 0.66480
C2D C 0.14550 -0.10330 0.78430
C3D C 0.19940 -0.06640 0.88990
C4D C 0.25700 -0.11860 0.87560
C5D C 0.26090 -0.20880 0.75700
C6D C 0.20770 -0.24880 0.65320
H4D H 0.21200 -0.31800 0.57400
H3D H 0.29900 -0.23500 0.74000
H2D H 0.29900 -0.07200 0.93800
H1D H 0.20000 -0.00600 0.98200
C8D C 0.08690 -0.03080 0.80880
O3D O 0.06580 0.07820 0.73640
O4B O 0.06550 0.08850 0.41490
O4F O -0.06550 -0.08850 0.58510
O4D O 0.06550 -0.08850 0.91490
Cu1B_2 Cu 0.00000 0.00000 1.00000
Sr1 Sr 0.00000 -0.31410 0.25000
O5 O 0.00000 0.40650 0.25000
H5 H 0.01100 0.35200 0.19400
H5B H -0.01100 0.35200 0.30600
O6 O 0.07860 -0.36370 0.08520
H6 H 0.09200 -0.43800 0.03800
H7 H 0.07800 -0.29000 0.04200
loop_
_geom_bond_atom_site_label_1
_geom_bond_atom_site_label_2
_geom_bond_site_symmetry_1
_geom_bond_site_symmetry_2
Cu1 O1 1_555 1_555
O1 C7 1_555 1_555
O2 C7 1_555 1_555
O3 Cu1 1_555 1_555
O4 C8 1_555 1_555
C1 C2 1_555 1_555
C2 C3 1_555 1_555
C3 C4 1_555 1_555
C4 C5 1_555 1_555
C5 C6 1_555 1_555
C6 C1 1_555 1_555
C7 C1 1_555 1_555
C8 O3 1_555 1_555
H1 C3 1_555 1_555
H2 C4 1_555 1_555
H3 C5 1_555 1_555
H4 C6 1_555 1_555
O5 H5 1_555 1_555
O6 H6 1_555 1_555
H7 O6 1_555 1_555
Cu1B O4 1_555 1_555
O1D Cu1 1_555 1_555
C7D O1D 1_555 1_555
O2D C7D 1_555 1_555
C1D C7D 1_555 1_555
C2D C1D 1_555 1_555
C3D C2D 1_555 1_555
C4D C3D 1_555 1_555
C5D C4D 1_555 1_555
C6D C1D 1_555 1_555
H4D C6D 1_555 1_555
H3D C5D 1_555 1_555
H2D C4D 1_555 1_555
H1D C3D 1_555 1_555
C8D C2D 1_555 1_555
O3D Cu1 1_555 1_555
O4B Cu1 1_555 1_555
O4F Cu1 1_555 1_555
O4D C8D 1_555 1_555
Cu1B_2 O4D 1_555 1_555
H5B O5 1_555 1_555
C2 C8 1_555 1_555
C5D C6D 1_555 1_555
C8D O3D 1_555 1_555

#END
