
#######################################################################
#
#                 Cambridge Crystallographic Data Centre
#                                CCDC 
#
#######################################################################
#
# If this CIF has been generated from an entry in the Cambridge 
# Structural Database, then it will include bibliographic, chemical, 
# crystal, experimental, refinement or atomic coordinate data resulting 
# from the CCDC's data processing and validation procedures.
#
#######################################################################

data_SUBDIE
_symmetry_cell_setting           monoclinic
_symmetry_space_group_name_H-M   'C 2/c'
_symmetry_Int_Tables_number      15
_space_group_name_Hall           '-C 2yn'
loop_
_symmetry_equiv_pos_site_id
_symmetry_equiv_pos_as_xyz
1 x,y,z
2 -x,y,1/2-z
3 1/2+x,1/2+y,z
4 1/2-x,1/2+y,1/2-z
5 -x,-y,-z
6 x,-y,1/2+z
7 1/2-x,1/2-y,-z
8 1/2+x,1/2-y,1/2+z
_cell_length_a                   11.6645(8)
_cell_length_b                   16.7097(11)
_cell_length_c                   22.3126(14)
_cell_angle_alpha                90
_cell_angle_beta                 95.432(6)
_cell_angle_gamma                90
_cell_volume                     4329.43
loop_
_atom_site_label
_atom_site_type_symbol
_atom_site_fract_x
_atom_site_fract_y
_atom_site_fract_z
Na1 Na 0.58001(7) 0.15916(5) 0.31811(3)
Na2 Na 0.65893(7) 0.21922(5) 0.44284(3)
O1 O 0.38690(12) 0.14873(9) 0.28308(6)
O2 O 0.48803(12) 0.17250(8) 0.40680(6)
O3 O 0.65853(12) 0.28120(9) 0.35151(6)
O4 O 0.76211(12) 0.33015(8) 0.46822(6)
N1 N 0.61438(15) 0.01689(11) 0.34611(7)
N2 N 0.79013(15) 0.11883(11) 0.38338(7)
C1 C 0.18534(18) 0.12747(15) 0.27189(10)
H1 H 0.1909 0.0788 0.2478
H2 H 0.1695 0.1734 0.2451
H3 H 0.1228 0.1215 0.2980
C2 C 0.29861(18) 0.14089(12) 0.31048(9)
C3 C 0.29376(17) 0.14378(12) 0.37303(9)
H4 H 0.2209 0.1335 0.3872
C4 C 0.38536(19) 0.16028(12) 0.41695(9)
C5 C 0.35764(18) 0.16839(13) 0.48152(9)
H5 H 0.4127 0.1369 0.5077
H6 H 0.2794 0.1487 0.4851
H7 H 0.3628 0.2248 0.4935
C6 C 0.6680(2) 0.37500(15) 0.27305(9)
H8 H 0.6512 0.3277 0.2478
H9 H 0.7360 0.4023 0.2603
H10 H 0.6020 0.4115 0.2688
C7 C 0.69103(18) 0.34964(14) 0.33792(9)
C8 C 0.74859(17) 0.40485(13) 0.37792(9)
H11 H 0.7665 0.4554 0.3617
C9 C 0.78186(17) 0.39260(13) 0.43903(9)
C10 C 0.84482(19) 0.45971(13) 0.47377(9)
H12 H 0.9045 0.4372 0.5028
H13 H 0.7901 0.4905 0.4953
H14 H 0.8806 0.4949 0.4458
C11 C 0.5295(2) -0.03377(15) 0.33014(10)
H15 H 0.4570 -0.0120 0.3154
C12 C 0.5394(2) -0.11696(15) 0.33349(10)
H16 H 0.4750 -0.1504 0.3224
C13 C 0.6437(2) -0.14911(14) 0.35308(9)
H17 H 0.6534 -0.2055 0.3547
C14 C 0.73700(19) -0.09824(14) 0.37091(9)
C15 C 0.71760(18) -0.01553(13) 0.36681(9)
C16 C 0.8489(2) -0.12853(14) 0.39021(9)
H18 H 0.8617 -0.1847 0.3915
C17 C 0.9364(2) -0.07804(15) 0.40668(9)
H19 H 1.0106 -0.0991 0.4190
C18 C 0.91956(19) 0.00646(14) 0.40588(9)
C19 C 0.81083(18) 0.03893(13) 0.38589(9)
C20 C 1.0082(2) 0.06051(15) 0.42338(10)
H20 H 1.0826 0.0412 0.4374
C21 C 0.9879(2) 0.14042(15) 0.42030(10)
H21 H 1.0475 0.1776 0.4319
C22 C 0.87783(19) 0.16690(14) 0.39973(9)
H22 H 0.8649 0.2230 0.3973
Na1A Na 0.41999(7) 0.15916(5) 0.18189(3)
Na2F Na 0.84107(7) 0.28078(5) 0.55716(3)
O1A O 0.61310(12) 0.14873(9) 0.21692(6)
O4F O 0.73789(12) 0.16985(8) 0.53178(6)
loop_
_geom_bond_atom_site_label_1
_geom_bond_atom_site_label_2
_geom_bond_site_symmetry_1
_geom_bond_site_symmetry_2
Na1 O1 1_555 1_555
Na2 O2 1_555 1_555
O1 C2 1_555 1_555
O2 Na1 1_555 1_555
O3 Na1 1_555 1_555
O4 Na2 1_555 1_555
N1 Na1 1_555 1_555
N2 Na1 1_555 1_555
C1 H1 1_555 1_555
H2 C1 1_555 1_555
H3 C1 1_555 1_555
C2 C1 1_555 1_555
C3 C2 1_555 1_555
H4 C3 1_555 1_555
C4 O2 1_555 1_555
C5 C4 1_555 1_555
H5 C5 1_555 1_555
H6 C5 1_555 1_555
H7 C5 1_555 1_555
C6 H8 1_555 1_555
H9 C6 1_555 1_555
H10 C6 1_555 1_555
C7 O3 1_555 1_555
C8 C7 1_555 1_555
H11 C8 1_555 1_555
C9 O4 1_555 1_555
C10 C9 1_555 1_555
H12 C10 1_555 1_555
H13 C10 1_555 1_555
H14 C10 1_555 1_555
C11 N1 1_555 1_555
H15 C11 1_555 1_555
C12 C11 1_555 1_555
H16 C12 1_555 1_555
C13 C12 1_555 1_555
H17 C13 1_555 1_555
C14 C13 1_555 1_555
C15 N1 1_555 1_555
C16 C14 1_555 1_555
H18 C16 1_555 1_555
C17 C16 1_555 1_555
H19 C17 1_555 1_555
C18 C17 1_555 1_555
C19 N2 1_555 1_555
C20 C18 1_555 1_555
H20 C20 1_555 1_555
C21 C20 1_555 1_555
H21 C21 1_555 1_555
C22 N2 1_555 1_555
H22 C22 1_555 1_555
Na1A O1 1_555 1_555
Na2F O4 1_555 1_555
O1A Na1 1_555 1_555
O4F Na2 1_555 1_555
Na2 O3 1_555 1_555
Na2 N2 1_555 1_555
C3 C4 1_555 1_555
C6 C7 1_555 1_555
C8 C9 1_555 1_555
C14 C15 1_555 1_555
C15 C19 1_555 1_555
C18 C19 1_555 1_555
C21 C22 1_555 1_555
Na1A O1A 1_555 1_555
Na2F O4F 1_555 1_555

#END
