
#######################################################################
#
#                 Cambridge Crystallographic Data Centre
#                                CCDC 
#
#######################################################################
#
# If this CIF has been generated from an entry in the Cambridge 
# Structural Database, then it will include bibliographic, chemical, 
# crystal, experimental, refinement or atomic coordinate data resulting 
# from the CCDC's data processing and validation procedures.
#
#######################################################################

data_SUBLIM
_symmetry_cell_setting           monoclinic
_symmetry_space_group_name_H-M   'P 21/n'
_symmetry_Int_Tables_number      14
_space_group_name_Hall           '-P 2yn'
loop_
_symmetry_equiv_pos_site_id
_symmetry_equiv_pos_as_xyz
1 x,y,z
2 1/2-x,1/2+y,1/2-z
3 -x,-y,-z
4 1/2+x,1/2-y,1/2+z
_cell_length_a                   14.214(3)
_cell_length_b                   16.817(3)
_cell_length_c                   20.168(4)
_cell_angle_alpha                90
_cell_angle_beta                 93.30(3)
_cell_angle_gamma                90
_cell_volume                     4812.9
loop_
_atom_site_label
_atom_site_type_symbol
_atom_site_fract_x
_atom_site_fract_y
_atom_site_fract_z
Pr1 Pr 0.255295(8) 0.894081(6) 0.325925(5)
O1 O 0.35547(11) 0.60949(9) 0.14578(8)
O2 O 0.08406(12) 1.05215(10) 0.20974(7)
O3 O 0.43259(13) 1.10364(9) 0.28984(8)
O4 O 0.42865(11) 1.23025(9) 0.23785(8)
O5 O 0.36793(11) 0.73922(9) 0.19339(7)
O6 O -0.05966(12) 1.11672(10) 0.18227(9)
O7 O 0.25254(12) 0.81486(10) 0.22496(8)
O8 O 0.54424(13) 1.13906(10) 0.20595(8)
O9 O 0.38675(12) 0.98070(10) 0.30309(8)
O10 O 0.10860(11) 1.30925(9) 0.15923(7)
O11 O 0.03072(12) 1.07324(9) 0.09434(8)
O12 O 0.38701(12) 0.71937(9) 0.07604(8)
O13 O 0.09168(11) 1.17979(9) 0.16110(8)
N1 N 0.19624(14) 0.79218(11) 0.41315(9)
O14 O 0.50553(11) 0.68082(10) 0.15779(8)
O15 O 0.34849(11) 0.48282(9) 0.12036(7)
O16 O 0.21185(13) 0.98307(10) 0.23651(8)
O17 O 0.55696(12) 1.19118(10) 0.31592(8)
O18 O 0.40822(11) 1.35543(10) 0.20710(8)
N2 N 0.33602(13) 0.93589(11) 0.44355(9)
C1 C 0.05736(16) 1.25085(13) 0.16567(10)
C2 C 0.14927(18) 0.79348(14) 0.10034(12)
H1 H 0.11303(18) 0.81084(14) 0.13446(12)
C3 C 0.15923(17) 1.01462(13) 0.19324(11)
C4 C 0.42669(18) 0.90347(16) 0.54415(11)
H2 H 0.45753(18) 0.86526(16) 0.57069(11)
C5 C 0.39607(16) 0.54388(13) 0.12917(10)
C6 C 0.53708(16) 1.06464(14) 0.18304(11)
C7 C 0.19284(17) 0.71503(14) 0.39647(11)
H3 H 0.23222(17) 0.69682(14) 0.36448(11)
C8 C 0.57642(18) 1.40342(14) 0.27944(12)
H4 H 0.54675(18) 1.44229(14) 0.25294(12)
C9 C 0.38115(17) 0.88310(14) 0.48382(11)
H5 H 0.38197(17) 0.83012(14) 0.47064(11)
C10 C 0.33538(16) 1.01190(14) 0.46337(11)
H6 H 0.30473(16) 1.04928(14) 0.43587(11)
C11 C 0.54221(15) 1.32526(13) 0.27747(10)
C12 C 0.54903(17) 0.61354(14) 0.14087(11)
C13 C 0.43116(16) 1.02944(13) 0.27170(11)
C14 C -0.08517(18) 1.33329(15) 0.17990(11)
H7 H -0.04897(18) 1.37868(15) 0.17464(11)
C15 C 0.48392(16) 1.00723(13) 0.21399(11)
C16 C 0.14066(18) 0.81664(15) 0.46044(11)
H8 H 0.14408(18) 0.86961(15) 0.47359(11)
C17 C 0.0784(2) 0.76722(17) 0.49074(12)
H9 H 0.0403(2) 0.78654(17) 0.52307(12)
C18 C 0.07438(19) 0.68849(16) 0.47174(12)
H10 H 0.03222(19) 0.65396(16) 0.49046(12)
C19 C 0.2592(2) 0.74412(15) -0.00232(11)
H11 H 0.2958(2) 0.72887(15) -0.03692(11)
C20 C -0.09690(16) 1.19010(14) 0.18540(10)
C21 C 0.45562(15) 1.30463(13) 0.23751(10)
C22 C 0.12099(18) 1.02453(14) 0.00788(11)
H12 H 0.07628(18) 1.04305(14) -0.02390(11)
C23 C 0.52720(19) 0.90928(15) 0.13377(13)
H13 H 0.52470(19) 0.85764(15) 0.11727(13)
C24 C 0.64719(18) 0.61261(16) 0.14163(13)
H14 H 0.68161(18) 0.65740(16) 0.15507(13)
C25 C -0.04310(16) 1.25831(13) 0.17721(10)
C26 C 0.54598(18) 0.47695(15) 0.10358(13)
H15 H 0.51232(18) 0.43133(15) 0.09135(13)
C27 C 0.1679(2) 0.76802(16) -0.01520(12)
H16 H 0.1426(2) 0.76802(16) -0.05878(12)
C28 C 0.58441(17) 1.04422(15) 0.12644(11)
H17 H 0.61978(17) 1.08206(15) 0.10527(11)
C29 C 0.49803(16) 0.54467(13) 0.12303(11)
C30 C 0.17714(16) 1.00832(13) 0.12255(10)
C31 C 0.29704(17) 0.74279(13) 0.06318(11)
C32 C 0.58695(16) 1.26696(14) 0.31713(11)
C33 C 0.37864(17) 1.03739(15) 0.52336(12)
H18 H 0.37630(17) 1.09054(15) 0.53589(12)
C34 C 0.28694(16) 0.77479(13) 0.18163(10)
C35 C 0.25693(17) 0.96967(14) 0.10174(12)
H19 H 0.30229(17) 0.95142(14) 0.13318(12)
C36 C 0.19975(19) 0.98483(15) -0.01118(12)
H20 H 0.20672(19) 0.97554(15) -0.05609(12)
C37 C 0.57815(18) 0.96758(15) 0.10239(12)
H21 H 0.60866(18) 0.95449(15) 0.06430(12)
C38 C 0.24185(16) 0.76838(13) 0.11421(10)
C39 C 0.10885(16) 1.03675(13) 0.07539(11)
C40 C -0.23284(18) 1.27204(18) 0.19789(12)
H22 H -0.29678(18) 1.27674(18) 0.20461(12)
C41 C 0.65348(19) 1.42286(16) 0.32031(14)
H23 H 0.67689(19) 1.47451(16) 0.32106(14)
C42 C -0.19301(17) 1.19739(16) 0.19572(11)
H24 H -0.22970(17) 1.15231(16) 0.20107(11)
B1 B 0.40618(18) 0.68718(15) 0.14273(12)
C43 C 0.1117(2) 0.79239(16) 0.03563(13)
H25 H 0.0496(2) 0.80777(16) 0.02600(13)
C44 C 0.48067(17) 0.92883(14) 0.18934(11)
H26 H 0.44688(17) 0.89015(14) 0.21079(11)
C45 C 0.69635(19) 1.36444(17) 0.36066(13)
H27 H 0.74814(19) 1.37781(17) 0.38872(13)
C46 C 0.26955(19) 0.95811(15) 0.03526(13)
H28 H 0.32340(19) 0.93304(15) 0.02151(13)
B2 B 0.03363(19) 1.10551(15) 0.16123(13)
C47 C 0.69267(19) 0.54517(17) 0.12242(14)
H29 H 0.75813(19) 0.54488(17) 0.12281(14)
C48 C -0.1795(2) 1.34059(17) 0.19023(13)
H30 H -0.2073(2) 1.39053(17) 0.19209(13)
C49 C 0.64288(19) 0.47709(17) 0.10233(14)
H31 H 0.67460(19) 0.43234(17) 0.08827(14)
C50 C 0.66377(17) 1.28752(15) 0.35990(12)
H32 H 0.69266(17) 1.24948(15) 0.38765(12)
C51 C 0.42484(17) 0.98225(16) 0.56361(11)
H33 H 0.45472(17) 0.99786(16) 0.60374(11)
C52 C 0.13338(18) 0.66144(15) 0.42475(12)
H34 H 0.13315(18) 0.60817(15) 0.41234(12)
B3 B 0.4922(2) 1.16566(15) 0.26213(13)
Pr1A Pr 0.244705(8) 0.394081(6) 0.174075(5)
Pr1A_2 Pr 0.244705(8) 1.394081(6) 0.174075(5)
O10A O 0.39140(11) 0.80925(9) 0.34077(7)
O15A O 0.15151(11) 0.98282(9) 0.37964(7)
O18A O 0.09178(11) 0.85543(10) 0.29290(8)
loop_
_geom_bond_atom_site_label_1
_geom_bond_atom_site_label_2
_geom_bond_site_symmetry_1
_geom_bond_site_symmetry_2
Pr1 O7 1_555 1_555
O1 C5 1_555 1_555
O2 C3 1_555 1_555
O3 C13 1_555 1_555
O4 C21 1_555 1_555
O5 C34 1_555 1_555
O6 C20 1_555 1_555
O7 C34 1_555 1_555
O8 C6 1_555 1_555
O9 Pr1 1_555 1_555
O10 C1 1_555 1_555
O11 C39 1_555 1_555
O12 C31 1_555 1_555
O13 C1 1_555 1_555
N1 Pr1 1_555 1_555
O14 C12 1_555 1_555
O15 C5 1_555 1_555
O16 Pr1 1_555 1_555
O17 C32 1_555 1_555
O18 C21 1_555 1_555
N2 Pr1 1_555 1_555
C1 C25 1_555 1_555
C2 H1 1_555 1_555
C3 O16 1_555 1_555
C4 H2 1_555 1_555
C5 C29 1_555 1_555
C6 C15 1_555 1_555
C7 N1 1_555 1_555
H3 C7 1_555 1_555
C8 H4 1_555 1_555
C9 N2 1_555 1_555
H5 C9 1_555 1_555
C10 N2 1_555 1_555
H6 C10 1_555 1_555
C11 C8 1_555 1_555
C12 C24 1_555 1_555
C13 O9 1_555 1_555
C14 H7 1_555 1_555
C15 C13 1_555 1_555
C16 N1 1_555 1_555
H8 C16 1_555 1_555
C17 C16 1_555 1_555
H9 C17 1_555 1_555
C18 C17 1_555 1_555
H10 C18 1_555 1_555
C19 H11 1_555 1_555
C20 C25 1_555 1_555
C21 C11 1_555 1_555
C22 H12 1_555 1_555
C23 H13 1_555 1_555
C24 H14 1_555 1_555
C25 C14 1_555 1_555
C26 H15 1_555 1_555
C27 C19 1_555 1_555
H16 C27 1_555 1_555
C28 C6 1_555 1_555
H17 C28 1_555 1_555
C29 C12 1_555 1_555
C30 C3 1_555 1_555
C31 C19 1_555 1_555
C32 C11 1_555 1_555
C33 C10 1_555 1_555
H18 C33 1_555 1_555
C34 C38 1_555 1_555
C35 C30 1_555 1_555
H19 C35 1_555 1_555
C36 C22 1_555 1_555
H20 C36 1_555 1_555
C37 C23 1_555 1_555
H21 C37 1_555 1_555
C38 C2 1_555 1_555
C39 C22 1_555 1_555
C40 H22 1_555 1_555
C41 C8 1_555 1_555
H23 C41 1_555 1_555
C42 C20 1_555 1_555
H24 C42 1_555 1_555
B1 O1 1_555 1_555
C43 C2 1_555 1_555
H25 C43 1_555 1_555
C44 C15 1_555 1_555
H26 C44 1_555 1_555
C45 C41 1_555 1_555
H27 C45 1_555 1_555
C46 C35 1_555 1_555
H28 C46 1_555 1_555
B2 O2 1_555 1_555
C47 C24 1_555 1_555
H29 C47 1_555 1_555
C48 C14 1_555 1_555
H30 C48 1_555 1_555
C49 C26 1_555 1_555
H31 C49 1_555 1_555
C50 C32 1_555 1_555
H32 C50 1_555 1_555
C51 C4 1_555 1_555
H33 C51 1_555 1_555
C52 C7 1_555 1_555
H34 C52 1_555 1_555
B3 O3 1_555 1_555
Pr1A O15 1_555 1_555
Pr1A_2 O10 1_555 1_555
O10A Pr1 1_555 1_555
O15A Pr1 1_555 1_555
O18A Pr1 1_555 1_555
O4 B3 1_555 1_555
O5 B1 1_555 1_555
O6 B2 1_555 1_555
O8 B3 1_555 1_555
O11 B2 1_555 1_555
O12 B1 1_555 1_555
O13 B2 1_555 1_555
O14 B1 1_555 1_555
O17 B3 1_555 1_555
O18 Pr1A_2 1_555 1_555
C4 C9 1_555 1_555
C18 C52 1_555 1_555
C23 C44 1_555 1_555
C26 C29 1_555 1_555
C27 C43 1_555 1_555
C28 C37 1_555 1_555
C30 C39 1_555 1_555
C31 C38 1_555 1_555
C33 C51 1_555 1_555
C36 C46 1_555 1_555
C40 C42 1_555 1_555
C40 C48 1_555 1_555
C45 C50 1_555 1_555
C47 C49 1_555 1_555

#END
