
#######################################################################
#
#                 Cambridge Crystallographic Data Centre
#                                CCDC 
#
#######################################################################
#
# If this CIF has been generated from an entry in the Cambridge 
# Structural Database, then it will include bibliographic, chemical, 
# crystal, experimental, refinement or atomic coordinate data resulting 
# from the CCDC's data processing and validation procedures.
#
#######################################################################

data_SUBMIN
_symmetry_cell_setting           rhombohedral
_symmetry_space_group_name_H-M   'R -3 c'
_symmetry_Int_Tables_number      167
_space_group_name_Hall           '-R 3 2"c'
loop_
_symmetry_equiv_pos_site_id
_symmetry_equiv_pos_as_xyz
1 x,y,z
2 -y,x-y,z
3 -x+y,-x,z
4 x-y,-y,1/2-z
5 -x,-x+y,1/2-z
6 y,x,1/2-z
7 2/3+x,1/3+y,1/3+z
8 2/3-y,1/3+x-y,1/3+z
9 2/3-x+y,1/3-x,1/3+z
10 2/3+x-y,1/3-y,5/6-z
11 2/3-x,1/3-x+y,5/6-z
12 2/3+y,1/3+x,5/6-z
13 1/3+x,2/3+y,2/3+z
14 1/3-y,2/3+x-y,2/3+z
15 1/3-x+y,2/3-x,2/3+z
16 1/3+x-y,2/3-y,1/6-z
17 1/3-x,2/3-x+y,1/6-z
18 1/3+y,2/3+x,1/6-z
19 -x,-y,-z
20 y,-x+y,-z
21 x-y,x,-z
22 -x+y,y,1/2+z
23 x,x-y,1/2+z
24 -y,-x,1/2+z
25 1/3-x,2/3-y,2/3-z
26 1/3+y,2/3-x+y,2/3-z
27 1/3+x-y,2/3+x,2/3-z
28 1/3-x+y,2/3+y,1/6+z
29 1/3+x,2/3+x-y,1/6+z
30 1/3-y,2/3-x,1/6+z
31 2/3-x,1/3-y,1/3-z
32 2/3+y,1/3-x+y,1/3-z
33 2/3+x-y,1/3+x,1/3-z
34 2/3-x+y,1/3+y,5/6+z
35 2/3+x,1/3+x-y,5/6+z
36 2/3-y,1/3-x,5/6+z
_cell_length_a                   31.070(5)
_cell_length_b                   31.070(5)
_cell_length_c                   31.862(5)
_cell_angle_alpha                90
_cell_angle_beta                 90
_cell_angle_gamma                120
_cell_volume                     26637.1
loop_
_atom_site_label
_atom_site_type_symbol
_atom_site_fract_x
_atom_site_fract_y
_atom_site_fract_z
C1 C 0.06029(13) 0.58082(13) 0.22845(12)
H1 H 0.0305 0.5726 0.2151
C2 C 0.09979(14) 0.62883(14) 0.22428(12)
H2 H 0.0965 0.6523 0.2088
C3 C 0.14423(15) 0.64106(15) 0.24364(13)
C4 C 0.14692(16) 0.60551(16) 0.26780(15)
H3 H 0.1760 0.6131 0.2820
C5 C 0.10565(14) 0.55838(14) 0.27055(13)
H4 H 0.1077 0.5346 0.2868
C6 C 0.48857(15) 0.98115(14) 0.34653(11)
H5 H 0.5091 0.9734 0.3310
C7 C 0.49170(16) 0.98144(16) 0.38985(12)
H6 H 0.5142 0.9745 0.4030
C8 C 0.46044(15) 0.99234(16) 0.41351(12)
C9 C 0.42691(16) 1.00172(16) 0.39246(11)
H7 H 0.4050 1.0082 0.4073
C10 C 0.42669(15) 1.00125(15) 0.34874(11)
H8 H 0.4044 1.0080 0.3348
C11 C 0.46373(16) 0.99572(17) 0.45947(13)
H9 H 0.4387 0.9962 0.4751
C12 C 0.37055(14) 0.89991(13) 0.21390(11)
H10 H 0.3962 0.9040 0.1963
C13 C 0.32623(14) 0.85555(13) 0.21246(12)
H11 H 0.3222 0.8303 0.1944
C14 C 0.28759(13) 0.84940(13) 0.23865(12)
C15 C 0.29493(14) 0.88856(15) 0.26375(13)
H12 H 0.2694 0.8859 0.2808
C16 C 0.34043(14) 0.93184(14) 0.26341(12)
H13 H 0.3448 0.9581 0.2804
C17 C 0.24051(14) 0.80134(14) 0.24009(13)
H14 H 0.2170 0.7955 0.2607
C18 C 0.18868(16) 0.69095(16) 0.23934(15)
H15 H 0.2178 0.6981 0.2532
Cd1 Cd 0.461165(10) 1.0000 0.2500
N1 N 0.06293(11) 0.54578(11) 0.25078(9)
N2 N 0.45697(12) 0.99164(12) 0.32577(10)
N3 N 0.50134(15) 0.99796(17) 0.47780(9)
N4 N 0.18758(13) 0.72388(13) 0.21714(12)
N5 N 0.23243(14) 0.76825(13) 0.21311(12)
N6 N 0.37849(11) 0.93765(11) 0.23961(9)
C6R C 0.51143(15) 1.01885(14) 0.65347(11)
H5R H 0.4909 1.0266 0.6690
C7R C 0.50830(16) 1.01856(16) 0.61015(12)
H6R H 0.4858 1.0255 0.5970
C8R C 0.53956(15) 1.00766(16) 0.58649(12)
C9R C 0.57309(16) 0.99828(16) 0.60754(11)
H7R H 0.5950 0.9918 0.5927
C10R C 0.57331(15) 0.99875(15) 0.65126(11)
H8R H 0.5956 0.9920 0.6652
C11R C 0.53627(16) 1.00428(17) 0.54053(13)
H9R H 0.5613 1.0038 0.5249
N2R N 0.54303(12) 1.00836(12) 0.67423(10)
N3R N 0.49866(15) 1.00204(17) 0.52220(9)
C1B C 0.52053(18) 0.93971(13) 0.22845(12)
H1B H 0.5421 0.9695 0.2151
C2B C 0.52904(20) 0.90021(14) 0.22428(12)
H2B H 0.5558 0.9035 0.2088
C3B C 0.49683(21) 0.85577(15) 0.24364(13)
C4B C 0.45859(23) 0.85308(16) 0.26780(15)
H3B H 0.4371 0.8240 0.2820
C5B C 0.45273(20) 0.89435(14) 0.27055(13)
H4B H 0.4269 0.8923 0.2868
C12B C 0.52936(19) 0.62945(14) 0.21390(11)
H10B H 0.5078 0.6038 0.1963
C13B C 0.52932(19) 0.67377(14) 0.21246(12)
H11B H 0.5081 0.6778 0.1944
C14B C 0.56181(18) 0.71241(13) 0.23865(12)
C15B C 0.59363(21) 0.70507(14) 0.26375(13)
H12B H 0.6165 0.7306 0.2808
C16B C 0.59141(20) 0.65957(14) 0.26341(12)
H13B H 0.6133 0.6552 0.2804
C17B C 0.56083(20) 0.75949(14) 0.24009(13)
H14B H 0.5785 0.7830 0.2607
C18B C 0.50227(23) 0.81132(16) 0.23934(15)
H15B H 0.4803 0.7822 0.2532
N1B N 0.48285(16) 0.93707(11) 0.25078(9)
N4B N 0.53630(18) 0.81242(13) 0.21714(12)
N5B N 0.53582(19) 0.76757(14) 0.21311(12)
N6B N 0.55916(16) 0.62151(11) 0.23961(9)
Cd1A Cd 0.0000 0.461165(10) 0.2500
Cd1B Cd 0.538835(10) 0.538835(10) 0.2500
Cd1R Cd 0.538835(10) 1.0000 0.7500
N1E N 0.54578(11) 1.06293(11) 0.24922(9)
N2C N 0.46533(17) 1.00836(12) 0.17423(10)
N6C N 0.44084(16) 1.06235(11) 0.26039(9)
Cl1 Cl 0.30504(8) 0.01829(7) 0.33637(12)
O1 O 0.2775(3) 0.0398(3) 0.3465(3)
O2 O 0.3528(3) 0.0504(3) 0.3238(3)
O3 O 0.3146(3) 0.0142(3) 0.37548(15)
O4 O 0.2874(3) -0.0282(3) 0.3312(3)
loop_
_geom_bond_atom_site_label_1
_geom_bond_atom_site_label_2
_geom_bond_site_symmetry_1
_geom_bond_site_symmetry_2
C1 H1 1_555 1_555
C2 C1 1_555 1_555
H2 C2 1_555 1_555
C3 C2 1_555 1_555
C4 C3 1_555 1_555
H3 C4 1_555 1_555
C5 C4 1_555 1_555
H4 C5 1_555 1_555
C6 H5 1_555 1_555
C7 C6 1_555 1_555
H6 C7 1_555 1_555
C8 C7 1_555 1_555
C9 C8 1_555 1_555
H7 C9 1_555 1_555
C10 C9 1_555 1_555
H8 C10 1_555 1_555
C11 C8 1_555 1_555
H9 C11 1_555 1_555
C12 H10 1_555 1_555
C13 C12 1_555 1_555
H11 C13 1_555 1_555
C14 C13 1_555 1_555
C15 C14 1_555 1_555
H12 C15 1_555 1_555
C16 C15 1_555 1_555
H13 C16 1_555 1_555
C17 C14 1_555 1_555
H14 C17 1_555 1_555
C18 C3 1_555 1_555
H15 C18 1_555 1_555
Cd1 N2 1_555 1_555
N1 C1 1_555 1_555
N2 C6 1_555 1_555
N3 C11 1_555 1_555
N4 C18 1_555 1_555
N5 C17 1_555 1_555
N6 C12 1_555 1_555
Cl1 O1 1_555 1_555
O2 Cl1 1_555 1_555
O3 Cl1 1_555 1_555
O4 Cl1 1_555 1_555
C6R H5R 1_555 1_555
C7R C6R 1_555 1_555
H6R C7R 1_555 1_555
C8R C7R 1_555 1_555
C9R C8R 1_555 1_555
H7R C9R 1_555 1_555
C10R C9R 1_555 1_555
H8R C10R 1_555 1_555
C11R C8R 1_555 1_555
H9R C11R 1_555 1_555
N2R C6R 1_555 1_555
N3R N3 1_555 1_555
C1B H1B 1_555 1_555
C2B C1B 1_555 1_555
H2B C2B 1_555 1_555
C3B C2B 1_555 1_555
C4B C3B 1_555 1_555
H3B C4B 1_555 1_555
C5B C4B 1_555 1_555
H4B C5B 1_555 1_555
C12B H10B 1_555 1_555
C13B C12B 1_555 1_555
H11B C13B 1_555 1_555
C14B C13B 1_555 1_555
C15B C14B 1_555 1_555
H12B C15B 1_555 1_555
C16B C15B 1_555 1_555
H13B C16B 1_555 1_555
C17B C14B 1_555 1_555
H14B C17B 1_555 1_555
C18B C3B 1_555 1_555
H15B C18B 1_555 1_555
N1B Cd1 1_555 1_555
N4B C18B 1_555 1_555
N5B C17B 1_555 1_555
N6B C12B 1_555 1_555
Cd1A N1 1_555 1_555
Cd1B N6B 1_555 1_555
Cd1R N2R 1_555 1_555
N1E Cd1 1_555 1_555
N2C Cd1 1_555 1_555
N6C Cd1 1_555 1_555
C5 N1 1_555 1_555
C10 N2 1_555 1_555
C16 N6 1_555 1_555
Cd1 N6 1_555 1_555
N4 N5 1_555 1_555
C10R N2R 1_555 1_555
C11R N3R 1_555 1_555
C1B N1B 1_555 1_555
C5B N1B 1_555 1_555
C16B N6B 1_555 1_555
N4B N5B 1_555 1_555

#END
