
#######################################################################
#
#                 Cambridge Crystallographic Data Centre
#                                CCDC 
#
#######################################################################
#
# If this CIF has been generated from an entry in the Cambridge 
# Structural Database, then it will include bibliographic, chemical, 
# crystal, experimental, refinement or atomic coordinate data resulting 
# from the CCDC's data processing and validation procedures.
#
#######################################################################

data_SUBMOT
_symmetry_cell_setting           monoclinic
_symmetry_space_group_name_H-M   'C c'
_symmetry_Int_Tables_number      9
_space_group_name_Hall           'C -2yc'
loop_
_symmetry_equiv_pos_site_id
_symmetry_equiv_pos_as_xyz
1 x,y,z
2 x,-y,1/2+z
3 1/2+x,1/2+y,z
4 1/2+x,1/2-y,1/2+z
_cell_length_a                   18.938(8)
_cell_length_b                   16.008(7)
_cell_length_c                   15.549(11)
_cell_angle_alpha                90
_cell_angle_beta                 123.948(6)
_cell_angle_gamma                90
_cell_volume                     3910.33
loop_
_atom_site_label
_atom_site_type_symbol
_atom_site_fract_x
_atom_site_fract_y
_atom_site_fract_z
N1 N 0.9971(3) 0.19259(13) 0.2414(4)
C1 C 0.9410(4) 0.24108(15) 0.2511(5)
H1 H 0.8999 0.2156 0.2573
C2 C 0.9464(4) 0.32770(15) 0.2516(5)
H2 H 0.9088 0.3601 0.2581
C3 C 1.0078(4) 0.36583(13) 0.2423(6)
C4 C 1.0638(4) 0.31734(16) 0.2326(6)
H3 H 1.1049 0.3429 0.2264
C5 C 1.0585(3) 0.23072(16) 0.2321(5)
H4 H 1.0960 0.1983 0.2256
N2 N 0.9913(3) 0.89842(13) 0.2302(3)
C6 C 0.9779(3) 0.86587(16) 0.1394(3)
H5 H 0.9647 0.9013 0.0849
C7 C 0.9843(4) 0.78031(17) 0.1299(4)
H6 H 0.9754 0.7585 0.0691
C8 C 1.0041(4) 0.72731(13) 0.2113(4)
C9 C 1.0175(4) 0.75986(14) 0.3021(4)
H7 H 1.0307 0.7244 0.3566
C10 C 1.0111(4) 0.84541(15) 0.3116(4)
H8 H 1.0200 0.8672 0.3724
Cd1 Cd 1.00164(5) 0.046060(18) 0.24802(6)
O1 O 0.9950(7) 0.0491(5) 0.3957(8)
O2 O 1.0064(7) 0.0509(5) 0.1003(8)
N3 N 0.1481(7) -0.0411(5) -0.1579(9)
C11 C 0.8037(7) 0.1022(8) 0.0803(7)
H9 H 0.8296 0.1418 0.0628
N4 N 0.5475(5) -0.0081(8) 0.0257(7)
N5 N 0.4604(6) 0.0093(6) -0.0252(7)
C12 C 0.1881(6) 0.0156(6) -0.1786(8)
H10 H 0.1556 0.0578 -0.2254
N6 N 0.8515(8) 0.0403(5) 0.1518(10)
C13 C 0.7184(7) 0.1043(9) 0.0361(9)
H11 H 0.6859 0.1467 -0.0104
C14 C 0.6791(6) 0.0437(5) 0.0596(9)
C15 C 0.4249(9) -0.0524(8) -0.0121(12)
H12 H 0.4553 -0.0998 0.0247
C16 C 0.2755(8) 0.0159(9) -0.1348(10)
H13 H 0.2986 0.0564 -0.1551
C17 C 0.7271(6) -0.0196(8) 0.1312(8)
H14 H 0.7016 -0.0606 0.1473
C18 C 0.8138(7) -0.0186(9) 0.1768(9)
H15 H 0.8474 -0.0590 0.2258
C19 C 0.5899(8) 0.0472(6) 0.0141(10)
H16 H 0.5604 0.0931 -0.0271
C20 C 0.3295(10) -0.0440(6) -0.0604(10)
C21 C 0.1977(5) -0.0952(6) -0.0863(8)
H17 H 0.1719 -0.1339 -0.0676
C22 C 0.2881(5) -0.1005(7) -0.0341(8)
H18 H 0.3189 -0.1408 0.0165
C23 C 1.0182(8) 0.4561(5) 0.2294(8)
N7 N 1.0176(12) 0.5898(5) 0.2691(11)
N8 N 0.999(3) 0.5032(6) 0.2553(15)
C24 C 1.0093(6) 0.6373(5) 0.2015(7)
H19 H 1.0063 0.6156 0.1441
N2_2 N 0.9913(3) -0.10158(13) 0.2302(3)
Cd1_2 Cd 1.00164(5) 1.046060(18) 0.24802(6)
Cd1A Cd 0.00164(5) -0.046060(18) -0.25198(6)
N3A N 1.1481(7) 0.0411(5) 0.3421(9)
Cl1 Cl 0.1564(3) 0.2017(3) 0.6045(4)
O3 O 0.2363(7) 0.2031(10) 0.6209(10)
O4 O 0.0969(7) 0.2288(8) 0.5108(11)
O5 O 0.1349(6) 0.2751(6) 0.6426(7)
O6 O 0.1226(12) 0.1185(9) 0.5967(11)
O7 O 0.4081(7) 0.7287(7) 1.0067(9)
Cl2 Cl 0.3536(3) 0.7038(3) 0.8997(3)
O8 O 0.2660(8) 0.6969(8) 0.8718(10)
O9 O 0.3853(9) 0.6173(8) 0.9063(9)
O10 O 0.3301(17) 0.7066(15) 0.795(2)
C25 C 0.8519(4) 0.8960(6) 0.8803(6)
H20 H 0.9069 0.9084 0.9430
H21 H 0.8538 0.9119 0.8214
C26 C 0.7756(13) 0.7960(14) 0.9128(13)
H22 H 0.8066 0.7812 0.9856
H23 H 0.7310 0.7553 0.8724
O11 O 0.8347(11) 0.8040(10) 0.8756(12)
C27 C 0.7867(11) 0.9441(11) 0.8795(16)
H24 H 0.7777 1.0015 0.8714
C28 C 0.7403(15) 0.8842(14) 0.894(2)
H25 H 0.6824 0.8837 0.8326
H26 H 0.7381 0.9009 0.9520
loop_
_geom_bond_atom_site_label_1
_geom_bond_atom_site_label_2
_geom_bond_site_symmetry_1
_geom_bond_site_symmetry_2
N1 C1 1_555 1_555
C1 H1 1_555 1_555
C2 C1 1_555 1_555
H2 C2 1_555 1_555
C3 C2 1_555 1_555
C4 C3 1_555 1_555
H3 C4 1_555 1_555
C5 N1 1_555 1_555
H4 C5 1_555 1_555
N2 C6 1_555 1_555
C6 H5 1_555 1_555
C7 C6 1_555 1_555
H6 C7 1_555 1_555
C8 C7 1_555 1_555
C9 C8 1_555 1_555
H7 C9 1_555 1_555
C10 N2 1_555 1_555
H8 C10 1_555 1_555
Cd1 N1 1_555 1_555
O1 Cd1 1_555 1_555
O2 Cd1 1_555 1_555
N3 C12 1_555 1_555
C11 H9 1_555 1_555
N4 N5 1_555 1_555
N5 C15 1_555 1_555
C12 H10 1_555 1_555
N6 Cd1 1_555 1_555
C13 C11 1_555 1_555
H11 C13 1_555 1_555
C14 C13 1_555 1_555
C15 H12 1_555 1_555
C16 C12 1_555 1_555
H13 C16 1_555 1_555
C17 C14 1_555 1_555
H14 C17 1_555 1_555
C18 N6 1_555 1_555
H15 C18 1_555 1_555
C19 N4 1_555 1_555
H16 C19 1_555 1_555
C20 C15 1_555 1_555
C21 N3 1_555 1_555
H17 C21 1_555 1_555
C22 C20 1_555 1_555
H18 C22 1_555 1_555
C23 C3 1_555 1_555
N7 N8 1_555 1_555
N8 C23 1_555 1_555
C24 C8 1_555 1_555
H19 C24 1_555 1_555
Cl1 O3 1_555 1_555
O4 Cl1 1_555 1_555
O5 Cl1 1_555 1_555
O6 Cl1 1_555 1_555
O7 Cl2 1_555 1_555
Cl2 O8 1_555 1_555
O9 Cl2 1_555 1_555
O10 Cl2 1_555 1_555
C25 H20 1_555 1_555
H21 C25 1_555 1_555
C26 H22 1_555 1_555
H23 C26 1_555 1_555
O11 C25 1_555 1_555
C27 C25 1_555 1_555
H24 C27 1_555 1_555
C28 C26 1_555 1_555
H25 C28 1_555 1_555
H26 C28 1_555 1_555
N2_2 Cd1 1_555 1_555
Cd1_2 N2 1_555 1_555
Cd1A N3 1_555 1_555
N3A Cd1 1_555 1_555
C4 C5 1_555 1_555
C9 C10 1_555 1_555
C11 N6 1_555 1_555
C14 C19 1_555 1_555
C16 C20 1_555 1_555
C17 C18 1_555 1_555
C21 C22 1_555 1_555
N7 C24 1_555 1_555
C26 O11 1_555 1_555
C27 C28 1_555 1_555

#END
