
#######################################################################
#
#                 Cambridge Crystallographic Data Centre
#                                CCDC 
#
#######################################################################
#
# If this CIF has been generated from an entry in the Cambridge 
# Structural Database, then it will include bibliographic, chemical, 
# crystal, experimental, refinement or atomic coordinate data resulting 
# from the CCDC's data processing and validation procedures.
#
#######################################################################

data_SUBTEQ
_symmetry_cell_setting           triclinic
_symmetry_space_group_name_H-M   'P -1'
_symmetry_Int_Tables_number      2
_space_group_name_Hall           '-P 1'
loop_
_symmetry_equiv_pos_site_id
_symmetry_equiv_pos_as_xyz
1 x,y,z
2 -x,-y,-z
_cell_length_a                   14.1475(7)
_cell_length_b                   14.2138(7)
_cell_length_c                   14.2205(8)
_cell_angle_alpha                71.475(5)
_cell_angle_beta                 63.479(5)
_cell_angle_gamma                86.375(4)
_cell_volume                     2415.66
loop_
_atom_site_label
_atom_site_type_symbol
_atom_site_fract_x
_atom_site_fract_y
_atom_site_fract_z
O23 O 0.425(2) 0.470(2) 0.726(3)
H29 H 0.3950 0.4766 0.6843
H30 H 0.3973 0.5068 0.7671
U1 U 0.74985(4) 0.49347(3) 0.48674(4)
U2 U 0.80706(7) 0.48091(4) -0.00424(5)
O1 O 1.2386(10) 1.0140(8) 0.0904(9)
O2 O 1.2446(8) 0.9245(7) -0.0143(8)
O3 O 1.4765(7) 0.9103(6) -0.0885(7)
O4 O 0.6409(9) 0.4827(7) 0.4600(8)
O5 O 1.3077(7) 0.7411(6) 0.0333(7)
O6 O 0.6537(10) 0.4625(9) -0.0392(10)
H1 H 0.6225 0.5158 -0.0418
H2 H 0.6107 0.4139 0.0132
N1 N 0.6808(8) 0.3310(8) 0.6448(9)
O7 O 0.8636(9) 0.5576(7) 0.2872(8)
O8 O 1.1658(9) 0.6382(8) 0.0964(9)
O9 O 0.7926(9) 0.6663(7) 0.3730(7)
N2 N 0.8173(9) 0.3387(8) 0.4315(9)
N3 N 1.4066(9) 1.0657(8) -0.2367(10)
O10 O 1.3099(7) 0.8442(8) -0.1870(7)
N4 N 1.5298(9) 0.9454(9) -0.3471(9)
O11 O 0.5455(10) 0.6546(11) 0.9617(9)
C1 C 0.6125(10) 0.3263(10) 0.7483(11)
H3 H 0.5925 0.3856 0.7630
C2 C 0.7864(10) 0.2484(10) 0.5137(11)
C3 C 0.8233(11) 0.1597(11) 0.4909(12)
C4 C 1.3543(12) 1.1285(12) -0.1821(14)
H4 H 1.3100 1.1013 -0.1064
C5 C 0.7860(11) 0.0662(11) 0.5807(12)
H5 H 0.8117 0.0080 0.5660
C6 C 1.3611(13) 1.2319(12) -0.2303(14)
H6 H 1.3220 1.2714 -0.1877
C7 C 0.8846(12) 0.3420(12) 0.3300(12)
H7 H 0.9075 0.4038 0.2747
C8 C 0.7149(11) 0.0601(10) 0.6856(12)
H8 H 0.6910 -0.0015 0.7412
C9 C 0.6767(10) 0.1504(10) 0.7101(11)
O12 O 0.9696(9) 0.9385(7) 0.4526(9)
C10 C 1.6090(12) 1.0829(13) -0.5185(12)
C11 C 1.0260(11) 0.7085(10) 0.3897(11)
H9 H 0.9880 0.6608 0.4587
C12 C 1.1503(10) 0.7494(10) 0.1945(10)
C13 C 0.6026(10) 0.1492(9) 0.8169(11)
H10 H 0.5765 0.0889 0.8746
C14 C 0.5691(11) 0.2362(10) 0.8364(11)
H11 H 0.5185 0.2360 0.9063
C15 C 1.4735(13) 1.1068(11) -0.3464(12)
C16 C 1.6152(14) 1.1883(13) -0.5752(13)
H12 H 1.6601 1.2145 -0.6509
O13 O 0.6538(8) 0.5672(8) 0.6150(8)
C17 C 1.5383(11) 1.0416(11) -0.4033(11)
C18 C 0.8496(11) 0.6474(11) 0.2841(11)
C19 C 1.1499(10) 0.8510(9) 0.1836(11)
C20 C 0.8380(12) 0.8250(11) 0.6678(12)
H13 H 0.8843 0.8716 0.6634
C21 C 1.0840(11) 0.8784(10) 0.2755(11)
H14 H 1.0814 0.9457 0.2684
C22 C 1.0883(10) 0.6786(9) 0.2966(11)
H15 H 1.0880 0.6114 0.3033
C23 C 0.8629(11) 0.7906(11) 0.5785(11)
C24 C 1.0210(11) 0.8079(9) 0.3789(11)
C25 C 0.7985(10) 0.7154(10) 0.5877(11)
H16 H 0.8180 0.6904 0.5292
C26 C 0.7041(11) 0.6770(11) 0.6850(12)
C27 C 1.4264(13) 1.2735(11) -0.3410(15)
H17 H 1.4325 1.3421 -0.3750
C28 C 0.9534(11) 0.8510(11) 0.4696(11)
U3 U 1.39216(3) 0.87470(3) -0.13512(3)
C29 C 1.4845(12) 1.2122(11) -0.4034(13)
O14 O 0.5629(12) 0.5527(9) 0.7919(11)
O15 O 0.4959(8) 0.7445(7) 0.8352(8)
O16 O 0.8651(14) 0.5725(9) -0.1343(11)
C30 C 0.6757(12) 0.7173(11) 0.7708(11)
C31 C 1.2123(10) 0.7077(9) 0.1001(10)
C32 C 0.5636(12) 0.7003(11) 0.8654(12)
C33 C 0.8932(12) 0.1666(13) 0.3806(13)
H18 H 0.9185 0.1096 0.3623
C34 C 0.6351(12) 0.5942(11) 0.6997(13)
C35 C 0.7434(11) 0.7886(12) 0.7630(11)
H19 H 0.7251 0.8124 0.8221
C36 C 1.6607(12) 0.9198(13) -0.5130(12)
H20 H 1.7015 0.8756 -0.5474
C37 C 1.6707(12) 1.0182(14) -0.5716(12)
H21 H 1.7185 1.0420 -0.6466
C38 C 1.0000(14) 0.8021(10) -0.0193(7)
H22 H 1.0355 0.7941 -0.0889
C39 C 0.9521(12) 0.7193(7) 0.0752(9)
C40 C 0.8991(8) 0.7313(5) 0.1792(7)
C41 C 0.8942(9) 0.8260(7) 0.1888(7)
H23 H 0.8587 0.8340 0.2584
C42 C 0.9421(12) 0.9088(5) 0.0943(10)
C43 C 0.9951(14) 0.8968(8) -0.0097(8)
O17 O 0.7453(15) 0.3902(10) 0.1267(12)
O18 O 0.8690(16) 0.5850(11) 0.0630(15)
C44 C 1.5565(15) 1.2492(14) -0.5194(13)
H24 H 1.5629 1.3170 -0.5574
C45 C 0.9232(14) 0.2577(13) 0.3013(13)
H25 H 0.9695 0.2636 0.2279
C46 C 1.2171(12) 0.9361(11) 0.0807(12)
C47 C 1.5883(11) 0.8860(12) -0.4005(11)
H26 H 1.5811 0.8184 -0.3614
O19 O 1.0309(17) 0.5827(14) 0.0232(19)
C48 C 0.7125(10) 0.2432(10) 0.6255(10)
C49 C 0.948(2) 0.6183(13) 0.0554(14)
O20 O 0.898(2) 1.0206(15) 0.1941(17)
O21 O 0.676(2) 0.5911(14) 0.0644(15)
H27 H 0.6115 0.5797 0.0623
H28 H 0.6970 0.6598 0.0240
C50 C 0.941(3) 1.011(2) 0.103(2)
O22 O 0.8594(8) 0.4986(8) 0.5134(8)
O7A O 1.1364(9) 1.4424(7) -0.2872(8)
O9A O 1.2074(9) 1.3337(7) -0.3730(7)
C18A C 1.1504(11) 1.3526(11) -0.2841(11)
C38A C 1.0000(14) 1.1979(10) 0.0193(7)
H22A H 0.9645 1.2059 0.0889
C39A C 1.0479(12) 1.2807(7) -0.0752(9)
C40A C 1.1009(8) 1.2687(5) -0.1792(7)
C41A C 1.1058(9) 1.1740(7) -0.1888(7)
H23A H 1.1413 1.1660 -0.2584
C42A C 1.0579(12) 1.0912(5) -0.0943(10)
C43A C 1.0049(14) 1.1032(8) 0.0097(8)
O18A O 1.1310(16) 1.4150(11) -0.0630(15)
O19A O 0.9691(17) 1.4173(14) -0.0232(19)
C49A C 1.052(2) 1.3817(13) -0.0554(14)
O20A O 1.102(2) 0.9794(15) -0.1941(17)
C50A C 1.059(3) 0.989(2) -0.103(2)
U1A U 1.25015(4) 0.50653(3) -0.48674(4)
U2A U 1.19294(7) 0.51909(4) 0.00424(5)
O1A O 0.7614(10) -0.0140(8) -0.0904(9)
O2A O 0.7554(8) 0.0755(7) 0.0143(8)
O3A O 0.5235(7) 0.0897(6) 0.0885(7)
O4A O 1.3591(9) 0.5173(7) -0.4600(8)
O5A O 0.6923(7) 0.2589(6) -0.0333(7)
O6A O 1.3463(10) 0.5375(9) 0.0392(10)
H1A H 1.3775 0.4842 0.0418
H2A H 1.3893 0.5861 -0.0132
N1A N 1.3192(8) 0.6690(8) -0.6448(9)
O8A O 0.8342(9) 0.3618(8) -0.0964(9)
N2A N 1.1827(9) 0.6613(8) -0.4315(9)
N3A N 0.5934(9) -0.0657(8) 0.2367(10)
O10A O 0.6901(7) 0.1558(8) 0.1870(7)
N4A N 0.4702(9) 0.0546(9) 0.3471(9)
O11A O 1.4545(10) 0.3454(11) -0.9617(9)
C1A C 1.3875(10) 0.6737(10) -0.7483(11)
H3A H 1.4075 0.6144 -0.7630
C2A C 1.2136(10) 0.7516(10) -0.5137(11)
C3A C 1.1767(11) 0.8403(11) -0.4909(12)
C4A C 0.6457(12) -0.1285(12) 0.1821(14)
H4A H 0.6900 -0.1013 0.1064
C5A C 1.2140(11) 0.9338(11) -0.5807(12)
H5A H 1.1883 0.9920 -0.5660
C6A C 0.6389(13) -0.2319(12) 0.2303(14)
H6A H 0.6780 -0.2714 0.1877
C7A C 1.1154(12) 0.6580(12) -0.3300(12)
H7A H 1.0925 0.5962 -0.2747
C8A C 1.2851(11) 0.9399(10) -0.6856(12)
H8A H 1.3090 1.0015 -0.7412
C9A C 1.3233(10) 0.8496(10) -0.7101(11)
O12A O 1.0304(9) 0.0615(7) -0.4526(9)
C10A C 0.3910(12) -0.0829(13) 0.5185(12)
C11A C 0.9740(11) 0.2915(10) -0.3897(11)
H9A H 1.0120 0.3392 -0.4587
C12A C 0.8497(10) 0.2506(10) -0.1945(10)
C13A C 1.3974(10) 0.8508(9) -0.8169(11)
H10A H 1.4235 0.9111 -0.8746
C14A C 1.4309(11) 0.7638(10) -0.8364(11)
H11A H 1.4815 0.7640 -0.9063
C15A C 0.5265(13) -0.1068(11) 0.3464(12)
C16A C 0.3848(14) -0.1883(13) 0.5752(13)
H12A H 0.3399 -0.2145 0.6509
O13A O 1.3462(8) 0.4328(8) -0.6150(8)
C17A C 0.4617(11) -0.0416(11) 0.4033(11)
C19A C 0.8501(10) 0.1490(9) -0.1836(11)
C20A C 1.1620(12) 0.1750(11) -0.6678(12)
H13A H 1.1157 0.1284 -0.6634
C21A C 0.9160(11) 0.1216(10) -0.2755(11)
H14A H 0.9186 0.0543 -0.2684
C22A C 0.9117(10) 0.3214(9) -0.2966(11)
H15A H 0.9120 0.3886 -0.3033
C23A C 1.1371(11) 0.2094(11) -0.5785(11)
C24A C 0.9790(11) 0.1921(9) -0.3789(11)
C25A C 1.2015(10) 0.2846(10) -0.5877(11)
H16A H 1.1820 0.3096 -0.5292
C26A C 1.2959(11) 0.3230(11) -0.6850(12)
C27A C 0.5736(13) -0.2735(11) 0.3410(15)
H17A H 0.5675 -0.3421 0.3750
C28A C 1.0466(11) 0.1490(11) -0.4696(11)
U3A U 0.60784(3) 0.12530(3) 0.13512(3)
C29A C 0.5155(12) -0.2122(11) 0.4034(13)
O14A O 1.4371(12) 0.4473(9) -0.7919(11)
O15A O 1.5041(8) 0.2555(7) -0.8352(8)
O16A O 1.1349(14) 0.4275(9) 0.1343(11)
C30A C 1.3243(12) 0.2827(11) -0.7708(11)
C31A C 0.7877(10) 0.2923(9) -0.1001(10)
C32A C 1.4364(12) 0.2997(11) -0.8654(12)
C33A C 1.1068(12) 0.8334(13) -0.3806(13)
H18A H 1.0815 0.8904 -0.3623
C34A C 1.3649(12) 0.4058(11) -0.6997(13)
C35A C 1.2566(11) 0.2114(12) -0.7630(11)
H19A H 1.2749 0.1876 -0.8221
C36A C 0.3393(12) 0.0802(13) 0.5130(12)
H20A H 0.2985 0.1244 0.5474
C37A C 0.3293(12) -0.0182(14) 0.5716(12)
H21A H 0.2815 -0.0420 0.6466
O17A O 1.2547(15) 0.6098(10) -0.1267(12)
C44A C 0.4435(15) -0.2492(14) 0.5194(13)
H24A H 0.4371 -0.3170 0.5574
C45A C 1.0768(14) 0.7423(13) -0.3013(13)
H25A H 1.0305 0.7364 -0.2279
C46A C 0.7829(12) 0.0639(11) -0.0807(12)
C47A C 0.4117(11) 0.1140(12) 0.4005(11)
H26A H 0.4189 0.1816 0.3614
C48A C 1.2875(10) 0.7568(10) -0.6255(10)
O21A O 1.324(2) 0.4089(14) -0.0644(15)
H27A H 1.3885 0.4203 -0.0623
H28A H 1.3030 0.3402 -0.0240
O22A O 1.1406(8) 0.5014(8) -0.5134(8)
U1A_2 U 1.25015(4) 1.50653(3) -0.48674(4)
U2_2 U 0.80706(7) 1.48091(4) -0.00424(5)
U2A_2 U 1.19294(7) 1.51909(4) 0.00424(5)
O7A_2 O 1.1364(9) 0.4424(7) -0.2872(8)
O9A_2 O 1.2074(9) 0.3337(7) -0.3730(7)
U3_2 U 0.39216(3) 0.87470(3) 0.86488(3)
U3A_2 U 1.60784(3) 0.12530(3) -0.86488(3)
O15_2 O 1.4959(8) 0.7445(7) -0.1648(8)
O15A_2 O 0.5041(8) 0.2555(7) 0.1648(8)
O18A_2 O 1.1310(16) 0.4150(11) -0.0630(15)
O19A_2 O 0.9691(17) 0.4173(14) -0.0232(19)
loop_
_geom_bond_atom_site_label_1
_geom_bond_atom_site_label_2
_geom_bond_site_symmetry_1
_geom_bond_site_symmetry_2
U1 O4 1_555 1_555
U2 O6 1_555 1_555
O1 C46 1_555 1_555
O2 U3 1_555 1_555
O3 U3 1_555 1_555
O5 U3 1_555 1_555
O6 H1 1_555 1_555
H2 O6 1_555 1_555
N1 U1 1_555 1_555
O7 U1 1_555 1_555
O8 C31 1_555 1_555
O9 U1 1_555 1_555
N2 U1 1_555 1_555
N3 C4 1_555 1_555
O10 U3 1_555 1_555
N4 C17 1_555 1_555
O11 C32 1_555 1_555
C1 N1 1_555 1_555
H3 C1 1_555 1_555
C2 N2 1_555 1_555
C3 C2 1_555 1_555
C4 H4 1_555 1_555
C5 C3 1_555 1_555
H5 C5 1_555 1_555
C6 C4 1_555 1_555
H6 C6 1_555 1_555
C7 N2 1_555 1_555
H7 C7 1_555 1_555
C8 C5 1_555 1_555
H8 C8 1_555 1_555
C9 C8 1_555 1_555
O12 C28 1_555 1_555
C10 C16 1_555 1_555
C11 H9 1_555 1_555
C12 C19 1_555 1_555
C13 C9 1_555 1_555
H10 C13 1_555 1_555
C14 C1 1_555 1_555
H11 C14 1_555 1_555
C15 N3 1_555 1_555
C16 H12 1_555 1_555
O13 U1 1_555 1_555
C17 C10 1_555 1_555
C18 O7 1_555 1_555
C19 C21 1_555 1_555
C20 H13 1_555 1_555
C21 H14 1_555 1_555
C22 C11 1_555 1_555
H15 C22 1_555 1_555
C23 C20 1_555 1_555
C24 C11 1_555 1_555
C25 C23 1_555 1_555
H16 C25 1_555 1_555
C26 C25 1_555 1_555
C27 C6 1_555 1_555
H17 C27 1_555 1_555
C28 C23 1_555 1_555
U3 N3 1_555 1_555
C29 C15 1_555 1_555
O14 C34 1_555 1_555
O15 C32 1_555 1_555
O16 U2 1_555 1_555
C30 C26 1_555 1_555
C31 O5 1_555 1_555
C32 C30 1_555 1_555
C33 C3 1_555 1_555
H18 C33 1_555 1_555
C34 O13 1_555 1_555
C35 C20 1_555 1_555
H19 C35 1_555 1_555
C36 H20 1_555 1_555
C37 C10 1_555 1_555
H21 C37 1_555 1_555
C38 H22 1_555 1_555
C39 C38 1_555 1_555
C40 C18 1_555 1_555
C41 C40 1_555 1_555
H23 C41 1_555 1_555
C42 C41 1_555 1_555
C43 C38 1_555 1_555
O17 U2 1_555 1_555
O18 U2 1_555 1_555
C44 C16 1_555 1_555
H24 C44 1_555 1_555
C45 C7 1_555 1_555
H25 C45 1_555 1_555
C46 O2 1_555 1_555
C47 N4 1_555 1_555
H26 C47 1_555 1_555
O19 C49 1_555 1_555
C48 N1 1_555 1_555
C49 C39 1_555 1_555
O20 C50 1_555 1_555
O21 U2 1_555 1_555
H27 O21 1_555 1_555
H28 O21 1_555 1_555
C50 C42 1_555 1_555
O22 U1 1_555 1_555
O23 H29 1_555 1_555
H30 O23 1_555 1_555
O7A C18A 1_555 1_555
O9A C18A 1_555 1_555
C18A C40A 1_555 1_555
C38A H22A 1_555 1_555
C39A C38A 1_555 1_555
C40A C39A 1_555 1_555
C41A C40A 1_555 1_555
H23A C41A 1_555 1_555
C42A C41A 1_555 1_555
C43A C50 1_555 1_555
O18A C49A 1_555 1_555
O19A C49A 1_555 1_555
C49A C39A 1_555 1_555
O20A C50A 1_555 1_555
C50A C43 1_555 1_555
U1A O4A 1_555 1_555
U2A O8 1_555 1_555
O1A C46A 1_555 1_555
O2A U3A 1_555 1_555
O3A U3A 1_555 1_555
O5A U3A 1_555 1_555
O6A U2A 1_555 1_555
H1A O6A 1_555 1_555
H2A O6A 1_555 1_555
N1A U1A 1_555 1_555
O8A U2 1_555 1_555
N2A U1A 1_555 1_555
N3A C4A 1_555 1_555
O10A U3A 1_555 1_555
N4A C17A 1_555 1_555
O11A C32A 1_555 1_555
C1A N1A 1_555 1_555
H3A C1A 1_555 1_555
C2A N2A 1_555 1_555
C3A C2A 1_555 1_555
C4A H4A 1_555 1_555
C5A C3A 1_555 1_555
H5A C5A 1_555 1_555
C6A C4A 1_555 1_555
H6A C6A 1_555 1_555
C7A N2A 1_555 1_555
H7A C7A 1_555 1_555
C8A C5A 1_555 1_555
H8A C8A 1_555 1_555
C9A C8A 1_555 1_555
O12A C28A 1_555 1_555
C10A C16A 1_555 1_555
C11A H9A 1_555 1_555
C12A C19A 1_555 1_555
C13A C9A 1_555 1_555
H10A C13A 1_555 1_555
C14A C1A 1_555 1_555
H11A C14A 1_555 1_555
C15A N3A 1_555 1_555
C16A H12A 1_555 1_555
O13A U1A 1_555 1_555
C17A C10A 1_555 1_555
C19A C21A 1_555 1_555
C20A H13A 1_555 1_555
C21A H14A 1_555 1_555
C22A C11A 1_555 1_555
H15A C22A 1_555 1_555
C23A C20A 1_555 1_555
C24A C11A 1_555 1_555
C25A C23A 1_555 1_555
H16A C25A 1_555 1_555
C26A C25A 1_555 1_555
C27A C6A 1_555 1_555
H17A C27A 1_555 1_555
C28A C23A 1_555 1_555
U3A N3A 1_555 1_555
C29A C15A 1_555 1_555
O14A C34A 1_555 1_555
O15A C32A 1_555 1_555
O16A U2A 1_555 1_555
C30A C26A 1_555 1_555
C31A O5A 1_555 1_555
C32A C30A 1_555 1_555
C33A C3A 1_555 1_555
H18A C33A 1_555 1_555
C34A O13A 1_555 1_555
C35A C20A 1_555 1_555
H19A C35A 1_555 1_555
C36A H20A 1_555 1_555
C37A C10A 1_555 1_555
H21A C37A 1_555 1_555
O17A U2A 1_555 1_555
C44A C16A 1_555 1_555
H24A C44A 1_555 1_555
C45A C7A 1_555 1_555
H25A C45A 1_555 1_555
C46A O2A 1_555 1_555
C47A N4A 1_555 1_555
H26A C47A 1_555 1_555
C48A N1A 1_555 1_555
O21A U2A 1_555 1_555
H27A O21A 1_555 1_555
H28A O21A 1_555 1_555
O22A U1A 1_555 1_555
U1A_2 O7A 1_555 1_555
U2_2 O19A 1_555 1_555
U2A_2 O18A 1_555 1_555
O7A_2 U1A 1_555 1_555
O9A_2 U1A 1_555 1_555
U3_2 O15 1_555 1_555
U3A_2 O15A 1_555 1_555
O15_2 U3 1_555 1_555
O15A_2 U3A 1_555 1_555
O18A_2 U2A 1_555 1_555
O19A_2 U2 1_555 1_555
O9 C18 1_555 1_555
N4 U3 1_555 1_555
C2 C48 1_555 1_555
C9 C48 1_555 1_555
C12 C22 1_555 1_555
C12 C31 1_555 1_555
C13 C14 1_555 1_555
C15 C17 1_555 1_555
C19 C46 1_555 1_555
C21 C24 1_555 1_555
C24 C28 1_555 1_555
C26 C34 1_555 1_555
C27 C29 1_555 1_555
C29 C44 1_555 1_555
C30 C35 1_555 1_555
C33 C45 1_555 1_555
C36 C37 1_555 1_555
C36 C47 1_555 1_555
C39 C40 1_555 1_555
C42 C43 1_555 1_555
O18 C49 1_555 1_555
O19 U2A 1_555 1_555
O9A U1A_2 1_555 1_555
C38A C43A 1_555 1_555
C42A C43A 1_555 1_555
C42A C50A 1_555 1_555
O8A C31A 1_555 1_555
N4A U3A 1_555 1_555
C2A C48A 1_555 1_555
C9A C48A 1_555 1_555
C12A C22A 1_555 1_555
C12A C31A 1_555 1_555
C13A C14A 1_555 1_555
C15A C17A 1_555 1_555
C19A C46A 1_555 1_555
C21A C24A 1_555 1_555
C24A C28A 1_555 1_555
C26A C34A 1_555 1_555
C27A C29A 1_555 1_555
C29A C44A 1_555 1_555
C30A C35A 1_555 1_555
C33A C45A 1_555 1_555
C36A C37A 1_555 1_555
C36A C47A 1_555 1_555

#END
