
#######################################################################
#
#                 Cambridge Crystallographic Data Centre
#                                CCDC 
#
#######################################################################
#
# If this CIF has been generated from an entry in the Cambridge 
# Structural Database, then it will include bibliographic, chemical, 
# crystal, experimental, refinement or atomic coordinate data resulting 
# from the CCDC's data processing and validation procedures.
#
#######################################################################

data_SUBTAM
_symmetry_cell_setting           triclinic
_symmetry_space_group_name_H-M   'P -1'
_symmetry_Int_Tables_number      2
_space_group_name_Hall           '-P 1'
loop_
_symmetry_equiv_pos_site_id
_symmetry_equiv_pos_as_xyz
1 x,y,z
2 -x,-y,-z
_cell_length_a                   9.6640(19)
_cell_length_b                   11.505(2)
_cell_length_c                   14.704(3)
_cell_angle_alpha                83.42(3)
_cell_angle_beta                 74.84(3)
_cell_angle_gamma                84.16(3)
_cell_volume                     1563.17
loop_
_atom_site_label
_atom_site_type_symbol
_atom_site_fract_x
_atom_site_fract_y
_atom_site_fract_z
U1 U 0.51304(2) 0.639562(16) 0.631940(12)
O1 O 0.3329(5) 0.6831(4) 0.6920(3)
O2 O 0.6894(5) 0.5900(4) 0.5715(3)
O3 O 0.3241(5) 0.9271(4) 0.5425(3)
O4 O 0.5369(5) 0.5376(4) -0.2233(3)
O5 O 0.6046(5) 0.7606(4) -0.2859(3)
O6 O 0.4184(4) 0.6340(3) 0.4959(3)
O7 O 0.8035(5) 0.7429(4) -0.2332(3)
O8 O 0.5483(5) 0.5568(3) 0.3639(3)
O9 O 0.5315(5) 0.8167(3) 0.5372(3)
O10 O 0.6327(5) 0.9623(4) 0.0523(3)
O11 O 0.3285(5) 0.5022(4) -0.1169(3)
C1 C 0.4200(7) 0.7156(6) 0.0682(4)
H1 H 0.3643 0.7153 0.1303
C2 C 0.5298(7) 0.7912(5) 0.0359(4)
C3 C 0.4575(7) 0.9710(6) 0.3393(4)
H2 H 0.4346 1.0409 0.3678
C4 C 0.4570(6) 0.8654(5) 0.3949(4)
C5 C 0.6739(7) 0.7378(5) -0.2214(4)
C6 C 0.3931(7) 0.6406(5) 0.0084(4)
H3 H 0.3210 0.5891 0.0314
C7 C 0.5822(7) 0.7188(5) -0.1202(4)
C8 C 0.5133(6) 0.7613(5) 0.2536(4)
H4 H 0.5294 0.6915 0.2249
C9 C 0.4314(7) 0.8700(5) 0.5009(4)
C10 C 0.4838(6) 0.6420(5) 0.4082(4)
C11 C 0.5169(7) 0.8676(5) 0.1988(4)
C12 C 0.4404(7) 0.5534(5) -0.1457(4)
C13 C 0.4856(6) 0.7584(5) 0.3524(4)
C14 C 0.5639(7) 0.8795(6) 0.0914(4)
C15 C 0.6101(7) 0.7902(5) -0.0578(4)
H5 H 0.6852 0.8391 -0.0794
C16 C 0.4727(7) 0.6414(5) -0.0860(4)
C17 C 0.4917(7) 0.9734(5) 0.2419(4)
H6 H 0.4982 1.0448 0.2049
U1_2 U 0.51304(2) 0.639562(16) -0.368060(12)
U1A U 0.48696(2) 0.360438(16) 0.368060(12)
O4_2 O 0.5369(5) 0.5376(4) 0.7767(3)
O5_2 O 0.6046(5) 0.7606(4) 0.7141(3)
O8A O 0.4517(5) 0.4432(3) 0.6361(3)
N1 N 0.0017(6) 0.5029(5) 0.7847(4)
H7 H 0.0006 0.5472 0.8282
N2 N 0.0071(6) 0.1640(5) 0.4155(4)
H8 H 0.0045 0.1212 0.3718
C18 C 0.0051(7) 0.3655(6) 0.6393(4)
C19 C 0.1317(7) 0.3894(6) 0.6590(4)
H9 H 0.2199 0.3597 0.6236
C20 C 0.1257(8) 0.4580(6) 0.7318(5)
H10 H 0.2113 0.4733 0.7443
C21 C -0.1219(8) 0.4769(6) 0.7678(5)
H11 H -0.2087 0.5047 0.8063
C22 C 0.1072(8) 0.1368(6) 0.4626(5)
H12 H 0.1751 0.0743 0.4467
C23 C 0.1108(7) 0.2019(6) 0.5360(4)
H13 H 0.1804 0.1830 0.5697
C24 C -0.0904(7) 0.2556(6) 0.4332(4)
H14 H -0.1569 0.2734 0.3970
C25 C -0.0922(7) 0.3236(6) 0.5053(4)
H15 H -0.1599 0.3870 0.5182
C26 C 0.0087(7) 0.2958(6) 0.5584(4)
C27 C -0.1248(7) 0.4102(6) 0.6954(4)
H16 H -0.2117 0.3957 0.6845
N3 N 0.9937(6) 0.3368(5) 1.0897(4)
N4 N 1.0016(6) -0.0254(5) 0.7302(4)
C28 C 0.9982(7) 0.1155(6) 0.8756(4)
C29 C 1.1208(8) 0.0174(6) 0.7380(5)
H17 H 1.2065 -0.0010 0.6939
C30 C 0.9966(7) 0.1921(6) 0.9514(4)
C31 C 0.8944(7) 0.1834(6) 1.0389(4)
H18 H 0.8261 0.1284 1.0512
C32 C 1.1250(7) 0.0877(6) 0.8079(4)
H19 H 1.2111 0.1159 0.8096
C33 C 1.0980(7) 0.2759(6) 0.9366(5)
H20 H 1.1682 0.2834 0.8797
C34 C 0.8956(7) 0.2567(6) 1.1068(4)
H21 H 0.8280 0.2507 1.1649
C35 C 1.0927(7) 0.3474(6) 1.0071(4)
H22 H 1.1591 0.4037 0.9969
C36 C 0.8813(8) 0.0024(6) 0.7945(5)
H23 H 0.7967 -0.0257 0.7899
C37 C 0.8730(7) 0.0708(6) 0.8685(4)
H24 H 0.7859 0.0863 0.9122
loop_
_geom_bond_atom_site_label_1
_geom_bond_atom_site_label_2
_geom_bond_site_symmetry_1
_geom_bond_site_symmetry_2
U1 O1 1_555 1_555
O2 U1 1_555 1_555
O3 C9 1_555 1_555
O4 C12 1_555 1_555
O5 C5 1_555 1_555
O6 U1 1_555 1_555
O7 C5 1_555 1_555
O8 C10 1_555 1_555
O9 U1 1_555 1_555
O10 C14 1_555 1_555
O11 C12 1_555 1_555
C1 H1 1_555 1_555
C2 C1 1_555 1_555
C3 H2 1_555 1_555
C4 C3 1_555 1_555
C5 C7 1_555 1_555
C6 C1 1_555 1_555
H3 C6 1_555 1_555
C7 C15 1_555 1_555
C8 H4 1_555 1_555
C9 O9 1_555 1_555
C10 O6 1_555 1_555
C11 C8 1_555 1_555
C12 C16 1_555 1_555
C13 C4 1_555 1_555
C14 C2 1_555 1_555
C15 C2 1_555 1_555
H5 C15 1_555 1_555
C16 C6 1_555 1_555
C17 C3 1_555 1_555
H6 C17 1_555 1_555
N1 H7 1_555 1_555
N2 H8 1_555 1_555
C18 C19 1_555 1_555
C19 H9 1_555 1_555
C20 N1 1_555 1_555
H10 C20 1_555 1_555
C21 N1 1_555 1_555
H11 C21 1_555 1_555
C22 N2 1_555 1_555
H12 C22 1_555 1_555
C23 C22 1_555 1_555
H13 C23 1_555 1_555
C24 N2 1_555 1_555
H14 C24 1_555 1_555
C25 C24 1_555 1_555
H15 C25 1_555 1_555
C26 C18 1_555 1_555
C27 C18 1_555 1_555
H16 C27 1_555 1_555
N3 C34 1_555 1_555
N4 C29 1_555 1_555
C28 C30 1_555 1_555
C29 H17 1_555 1_555
C30 C31 1_555 1_555
C31 H18 1_555 1_555
C32 C28 1_555 1_555
H19 C32 1_555 1_555
C33 C30 1_555 1_555
H20 C33 1_555 1_555
C34 C31 1_555 1_555
H21 C34 1_555 1_555
C35 N3 1_555 1_555
H22 C35 1_555 1_555
C36 N4 1_555 1_555
H23 C36 1_555 1_555
C37 C28 1_555 1_555
H24 C37 1_555 1_555
U1_2 O4 1_555 1_555
U1A O8 1_555 1_555
O4_2 U1 1_555 1_555
O5_2 U1 1_555 1_555
O8A U1 1_555 1_555
O5 U1_2 1_555 1_555
C4 C9 1_555 1_555
C7 C16 1_555 1_555
C8 C13 1_555 1_555
C10 C13 1_555 1_555
C11 C14 1_555 1_555
C11 C17 1_555 1_555
C19 C20 1_555 1_555
C21 C27 1_555 1_555
C23 C26 1_555 1_555
C25 C26 1_555 1_555
C29 C32 1_555 1_555
C33 C35 1_555 1_555
C36 C37 1_555 1_555

#END
