
#######################################################################
#
#                 Cambridge Crystallographic Data Centre
#                                CCDC 
#
#######################################################################
#
# If this CIF has been generated from an entry in the Cambridge 
# Structural Database, then it will include bibliographic, chemical, 
# crystal, experimental, refinement or atomic coordinate data resulting 
# from the CCDC's data processing and validation procedures.
#
#######################################################################

data_SUBWIX
_symmetry_cell_setting           triclinic
_symmetry_space_group_name_H-M   'P -1'
_symmetry_Int_Tables_number      2
_space_group_name_Hall           '-P 1'
loop_
_symmetry_equiv_pos_site_id
_symmetry_equiv_pos_as_xyz
1 x,y,z
2 -x,-y,-z
_cell_length_a                   15.9870(15)
_cell_length_b                   18.7220(18)
_cell_length_c                   19.3040(19)
_cell_angle_alpha                116.971(2)
_cell_angle_beta                 91.384(2)
_cell_angle_gamma                90.880(2)
_cell_volume                     5145.68
loop_
_atom_site_label
_atom_site_type_symbol
_atom_site_fract_x
_atom_site_fract_y
_atom_site_fract_z
Nd1 Nd 0.75437(2) 0.15754(2) 0.81941(2)
O1 O 0.7901(3) 0.0394(2) 0.8359(2)
O2 O 0.8913(3) 0.1177(3) 0.7597(2)
O3 O 0.7208(3) 0.0395(2) 0.6919(2)
O4 O 0.6200(3) 0.1018(3) 0.8332(2)
O5 O 0.7724(3) 0.1894(2) 0.6991(2)
O6 O 0.8261(3) 0.3011(3) 0.7068(3)
O7 O 0.8122(3) 0.2855(2) 0.8111(3)
O8 O 0.6953(3) 0.2767(3) 0.9422(3)
O9 O 0.7368(3) 0.1807(3) 0.9664(3)
O10 O 0.6889(3) 0.2898(3) 1.0595(3)
O11 O 0.8761(3) 0.2312(3) 0.9124(3)
O12 O 0.6325(3) 0.2242(3) 0.7912(3)
N1 N 0.8481(3) 0.0285(3) 0.8804(3)
N2 N 0.9180(3) 0.0856(3) 0.6875(3)
N3 N 0.6601(3) 0.0285(3) 0.6397(3)
N4 N 0.5893(3) 0.0745(3) 0.8796(3)
N5 N 0.7070(3) 0.2500(3) 0.9906(3)
N6 N 0.8035(3) 0.2592(3) 0.7380(3)
C1 C 0.8285(4) -0.0159(4) 0.9171(4)
H1 H 0.7737 -0.0388 0.9108
C2 C 0.8869(4) -0.0284(4) 0.9634(4)
H2 H 0.8722 -0.0601 0.9884
C3 C 0.9682(4) 0.0051(3) 0.9742(3)
C4 C 0.9860(4) 0.0511(3) 0.9360(3)
H3 H 1.0400 0.0758 0.9427
C5 C 0.9261(4) 0.0612(3) 0.8886(3)
H4 H 0.9398 0.0913 0.8616
C6 C 0.9047(4) 0.0076(4) 0.6404(4)
H5 H 0.8737 -0.0245 0.6578
C7 C 0.9360(4) -0.0270(4) 0.5661(4)
H6 H 0.9255 -0.0825 0.5332
C8 C 0.9824(4) 0.0176(4) 0.5387(3)
C9 C 0.9936(4) 0.0991(4) 0.5903(4)
H7 H 1.0244 0.1327 0.5745
C10 C 0.9610(4) 0.1317(4) 0.6632(4)
H8 H 0.9689 0.1875 0.6966
C11 C 0.6755(4) -0.0124(3) 0.5629(3)
H9 H 0.7297 -0.0325 0.5471
C12 C 0.6135(4) -0.0251(3) 0.5078(3)
H10 H 0.6247 -0.0554 0.4543
C13 C 0.5341(4) 0.0058(3) 0.5292(3)
C14 C 0.5206(4) 0.0441(4) 0.6075(4)
H11 H 0.4664 0.0635 0.6243
C15 C 0.5829(4) 0.0558(3) 0.6630(3)
H12 H 0.5716 0.0826 0.7168
C16 C 0.5396(5) 0.1208(4) 0.9372(4)
H13 H 0.5288 0.1737 0.9452
C17 C 0.5043(5) 0.0929(4) 0.9845(4)
H14 H 0.4696 0.1270 1.0248
C18 C 0.5182(4) 0.0158(4) 0.9750(3)
C19 C 0.5714(4) -0.0305(3) 0.9146(3)
H15 H 0.5841 -0.0831 0.9062
C20 C 0.6049(4) -0.0011(3) 0.8680(3)
H16 H 0.6396 -0.0339 0.8269
H17 H 0.901(6) 0.263(5) 0.898(5)
H18 H 0.621(6) 0.225(7) 0.748(3)
H19 H 0.888(7) 0.251(6) 0.9615(18)
H20 H 0.584(3) 0.224(7) 0.810(5)
O1A O 1.2099(3) -0.0394(2) 1.1641(2)
N1A N 1.1519(3) -0.0285(3) 1.1196(3)
C1A C 1.1715(4) 0.0159(4) 1.0829(4)
H1A H 1.2263 0.0388 1.0892
C2A C 1.1131(4) 0.0284(4) 1.0366(4)
H2A H 1.1278 0.0601 1.0116
C3A C 1.0318(4) -0.0051(3) 1.0258(3)
C4A C 1.0140(4) -0.0511(3) 1.0640(3)
H3A H 0.9600 -0.0758 1.0573
C5A C 1.0739(4) -0.0612(3) 1.1114(3)
H4A H 1.0602 -0.0913 1.1384
O2A O 1.1087(3) -0.1177(3) 0.2403(2)
N2A N 1.0820(3) -0.0856(3) 0.3125(3)
C6A C 1.0953(4) -0.0076(4) 0.3596(4)
H5A H 1.1263 0.0245 0.3422
C7A C 1.0640(4) 0.0270(4) 0.4339(4)
H6A H 1.0745 0.0825 0.4668
C8A C 1.0176(4) -0.0176(4) 0.4613(3)
C9A C 1.0064(4) -0.0991(4) 0.4097(4)
H7A H 0.9756 -0.1327 0.4255
C10A C 1.0390(4) -0.1317(4) 0.3368(4)
H8A H 1.0311 -0.1875 0.3034
O3A O 0.2792(3) -0.0395(2) 0.3081(2)
N3A N 0.3399(3) -0.0285(3) 0.3603(3)
C11A C 0.3245(4) 0.0124(3) 0.4371(3)
H9A H 0.2703 0.0325 0.4529
C12A C 0.3865(4) 0.0251(3) 0.4922(3)
H10A H 0.3753 0.0554 0.5457
C13A C 0.4659(4) -0.0058(3) 0.4708(3)
C14A C 0.4794(4) -0.0441(4) 0.3925(4)
H11A H 0.5336 -0.0635 0.3757
C15A C 0.4171(4) -0.0558(3) 0.3370(3)
H12A H 0.4284 -0.0826 0.2832
O4A O 0.3800(3) -0.1018(3) 1.1668(2)
N4A N 0.4107(3) -0.0745(3) 1.1204(3)
C16A C 0.4604(5) -0.1208(4) 1.0628(4)
H13A H 0.4712 -0.1737 1.0548
C17A C 0.4957(5) -0.0929(4) 1.0155(4)
H14A H 0.5304 -0.1270 0.9752
C18A C 0.4818(4) -0.0158(4) 1.0250(3)
C19A C 0.4286(4) 0.0305(3) 1.0854(3)
H15A H 0.4159 0.0831 1.0938
C20A C 0.3951(4) 0.0011(3) 1.1320(3)
H16A H 0.3604 0.0339 1.1731
Nd1A Nd 0.24563(2) -0.15754(2) 0.18059(2)
O5A O 0.2276(3) -0.1894(2) 0.3009(2)
O6A O 0.1739(3) -0.3011(3) 0.2932(3)
O7A O 0.1878(3) -0.2855(2) 0.1889(3)
O8A O 0.3047(3) -0.2767(3) 0.0578(3)
O9A O 0.2632(3) -0.1807(3) 0.0336(3)
O10A O 0.3111(3) -0.2898(3) -0.0595(3)
O11A O 0.1239(3) -0.2312(3) 0.0876(3)
O12A O 0.3675(3) -0.2242(3) 0.2088(3)
N5A N 0.2930(3) -0.2500(3) 0.0094(3)
N6A N 0.1965(3) -0.2592(3) 0.2620(3)
H17A H 0.099(6) -0.263(5) 0.102(5)
H18A H 0.379(6) -0.225(7) 0.252(3)
H19A H 0.112(7) -0.251(6) 0.0385(18)
H20A H 0.416(3) -0.224(7) 0.190(5)
Nd1A_2 Nd 0.24563(2) -0.15754(2) 1.18059(2)
Nd1A_3 Nd 1.24563(2) -0.15754(2) 0.18059(2)
Nd1A_4 Nd 1.24563(2) -0.15754(2) 1.18059(2)
O1A_2 O 0.2099(3) -0.0394(2) 0.1641(2)
O2A_2 O 0.1087(3) -0.1177(3) 0.2403(2)
O4A_2 O 0.3800(3) -0.1018(3) 0.1668(2)
Nd2 Nd 0.37263(2) 0.40114(2) 0.62861(2)
Nd3 Nd 1.10896(2) 0.39166(2) 0.27810(2)
S1 S 0.96858(9) 0.25476(8) 0.11241(8)
S2 S 0.48408(11) 0.29992(10) 0.21958(12)
S3 S 0.53094(10) 0.25615(8) 0.62301(9)
S4 S 1.01586(9) 0.32339(9) 0.53399(9)
O13 O 0.3423(3) 0.4203(3) 0.7579(3)
O14 O 0.2185(2) 0.4102(3) 0.6438(2)
H21 H 0.1941 0.4176 0.6057
H22 H 0.2068 0.4512 0.6890
O15 O 0.3406(3) 0.5423(2) 0.6711(3)
H23 H 0.3881 0.5735 0.6814
H24 H 0.3109 0.5621 0.7151
O16 O 0.4829(3) 0.4883(2) 0.7239(3)
H25 H 0.4823 0.5380 0.7283
H26 H 0.5336 0.4686 0.7086
O17 O 0.3110(3) 0.2661(3) 0.6113(3)
O18 O 0.2868(2) 0.3700(2) 0.5027(2)
O19 O 0.3826(3) 0.2840(2) 0.4838(3)
O20 O 0.3248(3) 0.2924(3) 0.3847(3)
O21 O 0.4527(2) 0.4462(2) 0.5539(2)
O22 O 1.0088(2) 0.3711(3) 0.3537(3)
O23 O 1.1641(3) 0.3393(3) 0.3673(3)
H27 H 1.1574 0.3746 0.4159
H28 H 1.2178 0.3303 0.3600
O24 O 1.1528(3) 0.5227(2) 0.3799(3)
O25 O 1.2667(2) 0.3963(2) 0.2795(2)
H29 H 1.2865 0.3838 0.3150
H30 H 1.2843 0.4447 0.2901
O26 O 1.0068(3) 0.4947(2) 0.2855(2)
H31 H 0.9788 0.5117 0.3289
H32 H 0.9706 0.4736 0.2455
O27 O 1.1533(3) 0.2551(2) 0.1920(3)
H33 H 1.2076 0.2552 0.1878
H34 H 1.1292 0.2390 0.1461
O28 O 1.1495(3) 0.4294(3) 0.1804(2)
O29 O 0.9931(2) 0.3275(2) 0.1839(2)
O30 O 1.0428(3) 0.2151(2) 0.0698(2)
O31 O 0.9070(3) 0.2721(2) 0.0655(2)
O32 O 0.5199(5) 0.3202(5) 0.1640(6)
O33 O 0.3978(3) 0.2807(3) 0.2116(4)
O34 O 0.5040(4) 0.3665(3) 0.2975(4)
O35 O 0.4985(3) 0.3261(2) 0.6170(2)
O36 O 0.4618(3) 0.2071(3) 0.6291(3)
O37 O 0.5934(3) 0.2799(2) 0.6857(2)
O38 O 0.9695(3) 0.3869(2) 0.5272(3)
O39 O 1.0154(3) 0.3317(3) 0.6126(3)
O40 O 1.1008(3) 0.3211(2) 0.5062(3)
O41 O 0.6903(3) 0.0333(3) 0.3389(3)
H35 H 0.6688 0.0327 0.2985
O42 O 0.6480(3) 0.0137(3) 0.2018(3)
O43 O 0.8086(3) 0.0189(2) 0.1947(3)
H36 H 0.7562 0.0193 0.1912
O44 O 0.8538(3) 0.0117(3) 0.3262(3)
H37 H 0.8270 0.0115 0.2881
N7 N 0.3889(3) 0.4433(4) 0.8225(3)
N8 N 0.3315(3) 0.3148(3) 0.4557(3)
N9 N 0.5297(3) 0.4324(3) 0.5277(3)
N10 N 0.9299(3) 0.3819(3) 0.3748(3)
N11 N 1.1054(3) 0.4483(3) 0.1327(3)
C21 C 0.4264(5) 0.3868(5) 0.8361(4)
H38 H 0.4228 0.3321 0.7984
C22 C 0.4704(5) 0.4098(5) 0.9063(4)
H39 H 0.4966 0.3699 0.9160
C23 C 0.4773(4) 0.4880(5) 0.9619(4)
C24 C 0.4389(5) 0.5437(5) 0.9445(4)
H40 H 0.4423 0.5988 0.9812
C25 C 0.3955(4) 0.5204(5) 0.8741(4)
H41 H 0.3704 0.5597 0.8627
C26 C 0.5456(4) 0.3650(4) 0.4631(4)
H42 H 0.5025 0.3252 0.4384
C27 C 0.6236(4) 0.3536(4) 0.4327(4)
H43 H 0.6336 0.3058 0.3869
C28 C 0.6886(3) 0.4102(3) 0.4674(3)
C29 C 0.6699(4) 0.4787(4) 0.5353(3)
H44 H 0.7124 0.5186 0.5618
C30 C 0.5910(4) 0.4889(4) 0.5642(3)
H45 H 0.5792 0.5359 0.6102
C31 C 0.9037(4) 0.4563(4) 0.4209(4)
H46 H 0.9398 0.5015 0.4333
C32 C 0.8254(4) 0.4665(3) 0.4500(4)
H47 H 0.8071 0.5191 0.4821
C33 C 0.7711(3) 0.3998(3) 0.4327(3)
C34 C 0.8000(4) 0.3253(4) 0.3822(4)
H48 H 0.7649 0.2790 0.3679
C35 C 0.8782(4) 0.3171(4) 0.3526(4)
H49 H 0.8960 0.2657 0.3164
C36 C 1.0914(4) 0.5263(4) 0.1531(4)
H50 H 1.1101 0.5666 0.2028
C37 C 1.0503(4) 0.5471(4) 0.1021(4)
H51 H 1.0411 0.6022 0.1173
C38 C 1.0214(3) 0.4897(3) 0.0282(3)
C39 C 1.0379(4) 0.4095(4) 0.0098(4)
H52 H 1.0200 0.3678 -0.0395
C40 C 1.0793(4) 0.3906(4) 0.0621(4)
H53 H 1.0898 0.3361 0.0484
C41 C 0.8367(4) 0.1620(3) 0.1158(3)
H54 H 0.8073 0.1824 0.0856
C42 C 0.9181(4) 0.1879(3) 0.1417(3)
C43 C 0.9627(3) 0.1601(3) 0.1867(3)
H55 H 1.0186 0.1788 0.2038
C44 C 0.9255(4) 0.1051(3) 0.2069(3)
C45 C 0.8425(3) 0.0768(3) 0.1787(3)
C46 C 0.7977(4) 0.1060(3) 0.1341(3)
C47 C 0.7088(3) 0.0766(4) 0.1028(3)
H56 H 0.6975 0.0867 0.0574
H57 H 0.7047 0.0179 0.0844
C48 C 0.6419(4) 0.1156(3) 0.1613(3)
C49 C 0.6017(4) 0.1834(3) 0.1658(4)
H58 H 0.6184 0.2064 0.1332
C50 C 0.5381(4) 0.2174(3) 0.2169(4)
C51 C 0.5152(4) 0.1856(3) 0.2676(3)
H59 H 0.4721 0.2097 0.3033
C52 C 0.5540(4) 0.1204(3) 0.2661(3)
C53 C 0.6150(4) 0.0825(3) 0.2096(3)
C54 C 0.5271(4) 0.0849(3) 0.3195(3)
H60 H 0.4669 0.0949 0.3295
H61 H 0.5334 0.0261 0.2919
C55 C 0.5753(4) 0.1175(3) 0.3971(3)
C56 C 0.5399(4) 0.1703(3) 0.4650(3)
H62 H 0.4852 0.1885 0.4630
C57 C 0.5825(4) 0.1976(3) 0.5363(3)
C58 C 0.6639(4) 0.1752(3) 0.5407(3)
H63 H 0.6933 0.1959 0.5896
C59 C 0.7028(4) 0.1223(4) 0.4737(3)
C60 C 0.6563(4) 0.0922(3) 0.4026(3)
C61 C 0.7906(4) 0.0938(4) 0.4782(4)
H64 H 0.8047 0.1079 0.5332
H65 H 0.7900 0.0346 0.4485
C62 C 0.8597(3) 0.1277(4) 0.4479(4)
C63 C 0.8999(4) 0.2005(3) 0.4980(3)
H66 H 0.8832 0.2292 0.5502
C64 C 0.9654(3) 0.2311(3) 0.4708(3)
C65 C 0.9885(4) 0.1911(3) 0.3936(3)
H67 H 1.0318 0.2129 0.3754
C66 C 0.9477(3) 0.1188(3) 0.3430(3)
C67 C 0.8863(4) 0.0866(4) 0.3720(4)
C68 C 0.9733(3) 0.0764(3) 0.2584(3)
H68 H 1.0340 0.0859 0.2561
H69 H 0.9631 0.0179 0.2381
H70 H 1.116(5) 0.555(5) 0.409(5)
H71 H 1.179(6) 0.552(5) 0.362(6)
H72 H 0.275(5) 0.252(6) 0.638(6)
H73 H 0.347(5) 0.228(5) 0.602(6)
O13A O 0.6577(3) 0.5797(3) 1.2421(3)
N7A N 0.6111(3) 0.5567(4) 1.1775(3)
C21A C 0.5736(5) 0.6132(5) 1.1639(4)
H38A H 0.5772 0.6679 1.2016
C22A C 0.5296(5) 0.5902(5) 1.0937(4)
H39A H 0.5034 0.6301 1.0840
C23A C 0.5227(4) 0.5120(5) 1.0381(4)
C24A C 0.5611(5) 0.4563(5) 1.0555(4)
H40A H 0.5577 0.4012 1.0188
C25A C 0.6045(4) 0.4796(5) 1.1259(4)
H41A H 0.6296 0.4403 1.1373
O28A O 0.8505(3) 0.5706(3) -0.1804(2)
N11A N 0.8946(3) 0.5517(3) -0.1327(3)
C36A C 0.9086(4) 0.4737(4) -0.1531(4)
H50A H 0.8899 0.4334 -0.2028
C37A C 0.9497(4) 0.4529(4) -0.1021(4)
H51A H 0.9589 0.3978 -0.1173
C38A C 0.9786(3) 0.5103(3) -0.0282(3)
C39A C 0.9621(4) 0.5905(4) -0.0098(4)
H52A H 0.9800 0.6322 0.0395
C40A C 0.9207(4) 0.6094(4) -0.0621(4)
H53A H 0.9102 0.6639 -0.0484
Nd2A Nd 0.62737(2) 0.59886(2) 1.37139(2)
Nd3A Nd -0.10896(2) 0.60834(2) 1.72190(2)
S1A S 0.03142(9) 0.74524(8) 1.88759(8)
S2A S 0.51592(11) 0.70008(10) 1.78042(12)
S3A S 0.46906(10) 0.74385(8) 1.37699(9)
S4A S -0.01586(9) 0.67661(9) 1.46601(9)
O14A O 0.7815(2) 0.5898(3) 1.3562(2)
H21A H 0.8059 0.5824 1.3943
H22A H 0.7932 0.5488 1.3110
O15A O 0.6594(3) 0.4577(2) 1.3289(3)
H23A H 0.6119 0.4265 1.3186
H24A H 0.6891 0.4379 1.2849
O16A O 0.5171(3) 0.5117(2) 1.2761(3)
H25A H 0.5177 0.4620 1.2717
H26A H 0.4664 0.5314 1.2914
O17A O 0.6890(3) 0.7339(3) 1.3887(3)
O18A O 0.7132(2) 0.6300(2) 1.4973(2)
O19A O 0.6174(3) 0.7160(2) 1.5162(3)
O20A O 0.6752(3) 0.7076(3) 1.6153(3)
O21A O 0.5473(2) 0.5538(2) 1.4461(2)
O22A O -0.0088(2) 0.6289(3) 1.6463(3)
O23A O -0.1641(3) 0.6607(3) 1.6327(3)
H27A H -0.1574 0.6254 1.5841
H28A H -0.2178 0.6697 1.6400
O24A O -0.1528(3) 0.4773(2) 1.6201(3)
O25A O -0.2667(2) 0.6037(2) 1.7205(2)
H29A H -0.2865 0.6162 1.6850
H30A H -0.2843 0.5553 1.7099
O26A O -0.0068(3) 0.5053(2) 1.7145(2)
H31A H 0.0212 0.4883 1.6711
H32A H 0.0294 0.5264 1.7545
O27A O -0.1533(3) 0.7449(2) 1.8080(3)
H33A H -0.2076 0.7448 1.8122
H34A H -0.1292 0.7610 1.8539
O29A O 0.0069(2) 0.6725(2) 1.8161(2)
O30A O -0.0428(3) 0.7849(2) 1.9302(2)
O31A O 0.0930(3) 0.7279(2) 1.9345(2)
O32A O 0.4801(5) 0.6798(5) 1.8360(6)
O33A O 0.6022(3) 0.7193(3) 1.7884(4)
O34A O 0.4960(4) 0.6335(3) 1.7025(4)
O35A O 0.5015(3) 0.6739(2) 1.3830(2)
O36A O 0.5382(3) 0.7929(3) 1.3709(3)
O37A O 0.4066(3) 0.7201(2) 1.3143(2)
O38A O 0.0305(3) 0.6131(2) 1.4728(3)
O39A O -0.0154(3) 0.6683(3) 1.3874(3)
O40A O -0.1008(3) 0.6789(2) 1.4938(3)
O41A O 0.3097(3) 0.9667(3) 1.6611(3)
H35A H 0.3312 0.9673 1.7015
O42A O 0.3520(3) 0.9863(3) 1.7982(3)
O43A O 0.1914(3) 0.9811(2) 1.8053(3)
H36A H 0.2438 0.9807 1.8088
O44A O 0.1462(3) 0.9883(3) 1.6738(3)
H37A H 0.1730 0.9885 1.7119
N8A N 0.6685(3) 0.6852(3) 1.5443(3)
N9A N 0.4703(3) 0.5676(3) 1.4723(3)
N10A N 0.0701(3) 0.6181(3) 1.6252(3)
C26A C 0.4544(4) 0.6350(4) 1.5369(4)
H42A H 0.4975 0.6748 1.5616
C27A C 0.3764(4) 0.6464(4) 1.5673(4)
H43A H 0.3664 0.6942 1.6131
C28A C 0.3114(3) 0.5898(3) 1.5326(3)
C29A C 0.3301(4) 0.5213(4) 1.4647(3)
H44A H 0.2876 0.4814 1.4382
C30A C 0.4090(4) 0.5111(4) 1.4358(3)
H45A H 0.4208 0.4641 1.3898
C31A C 0.0963(4) 0.5437(4) 1.5791(4)
H46A H 0.0602 0.4985 1.5667
C32A C 0.1746(4) 0.5335(3) 1.5500(4)
H47A H 0.1929 0.4809 1.5179
C33A C 0.2289(3) 0.6002(3) 1.5673(3)
C34A C 0.2000(4) 0.6747(4) 1.6178(4)
H48A H 0.2351 0.7210 1.6321
C35A C 0.1218(4) 0.6829(4) 1.6474(4)
H49A H 0.1040 0.7343 1.6836
C41A C 0.1633(4) 0.8380(3) 1.8842(3)
H54A H 0.1927 0.8176 1.9144
C42A C 0.0819(4) 0.8121(3) 1.8583(3)
C43A C 0.0373(3) 0.8399(3) 1.8133(3)
H55A H -0.0186 0.8212 1.7962
C44A C 0.0745(4) 0.8949(3) 1.7931(3)
C45A C 0.1575(3) 0.9232(3) 1.8213(3)
C46A C 0.2023(4) 0.8940(3) 1.8659(3)
C47A C 0.2912(3) 0.9234(4) 1.8972(3)
H56A H 0.3025 0.9133 1.9426
H57A H 0.2953 0.9821 1.9156
C48A C 0.3581(4) 0.8844(3) 1.8387(3)
C49A C 0.3983(4) 0.8166(3) 1.8342(4)
H58A H 0.3816 0.7936 1.8668
C50A C 0.4619(4) 0.7826(3) 1.7831(4)
C51A C 0.4848(4) 0.8144(3) 1.7324(3)
H59A H 0.5279 0.7903 1.6967
C52A C 0.4460(4) 0.8796(3) 1.7339(3)
C53A C 0.3850(4) 0.9175(3) 1.7904(3)
C54A C 0.4729(4) 0.9151(3) 1.6805(3)
H60A H 0.5331 0.9051 1.6705
H61A H 0.4666 0.9739 1.7081
C55A C 0.4247(4) 0.8825(3) 1.6029(3)
C56A C 0.4601(4) 0.8297(3) 1.5350(3)
H62A H 0.5148 0.8115 1.5370
C57A C 0.4175(4) 0.8024(3) 1.4637(3)
C58A C 0.3361(4) 0.8248(3) 1.4593(3)
H63A H 0.3067 0.8041 1.4104
C59A C 0.2972(4) 0.8777(4) 1.5263(3)
C60A C 0.3437(4) 0.9078(3) 1.5974(3)
C61A C 0.2094(4) 0.9062(4) 1.5218(4)
H64A H 0.1953 0.8921 1.4668
H65A H 0.2100 0.9654 1.5515
C62A C 0.1403(3) 0.8723(4) 1.5521(4)
C63A C 0.1001(4) 0.7995(3) 1.5020(3)
H66A H 0.1168 0.7708 1.4498
C64A C 0.0346(3) 0.7689(3) 1.5292(3)
C65A C 0.0115(4) 0.8089(3) 1.6064(3)
H67A H -0.0318 0.7871 1.6246
C66A C 0.0523(3) 0.8812(3) 1.6570(3)
C67A C 0.1137(4) 0.9134(4) 1.6280(4)
C68A C 0.0267(3) 0.9236(3) 1.7416(3)
H68A H -0.0340 0.9141 1.7439
H69A H 0.0369 0.9821 1.7619
H70A H -0.116(5) 0.445(5) 1.591(5)
H71A H -0.179(6) 0.448(5) 1.638(6)
H72A H 0.725(5) 0.748(6) 1.362(6)
H73A H 0.653(5) 0.772(5) 1.398(6)
Nd3A_2 Nd 0.89104(2) 0.60834(2) -0.27810(2)
O28A_2 O -0.1495(3) 0.5706(3) 1.8196(2)
O45 O 0.1389(3) 0.4976(3) 0.7773(3)
O46 O 0.3537(3) 0.5034(3) 1.2515(3)
N12 N 0.1648(3) 0.4935(3) 0.8414(3)
N13 N 0.3328(3) 0.4970(3) 1.1808(3)
C69 C 0.1651(4) 0.5605(4) 0.9107(4)
H74 H 0.1417 0.6081 0.9138
C70 C 0.1989(4) 0.5599(4) 0.9760(4)
H75 H 0.1998 0.6074 1.0241
C71 C 0.2324(4) 0.4895(3) 0.9726(3)
C72 C 0.2257(4) 0.4205(4) 0.9020(4)
H76 H 0.2452 0.3712 0.8983
C73 C 0.1907(4) 0.4233(4) 0.8374(4)
H77 H 0.1848 0.3756 0.7897
C74 C 0.3288(4) 0.5657(3) 1.1732(4)
H78 H 0.3464 0.6154 1.2155
C75 C 0.2997(4) 0.5638(4) 1.1054(4)
H79 H 0.2972 0.6119 1.1004
C76 C 0.2734(4) 0.4909(3) 1.0432(3)
C77 C 0.2845(4) 0.4213(4) 1.0512(4)
H80 H 0.2715 0.3705 1.0084
C78 C 0.3140(4) 0.4258(4) 1.1201(4)
H81 H 0.3212 0.3780 1.1251
O47 O 0.0416(7) 0.2732(4) 0.8198(5)
O48 O 0.0597(5) 0.2184(4) 0.8907(4)
O49 O 0.1363(9) 0.1907(11) 0.7918(7)
N14 N 0.0815(6) 0.2282(6) 0.8334(5)
O50 O 0.2782(3) 0.1726(3) 0.2096(3)
H82 H 0.324(4) 0.197(6) 0.210(6)
H83 H 0.284(6) 0.157(6) 0.245(5)
O51 O 0.2672(4) 0.6247(3) 0.3744(3)
H84 H 0.261(7) 0.665(4) 0.363(6)
H85 H 0.298(6) 0.595(5) 0.335(4)
O52 O 0.2072(3) 0.1837(3) 0.4641(3)
H86 H 0.167(4) 0.212(6) 0.491(5)
H87 H 0.248(4) 0.192(7) 0.497(4)
O53 O 0.2299(4) 0.6303(3) 0.7768(3)
H88 H 0.2496 0.6642 0.8227
H89 H 0.1845 0.6069 0.7815
O54 O 0.8539(4) 0.7431(4) 0.3288(4)
H90 H 0.8958 0.7328 0.2981
O55 O 0.8167(6) 0.8636(5) 0.0631(7)
H91 H 0.8171 0.8158 0.0241
H92 H 0.7768 0.8657 0.0939
O56 O 0.4489(6) 0.2879(4) 0.0109(5)
O57 O 0.7749(8) 0.8859(6) 0.6923(6)
O58 O 0.5437(7) 0.8082(7) 0.2078(8)
O59 O 0.3207(9) 0.2085(11) 0.0444(9)
O60 O 0.7787(11) 0.8871(10) 0.3623(10)
O61 O 0.6450(14) 0.8714(13) 0.2446(13)
O62? O 0.7184(10) 0.8869(7) 0.6860(8)
O63? O 0.5215(9) 0.7660(9) 0.1487(9)
O64? O 0.7082(10) 0.7634(10) 0.1149(10)
O65? O 0.2996(13) 0.1549(15) 0.0446(13)
O66? O 0.7077(10) 0.8715(8) 0.3241(9)
loop_
_geom_bond_atom_site_label_1
_geom_bond_atom_site_label_2
_geom_bond_site_symmetry_1
_geom_bond_site_symmetry_2
Nd1 O1 1_555 1_555
O1 N1 1_555 1_555
O2 Nd1 1_555 1_555
O3 Nd1 1_555 1_555
O4 Nd1 1_555 1_555
O5 Nd1 1_555 1_555
O6 N6 1_555 1_555
O7 Nd1 1_555 1_555
O8 Nd1 1_555 1_555
O9 Nd1 1_555 1_555
O10 N5 1_555 1_555
O11 Nd1 1_555 1_555
O12 Nd1 1_555 1_555
N1 C1 1_555 1_555
N2 O2 1_555 1_555
N3 O3 1_555 1_555
N4 O4 1_555 1_555
N5 O8 1_555 1_555
N6 O5 1_555 1_555
C1 H1 1_555 1_555
C2 C1 1_555 1_555
H2 C2 1_555 1_555
C3 C2 1_555 1_555
C4 C3 1_555 1_555
H3 C4 1_555 1_555
C5 N1 1_555 1_555
H4 C5 1_555 1_555
C6 N2 1_555 1_555
H5 C6 1_555 1_555
C7 C6 1_555 1_555
H6 C7 1_555 1_555
C8 C7 1_555 1_555
C9 C8 1_555 1_555
H7 C9 1_555 1_555
C10 N2 1_555 1_555
H8 C10 1_555 1_555
C11 N3 1_555 1_555
H9 C11 1_555 1_555
C12 C11 1_555 1_555
H10 C12 1_555 1_555
C13 C12 1_555 1_555
C14 C13 1_555 1_555
H11 C14 1_555 1_555
C15 N3 1_555 1_555
H12 C15 1_555 1_555
C16 N4 1_555 1_555
H13 C16 1_555 1_555
C17 C16 1_555 1_555
H14 C17 1_555 1_555
C18 C17 1_555 1_555
C19 C18 1_555 1_555
H15 C19 1_555 1_555
C20 N4 1_555 1_555
H16 C20 1_555 1_555
H17 O11 1_555 1_555
H18 O12 1_555 1_555
H19 O11 1_555 1_555
H20 O12 1_555 1_555
Nd2 O13 1_555 1_555
Nd3 O22 1_555 1_555
S1 O29 1_555 1_555
S2 O32 1_555 1_555
S3 O35 1_555 1_555
S4 O38 1_555 1_555
O13 N7 1_555 1_555
O14 Nd2 1_555 1_555
H21 O14 1_555 1_555
H22 O14 1_555 1_555
O15 Nd2 1_555 1_555
H23 O15 1_555 1_555
H24 O15 1_555 1_555
O16 Nd2 1_555 1_555
H25 O16 1_555 1_555
H26 O16 1_555 1_555
O17 Nd2 1_555 1_555
O18 Nd2 1_555 1_555
O19 Nd2 1_555 1_555
O20 N8 1_555 1_555
O21 Nd2 1_555 1_555
O22 N10 1_555 1_555
O23 Nd3 1_555 1_555
H27 O23 1_555 1_555
H28 O23 1_555 1_555
O24 Nd3 1_555 1_555
O25 Nd3 1_555 1_555
H29 O25 1_555 1_555
H30 O25 1_555 1_555
O26 Nd3 1_555 1_555
H31 O26 1_555 1_555
H32 O26 1_555 1_555
O27 Nd3 1_555 1_555
H33 O27 1_555 1_555
H34 O27 1_555 1_555
O28 Nd3 1_555 1_555
O29 Nd3 1_555 1_555
O30 S1 1_555 1_555
O31 S1 1_555 1_555
O33 S2 1_555 1_555
O34 S2 1_555 1_555
O35 Nd2 1_555 1_555
O36 S3 1_555 1_555
O37 S3 1_555 1_555
O39 S4 1_555 1_555
O40 S4 1_555 1_555
O41 H35 1_555 1_555
O42 C53 1_555 1_555
O43 H36 1_555 1_555
O44 H37 1_555 1_555
N7 C21 1_555 1_555
N8 O18 1_555 1_555
N9 O21 1_555 1_555
N10 C31 1_555 1_555
N11 O28 1_555 1_555
C21 H38 1_555 1_555
C22 C21 1_555 1_555
H39 C22 1_555 1_555
C23 C22 1_555 1_555
C24 C23 1_555 1_555
H40 C24 1_555 1_555
C25 N7 1_555 1_555
H41 C25 1_555 1_555
C26 N9 1_555 1_555
H42 C26 1_555 1_555
C27 C26 1_555 1_555
H43 C27 1_555 1_555
C28 C27 1_555 1_555
C29 C28 1_555 1_555
H44 C29 1_555 1_555
C30 N9 1_555 1_555
H45 C30 1_555 1_555
C31 H46 1_555 1_555
C32 C31 1_555 1_555
H47 C32 1_555 1_555
C33 C28 1_555 1_555
C34 C33 1_555 1_555
H48 C34 1_555 1_555
C35 N10 1_555 1_555
H49 C35 1_555 1_555
C36 N11 1_555 1_555
H50 C36 1_555 1_555
C37 C36 1_555 1_555
H51 C37 1_555 1_555
C38 C37 1_555 1_555
C39 C38 1_555 1_555
H52 C39 1_555 1_555
C40 N11 1_555 1_555
H53 C40 1_555 1_555
C41 H54 1_555 1_555
C42 S1 1_555 1_555
C43 C42 1_555 1_555
H55 C43 1_555 1_555
C44 C43 1_555 1_555
C45 O43 1_555 1_555
C46 C41 1_555 1_555
C47 C46 1_555 1_555
H56 C47 1_555 1_555
H57 C47 1_555 1_555
C48 C47 1_555 1_555
C49 C48 1_555 1_555
H58 C49 1_555 1_555
C50 S2 1_555 1_555
C51 C50 1_555 1_555
H59 C51 1_555 1_555
C52 C51 1_555 1_555
C53 C48 1_555 1_555
C54 C52 1_555 1_555
H60 C54 1_555 1_555
H61 C54 1_555 1_555
C55 C54 1_555 1_555
C56 C55 1_555 1_555
H62 C56 1_555 1_555
C57 S3 1_555 1_555
C58 C57 1_555 1_555
H63 C58 1_555 1_555
C59 C58 1_555 1_555
C60 O41 1_555 1_555
C61 C59 1_555 1_555
H64 C61 1_555 1_555
H65 C61 1_555 1_555
C62 C61 1_555 1_555
C63 C62 1_555 1_555
H66 C63 1_555 1_555
C64 S4 1_555 1_555
C65 C64 1_555 1_555
H67 C65 1_555 1_555
C66 C65 1_555 1_555
C67 O44 1_555 1_555
C68 C44 1_555 1_555
H68 C68 1_555 1_555
H69 C68 1_555 1_555
H70 O24 1_555 1_555
H71 O24 1_555 1_555
H72 O17 1_555 1_555
H73 O17 1_555 1_555
O45 N12 1_555 1_555
O46 N13 1_555 1_555
N12 C69 1_555 1_555
N13 C74 1_555 1_555
C69 H74 1_555 1_555
C70 C69 1_555 1_555
H75 C70 1_555 1_555
C71 C70 1_555 1_555
C72 C71 1_555 1_555
H76 C72 1_555 1_555
C73 N12 1_555 1_555
H77 C73 1_555 1_555
C74 H78 1_555 1_555
C75 C74 1_555 1_555
H79 C75 1_555 1_555
C76 C71 1_555 1_555
C77 C76 1_555 1_555
H80 C77 1_555 1_555
C78 N13 1_555 1_555
H81 C78 1_555 1_555
O47 N14 1_555 1_555
O48 N14 1_555 1_555
O49 N14 1_555 1_555
O50 H82 1_555 1_555
H83 O50 1_555 1_555
O51 H84 1_555 1_555
H85 O51 1_555 1_555
O52 H86 1_555 1_555
H87 O52 1_555 1_555
O53 H88 1_555 1_555
H89 O53 1_555 1_555
O54 H90 1_555 1_555
O55 H91 1_555 1_555
H92 O55 1_555 1_555
O1A N1A 1_555 1_555
N1A C1A 1_555 1_555
C1A H1A 1_555 1_555
C2A C1A 1_555 1_555
H2A C2A 1_555 1_555
C3A C3 1_555 1_555
C4A C3A 1_555 1_555
H3A C4A 1_555 1_555
C5A N1A 1_555 1_555
H4A C5A 1_555 1_555
O2A N2A 1_555 1_555
N2A C6A 1_555 1_555
C6A H5A 1_555 1_555
C7A C6A 1_555 1_555
H6A C7A 1_555 1_555
C8A C8 1_555 1_555
C9A C8A 1_555 1_555
H7A C9A 1_555 1_555
C10A N2A 1_555 1_555
H8A C10A 1_555 1_555
O3A N3A 1_555 1_555
N3A C11A 1_555 1_555
C11A H9A 1_555 1_555
C12A C11A 1_555 1_555
H10A C12A 1_555 1_555
C13A C13 1_555 1_555
C14A C13A 1_555 1_555
H11A C14A 1_555 1_555
C15A N3A 1_555 1_555
H12A C15A 1_555 1_555
O4A N4A 1_555 1_555
N4A C16A 1_555 1_555
C16A H13A 1_555 1_555
C17A C16A 1_555 1_555
H14A C17A 1_555 1_555
C18A C18 1_555 1_555
C19A C18A 1_555 1_555
H15A C19A 1_555 1_555
C20A N4A 1_555 1_555
H16A C20A 1_555 1_555
Nd1A O3A 1_555 1_555
O5A Nd1A 1_555 1_555
O6A N6A 1_555 1_555
O7A Nd1A 1_555 1_555
O8A Nd1A 1_555 1_555
O9A Nd1A 1_555 1_555
O10A N5A 1_555 1_555
O11A Nd1A 1_555 1_555
O12A Nd1A 1_555 1_555
N5A O8A 1_555 1_555
N6A O5A 1_555 1_555
H17A O11A 1_555 1_555
H18A O12A 1_555 1_555
H19A O11A 1_555 1_555
H20A O12A 1_555 1_555
Nd1A_2 O4A 1_555 1_555
Nd1A_3 O2A 1_555 1_555
Nd1A_4 O1A 1_555 1_555
O1A_2 Nd1A 1_555 1_555
O2A_2 Nd1A 1_555 1_555
O4A_2 Nd1A 1_555 1_555
O13A N7A 1_555 1_555
N7A C21A 1_555 1_555
C21A H38A 1_555 1_555
C22A C21A 1_555 1_555
H39A C22A 1_555 1_555
C23A C23 1_555 1_555
C24A C23A 1_555 1_555
H40A C24A 1_555 1_555
C25A N7A 1_555 1_555
H41A C25A 1_555 1_555
O28A N11A 1_555 1_555
N11A C36A 1_555 1_555
C36A H50A 1_555 1_555
C37A C36A 1_555 1_555
H51A C37A 1_555 1_555
C38A C38 1_555 1_555
C39A C38A 1_555 1_555
H52A C39A 1_555 1_555
C40A N11A 1_555 1_555
H53A C40A 1_555 1_555
Nd2A O13A 1_555 1_555
Nd3A O22A 1_555 1_555
S1A O29A 1_555 1_555
S2A O32A 1_555 1_555
S3A O35A 1_555 1_555
S4A O38A 1_555 1_555
O14A Nd2A 1_555 1_555
H21A O14A 1_555 1_555
H22A O14A 1_555 1_555
O15A Nd2A 1_555 1_555
H23A O15A 1_555 1_555
H24A O15A 1_555 1_555
O16A Nd2A 1_555 1_555
H25A O16A 1_555 1_555
H26A O16A 1_555 1_555
O17A Nd2A 1_555 1_555
O18A Nd2A 1_555 1_555
O19A Nd2A 1_555 1_555
O20A N8A 1_555 1_555
O21A Nd2A 1_555 1_555
O22A N10A 1_555 1_555
O23A Nd3A 1_555 1_555
H27A O23A 1_555 1_555
H28A O23A 1_555 1_555
O24A Nd3A 1_555 1_555
O25A Nd3A 1_555 1_555
H29A O25A 1_555 1_555
H30A O25A 1_555 1_555
O26A Nd3A 1_555 1_555
H31A O26A 1_555 1_555
H32A O26A 1_555 1_555
O27A Nd3A 1_555 1_555
H33A O27A 1_555 1_555
H34A O27A 1_555 1_555
O29A Nd3A 1_555 1_555
O30A S1A 1_555 1_555
O31A S1A 1_555 1_555
O33A S2A 1_555 1_555
O34A S2A 1_555 1_555
O35A Nd2A 1_555 1_555
O36A S3A 1_555 1_555
O37A S3A 1_555 1_555
O39A S4A 1_555 1_555
O40A S4A 1_555 1_555
O41A H35A 1_555 1_555
O42A C53A 1_555 1_555
O43A H36A 1_555 1_555
O44A H37A 1_555 1_555
N8A O18A 1_555 1_555
N9A O21A 1_555 1_555
N10A C31A 1_555 1_555
C26A N9A 1_555 1_555
H42A C26A 1_555 1_555
C27A C26A 1_555 1_555
H43A C27A 1_555 1_555
C28A C27A 1_555 1_555
C29A C28A 1_555 1_555
H44A C29A 1_555 1_555
C30A N9A 1_555 1_555
H45A C30A 1_555 1_555
C31A H46A 1_555 1_555
C32A C31A 1_555 1_555
H47A C32A 1_555 1_555
C33A C28A 1_555 1_555
C34A C33A 1_555 1_555
H48A C34A 1_555 1_555
C35A N10A 1_555 1_555
H49A C35A 1_555 1_555
C41A H54A 1_555 1_555
C42A S1A 1_555 1_555
C43A C42A 1_555 1_555
H55A C43A 1_555 1_555
C44A C43A 1_555 1_555
C45A O43A 1_555 1_555
C46A C41A 1_555 1_555
C47A C46A 1_555 1_555
H56A C47A 1_555 1_555
H57A C47A 1_555 1_555
C48A C47A 1_555 1_555
C49A C48A 1_555 1_555
H58A C49A 1_555 1_555
C50A S2A 1_555 1_555
C51A C50A 1_555 1_555
H59A C51A 1_555 1_555
C52A C51A 1_555 1_555
C53A C48A 1_555 1_555
C54A C52A 1_555 1_555
H60A C54A 1_555 1_555
H61A C54A 1_555 1_555
C55A C54A 1_555 1_555
C56A C55A 1_555 1_555
H62A C56A 1_555 1_555
C57A S3A 1_555 1_555
C58A C57A 1_555 1_555
H63A C58A 1_555 1_555
C59A C58A 1_555 1_555
C60A O41A 1_555 1_555
C61A C59A 1_555 1_555
H64A C61A 1_555 1_555
H65A C61A 1_555 1_555
C62A C61A 1_555 1_555
C63A C62A 1_555 1_555
H66A C63A 1_555 1_555
C64A S4A 1_555 1_555
C65A C64A 1_555 1_555
H67A C65A 1_555 1_555
C66A C65A 1_555 1_555
C67A O44A 1_555 1_555
C68A C44A 1_555 1_555
H68A C68A 1_555 1_555
H69A C68A 1_555 1_555
H70A O24A 1_555 1_555
H71A O24A 1_555 1_555
H72A O17A 1_555 1_555
H73A O17A 1_555 1_555
Nd3A_2 O28A 1_555 1_555
O28A_2 Nd3A 1_555 1_555
O7 N6 1_555 1_555
O9 N5 1_555 1_555
C4 C5 1_555 1_555
C9 C10 1_555 1_555
C14 C15 1_555 1_555
C19 C20 1_555 1_555
O19 N8 1_555 1_555
C24 C25 1_555 1_555
C29 C30 1_555 1_555
C32 C33 1_555 1_555
C34 C35 1_555 1_555
C39 C40 1_555 1_555
C41 C42 1_555 1_555
C44 C45 1_555 1_555
C45 C46 1_555 1_555
C49 C50 1_555 1_555
C52 C53 1_555 1_555
C55 C60 1_555 1_555
C56 C57 1_555 1_555
C59 C60 1_555 1_555
C62 C67 1_555 1_555
C63 C64 1_555 1_555
C66 C67 1_555 1_555
C66 C68 1_555 1_555
C72 C73 1_555 1_555
C75 C76 1_555 1_555
C77 C78 1_555 1_555
C2A C3A 1_555 1_555
C4A C5A 1_555 1_555
C7A C8A 1_555 1_555
C9A C10A 1_555 1_555
C12A C13A 1_555 1_555
C14A C15A 1_555 1_555
C17A C18A 1_555 1_555
C19A C20A 1_555 1_555
O7A N6A 1_555 1_555
O9A N5A 1_555 1_555
C22A C23A 1_555 1_555
C24A C25A 1_555 1_555
C37A C38A 1_555 1_555
C39A C40A 1_555 1_555
O19A N8A 1_555 1_555
C29A C30A 1_555 1_555
C32A C33A 1_555 1_555
C34A C35A 1_555 1_555
C41A C42A 1_555 1_555
C44A C45A 1_555 1_555
C45A C46A 1_555 1_555
C49A C50A 1_555 1_555
C52A C53A 1_555 1_555
C55A C60A 1_555 1_555
C56A C57A 1_555 1_555
C59A C60A 1_555 1_555
C62A C67A 1_555 1_555
C63A C64A 1_555 1_555
C66A C67A 1_555 1_555
C66A C68A 1_555 1_555

#END
