
#######################################################################
#
#                 Cambridge Crystallographic Data Centre
#                                CCDC 
#
#######################################################################
#
# If this CIF has been generated from an entry in the Cambridge 
# Structural Database, then it will include bibliographic, chemical, 
# crystal, experimental, refinement or atomic coordinate data resulting 
# from the CCDC's data processing and validation procedures.
#
#######################################################################

data_SUBWET
_symmetry_cell_setting           triclinic
_symmetry_space_group_name_H-M   'P -1'
_symmetry_Int_Tables_number      2
_space_group_name_Hall           '-P 1'
loop_
_symmetry_equiv_pos_site_id
_symmetry_equiv_pos_as_xyz
1 x,y,z
2 -x,-y,-z
_cell_length_a                   15.9282(12)
_cell_length_b                   18.6918(15)
_cell_length_c                   19.2219(15)
_cell_angle_alpha                116.848(2)
_cell_angle_beta                 91.344(2)
_cell_angle_gamma                90.928(2)
_cell_volume                     5102.28
loop_
_atom_site_label
_atom_site_type_symbol
_atom_site_fract_x
_atom_site_fract_y
_atom_site_fract_z
Sm1 Sm 1.10871(2) 0.39143(2) 0.27801(2)
Sm2 Sm 0.37236(2) 0.40116(2) 0.62850(2)
S1 S 0.52882(8) 0.25652(8) 0.62391(7)
S2 S 0.96909(8) 0.25482(8) 0.11286(7)
S3 S 1.01651(8) 0.32373(8) 0.53473(7)
S4 S 0.48439(9) 0.30075(10) 0.21964(10)
O1 O 0.9935(2) 0.3275(2) 0.1846(2)
O2 O 0.4822(2) 0.4876(2) 0.7222(2)
H1 H 0.4810 0.5370 0.7265
H2 H 0.5328 0.4681 0.7065
O3 O 0.8073(2) 0.0181(2) 0.1942(2)
O4 O 1.0429(2) 0.2153(2) 0.0703(2)
O5 O 0.2196(2) 0.4107(2) 0.6438(2)
H3 H 0.1950 0.4137 0.6036
H4 H 0.2081 0.4540 0.6869
O6 O 1.2652(2) 0.3974(2) 0.2801(2)
H5 H 1.2857 0.3726 0.3061
H6 H 1.2834 0.4478 0.3030
O7 O 0.3408(2) 0.5405(2) 0.6690(2)
H7 H 0.3885 0.5713 0.6794
H8 H 0.3106 0.5604 0.7129
O8 O 1.1019(2) 0.3212(2) 0.5064(2)
O9 O 0.3818(2) 0.2845(2) 0.4845(2)
O10 O 0.4522(2) 0.4455(2) 0.5539(2)
O11 O 1.1535(2) 0.2574(2) 0.1936(2)
H9 H 1.2082 0.2578 0.1875
H10 H 1.1277 0.2396 0.1474
O12 O 0.4598(3) 0.2076(2) 0.6300(2)
O13 O 1.1519(2) 0.5212(2) 0.3792(2)
H11 H 1.1095 0.5436 0.4101
O14 O 0.3242(3) 0.2936(3) 0.3853(2)
O15 O 1.1648(2) 0.3414(3) 0.3676(2)
H12 H 1.2023 0.3050 0.3441
H13 H 1.1237 0.3197 0.3821
O16 O 0.5915(3) 0.2803(2) 0.6869(2)
C1 C 0.5740(3) 0.1171(3) 0.3974(3)
O17 O 0.4959(2) 0.3261(2) 0.6172(2)
O18 O 1.0071(2) 0.4931(2) 0.2857(2)
H14 H 0.9983 0.5264 0.3350
H15 H 0.9588 0.4692 0.2627
O19 O 1.1491(2) 0.4280(3) 0.1811(2)
O20 O 0.2873(2) 0.3714(2) 0.5036(2)
O21 O 1.0105(2) 0.3710(3) 0.3538(2)
C2 C 0.9188(3) 0.1882(3) 0.1418(3)
O22 O 0.3102(3) 0.2686(3) 0.6120(2)
H16 H 0.2688 0.2461 0.6247
H17 H 0.3516 0.2325 0.6087
C3 C 0.8594(3) 0.1290(3) 0.4494(3)
O23 O 0.9079(2) 0.2725(2) 0.0659(2)
C4 C 0.9629(3) 0.1599(3) 0.1872(3)
H18 H 1.0191 0.1783 0.2044
C5 C 0.7975(3) 0.1057(3) 0.1342(3)
O24 O 0.3422(2) 0.4216(3) 0.7567(2)
O25 O 0.6890(3) 0.0333(3) 0.3394(2)
H19 H 0.6524 0.0145 0.3030
C6 C 0.8424(3) 0.0760(3) 0.1791(3)
N1 N 0.5301(3) 0.4318(3) 0.5280(2)
C7 C 0.7719(3) 0.3995(3) 0.4327(3)
C8 C 0.6633(3) 0.1760(3) 0.5413(3)
H20 H 0.6933 0.1975 0.5901
C9 C 0.9251(3) 0.1047(3) 0.2073(3)
O26 O 0.3967(3) 0.2814(3) 0.2112(4)
N2 N 0.9307(3) 0.3815(3) 0.3744(2)
C10 C 0.5254(3) 0.0845(3) 0.3191(3)
H21 H 0.5312 0.0256 0.2917
H22 H 0.4651 0.0951 0.3293
C11 C 0.9736(3) 0.0761(3) 0.2590(3)
H23 H 0.9630 0.0177 0.2392
H24 H 1.0345 0.0852 0.2560
O27 O 0.8524(3) 0.0128(3) 0.3261(2)
H25 H 0.8315 0.0118 0.2851
N3 N 1.1052(3) 0.4481(3) 0.1333(3)
O28 O 1.0164(3) 0.3318(3) 0.6134(2)
O29 O 0.9692(2) 0.3870(2) 0.5285(2)
C12 C 0.8007(3) 0.3244(3) 0.3818(3)
H26 H 0.7653 0.2781 0.3671
C13 C 0.5146(3) 0.1859(3) 0.2676(3)
H27 H 0.4718 0.2105 0.3038
C14 C 0.5810(3) 0.1981(3) 0.5372(3)
C15 C 0.8857(3) 0.0861(3) 0.3718(3)
C16 C 0.7015(3) 0.1230(3) 0.4747(3)
C17 C 0.5530(3) 0.1193(3) 0.2653(3)
C18 C 0.6704(3) 0.4782(3) 0.5351(3)
H28 H 0.7131 0.5182 0.5611
C19 C 0.6407(3) 0.1153(3) 0.1610(3)
C20 C 0.9047(3) 0.4555(3) 0.4204(3)
H29 H 0.9410 0.5008 0.4328
C21 C 0.5380(3) 0.2175(3) 0.2173(3)
C22 C 0.8368(3) 0.1616(3) 0.1161(3)
H30 H 0.8071 0.1819 0.0857
O30 O 0.6464(3) 0.0129(3) 0.2017(3)
H31 H 0.6949 0.0081 0.1841
C23 C 0.6559(3) 0.0915(3) 0.4029(3)
C24 C 1.0376(3) 0.4097(3) 0.0099(3)
H32 H 1.0193 0.3684 -0.0396
C25 C 0.4387(4) 0.5447(4) 0.9442(4)
H33 H 0.4423 0.5999 0.9808
C26 C 0.9886(3) 0.1910(3) 0.3949(3)
H34 H 1.0322 0.2130 0.3770
C27 C 1.0218(3) 0.4890(3) 0.0284(3)
C28 C 0.9654(3) 0.2312(3) 0.4722(3)
C29 C 0.9488(3) 0.1190(3) 0.3436(3)
C30 C 1.0496(4) 0.5471(4) 0.1025(3)
H35 H 1.0399 0.6021 0.1179
C31 C 0.8797(3) 0.3167(4) 0.3528(3)
H36 H 0.8982 0.2654 0.3173
N4 N 0.3888(3) 0.4440(3) 0.8217(3)
C32 C 0.5910(3) 0.4882(3) 0.5642(3)
H37 H 0.5792 0.5353 0.6103
C33 C 0.6883(3) 0.4096(3) 0.4674(3)
C34 C 1.0795(3) 0.3897(3) 0.0620(3)
H38 H 1.0902 0.3352 0.0481
N5 N 0.3310(3) 0.3159(3) 0.4565(3)
C35 C 0.7895(3) 0.0949(4) 0.4804(3)
H39 H 0.7891 0.0357 0.4512
H40 H 0.8032 0.1097 0.5358
C36 C 0.5460(4) 0.3642(4) 0.4636(4)
H41 H 0.5025 0.3246 0.4392
C37 C 0.6146(3) 0.0822(3) 0.2093(3)
C38 C 0.7086(3) 0.0759(3) 0.1022(3)
H42 H 0.7047 0.0172 0.0840
H43 H 0.6978 0.0858 0.0564
C39 C 0.9003(3) 0.2013(3) 0.4989(3)
H44 H 0.8835 0.2302 0.5512
C40 C 0.6242(4) 0.3518(4) 0.4329(4)
H45 H 0.6347 0.3034 0.3877
C41 C 0.4772(3) 0.4886(4) 0.9619(3)
C42 C 0.8253(3) 0.4661(3) 0.4498(3)
H46 H 0.8067 0.5186 0.4819
C43 C 0.3952(4) 0.5211(4) 0.8738(4)
H47 H 0.3695 0.5603 0.8624
C44 C 0.5374(3) 0.1698(3) 0.4653(3)
H48 H 0.4821 0.1870 0.4632
C45 C 1.0906(3) 0.5252(3) 0.1530(3)
H49 H 1.1090 0.5655 0.2030
O31 O 0.5196(4) 0.3207(5) 0.1629(5)
O32 O 0.5041(3) 0.3671(3) 0.2977(4)
C46 C 0.6020(3) 0.1838(3) 0.1662(3)
H50 H 0.6198 0.2075 0.1342
C47 C 0.4260(4) 0.3882(5) 0.8361(4)
H51 H 0.4216 0.3334 0.7984
C48 C 0.4710(5) 0.4098(5) 0.9056(4)
H52 H 0.4980 0.3697 0.9146
H53 H 1.178(6) 0.559(3) 0.378(7)
O19A O 0.8509(2) 0.5720(3) -0.1811(2)
N3A N 0.8948(3) 0.5519(3) -0.1333(3)
C24A C 0.9624(3) 0.5903(3) -0.0099(3)
H32A H 0.9807 0.6316 0.0396
C27A C 0.9782(3) 0.5110(3) -0.0284(3)
C30A C 0.9504(4) 0.4529(4) -0.1025(3)
H35A H 0.9601 0.3979 -0.1179
C34A C 0.9205(3) 0.6103(3) -0.0620(3)
H38A H 0.9098 0.6648 -0.0481
C45A C 0.9094(3) 0.4748(3) -0.1530(3)
H49A H 0.8910 0.4345 -0.2030
O24A O 0.6578(2) 0.5784(3) 1.2433(2)
C25A C 0.5613(4) 0.4553(4) 1.0558(4)
H33A H 0.5577 0.4001 1.0192
N4A N 0.6112(3) 0.5560(3) 1.1783(3)
C41A C 0.5228(3) 0.5114(4) 1.0381(3)
C43A C 0.6048(4) 0.4789(4) 1.1262(4)
H47A H 0.6305 0.4397 1.1376
C47A C 0.5740(4) 0.6118(5) 1.1639(4)
H51A H 0.5784 0.6666 1.2016
C48A C 0.5290(5) 0.5902(5) 1.0944(4)
H52A H 0.5020 0.6303 1.0854
Sm1A Sm -0.10871(2) 0.60857(2) 1.72199(2)
Sm2A Sm 0.62764(2) 0.59884(2) 1.37150(2)
S1A S 0.47118(8) 0.74348(8) 1.37609(7)
S2A S 0.03091(8) 0.74518(8) 1.88714(7)
S3A S -0.01651(8) 0.67627(8) 1.46527(7)
S4A S 0.51561(9) 0.69925(10) 1.78036(10)
O1A O 0.0065(2) 0.6725(2) 1.8154(2)
O2A O 0.5178(2) 0.5124(2) 1.2778(2)
H1A H 0.5190 0.4630 1.2735
H2A H 0.4672 0.5319 1.2935
O3A O 0.1927(2) 0.9819(2) 1.8058(2)
O4A O -0.0429(2) 0.7847(2) 1.9297(2)
O5A O 0.7804(2) 0.5893(2) 1.3562(2)
H3A H 0.8050 0.5863 1.3964
H4A H 0.7919 0.5460 1.3131
O6A O -0.2652(2) 0.6026(2) 1.7199(2)
H5A H -0.2857 0.6274 1.6939
H6A H -0.2834 0.5522 1.6970
O7A O 0.6592(2) 0.4595(2) 1.3310(2)
H7A H 0.6115 0.4287 1.3206
H8A H 0.6894 0.4396 1.2871
O8A O -0.1019(2) 0.6788(2) 1.4936(2)
O9A O 0.6182(2) 0.7155(2) 1.5155(2)
O10A O 0.5478(2) 0.5545(2) 1.4461(2)
O11A O -0.1535(2) 0.7426(2) 1.8064(2)
H9A H -0.2082 0.7422 1.8125
H10A H -0.1277 0.7604 1.8526
O12A O 0.5402(3) 0.7924(2) 1.3700(2)
O13A O -0.1519(2) 0.4788(2) 1.6208(2)
H11A H -0.1095 0.4564 1.5899
O14A O 0.6758(3) 0.7064(3) 1.6147(2)
O15A O -0.1648(2) 0.6586(3) 1.6324(2)
H12A H -0.2023 0.6950 1.6559
H13A H -0.1237 0.6803 1.6179
O16A O 0.4085(3) 0.7197(2) 1.3131(2)
C1A C 0.4260(3) 0.8829(3) 1.6026(3)
O17A O 0.5041(2) 0.6739(2) 1.3828(2)
O18A O -0.0071(2) 0.5069(2) 1.7143(2)
H14A H 0.0017 0.4736 1.6650
H15A H 0.0412 0.5308 1.7373
O20A O 0.7127(2) 0.6286(2) 1.4964(2)
O21A O -0.0105(2) 0.6290(3) 1.6462(2)
C2A C 0.0812(3) 0.8118(3) 1.8582(3)
O22A O 0.6898(3) 0.7314(3) 1.3880(2)
H16A H 0.7312 0.7539 1.3753
H17A H 0.6484 0.7675 1.3913
C3A C 0.1406(3) 0.8710(3) 1.5506(3)
O23A O 0.0921(2) 0.7275(2) 1.9341(2)
C4A C 0.0371(3) 0.8401(3) 1.8128(3)
H18A H -0.0191 0.8217 1.7956
C5A C 0.2025(3) 0.8943(3) 1.8658(3)
O25A O 0.3110(3) 0.9667(3) 1.6606(2)
H19A H 0.3476 0.9855 1.6970
C6A C 0.1576(3) 0.9240(3) 1.8209(3)
N1A N 0.4699(3) 0.5682(3) 1.4720(2)
C7A C 0.2281(3) 0.6005(3) 1.5673(3)
C8A C 0.3367(3) 0.8240(3) 1.4587(3)
H20A H 0.3067 0.8025 1.4099
C9A C 0.0749(3) 0.8953(3) 1.7927(3)
O26A O 0.6033(3) 0.7186(3) 1.7888(4)
N2A N 0.0693(3) 0.6185(3) 1.6256(2)
C10A C 0.4746(3) 0.9155(3) 1.6809(3)
H21A H 0.4688 0.9744 1.7083
H22A H 0.5349 0.9049 1.6707
C11A C 0.0264(3) 0.9239(3) 1.7410(3)
H23A H 0.0370 0.9823 1.7608
H24A H -0.0345 0.9148 1.7440
O27A O 0.1476(3) 0.9872(3) 1.6739(2)
H25A H 0.1685 0.9882 1.7149
O28A O -0.0164(3) 0.6682(3) 1.3866(2)
O29A O 0.0308(2) 0.6130(2) 1.4715(2)
C12A C 0.1993(3) 0.6756(3) 1.6182(3)
H26A H 0.2347 0.7219 1.6329
C13A C 0.4854(3) 0.8141(3) 1.7324(3)
H27A H 0.5282 0.7895 1.6962
C14A C 0.4190(3) 0.8019(3) 1.4628(3)
C15A C 0.1143(3) 0.9139(3) 1.6282(3)
C16A C 0.2985(3) 0.8770(3) 1.5253(3)
C17A C 0.4470(3) 0.8807(3) 1.7347(3)
C18A C 0.3296(3) 0.5218(3) 1.4649(3)
H28A H 0.2869 0.4818 1.4389
C19A C 0.3593(3) 0.8847(3) 1.8390(3)
C20A C 0.0953(3) 0.5445(3) 1.5796(3)
H29A H 0.0590 0.4992 1.5672
C21A C 0.4620(3) 0.7825(3) 1.7827(3)
C22A C 0.1632(3) 0.8384(3) 1.8839(3)
H30A H 0.1929 0.8181 1.9143
O30A O 0.3536(3) 0.9871(3) 1.7983(3)
H31A H 0.3051 0.9919 1.8159
C23A C 0.3441(3) 0.9085(3) 1.5971(3)
C26A C 0.0114(3) 0.8090(3) 1.6051(3)
H34A H -0.0322 0.7870 1.6230
C28A C 0.0346(3) 0.7688(3) 1.5278(3)
C29A C 0.0512(3) 0.8810(3) 1.6564(3)
C31A C 0.1203(3) 0.6833(4) 1.6472(3)
H36A H 0.1018 0.7346 1.6827
C32A C 0.4090(3) 0.5118(3) 1.4358(3)
H37A H 0.4208 0.4647 1.3897
C33A C 0.3117(3) 0.5904(3) 1.5326(3)
N5A N 0.6690(3) 0.6841(3) 1.5435(3)
C35A C 0.2105(3) 0.9051(4) 1.5196(3)
H39A H 0.2109 0.9643 1.5488
H40A H 0.1968 0.8903 1.4642
C36A C 0.4540(4) 0.6358(4) 1.5364(4)
H41A H 0.4975 0.6754 1.5608
C37A C 0.3854(3) 0.9178(3) 1.7907(3)
C38A C 0.2914(3) 0.9241(3) 1.8978(3)
H42A H 0.2953 0.9828 1.9160
H43A H 0.3022 0.9142 1.9436
C39A C 0.0997(3) 0.7987(3) 1.5011(3)
H44A H 0.1165 0.7698 1.4488
C40A C 0.3758(4) 0.6482(4) 1.5671(4)
H45A H 0.3653 0.6966 1.6123
C42A C 0.1747(3) 0.5339(3) 1.5502(3)
H46A H 0.1933 0.4814 1.5181
C44A C 0.4626(3) 0.8302(3) 1.5347(3)
H48A H 0.5179 0.8130 1.5368
O31A O 0.4804(4) 0.6793(5) 1.8371(5)
O32A O 0.4959(3) 0.6329(3) 1.7023(4)
C46A C 0.3980(3) 0.8162(3) 1.8338(3)
H50A H 0.3802 0.7925 1.8658
H53A H -0.178(6) 0.441(3) 1.622(7)
Sm1A_2 Sm 0.89129(2) 0.60857(2) -0.27801(2)
O19A_2 O -0.1491(2) 0.5720(3) 1.8189(2)
Sm3 Sm 0.75475(2) 0.15776(2) -0.18043(2)
O33 O 0.8757(2) 0.2308(3) -0.0882(2)
H54 H 0.9232 0.2204 -0.1135
H55 H 0.8796 0.2154 -0.0511
O34 O 0.7218(2) 0.0414(2) -0.3064(2)
O35 O 0.6338(2) 0.2245(3) -0.2080(2)
H56 H 0.5872 0.2133 -0.1902
H57 H 0.6270 0.2075 -0.2589
O36 O 0.7726(2) 0.1900(2) -0.3008(2)
O37 O 0.6216(2) 0.1029(3) -0.1663(2)
N6 N 0.9186(3) 0.0869(3) -0.3119(2)
O38 O 0.6963(3) 0.2757(3) -0.0591(2)
N7 N 0.6606(3) 0.0295(3) -0.3595(2)
O39 O 0.7374(3) 0.1800(2) -0.0340(2)
O40 O 0.8920(2) 0.1201(3) -0.2393(2)
O41 O 0.8114(3) 0.2855(2) -0.1878(2)
O42 O 0.7906(2) 0.0403(2) -0.1653(2)
C49 C 0.5192(3) 0.0157(3) -0.0252(3)
C50 C 0.9864(3) 0.0512(3) -0.0645(3)
H58 H 1.0410 0.0749 -0.0587
N8 N 0.8037(3) 0.2601(3) -0.2609(3)
O43 O 0.8264(3) 0.3014(3) -0.2924(3)
N9 N 0.5901(3) 0.0743(3) -0.1202(2)
C51 C 0.9822(3) 0.0184(3) -0.4606(3)
C52 C 0.5341(3) 0.0053(3) -0.4711(3)
C53 C 0.6764(3) -0.0123(3) -0.4362(3)
H59 H 0.7304 -0.0334 -0.4518
N10 N 0.8483(3) 0.0297(3) -0.1198(2)
N11 N 0.7079(3) 0.2489(3) -0.0098(3)
C54 C 0.5203(3) 0.0457(3) -0.3918(3)
H60 H 0.4665 0.0664 -0.3748
C55 C 0.9615(4) 0.1337(4) -0.3366(3)
H61 H 0.9693 0.1896 -0.3036
O44 O 0.6890(3) 0.2895(3) 0.0592(2)
C56 C 0.9680(3) 0.0059(3) -0.0253(3)
C57 C 0.8872(3) -0.0285(3) -0.0372(3)
H62 H 0.8723 -0.0612 -0.0130
C58 C 0.9265(3) 0.0621(3) -0.1114(3)
H63 H 0.9403 0.0926 -0.1380
C59 C 0.6059(3) -0.0008(3) -0.1324(3)
H64 H 0.6409 -0.0334 -0.1735
C60 C 0.9939(3) 0.0993(4) -0.4102(3)
H65 H 1.0252 0.1322 -0.4269
C61 C 0.5716(3) -0.0301(3) -0.0856(3)
H66 H 0.5837 -0.0831 -0.0944
C62 C 0.5830(3) 0.0565(3) -0.3368(3)
H67 H 0.5715 0.0831 -0.2829
C63 C 0.6141(3) -0.0244(3) -0.4919(3)
H68 H 0.6260 -0.0538 -0.5455
C64 C 0.8285(3) -0.0153(3) -0.0842(3)
H69 H 0.7735 -0.0385 -0.0913
C65 C 0.9357(3) -0.0269(4) -0.4333(3)
H70 H 0.9254 -0.0825 -0.4659
C66 C 0.5411(4) 0.1210(4) -0.0629(4)
H71 H 0.5312 0.1742 -0.0546
C67 C 0.9042(3) 0.0087(4) -0.3586(3)
H72 H 0.8723 -0.0227 -0.3407
C68 C 0.5046(4) 0.0926(4) -0.0154(4)
H73 H 0.4690 0.1262 0.0245
O34A O 0.2782(2) -0.0414(2) -0.6936(2)
N7A N 0.3394(3) -0.0295(3) -0.6405(2)
C52A C 0.4659(3) -0.0053(3) -0.5289(3)
C53A C 0.3236(3) 0.0123(3) -0.5638(3)
H59A H 0.2696 0.0334 -0.5482
C54A C 0.4797(3) -0.0457(3) -0.6082(3)
H60A H 0.5335 -0.0664 -0.6252
C62A C 0.4170(3) -0.0565(3) -0.6632(3)
H67A H 0.4285 -0.0831 -0.7171
C63A C 0.3859(3) 0.0244(3) -0.5081(3)
H68A H 0.3740 0.0538 -0.4545
O37A O 0.3784(2) -0.1029(3) 0.1663(2)
C49A C 0.4808(3) -0.0157(3) 0.0252(3)
N9A N 0.4099(3) -0.0743(3) 0.1202(2)
C59A C 0.3941(3) 0.0008(3) 0.1324(3)
H64A H 0.3591 0.0334 0.1735
C61A C 0.4284(3) 0.0301(3) 0.0856(3)
H66A H 0.4163 0.0831 0.0944
C66A C 0.4589(4) -0.1210(4) 0.0629(4)
H71A H 0.4688 -0.1742 0.0546
C68A C 0.4954(4) -0.0926(4) 0.0154(4)
H73A H 0.5310 -0.1262 -0.0245
N6A N 1.0814(3) -0.0869(3) -0.6881(2)
O40A O 1.1080(2) -0.1201(3) -0.7607(2)
C51A C 1.0178(3) -0.0184(3) -0.5394(3)
C55A C 1.0385(4) -0.1337(4) -0.6634(3)
H61A H 1.0307 -0.1896 -0.6964
C60A C 1.0061(3) -0.0993(4) -0.5898(3)
H65A H 0.9748 -0.1322 -0.5731
C65A C 1.0643(3) 0.0269(4) -0.5667(3)
H70A H 1.0746 0.0825 -0.5341
C67A C 1.0958(3) -0.0087(4) -0.6414(3)
H72A H 1.1277 0.0227 -0.6593
O42A O 1.2094(2) -0.0403(2) 0.1653(2)
C50A C 1.0136(3) -0.0512(3) 0.0645(3)
H58A H 0.9590 -0.0749 0.0587
N10A N 1.1517(3) -0.0297(3) 0.1198(2)
C56A C 1.0320(3) -0.0059(3) 0.0253(3)
C57A C 1.1128(3) 0.0285(3) 0.0372(3)
H62A H 1.1277 0.0612 0.0130
C58A C 1.0735(3) -0.0621(3) 0.1114(3)
H63A H 1.0597 -0.0926 0.1380
C64A C 1.1715(3) 0.0153(3) 0.0842(3)
H69A H 1.2265 0.0385 0.0913
Sm3A Sm 0.24525(2) -0.15776(2) -0.81957(2)
O33A O 0.1243(2) -0.2308(3) -0.9118(2)
H54A H 0.0768 -0.2204 -0.8865
H55A H 0.1204 -0.2154 -0.9489
O35A O 0.3662(2) -0.2245(3) -0.7920(2)
H56A H 0.4128 -0.2133 -0.8098
H57A H 0.3730 -0.2075 -0.7411
O36A O 0.2274(2) -0.1900(2) -0.6992(2)
O38A O 0.3037(3) -0.2757(3) -0.9409(2)
O39A O 0.2626(3) -0.1800(2) -0.9660(2)
O41A O 0.1886(3) -0.2855(2) -0.8122(2)
N8A N 0.1963(3) -0.2601(3) -0.7391(3)
O43A O 0.1736(3) -0.3014(3) -0.7076(3)
N11A N 0.2921(3) -0.2489(3) -0.9902(3)
O44A O 0.3110(3) -0.2895(3) -1.0592(2)
Sm3A_2 Sm 0.24525(2) -0.15776(2) 0.18043(2)
Sm3A_3 Sm 1.24525(2) -0.15776(2) -0.81957(2)
Sm3A_4 Sm 1.24525(2) -0.15776(2) 0.18043(2)
O37A_2 O 0.3784(2) -0.1029(3) -0.8337(2)
O40A_2 O 0.1080(2) -0.1201(3) -0.7607(2)
O42A_2 O 0.2094(2) -0.0403(2) -0.8347(2)
O45 O 0.6463(2) 0.4967(3) -0.2523(2)
O46 O 0.8609(3) 0.5022(3) 0.2232(2)
N12 N 0.6673(3) 0.5019(3) -0.1820(3)
C69 C 0.7754(3) 0.5800(4) 0.0983(3)
H74 H 0.7573 0.6298 0.1019
C70 C 0.7678(3) 0.5102(3) 0.0272(3)
N13 N 0.8350(3) 0.5066(3) 0.1587(3)
C71 C 0.6853(4) 0.5738(4) -0.1211(3)
H75 H 0.6773 0.6213 -0.1265
C72 C 0.8343(4) 0.4391(4) 0.0901(3)
H76 H 0.8569 0.3913 0.0876
C73 C 0.6998(4) 0.4363(3) -0.1059(3)
H77 H 0.7017 0.3881 -0.1008
C74 C 0.7269(3) 0.5091(3) -0.0433(3)
C75 C 0.8011(3) 0.4402(3) 0.0245(3)
H78 H 0.8006 0.3927 -0.0237
C76 C 0.7149(4) 0.5792(4) -0.0515(3)
H79 H 0.7273 0.6303 -0.0088
C77 C 0.6706(4) 0.4343(4) -0.1744(3)
H80 H 0.6527 0.3847 -0.2167
C78 C 0.8093(3) 0.5759(4) 0.1628(3)
H81 H 0.8146 0.6232 0.2110
O47 O 0.2780(3) 0.1726(3) 0.2096(3)
H82 H 0.321(5) 0.201(7) 0.218(7)
H83 H 0.274(8) 0.157(8) 0.243(6)
O48 O 0.2068(3) 0.1840(3) 0.4652(3)
H84 H 0.245(5) 0.203(7) 0.499(6)
H85 H 0.168(5) 0.216(6) 0.479(7)
O49 O 0.2661(3) 0.6237(3) 0.3744(3)
H86 H 0.2495 0.6594 0.3602
H87 H 0.2968 0.5890 0.3384
O50 O 0.2309(4) 0.6308(4) 0.7764(3)
H88 H 0.251(8) 0.659(7) 0.821(3)
H89 H 0.187(5) 0.609(8) 0.780(7)
O51 O 0.1456(4) 0.2574(4) 0.6716(3)
H90 H 0.117(7) 0.271(9) 0.711(4)
H91 H 0.112(6) 0.251(9) 0.635(5)
O52 O 0.9403(4) 0.7816(4) 0.1097(3)
N14 N 0.9182(5) 0.7718(5) 0.1661(4)
O53 O 0.9558(6) 0.7250(4) 0.1817(4)
O54 O 0.8483(10) 0.7842(12) 0.1977(13)
O55 O 0.8160(5) 0.8651(4) 0.0663(5)
H92 H 0.8515 0.8510 0.0924
H93 H 0.7996 0.8232 0.0236
O56 O 0.4465(6) 0.2878(5) 0.0107(5)
O57 O 0.2492(8) 0.1131(4) 0.3101(4)
O58 O 0.5432(7) 0.8072(8) 0.2081(9)
O59 O 0.3137(8) 0.1944(10) 0.0455(5)
O60 O 0.7037(11) 0.7630(8) 0.1126(10)
O61 O 0.7104(12) 0.8704(9) 0.3251(10)
O62? O 0.5212(8) 0.7657(9) 0.1487(10)
O63? O 0.8849(12) 0.8349(11) 0.2167(8)
O64? O 0.7788(11) 0.8933(9) 0.3662(10)
O65? O 0.6501(14) 0.8728(14) 0.2490(13)
loop_
_geom_bond_atom_site_label_1
_geom_bond_atom_site_label_2
_geom_bond_site_symmetry_1
_geom_bond_site_symmetry_2
Sm1 O1 1_555 1_555
Sm2 O2 1_555 1_555
S1 O12 1_555 1_555
S2 O1 1_555 1_555
S3 O8 1_555 1_555
S4 O26 1_555 1_555
O2 H1 1_555 1_555
H2 O2 1_555 1_555
O3 C6 1_555 1_555
O4 S2 1_555 1_555
O5 Sm2 1_555 1_555
H3 O5 1_555 1_555
H4 O5 1_555 1_555
O6 Sm1 1_555 1_555
H5 O6 1_555 1_555
H6 O6 1_555 1_555
O7 Sm2 1_555 1_555
H7 O7 1_555 1_555
H8 O7 1_555 1_555
O9 Sm2 1_555 1_555
O10 Sm2 1_555 1_555
O11 Sm1 1_555 1_555
H9 O11 1_555 1_555
H10 O11 1_555 1_555
O13 Sm1 1_555 1_555
H11 O13 1_555 1_555
O14 N5 1_555 1_555
O15 Sm1 1_555 1_555
H12 O15 1_555 1_555
H13 O15 1_555 1_555
O16 S1 1_555 1_555
C1 C10 1_555 1_555
O17 Sm2 1_555 1_555
O18 Sm1 1_555 1_555
H14 O18 1_555 1_555
H15 O18 1_555 1_555
O19 Sm1 1_555 1_555
O20 Sm2 1_555 1_555
O21 Sm1 1_555 1_555
C2 S2 1_555 1_555
O22 Sm2 1_555 1_555
H16 O22 1_555 1_555
H17 O22 1_555 1_555
C3 C15 1_555 1_555
O23 S2 1_555 1_555
C4 C2 1_555 1_555
H18 C4 1_555 1_555
C5 C6 1_555 1_555
O24 Sm2 1_555 1_555
O25 H19 1_555 1_555
C6 C9 1_555 1_555
N1 O10 1_555 1_555
C7 C12 1_555 1_555
C8 H20 1_555 1_555
C9 C4 1_555 1_555
N2 O21 1_555 1_555
C10 H21 1_555 1_555
H22 C10 1_555 1_555
C11 C9 1_555 1_555
H23 C11 1_555 1_555
H24 C11 1_555 1_555
O27 H25 1_555 1_555
N3 O19 1_555 1_555
O28 S3 1_555 1_555
O29 S3 1_555 1_555
C12 H26 1_555 1_555
C13 H27 1_555 1_555
C14 S1 1_555 1_555
C15 O27 1_555 1_555
C16 C8 1_555 1_555
C17 C10 1_555 1_555
C18 H28 1_555 1_555
C19 C37 1_555 1_555
C20 N2 1_555 1_555
H29 C20 1_555 1_555
C21 S4 1_555 1_555
C22 C2 1_555 1_555
H30 C22 1_555 1_555
O30 H31 1_555 1_555
C23 C1 1_555 1_555
C24 H32 1_555 1_555
C25 H33 1_555 1_555
C26 H34 1_555 1_555
C27 C24 1_555 1_555
C28 S3 1_555 1_555
C29 C11 1_555 1_555
C30 C27 1_555 1_555
H35 C30 1_555 1_555
C31 N2 1_555 1_555
H36 C31 1_555 1_555
N4 O24 1_555 1_555
C32 N1 1_555 1_555
H37 C32 1_555 1_555
C33 C7 1_555 1_555
C34 N3 1_555 1_555
H38 C34 1_555 1_555
N5 O9 1_555 1_555
C35 C3 1_555 1_555
H39 C35 1_555 1_555
H40 C35 1_555 1_555
C36 N1 1_555 1_555
H41 C36 1_555 1_555
C37 C17 1_555 1_555
C38 C5 1_555 1_555
H42 C38 1_555 1_555
H43 C38 1_555 1_555
C39 C3 1_555 1_555
H44 C39 1_555 1_555
C40 C33 1_555 1_555
H45 C40 1_555 1_555
C41 C25 1_555 1_555
C42 C7 1_555 1_555
H46 C42 1_555 1_555
C43 C25 1_555 1_555
H47 C43 1_555 1_555
C44 C1 1_555 1_555
H48 C44 1_555 1_555
C45 N3 1_555 1_555
H49 C45 1_555 1_555
O31 S4 1_555 1_555
O32 S4 1_555 1_555
C46 C19 1_555 1_555
H50 C46 1_555 1_555
C47 N4 1_555 1_555
H51 C47 1_555 1_555
C48 C41 1_555 1_555
H52 C48 1_555 1_555
H53 O13 1_555 1_555
Sm3 O33 1_555 1_555
O33 H54 1_555 1_555
H55 O33 1_555 1_555
O34 Sm3 1_555 1_555
O35 Sm3 1_555 1_555
H56 O35 1_555 1_555
H57 O35 1_555 1_555
O36 Sm3 1_555 1_555
O37 Sm3 1_555 1_555
N6 O40 1_555 1_555
O38 Sm3 1_555 1_555
N7 O34 1_555 1_555
O39 Sm3 1_555 1_555
O40 Sm3 1_555 1_555
O41 Sm3 1_555 1_555
O42 Sm3 1_555 1_555
C49 C61 1_555 1_555
C50 H58 1_555 1_555
N8 O36 1_555 1_555
O43 N8 1_555 1_555
N9 O37 1_555 1_555
C51 C60 1_555 1_555
C52 C54 1_555 1_555
C53 N7 1_555 1_555
H59 C53 1_555 1_555
N10 O42 1_555 1_555
N11 O38 1_555 1_555
C54 H60 1_555 1_555
C55 N6 1_555 1_555
H61 C55 1_555 1_555
O44 N11 1_555 1_555
C56 C50 1_555 1_555
C57 C56 1_555 1_555
H62 C57 1_555 1_555
C58 C50 1_555 1_555
H63 C58 1_555 1_555
C59 N9 1_555 1_555
H64 C59 1_555 1_555
C60 C55 1_555 1_555
H65 C60 1_555 1_555
C61 C59 1_555 1_555
H66 C61 1_555 1_555
C62 N7 1_555 1_555
H67 C62 1_555 1_555
C63 C52 1_555 1_555
H68 C63 1_555 1_555
C64 N10 1_555 1_555
H69 C64 1_555 1_555
C65 C51 1_555 1_555
H70 C65 1_555 1_555
C66 N9 1_555 1_555
H71 C66 1_555 1_555
C67 N6 1_555 1_555
H72 C67 1_555 1_555
C68 C49 1_555 1_555
H73 C68 1_555 1_555
O45 N12 1_555 1_555
O46 N13 1_555 1_555
N12 C71 1_555 1_555
C69 H74 1_555 1_555
C70 C69 1_555 1_555
N13 C72 1_555 1_555
C71 H75 1_555 1_555
C72 H76 1_555 1_555
C73 H77 1_555 1_555
C74 C70 1_555 1_555
C75 C70 1_555 1_555
H78 C75 1_555 1_555
C76 C71 1_555 1_555
H79 C76 1_555 1_555
C77 N12 1_555 1_555
H80 C77 1_555 1_555
C78 C69 1_555 1_555
H81 C78 1_555 1_555
O47 H82 1_555 1_555
H83 O47 1_555 1_555
O48 H84 1_555 1_555
H85 O48 1_555 1_555
O49 H86 1_555 1_555
H87 O49 1_555 1_555
O50 H88 1_555 1_555
H89 O50 1_555 1_555
O51 H90 1_555 1_555
H91 O51 1_555 1_555
O52 N14 1_555 1_555
N14 O53 1_555 1_555
O54 N14 1_555 1_555
O55 H92 1_555 1_555
H93 O55 1_555 1_555
O19A N3A 1_555 1_555
N3A C34A 1_555 1_555
C24A H32A 1_555 1_555
C27A C27 1_555 1_555
C30A C27A 1_555 1_555
H35A C30A 1_555 1_555
C34A C24A 1_555 1_555
H38A C34A 1_555 1_555
C45A N3A 1_555 1_555
H49A C45A 1_555 1_555
O24A N4A 1_555 1_555
C25A H33A 1_555 1_555
N4A C43A 1_555 1_555
C41A C41 1_555 1_555
C43A C25A 1_555 1_555
H47A C43A 1_555 1_555
C47A N4A 1_555 1_555
H51A C47A 1_555 1_555
C48A C41A 1_555 1_555
H52A C48A 1_555 1_555
Sm1A O1A 1_555 1_555
Sm2A O24A 1_555 1_555
S1A O12A 1_555 1_555
S2A O1A 1_555 1_555
S3A O8A 1_555 1_555
S4A O26A 1_555 1_555
O2A Sm2A 1_555 1_555
H1A O2A 1_555 1_555
H2A O2A 1_555 1_555
O3A C6A 1_555 1_555
O4A S2A 1_555 1_555
O5A Sm2A 1_555 1_555
H3A O5A 1_555 1_555
H4A O5A 1_555 1_555
O6A Sm1A 1_555 1_555
H5A O6A 1_555 1_555
H6A O6A 1_555 1_555
O7A Sm2A 1_555 1_555
H7A O7A 1_555 1_555
H8A O7A 1_555 1_555
O9A Sm2A 1_555 1_555
O10A Sm2A 1_555 1_555
O11A Sm1A 1_555 1_555
H9A O11A 1_555 1_555
H10A O11A 1_555 1_555
O13A Sm1A 1_555 1_555
H11A O13A 1_555 1_555
O14A N5A 1_555 1_555
O15A Sm1A 1_555 1_555
H12A O15A 1_555 1_555
H13A O15A 1_555 1_555
O16A S1A 1_555 1_555
C1A C10A 1_555 1_555
O17A Sm2A 1_555 1_555
O18A Sm1A 1_555 1_555
H14A O18A 1_555 1_555
H15A O18A 1_555 1_555
O20A Sm2A 1_555 1_555
O21A Sm1A 1_555 1_555
C2A S2A 1_555 1_555
O22A Sm2A 1_555 1_555
H16A O22A 1_555 1_555
H17A O22A 1_555 1_555
C3A C15A 1_555 1_555
O23A S2A 1_555 1_555
C4A C2A 1_555 1_555
H18A C4A 1_555 1_555
C5A C6A 1_555 1_555
O25A H19A 1_555 1_555
C6A C9A 1_555 1_555
N1A O10A 1_555 1_555
C7A C12A 1_555 1_555
C8A H20A 1_555 1_555
C9A C4A 1_555 1_555
N2A O21A 1_555 1_555
C10A H21A 1_555 1_555
H22A C10A 1_555 1_555
C11A C9A 1_555 1_555
H23A C11A 1_555 1_555
H24A C11A 1_555 1_555
O27A H25A 1_555 1_555
O28A S3A 1_555 1_555
O29A S3A 1_555 1_555
C12A H26A 1_555 1_555
C13A H27A 1_555 1_555
C14A S1A 1_555 1_555
C15A O27A 1_555 1_555
C16A C8A 1_555 1_555
C17A C10A 1_555 1_555
C18A H28A 1_555 1_555
C19A C37A 1_555 1_555
C20A N2A 1_555 1_555
H29A C20A 1_555 1_555
C21A S4A 1_555 1_555
C22A C2A 1_555 1_555
H30A C22A 1_555 1_555
O30A H31A 1_555 1_555
C23A C1A 1_555 1_555
C26A H34A 1_555 1_555
C28A S3A 1_555 1_555
C29A C11A 1_555 1_555
C31A N2A 1_555 1_555
H36A C31A 1_555 1_555
C32A N1A 1_555 1_555
H37A C32A 1_555 1_555
C33A C7A 1_555 1_555
N5A O9A 1_555 1_555
C35A C3A 1_555 1_555
H39A C35A 1_555 1_555
H40A C35A 1_555 1_555
C36A N1A 1_555 1_555
H41A C36A 1_555 1_555
C37A C17A 1_555 1_555
C38A C5A 1_555 1_555
H42A C38A 1_555 1_555
H43A C38A 1_555 1_555
C39A C3A 1_555 1_555
H44A C39A 1_555 1_555
C40A C33A 1_555 1_555
H45A C40A 1_555 1_555
C42A C7A 1_555 1_555
H46A C42A 1_555 1_555
C44A C1A 1_555 1_555
H48A C44A 1_555 1_555
O31A S4A 1_555 1_555
O32A S4A 1_555 1_555
C46A C19A 1_555 1_555
H50A C46A 1_555 1_555
H53A O13A 1_555 1_555
Sm1A_2 O19A 1_555 1_555
O19A_2 Sm1A 1_555 1_555
O34A N7A 1_555 1_555
N7A C53A 1_555 1_555
C52A C52 1_555 1_555
C53A H59A 1_555 1_555
C54A C52A 1_555 1_555
H60A C54A 1_555 1_555
C62A N7A 1_555 1_555
H67A C62A 1_555 1_555
C63A C52A 1_555 1_555
H68A C63A 1_555 1_555
O37A N9A 1_555 1_555
C49A C49 1_555 1_555
N9A C59A 1_555 1_555
C59A H64A 1_555 1_555
C61A C49A 1_555 1_555
H66A C61A 1_555 1_555
C66A N9A 1_555 1_555
H71A C66A 1_555 1_555
C68A C49A 1_555 1_555
H73A C68A 1_555 1_555
N6A O40A 1_555 1_555
O40A Sm3A_3 1_555 1_555
C51A C51 1_555 1_555
C55A N6A 1_555 1_555
H61A C55A 1_555 1_555
C60A C51A 1_555 1_555
H65A C60A 1_555 1_555
C65A C51A 1_555 1_555
H70A C65A 1_555 1_555
C67A N6A 1_555 1_555
H72A C67A 1_555 1_555
O42A N10A 1_555 1_555
C50A H58A 1_555 1_555
N10A C58A 1_555 1_555
C56A C56 1_555 1_555
C57A C56A 1_555 1_555
H62A C57A 1_555 1_555
C58A C50A 1_555 1_555
H63A C58A 1_555 1_555
C64A N10A 1_555 1_555
H69A C64A 1_555 1_555
Sm3A O34A 1_555 1_555
O33A Sm3A 1_555 1_555
H54A O33A 1_555 1_555
H55A O33A 1_555 1_555
O35A Sm3A 1_555 1_555
H56A O35A 1_555 1_555
H57A O35A 1_555 1_555
O36A Sm3A 1_555 1_555
O38A Sm3A 1_555 1_555
O39A Sm3A 1_555 1_555
O41A Sm3A 1_555 1_555
N8A O36A 1_555 1_555
O43A N8A 1_555 1_555
N11A O38A 1_555 1_555
O44A N11A 1_555 1_555
Sm3A_2 O37A 1_555 1_555
Sm3A_4 O42A 1_555 1_555
O37A_2 Sm3A 1_555 1_555
O40A_2 Sm3A 1_555 1_555
O42A_2 Sm3A 1_555 1_555
S1 O17 1_555 1_555
O20 N5 1_555 1_555
C5 C22 1_555 1_555
O25 C23 1_555 1_555
C8 C14 1_555 1_555
C12 C31 1_555 1_555
C13 C17 1_555 1_555
C13 C21 1_555 1_555
C14 C44 1_555 1_555
C15 C29 1_555 1_555
C16 C23 1_555 1_555
C16 C35 1_555 1_555
C18 C32 1_555 1_555
C18 C33 1_555 1_555
C19 C38 1_555 1_555
C20 C42 1_555 1_555
C21 C46 1_555 1_555
O30 C37 1_555 1_555
C24 C34 1_555 1_555
C26 C28 1_555 1_555
C26 C29 1_555 1_555
C28 C39 1_555 1_555
C30 C45 1_555 1_555
N4 C43 1_555 1_555
C36 C40 1_555 1_555
C47 C48 1_555 1_555
O39 N11 1_555 1_555
O41 N8 1_555 1_555
C53 C63 1_555 1_555
N10 C58 1_555 1_555
C54 C62 1_555 1_555
C57 C64 1_555 1_555
C65 C67 1_555 1_555
C66 C68 1_555 1_555
N13 C78 1_555 1_555
C72 C75 1_555 1_555
C73 C74 1_555 1_555
C73 C77 1_555 1_555
C74 C76 1_555 1_555
C24A C27A 1_555 1_555
C30A C45A 1_555 1_555
C25A C41A 1_555 1_555
C47A C48A 1_555 1_555
S1A O17A 1_555 1_555
O20A N5A 1_555 1_555
C5A C22A 1_555 1_555
O25A C23A 1_555 1_555
C8A C14A 1_555 1_555
C12A C31A 1_555 1_555
C13A C17A 1_555 1_555
C13A C21A 1_555 1_555
C14A C44A 1_555 1_555
C15A C29A 1_555 1_555
C16A C23A 1_555 1_555
C16A C35A 1_555 1_555
C18A C32A 1_555 1_555
C18A C33A 1_555 1_555
C19A C38A 1_555 1_555
C20A C42A 1_555 1_555
C21A C46A 1_555 1_555
O30A C37A 1_555 1_555
C26A C28A 1_555 1_555
C26A C29A 1_555 1_555
C28A C39A 1_555 1_555
C36A C40A 1_555 1_555
C53A C63A 1_555 1_555
C54A C62A 1_555 1_555
C59A C61A 1_555 1_555
C66A C68A 1_555 1_555
C55A C60A 1_555 1_555
C65A C67A 1_555 1_555
C50A C56A 1_555 1_555
C57A C64A 1_555 1_555
O39A N11A 1_555 1_555
O41A N8A 1_555 1_555

#END
