
#######################################################################
#
#                 Cambridge Crystallographic Data Centre
#                                CCDC 
#
#######################################################################
#
# If this CIF has been generated from an entry in the Cambridge 
# Structural Database, then it will include bibliographic, chemical, 
# crystal, experimental, refinement or atomic coordinate data resulting 
# from the CCDC's data processing and validation procedures.
#
#######################################################################

data_SUBZUM
_symmetry_cell_setting           orthorhombic
_symmetry_space_group_name_H-M   'P 21 21 21'
_symmetry_Int_Tables_number      19
_space_group_name_Hall           'P 2ac 2ab'
loop_
_symmetry_equiv_pos_site_id
_symmetry_equiv_pos_as_xyz
1 x,y,z
2 1/2+x,1/2-y,-z
3 -x,1/2+y,1/2-z
4 1/2-x,-y,1/2+z
_cell_length_a                   9.0265(18)
_cell_length_b                   10.762(2)
_cell_length_c                   20.874(4)
_cell_angle_alpha                90
_cell_angle_beta                 90
_cell_angle_gamma                90
_cell_volume                     2027.77
loop_
_atom_site_label
_atom_site_type_symbol
_atom_site_fract_x
_atom_site_fract_y
_atom_site_fract_z
C1 C 0.6325(6) 0.6533(4) 0.73102(18)
H1 H 0.7010(6) 0.6871(4) 0.70118(18)
C2 C 0.4911(6) 0.5516(4) 0.81333(19)
H2 H 0.4578(6) 0.5031(4) 0.84850(19)
C3 C 0.4795(7) 0.6792(4) 0.7344(2)
H3 H 0.4331(7) 0.7348(4) 0.7054(2)
N1 N 0.4025(5) 0.6215(4) 0.7807(2)
S1 S 0.67009(15) 0.55214(13) 0.78940(6)
Ce1 Ce 0.485937(15) 0.714222(12) 0.471417(6)
Cl1 Cl 0.49342(9) 0.95065(6) 0.42266(4)
C4 C 0.6007(4) 0.3993(3) 0.43222(18)
H4 H 0.6938(4) 0.4368(3) 0.42339(18)
N2 N 0.4900(3) 0.5615(2) 0.57126(10)
C5 C 0.3729(4) 0.5161(3) 0.60143(16)
H5 H 0.2769(4) 0.5508(3) 0.59635(16)
Cl2 Cl 0.78831(7) 0.67181(7) 0.43466(3)
N3 N 0.4794(3) 0.4680(2) 0.44308(11)
C6 C 0.4166(4) 0.5934(3) 0.30823(16)
H6 H 0.3512(4) 0.5356(3) 0.32778(16)
C7 C 0.3636(4) 0.3931(3) 0.45415(18)
H7 H 0.2677(4) 0.4262(3) 0.46200(18)
C8 C 0.5764(4) 0.7473(3) 0.30329(15)
H8 H 0.6369(4) 0.8129(3) 0.31878(15)
S2 S 0.57025(18) 0.71084(19) 0.22716(7)
Cl3 Cl 0.68687(7) 0.82620(7) 0.56618(3)
C9 C 0.6120(3) 0.4960(3) 0.58731(17)
H9 H 0.7064(3) 0.5155(3) 0.56989(17)
C10 C 0.5918(3) 0.3902(2) 0.63433(12)
H10 H 0.6640(3) 0.3353(2) 0.65153(12)
S3 S 0.40371(13) 0.39522(12) 0.64848(6)
N4 N 0.4915(3) 0.6796(2) 0.34236(10)
C11 C 0.39137(19) 0.24818(15) 0.45375(9)
H11 H 0.32554(19) 0.18092(15) 0.46139(9)
S4 S 0.58190(15) 0.24927(11) 0.43479(7)
C12 C 0.4455(2) 0.59523(18) 0.23330(8)
H12 H 0.4037(2) 0.54469(18) 0.20066(8)
Ce1A Ce 0.985937(15) 0.785778(12) 0.528583(6)
Cl2A Cl 0.28831(7) 0.82819(7) 0.56534(3)
Cl3A Cl 0.18687(7) 0.67380(7) 0.43382(3)
C13? C 0.57025(18) 0.71084(19) 0.22716(7)
H13? H 0.62082(18) 0.74421(19) 0.19114(7)
S5? S 0.5918(3) 0.3902(2) 0.63433(12)
C14? C 0.40371(13) 0.39522(12) 0.64848(6)
H14? H 0.34006(13) 0.34585(12) 0.67428(6)
S6? S 0.39137(19) 0.24818(15) 0.45375(9)
C15? C 0.58190(15) 0.24927(11) 0.43479(7)
H15? H 0.65075(15) 0.18372(11) 0.42824(7)
S7? S 0.4455(2) 0.59523(18) 0.23330(8)
loop_
_geom_bond_atom_site_label_1
_geom_bond_atom_site_label_2
_geom_bond_site_symmetry_1
_geom_bond_site_symmetry_2
C1 H1 1_555 1_555
C2 H2 1_555 1_555
C3 C1 1_555 1_555
H3 C3 1_555 1_555
N1 C2 1_555 1_555
S1 C1 1_555 1_555
Ce1 Cl1 1_555 1_555
C4 H4 1_555 1_555
N2 Ce1 1_555 1_555
C5 N2 1_555 1_555
H5 C5 1_555 1_555
Cl2 Ce1 1_555 1_555
N3 Ce1 1_555 1_555
C6 H6 1_555 1_555
C7 N3 1_555 1_555
H7 C7 1_555 1_555
C8 H8 1_555 1_555
S2 C8 1_555 1_555
Cl3 Ce1 1_555 1_555
C9 N2 1_555 1_555
H9 C9 1_555 1_555
C10 C9 1_555 1_555
H10 C10 1_555 1_555
S3 C5 1_555 1_555
N4 Ce1 1_555 1_555
C11 C7 1_555 1_555
H11 C11 1_555 1_555
S4 C4 1_555 1_555
C12 C6 1_555 1_555
H12 C12 1_555 1_555
Ce1A Cl2 1_555 1_555
Cl2A Ce1 1_555 1_555
Cl3A Ce1 1_555 1_555
C2 S1 1_555 1_555
C3 N1 1_555 1_555
C4 N3 1_555 1_555
C6 N4 1_555 1_555
C8 N4 1_555 1_555
S2 C12 1_555 1_555
Cl3 Ce1A 1_555 1_555
C10 S3 1_555 1_555
C11 S4 1_555 1_555

#END
