
#######################################################################
#
#                 Cambridge Crystallographic Data Centre
#                                CCDC 
#
#######################################################################
#
# If this CIF has been generated from an entry in the Cambridge 
# Structural Database, then it will include bibliographic, chemical, 
# crystal, experimental, refinement or atomic coordinate data resulting 
# from the CCDC's data processing and validation procedures.
#
#######################################################################

data_SUCCUR
_symmetry_cell_setting           orthorhombic
_symmetry_space_group_name_H-M   'P b c n'
_symmetry_Int_Tables_number      60
_space_group_name_Hall           '-P 2n 2ab'
loop_
_symmetry_equiv_pos_site_id
_symmetry_equiv_pos_as_xyz
1 x,y,z
2 1/2-x,1/2-y,1/2+z
3 1/2+x,1/2-y,-z
4 -x,y,1/2-z
5 -x,-y,-z
6 1/2+x,1/2+y,1/2-z
7 1/2-x,1/2+y,z
8 x,-y,1/2+z
_cell_length_a                   7.583(2)
_cell_length_b                   9.491(3)
_cell_length_c                   10.890(3)
_cell_angle_alpha                90
_cell_angle_beta                 90
_cell_angle_gamma                90
_cell_volume                     783.756
loop_
_atom_site_label
_atom_site_type_symbol
_atom_site_fract_x
_atom_site_fract_y
_atom_site_fract_z
U1 U 0.00000 0.10340 0.25000
O1 O 0.11930 0.10630 0.38630
O2 O 0.25420 0.02450 0.14280
O3 O 0.33750 -0.19320 0.18420
O4 O 0.00000 -0.15690 0.25000
C1 C 0.35530 -0.08060 0.12250
C2 C 0.51690 -0.06700 0.03630
O1C O -0.11930 0.10630 0.11370
O2C O -0.25420 0.02450 0.35720
O3E O -0.16250 0.30680 0.31580
O3F O 0.16250 0.30680 0.18420
C2D C 0.48310 0.06700 -0.03630
U1F U 0.50000 -0.39660 0.25000
C1D C 0.64470 0.08060 -0.12250
O2D O 0.74580 -0.02450 -0.14280
O3D O 0.66250 0.19320 -0.18420
U1D U 1.00000 -0.10340 -0.25000
U1B U 0.50000 0.39660 -0.25000
loop_
_geom_bond_atom_site_label_1
_geom_bond_atom_site_label_2
_geom_bond_site_symmetry_1
_geom_bond_site_symmetry_2
U1 O1 1_555 1_555
O2 U1 1_555 1_555
O3 C1 1_555 1_555
O4 U1 1_555 1_555
C1 O2 1_555 1_555
C2 C1 1_555 1_555
O1C U1 1_555 1_555
O2C U1 1_555 1_555
O3E U1 1_555 1_555
O3F U1 1_555 1_555
C2D C2 1_555 1_555
U1F O3 1_555 1_555
C1D C2D 1_555 1_555
O2D C1D 1_555 1_555
O3D C1D 1_555 1_555
U1D O2D 1_555 1_555
U1B O3D 1_555 1_555

#END
