
#######################################################################
#
#                 Cambridge Crystallographic Data Centre
#                                CCDC 
#
#######################################################################
#
# If this CIF has been generated from an entry in the Cambridge 
# Structural Database, then it will include bibliographic, chemical, 
# crystal, experimental, refinement or atomic coordinate data resulting 
# from the CCDC's data processing and validation procedures.
#
#######################################################################

data_SUCECU
_symmetry_cell_setting           monoclinic
_symmetry_space_group_name_H-M   'P 21/c'
_symmetry_Int_Tables_number      14
_space_group_name_Hall           '-P 2ybc'
loop_
_symmetry_equiv_pos_site_id
_symmetry_equiv_pos_as_xyz
1 x,y,z
2 -x,1/2+y,1/2-z
3 -x,-y,-z
4 x,1/2-y,1/2+z
_cell_length_a                   15.803(6)
_cell_length_b                   7.129(2)
_cell_length_c                   16.003(10)
_cell_angle_alpha                90
_cell_angle_beta                 112.58(4)
_cell_angle_gamma                90
_cell_volume                     1664.69
loop_
_atom_site_label
_atom_site_type_symbol
_atom_site_fract_x
_atom_site_fract_y
_atom_site_fract_z
Cu1 Cu 0.17138 0.18526 0.01362
O1 O 0.19867 0.02917 -0.07502
O2 O 0.07533 -0.10341 -0.06729
O3 O 0.08516 -0.66743 -0.09027
O4 O 0.21133 -0.49920 -0.05125
N1 N 0.11636 0.28849 0.09726
N2 N 0.27650 0.08867 0.12784
C1 C 0.18260 0.26785 0.19271
C2 C 0.23717 0.09028 0.19963
C3 C 0.35393 0.22815 0.15205
C4 C 0.40335 0.23152 0.08799
H1 H 0.06700 0.20700 0.09000
H2 H 0.10000 0.42200 0.09000
H3 H 0.14700 0.26300 0.23200
H4 H 0.22400 0.39500 0.21200
H5 H 0.28700 0.07100 0.25700
H6 H 0.19500 -0.02100 0.18400
H7 H 0.39800 0.19200 0.21200
H8 H 0.32900 0.35800 0.14800
H9 H 0.44200 0.35700 0.10600
H10 H 0.36400 0.26000 0.04100
H11 H 0.43700 0.10800 0.09800
C5 C 0.30704 -0.10500 0.11677
C6 C 0.38335 -0.18476 0.20183
C7 C 0.13427 -0.09141 -0.10128
C8 C 0.12961 -0.21692 -0.17958
C9 C 0.08068 -0.40142 -0.18153
C10 C 0.13086 -0.52720 -0.10168
H12 H 0.33500 -0.09600 0.07200
H13 H 0.25000 -0.18600 0.10200
H14 H 0.35400 -0.22700 0.24400
H15 H 0.43800 -0.11300 0.22200
H16 H 0.40100 -0.31700 0.18400
H17 H 0.19600 -0.24500 -0.17500
H18 H 0.10300 -0.14200 -0.23000
H19 H 0.01700 -0.38700 -0.18300
H20 H 0.07200 -0.47600 -0.23800
O3_2 O 0.08516 0.33257 -0.09027
O4_2 O 0.21133 0.50080 -0.05125
Cu1_2 Cu 0.17138 -0.81474 0.01362
O5 O 0.09145 -0.30219 0.09374
H21 H 0.04100 -0.28900 0.09400
H22 H 0.08600 -0.24600 0.06000
O6 O 0.34857 0.00618 -0.13148
O7 O 0.46246 -0.67494 -0.09960
O8 O 0.37551 -0.36160 0.05843
loop_
_geom_bond_atom_site_label_1
_geom_bond_atom_site_label_2
_geom_bond_site_symmetry_1
_geom_bond_site_symmetry_2
Cu1 O1 1_555 1_555
O1 C7 1_555 1_555
O2 Cu1 1_555 1_555
O3 C10 1_555 1_555
O4 C10 1_555 1_555
N1 Cu1 1_555 1_555
N2 Cu1 1_555 1_555
C1 N1 1_555 1_555
C2 N2 1_555 1_555
C3 N2 1_555 1_555
C4 C3 1_555 1_555
H1 N1 1_555 1_555
H2 N1 1_555 1_555
H3 C1 1_555 1_555
H4 C1 1_555 1_555
H5 C2 1_555 1_555
H6 C2 1_555 1_555
H7 C3 1_555 1_555
H8 C3 1_555 1_555
H9 C4 1_555 1_555
H10 C4 1_555 1_555
H11 C4 1_555 1_555
C5 N2 1_555 1_555
C6 C5 1_555 1_555
C7 O2 1_555 1_555
C8 C7 1_555 1_555
C9 C8 1_555 1_555
C10 C9 1_555 1_555
H12 C5 1_555 1_555
H13 C5 1_555 1_555
H14 C6 1_555 1_555
H15 C6 1_555 1_555
H16 C6 1_555 1_555
H17 C8 1_555 1_555
H18 C8 1_555 1_555
H19 C9 1_555 1_555
H20 C9 1_555 1_555
O5 H21 1_555 1_555
H22 O5 1_555 1_555
O3_2 Cu1 1_555 1_555
O4_2 Cu1 1_555 1_555
Cu1_2 O3 1_555 1_555
O4 Cu1_2 1_555 1_555
C1 C2 1_555 1_555

#END
