
#######################################################################
#
#                 Cambridge Crystallographic Data Centre
#                                CCDC 
#
#######################################################################
#
# If this CIF has been generated from an entry in the Cambridge 
# Structural Database, then it will include bibliographic, chemical, 
# crystal, experimental, refinement or atomic coordinate data resulting 
# from the CCDC's data processing and validation procedures.
#
#######################################################################

data_SUCHUV
_symmetry_cell_setting           triclinic
_symmetry_space_group_name_H-M   'P -1'
_symmetry_Int_Tables_number      2
_space_group_name_Hall           '-P 1'
loop_
_symmetry_equiv_pos_site_id
_symmetry_equiv_pos_as_xyz
1 x,y,z
2 -x,-y,-z
_cell_length_a                   8.189(5)
_cell_length_b                   8.919(5)
_cell_length_c                   15.998(5)
_cell_angle_alpha                104.921(5)
_cell_angle_beta                 90.622(5)
_cell_angle_gamma                110.565(5)
_cell_volume                     1050.46
loop_
_atom_site_label
_atom_site_type_symbol
_atom_site_fract_x
_atom_site_fract_y
_atom_site_fract_z
Zn1 Zn 0.72133(7) 0.41665(7) 0.47609(4)
O1 O 0.0908(4) -0.3360(4) 0.4773(2)
O2 O -0.1590(4) -0.3487(4) 0.5354(2)
C1 C 0.0391(6) 0.1511(5) 0.6709(3)
C2 C -0.0020(6) -0.2712(5) 0.5249(3)
C3 C 0.2311(5) 0.0151(5) 0.5515(3)
H1 H 0.2970 -0.0304 0.5132
C4 C 0.2902(5) 0.1851(5) 0.5894(3)
C5 C 0.0721(5) -0.0890(5) 0.5707(3)
C6 C 0.1965(6) 0.2506(6) 0.6505(3)
H2 H 0.2407 0.3643 0.6785
C7 C -0.0655(6) 0.2255(6) 0.7321(3)
O3 O 0.5221(4) 0.2420(4) 0.5014(2)
C8 C -0.0234(6) -0.0181(5) 0.6295(3)
H3 H -0.1311 -0.0861 0.6411
O4 O 0.4833(5) 0.4570(4) 0.5905(3)
C9 C 0.4444(6) 0.3039(6) 0.5599(3)
N1 N 0.8901(7) 0.0793(6) 0.0468(3)
N2 N 0.7337(5) 0.3218(5) 0.3464(3)
C10 C 0.0127(6) 0.3339(6) 0.8127(3)
H4 H 0.1319 0.3625 0.8279
O5 O -0.3008(6) 0.4889(6) 0.9915(3)
C11 C -0.0836(7) 0.4001(7) 0.8708(3)
H5 H -0.0292 0.4723 0.9249
C12 C -0.3643(8) 0.4249(7) 0.9143(4)
C13 C -0.2597(7) 0.3602(6) 0.8494(3)
O6 O -0.5190(6) 0.4058(7) 0.8886(3)
C14 C 0.8813(6) 0.3515(6) 0.3071(3)
H6 H 0.9860 0.4267 0.3399
C15 C 0.7325(8) 0.1660(7) 0.1708(3)
C16 C 0.9430(9) -0.0385(8) 0.0770(4)
H7 H 0.8554 -0.1498 0.0540
H8 H 0.9509 -0.0101 0.1400
C17 C -0.2413(7) 0.1887(7) 0.7102(4)
H9 H -0.2956 0.1164 0.6561
C18 C -0.3381(7) 0.2577(8) 0.7675(4)
H10 H -0.4554 0.2353 0.7510
C19 C 0.8857(7) 0.2773(7) 0.2220(3)
H11 H 0.9918 0.3014 0.1981
C20 C 1.1189(9) -0.0362(8) 0.0479(4)
H12 H 1.2075 0.0739 0.0726
H13 H 1.1525 -0.1153 0.0688
C21 C 0.7245(8) 0.0838(9) 0.0755(4)
H14 H 0.6402 -0.0297 0.0621
H15 H 0.6814 0.1423 0.0426
C22 C 0.5859(7) 0.2147(8) 0.2970(4)
H16 H 0.4814 0.1926 0.3223
C23 C 0.5810(8) 0.1367(8) 0.2117(4)
H17 H 0.4744 0.0626 0.1803
H18 H -0.600(12) 0.474(13) 0.939(7)
N1A N 1.1099(7) -0.0793(6) -0.0468(3)
N2A N 1.2663(5) -0.3218(5) -0.3464(3)
C14A C 1.1187(6) -0.3515(6) -0.3071(3)
H6A H 1.0140 -0.4267 -0.3399
C15A C 1.2675(8) -0.1660(7) -0.1708(3)
C16A C 1.0570(9) 0.0385(8) -0.0770(4)
H7A H 1.1446 0.1498 -0.0540
H8A H 1.0491 0.0101 -0.1400
C19A C 1.1143(7) -0.2773(7) -0.2220(3)
H11A H 1.0082 -0.3014 -0.1981
C20A C 0.8811(9) 0.0362(8) -0.0479(4)
H12A H 0.7925 -0.0739 -0.0726
H13A H 0.8475 0.1153 -0.0688
C21A C 1.2755(8) -0.0838(9) -0.0755(4)
H14A H 1.3598 0.0297 -0.0621
H15A H 1.3186 -0.1423 -0.0426
C22A C 1.4141(7) -0.2147(8) -0.2970(4)
H16A H 1.5186 -0.1926 -0.3223
C23A C 1.4190(8) -0.1367(8) -0.2117(4)
H17A H 1.5256 -0.0626 -0.1803
Zn1A Zn 0.27867(7) -0.41665(7) 0.52391(4)
O1A O 0.9092(4) 0.3360(4) 0.5227(2)
O2A O 1.1590(4) 0.3487(4) 0.4646(2)
C1A C 0.9609(6) -0.1511(5) 0.3291(3)
C2A C 1.0020(6) 0.2712(5) 0.4751(3)
C3A C 0.7689(5) -0.0151(5) 0.4485(3)
H1A H 0.7030 0.0304 0.4868
C4A C 0.7098(5) -0.1851(5) 0.4106(3)
C5A C 0.9279(5) 0.0890(5) 0.4293(3)
C6A C 0.8035(6) -0.2506(6) 0.3495(3)
H2A H 0.7593 -0.3643 0.3215
C7A C 1.0655(6) -0.2255(6) 0.2679(3)
O3A O 0.4779(4) -0.2420(4) 0.4986(2)
C8A C 1.0234(6) 0.0181(5) 0.3705(3)
H3A H 1.1311 0.0861 0.3589
O4A O 0.5167(5) -0.4570(4) 0.4095(3)
C9A C 0.5556(6) -0.3039(6) 0.4401(3)
C10A C 0.9873(6) -0.3339(6) 0.1873(3)
H4A H 0.8681 -0.3625 0.1721
O5A O 1.3008(6) -0.4889(6) 0.0085(3)
C11A C 1.0836(7) -0.4001(7) 0.1292(3)
H5A H 1.0292 -0.4723 0.0751
C12A C 1.3643(8) -0.4249(7) 0.0857(4)
C13A C 1.2597(7) -0.3602(6) 0.1506(3)
O6A O 1.5190(6) -0.4058(7) 0.1114(3)
C17A C 1.2413(7) -0.1887(7) 0.2898(4)
H9A H 1.2956 -0.1164 0.3439
C18A C 1.3381(7) -0.2577(8) 0.2325(4)
H10A H 1.4554 -0.2353 0.2490
H18A H 1.600(12) -0.474(13) 0.061(7)
Zn1_2 Zn -0.27867(7) -0.58335(7) 0.47609(4)
Zn1A_2 Zn 1.27867(7) -0.41665(7) -0.47609(4)
Zn1A_3 Zn 1.27867(7) 0.58335(7) 0.52391(4)
O2_2 O 0.8410(4) 0.6513(4) 0.5354(2)
O2A_2 O 0.1590(4) -0.6513(4) 0.4646(2)
N2A_2 N 0.2663(5) -0.3218(5) 0.6536(3)
O7 O 0.700(3) 0.659(3) 0.750(2)
H19 H 0.6266 0.6019 0.7055
H20 H 0.6499 0.7018 0.7904
loop_
_geom_bond_atom_site_label_1
_geom_bond_atom_site_label_2
_geom_bond_site_symmetry_1
_geom_bond_site_symmetry_2
Zn1 O3 1_555 1_555
O1 C2 1_555 1_555
O2 C2 1_555 1_555
C1 C6 1_555 1_555
C2 C5 1_555 1_555
C3 H1 1_555 1_555
C4 C3 1_555 1_555
C5 C3 1_555 1_555
C6 C4 1_555 1_555
H2 C6 1_555 1_555
C7 C1 1_555 1_555
O3 C9 1_555 1_555
C8 C1 1_555 1_555
H3 C8 1_555 1_555
O4 C9 1_555 1_555
C9 C4 1_555 1_555
N1 C16 1_555 1_555
N2 Zn1 1_555 1_555
C10 C7 1_555 1_555
H4 C10 1_555 1_555
O5 C12 1_555 1_555
C11 C10 1_555 1_555
H5 C11 1_555 1_555
C12 C13 1_555 1_555
C13 C11 1_555 1_555
O6 C12 1_555 1_555
C14 N2 1_555 1_555
H6 C14 1_555 1_555
C15 C19 1_555 1_555
C16 H7 1_555 1_555
H8 C16 1_555 1_555
C17 C7 1_555 1_555
H9 C17 1_555 1_555
C18 C13 1_555 1_555
H10 C18 1_555 1_555
C19 C14 1_555 1_555
H11 C19 1_555 1_555
C20 C16 1_555 1_555
H12 C20 1_555 1_555
H13 C20 1_555 1_555
C21 N1 1_555 1_555
H14 C21 1_555 1_555
H15 C21 1_555 1_555
C22 N2 1_555 1_555
H16 C22 1_555 1_555
C23 C15 1_555 1_555
H17 C23 1_555 1_555
H18 O6 1_555 1_555
O7 H19 1_555 1_555
H20 O7 1_555 1_555
N1A C20 1_555 1_555
N2A C14A 1_555 1_555
C14A H6A 1_555 1_555
C15A C19A 1_555 1_555
C16A N1A 1_555 1_555
H7A C16A 1_555 1_555
H8A C16A 1_555 1_555
C19A C14A 1_555 1_555
H11A C19A 1_555 1_555
C20A N1 1_555 1_555
H12A C20A 1_555 1_555
H13A C20A 1_555 1_555
C21A N1A 1_555 1_555
H14A C21A 1_555 1_555
H15A C21A 1_555 1_555
C22A N2A 1_555 1_555
H16A C22A 1_555 1_555
C23A C15A 1_555 1_555
H17A C23A 1_555 1_555
Zn1A O1 1_555 1_555
O1A Zn1 1_555 1_555
O2A C2A 1_555 1_555
C1A C6A 1_555 1_555
C2A O1A 1_555 1_555
C3A H1A 1_555 1_555
C4A C3A 1_555 1_555
C5A C2A 1_555 1_555
C6A C4A 1_555 1_555
H2A C6A 1_555 1_555
C7A C1A 1_555 1_555
O3A Zn1A 1_555 1_555
C8A C1A 1_555 1_555
H3A C8A 1_555 1_555
O4A C9A 1_555 1_555
C9A C4A 1_555 1_555
C10A C7A 1_555 1_555
H4A C10A 1_555 1_555
O5A C12A 1_555 1_555
C11A C10A 1_555 1_555
H5A C11A 1_555 1_555
C12A C13A 1_555 1_555
C13A C11A 1_555 1_555
O6A C12A 1_555 1_555
C17A C7A 1_555 1_555
H9A C17A 1_555 1_555
C18A C13A 1_555 1_555
H10A C18A 1_555 1_555
H18A O6A 1_555 1_555
Zn1_2 O2 1_555 1_555
Zn1A_2 N2A 1_555 1_555
Zn1A_3 O2A 1_555 1_555
O2_2 Zn1 1_555 1_555
O2A_2 Zn1A 1_555 1_555
N2A_2 Zn1A 1_555 1_555
C5 C8 1_555 1_555
C15 C21 1_555 1_555
C17 C18 1_555 1_555
C22 C23 1_555 1_555
C15A C21A 1_555 1_555
C16A C20A 1_555 1_555
C22A C23A 1_555 1_555
C3A C5A 1_555 1_555
C5A C8A 1_555 1_555
O3A C9A 1_555 1_555
C17A C18A 1_555 1_555

#END
