
#######################################################################
#
#                 Cambridge Crystallographic Data Centre
#                                CCDC 
#
#######################################################################
#
# If this CIF has been generated from an entry in the Cambridge 
# Structural Database, then it will include bibliographic, chemical, 
# crystal, experimental, refinement or atomic coordinate data resulting 
# from the CCDC's data processing and validation procedures.
#
#######################################################################

data_SUCLOT
_symmetry_cell_setting           triclinic
_symmetry_space_group_name_H-M   'P -1'
_symmetry_Int_Tables_number      2
_space_group_name_Hall           '-P 1'
loop_
_symmetry_equiv_pos_site_id
_symmetry_equiv_pos_as_xyz
1 x,y,z
2 -x,-y,-z
_cell_length_a                   12.4545(1)
_cell_length_b                   10.2080(1)
_cell_length_c                   6.7013(1)
_cell_angle_alpha                107.470(1)
_cell_angle_beta                 104.432(1)
_cell_angle_gamma                66.761(1)
_cell_volume                     738.381
loop_
_atom_site_label
_atom_site_type_symbol
_atom_site_fract_x
_atom_site_fract_y
_atom_site_fract_z
Ca1 Ca 0.4442(3) 0.1094(3) 0.7715(7)
O1 O 0.2587(6) 0.0891(7) 0.5014(11)
O2 O 0.5244(8) 0.8448(9) 0.8452(18)
O3 O 0.2621(7) 0.0783(8) 0.8198(11)
O4 O 0.6459(7) 0.0914(8) 0.8705(16)
O5 O 0.5097(7) 0.8590(7) 0.5398(12)
O6 O 0.3088(7) 0.3641(8) 0.7806(16)
C1 C 0.1011(11) 0.6011(14) 0.5360(21)
C2 C 0.513(1) 0.7861(9) 0.6567(14)
C3 C 0.2202(5) 0.0584(9) 0.6292(13)
C4 C 0.1099(5) 0.0375(8) 0.5643(13)
C5 C 0.2107(12) 0.6460(11) 0.8626(16)
C6 C 0.5145(9) 0.6363(7) 0.5779(12)
C7 C -0.0690(7) 0.0191(12) 0.6476(23)
C8 C 0.2376(15) 0.4312(10) 0.6579(32)
C9 C 0.5398(8) 0.5492(6) 0.7188(11)
C10 C 0.0482(5) 0.0407(9) 0.7183(12)
N1 N 0.1906(9) 0.5684(8) 0.6847(13)
C11 C 0.5388(10) 0.4015(7) 0.6409(11)
O1A O -0.2587(6) -0.0891(7) 0.4986(11)
O3A O -0.2621(7) -0.0783(8) 0.1802(11)
C3A C -0.2202(5) -0.0584(9) 0.3708(13)
C4A C -0.1099(5) -0.0375(8) 0.4357(13)
C7A C 0.0690(7) -0.0191(12) 0.3524(23)
C10A C -0.0482(5) -0.0407(9) 0.2817(12)
C6A C 0.4855(9) 0.3637(7) 0.4221(12)
C9A C 0.4602(8) 0.4508(6) 0.2812(11)
C11A C 0.4612(10) 0.5985(7) 0.3591(11)
O5A O 0.4903(7) 0.1410(7) 0.4602(12)
C2A C 0.487(1) 0.2139(9) 0.3433(14)
O2A O 0.4756(8) 0.1552(9) 0.1548(18)
Ca1A Ca -0.4442(3) -0.1094(3) 0.2285(7)
O4A O -0.6459(7) -0.0914(8) 0.1295(16)
O6A O -0.3088(7) -0.3641(8) 0.2194(16)
C1A C -0.1011(11) -0.6011(14) 0.4640(21)
C5A C -0.2107(12) -0.6460(11) 0.1374(16)
C8A C -0.2376(15) -0.4312(10) 0.3421(32)
N1A N -0.1906(9) -0.5684(8) 0.3153(13)
Ca1_2 Ca 0.4442(3) 0.1094(3) -0.2285(7)
Ca1_3 Ca 0.4442(3) 1.1094(3) 0.7715(7)
Ca1A_2 Ca 0.5558(3) -0.1094(3) 0.2285(7)
Ca1A_3 Ca 0.5558(3) 0.8906(3) 0.2285(7)
Ca1A_4 Ca 0.5558(3) 0.8906(3) 1.2285(7)
O2_2 O -0.4756(8) -0.1552(9) -0.1548(18)
O2_3 O 0.5244(8) -0.1552(9) 0.8452(18)
O2A_2 O -0.5244(8) 0.1552(9) 0.1548(18)
O2A_3 O 0.4756(8) 0.1552(9) 1.1548(18)
O5_2 O -0.4903(7) -0.1410(7) 0.5398(12)
O5_3 O 0.5097(7) -0.1410(7) 0.5398(12)
O5A_2 O -0.5097(7) 0.1410(7) 0.4602(12)
O7 O 0.1473(13) 0.2869(14) 1.1432(30)
loop_
_geom_bond_atom_site_label_1
_geom_bond_atom_site_label_2
_geom_bond_site_symmetry_1
_geom_bond_site_symmetry_2
Ca1 O1 1_555 1_555
O1 C3 1_555 1_555
O2 C2 1_555 1_555
O3 Ca1 1_555 1_555
O4 Ca1 1_555 1_555
O5 C2 1_555 1_555
O6 Ca1 1_555 1_555
C1 N1 1_555 1_555
C2 C6 1_555 1_555
C3 O3 1_555 1_555
C4 C3 1_555 1_555
C5 N1 1_555 1_555
C6 C9 1_555 1_555
C7 C10 1_555 1_555
C8 O6 1_555 1_555
C9 C11 1_555 1_555
C10 C4 1_555 1_555
N1 C8 1_555 1_555
C11 C6A 1_555 1_555
O1A C3A 1_555 1_555
O3A C3A 1_555 1_555
C3A C4A 1_555 1_555
C4A C7 1_555 1_555
C7A C4 1_555 1_555
C10A C4A 1_555 1_555
C6A C9A 1_555 1_555
C9A C11A 1_555 1_555
C11A C6 1_555 1_555
O5A Ca1 1_555 1_555
C2A C6A 1_555 1_555
O2A C2A 1_555 1_555
Ca1A O1A 1_555 1_555
O4A Ca1A 1_555 1_555
O6A Ca1A 1_555 1_555
C1A N1A 1_555 1_555
C5A N1A 1_555 1_555
C8A O6A 1_555 1_555
N1A C8A 1_555 1_555
Ca1_2 O2A 1_555 1_555
Ca1_3 O2 1_555 1_555
Ca1A_2 O5A 1_555 1_555
Ca1A_3 O5 1_555 1_555
Ca1A_4 O2 1_555 1_555
O2_2 Ca1A 1_555 1_555
O2_3 Ca1 1_555 1_555
O2A_2 Ca1A 1_555 1_555
O2A_3 Ca1 1_555 1_555
O5_2 Ca1A 1_555 1_555
O5_3 Ca1 1_555 1_555
O5A_2 Ca1A 1_555 1_555
O5 Ca1_3 1_555 1_555
O3A Ca1A 1_555 1_555
C7A C10A 1_555 1_555
O5A C2A 1_555 1_555
O2A Ca1A_2 1_555 1_555
Ca1A_2 O5_3 1_555 1_555

#END
