
#######################################################################
#
#                 Cambridge Crystallographic Data Centre
#                                CCDC 
#
#######################################################################
#
# If this CIF has been generated from an entry in the Cambridge 
# Structural Database, then it will include bibliographic, chemical, 
# crystal, experimental, refinement or atomic coordinate data resulting 
# from the CCDC's data processing and validation procedures.
#
#######################################################################

data_SUCYEW
_symmetry_cell_setting           triclinic
_symmetry_space_group_name_H-M   'P -1'
_symmetry_Int_Tables_number      2
_space_group_name_Hall           '-P 1'
loop_
_symmetry_equiv_pos_site_id
_symmetry_equiv_pos_as_xyz
1 x,y,z
2 -x,-y,-z
_cell_length_a                   10.083(5)
_cell_length_b                   11.719(6)
_cell_length_c                   13.385(6)
_cell_angle_alpha                65.994(7)
_cell_angle_beta                 68.501(7)
_cell_angle_gamma                71.755(7)
_cell_volume                     1319.02
loop_
_atom_site_label
_atom_site_type_symbol
_atom_site_fract_x
_atom_site_fract_y
_atom_site_fract_z
Pb1 Pb 0.33082(2) 0.893511(17) 0.072029(15)
Ni1 Ni 0.27007(6) 0.74040(5) 0.54875(5)
O1 O 0.4602(4) 0.8178(3) 0.2215(3)
O2 O 0.1694(4) 0.8889(3) 0.2591(3)
O3 O 0.1500(5) 0.7355(4) 0.1059(4)
O4 O 0.3552(5) 0.6518(3) 0.1566(4)
O5 O 0.3981(4) 0.0973(4) 0.0554(4)
O6 O 0.1695(5) 0.1602(4) 0.0503(5)
N1 N 0.4255(4) 0.7210(3) 0.4176(3)
N2 N 0.3743(4) 0.6318(4) 0.6552(3)
N3 N 0.1324(4) 0.8143(3) 0.6565(3)
N4 N 0.1468(4) 0.8079(3) 0.4524(3)
C1 C 0.3840(5) 0.7887(4) 0.3227(4)
C2 C 0.5731(5) 0.6607(4) 0.4162(4)
C3 C 0.6077(5) 0.5866(4) 0.5200(4)
C4 C 0.7509(6) 0.5209(5) 0.5190(5)
H1 H 0.7716 0.4696 0.5878
C5 C 0.8609(6) 0.5296(5) 0.4204(6)
H2 H 0.9550 0.4858 0.4217
C6 C 0.8280(6) 0.6061(6) 0.3181(6)
H3 H 0.9017 0.6146 0.2503
C7 C 0.6887(5) 0.6691(5) 0.3155(4)
H4 H 0.6699 0.7185 0.2457
C8 C 0.5053(5) 0.5701(4) 0.6324(4)
H5 H 0.5380 0.5091 0.6936
C9 C 0.2877(5) 0.5986(5) 0.7764(4)
H6 H 0.3444 0.5282 0.8228
H7 H 0.2010 0.5721 0.7852
C10 C 0.2446(6) 0.7141(5) 0.8168(4)
H8 H 0.1668 0.6997 0.8871
H9 H 0.3271 0.7221 0.8327
C11 C 0.1947(6) 0.8380(5) 0.7294(4)
H10 H 0.1222 0.8944 0.7683
H11 H 0.2766 0.8798 0.6820
C12 C -0.0018(5) 0.8604(4) 0.6623(4)
H12 H -0.0545 0.9000 0.7167
C13 C -0.0797(5) 0.8570(4) 0.5922(4)
C14 C -0.0070(5) 0.8312(4) 0.4891(4)
C15 C -0.0917(6) 0.8291(5) 0.4272(4)
H13 H -0.0466 0.8107 0.3597
C16 C -0.2416(6) 0.8541(5) 0.4656(5)
H14 H -0.2957 0.8504 0.4241
C17 C -0.3131(6) 0.8844(5) 0.5640(5)
H15 H -0.4141 0.9037 0.5874
C18 C -0.2316(5) 0.8855(5) 0.6273(5)
H16 H -0.2784 0.9055 0.6940
C19 C 0.2196(5) 0.8336(4) 0.3427(4)
C20 C 0.2522(6) 0.6443(5) 0.1292(4)
C21 C 0.2560(5) 0.5205(4) 0.1162(4)
C22 C 0.1411(5) 0.5044(5) 0.0931(4)
H17 H 0.0584 0.5681 0.0898
C23 C 0.1486(5) 0.3939(5) 0.0749(4)
H18 H 0.0707 0.3837 0.0599
C24 C 0.2721(5) 0.2980(4) 0.0790(4)
C25 C 0.3851(5) 0.3153(5) 0.1026(4)
H19 H 0.4679 0.2518 0.1066
C26 C 0.3771(5) 0.4250(5) 0.1204(5)
H20 H 0.4550 0.4350 0.1356
C27 C 0.2808(6) 0.1771(5) 0.0587(4)
Pb1_2 Pb 0.33082(2) -0.106489(17) 0.072029(15)
Pb1A Pb 0.66918(2) 0.106489(17) -0.072029(15)
O5_2 O 0.3981(4) 1.0973(4) 0.0554(4)
O5A O 0.6019(4) 0.9027(4) -0.0554(4)
O7 O 0.6196(6) 1.0219(5) 0.2051(5)
H21 H 0.6994 0.9961 0.1619
H22 H 0.5717 0.9621 0.2374
O8 O 0.1009(7) 0.0792(7) 0.8980(6)
H23 H 0.0208 0.1269 0.8874
H24 H 0.1065 0.0857 0.9572
loop_
_geom_bond_atom_site_label_1
_geom_bond_atom_site_label_2
_geom_bond_site_symmetry_1
_geom_bond_site_symmetry_2
Pb1 O1 1_555 1_555
Ni1 N1 1_555 1_555
O1 C1 1_555 1_555
O2 Pb1 1_555 1_555
O3 Pb1 1_555 1_555
O4 Pb1 1_555 1_555
O5 C27 1_555 1_555
O6 C27 1_555 1_555
N1 C1 1_555 1_555
N2 Ni1 1_555 1_555
N3 Ni1 1_555 1_555
N4 Ni1 1_555 1_555
C1 C19 1_555 1_555
C2 N1 1_555 1_555
C3 C2 1_555 1_555
C4 C3 1_555 1_555
H1 C4 1_555 1_555
C5 C4 1_555 1_555
H2 C5 1_555 1_555
C6 C5 1_555 1_555
H3 C6 1_555 1_555
C7 C2 1_555 1_555
H4 C7 1_555 1_555
C8 N2 1_555 1_555
H5 C8 1_555 1_555
C9 N2 1_555 1_555
H6 C9 1_555 1_555
H7 C9 1_555 1_555
C10 C9 1_555 1_555
H8 C10 1_555 1_555
H9 C10 1_555 1_555
C11 N3 1_555 1_555
H10 C11 1_555 1_555
H11 C11 1_555 1_555
C12 N3 1_555 1_555
H12 C12 1_555 1_555
C13 C12 1_555 1_555
C14 N4 1_555 1_555
C15 C14 1_555 1_555
H13 C15 1_555 1_555
C16 C15 1_555 1_555
H14 C16 1_555 1_555
C17 C16 1_555 1_555
H15 C17 1_555 1_555
C18 C13 1_555 1_555
H16 C18 1_555 1_555
C19 O2 1_555 1_555
C20 O3 1_555 1_555
C21 C20 1_555 1_555
C22 C21 1_555 1_555
H17 C22 1_555 1_555
C23 C22 1_555 1_555
H18 C23 1_555 1_555
C24 C23 1_555 1_555
C25 C24 1_555 1_555
H19 C25 1_555 1_555
C26 C21 1_555 1_555
H20 C26 1_555 1_555
C27 C24 1_555 1_555
O7 H21 1_555 1_555
H22 O7 1_555 1_555
O8 H23 1_555 1_555
H24 O8 1_555 1_555
Pb1_2 O5 1_555 1_555
Pb1A O5 1_555 1_555
O5_2 Pb1 1_555 1_555
O5A Pb1 1_555 1_555
O4 C20 1_555 1_555
N4 C19 1_555 1_555
C3 C8 1_555 1_555
C6 C7 1_555 1_555
C10 C11 1_555 1_555
C13 C14 1_555 1_555
C17 C18 1_555 1_555
C25 C26 1_555 1_555

#END
