
#######################################################################
#
#                 Cambridge Crystallographic Data Centre
#                                CCDC 
#
#######################################################################
#
# If this CIF has been generated from an entry in the Cambridge 
# Structural Database, then it will include bibliographic, chemical, 
# crystal, experimental, refinement or atomic coordinate data resulting 
# from the CCDC's data processing and validation procedures.
#
#######################################################################

data_SUCYIA
_symmetry_cell_setting           monoclinic
_symmetry_space_group_name_H-M   'P 2/c'
_symmetry_Int_Tables_number      13
_space_group_name_Hall           '-P 2yc'
loop_
_symmetry_equiv_pos_site_id
_symmetry_equiv_pos_as_xyz
1 x,y,z
2 -x,y,1/2-z
3 -x,-y,-z
4 x,-y,1/2+z
_cell_length_a                   20.112(4)
_cell_length_b                   10.356(2)
_cell_length_c                   25.210(5)
_cell_angle_alpha                90
_cell_angle_beta                 108.143(4)
_cell_angle_gamma                90
_cell_volume                     4989.68
loop_
_atom_site_label
_atom_site_type_symbol
_atom_site_fract_x
_atom_site_fract_y
_atom_site_fract_z
Pb1 Pb 0.21563(2) 1.13120(4) 0.16921(2)
Pb2 Pb 0.27659(2) 0.29603(4) 0.31520(2)
Ni1 Ni 0.11586(7) 1.54485(14) -0.00586(7)
Ni2 Ni 0.48289(8) 0.17541(14) 0.53526(7)
O1 O 0.2293(4) 1.3389(7) 0.1223(4)
O2 O 0.1222(4) 1.1919(8) 0.0592(4)
O3 O 0.4091(4) 0.3494(8) 0.3884(4)
O4 O 0.3092(4) 0.2079(8) 0.4137(4)
O5 O 0.2802(4) 0.5565(7) 0.3086(4)
O6 O 0.2047(4) 0.4503(7) 0.3416(4)
O7 O 0.2469(4) 1.0360(7) 0.2691(4)
O8 O 0.1864(4) 1.1373(7) 0.3199(4)
O9 O 0.0910(4) 1.1095(7) 0.1945(4)
O10 O 0.1606(4) 1.2851(7) 0.2122(4)
O11 O 0.3139(4) 0.2567(7) 0.2215(4)
O12 O 0.3665(4) 0.0932(8) 0.1917(4)
N1 N 0.0860(5) 1.3684(9) -0.0027(4)
N2 N 0.0366(5) 1.5933(10) -0.0663(4)
N3 N 0.1639(5) 1.6948(9) -0.0172(5)
N4 N 0.1813(5) 1.5163(9) 0.0661(5)
N5 N 0.4858(5) 0.2881(9) 0.4759(5)
N6 N 0.5486(5) 0.2754(9) 0.5892(5)
N7 N 0.4902(5) 0.0425(9) 0.5883(4)
N8 N 0.3996(5) 0.1102(9) 0.4857(5)
C1 C 0.1262(6) 1.3038(12) 0.0434(6)
C2 C 0.0318(6) 1.3012(11) -0.0434(6)
C3 C -0.0173(6) 1.3758(12) -0.0873(6)
C4 C -0.0714(6) 1.3157(12) -0.1271(6)
H1 H -0.1026 1.3652 -0.1546
C5 C -0.0803(7) 1.1823(13) -0.1269(6)
H2 H -0.1176 1.1430 -0.1535
C6 C -0.0321(7) 1.1080(12) -0.0861(6)
H3 H -0.0363 1.0186 -0.0865
C7 C 0.0221(6) 1.1676(11) -0.0448(6)
H4 H 0.0527 1.1169 -0.0175
C8 C -0.0130(6) 1.5168(12) -0.0924(6)
H5 H -0.0515 1.5557 -0.1179
C9 C 0.0259(6) 1.7339(11) -0.0761(6)
H6 H 0.0280 1.7757 -0.0412
H7 H -0.0204 1.7485 -0.1022
C10 C 0.0794(6) 1.7945(12) -0.0989(6)
H8 H 0.0830 1.8859 -0.0899
H9 H 0.0640 1.7862 -0.1392
C11 C 0.1520(6) 1.7318(11) -0.0750(5)
H10 H 0.1549 1.6561 -0.0968
H11 H 0.1878 1.7923 -0.0772
C12 C 0.2104(6) 1.7587(10) 0.0208(5)
H12 H 0.2294 1.8305 0.0087
C13 C 0.2360(6) 1.7313(11) 0.0792(6)
C14 C 0.2231(6) 1.6110(10) 0.1022(5)
C15 C 0.2514(6) 1.5929(12) 0.1611(6)
H13 H 0.2427 1.5162 0.1771
C16 C 0.2918(6) 1.6887(12) 0.1951(6)
H14 H 0.3096 1.6754 0.2334
C17 C 0.3059(7) 1.8045(12) 0.1722(7)
H15 H 0.3337 1.8668 0.1952
C18 C 0.2787(6) 1.8266(11) 0.1157(6)
H16 H 0.2880 1.9043 0.1009
C19 C 0.1840(6) 1.3918(11) 0.0819(6)
C20 C 0.4274(6) 0.2881(12) 0.4330(6)
C21 C 0.5440(6) 0.3668(11) 0.4741(6)
C22 C 0.5964(6) 0.3973(11) 0.5253(6)
C23 C 0.6540(6) 0.4723(11) 0.5250(7)
H17 H 0.6886 0.4911 0.5584
C24 C 0.6598(7) 0.5187(11) 0.4749(7)
H18 H 0.6971 0.5721 0.4752
C25 C 0.6115(6) 0.4870(12) 0.4255(6)
H19 H 0.6176 0.5148 0.3922
C26 C 0.5529(6) 0.4129(11) 0.4242(6)
H20 H 0.5196 0.3940 0.3902
C27 C 0.5917(6) 0.3611(12) 0.5802(6)
H21 H 0.6217 0.4025 0.6112
C28 C 0.5439(7) 0.2704(12) 0.6463(6)
H22 H 0.4957 0.2826 0.6451
H23 H 0.5715 0.3399 0.6683
C29 C 0.5707(7) 0.1402(13) 0.6741(6)
H24 H 0.6204 0.1474 0.6936
H25 H 0.5475 0.1216 0.7017
C30 C 0.5588(6) 0.0276(12) 0.6334(6)
H26 H 0.5964 0.0243 0.6169
H27 H 0.5590 -0.0528 0.6532
C31 C 0.4428(6) -0.0434(11) 0.5886(6)
H28 H 0.4524 -0.0978 0.6194
C32 C 0.3756(6) -0.0615(12) 0.5445(6)
C33 C 0.3545(6) 0.0057(11) 0.4931(6)
C34 C 0.2956(6) -0.0362(12) 0.4511(7)
H29 H 0.2826 0.0038 0.4164
C35 C 0.2553(6) -0.1404(12) 0.4615(6)
H30 H 0.2159 -0.1680 0.4332
C36 C 0.2738(7) -0.2013(12) 0.5126(6)
H31 H 0.2461 -0.2673 0.5194
C37 C 0.3329(6) -0.1637(11) 0.5532(6)
H32 H 0.3456 -0.2059 0.5875
C38 C 0.3712(6) 0.1950(11) 0.4432(6)
C39 C 0.1852(6) 0.6776(11) 0.3238(6)
C40 C 0.2096(6) 0.7942(12) 0.3075(6)
H33 H 0.2497 0.7943 0.2966
C41 C 0.1736(6) 0.9093(11) 0.3076(6)
C42 C 0.1104(6) 0.9062(12) 0.3223(6)
H34 H 0.0863 0.9825 0.3231
C43 C 0.0849(6) 0.7905(11) 0.3351(6)
H35 H 0.0418 0.7882 0.3414
C44 C 0.1240(6) 0.6748(11) 0.3388(5)
H36 H 0.1091 0.5986 0.3510
C45 C 0.2269(6) 0.5556(11) 0.3245(5)
C46 C 0.2033(6) 1.0378(11) 0.2964(6)
C47 C 0.0523(6) 1.2947(12) 0.2342(6)
C48 C 0.0532(6) 1.4299(12) 0.2365(6)
H37 H 0.0892 1.4752 0.2291
C49 C 0.0000 1.4978(15) 0.2500
H38 H 0.0000 1.5876 0.2500
C50 C 0.0000 1.2260(17) 0.2500
H39 H 0.0000 1.1362 0.2500
C51 C 0.1041(6) 1.2217(11) 0.2123(5)
C52 C 0.4367(6) 0.2768(11) 0.2342(5)
C53 C 0.4370(6) 0.4108(11) 0.2364(6)
H40 H 0.3947 0.4548 0.2288
C54 C 0.5000 0.4816(18) 0.2500
H41 H 0.5000 0.5714 0.2500
C55 C 0.5000 0.2092(16) 0.2500
H42 H 0.5000 0.1194 0.2500
C56 C 0.3679(6) 0.1997(12) 0.2145(6)
O9A O -0.0910(4) 1.1095(7) 0.3055(4)
O10A O -0.1606(4) 1.2851(7) 0.2878(4)
C47A C -0.0523(6) 1.2947(12) 0.2658(6)
C48A C -0.0532(6) 1.4299(12) 0.2635(6)
H37A H -0.0892 1.4752 0.2709
C51A C -0.1041(6) 1.2217(11) 0.2877(5)
O11A O 0.6861(4) 0.2567(7) 0.2785(4)
O12A O 0.6335(4) 0.0932(8) 0.3083(4)
C52A C 0.5633(6) 0.2768(11) 0.2658(5)
C53A C 0.5630(6) 0.4108(11) 0.2636(6)
H40A H 0.6053 0.4548 0.2712
C56A C 0.6321(6) 0.1997(12) 0.2855(6)
Pb1A Pb -0.21563(2) 1.13120(4) 0.33079(2)
Pb2A Pb -0.27659(2) 0.29603(4) 0.18480(2)
Ni1A Ni -0.11586(7) 1.54485(14) 0.50586(7)
Ni2A Ni -0.48289(8) 0.17541(14) -0.03526(7)
O1A O -0.2293(4) 1.3389(7) 0.3777(4)
O2A O -0.1222(4) 1.1919(8) 0.4408(4)
O3A O -0.4091(4) 0.3494(8) 0.1116(4)
O4A O -0.3092(4) 0.2079(8) 0.0863(4)
O5A O -0.2802(4) 0.5565(7) 0.1914(4)
O6A O -0.2047(4) 0.4503(7) 0.1584(4)
O7A O -0.2469(4) 1.0360(7) 0.2309(4)
O8A O -0.1864(4) 1.1373(7) 0.1801(4)
N1A N -0.0860(5) 1.3684(9) 0.5027(4)
N2A N -0.0366(5) 1.5933(10) 0.5663(4)
N3A N -0.1639(5) 1.6948(9) 0.5172(5)
N4A N -0.1813(5) 1.5163(9) 0.4339(5)
N5A N -0.4858(5) 0.2881(9) 0.0241(5)
N6A N -0.5486(5) 0.2754(9) -0.0892(5)
N7A N -0.4902(5) 0.0425(9) -0.0883(4)
N8A N -0.3996(5) 0.1102(9) 0.0143(5)
C1A C -0.1262(6) 1.3038(12) 0.4566(6)
C2A C -0.0318(6) 1.3012(11) 0.5434(6)
C3A C 0.0173(6) 1.3758(12) 0.5873(6)
C4A C 0.0714(6) 1.3157(12) 0.6271(6)
H1A H 0.1026 1.3652 0.6546
C5A C 0.0803(7) 1.1823(13) 0.6269(6)
H2A H 0.1176 1.1430 0.6535
C6A C 0.0321(7) 1.1080(12) 0.5861(6)
H3A H 0.0363 1.0186 0.5865
C7A C -0.0221(6) 1.1676(11) 0.5448(6)
H4A H -0.0527 1.1169 0.5175
C8A C 0.0130(6) 1.5168(12) 0.5924(6)
H5A H 0.0515 1.5557 0.6179
C9A C -0.0259(6) 1.7339(11) 0.5761(6)
H6A H -0.0280 1.7757 0.5412
H7A H 0.0204 1.7485 0.6022
C10A C -0.0794(6) 1.7945(12) 0.5989(6)
H8A H -0.0830 1.8859 0.5899
H9A H -0.0640 1.7862 0.6392
C11A C -0.1520(6) 1.7318(11) 0.5750(5)
H10A H -0.1549 1.6561 0.5968
H11A H -0.1878 1.7923 0.5772
C12A C -0.2104(6) 1.7587(10) 0.4792(5)
H12A H -0.2294 1.8305 0.4913
C13A C -0.2360(6) 1.7313(11) 0.4208(6)
C14A C -0.2231(6) 1.6110(10) 0.3978(5)
C15A C -0.2514(6) 1.5929(12) 0.3389(6)
H13A H -0.2427 1.5162 0.3229
C16A C -0.2918(6) 1.6887(12) 0.3049(6)
H14A H -0.3096 1.6754 0.2666
C17A C -0.3059(7) 1.8045(12) 0.3278(7)
H15A H -0.3337 1.8668 0.3048
C18A C -0.2787(6) 1.8266(11) 0.3843(6)
H16A H -0.2880 1.9043 0.3991
C19A C -0.1840(6) 1.3918(11) 0.4181(6)
C20A C -0.4274(6) 0.2881(12) 0.0670(6)
C21A C -0.5440(6) 0.3668(11) 0.0259(6)
C22A C -0.5964(6) 0.3973(11) -0.0253(6)
C23A C -0.6540(6) 0.4723(11) -0.0250(7)
H17A H -0.6886 0.4911 -0.0584
C24A C -0.6598(7) 0.5187(11) 0.0251(7)
H18A H -0.6971 0.5721 0.0248
C25A C -0.6115(6) 0.4870(12) 0.0745(6)
H19A H -0.6176 0.5148 0.1078
C26A C -0.5529(6) 0.4129(11) 0.0758(6)
H20A H -0.5196 0.3940 0.1098
C27A C -0.5917(6) 0.3611(12) -0.0802(6)
H21A H -0.6217 0.4025 -0.1112
C28A C -0.5439(7) 0.2704(12) -0.1463(6)
H22A H -0.4957 0.2826 -0.1451
H23A H -0.5715 0.3399 -0.1683
C29A C -0.5707(7) 0.1402(13) -0.1741(6)
H24A H -0.6204 0.1474 -0.1936
H25A H -0.5475 0.1216 -0.2017
C30A C -0.5588(6) 0.0276(12) -0.1334(6)
H26A H -0.5964 0.0243 -0.1169
H27A H -0.5590 -0.0528 -0.1532
C31A C -0.4428(6) -0.0434(11) -0.0886(6)
H28A H -0.4524 -0.0978 -0.1194
C32A C -0.3756(6) -0.0615(12) -0.0445(6)
C33A C -0.3545(6) 0.0057(11) 0.0069(6)
C34A C -0.2956(6) -0.0362(12) 0.0489(7)
H29A H -0.2826 0.0038 0.0836
C35A C -0.2553(6) -0.1404(12) 0.0385(6)
H30A H -0.2159 -0.1680 0.0668
C36A C -0.2738(7) -0.2013(12) -0.0126(6)
H31A H -0.2461 -0.2673 -0.0194
C37A C -0.3329(6) -0.1637(11) -0.0532(6)
H32A H -0.3456 -0.2059 -0.0875
C38A C -0.3712(6) 0.1950(11) 0.0568(6)
C39A C -0.1852(6) 0.6776(11) 0.1762(6)
C40A C -0.2096(6) 0.7942(12) 0.1925(6)
H33A H -0.2497 0.7943 0.2034
C41A C -0.1736(6) 0.9093(11) 0.1924(6)
C42A C -0.1104(6) 0.9062(12) 0.1777(6)
H34A H -0.0863 0.9825 0.1769
C43A C -0.0849(6) 0.7905(11) 0.1649(6)
H35A H -0.0418 0.7882 0.1586
C44A C -0.1240(6) 0.6748(11) 0.1612(5)
H36A H -0.1091 0.5986 0.1490
C45A C -0.2269(6) 0.5556(11) 0.1755(5)
C46A C -0.2033(6) 1.0378(11) 0.2036(6)
Pb1_2 Pb 0.21563(2) 0.13120(4) 0.16921(2)
Pb1A_2 Pb 0.78437(2) 0.13120(4) 0.33079(2)
Pb2_2 Pb 0.27659(2) 1.29603(4) 0.31520(2)
Pb2A_2 Pb -0.27659(2) 1.29603(4) 0.18480(2)
Pb2A_3 Pb 0.72341(2) 0.29603(4) 0.18480(2)
O7_2 O 0.2469(4) 0.0360(7) 0.2691(4)
O7A_2 O -0.2469(4) 0.0360(7) 0.2309(4)
O8_2 O 0.1864(4) 0.1373(7) 0.3199(4)
O8A_2 O -0.1864(4) 0.1373(7) 0.1801(4)
O10_2 O 0.1606(4) 0.2851(7) 0.2122(4)
O10A_2 O -0.1606(4) 0.2851(7) 0.2878(4)
O11_2 O 0.3139(4) 1.2567(7) 0.2215(4)
O11A_2 O -0.3139(4) 0.2567(7) 0.2785(4)
O11A_3 O -0.3139(4) 1.2567(7) 0.2785(4)
loop_
_geom_bond_atom_site_label_1
_geom_bond_atom_site_label_2
_geom_bond_site_symmetry_1
_geom_bond_site_symmetry_2
Pb1 O1 1_555 1_555
Pb2 O3 1_555 1_555
Ni1 N1 1_555 1_555
Ni2 N5 1_555 1_555
O1 C19 1_555 1_555
O2 Pb1 1_555 1_555
O3 C20 1_555 1_555
O4 Pb2 1_555 1_555
O5 Pb2 1_555 1_555
O6 Pb2 1_555 1_555
O7 Pb1 1_555 1_555
O8 C46 1_555 1_555
O9 Pb1 1_555 1_555
O10 Pb1 1_555 1_555
O11 Pb2 1_555 1_555
O12 C56 1_555 1_555
N1 C1 1_555 1_555
N2 Ni1 1_555 1_555
N3 Ni1 1_555 1_555
N4 Ni1 1_555 1_555
N5 C20 1_555 1_555
N6 Ni2 1_555 1_555
N7 Ni2 1_555 1_555
N8 Ni2 1_555 1_555
C1 O2 1_555 1_555
C2 N1 1_555 1_555
C3 C2 1_555 1_555
C4 C3 1_555 1_555
H1 C4 1_555 1_555
C5 C4 1_555 1_555
H2 C5 1_555 1_555
C6 C5 1_555 1_555
H3 C6 1_555 1_555
C7 C2 1_555 1_555
H4 C7 1_555 1_555
C8 N2 1_555 1_555
H5 C8 1_555 1_555
C9 N2 1_555 1_555
H6 C9 1_555 1_555
H7 C9 1_555 1_555
C10 C9 1_555 1_555
H8 C10 1_555 1_555
H9 C10 1_555 1_555
C11 N3 1_555 1_555
H10 C11 1_555 1_555
H11 C11 1_555 1_555
C12 N3 1_555 1_555
H12 C12 1_555 1_555
C13 C12 1_555 1_555
C14 N4 1_555 1_555
C15 C14 1_555 1_555
H13 C15 1_555 1_555
C16 C15 1_555 1_555
H14 C16 1_555 1_555
C17 C16 1_555 1_555
H15 C17 1_555 1_555
C18 C13 1_555 1_555
H16 C18 1_555 1_555
C19 N4 1_555 1_555
C20 C38 1_555 1_555
C21 N5 1_555 1_555
C22 C21 1_555 1_555
C23 C22 1_555 1_555
H17 C23 1_555 1_555
C24 C23 1_555 1_555
H18 C24 1_555 1_555
C25 C24 1_555 1_555
H19 C25 1_555 1_555
C26 C21 1_555 1_555
H20 C26 1_555 1_555
C27 N6 1_555 1_555
H21 C27 1_555 1_555
C28 N6 1_555 1_555
H22 C28 1_555 1_555
H23 C28 1_555 1_555
C29 C28 1_555 1_555
H24 C29 1_555 1_555
H25 C29 1_555 1_555
C30 N7 1_555 1_555
H26 C30 1_555 1_555
H27 C30 1_555 1_555
C31 N7 1_555 1_555
H28 C31 1_555 1_555
C32 C31 1_555 1_555
C33 N8 1_555 1_555
C34 C33 1_555 1_555
H29 C34 1_555 1_555
C35 C34 1_555 1_555
H30 C35 1_555 1_555
C36 C35 1_555 1_555
H31 C36 1_555 1_555
C37 C32 1_555 1_555
H32 C37 1_555 1_555
C38 O4 1_555 1_555
C39 C40 1_555 1_555
C40 H33 1_555 1_555
C41 C40 1_555 1_555
C42 C41 1_555 1_555
H34 C42 1_555 1_555
C43 C42 1_555 1_555
H35 C43 1_555 1_555
C44 C39 1_555 1_555
H36 C44 1_555 1_555
C45 O5 1_555 1_555
C46 O7 1_555 1_555
C47 C48 1_555 1_555
C48 H37 1_555 1_555
C49 C48 1_555 1_555
H38 C49 1_555 1_555
C50 C47 1_555 1_555
H39 C50 1_555 1_555
C51 O9 1_555 1_555
C52 C53 1_555 1_555
C53 H40 1_555 1_555
C54 C53 1_555 1_555
H41 C54 1_555 1_555
C55 C52 1_555 1_555
H42 C55 1_555 1_555
C56 O11 1_555 1_555
O9A C51A 1_555 1_555
O10A C51A 1_555 1_555
C47A C50 1_555 1_555
C48A C49 1_555 1_555
H37A C48A 1_555 1_555
C51A C47A 1_555 1_555
O11A C56A 1_555 1_555
O12A C56A 1_555 1_555
C52A C55 1_555 1_555
C53A C54 1_555 1_555
H40A C53A 1_555 1_555
C56A C52A 1_555 1_555
Pb1A O9A 1_555 1_555
Pb2A O3A 1_555 1_555
Ni1A N1A 1_555 1_555
Ni2A N5A 1_555 1_555
O1A Pb1A 1_555 1_555
O2A Pb1A 1_555 1_555
O3A C20A 1_555 1_555
O4A Pb2A 1_555 1_555
O5A Pb2A 1_555 1_555
O6A Pb2A 1_555 1_555
O7A Pb1A 1_555 1_555
O8A C46A 1_555 1_555
N1A C1A 1_555 1_555
N2A Ni1A 1_555 1_555
N3A Ni1A 1_555 1_555
N4A Ni1A 1_555 1_555
N5A C20A 1_555 1_555
N6A Ni2A 1_555 1_555
N7A Ni2A 1_555 1_555
N8A Ni2A 1_555 1_555
C1A O2A 1_555 1_555
C2A N1A 1_555 1_555
C3A C2A 1_555 1_555
C4A C3A 1_555 1_555
H1A C4A 1_555 1_555
C5A C4A 1_555 1_555
H2A C5A 1_555 1_555
C6A C5A 1_555 1_555
H3A C6A 1_555 1_555
C7A C2A 1_555 1_555
H4A C7A 1_555 1_555
C8A N2A 1_555 1_555
H5A C8A 1_555 1_555
C9A N2A 1_555 1_555
H6A C9A 1_555 1_555
H7A C9A 1_555 1_555
C10A C9A 1_555 1_555
H8A C10A 1_555 1_555
H9A C10A 1_555 1_555
C11A N3A 1_555 1_555
H10A C11A 1_555 1_555
H11A C11A 1_555 1_555
C12A N3A 1_555 1_555
H12A C12A 1_555 1_555
C13A C12A 1_555 1_555
C14A N4A 1_555 1_555
C15A C14A 1_555 1_555
H13A C15A 1_555 1_555
C16A C15A 1_555 1_555
H14A C16A 1_555 1_555
C17A C16A 1_555 1_555
H15A C17A 1_555 1_555
C18A C13A 1_555 1_555
H16A C18A 1_555 1_555
C19A O1A 1_555 1_555
C20A C38A 1_555 1_555
C21A N5A 1_555 1_555
C22A C21A 1_555 1_555
C23A C22A 1_555 1_555
H17A C23A 1_555 1_555
C24A C23A 1_555 1_555
H18A C24A 1_555 1_555
C25A C24A 1_555 1_555
H19A C25A 1_555 1_555
C26A C21A 1_555 1_555
H20A C26A 1_555 1_555
C27A N6A 1_555 1_555
H21A C27A 1_555 1_555
C28A N6A 1_555 1_555
H22A C28A 1_555 1_555
H23A C28A 1_555 1_555
C29A C28A 1_555 1_555
H24A C29A 1_555 1_555
H25A C29A 1_555 1_555
C30A N7A 1_555 1_555
H26A C30A 1_555 1_555
H27A C30A 1_555 1_555
C31A N7A 1_555 1_555
H28A C31A 1_555 1_555
C32A C31A 1_555 1_555
C33A N8A 1_555 1_555
C34A C33A 1_555 1_555
H29A C34A 1_555 1_555
C35A C34A 1_555 1_555
H30A C35A 1_555 1_555
C36A C35A 1_555 1_555
H31A C36A 1_555 1_555
C37A C32A 1_555 1_555
H32A C37A 1_555 1_555
C38A O4A 1_555 1_555
C39A C40A 1_555 1_555
C40A H33A 1_555 1_555
C41A C40A 1_555 1_555
C42A C41A 1_555 1_555
H34A C42A 1_555 1_555
C43A C42A 1_555 1_555
H35A C43A 1_555 1_555
C44A C39A 1_555 1_555
H36A C44A 1_555 1_555
C45A O5A 1_555 1_555
C46A O7A 1_555 1_555
Pb1_2 O11 1_555 1_555
Pb1A_2 O11A 1_555 1_555
Pb2_2 O7 1_555 1_555
Pb2A_2 O10A 1_555 1_555
Pb2A_3 O11A 1_555 1_555
O7_2 Pb2 1_555 1_555
O7A_2 Pb2A 1_555 1_555
O8_2 Pb2 1_555 1_555
O8A_2 Pb2A 1_555 1_555
O10_2 Pb2 1_555 1_555
O10A_2 Pb2A 1_555 1_555
O11_2 Pb1 1_555 1_555
O11A_2 Pb2A 1_555 1_555
O11A_3 Pb1A 1_555 1_555
O6 C45 1_555 1_555
O8 Pb2_2 1_555 1_555
O10 C51 1_555 1_555
O10 Pb2_2 1_555 1_555
N8 C38 1_555 1_555
C1 C19 1_555 1_555
C3 C8 1_555 1_555
C6 C7 1_555 1_555
C10 C11 1_555 1_555
C13 C14 1_555 1_555
C17 C18 1_555 1_555
C22 C27 1_555 1_555
C25 C26 1_555 1_555
C29 C30 1_555 1_555
C32 C33 1_555 1_555
C36 C37 1_555 1_555
C39 C45 1_555 1_555
C41 C46 1_555 1_555
C43 C44 1_555 1_555
C47 C51 1_555 1_555
C52 C56 1_555 1_555
O10A Pb1A 1_555 1_555
C47A C48A 1_555 1_555
C52A C53A 1_555 1_555
O6A C45A 1_555 1_555
O7A Pb2A_2 1_555 1_555
O8A Pb2A_2 1_555 1_555
N4A C19A 1_555 1_555
N8A C38A 1_555 1_555
C1A C19A 1_555 1_555
C3A C8A 1_555 1_555
C6A C7A 1_555 1_555
C10A C11A 1_555 1_555
C13A C14A 1_555 1_555
C17A C18A 1_555 1_555
C22A C27A 1_555 1_555
C25A C26A 1_555 1_555
C29A C30A 1_555 1_555
C32A C33A 1_555 1_555
C36A C37A 1_555 1_555
C39A C45A 1_555 1_555
C41A C46A 1_555 1_555
C43A C44A 1_555 1_555
Pb1_2 O7_2 1_555 1_555
Pb1_2 O10_2 1_555 1_555
Pb2_2 O11_2 1_555 1_555
Pb2A_2 O11A_3 1_555 1_555

#END
