
#######################################################################
#
#                 Cambridge Crystallographic Data Centre
#                                CCDC 
#
#######################################################################
#
# If this CIF has been generated from an entry in the Cambridge 
# Structural Database, then it will include bibliographic, chemical, 
# crystal, experimental, refinement or atomic coordinate data resulting 
# from the CCDC's data processing and validation procedures.
#
#######################################################################

data_SUDBOI
_symmetry_cell_setting           monoclinic
_symmetry_space_group_name_H-M   'P 21/n'
_symmetry_Int_Tables_number      14
_space_group_name_Hall           '-P 2yn'
loop_
_symmetry_equiv_pos_site_id
_symmetry_equiv_pos_as_xyz
1 x,y,z
2 1/2-x,1/2+y,1/2-z
3 -x,-y,-z
4 1/2+x,1/2-y,1/2+z
_cell_length_a                   10.926(1)
_cell_length_b                   13.917(1)
_cell_length_c                   13.122(1)
_cell_angle_alpha                90
_cell_angle_beta                 102.14(1)
_cell_angle_gamma                90
_cell_volume                     1950.67
loop_
_atom_site_label
_atom_site_type_symbol
_atom_site_fract_x
_atom_site_fract_y
_atom_site_fract_z
Zn1 Zn -0.25220(2) -0.53528(2) -0.50018(2)
O10 O 0.1239(1) -0.0452(1) -0.0965(1)
O11 O 0.1252(1) -0.1649(1) 0.0177(1)
O12 O -0.1410(1) -0.1143(1) -0.0666(1)
O13 O -0.2979(1) -0.1793(1) -0.1835(1)
O14 O -0.1097(1) -0.3631(1) -0.5068(1)
O15 O -0.1403(1) -0.4670(1) -0.3859(1)
O16 O 0.1456(1) -0.4037(1) -0.4191(1)
O17 O 0.2984(1) -0.3392(1) -0.3007(1)
C1 C 0.0408(2) -0.1952(1) -0.1611(2)
C2 C -0.0870(2) -0.2141(2) -0.1947(2)
C3 C -0.1250(2) -0.2776(2) -0.2768(2)
C4 C -0.0399(2) -0.3219(1) -0.3271(2)
C5 C 0.0877(2) -0.3031(2) -0.2935(2)
C6 C 0.1257(2) -0.2401(2) -0.2110(2)
C7 C 0.0975(2) -0.1307(2) -0.0711(2)
C8 C -0.1851(2) -0.1666(2) -0.1454(2)
C9 C -0.0971(2) -0.3886(2) -0.4154(2)
C10 C 0.1865(2) -0.3510(2) -0.3406(2)
H1 H -0.2145(19) -0.2896(15) -0.3036(16)
H2 H 0.2154(19) -0.2308(15) -0.1831(16)
Zn1A Zn -0.24780(2) -0.03528(2) 0.00018(2)
Zn1C Zn 0.24780(2) 0.03528(2) -0.00018(2)
Zn1B Zn 0.25220(2) -0.46472(2) -0.49982(2)
O10C O -0.3761(1) -0.4548(1) -0.5965(1)
O12A O -0.3590(1) -0.6143(1) -0.4334(1)
O16B O -0.1456(1) -0.5963(1) -0.5809(1)
Na1 Na 0.4182(1) 0.0483(1) -0.7181(1)
Na2 Na 0.5054(1) 0.2652(1) -0.7581(1)
O1 O 0.5897(2) 0.1052(1) -0.7852(1)
H3 H 0.6527(36) 0.0798(30) -0.7441(31)
H4 H 0.5849(39) 0.0927(32) -0.8372(30)
O2 O 0.2442(2) 0.0012(2) -0.6489(2)
H5 H 0.1826(37) -0.0161(30) -0.6968(32)
H6 H 0.2468(40) -0.0364(31) -0.6060(33)
O3 O 0.5031(2) 0.1845(1) -0.5939(2)
H7 H 0.4728(39) 0.2169(31) -0.5674(33)
H8 H 0.5785(36) 0.1768(29) -0.5585(30)
O4 O 0.5426(3) 0.9515(2) -0.5911(2)
H9 H 0.6067(37) 0.9345(34) -0.5797(36)
H10 H 0.5225(49) 0.9405(37) -0.5582(38)
O5 O 0.4947(2) 0.2976(1) -0.9363(2)
H11 H 0.5038(43) 0.2551(31) -0.9558(34)
H12 H 0.5484(36) 0.3468(28) -0.9686(30)
O6 O 0.4308(2) 0.4150(1) -0.6957(1)
H13 H 0.4931(36) 0.4548(28) -0.6660(32)
H14 H 0.4100(38) 0.4014(30) -0.6478(32)
O7 O 0.2178(2) 0.1391(2) -0.4989(2)
H15 H 0.2346(39) 0.1909(30) -0.5155(32)
H16 H 0.1980(34) 0.0774(30) -0.5748(30)
O8 O 0.2556(2) 0.3689(2) -0.0159(2)
H17 H 0.2610(40) 0.4069(30) -0.0605(32)
H18 H 0.3390(38) 0.3426(28) 0.0124(30)
O9 O 0.3274(3) 0.4787(2) -0.1830(2)
H19 H 0.3056(41) 0.5354(29) -0.1866(35)
H20 H 0.3807(39) 0.4945(34) -0.1382(33)
loop_
_geom_bond_atom_site_label_1
_geom_bond_atom_site_label_2
_geom_bond_site_symmetry_1
_geom_bond_site_symmetry_2
Zn1 O15 1_555 1_555
O1 H3 1_555 1_555
O2 H5 1_555 1_555
O3 H7 1_555 1_555
O4 H9 1_555 1_555
O5 H11 1_555 1_555
O6 H13 1_555 1_555
O7 H15 1_555 1_555
O8 H17 1_555 1_555
O9 H19 1_555 1_555
O10 C7 1_555 1_555
O11 C7 1_555 1_555
O12 C8 1_555 1_555
O13 C8 1_555 1_555
O14 C9 1_555 1_555
O15 C9 1_555 1_555
O16 C10 1_555 1_555
O17 C10 1_555 1_555
C1 C2 1_555 1_555
C2 C3 1_555 1_555
C3 C4 1_555 1_555
C4 C5 1_555 1_555
C5 C6 1_555 1_555
C6 C1 1_555 1_555
C7 C1 1_555 1_555
C8 C2 1_555 1_555
C9 C4 1_555 1_555
C10 C5 1_555 1_555
H1 C3 1_555 1_555
H2 C6 1_555 1_555
H4 O1 1_555 1_555
H6 O2 1_555 1_555
H8 O3 1_555 1_555
H10 O4 1_555 1_555
H12 O5 1_555 1_555
H14 O6 1_555 1_555
H16 O7 1_555 1_555
H18 O8 1_555 1_555
H20 O9 1_555 1_555
Zn1A O12 1_555 1_555
Zn1C O10 1_555 1_555
Zn1B O16 1_555 1_555
O10C Zn1 1_555 1_555
O12A Zn1 1_555 1_555
O16B Zn1 1_555 1_555

#END
