
#######################################################################
#
#                 Cambridge Crystallographic Data Centre
#                                CCDC 
#
#######################################################################
#
# If this CIF has been generated from an entry in the Cambridge 
# Structural Database, then it will include bibliographic, chemical, 
# crystal, experimental, refinement or atomic coordinate data resulting 
# from the CCDC's data processing and validation procedures.
#
#######################################################################

data_SUDMIP
_symmetry_cell_setting           monoclinic
_symmetry_space_group_name_H-M   'P 21/c'
_symmetry_Int_Tables_number      14
_space_group_name_Hall           '-P 2ybc'
loop_
_symmetry_equiv_pos_site_id
_symmetry_equiv_pos_as_xyz
1 x,y,z
2 -x,1/2+y,1/2-z
3 -x,-y,-z
4 x,1/2-y,1/2+z
_cell_length_a                   10.426(4)
_cell_length_b                   9.212(4)
_cell_length_c                   18.071(7)
_cell_angle_alpha                90
_cell_angle_beta                 90.030(2)
_cell_angle_gamma                90
_cell_volume                     1735.62
loop_
_atom_site_label
_atom_site_type_symbol
_atom_site_fract_x
_atom_site_fract_y
_atom_site_fract_z
Cd1 Cd 0.13068(3) 0.91811(2) 0.945250(18)
N1 N 0.3055(3) 1.0559(3) 0.9501(2)
C1 C 0.3844(6) 1.0845(4) 0.8901(2)
C2 C 0.3523(5) 1.1330(4) 1.0068(2)
C3 C 0.0967(4) 0.5799(4) 0.7921(2)
H1 H 0.1307 0.6112 0.7442
C4 C 0.3803(5) 1.0346(4) 0.8174(2)
H2 H 0.3172 0.9702 0.8017
C5 C 0.1068(4) 0.7096(4) 0.8442(2)
C6 C 0.4824(4) 1.1795(4) 0.9124(2)
N2 N 0.4592(3) 1.2082(3) 0.98675(19)
O1 O 0.0087(3) 0.7665(3) 0.87091(17)
C7 C -0.0958(4) 0.4462(4) 0.8445(2)
H3 H -0.1077 0.5127 0.8855
H4 H -0.1790 0.4074 0.8310
O2 O 0.2180(3) 0.7586(3) 0.85775(16)
C8 C 0.5764(4) 1.2281(4) 0.8644(2)
H5 H 0.6411 1.2908 0.8798
C9 C 0.5378(4) 1.3012(4) 1.0348(2)
H6 H 0.6259 1.2986 1.0178
H7 H 0.5360 1.2626 1.0848
C10 C 0.4732(5) 1.0843(4) 0.7696(3)
H8 H 0.4717 1.0537 0.7206
C11 C 0.5692(5) 1.1788(4) 0.7925(3)
H9 H 0.6302 1.2097 0.7584
C12 C -0.0388(4) 0.5279(4) 0.7787(2)
H10 H -0.0394 0.4647 0.7357
H11 H -0.0927 0.6110 0.7676
C13 C 0.4915(4) 1.4602(4) 1.0364(2)
H12 H 0.4014 1.4618 1.0497
H13 H 0.5383 1.5119 1.0746
C14 C 0.1827(4) 0.4563(4) 0.8193(3)
H14 H 0.1938 0.3860 0.7798
H15 H 0.2665 0.4948 0.8318
C15 C 0.2945(5) 1.1395(5) 1.0821(2)
H16 H 0.2305 1.0651 1.0868
H17 H 0.2555 1.2329 1.0894
H18 H 0.3601 1.1248 1.1186
C16 C -0.0079(4) 0.3223(4) 0.8684(2)
H19 H 0.0016 0.2576 0.8257
C17 C -0.0616(4) 0.2328(4) 0.9308(2)
C18 C 0.1255(5) 0.3810(4) 0.8868(2)
H20 H 0.1196 0.4493 0.9275
H21 H 0.1808 0.3017 0.9020
O3 O -0.1544(3) 0.2766(3) 0.96740(15)
O4 O -0.0105(3) 0.1120(2) 0.9468(2)
N1B N 0.6945(3) 1.9441(3) 1.0499(2)
C1B C 0.6156(6) 1.9155(4) 1.1099(2)
C2B C 0.6477(5) 1.8670(4) 0.9932(2)
C4B C 0.6197(5) 1.9654(4) 1.1826(2)
H2B H 0.6828 2.0298 1.1983
C6B C 0.5176(4) 1.8205(4) 1.0876(2)
N2B N 0.5408(3) 1.7918(3) 1.01325(19)
C8B C 0.4236(4) 1.7719(4) 1.1356(2)
H5B H 0.3589 1.7092 1.1202
C9B C 0.4622(4) 1.6988(4) 0.9652(2)
H6B H 0.3741 1.7014 0.9822
H7B H 0.4640 1.7374 0.9152
C10B C 0.5268(5) 1.9157(4) 1.2304(3)
H8B H 0.5283 1.9463 1.2794
C11B C 0.4308(5) 1.8212(4) 1.2075(3)
H9B H 0.3698 1.7903 1.2416
C13B C 0.5085(4) 1.5398(4) 0.9636(2)
H12B H 0.5986 1.5382 0.9503
H13B H 0.4617 1.4881 0.9254
C15B C 0.7055(5) 1.8605(5) 0.9179(2)
H16B H 0.7695 1.9349 0.9132
H17B H 0.7445 1.7671 0.9106
H18B H 0.6399 1.8752 0.8814
Cd1B Cd -0.13068(3) 0.08189(2) 1.054750(18)
C3B C -0.0967(4) 0.4201(4) 1.2079(2)
H1B H -0.1307 0.3888 1.2558
C5B C -0.1068(4) 0.2904(4) 1.1558(2)
O1B O -0.0087(3) 0.2335(3) 1.12909(17)
C7B C 0.0958(4) 0.5538(4) 1.1555(2)
H3B H 0.1077 0.4873 1.1145
H4B H 0.1790 0.5926 1.1690
O2B O -0.2180(3) 0.2414(3) 1.14225(16)
C12B C 0.0388(4) 0.4721(4) 1.2213(2)
H10B H 0.0394 0.5353 1.2643
H11B H 0.0927 0.3890 1.2324
C14B C -0.1827(4) 0.5437(4) 1.1807(3)
H14B H -0.1938 0.6140 1.2202
H15B H -0.2665 0.5052 1.1682
C16B C 0.0079(4) 0.6777(4) 1.1316(2)
H19B H -0.0016 0.7424 1.1743
C17B C 0.0616(4) 0.7672(4) 1.0692(2)
C18B C -0.1255(5) 0.6190(4) 1.1132(2)
H20B H -0.1196 0.5507 1.0725
H21B H -0.1808 0.6983 1.0980
O3B O 0.1544(3) 0.7234(3) 1.03260(15)
O4B O 0.0105(3) 0.8880(2) 1.0532(2)
Cd1_2 Cd 0.13068(3) -0.08189(2) 0.945250(18)
Cd1B_2 Cd -0.13068(3) 1.08189(2) 1.054750(18)
Cd1B_3 Cd 0.86932(3) 2.08189(2) 1.054750(18)
N1B_2 N -0.3055(3) -0.0559(3) 1.0499(2)
O4_2 O -0.0105(3) 1.1120(2) 0.9468(2)
O4B_2 O 0.0105(3) -0.1120(2) 1.0532(2)
loop_
_geom_bond_atom_site_label_1
_geom_bond_atom_site_label_2
_geom_bond_site_symmetry_1
_geom_bond_site_symmetry_2
Cd1 N1 1_555 1_555
N1 C1 1_555 1_555
C1 C4 1_555 1_555
C2 N1 1_555 1_555
C3 H1 1_555 1_555
C4 H2 1_555 1_555
C5 C3 1_555 1_555
C6 C1 1_555 1_555
N2 C2 1_555 1_555
O1 Cd1 1_555 1_555
C7 H3 1_555 1_555
H4 C7 1_555 1_555
O2 Cd1 1_555 1_555
C8 C6 1_555 1_555
H5 C8 1_555 1_555
C9 N2 1_555 1_555
H6 C9 1_555 1_555
H7 C9 1_555 1_555
C10 C4 1_555 1_555
H8 C10 1_555 1_555
C11 C8 1_555 1_555
H9 C11 1_555 1_555
C12 C3 1_555 1_555
H10 C12 1_555 1_555
H11 C12 1_555 1_555
C13 C9 1_555 1_555
H12 C13 1_555 1_555
H13 C13 1_555 1_555
C14 C3 1_555 1_555
H14 C14 1_555 1_555
H15 C14 1_555 1_555
C15 C2 1_555 1_555
H16 C15 1_555 1_555
H17 C15 1_555 1_555
H18 C15 1_555 1_555
C16 C7 1_555 1_555
H19 C16 1_555 1_555
C17 C16 1_555 1_555
C18 C14 1_555 1_555
H20 C18 1_555 1_555
H21 C18 1_555 1_555
O3 C17 1_555 1_555
O4 C17 1_555 1_555
N1B C1B 1_555 1_555
C1B C4B 1_555 1_555
C2B N1B 1_555 1_555
C4B H2B 1_555 1_555
C6B C1B 1_555 1_555
N2B C2B 1_555 1_555
C8B C6B 1_555 1_555
H5B C8B 1_555 1_555
C9B N2B 1_555 1_555
H6B C9B 1_555 1_555
H7B C9B 1_555 1_555
C10B C4B 1_555 1_555
H8B C10B 1_555 1_555
C11B C8B 1_555 1_555
H9B C11B 1_555 1_555
C13B C13 1_555 1_555
H12B C13B 1_555 1_555
H13B C13B 1_555 1_555
C15B C2B 1_555 1_555
H16B C15B 1_555 1_555
H17B C15B 1_555 1_555
H18B C15B 1_555 1_555
Cd1B O3 1_555 1_555
C3B H1B 1_555 1_555
C5B C3B 1_555 1_555
O1B Cd1B 1_555 1_555
C7B H3B 1_555 1_555
H4B C7B 1_555 1_555
O2B Cd1B 1_555 1_555
C12B C3B 1_555 1_555
H10B C12B 1_555 1_555
H11B C12B 1_555 1_555
C14B C3B 1_555 1_555
H14B C14B 1_555 1_555
H15B C14B 1_555 1_555
C16B C7B 1_555 1_555
H19B C16B 1_555 1_555
C17B C16B 1_555 1_555
C18B C14B 1_555 1_555
H20B C18B 1_555 1_555
H21B C18B 1_555 1_555
O3B Cd1 1_555 1_555
O4B Cd1 1_555 1_555
Cd1_2 O4 1_555 1_555
Cd1B_2 O4B 1_555 1_555
Cd1B_3 N1B 1_555 1_555
N1B_2 Cd1B 1_555 1_555
O4_2 Cd1 1_555 1_555
O4B_2 Cd1B 1_555 1_555
C5 O1 1_555 1_555
C5 O2 1_555 1_555
C6 N2 1_555 1_555
C7 C12 1_555 1_555
C10 C11 1_555 1_555
C16 C18 1_555 1_555
O4 Cd1B 1_555 1_555
C6B N2B 1_555 1_555
C9B C13B 1_555 1_555
C10B C11B 1_555 1_555
C5B O1B 1_555 1_555
C5B O2B 1_555 1_555
C7B C12B 1_555 1_555
C16B C18B 1_555 1_555
C17B O3B 1_555 1_555
C17B O4B 1_555 1_555
Cd1_2 O4B_2 1_555 1_555
Cd1B_2 O4_2 1_555 1_555

#END
