
#######################################################################
#
#                 Cambridge Crystallographic Data Centre
#                                CCDC 
#
#######################################################################
#
# If this CIF has been generated from an entry in the Cambridge 
# Structural Database, then it will include bibliographic, chemical, 
# crystal, experimental, refinement or atomic coordinate data resulting 
# from the CCDC's data processing and validation procedures.
#
#######################################################################

data_SUDMEL
_symmetry_cell_setting           monoclinic
_symmetry_space_group_name_H-M   'P 21/n'
_symmetry_Int_Tables_number      14
_space_group_name_Hall           '-P 2yn'
loop_
_symmetry_equiv_pos_site_id
_symmetry_equiv_pos_as_xyz
1 x,y,z
2 1/2-x,1/2+y,1/2-z
3 -x,-y,-z
4 1/2+x,1/2-y,1/2+z
_cell_length_a                   9.9402(12)
_cell_length_b                   17.002(2)
_cell_length_c                   14.8493(17)
_cell_angle_alpha                90
_cell_angle_beta                 96.780(2)
_cell_angle_gamma                90
_cell_volume                     2492.03
loop_
_atom_site_label
_atom_site_type_symbol
_atom_site_fract_x
_atom_site_fract_y
_atom_site_fract_z
Cd1 Cd 0.243765(16) 0.308192(10) -0.163681(11)
O1 O 0.2520(2) 0.19056(10) -0.08831(12)
N1 N 0.91879(18) 0.31454(11) 0.10683(13)
C1 C 0.8859(2) 0.31000(14) 0.19302(17)
O2 O 0.21655(18) 0.29077(10) -0.00196(12)
C2 C 0.8134(2) 0.20241(13) 0.12624(17)
N2 N 0.61699(18) 0.43666(12) -0.04698(14)
C3 C 0.2340(2) 0.21857(15) -0.01212(16)
C4 C 0.8858(3) 0.21709(16) -0.02387(18)
H1 H 0.9300 0.2454 -0.0652
C5 C 0.8648(2) 0.41377(14) -0.01302(16)
H2 H 0.9045 0.4566 -0.0440
H3 H 0.8425 0.3720 -0.0568
C6 C 0.2384(2) 0.16186(15) 0.06781(16)
H4 H 0.1594 0.1272 0.0570
N3 N 0.42995(18) 0.38824(12) -0.12556(14)
C7 C 0.8759(2) 0.24485(14) 0.06301(16)
C8 C 0.4585(2) 0.46143(14) -0.16163(17)
C9 C 0.3621(2) 0.08985(15) 0.24198(17)
H5 H 0.3461 0.0477 0.2845
C10 C 0.3650(3) 0.11050(14) 0.07268(17)
H6 H 0.3662 0.0828 0.0157
H7 H 0.4449 0.1437 0.0817
C11 C 0.2323(2) 0.20248(17) 0.15836(17)
H8 H 0.3066 0.2395 0.1688
H9 H 0.1483 0.2319 0.1560
C12 C 0.5757(2) 0.49199(14) -0.11357(17)
C13 C 0.3906(3) 0.50393(15) -0.23289(18)
H10 H 0.3112 0.4848 -0.2648
C14 C 0.5445(3) 0.30294(16) -0.0039(2)
H11 H 0.5397 0.3150 0.0588
H12 H 0.6308 0.2796 -0.0104
H13 H 0.4735 0.2667 -0.0249
C15 C 0.5282(2) 0.37587(15) -0.05802(18)
C16 C 0.2402(2) 0.14485(19) 0.23703(18)
H14 H 0.1581 0.1135 0.2315
H15 H 0.2442 0.1742 0.2933
C17 C 0.7352(2) 0.44264(16) 0.02130(18)
H16 H 0.7190 0.4120 0.0741
H17 H 0.7470 0.4971 0.0401
C18 C 0.9691(2) 0.38322(14) 0.06233(17)
H18 H 1.0516 0.3693 0.0370
H19 H 0.9909 0.4245 0.1068
C19 C 0.7500(3) 0.13114(15) 0.10246(19)
H20 H 0.7044 0.1031 0.1433
C20 C 0.9262(3) 0.37177(16) 0.26227(19)
H21 H 0.8865 0.3603 0.3167
H22 H 0.8949 0.4221 0.2393
H23 H 1.0231 0.3727 0.2755
C21 C 0.6293(3) 0.56401(15) -0.1347(2)
H24 H 0.7071 0.5842 -0.1019
C22 C 0.3696(3) 0.05107(15) 0.14970(18)
H25 H 0.4528 0.0210 0.1521
H26 H 0.2944 0.0147 0.1373
C23 C 0.8266(3) 0.14551(17) -0.0453(2)
H27 H 0.8326 0.1240 -0.1023
C24 C 0.4434(3) 0.57452(17) -0.2548(2)
H28 H 0.3997 0.6034 -0.3028
C25 C 0.5613(3) 0.60420(16) -0.2068(2)
H29 H 0.5950 0.6523 -0.2238
C26 C 0.7577(3) 0.10414(17) 0.0162(2)
H30 H 0.7158 0.0569 -0.0019
O3 O 0.50715(18) 0.20043(11) 0.28762(15)
C27 C 0.4972(2) 0.12803(15) 0.27747(16)
N4 N 0.82216(19) 0.24350(11) 0.20804(13)
O4 O 0.59839(17) 0.08425(12) 0.29566(15)
Cd1C Cd 0.743765(16) 0.191808(10) 0.336319(11)
O3C O 0.00715(18) 0.29957(11) -0.21238(15)
N4C N 0.32216(19) 0.25650(11) -0.29196(13)
O4C O 0.09839(17) 0.41575(12) -0.20434(15)
loop_
_geom_bond_atom_site_label_1
_geom_bond_atom_site_label_2
_geom_bond_site_symmetry_1
_geom_bond_site_symmetry_2
Cd1 O1 1_555 1_555
O1 C3 1_555 1_555
N1 C1 1_555 1_555
C1 C20 1_555 1_555
O2 Cd1 1_555 1_555
C2 C7 1_555 1_555
N2 C12 1_555 1_555
C3 O2 1_555 1_555
C4 H1 1_555 1_555
C5 H2 1_555 1_555
H3 C5 1_555 1_555
C6 C3 1_555 1_555
H4 C6 1_555 1_555
N3 Cd1 1_555 1_555
C7 N1 1_555 1_555
C8 N3 1_555 1_555
C9 H5 1_555 1_555
C10 C6 1_555 1_555
H6 C10 1_555 1_555
H7 C10 1_555 1_555
C11 C6 1_555 1_555
H8 C11 1_555 1_555
H9 C11 1_555 1_555
C12 C8 1_555 1_555
C13 C8 1_555 1_555
H10 C13 1_555 1_555
C14 H11 1_555 1_555
H12 C14 1_555 1_555
H13 C14 1_555 1_555
C15 N2 1_555 1_555
C16 C9 1_555 1_555
H14 C16 1_555 1_555
H15 C16 1_555 1_555
C17 N2 1_555 1_555
H16 C17 1_555 1_555
H17 C17 1_555 1_555
C18 N1 1_555 1_555
H18 C18 1_555 1_555
H19 C18 1_555 1_555
C19 C2 1_555 1_555
H20 C19 1_555 1_555
C20 H21 1_555 1_555
H22 C20 1_555 1_555
H23 C20 1_555 1_555
C21 C12 1_555 1_555
H24 C21 1_555 1_555
C22 C9 1_555 1_555
H25 C22 1_555 1_555
H26 C22 1_555 1_555
C23 C4 1_555 1_555
H27 C23 1_555 1_555
C24 C13 1_555 1_555
H28 C24 1_555 1_555
C25 C21 1_555 1_555
H29 C25 1_555 1_555
C26 C19 1_555 1_555
H30 C26 1_555 1_555
O3 C27 1_555 1_555
C27 C9 1_555 1_555
N4 C1 1_555 1_555
O4 C27 1_555 1_555
Cd1C O3 1_555 1_555
O3C Cd1 1_555 1_555
N4C Cd1 1_555 1_555
O4C Cd1 1_555 1_555
C2 N4 1_555 1_555
C4 C7 1_555 1_555
C5 C17 1_555 1_555
C5 C18 1_555 1_555
N3 C15 1_555 1_555
C10 C22 1_555 1_555
C11 C16 1_555 1_555
C14 C15 1_555 1_555
C23 C26 1_555 1_555
C24 C25 1_555 1_555
N4 Cd1C 1_555 1_555
O4 Cd1C 1_555 1_555

#END
