
#######################################################################
#
#                 Cambridge Crystallographic Data Centre
#                                CCDC 
#
#######################################################################
#
# If this CIF has been generated from an entry in the Cambridge 
# Structural Database, then it will include bibliographic, chemical, 
# crystal, experimental, refinement or atomic coordinate data resulting 
# from the CCDC's data processing and validation procedures.
#
#######################################################################

data_SUDNIQ
_symmetry_cell_setting           monoclinic
_symmetry_space_group_name_H-M   'C 2/c'
_symmetry_Int_Tables_number      15
_space_group_name_Hall           '-C 2yn'
loop_
_symmetry_equiv_pos_site_id
_symmetry_equiv_pos_as_xyz
1 x,y,z
2 -x,y,1/2-z
3 1/2+x,1/2+y,z
4 1/2-x,1/2+y,1/2-z
5 -x,-y,-z
6 x,-y,1/2+z
7 1/2-x,1/2-y,-z
8 1/2+x,1/2-y,1/2+z
_cell_length_a                   19.7130(2)
_cell_length_b                   8.15100(10)
_cell_length_c                   9.79280(10)
_cell_angle_alpha                90
_cell_angle_beta                 92.5250(10)
_cell_angle_gamma                90
_cell_volume                     1571.99
loop_
_atom_site_label
_atom_site_type_symbol
_atom_site_fract_x
_atom_site_fract_y
_atom_site_fract_z
Pb1 Pb 0.0000 0.04369(5) -0.2500
Pb2 Pb -0.18331(2) 0.96086(4) -0.04374(4)
O1 O -0.2065(4) 0.1839(7) 0.2320(6)
O2 O -0.1040(4) 0.1875(7) 0.3236(6)
O3 O -0.1296(4) 0.8341(7) 0.1913(7)
O4 O -0.1864(4) 0.6847(7) 0.0344(6)
O5 O -0.0725(4) 0.1011(7) 0.0194(6)
O6 O -0.0084(4) 0.2687(7) -0.0995(6)
C1 C -0.1477(7) 0.2388(11) 0.2392(8)
C2 C -0.1296(7) 0.3862(11) 0.1456(11)
H1 H -0.1642 0.3871 0.0678
C3 C -0.0633(7) 0.3847(11) 0.0858(11)
H2 H -0.0282 0.3874 0.1613
H3 H -0.0587 0.4871 0.0327
C4 C -0.0478(6) 0.2415(10) -0.0066(8)
C5 C -0.1426(6) 0.5433(8) 0.2329(10)
H4 H -0.1848 0.5276 0.2826
H5 H -0.1047 0.5566 0.3017
C6 C -0.1490(7) 0.6945(12) 0.1506(9)
Pb2A Pb 0.18331(2) 0.96086(4) -0.45626(4)
O1A O 0.2065(4) 0.1839(7) -0.7320(6)
O2A O 0.1040(4) 0.1875(7) -0.8236(6)
O3A O 0.1296(4) 0.8341(7) -0.6913(7)
O4A O 0.1864(4) 0.6847(7) -0.5344(6)
O5A O 0.0725(4) 0.1011(7) -0.5194(6)
O6A O 0.0084(4) 0.2687(7) -0.4005(6)
C1A C 0.1477(7) 0.2388(11) -0.7392(8)
C2A C 0.1296(7) 0.3862(11) -0.6456(11)
H1A H 0.1642 0.3871 -0.5678
C3A C 0.0633(7) 0.3847(11) -0.5858(11)
H2A H 0.0282 0.3874 -0.6613
H3A H 0.0587 0.4871 -0.5327
C4A C 0.0478(6) 0.2415(10) -0.4934(8)
C5A C 0.1426(6) 0.5433(8) -0.7329(10)
H4A H 0.1848 0.5276 -0.7826
H5A H 0.1047 0.5566 -0.8017
C6A C 0.1490(7) 0.6945(12) -0.6506(9)
Pb1D Pb 0.0000 -0.04369(5) -0.7500
Pb1D_2 Pb 0.0000 -0.04369(5) 0.2500
Pb1D_3 Pb 0.0000 0.95631(5) -0.7500
Pb1D_4 Pb 0.0000 0.95631(5) 0.2500
Pb2_2 Pb -0.18331(2) -0.03914(4) -0.04374(4)
Pb2A_2 Pb 0.18331(2) -0.03914(4) -0.45626(4)
Pb2D Pb 0.18331(2) 0.03914(4) -0.95626(4)
Pb2E Pb -0.18331(2) 0.03914(4) 0.45626(4)
Pb2F Pb -0.31669(2) 0.53914(4) 0.04374(4)
Pb2G Pb 0.31669(2) 0.53914(4) -0.54374(4)
O1D O 0.2065(4) 0.8161(7) -0.2320(6)
O1E O -0.2065(4) 0.8161(7) -0.2680(6)
O2D O 0.1040(4) -0.1875(7) -0.3236(6)
O2D_2 O 0.1040(4) 0.8125(7) -0.3236(6)
O2E O -0.1040(4) -0.1875(7) -0.1764(6)
O2E_2 O -0.1040(4) 0.8125(7) -0.1764(6)
O3D O 0.1296(4) 0.1659(7) -0.1913(7)
O3E O -0.1296(4) 0.1659(7) -0.3087(7)
O4F O -0.3136(4) 0.8153(7) -0.0344(6)
O4G O 0.3136(4) 0.8153(7) -0.4656(6)
O5_2 O -0.0725(4) 1.1011(7) 0.0194(6)
O5A_2 O 0.0725(4) 1.1011(7) -0.5194(6)
O5D O 0.0725(4) -0.1011(7) -0.0194(6)
O5E O -0.0725(4) -0.1011(7) -0.4806(6)
loop_
_geom_bond_atom_site_label_1
_geom_bond_atom_site_label_2
_geom_bond_site_symmetry_1
_geom_bond_site_symmetry_2
Pb1 O6 1_555 1_555
Pb2 O3 1_555 1_555
O1 C1 1_555 1_555
O2 C1 1_555 1_555
O3 C6 1_555 1_555
O4 Pb2 1_555 1_555
O5 C4 1_555 1_555
O6 C4 1_555 1_555
C1 C2 1_555 1_555
C2 H1 1_555 1_555
C3 C2 1_555 1_555
H2 C3 1_555 1_555
H3 C3 1_555 1_555
C4 C3 1_555 1_555
C5 C2 1_555 1_555
H4 C5 1_555 1_555
H5 C5 1_555 1_555
C6 O4 1_555 1_555
Pb2A O3A 1_555 1_555
O1A C1A 1_555 1_555
O2A C1A 1_555 1_555
O3A C6A 1_555 1_555
O4A Pb2A 1_555 1_555
O5A C4A 1_555 1_555
O6A Pb1 1_555 1_555
C1A C2A 1_555 1_555
C2A H1A 1_555 1_555
C3A C2A 1_555 1_555
H2A C3A 1_555 1_555
H3A C3A 1_555 1_555
C4A O6A 1_555 1_555
C5A C2A 1_555 1_555
H4A C5A 1_555 1_555
H5A C5A 1_555 1_555
C6A O4A 1_555 1_555
Pb1D O2A 1_555 1_555
Pb1D_2 O2 1_555 1_555
Pb1D_3 O3A 1_555 1_555
Pb1D_4 O3 1_555 1_555
Pb2_2 O5 1_555 1_555
Pb2A_2 O5A 1_555 1_555
Pb2D O1A 1_555 1_555
Pb2E O1 1_555 1_555
Pb2F O4 1_555 1_555
Pb2G O4A 1_555 1_555
O1D Pb2A 1_555 1_555
O1E Pb2 1_555 1_555
O2D Pb1 1_555 1_555
O2D_2 Pb2A 1_555 1_555
O2E Pb1 1_555 1_555
O2E_2 Pb2 1_555 1_555
O3D Pb1 1_555 1_555
O3E Pb1 1_555 1_555
O4F Pb2 1_555 1_555
O4G Pb2A 1_555 1_555
O5_2 Pb2 1_555 1_555
O5A_2 Pb2A 1_555 1_555
O5D Pb1 1_555 1_555
O5E Pb1 1_555 1_555
O2 Pb2E 1_555 1_555
O5 Pb1D_2 1_555 1_555
C5 C6 1_555 1_555
O2A Pb2D 1_555 1_555
O5A Pb1D 1_555 1_555
C3A C4A 1_555 1_555
C5A C6A 1_555 1_555
Pb1D_3 O5A_2 1_555 1_555
Pb1D_4 O5_2 1_555 1_555
Pb2_2 O2E 1_555 1_555
Pb2A_2 O2D 1_555 1_555
Pb2F O4F 1_555 1_555
Pb2G O4G 1_555 1_555

#END
