
#######################################################################
#
#                 Cambridge Crystallographic Data Centre
#                                CCDC 
#
#######################################################################
#
# If this CIF has been generated from an entry in the Cambridge 
# Structural Database, then it will include bibliographic, chemical, 
# crystal, experimental, refinement or atomic coordinate data resulting 
# from the CCDC's data processing and validation procedures.
#
#######################################################################

data_SUDNOW
_symmetry_cell_setting           triclinic
_symmetry_space_group_name_H-M   'P -1'
_symmetry_Int_Tables_number      2
_space_group_name_Hall           '-P 1'
loop_
_symmetry_equiv_pos_site_id
_symmetry_equiv_pos_as_xyz
1 x,y,z
2 -x,-y,-z
_cell_length_a                   7.92540(10)
_cell_length_b                   10.74520(10)
_cell_length_c                   11.3467(2)
_cell_angle_alpha                115.1450(10)
_cell_angle_beta                 98.2720(10)
_cell_angle_gamma                92.3460(10)
_cell_volume                     859.978
loop_
_atom_site_label
_atom_site_type_symbol
_atom_site_fract_x
_atom_site_fract_y
_atom_site_fract_z
Pb1 Pb 0.11274(4) -0.12539(2) 0.10810(2)
N1 N 0.0668(9) 0.0894(6) 0.3087(6)
N2 N 0.2356(9) -0.1224(6) 0.3236(6)
C1 C -0.0182(13) 0.1925(8) 0.3031(9)
H1 H -0.0655 0.1861 0.2187
C2 C -0.0400(12) 0.3058(8) 0.4123(8)
H2 H -0.0995 0.3772 0.4035
C3 C 0.0250(13) 0.3164(8) 0.5361(9)
H3 H 0.0078 0.3949 0.6124
C4 C 0.1139(11) 0.2157(7) 0.5512(8)
C5 C 0.1869(12) 0.2168(8) 0.6737(8)
H4 H 0.1741 0.2929 0.7536
C6 C 0.2715(13) 0.1165(8) 0.6810(8)
H5 H 0.3208 0.1234 0.7653
C7 C 0.2907(11) -0.0039(8) 0.5628(8)
C8 C 0.3812(12) -0.1121(9) 0.5674(8)
H6 H 0.4325 -0.1093 0.6496
C9 C 0.3936(12) -0.2232(8) 0.4488(9)
H7 H 0.4532 -0.2983 0.4485
C10 C 0.3183(11) -0.2230(7) 0.3314(8)
H8 H 0.3268 -0.3004 0.2512
C11 C 0.2205(11) -0.0120(7) 0.4389(7)
C12 C 0.1320(11) 0.0984(7) 0.4306(7)
O1 O 0.3099(8) -0.3065(5) 0.0372(5)
O2 O 0.1449(9) -0.4428(7) -0.1565(6)
O3 O 0.8014(9) -0.0778(6) -0.0297(6)
O4 O 0.6273(8) -0.0111(5) -0.1541(5)
O5 O 0.8629(8) -0.3981(6) -0.0699(6)
H9 H 0.931(13) -0.460(10) -0.120(9)
O6 O 0.7531(9) -0.4188(7) -0.2710(6)
C13 C 0.2879(12) -0.3944(8) -0.0819(8)
C14 C 0.4440(11) -0.4429(7) -0.1405(7)
H10 H 0.4123 -0.4870 -0.2382
H11 H 0.4869 -0.5135 -0.1130
C15 C 0.5866(11) -0.3250(8) -0.0978(8)
H12 H 0.6182 -0.2810 0.0009
C16 C 0.7445(11) -0.3851(7) -0.1570(8)
C17 C 0.5306(12) -0.2165(7) -0.1416(8)
H13 H 0.4283 -0.1808 -0.1030
H14 H 0.4950 -0.2615 -0.2390
C18 C 0.6648(12) -0.0936(7) -0.1044(7)
Pb1_2 Pb 1.11274(4) -0.12539(2) 0.10810(2)
Pb1A Pb 0.88726(4) 0.12539(2) -0.10810(2)
O3_2 O -0.1986(9) -0.0778(6) -0.0297(6)
O3A O 0.1986(9) 0.0778(6) 0.0297(6)
O4A O 0.3727(8) 0.0111(5) 0.1541(5)
O7 O 0.586(2) -0.4931(16) -0.5292(15)
loop_
_geom_bond_atom_site_label_1
_geom_bond_atom_site_label_2
_geom_bond_site_symmetry_1
_geom_bond_site_symmetry_2
Pb1 N1 1_555 1_555
N1 C1 1_555 1_555
N2 Pb1 1_555 1_555
C1 H1 1_555 1_555
C2 C1 1_555 1_555
H2 C2 1_555 1_555
C3 C2 1_555 1_555
H3 C3 1_555 1_555
C4 C3 1_555 1_555
C5 C4 1_555 1_555
H4 C5 1_555 1_555
C6 C5 1_555 1_555
H5 C6 1_555 1_555
C7 C6 1_555 1_555
C8 C7 1_555 1_555
H6 C8 1_555 1_555
C9 C8 1_555 1_555
H7 C9 1_555 1_555
C10 N2 1_555 1_555
H8 C10 1_555 1_555
C11 N2 1_555 1_555
C12 N1 1_555 1_555
O1 Pb1 1_555 1_555
O2 C13 1_555 1_555
O3 C18 1_555 1_555
O4 C18 1_555 1_555
O5 H9 1_555 1_555
O6 C16 1_555 1_555
C13 O1 1_555 1_555
C14 C13 1_555 1_555
H10 C14 1_555 1_555
H11 C14 1_555 1_555
C15 C14 1_555 1_555
H12 C15 1_555 1_555
C16 O5 1_555 1_555
C17 C15 1_555 1_555
H13 C17 1_555 1_555
H14 C17 1_555 1_555
C18 C17 1_555 1_555
Pb1_2 O3 1_555 1_555
Pb1A O3 1_555 1_555
O3_2 Pb1 1_555 1_555
O3A Pb1 1_555 1_555
O4A Pb1 1_555 1_555
C4 C12 1_555 1_555
C7 C11 1_555 1_555
C9 C10 1_555 1_555
C11 C12 1_555 1_555
O4 Pb1A 1_555 1_555
C15 C16 1_555 1_555

#END
