
#######################################################################
#
#                 Cambridge Crystallographic Data Centre
#                                CCDC 
#
#######################################################################
#
# If this CIF has been generated from an entry in the Cambridge 
# Structural Database, then it will include bibliographic, chemical, 
# crystal, experimental, refinement or atomic coordinate data resulting 
# from the CCDC's data processing and validation procedures.
#
#######################################################################

data_SUDRIU
_symmetry_cell_setting           triclinic
_symmetry_space_group_name_H-M   'P -1'
_symmetry_Int_Tables_number      2
_space_group_name_Hall           '-P 1'
loop_
_symmetry_equiv_pos_site_id
_symmetry_equiv_pos_as_xyz
1 x,y,z
2 -x,-y,-z
_cell_length_a                   8.1525(6)
_cell_length_b                   10.3899(8)
_cell_length_c                   11.0202(9)
_cell_angle_alpha                65.3620(10)
_cell_angle_beta                 73.0730(10)
_cell_angle_gamma                71.0150(10)
_cell_volume                     789.071
loop_
_atom_site_label
_atom_site_type_symbol
_atom_site_fract_x
_atom_site_fract_y
_atom_site_fract_z
Zn1 Zn 0.5000 1.0000 0.0000
Zn2 Zn 0.65213(7) 0.61373(6) -0.01258(5)
O1 O 0.7568(8) 0.5536(7) 0.1860(6)
O2 O 0.5655(8) 0.5134(7) 0.8578(6)
O3 O 0.5440(8) 0.7528(6) 0.1339(5)
O4 O -0.1326(9) 0.7396(7) 0.8691(7)
O5 O 0.5240(10) 0.7499(7) 0.7880(6)
C1 C 0.5408(10) 0.6375(9) 0.7656(8)
O6 O 0.8852(11) 0.4202(9) -0.0347(9)
H1 H 0.8802 0.3998 -0.1004
H2 H 0.9819 0.4438 -0.0502
C2 C 0.6427(11) 0.6580(8) 0.2165(8)
C3 C 0.5537(10) 0.6469(8) 0.6228(7)
O7 O -0.2634(10) 0.9714(8) 0.8442(8)
C4 C 0.0145(10) 0.9228(9) 0.7103(8)
C5 C -0.1395(10) 0.8751(9) 0.8174(8)
O8 O 0.6804(13) 1.0248(10) 0.1139(10)
H3 H 0.6881 1.1129 0.0826
H4 H 0.6361 1.0007 0.1980
C6 C 0.1606(11) 0.8218(9) 0.6783(8)
H5 H 0.1681 0.7229 0.7265
C7 C 0.4853(10) 0.7641(8) 0.3985(8)
H6 H 0.4180 0.8386 0.3368
C8 C 0.4512(10) 0.7594(8) 0.5312(7)
C9 C 0.6880(11) 0.5409(9) 0.5800(8)
H7 H 0.7558 0.4662 0.6413
C10 C 0.2991(10) 0.8685(9) 0.5723(8)
C11 C 0.2828(11) 1.0155(9) 0.4999(8)
H8 H 0.3708 1.0469 0.4270
C12 C 0.7197(11) 0.5471(9) 0.4484(8)
H9 H 0.8086 0.4765 0.4211
C13 C 0.0020(12) 1.0715(9) 0.6398(9)
H10 H -0.0956 1.1395 0.6631
C14 C 0.1381(12) 1.1167(9) 0.5336(10)
H11 H 0.1311 1.2156 0.4854
C15 C 0.6190(10) 0.6589(9) 0.3557(7)
Zn2A Zn -0.65213(7) 1.38627(6) 1.01258(5)
O1A O -0.7568(8) 1.4464(7) 0.8140(6)
O2A O -0.5655(8) 1.4866(7) 0.1422(6)
O3A O -0.5440(8) 1.2472(6) 0.8661(5)
O4A O 0.1326(9) 1.2604(7) 0.1309(7)
O5A O -0.5240(10) 1.2501(7) 0.2120(6)
C1A C -0.5408(10) 1.3625(9) 0.2344(8)
O6A O -0.8852(11) 1.5798(9) 1.0347(9)
H1A H -0.8802 1.6002 1.1004
H2A H -0.9819 1.5562 1.0502
C2A C -0.6427(11) 1.3420(8) 0.7835(8)
C3A C -0.5537(10) 1.3531(8) 0.3772(7)
O7A O 0.2634(10) 1.0286(8) 0.1558(8)
C4A C -0.0145(10) 1.0772(9) 0.2897(8)
C5A C 0.1395(10) 1.1249(9) 0.1826(8)
C6A C -0.1606(11) 1.1782(9) 0.3217(8)
H5A H -0.1681 1.2771 0.2735
C7A C -0.4853(10) 1.2359(8) 0.6015(8)
H6A H -0.4180 1.1614 0.6632
C8A C -0.4512(10) 1.2406(8) 0.4688(7)
C9A C -0.6880(11) 1.4591(9) 0.4200(8)
H7A H -0.7558 1.5338 0.3587
C10A C -0.2991(10) 1.1315(9) 0.4277(8)
C11A C -0.2828(11) 0.9845(9) 0.5001(8)
H8A H -0.3708 0.9531 0.5730
C12A C -0.7197(11) 1.4529(9) 0.5516(8)
H9A H -0.8086 1.5235 0.5789
C13A C -0.0020(12) 0.9285(9) 0.3602(9)
H10A H 0.0956 0.8605 0.3369
C14A C -0.1381(12) 0.8833(9) 0.4664(10)
H11A H -0.1311 0.7844 0.5146
C15A C -0.6190(10) 1.3411(9) 0.6443(7)
O8A O 0.3196(13) 0.9752(10) -0.1139(10)
H3A H 0.3119 0.8871 -0.0826
H4A H 0.3639 0.9993 -0.1980
Zn1_2 Zn -0.5000 1.0000 1.0000
Zn2_2 Zn -0.34787(7) 0.61373(6) 0.98742(5)
Zn2_3 Zn -0.34787(7) 1.61373(6) -0.01258(5)
Zn2_4 Zn 0.65213(7) 0.61373(6) 0.98742(5)
Zn2A_2 Zn -0.65213(7) 1.38627(6) 0.01258(5)
Zn2A_3 Zn 0.34787(7) 0.38627(6) 1.01258(5)
Zn2A_4 Zn 0.34787(7) 1.38627(6) 0.01258(5)
O2_2 O -0.4345(8) 1.5134(7) 0.8578(6)
O2_3 O 0.5655(8) 0.5134(7) -0.1422(6)
O2A_2 O -0.5655(8) 1.4866(7) 1.1422(6)
O2A_3 O 0.4345(8) 0.4866(7) 0.1422(6)
O3A_2 O 0.4560(8) 1.2472(6) -0.1339(5)
O4_2 O 0.8674(9) 0.7396(7) -0.1309(7)
O4A_2 O -0.8674(9) 1.2604(7) 1.1309(7)
O5_2 O 0.5240(10) 0.7499(7) -0.2120(6)
O5A_2 O -0.5240(10) 1.2501(7) 1.2120(6)
O7_2 O 0.7366(10) 0.9714(8) -0.1558(8)
O9 O 0.946(3) 0.168(3) 0.895(3)
loop_
_geom_bond_atom_site_label_1
_geom_bond_atom_site_label_2
_geom_bond_site_symmetry_1
_geom_bond_site_symmetry_2
Zn1 O3 1_555 1_555
Zn2 O1 1_555 1_555
O1 C2 1_555 1_555
O2 C1 1_555 1_555
O3 Zn2 1_555 1_555
O4 C5 1_555 1_555
O5 C1 1_555 1_555
C1 C3 1_555 1_555
O6 Zn2 1_555 1_555
H1 O6 1_555 1_555
H2 O6 1_555 1_555
C2 O3 1_555 1_555
C3 C8 1_555 1_555
O7 C5 1_555 1_555
C4 C5 1_555 1_555
O8 Zn1 1_555 1_555
H3 O8 1_555 1_555
H4 O8 1_555 1_555
C6 C4 1_555 1_555
H5 C6 1_555 1_555
C7 H6 1_555 1_555
C8 C7 1_555 1_555
C9 C3 1_555 1_555
H7 C9 1_555 1_555
C10 C6 1_555 1_555
C11 C10 1_555 1_555
H8 C11 1_555 1_555
C12 C9 1_555 1_555
H9 C12 1_555 1_555
C13 C4 1_555 1_555
H10 C13 1_555 1_555
C14 C11 1_555 1_555
H11 C14 1_555 1_555
C15 C2 1_555 1_555
Zn2A O1A 1_555 1_555
O1A C2A 1_555 1_555
O2A C1A 1_555 1_555
O3A Zn2A 1_555 1_555
O4A C5A 1_555 1_555
O5A C1A 1_555 1_555
C1A C3A 1_555 1_555
O6A Zn2A 1_555 1_555
H1A O6A 1_555 1_555
H2A O6A 1_555 1_555
C2A O3A 1_555 1_555
C3A C8A 1_555 1_555
O7A Zn1 1_555 1_555
C4A C5A 1_555 1_555
C5A O7A 1_555 1_555
C6A C4A 1_555 1_555
H5A C6A 1_555 1_555
C7A H6A 1_555 1_555
C8A C7A 1_555 1_555
C9A C3A 1_555 1_555
H7A C9A 1_555 1_555
C10A C6A 1_555 1_555
C11A C10A 1_555 1_555
H8A C11A 1_555 1_555
C12A C9A 1_555 1_555
H9A C12A 1_555 1_555
C13A C4A 1_555 1_555
H10A C13A 1_555 1_555
C14A C11A 1_555 1_555
H11A C14A 1_555 1_555
C15A C2A 1_555 1_555
O8A Zn1 1_555 1_555
H3A O8A 1_555 1_555
H4A O8A 1_555 1_555
Zn1_2 O7 1_555 1_555
Zn2_2 O4 1_555 1_555
Zn2_3 O2A 1_555 1_555
Zn2_4 O2 1_555 1_555
Zn2A_2 O2A 1_555 1_555
Zn2A_3 O2 1_555 1_555
Zn2A_4 O4A 1_555 1_555
O2_2 Zn2A 1_555 1_555
O2_3 Zn2 1_555 1_555
O2A_2 Zn2A 1_555 1_555
O2A_3 Zn2 1_555 1_555
O3A_2 Zn1 1_555 1_555
O4_2 Zn2 1_555 1_555
O4A_2 Zn2A 1_555 1_555
O5_2 Zn2 1_555 1_555
O5A_2 Zn2A 1_555 1_555
O7_2 Zn1 1_555 1_555
O5 Zn2_4 1_555 1_555
C7 C15 1_555 1_555
C8 C10 1_555 1_555
C12 C15 1_555 1_555
C13 C14 1_555 1_555
O3A Zn1_2 1_555 1_555
O5A Zn2A_2 1_555 1_555
C7A C15A 1_555 1_555
C8A C10A 1_555 1_555
C12A C15A 1_555 1_555
C13A C14A 1_555 1_555
Zn2A_4 O3A_2 1_555 1_555

#END
