
#######################################################################
#
#                 Cambridge Crystallographic Data Centre
#                                CCDC 
#
#######################################################################
#
# If this CIF has been generated from an entry in the Cambridge 
# Structural Database, then it will include bibliographic, chemical, 
# crystal, experimental, refinement or atomic coordinate data resulting 
# from the CCDC's data processing and validation procedures.
#
#######################################################################

data_SUDXAQ01
_symmetry_cell_setting           monoclinic
_symmetry_space_group_name_H-M   'P 2/c'
_symmetry_Int_Tables_number      13
_space_group_name_Hall           '-P 2yc'
loop_
_symmetry_equiv_pos_site_id
_symmetry_equiv_pos_as_xyz
1 x,y,z
2 -x,y,1/2-z
3 -x,-y,-z
4 x,-y,1/2+z
_cell_length_a                   18.926(12)
_cell_length_b                   9.408(6)
_cell_length_c                   7.272(5)
_cell_angle_alpha                90
_cell_angle_beta                 90.087(11)
_cell_angle_gamma                90
_cell_volume                     1294.82
loop_
_atom_site_label
_atom_site_type_symbol
_atom_site_fract_x
_atom_site_fract_y
_atom_site_fract_z
Cs1 Cs 0.25014(3) 0.81908(5) -0.00668(5)
O1 O 0.2500(4) 0.8926(5) -0.3922(7)
C1 C 0.3132(4) 0.7202(10) -0.5550(10)
C2 C 0.1856(4) 0.7204(9) -0.5567(10)
C3 C 0.2420(9) 0.5423(10) -0.7169(15)
C4 C 0.3104(6) 0.5975(12) -0.6650(11)
C5 C 0.1845(6) 0.6073(12) -0.6609(11)
C6 C 0.1170(7) 0.779(3) -0.500(2)
H1 H 0.1274 0.8325 -0.3840
C7 C 0.4086(5) 0.8911(12) -0.6314(16)
H2 H 0.4537 0.9294 -0.5869
H3 H 0.3743 0.9685 -0.6441
H4 H 0.4158 0.8456 -0.7512
C8 C 0.0922(5) 0.8912(12) -0.6338(16)
H5 H 0.0840 0.8477 -0.7544
H6 H 0.1283 0.9653 -0.6449
H7 H 0.0481 0.9335 -0.5891
C9 C 0.3815(6) 0.784(3) -0.498(2)
H8 H 0.3717 0.8379 -0.3820
C10 C 0.0635(7) 0.693(2) -0.456(4)
H9 H 0.0695 0.5927 -0.4615
H10 H 0.0193 0.7317 -0.4195
C11 C 0.4347(7) 0.694(2) -0.458(3)
H11 H 0.4210 0.5970 -0.4939
H12 H 0.4444 0.6963 -0.3258
H13 H 0.4772 0.7217 -0.5258
C12 C 0.2498(3) 0.7790(10) -0.4985(6)
Cs1C Cs 0.25014(3) 1.18092(5) -0.50668(5)
O1C O 0.2500(4) 1.1074(5) 0.1078(7)
loop_
_geom_bond_atom_site_label_1
_geom_bond_atom_site_label_2
_geom_bond_site_symmetry_1
_geom_bond_site_symmetry_2
Cs1 O1 1_555 1_555
O1 C12 1_555 1_555
C1 C4 1_555 1_555
C2 C5 1_555 1_555
C3 C4 1_555 1_555
C5 C3 1_555 1_555
C6 C2 1_555 1_555
H1 C6 1_555 1_555
C7 H2 1_555 1_555
H3 C7 1_555 1_555
H4 C7 1_555 1_555
C8 C6 1_555 1_555
H5 C8 1_555 1_555
H6 C8 1_555 1_555
H7 C8 1_555 1_555
C9 C1 1_555 1_555
H8 C9 1_555 1_555
C10 C6 1_555 1_555
H9 C10 1_555 1_555
H10 C10 1_555 1_555
C11 C9 1_555 1_555
H11 C11 1_555 1_555
H12 C11 1_555 1_555
H13 C11 1_555 1_555
C12 C1 1_555 1_555
Cs1C O1 1_555 1_555
O1C Cs1 1_555 1_555
C2 C12 1_555 1_555
C7 C9 1_555 1_555

#END
