
#######################################################################
#
#                 Cambridge Crystallographic Data Centre
#                                CCDC 
#
#######################################################################
#
# If this CIF has been generated from an entry in the Cambridge 
# Structural Database, then it will include bibliographic, chemical, 
# crystal, experimental, refinement or atomic coordinate data resulting 
# from the CCDC's data processing and validation procedures.
#
#######################################################################

data_SUFBEC
_symmetry_cell_setting           monoclinic
_symmetry_space_group_name_H-M   'P 21/c'
_symmetry_Int_Tables_number      14
_space_group_name_Hall           '-P 2ybc'
loop_
_symmetry_equiv_pos_site_id
_symmetry_equiv_pos_as_xyz
1 x,y,z
2 -x,1/2+y,1/2-z
3 -x,-y,-z
4 x,1/2-y,1/2+z
_cell_length_a                   13.580(3)
_cell_length_b                   13.704(3)
_cell_length_c                   17.220(3)
_cell_angle_alpha                90
_cell_angle_beta                 101.41(3)
_cell_angle_gamma                90
_cell_volume                     3141.31
loop_
_atom_site_label
_atom_site_type_symbol
_atom_site_fract_x
_atom_site_fract_y
_atom_site_fract_z
C1 C 0.7985(3) 0.8437(3) 0.6986(2)
C2 C 0.9082(3) 0.8540(3) 0.7332(2)
C3 C 0.9767(3) 0.8680(3) 0.6848(2)
H1 H 0.9546 0.8746 0.6304
C4 C 1.0776(3) 0.8723(3) 0.7170(2)
H2 H 1.1240 0.8800 0.6842
C5 C 1.1100(3) 0.8652(3) 0.7975(2)
C6 C 1.0424(3) 0.8525(4) 0.8466(3)
H3 H 1.0648 0.8484 0.9012
C7 C 0.9417(3) 0.8461(4) 0.8144(2)
H4 H 0.8958 0.8365 0.8472
C8 C 1.2943(3) 0.8816(4) 0.7975(3)
H5 H 1.2918 0.8926 0.7439
C9 C 0.4168(3) 0.8225(3) 0.2429(2)
C10 C 0.3083(3) 0.8412(3) 0.2088(2)
C11 C 0.2456(3) 0.8794(3) 0.2553(2)
H6 H 0.2715 0.8951 0.3079
C12 C 0.1451(3) 0.8947(3) 0.2246(2)
H7 H 0.1032 0.9199 0.2563
C13 C 0.1075(3) 0.8721(3) 0.1464(2)
C14 C 0.1687(3) 0.8355(4) 0.0989(3)
H8 H 0.1428 0.8215 0.0460
C15 C 0.2691(3) 0.8196(4) 0.1305(2)
H9 H 0.3108 0.7941 0.0987
C16 C -0.0756(3) 0.8819(4) 0.1513(3)
H10 H -0.0713 0.8748 0.2056
C17 C 0.6445(4) 0.5828(5) 0.3738(4)
H11 H 0.6391 0.5315 0.3352
H12 H 0.6266 0.5580 0.4213
H13 H 0.7124 0.6065 0.3856
C18 C 0.5642(4) 0.6206(4) 0.5631(4)
H14 H 0.5575 0.5704 0.6006
H15 H 0.5814 0.5916 0.5168
H16 H 0.5017 0.6551 0.5485
Cu1 Cu 0.63705(3) 0.86032(4) 0.56022(3)
Cu2 Cu 0.58171(3) 0.84988(4) 0.37860(3)
Cu3 Cu 0.60599(3) 0.73334(4) 0.22219(3)
H17 H 0.533(3) 0.645(4) 0.340(3)
N1 N 1.2148(2) 0.8680(3) 0.8309(2)
N2 N 1.2490(3) 0.8554(4) 0.9086(3)
N3 N 1.3456(3) 0.8609(5) 0.9194(3)
N4 N 1.3758(3) 0.8771(3) 0.8516(3)
N5 N 0.0022(2) 0.8840(3) 0.1153(2)
N6 N -0.0338(3) 0.8959(4) 0.0371(3)
N7 N -0.1305(3) 0.9005(5) 0.0285(3)
N8 N -0.1585(3) 0.8913(3) 0.0996(3)
N9 N 0.5676(2) 0.6204(2) 0.14921(18)
N10 N 0.4858(3) 0.5842(3) 0.14521(19)
N11 N 0.4090(3) 0.5500(3) 0.1442(2)
N12 N 0.6993(2) 0.8492(3) 0.46565(19)
N13 N 0.7869(3) 0.8345(3) 0.4666(2)
N14 N 0.8686(3) 0.8212(5) 0.4687(3)
N15 N 0.5184(2) 0.8648(3) 0.47284(18)
N16 N 0.4332(3) 0.8771(4) 0.4700(2)
N17 N 0.3510(4) 0.8912(7) 0.4659(3)
N18 N 0.6484(2) 0.8499(3) 0.28848(18)
N19 N 0.7294(3) 0.8864(3) 0.2899(2)
N20 N 0.8043(3) 0.9223(4) 0.2900(3)
O1 O 0.76971(18) 0.8693(2) 0.62747(15)
O2 O 0.74553(18) 0.8082(2) 0.74302(15)
O3 O 0.46550(19) 0.7750(2) 0.20128(16)
O4 O 0.44938(19) 0.8545(2) 0.31151(15)
O5 O 0.5783(3) 0.6607(3) 0.3430(2)
O6 O 0.6408(2) 0.6864(2) 0.59772(18)
H18 H 0.6953 0.6664 0.5908
Cu1C Cu 0.63705(3) 0.63968(4) 0.06022(3)
Cu3C Cu 0.60599(3) 0.76666(4) 0.72219(3)
N9C N 0.5676(2) 0.8796(2) 0.64921(18)
O2C O 0.74553(18) 0.6918(2) 0.24302(15)
O6C O 0.6408(2) 0.8136(2) 0.09772(18)
C19 C 0.1111(9) 0.9068(14) 0.4627(10)
O7 O 0.1668(14) 0.9147(12) 0.5457(11)
O8? O 0.0379(18) 0.9036(13) 0.3869(16)
loop_
_geom_bond_atom_site_label_1
_geom_bond_atom_site_label_2
_geom_bond_site_symmetry_1
_geom_bond_site_symmetry_2
C1 C2 1_555 1_555
C2 C3 1_555 1_555
C3 H1 1_555 1_555
C4 C3 1_555 1_555
H2 C4 1_555 1_555
C5 C4 1_555 1_555
C6 C5 1_555 1_555
H3 C6 1_555 1_555
C7 C2 1_555 1_555
H4 C7 1_555 1_555
C8 H5 1_555 1_555
C9 C10 1_555 1_555
C10 C11 1_555 1_555
C11 H6 1_555 1_555
C12 C11 1_555 1_555
H7 C12 1_555 1_555
C13 C12 1_555 1_555
C14 C13 1_555 1_555
H8 C14 1_555 1_555
C15 C10 1_555 1_555
H9 C15 1_555 1_555
C16 H10 1_555 1_555
C17 H11 1_555 1_555
H12 C17 1_555 1_555
H13 C17 1_555 1_555
C18 H14 1_555 1_555
H15 C18 1_555 1_555
H16 C18 1_555 1_555
Cu1 N12 1_555 1_555
Cu2 N12 1_555 1_555
Cu3 N9 1_555 1_555
H17 O5 1_555 1_555
N1 C5 1_555 1_555
N2 N1 1_555 1_555
N3 N2 1_555 1_555
N4 C8 1_555 1_555
N5 C13 1_555 1_555
N6 N5 1_555 1_555
N7 N6 1_555 1_555
N8 C16 1_555 1_555
N9 N10 1_555 1_555
N10 N11 1_555 1_555
N12 N13 1_555 1_555
N13 N14 1_555 1_555
N15 Cu1 1_555 1_555
N16 N15 1_555 1_555
N17 N16 1_555 1_555
N18 Cu2 1_555 1_555
N19 N18 1_555 1_555
N20 N19 1_555 1_555
O1 C1 1_555 1_555
O2 C1 1_555 1_555
O3 C9 1_555 1_555
O4 C9 1_555 1_555
O5 C17 1_555 1_555
O6 C18 1_555 1_555
H18 O6 1_555 1_555
C19 O7 1_555 1_555
Cu1C N9 1_555 1_555
Cu3C O2 1_555 1_555
N9C Cu1 1_555 1_555
O2C Cu3 1_555 1_555
O6C Cu3 1_555 1_555
C6 C7 1_555 1_555
C8 N1 1_555 1_555
C14 C15 1_555 1_555
C16 N5 1_555 1_555
Cu1 O1 1_555 1_555
Cu1 O6 1_555 1_555
Cu2 N15 1_555 1_555
Cu2 O4 1_555 1_555
Cu2 O5 1_555 1_555
Cu3 N18 1_555 1_555
Cu3 O3 1_555 1_555
Cu3 O5 1_555 1_555
N3 N4 1_555 1_555
N7 N8 1_555 1_555
O6 Cu3C 1_555 1_555
Cu1C O6C 1_555 1_555
Cu3C N9C 1_555 1_555

#END
