
#######################################################################
#
#                 Cambridge Crystallographic Data Centre
#                                CCDC 
#
#######################################################################
#
# If this CIF has been generated from an entry in the Cambridge 
# Structural Database, then it will include bibliographic, chemical, 
# crystal, experimental, refinement or atomic coordinate data resulting 
# from the CCDC's data processing and validation procedures.
#
#######################################################################

data_SUFBIG
_symmetry_cell_setting           triclinic
_symmetry_space_group_name_H-M   'P -1'
_symmetry_Int_Tables_number      2
_space_group_name_Hall           '-P 1'
loop_
_symmetry_equiv_pos_site_id
_symmetry_equiv_pos_as_xyz
1 x,y,z
2 -x,-y,-z
_cell_length_a                   6.8166(14)
_cell_length_b                   8.0452(16)
_cell_length_c                   11.276(2)
_cell_angle_alpha                97.33(3)
_cell_angle_beta                 106.82(3)
_cell_angle_gamma                112.17(3)
_cell_volume                     528.251
loop_
_atom_site_label
_atom_site_type_symbol
_atom_site_fract_x
_atom_site_fract_y
_atom_site_fract_z
C1 C 0.5061(4) 0.6601(3) 0.3729(2)
C2 C 0.7316(5) 0.7009(4) 0.4317(3)
H1 H 0.8049 0.6594 0.3855
C3 C 0.8515(5) 0.8033(4) 0.5590(3)
H2 H 1.0043 0.8305 0.5982
C4 C 0.7423(4) 0.8641(3) 0.6268(2)
C5 C 0.5136(5) 0.8181(5) 0.5717(3)
H3 H 0.4388 0.8546 0.6192
C6 C 0.3975(4) 0.7163(4) 0.4441(2)
H4 H 0.2434 0.6854 0.4057
C7 C 0.3841(4) 0.5683(3) 0.2305(2)
C8 C 0.8027(5) 1.0440(4) 0.8447(3)
Cu1 Cu 0.5000 0.5000 0.0000
Cu2 Cu 0.0000 0.5000 0.0000
H5 H 0.644(6) 1.001(5) 0.840(3)
N1 N 0.8700(4) 0.9847(3) 0.75517(19)
N2 N 1.0993(4) 1.0778(3) 0.7981(2)
N3 N 1.1613(4) 1.1865(3) 0.9103(2)
N4 N 0.9807(4) 1.1694(3) 0.9424(2)
N5 N 0.2757(3) 0.6052(3) -0.04424(19)
N6 N 0.2651(4) 0.6775(4) -0.1321(2)
N7 N 0.2563(6) 0.7462(6) -0.2142(4)
O1 O 0.4889(3) 0.5101(3) 0.17381(15)
O2 O 0.1900(3) 0.5622(3) 0.18106(15)
C1A C -0.5061(4) 0.3399(3) -0.3729(2)
C2A C -0.7316(5) 0.2991(4) -0.4317(3)
H1A H -0.8049 0.3406 -0.3855
C3A C -0.8515(5) 0.1967(4) -0.5590(3)
H2A H -1.0043 0.1695 -0.5982
C4A C -0.7423(4) 0.1359(3) -0.6268(2)
C5A C -0.5136(5) 0.1819(5) -0.5717(3)
H3A H -0.4388 0.1454 -0.6192
C6A C -0.3975(4) 0.2837(4) -0.4441(2)
H4A H -0.2434 0.3146 -0.4057
C7A C -0.3841(4) 0.4317(3) -0.2305(2)
C8A C -0.8027(5) -0.0440(4) -0.8447(3)
H5A H -0.644(6) -0.001(5) -0.840(3)
N1A N -0.8700(4) 0.0153(3) -0.75517(19)
N2A N -1.0993(4) -0.0778(3) -0.7981(2)
N3A N -1.1613(4) -0.1865(3) -0.9103(2)
N4A N -0.9807(4) -0.1694(3) -0.9424(2)
N5A N -0.2757(3) 0.3948(3) 0.04424(19)
N6A N -0.2651(4) 0.3225(4) 0.1321(2)
N7A N -0.2563(6) 0.2538(6) 0.2142(4)
O1A O -0.4889(3) 0.4899(3) -0.17381(15)
O2A O -0.1900(3) 0.4378(3) -0.18106(15)
Cu1_2 Cu -1.5000 -0.5000 -1.0000
Cu1_3 Cu -0.5000 0.5000 0.0000
Cu1_4 Cu 1.5000 1.5000 1.0000
Cu2_2 Cu -1.0000 -0.5000 -1.0000
Cu2_3 Cu 1.0000 1.5000 1.0000
N3_2 N 0.1613(4) 0.1865(3) -0.0897(2)
N3A_2 N 0.8387(4) 0.8135(3) 0.0897(2)
N4_2 N -0.0193(4) 0.1694(3) -0.0576(2)
N4A_2 N 0.0193(4) 0.8306(3) 0.0576(2)
N5A_2 N 0.7243(3) 0.3948(3) 0.04424(19)
O1A_2 O 0.5111(3) 0.4899(3) -0.17381(15)
loop_
_geom_bond_atom_site_label_1
_geom_bond_atom_site_label_2
_geom_bond_site_symmetry_1
_geom_bond_site_symmetry_2
C1 C2 1_555 1_555
C2 H1 1_555 1_555
C3 C2 1_555 1_555
H2 C3 1_555 1_555
C4 C3 1_555 1_555
C5 C4 1_555 1_555
H3 C5 1_555 1_555
C6 C1 1_555 1_555
H4 C6 1_555 1_555
C7 C1 1_555 1_555
C8 H5 1_555 1_555
Cu1 N5 1_555 1_555
Cu2 N5 1_555 1_555
N1 C4 1_555 1_555
N2 N1 1_555 1_555
N3 N2 1_555 1_555
N4 C8 1_555 1_555
N5 N6 1_555 1_555
N6 N7 1_555 1_555
O1 C7 1_555 1_555
O2 C7 1_555 1_555
C1A C2A 1_555 1_555
C2A H1A 1_555 1_555
C3A C2A 1_555 1_555
H2A C3A 1_555 1_555
C4A C3A 1_555 1_555
C5A C4A 1_555 1_555
H3A C5A 1_555 1_555
C6A C1A 1_555 1_555
H4A C6A 1_555 1_555
C7A C1A 1_555 1_555
C8A H5A 1_555 1_555
N1A C4A 1_555 1_555
N2A N1A 1_555 1_555
N3A N2A 1_555 1_555
N4A C8A 1_555 1_555
N5A Cu2 1_555 1_555
N6A N5A 1_555 1_555
N7A N6A 1_555 1_555
O1A C7A 1_555 1_555
O2A Cu2 1_555 1_555
Cu1_2 N3A 1_555 1_555
Cu1_3 N5A 1_555 1_555
Cu1_4 N3 1_555 1_555
Cu2_2 N4A 1_555 1_555
Cu2_3 N4 1_555 1_555
N3_2 Cu1 1_555 1_555
N3A_2 Cu1 1_555 1_555
N4_2 Cu2 1_555 1_555
N4A_2 Cu2 1_555 1_555
N5A_2 Cu1 1_555 1_555
O1A_2 Cu1 1_555 1_555
C5 C6 1_555 1_555
C8 N1 1_555 1_555
Cu1 O1 1_555 1_555
Cu2 O2 1_555 1_555
N3 N4 1_555 1_555
C5A C6A 1_555 1_555
C7A O2A 1_555 1_555
C8A N1A 1_555 1_555
N3A N4A 1_555 1_555
O1A Cu1_3 1_555 1_555
N3_2 N4_2 1_555 1_555

#END
