
#######################################################################
#
#                 Cambridge Crystallographic Data Centre
#                                CCDC 
#
#######################################################################
#
# If this CIF has been generated from an entry in the Cambridge 
# Structural Database, then it will include bibliographic, chemical, 
# crystal, experimental, refinement or atomic coordinate data resulting 
# from the CCDC's data processing and validation procedures.
#
#######################################################################

data_SUFHIM
_symmetry_cell_setting           rhombohedral
_symmetry_space_group_name_H-M   'R -3 c'
_symmetry_Int_Tables_number      167
_space_group_name_Hall           '-R 3 2"c'
loop_
_symmetry_equiv_pos_site_id
_symmetry_equiv_pos_as_xyz
1 x,y,z
2 -y,x-y,z
3 -x+y,-x,z
4 y,x,1/2-z
5 -x,-x+y,1/2-z
6 x-y,-y,1/2-z
7 2/3+x,1/3+y,1/3+z
8 2/3-y,1/3+x-y,1/3+z
9 2/3-x+y,1/3-x,1/3+z
10 2/3+y,1/3+x,5/6-z
11 2/3-x,1/3-x+y,5/6-z
12 2/3+x-y,1/3-y,5/6-z
13 1/3+x,2/3+y,2/3+z
14 1/3-y,2/3+x-y,2/3+z
15 1/3-x+y,2/3-x,2/3+z
16 1/3+y,2/3+x,1/6-z
17 1/3-x,2/3-x+y,1/6-z
18 1/3+x-y,2/3-y,1/6-z
19 -x,-y,-z
20 y,-x+y,-z
21 x-y,x,-z
22 -y,-x,1/2+z
23 x,x-y,1/2+z
24 -x+y,y,1/2+z
25 1/3-x,2/3-y,2/3-z
26 1/3+y,2/3-x+y,2/3-z
27 1/3+x-y,2/3+x,2/3-z
28 1/3-y,2/3-x,1/6+z
29 1/3+x,2/3+x-y,1/6+z
30 1/3-x+y,2/3+y,1/6+z
31 2/3-x,1/3-y,1/3-z
32 2/3+y,1/3-x+y,1/3-z
33 2/3+x-y,1/3+x,1/3-z
34 2/3-y,1/3-x,5/6+z
35 2/3+x,1/3+x-y,5/6+z
36 2/3-x+y,1/3+y,5/6+z
_cell_length_a                   29.007(10)
_cell_length_b                   29.007(10)
_cell_length_c                   16.175(6)
_cell_angle_alpha                90
_cell_angle_beta                 90
_cell_angle_gamma                120
_cell_volume                     11786.4
loop_
_atom_site_label
_atom_site_type_symbol
_atom_site_fract_x
_atom_site_fract_y
_atom_site_fract_z
Na1 Na 0.99836(8) 0.33169(8) -0.0833
C1 C 0.96418(15) 0.25099(16) 0.0899(2)
C2 C 0.79566(16) 0.08822(16) 0.0675(2)
C3 C 0.84626(15) 0.12430(16) 0.1099(2)
C4 C 0.86750(18) 0.12319(18) 0.1847(2)
H1 H 0.8524 0.0962 0.2240
C5 C 0.91643(17) 0.17060(17) 0.1906(2)
H2 H 0.9401 0.1810 0.2347
C6 C 0.92295(15) 0.19853(16) 0.1202(2)
O1 O 1.00466(11) 0.27581(11) 0.13881(16)
O2 O 0.95907(13) 0.26754(13) 0.02236(18)
O3 O 0.79271(11) 0.10228(12) -0.00678(16)
O4 O 0.76119(11) 0.04867(12) 0.10397(18)
O5 O 0.87985(10) 0.17064(11) 0.06943(15)
Zn1 Zn 1.06646(2) 0.3333 0.0833
C1Q C 1.04652(22) 0.41568(16) 0.0768(2)
C2Q C 1.04077(23) 0.57845(16) 0.0992(2)
C3Q C 1.05529(22) 0.54237(16) 0.0568(2)
C4Q C 1.07764(25) 0.54348(18) -0.0180(2)
H1Q H 1.0895 0.5705 -0.0573
C5Q C 1.07916(24) 0.49607(17) -0.0239(2)
H2Q H 1.0924 0.4857 -0.0680
C6Q C 1.05775(22) 0.46814(16) 0.0465(2)
O1Q O 1.06218(16) 0.39086(11) 0.02786(16)
O2Q O 1.02486(18) 0.39913(13) 0.14431(18)
O3Q O 1.02376(16) 0.56439(12) 0.17345(16)
O4Q O 1.04585(16) 0.61800(12) 0.06270(18)
O5Q O 1.04254(15) 0.49603(11) 0.09724(15)
O3S O 1.10228(12) 0.30957(16) 0.00678(16)
O3BA O 1.12604(11) 0.35710(16) 0.15989(16)
Zn1T Zn 0.73316(2) 0.06646(2) -0.0833
Zn1EA Zn 1.0000 0.60017(2) 0.2500
Na2 Na 0.85426(13) 0.18760(13) -0.0833
O6 O 0.8447(4) 0.2591(3) -0.0532(4)
H3 H 0.8110(8) 0.239(2) -0.050(5)
H4 H 0.864(2) 0.268(3) -0.015(3)
O7 O 0.7759(3) 0.0000 0.2500
H5 H 0.762(6) 0.017(6) 0.236(11)
H5E H 0.745(8) -0.017(6) 0.264(11)
loop_
_geom_bond_atom_site_label_1
_geom_bond_atom_site_label_2
_geom_bond_site_symmetry_1
_geom_bond_site_symmetry_2
C1 C6 1_555 1_555
C2 C3 1_555 1_555
C3 C4 1_555 1_555
C4 H1 1_555 1_555
C5 C4 1_555 1_555
H2 C5 1_555 1_555
C6 C5 1_555 1_555
O1 C1 1_555 1_555
O2 C1 1_555 1_555
O3 C2 1_555 1_555
O4 C2 1_555 1_555
O5 C3 1_555 1_555
Zn1 O1 1_555 1_555
O6 H3 1_555 1_555
H4 O6 1_555 1_555
O7 H5 1_555 1_555
C1Q C6Q 1_555 1_555
C2Q C3Q 1_555 1_555
C3Q C4Q 1_555 1_555
C4Q H1Q 1_555 1_555
C5Q C4Q 1_555 1_555
H2Q C5Q 1_555 1_555
C6Q C5Q 1_555 1_555
O1Q Zn1 1_555 1_555
O2Q C1Q 1_555 1_555
O3Q C2Q 1_555 1_555
O4Q C2Q 1_555 1_555
O5Q C3Q 1_555 1_555
O3S Zn1 1_555 1_555
O3BA Zn1 1_555 1_555
Zn1T O3 1_555 1_555
Zn1EA O3Q 1_555 1_555
H5E O7 1_555 1_555
C6 O5 1_555 1_555
C1Q O1Q 1_555 1_555
C6Q O5Q 1_555 1_555

#END
