
#######################################################################
#
#                 Cambridge Crystallographic Data Centre
#                                CCDC 
#
#######################################################################
#
# If this CIF has been generated from an entry in the Cambridge 
# Structural Database, then it will include bibliographic, chemical, 
# crystal, experimental, refinement or atomic coordinate data resulting 
# from the CCDC's data processing and validation procedures.
#
#######################################################################

data_SUFHOS
_symmetry_cell_setting           rhombohedral
_symmetry_space_group_name_H-M   'R -3 c'
_symmetry_Int_Tables_number      167
_space_group_name_Hall           '-R 3 2"c'
loop_
_symmetry_equiv_pos_site_id
_symmetry_equiv_pos_as_xyz
1 x,y,z
2 -y,x-y,z
3 -x+y,-x,z
4 y,x,1/2-z
5 -x,-x+y,1/2-z
6 x-y,-y,1/2-z
7 2/3+x,1/3+y,1/3+z
8 2/3-y,1/3+x-y,1/3+z
9 2/3-x+y,1/3-x,1/3+z
10 2/3+y,1/3+x,5/6-z
11 2/3-x,1/3-x+y,5/6-z
12 2/3+x-y,1/3-y,5/6-z
13 1/3+x,2/3+y,2/3+z
14 1/3-y,2/3+x-y,2/3+z
15 1/3-x+y,2/3-x,2/3+z
16 1/3+y,2/3+x,1/6-z
17 1/3-x,2/3-x+y,1/6-z
18 1/3+x-y,2/3-y,1/6-z
19 -x,-y,-z
20 y,-x+y,-z
21 x-y,x,-z
22 -y,-x,1/2+z
23 x,x-y,1/2+z
24 -x+y,y,1/2+z
25 1/3-x,2/3-y,2/3-z
26 1/3+y,2/3-x+y,2/3-z
27 1/3+x-y,2/3+x,2/3-z
28 1/3-y,2/3-x,1/6+z
29 1/3+x,2/3+x-y,1/6+z
30 1/3-x+y,2/3+y,1/6+z
31 2/3-x,1/3-y,1/3-z
32 2/3+y,1/3-x+y,1/3-z
33 2/3+x-y,1/3+x,1/3-z
34 2/3-y,1/3-x,5/6+z
35 2/3+x,1/3+x-y,5/6+z
36 2/3-x+y,1/3+y,5/6+z
_cell_length_a                   28.853(5)
_cell_length_b                   28.853(5)
_cell_length_c                   16.044(3)
_cell_angle_alpha                90
_cell_angle_beta                 90
_cell_angle_gamma                120
_cell_volume                     11567.1
loop_
_atom_site_label
_atom_site_type_symbol
_atom_site_fract_x
_atom_site_fract_y
_atom_site_fract_z
Na1 Na 0.3333 0.00262(11) 0.4167
C7 C 0.1393(5) 0.0177(5) 0.3912(10)
H3 H 0.1186 -0.0195 0.3923
C8 C 0.1157(4) 0.0484(4) 0.3859(7)
C9 C 0.1485(4) 0.1030(4) 0.3903(7)
H4 H 0.1337 0.1252 0.3906
C10 C 0.2026(4) 0.1248(4) 0.3941(7)
H5 H 0.2233 0.1619 0.3953
N1 N 0.2309(4) 0.0943(3) 0.3964(5)
C11 C 0.1953(5) 0.0431(5) 0.3950(10)
H6 H 0.2092 0.0202 0.3968
C12 C 0.0234(4) -0.0318(4) 0.3864(8)
H7 H 0.0390 -0.0533 0.3870
C13 C 0.0559(4) 0.0235(4) 0.3860(8)
C7A C -0.0177(5) 0.1216(7) 0.3912(10)
H3A H 0.0195 0.1381 0.3923
C8A C -0.0484(4) 0.0673(6) 0.3859(7)
C9A C -0.1030(4) 0.0455(6) 0.3903(7)
H4A H -0.1252 0.0085 0.3906
C10A C -0.1248(4) 0.0778(6) 0.3941(7)
H5A H -0.1619 0.0614 0.3953
N1A N -0.0943(3) 0.1366(5) 0.3964(5)
C11A C -0.0431(5) 0.1522(7) 0.3950(10)
H6A H -0.0202 0.1890 0.3968
C12A C 0.0318(4) 0.0552(6) 0.3864(8)
H7A H 0.0533 0.0923 0.3870
C13A C -0.0235(4) 0.0324(6) 0.3860(8)
C7B C -0.1216(7) -0.1393(5) 0.3912(10)
H3B H -0.1381 -0.1186 0.3923
C8B C -0.0673(6) -0.1157(4) 0.3859(7)
C9B C -0.0455(6) -0.1485(4) 0.3903(7)
H4B H -0.0085 -0.1337 0.3906
C10B C -0.0778(6) -0.2026(4) 0.3941(7)
H5B H -0.0614 -0.2233 0.3953
N1B N -0.1366(5) -0.2309(4) 0.3964(5)
C11B C -0.1522(7) -0.1953(5) 0.3950(10)
H6B H -0.1890 -0.2092 0.3968
C12B C -0.0552(6) -0.0234(4) 0.3864(8)
H7B H -0.0923 -0.0390 0.3870
C13B C -0.0324(6) -0.0559(4) 0.3860(8)
Na2 Na 0.3333 0.14490(15) 0.4167
O6 O 0.2243(5) 0.0000 0.2500
Zn1 Zn 0.3333 0.26834(3) 0.4167
O1 O 0.37442(16) 0.16343(15) 0.2631(2)
O2 O 0.39487(16) 0.05836(16) 0.1963(2)
O3 O 0.35415(17) 0.23053(17) 0.3382(2)
O4 O 0.37862(17) 0.28613(16) 0.2286(3)
O5 O 0.35678(19) 0.06697(17) 0.3126(3)
C1 C 0.3728(2) 0.2459(2) 0.2650(4)
C2 C 0.4134(3) 0.2127(2) 0.1499(4)
H1 H 0.4270 0.2406 0.1116
C3 C 0.3912(2) 0.1362(2) 0.2131(3)
C4 C 0.3882(2) 0.2099(2) 0.2223(4)
C5 C 0.4149(3) 0.1644(2) 0.1443(4)
H2 H 0.4296 0.1543 0.1012
C6 C 0.3792(2) 0.0831(2) 0.2445(4)
O1J O 0.29225(16) 0.12234(22) 0.5702(2)
O2J O 0.27180(16) -0.00318(23) 0.6370(2)
O3J O 0.31252(17) 0.20971(24) 0.4951(2)
O4J O 0.28805(17) 0.24084(23) 0.6047(3)
O5J O 0.30989(19) 0.04352(25) 0.5207(3)
C1J C 0.2939(2) 0.2064(3) 0.5683(4)
C2J C 0.2533(3) 0.1326(4) 0.6834(4)
H1J H 0.2397 0.1469 0.7217
C3J C 0.2755(2) 0.0783(3) 0.6202(3)
C4J C 0.2785(2) 0.1550(3) 0.6110(4)
C5J C 0.2518(3) 0.0828(4) 0.6890(4)
H2J H 0.2371 0.0580 0.7321
C6J C 0.2875(2) 0.0372(3) 0.5888(4)
Zn1S Zn 0.26834(3) -0.06496(3) 0.5833
Zn1GA Zn 0.39833(3) 0.0000 0.2500
O2Y O 0.39169(16) 0.33016(23) 0.4704(2)
O2AA O 0.27497(16) 0.27180(16) 0.3630(2)
N2? N 0.0234(4) -0.0318(4) 0.3864(8)
loop_
_geom_bond_atom_site_label_1
_geom_bond_atom_site_label_2
_geom_bond_site_symmetry_1
_geom_bond_site_symmetry_2
Zn1 O3 1_555 1_555
O1 C3 1_555 1_555
O2 C6 1_555 1_555
O3 C1 1_555 1_555
O4 C1 1_555 1_555
O5 C6 1_555 1_555
C1 C4 1_555 1_555
C2 H1 1_555 1_555
C3 C5 1_555 1_555
C4 O1 1_555 1_555
C5 C2 1_555 1_555
H2 C5 1_555 1_555
C6 C3 1_555 1_555
C7 H3 1_555 1_555
C8 C7 1_555 1_555
C9 C8 1_555 1_555
H4 C9 1_555 1_555
C10 C9 1_555 1_555
H5 C10 1_555 1_555
N1 C10 1_555 1_555
C11 C7 1_555 1_555
H6 C11 1_555 1_555
C12 H7 1_555 1_555
C13 C8 1_555 1_555
O1J C3J 1_555 1_555
O2J C6J 1_555 1_555
O3J Zn1 1_555 1_555
O4J C1J 1_555 1_555
O5J C6J 1_555 1_555
C1J O3J 1_555 1_555
C2J H1J 1_555 1_555
C3J C5J 1_555 1_555
C4J O1J 1_555 1_555
C5J C2J 1_555 1_555
H2J C5J 1_555 1_555
C6J C3J 1_555 1_555
Zn1S O2J 1_555 1_555
Zn1GA O2 1_555 1_555
O2Y Zn1 1_555 1_555
O2AA Zn1 1_555 1_555
C7A H3A 1_555 1_555
C8A C7A 1_555 1_555
C9A C8A 1_555 1_555
H4A C9A 1_555 1_555
C10A C9A 1_555 1_555
H5A C10A 1_555 1_555
N1A C10A 1_555 1_555
C11A C7A 1_555 1_555
H6A C11A 1_555 1_555
C12A C13 1_555 1_555
H7A C12A 1_555 1_555
C13A C8A 1_555 1_555
C7B H3B 1_555 1_555
C8B C7B 1_555 1_555
C9B C8B 1_555 1_555
H4B C9B 1_555 1_555
C10B C9B 1_555 1_555
H5B C10B 1_555 1_555
N1B C10B 1_555 1_555
C11B C7B 1_555 1_555
H6B C11B 1_555 1_555
C12B C13A 1_555 1_555
H7B C12B 1_555 1_555
C13B C12 1_555 1_555
C2 C4 1_555 1_555
N1 C11 1_555 1_555
C12 C13 1_555 1_555
C1J C4J 1_555 1_555
C2J C4J 1_555 1_555
N1A C11A 1_555 1_555
C12A C13A 1_555 1_555
C8B C13B 1_555 1_555
N1B C11B 1_555 1_555
C12B C13B 1_555 1_555

#END
