
#######################################################################
#
#                 Cambridge Crystallographic Data Centre
#                                CCDC 
#
#######################################################################
#
# If this CIF has been generated from an entry in the Cambridge 
# Structural Database, then it will include bibliographic, chemical, 
# crystal, experimental, refinement or atomic coordinate data resulting 
# from the CCDC's data processing and validation procedures.
#
#######################################################################

data_SUFJOU
_symmetry_cell_setting           tetragonal
_symmetry_space_group_name_H-M   'P 4/n c c'
_symmetry_Int_Tables_number      130
_space_group_name_Hall           '-P 4a 2ac'
loop_
_symmetry_equiv_pos_site_id
_symmetry_equiv_pos_as_xyz
1 x,y,z
2 1/2-x,1/2-y,z
3 1/2+x,-y,1/2-z
4 -x,1/2+y,1/2-z
5 -y,-x,1/2-z
6 1/2+y,1/2+x,1/2-z
7 y,1/2-x,z
8 1/2-y,x,z
9 -x,-y,-z
10 1/2+x,1/2+y,-z
11 1/2-x,y,1/2+z
12 x,1/2-y,1/2+z
13 y,x,1/2+z
14 1/2-y,1/2-x,1/2+z
15 -y,1/2+x,-z
16 1/2+y,-x,-z
_cell_length_a                   13.393(5)
_cell_length_b                   13.393(5)
_cell_length_c                   27.338(5)
_cell_angle_alpha                90
_cell_angle_beta                 90
_cell_angle_gamma                90
_cell_volume                     4903.68
loop_
_atom_site_label
_atom_site_type_symbol
_atom_site_fract_x
_atom_site_fract_y
_atom_site_fract_z
O3 O 1.2500 0.2500 0.1105(7)
C7 C 1.2500 0.2500 0.1534(7)
O4 O 1.2500 0.2500 0.1965(7)
O5 O 1.2500 0.2500 0.3119(12)
C8 C 1.2500 0.2500 0.3551(12)
O6 O 1.2500 0.2500 0.3983(12)
O7 O 0.7500 0.2500 0.5727(3)
C9 C 0.7500 0.2500 0.6153(4)
O8 O 0.7500 0.2500 0.6579(4)
O9 O 0.834(2) 0.111(2) 0.6312(10)
Zn1 Zn 0.91117(4) 0.02289(4) 0.446638(17)
O1 O 0.8606(3) -0.0544(3) 0.36719(12)
O2 O 0.9533(3) 0.0767(3) 0.38332(13)
N1 N 0.7672(3) 0.0161(3) 0.46469(13)
N2 N 0.6240(3) 0.0383(3) 0.50405(13)
N3 N 0.6073(3) -0.0247(3) 0.46508(14)
N4 N 1.0899(9) 0.1907(10) 0.2236(5)
H1 H 1.1035 0.2024 0.1934
H2 H 1.1216 0.2218 0.2463
C1 C 0.7200(3) 0.0607(3) 0.50249(16)
H3 H 0.7516 0.1025 0.5249
C2 C 0.6936(3) -0.0358(3) 0.44268(16)
H4 H 0.7028 -0.0749 0.4149
C3 C 0.9125(4) 0.0166(4) 0.35288(18)
C4 C 0.9297(4) 0.0353(4) 0.29994(19)
C5 C 0.9996(4) 0.1056(4) 0.2850(2)
H5 H 1.0345 0.1417 0.3085
C6 C 1.0188(4) 0.1234(4) 0.23533(19)
O1D O 1.0544(3) 0.1394(3) 0.13281(12)
O2D O 0.9233(3) 0.0467(3) 0.11668(13)
N4D N 0.8093(10) -0.0899(9) 0.2764(5)
H1D H 0.7976 -0.1035 0.3066
H2D H 0.7782 -0.1216 0.2537
C3D C 0.9834(4) 0.0875(4) 0.14712(18)
C4D C 0.9647(4) 0.0703(4) 0.20006(19)
C5D C 0.8944(4) 0.0004(4) 0.2150(2)
H5D H 0.8583 -0.0345 0.1915
C6D C 0.8766(4) -0.0188(4) 0.26467(19)
Zn1D Zn 0.97711(4) 0.08883(4) 0.053362(17)
N1D N 0.9839(3) 0.2328(3) 0.03531(13)
N2D N 0.9617(3) 0.3760(3) -0.00405(13)
N3D N 1.0247(3) 0.3927(3) 0.03492(14)
C1D C 0.9393(3) 0.2800(3) -0.00249(16)
H3D H 0.8975 0.2484 -0.0249
C2D C 1.0358(3) 0.3064(3) 0.05732(16)
H4D H 1.0749 0.2972 0.0851
Zn1C Zn 1.08883(4) 0.52289(4) 0.053362(17)
Zn1G Zn 0.47711(4) -0.08883(4) 0.446638(17)
Zn1K Zn 0.91117(4) 0.47711(4) -0.053362(17)
Zn1O Zn 0.52289(4) 0.08883(4) 0.553362(17)
N2J N 0.8760(3) 0.0383(3) 0.00405(13)
N2N N 0.9617(3) 0.1240(3) 0.49595(13)
N3B N 1.1073(3) 0.0247(3) 0.03492(14)
N3F N 0.9753(3) -0.1073(3) 0.46508(14)
O10? O 1.2500 0.2500 0.362(3)
C10? C 1.2500 0.2500 0.405(3)
O11? O 1.2500 0.2500 0.449(3)
O12? O 0.7500 0.2500 0.6229(17)
C11? C 0.7500 0.2500 0.6658(17)
O13? O 0.7500 0.2500 0.7086(17)
O14? O 0.8098(13) 0.1687(14) 0.6471(6)
O15? O 0.800(3) 0.197(3) 0.7014(14)
loop_
_geom_bond_atom_site_label_1
_geom_bond_atom_site_label_2
_geom_bond_site_symmetry_1
_geom_bond_site_symmetry_2
Zn1 O1 1_555 1_555
O1 C3 1_555 1_555
O2 Zn1 1_555 1_555
N1 Zn1 1_555 1_555
N2 N3 1_555 1_555
N3 C2 1_555 1_555
N4 H1 1_555 1_555
H2 N4 1_555 1_555
C1 N1 1_555 1_555
H3 C1 1_555 1_555
C2 N1 1_555 1_555
H4 C2 1_555 1_555
C3 O2 1_555 1_555
C4 C3 1_555 1_555
C5 C4 1_555 1_555
H5 C5 1_555 1_555
C6 N4 1_555 1_555
O3 C7 1_555 1_555
C7 O4 1_555 1_555
O5 C8 1_555 1_555
C8 O6 1_555 1_555
O7 C9 1_555 1_555
C9 O8 1_555 1_555
O1D C3D 1_555 1_555
O2D C3D 1_555 1_555
N4D H1D 1_555 1_555
H2D N4D 1_555 1_555
C3D C4D 1_555 1_555
C4D C6 1_555 1_555
C5D C4D 1_555 1_555
H5D C5D 1_555 1_555
C6D C4 1_555 1_555
Zn1D O1D 1_555 1_555
N1D Zn1D 1_555 1_555
N2D N3D 1_555 1_555
N3D C2D 1_555 1_555
C1D N1D 1_555 1_555
H3D C1D 1_555 1_555
C2D N1D 1_555 1_555
H4D C2D 1_555 1_555
Zn1C N3D 1_555 1_555
Zn1G N3 1_555 1_555
Zn1K N2D 1_555 1_555
Zn1O N2 1_555 1_555
N2J Zn1D 1_555 1_555
N2N Zn1 1_555 1_555
N3B Zn1D 1_555 1_555
N3F Zn1 1_555 1_555
N2 C1 1_555 1_555
C5 C6 1_555 1_555
O2D Zn1D 1_555 1_555
N4D C6D 1_555 1_555
C5D C6D 1_555 1_555
N2D C1D 1_555 1_555

#END
