
#######################################################################
#
#                 Cambridge Crystallographic Data Centre
#                                CCDC 
#
#######################################################################
#
# If this CIF has been generated from an entry in the Cambridge 
# Structural Database, then it will include bibliographic, chemical, 
# crystal, experimental, refinement or atomic coordinate data resulting 
# from the CCDC's data processing and validation procedures.
#
#######################################################################

data_SUFNIS
_symmetry_cell_setting           orthorhombic
_symmetry_space_group_name_H-M   'P b c a'
_symmetry_Int_Tables_number      61
_space_group_name_Hall           '-P 2ac 2ab'
loop_
_symmetry_equiv_pos_site_id
_symmetry_equiv_pos_as_xyz
1 x,y,z
2 1/2-x,-y,1/2+z
3 -x,1/2+y,1/2-z
4 1/2+x,1/2-y,-z
5 -x,-y,-z
6 1/2+x,y,1/2-z
7 x,1/2-y,1/2+z
8 1/2-x,1/2+y,z
_cell_length_a                   16.549(6)
_cell_length_b                   21.818(8)
_cell_length_c                   25.643(10)
_cell_angle_alpha                90
_cell_angle_beta                 90
_cell_angle_gamma                90
_cell_volume                     9258.82
loop_
_atom_site_label
_atom_site_type_symbol
_atom_site_fract_x
_atom_site_fract_y
_atom_site_fract_z
Gd1 Gd 0.21649(2) 0.136224(16) 0.662214(13)
N1 N 0.2343(4) 0.2439(3) 0.6317(2)
C1 C 0.2395(5) 0.2935(4) 0.6166(3)
Mo1 Mo 0.24812(4) 0.38740(3) 0.59031(2)
C2 C 0.1623(6) 0.3450(4) 0.5391(4)
C3 C 0.2574(6) 0.4482(4) 0.5244(3)
C4 C 0.2323(5) 0.3885(4) 0.6732(3)
C5 C 0.2766(4) 0.4774(4) 0.6197(3)
C6 C 0.3147(6) 0.3388(4) 0.5319(3)
C7 C 0.3714(5) 0.3793(3) 0.6159(3)
C8 C 0.1330(6) 0.4304(4) 0.5982(4)
N2 N 0.1157(6) 0.3214(4) 0.5126(3)
N3 N 0.2627(6) 0.4817(4) 0.4905(3)
N4 N 0.2248(5) 0.3918(3) 0.7183(3)
N5 N 0.2866(4) 0.5259(3) 0.6369(2)
N6 N 0.3507(6) 0.3130(4) 0.5003(3)
N7 N 0.4364(5) 0.3742(4) 0.6294(3)
N8 N 0.0714(5) 0.4555(4) 0.6022(4)
N9 N 0.2597(4) 0.7003(3) 0.7443(2)
N10 N 0.1717(4) 0.5991(3) 0.7231(2)
N11 N 0.3585(4) 0.5857(3) 0.7378(2)
O1 O 0.1757(3) 0.6277(2) 0.6055(2)
O2 O 0.3561(4) 0.6347(3) 0.5842(2)
N12 N 0.4221(4) 0.6784(3) 0.6833(2)
C9 C 0.2202(5) 0.6736(3) 0.7850(3)
C10 C 0.3027(4) 0.7490(3) 0.7564(3)
C11 C 0.1719(5) 0.6203(3) 0.7731(3)
C12 C 0.1247(5) 0.5513(4) 0.7140(3)
C13 C 0.4120(4) 0.6238(3) 0.7630(3)
C14 C 0.3269(5) 0.5398(4) 0.7652(3)
C15 C 0.1463(6) 0.5973(5) 0.5696(3)
C16 C 0.3709(6) 0.6027(5) 0.5463(4)
C17 C 0.4569(5) 0.7227(4) 0.6563(3)
C18 C 0.4472(4) 0.6719(3) 0.7332(3)
C19 C 0.2274(5) 0.6942(4) 0.8372(3)
H1 H 0.3273 0.7694 0.7288
C20 C 0.3155(5) 0.7737(4) 0.8066(3)
C21 C 0.1259(5) 0.5912(4) 0.8136(3)
C22 C 0.0770(5) 0.5205(4) 0.7497(3)
H2 H 0.1237 0.5367 0.6799
C23 C 0.4280(5) 0.6171(4) 0.8177(3)
C24 C 0.3414(5) 0.5295(4) 0.8183(3)
H3 H 0.2929 0.5126 0.7479
H4 H 0.1512 0.5549 0.5716
N13 N 0.1101(5) 0.6190(3) 0.5301(3)
H5 H 0.3453 0.5648 0.5454
N14 N 0.4166(6) 0.6147(4) 0.5083(3)
H6 H 0.4411 0.7271 0.6217
C25 C 0.5151(5) 0.7634(4) 0.6749(3)
C26 C 0.5042(5) 0.7129(4) 0.7573(3)
C27 C 0.1810(6) 0.6629(5) 0.8771(4)
C28 C 0.2752(6) 0.7449(4) 0.8471(3)
C29 C 0.3720(5) 0.8274(4) 0.8128(3)
C30 C 0.1336(6) 0.6158(4) 0.8653(4)
C31 C 0.0774(5) 0.5416(4) 0.8003(3)
C32 C 0.0282(5) 0.4657(4) 0.7316(3)
C33 C 0.4839(5) 0.6611(4) 0.8389(3)
C34 C 0.3893(5) 0.5694(4) 0.8448(3)
C35 C 0.2989(6) 0.4760(5) 0.8437(4)
C36 C 0.0961(7) 0.6834(5) 0.5242(4)
C37 C 0.0756(6) 0.5793(5) 0.4905(4)
C38 C 0.4525(7) 0.6732(5) 0.5040(4)
C39 C 0.4301(8) 0.5743(6) 0.4653(4)
C40 C 0.5467(6) 0.8118(4) 0.6374(4)
C41 C 0.5381(5) 0.7593(4) 0.7256(3)
C42 C 0.5211(5) 0.7039(4) 0.8115(3)
H7 H 0.1846 0.6759 0.9116
C43 C 0.2894(6) 0.7677(5) 0.9035(4)
H8 H 0.3979 0.8358 0.7800
H9 H 0.3418 0.8628 0.8236
H10 H 0.4121 0.8179 0.8385
H11 H 0.1038 0.5977 0.8919
C44 C 0.0260(6) 0.5102(5) 0.8410(4)
H12 H -0.0141 0.4575 0.7562
H13 H 0.0050 0.4743 0.6981
H14 H 0.0629 0.4305 0.7290
H15 H 0.4946 0.6592 0.8745
C45 C 0.4029(6) 0.5630(4) 0.9038(3)
H16 H 0.2594 0.4910 0.8680
H17 H 0.2726 0.4518 0.8174
H18 H 0.3377 0.4512 0.8619
H19 H 0.1244 0.6980 0.4939
H20 H 0.0392 0.6907 0.5200
H21 H 0.1152 0.7046 0.5545
H22 H 0.0817 0.5373 0.5010
H23 H 0.0192 0.5885 0.4864
H24 H 0.1030 0.5858 0.4580
H25 H 0.5031 0.6734 0.5223
H26 H 0.4615 0.6826 0.4679
H27 H 0.4172 0.7033 0.5190
H28 H 0.4081 0.5347 0.4732
H29 H 0.4042 0.5905 0.4348
H30 H 0.4871 0.5707 0.4591
H31 H 0.6040 0.8070 0.6333
H32 H 0.5207 0.8072 0.6042
H33 H 0.5353 0.8518 0.6512
C46 C 0.5961(5) 0.8049(4) 0.7490(3)
H34 H 0.5591 0.7288 0.8278
H35 H 0.3447 0.7804 0.9073
H36 H 0.2781 0.7351 0.9275
H37 H 0.2544 0.8017 0.9105
H38 H 0.0207 0.4675 0.8326
H39 H 0.0511 0.5143 0.8746
H40 H -0.0266 0.5288 0.8418
H41 H 0.4524 0.5412 0.9101
H42 H 0.4061 0.6030 0.9193
H43 H 0.3587 0.5408 0.9190
H44 H 0.5665 0.8350 0.7685
H45 H 0.6329 0.7839 0.7718
H46 H 0.6258 0.8247 0.7217
Gd1G Gd 0.28351(2) 0.636224(16) 0.662214(13)
N1G N 0.2657(4) 0.7439(3) 0.6317(2)
loop_
_geom_bond_atom_site_label_1
_geom_bond_atom_site_label_2
_geom_bond_site_symmetry_1
_geom_bond_site_symmetry_2
Gd1 N1 1_555 1_555
N1 C1 1_555 1_555
C1 Mo1 1_555 1_555
Mo1 C2 1_555 1_555
C2 N2 1_555 1_555
C3 Mo1 1_555 1_555
C4 Mo1 1_555 1_555
C5 Mo1 1_555 1_555
C6 Mo1 1_555 1_555
C7 Mo1 1_555 1_555
C8 Mo1 1_555 1_555
N3 C3 1_555 1_555
N4 C4 1_555 1_555
N5 C5 1_555 1_555
N6 C6 1_555 1_555
N7 C7 1_555 1_555
N8 C8 1_555 1_555
N9 C9 1_555 1_555
N10 C11 1_555 1_555
N11 C13 1_555 1_555
O1 C15 1_555 1_555
O2 C16 1_555 1_555
N12 C17 1_555 1_555
C9 C11 1_555 1_555
C10 N9 1_555 1_555
C11 C21 1_555 1_555
C12 N10 1_555 1_555
C13 C18 1_555 1_555
C14 N11 1_555 1_555
C15 H4 1_555 1_555
C16 H5 1_555 1_555
C17 H6 1_555 1_555
C18 N12 1_555 1_555
C19 C9 1_555 1_555
H1 C10 1_555 1_555
C20 C10 1_555 1_555
C21 C30 1_555 1_555
C22 C12 1_555 1_555
H2 C12 1_555 1_555
C23 C13 1_555 1_555
C24 C14 1_555 1_555
H3 C14 1_555 1_555
N13 C15 1_555 1_555
N14 C16 1_555 1_555
C25 C17 1_555 1_555
C26 C18 1_555 1_555
C27 C19 1_555 1_555
C28 C19 1_555 1_555
C29 C20 1_555 1_555
C30 C27 1_555 1_555
C31 C21 1_555 1_555
C32 C22 1_555 1_555
C33 C23 1_555 1_555
C34 C23 1_555 1_555
C35 C24 1_555 1_555
C36 N13 1_555 1_555
C37 N13 1_555 1_555
C38 N14 1_555 1_555
C39 N14 1_555 1_555
C40 C25 1_555 1_555
C41 C25 1_555 1_555
C42 C26 1_555 1_555
H7 C27 1_555 1_555
C43 C28 1_555 1_555
H8 C29 1_555 1_555
H9 C29 1_555 1_555
H10 C29 1_555 1_555
H11 C30 1_555 1_555
C44 C31 1_555 1_555
H12 C32 1_555 1_555
H13 C32 1_555 1_555
H14 C32 1_555 1_555
H15 C33 1_555 1_555
C45 C34 1_555 1_555
H16 C35 1_555 1_555
H17 C35 1_555 1_555
H18 C35 1_555 1_555
H19 C36 1_555 1_555
H20 C36 1_555 1_555
H21 C36 1_555 1_555
H22 C37 1_555 1_555
H23 C37 1_555 1_555
H24 C37 1_555 1_555
H25 C38 1_555 1_555
H26 C38 1_555 1_555
H27 C38 1_555 1_555
H28 C39 1_555 1_555
H29 C39 1_555 1_555
H30 C39 1_555 1_555
H31 C40 1_555 1_555
H32 C40 1_555 1_555
H33 C40 1_555 1_555
C46 C41 1_555 1_555
H34 C42 1_555 1_555
H35 C43 1_555 1_555
H36 C43 1_555 1_555
H37 C43 1_555 1_555
H38 C44 1_555 1_555
H39 C44 1_555 1_555
H40 C44 1_555 1_555
H41 C45 1_555 1_555
H42 C45 1_555 1_555
H43 C45 1_555 1_555
H44 C46 1_555 1_555
H45 C46 1_555 1_555
H46 C46 1_555 1_555
Gd1G N5 1_555 1_555
N1G Gd1G 1_555 1_555
N9 Gd1G 1_555 1_555
N10 Gd1G 1_555 1_555
N11 Gd1G 1_555 1_555
O1 Gd1G 1_555 1_555
O2 Gd1G 1_555 1_555
N12 Gd1G 1_555 1_555
C20 C28 1_555 1_555
C22 C31 1_555 1_555
C24 C34 1_555 1_555
C26 C41 1_555 1_555
C33 C42 1_555 1_555

#END
