
#######################################################################
#
#                 Cambridge Crystallographic Data Centre
#                                CCDC 
#
#######################################################################
#
# If this CIF has been generated from an entry in the Cambridge 
# Structural Database, then it will include bibliographic, chemical, 
# crystal, experimental, refinement or atomic coordinate data resulting 
# from the CCDC's data processing and validation procedures.
#
#######################################################################

data_SUFNOY
_symmetry_cell_setting           orthorhombic
_symmetry_space_group_name_H-M   'P b c a'
_symmetry_Int_Tables_number      61
_space_group_name_Hall           '-P 2ac 2ab'
loop_
_symmetry_equiv_pos_site_id
_symmetry_equiv_pos_as_xyz
1 x,y,z
2 1/2-x,-y,1/2+z
3 -x,1/2+y,1/2-z
4 1/2+x,1/2-y,-z
5 -x,-y,-z
6 1/2+x,y,1/2-z
7 x,1/2-y,1/2+z
8 1/2-x,1/2+y,z
_cell_length_a                   16.4841(11)
_cell_length_b                   21.8576(14)
_cell_length_c                   25.6808(17)
_cell_angle_alpha                90
_cell_angle_beta                 90
_cell_angle_gamma                90
_cell_volume                     9252.87
loop_
_atom_site_label
_atom_site_type_symbol
_atom_site_fract_x
_atom_site_fract_y
_atom_site_fract_z
N1 N 0.7353(3) -0.25594(18) 0.63187(15)
C1 C 0.7398(3) -0.2063(2) 0.61714(17)
Eu1 Eu 0.783114(13) 0.136107(9) 0.662245(8)
Mo1 Mo 0.74765(2) -0.112714(17) 0.590454(15)
C2 C 0.7757(3) -0.0224(2) 0.62023(18)
C3 C 0.7310(3) -0.1117(2) 0.6739(2)
C4 C 0.6316(3) -0.0696(2) 0.5994(2)
C5 C 0.6607(3) -0.1554(2) 0.5394(2)
C6 C 0.8141(3) -0.1617(3) 0.5321(2)
C7 C 0.8715(3) -0.1205(2) 0.6164(2)
C8 C 0.7568(3) -0.0514(3) 0.5246(2)
C9 C 0.8282(3) 0.0397(2) 0.76565(19)
H1 H 0.7953 0.0120 0.7481
C10 C 0.8410(3) 0.0298(2) 0.8184(2)
C11 C 0.7992(4) -0.0241(3) 0.8438(2)
H2 H 0.8390 -0.0502 0.8596
H3 H 0.7696 -0.0467 0.8180
H4 H 0.7623 -0.0096 0.8700
C12 C 0.8895(3) 0.0704(2) 0.8451(2)
C13 C 0.9028(4) 0.0636(3) 0.9033(2)
H5 H 0.8584 0.0413 0.9183
H6 H 0.9061 0.1033 0.9191
H7 H 0.9525 0.0417 0.9095
C14 C 0.9285(3) 0.1179(2) 0.8174(2)
C15 C 0.9847(3) 0.1613(3) 0.8390(2)
H8 H 0.9965 0.1587 0.8743
C16 C 1.0208(3) 0.2046(3) 0.8115(2)
H9 H 1.0578 0.2304 0.8278
C17 C 1.0039(3) 0.2127(2) 0.75706(19)
C18 C 1.0379(3) 0.2598(2) 0.7263(2)
C19 C 1.0967(4) 0.3054(3) 0.7492(2)
H10 H 1.1276 0.3240 0.7217
H11 H 1.1327 0.2848 0.7728
H12 H 1.0671 0.3364 0.7677
C20 C 1.0152(3) 0.2639(2) 0.6745(2)
C21 C 1.0469(4) 0.3113(3) 0.6374(2)
H13 H 1.0312 0.3513 0.6491
H14 H 1.0248 0.3041 0.6033
H15 H 1.1050 0.3089 0.6359
C22 C 0.9572(3) 0.2229(2) 0.6559(2)
H16 H 0.9414 0.2267 0.6212
C23 C 0.9119(3) 0.1238(2) 0.76408(18)
C24 C 0.9480(3) 0.1721(2) 0.73399(18)
C25 C 0.6245(3) 0.0507(2) 0.7144(2)
H17 H 0.6240 0.0359 0.6805
C26 C 0.5760(3) 0.0202(2) 0.7508(2)
C27 C 0.5281(4) -0.0346(3) 0.7327(2)
H18 H 0.5597 -0.0710 0.7376
H19 H 0.5151 -0.0301 0.6965
H20 H 0.4789 -0.0376 0.7526
C28 C 0.5763(3) 0.0408(2) 0.8006(2)
C29 C 0.5257(4) 0.0103(3) 0.8419(3)
H21 H 0.4751 0.0316 0.8455
H22 H 0.5542 0.0112 0.8745
H23 H 0.5154 -0.0314 0.8322
C30 C 0.6250(3) 0.0912(2) 0.8135(2)
C31 C 0.6344(4) 0.1149(3) 0.8653(3)
H24 H 0.6061 0.0960 0.8922
C32 C 0.6816(4) 0.1627(3) 0.8768(2)
H25 H 0.6854 0.1759 0.9112
C33 C 0.7264(3) 0.1942(2) 0.83727(19)
C34 C 0.7771(3) 0.2450(3) 0.8472(2)
C35 C 0.7888(4) 0.2670(3) 0.9029(3)
H26 H 0.8437 0.2594 0.9136
H27 H 0.7522 0.2454 0.9255
H28 H 0.7778 0.3101 0.9048
C36 C 0.8150(3) 0.2731(2) 0.80655(19)
C37 C 0.8714(3) 0.3274(2) 0.8129(2)
H29 H 0.8406 0.3626 0.8234
H30 H 0.8980 0.3356 0.7804
H31 H 0.9113 0.3183 0.8390
C38 C 0.8030(3) 0.2496(2) 0.75651(18)
H32 H 0.8276 0.2701 0.7290
C39 C 0.6708(3) 0.1199(2) 0.77393(19)
C40 C 0.7202(3) 0.1730(2) 0.78559(18)
C41 C 0.6442(3) 0.0968(3) 0.5697(2)
H33 H 0.6468 0.0544 0.5727
C42 C 0.5966(5) 0.1828(3) 0.5234(3)
H34 H 0.5405 0.1921 0.5293
H35 H 0.6116 0.1950 0.4888
H36 H 0.6293 0.2045 0.5483
C43 C 0.5735(4) 0.0781(3) 0.4903(3)
H37 H 0.5756 0.0366 0.5023
H38 H 0.6032 0.0818 0.4583
H39 H 0.5181 0.0898 0.4847
C44 C 0.8718(4) 0.1018(3) 0.5468(3)
H40 H 0.8478 0.0633 0.5463
C45 C 0.9509(5) 0.1736(4) 0.5035(3)
H41 H 0.9155 0.2030 0.5194
H42 H 0.9578 0.1834 0.4673
H43 H 1.0026 0.1744 0.5206
C46 C 0.9284(6) 0.0760(4) 0.4634(3)
H44 H 0.8859 0.0460 0.4623
H45 H 0.9799 0.0558 0.4660
H46 H 0.9269 0.1002 0.4322
N2 N 0.7868(2) 0.02529(17) 0.63713(16)
N3 N 0.7252(3) -0.1083(2) 0.71817(19)
N4 N 0.5699(3) -0.0446(2) 0.6025(2)
N5 N 0.6143(4) -0.1783(2) 0.5124(2)
N6 N 0.8502(4) -0.1861(3) 0.50072(19)
N7 N 0.9369(3) -0.1257(2) 0.6295(2)
N8 N 0.7616(4) -0.0178(2) 0.4906(2)
N9 N 0.8595(2) 0.08598(17) 0.73818(14)
N10 N 0.9229(2) 0.17886(18) 0.68399(15)
N11 N 0.6712(2) 0.09890(17) 0.72394(15)
N12 N 0.7593(2) 0.20043(16) 0.74525(14)
N13 N 0.6094(3) 0.1181(2) 0.52935(19)
N14 N 0.9170(4) 0.1152(3) 0.5081(2)
O1 O 0.6749(2) 0.12703(15) 0.60567(14)
O2 O 0.8566(2) 0.13406(16) 0.58437(14)
N1G N 0.7647(3) 0.24406(18) 0.63187(15)
Eu1G Eu 0.716886(13) -0.363893(9) 0.662245(8)
loop_
_geom_bond_atom_site_label_1
_geom_bond_atom_site_label_2
_geom_bond_site_symmetry_1
_geom_bond_site_symmetry_2
N1 C1 1_555 1_555
C1 Mo1 1_555 1_555
Eu1 N2 1_555 1_555
Mo1 C2 1_555 1_555
C2 N2 1_555 1_555
C3 Mo1 1_555 1_555
C4 Mo1 1_555 1_555
C5 Mo1 1_555 1_555
C6 Mo1 1_555 1_555
C7 Mo1 1_555 1_555
C8 Mo1 1_555 1_555
C9 H1 1_555 1_555
C10 C9 1_555 1_555
C11 C10 1_555 1_555
H2 C11 1_555 1_555
H3 C11 1_555 1_555
H4 C11 1_555 1_555
C12 C10 1_555 1_555
C13 C12 1_555 1_555
H5 C13 1_555 1_555
H6 C13 1_555 1_555
H7 C13 1_555 1_555
C14 C12 1_555 1_555
C15 C14 1_555 1_555
H8 C15 1_555 1_555
C16 C15 1_555 1_555
H9 C16 1_555 1_555
C17 C16 1_555 1_555
C18 C17 1_555 1_555
C19 C18 1_555 1_555
H10 C19 1_555 1_555
H11 C19 1_555 1_555
H12 C19 1_555 1_555
C20 C18 1_555 1_555
C21 C20 1_555 1_555
H13 C21 1_555 1_555
H14 C21 1_555 1_555
H15 C21 1_555 1_555
C22 C20 1_555 1_555
H16 C22 1_555 1_555
C23 C14 1_555 1_555
C24 C17 1_555 1_555
C25 H17 1_555 1_555
C26 C25 1_555 1_555
C27 C26 1_555 1_555
H18 C27 1_555 1_555
H19 C27 1_555 1_555
H20 C27 1_555 1_555
C28 C26 1_555 1_555
C29 C28 1_555 1_555
H21 C29 1_555 1_555
H22 C29 1_555 1_555
H23 C29 1_555 1_555
C30 C28 1_555 1_555
C31 C30 1_555 1_555
H24 C31 1_555 1_555
C32 C31 1_555 1_555
H25 C32 1_555 1_555
C33 C32 1_555 1_555
C34 C33 1_555 1_555
C35 C34 1_555 1_555
H26 C35 1_555 1_555
H27 C35 1_555 1_555
H28 C35 1_555 1_555
C36 C34 1_555 1_555
C37 C36 1_555 1_555
H29 C37 1_555 1_555
H30 C37 1_555 1_555
H31 C37 1_555 1_555
C38 C36 1_555 1_555
H32 C38 1_555 1_555
C39 C30 1_555 1_555
C40 C33 1_555 1_555
C41 H33 1_555 1_555
C42 H34 1_555 1_555
H35 C42 1_555 1_555
H36 C42 1_555 1_555
C43 H37 1_555 1_555
H38 C43 1_555 1_555
H39 C43 1_555 1_555
C44 H40 1_555 1_555
C45 H41 1_555 1_555
H42 C45 1_555 1_555
H43 C45 1_555 1_555
C46 H44 1_555 1_555
H45 C46 1_555 1_555
H46 C46 1_555 1_555
N3 C3 1_555 1_555
N4 C4 1_555 1_555
N5 C5 1_555 1_555
N6 C6 1_555 1_555
N7 C7 1_555 1_555
N8 C8 1_555 1_555
N9 Eu1 1_555 1_555
N10 Eu1 1_555 1_555
N11 Eu1 1_555 1_555
N12 Eu1 1_555 1_555
N13 C41 1_555 1_555
N14 C44 1_555 1_555
O1 Eu1 1_555 1_555
O2 Eu1 1_555 1_555
N1G Eu1 1_555 1_555
Eu1G N1 1_555 1_555
C9 N9 1_555 1_555
C22 N10 1_555 1_555
C23 C24 1_555 1_555
C23 N9 1_555 1_555
C24 N10 1_555 1_555
C25 N11 1_555 1_555
C38 N12 1_555 1_555
C39 C40 1_555 1_555
C39 N11 1_555 1_555
C40 N12 1_555 1_555
C41 O1 1_555 1_555
C42 N13 1_555 1_555
C43 N13 1_555 1_555
C44 O2 1_555 1_555
C45 N14 1_555 1_555
C46 N14 1_555 1_555

#END
