
#######################################################################
#
#                 Cambridge Crystallographic Data Centre
#                                CCDC 
#
#######################################################################
#
# If this CIF has been generated from an entry in the Cambridge 
# Structural Database, then it will include bibliographic, chemical, 
# crystal, experimental, refinement or atomic coordinate data resulting 
# from the CCDC's data processing and validation procedures.
#
#######################################################################

data_SUFPAM
_symmetry_cell_setting           monoclinic
_symmetry_space_group_name_H-M   'P 21/c'
_symmetry_Int_Tables_number      14
_space_group_name_Hall           '-P 2ybc'
loop_
_symmetry_equiv_pos_site_id
_symmetry_equiv_pos_as_xyz
1 x,y,z
2 -x,1/2+y,1/2-z
3 -x,-y,-z
4 x,1/2-y,1/2+z
_cell_length_a                   8.329(2)
_cell_length_b                   15.295(3)
_cell_length_c                   6.2436(15)
_cell_angle_alpha                90
_cell_angle_beta                 104.387(3)
_cell_angle_gamma                90
_cell_volume                     770.441
loop_
_atom_site_label
_atom_site_type_symbol
_atom_site_fract_x
_atom_site_fract_y
_atom_site_fract_z
Na1 Na -0.05192(6) 0.05134(3) 0.22612(9)
O1 O -0.03452(11) 0.17245(6) -0.04633(18)
O2 O 0.20186(11) 0.01629(6) 0.12875(16)
O3 O 0.09261(11) 0.08657(6) 0.60659(16)
O4 O 0.68609(11) 0.40219(6) 0.77179(17)
N1 N 0.66324(12) 0.25217(7) 0.76023(18)
N2 N 0.53039(12) 0.11179(7) 0.72411(18)
N3 N 0.37225(12) 0.07917(7) 0.67890(18)
N4 N 0.23370(12) 0.21600(7) 0.62986(17)
N5 N 0.42573(12) 0.33509(7) 0.68536(18)
C1 C 0.53161(14) 0.19618(8) 0.72213(19)
C2 C 0.38422(14) 0.25038(7) 0.67498(19)
C3 C 0.22869(14) 0.12670(8) 0.63713(19)
C4 C 0.59822(15) 0.33629(8) 0.7412(2)
H1 H 0.774(3) 0.2371(14) 0.816(4)
H2 H -0.003(3) 0.1467(15) -0.163(4)
H3 H 0.049(3) 0.2116(16) 0.010(4)
H4 H 0.272(3) -0.0255(15) 0.185(4)
H5 H 0.265(3) 0.0639(19) 0.146(4)
H6 H 0.367(2) 0.0186(13) 0.694(3)
Na1B Na 0.05192(6) -0.05134(3) -0.22612(9)
Na1B_2 Na 0.05192(6) -0.05134(3) 0.77388(9)
Na1C Na 0.94808(6) 0.44866(3) 0.72612(9)
O2B O -0.20186(11) -0.01629(6) -0.12875(16)
O3B O -0.09261(11) -0.08657(6) 0.39341(16)
O4C O -0.31391(11) 0.09781(6) 0.27179(17)
loop_
_geom_bond_atom_site_label_1
_geom_bond_atom_site_label_2
_geom_bond_site_symmetry_1
_geom_bond_site_symmetry_2
Na1 O1 1_555 1_555
O1 H2 1_555 1_555
O2 Na1 1_555 1_555
O3 Na1 1_555 1_555
O4 C4 1_555 1_555
N1 C1 1_555 1_555
N2 N3 1_555 1_555
N3 C3 1_555 1_555
N4 C2 1_555 1_555
N5 C2 1_555 1_555
C1 N2 1_555 1_555
C2 C1 1_555 1_555
C3 O3 1_555 1_555
C4 N1 1_555 1_555
H1 N1 1_555 1_555
H3 O1 1_555 1_555
H4 O2 1_555 1_555
H5 O2 1_555 1_555
H6 N3 1_555 1_555
Na1B O2 1_555 1_555
Na1B_2 O3 1_555 1_555
Na1C O4 1_555 1_555
O2B Na1 1_555 1_555
O3B Na1 1_555 1_555
O4C Na1 1_555 1_555
N4 C3 1_555 1_555
N5 C4 1_555 1_555
Na1B O2B 1_555 1_555
Na1B_2 O3B 1_555 1_555

#END
