
#######################################################################
#
#                 Cambridge Crystallographic Data Centre
#                                CCDC 
#
#######################################################################
#
# If this CIF has been generated from an entry in the Cambridge 
# Structural Database, then it will include bibliographic, chemical, 
# crystal, experimental, refinement or atomic coordinate data resulting 
# from the CCDC's data processing and validation procedures.
#
#######################################################################

data_SUFWEV
_symmetry_cell_setting           monoclinic
_symmetry_space_group_name_H-M   'P c'
_symmetry_Int_Tables_number      7
_space_group_name_Hall           'P -2yc'
loop_
_symmetry_equiv_pos_site_id
_symmetry_equiv_pos_as_xyz
1 x,y,z
2 x,-y,1/2+z
_cell_length_a                   9.673(3)
_cell_length_b                   7.598(2)
_cell_length_c                   16.400(4)
_cell_angle_alpha                90
_cell_angle_beta                 90.05(3)
_cell_angle_gamma                90
_cell_volume                     1205.32
loop_
_atom_site_label
_atom_site_type_symbol
_atom_site_fract_x
_atom_site_fract_y
_atom_site_fract_z
Nd1 Nd 0.21060 0.18095(4) 0.09983
Nd2 Nd -0.21052(4) -0.18078(4) -0.09988(2)
O1 O 0.2806(7) 0.4793(7) 0.1245(3)
O2 O -0.3012(5) -0.4753(6) -0.1238(3)
O3 O 0.2985(5) 0.8931(7) 0.1335(3)
O4 O -0.2964(5) -0.8960(6) -0.1318(3)
O5 O 0.3532(6) 0.8824(7) 0.3286(3)
O6 O -0.3506(5) -0.8829(6) -0.3277(3)
O7 O 0.3421(7) 0.4528(7) 0.3235(3)
O8 O -0.3482(7) -0.4599(7) -0.3176(3)
O9 O 0.0023(5) -0.0062(8) 0.1452(3)
O10 O -0.0729(6) -0.3337(7) 0.0111(3)
O11 O 0.0153(6) -0.6292(8) 0.1542(4)
O12 O 0.0148(6) -0.3187(7) 0.2857(4)
O13 O 0.0929(8) 0.3421(8) -0.0199(4)
O14 O -0.0151(7) -0.3536(9) -0.1514(4)
O15 O 0.1664(6) -0.0350(7) -0.0113(3)
O16 O -0.1750(5) 0.0305(7) 0.0105(3)
O17 O 0.3819(7) 0.2308(10) -0.0057(4)
O18 O -0.3810(5) -0.2363(8) 0.0135(3)
O19 O 0.2174(5) 0.1702(7) 0.2577(3)
O20 O -0.2046(5) -0.1766(7) -0.2567(3)
O21 O 0.4602(5) 0.1799(7) 0.1566(4)
O22 O -0.4808(6) -0.1843(7) -0.1538(3)
O23 O -0.0062(6) -0.0046(8) -0.1441(3)
C1 C 0.3073(8) 0.5888(8) 0.1836(4)
C2 C -0.3168(8) -0.5812(8) -0.1780(4)
C3 C 0.31037(7) 0.7790(11) 0.1838(4)
C4 C -0.3162(6) -0.7776(6) -0.1852(3)
C5 C 0.3378(7) 0.7732(7) 0.2709(4)
C6 C -0.3403(6) -0.7669(9) -0.2745(3)
C7 C 0.3330(8) 0.5758(8) 0.2681(4)
C8 C -0.3386(8) -0.5804(9) -0.2695(3)
C9 C -0.0042(6) -0.1845(8) 0.1435(3)
C10 C -0.0288(6) -0.3258(8) 0.0832(4)
C11 C 0.0068(6) -0.4559(8) 0.1456(4)
C12 C -0.0019(8) -0.3088(9) 0.2112(3)
O3_2 O 0.2985(5) -0.1069(7) 0.1335(3)
O11_2 O 0.0153(6) 0.3708(8) 0.1542(4)
O4_2 O -0.2964(5) 0.1040(6) -0.1318(3)
Nd1_2 Nd 0.21060 1.18095(4) 0.09983
Nd2_2 Nd -0.21052(4) -1.18078(4) -0.09988(2)
Nd1_3 Nd 0.21060 -0.81905(4) 0.09983
O24 O 0.3343(8) 0.3442(7) 0.4785(4)
O25 O -0.3416(6) -0.3292(7) -0.4806(2)
loop_
_geom_bond_atom_site_label_1
_geom_bond_atom_site_label_2
_geom_bond_site_symmetry_1
_geom_bond_site_symmetry_2
Nd1 O1 1_555 1_555
Nd2 O2 1_555 1_555
O1 C1 1_555 1_555
O2 C2 1_555 1_555
O3 C3 1_555 1_555
O4 C4 1_555 1_555
O5 C5 1_555 1_555
O6 C6 1_555 1_555
O7 C7 1_555 1_555
O8 C8 1_555 1_555
O9 Nd1 1_555 1_555
O10 Nd2 1_555 1_555
O11 C11 1_555 1_555
O12 C12 1_555 1_555
O13 Nd1 1_555 1_555
O14 Nd2 1_555 1_555
O15 Nd1 1_555 1_555
O16 Nd2 1_555 1_555
O17 Nd1 1_555 1_555
O18 Nd2 1_555 1_555
O19 Nd1 1_555 1_555
O20 Nd2 1_555 1_555
O21 Nd1 1_555 1_555
O22 Nd2 1_555 1_555
O23 Nd2 1_555 1_555
C1 C3 1_555 1_555
C2 C4 1_555 1_555
C3 C5 1_555 1_555
C4 C6 1_555 1_555
C5 C7 1_555 1_555
C6 C8 1_555 1_555
C7 C1 1_555 1_555
C8 C2 1_555 1_555
C9 O9 1_555 1_555
C10 O10 1_555 1_555
C11 C10 1_555 1_555
C12 C9 1_555 1_555
O3_2 Nd1 1_555 1_555
O11_2 Nd1 1_555 1_555
O4_2 Nd2 1_555 1_555
Nd1_2 O3 1_555 1_555
Nd2_2 O4 1_555 1_555
Nd1_3 O11 1_555 1_555
C9 C10 1_555 1_555
C11 C12 1_555 1_555

#END
