
#######################################################################
#
#                 Cambridge Crystallographic Data Centre
#                                CCDC 
#
#######################################################################
#
# If this CIF has been generated from an entry in the Cambridge 
# Structural Database, then it will include bibliographic, chemical, 
# crystal, experimental, refinement or atomic coordinate data resulting 
# from the CCDC's data processing and validation procedures.
#
#######################################################################

data_SUGRAN01
_symmetry_cell_setting           orthorhombic
_symmetry_space_group_name_H-M   'P b c a'
_symmetry_Int_Tables_number      61
_space_group_name_Hall           '-P 2ac 2ab'
loop_
_symmetry_equiv_pos_site_id
_symmetry_equiv_pos_as_xyz
1 x,y,z
2 1/2-x,1/2+y,z
3 x,1/2-y,1/2+z
4 1/2+x,y,1/2-z
5 -x,-y,-z
6 1/2+x,1/2-y,-z
7 -x,1/2+y,1/2-z
8 1/2-x,-y,1/2+z
_cell_length_a                   15.158(2)
_cell_length_b                   22.677(4)
_cell_length_c                   7.508(2)
_cell_angle_alpha                90
_cell_angle_beta                 90
_cell_angle_gamma                90
_cell_volume                     2580.78
loop_
_atom_site_label
_atom_site_type_symbol
_atom_site_fract_x
_atom_site_fract_y
_atom_site_fract_z
Cu1 Cu 0.30117(5) 0.05932(3) 0.32477(11)
C1 C 0.2056(3) 0.15683(19) 0.1386(8)
C2 C 0.1673(3) 0.2128(2) 0.1446(8)
C3 C 0.0920(4) 0.2264(2) 0.0532(9)
C4 C 0.0518(4) 0.1845(2) -0.0524(9)
C5 C 0.0895(3) 0.1291(2) -0.0649(9)
C6 C 0.1657(3) 0.11372(19) 0.0270(7)
C7 C 0.2006(4) 0.05226(19) 0.0038(9)
O1 O 0.2590(3) 0.03084(14) 0.1017(6)
O2 O 0.1669(3) 0.02329(14) -0.1229(6)
O3 O 0.4422(2) 0.07496(16) 0.2235(6)
C8 C 0.4426(3) 0.1202(2) 0.1398(8)
O4 O 0.5093(2) 0.14019(15) 0.0481(6)
H1 H 0.5518 0.1182 0.0614
C9 C 0.3628(4) 0.1593(2) 0.1179(10)
N1 N 0.2872(3) 0.14544(15) 0.2346(6)
C10 C 0.2899(5) 0.1803(2) 0.4063(9)
C11 C 0.3267(3) 0.1477(2) 0.5662(9)
O5 O 0.3361(3) 0.09160(15) 0.5503(5)
O6 O 0.3422(3) 0.17703(18) 0.6981(6)
O8 O 0.1406(3) 0.0653(2) 0.4637(9)
H2 H 0.196(3) 0.237(2) 0.214(8)
H3 H 0.069(4) 0.265(3) 0.059(9)
H4 H 0.001(4) 0.194(2) -0.136(7)
H5 H 0.068(5) 0.104(3) -0.129(11)
H6 H 0.379(4) 0.200(2) 0.130(8)
H7 H 0.344(5) 0.154(3) 0.021(10)
H8 H 0.324(6) 0.215(4) 0.401(14)
H9 H 0.223(5) 0.185(3) 0.452(10)
H12 H 0.150(7) 0.051(4) 0.549(15)
H13 H 0.123(7) 0.041(4) 0.397(15)
O2G O 0.3331(3) -0.02329(14) 0.3771(6)
Cu1G Cu 0.19883(5) -0.05932(3) -0.17523(11)
O7 O 0.0653(5) -0.0254(3) 0.2984(10)
H10 H 0.044(7) -0.008(4) 0.226(14)
H11 H 0.081(5) -0.041(3) 0.240(11)
loop_
_geom_bond_atom_site_label_1
_geom_bond_atom_site_label_2
_geom_bond_site_symmetry_1
_geom_bond_site_symmetry_2
Cu1 O1 1_555 1_555
C1 C2 1_555 1_555
C2 C3 1_555 1_555
C3 C4 1_555 1_555
C4 C5 1_555 1_555
C5 C6 1_555 1_555
C6 C1 1_555 1_555
C7 C6 1_555 1_555
O1 C7 1_555 1_555
O2 C7 1_555 1_555
O3 Cu1 1_555 1_555
C8 O3 1_555 1_555
O4 C8 1_555 1_555
H1 O4 1_555 1_555
C9 C8 1_555 1_555
N1 Cu1 1_555 1_555
C10 N1 1_555 1_555
C11 C10 1_555 1_555
O5 Cu1 1_555 1_555
O6 C11 1_555 1_555
O7 H10 1_555 1_555
O8 Cu1 1_555 1_555
H2 C2 1_555 1_555
H3 C3 1_555 1_555
H4 C4 1_555 1_555
H5 C5 1_555 1_555
H6 C9 1_555 1_555
H7 C9 1_555 1_555
H8 C10 1_555 1_555
H9 C10 1_555 1_555
H11 O7 1_555 1_555
H12 O8 1_555 1_555
H13 O8 1_555 1_555
O2G Cu1 1_555 1_555
Cu1G O2 1_555 1_555
C1 N1 1_555 1_555
C9 N1 1_555 1_555
C11 O5 1_555 1_555

#END
