
#######################################################################
#
#                 Cambridge Crystallographic Data Centre
#                                CCDC 
#
#######################################################################
#
# If this CIF has been generated from an entry in the Cambridge 
# Structural Database, then it will include bibliographic, chemical, 
# crystal, experimental, refinement or atomic coordinate data resulting 
# from the CCDC's data processing and validation procedures.
#
#######################################################################

data_SUGVUM
_symmetry_cell_setting           tetragonal
_symmetry_space_group_name_H-M   'I 41/a'
_symmetry_Int_Tables_number      88
_space_group_name_Hall           '-I 4ad'
loop_
_symmetry_equiv_pos_site_id
_symmetry_equiv_pos_as_xyz
1 x,y,z
2 1/2-x,-y,1/2+z
3 3/4-y,1/4+x,1/4+z
4 3/4+y,3/4-x,3/4+z
5 1/2+x,1/2+y,1/2+z
6 -x,1/2-y,z
7 1/4-y,3/4+x,3/4+z
8 1/4+y,1/4-x,1/4+z
9 -x,-y,-z
10 1/2+x,y,1/2-z
11 1/4+y,3/4-x,3/4-z
12 1/4-y,1/4+x,1/4-z
13 1/2-x,1/2-y,1/2-z
14 x,1/2+y,-z
15 3/4+y,1/4-x,1/4-z
16 3/4-y,3/4+x,3/4-z
_cell_length_a                   20.375(4)
_cell_length_b                   20.375(4)
_cell_length_c                   12.665(2)
_cell_angle_alpha                90
_cell_angle_beta                 90
_cell_angle_gamma                90
_cell_volume                     5257.76
loop_
_atom_site_label
_atom_site_type_symbol
_atom_site_fract_x
_atom_site_fract_y
_atom_site_fract_z
Cu1 Cu 0.5000 0.0000 0.0000
O1 O 0.5544(3) -0.0458(2) -0.1035(3)
O2 O 0.5647(3) 0.0545(3) -0.1728(5)
N1 N 0.7474(2) -0.1761(3) -0.6509(4)
N2 N 0.7176(2) -0.1131(3) -0.5185(4)
C1 C 0.7003(3) -0.1649(3) -0.5792(4)
H1 H 0.6617 -0.1890 -0.5723
C2 C 0.7945(3) -0.1295(3) -0.6345(5)
H2 H 0.8331 -0.1256 -0.6733
C3 C 0.7771(3) -0.0900(3) -0.5540(5)
H3 H 0.8005 -0.0544 -0.5277
C4 C 0.6787(3) -0.0871(3) -0.4335(4)
C5 C 0.6767(3) -0.0202(3) -0.4209(5)
H4 H 0.6986 0.0073 -0.4676
C6 C 0.6410(3) 0.0056(3) -0.3365(5)
H5 H 0.6390 0.0508 -0.3272
C7 C 0.6092(3) -0.0344(3) -0.2677(5)
C8 C 0.6127(3) -0.1023(3) -0.2827(5)
H6 H 0.5915 -0.1302 -0.2358
C9 C 0.6473(3) -0.1282(3) -0.3660(5)
H7 H 0.6492 -0.1734 -0.3760
C10 C 0.5731(4) -0.0071(3) -0.1730(6)
Cu1B Cu 0.7500 -0.2500 -0.7500
Cu1F Cu 0.2500 0.2500 0.7500
O1H O 0.4456(3) 0.0458(2) 0.1035(3)
O2H O 0.4353(3) -0.0545(3) 0.1728(5)
N1H N 0.2526(2) 0.1761(3) 0.6509(4)
N1C N 0.5739(3) 0.0026(2) 0.0991(4)
N1K N 0.4261(3) -0.0026(2) -0.0991(4)
N2H N 0.2824(2) 0.1131(3) 0.5185(4)
C1H C 0.2997(3) 0.1649(3) 0.5792(4)
H1H H 0.3383 0.1890 0.5723
C2H C 0.2055(3) 0.1295(3) 0.6345(5)
H2H H 0.1669 0.1256 0.6733
C3H C 0.2229(3) 0.0900(3) 0.5540(5)
H3H H 0.1995 0.0544 0.5277
C4H C 0.3213(3) 0.0871(3) 0.4335(4)
C5H C 0.3233(3) 0.0202(3) 0.4209(5)
H4H H 0.3014 -0.0073 0.4676
C6H C 0.3590(3) -0.0056(3) 0.3365(5)
H5H H 0.3610 -0.0508 0.3272
C7H C 0.3908(3) 0.0344(3) 0.2677(5)
C8H C 0.3873(3) 0.1023(3) 0.2827(5)
H6H H 0.4085 0.1302 0.2358
C9H C 0.3527(3) 0.1282(3) 0.3660(5)
H7H H 0.3508 0.1734 0.3760
C10H C 0.4269(4) 0.0071(3) 0.1730(6)
O3 O 0.9053(7) 0.2239(6) 0.7079(12)
H8 H 0.8700 0.2216 0.6724
H9 H 0.9006 0.2589 0.7438
H10 H 0.9005 0.2547 0.4807
H11 H 0.9215 0.2002 0.5180
O4 O 0.9138(11) 0.2176(16) 0.458(3)
loop_
_geom_bond_atom_site_label_1
_geom_bond_atom_site_label_2
_geom_bond_site_symmetry_1
_geom_bond_site_symmetry_2
Cu1 O1 1_555 1_555
O1 C10 1_555 1_555
O2 C10 1_555 1_555
N1 C1 1_555 1_555
N2 C1 1_555 1_555
C1 H1 1_555 1_555
C2 N1 1_555 1_555
H2 C2 1_555 1_555
C3 N2 1_555 1_555
H3 C3 1_555 1_555
C4 N2 1_555 1_555
C5 C4 1_555 1_555
H4 C5 1_555 1_555
C6 C5 1_555 1_555
H5 C6 1_555 1_555
C7 C6 1_555 1_555
C8 C7 1_555 1_555
H6 C8 1_555 1_555
C9 C4 1_555 1_555
H7 C9 1_555 1_555
C10 C7 1_555 1_555
O3 H8 1_555 1_555
H9 O3 1_555 1_555
H10 O4 1_555 1_555
H11 O4 1_555 1_555
Cu1B N1 1_555 1_555
Cu1F N1H 1_555 1_555
O1H Cu1 1_555 1_555
O2H C10H 1_555 1_555
N1H C1H 1_555 1_555
N1C Cu1 1_555 1_555
N1K Cu1 1_555 1_555
N2H C1H 1_555 1_555
C1H H1H 1_555 1_555
C2H N1H 1_555 1_555
H2H C2H 1_555 1_555
C3H N2H 1_555 1_555
H3H C3H 1_555 1_555
C4H N2H 1_555 1_555
C5H C4H 1_555 1_555
H4H C5H 1_555 1_555
C6H C5H 1_555 1_555
H5H C6H 1_555 1_555
C7H C6H 1_555 1_555
C8H C7H 1_555 1_555
H6H C8H 1_555 1_555
C9H C4H 1_555 1_555
H7H C9H 1_555 1_555
C10H O1H 1_555 1_555
C2 C3 1_555 1_555
C8 C9 1_555 1_555
C2H C3H 1_555 1_555
C7H C10H 1_555 1_555
C8H C9H 1_555 1_555

#END
