
#######################################################################
#
#                 Cambridge Crystallographic Data Centre
#                                CCDC 
#
#######################################################################
#
# If this CIF has been generated from an entry in the Cambridge 
# Structural Database, then it will include bibliographic, chemical, 
# crystal, experimental, refinement or atomic coordinate data resulting 
# from the CCDC's data processing and validation procedures.
#
#######################################################################

data_SUGWEX03
_symmetry_cell_setting           tetragonal
_symmetry_space_group_name_H-M   'I 41/a'
_symmetry_Int_Tables_number      88
_space_group_name_Hall           '-I 4ad'
loop_
_symmetry_equiv_pos_site_id
_symmetry_equiv_pos_as_xyz
1 x,y,z
2 3/4-y,1/4+x,1/4+z
3 1/2-x,-y,1/2+z
4 3/4+y,3/4-x,3/4+z
5 1/2+x,1/2+y,1/2+z
6 1/4-y,3/4+x,3/4+z
7 -x,1/2-y,z
8 1/4+y,1/4-x,1/4+z
9 -x,-y,-z
10 1/4+y,3/4-x,3/4-z
11 1/2+x,y,1/2-z
12 1/4-y,1/4+x,1/4-z
13 1/2-x,1/2-y,1/2-z
14 3/4+y,1/4-x,1/4-z
15 x,1/2+y,-z
16 3/4-y,3/4+x,3/4-z
_cell_length_a                   20.643(15)
_cell_length_b                   20.643(15)
_cell_length_c                   12.520(10)
_cell_angle_alpha                90
_cell_angle_beta                 90
_cell_angle_gamma                90
_cell_volume                     5335.19
loop_
_atom_site_label
_atom_site_type_symbol
_atom_site_fract_x
_atom_site_fract_y
_atom_site_fract_z
Cu1 Cu 0.0000 0.0000 1.0000
O1 O 0.0708(5) -0.0482(6) 0.8438(7)
O2 O 0.0511(4) 0.0560(5) 0.9015(5)
N1 N 0.2476(5) 0.1784(5) 0.3510(7)
N2 N 0.2217(5) 0.1158(5) 0.4870(6)
C1 C 0.0763(6) 0.0128(10) 0.8372(9)
C2 C 0.1129(6) 0.0412(7) 0.7422(8)
C3 C 0.1433(6) 0.0009(7) 0.6702(9)
H1 H 0.1402 -0.0437 0.6788
C4 C 0.1775(6) 0.0254(7) 0.5868(9)
H2 H 0.1985 -0.0027 0.5402
C5 C 0.1816(6) 0.0894(7) 0.5708(8)
C6 C 0.1510(7) 0.1338(7) 0.6442(9)
H3 H 0.1535 0.1784 0.6344
C7 C 0.1180(6) 0.1076(8) 0.7292(9)
H4 H 0.0986 0.1350 0.7789
C8 C 0.2057(6) 0.1689(6) 0.4268(9)
H5 H 0.1695 0.1948 0.4387
C9 C 0.2781(6) 0.0930(6) 0.4501(9)
H6 H 0.3015 0.0579 0.4765
C10 C 0.2945(7) 0.1322(7) 0.3649(9)
H7 H 0.3316 0.1279 0.3234
Cu1G Cu 0.2500 0.2500 0.2500
Cu1C Cu -0.2500 -0.2500 1.7500
O1H O -0.0708(5) 0.0482(6) 1.1562(7)
O2H O -0.0511(4) -0.0560(5) 1.0985(5)
N1E N 0.0716(5) -0.0024(5) 1.1010(7)
N1H N -0.2476(5) -0.1784(5) 1.6490(7)
N1M N -0.0716(5) 0.0024(5) 0.8990(7)
N2H N -0.2217(5) -0.1158(5) 1.5130(6)
C1H C -0.0763(6) -0.0128(10) 1.1628(9)
C2H C -0.1129(6) -0.0412(7) 1.2578(8)
C3H C -0.1433(6) -0.0009(7) 1.3298(9)
H1H H -0.1402 0.0437 1.3212
C4H C -0.1775(6) -0.0254(7) 1.4132(9)
H2H H -0.1985 0.0027 1.4598
C5H C -0.1816(6) -0.0894(7) 1.4292(8)
C6H C -0.1510(7) -0.1338(7) 1.3558(9)
H3H H -0.1535 -0.1784 1.3656
C7H C -0.1180(6) -0.1076(8) 1.2708(9)
H4H H -0.0986 -0.1350 1.2211
C8H C -0.2057(6) -0.1689(6) 1.5732(9)
H5H H -0.1695 -0.1948 1.5613
C9H C -0.2781(6) -0.0930(6) 1.5499(9)
H6H H -0.3015 -0.0579 1.5235
C10H C -0.2945(7) -0.1322(7) 1.6351(9)
H7H H -0.3316 -0.1279 1.6766
loop_
_geom_bond_atom_site_label_1
_geom_bond_atom_site_label_2
_geom_bond_site_symmetry_1
_geom_bond_site_symmetry_2
Cu1 O2 1_555 1_555
O1 C1 1_555 1_555
O2 C1 1_555 1_555
N1 C8 1_555 1_555
N2 C5 1_555 1_555
C1 C2 1_555 1_555
C2 C3 1_555 1_555
C3 H1 1_555 1_555
C4 C3 1_555 1_555
H2 C4 1_555 1_555
C5 C4 1_555 1_555
C6 C5 1_555 1_555
H3 C6 1_555 1_555
C7 C2 1_555 1_555
H4 C7 1_555 1_555
C8 N2 1_555 1_555
H5 C8 1_555 1_555
C9 N2 1_555 1_555
H6 C9 1_555 1_555
C10 N1 1_555 1_555
H7 C10 1_555 1_555
Cu1G N1 1_555 1_555
Cu1C N1H 1_555 1_555
O1H C1H 1_555 1_555
O2H Cu1 1_555 1_555
N1E Cu1 1_555 1_555
N1H C8H 1_555 1_555
N1M Cu1 1_555 1_555
N2H C5H 1_555 1_555
C1H O2H 1_555 1_555
C2H C1H 1_555 1_555
C3H C2H 1_555 1_555
H1H C3H 1_555 1_555
C4H C3H 1_555 1_555
H2H C4H 1_555 1_555
C5H C4H 1_555 1_555
C6H C5H 1_555 1_555
H3H C6H 1_555 1_555
C7H C2H 1_555 1_555
H4H C7H 1_555 1_555
C8H N2H 1_555 1_555
H5H C8H 1_555 1_555
C9H N2H 1_555 1_555
H6H C9H 1_555 1_555
C10H N1H 1_555 1_555
H7H C10H 1_555 1_555
C6 C7 1_555 1_555
C9 C10 1_555 1_555
C6H C7H 1_555 1_555
C9H C10H 1_555 1_555

#END
