
#######################################################################
#
#                 Cambridge Crystallographic Data Centre
#                                CCDC 
#
#######################################################################
#
# If this CIF has been generated from an entry in the Cambridge 
# Structural Database, then it will include bibliographic, chemical, 
# crystal, experimental, refinement or atomic coordinate data resulting 
# from the CCDC's data processing and validation procedures.
#
#######################################################################

data_SUGWEX01
_symmetry_cell_setting           rhombohedral
_symmetry_space_group_name_H-M   'R -3'
_symmetry_Int_Tables_number      148
_space_group_name_Hall           '-R 3'
loop_
_symmetry_equiv_pos_site_id
_symmetry_equiv_pos_as_xyz
1 x,y,z
2 -y,x-y,z
3 -x+y,-x,z
4 2/3+x,1/3+y,1/3+z
5 2/3-y,1/3+x-y,1/3+z
6 2/3-x+y,1/3-x,1/3+z
7 1/3+x,2/3+y,2/3+z
8 1/3-y,2/3+x-y,2/3+z
9 1/3-x+y,2/3-x,2/3+z
10 -x,-y,-z
11 y,-x+y,-z
12 x-y,x,-z
13 1/3-x,2/3-y,2/3-z
14 1/3+y,2/3-x+y,2/3-z
15 1/3+x-y,2/3+x,2/3-z
16 2/3-x,1/3-y,1/3-z
17 2/3+y,1/3-x+y,1/3-z
18 2/3+x-y,1/3+x,1/3-z
_cell_length_a                   23.494(5)
_cell_length_b                   23.494(5)
_cell_length_c                   10.003(3)
_cell_angle_alpha                90
_cell_angle_beta                 90
_cell_angle_gamma                120
_cell_volume                     4781.62
loop_
_atom_site_label
_atom_site_type_symbol
_atom_site_fract_x
_atom_site_fract_y
_atom_site_fract_z
Cu1 Cu 0.5000 0.0000 0.0000
O1 O 0.08448(14) -0.41707(14) 0.0132(3)
O2 O 0.04680(15) -0.40502(15) -0.1832(3)
N1 N 0.41028(17) -0.04510(17) -0.0762(4)
N2 N 0.30905(17) -0.12443(18) -0.1135(4)
C1 C 0.3760(2) -0.0192(2) -0.1425(5)
H1 H 0.3933 0.0247 -0.1662
C2 C 0.3141(2) -0.0674(2) -0.1669(4)
H2 H 0.2813 -0.0634 -0.2106
C3 C 0.3680(2) -0.1083(2) -0.0613(5)
H3 H 0.3776 -0.1379 -0.0199
C4 C 0.2519(2) -0.1892(2) -0.1096(5)
C5 C 0.2135(2) -0.2155(2) -0.2217(4)
H4 H 0.2231 -0.1912 -0.3003
C6 C 0.1600(2) -0.2791(2) -0.2151(5)
H5 H 0.1336 -0.2975 -0.2901
C7 C 0.1456(2) -0.3152(2) -0.0986(4)
C8 C 0.1847(3) -0.2867(3) 0.0139(5)
H6 H 0.1753 -0.3107 0.0928
C9 C 0.2370(3) -0.2235(2) 0.0095(5)
H7 H 0.2620 -0.2041 0.0856
C10 C 0.0878(2) -0.3836(2) -0.0922(4)
Cu1A Cu 0.0000 -0.5000 0.0000
Cu1B Cu 0.5000 -0.5000 0.0000
O1B O 0.49845(20) -0.08448(14) 0.0132(3)
O1K O 0.50155(20) 0.08448(14) -0.0132(3)
O2B O 0.54818(21) -0.04680(15) -0.1832(3)
O2K O 0.45182(21) 0.04680(15) 0.1832(3)
N1B N 0.54462(24) -0.41028(17) -0.0762(4)
N1I N 0.58972(17) 0.04510(17) 0.0762(4)
N2B N 0.56652(25) -0.30905(17) -0.1135(4)
C1B C 0.6048(3) -0.3760(2) -0.1425(5)
H1B H 0.6314 -0.3933 -0.1662
C2B C 0.6185(3) -0.3141(2) -0.1669(4)
H2B H 0.6553 -0.2813 -0.2106
C3B C 0.5237(3) -0.3680(2) -0.0613(5)
H3B H 0.4845 -0.3776 -0.0199
C4B C 0.5589(3) -0.2519(2) -0.1096(5)
C5B C 0.5710(3) -0.2135(2) -0.2217(4)
H4B H 0.5857 -0.2231 -0.3003
C6B C 0.5609(3) -0.1600(2) -0.2151(5)
H5B H 0.5689 -0.1336 -0.2901
C7B C 0.5392(3) -0.1456(2) -0.0986(4)
C8B C 0.5286(4) -0.1847(3) 0.0139(5)
H6B H 0.5140 -0.1753 0.0928
C9B C 0.5395(4) -0.2370(3) 0.0095(5)
H7B H 0.5339 -0.2620 0.0856
C10B C 0.5286(3) -0.0878(2) -0.0922(4)
loop_
_geom_bond_atom_site_label_1
_geom_bond_atom_site_label_2
_geom_bond_site_symmetry_1
_geom_bond_site_symmetry_2
Cu1 N1 1_555 1_555
O1 C10 1_555 1_555
O2 C10 1_555 1_555
N1 C1 1_555 1_555
N2 C2 1_555 1_555
C1 H1 1_555 1_555
C2 C1 1_555 1_555
H2 C2 1_555 1_555
C3 N1 1_555 1_555
H3 C3 1_555 1_555
C4 N2 1_555 1_555
C5 C4 1_555 1_555
H4 C5 1_555 1_555
C6 C5 1_555 1_555
H5 C6 1_555 1_555
C7 C6 1_555 1_555
C8 C7 1_555 1_555
H6 C8 1_555 1_555
C9 C4 1_555 1_555
H7 C9 1_555 1_555
C10 C7 1_555 1_555
Cu1A O1 1_555 1_555
Cu1B N1B 1_555 1_555
O1B Cu1 1_555 1_555
O1K Cu1 1_555 1_555
O2B Cu1 1_555 1_555
O2K Cu1 1_555 1_555
N1B C1B 1_555 1_555
N1I Cu1 1_555 1_555
N2B C2B 1_555 1_555
C1B H1B 1_555 1_555
C2B C1B 1_555 1_555
H2B C2B 1_555 1_555
C3B N1B 1_555 1_555
H3B C3B 1_555 1_555
C4B N2B 1_555 1_555
C5B C4B 1_555 1_555
H4B C5B 1_555 1_555
C6B C5B 1_555 1_555
H5B C6B 1_555 1_555
C7B C6B 1_555 1_555
C8B C7B 1_555 1_555
H6B C8B 1_555 1_555
C9B C4B 1_555 1_555
H7B C9B 1_555 1_555
C10B O1B 1_555 1_555
O2 Cu1A 1_555 1_555
N2 C3 1_555 1_555
C8 C9 1_555 1_555
O2B C10B 1_555 1_555
N2B C3B 1_555 1_555
C7B C10B 1_555 1_555
C8B C9B 1_555 1_555

#END
