
#######################################################################
#
#                 Cambridge Crystallographic Data Centre
#                                CCDC 
#
#######################################################################
#
# If this CIF has been generated from an entry in the Cambridge 
# Structural Database, then it will include bibliographic, chemical, 
# crystal, experimental, refinement or atomic coordinate data resulting 
# from the CCDC's data processing and validation procedures.
#
#######################################################################

data_SUGWEX
_symmetry_cell_setting           rhombohedral
_symmetry_space_group_name_H-M   'R -3'
_symmetry_Int_Tables_number      148
_space_group_name_Hall           '-R 3'
loop_
_symmetry_equiv_pos_site_id
_symmetry_equiv_pos_as_xyz
1 x,y,z
2 -y,x-y,z
3 -x+y,-x,z
4 2/3+x,1/3+y,1/3+z
5 2/3-y,1/3+x-y,1/3+z
6 2/3-x+y,1/3-x,1/3+z
7 1/3+x,2/3+y,2/3+z
8 1/3-y,2/3+x-y,2/3+z
9 1/3-x+y,2/3-x,2/3+z
10 -x,-y,-z
11 y,-x+y,-z
12 x-y,x,-z
13 1/3-x,2/3-y,2/3-z
14 1/3+y,2/3-x+y,2/3-z
15 1/3+x-y,2/3+x,2/3-z
16 2/3-x,1/3-y,1/3-z
17 2/3+y,1/3-x+y,1/3-z
18 2/3+x-y,1/3+x,1/3-z
_cell_length_a                   23.5358(10)
_cell_length_b                   23.5358(10)
_cell_length_c                   10.1078(9)
_cell_angle_alpha                90
_cell_angle_beta                 90
_cell_angle_gamma                120
_cell_volume                     4848.92
loop_
_atom_site_label
_atom_site_type_symbol
_atom_site_fract_x
_atom_site_fract_y
_atom_site_fract_z
Cu1 Cu -0.1667 0.6667 0.1667
N1 N -0.12223(13) 0.25678(13) 0.0923(3)
N2 N -0.10105(13) 0.35764(13) 0.0544(3)
C1 C -0.04995(17) 0.35226(16) 0.0015(4)
H1 H -0.0134 0.3848 -0.0424
C2 C -0.14328(16) 0.29899(16) 0.1081(4)
H2 H -0.1821 0.2894 0.1507
C3 C -0.09728(18) 0.45222(18) -0.0515(4)
H3 H -0.0833 0.4423 -0.1297
C4 C -0.06335(17) 0.29074(16) 0.0260(4)
H4 H -0.0368 0.2736 0.0018
C5 C -0.10845(16) 0.41434(16) 0.0588(3)
C6 C -0.1266(2) 0.4302(2) 0.1761(4)
H5 H -0.1315 0.4059 0.2522
O1 O -0.16745(10) 0.58313(11) 0.1792(2)
O2 O -0.11989(12) 0.61859(12) -0.0168(2)
C7 C -0.12815(15) 0.52080(16) 0.0691(3)
C8 C -0.13846(16) 0.57853(16) 0.0750(4)
C9 C -0.10702(18) 0.50553(18) -0.0455(4)
H6 H -0.0991 0.5315 -0.1202
C10 C -0.1377(2) 0.48260(19) 0.1797(4)
H7 H -0.1518 0.4923 0.2580
Cu1B Cu -0.1666 0.1667 0.1667
Cu1B_2 Cu -0.1666 1.1667 0.1667
N1A N -0.25678(13) 0.62099(18) 0.0923(3)
N1P N -0.07655(13) 0.71234(18) 0.2410(3)
N1O N -0.21110(13) 1.07655(13) 0.2410(3)
N2O N -0.23228(13) 0.97569(13) 0.2789(3)
C1O C -0.28338(17) 0.98107(16) 0.3318(4)
H1O H -0.3199 0.9485 0.3757
C2O C -0.19005(16) 1.03434(16) 0.2252(4)
H2O H -0.1512 1.0439 0.1826
C3O C -0.23605(18) 0.88111(18) 0.3848(4)
H3O H -0.2500 0.8910 0.4630
C4O C -0.26998(17) 1.04259(16) 0.3073(4)
H4O H -0.2965 1.0597 0.3315
C5O C -0.22488(16) 0.91899(16) 0.2745(3)
C6O C -0.2067(2) 0.9031(2) 0.1572(4)
H5O H -0.2018 0.9274 0.0811
O1O O -0.16588(10) 0.75020(11) 0.1541(2)
O2O O -0.21344(12) 0.71474(12) 0.3501(2)
C7O C -0.20518(15) 0.81253(16) 0.2642(3)
C8O C -0.19487(16) 0.75480(16) 0.2583(4)
C9O C -0.22631(18) 0.82780(18) 0.3788(4)
H6O H -0.2342 0.8018 0.4535
C10O C -0.1956(2) 0.85073(19) 0.1536(4)
H7O H -0.1815 0.8410 0.0753
loop_
_geom_bond_atom_site_label_1
_geom_bond_atom_site_label_2
_geom_bond_site_symmetry_1
_geom_bond_site_symmetry_2
Cu1 O1 1_555 1_555
N1 C2 1_555 1_555
N2 C1 1_555 1_555
C1 H1 1_555 1_555
C2 N2 1_555 1_555
H2 C2 1_555 1_555
C3 H3 1_555 1_555
C4 N1 1_555 1_555
H4 C4 1_555 1_555
C5 N2 1_555 1_555
C6 C5 1_555 1_555
H5 C6 1_555 1_555
O1 C8 1_555 1_555
O2 C8 1_555 1_555
C7 C8 1_555 1_555
C9 C3 1_555 1_555
H6 C9 1_555 1_555
C10 C6 1_555 1_555
H7 C10 1_555 1_555
Cu1B N1 1_555 1_555
Cu1B_2 N1O 1_555 1_555
N1A Cu1 1_555 1_555
N1P Cu1 1_555 1_555
N1O C2O 1_555 1_555
N2O C1O 1_555 1_555
C1O H1O 1_555 1_555
C2O N2O 1_555 1_555
H2O C2O 1_555 1_555
C3O H3O 1_555 1_555
C4O N1O 1_555 1_555
H4O C4O 1_555 1_555
C5O N2O 1_555 1_555
C6O C5O 1_555 1_555
H5O C6O 1_555 1_555
O1O Cu1 1_555 1_555
O2O C8O 1_555 1_555
C7O C8O 1_555 1_555
C8O O1O 1_555 1_555
C9O C3O 1_555 1_555
H6O C9O 1_555 1_555
C10O C6O 1_555 1_555
H7O C10O 1_555 1_555
C1 C4 1_555 1_555
C3 C5 1_555 1_555
C7 C9 1_555 1_555
C7 C10 1_555 1_555
C1O C4O 1_555 1_555
C3O C5O 1_555 1_555
C7O C9O 1_555 1_555
C7O C10O 1_555 1_555

#END
