
#######################################################################
#
#                 Cambridge Crystallographic Data Centre
#                                CCDC 
#
#######################################################################
#
# If this CIF has been generated from an entry in the Cambridge 
# Structural Database, then it will include bibliographic, chemical, 
# crystal, experimental, refinement or atomic coordinate data resulting 
# from the CCDC's data processing and validation procedures.
#
#######################################################################

data_SUHHOT
_symmetry_cell_setting           triclinic
_symmetry_space_group_name_H-M   'P 1'
_symmetry_Int_Tables_number      1
_space_group_name_Hall           'P 1'
loop_
_symmetry_equiv_pos_site_id
_symmetry_equiv_pos_as_xyz
1 x,y,z
_cell_length_a                   6.1308(11)
_cell_length_b                   7.458(1)
_cell_length_c                   12.457(2)
_cell_angle_alpha                74.662(1)
_cell_angle_beta                 88.835(3)
_cell_angle_gamma                89.304(2)
_cell_volume                     549.164
loop_
_atom_site_label
_atom_site_type_symbol
_atom_site_fract_x
_atom_site_fract_y
_atom_site_fract_z
C1 C 0.8099(17) 0.5257(14) 0.4169(8)
C2 C 0.988(2) 0.6686(15) 0.4168(11)
H1 H 1.1303 0.6087 0.4137
C3 C 0.9672(17) 0.7148(17) 0.5241(9)
H2 H 1.0192 0.6083 0.5826
C4 C 1.0980(16) 0.8838(14) 0.5281(8)
C5 C 0.5386(16) 0.0906(15) 0.2816(9)
C6 C 0.361(2) 0.2229(16) 0.2822(10)
H3 H 0.2202 0.1609 0.2851
C7 C 0.3845(15) 0.3780(13) 0.1717(8)
H4 H 0.3282 0.3315 0.1111
C8 C 0.2597(18) 0.5414(15) 0.1775(9)
C9 C 0.4689(17) -0.3571(15) 0.7751(8)
C10 C 0.3333(15) -0.4475(16) 0.8714(8)
H5 H 0.3406 -0.3738 0.9257
C11 C 0.0948(15) -0.4521(15) 0.8381(8)
H6 H 0.0609 -0.3334 0.7846
C12 C -0.0673(17) -0.4758(15) 0.9425(8)
La1 La 0.59642(7) 0.06944(6) 0.55339(4)
La2 La 0.74893(7) 0.74611(6) 0.15006(4)
O1 O 0.8035(11) 0.3745(10) 0.4987(6)
O2 O 0.6673(13) 0.5660(10) 0.3475(6)
O3 O 0.9686(11) 0.8122(9) 0.3229(5)
H7 H 0.9065 0.9023 0.3415
O4 O 0.7413(11) 0.7451(10) 0.5459(6)
H8 H 0.7301 0.7642 0.6101
O5 O 1.0089(11) 1.0126(11) 0.5550(7)
O6 O 1.3011(11) 0.8831(11) 0.5099(6)
O7 O 0.6853(11) 0.0562(10) 0.3622(5)
O8 O 0.5533(12) 0.0042(10) 0.1986(7)
O9 O 0.3867(11) 0.2877(10) 0.3821(6)
H9 H 0.4498 0.3925 0.3639
O10 O 0.6132(11) 0.4247(10) 0.1484(6)
H10 H 0.6420 0.4099 0.0842
O11 O 0.3411(12) 0.7040(11) 0.1484(6)
O12 O 0.0440(11) 0.5152(9) 0.2023(6)
O13 O 0.4502(11) -0.1908(10) 0.7334(5)
O14 O 0.5837(12) -0.4520(11) 0.7275(6)
O15 O 0.3801(13) -0.6285(11) 0.9253(6)
H11 H 0.4678 -0.6660 0.8854
O16 O 0.0771(13) -0.5900(11) 0.7850(6)
H12 H 0.1189 -0.6882 0.8268
O17 O -0.0900(12) -0.3289(10) 0.9692(5)
O18 O -0.1313(11) -0.6311(11) 0.9856(6)
O19 O 0.2995(10) 0.2676(8) 0.6121(5)
H13 H 0.2942 0.2449 0.6826
H14 H 0.1776 0.2416 0.5888
O20 O 0.7025(11) 0.1552(9) 0.7354(5)
H15 H 0.5858 0.1958 0.7589
H16 H 0.7866 0.2482 0.7143
O21 O 0.5844(11) 0.9723(10) -0.0315(6)
H17 H 0.4898 1.0437 -0.0133
H18 H 0.6850 1.0372 -0.0706
O22 O 1.0376(11) 1.0013(9) 0.0802(5)
H19 H 1.0108 1.0915 0.1083
H20 H 1.1630 0.9563 0.1001
La1_2 La 0.59642(7) 1.06944(6) 0.55339(4)
La1_3 La 1.59642(7) 1.06944(6) 0.55339(4)
La2_2 La 0.74893(7) -0.25389(6) 0.15006(4)
La2_3 La -0.25107(7) 0.74611(6) 0.15006(4)
La2_4 La -0.25107(7) -0.25389(6) 1.15006(4)
O4_2 O 0.7413(11) -0.2549(10) 0.5459(6)
H8_2 H 0.7301 -0.2358 0.6101
O5_2 O 1.0089(11) 0.0126(11) 0.5550(7)
O6_2 O 0.3011(11) -0.1169(11) 0.5099(6)
O8_2 O 0.5533(12) 1.0042(10) 0.1986(7)
O12_2 O 1.0440(11) 0.5152(9) 0.2023(6)
O17_2 O 0.9100(12) 0.6711(10) -0.0308(5)
O23 O 0.1112(11) -0.0003(9) 0.8356(5)
H21 H 0.1574 0.0159 0.8962
H22 H -0.0246 0.0239 0.8306
loop_
_geom_bond_atom_site_label_1
_geom_bond_atom_site_label_2
_geom_bond_site_symmetry_1
_geom_bond_site_symmetry_2
C1 C2 1_555 1_555
C2 H1 1_555 1_555
C3 C2 1_555 1_555
H2 C3 1_555 1_555
C4 C3 1_555 1_555
C5 C6 1_555 1_555
C6 H3 1_555 1_555
C7 C6 1_555 1_555
H4 C7 1_555 1_555
C8 C7 1_555 1_555
C9 C10 1_555 1_555
C10 H5 1_555 1_555
C11 C10 1_555 1_555
H6 C11 1_555 1_555
C12 C11 1_555 1_555
La1 O1 1_555 1_555
La2 O2 1_555 1_555
O1 C1 1_555 1_555
O2 C1 1_555 1_555
O3 C2 1_555 1_555
H7 O3 1_555 1_555
O4 C3 1_555 1_555
H8 O4 1_555 1_555
O5 C4 1_555 1_555
O6 C4 1_555 1_555
O7 C5 1_555 1_555
O8 C5 1_555 1_555
O9 C6 1_555 1_555
H9 O9 1_555 1_555
O10 C7 1_555 1_555
H10 O10 1_555 1_555
O11 C8 1_555 1_555
O12 C8 1_555 1_555
O13 C9 1_555 1_555
O14 C9 1_555 1_555
O15 C10 1_555 1_555
H11 O15 1_555 1_555
O16 C11 1_555 1_555
H12 O16 1_555 1_555
O17 C12 1_555 1_555
O18 C12 1_555 1_555
O19 La1 1_555 1_555
H13 O19 1_555 1_555
H14 O19 1_555 1_555
O20 La1 1_555 1_555
H15 O20 1_555 1_555
H16 O20 1_555 1_555
O21 La2 1_555 1_555
H17 O21 1_555 1_555
H18 O21 1_555 1_555
O22 La2 1_555 1_555
H19 O22 1_555 1_555
H20 O22 1_555 1_555
O23 H21 1_555 1_555
H22 O23 1_555 1_555
La1_2 O4 1_555 1_555
La1_3 O6 1_555 1_555
La2_2 O8 1_555 1_555
La2_3 O12 1_555 1_555
La2_4 O17 1_555 1_555
O4_2 La1 1_555 1_555
H8_2 O4_2 1_555 1_555
O5_2 La1 1_555 1_555
O6_2 La1 1_555 1_555
O8_2 La2 1_555 1_555
O12_2 La2 1_555 1_555
O17_2 La2 1_555 1_555
La1 O7 1_555 1_555
La1 O9 1_555 1_555
La1 O13 1_555 1_555
La2 O3 1_555 1_555
La2 O10 1_555 1_555
La2 O11 1_555 1_555
O5 La1_2 1_555 1_555

#END
