
#######################################################################
#
#                 Cambridge Crystallographic Data Centre
#                                CCDC 
#
#######################################################################
#
# If this CIF has been generated from an entry in the Cambridge 
# Structural Database, then it will include bibliographic, chemical, 
# crystal, experimental, refinement or atomic coordinate data resulting 
# from the CCDC's data processing and validation procedures.
#
#######################################################################

data_SUHMEP
_symmetry_cell_setting           trigonal
_symmetry_space_group_name_H-M   'P -3 c 1'
_symmetry_Int_Tables_number      165
_space_group_name_Hall           '-P 3 2"c'
loop_
_symmetry_equiv_pos_site_id
_symmetry_equiv_pos_as_xyz
1 x,y,z
2 -y,x-y,z
3 -x+y,-x,z
4 y,x,1/2-z
5 x-y,-y,1/2-z
6 -x,-x+y,1/2-z
7 -x,-y,-z
8 y,-x+y,-z
9 x-y,x,-z
10 -y,-x,1/2+z
11 -x+y,y,1/2+z
12 x,x-y,1/2+z
_cell_length_a                   13.809
_cell_length_b                   13.809
_cell_length_c                   30.004
_cell_angle_alpha                90
_cell_angle_beta                 90
_cell_angle_gamma                120
_cell_volume                     4954.89
loop_
_atom_site_label
_atom_site_type_symbol
_atom_site_fract_x
_atom_site_fract_y
_atom_site_fract_z
Co1 Co 0.64226(4) 0.09780(4) 0.462948(16)
Co2 Co 0.6667 0.3333 0.42564(3)
Co3 Co 0.6667 0.3333 0.56486(3)
P1 P 0.47785(9) 0.15884(8) 0.50138(3)
Cl1 Cl 0.6667 0.3333 0.64154(7)
O1 O 0.5675(2) 0.1895(2) 0.46468(9)
O2 O 0.7008(3) 0.2334(3) 0.38245(10)
O3 O 0.6297(3) 0.0543(3) 0.40001(9)
C1 C 0.6382(4) 0.0999(4) 0.32393(14)
O4 O 0.4009(2) 0.0327(2) 0.50050(10)
C2 C 0.6577(4) 0.1326(4) 0.37229(14)
O5 O 0.4083(3) 0.2138(3) 0.49064(12)
C3 C 0.5805(4) -0.0096(4) 0.31176(14)
H1 H 0.5523 -0.0644 0.3337
O6 O 0.5353(3) 0.1965(3) 0.54655(10)
C4 C 0.6797(4) 0.1843(4) 0.29080(14)
H2 H 0.7195 0.2592 0.2990
C5 C 0.5624(4) -0.0419(4) 0.26668(13)
C6 C 0.6614(4) 0.1558(4) 0.24680(15)
H3 H 0.6866 0.2118 0.2253
O2D O 0.4674(4) -0.2334(3) 0.11755(10)
O3D O 0.5754(4) -0.0543(3) 0.09999(9)
C1D C 0.5383(6) -0.0999(4) 0.17607(14)
C2D C 0.5251(6) -0.1326(4) 0.12771(14)
C3D C 0.5901(6) 0.0096(4) 0.18824(14)
H1D H 0.6167 0.0644 0.1663
C4D C 0.4954(6) -0.1843(4) 0.20920(14)
H2D H 0.4603 -0.2592 0.2010
C5D C 0.6043(6) 0.0419(4) 0.23332(13)
C6D C 0.5056(6) -0.1558(4) 0.25320(15)
H3D H 0.4748 -0.2118 0.2747
Co1A Co 0.90220(4) 0.54446(6) 0.462948(16)
P1A P 0.84116(8) 0.31901(12) 0.50138(3)
O1A O 0.8105(2) 0.3780(3) 0.46468(9)
O2A O 0.7666(3) 0.4674(4) 0.38245(10)
O3A O 0.9457(3) 0.5754(4) 0.40001(9)
C1A C 0.9001(4) 0.5383(6) 0.32393(14)
O4A O 0.9673(2) 0.3682(3) 0.50050(10)
C2A C 0.8674(4) 0.5251(6) 0.37229(14)
O5A O 0.7862(3) 0.1945(4) 0.49064(12)
C3A C 1.0096(4) 0.5901(6) 0.31176(14)
H1A H 1.0644 0.6167 0.3337
O6A O 0.8035(3) 0.3388(4) 0.54655(10)
C4A C 0.8157(4) 0.4954(6) 0.29080(14)
H2A H 0.7408 0.4603 0.2990
C5A C 1.0419(4) 0.6043(6) 0.26668(13)
C6A C 0.8442(4) 0.5056(6) 0.24680(15)
H3A H 0.7882 0.4748 0.2253
O2C O 1.2334(3) 0.7008(3) 0.11755(10)
O3C O 1.0543(3) 0.6297(3) 0.09999(9)
C1C C 1.0999(4) 0.6382(4) 0.17607(14)
C2C C 1.1326(4) 0.6577(4) 0.12771(14)
C3C C 0.9904(4) 0.5805(4) 0.18824(14)
H1C H 0.9356 0.5523 0.1663
C4C C 1.1843(4) 0.6797(4) 0.20920(14)
H2C H 1.2592 0.7195 0.2010
C5C C 0.9581(4) 0.5624(4) 0.23332(13)
C6C C 1.1558(4) 0.6614(4) 0.25320(15)
H3C H 1.2118 0.6866 0.2747
Co1B Co 0.45554(6) 0.35774(4) 0.462948(16)
P1B P 0.68099(12) 0.52215(9) 0.50138(3)
O1B O 0.6220(3) 0.4325(2) 0.46468(9)
O2B O 0.5326(4) 0.2992(3) 0.38245(10)
O3B O 0.4246(4) 0.3703(3) 0.40001(9)
C1B C 0.4617(6) 0.3618(4) 0.32393(14)
O4B O 0.6318(3) 0.5991(2) 0.50050(10)
C2B C 0.4749(6) 0.3423(4) 0.37229(14)
O5B O 0.8055(4) 0.5917(3) 0.49064(12)
C3B C 0.4099(6) 0.4195(4) 0.31176(14)
H1B H 0.3833 0.4477 0.3337
O6B O 0.6612(4) 0.4647(3) 0.54655(10)
C4B C 0.5046(6) 0.3203(4) 0.29080(14)
H2B H 0.5397 0.2805 0.2990
C5B C 0.3957(6) 0.4376(4) 0.26668(13)
C6B C 0.4944(6) 0.3386(4) 0.24680(15)
H3B H 0.5252 0.3134 0.2253
O2E O 0.2992(3) 0.5326(4) 0.11755(10)
O3E O 0.3703(3) 0.4246(4) 0.09999(9)
C1E C 0.3618(4) 0.4617(6) 0.17607(14)
C2E C 0.3423(4) 0.4749(6) 0.12771(14)
C3E C 0.4195(4) 0.4099(6) 0.18824(14)
H1E H 0.4477 0.3833 0.1663
C4E C 0.3203(4) 0.5046(6) 0.20920(14)
H2E H 0.2805 0.5397 0.2010
C5E C 0.4376(4) 0.3957(6) 0.23332(13)
C6E C 0.3386(4) 0.4944(6) 0.25320(15)
H3E H 0.3134 0.5252 0.2747
Co1F Co 0.35774(4) -0.09780(4) 0.537052(16)
Co2F Co 0.3333 -0.3333 0.57436(3)
Co3F Co 0.3333 -0.3333 0.43514(3)
P1F P 0.52215(9) -0.15884(8) 0.49862(3)
Cl1F Cl 0.3333 -0.3333 0.35846(7)
O1F O 0.4325(2) -0.1895(2) 0.53532(9)
O4F O 0.5991(2) -0.0327(2) 0.49950(10)
O5F O 0.5917(3) -0.2138(3) 0.50936(12)
O6F O 0.4647(3) -0.1965(3) 0.45345(10)
Co1G Co 0.09780(4) -0.54446(6) 0.537052(16)
P1G P 0.15884(8) -0.31901(12) 0.49862(3)
O1G O 0.1895(2) -0.3780(3) 0.53532(9)
O4G O 0.0327(2) -0.3682(3) 0.49950(10)
O5G O 0.2138(3) -0.1945(4) 0.50936(12)
O6G O 0.1965(3) -0.3388(4) 0.45345(10)
Co1H Co 0.54446(6) -0.35774(4) 0.537052(16)
P1H P 0.31901(12) -0.52215(9) 0.49862(3)
O1H O 0.3780(3) -0.4325(2) 0.53532(9)
O4H O 0.3682(3) -0.5991(2) 0.49950(10)
O5H O 0.1945(4) -0.5917(3) 0.50936(12)
O6H O 0.3388(4) -0.4647(3) 0.45345(10)
Co1A_2 Co -0.09780(4) -0.45554(6) 0.462948(16)
Co1B_2 Co 0.45554(6) -0.64226(4) 0.462948(16)
Co1C Co 1.09780(4) 0.64226(4) 0.037052(16)
Co1D Co 0.54446(6) -0.09780(4) 0.037052(16)
Co1E Co 0.35774(4) 0.45554(6) 0.037052(16)
Co1G_2 Co 1.09780(4) 0.45554(6) 0.537052(16)
Co1H_2 Co 0.54446(6) 0.64226(4) 0.537052(16)
Co2C Co 0.3333 -0.3333 0.07436(3)
Co2C_2 Co 0.3333 0.6667 0.07436(3)
Co2C_3 Co 1.3333 0.6667 0.07436(3)
O2F O 0.2992(3) -0.2334(3) 0.61755(10)
O2G O 0.2334(3) -0.4674(4) 0.61755(10)
O2H O 0.4674(4) -0.2992(3) 0.61755(10)
O3F O 0.3703(3) -0.0543(3) 0.59999(9)
O3G O 0.0543(3) -0.5754(4) 0.59999(9)
O3H O 0.5754(4) -0.3703(3) 0.59999(9)
O4A_2 O -0.0327(2) -0.6318(3) 0.50050(10)
O4B_2 O 0.6318(3) -0.4009(2) 0.50050(10)
O4G_2 O 1.0327(2) 0.6318(3) 0.49950(10)
O4H_2 O 0.3682(3) 0.4009(2) 0.49950(10)
C7 C 1.0447(9) 0.3981(8) 0.3955(3)
H4 H 1.1081 0.4731 0.3923
H5 H 0.9869 0.4025 0.4122
N1 N 1.0780(9) 0.3290(8) 0.4185(2)
H6 H 1.1033 0.3577 0.4461
N2 N 1.0106(11) 0.2462(11) 0.3441(4)
H7 H 0.9895 0.2179 0.3161
C8 C 1.1299(10) 0.2742(16) 0.3538(5)
H8 H 1.1334 0.2058 0.3551
H9 H 1.1788 0.3203 0.3301
C9 C 1.1653(9) 0.3304(14) 0.3938(4)
H10 H 1.2220 0.4073 0.3881
H11 H 1.1993 0.2965 0.4115
C10 C 1.001(2) 0.3482(16) 0.3503(8)
H12 H 0.9235 0.3289 0.3475
H13 H 1.0436 0.4025 0.3273
C11 C 0.985(2) 0.2109(15) 0.4227(8)
H14 H 0.9219 0.2088 0.4374
H15 H 1.0100 0.1686 0.4405
C12 C 0.9522(13) 0.1606(13) 0.3775(8)
H16 H 0.9706 0.1018 0.3741
H17 H 0.8721 0.1279 0.3737
loop_
_geom_bond_atom_site_label_1
_geom_bond_atom_site_label_2
_geom_bond_site_symmetry_1
_geom_bond_site_symmetry_2
Co1 O1 1_555 1_555
Co2 O1 1_555 1_555
Co3 Cl1 1_555 1_555
P1 O1 1_555 1_555
O2 Co2 1_555 1_555
O3 Co1 1_555 1_555
C1 C2 1_555 1_555
O4 P1 1_555 1_555
C2 O2 1_555 1_555
O5 P1 1_555 1_555
C3 C1 1_555 1_555
H1 C3 1_555 1_555
O6 Co3 1_555 1_555
C4 C1 1_555 1_555
H2 C4 1_555 1_555
C5 C3 1_555 1_555
C6 C4 1_555 1_555
H3 C6 1_555 1_555
C7 H4 1_555 1_555
H5 C7 1_555 1_555
N1 C7 1_555 1_555
H6 N1 1_555 1_555
N2 H7 1_555 1_555
C8 N2 1_555 1_555
H8 C8 1_555 1_555
H9 C8 1_555 1_555
C9 N1 1_555 1_555
H10 C9 1_555 1_555
H11 C9 1_555 1_555
C10 C7 1_555 1_555
H12 C10 1_555 1_555
H13 C10 1_555 1_555
C11 N1 1_555 1_555
H14 C11 1_555 1_555
H15 C11 1_555 1_555
C12 N2 1_555 1_555
H16 C12 1_555 1_555
H17 C12 1_555 1_555
O2D C2D 1_555 1_555
O3D C2D 1_555 1_555
C1D C2D 1_555 1_555
C3D C1D 1_555 1_555
H1D C3D 1_555 1_555
C4D C1D 1_555 1_555
H2D C4D 1_555 1_555
C5D C5 1_555 1_555
C6D C5 1_555 1_555
H3D C6D 1_555 1_555
Co1A O1A 1_555 1_555
P1A O1A 1_555 1_555
O1A Co2 1_555 1_555
O2A Co2 1_555 1_555
O3A Co1A 1_555 1_555
C1A C2A 1_555 1_555
O4A P1A 1_555 1_555
C2A O2A 1_555 1_555
O5A Co1 1_555 1_555
C3A C1A 1_555 1_555
H1A C3A 1_555 1_555
O6A Co3 1_555 1_555
C4A C1A 1_555 1_555
H2A C4A 1_555 1_555
C5A C3A 1_555 1_555
C6A C4A 1_555 1_555
H3A C6A 1_555 1_555
O2C C2C 1_555 1_555
O3C C2C 1_555 1_555
C1C C2C 1_555 1_555
C3C C1C 1_555 1_555
H1C C3C 1_555 1_555
C4C C1C 1_555 1_555
H2C C4C 1_555 1_555
C5C C5A 1_555 1_555
C6C C5A 1_555 1_555
H3C C6C 1_555 1_555
Co1B O5 1_555 1_555
P1B O1B 1_555 1_555
O1B Co2 1_555 1_555
O2B Co2 1_555 1_555
O3B Co1B 1_555 1_555
C1B C2B 1_555 1_555
O4B P1B 1_555 1_555
C2B O2B 1_555 1_555
O5B Co1A 1_555 1_555
C3B C1B 1_555 1_555
H1B C3B 1_555 1_555
O6B Co3 1_555 1_555
C4B C1B 1_555 1_555
H2B C4B 1_555 1_555
C5B C3B 1_555 1_555
C6B C4B 1_555 1_555
H3B C6B 1_555 1_555
O2E C2E 1_555 1_555
O3E C2E 1_555 1_555
C1E C2E 1_555 1_555
C3E C1E 1_555 1_555
H1E C3E 1_555 1_555
C4E C1E 1_555 1_555
H2E C4E 1_555 1_555
C5E C5B 1_555 1_555
C6E C5B 1_555 1_555
H3E C6E 1_555 1_555
Co1F O4 1_555 1_555
Co2F O1F 1_555 1_555
Co3F Cl1F 1_555 1_555
P1F O1F 1_555 1_555
O1F Co1F 1_555 1_555
O4F Co1 1_555 1_555
O5F P1F 1_555 1_555
O6F Co3F 1_555 1_555
Co1G O1G 1_555 1_555
P1G O1G 1_555 1_555
O1G Co2F 1_555 1_555
O4G P1G 1_555 1_555
O5G Co1F 1_555 1_555
O6G Co3F 1_555 1_555
Co1H O5F 1_555 1_555
P1H O1H 1_555 1_555
O1H Co2F 1_555 1_555
O4H P1H 1_555 1_555
O5H Co1G 1_555 1_555
O6H Co3F 1_555 1_555
Co1A_2 O4G 1_555 1_555
Co1B_2 O4H 1_555 1_555
Co1C O3C 1_555 1_555
Co1D O3D 1_555 1_555
Co1E O3E 1_555 1_555
Co1G_2 O4A 1_555 1_555
Co1H_2 O4B 1_555 1_555
Co2C O2D 1_555 1_555
Co2C_2 O2E 1_555 1_555
Co2C_3 O2C 1_555 1_555
O2F Co2F 1_555 1_555
O2G Co2F 1_555 1_555
O2H Co2F 1_555 1_555
O3F Co1F 1_555 1_555
O3G Co1G 1_555 1_555
O3H Co1H 1_555 1_555
O4A_2 Co1G 1_555 1_555
O4B_2 Co1H 1_555 1_555
O4G_2 Co1A 1_555 1_555
O4H_2 Co1B 1_555 1_555
P1 O6 1_555 1_555
O3 C2 1_555 1_555
C6 C5D 1_555 1_555
N2 C10 1_555 1_555
C8 C9 1_555 1_555
C11 C12 1_555 1_555
C3D C5D 1_555 1_555
C4D C6D 1_555 1_555
P1A O5A 1_555 1_555
P1A O6A 1_555 1_555
O3A C2A 1_555 1_555
C6A C5C 1_555 1_555
C3C C5C 1_555 1_555
C4C C6C 1_555 1_555
Co1B O1B 1_555 1_555
P1B O5B 1_555 1_555
P1B O6B 1_555 1_555
O3B C2B 1_555 1_555
C6B C5E 1_555 1_555
C3E C5E 1_555 1_555
C4E C6E 1_555 1_555
P1F O4F 1_555 1_555
P1F O6F 1_555 1_555
P1G O5G 1_555 1_555
P1G O6G 1_555 1_555
Co1H O1H 1_555 1_555
P1H O5H 1_555 1_555
P1H O6H 1_555 1_555

#END
