
#######################################################################
#
#                 Cambridge Crystallographic Data Centre
#                                CCDC 
#
#######################################################################
#
# If this CIF has been generated from an entry in the Cambridge 
# Structural Database, then it will include bibliographic, chemical, 
# crystal, experimental, refinement or atomic coordinate data resulting 
# from the CCDC's data processing and validation procedures.
#
#######################################################################

data_SUHMAL
_symmetry_cell_setting           monoclinic
_symmetry_space_group_name_H-M   'P 21/c'
_symmetry_Int_Tables_number      14
_space_group_name_Hall           '-P 2ybc'
loop_
_symmetry_equiv_pos_site_id
_symmetry_equiv_pos_as_xyz
1 x,y,z
2 -x,1/2+y,1/2-z
3 -x,-y,-z
4 x,1/2-y,1/2+z
_cell_length_a                   20.1740(16)
_cell_length_b                   9.7329(7)
_cell_length_c                   10.7371(7)
_cell_angle_alpha                90
_cell_angle_beta                 94.240(7)
_cell_angle_gamma                90
_cell_volume                     2102.48
loop_
_atom_site_label
_atom_site_type_symbol
_atom_site_fract_x
_atom_site_fract_y
_atom_site_fract_z
Co1 Co 0.44973(4) 0.32785(7) 0.09701(7)
P1 P 0.48621(7) 0.38040(15) -0.17362(12)
O1 O 0.4813(2) 0.2811(4) -0.0654(4)
O2 O 0.5422(2) 0.4830(4) -0.1495(4)
O3 O 0.4986(2) 0.3059(4) -0.2947(4)
O4 O 0.3546(2) 0.2936(5) 0.1021(5)
C1 C 0.2406(3) 0.3464(7) 0.0743(6)
C2 C 0.3096(3) 0.3544(6) 0.0327(7)
O5 O 0.3194(3) 0.4166(6) -0.0650(6)
C3 C 0.1131(4) 0.3416(9) 0.1572(7)
C4 C 0.2269(4) 0.2655(8) 0.1762(7)
H1 H 0.2604 0.2134 0.2172
C5 C -0.1485(4) 0.3417(11) 0.3352(8)
C6 C 0.1633(4) 0.2627(11) 0.2166(8)
H2 H 0.1542 0.2076 0.2839
C7 C 0.1904(3) 0.4260(9) 0.0131(8)
H3 H 0.1991 0.4796 -0.0555
C8 C 0.1268(4) 0.4234(10) 0.0568(9)
H4 H 0.0932 0.4773 0.0179
O6 O -0.1553(3) 0.4083(11) 0.4352(9)
O7 O 0.4196(2) 0.4618(5) -0.1945(4)
H5 H 0.3933 0.4342 -0.1455
O8 O -0.1946(4) 0.2951(19) 0.2826(11)
C9 C 0.0458(4) 0.3373(11) 0.2037(8)
C10 C -0.0818(4) 0.3400(10) 0.2897(7)
C11 C -0.0088(6) 0.3190(11) 0.1247(12)
H6 H -0.0037 0.3053 0.0402
C12 C -0.0730(6) 0.3200(12) 0.1669(13)
H7 H -0.1096 0.3068 0.1104
C13 C -0.0296(10) 0.3441(18) 0.368(2)
H8 H -0.0346 0.3450 0.4535
C14 C 0.0384(13) 0.347(2) 0.321(2)
H9 H 0.0755 0.3566 0.3776
Co1B Co 0.55027(4) 0.67215(7) -0.09701(7)
Co1C Co 0.44973(4) 0.17215(7) -0.40299(7)
O2B O 0.4578(2) 0.5170(4) 0.1495(4)
O3C O 0.4986(2) 0.1941(4) 0.2053(4)
N1 N 0.6135(3) 0.3853(6) 0.5965(6)
H10 H 0.5735 0.3809 0.6300
C15 C 0.7255(4) 0.4773(9) 0.6216(8)
H11 H 0.7351 0.5725 0.6034
H12 H 0.7606 0.4431 0.6800
C16 C 0.6397(4) 0.2425(8) 0.5828(8)
H13 H 0.6102 0.1901 0.5254
H14 H 0.6429 0.1961 0.6630
C17 C 0.6043(4) 0.4484(8) 0.4699(8)
H15 H 0.5865 0.5406 0.4755
H16 H 0.5737 0.3941 0.4163
C18 C 0.6719(4) 0.4524(9) 0.4179(7)
H17 H 0.6708 0.3985 0.3418
H18 H 0.6827 0.5464 0.3972
C19 C 0.7074(4) 0.2541(8) 0.5333(10)
H19 H 0.7406 0.2164 0.5938
H20 H 0.7084 0.2011 0.4569
C20 C 0.6600(5) 0.4683(12) 0.6797(8)
H21 H 0.6661 0.4255 0.7613
H22 H 0.6419 0.5597 0.6900
N2 N 0.7237(3) 0.3979(6) 0.5080(6)
H23 H 0.7639 0.4025 0.4750
loop_
_geom_bond_atom_site_label_1
_geom_bond_atom_site_label_2
_geom_bond_site_symmetry_1
_geom_bond_site_symmetry_2
Co1 O1 1_555 1_555
P1 O1 1_555 1_555
O2 P1 1_555 1_555
O3 P1 1_555 1_555
O4 Co1 1_555 1_555
C1 C2 1_555 1_555
C2 O4 1_555 1_555
O5 C2 1_555 1_555
C3 C6 1_555 1_555
C4 C1 1_555 1_555
H1 C4 1_555 1_555
C5 O6 1_555 1_555
C6 C4 1_555 1_555
H2 C6 1_555 1_555
C7 C1 1_555 1_555
H3 C7 1_555 1_555
C8 C3 1_555 1_555
H4 C8 1_555 1_555
O7 P1 1_555 1_555
H5 O7 1_555 1_555
O8 C5 1_555 1_555
C9 C3 1_555 1_555
C10 C5 1_555 1_555
C11 C9 1_555 1_555
H6 C11 1_555 1_555
C12 C10 1_555 1_555
H7 C12 1_555 1_555
C13 C10 1_555 1_555
H8 C13 1_555 1_555
C14 C9 1_555 1_555
H9 C14 1_555 1_555
N1 H10 1_555 1_555
C15 H11 1_555 1_555
H12 C15 1_555 1_555
C16 N1 1_555 1_555
H13 C16 1_555 1_555
H14 C16 1_555 1_555
C17 N1 1_555 1_555
H15 C17 1_555 1_555
H16 C17 1_555 1_555
C18 C17 1_555 1_555
H17 C18 1_555 1_555
H18 C18 1_555 1_555
C19 C16 1_555 1_555
H19 C19 1_555 1_555
H20 C19 1_555 1_555
C20 N1 1_555 1_555
H21 C20 1_555 1_555
H22 C20 1_555 1_555
N2 C15 1_555 1_555
H23 N2 1_555 1_555
Co1B O2 1_555 1_555
Co1C O3 1_555 1_555
O2B Co1 1_555 1_555
O3C Co1 1_555 1_555
C7 C8 1_555 1_555
C11 C12 1_555 1_555
C13 C14 1_555 1_555
C15 C20 1_555 1_555
C18 N2 1_555 1_555
C19 N2 1_555 1_555

#END
