
#######################################################################
#
#                 Cambridge Crystallographic Data Centre
#                                CCDC 
#
#######################################################################
#
# If this CIF has been generated from an entry in the Cambridge 
# Structural Database, then it will include bibliographic, chemical, 
# crystal, experimental, refinement or atomic coordinate data resulting 
# from the CCDC's data processing and validation procedures.
#
#######################################################################

data_SUHMIS
_symmetry_cell_setting           rhombohedral
_symmetry_space_group_name_H-M   'R -3'
_symmetry_Int_Tables_number      148
_space_group_name_Hall           '-R 3'
loop_
_symmetry_equiv_pos_site_id
_symmetry_equiv_pos_as_xyz
1 x,y,z
2 -y,x-y,z
3 -x+y,-x,z
4 2/3+x,1/3+y,1/3+z
5 2/3-y,1/3+x-y,1/3+z
6 2/3-x+y,1/3-x,1/3+z
7 1/3+x,2/3+y,2/3+z
8 1/3-y,2/3+x-y,2/3+z
9 1/3-x+y,2/3-x,2/3+z
10 -x,-y,-z
11 y,-x+y,-z
12 x-y,x,-z
13 1/3-x,2/3-y,2/3-z
14 1/3+y,2/3-x+y,2/3-z
15 1/3+x-y,2/3+x,2/3-z
16 2/3-x,1/3-y,1/3-z
17 2/3+y,1/3-x+y,1/3-z
18 2/3+x-y,1/3+x,1/3-z
_cell_length_a                   19.6808(16)
_cell_length_b                   19.6808(16)
_cell_length_c                   14.2153(12)
_cell_angle_alpha                90
_cell_angle_beta                 90
_cell_angle_gamma                120
_cell_volume                     4768.39
loop_
_atom_site_label
_atom_site_type_symbol
_atom_site_fract_x
_atom_site_fract_y
_atom_site_fract_z
Cu1 Cu 0.41511(2) 0.45181(2) 0.56181(3)
N1 N 0.50555(16) 0.54746(16) 0.6124(2)
N2 N 0.57446(16) 0.58559(16) 0.5614(2)
N3 N 0.58863(16) 0.65537(15) 0.68949(19)
C1 C 0.5169(2) 0.5912(2) 0.6886(2)
C2 C 0.4580(2) 0.5705(2) 0.7655(3)
H1 H 0.4098 0.5213 0.7479
H2 H 0.4791 0.5598 0.8233
C3 C 0.4365(4) 0.6297(4) 0.7870(5)
H3 H 0.3996 0.6119 0.8400
H4 H 0.4116 0.6380 0.7319
H5 H 0.4836 0.6791 0.8038
C4 C 0.62216(19) 0.64947(18) 0.6097(2)
C5 C 0.7031(2) 0.7082(2) 0.5798(3)
H6 H 0.7072 0.7602 0.5742
H7 H 0.7135 0.6935 0.5170
C6 C 0.7644(3) 0.7138(4) 0.6479(4)
H8 H 0.8166 0.7532 0.6256
H9 H 0.7615 0.6628 0.6525
H10 H 0.7549 0.7291 0.7100
Cu1I Cu 0.58489(2) 0.54819(2) 0.43819(3)
Cu1Q Cu 0.62997(3) 0.74844(2) 0.77152(3)
N2I N 0.42554(16) 0.41441(16) 0.4386(2)
N3P N 0.32204(15) 0.40007(22) 0.64384(19)
C7 C 0.605(5) 0.463(5) 0.710(6)
H11 H 0.5717 0.4752 0.6741
C8 C 0.648(8) 0.448(8) 0.758(11)
H12 H 0.6813 0.4363 0.7939
loop_
_geom_bond_atom_site_label_1
_geom_bond_atom_site_label_2
_geom_bond_site_symmetry_1
_geom_bond_site_symmetry_2
Cu1 N1 1_555 1_555
N1 N2 1_555 1_555
N2 C4 1_555 1_555
N3 C1 1_555 1_555
C1 N1 1_555 1_555
C2 C1 1_555 1_555
H1 C2 1_555 1_555
H2 C2 1_555 1_555
C3 C2 1_555 1_555
H3 C3 1_555 1_555
H4 C3 1_555 1_555
H5 C3 1_555 1_555
C4 N3 1_555 1_555
C5 C4 1_555 1_555
H6 C5 1_555 1_555
H7 C5 1_555 1_555
C6 C5 1_555 1_555
H8 C6 1_555 1_555
H9 C6 1_555 1_555
H10 C6 1_555 1_555
C7 H11 1_555 1_555
C8 C7 1_555 1_555
H12 C8 1_555 1_555
Cu1I N2 1_555 1_555
Cu1Q N3 1_555 1_555
N2I Cu1 1_555 1_555
N3P Cu1 1_555 1_555

#END
