
#######################################################################
#
#                 Cambridge Crystallographic Data Centre
#                                CCDC 
#
#######################################################################
#
# If this CIF has been generated from an entry in the Cambridge 
# Structural Database, then it will include bibliographic, chemical, 
# crystal, experimental, refinement or atomic coordinate data resulting 
# from the CCDC's data processing and validation procedures.
#
#######################################################################

data_SUHNIT
_symmetry_cell_setting           rhombohedral
_symmetry_space_group_name_H-M   'R -3'
_symmetry_Int_Tables_number      148
_space_group_name_Hall           '-R 3'
loop_
_symmetry_equiv_pos_site_id
_symmetry_equiv_pos_as_xyz
1 x,y,z
2 -y,x-y,z
3 -x+y,-x,z
4 2/3+x,1/3+y,1/3+z
5 2/3-y,1/3+x-y,1/3+z
6 2/3-x+y,1/3-x,1/3+z
7 1/3+x,2/3+y,2/3+z
8 1/3-y,2/3+x-y,2/3+z
9 1/3-x+y,2/3-x,2/3+z
10 -x,-y,-z
11 y,-x+y,-z
12 x-y,x,-z
13 1/3-x,2/3-y,2/3-z
14 1/3+y,2/3-x+y,2/3-z
15 1/3+x-y,2/3+x,2/3-z
16 2/3-x,1/3-y,1/3-z
17 2/3+y,1/3-x+y,1/3-z
18 2/3+x-y,1/3+x,1/3-z
_cell_length_a                   19.6035(14)
_cell_length_b                   19.6035(14)
_cell_length_c                   14.2793(11)
_cell_angle_alpha                90
_cell_angle_beta                 90
_cell_angle_gamma                120
_cell_volume                     4752.31
loop_
_atom_site_label
_atom_site_type_symbol
_atom_site_fract_x
_atom_site_fract_y
_atom_site_fract_z
Cu1 Cu 0.415092(16) 0.451607(17) 0.561910(19)
N1 N 0.50589(11) 0.54736(12) 0.61264(13)
N2 N 0.57466(11) 0.58572(11) 0.56117(13)
N3 N 0.58892(12) 0.65510(11) 0.68993(13)
C1 C 0.51710(15) 0.59066(14) 0.68904(17)
C2 C 0.45844(19) 0.57015(18) 0.7661(2)
H1 H 0.4102 0.5203 0.7497
H2 H 0.4803 0.5605 0.8239
C3 C 0.4363(3) 0.6298(3) 0.7864(4)
H3 H 0.3995 0.6124 0.8392
H4 H 0.4111 0.6372 0.7311
H5 H 0.4836 0.6797 0.8023
C4 C 0.62214(14) 0.64948(13) 0.60975(16)
C5 C 0.70309(15) 0.70805(17) 0.5794(2)
H6 H 0.7070 0.7602 0.5727
H7 H 0.7134 0.6926 0.5173
C6 C 0.7648(2) 0.7147(3) 0.6477(3)
H8 H 0.8171 0.7542 0.6253
H9 H 0.7622 0.6636 0.6532
H10 H 0.7552 0.7305 0.7092
Cu1I Cu 0.584908(16) 0.548393(17) 0.438090(19)
Cu1Q Cu 0.630152(23) 0.748425(16) 0.771423(19)
N2I N 0.42534(11) 0.41428(11) 0.43883(13)
N3P N 0.32177(11) 0.39951(16) 0.64340(13)
C7 C 0.617(2) 0.4630(19) 0.702(2)
H11 H 0.5796 0.4697 0.6664
C8 C 0.657(4) 0.456(3) 0.741(4)
H12 H 0.6942 0.4492 0.7764
loop_
_geom_bond_atom_site_label_1
_geom_bond_atom_site_label_2
_geom_bond_site_symmetry_1
_geom_bond_site_symmetry_2
Cu1 N1 1_555 1_555
N1 N2 1_555 1_555
N2 C4 1_555 1_555
N3 C1 1_555 1_555
C1 N1 1_555 1_555
C2 C1 1_555 1_555
H1 C2 1_555 1_555
H2 C2 1_555 1_555
C3 C2 1_555 1_555
H3 C3 1_555 1_555
H4 C3 1_555 1_555
H5 C3 1_555 1_555
C4 N3 1_555 1_555
C5 C4 1_555 1_555
H6 C5 1_555 1_555
H7 C5 1_555 1_555
C6 C5 1_555 1_555
H8 C6 1_555 1_555
H9 C6 1_555 1_555
H10 C6 1_555 1_555
C7 H11 1_555 1_555
C8 C7 1_555 1_555
H12 C8 1_555 1_555
Cu1I N2 1_555 1_555
Cu1Q N3 1_555 1_555
N2I Cu1 1_555 1_555
N3P Cu1 1_555 1_555

#END
