
#######################################################################
#
#                 Cambridge Crystallographic Data Centre
#                                CCDC 
#
#######################################################################
#
# If this CIF has been generated from an entry in the Cambridge 
# Structural Database, then it will include bibliographic, chemical, 
# crystal, experimental, refinement or atomic coordinate data resulting 
# from the CCDC's data processing and validation procedures.
#
#######################################################################

data_SUHPUH
_symmetry_cell_setting           rhombohedral
_symmetry_space_group_name_H-M   'R -3'
_symmetry_Int_Tables_number      148
_space_group_name_Hall           '-R 3'
loop_
_symmetry_equiv_pos_site_id
_symmetry_equiv_pos_as_xyz
1 x,y,z
2 -y,x-y,z
3 -x+y,-x,z
4 2/3+x,1/3+y,1/3+z
5 2/3-y,1/3+x-y,1/3+z
6 2/3-x+y,1/3-x,1/3+z
7 1/3+x,2/3+y,2/3+z
8 1/3-y,2/3+x-y,2/3+z
9 1/3-x+y,2/3-x,2/3+z
10 -x,-y,-z
11 y,-x+y,-z
12 x-y,x,-z
13 1/3-x,2/3-y,2/3-z
14 1/3+y,2/3-x+y,2/3-z
15 1/3+x-y,2/3+x,2/3-z
16 2/3-x,1/3-y,1/3-z
17 2/3+y,1/3-x+y,1/3-z
18 2/3+x-y,1/3+x,1/3-z
_cell_length_a                   19.7013(12)
_cell_length_b                   19.7013(12)
_cell_length_c                   14.1981(9)
_cell_angle_alpha                90
_cell_angle_beta                 90
_cell_angle_gamma                120
_cell_volume                     4772.55
loop_
_atom_site_label
_atom_site_type_symbol
_atom_site_fract_x
_atom_site_fract_y
_atom_site_fract_z
Cu1 Cu 0.41515(2) 0.45188(2) 0.56189(2)
N1 N 0.50562(14) 0.54742(14) 0.61239(17)
N2 N 0.57445(14) 0.58539(14) 0.56122(17)
N3 N 0.58856(15) 0.65539(14) 0.68963(17)
C1 C 0.51721(18) 0.59110(18) 0.6888(2)
C2 C 0.4579(2) 0.5702(2) 0.7659(3)
H1 H 0.4100 0.5208 0.7486
H2 H 0.4790 0.5603 0.8243
C3 C 0.4359(3) 0.6298(3) 0.7859(5)
H3 H 0.3991 0.6125 0.8387
H4 H 0.4112 0.6373 0.7301
H5 H 0.4829 0.6794 0.8021
C4 C 0.62198(17) 0.64942(17) 0.6094(2)
C5 C 0.7026(2) 0.7074(2) 0.5795(3)
H6 H 0.7065 0.7593 0.5727
H7 H 0.7129 0.6921 0.5171
C6 C 0.7642(2) 0.7145(3) 0.6475(4)
H8 H 0.8160 0.7540 0.6246
H9 H 0.7619 0.6638 0.6530
H10 H 0.7548 0.7303 0.7094
Cu1I Cu 0.58485(2) 0.54812(2) 0.43811(2)
Cu1Q Cu 0.62994(3) 0.74848(2) 0.77144(2)
N2I N 0.42555(14) 0.41461(14) 0.43878(17)
N3P N 0.32206(14) 0.40016(21) 0.64370(17)
O1 O 0.567(6) 0.396(5) 0.611(6)
O2 O 0.626(4) 0.485(4) 0.733(5)
C7 C 0.598(5) 0.439(4) 0.674(6)
loop_
_geom_bond_atom_site_label_1
_geom_bond_atom_site_label_2
_geom_bond_site_symmetry_1
_geom_bond_site_symmetry_2
Cu1 N1 1_555 1_555
N1 N2 1_555 1_555
N2 C4 1_555 1_555
N3 C1 1_555 1_555
C1 N1 1_555 1_555
C2 C1 1_555 1_555
H1 C2 1_555 1_555
H2 C2 1_555 1_555
C3 C2 1_555 1_555
H3 C3 1_555 1_555
H4 C3 1_555 1_555
H5 C3 1_555 1_555
C4 N3 1_555 1_555
C5 C4 1_555 1_555
H6 C5 1_555 1_555
H7 C5 1_555 1_555
C6 C5 1_555 1_555
H8 C6 1_555 1_555
H9 C6 1_555 1_555
H10 C6 1_555 1_555
O1 C7 1_555 1_555
O2 C7 1_555 1_555
Cu1I N2 1_555 1_555
Cu1Q N3 1_555 1_555
N2I Cu1 1_555 1_555
N3P Cu1 1_555 1_555

#END
