
#######################################################################
#
#                 Cambridge Crystallographic Data Centre
#                                CCDC 
#
#######################################################################
#
# If this CIF has been generated from an entry in the Cambridge 
# Structural Database, then it will include bibliographic, chemical, 
# crystal, experimental, refinement or atomic coordinate data resulting 
# from the CCDC's data processing and validation procedures.
#
#######################################################################

data_SUHPIV
_symmetry_cell_setting           rhombohedral
_symmetry_space_group_name_H-M   'R -3'
_symmetry_Int_Tables_number      148
_space_group_name_Hall           '-R 3'
loop_
_symmetry_equiv_pos_site_id
_symmetry_equiv_pos_as_xyz
1 x,y,z
2 -y,x-y,z
3 -x+y,-x,z
4 2/3+x,1/3+y,1/3+z
5 2/3-y,1/3+x-y,1/3+z
6 2/3-x+y,1/3-x,1/3+z
7 1/3+x,2/3+y,2/3+z
8 1/3-y,2/3+x-y,2/3+z
9 1/3-x+y,2/3-x,2/3+z
10 -x,-y,-z
11 y,-x+y,-z
12 x-y,x,-z
13 1/3-x,2/3-y,2/3-z
14 1/3+y,2/3-x+y,2/3-z
15 1/3+x-y,2/3+x,2/3-z
16 2/3-x,1/3-y,1/3-z
17 2/3+y,1/3-x+y,1/3-z
18 2/3+x-y,1/3+x,1/3-z
_cell_length_a                   19.7253(14)
_cell_length_b                   19.7253(14)
_cell_length_c                   14.1969(10)
_cell_angle_alpha                90
_cell_angle_beta                 90
_cell_angle_gamma                120
_cell_volume                     4783.78
loop_
_atom_site_label
_atom_site_type_symbol
_atom_site_fract_x
_atom_site_fract_y
_atom_site_fract_z
Cu1 Cu 0.41516(2) 0.45190(2) 0.56181(3)
N1 N 0.50559(14) 0.54748(14) 0.61255(18)
N2 N 0.57453(14) 0.58575(14) 0.56072(18)
N3 N 0.58877(14) 0.65547(13) 0.68986(18)
C1 C 0.51686(18) 0.59111(18) 0.6887(2)
C2 C 0.4582(2) 0.5702(2) 0.7663(3)
H1 H 0.4103 0.5207 0.7495
H2 H 0.4798 0.5607 0.8245
C3 C 0.4364(3) 0.6297(3) 0.7860(5)
H3 H 0.3995 0.6125 0.8389
H4 H 0.4117 0.6372 0.7302
H5 H 0.4833 0.6792 0.8023
C4 C 0.62204(17) 0.64932(17) 0.6096(2)
C5 C 0.70296(19) 0.7081(2) 0.5796(3)
H6 H 0.7068 0.7599 0.5737
H7 H 0.7133 0.6934 0.5168
C6 C 0.7641(2) 0.7143(3) 0.6473(4)
H8 H 0.8160 0.7537 0.6247
H9 H 0.7615 0.6635 0.6522
H10 H 0.7547 0.7297 0.7094
Cu1I Cu 0.58484(2) 0.54810(2) 0.43819(3)
Cu1Q Cu 0.62993(3) 0.74849(2) 0.77152(3)
N2I N 0.42547(14) 0.41425(14) 0.43928(18)
N3P N 0.32214(13) 0.40003(19) 0.64347(18)
O1 O 0.571(8) 0.394(6) 0.616(8)
O2 O 0.618(6) 0.488(6) 0.734(7)
C7 C 0.596(6) 0.440(5) 0.676(7)
loop_
_geom_bond_atom_site_label_1
_geom_bond_atom_site_label_2
_geom_bond_site_symmetry_1
_geom_bond_site_symmetry_2
Cu1 N1 1_555 1_555
N1 N2 1_555 1_555
N2 C4 1_555 1_555
N3 C1 1_555 1_555
C1 N1 1_555 1_555
C2 C1 1_555 1_555
H1 C2 1_555 1_555
H2 C2 1_555 1_555
C3 C2 1_555 1_555
H3 C3 1_555 1_555
H4 C3 1_555 1_555
H5 C3 1_555 1_555
C4 N3 1_555 1_555
C5 C4 1_555 1_555
H6 C5 1_555 1_555
H7 C5 1_555 1_555
C6 C5 1_555 1_555
H8 C6 1_555 1_555
H9 C6 1_555 1_555
H10 C6 1_555 1_555
O1 C7 1_555 1_555
O2 C7 1_555 1_555
Cu1I N2 1_555 1_555
Cu1Q N3 1_555 1_555
N2I Cu1 1_555 1_555
N3P Cu1 1_555 1_555

#END
