
#######################################################################
#
#                 Cambridge Crystallographic Data Centre
#                                CCDC 
#
#######################################################################
#
# If this CIF has been generated from an entry in the Cambridge 
# Structural Database, then it will include bibliographic, chemical, 
# crystal, experimental, refinement or atomic coordinate data resulting 
# from the CCDC's data processing and validation procedures.
#
#######################################################################

data_SUHQES
_symmetry_cell_setting           rhombohedral
_symmetry_space_group_name_H-M   'R -3'
_symmetry_Int_Tables_number      148
_space_group_name_Hall           '-R 3'
loop_
_symmetry_equiv_pos_site_id
_symmetry_equiv_pos_as_xyz
1 x,y,z
2 -y,x-y,z
3 -x+y,-x,z
4 2/3+x,1/3+y,1/3+z
5 2/3-y,1/3+x-y,1/3+z
6 2/3-x+y,1/3-x,1/3+z
7 1/3+x,2/3+y,2/3+z
8 1/3-y,2/3+x-y,2/3+z
9 1/3-x+y,2/3-x,2/3+z
10 -x,-y,-z
11 y,-x+y,-z
12 x-y,x,-z
13 1/3-x,2/3-y,2/3-z
14 1/3+y,2/3-x+y,2/3-z
15 1/3+x-y,2/3+x,2/3-z
16 2/3-x,1/3-y,1/3-z
17 2/3+y,1/3-x+y,1/3-z
18 2/3+x-y,1/3+x,1/3-z
_cell_length_a                   19.6828(17)
_cell_length_b                   19.6828(17)
_cell_length_c                   14.2050(12)
_cell_angle_alpha                90
_cell_angle_beta                 90
_cell_angle_gamma                120
_cell_volume                     4765.91
loop_
_atom_site_label
_atom_site_type_symbol
_atom_site_fract_x
_atom_site_fract_y
_atom_site_fract_z
Cu1 Cu 0.41505(2) 0.45175(2) 0.56205(2)
N1 N 0.50585(15) 0.54704(15) 0.61273(18)
N2 N 0.57462(14) 0.58522(15) 0.56143(17)
N3 N 0.58868(15) 0.65504(14) 0.68986(17)
C1 C 0.51694(19) 0.59043(18) 0.6892(2)
C2 C 0.4583(2) 0.5699(2) 0.7659(3)
H1 H 0.4106 0.5199 0.7495
H2 H 0.4800 0.5611 0.8245
C3 C 0.4354(4) 0.6293(4) 0.7846(5)
H3 H 0.3985 0.6122 0.8375
H4 H 0.4103 0.6360 0.7285
H5 H 0.4821 0.6794 0.8003
C4 C 0.62201(17) 0.64944(17) 0.6096(2)
C5 C 0.7029(2) 0.7074(2) 0.5795(3)
H6 H 0.7070 0.7594 0.5727
H7 H 0.7130 0.6920 0.5170
C6 C 0.7644(3) 0.7142(3) 0.6472(4)
H8 H 0.8163 0.7538 0.6243
H9 H 0.7620 0.6634 0.6524
H10 H 0.7550 0.7299 0.7091
Cu1I Cu 0.58495(2) 0.54825(2) 0.43795(2)
Cu1Q Cu 0.62997(3) 0.74838(2) 0.77128(2)
N2I N 0.42538(14) 0.41478(15) 0.43857(17)
N3P N 0.32171(14) 0.39969(21) 0.64347(17)
O1 O 0.571(2) 0.399(2) 0.626(3)
O2 O 0.639(2) 0.495(2) 0.738(3)
C7 C 0.606(3) 0.446(2) 0.682(3)
loop_
_geom_bond_atom_site_label_1
_geom_bond_atom_site_label_2
_geom_bond_site_symmetry_1
_geom_bond_site_symmetry_2
Cu1 N1 1_555 1_555
N1 N2 1_555 1_555
N2 C4 1_555 1_555
N3 C1 1_555 1_555
C1 N1 1_555 1_555
C2 C1 1_555 1_555
H1 C2 1_555 1_555
H2 C2 1_555 1_555
C3 C2 1_555 1_555
H3 C3 1_555 1_555
H4 C3 1_555 1_555
H5 C3 1_555 1_555
C4 N3 1_555 1_555
C5 C4 1_555 1_555
H6 C5 1_555 1_555
H7 C5 1_555 1_555
C6 C5 1_555 1_555
H8 C6 1_555 1_555
H9 C6 1_555 1_555
H10 C6 1_555 1_555
O1 C7 1_555 1_555
O2 C7 1_555 1_555
Cu1I N2 1_555 1_555
Cu1Q N3 1_555 1_555
N2I Cu1 1_555 1_555
N3P Cu1 1_555 1_555

#END
