
#######################################################################
#
#                 Cambridge Crystallographic Data Centre
#                                CCDC 
#
#######################################################################
#
# If this CIF has been generated from an entry in the Cambridge 
# Structural Database, then it will include bibliographic, chemical, 
# crystal, experimental, refinement or atomic coordinate data resulting 
# from the CCDC's data processing and validation procedures.
#
#######################################################################

data_SUHQUI
_symmetry_cell_setting           rhombohedral
_symmetry_space_group_name_H-M   'R -3'
_symmetry_Int_Tables_number      148
_space_group_name_Hall           '-R 3'
loop_
_symmetry_equiv_pos_site_id
_symmetry_equiv_pos_as_xyz
1 x,y,z
2 -y,x-y,z
3 -x+y,-x,z
4 2/3+x,1/3+y,1/3+z
5 2/3-y,1/3+x-y,1/3+z
6 2/3-x+y,1/3-x,1/3+z
7 1/3+x,2/3+y,2/3+z
8 1/3-y,2/3+x-y,2/3+z
9 1/3-x+y,2/3-x,2/3+z
10 -x,-y,-z
11 y,-x+y,-z
12 x-y,x,-z
13 1/3-x,2/3-y,2/3-z
14 1/3+y,2/3-x+y,2/3-z
15 1/3+x-y,2/3+x,2/3-z
16 2/3-x,1/3-y,1/3-z
17 2/3+y,1/3-x+y,1/3-z
18 2/3+x-y,1/3+x,1/3-z
_cell_length_a                   19.6798(13)
_cell_length_b                   19.6798(13)
_cell_length_c                   14.2054(10)
_cell_angle_alpha                90
_cell_angle_beta                 90
_cell_angle_gamma                120
_cell_volume                     4764.59
loop_
_atom_site_label
_atom_site_type_symbol
_atom_site_fract_x
_atom_site_fract_y
_atom_site_fract_z
Cu1 Cu 0.41496(2) 0.45167(2) 0.56205(2)
N1 N 0.50595(15) 0.54670(15) 0.61314(17)
N2 N 0.57459(14) 0.58485(15) 0.56149(17)
N3 N 0.58881(15) 0.65500(14) 0.69005(17)
C1 C 0.51719(19) 0.59032(18) 0.6890(2)
C2 C 0.4586(2) 0.5698(2) 0.7664(3)
H1 H 0.4111 0.5194 0.7507
H2 H 0.4809 0.5619 0.8251
C3 C 0.4351(4) 0.6292(4) 0.7841(5)
H3 H 0.3982 0.6123 0.8369
H4 H 0.4099 0.6352 0.7277
H5 H 0.4817 0.6796 0.7993
C4 C 0.62210(17) 0.64892(17) 0.6100(2)
C5 C 0.70317(19) 0.7075(2) 0.5798(3)
H6 H 0.7071 0.7595 0.5734
H7 H 0.7135 0.6924 0.5172
C6 C 0.7644(2) 0.7140(3) 0.6477(4)
H8 H 0.8165 0.7535 0.6251
H9 H 0.7619 0.6631 0.6528
H10 H 0.7549 0.7296 0.7096
Cu1I Cu 0.58504(2) 0.54833(2) 0.43795(2)
Cu1Q Cu 0.62996(3) 0.74829(2) 0.77128(2)
N2I N 0.42541(14) 0.41515(15) 0.43851(17)
N3P N 0.32167(14) 0.39952(21) 0.64328(17)
O1 O 0.5736(17) 0.3998(15) 0.631(2)
O2 O 0.6422(16) 0.4999(15) 0.7390(19)
C7 C 0.6068(19) 0.4474(18) 0.688(2)
loop_
_geom_bond_atom_site_label_1
_geom_bond_atom_site_label_2
_geom_bond_site_symmetry_1
_geom_bond_site_symmetry_2
Cu1 N1 1_555 1_555
N1 N2 1_555 1_555
N2 C4 1_555 1_555
N3 C1 1_555 1_555
C1 N1 1_555 1_555
C2 C1 1_555 1_555
H1 C2 1_555 1_555
H2 C2 1_555 1_555
C3 C2 1_555 1_555
H3 C3 1_555 1_555
H4 C3 1_555 1_555
H5 C3 1_555 1_555
C4 N3 1_555 1_555
C5 C4 1_555 1_555
H6 C5 1_555 1_555
H7 C5 1_555 1_555
C6 C5 1_555 1_555
H8 C6 1_555 1_555
H9 C6 1_555 1_555
H10 C6 1_555 1_555
O1 C7 1_555 1_555
O2 C7 1_555 1_555
Cu1I N2 1_555 1_555
Cu1Q N3 1_555 1_555
N2I Cu1 1_555 1_555
N3P Cu1 1_555 1_555

#END
