
#######################################################################
#
#                 Cambridge Crystallographic Data Centre
#                                CCDC 
#
#######################################################################
#
# If this CIF has been generated from an entry in the Cambridge 
# Structural Database, then it will include bibliographic, chemical, 
# crystal, experimental, refinement or atomic coordinate data resulting 
# from the CCDC's data processing and validation procedures.
#
#######################################################################

data_SUHRAP
_symmetry_cell_setting           monoclinic
_symmetry_space_group_name_H-M   'P 21/c'
_symmetry_Int_Tables_number      14
_space_group_name_Hall           '-P 2ybc'
loop_
_symmetry_equiv_pos_site_id
_symmetry_equiv_pos_as_xyz
1 x,y,z
2 -x,1/2+y,1/2-z
3 -x,-y,-z
4 x,1/2-y,1/2+z
_cell_length_a                   5.0414(7)
_cell_length_b                   24.174(3)
_cell_length_c                   7.0414(10)
_cell_angle_alpha                90
_cell_angle_beta                 94.045(2)
_cell_angle_gamma                90
_cell_volume                     856.003
loop_
_atom_site_label
_atom_site_type_symbol
_atom_site_fract_x
_atom_site_fract_y
_atom_site_fract_z
Pt1 Pt 1.0000 0.5000 0.0000
I1 I 0.95156(10) 0.574532(17) -0.26446(6)
O1 O 0.2906(8) 0.30174(17) -0.4553(6)
O2 O 0.2375(8) 0.33734(16) -0.1703(6)
C1 C 0.3515(11) 0.3347(2) -0.3227(8)
C2 C 0.5850(13) 0.3725(3) -0.3481(9)
H1 H 0.567(13) 0.388(3) -0.475(10)
H2 H 0.738(13) 0.350(3) -0.368(9)
C3 C 0.6300(13) 0.4173(3) -0.2010(11)
H3 H 0.601(15) 0.405(3) -0.066(12)
H4 H 0.489(14) 0.447(3) -0.225(10)
N1 N 0.9044(10) 0.4401(2) -0.1988(8)
H5 H 0.940(11) 0.452(2) -0.324(9)
H6 H 1.059(11) 0.421(2) -0.196(7)
K1 K 0.5168(3) 0.69949(6) -0.1844(2)
O3 O 0.1520(9) 0.7622(2) -0.4286(8)
H7 H 0.051(14) 0.740(3) -0.468(10)
H8 H 0.045(15) 0.784(3) -0.398(10)
I1B I 1.04844(10) 0.425468(17) 0.26446(6)
O1B O 1.7094(8) 0.69826(17) 0.4553(6)
O1A O 0.7094(8) 0.80174(17) -0.0447(6)
O1B_2 O 0.7094(8) 0.69826(17) -0.5447(6)
O1C O 1.2906(8) 0.19826(17) 0.0447(6)
O1_2 O 1.2906(8) 0.30174(17) 0.5447(6)
O2B O 1.7625(8) 0.66266(16) 0.1703(6)
O2B_2 O 0.7625(8) 0.66266(16) 0.1703(6)
O2_2 O 1.2375(8) 0.33734(16) -0.1703(6)
C1B C 1.6485(11) 0.6653(2) 0.3227(8)
C2B C 1.4150(13) 0.6275(3) 0.3481(9)
H1B H 1.433(13) 0.612(3) 0.475(10)
H2B H 1.262(13) 0.650(3) 0.368(9)
C3B C 1.3700(13) 0.5827(3) 0.2010(11)
H3B H 1.399(15) 0.595(3) 0.066(12)
H4B H 1.511(14) 0.553(3) 0.225(10)
N1B N 1.0956(10) 0.5599(2) 0.1988(8)
H5B H 1.060(11) 0.548(2) 0.324(9)
H6B H 0.941(11) 0.579(2) 0.196(7)
K1B K 1.4832(3) 0.30051(6) 0.1844(2)
K1A K 0.4832(3) 0.19949(6) -0.3156(2)
K1B_2 K 0.4832(3) 0.30051(6) -0.8156(2)
K1B_3 K 0.4832(3) 0.30051(6) 0.1844(2)
K1C K 0.5168(3) 0.80051(6) -0.6844(2)
K1C_2 K 1.5168(3) 0.80051(6) 0.3156(2)
K1_2 K 1.5168(3) 0.69949(6) 0.8156(2)
K1_3 K 1.5168(3) 0.69949(6) -0.1844(2)
K1C_3 K 0.5168(3) 0.80051(6) 0.3156(2)
O3C O 0.1520(9) 0.7378(2) 0.0714(8)
O3B O 1.8480(9) 0.2378(2) 0.4286(8)
O3A O 1.8480(9) 0.2622(2) -0.0714(8)
H7C H 0.051(14) 0.760(3) 0.032(10)
H7B H 1.949(14) 0.260(3) 0.468(10)
H7A H 1.949(14) 0.240(3) -0.032(10)
H8C H 0.045(15) 0.716(3) 0.102(10)
H8B H 1.955(15) 0.216(3) 0.398(10)
H8A H 1.955(15) 0.284(3) -0.102(10)
loop_
_geom_bond_atom_site_label_1
_geom_bond_atom_site_label_2
_geom_bond_site_symmetry_1
_geom_bond_site_symmetry_2
Pt1 I1 1_555 1_555
I1 K1 1_555 1_555
O1 C1 1_555 1_555
O2 C1 1_555 1_555
C1 C2 1_555 1_555
C2 H1 1_555 1_555
H2 C2 1_555 1_555
C3 C2 1_555 1_555
H3 C3 1_555 1_555
H4 C3 1_555 1_555
N1 Pt1 1_555 1_555
H5 N1 1_555 1_555
H6 N1 1_555 1_555
K1 O3 1_555 1_555
O3 H7 1_555 1_555
H8 O3 1_555 1_555
I1B Pt1 1_555 1_555
O1B C1B 1_555 1_555
O1A K1 1_555 1_555
O1B_2 K1 1_555 1_555
O1C K1B 1_555 1_555
O1_2 K1B 1_555 1_555
O2B C1B 1_555 1_555
O2B_2 K1 1_555 1_555
O2_2 K1B 1_555 1_555
C1B C2B 1_555 1_555
C2B H1B 1_555 1_555
H2B C2B 1_555 1_555
C3B C2B 1_555 1_555
H3B C3B 1_555 1_555
H4B C3B 1_555 1_555
N1B Pt1 1_555 1_555
H5B N1B 1_555 1_555
H6B N1B 1_555 1_555
K1B I1B 1_555 1_555
K1A O1 1_555 1_555
K1B_2 O1 1_555 1_555
K1B_3 O2 1_555 1_555
K1C O3 1_555 1_555
K1C_2 O1B 1_555 1_555
K1_2 O1B 1_555 1_555
K1_3 O2B 1_555 1_555
K1C_3 O1A 1_555 1_555
O3C K1 1_555 1_555
O3B K1B 1_555 1_555
O3A K1B 1_555 1_555
H7C O3C 1_555 1_555
H7B O3B 1_555 1_555
H7A O3A 1_555 1_555
H8C O3C 1_555 1_555
H8B O3B 1_555 1_555
H8A O3A 1_555 1_555
C3 N1 1_555 1_555
O1B_2 K1C 1_555 1_555
C3B N1B 1_555 1_555
K1C_3 O3C 1_555 1_555

#END
