
#######################################################################
#
#                 Cambridge Crystallographic Data Centre
#                                CCDC 
#
#######################################################################
#
# If this CIF has been generated from an entry in the Cambridge 
# Structural Database, then it will include bibliographic, chemical, 
# crystal, experimental, refinement or atomic coordinate data resulting 
# from the CCDC's data processing and validation procedures.
#
#######################################################################

data_SUHRUJ
_symmetry_cell_setting           triclinic
_symmetry_space_group_name_H-M   'P -1'
_symmetry_Int_Tables_number      2
_space_group_name_Hall           '-P 1'
loop_
_symmetry_equiv_pos_site_id
_symmetry_equiv_pos_as_xyz
1 x,y,z
2 -x,-y,-z
_cell_length_a                   10.1886(6)
_cell_length_b                   10.4330(6)
_cell_length_c                   12.2766(7)
_cell_angle_alpha                91.9390(10)
_cell_angle_beta                 96.8640(10)
_cell_angle_gamma                118.0680(10)
_cell_volume                     1137.18
loop_
_atom_site_label
_atom_site_type_symbol
_atom_site_fract_x
_atom_site_fract_y
_atom_site_fract_z
Cd1 Cd 0.870267(19) 0.714623(18) 0.478825(14)
O1 O 0.8090(2) 0.8514(2) 0.60804(16)
O2 O 0.6290(2) 0.7102(2) 0.47612(19)
O3 O 0.1178(2) 0.6891(2) 0.46308(18)
O4 O 0.1108(2) 0.8679(2) 0.55563(17)
O5 O 0.6061(2) 1.1568(2) 0.78641(18)
H1 H 0.6938 1.1819 0.8119
O6 O 0.1018(2) 0.0992(3) -0.12837(17)
H2 H 0.1130 0.1249 -0.1905
O7 O 0.9160(2) 0.90644(19) 0.35606(15)
H3 H 1.0116 0.9462 0.3666
H4 H 0.8768 0.9551 0.3813
O8 O 0.8430(2) 0.5441(2) 0.59486(16)
H5 H 0.8675 0.4818 0.5718
H6 H 0.7706 0.5140 0.6319
N1 N 0.6194(3) 0.4261(2) 0.17490(18)
N2 N 0.7595(3) 0.4766(3) 0.1479(2)
N3 N 0.7730(3) 0.5617(2) 0.32062(19)
C1 C 0.8462(4) 0.5559(4) 0.2381(3)
H7 H 0.9507 0.6047 0.2448
C2 C 0.6293(3) 0.4787(3) 0.2772(2)
H8 H 0.5478 0.4603 0.3132
C3 C 0.4880(3) 0.3387(3) 0.0958(2)
C4 C 0.4980(3) 0.3406(3) -0.0153(2)
H9 H 0.5905 0.3950 -0.0386
C5 C 0.3696(3) 0.2611(3) -0.0916(2)
H10 H 0.3757 0.2624 -0.1666
C6 C 0.2334(3) 0.1806(3) -0.0574(2)
C7 C 0.2234(3) 0.1774(3) 0.0544(2)
H11 H 0.1311 0.1216 0.0777
C8 C 0.3503(3) 0.2572(3) 0.1303(2)
H12 H 0.3439 0.2566 0.2052
C9 C 0.6789(3) 0.8051(3) 0.5579(2)
C10 C 0.5816(3) 0.8648(3) 0.5960(2)
C11 C 0.4313(3) 0.8044(3) 0.5486(2)
H13 H 0.3904 0.7250 0.4950
C12 C 0.3419(3) 0.8620(3) 0.5809(2)
C13 C 0.1809(3) 0.8009(3) 0.5293(2)
C14 C 0.4046(3) 0.9802(3) 0.6620(2)
H14 H 0.3456 1.0192 0.6844
C15 C 0.5536(3) 1.0396(3) 0.7093(2)
C16 C 0.6421(3) 0.9823(3) 0.6770(2)
H15 H 0.7423 1.0223 0.7095
Cd1_2 Cd -0.129733(19) 0.714623(18) 0.478825(14)
O3_2 O 1.1178(2) 0.6891(2) 0.46308(18)
O4_2 O 1.1108(2) 0.8679(2) 0.55563(17)
N4 N 0.8819(4) 0.2361(4) 0.0676(3)
C17 C 0.7185(5) 0.1326(5) 0.0559(4)
H16 H 0.6626 0.1846 0.0416
H17 H 0.6960 0.0871 0.1227
H18 H 0.6910 0.0593 -0.0044
C18 C 0.9604(7) 0.2697(7) 0.1787(3)
H19 H 1.0597 0.3504 0.1815
H20 H 0.9675 0.1860 0.2022
H21 H 0.9065 0.2951 0.2266
C19 C 0.9390(5) 0.2894(6) -0.0170(3)
H22 H 1.0418 0.3537 -0.0053
O9 O 0.8751(3) 0.2666(4) -0.1125(2)
O10 O 0.4000(2) 0.5972(2) 0.30041(18)
H23 H 0.4662 0.6322 0.3579
H24 H 0.3814 0.6570 0.2653
loop_
_geom_bond_atom_site_label_1
_geom_bond_atom_site_label_2
_geom_bond_site_symmetry_1
_geom_bond_site_symmetry_2
Cd1 O1 1_555 1_555
O1 C9 1_555 1_555
O2 Cd1 1_555 1_555
O3 C13 1_555 1_555
O4 C13 1_555 1_555
O5 H1 1_555 1_555
O6 H2 1_555 1_555
O7 Cd1 1_555 1_555
H3 O7 1_555 1_555
H4 O7 1_555 1_555
O8 Cd1 1_555 1_555
H5 O8 1_555 1_555
H6 O8 1_555 1_555
N1 N2 1_555 1_555
N2 C1 1_555 1_555
N3 Cd1 1_555 1_555
N4 C17 1_555 1_555
C1 N3 1_555 1_555
H7 C1 1_555 1_555
C2 N1 1_555 1_555
H8 C2 1_555 1_555
C3 N1 1_555 1_555
C4 C3 1_555 1_555
H9 C4 1_555 1_555
C5 C4 1_555 1_555
H10 C5 1_555 1_555
C6 O6 1_555 1_555
C7 C6 1_555 1_555
H11 C7 1_555 1_555
C8 C3 1_555 1_555
H12 C8 1_555 1_555
C9 O2 1_555 1_555
C10 C9 1_555 1_555
C11 C10 1_555 1_555
H13 C11 1_555 1_555
C12 C11 1_555 1_555
C13 C12 1_555 1_555
C14 C12 1_555 1_555
H14 C14 1_555 1_555
C15 O5 1_555 1_555
C16 C10 1_555 1_555
H15 C16 1_555 1_555
C17 H16 1_555 1_555
H17 C17 1_555 1_555
H18 C17 1_555 1_555
C18 N4 1_555 1_555
H19 C18 1_555 1_555
H20 C18 1_555 1_555
H21 C18 1_555 1_555
C19 N4 1_555 1_555
H22 C19 1_555 1_555
O9 C19 1_555 1_555
O10 H23 1_555 1_555
H24 O10 1_555 1_555
Cd1_2 O3 1_555 1_555
O3_2 Cd1 1_555 1_555
O4_2 Cd1 1_555 1_555
O4 Cd1_2 1_555 1_555
N3 C2 1_555 1_555
C5 C6 1_555 1_555
C7 C8 1_555 1_555
C14 C15 1_555 1_555
C15 C16 1_555 1_555

#END
