
#######################################################################
#
#                 Cambridge Crystallographic Data Centre
#                                CCDC 
#
#######################################################################
#
# If this CIF has been generated from an entry in the Cambridge 
# Structural Database, then it will include bibliographic, chemical, 
# crystal, experimental, refinement or atomic coordinate data resulting 
# from the CCDC's data processing and validation procedures.
#
#######################################################################

data_SUHROD
_symmetry_cell_setting           triclinic
_symmetry_space_group_name_H-M   'P -1'
_symmetry_Int_Tables_number      2
_space_group_name_Hall           '-P 1'
loop_
_symmetry_equiv_pos_site_id
_symmetry_equiv_pos_as_xyz
1 x,y,z
2 -x,-y,-z
_cell_length_a                   8.989(3)
_cell_length_b                   9.929(3)
_cell_length_c                   10.818(3)
_cell_angle_alpha                103.353(3)
_cell_angle_beta                 96.961(4)
_cell_angle_gamma                115.744(3)
_cell_volume                     818.706
loop_
_atom_site_label
_atom_site_type_symbol
_atom_site_fract_x
_atom_site_fract_y
_atom_site_fract_z
Cd1 Cd 0.74113(2) 0.56239(2) 0.533018(17)
O1 O 0.0438(3) 0.0798(3) -0.3432(2)
H1 H -0.0450 -0.0015 -0.3550
O2 O 0.8093(3) 0.6208(2) 0.75870(18)
O3 O 0.8955(3) 0.4654(2) 0.64878(18)
O4 O 0.7517(2) 0.8160(2) 0.5983(2)
O5 O 0.5297(3) 0.6325(2) 0.43965(19)
O6 O 0.9898(3) 0.7188(2) 0.4841(2)
H2 H 0.9835 0.7879 0.4530
H3 H 1.0155 0.6546 0.4374
N1 N 0.5040(3) 0.2440(3) 0.1291(2)
N2 N 0.6083(4) 0.1811(3) 0.1518(3)
N3 N 0.6533(3) 0.3783(3) 0.3306(2)
C1 C 0.6940(4) 0.2664(4) 0.2746(3)
H4 H 0.7769 0.2507 0.3197
C2 C 0.5325(4) 0.3575(4) 0.2348(3)
H5 H 0.4744 0.4158 0.2411
C3 C 0.3873(4) 0.1949(4) 0.0042(3)
C4 C 0.4267(4) 0.2885(4) -0.0757(3)
H6 H 0.5315 0.3796 -0.0516
C5 C 0.3105(4) 0.2472(4) -0.1917(3)
H7 H 0.3367 0.3116 -0.2447
C6 C 0.1551(4) 0.1105(3) -0.2297(3)
C7 C 0.1176(4) 0.0145(4) -0.1510(3)
H8 H 0.0146 -0.0786 -0.1765
C8 C 0.2343(4) 0.0573(4) -0.0334(3)
H9 H 0.2091 -0.0069 0.0198
C9 C 0.8801(3) 0.5355(3) 0.7553(3)
C10 C 0.9436(3) 0.5167(3) 0.8820(2)
C11 C 1.0114(4) 0.4155(4) 0.8840(3)
H10 H 1.0194 0.3587 0.8060
C12 C 0.9332(4) 0.6013(4) 0.9993(3)
H11 H 0.8883 0.6698 0.9988
C13 C 0.6167(3) 0.7739(3) 0.5155(3)
C14 C 0.5564(3) 0.8905(3) 0.5067(3)
C15 C 0.4444(3) 0.8664(3) 0.3938(3)
H12 H 0.4067 0.7765 0.3222
C16 C 0.6119(4) 1.0261(3) 0.6140(3)
H13 H 0.6868 1.0436 0.6905
Cd1A Cd 1.25887(2) 0.43761(2) 1.466982(17)
Cd1A_2 Cd 0.25887(2) 0.43761(2) 0.466982(17)
Cd1A_3 Cd 0.25887(2) 1.43761(2) 0.466982(17)
Cd1_2 Cd 0.74113(2) 1.56239(2) 0.533018(17)
O1A O 1.9562(3) 0.9202(3) 2.3432(2)
H1A H 2.0450 1.0015 2.3550
O2A O 1.1907(3) 0.3792(2) 1.24130(18)
O3A O 1.1045(3) 0.5346(2) 1.35122(18)
O4A O 0.2483(2) 1.1840(2) 0.4017(2)
O4A_2 O 1.2483(2) 0.1840(2) 1.4017(2)
O5A O 0.4703(3) 1.3675(2) 0.56035(19)
O5A_2 O 0.4703(3) 0.3675(2) 0.56035(19)
O5A_3 O 1.4703(3) 0.3675(2) 1.56035(19)
O5_2 O 1.5297(3) 0.6325(2) 1.43965(19)
O6A O 1.0102(3) 0.2812(2) 1.5159(2)
H2A H 1.0165 0.2121 1.5470
H3A H 0.9845 0.3454 1.5626
N1A N 1.4960(3) 0.7560(3) 1.8709(2)
N2A N 1.3917(4) 0.8189(3) 1.8482(3)
N3A N 1.3467(3) 0.6217(3) 1.6694(2)
C1A C 1.3060(4) 0.7336(4) 1.7254(3)
H4A H 1.2231 0.7493 1.6803
C2A C 1.4675(4) 0.6425(4) 1.7652(3)
H5A H 1.5256 0.5842 1.7589
C3A C 1.6127(4) 0.8051(4) 1.9958(3)
C4A C 1.5733(4) 0.7115(4) 2.0757(3)
H6A H 1.4685 0.6204 2.0516
C5A C 1.6895(4) 0.7528(4) 2.1917(3)
H7A H 1.6633 0.6884 2.2447
C6A C 1.8449(4) 0.8895(3) 2.2297(3)
C7A C 1.8824(4) 0.9855(4) 2.1510(3)
H8A H 1.9854 1.0786 2.1765
C8A C 1.7657(4) 0.9427(4) 2.0334(3)
H9A H 1.7909 1.0069 1.9802
C9A C 1.1199(3) 0.4645(3) 1.2447(3)
C10A C 1.0564(3) 0.4833(3) 1.1180(2)
C11A C 0.9886(4) 0.5845(4) 1.1160(3)
H10A H 0.9806 0.6413 1.1940
C12A C 1.0668(4) 0.3987(4) 1.0007(3)
H11A H 1.1117 0.3302 1.0012
C13A C 0.3833(3) 1.2261(3) 0.4845(3)
C14A C 0.4436(3) 1.1095(3) 0.4933(3)
C15A C 0.5556(3) 1.1336(3) 0.6062(3)
H12A H 0.5933 1.2235 0.6778
C16A C 0.3881(4) 0.9739(3) 0.3860(3)
H13A H 0.3132 0.9564 0.3095
loop_
_geom_bond_atom_site_label_1
_geom_bond_atom_site_label_2
_geom_bond_site_symmetry_1
_geom_bond_site_symmetry_2
Cd1 O2 1_555 1_555
O1 H1 1_555 1_555
O2 C9 1_555 1_555
O3 Cd1 1_555 1_555
O4 Cd1 1_555 1_555
O5 Cd1 1_555 1_555
O6 Cd1 1_555 1_555
H2 O6 1_555 1_555
H3 O6 1_555 1_555
N1 N2 1_555 1_555
N2 C1 1_555 1_555
N3 Cd1 1_555 1_555
C1 N3 1_555 1_555
H4 C1 1_555 1_555
C2 N1 1_555 1_555
H5 C2 1_555 1_555
C3 N1 1_555 1_555
C4 C3 1_555 1_555
H6 C4 1_555 1_555
C5 C4 1_555 1_555
H7 C5 1_555 1_555
C6 O1 1_555 1_555
C7 C6 1_555 1_555
H8 C7 1_555 1_555
C8 C3 1_555 1_555
H9 C8 1_555 1_555
C9 O3 1_555 1_555
C10 C9 1_555 1_555
C11 C10 1_555 1_555
H10 C11 1_555 1_555
C12 C10 1_555 1_555
H11 C12 1_555 1_555
C13 O4 1_555 1_555
C14 C13 1_555 1_555
C15 C14 1_555 1_555
H12 C15 1_555 1_555
C16 C14 1_555 1_555
H13 C16 1_555 1_555
Cd1A O2A 1_555 1_555
Cd1A_2 O5 1_555 1_555
Cd1A_3 O4A 1_555 1_555
Cd1_2 O5A 1_555 1_555
O1A H1A 1_555 1_555
O2A C9A 1_555 1_555
O3A Cd1A 1_555 1_555
O4A C13A 1_555 1_555
O4A_2 Cd1A 1_555 1_555
O5A Cd1A_3 1_555 1_555
O5A_2 Cd1 1_555 1_555
O5A_3 Cd1A 1_555 1_555
O5_2 Cd1A 1_555 1_555
O6A Cd1A 1_555 1_555
H2A O6A 1_555 1_555
H3A O6A 1_555 1_555
N1A N2A 1_555 1_555
N2A C1A 1_555 1_555
N3A Cd1A 1_555 1_555
C1A N3A 1_555 1_555
H4A C1A 1_555 1_555
C2A N1A 1_555 1_555
H5A C2A 1_555 1_555
C3A N1A 1_555 1_555
C4A C3A 1_555 1_555
H6A C4A 1_555 1_555
C5A C4A 1_555 1_555
H7A C5A 1_555 1_555
C6A O1A 1_555 1_555
C7A C6A 1_555 1_555
H8A C7A 1_555 1_555
C8A C3A 1_555 1_555
H9A C8A 1_555 1_555
C9A O3A 1_555 1_555
C10A C9A 1_555 1_555
C11A C12 1_555 1_555
H10A C11A 1_555 1_555
C12A C11 1_555 1_555
H11A C12A 1_555 1_555
C13A O5A 1_555 1_555
C14A C13A 1_555 1_555
C15A C16 1_555 1_555
H12A C15A 1_555 1_555
C16A C15 1_555 1_555
H13A C16A 1_555 1_555
O5 C13 1_555 1_555
N3 C2 1_555 1_555
C5 C6 1_555 1_555
C7 C8 1_555 1_555
Cd1A_2 O5A_2 1_555 1_555
N3A C2A 1_555 1_555
C5A C6A 1_555 1_555
C7A C8A 1_555 1_555
C10A C11A 1_555 1_555
C10A C12A 1_555 1_555
C14A C15A 1_555 1_555
C14A C16A 1_555 1_555

#END
