
#######################################################################
#
#                 Cambridge Crystallographic Data Centre
#                                CCDC 
#
#######################################################################
#
# If this CIF has been generated from an entry in the Cambridge 
# Structural Database, then it will include bibliographic, chemical, 
# crystal, experimental, refinement or atomic coordinate data resulting 
# from the CCDC's data processing and validation procedures.
#
#######################################################################

data_SUHSAQ
_symmetry_cell_setting           monoclinic
_symmetry_space_group_name_H-M   'C 2/c'
_symmetry_Int_Tables_number      15
_space_group_name_Hall           '-C 2yn'
loop_
_symmetry_equiv_pos_site_id
_symmetry_equiv_pos_as_xyz
1 x,y,z
2 -x,y,1/2-z
3 1/2+x,1/2+y,z
4 1/2-x,1/2+y,1/2-z
5 -x,-y,-z
6 x,-y,1/2+z
7 1/2-x,1/2-y,-z
8 1/2+x,1/2-y,1/2+z
_cell_length_a                   18.9284(5)
_cell_length_b                   10.3163(3)
_cell_length_c                   21.7021(6)
_cell_angle_alpha                90
_cell_angle_beta                 94.54
_cell_angle_gamma                90
_cell_volume                     4224.5
loop_
_atom_site_label
_atom_site_type_symbol
_atom_site_fract_x
_atom_site_fract_y
_atom_site_fract_z
Cd1 Cd 0.115953(7) 0.193611(12) 0.014472(6)
O1 O -0.21302(9) 0.44308(15) 0.31953(8)
H1 H -0.2075 0.5219 0.3214
O2 O 0.09996(8) -0.05923(14) 0.01868(7)
O3 O 0.17690(7) 0.04084(12) -0.03509(7)
O4 O 0.32677(9) -0.19786(13) -0.17081(8)
O5 O 0.31798(8) -0.41099(13) -0.17818(7)
H2 H 0.3459 -0.3993 -0.2047
O6 O 0.15936(7) -0.65264(12) -0.05005(6)
O7 O 0.10390(8) -0.55218(14) 0.02077(7)
O8 O 0.01482(8) 0.19379(13) -0.05011(7)
H3 H -0.0190 0.1539 -0.0348
H4 H 0.0047 0.2645 -0.0689
O9 O 0.21362(7) 0.23535(14) 0.08362(7)
H5 H 0.2526 0.2106 0.0706
H6 H 0.2117 0.3128 0.0968
N1 N -0.02991(8) 0.21772(14) 0.16328(7)
N2 N -0.01535(10) 0.08841(15) 0.16820(8)
N3 N 0.04703(9) 0.17985(15) 0.09632(8)
C1 C 0.03082(11) 0.07153(19) 0.12709(9)
H7 H 0.0508 -0.0087 0.1197
C2 C 0.00777(10) 0.26957(19) 0.12029(9)
H8 H 0.0066 0.3564 0.1088
C3 C -0.07861(10) 0.27813(18) 0.20149(8)
C4 C -0.07794(10) 0.41100(19) 0.20858(9)
H9 H -0.0471 0.4619 0.1876
C5 C -0.12370(11) 0.4675(2) 0.24728(9)
H10 H -0.1242 0.5571 0.2519
C6 C -0.16869(11) 0.3917(2) 0.27901(9)
C7 C -0.17007(11) 0.2595(2) 0.27055(9)
H11 H -0.2010 0.2086 0.2914
C8 C -0.12563(11) 0.20272(19) 0.23136(10)
H12 H -0.1272 0.1136 0.2249
C9 C 0.17096(9) -0.18813(15) -0.04385(8)
C10 C 0.22168(10) -0.18846(16) -0.08663(8)
H13 H 0.2402 -0.1104 -0.0994
C11 C 0.24501(9) -0.30454(16) -0.11054(8)
C12 C 0.21769(9) -0.42161(16) -0.09161(8)
H14 H 0.2326 -0.4991 -0.1082
C13 C 0.16783(9) -0.42261(16) -0.04756(8)
C14 C 0.14482(10) -0.30588(16) -0.02442(8)
H15 H 0.1113 -0.3065 0.0046
C15 C 0.14742(9) -0.06084(17) -0.01850(8)
C16 C 0.29997(10) -0.29919(17) -0.15569(9)
C17 C 0.14169(9) -0.54986(17) -0.02406(9)
Cd1_2 Cd 0.115953(7) -0.806389(12) 0.014472(6)
O6_2 O 0.15936(7) 0.34736(12) -0.05005(6)
O7_2 O 0.10390(8) 0.44782(14) 0.02077(7)
C18 C 0.3884(2) 0.6910(3) 0.68295(15)
H16 H 0.3471 0.7408 0.6903
H17 H 0.3770 0.6307 0.6500
H18 H 0.4253 0.7481 0.6717
O11 O 0.41199(10) 0.62134(19) 0.73809(8)
H21 H 0.4442 0.5720 0.7306
O10 O 0.04094(9) 0.58652(15) 0.10729(7)
H19 H 0.0609 0.5475 0.0789
H20 H 0.0678 0.6218 0.1358
loop_
_geom_bond_atom_site_label_1
_geom_bond_atom_site_label_2
_geom_bond_site_symmetry_1
_geom_bond_site_symmetry_2
Cd1 O2 1_555 1_555
O1 H1 1_555 1_555
O2 C15 1_555 1_555
O3 Cd1 1_555 1_555
O4 C16 1_555 1_555
O5 H2 1_555 1_555
O6 C17 1_555 1_555
O7 C17 1_555 1_555
O8 Cd1 1_555 1_555
H3 O8 1_555 1_555
H4 O8 1_555 1_555
O9 Cd1 1_555 1_555
H5 O9 1_555 1_555
H6 O9 1_555 1_555
N1 N2 1_555 1_555
N2 C1 1_555 1_555
N3 Cd1 1_555 1_555
C1 N3 1_555 1_555
H7 C1 1_555 1_555
C2 N1 1_555 1_555
H8 C2 1_555 1_555
C3 N1 1_555 1_555
C4 C3 1_555 1_555
H9 C4 1_555 1_555
C5 C4 1_555 1_555
H10 C5 1_555 1_555
C6 O1 1_555 1_555
C7 C6 1_555 1_555
H11 C7 1_555 1_555
C8 C3 1_555 1_555
H12 C8 1_555 1_555
C9 C10 1_555 1_555
C10 H13 1_555 1_555
C11 C10 1_555 1_555
C12 C11 1_555 1_555
H14 C12 1_555 1_555
C13 C12 1_555 1_555
C14 C9 1_555 1_555
H15 C14 1_555 1_555
C15 O3 1_555 1_555
C16 O5 1_555 1_555
C17 C13 1_555 1_555
C18 H16 1_555 1_555
H17 C18 1_555 1_555
H18 C18 1_555 1_555
O10 H19 1_555 1_555
H20 O10 1_555 1_555
O11 C18 1_555 1_555
H21 O11 1_555 1_555
Cd1_2 O6 1_555 1_555
O6_2 Cd1 1_555 1_555
O7_2 Cd1 1_555 1_555
O7 Cd1_2 1_555 1_555
N3 C2 1_555 1_555
C5 C6 1_555 1_555
C7 C8 1_555 1_555
C9 C15 1_555 1_555
C11 C16 1_555 1_555
C13 C14 1_555 1_555

#END
