
#######################################################################
#
#                 Cambridge Crystallographic Data Centre
#                                CCDC 
#
#######################################################################
#
# If this CIF has been generated from an entry in the Cambridge 
# Structural Database, then it will include bibliographic, chemical, 
# crystal, experimental, refinement or atomic coordinate data resulting 
# from the CCDC's data processing and validation procedures.
#
#######################################################################

data_SUHTOF
_symmetry_cell_setting           monoclinic
_symmetry_space_group_name_H-M   'P 21/n'
_symmetry_Int_Tables_number      14
_space_group_name_Hall           '-P 2yn'
loop_
_symmetry_equiv_pos_site_id
_symmetry_equiv_pos_as_xyz
1 x,y,z
2 1/2-x,1/2+y,1/2-z
3 -x,-y,-z
4 1/2+x,1/2-y,1/2+z
_cell_length_a                   7.7308(11)
_cell_length_b                   8.7036(13)
_cell_length_c                   12.9182(19)
_cell_angle_alpha                90
_cell_angle_beta                 97.791(3)
_cell_angle_gamma                90
_cell_volume                     861.188
loop_
_atom_site_label
_atom_site_type_symbol
_atom_site_fract_x
_atom_site_fract_y
_atom_site_fract_z
Cu1 Cu 0.0000 0.0000 0.5000
N1 N 0.0576(2) 0.1151(2) 0.37891(14)
N2 N 0.0478(3) 0.2874(2) 0.25171(16)
H1 H 0.0451 0.3774 0.2240
C1 C 0.0392(3) 0.2583(2) 0.35300(17)
C2 C 0.0788(4) 0.0260(3) 0.2838(2)
H2 H -0.0113 -0.0519 0.2706
H3 H 0.1921 -0.0237 0.2910
C3 C 0.0624(4) 0.1436(3) 0.19609(19)
H4 H 0.1648 0.1431 0.1602
H5 H -0.0406 0.1249 0.1459
C4 C 0.0190(3) 0.3829(2) 0.42819(17)
C5 C 0.0915(3) 0.3683(2) 0.53245(18)
H6 H 0.1534 0.2798 0.5543
C6 C -0.0729(3) 0.5167(2) 0.3962(2)
H7 H -0.1215 0.5285 0.3267
C7 C 0.4815(4) -0.2021(4) 0.5850(3)
H8 H 0.5625 -0.1671 0.6432
H9 H 0.5377 -0.2029 0.5231
H10 H 0.4432 -0.3041 0.5988
C8 C 0.3274(3) -0.0964(3) 0.56933(17)
O1 O 0.2087(2) -0.12906(17) 0.49467(11)
O2 O 0.3183(3) 0.0165(2) 0.62683(17)
Cu1_2 Cu 0.0000 1.0000 0.5000
N1B N -0.0576(2) 0.8849(2) 0.62109(14)
N1B_2 N -0.0576(2) -0.1151(2) 0.62109(14)
N2B N -0.0478(3) 0.7126(2) 0.74829(16)
H1B H -0.0451 0.6226 0.7760
C1B C -0.0392(3) 0.7417(2) 0.64700(17)
C2B C -0.0788(4) 0.9740(3) 0.7162(2)
H2B H 0.0113 1.0519 0.7294
H3B H -0.1921 1.0237 0.7090
C3B C -0.0624(4) 0.8564(3) 0.80391(19)
H4B H -0.1648 0.8569 0.8398
H5B H 0.0406 0.8751 0.8541
C4B C -0.0190(3) 0.6171(2) 0.57181(17)
C5B C -0.0915(3) 0.6317(2) 0.46755(18)
H6B H -0.1534 0.7202 0.4457
C6B C 0.0729(3) 0.4833(2) 0.6038(2)
H7B H 0.1215 0.4715 0.6733
C7B C -0.4815(4) 0.2021(4) 0.4150(3)
H8B H -0.5625 0.1671 0.3568
H9B H -0.5377 0.2029 0.4769
H10B H -0.4432 0.3041 0.4012
C8B C -0.3274(3) 0.0964(3) 0.43067(17)
O1B O -0.2087(2) 0.12906(17) 0.50533(11)
O2B O -0.3183(3) -0.0165(2) 0.37317(17)
loop_
_geom_bond_atom_site_label_1
_geom_bond_atom_site_label_2
_geom_bond_site_symmetry_1
_geom_bond_site_symmetry_2
Cu1 N1 1_555 1_555
N1 C1 1_555 1_555
N2 H1 1_555 1_555
C1 N2 1_555 1_555
C2 N1 1_555 1_555
H2 C2 1_555 1_555
H3 C2 1_555 1_555
C3 N2 1_555 1_555
H4 C3 1_555 1_555
H5 C3 1_555 1_555
C4 C1 1_555 1_555
C5 C4 1_555 1_555
H6 C5 1_555 1_555
C6 C4 1_555 1_555
H7 C6 1_555 1_555
C7 H8 1_555 1_555
H9 C7 1_555 1_555
H10 C7 1_555 1_555
C8 C7 1_555 1_555
O1 Cu1 1_555 1_555
O2 C8 1_555 1_555
Cu1_2 N1B 1_555 1_555
N1B C1B 1_555 1_555
N1B_2 Cu1 1_555 1_555
N2B H1B 1_555 1_555
C1B N2B 1_555 1_555
C2B N1B 1_555 1_555
H2B C2B 1_555 1_555
H3B C2B 1_555 1_555
C3B N2B 1_555 1_555
H4B C3B 1_555 1_555
H5B C3B 1_555 1_555
C4B C1B 1_555 1_555
C5B C6 1_555 1_555
H6B C5B 1_555 1_555
C6B C5 1_555 1_555
H7B C6B 1_555 1_555
C7B H8B 1_555 1_555
H9B C7B 1_555 1_555
H10B C7B 1_555 1_555
C8B C7B 1_555 1_555
O1B Cu1 1_555 1_555
O2B C8B 1_555 1_555
C2 C3 1_555 1_555
C8 O1 1_555 1_555
C2B C3B 1_555 1_555
C4B C5B 1_555 1_555
C4B C6B 1_555 1_555
C8B O1B 1_555 1_555

#END
