
#######################################################################
#
#                 Cambridge Crystallographic Data Centre
#                                CCDC 
#
#######################################################################
#
# If this CIF has been generated from an entry in the Cambridge 
# Structural Database, then it will include bibliographic, chemical, 
# crystal, experimental, refinement or atomic coordinate data resulting 
# from the CCDC's data processing and validation procedures.
#
#######################################################################

data_SUJFIN
_symmetry_cell_setting           monoclinic
_symmetry_space_group_name_H-M   'C 2/c'
_symmetry_Int_Tables_number      15
_space_group_name_Hall           '-C 2yn'
loop_
_symmetry_equiv_pos_site_id
_symmetry_equiv_pos_as_xyz
1 x,y,z
2 -x,y,1/2-z
3 1/2+x,1/2+y,z
4 1/2-x,1/2+y,1/2-z
5 -x,-y,-z
6 x,-y,1/2+z
7 1/2-x,1/2-y,-z
8 1/2+x,1/2-y,1/2+z
_cell_length_a                   24.416(4)
_cell_length_b                   10.7638(17)
_cell_length_c                   6.9224(11)
_cell_angle_alpha                90
_cell_angle_beta                 106.124(2)
_cell_angle_gamma                90
_cell_volume                     1747.7
loop_
_atom_site_label
_atom_site_type_symbol
_atom_site_fract_x
_atom_site_fract_y
_atom_site_fract_z
Cd1 Cd 1.0000 0.07563(4) 0.7500
O1 O 1.09453(17) 0.1615(3) 0.7581(6)
O2 O 1.14658(16) 0.3355(4) 0.7805(6)
O3 O 0.83752(17) -0.0062(4) 0.9266(6)
H1 H 0.8462 -0.0561 1.0256
H2 H 0.8675 0.0288 0.9140
O4 O 0.70487(18) -0.0041(4) 0.5692(7)
H3 H 0.6825 -0.0190 0.4535
H4 H 0.6888 -0.0245 0.6589
O5 O 0.75715(18) -0.2173(4) 0.2786(7)
H5 H 0.7921 -0.2367 0.3022
H6 H 0.7430 -0.2063 0.1530
N1 N 1.0000 0.2930(5) 0.7500
N2 N 0.9598(2) -0.0888(4) 0.8916(8)
N3 N 0.9260(2) -0.1637(4) 0.8058(7)
N4 N 0.8930(2) -0.2358(5) 0.7269(9)
C1 C 1.1011(2) 0.2791(5) 0.7666(7)
C2 C 1.0482(2) 0.3564(5) 0.7594(7)
C3 C 1.0498(2) 0.4857(5) 0.7604(9)
H7 H 1.0837 0.5276 0.7680
C4 C 1.0000 0.5510(7) 0.7500
H8 H 1.0000 0.6374 0.7500
Na1 Na 0.79118(10) -0.1230(2) 0.6149(3)
Cd1D Cd 1.0000 -0.07563(4) 1.2500
Cd1D_2 Cd 1.0000 -0.07563(4) 0.2500
O1A O 0.90547(17) 0.1615(3) 0.7419(6)
O2A O 0.85342(16) 0.3355(4) 0.7195(6)
O3E O 0.83752(17) 0.0062(4) 0.4266(6)
O3_2 O 0.83752(17) -0.0062(4) -0.0734(6)
H1E H 0.8462 0.0561 0.5256
H1_2 H 0.8462 -0.0561 0.0256
H2E H 0.8675 -0.0288 0.4140
H2_2 H 0.8675 0.0288 -0.0860
O4E O 0.70487(18) 0.0041(4) 0.0692(7)
H3E H 0.6825 0.0190 -0.0465
H4E H 0.6888 0.0245 0.1589
O5F O 0.74285(18) -0.2827(4) 0.7214(7)
O5E O 0.75715(18) 0.2173(4) -0.2214(7)
O5C O 0.74285(18) 0.2827(4) 0.2214(7)
H5F H 0.7079 -0.2633 0.6978
H5E H 0.7921 0.2367 -0.1978
H5C H 0.7079 0.2633 0.1978
H6F H 0.7570 -0.2937 0.8470
H6E H 0.7430 0.2063 -0.3470
H6C H 0.7570 0.2937 0.3470
N2E N 0.9598(2) 0.0888(4) 0.3916(8)
N2D N 1.0402(2) 0.0888(4) 1.1084(8)
N2A N 1.0402(2) -0.0888(4) 0.6084(8)
N3E N 0.9260(2) 0.1637(4) 0.3058(7)
N4E N 0.8930(2) 0.2358(5) 0.2269(9)
C1A C 0.8989(2) 0.2791(5) 0.7334(7)
C2A C 0.9518(2) 0.3564(5) 0.7406(7)
C3A C 0.9502(2) 0.4857(5) 0.7396(9)
H7A H 0.9163 0.5276 0.7320
Na1E Na 0.79118(10) 0.1230(2) 0.1149(3)
Na1E_2 Na 0.79118(10) 0.1230(2) 1.1149(3)
Na1F Na 0.70882(10) -0.3770(2) 0.3851(3)
loop_
_geom_bond_atom_site_label_1
_geom_bond_atom_site_label_2
_geom_bond_site_symmetry_1
_geom_bond_site_symmetry_2
Cd1 O1 1_555 1_555
O1 C1 1_555 1_555
O2 C1 1_555 1_555
O3 H1 1_555 1_555
H2 O3 1_555 1_555
O4 H3 1_555 1_555
H4 O4 1_555 1_555
O5 H5 1_555 1_555
H6 O5 1_555 1_555
N1 Cd1 1_555 1_555
N2 Cd1 1_555 1_555
N3 N2 1_555 1_555
N4 N3 1_555 1_555
C1 C2 1_555 1_555
C2 N1 1_555 1_555
C3 C2 1_555 1_555
H7 C3 1_555 1_555
C4 C3 1_555 1_555
H8 C4 1_555 1_555
Na1 O3 1_555 1_555
Cd1D N2 1_555 1_555
Cd1D_2 N2E 1_555 1_555
O1A Cd1 1_555 1_555
O2A C1A 1_555 1_555
O3E Na1 1_555 1_555
O3_2 H1_2 1_555 1_555
H1E O3E 1_555 1_555
H2E O3E 1_555 1_555
H2_2 O3_2 1_555 1_555
O4E H3E 1_555 1_555
H4E O4E 1_555 1_555
O5F Na1 1_555 1_555
O5E H5E 1_555 1_555
O5C H5C 1_555 1_555
H5F O5F 1_555 1_555
H6F O5F 1_555 1_555
H6E O5E 1_555 1_555
H6C O5C 1_555 1_555
N2E Cd1 1_555 1_555
N2D Cd1 1_555 1_555
N2A Cd1 1_555 1_555
N3E N2E 1_555 1_555
N4E N3E 1_555 1_555
C1A O1A 1_555 1_555
C2A N1 1_555 1_555
C3A C4 1_555 1_555
H7A C3A 1_555 1_555
Na1E O3E 1_555 1_555
Na1E_2 O3 1_555 1_555
Na1F O5 1_555 1_555
O4 Na1 1_555 1_555
O5 Na1 1_555 1_555
N4 Na1 1_555 1_555
Cd1D N2D 1_555 1_555
Cd1D_2 N2A 1_555 1_555
O3_2 Na1E 1_555 1_555
O4E Na1E 1_555 1_555
O5F Na1F 1_555 1_555
O5E Na1E 1_555 1_555
O5C Na1E 1_555 1_555
N4E Na1E 1_555 1_555
C1A C2A 1_555 1_555
C2A C3A 1_555 1_555

#END
