
#######################################################################
#
#                 Cambridge Crystallographic Data Centre
#                                CCDC 
#
#######################################################################
#
# If this CIF has been generated from an entry in the Cambridge 
# Structural Database, then it will include bibliographic, chemical, 
# crystal, experimental, refinement or atomic coordinate data resulting 
# from the CCDC's data processing and validation procedures.
#
#######################################################################

data_SUJFOT
_symmetry_cell_setting           monoclinic
_symmetry_space_group_name_H-M   'P 21/n'
_symmetry_Int_Tables_number      14
_space_group_name_Hall           '-P 2yn'
loop_
_symmetry_equiv_pos_site_id
_symmetry_equiv_pos_as_xyz
1 x,y,z
2 1/2-x,1/2+y,1/2-z
3 -x,-y,-z
4 1/2+x,1/2-y,1/2+z
_cell_length_a                   11.607(2)
_cell_length_b                   11.719(2)
_cell_length_c                   13.140(3)
_cell_angle_alpha                90
_cell_angle_beta                 110.707(3)
_cell_angle_gamma                90
_cell_volume                     1671.87
loop_
_atom_site_label
_atom_site_type_symbol
_atom_site_fract_x
_atom_site_fract_y
_atom_site_fract_z
Zn1 Zn 0.04327(3) 0.08381(2) 0.67426(2)
O1 O 0.15301(17) 0.35616(17) 0.88277(15)
O2 O 0.44952(16) 0.32194(15) 1.03346(13)
O3 O 0.39701(15) 0.46354(15) 0.91224(14)
C1 C -0.2316(3) 0.0239(3) 0.6145(2)
H1 H -0.2427 0.0672 0.5524
O4 O 0.03880(15) 0.22647(15) 0.76667(14)
C2 C -0.1799(4) -0.1700(3) 0.8939(3)
H2 H -0.2454 -0.2020 0.9089
N1 N 0.22831(19) 0.15543(18) 0.71636(17)
C3 C 0.1606(4) -0.1540(3) 1.0140(3)
H3 H 0.1776 -0.1963 1.0776
N2 N 0.1125(2) -0.0226(2) 0.82684(18)
N3 N 0.46676(18) 0.2312(2) 0.82400(18)
N4 N -0.1184(2) 0.00936(18) 0.68593(18)
C4 C -0.0652(4) -0.1854(3) 0.9635(3)
H4 H -0.0523 -0.2291 1.0257
C5 C 0.3724(2) 0.2725(2) 0.84789(19)
C6 C 0.4081(2) 0.3612(2) 0.93794(19)
C7 C 0.1389(2) 0.2774(2) 0.81723(19)
C8 C -0.2035(3) -0.1045(3) 0.7962(3)
C9 C 0.2516(2) 0.2357(2) 0.79331(19)
C10 C -0.1036(3) -0.0534(2) 0.7761(2)
C11 C 0.2270(3) -0.0431(3) 0.8936(3)
H5 H 0.2918 -0.0123 0.8767
C12 C 0.2544(4) -0.1084(3) 0.9877(3)
H6 H 0.3358 -0.1208 1.0321
C13 C 0.0382(3) -0.1368(3) 0.9449(2)
C14 C 0.0197(3) -0.0699(2) 0.8517(2)
C15 C 0.4403(3) 0.1539(2) 0.7445(2)
H7 H 0.5038 0.1251 0.7245
C16 C 0.3223(3) 0.1154(2) 0.6910(2)
H8 H 0.3080 0.0608 0.6365
C17 C -0.3343(3) -0.0239(3) 0.6296(3)
H9 H -0.4123 -0.0119 0.5780
C18 C -0.3211(3) -0.0878(3) 0.7191(3)
H10 H -0.3896 -0.1201 0.7289
Zn1A Zn 0.45673(3) 0.58381(2) 0.82574(2)
Zn1C Zn 0.54327(3) 0.41619(2) 1.17426(2)
O2C O -0.05048(16) 0.17806(15) 0.53346(13)
O3A O 0.10299(15) -0.03646(15) 0.58776(14)
O5 O 0.4807(3) 0.0801(2) 1.0823(3)
H11 H 0.5308 0.0410 1.0626
H12 H 0.5026 0.1498 1.0891
loop_
_geom_bond_atom_site_label_1
_geom_bond_atom_site_label_2
_geom_bond_site_symmetry_1
_geom_bond_site_symmetry_2
Zn1 O4 1_555 1_555
O1 C7 1_555 1_555
O2 C6 1_555 1_555
O3 C6 1_555 1_555
C1 H1 1_555 1_555
O4 C7 1_555 1_555
C2 H2 1_555 1_555
N1 Zn1 1_555 1_555
C3 H3 1_555 1_555
N2 Zn1 1_555 1_555
N3 C5 1_555 1_555
N4 Zn1 1_555 1_555
C4 C2 1_555 1_555
H4 C4 1_555 1_555
C5 C6 1_555 1_555
C7 C9 1_555 1_555
C8 C2 1_555 1_555
C9 N1 1_555 1_555
C10 N4 1_555 1_555
C11 N2 1_555 1_555
H5 C11 1_555 1_555
C12 C3 1_555 1_555
H6 C12 1_555 1_555
C13 C3 1_555 1_555
C14 N2 1_555 1_555
C15 N3 1_555 1_555
H7 C15 1_555 1_555
C16 N1 1_555 1_555
H8 C16 1_555 1_555
C17 C1 1_555 1_555
H9 C17 1_555 1_555
C18 C8 1_555 1_555
H10 C18 1_555 1_555
O5 H11 1_555 1_555
H12 O5 1_555 1_555
Zn1A O3 1_555 1_555
Zn1C O2 1_555 1_555
O2C Zn1 1_555 1_555
O3A Zn1 1_555 1_555
C1 N4 1_555 1_555
C4 C13 1_555 1_555
C5 C9 1_555 1_555
C8 C10 1_555 1_555
C10 C14 1_555 1_555
C11 C12 1_555 1_555
C13 C14 1_555 1_555
C15 C16 1_555 1_555
C17 C18 1_555 1_555

#END
