
#######################################################################
#
#                 Cambridge Crystallographic Data Centre
#                                CCDC 
#
#######################################################################
#
# If this CIF has been generated from an entry in the Cambridge 
# Structural Database, then it will include bibliographic, chemical, 
# crystal, experimental, refinement or atomic coordinate data resulting 
# from the CCDC's data processing and validation procedures.
#
#######################################################################

data_SUJFUZ
_symmetry_cell_setting           monoclinic
_symmetry_space_group_name_H-M   'P 21/c'
_symmetry_Int_Tables_number      14
_space_group_name_Hall           '-P 2ybc'
loop_
_symmetry_equiv_pos_site_id
_symmetry_equiv_pos_as_xyz
1 x,y,z
2 -x,1/2+y,1/2-z
3 -x,-y,-z
4 x,1/2-y,1/2+z
_cell_length_a                   13.830(8)
_cell_length_b                   6.488(4)
_cell_length_c                   17.632(10)
_cell_angle_alpha                90
_cell_angle_beta                 92.510(10)
_cell_angle_gamma                90
_cell_volume                     1580.58
loop_
_atom_site_label
_atom_site_type_symbol
_atom_site_fract_x
_atom_site_fract_y
_atom_site_fract_z
In1 In 0.846417(19) 0.13816(4) 0.795955(15)
O1 O 0.7655(2) 0.3545(4) 0.71841(16)
O2 O 0.69339(19) 0.0785(5) 0.75941(16)
O3 O 0.5861(2) 0.8410(5) 0.55051(18)
O4 O 0.4252(2) 0.8166(5) 0.53356(18)
O5 O 0.3507(2) 0.1299(4) 0.65761(18)
O6 O 0.9599(2) 0.3847(4) 0.78028(16)
O7 O 1.1142(2) 0.4730(5) 0.80363(15)
O8 O 0.8227(2) -0.1668(4) 0.85734(16)
O9 O 0.8891(2) -0.4052(5) 0.93624(16)
O10 O 0.7825(2) 0.2912(4) 0.89341(15)
N1 N 0.9786(2) 0.0599(5) 0.86754(16)
C1 C 0.6902(3) 0.2426(6) 0.7207(2)
C2 C 0.5990(3) 0.3077(6) 0.6800(2)
C3 C 0.5957(3) 0.4924(6) 0.6407(2)
H1 H 0.6507 0.5742 0.6384
C4 C 0.5082(3) 0.5547(6) 0.6043(2)
C5 C 0.4266(3) 0.4350(7) 0.6092(2)
H2 H 0.3687 0.4774 0.5853
C6 C 0.4300(3) 0.2511(6) 0.6496(2)
C7 C 0.5166(3) 0.1880(6) 0.6847(2)
H3 H 0.5193 0.0646 0.7115
C8 C 0.5040(3) 0.7494(7) 0.5600(2)
C9 C 1.0414(3) 0.3620(6) 0.8123(2)
C10 C 1.0559(3) 0.1819(6) 0.8654(2)
C11 C 1.1418(3) 0.1330(7) 0.9046(2)
H4 H 1.1946 0.2216 0.9043
C12 C 1.1470(3) -0.0509(7) 0.9442(2)
H5 H 1.2041 -0.0882 0.9705
C13 C 1.0676(3) -0.1788(7) 0.9445(2)
H6 H 1.0704 -0.3035 0.9705
C14 C 0.9830(3) -0.1177(6) 0.9052(2)
C15 C 0.8919(3) -0.2414(6) 0.9000(2)
H7 H 0.2953 0.1857 0.6479
H8 H 0.8207 0.4038 0.9139
H9 H 0.7296 0.3449 0.8819
H10 H 0.5743 0.9818 0.5403
In1A In 1.153583(19) 0.63816(4) 0.704045(15)
O7A O 0.8858(2) -0.0270(5) 0.69637(15)
loop_
_geom_bond_atom_site_label_1
_geom_bond_atom_site_label_2
_geom_bond_site_symmetry_1
_geom_bond_site_symmetry_2
In1 O1 1_555 1_555
O1 C1 1_555 1_555
O2 In1 1_555 1_555
O3 C8 1_555 1_555
O4 C8 1_555 1_555
O5 C6 1_555 1_555
O6 In1 1_555 1_555
O7 C9 1_555 1_555
O8 In1 1_555 1_555
O9 C15 1_555 1_555
O10 In1 1_555 1_555
N1 In1 1_555 1_555
C1 O2 1_555 1_555
C2 C1 1_555 1_555
C3 C2 1_555 1_555
H1 C3 1_555 1_555
C4 C3 1_555 1_555
C5 C4 1_555 1_555
H2 C5 1_555 1_555
C6 C5 1_555 1_555
C7 C2 1_555 1_555
H3 C7 1_555 1_555
C8 C4 1_555 1_555
C9 O6 1_555 1_555
C10 N1 1_555 1_555
C11 C10 1_555 1_555
H4 C11 1_555 1_555
C12 C11 1_555 1_555
H5 C12 1_555 1_555
C13 C12 1_555 1_555
H6 C13 1_555 1_555
C14 N1 1_555 1_555
C15 O8 1_555 1_555
H7 O5 1_555 1_555
H8 O10 1_555 1_555
H9 O10 1_555 1_555
H10 O3 1_555 1_555
In1A O7 1_555 1_555
O7A In1 1_555 1_555
C6 C7 1_555 1_555
C9 C10 1_555 1_555
C13 C14 1_555 1_555
C14 C15 1_555 1_555

#END
