
#######################################################################
#
#                 Cambridge Crystallographic Data Centre
#                                CCDC 
#
#######################################################################
#
# If this CIF has been generated from an entry in the Cambridge 
# Structural Database, then it will include bibliographic, chemical, 
# crystal, experimental, refinement or atomic coordinate data resulting 
# from the CCDC's data processing and validation procedures.
#
#######################################################################

data_SUJGAG
_symmetry_cell_setting           monoclinic
_symmetry_space_group_name_H-M   'C 2/c'
_symmetry_Int_Tables_number      15
_space_group_name_Hall           '-C 2yn'
loop_
_symmetry_equiv_pos_site_id
_symmetry_equiv_pos_as_xyz
1 x,y,z
2 -x,y,1/2-z
3 1/2+x,1/2+y,z
4 1/2-x,1/2+y,1/2-z
5 -x,-y,-z
6 x,-y,1/2+z
7 1/2-x,1/2-y,-z
8 1/2+x,1/2-y,1/2+z
_cell_length_a                   22.154(5)
_cell_length_b                   7.4835(15)
_cell_length_c                   21.044(8)
_cell_angle_alpha                90
_cell_angle_beta                 115.51(3)
_cell_angle_gamma                90
_cell_volume                     3148.74
loop_
_atom_site_label
_atom_site_type_symbol
_atom_site_fract_x
_atom_site_fract_y
_atom_site_fract_z
Cd1 Cd -0.188231(6) 0.078948(17) 0.049319(6)
N1 N -0.19705(8) 0.3030(2) 0.17665(8)
H1 H -0.2238 0.3741 0.1450
N2 N -0.16942(8) 0.1559(2) 0.16271(7)
N3 N -0.34159(8) 0.0392(2) 0.00955(9)
N4 N -0.20822(12) -0.2139(3) 0.08217(10)
N5 N 0.05311(8) -0.0985(2) 0.44019(9)
H2 H 0.0775 -0.1881 0.4622
N6 N 0.07667(8) 0.0478(2) 0.42089(8)
N7 N -0.28466(9) -0.4464(2) 0.06293(9)
N8 N -0.37885(11) -0.0586(2) 0.01531(13)
N9 N -0.24716(9) -0.3272(2) 0.07211(8)
N10 N -0.30273(8) 0.1402(2) 0.00364(9)
C1 C -0.13172(9) 0.0828(2) 0.22533(9)
C2 C -0.20335(14) 0.4743(4) 0.27459(15)
H3 H -0.2320 0.5492 0.2365
H4 H -0.1664 0.5434 0.3070
H5 H -0.2282 0.4264 0.2985
C3 C -0.09466(12) -0.0868(3) 0.23056(11)
H6 H -0.1020 -0.1252 0.1843
H7 H -0.1104 -0.1771 0.2522
H8 H -0.0477 -0.0674 0.2586
C4 C -0.17757(9) 0.3243(3) 0.24612(10)
C5 C -0.13521(8) 0.1851(3) 0.27942(9)
C6 C 0.02954(11) 0.3295(3) 0.35750(11)
H9 H 0.0752 0.3484 0.3659
H10 H 0.0157 0.4234 0.3794
H11 H 0.0016 0.3297 0.3077
C7 C -0.05051(12) -0.2365(3) 0.43477(12)
H12 H -0.0199 -0.3297 0.4604
H13 H -0.0831 -0.2830 0.3908
H14 H -0.0727 -0.1926 0.4620
C8 C 0.02346(9) 0.1534(3) 0.38787(9)
C9 C -0.01296(10) -0.0877(3) 0.42088(10)
C10 C -0.03379(9) 0.0733(3) 0.38723(9)
C11 C -0.10351(9) 0.1502(4) 0.35750(10)
H15 H -0.1320 0.0686 0.3681
H16 H -0.1021 0.2618 0.3816
Cd1A Cd 0.188231(6) 0.078948(17) 0.450681(6)
Cd1F Cd -0.311769(6) -0.578948(17) -0.049319(6)
Cd1F_2 Cd -0.311769(6) 0.421052(17) -0.049319(6)
Cd1G Cd 0.311769(6) -0.578948(17) 0.549319(6)
Cd1G_2 Cd 0.311769(6) 0.421052(17) 0.549319(6)
N1A N 0.19705(8) 0.3030(2) 0.32335(8)
H1A H 0.2238 0.3741 0.3550
N2A N 0.16942(8) 0.1559(2) 0.33729(7)
N3A N 0.34159(8) 0.0392(2) 0.49045(9)
N4A N 0.20822(12) -0.2139(3) 0.41783(10)
N5A N -0.05311(8) -0.0985(2) 0.05981(9)
H2A H -0.0775 -0.1881 0.0378
N6A N -0.07667(8) 0.0478(2) 0.07911(8)
N7A N 0.28466(9) -0.4464(2) 0.43707(9)
N7F N -0.21534(9) -0.0536(2) -0.06293(9)
N7G N 0.21534(9) -0.0536(2) 0.56293(9)
N8A N 0.37885(11) -0.0586(2) 0.48469(13)
N9A N 0.24716(9) -0.3272(2) 0.42789(8)
N10A N 0.30273(8) 0.1402(2) 0.49636(9)
N10F N -0.19727(8) 0.3598(2) -0.00364(9)
N10G N 0.19727(8) 0.3598(2) 0.50364(9)
C1A C 0.13172(9) 0.0828(2) 0.27467(9)
C2A C 0.20335(14) 0.4743(4) 0.22541(15)
H3A H 0.2320 0.5492 0.2635
H4A H 0.1664 0.5434 0.1930
H5A H 0.2282 0.4264 0.2015
C3A C 0.09466(12) -0.0868(3) 0.26944(11)
H6A H 0.1020 -0.1252 0.3157
H7A H 0.1104 -0.1771 0.2478
H8A H 0.0477 -0.0674 0.2414
C4A C 0.17757(9) 0.3243(3) 0.25388(10)
C5A C 0.13521(8) 0.1851(3) 0.22058(9)
C6A C -0.02954(11) 0.3295(3) 0.14250(11)
H9A H -0.0752 0.3484 0.1341
H10A H -0.0157 0.4234 0.1206
H11A H -0.0016 0.3297 0.1923
C7A C 0.05051(12) -0.2365(3) 0.06523(12)
H12A H 0.0199 -0.3297 0.0396
H13A H 0.0831 -0.2830 0.1092
H14A H 0.0727 -0.1926 0.0380
C8A C -0.02346(9) 0.1534(3) 0.11213(9)
C9A C 0.01296(10) -0.0877(3) 0.07912(10)
C10A C 0.03379(9) 0.0733(3) 0.11277(9)
C11A C 0.10351(9) 0.1502(4) 0.14250(10)
H15A H 0.1320 0.0686 0.1319
H16A H 0.1021 0.2618 0.1184
loop_
_geom_bond_atom_site_label_1
_geom_bond_atom_site_label_2
_geom_bond_site_symmetry_1
_geom_bond_site_symmetry_2
Cd1 N2 1_555 1_555
N1 H1 1_555 1_555
N2 N1 1_555 1_555
N3 N8 1_555 1_555
N4 Cd1 1_555 1_555
N5 H2 1_555 1_555
N6 N5 1_555 1_555
N7 N9 1_555 1_555
N9 N4 1_555 1_555
N10 Cd1 1_555 1_555
C1 N2 1_555 1_555
C2 H3 1_555 1_555
H4 C2 1_555 1_555
H5 C2 1_555 1_555
C3 C1 1_555 1_555
H6 C3 1_555 1_555
H7 C3 1_555 1_555
H8 C3 1_555 1_555
C4 N1 1_555 1_555
C5 C1 1_555 1_555
C6 H9 1_555 1_555
H10 C6 1_555 1_555
H11 C6 1_555 1_555
C7 H12 1_555 1_555
H13 C7 1_555 1_555
H14 C7 1_555 1_555
C8 N6 1_555 1_555
C9 N5 1_555 1_555
C10 C8 1_555 1_555
C11 C5 1_555 1_555
H15 C11 1_555 1_555
H16 C11 1_555 1_555
Cd1A N6 1_555 1_555
Cd1F N7 1_555 1_555
Cd1F_2 N10 1_555 1_555
Cd1G N7A 1_555 1_555
Cd1G_2 N10A 1_555 1_555
N1A H1A 1_555 1_555
N2A Cd1A 1_555 1_555
N3A N8A 1_555 1_555
N4A Cd1A 1_555 1_555
N5A H2A 1_555 1_555
N6A Cd1 1_555 1_555
N7A N9A 1_555 1_555
N7F Cd1 1_555 1_555
N7G Cd1A 1_555 1_555
N9A N4A 1_555 1_555
N10A Cd1A 1_555 1_555
N10F Cd1 1_555 1_555
N10G Cd1A 1_555 1_555
C1A N2A 1_555 1_555
C2A H3A 1_555 1_555
H4A C2A 1_555 1_555
H5A C2A 1_555 1_555
C3A C1A 1_555 1_555
H6A C3A 1_555 1_555
H7A C3A 1_555 1_555
H8A C3A 1_555 1_555
C4A N1A 1_555 1_555
C5A C1A 1_555 1_555
C6A H9A 1_555 1_555
H10A C6A 1_555 1_555
H11A C6A 1_555 1_555
C7A H12A 1_555 1_555
H13A C7A 1_555 1_555
H14A C7A 1_555 1_555
C8A N6A 1_555 1_555
C9A N5A 1_555 1_555
C10A C8A 1_555 1_555
C11A C5A 1_555 1_555
H15A C11A 1_555 1_555
H16A C11A 1_555 1_555
N3 N10 1_555 1_555
C2 C4 1_555 1_555
C4 C5 1_555 1_555
C6 C8 1_555 1_555
C7 C9 1_555 1_555
C9 C10 1_555 1_555
C10 C11 1_555 1_555
Cd1F_2 N10F 1_555 1_555
Cd1G_2 N10G 1_555 1_555
N1A N2A 1_555 1_555
N3A N10A 1_555 1_555
N5A N6A 1_555 1_555
C2A C4A 1_555 1_555
C4A C5A 1_555 1_555
C6A C8A 1_555 1_555
C7A C9A 1_555 1_555
C9A C10A 1_555 1_555
C10A C11A 1_555 1_555

#END
