
#######################################################################
#
#                 Cambridge Crystallographic Data Centre
#                                CCDC 
#
#######################################################################
#
# If this CIF has been generated from an entry in the Cambridge 
# Structural Database, then it will include bibliographic, chemical, 
# crystal, experimental, refinement or atomic coordinate data resulting 
# from the CCDC's data processing and validation procedures.
#
#######################################################################

data_SUJHEL
_symmetry_cell_setting           monoclinic
_symmetry_space_group_name_H-M   'P 21/c'
_symmetry_Int_Tables_number      14
_space_group_name_Hall           '-P 2ybc'
loop_
_symmetry_equiv_pos_site_id
_symmetry_equiv_pos_as_xyz
1 x,y,z
2 -x,1/2+y,1/2-z
3 -x,-y,-z
4 x,1/2-y,1/2+z
_cell_length_a                   9.2298(18)
_cell_length_b                   13.339(3)
_cell_length_c                   17.090(3)
_cell_angle_alpha                90
_cell_angle_beta                 105.38(2)
_cell_angle_gamma                90
_cell_volume                     2028.71
loop_
_atom_site_label
_atom_site_type_symbol
_atom_site_fract_x
_atom_site_fract_y
_atom_site_fract_z
Bi1 Bi 0.92015(3) 0.002854(15) 0.654121(14)
O1 O 0.7683(7) -0.0155(4) 0.5196(3)
O2 O 0.7532(6) 0.1458(4) 0.5480(3)
O3 O 0.6956(6) 0.4917(3) 0.1832(4)
O4 O 0.8056(5) 0.3543(4) 0.2445(3)
O5 O 1.1772(6) -0.0804(4) 0.7454(3)
O6 O 0.9918(6) -0.0405(4) 0.7988(3)
O7 O 0.8661(6) -0.3383(3) 1.1480(3)
O8 O 1.0327(6) -0.3543(3) 1.0761(3)
O12 O 1.1368(8) 0.1036(5) 0.6094(4)
H1 H 1.179(11) 0.116(7) 0.572(4)
H2 H 1.160(12) 0.151(6) 0.644(5)
N1 N 0.5930(6) 0.1895(4) 0.3872(3)
N2 N 0.5618(6) 0.3221(4) 0.3143(3)
N3 N 1.1355(6) -0.1344(4) 0.9448(3)
N4 N 1.0209(6) -0.1522(4) 1.0376(3)
C1 C 0.7238(8) 0.0747(5) 0.5000(3)
C2 C 0.6313(8) 0.0860(5) 0.4129(4)
H5 H 0.6877 0.0561 0.3769
H6 H 0.5370 0.0475 0.4057
C3 C 0.6181(7) 0.2304(5) 0.3213(4)
H7 H 0.6677 0.1993 0.2855
C4 C 0.5180(7) 0.2565(5) 0.4230(4)
H8 H 0.4856 0.2459 0.4707
C5 C 0.4989(8) 0.3405(6) 0.3774(4)
H9 H 0.4512 0.4007 0.3870
C6 C 0.5539(8) 0.3918(6) 0.2465(4)
H10 H 0.5141 0.4566 0.2598
H11 H 0.4810 0.3649 0.1977
C7 C 0.6987(7) 0.4112(5) 0.2257(3)
C8 C 1.1141(7) -0.0847(5) 0.8015(4)
C9 C 1.1868(8) -0.1502(6) 0.8714(4)
H12 H 1.1682 -0.2210 0.8544
H13 H 1.2967 -0.1390 0.8852
C10 C 1.0306(8) -0.1866(5) 0.9666(4)
H14 H 0.9725 -0.2394 0.9366
C11 C 1.1936(8) -0.0637(5) 1.0035(4)
H15 H 1.2701 -0.0162 1.0032
C12 C 1.1201(8) -0.0755(5) 1.0619(4)
H16 H 1.1349 -0.0375 1.1104
C13 C 0.9236(7) -0.1921(5) 1.0854(4)
H17 H 0.8174 -0.1806 1.0554
H18 H 0.9430 -0.1549 1.1373
C14 C 0.9471(8) -0.3032(5) 1.1034(4)
Bi1C Bi 0.92015(3) 0.497146(15) 0.154121(14)
Bi1C_2 Bi 0.92015(3) -0.502854(15) 1.154121(14)
O3C O 0.6956(6) 0.0083(3) 0.6832(4)
O4C O 0.8056(5) 0.1457(4) 0.7445(3)
O7C O 0.8661(6) -0.1617(3) 0.6480(3)
O8C O 1.0327(6) -0.1457(3) 0.5761(3)
O9 O 0.3750(13) 0.2683(6) 0.5835(6)
O10 O 0.4534(9) 0.4078(5) 0.5504(5)
O11 O 0.3905(16) 0.3917(8) 0.6597(6)
N5 N 0.4068(9) 0.3570(6) 0.5981(5)
O13 O 1.2312(11) 0.2486(5) 0.7227(5)
H3 H 1.253(14) 0.305(4) 0.705(8)
H4 H 1.161(11) 0.257(8) 0.745(7)
loop_
_geom_bond_atom_site_label_1
_geom_bond_atom_site_label_2
_geom_bond_site_symmetry_1
_geom_bond_site_symmetry_2
Bi1 O1 1_555 1_555
O1 C1 1_555 1_555
O2 Bi1 1_555 1_555
O3 C7 1_555 1_555
O4 C7 1_555 1_555
O5 Bi1 1_555 1_555
O6 Bi1 1_555 1_555
O7 C14 1_555 1_555
O8 C14 1_555 1_555
O9 N5 1_555 1_555
O10 N5 1_555 1_555
O11 N5 1_555 1_555
O12 Bi1 1_555 1_555
H1 O12 1_555 1_555
H2 O12 1_555 1_555
O13 H3 1_555 1_555
H4 O13 1_555 1_555
N1 C2 1_555 1_555
N2 C3 1_555 1_555
N3 C9 1_555 1_555
N4 C10 1_555 1_555
C1 O2 1_555 1_555
C2 C1 1_555 1_555
H5 C2 1_555 1_555
H6 C2 1_555 1_555
C3 N1 1_555 1_555
H7 C3 1_555 1_555
C4 N1 1_555 1_555
H8 C4 1_555 1_555
C5 N2 1_555 1_555
H9 C5 1_555 1_555
C6 N2 1_555 1_555
H10 C6 1_555 1_555
H11 C6 1_555 1_555
C7 C6 1_555 1_555
C8 O5 1_555 1_555
C9 C8 1_555 1_555
H12 C9 1_555 1_555
H13 C9 1_555 1_555
C10 N3 1_555 1_555
H14 C10 1_555 1_555
C11 N3 1_555 1_555
H15 C11 1_555 1_555
C12 N4 1_555 1_555
H16 C12 1_555 1_555
C13 N4 1_555 1_555
H17 C13 1_555 1_555
H18 C13 1_555 1_555
C14 C13 1_555 1_555
Bi1C O3 1_555 1_555
Bi1C_2 O7 1_555 1_555
O3C Bi1 1_555 1_555
O4C Bi1 1_555 1_555
O7C Bi1 1_555 1_555
O8C Bi1 1_555 1_555
O4 Bi1C 1_555 1_555
O6 C8 1_555 1_555
O8 Bi1C_2 1_555 1_555
C4 C5 1_555 1_555
C11 C12 1_555 1_555

#END
