
#######################################################################
#
#                 Cambridge Crystallographic Data Centre
#                                CCDC 
#
#######################################################################
#
# If this CIF has been generated from an entry in the Cambridge 
# Structural Database, then it will include bibliographic, chemical, 
# crystal, experimental, refinement or atomic coordinate data resulting 
# from the CCDC's data processing and validation procedures.
#
#######################################################################

data_SUJHIP
_symmetry_cell_setting           monoclinic
_symmetry_space_group_name_H-M   'C 2/c'
_symmetry_Int_Tables_number      15
_space_group_name_Hall           '-C 2yn'
loop_
_symmetry_equiv_pos_site_id
_symmetry_equiv_pos_as_xyz
1 x,y,z
2 -x,y,1/2-z
3 1/2+x,1/2+y,z
4 1/2-x,1/2+y,1/2-z
5 -x,-y,-z
6 x,-y,1/2+z
7 1/2-x,1/2-y,-z
8 1/2+x,1/2-y,1/2+z
_cell_length_a                   24.109(8)
_cell_length_b                   16.596(8)
_cell_length_c                   7.983(3)
_cell_angle_alpha                90
_cell_angle_beta                 91.590(15)
_cell_angle_gamma                90
_cell_volume                     3192.87
loop_
_atom_site_label
_atom_site_type_symbol
_atom_site_fract_x
_atom_site_fract_y
_atom_site_fract_z
Pb1 Pb 0.0000 0.047179(15) 0.2500
I1 I 0.081592(16) -0.07514(3) 0.06461(5)
N3 N 0.04936(18) 0.1794(3) 0.1401(6)
O1 O 0.0000 0.4512(4) 0.2500
C1 C 0.0928(2) 0.1920(4) 0.0442(7)
H1 H 0.1114 0.1477 0.0017
C2 C 0.1118(3) 0.2697(4) 0.0046(8)
H2 H 0.1427 0.2759 -0.0617
C3 C 0.0845(3) 0.3376(4) 0.0643(8)
H3 H 0.0962 0.3896 0.0398
C4 C 0.0393(2) 0.3233(3) 0.1615(7)
C5 C 0.0240(2) 0.2447(3) 0.1966(6)
C6 C 0.0000 0.3793(5) 0.2500
Pb1D Pb 0.0000 -0.047179(15) -0.2500
Pb1D_2 Pb 0.0000 -0.047179(15) 0.7500
I1A I -0.081592(16) -0.07514(3) 0.43539(5)
I1D I -0.081592(16) 0.07514(3) -0.06461(5)
I1E I 0.081592(16) 0.07514(3) 0.56461(5)
N3A N -0.04936(18) 0.1794(3) 0.3599(6)
C1A C -0.0928(2) 0.1920(4) 0.4558(7)
H1A H -0.1114 0.1477 0.4983
C2A C -0.1118(3) 0.2697(4) 0.4954(8)
H2A H -0.1427 0.2759 0.5617
C3A C -0.0845(3) 0.3376(4) 0.4357(8)
H3A H -0.0962 0.3896 0.4602
C4A C -0.0393(2) 0.3233(3) 0.3385(7)
C5A C -0.0240(2) 0.2447(3) 0.3034(6)
N1 N 0.3818(3) 0.0349(3) -0.5373(8)
N2 N 0.2981(2) -0.0817(3) -0.3905(7)
O2 O 0.2419(2) 0.1855(4) -0.2615(7)
C7 C 0.2555(3) -0.1194(4) -0.3174(8)
H4 H 0.2542 -0.1753 -0.3230
C8 C 0.2135(3) -0.0805(4) -0.2347(9)
H5 H 0.1852 -0.1101 -0.1869
C9 C 0.2137(3) 0.0030(4) -0.2237(8)
H6 H 0.1861 0.0309 -0.1691
C10 C 0.2565(3) 0.0419(3) -0.2969(8)
C11 C 0.2974(2) -0.0016(3) -0.3774(7)
C12 C 0.3378(3) 0.0545(3) -0.4500(8)
C13 C 0.3203(3) 0.1336(3) -0.4143(8)
C14 C 0.3524(3) 0.1970(5) -0.4764(9)
H7 H 0.3430 0.2505 -0.4565
C15 C 0.3963(3) 0.1785(5) -0.5638(10)
H8 H 0.4176 0.2197 -0.6082
C16 C 0.4114(3) 0.0988(4) -0.5909(9)
H9 H 0.4436 0.0888 -0.6491
C17 C 0.2697(3) 0.1290(4) -0.3152(8)
loop_
_geom_bond_atom_site_label_1
_geom_bond_atom_site_label_2
_geom_bond_site_symmetry_1
_geom_bond_site_symmetry_2
Pb1 I1 1_555 1_555
I1 Pb1D 1_555 1_555
N1 C12 1_555 1_555
N2 C7 1_555 1_555
N3 Pb1 1_555 1_555
O1 C6 1_555 1_555
O2 C17 1_555 1_555
C1 N3 1_555 1_555
H1 C1 1_555 1_555
C2 C1 1_555 1_555
H2 C2 1_555 1_555
C3 C2 1_555 1_555
H3 C3 1_555 1_555
C4 C3 1_555 1_555
C5 N3 1_555 1_555
C6 C4 1_555 1_555
C7 H4 1_555 1_555
C8 C7 1_555 1_555
H5 C8 1_555 1_555
C9 C8 1_555 1_555
H6 C9 1_555 1_555
C10 C9 1_555 1_555
C11 N2 1_555 1_555
C12 C11 1_555 1_555
C13 C12 1_555 1_555
C14 C13 1_555 1_555
H7 C14 1_555 1_555
C15 C14 1_555 1_555
H8 C15 1_555 1_555
C16 N1 1_555 1_555
H9 C16 1_555 1_555
C17 C10 1_555 1_555
Pb1D I1D 1_555 1_555
Pb1D_2 I1A 1_555 1_555
I1A Pb1 1_555 1_555
I1D Pb1 1_555 1_555
I1E Pb1 1_555 1_555
N3A Pb1 1_555 1_555
C1A N3A 1_555 1_555
H1A C1A 1_555 1_555
C2A C1A 1_555 1_555
H2A C2A 1_555 1_555
C3A C2A 1_555 1_555
H3A C3A 1_555 1_555
C4A C6 1_555 1_555
C5A C5 1_555 1_555
C4 C5 1_555 1_555
C10 C11 1_555 1_555
C13 C17 1_555 1_555
C15 C16 1_555 1_555
Pb1D_2 I1E 1_555 1_555
N3A C5A 1_555 1_555
C3A C4A 1_555 1_555
C4A C5A 1_555 1_555

#END
