
#######################################################################
#
#                 Cambridge Crystallographic Data Centre
#                                CCDC 
#
#######################################################################
#
# If this CIF has been generated from an entry in the Cambridge 
# Structural Database, then it will include bibliographic, chemical, 
# crystal, experimental, refinement or atomic coordinate data resulting 
# from the CCDC's data processing and validation procedures.
#
#######################################################################

data_SUJJUD
_symmetry_cell_setting           monoclinic
_symmetry_space_group_name_H-M   'C 2'
_symmetry_Int_Tables_number      5
_space_group_name_Hall           'C 2y'
loop_
_symmetry_equiv_pos_site_id
_symmetry_equiv_pos_as_xyz
1 x,y,z
2 -x,y,-z
3 1/2+x,1/2+y,z
4 1/2-x,1/2+y,-z
_cell_length_a                   20.600(3)
_cell_length_b                   11.6980(11)
_cell_length_c                   9.2944(10)
_cell_angle_alpha                90
_cell_angle_beta                 107.837(4)
_cell_angle_gamma                90
_cell_volume                     2132.09
loop_
_atom_site_label
_atom_site_type_symbol
_atom_site_fract_x
_atom_site_fract_y
_atom_site_fract_z
Mo1 Mo 0.60357(2) 1.12390(4) 0.86718(5)
Mo2 Mo 0.42183(2) 1.40000(4) 1.05250(5)
Mo3 Mo 0.5000 0.95638(6) 1.0000
Co1 Co 0.63934(4) 1.05606(8) 1.50540(9)
P1 P 0.56265(7) 1.20693(14) 1.19755(15)
O1 O 0.6017(2) 1.1257(4) 0.6812(4)
O2 O 0.5750(2) 1.1068(4) 1.0985(4)
O3 O 0.4849(2) 1.2363(4) 1.1509(4)
O4 O 0.6765(2) 1.0515(5) 0.9590(5)
O5 O 0.5366(2) 1.0048(4) 0.8433(4)
O6 O 0.6380(2) 1.2756(4) 0.9251(5)
O7 O 0.3606(2) 1.4943(5) 0.9617(5)
O8 O 0.5992(2) 1.3126(4) 1.1661(4)
O9 O 0.5000 1.4504(6) 1.0000
O10 O 0.4445(2) 1.4477(4) 1.2361(5)
O11 O 0.4378(2) 0.8660(4) 0.8948(5)
O12 O 0.5864(2) 1.1764(4) 1.3640(4)
O13 O 0.6860(3) 0.9317(5) 1.6561(6)
O14 O 0.7006(3) 0.7931(6) 1.5069(6)
H1 H 0.6891 0.8424 1.4413
O15 O 0.6819(3) 0.9938(6) 1.3375(6)
H2 H 0.6500 0.9551 1.2775
H3 H 0.6837 1.0549 1.2894
O16 O 0.5521(3) 0.9451(5) 1.4317(5)
H4 H 0.5170 0.9790 1.3756
H5 H 0.5704 0.9097 1.3741
O17 O 0.7270(3) 1.1526(6) 1.6020(6)
H6 H 0.7624 1.1213 1.6612
H7 H 0.7271 1.1750 1.5151
C1 C 0.7012(4) 0.8350(7) 1.6323(8)
C2 C 0.7214(4) 0.7506(7) 1.7638(8)
H15 H 0.7633 0.7101 1.7656
C3 C 0.6649(5) 0.6652(9) 1.7644(11)
H16 H 0.6359 0.6496 1.6625
H17 H 0.6841 0.5939 1.8120
C4 C 0.6264(4) 0.7247(8) 1.8540(10)
H18 H 0.5979 0.7850 1.7956
H19 H 0.5981 0.6716 1.8883
C5 C 0.6816(4) 0.7723(8) 1.9833(10)
H20 H 0.7019 0.7135 2.0570
H21 H 0.6648 0.8335 2.0326
N1 N 0.7317(3) 0.8163(5) 1.9077(6)
H22 H 0.7248 0.8914 1.8875
H23 H 0.7746 0.8067 1.9689
Mo1A Mo 0.39643(2) 1.12390(4) 1.13282(5)
Mo2A Mo 0.57817(2) 1.40000(4) 0.94750(5)
Co1A Co 0.36066(4) 1.05606(8) 0.49460(9)
Co1_2 Co 0.63934(4) 1.05606(8) 0.50540(9)
Co1A_2 Co 0.36066(4) 1.05606(8) 1.49460(9)
P1A P 0.43735(7) 1.20693(14) 0.80245(15)
O1_2 O 0.6017(2) 1.1257(4) 1.6812(4)
O1A O 0.3983(2) 1.1257(4) 1.3188(4)
O1A_2 O 0.3983(2) 1.1257(4) 0.3188(4)
O2A O 0.4250(2) 1.1068(4) 0.9015(4)
O3A O 0.5151(2) 1.2363(4) 0.8491(4)
O4A O 0.3235(2) 1.0515(5) 1.0410(5)
O5A O 0.4634(2) 1.0048(4) 1.1567(4)
O6A O 0.3620(2) 1.2756(4) 1.0749(5)
O7A O 0.6394(2) 1.4943(5) 1.0383(5)
O8A O 0.4008(2) 1.3126(4) 0.8339(4)
O10A O 0.5555(2) 1.4477(4) 0.7639(5)
O11A O 0.5622(2) 0.8660(4) 1.1052(5)
O12A O 0.4136(2) 1.1764(4) 0.6360(4)
O13A O 0.3140(3) 0.9317(5) 0.3439(6)
O14A O 0.2994(3) 0.7931(6) 0.4931(6)
H1A H 0.3109 0.8424 0.5587
O15A O 0.3181(3) 0.9938(6) 0.6625(6)
H2A H 0.3500 0.9551 0.7225
H3A H 0.3163 1.0549 0.7106
O16A O 0.4479(3) 0.9451(5) 0.5683(5)
H4A H 0.4830 0.9790 0.6244
H5A H 0.4296 0.9097 0.6259
O17A O 0.2730(3) 1.1526(6) 0.3980(6)
H6A H 0.2376 1.1213 0.3388
H7A H 0.2729 1.1750 0.4849
C1A C 0.2988(4) 0.8350(7) 0.3677(8)
C2A C 0.2786(4) 0.7506(7) 0.2362(8)
H15A H 0.2367 0.7101 0.2344
C3A C 0.3351(5) 0.6652(9) 0.2356(11)
H16A H 0.3641 0.6496 0.3375
H17A H 0.3159 0.5939 0.1880
C4A C 0.3736(4) 0.7247(8) 0.1460(10)
H18A H 0.4021 0.7850 0.2044
H19A H 0.4019 0.6716 0.1117
C5A C 0.3184(4) 0.7723(8) 0.0167(10)
H20A H 0.2981 0.7135 -0.0570
H21A H 0.3352 0.8335 -0.0326
N1A N 0.2683(3) 0.8163(5) 0.0923(6)
H22A H 0.2752 0.8914 0.1125
H23A H 0.2254 0.8067 0.0311
O18 O 0.6561(4) 0.4893(8) 0.3804(8)
H8 H 0.6658 0.4580 0.4669
H9 H 0.6393 0.4387 0.3138
O19 O 0.6846(5) 1.3745(9) 0.6665(10)
H10 H 0.6900 1.3043 0.6496
H11 H 0.6482 1.3817 0.6905
O20 O 0.5000 0.3039(8) 0.5000
H12 H 0.5163 0.3458 0.5775
H12A H 0.4837 0.3458 0.4225
O21 O 0.5569(7) 0.6574(14) 0.2789(19)
H13 H 0.5655 0.7141 0.2305
H14 H 0.5914 0.6135 0.3036
loop_
_geom_bond_atom_site_label_1
_geom_bond_atom_site_label_2
_geom_bond_site_symmetry_1
_geom_bond_site_symmetry_2
Mo1 O1 1_555 1_555
Mo2 O3 1_555 1_555
Mo3 O2 1_555 1_555
Co1 O12 1_555 1_555
P1 O2 1_555 1_555
O1 Co1_2 1_555 1_555
O2 Mo1 1_555 1_555
O3 P1 1_555 1_555
O4 Mo1 1_555 1_555
O5 Mo1 1_555 1_555
O6 Mo1 1_555 1_555
O7 Mo2 1_555 1_555
O8 P1 1_555 1_555
O9 Mo2 1_555 1_555
O10 Mo2 1_555 1_555
O11 Mo3 1_555 1_555
O12 P1 1_555 1_555
O13 Co1 1_555 1_555
O14 H1 1_555 1_555
O15 Co1 1_555 1_555
H2 O15 1_555 1_555
H3 O15 1_555 1_555
O16 Co1 1_555 1_555
H4 O16 1_555 1_555
H5 O16 1_555 1_555
O17 Co1 1_555 1_555
H6 O17 1_555 1_555
H7 O17 1_555 1_555
O18 H8 1_555 1_555
H9 O18 1_555 1_555
O19 H10 1_555 1_555
H11 O19 1_555 1_555
O20 H12 1_555 1_555
O21 H13 1_555 1_555
H14 O21 1_555 1_555
C1 O13 1_555 1_555
C2 C1 1_555 1_555
H15 C2 1_555 1_555
C3 C2 1_555 1_555
H16 C3 1_555 1_555
H17 C3 1_555 1_555
C4 C3 1_555 1_555
H18 C4 1_555 1_555
H19 C4 1_555 1_555
C5 C4 1_555 1_555
H20 C5 1_555 1_555
H21 C5 1_555 1_555
N1 C2 1_555 1_555
H22 N1 1_555 1_555
H23 N1 1_555 1_555
Mo1A O3 1_555 1_555
Mo2A O6 1_555 1_555
Co1A O1A_2 1_555 1_555
Co1A_2 O1A 1_555 1_555
P1A O2A 1_555 1_555
O1_2 Co1 1_555 1_555
O1A Mo1A 1_555 1_555
O2A Mo3 1_555 1_555
O3A Mo1 1_555 1_555
O4A Mo1A 1_555 1_555
O5A Mo3 1_555 1_555
O6A Mo2 1_555 1_555
O7A Mo2A 1_555 1_555
O8A Mo2 1_555 1_555
O10A Mo2A 1_555 1_555
O11A Mo3 1_555 1_555
O12A Co1A 1_555 1_555
O13A Co1A 1_555 1_555
O14A H1A 1_555 1_555
O15A Co1A 1_555 1_555
H2A O15A 1_555 1_555
H3A O15A 1_555 1_555
O16A Co1A 1_555 1_555
H4A O16A 1_555 1_555
H5A O16A 1_555 1_555
O17A Co1A 1_555 1_555
H6A O17A 1_555 1_555
H7A O17A 1_555 1_555
H12A O20 1_555 1_555
C1A O13A 1_555 1_555
C2A C1A 1_555 1_555
H15A C2A 1_555 1_555
C3A C2A 1_555 1_555
H16A C3A 1_555 1_555
H17A C3A 1_555 1_555
C4A C3A 1_555 1_555
H18A C4A 1_555 1_555
H19A C4A 1_555 1_555
C5A C4A 1_555 1_555
H20A C5A 1_555 1_555
H21A C5A 1_555 1_555
N1A C2A 1_555 1_555
H22A N1A 1_555 1_555
H23A N1A 1_555 1_555
Mo3 O5 1_555 1_555
O8 Mo2A 1_555 1_555
O9 Mo2A 1_555 1_555
O14 C1 1_555 1_555
C5 N1 1_555 1_555
Mo1A O2A 1_555 1_555
Mo1A O5A 1_555 1_555
Mo1A O6A 1_555 1_555
Mo2A O3A 1_555 1_555
P1A O3A 1_555 1_555
P1A O8A 1_555 1_555
P1A O12A 1_555 1_555
O14A C1A 1_555 1_555
C5A N1A 1_555 1_555

#END
