
#######################################################################
#
#                 Cambridge Crystallographic Data Centre
#                                CCDC 
#
#######################################################################
#
# If this CIF has been generated from an entry in the Cambridge 
# Structural Database, then it will include bibliographic, chemical, 
# crystal, experimental, refinement or atomic coordinate data resulting 
# from the CCDC's data processing and validation procedures.
#
#######################################################################

data_SUJJOX
_symmetry_cell_setting           monoclinic
_symmetry_space_group_name_H-M   'C 2/c'
_symmetry_Int_Tables_number      15
_space_group_name_Hall           '-C 2yn'
loop_
_symmetry_equiv_pos_site_id
_symmetry_equiv_pos_as_xyz
1 x,y,z
2 -x,y,1/2-z
3 1/2+x,1/2+y,z
4 1/2-x,1/2+y,1/2-z
5 -x,-y,-z
6 x,-y,1/2+z
7 1/2-x,1/2-y,-z
8 1/2+x,1/2-y,1/2+z
_cell_length_a                   18.5177(18)
_cell_length_b                   6.6194(5)
_cell_length_c                   31.563(4)
_cell_angle_alpha                90
_cell_angle_beta                 105.046(5)
_cell_angle_gamma                90
_cell_volume                     3736.23
loop_
_atom_site_label
_atom_site_type_symbol
_atom_site_fract_x
_atom_site_fract_y
_atom_site_fract_z
Mn1 Mn 0.147576(14) 0.99919(3) 0.053159(7)
O1 O 0.21619(7) 1.17444(18) 0.10465(4)
O3 O 0.25083(8) 1.41750(19) 0.06554(4)
O4 O 0.23475(9) 0.8110(2) 0.04270(5)
H3 H 0.2357(15) 0.696(4) 0.0502(9)
H4 H 0.2745(15) 0.850(4) 0.0412(9)
O5 O 0.44396(7) 1.71076(17) 0.45164(4)
O6 O 0.14799(9) 1.1240(2) -0.01105(4)
H5 H 0.1439(16) 1.246(5) -0.0128(9)
H6 H 0.1783(16) 1.098(4) -0.0250(9)
O7 O 0.06678(8) 0.75630(19) 0.02160(4)
H7 H 0.0264(14) 0.780(3) 0.0032(8)
H8 H 0.0563(13) 0.666(4) 0.0375(8)
O8 O 0.45825(9) 1.99871(16) 0.41805(4)
O9 O 0.15191(9) 0.7994(2) 0.11219(4)
H9 H 0.1212(15) 0.723(4) 0.1132(8)
H10 H 0.1656(15) 0.846(4) 0.1361(10)
O10 O 0.30114(8) 1.4613(2) 0.28968(4)
O11 O 0.33106(9) 1.17319(19) 0.26717(4)
O12 O 0.43076(9) 2.00781(17) 0.20701(4)
O13 O 0.39001(9) 1.9700(2) 0.13769(4)
N1 N 0.32009(8) 1.3544(2) 0.26259(4)
N2 N 0.39567(8) 1.9110(2) 0.17489(4)
N3 N 0.40416(10) 1.7327(2) 0.26025(4)
H11 H 0.4149(12) 1.855(3) 0.2563(7)
C1 C 0.24943(10) 1.3357(2) 0.10092(5)
C2 C 0.28998(9) 1.4374(2) 0.14326(5)
C3 C 0.29305(9) 1.3514(2) 0.18388(5)
H12 H 0.2697(11) 1.237(3) 0.1853(7)
C4 C 0.32835(9) 1.4502(2) 0.22212(5)
C5 C 0.36585(9) 1.6375(2) 0.22329(5)
C6 C 0.35996(9) 1.7201(2) 0.18088(5)
C7 C 0.32350(9) 1.6233(2) 0.14257(5)
H13 H 0.3226(11) 1.685(3) 0.1164(7)
C8 C 0.43608(10) 1.6512(2) 0.30232(5)
C9 C 0.47396(10) 1.4675(3) 0.30816(6)
H14 H 0.4768(12) 1.387(3) 0.2828(7)
C10 C 0.50584(10) 1.3973(3) 0.35023(6)
H15 H 0.5311(12) 1.279(3) 0.3552(7)
C11 C 0.49976(10) 1.5080(2) 0.38642(5)
H16 H 0.5197(12) 1.461(3) 0.4170(7)
C12 C 0.46291(9) 1.6931(2) 0.38042(5)
C13 C 0.43207(10) 1.7662(2) 0.33849(5)
H17 H 0.4068(10) 1.892(3) 0.3334(6)
C14 C 0.45383(9) 1.8106(2) 0.41922(5)
Mn1C Mn 0.352424(14) 1.49919(3) 0.446841(7)
O5C O 0.05604(7) 1.21076(17) 0.04836(4)
O2 O 0.37033(10) 0.9707(2) 0.03620(6)
H1 H 0.3884(17) 0.885(5) 0.0197(11)
H2 H 0.4061(18) 0.980(4) 0.0594(11)
loop_
_geom_bond_atom_site_label_1
_geom_bond_atom_site_label_2
_geom_bond_site_symmetry_1
_geom_bond_site_symmetry_2
Mn1 O1 1_555 1_555
O1 C1 1_555 1_555
O2 H1 1_555 1_555
H2 O2 1_555 1_555
O3 C1 1_555 1_555
O4 Mn1 1_555 1_555
H3 O4 1_555 1_555
H4 O4 1_555 1_555
O5 C14 1_555 1_555
O6 Mn1 1_555 1_555
H5 O6 1_555 1_555
H6 O6 1_555 1_555
O7 Mn1 1_555 1_555
H7 O7 1_555 1_555
H8 O7 1_555 1_555
O8 C14 1_555 1_555
O9 Mn1 1_555 1_555
H9 O9 1_555 1_555
H10 O9 1_555 1_555
O10 N1 1_555 1_555
O11 N1 1_555 1_555
O12 N2 1_555 1_555
O13 N2 1_555 1_555
N1 C4 1_555 1_555
N2 C6 1_555 1_555
N3 H11 1_555 1_555
C1 C2 1_555 1_555
C2 C3 1_555 1_555
C3 H12 1_555 1_555
C4 C3 1_555 1_555
C5 N3 1_555 1_555
C6 C5 1_555 1_555
C7 C2 1_555 1_555
H13 C7 1_555 1_555
C8 N3 1_555 1_555
C9 C8 1_555 1_555
H14 C9 1_555 1_555
C10 C9 1_555 1_555
H15 C10 1_555 1_555
C11 C10 1_555 1_555
H16 C11 1_555 1_555
C12 C11 1_555 1_555
C13 C8 1_555 1_555
H17 C13 1_555 1_555
C14 C12 1_555 1_555
Mn1C O5 1_555 1_555
O5C Mn1 1_555 1_555
C4 C5 1_555 1_555
C6 C7 1_555 1_555
C12 C13 1_555 1_555

#END
