
#######################################################################
#
#                 Cambridge Crystallographic Data Centre
#                                CCDC 
#
#######################################################################
#
# If this CIF has been generated from an entry in the Cambridge 
# Structural Database, then it will include bibliographic, chemical, 
# crystal, experimental, refinement or atomic coordinate data resulting 
# from the CCDC's data processing and validation procedures.
#
#######################################################################

data_SUJJAJ
_symmetry_cell_setting           trigonal
_symmetry_space_group_name_H-M   'P -3 c 1'
_symmetry_Int_Tables_number      165
_space_group_name_Hall           '-P 3 2"c'
loop_
_symmetry_equiv_pos_site_id
_symmetry_equiv_pos_as_xyz
1 x,y,z
2 -y,x-y,z
3 -x+y,-x,z
4 y,x,1/2-z
5 x-y,-y,1/2-z
6 -x,-x+y,1/2-z
7 -x,-y,-z
8 y,-x+y,-z
9 x-y,x,-z
10 -y,-x,1/2+z
11 -x+y,y,1/2+z
12 x,x-y,1/2+z
_cell_length_a                   14.2561(3)
_cell_length_b                   14.2561(3)
_cell_length_c                   36.3807(18)
_cell_angle_alpha                90
_cell_angle_beta                 90
_cell_angle_gamma                120
_cell_volume                     6403.29
loop_
_atom_site_label
_atom_site_type_symbol
_atom_site_fract_x
_atom_site_fract_y
_atom_site_fract_z
I1 I 0.0000 0.0000 0.5000
I3 I 0.20268(4) 0.13820(4) 0.400849(14)
Cu2 Cu 0.08960(9) -0.04220(9) 0.43761(3)
N1 N 0.1874(5) -0.0901(5) 0.46146(18)
N2 N 0.2855(5) -0.1247(5) 0.50141(17)
C1 C 0.2344(5) -0.3328(6) 0.5425(2)
C2 C 0.3184(6) -0.1365(6) 0.4665(2)
C3 C 0.3338(6) -0.2344(5) 0.54171(19)
C4 C 0.3323(6) -0.1305(6) 0.5364(2)
H1 H 0.2911 -0.1228 0.5562
H2 H 0.4058 -0.0702 0.5379
C7 C 0.1292(6) -0.3310(6) 0.5447(3)
H3 H 0.0694 -0.4039 0.5452
H4 H 0.1228 -0.2939 0.5237
H5 H 0.1286 -0.2941 0.5667
C8 C 0.2092(6) -0.0951(6) 0.4961(2)
H6 H 0.1758 -0.0800 0.5153
C9 C 0.2549(6) -0.1147(6) 0.4423(2)
C13 C 0.3973(6) -0.1598(6) 0.4541(2)
H10 H 0.4386 -0.1747 0.4703
C15 C 0.3496(7) -0.1370(7) 0.3926(2)
H14 H 0.3629 -0.1358 0.3675
C17 C 0.2712(7) -0.1167(6) 0.4043(2)
H15 H 0.2292 -0.1045 0.3875
C18 C 0.4107(7) -0.1595(7) 0.4169(3)
H16 H 0.4623 -0.1748 0.4077
I1_2 I 1.0000 0.0000 0.5000
I1_3 I 0.0000 -1.0000 0.5000
I3B I -0.06448(6) -0.20268(4) 0.400849(14)
I3A I -0.13820(4) 0.06448(6) 0.400849(14)
I3B_2 I 0.93552(6) -0.20268(4) 0.400849(14)
I3A_2 I 0.86180(4) 0.06448(6) 0.400849(14)
I3A_3 I -0.13820(4) -0.93552(6) 0.400849(14)
I3_2 I 0.20268(4) -0.86180(4) 0.400849(14)
I3F I -0.20268(4) -0.13820(4) 0.599151(14)
I3H I 0.06448(6) 0.20268(4) 0.599151(14)
Cu2B Cu -0.13180(13) -0.08960(9) 0.43761(3)
Cu2B_2 Cu 0.86820(13) -0.08960(9) 0.43761(3)
Cu2A Cu 0.04220(9) -0.86820(13) 0.43761(3)
Cu2A_2 Cu 0.04220(9) 0.13180(13) 0.43761(3)
Cu2F Cu -0.08960(9) 0.04220(9) 0.56239(3)
Cu2G Cu -0.04220(9) -0.13180(13) 0.56239(3)
Cu2H Cu 0.13180(13) 0.08960(9) 0.56239(3)
Cu2A_3 Cu -0.95780(9) -0.86820(13) 0.43761(3)
Cu2_2 Cu -0.91040(9) -0.04220(9) 0.43761(3)
Cu2_3 Cu 1.08960(9) -0.04220(9) 0.43761(3)
Cu2A_4 Cu 1.04220(9) 0.13180(13) 0.43761(3)
Cu2B_3 Cu -0.13180(13) -1.08960(9) 0.43761(3)
N1B N 0.7225(7) -0.1874(5) 0.46146(18)
N1A N 0.0901(5) -0.7225(7) 0.46146(18)
N1B_2 N -0.2775(7) -0.1874(5) 0.46146(18)
N1A_2 N -0.9099(5) -0.7225(7) 0.46146(18)
N1_2 N -0.8126(5) -0.0901(5) 0.46146(18)
N1A_3 N 0.0901(5) 0.2775(7) 0.46146(18)
N1F N -0.1874(5) 0.0901(5) 0.53854(18)
N2B N 0.5898(7) -0.2855(5) 0.50141(17)
N2A N 0.1247(5) -0.5898(7) 0.50141(17)
N2B_2 N -0.4102(7) -0.2855(5) 0.50141(17)
N2A_2 N -0.8753(5) -0.5898(7) 0.50141(17)
N2_2 N -0.7145(5) -0.1247(5) 0.50141(17)
C1A C 0.3328(6) -0.4328(8) 0.5425(2)
C1B C 0.4328(8) -0.2344(5) 0.5425(2)
C1B_2 C -0.5672(8) -0.2344(5) 0.5425(2)
C1_2 C -0.7656(5) -0.3328(6) 0.5425(2)
C1A_2 C -0.6672(6) -0.4328(8) 0.5425(2)
C2B C 0.5451(8) -0.3184(6) 0.4665(2)
C2A C 0.1365(6) -0.5451(8) 0.4665(2)
C2B_2 C -0.4549(8) -0.3184(6) 0.4665(2)
C2A_2 C -0.8635(6) -0.5451(8) 0.4665(2)
C2_2 C -0.6816(6) -0.1365(6) 0.4665(2)
C3A C 0.2344(5) -0.4318(8) 0.54171(19)
C3B C 0.4318(8) -0.3338(6) 0.54171(19)
C3B_2 C -0.5682(8) -0.3338(6) 0.54171(19)
C3_2 C -0.6662(6) -0.2344(5) 0.54171(19)
C3A_2 C -0.7656(5) -0.4318(8) 0.54171(19)
C4B C 0.5372(8) -0.3323(6) 0.5364(2)
C4A C 0.1305(6) -0.5372(8) 0.5364(2)
C4B_2 C -0.4628(8) -0.3323(6) 0.5364(2)
C4A_2 C -0.8695(6) -0.5372(8) 0.5364(2)
C4_2 C -0.6677(6) -0.1305(6) 0.5364(2)
H1B H 0.5861 -0.2911 0.5562
H1A H 0.1228 -0.5861 0.5562
H1B_2 H -0.4139 -0.2911 0.5562
H1A_2 H -0.8772 -0.5861 0.5562
H1_2 H -0.7089 -0.1228 0.5562
H2B H 0.5240 -0.4058 0.5379
H2A H 0.0702 -0.5240 0.5379
H2B_2 H -0.4760 -0.4058 0.5379
H2A_2 H -0.9298 -0.5240 0.5379
H2_2 H -0.5942 -0.0702 0.5379
C7A C 0.3310(6) -0.5398(8) 0.5447(3)
C7B C 0.5398(8) -0.1292(6) 0.5447(3)
C7B_2 C -0.4602(8) -0.1292(6) 0.5447(3)
C7_2 C -0.8708(6) -0.3310(6) 0.5447(3)
C7A_2 C -0.6690(6) -0.5398(8) 0.5447(3)
H3A H 0.4039 -0.5267 0.5452
H3B H 0.5267 -0.0694 0.5452
H3B_2 H -0.4733 -0.0694 0.5452
H3_2 H -0.9306 -0.4039 0.5452
H3A_2 H -0.5961 -0.5267 0.5452
H4A H 0.2939 -0.5833 0.5237
H4B H 0.5833 -0.1228 0.5237
H4B_2 H -0.4167 -0.1228 0.5237
H4_2 H -0.8772 -0.2939 0.5237
H4A_2 H -0.7061 -0.5833 0.5237
H5A H 0.2941 -0.5773 0.5667
H5B H 0.5773 -0.1286 0.5667
H5B_2 H -0.4227 -0.1286 0.5667
H5_2 H -0.8714 -0.2941 0.5667
H5A_2 H -0.7059 -0.5773 0.5667
C8B C 0.6957(8) -0.2092(6) 0.4961(2)
C8A C 0.0951(6) -0.6957(8) 0.4961(2)
C8B_2 C -0.3043(8) -0.2092(6) 0.4961(2)
C8A_2 C -0.9049(6) -0.6957(8) 0.4961(2)
C8_2 C -0.7908(6) -0.0951(6) 0.4961(2)
H6B H 0.7442 -0.1758 0.5153
H6A H 0.0800 -0.7442 0.5153
H6B_2 H -0.2558 -0.1758 0.5153
H6A_2 H -0.9200 -0.7442 0.5153
H6_2 H -0.8242 -0.0800 0.5153
C9B C 0.6304(8) -0.2549(6) 0.4423(2)
C9A C 0.1147(6) -0.6304(8) 0.4423(2)
C9B_2 C -0.3696(8) -0.2549(6) 0.4423(2)
C9A_2 C -0.8853(6) -0.6304(8) 0.4423(2)
C9_2 C -0.7451(6) -0.1147(6) 0.4423(2)
C13B C 0.4429(8) -0.3973(6) 0.4541(2)
C13A C 0.1598(6) -0.4429(8) 0.4541(2)
C13B_2 C -0.5571(8) -0.3973(6) 0.4541(2)
C13A_2 C -0.8402(6) -0.4429(8) 0.4541(2)
C13_2 C -0.6027(6) -0.1598(6) 0.4541(2)
H10B H 0.3867 -0.4386 0.4703
H10A H 0.1747 -0.3867 0.4703
H10B_2 H -0.6133 -0.4386 0.4703
H10A_2 H -0.8253 -0.3867 0.4703
H10_2 H -0.5614 -0.1747 0.4703
C15B C 0.5134(10) -0.3496(7) 0.3926(2)
C15A C 0.1370(7) -0.5134(10) 0.3926(2)
C15B_2 C -0.4866(10) -0.3496(7) 0.3926(2)
C15A_2 C -0.8630(7) -0.5134(10) 0.3926(2)
C15_2 C -0.6504(7) -0.1370(7) 0.3926(2)
H14B H 0.5013 -0.3629 0.3675
H14A H 0.1358 -0.5013 0.3675
H14B_2 H -0.4987 -0.3629 0.3675
H14A_2 H -0.8642 -0.5013 0.3675
H14_2 H -0.6371 -0.1358 0.3675
C17B C 0.6121(9) -0.2712(7) 0.4043(2)
C17A C 0.1167(6) -0.6121(9) 0.4043(2)
C17B_2 C -0.3879(9) -0.2712(7) 0.4043(2)
C17A_2 C -0.8833(6) -0.6121(9) 0.4043(2)
C17_2 C -0.7288(7) -0.1167(6) 0.4043(2)
H15B H 0.6663 -0.2292 0.3875
H15A H 0.1045 -0.6663 0.3875
H15B_2 H -0.3337 -0.2292 0.3875
H15A_2 H -0.8955 -0.6663 0.3875
H15_2 H -0.7708 -0.1045 0.3875
C18B C 0.4298(10) -0.4107(7) 0.4169(3)
C18A C 0.1595(7) -0.4298(10) 0.4169(3)
C18B_2 C -0.5702(10) -0.4107(7) 0.4169(3)
C18A_2 C -0.8405(7) -0.4298(10) 0.4169(3)
C18_2 C -0.5893(7) -0.1595(7) 0.4169(3)
H16B H 0.3629 -0.4623 0.4077
H16A H 0.1748 -0.3629 0.4077
H16B_2 H -0.6371 -0.4623 0.4077
H16A_2 H -0.8252 -0.3629 0.4077
H16_2 H -0.5377 -0.1748 0.4077
I2 I 0.0000 0.0000 0.31003(2)
Cu1 Cu 0.11194(11) 0.0000 0.2500
N3 N 0.1282(5) -0.1304(5) 0.23900(19)
N4 N 0.1423(5) -0.2528(5) 0.20406(18)
C5 C 0.2422(6) -0.3220(6) 0.1668(2)
C6 C 0.3449(6) -0.2298(6) 0.1663(2)
C10 C 0.1290(6) -0.1639(7) 0.2053(2)
H7 H 0.1213 -0.1306 0.1844
C11 C 0.1393(6) -0.2044(7) 0.2616(2)
C12 C 0.1417(6) -0.3094(7) 0.1701(2)
H8 H 0.1386 -0.2693 0.1490
H9 H 0.0773 -0.3806 0.1697
C14 C 0.3550(7) -0.1183(6) 0.1627(3)
H11 H 0.4302 -0.0635 0.1626
H12 H 0.3194 -0.1065 0.1831
H13 H 0.3219 -0.1148 0.1402
C16 C 0.1474(6) -0.2806(6) 0.2397(2)
C19 C 0.1410(7) -0.2098(9) 0.2999(3)
H17 H 0.1349 -0.1592 0.3143
C20 C 0.1615(7) -0.3634(7) 0.2552(3)
H18 H 0.1719 -0.4112 0.2407
C21 C 0.1591(8) -0.3696(9) 0.2929(3)
H19 H 0.1623 -0.4265 0.3042
C22 C 0.1516(8) -0.2902(9) 0.3157(3)
H20 H 0.1541 -0.2943 0.3412
I2C I 0.0000 0.0000 0.18997(2)
I2_2 I 1.0000 0.0000 0.31003(2)
I2C_2 I 1.0000 0.0000 0.18997(2)
Cu1A Cu 0.0000 0.11194(11) 0.2500
Cu1B Cu 0.88806(11) -0.11194(11) 0.2500
Cu1B_2 Cu -0.11194(11) -0.11194(11) 0.2500
Cu1A_2 Cu 0.0000 -0.88806(11) 0.2500
Cu1A_3 Cu 1.0000 0.11194(11) 0.2500
Cu1B_3 Cu 0.88806(11) 0.88806(11) 0.2500
N3B N 0.7414(7) -0.1282(5) 0.23900(19)
N3A N 0.1304(5) -0.7414(7) 0.23900(19)
N3D N 0.2586(7) 0.1304(5) 0.26100(19)
N3C N 0.8696(5) 0.1282(5) 0.26100(19)
N3E N 0.8718(5) 0.7414(7) 0.26100(19)
N3C_2 N -0.1304(5) 0.1282(5) 0.26100(19)
N3A_2 N 0.1304(5) 0.2586(7) 0.23900(19)
N3E_2 N 0.8718(5) -0.2586(7) 0.26100(19)
N4B N 0.6049(7) -0.1423(5) 0.20406(18)
N4A N 0.2528(5) -0.6049(7) 0.20406(18)
N4D N 0.3951(7) 0.2528(5) 0.29594(18)
N4C N 0.7472(5) 0.1423(5) 0.29594(18)
N4E N 0.8577(5) 0.6049(7) 0.29594(18)
C5B C 0.4358(8) -0.2422(6) 0.1668(2)
C5A C 0.3220(6) -0.4358(8) 0.1668(2)
C5D C 0.5642(8) 0.3220(6) 0.3332(2)
C5C C 0.6780(6) 0.2422(6) 0.3332(2)
C5E C 0.7578(6) 0.4358(8) 0.3332(2)
C6B C 0.4253(8) -0.3449(6) 0.1663(2)
C6A C 0.2298(6) -0.4253(8) 0.1663(2)
C6D C 0.5747(8) 0.2298(6) 0.3337(2)
C6C C 0.7702(6) 0.3449(6) 0.3337(2)
C6E C 0.6551(6) 0.4253(8) 0.3337(2)
C10B C 0.7071(9) -0.1290(6) 0.2053(2)
C10A C 0.1639(7) -0.7071(9) 0.2053(2)
C10D C 0.2929(9) 0.1639(7) 0.2947(2)
C10C C 0.8361(7) 0.1290(6) 0.2947(2)
C10E C 0.8710(6) 0.7071(9) 0.2947(2)
H7B H 0.7481 -0.1213 0.1844
H7A H 0.1306 -0.7481 0.1844
H7D H 0.2519 0.1306 0.3156
H7C H 0.8694 0.1213 0.3156
H7E H 0.8787 0.7481 0.3156
C11B C 0.6563(9) -0.1393(6) 0.2616(2)
C11A C 0.2044(7) -0.6563(9) 0.2616(2)
C11D C 0.3437(9) 0.2044(7) 0.2384(2)
C11C C 0.7956(7) 0.1393(6) 0.2384(2)
C11E C 0.8607(6) 0.6563(9) 0.2384(2)
C12B C 0.5489(9) -0.1417(6) 0.1701(2)
C12A C 0.3094(7) -0.5489(9) 0.1701(2)
C12D C 0.4511(9) 0.3094(7) 0.3299(2)
C12C C 0.6906(7) 0.1417(6) 0.3299(2)
C12E C 0.8583(6) 0.5489(9) 0.3299(2)
H8B H 0.5921 -0.1386 0.1490
H8A H 0.2693 -0.5921 0.1490
H8D H 0.4079 0.2693 0.3510
H8C H 0.7307 0.1386 0.3510
H8E H 0.8614 0.5921 0.3510
H9B H 0.5421 -0.0773 0.1697
H9A H 0.3806 -0.5421 0.1697
H9D H 0.4579 0.3806 0.3303
H9C H 0.6194 0.0773 0.3303
H9E H 0.9227 0.5421 0.3303
C14A C 0.1183(6) -0.5267(9) 0.1627(3)
C14B C 0.5267(9) -0.3550(7) 0.1627(3)
C14D C 0.4733(9) 0.1183(6) 0.3373(3)
C14E C 0.6450(7) 0.5267(9) 0.3373(3)
C14C C 0.8817(6) 0.3550(7) 0.3373(3)
H11A H 0.0635 -0.5063 0.1626
H11B H 0.5063 -0.4302 0.1626
H11D H 0.4937 0.0635 0.3374
H11E H 0.5698 0.5063 0.3374
H11C H 0.9365 0.4302 0.3374
H12A H 0.1065 -0.5741 0.1831
H12B H 0.5741 -0.3194 0.1831
H12D H 0.4259 0.1065 0.3169
H12E H 0.6806 0.5741 0.3169
H12C H 0.8935 0.3194 0.3169
H13A H 0.1148 -0.5633 0.1402
H13B H 0.5633 -0.3219 0.1402
H13D H 0.4367 0.1148 0.3598
H13E H 0.6781 0.5633 0.3598
H13C H 0.8852 0.3219 0.3598
C16B C 0.5720(8) -0.1474(6) 0.2397(2)
C16A C 0.2806(6) -0.5720(8) 0.2397(2)
C16D C 0.4280(8) 0.2806(6) 0.2603(2)
C16C C 0.7194(6) 0.1474(6) 0.2603(2)
C16E C 0.8526(6) 0.5720(8) 0.2603(2)
C19B C 0.6492(11) -0.1410(7) 0.2999(3)
C19A C 0.2098(9) -0.6492(11) 0.2999(3)
C19D C 0.3508(11) 0.2098(9) 0.2001(3)
C19C C 0.7902(9) 0.1410(7) 0.2001(3)
C19E C 0.8590(7) 0.6492(11) 0.2001(3)
H17B H 0.7059 -0.1349 0.3143
H17A H 0.1592 -0.7059 0.3143
H17D H 0.2941 0.1592 0.1857
H17C H 0.8408 0.1349 0.1857
H17E H 0.8651 0.7059 0.1857
C20B C 0.4751(10) -0.1615(7) 0.2552(3)
C20A C 0.3634(7) -0.4751(10) 0.2552(3)
C20D C 0.5249(10) 0.3634(7) 0.2448(3)
C20C C 0.6366(7) 0.1615(7) 0.2448(3)
C20E C 0.8385(7) 0.4751(10) 0.2448(3)
H18B H 0.4169 -0.1719 0.2407
H18A H 0.4112 -0.4169 0.2407
H18D H 0.5831 0.4112 0.2593
H18C H 0.5888 0.1719 0.2593
H18E H 0.8281 0.4169 0.2593
C21B C 0.4713(12) -0.1591(8) 0.2929(3)
C21A C 0.3696(9) -0.4713(12) 0.2929(3)
C21D C 0.5287(12) 0.3696(9) 0.2071(3)
C21C C 0.6304(9) 0.1591(8) 0.2071(3)
C21E C 0.8409(8) 0.4713(12) 0.2071(3)
H19B H 0.4112 -0.1623 0.3042
H19A H 0.4265 -0.4112 0.3042
H19D H 0.5888 0.4265 0.1958
H19C H 0.5735 0.1623 0.1958
H19E H 0.8377 0.4112 0.1958
C22B C 0.5582(12) -0.1516(8) 0.3157(3)
C22A C 0.2902(9) -0.5582(12) 0.3157(3)
C22D C 0.4418(12) 0.2902(9) 0.1843(3)
C22C C 0.7098(9) 0.1516(8) 0.1843(3)
C22E C 0.8484(8) 0.5582(12) 0.1843(3)
H20B H 0.5516 -0.1541 0.3412
H20A H 0.2943 -0.5516 0.3412
H20D H 0.4484 0.2943 0.1588
H20C H 0.7057 0.1541 0.1588
H20E H 0.8459 0.5516 0.1588
O1 O 0.0000 0.0000 0.3822(5)
loop_
_geom_bond_atom_site_label_1
_geom_bond_atom_site_label_2
_geom_bond_site_symmetry_1
_geom_bond_site_symmetry_2
I1 Cu2 1_555 1_555
I2 Cu1 1_555 1_555
I3 Cu2 1_555 1_555
Cu1 N3 1_555 1_555
Cu2 N1 1_555 1_555
N1 C8 1_555 1_555
N2 C2 1_555 1_555
C1 C3 1_555 1_555
N3 C10 1_555 1_555
N4 C10 1_555 1_555
C2 C9 1_555 1_555
C3 C4 1_555 1_555
C4 N2 1_555 1_555
H1 C4 1_555 1_555
H2 C4 1_555 1_555
C5 C6 1_555 1_555
C6 C14 1_555 1_555
C7 C1 1_555 1_555
H3 C7 1_555 1_555
H4 C7 1_555 1_555
H5 C7 1_555 1_555
C8 N2 1_555 1_555
H6 C8 1_555 1_555
C9 N1 1_555 1_555
C10 H7 1_555 1_555
C11 N3 1_555 1_555
C12 N4 1_555 1_555
H8 C12 1_555 1_555
H9 C12 1_555 1_555
C13 C2 1_555 1_555
H10 C13 1_555 1_555
C14 H11 1_555 1_555
H12 C14 1_555 1_555
H13 C14 1_555 1_555
C15 H14 1_555 1_555
C16 N4 1_555 1_555
C17 C9 1_555 1_555
H15 C17 1_555 1_555
C18 C13 1_555 1_555
H16 C18 1_555 1_555
C19 C11 1_555 1_555
H17 C19 1_555 1_555
C20 C16 1_555 1_555
H18 C20 1_555 1_555
C21 C20 1_555 1_555
H19 C21 1_555 1_555
C22 C19 1_555 1_555
H20 C22 1_555 1_555
I1_2 Cu2B_2 1_555 1_555
I1_3 Cu2A 1_555 1_555
I2C Cu1 1_555 1_555
I2_2 Cu1B 1_555 1_555
I2C_2 Cu1B 1_555 1_555
I3B Cu2 1_555 1_555
I3A Cu2B 1_555 1_555
I3B_2 Cu2B_2 1_555 1_555
I3A_2 Cu2B_2 1_555 1_555
I3A_3 Cu2A 1_555 1_555
I3_2 Cu2A 1_555 1_555
I3F Cu2F 1_555 1_555
I3H Cu2F 1_555 1_555
Cu1A I2 1_555 1_555
Cu1B N3B 1_555 1_555
Cu1B_2 I2 1_555 1_555
Cu1A_2 N3A 1_555 1_555
Cu1A_3 I2_2 1_555 1_555
Cu1B_3 N3E 1_555 1_555
Cu2B I1 1_555 1_555
Cu2B_2 N1B 1_555 1_555
Cu2A N1A 1_555 1_555
Cu2A_2 I1 1_555 1_555
Cu2F I1 1_555 1_555
Cu2G I1 1_555 1_555
Cu2H I1 1_555 1_555
Cu2A_3 N1A_2 1_555 1_555
Cu2_2 N1_2 1_555 1_555
Cu2_3 I1_2 1_555 1_555
Cu2A_4 I1_2 1_555 1_555
Cu2B_3 I1_3 1_555 1_555
N1B C8B 1_555 1_555
N1A C8A 1_555 1_555
N1B_2 Cu2B 1_555 1_555
N1A_2 C8A_2 1_555 1_555
N1_2 C8_2 1_555 1_555
N1A_3 Cu2A_2 1_555 1_555
N1F Cu2F 1_555 1_555
N2B C2B 1_555 1_555
N2A C2A 1_555 1_555
N2B_2 C2B_2 1_555 1_555
N2A_2 C2A_2 1_555 1_555
N2_2 C2_2 1_555 1_555
C1A C3A 1_555 1_555
C1B C3 1_555 1_555
C1B_2 C3B_2 1_555 1_555
C1_2 C3_2 1_555 1_555
C1A_2 C3B_2 1_555 1_555
N3B C10B 1_555 1_555
N3A C10A 1_555 1_555
N3D Cu1 1_555 1_555
N3C Cu1A_3 1_555 1_555
N3E C10E 1_555 1_555
N3C_2 Cu1A 1_555 1_555
N3A_2 Cu1A 1_555 1_555
N3E_2 Cu1B 1_555 1_555
N4B C10B 1_555 1_555
N4A C10A 1_555 1_555
N4D C10D 1_555 1_555
N4C C10C 1_555 1_555
N4E C10E 1_555 1_555
C2B C9B 1_555 1_555
C2A C9A 1_555 1_555
C2B_2 C9B_2 1_555 1_555
C2A_2 C9A_2 1_555 1_555
C2_2 C9_2 1_555 1_555
C3A C1 1_555 1_555
C3B C1A 1_555 1_555
C3B_2 C4B_2 1_555 1_555
C3_2 C1B_2 1_555 1_555
C3A_2 C1_2 1_555 1_555
C4B N2B 1_555 1_555
C4A N2A 1_555 1_555
C4B_2 N2B_2 1_555 1_555
C4A_2 N2A_2 1_555 1_555
C4_2 N2_2 1_555 1_555
H1B C4B 1_555 1_555
H1A C4A 1_555 1_555
H1B_2 C4B_2 1_555 1_555
H1A_2 C4A_2 1_555 1_555
H1_2 C4_2 1_555 1_555
H2B C4B 1_555 1_555
H2A C4A 1_555 1_555
H2B_2 C4B_2 1_555 1_555
H2A_2 C4A_2 1_555 1_555
H2_2 C4_2 1_555 1_555
C5B C6 1_555 1_555
C5A C6B 1_555 1_555
C5D C6D 1_555 1_555
C5C C6D 1_555 1_555
C5E C6C 1_555 1_555
C6B C5B 1_555 1_555
C6A C5 1_555 1_555
C6D C14D 1_555 1_555
C6C C5C 1_555 1_555
C6E C5D 1_555 1_555
C7A C1A 1_555 1_555
C7B C1B 1_555 1_555
C7B_2 C1B_2 1_555 1_555
C7_2 C1_2 1_555 1_555
C7A_2 C1A_2 1_555 1_555
H3A C7A 1_555 1_555
H3B C7B 1_555 1_555
H3B_2 C7B_2 1_555 1_555
H3_2 C7_2 1_555 1_555
H3A_2 C7A_2 1_555 1_555
H4A C7A 1_555 1_555
H4B C7B 1_555 1_555
H4B_2 C7B_2 1_555 1_555
H4_2 C7_2 1_555 1_555
H4A_2 C7A_2 1_555 1_555
H5A C7A 1_555 1_555
H5B C7B 1_555 1_555
H5B_2 C7B_2 1_555 1_555
H5_2 C7_2 1_555 1_555
H5A_2 C7A_2 1_555 1_555
C8B N2B 1_555 1_555
C8A N2A 1_555 1_555
C8B_2 N1B_2 1_555 1_555
C8A_2 N2A_2 1_555 1_555
C8_2 N2_2 1_555 1_555
H6B C8B 1_555 1_555
H6A C8A 1_555 1_555
H6B_2 C8B_2 1_555 1_555
H6A_2 C8A_2 1_555 1_555
H6_2 C8_2 1_555 1_555
C9B N1B 1_555 1_555
C9A N1A 1_555 1_555
C9B_2 N1B_2 1_555 1_555
C9A_2 N1A_2 1_555 1_555
C9_2 N1_2 1_555 1_555
C10B H7B 1_555 1_555
C10A H7A 1_555 1_555
C10D N3D 1_555 1_555
C10C N3C 1_555 1_555
C10E H7E 1_555 1_555
H7D C10D 1_555 1_555
H7C C10C 1_555 1_555
C11B N3B 1_555 1_555
C11A N3A 1_555 1_555
C11D N3D 1_555 1_555
C11C N3C 1_555 1_555
C11E N3E 1_555 1_555
C12B N4B 1_555 1_555
C12A N4A 1_555 1_555
C12D N4D 1_555 1_555
C12C N4C 1_555 1_555
C12E N4E 1_555 1_555
H8B C12B 1_555 1_555
H8A C12A 1_555 1_555
H8D C12D 1_555 1_555
H8C C12C 1_555 1_555
H8E C12E 1_555 1_555
H9B C12B 1_555 1_555
H9A C12A 1_555 1_555
H9D C12D 1_555 1_555
H9C C12C 1_555 1_555
H9E C12E 1_555 1_555
C13B C2B 1_555 1_555
C13A C2A 1_555 1_555
C13B_2 C2B_2 1_555 1_555
C13A_2 C2A_2 1_555 1_555
C13_2 C2_2 1_555 1_555
H10B C13B 1_555 1_555
H10A C13A 1_555 1_555
H10B_2 C13B_2 1_555 1_555
H10A_2 C13A_2 1_555 1_555
H10_2 C13_2 1_555 1_555
C14A C6A 1_555 1_555
C14B C6B 1_555 1_555
C14D H11D 1_555 1_555
C14E C6E 1_555 1_555
C14C C6C 1_555 1_555
H11A C14A 1_555 1_555
H11B C14B 1_555 1_555
H11E C14E 1_555 1_555
H11C C14C 1_555 1_555
H12A C14A 1_555 1_555
H12B C14B 1_555 1_555
H12D C14D 1_555 1_555
H12E C14E 1_555 1_555
H12C C14C 1_555 1_555
H13A C14A 1_555 1_555
H13B C14B 1_555 1_555
H13D C14D 1_555 1_555
H13E C14E 1_555 1_555
H13C C14C 1_555 1_555
C15B H14B 1_555 1_555
C15A H14A 1_555 1_555
C15B_2 H14B_2 1_555 1_555
C15A_2 H14A_2 1_555 1_555
C15_2 H14_2 1_555 1_555
C16B N4B 1_555 1_555
C16A N4A 1_555 1_555
C16D N4D 1_555 1_555
C16C N4C 1_555 1_555
C16E N4E 1_555 1_555
C17B C9B 1_555 1_555
C17A C9A 1_555 1_555
C17B_2 C9B_2 1_555 1_555
C17A_2 C9A_2 1_555 1_555
C17_2 C9_2 1_555 1_555
H15B C17B 1_555 1_555
H15A C17A 1_555 1_555
H15B_2 C17B_2 1_555 1_555
H15A_2 C17A_2 1_555 1_555
H15_2 C17_2 1_555 1_555
C18B C13B 1_555 1_555
C18A C13A 1_555 1_555
C18B_2 C13B_2 1_555 1_555
C18A_2 C13A_2 1_555 1_555
C18_2 C13_2 1_555 1_555
H16B C18B 1_555 1_555
H16A C18A 1_555 1_555
H16B_2 C18B_2 1_555 1_555
H16A_2 C18A_2 1_555 1_555
H16_2 C18_2 1_555 1_555
C19B C11B 1_555 1_555
C19A C11A 1_555 1_555
C19D C11D 1_555 1_555
C19C C11C 1_555 1_555
C19E C11E 1_555 1_555
H17B C19B 1_555 1_555
H17A C19A 1_555 1_555
H17D C19D 1_555 1_555
H17C C19C 1_555 1_555
H17E C19E 1_555 1_555
C20B C16B 1_555 1_555
C20A C16A 1_555 1_555
C20D C16D 1_555 1_555
C20C C16C 1_555 1_555
C20E C16E 1_555 1_555
H18B C20B 1_555 1_555
H18A C20A 1_555 1_555
H18D C20D 1_555 1_555
H18C C20C 1_555 1_555
H18E C20E 1_555 1_555
C21B C20B 1_555 1_555
C21A C20A 1_555 1_555
C21D C20D 1_555 1_555
C21C C20C 1_555 1_555
C21E C20E 1_555 1_555
H19B C21B 1_555 1_555
H19A C21A 1_555 1_555
H19D C21D 1_555 1_555
H19C C21C 1_555 1_555
H19E C21E 1_555 1_555
C22B C19B 1_555 1_555
C22A C19A 1_555 1_555
C22D C19D 1_555 1_555
C22C C19C 1_555 1_555
C22E C19E 1_555 1_555
H20B C22B 1_555 1_555
H20A C22A 1_555 1_555
H20D C22D 1_555 1_555
H20C C22C 1_555 1_555
H20E C22E 1_555 1_555
I3 Cu2A_2 1_555 1_555
C5 C12 1_555 1_555
C11 C16 1_555 1_555
C15 C17 1_555 1_555
C15 C18 1_555 1_555
C21 C22 1_555 1_555
I2C Cu1A 1_555 1_555
I2C Cu1B_2 1_555 1_555
I2C_2 Cu1A_3 1_555 1_555
I3B Cu2B 1_555 1_555
I3A Cu2A_2 1_555 1_555
I3B_2 Cu2_3 1_555 1_555
I3A_2 Cu2A_4 1_555 1_555
I3A_3 Cu2B_3 1_555 1_555
I3F Cu2G 1_555 1_555
I3H Cu2H 1_555 1_555
N2B_2 C8B_2 1_555 1_555
C1B C3B 1_555 1_555
C1A_2 C3A_2 1_555 1_555
C3A C4A 1_555 1_555
C3B C4B 1_555 1_555
C3_2 C4_2 1_555 1_555
C3A_2 C4A_2 1_555 1_555
C5B C12B 1_555 1_555
C5A C6A 1_555 1_555
C5A C12A 1_555 1_555
C5D C12D 1_555 1_555
C5C C12C 1_555 1_555
C5E C6E 1_555 1_555
C5E C12E 1_555 1_555
C11B C16B 1_555 1_555
C11A C16A 1_555 1_555
C11D C16D 1_555 1_555
C11C C16C 1_555 1_555
C11E C16E 1_555 1_555
C15B C17B 1_555 1_555
C15B C18B 1_555 1_555
C15A C17A 1_555 1_555
C15A C18A 1_555 1_555
C15B_2 C17B_2 1_555 1_555
C15B_2 C18B_2 1_555 1_555
C15A_2 C17A_2 1_555 1_555
C15A_2 C18A_2 1_555 1_555
C15_2 C17_2 1_555 1_555
C15_2 C18_2 1_555 1_555
C21B C22B 1_555 1_555
C21A C22A 1_555 1_555
C21D C22D 1_555 1_555
C21C C22C 1_555 1_555
C21E C22E 1_555 1_555

#END
