
#######################################################################
#
#                 Cambridge Crystallographic Data Centre
#                                CCDC 
#
#######################################################################
#
# If this CIF has been generated from an entry in the Cambridge 
# Structural Database, then it will include bibliographic, chemical, 
# crystal, experimental, refinement or atomic coordinate data resulting 
# from the CCDC's data processing and validation procedures.
#
#######################################################################

data_SUJPUJ
_symmetry_cell_setting           triclinic
_symmetry_space_group_name_H-M   'P -1'
_symmetry_Int_Tables_number      2
_space_group_name_Hall           '-P 1'
loop_
_symmetry_equiv_pos_site_id
_symmetry_equiv_pos_as_xyz
1 x,y,z
2 -x,-y,-z
_cell_length_a                   7.2227(15)
_cell_length_b                   7.8266(16)
_cell_length_c                   8.0423(16)
_cell_angle_alpha                97.985(3)
_cell_angle_beta                 105.989(2)
_cell_angle_gamma                107.239(2)
_cell_volume                     405.183
loop_
_atom_site_label
_atom_site_type_symbol
_atom_site_fract_x
_atom_site_fract_y
_atom_site_fract_z
C1 C 0.2186(3) 0.6835(2) 0.7347(2)
C2 C 0.0637(3) 0.9318(3) 0.7156(2)
C3 C -0.1270(3) 1.0955(3) 0.8233(3)
H1 H -0.2537 1.0941 0.8376
C4 C 0.0763(3) 0.7584(3) 0.6176(2)
H2 H -0.0631 0.6632 0.5675
H3 H 0.1246 0.7851 0.5169
C5 C -0.1177(3) 0.9347(3) 0.7387(3)
H4 H -0.2361 0.8256 0.6963
C6 C 0.2312(3) 1.0943(3) 0.7830(3)
H5 H 0.3599 1.0986 0.7716
C7 C 0.2106(3) 1.2502(3) 0.8668(3)
H6 H 0.3277 1.3604 0.9130
Cl1 Cl 0.31320(7) 1.57010(7) 1.25777(6)
Co1 Co 0.0000 1.5000 1.0000
N1 N 0.0334(2) 1.2539(2) 0.88632(19)
N2 N 0.3609(3) 0.6511(3) 0.6752(3)
H7 H 0.355(4) 0.663(4) 0.568(4)
H8 H 0.437(4) 0.601(4) 0.729(4)
O1 O 0.2036(2) 0.65396(19) 0.87807(17)
C1A C -0.2186(3) 2.3165(2) 1.2653(2)
C2A C -0.0637(3) 2.0682(3) 1.2844(2)
C3A C 0.1270(3) 1.9045(3) 1.1767(3)
H1A H 0.2537 1.9059 1.1624
C4A C -0.0763(3) 2.2416(3) 1.3824(2)
H2A H 0.0631 2.3368 1.4325
H3A H -0.1246 2.2149 1.4831
C5A C 0.1177(3) 2.0653(3) 1.2613(3)
H4A H 0.2361 2.1744 1.3037
C6A C -0.2312(3) 1.9057(3) 1.2170(3)
H5A H -0.3599 1.9014 1.2284
C7A C -0.2106(3) 1.7498(3) 1.1332(3)
H6A H -0.3277 1.6396 1.0870
Cl1A Cl -0.31320(7) 1.42990(7) 0.74223(6)
Co1_2 Co 0.0000 0.5000 1.0000
Co1_3 Co 0.0000 2.5000 1.0000
N1A N -0.0334(2) 1.7461(2) 1.11368(19)
N2A N -0.3609(3) 2.3489(3) 1.3248(3)
H7A H -0.355(4) 2.337(4) 1.432(4)
H8A H -0.437(4) 2.399(4) 1.271(4)
O1A O -0.2036(2) 2.34604(19) 1.12193(17)
O1_2 O 0.2036(2) 1.65396(19) 0.87807(17)
O1A_2 O -0.2036(2) 1.34604(19) 1.12193(17)
loop_
_geom_bond_atom_site_label_1
_geom_bond_atom_site_label_2
_geom_bond_site_symmetry_1
_geom_bond_site_symmetry_2
C1 C4 1_555 1_555
C2 C4 1_555 1_555
C3 H1 1_555 1_555
C4 H2 1_555 1_555
H3 C4 1_555 1_555
C5 C2 1_555 1_555
H4 C5 1_555 1_555
C6 C2 1_555 1_555
H5 C6 1_555 1_555
C7 C6 1_555 1_555
H6 C7 1_555 1_555
Cl1 Co1 1_555 1_555
Co1 N1 1_555 1_555
N1 C3 1_555 1_555
N2 C1 1_555 1_555
H7 N2 1_555 1_555
H8 N2 1_555 1_555
O1 C1 1_555 1_555
C1A C4A 1_555 1_555
C2A C4A 1_555 1_555
C3A H1A 1_555 1_555
C4A H2A 1_555 1_555
H3A C4A 1_555 1_555
C5A C2A 1_555 1_555
H4A C5A 1_555 1_555
C6A C2A 1_555 1_555
H5A C6A 1_555 1_555
C7A C6A 1_555 1_555
H6A C7A 1_555 1_555
Cl1A Co1 1_555 1_555
Co1_2 O1 1_555 1_555
Co1_3 O1A 1_555 1_555
N1A Co1 1_555 1_555
N2A C1A 1_555 1_555
H7A N2A 1_555 1_555
H8A N2A 1_555 1_555
O1A C1A 1_555 1_555
O1_2 Co1 1_555 1_555
O1A_2 Co1 1_555 1_555
C3 C5 1_555 1_555
C7 N1 1_555 1_555
C3A C5A 1_555 1_555
C3A N1A 1_555 1_555
C7A N1A 1_555 1_555

#END
