
#######################################################################
#
#                 Cambridge Crystallographic Data Centre
#                                CCDC 
#
#######################################################################
#
# If this CIF has been generated from an entry in the Cambridge 
# Structural Database, then it will include bibliographic, chemical, 
# crystal, experimental, refinement or atomic coordinate data resulting 
# from the CCDC's data processing and validation procedures.
#
#######################################################################

data_SUJPAP
_symmetry_cell_setting           orthorhombic
_symmetry_space_group_name_H-M   'P b c n'
_symmetry_Int_Tables_number      60
_space_group_name_Hall           '-P 2n 2ab'
loop_
_symmetry_equiv_pos_site_id
_symmetry_equiv_pos_as_xyz
1 x,y,z
2 1/2-x,1/2-y,1/2+z
3 1/2+x,1/2-y,-z
4 -x,y,1/2-z
5 -x,-y,-z
6 1/2+x,1/2+y,1/2-z
7 1/2-x,1/2+y,z
8 x,-y,1/2+z
_cell_length_a                   16.1983(8)
_cell_length_b                   14.3762(8)
_cell_length_c                   12.8497(7)
_cell_angle_alpha                90
_cell_angle_beta                 90
_cell_angle_gamma                90
_cell_volume                     2992.31
loop_
_atom_site_label
_atom_site_type_symbol
_atom_site_fract_x
_atom_site_fract_y
_atom_site_fract_z
C1 C 0.1784(5) 0.3871(5) 0.7372(6)
C2 C 0.2448(4) 0.3722(5) 0.7996(7)
H1 H 0.2458 0.3190 0.8434
C3 C 0.3112(5) 0.4334(5) 0.8004(7)
H2 H 0.3566 0.4218 0.8455
C4 C 0.3124(4) 0.5103(5) 0.7372(6)
C5 C 0.2388(5) 0.6123(6) 0.6105(6)
H3 H 0.2845 0.6537 0.6089
C6 C 0.1687(5) 0.6336(6) 0.5555(7)
H4 H 0.1666 0.6893 0.5159
C7 C 0.0997(5) 0.5735(7) 0.5572(7)
H5 H 0.0512 0.5890 0.5193
C8 C 0.1030(4) 0.4929(6) 0.6134(7)
H6 H 0.0565 0.4526 0.6141
C9 C 0.1753(4) 0.4681(5) 0.6714(6)
C10 C 0.2437(4) 0.5303(5) 0.6692(6)
C11 C 0.1103(4) 0.3173(5) 0.7406(6)
C12 C 0.3858(4) 0.5746(5) 0.7405(6)
C13 C -0.0438(8) 0.1227(10) 0.4214(9)
H7 H -0.0013 0.0745 0.4147
H8 H -0.0584 0.1461 0.3522
H9 H -0.0929 0.0962 0.4546
O1 O 0.0817(3) 0.2884(3) 0.6534(4)
O2 O 0.0871(3) 0.2895(4) 0.8282(4)
O3 O 0.4187(3) 0.5976(4) 0.6568(4)
O4 O 0.4086(3) 0.5995(4) 0.8304(4)
O5 O -0.0134(4) 0.1960(4) 0.4824(4)
Cu1 Cu -0.00520(5) 0.19232(6) 0.64825(6)
H14 H 0.025(7) 0.234(8) 0.445(10)
O2C O -0.0871(3) 0.2895(4) 0.6718(4)
O3F O 0.0813(3) 0.0976(4) 0.6568(4)
O4E O -0.0914(3) 0.0995(4) 0.6696(4)
Cu1C Cu 0.00520(5) 0.19232(6) 0.85175(6)
Cu1F Cu 0.50520(5) 0.69232(6) 0.64825(6)
Cu1E Cu 0.49480(5) 0.69232(6) 0.85175(6)
C14 C 0.1476(12) 0.3610(13) 0.3728(14)
H10 H 0.1207 0.4174 0.3989
H11 H 0.1269 0.3468 0.3029
H12 H 0.2074 0.3708 0.3699
O6 O 0.1299(6) 0.2856(7) 0.4404(8)
H13 H 0.1632 0.2860 0.4904
loop_
_geom_bond_atom_site_label_1
_geom_bond_atom_site_label_2
_geom_bond_site_symmetry_1
_geom_bond_site_symmetry_2
C1 C2 1_555 1_555
C2 H1 1_555 1_555
C3 C2 1_555 1_555
H2 C3 1_555 1_555
C4 C3 1_555 1_555
C5 H3 1_555 1_555
C6 C5 1_555 1_555
H4 C6 1_555 1_555
C7 C6 1_555 1_555
H5 C7 1_555 1_555
C8 C7 1_555 1_555
H6 C8 1_555 1_555
C9 C1 1_555 1_555
C10 C4 1_555 1_555
C11 C1 1_555 1_555
C12 C4 1_555 1_555
C13 H7 1_555 1_555
H8 C13 1_555 1_555
H9 C13 1_555 1_555
C14 H10 1_555 1_555
H11 C14 1_555 1_555
H12 C14 1_555 1_555
O1 C11 1_555 1_555
O2 C11 1_555 1_555
O3 C12 1_555 1_555
O4 C12 1_555 1_555
O5 C13 1_555 1_555
O6 C14 1_555 1_555
H13 O6 1_555 1_555
Cu1 O1 1_555 1_555
H14 O5 1_555 1_555
O2C Cu1 1_555 1_555
O3F Cu1 1_555 1_555
O4E Cu1 1_555 1_555
Cu1C O2 1_555 1_555
Cu1F O3 1_555 1_555
Cu1E O4 1_555 1_555
C5 C10 1_555 1_555
C8 C9 1_555 1_555
C9 C10 1_555 1_555
O5 Cu1 1_555 1_555
Cu1 Cu1C 1_555 1_555
Cu1F Cu1E 1_555 1_555

#END
