
#######################################################################
#
#                 Cambridge Crystallographic Data Centre
#                                CCDC 
#
#######################################################################
#
# If this CIF has been generated from an entry in the Cambridge 
# Structural Database, then it will include bibliographic, chemical, 
# crystal, experimental, refinement or atomic coordinate data resulting 
# from the CCDC's data processing and validation procedures.
#
#######################################################################

data_SUJPIX
_symmetry_cell_setting           triclinic
_symmetry_space_group_name_H-M   'P -1'
_symmetry_Int_Tables_number      2
_space_group_name_Hall           '-P 1'
loop_
_symmetry_equiv_pos_site_id
_symmetry_equiv_pos_as_xyz
1 x,y,z
2 -x,-y,-z
_cell_length_a                   7.347(3)
_cell_length_b                   7.714(3)
_cell_length_c                   8.236(3)
_cell_angle_alpha                99.356(5)
_cell_angle_beta                 110.182(5)
_cell_angle_gamma                107.290(5)
_cell_volume                     399.595
loop_
_atom_site_label
_atom_site_type_symbol
_atom_site_fract_x
_atom_site_fract_y
_atom_site_fract_z
C1 C 0.6260(5) 0.4030(4) 0.1792(4)
H1 H 0.7527 0.4141 0.1673
C2 C 0.6105(5) 0.5635(4) 0.2642(5)
H2 H 0.7253 0.6823 0.3094
C3 C 0.4288(5) 0.5526(4) 0.2841(4)
C4 C 0.2649(5) 0.3753(4) 0.2134(4)
H3 H 0.1362 0.3611 0.2227
C5 C 0.2915(5) 0.2214(4) 0.1301(5)
H4 H 0.1784 0.1012 0.0824
C6 C 0.4080(5) 0.7247(4) 0.3806(4)
H5 H 0.5470 0.8308 0.4398
H6 H 0.3629 0.6951 0.4765
C7 C 0.2524(5) 0.7871(4) 0.2544(5)
Cl1 Cl 0.19949(12) -0.06570(10) -0.25899(11)
Cu1 Cu 0.5000 0.0000 0.0000
N1 N 0.1245(5) 0.8338(4) 0.3189(4)
H7 H 0.035(4) 0.872(4) 0.250(4)
H8 H 0.144(5) 0.843(4) 0.435(3)
N2 N 0.4698(4) 0.2324(3) 0.1128(3)
O1 O 0.2482(3) 0.7956(3) 0.1061(3)
C1A C 0.3740(5) -0.4030(4) -0.1792(4)
H1A H 0.2473 -0.4141 -0.1673
C2A C 0.3895(5) -0.5635(4) -0.2642(5)
H2A H 0.2747 -0.6823 -0.3094
C3A C 0.5712(5) -0.5526(4) -0.2841(4)
C4A C 0.7351(5) -0.3753(4) -0.2134(4)
H3A H 0.8638 -0.3611 -0.2227
C5A C 0.7085(5) -0.2214(4) -0.1301(5)
H4A H 0.8216 -0.1012 -0.0824
C6A C 0.5920(5) -0.7247(4) -0.3806(4)
H5A H 0.4530 -0.8308 -0.4398
H6A H 0.6371 -0.6951 -0.4765
C7A C 0.7476(5) -0.7871(4) -0.2544(5)
Cl1A Cl 0.80051(12) 0.06570(10) 0.25899(11)
Cu1_2 Cu 0.5000 1.0000 0.0000
Cu1_3 Cu 0.5000 -1.0000 0.0000
N1A N 0.8755(5) -0.8338(4) -0.3189(4)
H7A H 0.965(4) -0.872(4) -0.250(4)
H8A H 0.856(5) -0.843(4) -0.435(3)
N2A N 0.5302(4) -0.2324(3) -0.1128(3)
O1A O 0.7518(3) -0.7956(3) -0.1061(3)
O1_2 O 0.2482(3) -0.2044(3) 0.1061(3)
O1A_2 O 0.7518(3) 0.2044(3) -0.1061(3)
loop_
_geom_bond_atom_site_label_1
_geom_bond_atom_site_label_2
_geom_bond_site_symmetry_1
_geom_bond_site_symmetry_2
C1 H1 1_555 1_555
C2 C1 1_555 1_555
H2 C2 1_555 1_555
C3 C2 1_555 1_555
C4 C3 1_555 1_555
H3 C4 1_555 1_555
C5 C4 1_555 1_555
H4 C5 1_555 1_555
C6 C3 1_555 1_555
H5 C6 1_555 1_555
H6 C6 1_555 1_555
C7 C6 1_555 1_555
Cl1 Cu1 1_555 1_555
Cu1 N2 1_555 1_555
N1 C7 1_555 1_555
H7 N1 1_555 1_555
H8 N1 1_555 1_555
N2 C1 1_555 1_555
O1 C7 1_555 1_555
C1A H1A 1_555 1_555
C2A C1A 1_555 1_555
H2A C2A 1_555 1_555
C3A C2A 1_555 1_555
C4A C3A 1_555 1_555
H3A C4A 1_555 1_555
C5A C4A 1_555 1_555
H4A C5A 1_555 1_555
C6A C3A 1_555 1_555
H5A C6A 1_555 1_555
H6A C6A 1_555 1_555
C7A C6A 1_555 1_555
Cl1A Cu1 1_555 1_555
Cu1_2 O1 1_555 1_555
Cu1_3 O1A 1_555 1_555
N1A C7A 1_555 1_555
H7A N1A 1_555 1_555
H8A N1A 1_555 1_555
N2A Cu1 1_555 1_555
O1A C7A 1_555 1_555
O1_2 Cu1 1_555 1_555
O1A_2 Cu1 1_555 1_555
C5 N2 1_555 1_555
C1A N2A 1_555 1_555
C5A N2A 1_555 1_555

#END
