
#######################################################################
#
#                 Cambridge Crystallographic Data Centre
#                                CCDC 
#
#######################################################################
#
# If this CIF has been generated from an entry in the Cambridge 
# Structural Database, then it will include bibliographic, chemical, 
# crystal, experimental, refinement or atomic coordinate data resulting 
# from the CCDC's data processing and validation procedures.
#
#######################################################################

data_SUJQUK
_symmetry_cell_setting           orthorhombic
_symmetry_space_group_name_H-M   'P b c a'
_symmetry_Int_Tables_number      61
_space_group_name_Hall           '-P 2ac 2ab'
loop_
_symmetry_equiv_pos_site_id
_symmetry_equiv_pos_as_xyz
1 x,y,z
2 1/2-x,-y,1/2+z
3 -x,1/2+y,1/2-z
4 1/2+x,1/2-y,-z
5 -x,-y,-z
6 1/2+x,y,1/2-z
7 x,1/2-y,1/2+z
8 1/2-x,1/2+y,z
_cell_length_a                   13.7982(7)
_cell_length_b                   16.2380(8)
_cell_length_c                   19.0994(10)
_cell_angle_alpha                90
_cell_angle_beta                 90
_cell_angle_gamma                90
_cell_volume                     4279.32
loop_
_atom_site_label
_atom_site_type_symbol
_atom_site_fract_x
_atom_site_fract_y
_atom_site_fract_z
Zn1 Zn 0.47275(2) 0.40422(2) 0.560193(16)
O1 O 0.47526(16) 0.52090(14) 0.59417(13)
O2 O 0.53928(16) 0.62948(15) 0.53941(11)
O3 O 0.52378(18) 0.85263(19) 0.84555(14)
O4 O 0.5190(3) 0.7405(2) 0.90921(14)
N1 N 0.63140(19) 0.40119(16) 0.55408(13)
N2 N 1.3139(2) 0.41162(16) 0.56539(13)
C1 C 0.6788(2) 0.3563(2) 0.50638(17)
H1 H 0.6423 0.3248 0.4746
C2 C 0.7782(2) 0.3537(2) 0.50132(17)
H2 H 0.8077 0.3211 0.4667
C3 C 0.8346(2) 0.3989(2) 0.54710(17)
C4 C 0.7857(2) 0.4453(2) 0.59759(18)
H3 H 0.8207 0.4771 0.6301
C5 C 0.6864(2) 0.4442(2) 0.59944(17)
H4 H 0.6549 0.4751 0.6343
C6 C 0.9404(2) 0.3947(2) 0.54048(19)
H5 H 0.9651 0.3643 0.5026
C7 C 1.0046(2) 0.4296(2) 0.5827(2)
H6 H 0.9807 0.4612 0.6201
C8 C 1.2553(2) 0.3743(2) 0.51928(17)
H7 H 1.2838 0.3439 0.4828
C9 C 1.1552(2) 0.3782(2) 0.52229(18)
H8 H 1.1175 0.3510 0.4885
C10 C 1.1108(2) 0.42253(19) 0.57541(17)
C11 C 1.1720(2) 0.4603(2) 0.62379(19)
H9 H 1.1456 0.4906 0.6611
C12 C 1.2708(2) 0.4534(2) 0.61716(18)
H10 H 1.3102 0.4793 0.6507
C13 C 0.5087(2) 0.59185(19) 0.59260(16)
C14 C 0.51203(19) 0.63817(18) 0.66058(14)
C15 C 0.5215(2) 0.72301(19) 0.65938(16)
H11 H 0.5268 0.7507 0.6163
C16 C 0.5234(2) 0.7674(2) 0.72175(17)
H12 H 0.5288 0.8251 0.7207
C17 C 0.5172(2) 0.7268(2) 0.78518(16)
C18 C 0.5080(2) 0.6419(2) 0.78592(16)
H13 H 0.5042 0.6140 0.8289
C19 C 0.5044(2) 0.5979(2) 0.72413(17)
H14 H 0.4967 0.5404 0.7253
C20 C 0.5200(2) 0.7752(3) 0.85286(19)
Zn1D Zn 0.52725(2) 0.59578(2) 0.439807(16)
Zn1B Zn 0.52725(2) 0.90422(2) 0.939807(16)
Zn1_2 Zn 1.47275(2) 0.40422(2) 0.560193(16)
O2D O 0.46072(16) 0.37052(15) 0.46059(11)
O3B O 0.47622(18) 0.35263(19) 0.65445(14)
N2_2 N 0.3139(2) 0.41162(16) 0.56539(13)
N3 N 0.2333(2) 0.2070(2) 0.76138(18)
O5 O 0.2419(2) 0.0681(2) 0.76302(17)
C21 C 0.2375(5) 0.1343(5) 0.7340(4)
H15 H 0.2371 0.1325 0.6848
C22 C 0.2263(5) 0.2100(5) 0.8392(3)
H16 H 0.2381 0.1556 0.8583
H17 H 0.1621 0.2284 0.8526
H18 H 0.2743 0.2481 0.8573
C23 C 0.2300(6) 0.2877(4) 0.7272(5)
H19 H 0.2872 0.3191 0.7399
H20 H 0.1725 0.3171 0.7423
H21 H 0.2282 0.2804 0.6768
C24? C 0.2409(7) 0.1360(8) 0.7886(6)
C25? C 0.2287(9) 0.2920(5) 0.7874(9)
C26? C 0.2363(7) 0.2058(8) 0.6835(4)
H22? H 0.2319 0.2919 0.8381
H23? H 0.1683 0.3171 0.7725
H24? H 0.2828 0.3232 0.7687
H25? H 0.2469 0.1364 0.8376
H26? H 0.2618 0.1533 0.6676
H27? H 0.1714 0.2133 0.6651
H28? H 0.2778 0.2499 0.6669
loop_
_geom_bond_atom_site_label_1
_geom_bond_atom_site_label_2
_geom_bond_site_symmetry_1
_geom_bond_site_symmetry_2
Zn1 O1 1_555 1_555
O1 C13 1_555 1_555
O2 C13 1_555 1_555
O3 C20 1_555 1_555
O4 C20 1_555 1_555
N1 Zn1 1_555 1_555
N2 C8 1_555 1_555
C1 N1 1_555 1_555
H1 C1 1_555 1_555
C2 C1 1_555 1_555
H2 C2 1_555 1_555
C3 C2 1_555 1_555
C4 C3 1_555 1_555
H3 C4 1_555 1_555
C5 N1 1_555 1_555
H4 C5 1_555 1_555
C6 C3 1_555 1_555
H5 C6 1_555 1_555
C7 C6 1_555 1_555
H6 C7 1_555 1_555
C8 H7 1_555 1_555
C9 C8 1_555 1_555
H8 C9 1_555 1_555
C10 C7 1_555 1_555
C11 C10 1_555 1_555
H9 C11 1_555 1_555
C12 N2 1_555 1_555
H10 C12 1_555 1_555
C13 C14 1_555 1_555
C14 C15 1_555 1_555
C15 H11 1_555 1_555
C16 C15 1_555 1_555
H12 C16 1_555 1_555
C17 C16 1_555 1_555
C18 C17 1_555 1_555
H13 C18 1_555 1_555
C19 C14 1_555 1_555
H14 C19 1_555 1_555
C20 C17 1_555 1_555
N3 C21 1_555 1_555
O5 C21 1_555 1_555
C21 H15 1_555 1_555
C22 N3 1_555 1_555
H16 C22 1_555 1_555
H17 C22 1_555 1_555
H18 C22 1_555 1_555
C23 N3 1_555 1_555
H19 C23 1_555 1_555
H20 C23 1_555 1_555
H21 C23 1_555 1_555
Zn1D O2 1_555 1_555
Zn1B O3 1_555 1_555
Zn1_2 N2 1_555 1_555
O2D Zn1 1_555 1_555
O3B Zn1 1_555 1_555
N2_2 Zn1 1_555 1_555
C4 C5 1_555 1_555
C9 C10 1_555 1_555
C11 C12 1_555 1_555
C18 C19 1_555 1_555

#END
