
#######################################################################
#
#                 Cambridge Crystallographic Data Centre
#                                CCDC 
#
#######################################################################
#
# If this CIF has been generated from an entry in the Cambridge 
# Structural Database, then it will include bibliographic, chemical, 
# crystal, experimental, refinement or atomic coordinate data resulting 
# from the CCDC's data processing and validation procedures.
#
#######################################################################

data_SUJRAR
_symmetry_cell_setting           triclinic
_symmetry_space_group_name_H-M   'P -1'
_symmetry_Int_Tables_number      2
_space_group_name_Hall           '-P 1'
loop_
_symmetry_equiv_pos_site_id
_symmetry_equiv_pos_as_xyz
1 x,y,z
2 -x,-y,-z
_cell_length_a                   8.6690(8)
_cell_length_b                   10.0756(9)
_cell_length_c                   10.4639(10)
_cell_angle_alpha                83.766(2)
_cell_angle_beta                 66.633(2)
_cell_angle_gamma                68.524(2)
_cell_volume                     780.043
loop_
_atom_site_label
_atom_site_type_symbol
_atom_site_fract_x
_atom_site_fract_y
_atom_site_fract_z
Zn1 Zn 0.65064(3) 0.84106(2) -0.11833(2)
O1 O 0.7838(2) 0.90908(17) -0.03371(17)
O2 O 0.60912(19) 1.11953(17) 0.08205(17)
O3 O 0.8422(3) 0.67980(19) -0.24541(18)
O4 O 0.7408(3) 0.7325(2) -0.4148(3)
N1 N 0.6267(3) 0.6853(2) 0.0444(2)
N2 N 0.6633(3) 0.0067(2) 0.7336(2)
C1 C 0.7632(4) 0.6208(3) 0.0853(3)
H1 H 0.8626 0.6506 0.0480
C2 C 0.7678(4) 0.5128(3) 0.1790(3)
H2 H 0.8693 0.4702 0.2019
C3 C 0.6238(4) 0.4682(3) 0.2384(3)
C4 C 0.4838(5) 0.5341(4) 0.1957(5)
H3 H 0.3820 0.5072 0.2326
C5 C 0.4905(4) 0.6392(4) 0.0991(4)
H4 H 0.3932 0.6800 0.0710
C6 C 0.6112(4) 0.3600(3) 0.3440(3)
H5 H 0.5098 0.3331 0.3721
C7 C 0.7251(4) 0.2968(3) 0.4034(3)
H6 H 0.8313 0.3174 0.3711
C8 C 0.7993(4) 0.0550(3) 0.6880(3)
H7 H 0.8829 0.0244 0.7307
C9 C 0.8229(5) 0.1479(4) 0.5807(3)
H8 H 0.9218 0.1781 0.5517
C10 C 0.7021(4) 0.1969(3) 0.5156(3)
C11 C 0.5605(4) 0.1462(3) 0.5636(3)
H9 H 0.4740 0.1757 0.5236
C12 C 0.5479(3) 0.0526(3) 0.6698(3)
H10 H 0.4521 0.0187 0.6994
C13 C 0.7575(3) 1.0207(2) 0.0259(2)
C14 C 0.9162(3) 1.0427(2) 0.0330(2)
H11 H 0.8953 1.1209 0.0870
C15 C 0.8445(3) 0.6564(2) -0.3631(2)
C16 C 0.9891(3) 0.5221(3) -0.4399(3)
H12 H 1.0690 0.4662 -0.3985
Zn1A Zn 1.34936(3) 1.15894(2) 0.11833(2)
Zn1A_2 Zn 0.34936(3) 1.15894(2) 0.11833(2)
Zn1_2 Zn 0.65064(3) -0.15894(2) 0.88167(2)
Zn1_3 Zn 1.65064(3) 0.84106(2) -0.11833(2)
Zn1A_3 Zn 1.34936(3) 0.15894(2) -0.88167(2)
Zn1_4 Zn 0.65064(3) 1.84106(2) -1.11833(2)
O1A O 1.2162(2) 1.09092(17) 0.03371(17)
O2A O 1.39088(19) 0.88047(17) -0.08205(17)
O2A_2 O 0.39088(19) 0.88047(17) -0.08205(17)
O2_2 O 1.60912(19) 1.11953(17) 0.08205(17)
O3A O 1.1578(3) 0.32020(19) -0.75459(18)
O3A_2 O 1.1578(3) 1.32020(19) 0.24541(18)
O4A O 1.2592(3) 0.2675(2) -0.5852(3)
N1_2 N 0.6267(3) 1.6853(2) -0.9556(2)
N1A N 1.3733(3) 1.3147(2) -0.0444(2)
N2_2 N 0.6633(3) 1.0067(2) -0.2664(2)
N2A N 1.3367(3) 0.9933(2) 0.2664(2)
C1_2 C 0.7632(4) 1.6208(3) -0.9147(3)
H1_2 H 0.8626 1.6506 -0.9520
C2_2 C 0.7678(4) 1.5128(3) -0.8210(3)
H2_2 H 0.8693 1.4702 -0.7981
C3_2 C 0.6238(4) 1.4682(3) -0.7616(3)
C4_2 C 0.4838(5) 1.5341(4) -0.8043(5)
H3_2 H 0.3820 1.5072 -0.7674
C5_2 C 0.4905(4) 1.6392(4) -0.9009(4)
H4_2 H 0.3932 1.6800 -0.9290
C6_2 C 0.6112(4) 1.3600(3) -0.6560(3)
H5_2 H 0.5098 1.3331 -0.6279
C7_2 C 0.7251(4) 1.2968(3) -0.5966(3)
H6_2 H 0.8313 1.3174 -0.6289
C8_2 C 0.7993(4) 1.0550(3) -0.3120(3)
H7_2 H 0.8829 1.0244 -0.2693
C9_2 C 0.8229(5) 1.1479(4) -0.4193(3)
H8_2 H 0.9218 1.1781 -0.4483
C10_2 C 0.7021(4) 1.1969(3) -0.4844(3)
C11_2 C 0.5605(4) 1.1462(3) -0.4364(3)
H9_2 H 0.4740 1.1757 -0.4764
C12_2 C 0.5479(3) 1.0526(3) -0.3302(3)
H10_2 H 0.4521 1.0187 -0.3006
C13A C 1.2425(3) 0.9793(2) -0.0259(2)
C14A C 1.0838(3) 0.9573(2) -0.0330(2)
H11A H 1.1047 0.8791 -0.0870
C15A C 1.1555(3) 0.3436(2) -0.6369(2)
C16A C 1.0109(3) 0.4779(3) -0.5601(3)
H12A H 0.9310 0.5338 -0.6015
O5 O 0.8796(8) 0.8320(4) -0.6973(5)
H13 H 0.9632(16) 0.7544(10) -0.7511(11)
H14 H 0.850(8) 0.7878(19) -0.6164(18)
loop_
_geom_bond_atom_site_label_1
_geom_bond_atom_site_label_2
_geom_bond_site_symmetry_1
_geom_bond_site_symmetry_2
Zn1 O1 1_555 1_555
O1 C13 1_555 1_555
O2 C13 1_555 1_555
O3 Zn1 1_555 1_555
O4 C15 1_555 1_555
N1 Zn1 1_555 1_555
N2 C8 1_555 1_555
C1 N1 1_555 1_555
H1 C1 1_555 1_555
C2 C1 1_555 1_555
H2 C2 1_555 1_555
C3 C2 1_555 1_555
C4 C3 1_555 1_555
H3 C4 1_555 1_555
C5 N1 1_555 1_555
H4 C5 1_555 1_555
C6 C3 1_555 1_555
H5 C6 1_555 1_555
C7 C6 1_555 1_555
H6 C7 1_555 1_555
C8 H7 1_555 1_555
C9 C8 1_555 1_555
H8 C9 1_555 1_555
C10 C7 1_555 1_555
C11 C10 1_555 1_555
H9 C11 1_555 1_555
C12 N2 1_555 1_555
H10 C12 1_555 1_555
C13 C14 1_555 1_555
C14 H11 1_555 1_555
C15 O3 1_555 1_555
C16 C15 1_555 1_555
H12 C16 1_555 1_555
O5 H13 1_555 1_555
H14 O5 1_555 1_555
Zn1A O1A 1_555 1_555
Zn1A_2 O2 1_555 1_555
Zn1_2 N2 1_555 1_555
Zn1_3 O2A 1_555 1_555
Zn1A_3 O3A 1_555 1_555
Zn1_4 N1_2 1_555 1_555
O1A C13A 1_555 1_555
O2A C13A 1_555 1_555
O2A_2 Zn1 1_555 1_555
O2_2 Zn1A 1_555 1_555
O3A C15A 1_555 1_555
O3A_2 Zn1A 1_555 1_555
O4A C15A 1_555 1_555
N1_2 C1_2 1_555 1_555
N1A Zn1A 1_555 1_555
N2_2 Zn1 1_555 1_555
N2A Zn1A 1_555 1_555
C1_2 H1_2 1_555 1_555
C2_2 C1_2 1_555 1_555
H2_2 C2_2 1_555 1_555
C3_2 C2_2 1_555 1_555
C4_2 C3_2 1_555 1_555
H3_2 C4_2 1_555 1_555
C5_2 N1_2 1_555 1_555
H4_2 C5_2 1_555 1_555
C6_2 C3_2 1_555 1_555
H5_2 C6_2 1_555 1_555
C7_2 C6_2 1_555 1_555
H6_2 C7_2 1_555 1_555
C8_2 N2_2 1_555 1_555
H7_2 C8_2 1_555 1_555
C9_2 C8_2 1_555 1_555
H8_2 C9_2 1_555 1_555
C10_2 C7_2 1_555 1_555
C11_2 C10_2 1_555 1_555
H9_2 C11_2 1_555 1_555
C12_2 N2_2 1_555 1_555
H10_2 C12_2 1_555 1_555
C13A C14A 1_555 1_555
C14A C14 1_555 1_555
H11A C14A 1_555 1_555
C15A C16A 1_555 1_555
C16A C16 1_555 1_555
H12A C16A 1_555 1_555
C4 C5 1_555 1_555
C9 C10 1_555 1_555
C11 C12 1_555 1_555
C4_2 C5_2 1_555 1_555
C9_2 C10_2 1_555 1_555
C11_2 C12_2 1_555 1_555

#END
