
#######################################################################
#
#                 Cambridge Crystallographic Data Centre
#                                CCDC 
#
#######################################################################
#
# If this CIF has been generated from an entry in the Cambridge 
# Structural Database, then it will include bibliographic, chemical, 
# crystal, experimental, refinement or atomic coordinate data resulting 
# from the CCDC's data processing and validation procedures.
#
#######################################################################

data_SUJRIZ
_symmetry_cell_setting           orthorhombic
_symmetry_space_group_name_H-M   'P b c a'
_symmetry_Int_Tables_number      61
_space_group_name_Hall           '-P 2ac 2ab'
loop_
_symmetry_equiv_pos_site_id
_symmetry_equiv_pos_as_xyz
1 x,y,z
2 1/2-x,-y,1/2+z
3 -x,1/2+y,1/2-z
4 1/2+x,1/2-y,-z
5 -x,-y,-z
6 1/2+x,y,1/2-z
7 x,1/2-y,1/2+z
8 1/2-x,1/2+y,z
_cell_length_a                   13.5707(15)
_cell_length_b                   15.0060(17)
_cell_length_c                   20.074(2)
_cell_angle_alpha                90
_cell_angle_beta                 90
_cell_angle_gamma                90
_cell_volume                     4087.91
loop_
_atom_site_label
_atom_site_type_symbol
_atom_site_fract_x
_atom_site_fract_y
_atom_site_fract_z
Zn1 Zn 0.49752(4) 0.60974(5) 0.56487(3)
O1 O 0.5048(3) 0.6383(4) 0.6632(3)
O2 O 0.4932(4) 0.7677(5) 0.6116(3)
O3 O 0.4873(3) 0.8413(3) 0.9721(2)
O4 O 0.4952(3) 0.9750(3) 0.9243(3)
N1 N 0.6585(4) 0.6118(3) 0.5551(3)
N2 N 1.3353(4) 0.6005(3) 0.5707(3)
C1 C 0.7156(4) 0.5646(4) 0.5968(3)
H1 H 0.6870 0.5396 0.6345
C2 C 0.8164(4) 0.5513(4) 0.5859(3)
H2 H 0.8536 0.5185 0.6161
C3 C 0.8599(4) 0.5873(4) 0.5301(3)
C4 C 0.8028(4) 0.6430(4) 0.4906(3)
H3 H 0.8307 0.6736 0.4550
C5 C 0.7037(4) 0.6521(4) 0.5051(3)
H4 H 0.6662 0.6890 0.4778
C6 C 0.9612(4) 0.5647(4) 0.5039(3)
H5 H 0.9916 0.6178 0.4841
C7 C 1.2796(4) 0.6313(4) 0.5212(3)
H6 H 1.3090 0.6676 0.4893
C8 C 1.1810(4) 0.6123(4) 0.5147(3)
H7 H 1.1449 0.6363 0.4797
C9 C 1.1358(4) 0.5569(4) 0.5609(3)
C10 C 1.1924(4) 0.5313(4) 0.6155(3)
H8 H 1.1638 0.4995 0.6502
C11 C 1.2915(4) 0.5535(4) 0.6180(3)
H9 H 1.3286 0.5346 0.6543
C12 C 1.0373(4) 0.5153(4) 0.5483(3)
H10 H 1.0069 0.4964 0.5902
C13 C 0.4993(4) 0.7215(6) 0.6633(4)
C14 C 0.4976(4) 0.7675(5) 0.7308(3)
C15 C 0.5005(4) 0.7166(5) 0.7879(3)
H11 H 0.5037 0.6549 0.7848
C16 C 0.4987(4) 0.7570(4) 0.8497(4)
H12 H 0.5008 0.7225 0.8881
C17 C 0.4938(4) 0.8494(4) 0.8544(3)
C18 C 0.4918(5) 0.9017(5) 0.7963(4)
H13 H 0.4892 0.9636 0.7989
C19 C 0.4938(4) 0.8593(5) 0.7351(3)
H14 H 0.4926 0.8932 0.6963
C20 C 0.4917(4) 0.8936(4) 0.9217(4)
Zn1F Zn 0.49752(4) 0.89026(5) 1.06487(3)
Zn1B Zn 0.50248(4) 1.10974(5) 0.93513(3)
Zn1_2 Zn 1.49752(4) 0.60974(5) 0.56487(3)
Zn1D Zn 1.50248(4) 0.39026(5) 0.43513(3)
Zn1D_2 Zn 0.50248(4) 0.39026(5) 0.43513(3)
Zn1B_2 Zn 0.50248(4) 0.10974(5) -0.06487(3)
Zn1F_2 Zn 0.49752(4) -0.10974(5) 0.06487(3)
O1D O 0.4952(3) 0.3617(4) 0.3368(3)
O2D O 0.5068(4) 0.2323(5) 0.3884(3)
O3F O 0.4873(3) 0.6587(3) 0.4721(2)
O3B O 0.5127(3) 0.3413(3) 0.5279(2)
O3D O 0.5127(3) 0.1587(3) 0.0279(2)
O4F O 0.4952(3) 0.5250(3) 0.4243(3)
O4B O 0.5048(3) 0.4750(3) 0.5757(3)
O4D O 0.5048(3) 0.0250(3) 0.0757(3)
N1D N 1.3415(4) 0.3882(3) 0.4449(3)
N1D_2 N 0.3415(4) 0.3882(3) 0.4449(3)
N2D N 0.6647(4) 0.3995(3) 0.4293(3)
N2_2 N 0.3353(4) 0.6005(3) 0.5707(3)
C1D C 1.2844(4) 0.4354(4) 0.4032(3)
H1D H 1.3130 0.4604 0.3655
C2D C 1.1836(4) 0.4487(4) 0.4141(3)
H2D H 1.1464 0.4815 0.3839
C3D C 1.1401(4) 0.4127(4) 0.4699(3)
C4D C 1.1972(4) 0.3570(4) 0.5094(3)
H3D H 1.1693 0.3264 0.5450
C5D C 1.2963(4) 0.3479(4) 0.4949(3)
H4D H 1.3338 0.3110 0.5222
C6D C 1.0388(4) 0.4353(4) 0.4961(3)
H5D H 1.0084 0.3822 0.5159
C7D C 0.7204(4) 0.3687(4) 0.4788(3)
H6D H 0.6910 0.3324 0.5107
C8D C 0.8190(4) 0.3877(4) 0.4853(3)
H7D H 0.8551 0.3637 0.5203
C9D C 0.8642(4) 0.4431(4) 0.4391(3)
C10D C 0.8076(4) 0.4687(4) 0.3845(3)
H8D H 0.8362 0.5005 0.3498
C11D C 0.7085(4) 0.4465(4) 0.3820(3)
H9D H 0.6714 0.4654 0.3457
C12D C 0.9627(4) 0.4847(4) 0.4517(3)
H10D H 0.9931 0.5036 0.4098
C13D C 0.5007(4) 0.2785(6) 0.3367(4)
C14D C 0.5024(4) 0.2325(5) 0.2692(3)
C15D C 0.4995(4) 0.2834(5) 0.2121(3)
H11D H 0.4963 0.3451 0.2152
C16D C 0.5013(4) 0.2430(4) 0.1503(4)
H12D H 0.4992 0.2775 0.1119
C17D C 0.5062(4) 0.1506(4) 0.1456(3)
C18D C 0.5082(5) 0.0983(5) 0.2037(4)
H13D H 0.5108 0.0364 0.2011
C19D C 0.5062(4) 0.1407(5) 0.2649(3)
H14D H 0.5074 0.1068 0.3037
C20D C 0.5083(4) 0.1064(4) 0.0783(4)
N3 N 0.2546(4) 0.2927(5) 0.7668(4)
O5 O 0.2603(4) 0.4431(4) 0.7630(3)
C21 C 0.2585(9) 0.3659(10) 0.7400(7)
H15 H 0.2606 0.3635 0.6937
C22 C 0.2588(9) 0.2990(8) 0.8484(6)
H16 H 0.2487 0.3597 0.8619
H17 H 0.3220 0.2789 0.8637
H18 H 0.2081 0.2621 0.8671
C23 C 0.2523(12) 0.2062(12) 0.7453(7)
H19 H 0.3075 0.1744 0.7635
H20 H 0.2556 0.2048 0.6976
H21 H 0.1922 0.1785 0.7598
C24? C 0.2569(14) 0.3684(15) 0.7870(13)
C25? C 0.2528(15) 0.2989(14) 0.6804(10)
C26? C 0.2524(18) 0.2040(16) 0.7811(12)
H22? H 0.2558 0.3705 0.8333
H23? H 0.1861 0.2940 0.6649
H24? H 0.2914 0.2511 0.6622
H25? H 0.2799 0.3549 0.6665
H26? H 0.1933 0.1782 0.7633
H27? H 0.2536 0.1958 0.8286
H28? H 0.3087 0.1754 0.7617
loop_
_geom_bond_atom_site_label_1
_geom_bond_atom_site_label_2
_geom_bond_site_symmetry_1
_geom_bond_site_symmetry_2
Zn1 O1 1_555 1_555
O1 C13 1_555 1_555
O2 Zn1 1_555 1_555
O3 C20 1_555 1_555
O4 C20 1_555 1_555
N1 Zn1 1_555 1_555
N2 C7 1_555 1_555
C1 N1 1_555 1_555
H1 C1 1_555 1_555
C2 C1 1_555 1_555
H2 C2 1_555 1_555
C3 C2 1_555 1_555
C4 C3 1_555 1_555
H3 C4 1_555 1_555
C5 N1 1_555 1_555
H4 C5 1_555 1_555
C6 C3 1_555 1_555
H5 C6 1_555 1_555
C7 H6 1_555 1_555
C8 C7 1_555 1_555
H7 C8 1_555 1_555
C9 C8 1_555 1_555
C10 C9 1_555 1_555
H8 C10 1_555 1_555
C11 N2 1_555 1_555
H9 C11 1_555 1_555
C12 C6 1_555 1_555
H10 C12 1_555 1_555
C13 O2 1_555 1_555
C14 C13 1_555 1_555
C15 C14 1_555 1_555
H11 C15 1_555 1_555
C16 C15 1_555 1_555
H12 C16 1_555 1_555
C17 C16 1_555 1_555
C18 C17 1_555 1_555
H13 C18 1_555 1_555
C19 C14 1_555 1_555
H14 C19 1_555 1_555
C20 C17 1_555 1_555
N3 C21 1_555 1_555
O5 C21 1_555 1_555
C21 H15 1_555 1_555
C22 N3 1_555 1_555
H16 C22 1_555 1_555
H17 C22 1_555 1_555
H18 C22 1_555 1_555
C23 N3 1_555 1_555
H19 C23 1_555 1_555
H20 C23 1_555 1_555
H21 C23 1_555 1_555
Zn1F O3 1_555 1_555
Zn1B O4 1_555 1_555
Zn1_2 N2 1_555 1_555
Zn1D N1D 1_555 1_555
Zn1D_2 O1D 1_555 1_555
Zn1B_2 O3D 1_555 1_555
Zn1F_2 O4D 1_555 1_555
O1D C13D 1_555 1_555
O2D Zn1D_2 1_555 1_555
O3F Zn1 1_555 1_555
O3B Zn1D_2 1_555 1_555
O3D C20D 1_555 1_555
O4F Zn1D_2 1_555 1_555
O4B Zn1 1_555 1_555
O4D C20D 1_555 1_555
N1D C1D 1_555 1_555
N1D_2 Zn1D_2 1_555 1_555
N2D Zn1D_2 1_555 1_555
N2_2 Zn1 1_555 1_555
C1D H1D 1_555 1_555
C2D C1D 1_555 1_555
H2D C2D 1_555 1_555
C3D C2D 1_555 1_555
C4D C3D 1_555 1_555
H3D C4D 1_555 1_555
C5D N1D 1_555 1_555
H4D C5D 1_555 1_555
C6D C12 1_555 1_555
H5D C6D 1_555 1_555
C7D N2D 1_555 1_555
H6D C7D 1_555 1_555
C8D C7D 1_555 1_555
H7D C8D 1_555 1_555
C9D C8D 1_555 1_555
C10D C9D 1_555 1_555
H8D C10D 1_555 1_555
C11D N2D 1_555 1_555
H9D C11D 1_555 1_555
C12D C6 1_555 1_555
H10D C12D 1_555 1_555
C13D O2D 1_555 1_555
C14D C13D 1_555 1_555
C15D C14D 1_555 1_555
H11D C15D 1_555 1_555
C16D C15D 1_555 1_555
H12D C16D 1_555 1_555
C17D C16D 1_555 1_555
C18D C17D 1_555 1_555
H13D C18D 1_555 1_555
C19D C14D 1_555 1_555
H14D C19D 1_555 1_555
C20D C17D 1_555 1_555
C4 C5 1_555 1_555
C9 C12 1_555 1_555
C10 C11 1_555 1_555
C18 C19 1_555 1_555
C3D C6D 1_555 1_555
C4D C5D 1_555 1_555
C6D C12D 1_555 1_555
C9D C12D 1_555 1_555
C10D C11D 1_555 1_555
C18D C19D 1_555 1_555

#END
