
#######################################################################
#
#                 Cambridge Crystallographic Data Centre
#                                CCDC 
#
#######################################################################
#
# If this CIF has been generated from an entry in the Cambridge 
# Structural Database, then it will include bibliographic, chemical, 
# crystal, experimental, refinement or atomic coordinate data resulting 
# from the CCDC's data processing and validation procedures.
#
#######################################################################

data_SUJTUN
_symmetry_cell_setting           monoclinic
_symmetry_space_group_name_H-M   'C 2/c'
_symmetry_Int_Tables_number      15
_space_group_name_Hall           '-C 2yn'
loop_
_symmetry_equiv_pos_site_id
_symmetry_equiv_pos_as_xyz
1 x,y,z
2 -x,y,1/2-z
3 1/2+x,1/2+y,z
4 1/2-x,1/2+y,1/2-z
5 -x,-y,-z
6 x,-y,1/2+z
7 1/2-x,1/2-y,-z
8 1/2+x,1/2-y,1/2+z
_cell_length_a                   11.4332(2)
_cell_length_b                   14.8786(3)
_cell_length_c                   15.4384(3)
_cell_angle_alpha                90
_cell_angle_beta                 95.7180(10)
_cell_angle_gamma                90
_cell_volume                     2613.16
loop_
_atom_site_label
_atom_site_type_symbol
_atom_site_fract_x
_atom_site_fract_y
_atom_site_fract_z
I1 I 1.02019(3) 0.31937(2) 0.60417(3)
I2 I 0.89300(4) 0.42703(3) 0.40668(3)
Zn1 Zn 1.0000 0.04663(6) 0.7500
C1 C 0.8089(5) 0.3194(3) 0.4636(3)
C2 C 0.8581(5) 0.2789(3) 0.5390(4)
C3 C 0.8005(5) 0.2077(3) 0.5760(3)
C4 C 0.8558(5) 0.1613(3) 0.6571(4)
O1 O 0.9267(4) 0.0990(3) 0.6433(3)
O2 O 0.8299(4) 0.1852(3) 0.7290(3)
O3 O 1.1081(4) -0.0426(3) 0.7033(3)
C5 C 1.1621(9) -0.0300(7) 0.6234(6)
H1 H 1.1731 -0.0886 0.5963
H2 H 1.1103 0.0062 0.5829
C6 C 1.2741(12) 0.0141(9) 0.6401(8)
H3 H 1.2656 0.0667 0.6762
H4 H 1.3016 0.0324 0.5853
H5 H 1.3303 -0.0269 0.6700
I1F I 0.47981(3) 0.18063(2) 0.39583(3)
I2F I 0.60700(4) 0.07297(3) 0.59332(3)
Zn1F Zn 0.5000 0.45337(6) 0.2500
C1F C 0.6911(5) 0.1806(3) 0.5364(3)
C2F C 0.6419(5) 0.2211(3) 0.4610(4)
C3F C 0.6995(5) 0.2923(3) 0.4240(3)
C4F C 0.6442(5) 0.3387(3) 0.3429(4)
O1F O 0.5733(4) 0.4010(3) 0.3567(3)
O1A O 1.0733(4) 0.0990(3) 0.8567(3)
O2F O 0.6701(4) 0.3148(3) 0.2710(3)
O3A O 0.8919(4) -0.0426(3) 0.7967(3)
C5A C 0.8379(9) -0.0300(7) 0.8766(6)
H1A H 0.8269 -0.0886 0.9037
H2A H 0.8897 0.0062 0.9171
C6A C 0.7259(12) 0.0141(9) 0.8599(8)
H3A H 0.7344 0.0667 0.8238
H4A H 0.6984 0.0324 0.9147
H5A H 0.6697 -0.0269 0.8300
O4 O 0.2139(6) 0.8255(4) 0.7935(4)
H6 H 0.2272 0.7854 0.7585
C7 C 0.1450(10) 0.7889(7) 0.8594(8)
H7 H 0.0668 0.7718 0.8326
H8 H 0.1835 0.7350 0.8852
C8 C 0.1339(11) 0.8558(8) 0.9266(8)
H9 H 0.2108 0.8684 0.9565
H10 H 0.0826 0.8330 0.9679
H11 H 0.1009 0.9105 0.9002
loop_
_geom_bond_atom_site_label_1
_geom_bond_atom_site_label_2
_geom_bond_site_symmetry_1
_geom_bond_site_symmetry_2
I1 C2 1_555 1_555
I2 C1 1_555 1_555
Zn1 O1 1_555 1_555
C1 C2 1_555 1_555
C2 C3 1_555 1_555
C3 C4 1_555 1_555
C4 O1 1_555 1_555
O2 C4 1_555 1_555
O3 Zn1 1_555 1_555
C5 O3 1_555 1_555
H1 C5 1_555 1_555
H2 C5 1_555 1_555
C6 C5 1_555 1_555
H3 C6 1_555 1_555
H4 C6 1_555 1_555
H5 C6 1_555 1_555
O4 H6 1_555 1_555
C7 O4 1_555 1_555
H7 C7 1_555 1_555
H8 C7 1_555 1_555
C8 C7 1_555 1_555
H9 C8 1_555 1_555
H10 C8 1_555 1_555
H11 C8 1_555 1_555
I1F C2F 1_555 1_555
I2F C1F 1_555 1_555
Zn1F O1F 1_555 1_555
C1F C3 1_555 1_555
C2F C1F 1_555 1_555
C3F C1 1_555 1_555
C4F C3F 1_555 1_555
O1F C4F 1_555 1_555
O1A Zn1 1_555 1_555
O2F C4F 1_555 1_555
O3A Zn1 1_555 1_555
C5A O3A 1_555 1_555
H1A C5A 1_555 1_555
H2A C5A 1_555 1_555
C6A C5A 1_555 1_555
H3A C6A 1_555 1_555
H4A C6A 1_555 1_555
H5A C6A 1_555 1_555
C2F C3F 1_555 1_555

#END
