
#######################################################################
#
#                 Cambridge Crystallographic Data Centre
#                                CCDC 
#
#######################################################################
#
# If this CIF has been generated from an entry in the Cambridge 
# Structural Database, then it will include bibliographic, chemical, 
# crystal, experimental, refinement or atomic coordinate data resulting 
# from the CCDC's data processing and validation procedures.
#
#######################################################################

data_SUJVID
_symmetry_cell_setting           monoclinic
_symmetry_space_group_name_H-M   'P 21'
_symmetry_Int_Tables_number      4
_space_group_name_Hall           'P 2yb'
loop_
_symmetry_equiv_pos_site_id
_symmetry_equiv_pos_as_xyz
1 x,y,z
2 -x,1/2+y,-z
_cell_length_a                   11.1745(4)
_cell_length_b                   10.1143(5)
_cell_length_c                   12.2459(5)
_cell_angle_alpha                90
_cell_angle_beta                 107.293(2)
_cell_angle_gamma                90
_cell_volume                     1321.5
loop_
_atom_site_label
_atom_site_type_symbol
_atom_site_fract_x
_atom_site_fract_y
_atom_site_fract_z
Cu1 Cu 1.09191(9) 0.90255(12) 0.26586(7)
I1 I 0.80337(4) 0.65777(5) 0.38426(3)
I2 I 0.48471(4) 0.65697(6) 0.39642(4)
I3 I 0.66390(4) 1.06194(5) 0.00932(3)
I4 I 0.34794(4) 1.06534(5) 0.02447(3)
N1 N 1.0380(6) 1.2972(7) 0.2101(5)
N2 N 1.2675(6) 0.7626(8) 0.5979(5)
C1 C 0.6958(6) 0.8514(8) 0.1911(5)
C2 C 0.6073(6) 0.9357(8) 0.1223(5)
C3 C 0.4840(6) 0.9382(8) 0.1266(5)
C4 C 0.4485(6) 0.8521(8) 0.2018(5)
C5 C 0.5392(6) 0.7728(8) 0.2783(5)
C6 C 0.6630(6) 0.7709(8) 0.2725(5)
C7 C 0.8253(6) 0.8345(8) 0.1786(5)
C8 C 0.3127(6) 0.8379(8) 0.1981(5)
C9 C 1.2403(7) 0.8436(9) 0.5102(6)
H1 H 1.3070 0.8915 0.4955
C10 C 1.1675(7) 0.6790(11) 0.6176(6)
H2 H 1.0894 0.7313 0.6026
H3 H 1.1922 0.6502 0.6985
C11 C 1.1439(8) 0.5584(11) 0.5400(6)
H4 H 1.1140 0.5869 0.4600
H5 H 1.0805 0.5021 0.5574
H6 H 1.2221 0.5085 0.5528
C12 C 1.3948(7) 0.7540(10) 0.6770(6)
H7 H 1.4552 0.7853 0.6377
H8 H 1.4144 0.6605 0.6986
C13 C 1.4106(8) 0.8363(9) 0.7853(6)
H9 H 1.3946 0.9296 0.7645
H10 H 1.4963 0.8263 0.8361
H11 H 1.3511 0.8057 0.8246
C14 C 1.0259(6) 1.1694(9) 0.2105(6)
H12 H 0.9557 1.1308 0.1558
C15 C 0.9477(7) 1.3817(9) 0.1272(6)
H13 H 0.9183 1.4523 0.1690
H14 H 0.8742 1.3279 0.0861
C16 C 1.0029(7) 1.4439(9) 0.0417(6)
H15 H 1.0701 1.5048 0.0811
H16 H 0.9375 1.4928 -0.0152
H17 H 1.0370 1.3748 0.0034
C17 C 1.1474(8) 1.3585(10) 0.2930(7)
H18 H 1.1539 1.3248 0.3704
H19 H 1.1342 1.4553 0.2933
C18 C 1.2705(8) 1.3313(12) 0.2668(9)
H20 H 1.2834 1.2356 0.2646
H21 H 1.3400 1.3708 0.3266
H22 H 1.2670 1.3700 0.1926
O1 O 0.2702(4) 0.9087(6) 0.2617(4)
O2 O 0.2518(4) 0.7521(6) 0.1277(4)
O3 O 0.9064(4) 0.9170(6) 0.2339(4)
O4 O 0.8416(4) 0.7442(6) 0.1170(4)
O5 O 1.1327(5) 0.8615(6) 0.4453(4)
O6 O 1.1009(5) 1.0943(6) 0.2784(4)
O7 O 1.0800(5) 0.7114(7) 0.2259(4)
Cu1_2 Cu 0.09191(9) 0.90255(12) 0.26586(7)
O1_2 O 1.2702(4) 0.9087(6) 0.2617(4)
loop_
_geom_bond_atom_site_label_1
_geom_bond_atom_site_label_2
_geom_bond_site_symmetry_1
_geom_bond_site_symmetry_2
Cu1 O3 1_555 1_555
I1 C6 1_555 1_555
I2 C5 1_555 1_555
I3 C2 1_555 1_555
I4 C3 1_555 1_555
N1 C14 1_555 1_555
N2 C9 1_555 1_555
C1 C2 1_555 1_555
C2 C3 1_555 1_555
C3 C4 1_555 1_555
C4 C5 1_555 1_555
C5 C6 1_555 1_555
C6 C1 1_555 1_555
C7 C1 1_555 1_555
C8 C4 1_555 1_555
C9 H1 1_555 1_555
C10 N2 1_555 1_555
H2 C10 1_555 1_555
H3 C10 1_555 1_555
C11 C10 1_555 1_555
H4 C11 1_555 1_555
H5 C11 1_555 1_555
H6 C11 1_555 1_555
C12 N2 1_555 1_555
H7 C12 1_555 1_555
H8 C12 1_555 1_555
C13 C12 1_555 1_555
H9 C13 1_555 1_555
H10 C13 1_555 1_555
H11 C13 1_555 1_555
C14 H12 1_555 1_555
C15 N1 1_555 1_555
H13 C15 1_555 1_555
H14 C15 1_555 1_555
C16 C15 1_555 1_555
H15 C16 1_555 1_555
H16 C16 1_555 1_555
H17 C16 1_555 1_555
C17 N1 1_555 1_555
H18 C17 1_555 1_555
H19 C17 1_555 1_555
C18 C17 1_555 1_555
H20 C18 1_555 1_555
H21 C18 1_555 1_555
H22 C18 1_555 1_555
O1 C8 1_555 1_555
O2 C8 1_555 1_555
O3 C7 1_555 1_555
O4 C7 1_555 1_555
O5 Cu1 1_555 1_555
O6 Cu1 1_555 1_555
O7 Cu1 1_555 1_555
Cu1_2 O1 1_555 1_555
O1_2 Cu1 1_555 1_555
C9 O5 1_555 1_555
C14 O6 1_555 1_555

#END
