
#######################################################################
#
#                 Cambridge Crystallographic Data Centre
#                                CCDC 
#
#######################################################################
#
# If this CIF has been generated from an entry in the Cambridge 
# Structural Database, then it will include bibliographic, chemical, 
# crystal, experimental, refinement or atomic coordinate data resulting 
# from the CCDC's data processing and validation procedures.
#
#######################################################################

data_SUJVEZ
_symmetry_cell_setting           orthorhombic
_symmetry_space_group_name_H-M   'P 21 21 21'
_symmetry_Int_Tables_number      19
_space_group_name_Hall           'P 2ac 2ab'
loop_
_symmetry_equiv_pos_site_id
_symmetry_equiv_pos_as_xyz
1 x,y,z
2 1/2-x,-y,1/2+z
3 -x,1/2+y,1/2-z
4 1/2+x,1/2-y,-z
_cell_length_a                   10.3871(4)
_cell_length_b                   11.7576(5)
_cell_length_c                   38.8192(14)
_cell_angle_alpha                90
_cell_angle_beta                 90
_cell_angle_gamma                90
_cell_volume                     4740.89
loop_
_atom_site_label
_atom_site_type_symbol
_atom_site_fract_x
_atom_site_fract_y
_atom_site_fract_z
O1 O -0.3961(8) -0.1706(7) 0.6107(2)
O2 O -0.2129(8) -0.2522(8) 0.5943(2)
C1 C -0.3070(11) -0.1866(10) 0.5895(3)
I1 I -0.14007(8) 0.18162(7) 0.510630(18)
I2 I -0.25749(9) 0.44040(7) 0.335990(18)
I3 I -0.51295(8) -0.17032(7) 0.456590(17)
I4 I -0.50203(8) -0.31362(7) 0.537690(17)
I5 I -0.15250(8) 0.04869(7) 0.594220(17)
I6 I -0.42618(8) 0.01286(7) 0.219040(18)
I7 I -0.08887(8) 0.40696(7) 0.25659(2)
I8 I -0.59428(7) 0.04244(8) 0.301440(19)
Zn1 Zn -0.30656(15) 0.12883(13) 0.39349(4)
Zn2 Zn -0.13370(16) 0.27498(14) 0.14934(4)
O3 O -0.2247(8) 0.2736(8) 0.4163(2)
O4 O -0.4451(8) 0.2164(7) 0.3712(2)
O5 O -0.1495(8) 0.1282(7) 0.3601(2)
O6 O -0.3891(9) 0.0956(8) 0.4440(2)
O7 O -0.2007(9) 0.0156(9) 0.4389(2)
O8 O -0.3610(8) -0.0256(7) 0.3735(2)
O9 O -0.2448(9) 0.2596(7) 0.1887(2)
O10 O 0.0465(8) 0.3081(8) 0.1653(2)
O11 O -0.1129(8) 0.1304(8) 0.2125(2)
O12 O -0.1737(8) 0.4363(8) 0.1359(2)
C2 C -0.2440(10) 0.2973(9) 0.2701(3)
C3 C -0.2028(11) 0.1990(10) 0.2138(3)
C4 C -0.2770(10) 0.2129(10) 0.2468(3)
C5 C -0.2448(10) -0.0242(9) 0.5507(3)
C6 C -0.2464(11) 0.0288(10) 0.5186(3)
O13 O -0.5716(8) 0.3300(8) 0.3402(2)
C7 C -0.4815(11) 0.2610(10) 0.3433(3)
N1 N 0.0232(10) 0.2134(9) 0.3356(3)
C8 C -0.0703(12) 0.2029(11) 0.3591(3)
H1 H -0.0746 0.2589 0.3763
C9 C 0.0294(13) 0.1323(11) 0.3081(3)
H2 H -0.0041 0.0598 0.3160
H3 H 0.1181 0.1230 0.3009
H4 H -0.0217 0.1591 0.2888
C10 C -0.4074(11) 0.2381(9) 0.3107(3)
C11 C -0.4427(10) 0.1506(9) 0.2868(3)
N2 N -0.2331(10) 0.4345(10) 0.4483(3)
C12 C -0.2842(11) 0.3428(10) 0.4342(3)
H5 H -0.3722 0.3292 0.4381
C13 C -0.3137(10) -0.0168(10) 0.4913(3)
C14 C -0.3139(11) -0.1256(10) 0.5557(3)
N3 N -0.1745(10) 0.5646(9) 0.0936(3)
C15 C -0.3132(14) 0.5878(14) 0.0960(4)
H6 H -0.3519 0.5367 0.1127
H7 H -0.3529 0.5762 0.0737
H8 H -0.3265 0.6659 0.1033
C16 C -0.1176(13) 0.4905(11) 0.1130(3)
H9 H -0.0294 0.4770 0.1095
C17 C -0.1034(15) 0.6307(14) 0.0677(4)
H10 H -0.0120 0.6279 0.0728
H11 H -0.1325 0.7091 0.0682
H12 H -0.1188 0.5988 0.0450
C18 C -0.3794(11) 0.1409(10) 0.2560(3)
C19 C -0.3053(10) 0.3092(10) 0.3006(3)
C20 C -0.3019(12) 0.0363(12) 0.4555(3)
C21 C -0.3870(9) -0.1658(9) 0.5280(3)
C22 C -0.3898(11) -0.1118(10) 0.4963(3)
C23 C 0.1170(14) 0.3015(13) 0.3368(4)
H13 H 0.1058 0.3456 0.3577
H14 H 0.1068 0.3508 0.3169
H15 H 0.2025 0.2683 0.3365
C24 C -0.3028(16) 0.5120(16) 0.4704(4)
H16 H -0.3912 0.4866 0.4727
H17 H -0.3014 0.5877 0.4604
H18 H -0.2625 0.5138 0.4929
C25 C -0.0956(16) 0.4560(17) 0.4437(5)
H19 H -0.0622 0.4068 0.4258
H20 H -0.0509 0.4407 0.4652
H21 H -0.0826 0.5348 0.4372
C26 C 0.2349(12) 0.4222(11) 0.2033(3)
H22 H 0.1981 0.4521 0.1822
H23 H 0.3276 0.4322 0.2029
H24 H 0.1992 0.4627 0.2229
N4 N 0.2037(10) 0.2983(9) 0.2064(3)
C27 C 0.2704(14) 0.2338(13) 0.2322(4)
H25 H 0.2569 0.2686 0.2546
H26 H 0.3617 0.2327 0.2270
H27 H 0.2377 0.1565 0.2325
C28 C 0.1108(11) 0.2537(11) 0.1867(3)
H28 H 0.0929 0.1758 0.1892
N5 N -0.3425(12) -0.2171(11) 0.3744(3)
C29 C -0.3047(13) -0.1158(11) 0.3814(3)
H29 H -0.2269 -0.1088 0.3936
C30 C -0.4594(15) -0.2417(15) 0.3562(4)
H30 H -0.5200 -0.2781 0.3717
H31 H -0.4409 -0.2922 0.3370
H32 H -0.4963 -0.1715 0.3475
C31 C -0.2732(15) -0.3151(13) 0.3881(4)
H33 H -0.1968 -0.3289 0.3744
H34 H -0.3285 -0.3815 0.3874
H35 H -0.2483 -0.3000 0.4118
O1A O -0.1039(8) 0.1706(7) 0.1107(2)
Zn2A Zn -0.36630(16) -0.27498(14) 0.64934(4)
loop_
_geom_bond_atom_site_label_1
_geom_bond_atom_site_label_2
_geom_bond_site_symmetry_1
_geom_bond_site_symmetry_2
O1 C1 1_555 1_555
O2 C1 1_555 1_555
C1 C14 1_555 1_555
I1 C6 1_555 1_555
I2 C19 1_555 1_555
I3 C22 1_555 1_555
I4 C21 1_555 1_555
I5 C5 1_555 1_555
I6 C18 1_555 1_555
I7 C2 1_555 1_555
I8 C11 1_555 1_555
Zn1 O3 1_555 1_555
Zn2 O9 1_555 1_555
O3 C12 1_555 1_555
O4 Zn1 1_555 1_555
O5 Zn1 1_555 1_555
O6 Zn1 1_555 1_555
O7 Zn1 1_555 1_555
O8 Zn1 1_555 1_555
O9 C3 1_555 1_555
O10 Zn2 1_555 1_555
O11 C3 1_555 1_555
O12 Zn2 1_555 1_555
C2 C4 1_555 1_555
C3 C4 1_555 1_555
C4 C18 1_555 1_555
C5 C6 1_555 1_555
C6 C13 1_555 1_555
O13 C7 1_555 1_555
C7 O4 1_555 1_555
N1 C8 1_555 1_555
C8 O5 1_555 1_555
H1 C8 1_555 1_555
C9 N1 1_555 1_555
H2 C9 1_555 1_555
H3 C9 1_555 1_555
H4 C9 1_555 1_555
C10 C7 1_555 1_555
C11 C10 1_555 1_555
N2 C12 1_555 1_555
C12 H5 1_555 1_555
C13 C20 1_555 1_555
C14 C5 1_555 1_555
N3 C15 1_555 1_555
C15 H6 1_555 1_555
H7 C15 1_555 1_555
H8 C15 1_555 1_555
C16 O12 1_555 1_555
H9 C16 1_555 1_555
C17 N3 1_555 1_555
H10 C17 1_555 1_555
H11 C17 1_555 1_555
H12 C17 1_555 1_555
C18 C11 1_555 1_555
C19 C2 1_555 1_555
C20 O6 1_555 1_555
C21 C14 1_555 1_555
C22 C13 1_555 1_555
C23 N1 1_555 1_555
H13 C23 1_555 1_555
H14 C23 1_555 1_555
H15 C23 1_555 1_555
C24 N2 1_555 1_555
H16 C24 1_555 1_555
H17 C24 1_555 1_555
H18 C24 1_555 1_555
C25 N2 1_555 1_555
H19 C25 1_555 1_555
H20 C25 1_555 1_555
H21 C25 1_555 1_555
C26 H22 1_555 1_555
H23 C26 1_555 1_555
H24 C26 1_555 1_555
N4 C26 1_555 1_555
C27 N4 1_555 1_555
H25 C27 1_555 1_555
H26 C27 1_555 1_555
H27 C27 1_555 1_555
C28 O10 1_555 1_555
H28 C28 1_555 1_555
N5 C29 1_555 1_555
C29 O8 1_555 1_555
H29 C29 1_555 1_555
C30 N5 1_555 1_555
H30 C30 1_555 1_555
H31 C30 1_555 1_555
H32 C30 1_555 1_555
C31 N5 1_555 1_555
H33 C31 1_555 1_555
H34 C31 1_555 1_555
H35 C31 1_555 1_555
O1A Zn2 1_555 1_555
Zn2A O1 1_555 1_555
O7 C20 1_555 1_555
C10 C19 1_555 1_555
N3 C16 1_555 1_555
C21 C22 1_555 1_555
N4 C28 1_555 1_555

#END
