
#######################################################################
#
#                 Cambridge Crystallographic Data Centre
#                                CCDC 
#
#######################################################################
#
# If this CIF has been generated from an entry in the Cambridge 
# Structural Database, then it will include bibliographic, chemical, 
# crystal, experimental, refinement or atomic coordinate data resulting 
# from the CCDC's data processing and validation procedures.
#
#######################################################################

data_SUJVAV
_symmetry_cell_setting           orthorhombic
_symmetry_space_group_name_H-M   'C m c 21'
_symmetry_Int_Tables_number      36
_space_group_name_Hall           'C 2n -2'
loop_
_symmetry_equiv_pos_site_id
_symmetry_equiv_pos_as_xyz
1 x,y,z
2 -x,-y,1/2+z
3 x,-y,1/2+z
4 -x,y,z
5 1/2+x,1/2+y,z
6 1/2-x,1/2-y,1/2+z
7 1/2+x,1/2-y,1/2+z
8 1/2-x,1/2+y,z
_cell_length_a                   10.9277(7)
_cell_length_b                   21.6680(19)
_cell_length_c                   9.5790(8)
_cell_angle_alpha                90
_cell_angle_beta                 90
_cell_angle_gamma                90
_cell_volume                     2268.13
loop_
_atom_site_label
_atom_site_type_symbol
_atom_site_fract_x
_atom_site_fract_y
_atom_site_fract_z
I1 I 1.16330(15) 0.27988(10) 0.4334(3)
I2 I 1.16475(12) 0.49922(9) 0.8147(2)
Cu1 Cu 1.5000 0.3943(4) 0.6196(12)
C1 C 1.066(2) 0.3499(15) 0.543(4)
C2 C 1.1252(16) 0.3885(12) 0.629(3)
O1 O 1.5000 0.3125(14) 0.516(4)
O2 O 1.5000 0.4731(19) 0.701(6)
C3 C 1.266(3) 0.3898(17) 0.616(5)
C4 C 1.059(2) 0.4361(9) 0.693(2)
O3 O 1.3187(18) 0.4130(10) 0.532(3)
N1 N 1.5000 0.2102(17) 0.521(4)
C5 C 1.5000 0.211(3) 0.369(8)
N2 N 1.5000 0.5722(18) 0.613(6)
C6 C 1.5000 0.2621(18) 0.591(4)
O4 O 1.3215(19) 0.3599(15) 0.730(3)
C7 C 1.5000 0.508(3) 0.574(11)
C8 C 1.561(7) 0.603(4) 0.738(9)
C9 C 1.440(6) 0.150(3) 0.580(9)
C10 C 1.5000 0.623(11) 0.56(3)
I1C I 0.83670(15) 0.27988(10) 0.4334(3)
I2C I 0.83525(12) 0.49922(9) 0.8147(2)
Cu1_2 Cu 0.5000 0.3943(4) 0.6196(12)
C1C C 0.934(2) 0.3499(15) 0.543(4)
C2C C 0.8748(16) 0.3885(12) 0.629(3)
C3C C 0.734(3) 0.3898(17) 0.616(5)
C4C C 0.941(2) 0.4361(9) 0.693(2)
O3C O 0.6813(18) 0.4130(10) 0.532(3)
O3C_2 O 1.6813(18) 0.4130(10) 0.532(3)
O4C O 0.6785(19) 0.3599(15) 0.730(3)
O4C_2 O 1.6785(19) 0.3599(15) 0.730(3)
C8C C 1.439(7) 0.603(4) 0.738(9)
C9C C 1.560(6) 0.150(3) 0.580(9)
loop_
_geom_bond_atom_site_label_1
_geom_bond_atom_site_label_2
_geom_bond_site_symmetry_1
_geom_bond_site_symmetry_2
I1 C1 1_555 1_555
I2 C4 1_555 1_555
Cu1 O1 1_555 1_555
C1 C2 1_555 1_555
C2 C3 1_555 1_555
O1 C6 1_555 1_555
O2 Cu1 1_555 1_555
C3 O3 1_555 1_555
C4 C2 1_555 1_555
O3 Cu1 1_555 1_555
N1 C5 1_555 1_555
N2 C7 1_555 1_555
C6 N1 1_555 1_555
O4 Cu1 1_555 1_555
C7 O2 1_555 1_555
C8 N2 1_555 1_555
C9 N1 1_555 1_555
C10 N2 1_555 1_555
I1C C1C 1_555 1_555
I2C C4C 1_555 1_555
Cu1_2 O3C 1_555 1_555
C1C C1 1_555 1_555
C2C C1C 1_555 1_555
C3C C2C 1_555 1_555
C4C C4 1_555 1_555
O3C C3C 1_555 1_555
O3C_2 Cu1 1_555 1_555
O4C Cu1_2 1_555 1_555
O4C_2 Cu1 1_555 1_555
C8C N2 1_555 1_555
C9C N1 1_555 1_555
C3 O4 1_555 1_555
C8 C8C 1_555 1_555
C9 C9C 1_555 1_555
C2C C4C 1_555 1_555
C3C O4C 1_555 1_555

#END
