
#######################################################################
#
#                 Cambridge Crystallographic Data Centre
#                                CCDC 
#
#######################################################################
#
# If this CIF has been generated from an entry in the Cambridge 
# Structural Database, then it will include bibliographic, chemical, 
# crystal, experimental, refinement or atomic coordinate data resulting 
# from the CCDC's data processing and validation procedures.
#
#######################################################################

data_SUJWUQ
_symmetry_cell_setting           monoclinic
_symmetry_space_group_name_H-M   'C c'
_symmetry_Int_Tables_number      9
_space_group_name_Hall           'C -2yc'
loop_
_symmetry_equiv_pos_site_id
_symmetry_equiv_pos_as_xyz
1 x,y,z
2 x,-y,1/2+z
3 1/2+x,1/2+y,z
4 1/2+x,1/2-y,1/2+z
_cell_length_a                   8.8568(5)
_cell_length_b                   19.936(1)
_cell_length_c                   26.209(2)
_cell_angle_alpha                90
_cell_angle_beta                 97.510(1)
_cell_angle_gamma                90
_cell_volume                     4588.01
loop_
_atom_site_label
_atom_site_type_symbol
_atom_site_fract_x
_atom_site_fract_y
_atom_site_fract_z
Co1 Co 0.49962(5) 0.39327(2) 0.50001(2)
O1 O 0.5326(3) 0.33528(17) 0.57236(13)
O2 O 0.7246(3) 0.37006(16) 0.53488(12)
O3 O 1.0767(4) 0.16975(17) 0.69815(12)
O4 O 1.0466(3) 0.07035(14) 0.92747(11)
O5 O 1.0325(3) 0.17908(14) 0.93890(11)
N1 N 0.2687(4) 0.37330(17) 0.48087(14)
N2 N 0.0544(4) 0.33068(17) 0.44313(14)
N3 N -0.1089(4) 0.09121(18) 0.52848(15)
N4 N -0.0335(4) -0.01413(17) 0.53232(14)
C1 C 0.6737(5) 0.3360(2) 0.56967(16)
C2 C 0.7801(4) 0.2941(2) 0.60524(15)
C3 C 0.7255(5) 0.2527(2) 0.64103(16)
H3 H 0.6217 0.2523 0.6436
C4 C 0.8205(5) 0.2125(2) 0.67266(17)
H4 H 0.7817 0.1848 0.6964
C5 C 0.9753(5) 0.2131(2) 0.66924(16)
C6 C 1.0351(5) 0.2537(2) 0.63409(18)
H5 H 1.1391 0.2540 0.6319
C7 C 0.9341(5) 0.2945(2) 0.60171(17)
H6 H 0.9717 0.3221 0.5777
C8 C 1.0677(5) 0.1619(2) 0.75043(16)
C9 C 1.0209(5) 0.2138(2) 0.78063(16)
H7 H 0.9908 0.2549 0.7659
C10 C 1.0201(4) 0.2033(2) 0.83213(16)
H8 H 0.9918 0.2381 0.8525
C11 C 1.0615(4) 0.1407(2) 0.85495(16)
C12 C 1.1098(5) 0.0907(2) 0.82401(16)
H9 H 1.1413 0.0497 0.8386
C13 C 1.1120(5) 0.1006(2) 0.77216(18)
H10 H 1.1432 0.0663 0.7519
C14 C 1.0478(4) 0.1301(2) 0.91005(16)
C15 C 0.1478(5) 0.4066(2) 0.49759(18)
H11 H 0.1565 0.4417 0.5212
C16 C 0.0151(5) 0.3808(2) 0.47474(18)
H12 H -0.0827 0.3942 0.4794
C17 C 0.2062(5) 0.3271(2) 0.44809(17)
H13 H 0.2607 0.2964 0.4310
C18 C -0.0547(5) 0.2876(2) 0.41099(17)
H14 H 0.0003 0.2579 0.3906
H15 H -0.1219 0.3153 0.3876
C19 C -0.1485(5) 0.2463(2) 0.44387(18)
H16 H -0.2338 0.2268 0.4218
H17 H -0.1895 0.2758 0.4680
C20 C -0.0599(5) 0.1901(2) 0.47388(19)
H18 H -0.0221 0.1586 0.4503
H19 H 0.0264 0.2085 0.4961
C21 C -0.1666(5) 0.1549(2) 0.5058(2)
H20 H -0.1874 0.1847 0.5333
H21 H -0.2623 0.1465 0.4842
C22 C -0.0517(4) 0.0404(2) 0.50394(17)
H22 H -0.0274 0.0433 0.4705
C23 C -0.0854(5) 0.0030(2) 0.57779(17)
H23 H -0.0885 -0.0257 0.6056
C24 C -0.1312(5) 0.0674(2) 0.57594(18)
H24 H -0.1703 0.0911 0.6018
Co1C Co 0.99962(5) 0.10673(2) 1.00001(2)
Co1B Co -0.00038(5) -0.10673(2) 0.50001(2)
O4C O 0.5466(3) 0.42965(14) 0.42747(11)
O5C O 0.5325(3) 0.32092(14) 0.43890(11)
N4B N 0.4665(4) 0.48587(17) 0.53232(14)
Co2 Co 0.62435(6) 0.34865(3) 0.81184(2)
O6 O 0.8327(4) 0.35731(15) 0.76811(12)
O7 O 0.6126(4) 0.40543(16) 0.74488(13)
O8 O 1.0115(4) 0.56523(18) 0.60201(12)
O9 O 0.7482(3) 0.68413(14) 0.38169(11)
O10 O 0.7282(3) 0.57585(14) 0.36685(11)
N5 N 0.4161(4) 0.37592(17) 0.83464(14)
N6 N 0.2379(4) 0.43675(19) 0.86358(14)
N7 N 0.0571(4) 0.75637(16) 0.78011(13)
C25 C 0.7527(5) 0.3966(2) 0.73906(17)
C26 C 0.8163(5) 0.4361(2) 0.69855(15)
C27 C 0.9660(5) 0.4270(2) 0.68921(17)
H25 H 1.0244 0.3930 0.7061
C28 C 1.0288(5) 0.4681(2) 0.65498(16)
H26 H 1.1285 0.4615 0.6486
C29 C 0.9420(5) 0.5186(2) 0.63062(15)
C30 C 0.7892(5) 0.5278(2) 0.63775(17)
H27 H 0.7302 0.5613 0.6204
C31 C 0.7295(5) 0.4849(2) 0.67160(16)
H28 H 0.6277 0.4892 0.6763
C32 C 0.9461(5) 0.5790(2) 0.55233(16)
C33 C 0.8718(4) 0.5296(2) 0.52121(16)
H29 H 0.8580 0.4868 0.5341
C34 C 0.8190(5) 0.5453(2) 0.47081(17)
H30 H 0.7718 0.5120 0.4495
C35 C 0.8340(4) 0.6088(2) 0.45099(16)
C36 C 0.9057(5) 0.6586(2) 0.48357(17)
H31 H 0.9156 0.7019 0.4711
C37 C 0.9614(5) 0.6436(2) 0.53403(17)
H32 H 1.0090 0.6765 0.5556
C38 C 0.7685(4) 0.62374(19) 0.39680(16)
C39 C 0.2776(5) 0.3435(2) 0.82465(19)
H33 H 0.2625 0.3019 0.8087
C40 C 0.1670(5) 0.3812(2) 0.8415(2)
H34 H 0.0636 0.3713 0.8386
C41 C 0.3858(5) 0.4323(2) 0.85817(16)
H35 H 0.4581 0.4647 0.8695
C42 C 0.1634(5) 0.4959(3) 0.88355(17)
H36 H 0.2389 0.5270 0.8999
H37 H 0.0976 0.4824 0.9085
N8 N 0.0482(9) 0.6515(4) 0.7544(3)
C43 C 0.0708(13) 0.5282(10) 0.8368(4)
H38 H 0.0187 0.5676 0.8475
H39 H -0.0055 0.4968 0.8214
C44 C 0.1748(10) 0.5483(5) 0.7974(3)
H40 H 0.2514 0.5793 0.8132
H41 H 0.2267 0.5088 0.7869
C45 C 0.0873(11) 0.5808(4) 0.7506(3)
H42 H 0.1467 0.5758 0.7222
H43 H -0.0065 0.5558 0.7416
C46 C 0.1227(13) 0.6973(4) 0.7873(4)
H44 H 0.2073 0.6882 0.8112
C47 C -0.062(2) 0.7468(7) 0.7416(7)
H45 H -0.1299 0.7803 0.7291
C48 C -0.0687(12) 0.6835(6) 0.7240(5)
H46 H -0.1366 0.6654 0.6974
Co2A Co 0.62435(6) 0.65135(3) 0.31184(2)
Co2B Co 0.12435(6) 0.84865(3) 0.81184(2)
O9A O 0.7482(3) 0.31587(14) 0.88169(11)
O10A O 0.7282(3) 0.42415(14) 0.86685(11)
N7B N 0.5571(4) 0.25637(16) 0.78011(13)
O11 O 0.3741(5) 0.3729(3) 0.65949(18)
H1 H 0.401(7) 0.354(4) 0.6329(18)
H2 H 0.452(5) 0.387(4) 0.679(2)
C49? C 0.0375(15) 0.5304(10) 0.8481(4)
C50? C 0.0552(11) 0.5259(4) 0.7916(3)
C51? C 0.1559(12) 0.5793(5) 0.7734(5)
C52? C 0.1362(14) 0.7034(4) 0.7980(5)
C53? C -0.037(2) 0.7362(8) 0.7372(8)
C54? C -0.0207(14) 0.6696(7) 0.7325(6)
H47? H -0.0593 0.5106 0.8533
H48? H 0.0346 0.5774 0.8577
H49? H 0.0970 0.4822 0.7849
H50? H -0.0448 0.5289 0.7716
H51? H 0.2499 0.5801 0.7970
H52? H 0.1818 0.5656 0.7401
H53? H 0.2088 0.7037 0.8271
H54? H -0.1013 0.7636 0.7153
H55? H -0.0796 0.6423 0.7089
N9? N 0.0979(8) 0.6480(4) 0.7684(3)
loop_
_geom_bond_atom_site_label_1
_geom_bond_atom_site_label_2
_geom_bond_site_symmetry_1
_geom_bond_site_symmetry_2
Co1 O1 1_555 1_555
Co2 O6 1_555 1_555
O1 C1 1_555 1_555
O2 Co1 1_555 1_555
O3 C5 1_555 1_555
O4 C14 1_555 1_555
O5 C14 1_555 1_555
O6 C25 1_555 1_555
O7 Co2 1_555 1_555
O8 C29 1_555 1_555
O9 C38 1_555 1_555
O10 C38 1_555 1_555
O11 H1 1_555 1_555
H2 O11 1_555 1_555
N1 Co1 1_555 1_555
N2 C16 1_555 1_555
N3 C21 1_555 1_555
N4 C22 1_555 1_555
N5 Co2 1_555 1_555
N6 C40 1_555 1_555
N7 C46 1_555 1_555
C1 O2 1_555 1_555
C2 C1 1_555 1_555
C3 C2 1_555 1_555
H3 C3 1_555 1_555
C4 C3 1_555 1_555
H4 C4 1_555 1_555
C5 C4 1_555 1_555
C6 C5 1_555 1_555
H5 C6 1_555 1_555
C7 C2 1_555 1_555
H6 C7 1_555 1_555
C8 O3 1_555 1_555
C9 C8 1_555 1_555
H7 C9 1_555 1_555
C10 C9 1_555 1_555
H8 C10 1_555 1_555
C11 C10 1_555 1_555
C12 C11 1_555 1_555
H9 C12 1_555 1_555
C13 C8 1_555 1_555
H10 C13 1_555 1_555
C14 C11 1_555 1_555
C15 N1 1_555 1_555
H11 C15 1_555 1_555
C16 C15 1_555 1_555
H12 C16 1_555 1_555
C17 N1 1_555 1_555
H13 C17 1_555 1_555
C18 N2 1_555 1_555
H14 C18 1_555 1_555
H15 C18 1_555 1_555
C19 C18 1_555 1_555
H16 C19 1_555 1_555
H17 C19 1_555 1_555
C20 C19 1_555 1_555
H18 C20 1_555 1_555
H19 C20 1_555 1_555
C21 C20 1_555 1_555
H20 C21 1_555 1_555
H21 C21 1_555 1_555
C22 N3 1_555 1_555
H22 C22 1_555 1_555
C23 N4 1_555 1_555
H23 C23 1_555 1_555
C24 N3 1_555 1_555
H24 C24 1_555 1_555
C25 O7 1_555 1_555
C26 C25 1_555 1_555
C27 C26 1_555 1_555
H25 C27 1_555 1_555
C28 C27 1_555 1_555
H26 C28 1_555 1_555
C29 C28 1_555 1_555
C30 C29 1_555 1_555
H27 C30 1_555 1_555
C31 C26 1_555 1_555
H28 C31 1_555 1_555
C32 O8 1_555 1_555
C33 C32 1_555 1_555
H29 C33 1_555 1_555
C34 C33 1_555 1_555
H30 C34 1_555 1_555
C35 C34 1_555 1_555
C36 C35 1_555 1_555
H31 C36 1_555 1_555
C37 C32 1_555 1_555
H32 C37 1_555 1_555
C38 C35 1_555 1_555
C39 N5 1_555 1_555
H33 C39 1_555 1_555
C40 C39 1_555 1_555
H34 C40 1_555 1_555
C41 N5 1_555 1_555
H35 C41 1_555 1_555
C42 N6 1_555 1_555
H36 C42 1_555 1_555
H37 C42 1_555 1_555
N8 C45 1_555 1_555
C43 C42 1_555 1_555
H38 C43 1_555 1_555
H39 C43 1_555 1_555
C44 C43 1_555 1_555
H40 C44 1_555 1_555
H41 C44 1_555 1_555
C45 C44 1_555 1_555
H42 C45 1_555 1_555
H43 C45 1_555 1_555
C46 N8 1_555 1_555
H44 C46 1_555 1_555
C47 N7 1_555 1_555
H45 C47 1_555 1_555
C48 N8 1_555 1_555
H46 C48 1_555 1_555
Co1C O4 1_555 1_555
Co1B N4 1_555 1_555
Co2A O9 1_555 1_555
Co2B N7 1_555 1_555
O4C Co1 1_555 1_555
O5C Co1 1_555 1_555
O9A Co2 1_555 1_555
O10A Co2 1_555 1_555
N4B Co1 1_555 1_555
N7B Co2 1_555 1_555
O5 Co1C 1_555 1_555
O10 Co2A 1_555 1_555
N2 C17 1_555 1_555
N6 C41 1_555 1_555
C6 C7 1_555 1_555
C12 C13 1_555 1_555
C23 C24 1_555 1_555
C30 C31 1_555 1_555
C36 C37 1_555 1_555
C47 C48 1_555 1_555

#END
