
#######################################################################
#
#                 Cambridge Crystallographic Data Centre
#                                CCDC 
#
#######################################################################
#
# If this CIF has been generated from an entry in the Cambridge 
# Structural Database, then it will include bibliographic, chemical, 
# crystal, experimental, refinement or atomic coordinate data resulting 
# from the CCDC's data processing and validation procedures.
#
#######################################################################

data_SUJXIF
_symmetry_cell_setting           monoclinic
_symmetry_space_group_name_H-M   'C 2/c'
_symmetry_Int_Tables_number      15
_space_group_name_Hall           '-C 2yn'
loop_
_symmetry_equiv_pos_site_id
_symmetry_equiv_pos_as_xyz
1 x,y,z
2 -x,y,1/2-z
3 1/2+x,1/2+y,z
4 1/2-x,1/2+y,1/2-z
5 -x,-y,-z
6 x,-y,1/2+z
7 1/2-x,1/2-y,-z
8 1/2+x,1/2-y,1/2+z
_cell_length_a                   23.366(2)
_cell_length_b                   8.9971(9)
_cell_length_c                   19.8113(19)
_cell_angle_alpha                90
_cell_angle_beta                 93.8380(10)
_cell_angle_gamma                90
_cell_volume                     4155.51
loop_
_atom_site_label
_atom_site_type_symbol
_atom_site_fract_x
_atom_site_fract_y
_atom_site_fract_z
Ni1 Ni 0.407827(12) 0.85686(3) 1.042281(14)
O1 O 0.34934(7) 0.9889(2) 0.98474(8)
O2 O 0.42446(7) 0.90089(19) 0.93681(8)
O3 O 0.36949(7) 1.13072(18) 0.63169(8)
O4 O 0.43903(8) 1.0073(3) 0.68985(9)
O5 O 0.45823(7) 1.04380(18) 1.06653(8)
H1 H 0.4926 1.0502 1.0585
H2 H 0.4549 1.0439 1.1084
N1 N 0.46590(9) 0.6959(2) 1.07609(10)
N2 N 0.36487(9) 0.6626(2) 1.01203(10)
C1 C 0.31329(12) 0.6553(4) 0.97819(13)
H4 H 0.2938 0.7433 0.9675
C2 C 0.28786(14) 0.5217(4) 0.95852(15)
H5 H 0.2516 0.5195 0.9363
C3 C 0.31769(16) 0.3920(4) 0.97277(17)
H6 H 0.3018 0.3009 0.9595
C4 C 0.37061(15) 0.3979(3) 1.00641(16)
H7 H 0.3912 0.3112 1.0160
C5 C 0.39327(12) 0.5358(3) 1.02622(12)
C6 C 0.44934(11) 0.5539(3) 1.06538(13)
C7 C 0.48232(14) 0.4362(3) 1.08982(17)
H8 H 0.4703 0.3391 1.0811
C8 C 0.53288(15) 0.4625(4) 1.12703(19)
H9 H 0.5554 0.3838 1.1439
C9 C 0.54980(14) 0.6067(4) 1.13895(18)
H10 H 0.5838 0.6277 1.1643
C10 C 0.51542(12) 0.7196(3) 1.11263(14)
H11 H 0.5271 0.8172 1.1206
C11 C 0.35144(10) 1.0232(3) 0.86542(11)
C12 C 0.38332(10) 1.0278(3) 0.80910(11)
H12 H 0.4218 1.0007 0.8126
C13 C 0.35756(10) 1.0730(3) 0.74701(11)
C14 C 0.29947(10) 1.1084(3) 0.74219(11)
H13 H 0.2825 1.1392 0.7007
C15 C 0.26601(10) 1.0992(2) 0.79732(11)
C16 C 0.29343(10) 1.0582(3) 0.85942(11)
H14 H 0.2724 1.0543 0.8976
C17 C 0.37700(10) 0.9698(3) 0.93258(11)
C18 C 0.39150(10) 1.0710(3) 0.68509(12)
C19 C 0.20083(10) 1.1279(3) 0.79310(12)
C20 C 0.18747(12) 1.2503(3) 0.84360(14)
H15 H 0.1469 1.2676 0.8416
H16 H 0.2068 1.3402 0.8323
H17 H 0.2004 1.2198 0.8885
C21 C 0.17881(12) 1.1782(3) 0.72205(13)
H18 H 0.1848 1.1003 0.6902
H19 H 0.1992 1.2657 0.7097
H20 H 0.1386 1.2001 0.7218
C22 C 0.16965(12) 0.9854(3) 0.81030(16)
H21 H 0.1769 0.9102 0.7776
H22 H 0.1292 1.0042 0.8096
H23 H 0.1832 0.9521 0.8545
Ni1E Ni 0.407827(12) 1.14314(3) 0.542281(14)
O3E O 0.36949(7) 0.86928(18) 1.13169(8)
O6 O 0.5000 0.7628(4) 0.7500
H3 H 0.5206 0.8153 0.7762
H3A H 0.4794 0.8153 0.7238
loop_
_geom_bond_atom_site_label_1
_geom_bond_atom_site_label_2
_geom_bond_site_symmetry_1
_geom_bond_site_symmetry_2
Ni1 O1 1_555 1_555
O1 C17 1_555 1_555
O2 Ni1 1_555 1_555
O3 C18 1_555 1_555
O4 C18 1_555 1_555
O5 Ni1 1_555 1_555
H1 O5 1_555 1_555
H2 O5 1_555 1_555
O6 H3 1_555 1_555
N1 Ni1 1_555 1_555
N2 Ni1 1_555 1_555
C1 N2 1_555 1_555
H4 C1 1_555 1_555
C2 C1 1_555 1_555
H5 C2 1_555 1_555
C3 C2 1_555 1_555
H6 C3 1_555 1_555
C4 C3 1_555 1_555
H7 C4 1_555 1_555
C5 N2 1_555 1_555
C6 N1 1_555 1_555
C7 C6 1_555 1_555
H8 C7 1_555 1_555
C8 C7 1_555 1_555
H9 C8 1_555 1_555
C9 C8 1_555 1_555
H10 C9 1_555 1_555
C10 N1 1_555 1_555
H11 C10 1_555 1_555
C11 C12 1_555 1_555
C12 H12 1_555 1_555
C13 C12 1_555 1_555
C14 C13 1_555 1_555
H13 C14 1_555 1_555
C15 C14 1_555 1_555
C16 C11 1_555 1_555
H14 C16 1_555 1_555
C17 O2 1_555 1_555
C18 C13 1_555 1_555
C19 C15 1_555 1_555
C20 C19 1_555 1_555
H15 C20 1_555 1_555
H16 C20 1_555 1_555
H17 C20 1_555 1_555
C21 C19 1_555 1_555
H18 C21 1_555 1_555
H19 C21 1_555 1_555
H20 C21 1_555 1_555
C22 C19 1_555 1_555
H21 C22 1_555 1_555
H22 C22 1_555 1_555
H23 C22 1_555 1_555
Ni1E O3 1_555 1_555
O3E Ni1 1_555 1_555
H3A O6 1_555 1_555
C4 C5 1_555 1_555
C5 C6 1_555 1_555
C9 C10 1_555 1_555
C11 C17 1_555 1_555
C15 C16 1_555 1_555

#END
