
#######################################################################
#
#                 Cambridge Crystallographic Data Centre
#                                CCDC 
#
#######################################################################
#
# If this CIF has been generated from an entry in the Cambridge 
# Structural Database, then it will include bibliographic, chemical, 
# crystal, experimental, refinement or atomic coordinate data resulting 
# from the CCDC's data processing and validation procedures.
#
#######################################################################

data_SUJZED
_symmetry_cell_setting           cubic
_symmetry_space_group_name_H-M   'I -4 3 d'
_symmetry_Int_Tables_number      220
_space_group_name_Hall           'I -4bd 2c 3'
loop_
_symmetry_equiv_pos_site_id
_symmetry_equiv_pos_as_xyz
1 x,y,z
2 1/2-x,-y,1/2+z
3 -x,1/2+y,1/2-z
4 1/2+x,1/2-y,-z
5 z,x,y
6 1/2+z,1/2-x,-y
7 1/2-z,-x,1/2+y
8 -z,1/2+x,1/2-y
9 y,z,x
10 -y,1/2+z,1/2-x
11 1/2+y,1/2-z,-x
12 1/2-y,-z,1/2+x
13 1/4+y,1/4+x,1/4+z
14 1/4-y,3/4-x,3/4+z
15 3/4+y,1/4-x,3/4-z
16 3/4-y,3/4+x,1/4-z
17 1/4+x,1/4+z,1/4+y
18 3/4-x,3/4+z,1/4-y
19 1/4-x,3/4-z,3/4+y
20 3/4+x,1/4-z,3/4-y
21 1/4+z,1/4+y,1/4+x
22 3/4+z,1/4-y,3/4-x
23 3/4-z,3/4+y,1/4-x
24 1/4-z,3/4-y,3/4+x
25 1/2+x,1/2+y,1/2+z
26 -x,1/2-y,z
27 1/2-x,y,-z
28 x,-y,1/2-z
29 1/2+z,1/2+x,1/2+y
30 z,-x,1/2-y
31 -z,1/2-x,y
32 1/2-z,x,-y
33 1/2+y,1/2+z,1/2+x
34 1/2-y,z,-x
35 y,-z,1/2-x
36 -y,1/2-z,x
37 3/4+y,3/4+x,3/4+z
38 3/4-y,1/4-x,1/4+z
39 1/4+y,3/4-x,1/4-z
40 1/4-y,1/4+x,3/4-z
41 3/4+x,3/4+z,3/4+y
42 1/4-x,1/4+z,3/4-y
43 3/4-x,1/4-z,1/4+y
44 1/4+x,3/4-z,1/4-y
45 3/4+z,3/4+y,3/4+x
46 1/4+z,3/4-y,1/4-x
47 1/4-z,1/4+y,3/4-x
48 3/4-z,1/4-y,1/4+x
_cell_length_a                   21.5247(4)
_cell_length_b                   21.5247(4)
_cell_length_c                   21.5247(4)
_cell_angle_alpha                90
_cell_angle_beta                 90
_cell_angle_gamma                90
_cell_volume                     9972.67
loop_
_atom_site_label
_atom_site_type_symbol
_atom_site_fract_x
_atom_site_fract_y
_atom_site_fract_z
S1 S 0.80032(8) 0.30032(8) 0.19968(8)
Cd1 Cd 0.5000 0.2500 0.1250
Cd2 Cd 0.65203(2) 0.28069(2) 0.23517(2)
O1 O 0.71178(19) 0.21178(19) 0.28822(19)
O2 O 0.7368(3) 0.2968(3) 0.1744(3)
O3 O 0.8396(3) 0.3396(3) 0.1604(3)
N1 N 0.5905(3) 0.1896(3) 0.1217(3)
N2 N 0.6378(2) 0.1987(2) 0.1588(3)
N3 N 0.6809(2) 0.1564(3) 0.1493(3)
N4 N 0.6029(3) 0.1397(2) 0.0857(2)
N5 N 0.5000 0.2500 0.0165(3)
N6 N 0.5084(3) 0.2003(3) -0.0189(3)
C1 C 0.6904(4) 0.0637(4) 0.0786(4)
H1 H 0.6652 0.0457 0.0465
H2 H 0.6963 0.0340 0.1113
H3 H 0.7300 0.0753 0.0617
C2 C 0.6587(3) 0.1200(3) 0.1040(3)
C3 C 0.5058(4) 0.2195(4) -0.0784(3)
H4 H 0.5111 0.1946 -0.1134
S1O S 0.44968(8) 0.55032(8) 0.05032(8)
S1Y S 0.19968(8) 0.19968(8) 0.19968(8)
S1LA S 0.55032(8) -0.05032(8) 0.05032(8)
Cd1J Cd 0.7500 0.3750 0.5000
Cd1F Cd 0.3750 0.5000 -0.2500
Cd1H Cd 0.2500 0.1250 0.5000
Cd1E Cd 0.6250 0.0000 -0.2500
Cd1G Cd 0.8750 0.0000 0.2500
Cd1I Cd 0.7500 0.6250 0.0000
Cd1D Cd 0.1250 0.5000 0.2500
Cd1K Cd 0.2500 -0.1250 0.0000
Cd2O Cd 0.46931(2) 0.40203(2) 0.01483(2)
Cd2Y Cd 0.34797(2) 0.21931(2) 0.23517(2)
Cd2LA Cd 0.53069(2) 0.09797(2) 0.01483(2)
Cd2G Cd 0.76483(2) 0.15203(2) 0.21931(2)
Cd2R Cd 0.59797(2) 0.51483(2) 0.03069(2)
Cd2CA Cd 0.23517(2) 0.34797(2) 0.21931(2)
Cd2NA Cd 0.40203(2) -0.01483(2) 0.03069(2)
Cd2J Cd 0.78069(2) 0.26483(2) 0.34797(2)
Cd2T Cd 0.48517(2) 0.53069(2) -0.09797(2)
Cd2GA Cd 0.21931(2) 0.23517(2) 0.34797(2)
Cd2UA Cd 0.51483(2) -0.03069(2) -0.09797(2)
Cd2OA Cd 0.59797(2) 0.48517(2) 0.46931(2)
Cd2F Cd 0.26483(2) 0.34797(2) -0.21931(2)
Cd2S Cd 0.40203(2) 0.01483(2) 0.46931(2)
Cd2BA Cd 0.73517(2) 0.15203(2) -0.21931(2)
Cd2RA Cd 0.98517(2) 0.03069(2) 0.40203(2)
Cd2U Cd 0.98517(2) -0.03069(2) 0.09797(2)
Cd2M Cd 0.96931(2) 0.09797(2) -0.01483(2)
Cd2DA Cd 0.76483(2) -0.15203(2) 0.28069(2)
Cd2I Cd 0.71931(2) 0.73517(2) -0.15203(2)
Cd2FA Cd 0.78069(2) 0.73517(2) 0.15203(2)
Cd2AA Cd 0.65203(2) 0.71931(2) 0.26483(2)
Cd2QA Cd 0.90203(2) 0.51483(2) -0.03069(2)
Cd2D Cd 0.23517(2) 0.65203(2) 0.28069(2)
Cd2Q Cd 0.09797(2) -0.01483(2) -0.03069(2)
O1O O 0.53822(19) 0.46178(19) -0.03822(19)
O1Y O 0.28822(19) 0.28822(19) 0.28822(19)
O1LA O 0.46178(19) 0.03822(19) -0.03822(19)
O2J O 0.7968(3) 0.3256(3) 0.2632(3)
O2G O 0.8256(3) 0.2368(3) 0.2032(3)
O2O O 0.4532(3) 0.4868(3) 0.0756(3)
O2T O 0.4244(3) 0.5468(3) -0.0132(3)
O2R O 0.5132(3) 0.5756(3) 0.0468(3)
O2Y O 0.2632(3) 0.2032(3) 0.1744(3)
O2GA O 0.2032(3) 0.1744(3) 0.2632(3)
O2CA O 0.1744(3) 0.2632(3) 0.2032(3)
O2LA O 0.5468(3) 0.0132(3) 0.0756(3)
O2UA O 0.5756(3) -0.0468(3) -0.0132(3)
O2NA O 0.4868(3) -0.0756(3) 0.0468(3)
O3O O 0.4104(3) 0.5896(3) 0.0896(3)
O3Y O 0.1604(3) 0.1604(3) 0.1604(3)
O3LA O 0.5896(3) -0.0896(3) 0.0896(3)
N1O N 0.5604(3) 0.3405(3) 0.1283(3)
N1Y N 0.4095(3) 0.3104(3) 0.1217(3)
N1LA N 0.4396(3) 0.1595(3) 0.1283(3)
N1J N 0.6896(3) 0.3783(3) 0.4095(3)
N1T N 0.3717(3) 0.4396(3) -0.1595(3)
N1GA N 0.3104(3) 0.1217(3) 0.4095(3)
N1UA N 0.6283(3) 0.0604(3) -0.1595(3)
N1G N 0.8783(3) 0.0905(3) 0.3104(3)
N1U N 0.8717(3) 0.0604(3) 0.1595(3)
N1R N 0.6595(3) 0.6283(3) -0.0604(3)
N1FA N 0.6896(3) 0.6217(3) 0.0905(3)
N1P N 0.8405(3) 0.3717(3) 0.4396(3)
N1IA N 0.8104(3) 0.3783(3) 0.5905(3)
N1OA N 0.6595(3) 0.3717(3) 0.5604(3)
N1EA N 0.3783(3) 0.5905(3) -0.1896(3)
N1SA N 0.3717(3) 0.5604(3) -0.3405(3)
N1F N 0.3783(3) 0.4095(3) -0.3104(3)
N2O N 0.5513(2) 0.3878(2) 0.0912(3)
N2Y N 0.3622(2) 0.3013(2) 0.1588(3)
N2LA N 0.4487(2) 0.1122(2) 0.0912(3)
N2J N 0.6987(2) 0.3412(3) 0.3622(2)
N2T N 0.4088(3) 0.4487(2) -0.1122(2)
N2GA N 0.3013(2) 0.1588(3) 0.3622(2)
N2UA N 0.5912(3) 0.0513(2) -0.1122(2)
N2G N 0.8412(3) 0.1378(2) 0.3013(2)
N2U N 0.9088(3) 0.0513(2) 0.1122(2)
N2R N 0.6122(2) 0.5912(3) -0.0513(2)
N2FA N 0.6987(2) 0.6588(3) 0.1378(2)
N2CA N 0.1588(3) 0.3622(2) 0.3013(2)
N2NA N 0.3878(2) -0.0912(3) -0.0513(2)
N3O N 0.5936(3) 0.4309(2) 0.1007(3)
N3Y N 0.3191(2) 0.3436(3) 0.1493(3)
N3LA N 0.4064(3) 0.0691(2) 0.1007(3)
N3J N 0.6564(3) 0.3507(3) 0.3191(2)
N3T N 0.3993(3) 0.4064(3) -0.0691(2)
N3GA N 0.3436(3) 0.1493(3) 0.3191(2)
N3UA N 0.6007(3) 0.0936(3) -0.0691(2)
N3G N 0.8507(3) 0.1809(2) 0.3436(3)
N3U N 0.8993(3) 0.0936(3) 0.0691(2)
N3R N 0.5691(2) 0.6007(3) -0.0936(3)
N3FA N 0.6564(3) 0.6493(3) 0.1809(2)
N3CA N 0.1493(3) 0.3191(2) 0.3436(3)
N3NA N 0.4309(2) -0.1007(3) -0.0936(3)
N4O N 0.6103(2) 0.3529(3) 0.1643(2)
N4Y N 0.3971(3) 0.3603(2) 0.0857(2)
N4LA N 0.3897(2) 0.1471(3) 0.1643(2)
N4J N 0.6397(2) 0.4143(2) 0.3971(3)
N4T N 0.3357(2) 0.3897(2) -0.1471(3)
N4GA N 0.3603(2) 0.0857(2) 0.3971(3)
N4UA N 0.6643(2) 0.1103(2) -0.1471(3)
N4G N 0.9143(2) 0.1029(3) 0.3603(2)
N4U N 0.8357(2) 0.1103(2) 0.1471(3)
N4R N 0.6471(3) 0.6643(2) -0.1103(2)
N4FA N 0.6397(2) 0.5857(2) 0.1029(3)
N4TA N 0.1643(2) 0.3897(2) 0.1471(3)
N4K N 0.3603(2) -0.0857(2) 0.1029(3)
N4P N 0.8529(3) 0.3357(2) 0.3897(2)
N4EA N 0.4143(2) 0.6029(3) -0.1397(2)
N4PA N 0.1471(3) 0.1643(2) 0.3897(2)
N4E N 0.5857(2) -0.1029(3) -0.1397(2)
N5O N 0.5000 0.2500 0.2335(3)
N5U N 0.7665(3) 0.0000 0.2500
N5I N 0.7500 0.5165(3) 0.0000
N5W N 0.2335(3) 0.5000 0.2500
N5K N 0.2500 -0.0165(3) 0.0000
N5J N 0.7500 0.4835(3) 0.5000
N5P N 0.7500 0.2665(3) 0.5000
N5T N 0.2665(3) 0.5000 -0.2500
N5F N 0.4835(3) 0.5000 -0.2500
N6Y N 0.4916(3) 0.2997(3) -0.0189(3)
N6O N 0.5497(3) 0.2584(3) 0.2689(3)
N6LA N 0.4503(3) 0.2416(3) 0.2689(3)
N6U N 0.7311(3) 0.0497(3) 0.2416(3)
N6RA N 0.7311(3) -0.0497(3) 0.2584(3)
N6FA N 0.7003(3) 0.4811(3) 0.0084(3)
N6I N 0.7997(3) 0.4811(3) -0.0084(3)
N6TA N 0.2689(3) 0.4503(3) 0.2416(3)
N6W N 0.2689(3) 0.5497(3) 0.2584(3)
N6K N 0.2997(3) 0.0189(3) 0.0084(3)
N6HA N 0.2003(3) 0.0189(3) -0.0084(3)
N6P N 0.7584(3) 0.2311(3) 0.4503(3)
N6EA N 0.5189(3) 0.5084(3) -0.2003(3)
N6PA N 0.2416(3) 0.2689(3) 0.4503(3)
N6E N 0.4811(3) -0.0084(3) -0.2003(3)
C1O C 0.6863(4) 0.4404(4) 0.1714(4)
C1Y C 0.3096(4) 0.4363(4) 0.0786(4)
C1LA C 0.3137(4) 0.0596(4) 0.1714(4)
C1J C 0.5637(4) 0.4214(4) 0.3096(4)
C1T C 0.3286(4) 0.3137(4) -0.0596(4)
C1GA C 0.4363(4) 0.0786(4) 0.3096(4)
C1UA C 0.6714(4) 0.1863(4) -0.0596(4)
C1G C 0.9214(4) 0.1904(4) 0.4363(4)
C1U C 0.8286(4) 0.1863(4) 0.0596(4)
C1R C 0.5596(4) 0.6714(4) -0.1863(4)
C1FA C 0.5637(4) 0.5786(4) 0.1904(4)
H1O H 0.7043 0.4152 0.2035
H1Y H 0.3348 0.4543 0.0465
H1LA H 0.2957 0.0848 0.2035
H1J H 0.5457 0.4535 0.3348
H1T H 0.2965 0.2957 -0.0848
H1GA H 0.4543 0.0465 0.3348
H1UA H 0.7035 0.2043 -0.0848
H1G H 0.9535 0.1652 0.4543
H1U H 0.7965 0.2043 0.0848
H1R H 0.5848 0.7035 -0.2043
H1FA H 0.5457 0.5465 0.1652
H2O H 0.7160 0.4463 0.1387
H2Y H 0.3037 0.4660 0.1113
H2LA H 0.2840 0.0537 0.1387
H2J H 0.5340 0.3887 0.3037
H2T H 0.3613 0.2840 -0.0537
H2GA H 0.4660 0.1113 0.3037
H2UA H 0.6387 0.2160 -0.0537
H2G H 0.8887 0.1963 0.4660
H2U H 0.8613 0.2160 0.0537
H2R H 0.5537 0.6387 -0.2160
H2FA H 0.5340 0.6113 0.1963
H3O H 0.6747 0.4800 0.1883
H3Y H 0.2700 0.4247 0.0617
H3LA H 0.3253 0.0200 0.1883
H3J H 0.5753 0.4383 0.2700
H3T H 0.3117 0.3253 -0.0200
H3GA H 0.4247 0.0617 0.2700
H3UA H 0.6883 0.1747 -0.0200
H3G H 0.9383 0.2300 0.4247
H3U H 0.8117 0.1747 0.0200
H3R H 0.5200 0.6883 -0.1747
H3FA H 0.5753 0.5617 0.2300
C2O C 0.6300(3) 0.4087(3) 0.1460(3)
C2Y C 0.3413(3) 0.3800(3) 0.1040(3)
C2LA C 0.3700(3) 0.0913(3) 0.1460(3)
C2J C 0.6200(3) 0.3960(3) 0.3413(3)
C2T C 0.3540(3) 0.3700(3) -0.0913(3)
C2GA C 0.3800(3) 0.1040(3) 0.3413(3)
C2UA C 0.6460(3) 0.1300(3) -0.0913(3)
C2G C 0.8960(3) 0.1587(3) 0.3800(3)
C2U C 0.8540(3) 0.1300(3) 0.0913(3)
C2R C 0.5913(3) 0.6460(3) -0.1300(3)
C2FA C 0.6200(3) 0.6040(3) 0.1587(3)
C3Y C 0.4942(4) 0.2805(4) -0.0784(3)
C3O C 0.5305(4) 0.2558(4) 0.3284(3)
C3LA C 0.4695(4) 0.2442(4) 0.3284(3)
C3U C 0.6716(3) 0.0305(4) 0.2442(4)
C3RA C 0.6716(3) -0.0305(4) 0.2558(4)
C3FA C 0.7195(4) 0.4216(3) 0.0058(4)
C3I C 0.7805(4) 0.4216(3) -0.0058(4)
C3TA C 0.3284(3) 0.4695(4) 0.2442(4)
C3W C 0.3284(3) 0.5305(4) 0.2558(4)
C3K C 0.2805(4) 0.0784(3) 0.0058(4)
C3HA C 0.2195(4) 0.0784(3) -0.0058(4)
H4Y H 0.4889 0.3054 -0.1134
H4O H 0.5554 0.2611 0.3634
H4LA H 0.4446 0.2389 0.3634
H4U H 0.6366 0.0554 0.2389
H4RA H 0.6366 -0.0554 0.2611
H4FA H 0.6946 0.3866 0.0111
H4I H 0.8054 0.3866 -0.0111
H4TA H 0.3634 0.4446 0.2389
H4W H 0.3634 0.5554 0.2611
H4K H 0.3054 0.1134 0.0111
H4HA H 0.1946 0.1134 -0.0111
loop_
_geom_bond_atom_site_label_1
_geom_bond_atom_site_label_2
_geom_bond_site_symmetry_1
_geom_bond_site_symmetry_2
S1 O2 1_555 1_555
Cd1 N1 1_555 1_555
Cd2 O1 1_555 1_555
O1 Cd2G 1_555 1_555
O2 Cd2 1_555 1_555
O3 S1 1_555 1_555
N1 N2 1_555 1_555
N2 Cd2 1_555 1_555
N3 N2 1_555 1_555
N4 N1 1_555 1_555
N5 Cd1 1_555 1_555
N6 N5 1_555 1_555
C1 H1 1_555 1_555
H2 C1 1_555 1_555
H3 C1 1_555 1_555
C2 N3 1_555 1_555
C3 N6 1_555 1_555
H4 C3 1_555 1_555
S1O O2O 1_555 1_555
S1Y O2Y 1_555 1_555
S1LA O2LA 1_555 1_555
Cd1J N1J 1_555 1_555
Cd1F N1T 1_555 1_555
Cd1H N1GA 1_555 1_555
Cd1E N1UA 1_555 1_555
Cd1G N1G 1_555 1_555
Cd1I N1R 1_555 1_555
Cd1D N5W 1_555 1_555
Cd1K N5K 1_555 1_555
Cd2O O1O 1_555 1_555
Cd2Y O1Y 1_555 1_555
Cd2LA N4 1_555 1_555
Cd2G N3 1_555 1_555
Cd2R O1O 1_555 1_555
Cd2CA O1Y 1_555 1_555
Cd2NA O1LA 1_555 1_555
Cd2J O1 1_555 1_555
Cd2T O1O 1_555 1_555
Cd2GA O1Y 1_555 1_555
Cd2UA O1LA 1_555 1_555
Cd2OA N4J 1_555 1_555
Cd2F N4T 1_555 1_555
Cd2S N4GA 1_555 1_555
Cd2BA N4UA 1_555 1_555
Cd2RA N4G 1_555 1_555
Cd2U N2U 1_555 1_555
Cd2M N3U 1_555 1_555
Cd2DA N6RA 1_555 1_555
Cd2I N4R 1_555 1_555
Cd2FA N2FA 1_555 1_555
Cd2AA N3FA 1_555 1_555
Cd2QA N6I 1_555 1_555
Cd2D N6W 1_555 1_555
Cd2Q N6HA 1_555 1_555
O1LA Cd2LA 1_555 1_555
O2J S1 1_555 1_555
O2G S1 1_555 1_555
O2O Cd2O 1_555 1_555
O2T S1O 1_555 1_555
O2R S1O 1_555 1_555
O2Y Cd2Y 1_555 1_555
O2GA S1Y 1_555 1_555
O2CA S1Y 1_555 1_555
O2LA Cd2LA 1_555 1_555
O2UA S1LA 1_555 1_555
O2NA S1LA 1_555 1_555
O3O S1O 1_555 1_555
O3Y S1Y 1_555 1_555
O3LA S1LA 1_555 1_555
N1O Cd1 1_555 1_555
N1Y Cd1 1_555 1_555
N1LA Cd1 1_555 1_555
N1J N2J 1_555 1_555
N1T N2T 1_555 1_555
N1GA N2GA 1_555 1_555
N1UA N2UA 1_555 1_555
N1G N2G 1_555 1_555
N1U Cd1G 1_555 1_555
N1R N2R 1_555 1_555
N1FA Cd1I 1_555 1_555
N1P Cd1J 1_555 1_555
N1IA Cd1J 1_555 1_555
N1OA Cd1J 1_555 1_555
N1EA Cd1F 1_555 1_555
N1SA Cd1F 1_555 1_555
N1F Cd1F 1_555 1_555
N2O Cd2O 1_555 1_555
N2Y Cd2Y 1_555 1_555
N2LA Cd2LA 1_555 1_555
N2J Cd2J 1_555 1_555
N2T Cd2T 1_555 1_555
N2GA Cd2GA 1_555 1_555
N2UA Cd2UA 1_555 1_555
N2G Cd2G 1_555 1_555
N2U N1U 1_555 1_555
N2R Cd2R 1_555 1_555
N2FA N1FA 1_555 1_555
N2CA Cd2CA 1_555 1_555
N2NA Cd2NA 1_555 1_555
N3O Cd2R 1_555 1_555
N3Y Cd2CA 1_555 1_555
N3LA Cd2NA 1_555 1_555
N3J Cd2 1_555 1_555
N3T Cd2O 1_555 1_555
N3GA Cd2Y 1_555 1_555
N3UA Cd2LA 1_555 1_555
N3G Cd2J 1_555 1_555
N3U N2U 1_555 1_555
N3R Cd2T 1_555 1_555
N3FA N2FA 1_555 1_555
N3CA Cd2GA 1_555 1_555
N3NA Cd2UA 1_555 1_555
N4O Cd2 1_555 1_555
N4Y Cd2O 1_555 1_555
N4LA Cd2Y 1_555 1_555
N4J N1J 1_555 1_555
N4T N1T 1_555 1_555
N4GA N1GA 1_555 1_555
N4UA N1UA 1_555 1_555
N4G N1G 1_555 1_555
N4U Cd2G 1_555 1_555
N4R N1R 1_555 1_555
N4FA Cd2R 1_555 1_555
N4TA Cd2CA 1_555 1_555
N4K Cd2NA 1_555 1_555
N4P Cd2J 1_555 1_555
N4EA Cd2T 1_555 1_555
N4PA Cd2GA 1_555 1_555
N4E Cd2UA 1_555 1_555
N5O Cd1 1_555 1_555
N5U Cd1G 1_555 1_555
N5I Cd1I 1_555 1_555
N5W N6TA 1_555 1_555
N5K N6K 1_555 1_555
N5J Cd1J 1_555 1_555
N5P Cd1J 1_555 1_555
N5T Cd1F 1_555 1_555
N5F Cd1F 1_555 1_555
N6Y N5 1_555 1_555
N6O Cd2 1_555 1_555
N6LA Cd2Y 1_555 1_555
N6U Cd2G 1_555 1_555
N6RA N5U 1_555 1_555
N6FA Cd2R 1_555 1_555
N6I N5I 1_555 1_555
N6TA Cd2CA 1_555 1_555
N6W N5W 1_555 1_555
N6K Cd2NA 1_555 1_555
N6HA N5K 1_555 1_555
N6P Cd2J 1_555 1_555
N6EA Cd2T 1_555 1_555
N6PA Cd2GA 1_555 1_555
N6E Cd2UA 1_555 1_555
C1O H1O 1_555 1_555
C1Y H1Y 1_555 1_555
C1LA H1LA 1_555 1_555
C1J H1J 1_555 1_555
C1T H1T 1_555 1_555
C1GA H1GA 1_555 1_555
C1UA H1UA 1_555 1_555
C1G H1G 1_555 1_555
C1U H1U 1_555 1_555
C1R H1R 1_555 1_555
C1FA H1FA 1_555 1_555
H2O C1O 1_555 1_555
H2Y C1Y 1_555 1_555
H2LA C1LA 1_555 1_555
H2J C1J 1_555 1_555
H2T C1T 1_555 1_555
H2GA C1GA 1_555 1_555
H2UA C1UA 1_555 1_555
H2G C1G 1_555 1_555
H2U C1U 1_555 1_555
H2R C1R 1_555 1_555
H2FA C1FA 1_555 1_555
H3O C1O 1_555 1_555
H3Y C1Y 1_555 1_555
H3LA C1LA 1_555 1_555
H3J C1J 1_555 1_555
H3T C1T 1_555 1_555
H3GA C1GA 1_555 1_555
H3UA C1UA 1_555 1_555
H3G C1G 1_555 1_555
H3U C1U 1_555 1_555
H3R C1R 1_555 1_555
H3FA C1FA 1_555 1_555
C2O N3O 1_555 1_555
C2Y N3Y 1_555 1_555
C2LA N3LA 1_555 1_555
C2J N3J 1_555 1_555
C2T N3T 1_555 1_555
C2GA N3GA 1_555 1_555
C2UA N3UA 1_555 1_555
C2G N3G 1_555 1_555
C2U N3U 1_555 1_555
C2R N3R 1_555 1_555
C2FA N3FA 1_555 1_555
C3Y C3 1_555 1_555
C3O N6O 1_555 1_555
C3LA N6LA 1_555 1_555
C3U N6U 1_555 1_555
C3RA N6RA 1_555 1_555
C3FA N6FA 1_555 1_555
C3I N6I 1_555 1_555
C3TA N6TA 1_555 1_555
C3W N6W 1_555 1_555
C3K N6K 1_555 1_555
C3HA N6HA 1_555 1_555
H4Y C3Y 1_555 1_555
H4O C3O 1_555 1_555
H4LA C3LA 1_555 1_555
H4U C3U 1_555 1_555
H4RA C3RA 1_555 1_555
H4FA C3FA 1_555 1_555
H4I C3I 1_555 1_555
H4TA C3TA 1_555 1_555
H4W C3W 1_555 1_555
H4K C3K 1_555 1_555
H4HA C3HA 1_555 1_555
N4 C2 1_555 1_555
N6 Cd2LA 1_555 1_555
C1 C2 1_555 1_555
Cd2O N6Y 1_555 1_555
Cd2G O2G 1_555 1_555
Cd2R O2R 1_555 1_555
Cd2CA O2CA 1_555 1_555
Cd2NA O2NA 1_555 1_555
Cd2J O2J 1_555 1_555
Cd2T O2T 1_555 1_555
Cd2GA O2GA 1_555 1_555
Cd2UA O2UA 1_555 1_555
N1O N2O 1_555 1_555
N1O N4O 1_555 1_555
N1Y N2Y 1_555 1_555
N1Y N4Y 1_555 1_555
N1LA N2LA 1_555 1_555
N1LA N4LA 1_555 1_555
N1U N4U 1_555 1_555
N1FA N4FA 1_555 1_555
N1P N4P 1_555 1_555
N1EA N4EA 1_555 1_555
N2O N3O 1_555 1_555
N2Y N3Y 1_555 1_555
N2LA N3LA 1_555 1_555
N2J N3J 1_555 1_555
N2T N3T 1_555 1_555
N2GA N3GA 1_555 1_555
N2UA N3UA 1_555 1_555
N2G N3G 1_555 1_555
N2R N3R 1_555 1_555
N2CA N3CA 1_555 1_555
N2NA N3NA 1_555 1_555
N4O C2O 1_555 1_555
N4Y C2Y 1_555 1_555
N4LA C2LA 1_555 1_555
N4J C2J 1_555 1_555
N4T C2T 1_555 1_555
N4GA C2GA 1_555 1_555
N4UA C2UA 1_555 1_555
N4G C2G 1_555 1_555
N4U C2U 1_555 1_555
N4R C2R 1_555 1_555
N4FA C2FA 1_555 1_555
N5O N6O 1_555 1_555
N5O N6LA 1_555 1_555
N5U N6U 1_555 1_555
N5I N6FA 1_555 1_555
N5P N6P 1_555 1_555
N5F N6EA 1_555 1_555
N6Y C3Y 1_555 1_555
C1O C2O 1_555 1_555
C1Y C2Y 1_555 1_555
C1LA C2LA 1_555 1_555
C1J C2J 1_555 1_555
C1T C2T 1_555 1_555
C1GA C2GA 1_555 1_555
C1UA C2UA 1_555 1_555
C1G C2G 1_555 1_555
C1U C2U 1_555 1_555
C1R C2R 1_555 1_555
C1FA C2FA 1_555 1_555
C3O C3LA 1_555 1_555
C3U C3RA 1_555 1_555
C3FA C3I 1_555 1_555
C3TA C3W 1_555 1_555
C3K C3HA 1_555 1_555

#END
