
#######################################################################
#
#                 Cambridge Crystallographic Data Centre
#                                CCDC 
#
#######################################################################
#
# If this CIF has been generated from an entry in the Cambridge 
# Structural Database, then it will include bibliographic, chemical, 
# crystal, experimental, refinement or atomic coordinate data resulting 
# from the CCDC's data processing and validation procedures.
#
#######################################################################

data_SUJZIH
_symmetry_cell_setting           monoclinic
_symmetry_space_group_name_H-M   'P 21/c'
_symmetry_Int_Tables_number      14
_space_group_name_Hall           '-P 2ybc'
loop_
_symmetry_equiv_pos_site_id
_symmetry_equiv_pos_as_xyz
1 x,y,z
2 -x,1/2+y,1/2-z
3 -x,-y,-z
4 x,1/2-y,1/2+z
_cell_length_a                   10.905(2)
_cell_length_b                   11.602(1)
_cell_length_c                   15.034(2)
_cell_angle_alpha                90
_cell_angle_beta                 117.794(10)
_cell_angle_gamma                90
_cell_volume                     1682.65
loop_
_atom_site_label
_atom_site_type_symbol
_atom_site_fract_x
_atom_site_fract_y
_atom_site_fract_z
Cd1 Cd 0.20770(4) 0.49148(3) 0.06124(3)
O1 O 0.4462(4) 0.5127(4) 0.1685(4)
O2 O 0.9957(4) 0.8959(4) 0.4799(4)
O11 O 0.2289(6) 0.4385(5) -0.0764(4)
H1 H 0.1638 0.3959 -0.1104
H2 H 0.3013 0.4062 -0.0714
H5 H 1.2664 0.8116 0.4596
H6 H 1.2780 0.7587 0.5574
N1 N 0.2463(5) 0.5476(5) 0.2234(4)
H7 H 0.1782 0.6025 0.2140
H8 H 0.2341 0.4803 0.2519
N2 N 0.3794(6) 0.5985(5) 0.2739(4)
H9 H 0.4171 0.6381 0.3403
N3 N 0.7539(5) 0.7904(4) 0.3853(4)
N4 N 1.1140(5) 0.7479(4) 0.4656(4)
H10 H 1.1293 0.6686 0.4478
N5 N 1.2361(5) 0.8164(5) 0.5096(5)
C1 C 0.4724(6) 0.5738(5) 0.2432(5)
C2 C 0.6117(6) 0.6275(5) 0.3003(5)
C3 C 0.6303(6) 0.7383(5) 0.3390(5)
H11 H 0.5528 0.7786 0.3325
C4 C 0.8655(6) 0.7290(5) 0.3979(4)
C5 C 0.8567(6) 0.6190(5) 0.3616(5)
H12 H 0.9359 0.5800 0.3701
C6 C 0.7277(6) 0.5676(5) 0.3122(6)
H13 H 0.7192 0.4932 0.2871
C7 C 0.9969(6) 0.7952(5) 0.4505(4)
Cd1A Cd 0.79230(4) 0.99148(3) 0.43876(3)
Cd1C Cd 1.20770(4) 1.00852(3) 0.56124(3)
O2A O 0.0043(4) 0.3959(4) 0.0201(4)
O2C O -0.0043(4) 0.6041(4) -0.0201(4)
H5C H 0.2664 0.6884 -0.0404
H6C H 0.2780 0.7413 0.0574
N3A N 0.2461(5) 0.2904(4) 0.1147(4)
N5C N 0.2361(5) 0.6836(5) 0.0096(5)
Cl1 Cl 0.9466(2) 0.31398(15) 0.28132(16)
O3 O 0.9985(8) 0.3941(5) 0.2361(5)
O4 O 0.9955(7) 0.2005(5) 0.2787(5)
O5 O 0.8017(7) 0.3138(6) 0.2257(8)
O6 O 0.9949(10) 0.3508(6) 0.3820(5)
Cl2 Cl 0.44178(18) 0.31177(15) 0.42729(14)
O7 O 0.5267(7) 0.3488(6) 0.3847(5)
O8 O 0.4712(8) 0.1955(6) 0.4573(8)
O9 O 0.4672(10) 0.3804(8) 0.5103(5)
O10 O 0.3022(7) 0.3224(7) 0.3547(6)
O12 O 1.2058(7) 0.5401(5) 0.4349(6)
H3 H 1.1696 0.4734 0.4203
H4 H 1.2888 0.5268 0.4615
loop_
_geom_bond_atom_site_label_1
_geom_bond_atom_site_label_2
_geom_bond_site_symmetry_1
_geom_bond_site_symmetry_2
Cd1 O1 1_555 1_555
Cl1 O3 1_555 1_555
Cl2 O7 1_555 1_555
O1 C1 1_555 1_555
O2 C7 1_555 1_555
O4 Cl1 1_555 1_555
O5 Cl1 1_555 1_555
O6 Cl1 1_555 1_555
O8 Cl2 1_555 1_555
O9 Cl2 1_555 1_555
O10 Cl2 1_555 1_555
O11 Cd1 1_555 1_555
H1 O11 1_555 1_555
H2 O11 1_555 1_555
O12 H3 1_555 1_555
H4 O12 1_555 1_555
H5 N5 1_555 1_555
H6 N5 1_555 1_555
N1 Cd1 1_555 1_555
H7 N1 1_555 1_555
H8 N1 1_555 1_555
N2 N1 1_555 1_555
H9 N2 1_555 1_555
N3 C3 1_555 1_555
N4 H10 1_555 1_555
N5 N4 1_555 1_555
C1 N2 1_555 1_555
C2 C1 1_555 1_555
C3 C2 1_555 1_555
H11 C3 1_555 1_555
C4 N3 1_555 1_555
C5 C4 1_555 1_555
H12 C5 1_555 1_555
C6 C2 1_555 1_555
H13 C6 1_555 1_555
C7 N4 1_555 1_555
Cd1A O2 1_555 1_555
Cd1C O2 1_555 1_555
O2A Cd1 1_555 1_555
O2C Cd1 1_555 1_555
H5C N5C 1_555 1_555
H6C N5C 1_555 1_555
N3A Cd1 1_555 1_555
N5C Cd1 1_555 1_555
N3 Cd1A 1_555 1_555
N5 Cd1C 1_555 1_555
C4 C7 1_555 1_555
C5 C6 1_555 1_555

#END
