
#######################################################################
#
#                 Cambridge Crystallographic Data Centre
#                                CCDC 
#
#######################################################################
#
# If this CIF has been generated from an entry in the Cambridge 
# Structural Database, then it will include bibliographic, chemical, 
# crystal, experimental, refinement or atomic coordinate data resulting 
# from the CCDC's data processing and validation procedures.
#
#######################################################################

data_SUKCAD
_symmetry_cell_setting           orthorhombic
_symmetry_space_group_name_H-M   'P b c n'
_symmetry_Int_Tables_number      60
_space_group_name_Hall           '-P 2n 2ab'
loop_
_symmetry_equiv_pos_site_id
_symmetry_equiv_pos_as_xyz
1 x,y,z
2 1/2-x,1/2-y,1/2+z
3 -x,y,1/2-z
4 1/2+x,1/2-y,-z
5 -x,-y,-z
6 1/2+x,1/2+y,1/2-z
7 x,-y,1/2+z
8 1/2-x,1/2+y,z
_cell_length_a                   19.950(3)
_cell_length_b                   10.6381(13)
_cell_length_c                   18.055(2)
_cell_angle_alpha                90
_cell_angle_beta                 90
_cell_angle_gamma                90
_cell_volume                     3831.81
loop_
_atom_site_label
_atom_site_type_symbol
_atom_site_fract_x
_atom_site_fract_y
_atom_site_fract_z
Cd1 Cd 0.5000 1.409808(16) 0.2500
S1 S 0.72025(3) 0.90844(4) 0.26349(4)
O1 O 0.51240(9) 1.40993(14) 0.12202(9)
H1 H 0.5278 1.4706 0.0988
H2 H 0.4893 1.3649 0.0939
N1 N 0.58065(8) 1.24831(15) 0.25265(8)
N2 N 0.58023(9) 0.56902(15) 0.26013(9)
C1 C 0.62986(10) 1.24084(17) 0.30273(11)
H7 H 0.6359 1.3079 0.3351
C2 C 0.67229(9) 1.13822(18) 0.30884(11)
H8 H 0.7060 1.1368 0.3445
C3 C 0.66368(10) 1.03791(18) 0.26101(11)
C4 C 0.61275(11) 1.04397(19) 0.20874(12)
H9 H 0.6055 0.9779 0.1760
C5 C 0.57321(11) 1.14995(19) 0.20649(12)
H10 H 0.5394 1.1538 0.1711
C6 C 0.66428(10) 0.77825(18) 0.26116(11)
C7 C 0.60785(11) 0.77461(19) 0.30552(12)
H11 H 0.5972 0.8420 0.3362
C8 C 0.56768(11) 0.66924(19) 0.30350(12)
H12 H 0.5299 0.6673 0.3337
C9 C 0.63508(10) 0.57401(18) 0.21791(12)
H13 H 0.6446 0.5056 0.1876
C10 C 0.67856(9) 0.67531(18) 0.21670(12)
H14 H 0.7165 0.6744 0.1868
Cd1_2 Cd 0.5000 0.409808(16) 0.2500
Cd1_3 Cd 0.5000 2.409808(16) 0.2500
S1_2 S 0.72025(3) 1.90844(4) 0.26349(4)
O1B O 0.48760(9) 1.40993(14) 0.37798(9)
H1B H 0.4722 1.4706 0.4012
H2B H 0.5107 1.3649 0.4061
N1_2 N 0.58065(8) 2.24831(15) 0.25265(8)
N1B N 0.41935(8) 1.24831(15) 0.24735(8)
N2_2 N 0.58023(9) 1.56902(15) 0.26013(9)
N2B N 0.41977(9) 1.56902(15) 0.23987(9)
C1_2 C 0.62986(10) 2.24084(17) 0.30273(11)
H7_2 H 0.6359 2.3079 0.3351
C2_2 C 0.67229(9) 2.13822(18) 0.30884(11)
H8_2 H 0.7060 2.1368 0.3445
C3_2 C 0.66368(10) 2.03791(18) 0.26101(11)
C4_2 C 0.61275(11) 2.04397(19) 0.20874(12)
H9_2 H 0.6055 1.9779 0.1760
C5_2 C 0.57321(11) 2.14995(19) 0.20649(12)
H10_2 H 0.5394 2.1538 0.1711
C6_2 C 0.66428(10) 1.77825(18) 0.26116(11)
C7_2 C 0.60785(11) 1.77461(19) 0.30552(12)
H11_2 H 0.5972 1.8420 0.3362
C8_2 C 0.56768(11) 1.66924(19) 0.30350(12)
H12_2 H 0.5299 1.6673 0.3337
C9_2 C 0.63508(10) 1.57401(18) 0.21791(12)
H13_2 H 0.6446 1.5056 0.1876
C10_2 C 0.67856(9) 1.67531(18) 0.21670(12)
H14_2 H 0.7165 1.6744 0.1868
S2 S 0.08549(3) 0.22879(6) 0.46990(3)
O3 O 0.06728(9) 0.3162(2) 0.41197(10)
O4 O 0.05638(9) 0.26326(16) 0.54166(8)
O5 O 0.06996(11) 0.09865(18) 0.45248(12)
N3 N 0.38330(13) 0.2362(3) 0.49142(16)
H5 H 0.4060 0.2953 0.4707
H6 H 0.4037 0.1763 0.5141
C11 C 0.17365(12) 0.2353(2) 0.47918(11)
C12 C 0.20777(13) 0.1418(2) 0.51696(15)
H15 H 0.1838 0.0769 0.5391
C13 C 0.27682(15) 0.1433(3) 0.52223(17)
H16 H 0.2986 0.0805 0.5488
C14 C 0.31412(14) 0.2376(3) 0.48830(15)
C15 C 0.27938(15) 0.3320(3) 0.45255(16)
H17 H 0.3032 0.3977 0.4310
C16 C 0.21038(14) 0.3318(3) 0.44794(14)
H18 H 0.1884 0.3969 0.4236
O2 O 0.04751(10) 0.5231(2) 0.57946(13)
H3 H 0.0472 0.4484 0.5665
H4 H 0.0090 0.5527 0.5806
loop_
_geom_bond_atom_site_label_1
_geom_bond_atom_site_label_2
_geom_bond_site_symmetry_1
_geom_bond_site_symmetry_2
Cd1 O1 1_555 1_555
S1 C3 1_555 1_555
S2 O3 1_555 1_555
O1 H1 1_555 1_555
H2 O1 1_555 1_555
O2 H3 1_555 1_555
H4 O2 1_555 1_555
O4 S2 1_555 1_555
O5 S2 1_555 1_555
N1 Cd1 1_555 1_555
N2 C8 1_555 1_555
N3 H5 1_555 1_555
H6 N3 1_555 1_555
C1 N1 1_555 1_555
H7 C1 1_555 1_555
C2 C1 1_555 1_555
H8 C2 1_555 1_555
C3 C2 1_555 1_555
C4 C3 1_555 1_555
H9 C4 1_555 1_555
C5 N1 1_555 1_555
H10 C5 1_555 1_555
C6 S1 1_555 1_555
C7 C6 1_555 1_555
H11 C7 1_555 1_555
C8 C7 1_555 1_555
H12 C8 1_555 1_555
C9 N2 1_555 1_555
H13 C9 1_555 1_555
C10 C6 1_555 1_555
H14 C10 1_555 1_555
C11 S2 1_555 1_555
C12 C11 1_555 1_555
H15 C12 1_555 1_555
C13 C12 1_555 1_555
H16 C13 1_555 1_555
C14 N3 1_555 1_555
C15 C14 1_555 1_555
H17 C15 1_555 1_555
C16 C11 1_555 1_555
H18 C16 1_555 1_555
Cd1_2 N2 1_555 1_555
Cd1_3 N1_2 1_555 1_555
S1_2 C3_2 1_555 1_555
O1B Cd1 1_555 1_555
H1B O1B 1_555 1_555
H2B O1B 1_555 1_555
N1_2 C1_2 1_555 1_555
N1B Cd1 1_555 1_555
N2_2 Cd1 1_555 1_555
N2B Cd1 1_555 1_555
C1_2 H7_2 1_555 1_555
C2_2 C1_2 1_555 1_555
H8_2 C2_2 1_555 1_555
C3_2 C2_2 1_555 1_555
C4_2 C3_2 1_555 1_555
H9_2 C4_2 1_555 1_555
C5_2 N1_2 1_555 1_555
H10_2 C5_2 1_555 1_555
C6_2 S1_2 1_555 1_555
C7_2 C6_2 1_555 1_555
H11_2 C7_2 1_555 1_555
C8_2 N2_2 1_555 1_555
H12_2 C8_2 1_555 1_555
C9_2 N2_2 1_555 1_555
H13_2 C9_2 1_555 1_555
C10_2 C6_2 1_555 1_555
H14_2 C10_2 1_555 1_555
C4 C5 1_555 1_555
C9 C10 1_555 1_555
C13 C14 1_555 1_555
C15 C16 1_555 1_555
C4_2 C5_2 1_555 1_555
C7_2 C8_2 1_555 1_555
C9_2 C10_2 1_555 1_555

#END
