
#######################################################################
#
#                 Cambridge Crystallographic Data Centre
#                                CCDC 
#
#######################################################################
#
# If this CIF has been generated from an entry in the Cambridge 
# Structural Database, then it will include bibliographic, chemical, 
# crystal, experimental, refinement or atomic coordinate data resulting 
# from the CCDC's data processing and validation procedures.
#
#######################################################################

data_SUKFAG
_symmetry_cell_setting           monoclinic
_symmetry_space_group_name_H-M   'P 21/c'
_symmetry_Int_Tables_number      14
_space_group_name_Hall           '-P 2ybc'
loop_
_symmetry_equiv_pos_site_id
_symmetry_equiv_pos_as_xyz
1 x,y,z
2 -x,1/2+y,1/2-z
3 -x,-y,-z
4 x,1/2-y,1/2+z
_cell_length_a                   13.723(3)
_cell_length_b                   15.268(3)
_cell_length_c                   17.386(2)
_cell_angle_alpha                90
_cell_angle_beta                 129.298(9)
_cell_angle_gamma                90
_cell_volume                     2819
loop_
_atom_site_label
_atom_site_type_symbol
_atom_site_fract_x
_atom_site_fract_y
_atom_site_fract_z
Sn1 Sn 0.99102(6) 0.06827(4) 0.75571(4)
O1 O 0.8838(7) 0.0361(4) 0.8705(6)
O2 O 0.9759(6) -0.0407(4) 0.8238(5)
N1 N 0.9910(8) -0.3045(5) 0.8347(6)
C1 C 0.9198(10) -0.2364(7) 0.8084(7)
H1 H 0.8557 -0.2201 0.7429
N2 N 0.9497(8) -0.1933(5) 0.8864(6)
N3 N 1.0453(9) -0.2369(6) 0.9666(6)
N4 N 1.0694(9) -0.3039(6) 0.9354(6)
C2 C 0.9024(10) -0.1146(6) 0.8992(8)
H2 H 0.9436 -0.1076 0.9692
H3 H 0.8130 -0.1217 0.8640
C3 C 0.9223(9) -0.0317(6) 0.8622(7)
C4 C 0.7956(8) 0.0837(6) 0.6394(7)
C5 C 0.7169(10) 0.1260(6) 0.6504(8)
H4 H 0.7497 0.1479 0.7125
C6 C 0.5886(10) 0.1369(7) 0.5707(9)
H5 H 0.5372 0.1666 0.5796
C7 C 0.5395(11) 0.1035(8) 0.4795(9)
C8 C 0.6167(11) 0.0617(8) 0.4668(8)
H6 H 0.5835 0.0404 0.4044
C9 C 0.7433(10) 0.0508(7) 0.5456(8)
H7 H 0.7941 0.0213 0.5359
C10 C 0.3996(11) 0.1166(9) 0.3907(9)
H8 H 0.3671 0.0646 0.3505
H9 H 0.3903 0.1653 0.3516
H10 H 0.3539 0.1279 0.4144
C11 C 1.1028(8) 0.1540(6) 0.8791(6)
C12 C 1.0544(10) 0.2318(7) 0.8839(8)
H11 H 0.9706 0.2462 0.8329
C13 C 1.1297(11) 0.2883(7) 0.9638(9)
H12 H 1.0957 0.3405 0.9650
C14 C 1.2514(10) 0.2690(7) 1.0401(7)
C15 C 1.2988(11) 0.1909(7) 1.0353(8)
H13 H 1.3821 0.1757 1.0868
C16 C 1.2240(9) 0.1355(7) 0.9553(8)
H14 H 1.2583 0.0837 0.9539
C17 C 1.3320(13) 0.3292(8) 1.1290(9)
H15 H 1.3213 0.3886 1.1065
H16 H 1.4189 0.3128 1.1674
H17 H 1.3069 0.3246 1.1693
C18 C 1.0968(8) -0.0108(5) 0.7317(7)
C19 C 1.0949(9) -0.0029(6) 0.6511(7)
H18 H 1.0470 0.0410 0.6044
C20 C 1.1634(9) -0.0596(6) 0.6399(7)
H19 H 1.1600 -0.0532 0.5850
C21 C 1.2367(9) -0.1253(6) 0.7072(8)
C22 C 1.2422(9) -0.1325(6) 0.7880(7)
H20 H 1.2932 -0.1752 0.8354
C23 C 1.1724(9) -0.0768(6) 0.8013(7)
H21 H 1.1765 -0.0836 0.8564
C24 C 1.3117(10) -0.1860(7) 0.6961(8)
H22 H 1.3919 -0.1964 0.7599
H23 H 1.3242 -0.1604 0.6525
H24 H 1.2674 -0.2405 0.6685
Sn1A Sn 1.00898(6) -0.43173(4) 0.74429(4)
N1A N 1.0090(8) 0.1955(5) 0.6653(6)
C25 C 0.5025(14) 0.0191(10) 0.8414(11)
H25 H 0.4580 -0.0306 0.8045
C26 C 0.4604(15) 0.0683(9) 0.8783(11)
H26 H 0.3893 0.0501 0.8696
C27 C 0.5179(14) 0.1441(10) 0.9283(11)
H27 H 0.4858 0.1791 0.9514
C28 C 0.6263(15) 0.1668(10) 0.9432(11)
H28 H 0.6681 0.2183 0.9769
C29 C 0.6724(15) 0.1159(10) 0.9100(11)
H29 H 0.7470 0.1316 0.9230
C30 C 0.6114(14) 0.0415(10) 0.8575(11)
H30 H 0.6424 0.0069 0.8333
loop_
_geom_bond_atom_site_label_1
_geom_bond_atom_site_label_2
_geom_bond_site_symmetry_1
_geom_bond_site_symmetry_2
Sn1 O2 1_555 1_555
O1 C3 1_555 1_555
O2 C3 1_555 1_555
N1 C1 1_555 1_555
C1 H1 1_555 1_555
N2 C1 1_555 1_555
N3 N2 1_555 1_555
N4 N1 1_555 1_555
C2 N2 1_555 1_555
H2 C2 1_555 1_555
H3 C2 1_555 1_555
C3 C2 1_555 1_555
C4 Sn1 1_555 1_555
C5 C4 1_555 1_555
H4 C5 1_555 1_555
C6 C5 1_555 1_555
H5 C6 1_555 1_555
C7 C6 1_555 1_555
C8 C7 1_555 1_555
H6 C8 1_555 1_555
C9 C4 1_555 1_555
H7 C9 1_555 1_555
C10 C7 1_555 1_555
H8 C10 1_555 1_555
H9 C10 1_555 1_555
H10 C10 1_555 1_555
C11 Sn1 1_555 1_555
C12 C11 1_555 1_555
H11 C12 1_555 1_555
C13 C12 1_555 1_555
H12 C13 1_555 1_555
C14 C13 1_555 1_555
C15 C14 1_555 1_555
H13 C15 1_555 1_555
C16 C11 1_555 1_555
H14 C16 1_555 1_555
C17 C14 1_555 1_555
H15 C17 1_555 1_555
H16 C17 1_555 1_555
H17 C17 1_555 1_555
C18 Sn1 1_555 1_555
C19 C18 1_555 1_555
H18 C19 1_555 1_555
C20 C19 1_555 1_555
H19 C20 1_555 1_555
C21 C20 1_555 1_555
C22 C21 1_555 1_555
H20 C22 1_555 1_555
C23 C18 1_555 1_555
H21 C23 1_555 1_555
C24 C21 1_555 1_555
H22 C24 1_555 1_555
H23 C24 1_555 1_555
H24 C24 1_555 1_555
C25 H25 1_555 1_555
C26 C25 1_555 1_555
H26 C26 1_555 1_555
C27 C26 1_555 1_555
H27 C27 1_555 1_555
C28 C27 1_555 1_555
H28 C28 1_555 1_555
C29 C28 1_555 1_555
H29 C29 1_555 1_555
C30 C25 1_555 1_555
H30 C30 1_555 1_555
Sn1A N1 1_555 1_555
N1A Sn1 1_555 1_555
N3 N4 1_555 1_555
C8 C9 1_555 1_555
C15 C16 1_555 1_555
C22 C23 1_555 1_555
C29 C30 1_555 1_555

#END
