
#######################################################################
#
#                 Cambridge Crystallographic Data Centre
#                                CCDC 
#
#######################################################################
#
# If this CIF has been generated from an entry in the Cambridge 
# Structural Database, then it will include bibliographic, chemical, 
# crystal, experimental, refinement or atomic coordinate data resulting 
# from the CCDC's data processing and validation procedures.
#
#######################################################################

data_SUKFIO
_symmetry_cell_setting           orthorhombic
_symmetry_space_group_name_H-M   'P 21 21 21'
_symmetry_Int_Tables_number      19
_space_group_name_Hall           'P 2ac 2ab'
loop_
_symmetry_equiv_pos_site_id
_symmetry_equiv_pos_as_xyz
1 x,y,z
2 1/2-x,-y,1/2+z
3 1/2+x,1/2-y,-z
4 -x,1/2+y,1/2-z
_cell_length_a                   19.502(3)
_cell_length_b                   10.3237(18)
_cell_length_c                   10.2064(17)
_cell_angle_alpha                90
_cell_angle_beta                 90
_cell_angle_gamma                90
_cell_volume                     2054.88
loop_
_atom_site_label
_atom_site_type_symbol
_atom_site_fract_x
_atom_site_fract_y
_atom_site_fract_z
Sn1 Sn 0.96779(5) 0.72194(11) 0.71015(11)
C1 C 1.1824(9) 0.588(2) 1.0649(19)
H1 H 1.1490 0.6452 1.0947
C2 C 1.1429(8) 0.5943(19) 0.8405(19)
H2 H 1.1684 0.6111 0.7608
H3 H 1.1201 0.6739 0.8664
C3 C 1.0906(9) 0.4905(18) 0.8163(19)
C4 C 0.9638(10) 0.760(3) 0.911(2)
H4 H 0.9930 0.6969 0.9545
H5 H 0.9844 0.8443 0.9254
C5 C 0.8951(11) 0.759(3) 0.982(2)
H6 H 0.8660 0.8262 0.9450
H7 H 0.8727 0.6764 0.9675
C6 C 0.9031(10) 0.782(3) 1.126(2)
H8 H 0.9336 0.7174 1.1638
H9 H 0.9225 0.8669 1.1422
C7 C 0.8342(12) 0.772(3) 1.188(2)
H10 H 0.7994 0.7807 1.1222
H11 H 0.8290 0.8401 1.2518
H12 H 0.8297 0.6897 1.2308
C8 C 0.8962(15) 0.582(4) 0.636(3)
H13 H 0.9224 0.5071 0.6080
H14 H 0.8676 0.5548 0.7082
C9 C 0.8495(11) 0.618(3) 0.525(3)
H15 H 0.8752 0.6312 0.4449
H16 H 0.8240 0.6958 0.5452
C10 C 0.8025(15) 0.503(3) 0.513(4)
H17 H 0.8192 0.4450 0.4453
H18 H 0.8004 0.4566 0.5948
C11 C 0.7329(13) 0.553(3) 0.477(4)
H19 H 0.7233 0.6306 0.5255
H20 H 0.6990 0.4888 0.4964
H21 H 0.7317 0.5725 0.3845
C12 C 1.039(2) 0.779(5) 0.596(4)
H22 H 1.0494 0.8661 0.6256
H23 H 1.0787 0.7271 0.6217
C13 C 1.044(2) 0.786(5) 0.450(4)
H24 H 1.0189 0.8621 0.4212
H25 H 1.0213 0.7110 0.4135
C14 C 1.1161(16) 0.793(6) 0.392(4)
H26 H 1.1395 0.8708 0.4216
H27 H 1.1429 0.7182 0.4180
C15 C 1.106(2) 0.796(5) 0.246(3)
H28 H 1.0856 0.8764 0.2210
H29 H 1.0774 0.7253 0.2202
H30 H 1.1502 0.7876 0.2038
N1 N 1.2615(7) 0.4572(15) 1.0772(16)
N2 N 1.2237(7) 0.5399(16) 1.1332(17)
N3 N 1.2363(7) 0.4638(16) 0.9384(16)
N4 N 1.1888(6) 0.5531(16) 0.9423(17)
O1 O 1.0347(5) 0.5281(11) 0.7569(11)
O2 O 1.1018(5) 0.3782(12) 0.8433(12)
Sn1C Sn 1.03221(5) 0.22194(11) 0.78985(11)
O2C O 0.8982(5) 0.8782(12) 0.6567(12)
loop_
_geom_bond_atom_site_label_1
_geom_bond_atom_site_label_2
_geom_bond_site_symmetry_1
_geom_bond_site_symmetry_2
Sn1 C4 1_555 1_555
C1 H1 1_555 1_555
C2 H2 1_555 1_555
H3 C2 1_555 1_555
C3 C2 1_555 1_555
C4 H4 1_555 1_555
H5 C4 1_555 1_555
C5 C4 1_555 1_555
H6 C5 1_555 1_555
H7 C5 1_555 1_555
C6 C5 1_555 1_555
H8 C6 1_555 1_555
H9 C6 1_555 1_555
C7 C6 1_555 1_555
H10 C7 1_555 1_555
H11 C7 1_555 1_555
H12 C7 1_555 1_555
C8 Sn1 1_555 1_555
H13 C8 1_555 1_555
H14 C8 1_555 1_555
C9 C8 1_555 1_555
H15 C9 1_555 1_555
H16 C9 1_555 1_555
C10 C9 1_555 1_555
H17 C10 1_555 1_555
H18 C10 1_555 1_555
C11 C10 1_555 1_555
H19 C11 1_555 1_555
H20 C11 1_555 1_555
H21 C11 1_555 1_555
C12 Sn1 1_555 1_555
H22 C12 1_555 1_555
H23 C12 1_555 1_555
C13 C12 1_555 1_555
H24 C13 1_555 1_555
H25 C13 1_555 1_555
C14 C13 1_555 1_555
H26 C14 1_555 1_555
H27 C14 1_555 1_555
C15 C14 1_555 1_555
H28 C15 1_555 1_555
H29 C15 1_555 1_555
H30 C15 1_555 1_555
N1 N2 1_555 1_555
N2 C1 1_555 1_555
N3 N1 1_555 1_555
N4 C1 1_555 1_555
O1 Sn1 1_555 1_555
O2 C3 1_555 1_555
Sn1C O2 1_555 1_555
O2C Sn1 1_555 1_555
C2 N4 1_555 1_555
C3 O1 1_555 1_555
N3 N4 1_555 1_555

#END
