
#######################################################################
#
#                 Cambridge Crystallographic Data Centre
#                                CCDC 
#
#######################################################################
#
# If this CIF has been generated from an entry in the Cambridge 
# Structural Database, then it will include bibliographic, chemical, 
# crystal, experimental, refinement or atomic coordinate data resulting 
# from the CCDC's data processing and validation procedures.
#
#######################################################################

data_SUKHEN
_symmetry_cell_setting           rhombohedral
_symmetry_space_group_name_H-M   'R -3 c'
_symmetry_Int_Tables_number      167
_space_group_name_Hall           '-R 3 2"c'
loop_
_symmetry_equiv_pos_site_id
_symmetry_equiv_pos_as_xyz
1 x,y,z
2 -y,x-y,z
3 -x+y,-x,z
4 y,x,1/2-z
5 x-y,-y,1/2-z
6 -x,-x+y,1/2-z
7 2/3+x,1/3+y,1/3+z
8 2/3-y,1/3+x-y,1/3+z
9 2/3-x+y,1/3-x,1/3+z
10 2/3+y,1/3+x,5/6-z
11 2/3+x-y,1/3-y,5/6-z
12 2/3-x,1/3-x+y,5/6-z
13 1/3+x,2/3+y,2/3+z
14 1/3-y,2/3+x-y,2/3+z
15 1/3-x+y,2/3-x,2/3+z
16 1/3+y,2/3+x,1/6-z
17 1/3+x-y,2/3-y,1/6-z
18 1/3-x,2/3-x+y,1/6-z
19 -x,-y,-z
20 y,-x+y,-z
21 x-y,x,-z
22 -y,-x,1/2+z
23 -x+y,y,1/2+z
24 x,x-y,1/2+z
25 1/3-x,2/3-y,2/3-z
26 1/3+y,2/3-x+y,2/3-z
27 1/3+x-y,2/3+x,2/3-z
28 1/3-y,2/3-x,1/6+z
29 1/3-x+y,2/3+y,1/6+z
30 1/3+x,2/3+x-y,1/6+z
31 2/3-x,1/3-y,1/3-z
32 2/3+y,1/3-x+y,1/3-z
33 2/3+x-y,1/3+x,1/3-z
34 2/3-y,1/3-x,5/6+z
35 2/3-x+y,1/3+y,5/6+z
36 2/3+x,1/3+x-y,5/6+z
_cell_length_a                   11.5273(16)
_cell_length_b                   11.5273(16)
_cell_length_c                   15.169(3)
_cell_angle_alpha                90
_cell_angle_beta                 90
_cell_angle_gamma                120
_cell_volume                     1745.59
loop_
_atom_site_label
_atom_site_type_symbol
_atom_site_fract_x
_atom_site_fract_y
_atom_site_fract_z
C1 C 0.0476(4) 0.2643(5) 0.2096(3)
Fe1 Fe 0.0000 0.0000 0.2500
O1 O 0.0927(3) 0.3818(3) 0.1838(2)
O2 O 0.0723(3) 0.1785(3) 0.17470(19)
Li1 Li 0.0000 0.4660(11) 0.2500
C1E C -0.0476(4) 0.2167(6) 0.2904(3)
O1E O -0.0927(3) 0.2891(4) 0.3162(2)
O2E O -0.0723(3) 0.1062(4) 0.32530(19)
C1A C -0.2643(5) -0.2167(6) 0.2096(3)
O1A O -0.3818(3) -0.2891(4) 0.1838(2)
O2A O -0.1785(3) -0.1062(4) 0.17470(19)
Li1A Li -0.4660(11) -0.4660(11) 0.2500
C1D C -0.2167(6) -0.2643(5) 0.2904(3)
O1D O -0.2891(4) -0.3818(3) 0.3162(2)
O2D O -0.1062(4) -0.1785(3) 0.32530(19)
C1B C 0.2167(6) -0.0476(4) 0.2096(3)
O1B O 0.2891(4) -0.0927(3) 0.1838(2)
O2B O 0.1062(4) -0.0723(3) 0.17470(19)
Li1B Li 0.4660(11) 0.0000 0.2500
C1C C 0.2643(5) 0.0476(4) 0.2904(3)
O1C O 0.3818(3) 0.0927(3) 0.3162(2)
O2C O 0.1785(3) 0.0723(3) 0.32530(19)
O1DA O 0.5740(3) -0.0485(3) 0.1495(2)
O1EA O 0.0485(3) 0.6224(4) 0.1495(2)
O1FA O -0.6224(4) -0.5740(3) 0.1495(2)
O1AA O -0.0485(3) 0.5740(3) 0.3505(2)
O1BA O 0.6224(4) 0.0485(3) 0.3505(2)
O1CA O -0.5740(3) -0.6224(4) 0.3505(2)
O2DA O 0.5944(3) 0.1548(3) 0.15863(19)
O2EA O -0.1548(3) 0.4395(4) 0.15863(19)
O2FA O -0.4395(4) -0.5944(3) 0.15863(19)
O2AA O 0.1548(3) 0.5944(3) 0.34137(19)
O2BA O 0.4395(4) -0.1548(3) 0.34137(19)
O2CA O -0.5944(3) -0.4395(4) 0.34137(19)
Li1DA Li -0.3333 -0.1327(11) 0.0833
Li1EA Li 0.1327(11) -0.2007(11) 0.0833
Li1FA Li 0.2007(11) 0.3333 0.0833
Li1X Li 0.3333 0.2007(11) 0.4167
Li1Y Li -0.2007(11) 0.1327(11) 0.4167
Li1Z Li -0.1327(11) -0.3333 0.4167
N1 N 0.3333 0.6667 0.1667
loop_
_geom_bond_atom_site_label_1
_geom_bond_atom_site_label_2
_geom_bond_site_symmetry_1
_geom_bond_site_symmetry_2
C1 O1 1_555 1_555
Fe1 O2 1_555 1_555
O1 Li1 1_555 1_555
O2 C1 1_555 1_555
Li1 O1E 1_555 1_555
C1E C1 1_555 1_555
O1E C1E 1_555 1_555
O2E Fe1 1_555 1_555
C1A O1A 1_555 1_555
O1A Li1A 1_555 1_555
O2A Fe1 1_555 1_555
Li1A O1D 1_555 1_555
C1D C1A 1_555 1_555
O1D C1D 1_555 1_555
O2D Fe1 1_555 1_555
C1B O1B 1_555 1_555
O1B Li1B 1_555 1_555
O2B Fe1 1_555 1_555
Li1B O1C 1_555 1_555
C1C C1B 1_555 1_555
O1C C1C 1_555 1_555
O2C Fe1 1_555 1_555
O1DA Li1B 1_555 1_555
O1EA Li1 1_555 1_555
O1FA Li1A 1_555 1_555
O1AA Li1 1_555 1_555
O1BA Li1B 1_555 1_555
O1CA Li1A 1_555 1_555
O2DA Li1B 1_555 1_555
O2EA Li1 1_555 1_555
O2FA Li1A 1_555 1_555
O2AA Li1 1_555 1_555
O2BA Li1B 1_555 1_555
O2CA Li1A 1_555 1_555
Li1DA O1A 1_555 1_555
Li1EA O1B 1_555 1_555
Li1FA O1 1_555 1_555
Li1X O1C 1_555 1_555
Li1Y O1E 1_555 1_555
Li1Z O1D 1_555 1_555
O2 Li1FA 1_555 1_555
C1E O2E 1_555 1_555
O2E Li1Y 1_555 1_555
C1A O2A 1_555 1_555
O2A Li1DA 1_555 1_555
C1D O2D 1_555 1_555
O2D Li1Z 1_555 1_555
C1B O2B 1_555 1_555
O2B Li1EA 1_555 1_555
C1C O2C 1_555 1_555
O2C Li1X 1_555 1_555

#END
