
#######################################################################
#
#                 Cambridge Crystallographic Data Centre
#                                CCDC 
#
#######################################################################
#
# If this CIF has been generated from an entry in the Cambridge 
# Structural Database, then it will include bibliographic, chemical, 
# crystal, experimental, refinement or atomic coordinate data resulting 
# from the CCDC's data processing and validation procedures.
#
#######################################################################

data_SUKNUI
_symmetry_cell_setting           trigonal
_symmetry_space_group_name_H-M   'P -3 1 c'
_symmetry_Int_Tables_number      163
_space_group_name_Hall           "-P 3 2'c"
loop_
_symmetry_equiv_pos_site_id
_symmetry_equiv_pos_as_xyz
1 x,y,z
2 -y,x-y,z
3 -y,-x,1/2-z
4 -x+y,-x,z
5 x,x-y,1/2-z
6 -x+y,y,1/2-z
7 -x,-y,-z
8 y,-x+y,-z
9 y,x,1/2+z
10 x-y,x,-z
11 -x,-x+y,1/2+z
12 x-y,-y,1/2+z
_cell_length_a                   20.1432(18)
_cell_length_b                   20.1432(18)
_cell_length_c                   21.962(4)
_cell_angle_alpha                90
_cell_angle_beta                 90
_cell_angle_gamma                120
_cell_volume                     7717.19
loop_
_atom_site_label
_atom_site_type_symbol
_atom_site_fract_x
_atom_site_fract_y
_atom_site_fract_z
Cd1 Cd -0.22440(2) 0.22440(2) -0.2500
Na1 Na -0.3333 0.3333 -0.2500
C1 C -0.1825(5) 0.3293(4) -0.3418(3)
C2 C -0.1735(4) 0.3731(4) -0.3989(3)
C3 C -0.1247(4) 0.3775(4) -0.4428(3)
H1 H -0.0951 0.3547 -0.4361
C4 C -0.1171(4) 0.4148(5) -0.4976(4)
C5 C -0.1624(6) 0.4527(6) -0.5085(5)
C6 C -0.2153(6) 0.4478(6) -0.4619(4)
H2 H -0.2463 0.4693 -0.4673
C7 C -0.2176(5) 0.4090(5) -0.4083(3)
H3 H -0.2499 0.4068 -0.3771
C8 C -0.0242(7) 0.4019(7) -0.5417(4)
H4 H -0.0223 0.3799 -0.5050
C9 C 0.0291(5) 0.4064(5) -0.5910(4)
C10 C 0.0346(5) 0.4487(4) -0.6446(3)
H5 H 0.0032 0.4698 -0.6501
C11 C 0.0851(4) 0.4570(4) -0.6861(3)
H6 H 0.0899 0.4858 -0.7206
C12 C 0.1268(6) 0.3846(5) -0.6314(4)
H7 H 0.1583 0.3634 -0.6270
C13 C 0.0743(7) 0.3750(6) -0.5874(4)
H8 H 0.0698 0.3454 -0.5534
O1 O -0.2345(3) 0.3228(3) -0.3039(2)
O2 O -0.1401(3) 0.3030(3) -0.3328(2)
O3 O -0.1540(2) 0.1540(2) -0.2500
N1 N -0.0706(4) 0.4250(4) -0.5456(3)
N2 N 0.1312(4) 0.4253(4) -0.6808(2)
N3 N -0.1540(7) 0.4907(7) -0.5620(4)
H9 H -0.120(7) 0.163(7) -0.226(5)
H10 H -0.146(9) 0.475(5) -0.5953(14)
H11 H -0.133(8) 0.5386(15) -0.5659(19)
Cd1A Cd -0.22440(2) 0.55120(3) -0.2500
Cd1C Cd -0.55120(3) 0.22440(2) -0.2500
Cd1G Cd 0.22440(2) 0.44880(3) -0.7500
Cd1I Cd -0.44880(3) -0.22440(2) 0.2500
Cd1I_2 Cd -0.44880(3) 0.77560(2) -0.7500
Cd1F Cd -0.77560(2) -0.22440(2) -0.7500
Cd1F_2 Cd 0.22440(2) 0.77560(2) 0.2500
Cd1G_2 Cd -0.77560(2) 0.44880(3) 0.2500
C1B C -0.3293(4) 0.1825(5) -0.1582(3)
C1A C -0.3293(4) 0.4882(6) -0.3418(3)
C1C C -0.4882(6) 0.1825(5) -0.3418(3)
C1D C -0.1825(5) 0.4882(6) -0.1582(3)
C1E C -0.4882(6) 0.3293(4) -0.1582(3)
C2B C -0.3731(4) 0.1735(4) -0.1011(3)
C2A C -0.3731(4) 0.4534(6) -0.3989(3)
C2C C -0.4534(6) 0.1735(4) -0.3989(3)
C2D C -0.1735(4) 0.4534(6) -0.1011(3)
C2E C -0.4534(6) 0.3731(4) -0.1011(3)
C3B C -0.3775(4) 0.1247(4) -0.0572(3)
C3A C -0.3775(4) 0.4978(6) -0.4428(3)
C3C C -0.4978(6) 0.1247(4) -0.4428(3)
C3D C -0.1247(4) 0.4978(6) -0.0572(3)
C3E C -0.4978(6) 0.3775(4) -0.0572(3)
H1B H -0.3547 0.0951 -0.0639
H1A H -0.3547 0.5502 -0.4361
H1C H -0.5502 0.0951 -0.4361
H1D H -0.0951 0.5502 -0.0639
H1E H -0.5502 0.3547 -0.0639
C4B C -0.4148(5) 0.1171(4) -0.0024(4)
C4A C -0.4148(5) 0.4681(6) -0.4976(4)
C4C C -0.4681(6) 0.1171(4) -0.4976(4)
C4D C -0.1171(4) 0.4681(6) -0.0024(4)
C4E C -0.4681(6) 0.4148(5) -0.0024(4)
C5B C -0.4527(6) 0.1624(6) 0.0085(5)
C5A C -0.4527(6) 0.3849(8) -0.5085(5)
C5C C -0.3849(8) 0.1624(6) -0.5085(5)
C5D C -0.1624(6) 0.3849(8) 0.0085(5)
C5E C -0.3849(8) 0.4527(6) 0.0085(5)
C6B C -0.4478(6) 0.2153(6) -0.0381(4)
C6A C -0.4478(6) 0.3369(8) -0.4619(4)
C6C C -0.3369(8) 0.2153(6) -0.4619(4)
C6D C -0.2153(6) 0.3369(8) -0.0381(4)
C6E C -0.3369(8) 0.4478(6) -0.0381(4)
H2B H -0.4693 0.2463 -0.0327
H2A H -0.4693 0.2844 -0.4673
H2C H -0.2844 0.2463 -0.4673
H2D H -0.2463 0.2844 -0.0327
H2E H -0.2844 0.4693 -0.0327
C7B C -0.4090(5) 0.2176(5) -0.0917(3)
C7A C -0.4090(5) 0.3734(7) -0.4083(3)
C7C C -0.3734(7) 0.2176(5) -0.4083(3)
C7D C -0.2176(5) 0.3734(7) -0.0917(3)
C7E C -0.3734(7) 0.4090(5) -0.0917(3)
H3B H -0.4068 0.2499 -0.1229
H3A H -0.4068 0.3433 -0.3771
H3C H -0.3433 0.2499 -0.3771
H3D H -0.2499 0.3433 -0.1229
H3E H -0.3433 0.4068 -0.1229
C8B C -0.4019(7) 0.0242(7) 0.0417(4)
C8A C -0.4019(7) 0.5739(10) -0.5417(4)
C8C C -0.5739(10) 0.0242(7) -0.5417(4)
C8D C -0.0242(7) 0.5739(10) 0.0417(4)
C8E C -0.5739(10) 0.4019(7) 0.0417(4)
H4B H -0.3799 0.0223 0.0050
H4A H -0.3799 0.5978 -0.5050
H4C H -0.5978 0.0223 -0.5050
H4D H -0.0223 0.5978 0.0050
H4E H -0.5978 0.3799 0.0050
C9B C -0.4064(5) -0.0291(5) 0.0910(4)
C9A C -0.4064(5) 0.6227(7) -0.5910(4)
C9C C -0.6227(7) -0.0291(5) -0.5910(4)
C9D C 0.0291(5) 0.6227(7) 0.0910(4)
C9E C -0.6227(7) 0.4064(5) 0.0910(4)
C10B C -0.4487(4) -0.0346(5) 0.1446(3)
C10A C -0.4487(4) 0.5859(6) -0.6446(3)
C10C C -0.5859(6) -0.0346(5) -0.6446(3)
C10D C 0.0346(5) 0.5859(6) 0.1446(3)
C10E C -0.5859(6) 0.4487(4) 0.1446(3)
H5B H -0.4698 -0.0032 0.1501
H5A H -0.4698 0.5334 -0.6501
H5C H -0.5334 -0.0032 -0.6501
H5D H 0.0032 0.5334 0.1501
H5E H -0.5334 0.4698 0.1501
C11B C -0.4570(4) -0.0851(4) 0.1861(3)
C11A C -0.4570(4) 0.6281(6) -0.6861(3)
C11C C -0.6281(6) -0.0851(4) -0.6861(3)
C11D C 0.0851(4) 0.6281(6) 0.1861(3)
C11E C -0.6281(6) 0.4570(4) 0.1861(3)
H6B H -0.4858 -0.0899 0.2206
H6A H -0.4858 0.6041 -0.7206
H6C H -0.6041 -0.0899 -0.7206
H6D H 0.0899 0.6041 0.2206
H6E H -0.6041 0.4858 0.2206
C12B C -0.3846(5) -0.1268(6) 0.1314(4)
C12A C -0.3846(5) 0.7422(8) -0.6314(4)
C12C C -0.7422(8) -0.1268(6) -0.6314(4)
C12D C 0.1268(6) 0.7422(8) 0.1314(4)
C12E C -0.7422(8) 0.3846(5) 0.1314(4)
H7B H -0.3634 -0.1583 0.1270
H7A H -0.3634 0.7949 -0.6270
H7C H -0.7949 -0.1583 -0.6270
H7D H 0.1583 0.7949 0.1270
H7E H -0.7949 0.3634 0.1270
C13B C -0.3750(6) -0.0743(7) 0.0874(4)
C13A C -0.3750(6) 0.6993(9) -0.5874(4)
C13C C -0.6993(9) -0.0743(7) -0.5874(4)
C13D C 0.0743(7) 0.6993(9) 0.0874(4)
C13E C -0.6993(9) 0.3750(6) 0.0874(4)
H8B H -0.3454 -0.0698 0.0534
H8A H -0.3454 0.7244 -0.5534
H8C H -0.7244 -0.0698 -0.5534
H8D H 0.0698 0.7244 0.0534
H8E H -0.7244 0.3454 0.0534
O1B O -0.3228(3) 0.2345(3) -0.1961(2)
O1A O -0.3228(3) 0.4427(4) -0.3039(2)
O1C O -0.4427(4) 0.2345(3) -0.3039(2)
O1D O -0.2345(3) 0.4427(4) -0.1961(2)
O1E O -0.4427(4) 0.3228(3) -0.1961(2)
O2B O -0.3030(3) 0.1401(3) -0.1672(2)
O2A O -0.3030(3) 0.5569(4) -0.3328(2)
O2D O -0.1401(3) 0.5569(4) -0.1672(2)
O2C O -0.5569(4) 0.1401(3) -0.3328(2)
O2E O -0.5569(4) 0.3030(3) -0.1672(2)
O3A O -0.1540(2) 0.6920(3) -0.2500
O3C O -0.6920(3) 0.1540(2) -0.2500
N1B N -0.4250(4) 0.0706(4) 0.0456(3)
N1A N -0.4250(4) 0.5044(6) -0.5456(3)
N1C N -0.5044(6) 0.0706(4) -0.5456(3)
N1D N -0.0706(4) 0.5044(6) 0.0456(3)
N1E N -0.5044(6) 0.4250(4) 0.0456(3)
N2J N -0.1312(4) 0.2941(6) -0.1808(2)
N2I N -0.2941(6) 0.1312(4) -0.3192(2)
N2F N -0.1312(4) 0.5747(4) -0.3192(2)
N2K N -0.2941(6) 0.5747(4) -0.1808(2)
N2G N -0.5747(4) 0.2941(6) -0.3192(2)
N2H N -0.5747(4) 0.1312(4) -0.1808(2)
N2B N -0.4253(4) -0.1312(4) 0.1808(2)
N2A N -0.4253(4) 0.7059(6) -0.6808(2)
N2C N -0.7059(6) -0.1312(4) -0.6808(2)
N2D N 0.1312(4) 0.7059(6) 0.1808(2)
N2E N -0.7059(6) 0.4253(4) 0.1808(2)
N3B N -0.4907(7) 0.1540(7) 0.0620(4)
N3A N -0.4907(7) 0.3553(10) -0.5620(4)
N3C N -0.3553(10) 0.1540(7) -0.5620(4)
N3D N -0.1540(7) 0.3553(10) 0.0620(4)
N3E N -0.3553(10) 0.4907(7) 0.0620(4)
H9B H -0.163(7) 0.120(7) -0.274(5)
H9A H -0.163(7) 0.717(10) -0.226(5)
H9D H -0.120(7) 0.717(10) -0.274(5)
H9C H -0.717(10) 0.120(7) -0.226(5)
H9E H -0.717(10) 0.163(7) -0.274(5)
H10B H -0.475(5) 0.146(9) 0.0953(14)
H10A H -0.475(5) 0.379(10) -0.5953(14)
H10C H -0.379(10) 0.146(9) -0.5953(14)
H10D H -0.146(9) 0.379(10) 0.0953(14)
H10E H -0.379(10) 0.475(5) 0.0953(14)
H11B H -0.5386(15) 0.133(8) 0.0659(19)
H11A H -0.5386(15) 0.3284(81) -0.5659(19)
H11C H -0.3284(81) 0.133(8) -0.5659(19)
H11D H -0.133(8) 0.3284(81) 0.0659(19)
H11E H -0.3284(81) 0.5386(15) 0.0659(19)
loop_
_geom_bond_atom_site_label_1
_geom_bond_atom_site_label_2
_geom_bond_site_symmetry_1
_geom_bond_site_symmetry_2
Cd1 O1 1_555 1_555
Na1 O1 1_555 1_555
C1 C2 1_555 1_555
C2 C3 1_555 1_555
C3 H1 1_555 1_555
C4 C3 1_555 1_555
C5 C4 1_555 1_555
C6 C5 1_555 1_555
H2 C6 1_555 1_555
C7 C2 1_555 1_555
H3 C7 1_555 1_555
C8 H4 1_555 1_555
C9 C8 1_555 1_555
C10 C9 1_555 1_555
H5 C10 1_555 1_555
C11 C10 1_555 1_555
H6 C11 1_555 1_555
C12 H7 1_555 1_555
C13 C9 1_555 1_555
H8 C13 1_555 1_555
O1 C1 1_555 1_555
O2 Cd1 1_555 1_555
O3 Cd1 1_555 1_555
N1 C4 1_555 1_555
N2 C11 1_555 1_555
N3 C5 1_555 1_555
H9 O3 1_555 1_555
H10 N3 1_555 1_555
H11 N3 1_555 1_555
Cd1A O1A 1_555 1_555
Cd1C O1C 1_555 1_555
Cd1G N2 1_555 1_555
Cd1I N2B 1_555 1_555
Cd1I_2 N2A 1_555 1_555
Cd1F N2C 1_555 1_555
Cd1F_2 N2D 1_555 1_555
Cd1G_2 N2E 1_555 1_555
C1B C2B 1_555 1_555
C1A C2A 1_555 1_555
C1C C2C 1_555 1_555
C1D C2D 1_555 1_555
C1E C2E 1_555 1_555
C2B C3B 1_555 1_555
C2A C3A 1_555 1_555
C2C C3C 1_555 1_555
C2D C3D 1_555 1_555
C2E C3E 1_555 1_555
C3B H1B 1_555 1_555
C3A H1A 1_555 1_555
C3C H1C 1_555 1_555
C3D H1D 1_555 1_555
C3E H1E 1_555 1_555
C4B C3B 1_555 1_555
C4A C3A 1_555 1_555
C4C C3C 1_555 1_555
C4D C3D 1_555 1_555
C4E C3E 1_555 1_555
C5B C4B 1_555 1_555
C5A C4A 1_555 1_555
C5C C4C 1_555 1_555
C5D C4D 1_555 1_555
C5E C4E 1_555 1_555
C6B C5B 1_555 1_555
C6A C5A 1_555 1_555
C6C C5C 1_555 1_555
C6D C5D 1_555 1_555
C6E C5E 1_555 1_555
H2B C6B 1_555 1_555
H2A C6A 1_555 1_555
H2C C6C 1_555 1_555
H2D C6D 1_555 1_555
H2E C6E 1_555 1_555
C7B C2B 1_555 1_555
C7A C2A 1_555 1_555
C7C C2C 1_555 1_555
C7D C2D 1_555 1_555
C7E C2E 1_555 1_555
H3B C7B 1_555 1_555
H3A C7A 1_555 1_555
H3C C7C 1_555 1_555
H3D C7D 1_555 1_555
H3E C7E 1_555 1_555
C8B H4B 1_555 1_555
C8A H4A 1_555 1_555
C8C H4C 1_555 1_555
C8D H4D 1_555 1_555
C8E H4E 1_555 1_555
C9B C8B 1_555 1_555
C9A C8A 1_555 1_555
C9C C8C 1_555 1_555
C9D C8D 1_555 1_555
C9E C8E 1_555 1_555
C10B C9B 1_555 1_555
C10A C9A 1_555 1_555
C10C C9C 1_555 1_555
C10D C9D 1_555 1_555
C10E C9E 1_555 1_555
H5B C10B 1_555 1_555
H5A C10A 1_555 1_555
H5C C10C 1_555 1_555
H5D C10D 1_555 1_555
H5E C10E 1_555 1_555
C11B C10B 1_555 1_555
C11A C10A 1_555 1_555
C11C C10C 1_555 1_555
C11D C10D 1_555 1_555
C11E C10E 1_555 1_555
H6B C11B 1_555 1_555
H6A C11A 1_555 1_555
H6C C11C 1_555 1_555
H6D C11D 1_555 1_555
H6E C11E 1_555 1_555
C12B H7B 1_555 1_555
C12A H7A 1_555 1_555
C12C H7C 1_555 1_555
C12D H7D 1_555 1_555
C12E H7E 1_555 1_555
C13B C9B 1_555 1_555
C13A C9A 1_555 1_555
C13C C9C 1_555 1_555
C13D C9D 1_555 1_555
C13E C9E 1_555 1_555
H8B C13B 1_555 1_555
H8A C13A 1_555 1_555
H8C C13C 1_555 1_555
H8D C13D 1_555 1_555
H8E C13E 1_555 1_555
O1B Cd1 1_555 1_555
O1A Na1 1_555 1_555
O1C Na1 1_555 1_555
O1D Na1 1_555 1_555
O1E Na1 1_555 1_555
O2B Cd1 1_555 1_555
O2A Cd1A 1_555 1_555
O2D Cd1A 1_555 1_555
O2C Cd1C 1_555 1_555
O2E Cd1C 1_555 1_555
O3A Cd1A 1_555 1_555
O3C Cd1C 1_555 1_555
N1B C4B 1_555 1_555
N1A C4A 1_555 1_555
N1C C4C 1_555 1_555
N1D C4D 1_555 1_555
N1E C4E 1_555 1_555
N2J Cd1 1_555 1_555
N2I Cd1 1_555 1_555
N2F Cd1A 1_555 1_555
N2K Cd1A 1_555 1_555
N2G Cd1C 1_555 1_555
N2H Cd1C 1_555 1_555
N2B C11B 1_555 1_555
N2A C11A 1_555 1_555
N2C C11C 1_555 1_555
N2D C11D 1_555 1_555
N2E C11E 1_555 1_555
N3B C5B 1_555 1_555
N3A C5A 1_555 1_555
N3C C5C 1_555 1_555
N3D C5D 1_555 1_555
N3E C5E 1_555 1_555
H9B O3 1_555 1_555
H9A O3A 1_555 1_555
H9D O3A 1_555 1_555
H9C O3C 1_555 1_555
H9E O3C 1_555 1_555
H10B N3B 1_555 1_555
H10A N3A 1_555 1_555
H10C N3C 1_555 1_555
H10D N3D 1_555 1_555
H10E N3E 1_555 1_555
H11B N3B 1_555 1_555
H11A N3A 1_555 1_555
H11C N3C 1_555 1_555
H11D N3D 1_555 1_555
H11E N3E 1_555 1_555
Na1 O1B 1_555 1_555
C1 O2 1_555 1_555
C6 C7 1_555 1_555
C8 N1 1_555 1_555
C12 C13 1_555 1_555
C12 N2 1_555 1_555
Cd1A O1D 1_555 1_555
Cd1C O1E 1_555 1_555
C1B O1B 1_555 1_555
C1B O2B 1_555 1_555
C1A O1A 1_555 1_555
C1A O2A 1_555 1_555
C1C O1C 1_555 1_555
C1C O2C 1_555 1_555
C1D O1D 1_555 1_555
C1D O2D 1_555 1_555
C1E O1E 1_555 1_555
C1E O2E 1_555 1_555
C6B C7B 1_555 1_555
C6A C7A 1_555 1_555
C6C C7C 1_555 1_555
C6D C7D 1_555 1_555
C6E C7E 1_555 1_555
C8B N1B 1_555 1_555
C8A N1A 1_555 1_555
C8C N1C 1_555 1_555
C8D N1D 1_555 1_555
C8E N1E 1_555 1_555
C12B C13B 1_555 1_555
C12B N2B 1_555 1_555
C12A C13A 1_555 1_555
C12A N2A 1_555 1_555
C12C C13C 1_555 1_555
C12C N2C 1_555 1_555
C12D C13D 1_555 1_555
C12D N2D 1_555 1_555
C12E C13E 1_555 1_555
C12E N2E 1_555 1_555

#END
