
#######################################################################
#
#                 Cambridge Crystallographic Data Centre
#                                CCDC 
#
#######################################################################
#
# If this CIF has been generated from an entry in the Cambridge 
# Structural Database, then it will include bibliographic, chemical, 
# crystal, experimental, refinement or atomic coordinate data resulting 
# from the CCDC's data processing and validation procedures.
#
#######################################################################

data_SUKPAQ
_symmetry_cell_setting           trigonal
_symmetry_space_group_name_H-M   'P -3 1 c'
_symmetry_Int_Tables_number      163
_space_group_name_Hall           "-P 3 2'c"
loop_
_symmetry_equiv_pos_site_id
_symmetry_equiv_pos_as_xyz
1 x,y,z
2 -y,x-y,z
3 -x+y,-x,z
4 -y,-x,1/2-z
5 -x+y,y,1/2-z
6 x,x-y,1/2-z
7 -x,-y,-z
8 y,-x+y,-z
9 x-y,x,-z
10 y,x,1/2+z
11 x-y,-y,1/2+z
12 -x,-x+y,1/2+z
_cell_length_a                   22.5982(8)
_cell_length_b                   22.5982(8)
_cell_length_c                   20.3700(7)
_cell_angle_alpha                90
_cell_angle_beta                 90
_cell_angle_gamma                120
_cell_volume                     9008.85
loop_
_atom_site_label
_atom_site_type_symbol
_atom_site_fract_x
_atom_site_fract_y
_atom_site_fract_z
Cs1 Cs 0.3333 0.6667 0.7500
Cd1 Cd 0.54382(8) 0.77191(4) 0.7500
O1 O 0.4545(6) 0.7658(5) 0.6844(5)
O2 O 0.5564(6) 0.8442(6) 0.6533(5)
O3 O 0.6662(10) 0.8331(5) 0.7500
H1 H 0.7009 0.8793 0.7432
N1 N 0.5111(8) 0.9440(7) 0.4451(6)
N2 N 0.6961(7) 1.1421(7) 0.3197(6)
N3 N 0.3721(9) 0.8715(11) 0.4326(9)
H2 H 0.3966 0.9078 0.4081
H3 H 0.3278 0.8463 0.4262
C1 C 0.4942(11) 0.8127(8) 0.6448(6)
C2 C 0.4624(8) 0.8259(7) 0.5884(6)
C3 C 0.5005(8) 0.8775(7) 0.5446(6)
H4 H 0.5485 0.9036 0.5512
C4 C 0.4738(9) 0.8930(8) 0.4930(8)
C5 C 0.4034(10) 0.8540(10) 0.4816(9)
C6 C 0.3633(10) 0.8006(10) 0.5262(9)
H5 H 0.3154 0.7732 0.5198
C7 C 0.3934(10) 0.7888(8) 0.5778(7)
H6 H 0.3657 0.7535 0.6078
C8 C 0.5728(11) 0.9871(11) 0.4539(9)
H7 H 0.5941 0.9848 0.4933
C9 C 0.7259(12) 1.1299(10) 0.3730(9)
H8 H 0.7738 1.1561 0.3806
C10 C 0.6827(13) 1.0775(11) 0.4154(10)
H9 H 0.7024 1.0673 0.4517
C11 C 0.6128(10) 1.0398(9) 0.4072(8)
C12 C 0.5863(9) 1.0533(8) 0.3523(7)
H10 H 0.5389 1.0272 0.3427
C13 C 0.6305(8) 1.1060(8) 0.3114(7)
H11 H 0.6113 1.1163 0.2748
Cd1A Cd 0.22809(4) 0.77191(9) 0.7500
Cd1B Cd 0.22809(9) 0.45618(8) 0.7500
Cd1F Cd 0.45618(8) 0.22809(4) 0.2500
Cd1F_2 Cd 0.45618(8) 1.22809(4) 1.2500
Cd1G Cd -0.22809(4) 0.22809(9) 1.2500
Cd1G_2 Cd 0.77191(4) 1.22809(9) 0.2500
Cd1H Cd -0.22809(9) 0.54382(8) 0.2500
Cd1H_2 Cd 0.77191(9) 0.54382(8) 1.2500
O1A O 0.2342(5) 0.6887(8) 0.6844(5)
O1B O 0.3113(8) 0.5455(6) 0.6844(5)
O1C O 0.2342(5) 0.5455(6) 0.8156(5)
O1D O 0.3113(8) 0.7658(5) 0.8156(5)
O1E O 0.4545(6) 0.6887(8) 0.8156(5)
O2A O 0.1558(6) 0.7122(8) 0.6533(5)
O2B O 0.2878(8) 0.4436(6) 0.6533(5)
O2C O 0.1558(6) 0.4436(6) 0.8467(5)
O2D O 0.2878(8) 0.8442(6) 0.8467(5)
O2E O 0.5564(6) 0.7122(8) 0.8467(5)
O3A O 0.1669(5) 0.8331(11) 0.7500
O3B O 0.1669(11) 0.3338(10) 0.7500
H1E H 0.7009 0.8216 0.7568
H1A H 0.1207 0.8216 0.7432
H1D H 0.1784 0.8793 0.7568
H1B H 0.1784 0.2991 0.7432
H1C H 0.1207 0.2991 0.7568
N1A N 0.0560(7) 0.5671(11) 0.4451(6)
N1B N 0.4329(11) 0.4889(8) 0.4451(6)
N1C N 0.0560(7) 0.4889(8) 1.0549(6)
N1D N 0.4329(11) 0.9440(7) 1.0549(6)
N1E N 0.5111(8) 0.5671(11) 1.0549(6)
N2A N -0.1421(7) 0.5540(10) 0.3197(6)
N2B N 0.4460(10) 0.3039(7) 0.3197(6)
N2C N -0.1421(7) 0.3039(7) 1.1803(6)
N2D N 0.4460(10) 1.1421(7) 1.1803(6)
N2E N 0.6961(7) 0.5540(10) 1.1803(6)
N2F N 0.3039(7) 0.8579(7) 0.6803(6)
N2G N 0.1421(7) 0.4460(10) 0.6803(6)
N2H N 0.5540(10) 0.6961(7) 0.6803(6)
N2I N 0.1421(7) 0.6961(7) 0.8197(6)
N2J N 0.5540(10) 0.8579(7) 0.8197(6)
N2K N 0.3039(7) 0.4460(10) 0.8197(6)
N3A N 0.1285(11) 0.5006(14) 0.4326(9)
N3B N 0.4994(14) 0.6279(9) 0.4326(9)
N3C N 0.1285(11) 0.6279(9) 1.0674(9)
N3D N 0.4994(14) 0.8715(11) 1.0674(9)
N3E N 0.3721(9) 0.5006(14) 1.0674(9)
H2A H 0.0922 0.4888 0.4081
H2B H 0.5112 0.6034 0.4081
H2C H 0.0922 0.6034 1.0919
H2D H 0.5112 0.9078 1.0919
H2E H 0.3966 0.4888 1.0919
H3A H 0.1537 0.4815 0.4262
H3B H 0.5185 0.6722 0.4262
H3C H 0.1537 0.6722 1.0738
H3D H 0.5185 0.8463 1.0738
H3E H 0.3278 0.4815 1.0738
C1A C 0.1873(8) 0.6815(14) 0.6448(6)
C1B C 0.3185(14) 0.5058(11) 0.6448(6)
C1C C 0.1873(8) 0.5058(11) 0.8552(6)
C1D C 0.3185(14) 0.8127(8) 0.8552(6)
C1E C 0.4942(11) 0.6815(14) 0.8552(6)
C2A C 0.1741(7) 0.6365(11) 0.5884(6)
C2B C 0.3635(11) 0.5376(8) 0.5884(6)
C2C C 0.1741(7) 0.5376(8) 0.9116(6)
C2D C 0.3635(11) 0.8259(7) 0.9116(6)
C2E C 0.4624(8) 0.6365(11) 0.9116(6)
C3A C 0.1225(7) 0.6230(11) 0.5446(6)
C3B C 0.3770(11) 0.4995(8) 0.5446(6)
C3C C 0.1225(7) 0.4995(8) 0.9554(6)
C3D C 0.3770(11) 0.8775(7) 0.9554(6)
C3E C 0.5005(8) 0.6230(11) 0.9554(6)
H4A H 0.0964 0.6449 0.5512
H4B H 0.3551 0.4515 0.5512
H4C H 0.0964 0.4515 0.9488
H4D H 0.3551 0.9036 0.9488
H4E H 0.5485 0.6449 0.9488
C4A C 0.1070(8) 0.5808(12) 0.4930(8)
C4B C 0.4192(12) 0.5262(9) 0.4930(8)
C4C C 0.1070(8) 0.5262(9) 1.0070(8)
C4D C 0.4192(12) 0.8930(8) 1.0070(8)
C4E C 0.4738(9) 0.5808(12) 1.0070(8)
C5A C 0.1460(10) 0.5494(14) 0.4816(9)
C5B C 0.4506(14) 0.5966(10) 0.4816(9)
C5C C 0.1460(10) 0.5966(10) 1.0184(9)
C5D C 0.4506(14) 0.8540(10) 1.0184(9)
C5E C 0.4034(10) 0.5494(14) 1.0184(9)
C6A C 0.1994(10) 0.5627(14) 0.5262(9)
C6B C 0.4373(14) 0.6367(10) 0.5262(9)
C6C C 0.1994(10) 0.6367(10) 0.9738(9)
C6D C 0.4373(14) 0.8006(10) 0.9738(9)
C6E C 0.3633(10) 0.5627(14) 0.9738(9)
H5A H 0.2268 0.5422 0.5198
H5B H 0.4578 0.6846 0.5198
H5C H 0.2268 0.6846 0.9802
H5D H 0.4578 0.7732 0.9802
H5E H 0.3154 0.5422 0.9802
C7A C 0.2112(8) 0.6046(13) 0.5778(7)
C7B C 0.3954(13) 0.6066(10) 0.5778(7)
C7C C 0.2112(8) 0.6066(10) 0.9222(7)
C7D C 0.3954(13) 0.7888(8) 0.9222(7)
C7E C 0.3934(10) 0.6046(13) 0.9222(7)
H6A H 0.2465 0.6122 0.6078
H6B H 0.3878 0.6343 0.6078
H6C H 0.2465 0.6343 0.8922
H6D H 0.3878 0.7535 0.8922
H6E H 0.3657 0.6122 0.8922
C8A C 0.0129(11) 0.5857(16) 0.4539(9)
C8B C 0.4143(16) 0.4272(11) 0.4539(9)
C8C C 0.0129(11) 0.4272(11) 1.0461(9)
C8D C 0.4143(16) 0.9871(11) 1.0461(9)
C8E C 0.5728(11) 0.5857(16) 1.0461(9)
H7A H 0.0152 0.6093 0.4933
H7B H 0.3907 0.4059 0.4933
H7C H 0.0152 0.4059 1.0067
H7D H 0.3907 0.9848 1.0067
H7E H 0.5941 0.6093 1.0067
C9A C -0.1299(10) 0.5960(16) 0.3730(9)
C9B C 0.4040(16) 0.2741(12) 0.3730(9)
C9C C -0.1299(10) 0.2741(12) 1.1270(9)
C9D C 0.4040(16) 1.1299(10) 1.1270(9)
C9E C 0.7259(12) 0.5960(16) 1.1270(9)
H8A H -0.1561 0.6177 0.3806
H8B H 0.3823 0.2262 0.3806
H8C H -0.1561 0.2262 1.1194
H8D H 0.3823 1.1561 1.1194
H8E H 0.7738 0.6177 1.1194
C10A C -0.0775(11) 0.6052(17) 0.4154(10)
C10B C 0.3948(17) 0.3173(13) 0.4154(10)
C10C C -0.0775(11) 0.3173(13) 1.0846(10)
C10D C 0.3948(17) 1.0775(11) 1.0846(10)
C10E C 0.6827(13) 0.6052(17) 1.0846(10)
H9A H -0.0673 0.6351 0.4517
H9B H 0.3649 0.2976 0.4517
H9C H -0.0673 0.2976 1.0483
H9D H 0.3649 1.0673 1.0483
H9E H 0.7024 0.6351 1.0483
C11A C -0.0398(9) 0.5730(13) 0.4072(8)
C11B C 0.4270(13) 0.3872(10) 0.4072(8)
C11C C -0.0398(9) 0.3872(10) 1.0928(8)
C11D C 0.4270(13) 1.0398(9) 1.0928(8)
C11E C 0.6128(10) 0.5730(13) 1.0928(8)
C12A C -0.0533(8) 0.5330(12) 0.3523(7)
C12B C 0.4670(12) 0.4137(9) 0.3523(7)
C12C C -0.0533(8) 0.4137(9) 1.1477(7)
C12D C 0.4670(12) 1.0533(8) 1.1477(7)
C12E C 0.5863(9) 0.5330(12) 1.1477(7)
H10A H -0.0272 0.5117 0.3427
H10B H 0.4883 0.4611 0.3427
H10C H -0.0272 0.4611 1.1573
H10D H 0.4883 1.0272 1.1573
H10E H 0.5389 0.5117 1.1573
C13A C -0.1060(8) 0.5245(11) 0.3114(7)
C13B C 0.4755(11) 0.3695(8) 0.3114(7)
C13C C -0.1060(8) 0.3695(8) 1.1886(7)
C13D C 0.4755(11) 1.1060(8) 1.1886(7)
C13E C 0.6305(8) 0.5245(11) 1.1886(7)
H11A H -0.1163 0.4950 0.2748
H11B H 0.5050 0.3887 0.2748
H11C H -0.1163 0.3887 1.2252
H11D H 0.5050 1.1163 1.2252
H11E H 0.6113 0.4950 1.2252
loop_
_geom_bond_atom_site_label_1
_geom_bond_atom_site_label_2
_geom_bond_site_symmetry_1
_geom_bond_site_symmetry_2
Cs1 O1 1_555 1_555
Cd1 O1 1_555 1_555
O1 C1 1_555 1_555
O2 Cd1 1_555 1_555
O3 Cd1 1_555 1_555
H1 O3 1_555 1_555
N1 C4 1_555 1_555
N2 C9 1_555 1_555
N3 H2 1_555 1_555
H3 N3 1_555 1_555
C1 O2 1_555 1_555
C2 C1 1_555 1_555
C3 C2 1_555 1_555
H4 C3 1_555 1_555
C4 C3 1_555 1_555
C5 N3 1_555 1_555
C6 C5 1_555 1_555
H5 C6 1_555 1_555
C7 C2 1_555 1_555
H6 C7 1_555 1_555
C8 N1 1_555 1_555
H7 C8 1_555 1_555
C9 H8 1_555 1_555
C10 C9 1_555 1_555
H9 C10 1_555 1_555
C11 C8 1_555 1_555
C12 C11 1_555 1_555
H10 C12 1_555 1_555
C13 N2 1_555 1_555
H11 C13 1_555 1_555
Cd1A O1A 1_555 1_555
Cd1B O1B 1_555 1_555
Cd1F N2B 1_555 1_555
Cd1F_2 N2D 1_555 1_555
Cd1G N2C 1_555 1_555
Cd1G_2 N2 1_555 1_555
Cd1H N2A 1_555 1_555
Cd1H_2 N2E 1_555 1_555
O1A Cs1 1_555 1_555
O1B Cs1 1_555 1_555
O1C Cs1 1_555 1_555
O1D Cs1 1_555 1_555
O1E Cs1 1_555 1_555
O2A Cd1A 1_555 1_555
O2B Cd1B 1_555 1_555
O2C Cd1B 1_555 1_555
O2D Cd1A 1_555 1_555
O2E Cd1 1_555 1_555
O3A Cd1A 1_555 1_555
O3B Cd1B 1_555 1_555
H1E O3 1_555 1_555
H1A O3A 1_555 1_555
H1D O3A 1_555 1_555
H1B O3B 1_555 1_555
H1C O3B 1_555 1_555
N1A C4A 1_555 1_555
N1B C4B 1_555 1_555
N1C C4C 1_555 1_555
N1D C4D 1_555 1_555
N1E C4E 1_555 1_555
N2A C9A 1_555 1_555
N2B C9B 1_555 1_555
N2C C9C 1_555 1_555
N2D C9D 1_555 1_555
N2E C9E 1_555 1_555
N2F Cd1A 1_555 1_555
N2G Cd1B 1_555 1_555
N2H Cd1 1_555 1_555
N2I Cd1A 1_555 1_555
N2J Cd1 1_555 1_555
N2K Cd1B 1_555 1_555
N3A H2A 1_555 1_555
N3B H2B 1_555 1_555
N3C H2C 1_555 1_555
N3D H2D 1_555 1_555
N3E H2E 1_555 1_555
H3A N3A 1_555 1_555
H3B N3B 1_555 1_555
H3C N3C 1_555 1_555
H3D N3D 1_555 1_555
H3E N3E 1_555 1_555
C1A O1A 1_555 1_555
C1B O1B 1_555 1_555
C1C O1C 1_555 1_555
C1D O1D 1_555 1_555
C1E O1E 1_555 1_555
C2A C1A 1_555 1_555
C2B C1B 1_555 1_555
C2C C1C 1_555 1_555
C2D C1D 1_555 1_555
C2E C1E 1_555 1_555
C3A C2A 1_555 1_555
C3B C2B 1_555 1_555
C3C C2C 1_555 1_555
C3D C2D 1_555 1_555
C3E C2E 1_555 1_555
H4A C3A 1_555 1_555
H4B C3B 1_555 1_555
H4C C3C 1_555 1_555
H4D C3D 1_555 1_555
H4E C3E 1_555 1_555
C4A C3A 1_555 1_555
C4B C3B 1_555 1_555
C4C C3C 1_555 1_555
C4D C3D 1_555 1_555
C4E C3E 1_555 1_555
C5A N3A 1_555 1_555
C5B N3B 1_555 1_555
C5C N3C 1_555 1_555
C5D N3D 1_555 1_555
C5E N3E 1_555 1_555
C6A C5A 1_555 1_555
C6B C5B 1_555 1_555
C6C C5C 1_555 1_555
C6D C5D 1_555 1_555
C6E C5E 1_555 1_555
H5A C6A 1_555 1_555
H5B C6B 1_555 1_555
H5C C6C 1_555 1_555
H5D C6D 1_555 1_555
H5E C6E 1_555 1_555
C7A C2A 1_555 1_555
C7B C2B 1_555 1_555
C7C C2C 1_555 1_555
C7D C2D 1_555 1_555
C7E C2E 1_555 1_555
H6A C7A 1_555 1_555
H6B C7B 1_555 1_555
H6C C7C 1_555 1_555
H6D C7D 1_555 1_555
H6E C7E 1_555 1_555
C8A N1A 1_555 1_555
C8B N1B 1_555 1_555
C8C N1C 1_555 1_555
C8D N1D 1_555 1_555
C8E N1E 1_555 1_555
H7A C8A 1_555 1_555
H7B C8B 1_555 1_555
H7C C8C 1_555 1_555
H7D C8D 1_555 1_555
H7E C8E 1_555 1_555
C9A H8A 1_555 1_555
C9B H8B 1_555 1_555
C9C H8C 1_555 1_555
C9D H8D 1_555 1_555
C9E H8E 1_555 1_555
C10A C9A 1_555 1_555
C10B C9B 1_555 1_555
C10C C9C 1_555 1_555
C10D C9D 1_555 1_555
C10E C9E 1_555 1_555
H9A C10A 1_555 1_555
H9B C10B 1_555 1_555
H9C C10C 1_555 1_555
H9D C10D 1_555 1_555
H9E C10E 1_555 1_555
C11A C8A 1_555 1_555
C11B C8B 1_555 1_555
C11C C8C 1_555 1_555
C11D C8D 1_555 1_555
C11E C8E 1_555 1_555
C12A C11A 1_555 1_555
C12B C11B 1_555 1_555
C12C C11C 1_555 1_555
C12D C11D 1_555 1_555
C12E C11E 1_555 1_555
H10A C12A 1_555 1_555
H10B C12B 1_555 1_555
H10C C12C 1_555 1_555
H10D C12D 1_555 1_555
H10E C12E 1_555 1_555
C13A N2A 1_555 1_555
C13B N2B 1_555 1_555
C13C N2C 1_555 1_555
C13D N2D 1_555 1_555
C13E N2E 1_555 1_555
H11A C13A 1_555 1_555
H11B C13B 1_555 1_555
H11C C13C 1_555 1_555
H11D C13D 1_555 1_555
H11E C13E 1_555 1_555
Cd1 O1E 1_555 1_555
C4 C5 1_555 1_555
C6 C7 1_555 1_555
C10 C11 1_555 1_555
C12 C13 1_555 1_555
Cd1A O1D 1_555 1_555
Cd1B O1C 1_555 1_555
O2A C1A 1_555 1_555
O2B C1B 1_555 1_555
O2C C1C 1_555 1_555
O2D C1D 1_555 1_555
O2E C1E 1_555 1_555
C4A C5A 1_555 1_555
C4B C5B 1_555 1_555
C4C C5C 1_555 1_555
C4D C5D 1_555 1_555
C4E C5E 1_555 1_555
C6A C7A 1_555 1_555
C6B C7B 1_555 1_555
C6C C7C 1_555 1_555
C6D C7D 1_555 1_555
C6E C7E 1_555 1_555
C10A C11A 1_555 1_555
C10B C11B 1_555 1_555
C10C C11C 1_555 1_555
C10D C11D 1_555 1_555
C10E C11E 1_555 1_555
C12A C13A 1_555 1_555
C12B C13B 1_555 1_555
C12C C13C 1_555 1_555
C12D C13D 1_555 1_555
C12E C13E 1_555 1_555

#END
