
#######################################################################
#
#                 Cambridge Crystallographic Data Centre
#                                CCDC 
#
#######################################################################
#
# If this CIF has been generated from an entry in the Cambridge 
# Structural Database, then it will include bibliographic, chemical, 
# crystal, experimental, refinement or atomic coordinate data resulting 
# from the CCDC's data processing and validation procedures.
#
#######################################################################

data_SUKRIB
_symmetry_cell_setting           triclinic
_symmetry_space_group_name_H-M   'P -1'
_symmetry_Int_Tables_number      2
_space_group_name_Hall           '-P 1'
loop_
_symmetry_equiv_pos_site_id
_symmetry_equiv_pos_as_xyz
1 x,y,z
2 -x,-y,-z
_cell_length_a                   9.2252(18)
_cell_length_b                   10.627(2)
_cell_length_c                   10.807(2)
_cell_angle_alpha                86.51(3)
_cell_angle_beta                 83.93(3)
_cell_angle_gamma                81.22(3)
_cell_volume                     1040.11
loop_
_atom_site_label
_atom_site_type_symbol
_atom_site_fract_x
_atom_site_fract_y
_atom_site_fract_z
Ce1 Ce 1.03105(3) 0.23995(3) 0.71858(3)
Ce2 Ce 0.97759(3) 0.32305(3) 0.31373(3)
C1 C 0.1958(6) 0.5322(6) 0.4408(5)
C2 C 0.3549(6) 0.5215(6) 0.4717(6)
C3 C 0.4557(7) 0.5845(6) 0.4026(6)
H1 H 0.4266 0.6428 0.3390
C4 C 0.6035(6) 0.5611(6) 0.4276(6)
C5 C 0.7185(7) 0.6217(6) 0.3488(6)
C6 C 1.2343(7) 0.1492(6) 0.4208(6)
C7 C 1.3725(6) 0.0712(6) 0.4627(5)
C8 C 1.5059(7) 0.0914(6) 0.4027(6)
H2 H 1.5099 0.1533 0.3383
C9 C 1.6370(6) 0.0190(6) 0.4380(5)
C10 C 1.7817(7) 0.0468(6) 0.3688(6)
C11 C 0.7910(6) 0.4923(6) 0.8648(5)
C12 C 0.6424(6) 0.4976(6) 0.9429(6)
C13 C 0.3792(6) 0.5585(6) 0.9387(6)
C14 C 0.5219(7) 0.5562(6) 0.8829(6)
H3 H 0.5373 0.5946 0.8039
C15 C 0.2537(7) 0.6132(6) 0.8642(6)
O1 O 1.1214(5) 0.1762(4) 0.5001(4)
O2 O 1.2320(5) 0.1830(5) 0.3094(4)
O3 O 0.2787(5) 0.6744(5) 0.7632(5)
O4 O 0.1270(5) 0.5883(5) 0.9000(5)
O5 O 1.8409(5) 0.1337(4) 0.4072(4)
O6 O 0.8453(5) 0.5923(5) 0.8483(4)
O7 O 0.1141(5) 0.6397(4) 0.4555(4)
O8 O 0.6936(5) 0.7346(4) 0.3065(5)
O9 O 0.8481(4) 0.5576(4) 0.3307(4)
O10 O 1.8315(5) -0.0158(4) 0.2734(4)
O11 O 0.1593(5) 0.4363(4) 0.4013(4)
O12 O 0.8374(6) 0.3879(5) 0.8175(5)
O13 O 1.0145(5) 0.1436(5) 0.1566(5)
O14 O 0.8309(6) 0.1198(5) 0.6669(5)
O15 O 1.1134(6) 0.3104(6) 0.9173(5)
O16 O 0.9181(7) 0.1264(5) 0.9158(5)
C1A C 0.8042(6) 0.4678(6) 0.5592(5)
C2A C 0.6451(6) 0.4785(6) 0.5283(6)
C3A C 0.5443(7) 0.4155(6) 0.5974(6)
H1A H 0.5734 0.3572 0.6610
C4A C 0.3965(6) 0.4389(6) 0.5724(6)
C5A C 0.2815(7) 0.3783(6) 0.6512(6)
O8A O 0.3064(5) 0.2654(4) 0.6935(5)
O9A O 0.1519(4) 0.4424(4) 0.6693(4)
O11A O 0.8407(5) 0.5637(4) 0.5987(4)
O7A O 0.8859(5) 0.3603(4) 0.5445(4)
C6A C 1.7657(7) -0.1492(6) 0.5792(6)
C7A C 1.6275(6) -0.0712(6) 0.5373(5)
C8A C 1.4941(7) -0.0914(6) 0.5973(6)
H2A H 1.4901 -0.1533 0.6617
C9A C 1.3630(6) -0.0190(6) 0.5620(5)
C10A C 1.2183(7) -0.0468(6) 0.6312(6)
O1A O 1.8786(5) -0.1762(4) 0.4999(4)
O2A O 1.7680(5) -0.1830(5) 0.6906(4)
O5A O 1.1591(5) -0.1337(4) 0.5928(4)
O10A O 1.1685(5) 0.0158(4) 0.7266(4)
C11A C 0.2090(6) 0.5077(6) 1.1352(5)
C12A C 0.3576(6) 0.5024(6) 1.0571(6)
C13A C 0.6208(6) 0.4415(6) 1.0613(6)
C14A C 0.4781(7) 0.4438(6) 1.1171(6)
H3A H 0.4627 0.4054 1.1961
C15A C 0.7463(7) 0.3868(6) 1.1358(6)
O3A O 0.7213(5) 0.3256(5) 1.2368(5)
O4A O 0.8730(5) 0.4117(5) 1.1000(5)
O6A O 0.1547(5) 0.4077(5) 1.1517(4)
O12A O 0.1626(6) 0.6121(5) 1.1825(5)
Ce1A Ce -0.03105(3) 0.76005(3) 0.28142(3)
Ce2A Ce 0.02241(3) 0.67695(3) 0.68627(3)
O13A O -0.0145(5) 0.8564(5) 0.8434(5)
O14A O 0.1691(6) 0.8802(5) 0.3331(5)
O15A O -0.1134(6) 0.6896(6) 0.0827(5)
O16A O 0.0819(7) 0.8736(5) 0.0842(5)
Ce1_2 Ce 0.03105(3) 0.23995(3) 0.71858(3)
Ce1A_2 Ce -0.03105(3) 0.76005(3) 1.28142(3)
Ce1A_3 Ce 0.96895(3) 0.76005(3) 0.28142(3)
Ce1A_4 Ce 1.96895(3) -0.23995(3) 0.28142(3)
Ce2_2 Ce -0.02241(3) 0.32305(3) 0.31373(3)
Ce2_3 Ce -0.02241(3) 0.32305(3) 1.31373(3)
Ce2_4 Ce 0.97759(3) 0.32305(3) 1.31373(3)
Ce2_5 Ce 1.97759(3) 0.32305(3) 0.31373(3)
Ce2A_2 Ce 1.02241(3) -0.32305(3) 0.68627(3)
Ce2A_3 Ce 1.02241(3) 0.67695(3) 0.68627(3)
Ce2A_4 Ce 2.02241(3) -0.32305(3) 0.68627(3)
O1A_2 O -0.1214(5) 0.8238(4) 0.4999(4)
O2A_2 O -0.2320(5) 0.8170(5) 0.6906(4)
O3A_2 O 0.7213(5) 0.3256(5) 0.2368(5)
O4A_2 O 0.8730(5) 0.4117(5) 0.1000(5)
O5_2 O 0.8409(5) 0.1337(4) 0.4072(4)
O5A_2 O 0.1591(5) 0.8663(4) 0.5928(4)
O6_2 O -0.1547(5) 0.5923(5) 0.8483(4)
O6A_2 O 1.1547(5) 0.4077(5) 0.1517(4)
O8_2 O -0.3064(5) 0.7346(4) 0.3065(5)
O8A_2 O 1.3064(5) 0.2654(4) 0.6935(5)
O9_2 O -0.1519(4) 0.5576(4) 0.3307(4)
O9A_2 O 1.1519(4) 0.4424(4) 0.6693(4)
O10_2 O -0.1685(5) 0.9842(4) 0.2734(4)
O11_2 O 1.1593(5) 0.4363(4) 0.4013(4)
O11A_2 O -0.1593(5) 0.5637(4) 0.5987(4)
O12A_2 O 0.1626(6) 0.6121(5) 0.1825(5)
O17 O 0.6482(12) 0.8406(11) 0.9524(10)
O18 O 0.4339(12) 0.8681(12) 0.1963(14)
O19 O 0.664(2) 0.077(3) 0.048(2)
loop_
_geom_bond_atom_site_label_1
_geom_bond_atom_site_label_2
_geom_bond_site_symmetry_1
_geom_bond_site_symmetry_2
Ce1 O1 1_555 1_555
Ce2 O1 1_555 1_555
C1 C2 1_555 1_555
C2 C3 1_555 1_555
C3 H1 1_555 1_555
C4 C3 1_555 1_555
C5 C4 1_555 1_555
C6 C7 1_555 1_555
C7 C8 1_555 1_555
C8 H2 1_555 1_555
C9 C8 1_555 1_555
C10 C9 1_555 1_555
C11 C12 1_555 1_555
C12 C14 1_555 1_555
C13 C14 1_555 1_555
C14 H3 1_555 1_555
C15 C13 1_555 1_555
O1 C6 1_555 1_555
O2 Ce2 1_555 1_555
O3 C15 1_555 1_555
O4 C15 1_555 1_555
O5 C10 1_555 1_555
O6 C11 1_555 1_555
O7 C1 1_555 1_555
O8 C5 1_555 1_555
O9 Ce2 1_555 1_555
O10 C10 1_555 1_555
O11 C1 1_555 1_555
O12 Ce1 1_555 1_555
O13 Ce2 1_555 1_555
O14 Ce1 1_555 1_555
O15 Ce1 1_555 1_555
O16 Ce1 1_555 1_555
C1A C2A 1_555 1_555
C2A C4 1_555 1_555
C3A C2A 1_555 1_555
H1A C3A 1_555 1_555
C4A C2 1_555 1_555
C5A C4A 1_555 1_555
O8A C5A 1_555 1_555
O9A C5A 1_555 1_555
O11A C1A 1_555 1_555
O7A Ce1 1_555 1_555
C6A C7A 1_555 1_555
C7A C9 1_555 1_555
C8A C7A 1_555 1_555
H2A C8A 1_555 1_555
C9A C7 1_555 1_555
C10A C9A 1_555 1_555
O1A C6A 1_555 1_555
O2A C6A 1_555 1_555
O5A C10A 1_555 1_555
O10A Ce1 1_555 1_555
C11A C12A 1_555 1_555
C12A C13 1_555 1_555
C13A C12 1_555 1_555
C14A C12A 1_555 1_555
H3A C14A 1_555 1_555
C15A C13A 1_555 1_555
O3A C15A 1_555 1_555
O4A C15A 1_555 1_555
O6A C11A 1_555 1_555
O12A C11A 1_555 1_555
Ce1A O7 1_555 1_555
Ce2A O3 1_555 1_555
O13A Ce2A 1_555 1_555
O14A Ce1A 1_555 1_555
O15A Ce1A 1_555 1_555
O16A Ce1A 1_555 1_555
Ce1_2 O8A 1_555 1_555
Ce1A_2 O12A 1_555 1_555
Ce1A_3 O8 1_555 1_555
Ce1A_4 O10 1_555 1_555
Ce2_2 O11 1_555 1_555
Ce2_3 O6A 1_555 1_555
Ce2_4 O3A 1_555 1_555
Ce2_5 O5 1_555 1_555
Ce2A_2 O5A 1_555 1_555
Ce2A_3 O6 1_555 1_555
Ce2A_4 O1A 1_555 1_555
O1A_2 Ce1A 1_555 1_555
O2A_2 Ce2A 1_555 1_555
O3A_2 Ce2 1_555 1_555
O4A_2 Ce2 1_555 1_555
O5_2 Ce2 1_555 1_555
O5A_2 Ce2A 1_555 1_555
O6_2 Ce2A 1_555 1_555
O6A_2 Ce2 1_555 1_555
O8_2 Ce1A 1_555 1_555
O8A_2 Ce1 1_555 1_555
O9_2 Ce1A 1_555 1_555
O9A_2 Ce1 1_555 1_555
O10_2 Ce1A 1_555 1_555
O11_2 Ce2 1_555 1_555
O11A_2 Ce2A 1_555 1_555
O12A_2 Ce1A 1_555 1_555
Ce2 O7A 1_555 1_555
C5 O9 1_555 1_555
C6 O2 1_555 1_555
C11 O12 1_555 1_555
O4 Ce2A 1_555 1_555
O7 Ce2A 1_555 1_555
O9 Ce1A_3 1_555 1_555
C1A O7A 1_555 1_555
C3A C4A 1_555 1_555
O9A Ce2A 1_555 1_555
O9A Ce1_2 1_555 1_555
O11A Ce2A_3 1_555 1_555
C8A C9A 1_555 1_555
C10A O10A 1_555 1_555
O1A Ce1A_4 1_555 1_555
O2A Ce2A_4 1_555 1_555
C13A C14A 1_555 1_555
O4A Ce2_4 1_555 1_555
Ce2A O1A_2 1_555 1_555
Ce2_2 O9_2 1_555 1_555
Ce2A_3 O9A_2 1_555 1_555

#END
