
#######################################################################
#
#                 Cambridge Crystallographic Data Centre
#                                CCDC 
#
#######################################################################
#
# If this CIF has been generated from an entry in the Cambridge 
# Structural Database, then it will include bibliographic, chemical, 
# crystal, experimental, refinement or atomic coordinate data resulting 
# from the CCDC's data processing and validation procedures.
#
#######################################################################

data_SUKREX
_symmetry_cell_setting           triclinic
_symmetry_space_group_name_H-M   'P -1'
_symmetry_Int_Tables_number      2
_space_group_name_Hall           '-P 1'
loop_
_symmetry_equiv_pos_site_id
_symmetry_equiv_pos_as_xyz
1 x,y,z
2 -x,-y,-z
_cell_length_a                   9.2467(18)
_cell_length_b                   10.715(2)
_cell_length_c                   10.840(2)
_cell_angle_alpha                86.19(3)
_cell_angle_beta                 84.05(3)
_cell_angle_gamma                81.42(3)
_cell_volume                     1054.85
loop_
_atom_site_label
_atom_site_type_symbol
_atom_site_fract_x
_atom_site_fract_y
_atom_site_fract_z
La1 La 0.53060(4) 0.73954(4) 0.71967(4)
La2 La 0.47811(4) 0.82300(4) 0.31405(4)
C1 C 0.2892(8) 0.9896(7) 0.8670(7)
C2 C 0.1430(7) 0.9949(6) 0.9422(7)
C3 C 0.0244(8) 1.0551(7) 0.8825(7)
H1 H 0.0405 1.0934 0.8037
C4 C -0.1189(7) 1.0593(7) 0.9387(7)
C5 C -0.2440(8) 1.1156(7) 0.8629(8)
C6 C 0.7821(7) 0.8791(7) 0.6504(7)
C7 C 0.8972(7) 0.9400(7) 0.5730(7)
C8 C 1.0432(7) 0.9171(6) 0.5988(7)
H2 H 1.0716 0.8609 0.6640
C9 C 1.1460(7) 0.9787(6) 0.5266(7)
C10 C 1.3032(7) 0.9669(6) 0.5593(6)
C11 C 0.2806(7) 0.5476(6) 0.3697(7)
C12 C 0.1357(7) 0.5188(7) 0.4387(7)
C13 C 0.0075(8) 0.5932(7) 0.4049(7)
H3 H 0.0126 0.6560 0.3418
C14 C -0.1287(7) 0.5734(6) 0.4655(7)
C15 C -0.2628(7) 0.6510(7) 0.4219(7)
O1 O 1.3835(5) 0.8593(5) 0.5453(5)
O2 O -0.3761(5) 0.6769(5) 0.4986(5)
O3 O -0.3711(6) 1.0920(6) 0.8997(5)
O4 O -0.2185(6) 1.1763(6) 0.7637(6)
O5 O 1.3426(5) 1.0603(5) 0.5980(5)
O6 O 0.3470(6) 1.0885(5) 0.8485(5)
O7 O -0.2645(6) 0.6879(5) 0.3105(5)
O8 O 0.8085(5) 0.7674(5) 0.6922(5)
O9 O 0.6536(5) 0.9436(5) 0.6684(5)
O10 O 0.3416(6) 0.6311(5) 0.4086(5)
O11 O 0.3286(6) 0.4860(5) 0.2733(5)
O12 O 0.3357(7) 0.8857(6) 0.8175(6)
O13 O 0.5214(7) 0.6415(5) 0.1611(6)
O14 O 0.3329(6) 0.6144(6) 0.6662(6)
O15 O 0.6131(8) 0.8135(7) 0.9204(6)
O16 O 0.4271(7) 0.6249(6) 0.9192(6)
C1A C -0.2892(8) 1.0104(7) 1.1330(7)
C2A C -0.1430(7) 1.0051(6) 1.0578(7)
C3A C -0.0244(8) 0.9449(7) 1.1175(7)
H1A H -0.0405 0.9066 1.1963
C4A C 0.1189(7) 0.9407(7) 1.0613(7)
C5A C 0.2440(8) 0.8844(7) 1.1371(8)
O3A O 0.3711(6) 0.9080(6) 1.1003(5)
O4A O 0.2185(6) 0.8237(6) 1.2363(6)
O6A O -0.3470(6) 0.9115(5) 1.1515(5)
O12A O -0.3357(7) 1.1143(6) 1.1825(6)
C6A C 1.2179(7) 1.1209(7) 0.3496(7)
C7A C 1.1028(7) 1.0600(7) 0.4270(7)
C8A C 0.9568(7) 1.0829(6) 0.4012(7)
H2A H 0.9284 1.1391 0.3360
C9A C 0.8540(7) 1.0213(6) 0.4734(7)
C10A C 0.6968(7) 1.0331(6) 0.4407(6)
O1A O 0.6165(5) 1.1407(5) 0.4547(5)
O5A O 0.6574(5) 0.9397(5) 0.4020(5)
O8A O 1.1915(5) 1.2326(5) 0.3078(5)
O9A O 1.3464(5) 1.0564(5) 0.3316(5)
C11A C -0.2806(7) 0.4524(6) 0.6303(7)
C12A C -0.1357(7) 0.4812(7) 0.5613(7)
C13A C -0.0075(8) 0.4068(7) 0.5951(7)
H3A H -0.0126 0.3440 0.6582
C14A C 0.1287(7) 0.4266(6) 0.5345(7)
C15A C 0.2628(7) 0.3490(7) 0.5781(7)
O2A O 0.3761(5) 0.3231(5) 0.5014(5)
O7A O 0.2645(6) 0.3121(5) 0.6895(5)
O10A O -0.3416(6) 0.3689(5) 0.5914(5)
O11A O -0.3286(6) 0.5140(5) 0.7267(5)
La2A La -0.47811(4) 0.17700(4) 0.68595(4)
O13A O -0.5214(7) 0.3585(5) 0.8389(6)
La1_2 La 1.53060(4) 0.73954(4) 0.71967(4)
O14_2 O 1.3329(6) 0.6144(6) 0.6662(6)
O15_2 O 1.6131(8) 0.8135(7) 0.9204(6)
O16_2 O 1.4271(7) 0.6249(6) 0.9192(6)
La1_3 La -0.46940(4) 0.73954(4) 0.71967(4)
La1A La -0.53060(4) 1.26046(4) 1.28033(4)
La1A_2 La 0.46940(4) 0.26046(4) 0.28033(4)
La1A_3 La 0.46940(4) 1.26046(4) 0.28033(4)
La1A_4 La 1.46940(4) 1.26046(4) 0.28033(4)
La2_2 La -0.52189(4) 0.82300(4) 0.31405(4)
La2_3 La -0.52189(4) 0.82300(4) 1.31405(4)
La2_4 La 0.47811(4) 0.82300(4) 1.31405(4)
La2_5 La 1.47811(4) 0.82300(4) 0.31405(4)
La2A_2 La -0.47811(4) 1.17700(4) 0.68595(4)
La2A_3 La 0.52189(4) 0.17700(4) 0.68595(4)
La2A_4 La 0.52189(4) 1.17700(4) 0.68595(4)
La2A_5 La 1.52189(4) 1.17700(4) 0.68595(4)
O1_2 O 0.3835(5) 0.8593(5) 0.5453(5)
O1A_2 O -0.3835(5) 0.1407(5) 0.4547(5)
O2_2 O 0.6239(5) 0.6769(5) 0.4986(5)
O2_3 O 1.6239(5) 0.6769(5) 0.4986(5)
O2A_2 O -0.6239(5) 0.3231(5) 0.5014(5)
O3_2 O -0.3711(6) 0.0920(6) 0.8997(5)
O3A_2 O 0.3711(6) 0.9080(6) 0.1003(5)
O4_2 O -0.2185(6) 0.1763(6) 0.7637(6)
O4A_2 O 0.2185(6) 0.8237(6) 0.2363(6)
O5_2 O -0.6574(5) 0.0603(5) 0.5980(5)
O6_2 O -0.6530(6) 0.0885(5) 0.8485(5)
O6A_2 O 0.6530(6) 0.9115(5) 0.1515(5)
O7_2 O 0.7355(6) 0.6879(5) 0.3105(5)
O7A_2 O -0.7355(6) 0.3121(5) 0.6895(5)
O8_2 O 1.8085(5) 0.7674(5) 0.6922(5)
O9_2 O -0.3464(5) -0.0564(5) 0.6684(5)
O9_3 O 1.6536(5) 0.9436(5) 0.6684(5)
O9A_2 O 0.3464(5) 1.0564(5) 0.3316(5)
O11A_2 O 0.6714(6) 0.5140(5) 0.7267(5)
O11A_3 O 1.6714(6) 0.5140(5) 0.7267(5)
O12_2 O 1.3357(7) 0.8857(6) 0.8175(6)
O17 O 0.8296(13) 0.4273(15) 0.9529(11)
O18 O 0.9396(9) 0.3680(9) 0.2066(9)
O19 O 0.1493(13) 0.3382(11) 0.9452(11)
loop_
_geom_bond_atom_site_label_1
_geom_bond_atom_site_label_2
_geom_bond_site_symmetry_1
_geom_bond_site_symmetry_2
La1 O8 1_555 1_555
La2 O10 1_555 1_555
C1 C2 1_555 1_555
C2 C3 1_555 1_555
C3 H1 1_555 1_555
C4 C3 1_555 1_555
C5 C4 1_555 1_555
C6 C7 1_555 1_555
C7 C8 1_555 1_555
C8 H2 1_555 1_555
C9 C8 1_555 1_555
C10 C9 1_555 1_555
C11 C12 1_555 1_555
C12 C13 1_555 1_555
C13 H3 1_555 1_555
C14 C13 1_555 1_555
C15 C14 1_555 1_555
O1 C10 1_555 1_555
O2 C15 1_555 1_555
O3 C5 1_555 1_555
O4 C5 1_555 1_555
O5 C10 1_555 1_555
O6 C1 1_555 1_555
O7 C15 1_555 1_555
O8 C6 1_555 1_555
O9 La1 1_555 1_555
O10 C11 1_555 1_555
O11 C11 1_555 1_555
O12 La1 1_555 1_555
O13 La2 1_555 1_555
O14 La1 1_555 1_555
O15 La1 1_555 1_555
O16 La1 1_555 1_555
C1A C2A 1_555 1_555
C2A C4 1_555 1_555
C3A C2A 1_555 1_555
H1A C3A 1_555 1_555
C4A C2 1_555 1_555
C5A C4A 1_555 1_555
O3A C5A 1_555 1_555
O4A C5A 1_555 1_555
O6A C1A 1_555 1_555
O12A C1A 1_555 1_555
C6A C7A 1_555 1_555
C7A C9 1_555 1_555
C8A C7A 1_555 1_555
H2A C8A 1_555 1_555
C9A C7 1_555 1_555
C10A C9A 1_555 1_555
O1A C10A 1_555 1_555
O5A La2 1_555 1_555
O8A C6A 1_555 1_555
O9A C6A 1_555 1_555
C11A C12A 1_555 1_555
C12A C14 1_555 1_555
C13A C12A 1_555 1_555
H3A C13A 1_555 1_555
C14A C12 1_555 1_555
C15A C14A 1_555 1_555
O2A C15A 1_555 1_555
O7A C15A 1_555 1_555
O10A C11A 1_555 1_555
O11A C11A 1_555 1_555
La2A O10A 1_555 1_555
O13A La2A 1_555 1_555
La1_2 O1 1_555 1_555
O14_2 La1_2 1_555 1_555
O15_2 La1_2 1_555 1_555
O16_2 La1_2 1_555 1_555
La1_3 O2 1_555 1_555
La1A O12A 1_555 1_555
La1A_2 O11 1_555 1_555
La1A_3 O1A 1_555 1_555
La1A_4 O8A 1_555 1_555
La2_2 O2 1_555 1_555
La2_3 O6A 1_555 1_555
La2_4 O3A 1_555 1_555
La2_5 O1 1_555 1_555
La2A_2 O3 1_555 1_555
La2A_3 O2A 1_555 1_555
La2A_4 O6 1_555 1_555
La2A_5 O5 1_555 1_555
O1_2 La1 1_555 1_555
O1A_2 La2A 1_555 1_555
O2_2 La1 1_555 1_555
O2_3 La1_2 1_555 1_555
O2A_2 La2A 1_555 1_555
O3_2 La2A 1_555 1_555
O3A_2 La2 1_555 1_555
O4_2 La2A 1_555 1_555
O4A_2 La2 1_555 1_555
O5_2 La2A 1_555 1_555
O6_2 La2A 1_555 1_555
O6A_2 La2 1_555 1_555
O7_2 La2 1_555 1_555
O7A_2 La2A 1_555 1_555
O8_2 La1_2 1_555 1_555
O9_2 La2A 1_555 1_555
O9_3 La1_2 1_555 1_555
O9A_2 La2 1_555 1_555
O11A_2 La1 1_555 1_555
O11A_3 La1_2 1_555 1_555
O12_2 La1_2 1_555 1_555
La2 O1_2 1_555 1_555
La2 O2_2 1_555 1_555
C1 O12 1_555 1_555
C6 O9 1_555 1_555
O4 La2A_2 1_555 1_555
O7 La2_2 1_555 1_555
O9 La2A_4 1_555 1_555
C3A C4A 1_555 1_555
O4A La2_4 1_555 1_555
C8A C9A 1_555 1_555
C10A O5A 1_555 1_555
O1A La2A_4 1_555 1_555
O9A La1A_4 1_555 1_555
O9A La2_5 1_555 1_555
C13A C14A 1_555 1_555
O2A La1A_2 1_555 1_555
O7A La2A_3 1_555 1_555
O11A La1_3 1_555 1_555
La1A_3 O9A_2 1_555 1_555
La2_5 O2_3 1_555 1_555
La2A_5 O9_3 1_555 1_555

#END
