
#######################################################################
#
#                 Cambridge Crystallographic Data Centre
#                                CCDC 
#
#######################################################################
#
# If this CIF has been generated from an entry in the Cambridge 
# Structural Database, then it will include bibliographic, chemical, 
# crystal, experimental, refinement or atomic coordinate data resulting 
# from the CCDC's data processing and validation procedures.
#
#######################################################################

data_SUKWIE
_symmetry_cell_setting           triclinic
_symmetry_space_group_name_H-M   'P -1'
_symmetry_Int_Tables_number      2
_space_group_name_Hall           '-P 1'
loop_
_symmetry_equiv_pos_site_id
_symmetry_equiv_pos_as_xyz
1 x,y,z
2 -x,-y,-z
_cell_length_a                   8.027(2)
_cell_length_b                   8.151(3)
_cell_length_c                   16.483(6)
_cell_angle_alpha                96.78(2)
_cell_angle_beta                 92.07(2)
_cell_angle_gamma                101.89(2)
_cell_volume                     1045.9
loop_
_atom_site_label
_atom_site_type_symbol
_atom_site_fract_x
_atom_site_fract_y
_atom_site_fract_z
Mn1 Mn 0.0588(1) 0.2339(1) -0.7399(1)
N1 N 0.2848(4) 0.2350(4) -0.2299(2)
C1 C 0.2769(6) 0.0651(5) -0.2267(3)
O1 O 0.1330(4) -0.0246(4) -0.2190(2)
C2 C 0.4291(6) 0.0076(6) -0.2335(3)
C3 C 0.5799(6) 0.1182(7) -0.2394(3)
C4 C 0.5828(6) 0.2894(6) -0.2401(3)
C5 C 0.4368(6) 0.3442(6) -0.2354(3)
C6 C 0.1239(6) 0.2931(6) -0.2309(3)
N2 N 0.2311(5) 0.0760(4) -0.5178(2)
C7 C 0.2576(6) 0.1456(5) -0.5897(3)
O2 O 0.1421(4) 0.1003(4) -0.6469(2)
C8 C 0.4151(6) 0.2597(6) -0.5932(3)
C9 C 0.5312(7) 0.2993(6) -0.5292(3)
C10 C 0.4996(7) 0.2294(7) -0.4575(3)
C11 C 0.3496(7) 0.1199(7) -0.4532(3)
C12 C 0.0711(6) -0.0451(5) -0.5109(3)
N3 N 0.1320(4) -0.5398(4) -0.0938(2)
C13 C 0.0971(6) -0.3900(6) -0.1130(3)
O3 O 0.0014(4) -0.3943(4) -0.1754(2)
C14 C 0.1713(6) -0.2435(6) -0.0580(3)
C15 C 0.2722(6) -0.2531(7) 0.0077(3)
C16 C 0.3060(6) -0.4090(8) 0.0235(3)
C17 C 0.2334(6) -0.5482(7) -0.0271(3)
C18 C 0.0495(6) -0.6930(5) -0.1479(3)
N4 N 0.3069(5) 0.2106(6) -0.8545(3)
O4 O 0.1743(5) 0.1013(5) -0.8701(3)
O5 O 0.3205(4) 0.2929(4) -0.7845(2)
O6 O 0.4193(6) 0.2393(7) -0.9000(3)
N5 N -0.0292(6) 0.4614(5) -0.6239(3)
O7 O 0.1201(5) 0.4829(4) -0.6465(2)
O8 O -0.1302(4) 0.3284(4) -0.6544(2)
O9 O -0.0786(6) 0.5671(5) -0.5769(3)
H1 H 0.4277 -0.1106 -0.2340
H2 H 0.6843 0.0784 -0.2431
H3 H 0.6887 0.3674 -0.2440
H4 H 0.4390 0.4624 -0.2357
H5 H 0.1434 0.4026 -0.2492
H6 H 0.0429 0.2169 -0.2694
H7 H 0.4396 0.3099 -0.6424
H8 H 0.6367 0.3775 -0.5335
H9 H 0.5829 0.2578 -0.4120
H10 H 0.3255 0.0706 -0.4036
H11 H 0.0862 -0.1158 -0.4697
H12 H 0.0393 -0.1157 -0.5622
H13 H 0.1499 -0.1361 -0.0685
H14 H 0.3195 -0.1526 0.0446
H15 H 0.3814 -0.4148 0.0691
H16 H 0.2511 -0.6565 -0.0159
H17 H -0.0702 -0.6949 -0.1548
H18 H 0.0621 -0.7901 -0.1225
C12A C -0.0711(6) 0.0451(5) -0.4891(3)
N2A N -0.2311(5) -0.0760(4) -0.4822(2)
H11A H -0.0862 0.1158 -0.5303
H12A H -0.0393 0.1157 -0.4378
C7A C -0.2576(6) -0.1456(5) -0.4103(3)
C11A C -0.3496(7) -0.1199(7) -0.5468(3)
O2A O -0.1421(4) -0.1003(4) -0.3531(2)
C8A C -0.4151(6) -0.2597(6) -0.4068(3)
C10A C -0.4996(7) -0.2294(7) -0.5425(3)
H10A H -0.3255 -0.0706 -0.5964
Mn1A Mn -0.0588(1) -0.2339(1) -0.2601(1)
C9A C -0.5312(7) -0.2993(6) -0.4708(3)
H7A H -0.4396 -0.3099 -0.3576
H9A H -0.5829 -0.2578 -0.5880
O1A O -0.1330(4) 0.0246(4) -0.7810(2)
O3A O -0.0014(4) 0.3943(4) -0.8246(2)
O5A O -0.3205(4) -0.2929(4) -0.2155(2)
O7A O -0.1201(5) -0.4829(4) -0.3535(2)
O8A O 0.1302(4) -0.3284(4) -0.3456(2)
H8A H -0.6367 -0.3775 -0.4665
N4A N -0.3069(5) -0.2106(6) -0.1455(3)
N5A N 0.0292(6) -0.4614(5) -0.3761(3)
O4A O -0.1743(5) -0.1013(5) -0.1299(3)
O6A O -0.4193(6) -0.2393(7) -0.1000(3)
O9A O 0.0786(6) -0.5671(5) -0.4231(3)
C18_2 C 0.0495(6) 0.3070(5) -0.1479(3)
C6_2 C 0.1239(6) -0.7069(6) -0.2309(3)
N3_2 N 0.1320(4) 0.4602(4) -0.0938(2)
H17_2 H -0.0702 0.3051 -0.1548
H18_2 H 0.0621 0.2099 -0.1225
N1_2 N 0.2848(4) -0.7650(4) -0.2299(2)
H5_2 H 0.1434 -0.5974 -0.2492
H6_2 H 0.0429 -0.7831 -0.2694
C13_2 C 0.0971(6) 0.6100(6) -0.1130(3)
C17_2 C 0.2334(6) 0.4518(7) -0.0271(3)
C1_2 C 0.2769(6) -0.9349(5) -0.2267(3)
C5_2 C 0.4368(6) -0.6558(6) -0.2354(3)
O3_2 O 0.0014(4) 0.6057(4) -0.1754(2)
C14_2 C 0.1713(6) 0.7565(6) -0.0580(3)
C16_2 C 0.3060(6) 0.5910(8) 0.0235(3)
H16_2 H 0.2511 0.3435 -0.0159
O1_2 O 0.1330(4) -1.0246(4) -0.2190(2)
C2_2 C 0.4291(6) -0.9924(6) -0.2335(3)
C4_2 C 0.5828(6) -0.7106(6) -0.2401(3)
H4_2 H 0.4390 -0.5376 -0.2357
Mn1A_2 Mn -0.0588(1) 0.7661(1) -0.2601(1)
C15_2 C 0.2722(6) 0.7469(7) 0.0077(3)
H13_2 H 0.1499 0.8639 -0.0685
H15_2 H 0.3814 0.5852 0.0691
Mn1A_3 Mn -0.0588(1) -1.2339(1) -0.2601(1)
C3_2 C 0.5799(6) -0.8818(7) -0.2394(3)
H1_2 H 0.4277 -1.1106 -0.2340
H3_2 H 0.6887 -0.6326 -0.2440
H14_2 H 0.3195 0.8474 0.0446
H2_2 H 0.6843 -0.9216 -0.2431
loop_
_geom_bond_atom_site_label_1
_geom_bond_atom_site_label_2
_geom_bond_site_symmetry_1
_geom_bond_site_symmetry_2
Mn1 O2 1_555 1_555
N1 C1 1_555 1_555
C1 O1 1_555 1_555
O1 Mn1A 1_555 1_555
C2 C1 1_555 1_555
C3 C2 1_555 1_555
C4 C3 1_555 1_555
C5 N1 1_555 1_555
C6 N1 1_555 1_555
N2 C7 1_555 1_555
C7 O2 1_555 1_555
C8 C7 1_555 1_555
C9 C8 1_555 1_555
C10 C9 1_555 1_555
C11 N2 1_555 1_555
C12 N2 1_555 1_555
N3 C13 1_555 1_555
C13 O3 1_555 1_555
O3 Mn1A 1_555 1_555
C14 C13 1_555 1_555
C15 C14 1_555 1_555
C16 C15 1_555 1_555
C17 N3 1_555 1_555
C18 N3 1_555 1_555
N4 O4 1_555 1_555
O5 Mn1 1_555 1_555
O6 N4 1_555 1_555
N5 O7 1_555 1_555
O7 Mn1 1_555 1_555
O8 Mn1 1_555 1_555
O9 N5 1_555 1_555
H1 C2 1_555 1_555
H2 C3 1_555 1_555
H3 C4 1_555 1_555
H4 C5 1_555 1_555
H5 C6 1_555 1_555
H6 C6 1_555 1_555
H7 C8 1_555 1_555
H8 C9 1_555 1_555
H9 C10 1_555 1_555
H10 C11 1_555 1_555
H11 C12 1_555 1_555
H12 C12 1_555 1_555
H13 C14 1_555 1_555
H14 C15 1_555 1_555
H15 C16 1_555 1_555
H16 C17 1_555 1_555
H17 C18 1_555 1_555
H18 C18 1_555 1_555
C12A C12 1_555 1_555
N2A C12A 1_555 1_555
H11A C12A 1_555 1_555
H12A C12A 1_555 1_555
C7A N2A 1_555 1_555
C11A N2A 1_555 1_555
O2A C7A 1_555 1_555
C8A C7A 1_555 1_555
C10A C11A 1_555 1_555
H10A C11A 1_555 1_555
Mn1A O2A 1_555 1_555
C9A C8A 1_555 1_555
H7A C8A 1_555 1_555
H9A C10A 1_555 1_555
O1A Mn1 1_555 1_555
O3A Mn1 1_555 1_555
O5A Mn1A 1_555 1_555
O7A Mn1A 1_555 1_555
O8A Mn1A 1_555 1_555
H8A C9A 1_555 1_555
N4A O5A 1_555 1_555
N5A O7A 1_555 1_555
O4A N4A 1_555 1_555
O6A N4A 1_555 1_555
O9A N5A 1_555 1_555
C18_2 C6 1_555 1_555
C6_2 C18 1_555 1_555
N3_2 C18_2 1_555 1_555
H17_2 C18_2 1_555 1_555
H18_2 C18_2 1_555 1_555
N1_2 C6_2 1_555 1_555
H5_2 C6_2 1_555 1_555
H6_2 C6_2 1_555 1_555
C13_2 N3_2 1_555 1_555
C17_2 N3_2 1_555 1_555
C1_2 N1_2 1_555 1_555
C5_2 N1_2 1_555 1_555
O3_2 C13_2 1_555 1_555
C14_2 C13_2 1_555 1_555
C16_2 C17_2 1_555 1_555
H16_2 C17_2 1_555 1_555
O1_2 C1_2 1_555 1_555
C2_2 C1_2 1_555 1_555
C4_2 C5_2 1_555 1_555
H4_2 C5_2 1_555 1_555
Mn1A_2 O3_2 1_555 1_555
C15_2 C14_2 1_555 1_555
H13_2 C14_2 1_555 1_555
H15_2 C16_2 1_555 1_555
Mn1A_3 O1_2 1_555 1_555
C3_2 C2_2 1_555 1_555
H1_2 C2_2 1_555 1_555
H3_2 C4_2 1_555 1_555
H14_2 C15_2 1_555 1_555
H2_2 C3_2 1_555 1_555
C4 C5 1_555 1_555
C10 C11 1_555 1_555
C16 C17 1_555 1_555
N4 O5 1_555 1_555
N5 O8 1_555 1_555
C10A C9A 1_555 1_555
O8A N5A 1_555 1_555
C16_2 C15_2 1_555 1_555
C4_2 C3_2 1_555 1_555

#END
