
#######################################################################
#
#                 Cambridge Crystallographic Data Centre
#                                CCDC 
#
#######################################################################
#
# If this CIF has been generated from an entry in the Cambridge 
# Structural Database, then it will include bibliographic, chemical, 
# crystal, experimental, refinement or atomic coordinate data resulting 
# from the CCDC's data processing and validation procedures.
#
#######################################################################

data_SULBUX
_symmetry_cell_setting           triclinic
_symmetry_space_group_name_H-M   'P -1'
_symmetry_Int_Tables_number      2
_space_group_name_Hall           '-P 1'
loop_
_symmetry_equiv_pos_site_id
_symmetry_equiv_pos_as_xyz
1 x,y,z
2 -x,-y,-z
_cell_length_a                   10.546(2)
_cell_length_b                   11.201(2)
_cell_length_c                   18.644(4)
_cell_angle_alpha                106.69(3)
_cell_angle_beta                 91.27(3)
_cell_angle_gamma                94.43(3)
_cell_volume                     2100.99
loop_
_atom_site_label
_atom_site_type_symbol
_atom_site_fract_x
_atom_site_fract_y
_atom_site_fract_z
Sm1 Sm 0.402891(19) 0.154727(18) -0.008627(11)
Sm2 Sm 0.068771(19) 0.314315(19) 0.493532(11)
S1 S 0.30025(12) -0.05818(11) 0.24624(6)
S2 S 0.24780(12) 0.39889(10) 0.25342(6)
S3 S 0.79031(11) 0.20216(10) 0.25215(6)
N1 N 0.3215(4) 0.2734(3) -0.1021(2)
N2 N 0.1544(3) 0.1888(3) -0.0157(2)
N3 N 0.3104(4) 0.2781(4) 0.5081(2)
N4 N 0.1345(3) 0.2362(4) 0.6053(2)
C1 C 0.3402(4) -0.0326(4) 0.1023(2)
C2 C 0.2725(4) 0.0041(4) 0.1745(2)
C3 C 0.1902(5) 0.0941(4) 0.1933(3)
H1 H 0.1639 0.1382 0.1611
C4 C 0.1490(5) 0.1134(4) 0.2662(3)
H2 H 0.0926 0.1720 0.2877
C5 C 0.1998(4) 0.0379(4) 0.3023(2)
C6 C 0.1734(4) 0.0318(4) 0.3790(2)
C7 C 0.3382(4) 0.4297(4) 0.1193(2)
C8 C 0.2958(4) 0.4881(4) 0.1966(2)
C9 C 0.2889(4) 0.6130(4) 0.2318(3)
H3 H 0.3119 0.6761 0.2100
C10 C 0.2434(4) 0.6353(4) 0.3042(3)
H4 H 0.2335 0.7148 0.3356
C11 C 0.2154(4) 0.5290(4) 0.3237(2)
C12 C 0.1565(4) 0.5114(4) 0.3923(2)
C13 C 0.8399(4) 0.3889(4) 0.3862(2)
C14 C 0.7554(4) 0.3366(4) 0.3172(2)
C15 C 0.6481(5) 0.3810(4) 0.2964(2)
H5 H 0.6141 0.4526 0.3251
C16 C 0.5943(4) 0.3060(4) 0.2264(2)
H6 H 0.5202 0.3221 0.2042
C17 C 0.6629(4) 0.2076(4) 0.1952(2)
C18 C 0.6355(4) 0.1066(4) 0.1238(2)
C19 C 0.3978(5) 0.3087(5) -0.1488(3)
H7 H 0.4781 0.2791 -0.1538
C20 C 0.3662(6) 0.3874(5) -0.1913(3)
H8 H 0.4237 0.4086 -0.2237
C21 C 0.2483(6) 0.4327(5) -0.1842(3)
H9 H 0.2260 0.4877 -0.2104
C22 C 0.1620(5) 0.3954(5) -0.1371(3)
C23 C 0.0339(6) 0.4327(6) -0.1303(4)
H10 H 0.0077 0.4870 -0.1560
C24 C -0.0467(6) 0.3909(5) -0.0881(3)
H11 H -0.1286 0.4168 -0.0846
C25 C -0.0113(5) 0.3061(5) -0.0472(3)
C26 C -0.0950(5) 0.2585(5) -0.0034(3)
H12 H -0.1777 0.2824 0.0013
C27 C -0.0556(5) 0.1770(5) 0.0327(3)
H13 H -0.1105 0.1441 0.0619
C28 C 0.0699(4) 0.1440(5) 0.0244(3)
H14 H 0.0960 0.0873 0.0485
C29 C 0.1137(4) 0.2692(4) -0.0514(2)
C30 C 0.2029(4) 0.3146(4) -0.0975(3)
C31 C 0.4007(5) 0.3044(6) 0.4651(3)
H15 H 0.3804 0.3492 0.4321
C32 C 0.5229(6) 0.2689(9) 0.4665(5)
H16 H 0.5823 0.2898 0.4350
C33 C 0.5561(6) 0.2041(8) 0.5135(4)
H17 H 0.6383 0.1799 0.5149
C34 C 0.4644(5) 0.1732(6) 0.5609(3)
C35 C 0.4897(6) 0.1040(7) 0.6125(4)
H18 H 0.5692 0.0739 0.6137
C36 C 0.4023(6) 0.0810(6) 0.6591(4)
H19 H 0.4222 0.0360 0.6921
C37 C 0.2799(5) 0.1247(5) 0.6585(3)
C38 C 0.1887(6) 0.1097(5) 0.7096(3)
H20 H 0.2057 0.0662 0.7438
C39 C 0.0758(5) 0.1590(5) 0.7086(3)
H21 H 0.0151 0.1515 0.7429
C40 C 0.0517(5) 0.2217(5) 0.6553(3)
H22 H -0.0264 0.2548 0.6549
C41 C 0.2498(4) 0.1910(4) 0.6075(3)
C42 C 0.3425(4) 0.2147(5) 0.5566(3)
O1 O 0.3073(3) 0.0192(3) 0.05408(16)
O2 O 0.5522(3) 0.3478(3) 0.00941(19)
H23 H 0.508(4) 0.405(3) 0.034(2)
H24 H 0.590(4) 0.374(4) -0.024(2)
O3 O 0.4237(3) -0.1085(3) 0.09580(16)
O4 O -0.1046(4) 0.1398(3) 0.4923(2)
H25 H -0.142(4) 0.112(4) 0.525(2)
H26 H -0.054(4) 0.087(4) 0.471(3)
O5 O 0.1079(3) 0.1153(3) 0.41732(17)
O6 O 0.2131(3) -0.0540(3) 0.40059(18)
O7 O 0.3465(3) 0.3129(3) 0.10074(16)
O8 O 0.3642(4) 0.4998(3) 0.07990(18)
O9 O 0.1713(3) 0.4117(3) 0.40815(17)
O10 O 0.0944(3) 0.5984(3) 0.42895(17)
O11 O 0.9165(3) 0.3176(3) 0.39952(17)
O12 O 0.8287(3) 0.4990(3) 0.42431(18)
O13 O 0.6944(3) 0.0099(3) 0.11401(17)
O14 O 0.5560(3) 0.1217(3) 0.07671(16)
Sm1A Sm 0.597109(19) -0.154727(18) 0.008627(11)
Sm2A Sm -0.068771(19) 0.685685(19) 0.506468(11)
Sm2_2 Sm 1.068771(19) 0.314315(19) 0.493532(11)
Sm2A_2 Sm 0.931229(19) 0.685685(19) 0.506468(11)
O3A O 0.5763(3) 0.1085(3) -0.09580(16)
O10A O -0.0944(3) 0.4016(3) 0.57105(17)
O11_2 O -0.0835(3) 0.3176(3) 0.39952(17)
O12A O 0.1713(3) 0.5010(3) 0.57569(18)
O13A O 0.3056(3) -0.0099(3) -0.11401(17)
loop_
_geom_bond_atom_site_label_1
_geom_bond_atom_site_label_2
_geom_bond_site_symmetry_1
_geom_bond_site_symmetry_2
Sm1 N1 1_555 1_555
Sm2 N3 1_555 1_555
S1 C2 1_555 1_555
S2 C8 1_555 1_555
S3 C14 1_555 1_555
N1 C19 1_555 1_555
N2 Sm1 1_555 1_555
N3 C31 1_555 1_555
N4 Sm2 1_555 1_555
C1 C2 1_555 1_555
C2 C3 1_555 1_555
C3 H1 1_555 1_555
C4 C3 1_555 1_555
H2 C4 1_555 1_555
C5 S1 1_555 1_555
C6 C5 1_555 1_555
C7 C8 1_555 1_555
C8 C9 1_555 1_555
C9 H3 1_555 1_555
C10 C9 1_555 1_555
H4 C10 1_555 1_555
C11 S2 1_555 1_555
C12 C11 1_555 1_555
C13 C14 1_555 1_555
C14 C15 1_555 1_555
C15 H5 1_555 1_555
C16 C15 1_555 1_555
H6 C16 1_555 1_555
C17 S3 1_555 1_555
C18 C17 1_555 1_555
C19 H7 1_555 1_555
C20 C19 1_555 1_555
H8 C20 1_555 1_555
C21 C20 1_555 1_555
H9 C21 1_555 1_555
C22 C21 1_555 1_555
C23 C22 1_555 1_555
H10 C23 1_555 1_555
C24 C23 1_555 1_555
H11 C24 1_555 1_555
C25 C24 1_555 1_555
C26 C25 1_555 1_555
H12 C26 1_555 1_555
C27 C26 1_555 1_555
H13 C27 1_555 1_555
C28 N2 1_555 1_555
H14 C28 1_555 1_555
C29 N2 1_555 1_555
C30 N1 1_555 1_555
C31 H15 1_555 1_555
C32 C31 1_555 1_555
H16 C32 1_555 1_555
C33 C32 1_555 1_555
H17 C33 1_555 1_555
C34 C33 1_555 1_555
C35 C34 1_555 1_555
H18 C35 1_555 1_555
C36 C35 1_555 1_555
H19 C36 1_555 1_555
C37 C36 1_555 1_555
C38 C37 1_555 1_555
H20 C38 1_555 1_555
C39 C38 1_555 1_555
H21 C39 1_555 1_555
C40 N4 1_555 1_555
H22 C40 1_555 1_555
C41 N4 1_555 1_555
C42 N3 1_555 1_555
O1 Sm1 1_555 1_555
O2 Sm1 1_555 1_555
H23 O2 1_555 1_555
H24 O2 1_555 1_555
O3 C1 1_555 1_555
O4 Sm2 1_555 1_555
H25 O4 1_555 1_555
H26 O4 1_555 1_555
O5 Sm2 1_555 1_555
O6 C6 1_555 1_555
O7 Sm1 1_555 1_555
O8 C7 1_555 1_555
O9 Sm2 1_555 1_555
O10 C12 1_555 1_555
O11 C13 1_555 1_555
O12 C13 1_555 1_555
O13 C18 1_555 1_555
O14 Sm1 1_555 1_555
Sm1A O3 1_555 1_555
Sm2A O10 1_555 1_555
Sm2_2 O11 1_555 1_555
Sm2A_2 O12 1_555 1_555
O3A Sm1 1_555 1_555
O10A Sm2 1_555 1_555
O11_2 Sm2 1_555 1_555
O12A Sm2 1_555 1_555
O13A Sm1 1_555 1_555
C1 O1 1_555 1_555
C4 C5 1_555 1_555
C6 O5 1_555 1_555
C7 O7 1_555 1_555
C10 C11 1_555 1_555
C12 O9 1_555 1_555
C16 C17 1_555 1_555
C18 O14 1_555 1_555
C22 C30 1_555 1_555
C25 C29 1_555 1_555
C27 C28 1_555 1_555
C29 C30 1_555 1_555
C34 C42 1_555 1_555
C37 C41 1_555 1_555
C39 C40 1_555 1_555
C41 C42 1_555 1_555
O13 Sm1A 1_555 1_555

#END
