
#######################################################################
#
#                 Cambridge Crystallographic Data Centre
#                                CCDC 
#
#######################################################################
#
# If this CIF has been generated from an entry in the Cambridge 
# Structural Database, then it will include bibliographic, chemical, 
# crystal, experimental, refinement or atomic coordinate data resulting 
# from the CCDC's data processing and validation procedures.
#
#######################################################################

data_SULCIM
_symmetry_cell_setting           triclinic
_symmetry_space_group_name_H-M   'P -1'
_symmetry_Int_Tables_number      2
_space_group_name_Hall           '-P 1'
loop_
_symmetry_equiv_pos_site_id
_symmetry_equiv_pos_as_xyz
1 x,y,z
2 -x,-y,-z
_cell_length_a                   11.998(7)
_cell_length_b                   13.409(8)
_cell_length_c                   14.935(9)
_cell_angle_alpha                105.713(5)
_cell_angle_beta                 102.441(3)
_cell_angle_gamma                113.329(3)
_cell_volume                     1977.3
loop_
_atom_site_label
_atom_site_type_symbol
_atom_site_fract_x
_atom_site_fract_y
_atom_site_fract_z
Sm1 Sm -0.11817(4) 0.08380(4) 0.52028(4)
Sm2 Sm -0.08349(4) -0.42517(4) 0.42417(3)
Sm3 Sm -0.02640(4) 0.67185(4) 0.76198(3)
Sm4 Sm 0.26214(5) 0.56776(4) 0.93533(3)
Se1 Se -0.07501(9) 0.37021(7) 0.72791(7)
Se2 Se -0.18807(8) 0.25245(7) 0.38131(7)
O1 O -0.1006(5) -0.1057(4) 0.4887(4)
O2 O -0.1872(6) -0.3009(5) 0.4103(5)
O3 O -0.3117(6) 0.0978(5) 0.4759(5)
O4 O -0.5216(6) 0.0258(6) 0.3899(5)
O5 O -0.2399(5) -0.5364(4) 0.2506(4)
O6 O -0.4311(6) -0.6771(5) 0.1352(4)
O7 O -0.1404(5) -0.4019(5) 0.5752(4)
O8 O -0.2694(6) -0.4610(5) 0.6562(5)
O9 O -0.1249(6) 0.5682(5) 0.8645(4)
O10 O -0.2193(6) 0.5643(5) 0.9792(5)
O11 O -0.0349(6) 0.8458(5) 0.7386(5)
O12 O -0.0658(7) 1.0031(5) 0.7886(5)
O13 O 0.1615(5) 0.6835(4) 0.8914(4)
O14 O 0.1475(5) 0.8483(4) 0.9190(4)
O15 O 0.4741(6) 0.6436(5) 1.0622(4)
O16 O 0.6683(6) 0.7907(5) 1.1745(5)
O17 O -0.0343(6) 0.2879(4) 0.6460(4)
O18 O -0.0283(6) 0.4874(4) 0.6935(4)
O19 O 0.0458(6) 0.4160(5) 0.8368(4)
O20 O -0.0734(5) 0.2303(4) 0.4516(4)
O21 O -0.1079(5) 0.4027(4) 0.4498(4)
O22 O -0.1571(5) 0.2432(5) 0.2765(4)
O23 O -0.2301(6) 0.0337(5) 0.6366(5)
H1 H -0.1885 0.0273 0.6840
H2 H -0.3041 0.0196 0.6338
O24 O 0.0408(6) 0.1385(5) 0.6911(4)
H3 H 0.0074 0.0998 0.7221
H4 H 0.1143 0.1496 0.6948
O25 O -0.1531(6) 0.0105(5) 0.3372(4)
H5 H -0.1196 0.0532 0.3097
H6 H -0.2112 -0.0541 0.2946
O26 O 0.1662(6) 0.6186(5) 1.0606(5)
H7 H 0.1277 0.5604 1.0760
H8 H 0.1807 0.6879 1.0944
O27 O 0.3385(8) 0.4293(6) 0.8640(6)
H9 H 0.4204 0.4556 0.8786
H10 H 0.2840 0.3549 0.8251
N1 N -0.3260(7) -0.1110(5) 0.4208(5)
N2 N -0.3220(7) -0.5503(6) 0.3967(5)
N3 N -0.1332(6) 0.7631(5) 0.8621(5)
N4 N 0.3885(7) 0.7906(5) 1.0379(5)
C1 C -0.1984(8) -0.2084(7) 0.4349(7)
C2 C -0.3282(8) -0.2150(7) 0.3937(6)
C3 C -0.4390(8) -0.3202(7) 0.3301(7)
H11 H -0.4371 -0.3913 0.3121
C4 C -0.5521(9) -0.3168(8) 0.2940(7)
H12 H -0.6279 -0.3864 0.2506
C5 C -0.5544(9) -0.2105(8) 0.3217(7)
H13 H -0.6308 -0.2075 0.2980
C6 C -0.4387(9) -0.1085(8) 0.3861(7)
C7 C -0.4249(9) 0.0168(8) 0.4210(8)
C8 C -0.3597(9) -0.6131(7) 0.2239(7)
C9 C -0.4092(9) -0.6241(7) 0.3070(7)
C10 C -0.5360(9) -0.7063(9) 0.2874(7)
H14 H -0.5941 -0.7570 0.2224
C11 C -0.5724(11) -0.7095(10) 0.3697(8)
H15 H -0.6565 -0.7628 0.3607
C12 C -0.4822(9) -0.6326(9) 0.4646(8)
H16 H -0.5046 -0.6340 0.5203
C13 C -0.3585(9) -0.5536(8) 0.4759(7)
C14 C -0.2507(8) -0.4694(7) 0.5759(7)
C15 C -0.1748(8) 0.6107(7) 0.9255(7)
C16 C -0.1757(8) 0.7214(7) 0.9263(6)
C17 C -0.2155(9) 0.7782(7) 0.9943(7)
H17 H -0.2493 0.7448 1.0358
C18 C -0.2030(9) 0.8881(7) 0.9983(7)
H18 H -0.2255 0.9305 1.0447
C19 C -0.1574(9) 0.9324(7) 0.9332(7)
H19 H -0.1488 1.0049 0.9345
C20 C -0.1245(8) 0.8667(7) 0.8652(6)
C21 C -0.0703(9) 0.9081(7) 0.7915(7)
C22 C 0.2065(8) 0.7949(7) 0.9395(6)
C23 C 0.3386(8) 0.8602(7) 1.0232(6)
C24 C 0.4057(9) 0.9818(7) 1.0741(7)
H20 H 0.3683 1.0280 1.0615
C25 C 0.5284(9) 1.0327(8) 1.1436(8)
H21 H 0.5758 1.1142 1.1796
C26 C 0.5821(8) 0.9597(7) 1.1598(7)
H22 H 0.6655 0.9915 1.2060
C27 C 0.5065(8) 0.8399(7) 1.1049(7)
C28 C 0.5558(9) 0.7506(8) 1.1160(7)
Sm1A Sm 0.11817(4) -0.08380(4) 0.47972(4)
Sm2A Sm 0.08349(4) 0.42517(4) 0.57583(3)
Sm2_2 Sm -0.08349(4) 0.57483(4) 0.42417(3)
Sm3_2 Sm -0.02640(4) -0.32815(4) 0.76198(3)
Sm3A Sm 0.02640(4) 0.32815(4) 0.23802(3)
Sm4A Sm -0.26214(5) -0.56776(4) 0.06467(3)
Sm4A_2 Sm -0.26214(5) 0.43224(4) 1.06467(3)
O1A O 0.1006(5) 0.1057(4) 0.5113(4)
O5A O 0.2399(5) 0.5364(4) 0.7494(4)
O6A O 0.4311(6) 0.6771(5) 0.8648(4)
O7_2 O -0.1404(5) 0.5981(5) 0.5752(4)
O8_2 O -0.2694(6) 0.5390(5) 0.6562(5)
O10A O 0.2193(6) 0.4357(5) 1.0208(5)
O17A O 0.0343(6) -0.2879(4) 0.3540(4)
O18A O 0.0283(6) -0.4874(4) 0.3065(4)
O20A O 0.0734(5) -0.2303(4) 0.5484(4)
O21A O 0.1079(5) -0.4027(4) 0.5502(4)
O21_2 O -0.1079(5) -0.5973(4) 0.4498(4)
O22A O 0.1571(5) 0.7568(5) 0.7235(4)
O28 O -0.0825(8) 0.2155(6) -0.1172(6)
H23 H -0.0687 0.1563 -0.1387
H24 H -0.0180 0.2840 -0.1028
loop_
_geom_bond_atom_site_label_1
_geom_bond_atom_site_label_2
_geom_bond_site_symmetry_1
_geom_bond_site_symmetry_2
Sm1 O1 1_555 1_555
Sm2 O2 1_555 1_555
Sm3 O9 1_555 1_555
Sm4 O13 1_555 1_555
Se1 O17 1_555 1_555
Se2 O20 1_555 1_555
O1 C1 1_555 1_555
O2 C1 1_555 1_555
O3 Sm1 1_555 1_555
O4 C7 1_555 1_555
O5 Sm2 1_555 1_555
O6 C8 1_555 1_555
O7 Sm2 1_555 1_555
O8 C14 1_555 1_555
O9 C15 1_555 1_555
O10 C15 1_555 1_555
O11 Sm3 1_555 1_555
O12 C21 1_555 1_555
O13 Sm3 1_555 1_555
O14 Sm3 1_555 1_555
O15 Sm4 1_555 1_555
O16 C28 1_555 1_555
O17 Sm1 1_555 1_555
O18 Sm3 1_555 1_555
O19 Sm4 1_555 1_555
O20 Sm1 1_555 1_555
O21 Se2 1_555 1_555
O22 Se2 1_555 1_555
O23 Sm1 1_555 1_555
H1 O23 1_555 1_555
H2 O23 1_555 1_555
O24 Sm1 1_555 1_555
H3 O24 1_555 1_555
H4 O24 1_555 1_555
O25 Sm1 1_555 1_555
H5 O25 1_555 1_555
H6 O25 1_555 1_555
O26 Sm4 1_555 1_555
H7 O26 1_555 1_555
H8 O26 1_555 1_555
O27 Sm4 1_555 1_555
H9 O27 1_555 1_555
H10 O27 1_555 1_555
N1 Sm1 1_555 1_555
N2 Sm2 1_555 1_555
N3 Sm3 1_555 1_555
N4 Sm4 1_555 1_555
C1 C2 1_555 1_555
C2 N1 1_555 1_555
C3 C2 1_555 1_555
H11 C3 1_555 1_555
C4 C3 1_555 1_555
H12 C4 1_555 1_555
C5 C4 1_555 1_555
H13 C5 1_555 1_555
C6 N1 1_555 1_555
C7 O3 1_555 1_555
C8 O5 1_555 1_555
C9 N2 1_555 1_555
C10 C9 1_555 1_555
H14 C10 1_555 1_555
C11 C10 1_555 1_555
H15 C11 1_555 1_555
C12 C11 1_555 1_555
H16 C12 1_555 1_555
C13 N2 1_555 1_555
C14 O7 1_555 1_555
C15 C16 1_555 1_555
C16 N3 1_555 1_555
C17 C16 1_555 1_555
H17 C17 1_555 1_555
C18 C17 1_555 1_555
H18 C18 1_555 1_555
C19 C18 1_555 1_555
H19 C19 1_555 1_555
C20 N3 1_555 1_555
C21 O11 1_555 1_555
C22 O13 1_555 1_555
C23 N4 1_555 1_555
C24 C23 1_555 1_555
H20 C24 1_555 1_555
C25 C24 1_555 1_555
H21 C25 1_555 1_555
C26 C25 1_555 1_555
H22 C26 1_555 1_555
C27 N4 1_555 1_555
C28 O15 1_555 1_555
O28 H23 1_555 1_555
H24 O28 1_555 1_555
Sm1A O1 1_555 1_555
Sm2A O17 1_555 1_555
Sm2_2 O21 1_555 1_555
Sm3_2 O7 1_555 1_555
Sm3A O22 1_555 1_555
Sm4A O5 1_555 1_555
Sm4A_2 O10 1_555 1_555
O1A Sm1 1_555 1_555
O5A Sm4 1_555 1_555
O6A Sm4 1_555 1_555
O7_2 Sm3 1_555 1_555
O8_2 Sm3 1_555 1_555
O10A Sm4 1_555 1_555
O17A Sm2 1_555 1_555
O18A Sm2 1_555 1_555
O20A Sm2 1_555 1_555
O21A Sm2 1_555 1_555
O21_2 Sm2 1_555 1_555
O22A Sm3 1_555 1_555
Se1 O18 1_555 1_555
Se1 O19 1_555 1_555
O6 Sm4A 1_555 1_555
O8 Sm3_2 1_555 1_555
O14 C22 1_555 1_555
O18 Sm2A 1_555 1_555
O20 Sm2A 1_555 1_555
O21 Sm2A 1_555 1_555
C5 C6 1_555 1_555
C6 C7 1_555 1_555
C8 C9 1_555 1_555
C12 C13 1_555 1_555
C13 C14 1_555 1_555
C19 C20 1_555 1_555
C20 C21 1_555 1_555
C22 C23 1_555 1_555
C26 C27 1_555 1_555
C27 C28 1_555 1_555
Sm1A O1A 1_555 1_555
Sm1A O17A 1_555 1_555
Sm1A O20A 1_555 1_555
Sm2A O5A 1_555 1_555
Sm2_2 O7_2 1_555 1_555

#END
