
#######################################################################
#
#                 Cambridge Crystallographic Data Centre
#                                CCDC 
#
#######################################################################
#
# If this CIF has been generated from an entry in the Cambridge 
# Structural Database, then it will include bibliographic, chemical, 
# crystal, experimental, refinement or atomic coordinate data resulting 
# from the CCDC's data processing and validation procedures.
#
#######################################################################

data_SULCAE
_symmetry_cell_setting           triclinic
_symmetry_space_group_name_H-M   'P -1'
_symmetry_Int_Tables_number      2
_space_group_name_Hall           '-P 1'
loop_
_symmetry_equiv_pos_site_id
_symmetry_equiv_pos_as_xyz
1 x,y,z
2 -x,-y,-z
_cell_length_a                   10.5570(13)
_cell_length_b                   11.1591(14)
_cell_length_c                   18.588(2)
_cell_angle_alpha                106.945(6)
_cell_angle_beta                 91.255(6)
_cell_angle_gamma                94.359(6)
_cell_volume                     2086.43
loop_
_atom_site_label
_atom_site_type_symbol
_atom_site_fract_x
_atom_site_fract_y
_atom_site_fract_z
Eu1 Eu 0.402407(14) 0.155098(14) -0.008585(8)
Eu2 Eu 0.068756(15) 0.314485(14) 0.493386(8)
S1 S 0.30128(9) -0.05767(8) 0.24607(5)
S2 S 0.24692(9) 0.39877(8) 0.25322(5)
S3 S 0.20993(8) -0.20207(8) -0.25204(5)
N1 N 0.3208(3) 0.2725(2) -0.10238(16)
N2 N 0.1548(3) 0.1880(2) -0.01529(15)
N3 N 0.3098(3) 0.2795(3) 0.50743(17)
N4 N 0.1337(3) 0.2360(3) 0.60449(16)
C1 C 0.3417(3) -0.0319(3) 0.10220(18)
C2 C 0.2740(3) 0.0042(3) 0.17360(18)
C3 C 0.1909(4) 0.0933(3) 0.1931(2)
H1 H 0.1639 0.1386 0.1603
C4 C 0.1481(4) 0.1128(3) 0.2662(2)
H2 H 0.0892 0.1719 0.2878
C5 C 0.2000(3) 0.0383(3) 0.30241(18)
C6 C 0.1736(3) 0.0325(3) 0.37946(18)
C7 C 0.3371(3) 0.4302(3) 0.11926(18)
C8 C 0.2951(3) 0.4887(3) 0.19680(18)
C9 C 0.2905(3) 0.6125(3) 0.23217(19)
H3 H 0.3160 0.6770 0.2102
C10 C 0.2442(3) 0.6360(3) 0.30477(19)
H4 H 0.2347 0.7179 0.3371
C11 C 0.2144(3) 0.5283(3) 0.32381(18)
C12 C 0.1554(3) 0.5112(3) 0.39257(18)
C13 C 0.1594(3) -0.3885(3) -0.38618(18)
C14 C 0.2445(3) -0.3376(3) -0.31789(18)
C15 C 0.3508(3) -0.3817(3) -0.29646(19)
H5 H 0.3855 -0.4555 -0.3259
C16 C 0.4043(3) -0.3073(3) -0.22629(18)
H6 H 0.4793 -0.3248 -0.2034
C17 C 0.3376(3) -0.2082(3) -0.19499(17)
C18 C 0.3647(3) -0.1082(3) -0.12339(18)
C19 C 0.3987(4) 0.3074(3) -0.1489(2)
H7 H 0.4809 0.2773 -0.1536
C20 C 0.3660(4) 0.3865(4) -0.1915(2)
H8 H 0.4244 0.4086 -0.2247
C21 C 0.2492(4) 0.4309(4) -0.1844(2)
H9 H 0.2266 0.4871 -0.2114
C22 C 0.1618(4) 0.3944(3) -0.1376(2)
C23 C 0.0354(4) 0.4321(4) -0.1308(3)
H10 H 0.0092 0.4880 -0.1571
C24 C -0.0474(4) 0.3897(4) -0.0879(3)
H11 H -0.1312 0.4158 -0.0846
C25 C -0.0114(3) 0.3061(3) -0.0473(2)
C26 C -0.0951(4) 0.2579(4) -0.0029(2)
H12 H -0.1795 0.2824 0.0022
C27 C -0.0558(4) 0.1773(4) 0.0323(2)
H13 H -0.1119 0.1434 0.0621
C28 C 0.0702(3) 0.1437(3) 0.0244(2)
H14 H 0.0963 0.0856 0.0490
C29 C 0.1141(3) 0.2687(3) -0.0517(2)
C30 C 0.2021(3) 0.3133(3) -0.09749(19)
C31 C 0.3984(4) 0.3050(4) 0.4642(2)
H15 H 0.3767 0.3491 0.4297
C32 C 0.5227(4) 0.2708(5) 0.4663(3)
H16 H 0.5841 0.2942 0.4351
C33 C 0.5545(4) 0.2048(5) 0.5128(3)
H17 H 0.6381 0.1791 0.5138
C34 C 0.4642(4) 0.1741(4) 0.5598(2)
C35 C 0.4901(5) 0.1050(5) 0.6116(3)
H18 H 0.5718 0.0753 0.6133
C36 C 0.4024(4) 0.0812(4) 0.6576(3)
H19 H 0.4226 0.0340 0.6908
C37 C 0.2801(4) 0.1249(3) 0.6578(2)
C38 C 0.1880(4) 0.1091(3) 0.7084(2)
H20 H 0.2050 0.0639 0.7431
C39 C 0.0752(4) 0.1582(4) 0.7074(2)
H21 H 0.0130 0.1498 0.7422
C40 C 0.0517(4) 0.2212(3) 0.6550(2)
H22 H -0.0278 0.2558 0.6552
C41 C 0.2492(3) 0.1920(3) 0.6071(2)
C42 C 0.3427(3) 0.2164(3) 0.5561(2)
O1 O 0.3085(2) 0.02009(19) 0.05385(12)
O2 O 0.5510(2) 0.3474(2) 0.00937(14)
H23 H 0.503(3) 0.404(2) 0.0290(17)
H24 H 0.589(3) 0.370(3) -0.0247(14)
O3 O 0.4256(2) -0.1080(2) 0.09528(12)
O4 O -0.1041(3) 0.1405(2) 0.49201(15)
H25 H -0.138(3) 0.111(3) 0.5250(15)
H26 H -0.070(3) 0.082(2) 0.4611(16)
O5 O 0.1081(2) 0.1168(2) 0.41759(13)
O6 O 0.2138(2) -0.0536(2) 0.40070(13)
O7 O 0.3454(2) 0.3132(2) 0.10001(12)
O8 O 0.3645(2) 0.5008(2) 0.07979(13)
O9 O 0.1699(2) 0.4112(2) 0.40811(12)
O10 O 0.0937(2) 0.5986(2) 0.42943(13)
O11 O 0.0835(2) -0.3162(2) -0.39929(13)
O12 O 0.1705(2) -0.4994(2) -0.42481(13)
O13 O 0.3071(2) -0.0105(2) -0.11290(12)
O14 O 0.4445(2) -0.1240(2) -0.07615(12)
Eu1A Eu 0.597593(14) -0.155098(14) 0.008585(8)
Eu2A Eu -0.068756(15) 0.685515(14) 0.506614(8)
Eu2A_2 Eu -0.068756(15) -0.314485(14) -0.493386(8)
Eu2_2 Eu 0.068756(15) -0.685515(14) -0.506614(8)
O3A O 0.5744(2) 0.1080(2) -0.09528(12)
O10A O -0.0937(2) 0.4014(2) 0.57057(13)
O11A O -0.0835(2) 0.3162(2) 0.39929(13)
O12_2 O 0.1705(2) 0.5006(2) 0.57519(13)
O14A O 0.5555(2) 0.1240(2) 0.07615(12)
loop_
_geom_bond_atom_site_label_1
_geom_bond_atom_site_label_2
_geom_bond_site_symmetry_1
_geom_bond_site_symmetry_2
Eu1 N1 1_555 1_555
Eu2 N3 1_555 1_555
S1 C2 1_555 1_555
S2 C8 1_555 1_555
S3 C14 1_555 1_555
N1 C19 1_555 1_555
N2 Eu1 1_555 1_555
N3 C31 1_555 1_555
N4 Eu2 1_555 1_555
C1 C2 1_555 1_555
C2 C3 1_555 1_555
C3 H1 1_555 1_555
C4 C3 1_555 1_555
H2 C4 1_555 1_555
C5 S1 1_555 1_555
C6 C5 1_555 1_555
C7 C8 1_555 1_555
C8 C9 1_555 1_555
C9 H3 1_555 1_555
C10 C9 1_555 1_555
H4 C10 1_555 1_555
C11 S2 1_555 1_555
C12 C11 1_555 1_555
C13 C14 1_555 1_555
C14 C15 1_555 1_555
C15 H5 1_555 1_555
C16 C15 1_555 1_555
H6 C16 1_555 1_555
C17 S3 1_555 1_555
C18 C17 1_555 1_555
C19 H7 1_555 1_555
C20 C19 1_555 1_555
H8 C20 1_555 1_555
C21 C20 1_555 1_555
H9 C21 1_555 1_555
C22 C21 1_555 1_555
C23 C22 1_555 1_555
H10 C23 1_555 1_555
C24 C23 1_555 1_555
H11 C24 1_555 1_555
C25 C24 1_555 1_555
C26 C25 1_555 1_555
H12 C26 1_555 1_555
C27 C26 1_555 1_555
H13 C27 1_555 1_555
C28 N2 1_555 1_555
H14 C28 1_555 1_555
C29 N2 1_555 1_555
C30 N1 1_555 1_555
C31 H15 1_555 1_555
C32 C31 1_555 1_555
H16 C32 1_555 1_555
C33 C32 1_555 1_555
H17 C33 1_555 1_555
C34 C33 1_555 1_555
C35 C34 1_555 1_555
H18 C35 1_555 1_555
C36 C35 1_555 1_555
H19 C36 1_555 1_555
C37 C36 1_555 1_555
C38 C37 1_555 1_555
H20 C38 1_555 1_555
C39 C38 1_555 1_555
H21 C39 1_555 1_555
C40 N4 1_555 1_555
H22 C40 1_555 1_555
C41 N4 1_555 1_555
C42 N3 1_555 1_555
O1 Eu1 1_555 1_555
O2 Eu1 1_555 1_555
H23 O2 1_555 1_555
H24 O2 1_555 1_555
O3 C1 1_555 1_555
O4 Eu2 1_555 1_555
H25 O4 1_555 1_555
H26 O4 1_555 1_555
O5 Eu2 1_555 1_555
O6 C6 1_555 1_555
O7 Eu1 1_555 1_555
O8 C7 1_555 1_555
O9 Eu2 1_555 1_555
O10 C12 1_555 1_555
O11 C13 1_555 1_555
O12 C13 1_555 1_555
O13 Eu1 1_555 1_555
O14 C18 1_555 1_555
Eu1A O3 1_555 1_555
Eu2A O10 1_555 1_555
Eu2A_2 O11 1_555 1_555
Eu2_2 O12 1_555 1_555
O3A Eu1 1_555 1_555
O10A Eu2 1_555 1_555
O11A Eu2 1_555 1_555
O12_2 Eu2 1_555 1_555
O14A Eu1 1_555 1_555
C1 O1 1_555 1_555
C4 C5 1_555 1_555
C6 O5 1_555 1_555
C7 O7 1_555 1_555
C10 C11 1_555 1_555
C12 O9 1_555 1_555
C16 C17 1_555 1_555
C18 O13 1_555 1_555
C22 C30 1_555 1_555
C25 C29 1_555 1_555
C27 C28 1_555 1_555
C29 C30 1_555 1_555
C34 C42 1_555 1_555
C37 C41 1_555 1_555
C39 C40 1_555 1_555
C41 C42 1_555 1_555
O14 Eu1A 1_555 1_555

#END
