
#######################################################################
#
#                 Cambridge Crystallographic Data Centre
#                                CCDC 
#
#######################################################################
#
# If this CIF has been generated from an entry in the Cambridge 
# Structural Database, then it will include bibliographic, chemical, 
# crystal, experimental, refinement or atomic coordinate data resulting 
# from the CCDC's data processing and validation procedures.
#
#######################################################################

data_SULCEI
_symmetry_cell_setting           triclinic
_symmetry_space_group_name_H-M   'P -1'
_symmetry_Int_Tables_number      2
_space_group_name_Hall           '-P 1'
loop_
_symmetry_equiv_pos_site_id
_symmetry_equiv_pos_as_xyz
1 x,y,z
2 -x,-y,-z
_cell_length_a                   12.054(3)
_cell_length_b                   13.534(4)
_cell_length_c                   15.027(4)
_cell_angle_alpha                105.558(2)
_cell_angle_beta                 102.514(3)
_cell_angle_gamma                113.3920(10)
_cell_volume                     2017.59
loop_
_atom_site_label
_atom_site_type_symbol
_atom_site_fract_x
_atom_site_fract_y
_atom_site_fract_z
Pr1 Pr -0.11938(2) 0.08314(2) 0.521066(19)
Pr2 Pr -0.08404(2) -0.42561(2) 0.422460(18)
Pr3 Pr -0.02672(2) 0.67281(2) 0.761930(18)
Pr4 Pr 0.26462(3) 0.56778(2) 0.935440(18)
Se1 Se -0.07623(5) 0.37031(4) 0.72929(3)
Se2 Se -0.18973(4) 0.25238(4) 0.38164(3)
O1 O -0.1025(3) -0.1058(3) 0.4865(2)
O2 O -0.1876(4) -0.2988(3) 0.4078(3)
O3 O -0.3178(4) 0.0901(3) 0.4712(3)
O4 O -0.5267(4) 0.0162(4) 0.3827(4)
O5 O -0.2461(3) -0.5404(3) 0.2487(2)
O6 O -0.4363(4) -0.6790(3) 0.1352(3)
O7 O -0.1448(3) -0.4040(3) 0.5728(2)
O8 O -0.2756(4) -0.4636(4) 0.6517(3)
O9 O -0.1271(4) 0.5714(3) 0.8664(3)
O10 O -0.2238(4) 0.5649(3) 0.9775(3)
O11 O -0.0358(4) 0.8496(3) 0.7419(2)
O12 O -0.0718(5) 1.0016(4) 0.7899(3)
O13 O 0.1651(3) 0.6880(3) 0.8942(2)
O14 O 0.1512(3) 0.8500(3) 0.9219(2)
O15 O 0.4791(4) 0.6491(3) 1.0638(3)
O16 O 0.6702(4) 0.7953(3) 1.1763(3)
O17 O -0.0398(4) 0.2870(3) 0.6472(3)
O18 O -0.0289(3) 0.4860(3) 0.6946(2)
O19 O 0.0436(4) 0.4153(3) 0.8358(2)
O20 O -0.0767(3) 0.2302(3) 0.4506(2)
O21 O -0.1114(3) 0.3996(3) 0.4485(3)
O22 O -0.1594(3) 0.2425(3) 0.2784(2)
O23 O -0.2339(4) 0.0272(4) 0.6354(3)
H1 H -0.1925 0.0209 0.6826
H2 H -0.3077 0.0131 0.6325
O24 O 0.0405(4) 0.1404(4) 0.6955(3)
H3 H 0.0114 0.1175 0.7350
H4 H 0.1114 0.1487 0.6945
O25 O -0.1514(3) 0.0110(3) 0.3365(2)
H5 H -0.1206 0.0540 0.3089
H6 H -0.2115 -0.0526 0.2956
O26 O 0.1679(5) 0.6171(4) 1.0618(3)
H7 H 0.1314 0.5617 1.0765
H8 H 0.1818 0.6830 1.0940
O27 O 0.3431(6) 0.4288(4) 0.8632(3)
H9 H 0.4215 0.4540 0.8771
H10 H 0.3006 0.3584 0.8286
N1 N -0.3296(4) -0.1161(4) 0.4171(3)
N2 N -0.3265(4) -0.5516(3) 0.3963(3)
N3 N -0.1335(4) 0.7651(3) 0.8638(3)
N4 N 0.3915(4) 0.7930(3) 1.0389(3)
C1 C -0.1975(5) -0.2080(4) 0.4316(4)
C2 C -0.3274(5) -0.2173(4) 0.3908(3)
C3 C -0.4394(5) -0.3239(5) 0.3282(4)
H11 H -0.4375 -0.3943 0.3121
C4 C -0.5535(5) -0.3207(6) 0.2910(4)
H12 H -0.6294 -0.3893 0.2479
C5 C -0.5534(5) -0.2153(6) 0.3186(5)
H13 H -0.6294 -0.2123 0.2947
C6 C -0.4404(5) -0.1141(5) 0.3815(4)
C7 C -0.4293(5) 0.0076(5) 0.4146(4)
C8 C -0.3645(5) -0.6169(4) 0.2217(4)
C9 C -0.4134(5) -0.6262(5) 0.3058(4)
C10 C -0.5389(6) -0.7054(6) 0.2897(4)
H14 H -0.5982 -0.7561 0.2257
C11 C -0.5740(6) -0.7076(7) 0.3706(5)
H15 H -0.6577 -0.7602 0.3620
C12 C -0.4847(6) -0.6317(7) 0.4640(4)
H16 H -0.5071 -0.6321 0.5194
C13 C -0.3616(5) -0.5550(5) 0.4748(3)
C14 C -0.2545(5) -0.4686(4) 0.5736(3)
C15 C -0.1756(5) 0.6108(4) 0.9229(4)
C16 C -0.1771(5) 0.7222(4) 0.9275(4)
C17 C -0.2144(5) 0.7801(5) 0.9950(4)
H17 H -0.2468 0.7475 1.0370
C18 C -0.2030(5) 0.8862(5) 0.9995(4)
H18 H -0.2244 0.9281 1.0464
C19 C -0.1591(5) 0.9307(4) 0.9332(4)
H19 H -0.1522 1.0018 0.9339
C20 C -0.1259(5) 0.8666(4) 0.8664(3)
C21 C -0.0737(5) 0.9093(4) 0.7928(4)
C22 C 0.2103(5) 0.7970(4) 0.9416(3)
C23 C 0.3406(5) 0.8608(4) 1.0224(4)
C24 C 0.4079(5) 0.9814(5) 1.0742(4)
H20 H 0.3706 1.0272 1.0622
C25 C 0.5306(6) 1.0321(5) 1.1434(4)
H21 H 0.5774 1.1128 1.1791
C26 C 0.5835(6) 0.9621(5) 1.1594(4)
H22 H 0.6670 0.9951 1.2053
C27 C 0.5114(5) 0.8426(4) 1.1066(4)
C28 C 0.5591(5) 0.7570(5) 1.1180(4)
Pr1A Pr 0.11938(2) -0.08314(2) 0.478934(19)
Pr2A Pr 0.08404(2) 0.42561(2) 0.577540(18)
Pr2_2 Pr -0.08404(2) 0.57439(2) 0.422460(18)
Pr3_2 Pr -0.02672(2) -0.32719(2) 0.761930(18)
Pr3A Pr 0.02672(2) 0.32719(2) 0.238070(18)
Pr4A Pr -0.26462(3) -0.56778(2) 0.064560(18)
Pr4A_2 Pr -0.26462(3) 0.43222(2) 1.064560(18)
O1A O 0.1025(3) 0.1058(3) 0.5135(2)
O5A O 0.2461(3) 0.5404(3) 0.7513(2)
O6A O 0.4363(4) 0.6790(3) 0.8648(3)
O7_2 O -0.1448(3) 0.5960(3) 0.5728(2)
O8_2 O -0.2756(4) 0.5364(4) 0.6517(3)
O10A O 0.2238(4) 0.4351(3) 1.0225(3)
O17A O 0.0398(4) -0.2870(3) 0.3528(3)
O18A O 0.0289(3) -0.4860(3) 0.3054(2)
O20A O 0.0767(3) -0.2302(3) 0.5494(2)
O21A O 0.1114(3) -0.3996(3) 0.5515(3)
O21_2 O -0.1114(3) -0.6004(3) 0.4485(3)
O22A O 0.1594(3) 0.7575(3) 0.7216(2)
O28 O -0.0795(6) 0.2194(5) -0.1148(4)
H23 H -0.0658 0.1601 -0.1363
H24 H -0.0151 0.2879 -0.1004
loop_
_geom_bond_atom_site_label_1
_geom_bond_atom_site_label_2
_geom_bond_site_symmetry_1
_geom_bond_site_symmetry_2
Pr1 O1 1_555 1_555
Pr2 O2 1_555 1_555
Pr3 O9 1_555 1_555
Pr4 O13 1_555 1_555
Se1 O17 1_555 1_555
Se2 O20 1_555 1_555
O1 C1 1_555 1_555
O2 C1 1_555 1_555
O3 Pr1 1_555 1_555
O4 C7 1_555 1_555
O5 Pr2 1_555 1_555
O6 C8 1_555 1_555
O7 Pr2 1_555 1_555
O8 C14 1_555 1_555
O9 C15 1_555 1_555
O10 C15 1_555 1_555
O11 Pr3 1_555 1_555
O12 C21 1_555 1_555
O13 Pr3 1_555 1_555
O14 Pr3 1_555 1_555
O15 Pr4 1_555 1_555
O16 C28 1_555 1_555
O17 Pr1 1_555 1_555
O18 Pr3 1_555 1_555
O19 Pr4 1_555 1_555
O20 Pr1 1_555 1_555
O21 Se2 1_555 1_555
O22 Se2 1_555 1_555
O23 Pr1 1_555 1_555
H1 O23 1_555 1_555
H2 O23 1_555 1_555
O24 Pr1 1_555 1_555
H3 O24 1_555 1_555
H4 O24 1_555 1_555
O25 Pr1 1_555 1_555
H5 O25 1_555 1_555
H6 O25 1_555 1_555
O26 Pr4 1_555 1_555
H7 O26 1_555 1_555
H8 O26 1_555 1_555
O27 Pr4 1_555 1_555
H9 O27 1_555 1_555
H10 O27 1_555 1_555
N1 Pr1 1_555 1_555
N2 Pr2 1_555 1_555
N3 Pr3 1_555 1_555
N4 Pr4 1_555 1_555
C1 C2 1_555 1_555
C2 N1 1_555 1_555
C3 C2 1_555 1_555
H11 C3 1_555 1_555
C4 C3 1_555 1_555
H12 C4 1_555 1_555
C5 C4 1_555 1_555
H13 C5 1_555 1_555
C6 N1 1_555 1_555
C7 O3 1_555 1_555
C8 O5 1_555 1_555
C9 N2 1_555 1_555
C10 C9 1_555 1_555
H14 C10 1_555 1_555
C11 C10 1_555 1_555
H15 C11 1_555 1_555
C12 C11 1_555 1_555
H16 C12 1_555 1_555
C13 N2 1_555 1_555
C14 O7 1_555 1_555
C15 C16 1_555 1_555
C16 N3 1_555 1_555
C17 C16 1_555 1_555
H17 C17 1_555 1_555
C18 C17 1_555 1_555
H18 C18 1_555 1_555
C19 C18 1_555 1_555
H19 C19 1_555 1_555
C20 N3 1_555 1_555
C21 O11 1_555 1_555
C22 O13 1_555 1_555
C23 N4 1_555 1_555
C24 C23 1_555 1_555
H20 C24 1_555 1_555
C25 C24 1_555 1_555
H21 C25 1_555 1_555
C26 C25 1_555 1_555
H22 C26 1_555 1_555
C27 N4 1_555 1_555
C28 O15 1_555 1_555
O28 H23 1_555 1_555
H24 O28 1_555 1_555
Pr1A O1 1_555 1_555
Pr2A O17 1_555 1_555
Pr2_2 O21 1_555 1_555
Pr3_2 O7 1_555 1_555
Pr3A O22 1_555 1_555
Pr4A O5 1_555 1_555
Pr4A_2 O10 1_555 1_555
O1A Pr1 1_555 1_555
O5A Pr4 1_555 1_555
O6A Pr4 1_555 1_555
O7_2 Pr3 1_555 1_555
O8_2 Pr3 1_555 1_555
O10A Pr4 1_555 1_555
O17A Pr2 1_555 1_555
O18A Pr2 1_555 1_555
O20A Pr2 1_555 1_555
O21A Pr2 1_555 1_555
O21_2 Pr2 1_555 1_555
O22A Pr3 1_555 1_555
Se1 O18 1_555 1_555
Se1 O19 1_555 1_555
O6 Pr4A 1_555 1_555
O8 Pr3_2 1_555 1_555
O14 C22 1_555 1_555
O18 Pr2A 1_555 1_555
O20 Pr2A 1_555 1_555
O21 Pr2A 1_555 1_555
C5 C6 1_555 1_555
C6 C7 1_555 1_555
C8 C9 1_555 1_555
C12 C13 1_555 1_555
C13 C14 1_555 1_555
C19 C20 1_555 1_555
C20 C21 1_555 1_555
C22 C23 1_555 1_555
C26 C27 1_555 1_555
C27 C28 1_555 1_555
Pr1A O1A 1_555 1_555
Pr1A O17A 1_555 1_555
Pr1A O20A 1_555 1_555
Pr2A O5A 1_555 1_555
Pr2_2 O7_2 1_555 1_555

#END
