
#######################################################################
#
#                 Cambridge Crystallographic Data Centre
#                                CCDC 
#
#######################################################################
#
# If this CIF has been generated from an entry in the Cambridge 
# Structural Database, then it will include bibliographic, chemical, 
# crystal, experimental, refinement or atomic coordinate data resulting 
# from the CCDC's data processing and validation procedures.
#
#######################################################################

data_SULGEM
_symmetry_cell_setting           monoclinic
_symmetry_space_group_name_H-M   'P 21/n'
_symmetry_Int_Tables_number      14
_space_group_name_Hall           '-P 2yn'
loop_
_symmetry_equiv_pos_site_id
_symmetry_equiv_pos_as_xyz
1 x,y,z
2 1/2-x,1/2+y,1/2-z
3 -x,-y,-z
4 1/2+x,1/2-y,1/2+z
_cell_length_a                   11.396(4)
_cell_length_b                   15.151(5)
_cell_length_c                   17.673(6)
_cell_angle_alpha                90
_cell_angle_beta                 90.528(6)
_cell_angle_gamma                90
_cell_volume                     3051.3
loop_
_atom_site_label
_atom_site_type_symbol
_atom_site_fract_x
_atom_site_fract_y
_atom_site_fract_z
Co1 Co 0.08664(4) 0.54874(3) 0.33648(2)
Cl1 Cl -0.10126(8) 0.54317(6) 0.37361(5)
Cl2 Cl 0.11295(9) 0.58489(6) 0.21485(4)
N1 N 0.1591(2) 0.63974(16) 0.40877(13)
N2 N 0.3599(2) 0.92210(16) 0.14184(13)
O1 O 0.21336(19) 0.76655(13) 0.45956(11)
O2 O 0.34587(19) 0.77751(13) 0.15558(11)
C1 C 0.2428(3) 0.75752(19) 0.32397(16)
H1 H 0.2122 0.7233 0.2811
C2 C 0.3790(3) 0.7725(2) 0.31460(17)
H2 H 0.4137 0.7290 0.2803
C3 C 0.3501(3) 0.8604(2) 0.27331(15)
H3 H 0.3968 0.9097 0.2933
C4 C 0.2237(3) 0.85722(19) 0.30923(16)
H4 H 0.2265 0.8881 0.3579
C5 C 0.2010(3) 0.7190(2) 0.39549(16)
C6 C 0.1448(3) 0.6360(2) 0.48732(16)
H5 H 0.1164 0.5876 0.5139
C7 C 0.1782(3) 0.7129(2) 0.51841(16)
C8 C 0.1894(3) 0.7470(2) 0.59475(16)
C9 C 0.2456(3) 0.8259(2) 0.61060(19)
H6 H 0.2727 0.8607 0.5711
C10 C 0.2620(4) 0.8539(3) 0.6846(2)
H7 H 0.2999 0.9071 0.6944
C11 C 0.2224(4) 0.8033(3) 0.7435(2)
H8 H 0.2341 0.8220 0.7931
C12 C 0.1653(3) 0.7247(3) 0.72911(19)
H9 H 0.1377 0.6906 0.7690
C13 C 0.1491(3) 0.6966(2) 0.65550(18)
H10 H 0.1108 0.6435 0.6461
C14 C 0.4481(3) 0.7800(2) 0.38780(18)
C15 C 0.4850(4) 0.7030(3) 0.4224(2)
H11 H 0.4728 0.6491 0.3984
C16 C 0.5402(4) 0.7054(4) 0.4929(3)
H12 H 0.5643 0.6530 0.5156
C17 C 0.5592(4) 0.7837(4) 0.5290(3)
H13 H 0.5948 0.7847 0.5765
C18 C 0.5261(4) 0.8598(4) 0.4951(2)
H14 H 0.5402 0.9134 0.5192
C19 C 0.4710(4) 0.8586(3) 0.4243(2)
H15 H 0.4493 0.9116 0.4015
C20 C 0.3525(3) 0.85691(19) 0.19001(16)
C21 C 0.3602(3) 0.8816(2) 0.07026(16)
H16 H 0.3642 0.9114 0.0243
C22 C 0.3536(3) 0.7938(2) 0.07815(16)
C23 C 0.3574(3) 0.7176(2) 0.02809(17)
C24 C 0.3519(4) 0.6325(2) 0.0566(2)
H17 H 0.3450 0.6238 0.1085
C25 C 0.3565(5) 0.5608(3) 0.0091(3)
H18 H 0.3530 0.5040 0.0290
C26 C 0.3663(5) 0.5725(3) -0.0672(3)
H19 H 0.3691 0.5239 -0.0993
C27 C 0.3720(4) 0.6565(3) -0.0963(2)
H20 H 0.3793 0.6646 -0.1482
C28 C 0.3669(4) 0.7292(2) -0.04900(19)
H21 H 0.3700 0.7858 -0.0692
C29 C 0.1194(3) 0.8899(2) 0.26543(17)
C30 C 0.0511(3) 0.8361(2) 0.2194(2)
H22 H 0.0707 0.7769 0.2139
C31 C -0.0460(4) 0.8695(3) 0.1817(2)
H23 H -0.0909 0.8323 0.1512
C32 C -0.0772(4) 0.9566(3) 0.1886(3)
H24 H -0.1432 0.9785 0.1636
C33 C -0.0092(4) 1.0104(3) 0.2330(3)
H25 H -0.0284 1.0699 0.2374
C34 C 0.0874(4) 0.9777(2) 0.2711(2)
H26 H 0.1320 1.0155 0.3013
Co1A Co 0.41336(4) 1.04874(3) 0.16352(2)
N2A N 0.1401(2) 0.42210(16) 0.35816(13)
loop_
_geom_bond_atom_site_label_1
_geom_bond_atom_site_label_2
_geom_bond_site_symmetry_1
_geom_bond_site_symmetry_2
Co1 Cl1 1_555 1_555
Cl2 Co1 1_555 1_555
N1 Co1 1_555 1_555
N2 C20 1_555 1_555
O1 C5 1_555 1_555
O2 C20 1_555 1_555
C1 H1 1_555 1_555
C2 C1 1_555 1_555
H2 C2 1_555 1_555
C3 C2 1_555 1_555
H3 C3 1_555 1_555
C4 C1 1_555 1_555
H4 C4 1_555 1_555
C5 N1 1_555 1_555
C6 N1 1_555 1_555
H5 C6 1_555 1_555
C7 O1 1_555 1_555
C8 C7 1_555 1_555
C9 C8 1_555 1_555
H6 C9 1_555 1_555
C10 C9 1_555 1_555
H7 C10 1_555 1_555
C11 C10 1_555 1_555
H8 C11 1_555 1_555
C12 C11 1_555 1_555
H9 C12 1_555 1_555
C13 C8 1_555 1_555
H10 C13 1_555 1_555
C14 C2 1_555 1_555
C15 C14 1_555 1_555
H11 C15 1_555 1_555
C16 C15 1_555 1_555
H12 C16 1_555 1_555
C17 C16 1_555 1_555
H13 C17 1_555 1_555
C18 C17 1_555 1_555
H14 C18 1_555 1_555
C19 C14 1_555 1_555
H15 C19 1_555 1_555
C20 C3 1_555 1_555
C21 N2 1_555 1_555
H16 C21 1_555 1_555
C22 O2 1_555 1_555
C23 C22 1_555 1_555
C24 C23 1_555 1_555
H17 C24 1_555 1_555
C25 C24 1_555 1_555
H18 C25 1_555 1_555
C26 C25 1_555 1_555
H19 C26 1_555 1_555
C27 C26 1_555 1_555
H20 C27 1_555 1_555
C28 C23 1_555 1_555
H21 C28 1_555 1_555
C29 C4 1_555 1_555
C30 C29 1_555 1_555
H22 C30 1_555 1_555
C31 C30 1_555 1_555
H23 C31 1_555 1_555
C32 C31 1_555 1_555
H24 C32 1_555 1_555
C33 C32 1_555 1_555
H25 C33 1_555 1_555
C34 C29 1_555 1_555
H26 C34 1_555 1_555
Co1A N2 1_555 1_555
N2A Co1 1_555 1_555
C1 C5 1_555 1_555
C3 C4 1_555 1_555
C6 C7 1_555 1_555
C12 C13 1_555 1_555
C18 C19 1_555 1_555
C21 C22 1_555 1_555
C27 C28 1_555 1_555
C33 C34 1_555 1_555

#END
