
#######################################################################
#
#                 Cambridge Crystallographic Data Centre
#                                CCDC 
#
#######################################################################
#
# If this CIF has been generated from an entry in the Cambridge 
# Structural Database, then it will include bibliographic, chemical, 
# crystal, experimental, refinement or atomic coordinate data resulting 
# from the CCDC's data processing and validation procedures.
#
#######################################################################

data_SULGAI
_symmetry_cell_setting           monoclinic
_symmetry_space_group_name_H-M   'P 21/n'
_symmetry_Int_Tables_number      14
_space_group_name_Hall           '-P 2yn'
loop_
_symmetry_equiv_pos_site_id
_symmetry_equiv_pos_as_xyz
1 x,y,z
2 1/2-x,1/2+y,1/2-z
3 -x,-y,-z
4 1/2+x,1/2-y,1/2+z
_cell_length_a                   11.243(5)
_cell_length_b                   16.070(8)
_cell_length_c                   19.872(9)
_cell_angle_alpha                90
_cell_angle_beta                 95.678(10)
_cell_angle_gamma                90
_cell_volume                     3572.76
loop_
_atom_site_label
_atom_site_type_symbol
_atom_site_fract_x
_atom_site_fract_y
_atom_site_fract_z
Cu1 Cu 0.16535(7) 1.04047(4) 0.13513(3)
Cl1 Cl 0.18905(16) 1.00937(9) 0.02716(7)
Cl2 Cl 0.26029(19) 1.07107(10) 0.23580(8)
O1 O 0.4462(3) 0.7871(2) 0.40514(17)
O2 O 0.0861(3) 0.7933(2) 0.18591(17)
N1 N 0.4022(4) 0.6542(3) 0.3891(2)
N2 N 0.1091(4) 0.9237(2) 0.1543(2)
C1 C 0.7140(6) 0.7422(5) 0.5239(3)
H1 H 0.7193 0.6850 0.5178
C2 C 0.7999(7) 0.7829(6) 0.5659(4)
H2 H 0.8632 0.7533 0.5880
C3 C 0.7915(9) 0.8665(7) 0.5747(4)
H3 H 0.8503 0.8934 0.6030
C4 C 0.6974(9) 0.9135(6) 0.5428(4)
H4 H 0.6930 0.9705 0.5500
C5 C 0.6099(7) 0.8727(4) 0.4997(3)
H5 H 0.5468 0.9025 0.4775
C6 C 0.6182(5) 0.7869(4) 0.4903(3)
C7 C 0.5277(5) 0.7417(3) 0.4475(3)
C8 C 0.4998(5) 0.6607(3) 0.4379(3)
H6 H 0.5393 0.6163 0.4603
C9 C 0.3731(5) 0.7309(3) 0.3714(3)
C10 C 0.0092(5) 0.8895(3) 0.1163(3)
H7 H -0.0395 0.9173 0.0830
C11 C -0.0051(5) 0.8108(3) 0.1355(3)
C12 C -0.0870(5) 0.7429(4) 0.1126(3)
C13 C -0.1857(6) 0.7596(5) 0.0674(3)
H8 H -0.2008 0.8139 0.0529
C14 C -0.2620(8) 0.6967(6) 0.0437(4)
H9 H -0.3280 0.7089 0.0133
C15 C -0.2411(9) 0.6169(6) 0.0645(5)
H10 H -0.2923 0.5747 0.0478
C16 C -0.1446(9) 0.5983(5) 0.1102(5)
H11 H -0.1312 0.5437 0.1247
C17 C -0.0665(6) 0.6621(4) 0.1347(4)
H12 H -0.0013 0.6500 0.1657
C18 C 0.1523(5) 0.8642(3) 0.1947(3)
C19 C 0.2588(5) 0.8645(3) 0.2438(2)
H13 H 0.3092 0.9132 0.2379
C20 C 0.3330(5) 0.7819(3) 0.2466(2)
H14 H 0.3011 0.7429 0.2115
C21 C 0.4664(5) 0.7924(4) 0.2461(3)
C22 C 0.5256(6) 0.8648(5) 0.2657(4)
H15 H 0.4825 0.9098 0.2799
C23 C 0.6504(7) 0.8718(6) 0.2647(4)
H16 H 0.6895 0.9210 0.2777
C24 C 0.7126(8) 0.8054(8) 0.2442(5)
H17 H 0.7952 0.8091 0.2446
C25 C 0.6569(8) 0.7349(7) 0.2236(5)
H18 H 0.6999 0.6913 0.2071
C26 C 0.5320(6) 0.7270(5) 0.2269(4)
H19 H 0.4945 0.6766 0.2157
C27 C 0.2846(5) 0.7615(3) 0.3167(2)
H20 H 0.2178 0.7222 0.3099
C28 C 0.2358(5) 0.8520(3) 0.3206(3)
H21 H 0.2943 0.8853 0.3488
C29 C 0.1136(5) 0.8669(3) 0.3437(3)
C30 C 0.0577(7) 0.9432(4) 0.3328(4)
H22 H 0.0948 0.9843 0.3094
C31 C -0.0523(8) 0.9598(6) 0.3560(5)
H23 H -0.0894 1.0107 0.3463
C32 C -0.1054(8) 0.9029(7) 0.3920(5)
H24 H -0.1764 0.9158 0.4100
C33 C -0.0554(8) 0.8259(7) 0.4025(4)
H25 H -0.0948 0.7856 0.4255
C34 C 0.0562(6) 0.8072(5) 0.3785(4)
H26 H 0.0905 0.7550 0.3861
Cu1A Cu 0.33465(7) 0.54047(4) 0.36487(3)
N1A N 0.0978(4) 1.1542(3) 0.1109(2)
C35 C 0.7768(19) 0.6061(15) 0.3527(11)
H27 H 0.8007 0.5905 0.3992
H28 H 0.7451 0.6622 0.3532
Cl3 Cl 0.6675(6) 0.5435(3) 0.3232(3)
Cl4 Cl 0.9029(6) 0.6082(5) 0.3103(4)
N3 N 0.5003(18) 0.1369(12) 1.0226(11)
C36 C 0.4901(16) 0.1097(11) 0.9710(13)
C37 C 0.473(2) 0.0661(13) 0.9128(10)
H29 H 0.4942 0.1002 0.8761
H30 H 0.3912 0.0497 0.9049
H31 H 0.5232 0.0175 0.9162
loop_
_geom_bond_atom_site_label_1
_geom_bond_atom_site_label_2
_geom_bond_site_symmetry_1
_geom_bond_site_symmetry_2
Cu1 Cl1 1_555 1_555
Cl2 Cu1 1_555 1_555
O1 C7 1_555 1_555
O2 C11 1_555 1_555
N1 C8 1_555 1_555
N2 Cu1 1_555 1_555
C1 H1 1_555 1_555
C2 C1 1_555 1_555
H2 C2 1_555 1_555
C3 C2 1_555 1_555
H3 C3 1_555 1_555
C4 C3 1_555 1_555
H4 C4 1_555 1_555
C5 C4 1_555 1_555
H5 C5 1_555 1_555
C6 C1 1_555 1_555
C7 C6 1_555 1_555
C8 C7 1_555 1_555
H6 C8 1_555 1_555
C9 O1 1_555 1_555
C10 N2 1_555 1_555
H7 C10 1_555 1_555
C11 C10 1_555 1_555
C12 C11 1_555 1_555
C13 C12 1_555 1_555
H8 C13 1_555 1_555
C14 C13 1_555 1_555
H9 C14 1_555 1_555
C15 C14 1_555 1_555
H10 C15 1_555 1_555
C16 C15 1_555 1_555
H11 C16 1_555 1_555
C17 C12 1_555 1_555
H12 C17 1_555 1_555
C18 O2 1_555 1_555
C19 C18 1_555 1_555
H13 C19 1_555 1_555
C20 C19 1_555 1_555
H14 C20 1_555 1_555
C21 C20 1_555 1_555
C22 C21 1_555 1_555
H15 C22 1_555 1_555
C23 C22 1_555 1_555
H16 C23 1_555 1_555
C24 C23 1_555 1_555
H17 C24 1_555 1_555
C25 C24 1_555 1_555
H18 C25 1_555 1_555
C26 C21 1_555 1_555
H19 C26 1_555 1_555
C27 C9 1_555 1_555
H20 C27 1_555 1_555
C28 C19 1_555 1_555
H21 C28 1_555 1_555
C29 C28 1_555 1_555
C30 C29 1_555 1_555
H22 C30 1_555 1_555
C31 C30 1_555 1_555
H23 C31 1_555 1_555
C32 C31 1_555 1_555
H24 C32 1_555 1_555
C33 C32 1_555 1_555
H25 C33 1_555 1_555
C34 C29 1_555 1_555
H26 C34 1_555 1_555
C35 H27 1_555 1_555
H28 C35 1_555 1_555
Cl3 C35 1_555 1_555
Cl4 C35 1_555 1_555
N3 C36 1_555 1_555
C36 C37 1_555 1_555
C37 H29 1_555 1_555
H30 C37 1_555 1_555
H31 C37 1_555 1_555
Cu1A N1 1_555 1_555
N1A Cu1 1_555 1_555
N1 C9 1_555 1_555
N2 C18 1_555 1_555
C5 C6 1_555 1_555
C16 C17 1_555 1_555
C20 C27 1_555 1_555
C25 C26 1_555 1_555
C27 C28 1_555 1_555
C33 C34 1_555 1_555

#END
