
#######################################################################
#
#                 Cambridge Crystallographic Data Centre
#                                CCDC 
#
#######################################################################
#
# If this CIF has been generated from an entry in the Cambridge 
# Structural Database, then it will include bibliographic, chemical, 
# crystal, experimental, refinement or atomic coordinate data resulting 
# from the CCDC's data processing and validation procedures.
#
#######################################################################

data_SULHUC
_symmetry_cell_setting           triclinic
_symmetry_space_group_name_H-M   'P -1'
_symmetry_Int_Tables_number      2
_space_group_name_Hall           '-P 1'
loop_
_symmetry_equiv_pos_site_id
_symmetry_equiv_pos_as_xyz
1 x,y,z
2 -x,-y,-z
_cell_length_a                   8.728(21)
_cell_length_b                   15.988(27)
_cell_length_c                   9.052(11)
_cell_angle_alpha                81.07(9)
_cell_angle_beta                 72.65(11)
_cell_angle_gamma                79.25(13)
_cell_volume                     1177.81
loop_
_atom_site_label
_atom_site_type_symbol
_atom_site_fract_x
_atom_site_fract_y
_atom_site_fract_z
Cu1 Cu 1.0000 0.0000 0.0000
Cu2 Cu 1.0000 0.5000 0.0000
O1 O 0.7814(56) 0.0449(22) 0.1295(34)
O2 O 1.0676(66) -0.0649(22) 0.1849(30)
O3 O 0.8749(71) 0.4308(24) 0.1834(32)
O4 O 1.1669(55) 0.4721(24) 0.0954(32)
O5 O 1.0889(55) 0.1185(21) 0.0657(29)
O6 O 1.0704(57) 0.3860(20) -0.1887(29)
C1 C 0.7543(58) 0.0402(21) 0.2709(30)
C2 C 0.5926(55) 0.0861(21) 0.3433(33)
C3 C 0.8111(65) -0.0108(23) 0.3651(27)
C4 C 0.9656(59) -0.0668(23) 0.3115(31)
C5 C 1.0356(60) -0.1412(24) 0.4272(28)
C6 C 0.8834(71) 0.4209(23) 0.2982(29)
C7 C 0.7688(54) 0.3737(23) 0.4276(28)
C8 C 1.0372(63) 0.4235(23) 0.3367(27)
C9 C 1.1635(63) 0.4474(21) 0.2350(31)
C10 C 1.3413(64) 0.4437(20) 0.2725(32)
C11 C 1.0336(62) 0.2531(23) -0.0565(28)
C12 C 0.8601(61) 0.2692(18) -0.0221(25)
C13 C 1.3118(56) 0.2755(24) -0.1727(27)
C14 C 1.4154(51) 0.3484(22) -0.1764(26)
C15 C 1.3363(51) 0.2505(18) -0.3452(27)
C16 C 1.3212(63) 0.2019(24) -0.0531(30)
C17 C 1.3163(51) 0.2298(20) 0.0988(28)
C18 C 1.4184(53) 0.1256(24) -0.0964(29)
N1 N 1.1535(46) 0.1841(16) -0.0148(19)
N2 N 1.1340(45) 0.3146(16) -0.1322(20)
F1 F 0.4617(57) 0.0702(26) 0.2989(37)
F2 F 0.5923(63) 0.1744(27) 0.3037(36)
F3 F 0.5435(68) 0.0792(25) 0.4899(43)
F4 F 1.1965(68) -0.1339(25) 0.4035(36)
F5 F 0.9720(68) -0.1282(26) 0.5745(38)
F6 F 1.0259(68) -0.2175(29) 0.4124(39)
F7 F 0.7556(63) 0.2950(24) 0.3824(37)
F8 F 0.6180(59) 0.4230(25) 0.4262(36)
F9 F 0.7830(65) 0.3714(25) 0.5669(38)
F10 F 1.2895(69) 0.4478(27) 0.4232(41)
F11 F 1.3962(64) 0.5121(25) 0.1962(34)
F12 F 1.4304(66) 0.3637(25) 0.2361(34)
H1 H 0.7556(92) -0.0274(43) 0.4894(46)
H2 H 1.033(10) 0.4083(42) 0.4570(45)
H3 H 0.832(11) 0.2069(31) 0.0164(61)
H4 H 0.828(11) 0.3073(37) -0.1203(53)
H5 H 0.835(11) 0.3005(38) 0.0759(48)
H6 H 1.5402(66) 0.3249(42) -0.1875(64)
H7 H 1.384(10) 0.3746(41) -0.0680(52)
H8 H 1.394(10) 0.3972(33) -0.2674(52)
H9 H 1.4592(75) 0.2247(46) -0.3924(62)
H10 H 1.324(11) 0.3033(34) -0.4253(58)
H11 H 1.290(11) 0.1954(34) -0.3467(61)
H12 H 1.4449(69) 0.2360(47) 0.0665(63)
H13 H 1.285(11) 0.1863(35) 0.2005(54)
H14 H 1.258(11) 0.2923(30) 0.1152(64)
H15 H 1.5284(73) 0.1406(48) -0.0989(66)
H16 H 1.439(12) 0.0998(41) -0.1956(52)
H17 H 1.409(12) 0.0746(34) -0.0093(53)
O1A O 1.2186(56) -0.0449(22) -0.1295(34)
O2A O 0.9324(66) 0.0649(22) -0.1849(30)
C1A C 1.2457(58) -0.0402(21) -0.2709(30)
C2A C 1.4074(55) -0.0861(21) -0.3433(33)
C3A C 1.1889(65) 0.0108(23) -0.3651(27)
C4A C 1.0344(59) 0.0668(23) -0.3115(31)
C5A C 0.9644(60) 0.1412(24) -0.4272(28)
F1A F 1.5383(57) -0.0702(26) -0.2989(37)
F2A F 1.4077(63) -0.1744(27) -0.3037(36)
F3A F 1.4565(68) -0.0792(25) -0.4899(43)
F4A F 0.8035(68) 0.1339(25) -0.4035(36)
F5A F 1.0280(68) 0.1282(26) -0.5745(38)
F6A F 0.9741(68) 0.2175(29) -0.4124(39)
H1A H 1.2444(92) 0.0274(43) -0.4894(46)
O5A O 0.9111(55) -0.1185(21) -0.0657(29)
O6A O 0.9296(57) -0.3860(20) 0.1887(29)
C11A C 0.9664(62) -0.2531(23) 0.0565(28)
C12A C 1.1399(61) -0.2692(18) 0.0221(25)
C13A C 0.6882(56) -0.2755(24) 0.1727(27)
C14A C 0.5846(51) -0.3484(22) 0.1764(26)
C15A C 0.6637(51) -0.2505(18) 0.3452(27)
C16A C 0.6788(63) -0.2019(24) 0.0531(30)
C17A C 0.6837(51) -0.2298(20) -0.0988(28)
C18A C 0.5816(53) -0.1256(24) 0.0964(29)
N1A N 0.8465(46) -0.1841(16) 0.0148(19)
N2A N 0.8660(45) -0.3146(16) 0.1322(20)
H3A H 1.168(11) -0.2069(31) -0.0164(61)
H4A H 1.172(11) -0.3073(37) 0.1203(53)
H5A H 1.165(11) -0.3005(38) -0.0759(48)
H6A H 0.4598(66) -0.3249(42) 0.1875(64)
H7A H 0.616(10) -0.3746(41) 0.0680(52)
H8A H 0.606(10) -0.3972(33) 0.2674(52)
H9A H 0.5408(75) -0.2247(46) 0.3924(62)
H10A H 0.676(11) -0.3033(34) 0.4253(58)
H11A H 0.710(11) -0.1954(34) 0.3467(61)
H12A H 0.5551(69) -0.2360(47) -0.0665(63)
H13A H 0.715(11) -0.1863(35) -0.2005(54)
H14A H 0.742(11) -0.2923(30) -0.1152(64)
H15A H 0.4716(73) -0.1406(48) 0.0989(66)
H16A H 0.561(12) -0.0998(41) 0.1956(52)
H17A H 0.591(12) -0.0746(34) 0.0093(53)
O3A O 1.1251(71) 0.5692(24) -0.1834(32)
O4A O 0.8331(55) 0.5279(24) -0.0954(32)
C6A C 1.1166(71) 0.5791(23) -0.2982(29)
C7A C 1.2312(54) 0.6263(23) -0.4276(28)
C8A C 0.9628(63) 0.5765(23) -0.3367(27)
C9A C 0.8365(63) 0.5526(21) -0.2350(31)
C10A C 0.6587(64) 0.5563(20) -0.2725(32)
F7A F 1.2444(63) 0.7050(24) -0.3824(37)
F8A F 1.3820(59) 0.5770(25) -0.4262(36)
F9A F 1.2170(65) 0.6286(25) -0.5669(38)
F10A F 0.7105(69) 0.5522(27) -0.4232(41)
F11A F 0.6038(64) 0.4879(25) -0.1962(34)
F12A F 0.5696(66) 0.6363(25) -0.2361(34)
H2A H 0.967(10) 0.5917(42) -0.4570(45)
O6A_2 O 0.9296(57) 0.6140(20) 0.1887(29)
Cu2_2 Cu 1.0000 -0.5000 0.0000
loop_
_geom_bond_atom_site_label_1
_geom_bond_atom_site_label_2
_geom_bond_site_symmetry_1
_geom_bond_site_symmetry_2
Cu1 O1 1_555 1_555
Cu2 O3 1_555 1_555
O1 C1 1_555 1_555
O2 Cu1 1_555 1_555
O3 C6 1_555 1_555
O4 Cu2 1_555 1_555
O5 Cu1 1_555 1_555
O6 Cu2 1_555 1_555
C1 C2 1_555 1_555
C2 F1 1_555 1_555
C3 C1 1_555 1_555
C4 O2 1_555 1_555
C5 C4 1_555 1_555
C6 C7 1_555 1_555
C7 F7 1_555 1_555
C8 C6 1_555 1_555
C9 O4 1_555 1_555
C10 C9 1_555 1_555
C11 C12 1_555 1_555
C12 H3 1_555 1_555
C13 C14 1_555 1_555
C14 H6 1_555 1_555
C15 C13 1_555 1_555
C16 C13 1_555 1_555
C17 C16 1_555 1_555
C18 C16 1_555 1_555
N1 O5 1_555 1_555
N2 O6 1_555 1_555
F2 C2 1_555 1_555
F3 C2 1_555 1_555
F4 C5 1_555 1_555
F5 C5 1_555 1_555
F6 C5 1_555 1_555
F8 C7 1_555 1_555
F9 C7 1_555 1_555
F10 C10 1_555 1_555
F11 C10 1_555 1_555
F12 C10 1_555 1_555
H1 C3 1_555 1_555
H2 C8 1_555 1_555
H4 C12 1_555 1_555
H5 C12 1_555 1_555
H7 C14 1_555 1_555
H8 C14 1_555 1_555
H9 C15 1_555 1_555
H10 C15 1_555 1_555
H11 C15 1_555 1_555
H12 C17 1_555 1_555
H13 C17 1_555 1_555
H14 C17 1_555 1_555
H15 C18 1_555 1_555
H16 C18 1_555 1_555
H17 C18 1_555 1_555
O1A Cu1 1_555 1_555
O2A Cu1 1_555 1_555
C1A O1A 1_555 1_555
C2A C1A 1_555 1_555
C3A C1A 1_555 1_555
C4A O2A 1_555 1_555
C5A C4A 1_555 1_555
F1A C2A 1_555 1_555
F2A C2A 1_555 1_555
F3A C2A 1_555 1_555
F4A C5A 1_555 1_555
F5A C5A 1_555 1_555
F6A C5A 1_555 1_555
H1A C3A 1_555 1_555
O5A Cu1 1_555 1_555
O6A N2A 1_555 1_555
C11A C12A 1_555 1_555
C12A H3A 1_555 1_555
C13A C14A 1_555 1_555
C14A H6A 1_555 1_555
C15A C13A 1_555 1_555
C16A C13A 1_555 1_555
C17A C16A 1_555 1_555
C18A C16A 1_555 1_555
N1A O5A 1_555 1_555
N2A C11A 1_555 1_555
H4A C12A 1_555 1_555
H5A C12A 1_555 1_555
H7A C14A 1_555 1_555
H8A C14A 1_555 1_555
H9A C15A 1_555 1_555
H10A C15A 1_555 1_555
H11A C15A 1_555 1_555
H12A C17A 1_555 1_555
H13A C17A 1_555 1_555
H14A C17A 1_555 1_555
H15A C18A 1_555 1_555
H16A C18A 1_555 1_555
H17A C18A 1_555 1_555
O3A Cu2 1_555 1_555
O4A Cu2 1_555 1_555
C6A O3A 1_555 1_555
C7A C6A 1_555 1_555
C8A C6A 1_555 1_555
C9A O4A 1_555 1_555
C10A C9A 1_555 1_555
F7A C7A 1_555 1_555
F8A C7A 1_555 1_555
F9A C7A 1_555 1_555
F10A C10A 1_555 1_555
F11A C10A 1_555 1_555
F12A C10A 1_555 1_555
H2A C8A 1_555 1_555
O6A_2 Cu2 1_555 1_555
Cu2_2 O6A 1_555 1_555
C3 C4 1_555 1_555
C8 C9 1_555 1_555
C11 N1 1_555 1_555
C11 N2 1_555 1_555
C13 N2 1_555 1_555
C16 N1 1_555 1_555
C3A C4A 1_555 1_555
C11A N1A 1_555 1_555
C13A N2A 1_555 1_555
C16A N1A 1_555 1_555
C8A C9A 1_555 1_555

#END
