
#######################################################################
#
#                 Cambridge Crystallographic Data Centre
#                                CCDC 
#
#######################################################################
#
# If this CIF has been generated from an entry in the Cambridge 
# Structural Database, then it will include bibliographic, chemical, 
# crystal, experimental, refinement or atomic coordinate data resulting 
# from the CCDC's data processing and validation procedures.
#
#######################################################################

data_SULHIR
_symmetry_cell_setting           triclinic
_symmetry_space_group_name_H-M   'P -1'
_symmetry_Int_Tables_number      2
_space_group_name_Hall           '-P 1'
loop_
_symmetry_equiv_pos_site_id
_symmetry_equiv_pos_as_xyz
1 x,y,z
2 -x,-y,-z
_cell_length_a                   9.360(2)
_cell_length_b                   9.872(2)
_cell_length_c                   10.774(2)
_cell_angle_alpha                106.281(5)
_cell_angle_beta                 112.471(5)
_cell_angle_gamma                96.697(3)
_cell_volume                     854.497
loop_
_atom_site_label
_atom_site_type_symbol
_atom_site_fract_x
_atom_site_fract_y
_atom_site_fract_z
Cd1 Cd -0.92028(2) -0.193494(19) -0.347694(19)
O1 O -1.0055(3) -0.4049(2) -0.3079(2)
O2 O -0.9055(3) -0.2035(2) -0.1201(2)
O3 O -1.2986(3) -0.2868(2) -0.5786(3)
O4 O -1.1175(2) -0.0928(2) -0.3982(2)
O5 O -1.0234(3) -0.3209(3) -0.5839(3)
N1 N -0.6666(3) -0.2193(3) -0.3038(3)
N2 N -0.7479(3) 0.0324(2) -0.2249(3)
C1 C -1.0762(4) -0.5647(3) -0.1481(3)
H1 H -1.1279 -0.6085 -0.2476
C2 C -0.9843(3) -0.4217(3) -0.0854(3)
C3 C -0.9089(4) -0.3579(3) 0.0633(3)
H2 H -0.8477 -0.2619 0.1061
C4 C -0.9636(3) -0.3375(3) -0.1763(3)
C5 C -1.5451(3) -0.1488(3) -0.5752(3)
H3 H -1.5759 -0.2487 -0.6258
C6 C -1.3828(3) -0.0769(3) -0.4978(3)
C7 C -1.3404(3) 0.0726(3) -0.4233(3)
H4 H -1.2329 0.1219 -0.3715
C8 C -1.2587(3) -0.1603(3) -0.4929(3)
C9 C -0.6332(5) -0.3470(4) -0.3509(4)
H5 H -0.7171 -0.4301 -0.4077
C10 C -0.4797(5) -0.3596(5) -0.3186(5)
H6 H -0.4600 -0.4493 -0.3535
C11 C -0.3556(5) -0.2368(5) -0.2334(5)
H7 H -0.2505 -0.2425 -0.2091
C12 C -0.3891(4) -0.1051(4) -0.1846(4)
H8 H -0.3067 -0.0210 -0.1272
C13 C -0.5460(3) -0.0994(3) -0.2218(3)
C14 C -0.5915(3) 0.0387(3) -0.1733(3)
C15 C -0.4793(4) 0.1692(4) -0.0780(3)
H9 H -0.3707 0.1733 -0.0415
C16 C -0.5310(5) 0.2923(4) -0.0383(4)
H10 H -0.4571 0.3803 0.0248
C17 C -0.6908(5) 0.2851(4) -0.0918(4)
H11 H -0.7276 0.3671 -0.0657
C18 C -0.7953(4) 0.1528(3) -0.1853(4)
H12 H -0.9043 0.1470 -0.2226
H13 H -1.106(5) -0.327(4) -0.605(4)
H14 H -1.013(5) -0.388(5) -0.609(4)
Cd1A Cd -1.07972(2) -0.806506(19) 0.347694(19)
Cd1A_2 Cd -2.07972(2) 0.193494(19) -0.652306(19)
O1A O -0.9945(3) -0.5951(2) 0.3079(2)
O2A O -1.0945(3) -0.7965(2) 0.1201(2)
O3A O -1.7014(3) 0.2868(2) -0.4214(3)
O4A O -1.8825(2) 0.0928(2) -0.6018(2)
O4A_2 O -0.8825(2) -0.9072(2) 0.3982(2)
O5A O -0.9766(3) -0.6791(3) 0.5839(3)
N1A N -1.3334(3) -0.7807(3) 0.3038(3)
N2A N -1.2521(3) -1.0324(2) 0.2249(3)
C1A C -0.9238(4) -0.4353(3) 0.1481(3)
H1A H -0.8721 -0.3915 0.2476
C2A C -1.0157(3) -0.5783(3) 0.0854(3)
C3A C -1.0911(4) -0.6421(3) -0.0633(3)
H2A H -1.1523 -0.7381 -0.1061
C4A C -1.0364(3) -0.6625(3) 0.1763(3)
C5A C -1.4549(3) 0.1488(3) -0.4248(3)
H3A H -1.4241 0.2487 -0.3742
C6A C -1.6172(3) 0.0769(3) -0.5022(3)
C7A C -1.6596(3) -0.0726(3) -0.5767(3)
H4A H -1.7671 -0.1219 -0.6285
C8A C -1.7413(3) 0.1603(3) -0.5071(3)
C9A C -1.3668(5) -0.6530(4) 0.3509(4)
H5A H -1.2829 -0.5699 0.4077
C10A C -1.5203(5) -0.6404(5) 0.3186(5)
H6A H -1.5400 -0.5507 0.3535
C11A C -1.6444(5) -0.7632(5) 0.2334(5)
H7A H -1.7495 -0.7575 0.2091
C12A C -1.6109(4) -0.8949(4) 0.1846(4)
H8A H -1.6933 -0.9790 0.1272
C13A C -1.4540(3) -0.9006(3) 0.2218(3)
C14A C -1.4085(3) -1.0387(3) 0.1733(3)
C15A C -1.5207(4) -1.1692(4) 0.0780(3)
H9A H -1.6293 -1.1733 0.0415
C16A C -1.4690(5) -1.2923(4) 0.0383(4)
H10A H -1.5429 -1.3803 -0.0248
C17A C -1.3092(5) -1.2851(4) 0.0918(4)
H11A H -1.2724 -1.3671 0.0657
C18A C -1.2047(4) -1.1528(3) 0.1853(4)
H12A H -1.0957 -1.1470 0.2226
H13A H -0.894(5) -0.673(4) 0.605(4)
H14A H -0.987(5) -0.612(5) 0.609(4)
loop_
_geom_bond_atom_site_label_1
_geom_bond_atom_site_label_2
_geom_bond_site_symmetry_1
_geom_bond_site_symmetry_2
Cd1 O1 1_555 1_555
O1 C4 1_555 1_555
O2 Cd1 1_555 1_555
O3 C8 1_555 1_555
O4 Cd1 1_555 1_555
O5 Cd1 1_555 1_555
N1 Cd1 1_555 1_555
N2 Cd1 1_555 1_555
C1 H1 1_555 1_555
C2 C1 1_555 1_555
C3 C2 1_555 1_555
H2 C3 1_555 1_555
C4 O2 1_555 1_555
C5 H3 1_555 1_555
C6 C5 1_555 1_555
C7 C6 1_555 1_555
H4 C7 1_555 1_555
C8 O4 1_555 1_555
C9 N1 1_555 1_555
H5 C9 1_555 1_555
C10 C9 1_555 1_555
H6 C10 1_555 1_555
C11 C10 1_555 1_555
H7 C11 1_555 1_555
C12 C11 1_555 1_555
H8 C12 1_555 1_555
C13 N1 1_555 1_555
C14 N2 1_555 1_555
C15 C14 1_555 1_555
H9 C15 1_555 1_555
C16 C15 1_555 1_555
H10 C16 1_555 1_555
C17 C16 1_555 1_555
H11 C17 1_555 1_555
C18 N2 1_555 1_555
H12 C18 1_555 1_555
H13 O5 1_555 1_555
H14 O5 1_555 1_555
Cd1A O1A 1_555 1_555
Cd1A_2 O4A 1_555 1_555
O1A C4A 1_555 1_555
O2A Cd1A 1_555 1_555
O3A C8A 1_555 1_555
O4A C8A 1_555 1_555
O4A_2 Cd1A 1_555 1_555
O5A Cd1A 1_555 1_555
N1A Cd1A 1_555 1_555
N2A Cd1A 1_555 1_555
C1A C3 1_555 1_555
H1A C1A 1_555 1_555
C2A C1A 1_555 1_555
C3A C1 1_555 1_555
H2A C3A 1_555 1_555
C4A O2A 1_555 1_555
C5A C7 1_555 1_555
H3A C5A 1_555 1_555
C6A C5A 1_555 1_555
C7A C5 1_555 1_555
H4A C7A 1_555 1_555
C8A C6A 1_555 1_555
C9A N1A 1_555 1_555
H5A C9A 1_555 1_555
C10A C9A 1_555 1_555
H6A C10A 1_555 1_555
C11A C10A 1_555 1_555
H7A C11A 1_555 1_555
C12A C11A 1_555 1_555
H8A C12A 1_555 1_555
C13A N1A 1_555 1_555
C14A N2A 1_555 1_555
C15A C14A 1_555 1_555
H9A C15A 1_555 1_555
C16A C15A 1_555 1_555
H10A C16A 1_555 1_555
C17A C16A 1_555 1_555
H11A C17A 1_555 1_555
C18A N2A 1_555 1_555
H12A C18A 1_555 1_555
H13A O5A 1_555 1_555
H14A O5A 1_555 1_555
C2 C4 1_555 1_555
C6 C8 1_555 1_555
C12 C13 1_555 1_555
C13 C14 1_555 1_555
C17 C18 1_555 1_555
C2A C3A 1_555 1_555
C2A C4A 1_555 1_555
C6A C7A 1_555 1_555
C12A C13A 1_555 1_555
C13A C14A 1_555 1_555
C17A C18A 1_555 1_555

#END
