
#######################################################################
#
#                 Cambridge Crystallographic Data Centre
#                                CCDC 
#
#######################################################################
#
# If this CIF has been generated from an entry in the Cambridge 
# Structural Database, then it will include bibliographic, chemical, 
# crystal, experimental, refinement or atomic coordinate data resulting 
# from the CCDC's data processing and validation procedures.
#
#######################################################################

data_SULHEN
_symmetry_cell_setting           monoclinic
_symmetry_space_group_name_H-M   'P 21/n'
_symmetry_Int_Tables_number      14
_space_group_name_Hall           '-P 2yn'
loop_
_symmetry_equiv_pos_site_id
_symmetry_equiv_pos_as_xyz
1 x,y,z
2 1/2-x,1/2+y,1/2-z
3 -x,-y,-z
4 1/2+x,1/2-y,1/2+z
_cell_length_a                   10.9635(12)
_cell_length_b                   19.449(2)
_cell_length_c                   12.3881(14)
_cell_angle_alpha                90
_cell_angle_beta                 104.8120(10)
_cell_angle_gamma                90
_cell_volume                     2553.73
loop_
_atom_site_label
_atom_site_type_symbol
_atom_site_fract_x
_atom_site_fract_y
_atom_site_fract_z
Co1 Co 0.82319(4) 0.91235(2) -0.02774(3)
S1 S 0.69001(8) 1.13015(4) -0.49555(7)
O1 O 0.8263(2) 0.99046(12) -0.14900(18)
O2 O 0.6230(2) 0.99799(15) -0.2400(2)
O3 O 0.7529(3) 1.18751(12) -0.4333(2)
O4 O 0.5694(2) 1.13868(14) -0.5731(2)
O5 O 0.6599(2) 0.98073(15) -0.8635(2)
O6 O 0.8467(2) 0.98969(12) -0.90246(19)
O7 O 0.6245(2) 0.91859(12) -0.06057(19)
H1 H 0.6115 0.9388 -0.0052
H2 H 0.6025 0.9430 -0.1174
O8 O 1.0240(2) 0.91787(11) 0.00559(19)
H3 H 1.0620 0.9376 0.0649
H4 H 1.0442 0.9362 -0.0483
N1 N 0.6713(3) 1.07267(15) -0.4072(2)
H9 H 0.6032 1.0488 -0.4190
N2 N 0.8168(3) 0.83639(14) -0.1535(2)
N3 N 0.8309(3) 0.83616(14) -0.8991(2)
C1 C 0.7356(3) 1.01296(17) -0.2265(3)
C2 C 0.7732(3) 1.0625(2) -0.3071(3)
H10 H 0.7959 1.1064 -0.2703
H11 H 0.8466 1.0447 -0.3278
C3 C 0.7930(3) 1.09647(16) -0.5723(3)
C4 C 0.9233(4) 1.1076(2) -0.5332(3)
H12 H 0.9561 1.1301 -0.4658
C5 C 1.0015(4) 1.08476(19) -0.5964(3)
H13 H 1.0882 1.0913 -0.5712
C6 C 0.9518(3) 1.05195(19) -0.6975(3)
H14 H 1.0053 1.0385 -0.7411
C7 C 0.8245(3) 1.03909(16) -0.7343(3)
C8 C 0.7430(3) 1.06144(16) -0.6711(3)
H15 H 0.6568 1.0530 -0.6951
C9 C 0.7721(3) 1.00060(17) -0.8413(3)
C10 C 0.7180(3) 0.83052(18) -0.2426(3)
H16 H 0.6485 0.8588 -0.2468
C11 C 0.7139(4) 0.78518(19) -0.3274(3)
H17 H 0.6423 0.7828 -0.3868
C12 C 0.8164(3) 0.74224(16) -0.3256(3)
C13 C 0.9162(3) 0.74639(17) -0.2310(3)
H18 H 0.9852 0.7173 -0.2233
C14 C 0.9136(3) 0.79319(18) -0.1487(3)
H19 H 0.9823 0.7951 -0.0866
C15 C 0.8186(4) 0.69645(18) -0.4230(3)
H20 H 0.7411 0.6699 -0.4437
H21 H 0.8887 0.6646 -0.4018
C16 C 0.8319(4) 0.73969(19) -0.5233(3)
H22 H 0.7628 0.7723 -0.5421
H23 H 0.9099 0.7657 -0.5017
C17 C 0.8324(4) 0.69744(19) -0.6264(3)
H24 H 0.9064 0.6681 -0.6109
H25 H 0.7582 0.6683 -0.6451
C18 C 0.8332(3) 0.74367(17) -0.7234(3)
C19 C 0.9426(4) 0.7774(2) -0.7329(3)
H26 H 1.0189 0.7699 -0.6805
C20 C 0.9363(4) 0.8217(2) -0.8203(3)
H27 H 1.0104 0.8433 -0.8251
C21 C 0.7279(3) 0.80257(18) -0.8916(3)
H28 H 0.6535 0.8100 -0.9466
C22 C 0.7254(3) 0.75720(18) -0.8064(3)
H29 H 0.6502 0.7355 -0.8049
Co1_2 Co 0.82319(4) 0.91235(2) -1.02774(3)
O6_2 O 0.8467(2) 0.98969(12) 0.09754(19)
N3_2 N 0.8309(3) 0.83616(14) 0.1009(2)
O9 O 0.1535(3) 0.56542(16) 0.0189(2)
H5 H 0.1415 0.5713 -0.0494
H6 H 0.1185 0.5958 0.0470
O10 O 0.9290(3) 0.40355(14) 0.2066(3)
H7 H 0.9067 0.4287 0.2524
H8 H 0.8724 0.4002 0.1479
loop_
_geom_bond_atom_site_label_1
_geom_bond_atom_site_label_2
_geom_bond_site_symmetry_1
_geom_bond_site_symmetry_2
Co1 O1 1_555 1_555
S1 O3 1_555 1_555
O1 C1 1_555 1_555
O2 C1 1_555 1_555
O4 S1 1_555 1_555
O5 C9 1_555 1_555
O6 C9 1_555 1_555
O7 Co1 1_555 1_555
H1 O7 1_555 1_555
H2 O7 1_555 1_555
O8 Co1 1_555 1_555
H3 O8 1_555 1_555
H4 O8 1_555 1_555
O9 H5 1_555 1_555
H6 O9 1_555 1_555
O10 H7 1_555 1_555
H8 O10 1_555 1_555
N1 S1 1_555 1_555
H9 N1 1_555 1_555
N2 Co1 1_555 1_555
N3 C20 1_555 1_555
C1 C2 1_555 1_555
C2 N1 1_555 1_555
H10 C2 1_555 1_555
H11 C2 1_555 1_555
C3 S1 1_555 1_555
C4 C3 1_555 1_555
H12 C4 1_555 1_555
C5 C4 1_555 1_555
H13 C5 1_555 1_555
C6 C5 1_555 1_555
H14 C6 1_555 1_555
C7 C6 1_555 1_555
C8 C3 1_555 1_555
H15 C8 1_555 1_555
C9 C7 1_555 1_555
C10 N2 1_555 1_555
H16 C10 1_555 1_555
C11 C10 1_555 1_555
H17 C11 1_555 1_555
C12 C11 1_555 1_555
C13 C12 1_555 1_555
H18 C13 1_555 1_555
C14 N2 1_555 1_555
H19 C14 1_555 1_555
C15 C12 1_555 1_555
H20 C15 1_555 1_555
H21 C15 1_555 1_555
C16 C15 1_555 1_555
H22 C16 1_555 1_555
H23 C16 1_555 1_555
C17 C16 1_555 1_555
H24 C17 1_555 1_555
H25 C17 1_555 1_555
C18 C17 1_555 1_555
C19 C18 1_555 1_555
H26 C19 1_555 1_555
C20 C19 1_555 1_555
H27 C20 1_555 1_555
C21 N3 1_555 1_555
H28 C21 1_555 1_555
C22 C18 1_555 1_555
H29 C22 1_555 1_555
Co1_2 O6 1_555 1_555
O6_2 Co1 1_555 1_555
N3_2 Co1 1_555 1_555
N3 Co1_2 1_555 1_555
C7 C8 1_555 1_555
C13 C14 1_555 1_555
C21 C22 1_555 1_555

#END
