
#######################################################################
#
#                 Cambridge Crystallographic Data Centre
#                                CCDC 
#
#######################################################################
#
# If this CIF has been generated from an entry in the Cambridge 
# Structural Database, then it will include bibliographic, chemical, 
# crystal, experimental, refinement or atomic coordinate data resulting 
# from the CCDC's data processing and validation procedures.
#
#######################################################################

data_SULJAK
_symmetry_cell_setting           triclinic
_symmetry_space_group_name_H-M   'P -1'
_symmetry_Int_Tables_number      2
_space_group_name_Hall           '-P 1'
loop_
_symmetry_equiv_pos_site_id
_symmetry_equiv_pos_as_xyz
1 x,y,z
2 -x,-y,-z
_cell_length_a                   10.6892(8)
_cell_length_b                   12.2521(9)
_cell_length_c                   21.0925(15)
_cell_angle_alpha                90.6140(10)
_cell_angle_beta                 95.6670(10)
_cell_angle_gamma                114.4340(10)
_cell_volume                     2498.63
loop_
_atom_site_label
_atom_site_type_symbol
_atom_site_fract_x
_atom_site_fract_y
_atom_site_fract_z
Pd1 Pd 0.5000 0.0000 0.5000
Pd2 Pd 1.0000 -0.5000 1.0000
Na1 Na 0.3653(2) 0.1020(2) 0.11991(9)
Na2 Na 0.0744(2) 0.3858(2) 0.35528(9)
S1 S 0.4298(2) -0.03833(12) 0.39071(6)
S2 S 0.4032(2) 0.13417(13) 0.47227(6)
S3 S 0.0797(2) 0.34999(14) 0.01253(7)
S4 S -0.0212(2) 0.45041(14) 0.10576(7)
O1 O 0.5377(4) 0.0263(4) 0.1502(2)
O2 O 0.5604(5) 0.2507(4) 0.1867(2)
O3 O 0.4478(5) 0.3015(4) 0.0746(2)
O4 O 0.3590(4) 0.0945(4) 0.0013(2)
O5 O 0.3110(4) -0.0963(3) 0.0752(2)
O6 O 0.0031(4) 0.5480(3) 0.3210(2)
O7 O 0.2718(4) 0.5727(4) 0.3429(2)
O8 O 0.2034(4) 0.4865(3) 0.4600(2)
O9 O -0.0445(5) 0.2914(4) 0.4482(2)
O10 O -0.1766(4) 0.3410(4) 0.3424(2)
N1 N 0.2911(5) 0.0244(5) 0.2304(2)
N2 N 0.2245(6) 0.2727(5) 0.3611(3)
N3 N 0.1385(6) 0.1075(5) 0.1018(2)
N4 N 0.0142(6) 0.2849(6) 0.2493(2)
C1 C 0.3736(5) 0.0734(4) 0.3951(2)
C2 C 0.3135(5) 0.1104(5) 0.3437(2)
C3 C 0.2996(5) 0.0621(5) 0.2808(3)
C4 C 0.2646(6) 0.2015(5) 0.3528(3)
C5 C 0.0410(5) 0.3457(5) 0.0900(2)
C6 C 0.0581(5) 0.2681(5) 0.1336(2)
C7 C 0.1043(6) 0.1798(6) 0.1164(2)
C8 C 0.0328(6) 0.2761(5) 0.1979(3)
C9 C 0.6403(6) 0.0987(6) 0.2003(3)
H1 H 0.7209(6) 0.0807(6) 0.2021(3)
H2 H 0.6036(6) 0.0829(6) 0.2412(3)
C10 C 0.6784(7) 0.2252(7) 0.1861(3)
H3 H 0.7517(7) 0.2773(7) 0.2177(3)
H4 H 0.7118(7) 0.2396(7) 0.1445(3)
C11 C 0.5828(11) 0.3691(7) 0.1713(4)
H5 H 0.5161(11) 0.3895(7) 0.1906(4)
H6 H 0.6740(11) 0.4230(7) 0.1910(4)
C12 C 0.5742(11) 0.3915(7) 0.1073(4)
H7 H 0.6530(11) 0.3898(7) 0.0889(4)
H8 H 0.5753(11) 0.4705(7) 0.1024(4)
C13 C 0.4443(8) 0.3037(7) 0.0072(3)
H9 H 0.5323(8) 0.3114(7) -0.0054(3)
H10 H 0.4282(8) 0.3722(7) -0.0074(3)
C14 C 0.3327(7) 0.1919(6) -0.0220(3)
H11 H 0.2441(7) 0.1855(6) -0.0110(3)
H12 H 0.3304(7) 0.1913(6) -0.0681(3)
C15 C 0.2554(6) -0.0190(6) -0.0204(3)
H13 H 0.2450(6) -0.0269(6) -0.0666(3)
H14 H 0.1676(6) -0.0285(6) -0.0067(3)
C16 C 0.2975(6) -0.1128(6) 0.0071(3)
H15 H 0.2280(6) -0.1924(6) -0.0068(3)
H16 H 0.3848(6) -0.1040(6) -0.0069(3)
C17 C 0.3707(6) -0.1602(6) 0.1093(3)
C18 C 0.4887(6) -0.0959(6) 0.1510(3)
C19 C 0.5471(7) -0.1596(7) 0.1882(3)
H17 H 0.6244(7) -0.1183(7) 0.2174(3)
C20 C 0.4917(8) -0.2827(7) 0.1823(4)
H18 H 0.5331(8) -0.3242(7) 0.2067(4)
C21 C 0.3762(9) -0.3445(7) 0.1409(4)
H19 H 0.3383(9) -0.4279(7) 0.1372(4)
C22 C 0.3157(7) -0.2820(6) 0.1043(3)
H20 H 0.2369(7) -0.3239(6) 0.0761(3)
C23 C -0.2462(7) 0.2369(6) 0.3776(4)
H21 H -0.3446(7) 0.2168(6) 0.3736(4)
H22 H -0.2335(7) 0.1688(6) 0.3605(4)
C24 C -0.1905(7) 0.2619(6) 0.4437(4)
H23 H -0.2365(7) 0.1922(6) 0.4678(4)
H24 H -0.2053(7) 0.3286(6) 0.4612(4)
C25 C 0.0273(8) 0.3393(6) 0.5087(3)
H25 H 0.0053(8) 0.2765(6) 0.5388(3)
H26 H 0.0005(8) 0.4004(6) 0.5242(3)
C26 C 0.1779(8) 0.3924(6) 0.5027(3)
H27 H 0.2305(8) 0.4239(6) 0.5440(3)
H28 H 0.2047(8) 0.3321(6) 0.4860(3)
C27 C 0.3445(6) 0.5478(6) 0.4499(3)
H29 H 0.3790(6) 0.4919(6) 0.4342(3)
H30 H 0.4003(6) 0.5881(6) 0.4893(3)
C28 C 0.3496(6) 0.6386(6) 0.4006(3)
H31 H 0.3099(6) 0.6912(6) 0.4153(3)
H32 H 0.4446(6) 0.6873(6) 0.3933(3)
C29 C 0.2339(7) 0.6415(6) 0.2983(3)
H33 H 0.2132(7) 0.6006(6) 0.2564(3)
H34 H 0.3121(7) 0.7182(6) 0.2967(3)
C30 C 0.1112(7) 0.6636(6) 0.3129(3)
H35 H 0.1338(7) 0.7147(6) 0.3516(3)
H36 H 0.0826(7) 0.7024(6) 0.2781(3)
C31 C -0.1273(6) 0.5402(5) 0.3255(2)
C32 C -0.2248(6) 0.4282(5) 0.3380(3)
C33 C -0.3613(6) 0.4097(7) 0.3424(3)
H37 H -0.4262(6) 0.3346(7) 0.3513(3)
C34 C -0.3992(8) 0.5027(8) 0.3336(3)
H38 H -0.4906(8) 0.4902(8) 0.3355(3)
C35 C -0.3043(9) 0.6127(8) 0.3221(3)
H39 H -0.3312(9) 0.6755(8) 0.3168(3)
C36 C -0.1674(8) 0.6338(6) 0.3179(3)
H40 H -0.1032(8) 0.7100(6) 0.3101(3)
S1A S 0.5702(2) 0.03833(12) 0.60929(6)
C1A C 0.6264(5) -0.0734(4) 0.6049(2)
S2A S 0.5968(2) -0.13417(13) 0.52773(6)
C2A C 0.6865(5) -0.1104(5) 0.6563(2)
C3A C 0.7004(5) -0.0621(5) 0.7192(3)
N1A N 0.7089(5) -0.0244(5) 0.7696(2)
Na1A Na 0.6347(2) -0.1020(2) 0.88009(9)
O1A O 0.4623(4) -0.0263(4) 0.8498(2)
C9A C 0.3597(6) -0.0987(6) 0.7997(3)
H1A H 0.2791(6) -0.0807(6) 0.7979(3)
H2A H 0.3964(6) -0.0829(6) 0.7588(3)
C10A C 0.3216(7) -0.2252(7) 0.8139(3)
O2A O 0.4396(5) -0.2507(4) 0.8133(2)
O3A O 0.5522(5) -0.3015(4) 0.9254(2)
C12A C 0.4258(11) -0.3915(7) 0.8927(4)
C11A C 0.4172(11) -0.3691(7) 0.8287(4)
H5A H 0.4839(11) -0.3895(7) 0.8094(4)
H6A H 0.3260(11) -0.4230(7) 0.8090(4)
H7A H 0.3470(11) -0.3898(7) 0.9111(4)
H8A H 0.4247(11) -0.4705(7) 0.8976(4)
C13A C 0.5557(8) -0.3037(7) 0.9928(3)
H9A H 0.4677(8) -0.3114(7) 1.0054(3)
H10A H 0.5718(8) -0.3722(7) 1.0074(3)
C14A C 0.6673(7) -0.1919(6) 1.0220(3)
O4A O 0.6410(4) -0.0945(4) 0.9987(2)
O5A O 0.6890(4) 0.0963(3) 0.9248(2)
C16A C 0.7025(6) 0.1128(6) 0.9929(3)
C15A C 0.7446(6) 0.0190(6) 1.0204(3)
H13A H 0.7550(6) 0.0269(6) 1.0666(3)
H14A H 0.8324(6) 0.0285(6) 1.0067(3)
H15A H 0.7720(6) 0.1924(6) 1.0068(3)
H16A H 0.6152(6) 0.1040(6) 1.0069(3)
C17A C 0.6293(6) 0.1602(6) 0.8907(3)
C18A C 0.5113(6) 0.0959(6) 0.8490(3)
C19A C 0.4529(7) 0.1596(7) 0.8118(3)
H17A H 0.3756(7) 0.1183(7) 0.7826(3)
C20A C 0.5083(8) 0.2827(7) 0.8177(4)
H18A H 0.4669(8) 0.3242(7) 0.7933(4)
C21A C 0.6238(9) 0.3445(7) 0.8591(4)
H19A H 0.6617(9) 0.4279(7) 0.8628(4)
C22A C 0.6843(7) 0.2820(6) 0.8957(3)
H20A H 0.7631(7) 0.3239(6) 0.9239(3)
N3A N 0.8615(6) -0.1075(5) 0.8982(2)
C7A C 0.8957(6) -0.1798(6) 0.8836(2)
C6A C 0.9419(5) -0.2681(5) 0.8664(2)
C5A C 0.9590(5) -0.3457(5) 0.9100(2)
S3A S 0.9203(2) -0.34999(14) 0.98747(7)
Pd2_2 Pd 0.0000 0.5000 0.0000
S3_2 S 1.0797(2) -0.65001(14) 1.01253(7)
S4_2 S 0.9788(2) -0.54959(14) 1.10576(7)
S4A S 1.0212(2) -0.45041(14) 0.89424(7)
C8A C 0.9672(6) -0.2761(5) 0.8021(3)
N4A N 0.9858(6) -0.2849(6) 0.7507(2)
Na2A Na 0.9256(2) -0.3858(2) 0.64472(9)
O6A O 0.9969(4) -0.5480(3) 0.6790(2)
C30A C 0.8888(7) -0.6636(6) 0.6871(3)
C29A C 0.7661(7) -0.6415(6) 0.7017(3)
O7A O 0.7282(4) -0.5727(4) 0.6571(2)
O8A O 0.7966(4) -0.4865(3) 0.5400(2)
C26A C 0.8221(8) -0.3924(6) 0.4973(3)
C25A C 0.9727(8) -0.3393(6) 0.4913(3)
O9A O 1.0445(5) -0.2914(4) 0.5518(2)
O10A O 1.1766(4) -0.3410(4) 0.6576(2)
C23A C 1.2462(7) -0.2369(6) 0.6224(4)
H21A H 1.3446(7) -0.2168(6) 0.6264(4)
H22A H 1.2335(7) -0.1688(6) 0.6395(4)
C24A C 1.1905(7) -0.2619(6) 0.5563(4)
H23A H 1.2365(7) -0.1922(6) 0.5322(4)
H24A H 1.2053(7) -0.3286(6) 0.5388(4)
C32A C 1.2248(6) -0.4282(5) 0.6620(3)
C31A C 1.1273(6) -0.5402(5) 0.6745(2)
C36A C 1.1674(8) -0.6338(6) 0.6821(3)
C35A C 1.3043(9) -0.6127(8) 0.6779(3)
C34A C 1.3992(8) -0.5027(8) 0.6664(3)
C33A C 1.3613(6) -0.4097(7) 0.6576(3)
H37A H 1.4262(6) -0.3346(7) 0.6487(3)
H38A H 1.4906(8) -0.4902(8) 0.6645(3)
H39A H 1.3312(9) -0.6755(8) 0.6832(3)
H40A H 1.1032(8) -0.7100(6) 0.6899(3)
N2A N 0.7755(6) -0.2727(5) 0.6389(3)
C4A C 0.7354(6) -0.2015(5) 0.6472(3)
H25A H 0.9947(8) -0.2765(6) 0.4612(3)
H26A H 0.9995(8) -0.4004(6) 0.4758(3)
H27A H 0.7695(8) -0.4239(6) 0.4560(3)
H28A H 0.7953(8) -0.3321(6) 0.5140(3)
C27A C 0.6555(6) -0.5478(6) 0.5501(3)
H29A H 0.6210(6) -0.4919(6) 0.5658(3)
H30A H 0.5997(6) -0.5881(6) 0.5107(3)
C28A C 0.6504(6) -0.6386(6) 0.5994(3)
H31A H 0.6901(6) -0.6912(6) 0.5847(3)
H32A H 0.5554(6) -0.6873(6) 0.6067(3)
H33A H 0.7868(7) -0.6006(6) 0.7436(3)
H34A H 0.6879(7) -0.7182(6) 0.7033(3)
H35A H 0.8662(7) -0.7147(6) 0.6484(3)
H36A H 0.9174(7) -0.7024(6) 0.7219(3)
H11A H 0.7559(7) -0.1855(6) 1.0110(3)
H12A H 0.6696(7) -0.1913(6) 1.0681(3)
H3A H 0.2483(7) -0.2773(7) 0.7823(3)
H4A H 0.2882(7) -0.2396(7) 0.8555(3)
Cl1 Cl 0.1111(4) 0.3141(2) -0.14928(11)
Cl2 Cl 0.0794(3) 0.0914(2) -0.2053(2)
C37 C 0.0232(8) 0.1630(7) -0.1504(4)
H41 H -0.0747(8) 0.1415(7) -0.1613(4)
H42 H 0.0358(8) 0.1358(7) -0.1082(4)
Cl3 Cl 0.7474(4) -0.0699(3) 0.3561(2)
Cl4 Cl 1.0085(4) -0.0583(3) 0.4102(2)
C38 C 0.8793(16) -0.0236(16) 0.4132(9)
H43 H 0.9164(16) 0.0634(16) 0.4168(9)
H44 H 0.8413(16) -0.0517(16) 0.4529(9)
loop_
_geom_bond_atom_site_label_1
_geom_bond_atom_site_label_2
_geom_bond_site_symmetry_1
_geom_bond_site_symmetry_2
Pd1 S1 1_555 1_555
Pd2 S3A 1_555 1_555
Na1 O1 1_555 1_555
Na2 O6 1_555 1_555
S1 C1 1_555 1_555
S2 Pd1 1_555 1_555
S3 C5 1_555 1_555
S4 C5 1_555 1_555
O1 C9 1_555 1_555
O2 Na1 1_555 1_555
O3 Na1 1_555 1_555
O4 Na1 1_555 1_555
O5 Na1 1_555 1_555
O6 C30 1_555 1_555
O7 Na2 1_555 1_555
O8 Na2 1_555 1_555
O9 Na2 1_555 1_555
O10 Na2 1_555 1_555
N1 Na1 1_555 1_555
N2 Na2 1_555 1_555
N3 Na1 1_555 1_555
N4 Na2 1_555 1_555
C1 S2 1_555 1_555
C2 C1 1_555 1_555
C3 N1 1_555 1_555
C4 N2 1_555 1_555
C5 C6 1_555 1_555
C6 C7 1_555 1_555
C7 N3 1_555 1_555
C8 N4 1_555 1_555
C9 H1 1_555 1_555
H2 C9 1_555 1_555
C10 O2 1_555 1_555
H3 C10 1_555 1_555
H4 C10 1_555 1_555
C11 O2 1_555 1_555
H5 C11 1_555 1_555
H6 C11 1_555 1_555
C12 O3 1_555 1_555
H7 C12 1_555 1_555
H8 C12 1_555 1_555
C13 O3 1_555 1_555
H9 C13 1_555 1_555
H10 C13 1_555 1_555
C14 O4 1_555 1_555
H11 C14 1_555 1_555
H12 C14 1_555 1_555
C15 O4 1_555 1_555
H13 C15 1_555 1_555
H14 C15 1_555 1_555
C16 O5 1_555 1_555
H15 C16 1_555 1_555
H16 C16 1_555 1_555
C17 O5 1_555 1_555
C18 O1 1_555 1_555
C19 C18 1_555 1_555
H17 C19 1_555 1_555
C20 C19 1_555 1_555
H18 C20 1_555 1_555
C21 C20 1_555 1_555
H19 C21 1_555 1_555
C22 C17 1_555 1_555
H20 C22 1_555 1_555
C23 O10 1_555 1_555
H21 C23 1_555 1_555
H22 C23 1_555 1_555
C24 O9 1_555 1_555
H23 C24 1_555 1_555
H24 C24 1_555 1_555
C25 O9 1_555 1_555
H25 C25 1_555 1_555
H26 C25 1_555 1_555
C26 O8 1_555 1_555
H27 C26 1_555 1_555
H28 C26 1_555 1_555
C27 O8 1_555 1_555
H29 C27 1_555 1_555
H30 C27 1_555 1_555
C28 O7 1_555 1_555
H31 C28 1_555 1_555
H32 C28 1_555 1_555
C29 O7 1_555 1_555
H33 C29 1_555 1_555
H34 C29 1_555 1_555
C30 C29 1_555 1_555
H35 C30 1_555 1_555
H36 C30 1_555 1_555
C31 O6 1_555 1_555
C32 O10 1_555 1_555
C33 C32 1_555 1_555
H37 C33 1_555 1_555
C34 C33 1_555 1_555
H38 C34 1_555 1_555
C35 C34 1_555 1_555
H39 C35 1_555 1_555
C36 C31 1_555 1_555
H40 C36 1_555 1_555
Cl1 C37 1_555 1_555
Cl2 C37 1_555 1_555
Cl3 C38 1_555 1_555
Cl4 C38 1_555 1_555
C37 H41 1_555 1_555
H42 C37 1_555 1_555
C38 H43 1_555 1_555
H44 C38 1_555 1_555
S1A Pd1 1_555 1_555
C1A S1A 1_555 1_555
S2A Pd1 1_555 1_555
C2A C1A 1_555 1_555
C3A C2A 1_555 1_555
N1A C3A 1_555 1_555
Na1A N1A 1_555 1_555
O1A Na1A 1_555 1_555
C9A O1A 1_555 1_555
H1A C9A 1_555 1_555
H2A C9A 1_555 1_555
C10A C9A 1_555 1_555
O2A Na1A 1_555 1_555
O3A Na1A 1_555 1_555
C12A O3A 1_555 1_555
C11A O2A 1_555 1_555
H5A C11A 1_555 1_555
H6A C11A 1_555 1_555
H7A C12A 1_555 1_555
H8A C12A 1_555 1_555
C13A O3A 1_555 1_555
H9A C13A 1_555 1_555
H10A C13A 1_555 1_555
C14A C13A 1_555 1_555
O4A Na1A 1_555 1_555
O5A Na1A 1_555 1_555
C16A O5A 1_555 1_555
C15A O4A 1_555 1_555
H13A C15A 1_555 1_555
H14A C15A 1_555 1_555
H15A C16A 1_555 1_555
H16A C16A 1_555 1_555
C17A O5A 1_555 1_555
C18A O1A 1_555 1_555
C19A C18A 1_555 1_555
H17A C19A 1_555 1_555
C20A C19A 1_555 1_555
H18A C20A 1_555 1_555
C21A C20A 1_555 1_555
H19A C21A 1_555 1_555
C22A C17A 1_555 1_555
H20A C22A 1_555 1_555
N3A Na1A 1_555 1_555
C7A N3A 1_555 1_555
C6A C7A 1_555 1_555
C5A C6A 1_555 1_555
S3A C5A 1_555 1_555
Pd2_2 S3 1_555 1_555
S3_2 Pd2 1_555 1_555
S4_2 Pd2 1_555 1_555
S4A Pd2 1_555 1_555
C8A C6A 1_555 1_555
N4A C8A 1_555 1_555
Na2A N4A 1_555 1_555
O6A Na2A 1_555 1_555
C30A O6A 1_555 1_555
C29A C30A 1_555 1_555
O7A Na2A 1_555 1_555
O8A Na2A 1_555 1_555
C26A O8A 1_555 1_555
C25A C26A 1_555 1_555
O9A Na2A 1_555 1_555
O10A Na2A 1_555 1_555
C23A O10A 1_555 1_555
H21A C23A 1_555 1_555
H22A C23A 1_555 1_555
C24A O9A 1_555 1_555
H23A C24A 1_555 1_555
H24A C24A 1_555 1_555
C32A O10A 1_555 1_555
C31A O6A 1_555 1_555
C36A C31A 1_555 1_555
C35A C36A 1_555 1_555
C34A C35A 1_555 1_555
C33A C32A 1_555 1_555
H37A C33A 1_555 1_555
H38A C34A 1_555 1_555
H39A C35A 1_555 1_555
H40A C36A 1_555 1_555
N2A Na2A 1_555 1_555
C4A C2A 1_555 1_555
H25A C25A 1_555 1_555
H26A C25A 1_555 1_555
H27A C26A 1_555 1_555
H28A C26A 1_555 1_555
C27A O8A 1_555 1_555
H29A C27A 1_555 1_555
H30A C27A 1_555 1_555
C28A O7A 1_555 1_555
H31A C28A 1_555 1_555
H32A C28A 1_555 1_555
H33A C29A 1_555 1_555
H34A C29A 1_555 1_555
H35A C30A 1_555 1_555
H36A C30A 1_555 1_555
H11A C14A 1_555 1_555
H12A C14A 1_555 1_555
H3A C10A 1_555 1_555
H4A C10A 1_555 1_555
S4 Pd2_2 1_555 1_555
C2 C3 1_555 1_555
C2 C4 1_555 1_555
C6 C8 1_555 1_555
C9 C10 1_555 1_555
C11 C12 1_555 1_555
C13 C14 1_555 1_555
C15 C16 1_555 1_555
C17 C18 1_555 1_555
C21 C22 1_555 1_555
C23 C24 1_555 1_555
C25 C26 1_555 1_555
C27 C28 1_555 1_555
C31 C32 1_555 1_555
C35 C36 1_555 1_555
C1A S2A 1_555 1_555
C10A O2A 1_555 1_555
C12A C11A 1_555 1_555
C14A O4A 1_555 1_555
C16A C15A 1_555 1_555
C17A C18A 1_555 1_555
C21A C22A 1_555 1_555
C5A S4A 1_555 1_555
C29A O7A 1_555 1_555
C25A O9A 1_555 1_555
C23A C24A 1_555 1_555
C32A C31A 1_555 1_555
C34A C33A 1_555 1_555
N2A C4A 1_555 1_555
C27A C28A 1_555 1_555

#END
