
#######################################################################
#
#                 Cambridge Crystallographic Data Centre
#                                CCDC 
#
#######################################################################
#
# If this CIF has been generated from an entry in the Cambridge 
# Structural Database, then it will include bibliographic, chemical, 
# crystal, experimental, refinement or atomic coordinate data resulting 
# from the CCDC's data processing and validation procedures.
#
#######################################################################

data_SULJEP
_symmetry_cell_setting           triclinic
_symmetry_space_group_name_H-M   'P -1'
_symmetry_Int_Tables_number      2
_space_group_name_Hall           '-P 1'
loop_
_symmetry_equiv_pos_site_id
_symmetry_equiv_pos_as_xyz
1 x,y,z
2 -x,-y,-z
_cell_length_a                   9.3356(19)
_cell_length_b                   10.203(2)
_cell_length_c                   10.743(2)
_cell_angle_alpha                76.30(3)
_cell_angle_beta                 69.23(3)
_cell_angle_gamma                84.38(3)
_cell_volume                     929.45
loop_
_atom_site_label
_atom_site_type_symbol
_atom_site_fract_x
_atom_site_fract_y
_atom_site_fract_z
Zn1 Zn 0.41139(3) 0.37190(2) 0.36424(2)
P1 P 0.29587(6) 0.61342(5) 0.53659(6)
O1 O 0.35743(19) 0.54667(16) 0.41738(16)
O2 O 0.4104(2) 0.67663(18) 0.5724(2)
O3 O 0.1955(2) 0.51466(17) 0.66629(17)
O4 O 0.1279(3) 1.27463(19) 0.6793(2)
O5 O 0.2608(2) 1.23176(18) 0.47679(18)
N1 N 0.3104(2) 0.45206(18) 0.20255(18)
N2 N 0.5189(2) 0.2540(2) 0.21058(19)
C1 C 0.2068(3) 0.5501(2) 0.1998(2)
H1 H 0.1721 0.5961 0.2727
C2 C 0.1459(3) 0.5890(3) 0.0942(3)
H2 H 0.0709 0.6593 0.0966
C3 C 0.1950(3) 0.5253(3) -0.0116(2)
H3 H 0.1562 0.5521 -0.0847
C4 C 0.3041(3) 0.4190(2) -0.0123(2)
C5 C 0.3611(3) 0.3444(3) -0.1176(2)
H4 H 0.3251 0.3661 -0.1925
C6 C 0.4646(3) 0.2443(3) -0.1122(2)
H5 H 0.5007 0.1964 -0.1836
C7 C 0.5219(3) 0.2080(2) -0.0015(2)
C8 C 0.6289(3) 0.1038(3) 0.0101(3)
H6 H 0.6677 0.0522 -0.0580
C9 C 0.6773(3) 0.0766(3) 0.1193(3)
H7 H 0.7490 0.0054 0.1285
C10 C 0.6201(3) 0.1549(3) 0.2182(3)
H8 H 0.6554 0.1361 0.2936
C11 C 0.4690(2) 0.2797(2) 0.1033(2)
C12 C 0.3578(2) 0.3868(2) 0.0986(2)
C13 C 0.1652(3) 0.7450(2) 0.4957(2)
H9 H 0.2172 0.7991 0.4031
H10 H 0.0760 0.7022 0.4930
C14 C 0.1074(2) 0.8391(2) 0.5923(2)
C15 C 0.0000(3) 0.7982(2) 0.7222(3)
H11 H -0.0384 0.7092 0.7507
C16 C -0.0514(3) 0.8854(3) 0.8101(3)
H12 H -0.1243 0.8555 0.8984
C17 C 0.0022(3) 1.0163(2) 0.7707(3)
H13 H -0.0339 1.0760 0.8315
C18 C 0.1091(2) 1.0592(2) 0.6418(2)
C19 C 0.1604(2) 0.9703(2) 0.5538(2)
H14 H 0.2334 1.0002 0.4655
C20 C 0.1711(2) 1.2001(2) 0.5967(2)
H15 H 0.176(3) 0.442(2) 0.658(3)
Zn1A Zn 0.58861(3) 0.62810(2) 0.63576(2)
Zn1_2 Zn 0.41139(3) 1.37190(2) 0.36424(2)
O2A O 0.5896(2) 0.32337(18) 0.4276(2)
O5_2 O 0.2608(2) 0.23176(18) 0.47679(18)
loop_
_geom_bond_atom_site_label_1
_geom_bond_atom_site_label_2
_geom_bond_site_symmetry_1
_geom_bond_site_symmetry_2
Zn1 O1 1_555 1_555
P1 O1 1_555 1_555
O2 P1 1_555 1_555
O3 P1 1_555 1_555
O4 C20 1_555 1_555
O5 C20 1_555 1_555
N1 Zn1 1_555 1_555
N2 Zn1 1_555 1_555
C1 N1 1_555 1_555
H1 C1 1_555 1_555
C2 C1 1_555 1_555
H2 C2 1_555 1_555
C3 C2 1_555 1_555
H3 C3 1_555 1_555
C4 C3 1_555 1_555
C5 C4 1_555 1_555
H4 C5 1_555 1_555
C6 C5 1_555 1_555
H5 C6 1_555 1_555
C7 C6 1_555 1_555
C8 C7 1_555 1_555
H6 C8 1_555 1_555
C9 C8 1_555 1_555
H7 C9 1_555 1_555
C10 N2 1_555 1_555
H8 C10 1_555 1_555
C11 N2 1_555 1_555
C12 N1 1_555 1_555
C13 P1 1_555 1_555
H9 C13 1_555 1_555
H10 C13 1_555 1_555
C14 C13 1_555 1_555
C15 C14 1_555 1_555
H11 C15 1_555 1_555
C16 C15 1_555 1_555
H12 C16 1_555 1_555
C17 C16 1_555 1_555
H13 C17 1_555 1_555
C18 C17 1_555 1_555
C19 C14 1_555 1_555
H14 C19 1_555 1_555
C20 C18 1_555 1_555
H15 O3 1_555 1_555
Zn1A O2 1_555 1_555
Zn1_2 O5 1_555 1_555
O2A Zn1 1_555 1_555
O5_2 Zn1 1_555 1_555
C4 C12 1_555 1_555
C7 C11 1_555 1_555
C9 C10 1_555 1_555
C11 C12 1_555 1_555
C18 C19 1_555 1_555

#END
