
#######################################################################
#
#                 Cambridge Crystallographic Data Centre
#                                CCDC 
#
#######################################################################
#
# If this CIF has been generated from an entry in the Cambridge 
# Structural Database, then it will include bibliographic, chemical, 
# crystal, experimental, refinement or atomic coordinate data resulting 
# from the CCDC's data processing and validation procedures.
#
#######################################################################

data_SULKEQ
_symmetry_cell_setting           orthorhombic
_symmetry_space_group_name_H-M   'C m c m'
_symmetry_Int_Tables_number      63
_space_group_name_Hall           '-C 2n 2'
loop_
_symmetry_equiv_pos_site_id
_symmetry_equiv_pos_as_xyz
1 x,y,z
2 -x,-y,1/2+z
3 x,-y,-z
4 -x,y,1/2-z
5 1/2+x,1/2+y,z
6 1/2-x,1/2-y,1/2+z
7 1/2+x,1/2-y,-z
8 1/2-x,1/2+y,1/2-z
9 -x,-y,-z
10 x,y,1/2-z
11 -x,y,z
12 x,-y,1/2+z
13 1/2-x,1/2-y,-z
14 1/2+x,1/2+y,1/2-z
15 1/2-x,1/2+y,z
16 1/2+x,1/2-y,1/2+z
_cell_length_a                   12.7049(9)
_cell_length_b                   13.9851(11)
_cell_length_c                   21.8189(17)
_cell_angle_alpha                90
_cell_angle_beta                 90
_cell_angle_gamma                90
_cell_volume                     3876.77
loop_
_atom_site_label
_atom_site_type_symbol
_atom_site_fract_x
_atom_site_fract_y
_atom_site_fract_z
Zn1 Zn -0.5000 0.30380(7) 0.2500
S1 S 0.0000 0.19597(14) -0.01452(9)
O1 O -0.3908(5) 0.1194(3) 0.1849(3)
N1 N -0.5000 0.4491(6) 0.2500
C1 C -0.5000 0.4966(8) 0.1991(7)
H1 H -0.5000 0.4635 0.1621
Zn2 Zn -0.5000 0.09542(8) 0.2500
O2 O -0.3878(4) 0.2788(3) 0.1857(2)
N2 N -0.5000 0.9511(6) 0.2500
C2 C -0.5000 0.5962(7) 0.1985(7)
H2 H -0.5000 0.6277 0.1609
O3 O 0.0000 0.1060(5) -0.0462(3)
C3 C -0.5000 0.6483(11) 0.2500
O4 O 0.0000 0.2838(5) -0.0479(3)
C4 C -0.5000 0.7523(11) 0.2500
C5 C -0.5918(16) 0.8033(7) 0.2500
H3 H -0.6565 0.7721 0.2500
C6 C -0.5867(15) 0.9036(7) 0.2500
H4 H -0.6496 0.9377 0.2500
C7 C -0.3566(5) 0.1994(4) 0.1667(3)
C8 C -0.2723(5) 0.1982(4) 0.1195(3)
C9 C -0.2295(6) 0.2832(4) 0.0980(3)
H5 H -0.2558 0.3410 0.1124
C10 C -0.1498(5) 0.2836(4) 0.0561(3)
H6 H -0.1234 0.3411 0.0412
C11 C -0.1082(5) 0.1970(4) 0.0357(3)
C12 C -0.1505(6) 0.1112(5) 0.0564(4)
H7 H -0.1248 0.0533 0.0416
C13 C -0.2305(7) 0.1125(5) 0.0986(4)
H8 H -0.2571 0.0551 0.1135
Zn1_2 Zn 0.5000 0.30380(7) 0.2500
S1C S 0.0000 0.19597(14) 0.51452(9)
O1J O 0.3908(5) 0.1194(3) 0.1849(3)
O1J_2 O -0.6092(5) 0.1194(3) 0.1849(3)
O1I O -0.3908(5) 0.1194(3) 0.3151(3)
O1C O 0.3908(5) 0.1194(3) 0.3151(3)
O1C_2 O -0.6092(5) 0.1194(3) 0.3151(3)
C1C C -0.5000 0.4966(8) 0.3009(7)
H1C H -0.5000 0.4635 0.3379
Zn2_2 Zn 0.5000 0.09542(8) 0.2500
Zn2_3 Zn -0.5000 1.09542(8) 0.2500
O2J O 0.3878(4) 0.2788(3) 0.1857(2)
O2J_2 O -0.6122(4) 0.2788(3) 0.1857(2)
O2I O -0.3878(4) 0.2788(3) 0.3143(2)
O2C O 0.3878(4) 0.2788(3) 0.3143(2)
O2C_2 O -0.6122(4) 0.2788(3) 0.3143(2)
N2_2 N -0.5000 -0.0489(6) 0.2500
C2C C -0.5000 0.5962(7) 0.3015(7)
H2C H -0.5000 0.6277 0.3391
O3C O 0.0000 0.1060(5) 0.5462(3)
O4C O 0.0000 0.2838(5) 0.5479(3)
C5C C -0.4082(16) 0.8033(7) 0.2500
H3C H -0.3435 0.7721 0.2500
C6C C -0.4133(15) 0.9036(7) 0.2500
H4C H -0.3504 0.9377 0.2500
C7J C 0.3566(5) 0.1994(4) 0.1667(3)
C7I C -0.3566(5) 0.1994(4) 0.3333(3)
C7C C 0.3566(5) 0.1994(4) 0.3333(3)
C8J C 0.2723(5) 0.1982(4) 0.1195(3)
C8I C -0.2723(5) 0.1982(4) 0.3805(3)
C8C C 0.2723(5) 0.1982(4) 0.3805(3)
C9J C 0.2295(6) 0.2832(4) 0.0980(3)
C9I C -0.2295(6) 0.2832(4) 0.4020(3)
C9C C 0.2295(6) 0.2832(4) 0.4020(3)
H5J H 0.2558 0.3410 0.1124
H5I H -0.2558 0.3410 0.3876
H5C H 0.2558 0.3410 0.3876
C10J C 0.1498(5) 0.2836(4) 0.0561(3)
C10I C -0.1498(5) 0.2836(4) 0.4439(3)
C10C C 0.1498(5) 0.2836(4) 0.4439(3)
H6J H 0.1234 0.3411 0.0412
H6I H -0.1234 0.3411 0.4588
H6C H 0.1234 0.3411 0.4588
C11J C 0.1082(5) 0.1970(4) 0.0357(3)
C11I C -0.1082(5) 0.1970(4) 0.4643(3)
C11C C 0.1082(5) 0.1970(4) 0.4643(3)
C12J C 0.1505(6) 0.1112(5) 0.0564(4)
C12I C -0.1505(6) 0.1112(5) 0.4436(4)
C12C C 0.1505(6) 0.1112(5) 0.4436(4)
H7J H 0.1248 0.0533 0.0416
H7I H -0.1248 0.0533 0.4584
H7C H 0.1248 0.0533 0.4584
C13J C 0.2305(7) 0.1125(5) 0.0986(4)
C13I C -0.2305(7) 0.1125(5) 0.4014(4)
C13C C 0.2305(7) 0.1125(5) 0.4014(4)
H8J H 0.2571 0.0551 0.1135
H8I H -0.2571 0.0551 0.3865
H8C H 0.2571 0.0551 0.3865
O5 O 0.0000 0.4972(8) 0.0709(6)
H9 H 0.0376 0.5435 0.0937
H9J H -0.0376 0.5435 0.0937
H10? H -0.0110 0.5160 0.0372
loop_
_geom_bond_atom_site_label_1
_geom_bond_atom_site_label_2
_geom_bond_site_symmetry_1
_geom_bond_site_symmetry_2
Zn1 N1 1_555 1_555
S1 O3 1_555 1_555
O1 Zn2 1_555 1_555
N1 C1 1_555 1_555
C1 H1 1_555 1_555
Zn2 O1J_2 1_555 1_555
O2 Zn1 1_555 1_555
N2 C6 1_555 1_555
C2 C1 1_555 1_555
H2 C2 1_555 1_555
C3 C2 1_555 1_555
O4 S1 1_555 1_555
C4 C3 1_555 1_555
C5 C4 1_555 1_555
H3 C5 1_555 1_555
C6 C5 1_555 1_555
H4 C6 1_555 1_555
C7 O1 1_555 1_555
C8 C7 1_555 1_555
C9 C8 1_555 1_555
H5 C9 1_555 1_555
C10 C9 1_555 1_555
H6 C10 1_555 1_555
C11 S1 1_555 1_555
C12 C11 1_555 1_555
H7 C12 1_555 1_555
C13 C8 1_555 1_555
H8 C13 1_555 1_555
O5 H9 1_555 1_555
Zn1_2 O2J 1_555 1_555
S1C O3C 1_555 1_555
O1J Zn2_2 1_555 1_555
O1I Zn2 1_555 1_555
O1C Zn2_2 1_555 1_555
O1C_2 Zn2 1_555 1_555
C1C N1 1_555 1_555
H1C C1C 1_555 1_555
Zn2_3 N2 1_555 1_555
O2J C7J 1_555 1_555
O2J_2 Zn1 1_555 1_555
O2I Zn1 1_555 1_555
O2C Zn1_2 1_555 1_555
O2C_2 Zn1 1_555 1_555
N2_2 Zn2 1_555 1_555
C2C C3 1_555 1_555
H2C C2C 1_555 1_555
O4C S1C 1_555 1_555
C5C C4 1_555 1_555
H3C C5C 1_555 1_555
C6C N2 1_555 1_555
H4C C6C 1_555 1_555
C7J O1J 1_555 1_555
C7I O1I 1_555 1_555
C7C O1C 1_555 1_555
C8J C7J 1_555 1_555
C8I C7I 1_555 1_555
C8C C7C 1_555 1_555
C9J C8J 1_555 1_555
C9I C8I 1_555 1_555
C9C C8C 1_555 1_555
H5J C9J 1_555 1_555
H5I C9I 1_555 1_555
H5C C9C 1_555 1_555
C10J C9J 1_555 1_555
C10I C9I 1_555 1_555
C10C C9C 1_555 1_555
H6J C10J 1_555 1_555
H6I C10I 1_555 1_555
H6C C10C 1_555 1_555
C11J S1 1_555 1_555
C11I S1C 1_555 1_555
C11C S1C 1_555 1_555
C12J C11J 1_555 1_555
C12I C11I 1_555 1_555
C12C C11C 1_555 1_555
H7J C12J 1_555 1_555
H7I C12I 1_555 1_555
H7C C12C 1_555 1_555
C13J C8J 1_555 1_555
C13I C8I 1_555 1_555
C13C C8C 1_555 1_555
H8J C13J 1_555 1_555
H8I C13I 1_555 1_555
H8C C13C 1_555 1_555
H9J O5 1_555 1_555
O2 C7 1_555 1_555
C10 C11 1_555 1_555
C12 C13 1_555 1_555
C1C C2C 1_555 1_555
O2I C7I 1_555 1_555
O2C C7C 1_555 1_555
C5C C6C 1_555 1_555
C10J C11J 1_555 1_555
C10I C11I 1_555 1_555
C10C C11C 1_555 1_555
C12J C13J 1_555 1_555
C12I C13I 1_555 1_555
C12C C13C 1_555 1_555

#END
