
#######################################################################
#
#                 Cambridge Crystallographic Data Centre
#                                CCDC 
#
#######################################################################
#
# If this CIF has been generated from an entry in the Cambridge 
# Structural Database, then it will include bibliographic, chemical, 
# crystal, experimental, refinement or atomic coordinate data resulting 
# from the CCDC's data processing and validation procedures.
#
#######################################################################

data_SULTUO
_symmetry_cell_setting           monoclinic
_symmetry_space_group_name_H-M   'C 2/c'
_symmetry_Int_Tables_number      15
_space_group_name_Hall           '-C 2yn'
loop_
_symmetry_equiv_pos_site_id
_symmetry_equiv_pos_as_xyz
1 x,y,z
2 1/2+x,1/2+y,z
3 -x,y,1/2-z
4 1/2-x,1/2+y,1/2-z
5 -x,-y,-z
6 1/2-x,1/2-y,-z
7 x,-y,1/2+z
8 1/2+x,1/2-y,1/2+z
_cell_length_a                   17.700(7)
_cell_length_b                   19.266(8)
_cell_length_c                   7.424(4)
_cell_angle_alpha                90
_cell_angle_beta                 91.88(4)
_cell_angle_gamma                90
_cell_volume                     2530.28
loop_
_atom_site_label
_atom_site_type_symbol
_atom_site_fract_x
_atom_site_fract_y
_atom_site_fract_z
Cu1 Cu 0.50000 0.53633(2) 0.2500
O1 O 0.55557(10) 0.46797(9) 0.1205(3)
O2 O 0.64044(12) 0.44408(11) 0.3423(3)
O3 O 0.89850(12) 0.22885(10) 0.2415(3)
O4 O 0.55528(13) 0.60773(10) 0.1237(3)
N1 N 0.71652(11) 0.35396(10) 0.1191(3)
C1 C 0.61425(13) 0.43854(12) 0.1873(4)
C2 C 0.65118(14) 0.39272(14) 0.0495(4)
C3 C 0.80169(17) 0.44424(13) 0.0149(5)
C4 C 0.87334(19) 0.46441(15) -0.0236(5)
C5 C 0.93559(18) 0.42107(17) 0.0111(5)
C6 C 0.92440(15) 0.35719(15) 0.0870(5)
C7 C 0.75175(18) 0.18260(14) 0.3336(4)
C8 C 0.67983(20) 0.16347(16) 0.3744(5)
C9 C 0.61970(19) 0.20820(17) 0.3356(5)
C10 C 0.63109(16) 0.27101(15) 0.2525(4)
C11 C 0.78883(14) 0.37746(12) 0.0894(4)
C12 C 0.85167(13) 0.33477(12) 0.1294(4)
C13 C 0.84231(14) 0.26668(12) 0.2093(4)
C14 C 0.76567(14) 0.24687(12) 0.2492(4)
C15 C 0.70436(14) 0.29097(13) 0.2066(4)
H1 H 0.577(3) 0.652(2) 0.166(5)
H2 H 0.588(2) 0.590(2) 0.042(4)
H3 H 0.610 0.356 -0.001
H4 H 0.669 0.425 -0.059
H5 H 0.755 0.479 -0.011
H6 H 0.882 0.515 -0.082
H7 H 0.992 0.438 -0.021
H8 H 0.972 0.324 0.115
H9 H 0.798 0.148 0.366
H10 H 0.670 0.114 0.437
H11 H 0.563 0.193 0.371
H12 H 0.584 0.305 0.222
O1D O 0.44443(10) 0.53203(9) -0.1205(3)
O1B O 0.44443(10) 0.46797(9) 0.3795(3)
O1F O 0.55557(10) 0.53203(9) 0.6205(3)
O4B O 0.44472(13) 0.60773(10) 0.3763(3)
Cu1D Cu 0.50000 0.46367(2) -0.2500
Cu1D_2 Cu 0.50000 0.46367(2) 0.7500
C1B C 0.38575(13) 0.43854(12) 0.3127(4)
H1B H 0.423(3) 0.652(2) 0.334(5)
H2B H 0.412(2) 0.590(2) 0.458(4)
O2B O 0.35956(12) 0.44408(11) 0.1577(3)
C2B C 0.34882(14) 0.39272(14) 0.4505(4)
N1B N 0.28348(11) 0.35396(10) 0.3809(3)
H3B H 0.390 0.356 0.501
H4B H 0.331 0.425 0.559
C11B C 0.21117(14) 0.37746(12) 0.4106(4)
C15B C 0.29564(14) 0.29097(13) 0.2934(4)
C3B C 0.19831(17) 0.44424(13) 0.4851(5)
C12B C 0.14833(13) 0.33477(12) 0.3706(4)
C10B C 0.36891(16) 0.27101(15) 0.2475(4)
C14B C 0.23433(14) 0.24687(12) 0.2508(4)
C4B C 0.12666(19) 0.46441(15) 0.5236(5)
H5B H 0.245 0.479 0.511
C6B C 0.07560(15) 0.35719(15) 0.4130(5)
C13B C 0.15769(14) 0.26668(12) 0.2907(4)
C9B C 0.38030(19) 0.20820(17) 0.1644(5)
H12B H 0.416 0.305 0.278
C7B C 0.24825(18) 0.18260(14) 0.1664(4)
C5B C 0.06441(18) 0.42107(17) 0.4889(5)
H6B H 0.118 0.515 0.582
H8B H 0.028 0.324 0.385
O3B O 0.10150(12) 0.22885(10) 0.2585(3)
C8B C 0.32017(20) 0.16347(16) 0.1256(5)
H11B H 0.437 0.193 0.129
H9B H 0.202 0.148 0.134
H7B H 0.008 0.438 0.521
H10B H 0.330 0.114 0.063
loop_
_geom_bond_atom_site_label_1
_geom_bond_atom_site_label_2
_geom_bond_site_symmetry_1
_geom_bond_site_symmetry_2
Cu1 O1 1_555 1_555
O1 C1 1_555 1_555
O2 C1 1_555 1_555
O3 C13 1_555 1_555
O4 Cu1 1_555 1_555
N1 C2 1_555 1_555
C1 C2 1_555 1_555
C2 H3 1_555 1_555
C3 C4 1_555 1_555
C4 C5 1_555 1_555
C5 C6 1_555 1_555
C6 C12 1_555 1_555
C7 C8 1_555 1_555
C8 C9 1_555 1_555
C9 C10 1_555 1_555
C10 C15 1_555 1_555
C11 N1 1_555 1_555
C12 C11 1_555 1_555
C13 C12 1_555 1_555
C14 C7 1_555 1_555
C15 N1 1_555 1_555
H1 O4 1_555 1_555
H2 O4 1_555 1_555
H4 C2 1_555 1_555
H5 C3 1_555 1_555
H6 C4 1_555 1_555
H7 C5 1_555 1_555
H8 C6 1_555 1_555
H9 C7 1_555 1_555
H10 C8 1_555 1_555
H11 C9 1_555 1_555
H12 C10 1_555 1_555
O1D Cu1 1_555 1_555
O1B Cu1 1_555 1_555
O1F Cu1 1_555 1_555
O4B Cu1 1_555 1_555
Cu1D O1 1_555 1_555
Cu1D_2 O1B 1_555 1_555
C1B O1B 1_555 1_555
H1B O4B 1_555 1_555
H2B O4B 1_555 1_555
O2B C1B 1_555 1_555
C2B C1B 1_555 1_555
N1B C2B 1_555 1_555
H3B C2B 1_555 1_555
H4B C2B 1_555 1_555
C11B N1B 1_555 1_555
C15B N1B 1_555 1_555
C3B C11B 1_555 1_555
C12B C11B 1_555 1_555
C10B C15B 1_555 1_555
C14B C15B 1_555 1_555
C4B C3B 1_555 1_555
H5B C3B 1_555 1_555
C6B C12B 1_555 1_555
C13B C12B 1_555 1_555
C9B C10B 1_555 1_555
H12B C10B 1_555 1_555
C7B C14B 1_555 1_555
C5B C4B 1_555 1_555
H6B C4B 1_555 1_555
H8B C6B 1_555 1_555
O3B C13B 1_555 1_555
C8B C9B 1_555 1_555
H11B C9B 1_555 1_555
H9B C7B 1_555 1_555
H7B C5B 1_555 1_555
H10B C8B 1_555 1_555
C3 C11 1_555 1_555
C13 C14 1_555 1_555
C14 C15 1_555 1_555
O1D Cu1D 1_555 1_555
O1F Cu1D_2 1_555 1_555
C14B C13B 1_555 1_555
C6B C5B 1_555 1_555
C7B C8B 1_555 1_555

#END
