
#######################################################################
#
#                 Cambridge Crystallographic Data Centre
#                                CCDC 
#
#######################################################################
#
# If this CIF has been generated from an entry in the Cambridge 
# Structural Database, then it will include bibliographic, chemical, 
# crystal, experimental, refinement or atomic coordinate data resulting 
# from the CCDC's data processing and validation procedures.
#
#######################################################################

data_SULVIG
_symmetry_cell_setting           monoclinic
_symmetry_space_group_name_H-M   'C 2/c'
_symmetry_Int_Tables_number      15
_space_group_name_Hall           '-C 2yn'
loop_
_symmetry_equiv_pos_site_id
_symmetry_equiv_pos_as_xyz
1 x,y,z
2 -x,y,1/2-z
3 1/2+x,1/2+y,z
4 1/2-x,1/2+y,1/2-z
5 -x,-y,-z
6 x,-y,1/2+z
7 1/2-x,1/2-y,-z
8 1/2+x,1/2-y,1/2+z
_cell_length_a                   17.112(4)
_cell_length_b                   12.896(4)
_cell_length_c                   11.447(3)
_cell_angle_alpha                90
_cell_angle_beta                 90.276(5)
_cell_angle_gamma                90
_cell_volume                     2526.05
loop_
_atom_site_label
_atom_site_type_symbol
_atom_site_fract_x
_atom_site_fract_y
_atom_site_fract_z
Au1 Au 0.49055(2) 0.48591(3) 0.37950(2)
C1 C 0.5997(5) 0.3063(6) 0.5112(5)
S1 S 0.56195(14) 0.33599(17) 0.37578(14)
C2 C 0.6452(5) 0.2161(6) 0.5159(6)
S2 S 0.58622(16) 0.36989(19) 0.64003(15)
C3 C 0.6827(5) 0.1817(6) 0.6216(7)
N1 N 0.7131(5) 0.1530(6) 0.7049(5)
C4 C 0.6570(6) 0.1551(7) 0.4156(6)
N2 N 0.6665(5) 0.1062(6) 0.3307(6)
Au1A Au 0.50945(2) 0.48591(3) 0.12050(2)
Au1D Au 0.50945(2) 0.51409(3) 0.62050(2)
S2D S 0.41378(16) 0.63011(19) 0.35997(15)
N3 N 0.8130(5) 0.1803(7) 0.8963(6)
H1 H 0.7847 0.1483 0.8431
N4 N 0.8507(5) 0.2676(6) 0.8812(6)
H2 H 0.8504 0.3039 0.8161
C5 C 0.8250(5) 0.1476(7) 1.0069(6)
C6 C 0.9374(7) 0.3896(9) 0.9864(12)
H3 H 0.9039 0.4481 1.0080
H4 H 0.9619 0.4037 0.9108
H5 H 0.9780 0.3802 1.0461
C7 C 0.8895(6) 0.2941(7) 0.9776(8)
C8 C 0.8731(6) 0.2185(7) 1.0591(6)
H6 H 0.8919 0.2162 1.1373
C9 C 0.7888(6) 0.0524(8) 1.0528(10)
H7 H 0.8278 -0.0032 1.0553
H8 H 0.7453 0.0318 1.0018
H9 H 0.7692 0.0654 1.1317
loop_
_geom_bond_atom_site_label_1
_geom_bond_atom_site_label_2
_geom_bond_site_symmetry_1
_geom_bond_site_symmetry_2
Au1 S1 1_555 1_555
C1 S1 1_555 1_555
C2 C1 1_555 1_555
S2 C1 1_555 1_555
C3 C2 1_555 1_555
N1 C3 1_555 1_555
C4 C2 1_555 1_555
N2 C4 1_555 1_555
N3 H1 1_555 1_555
N4 N3 1_555 1_555
H2 N4 1_555 1_555
C5 N3 1_555 1_555
C6 H3 1_555 1_555
H4 C6 1_555 1_555
H5 C6 1_555 1_555
C7 N4 1_555 1_555
C8 C5 1_555 1_555
H6 C8 1_555 1_555
C9 C5 1_555 1_555
H7 C9 1_555 1_555
H8 C9 1_555 1_555
H9 C9 1_555 1_555
Au1A Au1 1_555 1_555
Au1D Au1 1_555 1_555
S2D Au1 1_555 1_555
S2 Au1D 1_555 1_555
C6 C7 1_555 1_555
C7 C8 1_555 1_555

#END
