
#######################################################################
#
#                 Cambridge Crystallographic Data Centre
#                                CCDC 
#
#######################################################################
#
# If this CIF has been generated from an entry in the Cambridge 
# Structural Database, then it will include bibliographic, chemical, 
# crystal, experimental, refinement or atomic coordinate data resulting 
# from the CCDC's data processing and validation procedures.
#
#######################################################################

data_SULVOM
_symmetry_cell_setting           monoclinic
_symmetry_space_group_name_H-M   'P 21/c'
_symmetry_Int_Tables_number      14
_space_group_name_Hall           '-P 2ybc'
loop_
_symmetry_equiv_pos_site_id
_symmetry_equiv_pos_as_xyz
1 x,y,z
2 -x,1/2+y,1/2-z
3 -x,-y,-z
4 x,1/2-y,1/2+z
_cell_length_a                   9.6338(19)
_cell_length_b                   22.019(4)
_cell_length_c                   11.351(2)
_cell_angle_alpha                90
_cell_angle_beta                 91.513(3)
_cell_angle_gamma                90
_cell_volume                     2407.01
loop_
_atom_site_label
_atom_site_type_symbol
_atom_site_fract_x
_atom_site_fract_y
_atom_site_fract_z
Au1 Au 0.89003(3) 0.75142(2) 0.51009(2)
S1 S 0.73022(16) 0.82859(6) 0.51336(12)
N1 N 0.6450(5) 0.9809(2) 0.5919(4)
C1 C 0.7349(5) 0.8706(2) 0.3850(4)
Au2 Au 0.86941(3) 0.74773(2) 0.26552(2)
S2 S 0.80394(16) 0.84847(6) 0.25328(12)
N2 N 0.6041(5) 0.9928(2) 0.2101(4)
C2 C 0.6759(6) 0.9287(2) 0.3916(5)
N3 N 1.2113(5) 0.5294(2) 0.5841(4)
S3 S 1.04925(15) 0.67386(6) 0.51687(12)
C3 C 0.6555(6) 0.9570(2) 0.5030(5)
C4 C 1.0802(6) 0.5697(2) 0.3999(5)
C5 C 1.0222(5) 0.6278(2) 0.3958(5)
N4 N 1.0516(5) 0.4973(2) 0.2243(5)
S4 S 0.93179(15) 0.64640(6) 0.26644(12)
C6 C 0.6390(6) 0.9638(2) 0.2900(5)
C7 C 1.0656(6) 0.5298(2) 0.3032(5)
C8 C 1.1525(6) 0.5479(2) 0.5032(5)
Au1C Au 0.89003(3) 0.74858(2) 0.01009(2)
Au2C Au 0.86941(3) 0.75227(2) 0.76552(2)
N5 N 0.8362(6) 1.0846(2) 0.6485(4)
H1 H 0.7639 1.0526 0.6501
H2 H 0.9163 1.0706 0.6977
C9 C 0.7800(7) 1.1414(3) 0.6997(6)
H3 H 0.8535 1.1728 0.7036
H4 H 0.7492 1.1336 0.7808
C10 C 0.6579(7) 1.1641(3) 0.6239(5)
H5 H 0.5813 1.1342 0.6260
H6 H 0.6237 1.2029 0.6562
C11 C 0.7003(7) 1.1735(3) 0.4975(6)
H7 H 0.6181 1.1857 0.4489
H8 H 0.7695 1.2067 0.4944
C12 C 0.7614(7) 1.1166(3) 0.4479(6)
H9 H 0.7941 1.1249 0.3676
H10 H 0.6884 1.0850 0.4418
C13 C 0.8817(7) 1.0929(3) 0.5238(6)
H11 H 0.9140 1.0536 0.4922
H12 H 0.9600 1.1220 0.5222
N6 N 0.3887(5) 1.0848(2) 0.1507(4)
H13 H 0.3020 1.0725 0.1891
H14 H 0.4504 1.0489 0.1487
C14 C 0.4579(6) 1.1335(3) 0.2224(5)
H15 H 0.4823 1.1178 0.3020
H16 H 0.3937 1.1683 0.2311
C15 C 0.3545(6) 1.1045(3) 0.0262(5)
H17 H 0.2862 1.1381 0.0268
H18 H 0.3129 1.0702 -0.0187
C16 C 0.4850(6) 1.1254(3) -0.0318(5)
H19 H 0.4618 1.1398 -0.1125
H20 H 0.5498 1.0907 -0.0380
C17 C 0.5549(7) 1.1758(3) 0.0372(5)
H21 H 0.4932 1.2118 0.0388
H22 H 0.6420 1.1877 -0.0010
C18 C 0.5869(6) 1.1542(3) 0.1628(5)
H23 H 0.6541 1.1202 0.1608
H24 H 0.6302 1.1877 0.2087
loop_
_geom_bond_atom_site_label_1
_geom_bond_atom_site_label_2
_geom_bond_site_symmetry_1
_geom_bond_site_symmetry_2
Au1 S1 1_555 1_555
S1 C1 1_555 1_555
N1 C3 1_555 1_555
C1 S2 1_555 1_555
Au2 Au1 1_555 1_555
S2 Au2 1_555 1_555
N2 C6 1_555 1_555
C2 C1 1_555 1_555
N3 C8 1_555 1_555
S3 Au1 1_555 1_555
C3 C2 1_555 1_555
C4 C5 1_555 1_555
C5 S3 1_555 1_555
N4 C7 1_555 1_555
S4 Au2 1_555 1_555
C6 C2 1_555 1_555
C7 C4 1_555 1_555
C8 C4 1_555 1_555
N5 H1 1_555 1_555
H2 N5 1_555 1_555
C9 N5 1_555 1_555
H3 C9 1_555 1_555
H4 C9 1_555 1_555
C10 C9 1_555 1_555
H5 C10 1_555 1_555
H6 C10 1_555 1_555
C11 C10 1_555 1_555
H7 C11 1_555 1_555
H8 C11 1_555 1_555
C12 C11 1_555 1_555
H9 C12 1_555 1_555
H10 C12 1_555 1_555
C13 N5 1_555 1_555
H11 C13 1_555 1_555
H12 C13 1_555 1_555
N6 H13 1_555 1_555
H14 N6 1_555 1_555
C14 N6 1_555 1_555
H15 C14 1_555 1_555
H16 C14 1_555 1_555
C15 N6 1_555 1_555
H17 C15 1_555 1_555
H18 C15 1_555 1_555
C16 C15 1_555 1_555
H19 C16 1_555 1_555
H20 C16 1_555 1_555
C17 C16 1_555 1_555
H21 C17 1_555 1_555
H22 C17 1_555 1_555
C18 C14 1_555 1_555
H23 C18 1_555 1_555
H24 C18 1_555 1_555
Au1C Au2 1_555 1_555
Au2C Au1 1_555 1_555
C5 S4 1_555 1_555
C12 C13 1_555 1_555
C17 C18 1_555 1_555

#END
