
#######################################################################
#
#                 Cambridge Crystallographic Data Centre
#                                CCDC 
#
#######################################################################
#
# If this CIF has been generated from an entry in the Cambridge 
# Structural Database, then it will include bibliographic, chemical, 
# crystal, experimental, refinement or atomic coordinate data resulting 
# from the CCDC's data processing and validation procedures.
#
#######################################################################

data_SULVUS
_symmetry_cell_setting           monoclinic
_symmetry_space_group_name_H-M   'P 21/c'
_symmetry_Int_Tables_number      14
_space_group_name_Hall           '-P 2ybc'
loop_
_symmetry_equiv_pos_site_id
_symmetry_equiv_pos_as_xyz
1 x,y,z
2 -x,1/2+y,1/2-z
3 -x,-y,-z
4 x,1/2-y,1/2+z
_cell_length_a                   10.5756(14)
_cell_length_b                   23.180(3)
_cell_length_c                   11.6908(16)
_cell_angle_alpha                90
_cell_angle_beta                 99.794(2)
_cell_angle_gamma                90
_cell_volume                     2824.14
loop_
_atom_site_label
_atom_site_type_symbol
_atom_site_fract_x
_atom_site_fract_y
_atom_site_fract_z
Au1 Au 0.79222(3) 0.75400(2) 0.27398(2)
Au2 Au 0.79142(3) 0.74347(2) 0.51468(2)
S1 S 0.9013(2) 0.66898(9) 0.26968(15)
S2 S 0.9528(2) 0.67576(9) 0.53839(16)
S3 S 0.6829(2) 0.83983(9) 0.26046(16)
S4 S 0.6263(2) 0.80878(9) 0.50554(16)
N1 N 1.0860(9) 0.5409(3) 0.2288(6)
N2 N 1.1429(9) 0.5412(4) 0.5954(6)
N3 N 0.5048(9) 0.9708(3) 0.2071(6)
N4 N 0.4296(7) 0.9299(3) 0.5541(6)
C1 C 0.9661(8) 0.6440(3) 0.4066(6)
C2 C 1.0380(9) 0.5936(3) 0.4104(6)
C3 C 1.0614(9) 0.5647(3) 0.3076(7)
C4 C 1.0959(10) 0.5665(4) 0.5158(7)
C5 C 0.6133(8) 0.8517(3) 0.3823(6)
C6 C 0.5403(8) 0.9008(3) 0.3810(6)
C7 C 0.5210(9) 0.9397(4) 0.2843(7)
C8 C 0.4789(8) 0.9163(3) 0.4774(7)
Au1C Au 0.79222(3) 0.74600(2) 0.77398(2)
Au2C Au 0.79142(3) 0.75653(2) 0.01468(2)
O1 O 0.8045(6) 0.9953(2) 0.4858(5)
H1 H 0.731(5) 1.013(4) 0.446(7)
H2 H 0.769(9) 0.989(4) 0.553(5)
N5 N 0.5354(8) 0.8552(3) -0.0665(7)
H3 H 0.5919 0.8881 -0.0388
H4 H 0.5816 0.8193 -0.0389
C9 C 0.4164(10) 0.8592(4) -0.0141(8)
H5 H 0.3727 0.8963 -0.0362
H6 H 0.4392 0.8579 0.0716
C10 C 0.3275(10) 0.8102(4) -0.0554(8)
H7 H 0.2475 0.8139 -0.0227
H8 H 0.3686 0.7731 -0.0287
C11 C 0.2963(10) 0.8110(5) -0.1878(8)
H9 H 0.2506 0.8472 -0.2139
H10 H 0.2393 0.7782 -0.2153
C12 C 0.4202(11) 0.8068(5) -0.2402(8)
H11 H 0.4622 0.7692 -0.2198
H12 H 0.3989 0.8094 -0.3259
C13 C 0.5108(11) 0.8553(5) -0.1943(8)
H13 H 0.5928 0.8505 -0.2234
H14 H 0.4728 0.8927 -0.2228
N6 N 0.9967(7) 0.9266(3) 0.4226(5)
H15 H 1.0656 0.9528 0.4597
H16 H 0.9153 0.9486 0.4094
C14 C 1.0266(9) 0.9063(4) 0.3079(6)
H17 H 1.0343 0.9399 0.2573
H18 H 0.9561 0.8815 0.2687
C15 C 1.1507(9) 0.8728(4) 0.3278(7)
H19 H 1.2220 0.8991 0.3591
H20 H 1.1674 0.8576 0.2527
C16 C 1.1473(11) 0.8230(4) 0.4117(8)
H21 H 1.0857 0.7935 0.3752
H22 H 1.2332 0.8050 0.4293
C17 C 1.1076(11) 0.8439(4) 0.5233(7)
H23 H 1.0968 0.8103 0.5729
H24 H 1.1766 0.8685 0.5659
C18 C 0.9851(9) 0.8776(4) 0.5012(6)
H25 H 0.9140 0.8521 0.4657
H26 H 0.9651 0.8922 0.5756
N7 N 0.6866(10) 0.9468(4) 0.0148(7)
H27 H 0.6532 0.9670 0.0694
H28 H 0.6598 0.9629 -0.0563
H29 H 0.7738 0.9479 0.0316
N8 N 0.7295(7) 0.9612(3) 0.6850(6)
H30 H 0.756(7) 0.928(3) 0.705(6)
H31 H 0.756(7) 0.980(3) 0.745(6)
H32 H 0.656(7) 0.961(3) 0.677(7)
loop_
_geom_bond_atom_site_label_1
_geom_bond_atom_site_label_2
_geom_bond_site_symmetry_1
_geom_bond_site_symmetry_2
Au1 Au2 1_555 1_555
Au2 S2 1_555 1_555
S1 Au1 1_555 1_555
S2 C1 1_555 1_555
S3 Au1 1_555 1_555
S4 Au2 1_555 1_555
N1 C3 1_555 1_555
N2 C4 1_555 1_555
N3 C7 1_555 1_555
N4 C8 1_555 1_555
C1 S1 1_555 1_555
C2 C1 1_555 1_555
C3 C2 1_555 1_555
C4 C2 1_555 1_555
C5 S3 1_555 1_555
C6 C5 1_555 1_555
C7 C6 1_555 1_555
C8 C6 1_555 1_555
O1 H1 1_555 1_555
H2 O1 1_555 1_555
N5 H3 1_555 1_555
H4 N5 1_555 1_555
C9 N5 1_555 1_555
H5 C9 1_555 1_555
H6 C9 1_555 1_555
C10 C9 1_555 1_555
H7 C10 1_555 1_555
H8 C10 1_555 1_555
C11 C10 1_555 1_555
H9 C11 1_555 1_555
H10 C11 1_555 1_555
C12 C11 1_555 1_555
H11 C12 1_555 1_555
H12 C12 1_555 1_555
C13 N5 1_555 1_555
H13 C13 1_555 1_555
H14 C13 1_555 1_555
N6 H15 1_555 1_555
H16 N6 1_555 1_555
C14 N6 1_555 1_555
H17 C14 1_555 1_555
H18 C14 1_555 1_555
C15 C14 1_555 1_555
H19 C15 1_555 1_555
H20 C15 1_555 1_555
C16 C15 1_555 1_555
H21 C16 1_555 1_555
H22 C16 1_555 1_555
C17 C16 1_555 1_555
H23 C17 1_555 1_555
H24 C17 1_555 1_555
C18 N6 1_555 1_555
H25 C18 1_555 1_555
H26 C18 1_555 1_555
N7 H27 1_555 1_555
H28 N7 1_555 1_555
H29 N7 1_555 1_555
N8 H30 1_555 1_555
H31 N8 1_555 1_555
H32 N8 1_555 1_555
Au1C Au2 1_555 1_555
Au2C Au1 1_555 1_555
S4 C5 1_555 1_555
C12 C13 1_555 1_555
C17 C18 1_555 1_555

#END
