
#######################################################################
#
#                 Cambridge Crystallographic Data Centre
#                                CCDC 
#
#######################################################################
#
# If this CIF has been generated from an entry in the Cambridge 
# Structural Database, then it will include bibliographic, chemical, 
# crystal, experimental, refinement or atomic coordinate data resulting 
# from the CCDC's data processing and validation procedures.
#
#######################################################################

data_SUMHOY
_symmetry_cell_setting           monoclinic
_symmetry_space_group_name_H-M   'P 21/c'
_symmetry_Int_Tables_number      14
_space_group_name_Hall           '-P 2ybc'
loop_
_symmetry_equiv_pos_site_id
_symmetry_equiv_pos_as_xyz
1 x,y,z
2 -x,1/2+y,1/2-z
3 -x,-y,-z
4 x,1/2-y,1/2+z
_cell_length_a                   8.3044(8)
_cell_length_b                   9.8777(10)
_cell_length_c                   18.6418(17)
_cell_angle_alpha                90
_cell_angle_beta                 105.577(4)
_cell_angle_gamma                90
_cell_volume                     1472.99
loop_
_atom_site_label
_atom_site_type_symbol
_atom_site_fract_x
_atom_site_fract_y
_atom_site_fract_z
Cd1 Cd 1.03000(4) 0.41390(3) 0.913401(15)
Cl1 Cl 0.82073(18) 0.58686(12) 0.94870(7)
O1 O 1.1359(5) 0.5889(3) 0.8553(2)
O2 O 1.2932(5) 0.4092(3) 0.8786(2)
N1 N 1.1583(4) 0.8557(3) 0.69451(18)
N2 N 0.9814(4) 0.6737(4) 0.5992(2)
N3 N 1.3173(4) 0.7080(3) 0.77161(19)
C1 C 1.2673(6) 0.9268(4) 0.7495(3)
C2 C 1.2833(6) 1.0666(4) 0.7620(3)
H1 H 1.2171 1.1281 0.7292
C3 C 1.4012(7) 1.1090(5) 0.8251(3)
H2 H 1.4133 1.2009 0.8359
C4 C 1.5020(6) 1.0166(5) 0.8728(3)
H3 H 1.5836 1.0490 0.9136
C5 C 1.4861(6) 0.8771(6) 0.8619(3)
H4 H 1.5513 0.8156 0.8951
C6 C 1.3679(5) 0.8363(4) 0.7989(2)
C7 C 1.1901(5) 0.7271(4) 0.7079(2)
C8 C 1.0884(5) 0.6218(4) 0.6592(2)
C9 C 1.0901(6) 0.4847(4) 0.6735(2)
H5 H 1.1655 0.4496 0.7156
C10 C 0.9814(7) 0.4006(4) 0.6259(3)
H6 H 0.9833 0.3079 0.6348
C11 C 0.8700(7) 0.4542(6) 0.5652(3)
H7 H 0.7929 0.3997 0.5324
C12 C 0.8749(9) 0.5912(5) 0.5541(3)
H8 H 0.7995 0.6283 0.5125
C13 C 1.3786(6) 0.5830(4) 0.8112(3)
H9 H 1.4855 0.6007 0.8468
H10 H 1.3969 0.5167 0.7758
C14 C 1.2607(5) 0.5244(4) 0.8519(2)
Cd1B Cd 0.97000(4) 0.58610(3) 1.086599(15)
Cd1A Cd 0.97000(4) 0.91390(3) 0.586599(15)
Cl1B Cl 1.17927(18) 0.41314(12) 1.05130(7)
N1A N 0.8417(4) 0.3557(3) 0.80549(18)
N2A N 1.0186(4) 0.1737(4) 0.9008(2)
O3 O 0.3978(7) 0.8050(6) 0.5197(4)
H11 H 0.5015 0.7896 0.5263
H12 H 0.3843 0.8856 0.5329
loop_
_geom_bond_atom_site_label_1
_geom_bond_atom_site_label_2
_geom_bond_site_symmetry_1
_geom_bond_site_symmetry_2
Cd1 Cl1 1_555 1_555
Cl1 Cd1B 1_555 1_555
O1 Cd1 1_555 1_555
O2 Cd1 1_555 1_555
N1 C1 1_555 1_555
N2 C8 1_555 1_555
N3 C6 1_555 1_555
C1 C2 1_555 1_555
C2 H1 1_555 1_555
C3 C2 1_555 1_555
H2 C3 1_555 1_555
C4 C3 1_555 1_555
H3 C4 1_555 1_555
C5 C4 1_555 1_555
H4 C5 1_555 1_555
C6 C1 1_555 1_555
C7 N1 1_555 1_555
C8 C7 1_555 1_555
C9 C8 1_555 1_555
H5 C9 1_555 1_555
C10 C9 1_555 1_555
H6 C10 1_555 1_555
C11 C10 1_555 1_555
H7 C11 1_555 1_555
C12 N2 1_555 1_555
H8 C12 1_555 1_555
C13 N3 1_555 1_555
H9 C13 1_555 1_555
H10 C13 1_555 1_555
C14 O1 1_555 1_555
O3 H11 1_555 1_555
H12 O3 1_555 1_555
Cd1B Cl1B 1_555 1_555
Cd1A N1 1_555 1_555
Cl1B Cd1 1_555 1_555
N1A Cd1 1_555 1_555
N2A Cd1 1_555 1_555
O2 C14 1_555 1_555
N2 Cd1A 1_555 1_555
N3 C7 1_555 1_555
C5 C6 1_555 1_555
C11 C12 1_555 1_555
C13 C14 1_555 1_555

#END
