
#######################################################################
#
#                 Cambridge Crystallographic Data Centre
#                                CCDC 
#
#######################################################################
#
# If this CIF has been generated from an entry in the Cambridge 
# Structural Database, then it will include bibliographic, chemical, 
# crystal, experimental, refinement or atomic coordinate data resulting 
# from the CCDC's data processing and validation procedures.
#
#######################################################################

data_SUMJUG
_symmetry_cell_setting           triclinic
_symmetry_space_group_name_H-M   'P -1'
_symmetry_Int_Tables_number      2
_space_group_name_Hall           '-P 1'
loop_
_symmetry_equiv_pos_site_id
_symmetry_equiv_pos_as_xyz
1 x,y,z
2 -x,-y,-z
_cell_length_a                   10.3722(10)
_cell_length_b                   10.4318(10)
_cell_length_c                   10.9072(10)
_cell_angle_alpha                90.616(4)
_cell_angle_beta                 92.526(4)
_cell_angle_gamma                108.756(4)
_cell_volume                     1116.02
loop_
_atom_site_label
_atom_site_type_symbol
_atom_site_fract_x
_atom_site_fract_y
_atom_site_fract_z
Cd1 Cd 0.612732(13) 0.919431(14) 0.408569(11)
O1 O 0.5115(2) 0.68523(17) 0.34214(17)
O2 O 0.45891(18) 0.84044(15) 0.24189(14)
O3 O 0.48769(16) 0.90337(15) -0.40567(12)
O4 O 0.66063(16) 0.82772(19) -0.40262(14)
N1 N 0.80525(18) 1.10688(19) 0.46998(16)
N2 N 0.80514(17) 0.92533(17) 0.29312(16)
C1 C 0.32621(19) 0.64581(18) 0.03822(16)
C2 C 0.45678(19) 0.72447(19) -0.02484(16)
H3 H 0.5182 0.6713 -0.0240
H4 H 0.5019 0.8083 0.0210
C3 C 0.42686(19) 0.75699(19) -0.15829(16)
C4 C 0.3567(2) 0.6236(2) -0.23030(18)
H5 H 0.3362 0.6427 -0.3144
H6 H 0.4173 0.5696 -0.2314
C5 C 0.2246(2) 0.5447(2) -0.1701(2)
H7 H 0.1807 0.4594 -0.2162
C6 C 0.1283(2) 0.6286(3) -0.1705(2)
H8 H 0.0440 0.5782 -0.1339
H9 H 0.1068 0.6482 -0.2543
C7 C 0.1968(2) 0.7606(2) -0.0977(2)
H10 H 0.1353 0.8150 -0.0982
C8 C 0.2288(2) 0.7298(2) 0.03547(19)
H11 H 0.2704 0.8139 0.0820
H12 H 0.1450 0.6800 0.0733
C9 C 0.2570(2) 0.5141(2) -0.03697(19)
H13 H 0.3166 0.4591 -0.0363
H14 H 0.1733 0.4632 0.0003
C10 C 0.3288(2) 0.8398(2) -0.15707(19)
H15 H 0.3718 0.9244 -0.1117
H16 H 0.3080 0.8610 -0.2405
C11 C 0.3588(2) 0.60801(19) 0.16865(17)
H17 H 0.2730 0.5670 0.2068
H18 H 0.4023 0.5388 0.1619
C12 C 0.4482(2) 0.7191(2) 0.25573(17)
C13 C 0.5638(2) 0.8363(2) -0.21072(18)
H19 H 0.5950 0.9253 -0.1708
H20 H 0.6290 0.7910 -0.1868
C14 C 0.5698(2) 0.8562(2) -0.34814(17)
C15 C 0.7994(3) 1.1978(3) 0.5547(3)
H21 H 0.7166 1.1875 0.5895
C16 C 0.9109(3) 1.3062(3) 0.5928(3)
H22 H 0.9031 1.3680 0.6517
C17 C 1.0324(3) 1.3214(3) 0.5428(2)
H23 H 1.1090 1.3940 0.5671
C18 C 1.0407(2) 1.2279(2) 0.4558(2)
H24 H 1.1233 1.2359 0.4213
C19 C 0.92426(19) 1.1219(2) 0.42036(17)
C20 C 0.92403(19) 1.02217(19) 0.32142(18)
C21 C 1.0393(2) 1.0315(2) 0.2584(2)
H25 H 1.1214 1.0982 0.2805
C22 C 1.0322(3) 0.9419(3) 0.1629(3)
H26 H 1.1088 0.9477 0.1193
C23 C 0.9092(3) 0.8431(3) 0.1331(3)
H27 H 0.9009 0.7816 0.0685
C24 C 0.7995(2) 0.8379(2) 0.2010(2)
H28 H 0.7172 0.7702 0.1820
Cd1_2 Cd 0.612732(13) 0.919431(14) -0.591431(11)
Cd1A Cd 0.387268(13) 1.080569(14) -0.408569(11)
O3_2 O 0.48769(16) 0.90337(15) 0.59433(12)
O3A O 0.51231(16) 1.09663(15) 0.40567(12)
O4_2 O 0.66063(16) 0.82772(19) 0.59738(14)
O5 O 1.3308(3) 1.4615(3) 0.4623(4)
H1 H 1.361(5) 1.394(3) 0.453(5)
H2 H 1.397(4) 1.531(3) 0.441(5)
loop_
_geom_bond_atom_site_label_1
_geom_bond_atom_site_label_2
_geom_bond_site_symmetry_1
_geom_bond_site_symmetry_2
Cd1 O1 1_555 1_555
O1 C12 1_555 1_555
O2 Cd1 1_555 1_555
O3 C14 1_555 1_555
O4 C14 1_555 1_555
O5 H1 1_555 1_555
H2 O5 1_555 1_555
N1 Cd1 1_555 1_555
N2 Cd1 1_555 1_555
C1 C2 1_555 1_555
C2 H3 1_555 1_555
H4 C2 1_555 1_555
C3 C2 1_555 1_555
C4 C3 1_555 1_555
H5 C4 1_555 1_555
H6 C4 1_555 1_555
C5 C4 1_555 1_555
H7 C5 1_555 1_555
C6 C5 1_555 1_555
H8 C6 1_555 1_555
H9 C6 1_555 1_555
C7 C6 1_555 1_555
H10 C7 1_555 1_555
C8 C1 1_555 1_555
H11 C8 1_555 1_555
H12 C8 1_555 1_555
C9 C1 1_555 1_555
H13 C9 1_555 1_555
H14 C9 1_555 1_555
C10 C3 1_555 1_555
H15 C10 1_555 1_555
H16 C10 1_555 1_555
C11 C1 1_555 1_555
H17 C11 1_555 1_555
H18 C11 1_555 1_555
C12 O2 1_555 1_555
C13 C3 1_555 1_555
H19 C13 1_555 1_555
H20 C13 1_555 1_555
C14 C13 1_555 1_555
C15 N1 1_555 1_555
H21 C15 1_555 1_555
C16 C15 1_555 1_555
H22 C16 1_555 1_555
C17 C16 1_555 1_555
H23 C17 1_555 1_555
C18 C17 1_555 1_555
H24 C18 1_555 1_555
C19 N1 1_555 1_555
C20 N2 1_555 1_555
C21 C20 1_555 1_555
H25 C21 1_555 1_555
C22 C21 1_555 1_555
H26 C22 1_555 1_555
C23 C22 1_555 1_555
H27 C23 1_555 1_555
C24 N2 1_555 1_555
H28 C24 1_555 1_555
Cd1_2 O3 1_555 1_555
Cd1A O3 1_555 1_555
O3_2 Cd1 1_555 1_555
O3A Cd1 1_555 1_555
O4_2 Cd1 1_555 1_555
O4 Cd1_2 1_555 1_555
C5 C9 1_555 1_555
C7 C8 1_555 1_555
C7 C10 1_555 1_555
C11 C12 1_555 1_555
C18 C19 1_555 1_555
C19 C20 1_555 1_555
C23 C24 1_555 1_555

#END
