
#######################################################################
#
#                 Cambridge Crystallographic Data Centre
#                                CCDC 
#
#######################################################################
#
# If this CIF has been generated from an entry in the Cambridge 
# Structural Database, then it will include bibliographic, chemical, 
# crystal, experimental, refinement or atomic coordinate data resulting 
# from the CCDC's data processing and validation procedures.
#
#######################################################################

data_SUMKAN
_symmetry_cell_setting           monoclinic
_symmetry_space_group_name_H-M   'P 21/n'
_symmetry_Int_Tables_number      14
_space_group_name_Hall           '-P 2yn'
loop_
_symmetry_equiv_pos_site_id
_symmetry_equiv_pos_as_xyz
1 x,y,z
2 1/2-x,1/2+y,1/2-z
3 -x,-y,-z
4 1/2+x,1/2-y,1/2+z
_cell_length_a                   13.6629(3)
_cell_length_b                   14.1324(3)
_cell_length_c                   15.1019(4)
_cell_angle_alpha                90
_cell_angle_beta                 114.611(2)
_cell_angle_gamma                90
_cell_volume                     2651.12
loop_
_atom_site_label
_atom_site_type_symbol
_atom_site_fract_x
_atom_site_fract_y
_atom_site_fract_z
Cd1 Cd 0.342856(14) 0.487369(13) 0.039840(13)
O1 O 0.52470(15) 0.49874(13) 0.13447(14)
O2 O 0.43810(15) 0.61251(13) 0.16834(15)
O3 O 0.88772(15) 0.16240(14) 0.49665(15)
O4 O 0.72364(16) 0.11977(13) 0.40562(15)
O5 O 0.32173(15) 0.58277(14) -0.09066(14)
H1 H 0.348(2) 0.6363(13) -0.082(3)
H2 H 0.363(2) 0.5514(18) -0.109(2)
N1 N 0.29698(17) 0.39855(16) 0.14793(16)
N2 N 0.19234(16) 0.55465(16) 0.05369(16)
C1 C 0.6589(2) 0.51980(16) 0.35755(18)
C2 C 0.70114(19) 0.42965(17) 0.32860(18)
H11 H 0.6443 0.4024 0.2713
H12 H 0.7603 0.4461 0.3118
C3 C 0.73982(19) 0.35582(17) 0.41012(18)
C4 C 0.8288(2) 0.3990(2) 0.5002(2)
H13 H 0.8896 0.4154 0.4859
H14 H 0.8529 0.3531 0.5528
C5 C 0.7874(3) 0.4880(2) 0.5320(2)
H15 H 0.8453 0.5154 0.5897
C6 C 0.6926(3) 0.4620(2) 0.5558(2)
H16 H 0.7157 0.4168 0.6090
H17 H 0.6663 0.5180 0.5758
C7 C 0.6033(2) 0.4191(2) 0.4663(2)
H18 H 0.5428 0.4017 0.4818
C8 C 0.5655(2) 0.49223(19) 0.3835(2)
H19 H 0.5072 0.4658 0.3266
H20 H 0.5387 0.5481 0.4035
C9 C 0.7501(2) 0.56013(19) 0.4484(2)
H21 H 0.7255 0.6172 0.4686
H22 H 0.8102 0.5769 0.4332
C10 C 0.6453(2) 0.33070(19) 0.4346(2)
H23 H 0.6682 0.2843 0.4866
H24 H 0.5880 0.3030 0.3779
C11 C 0.6246(2) 0.59377(18) 0.2746(2)
H25 H 0.6137 0.6541 0.2997
H26 H 0.6827 0.6015 0.2542
C12 C 0.5233(2) 0.56784(18) 0.18711(19)
C13 C 0.7800(2) 0.26992(18) 0.3706(2)
H27 H 0.7280 0.2577 0.3045
H28 H 0.8470 0.2877 0.3674
C14 C 0.7989(2) 0.17747(19) 0.42809(19)
C15 C 0.3481(3) 0.3190(2) 0.1880(2)
H29 H 0.4099 0.3035 0.1798
C16 C 0.3145(3) 0.2588(3) 0.2408(3)
H30 H 0.3510 0.2027 0.2663
C17 C 0.2254(4) 0.2843(3) 0.2547(3)
H31 H 0.2008 0.2458 0.2910
C18 C 0.1724(3) 0.3668(3) 0.2149(3)
H32 H 0.1121 0.3847 0.2245
C19 C 0.2092(2) 0.4229(2) 0.16061(19)
C20 C 0.1531(2) 0.51053(19) 0.1102(2)
C21 C 0.0610(2) 0.5439(2) 0.1180(2)
H33 H 0.0343 0.5126 0.1575
C22 C 0.0104(2) 0.6222(2) 0.0677(3)
H34 H -0.0520 0.6440 0.0714
C23 C 0.0518(3) 0.6689(2) 0.0114(3)
H35 H 0.0193 0.7235 -0.0225
C24 C 0.1439(2) 0.6324(2) 0.0064(2)
H36 H 0.1726 0.6636 -0.0316
Cd1C Cd 0.842856(14) 0.012631(13) 0.539840(13)
O3C O 0.38772(15) 0.33760(14) -0.00335(15)
O4C O 0.22364(16) 0.38023(13) -0.09438(15)
O6 O 0.0612(2) 0.3711(2) -0.2825(2)
H3 H 0.112(3) 0.361(3) -0.228(2)
H4 H 0.076(4) 0.426(2) -0.294(4)
O7 O 0.0792(2) 0.5696(2) -0.2352(2)
H5 H 0.1414(17) 0.587(3) -0.212(3)
H6 H 0.045(3) 0.609(3) -0.278(3)
O8 O 0.4465(2) 0.80307(16) 0.1284(2)
H7 H 0.447(4) 0.7485(18) 0.150(3)
H8 H 0.444(4) 0.793(3) 0.0731(18)
O9 O 0.57494(17) 0.24207(16) 0.06517(18)
H9 H 0.515(2) 0.269(2) 0.043(3)
H10 H 0.576(3) 0.210(2) 0.110(2)
loop_
_geom_bond_atom_site_label_1
_geom_bond_atom_site_label_2
_geom_bond_site_symmetry_1
_geom_bond_site_symmetry_2
Cd1 O1 1_555 1_555
O1 C12 1_555 1_555
O2 Cd1 1_555 1_555
O3 C14 1_555 1_555
O4 C14 1_555 1_555
O5 Cd1 1_555 1_555
H1 O5 1_555 1_555
H2 O5 1_555 1_555
O6 H3 1_555 1_555
H4 O6 1_555 1_555
O7 H5 1_555 1_555
H6 O7 1_555 1_555
O8 H7 1_555 1_555
H8 O8 1_555 1_555
O9 H9 1_555 1_555
H10 O9 1_555 1_555
N1 Cd1 1_555 1_555
N2 Cd1 1_555 1_555
C1 C2 1_555 1_555
C2 H11 1_555 1_555
H12 C2 1_555 1_555
C3 C2 1_555 1_555
C4 C3 1_555 1_555
H13 C4 1_555 1_555
H14 C4 1_555 1_555
C5 C4 1_555 1_555
H15 C5 1_555 1_555
C6 C5 1_555 1_555
H16 C6 1_555 1_555
H17 C6 1_555 1_555
C7 C6 1_555 1_555
H18 C7 1_555 1_555
C8 C1 1_555 1_555
H19 C8 1_555 1_555
H20 C8 1_555 1_555
C9 C1 1_555 1_555
H21 C9 1_555 1_555
H22 C9 1_555 1_555
C10 C3 1_555 1_555
H23 C10 1_555 1_555
H24 C10 1_555 1_555
C11 C1 1_555 1_555
H25 C11 1_555 1_555
H26 C11 1_555 1_555
C12 O2 1_555 1_555
C13 C3 1_555 1_555
H27 C13 1_555 1_555
H28 C13 1_555 1_555
C14 C13 1_555 1_555
C15 N1 1_555 1_555
H29 C15 1_555 1_555
C16 C15 1_555 1_555
H30 C16 1_555 1_555
C17 C16 1_555 1_555
H31 C17 1_555 1_555
C18 C17 1_555 1_555
H32 C18 1_555 1_555
C19 N1 1_555 1_555
C20 N2 1_555 1_555
C21 C20 1_555 1_555
H33 C21 1_555 1_555
C22 C21 1_555 1_555
H34 C22 1_555 1_555
C23 C22 1_555 1_555
H35 C23 1_555 1_555
C24 N2 1_555 1_555
H36 C24 1_555 1_555
Cd1C O3 1_555 1_555
O3C Cd1 1_555 1_555
O4C Cd1 1_555 1_555
O4 Cd1C 1_555 1_555
C5 C9 1_555 1_555
C7 C8 1_555 1_555
C7 C10 1_555 1_555
C11 C12 1_555 1_555
C18 C19 1_555 1_555
C19 C20 1_555 1_555
C23 C24 1_555 1_555

#END
