
#######################################################################
#
#                 Cambridge Crystallographic Data Centre
#                                CCDC 
#
#######################################################################
#
# If this CIF has been generated from an entry in the Cambridge 
# Structural Database, then it will include bibliographic, chemical, 
# crystal, experimental, refinement or atomic coordinate data resulting 
# from the CCDC's data processing and validation procedures.
#
#######################################################################

data_SUMLAO
_symmetry_cell_setting           monoclinic
_symmetry_space_group_name_H-M   'P 21/n'
_symmetry_Int_Tables_number      14
_space_group_name_Hall           '-P 2yn'
loop_
_symmetry_equiv_pos_site_id
_symmetry_equiv_pos_as_xyz
1 x,y,z
2 1/2-x,1/2+y,1/2-z
3 -x,-y,-z
4 1/2+x,1/2-y,1/2+z
_cell_length_a                   8.5634(10)
_cell_length_b                   10.2049(12)
_cell_length_c                   28.090(3)
_cell_angle_alpha                90
_cell_angle_beta                 98.115(2)
_cell_angle_gamma                90
_cell_volume                     2430.17
loop_
_atom_site_label
_atom_site_type_symbol
_atom_site_fract_x
_atom_site_fract_y
_atom_site_fract_z
Cd1 Cd 0.77975(3) 0.83912(3) 0.526994(9)
O1 O 0.8169(3) 0.6020(3) 0.48284(9)
O2 O 0.8900(3) 0.7962(3) 0.45896(10)
O3 O 0.3610(3) 0.5708(3) 0.10768(9)
O4 O 0.5380(3) 0.6582(3) 0.06773(9)
O5 O 0.8088(4) 1.0572(3) 0.50578(17)
N1 N 0.6058(4) 0.7189(4) 0.56304(11)
N2 N 0.5371(4) 0.8146(4) 0.47238(12)
N3 N 0.4036(4) 0.5848(4) 0.55599(12)
C1 C 0.8647(4) 0.6758(4) 0.45228(13)
C2 C 0.8881(4) 0.6209(4) 0.40424(12)
C3 C 0.8569(5) 0.6990(4) 0.36367(13)
H1 H 0.8189 0.7837 0.3663
C4 C 0.8821(5) 0.6514(3) 0.31912(13)
H2 H 0.8581 0.7037 0.2920
C5 C 0.9427(4) 0.5266(3) 0.31463(12)
C6 C 0.9705(4) 0.4483(4) 0.35577(13)
H3 H 1.0092 0.3637 0.3535
C7 C 0.9409(4) 0.4951(4) 0.39971(13)
H4 H 0.9570 0.4409 0.4266
C8 C 0.4984(5) 0.6016(4) 0.10452(13)
C9 C 0.6268(4) 0.5745(4) 0.14573(12)
C10 C 0.5919(4) 0.5124(4) 0.18663(13)
H5 H 0.4892 0.4850 0.1882
C11 C 0.7081(4) 0.4907(3) 0.22515(12)
H6 H 0.6821 0.4510 0.2528
C12 C 0.8636(4) 0.5272(3) 0.22326(12)
C13 C 0.8983(5) 0.5887(4) 0.18179(13)
H7 H 1.0015 0.6139 0.1796
C14 C 0.7803(5) 0.6127(4) 0.14367(13)
H8 H 0.8049 0.6552 0.1164
C15 C 1.0111(5) 0.3399(4) 0.26084(14)
C16 C 0.9897(4) 0.4887(4) 0.26570(12)
C17 C 1.1495(5) 0.5561(5) 0.26355(14)
C18 C 0.5049(6) 0.8660(5) 0.42816(17)
H9 H 0.5680 0.9339 0.4197
C19 C 0.3831(6) 0.8229(6) 0.39481(17)
H10 H 0.3639 0.8612 0.3645
C20 C 0.2900(5) 0.7221(6) 0.40706(16)
H11 H 0.2074 0.6906 0.3850
C21 C 0.3204(5) 0.6682(4) 0.45239(15)
H12 H 0.2593 0.5998 0.4615
C22 C 0.4447(4) 0.7187(4) 0.48404(13)
C23 C 0.4846(4) 0.6729(4) 0.53347(14)
C24 C 0.6008(5) 0.6572(4) 0.60612(16)
H13 H 0.6720 0.6704 0.6339
C25 C 0.4775(5) 0.5747(5) 0.60208(16)
H14 H 0.4482 0.5211 0.6261
F1 F 1.1332(3) 0.6850(3) 0.25981(10)
F2 F 1.2195(3) 0.5164(4) 0.22642(9)
F3 F 1.2523(3) 0.5336(4) 0.30306(10)
F4 F 1.0304(4) 0.3053(3) 0.21642(9)
F5 F 1.1356(3) 0.2921(3) 0.28988(9)
F6 F 0.8849(3) 0.2762(2) 0.27161(9)
H15 H 0.325(4) 0.538(5) 0.5440(18)
H16 H 0.863(8) 1.090(7) 0.524(2)
H17 H 0.843(8) 1.070(7) 0.487(3)
Cd1C Cd 0.27975(3) 0.66088(3) 0.026994(9)
O3C O 0.8610(3) 0.9292(3) 0.60768(9)
O4C O 1.0380(3) 0.8418(3) 0.56773(9)
loop_
_geom_bond_atom_site_label_1
_geom_bond_atom_site_label_2
_geom_bond_site_symmetry_1
_geom_bond_site_symmetry_2
Cd1 O2 1_555 1_555
O1 C1 1_555 1_555
O2 C1 1_555 1_555
O3 C8 1_555 1_555
O4 C8 1_555 1_555
O5 Cd1 1_555 1_555
N1 Cd1 1_555 1_555
N2 Cd1 1_555 1_555
N3 C23 1_555 1_555
C1 C2 1_555 1_555
C2 C3 1_555 1_555
C3 H1 1_555 1_555
C4 C3 1_555 1_555
H2 C4 1_555 1_555
C5 C4 1_555 1_555
C6 C5 1_555 1_555
H3 C6 1_555 1_555
C7 C2 1_555 1_555
H4 C7 1_555 1_555
C8 C9 1_555 1_555
C9 C10 1_555 1_555
C10 H5 1_555 1_555
C11 C10 1_555 1_555
H6 C11 1_555 1_555
C12 C11 1_555 1_555
C13 C12 1_555 1_555
H7 C13 1_555 1_555
C14 C9 1_555 1_555
H8 C14 1_555 1_555
C15 C16 1_555 1_555
C16 C5 1_555 1_555
C17 C16 1_555 1_555
C18 N2 1_555 1_555
H9 C18 1_555 1_555
C19 C18 1_555 1_555
H10 C19 1_555 1_555
C20 C19 1_555 1_555
H11 C20 1_555 1_555
C21 C20 1_555 1_555
H12 C21 1_555 1_555
C22 N2 1_555 1_555
C23 N1 1_555 1_555
C24 N1 1_555 1_555
H13 C24 1_555 1_555
C25 N3 1_555 1_555
H14 C25 1_555 1_555
F1 C17 1_555 1_555
F2 C17 1_555 1_555
F3 C17 1_555 1_555
F4 C15 1_555 1_555
F5 C15 1_555 1_555
F6 C15 1_555 1_555
H15 N3 1_555 1_555
H16 O5 1_555 1_555
H17 O5 1_555 1_555
Cd1C O3 1_555 1_555
O3C Cd1 1_555 1_555
O4C Cd1 1_555 1_555
O4 Cd1C 1_555 1_555
C6 C7 1_555 1_555
C12 C16 1_555 1_555
C13 C14 1_555 1_555
C21 C22 1_555 1_555
C22 C23 1_555 1_555
C24 C25 1_555 1_555

#END
