
#######################################################################
#
#                 Cambridge Crystallographic Data Centre
#                                CCDC 
#
#######################################################################
#
# If this CIF has been generated from an entry in the Cambridge 
# Structural Database, then it will include bibliographic, chemical, 
# crystal, experimental, refinement or atomic coordinate data resulting 
# from the CCDC's data processing and validation procedures.
#
#######################################################################

data_SUMMET
_symmetry_cell_setting           triclinic
_symmetry_space_group_name_H-M   'P -1'
_symmetry_Int_Tables_number      2
_space_group_name_Hall           '-P 1'
loop_
_symmetry_equiv_pos_site_id
_symmetry_equiv_pos_as_xyz
1 x,y,z
2 -x,-y,-z
_cell_length_a                   8.7409(1)
_cell_length_b                   12.3049(2)
_cell_length_c                   12.7079(2)
_cell_angle_alpha                76.039(1)
_cell_angle_beta                 78.285(1)
_cell_angle_gamma                84.489(1)
_cell_volume                     1297.21
loop_
_atom_site_label
_atom_site_type_symbol
_atom_site_fract_x
_atom_site_fract_y
_atom_site_fract_z
C1 C 0.5234(3) 0.8081(2) -0.0584(2)
C2 C 0.4470(3) 0.7026(2) -0.0555(2)
H1 H 0.3856 0.7166 -0.1134
H2 H 0.5267 0.6443 -0.0684
C3 C 0.2641(3) 0.5729(2) 0.0617(2)
C4 C 0.2604(3) 0.5196(2) -0.0217(3)
H3 H 0.3163 0.5462 -0.0924
C5 C 0.1722(4) 0.4258(2) 0.0012(3)
H4 H 0.1701 0.3892 -0.0544
C6 C 0.0894(4) 0.3872(2) 0.1035(3)
H5 H 0.0311 0.3242 0.1174
C7 C 0.0904(4) 0.4401(2) 0.1877(3)
H6 H 0.0318 0.4138 0.2576
C8 C 0.1796(3) 0.5327(2) 0.1667(2)
C9 C 0.1693(4) 0.5228(3) 0.3568(2)
H7 H 0.2103 0.4466 0.3577
H8 H 0.0578 0.5208 0.3861
C10 C 0.2486(3) 0.5726(2) 0.4273(2)
C11 C 0.5154(3) 0.9682(2) 0.2883(2)
C12 C 0.3877(3) 0.9509(2) 0.3902(2)
H9 H 0.4294 0.9070 0.4534
H10 H 0.3473 1.0227 0.4057
C13 C 0.1396(3) 0.8676(2) 0.4566(2)
C14 C 0.1300(3) 0.8843(2) 0.5606(2)
H11 H 0.2118 0.9158 0.5776
C15 C -0.0025(3) 0.8539(2) 0.6405(2)
H12 H -0.0092 0.8649 0.7111
C16 C -0.1238(3) 0.8075(2) 0.6154(2)
H13 H -0.2118 0.7868 0.6692
C17 C -0.1150(3) 0.7914(2) 0.5099(2)
H14 H -0.1975 0.7608 0.4927
C18 C 0.0167(3) 0.8210(2) 0.43045(19)
C19 C -0.0969(3) 0.7883(2) 0.2837(2)
H15 H -0.1792 0.8441 0.2991
H16 H -0.1350 0.7148 0.3213
C20 C -0.0553(3) 0.79612(19) 0.1603(2)
Nd1 Nd 0.313148(13) 0.790568(10) 0.202193(10)
O1 O 0.4654(2) 0.86281(14) 0.01531(14)
O2 O 0.6334(2) 0.83597(16) -0.13472(16)
O3 O 0.3486(2) 0.66651(14) 0.04887(15)
O4 O 0.1957(2) 0.58866(14) 0.24627(15)
O5 O 0.3113(2) 0.66463(15) 0.38417(15)
O6 O 0.2448(3) 0.5171(2) 0.52323(18)
O7 O 0.5071(2) 0.91454(14) 0.21667(14)
O8 O 0.6204(2) 1.03055(18) 0.28442(17)
O9 O 0.2657(2) 0.89370(15) 0.37081(14)
O10 O 0.03863(19) 0.80649(16) 0.32327(14)
O11 O 0.08696(19) 0.80337(14) 0.11407(14)
O12 O -0.1653(2) 0.79597(15) 0.11255(15)
O13 O 0.5634(2) 0.68351(16) 0.19737(17)
O14 O 0.2105(2) 0.99150(14) 0.13730(15)
O15 O 0.8873(3) 1.05855(19) 0.11047(19)
Na1 Na 0.68265(12) 0.95851(9) 0.05352(8)
H17 H 0.653(3) 0.724(3) 0.179(3)
H18 H 0.107(2) 1.010(3) 0.134(4)
H19 H 0.255(4) 1.052(3) 0.148(3)
H20 H 0.585(4) 0.6131(19) 0.239(3)
H21 H 0.911(5) 1.122(2) 0.057(2)
H22 H 0.813(4) 1.072(3) 0.169(2)
O1A O 0.5346(2) 1.13719(14) -0.01531(14)
O12_2 O 0.8347(2) 0.79597(15) 0.11255(15)
O14A O 0.7895(2) 1.00850(14) -0.13730(15)
Na1A Na 0.31735(12) 1.04149(9) -0.05352(8)
Na1_2 Na -0.31735(12) 0.95851(9) 0.05352(8)
H18A H 0.893(2) 0.990(3) -0.134(4)
H19A H 0.745(4) 0.948(3) -0.148(3)
O16 O 0.5670(3) 0.6922(2) 0.4709(2)
H23 H 0.620(4) 0.624(2) 0.486(4)
H24 H 0.476(3) 0.684(3) 0.446(3)
O17 O 0.6327(4) 0.4723(2) 0.2974(2)
H25 H 0.596(5) 0.404(2) 0.298(3)
H26 H 0.673(5) 0.467(3) 0.362(2)
O18 O 0.5229(5) 0.2611(3) 0.3222(3)
H27 H 0.499(5) 0.263(3) 0.4006(18)
H28 H 0.545(5) 0.1803(18) 0.324(3)
loop_
_geom_bond_atom_site_label_1
_geom_bond_atom_site_label_2
_geom_bond_site_symmetry_1
_geom_bond_site_symmetry_2
C1 C2 1_555 1_555
C2 H1 1_555 1_555
H2 C2 1_555 1_555
C3 C4 1_555 1_555
C4 H3 1_555 1_555
C5 C4 1_555 1_555
H4 C5 1_555 1_555
C6 C5 1_555 1_555
H5 C6 1_555 1_555
C7 C6 1_555 1_555
H6 C7 1_555 1_555
C8 C3 1_555 1_555
C9 H7 1_555 1_555
H8 C9 1_555 1_555
C10 C9 1_555 1_555
C11 C12 1_555 1_555
C12 H9 1_555 1_555
H10 C12 1_555 1_555
C13 C14 1_555 1_555
C14 H11 1_555 1_555
C15 C14 1_555 1_555
H12 C15 1_555 1_555
C16 C15 1_555 1_555
H13 C16 1_555 1_555
C17 C16 1_555 1_555
H14 C17 1_555 1_555
C18 C13 1_555 1_555
C19 H15 1_555 1_555
H16 C19 1_555 1_555
C20 C19 1_555 1_555
Nd1 O1 1_555 1_555
O1 C1 1_555 1_555
O2 C1 1_555 1_555
O3 C2 1_555 1_555
O4 C8 1_555 1_555
O5 C10 1_555 1_555
O6 C10 1_555 1_555
O7 C11 1_555 1_555
O8 C11 1_555 1_555
O9 C12 1_555 1_555
O10 C18 1_555 1_555
O11 C20 1_555 1_555
O12 C20 1_555 1_555
O13 Nd1 1_555 1_555
O14 Nd1 1_555 1_555
O15 Na1 1_555 1_555
Na1 O1 1_555 1_555
H17 O13 1_555 1_555
H18 O14 1_555 1_555
H19 O14 1_555 1_555
H20 O13 1_555 1_555
H21 O15 1_555 1_555
H22 O15 1_555 1_555
O16 H23 1_555 1_555
H24 O16 1_555 1_555
O17 H25 1_555 1_555
H26 O17 1_555 1_555
O18 H27 1_555 1_555
H28 O18 1_555 1_555
O1A Na1 1_555 1_555
O12_2 Na1 1_555 1_555
O14A Na1 1_555 1_555
Na1A O1 1_555 1_555
Na1_2 O12 1_555 1_555
H18A O14A 1_555 1_555
H19A O14A 1_555 1_555
C3 O3 1_555 1_555
C7 C8 1_555 1_555
C9 O4 1_555 1_555
C13 O9 1_555 1_555
C17 C18 1_555 1_555
C19 O10 1_555 1_555
Nd1 O3 1_555 1_555
Nd1 O4 1_555 1_555
Nd1 O5 1_555 1_555
Nd1 O7 1_555 1_555
Nd1 O9 1_555 1_555
Nd1 O10 1_555 1_555
Nd1 O11 1_555 1_555
O7 Na1 1_555 1_555
O14 Na1A 1_555 1_555
O1A Na1A 1_555 1_555

#END
