
#######################################################################
#
#                 Cambridge Crystallographic Data Centre
#                                CCDC 
#
#######################################################################
#
# If this CIF has been generated from an entry in the Cambridge 
# Structural Database, then it will include bibliographic, chemical, 
# crystal, experimental, refinement or atomic coordinate data resulting 
# from the CCDC's data processing and validation procedures.
#
#######################################################################

data_SUMMET01
_symmetry_cell_setting           triclinic
_symmetry_space_group_name_H-M   'P -1'
_symmetry_Int_Tables_number      2
_space_group_name_Hall           '-P 1'
loop_
_symmetry_equiv_pos_site_id
_symmetry_equiv_pos_as_xyz
1 x,y,z
2 -x,-y,-z
_cell_length_a                   8.6982(3)
_cell_length_b                   12.2202(4)
_cell_length_c                   12.7016(5)
_cell_angle_alpha                75.8850(10)
_cell_angle_beta                 78.1090(10)
_cell_angle_gamma                83.6120(10)
_cell_volume                     1278.59
loop_
_atom_site_label
_atom_site_type_symbol
_atom_site_fract_x
_atom_site_fract_y
_atom_site_fract_z
Nd1 Nd 0.315477(11) 0.291096(8) 0.201714(8)
Na1 Na 0.31702(9) 0.54175(6) -0.05187(6)
C1 C 0.0170(2) 0.32131(15) 0.43000(14)
O1 O 0.03949(14) 0.30777(11) 0.32207(10)
C2 C -0.0959(2) 0.28700(17) 0.28298(15)
H1 H -0.1835 0.3429 0.2995
H2 H -0.1307 0.2105 0.3209
C3 C -0.0534(2) 0.29622(14) 0.15899(14)
O2 O 0.08933(14) 0.30450(11) 0.11250(10)
O3 O -0.16482(15) 0.29402(11) 0.11181(11)
C4 C 0.1411(2) 0.36793(15) 0.45588(14)
O4 O 0.26641(14) 0.39487(11) 0.37006(10)
C5 C 0.3883(2) 0.45255(16) 0.39022(15)
H3 H 0.4324 0.4068 0.4542
H4 H 0.3452 0.5262 0.4069
C6 C 0.5157(2) 0.47076(15) 0.28748(15)
O5 O 0.50920(15) 0.41712(11) 0.21530(10)
O6 O 0.61931(16) 0.53531(12) 0.28339(12)
C7 C 0.1310(2) 0.38333(16) 0.56160(15)
H5 H 0.2145 0.4149 0.5796
C8 C -0.0022(2) 0.35222(16) 0.64133(15)
H6 H -0.0093 0.3628 0.7139
C9 C -0.1244(2) 0.30595(16) 0.61595(15)
H7 H -0.2142 0.2842 0.6712
C10 C -0.1156(2) 0.29122(16) 0.50922(15)
H8 H -0.2001 0.2608 0.4911
C11 C 0.2670(2) 0.07384(15) 0.06014(16)
O7 O 0.35325(15) 0.16623(11) 0.04789(11)
C12 C 0.4493(2) 0.20325(16) -0.05800(15)
H9 H 0.3839 0.2196 -0.1159
H10 H 0.5308 0.1429 -0.0733
C13 C 0.5271(2) 0.30860(14) -0.05996(14)
O8 O 0.46948(15) 0.36326(11) 0.01474(10)
O9 O 0.63885(16) 0.33545(11) -0.13664(11)
C14 C 0.1825(2) 0.03339(15) 0.16567(15)
O10 O 0.19698(16) 0.08908(11) 0.24578(11)
C15 C 0.1711(3) 0.02148(18) 0.35633(16)
H11 H 0.2148 -0.0569 0.3565
H12 H 0.0567 0.0193 0.3862
C16 C 0.2498(2) 0.07107(17) 0.42775(16)
O11 O 0.31265(15) 0.16394(11) 0.38497(11)
O12 O 0.2450(2) 0.01514(13) 0.52449(12)
C17 C 0.0909(2) -0.05883(16) 0.18706(17)
H13 H 0.0303 -0.0847 0.2585
C18 C 0.0893(2) -0.11270(17) 0.10256(18)
H14 H 0.0292 -0.1768 0.1168
C19 C 0.1741(2) -0.07349(17) -0.00126(18)
H15 H 0.172 -0.1106 -0.0585
C20 C 0.2634(2) 0.02022(17) -0.02356(17)
H16 H 0.3214 0.0471 -0.0957
O13 O 0.20820(16) 0.49193(11) 0.13735(11)
H17 H 0.1213(19) 0.509(2) 0.136(2)
H18 H 0.252(2) 0.5448(17) 0.143(2)
O14 O 0.56613(16) 0.18263(12) 0.19922(13)
H19 H 0.582(3) 0.1189(14) 0.2321(19)
H20 H 0.646(2) 0.2123(18) 0.180(2)
O15 O 0.11489(18) 0.44427(13) -0.11041(13)
H21 H 0.172(2) 0.429(2) -0.1643(15)
H22 H 0.095(3) 0.3897(17) -0.0621(16)
Na1A Na -0.31702(9) 0.45825(6) 0.05187(6)
Na1A_2 Na 0.68298(9) 0.45825(6) 0.05187(6)
O3A O 0.16482(15) 0.70598(11) -0.11181(11)
O5A O 0.49080(15) 0.58288(11) -0.21530(10)
O8A O 0.53052(15) 0.63674(11) -0.01474(10)
O16 O 0.5143(2) -0.23769(16) 0.32362(15)
H23 H 0.490(5) -0.244(2) 0.3945(15)
H24 H 0.544(4) -0.3058(19) 0.320(3)
O17 O 0.6377(3) -0.03034(15) 0.29616(15)
H25 H 0.594(3) -0.0820(19) 0.299(2)
H26 H 0.667(4) -0.035(3) 0.3538(19)
O18 O 0.43184(19) -0.19485(15) 0.53148(14)
H27 H 0.511(2) -0.185(2) 0.552(2)
H28 H 0.386(2) -0.1351(15) 0.520(2)
loop_
_geom_bond_atom_site_label_1
_geom_bond_atom_site_label_2
_geom_bond_site_symmetry_1
_geom_bond_site_symmetry_2
Nd1 O1 1_555 1_555
Na1 O8 1_555 1_555
C1 O1 1_555 1_555
O1 C2 1_555 1_555
C2 H1 1_555 1_555
H2 C2 1_555 1_555
C3 C2 1_555 1_555
O2 Nd1 1_555 1_555
O3 C3 1_555 1_555
C4 C1 1_555 1_555
O4 Nd1 1_555 1_555
C5 O4 1_555 1_555
H3 C5 1_555 1_555
H4 C5 1_555 1_555
C6 C5 1_555 1_555
O5 Nd1 1_555 1_555
O6 C6 1_555 1_555
C7 C4 1_555 1_555
H5 C7 1_555 1_555
C8 C7 1_555 1_555
H6 C8 1_555 1_555
C9 C8 1_555 1_555
H7 C9 1_555 1_555
C10 C1 1_555 1_555
H8 C10 1_555 1_555
C11 O7 1_555 1_555
O7 Nd1 1_555 1_555
C12 O7 1_555 1_555
H9 C12 1_555 1_555
H10 C12 1_555 1_555
C13 C12 1_555 1_555
O8 Nd1 1_555 1_555
O9 C13 1_555 1_555
C14 C11 1_555 1_555
O10 Nd1 1_555 1_555
C15 O10 1_555 1_555
H11 C15 1_555 1_555
H12 C15 1_555 1_555
C16 C15 1_555 1_555
O11 Nd1 1_555 1_555
O12 C16 1_555 1_555
C17 C14 1_555 1_555
H13 C17 1_555 1_555
C18 C17 1_555 1_555
H14 C18 1_555 1_555
C19 C18 1_555 1_555
H15 C19 1_555 1_555
C20 C11 1_555 1_555
H16 C20 1_555 1_555
O13 Nd1 1_555 1_555
H17 O13 1_555 1_555
H18 O13 1_555 1_555
O14 Nd1 1_555 1_555
H19 O14 1_555 1_555
H20 O14 1_555 1_555
O15 Na1 1_555 1_555
H21 O15 1_555 1_555
H22 O15 1_555 1_555
O16 H23 1_555 1_555
H24 O16 1_555 1_555
O17 H25 1_555 1_555
H26 O17 1_555 1_555
O18 H27 1_555 1_555
H28 O18 1_555 1_555
Na1A O3 1_555 1_555
Na1A_2 O5 1_555 1_555
O3A Na1 1_555 1_555
O5A Na1 1_555 1_555
O8A Na1 1_555 1_555
Na1 O13 1_555 1_555
C3 O2 1_555 1_555
C4 O4 1_555 1_555
C6 O5 1_555 1_555
C9 C10 1_555 1_555
C13 O8 1_555 1_555
O8 Na1A_2 1_555 1_555
C14 O10 1_555 1_555
C16 O11 1_555 1_555
C19 C20 1_555 1_555
Na1A_2 O8A 1_555 1_555

#END
