
#######################################################################
#
#                 Cambridge Crystallographic Data Centre
#                                CCDC 
#
#######################################################################
#
# If this CIF has been generated from an entry in the Cambridge 
# Structural Database, then it will include bibliographic, chemical, 
# crystal, experimental, refinement or atomic coordinate data resulting 
# from the CCDC's data processing and validation procedures.
#
#######################################################################

data_SUMNUK
_symmetry_cell_setting           triclinic
_symmetry_space_group_name_H-M   'P -1'
_symmetry_Int_Tables_number      2
_space_group_name_Hall           '-P 1'
loop_
_symmetry_equiv_pos_site_id
_symmetry_equiv_pos_as_xyz
1 x,y,z
2 -x,-y,-z
_cell_length_a                   8.9085(18)
_cell_length_b                   9.854(2)
_cell_length_c                   13.963(3)
_cell_angle_alpha                85.71(3)
_cell_angle_beta                 80.14(3)
_cell_angle_gamma                86.56(3)
_cell_volume                     1202.85
loop_
_atom_site_label
_atom_site_type_symbol
_atom_site_fract_x
_atom_site_fract_y
_atom_site_fract_z
Ni1 Ni 0.5000 1.0000 0.5000
N1 N 0.5941(2) 0.79917(18) 0.52551(13)
N2 N 0.7153(2) 0.59988(19) 0.49066(14)
O1 O 0.53529(18) 0.96580(15) 0.35468(10)
O2 O 0.3152(2) 0.88706(19) 0.33440(12)
O3 O 0.71090(19) 1.0884(2) 0.48002(13)
C1 C 0.4478(3) 0.9236(2) 0.30324(15)
C2 C 0.5066(3) 0.9187(2) 0.19475(16)
H2 H 0.4871 0.8299 0.1750
H3 H 0.4479 0.9861 0.1604
C3 C 0.6721(4) 0.9432(3) 0.1627(2)
H4 H 0.7314 0.8784 0.1986
H5 H 0.6914 1.0339 0.1790
C4 C 0.7273(4) 0.9306(3) 0.0530(2)
H6 H 0.6652 0.9923 0.0168
H7 H 0.8318 0.9581 0.0364
C5 C 0.7193(3) 0.7889(3) 0.02309(16)
C6 C 0.6105(3) 0.7402(3) -0.02793(18)
H8 H 0.5274 0.7953 -0.0516
C7 C 0.6441(4) 0.6006(3) -0.0412(2)
H9 H 0.5877 0.5413 -0.0742
C8 C 0.7699(4) 0.5614(3) 0.0034(2)
H10 H 0.8185 0.4696 0.0062
C9 C 0.8164(3) 0.6755(3) 0.04204(19)
H11 H 0.9036 0.6768 0.0762
C10 C 0.9302(4) 0.8612(3) -0.1913(2)
H12 H 0.9248 0.9576 -0.1774
C11 C 0.8311(4) 0.7989(3) -0.2411(2)
H13 H 0.7448 0.8440 -0.2678
C12 C 0.8779(3) 0.6612(3) -0.24551(18)
H14 H 0.8297 0.5925 -0.2757
C13 C 1.0053(3) 0.6379(3) -0.19835(19)
H15 H 1.0616 0.5504 -0.1905
C14 C 1.0382(3) 0.7618(3) -0.1645(2)
H16 H 1.1218 0.7766 -0.1296
C15 C 0.6946(3) 0.7328(2) 0.46361(16)
H17 H 0.7466 0.7739 0.4064
C16 C 0.5443(2) 0.7022(2) 0.60011(16)
C17 C 0.4402(3) 0.7133(2) 0.68536(17)
H18 H 0.3897 0.7961 0.7010
C18 C 0.4140(3) 0.5977(3) 0.7461(2)
H19 H 0.3470 0.6034 0.8047
C19 C 0.4857(3) 0.4724(3) 0.7219(2)
H20 H 0.4631 0.3961 0.7641
C20 C 0.5883(3) 0.4580(3) 0.6379(2)
H21 H 0.6350 0.3739 0.6216
C21 C 0.6187(2) 0.5762(2) 0.57810(16)
C22 C 0.8196(3) 0.4996(3) 0.43758(19)
H22 H 0.8638 0.5412 0.3747
H23 H 0.7620 0.4236 0.4261
C23 C 0.9481(3) 0.4459(2) 0.4923(2)
H24 H 0.9036 0.4046 0.5552
H25 H 1.0082 0.3753 0.4561
C24 C 0.8486(3) 1.0607(3) 0.4185(2)
H26 H 0.9230 1.1222 0.4291
H27 H 0.8333 1.0724 0.3519
H28 H 0.8842 0.9686 0.4323
Fe1 Fe 0.82432(4) 0.70974(3) -0.10364(2)
H32 H 0.719(4) 1.100(3) 0.537(2)
Ni1_2 Ni 1.5000 0.0000 0.5000
N1A N 1.4059(2) 0.20083(18) 0.47449(13)
N1A_2 N 0.4059(2) 1.20083(18) 0.47449(13)
N2A N 1.2847(2) 0.40012(19) 0.50934(14)
O1A O 0.46471(18) 1.03420(15) 0.64532(10)
O2A O 0.6848(2) 1.11294(19) 0.66560(12)
O3A O 0.28910(19) 0.9116(2) 0.51998(13)
C1A C 0.5522(3) 1.0764(2) 0.69676(15)
C2A C 0.4934(3) 1.0813(2) 0.80525(16)
H2A H 0.5129 1.1701 0.8250
H3A H 0.5521 1.0139 0.8396
C3A C 0.3279(4) 1.0568(3) 0.8373(2)
H4A H 0.2686 1.1216 0.8014
H5A H 0.3086 0.9661 0.8210
C4A C 0.2727(4) 1.0694(3) 0.9470(2)
H6A H 0.3348 1.0077 0.9832
H7A H 0.1682 1.0419 0.9636
C5A C 0.2807(3) 1.2111(3) 0.97691(16)
C6A C 0.3895(3) 1.2598(3) 1.02793(18)
H8A H 0.4726 1.2047 1.0516
C7A C 0.3559(4) 1.3994(3) 1.0412(2)
H9A H 0.4123 1.4587 1.0742
C8A C 0.2301(4) 1.4386(3) 0.9966(2)
H10A H 0.1815 1.5304 0.9938
C9A C 0.1836(3) 1.3245(3) 0.95796(19)
H11A H 0.0964 1.3232 0.9238
C10A C 0.0698(4) 1.1388(3) 1.1913(2)
H12A H 0.0752 1.0424 1.1774
C11A C 0.1689(4) 1.2011(3) 1.2411(2)
H13A H 0.2552 1.1560 1.2678
C12A C 0.1221(3) 1.3388(3) 1.24551(18)
H14A H 0.1703 1.4075 1.2757
C13A C -0.0053(3) 1.3621(3) 1.19835(19)
H15A H -0.0616 1.4496 1.1905
C14A C -0.0382(3) 1.2382(3) 1.1645(2)
H16A H -0.1218 1.2234 1.1296
C15A C 1.3054(3) 0.2672(2) 0.53639(16)
H17A H 1.2534 0.2261 0.5936
C16A C 1.4557(2) 0.2978(2) 0.39989(16)
C17A C 1.5598(3) 0.2867(2) 0.31464(17)
H18A H 1.6103 0.2039 0.2990
C18A C 1.5860(3) 0.4023(3) 0.2539(2)
H19A H 1.6530 0.3966 0.1953
C19A C 1.5143(3) 0.5276(3) 0.2781(2)
H20A H 1.5369 0.6039 0.2359
C20A C 1.4117(3) 0.5420(3) 0.3621(2)
H21A H 1.3650 0.6261 0.3784
C21A C 1.3813(2) 0.4238(2) 0.42190(16)
C22A C 1.1804(3) 0.5004(3) 0.56242(19)
H22A H 1.1362 0.4588 0.6253
H23A H 1.2380 0.5764 0.5739
C23A C 1.0519(3) 0.5541(2) 0.5077(2)
H24A H 1.0964 0.5954 0.4448
H25A H 0.9918 0.6247 0.5439
C24A C 0.1514(3) 0.9393(3) 0.5815(2)
H26A H 0.0770 0.8778 0.5709
H27A H 0.1667 0.9276 0.6481
H28A H 0.1158 1.0314 0.5677
Fe1A Fe 0.17568(4) 1.29026(3) 1.10364(2)
H32A H 0.281(4) 0.900(3) 0.463(2)
O4 O 0.9206(4) 0.2250(4) 0.7325(4)
H1 H 0.8570 0.1909 0.7069
C25 C 0.8518(8) 0.2745(5) 0.8185(5)
H29 H 0.9138 0.3413 0.8368
H30 H 0.8394 0.2012 0.8681
H31 H 0.7537 0.3157 0.8113
loop_
_geom_bond_atom_site_label_1
_geom_bond_atom_site_label_2
_geom_bond_site_symmetry_1
_geom_bond_site_symmetry_2
Ni1 N1 1_555 1_555
N1 C15 1_555 1_555
N2 C15 1_555 1_555
O1 Ni1 1_555 1_555
O2 C1 1_555 1_555
O3 Ni1 1_555 1_555
O4 H1 1_555 1_555
C1 O1 1_555 1_555
C2 C1 1_555 1_555
H2 C2 1_555 1_555
H3 C2 1_555 1_555
C3 C2 1_555 1_555
H4 C3 1_555 1_555
H5 C3 1_555 1_555
C4 C3 1_555 1_555
H6 C4 1_555 1_555
H7 C4 1_555 1_555
C5 C4 1_555 1_555
C6 C5 1_555 1_555
H8 C6 1_555 1_555
C7 C6 1_555 1_555
H9 C7 1_555 1_555
C8 C7 1_555 1_555
H10 C8 1_555 1_555
C9 C5 1_555 1_555
H11 C9 1_555 1_555
C10 H12 1_555 1_555
C11 C10 1_555 1_555
H13 C11 1_555 1_555
C12 C11 1_555 1_555
H14 C12 1_555 1_555
C13 C12 1_555 1_555
H15 C13 1_555 1_555
C14 C10 1_555 1_555
H16 C14 1_555 1_555
C15 H17 1_555 1_555
C16 N1 1_555 1_555
C17 C16 1_555 1_555
H18 C17 1_555 1_555
C18 C17 1_555 1_555
H19 C18 1_555 1_555
C19 C18 1_555 1_555
H20 C19 1_555 1_555
C20 C19 1_555 1_555
H21 C20 1_555 1_555
C21 N2 1_555 1_555
C22 N2 1_555 1_555
H22 C22 1_555 1_555
H23 C22 1_555 1_555
C23 C22 1_555 1_555
H24 C23 1_555 1_555
H25 C23 1_555 1_555
C24 O3 1_555 1_555
H26 C24 1_555 1_555
H27 C24 1_555 1_555
H28 C24 1_555 1_555
C25 O4 1_555 1_555
H29 C25 1_555 1_555
H30 C25 1_555 1_555
H31 C25 1_555 1_555
Fe1 C5 1_555 1_555
H32 O3 1_555 1_555
Ni1_2 N1A 1_555 1_555
N1A C15A 1_555 1_555
N1A_2 Ni1 1_555 1_555
N2A C15A 1_555 1_555
O1A Ni1 1_555 1_555
O2A C1A 1_555 1_555
O3A Ni1 1_555 1_555
C1A O1A 1_555 1_555
C2A C1A 1_555 1_555
H2A C2A 1_555 1_555
H3A C2A 1_555 1_555
C3A C2A 1_555 1_555
H4A C3A 1_555 1_555
H5A C3A 1_555 1_555
C4A C3A 1_555 1_555
H6A C4A 1_555 1_555
H7A C4A 1_555 1_555
C5A C4A 1_555 1_555
C6A C5A 1_555 1_555
H8A C6A 1_555 1_555
C7A C6A 1_555 1_555
H9A C7A 1_555 1_555
C8A C7A 1_555 1_555
H10A C8A 1_555 1_555
C9A C5A 1_555 1_555
H11A C9A 1_555 1_555
C10A H12A 1_555 1_555
C11A C10A 1_555 1_555
H13A C11A 1_555 1_555
C12A C11A 1_555 1_555
H14A C12A 1_555 1_555
C13A C12A 1_555 1_555
H15A C13A 1_555 1_555
C14A C10A 1_555 1_555
H16A C14A 1_555 1_555
C15A H17A 1_555 1_555
C16A N1A 1_555 1_555
C17A C16A 1_555 1_555
H18A C17A 1_555 1_555
C18A C17A 1_555 1_555
H19A C18A 1_555 1_555
C19A C18A 1_555 1_555
H20A C19A 1_555 1_555
C20A C19A 1_555 1_555
H21A C20A 1_555 1_555
C21A N2A 1_555 1_555
C22A N2A 1_555 1_555
H22A C22A 1_555 1_555
H23A C22A 1_555 1_555
C23A C23 1_555 1_555
H24A C23A 1_555 1_555
H25A C23A 1_555 1_555
C24A O3A 1_555 1_555
H26A C24A 1_555 1_555
H27A C24A 1_555 1_555
H28A C24A 1_555 1_555
Fe1A C5A 1_555 1_555
H32A O3A 1_555 1_555
C6 Fe1 1_555 1_555
C7 Fe1 1_555 1_555
C8 C9 1_555 1_555
C8 Fe1 1_555 1_555
C9 Fe1 1_555 1_555
C10 Fe1 1_555 1_555
C11 Fe1 1_555 1_555
C12 Fe1 1_555 1_555
C13 C14 1_555 1_555
C13 Fe1 1_555 1_555
C14 Fe1 1_555 1_555
C16 C21 1_555 1_555
C20 C21 1_555 1_555
C6A Fe1A 1_555 1_555
C7A Fe1A 1_555 1_555
C8A C9A 1_555 1_555
C8A Fe1A 1_555 1_555
C9A Fe1A 1_555 1_555
C10A Fe1A 1_555 1_555
C11A Fe1A 1_555 1_555
C12A Fe1A 1_555 1_555
C13A C14A 1_555 1_555
C13A Fe1A 1_555 1_555
C14A Fe1A 1_555 1_555
C16A C21A 1_555 1_555
C20A C21A 1_555 1_555
C22A C23A 1_555 1_555

#END
