
#######################################################################
#
#                 Cambridge Crystallographic Data Centre
#                                CCDC 
#
#######################################################################
#
# If this CIF has been generated from an entry in the Cambridge 
# Structural Database, then it will include bibliographic, chemical, 
# crystal, experimental, refinement or atomic coordinate data resulting 
# from the CCDC's data processing and validation procedures.
#
#######################################################################

data_SUMPOH
_symmetry_cell_setting           monoclinic
_symmetry_space_group_name_H-M   'P 21/c'
_symmetry_Int_Tables_number      14
_space_group_name_Hall           '-P 2ybc'
loop_
_symmetry_equiv_pos_site_id
_symmetry_equiv_pos_as_xyz
1 x,y,z
2 -x,1/2+y,1/2-z
3 -x,-y,-z
4 x,1/2-y,1/2+z
_cell_length_a                   14.0368(9)
_cell_length_b                   7.9837(3)
_cell_length_c                   17.5127(11)
_cell_angle_alpha                90
_cell_angle_beta                 106.580(3)
_cell_angle_gamma                90
_cell_volume                     1880.97
loop_
_atom_site_label
_atom_site_type_symbol
_atom_site_fract_x
_atom_site_fract_y
_atom_site_fract_z
Zn1 Zn 0.34491(3) -0.66621(5) 0.46919(2)
Zn2 Zn 0.10121(3) -0.13364(5) 0.32783(2)
O1 O 0.07929(19) -0.7837(4) 0.50052(17)
O2 O 0.23945(17) -0.7218(3) 0.52383(14)
O3 O 0.21340(16) -0.5668(3) 0.38450(13)
O4 O 0.13180(16) -0.3407(3) 0.42260(14)
O5 O 0.0081(2) -0.3206(4) 0.27544(17)
O6 O -0.07111(17) -0.5538(3) 0.28604(15)
O7 O 0.54145(17) -0.3341(3) 0.42373(14)
O8 O 0.43659(17) -0.5476(3) 0.41377(14)
O9 O 0.31408(16) -0.3660(3) 0.47531(13)
O10 O 0.24281(16) -0.2774(3) 0.34426(13)
O11 O 0.20675(17) 0.0288(3) 0.38813(16)
O12 O 0.36698(17) 0.0989(3) 0.43074(15)
O13 O 0.0040(2) -0.0393(3) 0.38816(19)
H1 H 0.0363 -0.0173 0.4360
H2 H -0.0404 -0.1120 0.3877
C1 C 0.1495(2) -0.7180(4) 0.4812(2)
C2 C 0.1258(2) -0.6299(4) 0.40035(19)
H3 H 0.0915 -0.7074 0.3580
C3 C 0.0615(2) -0.4726(4) 0.39821(19)
H4 H 0.0218 -0.4842 0.4357
C4 C -0.0062(2) -0.4445(4) 0.3136(2)
C5 C 0.4608(2) -0.3965(4) 0.42791(17)
C6 C 0.3877(2) -0.2776(4) 0.45083(18)
H5 H 0.4237 -0.2015 0.4932
C7 C 0.3281(2) -0.1766(4) 0.37801(18)
H6 H 0.3670 -0.1645 0.3399
C8 C 0.2978(2) -0.0025(4) 0.40112(19)
B1 B 0.2261(3) -0.3880(4) 0.4076(2)
Zn1_2 Zn 0.34491(3) 0.33379(5) 0.46919(2)
Zn1B Zn 0.65509(3) -0.33379(5) 0.53081(2)
Zn2A Zn -0.10121(3) -0.63364(5) 0.17217(2)
O6A O 0.07111(17) -0.0538(3) 0.21396(15)
O7B O 0.45855(17) -0.6659(3) 0.57627(14)
O12_2 O 0.36698(17) -0.9011(3) 0.43074(15)
C9 C 0.4458(6) 0.6387(13) 0.1849(5)
H7 H 0.4965 0.6841 0.1639
H8 H 0.4758 0.5684 0.2298
H9 H 0.4107 0.7286 0.2014
C10 C 0.3771(4) 0.5411(8) 0.1240(4)
H10 H 0.4142 0.4537 0.1067
H11 H 0.3491 0.6133 0.0786
C11 C 0.1850(6) 0.7099(10) 0.1076(5)
H12 H 0.1431 0.7851 0.1262
H13 H 0.1467 0.6558 0.0598
H14 H 0.2384 0.7718 0.0969
C12 C 0.2268(5) 0.5807(9) 0.1702(4)
H15 H 0.2634 0.6369 0.2188
H16 H 0.1723 0.5204 0.1813
C13 C 0.2597(6) 0.2123(9) 0.2202(4)
H17 H 0.2896 0.1341 0.2617
H18 H 0.2335 0.1531 0.1709
H19 H 0.2068 0.2708 0.2335
C14 C 0.3340(7) 0.3319(10) 0.2116(4)
H20 H 0.3876 0.2719 0.1988
H21 H 0.3617 0.3887 0.2620
N1 N 0.2925(3) 0.4604(4) 0.14779(19)
H22 H 0.2551 0.4040 0.1044
loop_
_geom_bond_atom_site_label_1
_geom_bond_atom_site_label_2
_geom_bond_site_symmetry_1
_geom_bond_site_symmetry_2
Zn1 O2 1_555 1_555
Zn2 O4 1_555 1_555
O1 C1 1_555 1_555
O2 C1 1_555 1_555
O3 Zn1 1_555 1_555
O4 C3 1_555 1_555
O5 Zn2 1_555 1_555
O6 C4 1_555 1_555
O7 C5 1_555 1_555
O8 Zn1 1_555 1_555
O9 Zn1 1_555 1_555
O10 Zn2 1_555 1_555
O11 Zn2 1_555 1_555
O12 C8 1_555 1_555
O13 Zn2 1_555 1_555
H1 O13 1_555 1_555
H2 O13 1_555 1_555
C1 C2 1_555 1_555
C2 O3 1_555 1_555
H3 C2 1_555 1_555
C3 C2 1_555 1_555
H4 C3 1_555 1_555
C4 O5 1_555 1_555
C5 O8 1_555 1_555
C6 O9 1_555 1_555
H5 C6 1_555 1_555
C7 O10 1_555 1_555
H6 C7 1_555 1_555
C8 O11 1_555 1_555
B1 O3 1_555 1_555
C9 H7 1_555 1_555
H8 C9 1_555 1_555
H9 C9 1_555 1_555
C10 C9 1_555 1_555
H10 C10 1_555 1_555
H11 C10 1_555 1_555
C11 H12 1_555 1_555
H13 C11 1_555 1_555
H14 C11 1_555 1_555
C12 C11 1_555 1_555
H15 C12 1_555 1_555
H16 C12 1_555 1_555
C13 H17 1_555 1_555
H18 C13 1_555 1_555
H19 C13 1_555 1_555
C14 C13 1_555 1_555
H20 C14 1_555 1_555
H21 C14 1_555 1_555
N1 C10 1_555 1_555
H22 N1 1_555 1_555
Zn1_2 O12 1_555 1_555
Zn1B O7 1_555 1_555
Zn2A O6 1_555 1_555
O6A Zn2 1_555 1_555
O7B Zn1 1_555 1_555
O12_2 Zn1 1_555 1_555
O4 B1 1_555 1_555
O9 B1 1_555 1_555
O10 B1 1_555 1_555
C3 C4 1_555 1_555
C5 C6 1_555 1_555
C6 C7 1_555 1_555
C7 C8 1_555 1_555
C12 N1 1_555 1_555
C14 N1 1_555 1_555

#END
