
#######################################################################
#
#                 Cambridge Crystallographic Data Centre
#                                CCDC 
#
#######################################################################
#
# If this CIF has been generated from an entry in the Cambridge 
# Structural Database, then it will include bibliographic, chemical, 
# crystal, experimental, refinement or atomic coordinate data resulting 
# from the CCDC's data processing and validation procedures.
#
#######################################################################

data_SUMPIB
_symmetry_cell_setting           triclinic
_symmetry_space_group_name_H-M   'P -1'
_symmetry_Int_Tables_number      2
_space_group_name_Hall           '-P 1'
loop_
_symmetry_equiv_pos_site_id
_symmetry_equiv_pos_as_xyz
1 x,y,z
2 -x,-y,-z
_cell_length_a                   7.9322(4)
_cell_length_b                   14.6250(7)
_cell_length_c                   18.0381(10)
_cell_angle_alpha                77.355(7)
_cell_angle_beta                 88.457(8)
_cell_angle_gamma                85.098(7)
_cell_volume                     2034.28
loop_
_atom_site_label
_atom_site_type_symbol
_atom_site_fract_x
_atom_site_fract_y
_atom_site_fract_z
Zn1 Zn 0.71308(5) -0.30934(3) 0.19741(2)
Zn2 Zn 0.14160(5) -0.06224(3) 0.20614(3)
Zn3 Zn 0.61193(5) 0.14975(3) 0.24834(3)
Zn4 Zn 1.10077(5) 0.38894(3) 0.27990(2)
O1 O 0.4011(3) -0.44993(19) 0.35641(15)
O2 O 0.6148(3) -0.37690(18) 0.29610(14)
O3 O 0.4187(3) -0.28026(16) 0.18038(13)
O4 O 0.3056(3) -0.18848(17) 0.26370(14)
O5 O -0.0011(3) -0.16942(18) 0.20212(16)
O6 O -0.0468(3) -0.32041(17) 0.24389(15)
O7 O 0.8027(4) -0.07903(19) 0.03572(16)
O8 O 0.7611(3) -0.22495(17) 0.09547(14)
O9 O 0.5975(3) -0.16929(16) 0.21208(13)
O10 O 0.3626(3) -0.10801(16) 0.13586(14)
O11 O 0.3126(4) 0.0329(2) 0.2068(2)
O12 O 0.5392(3) 0.10207(17) 0.15714(15)
O13 O 1.0481(3) -0.01983(18) 0.29984(16)
O14 O 0.8205(4) 0.0605(2) 0.24188(18)
O15 O 0.8050(3) 0.18710(17) 0.32793(14)
O16 O 1.0261(3) 0.25708(16) 0.25533(13)
O17 O 1.1664(4) 0.29513(18) 0.37666(15)
O18 O 1.2708(4) 0.1477(2) 0.41963(16)
O19 O 0.3357(3) 0.40427(18) 0.23206(16)
O20 O 0.4295(3) 0.25238(18) 0.25778(17)
O21 O 0.7365(3) 0.28343(17) 0.20372(14)
O22 O 0.8095(3) 0.35915(16) 0.29826(13)
O23 O 0.9728(3) 0.47383(19) 0.19054(16)
O24 O 0.7417(3) 0.56860(17) 0.15474(15)
O25 O 0.0381(4) 0.0130(2) 0.10378(16)
H1 H 0.0234 -0.0247 0.0752
H2 H 0.1055 0.0530 0.0822
O26 O 0.5093(4) 0.0579(2) 0.33849(19)
H3 H 0.5497 0.0506 0.3828
H4 H 0.4269 0.0275 0.3313
O27 O 1.0913(3) 0.49882(18) 0.33482(16)
H5 H 1.1889 0.5191 0.3335
H6 H 1.0210 0.5427 0.3125
C1 C 0.4612(4) -0.3935(2) 0.3027(2)
C2 C 0.3372(4) -0.3397(2) 0.24125(19)
H7 H 0.2727 -0.3837 0.2220
C3 C 0.2164(4) -0.2708(2) 0.2755(2)
H8 H 0.2020 -0.2959 0.3301
C4 C 0.0439(4) -0.2513(2) 0.2374(2)
C5 C 0.7443(5) -0.1365(3) 0.0895(2)
C6 C 0.6512(4) -0.0971(2) 0.1521(2)
H9 H 0.7238 -0.0573 0.1720
C7 C 0.4856(4) -0.0400(2) 0.1218(2)
H10 H 0.4955 -0.0134 0.0672
C8 C 0.4407(5) 0.0380(3) 0.1650(2)
C9 C 0.9339(5) 0.0475(2) 0.2898(2)
C10 C 0.9472(5) 0.1208(3) 0.3383(2)
H11 H 0.9610 0.0902 0.3921
C11 C 1.0986(5) 0.1789(2) 0.3089(2)
H12 H 1.1810 0.1420 0.2835
C12 C 1.1847(5) 0.2100(3) 0.3734(2)
C13 C 0.4483(4) 0.3376(3) 0.2326(2)
C14 C 0.6215(4) 0.3650(2) 0.1999(2)
H13 H 0.6093 0.3993 0.1470
C15 C 0.7082(4) 0.4247(2) 0.2456(2)
H14 H 0.6232 0.4585 0.2723
C16 C 0.8164(5) 0.4945(3) 0.1933(2)
B1 B 0.4211(5) -0.1868(3) 0.1977(2)
B2 B 0.8460(5) 0.2715(3) 0.2718(2)
Zn1_2 Zn -0.28692(5) -0.30934(3) 0.19741(2)
Zn1_3 Zn 0.71308(5) 0.69066(3) 0.19741(2)
Zn2_2 Zn 1.14160(5) -0.06224(3) 0.20614(3)
Zn4_2 Zn 0.10077(5) 0.38894(3) 0.27990(2)
O6_2 O 0.9532(3) -0.32041(17) 0.24389(15)
O13_2 O 0.0481(3) -0.01983(18) 0.29984(16)
O19_2 O 1.3357(3) 0.40427(18) 0.23206(16)
O24_2 O 0.7417(3) -0.43140(17) 0.15474(15)
O28 O 0.7673(18) -0.0544(15) 0.4330(11)
H15 H 0.8413 -0.0467 0.3977
H16 H 0.7981 -0.0563 0.4781
C17 C 1.1286(8) -0.2265(4) -0.0462(3)
H17 H 1.2051 -0.2593 -0.0764
H18 H 1.0523 -0.1830 -0.0808
C18 C 1.2293(8) -0.1719(4) -0.0048(3)
H19 H 1.2904 -0.1281 -0.0408
H20 H 1.3077 -0.2143 0.0284
H21 H 1.1544 -0.1383 0.0245
C19 C 1.1345(8) -0.3614(4) 0.0637(3)
H22 H 1.0633 -0.4050 0.0957
H23 H 1.1809 -0.3245 0.0956
C20 C 1.2763(10) -0.4168(5) 0.0349(5)
H24 H 1.3375 -0.4559 0.0770
H25 H 1.3508 -0.3749 0.0045
H26 H 1.2326 -0.4555 0.0045
C21 C 0.9253(9) -0.3479(6) -0.0373(5)
H27 H 0.9968 -0.3660 -0.0771
H28 H 0.8942 -0.4052 -0.0034
C22 C 0.7712(10) -0.2964(7) -0.0724(4)
H29 H 0.7157 -0.3352 -0.0990
H30 H 0.7998 -0.2402 -0.1074
H31 H 0.6968 -0.2798 -0.0336
N1 N 1.0265(5) -0.2973(3) 0.0061(2)
H32 H 0.9518 -0.2643 0.0315
C23 C 0.5540(7) 0.3183(4) 0.4434(3)
H33 H 0.4877 0.3622 0.4047
H34 H 0.6137 0.2719 0.4191
C24 C 0.6833(10) 0.3714(7) 0.4736(4)
H35 H 0.7542 0.4001 0.4326
H36 H 0.7516 0.3284 0.5112
H37 H 0.6259 0.4191 0.4962
C25 C 0.5321(14) 0.2009(7) 0.5625(4)
H38 H 0.4509 0.1646 0.5950
H39 H 0.5896 0.2350 0.5933
C26 C 0.6663(15) 0.1308(8) 0.5333(7)
H40 H 0.7215 0.0892 0.5760
H41 H 0.7488 0.1657 0.5019
H42 H 0.6104 0.0947 0.5043
C27 C 0.3197(9) 0.3428(9) 0.5276(4)
H43 H 0.2724 0.3891 0.4847
H44 H 0.3781 0.3748 0.5598
C28 C 0.1747(14) 0.2849(10) 0.5743(6)
H45 H 0.0937 0.3272 0.5930
H46 H 0.2240 0.2393 0.6162
H47 H 0.1192 0.2534 0.5416
N2 N 0.4380(7) 0.2704(4) 0.5011(2)
H48 H 0.3736 0.2371 0.4774
loop_
_geom_bond_atom_site_label_1
_geom_bond_atom_site_label_2
_geom_bond_site_symmetry_1
_geom_bond_site_symmetry_2
Zn1 O2 1_555 1_555
Zn2 O4 1_555 1_555
Zn3 O12 1_555 1_555
Zn4 O16 1_555 1_555
O1 C1 1_555 1_555
O2 C1 1_555 1_555
O3 Zn1 1_555 1_555
O4 C3 1_555 1_555
O5 Zn2 1_555 1_555
O6 C4 1_555 1_555
O7 C5 1_555 1_555
O8 Zn1 1_555 1_555
O9 Zn1 1_555 1_555
O10 Zn2 1_555 1_555
O11 Zn2 1_555 1_555
O12 C8 1_555 1_555
O13 C9 1_555 1_555
O14 Zn3 1_555 1_555
O15 Zn3 1_555 1_555
O16 C11 1_555 1_555
O17 Zn4 1_555 1_555
O18 C12 1_555 1_555
O19 C13 1_555 1_555
O20 Zn3 1_555 1_555
O21 Zn3 1_555 1_555
O22 Zn4 1_555 1_555
O23 Zn4 1_555 1_555
O24 C16 1_555 1_555
O25 Zn2 1_555 1_555
H1 O25 1_555 1_555
H2 O25 1_555 1_555
O26 Zn3 1_555 1_555
H3 O26 1_555 1_555
H4 O26 1_555 1_555
O27 Zn4 1_555 1_555
H5 O27 1_555 1_555
H6 O27 1_555 1_555
C1 C2 1_555 1_555
C2 O3 1_555 1_555
H7 C2 1_555 1_555
C3 C2 1_555 1_555
H8 C3 1_555 1_555
C4 O5 1_555 1_555
C5 O8 1_555 1_555
C6 O9 1_555 1_555
H9 C6 1_555 1_555
C7 O10 1_555 1_555
H10 C7 1_555 1_555
C8 O11 1_555 1_555
C9 O14 1_555 1_555
C10 O15 1_555 1_555
H11 C10 1_555 1_555
C11 C10 1_555 1_555
H12 C11 1_555 1_555
C12 O17 1_555 1_555
C13 O20 1_555 1_555
C14 O21 1_555 1_555
H13 C14 1_555 1_555
C15 O22 1_555 1_555
H14 C15 1_555 1_555
C16 O23 1_555 1_555
B1 O3 1_555 1_555
B2 O15 1_555 1_555
O28 H15 1_555 1_555
H16 O28 1_555 1_555
C17 H17 1_555 1_555
H18 C17 1_555 1_555
C18 C17 1_555 1_555
H19 C18 1_555 1_555
H20 C18 1_555 1_555
H21 C18 1_555 1_555
C19 H22 1_555 1_555
H23 C19 1_555 1_555
C20 C19 1_555 1_555
H24 C20 1_555 1_555
H25 C20 1_555 1_555
H26 C20 1_555 1_555
C21 H27 1_555 1_555
H28 C21 1_555 1_555
C22 C21 1_555 1_555
H29 C22 1_555 1_555
H30 C22 1_555 1_555
H31 C22 1_555 1_555
N1 C17 1_555 1_555
H32 N1 1_555 1_555
C23 H33 1_555 1_555
H34 C23 1_555 1_555
C24 C23 1_555 1_555
H35 C24 1_555 1_555
H36 C24 1_555 1_555
H37 C24 1_555 1_555
C25 H38 1_555 1_555
H39 C25 1_555 1_555
C26 C25 1_555 1_555
H40 C26 1_555 1_555
H41 C26 1_555 1_555
H42 C26 1_555 1_555
C27 H43 1_555 1_555
H44 C27 1_555 1_555
C28 C27 1_555 1_555
H45 C28 1_555 1_555
H46 C28 1_555 1_555
H47 C28 1_555 1_555
N2 C23 1_555 1_555
H48 N2 1_555 1_555
Zn1_2 O6 1_555 1_555
Zn1_3 O24 1_555 1_555
Zn2_2 O13 1_555 1_555
Zn4_2 O19 1_555 1_555
O6_2 Zn1 1_555 1_555
O13_2 Zn2 1_555 1_555
O19_2 Zn4 1_555 1_555
O24_2 Zn1 1_555 1_555
O4 B1 1_555 1_555
O9 B1 1_555 1_555
O10 B1 1_555 1_555
O16 B2 1_555 1_555
O21 B2 1_555 1_555
O22 B2 1_555 1_555
C3 C4 1_555 1_555
C5 C6 1_555 1_555
C6 C7 1_555 1_555
C7 C8 1_555 1_555
C9 C10 1_555 1_555
C11 C12 1_555 1_555
C13 C14 1_555 1_555
C14 C15 1_555 1_555
C15 C16 1_555 1_555
C19 N1 1_555 1_555
C21 N1 1_555 1_555
C25 N2 1_555 1_555
C27 N2 1_555 1_555

#END
