
#######################################################################
#
#                 Cambridge Crystallographic Data Centre
#                                CCDC 
#
#######################################################################
#
# If this CIF has been generated from an entry in the Cambridge 
# Structural Database, then it will include bibliographic, chemical, 
# crystal, experimental, refinement or atomic coordinate data resulting 
# from the CCDC's data processing and validation procedures.
#
#######################################################################

data_SUMPOF
_symmetry_cell_setting           monoclinic
_symmetry_space_group_name_H-M   'C 2/c'
_symmetry_Int_Tables_number      15
_space_group_name_Hall           '-C 2yn'
loop_
_symmetry_equiv_pos_site_id
_symmetry_equiv_pos_as_xyz
1 x,y,z
2 1/2+x,1/2+y,z
3 -x,y,1/2-z
4 1/2-x,1/2+y,1/2-z
5 -x,-y,-z
6 1/2-x,1/2-y,-z
7 x,-y,1/2+z
8 1/2+x,1/2-y,1/2+z
_cell_length_a                   19.667(4)
_cell_length_b                   11.693(2)
_cell_length_c                   7.510(2)
_cell_angle_alpha                90
_cell_angle_beta                 100.96(3)
_cell_angle_gamma                90
_cell_volume                     1695.55
loop_
_atom_site_label
_atom_site_type_symbol
_atom_site_fract_x
_atom_site_fract_y
_atom_site_fract_z
Mn1 Mn 0.0000 0.12724(7) 0.2500
O1 O -0.0852(2) 0.0188(3) 0.1418(6)
O2 O 0.0444(2) 0.1274(2) 0.0(5)
N1 N -0.0636(2) 0.2830(3) 0.1424(5)
F1 F -0.2083(2) -0.0459(4) -0.0617(9)
F2 F -0.1712(2) -0.2040(4) -0.1036(9)
F3 F -0.1843(3) -0.1557(6) 0.1497(7)
C1 C -0.1634(3) -0.1200(4) 0.0092(8)
C2 C -0.0894(2) -0.0719(4) 0.0532(6)
C3 C -0.1257(2) 0.2830(4) 0.0360(7)
H1 H -0.1471(2) 0.2109(4) -0.0018(7)
C4 C -0.1617(3) 0.3824(5) -0.0237(9)
H2 H -0.2071(3) 0.3787(5) -0.0981(9)
C5 C -0.1316(3) 0.4851(5) 0.0244(8)
H3 H -0.1554(3) 0.5543(5) -0.0184(8)
C6 C -0.0667(2) 0.4901(4) 0.1362(7)
C7 C -0.0340(2) 0.3854(3) 0.1926(6)
C8 C -0.0310(3) 0.5957(4) 0.1980(8)
H4 H -0.0529(3) 0.6671(4) 0.1589(8)
O1B O 0.0852(2) 0.0188(3) 0.3582(6)
O2B O -0.0444(2) 0.1274(2) 0.5(5)
N1B N 0.0636(2) 0.2830(3) 0.3576(5)
C2D C 0.0894(2) 0.0719(4) -0.0532(6)
O2D O -0.0444(2) -0.1274(2) 0.0(5)
C7B C 0.0340(2) 0.3854(3) 0.3074(6)
C8B C 0.0310(3) 0.5957(4) 0.3020(8)
C2B C 0.0894(2) -0.0719(4) 0.4468(6)
C2F C -0.0894(2) 0.0719(4) 0.5532(6)
C3B C 0.1257(2) 0.2830(4) 0.4640(7)
O1D O 0.0852(2) -0.0188(3) -0.1418(6)
C1D C 0.1634(3) 0.1200(4) -0.0092(8)
Mn1D Mn 0.0000 -0.12724(7) -0.2500
C6B C 0.0667(2) 0.4901(4) 0.3638(7)
H4B H 0.0529(3) 0.6671(4) 0.3411(8)
O2F O 0.0444(2) -0.1274(2) 0.5(5)
C1B C 0.1634(3) -0.1200(4) 0.4908(8)
O1F O -0.0852(2) -0.0188(3) 0.6418(6)
C1F C -0.1634(3) 0.1200(4) 0.5092(8)
H1B H 0.1471(2) 0.2109(4) 0.5018(7)
C4B C 0.1617(3) 0.3824(5) 0.5237(9)
F1D F 0.2083(2) 0.0459(4) 0.0617(9)
F2D F 0.1712(2) 0.2040(4) 0.1036(9)
F3D F 0.1843(3) 0.1557(6) -0.1497(7)
O1F_2 O -0.0852(2) -0.0188(3) -0.3582(6)
O2F_2 O 0.0444(2) -0.1274(2) -0.5(5)
N1D N 0.0636(2) -0.2830(3) -0.1424(5)
N1F N -0.0636(2) -0.2830(3) -0.3576(5)
C5B C 0.1316(3) 0.4851(5) 0.4756(8)
Mn1D_2 Mn 0.0000 -0.12724(7) 0.7500
F1B F 0.2083(2) -0.0459(4) 0.5617(9)
F2B F 0.1712(2) -0.2040(4) 0.6036(9)
F3B F 0.1843(3) -0.1557(6) 0.3503(7)
F1F F -0.2083(2) 0.0459(4) 0.4383(9)
F2F F -0.1712(2) 0.2040(4) 0.3964(9)
F3F F -0.1843(3) 0.1557(6) 0.6497(7)
H2B H 0.2071(3) 0.3787(5) 0.5981(9)
C3D C 0.1257(2) -0.2830(4) -0.0360(7)
C7D C 0.0340(2) -0.3854(3) -0.1926(6)
C3F C -0.1257(2) -0.2830(4) -0.4640(7)
C7F C -0.0340(2) -0.3854(3) -0.3074(6)
H3B H 0.1554(3) 0.5543(5) 0.5184(8)
H1D H 0.1471(2) -0.2109(4) 0.0018(7)
C4D C 0.1617(3) -0.3824(5) 0.0237(9)
C6D C 0.0667(2) -0.4901(4) -0.1362(7)
H1F H -0.1471(2) -0.2109(4) -0.5018(7)
C4F C -0.1617(3) -0.3824(5) -0.5237(9)
C6F C -0.0667(2) -0.4901(4) -0.3638(7)
H2D H 0.2071(3) -0.3787(5) 0.0981(9)
C5D C 0.1316(3) -0.4851(5) -0.0244(8)
C8D C 0.0310(3) -0.5957(4) -0.1980(8)
H2F H -0.2071(3) -0.3787(5) -0.5981(9)
C5F C -0.1316(3) -0.4851(5) -0.4756(8)
C8F C -0.0310(3) -0.5957(4) -0.3020(8)
H3D H 0.1554(3) -0.5543(5) 0.0184(8)
H4D H 0.0529(3) -0.6671(4) -0.1589(8)
H3F H -0.1554(3) -0.5543(5) -0.5184(8)
H4F H -0.0529(3) -0.6671(4) -0.3411(8)
loop_
_geom_bond_atom_site_label_1
_geom_bond_atom_site_label_2
_geom_bond_site_symmetry_1
_geom_bond_site_symmetry_2
Mn1 O1 1_555 1_555
O1 C2 1_555 1_555
O2 Mn1 1_555 1_555
N1 Mn1 1_555 1_555
F1 C1 1_555 1_555
F2 C1 1_555 1_555
F3 C1 1_555 1_555
C1 C2 1_555 1_555
C2 O2D 1_555 1_555
C3 N1 1_555 1_555
H1 C3 1_555 1_555
C4 C3 1_555 1_555
H2 C4 1_555 1_555
C5 C4 1_555 1_555
H3 C5 1_555 1_555
C6 C5 1_555 1_555
C7 N1 1_555 1_555
C8 C6 1_555 1_555
H4 C8 1_555 1_555
O1B Mn1 1_555 1_555
O2B Mn1 1_555 1_555
N1B Mn1 1_555 1_555
C2D O2 1_555 1_555
O2D Mn1D 1_555 1_555
C7B C7 1_555 1_555
C8B C8 1_555 1_555
C2B O1B 1_555 1_555
C2F O2B 1_555 1_555
C3B N1B 1_555 1_555
O1D C2D 1_555 1_555
C1D C2D 1_555 1_555
Mn1D O1D 1_555 1_555
C6B C7B 1_555 1_555
H4B C8B 1_555 1_555
O2F C2B 1_555 1_555
C1B C2B 1_555 1_555
O1F C2F 1_555 1_555
C1F C2F 1_555 1_555
H1B C3B 1_555 1_555
C4B C3B 1_555 1_555
F1D C1D 1_555 1_555
F2D C1D 1_555 1_555
F3D C1D 1_555 1_555
O1F_2 Mn1D 1_555 1_555
O2F_2 Mn1D 1_555 1_555
N1D Mn1D 1_555 1_555
N1F Mn1D 1_555 1_555
C5B C6B 1_555 1_555
Mn1D_2 O2F 1_555 1_555
F1B C1B 1_555 1_555
F2B C1B 1_555 1_555
F3B C1B 1_555 1_555
F1F C1F 1_555 1_555
F2F C1F 1_555 1_555
F3F C1F 1_555 1_555
H2B C4B 1_555 1_555
C3D N1D 1_555 1_555
C7D N1D 1_555 1_555
C3F N1F 1_555 1_555
C7F N1F 1_555 1_555
H3B C5B 1_555 1_555
H1D C3D 1_555 1_555
C4D C3D 1_555 1_555
C6D C7D 1_555 1_555
H1F C3F 1_555 1_555
C4F C3F 1_555 1_555
C6F C7F 1_555 1_555
H2D C4D 1_555 1_555
C5D C4D 1_555 1_555
C8D C6D 1_555 1_555
H2F C4F 1_555 1_555
C5F C4F 1_555 1_555
C8F C6F 1_555 1_555
H3D C5D 1_555 1_555
H4D C8D 1_555 1_555
H3F C5F 1_555 1_555
H4F C8F 1_555 1_555
C6 C7 1_555 1_555
N1B C7B 1_555 1_555
C8B C6B 1_555 1_555
O1F Mn1D_2 1_555 1_555
C4B C5B 1_555 1_555
C7D C7F 1_555 1_555
C6D C5D 1_555 1_555
C6F C5F 1_555 1_555
C8D C8F 1_555 1_555

#END
