
#######################################################################
#
#                 Cambridge Crystallographic Data Centre
#                                CCDC 
#
#######################################################################
#
# If this CIF has been generated from an entry in the Cambridge 
# Structural Database, then it will include bibliographic, chemical, 
# crystal, experimental, refinement or atomic coordinate data resulting 
# from the CCDC's data processing and validation procedures.
#
#######################################################################

data_SUMYOQ
_symmetry_cell_setting           triclinic
_symmetry_space_group_name_H-M   'P -1'
_symmetry_Int_Tables_number      2
_space_group_name_Hall           '-P 1'
loop_
_symmetry_equiv_pos_site_id
_symmetry_equiv_pos_as_xyz
1 x,y,z
2 -x,-y,-z
_cell_length_a                   6.6537(6)
_cell_length_b                   6.7157(6)
_cell_length_c                   10.6911(9)
_cell_angle_alpha                99.015(7)
_cell_angle_beta                 93.657(7)
_cell_angle_gamma                118.915(9)
_cell_volume                     407.588
loop_
_atom_site_label
_atom_site_type_symbol
_atom_site_fract_x
_atom_site_fract_y
_atom_site_fract_z
Pb1 Pb -0.13421(7) 0.69222(7) 0.61785(4)
O1 O 0.2980(13) 0.9866(14) 0.6793(8)
O2 O 0.6023(14) 0.8912(14) 0.6495(8)
O3 O 0.6800(14) 1.2772(14) 0.6618(8)
O4 O 0.3902(13) 0.3730(13) 0.6568(8)
O5 O -0.0248(13) 0.1756(14) 0.6311(8)
O6 O 0.1983(15) 0.4407(15) 0.8291(8)
O7 O 0.4300(14) 0.8466(14) 0.8412(8)
O8 O 0.1982(13) 0.5930(14) 0.6394(8)
O9 O 0.3330(17) 0.6995(16) 1.0294(9)
H1 H 0.3854 0.8384 1.0594
B1 B 0.188(2) 0.397(2) 0.6932(13)
B2 B 0.319(2) 0.663(3) 0.8978(13)
B3 B 0.383(2) 0.822(2) 0.7015(13)
B4 B 0.757(2) 1.116(2) 0.6494(12)
B5 B 0.447(2) 1.210(2) 0.6675(13)
N1 N -0.1284(18) 0.7468(18) 0.8536(9)
H2 H -0.2760 0.6907 0.8680
H3 H -0.0758 0.6591 0.8828
C1 C 0.011(2) 0.986(2) 0.9301(13)
H4 H -0.0325 1.0846 0.8931
H5 H 0.1737 1.0401 0.9234
N1A N 0.1284(18) 1.2532(18) 1.1464(9)
H2A H 0.2760 1.3093 1.1320
H3A H 0.0758 1.3409 1.1172
C1A C -0.011(2) 1.014(2) 1.0699(13)
H4A H 0.0325 0.9154 1.1069
H5A H -0.1737 0.9599 1.0766
Pb1A Pb 0.13421(7) 1.30778(7) 1.38215(4)
O1A O -0.2980(13) 1.0134(14) 1.3207(8)
O2A O -0.6023(14) 1.1088(14) 1.3505(8)
O3A O -0.6800(14) 0.7228(14) 1.3382(8)
O4A O -0.3902(13) 1.6270(13) 1.3432(8)
O5A O 0.0248(13) 1.8244(14) 1.3689(8)
O6A O -0.1983(15) 1.5593(15) 1.1709(8)
O7A O -0.4300(14) 1.1534(14) 1.1588(8)
O8A O -0.1982(13) 1.4070(14) 1.3606(8)
O9A O -0.3330(17) 1.3005(16) 0.9706(9)
H1A H -0.3854 1.1616 0.9406
B1A B -0.188(2) 1.603(2) 1.3068(13)
B2A B -0.319(2) 1.337(3) 1.1022(13)
B3A B -0.383(2) 1.178(2) 1.2985(13)
B4A B -0.757(2) 0.884(2) 1.3506(12)
B5A B -0.447(2) 0.790(2) 1.3325(13)
Pb1_2 Pb 0.86579(7) 0.69222(7) 0.61785(4)
Pb1_3 Pb 0.86579(7) 1.69222(7) 0.61785(4)
Pb1A_2 Pb -0.86579(7) 0.30778(7) 1.38215(4)
Pb1A_3 Pb -0.86579(7) 1.30778(7) 1.38215(4)
O2_2 O -0.3977(14) 0.8912(14) 0.6495(8)
O2A_2 O 0.3977(14) 1.1088(14) 1.3505(8)
O3_2 O -0.3200(14) 0.2772(14) 0.6618(8)
O3A_2 O 0.3200(14) 1.7228(14) 1.3382(8)
O4_2 O 0.3902(13) 1.3730(13) 0.6568(8)
O4A_2 O -0.3902(13) 0.6270(13) 1.3432(8)
O5_2 O 0.9752(13) 1.1756(14) 0.6311(8)
O5A_2 O -0.9752(13) 0.8244(14) 1.3689(8)
B4_2 B -0.243(2) 0.116(2) 0.6494(12)
B4A_2 B 0.243(2) 1.884(2) 1.3506(12)
B5_2 B 0.447(2) 0.210(2) 0.6675(13)
B5A_2 B -0.447(2) 1.790(2) 1.3325(13)
loop_
_geom_bond_atom_site_label_1
_geom_bond_atom_site_label_2
_geom_bond_site_symmetry_1
_geom_bond_site_symmetry_2
Pb1 O1 1_555 1_555
O1 B3 1_555 1_555
O2 B3 1_555 1_555
O3 B4 1_555 1_555
O4 B1 1_555 1_555
O5 B1 1_555 1_555
O6 B1 1_555 1_555
O7 B2 1_555 1_555
O8 Pb1 1_555 1_555
O9 H1 1_555 1_555
B1 O8 1_555 1_555
B2 O6 1_555 1_555
B3 O7 1_555 1_555
B4 O2 1_555 1_555
B5 O1 1_555 1_555
N1 Pb1 1_555 1_555
H2 N1 1_555 1_555
H3 N1 1_555 1_555
C1 N1 1_555 1_555
H4 C1 1_555 1_555
H5 C1 1_555 1_555
N1A H2A 1_555 1_555
H3A N1A 1_555 1_555
C1A C1 1_555 1_555
H4A C1A 1_555 1_555
H5A C1A 1_555 1_555
Pb1A N1A 1_555 1_555
O1A Pb1A 1_555 1_555
O2A B3A 1_555 1_555
O3A B4A 1_555 1_555
O4A B1A 1_555 1_555
O5A B1A 1_555 1_555
O6A B1A 1_555 1_555
O7A B2A 1_555 1_555
O8A Pb1A 1_555 1_555
O9A H1A 1_555 1_555
B1A O8A 1_555 1_555
B2A O6A 1_555 1_555
B3A O1A 1_555 1_555
B4A O2A 1_555 1_555
B5A O1A 1_555 1_555
Pb1_2 O2 1_555 1_555
Pb1_3 O3 1_555 1_555
Pb1A_2 O3A 1_555 1_555
Pb1A_3 O2A 1_555 1_555
O2_2 Pb1 1_555 1_555
O2A_2 Pb1A 1_555 1_555
O3_2 Pb1 1_555 1_555
O3A_2 Pb1A 1_555 1_555
O4_2 B5 1_555 1_555
O4A_2 B5A 1_555 1_555
O5_2 B4 1_555 1_555
O5A_2 B4A 1_555 1_555
B4_2 O5 1_555 1_555
B4A_2 O5A 1_555 1_555
B5_2 O4 1_555 1_555
B5A_2 O4A 1_555 1_555
O3 B5 1_555 1_555
O8 B3 1_555 1_555
O9 B2 1_555 1_555
N1A C1A 1_555 1_555
O3A B5A 1_555 1_555
O7A B3A 1_555 1_555
O8A B3A 1_555 1_555
O9A B2A 1_555 1_555
O3_2 B4_2 1_555 1_555
O3A_2 B4A_2 1_555 1_555

#END
