
#######################################################################
#
#                 Cambridge Crystallographic Data Centre
#                                CCDC 
#
#######################################################################
#
# If this CIF has been generated from an entry in the Cambridge 
# Structural Database, then it will include bibliographic, chemical, 
# crystal, experimental, refinement or atomic coordinate data resulting 
# from the CCDC's data processing and validation procedures.
#
#######################################################################

data_SUMYOP
_symmetry_cell_setting           tetragonal
_symmetry_space_group_name_H-M   'P -4 21 c'
_symmetry_Int_Tables_number      114
_space_group_name_Hall           'P -4 2n'
loop_
_symmetry_equiv_pos_site_id
_symmetry_equiv_pos_as_xyz
1 x,y,z
2 y,-x,-z
3 -x,-y,z
4 -y,x,-z
5 1/2+x,1/2-y,1/2-z
6 1/2-y,1/2-x,1/2+z
7 1/2-x,1/2+y,1/2-z
8 1/2+y,1/2+x,1/2+z
_cell_length_a                   19.9835(11)
_cell_length_b                   19.9835(11)
_cell_length_c                   8.3467(2)
_cell_angle_alpha                90
_cell_angle_beta                 90
_cell_angle_gamma                90
_cell_volume                     3333.17
loop_
_atom_site_label
_atom_site_type_symbol
_atom_site_fract_x
_atom_site_fract_y
_atom_site_fract_z
Er1 Er 0.076304(13) -0.052159(14) 0.16226(4)
C1 C 0.1966(4) 0.0353(4) 0.0208(9)
C2 C 0.2640(4) 0.0616(4) 0.0654(10)
C3 C 0.2855(5) 0.1238(5) 0.0160(15)
H1 H 0.2568 0.1503 -0.0446
C4 C 0.3484(5) 0.1481(6) 0.0537(15)
H2 H 0.3623 0.1891 0.0127
C5 C 0.3910(4) 0.1118(4) 0.1523(14)
C6 C 0.4587(5) 0.1380(5) 0.1921(13)
C7 C 0.4780(5) 0.2025(6) 0.158(2)
H3 H 0.4486 0.2311 0.1052
C8 C 0.5413(6) 0.2253(7) 0.2017(17)
H4 H 0.5523 0.2694 0.1779
C9 C 0.5663(7) 0.1292(8) 0.316(3)
H5 H 0.5959 0.1033 0.3757
C10 C 0.5044(6) 0.1016(7) 0.279(3)
H6 H 0.4939 0.0585 0.3130
C11 C 0.3682(6) 0.0505(6) 0.2080(18)
H7 H 0.3955 0.0257 0.2758
C12 C 0.3062(5) 0.0250(6) 0.1666(19)
H8 H 0.2927 -0.0163 0.2058
C13 C 0.0498(4) -0.1159(3) 0.5095(9)
C14 C 0.1219(4) -0.1382(4) 0.4861(9)
C15 C 0.1554(5) -0.1748(5) 0.6029(11)
H9 H 0.1348 -0.1860 0.6991
C16 C 0.2206(5) -0.1941(5) 0.5708(12)
H10 H 0.2448 -0.2181 0.6467
C17 C 0.2495(5) -0.1776(5) 0.4256(12)
H11 H 0.2929 -0.1909 0.4015
C18 C 0.2125(4) -0.1410(5) 0.3176(12)
H12 H 0.2323 -0.1291 0.2208
N1 N 0.5858(5) 0.1889(6) 0.2736(16)
N2 N 0.1493(3) -0.1218(3) 0.3451(9)
O1 O 0.1807(3) -0.0225(3) 0.0660(7)
O2 O 0.1602(3) 0.0742(4) -0.0615(7)
O3 O 0.0244(3) -0.1239(3) 0.6443(7)
O4 O 0.0210(3) -0.0919(3) 0.3883(7)
O5 O 0.0553(3) -0.0382(3) -0.1128(6)
H13 H 0.0471 -0.0761 -0.1548
Er1C Er 0.052159(14) 0.076304(13) -0.16226(4)
Er1A Er -0.052159(14) -0.076304(13) 0.83774(4)
Er1A_2 Er -0.052159(14) -0.076304(13) -0.16226(4)
O2A O 0.0742(4) -0.1602(3) 0.0615(7)
O3C O 0.1239(3) 0.0244(3) 0.3557(7)
O5C O 0.0382(3) 0.0553(3) 0.1128(6)
O5A O -0.0382(3) -0.0553(3) 0.1128(6)
H13C H 0.0761 0.0471 0.1548
H13A H -0.0761 -0.0471 0.1548
loop_
_geom_bond_atom_site_label_1
_geom_bond_atom_site_label_2
_geom_bond_site_symmetry_1
_geom_bond_site_symmetry_2
Er1 N2 1_555 1_555
C1 C2 1_555 1_555
C2 C3 1_555 1_555
C3 H1 1_555 1_555
C4 C3 1_555 1_555
H2 C4 1_555 1_555
C5 C4 1_555 1_555
C6 C5 1_555 1_555
C7 C6 1_555 1_555
H3 C7 1_555 1_555
C8 C7 1_555 1_555
H4 C8 1_555 1_555
C9 H5 1_555 1_555
C10 C6 1_555 1_555
H6 C10 1_555 1_555
C11 C5 1_555 1_555
H7 C11 1_555 1_555
C12 C2 1_555 1_555
H8 C12 1_555 1_555
C13 C14 1_555 1_555
C14 C15 1_555 1_555
C15 H9 1_555 1_555
C16 C15 1_555 1_555
H10 C16 1_555 1_555
C17 C16 1_555 1_555
H11 C17 1_555 1_555
C18 C17 1_555 1_555
H12 C18 1_555 1_555
N1 C8 1_555 1_555
N2 C14 1_555 1_555
O1 Er1 1_555 1_555
O2 C1 1_555 1_555
O3 C13 1_555 1_555
O4 Er1 1_555 1_555
O5 Er1 1_555 1_555
H13 O5 1_555 1_555
Er1C O2 1_555 1_555
Er1A O3 1_555 1_555
Er1A_2 O5 1_555 1_555
O2A Er1 1_555 1_555
O3C Er1 1_555 1_555
O5C Er1 1_555 1_555
O5A Er1 1_555 1_555
H13C O5C 1_555 1_555
H13A O5A 1_555 1_555
C1 O1 1_555 1_555
C9 C10 1_555 1_555
C9 N1 1_555 1_555
C11 C12 1_555 1_555
C13 O4 1_555 1_555
C18 N2 1_555 1_555
O5 Er1C 1_555 1_555
Er1C O5C 1_555 1_555
Er1A_2 O5A 1_555 1_555

#END
