
#######################################################################
#
#                 Cambridge Crystallographic Data Centre
#                                CCDC 
#
#######################################################################
#
# If this CIF has been generated from an entry in the Cambridge 
# Structural Database, then it will include bibliographic, chemical, 
# crystal, experimental, refinement or atomic coordinate data resulting 
# from the CCDC's data processing and validation procedures.
#
#######################################################################

data_SUMZIL
_symmetry_cell_setting           orthorhombic
_symmetry_space_group_name_H-M   'P n a 21'
_symmetry_Int_Tables_number      33
_space_group_name_Hall           'P 2c -2n'
loop_
_symmetry_equiv_pos_site_id
_symmetry_equiv_pos_as_xyz
1 x,y,z
2 -x,-y,1/2+z
3 1/2+x,1/2-y,z
4 1/2-x,1/2+y,1/2+z
_cell_length_a                   21.734(3)
_cell_length_b                   20.951(3)
_cell_length_c                   23.545(3)
_cell_angle_alpha                90
_cell_angle_beta                 90
_cell_angle_gamma                90
_cell_volume                     10721.2
loop_
_atom_site_label
_atom_site_type_symbol
_atom_site_fract_x
_atom_site_fract_y
_atom_site_fract_z
Mo1 Mo 0.79662(3) 0.17162(3) 0.96947(3)
Mo2 Mo 0.70798(3) 0.17398(3) 1.07642(3)
Mo3 Mo 0.73264(4) 0.05778(4) 1.17612(3)
Mo4 Mo 0.60037(3) 0.05420(4) 1.08429(3)
Mo5 Mo 0.58974(3) -0.03566(4) 1.00835(4)
Mo6 Mo 0.90559(3) 0.05325(4) 0.96557(4)
Mo7 Mo 0.69707(3) -0.15451(3) 0.98803(3)
Mo8 Mo 0.68975(3) -0.03733(4) 0.88676(3)
Mo9 Mo 0.81281(3) -0.15176(3) 1.07080(3)
Mo10 Mo 0.77308(4) 0.05101(4) 0.87354(3)
Mo11 Mo 0.81734(4) -0.02907(4) 1.16601(3)
Mo12 Mo 0.91793(3) -0.03254(4) 1.04494(4)
Zn1 Zn 0.86110(4) 0.12170(5) 1.09801(5)
Zn2 Zn 0.83380(5) -0.10037(5) 0.92984(4)
Zn3 Zn 0.67383(5) -0.09684(5) 1.12559(5)
Zn4 Zn 0.64511(4) 0.11632(5) 0.94976(5)
P1 P 0.75361(10) 0.01041(7) 1.02589(11)
O1 O 0.7890(3) 0.0515(3) 0.9821(3)
O2 O 0.7069(3) -0.0325(3) 0.9933(3)
O3 O 0.7171(3) 0.0526(2) 1.0683(2)
O4 O 0.8008(3) -0.0304(3) 1.0595(2)
O5 O 0.6034(3) -0.0352(3) 0.9226(3)
O6 O 0.7751(3) 0.1420(3) 0.8995(3)
O7 O 0.7285(3) 0.1480(3) 1.1475(3)
O8 O 0.8665(3) 0.0487(3) 0.8856(3)
O9 O 0.7885(3) -0.1462(3) 0.9882(3)
O10 O 0.8237(3) -0.2304(3) 1.0786(3)
O11 O 0.9034(3) 0.0598(3) 1.0481(3)
O12 O 0.9941(3) -0.0433(3) 1.0438(4)
O13 O 0.5136(3) -0.0480(3) 1.0090(4)
O14 O 0.7339(4) 0.0696(4) 1.2457(3)
O15 O 0.7709(4) 0.0594(4) 0.8032(3)
O16 O 0.6867(3) -0.2341(3) 0.9828(3)
O17 O 0.6701(4) -0.0499(4) 0.8189(3)
O18 O 0.8369(4) -0.0363(4) 1.2339(3)
O19 O 0.7019(3) 0.2538(3) 1.0836(3)
O20 O 0.8022(3) 0.2511(3) 0.9596(3)
O21 O 0.6022(3) 0.0565(3) 1.0022(3)
O22 O 0.9784(3) 0.0641(3) 0.9462(4)
O23 O 0.5265(3) 0.0641(3) 1.1033(3)
O24 O 0.8181(3) 0.0627(3) 1.1502(3)
O25 O 0.6886(3) 0.0550(3) 0.8993(3)
O26 O 0.6295(2) 0.1446(3) 1.0777(3)
O27 O 0.6390(3) 0.0531(3) 1.1642(3)
O28 O 0.8884(3) -0.1231(3) 1.0496(3)
O29 O 0.7277(3) -0.0342(3) 1.1645(3)
O30 O 0.7206(3) -0.1447(3) 1.0697(3)
O31 O 0.6209(3) -0.1254(3) 1.0069(3)
O32 O 0.7078(2) 0.1637(3) 0.9915(3)
O33 O 0.6169(3) -0.0376(3) 1.0868(3)
O34 O 0.8762(2) 0.1441(3) 0.9690(3)
O35 O 0.8911(3) -0.0390(3) 0.9660(3)
O36 O 0.9034(3) -0.0288(3) 1.1311(3)
O37 O 0.7787(3) -0.0402(3) 0.8887(3)
O38 O 0.7975(3) 0.1663(3) 1.0542(3)
O39 O 0.6953(3) -0.1276(3) 0.9144(3)
O40 O 0.8136(3) -0.1209(3) 1.1429(3)
O41 O 0.5940(4) -0.0517(4) 1.2151(4)
O42 O 0.6335(3) -0.1435(3) 1.1833(3)
O43 O 0.4490(4) -0.0646(3) 1.3792(4)
O44 O 0.4165(3) -0.1612(3) 1.4057(3)
O45 O 0.8704(3) -0.1514(3) 0.8707(3)
O46 O 0.9071(4) -0.0599(4) 0.8354(4)
O47 O 1.0790(3) -0.1691(4) 0.6417(3)
O48 O 1.0460(4) -0.0735(4) 0.6727(4)
C1 C 0.5890(5) -0.3090(5) 1.3348(5)
H1 H 0.5670 -0.3256 1.3669
H2 H 0.6321 -0.3068 1.3436
H3 H 0.5830 -0.3365 1.3026
C2 C 0.5658(4) -0.2438(5) 1.3211(4)
C3 C 0.5195(4) -0.2161(5) 1.3531(4)
H4 H 0.5009 -0.2396 1.3819
C4 C 0.5005(4) -0.1542(4) 1.3431(4)
C5 C 0.4517(4) -0.1243(4) 1.3771(4)
C6 C 0.5272(4) -0.1197(5) 1.2985(4)
H5 H 0.5145 -0.0782 1.2909
C7 C 0.5725(4) -0.1479(5) 1.2658(4)
C8 C 0.6011(4) -0.1102(5) 1.2185(5)
C9 C 0.5903(4) -0.2097(5) 1.2763(4)
H6 H 0.6194 -0.2289 1.2529
C10 C 0.9062(5) -0.3187(5) 0.7167(5)
H7 H 0.8741 -0.3293 0.7431
H8 H 0.9391 -0.3491 0.7201
H9 H 0.8901 -0.3199 0.6787
C11 C 0.9298(4) -0.2536(5) 0.7292(4)
C12 C 0.9051(4) -0.2174(5) 0.7738(4)
H10 H 0.8747 -0.2353 0.7966
C13 C 0.9252(4) -0.1553(5) 0.7849(4)
C14 C 0.8990(4) -0.1180(5) 0.8336(4)
C15 C 0.9698(4) -0.1283(5) 0.7507(4)
H11 H 0.9820 -0.0863 0.7564
C16 C 0.9960(4) -0.1641(4) 0.7082(4)
C17 C 1.0441(5) -0.1326(5) 0.6713(5)
C18 C 0.9760(4) -0.2251(5) 0.6977(4)
H12 H 0.9942 -0.2481 0.6684
Zn1A Zn 1.13890(4) -0.12170(5) 0.59801(5)
Zn4A Zn 0.35489(4) -0.11632(5) 1.44976(5)
O44A O 0.5835(3) 0.1612(3) 0.9057(3)
O47A O 0.9210(3) 0.1691(4) 1.1417(3)
C19 C 0.5253(6) -0.1980(6) 0.9191(5)
H13 H 0.5171 -0.1548 0.9317
H14 H 0.5693 -0.2048 0.9219
C20 C 0.5076(7) -0.2027(7) 0.8578(6)
H15 H 0.4631 -0.2031 0.8546
H16 H 0.5230 -0.2425 0.8423
C21 C 0.5331(7) -0.1473(6) 0.8235(6)
H17 H 0.5760 -0.1408 0.8336
H18 H 0.5315 -0.1580 0.7834
C22 C 0.4985(9) -0.0865(8) 0.8331(9)
H19 H 0.5160 -0.0532 0.8101
H20 H 0.5013 -0.0747 0.8725
H21 H 0.4561 -0.0924 0.8230
C23 C 0.5202(7) -0.2317(7) 1.0181(6)
H22 H 0.5642 -0.2393 1.0166
H23 H 0.5142 -0.1871 1.0275
C24 C 0.4943(8) -0.2706(9) 1.0643(7)
H24 H 0.4970 -0.3154 1.0540
H25 H 0.4511 -0.2601 1.0690
C25 C 0.5268(9) -0.2606(10) 1.1198(8)
H26 H 0.4983 -0.2663 1.1511
H27 H 0.5433 -0.2176 1.1216
C26 C 0.578(2) -0.308(3) 1.124(3)
H28 H 0.5990 -0.3030 1.1597
H29 H 0.6066 -0.3017 1.0935
H30 H 0.5615 -0.3507 1.1218
C27 C 0.5042(7) -0.3138(7) 0.9406(6)
H31 H 0.4817 -0.3417 0.9661
H32 H 0.4871 -0.3192 0.9029
C28 C 0.5693(8) -0.3341(8) 0.9396(8)
H33 H 0.5855 -0.3358 0.9780
H34 H 0.5937 -0.3040 0.9179
C29 C 0.5723(11) -0.3989(9) 0.9128(11)
H35 H 0.5423 -0.4266 0.9307
H36 H 0.5619 -0.3954 0.8729
C30 C 0.6349(13) -0.4277(18) 0.9186(17)
H37 H 0.6347 -0.4701 0.9030
H38 H 0.6460 -0.4297 0.9581
H39 H 0.6643 -0.4020 0.8986
C31 C 0.4238(6) -0.2338(7) 0.9590(6)
H40 H 0.4093 -0.2410 0.9206
H41 H 0.4053 -0.2662 0.9829
C32 C 0.4005(8) -0.1693(9) 0.9784(9)
H42 H 0.4216 -0.1357 0.9579
H43 H 0.4085 -0.1638 1.0186
C33 C 0.3320(8) -0.1658(9) 0.9671(9)
H44 H 0.3247 -0.1622 0.9266
H45 H 0.3123 -0.2045 0.9804
C34 C 0.305(2) -0.1093(16) 0.997(2)
H46 H 0.2615 -0.1075 0.9897
H47 H 0.3240 -0.0710 0.9833
H48 H 0.3118 -0.1132 1.0371
N1 N 0.4940(5) -0.2433(5) 0.9598(5)
C35 C 0.3633(7) 0.0646(7) 1.1794(7)
H49 H 0.4030 0.0833 1.1882
H50 H 0.3469 0.0478 1.2146
C36 C 0.3742(10) 0.0111(10) 1.1421(9)
H51 H 0.3956 0.0250 1.1081
H52 H 0.3355 -0.0082 1.1309
C37 C 0.4135(15) -0.0370(13) 1.1751(13)
H53 H 0.4484 -0.0144 1.1909
H54 H 0.3893 -0.0528 1.2066
C38 C 0.4376(17) -0.0934(16) 1.1428(16)
H55 H 0.4636 -0.1184 1.1671
H56 H 0.4608 -0.0789 1.1106
H57 H 0.4037 -0.1191 1.1301
C39 C 0.2573(6) 0.0969(8) 1.1502(7)
H58 H 0.2335 0.1330 1.1366
H59 H 0.2576 0.0650 1.1203
C40 C 0.2264(9) 0.0700(11) 1.1999(8)
H60 H 0.2210 0.1024 1.2289
H61 H 0.2505 0.0353 1.2157
C41 C 0.1634(14) 0.0452(13) 1.1795(12)
H62 H 0.1377 0.0406 1.2130
H63 H 0.1452 0.0788 1.1566
C42 C 0.1579(17) -0.0144(15) 1.1469(15)
H64 H 0.1153 -0.0225 1.1386
H65 H 0.1743 -0.0491 1.1687
H66 H 0.1804 -0.0105 1.1120
C43 C 0.3427(7) 0.1442(8) 1.1048(6)
H67 H 0.3393 0.1104 1.0769
H68 H 0.3141 0.1776 1.0936
C44 C 0.4055(8) 0.1707(8) 1.1009(8)
H69 H 0.4084 0.2063 1.1271
H70 H 0.4341 0.1383 1.1137
C45 C 0.4255(10) 0.1928(10) 1.0447(9)
H71 H 0.4659 0.2123 1.0479
H72 H 0.3971 0.2250 1.0310
C46 C 0.428(2) 0.1396(18) 1.0033(18)
H73 H 0.4409 0.1558 0.9669
H74 H 0.3884 0.1203 1.0000
H75 H 0.4575 0.1084 1.0161
C47 C 0.3256(9) 0.1668(9) 1.2091(8)
H76 H 0.3163 0.1438 1.2438
H77 H 0.3684 0.1796 1.2116
C48 C 0.2913(11) 0.2218(11) 1.2103(9)
H78 H 0.2508 0.2114 1.1959
H79 H 0.3098 0.2514 1.1836
C49 C 0.2826(11) 0.2571(12) 1.2655(9)
H80 H 0.2520 0.2907 1.2628
H81 H 0.2729 0.2288 1.2969
C50 C 0.3458(15) 0.282(2) 1.2686(18)
H82 H 0.3515 0.3042 1.3040
H83 H 0.3526 0.3113 1.2377
H84 H 0.3746 0.2476 1.2661
N2 N 0.3213(5) 0.1182(5) 1.1605(4)
C51 C 0.6226(10) 0.3959(12) 0.8478(11)
H85 H 0.6060 0.4117 0.8834
H86 H 0.6434 0.4315 0.8298
C52 C 0.5692(8) 0.3793(10) 0.8111(8)
H87 H 0.5429 0.3478 0.8291
H88 H 0.5825 0.3633 0.7745
C53 C 0.5363(10) 0.4439(10) 0.8055(10)
H89 H 0.5135 0.4537 0.8398
H90 H 0.5658 0.4778 0.7987
C54 C 0.4927(11) 0.4371(12) 0.7549(10)
H91 H 0.4759 0.4781 0.7455
H92 H 0.4600 0.4084 0.7647
H93 H 0.5150 0.4205 0.7229
C55 C 0.6450(10) 0.3122(10) 0.9120(8)
H94 H 0.6738 0.2789 0.9224
H95 H 0.6080 0.2911 0.8986
C56 C 0.6280(12) 0.3476(12) 0.9662(9)
H96 H 0.6629 0.3502 0.9919
H97 H 0.6135 0.3904 0.9580
C57 C 0.5775(19) 0.3072(18) 0.9910(17)
H98 H 0.5404 0.3080 0.9681
H99 H 0.5903 0.2634 0.9973
C58 C 0.5706(18) 0.3435(19) 1.0451(14)
H100 H 0.5384 0.3248 1.0675
H101 H 0.5604 0.3871 1.0367
H102 H 0.6085 0.3421 1.0659
C59 C 0.7133(11) 0.2637(12) 0.8170(9)
H103 H 0.7404 0.2731 0.8487
H104 H 0.6967 0.2208 0.8201
C60 C 0.7410(15) 0.2781(16) 0.7599(14)
H105 H 0.7193 0.3117 0.7399
H106 H 0.7845 0.2881 0.7622
C61 C 0.7294(19) 0.214(2) 0.7356(16)
H107 H 0.7382 0.2147 0.6956
H108 H 0.6870 0.2027 0.7413
H109 H 0.7553 0.1833 0.7539
C62 C 0.7362(15) 0.376(3) 0.8619(16)
H110 H 0.7289 0.4135 0.8849
H111 H 0.7368 0.3920 0.8233
C63 C 0.8070(18) 0.3678(18) 0.8720(14)
H112 H 0.8284 0.3429 0.8434
H113 H 0.8187 0.3557 0.9102
C64 C 0.8051(19) 0.4415(19) 0.8605(13)
H114 H 0.8107 0.4526 0.8209
H115 H 0.7688 0.4622 0.8759
C65 C 0.861(2) 0.452(2) 0.896(2)
H116 H 0.8740 0.4954 0.8930
H117 H 0.8938 0.4244 0.8822
H118 H 0.8524 0.4414 0.9346
N3 N 0.6719(10) 0.3471(10) 0.8629(9)
C66 C 0.6623(10) 0.3170(12) 0.8062(10)
H119 H 0.6724 0.3452 0.7749
H120 H 0.6213 0.2995 0.8015
loop_
_geom_bond_atom_site_label_1
_geom_bond_atom_site_label_2
_geom_bond_site_symmetry_1
_geom_bond_site_symmetry_2
Mo1 O1 1_555 1_555
Mo2 O3 1_555 1_555
Mo3 O3 1_555 1_555
Mo4 O3 1_555 1_555
Mo5 O2 1_555 1_555
Mo6 O1 1_555 1_555
Mo7 O2 1_555 1_555
Mo8 O2 1_555 1_555
Mo9 O4 1_555 1_555
Mo10 O1 1_555 1_555
Mo11 O4 1_555 1_555
Mo12 O4 1_555 1_555
Zn1 O11 1_555 1_555
Zn2 O9 1_555 1_555
Zn3 O29 1_555 1_555
Zn4 O21 1_555 1_555
P1 O1 1_555 1_555
O2 P1 1_555 1_555
O3 P1 1_555 1_555
O4 P1 1_555 1_555
O5 Mo5 1_555 1_555
O6 Mo1 1_555 1_555
O7 Mo2 1_555 1_555
O8 Mo6 1_555 1_555
O9 Mo7 1_555 1_555
O10 Mo9 1_555 1_555
O11 Mo6 1_555 1_555
O12 Mo12 1_555 1_555
O13 Mo5 1_555 1_555
O14 Mo3 1_555 1_555
O15 Mo10 1_555 1_555
O16 Mo7 1_555 1_555
O17 Mo8 1_555 1_555
O18 Mo11 1_555 1_555
O19 Mo2 1_555 1_555
O20 Mo1 1_555 1_555
O21 Mo4 1_555 1_555
O22 Mo6 1_555 1_555
O23 Mo4 1_555 1_555
O24 Mo3 1_555 1_555
O25 Mo8 1_555 1_555
O26 Mo2 1_555 1_555
O27 Mo3 1_555 1_555
O28 Mo9 1_555 1_555
O29 Mo3 1_555 1_555
O30 Mo7 1_555 1_555
O31 Mo5 1_555 1_555
O32 Mo1 1_555 1_555
O33 Mo4 1_555 1_555
O34 Mo1 1_555 1_555
O35 Mo6 1_555 1_555
O36 Mo11 1_555 1_555
O37 Mo8 1_555 1_555
O38 Mo1 1_555 1_555
O39 Mo7 1_555 1_555
O40 Mo9 1_555 1_555
O41 C8 1_555 1_555
O42 Zn3 1_555 1_555
O43 C5 1_555 1_555
O44 C5 1_555 1_555
O45 Zn2 1_555 1_555
O46 C14 1_555 1_555
O47 C17 1_555 1_555
O48 C17 1_555 1_555
C1 H1 1_555 1_555
H2 C1 1_555 1_555
H3 C1 1_555 1_555
C2 C1 1_555 1_555
C3 C2 1_555 1_555
H4 C3 1_555 1_555
C4 C3 1_555 1_555
C5 C4 1_555 1_555
C6 C4 1_555 1_555
H5 C6 1_555 1_555
C7 C6 1_555 1_555
C8 O42 1_555 1_555
C9 C2 1_555 1_555
H6 C9 1_555 1_555
C10 H7 1_555 1_555
H8 C10 1_555 1_555
H9 C10 1_555 1_555
C11 C10 1_555 1_555
C12 C11 1_555 1_555
H10 C12 1_555 1_555
C13 C12 1_555 1_555
C14 O45 1_555 1_555
C15 C13 1_555 1_555
H11 C15 1_555 1_555
C16 C15 1_555 1_555
C17 C16 1_555 1_555
C18 C11 1_555 1_555
H12 C18 1_555 1_555
C19 H13 1_555 1_555
H14 C19 1_555 1_555
C20 C19 1_555 1_555
H15 C20 1_555 1_555
H16 C20 1_555 1_555
C21 C20 1_555 1_555
H17 C21 1_555 1_555
H18 C21 1_555 1_555
C22 C21 1_555 1_555
H19 C22 1_555 1_555
H20 C22 1_555 1_555
H21 C22 1_555 1_555
C23 H22 1_555 1_555
H23 C23 1_555 1_555
C24 C23 1_555 1_555
H24 C24 1_555 1_555
H25 C24 1_555 1_555
C25 C24 1_555 1_555
H26 C25 1_555 1_555
H27 C25 1_555 1_555
C26 C25 1_555 1_555
H28 C26 1_555 1_555
H29 C26 1_555 1_555
H30 C26 1_555 1_555
C27 H31 1_555 1_555
H32 C27 1_555 1_555
C28 C27 1_555 1_555
H33 C28 1_555 1_555
H34 C28 1_555 1_555
C29 C28 1_555 1_555
H35 C29 1_555 1_555
H36 C29 1_555 1_555
C30 C29 1_555 1_555
H37 C30 1_555 1_555
H38 C30 1_555 1_555
H39 C30 1_555 1_555
C31 H40 1_555 1_555
H41 C31 1_555 1_555
C32 C31 1_555 1_555
H42 C32 1_555 1_555
H43 C32 1_555 1_555
C33 C32 1_555 1_555
H44 C33 1_555 1_555
H45 C33 1_555 1_555
C34 C33 1_555 1_555
H46 C34 1_555 1_555
H47 C34 1_555 1_555
H48 C34 1_555 1_555
N1 C19 1_555 1_555
C35 H49 1_555 1_555
H50 C35 1_555 1_555
C36 C35 1_555 1_555
H51 C36 1_555 1_555
H52 C36 1_555 1_555
C37 C36 1_555 1_555
H53 C37 1_555 1_555
H54 C37 1_555 1_555
C38 C37 1_555 1_555
H55 C38 1_555 1_555
H56 C38 1_555 1_555
H57 C38 1_555 1_555
C39 H58 1_555 1_555
H59 C39 1_555 1_555
C40 C39 1_555 1_555
H60 C40 1_555 1_555
H61 C40 1_555 1_555
C41 C40 1_555 1_555
H62 C41 1_555 1_555
H63 C41 1_555 1_555
C42 C41 1_555 1_555
H64 C42 1_555 1_555
H65 C42 1_555 1_555
H66 C42 1_555 1_555
C43 H67 1_555 1_555
H68 C43 1_555 1_555
C44 C43 1_555 1_555
H69 C44 1_555 1_555
H70 C44 1_555 1_555
C45 C44 1_555 1_555
H71 C45 1_555 1_555
H72 C45 1_555 1_555
C46 C45 1_555 1_555
H73 C46 1_555 1_555
H74 C46 1_555 1_555
H75 C46 1_555 1_555
C47 H76 1_555 1_555
H77 C47 1_555 1_555
C48 C47 1_555 1_555
H78 C48 1_555 1_555
H79 C48 1_555 1_555
C49 C48 1_555 1_555
H80 C49 1_555 1_555
H81 C49 1_555 1_555
C50 C49 1_555 1_555
H82 C50 1_555 1_555
H83 C50 1_555 1_555
H84 C50 1_555 1_555
N2 C35 1_555 1_555
C51 H85 1_555 1_555
H86 C51 1_555 1_555
C52 C51 1_555 1_555
H87 C52 1_555 1_555
H88 C52 1_555 1_555
C53 C52 1_555 1_555
H89 C53 1_555 1_555
H90 C53 1_555 1_555
C54 C53 1_555 1_555
H91 C54 1_555 1_555
H92 C54 1_555 1_555
H93 C54 1_555 1_555
C55 H94 1_555 1_555
H95 C55 1_555 1_555
C56 C55 1_555 1_555
H96 C56 1_555 1_555
H97 C56 1_555 1_555
C57 C56 1_555 1_555
H98 C57 1_555 1_555
H99 C57 1_555 1_555
C58 C57 1_555 1_555
H100 C58 1_555 1_555
H101 C58 1_555 1_555
H102 C58 1_555 1_555
C59 H103 1_555 1_555
H104 C59 1_555 1_555
C60 C59 1_555 1_555
H105 C60 1_555 1_555
H106 C60 1_555 1_555
C61 C60 1_555 1_555
H107 C61 1_555 1_555
H108 C61 1_555 1_555
H109 C61 1_555 1_555
C62 H110 1_555 1_555
H111 C62 1_555 1_555
C63 C62 1_555 1_555
H112 C63 1_555 1_555
H113 C63 1_555 1_555
C64 C63 1_555 1_555
H114 C64 1_555 1_555
H115 C64 1_555 1_555
C65 C64 1_555 1_555
H116 C65 1_555 1_555
H117 C65 1_555 1_555
H118 C65 1_555 1_555
N3 C51 1_555 1_555
C66 C59 1_555 1_555
H119 C66 1_555 1_555
H120 C66 1_555 1_555
Zn1A O47 1_555 1_555
Zn4A O44 1_555 1_555
O44A Zn4 1_555 1_555
O47A Zn1 1_555 1_555
Mo2 O32 1_555 1_555
Mo2 O38 1_555 1_555
Mo3 O7 1_555 1_555
Mo4 O26 1_555 1_555
Mo4 O27 1_555 1_555
Mo5 O21 1_555 1_555
Mo5 O33 1_555 1_555
Mo6 O34 1_555 1_555
Mo7 O31 1_555 1_555
Mo8 O5 1_555 1_555
Mo8 O39 1_555 1_555
Mo9 O9 1_555 1_555
Mo9 O30 1_555 1_555
Mo10 O6 1_555 1_555
Mo10 O8 1_555 1_555
Mo10 O25 1_555 1_555
Mo10 O37 1_555 1_555
Mo11 O24 1_555 1_555
Mo11 O29 1_555 1_555
Mo11 O40 1_555 1_555
Mo12 O11 1_555 1_555
Mo12 O28 1_555 1_555
Mo12 O35 1_555 1_555
Mo12 O36 1_555 1_555
Zn1 O24 1_555 1_555
Zn1 O38 1_555 1_555
Zn2 O35 1_555 1_555
Zn2 O37 1_555 1_555
Zn3 O30 1_555 1_555
Zn3 O33 1_555 1_555
Zn4 O25 1_555 1_555
Zn4 O32 1_555 1_555
C7 C8 1_555 1_555
C7 C9 1_555 1_555
C13 C14 1_555 1_555
C16 C18 1_555 1_555
C23 N1 1_555 1_555
C27 N1 1_555 1_555
C31 N1 1_555 1_555
C39 N2 1_555 1_555
C43 N2 1_555 1_555
C47 N2 1_555 1_555
C55 N3 1_555 1_555
C62 N3 1_555 1_555
N3 C66 1_555 1_555

#END
