
#######################################################################
#
#                 Cambridge Crystallographic Data Centre
#                                CCDC 
#
#######################################################################
#
# If this CIF has been generated from an entry in the Cambridge 
# Structural Database, then it will include bibliographic, chemical, 
# crystal, experimental, refinement or atomic coordinate data resulting 
# from the CCDC's data processing and validation procedures.
#
#######################################################################

data_SUMZAC
_symmetry_cell_setting           tetragonal
_symmetry_space_group_name_H-M   'P -4 21 c'
_symmetry_Int_Tables_number      114
_space_group_name_Hall           'P -4 2n'
loop_
_symmetry_equiv_pos_site_id
_symmetry_equiv_pos_as_xyz
1 x,y,z
2 -x,-y,z
3 y,-x,-z
4 -y,x,-z
5 1/2-x,1/2+y,1/2-z
6 1/2+x,1/2-y,1/2-z
7 1/2-y,1/2-x,1/2+z
8 1/2+y,1/2+x,1/2+z
_cell_length_a                   20.0373(8)
_cell_length_b                   20.0373(8)
_cell_length_c                   8.4601(6)
_cell_angle_alpha                90
_cell_angle_beta                 90
_cell_angle_gamma                90
_cell_volume                     3396.67
loop_
_atom_site_label
_atom_site_type_symbol
_atom_site_fract_x
_atom_site_fract_y
_atom_site_fract_z
Gd1 Gd -0.077929(9) -0.053718(9) -0.16280(3)
C1 C -0.2000(2) 0.0358(2) -0.0217(5)
C2 C -0.2673(2) 0.0621(2) -0.0678(5)
C3 C -0.3090(2) 0.0261(3) -0.1636(9)
H1 H -0.2955 -0.0157 -0.1990
C4 C -0.3705(3) 0.0506(3) -0.2087(9)
H2 H -0.3971 0.0257 -0.2769
C5 C -0.2880(3) 0.1233(3) -0.0197(7)
H3 H -0.2597 0.1493 0.0419
C6 C -0.3506(3) 0.1479(3) -0.0606(8)
H4 H -0.3637 0.1897 -0.0241
C7 C -0.3933(2) 0.1114(2) -0.1541(7)
C8 C -0.4609(2) 0.1378(3) -0.1953(7)
C9 C -0.5063(3) 0.1012(3) -0.2807(11)
H5 H -0.4958 0.0582 -0.3138
C10 C -0.5673(3) 0.1284(3) -0.3169(12)
H6 H -0.5972 0.1018 -0.3728
C11 C -0.4802(3) 0.2019(3) -0.1611(10)
H7 H -0.4512 0.2303 -0.1077
C12 C -0.5430(3) 0.2245(3) -0.2063(9)
H8 H -0.5542 0.2684 -0.1823
C13 C -0.2134(2) -0.1438(2) -0.3274(7)
H9 H -0.2337 -0.1323 -0.2324
C14 C -0.2503(2) -0.1800(3) -0.4373(6)
H10 H -0.2941 -0.1927 -0.4167
C15 C -0.2194(2) -0.1966(2) -0.5781(7)
H11 H -0.2421 -0.2215 -0.6537
C16 C -0.1548(2) -0.1760(2) -0.6060(6)
H12 H -0.1341 -0.1856 -0.7017
C17 C -0.1211(2) -0.1408(2) -0.4898(5)
C18 C -0.0495(2) -0.1182(2) -0.5100(5)
N1 N -0.5868(2) 0.1887(3) -0.2792(8)
N2 N -0.15014(16) -0.12487(17) -0.3519(5)
O1 O -0.05629(14) -0.03910(13) 0.1140(3)
H13 H -0.0273 -0.0085 0.1257
O2 O -0.18415(15) -0.02255(16) -0.0656(4)
O3 O -0.16335(15) 0.07397(17) 0.0589(4)
O4 O -0.02136(14) -0.09457(16) -0.3896(3)
O5 O -0.02405(15) -0.12557(14) -0.6435(4)
Gd1C Gd 0.053718(9) -0.077929(9) 0.16280(3)
Gd1B Gd -0.053718(9) 0.077929(9) 0.16280(3)
Gd1C_2 Gd 0.053718(9) -0.077929(9) -0.83720(3)
O1B O -0.03910(13) 0.05629(14) -0.1140(3)
O1C O 0.03910(13) -0.05629(14) -0.1140(3)
H13B H -0.0085 0.0273 -0.1257
H13C H 0.0085 -0.0273 -0.1257
O3C O -0.07397(17) -0.16335(15) -0.0589(4)
O5B O -0.12557(14) 0.02405(15) -0.3565(4)
loop_
_geom_bond_atom_site_label_1
_geom_bond_atom_site_label_2
_geom_bond_site_symmetry_1
_geom_bond_site_symmetry_2
Gd1 N2 1_555 1_555
C1 C2 1_555 1_555
C2 C3 1_555 1_555
C3 H1 1_555 1_555
C4 C3 1_555 1_555
H2 C4 1_555 1_555
C5 C2 1_555 1_555
H3 C5 1_555 1_555
C6 C5 1_555 1_555
H4 C6 1_555 1_555
C7 C4 1_555 1_555
C8 C7 1_555 1_555
C9 C8 1_555 1_555
H5 C9 1_555 1_555
C10 C9 1_555 1_555
H6 C10 1_555 1_555
C11 C8 1_555 1_555
H7 C11 1_555 1_555
C12 C11 1_555 1_555
H8 C12 1_555 1_555
C13 H9 1_555 1_555
C14 C13 1_555 1_555
H10 C14 1_555 1_555
C15 C14 1_555 1_555
H11 C15 1_555 1_555
C16 C15 1_555 1_555
H12 C16 1_555 1_555
C17 C16 1_555 1_555
C18 C17 1_555 1_555
N1 C10 1_555 1_555
N2 C13 1_555 1_555
O1 Gd1 1_555 1_555
H13 O1 1_555 1_555
O2 Gd1 1_555 1_555
O3 C1 1_555 1_555
O4 Gd1 1_555 1_555
O5 C18 1_555 1_555
Gd1C O1 1_555 1_555
Gd1B O1 1_555 1_555
Gd1C_2 O5 1_555 1_555
O1B Gd1 1_555 1_555
O1C Gd1 1_555 1_555
H13B O1B 1_555 1_555
H13C O1C 1_555 1_555
O3C Gd1 1_555 1_555
O5B Gd1 1_555 1_555
C1 O2 1_555 1_555
C6 C7 1_555 1_555
C12 N1 1_555 1_555
C17 N2 1_555 1_555
C18 O4 1_555 1_555
O3 Gd1B 1_555 1_555
Gd1C O1C 1_555 1_555
Gd1B O1B 1_555 1_555

#END
