
#######################################################################
#
#                 Cambridge Crystallographic Data Centre
#                                CCDC 
#
#######################################################################
#
# If this CIF has been generated from an entry in the Cambridge 
# Structural Database, then it will include bibliographic, chemical, 
# crystal, experimental, refinement or atomic coordinate data resulting 
# from the CCDC's data processing and validation procedures.
#
#######################################################################

data_SUMZIK
_symmetry_cell_setting           monoclinic
_symmetry_space_group_name_H-M   'P 21/c'
_symmetry_Int_Tables_number      14
_space_group_name_Hall           '-P 2ybc'
loop_
_symmetry_equiv_pos_site_id
_symmetry_equiv_pos_as_xyz
1 x,y,z
2 -x,1/2+y,1/2-z
3 -x,-y,-z
4 x,1/2-y,1/2+z
_cell_length_a                   11.069(2)
_cell_length_b                   7.6706(15)
_cell_length_c                   11.139(2)
_cell_angle_alpha                90
_cell_angle_beta                 116.92(3)
_cell_angle_gamma                90
_cell_volume                     843.283
loop_
_atom_site_label
_atom_site_type_symbol
_atom_site_fract_x
_atom_site_fract_y
_atom_site_fract_z
O1 O 0.29698(9) 0.20515(11) 0.56791(8)
N1 N 0.20259(10) 0.35278(14) 0.74671(10)
C1 C 0.32865(14) 0.38179(16) 0.61467(13)
C2 C 0.21771(14) 0.45571(19) 0.64252(13)
C3 C 0.17724(13) 0.17021(19) 0.70219(14)
C4 C 0.28715(14) 0.10126(17) 0.67061(13)
B1 B 0.60291(16) 0.21239(18) 0.55140(15)
C5 C 0.08673(15) 0.4195(3) 0.76426(16)
Li1 Li 0.3680(2) 0.1065(3) 0.4479(2)
H1 H 0.3774(15) 0.1043(19) 0.7531(15)
H2 H 0.4160(15) 0.3818(19) 0.6973(16)
H3 H 0.2404(15) 0.576(2) 0.6748(16)
H4 H 0.0885(18) 0.154(2) 0.6219(19)
H5 H 0.1273(17) 0.452(2) 0.5563(17)
H6 H 0.1706(16) 0.100(2) 0.7751(17)
H7 H 0.2675(15) -0.021(2) 0.6358(16)
H8 H 0.3372(15) 0.443(2) 0.5457(16)
H9 H 0.0776(16) 0.354(2) 0.8359(19)
H10 H 0.1021(17) 0.541(3) 0.7888(17)
H11 H 0.5097(19) 0.273(2) 0.4642(19)
H12 H 0.5621(15) 0.115(2) 0.6034(15)
H13 H 0.667(2) 0.140(3) 0.512(2)
H14 H 0.6683(17) 0.315(2) 0.6262(18)
H15 H 0.003(2) 0.413(2) 0.679(2)
N1C N 0.20259(10) 0.14722(14) 0.24671(10)
Li1C Li 0.3680(2) 0.3935(3) 0.9479(2)
Li1B Li 0.6320(2) -0.1065(3) 0.5521(2)
H12B H 0.4379(15) -0.115(2) 0.3966(15)
H13B H 0.333(2) -0.140(3) 0.488(2)
loop_
_geom_bond_atom_site_label_1
_geom_bond_atom_site_label_2
_geom_bond_site_symmetry_1
_geom_bond_site_symmetry_2
O1 C1 1_555 1_555
N1 C2 1_555 1_555
C1 C2 1_555 1_555
C2 H3 1_555 1_555
C3 N1 1_555 1_555
C4 O1 1_555 1_555
B1 H11 1_555 1_555
C5 N1 1_555 1_555
Li1 O1 1_555 1_555
H1 C4 1_555 1_555
H2 C1 1_555 1_555
H4 C3 1_555 1_555
H5 C2 1_555 1_555
H6 C3 1_555 1_555
H7 C4 1_555 1_555
H8 C1 1_555 1_555
H9 C5 1_555 1_555
H10 C5 1_555 1_555
H11 Li1 1_555 1_555
H12 B1 1_555 1_555
H13 B1 1_555 1_555
H14 B1 1_555 1_555
H15 C5 1_555 1_555
N1C Li1 1_555 1_555
Li1C N1 1_555 1_555
Li1B H12 1_555 1_555
H12B Li1 1_555 1_555
H13B Li1 1_555 1_555
C3 C4 1_555 1_555
Li1 H12 1_555 1_555
H13 Li1B 1_555 1_555
Li1B H12B 1_555 1_555

#END
