
#######################################################################
#
#                 Cambridge Crystallographic Data Centre
#                                CCDC 
#
#######################################################################
#
# If this CIF has been generated from an entry in the Cambridge 
# Structural Database, then it will include bibliographic, chemical, 
# crystal, experimental, refinement or atomic coordinate data resulting 
# from the CCDC's data processing and validation procedures.
#
#######################################################################

data_SUNCAH01
_symmetry_cell_setting           triclinic
_symmetry_space_group_name_H-M   'P -1'
_symmetry_Int_Tables_number      2
_space_group_name_Hall           '-P 1'
loop_
_symmetry_equiv_pos_site_id
_symmetry_equiv_pos_as_xyz
1 x,y,z
2 -x,-y,-z
_cell_length_a                   6.9698(5)
_cell_length_b                   7.2924(5)
_cell_length_c                   12.8763(9)
_cell_angle_alpha                102.409(5)
_cell_angle_beta                 101.076(5)
_cell_angle_gamma                89.887(4)
_cell_volume                     626.736
loop_
_atom_site_label
_atom_site_type_symbol
_atom_site_fract_x
_atom_site_fract_y
_atom_site_fract_z
Pd1 Pd 0.0000 0.0000 0.0000
C1 C -0.2115(3) 0.1796(3) -0.02123(17)
C2 C 0.1965(3) 0.2100(3) 0.02051(17)
N1 N -0.3259(3) 0.2945(3) -0.02304(14)
N2 N 0.3097(3) 0.3265(3) 0.02272(15)
Fe1 Fe -0.5000 0.5000 0.0000
N3 N -0.6269(3) 0.4425(3) -0.15803(14)
C3 C -0.8212(3) 0.4577(3) -0.19030(18)
C4 C -0.5200(3) 0.3916(3) -0.23554(18)
H1 H -0.898(4) 0.482(4) -0.139(2)
C5 C -0.9117(4) 0.4327(4) -0.2990(2)
C6 C -0.6024(3) 0.3578(3) -0.34581(18)
H2 H -0.384(4) 0.378(4) -0.216(2)
H3 H -1.055(5) 0.442(5) -0.318(2)
C7 C -0.8009(4) 0.3832(4) -0.37833(19)
N4 N -0.4691(3) 0.2999(3) -0.41676(16)
H4 H -0.859(5) 0.373(5) -0.451(3)
N5 N -0.5533(3) 0.2480(3) -0.51473(16)
C8 C -0.4228(4) 0.1849(3) -0.58736(18)
C9 C -0.5066(4) 0.1525(4) -0.69807(19)
C10 C -0.2251(4) 0.1558(4) -0.55352(19)
H5 H -0.648(5) 0.176(5) -0.714(3)
C11 C -0.3891(4) 0.0939(4) -0.7739(2)
C12 C -0.1100(4) 0.0969(4) -0.6300(2)
H6 H -0.170(4) 0.175(4) -0.479(2)
H7 H -0.442(5) 0.077(5) -0.844(3)
C13 C -0.1921(4) 0.0666(4) -0.7402(2)
H8 H 0.021(5) 0.082(5) -0.611(2)
H9 H -0.107(5) 0.041(5) -0.783(3)
C2A C -0.1965(3) -0.2100(3) -0.02051(17)
C1A C 0.2115(3) -0.1796(3) 0.02123(17)
N2A N -0.3097(3) -0.3265(3) -0.02272(15)
N1A N 0.3259(3) -0.2945(3) 0.02304(14)
Fe1_2 Fe 0.5000 0.5000 0.0000
Fe1_3 Fe -0.5000 -0.5000 0.0000
Fe1_4 Fe 0.5000 -0.5000 0.0000
N1A_2 N -0.6741(3) 0.7055(3) 0.02304(14)
N3A N -0.3731(3) 0.5575(3) 0.15803(14)
N2_2 N -0.6903(3) 0.3265(3) 0.02272(15)
N2A_2 N -0.3097(3) 0.6735(3) -0.02272(15)
C3A C -0.1788(3) 0.5423(3) 0.19030(18)
C4A C -0.4800(3) 0.6084(3) 0.23554(18)
H1A H -0.102(4) 0.518(4) 0.139(2)
C5A C -0.0883(4) 0.5673(4) 0.2990(2)
C6A C -0.3976(3) 0.6422(3) 0.34581(18)
H2A H -0.616(4) 0.622(4) 0.216(2)
H3A H 0.055(5) 0.558(5) 0.318(2)
C7A C -0.1991(4) 0.6168(4) 0.37833(19)
N4A N -0.5309(3) 0.7001(3) 0.41676(16)
H4A H -0.141(5) 0.627(5) 0.451(3)
N5A N -0.4467(3) 0.7520(3) 0.51473(16)
C8A C -0.5772(4) 0.8151(3) 0.58736(18)
C9A C -0.4934(4) 0.8475(4) 0.69807(19)
C10A C -0.7749(4) 0.8442(4) 0.55352(19)
H5A H -0.352(5) 0.824(5) 0.714(3)
C11A C -0.6109(4) 0.9061(4) 0.7739(2)
C12A C -0.8900(4) 0.9031(4) 0.6300(2)
H6A H -0.830(4) 0.825(4) 0.479(2)
H7A H -0.558(5) 0.923(5) 0.844(3)
C13A C -0.8079(4) 0.9334(4) 0.7402(2)
H8A H -1.021(5) 0.918(5) 0.611(2)
H9A H -0.893(5) 0.959(5) 0.783(3)
loop_
_geom_bond_atom_site_label_1
_geom_bond_atom_site_label_2
_geom_bond_site_symmetry_1
_geom_bond_site_symmetry_2
Pd1 C1 1_555 1_555
C1 N1 1_555 1_555
C2 Pd1 1_555 1_555
N1 Fe1 1_555 1_555
N2 C2 1_555 1_555
Fe1 N3 1_555 1_555
N3 C3 1_555 1_555
C3 H1 1_555 1_555
C4 N3 1_555 1_555
C5 C3 1_555 1_555
C6 C4 1_555 1_555
H2 C4 1_555 1_555
H3 C5 1_555 1_555
C7 C5 1_555 1_555
N4 C6 1_555 1_555
H4 C7 1_555 1_555
N5 N4 1_555 1_555
C8 N5 1_555 1_555
C9 C8 1_555 1_555
C10 C8 1_555 1_555
H5 C9 1_555 1_555
C11 C9 1_555 1_555
C12 C10 1_555 1_555
H6 C10 1_555 1_555
H7 C11 1_555 1_555
C13 C11 1_555 1_555
H8 C12 1_555 1_555
H9 C13 1_555 1_555
C2A Pd1 1_555 1_555
C1A Pd1 1_555 1_555
N2A C2A 1_555 1_555
N1A C1A 1_555 1_555
Fe1_2 N2 1_555 1_555
Fe1_3 N2A 1_555 1_555
Fe1_4 N1A 1_555 1_555
N1A_2 Fe1 1_555 1_555
N3A Fe1 1_555 1_555
N2_2 Fe1 1_555 1_555
N2A_2 Fe1 1_555 1_555
C3A N3A 1_555 1_555
C4A N3A 1_555 1_555
H1A C3A 1_555 1_555
C5A C3A 1_555 1_555
C6A C4A 1_555 1_555
H2A C4A 1_555 1_555
H3A C5A 1_555 1_555
C7A C5A 1_555 1_555
N4A C6A 1_555 1_555
H4A C7A 1_555 1_555
N5A N4A 1_555 1_555
C8A N5A 1_555 1_555
C9A C8A 1_555 1_555
C10A C8A 1_555 1_555
H5A C9A 1_555 1_555
C11A C9A 1_555 1_555
C12A C10A 1_555 1_555
H6A C10A 1_555 1_555
H7A C11A 1_555 1_555
C13A C11A 1_555 1_555
H8A C12A 1_555 1_555
H9A C13A 1_555 1_555
C6 C7 1_555 1_555
C12 C13 1_555 1_555
C6A C7A 1_555 1_555
C12A C13A 1_555 1_555

#END
