
#######################################################################
#
#                 Cambridge Crystallographic Data Centre
#                                CCDC 
#
#######################################################################
#
# If this CIF has been generated from an entry in the Cambridge 
# Structural Database, then it will include bibliographic, chemical, 
# crystal, experimental, refinement or atomic coordinate data resulting 
# from the CCDC's data processing and validation procedures.
#
#######################################################################

data_SUNCAH
_symmetry_cell_setting           triclinic
_symmetry_space_group_name_H-M   'P -1'
_symmetry_Int_Tables_number      2
_space_group_name_Hall           '-P 1'
loop_
_symmetry_equiv_pos_site_id
_symmetry_equiv_pos_as_xyz
1 x,y,z
2 -x,-y,-z
_cell_length_a                   7.1179(5)
_cell_length_b                   7.5699(5)
_cell_length_c                   12.7816(9)
_cell_angle_alpha                100.687(4)
_cell_angle_beta                 99.525(4)
_cell_angle_gamma                90.220(4)
_cell_volume                     666.996
loop_
_atom_site_label
_atom_site_type_symbol
_atom_site_fract_x
_atom_site_fract_y
_atom_site_fract_z
Pd1 Pd 0.0000 0.0000 0.0000
C1 C -0.2042(3) 0.1735(3) -0.02379(18)
C2 C 0.1897(3) 0.2042(3) 0.02696(18)
N1 N -0.3177(3) 0.2808(3) -0.03116(17)
N2 N 0.2971(3) 0.3217(3) 0.03622(18)
Fe1 Fe -0.5000 0.5000 0.0000
N3 N -0.6441(3) 0.4426(3) -0.17119(17)
C3 C -0.8292(4) 0.4674(4) -0.2022(2)
C4 C -0.5401(4) 0.3875(3) -0.2483(2)
H1 H -0.9051 0.5049 -0.1481
C5 C -0.9158(4) 0.4411(5) -0.3099(3)
C6 C -0.6161(4) 0.3548(4) -0.3578(2)
H2 H -0.4082 0.3698 -0.2273
H3 H -1.0477 0.4613 -0.3286
C7 C -0.8073(4) 0.3851(5) -0.3893(2)
N4 N -0.4833(4) 0.2923(3) -0.42764(18)
H4 H -0.8623 0.3677 -0.4635
N5 N -0.5582(4) 0.2452(3) -0.52470(19)
C8 C -0.4257(4) 0.1796(4) -0.5937(2)
C9 C -0.4972(5) 0.1423(5) -0.7044(2)
C10 C -0.2355(5) 0.1491(5) -0.5576(2)
H5 H -0.6275 0.1607 -0.7297
C11 C -0.3778(6) 0.0785(5) -0.7771(2)
C12 C -0.1183(5) 0.0844(5) -0.6305(3)
H6 H -0.1863 0.1731 -0.4825
H7 H -0.4259 0.0547 -0.8524
C13 C -0.1900(5) 0.0495(5) -0.7406(3)
H8 H 0.0115 0.0635 -0.6056
H9 H -0.1087 0.0055 -0.7908
C2A C -0.1897(3) -0.2042(3) -0.02696(18)
C1A C 0.2042(3) -0.1735(3) 0.02379(18)
N2A N -0.2971(3) -0.3217(3) -0.03622(18)
N1A N 0.3177(3) -0.2808(3) 0.03116(17)
Fe1_2 Fe 0.5000 0.5000 0.0000
Fe1_3 Fe -0.5000 -0.5000 0.0000
Fe1_4 Fe 0.5000 -0.5000 0.0000
N1A_2 N -0.6823(3) 0.7192(3) 0.03116(17)
N3A N -0.3559(3) 0.5574(3) 0.17119(17)
N2_2 N -0.7029(3) 0.3217(3) 0.03622(18)
N2A_2 N -0.2971(3) 0.6783(3) -0.03622(18)
C3A C -0.1708(4) 0.5326(4) 0.2022(2)
C4A C -0.4599(4) 0.6125(3) 0.2483(2)
H1A H -0.0949 0.4951 0.1481
C5A C -0.0842(4) 0.5589(5) 0.3099(3)
C6A C -0.3839(4) 0.6452(4) 0.3578(2)
H2A H -0.5918 0.6302 0.2273
H3A H 0.0477 0.5387 0.3286
C7A C -0.1927(4) 0.6149(5) 0.3893(2)
N4A N -0.5167(4) 0.7077(3) 0.42764(18)
H4A H -0.1377 0.6323 0.4635
N5A N -0.4418(4) 0.7548(3) 0.52470(19)
C8A C -0.5743(4) 0.8204(4) 0.5937(2)
C9A C -0.5028(5) 0.8577(5) 0.7044(2)
C10A C -0.7645(5) 0.8509(5) 0.5576(2)
H5A H -0.3725 0.8393 0.7297
C11A C -0.6222(6) 0.9215(5) 0.7771(2)
C12A C -0.8817(5) 0.9156(5) 0.6305(3)
H6A H -0.8137 0.8269 0.4825
H7A H -0.5741 0.9453 0.8524
C13A C -0.8100(5) 0.9505(5) 0.7406(3)
H8A H -1.0115 0.9365 0.6056
H9A H -0.8913 0.9945 0.7908
loop_
_geom_bond_atom_site_label_1
_geom_bond_atom_site_label_2
_geom_bond_site_symmetry_1
_geom_bond_site_symmetry_2
Pd1 C1 1_555 1_555
C1 N1 1_555 1_555
C2 Pd1 1_555 1_555
N1 Fe1 1_555 1_555
N2 C2 1_555 1_555
Fe1 N3 1_555 1_555
N3 C3 1_555 1_555
C3 H1 1_555 1_555
C4 N3 1_555 1_555
C5 C3 1_555 1_555
C6 C4 1_555 1_555
H2 C4 1_555 1_555
H3 C5 1_555 1_555
C7 C5 1_555 1_555
N4 C6 1_555 1_555
H4 C7 1_555 1_555
N5 N4 1_555 1_555
C8 N5 1_555 1_555
C9 C8 1_555 1_555
C10 C8 1_555 1_555
H5 C9 1_555 1_555
C11 C9 1_555 1_555
C12 C10 1_555 1_555
H6 C10 1_555 1_555
H7 C11 1_555 1_555
C13 C11 1_555 1_555
H8 C12 1_555 1_555
H9 C13 1_555 1_555
C2A Pd1 1_555 1_555
C1A Pd1 1_555 1_555
N2A C2A 1_555 1_555
N1A C1A 1_555 1_555
Fe1_2 N2 1_555 1_555
Fe1_3 N2A 1_555 1_555
Fe1_4 N1A 1_555 1_555
N1A_2 Fe1 1_555 1_555
N3A Fe1 1_555 1_555
N2_2 Fe1 1_555 1_555
N2A_2 Fe1 1_555 1_555
C3A N3A 1_555 1_555
C4A N3A 1_555 1_555
H1A C3A 1_555 1_555
C5A C3A 1_555 1_555
C6A C4A 1_555 1_555
H2A C4A 1_555 1_555
H3A C5A 1_555 1_555
C7A C5A 1_555 1_555
N4A C6A 1_555 1_555
H4A C7A 1_555 1_555
N5A N4A 1_555 1_555
C8A N5A 1_555 1_555
C9A C8A 1_555 1_555
C10A C8A 1_555 1_555
H5A C9A 1_555 1_555
C11A C9A 1_555 1_555
C12A C10A 1_555 1_555
H6A C10A 1_555 1_555
H7A C11A 1_555 1_555
C13A C11A 1_555 1_555
H8A C12A 1_555 1_555
H9A C13A 1_555 1_555
C6 C7 1_555 1_555
C12 C13 1_555 1_555
C6A C7A 1_555 1_555
C12A C13A 1_555 1_555

#END
