
#######################################################################
#
#                 Cambridge Crystallographic Data Centre
#                                CCDC 
#
#######################################################################
#
# If this CIF has been generated from an entry in the Cambridge 
# Structural Database, then it will include bibliographic, chemical, 
# crystal, experimental, refinement or atomic coordinate data resulting 
# from the CCDC's data processing and validation procedures.
#
#######################################################################

data_SUNDUB
_symmetry_cell_setting           triclinic
_symmetry_space_group_name_H-M   'P -1'
_symmetry_Int_Tables_number      2
_space_group_name_Hall           '-P 1'
loop_
_symmetry_equiv_pos_site_id
_symmetry_equiv_pos_as_xyz
1 x,y,z
2 -x,-y,-z
_cell_length_a                   8.9517(4)
_cell_length_b                   10.6240(5)
_cell_length_c                   11.2121(5)
_cell_angle_alpha                67.721(2)
_cell_angle_beta                 72.930(2)
_cell_angle_gamma                74.020(2)
_cell_volume                     926.879
loop_
_atom_site_label
_atom_site_type_symbol
_atom_site_fract_x
_atom_site_fract_y
_atom_site_fract_z
C1 C 0.1910(7) -0.2531(5) 0.4194(5)
C2 C 0.1781(7) -0.3714(5) 0.3814(6)
H1 H 0.0788 -0.4039 0.4333
C3 C 0.3188(7) -0.4930(5) 0.4092(5)
H2 H 0.4178 -0.4592 0.3665
H3 H 0.3143 -0.5306 0.5034
C4 C 0.3164(7) -0.6074(6) 0.3599(7)
H4 H 0.2204 -0.6465 0.4095
C5 C 0.3119(10) -0.5508(7) 0.2149(8)
H5 H 0.3075 -0.6247 0.1859
H6 H 0.4079 -0.5146 0.1640
C6 C 0.1661(12) -0.4353(8) 0.1908(10)
H7 H 0.1644 -0.3994 0.0976
H8 H 0.0696 -0.4719 0.2390
C7 C 0.1734(10) -0.3199(7) 0.2364(8)
H9 H 0.2675 -0.2809 0.1847
H10 H 0.0811 -0.2471 0.2212
C8 C 0.4594(7) -0.7196(5) 0.3871(6)
C9 C 0.0980(6) 0.1614(5) 0.2030(5)
C10 C 0.2194(6) 0.1909(5) 0.0762(5)
H11 H 0.3229 0.1784 0.0964
C11 C 0.2285(7) 0.0820(5) 0.0131(5)
H12 H 0.2610 -0.0096 0.0724
H13 H 0.1236 0.0870 0.0015
C12 C 0.3448(6) 0.1031(5) -0.1197(5)
H14 H 0.4516 0.0912 -0.1057
C13 C 0.3008(7) 0.2518(5) -0.2129(5)
H15 H 0.3781 0.2658 -0.2960
H16 H 0.1972 0.2640 -0.2310
C14 C 0.2974(7) 0.3578(5) -0.1519(5)
H17 H 0.2662 0.4499 -0.2108
H18 H 0.4033 0.3505 -0.1408
C15 C 0.1817(7) 0.3369(5) -0.0183(5)
H19 H 0.1869 0.4031 0.0200
H20 H 0.0742 0.3543 -0.0308
O1 O 0.3246(5) -0.2184(4) 0.3817(4)
O2 O 0.0681(4) -0.1953(3) 0.4820(4)
O3 O 0.1380(4) 0.0750(4) 0.3066(3)
O4 O -0.0437(4) 0.2234(4) 0.1965(3)
O5 O 0.4729(4) -0.0340(3) -0.2637(3)
O6 O 0.4436(4) -0.8214(4) 0.4897(4)
O7 O 0.2267(5) -0.0491(4) -0.1599(4)
O8 O 0.5904(5) -0.7022(3) 0.3043(4)
O9 O 0.2159(4) -0.0083(3) 0.5463(3)
Zn1 Zn 0.0000 0.0000 0.5000
Zn2 Zn 0.23676(7) -0.14844(6) 0.72015(5)
Zn3 Zn 0.37801(8) -0.06703(6) 0.40592(6)
C16 C 0.3481(7) 0.0003(5) -0.1845(5)
C1A C -0.1910(7) 0.2531(5) 0.5806(5)
C2A C -0.1781(7) 0.3714(5) 0.6186(6)
H1A H -0.0788 0.4039 0.5667
C3A C -0.3188(7) 0.4930(5) 0.5908(5)
H2A H -0.4178 0.4592 0.6335
H3A H -0.3143 0.5306 0.4966
C4A C -0.3164(7) 0.6074(6) 0.6401(7)
H4A H -0.2204 0.6465 0.5905
C5A C -0.3119(10) 0.5508(7) 0.7851(8)
H5A H -0.3075 0.6247 0.8141
H6A H -0.4079 0.5146 0.8360
C6A C -0.1661(12) 0.4353(8) 0.8092(10)
H7A H -0.1644 0.3994 0.9024
H8A H -0.0696 0.4719 0.7610
C7A C -0.1734(10) 0.3199(7) 0.7636(8)
H9A H -0.2675 0.2809 0.8153
H10A H -0.0811 0.2471 0.7788
C8A C -0.4594(7) 0.7196(5) 0.6129(6)
C9A C -0.0980(6) -0.1614(5) 0.7970(5)
C10A C -0.2194(6) -0.1909(5) 0.9238(5)
H11A H -0.3229 -0.1784 0.9036
C11A C -0.2285(7) -0.0820(5) 0.9869(5)
H12A H -0.2610 0.0096 0.9276
H13A H -0.1236 -0.0870 0.9985
C12A C -0.3448(6) -0.1031(5) 1.1197(5)
H14A H -0.4516 -0.0912 1.1057
C13A C -0.3008(7) -0.2518(5) 1.2129(5)
H15A H -0.3781 -0.2658 1.2960
H16A H -0.1972 -0.2640 1.2310
C14A C -0.2974(7) -0.3578(5) 1.1519(5)
H17A H -0.2662 -0.4499 1.2108
H18A H -0.4033 -0.3505 1.1408
C15A C -0.1817(7) -0.3369(5) 1.0183(5)
H19A H -0.1869 -0.4031 0.9800
H20A H -0.0742 -0.3543 1.0308
O1A O -0.3246(5) 0.2184(4) 0.6183(4)
O2A O -0.0681(4) 0.1953(3) 0.5180(4)
O3A O -0.1380(4) -0.0750(4) 0.6934(3)
O4A O 0.0437(4) -0.2234(4) 0.8035(3)
O5A O -0.4729(4) 0.0340(3) 1.2637(3)
O5_2 O -0.5271(4) -0.0340(3) 0.7363(3)
O5A_2 O 0.5271(4) 0.0340(3) 0.2637(3)
O6A O -0.4436(4) 0.8214(4) 0.5103(4)
O6_2 O -0.5564(4) 0.1786(4) 0.4897(4)
O6A_2 O 0.5564(4) -0.1786(4) 0.5103(4)
O7A O -0.2267(5) 0.0491(4) 1.1599(4)
O7_2 O 0.2267(5) -0.0491(4) 0.8401(4)
O7A_2 O -0.2267(5) 0.0491(4) 0.1599(4)
O8A O -0.5904(5) 0.7022(3) 0.6957(4)
O8_2 O -0.4096(5) 0.2978(3) 0.3043(4)
O8A_2 O 0.4096(5) -0.2978(3) 0.6957(4)
O9A O -0.2159(4) 0.0083(3) 0.4537(3)
Zn2A Zn -0.23676(7) 0.14844(6) 0.27985(5)
Zn2_2 Zn -0.76324(7) 0.85156(6) 0.72015(5)
Zn2_3 Zn 0.23676(7) -0.14844(6) -0.27985(5)
Zn2A_2 Zn -0.23676(7) 0.14844(6) 1.27985(5)
Zn2A_3 Zn 0.76324(7) -0.85156(6) 0.27985(5)
Zn3A Zn -0.37801(8) 0.06703(6) 0.59408(6)
Zn3_2 Zn -0.62199(8) -0.06703(6) 1.40592(6)
Zn3_3 Zn -0.62199(8) 0.93297(6) 0.40592(6)
Zn3A_2 Zn 0.62199(8) -0.93297(6) 0.59408(6)
Zn3A_3 Zn 0.62199(8) 0.06703(6) -0.40592(6)
C16A C -0.3481(7) -0.0003(5) 1.1845(5)
loop_
_geom_bond_atom_site_label_1
_geom_bond_atom_site_label_2
_geom_bond_site_symmetry_1
_geom_bond_site_symmetry_2
C1 C2 1_555 1_555
C2 H1 1_555 1_555
C3 C2 1_555 1_555
H2 C3 1_555 1_555
H3 C3 1_555 1_555
C4 C3 1_555 1_555
H4 C4 1_555 1_555
C5 C4 1_555 1_555
H5 C5 1_555 1_555
H6 C5 1_555 1_555
C6 C5 1_555 1_555
H7 C6 1_555 1_555
H8 C6 1_555 1_555
C7 C2 1_555 1_555
H9 C7 1_555 1_555
H10 C7 1_555 1_555
C8 C4 1_555 1_555
C9 C10 1_555 1_555
C10 H11 1_555 1_555
C11 C10 1_555 1_555
H12 C11 1_555 1_555
H13 C11 1_555 1_555
C12 C11 1_555 1_555
H14 C12 1_555 1_555
C13 C12 1_555 1_555
H15 C13 1_555 1_555
H16 C13 1_555 1_555
C14 C13 1_555 1_555
H17 C14 1_555 1_555
H18 C14 1_555 1_555
C15 C10 1_555 1_555
H19 C15 1_555 1_555
H20 C15 1_555 1_555
O1 C1 1_555 1_555
O2 C1 1_555 1_555
O3 C9 1_555 1_555
O4 C9 1_555 1_555
O5 C16 1_555 1_555
O6 C8 1_555 1_555
O7 C16 1_555 1_555
O8 C8 1_555 1_555
O9 Zn1 1_555 1_555
Zn1 O2 1_555 1_555
Zn2 O9 1_555 1_555
Zn3 O1 1_555 1_555
C16 C12 1_555 1_555
C1A C2A 1_555 1_555
C2A H1A 1_555 1_555
C3A C2A 1_555 1_555
H2A C3A 1_555 1_555
H3A C3A 1_555 1_555
C4A C3A 1_555 1_555
H4A C4A 1_555 1_555
C5A C4A 1_555 1_555
H5A C5A 1_555 1_555
H6A C5A 1_555 1_555
C6A C5A 1_555 1_555
H7A C6A 1_555 1_555
H8A C6A 1_555 1_555
C7A C2A 1_555 1_555
H9A C7A 1_555 1_555
H10A C7A 1_555 1_555
C8A C4A 1_555 1_555
C9A C10A 1_555 1_555
C10A H11A 1_555 1_555
C11A C10A 1_555 1_555
H12A C11A 1_555 1_555
H13A C11A 1_555 1_555
C12A C11A 1_555 1_555
H14A C12A 1_555 1_555
C13A C12A 1_555 1_555
H15A C13A 1_555 1_555
H16A C13A 1_555 1_555
C14A C13A 1_555 1_555
H17A C14A 1_555 1_555
H18A C14A 1_555 1_555
C15A C10A 1_555 1_555
H19A C15A 1_555 1_555
H20A C15A 1_555 1_555
O1A C1A 1_555 1_555
O2A Zn1 1_555 1_555
O3A Zn1 1_555 1_555
O4A Zn2 1_555 1_555
O5A Zn3_2 1_555 1_555
O5_2 Zn3A 1_555 1_555
O5A_2 Zn3 1_555 1_555
O6A C8A 1_555 1_555
O6_2 Zn3A 1_555 1_555
O6A_2 Zn3 1_555 1_555
O7A Zn2A_2 1_555 1_555
O7_2 Zn2 1_555 1_555
O7A_2 Zn2A 1_555 1_555
O8A C8A 1_555 1_555
O8_2 Zn2A 1_555 1_555
O8A_2 Zn2 1_555 1_555
O9A Zn1 1_555 1_555
Zn2A O4 1_555 1_555
Zn2_2 O8A 1_555 1_555
Zn2_3 O7 1_555 1_555
Zn2A_3 O8 1_555 1_555
Zn3A O1A 1_555 1_555
Zn3_3 O6A 1_555 1_555
Zn3A_2 O6 1_555 1_555
Zn3A_3 O5 1_555 1_555
C16A C12A 1_555 1_555
C6 C7 1_555 1_555
C14 C15 1_555 1_555
O3 Zn1 1_555 1_555
O3 Zn3 1_555 1_555
O9 Zn3 1_555 1_555
C1A O2A 1_555 1_555
C6A C7A 1_555 1_555
C9A O3A 1_555 1_555
C9A O4A 1_555 1_555
C14A C15A 1_555 1_555
O3A Zn3A 1_555 1_555
O5A C16A 1_555 1_555
O7A C16A 1_555 1_555
O9A Zn2A 1_555 1_555
O9A Zn3A 1_555 1_555

#END
