
#######################################################################
#
#                 Cambridge Crystallographic Data Centre
#                                CCDC 
#
#######################################################################
#
# If this CIF has been generated from an entry in the Cambridge 
# Structural Database, then it will include bibliographic, chemical, 
# crystal, experimental, refinement or atomic coordinate data resulting 
# from the CCDC's data processing and validation procedures.
#
#######################################################################

data_SUNDOV
_symmetry_cell_setting           orthorhombic
_symmetry_space_group_name_H-M   'C m c a'
_symmetry_Int_Tables_number      64
_space_group_name_Hall           '-C 2ac 2'
loop_
_symmetry_equiv_pos_site_id
_symmetry_equiv_pos_as_xyz
1 x,y,z
2 -x,1/2-y,1/2+z
3 -x,1/2+y,1/2-z
4 x,-y,-z
5 1/2+x,1/2+y,z
6 1/2-x,-y,1/2+z
7 1/2-x,y,1/2-z
8 1/2+x,1/2-y,-z
9 -x,-y,-z
10 x,1/2+y,1/2-z
11 x,1/2-y,1/2+z
12 -x,y,z
13 1/2-x,1/2-y,-z
14 1/2+x,y,1/2-z
15 1/2+x,-y,1/2+z
16 1/2-x,1/2+y,z
_cell_length_a                   18.0227(10)
_cell_length_b                   21.5016(14)
_cell_length_c                   17.1798(8)
_cell_angle_alpha                90
_cell_angle_beta                 90
_cell_angle_gamma                90
_cell_volume                     6657.46
loop_
_atom_site_label
_atom_site_type_symbol
_atom_site_fract_x
_atom_site_fract_y
_atom_site_fract_z
C1 C 0.2204(7) 0.1802(6) -0.0863(8)
H1 H 0.2036 0.2149 -0.0592
C2 C 0.2237(6) 0.1836(6) -0.1650(7)
H2 H 0.2097 0.2198 -0.1907
C3 C 0.2650(7) 0.0795(6) -0.0861(8)
H3 H 0.2786 0.0437 -0.0594
C4 C 0.2709(7) 0.0797(6) -0.1651(7)
H4 H 0.2899 0.0450 -0.1906
C5 C 0.2490(7) 0.1309(5) -0.2078(9)
C6 C 0.1375(7) 0.2057(6) 0.1624(8)
C7 C 0.0716(7) 0.2492(7) 0.1727(10)
H5 H 0.0738 0.2661 0.2256
C8 C 0.0702(9) 0.3022(9) 0.1181(13)
H6 H 0.0712 0.2866 0.0651
H7 H 0.1142 0.3274 0.1259
C9 C 0.0000 0.3433(12) 0.1297(19)
H8 H 0.0000 0.3611 0.1815
H9 H 0.0000 0.3771 0.0922
C10 C 0.0000 0.2092(9) 0.1664(13)
H10 H 0.0000 0.1783 0.2075
H11 H 0.0000 0.1874 0.1170
C11 C 0.3627(7) 0.0344(6) 0.3421(8)
C12 C 0.4293(8) -0.0108(7) 0.3330(9)
H12 H 0.4280 -0.0290 0.2807
C13 C 0.4301(10) -0.0612(8) 0.3908(12)
H13 H 0.3864 -0.0870 0.3838
H14 H 0.4279 -0.0434 0.4427
C14 C 0.5000 -0.1021(14) 0.3840(19)
H15 H 0.5000 -0.1235 0.3343
H16 H 0.5000 -0.1331 0.4250
C15 C 0.5000 0.0301(10) 0.3408(12)
H17 H 0.5000 0.0618 0.3007
H18 H 0.5000 0.0507 0.3911
C16 C 0.143(3) 0.1269(16) 0.384(3)
C17 C 0.0710(9) 0.1122(6) 0.3620(10)
H19 H 0.0673 0.1036 0.3061
C18 C 0.0707(12) 0.0535(8) 0.4092(14)
H20 H 0.1122 0.0277 0.3935
H21 H 0.0770 0.0638 0.4637
C19 C 0.0000 0.0175(17) 0.399(3)
H22 H 0.0000 -0.0007 0.3475
H23 H 0.0000 -0.0164 0.4363
C20 C 0.0000 0.155(4) 0.393(4)
H24 H 0.0000 0.1593 0.4496
H25 H 0.0000 0.1963 0.3699
N1 N 0.2404(7) 0.1287(4) -0.0446(8)
O1 O 0.1553(6) 0.1938(5) 0.0910(6)
O2 O 0.1707(5) 0.1869(4) 0.2186(5)
O3 O 0.3475(6) 0.0498(5) 0.4120(6)
O4 O 0.3287(5) 0.0471(4) 0.2829(5)
O5 O 0.2023(5) 0.1164(3) 0.3606(6)
O6 O 0.1408(16) 0.1906(14) 0.4145(16)
Zn1 Zn 0.2500 0.11666(10) 0.2500
Zn2 Zn 0.21554(9) 0.12250(7) 0.06945(10)
C1F C 0.2796(7) 0.1802(6) -0.4137(8)
H1F H 0.2964 0.2149 -0.4408
C2F C 0.2763(6) 0.1836(6) -0.3350(7)
H2F H 0.2903 0.2198 -0.3093
C3F C 0.2350(7) 0.0795(6) -0.4139(8)
H3F H 0.2214 0.0437 -0.4406
C4F C 0.2291(7) 0.0797(6) -0.3349(7)
H4F H 0.2101 0.0450 -0.3094
C5F C 0.2510(7) 0.1309(5) -0.2922(9)
C6K C -0.1375(7) 0.2057(6) 0.1624(8)
C7K C -0.0716(7) 0.2492(7) 0.1727(10)
H5K H -0.0738 0.2661 0.2256
C8K C -0.0702(9) 0.3022(9) 0.1181(13)
H6K H -0.0712 0.2866 0.0651
H7K H -0.1142 0.3274 0.1259
C11K C 0.6373(7) 0.0344(6) 0.3421(8)
C12K C 0.5707(8) -0.0108(7) 0.3330(9)
H12K H 0.5720 -0.0290 0.2807
C13K C 0.5699(10) -0.0612(8) 0.3908(12)
H13K H 0.6136 -0.0870 0.3838
H14K H 0.5721 -0.0434 0.4427
C16K C -0.143(3) 0.1269(16) 0.384(3)
C17K C -0.0710(9) 0.1122(6) 0.3620(10)
H19K H -0.0673 0.1036 0.3061
C18K C -0.0707(12) 0.0535(8) 0.4092(14)
H20K H -0.1122 0.0277 0.3935
H21K H -0.0770 0.0638 0.4637
N1F N 0.2596(7) 0.1287(4) -0.4554(8)
N1K N -0.2404(7) 0.1287(4) -0.0446(8)
O1K O -0.1553(6) 0.1938(5) 0.0910(6)
O2K O -0.1707(5) 0.1869(4) 0.2186(5)
O2F O 0.3293(5) 0.1869(4) 0.2814(5)
O3K O 0.6525(6) 0.0498(5) 0.4120(6)
O3F O 0.1525(6) 0.0498(5) 0.0880(6)
O3M O -0.1525(6) 0.0498(5) 0.0880(6)
O4K O 0.6713(5) 0.0471(4) 0.2829(5)
O4F O 0.1713(5) 0.0471(4) 0.2171(5)
O5K O -0.2023(5) 0.1164(3) 0.3606(6)
O5F O 0.2977(5) 0.1164(3) 0.1394(6)
O5M O -0.2977(5) 0.1164(3) 0.1394(6)
O6K O -0.1408(16) 0.1906(14) 0.4145(16)
Zn1K Zn -0.2500 0.11666(10) 0.2500
Zn1K_2 Zn 0.7500 0.11666(10) 0.2500
Zn2K Zn -0.21554(9) 0.12250(7) 0.06945(10)
Zn2F Zn 0.28446(9) 0.12250(7) 0.43055(10)
Zn2F_2 Zn 0.28446(9) 0.12250(7) -0.56945(10)
Zn2M Zn 0.71554(9) 0.12250(7) 0.43055(10)
Zn2M_2 Zn -0.28446(9) 0.12250(7) 0.43055(10)
loop_
_geom_bond_atom_site_label_1
_geom_bond_atom_site_label_2
_geom_bond_site_symmetry_1
_geom_bond_site_symmetry_2
C1 H1 1_555 1_555
C2 C1 1_555 1_555
H2 C2 1_555 1_555
C3 H3 1_555 1_555
C4 C3 1_555 1_555
H4 C4 1_555 1_555
C5 C2 1_555 1_555
C6 C7 1_555 1_555
C7 H5 1_555 1_555
C8 C7 1_555 1_555
H6 C8 1_555 1_555
H7 C8 1_555 1_555
C9 C8 1_555 1_555
H8 C9 1_555 1_555
H9 C9 1_555 1_555
C10 C7 1_555 1_555
H10 C10 1_555 1_555
H11 C10 1_555 1_555
C11 C12 1_555 1_555
C12 H12 1_555 1_555
C13 C12 1_555 1_555
H13 C13 1_555 1_555
H14 C13 1_555 1_555
C14 C13 1_555 1_555
H15 C14 1_555 1_555
H16 C14 1_555 1_555
C15 C12 1_555 1_555
H17 C15 1_555 1_555
H18 C15 1_555 1_555
C16 C17 1_555 1_555
C17 H19 1_555 1_555
C18 C17 1_555 1_555
H20 C18 1_555 1_555
H21 C18 1_555 1_555
C19 C18 1_555 1_555
H22 C19 1_555 1_555
H23 C19 1_555 1_555
C20 C17 1_555 1_555
H24 C20 1_555 1_555
H25 C20 1_555 1_555
N1 C1 1_555 1_555
O1 C6 1_555 1_555
O2 C6 1_555 1_555
O3 C11 1_555 1_555
O4 C11 1_555 1_555
O5 C16 1_555 1_555
O6 C16 1_555 1_555
Zn1 O2 1_555 1_555
Zn2 N1 1_555 1_555
C1F H1F 1_555 1_555
C2F C1F 1_555 1_555
H2F C2F 1_555 1_555
C3F H3F 1_555 1_555
C4F C3F 1_555 1_555
H4F C4F 1_555 1_555
C5F C5 1_555 1_555
C6K C7K 1_555 1_555
C7K C10 1_555 1_555
H5K C7K 1_555 1_555
C8K C9 1_555 1_555
H6K C8K 1_555 1_555
H7K C8K 1_555 1_555
C11K C12K 1_555 1_555
C12K C15 1_555 1_555
H12K C12K 1_555 1_555
C13K C14 1_555 1_555
H13K C13K 1_555 1_555
H14K C13K 1_555 1_555
C16K C17K 1_555 1_555
C17K C20 1_555 1_555
H19K C17K 1_555 1_555
C18K C19 1_555 1_555
H20K C18K 1_555 1_555
H21K C18K 1_555 1_555
N1F C1F 1_555 1_555
N1K Zn2K 1_555 1_555
O1K C6K 1_555 1_555
O2K C6K 1_555 1_555
O2F Zn1 1_555 1_555
O3K C11K 1_555 1_555
O3F Zn2 1_555 1_555
O3M Zn2K 1_555 1_555
O4K C11K 1_555 1_555
O4F Zn1 1_555 1_555
O5K C16K 1_555 1_555
O5F Zn1 1_555 1_555
O5M Zn1K 1_555 1_555
O6K C16K 1_555 1_555
Zn1K O2K 1_555 1_555
Zn1K_2 O4K 1_555 1_555
Zn2K O1K 1_555 1_555
Zn2F O3 1_555 1_555
Zn2F_2 N1F 1_555 1_555
Zn2M O3K 1_555 1_555
Zn2M_2 O5K 1_555 1_555
C3 N1 1_555 1_555
C4 C5 1_555 1_555
O1 Zn2 1_555 1_555
O4 Zn1 1_555 1_555
O5 Zn1 1_555 1_555
O5 Zn2F 1_555 1_555
Zn2 O5F 1_555 1_555
C2F C5F 1_555 1_555
C3F N1F 1_555 1_555
C4F C5F 1_555 1_555
C7K C8K 1_555 1_555
C12K C13K 1_555 1_555
C17K C18K 1_555 1_555
O5K Zn1K 1_555 1_555
O5M Zn2K 1_555 1_555

#END
