
#######################################################################
#
#                 Cambridge Crystallographic Data Centre
#                                CCDC 
#
#######################################################################
#
# If this CIF has been generated from an entry in the Cambridge 
# Structural Database, then it will include bibliographic, chemical, 
# crystal, experimental, refinement or atomic coordinate data resulting 
# from the CCDC's data processing and validation procedures.
#
#######################################################################

data_SUNDIP
_symmetry_cell_setting           monoclinic
_symmetry_space_group_name_H-M   'P 21/c'
_symmetry_Int_Tables_number      14
_space_group_name_Hall           '-P 2ybc'
loop_
_symmetry_equiv_pos_site_id
_symmetry_equiv_pos_as_xyz
1 x,y,z
2 -x,1/2+y,1/2-z
3 -x,-y,-z
4 x,1/2-y,1/2+z
_cell_length_a                   8.4853(2)
_cell_length_b                   6.2426(2)
_cell_length_c                   15.9858(4)
_cell_angle_alpha                90
_cell_angle_beta                 102.3270(10)
_cell_angle_gamma                90
_cell_volume                     827.251
loop_
_atom_site_label
_atom_site_type_symbol
_atom_site_fract_x
_atom_site_fract_y
_atom_site_fract_z
C1 C -0.16404(19) 0.1014(3) -0.12938(10)
C2 C -0.26848(19) 0.1594(3) -0.21551(10)
C3 C -0.3021(2) -0.0391(3) -0.27331(11)
C4 C -0.4187(2) 0.0157(3) -0.35704(11)
C5 C -0.3532(2) 0.1960(3) -0.40498(11)
C6 C -0.3109(2) 0.3926(3) -0.34725(11)
C7 C -0.2005(2) 0.3411(3) -0.26100(11)
C8 C -0.21470(19) 0.1143(3) -0.44288(10)
O1 O -0.21854(14) -0.0398(2) -0.08612(8)
O2 O -0.03064(15) 0.1950(2) -0.10515(8)
O3 O -0.24489(14) -0.0447(2) -0.49279(8)
O4 O -0.07960(16) 0.2043(2) -0.42345(9)
Zn1 Zn 0.08749(2) 0.24717(3) 0.011780(11)
H1 H -0.205(2) -0.091(3) -0.2844(11)
H2 H -0.343(2) -0.150(3) -0.2431(12)
H3 H -0.440(2) -0.108(3) -0.3926(12)
H4 H -0.517(2) 0.065(3) -0.3450(12)
H5 H -0.265(2) 0.498(3) -0.3749(12)
H6 H -0.413(2) 0.452(3) -0.3392(12)
H7 H -0.099(2) 0.298(4) -0.2693(12)
H8 H -0.189(2) 0.463(3) -0.2273(12)
H9 H -0.432(2) 0.233(2) -0.4501(14)
H10 H -0.369(3) 0.209(3) -0.2032(13)
C1B C 0.16404(19) -0.1014(3) 0.12938(10)
C2B C 0.26848(19) -0.1594(3) 0.21551(10)
C3B C 0.3021(2) 0.0391(3) 0.27331(11)
C4B C 0.4187(2) -0.0157(3) 0.35704(11)
C5B C 0.3532(2) -0.1960(3) 0.40498(11)
C6B C 0.3109(2) -0.3926(3) 0.34725(11)
C7B C 0.2005(2) -0.3411(3) 0.26100(11)
C8B C 0.21470(19) -0.1143(3) 0.44288(10)
O1B O 0.21854(14) 0.0398(2) 0.08612(8)
O2B O 0.03064(15) -0.1950(2) 0.10515(8)
O3B O 0.24489(14) 0.0447(2) 0.49279(8)
O3A O 0.24489(14) 0.4553(2) -0.00721(8)
O3C O -0.24489(14) -0.4553(2) 0.00721(8)
O4B O 0.07960(16) -0.2043(2) 0.42345(9)
O4A O 0.07960(16) -0.2957(2) -0.07655(9)
O4C O -0.07960(16) 0.2957(2) 0.07655(9)
Zn1B Zn -0.08749(2) -0.24717(3) -0.011780(11)
Zn1A Zn -0.08749(2) -0.25283(3) -0.511780(11)
Zn1A_2 Zn -0.08749(2) -0.25283(3) 0.488220(11)
Zn1C Zn 0.08749(2) 0.25283(3) -0.488220(11)
Zn1C_2 Zn 0.08749(2) 0.25283(3) 0.511780(11)
H1B H 0.205(2) 0.091(3) 0.2844(11)
H2B H 0.343(2) 0.150(3) 0.2431(12)
H3B H 0.440(2) 0.108(3) 0.3926(12)
H4B H 0.517(2) -0.065(3) 0.3450(12)
H5B H 0.265(2) -0.498(3) 0.3749(12)
H6B H 0.413(2) -0.452(3) 0.3392(12)
H7B H 0.099(2) -0.298(4) 0.2693(12)
H8B H 0.189(2) -0.463(3) 0.2273(12)
H9B H 0.432(2) -0.233(2) 0.4501(14)
H10B H 0.369(3) -0.209(3) 0.2032(13)
loop_
_geom_bond_atom_site_label_1
_geom_bond_atom_site_label_2
_geom_bond_site_symmetry_1
_geom_bond_site_symmetry_2
C1 C2 1_555 1_555
C2 C3 1_555 1_555
C3 C4 1_555 1_555
C4 C5 1_555 1_555
C5 C6 1_555 1_555
C6 C7 1_555 1_555
C7 C2 1_555 1_555
C8 C5 1_555 1_555
O1 C1 1_555 1_555
O2 C1 1_555 1_555
O3 C8 1_555 1_555
O4 C8 1_555 1_555
Zn1 O2 1_555 1_555
H1 C3 1_555 1_555
H2 C3 1_555 1_555
H3 C4 1_555 1_555
H4 C4 1_555 1_555
H5 C6 1_555 1_555
H6 C6 1_555 1_555
H7 C7 1_555 1_555
H8 C7 1_555 1_555
H9 C5 1_555 1_555
H10 C2 1_555 1_555
C1B C2B 1_555 1_555
C2B C3B 1_555 1_555
C3B C4B 1_555 1_555
C4B C5B 1_555 1_555
C5B C6B 1_555 1_555
C6B C7B 1_555 1_555
C7B C2B 1_555 1_555
C8B C5B 1_555 1_555
O1B Zn1 1_555 1_555
O2B C1B 1_555 1_555
O3B C8B 1_555 1_555
O3A Zn1 1_555 1_555
O3C Zn1B 1_555 1_555
O4B C8B 1_555 1_555
O4A Zn1B 1_555 1_555
O4C Zn1 1_555 1_555
Zn1B O1 1_555 1_555
Zn1A O3 1_555 1_555
Zn1A_2 O4B 1_555 1_555
Zn1C O4 1_555 1_555
Zn1C_2 O3B 1_555 1_555
H1B C3B 1_555 1_555
H2B C3B 1_555 1_555
H3B C4B 1_555 1_555
H4B C4B 1_555 1_555
H5B C6B 1_555 1_555
H6B C6B 1_555 1_555
H7B C7B 1_555 1_555
H8B C7B 1_555 1_555
H9B C5B 1_555 1_555
H10B C2B 1_555 1_555
C1B O1B 1_555 1_555
O2B Zn1B 1_555 1_555

#END
