
#######################################################################
#
#                 Cambridge Crystallographic Data Centre
#                                CCDC 
#
#######################################################################
#
# If this CIF has been generated from an entry in the Cambridge 
# Structural Database, then it will include bibliographic, chemical, 
# crystal, experimental, refinement or atomic coordinate data resulting 
# from the CCDC's data processing and validation procedures.
#
#######################################################################

data_SUNHOZ
_symmetry_cell_setting           triclinic
_symmetry_space_group_name_H-M   'P -1'
_symmetry_Int_Tables_number      2
_space_group_name_Hall           '-P 1'
loop_
_symmetry_equiv_pos_site_id
_symmetry_equiv_pos_as_xyz
1 x,y,z
2 -x,-y,-z
_cell_length_a                   8.3734(2)
_cell_length_b                   10.5740(2)
_cell_length_c                   14.3077(3)
_cell_angle_alpha                101.4780(10)
_cell_angle_beta                 103.1200(10)
_cell_angle_gamma                102.2470(10)
_cell_volume                     1164.3
loop_
_atom_site_label
_atom_site_type_symbol
_atom_site_fract_x
_atom_site_fract_y
_atom_site_fract_z
Y1 Y -0.34336(4) 0.66015(3) 0.17072(2)
O1 O -0.4222(3) -0.1714(2) 0.26190(17)
O2 O -0.2715(3) 0.0021(2) 0.39170(18)
O3 O -0.3457(3) 0.4494(2) 0.09558(16)
O4 O -0.5356(3) 0.2847(2) -0.02744(17)
O5 O -0.1344(3) 0.8643(2) 0.19330(17)
O6 O -0.1184(3) 0.6931(2) 0.08238(17)
O7 O -0.0912(3) 0.6470(2) 0.28734(17)
O8 O -0.3341(3) 0.5751(2) 0.31856(17)
O9 O -0.6214(3) 0.5521(2) 0.14930(17)
N1 N -0.7647(4) 0.6687(3) 0.2340(2)
H1 H -0.6718 0.7247 0.2725
H2 H -0.8612 0.6774 0.2414
N2 N -0.9065(3) 0.4803(3) 0.1058(2)
H3 H -0.9055 0.4135 0.0607
H4 H -1.0016 0.4908 0.1146
C1 C -0.7591(4) 0.5685(4) 0.1628(3)
C2 C -0.3747(4) 0.0502(3) 0.2382(2)
C3 C -0.5013(4) 0.0120(4) 0.1484(3)
H6 H -0.5728 -0.0747 0.1263
C4 C -0.5216(4) 0.1028(4) 0.0915(2)
H7 H -0.6086 0.0764 0.0323
C5 C -0.4142(4) 0.2323(3) 0.1213(2)
C6 C -0.2854(4) 0.2700(4) 0.2113(3)
H8 H -0.2107 0.3554 0.2321
C7 C -0.2685(4) 0.1808(3) 0.2699(2)
H9 H -0.1857 0.2083 0.3308
C8 C -0.3515(4) -0.0452(4) 0.3028(3)
C9 C -0.4337(4) 0.3301(4) 0.0585(3)
C10 C -0.0384(4) 0.9129(3) 0.0573(2)
C11 C 0.0307(4) 0.8746(4) -0.0191(3)
H10 H 0.0515 0.7907 -0.0321
C12 C -0.0688(4) 1.0388(4) 0.0762(3)
H11 H -0.1152 1.0646 0.1278
C13 C -0.0957(4) 0.8178(4) 0.1152(3)
C14 C -0.0846(4) 0.5437(3) 0.4218(2)
C15 C 0.0903(4) 0.5590(4) 0.4432(2)
H12 H 0.1515 0.5989 0.4051
C16 C -0.1735(4) 0.4841(4) 0.4799(2)
H13 H -0.2903 0.4733 0.4666
C17 C -0.1736(5) 0.5917(3) 0.3385(3)
Y1_2 Y -0.34336(4) -0.33985(3) 0.17072(2)
Y1A Y -0.65664(4) 1.33985(3) -0.17072(2)
Y1A_2 Y 0.34336(4) 1.33985(3) -0.17072(2)
Y1A_3 Y 0.34336(4) 0.33985(3) 0.82928(2)
Y1A_4 Y -0.65664(4) 0.33985(3) -0.17072(2)
O1_2 O -0.4222(3) 0.8286(2) 0.26190(17)
O1A O -0.5778(3) 1.1714(2) -0.26190(17)
O1A_2 O -0.5778(3) 0.1714(2) -0.26190(17)
O2A O -0.7285(3) 0.9979(2) -0.39170(18)
O3A O -0.6543(3) 0.5506(2) -0.09558(16)
O4A O -0.4644(3) 0.7153(2) 0.02744(17)
O5A O 0.1344(3) 1.1357(2) -0.19330(17)
O5A_2 O -0.8656(3) 0.1357(2) -0.19330(17)
O6A O 0.1184(3) 1.3069(2) -0.08238(17)
O6A_2 O -0.8816(3) 0.3069(2) -0.08238(17)
O7A O 0.0912(3) 0.3530(2) 0.71266(17)
O7A_2 O -0.9088(3) 0.3530(2) -0.28734(17)
O8A O 0.3341(3) 0.4249(2) 0.68144(17)
O8A_2 O -0.6659(3) 0.4249(2) -0.31856(17)
O9A O -0.3786(3) 0.4479(2) -0.14930(17)
N1A N -0.2353(4) 0.3313(3) -0.2340(2)
H1A H -0.3282 0.2753 -0.2725
H2A H -0.1388 0.3226 -0.2414
N2A N -0.0935(3) 0.5197(3) -0.1058(2)
H3A H -0.0945 0.5865 -0.0607
H4A H 0.0016 0.5092 -0.1146
C1A C -0.2409(4) 0.4315(4) -0.1628(3)
C2A C -0.6253(4) 0.9498(3) -0.2382(2)
C3A C -0.4987(4) 0.9880(4) -0.1484(3)
H6A H -0.4272 1.0747 -0.1263
C4A C -0.4784(4) 0.8972(4) -0.0915(2)
H7A H -0.3914 0.9236 -0.0323
C5A C -0.5858(4) 0.7677(3) -0.1213(2)
C6A C -0.7146(4) 0.7300(4) -0.2113(3)
H8A H -0.7893 0.6446 -0.2321
C7A C -0.7315(4) 0.8192(3) -0.2699(2)
H9A H -0.8143 0.7917 -0.3308
C8A C -0.6485(4) 1.0452(4) -0.3028(3)
C9A C -0.5663(4) 0.6699(4) -0.0585(3)
C10A C 0.0384(4) 1.0871(3) -0.0573(2)
C11A C -0.0307(4) 1.1254(4) 0.0191(3)
H10A H -0.0515 1.2093 0.0321
C12A C 0.0688(4) 0.9612(4) -0.0762(3)
H11A H 0.1152 0.9354 -0.1278
C13A C 0.0957(4) 1.1822(4) -0.1152(3)
C14A C 0.0846(4) 0.4563(3) 0.5782(2)
C15A C -0.0903(4) 0.4410(4) 0.5568(2)
H12A H -0.1515 0.4011 0.5949
C16A C 0.1735(4) 0.5159(4) 0.5201(2)
H13A H 0.2903 0.5267 0.5334
C17A C 0.1736(5) 0.4083(3) 0.6615(3)
O10 O -0.6049(3) 0.4234(3) 0.36723(19)
H5 H -0.6252 0.4944 0.3614
N3 N -0.7177(4) 0.1370(3) 0.4001(2)
C18 C -0.8735(5) 0.1504(4) 0.4309(3)
H14 H -0.8704 0.1229 0.4911
H15 H -0.9728 0.0948 0.3795
H16 H -0.8773 0.2422 0.4418
C19 C -0.7205(5) -0.0076(4) 0.3813(3)
H17 H -0.7238 -0.0368 0.4405
H18 H -0.6200 -0.0194 0.3633
H19 H -0.8195 -0.0596 0.3282
C20 C -0.5634(5) 0.2157(4) 0.4832(3)
H20 H -0.5697 0.1875 0.5424
H21 H -0.5578 0.3093 0.4947
H22 H -0.4634 0.2008 0.4659
C21 C -0.7130(5) 0.1790(4) 0.3049(3)
H23 H -0.6042 0.1754 0.2931
H24 H -0.8006 0.1126 0.2506
C22 C -0.7368(5) 0.3154(4) 0.2997(3)
H25 H -0.7441 0.3242 0.2327
H26 H -0.8440 0.3213 0.3128
loop_
_geom_bond_atom_site_label_1
_geom_bond_atom_site_label_2
_geom_bond_site_symmetry_1
_geom_bond_site_symmetry_2
Y1 O3 1_555 1_555
O1 C8 1_555 1_555
O2 C8 1_555 1_555
O3 C9 1_555 1_555
O4 C9 1_555 1_555
O5 Y1 1_555 1_555
O6 Y1 1_555 1_555
O7 Y1 1_555 1_555
O8 Y1 1_555 1_555
O9 Y1 1_555 1_555
N1 H1 1_555 1_555
H2 N1 1_555 1_555
N2 H3 1_555 1_555
H4 N2 1_555 1_555
O10 H5 1_555 1_555
C1 O9 1_555 1_555
N3 C18 1_555 1_555
C2 C3 1_555 1_555
C3 H6 1_555 1_555
C4 C3 1_555 1_555
H7 C4 1_555 1_555
C5 C4 1_555 1_555
C6 C5 1_555 1_555
H8 C6 1_555 1_555
C7 C2 1_555 1_555
H9 C7 1_555 1_555
C8 C2 1_555 1_555
C9 C5 1_555 1_555
C10 C11 1_555 1_555
C11 H10 1_555 1_555
C12 C10 1_555 1_555
H11 C12 1_555 1_555
C13 O5 1_555 1_555
C14 C15 1_555 1_555
C15 H12 1_555 1_555
C16 C14 1_555 1_555
H13 C16 1_555 1_555
C17 O7 1_555 1_555
C18 H14 1_555 1_555
H15 C18 1_555 1_555
H16 C18 1_555 1_555
C19 N3 1_555 1_555
H17 C19 1_555 1_555
H18 C19 1_555 1_555
H19 C19 1_555 1_555
C20 N3 1_555 1_555
H20 C20 1_555 1_555
H21 C20 1_555 1_555
H22 C20 1_555 1_555
C21 N3 1_555 1_555
H23 C21 1_555 1_555
H24 C21 1_555 1_555
C22 O10 1_555 1_555
H25 C22 1_555 1_555
H26 C22 1_555 1_555
Y1_2 O1 1_555 1_555
Y1A O1A 1_555 1_555
Y1A_2 O5A 1_555 1_555
Y1A_3 O7A 1_555 1_555
Y1A_4 O4 1_555 1_555
O1_2 Y1 1_555 1_555
O1A C8A 1_555 1_555
O1A_2 Y1A_4 1_555 1_555
O2A C8A 1_555 1_555
O3A Y1A_4 1_555 1_555
O4A Y1 1_555 1_555
O5A C13A 1_555 1_555
O5A_2 Y1A_4 1_555 1_555
O6A Y1A_2 1_555 1_555
O6A_2 Y1A_4 1_555 1_555
O7A C17A 1_555 1_555
O7A_2 Y1A_4 1_555 1_555
O8A Y1A_3 1_555 1_555
O8A_2 Y1A_4 1_555 1_555
O9A Y1A_4 1_555 1_555
N1A H1A 1_555 1_555
H2A N1A 1_555 1_555
N2A H3A 1_555 1_555
H4A N2A 1_555 1_555
C1A O9A 1_555 1_555
C2A C3A 1_555 1_555
C3A H6A 1_555 1_555
C4A C3A 1_555 1_555
H7A C4A 1_555 1_555
C5A C4A 1_555 1_555
C6A C5A 1_555 1_555
H8A C6A 1_555 1_555
C7A C2A 1_555 1_555
H9A C7A 1_555 1_555
C8A C2A 1_555 1_555
C9A O3A 1_555 1_555
C10A C11A 1_555 1_555
C11A C12 1_555 1_555
H10A C11A 1_555 1_555
C12A C11 1_555 1_555
H11A C12A 1_555 1_555
C13A O6A 1_555 1_555
C14A C15A 1_555 1_555
C15A C16 1_555 1_555
H12A C15A 1_555 1_555
C16A C15 1_555 1_555
H13A C16A 1_555 1_555
C17A O8A 1_555 1_555
O6 C13 1_555 1_555
O8 C17 1_555 1_555
N1 C1 1_555 1_555
N2 C1 1_555 1_555
C6 C7 1_555 1_555
C10 C13 1_555 1_555
C14 C17 1_555 1_555
C21 C22 1_555 1_555
O4A C9A 1_555 1_555
N1A C1A 1_555 1_555
N2A C1A 1_555 1_555
C5A C9A 1_555 1_555
C6A C7A 1_555 1_555
C10A C12A 1_555 1_555
C10A C13A 1_555 1_555
C14A C16A 1_555 1_555
C14A C17A 1_555 1_555

#END
