
#######################################################################
#
#                 Cambridge Crystallographic Data Centre
#                                CCDC 
#
#######################################################################
#
# If this CIF has been generated from an entry in the Cambridge 
# Structural Database, then it will include bibliographic, chemical, 
# crystal, experimental, refinement or atomic coordinate data resulting 
# from the CCDC's data processing and validation procedures.
#
#######################################################################

data_SUNHEP
_symmetry_cell_setting           triclinic
_symmetry_space_group_name_H-M   'P -1'
_symmetry_Int_Tables_number      2
_space_group_name_Hall           '-P 1'
loop_
_symmetry_equiv_pos_site_id
_symmetry_equiv_pos_as_xyz
1 x,y,z
2 -x,-y,-z
_cell_length_a                   8.40340(10)
_cell_length_b                   10.53340(10)
_cell_length_c                   14.35150(10)
_cell_angle_alpha                100.83
_cell_angle_beta                 103.41
_cell_angle_gamma                101.56
_cell_volume                     1173.46
loop_
_atom_site_label
_atom_site_type_symbol
_atom_site_fract_x
_atom_site_fract_y
_atom_site_fract_z
Yb1 Yb 0.154343(14) 1.159480(11) 0.170179(8)
O1 O 0.1524(3) 0.9525(2) 0.09604(15)
O2 O -0.0305(3) 0.7904(2) -0.02817(15)
O3 O 0.0752(3) 0.3260(2) 0.25876(16)
O4 O 0.2198(4) 0.4956(2) 0.38750(17)
O5 O 0.1672(3) 1.0759(2) 0.31692(16)
O6 O 0.4069(3) 1.1451(2) 0.28506(16)
O7 O 0.3543(3) 1.3608(2) 0.18849(16)
O8 O 0.3765(3) 1.1917(2) 0.08062(15)
O9 O -0.1171(3) 1.0530(2) 0.15139(16)
N1 N -0.2630(4) 1.1684(3) 0.2325(2)
H2 H -0.1714 1.2235 0.2713
H3 H -0.3596 1.1776 0.2388
N2 N -0.3996(3) 0.9828(3) 0.1067(2)
H4 H -0.3975 0.9159 0.0627
H5 H -0.4947 0.9940 0.1145
C1 C 0.0859(4) 0.7340(3) 0.1208(2)
C2 C 0.2116(4) 0.7689(3) 0.2105(2)
H6 H 0.2862 0.8535 0.2316
C3 C 0.2254(4) 0.6783(3) 0.2678(2)
H7 H 0.3062 0.7042 0.3290
C4 C 0.1209(4) 0.5486(3) 0.2363(2)
C5 C -0.0032(4) 0.5134(3) 0.1460(2)
H8 H -0.0738 0.4273 0.1231
C6 C -0.0217(4) 0.6066(3) 0.0899(2)
H9 H -0.1075 0.5830 0.0308
C7 C 0.0672(4) 0.8337(3) 0.0583(2)
C8 C 0.1432(4) 0.4504(3) 0.2997(2)
C9 C 0.4161(4) 1.0447(3) 0.4212(2)
C10 C 0.3267(4) 0.9792(3) 0.4767(2)
H10 H 0.2098 0.9653 0.4614
C11 C 0.3247(4) 1.0915(3) 0.3371(2)
C12 C 0.4581(4) 1.4119(3) 0.0563(2)
C13 C 0.5315(4) 1.3746(3) -0.0179(2)
H11 H 0.5527 1.2906 -0.0301
C14 C 0.4266(4) 1.5370(3) 0.0742(2)
H12 H 0.3773 1.5620 0.1242
C15 C 0.3970(4) 1.3156(3) 0.1124(2)
C16 C -0.2551(4) 1.0695(3) 0.1629(2)
C22 C 0.5901(4) 1.0650(3) 0.4461(2)
H26 H 0.6517 1.1090 0.4103
Yb1A Yb -0.154343(14) 0.840520(11) -0.170179(8)
Yb1_2 Yb 0.154343(14) 0.159480(11) 0.170179(8)
Yb1A_2 Yb 0.845657(14) 0.840520(11) 0.829821(8)
Yb1A_3 Yb 0.845657(14) 1.840520(11) -0.170179(8)
Yb1A_4 Yb -0.154343(14) 1.840520(11) -0.170179(8)
O1A O -0.1524(3) 1.0475(2) -0.09604(15)
O2A O 0.0305(3) 1.2096(2) 0.02817(15)
O3A O -0.0752(3) 1.6740(2) -0.25876(16)
O3_2 O 0.0752(3) 1.3260(2) 0.25876(16)
O3A_2 O -0.0752(3) 0.6740(2) -0.25876(16)
O4A O -0.2198(4) 1.5044(2) -0.38750(17)
O5A O 0.8328(3) 0.9241(2) 0.68308(16)
O5A_2 O -0.1672(3) 0.9241(2) -0.31692(16)
O6A O 0.5931(3) 0.8549(2) 0.71494(16)
O6A_2 O -0.4069(3) 0.8549(2) -0.28506(16)
O7A O 0.6457(3) 1.6392(2) -0.18849(16)
O7A_2 O -0.3543(3) 0.6392(2) -0.18849(16)
O8A O 0.6235(3) 1.8083(2) -0.08062(15)
O8A_2 O -0.3765(3) 0.8083(2) -0.08062(15)
O9A O 0.1171(3) 0.9470(2) -0.15139(16)
N1A N 0.2630(4) 0.8316(3) -0.2325(2)
H2A H 0.1714 0.7765 -0.2713
H3A H 0.3596 0.8224 -0.2388
N2A N 0.3996(3) 1.0172(3) -0.1067(2)
H4A H 0.3975 1.0841 -0.0627
H5A H 0.4947 1.0060 -0.1145
C1A C -0.0859(4) 1.2660(3) -0.1208(2)
C2A C -0.2116(4) 1.2311(3) -0.2105(2)
H6A H -0.2862 1.1465 -0.2316
C3A C -0.2254(4) 1.3217(3) -0.2678(2)
H7A H -0.3062 1.2958 -0.3290
C4A C -0.1209(4) 1.4514(3) -0.2363(2)
C5A C 0.0032(4) 1.4866(3) -0.1460(2)
H8A H 0.0738 1.5727 -0.1231
C6A C 0.0217(4) 1.3934(3) -0.0899(2)
H9A H 0.1075 1.4170 -0.0308
C7A C -0.0672(4) 1.1663(3) -0.0583(2)
C8A C -0.1432(4) 1.5496(3) -0.2997(2)
C9A C 0.5839(4) 0.9553(3) 0.5788(2)
C10A C 0.6733(4) 1.0208(3) 0.5233(2)
H10A H 0.7902 1.0347 0.5386
C11A C 0.6753(4) 0.9085(3) 0.6629(2)
C12A C 0.5419(4) 1.5881(3) -0.0563(2)
C13A C 0.4685(4) 1.6254(3) 0.0179(2)
H11A H 0.4473 1.7094 0.0301
C14A C 0.5734(4) 1.4630(3) -0.0742(2)
H12A H 0.6227 1.4380 -0.1242
C15A C 0.6030(4) 1.6844(3) -0.1124(2)
C16A C 0.2551(4) 0.9305(3) -0.1629(2)
C22A C 0.4099(4) 0.9350(3) 0.5539(2)
H26A H 0.3483 0.8910 0.5897
O10 O 0.1029(4) 0.0835(3) 0.6375(2)
H1 H 0.1206 0.0112 0.6434
N3 N 0.2266(4) 0.3654(3) 0.6011(2)
C17 C 0.0710(5) 0.2871(5) 0.5198(3)
H13 H 0.0759 0.3131 0.4597
H14 H -0.0274 0.3047 0.5373
H15 H 0.0648 0.1934 0.5104
C18 C 0.3777(5) 0.3489(5) 0.5687(4)
H16 H 0.3724 0.3756 0.5079
H17 H 0.3810 0.2568 0.5587
H18 H 0.4779 0.4034 0.6184
C19 C 0.2284(6) 0.5090(4) 0.6188(4)
H19 H 0.2316 0.5386 0.5598
H20 H 0.3265 0.5600 0.6716
H21 H 0.1282 0.5213 0.6366
C20 C 0.2223(7) 0.3245(5) 0.6964(3)
H22 H 0.1167 0.3337 0.7097
H23 H 0.3130 0.3879 0.7494
C21 C 0.2382(6) 0.1876(5) 0.7020(3)
H24 H 0.3423 0.1764 0.6874
H25 H 0.2472 0.1798 0.7692
loop_
_geom_bond_atom_site_label_1
_geom_bond_atom_site_label_2
_geom_bond_site_symmetry_1
_geom_bond_site_symmetry_2
Yb1 O1 1_555 1_555
O1 C7 1_555 1_555
O2 C7 1_555 1_555
O3 C8 1_555 1_555
O4 C8 1_555 1_555
O5 Yb1 1_555 1_555
O6 Yb1 1_555 1_555
O7 Yb1 1_555 1_555
O8 Yb1 1_555 1_555
O9 Yb1 1_555 1_555
O10 H1 1_555 1_555
N1 H2 1_555 1_555
H3 N1 1_555 1_555
N2 H4 1_555 1_555
H5 N2 1_555 1_555
N3 C17 1_555 1_555
C1 C2 1_555 1_555
C2 H6 1_555 1_555
C3 C2 1_555 1_555
H7 C3 1_555 1_555
C4 C3 1_555 1_555
C5 C4 1_555 1_555
H8 C5 1_555 1_555
C6 C1 1_555 1_555
H9 C6 1_555 1_555
C7 C1 1_555 1_555
C8 C4 1_555 1_555
C9 C10 1_555 1_555
C10 H10 1_555 1_555
C11 O5 1_555 1_555
C12 C13 1_555 1_555
C13 H11 1_555 1_555
C14 C12 1_555 1_555
H12 C14 1_555 1_555
C15 O7 1_555 1_555
C16 O9 1_555 1_555
C17 H13 1_555 1_555
H14 C17 1_555 1_555
H15 C17 1_555 1_555
C18 N3 1_555 1_555
H16 C18 1_555 1_555
H17 C18 1_555 1_555
H18 C18 1_555 1_555
C19 N3 1_555 1_555
H19 C19 1_555 1_555
H20 C19 1_555 1_555
H21 C19 1_555 1_555
C20 N3 1_555 1_555
H22 C20 1_555 1_555
H23 C20 1_555 1_555
C21 O10 1_555 1_555
H24 C21 1_555 1_555
H25 C21 1_555 1_555
C22 C9 1_555 1_555
H26 C22 1_555 1_555
Yb1A O2 1_555 1_555
Yb1_2 O3 1_555 1_555
Yb1A_2 O5A 1_555 1_555
Yb1A_3 O7A 1_555 1_555
Yb1A_4 O3A 1_555 1_555
O1A Yb1A 1_555 1_555
O2A Yb1 1_555 1_555
O3A C8A 1_555 1_555
O3_2 Yb1 1_555 1_555
O3A_2 Yb1A 1_555 1_555
O4A C8A 1_555 1_555
O5A C11A 1_555 1_555
O5A_2 Yb1A 1_555 1_555
O6A Yb1A_2 1_555 1_555
O6A_2 Yb1A 1_555 1_555
O7A C15A 1_555 1_555
O7A_2 Yb1A 1_555 1_555
O8A Yb1A_3 1_555 1_555
O8A_2 Yb1A 1_555 1_555
O9A Yb1A 1_555 1_555
N1A H2A 1_555 1_555
H3A N1A 1_555 1_555
N2A H4A 1_555 1_555
H5A N2A 1_555 1_555
C1A C2A 1_555 1_555
C2A H6A 1_555 1_555
C3A C2A 1_555 1_555
H7A C3A 1_555 1_555
C4A C3A 1_555 1_555
C5A C4A 1_555 1_555
H8A C5A 1_555 1_555
C6A C1A 1_555 1_555
H9A C6A 1_555 1_555
C7A O1A 1_555 1_555
C8A C4A 1_555 1_555
C9A C10A 1_555 1_555
C10A C22 1_555 1_555
H10A C10A 1_555 1_555
C11A O6A 1_555 1_555
C12A C13A 1_555 1_555
C13A C14 1_555 1_555
H11A C13A 1_555 1_555
C14A C13 1_555 1_555
H12A C14A 1_555 1_555
C15A O8A 1_555 1_555
C16A O9A 1_555 1_555
C22A C10 1_555 1_555
H26A C22A 1_555 1_555
O6 C11 1_555 1_555
O8 C15 1_555 1_555
N1 C16 1_555 1_555
N2 C16 1_555 1_555
C5 C6 1_555 1_555
C9 C11 1_555 1_555
C12 C15 1_555 1_555
C20 C21 1_555 1_555
O2A C7A 1_555 1_555
N1A C16A 1_555 1_555
N2A C16A 1_555 1_555
C1A C7A 1_555 1_555
C5A C6A 1_555 1_555
C9A C11A 1_555 1_555
C9A C22A 1_555 1_555
C12A C14A 1_555 1_555
C12A C15A 1_555 1_555

#END
