
#######################################################################
#
#                 Cambridge Crystallographic Data Centre
#                                CCDC 
#
#######################################################################
#
# If this CIF has been generated from an entry in the Cambridge 
# Structural Database, then it will include bibliographic, chemical, 
# crystal, experimental, refinement or atomic coordinate data resulting 
# from the CCDC's data processing and validation procedures.
#
#######################################################################

data_SUNHUF
_symmetry_cell_setting           monoclinic
_symmetry_space_group_name_H-M   'P 21/n'
_symmetry_Int_Tables_number      14
_space_group_name_Hall           '-P 2yn'
loop_
_symmetry_equiv_pos_site_id
_symmetry_equiv_pos_as_xyz
1 x,y,z
2 1/2-x,1/2+y,1/2-z
3 -x,-y,-z
4 1/2+x,1/2-y,1/2+z
_cell_length_a                   14.4400(3)
_cell_length_b                   12.2290(2)
_cell_length_c                   14.5152(3)
_cell_angle_alpha                90
_cell_angle_beta                 104.6570(10)
_cell_angle_gamma                90
_cell_volume                     2479.78
loop_
_atom_site_label
_atom_site_type_symbol
_atom_site_fract_x
_atom_site_fract_y
_atom_site_fract_z
Nd1 Nd 1.07351(3) -0.05608(3) -0.09311(3)
O1 O 1.1893(4) 0.0967(5) -0.0268(4)
O2 O 1.0744(4) 0.0861(4) 0.0462(3)
O3 O 1.3662(4) 0.3645(4) 0.4347(4)
O4 O 1.4648(4) 0.4068(4) 0.3433(4)
O5 O 1.1970(6) -0.3400(5) -0.0502(5)
O6 O 1.0594(4) -0.2513(4) -0.1110(4)
O7 O 0.9982(4) -0.1007(5) -0.2634(4)
O8 O 1.1189(4) 0.0138(5) -0.2434(3)
O9 O 1.2318(5) -0.1411(6) -0.0923(6)
N1 N 1.3492(12) -0.1605(12) -0.2520(10)
C1 C 1.2148(5) 0.1850(6) 0.1229(5)
C2 C 1.2825(5) 0.2577(6) 0.1082(5)
H3 H 1.2911 0.2674 0.0474
C3 C 1.3376(6) 0.3165(6) 0.1839(5)
H4 H 1.3817 0.3670 0.1730
C4 C 1.3283(5) 0.3016(6) 0.2749(5)
C5 C 1.2601(6) 0.2305(7) 0.2893(5)
H5 H 1.2527 0.2206 0.3506
C6 C 1.2018(6) 0.1730(7) 0.2143(5)
H6 H 1.1544 0.1269 0.2249
C7 C 1.1570(6) 0.1189(6) 0.0422(5)
C8 C 1.3904(5) 0.3629(6) 0.3577(5)
C9 C 1.1065(9) -0.3310(7) -0.0665(7)
C10 C 1.0530(8) -0.4178(7) -0.0313(7)
C11 C 0.9532(8) -0.4138(8) -0.0514(8)
H7 H 0.9213 -0.3552 -0.0863
C12 C 1.0990(7) -0.5068(8) 0.0214(7)
H8 H 1.1654 -0.5120 0.0360
C13 C 1.0485(6) -0.0346(6) -0.2968(5)
C14 C 1.0239(5) -0.0168(6) -0.4015(5)
C15 C 1.0872(6) 0.0359(6) -0.4447(5)
H9 H 1.1454 0.0611 -0.4075
C16 C 0.9354(6) -0.0514(6) -0.4569(5)
H10 H 0.8917 -0.0847 -0.4285
C17 C 1.4292(14) -0.1885(17) -0.2955(15)
H11 H 1.4838 -0.1439 -0.2677
H12 H 1.4096 -0.1754 -0.3629
H13 H 1.4457 -0.2642 -0.2841
C18 C 1.2549(16) -0.229(2) -0.298(2)
H14 H 1.2049 -0.2078 -0.2688
H15 H 1.2679 -0.3053 -0.2883
H16 H 1.2350 -0.2138 -0.3652
C19 C 1.3358(14) -0.0437(12) -0.2711(16)
H17 H 1.3942 -0.0057 -0.2428
H18 H 1.2857 -0.0170 -0.2444
H19 H 1.3186 -0.0316 -0.3386
C20 C 1.3908(13) -0.1686(13) -0.1461(13)
H20 H 1.4556 -0.1401 -0.1307
H21 H 1.3942 -0.2450 -0.1277
C21 C 1.3286(12) -0.1017(15) -0.0835(14)
H22 H 1.3631 -0.1048 -0.0169
H23 H 1.3251 -0.0255 -0.1027
Nd1B Nd 0.92649(3) 0.05608(3) 0.09311(3)
Nd1A Nd 1.42649(3) 0.44392(3) 0.59311(3)
Nd1C Nd 1.57351(3) 0.55608(3) 0.40689(3)
Nd1B_2 Nd 0.92649(3) -0.94392(3) 0.09311(3)
Nd1B_3 Nd 0.92649(3) 0.05608(3) -0.90689(3)
Nd1C_2 Nd 0.57351(3) -0.44392(3) -0.59311(3)
Nd1A_2 Nd 0.42649(3) -0.55608(3) -0.40689(3)
O1B O 0.8107(4) -0.0967(5) 0.0268(4)
O2B O 0.9256(4) -0.0861(4) -0.0462(3)
O3B O 0.6338(4) -0.3645(4) -0.4347(4)
O3A O 1.1338(4) -0.1355(4) 0.0653(4)
O3C O 0.8662(4) 0.1355(4) -0.0653(4)
O4B O 0.5352(4) -0.4068(4) -0.3433(4)
O4C O 0.9648(4) 0.0932(4) -0.1567(4)
O4A O 1.0352(4) -0.0932(4) 0.1567(4)
O5B O 0.8030(6) -0.6600(5) 0.0502(5)
O6B O 0.9406(4) -0.7487(4) 0.1110(4)
O6B_2 O 0.9406(4) 0.2513(4) 0.1110(4)
O7B O 1.0018(4) 0.1007(5) -0.7366(4)
O7B_2 O 1.0018(4) 0.1007(5) 0.2634(4)
O8B O 0.8811(4) -0.0138(5) -0.7566(3)
O8B_2 O 0.8811(4) -0.0138(5) 0.2434(3)
O9B O 0.7682(5) 0.1411(6) 0.0923(6)
N1B N 0.6508(12) 0.1605(12) 0.2520(10)
C1B C 0.7852(5) -0.1850(6) -0.1229(5)
C2B C 0.7175(5) -0.2577(6) -0.1082(5)
H3B H 0.7089 -0.2674 -0.0474
C3B C 0.6624(6) -0.3165(6) -0.1839(5)
H4B H 0.6183 -0.3670 -0.1730
C4B C 0.6717(5) -0.3016(6) -0.2749(5)
C5B C 0.7399(6) -0.2305(7) -0.2893(5)
H5B H 0.7473 -0.2206 -0.3506
C6B C 0.7982(6) -0.1730(7) -0.2143(5)
H6B H 0.8456 -0.1269 -0.2249
C7B C 0.8430(6) -0.1189(6) -0.0422(5)
C8B C 0.6096(5) -0.3629(6) -0.3577(5)
C9B C 0.8935(9) -0.6690(7) 0.0665(7)
C10B C 0.9470(8) -0.5822(7) 0.0313(7)
C11B C 1.0468(8) -0.5862(8) 0.0514(8)
H7B H 1.0787 -0.6448 0.0863
C12B C 0.9010(7) -0.4932(8) -0.0214(7)
H8B H 0.8346 -0.4880 -0.0360
C13B C 0.9515(6) 0.0346(6) -0.7032(5)
C14B C 0.9761(5) 0.0168(6) -0.5985(5)
C15B C 0.9128(6) -0.0359(6) -0.5553(5)
H9B H 0.8546 -0.0611 -0.5925
C16B C 1.0646(6) 0.0514(6) -0.5431(5)
H10B H 1.1083 0.0847 -0.5715
C17B C 0.5708(14) 0.1885(17) 0.2955(15)
H11B H 0.5162 0.1439 0.2677
H12B H 0.5904 0.1754 0.3629
H13B H 0.5543 0.2642 0.2841
C18B C 0.7451(16) 0.229(2) 0.298(2)
H14B H 0.7951 0.2078 0.2688
H15B H 0.7321 0.3053 0.2883
H16B H 0.7650 0.2138 0.3652
C19B C 0.6642(14) 0.0437(12) 0.2711(16)
H17B H 0.6058 0.0057 0.2428
H18B H 0.7143 0.0170 0.2444
H19B H 0.6814 0.0316 0.3386
C20B C 0.6092(13) 0.1686(13) 0.1461(13)
H20B H 0.5444 0.1401 0.1307
H21B H 0.6058 0.2450 0.1277
C21B C 0.6714(12) 0.1017(15) 0.0835(14)
H22B H 0.6369 0.1048 0.0169
H23B H 0.6749 0.0255 0.1027
O10 O 0.969(2) -0.458(3) -0.424(2)
N2 N 1.045(2) -0.3109(16) -0.3450(18)
H1 H 1.0483 -0.2637 -0.3003
N3 N 0.9409(13) -0.3914(15) -0.2936(13)
H2 H 0.9512 -0.3489 -0.2449
C22 C 0.990(3) -0.382(3) -0.357(3)
C23 C 1.112(2) -0.304(3) -0.415(2)
H24 H 1.1543 -0.2430 -0.3982
H25 H 1.0739 -0.2961 -0.4790
H26 H 1.1490 -0.3704 -0.4100
C24 C 0.8655(18) -0.478(2) -0.309(2)
H27 H 0.8363 -0.4781 -0.2563
H28 H 0.8942 -0.5482 -0.3129
H29 H 0.8178 -0.4638 -0.3668
loop_
_geom_bond_atom_site_label_1
_geom_bond_atom_site_label_2
_geom_bond_site_symmetry_1
_geom_bond_site_symmetry_2
Nd1 O1 1_555 1_555
O1 C7 1_555 1_555
O2 Nd1 1_555 1_555
O3 C8 1_555 1_555
O4 C8 1_555 1_555
O5 C9 1_555 1_555
O6 Nd1 1_555 1_555
O7 Nd1 1_555 1_555
O8 Nd1 1_555 1_555
O9 Nd1 1_555 1_555
O10 C22 1_555 1_555
N1 C17 1_555 1_555
N2 H1 1_555 1_555
N3 H2 1_555 1_555
C1 C2 1_555 1_555
C2 H3 1_555 1_555
C3 C2 1_555 1_555
H4 C3 1_555 1_555
C4 C3 1_555 1_555
C5 C4 1_555 1_555
H5 C5 1_555 1_555
C6 C1 1_555 1_555
H6 C6 1_555 1_555
C7 O2 1_555 1_555
C8 C4 1_555 1_555
C9 O6 1_555 1_555
C10 C9 1_555 1_555
C11 C10 1_555 1_555
H7 C11 1_555 1_555
C12 C10 1_555 1_555
H8 C12 1_555 1_555
C13 O7 1_555 1_555
C14 C13 1_555 1_555
C15 C14 1_555 1_555
H9 C15 1_555 1_555
C16 C14 1_555 1_555
H10 C16 1_555 1_555
C17 H11 1_555 1_555
H12 C17 1_555 1_555
H13 C17 1_555 1_555
C18 N1 1_555 1_555
H14 C18 1_555 1_555
H15 C18 1_555 1_555
H16 C18 1_555 1_555
C19 N1 1_555 1_555
H17 C19 1_555 1_555
H18 C19 1_555 1_555
H19 C19 1_555 1_555
C20 N1 1_555 1_555
H20 C20 1_555 1_555
H21 C20 1_555 1_555
C21 O9 1_555 1_555
H22 C21 1_555 1_555
H23 C21 1_555 1_555
C22 N2 1_555 1_555
C23 N2 1_555 1_555
H24 C23 1_555 1_555
H25 C23 1_555 1_555
H26 C23 1_555 1_555
C24 N3 1_555 1_555
H27 C24 1_555 1_555
H28 C24 1_555 1_555
H29 C24 1_555 1_555
Nd1B O2 1_555 1_555
Nd1A O3 1_555 1_555
Nd1C O4 1_555 1_555
Nd1B_2 O6B 1_555 1_555
Nd1B_3 O7B 1_555 1_555
Nd1C_2 O3B 1_555 1_555
Nd1A_2 O4B 1_555 1_555
O1B Nd1B 1_555 1_555
O2B Nd1 1_555 1_555
O3B C8B 1_555 1_555
O3A Nd1 1_555 1_555
O3C Nd1B 1_555 1_555
O4B C8B 1_555 1_555
O4C Nd1 1_555 1_555
O4A Nd1B 1_555 1_555
O5B C9B 1_555 1_555
O6B C9B 1_555 1_555
O6B_2 Nd1B 1_555 1_555
O7B C13B 1_555 1_555
O7B_2 Nd1B 1_555 1_555
O8B Nd1B_3 1_555 1_555
O8B_2 Nd1B 1_555 1_555
O9B Nd1B 1_555 1_555
N1B C17B 1_555 1_555
C1B C2B 1_555 1_555
C2B H3B 1_555 1_555
C3B C2B 1_555 1_555
H4B C3B 1_555 1_555
C4B C3B 1_555 1_555
C5B C4B 1_555 1_555
H5B C5B 1_555 1_555
C6B C1B 1_555 1_555
H6B C6B 1_555 1_555
C7B O1B 1_555 1_555
C8B C4B 1_555 1_555
C9B C10B 1_555 1_555
C10B C11B 1_555 1_555
C11B C12 1_555 1_555
H7B C11B 1_555 1_555
C12B C11 1_555 1_555
H8B C12B 1_555 1_555
C13B O8B 1_555 1_555
C14B C13B 1_555 1_555
C15B C16 1_555 1_555
H9B C15B 1_555 1_555
C16B C15 1_555 1_555
H10B C16B 1_555 1_555
C17B H11B 1_555 1_555
H12B C17B 1_555 1_555
H13B C17B 1_555 1_555
C18B N1B 1_555 1_555
H14B C18B 1_555 1_555
H15B C18B 1_555 1_555
H16B C18B 1_555 1_555
C19B N1B 1_555 1_555
H17B C19B 1_555 1_555
H18B C19B 1_555 1_555
H19B C19B 1_555 1_555
C20B N1B 1_555 1_555
H20B C20B 1_555 1_555
H21B C20B 1_555 1_555
C21B O9B 1_555 1_555
H22B C21B 1_555 1_555
H23B C21B 1_555 1_555
O8 C13 1_555 1_555
N3 C22 1_555 1_555
C1 C7 1_555 1_555
C5 C6 1_555 1_555
C20 C21 1_555 1_555
Nd1B O2B 1_555 1_555
O2B C7B 1_555 1_555
C1B C7B 1_555 1_555
C5B C6B 1_555 1_555
C10B C12B 1_555 1_555
C14B C15B 1_555 1_555
C14B C16B 1_555 1_555
C20B C21B 1_555 1_555

#END
