
#######################################################################
#
#                 Cambridge Crystallographic Data Centre
#                                CCDC 
#
#######################################################################
#
# If this CIF has been generated from an entry in the Cambridge 
# Structural Database, then it will include bibliographic, chemical, 
# crystal, experimental, refinement or atomic coordinate data resulting 
# from the CCDC's data processing and validation procedures.
#
#######################################################################

data_SUNHIT
_symmetry_cell_setting           triclinic
_symmetry_space_group_name_H-M   'P -1'
_symmetry_Int_Tables_number      2
_space_group_name_Hall           '-P 1'
loop_
_symmetry_equiv_pos_site_id
_symmetry_equiv_pos_as_xyz
1 x,y,z
2 -x,-y,-z
_cell_length_a                   8.38980(10)
_cell_length_b                   10.6559(2)
_cell_length_c                   14.3877(2)
_cell_angle_alpha                101.9640(10)
_cell_angle_beta                 102.8640(10)
_cell_angle_gamma                102.6810(10)
_cell_volume                     1178.19
loop_
_atom_site_label
_atom_site_type_symbol
_atom_site_fract_x
_atom_site_fract_y
_atom_site_fract_z
Sm1 Sm 0.342501(11) 0.339378(9) 0.329083(7)
O1 O 0.33948(18) 0.55500(14) 0.40484(11)
O2 O 0.53618(19) 0.71927(15) 0.52487(11)
O3 O 0.2713(2) 0.99305(15) 0.10739(12)
O4 O 0.42426(17) 1.16695(14) 0.23588(11)
O5 O 0.08809(18) 0.35191(15) 0.20852(11)
O6 O 0.33346(17) 0.42642(15) 0.17883(11)
O7 O 0.12455(18) 0.13114(14) 0.30410(11)
O8 O 0.10955(18) 0.30249(14) 0.41526(11)
O9 O 0.62758(17) 0.45177(15) 0.35174(12)
N1 N 0.9134(2) 0.52346(18) 0.39443(15)
H2 H 0.9137 0.5900 0.4401
H3 H 1.0079 0.5130 0.3851
N2 N 0.7684(2) 0.33557(19) 0.26569(15)
H4 H 0.6748 0.2798 0.2275
H5 H 0.8642 0.3267 0.2575
C1 C 0.4112(2) 0.76999(19) 0.37746(15)
C2 C 0.2823(2) 0.73057(19) 0.28861(15)
H6 H 0.2064 0.6457 0.2690
C3 C 0.2662(3) 0.81707(19) 0.22894(15)
H7 H 0.1839 0.7880 0.1680
C4 C 0.3737(2) 0.94798(19) 0.26042(14)
C5 C 0.5008(2) 0.98815(19) 0.34971(15)
H8 H 0.5722 1.0749 0.3714
C6 C 0.5216(2) 0.89899(19) 0.40694(15)
H9 H 0.6098 0.9256 0.4653
C7 C 0.4316(2) 0.67448(19) 0.44056(15)
C8 C 0.3517(2) 1.04135(19) 0.19519(15)
C9 C 0.0839(2) 0.45597(18) 0.07663(14)
C10 C -0.0906(2) 0.4415(2) 0.05740(15)
H10 H -0.1511 0.4023 0.0958
C11 C 0.1742(2) 0.5149(2) 0.01870(15)
H11 H 0.2905 0.5248 0.0312
C12 C 0.1734(2) 0.40810(19) 0.15877(15)
C13 C 0.0360(2) 0.08549(19) 0.44180(15)
C14 C 0.0687(3) -0.0389(2) 0.42287(15)
H12 H 0.1144 -0.0648 0.3711
C15 C -0.0330(3) 0.1240(2) 0.51860(15)
H13 H -0.0552 0.2067 0.5309
C16 C 0.0886(2) 0.17848(19) 0.38260(15)
C17 C 0.7652(2) 0.4358(2) 0.33767(15)
Sm1A Sm 0.657499(11) 0.660622(9) 0.670917(7)
Sm1_2 Sm 0.342501(11) 1.339378(9) 0.329083(7)
Sm1A_2 Sm -0.342501(11) 0.660622(9) -0.329083(7)
Sm1A_3 Sm -0.342501(11) -0.339378(9) 0.670917(7)
Sm1A_4 Sm 0.657499(11) -0.339378(9) 0.670917(7)
O1A O 0.66052(18) 0.44500(14) 0.59516(11)
O2A O 0.46382(19) 0.28073(15) 0.47513(11)
O3A O 0.7287(2) 0.00695(15) 0.89261(12)
O4A O 0.57574(17) -0.16695(14) 0.76412(11)
O4_2 O 0.42426(17) 0.16695(14) 0.23588(11)
O4A_2 O 0.57574(17) 0.83305(14) 0.76412(11)
O5A O -0.08809(18) 0.64809(15) -0.20852(11)
O5A_2 O 0.91191(18) 0.64809(15) 0.79148(11)
O6A O -0.33346(17) 0.57358(15) -0.17883(11)
O6A_2 O 0.66654(17) 0.57358(15) 0.82117(11)
O7A O -0.12455(18) -0.13114(14) 0.69590(11)
O7A_2 O 0.87545(18) 0.86886(14) 0.69590(11)
O8A O -0.10955(18) -0.30249(14) 0.58474(11)
O8A_2 O 0.89045(18) 0.69751(14) 0.58474(11)
O9A O 0.37242(17) 0.54823(15) 0.64826(12)
N1A N 0.0866(2) 0.47654(18) 0.60557(15)
H2A H 0.0863 0.4100 0.5599
H3A H -0.0079 0.4870 0.6149
N2A N 0.2316(2) 0.66443(19) 0.73431(15)
H4A H 0.3252 0.7202 0.7725
H5A H 0.1358 0.6733 0.7425
C1A C 0.5888(2) 0.23001(19) 0.62254(15)
C2A C 0.7177(2) 0.26943(19) 0.71139(15)
H6A H 0.7936 0.3543 0.7310
C3A C 0.7338(3) 0.18293(19) 0.77106(15)
H7A H 0.8161 0.2120 0.8320
C4A C 0.6263(2) 0.05202(19) 0.73958(14)
C5A C 0.4992(2) 0.01185(19) 0.65029(15)
H8A H 0.4278 -0.0749 0.6286
C6A C 0.4784(2) 0.10101(19) 0.59306(15)
H9A H 0.3902 0.0744 0.5347
C7A C 0.5684(2) 0.32552(19) 0.55944(15)
C8A C 0.6483(2) -0.04135(19) 0.80481(15)
C9A C -0.0839(2) 0.54403(18) -0.07663(14)
C10A C 0.0906(2) 0.5585(2) -0.05740(15)
H10A H 0.1511 0.5977 -0.0958
C11A C -0.1742(2) 0.4851(2) -0.01870(15)
H11A H -0.2905 0.4752 -0.0312
C12A C -0.1734(2) 0.59190(19) -0.15877(15)
C13A C -0.0360(2) -0.08549(19) 0.55820(15)
C14A C -0.0687(3) 0.0389(2) 0.57713(15)
H12A H -0.1144 0.0648 0.6289
C15A C 0.0330(3) -0.1240(2) 0.48140(15)
H13A H 0.0552 -0.2067 0.4691
C16A C -0.0886(2) -0.17848(19) 0.61740(15)
C17A C 0.2348(2) 0.5642(2) 0.66233(15)
O10 O 0.3951(2) 1.42091(17) -0.13024(13)
H1 H 0.3752 1.4915 -0.1356
N3 N 0.2824(2) 1.13591(18) -0.09908(14)
C18 C 0.4382(3) 1.2156(3) -0.01623(19)
H14 H 0.4323 1.1882 0.0427
H15 H 0.4444 1.3088 -0.0045
H16 H 0.5377 1.2008 -0.0339
C19 C 0.1270(3) 1.1491(3) -0.0682(2)
H17 H 0.1303 1.1227 -0.0081
H18 H 0.0275 1.0927 -0.1193
H19 H 0.1235 1.2403 -0.0574
C20 C 0.2776(3) 0.9913(2) -0.1187(2)
H20 H 0.2750 0.9628 -0.0598
H21 H 0.3771 0.9792 -0.1376
H22 H 0.1776 0.9393 -0.1711
C21 C 0.2860(3) 1.1766(2) -0.19425(17)
H23 H 0.1974 1.1101 -0.2482
H24 H 0.3941 1.1732 -0.2068
C22 C 0.2628(3) 1.3131(2) -0.19764(18)
H25 H 0.2547 1.3221 -0.2641
H26 H 0.1561 1.3183 -0.1838
loop_
_geom_bond_atom_site_label_1
_geom_bond_atom_site_label_2
_geom_bond_site_symmetry_1
_geom_bond_site_symmetry_2
Sm1 O1 1_555 1_555
O1 C7 1_555 1_555
O2 C7 1_555 1_555
O3 C8 1_555 1_555
O4 C8 1_555 1_555
O5 Sm1 1_555 1_555
O6 Sm1 1_555 1_555
O7 Sm1 1_555 1_555
O8 Sm1 1_555 1_555
O9 Sm1 1_555 1_555
O10 H1 1_555 1_555
N1 H2 1_555 1_555
H3 N1 1_555 1_555
N2 H4 1_555 1_555
H5 N2 1_555 1_555
N3 C18 1_555 1_555
C1 C2 1_555 1_555
C2 H6 1_555 1_555
C3 C2 1_555 1_555
H7 C3 1_555 1_555
C4 C3 1_555 1_555
C5 C4 1_555 1_555
H8 C5 1_555 1_555
C6 C1 1_555 1_555
H9 C6 1_555 1_555
C7 C1 1_555 1_555
C8 C4 1_555 1_555
C9 C10 1_555 1_555
C10 H10 1_555 1_555
C11 C9 1_555 1_555
H11 C11 1_555 1_555
C12 O5 1_555 1_555
C13 C14 1_555 1_555
C14 H12 1_555 1_555
C15 C13 1_555 1_555
H13 C15 1_555 1_555
C16 O7 1_555 1_555
C17 O9 1_555 1_555
C18 H14 1_555 1_555
H15 C18 1_555 1_555
H16 C18 1_555 1_555
C19 N3 1_555 1_555
H17 C19 1_555 1_555
H18 C19 1_555 1_555
H19 C19 1_555 1_555
C20 N3 1_555 1_555
H20 C20 1_555 1_555
H21 C20 1_555 1_555
H22 C20 1_555 1_555
C21 N3 1_555 1_555
H23 C21 1_555 1_555
H24 C21 1_555 1_555
C22 O10 1_555 1_555
H25 C22 1_555 1_555
H26 C22 1_555 1_555
Sm1A O2 1_555 1_555
Sm1_2 O4 1_555 1_555
Sm1A_2 O5A 1_555 1_555
Sm1A_3 O7A 1_555 1_555
Sm1A_4 O4A 1_555 1_555
O1A Sm1A 1_555 1_555
O2A Sm1 1_555 1_555
O3A C8A 1_555 1_555
O4A C8A 1_555 1_555
O4_2 Sm1 1_555 1_555
O4A_2 Sm1A 1_555 1_555
O5A C12A 1_555 1_555
O5A_2 Sm1A 1_555 1_555
O6A Sm1A_2 1_555 1_555
O6A_2 Sm1A 1_555 1_555
O7A C16A 1_555 1_555
O7A_2 Sm1A 1_555 1_555
O8A Sm1A_3 1_555 1_555
O8A_2 Sm1A 1_555 1_555
O9A Sm1A 1_555 1_555
N1A H2A 1_555 1_555
H3A N1A 1_555 1_555
N2A H4A 1_555 1_555
H5A N2A 1_555 1_555
C1A C2A 1_555 1_555
C2A H6A 1_555 1_555
C3A C2A 1_555 1_555
H7A C3A 1_555 1_555
C4A C3A 1_555 1_555
C5A C4A 1_555 1_555
H8A C5A 1_555 1_555
C6A C1A 1_555 1_555
H9A C6A 1_555 1_555
C7A O1A 1_555 1_555
C8A C4A 1_555 1_555
C9A C10A 1_555 1_555
C10A C11 1_555 1_555
H10A C10A 1_555 1_555
C11A C10 1_555 1_555
H11A C11A 1_555 1_555
C12A O6A 1_555 1_555
C13A C14A 1_555 1_555
C14A C15 1_555 1_555
H12A C14A 1_555 1_555
C15A C14 1_555 1_555
H13A C15A 1_555 1_555
C16A O8A 1_555 1_555
C17A O9A 1_555 1_555
O6 C12 1_555 1_555
O8 C16 1_555 1_555
N1 C17 1_555 1_555
N2 C17 1_555 1_555
C5 C6 1_555 1_555
C9 C12 1_555 1_555
C13 C16 1_555 1_555
C21 C22 1_555 1_555
O2A C7A 1_555 1_555
N1A C17A 1_555 1_555
N2A C17A 1_555 1_555
C1A C7A 1_555 1_555
C5A C6A 1_555 1_555
C9A C11A 1_555 1_555
C9A C12A 1_555 1_555
C13A C15A 1_555 1_555
C13A C16A 1_555 1_555

#END
