
#######################################################################
#
#                 Cambridge Crystallographic Data Centre
#                                CCDC 
#
#######################################################################
#
# If this CIF has been generated from an entry in the Cambridge 
# Structural Database, then it will include bibliographic, chemical, 
# crystal, experimental, refinement or atomic coordinate data resulting 
# from the CCDC's data processing and validation procedures.
#
#######################################################################

data_SUNHAL
_symmetry_cell_setting           monoclinic
_symmetry_space_group_name_H-M   'P 21/c'
_symmetry_Int_Tables_number      14
_space_group_name_Hall           '-P 2ybc'
loop_
_symmetry_equiv_pos_site_id
_symmetry_equiv_pos_as_xyz
1 x,y,z
2 -x,1/2+y,1/2-z
3 -x,-y,-z
4 x,1/2-y,1/2+z
_cell_length_a                   10.6925(2)
_cell_length_b                   17.6168(4)
_cell_length_c                   12.1630(3)
_cell_angle_alpha                90
_cell_angle_beta                 114.025(2)
_cell_angle_gamma                90
_cell_volume                     2092.63
loop_
_atom_site_label
_atom_site_type_symbol
_atom_site_fract_x
_atom_site_fract_y
_atom_site_fract_z
In1 In 0.24719(4) 0.27286(2) -0.01762(4)
Cl1 Cl 0.0413(2) 0.34605(17) -0.13953(18)
O1 O 0.3143(6) 0.2728(3) -0.1675(5)
O2 O 0.3931(5) 0.3816(3) 0.0440(4)
O3 O 0.2714(5) 0.3431(2) 0.1413(4)
O4 O 0.4800(6) 0.6656(3) 0.5140(5)
O5 O 0.5866(5) 0.7053(3) 0.4002(4)
O6 O 0.1296(5) 0.1962(3) 0.0603(4)
O7 O 0.1570(5) 0.1563(3) -0.0996(4)
C1 C 0.4020(7) 0.4564(3) 0.2111(5)
C2 C 0.5047(8) 0.5031(4) 0.2089(6)
H1 H 0.5484 0.4918 0.1586
C3 C 0.5422(7) 0.5668(4) 0.2819(6)
H2 H 0.6124 0.5976 0.2808
C4 C 0.4782(7) 0.5857(4) 0.3557(6)
C5 C 0.3769(7) 0.5372(4) 0.3611(6)
H3 H 0.3348 0.5482 0.4127
C6 C 0.3395(7) 0.4728(4) 0.2892(6)
H4 H 0.2726 0.4405 0.2930
C7 C 0.3531(7) 0.3904(4) 0.1277(6)
C8 C 0.5164(7) 0.6571(4) 0.4314(6)
C9 C 0.0571(7) 0.0702(4) -0.0076(6)
C10 C 0.0470(8) 0.0126(4) -0.0891(6)
H5 H 0.0794 0.0209 -0.1485
C11 C 0.0103(7) 0.0566(4) 0.0830(6)
H6 H 0.0179 0.0942 0.1390
C12 C 0.1170(7) 0.1445(4) -0.0163(6)
In1A In 0.75281(4) 0.77286(2) 0.51762(4)
In1B In -0.24719(4) -0.27286(2) 0.01762(4)
In1C In -0.75281(4) -0.77286(2) -0.51762(4)
Cl1B Cl -0.0413(2) -0.34605(17) 0.13953(18)
O1B O -0.3143(6) -0.2728(3) 0.1675(5)
O2B O -0.3931(5) -0.3816(3) -0.0440(4)
O3B O -0.2714(5) -0.3431(2) -0.1413(4)
O4B O -0.4800(6) -0.6656(3) -0.5140(5)
O5A O 0.4134(5) 0.2053(3) 0.0998(4)
O5C O -0.4134(5) -0.2053(3) -0.0998(4)
O5B O -0.5866(5) -0.7053(3) -0.4002(4)
O6B O -0.1296(5) -0.1962(3) -0.0603(4)
O7B O -0.1570(5) -0.1563(3) 0.0996(4)
C1B C -0.4020(7) -0.4564(3) -0.2111(5)
C2B C -0.5047(8) -0.5031(4) -0.2089(6)
H1B H -0.5484 -0.4918 -0.1586
C3B C -0.5422(7) -0.5668(4) -0.2819(6)
H2B H -0.6124 -0.5976 -0.2808
C4B C -0.4782(7) -0.5857(4) -0.3557(6)
C5B C -0.3769(7) -0.5372(4) -0.3611(6)
H3B H -0.3348 -0.5482 -0.4127
C6B C -0.3395(7) -0.4728(4) -0.2892(6)
H4B H -0.2726 -0.4405 -0.2930
C7B C -0.3531(7) -0.3904(4) -0.1277(6)
C8B C -0.5164(7) -0.6571(4) -0.4314(6)
C9B C -0.0571(7) -0.0702(4) 0.0076(6)
C10B C -0.0470(8) -0.0126(4) 0.0891(6)
H5B H -0.0794 -0.0209 0.1485
C11B C -0.0103(7) -0.0566(4) -0.0830(6)
H6B H -0.0179 -0.0942 -0.1390
C12B C -0.1170(7) -0.1445(4) 0.0163(6)
N1 N 0.8078(10) 0.1675(5) 0.5763(8)
C13 C 0.853(3) 0.2651(12) 0.615(2)
C14 C 0.736(3) 0.1550(14) 0.657(2)
C15 C 0.729(2) 0.1834(13) 0.4463(17)
C16 C 0.9414(12) 0.1354(7) 0.6130(11)
H7 H 0.9911 0.1352 0.6998
H8 H 0.9951 0.1609 0.5762
C17 C 0.895(3) 0.0490(19) 0.558(3)
H9 H 0.8653 0.0487 0.4714
H10 H 0.9700 0.0136 0.5935
O9 O 0.782(3) 0.0288(17) 0.590(3)
O8 O 0.722(3) 0.3037(18) 0.416(3)
loop_
_geom_bond_atom_site_label_1
_geom_bond_atom_site_label_2
_geom_bond_site_symmetry_1
_geom_bond_site_symmetry_2
In1 Cl1 1_555 1_555
O1 In1 1_555 1_555
O2 In1 1_555 1_555
O3 In1 1_555 1_555
O4 C8 1_555 1_555
O5 C8 1_555 1_555
O6 In1 1_555 1_555
O7 In1 1_555 1_555
N1 C13 1_555 1_555
C1 C2 1_555 1_555
C2 H1 1_555 1_555
C3 C2 1_555 1_555
H2 C3 1_555 1_555
C4 C3 1_555 1_555
C5 C4 1_555 1_555
H3 C5 1_555 1_555
C6 C1 1_555 1_555
H4 C6 1_555 1_555
C7 O2 1_555 1_555
C8 C4 1_555 1_555
C9 C10 1_555 1_555
C10 H5 1_555 1_555
C11 C9 1_555 1_555
H6 C11 1_555 1_555
C12 O6 1_555 1_555
C14 N1 1_555 1_555
C15 N1 1_555 1_555
C16 N1 1_555 1_555
H7 C16 1_555 1_555
H8 C16 1_555 1_555
C17 C16 1_555 1_555
H9 C17 1_555 1_555
H10 C17 1_555 1_555
O9 C17 1_555 1_555
In1A O5 1_555 1_555
In1B Cl1B 1_555 1_555
In1C O5B 1_555 1_555
O1B In1B 1_555 1_555
O2B In1B 1_555 1_555
O3B In1B 1_555 1_555
O4B C8B 1_555 1_555
O5A In1 1_555 1_555
O5C In1B 1_555 1_555
O5B C8B 1_555 1_555
O6B In1B 1_555 1_555
O7B In1B 1_555 1_555
C1B C2B 1_555 1_555
C2B H1B 1_555 1_555
C3B C2B 1_555 1_555
H2B C3B 1_555 1_555
C4B C3B 1_555 1_555
C5B C4B 1_555 1_555
H3B C5B 1_555 1_555
C6B C1B 1_555 1_555
H4B C6B 1_555 1_555
C7B O2B 1_555 1_555
C8B C4B 1_555 1_555
C9B C10B 1_555 1_555
C10B C11 1_555 1_555
H5B C10B 1_555 1_555
C11B C10 1_555 1_555
H6B C11B 1_555 1_555
C12B O6B 1_555 1_555
O3 C7 1_555 1_555
O7 C12 1_555 1_555
C1 C7 1_555 1_555
C5 C6 1_555 1_555
C9 C12 1_555 1_555
O3B C7B 1_555 1_555
O7B C12B 1_555 1_555
C1B C7B 1_555 1_555
C5B C6B 1_555 1_555
C9B C11B 1_555 1_555
C9B C12B 1_555 1_555

#END
