
#######################################################################
#
#                 Cambridge Crystallographic Data Centre
#                                CCDC 
#
#######################################################################
#
# If this CIF has been generated from an entry in the Cambridge 
# Structural Database, then it will include bibliographic, chemical, 
# crystal, experimental, refinement or atomic coordinate data resulting 
# from the CCDC's data processing and validation procedures.
#
#######################################################################

data_SUNJIV
_symmetry_cell_setting           triclinic
_symmetry_space_group_name_H-M   'P -1'
_symmetry_Int_Tables_number      2
_space_group_name_Hall           '-P 1'
loop_
_symmetry_equiv_pos_site_id
_symmetry_equiv_pos_as_xyz
1 x,y,z
2 -x,-y,-z
_cell_length_a                   9.82830(10)
_cell_length_b                   10.43620(10)
_cell_length_c                   11.07600(10)
_cell_angle_alpha                76.8940(10)
_cell_angle_beta                 76.2960(10)
_cell_angle_gamma                65.9990(10)
_cell_volume                     997.355
loop_
_atom_site_label
_atom_site_type_symbol
_atom_site_fract_x
_atom_site_fract_y
_atom_site_fract_z
Dy1 Dy 0.055074(11) 0.771918(11) 0.177092(8)
O1 O -0.17234(19) 0.75242(19) 0.31833(16)
O2 O -0.1167(2) 0.9353(2) 0.32183(17)
O3 O 0.3149(2) 0.6500(2) 0.22040(16)
O4 O 0.1420(2) 0.6232(2) 0.37681(16)
O5 O 0.14268(19) 0.95262(19) 0.12770(15)
O6 O 0.1160(2) 1.1023(2) -0.05058(17)
O7 O 0.0428(2) 0.56752(19) 0.13453(16)
O8 O 0.2006(2) 0.7353(2) -0.02421(16)
N1 N -0.0077(3) 0.3664(3) 0.1535(2)
H1 H -0.0130 0.3714 0.0760
N2 N 0.0501(3) 0.4052(3) 0.3146(2)
H2 H 0.0660 0.4499 0.3630
N3 N 0.3640(3) 0.7786(3) -0.1999(2)
H3 H 0.2993 0.8202 -0.2504
N4 N 0.4551(3) 0.6645(3) -0.0291(2)
H4 H 0.4579 0.6220 0.0470
C1 C -0.3569(3) 0.9349(3) 0.4326(2)
C2 C -0.3846(3) 1.0465(3) 0.4961(2)
H5 H -0.3078 1.0778 0.4937
C3 C -0.4731(3) 0.8894(3) 0.4373(2)
H6 H -0.4552 0.8151 0.3951
C4 C -0.2054(3) 0.8684(3) 0.3544(2)
C5 C 0.3920(3) 0.5514(3) 0.4207(2)
C6 C 0.5385(3) 0.5513(3) 0.3749(2)
H7 H 0.5643 0.5851 0.2910
C7 C 0.3561(3) 0.4990(3) 0.5456(2)
H8 H 0.2600 0.4977 0.5762
C8 C 0.2764(3) 0.6107(3) 0.3349(2)
C9 C 0.3507(3) 1.0139(3) 0.0170(2)
C10 C 0.4400(3) 0.9292(3) 0.1073(2)
H9 H 0.3997 0.8818 0.1790
C11 C 0.4105(3) 1.0841(3) -0.0898(2)
H10 H 0.3506 1.1404 -0.1501
C12 C 0.1904(3) 1.0232(3) 0.0331(2)
C13 C 0.0276(3) 0.4565(3) 0.1966(2)
C14 C 0.0445(4) 0.2642(3) 0.3520(3)
H11 H -0.0122 0.2543 0.4358
H12 H 0.1450 0.1911 0.3488
C15 C -0.0361(4) 0.2591(3) 0.2533(3)
H13 H 0.0067 0.1665 0.2262
H14 H -0.1433 0.2831 0.2836
C16 C 0.3296(3) 0.7265(3) -0.0790(2)
C17 C 0.5222(3) 0.7564(3) -0.2350(3)
H15 H 0.5364 0.8460 -0.2597
H16 H 0.5689 0.7011 -0.3037
C18 C 0.5873(3) 0.6755(3) -0.1156(3)
H17 H 0.6629 0.5826 -0.1290
H18 H 0.6316 0.7276 -0.0855
Dy1A Dy -1.055074(11) 1.228082(11) 0.822908(8)
Dy1A_2 Dy -0.055074(11) 1.228082(11) -0.177092(8)
Dy1A_3 Dy 0.944926(11) 0.228082(11) 0.822908(8)
Dy1A_4 Dy 0.944926(11) 1.228082(11) -0.177092(8)
Dy1_2 Dy 1.055074(11) 0.771918(11) 0.177092(8)
O1A O -0.82766(19) 1.24758(19) 0.68167(16)
O2A O -0.8833(2) 1.0647(2) 0.67817(17)
O3A O 0.6851(2) 0.3500(2) 0.77960(16)
O3A_2 O -1.3149(2) 1.3500(2) 0.77960(16)
O4A O 0.8580(2) 0.3768(2) 0.62319(16)
O4A_2 O -1.1420(2) 1.3768(2) 0.62319(16)
O5A O 0.85732(19) 1.04738(19) -0.12770(15)
O5A_2 O -1.14268(19) 1.04738(19) 0.87230(15)
O6A O 0.8840(2) 0.8977(2) 0.05058(17)
O6A_2 O -0.1160(2) 0.8977(2) 0.05058(17)
O6_2 O -0.8840(2) 1.1023(2) 0.94942(17)
O7A O -1.0428(2) 1.43248(19) 0.86547(16)
O8A O -1.2006(2) 1.2647(2) 1.02421(16)
N1A N -0.9923(3) 1.6336(3) 0.8465(2)
H1A H -0.9870 1.6286 0.9240
N2A N -1.0501(3) 1.5948(3) 0.6854(2)
H2A H -1.0660 1.5501 0.6370
N3A N -1.3640(3) 1.2214(3) 1.1999(2)
H3A H -1.2993 1.1798 1.2504
N4A N -1.4551(3) 1.3355(3) 1.0291(2)
H4A H -1.4579 1.3780 0.9530
C1A C -0.6431(3) 1.0651(3) 0.5674(2)
C2A C -0.6154(3) 0.9535(3) 0.5039(2)
H5A H -0.6922 0.9222 0.5063
C3A C -0.5269(3) 1.1106(3) 0.5627(2)
H6A H -0.5448 1.1849 0.6049
C4A C -0.7946(3) 1.1316(3) 0.6456(2)
C5A C 0.6080(3) 0.4486(3) 0.5793(2)
C6A C 0.4615(3) 0.4487(3) 0.6251(2)
H7A H 0.4357 0.4149 0.7090
C7A C 0.6439(3) 0.5010(3) 0.4544(2)
H8A H 0.7400 0.5023 0.4238
C8A C 0.7236(3) 0.3893(3) 0.6651(2)
C9A C 0.6493(3) 0.9861(3) -0.0170(2)
C10A C 0.5600(3) 1.0708(3) -0.1073(2)
H9A H 0.6003 1.1182 -0.1790
C11A C 0.5895(3) 0.9159(3) 0.0898(2)
H10A H 0.6494 0.8596 0.1501
C12A C 0.8096(3) 0.9768(3) -0.0331(2)
C13A C -1.0276(3) 1.5435(3) 0.8034(2)
C14A C -1.0445(4) 1.7358(3) 0.6480(3)
H11A H -0.9878 1.7457 0.5642
H12A H -1.1450 1.8089 0.6512
C15A C -0.9639(4) 1.7409(3) 0.7467(3)
H13A H -1.0067 1.8335 0.7738
H14A H -0.8567 1.7169 0.7164
C16A C -1.3296(3) 1.2735(3) 1.0790(2)
C17A C -1.5222(3) 1.2436(3) 1.2350(3)
H15A H -1.5364 1.1540 1.2597
H16A H -1.5689 1.2989 1.3037
C18A C -1.5873(3) 1.3245(3) 1.1156(3)
H17A H -1.6629 1.4174 1.1290
H18A H -1.6316 1.2724 1.0855
loop_
_geom_bond_atom_site_label_1
_geom_bond_atom_site_label_2
_geom_bond_site_symmetry_1
_geom_bond_site_symmetry_2
Dy1 O1 1_555 1_555
O1 C4 1_555 1_555
O2 Dy1 1_555 1_555
O3 Dy1 1_555 1_555
O4 Dy1 1_555 1_555
O5 Dy1 1_555 1_555
O6 C12 1_555 1_555
O7 Dy1 1_555 1_555
O8 Dy1 1_555 1_555
N1 H1 1_555 1_555
N2 H2 1_555 1_555
N3 H3 1_555 1_555
N4 H4 1_555 1_555
C1 C2 1_555 1_555
C2 H5 1_555 1_555
C3 C1 1_555 1_555
H6 C3 1_555 1_555
C4 O2 1_555 1_555
C5 C6 1_555 1_555
C6 H7 1_555 1_555
C7 C5 1_555 1_555
H8 C7 1_555 1_555
C8 O3 1_555 1_555
C9 C10 1_555 1_555
C10 H9 1_555 1_555
C11 C9 1_555 1_555
H10 C11 1_555 1_555
C12 O5 1_555 1_555
C13 O7 1_555 1_555
C14 N2 1_555 1_555
H11 C14 1_555 1_555
H12 C14 1_555 1_555
C15 N1 1_555 1_555
H13 C15 1_555 1_555
H14 C15 1_555 1_555
C16 O8 1_555 1_555
C17 N3 1_555 1_555
H15 C17 1_555 1_555
H16 C17 1_555 1_555
C18 N4 1_555 1_555
H17 C18 1_555 1_555
H18 C18 1_555 1_555
Dy1A O1A 1_555 1_555
Dy1A_2 O6 1_555 1_555
Dy1A_3 O3A 1_555 1_555
Dy1A_4 O5A 1_555 1_555
Dy1_2 O6A 1_555 1_555
O1A C4A 1_555 1_555
O2A Dy1A 1_555 1_555
O3A C8A 1_555 1_555
O3A_2 Dy1A 1_555 1_555
O4A Dy1A_3 1_555 1_555
O4A_2 Dy1A 1_555 1_555
O5A C12A 1_555 1_555
O5A_2 Dy1A 1_555 1_555
O6A C12A 1_555 1_555
O6A_2 Dy1 1_555 1_555
O6_2 Dy1A 1_555 1_555
O7A Dy1A 1_555 1_555
O8A Dy1A 1_555 1_555
N1A H1A 1_555 1_555
N2A H2A 1_555 1_555
N3A H3A 1_555 1_555
N4A H4A 1_555 1_555
C1A C2A 1_555 1_555
C2A C3 1_555 1_555
H5A C2A 1_555 1_555
C3A C2 1_555 1_555
H6A C3A 1_555 1_555
C4A O2A 1_555 1_555
C5A C6A 1_555 1_555
C6A C7 1_555 1_555
H7A C6A 1_555 1_555
C7A C6 1_555 1_555
H8A C7A 1_555 1_555
C8A O4A 1_555 1_555
C9A C10A 1_555 1_555
C10A C11 1_555 1_555
H9A C10A 1_555 1_555
C11A C10 1_555 1_555
H10A C11A 1_555 1_555
C12A C9A 1_555 1_555
C13A O7A 1_555 1_555
C14A N2A 1_555 1_555
H11A C14A 1_555 1_555
H12A C14A 1_555 1_555
C15A N1A 1_555 1_555
H13A C15A 1_555 1_555
H14A C15A 1_555 1_555
C16A O8A 1_555 1_555
C17A N3A 1_555 1_555
H15A C17A 1_555 1_555
H16A C17A 1_555 1_555
C18A N4A 1_555 1_555
H17A C18A 1_555 1_555
H18A C18A 1_555 1_555
O4 C8 1_555 1_555
N1 C13 1_555 1_555
N2 C13 1_555 1_555
N3 C16 1_555 1_555
N4 C16 1_555 1_555
C1 C4 1_555 1_555
C5 C8 1_555 1_555
C9 C12 1_555 1_555
C14 C15 1_555 1_555
C17 C18 1_555 1_555
N1A C13A 1_555 1_555
N2A C13A 1_555 1_555
N3A C16A 1_555 1_555
N4A C16A 1_555 1_555
C1A C3A 1_555 1_555
C1A C4A 1_555 1_555
C5A C7A 1_555 1_555
C5A C8A 1_555 1_555
C9A C11A 1_555 1_555
C14A C15A 1_555 1_555
C17A C18A 1_555 1_555

#END
