
#######################################################################
#
#                 Cambridge Crystallographic Data Centre
#                                CCDC 
#
#######################################################################
#
# If this CIF has been generated from an entry in the Cambridge 
# Structural Database, then it will include bibliographic, chemical, 
# crystal, experimental, refinement or atomic coordinate data resulting 
# from the CCDC's data processing and validation procedures.
#
#######################################################################

data_SUNJAN
_symmetry_cell_setting           monoclinic
_symmetry_space_group_name_H-M   'P 21/n'
_symmetry_Int_Tables_number      14
_space_group_name_Hall           '-P 2yn'
loop_
_symmetry_equiv_pos_site_id
_symmetry_equiv_pos_as_xyz
1 x,y,z
2 1/2-x,1/2+y,1/2-z
3 -x,-y,-z
4 1/2+x,1/2-y,1/2+z
_cell_length_a                   8.8307(3)
_cell_length_b                   13.7279(4)
_cell_length_c                   18.6260(5)
_cell_angle_alpha                90
_cell_angle_beta                 94.452(2)
_cell_angle_gamma                90
_cell_volume                     2251.16
loop_
_atom_site_label
_atom_site_type_symbol
_atom_site_fract_x
_atom_site_fract_y
_atom_site_fract_z
Gd1 Gd 0.06373(2) 0.380647(15) 0.122738(12)
O1 O -0.1424(4) 0.3604(2) 0.21252(18)
O2 O 0.0704(4) 0.2820(3) 0.23206(19)
O3 O -0.3568(4) -0.0378(2) 0.43513(16)
O4 O -0.3444(4) 0.0833(2) 0.51471(17)
O5 O -0.0841(4) 0.2411(2) 0.0748(2)
O6 O 0.1626(4) 0.2188(2) 0.08998(19)
O7 O 0.3191(4) 0.3871(3) 0.16354(19)
O8 O 0.0776(4) 0.5289(2) 0.18076(19)
N1 N 0.5492(5) 0.3331(4) 0.1347(3)
H1 H 0.6390 0.3161 0.1512
N2 N 0.5121(6) 0.3757(4) 0.2495(3)
H2 H 0.6072 0.3640 0.2591
N3 N 0.2417(6) 0.6539(4) 0.1790(3)
H3 H 0.2890 0.6993 0.2033
N4 N 0.1413(6) 0.6100(3) 0.2833(3)
H4 H 0.1987 0.6535 0.3045
C1 C -0.1331(5) 0.2350(3) 0.3002(2)
C2 C -0.1388(6) 0.1353(4) 0.2900(3)
H5 H -0.0986 0.1080 0.2499
C3 C -0.2039(6) 0.0759(4) 0.3390(3)
H6 H -0.2106 0.0092 0.3307
C4 C -0.2593(5) 0.1149(3) 0.4004(2)
C5 C -0.2525(6) 0.2139(3) 0.4102(3)
H7 H -0.2888 0.2408 0.4514
C6 C -0.1927(6) 0.2744(3) 0.3601(3)
H8 H -0.1926 0.3416 0.3668
C7 C -0.0648(5) 0.2971(3) 0.2454(3)
C8 C -0.3266(5) 0.0483(4) 0.4535(3)
C9 C 0.0135(6) 0.0909(3) 0.0325(3)
C10 C -0.1267(7) 0.0506(4) 0.0167(3)
H9 H -0.2131 0.0846 0.0276
C11 C 0.1415(6) 0.0400(4) 0.0154(3)
H10 H 0.2374 0.0669 0.0256
C12 C 0.0313(6) 0.1890(3) 0.0679(3)
C13 C 0.4545(6) 0.3650(4) 0.1815(3)
C14 C 0.5125(7) 0.3252(6) 0.0595(4)
H11 H 0.5989 0.3010 0.0368
H12 H 0.4850 0.3882 0.0401
H13 H 0.4287 0.2812 0.0505
C15 C 0.4252(8) 0.4056(5) 0.3074(4)
H14 H 0.4895 0.4076 0.3513
H15 H 0.3441 0.3601 0.3123
H16 H 0.3835 0.4692 0.2973
C16 C 0.1512(6) 0.5944(4) 0.2126(3)
C17 C 0.0383(9) 0.5566(6) 0.3247(4)
H17 H 0.0478 0.5791 0.3737
H18 H 0.0622 0.4884 0.3235
H19 H -0.0640 0.5667 0.3047
C18 C 0.2632(9) 0.6451(5) 0.1033(3)
H20 H 0.3316 0.6949 0.0896
H21 H 0.1673 0.6523 0.0759
H22 H 0.3052 0.5823 0.0940
Gd1A Gd -0.56373(2) 0.880647(15) 0.377262(12)
Gd1A_2 Gd -0.56373(2) -0.119353(15) 0.377262(12)
Gd1C Gd -0.43627(2) 0.119353(15) 0.622738(12)
Gd1B Gd -0.06373(2) -0.380647(15) -0.122738(12)
Gd1B_2 Gd -0.06373(2) 0.619353(15) -0.122738(12)
O1A O -0.3576(4) 0.8604(2) 0.28748(18)
O2A O -0.5704(4) 0.7820(3) 0.26794(19)
O3A O -0.1432(4) 0.4622(2) 0.06487(16)
O3_2 O -0.3568(4) 0.9622(2) 0.43513(16)
O4A O -0.1556(4) 0.5833(2) -0.01471(17)
O4C O 0.1556(4) 0.4167(2) 0.01471(17)
O4B O -0.6556(4) 0.9167(2) 0.48529(17)
O5B O 0.0841(4) -0.2411(2) -0.0748(2)
O5A O -0.4159(4) 0.7411(2) 0.4252(2)
O6B O -0.1626(4) -0.2188(2) -0.08998(19)
O6A O -0.6626(4) 0.7188(2) 0.41002(19)
O7A O -0.8191(4) 0.8871(3) 0.33646(19)
O8A O -0.5776(4) 1.0289(2) 0.31924(19)
N1A N -1.0492(5) 0.8331(4) 0.3653(3)
H1A H -1.1390 0.8161 0.3488
N2A N -1.0121(6) 0.8757(4) 0.2505(3)
H2A H -1.1072 0.8640 0.2409
N3A N -0.7417(6) 1.1539(4) 0.3210(3)
H3A H -0.7890 1.1993 0.2967
N4A N -0.6413(6) 1.1100(3) 0.2167(3)
H4A H -0.6987 1.1535 0.1955
C1A C -0.3669(5) 0.7350(3) 0.1998(2)
C2A C -0.3612(6) 0.6353(4) 0.2100(3)
H5A H -0.4014 0.6080 0.2501
C3A C -0.2961(6) 0.5759(4) 0.1610(3)
H6A H -0.2894 0.5092 0.1693
C4A C -0.2407(5) 0.6149(3) 0.0996(2)
C5A C -0.2475(6) 0.7139(3) 0.0898(3)
H7A H -0.2112 0.7408 0.0486
C6A C -0.3073(6) 0.7744(3) 0.1399(3)
H8A H -0.3074 0.8416 0.1332
C7A C -0.4352(5) 0.7971(3) 0.2546(3)
C8A C -0.1734(5) 0.5483(4) 0.0465(3)
C9B C -0.0135(6) -0.0909(3) -0.0325(3)
C10B C 0.1267(7) -0.0506(4) -0.0167(3)
H9B H 0.2131 -0.0846 -0.0276
C11B C -0.1415(6) -0.0400(4) -0.0154(3)
H10B H -0.2374 -0.0669 -0.0256
C12B C -0.0313(6) -0.1890(3) -0.0679(3)
C13A C -0.9545(6) 0.8650(4) 0.3185(3)
C14A C -1.0125(7) 0.8252(6) 0.4405(4)
H11A H -1.0989 0.8010 0.4632
H12A H -0.9850 0.8882 0.4599
H13A H -0.9287 0.7812 0.4495
C15A C -0.9252(8) 0.9056(5) 0.1926(4)
H14A H -0.9895 0.9076 0.1487
H15A H -0.8441 0.8601 0.1877
H16A H -0.8835 0.9692 0.2027
C16A C -0.6512(6) 1.0944(4) 0.2874(3)
C17A C -0.5383(9) 1.0566(6) 0.1753(4)
H17A H -0.5478 1.0791 0.1263
H18A H -0.5622 0.9884 0.1765
H19A H -0.4360 1.0667 0.1953
C18A C -0.7632(9) 1.1451(5) 0.3967(3)
H20A H -0.8316 1.1949 0.4104
H21A H -0.6673 1.1523 0.4241
H22A H -0.8052 1.0823 0.4060
loop_
_geom_bond_atom_site_label_1
_geom_bond_atom_site_label_2
_geom_bond_site_symmetry_1
_geom_bond_site_symmetry_2
Gd1 O1 1_555 1_555
O1 C7 1_555 1_555
O2 Gd1 1_555 1_555
O3 C8 1_555 1_555
O4 C8 1_555 1_555
O5 Gd1 1_555 1_555
O6 Gd1 1_555 1_555
O7 Gd1 1_555 1_555
O8 Gd1 1_555 1_555
N1 H1 1_555 1_555
N2 H2 1_555 1_555
N3 H3 1_555 1_555
N4 H4 1_555 1_555
C1 C2 1_555 1_555
C2 H5 1_555 1_555
C3 C2 1_555 1_555
H6 C3 1_555 1_555
C4 C3 1_555 1_555
C5 C4 1_555 1_555
H7 C5 1_555 1_555
C6 C1 1_555 1_555
H8 C6 1_555 1_555
C7 O2 1_555 1_555
C8 C4 1_555 1_555
C9 C10 1_555 1_555
C10 H9 1_555 1_555
C11 C9 1_555 1_555
H10 C11 1_555 1_555
C12 O5 1_555 1_555
C13 O7 1_555 1_555
C14 N1 1_555 1_555
H11 C14 1_555 1_555
H12 C14 1_555 1_555
H13 C14 1_555 1_555
C15 N2 1_555 1_555
H14 C15 1_555 1_555
H15 C15 1_555 1_555
H16 C15 1_555 1_555
C16 O8 1_555 1_555
C17 N4 1_555 1_555
H17 C17 1_555 1_555
H18 C17 1_555 1_555
H19 C17 1_555 1_555
C18 N3 1_555 1_555
H20 C18 1_555 1_555
H21 C18 1_555 1_555
H22 C18 1_555 1_555
Gd1A O1A 1_555 1_555
Gd1A_2 O3 1_555 1_555
Gd1C O4 1_555 1_555
Gd1B O5B 1_555 1_555
Gd1B_2 O4A 1_555 1_555
O1A C7A 1_555 1_555
O2A Gd1A 1_555 1_555
O3A Gd1 1_555 1_555
O3_2 Gd1A 1_555 1_555
O4A C8A 1_555 1_555
O4C Gd1 1_555 1_555
O4B Gd1A 1_555 1_555
O5B C12B 1_555 1_555
O5A Gd1A 1_555 1_555
O6B Gd1B 1_555 1_555
O6A Gd1A 1_555 1_555
O7A Gd1A 1_555 1_555
O8A Gd1A 1_555 1_555
N1A H1A 1_555 1_555
N2A H2A 1_555 1_555
N3A H3A 1_555 1_555
N4A H4A 1_555 1_555
C1A C2A 1_555 1_555
C2A H5A 1_555 1_555
C3A C2A 1_555 1_555
H6A C3A 1_555 1_555
C4A C3A 1_555 1_555
C5A C4A 1_555 1_555
H7A C5A 1_555 1_555
C6A C1A 1_555 1_555
H8A C6A 1_555 1_555
C7A O2A 1_555 1_555
C8A O3A 1_555 1_555
C9B C10B 1_555 1_555
C10B C11 1_555 1_555
H9B C10B 1_555 1_555
C11B C10 1_555 1_555
H10B C11B 1_555 1_555
C12B O6B 1_555 1_555
C13A O7A 1_555 1_555
C14A N1A 1_555 1_555
H11A C14A 1_555 1_555
H12A C14A 1_555 1_555
H13A C14A 1_555 1_555
C15A N2A 1_555 1_555
H14A C15A 1_555 1_555
H15A C15A 1_555 1_555
H16A C15A 1_555 1_555
C16A O8A 1_555 1_555
C17A N4A 1_555 1_555
H17A C17A 1_555 1_555
H18A C17A 1_555 1_555
H19A C17A 1_555 1_555
C18A N3A 1_555 1_555
H20A C18A 1_555 1_555
H21A C18A 1_555 1_555
H22A C18A 1_555 1_555
O6 C12 1_555 1_555
N1 C13 1_555 1_555
N2 C13 1_555 1_555
N3 C16 1_555 1_555
N4 C16 1_555 1_555
C1 C7 1_555 1_555
C5 C6 1_555 1_555
C9 C12 1_555 1_555
N1A C13A 1_555 1_555
N2A C13A 1_555 1_555
N3A C16A 1_555 1_555
N4A C16A 1_555 1_555
C1A C7A 1_555 1_555
C4A C8A 1_555 1_555
C5A C6A 1_555 1_555
C9B C11B 1_555 1_555
C9B C12B 1_555 1_555

#END
