
#######################################################################
#
#                 Cambridge Crystallographic Data Centre
#                                CCDC 
#
#######################################################################
#
# If this CIF has been generated from an entry in the Cambridge 
# Structural Database, then it will include bibliographic, chemical, 
# crystal, experimental, refinement or atomic coordinate data resulting 
# from the CCDC's data processing and validation procedures.
#
#######################################################################

data_SUNJER
_symmetry_cell_setting           triclinic
_symmetry_space_group_name_H-M   'P -1'
_symmetry_Int_Tables_number      2
_space_group_name_Hall           '-P 1'
loop_
_symmetry_equiv_pos_site_id
_symmetry_equiv_pos_as_xyz
1 x,y,z
2 -x,-y,-z
_cell_length_a                   9.7863(7)
_cell_length_b                   10.2967(7)
_cell_length_c                   11.0263(7)
_cell_angle_alpha                76.898(5)
_cell_angle_beta                 76.240(5)
_cell_angle_gamma                65.487(5)
_cell_volume                     971.571
loop_
_atom_site_label
_atom_site_type_symbol
_atom_site_fract_x
_atom_site_fract_y
_atom_site_fract_z
Yb1 Yb 0.05571(3) 0.77186(2) 0.67586(2)
O1 O 0.1385(4) 0.6258(4) 0.8761(3)
O2 O 0.3143(4) 0.6498(4) 0.7181(4)
O3 O -0.1147(4) 0.9005(4) 0.5534(3)
O4 O -0.1408(4) 1.0493(4) 0.3706(3)
O5 O -0.1690(4) 0.7500(4) 0.8138(3)
O6 O -0.1133(4) 0.9345(4) 0.8197(3)
O7 O 0.0466(4) 0.5685(4) 0.6324(3)
O8 O 0.1980(4) 0.7374(4) 0.4765(3)
N1 N 0.0488(6) 0.4071(5) 0.8154(4)
H1 H 0.0607 0.4540 0.8649
N2 N -0.0053(6) 0.3654(5) 0.6506(4)
H2 H -0.0086 0.3692 0.5726
N3 N 0.4550(5) 0.6652(6) 0.4708(4)
H3 H 0.4580 0.6232 0.5476
N4 N 0.3620(6) 0.7770(6) 0.2981(4)
H4 H 0.2971 0.8163 0.2470
C1 C 0.3913(6) 0.5516(6) 0.9194(5)
C2 C 0.5385(6) 0.5499(6) 0.8735(5)
H5 H 0.5644 0.5832 0.7890
C3 C 0.3534(6) 0.5017(6) 1.0461(5)
H6 H 0.2560 0.5026 1.0773
C4 C 0.2737(7) 0.6122(6) 0.8331(5)
C5 C -0.3501(6) 0.9870(6) 0.4824(5)
C6 C -0.4416(6) 1.0706(6) 0.3914(5)
H7 H -0.4015 1.1172 0.3182
C7 C -0.4096(6) 0.9155(6) 0.5909(5)
H8 H -0.3486 0.8585 0.6513
C8 C -0.1895(6) 0.9781(6) 0.4670(5)
C9 C -0.3554(6) 0.9340(6) 0.9322(5)
C10 C -0.3850(6) 1.0466(6) 0.9968(5)
H9 H -0.3079 1.0779 0.9947
C11 C -0.4715(6) 0.8873(6) 0.9358(5)
H10 H -0.4527 0.8120 0.8930
C12 C -0.2030(6) 0.8676(6) 0.8518(5)
C13 C 0.3280(6) 0.7272(6) 0.4209(5)
C14 C 0.5878(7) 0.6750(7) 0.3841(5)
H11 H 0.6647 0.5801 0.3716
H12 H 0.6316 0.7289 0.4135
C15 C 0.5218(6) 0.7560(6) 0.2626(5)
H13 H 0.5339 0.8477 0.2374
H14 H 0.5705 0.6990 0.1940
C16 C 0.0295(6) 0.4566(6) 0.6954(5)
C17 C 0.0467(7) 0.2612(6) 0.8514(6)
H15 H -0.0079 0.2486 0.9361
H16 H 0.1489 0.1876 0.8454
C18 C -0.0368(7) 0.2588(6) 0.7535(5)
H17 H 0.0032 0.1642 0.7275
H18 H -0.1450 0.2871 0.7844
Yb1A Yb 0.94429(3) 0.22814(2) 1.32414(2)
Yb1A_2 Yb -0.05571(3) 1.22814(2) 0.32414(2)
Yb1A_3 Yb -1.05571(3) 1.22814(2) 0.32414(2)
Yb1_2 Yb -0.94429(3) 0.77186(2) 0.67586(2)
Yb1A_4 Yb -1.05571(3) 1.22814(2) 1.32414(2)
O1A O 0.8615(4) 0.3742(4) 1.1239(3)
O2A O 0.6857(4) 0.3502(4) 1.2819(4)
O3A O -0.8853(4) 1.0995(4) 0.4466(3)
O3A_2 O 1.1147(4) 0.0995(4) 1.4466(3)
O4A O -0.8592(4) 0.9507(4) 0.6294(3)
O4A_2 O 0.1408(4) 0.9507(4) 0.6294(3)
O4_2 O 0.8592(4) 0.0493(4) 1.3706(3)
O5A O -0.8310(4) 1.2500(4) 1.1862(3)
O5A_2 O 1.1690(4) 0.2500(4) 1.1862(3)
O6A O -0.8867(4) 1.0655(4) 1.1803(3)
O6A_2 O 1.1133(4) 0.0655(4) 1.1803(3)
O7A O 0.9534(4) 0.4315(4) 1.3676(3)
O8A O 0.8020(4) 0.2626(4) 1.5235(3)
N1A N 0.9512(6) 0.5929(5) 1.1846(4)
H1A H 0.9393 0.5460 1.1351
N2A N 1.0053(6) 0.6346(5) 1.3494(4)
H2A H 1.0086 0.6308 1.4274
N3A N 0.5450(5) 0.3348(6) 1.5292(4)
H3A H 0.5420 0.3768 1.4524
N4A N 0.6380(6) 0.2230(6) 1.7019(4)
H4A H 0.7029 0.1837 1.7530
C1A C 0.6087(6) 0.4484(6) 1.0806(5)
C2A C 0.4615(6) 0.4501(6) 1.1265(5)
H5A H 0.4356 0.4168 1.2110
C3A C 0.6466(6) 0.4983(6) 0.9539(5)
H6A H 0.7440 0.4974 0.9227
C4A C 0.7263(7) 0.3878(6) 1.1669(5)
C5A C -0.6499(6) 1.0130(6) 0.5176(5)
C6A C -0.5584(6) 0.9294(6) 0.6086(5)
H7A H -0.5985 0.8828 0.6818
C7A C -0.5904(6) 1.0845(6) 0.4091(5)
H8A H -0.6514 1.1415 0.3487
C8A C -0.8105(6) 1.0219(6) 0.5330(5)
C9A C -0.6446(6) 1.0660(6) 1.0678(5)
C10A C -0.6150(6) 0.9534(6) 1.0032(5)
H9A H -0.6921 0.9221 1.0053
C11A C -0.5285(6) 1.1127(6) 1.0642(5)
H10A H -0.5473 1.1880 1.1070
C12A C -0.7970(6) 1.1324(6) 1.1482(5)
C13A C 0.6720(6) 0.2728(6) 1.5791(5)
C14A C 0.4122(7) 0.3250(7) 1.6159(5)
H11A H 0.3353 0.4199 1.6284
H12A H 0.3684 0.2711 1.5865
C15A C 0.4782(6) 0.2440(6) 1.7374(5)
H13A H 0.4661 0.1523 1.7626
H14A H 0.4295 0.3010 1.8060
C16A C 0.9705(6) 0.5434(6) 1.3046(5)
C17A C 0.9533(7) 0.7388(6) 1.1486(6)
H15A H 1.0079 0.7514 1.0639
H16A H 0.8511 0.8124 1.1546
C18A C 1.0368(7) 0.7412(6) 1.2465(5)
H17A H 0.9968 0.8358 1.2725
H18A H 1.1450 0.7129 1.2156
loop_
_geom_bond_atom_site_label_1
_geom_bond_atom_site_label_2
_geom_bond_site_symmetry_1
_geom_bond_site_symmetry_2
Yb1 O1 1_555 1_555
O1 C4 1_555 1_555
O2 Yb1 1_555 1_555
O3 Yb1 1_555 1_555
O4 C8 1_555 1_555
O5 Yb1 1_555 1_555
O6 Yb1 1_555 1_555
O7 Yb1 1_555 1_555
O8 Yb1 1_555 1_555
N1 H1 1_555 1_555
N2 H2 1_555 1_555
N3 H3 1_555 1_555
N4 H4 1_555 1_555
C1 C2 1_555 1_555
C2 H5 1_555 1_555
C3 C1 1_555 1_555
H6 C3 1_555 1_555
C4 O2 1_555 1_555
C5 C6 1_555 1_555
C6 H7 1_555 1_555
C7 C5 1_555 1_555
H8 C7 1_555 1_555
C8 O3 1_555 1_555
C9 C10 1_555 1_555
C10 H9 1_555 1_555
C11 C9 1_555 1_555
H10 C11 1_555 1_555
C12 O5 1_555 1_555
C13 O8 1_555 1_555
C14 N3 1_555 1_555
H11 C14 1_555 1_555
H12 C14 1_555 1_555
C15 N4 1_555 1_555
H13 C15 1_555 1_555
H14 C15 1_555 1_555
C16 O7 1_555 1_555
C17 N1 1_555 1_555
H15 C17 1_555 1_555
H16 C17 1_555 1_555
C18 N2 1_555 1_555
H17 C18 1_555 1_555
H18 C18 1_555 1_555
Yb1A O1A 1_555 1_555
Yb1A_2 O4 1_555 1_555
Yb1A_3 O3A 1_555 1_555
Yb1_2 O4A 1_555 1_555
Yb1A_4 O5A 1_555 1_555
O1A C4A 1_555 1_555
O2A Yb1A 1_555 1_555
O3A C8A 1_555 1_555
O3A_2 Yb1A 1_555 1_555
O4A C8A 1_555 1_555
O4A_2 Yb1 1_555 1_555
O4_2 Yb1A 1_555 1_555
O5A C12A 1_555 1_555
O5A_2 Yb1A 1_555 1_555
O6A Yb1A_4 1_555 1_555
O6A_2 Yb1A 1_555 1_555
O7A Yb1A 1_555 1_555
O8A Yb1A 1_555 1_555
N1A H1A 1_555 1_555
N2A H2A 1_555 1_555
N3A H3A 1_555 1_555
N4A H4A 1_555 1_555
C1A C2A 1_555 1_555
C2A C3 1_555 1_555
H5A C2A 1_555 1_555
C3A C2 1_555 1_555
H6A C3A 1_555 1_555
C4A O2A 1_555 1_555
C5A C6A 1_555 1_555
C6A C7 1_555 1_555
H7A C6A 1_555 1_555
C7A C6 1_555 1_555
H8A C7A 1_555 1_555
C8A C5A 1_555 1_555
C9A C10A 1_555 1_555
C10A C11 1_555 1_555
H9A C10A 1_555 1_555
C11A C10 1_555 1_555
H10A C11A 1_555 1_555
C12A O6A 1_555 1_555
C13A O8A 1_555 1_555
C14A N3A 1_555 1_555
H11A C14A 1_555 1_555
H12A C14A 1_555 1_555
C15A N4A 1_555 1_555
H13A C15A 1_555 1_555
H14A C15A 1_555 1_555
C16A O7A 1_555 1_555
C17A N1A 1_555 1_555
H15A C17A 1_555 1_555
H16A C17A 1_555 1_555
C18A N2A 1_555 1_555
H17A C18A 1_555 1_555
H18A C18A 1_555 1_555
O6 C12 1_555 1_555
N1 C16 1_555 1_555
N2 C16 1_555 1_555
N3 C13 1_555 1_555
N4 C13 1_555 1_555
C1 C4 1_555 1_555
C5 C8 1_555 1_555
C9 C12 1_555 1_555
C14 C15 1_555 1_555
C17 C18 1_555 1_555
N1A C16A 1_555 1_555
N2A C16A 1_555 1_555
N3A C13A 1_555 1_555
N4A C13A 1_555 1_555
C1A C3A 1_555 1_555
C1A C4A 1_555 1_555
C5A C7A 1_555 1_555
C9A C11A 1_555 1_555
C9A C12A 1_555 1_555
C14A C15A 1_555 1_555
C17A C18A 1_555 1_555

#END
