
#######################################################################
#
#                 Cambridge Crystallographic Data Centre
#                                CCDC 
#
#######################################################################
#
# If this CIF has been generated from an entry in the Cambridge 
# Structural Database, then it will include bibliographic, chemical, 
# crystal, experimental, refinement or atomic coordinate data resulting 
# from the CCDC's data processing and validation procedures.
#
#######################################################################

data_SUNJOC
_symmetry_cell_setting           monoclinic
_symmetry_space_group_name_H-M   'P 21/n'
_symmetry_Int_Tables_number      14
_space_group_name_Hall           '-P 2yn'
loop_
_symmetry_equiv_pos_site_id
_symmetry_equiv_pos_as_xyz
1 x,y,z
2 1/2-x,1/2+y,1/2-z
3 -x,-y,-z
4 1/2+x,1/2-y,1/2+z
_cell_length_a                   10.7724(5)
_cell_length_b                   12.8707(5)
_cell_length_c                   17.3647(5)
_cell_angle_alpha                90
_cell_angle_beta                 106.550(4)
_cell_angle_gamma                90
_cell_volume                     2307.84
loop_
_atom_site_label
_atom_site_type_symbol
_atom_site_fract_x
_atom_site_fract_y
_atom_site_fract_z
Mn1 Mn 0.48006(4) 0.75595(3) 0.18946(2)
N1 N 0.1001(3) 0.7125(2) -0.18698(14)
N2 N 0.3646(3) 0.7152(2) 0.06677(14)
N3 N 0.6635(3) 0.7035(2) 0.16614(14)
N4 N 0.5646(2) 0.8960(2) 0.13996(15)
N5 N 0.4184(3) 0.6102(2) 0.23373(15)
C1 C 0.2591(3) 0.4130(2) 0.30602(16)
C2 C 0.2775(3) 0.6874(2) 0.01568(15)
C3 C 0.5007(3) 0.5822(2) 0.44912(17)
H1 H 0.5015 0.6394 0.4147
N6 N 0.1793(3) 0.3506(2) 0.29139(15)
C4 C 0.1197(3) 0.5220(3) 0.05352(16)
H2 H 0.2015 0.5365 0.0906
C5 C 0.1679(3) 0.6506(2) -0.04193(16)
C6 C 0.1366(3) 0.6880(2) -0.12059(16)
C7 C 0.7106(4) 0.6062(3) 0.18236(19)
H3 H 0.6608 0.5563 0.2010
C8 C 0.0829(3) 0.5746(2) -0.02035(16)
C9 C 0.3576(3) 0.4866(2) 0.33164(17)
C10 C 0.4299(3) 0.4928(2) 0.41754(17)
C11 C 0.3876(3) 0.5532(2) 0.27612(17)
C12 C 0.6775(3) 0.8803(3) 0.1237(2)
C13 C 0.4305(3) 0.4113(2) 0.47028(17)
H4 H 0.3829 0.3500 0.4507
C14 C 0.7341(3) 0.7749(3) 0.1402(2)
C15 C -0.0392(3) 0.5506(3) -0.07327(17)
H5 H -0.0669 0.5850 -0.1237
C16 C 0.7376(4) 0.9586(3) 0.0924(3)
H6 H 0.8175 0.9457 0.0811
C17 C 0.5108(4) 0.9907(3) 0.1255(2)
H7 H 0.4309 1.0024 0.1372
C18 C 0.8271(4) 0.5770(3) 0.1729(3)
H8 H 0.8575 0.5079 0.1848
C19 C 0.5646(4) 1.0714(3) 0.0948(3)
H9 H 0.5231 1.1372 0.0854
C20 C 0.6806(4) 1.0549(3) 0.0779(3)
H10 H 0.7205 1.1093 0.0565
C21 C 0.8998(5) 0.6481(3) 0.1461(4)
H11 H 0.9811 0.6288 0.1392
C22 C 0.8534(5) 0.7491(3) 0.1292(4)
H12 H 0.9024 0.7996 0.1105
N2B N -0.3646(3) 0.2848(2) -0.06677(14)
C2B C -0.2775(3) 0.3126(2) -0.01568(15)
C4B C -0.1197(3) 0.4780(3) -0.05352(16)
H2B H -0.2015 0.4635 -0.0906
C5B C -0.1679(3) 0.3494(2) 0.04193(16)
C8B C -0.0829(3) 0.4254(2) 0.02035(16)
C15B C 0.0392(3) 0.4494(3) 0.07327(17)
H5B H 0.0669 0.4150 0.1237
N1B N -0.1001(3) 0.2875(2) 0.18698(14)
C6B C -0.1366(3) 0.3120(2) 0.12059(16)
N5B N 0.5816(3) 0.3898(2) 0.76627(15)
C3B C 0.4993(3) 0.4178(2) 0.55088(17)
H1B H 0.4985 0.3606 0.5853
C9B C 0.6424(3) 0.5134(2) 0.66836(17)
C10B C 0.5701(3) 0.5072(2) 0.58246(17)
C11B C 0.6124(3) 0.4468(2) 0.72388(17)
C13B C 0.5695(3) 0.5887(2) 0.52972(17)
H4B H 0.6171 0.6500 0.5493
C1B C 0.7409(3) 0.5870(2) 0.69398(16)
N6B N 0.8207(3) 0.6494(2) 0.70861(15)
Mn1B Mn -0.48006(4) 0.24405(3) -0.18946(2)
N3B N -0.6635(3) 0.2965(2) -0.16614(14)
N4B N -0.5646(2) 0.1040(2) -0.13996(15)
C7B C -0.7106(4) 0.3938(3) -0.18236(19)
H3B H -0.6608 0.4437 -0.2010
C12B C -0.6775(3) 0.1197(3) -0.1237(2)
C14B C -0.7341(3) 0.2251(3) -0.1402(2)
C16B C -0.7376(4) 0.0414(3) -0.0924(3)
H6B H -0.8175 0.0543 -0.0811
C17B C -0.5108(4) 0.0093(3) -0.1255(2)
H7B H -0.4309 -0.0024 -0.1372
C18B C -0.8271(4) 0.4230(3) -0.1729(3)
H8B H -0.8575 0.4921 -0.1848
C19B C -0.5646(4) -0.0714(3) -0.0948(3)
H9B H -0.5231 -0.1372 -0.0854
C20B C -0.6806(4) -0.0549(3) -0.0779(3)
H10B H -0.7205 -0.1093 -0.0565
C21B C -0.8998(5) 0.3519(3) -0.1461(4)
H11B H -0.9811 0.3712 -0.1392
C22B C -0.8534(5) 0.2509(3) -0.1292(4)
H12B H -0.9024 0.2004 -0.1105
Mn1A Mn 0.01994(4) 0.25595(3) 0.31054(2)
Mn1B_2 Mn 0.51994(4) 0.24405(3) 0.81054(2)
Mn1C Mn -0.01994(4) 0.74405(3) -0.31054(2)
Mn1C_2 Mn 0.98006(4) 0.74405(3) 0.68946(2)
N1A N -0.6001(3) 0.2125(2) -0.31302(14)
N1C N 0.6001(3) 0.7875(2) 0.31302(14)
N5B_2 N -0.4184(3) 0.3898(2) -0.23373(15)
N6A N 0.3207(3) 0.8506(2) 0.20861(15)
N6C N -0.3207(3) 0.1494(2) -0.20861(15)
C23 C 0.5777(6) 0.6147(6) 0.9502(4)
H13 H 0.5510 0.6603 0.9878
H14 H 0.6552 0.5758 0.9791
H15 H 0.5075 0.5660 0.9259
O1 O 0.4286(6) 0.6192(4) 0.7951(4)
N7 N 0.6066(5) 0.6775(4) 0.8870(3)
C24 C 0.7152(6) 0.7509(5) 0.9028(6)
H16 H 0.7193 0.7821 0.8521
H17 H 0.7963 0.7140 0.9277
H18 H 0.7027 0.8056 0.9391
C25 C 0.5275(7) 0.6743(5) 0.8132(4)
H19 H 0.5468 0.7154 0.7727
loop_
_geom_bond_atom_site_label_1
_geom_bond_atom_site_label_2
_geom_bond_site_symmetry_1
_geom_bond_site_symmetry_2
Mn1 N2 1_555 1_555
N1 C6 1_555 1_555
N2 C2 1_555 1_555
N3 Mn1 1_555 1_555
N4 Mn1 1_555 1_555
N5 Mn1 1_555 1_555
C1 N6 1_555 1_555
C2 C5 1_555 1_555
C3 H1 1_555 1_555
N6 Mn1A 1_555 1_555
C4 H2 1_555 1_555
C5 C6 1_555 1_555
C7 N3 1_555 1_555
H3 C7 1_555 1_555
C8 C4 1_555 1_555
C9 C1 1_555 1_555
C10 C3 1_555 1_555
C11 N5 1_555 1_555
C12 N4 1_555 1_555
C13 C10 1_555 1_555
H4 C13 1_555 1_555
C14 N3 1_555 1_555
C15 C8 1_555 1_555
H5 C15 1_555 1_555
C16 C12 1_555 1_555
H6 C16 1_555 1_555
C17 N4 1_555 1_555
H7 C17 1_555 1_555
C18 C7 1_555 1_555
H8 C18 1_555 1_555
C19 C17 1_555 1_555
H9 C19 1_555 1_555
C20 C16 1_555 1_555
H10 C20 1_555 1_555
C21 C18 1_555 1_555
H11 C21 1_555 1_555
C22 C14 1_555 1_555
H12 C22 1_555 1_555
C23 H13 1_555 1_555
H14 C23 1_555 1_555
H15 C23 1_555 1_555
O1 C25 1_555 1_555
N7 C23 1_555 1_555
C24 N7 1_555 1_555
H16 C24 1_555 1_555
H17 C24 1_555 1_555
H18 C24 1_555 1_555
C25 N7 1_555 1_555
H19 C25 1_555 1_555
N2B C2B 1_555 1_555
C2B C5B 1_555 1_555
C4B C15 1_555 1_555
H2B C4B 1_555 1_555
C5B C8B 1_555 1_555
C8B C4B 1_555 1_555
C15B C4 1_555 1_555
H5B C15B 1_555 1_555
N1B C6B 1_555 1_555
C6B C5B 1_555 1_555
N5B C11B 1_555 1_555
C3B C13 1_555 1_555
H1B C3B 1_555 1_555
C9B C10B 1_555 1_555
C10B C3B 1_555 1_555
C11B C9B 1_555 1_555
C13B C3 1_555 1_555
H4B C13B 1_555 1_555
C1B C9B 1_555 1_555
N6B C1B 1_555 1_555
Mn1B N2B 1_555 1_555
N3B Mn1B 1_555 1_555
N4B Mn1B 1_555 1_555
C7B N3B 1_555 1_555
H3B C7B 1_555 1_555
C12B N4B 1_555 1_555
C14B N3B 1_555 1_555
C16B C12B 1_555 1_555
H6B C16B 1_555 1_555
C17B N4B 1_555 1_555
H7B C17B 1_555 1_555
C18B C7B 1_555 1_555
H8B C18B 1_555 1_555
C19B C17B 1_555 1_555
H9B C19B 1_555 1_555
C20B C16B 1_555 1_555
H10B C20B 1_555 1_555
C21B C18B 1_555 1_555
H11B C21B 1_555 1_555
C22B C14B 1_555 1_555
H12B C22B 1_555 1_555
Mn1A N1B 1_555 1_555
Mn1B_2 N5B 1_555 1_555
Mn1C N1 1_555 1_555
Mn1C_2 N6B 1_555 1_555
N1A Mn1B 1_555 1_555
N1C Mn1 1_555 1_555
N5B_2 Mn1B 1_555 1_555
N6A Mn1 1_555 1_555
N6C Mn1B 1_555 1_555
C5 C8 1_555 1_555
C9 C10 1_555 1_555
C9 C11 1_555 1_555
C12 C14 1_555 1_555
C19 C20 1_555 1_555
C21 C22 1_555 1_555
C8B C15B 1_555 1_555
C10B C13B 1_555 1_555
C12B C14B 1_555 1_555
C19B C20B 1_555 1_555
C21B C22B 1_555 1_555

#END
