
#######################################################################
#
#                 Cambridge Crystallographic Data Centre
#                                CCDC 
#
#######################################################################
#
# If this CIF has been generated from an entry in the Cambridge 
# Structural Database, then it will include bibliographic, chemical, 
# crystal, experimental, refinement or atomic coordinate data resulting 
# from the CCDC's data processing and validation procedures.
#
#######################################################################

data_SUNJUH
_symmetry_cell_setting           monoclinic
_symmetry_space_group_name_H-M   'C 2/c'
_symmetry_Int_Tables_number      15
_space_group_name_Hall           '-C 2yn'
loop_
_symmetry_equiv_pos_site_id
_symmetry_equiv_pos_as_xyz
1 x,y,z
2 -x,y,1/2-z
3 1/2+x,1/2+y,z
4 1/2-x,1/2+y,1/2-z
5 -x,-y,-z
6 x,-y,1/2+z
7 1/2-x,1/2-y,-z
8 1/2+x,1/2-y,1/2+z
_cell_length_a                   20.8389(2)
_cell_length_b                   10.69020(10)
_cell_length_c                   16.3858(2)
_cell_angle_alpha                90
_cell_angle_beta                 111.9730(10)
_cell_angle_gamma                90
_cell_volume                     3385.14
loop_
_atom_site_label
_atom_site_type_symbol
_atom_site_fract_x
_atom_site_fract_y
_atom_site_fract_z
Sm1 Sm 0.002346(6) 0.522770(11) -0.128119(7)
O1 O 0.11529(9) 0.49465(17) -0.00864(12)
O2 O 0.10517(9) 0.53253(17) 0.12047(11)
O3 O 0.42947(9) 0.81574(17) 0.15329(12)
O4 O 0.42284(9) 0.82374(18) 0.28607(11)
O5 O -0.00237(9) 0.65720(16) -0.01929(11)
O6 O -0.01214(9) 0.70511(16) 0.10657(11)
O7 O 0.06913(9) 0.43393(17) -0.21603(11)
N1 N 0.10095(13) 0.2347(2) -0.23860(15)
H1 H 0.0673 0.2199 -0.2875
N2 N 0.16300(12) 0.3308(2) -0.11626(15)
H2 H 0.1810 0.3920 -0.0811
C1 C 0.21069(12) 0.5844(2) 0.10794(15)
C2 C 0.23860(13) 0.6220(3) 0.19600(16)
H3 H 0.2147 0.6055 0.2327
C3 C 0.30171(13) 0.6835(3) 0.22889(16)
H4 H 0.3199 0.7084 0.2875
C4 C 0.33778(12) 0.7081(2) 0.17463(16)
C5 C 0.31208(13) 0.6647(2) 0.08818(16)
H5 H 0.3373 0.6769 0.0525
C6 C 0.24866(13) 0.6029(2) 0.05521(16)
H6 H 0.2317 0.5739 -0.0025
C7 C 0.13821(12) 0.5322(2) 0.07057(16)
C8 C 0.40222(13) 0.7883(2) 0.20755(16)
C9 C -0.00423(13) 0.8728(2) 0.01615(16)
C10 C 0.00726(16) 0.9112(2) -0.05852(17)
H7 H 0.0122 0.8523 -0.0975
C11 C -0.01127(16) 0.9622(2) 0.07425(18)
H8 H -0.0187 0.9365 0.1242
C12 C -0.00681(13) 0.7364(2) 0.03475(15)
C13 C 0.10762(13) 0.3396(2) -0.19277(16)
C14 C 0.15717(18) 0.1478(3) -0.19644(19)
H9 H 0.1909 0.1488 -0.2243
H10 H 0.1402 0.0632 -0.1970
C15 C 0.18764(19) 0.2011(3) -0.1024(2)
H11 H 0.1701 0.1571 -0.0633
H12 H 0.2378 0.1973 -0.0786
Sm1D Sm -0.002346(6) 0.477230(11) 0.128119(7)
Sm1F Sm 0.497654(6) 0.977230(11) 0.128119(7)
Sm1G Sm 0.502346(6) 0.977230(11) 0.371881(7)
Sm1A Sm -0.002346(6) 0.522770(11) -0.371881(7)
Sm1D_2 Sm -0.002346(6) 1.477230(11) 0.128119(7)
Sm1_2 Sm 0.002346(6) 1.522770(11) -0.128119(7)
Sm1B Sm -0.497654(6) 0.022770(11) -0.128119(7)
Sm1C Sm -0.502346(6) 0.022770(11) -0.371881(7)
O1D O -0.11529(9) 0.50535(17) 0.00864(12)
O2D O -0.10517(9) 0.46747(17) -0.12047(11)
O3D O -0.42947(9) 0.18426(17) -0.15329(12)
O3F O 0.07053(9) 0.68426(17) -0.15329(12)
O3B O -0.07053(9) 0.31574(17) 0.15329(12)
O4D O -0.42284(9) 0.17626(18) -0.28607(11)
O4G O -0.07716(9) 0.67626(18) -0.21393(11)
O4C O 0.07716(9) 0.32374(18) 0.21393(11)
O5D O 0.00237(9) 1.34280(16) 0.01929(11)
O5D_2 O 0.00237(9) 0.34280(16) 0.01929(11)
O6D O 0.01214(9) 1.29489(16) -0.10657(11)
O6D_2 O 0.01214(9) 0.29489(16) -0.10657(11)
O7A O -0.06913(9) 0.43393(17) -0.28397(11)
O7D O -0.06913(9) 0.56607(17) 0.21603(11)
O7E O 0.06913(9) 0.56607(17) 0.28397(11)
N1A N -0.10095(13) 0.2347(2) -0.26140(15)
H1A H -0.0673 0.2199 -0.2125
N2A N -0.16300(12) 0.3308(2) -0.38374(15)
H2A H -0.1810 0.3920 -0.4189
C1D C -0.21069(12) 0.4156(2) -0.10794(15)
C2D C -0.23860(13) 0.3780(3) -0.19600(16)
H3D H -0.2147 0.3945 -0.2327
C3D C -0.30171(13) 0.3165(3) -0.22889(16)
H4D H -0.3199 0.2916 -0.2875
C4D C -0.33778(12) 0.2919(2) -0.17463(16)
C5D C -0.31208(13) 0.3353(2) -0.08818(16)
H5D H -0.3373 0.3231 -0.0525
C6D C -0.24866(13) 0.3971(2) -0.05521(16)
H6D H -0.2317 0.4261 0.0025
C7D C -0.13821(12) 0.4678(2) -0.07057(16)
C8D C -0.40222(13) 0.2117(2) -0.20755(16)
C9D C 0.00423(13) 1.1272(2) -0.01615(16)
C10D C -0.00726(16) 1.0888(2) 0.05852(17)
H7D H -0.0122 1.1477 0.0975
C11D C 0.01127(16) 1.0378(2) -0.07425(18)
H8D H 0.0187 1.0635 -0.1242
C12D C 0.00681(13) 1.2636(2) -0.03475(15)
C13A C -0.10762(13) 0.3396(2) -0.30723(16)
C14A C -0.15717(18) 0.1478(3) -0.30356(19)
H9A H -0.1909 0.1488 -0.2757
H10A H -0.1402 0.0632 -0.3030
C15A C -0.18764(19) 0.2011(3) -0.3976(2)
H11A H -0.1701 0.1571 -0.4367
H12A H -0.2378 0.1973 -0.4214
loop_
_geom_bond_atom_site_label_1
_geom_bond_atom_site_label_2
_geom_bond_site_symmetry_1
_geom_bond_site_symmetry_2
Sm1 O1 1_555 1_555
O1 C7 1_555 1_555
O2 C7 1_555 1_555
O3 C8 1_555 1_555
O4 C8 1_555 1_555
O5 Sm1 1_555 1_555
O6 C12 1_555 1_555
O7 Sm1 1_555 1_555
N1 H1 1_555 1_555
N2 H2 1_555 1_555
C1 C2 1_555 1_555
C2 H3 1_555 1_555
C3 C2 1_555 1_555
H4 C3 1_555 1_555
C4 C3 1_555 1_555
C5 C4 1_555 1_555
H5 C5 1_555 1_555
C6 C1 1_555 1_555
H6 C6 1_555 1_555
C7 C1 1_555 1_555
C8 C4 1_555 1_555
C9 C10 1_555 1_555
C10 H7 1_555 1_555
C11 C9 1_555 1_555
H8 C11 1_555 1_555
C12 O5 1_555 1_555
C13 O7 1_555 1_555
C14 N1 1_555 1_555
H9 C14 1_555 1_555
H10 C14 1_555 1_555
C15 N2 1_555 1_555
H11 C15 1_555 1_555
H12 C15 1_555 1_555
Sm1D O2 1_555 1_555
Sm1F O3 1_555 1_555
Sm1G O4 1_555 1_555
Sm1A O7 1_555 1_555
Sm1D_2 O5D 1_555 1_555
Sm1_2 O6D 1_555 1_555
Sm1B O3D 1_555 1_555
Sm1C O4D 1_555 1_555
O1D Sm1D 1_555 1_555
O2D Sm1 1_555 1_555
O3D C8D 1_555 1_555
O3F Sm1 1_555 1_555
O3B Sm1D 1_555 1_555
O4D C8D 1_555 1_555
O4G Sm1 1_555 1_555
O4C Sm1D 1_555 1_555
O5D C12D 1_555 1_555
O5D_2 Sm1D 1_555 1_555
O6D C12D 1_555 1_555
O6D_2 Sm1 1_555 1_555
O7A Sm1 1_555 1_555
O7D Sm1D 1_555 1_555
O7E Sm1D 1_555 1_555
N1A H1A 1_555 1_555
N2A H2A 1_555 1_555
C1D C2D 1_555 1_555
C2D H3D 1_555 1_555
C3D C2D 1_555 1_555
H4D C3D 1_555 1_555
C4D C3D 1_555 1_555
C5D C4D 1_555 1_555
H5D C5D 1_555 1_555
C6D C1D 1_555 1_555
H6D C6D 1_555 1_555
C7D O1D 1_555 1_555
C8D C4D 1_555 1_555
C9D C10D 1_555 1_555
C10D C11 1_555 1_555
H7D C10D 1_555 1_555
C11D C10 1_555 1_555
H8D C11D 1_555 1_555
C12D C9D 1_555 1_555
C13A O7A 1_555 1_555
C14A N1A 1_555 1_555
H9A C14A 1_555 1_555
H10A C14A 1_555 1_555
C15A N2A 1_555 1_555
H11A C15A 1_555 1_555
H12A C15A 1_555 1_555
O6 Sm1D 1_555 1_555
N1 C13 1_555 1_555
N2 C13 1_555 1_555
C5 C6 1_555 1_555
C9 C12 1_555 1_555
C14 C15 1_555 1_555
Sm1A O7A 1_555 1_555
O2D C7D 1_555 1_555
N1A C13A 1_555 1_555
N2A C13A 1_555 1_555
C1D C7D 1_555 1_555
C5D C6D 1_555 1_555
C9D C11D 1_555 1_555
C14A C15A 1_555 1_555

#END
