
#######################################################################
#
#                 Cambridge Crystallographic Data Centre
#                                CCDC 
#
#######################################################################
#
# If this CIF has been generated from an entry in the Cambridge 
# Structural Database, then it will include bibliographic, chemical, 
# crystal, experimental, refinement or atomic coordinate data resulting 
# from the CCDC's data processing and validation procedures.
#
#######################################################################

data_SUNMEV
_symmetry_cell_setting           orthorhombic
_symmetry_space_group_name_H-M   'P b c a'
_symmetry_Int_Tables_number      61
_space_group_name_Hall           '-P 2ac 2ab'
loop_
_symmetry_equiv_pos_site_id
_symmetry_equiv_pos_as_xyz
1 x,y,z
2 1/2-x,-y,1/2+z
3 -x,1/2+y,1/2-z
4 1/2+x,1/2-y,-z
5 -x,-y,-z
6 1/2+x,y,1/2-z
7 x,1/2-y,1/2+z
8 1/2-x,1/2+y,z
_cell_length_a                   9.1599(16)
_cell_length_b                   7.4074(13)
_cell_length_c                   29.564(5)
_cell_angle_alpha                90
_cell_angle_beta                 90
_cell_angle_gamma                90
_cell_volume                     2005.95
loop_
_atom_site_label
_atom_site_type_symbol
_atom_site_fract_x
_atom_site_fract_y
_atom_site_fract_z
Cu1 Cu 0.68821(5) 0.19884(6) 0.593531(15)
Cl1 Cl 0.81484(10) 0.03067(12) 0.54223(3)
Cl2 Cl 0.88338(10) 0.29785(13) 0.63223(3)
N1 N 0.5419(3) 0.2916(3) 0.63884(9)
O1 O 0.5089(3) 0.1304(3) 0.56136(7)
N2 N 0.3080(4) 0.3892(4) 0.69309(10)
C1 C 0.2901(4) 0.2947(4) 0.65524(13)
H1 H 0.1963 0.2603 0.6469
C2 C 0.3893(4) 0.1458(4) 0.58393(12)
O2 O 0.2719(3) 0.0853(3) 0.57275(9)
C3 C 0.5612(4) 0.3869(5) 0.67664(11)
H2 H 0.6550 0.4204 0.6853
C4 C 0.4059(4) 0.2458(4) 0.62782(11)
C5 C 0.4431(5) 0.4365(4) 0.70325(11)
C6 C 0.4661(5) 0.5471(6) 0.74519(12)
H3 H 0.4358 0.6692 0.7397
H4 H 0.5677 0.5455 0.7532
H5 H 0.4096 0.4973 0.7695
Cu1G Cu 0.81179(5) -0.30116(6) 0.593531(15)
Cl1G Cl 0.68516(10) 0.53067(12) 0.54223(3)
K1 K 0.42421(9) -0.21548(10) 0.52899(3)
loop_
_geom_bond_atom_site_label_1
_geom_bond_atom_site_label_2
_geom_bond_site_symmetry_1
_geom_bond_site_symmetry_2
Cu1 Cl1 1_555 1_555
Cl1 Cu1G 1_555 1_555
Cl2 Cu1 1_555 1_555
N1 Cu1 1_555 1_555
O1 Cu1 1_555 1_555
N2 C1 1_555 1_555
C1 H1 1_555 1_555
C2 O1 1_555 1_555
O2 C2 1_555 1_555
C3 N1 1_555 1_555
H2 C3 1_555 1_555
C4 N1 1_555 1_555
C5 N2 1_555 1_555
C6 C5 1_555 1_555
H3 C6 1_555 1_555
H4 C6 1_555 1_555
H5 C6 1_555 1_555
Cl1G Cu1 1_555 1_555
C1 C4 1_555 1_555
C2 C4 1_555 1_555
C3 C5 1_555 1_555

#END
