
#######################################################################
#
#                 Cambridge Crystallographic Data Centre
#                                CCDC 
#
#######################################################################
#
# If this CIF has been generated from an entry in the Cambridge 
# Structural Database, then it will include bibliographic, chemical, 
# crystal, experimental, refinement or atomic coordinate data resulting 
# from the CCDC's data processing and validation procedures.
#
#######################################################################

data_SUNMIY
_symmetry_cell_setting           triclinic
_symmetry_space_group_name_H-M   'P -1'
_symmetry_Int_Tables_number      2
_space_group_name_Hall           '-P 1'
loop_
_symmetry_equiv_pos_site_id
_symmetry_equiv_pos_as_xyz
1 x,y,z
2 -x,-y,-z
_cell_length_a                   8.3404(2)
_cell_length_b                   8.6602(2)
_cell_length_c                   14.9394(3)
_cell_angle_alpha                74.2730(10)
_cell_angle_beta                 78.9840(10)
_cell_angle_gamma                79.9750(10)
_cell_volume                     1010.96
loop_
_atom_site_label
_atom_site_type_symbol
_atom_site_fract_x
_atom_site_fract_y
_atom_site_fract_z
Cd1 Cd 0.0000 0.0000 0.0000
O1 O 0.1043(6) 0.1918(6) 0.0634(6)
O2 O 0.2511(8) 0.3717(5) 0.0434(5)
O3 O 0.2377(9) 0.2256(12) -0.0448(5)
N1 N 0.1127(3) -0.1968(3) 0.12365(15)
N2 N 0.1182(3) -0.7116(3) 0.34528(15)
N3 N -0.2224(3) 0.1001(3) 0.10038(16)
N4 N -0.4273(3) -0.1827(3) 0.35814(15)
N5 N 0.2014(4) 0.2754(3) 0.0207(2)
C1 C 0.2506(4) -0.1708(3) 0.1475(2)
H1 H 0.2939 -0.0749 0.1168
C2 C 0.3316(4) -0.2803(4) 0.2156(3)
H2 H 0.4280 -0.2588 0.2298
C3 C 0.2676(4) -0.4217(3) 0.2622(2)
H3 H 0.3176 -0.4949 0.3101
C4 C 0.1275(3) -0.4537(3) 0.23682(17)
C5 C 0.0547(3) -0.3378(3) 0.16698(17)
H4 H -0.0388 -0.3588 0.1494
C6 C 0.0579(3) -0.6064(3) 0.27965(18)
H5 H -0.0323 -0.6258 0.2579
C7 C 0.0532(3) -0.8613(3) 0.38135(17)
C8 C 0.0214(3) -0.9476(3) 0.32360(18)
H6 H 0.0391 -0.9070 0.2587
C9 C -0.0382(4) -1.0976(4) 0.3628(2)
H7 H -0.0602 -1.1549 0.3230
C10 C -0.0644(3) -1.1613(3) 0.4577(2)
H8 H -0.1044 -1.2604 0.4820
C11 C 0.0305(3) -0.9239(3) 0.48082(17)
C12 C -0.2808(4) 0.2583(3) 0.0791(2)
H9 H -0.2282 0.3262 0.0264
C13 C -0.4153(5) 0.3238(4) 0.1322(2)
H10 H -0.4545 0.4333 0.1150
C14 C -0.4907(4) 0.2240(4) 0.2115(2)
H11 H -0.5832 0.2652 0.2476
C15 C -0.4285(3) 0.0621(3) 0.23721(18)
C16 C -0.2943(3) 0.0062(3) 0.17765(18)
H12 H -0.2530 -0.1030 0.1931
C17 C -0.4985(3) -0.0436(3) 0.32515(19)
H13 H -0.5983 -0.0071 0.3575
C18 C -0.4965(3) -0.2779(3) 0.44503(18)
C19 C -0.5827(3) -0.2142(3) 0.51784(19)
H14 H -0.5992 -0.1027 0.5105
C20 C -0.4668(3) -0.4487(3) 0.45687(17)
C21 C -0.3757(3) -0.5196(3) 0.38404(18)
H15 H -0.3308 -0.4543 0.3277
C22 C -0.6459(3) -0.3154(3) 0.60307(19)
H16 H -0.7034 -0.2701 0.6516
Cd1_2 Cd 0.0000 -2.0000 1.0000
Cd1_3 Cd -1.0000 -1.0000 1.0000
O1A O -0.1043(6) -0.1918(6) -0.0634(6)
O2A O -0.2511(8) -0.3717(5) -0.0434(5)
O3A O -0.2377(9) -0.2256(12) 0.0448(5)
N1A N -0.1127(3) -1.8032(3) 0.87635(15)
N1A_2 N -0.1127(3) 0.1968(3) -0.12365(15)
N2A N -0.1182(3) -1.2884(3) 0.65472(15)
N3A N -0.7776(3) -1.1001(3) 0.89962(16)
N3A_2 N 0.2224(3) -0.1001(3) -0.10038(16)
N4A N -0.5727(3) -0.8173(3) 0.64186(15)
N5A N -0.2014(4) -0.2754(3) -0.0207(2)
C1A C -0.2506(4) -1.8292(3) 0.8525(2)
H1A H -0.2939 -1.9251 0.8832
C2A C -0.3316(4) -1.7197(4) 0.7844(3)
H2A H -0.4280 -1.7412 0.7702
C3A C -0.2676(4) -1.5783(3) 0.7378(2)
H3A H -0.3176 -1.5051 0.6899
C4A C -0.1275(3) -1.5463(3) 0.76318(17)
C5A C -0.0547(3) -1.6622(3) 0.83302(17)
H4A H 0.0388 -1.6412 0.8506
C6A C -0.0579(3) -1.3936(3) 0.72035(18)
H5A H 0.0323 -1.3742 0.7421
C7A C -0.0532(3) -1.1387(3) 0.61865(17)
C8A C -0.0214(3) -1.0524(3) 0.67640(18)
H6A H -0.0391 -1.0930 0.7413
C9A C 0.0382(4) -0.9024(4) 0.6372(2)
H7A H 0.0602 -0.8451 0.6770
C10A C 0.0644(3) -0.8387(3) 0.5423(2)
H8A H 0.1044 -0.7396 0.5180
C11A C -0.0305(3) -1.0761(3) 0.51918(17)
C12A C -0.7192(4) -1.2583(3) 0.9209(2)
H9A H -0.7718 -1.3262 0.9736
C13A C -0.5847(5) -1.3238(4) 0.8678(2)
H10A H -0.5455 -1.4333 0.8850
C14A C -0.5093(4) -1.2240(4) 0.7885(2)
H11A H -0.4168 -1.2652 0.7524
C15A C -0.5715(3) -1.0621(3) 0.76279(18)
C16A C -0.7057(3) -1.0062(3) 0.82235(18)
H12A H -0.7470 -0.8970 0.8069
C17A C -0.5015(3) -0.9564(3) 0.67485(19)
H13A H -0.4017 -0.9929 0.6425
C18A C -0.5035(3) -0.7221(3) 0.55497(18)
C19A C -0.4173(3) -0.7858(3) 0.48216(19)
H14A H -0.4008 -0.8973 0.4895
C20A C -0.5332(3) -0.5513(3) 0.54313(17)
C21A C -0.6243(3) -0.4804(3) 0.61596(18)
H15A H -0.6692 -0.5457 0.6723
C22A C -0.3541(3) -0.6846(3) 0.39693(19)
H16A H -0.2966 -0.7299 0.3484
loop_
_geom_bond_atom_site_label_1
_geom_bond_atom_site_label_2
_geom_bond_site_symmetry_1
_geom_bond_site_symmetry_2
Cd1 O1 1_555 1_555
O1 N5 1_555 1_555
O2 N5 1_555 1_555
O3 N5 1_555 1_555
N1 Cd1 1_555 1_555
N2 C6 1_555 1_555
N3 Cd1 1_555 1_555
N4 C17 1_555 1_555
C1 N1 1_555 1_555
H1 C1 1_555 1_555
C2 C1 1_555 1_555
H2 C2 1_555 1_555
C3 C2 1_555 1_555
H3 C3 1_555 1_555
C4 C3 1_555 1_555
C5 N1 1_555 1_555
H4 C5 1_555 1_555
C6 C4 1_555 1_555
H5 C6 1_555 1_555
C7 N2 1_555 1_555
C8 C7 1_555 1_555
H6 C8 1_555 1_555
C9 C8 1_555 1_555
H7 C9 1_555 1_555
C10 C9 1_555 1_555
H8 C10 1_555 1_555
C11 C7 1_555 1_555
C12 N3 1_555 1_555
H9 C12 1_555 1_555
C13 C12 1_555 1_555
H10 C13 1_555 1_555
C14 C13 1_555 1_555
H11 C14 1_555 1_555
C15 C14 1_555 1_555
C16 N3 1_555 1_555
H12 C16 1_555 1_555
C17 C15 1_555 1_555
H13 C17 1_555 1_555
C18 N4 1_555 1_555
C19 C18 1_555 1_555
H14 C19 1_555 1_555
C20 C18 1_555 1_555
C21 C20 1_555 1_555
H15 C21 1_555 1_555
C22 C19 1_555 1_555
H16 C22 1_555 1_555
Cd1_2 N1A 1_555 1_555
Cd1_3 N3A 1_555 1_555
O1A Cd1 1_555 1_555
O2A N5A 1_555 1_555
O3A N5A 1_555 1_555
N1A C1A 1_555 1_555
N1A_2 Cd1 1_555 1_555
N2A C6A 1_555 1_555
N3A C12A 1_555 1_555
N3A_2 Cd1 1_555 1_555
N4A C17A 1_555 1_555
N5A O1A 1_555 1_555
C1A H1A 1_555 1_555
C2A C1A 1_555 1_555
H2A C2A 1_555 1_555
C3A C2A 1_555 1_555
H3A C3A 1_555 1_555
C4A C3A 1_555 1_555
C5A N1A 1_555 1_555
H4A C5A 1_555 1_555
C6A C4A 1_555 1_555
H5A C6A 1_555 1_555
C7A N2A 1_555 1_555
C8A C7A 1_555 1_555
H6A C8A 1_555 1_555
C9A C8A 1_555 1_555
H7A C9A 1_555 1_555
C10A C11 1_555 1_555
H8A C10A 1_555 1_555
C11A C10 1_555 1_555
C12A H9A 1_555 1_555
C13A C12A 1_555 1_555
H10A C13A 1_555 1_555
C14A C13A 1_555 1_555
H11A C14A 1_555 1_555
C15A C14A 1_555 1_555
C16A N3A 1_555 1_555
H12A C16A 1_555 1_555
C17A C15A 1_555 1_555
H13A C17A 1_555 1_555
C18A N4A 1_555 1_555
C19A C18A 1_555 1_555
H14A C19A 1_555 1_555
C20A C20 1_555 1_555
C21A C22 1_555 1_555
H15A C21A 1_555 1_555
C22A C21 1_555 1_555
H16A C22A 1_555 1_555
C4 C5 1_555 1_555
C11 C11A 1_555 1_555
C15 C16 1_555 1_555
C4A C5A 1_555 1_555
C7A C11A 1_555 1_555
C9A C10A 1_555 1_555
C15A C16A 1_555 1_555
C18A C20A 1_555 1_555
C19A C22A 1_555 1_555
C20A C21A 1_555 1_555

#END
