
#######################################################################
#
#                 Cambridge Crystallographic Data Centre
#                                CCDC 
#
#######################################################################
#
# If this CIF has been generated from an entry in the Cambridge 
# Structural Database, then it will include bibliographic, chemical, 
# crystal, experimental, refinement or atomic coordinate data resulting 
# from the CCDC's data processing and validation procedures.
#
#######################################################################

data_SUNMOE
_symmetry_cell_setting           triclinic
_symmetry_space_group_name_H-M   'P -1'
_symmetry_Int_Tables_number      2
_space_group_name_Hall           '-P 1'
loop_
_symmetry_equiv_pos_site_id
_symmetry_equiv_pos_as_xyz
1 x,y,z
2 -x,-y,-z
_cell_length_a                   8.2223(1)
_cell_length_b                   10.9909(1)
_cell_length_c                   12.0737(2)
_cell_angle_alpha                112.234(1)
_cell_angle_beta                 96.730(1)
_cell_angle_gamma                101.033(1)
_cell_volume                     969.484
loop_
_atom_site_label
_atom_site_type_symbol
_atom_site_fract_x
_atom_site_fract_y
_atom_site_fract_z
Co1 Co 0.0000 0.0000 0.0000
O1 O 0.23163(18) -0.02985(14) 0.07096(14)
O2 O 0.3831(3) -0.1717(3) 0.0420(3)
O3 O 0.2037(4) -0.1780(3) 0.1471(3)
N1 N 0.1389(2) 0.20922(15) 0.06424(15)
N2 N -0.0830(2) 0.51903(16) 0.23618(15)
N3 N -0.5456(2) 0.77470(18) 0.56250(17)
N4 N -0.9154(2) 0.94987(16) 0.82388(15)
N5 N 0.2758(2) -0.12736(19) 0.08900(18)
C1 C 0.2993(2) 0.2444(2) 0.05188(18)
H1 H 0.3545 0.1762 0.0211
C2 C 0.3853(3) 0.3765(2) 0.0827(2)
H2 H 0.4967 0.3969 0.0736
C3 C 0.3043(3) 0.4790(2) 0.1276(2)
H3 H 0.3588 0.5688 0.1461
C4 C 0.1410(3) 0.44547(19) 0.14447(18)
C5 C 0.0640(3) 0.30935(19) 0.11157(18)
H4 H -0.0457 0.2866 0.1231
C6 C 0.0495(3) 0.54929(19) 0.19821(19)
H5 H 0.0892 0.6371 0.2042
C7 C -0.1781(3) 0.61474(19) 0.28171(18)
C8 C -0.2205(3) 0.6924(2) 0.22318(19)
H6 H -0.1748 0.6917 0.1560
C9 C -0.3324(3) 0.7736(2) 0.2637(2)
H7 H -0.3623 0.8245 0.2219
C10 C -0.3979(3) 0.7785(2) 0.36348(19)
H8 H -0.4728 0.8321 0.3886
C11 C -0.3532(2) 0.70325(19) 0.42913(18)
C12 C -0.2415(2) 0.61960(19) 0.38821(18)
C13 C -0.1924(3) 0.5460(2) 0.45463(19)
H9 H -0.1216 0.4895 0.4269
C14 C -0.2484(3) 0.5578(2) 0.5587(2)
H10 H -0.2117 0.5120 0.6035
C15 C -0.3608(3) 0.6379(2) 0.5994(2)
H11 H -0.3994 0.6430 0.6700
C16 C -0.4146(3) 0.7088(2) 0.53696(19)
C17 C -0.5779(3) 0.8207(2) 0.6684(2)
H12 H -0.5043 0.8237 0.7346
C18 C -1.0175(3) 0.9503(2) 0.7291(2)
H13 H -1.1169 0.9769 0.7422
C19 C -0.9839(3) 0.9137(2) 0.6130(2)
H14 H -1.0576 0.9177 0.5506
C20 C -0.8400(3) 0.8714(2) 0.5913(2)
H15 H -0.8158 0.8445 0.5136
C21 C -0.7306(3) 0.86905(19) 0.68702(19)
C22 C -0.7732(3) 0.91050(19) 0.8017(2)
H16 H -0.6991 0.9109 0.8663
Co1_2 Co -1.0000 1.0000 1.0000
Co1_3 Co 1.0000 -1.0000 -1.0000
O1A O -0.23163(18) 0.02985(14) -0.07096(14)
O2A O -0.3831(3) 0.1717(3) -0.0420(3)
O3A O -0.2037(4) 0.1780(3) -0.1471(3)
N1_2 N 1.1389(2) -0.79078(15) -0.93576(15)
N1A N -0.1389(2) -0.20922(15) -0.06424(15)
N2_2 N 0.9170(2) -0.48097(16) -0.76382(15)
N3_2 N 0.4544(2) -0.22530(18) -0.43750(17)
N4_2 N 0.0846(2) -0.05013(16) -0.17612(15)
N4A N -0.0846(2) 0.05013(16) 0.17612(15)
N5A N -0.2758(2) 0.12736(19) -0.08900(18)
C1_2 C 1.2993(2) -0.7556(2) -0.94812(18)
H1_2 H 1.3545 -0.8238 -0.9789
C2_2 C 1.3853(3) -0.6235(2) -0.9173(2)
H2_2 H 1.4967 -0.6031 -0.9264
C3_2 C 1.3043(3) -0.5210(2) -0.8724(2)
H3_2 H 1.3588 -0.4312 -0.8539
C4_2 C 1.1410(3) -0.55453(19) -0.85553(18)
C5_2 C 1.0640(3) -0.69065(19) -0.88843(18)
H4_2 H 0.9543 -0.7134 -0.8769
C6_2 C 1.0495(3) -0.45071(19) -0.80179(19)
H5_2 H 1.0892 -0.3629 -0.7958
C7_2 C 0.8219(3) -0.38526(19) -0.71829(18)
C8_2 C 0.7795(3) -0.3076(2) -0.77682(19)
H6_2 H 0.8252 -0.3083 -0.8440
C9_2 C 0.6676(3) -0.2264(2) -0.7363(2)
H7_2 H 0.6377 -0.1755 -0.7781
C10_2 C 0.6021(3) -0.2215(2) -0.63652(19)
H8_2 H 0.5272 -0.1679 -0.6114
C11_2 C 0.6468(2) -0.29675(19) -0.57087(18)
C12_2 C 0.7585(2) -0.38040(19) -0.61179(18)
C13_2 C 0.8076(3) -0.4540(2) -0.54537(19)
H9_2 H 0.8784 -0.5105 -0.5731
C14_2 C 0.7516(3) -0.4422(2) -0.4413(2)
H10_2 H 0.7883 -0.4880 -0.3965
C15_2 C 0.6392(3) -0.3621(2) -0.4006(2)
H11_2 H 0.6006 -0.3570 -0.3300
C16_2 C 0.5854(3) -0.2912(2) -0.46304(19)
C17_2 C 0.4221(3) -0.1793(2) -0.3316(2)
H12_2 H 0.4957 -0.1763 -0.2654
C18_2 C -0.0175(3) -0.0497(2) -0.2709(2)
H13_2 H -0.1169 -0.0231 -0.2578
C19_2 C 0.0161(3) -0.0863(2) -0.3870(2)
H14_2 H -0.0576 -0.0823 -0.4494
C20_2 C 0.1600(3) -0.1286(2) -0.4087(2)
H15_2 H 0.1842 -0.1555 -0.4864
C21_2 C 0.2694(3) -0.13095(19) -0.31298(19)
C22_2 C 0.2268(3) -0.08950(19) -0.1983(2)
H16_2 H 0.3009 -0.0891 -0.1337
loop_
_geom_bond_atom_site_label_1
_geom_bond_atom_site_label_2
_geom_bond_site_symmetry_1
_geom_bond_site_symmetry_2
Co1 O1 1_555 1_555
O1 N5 1_555 1_555
O2 N5 1_555 1_555
O3 N5 1_555 1_555
N1 Co1 1_555 1_555
N2 C6 1_555 1_555
N3 C16 1_555 1_555
N4 C18 1_555 1_555
C1 N1 1_555 1_555
H1 C1 1_555 1_555
C2 C1 1_555 1_555
H2 C2 1_555 1_555
C3 C2 1_555 1_555
H3 C3 1_555 1_555
C4 C3 1_555 1_555
C5 N1 1_555 1_555
H4 C5 1_555 1_555
C6 C4 1_555 1_555
H5 C6 1_555 1_555
C7 N2 1_555 1_555
C8 C7 1_555 1_555
H6 C8 1_555 1_555
C9 C8 1_555 1_555
H7 C9 1_555 1_555
C10 C9 1_555 1_555
H8 C10 1_555 1_555
C11 C10 1_555 1_555
C12 C7 1_555 1_555
C13 C12 1_555 1_555
H9 C13 1_555 1_555
C14 C13 1_555 1_555
H10 C14 1_555 1_555
C15 C14 1_555 1_555
H11 C15 1_555 1_555
C16 C11 1_555 1_555
C17 N3 1_555 1_555
H12 C17 1_555 1_555
C18 H13 1_555 1_555
C19 C18 1_555 1_555
H14 C19 1_555 1_555
C20 C19 1_555 1_555
H15 C20 1_555 1_555
C21 C17 1_555 1_555
C22 N4 1_555 1_555
H16 C22 1_555 1_555
Co1_2 N4 1_555 1_555
Co1_3 N1_2 1_555 1_555
O1A Co1 1_555 1_555
O2A N5A 1_555 1_555
O3A N5A 1_555 1_555
N1_2 C1_2 1_555 1_555
N1A Co1 1_555 1_555
N2_2 C6_2 1_555 1_555
N3_2 C16_2 1_555 1_555
N4_2 Co1 1_555 1_555
N4A Co1 1_555 1_555
N5A O1A 1_555 1_555
C1_2 H1_2 1_555 1_555
C2_2 C1_2 1_555 1_555
H2_2 C2_2 1_555 1_555
C3_2 C2_2 1_555 1_555
H3_2 C3_2 1_555 1_555
C4_2 C3_2 1_555 1_555
C5_2 N1_2 1_555 1_555
H4_2 C5_2 1_555 1_555
C6_2 C4_2 1_555 1_555
H5_2 C6_2 1_555 1_555
C7_2 N2_2 1_555 1_555
C8_2 C7_2 1_555 1_555
H6_2 C8_2 1_555 1_555
C9_2 C8_2 1_555 1_555
H7_2 C9_2 1_555 1_555
C10_2 C9_2 1_555 1_555
H8_2 C10_2 1_555 1_555
C11_2 C10_2 1_555 1_555
C12_2 C7_2 1_555 1_555
C13_2 C12_2 1_555 1_555
H9_2 C13_2 1_555 1_555
C14_2 C13_2 1_555 1_555
H10_2 C14_2 1_555 1_555
C15_2 C14_2 1_555 1_555
H11_2 C15_2 1_555 1_555
C16_2 C11_2 1_555 1_555
C17_2 N3_2 1_555 1_555
H12_2 C17_2 1_555 1_555
C18_2 N4_2 1_555 1_555
H13_2 C18_2 1_555 1_555
C19_2 C18_2 1_555 1_555
H14_2 C19_2 1_555 1_555
C20_2 C19_2 1_555 1_555
H15_2 C20_2 1_555 1_555
C21_2 C17_2 1_555 1_555
C22_2 N4_2 1_555 1_555
H16_2 C22_2 1_555 1_555
C4 C5 1_555 1_555
C11 C12 1_555 1_555
C15 C16 1_555 1_555
C20 C21 1_555 1_555
C21 C22 1_555 1_555
C4_2 C5_2 1_555 1_555
C11_2 C12_2 1_555 1_555
C15_2 C16_2 1_555 1_555
C20_2 C21_2 1_555 1_555
C21_2 C22_2 1_555 1_555

#END
