
#######################################################################
#
#                 Cambridge Crystallographic Data Centre
#                                CCDC 
#
#######################################################################
#
# If this CIF has been generated from an entry in the Cambridge 
# Structural Database, then it will include bibliographic, chemical, 
# crystal, experimental, refinement or atomic coordinate data resulting 
# from the CCDC's data processing and validation procedures.
#
#######################################################################

data_SUNNEV
_symmetry_cell_setting           orthorhombic
_symmetry_space_group_name_H-M   'P b c a'
_symmetry_Int_Tables_number      61
_space_group_name_Hall           '-P 2ac 2ab'
loop_
_symmetry_equiv_pos_site_id
_symmetry_equiv_pos_as_xyz
1 x,y,z
2 1/2-x,-y,1/2+z
3 -x,1/2+y,1/2-z
4 1/2+x,1/2-y,-z
5 -x,-y,-z
6 1/2+x,y,1/2-z
7 x,1/2-y,1/2+z
8 1/2-x,1/2+y,z
_cell_length_a                   16.108(2)
_cell_length_b                   9.363(1)
_cell_length_c                   18.88(1)
_cell_angle_alpha                90
_cell_angle_beta                 90
_cell_angle_gamma                90
_cell_volume                     2847.47
loop_
_atom_site_label
_atom_site_type_symbol
_atom_site_fract_x
_atom_site_fract_y
_atom_site_fract_z
Cu1 Cu 0.12419(5) 0.56390(10) 0.06454(5)
O1 O 0.4218(3) 1.0118(6) 0.1602(3)
O2 O 0.4100(4) 0.8493(7) 0.2468(3)
N1 N 0.2186(4) 0.7185(7) 0.0945(3)
N2 N 0.2418(4) 0.8267(7) 0.0527(3)
N3 N 0.3040(4) 0.8958(6) 0.0828(3)
N4 N 0.0301(3) 0.6994(7) 0.0456(3)
N5 N 0.1357(3) 0.5805(7) -0.0416(3)
C1 C 0.2669(4) 0.7215(8) 0.1525(4)
H3 H 0.2644 0.6580 0.1903
C2 C 0.3205(4) 0.8340(8) 0.1465(4)
C3 C 0.3894(5) 0.9001(9) 0.1886(4)
C4 C -0.0231(5) 0.7493(9) 0.0937(4)
H4 H -0.0175 0.7195 0.1404
C5 C -0.0865(5) 0.8439(9) 0.0769(5)
H5 H -0.1223 0.8773 0.1118
C6 C -0.0950(5) 0.8863(9) 0.0093(5)
H6 H -0.1381 0.9474 -0.0032
C7 C -0.0392(5) 0.8387(9) -0.0426(4)
H7 H -0.0438 0.8701 -0.0892
C8 C 0.0234(4) 0.7429(8) -0.0231(4)
C9 C 0.0866(4) 0.6809(9) -0.0718(4)
C10 C 0.0951(5) 0.7209(11) -0.1421(4)
H8 H 0.0622 0.7929 -0.1610
C11 C 0.1537(6) 0.6515(12) -0.1839(5)
H9 H 0.1592 0.6742 -0.2316
C12 C 0.2031(5) 0.5495(11) -0.1538(5)
H10 H 0.2429 0.5028 -0.1810
C13 C 0.1940(5) 0.5157(10) -0.0830(4)
H11 H 0.2285 0.4469 -0.0631
Cu1G Cu 0.37581(5) 1.06390(10) 0.06454(5)
O1G O 0.0782(3) 0.5118(6) 0.1602(3)
N3G N 0.1960(4) 0.3958(6) 0.0828(3)
O3 O 0.4485(4) 0.9617(7) 0.7076(3)
H1 H 0.4477 0.8776 0.7246
H2 H 0.4876 1.0039 0.7294
loop_
_geom_bond_atom_site_label_1
_geom_bond_atom_site_label_2
_geom_bond_site_symmetry_1
_geom_bond_site_symmetry_2
Cu1 N1 1_555 1_555
O1 C3 1_555 1_555
O2 C3 1_555 1_555
O3 H1 1_555 1_555
H2 O3 1_555 1_555
N1 N2 1_555 1_555
N2 N3 1_555 1_555
N3 C2 1_555 1_555
N4 Cu1 1_555 1_555
N5 Cu1 1_555 1_555
C1 N1 1_555 1_555
H3 C1 1_555 1_555
C2 C1 1_555 1_555
C3 C2 1_555 1_555
C4 N4 1_555 1_555
H4 C4 1_555 1_555
C5 C4 1_555 1_555
H5 C5 1_555 1_555
C6 C5 1_555 1_555
H6 C6 1_555 1_555
C7 C6 1_555 1_555
H7 C7 1_555 1_555
C8 N4 1_555 1_555
C9 N5 1_555 1_555
C10 C9 1_555 1_555
H8 C10 1_555 1_555
C11 C10 1_555 1_555
H9 C11 1_555 1_555
C12 C11 1_555 1_555
H10 C12 1_555 1_555
C13 N5 1_555 1_555
H11 C13 1_555 1_555
Cu1G O1 1_555 1_555
O1G Cu1 1_555 1_555
N3G Cu1 1_555 1_555
N3 Cu1G 1_555 1_555
C7 C8 1_555 1_555
C8 C9 1_555 1_555
C12 C13 1_555 1_555

#END
