
#######################################################################
#
#                 Cambridge Crystallographic Data Centre
#                                CCDC 
#
#######################################################################
#
# If this CIF has been generated from an entry in the Cambridge 
# Structural Database, then it will include bibliographic, chemical, 
# crystal, experimental, refinement or atomic coordinate data resulting 
# from the CCDC's data processing and validation procedures.
#
#######################################################################

data_SUNPUN
_symmetry_cell_setting           triclinic
_symmetry_space_group_name_H-M   'P -1'
_symmetry_Int_Tables_number      2
_space_group_name_Hall           '-P 1'
loop_
_symmetry_equiv_pos_site_id
_symmetry_equiv_pos_as_xyz
1 x,y,z
2 -x,-y,-z
_cell_length_a                   9.0701(12)
_cell_length_b                   9.0958(12)
_cell_length_c                   11.7418(16)
_cell_angle_alpha                76.6230(10)
_cell_angle_beta                 77.199(2)
_cell_angle_gamma                87.876(2)
_cell_volume                     918.888
loop_
_atom_site_label
_atom_site_type_symbol
_atom_site_fract_x
_atom_site_fract_y
_atom_site_fract_z
Cd1 Cd 0.5000 0.5000 0.5000
S1 S 0.7256(2) 0.99106(15) 0.50651(14)
O1 O 0.3360(3) 0.1322(3) 1.1492(2)
O2 O -0.1044(3) -0.3597(3) 0.9743(2)
N1 N 0.5420(3) 0.4043(3) 0.7011(2)
N2 N 0.3599(3) 0.1103(3) 0.9559(2)
H1 H 0.3373 0.0518 0.9141
N3 N 0.1516(3) -0.1125(3) 1.0270(2)
N4 N 0.1211(3) -0.2568(3) 0.8596(3)
H2 H 0.1981 -0.2045 0.8596
N5 N 0.2686(3) -0.3981(3) 0.5899(3)
N6 N 0.6345(3) 0.7237(4) 0.4911(3)
C1 C 0.6238(4) 0.4791(4) 0.7531(3)
H3 H 0.6801 0.5637 0.7060
C2 C 0.6280(4) 0.4362(4) 0.8725(3)
H4 H 0.6880 0.4895 0.9043
C3 C 0.5419(4) 0.3127(4) 0.9451(3)
H5 H 0.5422 0.2822 1.0263
C4 C 0.4547(4) 0.2354(4) 0.8929(3)
C5 C 0.4605(4) 0.2842(4) 0.7707(3)
H6 H 0.4049 0.2306 0.7356
C6 C 0.3002(4) 0.0726(4) 1.0757(3)
C7 C 0.1803(4) -0.0499(4) 1.1132(3)
C8 C 0.1034(4) -0.0911(4) 1.2321(3)
H7 H 0.1281 -0.0471 1.2896
C9 C -0.0110(5) -0.1993(5) 1.2631(3)
H8 H -0.0658 -0.2281 1.3419
C10 C -0.0427(4) -0.2643(4) 1.1747(3)
H9 H -0.1188 -0.3372 1.1931
C11 C 0.0421(4) -0.2172(4) 1.0585(3)
C12 C 0.0109(4) -0.2860(4) 0.9602(3)
C13 C 0.1197(4) -0.3056(4) 0.7540(3)
C14 C -0.0073(4) -0.2990(4) 0.7053(3)
H10 H -0.0998 -0.2676 0.7440
C15 C 0.0086(4) -0.3406(5) 0.5973(3)
H11 H -0.0738 -0.3365 0.5616
C16 C 0.1462(4) -0.3880(4) 0.5427(3)
H12 H 0.1546 -0.4142 0.4696
C17 C 0.2537(4) -0.3567(4) 0.6936(3)
H13 H 0.3379 -0.3624 0.7273
C18 C 0.6635(5) 0.8175(7) 0.4988(3)
Cd1_2 Cd 0.5000 -0.5000 0.5000
Cd1_3 Cd 0.5000 1.5000 0.5000
S1A S 0.2744(2) 0.00894(15) 0.49349(14)
O1A O 0.6640(3) 0.8678(3) -0.1492(2)
O2A O 1.1044(3) 1.3597(3) 0.0257(2)
N1A N 0.4580(3) 0.5957(3) 0.2989(2)
N2A N 0.6401(3) 0.8897(3) 0.0441(2)
H1A H 0.6627 0.9482 0.0859
N3A N 0.8484(3) 1.1125(3) -0.0270(2)
N4A N 0.8789(3) 1.2568(3) 0.1404(3)
H2A H 0.8019 1.2045 0.1404
N5A N 0.7314(3) 1.3981(3) 0.4101(3)
N5_2 N 0.2686(3) 0.6019(3) 0.5899(3)
N5A_2 N 0.7314(3) 0.3981(3) 0.4101(3)
N6A N 0.3655(3) 0.2763(4) 0.5089(3)
C1A C 0.3762(4) 0.5209(4) 0.2469(3)
H3A H 0.3199 0.4363 0.2940
C2A C 0.3720(4) 0.5638(4) 0.1275(3)
H4A H 0.3120 0.5105 0.0957
C3A C 0.4581(4) 0.6873(4) 0.0549(3)
H5A H 0.4578 0.7178 -0.0263
C4A C 0.5453(4) 0.7646(4) 0.1071(3)
C5A C 0.5395(4) 0.7158(4) 0.2293(3)
H6A H 0.5951 0.7694 0.2644
C6A C 0.6998(4) 0.9274(4) -0.0757(3)
C7A C 0.8197(4) 1.0499(4) -0.1132(3)
C8A C 0.8966(4) 1.0911(4) -0.2321(3)
H7A H 0.8719 1.0471 -0.2896
C9A C 1.0110(5) 1.1993(5) -0.2631(3)
H8A H 1.0658 1.2281 -0.3419
C10A C 1.0427(4) 1.2643(4) -0.1747(3)
H9A H 1.1188 1.3372 -0.1931
C11A C 0.9579(4) 1.2172(4) -0.0585(3)
C12A C 0.9891(4) 1.2860(4) 0.0398(3)
C13A C 0.8803(4) 1.3056(4) 0.2460(3)
C14A C 1.0073(4) 1.2990(4) 0.2947(3)
H10A H 1.0998 1.2676 0.2560
C15A C 0.9914(4) 1.3406(5) 0.4027(3)
H11A H 1.0738 1.3365 0.4384
C16A C 0.8538(4) 1.3880(4) 0.4573(3)
H12A H 0.8454 1.4142 0.5304
C17A C 0.7463(4) 1.3567(4) 0.3064(3)
H13A H 0.6621 1.3624 0.2727
C18A C 0.3365(5) 0.1825(7) 0.5012(3)
O3 O 0.3958(3) -0.0680(4) 0.7582(3)
H14 H 0.390(5) -0.030(6) 0.6882(18)
H15 H 0.486(2) -0.076(6) 0.764(4)
loop_
_geom_bond_atom_site_label_1
_geom_bond_atom_site_label_2
_geom_bond_site_symmetry_1
_geom_bond_site_symmetry_2
Cd1 N1 1_555 1_555
S1 C18 1_555 1_555
O1 C6 1_555 1_555
O2 C12 1_555 1_555
N1 C1 1_555 1_555
N2 H1 1_555 1_555
N3 C7 1_555 1_555
N4 H2 1_555 1_555
N5 C16 1_555 1_555
N6 Cd1 1_555 1_555
C1 H3 1_555 1_555
C2 C1 1_555 1_555
H4 C2 1_555 1_555
C3 C2 1_555 1_555
H5 C3 1_555 1_555
C4 N2 1_555 1_555
C5 N1 1_555 1_555
H6 C5 1_555 1_555
C6 N2 1_555 1_555
C7 C6 1_555 1_555
C8 C7 1_555 1_555
H7 C8 1_555 1_555
C9 C8 1_555 1_555
H8 C9 1_555 1_555
C10 C9 1_555 1_555
H9 C10 1_555 1_555
C11 N3 1_555 1_555
C12 N4 1_555 1_555
C13 N4 1_555 1_555
C14 C13 1_555 1_555
H10 C14 1_555 1_555
C15 C14 1_555 1_555
H11 C15 1_555 1_555
C16 C15 1_555 1_555
H12 C16 1_555 1_555
C17 N5 1_555 1_555
H13 C17 1_555 1_555
C18 N6 1_555 1_555
O3 H14 1_555 1_555
H15 O3 1_555 1_555
Cd1_2 N5 1_555 1_555
Cd1_3 N5A 1_555 1_555
S1A C18A 1_555 1_555
O1A C6A 1_555 1_555
O2A C12A 1_555 1_555
N1A Cd1 1_555 1_555
N2A H1A 1_555 1_555
N3A C7A 1_555 1_555
N4A H2A 1_555 1_555
N5A C16A 1_555 1_555
N5_2 Cd1 1_555 1_555
N5A_2 Cd1 1_555 1_555
N6A Cd1 1_555 1_555
C1A N1A 1_555 1_555
H3A C1A 1_555 1_555
C2A C1A 1_555 1_555
H4A C2A 1_555 1_555
C3A C2A 1_555 1_555
H5A C3A 1_555 1_555
C4A N2A 1_555 1_555
C5A N1A 1_555 1_555
H6A C5A 1_555 1_555
C6A N2A 1_555 1_555
C7A C6A 1_555 1_555
C8A C7A 1_555 1_555
H7A C8A 1_555 1_555
C9A C8A 1_555 1_555
H8A C9A 1_555 1_555
C10A C9A 1_555 1_555
H9A C10A 1_555 1_555
C11A N3A 1_555 1_555
C12A N4A 1_555 1_555
C13A N4A 1_555 1_555
C14A C13A 1_555 1_555
H10A C14A 1_555 1_555
C15A C14A 1_555 1_555
H11A C15A 1_555 1_555
C16A C15A 1_555 1_555
H12A C16A 1_555 1_555
C17A N5A 1_555 1_555
H13A C17A 1_555 1_555
C18A N6A 1_555 1_555
C3 C4 1_555 1_555
C4 C5 1_555 1_555
C10 C11 1_555 1_555
C11 C12 1_555 1_555
C13 C17 1_555 1_555
C3A C4A 1_555 1_555
C4A C5A 1_555 1_555
C10A C11A 1_555 1_555
C11A C12A 1_555 1_555
C13A C17A 1_555 1_555

#END
