
#######################################################################
#
#                 Cambridge Crystallographic Data Centre
#                                CCDC 
#
#######################################################################
#
# If this CIF has been generated from an entry in the Cambridge 
# Structural Database, then it will include bibliographic, chemical, 
# crystal, experimental, refinement or atomic coordinate data resulting 
# from the CCDC's data processing and validation procedures.
#
#######################################################################

data_SUNPOH
_symmetry_cell_setting           triclinic
_symmetry_space_group_name_H-M   'P -1'
_symmetry_Int_Tables_number      2
_space_group_name_Hall           '-P 1'
loop_
_symmetry_equiv_pos_site_id
_symmetry_equiv_pos_as_xyz
1 x,y,z
2 -x,-y,-z
_cell_length_a                   9.023(3)
_cell_length_b                   9.025(3)
_cell_length_c                   11.703(4)
_cell_angle_alpha                76.622(4)
_cell_angle_beta                 76.509(4)
_cell_angle_gamma                87.568(4)
_cell_volume                     901.495
loop_
_atom_site_label
_atom_site_type_symbol
_atom_site_fract_x
_atom_site_fract_y
_atom_site_fract_z
Zn1 Zn 0.0000 0.0000 1.0000
S1 S 0.22497(14) 0.47443(12) 1.00638(10)
O1 O 0.1648(3) 0.3635(3) 0.3550(2)
O2 O 0.6015(3) 0.8607(3) 0.5295(2)
N1 N -0.0409(3) 0.0894(3) 0.8080(3)
N2 N 0.1394(3) 0.3868(3) 0.5492(2)
H1 H 0.1617 0.4460 0.5909
N3 N 0.3458(3) 0.6114(3) 0.4765(2)
N4 N 0.3728(3) 0.7588(4) 0.6449(3)
H2 H 0.2952 0.7070 0.6444
N5 N 0.2195(3) 0.9019(3) 0.9163(3)
N6 N 0.1148(4) 0.1981(3) 0.9905(3)
C1 C -0.1234(4) 0.0138(4) 0.7571(3)
H3 H -0.1800 -0.0712 0.8051
C2 C -0.1279(4) 0.0564(4) 0.6377(3)
H4 H -0.1876 0.0017 0.6066
C3 C -0.0422(4) 0.1823(4) 0.5629(3)
H5 H -0.0431 0.2127 0.4815
C4 C 0.0437(4) 0.2597(4) 0.6138(3)
C5 C 0.0394(4) 0.2117(4) 0.7362(3)
H6 H 0.0950 0.2671 0.7701
C6 C 0.1992(4) 0.4247(4) 0.4290(3)
C7 C 0.3183(4) 0.5494(4) 0.3903(3)
C8 C 0.3973(5) 0.5920(5) 0.2705(3)
H7 H 0.3743 0.5475 0.2124
C9 C 0.5106(5) 0.7017(5) 0.2392(3)
H8 H 0.5660 0.7317 0.1598
C10 C 0.5405(5) 0.7663(4) 0.3278(3)
H9 H 0.6165 0.8404 0.3090
C11 C 0.4554(4) 0.7190(4) 0.4447(3)
C12 C 0.4854(4) 0.7876(4) 0.5438(3)
C13 C 0.3723(4) 0.8071(4) 0.7516(3)
C14 C 0.4980(4) 0.8002(4) 0.8004(3)
H10 H 0.5915 0.7681 0.7614
C15 C 0.4813(5) 0.8424(5) 0.9087(3)
H11 H 0.5636 0.8378 0.9446
C16 C 0.3415(4) 0.8912(4) 0.9631(3)
H12 H 0.3320 0.9181 1.0365
C17 C 0.2355(4) 0.8582(4) 0.8123(3)
H13 H 0.1509 0.8622 0.7790
C18 C 0.1580(4) 0.3130(4) 0.9986(3)
Zn1_2 Zn 0.0000 1.0000 1.0000
Zn1_3 Zn 0.0000 -1.0000 1.0000
S1A S -0.22497(14) -0.47443(12) 0.99362(10)
O1A O -0.1648(3) -0.3635(3) 1.6450(2)
O2A O -0.6015(3) -0.8607(3) 1.4705(2)
N1A N 0.0409(3) -0.0894(3) 1.1920(3)
N2A N -0.1394(3) -0.3868(3) 1.4508(2)
H1A H -0.1617 -0.4460 1.4091
N3A N -0.3458(3) -0.6114(3) 1.5235(2)
N4A N -0.3728(3) -0.7588(4) 1.3551(3)
H2A H -0.2952 -0.7070 1.3556
N5A N -0.2195(3) -0.9019(3) 1.0837(3)
N5_2 N 0.2195(3) -0.0981(3) 0.9163(3)
N5A_2 N -0.2195(3) 0.0981(3) 1.0837(3)
N6A N -0.1148(4) -0.1981(3) 1.0095(3)
C1A C 0.1234(4) -0.0138(4) 1.2429(3)
H3A H 0.1800 0.0712 1.1949
C2A C 0.1279(4) -0.0564(4) 1.3623(3)
H4A H 0.1876 -0.0017 1.3934
C3A C 0.0422(4) -0.1823(4) 1.4371(3)
H5A H 0.0431 -0.2127 1.5185
C4A C -0.0437(4) -0.2597(4) 1.3862(3)
C5A C -0.0394(4) -0.2117(4) 1.2638(3)
H6A H -0.0950 -0.2671 1.2299
C6A C -0.1992(4) -0.4247(4) 1.5710(3)
C7A C -0.3183(4) -0.5494(4) 1.6097(3)
C8A C -0.3973(5) -0.5920(5) 1.7295(3)
H7A H -0.3743 -0.5475 1.7876
C9A C -0.5106(5) -0.7017(5) 1.7608(3)
H8A H -0.5660 -0.7317 1.8402
C10A C -0.5405(5) -0.7663(4) 1.6722(3)
H9A H -0.6165 -0.8404 1.6910
C11A C -0.4554(4) -0.7190(4) 1.5553(3)
C12A C -0.4854(4) -0.7876(4) 1.4562(3)
C13A C -0.3723(4) -0.8071(4) 1.2484(3)
C14A C -0.4980(4) -0.8002(4) 1.1996(3)
H10A H -0.5915 -0.7681 1.2386
C15A C -0.4813(5) -0.8424(5) 1.0913(3)
H11A H -0.5636 -0.8378 1.0554
C16A C -0.3415(4) -0.8912(4) 1.0369(3)
H12A H -0.3320 -0.9181 0.9635
C17A C -0.2355(4) -0.8582(4) 1.1877(3)
H13A H -0.1509 -0.8622 1.2210
C18A C -0.1580(4) -0.3130(4) 1.0014(3)
O3 O 0.0971(4) 0.5710(4) 0.7420(3)
H14 H 0.098(5) 0.551(7) 0.8152(14)
H15 H 0.008(2) 0.578(6) 0.734(3)
loop_
_geom_bond_atom_site_label_1
_geom_bond_atom_site_label_2
_geom_bond_site_symmetry_1
_geom_bond_site_symmetry_2
Zn1 N1 1_555 1_555
S1 C18 1_555 1_555
O1 C6 1_555 1_555
O2 C12 1_555 1_555
N1 C1 1_555 1_555
N2 H1 1_555 1_555
N3 C7 1_555 1_555
N4 H2 1_555 1_555
N5 C16 1_555 1_555
N6 Zn1 1_555 1_555
C1 H3 1_555 1_555
C2 C1 1_555 1_555
H4 C2 1_555 1_555
C3 C2 1_555 1_555
H5 C3 1_555 1_555
C4 N2 1_555 1_555
C5 N1 1_555 1_555
H6 C5 1_555 1_555
C6 N2 1_555 1_555
C7 C6 1_555 1_555
C8 C7 1_555 1_555
H7 C8 1_555 1_555
C9 C8 1_555 1_555
H8 C9 1_555 1_555
C10 C9 1_555 1_555
H9 C10 1_555 1_555
C11 N3 1_555 1_555
C12 N4 1_555 1_555
C13 N4 1_555 1_555
C14 C13 1_555 1_555
H10 C14 1_555 1_555
C15 C14 1_555 1_555
H11 C15 1_555 1_555
C16 C15 1_555 1_555
H12 C16 1_555 1_555
C17 N5 1_555 1_555
H13 C17 1_555 1_555
C18 N6 1_555 1_555
O3 H14 1_555 1_555
H15 O3 1_555 1_555
Zn1_2 N5 1_555 1_555
Zn1_3 N5A 1_555 1_555
S1A C18A 1_555 1_555
O1A C6A 1_555 1_555
O2A C12A 1_555 1_555
N1A Zn1 1_555 1_555
N2A H1A 1_555 1_555
N3A C7A 1_555 1_555
N4A H2A 1_555 1_555
N5A C16A 1_555 1_555
N5_2 Zn1 1_555 1_555
N5A_2 Zn1 1_555 1_555
N6A Zn1 1_555 1_555
C1A N1A 1_555 1_555
H3A C1A 1_555 1_555
C2A C1A 1_555 1_555
H4A C2A 1_555 1_555
C3A C2A 1_555 1_555
H5A C3A 1_555 1_555
C4A N2A 1_555 1_555
C5A N1A 1_555 1_555
H6A C5A 1_555 1_555
C6A N2A 1_555 1_555
C7A C6A 1_555 1_555
C8A C7A 1_555 1_555
H7A C8A 1_555 1_555
C9A C8A 1_555 1_555
H8A C9A 1_555 1_555
C10A C9A 1_555 1_555
H9A C10A 1_555 1_555
C11A N3A 1_555 1_555
C12A N4A 1_555 1_555
C13A N4A 1_555 1_555
C14A C13A 1_555 1_555
H10A C14A 1_555 1_555
C15A C14A 1_555 1_555
H11A C15A 1_555 1_555
C16A C15A 1_555 1_555
H12A C16A 1_555 1_555
C17A N5A 1_555 1_555
H13A C17A 1_555 1_555
C18A N6A 1_555 1_555
C3 C4 1_555 1_555
C4 C5 1_555 1_555
C10 C11 1_555 1_555
C11 C12 1_555 1_555
C13 C17 1_555 1_555
C3A C4A 1_555 1_555
C4A C5A 1_555 1_555
C10A C11A 1_555 1_555
C11A C12A 1_555 1_555
C13A C17A 1_555 1_555

#END
