
#######################################################################
#
#                 Cambridge Crystallographic Data Centre
#                                CCDC 
#
#######################################################################
#
# If this CIF has been generated from an entry in the Cambridge 
# Structural Database, then it will include bibliographic, chemical, 
# crystal, experimental, refinement or atomic coordinate data resulting 
# from the CCDC's data processing and validation procedures.
#
#######################################################################

data_SUNVUU
_symmetry_cell_setting           orthorhombic
_symmetry_space_group_name_H-M   'F d d d'
_symmetry_Int_Tables_number      70
_space_group_name_Hall           '-F 2uv 2vw'
loop_
_symmetry_equiv_pos_site_id
_symmetry_equiv_pos_as_xyz
1 x,y,z
2 3/4-x,3/4-y,z
3 3/4-x,y,3/4-z
4 x,3/4-y,3/4-z
5 x,1/2+y,1/2+z
6 3/4-x,1/4-y,1/2+z
7 3/4-x,1/2+y,1/4-z
8 x,1/4-y,1/4-z
9 1/2+x,y,1/2+z
10 1/4-x,3/4-y,1/2+z
11 1/4-x,y,1/4-z
12 1/2+x,3/4-y,1/4-z
13 1/2+x,1/2+y,z
14 1/4-x,1/4-y,z
15 1/4-x,1/2+y,3/4-z
16 1/2+x,1/4-y,3/4-z
17 -x,-y,-z
18 1/4+x,1/4+y,-z
19 1/4+x,-y,1/4+z
20 -x,1/4+y,1/4+z
21 -x,1/2-y,1/2-z
22 1/4+x,3/4+y,1/2-z
23 1/4+x,1/2-y,3/4+z
24 -x,3/4+y,3/4+z
25 1/2-x,-y,1/2-z
26 3/4+x,1/4+y,1/2-z
27 3/4+x,-y,3/4+z
28 1/2-x,1/4+y,3/4+z
29 1/2-x,1/2-y,-z
30 3/4+x,3/4+y,-z
31 3/4+x,1/2-y,1/4+z
32 1/2-x,3/4+y,1/4+z
_cell_length_a                   32.8519(12)
_cell_length_b                   44.1088(12)
_cell_length_c                   46.1720(13)
_cell_angle_alpha                90
_cell_angle_beta                 90
_cell_angle_gamma                90
_cell_volume                     66905.9
loop_
_atom_site_label
_atom_site_type_symbol
_atom_site_fract_x
_atom_site_fract_y
_atom_site_fract_z
U1 U 0.27632(2) 0.72033(2) 0.58074(2)
U2 U 0.25364(2) 0.70642(2) 0.91893(2)
O1 O 0.2369(2) 0.74789(14) 0.57674(14)
O2 O 0.31500(19) 0.69245(14) 0.58466(12)
O3 O 0.20932(18) 0.72790(13) 0.92655(12)
O4 O 0.29789(17) 0.68476(12) 0.91104(12)
O5 O 0.25005(19) 0.70617(13) 0.62836(12)
O6 O 0.2981(2) 0.73983(14) 0.62880(12)
O7 O 0.26465(19) 0.73690(12) 0.87475(12)
O8 O 0.23017(18) 0.69497(13) 0.86960(11)
O9 O 0.3247(3) 0.76161(16) 0.57784(13)
O10 O 0.3102(2) 0.73889(14) 0.53631(13)
O11 O 0.50221(19) 0.94434(13) 0.46278(12)
O12 O 0.47646(18) 0.92915(13) 0.42145(11)
O13 O 0.2130(2) 0.65935(13) 0.91725(12)
O14 O 0.23843(19) 0.67225(13) 0.95906(12)
O15 O 0.03507(19) 0.47383(12) 1.03483(12)
O16 O 0.04653(18) 0.50073(12) 1.07371(11)
C1 C 0.2743(3) 0.7226(2) 0.64215(17)
C2 C 0.2746(3) 0.72152(19) 0.67386(19)
C3 C 0.3041(3) 0.7362(2) 0.69072(19)
H1 H 0.3244 0.7479 0.6813
C4 C 0.3045(3) 0.7342(2) 0.72030(19)
H2 H 0.3254 0.7439 0.7310
C5 C 0.2739(3) 0.7179(2) 0.73498(19)
C6 C 0.2467(3) 0.7022(2) 0.7184(2)
H3 H 0.2273 0.6896 0.7279
C7 C 0.2462(3) 0.7037(2) 0.68861(19)
H4 H 0.2265 0.6926 0.6780
C8 C 0.2702(3) 0.71740(19) 0.76663(19)
C9 C 0.2816(3) 0.7422(2) 0.78396(19)
H5 H 0.2947 0.7591 0.7752
C10 C 0.2742(3) 0.74252(18) 0.81336(17)
H6 H 0.2826 0.7594 0.8247
C11 C 0.2545(3) 0.7181(2) 0.82661(17)
C12 C 0.2437(3) 0.6935(2) 0.80987(17)
H7 H 0.2302 0.6768 0.8187
C13 C 0.2519(3) 0.6926(2) 0.78066(19)
H8 H 0.2452 0.6750 0.7698
C14 C 0.2495(3) 0.71702(19) 0.85826(17)
C15 C 0.3287(3) 0.7597(2) 0.5501(2)
C16 C 0.3523(3) 0.7833(2) 0.53496(19)
C17 C 0.3598(3) 0.7816(2) 0.50524(19)
H9 H 0.3487 0.7652 0.4944
C18 C 0.3830(3) 0.8031(2) 0.4914(2)
H10 H 0.3897 0.8008 0.4715
C19 C 0.3969(3) 0.82913(17) 0.50710(17)
C20 C 0.3882(3) 0.83019(19) 0.53631(19)
H11 H 0.3975 0.8472 0.5471
C21 C 0.3667(3) 0.8079(2) 0.5506(2)
H12 H 0.3618 0.8094 0.5708
C22 C 0.4192(2) 0.85291(17) 0.49186(17)
C23 C 0.4175(3) 0.85637(18) 0.46219(18)
H13 H 0.4027 0.8420 0.4511
C24 C 0.4366(2) 0.87997(18) 0.44810(18)
H14 H 0.4346 0.8817 0.4276
C25 C 0.4585(2) 0.90110(17) 0.46374(18)
C26 C 0.4617(3) 0.89811(17) 0.49356(18)
H15 H 0.4774 0.9122 0.5043
C27 C 0.4422(2) 0.87473(18) 0.50770(18)
H16 H 0.4441 0.8731 0.5282
C28 C 0.4796(3) 0.92646(19) 0.44893(19)
C29 C 0.2165(3) 0.65476(18) 0.94385(18)
C30 C 0.1964(3) 0.62794(18) 0.95803(17)
C31 C 0.2082(17) 0.6175(12) 0.9851(9)
H17 H 0.2313 0.6259 0.9950
C32 C 0.1859(12) 0.5943(10) 0.9966(8)
H18 H 0.1925 0.5885 1.0161
C33 C 0.1444(14) 0.5875(8) 0.9561(8)
H19 H 0.1283 0.5734 0.9451
C34 C 0.1637(15) 0.6125(8) 0.9411(7)
H20 H 0.1582 0.6171 0.9212
C35 C 0.1543(3) 0.58117(18) 0.98541(18)
C36 C 0.1291(3) 0.55783(17) 1.00029(16)
C37 C 0.1302(3) 0.5555(2) 1.0301(2)
H21 H 0.1484 0.5682 1.0405
C38 C 0.1059(4) 0.5356(2) 1.0455(2)
H22 H 0.1073 0.5349 1.0660
C39 C 0.0792(3) 0.51629(18) 1.03059(19)
C40 C 0.0793(3) 0.5173(2) 1.00018(18)
H23 H 0.0626 0.5038 0.9895
C41 C 0.1037(3) 0.5382(2) 0.98570(18)
H24 H 0.1029 0.5389 0.9651
C42 C 0.0521(3) 0.49615(17) 1.04685(17)
U1Q U 0.52632(2) 0.97033(2) 0.41926(2)
U2CA U 0.00364(2) 0.45642(2) 1.08107(2)
O11CA O 0.25221(19) 0.69434(13) 0.53722(12)
O12CA O 0.22646(18) 0.67915(13) 0.57855(11)
O15Q O 0.28507(19) 0.72383(12) 0.96517(12)
O16Q O 0.29653(18) 0.75073(12) 0.92629(11)
Ni1 Ni 0.62917(3) 0.87502(2) 0.25378(2)
N1 N 0.5954(2) 0.88785(15) 0.29035(15)
N2 N 0.6684(2) 0.90671(15) 0.27202(15)
N3 N 0.5842(2) 0.84809(15) 0.23415(15)
N4 N 0.6069(2) 0.90462(15) 0.22224(16)
N5 N 0.6520(2) 0.83666(15) 0.27550(16)
N6 N 0.6710(2) 0.85933(15) 0.22276(15)
C43 C 0.5602(3) 0.87707(19) 0.2999(2)
H25 H 0.5451 0.8639 0.2876
C44 C 0.5441(3) 0.8841(2) 0.3270(2)
H26 H 0.5192 0.8754 0.3332
C45 C 0.5646(3) 0.9038(2) 0.3446(2)
H27 H 0.5540 0.9091 0.3630
C46 C 0.6020(3) 0.9160(2) 0.33478(19)
C47 C 0.6251(3) 0.9377(2) 0.3513(2)
H28 H 0.6149 0.9444 0.3695
C48 C 0.6603(3) 0.9486(2) 0.3417(2)
H29 H 0.6752 0.9626 0.3533
C49 C 0.6764(3) 0.93949(19) 0.3139(2)
C50 C 0.6548(3) 0.91833(19) 0.29794(19)
C51 C 0.6163(3) 0.90710(17) 0.30785(18)
C52 C 0.7144(3) 0.9495(2) 0.3021(2)
H30 H 0.7305 0.9639 0.3122
C53 C 0.7270(3) 0.9385(2) 0.2771(2)
H31 H 0.7521 0.9453 0.2693
C54 C 0.7038(3) 0.9171(2) 0.2619(2)
H32 H 0.7137 0.9097 0.2439
C55 C 0.5704(3) 0.82018(18) 0.2408(2)
H33 H 0.5791 0.8115 0.2586
C56 C 0.5449(3) 0.8033(2) 0.2237(2)
H34 H 0.5362 0.7837 0.2295
C57 C 0.5323(3) 0.8154(2) 0.1980(2)
H35 H 0.5144 0.8043 0.1859
C58 C 0.5459(3) 0.8444(2) 0.1893(2)
C59 C 0.5356(4) 0.8581(2) 0.1624(2)
H36 H 0.5185 0.8477 0.1491
C60 C 0.5503(4) 0.8861(2) 0.1558(2)
H37 H 0.5438 0.8946 0.1375
C61 C 0.5745(3) 0.9026(2) 0.17468(19)
C62 C 0.5841(3) 0.88990(19) 0.20239(19)
C63 C 0.5706(3) 0.85984(19) 0.20901(18)
C64 C 0.5900(3) 0.9317(2) 0.1690(2)
H38 H 0.5858 0.9408 0.1506
C65 C 0.6113(3) 0.9469(2) 0.1902(2)
H39 H 0.6201 0.9671 0.1870
C66 C 0.6195(3) 0.93294(19) 0.2154(2)
H40 H 0.6353 0.9437 0.2293
C67 C 0.6454(3) 0.8270(2) 0.3022(2)
H41 H 0.6321 0.8400 0.3155
C68 C 0.6571(3) 0.7988(2) 0.3111(2)
H42 H 0.6534 0.7934 0.3309
C69 C 0.6735(3) 0.7787(2) 0.2932(2)
H43 H 0.6785 0.7583 0.2990
C70 C 0.6833(3) 0.7889(2) 0.2652(2)
C71 C 0.7033(5) 0.7707(3) 0.2442(3)
H44 H 0.7088 0.7500 0.2485
C72 C 0.7145(4) 0.7817(3) 0.2188(3)
H45 H 0.7283 0.7689 0.2054
C73 C 0.7062(4) 0.8135(3) 0.2105(2)
C74 C 0.6830(3) 0.8311(2) 0.2289(2)
C75 C 0.6727(3) 0.8184(2) 0.2571(2)
C76 C 0.7173(3) 0.8269(3) 0.1849(3)
H46 H 0.7338 0.8153 0.1721
C77 C 0.7071(3) 0.8543(2) 0.1765(2)
H47 H 0.7143 0.8627 0.1583
C78 C 0.6831(3) 0.8706(2) 0.1986(2)
H48 H 0.6761 0.8911 0.1947
O17 O 0.4385(4) 0.9067(3) 0.3672(3)
O18 O 0.1845(7) 0.6418(5) 0.8482(5)
O19 O 0.2973(6) 0.8332(4) 0.6222(4)
O20 O 0.4001(7) 0.7583(5) 0.6106(5)
O21 O 0.3827(7) 0.8371(5) 0.6224(5)
O22 O 0.3348(8) 0.7841(5) 0.8717(6)
O23 O 0.3851(9) 0.7599(7) 0.4175(6)
O24 O 0.4292(10) 0.7424(7) 0.3981(7)
C79? C 0.1916(8) 0.6290(6) 0.9883(5)
H49? H 0.2051 0.6430 0.9988
C80? C 0.1704(8) 0.6058(5) 1.0014(3)
H50? H 0.1715 0.6039 1.0204
C81? C 0.1625(10) 0.5796(6) 0.9562(5)
H51? H 0.1453 0.5695 0.9462
C82? C 0.1826(9) 0.6044(6) 0.9437(4)
H52? H 0.1815 0.6059 0.9234
O25? O 0.3636(5) 0.8133(3) 0.6284(3)
O26? O 0.3136(8) 0.8095(6) 0.6274(5)
O27? O 0.3796(7) 0.7825(5) 0.6325(5)
O28? O 0.2721(8) 0.8074(6) 0.6263(5)
loop_
_geom_bond_atom_site_label_1
_geom_bond_atom_site_label_2
_geom_bond_site_symmetry_1
_geom_bond_site_symmetry_2
U1 O1 1_555 1_555
U2 O3 1_555 1_555
O2 U1 1_555 1_555
O4 U2 1_555 1_555
O5 U1 1_555 1_555
O6 U1 1_555 1_555
O7 U2 1_555 1_555
O8 U2 1_555 1_555
O9 U1 1_555 1_555
O10 U1 1_555 1_555
O11 C28 1_555 1_555
O12 C28 1_555 1_555
O13 U2 1_555 1_555
O14 U2 1_555 1_555
O15 C42 1_555 1_555
O16 C42 1_555 1_555
C1 O5 1_555 1_555
C2 C1 1_555 1_555
C3 C2 1_555 1_555
H1 C3 1_555 1_555
C4 C3 1_555 1_555
H2 C4 1_555 1_555
C5 C4 1_555 1_555
C6 C5 1_555 1_555
H3 C6 1_555 1_555
C7 C2 1_555 1_555
H4 C7 1_555 1_555
C8 C5 1_555 1_555
C9 C8 1_555 1_555
H5 C9 1_555 1_555
C10 C9 1_555 1_555
H6 C10 1_555 1_555
C11 C10 1_555 1_555
C12 C11 1_555 1_555
H7 C12 1_555 1_555
C13 C8 1_555 1_555
H8 C13 1_555 1_555
C14 O7 1_555 1_555
C15 O9 1_555 1_555
C16 C15 1_555 1_555
C17 C16 1_555 1_555
H9 C17 1_555 1_555
C18 C17 1_555 1_555
H10 C18 1_555 1_555
C19 C18 1_555 1_555
C20 C19 1_555 1_555
H11 C20 1_555 1_555
C21 C16 1_555 1_555
H12 C21 1_555 1_555
C22 C19 1_555 1_555
C23 C22 1_555 1_555
H13 C23 1_555 1_555
C24 C23 1_555 1_555
H14 C24 1_555 1_555
C25 C24 1_555 1_555
C26 C25 1_555 1_555
H15 C26 1_555 1_555
C27 C22 1_555 1_555
H16 C27 1_555 1_555
C28 C25 1_555 1_555
C29 O13 1_555 1_555
C30 C29 1_555 1_555
C31 C30 1_555 1_555
H17 C31 1_555 1_555
C32 C31 1_555 1_555
H18 C32 1_555 1_555
C33 H19 1_555 1_555
C34 C30 1_555 1_555
H20 C34 1_555 1_555
C35 C32 1_555 1_555
C36 C35 1_555 1_555
C37 C36 1_555 1_555
H21 C37 1_555 1_555
C38 C37 1_555 1_555
H22 C38 1_555 1_555
C39 C38 1_555 1_555
C40 C39 1_555 1_555
H23 C40 1_555 1_555
C41 C36 1_555 1_555
H24 C41 1_555 1_555
C42 C39 1_555 1_555
Ni1 N1 1_555 1_555
N1 C43 1_555 1_555
N2 Ni1 1_555 1_555
N3 Ni1 1_555 1_555
N4 Ni1 1_555 1_555
N5 Ni1 1_555 1_555
N6 Ni1 1_555 1_555
C43 H25 1_555 1_555
C44 C43 1_555 1_555
H26 C44 1_555 1_555
C45 C44 1_555 1_555
H27 C45 1_555 1_555
C46 C45 1_555 1_555
C47 C46 1_555 1_555
H28 C47 1_555 1_555
C48 C47 1_555 1_555
H29 C48 1_555 1_555
C49 C48 1_555 1_555
C50 N2 1_555 1_555
C51 N1 1_555 1_555
C52 C49 1_555 1_555
H30 C52 1_555 1_555
C53 C52 1_555 1_555
H31 C53 1_555 1_555
C54 N2 1_555 1_555
H32 C54 1_555 1_555
C55 N3 1_555 1_555
H33 C55 1_555 1_555
C56 C55 1_555 1_555
H34 C56 1_555 1_555
C57 C56 1_555 1_555
H35 C57 1_555 1_555
C58 C57 1_555 1_555
C59 C58 1_555 1_555
H36 C59 1_555 1_555
C60 C59 1_555 1_555
H37 C60 1_555 1_555
C61 C60 1_555 1_555
C62 N4 1_555 1_555
C63 N3 1_555 1_555
C64 C61 1_555 1_555
H38 C64 1_555 1_555
C65 C64 1_555 1_555
H39 C65 1_555 1_555
C66 N4 1_555 1_555
H40 C66 1_555 1_555
C67 N5 1_555 1_555
H41 C67 1_555 1_555
C68 C67 1_555 1_555
H42 C68 1_555 1_555
C69 C68 1_555 1_555
H43 C69 1_555 1_555
C70 C69 1_555 1_555
C71 C70 1_555 1_555
H44 C71 1_555 1_555
C72 C71 1_555 1_555
H45 C72 1_555 1_555
C73 C72 1_555 1_555
C74 N6 1_555 1_555
C75 N5 1_555 1_555
C76 C73 1_555 1_555
H46 C76 1_555 1_555
C77 C76 1_555 1_555
H47 C77 1_555 1_555
C78 N6 1_555 1_555
H48 C78 1_555 1_555
U1Q O11 1_555 1_555
U2CA O15 1_555 1_555
O11CA U1 1_555 1_555
O12CA U1 1_555 1_555
O15Q U2 1_555 1_555
O16Q U2 1_555 1_555
O6 C1 1_555 1_555
O8 C14 1_555 1_555
O10 C15 1_555 1_555
O12 U1Q 1_555 1_555
O14 C29 1_555 1_555
O16 U2CA 1_555 1_555
C6 C7 1_555 1_555
C11 C14 1_555 1_555
C12 C13 1_555 1_555
C20 C21 1_555 1_555
C26 C27 1_555 1_555
C33 C34 1_555 1_555
C33 C35 1_555 1_555
C40 C41 1_555 1_555
C46 C51 1_555 1_555
C49 C50 1_555 1_555
C50 C51 1_555 1_555
C53 C54 1_555 1_555
C58 C63 1_555 1_555
C61 C62 1_555 1_555
C62 C63 1_555 1_555
C65 C66 1_555 1_555
C70 C75 1_555 1_555
C73 C74 1_555 1_555
C74 C75 1_555 1_555
C77 C78 1_555 1_555

#END
