
#######################################################################
#
#                 Cambridge Crystallographic Data Centre
#                                CCDC 
#
#######################################################################
#
# If this CIF has been generated from an entry in the Cambridge 
# Structural Database, then it will include bibliographic, chemical, 
# crystal, experimental, refinement or atomic coordinate data resulting 
# from the CCDC's data processing and validation procedures.
#
#######################################################################

data_SUNVEE
_symmetry_cell_setting           triclinic
_symmetry_space_group_name_H-M   'P -1'
_symmetry_Int_Tables_number      2
_space_group_name_Hall           '-P 1'
loop_
_symmetry_equiv_pos_site_id
_symmetry_equiv_pos_as_xyz
1 x,y,z
2 -x,-y,-z
_cell_length_a                   14.0825(7)
_cell_length_b                   16.3562(11)
_cell_length_c                   18.4268(12)
_cell_angle_alpha                84.655(3)
_cell_angle_beta                 78.198(4)
_cell_angle_gamma                68.953(3)
_cell_volume                     3876.56
loop_
_atom_site_label
_atom_site_type_symbol
_atom_site_fract_x
_atom_site_fract_y
_atom_site_fract_z
U1 U -0.07768(2) 1.17991(2) 0.80617(2)
U2 U -1.20945(2) 1.40599(2) 1.26388(2)
U3 U 0.31256(2) 0.90506(2) 0.78313(2)
U4 U 1.45009(2) 0.68113(2) 0.33640(2)
O1 O -0.1029(3) 1.1216(2) 0.7404(2)
O2 O -0.0538(3) 1.2380(2) 0.8714(2)
O3 O -1.2269(3) 1.3537(2) 1.19049(19)
O4 O -1.1891(3) 1.4585(2) 1.3353(2)
O5 O 0.3070(3) 0.8421(2) 0.7123(2)
O6 O 0.3223(3) 0.9660(2) 0.8542(2)
O7 O 1.4327(3) 0.6286(2) 0.26310(19)
O8 O 1.4657(3) 0.7331(2) 0.4104(2)
O9 O -0.2617(3) 1.2716(2) 0.8350(2)
O10 O -0.2119(3) 1.1483(2) 0.8982(2)
O11 O -1.0229(3) 1.3175(2) 1.2370(2)
O12 O -1.0714(3) 1.4430(2) 1.1766(2)
O13 O 0.0080(3) 1.0478(2) 0.8616(2)
O14 O 0.1412(3) 0.9257(2) 0.8326(2)
O15 O -0.2922(3) 0.5409(2) 1.21146(19)
O16 O -0.3779(3) 0.6613(2) 1.2792(2)
O17 O 0.0870(3) 1.1479(2) 0.7338(2)
O18 O 0.2322(3) 1.0334(2) 0.7202(2)
O19 O 0.6200(3) 1.4240(2) 0.3184(2)
O20 O 0.5240(3) 1.5422(2) 0.38542(19)
O21 O 0.4511(3) 0.9384(2) 0.6966(2)
O22 O 0.5030(3) 0.8273(2) 0.7722(2)
O23 O 1.2645(3) 0.7738(2) 0.3620(2)
O24 O 1.3106(3) 0.6469(2) 0.4206(2)
O25 O -0.0988(3) 1.3054(2) 0.7261(2)
O26 O -1.1915(3) 1.2811(2) 1.3405(2)
O27 O 0.3311(3) 0.7816(2) 0.86398(19)
O28 O 1.4363(3) 0.8084(2) 0.2583(2)
N1 N -0.0672(5) 1.4337(3) 0.7188(3)
N2 N -1.1762(5) 1.1538(3) 1.4047(3)
N3 N 0.3531(4) 0.6489(3) 0.9232(3)
N4 N 1.4153(4) 0.9240(3) 0.1787(3)
C1 C -0.2827(5) 1.2189(4) 0.8855(3)
C2 C -0.3890(4) 1.2414(4) 0.9306(3)
C3 C -0.4694(4) 1.3127(3) 0.9118(3)
H1 H -0.4575 1.3471 0.8688
C4 C -0.5671(4) 1.3343(3) 0.9549(3)
H2 H -0.6218 1.3832 0.9406
C5 C -0.5874(4) 1.2865(3) 1.0186(3)
C6 C -0.5049(5) 1.2145(4) 1.0378(3)
H3 H -0.5166 1.1811 1.0815
C7 C -0.4066(5) 1.1910(4) 0.9940(3)
H4 H -0.3519 1.1413 1.0071
C8 C -0.6915(4) 1.3082(4) 1.0637(3)
C9 C -0.7581(5) 1.3967(4) 1.0725(3)
H5 H -0.7341 1.4423 1.0509
C10 C -0.8577(5) 1.4171(4) 1.1123(3)
H6 H -0.9022 1.4766 1.1168
C11 C -0.8940(4) 1.3500(3) 1.1462(3)
C12 C -0.8286(5) 1.2639(3) 1.1384(3)
H7 H -0.8518 1.2183 1.1613
C13 C -0.7291(5) 1.2437(3) 1.0971(3)
H8 H -0.6857 1.1840 1.0915
C14 C -1.0025(5) 1.3714(3) 1.1886(3)
C15 C 0.0530(4) 0.9665(3) 0.8668(3)
C16 C -0.0040(4) 0.9152(3) 0.9172(3)
C17 C -0.0969(5) 0.9556(4) 0.9641(3)
H9 H -0.1280 1.0177 0.9623
C18 C -0.1456(5) 0.9070(3) 1.0138(3)
H10 H -0.2092 0.9358 1.0457
C19 C -0.1007(5) 0.8156(3) 1.0167(3)
C20 C -0.0101(4) 0.7744(3) 0.9678(3)
H11 H 0.0195 0.7123 0.9684
C21 C 0.0379(5) 0.8228(3) 0.9180(3)
H12 H 0.0993 0.7936 0.8843
C22 C -0.1519(4) 0.7645(3) 1.0714(3)
C23 C -0.2123(5) 0.8002(3) 1.1385(3)
H13 H -0.2183 0.8574 1.1503
C24 C -0.2635(5) 0.7550(3) 1.1883(3)
H14 H -0.3060 0.7818 1.2329
C25 C -0.2531(4) 0.6699(3) 1.1735(3)
C26 C -0.1900(4) 0.6316(3) 1.1081(3)
H15 H -0.1802 0.5730 1.0981
C27 C -0.1413(4) 0.6788(3) 1.0578(3)
H16 H -0.0996 0.6523 1.0129
C28 C -0.3117(5) 0.6216(3) 1.2253(3)
C29 C 0.1778(5) 1.1106(3) 0.7031(3)
C30 C 0.2261(5) 1.1580(3) 0.6431(3)
C31 C 0.1653(5) 1.2381(4) 0.6166(3)
H17 H 0.0925 1.2593 0.6336
C32 C 0.2105(5) 1.2869(4) 0.5654(3)
H18 H 0.1682 1.3412 0.5472
C33 C 0.3182(5) 1.2573(3) 0.5399(3)
C34 C 0.3773(5) 1.1757(3) 0.5651(3)
H19 H 0.4498 1.1533 0.5468
C35 C 0.3321(5) 1.1262(3) 0.6165(3)
H20 H 0.3738 1.0708 0.6334
C36 C 0.3692(4) 1.3130(3) 0.4911(3)
C37 C 0.3410(5) 1.4014(3) 0.5066(3)
H21 H 0.2833 1.4280 0.5443
C38 C 0.3981(5) 1.4506(3) 0.4665(3)
H22 H 0.3808 1.5101 0.4785
C39 C 0.4801(4) 1.4133(3) 0.4090(3)
C40 C 0.5043(4) 1.3263(3) 0.3916(3)
H23 H 0.5589 1.3004 0.3518
C41 C 0.4476(5) 1.2773(3) 0.4330(3)
H24 H 0.4638 1.2181 0.4206
C42 C 0.5455(5) 1.4628(3) 0.3682(3)
C43 C 0.5246(5) 0.8741(4) 0.7174(3)
C44 C 0.6322(5) 0.8533(4) 0.6747(3)
C45 C 0.6498(5) 0.8969(4) 0.6076(3)
H25 H 0.5940 0.9415 0.5901
C46 C 0.7485(5) 0.8751(4) 0.5667(3)
H26 H 0.7596 0.9050 0.5208
C47 C 0.8328(4) 0.8104(3) 0.5904(3)
C48 C 0.8138(4) 0.7690(3) 0.6593(3)
H27 H 0.8697 0.7269 0.6787
C49 C 0.7138(4) 0.7894(3) 0.6990(3)
H28 H 0.7015 0.7584 0.7440
C50 C 0.9376(5) 0.7861(3) 0.5447(3)
C51 C 0.9644(5) 0.8428(4) 0.4883(3)
H29 H 0.9137 0.8983 0.4812
C52 C 1.0592(5) 0.8219(4) 0.4435(3)
H30 H 1.0731 0.8613 0.4052
C53 C 1.1344(5) 0.7430(4) 0.4545(3)
C54 C 1.1128(5) 0.6846(3) 0.5097(3)
H31 H 1.1647 0.6298 0.5170
C55 C 1.0151(4) 0.7069(3) 0.5542(3)
H32 H 1.0011 0.6669 0.5919
C56 C 1.2417(5) 0.7197(4) 0.4101(3)
C57 C -0.1291(5) 1.3866(4) 0.7164(3)
C58 C -0.2238(6) 1.4445(4) 0.6933(4)
H33 H -0.2847 1.4346 0.7251
H34 H -0.2232 1.4335 0.6412
C59 C -0.2285(7) 1.5347(4) 0.7005(5)
H35 H -0.2703 1.5589 0.7489
H36 H -0.2590 1.5731 0.6602
C60 C -0.1163(7) 1.5263(4) 0.6950(4)
H37 H -0.0851 1.5374 0.6435
H38 H -0.1101 1.5675 0.7283
C61 C 0.0336(5) 1.3994(4) 0.7413(4)
H39 H 0.0507 1.3369 0.7538
H40 H 0.0315 1.4309 0.7846
H41 H 0.0864 1.4075 0.7004
C62 C -1.1466(6) 1.2018(4) 1.3533(3)
C63 C -1.0411(5) 1.1438(4) 1.3069(3)
H42 H -1.0494 1.1339 1.2568
H43 H -0.9879 1.1713 1.3022
C64 C -1.0133(7) 1.0615(5) 1.3503(4)
H44 H -0.9584 1.0578 1.3777
H45 H -0.9876 1.0108 1.3171
C65 C -1.1130(6) 1.0613(4) 1.4052(4)
H46 H -1.1462 1.0249 1.3873
H47 H -1.0984 1.0403 1.4553
C66 C -1.2762(5) 1.1838(4) 1.4516(4)
H48 H -1.3004 1.2477 1.4550
H49 H -1.2715 1.1570 1.5011
H50 H -1.3251 1.1673 1.4305
C67 C 0.3791(5) 0.7004(3) 0.8693(3)
C68 C 0.4740(5) 0.6478(3) 0.8166(3)
H51 H 0.5268 0.6762 0.8072
H52 H 0.4562 0.6410 0.7687
C69 C 0.5133(5) 0.5586(4) 0.8566(3)
H53 H 0.5697 0.5552 0.8825
H54 H 0.5383 0.5098 0.8215
C70 C 0.4163(5) 0.5566(3) 0.9122(3)
H55 H 0.3793 0.5254 0.8916
H56 H 0.4348 0.5274 0.9594
C71 C 0.2566(5) 0.6749(4) 0.9769(3)
H57 H 0.2283 0.7388 0.9802
H58 H 0.2698 0.6489 1.0256
H59 H 0.2068 0.6543 0.9611
C72 C 1.3855(5) 0.8842(4) 0.2403(3)
C73 C 1.2853(5) 0.9427(4) 0.2801(3)
H60 H 1.2946 0.9662 0.3247
H61 H 1.2362 0.9108 0.2955
C74 C 1.2458(5) 1.0159(4) 0.2252(4)
H62 H 1.2134 1.0732 0.2498
H63 H 1.1946 1.0055 0.2010
C75 C 1.3433(5) 1.0128(4) 0.1689(3)
H64 H 1.3291 1.0228 0.1177
H65 H 1.3710 1.0572 0.1797
C76 C 1.5143(5) 0.8907(4) 0.1309(3)
H66 H 1.5576 0.9236 0.1379
H67 H 1.5048 0.8969 0.0792
H68 H 1.5480 0.8286 0.1430
U2_2 U -0.20945(2) 0.40599(2) 1.26388(2)
U2_3 U 0.79055(2) 1.40599(2) 0.26388(2)
U4_2 U -0.54991(2) 0.68113(2) 1.33640(2)
U4_3 U 0.45009(2) 1.68113(2) 0.33640(2)
O15_2 O -1.2922(3) 1.5409(2) 1.21146(19)
O16_2 O 1.6221(3) 0.6613(2) 0.2792(2)
O19_2 O -1.3800(3) 1.4240(2) 1.3184(2)
O20_2 O 1.5240(3) 0.5422(2) 0.38542(19)
loop_
_geom_bond_atom_site_label_1
_geom_bond_atom_site_label_2
_geom_bond_site_symmetry_1
_geom_bond_site_symmetry_2
U1 O1 1_555 1_555
U2 O3 1_555 1_555
U3 O5 1_555 1_555
U4 O7 1_555 1_555
O2 U1 1_555 1_555
O4 U2 1_555 1_555
O6 U3 1_555 1_555
O8 U4 1_555 1_555
O9 U1 1_555 1_555
O10 U1 1_555 1_555
O11 U2 1_555 1_555
O12 U2 1_555 1_555
O13 U1 1_555 1_555
O14 U3 1_555 1_555
O15 C28 1_555 1_555
O16 C28 1_555 1_555
O17 U1 1_555 1_555
O18 U3 1_555 1_555
O19 C42 1_555 1_555
O20 C42 1_555 1_555
O21 U3 1_555 1_555
O22 U3 1_555 1_555
O23 U4 1_555 1_555
O24 U4 1_555 1_555
O25 U1 1_555 1_555
O26 U2 1_555 1_555
O27 U3 1_555 1_555
O28 U4 1_555 1_555
N1 C57 1_555 1_555
N2 C62 1_555 1_555
N3 C67 1_555 1_555
N4 C72 1_555 1_555
C1 O9 1_555 1_555
C2 C1 1_555 1_555
C3 C2 1_555 1_555
H1 C3 1_555 1_555
C4 C3 1_555 1_555
H2 C4 1_555 1_555
C5 C4 1_555 1_555
C6 C5 1_555 1_555
H3 C6 1_555 1_555
C7 C2 1_555 1_555
H4 C7 1_555 1_555
C8 C5 1_555 1_555
C9 C8 1_555 1_555
H5 C9 1_555 1_555
C10 C9 1_555 1_555
H6 C10 1_555 1_555
C11 C10 1_555 1_555
C12 C11 1_555 1_555
H7 C12 1_555 1_555
C13 C8 1_555 1_555
H8 C13 1_555 1_555
C14 O11 1_555 1_555
C15 O13 1_555 1_555
C16 C15 1_555 1_555
C17 C16 1_555 1_555
H9 C17 1_555 1_555
C18 C17 1_555 1_555
H10 C18 1_555 1_555
C19 C18 1_555 1_555
C20 C19 1_555 1_555
H11 C20 1_555 1_555
C21 C16 1_555 1_555
H12 C21 1_555 1_555
C22 C19 1_555 1_555
C23 C22 1_555 1_555
H13 C23 1_555 1_555
C24 C23 1_555 1_555
H14 C24 1_555 1_555
C25 C24 1_555 1_555
C26 C25 1_555 1_555
H15 C26 1_555 1_555
C27 C22 1_555 1_555
H16 C27 1_555 1_555
C28 C25 1_555 1_555
C29 O17 1_555 1_555
C30 C29 1_555 1_555
C31 C30 1_555 1_555
H17 C31 1_555 1_555
C32 C31 1_555 1_555
H18 C32 1_555 1_555
C33 C32 1_555 1_555
C34 C33 1_555 1_555
H19 C34 1_555 1_555
C35 C30 1_555 1_555
H20 C35 1_555 1_555
C36 C33 1_555 1_555
C37 C36 1_555 1_555
H21 C37 1_555 1_555
C38 C37 1_555 1_555
H22 C38 1_555 1_555
C39 C38 1_555 1_555
C40 C39 1_555 1_555
H23 C40 1_555 1_555
C41 C36 1_555 1_555
H24 C41 1_555 1_555
C42 C39 1_555 1_555
C43 O21 1_555 1_555
C44 C43 1_555 1_555
C45 C44 1_555 1_555
H25 C45 1_555 1_555
C46 C45 1_555 1_555
H26 C46 1_555 1_555
C47 C46 1_555 1_555
C48 C47 1_555 1_555
H27 C48 1_555 1_555
C49 C44 1_555 1_555
H28 C49 1_555 1_555
C50 C47 1_555 1_555
C51 C50 1_555 1_555
H29 C51 1_555 1_555
C52 C51 1_555 1_555
H30 C52 1_555 1_555
C53 C52 1_555 1_555
C54 C53 1_555 1_555
H31 C54 1_555 1_555
C55 C50 1_555 1_555
H32 C55 1_555 1_555
C56 O23 1_555 1_555
C57 O25 1_555 1_555
C58 C57 1_555 1_555
H33 C58 1_555 1_555
H34 C58 1_555 1_555
C59 C58 1_555 1_555
H35 C59 1_555 1_555
H36 C59 1_555 1_555
C60 N1 1_555 1_555
H37 C60 1_555 1_555
H38 C60 1_555 1_555
C61 N1 1_555 1_555
H39 C61 1_555 1_555
H40 C61 1_555 1_555
H41 C61 1_555 1_555
C62 O26 1_555 1_555
C63 C62 1_555 1_555
H42 C63 1_555 1_555
H43 C63 1_555 1_555
C64 C63 1_555 1_555
H44 C64 1_555 1_555
H45 C64 1_555 1_555
C65 N2 1_555 1_555
H46 C65 1_555 1_555
H47 C65 1_555 1_555
C66 N2 1_555 1_555
H48 C66 1_555 1_555
H49 C66 1_555 1_555
H50 C66 1_555 1_555
C67 O27 1_555 1_555
C68 C67 1_555 1_555
H51 C68 1_555 1_555
H52 C68 1_555 1_555
C69 C68 1_555 1_555
H53 C69 1_555 1_555
H54 C69 1_555 1_555
C70 N3 1_555 1_555
H55 C70 1_555 1_555
H56 C70 1_555 1_555
C71 N3 1_555 1_555
H57 C71 1_555 1_555
H58 C71 1_555 1_555
H59 C71 1_555 1_555
C72 O28 1_555 1_555
C73 C72 1_555 1_555
H60 C73 1_555 1_555
H61 C73 1_555 1_555
C74 C73 1_555 1_555
H62 C74 1_555 1_555
H63 C74 1_555 1_555
C75 N4 1_555 1_555
H64 C75 1_555 1_555
H65 C75 1_555 1_555
C76 N4 1_555 1_555
H66 C76 1_555 1_555
H67 C76 1_555 1_555
H68 C76 1_555 1_555
U2_2 O15 1_555 1_555
U2_3 O19 1_555 1_555
U4_2 O16 1_555 1_555
U4_3 O20 1_555 1_555
O15_2 U2 1_555 1_555
O16_2 U4 1_555 1_555
O19_2 U2 1_555 1_555
O20_2 U4 1_555 1_555
O10 C1 1_555 1_555
O12 C14 1_555 1_555
O14 C15 1_555 1_555
O18 C29 1_555 1_555
O22 C43 1_555 1_555
O24 C56 1_555 1_555
C6 C7 1_555 1_555
C11 C14 1_555 1_555
C12 C13 1_555 1_555
C20 C21 1_555 1_555
C26 C27 1_555 1_555
C34 C35 1_555 1_555
C40 C41 1_555 1_555
C48 C49 1_555 1_555
C53 C56 1_555 1_555
C54 C55 1_555 1_555
C59 C60 1_555 1_555
C64 C65 1_555 1_555
C69 C70 1_555 1_555
C74 C75 1_555 1_555

#END
