
#######################################################################
#
#                 Cambridge Crystallographic Data Centre
#                                CCDC 
#
#######################################################################
#
# If this CIF has been generated from an entry in the Cambridge 
# Structural Database, then it will include bibliographic, chemical, 
# crystal, experimental, refinement or atomic coordinate data resulting 
# from the CCDC's data processing and validation procedures.
#
#######################################################################

data_SUNVII
_symmetry_cell_setting           monoclinic
_symmetry_space_group_name_H-M   'C 2'
_symmetry_Int_Tables_number      5
_space_group_name_Hall           'C 2y'
loop_
_symmetry_equiv_pos_site_id
_symmetry_equiv_pos_as_xyz
1 x,y,z
2 -x,y,-z
3 1/2+x,1/2+y,z
4 1/2-x,1/2+y,-z
_cell_length_a                   13.2606(11)
_cell_length_b                   29.6449(19)
_cell_length_c                   8.4799(6)
_cell_angle_alpha                90
_cell_angle_beta                 121.965(5)
_cell_angle_gamma                90
_cell_volume                     2828.07
loop_
_atom_site_label
_atom_site_type_symbol
_atom_site_fract_x
_atom_site_fract_y
_atom_site_fract_z
U1 U 0.0000 0.10778(2) 0.0000
U2 U 0.5000 0.39213(2) -1.0000
O1 O 0.1332(13) 0.1071(8) 0.2179(19)
O2 O 0.3549(13) 0.3904(9) -1.206(2)
O3 O 0.0965(12) 0.1175(5) -0.1843(19)
O4 O 0.0784(16) 0.1775(7) -0.057(2)
O5 O 0.4270(13) 0.3855(6) -0.785(2)
O6 O 0.4481(14) 0.3214(6) -0.911(2)
O7 O 0.0687(18) 0.0387(7) -0.062(3)
O8 O 0.0723(15) -0.0377(7) -0.072(2)
C1 C 0.082(2) 0.1604(8) -0.189(4)
C2 C 0.124(2) 0.1873(7) -0.289(3)
C3 C 0.1542(18) 0.1666(7) -0.397(3)
H1 H 0.1444 0.1349 -0.4158
C4 C 0.1990(18) 0.1916(8) -0.480(3)
H2 H 0.2312 0.1760 -0.5411
C5 C 0.2011(17) 0.2395(6) -0.481(3)
C6 C 0.1547(16) 0.2587(5) -0.389(2)
H3 H 0.1476 0.2906 -0.3905
C7 C 0.1168(17) 0.2331(6) -0.292(3)
H4 H 0.0854 0.2477 -0.2275
C8 C 0.2450(19) 0.2677(7) -0.576(3)
C9 C 0.2488(16) 0.2479(5) -0.729(2)
H5 H 0.2149 0.2191 -0.7762
C10 C 0.3047(16) 0.2726(5) -0.810(2)
H6 H 0.3125 0.2602 -0.9066
C11 C 0.3477(18) 0.3167(7) -0.736(3)
C12 C 0.325(2) 0.3359(8) -0.600(3)
H7 H 0.3394 0.3672 -0.5728
C13 C 0.284(2) 0.3098(9) -0.508(4)
H8 H 0.2829 0.3211 -0.4044
C14 C 0.3994(19) 0.3431(8) -0.828(3)
C15 C 0.0408(9) 0.0008(11) -0.0365(14)
O7A O -0.0687(18) 0.0387(7) 0.062(3)
O8A O -0.0723(15) -0.0377(7) 0.072(2)
C15A C -0.0408(9) 0.0008(11) 0.0365(14)
O1A O -0.1332(13) 0.1071(8) -0.2179(19)
O3A O -0.0965(12) 0.1175(5) 0.1843(19)
O4A O -0.0784(16) 0.1775(7) 0.057(2)
O5A O -0.4270(13) 0.3855(6) 0.785(2)
O6A O -0.4481(14) 0.3214(6) 0.911(2)
C1A C -0.082(2) 0.1604(8) 0.189(4)
C2A C -0.124(2) 0.1873(7) 0.289(3)
C3A C -0.1542(18) 0.1666(7) 0.397(3)
H1A H -0.1444 0.1349 0.4158
C4A C -0.1990(18) 0.1916(8) 0.480(3)
H2A H -0.2312 0.1760 0.5411
C5A C -0.2011(17) 0.2395(6) 0.481(3)
C6A C -0.1547(16) 0.2587(5) 0.389(2)
H3A H -0.1476 0.2906 0.3905
C7A C -0.1168(17) 0.2331(6) 0.292(3)
H4A H -0.0854 0.2477 0.2275
C8A C -0.2450(19) 0.2677(7) 0.576(3)
C9A C -0.2488(16) 0.2479(5) 0.729(2)
H5A H -0.2149 0.2191 0.7762
C10A C -0.3047(16) 0.2726(5) 0.810(2)
H6A H -0.3125 0.2602 0.9066
C11A C -0.3477(18) 0.3167(7) 0.736(3)
C12A C -0.325(2) 0.3359(8) 0.600(3)
H7A H -0.3394 0.3672 0.5728
C13A C -0.284(2) 0.3098(9) 0.508(4)
H8A H -0.2829 0.3211 0.4044
C14A C -0.3994(19) 0.3431(8) 0.828(3)
O2A O 0.6451(13) 0.3904(9) -0.794(2)
U2_2 U -0.5000 0.39213(2) 1.0000
U2B U 0.0000 -0.10787(2) 0.0000
O5A_2 O 0.5730(13) 0.3855(6) -1.215(2)
O6A_2 O 0.5519(14) 0.3214(6) -1.089(2)
O8B O 0.5723(15) 0.4623(7) -1.072(2)
O8C O 0.4277(15) 0.4623(7) -0.928(2)
Ni1 Ni 0.5000 0.0019(2) 0.5000
N1 N 0.456(2) 0.0564(8) 0.308(3)
N2 N 0.6507(10) 0.0018(11) 0.4734(15)
N3 N 0.5620(17) -0.0514(7) 0.682(2)
C16 C 0.3655(15) 0.0840(6) 0.257(2)
H9 H 0.2998 0.0735 0.2629
C17 C 0.3618(16) 0.1278(6) 0.196(2)
H10 H 0.2976 0.1474 0.1674
C18 C 0.4518(17) 0.1415(7) 0.178(3)
H11 H 0.4505 0.1711 0.1341
C19 C 0.5450(17) 0.1138(6) 0.221(3)
H12 H 0.6062 0.1233 0.2026
C20 C 0.5492(14) 0.0698(5) 0.296(2)
C21 C 0.6459(14) 0.0378(5) 0.359(2)
C22 C 0.7292(17) 0.0398(6) 0.302(2)
H13 H 0.7229 0.0626 0.2187
C23 C 0.8200(14) 0.0080(7) 0.371(2)
H14 H 0.8760 0.0084 0.3333
C24 C 0.8270(16) -0.0242(6) 0.495(2)
H15 H 0.8902 -0.0455 0.5487
C25 C 0.7402(14) -0.0248(5) 0.539(2)
H16 H 0.7478 -0.0469 0.6261
C26 C 0.6186(15) -0.0482(6) 0.864(3)
H17 H 0.6445 -0.0191 0.9171
C27 C 0.6447(18) -0.0860(6) 0.989(3)
H18 H 0.6883 -0.0826 1.1201
C28 C 0.601(3) -0.1278(8) 0.902(3)
H19 H 0.6110 -0.1540 0.9737
C29 C 0.543(2) -0.1306(6) 0.712(3)
H20 H 0.5139 -0.1589 0.6521
C30 C 0.5274(16) -0.0922(6) 0.605(2)
N3A N 0.4380(17) -0.0514(7) 0.318(2)
C26A C 0.3814(15) -0.0482(6) 0.136(3)
H17A H 0.3555 -0.0191 0.0829
C27A C 0.3553(18) -0.0860(6) 0.011(3)
H18A H 0.3117 -0.0826 -0.1201
C28A C 0.399(3) -0.1278(8) 0.098(3)
H19A H 0.3890 -0.1540 0.0263
C29A C 0.457(2) -0.1306(6) 0.288(3)
H20A H 0.4861 -0.1589 0.3479
C30A C 0.4726(16) -0.0922(6) 0.395(2)
N1A N 0.544(2) 0.0564(8) 0.692(3)
N2A N 0.3493(10) 0.0018(11) 0.5266(15)
C16A C 0.6345(15) 0.0840(6) 0.743(2)
H9A H 0.7002 0.0735 0.7371
C17A C 0.6382(16) 0.1278(6) 0.804(2)
H10A H 0.7024 0.1474 0.8326
C18A C 0.5482(17) 0.1415(7) 0.822(3)
H11A H 0.5495 0.1711 0.8659
C19A C 0.4550(17) 0.1138(6) 0.779(3)
H12A H 0.3938 0.1233 0.7974
C20A C 0.4508(14) 0.0698(5) 0.704(2)
C21A C 0.3541(14) 0.0378(5) 0.641(2)
C22A C 0.2708(17) 0.0398(6) 0.698(2)
H13A H 0.2771 0.0626 0.7813
C23A C 0.1800(14) 0.0080(7) 0.629(2)
H14A H 0.1240 0.0084 0.6667
C24A C 0.1730(16) -0.0242(6) 0.505(2)
H15A H 0.1098 -0.0455 0.4513
C25A C 0.2598(14) -0.0248(5) 0.461(2)
H16A H 0.2522 -0.0469 0.3739
O9 O 0.0476(14) 0.2718(5) 0.062(2)
loop_
_geom_bond_atom_site_label_1
_geom_bond_atom_site_label_2
_geom_bond_site_symmetry_1
_geom_bond_site_symmetry_2
U1 O1 1_555 1_555
U2 O2 1_555 1_555
O3 U1 1_555 1_555
O4 U1 1_555 1_555
O5 U2 1_555 1_555
O6 U2 1_555 1_555
O7 U1 1_555 1_555
O8 C15 1_555 1_555
C1 O3 1_555 1_555
C2 C1 1_555 1_555
C3 C2 1_555 1_555
H1 C3 1_555 1_555
C4 C3 1_555 1_555
H2 C4 1_555 1_555
C5 C4 1_555 1_555
C6 C5 1_555 1_555
H3 C6 1_555 1_555
C7 C2 1_555 1_555
H4 C7 1_555 1_555
C8 C5 1_555 1_555
C9 C8 1_555 1_555
H5 C9 1_555 1_555
C10 C9 1_555 1_555
H6 C10 1_555 1_555
C11 C10 1_555 1_555
C12 C11 1_555 1_555
H7 C12 1_555 1_555
C13 C8 1_555 1_555
H8 C13 1_555 1_555
C14 O5 1_555 1_555
C15 O7 1_555 1_555
Ni1 N1 1_555 1_555
N1 C16 1_555 1_555
N2 Ni1 1_555 1_555
N3 Ni1 1_555 1_555
C16 H9 1_555 1_555
C17 C16 1_555 1_555
H10 C17 1_555 1_555
C18 C17 1_555 1_555
H11 C18 1_555 1_555
C19 C18 1_555 1_555
H12 C19 1_555 1_555
C20 N1 1_555 1_555
C21 N2 1_555 1_555
C22 C21 1_555 1_555
H13 C22 1_555 1_555
C23 C22 1_555 1_555
H14 C23 1_555 1_555
C24 C23 1_555 1_555
H15 C24 1_555 1_555
C25 N2 1_555 1_555
H16 C25 1_555 1_555
C26 N3 1_555 1_555
H17 C26 1_555 1_555
C27 C26 1_555 1_555
H18 C27 1_555 1_555
C28 C27 1_555 1_555
H19 C28 1_555 1_555
C29 C28 1_555 1_555
H20 C29 1_555 1_555
C30 N3 1_555 1_555
O7A U1 1_555 1_555
O8A C15A 1_555 1_555
C15A C15 1_555 1_555
O1A U1 1_555 1_555
O3A U1 1_555 1_555
O4A U1 1_555 1_555
O5A C14A 1_555 1_555
O6A C14A 1_555 1_555
C1A O3A 1_555 1_555
C2A C1A 1_555 1_555
C3A C2A 1_555 1_555
H1A C3A 1_555 1_555
C4A C3A 1_555 1_555
H2A C4A 1_555 1_555
C5A C4A 1_555 1_555
C6A C5A 1_555 1_555
H3A C6A 1_555 1_555
C7A C2A 1_555 1_555
H4A C7A 1_555 1_555
C8A C5A 1_555 1_555
C9A C8A 1_555 1_555
H5A C9A 1_555 1_555
C10A C9A 1_555 1_555
H6A C10A 1_555 1_555
C11A C10A 1_555 1_555
C12A C11A 1_555 1_555
H7A C12A 1_555 1_555
C13A C8A 1_555 1_555
H8A C13A 1_555 1_555
C14A C11A 1_555 1_555
O2A U2 1_555 1_555
U2_2 O5A 1_555 1_555
U2B O8 1_555 1_555
O5A_2 U2 1_555 1_555
O6A_2 U2 1_555 1_555
O8B U2 1_555 1_555
O8C U2 1_555 1_555
N3A Ni1 1_555 1_555
C26A N3A 1_555 1_555
H17A C26A 1_555 1_555
C27A C26A 1_555 1_555
H18A C27A 1_555 1_555
C28A C27A 1_555 1_555
H19A C28A 1_555 1_555
C29A C28A 1_555 1_555
H20A C29A 1_555 1_555
C30A C30 1_555 1_555
N1A Ni1 1_555 1_555
N2A Ni1 1_555 1_555
C16A N1A 1_555 1_555
H9A C16A 1_555 1_555
C17A C16A 1_555 1_555
H10A C17A 1_555 1_555
C18A C17A 1_555 1_555
H11A C18A 1_555 1_555
C19A C18A 1_555 1_555
H12A C19A 1_555 1_555
C20A N1A 1_555 1_555
C21A N2A 1_555 1_555
C22A C21A 1_555 1_555
H13A C22A 1_555 1_555
C23A C22A 1_555 1_555
H14A C23A 1_555 1_555
C24A C23A 1_555 1_555
H15A C24A 1_555 1_555
C25A N2A 1_555 1_555
H16A C25A 1_555 1_555
O4 C1 1_555 1_555
O6 C14 1_555 1_555
C6 C7 1_555 1_555
C11 C14 1_555 1_555
C12 C13 1_555 1_555
C19 C20 1_555 1_555
C20 C21 1_555 1_555
C24 C25 1_555 1_555
C29 C30 1_555 1_555
O7A C15A 1_555 1_555
O8A U2B 1_555 1_555
O4A C1A 1_555 1_555
O6A U2_2 1_555 1_555
C6A C7A 1_555 1_555
C12A C13A 1_555 1_555
N3A C30A 1_555 1_555
C29A C30A 1_555 1_555
C19A C20A 1_555 1_555
C20A C21A 1_555 1_555
C24A C25A 1_555 1_555

#END
