
#######################################################################
#
#                 Cambridge Crystallographic Data Centre
#                                CCDC 
#
#######################################################################
#
# If this CIF has been generated from an entry in the Cambridge 
# Structural Database, then it will include bibliographic, chemical, 
# crystal, experimental, refinement or atomic coordinate data resulting 
# from the CCDC's data processing and validation procedures.
#
#######################################################################

data_SUPCAJ
_symmetry_cell_setting           triclinic
_symmetry_space_group_name_H-M   'P -1'
_symmetry_Int_Tables_number      2
_space_group_name_Hall           '-P 1'
loop_
_symmetry_equiv_pos_site_id
_symmetry_equiv_pos_as_xyz
1 x,y,z
2 -x,-y,-z
_cell_length_a                   14.2042(6)
_cell_length_b                   16.1861(7)
_cell_length_c                   18.4464(7)
_cell_angle_alpha                70.092(2)
_cell_angle_beta                 72.882(2)
_cell_angle_gamma                81.304(2)
_cell_volume                     3804.8
loop_
_atom_site_label
_atom_site_type_symbol
_atom_site_fract_x
_atom_site_fract_y
_atom_site_fract_z
Cu1 Cu 0.21982(3) 0.81660(3) 0.45018(2)
Cu2 Cu 0.47066(3) 0.44003(3) 0.09480(2)
O1 O 0.13358(14) 0.74965(13) 0.43109(11)
O2 O 0.28536(15) 0.86032(13) 0.33898(12)
O3 O 0.32988(15) 0.45492(12) 0.12037(13)
O4 O 0.48480(14) 0.56470(12) 0.04487(12)
O5 O 0.39037(15) 0.57477(12) 0.91585(12)
O6 O 0.54923(15) 0.68081(13) 0.84561(13)
O7 O 0.13217(15) 0.80098(13) 0.55523(12)
O8 O 0.30179(15) 0.88900(13) 0.46672(12)
O9 O 0.06281(15) 0.85122(13) 0.06120(12)
O10 O 0.21610(15) 1.01279(13) 0.80418(12)
C1 C 0.0698(3) 0.6738(2) 0.3699(2)
H1 H 0.0996 0.6145 0.3892
H2 H 0.0605 0.6834 0.3170
H3 H 0.0058 0.6800 0.4071
C2 C 0.1366(2) 0.74066(18) 0.36434(17)
C3 C 0.1970(2) 0.78638(18) 0.28928(17)
C4 C 0.2662(2) 0.84432(19) 0.28178(17)
C5 C 0.3290(3) 0.8921(2) 0.19998(19)
H4 H 0.3665 0.9354 0.2045
H5 H 0.2863 0.9224 0.1645
H6 H 0.3747 0.8496 0.1779
C6 C 0.1926(2) 0.76824(18) 0.21689(17)
C7 C 0.1286(2) 0.81593(18) 0.17115(17)
H7 H 0.0851 0.8610 0.1869
C8 C 0.1273(2) 0.79860(19) 0.10242(17)
C9 C 0.1893(2) 0.73153(19) 0.07914(18)
H8 H 0.1881 0.7191 0.0327
C10 C 0.2535(2) 0.68274(18) 0.12545(17)
C11 C 0.2552(2) 0.70108(19) 0.19266(17)
H9 H 0.2994 0.6678 0.2232
C12 C 0.4498(2) 0.71716(19) 0.02287(19)
H10 H 0.4439 0.7428 0.0652
H11 H 0.4083 0.7524 -0.0121
H12 H 0.5188 0.7167 -0.0084
C13 C 0.4170(2) 0.62478(18) 0.05946(16)
C14 C 0.3202(2) 0.60861(18) 0.10305(17)
C15 C 0.2798(2) 0.52563(19) 0.12806(17)
C16 C 0.1716(2) 0.5154(2) 0.1674(2)
H13 H 0.1335 0.5573 0.1327
H14 H 0.1552 0.5270 0.2186
H15 H 0.1556 0.4553 0.1765
C17 C 0.2343(2) 0.6364(2) 0.90244(19)
H16 H 0.2119 0.5934 0.9554
H17 H 0.1994 0.6936 0.9019
H18 H 0.2205 0.6165 0.8622
C18 C 0.3428(2) 0.64508(18) 0.88391(17)
C19 C 0.3851(2) 0.72491(18) 0.83348(17)
C20 C 0.4860(2) 0.73775(19) 0.81661(19)
C21 C 0.5273(3) 0.8240(2) 0.7610(2)
H19 H 0.5981 0.8148 0.7379
H20 H 0.4936 0.8474 0.7182
H21 H 0.5171 0.8659 0.7908
C22 C 0.3228(2) 0.79827(19) 0.79221(17)
C23 C 0.2917(2) 0.87186(18) 0.81754(17)
H22 H 0.3052 0.8735 0.8645
C24 C 0.2407(2) 0.94341(18) 0.77454(17)
C25 C 0.2192(2) 0.94094(18) 0.70667(16)
H23 H 0.1842 0.9895 0.6777
C26 C 0.2492(2) 0.86689(19) 0.68099(17)
C27 C 0.3001(2) 0.79661(18) 0.72449(18)
H24 H 0.3200 0.7460 0.7074
C28 C 0.0689(2) 0.7966(2) 0.6898(2)
H25 H 0.0094 0.7832 0.6803
H26 H 0.0539 0.8465 0.7108
H27 H 0.0917 0.7451 0.7286
C29 C 0.1492(2) 0.81984(19) 0.61173(18)
C30 C 0.2326(2) 0.86103(18) 0.60652(17)
C31 C 0.3006(2) 0.89652(18) 0.53387(17)
C32 C 0.3809(3) 0.9514(2) 0.5292(2)
H28 H 0.4185 0.9751 0.4734
H29 H 0.4252 0.9146 0.5609
H30 H 0.3510 1.0001 0.5502
C33 C 0.0602(2) 0.8334(2) -0.00890(18)
H31 H 0.0392 0.7730 0.0057
H32 H 0.1269 0.8376 -0.0462
C34 C -0.0114(3) 0.8993(2) -0.0488(2)
H33 H 0.0136 0.9590 -0.0687
H34 H -0.0761 0.8998 -0.0096
C35 C -0.0236(3) 0.8749(2) -0.11820(19)
H35 H 0.0426 0.8661 -0.1528
H36 H -0.0558 0.8183 -0.0967
C36 C -0.0829(3) 0.9423(3) -0.1682(2)
H37 H -0.0875 0.9222 -0.2115
H38 H -0.0508 0.9983 -0.1910
H39 H -0.1493 0.9504 -0.1350
C37 C 0.1798(2) 1.09339(18) 0.75605(18)
H40 H 0.1152 1.0856 0.7497
H41 H 0.2265 1.1122 0.7024
C38 C 0.1690(2) 1.16176(18) 0.79726(18)
H42 H 0.2334 1.1665 0.8056
H43 H 0.1215 1.1423 0.8504
C39 C 0.1336(3) 1.25170(19) 0.7500(2)
H44 H 0.1840 1.2735 0.6989
H45 H 0.0723 1.2459 0.7374
C40 C 0.1139(3) 1.3185(2) 0.7943(3)
H46 H 0.0902 1.3748 0.7616
H47 H 0.1750 1.3264 0.8050
H48 H 0.0637 1.2976 0.8449
N1 N 0.32957(18) 0.68667(16) 0.47709(15)
C41 C 0.3668(4) 0.6558(3) 0.5387(2)
H49 H 0.3473 0.6849 0.5781
C42 C 0.4329(4) 0.5831(3) 0.5501(3)
H50 H 0.4568 0.5639 0.5965
C43 C 0.4640(2) 0.53913(18) 0.49514(17)
C44 C 0.4250(3) 0.5717(3) 0.4308(2)
H51 H 0.4429 0.5437 0.3906
C45 C 0.3596(3) 0.6449(2) 0.4235(2)
H52 H 0.3352 0.6662 0.3773
N1A N 0.67043(18) 0.31333(16) 0.52291(15)
C41A C 0.6332(4) 0.3442(3) 0.4613(2)
H49A H 0.6527 0.3151 0.4219
C42A C 0.5671(4) 0.4169(3) 0.4499(3)
H50A H 0.5432 0.4361 0.4035
C43A C 0.5360(2) 0.46087(18) 0.50486(17)
C44A C 0.5750(3) 0.4283(3) 0.5692(2)
H51A H 0.5571 0.4563 0.6094
C45A C 0.6404(3) 0.3551(2) 0.5765(2)
H52A H 0.6648 0.3338 0.6227
Cu1A Cu 0.78018(3) 0.18340(3) -0.45018(2)
Cu2A Cu 0.52934(3) 0.55997(3) -0.09480(2)
O1A O 0.86642(14) 0.25035(13) -0.43109(11)
O2A O 0.71464(15) 0.13968(13) -0.33898(12)
O3A O 0.67012(15) 0.54508(12) -0.12037(13)
O4A O 0.51520(14) 0.43530(12) -0.04487(12)
O5A O 0.60963(15) 0.42523(12) -0.91585(12)
O6A O 0.45077(15) 0.31919(13) -0.84561(13)
O7A O 0.86783(15) 0.19902(13) -0.55523(12)
O8A O 0.69821(15) 0.11100(13) -0.46672(12)
O9A O 0.93719(15) 0.14878(13) -0.06120(12)
O10A O 0.78390(15) -0.01279(13) -0.80418(12)
C1A C 0.9302(3) 0.3262(2) -0.3699(2)
H1A H 0.9004 0.3855 -0.3892
H2A H 0.9395 0.3166 -0.3170
H3A H 0.9942 0.3200 -0.4071
C2A C 0.8634(2) 0.25934(18) -0.36434(17)
C3A C 0.8030(2) 0.21362(18) -0.28928(17)
C4A C 0.7338(2) 0.15568(19) -0.28178(17)
C5A C 0.6710(3) 0.1079(2) -0.19998(19)
H4A H 0.6335 0.0646 -0.2045
H5A H 0.7137 0.0776 -0.1645
H6A H 0.6253 0.1504 -0.1779
C6A C 0.8074(2) 0.23176(18) -0.21689(17)
C7A C 0.8714(2) 0.18407(18) -0.17115(17)
H7A H 0.9149 0.1390 -0.1869
C8A C 0.8727(2) 0.20140(19) -0.10242(17)
C9A C 0.8107(2) 0.26847(19) -0.07914(18)
H8A H 0.8119 0.2809 -0.0327
C10A C 0.7465(2) 0.31726(18) -0.12545(17)
C11A C 0.7448(2) 0.29892(19) -0.19266(17)
H9A H 0.7006 0.3322 -0.2232
C12A C 0.5502(2) 0.28284(19) -0.02287(19)
H10A H 0.5561 0.2572 -0.0652
H11A H 0.5917 0.2476 0.0121
H12A H 0.4812 0.2833 0.0084
C13A C 0.5830(2) 0.37522(18) -0.05946(16)
C14A C 0.6798(2) 0.39139(18) -0.10305(17)
C15A C 0.7202(2) 0.47437(19) -0.12806(17)
C16A C 0.8284(2) 0.4846(2) -0.1674(2)
H13A H 0.8665 0.4427 -0.1327
H14A H 0.8448 0.4730 -0.2186
H15A H 0.8444 0.5447 -0.1765
C17A C 0.7657(2) 0.3636(2) -0.90244(19)
H16A H 0.7881 0.4066 -0.9554
H17A H 0.8006 0.3064 -0.9019
H18A H 0.7795 0.3835 -0.8622
C18A C 0.6572(2) 0.35492(18) -0.88391(17)
C19A C 0.6149(2) 0.27509(18) -0.83348(17)
C20A C 0.5140(2) 0.26225(19) -0.81661(19)
C21A C 0.4727(3) 0.1760(2) -0.7610(2)
H19A H 0.4019 0.1852 -0.7379
H20A H 0.5064 0.1526 -0.7182
H21A H 0.4829 0.1341 -0.7908
C22A C 0.6772(2) 0.20173(19) -0.79221(17)
C23A C 0.7083(2) 0.12814(18) -0.81754(17)
H22A H 0.6948 0.1265 -0.8645
C24A C 0.7593(2) 0.05659(18) -0.77454(17)
C25A C 0.7808(2) 0.05906(18) -0.70667(16)
H23A H 0.8158 0.0105 -0.6777
C26A C 0.7508(2) 0.13311(19) -0.68099(17)
C27A C 0.6999(2) 0.20339(18) -0.72449(18)
H24A H 0.6800 0.2540 -0.7074
C28A C 0.9311(2) 0.2034(2) -0.6898(2)
H25A H 0.9906 0.2168 -0.6803
H26A H 0.9461 0.1535 -0.7108
H27A H 0.9083 0.2549 -0.7286
C29A C 0.8508(2) 0.18016(19) -0.61173(18)
C30A C 0.7674(2) 0.13897(18) -0.60652(17)
C31A C 0.6994(2) 0.10348(18) -0.53387(17)
C32A C 0.6191(3) 0.0486(2) -0.5292(2)
H28A H 0.5815 0.0249 -0.4734
H29A H 0.5748 0.0854 -0.5609
H30A H 0.6490 -0.0001 -0.5502
C33A C 0.9398(2) 0.1666(2) 0.00890(18)
H31A H 0.9608 0.2270 -0.0057
H32A H 0.8731 0.1624 0.0462
C34A C 1.0114(3) 0.1007(2) 0.0488(2)
H33A H 0.9864 0.0410 0.0687
H34A H 1.0761 0.1002 0.0096
C35A C 1.0236(3) 0.1251(2) 0.11820(19)
H35A H 0.9574 0.1339 0.1528
H36A H 1.0558 0.1817 0.0967
C36A C 1.0829(3) 0.0577(3) 0.1682(2)
H37A H 1.0875 0.0778 0.2115
H38A H 1.0508 0.0017 0.1910
H39A H 1.1493 0.0496 0.1350
C37A C 0.8202(2) -0.09339(18) -0.75605(18)
H40A H 0.8848 -0.0856 -0.7497
H41A H 0.7735 -0.1122 -0.7024
C38A C 0.8310(2) -0.16176(18) -0.79726(18)
H42A H 0.7666 -0.1665 -0.8056
H43A H 0.8785 -0.1423 -0.8504
C39A C 0.8664(3) -0.25170(19) -0.7500(2)
H44A H 0.8160 -0.2735 -0.6989
H45A H 0.9277 -0.2459 -0.7374
C40A C 0.8861(3) -0.3185(2) -0.7943(3)
H46A H 0.9098 -0.3748 -0.7616
H47A H 0.8250 -0.3264 -0.8050
H48A H 0.9363 -0.2976 -0.8449
Cu1A_2 Cu 0.78018(3) 0.18340(3) 0.54982(2)
Cu2_2 Cu 0.47066(3) 0.44003(3) -0.90520(2)
Cu2A_2 Cu 0.52934(3) 0.55997(3) 0.90520(2)
O5_2 O 0.39037(15) 0.57477(12) -0.08415(12)
O5A_2 O 0.60963(15) 0.42523(12) 0.08415(12)
O6_2 O 0.54923(15) 0.68081(13) -0.15439(13)
O6A_2 O 0.45077(15) 0.31919(13) 0.15439(13)
N1A_2 N 0.67043(18) 0.31333(16) -0.47709(15)
C46 C 0.3546(2) 1.0236(2) 0.9202(2)
H53 H 0.3413 1.0373 0.8669
Cl1 Cl 0.25742(6) 0.96421(6) 0.99276(5)
Cl2 Cl 0.36213(9) 1.12341(6) 0.93501(6)
Cl3 Cl 0.46626(6) 0.95995(6) 0.91914(6)
C47 C 0.5118(3) 0.8472(2) 0.3569(2)
H54 H 0.4385 0.8467 0.3787
Cl4 Cl 0.54542(8) 0.95596(6) 0.30825(6)
Cl5 Cl 0.54864(8) 0.78791(9) 0.28850(9)
Cl6 Cl 0.56703(11) 0.79878(10) 0.43511(8)
C48 C 0.9372(3) 0.8712(3) 0.4768(2)
H55 H 0.9839 0.8272 0.5035
Cl7 Cl 0.86091(12) 0.81732(9) 0.45003(11)
Cl8 Cl 0.86844(13) 0.92899(13) 0.54009(9)
Cl9 Cl 1.00425(9) 0.94459(8) 0.38730(9)
C49 C 0.0882(5) 0.5890(6) 0.5953(4)
H56 H 0.1190 0.6447 0.5577
Cl10 Cl 0.1437(3) 0.5029(3) 0.5564(3)
Cl11 Cl 0.1063(5) 0.57280(17) 0.6900(2)
Cl12 Cl -0.0380(2) 0.6021(3) 0.6021(2)
C50? C 0.0885(11) 0.6021(11) 0.5972(11)
H57? H 0.1196 0.6513 0.5498
Cl13? Cl -0.0357(5) 0.6314(11) 0.6332(11)
Cl14? Cl 0.097(2) 0.5078(7) 0.5693(8)
Cl15? Cl 0.1556(12) 0.5752(5) 0.6692(7)
loop_
_geom_bond_atom_site_label_1
_geom_bond_atom_site_label_2
_geom_bond_site_symmetry_1
_geom_bond_site_symmetry_2
Cu1 O1 1_555 1_555
Cu2 O3 1_555 1_555
O1 C2 1_555 1_555
O2 Cu1 1_555 1_555
O3 C15 1_555 1_555
O4 Cu2 1_555 1_555
O5 C18 1_555 1_555
O6 C20 1_555 1_555
O7 Cu1 1_555 1_555
O8 Cu1 1_555 1_555
O9 C8 1_555 1_555
O10 C24 1_555 1_555
C1 H1 1_555 1_555
H2 C1 1_555 1_555
H3 C1 1_555 1_555
C2 C1 1_555 1_555
C3 C2 1_555 1_555
C4 O2 1_555 1_555
C5 C4 1_555 1_555
H4 C5 1_555 1_555
H5 C5 1_555 1_555
H6 C5 1_555 1_555
C6 C3 1_555 1_555
C7 C6 1_555 1_555
H7 C7 1_555 1_555
C8 C7 1_555 1_555
C9 C8 1_555 1_555
H8 C9 1_555 1_555
C10 C9 1_555 1_555
C11 C6 1_555 1_555
H9 C11 1_555 1_555
C12 H10 1_555 1_555
H11 C12 1_555 1_555
H12 C12 1_555 1_555
C13 O4 1_555 1_555
C14 C10 1_555 1_555
C15 C14 1_555 1_555
C16 C15 1_555 1_555
H13 C16 1_555 1_555
H14 C16 1_555 1_555
H15 C16 1_555 1_555
C17 H16 1_555 1_555
H17 C17 1_555 1_555
H18 C17 1_555 1_555
C18 C17 1_555 1_555
C19 C18 1_555 1_555
C20 C19 1_555 1_555
C21 C20 1_555 1_555
H19 C21 1_555 1_555
H20 C21 1_555 1_555
H21 C21 1_555 1_555
C22 C19 1_555 1_555
C23 C22 1_555 1_555
H22 C23 1_555 1_555
C24 C23 1_555 1_555
C25 C24 1_555 1_555
H23 C25 1_555 1_555
C26 C25 1_555 1_555
C27 C22 1_555 1_555
H24 C27 1_555 1_555
C28 H25 1_555 1_555
H26 C28 1_555 1_555
H27 C28 1_555 1_555
C29 O7 1_555 1_555
C30 C26 1_555 1_555
C31 O8 1_555 1_555
C32 C31 1_555 1_555
H28 C32 1_555 1_555
H29 C32 1_555 1_555
H30 C32 1_555 1_555
C33 O9 1_555 1_555
H31 C33 1_555 1_555
H32 C33 1_555 1_555
C34 C33 1_555 1_555
H33 C34 1_555 1_555
H34 C34 1_555 1_555
C35 C34 1_555 1_555
H35 C35 1_555 1_555
H36 C35 1_555 1_555
C36 C35 1_555 1_555
H37 C36 1_555 1_555
H38 C36 1_555 1_555
H39 C36 1_555 1_555
C37 O10 1_555 1_555
H40 C37 1_555 1_555
H41 C37 1_555 1_555
C38 C37 1_555 1_555
H42 C38 1_555 1_555
H43 C38 1_555 1_555
C39 C38 1_555 1_555
H44 C39 1_555 1_555
H45 C39 1_555 1_555
C40 C39 1_555 1_555
H46 C40 1_555 1_555
H47 C40 1_555 1_555
H48 C40 1_555 1_555
N1 Cu1 1_555 1_555
C41 N1 1_555 1_555
H49 C41 1_555 1_555
C42 C41 1_555 1_555
H50 C42 1_555 1_555
C43 C42 1_555 1_555
C44 C43 1_555 1_555
H51 C44 1_555 1_555
C45 N1 1_555 1_555
H52 C45 1_555 1_555
C46 H53 1_555 1_555
Cl1 C46 1_555 1_555
Cl2 C46 1_555 1_555
Cl3 C46 1_555 1_555
C47 H54 1_555 1_555
Cl4 C47 1_555 1_555
Cl5 C47 1_555 1_555
Cl6 C47 1_555 1_555
C48 H55 1_555 1_555
Cl7 C48 1_555 1_555
Cl8 C48 1_555 1_555
Cl9 C48 1_555 1_555
C49 H56 1_555 1_555
Cl10 C49 1_555 1_555
Cl11 C49 1_555 1_555
Cl12 C49 1_555 1_555
N1A C41A 1_555 1_555
C41A H49A 1_555 1_555
C42A C41A 1_555 1_555
H50A C42A 1_555 1_555
C43A C43 1_555 1_555
C44A C43A 1_555 1_555
H51A C44A 1_555 1_555
C45A N1A 1_555 1_555
H52A C45A 1_555 1_555
Cu1A O1A 1_555 1_555
Cu2A O4 1_555 1_555
O1A C2A 1_555 1_555
O2A Cu1A 1_555 1_555
O3A Cu2A 1_555 1_555
O4A Cu2 1_555 1_555
O5A C18A 1_555 1_555
O6A C20A 1_555 1_555
O7A Cu1A 1_555 1_555
O8A Cu1A 1_555 1_555
O9A C8A 1_555 1_555
O10A C24A 1_555 1_555
C1A H1A 1_555 1_555
H2A C1A 1_555 1_555
H3A C1A 1_555 1_555
C2A C1A 1_555 1_555
C3A C2A 1_555 1_555
C4A O2A 1_555 1_555
C5A C4A 1_555 1_555
H4A C5A 1_555 1_555
H5A C5A 1_555 1_555
H6A C5A 1_555 1_555
C6A C3A 1_555 1_555
C7A C6A 1_555 1_555
H7A C7A 1_555 1_555
C8A C7A 1_555 1_555
C9A C8A 1_555 1_555
H8A C9A 1_555 1_555
C10A C9A 1_555 1_555
C11A C6A 1_555 1_555
H9A C11A 1_555 1_555
C12A H10A 1_555 1_555
H11A C12A 1_555 1_555
H12A C12A 1_555 1_555
C13A O4A 1_555 1_555
C14A C10A 1_555 1_555
C15A O3A 1_555 1_555
C16A C15A 1_555 1_555
H13A C16A 1_555 1_555
H14A C16A 1_555 1_555
H15A C16A 1_555 1_555
C17A H16A 1_555 1_555
H17A C17A 1_555 1_555
H18A C17A 1_555 1_555
C18A C17A 1_555 1_555
C19A C18A 1_555 1_555
C20A C19A 1_555 1_555
C21A C20A 1_555 1_555
H19A C21A 1_555 1_555
H20A C21A 1_555 1_555
H21A C21A 1_555 1_555
C22A C19A 1_555 1_555
C23A C22A 1_555 1_555
H22A C23A 1_555 1_555
C24A C23A 1_555 1_555
C25A C24A 1_555 1_555
H23A C25A 1_555 1_555
C26A C25A 1_555 1_555
C27A C22A 1_555 1_555
H24A C27A 1_555 1_555
C28A H25A 1_555 1_555
H26A C28A 1_555 1_555
H27A C28A 1_555 1_555
C29A O7A 1_555 1_555
C30A C26A 1_555 1_555
C31A O8A 1_555 1_555
C32A C31A 1_555 1_555
H28A C32A 1_555 1_555
H29A C32A 1_555 1_555
H30A C32A 1_555 1_555
C33A O9A 1_555 1_555
H31A C33A 1_555 1_555
H32A C33A 1_555 1_555
C34A C33A 1_555 1_555
H33A C34A 1_555 1_555
H34A C34A 1_555 1_555
C35A C34A 1_555 1_555
H35A C35A 1_555 1_555
H36A C35A 1_555 1_555
C36A C35A 1_555 1_555
H37A C36A 1_555 1_555
H38A C36A 1_555 1_555
H39A C36A 1_555 1_555
C37A O10A 1_555 1_555
H40A C37A 1_555 1_555
H41A C37A 1_555 1_555
C38A C37A 1_555 1_555
H42A C38A 1_555 1_555
H43A C38A 1_555 1_555
C39A C38A 1_555 1_555
H44A C39A 1_555 1_555
H45A C39A 1_555 1_555
C40A C39A 1_555 1_555
H46A C40A 1_555 1_555
H47A C40A 1_555 1_555
H48A C40A 1_555 1_555
Cu1A_2 N1A 1_555 1_555
Cu2_2 O5A 1_555 1_555
Cu2A_2 O5 1_555 1_555
O5_2 Cu2A 1_555 1_555
O5A_2 Cu2 1_555 1_555
O6_2 Cu2A 1_555 1_555
O6A_2 Cu2 1_555 1_555
N1A_2 Cu1A 1_555 1_555
O6 Cu2A_2 1_555 1_555
C3 C4 1_555 1_555
C10 C11 1_555 1_555
C12 C13 1_555 1_555
C13 C14 1_555 1_555
C26 C27 1_555 1_555
C28 C29 1_555 1_555
C29 C30 1_555 1_555
C30 C31 1_555 1_555
C44 C45 1_555 1_555
C42A C43A 1_555 1_555
C44A C45A 1_555 1_555
Cu2A O4A 1_555 1_555
O6A Cu2_2 1_555 1_555
C3A C4A 1_555 1_555
C10A C11A 1_555 1_555
C12A C13A 1_555 1_555
C13A C14A 1_555 1_555
C14A C15A 1_555 1_555
C26A C27A 1_555 1_555
C28A C29A 1_555 1_555
C29A C30A 1_555 1_555
C30A C31A 1_555 1_555

#END
