
#######################################################################
#
#                 Cambridge Crystallographic Data Centre
#                                CCDC 
#
#######################################################################
#
# If this CIF has been generated from an entry in the Cambridge 
# Structural Database, then it will include bibliographic, chemical, 
# crystal, experimental, refinement or atomic coordinate data resulting 
# from the CCDC's data processing and validation procedures.
#
#######################################################################

data_SUPJOD
_symmetry_cell_setting           triclinic
_symmetry_space_group_name_H-M   'P -1'
_symmetry_Int_Tables_number      2
_space_group_name_Hall           '-P 1'
loop_
_symmetry_equiv_pos_site_id
_symmetry_equiv_pos_as_xyz
1 x,y,z
2 -x,-y,-z
_cell_length_a                   7.2018(9)
_cell_length_b                   11.8433(13)
_cell_length_c                   15.2307(16)
_cell_angle_alpha                79.997(3)
_cell_angle_beta                 85.665(4)
_cell_angle_gamma                70.493(3)
_cell_volume                     1205.68
loop_
_atom_site_label
_atom_site_type_symbol
_atom_site_fract_x
_atom_site_fract_y
_atom_site_fract_z
W1 W 0.55434(2) 0.879096(13) 0.266377(9)
Cu1 Cu 1.0000 0.5000 0.5000
Cu2 Cu 1.0000 1.0000 0.5000
Cu3 Cu 1.0000 1.0000 0.0000
O2 O 1.1430(4) 0.5125(2) 0.3867(2)
N1 N 0.8086(7) 0.6278(4) 0.1865(3)
N2 N 0.2608(6) 0.7109(3) 0.3137(2)
N3 N 1.1270(5) 0.6155(3) 0.5446(2)
N4 N 1.1239(5) 0.8155(3) 0.5479(2)
N5 N 0.8498(5) 0.9599(3) 0.3809(2)
N6 N 0.3930(6) 1.1812(3) 0.2180(3)
N7 N 0.8510(5) 0.9533(3) 0.1076(2)
N8 N 1.0628(6) 0.8313(3) -0.0319(2)
N9 N 0.2933(6) 0.9337(4) 0.0849(2)
N10 N 1.6382(9) 0.5275(6) -0.1190(4)
N11 N 0.2368(5) 0.9864(3) 0.4240(2)
N12 N 0.7365(5) 0.6706(3) 0.4415(2)
C1 C 0.7202(6) 0.7154(4) 0.2135(3)
C2 C 0.7517(6) 0.9254(3) 0.1636(2)
C3 C 0.4495(6) 1.0750(4) 0.2341(3)
C4 C 0.3603(6) 0.7702(4) 0.2942(2)
C5 C 1.3742(8) 0.6489(5) 0.6220(4)
C6 C 1.2911(7) 0.5717(4) 0.5951(3)
C7 C 0.3837(6) 0.9150(4) 0.1478(3)
C8 C 0.7504(6) 0.9337(3) 0.3376(2)
C9 C 0.6687(6) 0.7444(4) 0.3810(2)
C10 C 0.9134(9) 0.7850(5) -0.0318(3)
C11 C 0.9439(10) 0.6703(6) -0.0531(4)
C12 C 1.1322(10) 0.6039(5) -0.0763(3)
C13 C 1.2793(10) 0.6528(5) -0.0792(4)
C14 C 1.2391(9) 0.7684(5) -0.0562(3)
C15 C 1.4800(11) 0.5853(6) -0.1010(4)
C16 C 1.2880(6) 0.7718(4) 0.5962(3)
C17 C 1.0518(6) 0.7353(4) 0.5249(3)
C18 C 0.3514(5) 0.9513(3) 0.3701(2)
H1 H 1.4861 0.6187 0.6568
H2 H 1.3480 0.4883 0.6118
H3 H 0.7865 0.8315 -0.0170
H4 H 0.8404 0.6395 -0.0516
H5 H 1.1587 0.5264 -0.0899
H6 H 1.3407 0.8009 -0.0583
H7 H 1.3442 0.8251 0.6125
H8 H 0.9374 0.7663 0.4918
W1A W 1.44566(2) 0.120904(13) 0.733623(9)
W1A_2 W 1.44566(2) 1.120904(13) 0.733623(9)
W1_2 W 1.55434(2) 0.879096(13) 0.266377(9)
Cu2_2 Cu 0.0000 1.0000 0.5000
Cu2_3 Cu 1.0000 0.0000 0.5000
Cu3_2 Cu 0.0000 1.0000 0.0000
Cu3_3 Cu 1.0000 0.0000 1.0000
Cu3_4 Cu 2.0000 0.0000 1.0000
O2A O 0.8570(4) 0.4875(2) 0.6133(2)
N1A N 1.1914(7) 0.3722(4) 0.8135(3)
N2A N 1.7392(6) 0.2891(3) 0.6863(2)
N3A N 0.8730(5) 0.3845(3) 0.4554(2)
N4A N 0.8761(5) 0.1845(3) 0.4521(2)
N4A_2 N 0.8761(5) 1.1845(3) 0.4521(2)
N5A N 1.1502(5) 1.0401(3) 0.6191(2)
N6A N 1.6070(6) -0.1812(3) 0.7820(3)
N7A N 1.1490(5) 0.0467(3) 0.8924(2)
N7A_2 N 1.1490(5) 1.0467(3) -0.1076(2)
N8A N 0.9372(6) 1.1687(3) 0.0319(2)
N9A N 1.7067(6) 0.0663(4) 0.9151(2)
N9_2 N 1.2933(6) 0.9337(4) 0.0849(2)
N9A_2 N 0.7067(6) 1.0663(4) -0.0849(2)
N10A N 0.3618(9) 1.4725(6) 0.1190(4)
N11_2 N 1.2368(5) 0.9864(3) 0.4240(2)
N11A N 0.7632(5) 1.0136(3) 0.5760(2)
N12A N 1.2635(5) 0.3294(3) 0.5585(2)
C1A C 1.2798(6) 0.2846(4) 0.7865(3)
C2A C 1.2483(6) 0.0746(3) 0.8364(2)
C3A C 1.5505(6) -0.0750(4) 0.7659(3)
C4A C 1.6397(6) 0.2298(4) 0.7058(2)
C5A C 0.6258(8) 0.3511(5) 0.3780(4)
C6A C 0.7089(7) 0.4283(4) 0.4049(3)
C7A C 1.6163(6) 0.0850(4) 0.8522(3)
C8A C 1.2496(6) 1.0663(3) 0.6624(2)
C8A_2 C 1.2496(6) 0.0663(3) 0.6624(2)
C9A C 1.3313(6) 0.2556(4) 0.6190(2)
C10A C 1.0866(9) 1.2150(5) 0.0318(3)
C11A C 1.0561(10) 1.3297(6) 0.0531(4)
C12A C 0.8678(10) 1.3961(5) 0.0763(3)
C13A C 0.7207(10) 1.3472(5) 0.0792(4)
C14A C 0.7609(9) 1.2316(5) 0.0562(3)
C15A C 0.5200(11) 1.4147(6) 0.1010(4)
C16A C 0.7120(6) 0.2282(4) 0.4038(3)
C17A C 0.9482(6) 0.2647(4) 0.4751(3)
C18_2 C 1.3514(5) 0.9513(3) 0.3701(2)
C18A C 1.6486(5) 0.0487(3) 0.6299(2)
H1A H 0.5139 0.3813 0.3432
H2A H 0.6520 0.5117 0.3882
H3A H 1.2135 1.1685 0.0170
H4A H 1.1596 1.3605 0.0516
H5A H 0.8413 1.4736 0.0899
H6A H 0.6593 1.1991 0.0583
H7A H 0.6558 0.1749 0.3875
H8A H 1.0626 0.2337 0.5082
O1 O 0.0805(5) 1.3920(3) 0.2686(2)
loop_
_geom_bond_atom_site_label_1
_geom_bond_atom_site_label_2
_geom_bond_site_symmetry_1
_geom_bond_site_symmetry_2
W1 C1 1_555 1_555
Cu1 O2 1_555 1_555
Cu2 N4 1_555 1_555
Cu3 N7 1_555 1_555
N1 C1 1_555 1_555
N2 C4 1_555 1_555
N3 Cu1 1_555 1_555
N4 C16 1_555 1_555
N5 Cu2 1_555 1_555
N6 C3 1_555 1_555
N7 C2 1_555 1_555
N8 Cu3 1_555 1_555
N9 C7 1_555 1_555
N10 C15 1_555 1_555
N11 C18 1_555 1_555
N12 Cu1 1_555 1_555
C2 W1 1_555 1_555
C3 W1 1_555 1_555
C4 W1 1_555 1_555
C5 C6 1_555 1_555
C6 N3 1_555 1_555
C7 W1 1_555 1_555
C8 W1 1_555 1_555
C9 W1 1_555 1_555
C10 N8 1_555 1_555
C11 C10 1_555 1_555
C12 C11 1_555 1_555
C13 C12 1_555 1_555
C14 N8 1_555 1_555
C15 C13 1_555 1_555
C16 C5 1_555 1_555
C17 N3 1_555 1_555
C18 W1 1_555 1_555
H1 C5 1_555 1_555
H2 C6 1_555 1_555
H3 C10 1_555 1_555
H4 C11 1_555 1_555
H5 C12 1_555 1_555
H6 C14 1_555 1_555
H7 C16 1_555 1_555
H8 C17 1_555 1_555
W1A C1A 1_555 1_555
W1A_2 C8A 1_555 1_555
W1_2 C18_2 1_555 1_555
Cu2_2 N11 1_555 1_555
Cu2_3 N4A 1_555 1_555
Cu3_2 N9 1_555 1_555
Cu3_3 N7A 1_555 1_555
Cu3_4 N9A 1_555 1_555
O2A Cu1 1_555 1_555
N1A C1A 1_555 1_555
N2A C4A 1_555 1_555
N3A Cu1 1_555 1_555
N4A C16A 1_555 1_555
N4A_2 Cu2 1_555 1_555
N5A Cu2 1_555 1_555
N6A C3A 1_555 1_555
N7A C2A 1_555 1_555
N7A_2 Cu3 1_555 1_555
N8A Cu3 1_555 1_555
N9A C7A 1_555 1_555
N9_2 Cu3 1_555 1_555
N9A_2 Cu3 1_555 1_555
N10A C15A 1_555 1_555
N11_2 Cu2 1_555 1_555
N11A Cu2 1_555 1_555
N12A Cu1 1_555 1_555
C2A W1A 1_555 1_555
C3A W1A 1_555 1_555
C4A W1A 1_555 1_555
C5A C6A 1_555 1_555
C6A N3A 1_555 1_555
C7A W1A 1_555 1_555
C8A N5A 1_555 1_555
C8A_2 W1A 1_555 1_555
C9A W1A 1_555 1_555
C10A N8A 1_555 1_555
C11A C10A 1_555 1_555
C12A C11A 1_555 1_555
C13A C12A 1_555 1_555
C14A N8A 1_555 1_555
C15A C13A 1_555 1_555
C16A C5A 1_555 1_555
C17A N3A 1_555 1_555
C18_2 N11_2 1_555 1_555
C18A W1A 1_555 1_555
H1A C5A 1_555 1_555
H2A C6A 1_555 1_555
H3A C10A 1_555 1_555
H4A C11A 1_555 1_555
H5A C12A 1_555 1_555
H6A C14A 1_555 1_555
H7A C16A 1_555 1_555
H8A C17A 1_555 1_555
N4 C17 1_555 1_555
N5 C8 1_555 1_555
N12 C9 1_555 1_555
C13 C14 1_555 1_555
N4A C17A 1_555 1_555
N12A C9A 1_555 1_555
C13A C14A 1_555 1_555

#END
