
#######################################################################
#
#                 Cambridge Crystallographic Data Centre
#                                CCDC 
#
#######################################################################
#
# If this CIF has been generated from an entry in the Cambridge 
# Structural Database, then it will include bibliographic, chemical, 
# crystal, experimental, refinement or atomic coordinate data resulting 
# from the CCDC's data processing and validation procedures.
#
#######################################################################

data_SUPLUL
_symmetry_cell_setting           trigonal
_symmetry_space_group_name_H-M   'P -3 c 1'
_symmetry_Int_Tables_number      165
_space_group_name_Hall           '-P 3 2"c'
loop_
_symmetry_equiv_pos_site_id
_symmetry_equiv_pos_as_xyz
1 x,y,z
2 -y,x-y,z
3 -x+y,-x,z
4 y,x,1/2-z
5 x-y,-y,1/2-z
6 -x,-x+y,1/2-z
7 -x,-y,-z
8 y,-x+y,-z
9 x-y,x,-z
10 -y,-x,1/2+z
11 -x+y,y,1/2+z
12 x,x-y,1/2+z
_cell_length_a                   18.6069(6)
_cell_length_b                   18.6069(6)
_cell_length_c                   22.6226(14)
_cell_angle_alpha                90
_cell_angle_beta                 90
_cell_angle_gamma                120
_cell_volume                     6782.99
loop_
_atom_site_label
_atom_site_type_symbol
_atom_site_fract_x
_atom_site_fract_y
_atom_site_fract_z
Zn1 Zn 0.94646(6) 0.45917(6) 0.19708(4)
C1 C 0.7102(5) 0.1418(5) 0.3291(4)
C2 C 0.9028(7) 0.3417(6) 0.2964(5)
C3 C 0.8030(5) 0.1734(5) 0.4132(4)
C4 C 0.8611(6) 0.2445(6) 0.3811(4)
H1 H 0.9129 0.2787 0.3980
C5 C 0.8449(5) 0.2654(5) 0.3265(4)
C6 C 0.8212(5) 0.1548(6) 0.4717(4)
O1 O 0.8857(4) 0.3548(4) 0.2455(3)
C7 C 0.7274(6) 0.1238(5) 0.3834(4)
H2 H 0.6871 0.0760 0.4021
C8 C 0.7690(6) 0.2119(6) 0.3003(4)
H3 H 0.7577 0.2238 0.2627
C9 C 0.6278(6) 0.0876(6) 0.3011(4)
C10 C 0.8630(6) 0.1300(6) 0.5900(4)
C11 C 0.9009(7) 0.1690(7) 0.4880(4)
H4 H 0.9419 0.1885 0.4590
C12 C 0.7654(7) 0.1278(7) 0.5165(4)
H5 H 0.7117 0.1168 0.5086
C13 C 0.9214(7) 0.1563(7) 0.5425(4)
H6 H 0.9743 0.1647 0.5494
C14 C 0.7845(7) 0.1159(6) 0.5728(5)
H7 H 0.7431 0.0974 0.6013
O2 O 0.9680(5) 0.3926(5) 0.3245(4)
O3 O 0.8762(9) 0.4240(8) 0.1313(6)
C15 C 0.931(2) 0.090(2) 0.6555(11)
H8 H 0.9786 0.1194 0.6304
H9 H 0.9007 0.0329 0.6443
H10 H 0.9487 0.0948 0.6959
O4 O 0.6159(4) 0.1069(4) 0.2512(3)
O5 O 0.5739(4) 0.0259(4) 0.3311(3)
C16 C 0.8067(14) 0.0781(19) 0.6910(9)
H11 H 0.7718 0.0221 0.6776
H12 H 0.7761 0.1071 0.6899
H13 H 0.8245 0.0776 0.7307
C17 C 0.8836(7) 0.1224(7) 0.6501(5)
C18 C 0.926(2) 0.2089(14) 0.6848(11)
H14 H 0.9772 0.2471 0.6660
H15 H 0.9363 0.2001 0.7249
H16 H 0.8892 0.2313 0.6842
Zn1E Zn 1.05354(6) 0.51271(8) 0.30292(4)
Zn1B Zn 0.51271(8) 0.05354(6) 0.19708(4)
Zn1C Zn 0.45917(6) -0.05354(6) 0.30292(4)
O2E O 1.0320(5) 0.4246(7) 0.1755(4)
O4A O 0.8931(4) 0.5090(6) 0.2512(3)
O5C O 1.0259(4) 0.5739(4) 0.1689(3)
loop_
_geom_bond_atom_site_label_1
_geom_bond_atom_site_label_2
_geom_bond_site_symmetry_1
_geom_bond_site_symmetry_2
Zn1 O1 1_555 1_555
C1 C7 1_555 1_555
C2 C5 1_555 1_555
C3 C4 1_555 1_555
C4 H1 1_555 1_555
C5 C4 1_555 1_555
C6 C3 1_555 1_555
O1 C2 1_555 1_555
C7 C3 1_555 1_555
H2 C7 1_555 1_555
C8 C1 1_555 1_555
H3 C8 1_555 1_555
C9 C1 1_555 1_555
C10 C13 1_555 1_555
C11 C6 1_555 1_555
H4 C11 1_555 1_555
C12 C6 1_555 1_555
H5 C12 1_555 1_555
C13 C11 1_555 1_555
H6 C13 1_555 1_555
C14 C10 1_555 1_555
H7 C14 1_555 1_555
O2 C2 1_555 1_555
O3 Zn1 1_555 1_555
C15 H8 1_555 1_555
H9 C15 1_555 1_555
H10 C15 1_555 1_555
O4 C9 1_555 1_555
O5 C9 1_555 1_555
C16 H11 1_555 1_555
H12 C16 1_555 1_555
H13 C16 1_555 1_555
C17 C10 1_555 1_555
C18 C17 1_555 1_555
H14 C18 1_555 1_555
H15 C18 1_555 1_555
H16 C18 1_555 1_555
Zn1E O2 1_555 1_555
Zn1B O4 1_555 1_555
Zn1C O5 1_555 1_555
O2E Zn1 1_555 1_555
O4A Zn1 1_555 1_555
O5C Zn1 1_555 1_555
C5 C8 1_555 1_555
C12 C14 1_555 1_555
C15 C17 1_555 1_555
C16 C17 1_555 1_555

#END
