
#######################################################################
#
#                 Cambridge Crystallographic Data Centre
#                                CCDC 
#
#######################################################################
#
# If this CIF has been generated from an entry in the Cambridge 
# Structural Database, then it will include bibliographic, chemical, 
# crystal, experimental, refinement or atomic coordinate data resulting 
# from the CCDC's data processing and validation procedures.
#
#######################################################################

data_SUPMAS
_symmetry_cell_setting           trigonal
_symmetry_space_group_name_H-M   'P -3 c 1'
_symmetry_Int_Tables_number      165
_space_group_name_Hall           '-P 3 2"c'
loop_
_symmetry_equiv_pos_site_id
_symmetry_equiv_pos_as_xyz
1 x,y,z
2 -y,x-y,z
3 -x+y,-x,z
4 y,x,1/2-z
5 x-y,-y,1/2-z
6 -x,-x+y,1/2-z
7 -x,-y,-z
8 y,-x+y,-z
9 x-y,x,-z
10 -y,-x,1/2+z
11 -x+y,y,1/2+z
12 x,x-y,1/2+z
_cell_length_a                   18.9328(12)
_cell_length_b                   18.9328(12)
_cell_length_c                   22.307(3)
_cell_angle_alpha                90
_cell_angle_beta                 90
_cell_angle_gamma                120
_cell_volume                     6924.71
loop_
_atom_site_label
_atom_site_type_symbol
_atom_site_fract_x
_atom_site_fract_y
_atom_site_fract_z
Co1 Co 0.95055(5) 0.46289(5) 0.19670(4)
O1 O 0.8922(3) 0.5103(3) 0.2456(2)
C1 C 0.8562(4) 0.5694(4) 0.3248(3)
C2 C 0.7856(4) 0.5551(4) 0.2951(3)
H1 H 0.7731 0.5298 0.2573
C3 C 0.8739(4) 0.6060(4) 0.3807(3)
H2 H 0.9207 0.6140 0.4012
C4 C 0.8233(4) 0.6316(4) 0.4076(3)
C5 C 0.7536(4) 0.6160(4) 0.3765(3)
H3 H 0.7184 0.6319 0.3938
C6 C 0.7337(4) 0.5782(4) 0.3214(3)
C7 C 0.8426(4) 0.6700(5) 0.4683(3)
C8 C 0.9097(4) 0.5395(4) 0.2978(3)
C9 C 0.8722(5) 0.6415(5) 0.5133(4)
H4 H 0.8831 0.5992 0.5049
C10 C 0.8694(5) 0.7345(5) 0.5856(4)
C11 C 0.8269(5) 0.7299(6) 0.4825(4)
H5 H 0.8059 0.7499 0.4530
C12 C 0.8412(6) 0.7627(6) 0.5395(4)
H6 H 0.8313 0.8058 0.5472
C13 C 0.8859(5) 0.6741(6) 0.5702(4)
H7 H 0.9072 0.6542 0.5994
C14 C 0.8819(6) 0.7682(7) 0.6499(5)
O2 O 0.6424(3) 0.5275(3) 0.2395(3)
C15 C 0.6544(5) 0.5563(5) 0.2915(4)
O3 O 0.9680(3) 0.5470(3) 0.3287(2)
O4 O 0.8885(5) 0.4346(4) 0.1195(3)
C16 C 0.9182(12) 0.7306(10) 0.6902(5)
H8 H 0.9739 0.7490 0.6780
H9 H 0.8863 0.6717 0.6872
H10 H 0.9177 0.7470 0.7313
C17 C 0.8002(11) 0.7321(16) 0.6800(6)
H11 H 0.7671 0.7510 0.6600
H12 H 0.8076 0.7490 0.7217
H13 H 0.7730 0.6731 0.6779
C18 C 0.9333(16) 0.8578(9) 0.6491(7)
H14 H 0.9832 0.8730 0.6273
H15 H 0.9464 0.8779 0.6899
H16 H 0.9041 0.8813 0.6296
O5 O 0.6048(3) 0.5682(3) 0.3216(2)
Co1A Co 0.53711(5) 0.48766(7) 0.19670(4)
Co1E Co 1.04945(5) 0.51234(7) 0.30330(4)
Co1D Co 0.48766(7) 0.53711(5) 0.30330(4)
O2B O 0.8851(4) 0.3576(3) 0.2395(3)
O3E O 1.0320(3) 0.5790(4) 0.1713(2)
O5D O 1.0366(4) 0.4318(3) 0.1784(2)
loop_
_geom_bond_atom_site_label_1
_geom_bond_atom_site_label_2
_geom_bond_site_symmetry_1
_geom_bond_site_symmetry_2
Co1 O1 1_555 1_555
O1 C8 1_555 1_555
C1 C2 1_555 1_555
C2 H1 1_555 1_555
C3 C1 1_555 1_555
H2 C3 1_555 1_555
C4 C3 1_555 1_555
C5 C4 1_555 1_555
H3 C5 1_555 1_555
C6 C2 1_555 1_555
C7 C4 1_555 1_555
C8 C1 1_555 1_555
C9 C7 1_555 1_555
H4 C9 1_555 1_555
C10 C12 1_555 1_555
C11 C7 1_555 1_555
H5 C11 1_555 1_555
C12 C11 1_555 1_555
H6 C12 1_555 1_555
C13 C9 1_555 1_555
H7 C13 1_555 1_555
C14 C10 1_555 1_555
O2 C15 1_555 1_555
C15 C6 1_555 1_555
O3 C8 1_555 1_555
O4 Co1 1_555 1_555
C16 C14 1_555 1_555
H8 C16 1_555 1_555
H9 C16 1_555 1_555
H10 C16 1_555 1_555
C17 C14 1_555 1_555
H11 C17 1_555 1_555
H12 C17 1_555 1_555
H13 C17 1_555 1_555
C18 C14 1_555 1_555
H14 C18 1_555 1_555
H15 C18 1_555 1_555
H16 C18 1_555 1_555
O5 C15 1_555 1_555
Co1A O2 1_555 1_555
Co1E O3 1_555 1_555
Co1D O5 1_555 1_555
O2B Co1 1_555 1_555
O3E Co1 1_555 1_555
O5D Co1 1_555 1_555
C5 C6 1_555 1_555
C10 C13 1_555 1_555

#END
