
#######################################################################
#
#                 Cambridge Crystallographic Data Centre
#                                CCDC 
#
#######################################################################
#
# If this CIF has been generated from an entry in the Cambridge 
# Structural Database, then it will include bibliographic, chemical, 
# crystal, experimental, refinement or atomic coordinate data resulting 
# from the CCDC's data processing and validation procedures.
#
#######################################################################

data_SUPPUQ
_symmetry_cell_setting           tetragonal
_symmetry_space_group_name_H-M   'I 4/m'
_symmetry_Int_Tables_number      87
_space_group_name_Hall           '-I 4'
loop_
_symmetry_equiv_pos_site_id
_symmetry_equiv_pos_as_xyz
1 x,y,z
2 -x,-y,z
3 -y,x,z
4 y,-x,z
5 1/2+x,1/2+y,1/2+z
6 1/2-x,1/2-y,1/2+z
7 1/2-y,1/2+x,1/2+z
8 1/2+y,1/2-x,1/2+z
9 -x,-y,-z
10 x,y,-z
11 y,-x,-z
12 -y,x,-z
13 1/2-x,1/2-y,1/2-z
14 1/2+x,1/2+y,1/2-z
15 1/2+y,1/2-x,1/2-z
16 1/2-y,1/2+x,1/2-z
_cell_length_a                   19.366(5)
_cell_length_b                   19.366(5)
_cell_length_c                   19.977(5)
_cell_angle_alpha                90
_cell_angle_beta                 90
_cell_angle_gamma                90
_cell_volume                     7492.21
loop_
_atom_site_label
_atom_site_type_symbol
_atom_site_fract_x
_atom_site_fract_y
_atom_site_fract_z
C14 C 0.4078(6) 0.7060(8) 0.6377(6)
H12 H 0.3906 0.7546 0.6359
Cl1 Cl 0.3852(9) 0.6714(8) 0.5613(7)
Cl2 Cl 0.4972(7) 0.7142(11) 0.6445(9)
Cl3 Cl 0.3694(8) 0.6724(8) 0.7043(8)
C14I C 0.4078(6) 0.7060(8) 0.3623(6)
H12I H 0.3906 0.7546 0.3641
Cl1I Cl 0.3852(9) 0.6714(8) 0.4387(7)
Cl2I Cl 0.4972(7) 0.7142(11) 0.3555(9)
Cl3I Cl 0.3694(8) 0.6724(8) 0.2957(8)
Cl4 Cl 0.49652(15) 0.84090(17) 0.81292(15)
Cl5 Cl 0.63454(16) 0.8311(2) 0.76188(15)
Cl6 Cl 0.5661(2) 0.71131(17) 0.8169(3)
C15 C 0.5773(5) 0.8008(5) 0.8204(5)
H13 H 0.5962 0.8124 0.8657
O5 O 0.5852(7) 0.5554(6) 0.8860(10)
Cu1 Cu 0.35181(6) 0.83878(6) 0.5000
O1 O 0.4138(2) 0.8665(3) 0.5686(2)
O2 O 0.8076(3) 0.7090(2) 0.4313(3)
O3 O 0.7119(3) 1.0426(4) 0.5000
C1 C 0.5156(5) 0.8930(6) 0.6259(5)
H1 H 0.5616 0.9117 0.6166
H2 H 0.5201 0.8490 0.6499
H3 H 0.4897 0.9258 0.6536
C2 C 0.4781(3) 0.8815(4) 0.5617(4)
C3 C 0.5119(5) 0.8888(5) 0.5000
C4 C 0.5882(5) 0.9013(5) 0.5000
C5 C 0.6166(5) 0.9674(5) 0.5000
H4 H 0.5872 1.0066 0.5000
C6 C 0.6883(5) 0.9764(5) 0.5000
C7 C 0.7319(5) 0.9190(5) 0.5000
H5 H 0.7805 0.9251 0.5000
C8 C 0.7038(5) 0.8525(5) 0.5000
C9 C 0.6330(5) 0.8449(5) 0.5000
H6 H 0.6141 0.7996 0.5000
C10 C 0.7475(5) 0.7964(5) 0.3743(5)
H7 H 0.7615 0.7676 0.3363
H8 H 0.7694 0.8419 0.3706
H9 H 0.6972 0.8019 0.3740
C11 C 0.7694(4) 0.7627(4) 0.4382(4)
C12 C 0.7501(5) 0.7915(5) 0.5000
C13 C 0.7855(6) 1.0518(5) 0.5000
H10 H 0.7963 1.1013 0.5000
H11 H 0.8052 1.0303 0.4599
O4 O 0.4073(16) 0.7138(14) 0.5000
O1I O 0.4138(2) 0.8665(3) 0.4314(2)
O2I O 0.8076(3) 0.7090(2) 0.5687(3)
C1I C 0.5156(5) 0.8930(6) 0.3741(5)
H1I H 0.5616 0.9117 0.3834
H2I H 0.5201 0.8490 0.3501
H3I H 0.4897 0.9258 0.3464
C2I C 0.4781(3) 0.8815(4) 0.4383(4)
C10I C 0.7475(5) 0.7964(5) 0.6257(5)
H7I H 0.7615 0.7676 0.6637
H8I H 0.7694 0.8419 0.6294
H9I H 0.6972 0.8019 0.6260
C11I C 0.7694(4) 0.7627(4) 0.5618(4)
H11I H 0.8052 1.0303 0.5401
Cu1A Cu 0.64819(6) 1.16122(6) 0.5000
Cu1C Cu 0.83878(6) 0.64819(6) 0.5000
O2B O 0.2910(2) 0.8076(3) 0.4313(3)
O2K O 0.2910(2) 0.8076(3) 0.5687(3)
O3A O 0.2881(3) 0.9574(4) 0.5000
H14? H 0.8052 1.0303 0.4599
Cl7? Cl 0.3579(5) 0.6356(5) 0.6043(6)
Cl8? Cl 0.4937(7) 0.6956(9) 0.6159(11)
Cl9? Cl 0.4011(11) 0.6919(8) 0.7242(6)
loop_
_geom_bond_atom_site_label_1
_geom_bond_atom_site_label_2
_geom_bond_site_symmetry_1
_geom_bond_site_symmetry_2
Cu1 O1 1_555 1_555
O1 C2 1_555 1_555
O2 C11 1_555 1_555
O3 C6 1_555 1_555
C1 H1 1_555 1_555
H2 C1 1_555 1_555
H3 C1 1_555 1_555
C2 C1 1_555 1_555
C3 C2 1_555 1_555
C4 C3 1_555 1_555
C5 C4 1_555 1_555
H4 C5 1_555 1_555
C6 C5 1_555 1_555
C7 C6 1_555 1_555
H5 C7 1_555 1_555
C8 C7 1_555 1_555
C9 C4 1_555 1_555
H6 C9 1_555 1_555
C10 H7 1_555 1_555
H8 C10 1_555 1_555
H9 C10 1_555 1_555
C11 C10 1_555 1_555
C12 C8 1_555 1_555
C13 O3 1_555 1_555
H10 C13 1_555 1_555
H11 C13 1_555 1_555
O4 Cu1 1_555 1_555
C14 H12 1_555 1_555
Cl1 C14 1_555 1_555
Cl2 C14 1_555 1_555
Cl3 C14 1_555 1_555
Cl4 C15 1_555 1_555
Cl5 C15 1_555 1_555
Cl6 C15 1_555 1_555
C15 H13 1_555 1_555
O1I Cu1 1_555 1_555
O2I C11I 1_555 1_555
C1I H1I 1_555 1_555
H2I C1I 1_555 1_555
H3I C1I 1_555 1_555
C2I C3 1_555 1_555
C10I H7I 1_555 1_555
H8I C10I 1_555 1_555
H9I C10I 1_555 1_555
C11I C12 1_555 1_555
H11I C13 1_555 1_555
Cu1A O3 1_555 1_555
Cu1C O2 1_555 1_555
O2B Cu1 1_555 1_555
O2K Cu1 1_555 1_555
O3A Cu1 1_555 1_555
C14I H12I 1_555 1_555
Cl1I C14I 1_555 1_555
Cl2I C14I 1_555 1_555
Cl3I C14I 1_555 1_555
C8 C9 1_555 1_555
C11 C12 1_555 1_555
O1I C2I 1_555 1_555
O2I Cu1C 1_555 1_555
C1I C2I 1_555 1_555
C10I C11I 1_555 1_555

#END
