
#######################################################################
#
#                 Cambridge Crystallographic Data Centre
#                                CCDC 
#
#######################################################################
#
# If this CIF has been generated from an entry in the Cambridge 
# Structural Database, then it will include bibliographic, chemical, 
# crystal, experimental, refinement or atomic coordinate data resulting 
# from the CCDC's data processing and validation procedures.
#
#######################################################################

data_SUPSUS
_symmetry_cell_setting           triclinic
_symmetry_space_group_name_H-M   'P -1'
_symmetry_Int_Tables_number      2
_space_group_name_Hall           '-P 1'
loop_
_symmetry_equiv_pos_site_id
_symmetry_equiv_pos_as_xyz
1 x,y,z
2 -x,-y,-z
_cell_length_a                   7.9725(8)
_cell_length_b                   8.4866(9)
_cell_length_c                   10.8938(11)
_cell_angle_alpha                89.841(3)
_cell_angle_beta                 84.921(2)
_cell_angle_gamma                63.859(2)
_cell_volume                     658.536
loop_
_atom_site_label
_atom_site_type_symbol
_atom_site_fract_x
_atom_site_fract_y
_atom_site_fract_z
Sb1 Sb 0.59636(3) 0.16443(3) 0.21623(2)
Cu1 Cu 0.72747(6) 0.52951(6) 0.26677(4)
F1 F 0.7426(4) 0.2620(3) 0.2891(2)
N1 N 0.4644(4) 0.7167(3) 0.2853(2)
F2 F 0.4063(4) 0.2555(5) 0.3458(3)
C1 C 0.3510(5) 0.7515(5) 0.1960(3)
H1 H 0.3919 0.6797 0.1246
F3 F 0.7154(4) -0.0445(3) 0.3010(2)
C2 C 0.1746(5) 0.8910(5) 0.2065(4)
H2 H 0.0995 0.9100 0.1421
F4 F 0.7811(4) 0.0619(4) 0.0826(2)
N2 N 0.1081(4) 0.9999(4) 0.3059(3)
F5 F 0.4770(4) 0.3662(3) 0.1267(3)
C3 C 0.2229(5) 0.9657(5) 0.3944(3)
H3 H 0.1826 1.0387 0.4652
F6 F 0.4546(3) 0.0670(3) 0.1463(2)
C4 C 0.3999(5) 0.8256(5) 0.3847(3)
H4 H 0.4754 0.8068 0.4488
N3 N 0.8875(4) 0.5109(4) 0.4058(2)
C5 C 0.8852(5) 0.4250(5) 0.5080(3)
H5 H 0.8059 0.3709 0.5171
C6 C 1.0039(5) 0.5863(5) 0.3997(3)
H6 H 1.0099 0.6486 0.3305
N4 N 0.8839(4) 0.5081(4) 0.1054(3)
C7 C 0.8463(5) 0.6452(5) 0.0339(4)
H7 H 0.7392 0.7495 0.0547
C8 C 1.0381(6) 0.3640(5) 0.0692(4)
H8 H 1.0691 0.2648 0.1159
Sb1A Sb 1.40364(3) 0.83557(3) 0.78377(2)
Cu1A Cu 1.27253(6) 0.47049(6) 0.73323(4)
Cu1A_2 Cu 1.27253(6) 0.47049(6) -0.26677(4)
F1A F 1.2574(4) 0.7380(3) 0.7109(2)
N1A N 1.5356(4) 0.2833(3) 0.7147(2)
F2A F 1.5937(4) 0.7445(5) 0.6542(3)
C1A C 1.6490(5) 0.2485(5) 0.8040(3)
H1A H 1.6081 0.3203 0.8754
F3A F 1.2846(4) 1.0445(3) 0.6990(2)
C2A C 1.8254(5) 0.1090(5) 0.7935(4)
H2A H 1.9005 0.0900 0.8579
F4A F 1.2189(4) 0.9381(4) 0.9174(2)
N2A N 1.8919(4) 0.0001(4) 0.6941(3)
F5A F 1.5230(4) 0.6338(3) 0.8733(3)
C3A C 1.7771(5) 0.0343(5) 0.6056(3)
H3A H 1.8174 -0.0387 0.5348
F6A F 1.5454(3) 0.9330(3) 0.8537(2)
C4A C 1.6001(5) 0.1744(5) 0.6153(3)
H4A H 1.5246 0.1932 0.5512
N3A N 1.1125(4) 0.4891(4) 0.5942(2)
C5A C 1.1148(5) 0.5750(5) 0.4920(3)
H5A H 1.1941 0.6291 0.4829
C6A C 0.9961(5) 0.4137(5) 0.6003(3)
H6A H 0.9901 0.3514 0.6695
N4A N 1.1161(4) 0.4919(4) -0.1054(3)
N4A_2 N 1.1161(4) 0.4919(4) 0.8946(3)
C7A C 1.1537(5) 0.3548(5) -0.0339(4)
H7A H 1.2608 0.2505 -0.0547
C8A C 0.9619(6) 0.6360(5) -0.0692(4)
H8A H 0.9309 0.7352 -0.1159
loop_
_geom_bond_atom_site_label_1
_geom_bond_atom_site_label_2
_geom_bond_site_symmetry_1
_geom_bond_site_symmetry_2
Sb1 F1 1_555 1_555
Cu1 F1 1_555 1_555
N1 Cu1 1_555 1_555
F2 Sb1 1_555 1_555
C1 N1 1_555 1_555
H1 C1 1_555 1_555
F3 Sb1 1_555 1_555
C2 C1 1_555 1_555
H2 C2 1_555 1_555
F4 Sb1 1_555 1_555
N2 C2 1_555 1_555
F5 Sb1 1_555 1_555
C3 N2 1_555 1_555
H3 C3 1_555 1_555
F6 Sb1 1_555 1_555
C4 N1 1_555 1_555
H4 C4 1_555 1_555
N3 Cu1 1_555 1_555
C5 N3 1_555 1_555
H5 C5 1_555 1_555
C6 N3 1_555 1_555
H6 C6 1_555 1_555
N4 Cu1 1_555 1_555
C7 N4 1_555 1_555
H7 C7 1_555 1_555
C8 N4 1_555 1_555
H8 C8 1_555 1_555
Sb1A F1A 1_555 1_555
Cu1A F1A 1_555 1_555
Cu1A_2 N4A 1_555 1_555
N1A Cu1A 1_555 1_555
F2A Sb1A 1_555 1_555
C1A N1A 1_555 1_555
H1A C1A 1_555 1_555
F3A Sb1A 1_555 1_555
C2A C1A 1_555 1_555
H2A C2A 1_555 1_555
F4A Sb1A 1_555 1_555
N2A C2A 1_555 1_555
F5A Sb1A 1_555 1_555
C3A N2A 1_555 1_555
H3A C3A 1_555 1_555
F6A Sb1A 1_555 1_555
C4A N1A 1_555 1_555
H4A C4A 1_555 1_555
N3A Cu1A 1_555 1_555
C5A C6 1_555 1_555
H5A C5A 1_555 1_555
C6A C5 1_555 1_555
H6A C6A 1_555 1_555
N4A C7A 1_555 1_555
N4A_2 Cu1A 1_555 1_555
C7A C8 1_555 1_555
H7A C7A 1_555 1_555
C8A C7 1_555 1_555
H8A C8A 1_555 1_555
C3 C4 1_555 1_555
C3A C4A 1_555 1_555
N3A C5A 1_555 1_555
N3A C6A 1_555 1_555
N4A C8A 1_555 1_555

#END
