
#######################################################################
#
#                 Cambridge Crystallographic Data Centre
#                                CCDC 
#
#######################################################################
#
# If this CIF has been generated from an entry in the Cambridge 
# Structural Database, then it will include bibliographic, chemical, 
# crystal, experimental, refinement or atomic coordinate data resulting 
# from the CCDC's data processing and validation procedures.
#
#######################################################################

data_SUPSOM
_symmetry_cell_setting           orthorhombic
_symmetry_space_group_name_H-M   'C m m a'
_symmetry_Int_Tables_number      67
_space_group_name_Hall           '-C 2a 2'
loop_
_symmetry_equiv_pos_site_id
_symmetry_equiv_pos_as_xyz
1 x,y,z
2 -x,1/2-y,z
3 -x,1/2+y,-z
4 x,-y,-z
5 1/2+x,1/2+y,z
6 1/2-x,-y,z
7 1/2-x,y,-z
8 1/2+x,1/2-y,-z
9 -x,-y,-z
10 x,1/2+y,-z
11 x,1/2-y,z
12 -x,y,z
13 1/2-x,1/2-y,-z
14 1/2+x,y,-z
15 1/2+x,-y,z
16 1/2-x,1/2+y,z
_cell_length_a                   15.0944(6)
_cell_length_b                   15.5893(7)
_cell_length_c                   14.7562(6)
_cell_angle_alpha                90
_cell_angle_beta                 90
_cell_angle_gamma                90
_cell_volume                     3472.3
loop_
_atom_site_label
_atom_site_type_symbol
_atom_site_fract_x
_atom_site_fract_y
_atom_site_fract_z
Ag1 Ag 0.2500 0.0000 0.0000
Cu1 Cu 0.2500 0.0000 0.5000
N1 N 0.2500 0.0000 0.3621(3)
N2 N 0.2500 0.0000 0.1732(4)
C1 C 0.2859(3) 0.0639(3) 0.3146(3)
H1 H 0.3123 0.1107 0.3457
C2 C 0.2856(3) 0.0634(3) 0.2214(3)
H2 H 0.3119 0.1102 0.1901
N3 N 0.0927(4) 0.0000 0.5000
C3 C 0.0455(3) 0.0424(3) 0.4379(3)
H3 H 0.0759 0.0737 0.3922
N4 N 0.0917(4) 0.0000 0.0000
C4 C 0.0454(3) 0.0336(3) 0.0677(3)
H4 H 0.0760 0.0584 0.1175
N5 N 0.2500 0.1604(4) 0.0000
C5 C 0.1769(3) 0.2065(3) -0.0159(3)
H5 H 0.1229 0.1772 -0.0276
F4 F 0.2500 0.1292(3) 0.5000
H6 H 0.195(5) 0.196(4) 0.497(5)
F5 F 0.1259(3) 0.2500 0.5015(3)
Ag1H Ag -0.2500 0.0000 0.0000
Ag1I Ag 0.2500 0.5000 0.0000
Ag1H_2 Ag 0.7500 0.0000 0.0000
Cu1H Cu -0.2500 0.0000 0.5000
Cu1I Cu 0.2500 0.5000 0.5000
N1C N 0.2500 0.0000 0.6379(3)
N2C N 0.2500 0.0000 -0.1732(4)
C1E C 0.2141(3) -0.0639(3) 0.3146(3)
H1E H 0.1877 -0.1107 0.3457
C2E C 0.2144(3) -0.0634(3) 0.2214(3)
H2E H 0.1881 -0.1102 0.1901
N3H N -0.0927(4) 0.0000 0.5000
N3E N 0.4073(4) 0.0000 0.5000
C3K C -0.0455(3) 0.0424(3) 0.4379(3)
C3H C -0.0455(3) -0.0424(3) 0.5621(3)
C3C C 0.0455(3) -0.0424(3) 0.5621(3)
H3C H 0.0759 -0.0737 0.6078
H3H H -0.0759 -0.0737 0.6078
H3K H -0.0759 0.0737 0.3922
N4H N -0.0917(4) 0.0000 0.0000
N4E N 0.4083(4) 0.0000 0.0000
N4M N 0.5917(4) 0.0000 0.0000
C4K C -0.0454(3) 0.0336(3) 0.0677(3)
C4H C -0.0454(3) -0.0336(3) -0.0677(3)
C4C C 0.0454(3) -0.0336(3) -0.0677(3)
C4E C 0.4546(3) -0.0336(3) 0.0677(3)
C4F C 0.4546(3) 0.0336(3) -0.0677(3)
C4N C 0.5454(3) -0.0336(3) 0.0677(3)
C4M C 0.5454(3) 0.0336(3) -0.0677(3)
H4C H 0.0760 -0.0584 -0.1175
H4H H -0.0760 -0.0584 -0.1175
H4K H -0.0760 0.0584 0.1175
H4E H 0.4240 -0.0584 0.1175
H4F H 0.4240 0.0584 -0.1175
H4N H 0.5760 -0.0584 0.1175
H4M H 0.5760 0.0584 -0.1175
N5J N 0.2500 0.3396(4) 0.0000
N5C N 0.2500 -0.1604(4) 0.0000
C5J C 0.1769(3) 0.2935(3) -0.0159(3)
C5L C 0.3231(3) 0.2935(3) 0.0159(3)
C5F C 0.3231(3) 0.2065(3) 0.0159(3)
H5F H 0.3771 0.1772 0.0276
H5L H 0.3771 0.3228 0.0276
H5J H 0.1229 0.3228 -0.0276
F4J F 0.2500 0.3708(3) 0.5000
F4C F 0.2500 -0.1292(3) 0.5000
H6J H 0.195(5) 0.304(4) 0.497(5)
H6L H 0.305(5) 0.304(4) 0.503(5)
H6F H 0.305(5) 0.196(4) 0.503(5)
F5F F 0.3741(3) 0.2500 0.4985(3)
Sb2 Sb 0.0000 0.2500 0.24561(4)
F6 F 0.0000 0.2500 0.1179(4)
F7 F 0.0000 0.2500 0.3749(4)
F8 F -0.0880(2) 0.33595(19) 0.24335(17)
F8A F 0.0880(2) 0.16405(19) 0.24335(17)
F8J F -0.0880(2) 0.16405(19) 0.24335(17)
F8K F 0.0880(2) 0.33595(19) 0.24335(17)
Sb1 Sb 0.0000 0.7500 0.25814(4)
F1 F -0.1253(3) 0.7500 0.2561(3)
F2 F 0.0000 0.8554(2) 0.3225(3)
F3 F 0.0000 0.8141(3) 0.1491(2)
F1A F 0.1253(3) 0.7500 0.2561(3)
F2A F 0.0000 0.6446(2) 0.3225(3)
F3A F 0.0000 0.6859(3) 0.1491(2)
F9? F 0.0000 0.8526(2) 0.1912(3)
F10? F 0.0000 0.8104(3) 0.3687(2)
loop_
_geom_bond_atom_site_label_1
_geom_bond_atom_site_label_2
_geom_bond_site_symmetry_1
_geom_bond_site_symmetry_2
Sb1 F1 1_555 1_555
F2 Sb1 1_555 1_555
F3 Sb1 1_555 1_555
Ag1 N2 1_555 1_555
Cu1 N1 1_555 1_555
N1 C1 1_555 1_555
N2 C2 1_555 1_555
C1 H1 1_555 1_555
C2 C1 1_555 1_555
H2 C2 1_555 1_555
N3 Cu1 1_555 1_555
C3 N3 1_555 1_555
H3 C3 1_555 1_555
N4 Ag1 1_555 1_555
C4 N4 1_555 1_555
H4 C4 1_555 1_555
N5 Ag1 1_555 1_555
C5 N5 1_555 1_555
H5 C5 1_555 1_555
F4 Cu1 1_555 1_555
H6 F4 1_555 1_555
F5 H6 1_555 1_555
Sb2 F6 1_555 1_555
F7 Sb2 1_555 1_555
F8 Sb2 1_555 1_555
F1A Sb1 1_555 1_555
F2A Sb1 1_555 1_555
F3A Sb1 1_555 1_555
Ag1H N4H 1_555 1_555
Ag1I N5J 1_555 1_555
Ag1H_2 N4M 1_555 1_555
Cu1H N3H 1_555 1_555
Cu1I F4J 1_555 1_555
N1C Cu1 1_555 1_555
N2C Ag1 1_555 1_555
C1E N1 1_555 1_555
H1E C1E 1_555 1_555
C2E N2 1_555 1_555
H2E C2E 1_555 1_555
N3H C3K 1_555 1_555
N3E Cu1 1_555 1_555
C3K C3 1_555 1_555
C3H N3H 1_555 1_555
C3C N3 1_555 1_555
H3C C3C 1_555 1_555
H3H C3H 1_555 1_555
H3K C3K 1_555 1_555
N4H C4K 1_555 1_555
N4E Ag1 1_555 1_555
N4M C4N 1_555 1_555
C4K C4 1_555 1_555
C4H N4H 1_555 1_555
C4C N4 1_555 1_555
C4E N4E 1_555 1_555
C4F N4E 1_555 1_555
C4N C4E 1_555 1_555
C4M N4M 1_555 1_555
H4C C4C 1_555 1_555
H4H C4H 1_555 1_555
H4K C4K 1_555 1_555
H4E C4E 1_555 1_555
H4F C4F 1_555 1_555
H4N C4N 1_555 1_555
H4M C4M 1_555 1_555
N5J C5J 1_555 1_555
N5C Ag1 1_555 1_555
C5J C5 1_555 1_555
C5L N5J 1_555 1_555
C5F N5 1_555 1_555
H5F C5F 1_555 1_555
H5L C5L 1_555 1_555
H5J C5J 1_555 1_555
F4J H6J 1_555 1_555
F4C Cu1 1_555 1_555
H6J F5 1_555 1_555
H6L F4J 1_555 1_555
H6F F4 1_555 1_555
F5F H6L 1_555 1_555
F8A Sb2 1_555 1_555
F8J Sb2 1_555 1_555
F8K Sb2 1_555 1_555
C1E C2E 1_555 1_555
C3H C3C 1_555 1_555
C4H C4C 1_555 1_555
C4F C4M 1_555 1_555
C5L C5F 1_555 1_555
H6F F5F 1_555 1_555

#END
