
#######################################################################
#
#                 Cambridge Crystallographic Data Centre
#                                CCDC 
#
#######################################################################
#
# If this CIF has been generated from an entry in the Cambridge 
# Structural Database, then it will include bibliographic, chemical, 
# crystal, experimental, refinement or atomic coordinate data resulting 
# from the CCDC's data processing and validation procedures.
#
#######################################################################

data_SUPYUZ
_symmetry_cell_setting           triclinic
_symmetry_space_group_name_H-M   'P -1'
_symmetry_Int_Tables_number      2
_space_group_name_Hall           '-P 1'
loop_
_symmetry_equiv_pos_site_id
_symmetry_equiv_pos_as_xyz
1 x,y,z
2 -x,-y,-z
_cell_length_a                   8.2085(12)
_cell_length_b                   9.8703(14)
_cell_length_c                   17.3769(19)
_cell_angle_alpha                83.411(10)
_cell_angle_beta                 82.267(10)
_cell_angle_gamma                73.463(13)
_cell_volume                     1333.04
loop_
_atom_site_label
_atom_site_type_symbol
_atom_site_fract_x
_atom_site_fract_y
_atom_site_fract_z
Cu1 Cu 1.65899(12) 0.07395(9) -0.02454(6)
S1 S 1.5054(2) 0.00579(19) -0.19339(10)
S2 S 0.9434(2) 0.4286(2) -0.26738(11)
O1 O 0.9412(7) 0.4640(6) -0.3509(3)
O2 O 1.4782(6) 0.0035(5) -0.1082(3)
O3 O 1.5892(6) 0.1138(5) -0.2282(3)
O4 O 1.0415(7) 0.5041(6) -0.2324(3)
N1 N 0.8427(7) 0.9032(6) -0.0252(3)
O5 O 0.7756(7) 0.4401(6) -0.2254(3)
C1 C 1.0641(9) 0.7330(8) 0.0385(4)
H1 H 1.1229 0.7051 0.0824
C2 C 1.1135(9) 0.6512(7) -0.0262(4)
C3 C 1.4617(9) 0.3354(8) -0.0928(4)
H2 H 1.5164 0.2996 -0.1396
N2 N 1.5082(7) 0.2614(6) -0.0250(3)
C4 C 1.3077(9) 0.4458(7) 0.0433(4)
H3 H 1.2595 0.4811 0.0910
C5 C 1.4352(9) 0.3186(8) 0.0405(4)
H4 H 1.4711 0.2711 0.0872
C6 C 1.0244(9) 0.7040(8) -0.0909(4)
H5 H 1.0550 0.6572 -0.1364
C7 C 1.2136(9) -0.0412(8) -0.2312(4)
H6 H 1.2684 -0.1373 -0.2233
C8 C 0.9647(10) 0.1472(8) -0.2593(4)
H7 H 0.8509 0.1773 -0.2693
C9 C 1.2523(9) 0.5202(7) -0.0256(4)
C10 C 0.9291(9) 0.8545(8) 0.0375(4)
H8 H 0.8966 0.9045 0.0818
C11 C 1.0523(9) 0.2451(7) -0.2533(4)
C12 C 1.0474(10) 0.0033(8) -0.2502(4)
H9 H 0.9908 -0.0632 -0.2569
C13 C 0.8905(9) 0.8260(8) -0.0873(4)
H10 H 0.8298 0.8565 -0.1304
C14 C 1.2980(8) 0.0606(7) -0.2240(4)
C15 C 1.3353(9) 0.4625(7) -0.0946(4)
H11 H 1.3054 0.5099 -0.1422
C16 C 1.2186(9) 0.2027(7) -0.2359(4)
H12 H 1.2768 0.2695 -0.2323
O6 O 1.5878(6) -0.1346(5) -0.2206(3)
Cu2 Cu 1.13029(12) 0.60298(10) -0.45949(6)
C17 C 0.5281(10) 1.2539(7) -0.4051(4)
H13 H 0.5805 1.2186 -0.3599
N3 N 0.3182(7) 1.4379(6) -0.4688(3)
C18 C 0.5789(9) 1.1809(7) -0.4728(4)
N4 N 0.9506(7) 0.7750(6) -0.4671(3)
C19 C 0.7079(9) 1.0415(7) -0.4716(4)
C20 C 0.7394(9) 0.9612(7) -0.4026(4)
H14 H 0.6795 0.9951 -0.3562
C21 C 0.9190(9) 0.8534(8) -0.5352(4)
H15 H 0.9791 0.8170 -0.5810
C22 C 0.4979(9) 1.2447(8) -0.5370(4)
H16 H 0.5301 1.2017 -0.5836
C23 C 0.8011(9) 0.9858(7) -0.5401(4)
H17 H 0.7842 1.0369 -0.5881
C24 C 0.3994(10) 1.3788(8) -0.4067(4)
H18 H 0.3668 1.4253 -0.3611
C25 C 0.3701(9) 1.3710(7) -0.5345(4)
H19 H 0.3187 1.4105 -0.5795
C26 C 0.8605(9) 0.8289(7) -0.4011(4)
H20 H 0.8797 0.7766 -0.3536
O7 O 1.1953(7) 0.6810(6) -0.3341(3)
H21 H 1.1402 0.6216 -0.3152
H22 H 1.2922 0.6576 -0.3166
Cu1_2 Cu 0.65899(12) 1.07395(9) -0.02454(6)
Cu1A Cu 1.34101(12) -0.07395(9) 0.02454(6)
O2A O 1.5218(6) -0.0035(5) 0.1082(3)
N1_2 N 1.8427(7) -0.0968(6) -0.0252(3)
Cu2_2 Cu 0.13029(12) 1.60298(10) -0.45949(6)
N3_2 N 1.3182(7) 0.4379(6) -0.4688(3)
O8 O 0.4994(7) 0.6443(6) -0.2726(4)
H23 H 0.521(11) 0.720(5) -0.253(5)
H24 H 0.581(9) 0.566(5) -0.254(5)
loop_
_geom_bond_atom_site_label_1
_geom_bond_atom_site_label_2
_geom_bond_site_symmetry_1
_geom_bond_site_symmetry_2
Cu1 O2 1_555 1_555
S1 O2 1_555 1_555
S2 O1 1_555 1_555
O1 Cu2 1_555 1_555
O2 Cu1A 1_555 1_555
O3 S1 1_555 1_555
O4 S2 1_555 1_555
N1 C10 1_555 1_555
O5 S2 1_555 1_555
C1 H1 1_555 1_555
C2 C1 1_555 1_555
C3 H2 1_555 1_555
N2 Cu1 1_555 1_555
C4 H3 1_555 1_555
C5 N2 1_555 1_555
H4 C5 1_555 1_555
C6 C2 1_555 1_555
H5 C6 1_555 1_555
C7 H6 1_555 1_555
C8 H7 1_555 1_555
C9 C2 1_555 1_555
C10 C1 1_555 1_555
H8 C10 1_555 1_555
C11 S2 1_555 1_555
C12 C7 1_555 1_555
H9 C12 1_555 1_555
C13 N1 1_555 1_555
H10 C13 1_555 1_555
C14 S1 1_555 1_555
C15 C3 1_555 1_555
H11 C15 1_555 1_555
C16 C11 1_555 1_555
H12 C16 1_555 1_555
O6 S1 1_555 1_555
Cu2 N4 1_555 1_555
C17 H13 1_555 1_555
N3 C24 1_555 1_555
C18 C17 1_555 1_555
N4 C21 1_555 1_555
C19 C18 1_555 1_555
C20 C19 1_555 1_555
H14 C20 1_555 1_555
C21 H15 1_555 1_555
C22 C18 1_555 1_555
H16 C22 1_555 1_555
C23 C19 1_555 1_555
H17 C23 1_555 1_555
C24 C17 1_555 1_555
H18 C24 1_555 1_555
C25 N3 1_555 1_555
H19 C25 1_555 1_555
C26 N4 1_555 1_555
H20 C26 1_555 1_555
O7 Cu2 1_555 1_555
H21 O7 1_555 1_555
H22 O7 1_555 1_555
O8 H23 1_555 1_555
H24 O8 1_555 1_555
Cu1_2 N1 1_555 1_555
Cu1A O2A 1_555 1_555
O2A Cu1 1_555 1_555
N1_2 Cu1 1_555 1_555
Cu2_2 N3 1_555 1_555
N3_2 Cu2 1_555 1_555
C3 N2 1_555 1_555
C4 C5 1_555 1_555
C4 C9 1_555 1_555
C6 C13 1_555 1_555
C7 C14 1_555 1_555
C8 C11 1_555 1_555
C8 C12 1_555 1_555
C9 C15 1_555 1_555
C14 C16 1_555 1_555
C20 C26 1_555 1_555
C21 C23 1_555 1_555
C22 C25 1_555 1_555

#END
