
#######################################################################
#
#                 Cambridge Crystallographic Data Centre
#                                CCDC 
#
#######################################################################
#
# If this CIF has been generated from an entry in the Cambridge 
# Structural Database, then it will include bibliographic, chemical, 
# crystal, experimental, refinement or atomic coordinate data resulting 
# from the CCDC's data processing and validation procedures.
#
#######################################################################

data_SUPZIO
_symmetry_cell_setting           triclinic
_symmetry_space_group_name_H-M   'P -1'
_symmetry_Int_Tables_number      2
_space_group_name_Hall           '-P 1'
loop_
_symmetry_equiv_pos_site_id
_symmetry_equiv_pos_as_xyz
1 x,y,z
2 -x,-y,-z
_cell_length_a                   7.0225(7)
_cell_length_b                   13.2448(14)
_cell_length_c                   19.1007(18)
_cell_angle_alpha                71.555(4)
_cell_angle_beta                 79.412(2)
_cell_angle_gamma                74.632(2)
_cell_volume                     1615.34
loop_
_atom_site_label
_atom_site_type_symbol
_atom_site_fract_x
_atom_site_fract_y
_atom_site_fract_z
Ag1 Ag -0.36673(6) 2.10431(3) 0.49567(3)
N1 N -0.8081(6) 2.5978(3) 0.4657(3)
C1 C -0.9713(7) 2.7336(4) 0.5134(3)
N2 N -0.8719(6) 2.6218(3) 0.5238(3)
N3 N -0.5193(6) 2.2711(3) 0.4857(3)
N4 N -1.1891(6) 2.9425(3) 0.5031(3)
C2 C -0.7108(7) 2.4841(4) 0.4765(3)
C3 C -0.6201(7) 2.4540(4) 0.4139(3)
H1 H -0.6232 2.5051 0.3674
C4 C -0.7071(7) 2.4064(4) 0.5437(3)
H2 H -0.7685 2.4248 0.5868
C5 C -0.5242(7) 2.3464(4) 0.4212(3)
H3 H -0.4604 2.3263 0.3789
C6 C -0.6107(8) 2.3004(4) 0.5461(3)
H4 H -0.6093 2.2474 0.5917
C7 C -0.9866(7) 2.8100(4) 0.4454(3)
H5 H -0.9231 2.7924 0.4022
C8 C -1.0560(8) 2.7629(4) 0.5760(3)
H6 H -1.0409 2.7132 0.6226
C9 C -1.0992(8) 2.9138(4) 0.4428(3)
H7 H -1.1122 2.9656 0.3968
C10 C -1.1657(7) 2.8690(5) 0.5686(3)
H8 H -1.2252 2.8893 0.6112
Ag1_2 Ag -1.36673(6) 3.10431(3) 0.49567(3)
N4_2 N -0.1891(6) 1.9425(3) 0.5031(3)
Ag2 Ag -0.23338(7) 2.60435(3) -0.00441(3)
N5 N -0.2370(6) 1.7706(3) -0.0140(3)
N6 N -0.2746(6) 2.1210(3) 0.0237(3)
N7 N -0.2551(6) 2.0978(3) -0.0348(3)
C11 C -0.2360(7) 1.8015(4) 0.0453(3)
H9 H -0.2301 1.7483 0.0909
C12 C -0.2673(8) 2.3109(4) -0.0546(3)
H10 H -0.2683 2.2938 -0.0981
C13 C -0.2749(7) 2.2339(4) 0.0128(3)
C14 C -0.2465(7) 1.9835(4) -0.0238(3)
C15 C -0.2472(7) 1.9544(4) -0.0865(3)
H11 H -0.2513 2.0058 -0.1328
C16 C -0.2416(7) 1.8463(4) -0.0788(3)
H12 H -0.2411 1.8258 -0.1212
C17 C -0.2432(7) 1.9065(4) 0.0444(3)
H13 H -0.2457 1.9248 0.0878
C18 C -0.2812(7) 2.2632(4) 0.0764(3)
H14 H -0.2923 2.2135 0.1231
N8 N -0.2572(6) 2.4432(3) 0.0039(3)
C19 C -0.2704(8) 2.3688(5) 0.0683(3)
H15 H -0.2725 2.3887 0.1110
C20 C -0.2583(8) 2.4146(4) -0.0565(3)
H16 H -0.2527 2.4669 -0.1023
Ag2_2 Ag -0.23338(7) 1.60435(3) -0.00441(3)
N5_2 N -0.2370(6) 2.7706(3) -0.0140(3)
S1 S -0.4618(2) 2.04959(12) 0.72153(9)
S2 S -0.6909(3) 2.45011(12) 0.77858(9)
O1 O -0.4875(6) 2.0500(3) 0.6481(2)
O2 O -0.5044(6) 1.9523(3) 0.7764(2)
O3 O -0.2739(5) 2.0711(3) 0.7263(2)
O4 O -0.4778(6) 2.4294(3) 0.7739(2)
O5 O -0.7888(6) 2.4496(3) 0.8524(2)
O6 O -0.7726(6) 2.5467(3) 0.7231(2)
C21 C -0.6003(7) 2.2498(4) 0.7498(3)
H17 H -0.4678 2.2498 0.7498
C22 C -0.6497(7) 2.1618(4) 0.7395(3)
C23 C -0.7483(8) 2.3382(4) 0.7603(3)
C24 C -0.8449(9) 2.1608(5) 0.7406(3)
H18 H -0.8786 2.1005 0.7353
C25 C -0.9436(8) 2.3381(5) 0.7592(3)
H19 H -1.0432 2.3981 0.7650
C26 C -0.9913(9) 2.2503(7) 0.7499(4)
H20 H -1.1237 2.2506 0.7497
O7 O -1.1135(7) 2.6617(4) 0.8278(3)
H21 H -1.0317 2.6004 0.8386
H22 H -1.0956 2.6925 0.7815
O8 O -0.6200(7) 1.8380(4) 0.6730(3)
H23 H -0.7398 1.8348 0.6896
H24 H -0.5812 1.8761 0.6937
O9 O -0.0034(8) 2.1415(5) 0.2639(3)
H25 H 0.0329 2.1963 0.2321
H26 H 0.0674 2.0832 0.2549
O10 O -0.4044(9) 2.6407(4) 0.7623(4)
H27 H -0.3208 2.6538 0.7834
H28 H -0.4901 2.6991 0.7466
loop_
_geom_bond_atom_site_label_1
_geom_bond_atom_site_label_2
_geom_bond_site_symmetry_1
_geom_bond_site_symmetry_2
Ag1 N3 1_555 1_555
N1 N2 1_555 1_555
C1 N2 1_555 1_555
N3 C5 1_555 1_555
N4 C9 1_555 1_555
C2 N1 1_555 1_555
C3 C2 1_555 1_555
H1 C3 1_555 1_555
C4 C2 1_555 1_555
H2 C4 1_555 1_555
C5 C3 1_555 1_555
H3 C5 1_555 1_555
C6 N3 1_555 1_555
H4 C6 1_555 1_555
C7 C1 1_555 1_555
H5 C7 1_555 1_555
C8 C1 1_555 1_555
H6 C8 1_555 1_555
C9 C7 1_555 1_555
H7 C9 1_555 1_555
C10 N4 1_555 1_555
H8 C10 1_555 1_555
Ag2 N8 1_555 1_555
N5 C11 1_555 1_555
N6 N7 1_555 1_555
N7 C14 1_555 1_555
C11 H9 1_555 1_555
C12 H10 1_555 1_555
C13 N6 1_555 1_555
C14 C15 1_555 1_555
C15 H11 1_555 1_555
C16 N5 1_555 1_555
H12 C16 1_555 1_555
C17 C11 1_555 1_555
H13 C17 1_555 1_555
C18 C13 1_555 1_555
H14 C18 1_555 1_555
N8 C19 1_555 1_555
C19 C18 1_555 1_555
H15 C19 1_555 1_555
C20 C12 1_555 1_555
H16 C20 1_555 1_555
S1 O1 1_555 1_555
S2 O4 1_555 1_555
O2 S1 1_555 1_555
O3 S1 1_555 1_555
O5 S2 1_555 1_555
O6 S2 1_555 1_555
C21 H17 1_555 1_555
C22 S1 1_555 1_555
C23 S2 1_555 1_555
C24 C22 1_555 1_555
H18 C24 1_555 1_555
C25 C23 1_555 1_555
H19 C25 1_555 1_555
C26 C24 1_555 1_555
H20 C26 1_555 1_555
O7 H21 1_555 1_555
H22 O7 1_555 1_555
O8 H23 1_555 1_555
H24 O8 1_555 1_555
O9 H25 1_555 1_555
H26 O9 1_555 1_555
O10 H27 1_555 1_555
H28 O10 1_555 1_555
Ag1_2 N4 1_555 1_555
N4_2 Ag1 1_555 1_555
Ag2_2 N5 1_555 1_555
N5_2 Ag2 1_555 1_555
C4 C6 1_555 1_555
C8 C10 1_555 1_555
C12 C13 1_555 1_555
C14 C17 1_555 1_555
C15 C16 1_555 1_555
N8 C20 1_555 1_555
C21 C22 1_555 1_555
C21 C23 1_555 1_555
C25 C26 1_555 1_555

#END
