
#######################################################################
#
#                 Cambridge Crystallographic Data Centre
#                                CCDC 
#
#######################################################################
#
# If this CIF has been generated from an entry in the Cambridge 
# Structural Database, then it will include bibliographic, chemical, 
# crystal, experimental, refinement or atomic coordinate data resulting 
# from the CCDC's data processing and validation procedures.
#
#######################################################################

data_SUPZAG
_symmetry_cell_setting           triclinic
_symmetry_space_group_name_H-M   'P -1'
_symmetry_Int_Tables_number      2
_space_group_name_Hall           '-P 1'
loop_
_symmetry_equiv_pos_site_id
_symmetry_equiv_pos_as_xyz
1 x,y,z
2 -x,-y,-z
_cell_length_a                   8.2505(8)
_cell_length_b                   10.2487(11)
_cell_length_c                   16.795(2)
_cell_angle_alpha                86.545(6)
_cell_angle_beta                 86.590(6)
_cell_angle_gamma                75.057(5)
_cell_volume                     1368.19
loop_
_atom_site_label
_atom_site_type_symbol
_atom_site_fract_x
_atom_site_fract_y
_atom_site_fract_z
O1 O 0.9485(2) 0.39040(19) 0.23631(12)
O2 O 1.0083(3) 0.5295(2) 0.12272(13)
O3 O 1.4854(3) 0.0213(2) 0.23031(14)
O4 O 0.9511(3) 0.6230(2) 0.25275(15)
O5 O 1.5638(3) 0.0770(3) 0.35716(14)
O6 O 1.7505(3) 0.0778(3) 0.23997(17)
C1 C 1.4817(3) 0.2701(3) 0.24959(18)
C2 C 0.3801(3) 0.8642(3) 0.02003(17)
C3 C 1.2353(3) 0.4483(3) 0.22611(17)
C4 C 0.4893(3) 0.8253(3) 0.08221(18)
H1 H 0.4776 0.8794 0.1258
C5 C 1.3101(3) 0.3119(3) 0.23928(17)
H2 H 1.2462 0.2490 0.2412
C6 C 1.3299(4) 0.5436(3) 0.22417(18)
H3 H 1.2791 0.6352 0.2158
C7 C 1.5773(4) 0.3642(4) 0.24680(18)
H4 H 1.6926 0.3356 0.2529
C8 C 1.5012(4) 0.4990(3) 0.23504(19)
H5 H 1.5653 0.5616 0.2343
Ag1 Ag 0.83478(3) 0.43889(2) 0.01887(2)
S1 S 1.01758(9) 0.50227(7) 0.20835(5)
S2 S 1.57890(9) 0.09644(9) 0.27142(5)
N1 N 0.0003(3) 1.2381(2) 0.02055(15)
C9 C 0.2468(3) 0.9914(3) 0.02027(18)
N2 N 0.6378(3) 0.6230(2) 0.01916(15)
C10 C 0.1707(3) 1.0518(3) -0.04982(18)
H6 H 0.2016 1.0104 -0.0981
C11 C 0.1908(4) 1.0588(3) 0.09027(18)
H7 H 0.2359 1.0221 0.1386
C12 C 0.0504(4) 1.1723(3) -0.04690(18)
H8 H 0.0010 1.2104 -0.0941
C13 C 0.6146(4) 0.7070(3) 0.07958(18)
H9 H 0.6867 0.6842 0.1216
C14 C 0.0694(4) 1.1793(3) 0.08845(19)
H10 H 0.0337 1.2218 0.1361
C15 C 0.4058(3) 0.7771(3) -0.04353(18)
H11 H 0.3375 0.7988 -0.0870
C16 C 0.5323(3) 0.6596(3) -0.04127(18)
H12 H 0.5457 0.6026 -0.0835
O2A O 0.9917(3) 0.4705(2) -0.12272(13)
Ag1_2 Ag -0.16522(3) 1.43889(2) 0.01887(2)
Ag1A Ag 1.16522(3) 0.56111(2) -0.01887(2)
N1_2 N 1.0003(3) 0.2381(2) 0.02055(15)
O7 O 1.6608(4) 0.1636(3) 0.67753(16)
H13 H 1.614(6) 0.112(5) 0.699(3)
H14 H 1.752(5) 0.152(4) 0.698(3)
O8 O 2.0401(3) -0.1327(3) 0.24463(16)
H15 H 2.006(5) -0.205(4) 0.247(2)
H16 H 1.962(6) -0.074(5) 0.249(3)
C17 C 2.0675(4) -0.3068(3) 0.51384(18)
Ag2 Ag 1.61250(3) 0.11637(2) 0.52046(2)
N3 N 2.4251(3) -0.6934(3) 0.51682(16)
C18 C 2.1929(4) -0.4390(3) 0.51475(18)
C19 C 2.2465(5) -0.5075(4) 0.5836(2)
H17 H 2.2049 -0.4705 0.6322
C20 C 2.3622(6) -0.6316(5) 0.5828(2)
H18 H 2.3980 -0.6743 0.6315
N4 N 1.8155(3) -0.0637(2) 0.51517(16)
C21 C 2.2241(16) -0.5108(7) 0.4439(4)
H19 H 2.1600 -0.4876 0.3990
C22 C 1.9657(16) -0.2555(8) 0.5825(5)
H20 H 1.9575 -0.3120 0.6272
C23 C 1.8785(4) -0.1215(4) 0.4478(2)
H21 H 1.8370 -0.0797 0.3998
C24 C 2.3724(7) -0.6280(4) 0.4506(2)
H22 H 2.3843 -0.6741 0.4037
C25 C 2.0031(4) -0.2410(4) 0.4454(2)
H23 H 2.0434 -0.2770 0.3964
C26 C 1.8826(7) -0.1251(4) 0.5815(2)
H24 H 1.8282 -0.0968 0.6299
Ag2_2 Ag 2.61250(3) -0.88363(2) 0.52046(2)
N3_2 N 1.4251(3) 0.3066(3) 0.51682(16)
C27? C 2.3008(15) -0.4939(8) 0.4494(5)
H25? H 2.3219 -0.4382 0.4064
C28? C 2.0371(16) -0.2350(8) 0.5837(4)
H26? H 2.1069 -0.2546 0.6266
loop_
_geom_bond_atom_site_label_1
_geom_bond_atom_site_label_2
_geom_bond_site_symmetry_1
_geom_bond_site_symmetry_2
O1 S1 1_555 1_555
O2 Ag1 1_555 1_555
O3 S2 1_555 1_555
O4 S1 1_555 1_555
O5 S2 1_555 1_555
O6 S2 1_555 1_555
C1 C5 1_555 1_555
C2 C4 1_555 1_555
C3 C5 1_555 1_555
C4 H1 1_555 1_555
C5 H2 1_555 1_555
C6 C3 1_555 1_555
H3 C6 1_555 1_555
C7 C1 1_555 1_555
H4 C7 1_555 1_555
C8 C6 1_555 1_555
H5 C8 1_555 1_555
Ag1 N2 1_555 1_555
S1 O2 1_555 1_555
S2 C1 1_555 1_555
N1 C12 1_555 1_555
C9 C2 1_555 1_555
N2 C13 1_555 1_555
C10 C9 1_555 1_555
H6 C10 1_555 1_555
C11 C9 1_555 1_555
H7 C11 1_555 1_555
C12 C10 1_555 1_555
H8 C12 1_555 1_555
C13 C4 1_555 1_555
H9 C13 1_555 1_555
C14 N1 1_555 1_555
H10 C14 1_555 1_555
C15 C2 1_555 1_555
H11 C15 1_555 1_555
C16 N2 1_555 1_555
H12 C16 1_555 1_555
O7 H13 1_555 1_555
H14 O7 1_555 1_555
O8 H15 1_555 1_555
H16 O8 1_555 1_555
C17 C18 1_555 1_555
Ag2 N4 1_555 1_555
N3 C20 1_555 1_555
C18 C19 1_555 1_555
C19 H17 1_555 1_555
C20 C19 1_555 1_555
H18 C20 1_555 1_555
N4 C23 1_555 1_555
C21 C18 1_555 1_555
H19 C21 1_555 1_555
C22 C17 1_555 1_555
H20 C22 1_555 1_555
C23 H21 1_555 1_555
C24 N3 1_555 1_555
H22 C24 1_555 1_555
C25 C17 1_555 1_555
H23 C25 1_555 1_555
C26 N4 1_555 1_555
H24 C26 1_555 1_555
O2A Ag1 1_555 1_555
Ag1_2 N1 1_555 1_555
Ag1A O2 1_555 1_555
N1_2 Ag1 1_555 1_555
Ag2_2 N3 1_555 1_555
N3_2 Ag2 1_555 1_555
C3 S1 1_555 1_555
C7 C8 1_555 1_555
C11 C14 1_555 1_555
C15 C16 1_555 1_555
C21 C24 1_555 1_555
C22 C26 1_555 1_555
C23 C25 1_555 1_555
O2A Ag1A 1_555 1_555

#END
