
#######################################################################
#
#                 Cambridge Crystallographic Data Centre
#                                CCDC 
#
#######################################################################
#
# If this CIF has been generated from an entry in the Cambridge 
# Structural Database, then it will include bibliographic, chemical, 
# crystal, experimental, refinement or atomic coordinate data resulting 
# from the CCDC's data processing and validation procedures.
#
#######################################################################

data_SUQCAI
_symmetry_cell_setting           monoclinic
_symmetry_space_group_name_H-M   'P 21'
_symmetry_Int_Tables_number      4
_space_group_name_Hall           'P 2yb'
loop_
_symmetry_equiv_pos_site_id
_symmetry_equiv_pos_as_xyz
1 x,y,z
2 -x,1/2+y,-z
_cell_length_a                   18.635(2)
_cell_length_b                   9.207(2)
_cell_length_c                   19.719(14)
_cell_angle_alpha                90
_cell_angle_beta                 116.60(2)
_cell_angle_gamma                90
_cell_volume                     3025.14
loop_
_atom_site_label
_atom_site_type_symbol
_atom_site_fract_x
_atom_site_fract_y
_atom_site_fract_z
O1 O 0.42452 0.548450 -0.10689
O2 O 0.40972 0.34138 -0.18124
O3 O -0.07569 0.83904 -0.41385
O4 O 0.07532 0.08938 -0.90817
O5 O 0.04976 0.24748 -0.82835
O6 O 0.58523 -0.14857 -0.57270
O7 O 0.31208 0.60506 -0.56225
O8 O 0.18263 0.06913 -0.47203
N1 N 0.23992 0.42401 -0.44668
N2 N 0.29341 0.60192 -0.27352
N3 N 0.25165 0.26587 -0.57709
N4 N 0.22581 0.12323 -0.75213
C1 C 0.23217 0.49440 -0.39982
C2 C 0.22537 0.58129 -0.34692
C3 C 0.14933 0.65089 -0.36328
C4 C 0.07994 0.62787 -0.43279
H1 H 0.08308 0.56524 -0.46966
C5 C 0.00792 0.69436 -0.44812
H2 H -0.03725 0.67962 -0.49581
C6 C 0.00111 0.78287 -0.39412
C7 C 0.06710 0.80604 -0.32586
H3 H 0.06283 0.86572 -0.28853
C8 C 0.14007 0.74215 -0.31145
H4 H 0.18537 0.76146 -0.26445
C9 C 0.36919 0.61647 -0.27796
H5 H 0.41335 0.62487 -0.22668
H6 H 0.36750 0.70358 -0.30720
H7 H 0.37760 0.53072 -0.30298
C10 C 0.29394 0.50474 -0.21470
H8 H 0.23663 0.49500 -0.22459
C11 C 0.33931 0.56153 -0.13296
H9 H 0.32418 0.49944 -0.09977
C12 C 0.45124 0.40237 -0.10708
C13 C 0.32376 0.34940 -0.21513
H10 H 0.30384 0.28488 -0.18710
H11 H 0.30144 0.31420 -0.26811
C14 C 0.44213 0.31217 -0.04741
H12 H 0.46564 0.36428 0.00105
H13 H 0.46980 0.21913 -0.04170
H14 H 0.38504 0.29458 -0.06288
C15 C 0.53663 0.41458 -0.09291
H15 H 0.56800 0.46189 -0.04387
H16 H 0.53966 0.47248 -0.13325
H17 H 0.55833 0.31737 -0.09231
C16 C 0.31954 0.71599 -0.12389
C17 C 0.36125 0.83099 -0.13491
H18 H 0.40592 0.81237 -0.14465
C18 C 0.33799 0.97376 -0.13178
H19 H 0.36718 1.05218 -0.13872
C19 C 0.27309 1.00076 -0.11870
H20 H 0.25665 1.09797 -0.11744
C20 C 0.23175 0.88789 -0.10741
H21 H 0.18675 0.90686 -0.09824
C21 C 0.25566 0.74566 -0.10938
H22 H 0.22736 0.66795 -0.10055
C22 C -0.07849 0.96417 -0.37144
H23 H -0.06557 0.93504 -0.31943
H24 H -0.13244 1.00647 -0.39549
H25 H -0.03936 1.03627 -0.37049
C23 C 0.26572 0.20035 -0.62164
C24 C 0.28132 0.12310 -0.67270
C25 C 0.35928 0.05271 -0.64790
C26 C 0.41881 0.05947 -0.57269
H26 H 0.40893 0.11350 -0.53668
C27 C 0.49137 -0.01034 -0.54966
H27 H 0.52991 -0.00696 -0.49788
C28 C 0.50838 -0.08504 -0.60128
C29 C 0.45242 -0.09229 -0.67585
H28 H 0.46426 -0.14277 -0.71164
C30 C 0.37857 -0.02570 -0.69871
H29 H 0.33979 -0.03320 -0.75026
C31 C 0.22413 0.26101 -0.78927
H30 H 0.19117 0.25088 -0.84411
H31 H 0.27889 0.28839 -0.77895
H32 H 0.20119 0.33636 -0.76971
C32 C 0.14855 0.05316 -0.77110
H33 H 0.15951 -0.02730 -0.73368
C33 C 0.11003 -0.01679 -0.84992
H34 H 0.06602 -0.08217 -0.85252
C34 C 0.01697 0.18199 -0.90127
C35 C 0.08368 0.14917 -0.76607
H35 H 0.04074 0.08673 -0.76543
H36 H 0.10753 0.20492 -0.71807
C36 C 0.00356 0.30225 -0.95696
H37 H -0.03748 0.36866 -0.95684
H38 H -0.01444 0.26120 -1.00783
H39 H 0.05383 0.35547 -0.94260
C37 C -0.05958 0.09658 -0.91783
H40 H -0.08008 0.05221 -0.96822
H41 H -0.10014 0.16246 -0.91630
H42 H -0.04754 0.02037 -0.87956
C38 C 0.16738 -0.10707 -0.86793
C39 C 0.20675 -0.05210 -0.90670
H43 H 0.19678 0.04524 -0.92451
C40 C 0.26003 -0.13431 -0.92029
H44 H 0.28715 -0.09277 -0.94649
C41 C 0.27490 -0.27675 -0.89645
H45 H 0.31188 -0.33363 -0.90609
C42 C 0.23557 -0.33446 -0.85880
H46 H 0.24468 -0.43290 -0.84272
C43 C 0.18226 -0.25090 -0.84367
H47 H 0.15588 -0.29205 -0.81668
C44 C 0.59321 -0.26867 -0.61382
H48 H 0.64493 -0.31641 -0.58400
H49 H 0.59059 -0.23475 -0.66199
H50 H 0.54962 -0.33785 -0.62391
C45 C 0.34544 0.73658 -0.54223
H51 H 0.30927 0.81281 -0.57541
H52 H 0.39716 0.74117 -0.54498
C46 C 0.35839 0.75495 -0.45893
H53 H 0.32068 0.82745 -0.45731
H54 H 0.41351 0.78716 -0.42699
H55 H 0.34912 0.66179 -0.44013
C47 C 0.29388 0.58048 -0.64684
H56 H 0.25097 0.50660 -0.66903
H57 H 0.27295 0.67224 -0.67499
C48 C 0.36041 0.53492 -0.65804
H58 H 0.34364 0.52212 -0.71240
H59 H 0.38083 0.44258 -0.63170
H60 H 0.40279 0.60856 -0.63778
C49 C 0.14844 -0.06515 -0.50845
H61 H 0.09553 -0.07996 -0.50907
H62 H 0.18388 -0.14695 -0.48061
C50 C 0.13915 -0.05957 -0.58715
H63 H 0.11973 -0.15363 -0.61185
H64 H 0.19112 -0.03776 -0.58608
H65 H 0.10047 0.01638 -0.61552
C51 C 0.19462 0.07276 -0.39453
H66 H 0.14650 0.03221 -0.39233
H67 H 0.20025 0.17510 -0.37750
C52 C 0.26649 -0.01004 -0.34152
H68 H 0.27520 0.00629 -0.28928
H69 H 0.31363 0.02292 -0.34698
H70 H 0.25796 -0.11386 -0.35338
Li1 Li 0.30918 0.43636 -0.50556
Li2 Li 0.18481 0.25432 -0.51963
Li1A Li 0.69082 -0.06364 -0.49444
O6A O 0.41477 0.35143 -0.42730
Li2A Li -0.18481 0.75432 -0.48037
O3A O 0.07569 0.33904 -0.58615
O9 O 0.63396 -3.10681 -0.11462
C53 C 0.67856 -3.22810 -0.07397
H71 H 0.68769 -3.29511 -0.10861
H72 H 0.64865 -3.28107 -0.05098
C54 C 0.75673 -3.17661 -0.01363
H73 H 0.78826 -3.26002 0.01531
H74 H 0.74719 -3.11046 0.02043
H75 H 0.78626 -3.12541 -0.03686
C55 C 0.56049 -3.14623 -0.17456
H76 H 0.52934 -3.20668 -0.15563
H77 H 0.56949 -3.20302 -0.21270
C56 C 0.51494 -3.00744 -0.20997
H78 H 0.46081 -3.03183 -0.24863
H79 H 0.54334 -2.95368 -0.23351
H80 H 0.51130 -2.94734 -0.17061
O10 O 0.97474 -3.20479 -0.76337
C57 C 0.92732 -3.12668 -0.73618
H81 H 0.87626 -3.09914 -0.78000
H82 H 0.95580 -3.03588 -0.71214
C58 C 0.90901 -3.20425 -0.68226
H83 H 0.87953 -3.14030 -0.66379
H84 H 0.95903 -3.23576 -0.63948
H85 H 0.87605 -3.28938 -0.70689
C59 C 0.93433 -3.31395 -0.81108
H86 H 0.88307 -3.27565 -0.85079
H87 H 0.92137 -3.38920 -0.78242
C60 C 0.98028 -3.38223 -0.84812
H88 H 0.98699 -3.31180 -0.88210
H89 H 0.95092 -3.46711 -0.87739
H90 H 1.03312 -3.41267 -0.80921
loop_
_geom_bond_atom_site_label_1
_geom_bond_atom_site_label_2
_geom_bond_site_symmetry_1
_geom_bond_site_symmetry_2
O1 C11 1_555 1_555
O2 C12 1_555 1_555
O3 C6 1_555 1_555
O4 C33 1_555 1_555
O5 C34 1_555 1_555
O6 C28 1_555 1_555
O7 C45 1_555 1_555
O8 C49 1_555 1_555
N1 C1 1_555 1_555
N2 C2 1_555 1_555
N3 C23 1_555 1_555
N4 C24 1_555 1_555
C1 C2 1_555 1_555
C2 C3 1_555 1_555
C3 C4 1_555 1_555
C4 H1 1_555 1_555
C5 C4 1_555 1_555
H2 C5 1_555 1_555
C6 C5 1_555 1_555
C7 C6 1_555 1_555
H3 C7 1_555 1_555
C8 C3 1_555 1_555
H4 C8 1_555 1_555
C9 N2 1_555 1_555
H5 C9 1_555 1_555
H6 C9 1_555 1_555
H7 C9 1_555 1_555
C10 N2 1_555 1_555
H8 C10 1_555 1_555
C11 C10 1_555 1_555
H9 C11 1_555 1_555
C12 O1 1_555 1_555
C13 O2 1_555 1_555
H10 C13 1_555 1_555
H11 C13 1_555 1_555
C14 C12 1_555 1_555
H12 C14 1_555 1_555
H13 C14 1_555 1_555
H14 C14 1_555 1_555
C15 C12 1_555 1_555
H15 C15 1_555 1_555
H16 C15 1_555 1_555
H17 C15 1_555 1_555
C16 C11 1_555 1_555
C17 C16 1_555 1_555
H18 C17 1_555 1_555
C18 C17 1_555 1_555
H19 C18 1_555 1_555
C19 C18 1_555 1_555
H20 C19 1_555 1_555
C20 C19 1_555 1_555
H21 C20 1_555 1_555
C21 C16 1_555 1_555
H22 C21 1_555 1_555
C22 O3 1_555 1_555
H23 C22 1_555 1_555
H24 C22 1_555 1_555
H25 C22 1_555 1_555
C23 C24 1_555 1_555
C24 C25 1_555 1_555
C25 C26 1_555 1_555
C26 H26 1_555 1_555
C27 C26 1_555 1_555
H27 C27 1_555 1_555
C28 C27 1_555 1_555
C29 C28 1_555 1_555
H28 C29 1_555 1_555
C30 C25 1_555 1_555
H29 C30 1_555 1_555
C31 N4 1_555 1_555
H30 C31 1_555 1_555
H31 C31 1_555 1_555
H32 C31 1_555 1_555
C32 N4 1_555 1_555
H33 C32 1_555 1_555
C33 C32 1_555 1_555
H34 C33 1_555 1_555
C34 O4 1_555 1_555
C35 O5 1_555 1_555
H35 C35 1_555 1_555
H36 C35 1_555 1_555
C36 C34 1_555 1_555
H37 C36 1_555 1_555
H38 C36 1_555 1_555
H39 C36 1_555 1_555
C37 C34 1_555 1_555
H40 C37 1_555 1_555
H41 C37 1_555 1_555
H42 C37 1_555 1_555
C38 C33 1_555 1_555
C39 C38 1_555 1_555
H43 C39 1_555 1_555
C40 C39 1_555 1_555
H44 C40 1_555 1_555
C41 C40 1_555 1_555
H45 C41 1_555 1_555
C42 C41 1_555 1_555
H46 C42 1_555 1_555
C43 C38 1_555 1_555
H47 C43 1_555 1_555
C44 O6 1_555 1_555
H48 C44 1_555 1_555
H49 C44 1_555 1_555
H50 C44 1_555 1_555
C45 H51 1_555 1_555
H52 C45 1_555 1_555
C46 C45 1_555 1_555
H53 C46 1_555 1_555
H54 C46 1_555 1_555
H55 C46 1_555 1_555
C47 O7 1_555 1_555
H56 C47 1_555 1_555
H57 C47 1_555 1_555
C48 C47 1_555 1_555
H58 C48 1_555 1_555
H59 C48 1_555 1_555
H60 C48 1_555 1_555
C49 H61 1_555 1_555
H62 C49 1_555 1_555
C50 C49 1_555 1_555
H63 C50 1_555 1_555
H64 C50 1_555 1_555
H65 C50 1_555 1_555
C51 O8 1_555 1_555
H66 C51 1_555 1_555
H67 C51 1_555 1_555
C52 C51 1_555 1_555
H68 C52 1_555 1_555
H69 C52 1_555 1_555
H70 C52 1_555 1_555
Li1 O7 1_555 1_555
Li2 O8 1_555 1_555
O9 C53 1_555 1_555
C53 H71 1_555 1_555
H72 C53 1_555 1_555
C54 C53 1_555 1_555
H73 C54 1_555 1_555
H74 C54 1_555 1_555
H75 C54 1_555 1_555
C55 O9 1_555 1_555
H76 C55 1_555 1_555
H77 C55 1_555 1_555
C56 C55 1_555 1_555
H78 C56 1_555 1_555
H79 C56 1_555 1_555
H80 C56 1_555 1_555
O10 C57 1_555 1_555
C57 H81 1_555 1_555
H82 C57 1_555 1_555
C58 C57 1_555 1_555
H83 C58 1_555 1_555
H84 C58 1_555 1_555
H85 C58 1_555 1_555
C59 O10 1_555 1_555
H86 C59 1_555 1_555
H87 C59 1_555 1_555
C60 C59 1_555 1_555
H88 C60 1_555 1_555
H89 C60 1_555 1_555
H90 C60 1_555 1_555
Li1A O6 1_555 1_555
O6A Li1 1_555 1_555
Li2A O3 1_555 1_555
O3A Li2 1_555 1_555
N1 Li1 1_555 1_555
N1 Li2 1_555 1_555
N3 Li1 1_555 1_555
N3 Li2 1_555 1_555
C7 C8 1_555 1_555
C10 C13 1_555 1_555
C20 C21 1_555 1_555
C29 C30 1_555 1_555
C32 C35 1_555 1_555
C42 C43 1_555 1_555

#END
