
#######################################################################
#
#                 Cambridge Crystallographic Data Centre
#                                CCDC 
#
#######################################################################
#
# If this CIF has been generated from an entry in the Cambridge 
# Structural Database, then it will include bibliographic, chemical, 
# crystal, experimental, refinement or atomic coordinate data resulting 
# from the CCDC's data processing and validation procedures.
#
#######################################################################

data_SUQFOB
_symmetry_cell_setting           monoclinic
_symmetry_space_group_name_H-M   'C 2/c'
_symmetry_Int_Tables_number      15
_space_group_name_Hall           '-C 2yn'
loop_
_symmetry_equiv_pos_site_id
_symmetry_equiv_pos_as_xyz
1 x,y,z
2 -x,y,1/2-z
3 1/2+x,1/2+y,z
4 1/2-x,1/2+y,1/2-z
5 -x,-y,-z
6 x,-y,1/2+z
7 1/2-x,1/2-y,-z
8 1/2+x,1/2-y,1/2+z
_cell_length_a                   26.0237(10)
_cell_length_b                   9.3012(4)
_cell_length_c                   20.2799(8)
_cell_angle_alpha                90
_cell_angle_beta                 117.533(2)
_cell_angle_gamma                90
_cell_volume                     4352.84
loop_
_atom_site_label
_atom_site_type_symbol
_atom_site_fract_x
_atom_site_fract_y
_atom_site_fract_z
I1 I 0.54350(2) -0.13785(2) 0.59462(2)
Cu1 Cu 0.55293(2) 0.11441(3) 0.53666(2)
N1 N 0.53660(7) 0.25910(18) 0.60248(9)
C1 C 0.55661(13) 0.2337(3) 0.67463(13)
H1 H 0.5781 0.1492 0.6943
C2 C 0.54777(14) 0.3236(3) 0.72218(13)
H2 H 0.5634 0.3013 0.7730
C3 C 0.51546(10) 0.4476(2) 0.69404(12)
S1 S 0.5000 0.56850(8) 0.7500
C4 C 0.49602(9) 0.4772(2) 0.62020(12)
H3 H 0.4754 0.5623 0.5993
C5 C 0.50724(10) 0.3802(2) 0.57685(12)
H4 H 0.4932 0.4014 0.5261
P1 P 0.63519(2) 0.15382(5) 0.53018(3)
C6 C 0.64473(8) 0.0631(2) 0.45712(12)
C7 C 0.59852(10) 0.0642(3) 0.38615(14)
H5 H 0.5627 0.1029 0.3782
C8 C 0.60467(12) 0.0087(4) 0.32682(16)
H6 H 0.5737 0.0134 0.2784
C9 C 0.65644(12) -0.0536(4) 0.33904(17)
H7 H 0.6605 -0.0927 0.2989
C10 C 0.70179(11) -0.0588(3) 0.40906(16)
H8 H 0.7368 -0.1024 0.4170
C11 C 0.69659(9) -0.0002(2) 0.46841(14)
H9 H 0.7281 -0.0032 0.5164
C12 C 0.70339(9) 0.1188(2) 0.61353(12)
C13 C 0.70691(12) -0.0008(4) 0.65616(17)
H10 H 0.6741 -0.0586 0.6436
C14 C 0.75898(14) -0.0348(5) 0.7173(2)
H11 H 0.7614 -0.1173 0.7453
C15 C 0.80689(13) 0.0498(5) 0.73752(17)
H12 H 0.8419 0.0252 0.7791
C16 C 0.80371(11) 0.1708(4) 0.69689(14)
H13 H 0.8362 0.2309 0.7113
C17 C 0.75226(9) 0.2038(3) 0.63448(12)
H14 H 0.7505 0.2850 0.6059
C18 C 0.64186(8) 0.3431(2) 0.51083(11)
C19 C 0.63685(9) 0.4443(2) 0.55802(13)
H15 H 0.6321 0.4135 0.5990
C20 C 0.63872(11) 0.5899(3) 0.54517(18)
H16 H 0.6358 0.6576 0.5777
C21 C 0.64488(12) 0.6356(3) 0.4846(2)
H17 H 0.6452 0.7344 0.4751
C22 C 0.65051(11) 0.5365(3) 0.43786(16)
H18 H 0.6551 0.5678 0.3968
C23 C 0.64941(10) 0.3911(2) 0.45119(13)
H19 H 0.6538 0.3241 0.4195
N1A N 0.46340(7) 0.25910(18) 0.89752(9)
C1A C 0.44339(13) 0.2337(3) 0.82537(13)
H1A H 0.4219 0.1492 0.8057
C2A C 0.45223(14) 0.3236(3) 0.77782(13)
H2A H 0.4366 0.3013 0.7270
C3A C 0.48454(10) 0.4476(2) 0.80596(12)
C4A C 0.50398(9) 0.4772(2) 0.87980(12)
H3A H 0.5246 0.5623 0.9007
C5A C 0.49276(10) 0.3802(2) 0.92315(12)
H4A H 0.5068 0.4014 0.9739
I1A I 0.45650(2) -0.13785(2) 0.90538(2)
Cu1A Cu 0.44707(2) 0.11441(3) 0.96334(2)
P1A P 0.36481(2) 0.15382(5) 0.96982(3)
C6A C 0.35527(8) 0.0631(2) 1.04288(12)
C7A C 0.40148(10) 0.0642(3) 1.11385(14)
H5A H 0.4373 0.1029 1.1218
C8A C 0.39533(12) 0.0087(4) 1.17318(16)
H6A H 0.4263 0.0134 1.2216
C9A C 0.34356(12) -0.0536(4) 1.16096(17)
H7A H 0.3395 -0.0927 1.2011
C10A C 0.29821(11) -0.0588(3) 1.09094(16)
H8A H 0.2632 -0.1024 1.0830
C11A C 0.30341(9) -0.0002(2) 1.03159(14)
H9A H 0.2719 -0.0032 0.9836
C12A C 0.29661(9) 0.1188(2) 0.88647(12)
C13A C 0.29309(12) -0.0008(4) 0.84384(17)
H10A H 0.3259 -0.0586 0.8564
C14A C 0.24102(14) -0.0348(5) 0.7827(2)
H11A H 0.2386 -0.1173 0.7547
C15A C 0.19311(13) 0.0498(5) 0.76248(17)
H12A H 0.1581 0.0252 0.7209
C16A C 0.19629(11) 0.1708(4) 0.80311(14)
H13A H 0.1638 0.2309 0.7887
C17A C 0.24774(9) 0.2038(3) 0.86552(12)
H14A H 0.2495 0.2850 0.8941
C18A C 0.35814(8) 0.3431(2) 0.98917(11)
C19A C 0.36315(9) 0.4443(2) 0.94198(13)
H15A H 0.3679 0.4135 0.9010
C20A C 0.36128(11) 0.5899(3) 0.95483(18)
H16A H 0.3642 0.6576 0.9223
C21A C 0.35512(12) 0.6356(3) 1.0154(2)
H17A H 0.3548 0.7344 1.0249
C22A C 0.34949(11) 0.5365(3) 1.06214(16)
H18A H 0.3449 0.5678 1.1032
C23A C 0.35059(10) 0.3911(2) 1.04881(13)
H19A H 0.3462 0.3241 1.0805
I1D I 0.45650(2) 0.13785(2) 0.40538(2)
I1E I 0.54350(2) 0.13785(2) 1.09462(2)
Cu1D Cu 0.44707(2) -0.11441(3) 0.46334(2)
Cu1E Cu 0.55293(2) -0.11441(3) 1.03666(2)
loop_
_geom_bond_atom_site_label_1
_geom_bond_atom_site_label_2
_geom_bond_site_symmetry_1
_geom_bond_site_symmetry_2
I1 Cu1 1_555 1_555
Cu1 N1 1_555 1_555
N1 C1 1_555 1_555
C1 H1 1_555 1_555
C2 C1 1_555 1_555
H2 C2 1_555 1_555
C3 C2 1_555 1_555
S1 C3 1_555 1_555
C4 C3 1_555 1_555
H3 C4 1_555 1_555
C5 N1 1_555 1_555
H4 C5 1_555 1_555
P1 Cu1 1_555 1_555
C6 P1 1_555 1_555
C7 C6 1_555 1_555
H5 C7 1_555 1_555
C8 C7 1_555 1_555
H6 C8 1_555 1_555
C9 C8 1_555 1_555
H7 C9 1_555 1_555
C10 C9 1_555 1_555
H8 C10 1_555 1_555
C11 C6 1_555 1_555
H9 C11 1_555 1_555
C12 P1 1_555 1_555
C13 C12 1_555 1_555
H10 C13 1_555 1_555
C14 C13 1_555 1_555
H11 C14 1_555 1_555
C15 C14 1_555 1_555
H12 C15 1_555 1_555
C16 C15 1_555 1_555
H13 C16 1_555 1_555
C17 C12 1_555 1_555
H14 C17 1_555 1_555
C18 P1 1_555 1_555
C19 C18 1_555 1_555
H15 C19 1_555 1_555
C20 C19 1_555 1_555
H16 C20 1_555 1_555
C21 C20 1_555 1_555
H17 C21 1_555 1_555
C22 C21 1_555 1_555
H18 C22 1_555 1_555
C23 C18 1_555 1_555
H19 C23 1_555 1_555
N1A C1A 1_555 1_555
C1A H1A 1_555 1_555
C2A C1A 1_555 1_555
H2A C2A 1_555 1_555
C3A S1 1_555 1_555
C4A C3A 1_555 1_555
H3A C4A 1_555 1_555
C5A N1A 1_555 1_555
H4A C5A 1_555 1_555
I1A Cu1A 1_555 1_555
Cu1A N1A 1_555 1_555
P1A Cu1A 1_555 1_555
C6A P1A 1_555 1_555
C7A C6A 1_555 1_555
H5A C7A 1_555 1_555
C8A C7A 1_555 1_555
H6A C8A 1_555 1_555
C9A C8A 1_555 1_555
H7A C9A 1_555 1_555
C10A C9A 1_555 1_555
H8A C10A 1_555 1_555
C11A C6A 1_555 1_555
H9A C11A 1_555 1_555
C12A P1A 1_555 1_555
C13A C12A 1_555 1_555
H10A C13A 1_555 1_555
C14A C13A 1_555 1_555
H11A C14A 1_555 1_555
C15A C14A 1_555 1_555
H12A C15A 1_555 1_555
C16A C15A 1_555 1_555
H13A C16A 1_555 1_555
C17A C12A 1_555 1_555
H14A C17A 1_555 1_555
C18A P1A 1_555 1_555
C19A C18A 1_555 1_555
H15A C19A 1_555 1_555
C20A C19A 1_555 1_555
H16A C20A 1_555 1_555
C21A C20A 1_555 1_555
H17A C21A 1_555 1_555
C22A C21A 1_555 1_555
H18A C22A 1_555 1_555
C23A C18A 1_555 1_555
H19A C23A 1_555 1_555
I1D Cu1 1_555 1_555
I1E Cu1A 1_555 1_555
Cu1D I1 1_555 1_555
Cu1E I1A 1_555 1_555
C4 C5 1_555 1_555
C10 C11 1_555 1_555
C16 C17 1_555 1_555
C22 C23 1_555 1_555
C2A C3A 1_555 1_555
C4A C5A 1_555 1_555
C10A C11A 1_555 1_555
C16A C17A 1_555 1_555
C22A C23A 1_555 1_555
I1D Cu1D 1_555 1_555
I1E Cu1E 1_555 1_555

#END
