
#######################################################################
#
#                 Cambridge Crystallographic Data Centre
#                                CCDC 
#
#######################################################################
#
# If this CIF has been generated from an entry in the Cambridge 
# Structural Database, then it will include bibliographic, chemical, 
# crystal, experimental, refinement or atomic coordinate data resulting 
# from the CCDC's data processing and validation procedures.
#
#######################################################################

data_SUQHUJ
_symmetry_cell_setting           rhombohedral
_symmetry_space_group_name_H-M   'R 3 2'
_symmetry_Int_Tables_number      155
_space_group_name_Hall           'R 3 2"'
loop_
_symmetry_equiv_pos_site_id
_symmetry_equiv_pos_as_xyz
1 x,y,z
2 -y,x-y,z
3 -x+y,-x,z
4 y,x,-z
5 x-y,-y,-z
6 -x,-x+y,-z
7 2/3+x,1/3+y,1/3+z
8 2/3-y,1/3+x-y,1/3+z
9 2/3-x+y,1/3-x,1/3+z
10 2/3+y,1/3+x,1/3-z
11 2/3+x-y,1/3-y,1/3-z
12 2/3-x,1/3-x+y,1/3-z
13 1/3+x,2/3+y,2/3+z
14 1/3-y,2/3+x-y,2/3+z
15 1/3-x+y,2/3-x,2/3+z
16 1/3+y,2/3+x,2/3-z
17 1/3+x-y,2/3-y,2/3-z
18 1/3-x,2/3-x+y,2/3-z
_cell_length_a                   13.9508(19)
_cell_length_b                   13.9508(19)
_cell_length_c                   22.402(7)
_cell_angle_alpha                90
_cell_angle_beta                 90
_cell_angle_gamma                120
_cell_volume                     3775.86
loop_
_atom_site_label
_atom_site_type_symbol
_atom_site_fract_x
_atom_site_fract_y
_atom_site_fract_z
In1 In 0.47964(5) 0.6667 0.1667
O1 O 0.6290(7) 0.6667 0.1667
O2 O 0.4324(6) 0.5551(5) 0.0912(3)
O3 O 0.2491(5) 0.4405(5) 0.1091(3)
O4 O 0.4215(6) 0.4215(6) 0.0000
O5 O 0.3333 0.6667 0.1667
C1 C 0.3373(7) 0.4686(7) 0.0828(4)
C2 C 0.3293(7) 0.3886(7) 0.0359(3)
C3 C 0.2503(9) 0.2896(8) 0.0234(5)
H1 H 0.1813 0.2517 0.0417
O2C O 0.5551(5) 0.4324(6) -0.0912(3)
O3C O 0.4405(5) 0.2491(5) -0.1091(3)
C1C C 0.4686(7) 0.3373(7) -0.0828(4)
C2C C 0.3886(7) 0.3293(7) -0.0359(3)
C3C C 0.2896(8) 0.2503(9) -0.0234(5)
H1C H 0.2517 0.1813 -0.0417
In1A In 0.3333 0.81294(5) 0.1667
O1A O 0.3333 0.9623(7) 0.1667
O2A O 0.4449(5) 0.8773(8) 0.0912(3)
O3A O 0.5595(5) 0.8086(7) 0.1091(3)
O4A O 0.5785(6) 1.0000(8) 0.0000
C1A C 0.5314(7) 0.8687(10) 0.0828(4)
C2A C 0.6114(7) 0.9407(10) 0.0359(3)
C3A C 0.7104(8) 0.9607(12) 0.0234(5)
H1A H 0.7483 0.9296 0.0417
O2E O 0.5676(6) 1.1227(8) -0.0912(3)
O3E O 0.7509(5) 1.1914(7) -0.1091(3)
C1E C 0.6627(7) 1.1313(10) -0.0828(4)
C2E C 0.6707(7) 1.0593(10) -0.0359(3)
C3E C 0.7497(9) 1.0393(12) -0.0234(5)
H1E H 0.8187 1.0704 -0.0417
In1B In 0.18706(5) 0.52036(5) 0.1667
O1B O 0.0377(7) 0.3710(7) 0.1667
O2B O 0.1227(8) 0.5676(6) 0.0912(3)
O3B O 0.1914(7) 0.7509(5) 0.1091(3)
O4B O 0.0000(8) 0.5785(6) 0.0000
C1B C 0.1313(10) 0.6627(7) 0.0828(4)
C2B C 0.0593(10) 0.6707(7) 0.0359(3)
C3B C 0.0393(12) 0.7497(9) 0.0234(5)
H1B H 0.0704 0.8187 0.0417
O2D O -0.1227(8) 0.4449(5) -0.0912(3)
O3D O -0.1914(7) 0.5595(5) -0.1091(3)
C1D C -0.1313(10) 0.5314(7) -0.0828(4)
C2D C -0.0593(10) 0.6114(7) -0.0359(3)
C3D C -0.0393(12) 0.7104(8) -0.0234(5)
H1D H -0.0704 0.7483 -0.0417
In1C In -0.3333 0.47964(5) -0.1667
In1C_2 In 0.6667 0.47964(5) -0.1667
In1D In -0.18706(5) 0.3333 -0.1667
In1D_2 In 0.81294(5) 1.3333 -0.1667
In1E In 0.52036(5) 0.18706(5) -0.1667
In1E_2 In 0.52036(5) 1.18706(5) -0.1667
O2I O 0.2218(5) 0.7657(6) 0.2421(3)
O2J O 0.5440(8) 0.7782(5) 0.2421(3)
O2K O 0.2343(6) 0.4560(8) 0.2421(3)
O3I O 0.1072(5) 0.5824(5) 0.2242(3)
O3J O 0.4753(7) 0.8928(5) 0.2242(3)
O3K O 0.4176(5) 0.5247(7) 0.2242(3)
N1 N 0.0000 0.0000 0.0000
O6 O 0.0000 0.083(2) 0.0000
O6A O -0.083(2) -0.0830(20) 0.0000
O6B O 0.0830(20) 0.0000 0.0000
O7 O 0.8538(11) 0.8490(13) 0.1660(7)
loop_
_geom_bond_atom_site_label_1
_geom_bond_atom_site_label_2
_geom_bond_site_symmetry_1
_geom_bond_site_symmetry_2
In1 O1 1_555 1_555
O2 In1 1_555 1_555
O3 C1 1_555 1_555
O4 C2 1_555 1_555
O5 In1 1_555 1_555
C1 O2 1_555 1_555
C2 C1 1_555 1_555
C3 C2 1_555 1_555
H1 C3 1_555 1_555
N1 O6 1_555 1_555
O2C C1C 1_555 1_555
O3C C1C 1_555 1_555
C1C C2C 1_555 1_555
C2C O4 1_555 1_555
C3C C3 1_555 1_555
H1C C3C 1_555 1_555
In1A O5 1_555 1_555
O1A In1A 1_555 1_555
O2A In1A 1_555 1_555
O3A In1 1_555 1_555
O4A C2A 1_555 1_555
C1A O2A 1_555 1_555
C2A C1A 1_555 1_555
C3A C2A 1_555 1_555
H1A C3A 1_555 1_555
O2E C1E 1_555 1_555
O3E C1E 1_555 1_555
C1E C2E 1_555 1_555
C2E O4A 1_555 1_555
C3E C3A 1_555 1_555
H1E C3E 1_555 1_555
In1B O3 1_555 1_555
O1B In1B 1_555 1_555
O2B In1B 1_555 1_555
O3B In1A 1_555 1_555
O4B C2B 1_555 1_555
C1B O2B 1_555 1_555
C2B C1B 1_555 1_555
C3B C2B 1_555 1_555
H1B C3B 1_555 1_555
O2D C1D 1_555 1_555
O3D C1D 1_555 1_555
C1D C2D 1_555 1_555
C2D O4B 1_555 1_555
C3D C3B 1_555 1_555
H1D C3D 1_555 1_555
In1C O3D 1_555 1_555
In1C_2 O2C 1_555 1_555
In1D O2D 1_555 1_555
In1D_2 O3E 1_555 1_555
In1E O3C 1_555 1_555
In1E_2 O2E 1_555 1_555
O2I In1A 1_555 1_555
O2J In1 1_555 1_555
O2K In1B 1_555 1_555
O3I In1B 1_555 1_555
O3J In1A 1_555 1_555
O3K In1 1_555 1_555
O6A N1 1_555 1_555
O6B N1 1_555 1_555
O5 In1B 1_555 1_555
C2C C3C 1_555 1_555
O3A C1A 1_555 1_555
C2E C3E 1_555 1_555
O3B C1B 1_555 1_555
C2D C3D 1_555 1_555

#END
