
#######################################################################
#
#                 Cambridge Crystallographic Data Centre
#                                CCDC 
#
#######################################################################
#
# If this CIF has been generated from an entry in the Cambridge 
# Structural Database, then it will include bibliographic, chemical, 
# crystal, experimental, refinement or atomic coordinate data resulting 
# from the CCDC's data processing and validation procedures.
#
#######################################################################

data_SUQJAR
_symmetry_cell_setting           tetragonal
_symmetry_space_group_name_H-M   'I 41/a m d'
_symmetry_Int_Tables_number      141
_space_group_name_Hall           '-I 4bd 2'
loop_
_symmetry_equiv_pos_site_id
_symmetry_equiv_pos_as_xyz
1 x,y,z
2 1/2-x,-y,1/2+z
3 1/4-y,3/4+x,1/4+z
4 1/4+y,1/4-x,3/4+z
5 1/2-x,y,1/2-z
6 x,-y,-z
7 1/4+y,3/4+x,1/4-z
8 1/4-y,1/4-x,3/4-z
9 1/2+x,1/2+y,1/2+z
10 -x,1/2-y,z
11 3/4-y,1/4+x,3/4+z
12 3/4+y,3/4-x,1/4+z
13 -x,1/2+y,-z
14 1/2+x,1/2-y,1/2-z
15 3/4+y,1/4+x,3/4-z
16 3/4-y,3/4-x,1/4-z
17 -x,-y,-z
18 1/2+x,y,1/2-z
19 3/4+y,1/4-x,3/4-z
20 3/4-y,3/4+x,1/4-z
21 1/2+x,-y,1/2+z
22 -x,y,z
23 3/4-y,1/4-x,3/4+z
24 3/4+y,3/4+x,1/4+z
25 1/2-x,1/2-y,1/2-z
26 x,1/2+y,-z
27 1/4+y,3/4-x,1/4-z
28 1/4-y,1/4+x,3/4-z
29 x,1/2-y,z
30 1/2-x,1/2+y,1/2+z
31 1/4-y,3/4-x,1/4+z
32 1/4+y,1/4+x,3/4+z
_cell_length_a                   9.7460(4)
_cell_length_b                   9.7460(4)
_cell_length_c                   31.081(2)
_cell_angle_alpha                90
_cell_angle_beta                 90
_cell_angle_gamma                90
_cell_volume                     2952.21
loop_
_atom_site_label
_atom_site_type_symbol
_atom_site_fract_x
_atom_site_fract_y
_atom_site_fract_z
In1 In -1.0000 0.7500 0.6250
O1 O -0.5000 0.7500 0.6487(2)
O2 O -0.7645(4) 0.7500 0.61545(12)
O3 O -0.8508(4) 0.7500 0.68076(11)
C1 C -0.7486(5) 0.7500 0.65582(18)
C2 C -0.6122(5) 0.7500 0.67566(17)
C3 C -0.5735(6) 0.7500 0.7171(2)
H1 H -0.6308 0.7500 0.7411
O2I O -0.2355(4) 0.7500 0.61545(12)
O3I O -0.1492(4) 0.7500 0.68076(11)
C1I C -0.2514(5) 0.7500 0.65582(18)
C2I C -0.3878(5) 0.7500 0.67566(17)
C3I C -0.4265(6) 0.7500 0.7171(2)
H1I H -0.3692 0.7500 0.7411
O1F O -1.0000 1.2500 0.6013(2)
O2F O -1.0000 0.9855(4) 0.63455(12)
O3F O -1.0000 0.8992(4) 0.56924(11)
C1F C -1.0000 1.0014(5) 0.59418(18)
C2F C -1.0000 1.1378(5) 0.57434(17)
C3F C -1.0000 1.1765(6) 0.5329(2)
H1F H -1.0000 1.1192 0.5089
O2O O -1.0000 1.5145(4) 0.63455(12)
O3O O -1.0000 1.6008(4) 0.56924(11)
C1O C -1.0000 1.4986(5) 0.59418(18)
C2O C -1.0000 1.3622(5) 0.57434(17)
C3O C -1.0000 1.3235(6) 0.5329(2)
H1O H -1.0000 1.3808 0.5089
In1_2 In -1.0000 1.7500 0.6250
In1_3 In 0.0000 0.7500 0.6250
O2I_2 O -1.2355(4) 0.7500 0.61545(12)
O2O_2 O -1.0000 0.5145(4) 0.63455(12)
O3I_2 O -1.1492(4) 0.7500 0.68076(11)
O3O_2 O -1.0000 0.6008(4) 0.56924(11)
N1 N -0.526(6) 1.171(5) 0.6017(17)
C4 C -0.400(8) 1.081(9) 0.591(4)
C5 C -0.619(7) 1.090(7) 0.633(2)
N1F N -0.579(5) 1.224(6) 0.6483(17)
C4F C -0.669(9) 1.350(8) 0.659(4)
C5F C -0.660(7) 1.131(7) 0.617(2)
N1I N -0.474(6) 1.329(5) 0.6017(17)
C4I C -0.600(8) 1.419(9) 0.591(4)
C5I C -0.381(7) 1.410(7) 0.633(2)
N1O N -0.421(5) 1.276(6) 0.6483(17)
C4O C -0.331(9) 1.150(8) 0.659(4)
C5O C -0.340(7) 1.369(7) 0.617(2)
N1S N -0.421(5) 1.224(6) 0.6483(17)
C4S C -0.331(9) 1.350(8) 0.659(4)
C5S C -0.340(7) 1.131(7) 0.617(2)
N1U N -0.474(6) 1.171(5) 0.6017(17)
C4U C -0.600(8) 1.081(9) 0.591(4)
C5U C -0.381(7) 1.090(7) 0.633(2)
N1Z N -0.579(5) 1.276(6) 0.6483(17)
C4Z C -0.669(9) 1.150(8) 0.659(4)
C5Z C -0.660(7) 1.369(7) 0.617(2)
N1BA N -0.526(6) 1.329(5) 0.6017(17)
C4BA C -0.400(8) 1.419(9) 0.591(4)
C5BA C -0.619(7) 1.410(7) 0.633(2)
H2? H -0.4996 1.2500 0.6141
H3? H -0.5726 1.1911 0.5775
H4? H -0.3412 1.1298 0.5716
H5? H -0.4298 0.9971 0.5780
H6? H -0.3510 1.0611 0.6171
H7? H -0.6992 1.1430 0.6395
H8? H -0.5697 1.0701 0.6588
H9? H -0.6466 1.0051 0.6194
loop_
_geom_bond_atom_site_label_1
_geom_bond_atom_site_label_2
_geom_bond_site_symmetry_1
_geom_bond_site_symmetry_2
In1 O2 1_555 1_555
O1 C2 1_555 1_555
O2 C1 1_555 1_555
O3 In1 1_555 1_555
C1 O3 1_555 1_555
C2 C1 1_555 1_555
C3 C2 1_555 1_555
H1 C3 1_555 1_555
N1 C4 1_555 1_555
C5 N1 1_555 1_555
O2I C1I 1_555 1_555
O3I C1I 1_555 1_555
C1I C2I 1_555 1_555
C2I O1 1_555 1_555
C3I C3 1_555 1_555
H1I C3I 1_555 1_555
O1F C2F 1_555 1_555
O2F In1 1_555 1_555
O3F In1 1_555 1_555
C1F O2F 1_555 1_555
C2F C1F 1_555 1_555
C3F C2F 1_555 1_555
H1F C3F 1_555 1_555
O2O C1O 1_555 1_555
O3O C1O 1_555 1_555
C1O C2O 1_555 1_555
C2O O1F 1_555 1_555
C3O C3F 1_555 1_555
H1O C3O 1_555 1_555
In1_2 O2O 1_555 1_555
In1_3 O2I 1_555 1_555
O2I_2 In1 1_555 1_555
O2O_2 In1 1_555 1_555
O3I_2 In1 1_555 1_555
O3O_2 In1 1_555 1_555
N1F C4F 1_555 1_555
C5F N1F 1_555 1_555
N1I C4I 1_555 1_555
C5I N1I 1_555 1_555
N1O C4O 1_555 1_555
C5O N1O 1_555 1_555
N1S C4S 1_555 1_555
C5S N1S 1_555 1_555
N1U C4U 1_555 1_555
C5U N1U 1_555 1_555
N1Z C4Z 1_555 1_555
C5Z N1Z 1_555 1_555
N1BA C4BA 1_555 1_555
C5BA N1BA 1_555 1_555
O3I In1_3 1_555 1_555
C2I C3I 1_555 1_555
O3F C1F 1_555 1_555
O3O In1_2 1_555 1_555
C2O C3O 1_555 1_555

#END
