
#######################################################################
#
#                 Cambridge Crystallographic Data Centre
#                                CCDC 
#
#######################################################################
#
# If this CIF has been generated from an entry in the Cambridge 
# Structural Database, then it will include bibliographic, chemical, 
# crystal, experimental, refinement or atomic coordinate data resulting 
# from the CCDC's data processing and validation procedures.
#
#######################################################################

data_SUQMIB
_symmetry_cell_setting           hexagonal
_symmetry_space_group_name_H-M   'P 63/m c m'
_symmetry_Int_Tables_number      193
_space_group_name_Hall           "-P 6c 2'"
loop_
_symmetry_equiv_pos_site_id
_symmetry_equiv_pos_as_xyz
1 x,y,z
2 -y,x-y,z
3 -x+y,-x,z
4 -x,-y,1/2+z
5 y,-x+y,1/2+z
6 x-y,x,1/2+z
7 y,x,1/2-z
8 x-y,-y,1/2-z
9 -x,-x+y,1/2-z
10 -y,-x,-z
11 -x+y,y,-z
12 x,x-y,-z
13 -x,-y,-z
14 y,-x+y,-z
15 x-y,x,-z
16 x,y,1/2-z
17 -y,x-y,1/2-z
18 -x+y,-x,1/2-z
19 -y,-x,1/2+z
20 -x+y,y,1/2+z
21 x,x-y,1/2+z
22 y,x,z
23 x-y,-y,z
24 -x,-x+y,z
_cell_length_a                   15.1252(5)
_cell_length_b                   15.1252(5)
_cell_length_c                   17.2416(11)
_cell_angle_alpha                90
_cell_angle_beta                 90
_cell_angle_gamma                120
_cell_volume                     3415.94
loop_
_atom_site_label
_atom_site_type_symbol
_atom_site_fract_x
_atom_site_fract_y
_atom_site_fract_z
Co1 Co 0.42036(8) 1.0000 0.2500
Co2 Co 0.23536(6) 1.0000 0.13410(5)
Co3 Co 0.3333 0.6667 0.0000
F1 F 0.2849(3) 1.0000 0.2500
N1 N 0.3240(3) 0.7789(3) 0.0682(2)
N2 N 0.3792(3) 0.8236(3) 0.1326(2)
N3 N 0.3551(3) 0.8890(3) 0.1585(2)
N4 N 0.2827(3) 0.8904(3) 0.1134(2)
N5 N 0.1983(3) 0.8017(3) 0.0000
H1 H 0.1655 0.8345 0.0000
N6 N 0.0874(4) 0.8930(5) 0.1563(3)
N7 N 0.0514(6) 0.7972(6) 0.1567(5)
N8 N 0.0000 1.0000 0.1435(9)
C1 C 0.2663(4) 0.8218(4) 0.0584(3)
C2 C 0.0000 0.9054(8) 0.1496(7)
O1 O 0.5477(5) 1.0000 0.2500
O2 O 0.1937(6) 1.0000 0.0188(4)
H2 H 0.554(3) 0.948(3) 0.2500
Co1B Co -0.42036(8) 0.57964(8) 0.2500
Co1E Co 0.42036(8) 1.42036(8) -0.2500
Co1A Co 0.0000 1.42036(8) 0.2500
Co1C Co -0.42036(8) 1.0000 -0.2500
Co1D Co 0.0000 0.57964(8) -0.2500
Co1E_2 Co 0.42036(8) 0.42036(8) -0.2500
Co1A_2 Co 0.0000 0.42036(8) 0.2500
Co2A Co 0.0000 0.23536(6) 0.13410(5)
Co2B Co -0.23536(6) 0.76464(6) 0.13410(5)
Co2I Co 0.0000 0.76464(6) -0.13410(5)
Co2J Co -0.23536(6) 1.0000 -0.13410(5)
Co2K Co 0.23536(6) 1.23536(6) -0.13410(5)
Co2A_2 Co 0.0000 1.23536(6) 0.13410(5)
Co2E Co 0.23536(6) 1.23536(6) -0.36590(5)
Co2G Co 0.23536(6) 1.0000 0.36590(5)
Co2H Co -0.23536(6) 0.76464(6) 0.36590(5)
Co2K_2 Co 0.23536(6) 0.23536(6) -0.13410(5)
Co3L Co -0.3333 1.3333 0.0000
Co3_2 Co -0.6667 0.6667 0.0000
Co3L_2 Co -0.3333 0.3333 0.0000
Co3L_3 Co 0.6667 1.3333 0.0000
F1B F -0.2849(3) 0.7151(3) 0.2500
F1E F 0.2849(3) 1.2849(3) -0.2500
F1C F -0.2849(3) 1.0000 -0.2500
F1D F 0.0000 0.7151(3) -0.2500
F1A F 0.0000 0.2849(3) 0.2500
N1I N 0.2211(3) 0.6760(3) -0.0682(2)
N1A N 0.2211(3) 0.5451(4) 0.0682(2)
N1K N 0.3240(3) 0.5451(4) -0.0682(2)
N1B N -0.5451(4) 0.6760(3) 0.0682(2)
N1J N -0.5451(4) 0.7789(3) -0.0682(2)
N1L N -0.3240(3) 1.2211(3) -0.0682(2)
N1U N -0.2211(3) 1.3240(3) 0.0682(2)
N1M N -0.2211(3) 0.4549(4) -0.0682(2)
N1W N -0.3240(3) 0.4549(4) 0.0682(2)
N1N N 0.5451(4) 1.3240(3) -0.0682(2)
N1V N 0.5451(4) 1.2211(3) 0.0682(2)
N1B_2 N 0.4549(4) 0.6760(3) 0.0682(2)
N1J_2 N 0.4549(4) 0.7789(3) -0.0682(2)
N1M_2 N -0.2211(3) 1.4549(4) -0.0682(2)
N1N_2 N -0.4549(4) 1.3240(3) -0.0682(2)
N1V_2 N -0.4549(4) 1.2211(3) 0.0682(2)
N1W_2 N -0.3240(3) 1.4549(4) 0.0682(2)
N2I N 0.1764(3) 0.6208(3) -0.1326(2)
N2A N 0.1764(3) 0.5556(4) 0.1326(2)
N2K N 0.3792(3) 0.5556(4) -0.1326(2)
N2B N -0.5556(4) 0.6208(3) 0.1326(2)
N2J N -0.5556(4) 0.8236(3) -0.1326(2)
N2L N -0.3792(3) 1.1764(3) -0.1326(2)
N2U N -0.1764(3) 1.3792(3) 0.1326(2)
N2M N -0.1764(3) 0.4444(4) -0.1326(2)
N2W N -0.3792(3) 0.4444(4) 0.1326(2)
N2N N 0.5556(4) 1.3792(3) -0.1326(2)
N2V N 0.5556(4) 1.1764(3) 0.1326(2)
N3I N 0.1110(3) 0.6449(3) -0.1585(2)
N3A N 0.1110(3) 0.4661(4) 0.1585(2)
N3K N 0.3551(3) 0.4661(4) -0.1585(2)
N3B N -0.4661(4) 0.6449(3) 0.1585(2)
N3J N -0.4661(4) 0.8890(3) -0.1585(2)
N3L N -0.3551(3) 1.1110(3) -0.1585(2)
N3U N -0.1110(3) 1.3551(3) 0.1585(2)
N3M N -0.1110(3) 0.5339(4) -0.1585(2)
N3W N -0.3551(3) 0.5339(4) 0.1585(2)
N3N N 0.4661(4) 1.3551(3) -0.1585(2)
N3V N 0.4661(4) 1.1110(3) 0.1585(2)
N3E N 0.4661(4) 1.3551(3) -0.3415(2)
N3G N 0.4661(4) 1.1110(3) 0.3415(2)
N3H N -0.3551(3) 0.5339(4) 0.3415(2)
N3K_2 N 0.3551(3) 1.4661(4) -0.1585(2)
N3O N 0.3551(3) 0.8890(3) 0.3415(2)
N3Q N -0.4661(4) 0.6449(3) 0.3415(2)
N3T N 0.3551(3) 1.4661(4) -0.3415(2)
N4I N 0.1096(3) 0.7173(3) -0.1134(2)
N4A N 0.1096(3) 0.3923(4) 0.1134(2)
N4K N 0.2827(3) 0.3923(4) -0.1134(2)
N4B N -0.3923(4) 0.7173(3) 0.1134(2)
N4J N -0.3923(4) 0.8904(3) -0.1134(2)
N4L N -0.2827(3) 1.1096(3) -0.1134(2)
N4U N -0.1096(3) 1.2827(3) 0.1134(2)
N4M N -0.1096(3) 0.6077(4) -0.1134(2)
N4W N -0.2827(3) 0.6077(4) 0.1134(2)
N4N N 0.3923(4) 1.2827(3) -0.1134(2)
N4V N 0.3923(4) 1.1096(3) 0.1134(2)
N4K_2 N 0.2827(3) 1.3923(4) -0.1134(2)
N4U_2 N -0.1096(3) 0.2827(3) 0.1134(2)
N5A N 0.1983(3) 0.3966(4) 0.0000
N5B N -0.3966(4) 0.8017(3) 0.0000
N5L N -0.1983(3) 1.1983(3) 0.0000
N5M N -0.1983(3) 0.6034(4) 0.0000
N5N N 0.3966(4) 1.1983(3) 0.0000
H1A H 0.1655 0.3310 0.0000
H1B H -0.3310 0.8345 0.0000
H1L H -0.1655 1.1655 0.0000
H1M H -0.1655 0.6690 0.0000
H1N H 0.3310 1.1655 0.0000
N6A N 0.1070(5) 1.1944(6) 0.1563(3)
N6B N -0.1944(6) 0.9126(4) 0.1563(3)
N6U N -0.1070(5) 1.0874(4) 0.1563(3)
N6V N 0.1944(6) 1.1070(5) 0.1563(3)
N6W N -0.0874(4) 0.8056(6) 0.1563(3)
N6I N 0.1070(5) 0.9126(4) -0.1563(3)
N6J N -0.1944(6) 0.8930(5) -0.1563(3)
N6K N 0.0874(4) 1.1944(6) -0.1563(3)
N6L N -0.0874(4) 1.1070(5) -0.1563(3)
N6M N -0.1070(5) 0.8056(6) -0.1563(3)
N6N N 0.1944(6) 1.0874(4) -0.1563(3)
N6U_2 N -0.1070(5) 0.0874(4) 0.1563(3)
N6A_2 N 0.1070(5) 0.1944(6) 0.1563(3)
N7A N 0.2028(6) 1.2542(8) 0.1567(5)
N7B N -0.2542(8) 0.9486(6) 0.1567(5)
N7U N -0.2028(6) 1.0514(6) 0.1567(5)
N7V N 0.2542(8) 1.2028(6) 0.1567(5)
N7W N -0.0514(6) 0.7458(8) 0.1567(5)
N7I N 0.2028(6) 0.9486(6) -0.1567(5)
N7J N -0.2542(8) 0.7972(6) -0.1567(5)
N7K N 0.0514(6) 1.2542(8) -0.1567(5)
N7L N -0.0514(6) 1.2028(6) -0.1567(5)
N7M N -0.2028(6) 0.7458(8) -0.1567(5)
N7N N 0.2542(8) 1.0514(6) -0.1567(5)
N8I N 0.0000 1.0000 -0.1435(9)
C1I C 0.1782(4) 0.7337(4) -0.0584(3)
C1A C 0.1782(4) 0.4445(6) 0.0584(3)
C1K C 0.2663(4) 0.4445(6) -0.0584(3)
C1B C -0.4445(6) 0.7337(4) 0.0584(3)
C1J C -0.4445(6) 0.8218(4) -0.0584(3)
C1L C -0.2663(4) 1.1782(4) -0.0584(3)
C1U C -0.1782(4) 1.2663(4) 0.0584(3)
C1M C -0.1782(4) 0.5555(6) -0.0584(3)
C1W C -0.2663(4) 0.5555(6) 0.0584(3)
C1N C 0.4445(6) 1.2663(4) -0.0584(3)
C1V C 0.4445(6) 1.1782(4) 0.0584(3)
C2A C 0.0946(8) 1.0946(8) 0.1496(7)
C2B C -0.0946(8) 1.0000 0.1496(7)
C2I C 0.0946(8) 1.0000 -0.1496(7)
C2J C -0.0946(8) 0.9054(8) -0.1496(7)
C2K C 0.0000 1.0946(8) -0.1496(7)
O1B O -0.5477(5) 0.4523(5) 0.2500
O1E O 0.5477(5) 1.5477(5) -0.2500
O2A O 0.0000 0.1937(6) 0.0188(4)
O2B O -0.1937(6) 0.8063(6) 0.0188(4)
O2I O 0.0000 0.8063(6) -0.0188(4)
O2J O -0.1937(6) 1.0000 -0.0188(4)
O2K O 0.1937(6) 1.1937(6) -0.0188(4)
H2G H 0.606(4) 1.052(3) 0.2500
H2B H -0.606(4) 0.446(3) 0.2500
H2H H -0.554(3) 0.394(4) 0.2500
H2E H 0.606(4) 1.554(3) -0.2500
H2K H 0.554(3) 1.606(4) -0.2500
O3 O 0.5512(9) 0.8357(9) 0.2500
loop_
_geom_bond_atom_site_label_1
_geom_bond_atom_site_label_2
_geom_bond_site_symmetry_1
_geom_bond_site_symmetry_2
Co1 F1 1_555 1_555
Co2 F1 1_555 1_555
Co3 N1 1_555 1_555
F1 Co2G 1_555 1_555
N1 N2 1_555 1_555
N2 N3 1_555 1_555
N3 Co1 1_555 1_555
N4 Co2 1_555 1_555
N5 H1 1_555 1_555
N6 Co2 1_555 1_555
N7 N6 1_555 1_555
N8 C2 1_555 1_555
C1 N1 1_555 1_555
C2 N6 1_555 1_555
O1 Co1 1_555 1_555
O2 Co2 1_555 1_555
H2 O1 1_555 1_555
Co1B F1B 1_555 1_555
Co1E F1E 1_555 1_555
Co1A N3U 1_555 1_555
Co1C F1C 1_555 1_555
Co1D F1D 1_555 1_555
Co1E_2 N3K 1_555 1_555
Co1A_2 F1A 1_555 1_555
Co2A F1A 1_555 1_555
Co2B F1B 1_555 1_555
Co2I F1D 1_555 1_555
Co2J F1C 1_555 1_555
Co2K F1E 1_555 1_555
Co2A_2 N4U 1_555 1_555
Co2E F1E 1_555 1_555
Co2H F1B 1_555 1_555
Co2K_2 N4K 1_555 1_555
Co3L N1L 1_555 1_555
Co3_2 N1B 1_555 1_555
Co3L_2 N1M 1_555 1_555
Co3L_3 N1N 1_555 1_555
N1I Co3 1_555 1_555
N1A Co3 1_555 1_555
N1K Co3 1_555 1_555
N1B N2B 1_555 1_555
N1J Co3_2 1_555 1_555
N1L N2L 1_555 1_555
N1U Co3L 1_555 1_555
N1M N2M 1_555 1_555
N1W Co3L_2 1_555 1_555
N1N N2N 1_555 1_555
N1V Co3L_3 1_555 1_555
N1B_2 Co3 1_555 1_555
N1J_2 Co3 1_555 1_555
N1M_2 Co3L 1_555 1_555
N1N_2 Co3L 1_555 1_555
N1V_2 Co3L 1_555 1_555
N1W_2 Co3L 1_555 1_555
N2I N1I 1_555 1_555
N2A N1A 1_555 1_555
N2K N1K 1_555 1_555
N2B N3B 1_555 1_555
N2J N1J 1_555 1_555
N2L N3L 1_555 1_555
N2U N1U 1_555 1_555
N2M N3M 1_555 1_555
N2W N1W 1_555 1_555
N2N N3N 1_555 1_555
N2V N1V 1_555 1_555
N3I Co1D 1_555 1_555
N3A Co1A_2 1_555 1_555
N3K N2K 1_555 1_555
N3B Co1B 1_555 1_555
N3J Co1C 1_555 1_555
N3L Co1C 1_555 1_555
N3U N2U 1_555 1_555
N3M Co1D 1_555 1_555
N3W Co1B 1_555 1_555
N3N Co1E 1_555 1_555
N3V Co1 1_555 1_555
N3E Co1E 1_555 1_555
N3G Co1 1_555 1_555
N3H Co1B 1_555 1_555
N3K_2 Co1E 1_555 1_555
N3O Co1 1_555 1_555
N3Q Co1B 1_555 1_555
N3T Co1E 1_555 1_555
N4I Co2I 1_555 1_555
N4A Co2A 1_555 1_555
N4K N3K 1_555 1_555
N4B Co2B 1_555 1_555
N4J Co2J 1_555 1_555
N4L Co2J 1_555 1_555
N4U N3U 1_555 1_555
N4M Co2I 1_555 1_555
N4W Co2B 1_555 1_555
N4N Co2K 1_555 1_555
N4V Co2 1_555 1_555
N4K_2 Co2K 1_555 1_555
N4U_2 Co2A 1_555 1_555
N5A H1A 1_555 1_555
N5B H1B 1_555 1_555
N5L H1L 1_555 1_555
N5M H1M 1_555 1_555
N5N H1N 1_555 1_555
N6A Co2A_2 1_555 1_555
N6B Co2B 1_555 1_555
N6U Co2A_2 1_555 1_555
N6V Co2 1_555 1_555
N6W C2 1_555 1_555
N6I Co2I 1_555 1_555
N6J Co2J 1_555 1_555
N6K Co2K 1_555 1_555
N6L Co2J 1_555 1_555
N6M Co2I 1_555 1_555
N6N Co2K 1_555 1_555
N6U_2 Co2A 1_555 1_555
N6A_2 Co2A 1_555 1_555
N7A N6A 1_555 1_555
N7B N6B 1_555 1_555
N7U N6U 1_555 1_555
N7V N6V 1_555 1_555
N7W N7 1_555 1_555
N7I N6I 1_555 1_555
N7J N6J 1_555 1_555
N7K N6K 1_555 1_555
N7L N6L 1_555 1_555
N7M N6M 1_555 1_555
N7N N6N 1_555 1_555
N8I C2I 1_555 1_555
C1I N5 1_555 1_555
C1A N1A 1_555 1_555
C1K N1K 1_555 1_555
C1B N1B 1_555 1_555
C1J N1J 1_555 1_555
C1L N1L 1_555 1_555
C1U N1U 1_555 1_555
C1M N1M 1_555 1_555
C1W N1W 1_555 1_555
C1N N1N 1_555 1_555
C1V N1V 1_555 1_555
C2A N8 1_555 1_555
C2B N8 1_555 1_555
C2I N6I 1_555 1_555
C2J N6J 1_555 1_555
C2K N6K 1_555 1_555
O1B Co1B 1_555 1_555
O1E Co1E 1_555 1_555
O2A Co2A 1_555 1_555
O2B Co2B 1_555 1_555
O2I Co2I 1_555 1_555
O2J Co2J 1_555 1_555
O2K Co2K 1_555 1_555
H2G O1 1_555 1_555
H2B O1B 1_555 1_555
H2H O1B 1_555 1_555
H2E O1E 1_555 1_555
H2K O1E 1_555 1_555
N3 N4 1_555 1_555
N4 C1 1_555 1_555
N5 C1 1_555 1_555
Co2B N6W 1_555 1_555
N1I C1I 1_555 1_555
N2I N3I 1_555 1_555
N2A N3A 1_555 1_555
N2J N3J 1_555 1_555
N2W N3W 1_555 1_555
N2V N3V 1_555 1_555
N3I N4I 1_555 1_555
N3A N4A 1_555 1_555
N3B N4B 1_555 1_555
N3J N4J 1_555 1_555
N3L N4L 1_555 1_555
N3M N4M 1_555 1_555
N3W N4W 1_555 1_555
N3N N4N 1_555 1_555
N3V N4V 1_555 1_555
N3K_2 N4K_2 1_555 1_555
N4I C1I 1_555 1_555
N4A C1A 1_555 1_555
N4K C1K 1_555 1_555
N4B C1B 1_555 1_555
N4J C1J 1_555 1_555
N4L C1L 1_555 1_555
N4U C1U 1_555 1_555
N4M C1M 1_555 1_555
N4W C1W 1_555 1_555
N4N C1N 1_555 1_555
N4V C1V 1_555 1_555
N5A C1A 1_555 1_555
N5A C1K 1_555 1_555
N5B C1B 1_555 1_555
N5B C1J 1_555 1_555
N5L C1L 1_555 1_555
N5L C1U 1_555 1_555
N5M C1M 1_555 1_555
N5M C1W 1_555 1_555
N5N C1N 1_555 1_555
N5N C1V 1_555 1_555
N6A C2A 1_555 1_555
N6B C2B 1_555 1_555
N6U C2B 1_555 1_555
N6V C2A 1_555 1_555
N6W N7W 1_555 1_555
N6L C2K 1_555 1_555
N6M C2J 1_555 1_555
N6N C2I 1_555 1_555
N7A N7V 1_555 1_555
N7B N7U 1_555 1_555
N7I N7N 1_555 1_555
N7J N7M 1_555 1_555
N7K N7L 1_555 1_555
N8I C2J 1_555 1_555
N8I C2K 1_555 1_555

#END
