
#######################################################################
#
#                 Cambridge Crystallographic Data Centre
#                                CCDC 
#
#######################################################################
#
# If this CIF has been generated from an entry in the Cambridge 
# Structural Database, then it will include bibliographic, chemical, 
# crystal, experimental, refinement or atomic coordinate data resulting 
# from the CCDC's data processing and validation procedures.
#
#######################################################################

data_SUQPAX
_symmetry_cell_setting           monoclinic
_symmetry_space_group_name_H-M   'P 21/c'
_symmetry_Int_Tables_number      14
_space_group_name_Hall           '-P 2ybc'
loop_
_symmetry_equiv_pos_site_id
_symmetry_equiv_pos_as_xyz
1 x,y,z
2 -x,1/2+y,1/2-z
3 -x,-y,-z
4 x,1/2-y,1/2+z
_cell_length_a                   10.3644(6)
_cell_length_b                   20.6293(12)
_cell_length_c                   13.0267(7)
_cell_angle_alpha                90
_cell_angle_beta                 111.3920(10)
_cell_angle_gamma                90
_cell_volume                     2593.36
loop_
_atom_site_label
_atom_site_type_symbol
_atom_site_fract_x
_atom_site_fract_y
_atom_site_fract_z
Cu1 Cu 0.43473(3) 0.125808(14) 0.15988(2)
O1 O 0.31190(16) 0.14773(9) 0.24097(13)
O2 O 0.51438(17) 0.14303(9) 0.37856(14)
N1 N 0.4555(2) 0.02689(11) 0.17150(17)
C1 C 0.0664(2) 0.25422(13) 0.60103(19)
H1 H 0.1045 0.2808 0.6624
C2 C 0.3903(2) -0.00696(12) 0.0791(2)
N2 N 0.3143(2) 0.09717(11) -0.00189(18)
C3 C 0.3940(3) -0.07434(12) 0.0788(2)
H2 H 0.3484 -0.0970 0.0139
C4 C 0.3870(2) 0.15287(11) 0.34317(18)
C5 C 0.3168(2) 0.17285(12) 0.41988(19)
H3 H 0.3702 0.1899 0.4883
C6 C 0.3135(2) 0.03276(12) -0.0208(2)
C7 C 0.0974(2) 0.18896(12) 0.45756(19)
C8 C 0.2490(2) 0.00649(13) -0.1247(2)
H4 H 0.2515 -0.0381 -0.1349
C9 C 0.1801(3) 0.04658(14) -0.2146(2)
C10 C 0.1519(2) 0.22791(12) 0.55167(19)
H5 H 0.2466 0.2361 0.5812
C11 C -0.0761(2) 0.24180(12) 0.5609(2)
C12 C 0.5243(3) -0.00503(14) 0.2647(2)
H6 H 0.5692 0.0186 0.3287
C13 C -0.2955(3) 0.26129(13) 0.5948(2)
H7 H -0.3333 0.2229 0.5588
C14 C -0.0444(2) 0.17556(13) 0.4189(2)
H8 H -0.0824 0.1491 0.3574
C15 C 0.5310(3) -0.07198(14) 0.2692(2)
H9 H 0.5794 -0.0927 0.3356
C16 C 0.4659(3) -0.10800(15) 0.1755(2)
C17 C 0.1802(2) 0.16710(12) 0.39382(19)
H10 H 0.1317 0.1468 0.3271
C18 C -0.1642(2) 0.27575(13) 0.6093(2)
H11 H -0.1249 0.3109 0.6546
C19 C -0.1302(2) 0.20043(13) 0.4696(2)
H12 H -0.2238 0.1897 0.4430
C20 C 0.1787(3) 0.11217(14) -0.1933(2)
H13 H 0.1316 0.1405 -0.2501
C21 C 0.2468(3) 0.13587(14) -0.0882(2)
H14 H 0.2461 0.1803 -0.0764
C22 C 0.4697(4) -0.18105(16) 0.1782(3)
H15 H 0.5236 -0.1955 0.2515
H16 H 0.5110 -0.1966 0.1278
H17 H 0.3771 -0.1976 0.1570
C23 C 0.1117(3) 0.01907(17) -0.3291(2)
H18 H 0.0700 0.0536 -0.3798
H19 H 0.0416 -0.0115 -0.3294
H20 H 0.1799 -0.0024 -0.3508
C24 C -0.3834(3) 0.30411(13) 0.6340(2)
O3 O -0.50900(18) 0.28603(9) 0.61172(15)
O4 O -0.34137(19) 0.35686(9) 0.67982(16)
Cu1C Cu -0.56527(3) 0.374192(14) 0.65988(2)
O3C O 0.49100(18) 0.21397(9) 0.11172(15)
O4C O 0.65863(19) 0.14314(9) 0.17982(16)
O5 O 0.6626(2) 0.09892(12) 0.57918(17)
H21 H 0.6175 0.1085 0.5150
C25 C 0.8337(3) 0.04718(16) 0.7817(2)
H22 H 0.8202 0.0918 0.7743
C26 C 1.0243(3) -0.06711(18) 1.0222(2)
H23 H 1.0387 -0.1113 1.0353
C27 C 0.9182(3) 0.02220(17) 0.8935(3)
C28 C 0.9429(3) -0.04349(18) 0.9155(2)
H24 H 0.9049 -0.0731 0.8585
C29 C 0.7769(3) 0.01201(17) 0.6936(3)
H25 H 0.7885 -0.0327 0.7013
C30 C 0.6974(4) 0.03660(18) 0.5849(3)
O6 O 0.6690(5) 0.00376(18) 0.5060(2)
O5B O 1.3374(2) -0.09892(12) 1.42082(17)
H21B H 1.3825 -0.1085 1.4850
C25B C 1.1663(3) -0.04718(16) 1.2183(2)
H22B H 1.1798 -0.0918 1.2257
C26B C 0.9757(3) 0.06711(18) 0.9778(2)
H23B H 0.9613 0.1113 0.9647
C27B C 1.0818(3) -0.02220(17) 1.1065(3)
C28B C 1.0571(3) 0.04349(18) 1.0845(2)
H24B H 1.0951 0.0731 1.1415
C29B C 1.2231(3) -0.01201(17) 1.3064(3)
H25B H 1.2115 0.0327 1.2987
C30B C 1.3026(4) -0.03660(18) 1.4151(3)
O6B O 1.3310(5) -0.00376(18) 1.4940(2)
loop_
_geom_bond_atom_site_label_1
_geom_bond_atom_site_label_2
_geom_bond_site_symmetry_1
_geom_bond_site_symmetry_2
Cu1 O1 1_555 1_555
O1 C4 1_555 1_555
O2 Cu1 1_555 1_555
N1 Cu1 1_555 1_555
C1 H1 1_555 1_555
C2 N1 1_555 1_555
N2 Cu1 1_555 1_555
C3 C2 1_555 1_555
H2 C3 1_555 1_555
C4 O2 1_555 1_555
C5 C4 1_555 1_555
H3 C5 1_555 1_555
C6 C2 1_555 1_555
C7 C10 1_555 1_555
C8 C6 1_555 1_555
H4 C8 1_555 1_555
C9 C8 1_555 1_555
C10 C1 1_555 1_555
H5 C10 1_555 1_555
C11 C1 1_555 1_555
C12 N1 1_555 1_555
H6 C12 1_555 1_555
C13 H7 1_555 1_555
C14 C7 1_555 1_555
H8 C14 1_555 1_555
C15 C12 1_555 1_555
H9 C15 1_555 1_555
C16 C3 1_555 1_555
C17 C5 1_555 1_555
H10 C17 1_555 1_555
C18 C11 1_555 1_555
H11 C18 1_555 1_555
C19 C11 1_555 1_555
H12 C19 1_555 1_555
C20 C9 1_555 1_555
H13 C20 1_555 1_555
C21 N2 1_555 1_555
H14 C21 1_555 1_555
C22 C16 1_555 1_555
H15 C22 1_555 1_555
H16 C22 1_555 1_555
H17 C22 1_555 1_555
C23 C9 1_555 1_555
H18 C23 1_555 1_555
H19 C23 1_555 1_555
H20 C23 1_555 1_555
C24 C13 1_555 1_555
O3 C24 1_555 1_555
O4 C24 1_555 1_555
O5 H21 1_555 1_555
C25 H22 1_555 1_555
C26 H23 1_555 1_555
C27 C25 1_555 1_555
C28 C26 1_555 1_555
H24 C28 1_555 1_555
C29 C25 1_555 1_555
H25 C29 1_555 1_555
C30 O5 1_555 1_555
O6 C30 1_555 1_555
Cu1C O3 1_555 1_555
O3C Cu1 1_555 1_555
O4C Cu1 1_555 1_555
O5B H21B 1_555 1_555
C25B H22B 1_555 1_555
C26B C27 1_555 1_555
H23B C26B 1_555 1_555
C27B C26 1_555 1_555
C28B C26B 1_555 1_555
H24B C28B 1_555 1_555
C29B C25B 1_555 1_555
H25B C29B 1_555 1_555
C30B O5B 1_555 1_555
O6B C30B 1_555 1_555
N2 C6 1_555 1_555
C7 C17 1_555 1_555
C13 C18 1_555 1_555
C14 C19 1_555 1_555
C15 C16 1_555 1_555
C20 C21 1_555 1_555
O4 Cu1C 1_555 1_555
C27 C28 1_555 1_555
C29 C30 1_555 1_555
C25B C27B 1_555 1_555
C27B C28B 1_555 1_555
C29B C30B 1_555 1_555

#END
