
#######################################################################
#
#                 Cambridge Crystallographic Data Centre
#                                CCDC 
#
#######################################################################
#
# If this CIF has been generated from an entry in the Cambridge 
# Structural Database, then it will include bibliographic, chemical, 
# crystal, experimental, refinement or atomic coordinate data resulting 
# from the CCDC's data processing and validation procedures.
#
#######################################################################

data_SUQTAB
_symmetry_cell_setting           orthorhombic
_symmetry_space_group_name_H-M   'C m c a'
_symmetry_Int_Tables_number      64
_space_group_name_Hall           '-C 2ac 2'
loop_
_symmetry_equiv_pos_site_id
_symmetry_equiv_pos_as_xyz
1 x,y,z
2 -x,1/2-y,1/2+z
3 -x,1/2+y,1/2-z
4 x,-y,-z
5 1/2+x,1/2+y,z
6 1/2-x,-y,1/2+z
7 1/2-x,y,1/2-z
8 1/2+x,1/2-y,-z
9 -x,-y,-z
10 x,1/2+y,1/2-z
11 x,1/2-y,1/2+z
12 -x,y,z
13 1/2-x,1/2-y,-z
14 1/2+x,y,1/2-z
15 1/2+x,-y,1/2+z
16 1/2-x,1/2+y,z
_cell_length_a                   8.437(2)
_cell_length_b                   21.875(6)
_cell_length_c                   16.757(4)
_cell_angle_alpha                90
_cell_angle_beta                 90
_cell_angle_gamma                90
_cell_volume                     3092.66
loop_
_atom_site_label
_atom_site_type_symbol
_atom_site_fract_x
_atom_site_fract_y
_atom_site_fract_z
I1 I 0.5000 0.464330(15) 0.12346(2)
I2 I 0.5000 0.291904(18) -0.01849(2)
Br1 Br 0.0000 0.48984(3) -0.17648(3)
Cu1 Cu 0.34546(5) 0.36646(2) 0.07739(3)
Br2 Br 0.2500 0.13846(3) 0.2500
C1 C 0.0000 0.4442(2) -0.0807(3)
N1 N 0.1403(3) 0.39286(14) 0.02134(17)
N2 N 0.2834(4) 0.31739(14) 0.18103(16)
C2 C 0.1404(4) 0.42644(16) -0.0456(2)
H1 H 0.2362 0.4379 -0.0686
C3 C 0.2500 0.3455(2) 0.2500
H2 H 0.2500 0.3880 0.2500
C4 C 0.0000 0.3776(2) 0.0511(3)
H3 H 0.0000 0.3540 0.0973
C5 C 0.2500 0.2239(2) 0.2500
C6 C 0.2830(5) 0.25631(17) 0.1808(2)
H4 H 0.3050 0.2353 0.1339
N1K N -0.1403(3) 0.39286(14) 0.02134(17)
C2K C -0.1404(4) 0.42644(16) -0.0456(2)
H1K H -0.2362 0.4379 -0.0686
N2F N 0.2166(4) 0.31739(14) 0.31897(16)
C6F C 0.2170(5) 0.25631(17) 0.3192(2)
H4F H 0.1950 0.2353 0.3661
Cu1F Cu 0.15454(5) 0.36646(2) 0.42261(3)
I1F I 0.0000 0.464330(15) 0.37654(2)
I2F I 0.0000 0.291904(18) 0.51849(2)
Cu1K Cu -0.34546(5) 0.36646(2) 0.07739(3)
Cu1K_2 Cu 0.65454(5) 0.36646(2) 0.07739(3)
N1F N 0.3597(3) 0.39286(14) 0.47866(17)
loop_
_geom_bond_atom_site_label_1
_geom_bond_atom_site_label_2
_geom_bond_site_symmetry_1
_geom_bond_site_symmetry_2
I1 Cu1 1_555 1_555
I2 Cu1 1_555 1_555
Br1 C1 1_555 1_555
Cu1 N1 1_555 1_555
Br2 C5 1_555 1_555
C1 C2 1_555 1_555
N1 C2 1_555 1_555
N2 Cu1 1_555 1_555
C2 H1 1_555 1_555
C3 N2 1_555 1_555
H2 C3 1_555 1_555
C4 N1 1_555 1_555
H3 C4 1_555 1_555
C5 C6 1_555 1_555
C6 N2 1_555 1_555
H4 C6 1_555 1_555
N1K C4 1_555 1_555
C2K C1 1_555 1_555
H1K C2K 1_555 1_555
N2F C3 1_555 1_555
C6F C5 1_555 1_555
H4F C6F 1_555 1_555
Cu1F N2F 1_555 1_555
I1F Cu1F 1_555 1_555
I2F Cu1F 1_555 1_555
Cu1K N1K 1_555 1_555
Cu1K_2 I1 1_555 1_555
N1F Cu1F 1_555 1_555
I2 Cu1K_2 1_555 1_555
N1K C2K 1_555 1_555
N2F C6F 1_555 1_555

#END
