
#######################################################################
#
#                 Cambridge Crystallographic Data Centre
#                                CCDC 
#
#######################################################################
#
# If this CIF has been generated from an entry in the Cambridge 
# Structural Database, then it will include bibliographic, chemical, 
# crystal, experimental, refinement or atomic coordinate data resulting 
# from the CCDC's data processing and validation procedures.
#
#######################################################################

data_SUQVUX
_symmetry_cell_setting           monoclinic
_symmetry_space_group_name_H-M   'C 2/c'
_symmetry_Int_Tables_number      15
_space_group_name_Hall           '-C 2yn'
loop_
_symmetry_equiv_pos_site_id
_symmetry_equiv_pos_as_xyz
1 x,y,z
2 -x,y,1/2-z
3 1/2+x,1/2+y,z
4 1/2-x,1/2+y,1/2-z
5 -x,-y,-z
6 x,-y,1/2+z
7 1/2-x,1/2-y,-z
8 1/2+x,1/2-y,1/2+z
_cell_length_a                   20.542(2)
_cell_length_b                   13.7782(11)
_cell_length_c                   6.7186(6)
_cell_angle_alpha                90
_cell_angle_beta                 106.569(5)
_cell_angle_gamma                90
_cell_volume                     1822.62
loop_
_atom_site_label
_atom_site_type_symbol
_atom_site_fract_x
_atom_site_fract_y
_atom_site_fract_z
Ag1 Ag 0.11228(2) -0.00134(3) 0.85126(7)
S1 S 0.04575(6) 0.11151(10) 1.0412(2)
S2 S 0.18938(7) 0.09137(9) 0.6684(2)
N1 N 0.1036(2) 0.2418(3) 0.5939(6)
H1 H 0.0724 0.1987 0.5528
N2 N 0.2168(2) 0.2762(3) 0.7259(7)
H2 H 0.2579 0.2553 0.7657
N3 N 0.1331(3) 0.2735(4) 1.1189(8)
C1 C 0.0978(3) 0.2057(4) 1.0864(7)
C2 C 0.1674(2) 0.2124(3) 0.6607(7)
C3 C 0.2052(4) 0.3803(4) 0.7339(11)
H3 H 0.2035 0.3981 0.8719
H4 H 0.2426 0.4152 0.7054
C4 C 0.1421(4) 0.4073(5) 0.5826(13)
H5 H 0.1484 0.4047 0.4451
H6 H 0.1312 0.4738 0.6084
C5 C 0.0833(4) 0.3437(4) 0.5863(11)
H7 H 0.0682 0.3592 0.7068
H8 H 0.0458 0.3553 0.4629
Ag1E Ag 0.11228(2) 0.00134(3) 0.35126(7)
Ag1E_2 Ag 0.11228(2) 0.00134(3) 1.35126(7)
S1E S 0.04575(6) -0.11151(10) 0.5412(2)
S2E S 0.18938(7) -0.09137(9) 1.1684(2)
loop_
_geom_bond_atom_site_label_1
_geom_bond_atom_site_label_2
_geom_bond_site_symmetry_1
_geom_bond_site_symmetry_2
Ag1 S1 1_555 1_555
S1 C1 1_555 1_555
S2 Ag1 1_555 1_555
N1 H1 1_555 1_555
N2 H2 1_555 1_555
N3 C1 1_555 1_555
C2 S2 1_555 1_555
C3 N2 1_555 1_555
H3 C3 1_555 1_555
H4 C3 1_555 1_555
C4 C3 1_555 1_555
H5 C4 1_555 1_555
H6 C4 1_555 1_555
C5 N1 1_555 1_555
H7 C5 1_555 1_555
H8 C5 1_555 1_555
Ag1E S2 1_555 1_555
Ag1E_2 S1 1_555 1_555
S1E Ag1 1_555 1_555
S2E Ag1 1_555 1_555
N1 C2 1_555 1_555
N2 C2 1_555 1_555
C4 C5 1_555 1_555
Ag1E S1E 1_555 1_555
Ag1E_2 S2E 1_555 1_555

#END
