
#######################################################################
#
#                 Cambridge Crystallographic Data Centre
#                                CCDC 
#
#######################################################################
#
# If this CIF has been generated from an entry in the Cambridge 
# Structural Database, then it will include bibliographic, chemical, 
# crystal, experimental, refinement or atomic coordinate data resulting 
# from the CCDC's data processing and validation procedures.
#
#######################################################################

data_SUQXUX
_symmetry_cell_setting           monoclinic
_symmetry_space_group_name_H-M   'P 21/a'
_symmetry_Int_Tables_number      14
_space_group_name_Hall           '-P 2yab'
loop_
_symmetry_equiv_pos_site_id
_symmetry_equiv_pos_as_xyz
1 x,y,z
2 1/2-x,1/2+y,-z
3 -x,-y,-z
4 1/2+x,1/2-y,z
_cell_length_a                   8.405(3)
_cell_length_b                   11.640(4)
_cell_length_c                   11.466(4)
_cell_angle_alpha                90
_cell_angle_beta                 111.23(3)
_cell_angle_gamma                90
_cell_volume                     1045.64
loop_
_atom_site_label
_atom_site_type_symbol
_atom_site_fract_x
_atom_site_fract_y
_atom_site_fract_z
Cu1 Cu -0.4701(1) 0.4057(1) 0.4159(1)
N1 N -0.5366(6) 0.5697(3) 0.4110(4)
N2 N -0.6136(7) 0.6261(4) 0.3227(4)
N3 N -0.6888(11) 0.6788(7) 0.2378(5)
N4 N -0.3688(7) 0.2540(4) 0.4609(4)
N5 N -0.3098(5) 0.2027(4) 0.3993(4)
N6 N -0.2535(6) 0.1473(4) 0.3409(4)
N7 N -0.4376(5) 0.4038(3) 0.2516(3)
C1 C -0.2991(6) 0.4491(4) 0.2388(4)
C2 C -0.2700(7) 0.4353(5) 0.1274(5)
C3 C -0.3856(7) 0.3763(5) 0.0328(5)
C4 C -0.5272(8) 0.3294(5) 0.0468(5)
C5 C -0.5517(7) 0.3468(4) 0.1555(4)
C6 C -0.1739(7) 0.5084(5) 0.3516(6)
C7 C -0.1146(8) 0.4888(7) 0.1113(6)
H1 H -0.3660(7) 0.3655(5) -0.0546(5)
H2 H -0.6172(8) 0.2797(5) -0.0275(5)
H3 H -0.6662(7) 0.3140(4) 0.1657(4)
H4 H -0.0683(7) 0.5402(5) 0.3283(6)
H5 H -0.2366(7) 0.5794(5) 0.3777(6)
H6 H -0.1269(7) 0.4489(5) 0.4288(6)
H7 H -0.0391(8) 0.5321(7) 0.1968(6)
H8 H -0.0390(8) 0.4224(7) 0.0908(6)
H9 H -0.1548(8) 0.5500(7) 0.0354(6)
N1B N -0.4634(6) 0.4303(3) 0.5890(4)
N2B N -0.3864(7) 0.3739(4) 0.6773(4)
N3B N -0.3112(11) 0.3212(7) 0.7622(5)
N4C N -0.8688(7) 0.2460(4) 0.4609(4)
N5C N -0.8098(5) 0.2973(4) 0.3993(4)
N6C N -0.7535(6) 0.3527(4) 0.3409(4)
Cu1B Cu -0.5299(1) 0.5943(1) 0.5841(1)
Cu1C Cu -0.9701(1) 0.0943(1) 0.4159(1)
Cu1C_2 Cu 0.0299(1) 0.0943(1) 0.4159(1)
N4B N -0.6312(7) 0.7460(4) 0.5391(4)
N6A N -0.2465(6) 0.6473(4) 0.6591(4)
N7B N -0.5624(5) 0.5962(3) 0.7484(3)
C1B C -0.7009(6) 0.5509(4) 0.7612(4)
C2B C -0.7300(7) 0.5647(5) 0.8726(5)
C3B C -0.6144(7) 0.6237(5) 0.9672(5)
C4B C -0.4728(8) 0.6706(5) 0.9532(5)
C5B C -0.4483(7) 0.6532(4) 0.8445(4)
C6B C -0.8261(7) 0.4916(5) 0.6484(6)
C7B C -0.8854(8) 0.5112(7) 0.8887(6)
H1B H -0.6340(7) 0.6345(5) 1.0546(5)
H2B H -0.3828(8) 0.7203(5) 1.0275(5)
H3B H -0.3338(7) 0.6860(4) 0.8343(4)
H4B H -0.9317(7) 0.4598(5) 0.6717(6)
H5B H -0.7634(7) 0.4206(5) 0.6223(6)
H6B H -0.8731(7) 0.5511(5) 0.5712(6)
H7B H -0.9609(8) 0.4679(7) 0.8032(6)
H8B H -0.9610(8) 0.5776(7) 0.9092(6)
H9B H -0.8452(8) 0.4500(7) 0.9646(6)
loop_
_geom_bond_atom_site_label_1
_geom_bond_atom_site_label_2
_geom_bond_site_symmetry_1
_geom_bond_site_symmetry_2
Cu1 N1 1_555 1_555
N1 N2 1_555 1_555
N2 N3 1_555 1_555
N4 Cu1 1_555 1_555
N5 N4 1_555 1_555
N6 N5 1_555 1_555
N7 Cu1 1_555 1_555
C1 N7 1_555 1_555
C2 C1 1_555 1_555
C3 C2 1_555 1_555
C4 C3 1_555 1_555
C5 N7 1_555 1_555
C6 C1 1_555 1_555
C7 C2 1_555 1_555
H1 C3 1_555 1_555
H2 C4 1_555 1_555
H3 C5 1_555 1_555
H4 C6 1_555 1_555
H5 C6 1_555 1_555
H6 C6 1_555 1_555
H7 C7 1_555 1_555
H8 C7 1_555 1_555
H9 C7 1_555 1_555
N1B Cu1 1_555 1_555
N2B N1B 1_555 1_555
N3B N2B 1_555 1_555
N4C N5C 1_555 1_555
N5C N6C 1_555 1_555
N6C Cu1 1_555 1_555
Cu1B N1 1_555 1_555
Cu1C N4C 1_555 1_555
Cu1C_2 N6 1_555 1_555
N4B Cu1B 1_555 1_555
N6A Cu1B 1_555 1_555
N7B Cu1B 1_555 1_555
C1B N7B 1_555 1_555
C2B C1B 1_555 1_555
C3B C2B 1_555 1_555
C4B C3B 1_555 1_555
C5B N7B 1_555 1_555
C6B C1B 1_555 1_555
C7B C2B 1_555 1_555
H1B C3B 1_555 1_555
H2B C4B 1_555 1_555
H3B C5B 1_555 1_555
H4B C6B 1_555 1_555
H5B C6B 1_555 1_555
H6B C6B 1_555 1_555
H7B C7B 1_555 1_555
H8B C7B 1_555 1_555
H9B C7B 1_555 1_555
C4 C5 1_555 1_555
N1B Cu1B 1_555 1_555
C4B C5B 1_555 1_555

#END
