
#######################################################################
#
#                 Cambridge Crystallographic Data Centre
#                                CCDC 
#
#######################################################################
#
# If this CIF has been generated from an entry in the Cambridge 
# Structural Database, then it will include bibliographic, chemical, 
# crystal, experimental, refinement or atomic coordinate data resulting 
# from the CCDC's data processing and validation procedures.
#
#######################################################################

data_SUQYAE
_symmetry_cell_setting           monoclinic
_symmetry_space_group_name_H-M   'P 21/c'
_symmetry_Int_Tables_number      14
_space_group_name_Hall           '-P 2ybc'
loop_
_symmetry_equiv_pos_site_id
_symmetry_equiv_pos_as_xyz
1 x,y,z
2 -x,1/2+y,1/2-z
3 -x,-y,-z
4 x,1/2-y,1/2+z
_cell_length_a                   5.695(2)
_cell_length_b                   15.514(4)
_cell_length_c                   13.701(4)
_cell_angle_alpha                90
_cell_angle_beta                 98.08(3)
_cell_angle_gamma                90
_cell_volume                     1198.5
loop_
_atom_site_label
_atom_site_type_symbol
_atom_site_fract_x
_atom_site_fract_y
_atom_site_fract_z
Cu1 Cu 0.2560(1) 0.0357(1) 0.0329(1)
N1 N 0.5474(7) -0.0187(3) 0.1002(4)
N2 N 0.6256(8) -0.0046(3) 0.1852(5)
N3 N 0.7081(11) 0.0050(5) 0.2653(5)
N4 N -0.0513(7) 0.0687(3) -0.0457(4)
N5 N -0.0750(8) 0.1234(3) -0.1082(5)
N6 N -0.0972(11) 0.1758(5) -0.1658(5)
N7 N 0.3461(8) 0.1565(3) 0.0732(4)
C1 C 0.2833(12) 0.1910(5) 0.1563(6)
C2 C 0.3471(16) 0.2738(5) 0.1843(7)
C3 C 0.4778(16) 0.3217(5) 0.1258(8)
C4 C 0.5394(14) 0.2894(5) 0.0396(7)
C5 C 0.4730(11) 0.2048(4) 0.0172(6)
C6 C 0.1303(14) 0.1355(5) 0.2124(6)
C7 C 0.6630(21) 0.3425(6) -0.0314(10)
C8 C 0.8554(23) 0.3791(11) 0.0032(11)
H1 H 0.2962(16) 0.3011(5) 0.2507(7)
H2 H 0.5298(16) 0.3866(5) 0.1475(8)
H3 H 0.5261(11) 0.1760(4) -0.0481(6)
H4 H 0.0907(14) 0.1699(5) 0.2767(6)
H5 H 0.2239(14) 0.0767(5) 0.2351(6)
H6 H -0.0329(14) 0.1201(5) 0.1655(6)
H7 H 0.5402(21) 0.3921(6) -0.0609(10)
H8 H 0.6990(21) 0.3003(6) -0.0903(10)
H9 H 0.9198(23) 0.4144(11) -0.0556(11)
H10 H 0.9850(23) 0.3314(11) 0.0319(11)
H11 H 0.8262(23) 0.4232(11) 0.0613(11)
N1B N 0.4526(7) 0.0187(3) -0.1002(4)
N4B N 0.0513(7) -0.0687(3) 0.0457(4)
Cu1B Cu 0.7440(1) -0.0357(1) -0.0329(1)
Cu1B_2 Cu -0.2560(1) -0.0357(1) -0.0329(1)
loop_
_geom_bond_atom_site_label_1
_geom_bond_atom_site_label_2
_geom_bond_site_symmetry_1
_geom_bond_site_symmetry_2
Cu1 N1 1_555 1_555
N1 N2 1_555 1_555
N2 N3 1_555 1_555
N4 Cu1 1_555 1_555
N5 N4 1_555 1_555
N6 N5 1_555 1_555
N7 Cu1 1_555 1_555
C1 N7 1_555 1_555
C2 C1 1_555 1_555
C3 C2 1_555 1_555
C4 C3 1_555 1_555
C5 N7 1_555 1_555
C6 C1 1_555 1_555
C7 C4 1_555 1_555
C8 C7 1_555 1_555
H1 C2 1_555 1_555
H2 C3 1_555 1_555
H3 C5 1_555 1_555
H4 C6 1_555 1_555
H5 C6 1_555 1_555
H6 C6 1_555 1_555
H7 C7 1_555 1_555
H8 C7 1_555 1_555
H9 C8 1_555 1_555
H10 C8 1_555 1_555
H11 C8 1_555 1_555
N1B Cu1 1_555 1_555
N4B Cu1 1_555 1_555
Cu1B N1 1_555 1_555
Cu1B_2 N4 1_555 1_555
C4 C5 1_555 1_555
N1B Cu1B 1_555 1_555
N4B Cu1B_2 1_555 1_555

#END
