
#######################################################################
#
#                 Cambridge Crystallographic Data Centre
#                                CCDC 
#
#######################################################################
#
# If this CIF has been generated from an entry in the Cambridge 
# Structural Database, then it will include bibliographic, chemical, 
# crystal, experimental, refinement or atomic coordinate data resulting 
# from the CCDC's data processing and validation procedures.
#
#######################################################################

data_SURBAI
_symmetry_cell_setting           tetragonal
_symmetry_space_group_name_H-M   'I 4/m c m'
_symmetry_Int_Tables_number      140
_space_group_name_Hall           '-I 4 2c'
loop_
_symmetry_equiv_pos_site_id
_symmetry_equiv_pos_as_xyz
1 x,y,z
2 -y,x,z
3 x,-y,1/2-z
4 -x,-y,z
5 y,x,1/2-z
6 y,-x,z
7 -x,y,1/2-z
8 -y,-x,1/2-z
9 1/2+x,1/2+y,1/2+z
10 1/2-y,1/2+x,1/2+z
11 1/2+x,1/2-y,-z
12 1/2-x,1/2-y,1/2+z
13 1/2+y,1/2+x,-z
14 1/2+y,1/2-x,1/2+z
15 1/2-x,1/2+y,-z
16 1/2-y,1/2-x,-z
17 -x,-y,-z
18 y,-x,-z
19 -x,y,1/2+z
20 x,y,-z
21 -y,-x,1/2+z
22 -y,x,-z
23 x,-y,1/2+z
24 y,x,1/2+z
25 1/2-x,1/2-y,1/2-z
26 1/2+y,1/2-x,1/2-z
27 1/2-x,1/2+y,z
28 1/2+x,1/2+y,1/2-z
29 1/2-y,1/2-x,z
30 1/2-y,1/2+x,1/2-z
31 1/2+x,1/2-y,z
32 1/2+y,1/2+x,z
_cell_length_a                   8.026(2)
_cell_length_b                   8.026(2)
_cell_length_c                   14.203(6)
_cell_angle_alpha                90
_cell_angle_beta                 90
_cell_angle_gamma                90
_cell_volume                     914.91
loop_
_atom_site_label
_atom_site_type_symbol
_atom_site_fract_x
_atom_site_fract_y
_atom_site_fract_z
Ag1 Ag 0.0000 0.5000 0.7500
C1 C 0.0978(13) 0.4022(13) 0.9514(9)
H1 H 0.169(13) 0.332(13) 0.9226(96)
N1 N 0.0000 0.5000 0.9027(10)
C1O C 0.0978(13) 0.4022(13) 1.0486(9)
H1O H 0.168(13) 0.331(13) 1.0774(96)
N1O N 0.0000 0.5000 1.0973(10)
C1L C -0.0978(13) 0.5978(13) 1.0486(9)
C1C C -0.0978(13) 0.5978(13) 0.9514(9)
H1C H -0.169(13) 0.668(13) 0.9226(96)
H1L H -0.168(13) 0.669(13) 1.0774(96)
N1B N 0.0000 0.5000 0.5973(10)
Ag1I Ag 0.0000 0.5000 1.2500
P1 P 0.0000 0.0000 0.7500
F1 F 0.1362(13) 0.1362(13) 0.7500
F2 F 0.0000 0.0000 0.6409(17)
F1A F -0.1362(13) 0.1362(13) 0.7500
F1B F 0.1362(13) -0.1362(13) 0.7500
F1C F -0.1362(13) -0.1362(13) 0.7500
F2B F 0.0000 0.0000 0.8591(17)
F3? F -0.0926(22) -0.1004(21) 0.6732(10)
loop_
_geom_bond_atom_site_label_1
_geom_bond_atom_site_label_2
_geom_bond_site_symmetry_1
_geom_bond_site_symmetry_2
Ag1 N1 1_555 1_555
C1 H1 1_555 1_555
N1 C1 1_555 1_555
P1 F1 1_555 1_555
F2 P1 1_555 1_555
C1O C1 1_555 1_555
H1O C1O 1_555 1_555
N1O C1O 1_555 1_555
C1L N1O 1_555 1_555
C1C N1 1_555 1_555
H1C C1C 1_555 1_555
H1L C1L 1_555 1_555
F1A P1 1_555 1_555
F1B P1 1_555 1_555
F1C P1 1_555 1_555
F2B P1 1_555 1_555
N1B Ag1 1_555 1_555
Ag1I N1O 1_555 1_555
C1L C1C 1_555 1_555

#END
