
#######################################################################
#
#                 Cambridge Crystallographic Data Centre
#                                CCDC 
#
#######################################################################
#
# If this CIF has been generated from an entry in the Cambridge 
# Structural Database, then it will include bibliographic, chemical, 
# crystal, experimental, refinement or atomic coordinate data resulting 
# from the CCDC's data processing and validation procedures.
#
#######################################################################

data_SURVUX
_symmetry_cell_setting           monoclinic
_symmetry_space_group_name_H-M   'P 21/n'
_symmetry_Int_Tables_number      14
_space_group_name_Hall           '-P 2yn'
loop_
_symmetry_equiv_pos_site_id
_symmetry_equiv_pos_as_xyz
1 x,y,z
2 1/2-x,1/2+y,1/2-z
3 -x,-y,-z
4 1/2+x,1/2-y,1/2+z
_cell_length_a                   9.8285(5)
_cell_length_b                   9.8709(5)
_cell_length_c                   15.9321(10)
_cell_angle_alpha                90
_cell_angle_beta                 92.8050(18)
_cell_angle_gamma                90
_cell_volume                     1543.82
loop_
_atom_site_label
_atom_site_type_symbol
_atom_site_fract_x
_atom_site_fract_y
_atom_site_fract_z
In1 In 0.35279(3) -0.37285(3) 0.44370(2)
Br1 Br 0.30707(6) -0.24356(5) 0.57354(3)
Br2 Br 0.61225(5) -0.37990(5) 0.43565(4)
O1 O 0.1460(3) -0.6820(3) 0.1412(2)
O2 O 0.1342(3) -0.4584(3) 0.1492(2)
C1 C 0.2393(4) -0.5034(4) 0.3608(2)
C2 C 0.1190(4) -0.4765(4) 0.3230(2)
C3 C 0.0471(4) -0.5805(4) 0.2627(3)
C4 C 0.1134(4) -0.5813(4) 0.1792(3)
C5 C 0.1905(6) -0.4466(5) 0.0678(3)
C6 C -0.1063(4) -0.5462(5) 0.2435(3)
C7 C 0.0546(5) -0.7248(4) 0.2998(3)
C8 C 0.0506(4) -0.3429(4) 0.3401(3)
C9 C 0.0155(4) -0.3126(5) 0.4212(3)
C10 C -0.0385(5) -0.1875(6) 0.4410(3)
C11 C -0.0615(5) -0.0915(5) 0.3800(4)
C12 C -0.0294(5) -0.1199(4) 0.2982(3)
C13 C 0.0262(4) -0.2455(4) 0.2780(3)
H1 H 0.2785 -0.5895 0.3509
H2 H 0.1606 -0.3639 0.0427
H3 H 0.2872 -0.4483 0.0720
H4 H 0.1581 -0.5204 0.0342
H5 H -0.1600 -0.5909 0.2831
H6 H -0.1211 -0.4513 0.2465
H7 H -0.1315 -0.5776 0.1886
H8 H -0.0228 -0.7755 0.2803
H9 H 0.1351 -0.7693 0.2838
H10 H 0.0556 -0.7178 0.3593
H11 H 0.0296 -0.3795 0.4636
H12 H -0.0592 -0.1666 0.4971
H13 H -0.0979 -0.0062 0.3951
H14 H -0.0531 -0.0559 0.2554
H15 H 0.0533 -0.2658 0.2230
In1A In 0.14721(3) -0.87285(3) 0.05630(2)
In1B In 0.64721(3) -0.62715(3) 0.55630(2)
Br2B Br 0.38775(5) -0.62010(5) 0.56435(4)
O1A O 0.3540(3) -0.1820(3) 0.3588(2)
loop_
_geom_bond_atom_site_label_1
_geom_bond_atom_site_label_2
_geom_bond_site_symmetry_1
_geom_bond_site_symmetry_2
In1 Br1 1_555 1_555
Br2 In1 1_555 1_555
O1 C4 1_555 1_555
O2 C4 1_555 1_555
C1 In1 1_555 1_555
C2 C1 1_555 1_555
C3 C2 1_555 1_555
C4 C3 1_555 1_555
C5 O2 1_555 1_555
C6 C3 1_555 1_555
C7 C3 1_555 1_555
C8 C2 1_555 1_555
C9 C8 1_555 1_555
C10 C9 1_555 1_555
C11 C10 1_555 1_555
C12 C11 1_555 1_555
C13 C8 1_555 1_555
H1 C1 1_555 1_555
H2 C5 1_555 1_555
H3 C5 1_555 1_555
H4 C5 1_555 1_555
H5 C6 1_555 1_555
H6 C6 1_555 1_555
H7 C6 1_555 1_555
H8 C7 1_555 1_555
H9 C7 1_555 1_555
H10 C7 1_555 1_555
H11 C9 1_555 1_555
H12 C10 1_555 1_555
H13 C11 1_555 1_555
H14 C12 1_555 1_555
H15 C13 1_555 1_555
In1A O1 1_555 1_555
In1B Br2 1_555 1_555
Br2B In1 1_555 1_555
O1A In1 1_555 1_555
C12 C13 1_555 1_555
In1B Br2B 1_555 1_555

#END
