
#######################################################################
#
#                 Cambridge Crystallographic Data Centre
#                                CCDC 
#
#######################################################################
#
# If this CIF has been generated from an entry in the Cambridge 
# Structural Database, then it will include bibliographic, chemical, 
# crystal, experimental, refinement or atomic coordinate data resulting 
# from the CCDC's data processing and validation procedures.
#
#######################################################################

data_SUSGET
_symmetry_cell_setting           triclinic
_symmetry_space_group_name_H-M   'P -1'
_symmetry_Int_Tables_number      2
_space_group_name_Hall           '-P 1'
loop_
_symmetry_equiv_pos_site_id
_symmetry_equiv_pos_as_xyz
1 x,y,z
2 -x,-y,-z
_cell_length_a                   6.1127(9)
_cell_length_b                   8.5007(13)
_cell_length_c                   10.0558(14)
_cell_angle_alpha                88.137(12)
_cell_angle_beta                 80.151(12)
_cell_angle_gamma                88.521(12)
_cell_volume                     514.44
loop_
_atom_site_label
_atom_site_type_symbol
_atom_site_fract_x
_atom_site_fract_y
_atom_site_fract_z
C1 C 0.2757(4) 0.5176(3) 0.7472(2)
C2 C 0.3940(4) 0.6192(3) 0.8321(2)
C3 C 0.3050(4) 0.6514(4) 0.9656(2)
H1 H 0.1695 0.6102 1.0060
C4 C 0.4213(5) 0.7457(4) 1.0372(2)
H2 H 0.3662 0.7669 1.1270
C5 C 0.6215(5) 0.8087(3) 0.9739(2)
H3 H 0.7026 0.8728 1.0198
C6 C 0.6960(4) 0.7727(3) 0.8404(2)
C7 C 0.9006(4) 0.8398(4) 0.7582(3)
N1 N 0.5864(3) 0.6801(2) 0.77147(18)
N2 N 0.5711(4) 0.8819(3) 0.3721(2)
O1 O 0.3737(3) 0.4995(2) 0.62689(16)
O2 O 0.0973(3) 0.4613(3) 0.80049(19)
O3 O 0.9706(4) 0.7975(3) 0.6444(2)
O4 O 0.9941(5) 0.9452(4) 0.8201(3)
H4 H 1.110(14) 0.980(10) 0.767(8)
O5 O 0.8985(3) 0.3913(2) 0.59892(19)
H5 H 0.923(7) 0.404(5) 0.672(5)
H6 H 0.819(8) 0.323(6) 0.607(5)
O6 O 0.7691(4) 0.8552(3) 0.3868(3)
O7 O 0.4273(4) 0.8174(3) 0.4564(3)
O8 O 0.5323(7) 0.9687(4) 0.2803(3)
Cd1 Cd 0.72469(2) 0.632263(18) 0.547068(14)
O1A O 0.6263(3) 0.5005(2) 0.37311(16)
O5A O 1.1015(3) 0.6087(2) 0.40108(19)
H5A H 1.077(7) 0.596(5) 0.328(5)
H6A H 1.181(8) 0.677(6) 0.393(5)
Cd1A Cd 0.27531(2) 0.367737(18) 0.452932(14)
Cd1A_2 Cd 1.27531(2) 0.367737(18) 0.452932(14)
loop_
_geom_bond_atom_site_label_1
_geom_bond_atom_site_label_2
_geom_bond_site_symmetry_1
_geom_bond_site_symmetry_2
C1 C2 1_555 1_555
C2 C3 1_555 1_555
C3 H1 1_555 1_555
C4 C3 1_555 1_555
H2 C4 1_555 1_555
C5 C4 1_555 1_555
H3 C5 1_555 1_555
C6 C5 1_555 1_555
C7 C6 1_555 1_555
N1 C2 1_555 1_555
N2 O6 1_555 1_555
O1 C1 1_555 1_555
O2 C1 1_555 1_555
O3 C7 1_555 1_555
O4 C7 1_555 1_555
H4 O4 1_555 1_555
O5 H5 1_555 1_555
H6 O5 1_555 1_555
O6 Cd1 1_555 1_555
O7 N2 1_555 1_555
O8 N2 1_555 1_555
Cd1 N1 1_555 1_555
O1A Cd1 1_555 1_555
O5A Cd1 1_555 1_555
H5A O5A 1_555 1_555
H6A O5A 1_555 1_555
Cd1A O1 1_555 1_555
Cd1A_2 O5 1_555 1_555
C6 N1 1_555 1_555
O1 Cd1 1_555 1_555
O3 Cd1 1_555 1_555
O5 Cd1 1_555 1_555
O7 Cd1 1_555 1_555
O1A Cd1A 1_555 1_555
O5A Cd1A_2 1_555 1_555

#END
