
#######################################################################
#
#                 Cambridge Crystallographic Data Centre
#                                CCDC 
#
#######################################################################
#
# If this CIF has been generated from an entry in the Cambridge 
# Structural Database, then it will include bibliographic, chemical, 
# crystal, experimental, refinement or atomic coordinate data resulting 
# from the CCDC's data processing and validation procedures.
#
#######################################################################

data_SUSHUL
_symmetry_cell_setting           triclinic
_symmetry_space_group_name_H-M   'P -1'
_symmetry_Int_Tables_number      2
_space_group_name_Hall           '-P 1'
loop_
_symmetry_equiv_pos_site_id
_symmetry_equiv_pos_as_xyz
1 x,y,z
2 -x,-y,-z
_cell_length_a                   10.014(2)
_cell_length_b                   12.174(2)
_cell_length_c                   13.073(3)
_cell_angle_alpha                107.03(3)
_cell_angle_beta                 94.58(3)
_cell_angle_gamma                90.32(3)
_cell_volume                     1518.28
loop_
_atom_site_label
_atom_site_type_symbol
_atom_site_fract_x
_atom_site_fract_y
_atom_site_fract_z
Cd1 Cd 0.75506(3) -0.51431(2) -0.49486(2)
Cd2 Cd 0.57491(2) -0.29594(2) -0.29785(2)
Cd3 Cd 0.93084(2) -0.43641(2) -0.69986(2)
N1 N 0.8455(3) -0.4496(3) 0.1335(3)
N2 N 0.8085(3) -0.4077(3) -0.0184(3)
N3 N 0.6890(3) -0.2003(3) -0.1371(3)
N4 N 0.8446(4) -0.1518(3) 0.0005(3)
H1 H 0.9094 -0.1587 0.0453
O1 O 0.1986(3) -0.7232(2) -0.3650(3)
O2 O 0.3026(3) -0.5664(2) -0.3722(2)
O3 O 0.5499(3) -0.4708(2) -0.2313(2)
O4 O 0.5744(2) -0.4908(2) -0.4005(2)
O5 O 0.8408(2) -0.5835(2) -0.3582(2)
O6 O 0.9020(3) -0.7002(3) -0.2678(3)
O7 O 0.6608(3) -0.6695(2) -0.6241(3)
O8 O 0.5839(3) -0.8400(3) -0.7070(3)
O9 O 0.9330(2) -0.5596(2) -0.5918(2)
O10 O 0.9261(3) -0.6523(3) -0.7632(2)
O11 O 1.1902(3) -0.6580(2) -0.6328(2)
O12 O 1.2912(3) -0.8168(3) -0.6293(2)
C1 C 0.3030(3) -0.6697(3) -0.3703(3)
C2 C 0.5589(3) -0.5333(3) -0.3232(3)
C3 C 0.8140(3) -0.6647(3) -0.3202(3)
C4 C 0.6788(3) -0.7748(3) -0.6593(3)
C5 C 0.9317(3) -0.6530(3) -0.6695(3)
C6 C 1.1876(3) -0.7611(3) -0.6285(3)
C7 C 0.4358(3) -0.7264(3) -0.3684(3)
C8 C 0.5572(3) -0.6619(3) -0.3470(3)
C9 C 0.6768(3) -0.7214(3) -0.3416(3)
C10 C 0.6718(4) -0.8384(3) -0.3549(4)
H2 H 0.7511 -0.8761 -0.3483
C11 C 0.5525(4) -0.9004(3) -0.3775(4)
H3 H 0.5511 -0.9793 -0.3878
C12 C 0.4346(4) -0.8437(3) -0.3848(4)
H4 H 0.3535 -0.8851 -0.4010
C13 C 0.8126(3) -0.8246(3) -0.6458(3)
C14 C 0.9335(3) -0.7653(3) -0.6441(3)
C15 C 1.0547(3) -0.8180(3) -0.6288(3)
C16 C 1.0526(4) -0.9273(4) -0.6170(4)
H5 H 1.1333 -0.9611 -0.6056
C17 C 0.9349(5) -0.9869(4) -0.6218(5)
H6 H 0.9356 -1.0606 -0.6145
C18 C 0.8138(4) -0.9355(4) -0.6377(4)
H7 H 0.7333 -0.9761 -0.6429
C19 C 0.8960(4) -0.4017(4) 0.0669(3)
H8 H 0.9814 -0.3678 0.0772
C20 C 0.7194(5) -0.4873(5) 0.0891(4)
H9 H 0.6589 -0.5243 0.1194
C21 C 0.6952(5) -0.4634(4) -0.0044(4)
H10 H 0.6173 -0.4811 -0.0505
C22 C 0.8327(4) -0.3578(3) -0.1049(3)
H11 H 0.7865 -0.4047 -0.1716
H12 H 0.9279 -0.3582 -0.1141
C23 C 0.7855(4) -0.2375(3) -0.0816(3)
C24 C 0.7825(5) -0.0512(4) -0.0005(3)
C25 C 0.8026(6) 0.0621(4) 0.0654(4)
H13 H 0.8679 0.0818 0.1229
C26 C 0.7213(6) 0.1423(4) 0.0409(4)
H14 H 0.7321 0.2183 0.0835
C27 C 0.6232(5) 0.1153(4) -0.0449(4)
C28 C 0.6042(4) 0.0023(4) -0.1099(4)
H15 H 0.5387 -0.0169 -0.1673
C29 C 0.6857(4) -0.0812(3) -0.0869(3)
C30 C 0.5374(6) 0.2077(4) -0.0667(5)
H16 H 0.4762 0.1752 -0.1289
H17 H 0.5932 0.2660 -0.0794
H18 H 0.4877 0.2413 -0.0059
Cd1A Cd 0.24494(3) -0.48569(2) -0.50514(2)
Cd1A_2 Cd 1.24494(3) -0.48569(2) -0.50514(2)
Cd2A Cd 0.42509(2) -0.70406(2) -0.70215(2)
Cd2A_2 Cd 1.42509(2) -0.70406(2) -0.70215(2)
Cd3_2 Cd 0.93084(2) -0.43641(2) 0.30014(2)
Cd3A Cd 0.06916(2) -0.56359(2) -0.30014(2)
Cd3A_2 Cd 1.06916(2) -0.56359(2) -0.30014(2)
N1_2 N 0.8455(3) -0.4496(3) -0.8665(3)
O1A O 0.8014(3) -0.2768(2) -0.6350(3)
O2A O 0.6974(3) -0.4336(2) -0.6278(2)
O5A O 1.1592(2) -0.4165(2) -0.6418(2)
O6A O 1.0980(3) -0.2998(3) -0.7322(3)
O7A O 0.3392(3) -0.3305(2) -0.3759(3)
O8A O 0.4161(3) -0.1600(3) -0.2930(3)
O11A O 0.8098(3) -0.3420(2) -0.3672(2)
O12A O 0.7088(3) -0.1832(3) -0.3707(2)
O13 O 0.9231(4) -0.8414(4) -0.1356(3)
H19 H 0.9564 -0.9073 -0.1450
H20 H 0.9719 -0.7899 -0.1475
loop_
_geom_bond_atom_site_label_1
_geom_bond_atom_site_label_2
_geom_bond_site_symmetry_1
_geom_bond_site_symmetry_2
Cd1 O4 1_555 1_555
Cd2 N3 1_555 1_555
Cd3 O9 1_555 1_555
N1 C19 1_555 1_555
N2 C19 1_555 1_555
N3 C23 1_555 1_555
N4 H1 1_555 1_555
O1 C1 1_555 1_555
O2 C1 1_555 1_555
O3 Cd2 1_555 1_555
O4 Cd2 1_555 1_555
O5 Cd1 1_555 1_555
O6 C3 1_555 1_555
O7 Cd1 1_555 1_555
O8 C4 1_555 1_555
O9 Cd1 1_555 1_555
O10 Cd3 1_555 1_555
O11 C6 1_555 1_555
O12 C6 1_555 1_555
C1 C7 1_555 1_555
C2 O3 1_555 1_555
C3 O5 1_555 1_555
C4 O7 1_555 1_555
C5 O9 1_555 1_555
C6 C15 1_555 1_555
C7 C8 1_555 1_555
C8 C2 1_555 1_555
C9 C3 1_555 1_555
C10 C9 1_555 1_555
H2 C10 1_555 1_555
C11 C10 1_555 1_555
H3 C11 1_555 1_555
C12 C7 1_555 1_555
H4 C12 1_555 1_555
C13 C4 1_555 1_555
C14 C5 1_555 1_555
C15 C14 1_555 1_555
C16 C15 1_555 1_555
H5 C16 1_555 1_555
C17 C16 1_555 1_555
H6 C17 1_555 1_555
C18 C13 1_555 1_555
H7 C18 1_555 1_555
C19 H8 1_555 1_555
C20 N1 1_555 1_555
H9 C20 1_555 1_555
C21 N2 1_555 1_555
H10 C21 1_555 1_555
C22 N2 1_555 1_555
H11 C22 1_555 1_555
H12 C22 1_555 1_555
C23 N4 1_555 1_555
C24 N4 1_555 1_555
C25 C24 1_555 1_555
H13 C25 1_555 1_555
C26 C25 1_555 1_555
H14 C26 1_555 1_555
C27 C26 1_555 1_555
C28 C27 1_555 1_555
H15 C28 1_555 1_555
C29 N3 1_555 1_555
C30 C27 1_555 1_555
H16 C30 1_555 1_555
H17 C30 1_555 1_555
H18 C30 1_555 1_555
O13 H19 1_555 1_555
H20 O13 1_555 1_555
Cd1A O2 1_555 1_555
Cd1A_2 O11 1_555 1_555
Cd2A O7 1_555 1_555
Cd2A_2 O11 1_555 1_555
Cd3_2 N1 1_555 1_555
Cd3A O1 1_555 1_555
Cd3A_2 O5 1_555 1_555
N1_2 Cd3 1_555 1_555
O1A Cd3 1_555 1_555
O2A Cd1 1_555 1_555
O5A Cd3 1_555 1_555
O6A Cd3 1_555 1_555
O7A Cd2 1_555 1_555
O8A Cd2 1_555 1_555
O11A Cd1 1_555 1_555
O12A Cd2 1_555 1_555
Cd2 O11A 1_555 1_555
Cd3 O2A 1_555 1_555
O2 Cd3A 1_555 1_555
O4 C2 1_555 1_555
O6 Cd3A_2 1_555 1_555
O8 Cd2A 1_555 1_555
O10 C5 1_555 1_555
O12 Cd2A_2 1_555 1_555
C8 C9 1_555 1_555
C11 C12 1_555 1_555
C13 C14 1_555 1_555
C17 C18 1_555 1_555
C20 C21 1_555 1_555
C22 C23 1_555 1_555
C24 C29 1_555 1_555
C28 C29 1_555 1_555
Cd1A O7A 1_555 1_555
Cd1A_2 O5A 1_555 1_555

#END
