
#######################################################################
#
#                 Cambridge Crystallographic Data Centre
#                                CCDC 
#
#######################################################################
#
# If this CIF has been generated from an entry in the Cambridge 
# Structural Database, then it will include bibliographic, chemical, 
# crystal, experimental, refinement or atomic coordinate data resulting 
# from the CCDC's data processing and validation procedures.
#
#######################################################################

data_SUSKUO
_symmetry_cell_setting           orthorhombic
_symmetry_space_group_name_H-M   'P n n m'
_symmetry_Int_Tables_number      58
_space_group_name_Hall           '-P 2 2n'
loop_
_symmetry_equiv_pos_site_id
_symmetry_equiv_pos_as_xyz
1 x,y,z
2 -x,-y,z
3 1/2+x,1/2-y,1/2-z
4 1/2-x,1/2+y,1/2-z
5 -x,-y,-z
6 x,y,-z
7 1/2-x,1/2+y,1/2+z
8 1/2+x,1/2-y,1/2+z
_cell_length_a                   15.0060(15)
_cell_length_b                   20.570(2)
_cell_length_c                   20.303(2)
_cell_angle_alpha                90
_cell_angle_beta                 90
_cell_angle_gamma                90
_cell_volume                     6267
loop_
_atom_site_label
_atom_site_type_symbol
_atom_site_fract_x
_atom_site_fract_y
_atom_site_fract_z
Br1 Br -0.41109(6) 0.40644(6) -0.10148(4)
Br2 Br -0.32422(8) 0.56316(7) 0.0000
Br3 Br -0.13235(5) 0.47128(4) 0.10709(3)
Br4 Br -0.18924(8) 0.28751(7) 0.0000
Br5 Br 0.08322(8) 0.36689(6) 0.0000
Br6 Br -0.03971(9) 0.08777(6) 0.0000
Br7 Br 0.18623(7) 0.17964(6) 0.0000
Br8 Br 0.01503(5) 0.23992(4) 0.14817(4)
Br9 Br 0.0000 0.5000 0.27818(5)
C1 C -0.1864(5) 0.3401(4) 0.2187(4)
H1 H -0.1933 0.3510 0.1745
C2 C -0.2617(6) 0.3238(4) 0.2570(5)
H2 H -0.3183 0.3236 0.2384
C3 C -0.2500(6) 0.3077(6) 0.3235(4)
H3 H -0.2985 0.2978 0.3502
C4 C -0.1707(7) 0.3071(5) 0.3462(5)
H4 H -0.1632 0.2957 0.3902
C5 C -0.0928(6) 0.3226(4) 0.3094(4)
C6 C -0.0006(6) 0.3165(4) 0.3320(4)
C7 C 0.0160(9) 0.2856(6) 0.3906(6)
H5 H -0.0309 0.2720 0.4173
C8 C 0.1019(9) 0.2750(6) 0.4092(6)
H6 H 0.1138 0.2535 0.4486
C9 C 0.1728(8) 0.2964(6) 0.3694(5)
H7 H 0.2319 0.2916 0.3825
C10 C 0.1502(5) 0.3253(4) 0.3093(4)
C11 C 0.2218(5) 0.3415(4) 0.2624(4)
C12 C 0.3116(6) 0.3359(5) 0.2750(4)
H8 H 0.3315 0.3233 0.3165
C13 C 0.3728(6) 0.3494(5) 0.2247(4)
H9 H 0.4333 0.3422 0.2314
C14 C 0.3430(6) 0.3735(5) 0.1652(6)
H10 H 0.3827 0.3852 0.1321
C15 C 0.2528(5) 0.3795(5) 0.1567(5)
H11 H 0.2314 0.3935 0.1161
C16 C 0.0789(6) 0.0598(4) 0.1480(4)
H12 H 0.0249 0.0797 0.1381
C17 C 0.0987(8) 0.0471(5) 0.2132(5)
H13 H 0.0569 0.0548 0.2461
C18 C 0.1849(8) 0.0219(5) 0.2292(5)
H14 H 0.2021 0.0156 0.2727
C19 C 0.2410(7) 0.0073(5) 0.1784(5)
H15 H 0.2971 -0.0099 0.1866
C20 C 0.2140(6) 0.0183(4) 0.1165(4)
C21 C 0.3915(10) -0.0386(10) 0.0000
H16 H 0.4469 -0.0590 0.0000
C22 C 0.3574(7) -0.0261(7) 0.0596(6)
H17 H 0.3873 -0.0347 0.0988
C23 C 0.2723(6) 0.0013(4) 0.0570(4)
Cu1 Cu 0.11026(11) 0.05615(7) 0.0000
N1 N -0.1039(4) 0.3400(3) 0.2461(3)
N2 N 0.0637(4) 0.3341(3) 0.2923(3)
N3 N 0.1949(4) 0.3660(3) 0.2040(3)
N4 N 0.1349(5) 0.0444(4) 0.0976(4)
N5 N 0.2315(7) 0.0142(4) 0.0000
Pb1 Pb 0.026533(17) 0.381735(14) 0.181766(12)
Pb2 Pb -0.5000 0.5000 0.0000
Pb3 Pb -0.26382(2) 0.42490(2) 0.0000
Pb4 Pb 0.0000 0.5000 0.0000
Pb5 Pb 0.00536(3) 0.23890(2) 0.0000
C16E C 0.0789(6) 0.0598(4) -0.1480(4)
H12E H 0.0249 0.0797 -0.1381
C17E C 0.0987(8) 0.0471(5) -0.2132(5)
H13E H 0.0569 0.0548 -0.2461
C18E C 0.1849(8) 0.0219(5) -0.2292(5)
H14E H 0.2021 0.0156 -0.2727
C19E C 0.2410(7) 0.0073(5) -0.1784(5)
H15E H 0.2971 -0.0099 -0.1866
C20E C 0.2140(6) 0.0183(4) -0.1165(4)
C22E C 0.3574(7) -0.0261(7) -0.0596(6)
H17E H 0.3873 -0.0347 -0.0988
C23E C 0.2723(6) 0.0013(4) -0.0570(4)
N4E N 0.1349(5) 0.0444(4) -0.0976(4)
Br1A Br -0.58891(6) 0.59356(6) -0.10148(4)
Br2A Br -0.67578(8) 0.43684(7) 0.0000
Br3A Br -0.86765(5) 0.52872(4) 0.10709(3)
Br4A Br -0.81076(8) 0.71249(7) 0.0000
Br5A Br -1.08322(8) 0.63311(6) 0.0000
Br6A Br -0.96029(9) 0.91223(6) 0.0000
Br7A Br -1.18623(7) 0.82036(6) 0.0000
Br8A Br -1.01503(5) 0.76008(4) 0.14817(4)
C1A C -0.8136(5) 0.6599(4) 0.2187(4)
H1A H -0.8067 0.6490 0.1745
C2A C -0.7383(6) 0.6762(4) 0.2570(5)
H2A H -0.6817 0.6764 0.2384
C3A C -0.7500(6) 0.6923(6) 0.3235(4)
H3A H -0.7015 0.7022 0.3502
C4A C -0.8293(7) 0.6929(5) 0.3462(5)
H4A H -0.8368 0.7043 0.3902
C5A C -0.9072(6) 0.6774(4) 0.3094(4)
C6A C -0.9994(6) 0.6835(4) 0.3320(4)
C7A C -1.0160(9) 0.7144(6) 0.3906(6)
H5A H -0.9691 0.7280 0.4173
C8A C -1.1019(9) 0.7250(6) 0.4092(6)
H6A H -1.1138 0.7465 0.4486
C9A C -1.1728(8) 0.7036(6) 0.3694(5)
H7A H -1.2319 0.7084 0.3825
C10A C -1.1502(5) 0.6747(4) 0.3093(4)
C11A C -1.2218(5) 0.6585(4) 0.2624(4)
C12A C -1.3116(6) 0.6641(5) 0.2750(4)
H8A H -1.3315 0.6767 0.3165
C13A C -1.3728(6) 0.6506(5) 0.2247(4)
H9A H -1.4333 0.6578 0.2314
C14A C -1.3430(6) 0.6265(5) 0.1652(6)
H10A H -1.3827 0.6148 0.1321
C15A C -1.2528(5) 0.6205(5) 0.1567(5)
H11A H -1.2314 0.6065 0.1161
C16A C -1.0789(6) 0.9402(4) 0.1480(4)
H12A H -1.0249 0.9203 0.1381
C17A C -1.0987(8) 0.9529(5) 0.2132(5)
H13A H -1.0569 0.9452 0.2461
C18A C -1.1849(8) 0.9781(5) 0.2292(5)
H14A H -1.2021 0.9844 0.2727
C19A C -1.2410(7) 0.9927(5) 0.1784(5)
H15A H -1.2971 1.0099 0.1866
C20A C -1.2140(6) 0.9817(4) 0.1165(4)
C21A C -1.3915(10) 1.0386(10) 0.0000
H16A H -1.4469 1.0590 0.0000
C22A C -1.3574(7) 1.0261(7) 0.0596(6)
H17A H -1.3873 1.0347 0.0988
C23A C -1.2723(6) 0.9987(4) 0.0570(4)
Cu1A Cu -1.11026(11) 0.94385(7) 0.0000
N1A N -0.8961(4) 0.6600(3) 0.2461(3)
N2A N -1.0637(4) 0.6659(3) 0.2923(3)
N3A N -1.1949(4) 0.6340(3) 0.2040(3)
N4A N -1.1349(5) 0.9556(4) 0.0976(4)
N5A N -1.2315(7) 0.9858(4) 0.0000
Pb1A Pb -1.026533(17) 0.618265(14) 0.181766(12)
Pb3A Pb -0.73618(2) 0.57510(2) 0.0000
Pb5A Pb -1.00536(3) 0.76110(2) 0.0000
C16D C -1.0789(6) 0.9402(4) -0.1480(4)
H12D H -1.0249 0.9203 -0.1381
C17D C -1.0987(8) 0.9529(5) -0.2132(5)
H13D H -1.0569 0.9452 -0.2461
C18D C -1.1849(8) 0.9781(5) -0.2292(5)
H14D H -1.2021 0.9844 -0.2727
C19D C -1.2410(7) 0.9927(5) -0.1784(5)
H15D H -1.2971 1.0099 -0.1866
C20D C -1.2140(6) 0.9817(4) -0.1165(4)
C22D C -1.3574(7) 1.0261(7) -0.0596(6)
H17D H -1.3873 1.0347 -0.0988
C23D C -1.2723(6) 0.9987(4) -0.0570(4)
N4D N -1.1349(5) 0.9556(4) -0.0976(4)
Br1D Br -0.58891(6) 0.59356(6) 0.10148(4)
Br3D Br -0.86765(5) 0.52872(4) -0.10709(3)
Br8D Br -1.01503(5) 0.76008(4) -0.14817(4)
C1D C -0.8136(5) 0.6599(4) -0.2187(4)
H1D H -0.8067 0.6490 -0.1745
C2D C -0.7383(6) 0.6762(4) -0.2570(5)
H2D H -0.6817 0.6764 -0.2384
C3D C -0.7500(6) 0.6923(6) -0.3235(4)
H3D H -0.7015 0.7022 -0.3502
C4D C -0.8293(7) 0.6929(5) -0.3462(5)
H4D H -0.8368 0.7043 -0.3902
C5D C -0.9072(6) 0.6774(4) -0.3094(4)
C6D C -0.9994(6) 0.6835(4) -0.3320(4)
C7D C -1.0160(9) 0.7144(6) -0.3906(6)
H5D H -0.9691 0.7280 -0.4173
C8D C -1.1019(9) 0.7250(6) -0.4092(6)
H6D H -1.1138 0.7465 -0.4486
C9D C -1.1728(8) 0.7036(6) -0.3694(5)
H7D H -1.2319 0.7084 -0.3825
C10D C -1.1502(5) 0.6747(4) -0.3093(4)
C11D C -1.2218(5) 0.6585(4) -0.2624(4)
C12D C -1.3116(6) 0.6641(5) -0.2750(4)
H8D H -1.3315 0.6767 -0.3165
C13D C -1.3728(6) 0.6506(5) -0.2247(4)
H9D H -1.4333 0.6578 -0.2314
C14D C -1.3430(6) 0.6265(5) -0.1652(6)
H10D H -1.3827 0.6148 -0.1321
C15D C -1.2528(5) 0.6205(5) -0.1567(5)
H11D H -1.2314 0.6065 -0.1161
N1D N -0.8961(4) 0.6600(3) -0.2461(3)
N2D N -1.0637(4) 0.6659(3) -0.2923(3)
N3D N -1.1949(4) 0.6340(3) -0.2040(3)
Pb1D Pb -1.026533(17) 0.618265(14) -0.181766(12)
Br1E Br -0.41109(6) 0.40644(6) 0.10148(4)
Br3E Br -0.13235(5) 0.47128(4) -0.10709(3)
Br8E Br 0.01503(5) 0.23992(4) -0.14817(4)
Br9D Br 0.0000 0.5000 -0.27818(5)
C1E C -0.1864(5) 0.3401(4) -0.2187(4)
H1E H -0.1933 0.3510 -0.1745
C2E C -0.2617(6) 0.3238(4) -0.2570(5)
H2E H -0.3183 0.3236 -0.2384
C3E C -0.2500(6) 0.3077(6) -0.3235(4)
H3E H -0.2985 0.2978 -0.3502
C4E C -0.1707(7) 0.3071(5) -0.3462(5)
H4E H -0.1632 0.2957 -0.3902
C5E C -0.0928(6) 0.3226(4) -0.3094(4)
C6E C -0.0006(6) 0.3165(4) -0.3320(4)
C7E C 0.0160(9) 0.2856(6) -0.3906(6)
H5E H -0.0309 0.2720 -0.4173
C8E C 0.1019(9) 0.2750(6) -0.4092(6)
H6E H 0.1138 0.2535 -0.4486
C9E C 0.1728(8) 0.2964(6) -0.3694(5)
H7E H 0.2319 0.2916 -0.3825
C10E C 0.1502(5) 0.3253(4) -0.3093(4)
C11E C 0.2218(5) 0.3415(4) -0.2624(4)
C12E C 0.3116(6) 0.3359(5) -0.2750(4)
H8E H 0.3315 0.3233 -0.3165
C13E C 0.3728(6) 0.3494(5) -0.2247(4)
H9E H 0.4333 0.3422 -0.2314
C14E C 0.3430(6) 0.3735(5) -0.1652(6)
H10E H 0.3827 0.3852 -0.1321
C15E C 0.2528(5) 0.3795(5) -0.1567(5)
H11E H 0.2314 0.3935 -0.1161
N1E N -0.1039(4) 0.3400(3) -0.2461(3)
N2E N 0.0637(4) 0.3341(3) -0.2923(3)
N3E N 0.1949(4) 0.3660(3) -0.2040(3)
Pb1E Pb 0.026533(17) 0.381735(14) -0.181766(12)
Br3A_2 Br 0.13235(5) 0.52872(4) 0.10709(3)
Br3D_2 Br 0.13235(5) 0.52872(4) -0.10709(3)
Br5A_2 Br -0.08322(8) 0.63311(6) 0.0000
Br6_2 Br -1.03971(9) 1.08777(6) 0.0000
Br6A_2 Br 0.03971(9) -0.08777(6) 0.0000
Br9_2 Br -1.0000 0.5000 0.27818(5)
Br9D_2 Br -1.0000 0.5000 -0.27818(5)
Cu1_2 Cu -0.88974(11) 1.05615(7) 0.0000
Cu1A_2 Cu -0.11026(11) -0.05615(7) 0.0000
Pb1A_2 Pb -0.026533(17) 0.618265(14) 0.181766(12)
Pb1D_2 Pb -0.026533(17) 0.618265(14) -0.181766(12)
Pb4_2 Pb -1.0000 0.5000 0.0000
loop_
_geom_bond_atom_site_label_1
_geom_bond_atom_site_label_2
_geom_bond_site_symmetry_1
_geom_bond_site_symmetry_2
Br1 Pb2 1_555 1_555
Br2 Pb2 1_555 1_555
Br3 Pb3 1_555 1_555
Br4 Pb3 1_555 1_555
Br5 Pb4 1_555 1_555
Br6 Cu1 1_555 1_555
Br7 Cu1 1_555 1_555
Br8 Pb1 1_555 1_555
Br9 Pb1 1_555 1_555
C1 H1 1_555 1_555
C2 C1 1_555 1_555
H2 C2 1_555 1_555
C3 C2 1_555 1_555
H3 C3 1_555 1_555
C4 C3 1_555 1_555
H4 C4 1_555 1_555
C5 C4 1_555 1_555
C6 C5 1_555 1_555
C7 C6 1_555 1_555
H5 C7 1_555 1_555
C8 C7 1_555 1_555
H6 C8 1_555 1_555
C9 C8 1_555 1_555
H7 C9 1_555 1_555
C10 C9 1_555 1_555
C11 C10 1_555 1_555
C12 C11 1_555 1_555
H8 C12 1_555 1_555
C13 C12 1_555 1_555
H9 C13 1_555 1_555
C14 C13 1_555 1_555
H10 C14 1_555 1_555
C15 C14 1_555 1_555
H11 C15 1_555 1_555
C16 H12 1_555 1_555
C17 C16 1_555 1_555
H13 C17 1_555 1_555
C18 C17 1_555 1_555
H14 C18 1_555 1_555
C19 C18 1_555 1_555
H15 C19 1_555 1_555
C20 C19 1_555 1_555
C21 H16 1_555 1_555
C22 C21 1_555 1_555
H17 C22 1_555 1_555
C23 C20 1_555 1_555
Cu1 N4 1_555 1_555
N1 C1 1_555 1_555
N2 C6 1_555 1_555
N3 C11 1_555 1_555
N4 C16 1_555 1_555
N5 C23 1_555 1_555
Pb1 N1 1_555 1_555
Pb2 Br1A 1_555 1_555
Pb3 Br1 1_555 1_555
Pb4 Br3 1_555 1_555
Pb5 Br4 1_555 1_555
C16E H12E 1_555 1_555
C17E C16E 1_555 1_555
H13E C17E 1_555 1_555
C18E C17E 1_555 1_555
H14E C18E 1_555 1_555
C19E C18E 1_555 1_555
H15E C19E 1_555 1_555
C20E C19E 1_555 1_555
C22E C21 1_555 1_555
H17E C22E 1_555 1_555
C23E N5 1_555 1_555
N4E Cu1 1_555 1_555
Br1A Pb3A 1_555 1_555
Br2A Pb2 1_555 1_555
Br3A Pb3A 1_555 1_555
Br4A Pb3A 1_555 1_555
Br5A Pb5A 1_555 1_555
Br6A Cu1A 1_555 1_555
Br7A Cu1A 1_555 1_555
Br8A Pb1A 1_555 1_555
C1A H1A 1_555 1_555
C2A C1A 1_555 1_555
H2A C2A 1_555 1_555
C3A C2A 1_555 1_555
H3A C3A 1_555 1_555
C4A C3A 1_555 1_555
H4A C4A 1_555 1_555
C5A C4A 1_555 1_555
C6A C5A 1_555 1_555
C7A C6A 1_555 1_555
H5A C7A 1_555 1_555
C8A C7A 1_555 1_555
H6A C8A 1_555 1_555
C9A C8A 1_555 1_555
H7A C9A 1_555 1_555
C10A C9A 1_555 1_555
C11A C10A 1_555 1_555
C12A C11A 1_555 1_555
H8A C12A 1_555 1_555
C13A C12A 1_555 1_555
H9A C13A 1_555 1_555
C14A C13A 1_555 1_555
H10A C14A 1_555 1_555
C15A C14A 1_555 1_555
H11A C15A 1_555 1_555
C16A H12A 1_555 1_555
C17A C16A 1_555 1_555
H13A C17A 1_555 1_555
C18A C17A 1_555 1_555
H14A C18A 1_555 1_555
C19A C18A 1_555 1_555
H15A C19A 1_555 1_555
C20A C19A 1_555 1_555
C21A H16A 1_555 1_555
C22A C21A 1_555 1_555
H17A C22A 1_555 1_555
C23A C20A 1_555 1_555
Cu1A N4A 1_555 1_555
N1A C1A 1_555 1_555
N2A C6A 1_555 1_555
N3A C11A 1_555 1_555
N4A C16A 1_555 1_555
N5A C23A 1_555 1_555
Pb1A N1A 1_555 1_555
Pb3A Br2A 1_555 1_555
Pb5A Br4A 1_555 1_555
C16D H12D 1_555 1_555
C17D C16D 1_555 1_555
H13D C17D 1_555 1_555
C18D C17D 1_555 1_555
H14D C18D 1_555 1_555
C19D C18D 1_555 1_555
H15D C19D 1_555 1_555
C20D C19D 1_555 1_555
C22D C21A 1_555 1_555
H17D C22D 1_555 1_555
C23D N5A 1_555 1_555
N4D Cu1A 1_555 1_555
Br1D Pb2 1_555 1_555
Br3D Pb3A 1_555 1_555
Br8D Pb5A 1_555 1_555
C1D H1D 1_555 1_555
C2D C1D 1_555 1_555
H2D C2D 1_555 1_555
C3D C2D 1_555 1_555
H3D C3D 1_555 1_555
C4D C3D 1_555 1_555
H4D C4D 1_555 1_555
C5D C4D 1_555 1_555
C6D C5D 1_555 1_555
C7D C6D 1_555 1_555
H5D C7D 1_555 1_555
C8D C7D 1_555 1_555
H6D C8D 1_555 1_555
C9D C8D 1_555 1_555
H7D C9D 1_555 1_555
C10D C9D 1_555 1_555
C11D C10D 1_555 1_555
C12D C11D 1_555 1_555
H8D C12D 1_555 1_555
C13D C12D 1_555 1_555
H9D C13D 1_555 1_555
C14D C13D 1_555 1_555
H10D C14D 1_555 1_555
C15D C14D 1_555 1_555
H11D C15D 1_555 1_555
N1D C1D 1_555 1_555
N2D C6D 1_555 1_555
N3D C11D 1_555 1_555
Pb1D Br8D 1_555 1_555
Br1E Pb2 1_555 1_555
Br3E Pb3 1_555 1_555
Br8E Pb5 1_555 1_555
Br9D Pb1E 1_555 1_555
C1E H1E 1_555 1_555
C2E C1E 1_555 1_555
H2E C2E 1_555 1_555
C3E C2E 1_555 1_555
H3E C3E 1_555 1_555
C4E C3E 1_555 1_555
H4E C4E 1_555 1_555
C5E C4E 1_555 1_555
C6E C5E 1_555 1_555
C7E C6E 1_555 1_555
H5E C7E 1_555 1_555
C8E C7E 1_555 1_555
H6E C8E 1_555 1_555
C9E C8E 1_555 1_555
H7E C9E 1_555 1_555
C10E C9E 1_555 1_555
C11E C10E 1_555 1_555
C12E C11E 1_555 1_555
H8E C12E 1_555 1_555
C13E C12E 1_555 1_555
H9E C13E 1_555 1_555
C14E C13E 1_555 1_555
H10E C14E 1_555 1_555
C15E C14E 1_555 1_555
H11E C15E 1_555 1_555
N1E C1E 1_555 1_555
N2E C6E 1_555 1_555
N3E C11E 1_555 1_555
Pb1E Br8E 1_555 1_555
Br3A_2 Pb4 1_555 1_555
Br3D_2 Pb4 1_555 1_555
Br5A_2 Pb4 1_555 1_555
Br6_2 Cu1A 1_555 1_555
Br6A_2 Cu1 1_555 1_555
Br9_2 Pb1A 1_555 1_555
Br9D_2 Pb1D 1_555 1_555
Cu1_2 Br6A 1_555 1_555
Cu1A_2 Br6 1_555 1_555
Pb1A_2 Br9 1_555 1_555
Pb1D_2 Br9D 1_555 1_555
Pb4_2 Br3A 1_555 1_555
Br2 Pb3 1_555 1_555
Br5 Pb5 1_555 1_555
Br6 Pb5 1_555 1_555
Br7 Pb5 1_555 1_555
Br8 Pb5 1_555 1_555
C5 N1 1_555 1_555
C10 N2 1_555 1_555
C15 N3 1_555 1_555
C20 N4 1_555 1_555
C22 C23 1_555 1_555
Cu1 N5 1_555 1_555
N2 Pb1 1_555 1_555
N3 Pb1 1_555 1_555
Pb3 Br1E 1_555 1_555
Pb4 Br3E 1_555 1_555
C16E N4E 1_555 1_555
C20E C23E 1_555 1_555
C20E N4E 1_555 1_555
C22E C23E 1_555 1_555
Br5A Pb4_2 1_555 1_555
Br6A Pb5A 1_555 1_555
Br7A Pb5A 1_555 1_555
Br8A Pb5A 1_555 1_555
C5A N1A 1_555 1_555
C10A N2A 1_555 1_555
C15A N3A 1_555 1_555
C20A N4A 1_555 1_555
C22A C23A 1_555 1_555
Cu1A N5A 1_555 1_555
N2A Pb1A 1_555 1_555
N3A Pb1A 1_555 1_555
Pb3A Br1D 1_555 1_555
C16D N4D 1_555 1_555
C20D C23D 1_555 1_555
C20D N4D 1_555 1_555
C22D C23D 1_555 1_555
Br3D Pb4_2 1_555 1_555
C5D N1D 1_555 1_555
C10D N2D 1_555 1_555
C15D N3D 1_555 1_555
N1D Pb1D 1_555 1_555
N2D Pb1D 1_555 1_555
N3D Pb1D 1_555 1_555
C5E N1E 1_555 1_555
C10E N2E 1_555 1_555
C15E N3E 1_555 1_555
N1E Pb1E 1_555 1_555
N2E Pb1E 1_555 1_555
N3E Pb1E 1_555 1_555
Br6_2 Cu1_2 1_555 1_555
Br6A_2 Cu1A_2 1_555 1_555

#END
