
#######################################################################
#
#                 Cambridge Crystallographic Data Centre
#                                CCDC 
#
#######################################################################
#
# If this CIF has been generated from an entry in the Cambridge 
# Structural Database, then it will include bibliographic, chemical, 
# crystal, experimental, refinement or atomic coordinate data resulting 
# from the CCDC's data processing and validation procedures.
#
#######################################################################

data_SUSLEZ
_symmetry_cell_setting           triclinic
_symmetry_space_group_name_H-M   'P -1'
_symmetry_Int_Tables_number      2
_space_group_name_Hall           '-P 1'
loop_
_symmetry_equiv_pos_site_id
_symmetry_equiv_pos_as_xyz
1 x,y,z
2 -x,-y,-z
_cell_length_a                   7.3259(15)
_cell_length_b                   7.5507(15)
_cell_length_c                   15.250(3)
_cell_angle_alpha                80.24(3)
_cell_angle_beta                 89.26(3)
_cell_angle_gamma                68.58(3)
_cell_volume                     772.827
loop_
_atom_site_label
_atom_site_type_symbol
_atom_site_fract_x
_atom_site_fract_y
_atom_site_fract_z
Cd1 Cd 0.72735(7) 0.19535(6) 0.46689(3)
N1 N 0.6694(8) 0.3875(7) 0.3244(3)
O1 O 0.3745(6) 0.3508(6) 0.4704(3)
O2 O 0.1587(7) 0.6600(6) 0.4404(3)
O3 O 0.3803(7) -0.0349(7) 0.3972(4)
O4 O 0.0752(7) 0.1141(7) 0.4301(3)
O5 O 0.0648(9) 0.7503(7) 0.0150(3)
O6 O 0.0195(9) 0.9434(7) 0.1178(3)
H1 H -0.0035 1.0269 0.0721
O7 O 0.7611(7) -0.0579(7) 0.3875(3)
H2 H 0.7076 -0.1207 0.3588
H3 H 0.7907 -0.1370 0.4447
C1 C 0.6716(11) 0.3158(10) 0.2481(5)
H4 H 0.6980 0.1829 0.2525
C2 C 0.6365(12) 0.4306(11) 0.1639(5)
H5 H 0.6366 0.3754 0.1131
C3 C 0.6004(10) 0.6314(10) 0.1545(4)
C4 C 0.6010(11) 0.7015(10) 0.2344(4)
H6 H 0.5792 0.8328 0.2325
C5 C 0.6335(11) 0.5776(10) 0.3156(4)
H7 H 0.6303 0.6295 0.3677
C6 C 0.5659(12) 0.7529(12) 0.0649(5)
H8 H 0.5814 0.6880 0.0162
C7 C 0.5155(12) 0.9437(12) 0.0453(5)
H9 H 0.4986 1.0114 0.0930
C8 C 0.1871(9) 0.4642(10) 0.3292(4)
C9 C 0.1958(9) 0.2842(9) 0.3112(4)
C10 C 0.1624(9) 0.2629(9) 0.2227(4)
H10 H 0.1663 0.1432 0.2112
C11 C 0.1234(10) 0.4216(9) 0.1518(4)
H11 H 0.1059 0.4065 0.0930
C12 C 0.1111(9) 0.6021(9) 0.1700(4)
C13 C 0.1418(9) 0.6230(9) 0.2585(4)
H12 H 0.1320 0.7443 0.2703
C14 C 0.2394(9) 0.4960(10) 0.4192(4)
C15 C 0.2203(9) 0.1115(9) 0.3850(4)
C16 C 0.0638(10) 0.7741(10) 0.0958(4)
N1A N 0.3306(8) 1.6125(7) -0.3244(3)
C1A C 0.3284(11) 1.6842(10) -0.2481(5)
H4A H 0.3020 1.8171 -0.2525
C2A C 0.3635(12) 1.5694(11) -0.1639(5)
H5A H 0.3634 1.6246 -0.1131
C3A C 0.3996(10) 1.3686(10) -0.1545(4)
C4A C 0.3990(11) 1.2985(10) -0.2344(4)
H6A H 0.4208 1.1672 -0.2325
C5A C 0.3665(11) 1.4224(10) -0.3156(4)
H7A H 0.3697 1.3705 -0.3677
C6A C 0.4341(12) 1.2471(12) -0.0649(5)
H8A H 0.4186 1.3120 -0.0162
C7A C 0.4845(12) 1.0563(12) -0.0453(5)
H9A H 0.5014 0.9886 -0.0930
Cd1A Cd 0.27265(7) -0.19535(6) 0.53311(3)
O1A O 0.6255(6) -0.3508(6) 0.5296(3)
O2A O 0.8413(7) -0.6600(6) 0.5596(3)
O3A O 0.6197(7) 0.0349(7) 0.6028(4)
O4A O 0.9248(7) -0.1141(7) 0.5699(3)
O5A O 0.9352(9) -0.7503(7) 0.9850(3)
O6A O 0.9805(9) -0.9434(7) 0.8822(3)
H1A H 1.0035 -1.0269 0.9279
O7A O 0.2389(7) 0.0579(7) 0.6125(3)
H2A H 0.2924 0.1207 0.6412
H3A H 0.2093 0.1370 0.5553
C8A C 0.8129(9) -0.4642(10) 0.6708(4)
C9A C 0.8042(9) -0.2842(9) 0.6888(4)
C10A C 0.8376(9) -0.2629(9) 0.7773(4)
H10A H 0.8337 -0.1432 0.7888
C11A C 0.8766(10) -0.4216(9) 0.8482(4)
H11A H 0.8941 -0.4065 0.9070
C12A C 0.8889(9) -0.6021(9) 0.8300(4)
C13A C 0.8582(9) -0.6230(9) 0.7415(4)
H12A H 0.8680 -0.7443 0.7297
C14A C 0.7606(9) -0.4960(10) 0.5808(4)
C15A C 0.7797(9) -0.1115(9) 0.6150(4)
C16A C 0.9362(10) -0.7741(10) 0.9042(4)
Cd1_2 Cd -0.27265(7) 0.19535(6) 0.46689(3)
Cd1_3 Cd 0.72735(7) -0.80465(6) 0.46689(3)
Cd1A_2 Cd 0.27265(7) 0.80465(6) 0.53311(3)
Cd1A_3 Cd 0.27265(7) 1.80465(6) -0.46689(3)
Cd1A_4 Cd 1.27265(7) -0.19535(6) 0.53311(3)
N1A_2 N 0.3306(8) -0.3875(7) 0.6756(3)
O2_2 O 0.1587(7) -0.3400(6) 0.4404(3)
O2A_2 O 0.8413(7) 0.3400(6) 0.5596(3)
O4_2 O 1.0752(7) 0.1141(7) 0.4301(3)
O4A_2 O -0.0752(7) -0.1141(7) 0.5699(3)
loop_
_geom_bond_atom_site_label_1
_geom_bond_atom_site_label_2
_geom_bond_site_symmetry_1
_geom_bond_site_symmetry_2
Cd1 N1 1_555 1_555
N1 C1 1_555 1_555
O1 Cd1 1_555 1_555
O2 C14 1_555 1_555
O3 C15 1_555 1_555
O4 C15 1_555 1_555
O5 C16 1_555 1_555
O6 H1 1_555 1_555
O7 Cd1 1_555 1_555
H2 O7 1_555 1_555
H3 O7 1_555 1_555
C1 H4 1_555 1_555
C2 C1 1_555 1_555
H5 C2 1_555 1_555
C3 C2 1_555 1_555
C4 C3 1_555 1_555
H6 C4 1_555 1_555
C5 N1 1_555 1_555
H7 C5 1_555 1_555
C6 C3 1_555 1_555
H8 C6 1_555 1_555
C7 C6 1_555 1_555
H9 C7 1_555 1_555
C8 C9 1_555 1_555
C9 C10 1_555 1_555
C10 H10 1_555 1_555
C11 C10 1_555 1_555
H11 C11 1_555 1_555
C12 C11 1_555 1_555
C13 C8 1_555 1_555
H12 C13 1_555 1_555
C14 O1 1_555 1_555
C15 C9 1_555 1_555
C16 O6 1_555 1_555
N1A C1A 1_555 1_555
C1A H4A 1_555 1_555
C2A C1A 1_555 1_555
H5A C2A 1_555 1_555
C3A C2A 1_555 1_555
C4A C3A 1_555 1_555
H6A C4A 1_555 1_555
C5A N1A 1_555 1_555
H7A C5A 1_555 1_555
C6A C3A 1_555 1_555
H8A C6A 1_555 1_555
C7A C7 1_555 1_555
H9A C7A 1_555 1_555
Cd1A O3 1_555 1_555
O1A Cd1A 1_555 1_555
O2A C14A 1_555 1_555
O3A Cd1 1_555 1_555
O4A Cd1 1_555 1_555
O5A C16A 1_555 1_555
O6A H1A 1_555 1_555
O7A Cd1A 1_555 1_555
H2A O7A 1_555 1_555
H3A O7A 1_555 1_555
C8A C9A 1_555 1_555
C9A C10A 1_555 1_555
C10A H10A 1_555 1_555
C11A C10A 1_555 1_555
H11A C11A 1_555 1_555
C12A C11A 1_555 1_555
C13A C8A 1_555 1_555
H12A C13A 1_555 1_555
C14A O1A 1_555 1_555
C15A O3A 1_555 1_555
C16A O6A 1_555 1_555
Cd1_2 O4 1_555 1_555
Cd1_3 O2A 1_555 1_555
Cd1A_2 O2 1_555 1_555
Cd1A_3 N1A 1_555 1_555
Cd1A_4 O4A 1_555 1_555
N1A_2 Cd1A 1_555 1_555
O2_2 Cd1A 1_555 1_555
O2A_2 Cd1 1_555 1_555
O4_2 Cd1 1_555 1_555
O4A_2 Cd1A 1_555 1_555
O4 Cd1A 1_555 1_555
C4 C5 1_555 1_555
C8 C14 1_555 1_555
C12 C13 1_555 1_555
C12 C16 1_555 1_555
C4A C5A 1_555 1_555
C6A C7A 1_555 1_555
O4A C15A 1_555 1_555
C8A C14A 1_555 1_555
C9A C15A 1_555 1_555
C12A C13A 1_555 1_555
C12A C16A 1_555 1_555
Cd1_2 O4A_2 1_555 1_555
Cd1A_4 O4_2 1_555 1_555

#END
