
#######################################################################
#
#                 Cambridge Crystallographic Data Centre
#                                CCDC 
#
#######################################################################
#
# If this CIF has been generated from an entry in the Cambridge 
# Structural Database, then it will include bibliographic, chemical, 
# crystal, experimental, refinement or atomic coordinate data resulting 
# from the CCDC's data processing and validation procedures.
#
#######################################################################

data_SUSLAV
_symmetry_cell_setting           triclinic
_symmetry_space_group_name_H-M   'P -1'
_symmetry_Int_Tables_number      2
_space_group_name_Hall           '-P 1'
loop_
_symmetry_equiv_pos_site_id
_symmetry_equiv_pos_as_xyz
1 x,y,z
2 -x,-y,-z
_cell_length_a                   9.3906(19)
_cell_length_b                   10.325(2)
_cell_length_c                   12.712(3)
_cell_angle_alpha                100.28(3)
_cell_angle_beta                 93.46(3)
_cell_angle_gamma                112.27(3)
_cell_volume                     1111.14
loop_
_atom_site_label
_atom_site_type_symbol
_atom_site_fract_x
_atom_site_fract_y
_atom_site_fract_z
Cd1 Cd 0.82000(4) 0.39512(3) 0.37945(2)
N1 N 0.6712(4) 0.3536(4) 0.5164(3)
N2 N -0.0099(5) 0.4347(4) 1.2506(3)
O1 O 0.9991(4) 0.6491(3) 0.5184(3)
O2 O 0.8229(4) 0.6165(3) 0.3849(2)
O3 O 0.6020(4) 0.2995(3) 0.2330(2)
O4 O 0.7088(4) 0.1564(3) 0.2750(2)
C1 C 0.6350(5) 0.4579(5) 0.5708(3)
H1 H 0.6645 0.5442 0.5468
C2 C 0.5588(6) 0.4474(5) 0.6580(3)
H2 H 0.5373 0.5248 0.6931
C3 C 0.5127(5) 0.3213(5) 0.6952(3)
C4 C 0.5473(6) 0.2131(5) 0.6382(4)
H3 H 0.5168 0.1250 0.6596
C5 C 0.6249(6) 0.2317(5) 0.5512(4)
H4 H 0.6467 0.1554 0.5143
C6 C 0.4308(6) 0.3030(6) 0.7882(4)
H5 H 0.4084 0.2164 0.8108
C7 C 0.3849(6) 0.3975(5) 0.8439(3)
H6 H 0.4105 0.4856 0.8231
C8 C 0.2991(6) 0.3764(6) 0.9336(4)
H7 H 0.2720 0.2883 0.9546
C9 C 0.2559(6) 0.4736(6) 0.9882(4)
H8 H 0.2856 0.5612 0.9662
C10 C 0.1668(6) 0.4600(5) 1.0795(3)
C11 C 0.1140(7) 0.3357(5) 1.1197(4)
H9 H 0.1369 0.2571 1.0894
C12 C 0.0285(6) 0.3285(5) 1.2035(4)
H10 H -0.0051 0.2437 1.2296
C13 C 0.0398(6) 0.5541(5) 1.2119(3)
H11 H 0.0140 0.6304 1.2432
C14 C 0.1274(6) 0.5700(5) 1.1283(3)
H12 H 0.1606 0.6564 1.1044
C15 C 1.0753(5) 0.9480(4) 0.5680(3)
H13 H 1.1266 0.9132 0.6145
C16 C 0.9670(5) 0.8533(4) 0.4806(3)
C17 C 0.8929(5) 0.9076(4) 0.4136(3)
H14 H 0.8195 0.8447 0.3546
C18 C 0.9287(5) 0.6970(4) 0.4604(3)
C19 C 0.4349(6) 0.0946(5) 0.0415(3)
H15 H 0.3910 0.1594 0.0690
C20 C 0.5591(5) 0.0889(4) 0.1025(3)
C21 C 0.6245(5) -0.0050(4) 0.0598(3)
H16 H 0.7102 -0.0081 0.0999
C22 C 0.6264(5) 0.1880(4) 0.2110(3)
O1A O 1.0009(4) 1.3509(3) 0.4816(3)
O2A O 1.1771(4) 1.3835(3) 0.6151(2)
C15A C 0.9247(5) 1.0520(4) 0.4320(3)
H13A H 0.8734 1.0868 0.3855
C16A C 1.0330(5) 1.1467(4) 0.5194(3)
C17A C 1.1071(5) 1.0924(4) 0.5864(3)
H14A H 1.1805 1.1553 0.6454
C18A C 1.0713(5) 1.3030(4) 0.5396(3)
O3A O 0.3980(4) -0.2995(3) -0.2330(2)
O4A O 0.2912(4) -0.1564(3) -0.2750(2)
C19A C 0.5651(6) -0.0946(5) -0.0415(3)
H15A H 0.6090 -0.1594 -0.0690
C20A C 0.4409(5) -0.0889(4) -0.1025(3)
C21A C 0.3755(5) 0.0050(4) -0.0598(3)
H16A H 0.2898 0.0081 -0.0999
C22A C 0.3736(5) -0.1880(4) -0.2110(3)
Cd1A Cd 0.18000(4) -0.39512(3) -0.37945(2)
N1A N 0.3288(4) -0.3536(4) -0.5164(3)
N2A N 1.0099(5) -0.4347(4) -1.2506(3)
C1A C 0.3650(5) -0.4579(5) -0.5708(3)
H1A H 0.3355 -0.5442 -0.5468
C2A C 0.4412(6) -0.4474(5) -0.6580(3)
H2A H 0.4627 -0.5248 -0.6931
C3A C 0.4873(5) -0.3213(5) -0.6952(3)
C4A C 0.4527(6) -0.2131(5) -0.6382(4)
H3A H 0.4832 -0.1250 -0.6596
C5A C 0.3751(6) -0.2317(5) -0.5512(4)
H4A H 0.3533 -0.1554 -0.5143
C6A C 0.5692(6) -0.3030(6) -0.7882(4)
H5A H 0.5916 -0.2164 -0.8108
C7A C 0.6151(6) -0.3975(5) -0.8439(3)
H6A H 0.5895 -0.4856 -0.8231
C8A C 0.7009(6) -0.3764(6) -0.9336(4)
H7A H 0.7280 -0.2883 -0.9546
C9A C 0.7441(6) -0.4736(6) -0.9882(4)
H8A H 0.7144 -0.5612 -0.9662
C10A C 0.8332(6) -0.4600(5) -1.0795(3)
C11A C 0.8860(7) -0.3357(5) -1.1197(4)
H9A H 0.8631 -0.2571 -1.0894
C12A C 0.9715(6) -0.3285(5) -1.2035(4)
H10A H 1.0051 -0.2437 -1.2296
C13A C 0.9602(6) -0.5541(5) -1.2119(3)
H11A H 0.9860 -0.6304 -1.2432
C14A C 0.8726(6) -0.5700(5) -1.1283(3)
H12A H 0.8394 -0.6564 -1.1044
Cd1_2 Cd -0.18000(4) 0.39512(3) 1.37945(2)
Cd1_3 Cd 0.82000(4) 1.39512(3) 0.37945(2)
Cd1A_2 Cd 1.18000(4) -0.39512(3) -1.37945(2)
Cd1A_3 Cd 1.18000(4) 0.60488(3) 0.62055(2)
Cd1A_4 Cd 1.18000(4) 1.60488(3) 0.62055(2)
N2_2 N 0.9901(5) 0.4347(4) 0.2506(3)
N2A_2 N 0.0099(5) -0.4347(4) -0.2506(3)
O1_2 O -0.0009(4) -0.3509(3) -0.4816(3)
O1A_2 O 0.0009(4) -0.6491(3) -0.5184(3)
O1A_3 O 1.0009(4) 0.3509(3) 0.4816(3)
O2A_2 O 0.1771(4) -0.6165(3) -0.3849(2)
C23 C 0.8692(19) 0.0025(14) 0.7872(12)
N3 N 0.9743(18) 0.0494(15) 0.8605(10)
C24 C 0.7397(14) -0.0724(18) 0.6962(9)
H17 H 0.6902 -0.1730 0.6983
H18 H 0.7803 -0.0636 0.6282
H19 H 0.6641 -0.0293 0.7026
loop_
_geom_bond_atom_site_label_1
_geom_bond_atom_site_label_2
_geom_bond_site_symmetry_1
_geom_bond_site_symmetry_2
Cd1 N1 1_555 1_555
N1 C1 1_555 1_555
N2 C12 1_555 1_555
O1 Cd1 1_555 1_555
O2 Cd1 1_555 1_555
O3 Cd1 1_555 1_555
O4 Cd1 1_555 1_555
C1 H1 1_555 1_555
C2 C1 1_555 1_555
H2 C2 1_555 1_555
C3 C2 1_555 1_555
C4 C3 1_555 1_555
H3 C4 1_555 1_555
C5 N1 1_555 1_555
H4 C5 1_555 1_555
C6 C3 1_555 1_555
H5 C6 1_555 1_555
C7 C6 1_555 1_555
H6 C7 1_555 1_555
C8 C7 1_555 1_555
H7 C8 1_555 1_555
C9 C8 1_555 1_555
H8 C9 1_555 1_555
C10 C9 1_555 1_555
C11 C10 1_555 1_555
H9 C11 1_555 1_555
C12 C11 1_555 1_555
H10 C12 1_555 1_555
C13 N2 1_555 1_555
H11 C13 1_555 1_555
C14 C10 1_555 1_555
H12 C14 1_555 1_555
C15 H13 1_555 1_555
C16 C15 1_555 1_555
C17 C16 1_555 1_555
H14 C17 1_555 1_555
C18 O1 1_555 1_555
C19 H15 1_555 1_555
C20 C19 1_555 1_555
C21 C20 1_555 1_555
H16 C21 1_555 1_555
C22 O3 1_555 1_555
C23 N3 1_555 1_555
C24 C23 1_555 1_555
H17 C24 1_555 1_555
H18 C24 1_555 1_555
H19 C24 1_555 1_555
O1A C18A 1_555 1_555
O2A C18A 1_555 1_555
C15A C17 1_555 1_555
H13A C15A 1_555 1_555
C16A C15A 1_555 1_555
C17A C15 1_555 1_555
H14A C17A 1_555 1_555
C18A C16A 1_555 1_555
O3A C22A 1_555 1_555
O4A C22A 1_555 1_555
C19A C21 1_555 1_555
H15A C19A 1_555 1_555
C20A C19A 1_555 1_555
C21A C19 1_555 1_555
H16A C21A 1_555 1_555
C22A C20A 1_555 1_555
Cd1A O3A 1_555 1_555
N1A Cd1A 1_555 1_555
N2A C12A 1_555 1_555
C1A N1A 1_555 1_555
H1A C1A 1_555 1_555
C2A C1A 1_555 1_555
H2A C2A 1_555 1_555
C3A C2A 1_555 1_555
C4A C3A 1_555 1_555
H3A C4A 1_555 1_555
C5A N1A 1_555 1_555
H4A C5A 1_555 1_555
C6A C3A 1_555 1_555
H5A C6A 1_555 1_555
C7A C6A 1_555 1_555
H6A C7A 1_555 1_555
C8A C7A 1_555 1_555
H7A C8A 1_555 1_555
C9A C8A 1_555 1_555
H8A C9A 1_555 1_555
C10A C9A 1_555 1_555
C11A C10A 1_555 1_555
H9A C11A 1_555 1_555
C12A C11A 1_555 1_555
H10A C12A 1_555 1_555
C13A N2A 1_555 1_555
H11A C13A 1_555 1_555
C14A C10A 1_555 1_555
H12A C14A 1_555 1_555
Cd1_2 N2 1_555 1_555
Cd1_3 O1A 1_555 1_555
Cd1A_2 N2A 1_555 1_555
Cd1A_3 O1 1_555 1_555
Cd1A_4 O1A 1_555 1_555
N2_2 Cd1 1_555 1_555
N2A_2 Cd1A 1_555 1_555
O1_2 Cd1A 1_555 1_555
O1A_2 Cd1A 1_555 1_555
O1A_3 Cd1 1_555 1_555
O2A_2 Cd1A 1_555 1_555
O2 C18 1_555 1_555
O4 C22 1_555 1_555
C4 C5 1_555 1_555
C13 C14 1_555 1_555
C16 C18 1_555 1_555
C20 C22 1_555 1_555
O2A Cd1A_4 1_555 1_555
C16A C17A 1_555 1_555
O4A Cd1A 1_555 1_555
C20A C21A 1_555 1_555
C4A C5A 1_555 1_555
C13A C14A 1_555 1_555
Cd1A_3 O1A_3 1_555 1_555

#END
