
#######################################################################
#
#                 Cambridge Crystallographic Data Centre
#                                CCDC 
#
#######################################################################
#
# If this CIF has been generated from an entry in the Cambridge 
# Structural Database, then it will include bibliographic, chemical, 
# crystal, experimental, refinement or atomic coordinate data resulting 
# from the CCDC's data processing and validation procedures.
#
#######################################################################

data_SUSNIF
_symmetry_cell_setting           monoclinic
_symmetry_space_group_name_H-M   'P 21/n'
_symmetry_Int_Tables_number      14
_space_group_name_Hall           '-P 2yn'
loop_
_symmetry_equiv_pos_site_id
_symmetry_equiv_pos_as_xyz
1 x,y,z
2 1/2-x,1/2+y,1/2-z
3 -x,-y,-z
4 1/2+x,1/2-y,1/2+z
_cell_length_a                   10.3576(8)
_cell_length_b                   14.0032(10)
_cell_length_c                   15.4409(11)
_cell_angle_alpha                90
_cell_angle_beta                 105.0690(10)
_cell_angle_gamma                90
_cell_volume                     2162.53
loop_
_atom_site_label
_atom_site_type_symbol
_atom_site_fract_x
_atom_site_fract_y
_atom_site_fract_z
Cu1 Cu 0.59977(5) 0.80979(4) 0.11383(4)
Cu2 Cu 0.37658(5) 0.72082(4) 0.08926(4)
I1 I 0.40877(3) 0.89011(2) 0.16457(2)
I2 I 0.57197(3) 0.63943(2) 0.04801(2)
N1 N 0.7723(3) 0.8749(2) 0.1243(2)
N2 N 0.8525(3) 0.9076(2) 0.2037(2)
N3 N 0.6996(3) 0.8387(2) 0.5793(2)
N4 N 0.6139(3) 0.8612(2) 0.4978(2)
C1 C 0.8447(4) 0.8846(3) 0.0653(2)
C2 C 0.9698(4) 0.9221(3) 0.1069(3)
H1 H 1.0383 0.9353 0.0799
C3 C 0.9729(4) 0.9357(3) 0.1953(3)
C4 C 0.7878(5) 0.8592(3) -0.0312(3)
H2 H 0.7372 0.8011 -0.0352
H3 H 0.8592 0.8503 -0.0595
H4 H 0.7305 0.9097 -0.0608
C5 C 1.0780(5) 0.9742(4) 0.2709(3)
H5 H 1.0518 1.0362 0.2869
H6 H 1.1603 0.9795 0.2536
H7 H 1.0904 0.9321 0.3215
C6 C 0.8026(4) 0.9060(3) 0.2838(2)
H8 H 0.7147 0.9353 0.2697
H9 H 0.8613 0.9443 0.3300
C7 C 0.7930(4) 0.8074(3) 0.3202(2)
C8 C 0.8524(4) 0.7295(3) 0.2922(3)
H10 H 0.8981 0.7379 0.2483
C9 C 0.8464(6) 0.6401(3) 0.3267(3)
H11 H 0.8895 0.5890 0.3076
C10 C 0.7762(6) 0.6267(3) 0.3895(3)
H12 H 0.7700 0.5660 0.4127
C11 C 0.7147(5) 0.7030(3) 0.4186(3)
H13 H 0.6662 0.6931 0.4607
C12 C 0.7237(4) 0.7942(3) 0.3862(2)
C13 C 0.6675(4) 0.8811(3) 0.4216(3)
H14 H 0.7376 0.9287 0.4391
H15 H 0.5971 0.9082 0.3737
C14 C 0.4868(4) 0.8718(3) 0.5044(3)
C15 C 0.4904(4) 0.8560(3) 0.5924(3)
H16 H 0.4183 0.8584 0.6177
C16 C 0.6222(4) 0.8356(3) 0.6367(2)
C17 C 0.3742(4) 0.8973(3) 0.4261(3)
H17 H 0.3863 0.9612 0.4073
H18 H 0.2914 0.8931 0.4429
H19 H 0.3724 0.8538 0.3778
C18 C 0.6819(5) 0.8113(4) 0.7331(3)
H20 H 0.6552 0.7480 0.7449
H21 H 0.6512 0.8561 0.7704
H22 H 0.7776 0.8142 0.7460
Cu2C Cu 0.87658(5) 0.77918(4) 0.58926(4)
N3C N 0.1996(3) 0.6613(2) 0.0793(2)
loop_
_geom_bond_atom_site_label_1
_geom_bond_atom_site_label_2
_geom_bond_site_symmetry_1
_geom_bond_site_symmetry_2
Cu1 Cu2 1_555 1_555
Cu2 I1 1_555 1_555
I1 Cu1 1_555 1_555
I2 Cu1 1_555 1_555
N1 Cu1 1_555 1_555
N2 N1 1_555 1_555
N3 N4 1_555 1_555
N4 C13 1_555 1_555
C1 N1 1_555 1_555
C2 C1 1_555 1_555
H1 C2 1_555 1_555
C3 N2 1_555 1_555
C4 C1 1_555 1_555
H2 C4 1_555 1_555
H3 C4 1_555 1_555
H4 C4 1_555 1_555
C5 C3 1_555 1_555
H5 C5 1_555 1_555
H6 C5 1_555 1_555
H7 C5 1_555 1_555
C6 N2 1_555 1_555
H8 C6 1_555 1_555
H9 C6 1_555 1_555
C7 C6 1_555 1_555
C8 C7 1_555 1_555
H10 C8 1_555 1_555
C9 C8 1_555 1_555
H11 C9 1_555 1_555
C10 C9 1_555 1_555
H12 C10 1_555 1_555
C11 C10 1_555 1_555
H13 C11 1_555 1_555
C12 C7 1_555 1_555
C13 C12 1_555 1_555
H14 C13 1_555 1_555
H15 C13 1_555 1_555
C14 N4 1_555 1_555
C15 C14 1_555 1_555
H16 C15 1_555 1_555
C16 N3 1_555 1_555
C17 C14 1_555 1_555
H17 C17 1_555 1_555
H18 C17 1_555 1_555
H19 C17 1_555 1_555
C18 C16 1_555 1_555
H20 C18 1_555 1_555
H21 C18 1_555 1_555
H22 C18 1_555 1_555
Cu2C N3 1_555 1_555
N3C Cu2 1_555 1_555
Cu2 I2 1_555 1_555
C2 C3 1_555 1_555
C11 C12 1_555 1_555
C15 C16 1_555 1_555

#END
