
#######################################################################
#
#                 Cambridge Crystallographic Data Centre
#                                CCDC 
#
#######################################################################
#
# If this CIF has been generated from an entry in the Cambridge 
# Structural Database, then it will include bibliographic, chemical, 
# crystal, experimental, refinement or atomic coordinate data resulting 
# from the CCDC's data processing and validation procedures.
#
#######################################################################

data_SUSNOL
_symmetry_cell_setting           triclinic
_symmetry_space_group_name_H-M   'P -1'
_symmetry_Int_Tables_number      2
_space_group_name_Hall           '-P 1'
loop_
_symmetry_equiv_pos_site_id
_symmetry_equiv_pos_as_xyz
1 x,y,z
2 -x,-y,-z
_cell_length_a                   11.0126(5)
_cell_length_b                   18.2302(10)
_cell_length_c                   20.1626(11)
_cell_angle_alpha                99.776(5)
_cell_angle_beta                 90.561(4)
_cell_angle_gamma                99.247(4)
_cell_volume                     3934.4
loop_
_atom_site_label
_atom_site_type_symbol
_atom_site_fract_x
_atom_site_fract_y
_atom_site_fract_z
Mn1 Mn 0.70723(7) 0.15402(4) 0.60885(4)
O1 O 0.6617(3) 0.09053(19) 0.49643(17)
O2 O 0.6983(4) 0.2141(2) 0.51993(18)
O3 O 0.9033(3) 0.1703(2) 0.59174(19)
O4 O 0.5293(4) 0.1727(2) 0.6317(2)
O5 O 0.6976(4) 0.0539(2) 0.64913(19)
O6 O 0.7628(5) 0.2269(3) 0.7059(3)
Mn2 Mn 0.5000 0.0000 0.5000
C1 C 0.6772(5) 0.1546(3) 0.4782(2)
C2 C 0.9740(5) 0.2328(3) 0.6055(3)
C3 C 0.4314(5) 0.1269(3) 0.6206(3)
C4 C 0.6512(5) -0.0139(3) 0.6294(3)
C5 C 0.7057(9) 0.2512(5) 0.7656(4)
O7 O 0.4131(4) 0.0672(2) 0.5784(2)
O8 O 0.5974(3) -0.0413(2) 0.57353(18)
C6 C 0.6736(5) 0.1593(3) 0.4046(2)
O9 O 0.9465(4) 0.2898(2) 0.6424(2)
C7 C 1.0996(5) 0.2400(3) 0.5757(3)
C8 C 0.3239(5) 0.1460(3) 0.6629(2)
C9 C 0.6613(4) -0.0675(3) 0.6776(3)
H1 H 0.6479 0.2836 0.7567
H2 H 0.7674 0.2805 0.7984
C10 C 0.6388(9) 0.1858(6) 0.7940(4)
C11 C 0.6632(5) 0.0972(3) 0.3542(2)
C12 C 0.6795(6) 0.2299(3) 0.3866(3)
C13 C 1.1324(6) 0.1809(3) 0.5312(3)
C14 C 1.1855(5) 0.3042(3) 0.5948(3)
C15 C 0.2122(5) 0.0978(3) 0.6560(3)
C16 C 0.3362(5) 0.2123(3) 0.7097(3)
C17 C 0.6983(5) -0.0411(3) 0.7448(3)
C18 C 0.6324(5) -0.1455(3) 0.6551(3)
H3 H 0.5806 0.1553 0.7607
H4 H 0.5961 0.2043 0.8330
H5 H 0.6969 0.1560 0.8065
H6 H 0.6605 0.0495 0.3654
C19 C 0.6566(5) 0.1048(3) 0.2867(3)
H7 H 0.6884 0.2723 0.4203
C20 C 0.6726(6) 0.2387(3) 0.3207(3)
H8 H 1.0745 0.1377 0.5175
C21 C 1.2483(6) 0.1845(4) 0.5067(3)
H9 H 1.1648 0.3443 0.6251
C22 C 1.3035(6) 0.3097(3) 0.5691(3)
H10 H 0.2031 0.0528 0.6254
C23 C 0.1140(5) 0.1157(3) 0.6942(3)
H11 H 0.4114 0.2447 0.7157
C24 C 0.2386(6) 0.2305(3) 0.7472(3)
H12 H 0.7176 0.0106 0.7605
C25 C 0.7064(5) -0.0911(3) 0.7883(3)
H13 H 0.6059 -0.1640 0.6106
C26 C 0.6432(5) -0.1952(3) 0.6986(3)
H14 H 0.6504 0.0623 0.2532
C27 C 0.6591(5) 0.1758(3) 0.2688(3)
H15 H 0.6769 0.2868 0.3102
H16 H 1.2695 0.1435 0.4778
C28 C 1.3336(6) 0.2494(3) 0.5252(3)
C29 C 1.3922(7) 0.3822(5) 0.5957(5)
C30 C 0.1264(6) 0.1820(3) 0.7395(3)
C31 C -0.0066(5) 0.0624(3) 0.6847(4)
H17 H 0.2476 0.2754 0.7779
H18 H 0.7297 -0.0728 0.8333
C32 C 0.6802(5) -0.1690(3) 0.7655(3)
H19 H 0.6255 -0.2468 0.6828
C33 C 0.6473(5) 0.1856(3) 0.1977(3)
H20 H 1.4119 0.2524 0.5078
N1 N 1.5135(6) 0.3878(3) 0.5634(3)
H21 H 1.3541 0.4249 0.5889
H22 H 1.4057 0.3856 0.6439
H23 H 0.0602 0.1944 0.7648
N2 N 0.0033(4) -0.0094(3) 0.7101(3)
H24 H -0.0695 0.0865 0.7088
H25 H -0.0313 0.0507 0.6373
C34 C 0.6905(5) -0.2228(3) 0.8117(3)
C35 C 0.6704(5) 0.2567(4) 0.1790(3)
C36 C 0.6113(5) 0.1247(4) 0.1460(3)
C37 C 1.6134(7) 0.3769(4) 0.5962(4)
C38 C 1.5212(7) 0.4057(4) 0.5014(5)
C39 C -0.0312(5) -0.0765(4) 0.6715(3)
C40 C 0.0468(6) -0.0049(3) 0.7732(3)
C41 C 0.6886(5) -0.2011(3) 0.8813(3)
C42 C 0.7052(5) -0.2974(3) 0.7880(3)
H26 H 0.6915 0.2993 0.2121
C43 C 0.6625(5) 0.2648(4) 0.1132(3)
C44 C 0.6041(5) 0.1347(4) 0.0803(3)
H27 H 0.5918 0.0764 0.1562
H28 H 1.6063 0.3641 0.6389
C45 C 1.7260(6) 0.3843(3) 0.5678(3)
H29 H 1.4508 0.4125 0.4790
C46 C 1.6332(6) 0.4140(3) 0.4709(4)
H30 H -0.0581 -0.0791 0.6271
C47 C -0.0278(5) -0.1418(3) 0.6958(3)
H31 H 0.0744 0.0423 0.7991
C48 C 0.0514(6) -0.0681(3) 0.8001(3)
H32 H 0.6793 -0.1521 0.8997
C49 C 0.7005(5) -0.2521(4) 0.9225(3)
H33 H 0.7086 -0.3142 0.7419
C50 C 0.7148(5) -0.3457(3) 0.8321(3)
N3 N 0.6310(4) 0.2038(3) 0.0644(2)
H34 H 0.6790 0.3126 0.1018
H35 H 0.5804 0.0932 0.0465
H36 H 1.7948 0.3766 0.5911
C51 C 1.7380(5) 0.4035(3) 0.5037(3)
H37 H 1.6380 0.4267 0.4282
C52 C 0.0144(5) -0.1391(3) 0.7625(3)
H38 H -0.0535 -0.1882 0.6682
H39 H 0.0799 -0.0633 0.8444
N4 N 0.7123(4) -0.3232(3) 0.8980(3)
H40 H 0.7003 -0.2368 0.9689
H41 H 0.7231 -0.3953 0.8155
C53 C 0.6343(5) 0.2140(4) -0.0076(3)
C54 C 1.8585(6) 0.4074(3) 0.4707(3)
C55 C 0.0169(4) -0.2086(3) 0.7905(3)
C56 C 0.7228(5) -0.3757(4) 0.9462(4)
H42 H 0.6108 0.2622 -0.0115
H43 H 0.5759 0.1745 -0.0346
C57 C 0.7628(5) 0.2112(3) -0.0334(3)
C58 C 1.8905(6) 0.4551(4) 0.4244(3)
C59 C 1.9410(6) 0.3611(4) 0.4834(3)
C60 C 0.0246(5) -0.2766(3) 0.7490(3)
C61 C 0.0126(5) -0.2071(3) 0.8600(3)
H44 H 0.7967 -0.3575 0.9746
H45 H 0.7295 -0.4252 0.9214
C62 C 0.6119(5) -0.3816(3) 0.9895(3)
C63 C 0.8327(5) 0.2753(3) -0.0505(2)
C64 C 0.8149(7) 0.1456(3) -0.0400(3)
H46 H 1.8370 0.4868 0.4148
C65 C 2.0039(6) 0.4557(3) 0.3919(3)
H47 H 1.9217 0.3282 0.5137
C66 C 2.0535(6) 0.3635(4) 0.4511(3)
H48 H 0.0267 -0.2791 0.7026
C67 C 0.0293(5) -0.3406(3) 0.7764(3)
C68 C 0.0148(4) -0.2715(3) 0.8868(2)
H49 H 0.0083 -0.1619 0.8886
C69 C 0.6176(6) -0.3509(4) 1.0572(4)
C70 C 0.4996(5) -0.4198(3) 0.9603(3)
H50 H 0.8012 0.3203 -0.0447
C71 C 0.9484(5) 0.2733(3) -0.0761(2)
H51 H 0.7696 0.1022 -0.0286
C72 C 0.9323(7) 0.1436(3) -0.0632(4)
H52 H 2.0241 0.4872 0.3605
C73 C 2.0840(6) 0.4100(4) 0.4066(3)
H53 H 2.1080 0.3323 0.4605
H54 H 0.0356 -0.3857 0.7482
C74 C 0.0246(4) -0.3385(3) 0.8460(2)
H55 H 0.0096 -0.2696 0.9331
H56 H 0.6919 -0.3240 1.0769
C75 C 0.5176(6) -0.3589(4) 1.0956(3)
H57 H 0.4935 -0.4397 0.9145
C76 C 0.3963(5) -0.4286(3) 0.9991(3)
C77 C 0.9978(6) 0.2071(3) -0.0821(3)
C78 C 1.0195(5) 0.3413(3) -0.0981(2)
H58 H 0.9666 0.0999 -0.0659
C79 C 2.2076(7) 0.4132(4) 0.3707(4)
C80 C 0.0322(5) -0.4100(3) 0.8736(3)
H59 H 0.5239 -0.3377 1.1411
C81 C 0.4056(6) -0.3987(3) 1.0671(3)
C82 C 0.2777(5) -0.4737(3) 0.9668(3)
H60 H 1.0759 0.2057 -0.0990
O10 O 1.1131(3) 0.3338(2) -0.1319(2)
O11 O 0.9814(4) 0.40350(18) -0.08578(18)
O12 O 2.2856(6) 0.3807(5) 0.3934(3)
O13 O 2.2196(5) 0.4440(4) 0.3225(3)
O14 O 0.0646(5) -0.4613(2) 0.8320(2)
O15 O 0.0073(3) -0.4124(2) 0.93309(18)
H61 H 0.3374 -0.4051 1.0936
O16 O 0.2736(4) -0.4922(3) 0.9044(2)
O17 O 0.1923(3) -0.4891(2) 1.0054(2)
Mn3 Mn 1.13986(8) 0.44200(4) -0.16642(4)
Mn4 Mn 1.0000 0.5000 0.0000
N5 N 0.2818(7) -0.5675(4) 0.7614(3)
O18 O -0.0033(5) -0.6029(3) 0.7545(3)
N6 N 0.3944(9) -0.5601(5) 0.7678(4)
H62 H -0.0733 -0.6050 0.7721
H63 H 0.0066 -0.6470 0.7361
N7 N 0.5061(9) -0.5570(10) 0.7652(6)
O1A O 0.3383(3) -0.09053(19) 0.50357(17)
O7A O 0.5869(4) -0.0672(2) 0.4216(2)
O8A O 0.4026(3) 0.0413(2) 0.42647(18)
Mn3_2 Mn 0.13986(8) -0.55800(4) 0.83358(4)
Mn4_2 Mn 0.0000 -0.5000 1.0000
O11A O 0.0186(4) -0.40350(18) 1.08578(18)
O10A O -0.1131(3) -0.3338(2) 1.1319(2)
O10_2 O 0.1131(3) -0.6662(2) 0.8681(2)
O15A O -0.0073(3) -0.5876(2) 1.06691(18)
O17A O -0.1923(3) -0.5109(2) 0.9946(2)
O11_2 O -0.0186(4) -0.59650(18) 0.91422(18)
Mn3A Mn -0.13986(8) -0.44200(4) 1.16642(4)
C80A C -0.0322(5) -0.5900(3) 1.1264(3)
C82A C -0.2777(5) -0.5263(3) 1.0332(3)
O14A O -0.0646(5) -0.5387(2) 1.1680(2)
O16A O -0.2736(4) -0.5078(3) 1.0956(2)
N5A N -0.2818(7) -0.4325(4) 1.2386(3)
O18A O 0.0033(5) -0.3971(3) 1.2455(3)
C74A C -0.0246(4) -0.6615(3) 1.1540(2)
C76A C -0.3963(5) -0.5714(3) 1.0009(3)
N6A N -0.3944(9) -0.4399(5) 1.2322(4)
H62A H 0.0733 -0.3950 1.2279
H63A H -0.0066 -0.3530 1.2639
C67A C -0.0293(5) -0.6594(3) 1.2236(3)
C68A C -0.0148(4) -0.7285(3) 1.1132(2)
C70A C -0.4996(5) -0.5802(3) 1.0397(3)
C81A C -0.4056(6) -0.6013(3) 0.9329(3)
N7A N -0.5061(9) -0.4430(10) 1.2348(6)
C60A C -0.0246(5) -0.7234(3) 1.2510(3)
H54A H -0.0356 -0.6143 1.2518
H55A H -0.0096 -0.7304 1.0669
C61A C -0.0126(5) -0.7929(3) 1.1400(3)
C62A C -0.6119(5) -0.6184(3) 1.0105(3)
H57A H -0.4935 -0.5603 1.0855
C75A C -0.5176(6) -0.6411(4) 0.9044(3)
H61A H -0.3374 -0.5949 0.9064
C55A C -0.0169(4) -0.7914(3) 1.2095(3)
H48A H -0.0267 -0.7209 1.2974
H49A H -0.0083 -0.8381 1.1114
C56A C -0.7228(5) -0.6243(4) 1.0538(4)
C69A C -0.6176(6) -0.6491(4) 0.9428(4)
H59A H -0.5239 -0.6623 0.8589
C52A C -0.0144(5) -0.8609(3) 1.2375(3)
N4A N -0.7123(4) -0.6768(3) 1.1020(3)
H44A H -0.7967 -0.6425 1.0254
H45A H -0.7295 -0.5748 1.0786
H56A H -0.6919 -0.6760 0.9231
C48A C -0.0514(6) -0.9319(3) 1.1999(3)
C47A C 0.0278(5) -0.8582(3) 1.3042(3)
C50A C -0.7148(5) -0.6543(3) 1.1679(3)
C49A C -0.7005(5) -0.7479(4) 1.0775(3)
C40A C -0.0468(6) -0.9951(3) 1.2268(3)
H39A H -0.0799 -0.9367 1.1556
C39A C 0.0312(5) -0.9235(4) 1.3285(3)
H38A H 0.0535 -0.8118 1.3318
C42A C -0.7052(5) -0.7026(3) 1.2120(3)
H41A H -0.7231 -0.6047 1.1845
C41A C -0.6886(5) -0.7989(3) 1.1187(3)
H40A H -0.7003 -0.7632 1.0311
N2A N -0.0033(4) -0.9906(3) 1.2899(3)
H31A H -0.0744 -1.0423 1.2009
H30A H 0.0581 -0.9209 1.3729
C34A C -0.6905(5) -0.7772(3) 1.1883(3)
H33A H -0.7086 -0.6858 1.2581
H32A H -0.6793 -0.8479 1.1003
C31A C 0.0066(5) -1.0624(3) 1.3153(4)
C32A C -0.6802(5) -0.8310(3) 1.2345(3)
C23A C -0.1140(5) -1.1157(3) 1.3058(3)
H24A H 0.0695 -1.0865 1.2912
H25A H 0.0313 -1.0507 1.3627
C26A C -0.6432(5) -0.8048(3) 1.3014(3)
C25A C -0.7064(5) -0.9089(3) 1.2117(3)
C15A C -0.2122(5) -1.0978(3) 1.3440(3)
C30A C -0.1264(6) -1.1820(3) 1.2605(3)
C18A C -0.6324(5) -0.8545(3) 1.3449(3)
H19A H -0.6255 -0.7532 1.3172
C17A C -0.6983(5) -0.9589(3) 1.2552(3)
H18A H -0.7297 -0.9272 1.1667
C8A C -0.3239(5) -1.1460(3) 1.3371(2)
H10A H -0.2031 -1.0528 1.3746
C24A C -0.2386(6) -1.2305(3) 1.2528(3)
H23A H -0.0602 -1.1944 1.2352
C9A C -0.6613(4) -0.9325(3) 1.3224(3)
H13A H -0.6059 -0.8360 1.3894
H12A H -0.7176 -1.0106 1.2395
C3A C -0.4314(5) -1.1269(3) 1.3794(3)
C16A C -0.3362(5) -1.2123(3) 1.2903(3)
H17A H -0.2476 -1.2754 1.2221
C4A C -0.6512(5) -0.9861(3) 1.3706(3)
O7A_2 O -0.4131(4) -1.0672(2) 1.4216(2)
O4A O -0.5293(4) -1.1727(2) 1.3683(2)
H11A H -0.4114 -1.2447 1.2843
O8A_2 O -0.5974(3) -0.9587(2) 1.42647(18)
O5A O -0.6976(4) -1.0539(2) 1.35087(19)
Mn2_2 Mn -0.5000 -1.0000 1.5000
Mn1A Mn -0.70723(7) -1.15402(4) 1.39115(4)
O1A_2 O -0.6617(3) -1.09053(19) 1.50357(17)
O2A O -0.6983(4) -1.2141(2) 1.48007(18)
O3A O -0.9033(3) -1.1703(2) 1.40826(19)
O6A O -0.7628(5) -1.2269(3) 1.2941(3)
C1A C -0.6772(5) -1.1546(3) 1.5218(2)
C2A C -0.9740(5) -1.2328(3) 1.3945(3)
C5A C -0.7057(9) -1.2512(5) 1.2344(4)
C6A C -0.6736(5) -1.1593(3) 1.5954(2)
O9A O -0.9465(4) -1.2898(2) 1.3576(2)
C7A C -1.0996(5) -1.2400(3) 1.4243(3)
H1A H -0.6479 -1.2836 1.2433
H2A H -0.7674 -1.2805 1.2016
C10A C -0.6388(9) -1.1858(6) 1.2060(4)
C11A C -0.6632(5) -1.0972(3) 1.6458(2)
C12A C -0.6795(6) -1.2299(3) 1.6134(3)
C13A C -1.1324(6) -1.1809(3) 1.4688(3)
C14A C -1.1855(5) -1.3042(3) 1.4052(3)
H3A H -0.5806 -1.1553 1.2393
H4A H -0.5961 -1.2043 1.1670
H5A H -0.6969 -1.1560 1.1935
H6A H -0.6605 -1.0495 1.6346
C19A C -0.6566(5) -1.1048(3) 1.7133(3)
H7A H -0.6884 -1.2723 1.5797
C20A C -0.6726(6) -1.2387(3) 1.6793(3)
H8A H -1.0745 -1.1377 1.4825
C21A C -1.2483(6) -1.1845(4) 1.4933(3)
H9A H -1.1648 -1.3443 1.3749
C22A C -1.3035(6) -1.3097(3) 1.4309(3)
H14A H -0.6504 -1.0623 1.7468
C27A C -0.6591(5) -1.1758(3) 1.7312(3)
H15A H -0.6769 -1.2868 1.6898
H16A H -1.2695 -1.1435 1.5222
C28A C -1.3336(6) -1.2494(3) 1.4748(3)
C29A C -1.3922(7) -1.3822(5) 1.4043(5)
C33A C -0.6473(5) -1.1856(3) 1.8023(3)
H20A H -1.4119 -1.2524 1.4922
N1A N -1.5135(6) -1.3878(3) 1.4366(3)
H21A H -1.3541 -1.4249 1.4111
H22A H -1.4057 -1.3856 1.3561
C35A C -0.6704(5) -1.2567(4) 1.8210(3)
C36A C -0.6113(5) -1.1247(4) 1.8540(3)
C37A C -1.6134(7) -1.3769(4) 1.4038(4)
C38A C -1.5212(7) -1.4057(4) 1.4986(5)
H26A H -0.6915 -1.2993 1.7879
C43A C -0.6625(5) -1.2648(4) 1.8868(3)
C44A C -0.6041(5) -1.1347(4) 1.9197(3)
H27A H -0.5918 -1.0764 1.8438
H28A H -1.6063 -1.3641 1.3611
C45A C -1.7260(6) -1.3843(3) 1.4322(3)
H29A H -1.4508 -1.4125 1.5210
C46A C -1.6332(6) -1.4140(3) 1.5291(4)
N3A N -0.6310(4) -1.2038(3) 1.9356(2)
H34A H -0.6790 -1.3126 1.8982
H35A H -0.5804 -1.0932 1.9535
H36A H -1.7948 -1.3766 1.4089
C51A C -1.7380(5) -1.4035(3) 1.4963(3)
H37A H -1.6380 -1.4267 1.5718
C53A C -0.6343(5) -1.2140(4) 2.0076(3)
C54A C -1.8585(6) -1.4074(3) 1.5293(3)
H42A H -0.6108 -1.2622 2.0115
H43A H -0.5759 -1.1745 2.0346
C57A C -0.7628(5) -1.2112(3) 2.0334(3)
C58A C -1.8905(6) -1.4551(4) 1.5756(3)
C59A C -1.9410(6) -1.3611(4) 1.5166(3)
C63A C -0.8327(5) -1.2753(3) 2.0505(2)
C64A C -0.8149(7) -1.1456(3) 2.0400(3)
H46A H -1.8370 -1.4868 1.5852
C65A C -2.0039(6) -1.4557(3) 1.6081(3)
H47A H -1.9217 -1.3282 1.4863
C66A C -2.0535(6) -1.3635(4) 1.5489(3)
H50A H -0.8012 -1.3203 2.0447
C71A C -0.9484(5) -1.2733(3) 2.0761(2)
H51A H -0.7696 -1.1022 2.0286
C72A C -0.9323(7) -1.1436(3) 2.0632(4)
H52A H -2.0241 -1.4872 1.6395
C73A C -2.0840(6) -1.4100(4) 1.5934(3)
H53A H -2.1080 -1.3323 1.5395
C77A C -0.9978(6) -1.2071(3) 2.0821(3)
C78A C -1.0195(5) -1.3413(3) 2.0981(2)
H58A H -0.9666 -1.0999 2.0659
C79A C -2.2076(7) -1.4132(4) 1.6293(4)
H60A H -1.0759 -1.2057 2.0990
O10A_2 O -1.1131(3) -1.3338(2) 2.1319(2)
O11A_2 O -0.9814(4) -1.40350(18) 2.08578(18)
O12A O -2.2856(6) -1.3807(5) 1.6066(3)
O13A O -2.2196(5) -1.4440(4) 1.6775(3)
Mn3A_2 Mn -1.13986(8) -1.44200(4) 2.16642(4)
Mn4_3 Mn -1.0000 -1.5000 2.0000
Cl1 Cl 0.6967(4) 0.93368(19) 0.0620(3)
O19 O 0.6832(16) 0.8576(7) 0.0517(10)
O20 O 0.811(2) 0.9429(14) 0.0310(18)
O21 O 0.6151(15) 0.9486(7) 0.0280(11)
O22 O 0.7328(19) 0.9776(9) 0.1108(12)
O23 O 0.2245(7) 0.5444(5) 0.2396(5)
H64 H 0.2989 0.5645 0.2363
H65 H 0.2155 0.5251 0.2751
O24 O 0.4926(6) 0.4432(5) 0.3348(4)
H66 H 0.4402 0.4121 0.3511
H67 H 0.4601 0.4595 0.3030
O25 O 0.7034(9) 0.4166(5) 0.2828(5)
H68 H 0.7210 0.4574 0.2673
H69 H 0.6349 0.4169 0.3019
O26 O 0.8794(7) 0.0092(4) 0.5102(4)
H70 H 0.9116 0.0490 0.5369
H71 H 0.8092 0.0159 0.4970
loop_
_geom_bond_atom_site_label_1
_geom_bond_atom_site_label_2
_geom_bond_site_symmetry_1
_geom_bond_site_symmetry_2
Mn1 O1 1_555 1_555
O1 Mn2 1_555 1_555
O2 Mn1 1_555 1_555
O3 Mn1 1_555 1_555
O4 Mn1 1_555 1_555
O5 Mn1 1_555 1_555
O6 Mn1 1_555 1_555
Mn2 O7 1_555 1_555
C1 O1 1_555 1_555
C2 O3 1_555 1_555
C3 O4 1_555 1_555
C4 O5 1_555 1_555
C5 O6 1_555 1_555
O7 C3 1_555 1_555
O8 Mn2 1_555 1_555
C6 C1 1_555 1_555
O9 C2 1_555 1_555
C7 C2 1_555 1_555
C8 C3 1_555 1_555
C9 C4 1_555 1_555
H1 C5 1_555 1_555
H2 C5 1_555 1_555
C10 C5 1_555 1_555
C11 C6 1_555 1_555
C12 C6 1_555 1_555
C13 C7 1_555 1_555
C14 C7 1_555 1_555
C15 C8 1_555 1_555
C16 C8 1_555 1_555
C17 C9 1_555 1_555
C18 C9 1_555 1_555
H3 C10 1_555 1_555
H4 C10 1_555 1_555
H5 C10 1_555 1_555
H6 C11 1_555 1_555
C19 C11 1_555 1_555
H7 C12 1_555 1_555
C20 C12 1_555 1_555
H8 C13 1_555 1_555
C21 C13 1_555 1_555
H9 C14 1_555 1_555
C22 C14 1_555 1_555
H10 C15 1_555 1_555
C23 C15 1_555 1_555
H11 C16 1_555 1_555
C24 C16 1_555 1_555
H12 C17 1_555 1_555
C25 C17 1_555 1_555
H13 C18 1_555 1_555
C26 C18 1_555 1_555
H14 C19 1_555 1_555
C27 C19 1_555 1_555
H15 C20 1_555 1_555
H16 C21 1_555 1_555
C28 C21 1_555 1_555
C29 C22 1_555 1_555
C30 C23 1_555 1_555
C31 C23 1_555 1_555
H17 C24 1_555 1_555
H18 C25 1_555 1_555
C32 C25 1_555 1_555
H19 C26 1_555 1_555
C33 C27 1_555 1_555
H20 C28 1_555 1_555
N1 C29 1_555 1_555
H21 C29 1_555 1_555
H22 C29 1_555 1_555
H23 C30 1_555 1_555
N2 C31 1_555 1_555
H24 C31 1_555 1_555
H25 C31 1_555 1_555
C34 C32 1_555 1_555
C35 C33 1_555 1_555
C36 C33 1_555 1_555
C37 N1 1_555 1_555
C38 N1 1_555 1_555
C39 N2 1_555 1_555
C40 N2 1_555 1_555
C41 C34 1_555 1_555
C42 C34 1_555 1_555
H26 C35 1_555 1_555
C43 C35 1_555 1_555
C44 C36 1_555 1_555
H27 C36 1_555 1_555
H28 C37 1_555 1_555
C45 C37 1_555 1_555
H29 C38 1_555 1_555
C46 C38 1_555 1_555
H30 C39 1_555 1_555
C47 C39 1_555 1_555
H31 C40 1_555 1_555
C48 C40 1_555 1_555
H32 C41 1_555 1_555
C49 C41 1_555 1_555
H33 C42 1_555 1_555
C50 C42 1_555 1_555
N3 C43 1_555 1_555
H34 C43 1_555 1_555
H35 C44 1_555 1_555
H36 C45 1_555 1_555
C51 C45 1_555 1_555
H37 C46 1_555 1_555
C52 C47 1_555 1_555
H38 C47 1_555 1_555
H39 C48 1_555 1_555
N4 C49 1_555 1_555
H40 C49 1_555 1_555
H41 C50 1_555 1_555
C53 N3 1_555 1_555
C54 C51 1_555 1_555
C55 C52 1_555 1_555
C56 N4 1_555 1_555
H42 C53 1_555 1_555
H43 C53 1_555 1_555
C57 C53 1_555 1_555
C58 C54 1_555 1_555
C59 C54 1_555 1_555
C60 C55 1_555 1_555
C61 C55 1_555 1_555
H44 C56 1_555 1_555
H45 C56 1_555 1_555
C62 C56 1_555 1_555
C63 C57 1_555 1_555
C64 C57 1_555 1_555
H46 C58 1_555 1_555
C65 C58 1_555 1_555
H47 C59 1_555 1_555
C66 C59 1_555 1_555
H48 C60 1_555 1_555
C67 C60 1_555 1_555
C68 C61 1_555 1_555
H49 C61 1_555 1_555
C69 C62 1_555 1_555
C70 C62 1_555 1_555
H50 C63 1_555 1_555
C71 C63 1_555 1_555
H51 C64 1_555 1_555
C72 C64 1_555 1_555
H52 C65 1_555 1_555
C73 C65 1_555 1_555
H53 C66 1_555 1_555
H54 C67 1_555 1_555
C74 C67 1_555 1_555
H55 C68 1_555 1_555
H56 C69 1_555 1_555
C75 C69 1_555 1_555
H57 C70 1_555 1_555
C76 C70 1_555 1_555
C77 C71 1_555 1_555
C78 C71 1_555 1_555
H58 C72 1_555 1_555
C79 C73 1_555 1_555
C80 C74 1_555 1_555
H59 C75 1_555 1_555
C81 C75 1_555 1_555
C82 C76 1_555 1_555
H60 C77 1_555 1_555
O10 C78 1_555 1_555
O11 C78 1_555 1_555
O12 C79 1_555 1_555
O13 C79 1_555 1_555
O14 C80 1_555 1_555
O15 C80 1_555 1_555
H61 C81 1_555 1_555
O16 C82 1_555 1_555
O17 C82 1_555 1_555
Mn3 O10 1_555 1_555
Mn4 O11 1_555 1_555
N5 N6 1_555 1_555
O18 H62 1_555 1_555
N6 N7 1_555 1_555
H63 O18 1_555 1_555
Cl1 O19 1_555 1_555
O20 Cl1 1_555 1_555
O21 Cl1 1_555 1_555
O22 Cl1 1_555 1_555
O23 H64 1_555 1_555
H65 O23 1_555 1_555
O24 H66 1_555 1_555
H67 O24 1_555 1_555
O25 H68 1_555 1_555
H69 O25 1_555 1_555
O26 H70 1_555 1_555
H71 O26 1_555 1_555
O1A Mn2 1_555 1_555
O7A Mn2 1_555 1_555
O8A Mn2 1_555 1_555
Mn3_2 O14 1_555 1_555
Mn4_2 O15 1_555 1_555
O11A Mn4_2 1_555 1_555
O10A Mn3A 1_555 1_555
O10_2 Mn3_2 1_555 1_555
O15A Mn4_2 1_555 1_555
O17A Mn4_2 1_555 1_555
O11_2 Mn4_2 1_555 1_555
Mn3A O14A 1_555 1_555
C80A O15A 1_555 1_555
C82A O17A 1_555 1_555
O14A C80A 1_555 1_555
O16A Mn3A 1_555 1_555
N5A Mn3A 1_555 1_555
O18A Mn3A 1_555 1_555
C74A C80A 1_555 1_555
C76A C82A 1_555 1_555
N6A N5A 1_555 1_555
H62A O18A 1_555 1_555
H63A O18A 1_555 1_555
C67A C74A 1_555 1_555
C68A C74A 1_555 1_555
C70A C76A 1_555 1_555
C81A C76A 1_555 1_555
N7A N6A 1_555 1_555
C60A C67A 1_555 1_555
H54A C67A 1_555 1_555
H55A C68A 1_555 1_555
C61A C68A 1_555 1_555
C62A C70A 1_555 1_555
H57A C70A 1_555 1_555
C75A C81A 1_555 1_555
H61A C81A 1_555 1_555
C55A C60A 1_555 1_555
H48A C60A 1_555 1_555
H49A C61A 1_555 1_555
C56A C62A 1_555 1_555
C69A C62A 1_555 1_555
H59A C75A 1_555 1_555
C52A C55A 1_555 1_555
N4A C56A 1_555 1_555
H44A C56A 1_555 1_555
H45A C56A 1_555 1_555
H56A C69A 1_555 1_555
C48A C52A 1_555 1_555
C47A C52A 1_555 1_555
C50A N4A 1_555 1_555
C49A N4A 1_555 1_555
C40A C48A 1_555 1_555
H39A C48A 1_555 1_555
C39A C47A 1_555 1_555
H38A C47A 1_555 1_555
C42A C50A 1_555 1_555
H41A C50A 1_555 1_555
C41A C49A 1_555 1_555
H40A C49A 1_555 1_555
N2A C40A 1_555 1_555
H31A C40A 1_555 1_555
H30A C39A 1_555 1_555
C34A C42A 1_555 1_555
H33A C42A 1_555 1_555
H32A C41A 1_555 1_555
C31A N2A 1_555 1_555
C32A C34A 1_555 1_555
C23A C31A 1_555 1_555
H24A C31A 1_555 1_555
H25A C31A 1_555 1_555
C26A C32A 1_555 1_555
C25A C32A 1_555 1_555
C15A C23A 1_555 1_555
C30A C23A 1_555 1_555
C18A C26A 1_555 1_555
H19A C26A 1_555 1_555
C17A C25A 1_555 1_555
H18A C25A 1_555 1_555
C8A C15A 1_555 1_555
H10A C15A 1_555 1_555
C24A C30A 1_555 1_555
H23A C30A 1_555 1_555
C9A C18A 1_555 1_555
H13A C18A 1_555 1_555
H12A C17A 1_555 1_555
C3A C8A 1_555 1_555
C16A C8A 1_555 1_555
H17A C24A 1_555 1_555
C4A C9A 1_555 1_555
O7A_2 C3A 1_555 1_555
O4A C3A 1_555 1_555
H11A C16A 1_555 1_555
O8A_2 C4A 1_555 1_555
O5A C4A 1_555 1_555
Mn2_2 O7A_2 1_555 1_555
Mn1A O4A 1_555 1_555
O1A_2 Mn2_2 1_555 1_555
O2A Mn1A 1_555 1_555
O3A Mn1A 1_555 1_555
O6A Mn1A 1_555 1_555
C1A O1A_2 1_555 1_555
C2A O3A 1_555 1_555
C5A O6A 1_555 1_555
C6A C1A 1_555 1_555
O9A C2A 1_555 1_555
C7A C2A 1_555 1_555
H1A C5A 1_555 1_555
H2A C5A 1_555 1_555
C10A C5A 1_555 1_555
C11A C6A 1_555 1_555
C12A C6A 1_555 1_555
C13A C7A 1_555 1_555
C14A C7A 1_555 1_555
H3A C10A 1_555 1_555
H4A C10A 1_555 1_555
H5A C10A 1_555 1_555
H6A C11A 1_555 1_555
C19A C11A 1_555 1_555
H7A C12A 1_555 1_555
C20A C12A 1_555 1_555
H8A C13A 1_555 1_555
C21A C13A 1_555 1_555
H9A C14A 1_555 1_555
C22A C14A 1_555 1_555
H14A C19A 1_555 1_555
C27A C19A 1_555 1_555
H15A C20A 1_555 1_555
H16A C21A 1_555 1_555
C28A C21A 1_555 1_555
C29A C22A 1_555 1_555
C33A C27A 1_555 1_555
H20A C28A 1_555 1_555
N1A C29A 1_555 1_555
H21A C29A 1_555 1_555
H22A C29A 1_555 1_555
C35A C33A 1_555 1_555
C36A C33A 1_555 1_555
C37A N1A 1_555 1_555
C38A N1A 1_555 1_555
H26A C35A 1_555 1_555
C43A C35A 1_555 1_555
C44A C36A 1_555 1_555
H27A C36A 1_555 1_555
H28A C37A 1_555 1_555
C45A C37A 1_555 1_555
H29A C38A 1_555 1_555
C46A C38A 1_555 1_555
N3A C43A 1_555 1_555
H34A C43A 1_555 1_555
H35A C44A 1_555 1_555
H36A C45A 1_555 1_555
C51A C45A 1_555 1_555
H37A C46A 1_555 1_555
C53A N3A 1_555 1_555
C54A C51A 1_555 1_555
H42A C53A 1_555 1_555
H43A C53A 1_555 1_555
C57A C53A 1_555 1_555
C58A C54A 1_555 1_555
C59A C54A 1_555 1_555
C63A C57A 1_555 1_555
C64A C57A 1_555 1_555
H46A C58A 1_555 1_555
C65A C58A 1_555 1_555
H47A C59A 1_555 1_555
C66A C59A 1_555 1_555
H50A C63A 1_555 1_555
C71A C63A 1_555 1_555
H51A C64A 1_555 1_555
C72A C64A 1_555 1_555
H52A C65A 1_555 1_555
C73A C65A 1_555 1_555
H53A C66A 1_555 1_555
C77A C71A 1_555 1_555
C78A C71A 1_555 1_555
H58A C72A 1_555 1_555
C79A C73A 1_555 1_555
H60A C77A 1_555 1_555
O10A_2 C78A 1_555 1_555
O11A_2 C78A 1_555 1_555
O12A C79A 1_555 1_555
O13A C79A 1_555 1_555
Mn3A_2 O10A_2 1_555 1_555
Mn4_3 O11A_2 1_555 1_555
O2 C1 1_555 1_555
C4 O8 1_555 1_555
C20 C27 1_555 1_555
C22 C28 1_555 1_555
C24 C30 1_555 1_555
C26 C32 1_555 1_555
C44 N3 1_555 1_555
C46 C51 1_555 1_555
C48 C52 1_555 1_555
C50 N4 1_555 1_555
C66 C73 1_555 1_555
C68 C74 1_555 1_555
C72 C77 1_555 1_555
C76 C81 1_555 1_555
O16 Mn3_2 1_555 1_555
O17 Mn4_2 1_555 1_555
N5 Mn3_2 1_555 1_555
O18 Mn3_2 1_555 1_555
C82A O16A 1_555 1_555
C61A C55A 1_555 1_555
C75A C69A 1_555 1_555
C39A N2A 1_555 1_555
C41A C34A 1_555 1_555
C17A C9A 1_555 1_555
C24A C16A 1_555 1_555
O8A_2 Mn2_2 1_555 1_555
O5A Mn1A 1_555 1_555
Mn1A O1A_2 1_555 1_555
O2A C1A 1_555 1_555
C20A C27A 1_555 1_555
C22A C28A 1_555 1_555
C44A N3A 1_555 1_555
C46A C51A 1_555 1_555
C66A C73A 1_555 1_555
C72A C77A 1_555 1_555

#END
