
#######################################################################
#
#                 Cambridge Crystallographic Data Centre
#                                CCDC 
#
#######################################################################
#
# If this CIF has been generated from an entry in the Cambridge 
# Structural Database, then it will include bibliographic, chemical, 
# crystal, experimental, refinement or atomic coordinate data resulting 
# from the CCDC's data processing and validation procedures.
#
#######################################################################

data_SUSQIH
_symmetry_cell_setting           triclinic
_symmetry_space_group_name_H-M   'P -1'
_symmetry_Int_Tables_number      2
_space_group_name_Hall           '-P 1'
loop_
_symmetry_equiv_pos_site_id
_symmetry_equiv_pos_as_xyz
1 x,y,z
2 -x,-y,-z
_cell_length_a                   9.0362(7)
_cell_length_b                   9.6424(6)
_cell_length_c                   10.5281(6)
_cell_angle_alpha                96.302(5)
_cell_angle_beta                 114.865(7)
_cell_angle_gamma                105.231(6)
_cell_volume                     777.224
loop_
_atom_site_label
_atom_site_type_symbol
_atom_site_fract_x
_atom_site_fract_y
_atom_site_fract_z
Mn1 Mn 0.5000 0.0000 0.5000
C1 C 0.8388(5) 0.3869(4) 0.4478(4)
C2 C 0.9769(5) 0.3552(4) 0.4383(4)
C3 C 0.6701(5) 0.2686(4) 0.4106(4)
C4 C 0.9672(5) 0.2039(4) 0.3730(5)
C5 C 0.8647(5) 0.5322(4) 0.5083(4)
H1 H 0.7728 0.5545 0.5131
C6 C 0.5602(6) 0.1401(5) 0.8101(5)
H2 H 0.5750 0.0496 0.8216
C7 C 0.5678(6) 0.2328(4) 0.9249(5)
H3 H 0.5923 0.2082 1.0128
C8 C 0.5370(5) 0.3646(4) 0.9020(4)
C9 C 0.5097(5) 0.3997(4) 0.7739(4)
H4 H 0.4910 0.4881 0.7580
C10 C 0.5103(5) 0.3024(4) 0.6687(5)
H5 H 0.4941 0.3278 0.5823
N1 N 0.5333(4) 0.1729(3) 0.6851(4)
N2 N 0.5360(5) 0.4539(3) 1.0193(4)
O1 O 0.8267(4) 0.1318(3) 0.2516(3)
H6 H 0.8363 0.0562 0.2171
O2 O 1.0864(4) 0.1592(3) 0.4294(4)
O3 O 0.6836(3) 0.1584(3) 0.4620(3)
O4 O 0.5334(4) 0.2927(3) 0.3420(4)
O5 O 0.2968(3) 0.0639(3) 0.3396(3)
H7 H 0.2966 0.1507 0.3289
H8 H 0.1996 0.0021 0.2783
Mn1_2 Mn 1.5000 1.0000 0.5000
Mn1_3 Mn 0.5000 1.0000 1.5000
C1A C 1.1612(5) 0.6131(4) 0.5522(4)
C2A C 1.0231(5) 0.6448(4) 0.5617(4)
C3A C 1.3299(5) 0.7314(4) 0.5894(4)
C4A C 1.0328(5) 0.7961(4) 0.6270(5)
C5A C 1.1353(5) 0.4678(4) 0.4917(4)
H1A H 1.2272 0.4455 0.4869
C6A C 0.4398(6) 0.8599(5) 1.1899(5)
H2A H 0.4250 0.9504 1.1784
C7A C 0.4322(6) 0.7672(4) 1.0751(5)
H3A H 0.4077 0.7918 0.9872
C8A C 0.4630(5) 0.6354(4) 1.0980(4)
C9A C 0.4903(5) 0.6003(4) 1.2261(4)
H4A H 0.5090 0.5119 1.2420
C10A C 0.4897(5) 0.6976(4) 1.3313(5)
H5A H 0.5059 0.6722 1.4177
N1A N 0.4667(4) 0.8271(3) 1.3149(4)
N1A_2 N 0.4667(4) -0.1729(3) 0.3149(4)
N2A N 0.4640(5) 0.5461(3) 0.9807(4)
O1A O 1.1733(4) 0.8682(3) 0.7484(3)
H6A H 1.1637 0.9438 0.7829
O2A O 0.9136(4) 0.8408(3) 0.5706(4)
O3A O 1.3164(3) 0.8416(3) 0.5380(3)
O3A_2 O 0.3164(3) -0.1584(3) 0.5380(3)
O4A O 1.4666(4) 0.7073(3) 0.6580(4)
O5A O 0.7032(3) -0.0639(3) 0.6604(3)
H7A H 0.7034 -0.1507 0.6711
H8A H 0.8004 -0.0021 0.7217
C11 C 0.9228(6) 0.7993(5) 0.2263(5)
H9 H 0.9410 0.8203 0.3211
C12 C 0.9633(7) 0.6810(5) 0.1802(6)
H10 H 1.0036 0.6216 0.2410
C13 C 0.9419(6) 0.6540(5) 0.0403(6)
C14 C 0.8773(8) 0.7408(6) -0.0461(6)
H11 H 0.8593 0.7238 -0.1410
C15 C 0.8390(7) 0.8547(5) 0.0100(6)
H12 H 0.7961 0.9145 -0.0492
N3 N 0.8599(4) 0.8833(4) 0.1430(4)
N4 N 0.9806(6) 0.5336(6) -0.0386(5)
C11A C 1.0772(6) 0.2007(5) -0.2263(5)
H9A H 1.0590 0.1797 -0.3211
C12A C 1.0367(7) 0.3190(5) -0.1802(6)
H10A H 0.9964 0.3784 -0.2410
C13A C 1.0581(6) 0.3460(5) -0.0403(6)
C14A C 1.1227(8) 0.2592(6) 0.0461(6)
H11A H 1.1407 0.2762 0.1410
C15A C 1.1610(7) 0.1453(5) -0.0100(6)
H12A H 1.2039 0.0855 0.0492
N3A N 1.1401(4) 0.1167(4) -0.1430(4)
N4A N 1.0194(6) 0.4664(6) 0.0386(5)
loop_
_geom_bond_atom_site_label_1
_geom_bond_atom_site_label_2
_geom_bond_site_symmetry_1
_geom_bond_site_symmetry_2
Mn1 N1 1_555 1_555
C1 C2 1_555 1_555
C2 C4 1_555 1_555
C3 C1 1_555 1_555
C4 O1 1_555 1_555
C5 C1 1_555 1_555
H1 C5 1_555 1_555
C6 H2 1_555 1_555
C7 C6 1_555 1_555
H3 C7 1_555 1_555
C8 C7 1_555 1_555
C9 C8 1_555 1_555
H4 C9 1_555 1_555
C10 C9 1_555 1_555
H5 C10 1_555 1_555
N1 C6 1_555 1_555
N2 C8 1_555 1_555
O1 H6 1_555 1_555
O2 C4 1_555 1_555
O3 Mn1 1_555 1_555
O4 C3 1_555 1_555
O5 Mn1 1_555 1_555
H7 O5 1_555 1_555
H8 O5 1_555 1_555
C11 H9 1_555 1_555
C12 C11 1_555 1_555
H10 C12 1_555 1_555
C13 C12 1_555 1_555
C14 C13 1_555 1_555
H11 C14 1_555 1_555
C15 C14 1_555 1_555
H12 C15 1_555 1_555
N3 C11 1_555 1_555
N4 C13 1_555 1_555
Mn1_2 O3A 1_555 1_555
Mn1_3 N1A 1_555 1_555
C1A C2A 1_555 1_555
C2A C5 1_555 1_555
C3A C1A 1_555 1_555
C4A C2A 1_555 1_555
C5A C2 1_555 1_555
H1A C5A 1_555 1_555
C6A H2A 1_555 1_555
C7A C6A 1_555 1_555
H3A C7A 1_555 1_555
C8A C7A 1_555 1_555
C9A C8A 1_555 1_555
H4A C9A 1_555 1_555
C10A C9A 1_555 1_555
H5A C10A 1_555 1_555
N1A C6A 1_555 1_555
N1A_2 Mn1 1_555 1_555
N2A N2 1_555 1_555
O1A C4A 1_555 1_555
H6A O1A 1_555 1_555
O2A C4A 1_555 1_555
O3A C3A 1_555 1_555
O3A_2 Mn1 1_555 1_555
O4A C3A 1_555 1_555
O5A Mn1 1_555 1_555
H7A O5A 1_555 1_555
H8A O5A 1_555 1_555
C11A H9A 1_555 1_555
C12A C11A 1_555 1_555
H10A C12A 1_555 1_555
C13A C12A 1_555 1_555
C14A C13A 1_555 1_555
H11A C14A 1_555 1_555
C15A C14A 1_555 1_555
H12A C15A 1_555 1_555
N3A C11A 1_555 1_555
N4A N4 1_555 1_555
C3 O3 1_555 1_555
C10 N1 1_555 1_555
C15 N3 1_555 1_555
C1A C5A 1_555 1_555
C8A N2A 1_555 1_555
C10A N1A 1_555 1_555
C13A N4A 1_555 1_555
C15A N3A 1_555 1_555

#END
