
#######################################################################
#
#                 Cambridge Crystallographic Data Centre
#                                CCDC 
#
#######################################################################
#
# If this CIF has been generated from an entry in the Cambridge 
# Structural Database, then it will include bibliographic, chemical, 
# crystal, experimental, refinement or atomic coordinate data resulting 
# from the CCDC's data processing and validation procedures.
#
#######################################################################

data_SUSQAZ
_symmetry_cell_setting           monoclinic
_symmetry_space_group_name_H-M   'C 2/c'
_symmetry_Int_Tables_number      15
_space_group_name_Hall           '-C 2yn'
loop_
_symmetry_equiv_pos_site_id
_symmetry_equiv_pos_as_xyz
1 x,y,z
2 -x,y,1/2-z
3 1/2+x,1/2+y,z
4 1/2-x,1/2+y,1/2-z
5 -x,-y,-z
6 x,-y,1/2+z
7 1/2-x,1/2-y,-z
8 1/2+x,1/2-y,1/2+z
_cell_length_a                   23.468(3)
_cell_length_b                   9.3080(15)
_cell_length_c                   17.583(6)
_cell_angle_alpha                90
_cell_angle_beta                 123.652(17)
_cell_angle_gamma                90
_cell_volume                     3197.18
loop_
_atom_site_label
_atom_site_type_symbol
_atom_site_fract_x
_atom_site_fract_y
_atom_site_fract_z
C1 C 0.24635(10) 0.8145(2) 0.30346(14)
N1 N 0.46317(11) 0.7882(2) 0.44434(13)
C2 C 0.19975(11) 0.6310(2) 0.34922(15)
C3 C 0.14156(10) 0.6221(2) 0.26225(14)
N2 N 0.30093(11) 0.9089(2) 0.32327(17)
N3 N 0.09182(11) 0.5143(2) 0.23934(17)
C4 C 0.25151(11) 0.7258(2) 0.36982(15)
C5 C 0.13593(12) 0.7123(2) 0.19616(15)
C6 C 0.18794(12) 0.8072(3) 0.21649(16)
O1 O 0.35691(9) 0.67704(18) 0.22742(11)
C7 C 0.40961(15) 0.5870(4) 0.2391(2)
H1 H 0.4247 0.5224 0.2902
H2 H 0.4484 0.6444 0.2517
C8 C 0.38287(17) 0.5053(3) 0.1556(2)
H3 H 0.3698 0.4094 0.1618
H4 H 0.4167 0.4979 0.1404
C9 C 0.30370(14) 0.6838(3) 0.13349(18)
H5 H 0.2985 0.7812 0.111
H6 H 0.2607 0.6536 0.1241
C10 C 0.32278(17) 0.5871(4) 0.0852(2)
H7 H 0.3339 0.6419 0.0481
H8 H 0.2853 0.5225 0.0457
C11 C 0.48253(10) 0.6436(2) 0.47405(13)
C12 C 0.53958(11) 0.5832(2) 0.48275(15)
C13 C 0.44348(11) 0.5584(3) 0.49197(14)
Li1 Li 0.38115(18) 0.8345(4) 0.3109(2)
H9 H 0.2906(11) 0.731(2) 0.4308(16)
H10 H 0.2026(11) 0.574(3) 0.3926(15)
H11 H 0.0959(12) 0.705(2) 0.1344(17)
H12 H 0.1809(11) 0.868(3) 0.1679(16)
H13 H 0.3232(13) 0.935(3) 0.3838(19)
H14 H 0.5672(10) 0.640(2) 0.4715(14)
H15 H 0.4038(12) 0.595(2) 0.4864(15)
H16 H 0.0871(13) 0.493(3) 0.2829(19)
H17 H 0.4983(13) 0.833(3) 0.4520(16)
H18 H 0.4504(13) 0.837(3) 0.4788(19)
H19 H 0.0507(14) 0.544(3) 0.1948(19)
H20 H 0.2836(15) 0.982(4) 0.288(2)
C1C C 0.25365(10) 1.3145(2) 0.19654(14)
N1D N 0.53683(11) 0.2118(2) 0.55566(13)
N1C N 0.03683(11) 1.2882(2) 0.05566(13)
C2C C 0.30025(11) 1.1310(2) 0.15078(15)
C3C C 0.35844(10) 1.1221(2) 0.23775(14)
N2C N 0.19907(11) 1.4089(2) 0.17673(17)
N3C N 0.40818(11) 1.0143(2) 0.26066(17)
N3_2 N 0.09182(11) 1.5143(2) 0.23934(17)
C4C C 0.24849(11) 1.2258(2) 0.13018(15)
C5C C 0.36407(12) 1.2123(2) 0.30384(15)
C6C C 0.31206(12) 1.3072(3) 0.28351(16)
O1C O 0.14309(9) 1.17704(18) 0.27258(11)
C7C C 0.09039(15) 1.0870(4) 0.2609(2)
H1C H 0.0753 1.0224 0.2098
H2C H 0.0516 1.1444 0.2483
C8C C 0.11713(17) 1.0053(3) 0.3444(2)
H3C H 0.1302 0.9094 0.3382
H4C H 0.0833 0.9979 0.3596
C9C C 0.19630(14) 1.1838(3) 0.36651(18)
H5C H 0.2015 1.2812 0.389
H6C H 0.2393 1.1536 0.3759
C10C C 0.17722(17) 1.0871(4) 0.4148(2)
H7C H 0.1661 1.1419 0.4519
H8C H 0.2147 1.0225 0.4543
C11D C 0.51747(10) 0.3564(2) 0.52595(13)
C12D C 0.46042(11) 0.4168(2) 0.51725(15)
C13D C 0.55652(11) 0.4416(3) 0.50803(14)
Li1C Li 0.11885(18) 1.3345(4) 0.1891(2)
Li1C_2 Li 0.11885(18) 0.3345(4) 0.1891(2)
Li1D Li 0.61885(18) 0.1655(4) 0.6891(2)
H9C H 0.2094(11) 1.231(2) 0.0692(16)
H10C H 0.2974(11) 1.074(3) 0.1074(15)
H11C H 0.4041(12) 1.205(2) 0.3656(17)
H12C H 0.3191(11) 1.368(3) 0.3321(16)
H13C H 0.1768(13) 1.435(3) 0.1162(19)
H14D H 0.4328(10) 0.360(2) 0.5285(14)
H15D H 0.5962(12) 0.405(2) 0.5136(15)
H16C H 0.4129(13) 0.993(3) 0.2171(19)
H16_2 H 0.0871(13) 1.493(3) 0.2829(19)
H17D H 0.5017(13) 0.167(3) 0.5480(16)
H17C H 0.0017(13) 1.333(3) 0.0480(16)
H18D H 0.5496(13) 0.163(3) 0.5212(19)
H18C H 0.0496(13) 1.337(3) 0.0212(19)
H19C H 0.4493(14) 1.044(3) 0.3052(19)
H19_2 H 0.0507(14) 1.544(3) 0.1948(19)
H20C H 0.2164(15) 1.482(4) 0.212(2)
B1 B 0.40758(19) 0.0134(4) 0.5560(2)
H21 H 0.4354(15) 0.089(3) 0.618(2)
H22 H 0.4119(15) 0.044(3) 0.499(2)
H23 H 0.427(2) -0.085(5) 0.582(3)
H24 H 0.356(2) 0.018(4) 0.531(2)
loop_
_geom_bond_atom_site_label_1
_geom_bond_atom_site_label_2
_geom_bond_site_symmetry_1
_geom_bond_site_symmetry_2
C1 N2 1_555 1_555
N1 C11 1_555 1_555
C2 C3 1_555 1_555
C3 N3 1_555 1_555
N2 Li1 1_555 1_555
N3 H16 1_555 1_555
C4 C1 1_555 1_555
C5 C3 1_555 1_555
C6 C1 1_555 1_555
O1 C7 1_555 1_555
C7 H1 1_555 1_555
H2 C7 1_555 1_555
C8 C7 1_555 1_555
H3 C8 1_555 1_555
H4 C8 1_555 1_555
C9 O1 1_555 1_555
H5 C9 1_555 1_555
H6 C9 1_555 1_555
C10 C8 1_555 1_555
H7 C10 1_555 1_555
H8 C10 1_555 1_555
C11 C12 1_555 1_555
C12 H14 1_555 1_555
C13 C11 1_555 1_555
Li1 N1 1_555 1_555
H9 C4 1_555 1_555
H10 C2 1_555 1_555
H11 C5 1_555 1_555
H12 C6 1_555 1_555
H13 N2 1_555 1_555
H15 C13 1_555 1_555
H17 N1 1_555 1_555
H18 N1 1_555 1_555
H19 N3 1_555 1_555
H20 N2 1_555 1_555
B1 H21 1_555 1_555
H22 B1 1_555 1_555
H23 B1 1_555 1_555
H24 B1 1_555 1_555
C1C N2C 1_555 1_555
N1D C11D 1_555 1_555
N1C Li1C 1_555 1_555
C2C C3C 1_555 1_555
C3C N3C 1_555 1_555
N2C Li1C 1_555 1_555
N3C Li1 1_555 1_555
N3_2 Li1C 1_555 1_555
C4C C1C 1_555 1_555
C5C C3C 1_555 1_555
C6C C1C 1_555 1_555
O1C C7C 1_555 1_555
C7C H1C 1_555 1_555
H2C C7C 1_555 1_555
C8C C7C 1_555 1_555
H3C C8C 1_555 1_555
H4C C8C 1_555 1_555
C9C O1C 1_555 1_555
H5C C9C 1_555 1_555
H6C C9C 1_555 1_555
C10C C8C 1_555 1_555
H7C C10C 1_555 1_555
H8C C10C 1_555 1_555
C11D C12D 1_555 1_555
C12D C13 1_555 1_555
C13D C12 1_555 1_555
Li1C O1C 1_555 1_555
Li1C_2 N3 1_555 1_555
Li1D N1D 1_555 1_555
H9C C4C 1_555 1_555
H10C C2C 1_555 1_555
H11C C5C 1_555 1_555
H12C C6C 1_555 1_555
H13C N2C 1_555 1_555
H14D C12D 1_555 1_555
H15D C13D 1_555 1_555
H16C N3C 1_555 1_555
H16_2 N3_2 1_555 1_555
H17D N1D 1_555 1_555
H17C N1C 1_555 1_555
H18D N1D 1_555 1_555
H18C N1C 1_555 1_555
H19C N3C 1_555 1_555
H19_2 N3_2 1_555 1_555
H20C N2C 1_555 1_555
C2 C4 1_555 1_555
C5 C6 1_555 1_555
O1 Li1 1_555 1_555
C9 C10 1_555 1_555
C2C C4C 1_555 1_555
C5C C6C 1_555 1_555
C9C C10C 1_555 1_555
C11D C13D 1_555 1_555

#END
