
#######################################################################
#
#                 Cambridge Crystallographic Data Centre
#                                CCDC 
#
#######################################################################
#
# If this CIF has been generated from an entry in the Cambridge 
# Structural Database, then it will include bibliographic, chemical, 
# crystal, experimental, refinement or atomic coordinate data resulting 
# from the CCDC's data processing and validation procedures.
#
#######################################################################

data_SUSQUT
_symmetry_cell_setting           triclinic
_symmetry_space_group_name_H-M   'P -1'
_symmetry_Int_Tables_number      2
_space_group_name_Hall           '-P 1'
loop_
_symmetry_equiv_pos_site_id
_symmetry_equiv_pos_as_xyz
1 x,y,z
2 -x,-y,-z
_cell_length_a                   7.2951(19)
_cell_length_b                   11.286(3)
_cell_length_c                   11.694(3)
_cell_angle_alpha                98.406(5)
_cell_angle_beta                 102.479(5)
_cell_angle_gamma                106.219(5)
_cell_volume                     880.46
loop_
_atom_site_label
_atom_site_type_symbol
_atom_site_fract_x
_atom_site_fract_y
_atom_site_fract_z
Zn1 Zn 0.0000 0.0000 0.0000
Zn2 Zn 0.67553(11) -0.12070(8) 0.12409(7)
Zn3 Zn 0.52711(11) -0.15218(8) -0.18446(7)
C1 C 0.7378(14) -0.2993(9) 0.2966(8)
H1 H 0.8429 -0.3004 0.2640
C2 C 0.6971(15) -0.3760(9) 0.3759(9)
H2 H 0.7737 -0.4270 0.3968
C3 C 0.5409(15) -0.3750(9) 0.4229(8)
C4 C 0.4371(17) -0.2948(10) 0.3941(10)
H3 H 0.3366 -0.2889 0.4296
C5 C 0.4818(14) -0.2228(9) 0.3124(8)
H4 H 0.4054 -0.1723 0.2897
C6 C 0.0499(10) 0.0145(7) 0.3930(6)
C7 C 0.1590(10) -0.0305(7) 0.4777(6)
H5 H 0.2669 -0.0516 0.4619
C8 C -0.1142(10) 0.0459(7) 0.4137(6)
C9 C -0.2470(10) 0.0994(7) 0.3335(6)
C10 C 0.1183(10) 0.0262(7) 0.2795(7)
C11 C 0.1268(10) -0.3906(6) -0.0183(6)
C12 C 0.1776(10) -0.4998(6) -0.0207(6)
H6 H 0.2986 -0.4995 -0.0343
C13 C -0.1183(10) -0.2756(6) 0.0043(6)
C14 C 0.2751(10) -0.2760(6) -0.0338(6)
C15 C -0.0554(10) -0.3914(6) 0.0036(6)
N1 N 0.6342(10) -0.2238(6) 0.2646(6)
N2 N 0.4811(14) -0.4509(7) 0.5058(8)
O1 O 0.3701(7) -0.1904(5) 0.0600(5)
O2 O 0.3009(7) -0.2750(5) -0.1355(5)
O3 O -0.0274(7) -0.1905(4) -0.0397(5)
O4 O -0.2595(7) -0.2743(5) 0.0503(5)
O5 O -0.0133(7) -0.0127(5) 0.1804(4)
O6 O 0.2975(7) 0.0714(6) 0.2934(5)
O7 O -0.2634(8) 0.2020(5) 0.3739(5)
O8 O -0.3497(7) 0.0362(5) 0.2296(4)
O9 O 0.5882(9) -0.3119(6) -0.2407(5)
H7 H 0.5883 -0.3747 -0.2063
H8 H 0.5816 -0.3370 -0.3131
O10 O -0.3011(6) -0.0442(4) -0.0273(4)
Zn1_2 Zn 0.0000 -1.0000 0.0000
Zn1_3 Zn 0.0000 0.0000 1.0000
Zn2A Zn -0.67553(11) -0.87930(8) -0.12409(7)
Zn2_2 Zn -0.32447(11) -0.12070(8) 0.12409(7)
Zn2A_2 Zn 0.32447(11) -0.87930(8) -0.12409(7)
Zn2A_3 Zn 0.32447(11) 0.12070(8) -0.12409(7)
Zn2A_4 Zn 0.32447(11) 0.12070(8) 0.87591(7)
Zn2A_5 Zn 0.32447(11) -0.87930(8) 0.87591(7)
Zn3A Zn -0.52711(11) -0.84782(8) 0.18446(7)
Zn3A_2 Zn -0.52711(11) 0.15218(8) 0.18446(7)
Zn3_2 Zn 0.52711(11) -0.15218(8) 0.81554(7)
Zn3_3 Zn -0.47289(11) -0.15218(8) -0.18446(7)
Zn3A_3 Zn 0.47289(11) 0.15218(8) 0.18446(7)
Zn3_4 Zn -0.47289(11) -0.15218(8) 0.81554(7)
C1A C 0.2622(14) -0.7007(9) 0.7034(8)
H1A H 0.1571 -0.6996 0.7360
C2A C 0.3029(15) -0.6240(9) 0.6241(9)
H2A H 0.2263 -0.5730 0.6032
C3A C 0.4591(15) -0.6250(9) 0.5771(8)
C4A C 0.5629(17) -0.7052(10) 0.6059(10)
H3A H 0.6634 -0.7111 0.5704
C5A C 0.5182(14) -0.7772(9) 0.6876(8)
H4A H 0.5946 -0.8277 0.7103
C6A C -0.0499(10) -0.0145(7) 0.6070(6)
C7A C -0.1590(10) 0.0305(7) 0.5223(6)
H5A H -0.2669 0.0516 0.5381
C8A C 0.1142(10) -0.0459(7) 0.5863(6)
C9A C 0.2470(10) -0.0994(7) 0.6665(6)
C10A C -0.1183(10) -0.0262(7) 0.7205(7)
C11A C -0.1268(10) -0.6094(6) 0.0183(6)
C12A C -0.1776(10) -0.5002(6) 0.0207(6)
H6A H -0.2986 -0.5005 0.0343
C13A C 0.1183(10) -0.7244(6) -0.0043(6)
C14A C -0.2751(10) -0.7240(6) 0.0338(6)
C15A C 0.0554(10) -0.6086(6) -0.0036(6)
N1A N 0.3658(10) -0.7762(6) 0.7354(6)
N1A_2 N -0.6342(10) -0.7762(6) -0.2646(6)
N2A N 0.5189(14) -0.5491(7) 0.4942(8)
O1A O -0.3701(7) -0.8096(5) -0.0600(5)
O2A O -0.3009(7) -0.7250(5) 0.1355(5)
O3A O 0.0274(7) -0.8095(4) 0.0397(5)
O3A_2 O 0.0274(7) 0.1905(4) 0.0397(5)
O4A O 0.2595(7) -0.7257(5) -0.0503(5)
O4_2 O 0.7405(7) -0.2743(5) 0.0503(5)
O4A_2 O -0.7405(7) -0.7257(5) -0.0503(5)
O5A O 0.0133(7) 0.0127(5) -0.1804(4)
O5A_2 O 0.0133(7) 0.0127(5) 0.8196(4)
O5_2 O 0.9867(7) -0.0127(5) 0.1804(4)
O5A_3 O -0.9867(7) -0.9873(5) -0.1804(4)
O6A O -0.2975(7) -0.0714(6) 0.7066(5)
O6A_2 O 0.7025(7) -0.0714(6) -0.2934(5)
O6_2 O -0.7025(7) -0.9286(6) 0.2934(5)
O7A O 0.2634(8) -0.2020(5) -0.3739(5)
O7A_2 O 0.2634(8) -0.2020(5) 0.6261(5)
O7_2 O -0.2634(8) -0.7980(5) 0.3739(5)
O8A O 0.3497(7) -0.0362(5) -0.2296(4)
O8A_2 O 0.3497(7) -0.0362(5) 0.7704(4)
O8_2 O 0.6503(7) 0.0362(5) 0.2296(4)
O8A_3 O -0.6503(7) -1.0362(5) -0.2296(4)
O8_3 O -0.3497(7) -0.9638(5) 0.2296(4)
O9A O -0.5882(9) -0.6881(6) 0.2407(5)
H7A H -0.5883 -0.6253 0.2063
H8A H -0.5816 -0.6630 0.3131
O10A O 0.3011(6) 0.0442(4) 0.0273(4)
O10_2 O 0.6989(6) -0.0442(4) -0.0273(4)
O10A_2 O -0.6989(6) -0.9558(4) 0.0273(4)
O11 O 0.9109(12) -0.3529(12) -0.3063(8)
loop_
_geom_bond_atom_site_label_1
_geom_bond_atom_site_label_2
_geom_bond_site_symmetry_1
_geom_bond_site_symmetry_2
Zn1 O3 1_555 1_555
Zn2 N1 1_555 1_555
Zn3 O2 1_555 1_555
C1 H1 1_555 1_555
C2 C1 1_555 1_555
H2 C2 1_555 1_555
C3 C2 1_555 1_555
C4 C3 1_555 1_555
H3 C4 1_555 1_555
C5 C4 1_555 1_555
H4 C5 1_555 1_555
C6 C7 1_555 1_555
C7 H5 1_555 1_555
C8 C6 1_555 1_555
C9 C8 1_555 1_555
C10 C6 1_555 1_555
C11 C12 1_555 1_555
C12 H6 1_555 1_555
C13 C15 1_555 1_555
C14 C11 1_555 1_555
C15 C11 1_555 1_555
N1 C1 1_555 1_555
N2 C3 1_555 1_555
O1 Zn2 1_555 1_555
O2 C14 1_555 1_555
O3 C13 1_555 1_555
O4 C13 1_555 1_555
O5 Zn1 1_555 1_555
O6 C10 1_555 1_555
O7 C9 1_555 1_555
O8 C9 1_555 1_555
O9 Zn3 1_555 1_555
H7 O9 1_555 1_555
H8 O9 1_555 1_555
O10 Zn1 1_555 1_555
Zn1_2 O3A 1_555 1_555
Zn1_3 O5A_2 1_555 1_555
Zn2A N1A_2 1_555 1_555
Zn2_2 O4 1_555 1_555
Zn2A_2 O4A 1_555 1_555
Zn2A_3 O5A 1_555 1_555
Zn2A_4 O5A_2 1_555 1_555
Zn2A_5 N1A 1_555 1_555
Zn3A O2A 1_555 1_555
Zn3A_2 O7 1_555 1_555
Zn3_2 O7A_2 1_555 1_555
Zn3_3 O10 1_555 1_555
Zn3A_3 O6 1_555 1_555
Zn3_4 O6A 1_555 1_555
C1A H1A 1_555 1_555
C2A C1A 1_555 1_555
H2A C2A 1_555 1_555
C3A C2A 1_555 1_555
C4A C3A 1_555 1_555
H3A C4A 1_555 1_555
C5A C4A 1_555 1_555
H4A C5A 1_555 1_555
C6A C7A 1_555 1_555
C7A C8 1_555 1_555
H5A C7A 1_555 1_555
C8A C7 1_555 1_555
C9A C8A 1_555 1_555
C10A C6A 1_555 1_555
C11A C12A 1_555 1_555
C12A C15 1_555 1_555
H6A C12A 1_555 1_555
C13A C15A 1_555 1_555
C14A C11A 1_555 1_555
C15A C12 1_555 1_555
N1A C1A 1_555 1_555
N2A N2 1_555 1_555
O1A Zn2A 1_555 1_555
O2A C14A 1_555 1_555
O3A C13A 1_555 1_555
O3A_2 Zn1 1_555 1_555
O4A C13A 1_555 1_555
O4_2 Zn2 1_555 1_555
O4A_2 Zn2A 1_555 1_555
O5A Zn1 1_555 1_555
O5A_2 C10A 1_555 1_555
O5_2 Zn2 1_555 1_555
O5A_3 Zn2A 1_555 1_555
O6A C10A 1_555 1_555
O6A_2 Zn3 1_555 1_555
O6_2 Zn3A 1_555 1_555
O7A Zn3 1_555 1_555
O7A_2 C9A 1_555 1_555
O7_2 Zn3A 1_555 1_555
O8A Zn3 1_555 1_555
O8A_2 Zn2A_4 1_555 1_555
O8_2 Zn2 1_555 1_555
O8A_3 Zn2A 1_555 1_555
O8_3 Zn3A 1_555 1_555
O9A Zn3A 1_555 1_555
H7A O9A 1_555 1_555
H8A O9A 1_555 1_555
O10A Zn1 1_555 1_555
O10_2 Zn2 1_555 1_555
O10A_2 Zn2A 1_555 1_555
Zn3 O10_2 1_555 1_555
C5 N1 1_555 1_555
C10 O5 1_555 1_555
C14 O1 1_555 1_555
O5 Zn2_2 1_555 1_555
O8 Zn2_2 1_555 1_555
O8 Zn3A_2 1_555 1_555
O10 Zn2_2 1_555 1_555
Zn2A_3 O8A 1_555 1_555
Zn2A_3 O10A 1_555 1_555
Zn3A O10A_2 1_555 1_555
Zn3_2 O8A_2 1_555 1_555
Zn3A_3 O8_2 1_555 1_555
Zn3A_3 O10A 1_555 1_555
C3A N2A 1_555 1_555
C5A N1A 1_555 1_555
C6A C8A 1_555 1_555
C9A O8A_2 1_555 1_555
C11A C15A 1_555 1_555
C14A O1A 1_555 1_555

#END
