
#######################################################################
#
#                 Cambridge Crystallographic Data Centre
#                                CCDC 
#
#######################################################################
#
# If this CIF has been generated from an entry in the Cambridge 
# Structural Database, then it will include bibliographic, chemical, 
# crystal, experimental, refinement or atomic coordinate data resulting 
# from the CCDC's data processing and validation procedures.
#
#######################################################################

data_SUSRUV
_symmetry_cell_setting           orthorhombic
_symmetry_space_group_name_H-M   'F d d 2'
_symmetry_Int_Tables_number      43
_space_group_name_Hall           'F 2 -2d'
loop_
_symmetry_equiv_pos_site_id
_symmetry_equiv_pos_as_xyz
1 x,y,z
2 -x,-y,z
3 1/4+x,1/4-y,1/4+z
4 1/4-x,1/4+y,1/4+z
5 x,1/2+y,1/2+z
6 -x,1/2-y,1/2+z
7 1/4+x,3/4-y,3/4+z
8 1/4-x,3/4+y,3/4+z
9 1/2+x,y,1/2+z
10 1/2-x,-y,1/2+z
11 3/4+x,1/4-y,3/4+z
12 3/4-x,1/4+y,3/4+z
13 1/2+x,1/2+y,z
14 1/2-x,1/2-y,z
15 3/4+x,3/4-y,1/4+z
16 3/4-x,3/4+y,1/4+z
_cell_length_a                   26.630(5)
_cell_length_b                   35.928(7)
_cell_length_c                   13.001(3)
_cell_angle_alpha                90
_cell_angle_beta                 90
_cell_angle_gamma                90
_cell_volume                     12438.9
loop_
_atom_site_label
_atom_site_type_symbol
_atom_site_fract_x
_atom_site_fract_y
_atom_site_fract_z
Zn1 Zn 0.35469(2) 0.11894(2) 0.58537(2)
Zn2 Zn 0.22689(2) 0.06110(2) 0.49499(2)
O1 O 0.30114(6) 0.09629(5) 0.49685(16)
O2 O 0.37826(7) 0.14921(5) 0.46058(15)
O3 O 0.39705(11) 0.15815(8) 0.2971(2)
O4 O 0.40217(7) 0.13996(6) 0.68827(16)
O5 O 0.32530(7) 0.08368(5) 0.69962(15)
O6 O 0.29174(7) 0.07871(6) 0.85503(16)
O7 O 0.25884(7) 0.03377(5) 0.61510(15)
H1 H 0.2778 0.0481 0.6484
H2 H 0.2724 0.0129 0.6067
N1 N 0.26304(8) 0.07377(7) 0.36042(18)
N2 N 0.44053(8) 0.15164(6) 0.83678(19)
N3 N 0.16909(8) 0.02480(6) 0.46108(18)
N4 N -0.04653(8) -0.08671(6) 0.37346(18)
N5 N 0.40942(8) 0.07297(7) 0.54609(19)
C1 C 0.30010(10) 0.09592(7) 0.3981(2)
C2 C 0.33173(10) 0.11612(8) 0.3305(2)
C3 C 0.32413(11) 0.11094(8) 0.2252(2)
H3 H 0.3445 0.1242 0.1778
C4 C 0.28759(11) 0.08688(9) 0.1881(2)
H4 H 0.2834 0.0829 0.1164
C5 C 0.25756(10) 0.06897(8) 0.2591(2)
H5 H 0.2321 0.0526 0.2351
C6 C 0.37204(11) 0.14289(8) 0.3664(2)
C7 C 0.40286(10) 0.13381(7) 0.7847(2)
C8 C 0.36831(9) 0.11155(7) 0.8422(2)
C9 C 0.37529(11) 0.10817(8) 0.9475(2)
H6 H 0.3518 0.0943 0.9868
C10 C 0.41587(10) 0.12457(8) 0.9966(2)
H7 H 0.4218 0.1209 1.0679
C11 C 0.44731(10) 0.14643(8) 0.9377(2)
H8 H 0.475 0.1583 0.9702
C12 C 0.32525(10) 0.09005(8) 0.7958(2)
C13 C 0.14435(10) 0.02642(8) 0.3710(2)
H9 H 0.1562 0.043 0.3194
C14 C 0.10254(10) 0.00505(7) 0.3507(2)
H10 H 0.0867 0.0064 0.2853
C15 C 0.08351(10) -0.01862(7) 0.4263(2)
C16 C 0.10924(10) -0.02018(8) 0.5192(2)
H11 H 0.0977 -0.0359 0.5729
C17 C 0.15181(11) 0.00136(8) 0.5329(2)
H12 H 0.1695 -0.0006 0.5961
C18 C -0.01578(10) -0.07667(8) 0.2967(2)
H13 H -0.023 -0.0854 0.2294
C19 C 0.02584(10) -0.05426(8) 0.3102(2)
H14 H 0.0463 -0.0478 0.2531
C20 C 0.03752(10) -0.04125(8) 0.4080(2)
C21 C 0.00512(10) -0.05078(8) 0.4881(2)
H15 H 0.0112 -0.0421 0.5559
C22 C -0.03611(10) -0.07320(8) 0.4671(2)
H16 H -0.0581 -0.0793 0.5221
C23 C 0.45812(10) 0.08006(8) 0.5290(2)
H17 H 0.4683 0.1052 0.52
C24 C 0.49443(10) 0.05239(8) 0.5237(2)
H18 H 0.5285 0.0588 0.511
C25 C 0.48102(10) 0.01516(8) 0.5372(2)
C26 C 0.42988(10) 0.00784(8) 0.5531(2)
H19 H 0.4185 -0.017 0.5619
C27 C 0.39610(10) 0.03704(8) 0.5557(2)
H20 H 0.3615 0.0314 0.5648
N5A N 0.59058(8) -0.07297(7) 0.54609(19)
C23A C 0.54188(10) -0.08006(8) 0.5290(2)
H17A H 0.5317 -0.1052 0.52
C24A C 0.50557(10) -0.05239(8) 0.5237(2)
H18A H 0.4715 -0.0588 0.511
C25A C 0.51898(10) -0.01516(8) 0.5372(2)
C26A C 0.57012(10) -0.00784(8) 0.5531(2)
H19A H 0.5815 0.017 0.5619
C27A C 0.60390(10) -0.03704(8) 0.5557(2)
H20A H 0.6385 -0.0314 0.5648
Zn1A Zn 0.64531(2) -0.11894(2) 0.58537(2)
Zn2A Zn 0.77311(2) -0.06110(2) 0.49499(2)
O1A O 0.69886(6) -0.09629(5) 0.49685(16)
O2A O 0.62174(7) -0.14921(5) 0.46058(15)
O3A O 0.60295(11) -0.15815(8) 0.2971(2)
O4A O 0.59783(7) -0.13996(6) 0.68827(16)
O5A O 0.67470(7) -0.08368(5) 0.69962(15)
O6A O 0.70826(7) -0.07871(6) 0.85503(16)
O7A O 0.74116(7) -0.03377(5) 0.61510(15)
H1A H 0.7222 -0.0481 0.6484
H2A H 0.7276 -0.0129 0.6067
N1A N 0.73696(8) -0.07377(7) 0.36042(18)
N2A N 0.55947(8) -0.15164(6) 0.83678(19)
N3A N 0.83091(8) -0.02480(6) 0.46108(18)
N4A N 1.04653(8) 0.08671(6) 0.37346(18)
C1A C 0.69990(10) -0.09592(7) 0.3981(2)
C2A C 0.66827(10) -0.11612(8) 0.3305(2)
C3A C 0.67587(11) -0.11094(8) 0.2252(2)
H3A H 0.6555 -0.1242 0.1778
C4A C 0.71241(11) -0.08688(9) 0.1881(2)
H4A H 0.7166 -0.0829 0.1164
C5A C 0.74244(10) -0.06897(8) 0.2591(2)
H5A H 0.7679 -0.0526 0.2351
C6A C 0.62796(11) -0.14289(8) 0.3664(2)
C7A C 0.59714(10) -0.13381(7) 0.7847(2)
C8A C 0.63169(9) -0.11155(7) 0.8422(2)
C9A C 0.62471(11) -0.10817(8) 0.9475(2)
H6A H 0.6482 -0.0943 0.9868
C10A C 0.58413(10) -0.12457(8) 0.9966(2)
H7A H 0.5782 -0.1209 1.0679
C11A C 0.55269(10) -0.14643(8) 0.9377(2)
H8A H 0.525 -0.1583 0.9702
C12A C 0.67475(10) -0.09005(8) 0.7958(2)
C13A C 0.85565(10) -0.02642(8) 0.3710(2)
H9A H 0.8438 -0.043 0.3194
C14A C 0.89746(10) -0.00505(7) 0.3507(2)
H10A H 0.9133 -0.0064 0.2853
C15A C 0.91649(10) 0.01862(7) 0.4263(2)
C16A C 0.89076(10) 0.02018(8) 0.5192(2)
H11A H 0.9023 0.0359 0.5729
C17A C 0.84819(11) -0.00136(8) 0.5329(2)
H12A H 0.8305 0.0006 0.5961
C18A C 1.01578(10) 0.07667(8) 0.2967(2)
H13A H 1.023 0.0854 0.2294
C19A C 0.97416(10) 0.05426(8) 0.3102(2)
H14A H 0.9537 0.0478 0.2531
C20A C 0.96248(10) 0.04125(8) 0.4080(2)
C21A C 0.99488(10) 0.05078(8) 0.4881(2)
H15A H 0.9888 0.0421 0.5559
C22A C 1.03611(10) 0.07320(8) 0.4671(2)
H16A H 1.0581 0.0793 0.5221
Zn1G Zn -0.10469(2) -0.13106(2) 0.33537(2)
Zn1J Zn 1.10469(2) 0.13106(2) 0.33537(2)
Zn2B Zn 0.47689(2) 0.18890(2) 0.74499(2)
Zn2O Zn 0.52311(2) -0.18890(2) 0.74499(2)
N2G N 0.80947(8) -0.09836(6) 0.58678(19)
N2J N 0.19053(8) 0.09836(6) 0.58678(19)
N4C N 0.29653(8) 0.16329(6) 0.62346(18)
N4N N 0.70347(8) -0.16329(6) 0.62346(18)
N6 N 0.13295(10) 0.01039(8) 0.7877(2)
C28 C 0.11105(11) -0.02285(9) 0.7908(2)
H21 H 0.132 -0.0441 0.7975
C29 C 0.05952(11) -0.02845(9) 0.7846(2)
H22 H 0.0461 -0.0529 0.7871
C30 C 0.02789(10) 0.00201(8) 0.7750(2)
C31 C 0.05033(12) 0.03712(9) 0.7700(3)
H23 H 0.0305 0.0589 0.7618
C32 C 0.10227(13) 0.03936(10) 0.7772(3)
H24 H 0.117 0.0634 0.7743
N6A N -0.13295(10) -0.01039(8) 0.7877(2)
C28A C -0.11105(11) 0.02285(9) 0.7908(2)
H21A H -0.132 0.0441 0.7975
C29A C -0.05952(11) 0.02845(9) 0.7846(2)
H22A H -0.0461 0.0529 0.7871
C30A C -0.02789(10) -0.00201(8) 0.7750(2)
C31A C -0.05033(12) -0.03712(9) 0.7700(3)
H23A H -0.0305 -0.0589 0.7618
C32A C -0.10227(13) -0.03936(10) 0.7772(3)
H24A H -0.117 -0.0634 0.7743
O8 O 0.48468(9) 0.11780(7) 0.22302(19)
H25 H 0.4582 0.1278 0.2418
H26 H 0.5031 0.1323 0.1898
O9 O 0.23334(8) 0.01529(6) 0.86840(17)
H27 H 0.2057 0.0156 0.8382
H28 H 0.2519 0.0327 0.8519
O10 O 0.45016(10) 0.22124(6) 0.31086(18)
H29 H 0.4318 0.2026 0.3171
H30 H 0.4584 0.2254 0.2503
loop_
_geom_bond_atom_site_label_1
_geom_bond_atom_site_label_2
_geom_bond_site_symmetry_1
_geom_bond_site_symmetry_2
Zn1 O1 1_555 1_555
Zn2 O1 1_555 1_555
O1 C1 1_555 1_555
O2 Zn1 1_555 1_555
O3 C6 1_555 1_555
O4 Zn1 1_555 1_555
O5 Zn1 1_555 1_555
O6 C12 1_555 1_555
O7 Zn2 1_555 1_555
H1 O7 1_555 1_555
H2 O7 1_555 1_555
N1 Zn2 1_555 1_555
N2 C7 1_555 1_555
N3 Zn2 1_555 1_555
N4 C18 1_555 1_555
N5 Zn1 1_555 1_555
C1 N1 1_555 1_555
C2 C1 1_555 1_555
C3 C2 1_555 1_555
H3 C3 1_555 1_555
C4 C3 1_555 1_555
H4 C4 1_555 1_555
C5 N1 1_555 1_555
H5 C5 1_555 1_555
C6 O2 1_555 1_555
C7 O4 1_555 1_555
C8 C7 1_555 1_555
C9 C8 1_555 1_555
H6 C9 1_555 1_555
C10 C9 1_555 1_555
H7 C10 1_555 1_555
C11 N2 1_555 1_555
H8 C11 1_555 1_555
C12 O5 1_555 1_555
C13 N3 1_555 1_555
H9 C13 1_555 1_555
C14 C13 1_555 1_555
H10 C14 1_555 1_555
C15 C14 1_555 1_555
C16 C15 1_555 1_555
H11 C16 1_555 1_555
C17 N3 1_555 1_555
H12 C17 1_555 1_555
C18 H13 1_555 1_555
C19 C18 1_555 1_555
H14 C19 1_555 1_555
C20 C15 1_555 1_555
C21 C20 1_555 1_555
H15 C21 1_555 1_555
C22 N4 1_555 1_555
H16 C22 1_555 1_555
C23 N5 1_555 1_555
H17 C23 1_555 1_555
C24 C23 1_555 1_555
H18 C24 1_555 1_555
C25 C24 1_555 1_555
C26 C25 1_555 1_555
H19 C26 1_555 1_555
C27 N5 1_555 1_555
H20 C27 1_555 1_555
N6 C28 1_555 1_555
C28 H21 1_555 1_555
C29 C28 1_555 1_555
H22 C29 1_555 1_555
C30 C29 1_555 1_555
C31 C30 1_555 1_555
H23 C31 1_555 1_555
C32 N6 1_555 1_555
H24 C32 1_555 1_555
O8 H25 1_555 1_555
H26 O8 1_555 1_555
O9 H27 1_555 1_555
H28 O9 1_555 1_555
O10 H29 1_555 1_555
H30 O10 1_555 1_555
N5A C23A 1_555 1_555
C23A H17A 1_555 1_555
C24A C23A 1_555 1_555
H18A C24A 1_555 1_555
C25A C25 1_555 1_555
C26A C25A 1_555 1_555
H19A C26A 1_555 1_555
C27A N5A 1_555 1_555
H20A C27A 1_555 1_555
Zn1A N5A 1_555 1_555
Zn2A O1A 1_555 1_555
O1A Zn1A 1_555 1_555
O2A Zn1A 1_555 1_555
O3A C6A 1_555 1_555
O4A Zn1A 1_555 1_555
O5A Zn1A 1_555 1_555
O6A C12A 1_555 1_555
O7A Zn2A 1_555 1_555
H1A O7A 1_555 1_555
H2A O7A 1_555 1_555
N1A Zn2A 1_555 1_555
N2A C7A 1_555 1_555
N3A Zn2A 1_555 1_555
N4A C18A 1_555 1_555
C1A O1A 1_555 1_555
C2A C1A 1_555 1_555
C3A C2A 1_555 1_555
H3A C3A 1_555 1_555
C4A C3A 1_555 1_555
H4A C4A 1_555 1_555
C5A N1A 1_555 1_555
H5A C5A 1_555 1_555
C6A O2A 1_555 1_555
C7A O4A 1_555 1_555
C8A C7A 1_555 1_555
C9A C8A 1_555 1_555
H6A C9A 1_555 1_555
C10A C9A 1_555 1_555
H7A C10A 1_555 1_555
C11A N2A 1_555 1_555
H8A C11A 1_555 1_555
C12A O5A 1_555 1_555
C13A N3A 1_555 1_555
H9A C13A 1_555 1_555
C14A C13A 1_555 1_555
H10A C14A 1_555 1_555
C15A C14A 1_555 1_555
C16A C15A 1_555 1_555
H11A C16A 1_555 1_555
C17A N3A 1_555 1_555
H12A C17A 1_555 1_555
C18A H13A 1_555 1_555
C19A C18A 1_555 1_555
H14A C19A 1_555 1_555
C20A C15A 1_555 1_555
C21A C20A 1_555 1_555
H15A C21A 1_555 1_555
C22A N4A 1_555 1_555
H16A C22A 1_555 1_555
Zn1G N4 1_555 1_555
Zn1J N4A 1_555 1_555
Zn2B N2 1_555 1_555
Zn2O N2A 1_555 1_555
N2G Zn2A 1_555 1_555
N2J Zn2 1_555 1_555
N4C Zn1 1_555 1_555
N4N Zn1A 1_555 1_555
N6A C28A 1_555 1_555
C28A H21A 1_555 1_555
C29A C28A 1_555 1_555
H22A C29A 1_555 1_555
C30A C30 1_555 1_555
C31A C30A 1_555 1_555
H23A C31A 1_555 1_555
C32A N6A 1_555 1_555
H24A C32A 1_555 1_555
C2 C6 1_555 1_555
C4 C5 1_555 1_555
C8 C12 1_555 1_555
C10 C11 1_555 1_555
C16 C17 1_555 1_555
C19 C20 1_555 1_555
C21 C22 1_555 1_555
C26 C27 1_555 1_555
C31 C32 1_555 1_555
C24A C25A 1_555 1_555
C26A C27A 1_555 1_555
N1A C1A 1_555 1_555
C2A C6A 1_555 1_555
C4A C5A 1_555 1_555
C8A C12A 1_555 1_555
C10A C11A 1_555 1_555
C16A C17A 1_555 1_555
C19A C20A 1_555 1_555
C21A C22A 1_555 1_555
C29A C30A 1_555 1_555
C31A C32A 1_555 1_555

#END
