
#######################################################################
#
#                 Cambridge Crystallographic Data Centre
#                                CCDC 
#
#######################################################################
#
# If this CIF has been generated from an entry in the Cambridge 
# Structural Database, then it will include bibliographic, chemical, 
# crystal, experimental, refinement or atomic coordinate data resulting 
# from the CCDC's data processing and validation procedures.
#
#######################################################################

data_SUSSIJ
_symmetry_cell_setting           monoclinic
_symmetry_space_group_name_H-M   'P 21/n'
_symmetry_Int_Tables_number      14
_space_group_name_Hall           '-P 2yn'
loop_
_symmetry_equiv_pos_site_id
_symmetry_equiv_pos_as_xyz
1 x,y,z
2 1/2-x,1/2+y,1/2-z
3 -x,-y,-z
4 1/2+x,1/2-y,1/2+z
_cell_length_a                   11.7689(18)
_cell_length_b                   11.7458(18)
_cell_length_c                   13.360(2)
_cell_angle_alpha                90
_cell_angle_beta                 110.341(2)
_cell_angle_gamma                90
_cell_volume                     1731.65
loop_
_atom_site_label
_atom_site_type_symbol
_atom_site_fract_x
_atom_site_fract_y
_atom_site_fract_z
Mn1 Mn 0.03951(2) 0.08171(2) 0.67138(2)
O1 O 0.34336(12) -0.14459(12) 0.61722(10)
O2 O 0.06003(12) -0.18002(11) 0.46778(9)
O3 O 0.45632(12) -0.27077(12) 0.73358(10)
O4 O 0.10434(12) -0.03866(11) 0.58623(10)
C1 C -0.2393(2) 0.0160(2) 0.61781(18)
H1 H -0.2506 0.0583 0.5562
N1 N 0.10194(15) -0.02863(15) 0.82558(13)
C2 C 0.2418(3) -0.1105(2) 0.9857(2)
H2 H 0.3219 -0.1220 1.0296
N2 N 0.26735(14) -0.34492(13) 0.78083(12)
C3 C 0.1487(3) -0.1549(2) 1.01157(19)
H3 H 0.1649 -0.1958 1.0746
N3 N -0.12712(15) 0.00325(14) 0.68746(13)
N4 N 0.03363(14) -0.26918(15) 0.67165(13)
C4 C 0.12853(17) -0.22853(15) 0.64977(14)
C5 C -0.11164(19) -0.05874(17) 0.77671(16)
C6 C 0.35752(16) -0.22160(16) 0.68252(14)
C7 C 0.24656(16) -0.26525(15) 0.70502(13)
C8 C 0.0101(2) -0.07459(17) 0.85065(16)
C9 C 0.09640(15) -0.14042(17) 0.56162(14)
C10 C 0.17356(19) -0.38489(18) 0.80391(17)
H4 H 0.1863 -0.4392 0.8573
C11 C -0.2093(2) -0.1094(2) 0.7983(2)
C12 C 0.2142(2) -0.0475(2) 0.89211(18)
H5 H 0.2780 -0.0168 0.8750
C13 C 0.0287(2) -0.1393(2) 0.94371(17)
C14 C -0.3254(2) -0.0936(2) 0.7227(2)
H6 H -0.3924 -0.1257 0.7336
C15 C -0.3401(2) -0.0313(3) 0.6335(2)
H7 H -0.4171 -0.0204 0.5832
C16 C -0.0728(3) -0.1878(2) 0.9630(2)
H8 H -0.0600 -0.2305 1.0246
C17 C 0.05765(19) -0.34652(19) 0.74935(17)
H9 H -0.0061 -0.3757 0.7674
C18 C -0.1865(3) -0.1735(2) 0.8943(2)
H10 H -0.2509 -0.2057 0.9093
Mn1B Mn -0.03951(2) -0.08171(2) 0.32862(2)
Mn1A Mn 0.46049(2) -0.41829(2) 0.82862(2)
Mn1C Mn -0.46049(2) 0.41829(2) 0.17138(2)
O1B O -0.34336(12) 0.14459(12) 0.38278(10)
O2B O -0.06003(12) 0.18002(11) 0.53222(9)
O3B O -0.45632(12) 0.27077(12) 0.26642(10)
O3A O 0.04368(12) 0.22923(12) 0.76642(10)
O3C O -0.04368(12) -0.22923(12) 0.23358(10)
O4B O -0.10434(12) 0.03866(11) 0.41377(10)
C1B C 0.2393(2) -0.0160(2) 0.38219(18)
H1B H 0.2506 -0.0583 0.4438
N1B N -0.10194(15) 0.02863(15) 0.17442(13)
C2B C -0.2418(3) 0.1105(2) 0.0143(2)
H2B H -0.3219 0.1220 -0.0296
N2B N -0.26735(14) 0.34492(13) 0.21917(12)
N2A N 0.23265(14) 0.15508(13) 0.71917(12)
N2C N -0.23265(14) -0.15508(13) 0.28083(12)
C3B C -0.1487(3) 0.1549(2) -0.01157(19)
H3B H -0.1649 0.1958 -0.0746
N3B N 0.12712(15) -0.00325(14) 0.31254(13)
N4B N -0.03363(14) 0.26918(15) 0.32835(13)
C4B C -0.12853(17) 0.22853(15) 0.35023(14)
C5B C 0.11164(19) 0.05874(17) 0.22329(16)
C6B C -0.35752(16) 0.22160(16) 0.31748(14)
C7B C -0.24656(16) 0.26525(15) 0.29498(13)
C8B C -0.0101(2) 0.07459(17) 0.14935(16)
C9B C -0.09640(15) 0.14042(17) 0.43838(14)
C10B C -0.17356(19) 0.38489(18) 0.19609(17)
H4B H -0.1863 0.4392 0.1427
C11B C 0.2093(2) 0.1094(2) 0.2017(2)
C12B C -0.2142(2) 0.0475(2) 0.10789(18)
H5B H -0.2780 0.0168 0.1250
C13B C -0.0287(2) 0.1393(2) 0.05629(17)
C14B C 0.3254(2) 0.0936(2) 0.2773(2)
H6B H 0.3924 0.1257 0.2664
C15B C 0.3401(2) 0.0313(3) 0.3665(2)
H7B H 0.4171 0.0204 0.4168
C16B C 0.0728(3) 0.1878(2) 0.0370(2)
H8B H 0.0600 0.2305 -0.0246
C17B C -0.05765(19) 0.34652(19) 0.25065(17)
H9B H 0.0061 0.3757 0.2326
C18B C 0.1865(3) 0.1735(2) 0.1057(2)
H10B H 0.2509 0.2057 0.0907
O5 O 0.5108(2) -0.07752(16) 0.91731(18)
H11 H 0.5557 -0.0483 0.9759
H12 H 0.5275 -0.1479 0.9164
loop_
_geom_bond_atom_site_label_1
_geom_bond_atom_site_label_2
_geom_bond_site_symmetry_1
_geom_bond_site_symmetry_2
Mn1 O4 1_555 1_555
O1 C6 1_555 1_555
O2 C9 1_555 1_555
O3 C6 1_555 1_555
O4 C9 1_555 1_555
C1 H1 1_555 1_555
N1 Mn1 1_555 1_555
C2 H2 1_555 1_555
N2 C7 1_555 1_555
C3 C2 1_555 1_555
H3 C3 1_555 1_555
N3 Mn1 1_555 1_555
N4 C4 1_555 1_555
C4 C7 1_555 1_555
C5 N3 1_555 1_555
C6 C7 1_555 1_555
C8 N1 1_555 1_555
C9 C4 1_555 1_555
C10 N2 1_555 1_555
H4 C10 1_555 1_555
C11 C5 1_555 1_555
C12 N1 1_555 1_555
H5 C12 1_555 1_555
C13 C3 1_555 1_555
C14 C11 1_555 1_555
H6 C14 1_555 1_555
C15 C1 1_555 1_555
H7 C15 1_555 1_555
C16 C13 1_555 1_555
H8 C16 1_555 1_555
C17 N4 1_555 1_555
H9 C17 1_555 1_555
C18 C11 1_555 1_555
H10 C18 1_555 1_555
O5 H11 1_555 1_555
H12 O5 1_555 1_555
Mn1B O2 1_555 1_555
Mn1A O3 1_555 1_555
Mn1C O3B 1_555 1_555
O1B C6B 1_555 1_555
O2B Mn1 1_555 1_555
O3B C6B 1_555 1_555
O3A Mn1 1_555 1_555
O3C Mn1B 1_555 1_555
O4B Mn1B 1_555 1_555
C1B H1B 1_555 1_555
N1B Mn1B 1_555 1_555
C2B H2B 1_555 1_555
N2B Mn1C 1_555 1_555
N2A Mn1 1_555 1_555
N2C Mn1B 1_555 1_555
C3B C2B 1_555 1_555
H3B C3B 1_555 1_555
N3B Mn1B 1_555 1_555
N4B C4B 1_555 1_555
C4B C7B 1_555 1_555
C5B N3B 1_555 1_555
C6B C7B 1_555 1_555
C7B N2B 1_555 1_555
C8B N1B 1_555 1_555
C9B O2B 1_555 1_555
C10B N2B 1_555 1_555
H4B C10B 1_555 1_555
C11B C5B 1_555 1_555
C12B N1B 1_555 1_555
H5B C12B 1_555 1_555
C13B C3B 1_555 1_555
C14B C11B 1_555 1_555
H6B C14B 1_555 1_555
C15B C1B 1_555 1_555
H7B C15B 1_555 1_555
C16B C13B 1_555 1_555
H8B C16B 1_555 1_555
C17B N4B 1_555 1_555
H9B C17B 1_555 1_555
C18B C11B 1_555 1_555
H10B C18B 1_555 1_555
C1 N3 1_555 1_555
C2 C12 1_555 1_555
N2 Mn1A 1_555 1_555
C5 C8 1_555 1_555
C8 C13 1_555 1_555
C10 C17 1_555 1_555
C14 C15 1_555 1_555
C16 C18 1_555 1_555
O4B C9B 1_555 1_555
C1B N3B 1_555 1_555
C2B C12B 1_555 1_555
C4B C9B 1_555 1_555
C5B C8B 1_555 1_555
C8B C13B 1_555 1_555
C10B C17B 1_555 1_555
C14B C15B 1_555 1_555
C16B C18B 1_555 1_555

#END
