
#######################################################################
#
#                 Cambridge Crystallographic Data Centre
#                                CCDC 
#
#######################################################################
#
# If this CIF has been generated from an entry in the Cambridge 
# Structural Database, then it will include bibliographic, chemical, 
# crystal, experimental, refinement or atomic coordinate data resulting 
# from the CCDC's data processing and validation procedures.
#
#######################################################################

data_SUSTAC
_symmetry_cell_setting           monoclinic
_symmetry_space_group_name_H-M   'C 2/c'
_symmetry_Int_Tables_number      15
_space_group_name_Hall           '-C 2yn'
loop_
_symmetry_equiv_pos_site_id
_symmetry_equiv_pos_as_xyz
1 x,y,z
2 -x,y,1/2-z
3 1/2+x,1/2+y,z
4 1/2-x,1/2+y,1/2-z
5 -x,-y,-z
6 x,-y,1/2+z
7 1/2-x,1/2-y,-z
8 1/2+x,1/2-y,1/2+z
_cell_length_a                   18.899(6)
_cell_length_b                   9.882(2)
_cell_length_c                   15.472(4)
_cell_angle_alpha                90
_cell_angle_beta                 120.158(3)
_cell_angle_gamma                90
_cell_volume                     2498.43
loop_
_atom_site_label
_atom_site_type_symbol
_atom_site_fract_x
_atom_site_fract_y
_atom_site_fract_z
Ag1 Ag 0.5000 0.48696(7) 0.2500
Ag2 Ag 1.0000 1.0000 0.5000
N1 N 0.6148(3) 0.5011(5) 0.3804(4)
N2 N 0.6281(3) 0.4565(4) 0.4716(4)
N3 N 0.7408(3) 0.5430(4) 0.4901(4)
N4 N 0.8188(3) 0.6073(4) 0.5330(4)
N5 N 1.0209(3) 0.8070(4) 0.5818(4)
C1 C 0.6835(4) 0.5537(6) 0.3945(5)
H1 H 0.6909 0.5925 0.3449
C2 C 0.7051(4) 0.4837(5) 0.5357(5)
H2 H 0.7311 0.4644 0.6037
C3 C 0.8784(4) 0.5284(5) 0.5580(4)
C4 C 0.8770(4) 0.3795(5) 0.5538(5)
H3 H 0.8224 0.3479 0.5311
H4 H 0.9133 0.3438 0.6192
H5 H 0.8944 0.3498 0.5083
C5 C 0.9570(4) 0.6019(6) 0.5919(4)
C6 C 0.9548(4) 0.7323(5) 0.5569(5)
H6 H 0.9039 0.7697 0.5132
C7 C 1.0930(4) 0.7552(7) 0.6439(5)
H7 H 1.1395 0.8078 0.6637
C8 C 1.1018(4) 0.6250(8) 0.6805(5)
H8 H 1.1538 0.5903 0.7232
C9 C 1.0330(4) 0.5460(7) 0.6536(5)
H9 H 1.0381 0.4576 0.6766
Ag2B Ag 0.5000 0.5000 0.5000
Ag2C Ag 0.5000 0.5000 0.0000
Ag2A Ag 0.0000 1.0000 0.0000
N1A N 0.3852(3) 0.5011(5) 0.1196(4)
N2A N 0.3719(3) 0.4565(4) 0.0284(4)
N2B N 1.1281(3) 0.9565(4) 0.4716(4)
N2F N 0.8719(3) 1.0435(4) 0.5284(4)
N3A N 0.2592(3) 0.5430(4) 0.0099(4)
N4A N 0.1812(3) 0.6073(4) -0.0330(4)
N5A N -0.0209(3) 0.8070(4) -0.0818(4)
N5D N 0.9791(3) 1.1930(4) 0.4182(4)
C1A C 0.3165(4) 0.5537(6) 0.1055(5)
H1A H 0.3091 0.5925 0.1551
C2A C 0.2949(4) 0.4837(5) -0.0357(5)
H2A H 0.2689 0.4644 -0.1037
C3A C 0.1216(4) 0.5284(5) -0.0580(4)
C4A C 0.1230(4) 0.3795(5) -0.0538(5)
H3A H 0.1776 0.3479 -0.0311
H4A H 0.0867 0.3438 -0.1192
H5A H 0.1056 0.3498 -0.0083
C5A C 0.0430(4) 0.6019(6) -0.0919(4)
C6A C 0.0452(4) 0.7323(5) -0.0569(5)
H6A H 0.0961 0.7697 -0.0132
C7A C -0.0930(4) 0.7552(7) -0.1439(5)
H7A H -0.1395 0.8078 -0.1637
C8A C -0.1018(4) 0.6250(8) -0.1805(5)
H8A H -0.1538 0.5903 -0.2232
C9A C -0.0330(4) 0.5460(7) -0.1536(5)
H9A H -0.0381 0.4576 -0.1766
B1 B 0.6688(6) 0.7128(10) 0.7244(8)
F1 F 0.6952(3) 0.7906(5) 0.6776(4)
F2 F 0.5879(3) 0.7255(5) 0.6907(4)
F3 F 0.7116(3) 0.7307(5) 0.8230(4)
F4 F 0.6768(4) 0.5807(5) 0.7082(4)
loop_
_geom_bond_atom_site_label_1
_geom_bond_atom_site_label_2
_geom_bond_site_symmetry_1
_geom_bond_site_symmetry_2
Ag1 N1 1_555 1_555
Ag2 N5 1_555 1_555
N1 N2 1_555 1_555
N2 C2 1_555 1_555
N3 N4 1_555 1_555
N4 C3 1_555 1_555
N5 C6 1_555 1_555
C1 N1 1_555 1_555
H1 C1 1_555 1_555
C2 N3 1_555 1_555
H2 C2 1_555 1_555
C3 C4 1_555 1_555
C4 H3 1_555 1_555
H4 C4 1_555 1_555
H5 C4 1_555 1_555
C5 C3 1_555 1_555
C6 C5 1_555 1_555
H6 C6 1_555 1_555
C7 N5 1_555 1_555
H7 C7 1_555 1_555
C8 C7 1_555 1_555
H8 C8 1_555 1_555
C9 C5 1_555 1_555
H9 C9 1_555 1_555
B1 F1 1_555 1_555
F2 B1 1_555 1_555
F3 B1 1_555 1_555
F4 B1 1_555 1_555
Ag2B N2 1_555 1_555
Ag2C N2A 1_555 1_555
Ag2A N5A 1_555 1_555
N1A Ag1 1_555 1_555
N2A N1A 1_555 1_555
N2B Ag2 1_555 1_555
N2F Ag2 1_555 1_555
N3A N4A 1_555 1_555
N4A C3A 1_555 1_555
N5A C6A 1_555 1_555
N5D Ag2 1_555 1_555
C1A N1A 1_555 1_555
H1A C1A 1_555 1_555
C2A N2A 1_555 1_555
H2A C2A 1_555 1_555
C3A C4A 1_555 1_555
C4A H3A 1_555 1_555
H4A C4A 1_555 1_555
H5A C4A 1_555 1_555
C5A C3A 1_555 1_555
C6A C5A 1_555 1_555
H6A C6A 1_555 1_555
C7A N5A 1_555 1_555
H7A C7A 1_555 1_555
C8A C7A 1_555 1_555
H8A C8A 1_555 1_555
C9A C5A 1_555 1_555
H9A C9A 1_555 1_555
N3 C1 1_555 1_555
C8 C9 1_555 1_555
N3A C1A 1_555 1_555
N3A C2A 1_555 1_555
C8A C9A 1_555 1_555

#END
