
#######################################################################
#
#                 Cambridge Crystallographic Data Centre
#                                CCDC 
#
#######################################################################
#
# If this CIF has been generated from an entry in the Cambridge 
# Structural Database, then it will include bibliographic, chemical, 
# crystal, experimental, refinement or atomic coordinate data resulting 
# from the CCDC's data processing and validation procedures.
#
#######################################################################

data_SUSTIK
_symmetry_cell_setting           triclinic
_symmetry_space_group_name_H-M   'P -1'
_symmetry_Int_Tables_number      2
_space_group_name_Hall           '-P 1'
loop_
_symmetry_equiv_pos_site_id
_symmetry_equiv_pos_as_xyz
1 x,y,z
2 -x,-y,-z
_cell_length_a                   7.2472(5)
_cell_length_b                   10.6966(8)
_cell_length_c                   16.2376(12)
_cell_angle_alpha                98.2960(10)
_cell_angle_beta                 91.6430(10)
_cell_angle_gamma                97.4810(10)
_cell_volume                     1233.53
loop_
_atom_site_label
_atom_site_type_symbol
_atom_site_fract_x
_atom_site_fract_y
_atom_site_fract_z
Pb1 Pb 0.29641(2) 0.175317(16) 0.282875(12)
Pb2 Pb 0.76448(2) 0.105549(17) 0.445250(11)
O1 O 0.5491(5) 0.3413(3) 0.2827(2)
O2 O 0.5373(5) 0.2845(3) 0.4089(2)
O3 O 0.9194(5) 0.2490(3) 0.3376(2)
O4 O 1.1849(5) 0.3769(4) 0.3293(3)
O5 O -0.1298(5) -0.0546(4) 0.3368(3)
O6 O 0.1246(5) -0.0011(3) 0.4203(2)
O7 O 0.5041(5) 0.0121(3) 0.3408(2)
O8 O 0.5088(5) -0.1160(3) 0.4370(2)
N1 N 0.2342(6) 0.2488(4) 0.1416(3)
N2 N 0.5210(6) 0.1090(4) 0.1591(3)
C1 C 0.6757(7) 0.5810(5) 0.4304(4)
C2 C 1.0482(8) 0.5824(5) 0.4205(3)
C3 C 0.0075(7) -0.2663(5) 0.2539(4)
H3 H -0.1174 -0.2567 0.2468
C4 C 0.3691(7) -0.2920(5) 0.2729(3)
H4 H 0.4937 -0.3035 0.2776
C5 C 0.7408(7) 0.4719(5) 0.3926(3)
C6 C 0.9333(7) 0.4719(5) 0.3865(3)
C7 C 0.9876(6) 0.6876(4) 0.4578(3)
H5 H 1.0703 0.7594 0.4797
N3 N 0.8018(8) 0.6862(5) 0.4627(4)
C8 C 0.6040(7) 0.3559(5) 0.3589(3)
C9 C 1.0165(7) 0.3565(5) 0.3488(3)
C10 C 0.1191(7) -0.1721(5) 0.3082(3)
C11 C 0.3088(7) -0.1862(5) 0.3165(3)
N4 N 0.2449(9) -0.3814(5) 0.2220(4)
C12 C 0.0644(6) -0.3682(4) 0.2117(3)
H6 H -0.0171 -0.4282 0.1764
C13 C 0.0335(7) -0.0672(5) 0.3594(3)
C14 C 0.4480(7) -0.0888(5) 0.3701(3)
C15 C 0.0891(8) 0.3090(5) 0.1307(4)
H7 H 0.0031 0.3146 0.1720
C16 C 0.0597(9) 0.3654(5) 0.0582(4)
H8 H -0.0451 0.4054 0.0516
C17 C 0.1885(9) 0.3597(6) -0.0016(4)
H9 H 0.1740 0.3973 -0.0491
C18 C 0.3424(8) 0.2965(5) 0.0096(4)
C19 C 0.4834(9) 0.2864(6) -0.0532(4)
H10 H 0.4771 0.3285 -0.0993
C20 C 0.6201(9) 0.2169(6) -0.0442(4)
H11 H 0.7065 0.2098 -0.0854
C21 C 0.6392(8) 0.1524(6) 0.0268(4)
C22 C 0.7794(9) 0.0772(6) 0.0376(4)
H12 H 0.8662 0.0658 -0.0030
C23 C 0.7895(8) 0.0205(6) 0.1071(4)
H13 H 0.8821 -0.0300 0.1145
C24 C 0.6587(8) 0.0396(6) 0.1669(4)
H14 H 0.6677 0.0020 0.2148
C25 C 0.5113(8) 0.1656(5) 0.0902(3)
C26 C 0.3579(7) 0.2387(5) 0.0803(3)
H15 H 0.536(8) 0.586(5) 0.444(3)
H16 H 1.189(8) 0.582(5) 0.411(4)
Pb1_2 Pb 1.29641(2) 0.175317(16) 0.282875(12)
Pb2_2 Pb -0.23552(2) 0.105549(17) 0.445250(11)
Pb2A Pb 0.23552(2) -0.105549(17) 0.554750(11)
O4_2 O 0.1849(5) 0.3769(4) 0.3293(3)
O5_2 O 0.8702(5) -0.0546(4) 0.3368(3)
O6A O 0.8754(5) 0.0011(3) 0.5797(2)
O9 O 0.6947(7) 0.4923(5) 0.1646(3)
H1 H 0.6562 0.4682 0.2101
H2 H 0.5905 0.4305 0.1404
loop_
_geom_bond_atom_site_label_1
_geom_bond_atom_site_label_2
_geom_bond_site_symmetry_1
_geom_bond_site_symmetry_2
Pb1 O1 1_555 1_555
Pb2 O3 1_555 1_555
O1 C8 1_555 1_555
O2 Pb1 1_555 1_555
O3 C9 1_555 1_555
O4 C9 1_555 1_555
O5 C13 1_555 1_555
O6 C13 1_555 1_555
O7 Pb1 1_555 1_555
O8 C14 1_555 1_555
O9 H1 1_555 1_555
H2 O9 1_555 1_555
N1 Pb1 1_555 1_555
N2 Pb1 1_555 1_555
C1 C5 1_555 1_555
C2 C6 1_555 1_555
C3 H3 1_555 1_555
C4 H4 1_555 1_555
C5 C6 1_555 1_555
C6 C9 1_555 1_555
C7 C2 1_555 1_555
H5 C7 1_555 1_555
N3 C1 1_555 1_555
C8 O2 1_555 1_555
C10 C3 1_555 1_555
C11 C4 1_555 1_555
N4 C4 1_555 1_555
C12 C3 1_555 1_555
H6 C12 1_555 1_555
C13 C10 1_555 1_555
C14 O7 1_555 1_555
C15 N1 1_555 1_555
H7 C15 1_555 1_555
C16 C15 1_555 1_555
H8 C16 1_555 1_555
C17 C16 1_555 1_555
H9 C17 1_555 1_555
C18 C17 1_555 1_555
C19 C18 1_555 1_555
H10 C19 1_555 1_555
C20 C19 1_555 1_555
H11 C20 1_555 1_555
C21 C20 1_555 1_555
C22 C21 1_555 1_555
H12 C22 1_555 1_555
C23 C22 1_555 1_555
H13 C23 1_555 1_555
C24 N2 1_555 1_555
H14 C24 1_555 1_555
C25 N2 1_555 1_555
C26 N1 1_555 1_555
H15 C1 1_555 1_555
H16 C2 1_555 1_555
Pb1_2 O4 1_555 1_555
Pb2_2 O5 1_555 1_555
Pb2A O6 1_555 1_555
O4_2 Pb1 1_555 1_555
O5_2 Pb2 1_555 1_555
O6A Pb2 1_555 1_555
Pb2 O7 1_555 1_555
C5 C8 1_555 1_555
C7 N3 1_555 1_555
C10 C11 1_555 1_555
C11 C14 1_555 1_555
N4 C12 1_555 1_555
C18 C26 1_555 1_555
C21 C25 1_555 1_555
C23 C24 1_555 1_555
C25 C26 1_555 1_555

#END
