
#######################################################################
#
#                 Cambridge Crystallographic Data Centre
#                                CCDC 
#
#######################################################################
#
# If this CIF has been generated from an entry in the Cambridge 
# Structural Database, then it will include bibliographic, chemical, 
# crystal, experimental, refinement or atomic coordinate data resulting 
# from the CCDC's data processing and validation procedures.
#
#######################################################################

data_SUSVUY
_symmetry_cell_setting           monoclinic
_symmetry_space_group_name_H-M   'P 2/c'
_symmetry_Int_Tables_number      13
_space_group_name_Hall           '-P 2yc'
loop_
_symmetry_equiv_pos_site_id
_symmetry_equiv_pos_as_xyz
1 x,y,z
2 -x,y,1/2-z
3 -x,-y,-z
4 x,-y,1/2+z
_cell_length_a                   22.981(2)
_cell_length_b                   11.4438(11)
_cell_length_c                   12.9327(12)
_cell_angle_alpha                90
_cell_angle_beta                 94.6420(10)
_cell_angle_gamma                90
_cell_volume                     3390.01
loop_
_atom_site_label
_atom_site_type_symbol
_atom_site_fract_x
_atom_site_fract_y
_atom_site_fract_z
C1 C 0.62437(17) 0.1918(3) 0.0864(3)
C2 C 0.56147(16) 0.1744(3) 0.0487(3)
C3 C 0.52196(18) 0.1301(4) 0.1144(3)
H1 H 0.5343 0.1127 0.1830
C4 C 0.4641(2) 0.1118(4) 0.0785(4)
H2 H 0.4379 0.0821 0.1229
C5 C 0.4458(2) 0.1374(4) -0.0218(4)
H3 H 0.4071 0.1246 -0.0459
C6 C 0.48456(19) 0.1823(4) -0.0876(4)
H4 H 0.4716 0.2006 -0.1557
C7 C 0.54247(17) 0.2003(3) -0.0537(3)
C8 C 0.58214(17) 0.2410(4) -0.1335(3)
C9 C 0.58474(18) 0.3681(4) -0.1565(3)
C10 C 0.5629(2) 0.4493(4) -0.0898(4)
H5 H 0.5472 0.4241 -0.0297
C11 C 0.5645(3) 0.5677(4) -0.1123(5)
H6 H 0.5502 0.6217 -0.0669
C12 C 0.5870(2) 0.6052(5) -0.2010(5)
H7 H 0.5880 0.6846 -0.2161
C13 C 0.6080(2) 0.5266(5) -0.2673(4)
H8 H 0.6226 0.5526 -0.3282
C14 C 0.6078(2) 0.4069(4) -0.2452(4)
H9 H 0.6231 0.3538 -0.2901
C15 C 0.86102(17) 0.1814(3) -0.0641(3)
C16 C 0.92546(17) 0.1694(3) -0.0444(3)
C17 C 0.95813(19) 0.1202(4) -0.1190(3)
H10 H 0.9394 0.0963 -0.1819
C18 C 1.0176(2) 0.1060(4) -0.1020(4)
H11 H 1.0386 0.0721 -0.1528
C19 C 1.0460(2) 0.1417(4) -0.0103(4)
H12 H 1.0863 0.1335 0.0011
C20 C 1.01443(18) 0.1899(4) 0.0648(4)
H13 H 1.0339 0.2142 0.1269
C21 C 0.95449(16) 0.2031(3) 0.0503(3)
C22 C 0.92326(16) 0.2403(3) 0.1418(3)
C23 C 0.91695(18) 0.3663(4) 0.1660(3)
C24 C 0.8929(2) 0.4002(4) 0.2556(4)
H14 H 0.8787 0.3442 0.2993
C25 C 0.8899(3) 0.5179(6) 0.2806(5)
H15 H 0.8739 0.5407 0.3414
C26 C 0.9103(3) 0.6005(6) 0.2162(6)
H16 H 0.9081 0.6793 0.2331
C27 C 0.9336(3) 0.5677(5) 0.1274(6)
H17 H 0.9473 0.6241 0.0836
C28 C 0.9372(2) 0.4503(4) 0.1020(5)
H18 H 0.9533 0.4284 0.0413
C29 C 0.7371(2) 0.4842(3) -0.0664(3)
H19 H 0.7303 0.4437 -0.1285
C30 C 0.7363(2) 0.6051(3) -0.0696(3)
H20 H 0.7287 0.6437 -0.1325
C31 C 0.74661(15) 0.6677(3) 0.0203(3)
C32 C 0.7573(2) 0.6047(3) 0.1106(3)
H21 H 0.7647 0.6431 0.1737
C33 C 0.75683(19) 0.4838(3) 0.1068(3)
H22 H 0.7638 0.4430 0.1687
C34 C 0.74562(16) 0.7977(3) 0.0199(3)
C35 C 0.70624(16) 0.8601(3) -0.0453(3)
H23 H 0.6796 0.8210 -0.0908
C36 C 0.70674(16) 0.9804(3) -0.0423(3)
H24 H 0.6790 1.0206 -0.0849
C37 C 0.78375(17) 0.9822(3) 0.0801(3)
H25 H 0.8112 1.0236 0.1223
C38 C 0.78506(17) 0.8621(3) 0.0842(3)
H26 H 0.8122 0.8241 0.1298
Co1 Co 0.74538(2) 0.23418(4) 0.02000(4)
N1 N 0.74708(12) 0.4229(2) 0.0200(2)
N2 N 0.74508(12) 1.0425(2) 0.0185(2)
O1 O 0.65634(10) 0.2373(2) 0.0225(2)
O2 O 0.64083(12) 0.1626(3) 0.1771(2)
O3 O 0.60693(14) 0.1698(3) -0.1849(2)
O4 O 0.83728(13) 0.1442(3) -0.1482(2)
O5 O 0.83444(10) 0.2288(2) 0.00642(19)
O6 O 0.90944(13) 0.1645(3) 0.2013(2)
O7 O 0.75049(12) 0.2307(2) 0.18742(19)
H27 H 0.7717 0.1769 0.2087
O8 O 0.73185(12) 0.2346(2) -0.14812(19)
H28 H 0.7458 0.1749 -0.1711
Co1_2 Co 0.74538(2) 1.23418(4) 0.02000(4)
N2_2 N 0.74508(12) 0.0425(2) 0.0185(2)
O9 O 0.82645(13) 0.1048(3) 0.3287(2)
loop_
_geom_bond_atom_site_label_1
_geom_bond_atom_site_label_2
_geom_bond_site_symmetry_1
_geom_bond_site_symmetry_2
C1 C2 1_555 1_555
C2 C3 1_555 1_555
C3 H1 1_555 1_555
C4 C3 1_555 1_555
H2 C4 1_555 1_555
C5 C4 1_555 1_555
H3 C5 1_555 1_555
C6 C5 1_555 1_555
H4 C6 1_555 1_555
C7 C2 1_555 1_555
C8 C7 1_555 1_555
C9 C8 1_555 1_555
C10 C9 1_555 1_555
H5 C10 1_555 1_555
C11 C10 1_555 1_555
H6 C11 1_555 1_555
C12 C11 1_555 1_555
H7 C12 1_555 1_555
C13 C12 1_555 1_555
H8 C13 1_555 1_555
C14 C9 1_555 1_555
H9 C14 1_555 1_555
C15 C16 1_555 1_555
C16 C17 1_555 1_555
C17 H10 1_555 1_555
C18 C17 1_555 1_555
H11 C18 1_555 1_555
C19 C18 1_555 1_555
H12 C19 1_555 1_555
C20 C19 1_555 1_555
H13 C20 1_555 1_555
C21 C16 1_555 1_555
C22 C21 1_555 1_555
C23 C22 1_555 1_555
C24 C23 1_555 1_555
H14 C24 1_555 1_555
C25 C24 1_555 1_555
H15 C25 1_555 1_555
C26 C25 1_555 1_555
H16 C26 1_555 1_555
C27 C26 1_555 1_555
H17 C27 1_555 1_555
C28 C23 1_555 1_555
H18 C28 1_555 1_555
C29 H19 1_555 1_555
C30 C29 1_555 1_555
H20 C30 1_555 1_555
C31 C30 1_555 1_555
C32 C31 1_555 1_555
H21 C32 1_555 1_555
C33 C32 1_555 1_555
H22 C33 1_555 1_555
C34 C31 1_555 1_555
C35 C34 1_555 1_555
H23 C35 1_555 1_555
C36 C35 1_555 1_555
H24 C36 1_555 1_555
C37 H25 1_555 1_555
C38 C34 1_555 1_555
H26 C38 1_555 1_555
Co1 N1 1_555 1_555
N1 C29 1_555 1_555
N2 C36 1_555 1_555
O1 C1 1_555 1_555
O2 C1 1_555 1_555
O3 C8 1_555 1_555
O4 C15 1_555 1_555
O5 C15 1_555 1_555
O6 C22 1_555 1_555
O7 Co1 1_555 1_555
H27 O7 1_555 1_555
O8 Co1 1_555 1_555
H28 O8 1_555 1_555
Co1_2 N2 1_555 1_555
N2_2 Co1 1_555 1_555
C6 C7 1_555 1_555
C13 C14 1_555 1_555
C20 C21 1_555 1_555
C27 C28 1_555 1_555
C33 N1 1_555 1_555
C37 C38 1_555 1_555
C37 N2 1_555 1_555
Co1 O1 1_555 1_555
Co1 O5 1_555 1_555

#END
