
#######################################################################
#
#                 Cambridge Crystallographic Data Centre
#                                CCDC 
#
#######################################################################
#
# If this CIF has been generated from an entry in the Cambridge 
# Structural Database, then it will include bibliographic, chemical, 
# crystal, experimental, refinement or atomic coordinate data resulting 
# from the CCDC's data processing and validation procedures.
#
#######################################################################

data_SUSVAE
_symmetry_cell_setting           monoclinic
_symmetry_space_group_name_H-M   'P 21/n'
_symmetry_Int_Tables_number      14
_space_group_name_Hall           '-P 2yn'
loop_
_symmetry_equiv_pos_site_id
_symmetry_equiv_pos_as_xyz
1 x,y,z
2 1/2-x,1/2+y,1/2-z
3 -x,-y,-z
4 1/2+x,1/2-y,1/2+z
_cell_length_a                   14.508(3)
_cell_length_b                   10.959(2)
_cell_length_c                   14.882(3)
_cell_angle_alpha                90
_cell_angle_beta                 98.751(3)
_cell_angle_gamma                90
_cell_volume                     2338.59
loop_
_atom_site_label
_atom_site_type_symbol
_atom_site_fract_x
_atom_site_fract_y
_atom_site_fract_z
Co1 Co 1.13427(3) 0.15450(4) 1.06770(3)
N1 N 0.7853(2) 0.4744(3) 0.9669(2)
N2 N 1.0455(2) 0.1476(3) 1.17315(19)
N3 N 0.7300(2) 0.2965(3) 1.4761(2)
O1 O 1.00750(16) 0.1684(2) 0.96716(16)
O2 O 1.06564(17) 0.3311(2) 1.04041(17)
O3 O 0.74214(16) 0.3483(2) 0.67554(15)
O4 O 0.7902(2) 0.5416(3) 0.67887(18)
O5 O 1.14917(18) -0.0296(2) 1.04472(17)
H1 H 1.1039 -0.0774 1.0489
H2 H 1.1948 -0.0478 1.0854
C1 C 0.8627(3) 0.4138(3) 1.0010(2)
C2 C 0.9172(2) 0.3535(3) 0.9456(2)
C3 C 0.8924(2) 0.3606(3) 0.8508(2)
C4 C 0.8140(3) 0.4284(3) 0.8163(2)
C5 C 0.7610(3) 0.4823(3) 0.8765(3)
C6 C 0.8859(3) 0.4146(4) 1.1029(2)
H3 H 0.8397 0.4609 1.1280
H4 H 0.9461 0.4511 1.1206
H5 H 0.8867 0.3324 1.1253
C7 C 1.0022(3) 0.2823(3) 0.9870(2)
C8 C 0.7802(2) 0.4402(4) 0.7154(3)
C9 C 0.6734(3) 0.5524(4) 0.8440(3)
H6 H 0.6475 0.5823 0.8954
H7 H 0.6292 0.4998 0.8084
H8 H 0.6877 0.6200 0.8074
C10 C 0.9517(3) 0.3064(3) 0.7889(2)
H9 H 0.9659 0.2237 0.7948
C11 C 0.9854(3) 0.3689(4) 0.7258(3)
H10 H 0.9685 0.4507 0.7213
C12 C 1.0460(3) 0.3273(4) 0.6616(3)
C13 C 1.0654(3) 0.2054(4) 0.6486(3)
H11 H 1.0394 0.1458 0.6815
C14 C 1.1235(3) 0.1715(4) 0.5867(3)
H12 H 1.1364 0.0894 0.5789
C15 C 1.1617(3) 0.2575(5) 0.5372(3)
H13 H 1.2001 0.2343 0.4955
C16 C 1.1429(4) 0.3781(5) 0.5494(4)
H14 H 1.1689 0.4372 0.5161
C17 C 1.0855(3) 0.4129(4) 0.6110(3)
H15 H 1.0732 0.4953 0.6185
C18 C 0.9643(3) 0.0877(4) 1.1686(2)
H16 H 0.9493 0.0301 1.1228
C19 C 0.9019(3) 0.1071(4) 1.2282(3)
H17 H 0.8461 0.0639 1.2220
C20 C 0.9229(3) 0.1920(3) 1.2979(2)
C21 C 1.0082(3) 0.2510(4) 1.3047(2)
H18 H 1.0259 0.3065 1.3515
C22 C 1.0667(3) 0.2274(3) 1.2420(2)
H19 H 1.1234 0.2684 1.2475
C23 C 0.8222(3) 0.2960(4) 1.5036(3)
H20 H 0.8444 0.3209 1.5626
C24 C 0.8859(3) 0.2606(4) 1.4490(2)
H21 H 0.9493 0.2613 1.4717
C25 C 0.8561(3) 0.2240(4) 1.3606(3)
C26 C 0.7613(3) 0.2245(4) 1.3319(3)
H22 H 0.7374 0.2012 1.2729
C27 C 0.7015(3) 0.2598(4) 1.3913(3)
H23 H 0.6378 0.2578 1.3707
Co1C Co 0.63427(3) 0.34550(4) 0.56770(3)
Co1C_2 Co 0.63427(3) 0.34550(4) 1.56770(3)
N3C N 1.2300(2) 0.2035(3) 0.9761(2)
O3C O 1.24214(16) 0.1517(2) 1.17554(15)
loop_
_geom_bond_atom_site_label_1
_geom_bond_atom_site_label_2
_geom_bond_site_symmetry_1
_geom_bond_site_symmetry_2
Co1 N2 1_555 1_555
N1 C1 1_555 1_555
N2 C18 1_555 1_555
N3 C23 1_555 1_555
O1 Co1 1_555 1_555
O2 Co1 1_555 1_555
O3 C8 1_555 1_555
O4 C8 1_555 1_555
O5 Co1 1_555 1_555
H1 O5 1_555 1_555
H2 O5 1_555 1_555
C1 C2 1_555 1_555
C2 C3 1_555 1_555
C3 C4 1_555 1_555
C4 C5 1_555 1_555
C5 N1 1_555 1_555
C6 C1 1_555 1_555
H3 C6 1_555 1_555
H4 C6 1_555 1_555
H5 C6 1_555 1_555
C7 O1 1_555 1_555
C8 C4 1_555 1_555
C9 C5 1_555 1_555
H6 C9 1_555 1_555
H7 C9 1_555 1_555
H8 C9 1_555 1_555
C10 C3 1_555 1_555
H9 C10 1_555 1_555
C11 C10 1_555 1_555
H10 C11 1_555 1_555
C12 C11 1_555 1_555
C13 C12 1_555 1_555
H11 C13 1_555 1_555
C14 C13 1_555 1_555
H12 C14 1_555 1_555
C15 C14 1_555 1_555
H13 C15 1_555 1_555
C16 C15 1_555 1_555
H14 C16 1_555 1_555
C17 C12 1_555 1_555
H15 C17 1_555 1_555
C18 H16 1_555 1_555
C19 C18 1_555 1_555
H17 C19 1_555 1_555
C20 C19 1_555 1_555
C21 C20 1_555 1_555
H18 C21 1_555 1_555
C22 N2 1_555 1_555
H19 C22 1_555 1_555
C23 H20 1_555 1_555
C24 C23 1_555 1_555
H21 C24 1_555 1_555
C25 C20 1_555 1_555
C26 C25 1_555 1_555
H22 C26 1_555 1_555
C27 N3 1_555 1_555
H23 C27 1_555 1_555
Co1C O3 1_555 1_555
Co1C_2 N3 1_555 1_555
N3C Co1 1_555 1_555
O3C Co1 1_555 1_555
O2 C7 1_555 1_555
C2 C7 1_555 1_555
C16 C17 1_555 1_555
C21 C22 1_555 1_555
C24 C25 1_555 1_555
C26 C27 1_555 1_555

#END
