
#######################################################################
#
#                 Cambridge Crystallographic Data Centre
#                                CCDC 
#
#######################################################################
#
# If this CIF has been generated from an entry in the Cambridge 
# Structural Database, then it will include bibliographic, chemical, 
# crystal, experimental, refinement or atomic coordinate data resulting 
# from the CCDC's data processing and validation procedures.
#
#######################################################################

data_SUSVEI
_symmetry_cell_setting           monoclinic
_symmetry_space_group_name_H-M   'P 21/n'
_symmetry_Int_Tables_number      14
_space_group_name_Hall           '-P 2yn'
loop_
_symmetry_equiv_pos_site_id
_symmetry_equiv_pos_as_xyz
1 x,y,z
2 1/2-x,1/2+y,1/2-z
3 -x,-y,-z
4 1/2+x,1/2-y,1/2+z
_cell_length_a                   14.551(4)
_cell_length_b                   10.941(3)
_cell_length_c                   14.945(4)
_cell_angle_alpha                90
_cell_angle_beta                 98.817(4)
_cell_angle_gamma                90
_cell_volume                     2351.17
loop_
_atom_site_label
_atom_site_type_symbol
_atom_site_fract_x
_atom_site_fract_y
_atom_site_fract_z
Zn1 Zn 0.138989(19) 0.15495(3) 1.068114(18)
N1 N -0.21391(14) 0.4729(2) 0.96628(14)
N2 N 0.04798(15) 0.1490(2) 1.17378(14)
N3 N -0.26651(14) 0.2941(2) 1.47647(14)
O1 O 0.06573(12) 0.32821(17) 1.03861(12)
O2 O 0.00693(12) 0.16624(16) 0.96504(12)
O3 O -0.25513(12) 0.34475(16) 0.67604(11)
O4 O -0.21078(14) 0.54002(19) 0.67894(13)
O5 O 0.14877(12) -0.02883(17) 1.04421(12)
H1 H 0.1904 -0.0549 1.0860
H2 H 0.1004 -0.0718 1.0460
C1 C -0.13614(17) 0.4123(2) 0.99970(17)
C2 C -0.08203(17) 0.3513(2) 0.94486(16)
C3 C -0.10656(17) 0.3592(2) 0.85029(17)
C4 C -0.18553(17) 0.4272(2) 0.81599(17)
C5 C -0.23781(17) 0.4807(2) 0.87614(17)
C6 C -0.1130(2) 0.4138(3) 1.10153(18)
H3 H -0.1592 0.4601 1.1263
H4 H -0.0530 0.4507 1.1191
H5 H -0.1120 0.3316 1.1241
C7 C 0.00203(17) 0.2783(2) 0.98511(16)
C8 C -0.21840(17) 0.4397(2) 0.71533(17)
C9 C -0.32605(19) 0.5504(3) 0.8440(2)
H6 H -0.3642 0.5516 0.8911
H7 H -0.3593 0.5113 0.7912
H8 H -0.3110 0.6326 0.8293
C10 C -0.04764(17) 0.3041(3) 0.78834(17)
H9 H -0.0341 0.2211 0.7935
C11 C -0.01352(19) 0.3684(3) 0.72603(18)
H10 H -0.0302 0.4505 0.7221
C12 C 0.04732(18) 0.3266(3) 0.66225(19)
C13 C 0.0665(2) 0.2045(3) 0.6485(2)
H11 H 0.0400 0.1445 0.6805
C14 C 0.1244(2) 0.1710(3) 0.5879(2)
H12 H 0.1378 0.0888 0.5804
C15 C 0.1626(2) 0.2582(4) 0.5382(3)
H13 H 0.2009 0.2352 0.4967
C16 C 0.1440(3) 0.3779(4) 0.5504(3)
H14 H 0.1694 0.4373 0.5170
C17 C 0.0871(2) 0.4119(3) 0.6123(2)
H15 H 0.0755 0.4945 0.6204
C18 C -0.03304(18) 0.0890(3) 1.16907(17)
H16 H -0.0479 0.0315 1.1234
C19 C -0.09540(19) 0.1081(3) 1.22826(18)
H17 H -0.1509 0.0646 1.2217
C20 C -0.07488(18) 0.1932(2) 1.29811(17)
C21 C 0.01026(18) 0.2531(3) 1.30424(17)
H18 H 0.0278 0.3089 1.3506
C22 C 0.06851(18) 0.2300(3) 1.24215(17)
H19 H 0.1246 0.2720 1.2474
C23 C -0.17503(18) 0.2940(3) 1.50357(18)
H20 H -0.1529 0.3182 1.5626
C24 C -0.11149(19) 0.2600(3) 1.44892(18)
H21 H -0.0483 0.2610 1.4715
C25 C -0.14146(18) 0.2240(2) 1.36016(17)
C26 C -0.23687(19) 0.2231(3) 1.33257(19)
H22 H -0.2610 0.1983 1.2742
C27 C -0.2958(2) 0.2587(3) 1.3911(2)
H23 H -0.3594 0.2582 1.3704
Zn1C Zn -0.361011(19) 0.34505(3) 0.568114(18)
Zn1C_2 Zn -0.361011(19) 0.34505(3) 1.568114(18)
N3C N 0.23349(14) 0.2059(2) 0.97647(14)
O3C O 0.24487(12) 0.15525(16) 1.17604(11)
loop_
_geom_bond_atom_site_label_1
_geom_bond_atom_site_label_2
_geom_bond_site_symmetry_1
_geom_bond_site_symmetry_2
Zn1 N2 1_555 1_555
N1 C1 1_555 1_555
N2 C18 1_555 1_555
N3 C23 1_555 1_555
O1 Zn1 1_555 1_555
O2 Zn1 1_555 1_555
O3 C8 1_555 1_555
O4 C8 1_555 1_555
O5 Zn1 1_555 1_555
H1 O5 1_555 1_555
H2 O5 1_555 1_555
C1 C2 1_555 1_555
C2 C3 1_555 1_555
C3 C4 1_555 1_555
C4 C5 1_555 1_555
C5 N1 1_555 1_555
C6 C1 1_555 1_555
H3 C6 1_555 1_555
H4 C6 1_555 1_555
H5 C6 1_555 1_555
C7 O1 1_555 1_555
C8 C4 1_555 1_555
C9 C5 1_555 1_555
H6 C9 1_555 1_555
H7 C9 1_555 1_555
H8 C9 1_555 1_555
C10 C3 1_555 1_555
H9 C10 1_555 1_555
C11 C10 1_555 1_555
H10 C11 1_555 1_555
C12 C11 1_555 1_555
C13 C12 1_555 1_555
H11 C13 1_555 1_555
C14 C13 1_555 1_555
H12 C14 1_555 1_555
C15 C14 1_555 1_555
H13 C15 1_555 1_555
C16 C15 1_555 1_555
H14 C16 1_555 1_555
C17 C12 1_555 1_555
H15 C17 1_555 1_555
C18 H16 1_555 1_555
C19 C18 1_555 1_555
H17 C19 1_555 1_555
C20 C19 1_555 1_555
C21 C20 1_555 1_555
H18 C21 1_555 1_555
C22 N2 1_555 1_555
H19 C22 1_555 1_555
C23 H20 1_555 1_555
C24 C23 1_555 1_555
H21 C24 1_555 1_555
C25 C20 1_555 1_555
C26 C25 1_555 1_555
H22 C26 1_555 1_555
C27 N3 1_555 1_555
H23 C27 1_555 1_555
Zn1C O3 1_555 1_555
Zn1C_2 N3 1_555 1_555
N3C Zn1 1_555 1_555
O3C Zn1 1_555 1_555
O2 C7 1_555 1_555
C2 C7 1_555 1_555
C16 C17 1_555 1_555
C21 C22 1_555 1_555
C24 C25 1_555 1_555
C26 C27 1_555 1_555

#END
