
#######################################################################
#
#                 Cambridge Crystallographic Data Centre
#                                CCDC 
#
#######################################################################
#
# If this CIF has been generated from an entry in the Cambridge 
# Structural Database, then it will include bibliographic, chemical, 
# crystal, experimental, refinement or atomic coordinate data resulting 
# from the CCDC's data processing and validation procedures.
#
#######################################################################

data_SUSWEJ01
_symmetry_cell_setting           monoclinic
_symmetry_space_group_name_H-M   'P 21/c'
_symmetry_Int_Tables_number      14
_space_group_name_Hall           '-P 2ybc'
loop_
_symmetry_equiv_pos_site_id
_symmetry_equiv_pos_as_xyz
1 x,y,z
2 -x,1/2+y,1/2-z
3 -x,-y,-z
4 x,1/2-y,1/2+z
_cell_length_a                   7.617(4)
_cell_length_b                   7.584(4)
_cell_length_c                   12.315(7)
_cell_angle_alpha                90
_cell_angle_beta                 105.592(10)
_cell_angle_gamma                90
_cell_volume                     685.225
loop_
_atom_site_label
_atom_site_type_symbol
_atom_site_fract_x
_atom_site_fract_y
_atom_site_fract_z
Pb1 Pb 0.50306(3) 0.14373(3) 0.328901(17)
O1 O 0.7192(7) 0.3670(5) 0.3266(4)
C1 C 0.8783(8) 0.7178(8) 0.5219(5)
H1 H 0.8405 0.6823 0.5896
H2 H 0.9918 0.7875 0.5476
O2 O 0.6728(6) 0.3791(6) 0.4954(4)
C2 C 0.9188(7) 0.5524(7) 0.4628(5)
H3 H 0.9524 0.5900 0.3931
O3 O 0.6051(5) 0.7691(6) 0.3730(4)
C3 C 0.7558(7) 0.4273(8) 0.4273(5)
O4 O 0.7432(7) 0.9983(6) 0.4725(4)
C4 C 0.7312(9) 0.8343(7) 0.4491(5)
O6 O 0.6818(6) 0.0147(6) 0.2115(4)
H5 H 0.669(13) 0.050(15) 0.144(3)
H7 H 0.794(4) 0.000(16) 0.244(7)
Pb1B Pb 1.49694(3) -0.14373(3) 0.671099(17)
Pb1_2 Pb 0.50306(3) 1.14373(3) 0.328901(17)
Pb1A Pb 0.49694(3) 0.64373(3) 0.171099(17)
Pb1B_2 Pb 1.49694(3) 0.85627(3) 0.671099(17)
Pb1C Pb 1.50306(3) 0.35627(3) 0.828901(17)
O1B O 1.2808(7) 0.6330(5) 0.6734(4)
O1B_2 O 1.2808(7) -0.3670(5) 0.6734(4)
C1B C 1.1217(8) 0.2822(8) 0.4781(5)
H1B H 1.1595 0.3177 0.4104
H2B H 1.0082 0.2125 0.4524
O2B O 1.3272(6) 0.6209(6) 0.5046(4)
O2B_2 O 1.3272(6) -0.3791(6) 0.5046(4)
C2B C 1.0812(7) 0.4476(7) 0.5372(5)
H3B H 1.0476 0.4100 0.6069
O3B O 1.3949(5) 0.2309(6) 0.6270(4)
O3A O 0.3949(5) 0.2691(6) 0.1270(4)
O3C O 1.6051(5) -0.2691(6) 0.8730(4)
C3B C 1.2442(7) 0.5727(8) 0.5727(5)
O4B O 1.2568(7) 0.0017(6) 0.5275(4)
O4_2 O 0.7432(7) -0.0017(6) 0.4725(4)
C4B C 1.2688(9) 0.1657(7) 0.5509(5)
O6B O 1.3182(6) -0.0147(6) 0.7885(4)
H5B H 1.331(13) -0.050(15) 0.856(3)
H7B H 1.206(4) 0.000(16) 0.756(7)
O5 O 1.0331(7) -0.0922(9) 0.3112(5)
H4 H 1.099(10) -0.122(9) 0.268(6)
H6 H 1.063(18) 0.011(9) 0.336(12)
loop_
_geom_bond_atom_site_label_1
_geom_bond_atom_site_label_2
_geom_bond_site_symmetry_1
_geom_bond_site_symmetry_2
Pb1 O1 1_555 1_555
O1 C3 1_555 1_555
C1 H1 1_555 1_555
H2 C1 1_555 1_555
O2 Pb1 1_555 1_555
C2 C1 1_555 1_555
H3 C2 1_555 1_555
O3 C4 1_555 1_555
C3 O2 1_555 1_555
O4 C4 1_555 1_555
C4 C1 1_555 1_555
O5 H4 1_555 1_555
O6 Pb1 1_555 1_555
H5 O6 1_555 1_555
H6 O5 1_555 1_555
H7 O6 1_555 1_555
Pb1B O1B_2 1_555 1_555
Pb1_2 O4 1_555 1_555
Pb1A O3 1_555 1_555
Pb1B_2 O1B 1_555 1_555
Pb1C O3B 1_555 1_555
O1B C3B 1_555 1_555
C1B H1B 1_555 1_555
H2B C1B 1_555 1_555
O2B Pb1B_2 1_555 1_555
O2B_2 Pb1B 1_555 1_555
C2B C2 1_555 1_555
H3B C2B 1_555 1_555
O3B C4B 1_555 1_555
O3A Pb1 1_555 1_555
O3C Pb1B 1_555 1_555
C3B O2B 1_555 1_555
O4B Pb1B 1_555 1_555
O4_2 Pb1 1_555 1_555
C4B C1B 1_555 1_555
O6B Pb1B 1_555 1_555
H5B O6B 1_555 1_555
H7B O6B 1_555 1_555
C2 C3 1_555 1_555
C1B C2B 1_555 1_555
C2B C3B 1_555 1_555
O4B C4B 1_555 1_555

#END
