
#######################################################################
#
#                 Cambridge Crystallographic Data Centre
#                                CCDC 
#
#######################################################################
#
# If this CIF has been generated from an entry in the Cambridge 
# Structural Database, then it will include bibliographic, chemical, 
# crystal, experimental, refinement or atomic coordinate data resulting 
# from the CCDC's data processing and validation procedures.
#
#######################################################################

data_SUSWAF
_symmetry_cell_setting           triclinic
_symmetry_space_group_name_H-M   'P -1'
_symmetry_Int_Tables_number      2
_space_group_name_Hall           '-P 1'
loop_
_symmetry_equiv_pos_site_id
_symmetry_equiv_pos_as_xyz
1 x,y,z
2 -x,-y,-z
_cell_length_a                   8.7032(10)
_cell_length_b                   11.4882(13)
_cell_length_c                   16.872(2)
_cell_angle_alpha                107.1460(10)
_cell_angle_beta                 99.0550(10)
_cell_angle_gamma                90.851(2)
_cell_volume                     1588.51
loop_
_atom_site_label
_atom_site_type_symbol
_atom_site_fract_x
_atom_site_fract_y
_atom_site_fract_z
Zn1 Zn -0.42158(3) 0.62746(2) 0.714330(15)
N1 N -0.4308(2) 0.75810(16) 0.82550(10)
N2 N -0.6404(2) 0.58926(16) 0.64028(11)
O1 O -0.3477(2) 0.45181(17) 0.67091(13)
O2 O -0.4653(2) 0.47956(15) 0.77820(11)
O3 O -0.4491(3) 0.3127(2) 0.90037(11)
O4 O -0.3402(2) 0.71643(16) 0.64529(10)
O5 O -0.1127(2) 0.73054(17) 0.72806(12)
O6 O 0.2469(2) 0.8464(2) 0.73014(18)
C1 C -0.4141(3) 0.4102(2) 0.71877(16)
C2 C -0.4379(3) 0.2752(2) 0.70161(14)
C3 C -0.3912(3) 0.1966(2) 0.63096(16)
H1 H -0.3435 0.2286 0.5956
C4 C -0.4146(4) 0.0722(3) 0.61255(19)
H2 H -0.3813 0.0204 0.5656
C5 C -0.4868(4) 0.0254(2) 0.6634(2)
H3 H -0.5039 -0.0587 0.6506
C6 C -0.5349(3) 0.1014(2) 0.73411(19)
H4 H -0.5851 0.0681 0.7679
C7 C -0.5087(3) 0.2277(2) 0.75495(14)
C8 C -0.5454(3) 0.3046(2) 0.83811(15)
C9 C -0.6977(3) 0.3601(2) 0.84361(17)
C10 C -0.7182(5) 0.4440(4) 0.9181(2)
H5 H -0.6391 0.4628 0.9647
C11 C -0.8570(7) 0.4996(4) 0.9229(4)
H6 H -0.8697 0.5577 0.9727
C12 C -0.9762(6) 0.4711(5) 0.8560(4)
H7 H -1.0694 0.5090 0.8605
C13 C -0.9584(4) 0.3878(4) 0.7832(3)
H8 H -1.0394 0.3679 0.7375
C14 C -0.8186(4) 0.3319(3) 0.7769(2)
H9 H -0.8068 0.2745 0.7266
C15 C -0.1934(3) 0.74381(19) 0.66553(15)
C16 C -0.1212(3) 0.7923(2) 0.60604(16)
C17 C -0.1992(4) 0.7731(2) 0.52481(17)
H10 H -0.3007 0.7381 0.5099
C18 C -0.1294(5) 0.8046(3) 0.4657(2)
H11 H -0.1843 0.7919 0.4116
C19 C 0.0193(6) 0.8543(4) 0.4863(3)
H12 H 0.0673 0.8730 0.4456
C20 C 0.0992(4) 0.8770(3) 0.5668(3)
H13 H 0.2008 0.9117 0.5802
C21 C 0.0300(3) 0.8488(2) 0.6287(2)
C22 C 0.1184(3) 0.8836(2) 0.7162(2)
C23 C 0.0567(3) 0.9764(3) 0.7840(2)
C24 C 0.1220(5) 0.9956(4) 0.8672(3)
H14 H 0.2009 0.9474 0.8805
C25 C 0.0732(6) 1.0842(5) 0.9305(3)
H15 H 0.1183 1.0947 0.9861
C26 C -0.0414(4) 1.1574(4) 0.9126(3)
H16 H -0.0730 1.2189 0.9555
C27 C -0.1082(4) 1.1386(3) 0.8312(2)
H17 H -0.1876 1.1866 0.8184
C28 C -0.0597(3) 1.0492(2) 0.7675(2)
H18 H -0.1069 1.0379 0.7121
C29 C -0.5004(3) 0.7378(2) 0.88524(15)
H19 H -0.5316 0.6578 0.8803
C30 C -0.5287(3) 0.8290(2) 0.95400(15)
H20 H -0.5780 0.8100 0.9941
C31 C -0.4840(3) 0.94888(18) 0.96385(12)
C32 C -0.4094(3) 0.9688(2) 0.90232(15)
H21 H -0.3755 1.0478 0.9062
C33 C -0.3850(3) 0.8735(2) 0.83564(15)
H22 H -0.3339 0.8899 0.7953
C34 C -0.6548(3) 0.5860(2) 0.55960(14)
H23 H -0.5673 0.6078 0.5406
C35 C -0.7918(3) 0.5521(2) 0.50322(14)
H24 H -0.7951 0.5508 0.4476
C36 C -0.9254(2) 0.51981(18) 0.52932(12)
C37 C -0.9104(3) 0.5256(2) 0.61371(13)
H25 H -0.9965 0.5061 0.6349
C38 C -0.7692(3) 0.5598(2) 0.66573(14)
H26 H -0.7627 0.5626 0.7218
Zn1A Zn -0.57842(3) 1.37254(2) 1.285670(15)
Zn1A_2 Zn -1.57842(3) 0.37254(2) 0.285670(15)
N1A N -0.5692(2) 1.24190(16) 1.17450(10)
N2A N -1.3596(2) 0.41074(16) 0.35972(11)
N2A_2 N -0.3596(2) 1.41074(16) 1.35972(11)
O1A O -0.6523(2) 1.54819(17) 1.32909(13)
O2A O -0.5347(2) 1.52044(15) 1.22180(11)
O3A O -0.5509(3) 1.6873(2) 1.09963(11)
O4A O -0.6598(2) 1.28357(16) 1.35471(10)
O5A O -0.8873(2) 1.26946(17) 1.27194(12)
O6A O -1.2469(2) 1.1536(2) 1.26986(18)
C1A C -0.5859(3) 1.5898(2) 1.28123(16)
C2A C -0.5621(3) 1.7248(2) 1.29839(14)
C3A C -0.6088(3) 1.8034(2) 1.36904(16)
H1A H -0.6565 1.7714 1.4044
C4A C -0.5854(4) 1.9278(3) 1.38745(19)
H2A H -0.6187 1.9796 1.4344
C5A C -0.5132(4) 1.9746(2) 1.3366(2)
H3A H -0.4961 2.0587 1.3494
C6A C -0.4651(3) 1.8986(2) 1.26589(19)
H4A H -0.4149 1.9319 1.2321
C7A C -0.4913(3) 1.7723(2) 1.24505(14)
C8A C -0.4546(3) 1.6954(2) 1.16189(15)
C9A C -0.3023(3) 1.6399(2) 1.15639(17)
C10A C -0.2818(5) 1.5560(4) 1.0819(2)
H5A H -0.3609 1.5372 1.0353
C11A C -0.1430(7) 1.5004(4) 1.0771(4)
H6A H -0.1303 1.4423 1.0273
C12A C -0.0238(6) 1.5289(5) 1.1440(4)
H7A H 0.0694 1.4910 1.1395
C13A C -0.0416(4) 1.6122(4) 1.2168(3)
H8A H 0.0394 1.6321 1.2625
C14A C -0.1814(4) 1.6681(3) 1.2231(2)
H9A H -0.1932 1.7255 1.2734
C15A C -0.8066(3) 1.25619(19) 1.33447(15)
C16A C -0.8788(3) 1.2077(2) 1.39396(16)
C17A C -0.8008(4) 1.2269(2) 1.47519(17)
H10A H -0.6993 1.2619 1.4901
C18A C -0.8706(5) 1.1954(3) 1.5343(2)
H11A H -0.8157 1.2081 1.5884
C19A C -1.0193(6) 1.1457(4) 1.5137(3)
H12A H -1.0673 1.1270 1.5544
C20A C -1.0992(4) 1.1230(3) 1.4332(3)
H13A H -1.2008 1.0883 1.4198
C21A C -1.0300(3) 1.1512(2) 1.3713(2)
C22A C -1.1184(3) 1.1164(2) 1.2838(2)
C23A C -1.0567(3) 1.0236(3) 1.2160(2)
C24A C -1.1220(5) 1.0044(4) 1.1328(3)
H14A H -1.2009 1.0526 1.1195
C25A C -1.0732(6) 0.9158(5) 1.0695(3)
H15A H -1.1183 0.9053 1.0139
C26A C -0.9586(4) 0.8426(4) 1.0874(3)
H16A H -0.9270 0.7811 1.0445
C27A C -0.8918(4) 0.8614(3) 1.1688(2)
H17A H -0.8124 0.8134 1.1816
C28A C -0.9403(3) 0.9508(2) 1.2325(2)
H18A H -0.8931 0.9621 1.2879
C29A C -0.4996(3) 1.2622(2) 1.11476(15)
H19A H -0.4684 1.3422 1.1197
C30A C -0.4713(3) 1.1710(2) 1.04600(15)
H20A H -0.4220 1.1900 1.0059
C31A C -0.5160(3) 1.05112(18) 1.03615(12)
C32A C -0.5906(3) 1.0312(2) 1.09768(15)
H21A H -0.6245 0.9522 1.0938
C33A C -0.6150(3) 1.1265(2) 1.16436(15)
H22A H -0.6661 1.1101 1.2047
C34A C -1.3452(3) 0.4140(2) 0.44040(14)
H23A H -1.4327 0.3922 0.4594
C35A C -1.2082(3) 0.4479(2) 0.49678(14)
H24A H -1.2049 0.4492 0.5524
C36A C -1.0746(2) 0.48019(18) 0.47068(12)
C37A C -1.0896(3) 0.4744(2) 0.38629(13)
H25A H -1.0035 0.4939 0.3651
C38A C -1.2308(3) 0.4402(2) 0.33427(14)
H26A H -1.2373 0.4374 0.2782
loop_
_geom_bond_atom_site_label_1
_geom_bond_atom_site_label_2
_geom_bond_site_symmetry_1
_geom_bond_site_symmetry_2
Zn1 N1 1_555 1_555
N1 C29 1_555 1_555
N2 Zn1 1_555 1_555
O1 Zn1 1_555 1_555
O2 Zn1 1_555 1_555
O3 C8 1_555 1_555
O4 Zn1 1_555 1_555
O5 C15 1_555 1_555
O6 C22 1_555 1_555
C1 O1 1_555 1_555
C2 C1 1_555 1_555
C3 C2 1_555 1_555
H1 C3 1_555 1_555
C4 C3 1_555 1_555
H2 C4 1_555 1_555
C5 C4 1_555 1_555
H3 C5 1_555 1_555
C6 C5 1_555 1_555
H4 C6 1_555 1_555
C7 C2 1_555 1_555
C8 C7 1_555 1_555
C9 C8 1_555 1_555
C10 C9 1_555 1_555
H5 C10 1_555 1_555
C11 C10 1_555 1_555
H6 C11 1_555 1_555
C12 C11 1_555 1_555
H7 C12 1_555 1_555
C13 C12 1_555 1_555
H8 C13 1_555 1_555
C14 C9 1_555 1_555
H9 C14 1_555 1_555
C15 O4 1_555 1_555
C16 C15 1_555 1_555
C17 C16 1_555 1_555
H10 C17 1_555 1_555
C18 C17 1_555 1_555
H11 C18 1_555 1_555
C19 C18 1_555 1_555
H12 C19 1_555 1_555
C20 C19 1_555 1_555
H13 C20 1_555 1_555
C21 C16 1_555 1_555
C22 C21 1_555 1_555
C23 C22 1_555 1_555
C24 C23 1_555 1_555
H14 C24 1_555 1_555
C25 C24 1_555 1_555
H15 C25 1_555 1_555
C26 C25 1_555 1_555
H16 C26 1_555 1_555
C27 C26 1_555 1_555
H17 C27 1_555 1_555
C28 C23 1_555 1_555
H18 C28 1_555 1_555
C29 H19 1_555 1_555
C30 C29 1_555 1_555
H20 C30 1_555 1_555
C31 C30 1_555 1_555
C32 C31 1_555 1_555
H21 C32 1_555 1_555
C33 N1 1_555 1_555
H22 C33 1_555 1_555
C34 N2 1_555 1_555
H23 C34 1_555 1_555
C35 C34 1_555 1_555
H24 C35 1_555 1_555
C36 C35 1_555 1_555
C37 C36 1_555 1_555
H25 C37 1_555 1_555
C38 N2 1_555 1_555
H26 C38 1_555 1_555
Zn1A N1A 1_555 1_555
Zn1A_2 N2A 1_555 1_555
N1A C29A 1_555 1_555
N2A C34A 1_555 1_555
N2A_2 Zn1A 1_555 1_555
O1A Zn1A 1_555 1_555
O2A Zn1A 1_555 1_555
O3A C8A 1_555 1_555
O4A Zn1A 1_555 1_555
O5A C15A 1_555 1_555
O6A C22A 1_555 1_555
C1A O1A 1_555 1_555
C2A C1A 1_555 1_555
C3A C2A 1_555 1_555
H1A C3A 1_555 1_555
C4A C3A 1_555 1_555
H2A C4A 1_555 1_555
C5A C4A 1_555 1_555
H3A C5A 1_555 1_555
C6A C5A 1_555 1_555
H4A C6A 1_555 1_555
C7A C2A 1_555 1_555
C8A C7A 1_555 1_555
C9A C8A 1_555 1_555
C10A C9A 1_555 1_555
H5A C10A 1_555 1_555
C11A C10A 1_555 1_555
H6A C11A 1_555 1_555
C12A C11A 1_555 1_555
H7A C12A 1_555 1_555
C13A C12A 1_555 1_555
H8A C13A 1_555 1_555
C14A C9A 1_555 1_555
H9A C14A 1_555 1_555
C15A O4A 1_555 1_555
C16A C15A 1_555 1_555
C17A C16A 1_555 1_555
H10A C17A 1_555 1_555
C18A C17A 1_555 1_555
H11A C18A 1_555 1_555
C19A C18A 1_555 1_555
H12A C19A 1_555 1_555
C20A C19A 1_555 1_555
H13A C20A 1_555 1_555
C21A C16A 1_555 1_555
C22A C21A 1_555 1_555
C23A C22A 1_555 1_555
C24A C23A 1_555 1_555
H14A C24A 1_555 1_555
C25A C24A 1_555 1_555
H15A C25A 1_555 1_555
C26A C25A 1_555 1_555
H16A C26A 1_555 1_555
C27A C26A 1_555 1_555
H17A C27A 1_555 1_555
C28A C23A 1_555 1_555
H18A C28A 1_555 1_555
C29A H19A 1_555 1_555
C30A C29A 1_555 1_555
H20A C30A 1_555 1_555
C31A C31 1_555 1_555
C32A C31A 1_555 1_555
H21A C32A 1_555 1_555
C33A N1A 1_555 1_555
H22A C33A 1_555 1_555
C34A H23A 1_555 1_555
C35A C34A 1_555 1_555
H24A C35A 1_555 1_555
C36A C36 1_555 1_555
C37A C36A 1_555 1_555
H25A C37A 1_555 1_555
C38A N2A 1_555 1_555
H26A C38A 1_555 1_555
O2 C1 1_555 1_555
C6 C7 1_555 1_555
C13 C14 1_555 1_555
C20 C21 1_555 1_555
C27 C28 1_555 1_555
C32 C33 1_555 1_555
C37 C38 1_555 1_555
O2A C1A 1_555 1_555
C6A C7A 1_555 1_555
C13A C14A 1_555 1_555
C20A C21A 1_555 1_555
C27A C28A 1_555 1_555
C30A C31A 1_555 1_555
C32A C33A 1_555 1_555
C35A C36A 1_555 1_555
C37A C38A 1_555 1_555

#END
