
#######################################################################
#
#                 Cambridge Crystallographic Data Centre
#                                CCDC 
#
#######################################################################
#
# If this CIF has been generated from an entry in the Cambridge 
# Structural Database, then it will include bibliographic, chemical, 
# crystal, experimental, refinement or atomic coordinate data resulting 
# from the CCDC's data processing and validation procedures.
#
#######################################################################

data_SUSYAH
_symmetry_cell_setting           triclinic
_symmetry_space_group_name_H-M   'P -1'
_symmetry_Int_Tables_number      2
_space_group_name_Hall           '-P 1'
loop_
_symmetry_equiv_pos_site_id
_symmetry_equiv_pos_as_xyz
1 x,y,z
2 -x,-y,-z
_cell_length_a                   8.1174(17)
_cell_length_b                   9.2860(19)
_cell_length_c                   10.297(2)
_cell_angle_alpha                71.589(2)
_cell_angle_beta                 75.392(2)
_cell_angle_gamma                71.286(2)
_cell_volume                     687.607
loop_
_atom_site_label
_atom_site_type_symbol
_atom_site_fract_x
_atom_site_fract_y
_atom_site_fract_z
Ag1 Ag 0.31006(2) 0.039720(19) 0.931175(15)
N1 N 0.4867(2) 0.0355(2) 0.73636(17)
N2 N 1.1098(2) 0.0350(2) 0.11286(18)
C1 C 0.6189(3) -0.0923(3) 0.7217(2)
H1 H 0.6283 -0.1815 0.7960
C2 C 0.9750(3) -0.1058(3) 0.3298(2)
H2 H 0.9703 -0.2022 0.3926
C3 C 0.7310(3) 0.0335(2) 0.4893(2)
C4 C 0.9976(3) 0.1688(3) 0.1391(2)
H3 H 1.0038 0.2634 0.0738
C5 C 0.4767(3) 0.1625(3) 0.6282(2)
H4 H 0.3863 0.2525 0.6364
C6 C 0.8739(3) 0.1722(3) 0.2584(2)
H5 H 0.7993 0.2677 0.2722
C7 C 0.8602(3) 0.0328(2) 0.3584(2)
C8 C 0.7415(3) -0.0982(3) 0.6020(2)
H6 H 0.8309 -0.1897 0.5967
C9 C 0.5945(3) 0.1660(3) 0.5048(2)
H7 H 0.5824 0.2569 0.4324
C10 C 1.0960(3) -0.0995(3) 0.2080(2)
H8 H 1.1716 -0.1934 0.1913
S1 S 0.61437(7) -0.40118(6) 1.10959(5)
O1 O 0.5090(2) -0.24123(18) 1.06156(16)
O2 O 0.8014(2) -0.4118(2) 1.09034(16)
O3 O 0.5469(2) -0.47897(19) 1.24991(15)
C11 C 0.5958(3) -0.5074(2) 1.0002(2)
H9 H 0.6525 -0.4679 0.9064
H10 H 0.6563 -0.6175 1.0320
Ag1_2 Ag -0.68994(2) 0.039720(19) 1.931175(15)
Ag1_3 Ag 1.31006(2) 0.039720(19) -0.068825(15)
Ag1A Ag 0.68994(2) -0.039720(19) 1.068825(15)
Ag1A_2 Ag 0.68994(2) -1.039720(19) 1.068825(15)
Ag1_4 Ag 0.31006(2) -0.960280(19) 0.931175(15)
N1_2 N -0.5133(2) 0.0355(2) 1.73636(17)
N2_2 N 0.1098(2) 0.0350(2) 1.11286(18)
N2_3 N -0.8902(2) 0.0350(2) 2.11286(18)
C1_2 C -0.3811(3) -0.0923(3) 1.7217(2)
H1_2 H -0.3717 -0.1815 1.7960
C2_2 C -0.0250(3) -0.1058(3) 1.3298(2)
H2_2 H -0.0297 -0.2022 1.3926
C3_2 C -0.2690(3) 0.0335(2) 1.4893(2)
C4_2 C -0.0024(3) 0.1688(3) 1.1391(2)
H3_2 H 0.0038 0.2634 1.0738
C5_2 C -0.5233(3) 0.1625(3) 1.6282(2)
H4_2 H -0.6137 0.2525 1.6364
C6_2 C -0.1261(3) 0.1722(3) 1.2584(2)
H5_2 H -0.2007 0.2677 1.2722
C7_2 C -0.1398(3) 0.0328(2) 1.3584(2)
C8_2 C -0.2585(3) -0.0982(3) 1.6020(2)
H6_2 H -0.1691 -0.1897 1.5967
C9_2 C -0.4055(3) 0.1660(3) 1.5048(2)
H7_2 H -0.4176 0.2569 1.4324
C10_2 C 0.0960(3) -0.0995(3) 1.2080(2)
H8_2 H 0.1716 -0.1934 1.1913
S1A S 0.38563(7) -0.59882(6) 0.89041(5)
O1A O 0.4910(2) -0.75877(18) 0.93844(16)
O1A_2 O 0.4910(2) 0.24123(18) 0.93844(16)
O1_2 O -0.4910(2) -0.24123(18) 2.06156(16)
O1A_3 O -0.5090(2) 0.24123(18) 1.93844(16)
O2A O 0.1986(2) -0.5882(2) 0.90966(16)
O3A O 0.4531(2) -0.52103(19) 0.75009(15)
C11A C 0.4042(3) -0.4926(2) 0.9998(2)
H9A H 0.3475 -0.5321 1.0936
H10A H 0.3437 -0.3825 0.9680
O4 O 0.0195(3) 0.5296(2) 0.6806(2)
H11 H 0.0985 0.4966 0.6355
H12 H 0.0786 0.4860 0.7546
O5 O 0.2286(2) 0.5102(2) 0.4306(2)
H13 H 0.1819 0.5064 0.3800
H14 H 0.3316 0.5379 0.3752
loop_
_geom_bond_atom_site_label_1
_geom_bond_atom_site_label_2
_geom_bond_site_symmetry_1
_geom_bond_site_symmetry_2
Ag1 N1 1_555 1_555
N1 C1 1_555 1_555
N2 C4 1_555 1_555
C1 H1 1_555 1_555
C2 H2 1_555 1_555
C3 C7 1_555 1_555
C4 H3 1_555 1_555
C5 N1 1_555 1_555
H4 C5 1_555 1_555
C6 C4 1_555 1_555
H5 C6 1_555 1_555
C7 C2 1_555 1_555
C8 C1 1_555 1_555
H6 C8 1_555 1_555
C9 C3 1_555 1_555
H7 C9 1_555 1_555
C10 N2 1_555 1_555
H8 C10 1_555 1_555
S1 O1 1_555 1_555
O1 Ag1 1_555 1_555
O2 S1 1_555 1_555
O3 S1 1_555 1_555
C11 S1 1_555 1_555
H9 C11 1_555 1_555
H10 C11 1_555 1_555
O4 H11 1_555 1_555
H12 O4 1_555 1_555
O5 H13 1_555 1_555
H14 O5 1_555 1_555
Ag1_2 N1_2 1_555 1_555
Ag1_3 N2 1_555 1_555
Ag1A O1 1_555 1_555
Ag1A_2 O1A 1_555 1_555
Ag1_4 O1A 1_555 1_555
N1_2 C1_2 1_555 1_555
N2_2 Ag1 1_555 1_555
N2_3 Ag1_2 1_555 1_555
C1_2 H1_2 1_555 1_555
C2_2 H2_2 1_555 1_555
C3_2 C7_2 1_555 1_555
C4_2 N2_2 1_555 1_555
H3_2 C4_2 1_555 1_555
C5_2 N1_2 1_555 1_555
H4_2 C5_2 1_555 1_555
C6_2 C4_2 1_555 1_555
H5_2 C6_2 1_555 1_555
C7_2 C2_2 1_555 1_555
C8_2 C1_2 1_555 1_555
H6_2 C8_2 1_555 1_555
C9_2 C3_2 1_555 1_555
H7_2 C9_2 1_555 1_555
C10_2 N2_2 1_555 1_555
H8_2 C10_2 1_555 1_555
S1A O1A 1_555 1_555
O1A_2 Ag1 1_555 1_555
O1_2 Ag1_2 1_555 1_555
O1A_3 Ag1_2 1_555 1_555
O2A S1A 1_555 1_555
O3A S1A 1_555 1_555
C11A C11 1_555 1_555
H9A C11A 1_555 1_555
H10A C11A 1_555 1_555
C2 C10 1_555 1_555
C3 C8 1_555 1_555
C5 C9 1_555 1_555
C6 C7 1_555 1_555
Ag1A O1A_2 1_555 1_555
C2_2 C10_2 1_555 1_555
C3_2 C8_2 1_555 1_555
C5_2 C9_2 1_555 1_555
C6_2 C7_2 1_555 1_555
S1A C11A 1_555 1_555

#END
