
#######################################################################
#
#                 Cambridge Crystallographic Data Centre
#                                CCDC 
#
#######################################################################
#
# If this CIF has been generated from an entry in the Cambridge 
# Structural Database, then it will include bibliographic, chemical, 
# crystal, experimental, refinement or atomic coordinate data resulting 
# from the CCDC's data processing and validation procedures.
#
#######################################################################

data_SUTJOI
_symmetry_cell_setting           triclinic
_symmetry_space_group_name_H-M   'P -1'
_symmetry_Int_Tables_number      2
_space_group_name_Hall           '-P 1'
loop_
_symmetry_equiv_pos_site_id
_symmetry_equiv_pos_as_xyz
1 x,y,z
2 -x,-y,-z
_cell_length_a                   9.1142(18)
_cell_length_b                   10.053(2)
_cell_length_c                   18.392(4)
_cell_angle_alpha                75.75(3)
_cell_angle_beta                 79.12(3)
_cell_angle_gamma                82.05(3)
_cell_volume                     1596.47
loop_
_atom_site_label
_atom_site_type_symbol
_atom_site_fract_x
_atom_site_fract_y
_atom_site_fract_z
Ni1 Ni 1.01742(3) 0.38645(2) 0.268725(14)
O1 O 1.04016(18) 0.18580(16) 0.24921(10)
O2 O 0.82177(19) 0.30583(15) 0.23870(10)
O3 O 0.9077(2) -0.42461(15) 0.27727(10)
O4 O 1.0572(3) -0.3209(2) 0.32033(17)
O5 O 0.5206(3) -0.0472(2) 0.18180(17)
N1 N 1.0824(2) 0.47475(19) 0.15409(11)
N2 N 1.0716(3) 0.6105(2) 0.04157(13)
N3 N 0.9431(2) 0.3019(2) 0.38435(11)
N4 N 0.8488(2) 0.1671(2) 0.49104(12)
N5 N 1.2331(2) 0.3682(2) 0.29187(11)
N6 N 1.4417(2) 0.4069(2) 0.32309(12)
C1 C 0.9040(3) 0.1948(2) 0.24119(13)
C2 C 0.8410(3) 0.0651(2) 0.23869(13)
C3 C 0.9185(3) -0.0607(2) 0.26398(13)
H1 H 1.0068 -0.0647 0.2832
C4 C 0.8642(3) -0.1825(2) 0.26073(13)
C5 C 0.7329(3) -0.1737(2) 0.23284(15)
H2 H 0.6966 -0.2543 0.2304
C6 C 0.6514(3) -0.0459(3) 0.20777(17)
C7 C 0.7075(3) 0.0747(3) 0.21074(16)
H3 H 0.6562 0.1604 0.1943
C8 C 0.4523(5) 0.0778(5) 0.1389(3)
H4 H 0.3501 0.0640 0.1368
H5 H 0.4476 0.1505 0.1658
C9 C 0.5282(7) 0.1225(7) 0.0632(3)
H6 H 0.6233 0.1523 0.0661
H7 H 0.4691 0.2028 0.0384
C10 C 0.5600(8) 0.0179(8) 0.0120(4)
H8 H 0.6300 0.0551 -0.0328
H9 H 0.6104 -0.0658 0.0391
C11 C 0.8649(3) 0.1963(3) 0.41438(14)
H10 H 0.8256 0.1478 0.3867
C12 C 0.9793(3) 0.3409(3) 0.44396(16)
H11 H 1.0351 0.4141 0.4395
C13 C 0.9232(3) 0.2591(3) 0.51038(16)
H12 H 0.9330 0.2641 0.5590
C14 C 0.7761(3) 0.0463(3) 0.54360(18)
H13 H 0.7534 0.0618 0.5947
H14 H 0.8458 -0.0360 0.5443
C15 C 0.6341(3) 0.0235(3) 0.52016(16)
C16 C 0.4962(4) 0.0914(3) 0.54415(19)
H15 H 0.4925 0.1547 0.5739
C17 C 0.6337(4) -0.0671(3) 0.47513(19)
H16 H 0.7240 -0.1130 0.4573
C18 C 1.3119(3) 0.4607(3) 0.30055(15)
H17 H 1.2803 0.5545 0.2918
C19 C 1.3182(3) 0.2448(3) 0.31023(15)
H18 H 1.2913 0.1592 0.3096
C20 C 1.4471(3) 0.2674(3) 0.32929(16)
H19 H 1.5246 0.2013 0.3438
C21 C 1.5507(3) 0.4798(3) 0.34247(16)
H20 H 1.5493 0.5725 0.3107
H21 H 1.6501 0.4335 0.3311
C22 C 1.5225(3) 0.4884(3) 0.42410(14)
C23 C 1.3892(3) 0.4544(4) 0.47412(16)
H22 H 1.3137 0.4227 0.4570
C24 C 1.6302(3) 0.5326(3) 0.45240(16)
H23 H 1.7199 0.5545 0.4206
C25 C 1.2214(4) 0.4657(3) 0.11064(17)
H24 H 1.3056 0.4108 0.1264
C26 C 0.9958(3) 0.5607(3) 0.11155(15)
H25 H 0.8947 0.5848 0.1273
C27 C 1.2167(4) 0.5494(3) 0.04128(17)
H26 H 1.2960 0.5633 0.0010
C28 C 1.0134(5) 0.7181(3) -0.01807(17)
H27 H 0.9126 0.7007 -0.0205
H28 H 1.0752 0.7122 -0.0665
C29 C 1.0091(4) 0.8637(3) -0.00691(14)
C30 C 1.0472(4) 0.8941(3) 0.05575(17)
H29 H 1.0782 0.8228 0.0942
C31 C 0.9601(4) 0.9714(3) -0.06229(16)
H30 H 0.9316 0.9530 -0.1045
C32 C 0.9502(3) -0.3196(2) 0.28726(15)
O1A O -0.04016(18) -0.18580(16) -0.24921(10)
O2A O 0.17823(19) -0.30583(15) -0.23870(10)
O3A O 0.0923(2) 0.42461(15) -0.27727(10)
O4A O -0.0572(3) 0.3209(2) -0.32033(17)
O5A O 0.4794(3) 0.0472(2) -0.18180(17)
C1A C 0.0960(3) -0.1948(2) -0.24119(13)
C2A C 0.1590(3) -0.0651(2) -0.23869(13)
C3A C 0.0815(3) 0.0607(2) -0.26398(13)
H1A H -0.0068 0.0647 -0.2832
C4A C 0.1358(3) 0.1825(2) -0.26073(13)
C5A C 0.2671(3) 0.1737(2) -0.23284(15)
H2A H 0.3034 0.2543 -0.2304
C6A C 0.3486(3) 0.0459(3) -0.20777(17)
C7A C 0.2925(3) -0.0747(3) -0.21074(16)
H3A H 0.3438 -0.1604 -0.1943
C8A C 0.5477(5) -0.0778(5) -0.1389(3)
H4A H 0.6499 -0.0640 -0.1368
H5A H 0.5524 -0.1505 -0.1658
C9A C 0.4718(7) -0.1225(7) -0.0632(3)
H6A H 0.3767 -0.1523 -0.0661
H7A H 0.5309 -0.2028 -0.0384
C10A C 0.4400(8) -0.0179(8) -0.0120(4)
H8A H 0.3700 -0.0551 0.0328
H9A H 0.3896 0.0658 -0.0391
C32A C 0.0498(3) 0.3196(2) -0.28726(15)
N1A N 0.9176(2) 1.52525(19) -0.15409(11)
N2A N 0.9284(3) 1.3895(2) -0.04157(13)
C25A C 0.7786(4) 1.5343(3) -0.11064(17)
H24A H 0.6944 1.5892 -0.1264
C26A C 1.0042(3) 1.4393(3) -0.11155(15)
H25A H 1.1053 1.4152 -0.1273
C27A C 0.7833(4) 1.4506(3) -0.04128(17)
H26A H 0.7040 1.4367 -0.0010
C28A C 0.9866(5) 1.2819(3) 0.01807(17)
H27A H 1.0874 1.2993 0.0205
H28A H 0.9248 1.2878 0.0665
C29A C 0.9909(4) 1.1363(3) 0.00691(14)
C30A C 0.9528(4) 1.1059(3) -0.05575(17)
H29A H 0.9218 1.1772 -0.0942
C31A C 1.0399(4) 1.0286(3) 0.06229(16)
H30A H 1.0684 1.0470 0.1045
N3A N 0.0569(2) -0.3019(2) 0.61565(11)
N4A N 0.1512(2) -0.1671(2) 0.50896(12)
C11A C 0.1351(3) -0.1963(3) 0.58562(14)
H10A H 0.1744 -0.1478 0.6133
C12A C 0.0207(3) -0.3409(3) 0.55604(16)
H11A H -0.0351 -0.4141 0.5605
C13A C 0.0768(3) -0.2591(3) 0.48962(16)
H12A H 0.0670 -0.2641 0.4410
C14A C 0.2239(3) -0.0463(3) 0.45640(18)
H13A H 0.2466 -0.0618 0.4053
H14A H 0.1542 0.0360 0.4557
C15A C 0.3659(3) -0.0235(3) 0.47984(16)
C16A C 0.5038(4) -0.0914(3) 0.45585(19)
H15A H 0.5075 -0.1547 0.4261
C17A C 0.3663(4) 0.0671(3) 0.52487(19)
H16A H 0.2760 0.1130 0.5427
N5A N 1.7669(2) 0.6318(2) 0.70813(11)
N6A N 1.5583(2) 0.5931(2) 0.67691(12)
C18A C 1.6881(3) 0.5393(3) 0.69945(15)
H17A H 1.7197 0.4455 0.7082
C19A C 1.6818(3) 0.7552(3) 0.68977(15)
H18A H 1.7087 0.8408 0.6904
C20A C 1.5529(3) 0.7326(3) 0.67071(16)
H19A H 1.4754 0.7987 0.6562
C21A C 1.4493(3) 0.5202(3) 0.65753(16)
H20A H 1.4507 0.4275 0.6893
H21A H 1.3499 0.5665 0.6689
C22A C 1.4775(3) 0.5116(3) 0.57590(14)
C23A C 1.6108(3) 0.5456(4) 0.52588(16)
H22A H 1.6863 0.5773 0.5430
C24A C 1.3698(3) 0.4674(3) 0.54760(16)
H23A H 1.2801 0.4455 0.5794
Ni1A Ni -0.01742(3) -0.38645(2) -0.268725(14)
Ni1_2 Ni 1.01742(3) -0.61355(2) 0.268725(14)
Ni1A_2 Ni -0.01742(3) -0.38645(2) 0.731275(14)
Ni1A_3 Ni -0.01742(3) 0.61355(2) -0.268725(14)
Ni1A_4 Ni 0.98258(3) 1.61355(2) -0.268725(14)
Ni1A_5 Ni 1.98258(3) 0.61355(2) 0.731275(14)
O3_2 O 0.9077(2) 0.57539(15) 0.27727(10)
O3A_2 O 0.0923(2) -0.57539(15) -0.27727(10)
N1A_2 N -0.0824(2) -0.47475(19) -0.15409(11)
N3A_2 N 0.0569(2) -0.3019(2) -0.38435(11)
N5A_2 N -0.2331(2) -0.3682(2) -0.29187(11)
O6 O 0.3073(5) 0.8171(5) 0.3113(3)
H31 H 0.3021 0.8701 0.2690
H32 H 0.3778 0.7686 0.3407
O7 O 0.6202(4) 0.4458(4) 0.13926(16)
H33 H 0.6378 0.5022 0.0965
H34 H 0.6979 0.4205 0.1608
loop_
_geom_bond_atom_site_label_1
_geom_bond_atom_site_label_2
_geom_bond_site_symmetry_1
_geom_bond_site_symmetry_2
Ni1 O1 1_555 1_555
O1 C1 1_555 1_555
O2 Ni1 1_555 1_555
O3 C32 1_555 1_555
O4 C32 1_555 1_555
O5 C6 1_555 1_555
N1 Ni1 1_555 1_555
N2 C26 1_555 1_555
N3 Ni1 1_555 1_555
N4 C11 1_555 1_555
N5 Ni1 1_555 1_555
N6 C18 1_555 1_555
C1 O2 1_555 1_555
C2 C1 1_555 1_555
C3 C2 1_555 1_555
H1 C3 1_555 1_555
C4 C3 1_555 1_555
C5 C4 1_555 1_555
H2 C5 1_555 1_555
C6 C5 1_555 1_555
C7 C2 1_555 1_555
H3 C7 1_555 1_555
C8 O5 1_555 1_555
H4 C8 1_555 1_555
H5 C8 1_555 1_555
C9 C8 1_555 1_555
H6 C9 1_555 1_555
H7 C9 1_555 1_555
C10 C9 1_555 1_555
H8 C10 1_555 1_555
H9 C10 1_555 1_555
C11 N3 1_555 1_555
H10 C11 1_555 1_555
C12 N3 1_555 1_555
H11 C12 1_555 1_555
C13 N4 1_555 1_555
H12 C13 1_555 1_555
C14 N4 1_555 1_555
H13 C14 1_555 1_555
H14 C14 1_555 1_555
C15 C14 1_555 1_555
C16 C15 1_555 1_555
H15 C16 1_555 1_555
C17 C15 1_555 1_555
H16 C17 1_555 1_555
C18 N5 1_555 1_555
H17 C18 1_555 1_555
C19 N5 1_555 1_555
H18 C19 1_555 1_555
C20 N6 1_555 1_555
H19 C20 1_555 1_555
C21 N6 1_555 1_555
H20 C21 1_555 1_555
H21 C21 1_555 1_555
C22 C21 1_555 1_555
C23 C22 1_555 1_555
H22 C23 1_555 1_555
C24 C22 1_555 1_555
H23 C24 1_555 1_555
C25 N1 1_555 1_555
H24 C25 1_555 1_555
C26 N1 1_555 1_555
H25 C26 1_555 1_555
C27 N2 1_555 1_555
H26 C27 1_555 1_555
C28 N2 1_555 1_555
H27 C28 1_555 1_555
H28 C28 1_555 1_555
C29 C28 1_555 1_555
C30 C29 1_555 1_555
H29 C30 1_555 1_555
C31 C29 1_555 1_555
H30 C31 1_555 1_555
C32 C4 1_555 1_555
O6 H31 1_555 1_555
H32 O6 1_555 1_555
O7 H33 1_555 1_555
H34 O7 1_555 1_555
O1A C1A 1_555 1_555
O2A C1A 1_555 1_555
O3A C32A 1_555 1_555
O4A C32A 1_555 1_555
O5A C6A 1_555 1_555
C1A C2A 1_555 1_555
C2A C3A 1_555 1_555
C3A H1A 1_555 1_555
C4A C3A 1_555 1_555
C5A C4A 1_555 1_555
H2A C5A 1_555 1_555
C6A C5A 1_555 1_555
C7A C2A 1_555 1_555
H3A C7A 1_555 1_555
C8A O5A 1_555 1_555
H4A C8A 1_555 1_555
H5A C8A 1_555 1_555
C9A C8A 1_555 1_555
H6A C9A 1_555 1_555
H7A C9A 1_555 1_555
C10A C10 1_555 1_555
H8A C10A 1_555 1_555
H9A C10A 1_555 1_555
C32A C4A 1_555 1_555
N1A C25A 1_555 1_555
N2A C26A 1_555 1_555
C25A H24A 1_555 1_555
C26A N1A 1_555 1_555
H25A C26A 1_555 1_555
C27A N2A 1_555 1_555
H26A C27A 1_555 1_555
C28A N2A 1_555 1_555
H27A C28A 1_555 1_555
H28A C28A 1_555 1_555
C29A C28A 1_555 1_555
C30A C31 1_555 1_555
H29A C30A 1_555 1_555
C31A C30 1_555 1_555
H30A C31A 1_555 1_555
N3A C11A 1_555 1_555
N4A C11A 1_555 1_555
C11A H10A 1_555 1_555
C12A N3A 1_555 1_555
H11A C12A 1_555 1_555
C13A N4A 1_555 1_555
H12A C13A 1_555 1_555
C14A N4A 1_555 1_555
H13A C14A 1_555 1_555
H14A C14A 1_555 1_555
C15A C14A 1_555 1_555
C16A C17 1_555 1_555
H15A C16A 1_555 1_555
C17A C16 1_555 1_555
H16A C17A 1_555 1_555
N5A C18A 1_555 1_555
N6A C18A 1_555 1_555
C18A H17A 1_555 1_555
C19A N5A 1_555 1_555
H18A C19A 1_555 1_555
C20A N6A 1_555 1_555
H19A C20A 1_555 1_555
C21A N6A 1_555 1_555
H20A C21A 1_555 1_555
H21A C21A 1_555 1_555
C22A C21A 1_555 1_555
C23A C24 1_555 1_555
H22A C23A 1_555 1_555
C24A C23 1_555 1_555
H23A C24A 1_555 1_555
Ni1A O1A 1_555 1_555
Ni1_2 O3 1_555 1_555
Ni1A_2 N3A 1_555 1_555
Ni1A_3 O3A 1_555 1_555
Ni1A_4 N1A 1_555 1_555
Ni1A_5 N5A 1_555 1_555
O3_2 Ni1 1_555 1_555
O3A_2 Ni1A 1_555 1_555
N1A_2 Ni1A 1_555 1_555
N3A_2 Ni1A 1_555 1_555
N5A_2 Ni1A 1_555 1_555
C6 C7 1_555 1_555
C12 C13 1_555 1_555
C19 C20 1_555 1_555
C25 C27 1_555 1_555
O2A Ni1A 1_555 1_555
C6A C7A 1_555 1_555
C9A C10A 1_555 1_555
C25A C27A 1_555 1_555
C29A C30A 1_555 1_555
C29A C31A 1_555 1_555
C12A C13A 1_555 1_555
C15A C16A 1_555 1_555
C15A C17A 1_555 1_555
C19A C20A 1_555 1_555
C22A C23A 1_555 1_555
C22A C24A 1_555 1_555

#END
