
#######################################################################
#
#                 Cambridge Crystallographic Data Centre
#                                CCDC 
#
#######################################################################
#
# If this CIF has been generated from an entry in the Cambridge 
# Structural Database, then it will include bibliographic, chemical, 
# crystal, experimental, refinement or atomic coordinate data resulting 
# from the CCDC's data processing and validation procedures.
#
#######################################################################

data_SUTJAU
_symmetry_cell_setting           monoclinic
_symmetry_space_group_name_H-M   'P 21/c'
_symmetry_Int_Tables_number      14
_space_group_name_Hall           '-P 2ybc'
loop_
_symmetry_equiv_pos_site_id
_symmetry_equiv_pos_as_xyz
1 x,y,z
2 -x,1/2+y,1/2-z
3 -x,-y,-z
4 x,1/2-y,1/2+z
_cell_length_a                   17.838(4)
_cell_length_b                   16.951(3)
_cell_length_c                   16.981(3)
_cell_angle_alpha                90
_cell_angle_beta                 104.66(3)
_cell_angle_gamma                90
_cell_volume                     4967.42
loop_
_atom_site_label
_atom_site_type_symbol
_atom_site_fract_x
_atom_site_fract_y
_atom_site_fract_z
Ni1 Ni -0.204761(12) 0.691085(14) 0.352251(13)
Ni2 Ni 0.710945(13) 0.182658(16) 0.146304(14)
O1 O -0.09930(7) 0.63654(8) 0.32036(7)
O2 O -0.19709(7) 0.69530(8) 0.23676(7)
O3 O -0.17734(8) 0.79178(8) -0.02466(7)
O4 O -0.13392(7) 0.70891(8) -0.10090(7)
O5 O 0.06523(7) 0.55754(9) 0.12727(8)
O6 O 0.42739(7) 0.43050(10) -0.09626(8)
O7 O 0.63231(7) 0.27409(9) 0.10222(8)
O8 O 0.71512(7) 0.23948(9) 0.03417(8)
O9 O 0.67685(7) 0.34758(8) -0.25122(7)
O10 O 0.58602(9) 0.43804(10) -0.29492(9)
O11 O 0.62726(9) 0.10484(10) 0.07462(9)
H1 H 0.6057 0.0801 0.1042
H2 H 0.6130 0.1533 0.0675
N1 N -0.30594(9) 0.75216(10) 0.33277(9)
N2 N -0.74631(8) 1.08273(9) 0.15214(9)
N3 N 0.78962(9) 0.09281(10) 0.15230(10)
N4 N 1.20806(9) -0.24077(10) 0.28262(10)
C1 C -0.13160(10) 0.66104(11) 0.25052(10)
C2 C -0.09653(9) 0.65181(11) 0.18073(10)
C3 C -0.13110(10) 0.69131(10) 0.10957(11)
H3 H -0.1753 0.7214 0.1066
C4 C -0.10057(10) 0.68640(10) 0.04326(11)
C5 C -0.03564(10) 0.64131(11) 0.04610(11)
H4 H -0.0155 0.6375 0.0008
C6 C -0.00040(10) 0.60141(11) 0.11783(11)
C7 C -0.03042(10) 0.60770(11) 0.18511(11)
H5 H -0.0061 0.5822 0.2333
C8 C -0.13893(9) 0.73096(11) -0.03211(10)
C9 C 0.10043(10) 0.55654(13) 0.06067(12)
H6 H 0.1120 0.6101 0.0474
H7 H 0.0648 0.5338 0.0132
C10 C 0.17380(10) 0.50883(13) 0.08228(12)
H8 H 0.2100 0.5324 0.1288
H9 H 0.1624 0.4557 0.0970
C11 C 0.20966(10) 0.50598(12) 0.01125(11)
H10 H 0.2198 0.5595 -0.0034
H11 H 0.1726 0.4829 -0.0349
C12 C 0.28461(10) 0.45922(12) 0.02693(11)
H12 H 0.3214 0.4808 0.0742
H13 H 0.2744 0.4049 0.0390
C13 C 0.31972(10) 0.46092(13) -0.04455(12)
H14 H 0.2852 0.4345 -0.0903
H15 H 0.3250 0.5153 -0.0601
C14 C 0.39740(10) 0.42183(14) -0.02620(12)
H16 H 0.4320 0.4464 0.0207
H17 H 0.3925 0.3664 -0.0143
C15 C 0.49827(10) 0.39921(12) -0.09291(11)
C16 C 0.52510(11) 0.40871(11) -0.16254(11)
H18 H 0.4945 0.4349 -0.2074
C17 C 0.59610(10) 0.37995(11) -0.16577(11)
C18 C 0.64064(10) 0.33914(11) -0.09912(11)
H19 H 0.6888 0.3192 -0.1008
C19 C 0.61373(10) 0.32826(11) -0.03089(11)
C20 C 0.54272(10) 0.35837(12) -0.02773(12)
H20 H 0.5249 0.3510 0.0187
C21 C 0.62107(11) 0.38985(11) -0.24398(11)
C22 C 0.65649(11) 0.27897(12) 0.03842(11)
C23 C -0.31684(12) 0.81869(13) 0.28900(15)
H21 H -0.2754 0.8392 0.2715
C24 C -0.38605(13) 0.85806(14) 0.26875(16)
H22 H -0.3913 0.9034 0.2369
C25 C -0.44769(12) 0.83048(13) 0.29550(13)
C26 C -0.43493(12) 0.76400(15) 0.34231(15)
H23 H -0.4751 0.7432 0.3617
C27 C -0.36558(12) 0.72802(15) 0.36091(14)
H24 H -0.3588 0.6842 0.3950
C28 C -0.52591(12) 0.86805(14) 0.27038(15)
H25 H -0.5200 0.9249 0.2689
H26 H -0.5547 0.8559 0.3102
C29 C -0.57037(13) 0.83956(15) 0.18825(16)
H27 H -0.5580 0.7844 0.1831
H28 H -0.5527 0.8685 0.1471
C30 C -0.65765(13) 0.84775(14) 0.17053(18)
H29 H -0.6807 0.8206 0.1199
H30 H -0.6750 0.8212 0.2133
C31 C -0.68730(11) 0.93007(12) 0.16399(13)
C32 C -0.72449(13) 0.96275(13) 0.09060(14)
H31 H -0.7298 0.9338 0.0430
C33 C -0.75377(12) 1.03744(13) 0.08692(12)
H32 H -0.7801 1.0574 0.0365
C34 C -0.70877(12) 1.05284(12) 0.22309(12)
H33 H -0.7018 1.0842 0.2693
C35 C -0.67977(12) 0.97755(13) 0.23123(12)
H34 H -0.6549 0.9585 0.2825
C36 C 0.85102(11) 0.10323(13) 0.12380(13)
H35 H 0.8617 0.1537 0.1081
C37 C 0.90074(11) 0.04199(13) 0.11613(13)
H36 H 0.9430 0.0520 0.0949
C38 C 0.88741(12) -0.03324(13) 0.13989(13)
C39 C 0.82516(13) -0.04215(14) 0.17251(17)
H37 H 0.8145 -0.0914 0.1913
C40 C 0.77865(13) 0.02025(14) 0.17779(15)
H38 H 0.7370 0.0119 0.2004
C41 C 0.93639(13) -0.10445(15) 0.13212(16)
H39 H 0.9676 -0.1176 0.1861
H40 H 0.9017 -0.1485 0.1137
C42 C 0.98867(14) -0.09816(17) 0.07756(15)
H41 H 0.9661 -0.0614 0.0342
H42 H 0.9913 -0.1493 0.0527
C43 C 1.06902(14) -0.07186(16) 0.11694(18)
H43 H 1.0666 -0.0230 0.1459
H44 H 1.0957 -0.0610 0.0749
C44 C 1.11561(12) -0.13107(14) 0.17566(15)
C45 C 1.14596(15) -0.11554(15) 0.25501(18)
H45 H 1.1359 -0.0671 0.2760
C46 C 1.19138(14) -0.16952(15) 0.30569(16)
H46 H 1.2118 -0.1552 0.3598
C47 C 1.17509(13) -0.25914(15) 0.20554(14)
H47 H 1.1823 -0.3095 0.1870
C48 C 1.12984(14) -0.20511(16) 0.15127(16)
H48 H 1.1090 -0.2200 0.0975
Ni1A Ni -0.795239(12) 1.191085(14) 0.147749(13)
Ni1C Ni -0.204761(12) 0.808915(14) -0.147749(13)
Ni2A Ni 1.289055(13) -0.317342(16) 0.353696(14)
Ni2C Ni 0.710945(13) 0.317342(16) -0.353696(14)
O3C O -0.17734(8) 0.70822(8) 0.47534(7)
O4C O -0.13392(7) 0.79109(8) 0.39910(7)
O9C O 0.67685(7) 0.15242(8) 0.24878(7)
N2A N -0.25369(8) 0.58273(9) 0.34786(9)
N4A N 0.79194(9) 0.25923(10) 0.21738(10)
O12 O 0.02532(16) 0.38451(18) 0.15658(16)
O13 O 0.3183(3) 0.2812(4) 0.4142(4)
H49 H 0.3175 0.2779 0.3653
H50 H 0.3006 0.2470 0.4383
O14 O 0.5514(3) 0.5302(3) 0.4200(4)
O15 O 0.5238(2) 0.6482(3) 0.5231(2)
H51 H 0.5066 0.6883 0.5418
H52 H 0.5733 0.6472 0.5335
O16 O 0.8718(3) 0.2774(4) 0.0268(4)
O17 O 0.96413(19) 0.2404(3) 0.1002(3)
H53 H 0.9901 0.2733 0.1343
H54 H 0.9867 0.2249 0.0650
loop_
_geom_bond_atom_site_label_1
_geom_bond_atom_site_label_2
_geom_bond_site_symmetry_1
_geom_bond_site_symmetry_2
Ni1 O1 1_555 1_555
Ni2 O7 1_555 1_555
O1 C1 1_555 1_555
O2 Ni1 1_555 1_555
O3 C8 1_555 1_555
O4 C8 1_555 1_555
O5 C6 1_555 1_555
O6 C14 1_555 1_555
O7 C22 1_555 1_555
O8 Ni2 1_555 1_555
O9 C21 1_555 1_555
O10 C21 1_555 1_555
O11 Ni2 1_555 1_555
H1 O11 1_555 1_555
H2 O11 1_555 1_555
N1 Ni1 1_555 1_555
N2 C33 1_555 1_555
N3 Ni2 1_555 1_555
N4 C46 1_555 1_555
C1 O2 1_555 1_555
C2 C1 1_555 1_555
C3 C2 1_555 1_555
H3 C3 1_555 1_555
C4 C3 1_555 1_555
C5 C4 1_555 1_555
H4 C5 1_555 1_555
C6 C5 1_555 1_555
C7 C2 1_555 1_555
H5 C7 1_555 1_555
C8 C4 1_555 1_555
C9 O5 1_555 1_555
H6 C9 1_555 1_555
H7 C9 1_555 1_555
C10 C9 1_555 1_555
H8 C10 1_555 1_555
H9 C10 1_555 1_555
C11 C10 1_555 1_555
H10 C11 1_555 1_555
H11 C11 1_555 1_555
C12 C11 1_555 1_555
H12 C12 1_555 1_555
H13 C12 1_555 1_555
C13 C12 1_555 1_555
H14 C13 1_555 1_555
H15 C13 1_555 1_555
C14 C13 1_555 1_555
H16 C14 1_555 1_555
H17 C14 1_555 1_555
C15 O6 1_555 1_555
C16 C15 1_555 1_555
H18 C16 1_555 1_555
C17 C16 1_555 1_555
C18 C17 1_555 1_555
H19 C18 1_555 1_555
C19 C18 1_555 1_555
C20 C15 1_555 1_555
H20 C20 1_555 1_555
C21 C17 1_555 1_555
C22 O8 1_555 1_555
C23 N1 1_555 1_555
H21 C23 1_555 1_555
C24 C23 1_555 1_555
H22 C24 1_555 1_555
C25 C24 1_555 1_555
C26 C25 1_555 1_555
H23 C26 1_555 1_555
C27 N1 1_555 1_555
H24 C27 1_555 1_555
C28 C25 1_555 1_555
H25 C28 1_555 1_555
H26 C28 1_555 1_555
C29 C28 1_555 1_555
H27 C29 1_555 1_555
H28 C29 1_555 1_555
C30 C29 1_555 1_555
H29 C30 1_555 1_555
H30 C30 1_555 1_555
C31 C30 1_555 1_555
C32 C31 1_555 1_555
H31 C32 1_555 1_555
C33 C32 1_555 1_555
H32 C33 1_555 1_555
C34 N2 1_555 1_555
H33 C34 1_555 1_555
C35 C31 1_555 1_555
H34 C35 1_555 1_555
C36 N3 1_555 1_555
H35 C36 1_555 1_555
C37 C36 1_555 1_555
H36 C37 1_555 1_555
C38 C37 1_555 1_555
C39 C38 1_555 1_555
H37 C39 1_555 1_555
C40 N3 1_555 1_555
H38 C40 1_555 1_555
C41 C38 1_555 1_555
H39 C41 1_555 1_555
H40 C41 1_555 1_555
C42 C41 1_555 1_555
H41 C42 1_555 1_555
H42 C42 1_555 1_555
C43 C42 1_555 1_555
H43 C43 1_555 1_555
H44 C43 1_555 1_555
C44 C43 1_555 1_555
C45 C44 1_555 1_555
H45 C45 1_555 1_555
C46 C45 1_555 1_555
H46 C46 1_555 1_555
C47 N4 1_555 1_555
H47 C47 1_555 1_555
C48 C44 1_555 1_555
H48 C48 1_555 1_555
O13 H49 1_555 1_555
H50 O13 1_555 1_555
O15 H51 1_555 1_555
H52 O15 1_555 1_555
O17 H53 1_555 1_555
H54 O17 1_555 1_555
Ni1A N2 1_555 1_555
Ni1C O3 1_555 1_555
Ni2A N4 1_555 1_555
Ni2C O9 1_555 1_555
O3C Ni1 1_555 1_555
O4C Ni1 1_555 1_555
O9C Ni2 1_555 1_555
N2A Ni1 1_555 1_555
N4A Ni2 1_555 1_555
O4 Ni1C 1_555 1_555
C6 C7 1_555 1_555
C19 C20 1_555 1_555
C19 C22 1_555 1_555
C26 C27 1_555 1_555
C34 C35 1_555 1_555
C39 C40 1_555 1_555
C47 C48 1_555 1_555

#END
