
#######################################################################
#
#                 Cambridge Crystallographic Data Centre
#                                CCDC 
#
#######################################################################
#
# If this CIF has been generated from an entry in the Cambridge 
# Structural Database, then it will include bibliographic, chemical, 
# crystal, experimental, refinement or atomic coordinate data resulting 
# from the CCDC's data processing and validation procedures.
#
#######################################################################

data_SUTNUR
_symmetry_cell_setting           orthorhombic
_symmetry_space_group_name_H-M   'P 21 21 21'
_symmetry_Int_Tables_number      19
_space_group_name_Hall           'P 2ac 2ab'
loop_
_symmetry_equiv_pos_site_id
_symmetry_equiv_pos_as_xyz
1 x,y,z
2 1/2-x,-y,1/2+z
3 1/2+x,1/2-y,-z
4 -x,1/2+y,1/2-z
_cell_length_a                   11.748(2)
_cell_length_b                   12.819(3)
_cell_length_c                   15.701(3)
_cell_angle_alpha                90
_cell_angle_beta                 90
_cell_angle_gamma                90
_cell_volume                     2364.53
loop_
_atom_site_label
_atom_site_type_symbol
_atom_site_fract_x
_atom_site_fract_y
_atom_site_fract_z
Sb1 Sb 0.38796(3) 0.66040(2) 0.708213(16)
F1 F 0.2558(3) 0.6426(3) 0.6426(2)
F2 F 0.3010(3) 0.7339(3) 0.78962(19)
F3 F 0.3554(4) 0.5335(3) 0.7633(2)
F4 F 0.5154(3) 0.6785(4) 0.7745(3)
F5 F 0.4733(3) 0.5900(3) 0.6257(2)
F6 F 0.4119(6) 0.7822(3) 0.6521(3)
Ag1 Ag 0.50187(3) 0.81542(2) 1.181380(16)
O1 O 0.3268(3) 0.8852(3) 1.09458(18)
O2 O -0.0357(2) 0.9996(2) 0.75153(18)
N1 N 0.1690(3) 0.9189(2) 0.90446(19)
N2 N 0.3552(3) 0.8179(3) 0.96329(19)
H1 H 0.3303 0.8169 0.9104
N3 N 0.5943(3) 0.8542(2) 1.06580(18)
N4 N 0.1019(3) 0.8778(3) 0.74344(19)
H2 H 0.1587 0.8463 0.7695
N5 N -0.0897(3) 0.7461(3) 0.7088(2)
C1 C 0.1988(3) 0.9368(3) 0.9855(2)
C2 C 0.1418(4) 1.0043(3) 1.0378(3)
H3 H 0.1658 1.0141 1.0950
C3 C 0.0490(4) 1.0581(3) 1.0064(3)
H4 H 0.0081 1.1053 1.0417
C4 C 0.0166(4) 1.0419(3) 0.9229(3)
H5 H -0.0467 1.0779 0.8994
C5 C 0.0783(3) 0.9725(3) 0.8743(2)
C6 C 0.3006(3) 0.8767(3) 1.0196(2)
C7 C 0.4546(3) 0.7547(3) 0.9846(2)
H6 H 0.4635 0.6991 0.9414
H7 H 0.4420 0.7207 1.0405
C8 C 0.5624(3) 0.8181(3) 0.9885(2)
C9 C 0.6252(4) 0.8400(3) 0.9168(2)
H8 H 0.6027 0.8125 0.8632
C10 C 0.7194(4) 0.9011(4) 0.9225(3)
H9 H 0.7631 0.9169 0.8732
C11 C 0.7503(4) 0.9396(4) 1.0007(3)
H10 H 0.8150 0.9836 1.0059
C12 C 0.6869(3) 0.9141(3) 1.0715(3)
H11 H 0.7096 0.9397 1.1257
C13 C 0.0439(3) 0.9519(3) 0.7841(3)
C14 C 0.0731(4) 0.8481(4) 0.6570(2)
H12 H 0.1284 0.7952 0.6371
H13 H 0.0808 0.9100 0.6198
C15 C -0.0464(3) 0.8043(3) 0.6473(2)
C16 C -0.1066(4) 0.8243(4) 0.5728(2)
H14 H -0.0741 0.8661 0.5291
C17 C -0.2146(5) 0.7823(4) 0.5631(3)
H15 H -0.2566 0.7942 0.5123
C18 C -0.2603(5) 0.7233(5) 0.6274(3)
H16 H -0.3343 0.6941 0.6223
C19 C -0.1965(4) 0.7079(4) 0.6991(3)
H17 H -0.2286 0.6684 0.7443
Ag1B Ag 0.00187(3) 0.68458(2) 0.818620(16)
N5B N 0.4103(3) 0.7539(3) 1.2912(2)
loop_
_geom_bond_atom_site_label_1
_geom_bond_atom_site_label_2
_geom_bond_site_symmetry_1
_geom_bond_site_symmetry_2
Sb1 F1 1_555 1_555
Ag1 N3 1_555 1_555
F2 Sb1 1_555 1_555
F3 Sb1 1_555 1_555
F4 Sb1 1_555 1_555
F5 Sb1 1_555 1_555
F6 Sb1 1_555 1_555
O1 C6 1_555 1_555
O2 C13 1_555 1_555
N1 C1 1_555 1_555
N2 H1 1_555 1_555
N3 C8 1_555 1_555
N4 H2 1_555 1_555
N5 C15 1_555 1_555
C1 C2 1_555 1_555
C2 H3 1_555 1_555
C3 C2 1_555 1_555
H4 C3 1_555 1_555
C4 C3 1_555 1_555
H5 C4 1_555 1_555
C5 N1 1_555 1_555
C6 N2 1_555 1_555
C7 N2 1_555 1_555
H6 C7 1_555 1_555
H7 C7 1_555 1_555
C8 C7 1_555 1_555
C9 C8 1_555 1_555
H8 C9 1_555 1_555
C10 C9 1_555 1_555
H9 C10 1_555 1_555
C11 C10 1_555 1_555
H10 C11 1_555 1_555
C12 N3 1_555 1_555
H11 C12 1_555 1_555
C13 N4 1_555 1_555
C14 N4 1_555 1_555
H12 C14 1_555 1_555
H13 C14 1_555 1_555
C15 C14 1_555 1_555
C16 C15 1_555 1_555
H14 C16 1_555 1_555
C17 C16 1_555 1_555
H15 C17 1_555 1_555
C18 C17 1_555 1_555
H16 C18 1_555 1_555
C19 N5 1_555 1_555
H17 C19 1_555 1_555
Ag1B N5 1_555 1_555
N5B Ag1 1_555 1_555
C1 C6 1_555 1_555
C4 C5 1_555 1_555
C5 C13 1_555 1_555
C11 C12 1_555 1_555
C18 C19 1_555 1_555

#END
