
#######################################################################
#
#                 Cambridge Crystallographic Data Centre
#                                CCDC 
#
#######################################################################
#
# If this CIF has been generated from an entry in the Cambridge 
# Structural Database, then it will include bibliographic, chemical, 
# crystal, experimental, refinement or atomic coordinate data resulting 
# from the CCDC's data processing and validation procedures.
#
#######################################################################

data_SUTNOL
_symmetry_cell_setting           orthorhombic
_symmetry_space_group_name_H-M   'P 21 21 21'
_symmetry_Int_Tables_number      19
_space_group_name_Hall           'P 2ac 2ab'
loop_
_symmetry_equiv_pos_site_id
_symmetry_equiv_pos_as_xyz
1 x,y,z
2 1/2-x,-y,1/2+z
3 1/2+x,1/2-y,-z
4 -x,1/2+y,1/2-z
_cell_length_a                   11.770(2)
_cell_length_b                   12.731(3)
_cell_length_c                   15.499(3)
_cell_angle_alpha                90
_cell_angle_beta                 90
_cell_angle_gamma                90
_cell_volume                     2322.43
loop_
_atom_site_label
_atom_site_type_symbol
_atom_site_fract_x
_atom_site_fract_y
_atom_site_fract_z
Ag1 Ag 0.49519(4) 0.81271(3) 0.31935(2)
O1 O 0.1699(4) 0.6144(4) 0.5949(3)
O2 O 0.5395(3) 0.4979(3) 0.2522(3)
N1 N 0.5917(4) 0.7530(4) 0.2097(3)
N2 N 0.4013(4) 0.6187(4) 0.2410(3)
N3 N 0.3311(3) 0.5786(3) 0.4035(3)
N4 N 0.1435(4) 0.6797(4) 0.4604(3)
N5 N -0.0986(3) 0.6489(3) 0.5636(3)
C1 C 0.6971(5) 0.7923(6) 0.2013(4)
H1 H 0.7270 0.8330 0.2474
C2 C 0.7634(6) 0.7771(6) 0.1306(5)
H2 H 0.8374 0.8066 0.1271
C3 C 0.7197(6) 0.7176(6) 0.0643(4)
H3 H 0.7630 0.7065 0.0133
C4 C 0.6130(6) 0.6741(5) 0.0721(4)
H4 H 0.5828 0.6313 0.0274
C5 C 0.5503(4) 0.6935(4) 0.1460(3)
C6 C 0.4317(5) 0.6489(5) 0.1529(4)
H5 H 0.3767 0.7019 0.1319
H6 H 0.4258 0.5865 0.1150
C7 C 0.4581(4) 0.5450(4) 0.2831(3)
C8 C 0.4221(4) 0.5257(4) 0.3742(3)
C9 C 0.4830(4) 0.4546(4) 0.4247(4)
H7 H 0.5461 0.4173 0.4018
C10 C 0.4489(5) 0.4400(5) 0.5091(4)
H8 H 0.4893 0.3925 0.5451
C11 C 0.3564(5) 0.4938(4) 0.5418(4)
H9 H 0.3327 0.4855 0.6000
C12 C 0.2996(4) 0.5611(4) 0.4853(3)
C13 C 0.1980(4) 0.6217(4) 0.5194(3)
C14 C 0.0451(4) 0.7433(5) 0.4812(4)
H10 H 0.0369 0.7991 0.4371
H11 H 0.0576 0.7779 0.5376
C15 C -0.0630(4) 0.6808(4) 0.4850(3)
C16 C -0.1220(5) 0.6550(5) 0.4108(4)
H12 H -0.0963 0.6781 0.3559
C17 C -0.2189(6) 0.5949(6) 0.4183(5)
H13 H -0.2616 0.5766 0.3685
C18 C -0.2533(5) 0.5614(5) 0.4991(5)
H14 H -0.3197 0.5196 0.5056
C19 C -0.1903(5) 0.5895(5) 0.5696(4)
H15 H -0.2133 0.5654 0.6249
H16 H 0.337(5) 0.651(5) 0.266(4)
H17 H 0.166(4) 0.676(5) 0.413(4)
Ag1B Ag -0.00481(4) 0.68729(3) 0.68065(2)
N5B N 0.4014(3) 0.8511(3) 0.4364(3)
As1 As 0.11835(6) 0.82723(6) 0.20825(4)
F1 F 0.0056(5) 0.8118(8) 0.2683(5)
F2 F 0.0398(4) 0.8925(5) 0.1331(3)
F3 F 0.1056(11) 0.7197(5) 0.1544(5)
F4 F 0.2377(5) 0.8527(6) 0.1518(4)
F5 F 0.1982(4) 0.7629(4) 0.2836(3)
F6 F 0.1393(7) 0.9429(5) 0.2594(4)
loop_
_geom_bond_atom_site_label_1
_geom_bond_atom_site_label_2
_geom_bond_site_symmetry_1
_geom_bond_site_symmetry_2
Ag1 N1 1_555 1_555
O1 C13 1_555 1_555
O2 C7 1_555 1_555
N1 C1 1_555 1_555
N2 C6 1_555 1_555
N3 C8 1_555 1_555
N4 C13 1_555 1_555
N5 C15 1_555 1_555
C1 H1 1_555 1_555
C2 C1 1_555 1_555
H2 C2 1_555 1_555
C3 C2 1_555 1_555
H3 C3 1_555 1_555
C4 C3 1_555 1_555
H4 C4 1_555 1_555
C5 N1 1_555 1_555
C6 C5 1_555 1_555
H5 C6 1_555 1_555
H6 C6 1_555 1_555
C7 N2 1_555 1_555
C8 C7 1_555 1_555
C9 C8 1_555 1_555
H7 C9 1_555 1_555
C10 C9 1_555 1_555
H8 C10 1_555 1_555
C11 C10 1_555 1_555
H9 C11 1_555 1_555
C12 N3 1_555 1_555
C13 C12 1_555 1_555
C14 N4 1_555 1_555
H10 C14 1_555 1_555
H11 C14 1_555 1_555
C15 C14 1_555 1_555
C16 C15 1_555 1_555
H12 C16 1_555 1_555
C17 C16 1_555 1_555
H13 C17 1_555 1_555
C18 C17 1_555 1_555
H14 C18 1_555 1_555
C19 N5 1_555 1_555
H15 C19 1_555 1_555
H16 N2 1_555 1_555
H17 N4 1_555 1_555
As1 F1 1_555 1_555
F2 As1 1_555 1_555
F3 As1 1_555 1_555
F4 As1 1_555 1_555
F5 As1 1_555 1_555
F6 As1 1_555 1_555
Ag1B N5 1_555 1_555
N5B Ag1 1_555 1_555
C4 C5 1_555 1_555
C11 C12 1_555 1_555
C18 C19 1_555 1_555

#END
