
#######################################################################
#
#                 Cambridge Crystallographic Data Centre
#                                CCDC 
#
#######################################################################
#
# If this CIF has been generated from an entry in the Cambridge 
# Structural Database, then it will include bibliographic, chemical, 
# crystal, experimental, refinement or atomic coordinate data resulting 
# from the CCDC's data processing and validation procedures.
#
#######################################################################

data_SUTPEC
_symmetry_cell_setting           monoclinic
_symmetry_space_group_name_H-M   'P 21/c'
_symmetry_Int_Tables_number      14
_space_group_name_Hall           '-P 2ybc'
loop_
_symmetry_equiv_pos_site_id
_symmetry_equiv_pos_as_xyz
1 x,y,z
2 -x,1/2+y,1/2-z
3 -x,-y,-z
4 x,1/2-y,1/2+z
_cell_length_a                   8.2952(6)
_cell_length_b                   11.5596(9)
_cell_length_c                   17.0774(15)
_cell_angle_alpha                90
_cell_angle_beta                 95.194(9)
_cell_angle_gamma                90
_cell_volume                     1630.81
loop_
_atom_site_label
_atom_site_type_symbol
_atom_site_fract_x
_atom_site_fract_y
_atom_site_fract_z
Mn1 Mn 0.30054(3) 0.21957(2) 0.33919(2)
O1 O 0.2012(2) 0.17070(11) 0.22358(8)
O2 O 0.3545(2) 0.01665(13) 0.21090(10)
C1 C 0.2462(2) 0.0859(2) 0.18510(11)
C2 C 0.1655(3) 0.0650(2) 0.10337(11)
C3 C 0.1076(2) -0.0597(2) 0.09214(11)
C4 C -0.0439(2) -0.0868(2) 0.13182(11)
O3 O -0.0784(2) -0.19288(11) 0.13774(9)
O4 O -0.1251(2) -0.00611(13) 0.15543(13)
N1 N 0.2107(2) 0.05734(13) 0.39753(9)
C5 C 0.2586(2) 0.0407(2) 0.47427(11)
C6 C 0.2084(3) -0.0555(2) 0.51440(13)
C7 C 0.1057(3) -0.1346(2) 0.47574(14)
C8 C 0.0576(3) -0.1180(2) 0.39770(13)
C9 C 0.1129(2) -0.0216(2) 0.36069(12)
N2 N 0.4024(2) 0.22066(14) 0.46707(9)
C10 C 0.3657(2) 0.1316(2) 0.51244(11)
C11 C 0.4271(3) 0.1248(2) 0.59090(13)
C12 C 0.5301(3) 0.2096(2) 0.62198(14)
C13 C 0.5700(3) 0.2996(2) 0.57547(15)
C14 C 0.5024(3) 0.3027(2) 0.49846(14)
O5 O 0.5354(2) 0.13759(14) 0.31596(9)
O6 O 0.3916(2) 0.38700(14) 0.31373(14)
H1 H 0.2414 0.0825 0.06507
H2 H 0.0737 0.1168 0.09399
H3 H 0.0870 -0.0751 0.03629
H4 H 0.1935 -0.1112 0.11279
H5 H 0.2440 -0.0664 0.56710
H6 H 0.0695 -0.1984 0.50227
H7 H -0.0109 -0.1706 0.37022
H8 H 0.0807 -0.0110 0.30760
H9 H 0.3987 0.0634 0.62205
H10 H 0.5724 0.2057 0.67425
H11 H 0.6407 0.3572 0.59513
H12 H 0.5274 0.3647 0.46701
H13 H 0.6208 0.1624 0.3019
H14 H 0.4938 0.0928 0.2828
H15 H 0.3155 0.4316 0.3166
H16 H 0.4770 0.4202 0.3079
O3A O 0.0784(2) 0.30712(11) 0.36226(9)
Mn1A Mn -0.30054(3) -0.28043(2) 0.16081(2)
O7 O -0.1700(2) 0.1862(2) 0.26608(13)
H17 H -0.1339 0.1427 0.2340
H18 H -0.0992 0.2239 0.2911
loop_
_geom_bond_atom_site_label_1
_geom_bond_atom_site_label_2
_geom_bond_site_symmetry_1
_geom_bond_site_symmetry_2
Mn1 O1 1_555 1_555
O1 C1 1_555 1_555
O2 C1 1_555 1_555
C1 C2 1_555 1_555
C2 C3 1_555 1_555
C3 C4 1_555 1_555
C4 O3 1_555 1_555
O3 Mn1A 1_555 1_555
O4 C4 1_555 1_555
N1 Mn1 1_555 1_555
C5 N1 1_555 1_555
C6 C5 1_555 1_555
C7 C6 1_555 1_555
C8 C7 1_555 1_555
C9 N1 1_555 1_555
N2 Mn1 1_555 1_555
C10 C5 1_555 1_555
C11 C10 1_555 1_555
C12 C11 1_555 1_555
C13 C12 1_555 1_555
C14 N2 1_555 1_555
O5 Mn1 1_555 1_555
O6 Mn1 1_555 1_555
O7 H17 1_555 1_555
H1 C2 1_555 1_555
H2 C2 1_555 1_555
H3 C3 1_555 1_555
H4 C3 1_555 1_555
H5 C6 1_555 1_555
H6 C7 1_555 1_555
H7 C8 1_555 1_555
H8 C9 1_555 1_555
H9 C11 1_555 1_555
H10 C12 1_555 1_555
H11 C13 1_555 1_555
H12 C14 1_555 1_555
H13 O5 1_555 1_555
H14 O5 1_555 1_555
H15 O6 1_555 1_555
H16 O6 1_555 1_555
H18 O7 1_555 1_555
O3A Mn1 1_555 1_555
C8 C9 1_555 1_555
N2 C10 1_555 1_555
C13 C14 1_555 1_555

#END
