
#######################################################################
#
#                 Cambridge Crystallographic Data Centre
#                                CCDC 
#
#######################################################################
#
# If this CIF has been generated from an entry in the Cambridge 
# Structural Database, then it will include bibliographic, chemical, 
# crystal, experimental, refinement or atomic coordinate data resulting 
# from the CCDC's data processing and validation procedures.
#
#######################################################################

data_SUTQEE
_symmetry_cell_setting           monoclinic
_symmetry_space_group_name_H-M   'P 21/c'
_symmetry_Int_Tables_number      14
_space_group_name_Hall           '-P 2ybc'
loop_
_symmetry_equiv_pos_site_id
_symmetry_equiv_pos_as_xyz
1 x,y,z
2 -x,1/2+y,1/2-z
3 -x,-y,-z
4 x,1/2-y,1/2+z
_cell_length_a                   19.1159(11)
_cell_length_b                   15.0730(9)
_cell_length_c                   17.9044(10)
_cell_angle_alpha                90
_cell_angle_beta                 106.1730(10)
_cell_angle_gamma                90
_cell_volume                     4954.7
loop_
_atom_site_label
_atom_site_type_symbol
_atom_site_fract_x
_atom_site_fract_y
_atom_site_fract_z
Sn1 Sn -0.039916(12) 0.189547(16) 0.288007(13)
O1 O -0.03502(14) 0.30797(16) 0.38544(14)
O2 O -0.00195(16) 0.25823(17) 0.50486(15)
O3 O -0.05663(13) 0.40551(16) 0.68824(13)
O4 O -0.00749(14) 0.30334(16) 0.63098(14)
C1 C -0.03214(19) 0.3173(2) 0.4544(2)
C2 C -0.04217(18) 0.3746(2) 0.6285(2)
C3 C -0.06368(17) 0.4021(2) 0.47870(19)
C4 C -0.09224(18) 0.4600(2) 0.4167(2)
H1 H -0.0900 0.4439 0.3673
C5 C -0.12340(19) 0.5397(2) 0.4261(2)
H2 H -0.1413 0.5769 0.3837
C6 C -0.12814(19) 0.5645(2) 0.4991(2)
H3 H -0.1490 0.6184 0.5062
C7 C -0.10148(18) 0.5080(2) 0.5608(2)
H4 H -0.1052 0.5247 0.6096
C8 C -0.06903(17) 0.4269(2) 0.55332(18)
C9 C -0.12256(18) 0.2813(2) 0.2263(2)
H5 H -0.1495 0.2978 0.2635
C10 C -0.0920(2) 0.3685(2) 0.2047(2)
H6 H -0.0578 0.3934 0.2504
H7 H -0.0661 0.3572 0.1662
C11 C -0.1533(2) 0.4350(3) 0.1722(2)
H8 H -0.1759 0.4509 0.2127
H9 H -0.1332 0.4885 0.1563
C12 C -0.2108(2) 0.3967(3) 0.1030(2)
H10 H -0.2503 0.4390 0.0856
H11 H -0.1895 0.3866 0.0605
C13 C -0.2408(2) 0.3100(3) 0.1243(2)
H12 H -0.2752 0.2854 0.0786
H13 H -0.2665 0.3211 0.1630
C14 C -0.17953(19) 0.2430(3) 0.1564(2)
H14 H -0.1998 0.1893 0.1718
H15 H -0.1567 0.2277 0.1161
C15 C 0.07668(18) 0.1993(2) 0.3118(2)
H16 H 0.0912 0.1549 0.2790
C16 C 0.11706(18) 0.1759(2) 0.3962(2)
H17 H 0.1052 0.2194 0.4308
H18 H 0.1009 0.1183 0.4090
C17 C 0.19925(19) 0.1740(3) 0.4091(2)
H19 H 0.2231 0.1623 0.4635
H20 H 0.2115 0.1261 0.3788
C18 C 0.2271(2) 0.2608(3) 0.3859(2)
H21 H 0.2786 0.2551 0.3898
H22 H 0.2216 0.3070 0.4215
C19 C 0.1862(2) 0.2871(3) 0.3032(2)
H23 H 0.1976 0.2454 0.2671
H24 H 0.2022 0.3455 0.2922
C20 C 0.1036(2) 0.2887(2) 0.2910(2)
H25 H 0.0915 0.3347 0.3231
H26 H 0.0794 0.3025 0.2370
C21 C -0.07637(19) 0.0936(2) 0.3577(2)
H27 H -0.0604 0.1144 0.4116
C22 C -0.1588(2) 0.0866(3) 0.3357(3)
H28 H -0.1766 0.0663 0.2824
H29 H -0.1793 0.1448 0.3390
C23 C -0.1844(3) 0.0224(3) 0.3891(4)
H30 H -0.1717 0.0463 0.4414
H31 H -0.2370 0.0168 0.3711
C24 C -0.1505(2) -0.0678(3) 0.3905(2)
H32 H -0.1634 -0.1042 0.4293
H33 H -0.1699 -0.0960 0.3403
C25 C -0.0690(2) -0.0629(3) 0.4087(3)
H34 H -0.0501 -0.1214 0.4028
H35 H -0.0490 -0.0448 0.4624
C26 C -0.0443(2) 0.0021(3) 0.3561(3)
H36 H 0.0084 0.0062 0.3725
H37 H -0.0587 -0.0202 0.3031
Sn1C Sn -0.039916(12) 0.310453(16) 0.788007(13)
O3C O -0.05663(13) 0.09449(16) 0.18824(13)
Sn2 Sn -0.446700(12) 1.193388(17) 0.245218(13)
O5 O -0.43136(14) 1.30092(17) 0.15690(14)
O6 O -0.48127(15) 1.25262(17) 0.03813(14)
O7 O -0.44930(13) 1.40008(16) -0.15516(13)
O8 O -0.48729(14) 1.29504(16) -0.09085(14)
C27 C -0.44725(19) 1.3115(2) 0.0853(2)
C28 C -0.45751(18) 1.3696(2) -0.0931(2)
C29 C -0.42530(17) 1.3995(2) 0.05739(19)
C30 C -0.42972(17) 1.4256(2) -0.02069(19)
C31 C -0.40567(18) 1.5095(2) -0.0333(2)
H38 H -0.4072 1.5261 -0.0838
C32 C -0.37962(19) 1.5693(2) 0.0262(2)
H39 H -0.3649 1.6256 0.0155
C33 C -0.37551(19) 1.5454(2) 0.1013(2)
H40 H -0.3582 1.5854 0.1418
C34 C -0.39732(18) 1.4615(3) 0.1162(2)
H41 H -0.3933 1.4457 0.1675
C35 C -0.56122(18) 1.2235(2) 0.2233(2)
H42 H -0.5685 1.2398 0.2735
C36 C -0.6075(2) 1.1422(3) 0.1959(3)
H43 H -0.5910 1.0945 0.2329
H44 H -0.6017 1.1232 0.1462
C37 C -0.6883(2) 1.1608(3) 0.1872(3)
H45 H -0.7166 1.1081 0.1677
H46 H -0.6949 1.1747 0.2377
C38 C -0.7154(2) 1.2366(3) 0.1325(3)
H47 H -0.7659 1.2485 0.1296
H48 H -0.7128 1.2206 0.0809
C39 C -0.6707(2) 1.3189(3) 0.1592(3)
H49 H -0.6773 1.3385 0.2084
H50 H -0.6875 1.3659 0.1214
C40 C -0.5892(2) 1.3010(3) 0.1689(3)
H51 H -0.5820 1.2884 0.1184
H52 H -0.5613 1.3537 0.1894
C41 C -0.35920(18) 1.2713(2) 0.31733(19)
H53 H -0.3288 1.2874 0.2835
C42 C -0.3843(2) 1.3604(2) 0.3433(2)
H54 H -0.4137 1.3918 0.2981
H55 H -0.4144 1.3492 0.3779
C43 C -0.3197(2) 1.4181(2) 0.3849(2)
H56 H -0.2935 1.4362 0.3482
H57 H -0.3373 1.4711 0.4044
C44 C -0.2682(2) 1.3687(3) 0.4522(2)
H58 H -0.2263 1.4058 0.4753
H59 H -0.2928 1.3564 0.4917
C45 C -0.24267(19) 1.2821(3) 0.4251(2)
H60 H -0.2112 1.2511 0.4693
H61 H -0.2149 1.2944 0.3885
C46 C -0.30792(18) 1.2234(2) 0.3863(2)
H62 H -0.2909 1.1688 0.3685
H63 H -0.3340 1.2081 0.4238
C47 C -0.4098(2) 1.0807(3) 0.1920(2)
H64 H -0.3909 1.0394 0.2351
C48 C -0.3448(2) 1.1012(3) 0.1627(2)
H65 H -0.3069 1.1277 0.2045
H66 H -0.3588 1.1444 0.1210
C49 C -0.3139(3) 1.0190(3) 0.1329(3)
H67 H -0.2764 1.0372 0.1091
H68 H -0.2915 0.9807 0.1765
C50 C -0.3706(3) 0.9688(4) 0.0754(3)
H69 H -0.3496 0.9143 0.0625
H70 H -0.3873 1.0036 0.0282
C51 C -0.4349(3) 0.9464(3) 0.1053(3)
H71 H -0.4199 0.9039 0.1475
H72 H -0.4726 0.9189 0.0640
C52 C -0.4656(2) 1.0285(3) 0.1342(3)
H73 H -0.4879 1.0661 0.0901
H74 H -0.5034 1.0105 0.1576
Sn2C Sn -0.446700(12) 1.306612(17) -0.254782(13)
O7C O -0.44930(13) 1.09992(16) 0.34484(13)
loop_
_geom_bond_atom_site_label_1
_geom_bond_atom_site_label_2
_geom_bond_site_symmetry_1
_geom_bond_site_symmetry_2
Sn1 O1 1_555 1_555
O1 C1 1_555 1_555
O2 C1 1_555 1_555
O3 C2 1_555 1_555
O4 C2 1_555 1_555
C1 C3 1_555 1_555
C2 C8 1_555 1_555
C3 C4 1_555 1_555
C4 H1 1_555 1_555
C5 C4 1_555 1_555
H2 C5 1_555 1_555
C6 C5 1_555 1_555
H3 C6 1_555 1_555
C7 C6 1_555 1_555
H4 C7 1_555 1_555
C8 C3 1_555 1_555
C9 Sn1 1_555 1_555
H5 C9 1_555 1_555
C10 C9 1_555 1_555
H6 C10 1_555 1_555
H7 C10 1_555 1_555
C11 C10 1_555 1_555
H8 C11 1_555 1_555
H9 C11 1_555 1_555
C12 C11 1_555 1_555
H10 C12 1_555 1_555
H11 C12 1_555 1_555
C13 C12 1_555 1_555
H12 C13 1_555 1_555
H13 C13 1_555 1_555
C14 C9 1_555 1_555
H14 C14 1_555 1_555
H15 C14 1_555 1_555
C15 Sn1 1_555 1_555
H16 C15 1_555 1_555
C16 C15 1_555 1_555
H17 C16 1_555 1_555
H18 C16 1_555 1_555
C17 C16 1_555 1_555
H19 C17 1_555 1_555
H20 C17 1_555 1_555
C18 C17 1_555 1_555
H21 C18 1_555 1_555
H22 C18 1_555 1_555
C19 C18 1_555 1_555
H23 C19 1_555 1_555
H24 C19 1_555 1_555
C20 C15 1_555 1_555
H25 C20 1_555 1_555
H26 C20 1_555 1_555
C21 Sn1 1_555 1_555
H27 C21 1_555 1_555
C22 C21 1_555 1_555
H28 C22 1_555 1_555
H29 C22 1_555 1_555
C23 C22 1_555 1_555
H30 C23 1_555 1_555
H31 C23 1_555 1_555
C24 C23 1_555 1_555
H32 C24 1_555 1_555
H33 C24 1_555 1_555
C25 C24 1_555 1_555
H34 C25 1_555 1_555
H35 C25 1_555 1_555
C26 C21 1_555 1_555
H36 C26 1_555 1_555
H37 C26 1_555 1_555
Sn2 O5 1_555 1_555
O5 C27 1_555 1_555
O6 C27 1_555 1_555
O7 C28 1_555 1_555
O8 C28 1_555 1_555
C27 C29 1_555 1_555
C28 C30 1_555 1_555
C29 C30 1_555 1_555
C30 C31 1_555 1_555
C31 H38 1_555 1_555
C32 C31 1_555 1_555
H39 C32 1_555 1_555
C33 C32 1_555 1_555
H40 C33 1_555 1_555
C34 C29 1_555 1_555
H41 C34 1_555 1_555
C35 Sn2 1_555 1_555
H42 C35 1_555 1_555
C36 C35 1_555 1_555
H43 C36 1_555 1_555
H44 C36 1_555 1_555
C37 C36 1_555 1_555
H45 C37 1_555 1_555
H46 C37 1_555 1_555
C38 C37 1_555 1_555
H47 C38 1_555 1_555
H48 C38 1_555 1_555
C39 C38 1_555 1_555
H49 C39 1_555 1_555
H50 C39 1_555 1_555
C40 C35 1_555 1_555
H51 C40 1_555 1_555
H52 C40 1_555 1_555
C41 Sn2 1_555 1_555
H53 C41 1_555 1_555
C42 C41 1_555 1_555
H54 C42 1_555 1_555
H55 C42 1_555 1_555
C43 C42 1_555 1_555
H56 C43 1_555 1_555
H57 C43 1_555 1_555
C44 C43 1_555 1_555
H58 C44 1_555 1_555
H59 C44 1_555 1_555
C45 C44 1_555 1_555
H60 C45 1_555 1_555
H61 C45 1_555 1_555
C46 C41 1_555 1_555
H62 C46 1_555 1_555
H63 C46 1_555 1_555
C47 Sn2 1_555 1_555
H64 C47 1_555 1_555
C48 C47 1_555 1_555
H65 C48 1_555 1_555
H66 C48 1_555 1_555
C49 C48 1_555 1_555
H67 C49 1_555 1_555
H68 C49 1_555 1_555
C50 C49 1_555 1_555
H69 C50 1_555 1_555
H70 C50 1_555 1_555
C51 C50 1_555 1_555
H71 C51 1_555 1_555
H72 C51 1_555 1_555
C52 C47 1_555 1_555
H73 C52 1_555 1_555
H74 C52 1_555 1_555
Sn1C O3 1_555 1_555
O3C Sn1 1_555 1_555
Sn2C O7 1_555 1_555
O7C Sn2 1_555 1_555
C7 C8 1_555 1_555
C13 C14 1_555 1_555
C19 C20 1_555 1_555
C25 C26 1_555 1_555
C33 C34 1_555 1_555
C39 C40 1_555 1_555
C45 C46 1_555 1_555
C51 C52 1_555 1_555

#END
