
#######################################################################
#
#                 Cambridge Crystallographic Data Centre
#                                CCDC 
#
#######################################################################
#
# If this CIF has been generated from an entry in the Cambridge 
# Structural Database, then it will include bibliographic, chemical, 
# crystal, experimental, refinement or atomic coordinate data resulting 
# from the CCDC's data processing and validation procedures.
#
#######################################################################

data_SUTQUU
_symmetry_cell_setting           monoclinic
_symmetry_space_group_name_H-M   'P 21/n'
_symmetry_Int_Tables_number      14
_space_group_name_Hall           '-P 2yn'
loop_
_symmetry_equiv_pos_site_id
_symmetry_equiv_pos_as_xyz
1 x,y,z
2 1/2-x,1/2+y,1/2-z
3 -x,-y,-z
4 1/2+x,1/2-y,1/2+z
_cell_length_a                   8.4374(10)
_cell_length_b                   16.3610(19)
_cell_length_c                   17.503(2)
_cell_angle_alpha                90
_cell_angle_beta                 101.113(3)
_cell_angle_gamma                90
_cell_volume                     2370.88
loop_
_atom_site_label
_atom_site_type_symbol
_atom_site_fract_x
_atom_site_fract_y
_atom_site_fract_z
Co1 Co 0.0000 0.0000 0.0000
O1 O 0.0909(4) 0.03773(18) -0.09682(16)
H1 H 0.085(6) 0.014(3) -0.1413(19)
H2 H 0.115(6) 0.0880(18) -0.098(3)
N1 N -0.2192(4) 0.23411(17) -0.03927(17)
N2 N -0.1319(5) 0.25301(19) 0.03175(19)
N3 N -0.0978(4) 0.12109(18) 0.00368(18)
N4 N -0.0775(4) 0.44376(19) -0.33015(18)
N5 N -0.0106(4) 0.4461(3) -0.3950(2)
N6 N -0.2782(4) 0.46264(18) -0.42713(17)
N7 N -0.3069(4) 0.63965(19) -0.06995(19)
N8 N -0.3311(5) 0.7133(2) -0.0366(2)
N9 N -0.5334(5) 0.6875(2) -0.1379(2)
C1 C -0.2286(4) 0.3692(2) -0.1057(2)
C2 C -0.1480(5) 0.3656(2) -0.1679(2)
C3 C -0.0704(4) 0.4359(2) -0.1886(2)
C4 C -0.0824(5) 0.5107(2) -0.1499(2)
C5 C -0.1582(5) 0.5122(2) -0.0855(2)
C6 C -0.2320(4) 0.4414(2) -0.0626(2)
C7 C -0.3222(5) 0.2951(2) -0.0867(2)
H3 H -0.4059 0.3131 -0.0586
H4 H -0.3762 0.2694 -0.1354
C8 C -0.1460(6) 0.2876(3) -0.2142(2)
H5 H -0.2053 0.2454 -0.1927
H6 H -0.0352 0.2701 -0.2114
H7 H -0.1961 0.2975 -0.2681
C9 C 0.0254(5) 0.4321(3) -0.2529(2)
H8 H 0.1089 0.4746 -0.2443
H9 H 0.0795 0.3790 -0.2513
C10 C -0.0184(6) 0.5883(3) -0.1802(3)
H10 H -0.0365 0.6340 -0.1476
H11 H -0.0741 0.5981 -0.2332
H12 H 0.0965 0.5825 -0.1791
C11 C -0.1607(5) 0.5914(2) -0.0401(2)
H13 H -0.1566 0.5787 0.0149
H14 H -0.0649 0.6238 -0.0440
C12 C -0.3167(5) 0.4413(3) 0.0051(2)
H15 H -0.3093 0.4953 0.0286
H16 H -0.2662 0.4016 0.0433
H17 H -0.4293 0.4271 -0.0127
C13 C -0.0610(5) 0.1827(2) 0.0551(2)
H18 H 0.0090 0.1763 0.1035
C14 C -0.1971(5) 0.1563(2) -0.0544(2)
H19 H -0.2456 0.1296 -0.1006
C15 C -0.1359(5) 0.4575(3) -0.4511(2)
H20 H -0.1273 0.4617 -0.5037
C16 C -0.2366(5) 0.4537(2) -0.3505(2)
H21 H -0.3088 0.4542 -0.3157
C17 C -0.4677(6) 0.7374(3) -0.0801(3)
H22 H -0.5166 0.7872 -0.0710
C18 C -0.4272(5) 0.6268(3) -0.1300(2)
H23 H -0.4360 0.5806 -0.1625
Co1A Co -0.5000 0.5000 -0.5000
Co1A_2 Co -0.5000 -0.5000 -0.5000
O1B O -0.0909(4) -0.03773(18) 0.09682(16)
H1B H -0.085(6) -0.014(3) 0.1413(19)
H2B H -0.115(6) -0.0880(18) 0.098(3)
N1A N -0.2808(4) -0.26589(17) -0.46073(17)
N2A N -0.3681(5) -0.24699(19) -0.53175(19)
N3A N -0.4022(4) -0.37891(18) -0.50368(18)
N3B N 0.0978(4) -0.12109(18) -0.00368(18)
N4A N -0.4225(4) -0.05624(19) -0.16985(18)
N5A N -0.4894(4) -0.0539(3) -0.1050(2)
N6A N -0.2218(4) -0.03736(18) -0.07287(17)
N6C N 0.2218(4) 0.03736(18) 0.07287(17)
N7A N -0.1931(4) 0.13965(19) -0.43005(19)
N8A N -0.1689(5) 0.2133(2) -0.4634(2)
N9A N 0.0334(5) 0.1875(2) -0.3621(2)
C1A C -0.2714(4) -0.1308(2) -0.3943(2)
C2A C -0.3520(5) -0.1344(2) -0.3321(2)
C3A C -0.4296(4) -0.0641(2) -0.3114(2)
C4A C -0.4176(5) 0.0107(2) -0.3501(2)
C5A C -0.3418(5) 0.0122(2) -0.4145(2)
C6A C -0.2680(4) -0.0586(2) -0.4374(2)
C7A C -0.1778(5) -0.2049(2) -0.4133(2)
H3A H -0.0941 -0.1869 -0.4414
H4A H -0.1238 -0.2306 -0.3646
C8A C -0.3540(6) -0.2124(3) -0.2858(2)
H5A H -0.2947 -0.2546 -0.3073
H6A H -0.4648 -0.2299 -0.2886
H7A H -0.3039 -0.2025 -0.2319
C9A C -0.5254(5) -0.0679(3) -0.2471(2)
H8A H -0.6089 -0.0254 -0.2557
H9A H -0.5795 -0.1210 -0.2487
C10A C -0.4816(6) 0.0883(3) -0.3198(3)
H10A H -0.4635 0.1340 -0.3524
H11A H -0.4259 0.0981 -0.2668
H12A H -0.5965 0.0825 -0.3209
C11A C -0.3393(5) 0.0914(2) -0.4599(2)
H13A H -0.3434 0.0787 -0.5149
H14A H -0.4351 0.1238 -0.4560
C12A C -0.1833(5) -0.0587(3) -0.5051(2)
H15A H -0.1907 -0.0047 -0.5286
H16A H -0.2338 -0.0984 -0.5433
H17A H -0.0707 -0.0729 -0.4873
C13A C -0.4390(5) -0.3173(2) -0.5551(2)
H18A H -0.5090 -0.3237 -0.6035
C14A C -0.3029(5) -0.3437(2) -0.4456(2)
H19A H -0.2544 -0.3704 -0.3994
C15A C -0.3641(5) -0.0425(3) -0.0489(2)
H20A H -0.3727 -0.0383 0.0037
C16A C -0.2634(5) -0.0463(2) -0.1495(2)
H21A H -0.1912 -0.0458 -0.1843
C17A C -0.0323(6) 0.2374(3) -0.4199(3)
H22A H 0.0166 0.2872 -0.4290
C18A C -0.0728(5) 0.1268(3) -0.3700(2)
H23A H -0.0640 0.0806 -0.3375
O2 O -0.6100(4) 0.4125(2) -0.16284(17)
O3 O -0.5359(4) 0.3598(2) -0.2634(2)
O4 O -0.5415(5) 0.4901(2) -0.25141(19)
N10 N -0.5645(4) 0.4208(2) -0.2252(2)
O5 O -0.7116(5) 0.2218(2) -0.2333(2)
O6 O -0.8099(9) 0.1909(3) -0.0976(2)
O7? O -0.5417(19) 0.1170(10) -0.1343(10)
loop_
_geom_bond_atom_site_label_1
_geom_bond_atom_site_label_2
_geom_bond_site_symmetry_1
_geom_bond_site_symmetry_2
Co1 O1 1_555 1_555
O1 H1 1_555 1_555
H2 O1 1_555 1_555
O2 N10 1_555 1_555
O3 N10 1_555 1_555
O4 N10 1_555 1_555
N1 N2 1_555 1_555
N2 C13 1_555 1_555
N3 Co1 1_555 1_555
N4 N5 1_555 1_555
N5 C15 1_555 1_555
N6 C15 1_555 1_555
N7 N8 1_555 1_555
N8 C17 1_555 1_555
N9 C17 1_555 1_555
C1 C2 1_555 1_555
C2 C3 1_555 1_555
C3 C4 1_555 1_555
C4 C5 1_555 1_555
C5 C6 1_555 1_555
C6 C1 1_555 1_555
C7 N1 1_555 1_555
H3 C7 1_555 1_555
H4 C7 1_555 1_555
C8 C2 1_555 1_555
H5 C8 1_555 1_555
H6 C8 1_555 1_555
H7 C8 1_555 1_555
C9 N4 1_555 1_555
H8 C9 1_555 1_555
H9 C9 1_555 1_555
C10 C4 1_555 1_555
H10 C10 1_555 1_555
H11 C10 1_555 1_555
H12 C10 1_555 1_555
C11 N7 1_555 1_555
H13 C11 1_555 1_555
H14 C11 1_555 1_555
C12 C6 1_555 1_555
H15 C12 1_555 1_555
H16 C12 1_555 1_555
H17 C12 1_555 1_555
C13 N3 1_555 1_555
H18 C13 1_555 1_555
C14 N1 1_555 1_555
H19 C14 1_555 1_555
C15 H20 1_555 1_555
C16 N4 1_555 1_555
H21 C16 1_555 1_555
C17 H22 1_555 1_555
C18 N7 1_555 1_555
H23 C18 1_555 1_555
Co1A N6 1_555 1_555
Co1A_2 N3A 1_555 1_555
O1B Co1 1_555 1_555
H1B O1B 1_555 1_555
H2B O1B 1_555 1_555
N1A N2A 1_555 1_555
N2A C13A 1_555 1_555
N3A C13A 1_555 1_555
N3B Co1 1_555 1_555
N4A N5A 1_555 1_555
N5A C15A 1_555 1_555
N6A Co1 1_555 1_555
N6C Co1 1_555 1_555
N7A N8A 1_555 1_555
N8A C17A 1_555 1_555
N9A C17A 1_555 1_555
C1A C2A 1_555 1_555
C2A C3A 1_555 1_555
C3A C4A 1_555 1_555
C4A C5A 1_555 1_555
C5A C6A 1_555 1_555
C6A C1A 1_555 1_555
C7A N1A 1_555 1_555
H3A C7A 1_555 1_555
H4A C7A 1_555 1_555
C8A C2A 1_555 1_555
H5A C8A 1_555 1_555
H6A C8A 1_555 1_555
H7A C8A 1_555 1_555
C9A N4A 1_555 1_555
H8A C9A 1_555 1_555
H9A C9A 1_555 1_555
C10A C4A 1_555 1_555
H10A C10A 1_555 1_555
H11A C10A 1_555 1_555
H12A C10A 1_555 1_555
C11A N7A 1_555 1_555
H13A C11A 1_555 1_555
H14A C11A 1_555 1_555
C12A C6A 1_555 1_555
H15A C12A 1_555 1_555
H16A C12A 1_555 1_555
H17A C12A 1_555 1_555
C13A H18A 1_555 1_555
C14A N1A 1_555 1_555
H19A C14A 1_555 1_555
C15A N6A 1_555 1_555
H20A C15A 1_555 1_555
C16A N4A 1_555 1_555
H21A C16A 1_555 1_555
C17A H22A 1_555 1_555
C18A N7A 1_555 1_555
H23A C18A 1_555 1_555
N3 C14 1_555 1_555
N6 C16 1_555 1_555
N9 C18 1_555 1_555
C1 C7 1_555 1_555
C3 C9 1_555 1_555
C5 C11 1_555 1_555
N3A C14A 1_555 1_555
N6A C16A 1_555 1_555
N9A C18A 1_555 1_555
C1A C7A 1_555 1_555
C3A C9A 1_555 1_555
C5A C11A 1_555 1_555

#END
