
#######################################################################
#
#                 Cambridge Crystallographic Data Centre
#                                CCDC 
#
#######################################################################
#
# If this CIF has been generated from an entry in the Cambridge 
# Structural Database, then it will include bibliographic, chemical, 
# crystal, experimental, refinement or atomic coordinate data resulting 
# from the CCDC's data processing and validation procedures.
#
#######################################################################

data_SUTQOO
_symmetry_cell_setting           rhombohedral
_symmetry_space_group_name_H-M   'R -3'
_symmetry_Int_Tables_number      148
_space_group_name_Hall           '-R 3'
loop_
_symmetry_equiv_pos_site_id
_symmetry_equiv_pos_as_xyz
1 x,y,z
2 -y,x-y,z
3 -x+y,-x,z
4 2/3+x,1/3+y,1/3+z
5 2/3-y,1/3+x-y,1/3+z
6 2/3-x+y,1/3-x,1/3+z
7 1/3+x,2/3+y,2/3+z
8 1/3-y,2/3+x-y,2/3+z
9 1/3-x+y,2/3-x,2/3+z
10 -x,-y,-z
11 y,-x+y,-z
12 x-y,x,-z
13 1/3-x,2/3-y,2/3-z
14 1/3+y,2/3-x+y,2/3-z
15 1/3+x-y,2/3+x,2/3-z
16 2/3-x,1/3-y,1/3-z
17 2/3+y,1/3-x+y,1/3-z
18 2/3+x-y,1/3+x,1/3-z
_cell_length_a                   14.384(2)
_cell_length_b                   14.384(2)
_cell_length_c                   21.678(4)
_cell_angle_alpha                90
_cell_angle_beta                 90
_cell_angle_gamma                120
_cell_volume                     3884.27
loop_
_atom_site_label
_atom_site_type_symbol
_atom_site_fract_x
_atom_site_fract_y
_atom_site_fract_z
Co1 Co 0.5000 0.0000 0.0000
Cl1 Cl 0.43577(11) 0.12778(11) 0.02357(6)
O1 O 0.3535(3) -0.1301(3) 0.02977(19)
N1 N 0.5860(3) 0.0556(3) 0.18906(16)
N2 N 0.5586(3) -0.0501(3) 0.18660(18)
N3 N 0.5507(3) 0.0101(3) 0.09304(17)
C1 C 0.6378(4) 0.2251(3) 0.24442(19)
C2 C 0.7471(4) 0.3047(4) 0.24350(19)
C3 C 0.8340(4) 0.2756(5) 0.2395(3)
H1 H 0.9029 0.3399 0.2393
H2 H 0.8253 0.2360 0.2022
H3 H 0.8291 0.2323 0.2744
C4 C 0.6079(4) 0.1093(4) 0.2495(2)
H4 H 0.6659 0.1048 0.2694
H5 H 0.5446 0.0718 0.2753
C5 C 0.5387(4) -0.0722(4) 0.1276(2)
H6 H 0.5180 -0.1396 0.1112
C6 C 0.5807(4) 0.0895(4) 0.1330(2)
H7 H 0.5957 0.1586 0.1232
H8 H 0.307(4) -0.169(4) 0.011(2)
H9 H 0.329(7) -0.122(7) 0.064(3)
Co1B Co 0.5000 0.5000 0.0000
Co1A Co 1.0000 0.5000 0.0000
Co1B_2 Co 0.5000 -0.5000 0.0000
Co1A_2 Co 0.0000 -0.5000 0.0000
Cl1I Cl 0.56423(11) -0.12778(11) -0.02357(6)
Cl1B Cl 0.69201(16) 0.56423(11) 0.02357(6)
Cl1K Cl 0.30799(16) 0.43577(11) -0.02357(6)
Cl1A Cl 0.87222(11) 0.30799(16) 0.02357(6)
Cl1J Cl 1.12778(11) 0.69201(16) -0.02357(6)
O1I O 0.6465(3) 0.1301(3) -0.02977(19)
O1B O 0.5164(4) 0.6465(3) 0.02977(19)
O1K O 0.4836(4) 0.3535(3) -0.02977(19)
O1A O 1.1301(3) 0.4836(4) 0.02977(19)
O1J O 0.8699(3) 0.5164(4) -0.02977(19)
N1B N 0.4696(4) 0.4140(3) 0.18906(16)
N1A N 0.9444(3) 0.5304(4) 0.18906(16)
N1I N 0.4140(3) -0.0556(3) -0.18906(16)
N1K N 0.5304(4) -0.4140(3) -0.18906(16)
N1J N 0.0556(3) -0.5304(4) -0.18906(16)
N2B N 0.3913(4) 0.4414(3) 0.18660(18)
N2A N 1.0501(3) 0.6087(4) 0.18660(18)
N2I N 0.4414(3) 0.0501(3) -0.18660(18)
N2K N 0.6087(4) -0.4414(3) -0.18660(18)
N2J N -0.0501(3) -0.6087(4) -0.18660(18)
N3B N 0.4594(4) 0.4493(3) 0.09304(17)
N3A N 0.9899(3) 0.5406(4) 0.09304(17)
N3I N 0.4493(3) -0.0101(3) -0.09304(17)
N3K N 0.5406(4) -0.4493(3) -0.09304(17)
N3J N 0.0101(3) -0.5406(4) -0.09304(17)
N3K_2 N 0.5406(4) 0.5507(3) -0.09304(17)
N3J_2 N 1.0101(3) 0.4594(4) -0.09304(17)
C1A C 0.7749(3) 0.4127(5) 0.24442(19)
C1B C 0.5873(5) 0.3622(4) 0.24442(19)
C1I C 0.3622(4) -0.2251(3) -0.24442(19)
C1J C 0.2251(3) -0.4127(5) -0.24442(19)
C1K C 0.4127(5) -0.3622(4) -0.24442(19)
C2A C 0.6953(4) 0.4424(6) 0.24350(19)
C2B C 0.5576(6) 0.2529(4) 0.24350(19)
C2I C 0.2529(4) -0.3047(4) -0.24350(19)
C2J C 0.3047(4) -0.4424(6) -0.24350(19)
C2K C 0.4424(6) -0.2529(4) -0.24350(19)
C3B C 0.4416(6) 0.1660(4) 0.2395(3)
C3A C 0.7244(5) 0.5584(6) 0.2395(3)
C3I C 0.1660(4) -0.2756(5) -0.2395(3)
C3K C 0.5584(6) -0.1660(4) -0.2395(3)
C3J C 0.2756(5) -0.5584(6) -0.2395(3)
H1B H 0.4370 0.0971 0.2393
H1A H 0.6601 0.5630 0.2393
H1I H 0.0971 -0.3399 -0.2393
H1K H 0.5630 -0.0971 -0.2393
H1J H 0.3399 -0.5630 -0.2393
H2B H 0.4107 0.1747 0.2022
H2A H 0.7640 0.5893 0.2022
H2I H 0.1747 -0.2360 -0.2022
H2K H 0.5893 -0.1747 -0.2022
H2J H 0.2360 -0.5893 -0.2022
H3B H 0.4032 0.1709 0.2744
H3A H 0.7677 0.5968 0.2744
H3I H 0.1709 -0.2323 -0.2744
H3K H 0.5968 -0.1709 -0.2744
H3J H 0.2323 -0.5968 -0.2744
C4B C 0.5014(6) 0.3921(4) 0.2495(2)
C4A C 0.8907(4) 0.4986(6) 0.2495(2)
C4I C 0.3921(4) -0.1093(4) -0.2495(2)
C4K C 0.4986(6) -0.3921(4) -0.2495(2)
C4J C 0.1093(4) -0.4986(6) -0.2495(2)
H4B H 0.4389 0.3341 0.2694
H4A H 0.8952 0.5611 0.2694
H4I H 0.3341 -0.1048 -0.2694
H4K H 0.5611 -0.3341 -0.2694
H4J H 0.1048 -0.5611 -0.2694
H5B H 0.5272 0.4554 0.2753
H5A H 0.9282 0.4728 0.2753
H5I H 0.4554 -0.0718 -0.2753
H5K H 0.4728 -0.4554 -0.2753
H5J H 0.0718 -0.4728 -0.2753
C5B C 0.3891(6) 0.4613(4) 0.1276(2)
C5A C 1.0722(4) 0.6109(6) 0.1276(2)
C5I C 0.4613(4) 0.0722(4) -0.1276(2)
C5K C 0.6109(6) -0.4613(4) -0.1276(2)
C5J C -0.0722(4) -0.6109(6) -0.1276(2)
H6B H 0.3424 0.4820 0.1112
H6A H 1.1396 0.6576 0.1112
H6I H 0.4820 0.1396 -0.1112
H6K H 0.6576 -0.4820 -0.1112
H6J H -0.1396 -0.6576 -0.1112
C6B C 0.5088(6) 0.4193(4) 0.1330(2)
C6A C 0.9105(4) 0.4912(6) 0.1330(2)
C6I C 0.4193(4) -0.0895(4) -0.1330(2)
C6K C 0.4912(6) -0.4193(4) -0.1330(2)
C6J C 0.0895(4) -0.4912(6) -0.1330(2)
H7B H 0.5629 0.4043 0.1232
H7A H 0.8414 0.4371 0.1232
H7I H 0.4043 -0.1586 -0.1232
H7K H 0.4371 -0.4043 -0.1232
H7J H 0.1586 -0.4371 -0.1232
H8I H 0.693(4) 0.169(4) -0.011(2)
H8B H 0.524(6) 0.693(4) 0.011(2)
H8K H 0.476(6) 0.307(4) -0.011(2)
H8A H 1.169(4) 0.476(6) 0.011(2)
H8J H 0.831(4) 0.524(6) -0.011(2)
H9I H 0.671(7) 0.122(7) -0.064(3)
H9B H 0.549(10) 0.671(7) 0.064(3)
H9K H 0.451(10) 0.329(7) -0.064(3)
H9A H 1.122(7) 0.451(10) 0.064(3)
H9J H 0.878(7) 0.549(10) -0.064(3)
O2 O 0.6667 0.3333 0.0754(4)
O3 O 0.3333 -0.3333 0.0930(11)
loop_
_geom_bond_atom_site_label_1
_geom_bond_atom_site_label_2
_geom_bond_site_symmetry_1
_geom_bond_site_symmetry_2
Co1 Cl1 1_555 1_555
O1 Co1 1_555 1_555
N1 N2 1_555 1_555
N2 C5 1_555 1_555
N3 Co1 1_555 1_555
C1 C2 1_555 1_555
C2 C3 1_555 1_555
C3 H1 1_555 1_555
H2 C3 1_555 1_555
H3 C3 1_555 1_555
C4 N1 1_555 1_555
H4 C4 1_555 1_555
H5 C4 1_555 1_555
C5 N3 1_555 1_555
H6 C5 1_555 1_555
C6 N1 1_555 1_555
H7 C6 1_555 1_555
H8 O1 1_555 1_555
H9 O1 1_555 1_555
Co1B Cl1B 1_555 1_555
Co1A Cl1A 1_555 1_555
Co1B_2 N3K 1_555 1_555
Co1A_2 N3J 1_555 1_555
Cl1I Co1 1_555 1_555
Cl1K Co1B 1_555 1_555
Cl1J Co1A 1_555 1_555
O1I Co1 1_555 1_555
O1B Co1B 1_555 1_555
O1K Co1B 1_555 1_555
O1A Co1A 1_555 1_555
O1J Co1A 1_555 1_555
N1B N2B 1_555 1_555
N1A N2A 1_555 1_555
N1I N2I 1_555 1_555
N1K N2K 1_555 1_555
N1J N2J 1_555 1_555
N2B C5B 1_555 1_555
N2A C5A 1_555 1_555
N2I C5I 1_555 1_555
N2K C5K 1_555 1_555
N2J C5J 1_555 1_555
N3B Co1B 1_555 1_555
N3A Co1A 1_555 1_555
N3I Co1 1_555 1_555
N3K C5K 1_555 1_555
N3J C5J 1_555 1_555
N3K_2 Co1B 1_555 1_555
N3J_2 Co1A 1_555 1_555
C1A C2 1_555 1_555
C1B C2A 1_555 1_555
C1I C2I 1_555 1_555
C1J C2I 1_555 1_555
C1K C2J 1_555 1_555
C2A C1A 1_555 1_555
C2B C1 1_555 1_555
C2I C3I 1_555 1_555
C2J C1J 1_555 1_555
C2K C1I 1_555 1_555
C3B C2B 1_555 1_555
C3A C2A 1_555 1_555
C3I H1I 1_555 1_555
C3K C2K 1_555 1_555
C3J C2J 1_555 1_555
H1B C3B 1_555 1_555
H1A C3A 1_555 1_555
H1K C3K 1_555 1_555
H1J C3J 1_555 1_555
H2B C3B 1_555 1_555
H2A C3A 1_555 1_555
H2I C3I 1_555 1_555
H2K C3K 1_555 1_555
H2J C3J 1_555 1_555
H3B C3B 1_555 1_555
H3A C3A 1_555 1_555
H3I C3I 1_555 1_555
H3K C3K 1_555 1_555
H3J C3J 1_555 1_555
C4B N1B 1_555 1_555
C4A N1A 1_555 1_555
C4I N1I 1_555 1_555
C4K N1K 1_555 1_555
C4J N1J 1_555 1_555
H4B C4B 1_555 1_555
H4A C4A 1_555 1_555
H4I C4I 1_555 1_555
H4K C4K 1_555 1_555
H4J C4J 1_555 1_555
H5B C4B 1_555 1_555
H5A C4A 1_555 1_555
H5I C4I 1_555 1_555
H5K C4K 1_555 1_555
H5J C4J 1_555 1_555
C5B N3B 1_555 1_555
C5A N3A 1_555 1_555
C5I N3I 1_555 1_555
C5K H6K 1_555 1_555
C5J H6J 1_555 1_555
H6B C5B 1_555 1_555
H6A C5A 1_555 1_555
H6I C5I 1_555 1_555
C6B N1B 1_555 1_555
C6A N1A 1_555 1_555
C6I N1I 1_555 1_555
C6K N1K 1_555 1_555
C6J N1J 1_555 1_555
H7B C6B 1_555 1_555
H7A C6A 1_555 1_555
H7I C6I 1_555 1_555
H7K C6K 1_555 1_555
H7J C6J 1_555 1_555
H8I O1I 1_555 1_555
H8B O1B 1_555 1_555
H8K O1K 1_555 1_555
H8A O1A 1_555 1_555
H8J O1J 1_555 1_555
H9I O1I 1_555 1_555
H9B O1B 1_555 1_555
H9K O1K 1_555 1_555
H9A O1A 1_555 1_555
H9J O1J 1_555 1_555
N3 C6 1_555 1_555
C1 C4 1_555 1_555
N3B C6B 1_555 1_555
N3A C6A 1_555 1_555
N3I C6I 1_555 1_555
N3K C6K 1_555 1_555
N3J C6J 1_555 1_555
C1A C4A 1_555 1_555
C1B C2B 1_555 1_555
C1B C4B 1_555 1_555
C1I C4I 1_555 1_555
C1J C4J 1_555 1_555
C1K C2K 1_555 1_555
C1K C4K 1_555 1_555

#END
