
#######################################################################
#
#                 Cambridge Crystallographic Data Centre
#                                CCDC 
#
#######################################################################
#
# If this CIF has been generated from an entry in the Cambridge 
# Structural Database, then it will include bibliographic, chemical, 
# crystal, experimental, refinement or atomic coordinate data resulting 
# from the CCDC's data processing and validation procedures.
#
#######################################################################

data_SUTROP
_symmetry_cell_setting           monoclinic
_symmetry_space_group_name_H-M   'P 21/c'
_symmetry_Int_Tables_number      14
_space_group_name_Hall           '-P 2ybc'
loop_
_symmetry_equiv_pos_site_id
_symmetry_equiv_pos_as_xyz
1 x,y,z
2 -x,1/2+y,1/2-z
3 -x,-y,-z
4 x,1/2-y,1/2+z
_cell_length_a                   13.3651(16)
_cell_length_b                   11.2203(13)
_cell_length_c                   16.4170(19)
_cell_angle_alpha                90
_cell_angle_beta                 113.6720(10)
_cell_angle_gamma                90
_cell_volume                     2254.75
loop_
_atom_site_label
_atom_site_type_symbol
_atom_site_fract_x
_atom_site_fract_y
_atom_site_fract_z
Pb1 Pb 0.074953(13) 0.222801(14) 0.342911(10)
N1 N 0.1805(3) 0.3893(3) 0.4466(2)
O1 O -0.0174(3) 0.4824(3) 0.2448(2)
O2 O 0.1045(3) 0.3784(3) 0.2207(2)
C1 C 0.1654(4) 0.4108(4) 0.5224(3)
C2 C 0.3518(4) 0.1640(4) 0.4207(3)
N2 N 0.0097(3) 0.2792(3) 0.4635(2)
N3 N 0.2685(3) 0.1864(3) 0.3421(2)
O3 O 0.0210(3) 0.5227(3) 0.13084(19)
C3 C 0.3208(4) 0.1209(4) 0.4936(3)
N4 N 0.2137(3) 0.1223(3) 0.4782(2)
C4 C 0.3987(4) 0.0784(4) 0.5725(3)
H1 H 0.4722 0.0790 0.5820
C5 C -0.0809(4) 0.2288(4) 0.4641(3)
H2 H -0.1200 0.1762 0.4187
C6 C 0.2642(4) 0.4425(4) 0.4362(3)
H3 H 0.2726 0.4303 0.3832
C7 C 0.3262(4) 0.5319(4) 0.5786(3)
H4 H 0.3764 0.5775 0.6239
C8 C 0.3990(4) 0.2228(4) 0.2785(3)
H5 H 0.4130 0.2387 0.2285
C9 C -0.0623(4) 0.3338(4) 0.5943(3)
H6 H -0.0870 0.3529 0.6382
C10 C 0.4829(4) 0.2063(4) 0.3602(3)
H7 H 0.5550 0.2145 0.3669
C11 C 0.0669(4) 0.3575(4) 0.5282(3)
C12 C 0.2578(4) 0.0340(4) 0.6214(3)
H8 H 0.2339 0.0043 0.6634
C13 C -0.1186(4) 0.2521(4) 0.5297(3)
H9 H -0.1801 0.2137 0.5301
C14 C 0.2929(4) 0.2151(4) 0.2727(3)
H10 H 0.2358 0.2306 0.2181
C15 C 0.2381(4) 0.4806(4) 0.5895(3)
H11 H 0.2279 0.4931 0.6417
C16 C 0.3390(4) 0.5148(4) 0.5002(3)
H12 H 0.3960 0.5508 0.4906
N5 N 0.0357(3) 0.4605(3) 0.1989(2)
C17 C 0.4596(4) 0.1773(4) 0.4327(3)
H13 H 0.5157 0.1670 0.4886
C18 C 0.3669(4) 0.0348(4) 0.6377(3)
H14 H 0.4186 0.0066 0.6914
C19 C 0.1841(4) 0.0784(4) 0.5413(3)
H15 H 0.1103 0.0777 0.5304
C20 C 0.0307(4) 0.3875(4) 0.5944(3)
H16 H 0.0688 0.4429 0.6380
Pb1A Pb -0.074953(13) 0.722801(14) 0.157089(10)
O3A O -0.0210(3) 0.0227(3) 0.36916(19)
P1 P -0.30175(11) 0.26599(11) 0.20859(8)
F1 F -0.3101(2) 0.2274(2) 0.29948(18)
F2 F -0.3574(2) 0.3910(2) 0.21188(18)
F3 F -0.4199(3) 0.2097(2) 0.1527(2)
F4 F -0.1846(2) 0.3222(3) 0.26456(19)
F5 F -0.2947(3) 0.3044(3) 0.11743(19)
F6 F -0.2456(3) 0.1412(3) 0.2060(2)
loop_
_geom_bond_atom_site_label_1
_geom_bond_atom_site_label_2
_geom_bond_site_symmetry_1
_geom_bond_site_symmetry_2
Pb1 N1 1_555 1_555
P1 F1 1_555 1_555
F2 P1 1_555 1_555
F3 P1 1_555 1_555
N1 C1 1_555 1_555
F4 P1 1_555 1_555
O1 N5 1_555 1_555
O2 Pb1 1_555 1_555
C1 C11 1_555 1_555
F5 P1 1_555 1_555
C2 N3 1_555 1_555
N2 Pb1 1_555 1_555
N3 Pb1 1_555 1_555
O3 N5 1_555 1_555
C3 C2 1_555 1_555
N4 Pb1 1_555 1_555
C4 C3 1_555 1_555
H1 C4 1_555 1_555
C5 N2 1_555 1_555
H2 C5 1_555 1_555
C6 N1 1_555 1_555
H3 C6 1_555 1_555
C7 H4 1_555 1_555
C8 H5 1_555 1_555
C9 H6 1_555 1_555
C10 C8 1_555 1_555
H7 C10 1_555 1_555
C11 N2 1_555 1_555
C12 H8 1_555 1_555
C13 C5 1_555 1_555
H9 C13 1_555 1_555
C14 N3 1_555 1_555
H10 C14 1_555 1_555
C15 C1 1_555 1_555
H11 C15 1_555 1_555
C16 C6 1_555 1_555
H12 C16 1_555 1_555
N5 O2 1_555 1_555
C17 C2 1_555 1_555
H13 C17 1_555 1_555
C18 C4 1_555 1_555
H14 C18 1_555 1_555
C19 N4 1_555 1_555
H15 C19 1_555 1_555
C20 C9 1_555 1_555
H16 C20 1_555 1_555
F6 P1 1_555 1_555
Pb1A O3 1_555 1_555
O3A Pb1 1_555 1_555
C3 N4 1_555 1_555
C7 C15 1_555 1_555
C7 C16 1_555 1_555
C8 C14 1_555 1_555
C9 C13 1_555 1_555
C10 C17 1_555 1_555
C11 C20 1_555 1_555
C12 C18 1_555 1_555
C12 C19 1_555 1_555

#END
