
#######################################################################
#
#                 Cambridge Crystallographic Data Centre
#                                CCDC 
#
#######################################################################
#
# If this CIF has been generated from an entry in the Cambridge 
# Structural Database, then it will include bibliographic, chemical, 
# crystal, experimental, refinement or atomic coordinate data resulting 
# from the CCDC's data processing and validation procedures.
#
#######################################################################

data_SUTTAD
_symmetry_cell_setting           monoclinic
_symmetry_space_group_name_H-M   'C 2/c'
_symmetry_Int_Tables_number      15
_space_group_name_Hall           '-C 2yn'
loop_
_symmetry_equiv_pos_site_id
_symmetry_equiv_pos_as_xyz
1 x,y,z
2 -x,y,1/2-z
3 1/2+x,1/2+y,z
4 1/2-x,1/2+y,1/2-z
5 -x,-y,-z
6 x,-y,1/2+z
7 1/2-x,1/2-y,-z
8 1/2+x,1/2-y,1/2+z
_cell_length_a                   13.920(3)
_cell_length_b                   6.8578(14)
_cell_length_c                   13.078(3)
_cell_angle_alpha                90
_cell_angle_beta                 101.885(4)
_cell_angle_gamma                90
_cell_volume                     1221.67
loop_
_atom_site_label
_atom_site_type_symbol
_atom_site_fract_x
_atom_site_fract_y
_atom_site_fract_z
C1 C 0.2681(3) 0.0202(5) 0.3556(3)
H1 H 0.2737 -0.0665 0.3025
C2 C 0.1373(3) 0.0086(5) 0.5578(3)
H2 H 0.0975 -0.0837 0.5806
C3 C 0.0000 0.3974(7) 0.2500
H3 H 0.0000 0.2618 0.2500
C4 C 0.0587(3) 0.6786(5) 0.3281(4)
H4 H 0.0987 0.7461 0.3823
C5 C 0.0000 0.7802(7) 0.2500
H5 H 0.0000 0.9158 0.2500
Cu1 Cu 0.17285(3) 0.32933(5) 0.44000(3)
N1 N 0.0599(2) 0.4840(4) 0.3285(2)
O1 O 0.1980(2) 0.1362(4) 0.3361(2)
O2 O 0.09431(19) 0.1300(4) 0.4927(2)
O3 O 0.33158(19) 0.0060(3) 0.4375(2)
O4 O 0.2263(2) -0.0036(4) 0.5954(2)
C1A C -0.2681(3) 0.0202(5) 0.1444(3)
H1A H -0.2737 -0.0665 0.1975
C2A C -0.1373(3) 0.0086(5) -0.0578(3)
H2A H -0.0975 -0.0837 -0.0806
C4A C -0.0587(3) 0.6786(5) 0.1719(4)
H4A H -0.0987 0.7461 0.1177
Cu1A Cu -0.17285(3) 0.32933(5) 0.06000(3)
Cu1F Cu 0.32715(3) 0.17067(5) 0.56000(3)
Cu1G Cu -0.32715(3) 0.17067(5) -0.06000(3)
N1A N -0.0599(2) 0.4840(4) 0.1715(2)
O1A O -0.1980(2) 0.1362(4) 0.1639(2)
O2A O -0.09431(19) 0.1300(4) 0.0073(2)
O3F O 0.16842(19) 0.4940(3) 0.5625(2)
O3G O -0.16842(19) 0.4940(3) -0.0625(2)
O3A O -0.33158(19) 0.0060(3) 0.0625(2)
O4F O 0.2737(2) 0.5036(4) 0.4046(2)
O4G O -0.2737(2) 0.5036(4) 0.0954(2)
O4A O -0.2263(2) -0.0036(4) -0.0954(2)
loop_
_geom_bond_atom_site_label_1
_geom_bond_atom_site_label_2
_geom_bond_site_symmetry_1
_geom_bond_site_symmetry_2
C1 H1 1_555 1_555
C2 H2 1_555 1_555
C3 H3 1_555 1_555
C4 H4 1_555 1_555
C5 C4 1_555 1_555
H5 C5 1_555 1_555
Cu1 N1 1_555 1_555
N1 C3 1_555 1_555
O1 C1 1_555 1_555
O2 C2 1_555 1_555
O3 C1 1_555 1_555
O4 C2 1_555 1_555
C1A H1A 1_555 1_555
C2A H2A 1_555 1_555
C4A C5 1_555 1_555
H4A C4A 1_555 1_555
Cu1A N1A 1_555 1_555
Cu1F O3 1_555 1_555
Cu1G O3A 1_555 1_555
N1A C3 1_555 1_555
O1A C1A 1_555 1_555
O2A C2A 1_555 1_555
O3F Cu1 1_555 1_555
O3G Cu1A 1_555 1_555
O3A C1A 1_555 1_555
O4F Cu1 1_555 1_555
O4G Cu1A 1_555 1_555
O4A C2A 1_555 1_555
C4 N1 1_555 1_555
Cu1 O1 1_555 1_555
Cu1 O2 1_555 1_555
O4 Cu1F 1_555 1_555
C4A N1A 1_555 1_555
Cu1A O1A 1_555 1_555
Cu1A O2A 1_555 1_555
Cu1G O4A 1_555 1_555

#END
