
#######################################################################
#
#                 Cambridge Crystallographic Data Centre
#                                CCDC 
#
#######################################################################
#
# If this CIF has been generated from an entry in the Cambridge 
# Structural Database, then it will include bibliographic, chemical, 
# crystal, experimental, refinement or atomic coordinate data resulting 
# from the CCDC's data processing and validation procedures.
#
#######################################################################

data_SUVLOL
_symmetry_cell_setting           monoclinic
_symmetry_space_group_name_H-M   'P 21/c'
_symmetry_Int_Tables_number      14
_space_group_name_Hall           '-P 2ybc'
loop_
_symmetry_equiv_pos_site_id
_symmetry_equiv_pos_as_xyz
1 x,y,z
2 -x,1/2+y,1/2-z
3 -x,-y,-z
4 x,1/2-y,1/2+z
_cell_length_a                   8.698(3)
_cell_length_b                   23.693(7)
_cell_length_c                   9.065(3)
_cell_angle_alpha                90
_cell_angle_beta                 104.868(7)
_cell_angle_gamma                90
_cell_volume                     1805.58
loop_
_atom_site_label
_atom_site_type_symbol
_atom_site_fract_x
_atom_site_fract_y
_atom_site_fract_z
Cu1 Cu 0.48479(9) 0.60326(3) 0.49153(8)
S1 S 0.7545(2) 0.76544(7) 0.3604(2)
S2 S 0.1820(2) 0.73010(8) 0.6700(2)
O1 O 0.3147(5) 0.60048(17) 0.2988(4)
O2 O 0.2114(5) 0.52968(18) 0.4057(5)
O3 O -0.3576(5) 0.59777(18) -0.3132(4)
O4 O -0.4713(5) 0.53181(18) -0.1989(5)
O5 O 0.6024(5) 0.54440(16) 0.4135(5)
H1 H 0.6695 0.5245 0.4747
H2 H 0.5503 0.5243 0.3421
N1 N 0.6045(6) 0.6812(2) 0.4283(5)
N2 N 0.3654(6) 0.6661(2) 0.5674(5)
C1 C 0.8208(7) 0.6519(3) 0.3136(7)
H5 H 0.8434 0.6200 0.3848
H6 H 0.9209 0.6695 0.3076
H7 H 0.7633 0.6384 0.2123
C2 C 0.7216(7) 0.6940(3) 0.3686(7)
C3 C 0.6008(7) 0.7790(3) 0.4421(7)
H8 H 0.5664 0.8154 0.4639
C4 C 0.5363(7) 0.7291(3) 0.4707(7)
C5 C 0.4074(7) 0.7216(3) 0.5432(7)
C6 C 0.3192(8) 0.7610(3) 0.5920(7)
H9 H 0.3320 0.8006 0.5837
C7 C 0.2479(7) 0.6641(3) 0.6348(7)
C8 C 0.1793(8) 0.6115(3) 0.6810(7)
H10 H 0.2184 0.5788 0.6350
H11 H 0.0630 0.6130 0.6461
H12 H 0.2114 0.6079 0.7925
C9 C 0.2061(7) 0.5644(3) 0.3010(7)
C10 C 0.0584(7) 0.5656(2) 0.1701(7)
C11 C -0.0653(7) 0.5296(2) 0.1720(7)
H13 H -0.0566 0.5046 0.2556
C12 C -0.2023(7) 0.5295(2) 0.0535(7)
H14 H -0.2874 0.5047 0.0562
C13 C -0.2151(7) 0.5661(2) -0.0705(6)
C14 C -0.3600(7) 0.5642(3) -0.2034(7)
C15 C 0.0456(7) 0.6019(2) 0.0475(6)
H15 H 0.1302 0.6270 0.0457
C16 C -0.0889(6) 0.6015(2) -0.0714(6)
H16 H -0.0955 0.6260 -0.1557
Cu1_2 Cu -0.51521(9) 0.60326(3) -0.50847(8)
O3_2 O 0.6424(5) 0.59777(18) 0.6868(4)
O6 O 0.4469(5) 0.60710(18) 0.0404(5)
H3 H 0.4105 0.5976 0.1145
H4 H 0.4552 0.5783 -0.0107
loop_
_geom_bond_atom_site_label_1
_geom_bond_atom_site_label_2
_geom_bond_site_symmetry_1
_geom_bond_site_symmetry_2
Cu1 O1 1_555 1_555
S1 C2 1_555 1_555
S2 C6 1_555 1_555
O1 C9 1_555 1_555
O2 C9 1_555 1_555
O3 C14 1_555 1_555
O4 C14 1_555 1_555
O5 Cu1 1_555 1_555
H1 O5 1_555 1_555
H2 O5 1_555 1_555
O6 H3 1_555 1_555
H4 O6 1_555 1_555
N1 Cu1 1_555 1_555
N2 Cu1 1_555 1_555
C1 H5 1_555 1_555
H6 C1 1_555 1_555
H7 C1 1_555 1_555
C2 N1 1_555 1_555
C3 S1 1_555 1_555
H8 C3 1_555 1_555
C4 N1 1_555 1_555
C5 N2 1_555 1_555
C6 C5 1_555 1_555
H9 C6 1_555 1_555
C7 S2 1_555 1_555
C8 C7 1_555 1_555
H10 C8 1_555 1_555
H11 C8 1_555 1_555
H12 C8 1_555 1_555
C9 C10 1_555 1_555
C10 C11 1_555 1_555
C11 H13 1_555 1_555
C12 C11 1_555 1_555
H14 C12 1_555 1_555
C13 C12 1_555 1_555
C14 C13 1_555 1_555
C15 C10 1_555 1_555
H15 C15 1_555 1_555
C16 C13 1_555 1_555
H16 C16 1_555 1_555
Cu1_2 O3 1_555 1_555
O3_2 Cu1 1_555 1_555
N2 C7 1_555 1_555
C1 C2 1_555 1_555
C3 C4 1_555 1_555
C4 C5 1_555 1_555
C15 C16 1_555 1_555

#END
