
#######################################################################
#
#                 Cambridge Crystallographic Data Centre
#                                CCDC 
#
#######################################################################
#
# If this CIF has been generated from an entry in the Cambridge 
# Structural Database, then it will include bibliographic, chemical, 
# crystal, experimental, refinement or atomic coordinate data resulting 
# from the CCDC's data processing and validation procedures.
#
#######################################################################

data_SUVMAY
_symmetry_cell_setting           triclinic
_symmetry_space_group_name_H-M   'P -1'
_symmetry_Int_Tables_number      2
_space_group_name_Hall           '-P 1'
loop_
_symmetry_equiv_pos_site_id
_symmetry_equiv_pos_as_xyz
1 x,y,z
2 -x,-y,-z
_cell_length_a                   9.8853(9)
_cell_length_b                   13.2167(13)
_cell_length_c                   13.8481(12)
_cell_angle_alpha                68.540(1)
_cell_angle_beta                 73.467(2)
_cell_angle_gamma                74.596(2)
_cell_volume                     1587.55
loop_
_atom_site_label
_atom_site_type_symbol
_atom_site_fract_x
_atom_site_fract_y
_atom_site_fract_z
Co1 Co 0.5000 1.0000 0.5000
O1 O 0.9332(4) 0.8551(3) 0.0377(3)
O2 O 0.5533(4) 1.1305(3) -0.0624(3)
O3 O 0.2888(3) 1.0346(3) 0.4829(3)
O4 O 0.2234(3) 0.8701(3) 0.5557(3)
O5 O 0.4940(4) 0.8276(3) 0.5571(3)
H1 H 0.5794 0.8217 0.5627
H2 H 0.4921 0.7804 0.5292
N1 N 0.8476(4) 0.9282(3) -0.0175(3)
N2 N 0.6727(4) 1.0643(3) -0.0668(3)
N3 N 0.5797(4) 0.9994(3) 0.3357(3)
C1 C 0.8637(5) 0.9432(4) -0.1337(4)
C2 C 0.7751(5) 1.0609(4) -0.1690(3)
C3 C 0.7305(5) 0.9946(4) 0.0173(3)
C4 C 0.7969(6) 0.8522(4) -0.1362(4)
H3 H 0.8486 0.7812 -0.1025
H4 H 0.8016 0.8591 -0.2084
H5 H 0.6984 0.8595 -0.0991
C5 C 1.0217(5) 0.9291(5) -0.1860(4)
H6 H 1.0658 0.9788 -0.1740
H7 H 1.0319 0.9452 -0.2609
H8 H 1.0676 0.8543 -0.1563
C6 C 0.6924(5) 1.0824(4) -0.2544(4)
H9 H 0.6314 1.0287 -0.2312
H10 H 0.7589 1.0769 -0.3189
H11 H 0.6349 1.1552 -0.2670
C7 C 0.8598(6) 1.1532(4) -0.1999(4)
H12 H 0.7960 1.2233 -0.2131
H13 H 0.9320 1.1515 -0.2628
H14 H 0.9048 1.1428 -0.1431
C8 C 0.6775(5) 0.9958(4) 0.1258(3)
C9 C 0.5951(5) 1.0910(4) 0.1493(4)
H15 H 0.5715 1.1551 0.0950
C10 C 0.5494(5) 1.0888(4) 0.2536(4)
H16 H 0.4946 1.1527 0.2680
C11 C 0.6592(5) 0.9093(4) 0.3126(4)
H17 H 0.6823 0.8469 0.3684
C12 C 0.7090(5) 0.9033(4) 0.2115(4)
H18 H 0.7634 0.8379 0.2001
C13 C 0.2007(5) 0.9749(4) 0.5079(4)
C14 C 0.0569(5) 1.0235(4) 0.4828(4)
H19 H 0.0456 1.0958 0.4373
Co1_2 Co -0.5000 1.0000 0.5000
O1A O 0.0668(4) 1.1449(3) 0.9623(3)
O2A O 0.4467(4) 0.8695(3) 1.0624(3)
O3A O -0.2888(3) 0.9654(3) 0.5171(3)
O3A_2 O 0.7112(3) 0.9654(3) 0.5171(3)
O4A O -0.2234(3) 1.1299(3) 0.4443(3)
O5A O 0.5060(4) 1.1724(3) 0.4429(3)
H1A H 0.4206 1.1783 0.4373
H2A H 0.5079 1.2196 0.4708
N1A N 0.1524(4) 1.0718(3) 1.0175(3)
N2A N 0.3273(4) 0.9357(3) 1.0668(3)
N3A N 0.4203(4) 1.0006(3) 0.6643(3)
C1A C 0.1363(5) 1.0568(4) 1.1337(4)
C2A C 0.2249(5) 0.9391(4) 1.1690(3)
C3A C 0.2695(5) 1.0054(4) 0.9827(3)
C4A C 0.2031(6) 1.1478(4) 1.1362(4)
H3A H 0.1514 1.2188 1.1025
H4A H 0.1984 1.1409 1.2084
H5A H 0.3016 1.1405 1.0991
C5A C -0.0217(5) 1.0709(5) 1.1860(4)
H6A H -0.0658 1.0212 1.1740
H7A H -0.0319 1.0548 1.2609
H8A H -0.0676 1.1457 1.1563
C6A C 0.3076(5) 0.9176(4) 1.2544(4)
H9A H 0.3686 0.9713 1.2312
H10A H 0.2411 0.9231 1.3189
H11A H 0.3651 0.8448 1.2670
C7A C 0.1402(6) 0.8468(4) 1.1999(4)
H12A H 0.2040 0.7767 1.2131
H13A H 0.0680 0.8485 1.2628
H14A H 0.0952 0.8572 1.1431
C8A C 0.3225(5) 1.0042(4) 0.8742(3)
C9A C 0.4049(5) 0.9090(4) 0.8507(4)
H15A H 0.4285 0.8449 0.9050
C10A C 0.4506(5) 0.9112(4) 0.7464(4)
H16A H 0.5054 0.8473 0.7320
C11A C 0.3408(5) 1.0907(4) 0.6874(4)
H17A H 0.3177 1.1531 0.6316
C12A C 0.2910(5) 1.0967(4) 0.7885(4)
H18A H 0.2366 1.1621 0.7999
C13A C -0.2007(5) 1.0251(4) 0.4921(4)
C14A C -0.0569(5) 0.9765(4) 0.5172(4)
H19A H -0.0456 0.9042 0.5627
Co2 Co 0.0000 0.5000 0.5000
O6 O 0.4327(4) 0.3510(3) 0.0366(3)
O7 O 0.0549(4) 0.6284(3) -0.0642(3)
O8 O 0.2017(4) 0.5236(3) 0.4997(3)
O9 O 0.3445(4) 0.3629(4) 0.5093(4)
O10 O -0.0718(4) 0.6704(3) 0.4368(3)
H20 H 0.0057 0.6837 0.4408
H21 H -0.1371 0.7182 0.4588
N4 N 0.3480(4) 0.4240(3) -0.0190(3)
N5 N 0.1740(4) 0.5613(3) -0.0683(3)
N6 N 0.0793(4) 0.4934(3) 0.3356(3)
C15 C 0.3662(5) 0.4420(4) -0.1350(3)
C16 C 0.2780(5) 0.5599(4) -0.1700(3)
C17 C 0.2302(5) 0.4901(4) 0.0163(3)
C18 C 0.3008(5) 0.3525(4) -0.1423(4)
H22 H 0.3476 0.2808 -0.1052
H23 H 0.3136 0.3584 -0.2154
H24 H 0.2002 0.3623 -0.1108
C19 C 0.5250(5) 0.4275(5) -0.1856(4)
H25 H 0.5690 0.4748 -0.1702
H26 H 0.5368 0.4466 -0.2611
H27 H 0.5694 0.3520 -0.1577
C20 C 0.1984(5) 0.5842(4) -0.2576(4)
H28 H 0.1392 0.5298 -0.2377
H29 H 0.2665 0.5818 -0.3223
H30 H 0.1393 0.6563 -0.2681
C21 C 0.3633(6) 0.6509(4) -0.1969(4)
H31 H 0.2995 0.7210 -0.2068
H32 H 0.4343 0.6520 -0.2610
H33 H 0.4097 0.6369 -0.1399
C22 C 0.1752(5) 0.4908(4) 0.1254(3)
C23 C 0.0980(5) 0.5865(4) 0.1486(4)
H34 H 0.0771 0.6513 0.0943
C24 C 0.0530(5) 0.5844(4) 0.2528(4)
H35 H 0.0017 0.6492 0.2670
C25 C 0.1544(5) 0.4010(4) 0.3118(4)
H36 H 0.1735 0.3371 0.3675
C26 C 0.2044(5) 0.3962(4) 0.2101(4)
H37 H 0.2569 0.3308 0.1977
C27 C 0.3197(6) 0.4677(6) 0.5005(4)
C28 C 0.4399(6) 0.5169(7) 0.4924(5)
H38 H 0.4181 0.5937 0.4699
Co2_2 Co 1.0000 0.5000 0.5000
O6A O -0.4327(4) 0.6490(3) 0.9634(3)
O7A O -0.0549(4) 0.3716(3) 1.0642(3)
O8A O 0.7983(4) 0.4764(3) 0.5003(3)
O8A_2 O -0.2017(4) 0.4764(3) 0.5003(3)
O9A O 0.6555(4) 0.6371(4) 0.4907(4)
O10A O 0.0718(4) 0.3296(3) 0.5632(3)
H20A H -0.0057 0.3163 0.5592
H21A H 0.1371 0.2818 0.5412
N4A N -0.3480(4) 0.5760(3) 1.0190(3)
N5A N -0.1740(4) 0.4387(3) 1.0683(3)
N6A N -0.0793(4) 0.5066(3) 0.6644(3)
C15A C -0.3662(5) 0.5580(4) 1.1350(3)
C16A C -0.2780(5) 0.4401(4) 1.1700(3)
C17A C -0.2302(5) 0.5099(4) 0.9837(3)
C18A C -0.3008(5) 0.6475(4) 1.1423(4)
H22A H -0.3476 0.7192 1.1052
H23A H -0.3136 0.6416 1.2154
H24A H -0.2002 0.6377 1.1108
C19A C -0.5250(5) 0.5725(5) 1.1856(4)
H25A H -0.5690 0.5252 1.1702
H26A H -0.5368 0.5534 1.2611
H27A H -0.5694 0.6480 1.1577
C20A C -0.1984(5) 0.4158(4) 1.2576(4)
H28A H -0.1392 0.4702 1.2377
H29A H -0.2665 0.4182 1.3223
H30A H -0.1393 0.3437 1.2681
C21A C -0.3633(6) 0.3491(4) 1.1969(4)
H31A H -0.2995 0.2790 1.2068
H32A H -0.4343 0.3480 1.2610
H33A H -0.4097 0.3631 1.1399
C22A C -0.1752(5) 0.5092(4) 0.8746(3)
C23A C -0.0980(5) 0.4135(4) 0.8514(4)
H34A H -0.0771 0.3487 0.9057
C24A C -0.0530(5) 0.4156(4) 0.7472(4)
H35A H -0.0017 0.3508 0.7330
C25A C -0.1544(5) 0.5990(4) 0.6882(4)
H36A H -0.1735 0.6629 0.6325
C26A C -0.2044(5) 0.6038(4) 0.7899(4)
H37A H -0.2569 0.6692 0.8023
C27A C 0.6803(6) 0.5323(6) 0.4995(4)
C28A C 0.5601(6) 0.4831(7) 0.5076(5)
H38A H 0.5819 0.4063 0.5301
O11 O 0.1072(5) 0.7422(3) 0.4950(4)
H39 H 0.0589 0.7538 0.4488
H40 H 0.1912 0.7128 0.4706
loop_
_geom_bond_atom_site_label_1
_geom_bond_atom_site_label_2
_geom_bond_site_symmetry_1
_geom_bond_site_symmetry_2
Co1 O3 1_555 1_555
O1 N1 1_555 1_555
O2 N2 1_555 1_555
O3 C13 1_555 1_555
O4 C13 1_555 1_555
O5 Co1 1_555 1_555
H1 O5 1_555 1_555
H2 O5 1_555 1_555
N1 C1 1_555 1_555
N2 C2 1_555 1_555
N3 Co1 1_555 1_555
C1 C2 1_555 1_555
C2 C6 1_555 1_555
C3 N1 1_555 1_555
C4 C1 1_555 1_555
H3 C4 1_555 1_555
H4 C4 1_555 1_555
H5 C4 1_555 1_555
C5 C1 1_555 1_555
H6 C5 1_555 1_555
H7 C5 1_555 1_555
H8 C5 1_555 1_555
C6 H9 1_555 1_555
H10 C6 1_555 1_555
H11 C6 1_555 1_555
C7 C2 1_555 1_555
H12 C7 1_555 1_555
H13 C7 1_555 1_555
H14 C7 1_555 1_555
C8 C3 1_555 1_555
C9 C8 1_555 1_555
H15 C9 1_555 1_555
C10 N3 1_555 1_555
H16 C10 1_555 1_555
C11 N3 1_555 1_555
H17 C11 1_555 1_555
C12 C8 1_555 1_555
H18 C12 1_555 1_555
C13 C14 1_555 1_555
C14 H19 1_555 1_555
Co2 O8 1_555 1_555
O6 N4 1_555 1_555
O7 N5 1_555 1_555
O8 C27 1_555 1_555
O9 C27 1_555 1_555
O10 Co2 1_555 1_555
H20 O10 1_555 1_555
H21 O10 1_555 1_555
N4 C15 1_555 1_555
N5 C16 1_555 1_555
N6 Co2 1_555 1_555
C15 C16 1_555 1_555
C16 C20 1_555 1_555
C17 N4 1_555 1_555
C18 C15 1_555 1_555
H22 C18 1_555 1_555
H23 C18 1_555 1_555
H24 C18 1_555 1_555
C19 C15 1_555 1_555
H25 C19 1_555 1_555
H26 C19 1_555 1_555
H27 C19 1_555 1_555
C20 H28 1_555 1_555
H29 C20 1_555 1_555
H30 C20 1_555 1_555
C21 C16 1_555 1_555
H31 C21 1_555 1_555
H32 C21 1_555 1_555
H33 C21 1_555 1_555
C22 C17 1_555 1_555
C23 C22 1_555 1_555
H34 C23 1_555 1_555
C24 N6 1_555 1_555
H35 C24 1_555 1_555
C25 N6 1_555 1_555
H36 C25 1_555 1_555
C26 C22 1_555 1_555
H37 C26 1_555 1_555
C27 C28 1_555 1_555
C28 H38 1_555 1_555
O11 H39 1_555 1_555
H40 O11 1_555 1_555
Co1_2 O3A 1_555 1_555
O1A N1A 1_555 1_555
O2A N2A 1_555 1_555
O3A C13A 1_555 1_555
O3A_2 Co1 1_555 1_555
O4A C13A 1_555 1_555
O5A Co1 1_555 1_555
H1A O5A 1_555 1_555
H2A O5A 1_555 1_555
N1A C1A 1_555 1_555
N2A C2A 1_555 1_555
N3A Co1 1_555 1_555
C1A C2A 1_555 1_555
C2A C6A 1_555 1_555
C3A N1A 1_555 1_555
C4A C1A 1_555 1_555
H3A C4A 1_555 1_555
H4A C4A 1_555 1_555
H5A C4A 1_555 1_555
C5A C1A 1_555 1_555
H6A C5A 1_555 1_555
H7A C5A 1_555 1_555
H8A C5A 1_555 1_555
C6A H9A 1_555 1_555
H10A C6A 1_555 1_555
H11A C6A 1_555 1_555
C7A C2A 1_555 1_555
H12A C7A 1_555 1_555
H13A C7A 1_555 1_555
H14A C7A 1_555 1_555
C8A C3A 1_555 1_555
C9A C8A 1_555 1_555
H15A C9A 1_555 1_555
C10A N3A 1_555 1_555
H16A C10A 1_555 1_555
C11A N3A 1_555 1_555
H17A C11A 1_555 1_555
C12A C8A 1_555 1_555
H18A C12A 1_555 1_555
C13A C14A 1_555 1_555
C14A C14 1_555 1_555
H19A C14A 1_555 1_555
Co2_2 O8A 1_555 1_555
O6A N4A 1_555 1_555
O7A N5A 1_555 1_555
O8A C27A 1_555 1_555
O8A_2 Co2 1_555 1_555
O9A C27A 1_555 1_555
O10A Co2 1_555 1_555
H20A O10A 1_555 1_555
H21A O10A 1_555 1_555
N4A C15A 1_555 1_555
N5A C16A 1_555 1_555
N6A Co2 1_555 1_555
C15A C16A 1_555 1_555
C16A C20A 1_555 1_555
C17A N4A 1_555 1_555
C18A C15A 1_555 1_555
H22A C18A 1_555 1_555
H23A C18A 1_555 1_555
H24A C18A 1_555 1_555
C19A C15A 1_555 1_555
H25A C19A 1_555 1_555
H26A C19A 1_555 1_555
H27A C19A 1_555 1_555
C20A H28A 1_555 1_555
H29A C20A 1_555 1_555
H30A C20A 1_555 1_555
C21A C16A 1_555 1_555
H31A C21A 1_555 1_555
H32A C21A 1_555 1_555
H33A C21A 1_555 1_555
C22A C17A 1_555 1_555
C23A C22A 1_555 1_555
H34A C23A 1_555 1_555
C24A N6A 1_555 1_555
H35A C24A 1_555 1_555
C25A N6A 1_555 1_555
H36A C25A 1_555 1_555
C26A C22A 1_555 1_555
H37A C26A 1_555 1_555
C27A C28A 1_555 1_555
C28A C28 1_555 1_555
H38A C28A 1_555 1_555
N2 C3 1_555 1_555
C9 C10 1_555 1_555
C11 C12 1_555 1_555
N5 C17 1_555 1_555
C23 C24 1_555 1_555
C25 C26 1_555 1_555
N2A C3A 1_555 1_555
C9A C10A 1_555 1_555
C11A C12A 1_555 1_555
N5A C17A 1_555 1_555
C23A C24A 1_555 1_555
C25A C26A 1_555 1_555

#END
