
#######################################################################
#
#                 Cambridge Crystallographic Data Centre
#                                CCDC 
#
#######################################################################
#
# If this CIF has been generated from an entry in the Cambridge 
# Structural Database, then it will include bibliographic, chemical, 
# crystal, experimental, refinement or atomic coordinate data resulting 
# from the CCDC's data processing and validation procedures.
#
#######################################################################

data_SUVXAI01
_symmetry_cell_setting           monoclinic
_symmetry_space_group_name_H-M   'C 2/c'
_symmetry_Int_Tables_number      15
_space_group_name_Hall           '-C 2yn'
loop_
_symmetry_equiv_pos_site_id
_symmetry_equiv_pos_as_xyz
1 x,y,z
2 1/2+x,1/2+y,z
3 -x,y,1/2-z
4 1/2-x,1/2+y,1/2-z
5 -x,-y,-z
6 1/2-x,1/2-y,-z
7 x,-y,1/2+z
8 1/2+x,1/2-y,1/2+z
_cell_length_a                   21.6571(10)
_cell_length_b                   11.2155(5)
_cell_length_c                   13.5291(7)
_cell_angle_alpha                90
_cell_angle_beta                 122.3792(13)
_cell_angle_gamma                90
_cell_volume                     2775.23
loop_
_atom_site_label
_atom_site_type_symbol
_atom_site_fract_x
_atom_site_fract_y
_atom_site_fract_z
Cu1 Cu 0.167306(11) 0.12330(2) 0.26688(2)
Na1 Na 0.23940(5) -0.14582(8) 0.25459(8)
O1 O 0.26404(7) 0.04477(12) 0.35331(12)
O2 O 0.30194(8) 0.22733(13) 0.42024(14)
O3 O 0.57213(7) 0.29576(12) 0.68447(13)
O4 O 0.64572(8) 0.14024(14) 0.75504(15)
O5 O 0.54929(8) -0.26339(14) 0.68357(15)
O6 O 0.43143(9) -0.30140(13) 0.56265(14)
O7 O 0.11949(8) -0.05128(13) 0.16123(14)
H1 H 0.0939 -0.1052 0.1642
H2 H 0.0863 -0.0456 0.0842
O8 O 0.18585(7) 0.17579(13) 0.14483(13)
H3 H 0.2194 0.1276 0.1376
H4 H 0.1644 0.1936 0.0765
O9 O 0.16156(9) 0.10627(15) 0.40768(14)
H5 H 0.1137 0.0603 0.3921
H6 H 0.1737 0.1777 0.4558
O10 O 0.19411(10) -0.2061(2) 0.38134(17)
H7 H 0.1508 -0.2026 0.3607
H8 H 0.1966 -0.2789 0.4077
C1 C 0.38855(10) 0.06905(17) 0.50686(16)
C2 C 0.44752(10) 0.14705(17) 0.56416(17)
H13 H 0.4400 0.2288 0.5528
C3 C 0.51791(10) 0.10259(17) 0.63851(16)
C4 C 0.52867(10) -0.01961(17) 0.65460(16)
H14 H 0.5758 -0.0492 0.7033
C5 C 0.47010(10) -0.09868(17) 0.59912(16)
C6 C 0.39994(10) -0.05363(17) 0.52570(16)
H15 H 0.3603 -0.1055 0.4889
C7 C 0.31370(10) 0.11802(17) 0.42212(16)
C8 C 0.58305(10) 0.18361(18) 0.69751(17)
C9 C 0.48491(11) -0.23132(17) 0.61669(17)
Cu1G Cu 0.667306(11) 0.37670(2) 0.76688(2)
Na1C Na 0.26060(5) 0.35418(8) 0.24541(8)
Na1D Na 0.76060(5) 0.14582(8) 0.74541(8)
O2C O 0.19806(8) -0.27267(13) 0.07976(14)
O3G O 0.07213(7) 0.20424(12) 0.18447(13)
O4D O 0.35428(8) -0.14024(14) 0.24496(15)
O8C O 0.31415(7) -0.32421(13) 0.35517(13)
H3C H 0.2806 -0.3724 0.3624
H4C H 0.3356 -0.3064 0.4235
O11 O 0.26894(10) 0.03544(17) 0.10340(16)
H9 H 0.2398 0.0131 0.0341
H10 H 0.3000 -0.0232 0.1367
O12 O 0.04823(8) -0.03463(14) -0.08638(15)
H11 H 0.0021 -0.0809 -0.1292
H12 H 0.0403 0.0408 -0.0913
loop_
_geom_bond_atom_site_label_1
_geom_bond_atom_site_label_2
_geom_bond_site_symmetry_1
_geom_bond_site_symmetry_2
Cu1 O1 1_555 1_555
Na1 O1 1_555 1_555
O1 C7 1_555 1_555
O2 C7 1_555 1_555
O3 C8 1_555 1_555
O4 C8 1_555 1_555
O5 C9 1_555 1_555
O6 C9 1_555 1_555
O7 Cu1 1_555 1_555
H1 O7 1_555 1_555
H2 O7 1_555 1_555
O8 Cu1 1_555 1_555
H3 O8 1_555 1_555
H4 O8 1_555 1_555
O9 Cu1 1_555 1_555
H5 O9 1_555 1_555
H6 O9 1_555 1_555
O10 Na1 1_555 1_555
H7 O10 1_555 1_555
H8 O10 1_555 1_555
O11 H9 1_555 1_555
H10 O11 1_555 1_555
O12 H11 1_555 1_555
H12 O12 1_555 1_555
C1 C2 1_555 1_555
C2 H13 1_555 1_555
C3 C2 1_555 1_555
C4 C3 1_555 1_555
H14 C4 1_555 1_555
C5 C4 1_555 1_555
C6 C1 1_555 1_555
H15 C6 1_555 1_555
C7 C1 1_555 1_555
C8 C3 1_555 1_555
C9 C5 1_555 1_555
Cu1G O3 1_555 1_555
Na1C O2 1_555 1_555
Na1D O4 1_555 1_555
O2C Na1 1_555 1_555
O3G Cu1 1_555 1_555
O4D Na1 1_555 1_555
O8C Na1 1_555 1_555
H3C O8C 1_555 1_555
H4C O8C 1_555 1_555
Na1 O7 1_555 1_555
O8 Na1C 1_555 1_555
C5 C6 1_555 1_555

#END
