
#######################################################################
#
#                 Cambridge Crystallographic Data Centre
#                                CCDC 
#
#######################################################################
#
# If this CIF has been generated from an entry in the Cambridge 
# Structural Database, then it will include bibliographic, chemical, 
# crystal, experimental, refinement or atomic coordinate data resulting 
# from the CCDC's data processing and validation procedures.
#
#######################################################################

data_SUVXIQ
_symmetry_cell_setting           triclinic
_symmetry_space_group_name_H-M   'P -1'
_symmetry_Int_Tables_number      2
_space_group_name_Hall           '-P 1'
loop_
_symmetry_equiv_pos_site_id
_symmetry_equiv_pos_as_xyz
1 x,y,z
2 -x,-y,-z
_cell_length_a                   9.2836(12)
_cell_length_b                   11.4842(13)
_cell_length_c                   13.7777(12)
_cell_angle_alpha                106.896(2)
_cell_angle_beta                 90.436(3)
_cell_angle_gamma                93.930(2)
_cell_volume                     1401.61
loop_
_atom_site_label
_atom_site_type_symbol
_atom_site_fract_x
_atom_site_fract_y
_atom_site_fract_z
Sm1 Sm 0.22847(3) 0.01404(2) 0.49070(2)
O1 O 0.1785(4) 0.2296(3) 0.5354(3)
O2 O -0.0442(4) 0.1462(3) 0.5335(3)
O3 O 0.3366(4) -0.1361(3) 0.3564(3)
O4 O 0.5653(4) -0.1100(3) 0.4100(3)
O5 O 0.1452(3) 0.0454(3) 0.6632(2)
O6 O -0.0924(4) -0.0100(3) 0.6556(3)
O7 O 0.3798(4) 0.1300(3) 0.3894(3)
O8 O 0.3252(4) -0.1355(3) 0.5686(3)
O9 O 0.2783(4) 0.6627(4) 0.6846(4)
O10 O 0.1085(5) 0.7852(3) 0.7110(4)
O11 O -0.3870(5) 0.6232(4) 0.6413(4)
O12 O -0.4373(4) 0.4298(4) 0.5746(4)
O13 O 0.1817(5) -0.5499(4) 0.1418(4)
O14 O 0.3298(5) -0.6452(4) 0.0308(3)
O15 O 0.8371(5) -0.5242(5) 0.0776(5)
O16 O 0.9115(4) -0.3572(4) 0.1891(4)
O17 O -0.3554(5) 0.2198(5) 0.9459(4)
O18 O -0.2753(5) 0.2283(5) 1.0946(3)
O19 O 0.2252(5) 0.1666(4) 1.1424(3)
O20 O 0.3446(5) 0.0704(4) 1.0150(3)
N1 N 0.1506(5) 0.6825(4) 0.6850(4)
N2 N -0.3517(5) 0.5177(4) 0.6089(4)
N3 N 0.3010(5) -0.5607(4) 0.1047(4)
N4 N 0.8174(5) -0.4324(4) 0.1444(4)
N5 N -0.2620(5) 0.2074(4) 1.0026(4)
N6 N 0.2388(5) 0.1210(4) 1.0515(3)
C1 C -0.0081(5) 0.3635(4) 0.5829(4)
C2 C 0.0917(6) 0.4622(4) 0.6178(4)
C3 C 0.0437(6) 0.5780(4) 0.6510(4)
C4 C -0.1009(6) 0.5999(5) 0.6498(4)
C5 C -0.1962(6) 0.4984(4) 0.6130(4)
C6 C -0.1543(5) 0.3812(4) 0.5810(4)
C7 C 0.0443(5) 0.2370(4) 0.5477(3)
C8 C 0.4969(5) -0.2783(4) 0.2678(4)
C9 C 0.3852(6) -0.3611(4) 0.2207(4)
C10 C 0.4182(6) -0.4699(4) 0.1514(4)
C11 C 0.5587(6) -0.4967(5) 0.1256(4)
C12 C 0.6653(6) -0.4090(5) 0.1720(4)
C13 C 0.6400(5) -0.3010(4) 0.2436(4)
C14 C 0.4640(5) -0.1657(4) 0.3509(4)
C15 C 0.0163(5) 0.0800(4) 0.8154(4)
C16 C 0.1341(6) 0.0828(5) 0.8786(4)
C17 C 0.1176(6) 0.1259(4) 0.9830(4)
C18 C -0.0097(6) 0.1691(5) 1.0259(4)
C19 C -0.1221(6) 0.1663(5) 0.9611(4)
C20 C -0.1136(6) 0.1214(5) 0.8563(4)
C21 C 0.0237(5) 0.0341(4) 0.7019(4)
H1 H 0.192 0.451 0.619
H2 H -0.133 0.680 0.673
H3 H -0.224 0.314 0.558
H4 H 0.288 -0.344 0.235
H5 H 0.580 -0.572 0.078
H6 H 0.717 -0.244 0.275
H7 H 0.224 0.056 0.851
H8 H -0.018 0.199 1.097
H9 H -0.195 0.119 0.813
H10 H 0.368 0.206 0.402
H11 H 0.417 0.109 0.329
H12 H 0.269 -0.214 0.560
H13 H 0.419 -0.147 0.570
O1A O -0.1785(4) -0.2296(3) 0.4646(3)
O2A O 0.0442(4) -0.1462(3) 0.4665(3)
O9A O -0.2783(4) -0.6627(4) 0.3154(4)
O10A O -0.1085(5) -0.7852(3) 0.2890(4)
O11A O 0.3870(5) -0.6232(4) 0.3587(4)
O12A O 0.4373(4) -0.4298(4) 0.4254(4)
N1A N -0.1506(5) -0.6825(4) 0.3150(4)
N2A N 0.3517(5) -0.5177(4) 0.3911(4)
C1A C 0.0081(5) -0.3635(4) 0.4171(4)
C2A C -0.0917(6) -0.4622(4) 0.3822(4)
C3A C -0.0437(6) -0.5780(4) 0.3490(4)
C4A C 0.1009(6) -0.5999(5) 0.3502(4)
C5A C 0.1962(6) -0.4984(4) 0.3870(4)
C6A C 0.1543(5) -0.3812(4) 0.4190(4)
C7A C -0.0443(5) -0.2370(4) 0.4523(3)
H1A H -0.192 -0.451 0.381
H2A H 0.133 -0.680 0.327
H3A H 0.224 -0.314 0.442
O3A O 0.6634(4) 0.1361(3) 0.6436(3)
O4A O 0.4347(4) 0.1100(3) 0.5900(3)
O13A O 0.8183(5) 0.5499(4) 0.8582(4)
O14A O 0.6702(5) 0.6452(4) 0.9692(3)
O15A O 0.1629(5) 0.5242(5) 0.9224(5)
O16A O 0.0885(4) 0.3572(4) 0.8109(4)
N3A N 0.6990(5) 0.5607(4) 0.8953(4)
N4A N 0.1826(5) 0.4324(4) 0.8556(4)
C8A C 0.5031(5) 0.2783(4) 0.7322(4)
C9A C 0.6148(6) 0.3611(4) 0.7793(4)
C10A C 0.5818(6) 0.4699(4) 0.8486(4)
C11A C 0.4413(6) 0.4967(5) 0.8744(4)
C12A C 0.3347(6) 0.4090(5) 0.8280(4)
C13A C 0.3600(5) 0.3010(4) 0.7564(4)
C14A C 0.5360(5) 0.1657(4) 0.6491(4)
H4A H 0.712 0.344 0.765
H5A H 0.420 0.572 0.922
H6A H 0.283 0.244 0.725
O5A O -0.1452(3) -0.0454(3) 0.3368(2)
O6A O 0.0924(4) 0.0100(3) 0.3444(3)
O17A O 0.3554(5) -0.2198(5) 0.0541(4)
O18A O 0.2753(5) -0.2283(5) -0.0946(3)
O19A O -0.2252(5) -0.1666(4) -0.1424(3)
O20A O -0.3446(5) -0.0704(4) -0.0150(3)
N5A N 0.2620(5) -0.2074(4) -0.0026(4)
N6A N -0.2388(5) -0.1210(4) -0.0515(3)
C15A C -0.0163(5) -0.0800(4) 0.1846(4)
C16A C -0.1341(6) -0.0828(5) 0.1214(4)
C17A C -0.1176(6) -0.1259(4) 0.0170(4)
C18A C 0.0097(6) -0.1691(5) -0.0259(4)
C19A C 0.1221(6) -0.1663(5) 0.0389(4)
C20A C 0.1136(6) -0.1214(5) 0.1437(4)
C21A C -0.0237(5) -0.0341(4) 0.2981(4)
H7A H -0.224 -0.056 0.149
H8A H 0.018 -0.199 -0.097
H9A H 0.195 -0.119 0.187
Sm1A Sm -0.22847(3) -0.01404(2) 0.50930(2)
Sm1A_2 Sm 0.77153(3) -0.01404(2) 0.50930(2)
O3A_2 O -0.3366(4) 0.1361(3) 0.6436(3)
O4_2 O -0.4347(4) -0.1100(3) 0.4100(3)
O7A O -0.3798(4) -0.1300(3) 0.6106(3)
H10A H -0.368 -0.206 0.598
H11A H -0.417 -0.109 0.671
O8A O -0.3252(4) 0.1355(3) 0.4314(3)
H12A H -0.269 0.214 0.440
H13A H -0.419 0.147 0.430
O21 O 0.5226(6) 0.0667(7) 0.2093(4)
H14 H 0.491 -0.010 0.196
H15 H 0.504 0.096 0.162
loop_
_geom_bond_atom_site_label_1
_geom_bond_atom_site_label_2
_geom_bond_site_symmetry_1
_geom_bond_site_symmetry_2
Sm1 O1 1_555 1_555
O1 C7 1_555 1_555
O2 C7 1_555 1_555
O3 Sm1 1_555 1_555
O4 C14 1_555 1_555
O5 Sm1 1_555 1_555
O6 C21 1_555 1_555
O7 Sm1 1_555 1_555
O8 Sm1 1_555 1_555
O9 N1 1_555 1_555
O10 N1 1_555 1_555
O11 N2 1_555 1_555
O12 N2 1_555 1_555
O13 N3 1_555 1_555
O14 N3 1_555 1_555
O15 N4 1_555 1_555
O16 N4 1_555 1_555
O17 N5 1_555 1_555
O18 N5 1_555 1_555
O19 N6 1_555 1_555
O20 N6 1_555 1_555
O21 H14 1_555 1_555
N1 C3 1_555 1_555
N2 C5 1_555 1_555
N3 C10 1_555 1_555
N4 C12 1_555 1_555
N5 C19 1_555 1_555
N6 C17 1_555 1_555
C1 C2 1_555 1_555
C2 C3 1_555 1_555
C3 C4 1_555 1_555
C4 C5 1_555 1_555
C5 C6 1_555 1_555
C6 C1 1_555 1_555
C7 C1 1_555 1_555
C8 C9 1_555 1_555
C9 C10 1_555 1_555
C10 C11 1_555 1_555
C11 C12 1_555 1_555
C12 C13 1_555 1_555
C13 C8 1_555 1_555
C14 O3 1_555 1_555
C15 C16 1_555 1_555
C16 C17 1_555 1_555
C17 C18 1_555 1_555
C18 C19 1_555 1_555
C19 C20 1_555 1_555
C20 C15 1_555 1_555
C21 O5 1_555 1_555
H1 C2 1_555 1_555
H2 C4 1_555 1_555
H3 C6 1_555 1_555
H4 C9 1_555 1_555
H5 C11 1_555 1_555
H6 C13 1_555 1_555
H7 C16 1_555 1_555
H8 C18 1_555 1_555
H9 C20 1_555 1_555
H10 O7 1_555 1_555
H11 O7 1_555 1_555
H12 O8 1_555 1_555
H13 O8 1_555 1_555
H15 O21 1_555 1_555
O1A C7A 1_555 1_555
O2A Sm1 1_555 1_555
O9A N1A 1_555 1_555
O10A N1A 1_555 1_555
O11A N2A 1_555 1_555
O12A N2A 1_555 1_555
N1A C3A 1_555 1_555
N2A C5A 1_555 1_555
C1A C2A 1_555 1_555
C2A C3A 1_555 1_555
C3A C4A 1_555 1_555
C4A C5A 1_555 1_555
C5A C6A 1_555 1_555
C6A C1A 1_555 1_555
C7A O2A 1_555 1_555
H1A C2A 1_555 1_555
H2A C4A 1_555 1_555
H3A C6A 1_555 1_555
O3A C14A 1_555 1_555
O4A Sm1 1_555 1_555
O13A N3A 1_555 1_555
O14A N3A 1_555 1_555
O15A N4A 1_555 1_555
O16A N4A 1_555 1_555
N3A C10A 1_555 1_555
N4A C12A 1_555 1_555
C8A C9A 1_555 1_555
C9A C10A 1_555 1_555
C10A C11A 1_555 1_555
C11A C12A 1_555 1_555
C12A C13A 1_555 1_555
C13A C8A 1_555 1_555
C14A O4A 1_555 1_555
H4A C9A 1_555 1_555
H5A C11A 1_555 1_555
H6A C13A 1_555 1_555
O5A C21A 1_555 1_555
O6A Sm1 1_555 1_555
O17A N5A 1_555 1_555
O18A N5A 1_555 1_555
O19A N6A 1_555 1_555
O20A N6A 1_555 1_555
N5A C19A 1_555 1_555
N6A C17A 1_555 1_555
C15A C16A 1_555 1_555
C16A C17A 1_555 1_555
C17A C18A 1_555 1_555
C18A C19A 1_555 1_555
C19A C20A 1_555 1_555
C20A C15A 1_555 1_555
C21A O6A 1_555 1_555
H7A C16A 1_555 1_555
H8A C18A 1_555 1_555
H9A C20A 1_555 1_555
Sm1A O2 1_555 1_555
Sm1A_2 O4 1_555 1_555
O3A_2 Sm1A 1_555 1_555
O4_2 Sm1A 1_555 1_555
O7A Sm1A 1_555 1_555
H10A O7A 1_555 1_555
H11A O7A 1_555 1_555
O8A Sm1A 1_555 1_555
H12A O8A 1_555 1_555
H13A O8A 1_555 1_555
O6 Sm1A 1_555 1_555
C8 C14 1_555 1_555
C15 C21 1_555 1_555
O1A Sm1A 1_555 1_555
C1A C7A 1_555 1_555
O3A Sm1A_2 1_555 1_555
C8A C14A 1_555 1_555
O5A Sm1A 1_555 1_555
C15A C21A 1_555 1_555

#END
