
#######################################################################
#
#                 Cambridge Crystallographic Data Centre
#                                CCDC 
#
#######################################################################
#
# If this CIF has been generated from an entry in the Cambridge 
# Structural Database, then it will include bibliographic, chemical, 
# crystal, experimental, refinement or atomic coordinate data resulting 
# from the CCDC's data processing and validation procedures.
#
#######################################################################

data_SUVZOZ
_symmetry_cell_setting           triclinic
_symmetry_space_group_name_H-M   'P -1'
_symmetry_Int_Tables_number      2
_space_group_name_Hall           '-P 1'
loop_
_symmetry_equiv_pos_site_id
_symmetry_equiv_pos_as_xyz
1 x,y,z
2 -x,-y,-z
_cell_length_a                   11.1806(14)
_cell_length_b                   15.4729(19)
_cell_length_c                   16.875(2)
_cell_angle_alpha                75.028(2)
_cell_angle_beta                 86.737(2)
_cell_angle_gamma                71.171(2)
_cell_volume                     2668.17
loop_
_atom_site_label
_atom_site_type_symbol
_atom_site_fract_x
_atom_site_fract_y
_atom_site_fract_z
Hg1 Hg -0.00246(4) 0.69247(3) 0.30267(3)
C1 C 0.5187(12) 0.6224(7) 0.0739(7)
C2 C 0.4785(13) 0.6185(8) -0.0531(8)
H1 H 0.5027 0.6190 -0.1068
C3 C 0.3645(12) 0.6134(7) -0.0327(7)
H2 H 0.3097 0.6110 -0.0709
C4 C 0.3299(11) 0.6120(6) 0.0475(7)
C5 C 0.2031(10) 0.6075(6) 0.0791(6)
C6 C 0.1292(12) 0.5729(7) 0.0430(6)
H3 H 0.1559 0.5501 -0.0031
C7 C 0.0133(12) 0.5723(7) 0.0765(7)
H4 H -0.0410 0.5514 0.0524
C8 C -0.0193(10) 0.6036(7) 0.1465(7)
H5 H -0.0956 0.6012 0.1706
C9 C 0.1615(10) 0.6352(6) 0.1490(6)
H6 H 0.2148 0.6545 0.1759
C10 C 0.5534(11) 0.6163(8) 0.2385(7)
H7 H 0.5899 0.6433 0.2729
H8 H 0.4639 0.6516 0.2310
C11 C 0.5677(11) 0.5194(8) 0.2808(7)
H9 H 0.6534 0.4807 0.2742
H10 H 0.5110 0.4982 0.2548
C12 C 0.5413(10) 0.5030(7) 0.3718(7)
H11 H 0.4560 0.5416 0.3792
H12 H 0.5992 0.5223 0.3987
C13 C 0.7227(10) 0.3284(8) 0.4318(6)
C14 C 0.8795(12) 0.1890(8) 0.4597(6)
H13 H 0.9073 0.1234 0.4723
C15 C 0.9671(10) 0.2338(8) 0.4540(6)
H14 H 1.0532 0.2009 0.4609
C16 C 0.9211(11) 0.3317(7) 0.4372(5)
C17 C 1.0077(9) 0.3859(7) 0.4340(6)
C18 C 1.1217(9) 0.3497(7) 0.4774(6)
H15 H 1.1458 0.2878 0.5094
C19 C 1.2002(10) 0.4025(8) 0.4747(7)
H16 H 1.2763 0.3779 0.5047
C20 C 1.1614(11) 0.4948(8) 0.4249(7)
H17 H 1.2139 0.5315 0.4215
C21 C 0.9775(9) 0.4796(7) 0.3867(6)
H18 H 0.9011 0.5063 0.3569
I1 I 0.19867(8) 0.73584(5) 0.33040(5)
I2 I -0.24848(8) 0.77250(6) 0.28697(5)
N1 N 0.5599(10) 0.6228(7) -0.0019(7)
N2 N 0.4079(9) 0.6168(6) 0.1010(5)
N3 N 0.0531(8) 0.6364(5) 0.1805(5)
N4 N 0.7978(8) 0.3786(5) 0.4253(5)
N5 N 0.7569(9) 0.2336(7) 0.4484(5)
N6 N 1.0521(8) 0.5323(5) 0.3821(5)
S1 S 0.6258(3) 0.6311(3) 0.1399(2)
S2 S 0.5587(3) 0.3821(2) 0.4183(2)
Hg1_2 Hg 0.99754(4) 0.69247(3) 0.30267(3)
N6_2 N 0.0521(8) 0.5323(5) 0.3821(5)
Hg2 Hg 0.12831(4) 0.30107(3) 0.21591(3)
C22 C -0.1906(11) 0.1175(7) 0.0091(7)
C23 C -0.1017(16) 0.0939(8) -0.1104(8)
H19 H -0.1021 0.0783 -0.1600
C24 C -0.0047(13) 0.1157(8) -0.0917(7)
H20 H 0.0604 0.1173 -0.1284
C25 C 0.0003(13) 0.1364(7) -0.0164(7)
C26 C 0.1044(11) 0.1628(7) 0.0102(7)
C27 C 0.2214(14) 0.1447(8) -0.0257(7)
H21 H 0.2381 0.1134 -0.0674
C28 C 0.3136(12) 0.1738(9) 0.0015(8)
H22 H 0.3932 0.1628 -0.0212
C29 C 0.2828(11) 0.2196(8) 0.0633(8)
H23 H 0.3433 0.2396 0.0820
C30 C 0.0839(10) 0.2091(7) 0.0708(6)
H24 H 0.0050 0.2220 0.0945
C31 C -0.2755(14) 0.1296(11) 0.1621(8)
H25 H -0.1851 0.0987 0.1708
H26 H -0.2905 0.1968 0.1528
C32 C -0.333(2) 0.1001(13) 0.2343(9)
H27 H -0.3202 0.0333 0.2421
H28 H -0.4236 0.1321 0.2252
C33 C -0.2994(14) 0.1123(9) 0.3104(8)
H29 H -0.3757 0.1479 0.3328
H30 H -0.2441 0.1509 0.2984
C34 C -0.3402(10) -0.0423(7) 0.4191(6)
C35 C -0.3923(11) -0.1598(7) 0.5064(6)
H31 H -0.3721 -0.2134 0.5501
C36 C -0.5109(10) -0.1275(7) 0.4732(6)
H32 H -0.5695 -0.1585 0.4930
C37 C -0.5417(10) -0.0479(7) 0.4096(6)
C38 C -0.6673(11) -0.0032(7) 0.3716(6)
C39 C -0.7574(11) -0.0483(7) 0.3758(6)
H33 H -0.7375 -0.1117 0.4036
C40 C -0.8721(10) -0.0023(8) 0.3408(7)
H34 H -0.9311 -0.0338 0.3441
C41 C -0.9034(10) 0.0917(8) 0.2999(6)
H35 H -0.9841 0.1231 0.2766
C42 C -0.7083(10) 0.0920(7) 0.3280(6)
H36 H -0.6516 0.1256 0.3231
I3 I 0.31575(7) 0.35115(5) 0.25447(4)
I4 I -0.11963(8) 0.35181(6) 0.21225(5)
N7 N -0.2020(10) 0.0929(6) -0.0606(7)
N8 N -0.0954(9) 0.1370(6) 0.0342(5)
N9 N 0.1709(10) 0.2364(5) 0.0972(5)
N10 N -0.4534(8) -0.0048(5) 0.3831(5)
N11 N -0.3034(8) -0.1209(6) 0.4815(5)
N12 N -0.8227(9) 0.1375(5) 0.2932(5)
S3 S -0.3200(4) 0.1102(3) 0.0706(2)
S4 S -0.2239(3) 0.0096(2) 0.3882(2)
Hg2_2 Hg -0.87169(4) 0.30107(3) 0.21591(3)
N12_2 N 0.1773(9) 0.1375(5) 0.2932(5)
C43 C 0.623(3) 0.050(2) 0.8112(16)
H37 H 0.7051 0.0467 0.8279
H38 H 0.5962 0.0980 0.7610
H39 H 0.6263 -0.0100 0.8028
O1 O 0.5543(15) 0.0659(15) 0.8700(14)
H40 H 0.5993 0.0487 0.9137
loop_
_geom_bond_atom_site_label_1
_geom_bond_atom_site_label_2
_geom_bond_site_symmetry_1
_geom_bond_site_symmetry_2
Hg1 I1 1_555 1_555
Hg2 I3 1_555 1_555
C1 N1 1_555 1_555
C2 H1 1_555 1_555
C3 C2 1_555 1_555
H2 C3 1_555 1_555
C4 C3 1_555 1_555
C5 C4 1_555 1_555
C6 C5 1_555 1_555
H3 C6 1_555 1_555
C7 C6 1_555 1_555
H4 C7 1_555 1_555
C8 C7 1_555 1_555
H5 C8 1_555 1_555
C9 C5 1_555 1_555
H6 C9 1_555 1_555
C10 H7 1_555 1_555
H8 C10 1_555 1_555
C11 C10 1_555 1_555
H9 C11 1_555 1_555
H10 C11 1_555 1_555
C12 C11 1_555 1_555
H11 C12 1_555 1_555
H12 C12 1_555 1_555
C13 N4 1_555 1_555
C14 H13 1_555 1_555
C15 C14 1_555 1_555
H14 C15 1_555 1_555
C16 C15 1_555 1_555
C17 C16 1_555 1_555
C18 C17 1_555 1_555
H15 C18 1_555 1_555
C19 C18 1_555 1_555
H16 C19 1_555 1_555
C20 C19 1_555 1_555
H17 C20 1_555 1_555
C21 C17 1_555 1_555
H18 C21 1_555 1_555
C22 N7 1_555 1_555
C23 H19 1_555 1_555
C24 C23 1_555 1_555
H20 C24 1_555 1_555
C25 C24 1_555 1_555
C26 C25 1_555 1_555
C27 C26 1_555 1_555
H21 C27 1_555 1_555
C28 C27 1_555 1_555
H22 C28 1_555 1_555
C29 C28 1_555 1_555
H23 C29 1_555 1_555
C30 C26 1_555 1_555
H24 C30 1_555 1_555
C31 H25 1_555 1_555
H26 C31 1_555 1_555
C32 C31 1_555 1_555
H27 C32 1_555 1_555
H28 C32 1_555 1_555
C33 C32 1_555 1_555
H29 C33 1_555 1_555
H30 C33 1_555 1_555
C34 N10 1_555 1_555
C35 H31 1_555 1_555
C36 C35 1_555 1_555
H32 C36 1_555 1_555
C37 C36 1_555 1_555
C38 C37 1_555 1_555
C39 C38 1_555 1_555
H33 C39 1_555 1_555
C40 C39 1_555 1_555
H34 C40 1_555 1_555
C41 C40 1_555 1_555
H35 C41 1_555 1_555
C42 C38 1_555 1_555
H36 C42 1_555 1_555
C43 H37 1_555 1_555
H38 C43 1_555 1_555
H39 C43 1_555 1_555
I2 Hg1 1_555 1_555
I4 Hg2 1_555 1_555
N1 C2 1_555 1_555
N2 C1 1_555 1_555
N3 Hg1 1_555 1_555
N4 C16 1_555 1_555
N5 C13 1_555 1_555
N6 C20 1_555 1_555
N7 C23 1_555 1_555
N8 C22 1_555 1_555
N9 Hg2 1_555 1_555
N10 C37 1_555 1_555
N11 C34 1_555 1_555
N12 C41 1_555 1_555
O1 C43 1_555 1_555
H40 O1 1_555 1_555
S1 C1 1_555 1_555
S2 C12 1_555 1_555
S3 C22 1_555 1_555
S4 C33 1_555 1_555
Hg1_2 N6 1_555 1_555
Hg2_2 N12 1_555 1_555
N6_2 Hg1 1_555 1_555
N12_2 Hg2 1_555 1_555
C4 N2 1_555 1_555
C8 N3 1_555 1_555
C9 N3 1_555 1_555
C10 S1 1_555 1_555
C13 S2 1_555 1_555
C14 N5 1_555 1_555
C21 N6 1_555 1_555
C25 N8 1_555 1_555
C29 N9 1_555 1_555
C30 N9 1_555 1_555
C31 S3 1_555 1_555
C34 S4 1_555 1_555
C35 N11 1_555 1_555
C42 N12 1_555 1_555

#END
