
#######################################################################
#
#                 Cambridge Crystallographic Data Centre
#                                CCDC 
#
#######################################################################
#
# If this CIF has been generated from an entry in the Cambridge 
# Structural Database, then it will include bibliographic, chemical, 
# crystal, experimental, refinement or atomic coordinate data resulting 
# from the CCDC's data processing and validation procedures.
#
#######################################################################

data_SUWBUI
_symmetry_cell_setting           triclinic
_symmetry_space_group_name_H-M   'P -1'
_symmetry_Int_Tables_number      2
_space_group_name_Hall           '-P 1'
loop_
_symmetry_equiv_pos_site_id
_symmetry_equiv_pos_as_xyz
1 x,y,z
2 -x,-y,-z
_cell_length_a                   8.159(3)
_cell_length_b                   9.473(3)
_cell_length_c                   12.413(4)
_cell_angle_alpha                89.518(4)
_cell_angle_beta                 75.136(4)
_cell_angle_gamma                82.095(4)
_cell_volume                     918.126
loop_
_atom_site_label
_atom_site_type_symbol
_atom_site_fract_x
_atom_site_fract_y
_atom_site_fract_z
Cu1 Cu 0.5000 0.5000 0.5000
Cu2 Cu 0.5000 1.0000 0.5000
Cl1 Cl 0.2956(2) 1.23044(18) -0.01590(12)
Cl2 Cl 0.17477(13) 1.31641(10) 0.42596(9)
O1 O 0.2303(3) 1.0085(2) 0.4341(2)
O2 O 0.4703(3) 0.7987(2) 0.4789(2)
O3 O 0.3085(3) 0.6329(2) 0.46942(19)
N1 N 0.3431(4) 1.0070(3) 0.6502(2)
N2 N 0.1329(4) 1.0864(4) 0.7929(3)
H1 H 0.0517 1.1432 0.8359
N3 N 0.3831(4) 0.5112(3) 0.6588(2)
N4 N 0.3412(4) 0.5313(4) 0.8388(3)
H2 H 0.3618 0.5339 0.9033
C1 C 0.2497(4) 1.0532(4) 0.3266(3)
C2 C 0.2263(4) 1.2001(4) 0.3111(3)
C3 C 0.2430(5) 1.2538(4) 0.2071(4)
H3 H 0.2279 1.3518 0.1978
C4 C 0.2826(6) 1.1615(5) 0.1159(4)
C5 C 0.3086(6) 1.0174(5) 0.1279(4)
H4 H 0.3364 0.9562 0.0658
C6 C 0.2933(5) 0.9634(4) 0.2331(4)
H5 H 0.3125 0.8653 0.2414
C7 C 0.1838(4) 0.8680(4) 0.4583(4)
H6 H 0.1370 0.8366 0.3997
H7 H 0.0951 0.8727 0.5278
C8 C 0.3341(4) 0.7600(3) 0.4678(3)
C9 C 0.4578(5) 0.5048(4) 0.7420(3)
H8 H 0.5753 0.4847 0.7338
C10 C 0.1837(5) 0.5535(5) 0.8186(3)
H9 H 0.0788 0.5731 0.8711
C11 C 0.2102(5) 0.5414(4) 0.7071(3)
H10 H 0.1251 0.5519 0.6690
C12 C 0.2308(5) 1.1192(4) 0.6953(3)
H11 H 0.2220 1.2082 0.6633
C13 C 0.3119(5) 0.8996(4) 0.7235(3)
H12 H 0.3706 0.8073 0.7134
C14 C 0.1830(5) 0.9476(5) 0.8132(4)
H13 H 0.1378 0.8966 0.8756
Cu2_2 Cu 0.5000 0.0000 0.5000
Cl1A Cl 0.7044(2) -0.23044(18) 1.01590(12)
Cl2A Cl 0.82523(13) -0.31641(10) 0.57404(9)
O1A O 0.7697(3) -0.0085(2) 0.5659(2)
O1A_2 O 0.7697(3) 0.9915(2) 0.5659(2)
O2A O 0.5297(3) 0.2013(2) 0.5211(2)
O2A_2 O 0.5297(3) 1.2013(2) 0.5211(2)
O3A O 0.6915(3) 0.3671(2) 0.53058(19)
N1A N 0.6569(4) 0.9930(3) 0.3498(2)
N2A N 0.8671(4) 0.9136(4) 0.2071(3)
H1A H 0.9483 0.8568 0.1641
N3A N 0.6169(4) 0.4888(3) 0.3412(2)
N4A N 0.6588(4) 0.4687(4) 0.1612(3)
H2A H 0.6382 0.4661 0.0967
C1A C 0.7503(4) -0.0532(4) 0.6734(3)
C2A C 0.7737(4) -0.2001(4) 0.6889(3)
C3A C 0.7570(5) -0.2538(4) 0.7929(4)
H3A H 0.7721 -0.3518 0.8022
C4A C 0.7174(6) -0.1615(5) 0.8841(4)
C5A C 0.6914(6) -0.0174(5) 0.8721(4)
H4A H 0.6636 0.0438 0.9342
C6A C 0.7067(5) 0.0366(4) 0.7669(4)
H5A H 0.6875 0.1347 0.7586
C7A C 0.8162(4) 0.1320(4) 0.5417(4)
H6A H 0.8630 0.1634 0.6003
H7A H 0.9049 0.1273 0.4722
C8A C 0.6659(4) 0.2400(3) 0.5322(3)
C9A C 0.5422(5) 0.4952(4) 0.2580(3)
H8A H 0.4247 0.5153 0.2662
C10A C 0.8163(5) 0.4465(5) 0.1814(3)
H9A H 0.9212 0.4269 0.1289
C11A C 0.7898(5) 0.4586(4) 0.2929(3)
H10A H 0.8749 0.4481 0.3310
C12A C 0.7692(5) 0.8808(4) 0.3047(3)
H11A H 0.7780 0.7918 0.3367
C13A C 0.6881(5) 1.1004(4) 0.2765(3)
H12A H 0.6294 1.1927 0.2866
C14A C 0.8170(5) 1.0524(5) 0.1868(4)
H13A H 0.8622 1.1034 0.1244
O4 O 0.1283(4) 0.7277(4) 0.0615(2)
O5 O 0.3305(4) 0.5615(4) 0.0717(2)
O6 O 0.1506(4) 0.6497(3) 0.2215(2)
N5 N 0.2031(4) 0.6460(3) 0.1189(3)
loop_
_geom_bond_atom_site_label_1
_geom_bond_atom_site_label_2
_geom_bond_site_symmetry_1
_geom_bond_site_symmetry_2
Cu1 O3 1_555 1_555
Cu2 O1 1_555 1_555
Cl1 C4 1_555 1_555
Cl2 C2 1_555 1_555
O1 C1 1_555 1_555
O2 Cu2 1_555 1_555
O3 C8 1_555 1_555
O4 N5 1_555 1_555
O5 N5 1_555 1_555
O6 N5 1_555 1_555
N1 Cu2 1_555 1_555
N2 H1 1_555 1_555
N3 Cu1 1_555 1_555
N4 H2 1_555 1_555
C1 C2 1_555 1_555
C2 C3 1_555 1_555
C3 H3 1_555 1_555
C4 C3 1_555 1_555
C5 C4 1_555 1_555
H4 C5 1_555 1_555
C6 C1 1_555 1_555
H5 C6 1_555 1_555
C7 O1 1_555 1_555
H6 C7 1_555 1_555
H7 C7 1_555 1_555
C8 O2 1_555 1_555
C9 N3 1_555 1_555
H8 C9 1_555 1_555
C10 N4 1_555 1_555
H9 C10 1_555 1_555
C11 N3 1_555 1_555
H10 C11 1_555 1_555
C12 N1 1_555 1_555
H11 C12 1_555 1_555
C13 N1 1_555 1_555
H12 C13 1_555 1_555
C14 N2 1_555 1_555
H13 C14 1_555 1_555
Cu2_2 O1A 1_555 1_555
Cl1A C4A 1_555 1_555
Cl2A C2A 1_555 1_555
O1A C1A 1_555 1_555
O1A_2 Cu2 1_555 1_555
O2A Cu2_2 1_555 1_555
O2A_2 Cu2 1_555 1_555
O3A Cu1 1_555 1_555
N1A Cu2 1_555 1_555
N2A H1A 1_555 1_555
N3A Cu1 1_555 1_555
N4A H2A 1_555 1_555
C1A C2A 1_555 1_555
C2A C3A 1_555 1_555
C3A H3A 1_555 1_555
C4A C3A 1_555 1_555
C5A C4A 1_555 1_555
H4A C5A 1_555 1_555
C6A C1A 1_555 1_555
H5A C6A 1_555 1_555
C7A O1A 1_555 1_555
H6A C7A 1_555 1_555
H7A C7A 1_555 1_555
C8A O2A 1_555 1_555
C9A N3A 1_555 1_555
H8A C9A 1_555 1_555
C10A N4A 1_555 1_555
H9A C10A 1_555 1_555
C11A N3A 1_555 1_555
H10A C11A 1_555 1_555
C12A N1A 1_555 1_555
H11A C12A 1_555 1_555
C13A N1A 1_555 1_555
H12A C13A 1_555 1_555
C14A N2A 1_555 1_555
H13A C14A 1_555 1_555
N2 C12 1_555 1_555
N4 C9 1_555 1_555
C5 C6 1_555 1_555
C7 C8 1_555 1_555
C10 C11 1_555 1_555
C13 C14 1_555 1_555
O3A C8A 1_555 1_555
N2A C12A 1_555 1_555
N4A C9A 1_555 1_555
C5A C6A 1_555 1_555
C7A C8A 1_555 1_555
C10A C11A 1_555 1_555
C13A C14A 1_555 1_555

#END
