
#######################################################################
#
#                 Cambridge Crystallographic Data Centre
#                                CCDC 
#
#######################################################################
#
# If this CIF has been generated from an entry in the Cambridge 
# Structural Database, then it will include bibliographic, chemical, 
# crystal, experimental, refinement or atomic coordinate data resulting 
# from the CCDC's data processing and validation procedures.
#
#######################################################################

data_SUWZUF
_symmetry_cell_setting           triclinic
_symmetry_space_group_name_H-M   'P -1'
_symmetry_Int_Tables_number      2
_space_group_name_Hall           '-P 1'
loop_
_symmetry_equiv_pos_site_id
_symmetry_equiv_pos_as_xyz
1 x,y,z
2 -x,-y,-z
_cell_length_a                   10.8321(6)
_cell_length_b                   11.3710(6)
_cell_length_c                   15.2170(9)
_cell_angle_alpha                76.954(1)
_cell_angle_beta                 84.551(1)
_cell_angle_gamma                77.896(1)
_cell_volume                     1783.1
loop_
_atom_site_label
_atom_site_type_symbol
_atom_site_fract_x
_atom_site_fract_y
_atom_site_fract_z
Co1 Co -0.7474(1) 0.2378(1) -0.7910(1)
O1 O -0.5899(2) 0.1784(2) -0.7125(2)
O2 O -0.6285(2) 0.2519(2) -0.9087(1)
O3 O -0.9061(2) 0.2929(2) -0.8690(2)
O4 O -0.8666(2) 0.2274(2) -0.6746(2)
N1 N -0.7389(2) -0.5753(2) -0.7935(2)
N2 N -0.7521(2) 0.0507(2) -0.7886(2)
C1 C -0.7589(3) -0.4865(2) -0.8680(2)
C2 C -0.7593(3) -0.3643(2) -0.8708(2)
C3 C -0.7392(3) -0.3284(2) -0.7923(2)
C4 C -0.7169(3) -0.4208(3) -0.7148(2)
C5 C -0.7181(3) -0.5409(2) -0.7188(2)
C6 C -0.7570(3) 0.0141(2) -0.8655(2)
C7 C -0.7520(3) -0.1067(2) -0.8699(2)
C8 C -0.7428(2) -0.1975(2) -0.7911(2)
C9 C -0.7389(3) -0.1594(2) -0.7107(2)
C10 C -0.7430(3) -0.0361(2) -0.7126(2)
H1 H -0.6010(30) 0.1580(30) -0.6650(30)
H2 H -0.5300(40) 0.2130(40) -0.7250(30)
H3 H -0.6210(30) 0.2230(30) -0.9590(30)
H4 H -0.5740(40) 0.2940(30) -0.9150(20)
H5 H -0.9700(40) 0.2700(40) -0.8530(30)
H6 H -0.9050(40) 0.3050(40) -0.9180(30)
H7 H -0.8710(40) 0.2550(40) -0.6350(30)
H8 H -0.9310(40) 0.1980(40) -0.6720(30)
H9 H -0.7738 -0.5089 -0.9220
H10 H -0.7733 -0.3050 -0.9257
H11 H -0.7012 -0.4015 -0.6598
H12 H -0.7033 -0.6026 -0.6652
H13 H -0.7643 0.0746 -0.9201
H14 H -0.7549 -0.1278 -0.9265
H15 H -0.7335 -0.2176 -0.6549
H16 H -0.7392 -0.0121 -0.6572
Co1_2 Co -0.7474(1) -0.7622(1) -0.7910(1)
N1_2 N -0.7389(2) 0.4247(2) -0.7935(2)
N3 N 0.4012(2) -0.8292(3) -0.0707(2)
C11 C 0.4027(3) -0.9367(3) -0.0931(2)
C12 C 0.4046(3) -0.9513(3) -0.1808(2)
C13 C 0.4035(3) -0.8488(3) -0.2515(2)
C14 C 0.4031(3) -0.7368(3) -0.2287(2)
C15 C 0.4018(3) -0.7316(3) -0.1390(2)
N4 N 0.3893(3) -0.8712(3) -0.5278(2)
C16 C 0.3344(3) -0.9430(3) -0.4613(2)
C17 C 0.3380(3) -0.9404(3) -0.3706(2)
C18 C 0.4001(3) -0.8581(3) -0.3469(2)
C19 C 0.4585(3) -0.7839(3) -0.4162(2)
C20 C 0.4507(3) -0.7933(4) -0.5043(2)
H17 H 0.4024 -1.0073 -0.0458
H18 H 0.4067 -1.0301 -0.1929
H19 H 0.4038 -0.6647 -0.2746
H20 H 0.4012 -0.6543 -0.1248
H21 H 0.2903 -0.9991 -0.4764
H22 H 0.2983 -0.9946 -0.3253
H23 H 0.5034 -0.7270 -0.4033
H24 H 0.4913 -0.7416 -0.5509
N5 N -0.9174(3) -0.6810(3) -0.0506(2)
C21 C -0.9232(3) -0.7815(4) -0.0805(3)
C22 C -0.9256(3) -0.7833(3) -0.1708(3)
C23 C -0.9241(3) -0.6757(3) -0.2348(2)
C24 C -0.9212(3) -0.5694(3) -0.2038(2)
C25 C -0.9166(3) -0.5775(4) -0.1124(3)
N6 N -0.9030(3) -0.6808(3) -0.5168(2)
C26 C -0.9566(4) -0.7597(4) -0.4563(3)
C27 C -0.9678(3) -0.7611(4) -0.3643(3)
C28 C -0.9211(3) -0.6742(3) -0.3329(2)
C29 C -0.8669(4) -0.5897(3) -0.3970(3)
C30 C -0.8603(4) -0.5961(4) -0.4866(3)
H25 H -0.9260 -0.8557 -0.0372
H26 H -0.9283 -0.8575 -0.1887
H27 H -0.9223 -0.4930 -0.2452
H28 H -0.9128 -0.5051 -0.0923
H29 H -0.9897 -0.8193 -0.4768
H30 H -1.0069 -0.8206 -0.3235
H31 H -0.8346 -0.5277 -0.3792
H32 H -0.8232 -0.5370 -0.5294
O5 O -0.5465(3) -0.4004(3) -0.0693(3)
H33 H -0.6330(60) -0.3460(50) -0.0590(40)
H34 H -0.5450(70) -0.4250(70) -0.1010(50)
N7 N 0.1716(4) -0.1819(4) -0.1203(3)
O8 O 0.2624(5) -0.1828(6) -0.0747(3)
O9 O 0.1618(8) -0.2717(8) -0.1470(7)
O10 O 0.1072(12) -0.0875(12) -0.1611(8)
N8 N 0.2483(8) -0.2877(8) -0.4602(6)
O14 O 0.2838(7) -0.3522(6) -0.5028(5)
O15 O 0.2262(9) -0.3115(9) -0.3672(7)
O16 O 0.2005(13) -0.1676(13) -0.4876(9)
O6? O 0.0870(40) 0.8590(50) -0.3517(16)
O7? O 0.0460(30) 0.9100(30) -0.3370(13)
O11? O 0.2160(11) 0.8723(12) -0.0724(6)
O12? O 0.1866(8) 0.6971(8) -0.0955(7)
O13? O 0.0812(12) 0.8842(12) -0.1588(9)
O17? O 0.3943(8) 0.7049(8) -0.2522(5)
O18? O 0.4519(8) 0.5157(8) -0.3982(6)
N9? N 0.3377(9) 0.6677(9) -0.2981(7)
O19? O 0.4075(11) 0.5734(12) -0.2621(8)
O20? O 0.3541(8) 0.7625(8) -0.2812(6)
O21? O 0.2689(15) 0.6367(15) -0.3521(10)
O22? O 0.3413(8) 0.5921(8) -0.5113(5)
N10? N 0.3603(12) 0.5839(12) -0.4495(8)
O23? O 0.4038(11) 0.5435(11) -0.5154(7)
O24? O 0.3809(12) 0.5618(11) -0.3790(8)
O25? O 0.3151(13) 0.6282(12) -0.4425(8)
O26? O 0.4345(10) 0.6330(11) -0.2585(7)
loop_
_geom_bond_atom_site_label_1
_geom_bond_atom_site_label_2
_geom_bond_site_symmetry_1
_geom_bond_site_symmetry_2
Co1 O1 1_555 1_555
O1 H1 1_555 1_555
O2 Co1 1_555 1_555
O3 Co1 1_555 1_555
O4 Co1 1_555 1_555
N1 C1 1_555 1_555
N2 Co1 1_555 1_555
C1 C2 1_555 1_555
C2 C3 1_555 1_555
C3 C4 1_555 1_555
C4 C5 1_555 1_555
C5 N1 1_555 1_555
C6 N2 1_555 1_555
C7 C6 1_555 1_555
C8 C3 1_555 1_555
C9 C8 1_555 1_555
C10 N2 1_555 1_555
N3 C11 1_555 1_555
C11 C12 1_555 1_555
C12 C13 1_555 1_555
C13 C14 1_555 1_555
C14 C15 1_555 1_555
C15 N3 1_555 1_555
N4 C16 1_555 1_555
C16 C17 1_555 1_555
C17 C18 1_555 1_555
C18 C13 1_555 1_555
C19 C18 1_555 1_555
C20 N4 1_555 1_555
N5 C21 1_555 1_555
C21 C22 1_555 1_555
C22 C23 1_555 1_555
C23 C24 1_555 1_555
C24 C25 1_555 1_555
C25 N5 1_555 1_555
N6 C26 1_555 1_555
C26 C27 1_555 1_555
C27 C28 1_555 1_555
C28 C23 1_555 1_555
C29 C28 1_555 1_555
C30 N6 1_555 1_555
O5 H33 1_555 1_555
N7 O8 1_555 1_555
O9 N7 1_555 1_555
O10 N7 1_555 1_555
N8 O14 1_555 1_555
O15 N8 1_555 1_555
O16 N8 1_555 1_555
H2 O1 1_555 1_555
H3 O2 1_555 1_555
H4 O2 1_555 1_555
H5 O3 1_555 1_555
H6 O3 1_555 1_555
H7 O4 1_555 1_555
H8 O4 1_555 1_555
H9 C1 1_555 1_555
H10 C2 1_555 1_555
H11 C4 1_555 1_555
H12 C5 1_555 1_555
H13 C6 1_555 1_555
H14 C7 1_555 1_555
H15 C9 1_555 1_555
H16 C10 1_555 1_555
H17 C11 1_555 1_555
H18 C12 1_555 1_555
H19 C14 1_555 1_555
H20 C15 1_555 1_555
H21 C16 1_555 1_555
H22 C17 1_555 1_555
H23 C19 1_555 1_555
H24 C20 1_555 1_555
H25 C21 1_555 1_555
H26 C22 1_555 1_555
H27 C24 1_555 1_555
H28 C25 1_555 1_555
H29 C26 1_555 1_555
H30 C27 1_555 1_555
H31 C29 1_555 1_555
H32 C30 1_555 1_555
H34 O5 1_555 1_555
Co1_2 N1 1_555 1_555
N1_2 Co1 1_555 1_555
C7 C8 1_555 1_555
C9 C10 1_555 1_555
C19 C20 1_555 1_555
C29 C30 1_555 1_555

#END
