
#######################################################################
#
#                 Cambridge Crystallographic Data Centre
#                                CCDC 
#
#######################################################################
#
# If this CIF has been generated from an entry in the Cambridge 
# Structural Database, then it will include bibliographic, chemical, 
# crystal, experimental, refinement or atomic coordinate data resulting 
# from the CCDC's data processing and validation procedures.
#
#######################################################################

data_SUXKIF
_symmetry_cell_setting           monoclinic
_symmetry_space_group_name_H-M   'P 21/c'
_symmetry_Int_Tables_number      14
_space_group_name_Hall           '-P 2ybc'
loop_
_symmetry_equiv_pos_site_id
_symmetry_equiv_pos_as_xyz
1 x,y,z
2 x,1/2-y,1/2+z
3 -x,-y,-z
4 -x,1/2+y,1/2-z
_cell_length_a                   6.3438(6)
_cell_length_b                   20.504(2)
_cell_length_c                   9.3910(10)
_cell_angle_alpha                90
_cell_angle_beta                 98.840(10)
_cell_angle_gamma                90
_cell_volume                     1207.01
loop_
_atom_site_label
_atom_site_type_symbol
_atom_site_fract_x
_atom_site_fract_y
_atom_site_fract_z
Zn1 Zn 0.23683(4) 0.015713(15) 0.43692(3)
O1 O 0.2487(3) 0.11186(10) 0.3725(2)
O2 O -0.0581(3) 0.05810(9) 0.4777(2)
O3 O 0.1545(3) -0.01666(10) 0.2292(2)
O4 O 0.5257(3) -0.02493(9) 0.3815(2)
C1 C 0.0854(4) 0.14682(13) 0.3735(3)
C2 C -0.0889(4) 0.11832(12) 0.4401(3)
C3 C -0.2716(4) 0.15100(15) 0.4669(3)
H1 H -0.3596(4) 0.12681(15) 0.5175(3)
C4 C -0.3441(5) 0.2136(2) 0.4306(4)
H2 H -0.4690(5) 0.2252(2) 0.4649(4)
C5 C -0.2627(6) 0.2608(2) 0.3532(5)
H3 H -0.3405(6) 0.2993(2) 0.3377(5)
C6 C -0.0743(6) 0.2572(2) 0.2951(4)
H4 H -0.0463(6) 0.2930(2) 0.2400(4)
C7 C 0.0762(5) 0.20891(15) 0.3066(4)
H5 H 0.1939(5) 0.21861(15) 0.2623(4)
C8 C 0.2974(4) -0.04216(13) 0.1672(3)
C9 C 0.5103(4) -0.05009(12) 0.2534(3)
C10 C 0.6834(4) -0.08183(14) 0.2103(3)
H6 H 0.8021(4) -0.08513(14) 0.2817(3)
C11 C 0.7104(5) -0.1095(2) 0.0792(3)
H7 H 0.8421(5) -0.1292(2) 0.0777(3)
C12 C 0.5733(5) -0.1122(2) -0.0478(3)
H8 H 0.6232(5) -0.1321(2) -0.1252(3)
C13 C 0.3662(5) -0.0881(2) -0.0723(3)
H9 H 0.2974(5) -0.0924(2) -0.1667(3)
C14 C 0.2473(4) -0.0593(2) 0.0193(3)
H10 H 0.1087(4) -0.0490(2) -0.0224(3)
O2B O 0.0581(3) -0.05810(9) 0.5223(2)
O4B O 0.4743(3) 0.02493(9) 0.6185(2)
Zn1B Zn -0.23683(4) -0.015713(15) 0.56308(3)
Zn1B_2 Zn 0.76317(4) -0.015713(15) 0.56308(3)
loop_
_geom_bond_atom_site_label_1
_geom_bond_atom_site_label_2
_geom_bond_site_symmetry_1
_geom_bond_site_symmetry_2
Zn1 O1 1_555 1_555
O1 C1 1_555 1_555
O2 Zn1 1_555 1_555
O3 Zn1 1_555 1_555
O4 Zn1 1_555 1_555
C1 C2 1_555 1_555
C2 O2 1_555 1_555
C3 C2 1_555 1_555
H1 C3 1_555 1_555
C4 C3 1_555 1_555
H2 C4 1_555 1_555
C5 C4 1_555 1_555
H3 C5 1_555 1_555
C6 C5 1_555 1_555
H4 C6 1_555 1_555
C7 C1 1_555 1_555
H5 C7 1_555 1_555
C8 O3 1_555 1_555
C9 O4 1_555 1_555
C10 C9 1_555 1_555
H6 C10 1_555 1_555
C11 C10 1_555 1_555
H7 C11 1_555 1_555
C12 C11 1_555 1_555
H8 C12 1_555 1_555
C13 C12 1_555 1_555
H9 C13 1_555 1_555
C14 C8 1_555 1_555
H10 C14 1_555 1_555
O2B Zn1 1_555 1_555
O4B Zn1 1_555 1_555
Zn1B O2 1_555 1_555
Zn1B_2 O4 1_555 1_555
C6 C7 1_555 1_555
C8 C9 1_555 1_555
C13 C14 1_555 1_555
O2B Zn1B 1_555 1_555
O4B Zn1B_2 1_555 1_555

#END
