
#######################################################################
#
#                 Cambridge Crystallographic Data Centre
#                                CCDC 
#
#######################################################################
#
# If this CIF has been generated from an entry in the Cambridge 
# Structural Database, then it will include bibliographic, chemical, 
# crystal, experimental, refinement or atomic coordinate data resulting 
# from the CCDC's data processing and validation procedures.
#
#######################################################################

data_SUXNAB
_symmetry_cell_setting           orthorhombic
_symmetry_space_group_name_H-M   'P 21 21 21'
_symmetry_Int_Tables_number      19
_space_group_name_Hall           'P 2ac 2ab'
loop_
_symmetry_equiv_pos_site_id
_symmetry_equiv_pos_as_xyz
1 x,y,z
2 1/2-x,-y,1/2+z
3 -x,1/2+y,1/2-z
4 1/2+x,1/2-y,-z
_cell_length_a                   10.6762(9)
_cell_length_b                   17.5426(15)
_cell_length_c                   25.176(2)
_cell_angle_alpha                90
_cell_angle_beta                 90
_cell_angle_gamma                90
_cell_volume                     4715.17
loop_
_atom_site_label
_atom_site_type_symbol
_atom_site_fract_x
_atom_site_fract_y
_atom_site_fract_z
Fe1 Fe 0.36446(5) 0.27903(3) 0.07906(2)
Ni1 Ni 0.79244(4) 0.40297(3) 0.069921(19)
N1 N 0.6141(3) 0.36074(19) 0.05762(13)
N2 N 0.8633(3) 0.32327(19) 0.01904(13)
N3 N 0.2107(4) 0.3910(2) 0.01165(14)
N4 N 0.9806(3) 0.44110(18) 0.08781(13)
H1 H 1.0290 0.4243 0.0594
N5 N 0.7042(3) 0.49190(19) 0.11674(13)
H2 H 0.6244 0.4734 0.1239
N6 N 0.8244(3) 0.3397(2) 0.13767(13)
N7 N 0.7750(3) 0.48753(19) 0.01207(13)
N8 N 0.3545(3) 0.3434(2) 0.14337(14)
N9 N 0.4563(3) 0.19949(18) 0.11981(14)
N10 N 0.2095(3) 0.22954(19) 0.10137(12)
N11 N 0.3314(3) 0.3105(2) 0.19165(14)
N12 N 0.4179(3) 0.1827(2) 0.17014(14)
N13 N 0.1957(3) 0.2095(2) 0.15382(13)
B1 B 0.3045(5) 0.2251(3) 0.19325(19)
H3 H 0.2840 0.2073 0.2300
C1 C 0.5197(4) 0.3300(2) 0.06147(15)
C2 C 0.8700(4) 0.2820(2) -0.01644(15)
C3 C 0.2707(4) 0.3505(2) 0.03703(16)
C4 C 0.9453(4) 0.5671(2) 0.12871(16)
C5 C 0.9957(4) 0.5222(2) 0.08830(15)
C6 C 1.0567(4) 0.5560(2) 0.04420(16)
H4 H 1.0927 0.5243 0.0177
C7 C 1.0645(4) 0.6330(2) 0.03920(17)
H5 H 1.1055 0.6545 0.0093
C8 C 1.0116(4) 0.6816(2) 0.07860(18)
C9 C 0.9541(4) 0.6487(2) 0.12342(16)
C10 C 0.8978(4) 0.6981(2) 0.16210(17)
H6 H 0.8581 0.6771 0.1925
C11 C 0.9012(4) 0.7748(3) 0.15538(17)
H7 H 0.8636 0.8069 0.1812
C12 C 0.9590(5) 0.8071(3) 0.11119(19)
H8 H 0.9606 0.8609 0.1071
C13 C 1.0135(4) 0.7616(2) 0.0738(2)
H9 H 1.0534 0.7842 0.0440
C14 C 0.8782(4) 0.5330(2) 0.17438(15)
C15 C 0.7613(4) 0.5013(2) 0.16867(16)
C16 C 0.6970(4) 0.4700(2) 0.21296(16)
H10 H 0.6147 0.4505 0.2083
C17 C 0.7498(4) 0.4673(2) 0.26107(17)
H11 H 0.7043 0.4463 0.2900
C18 C 0.8742(4) 0.4956(2) 0.26947(16)
C19 C 0.9380(4) 0.5302(2) 0.22575(16)
C20 C 1.0606(4) 0.5562(2) 0.23362(17)
H12 H 1.1036 0.5803 0.2052
C21 C 1.1196(4) 0.5475(2) 0.28133(17)
H13 H 1.2028 0.5658 0.2857
C22 C 1.0581(5) 0.5117(2) 0.32442(18)
H14 H 1.1003 0.5047 0.3573
C23 C 0.9369(5) 0.4872(2) 0.31813(17)
H15 H 0.8947 0.4642 0.3472
C24 C 0.7394(4) 0.2936(2) 0.16158(17)
H16 H 0.6645 0.2818 0.1430
C25 C 0.7562(4) 0.2631(3) 0.21131(17)
H17 H 0.6947 0.2306 0.2264
C26 C 0.8652(5) 0.2809(3) 0.23919(17)
H18 H 0.8788 0.2617 0.2740
C27 C 0.9531(4) 0.3271(2) 0.21500(18)
H19 H 1.0280 0.3403 0.2332
C28 C 0.9313(4) 0.3541(2) 0.16406(16)
C29 C 0.8180(4) 0.4820(3) -0.03780(16)
H20 H 0.8439 0.4335 -0.0505
C30 C 0.8261(4) 0.5437(3) -0.07140(19)
H21 H 0.8549 0.5373 -0.1068
C31 C 0.7920(5) 0.6153(3) -0.05314(18)
H22 H 0.7998 0.6590 -0.0752
C32 C 0.7462(4) 0.6215(3) -0.00175(19)
H23 H 0.7205 0.6696 0.0118
C33 C 0.7383(4) 0.5561(2) 0.02990(16)
C34 C 1.0297(4) 0.3989(2) 0.13492(15)
H24 H 1.0680 0.4359 0.1598
H25 H 1.0964 0.3636 0.1230
C35 C 0.6828(4) 0.5613(2) 0.08485(16)
H26 H 0.7199 0.6056 0.1035
H27 H 0.5915 0.5703 0.0818
C36 C 0.3297(4) 0.3665(3) 0.22906(18)
H28 H 0.3157 0.3590 0.2660
C37 C 0.3514(4) 0.4357(3) 0.20481(19)
H29 H 0.3556 0.4845 0.2211
C38 C 0.3655(4) 0.4185(2) 0.15184(18)
H30 H 0.3811 0.4551 0.1248
C39 C 0.4821(4) 0.1208(3) 0.1871(2)
H31 H 0.4731 0.0975 0.2210
C40 C 0.5623(4) 0.0968(3) 0.14767(19)
H32 H 0.6180 0.0546 0.1486
C41 C 0.5439(4) 0.1482(2) 0.10598(18)
H33 H 0.5868 0.1470 0.0729
C42 C 0.0832(4) 0.1767(2) 0.16022(18)
H34 H 0.0507 0.1576 0.1927
C43 C 0.0219(4) 0.1753(3) 0.11157(19)
H35 H -0.0591 0.1556 0.1042
C44 C 0.1042(3) 0.2087(2) 0.07637(17)
H36 H 0.0885 0.2159 0.0396
Fe1C Fe 0.86446(5) 0.22097(3) -0.07906(2)
C2C C 0.3700(4) 0.2180(2) 0.01644(15)
P1 P 0.40246(14) 0.66440(8) 0.15519(5)
F1 F 0.2976(5) 0.7226(3) 0.14223(18)
F2 F 0.4656(5) 0.7250(3) 0.19310(16)
F3 F 0.5087(4) 0.6051(3) 0.17056(17)
F4 F 0.3474(7) 0.6015(3) 0.11910(16)
F5 F 0.4806(5) 0.6941(2) 0.10557(16)
F6 F 0.3266(3) 0.63361(19) 0.20513(13)
C45 C 0.6094(7) 0.8566(4) 0.1186(3)
H37 H 0.6257 0.8111 0.1401
H38 H 0.6274 0.8456 0.0813
H39 H 0.5213 0.8714 0.1224
O1 O 0.6859(5) 0.9163(3) 0.13599(18)
H40 H 0.7244 0.9349 0.1099
C46 C 0.9063(9) 0.9665(5) 0.0123(3)
H41 H 0.9026 0.9120 0.0041
H42 H 0.9879 0.9787 0.0279
H43 H 0.8947 0.9961 -0.0203
O2 O 0.8107(4) 0.9850(2) 0.04874(14)
H44 H 0.7778 1.0267 0.0400
loop_
_geom_bond_atom_site_label_1
_geom_bond_atom_site_label_2
_geom_bond_site_symmetry_1
_geom_bond_site_symmetry_2
Fe1 N8 1_555 1_555
Ni1 N1 1_555 1_555
N1 C1 1_555 1_555
N2 Ni1 1_555 1_555
N3 C3 1_555 1_555
N4 Ni1 1_555 1_555
H1 N4 1_555 1_555
N5 Ni1 1_555 1_555
H2 N5 1_555 1_555
N6 Ni1 1_555 1_555
N7 Ni1 1_555 1_555
N8 N11 1_555 1_555
N9 Fe1 1_555 1_555
N10 Fe1 1_555 1_555
N11 B1 1_555 1_555
N12 N9 1_555 1_555
N13 N10 1_555 1_555
B1 N12 1_555 1_555
H3 B1 1_555 1_555
C1 Fe1 1_555 1_555
C2 N2 1_555 1_555
C3 Fe1 1_555 1_555
C4 C5 1_555 1_555
C5 N4 1_555 1_555
C6 C5 1_555 1_555
H4 C6 1_555 1_555
C7 C6 1_555 1_555
H5 C7 1_555 1_555
C8 C7 1_555 1_555
C9 C4 1_555 1_555
C10 C9 1_555 1_555
H6 C10 1_555 1_555
C11 C10 1_555 1_555
H7 C11 1_555 1_555
C12 C11 1_555 1_555
H8 C12 1_555 1_555
C13 C8 1_555 1_555
H9 C13 1_555 1_555
C14 C4 1_555 1_555
C15 N5 1_555 1_555
C16 C15 1_555 1_555
H10 C16 1_555 1_555
C17 C16 1_555 1_555
H11 C17 1_555 1_555
C18 C17 1_555 1_555
C19 C14 1_555 1_555
C20 C19 1_555 1_555
H12 C20 1_555 1_555
C21 C20 1_555 1_555
H13 C21 1_555 1_555
C22 C21 1_555 1_555
H14 C22 1_555 1_555
C23 C18 1_555 1_555
H15 C23 1_555 1_555
C24 N6 1_555 1_555
H16 C24 1_555 1_555
C25 C24 1_555 1_555
H17 C25 1_555 1_555
C26 C25 1_555 1_555
H18 C26 1_555 1_555
C27 C26 1_555 1_555
H19 C27 1_555 1_555
C28 N6 1_555 1_555
C29 N7 1_555 1_555
H20 C29 1_555 1_555
C30 C29 1_555 1_555
H21 C30 1_555 1_555
C31 C30 1_555 1_555
H22 C31 1_555 1_555
C32 C31 1_555 1_555
H23 C32 1_555 1_555
C33 N7 1_555 1_555
C34 N4 1_555 1_555
H24 C34 1_555 1_555
H25 C34 1_555 1_555
C35 N5 1_555 1_555
H26 C35 1_555 1_555
H27 C35 1_555 1_555
C36 N11 1_555 1_555
H28 C36 1_555 1_555
C37 C36 1_555 1_555
H29 C37 1_555 1_555
C38 N8 1_555 1_555
H30 C38 1_555 1_555
C39 N12 1_555 1_555
H31 C39 1_555 1_555
C40 C39 1_555 1_555
H32 C40 1_555 1_555
C41 N9 1_555 1_555
H33 C41 1_555 1_555
C42 N13 1_555 1_555
H34 C42 1_555 1_555
C43 C42 1_555 1_555
H35 C43 1_555 1_555
C44 N10 1_555 1_555
H36 C44 1_555 1_555
P1 F1 1_555 1_555
F2 P1 1_555 1_555
F3 P1 1_555 1_555
F4 P1 1_555 1_555
F5 P1 1_555 1_555
F6 P1 1_555 1_555
C45 H37 1_555 1_555
H38 C45 1_555 1_555
H39 C45 1_555 1_555
O1 C45 1_555 1_555
H40 O1 1_555 1_555
C46 H41 1_555 1_555
H42 C46 1_555 1_555
H43 C46 1_555 1_555
O2 C46 1_555 1_555
H44 O2 1_555 1_555
Fe1C C2 1_555 1_555
C2C Fe1 1_555 1_555
N13 B1 1_555 1_555
C8 C9 1_555 1_555
C12 C13 1_555 1_555
C14 C15 1_555 1_555
C18 C19 1_555 1_555
C22 C23 1_555 1_555
C27 C28 1_555 1_555
C28 C34 1_555 1_555
C32 C33 1_555 1_555
C33 C35 1_555 1_555
C37 C38 1_555 1_555
C40 C41 1_555 1_555
C43 C44 1_555 1_555

#END
