
#######################################################################
#
#                 Cambridge Crystallographic Data Centre
#                                CCDC 
#
#######################################################################
#
# If this CIF has been generated from an entry in the Cambridge 
# Structural Database, then it will include bibliographic, chemical, 
# crystal, experimental, refinement or atomic coordinate data resulting 
# from the CCDC's data processing and validation procedures.
#
#######################################################################

data_SUXNUU
_symmetry_cell_setting           monoclinic
_symmetry_space_group_name_H-M   'P 21/c'
_symmetry_Int_Tables_number      14
_space_group_name_Hall           '-P 2ybc'
loop_
_symmetry_equiv_pos_site_id
_symmetry_equiv_pos_as_xyz
1 x,y,z
2 x,1/2-y,1/2+z
3 -x,-y,-z
4 -x,1/2+y,1/2-z
_cell_length_a                   5.8190(12)
_cell_length_b                   21.660(4)
_cell_length_c                   13.289(3)
_cell_angle_alpha                90
_cell_angle_beta                 100.10(3)
_cell_angle_gamma                90
_cell_volume                     1648.98
loop_
_atom_site_label
_atom_site_type_symbol
_atom_site_fract_x
_atom_site_fract_y
_atom_site_fract_z
Zn1 Zn 0.0000 0.5000 0.5000
O1 O 0.1686(5) 0.57007(14) 0.5937(2)
C1 C -0.0754(8) 0.57232(19) 0.7221(3)
N1 N -0.0148(6) 0.65682(16) 0.8428(3)
C2 C 0.1578(7) 0.6819(2) 0.7965(3)
C3 C 0.2230(7) 0.65028(19) 0.7132(3)
F1 F 0.6958(5) 0.74794(13) 0.6634(2)
C4 C 0.1061(8) 0.59431(19) 0.6710(3)
C5 C 0.4469(8) 0.7629(2) 0.7871(3)
C6 C 0.5111(8) 0.7283(2) 0.7051(4)
N2 N 0.5733(7) 0.81468(17) 0.8266(3)
C7 C 0.2688(8) 0.7374(2) 0.8298(3)
H1 H 0.2202 0.7581 0.8836
C8 C -0.1206(8) 0.6047(2) 0.8054(3)
H2 H -0.2352 0.5889 0.8389
C9 C 0.4040(8) 0.6758(2) 0.6700(3)
H3 H 0.4515 0.6557 0.6153
C10 C -0.0815(9) 0.6841(2) 0.9359(4)
H4 H -0.2316 0.6676 0.9448
H5 H -0.0983 0.7285 0.9269
C11 C 0.5167(10) 0.8389(2) 0.9209(4)
H6 H 0.4983 0.8050 0.9666
H7 H 0.3700 0.8612 0.9065
C12 C 0.6133(9) 0.8653(2) 0.7575(3)
H8 H 0.4692 0.8880 0.7365
H9 H 0.6607 0.8483 0.6968
C13 C 0.8015(9) 0.9089(2) 0.8106(4)
H10 H 0.9494 0.8871 0.8237
H11 H 0.8175 0.9431 0.7653
N3 N 0.7510(6) 0.93329(16) 0.9075(3)
H12 H 0.7482 0.9717 0.9237
C14 C 0.7061(10) 0.8815(2) 0.9719(4)
H13 H 0.6626 0.8976 1.0341
H14 H 0.8490 0.8580 0.9911
C15 C -0.2275(8) 0.51706(19) 0.6892(4)
O2 O -0.2274(5) 0.49293(13) 0.6030(2)
O3 O -0.3503(7) 0.49811(18) 0.7503(3)
C16 C 0.0956(12) 0.6711(3) 1.0308(4)
H15 H 0.0461 0.6901 1.0887
H16 H 0.2443 0.6877 1.0227
H17 H 0.1091 0.6273 1.0414
O1B O -0.1686(5) 0.42993(14) 0.4063(2)
C1B C 0.0754(8) 0.42768(19) 0.2779(3)
N1B N 0.0148(6) 0.34318(16) 0.1572(3)
C2B C -0.1578(7) 0.3181(2) 0.2035(3)
C3B C -0.2230(7) 0.34972(19) 0.2868(3)
F1B F -0.6958(5) 0.25206(13) 0.3366(2)
C4B C -0.1061(8) 0.40569(19) 0.3290(3)
C5B C -0.4469(8) 0.2371(2) 0.2129(3)
C6B C -0.5111(8) 0.2717(2) 0.2949(4)
N2B N -0.5733(7) 0.18532(17) 0.1734(3)
C7B C -0.2688(8) 0.2626(2) 0.1702(3)
H1B H -0.2202 0.2419 0.1164
C8B C 0.1206(8) 0.3953(2) 0.1946(3)
H2B H 0.2352 0.4111 0.1611
C9B C -0.4040(8) 0.3242(2) 0.3300(3)
H3B H -0.4515 0.3443 0.3847
C10B C 0.0815(9) 0.3159(2) 0.0641(4)
H4B H 0.2316 0.3324 0.0552
H5B H 0.0983 0.2715 0.0731
C11B C -0.5167(10) 0.1611(2) 0.0791(4)
H6B H -0.4983 0.1950 0.0334
H7B H -0.3700 0.1388 0.0935
C12B C -0.6133(9) 0.1347(2) 0.2425(3)
H8B H -0.4692 0.1120 0.2635
H9B H -0.6607 0.1517 0.3032
C13B C -0.8015(9) 0.0911(2) 0.1894(4)
H10B H -0.9494 0.1129 0.1763
H11B H -0.8175 0.0569 0.2347
N3B N -0.7510(6) 0.06671(16) 0.0925(3)
H12B H -0.7482 0.0283 0.0763
C14B C -0.7061(10) 0.1185(2) 0.0281(4)
H13B H -0.6626 0.1024 -0.0341
H14B H -0.8490 0.1420 0.0089
C15B C 0.2275(8) 0.48294(19) 0.3108(4)
O2B O 0.2274(5) 0.50707(13) 0.3970(2)
O3B O 0.3503(7) 0.50189(18) 0.2497(3)
C16B C -0.0956(12) 0.3289(3) -0.0308(4)
H15B H -0.0461 0.3099 -0.0887
H16B H -0.2443 0.3123 -0.0227
H17B H -0.1091 0.3727 -0.0414
N3A N -0.2490(6) 0.56671(16) 0.4075(3)
N3C N 0.2490(6) 0.43329(16) 0.5925(3)
Zn1A Zn 1.0000 1.0000 1.0000
Zn1A_2 Zn -1.0000 0.0000 0.0000
H12A H -0.2518 0.5283 0.4237
H12C H 0.2518 0.4717 0.5763
O4 O -0.586(3) 0.5276(8) 0.9135(10)
O5 O -0.135(5) 0.4869(6) 0.9570(9)
loop_
_geom_bond_atom_site_label_1
_geom_bond_atom_site_label_2
_geom_bond_site_symmetry_1
_geom_bond_site_symmetry_2
Zn1 O1 1_555 1_555
O1 C4 1_555 1_555
C1 C4 1_555 1_555
N1 C2 1_555 1_555
C2 C3 1_555 1_555
C3 C4 1_555 1_555
F1 C6 1_555 1_555
C5 C6 1_555 1_555
C6 C9 1_555 1_555
N2 C5 1_555 1_555
C7 C2 1_555 1_555
H1 C7 1_555 1_555
C8 C1 1_555 1_555
H2 C8 1_555 1_555
C9 C3 1_555 1_555
H3 C9 1_555 1_555
C10 N1 1_555 1_555
H4 C10 1_555 1_555
H5 C10 1_555 1_555
C11 N2 1_555 1_555
H6 C11 1_555 1_555
H7 C11 1_555 1_555
C12 N2 1_555 1_555
H8 C12 1_555 1_555
H9 C12 1_555 1_555
C13 C12 1_555 1_555
H10 C13 1_555 1_555
H11 C13 1_555 1_555
N3 C13 1_555 1_555
H12 N3 1_555 1_555
C14 C11 1_555 1_555
H13 C14 1_555 1_555
H14 C14 1_555 1_555
C15 C1 1_555 1_555
O2 Zn1 1_555 1_555
O3 C15 1_555 1_555
C16 C10 1_555 1_555
H15 C16 1_555 1_555
H16 C16 1_555 1_555
H17 C16 1_555 1_555
O1B Zn1 1_555 1_555
C1B C4B 1_555 1_555
N1B C2B 1_555 1_555
C2B C3B 1_555 1_555
C3B C4B 1_555 1_555
F1B C6B 1_555 1_555
C4B O1B 1_555 1_555
C5B C6B 1_555 1_555
C6B C9B 1_555 1_555
N2B C5B 1_555 1_555
C7B C2B 1_555 1_555
H1B C7B 1_555 1_555
C8B C1B 1_555 1_555
H2B C8B 1_555 1_555
C9B C3B 1_555 1_555
H3B C9B 1_555 1_555
C10B N1B 1_555 1_555
H4B C10B 1_555 1_555
H5B C10B 1_555 1_555
C11B N2B 1_555 1_555
H6B C11B 1_555 1_555
H7B C11B 1_555 1_555
C12B N2B 1_555 1_555
H8B C12B 1_555 1_555
H9B C12B 1_555 1_555
C13B C12B 1_555 1_555
H10B C13B 1_555 1_555
H11B C13B 1_555 1_555
N3B C13B 1_555 1_555
H12B N3B 1_555 1_555
C14B C11B 1_555 1_555
H13B C14B 1_555 1_555
H14B C14B 1_555 1_555
C15B C1B 1_555 1_555
O2B Zn1 1_555 1_555
O3B C15B 1_555 1_555
C16B C10B 1_555 1_555
H15B C16B 1_555 1_555
H16B C16B 1_555 1_555
H17B C16B 1_555 1_555
N3A Zn1 1_555 1_555
N3C Zn1 1_555 1_555
Zn1A N3 1_555 1_555
Zn1A_2 N3B 1_555 1_555
H12A N3A 1_555 1_555
H12C N3C 1_555 1_555
N1 C8 1_555 1_555
C5 C7 1_555 1_555
N3 C14 1_555 1_555
C15 O2 1_555 1_555
N1B C8B 1_555 1_555
C5B C7B 1_555 1_555
N3B C14B 1_555 1_555
C15B O2B 1_555 1_555

#END
