
#######################################################################
#
#                 Cambridge Crystallographic Data Centre
#                                CCDC 
#
#######################################################################
#
# If this CIF has been generated from an entry in the Cambridge 
# Structural Database, then it will include bibliographic, chemical, 
# crystal, experimental, refinement or atomic coordinate data resulting 
# from the CCDC's data processing and validation procedures.
#
#######################################################################

data_SUXRIN
_symmetry_cell_setting           orthorhombic
_symmetry_space_group_name_H-M   'P n a 21'
_symmetry_Int_Tables_number      33
_space_group_name_Hall           'P 2c -2n'
loop_
_symmetry_equiv_pos_site_id
_symmetry_equiv_pos_as_xyz
1 x,y,z
2 -x,-y,1/2+z
3 1/2+x,1/2-y,z
4 1/2-x,1/2+y,1/2+z
_cell_length_a                   9.0524(18)
_cell_length_b                   9.1578(18)
_cell_length_c                   11.329(2)
_cell_angle_alpha                90
_cell_angle_beta                 90
_cell_angle_gamma                90
_cell_volume                     939.175
loop_
_atom_site_label
_atom_site_type_symbol
_atom_site_fract_x
_atom_site_fract_y
_atom_site_fract_z
Fe1 Fe 0.13566(6) -0.08170(6) 0.71653(7)
C1 C 0.1749(5) 0.2409(5) 0.7015(4)
O1 O 0.2520(4) 0.0586(3) 0.8376(3)
O2 O -0.0702(3) -0.0924(3) 0.8009(3)
N1 N 0.0989(4) 0.1349(4) 0.6452(4)
O3 O 0.3406(5) 0.2878(5) 0.8630(4)
H1 H 0.3456 0.3746 0.8369
C2 C 0.2601(5) 0.1886(5) 0.8074(4)
O4 O -0.2731(3) -0.2329(4) 0.8046(3)
O5 O 0.0098(4) -0.2138(4) 0.5963(3)
C3 C 0.0149(5) 0.1768(6) 0.5565(4)
H2 H -0.0405 0.1072 0.5163
O6 O -0.1781(4) -0.3696(4) 0.6089(3)
C4 C 0.0923(6) 0.4168(6) 0.5831(5)
H3 H 0.0916 0.5141 0.5597
C5 C 0.0066(6) 0.3211(6) 0.5216(5)
H4 H -0.0539 0.3511 0.4598
N2 N 0.1764(5) 0.3806(4) 0.6738(4)
C6 C -0.1034(5) -0.2649(5) 0.6452(4)
C7 C -0.1539(5) -0.1906(5) 0.7602(4)
Fe1B Fe -0.36434(6) -0.41830(6) 0.71653(7)
O4B O 0.2269(3) -0.2671(4) 0.8046(3)
O6B O 0.3219(4) -0.1304(4) 0.6089(3)
loop_
_geom_bond_atom_site_label_1
_geom_bond_atom_site_label_2
_geom_bond_site_symmetry_1
_geom_bond_site_symmetry_2
Fe1 O1 1_555 1_555
C1 N1 1_555 1_555
O1 C2 1_555 1_555
O2 Fe1 1_555 1_555
N1 Fe1 1_555 1_555
O3 H1 1_555 1_555
C2 C1 1_555 1_555
O4 C7 1_555 1_555
O5 Fe1 1_555 1_555
C3 N1 1_555 1_555
H2 C3 1_555 1_555
O6 C6 1_555 1_555
C4 H3 1_555 1_555
C5 C3 1_555 1_555
H4 C5 1_555 1_555
N2 C1 1_555 1_555
C6 O5 1_555 1_555
C7 O2 1_555 1_555
Fe1B O4 1_555 1_555
O4B Fe1 1_555 1_555
O6B Fe1 1_555 1_555
O3 C2 1_555 1_555
O6 Fe1B 1_555 1_555
C4 C5 1_555 1_555
C4 N2 1_555 1_555
C6 C7 1_555 1_555

#END
