
#######################################################################
#
#                 Cambridge Crystallographic Data Centre
#                                CCDC 
#
#######################################################################
#
# If this CIF has been generated from an entry in the Cambridge 
# Structural Database, then it will include bibliographic, chemical, 
# crystal, experimental, refinement or atomic coordinate data resulting 
# from the CCDC's data processing and validation procedures.
#
#######################################################################

data_SUXSOU
_symmetry_cell_setting           triclinic
_symmetry_space_group_name_H-M   'P -1'
_symmetry_Int_Tables_number      2
_space_group_name_Hall           '-P 1'
loop_
_symmetry_equiv_pos_site_id
_symmetry_equiv_pos_as_xyz
1 x,y,z
2 -x,-y,-z
_cell_length_a                   9.9093(2)
_cell_length_b                   10.0755(2)
_cell_length_c                   10.5065(3)
_cell_angle_alpha                78.3010(10)
_cell_angle_beta                 83.5600(10)
_cell_angle_gamma                68.074(2)
_cell_volume                     952.123
loop_
_atom_site_label
_atom_site_type_symbol
_atom_site_fract_x
_atom_site_fract_y
_atom_site_fract_z
Co1 Co -0.03642(4) 0.35863(3) 0.37674(3)
O1 O -0.1184(2) 0.57793(18) 0.31360(18)
O2 O -0.0962(2) 0.6739(2) 0.47933(18)
O3 O 0.0094(2) 1.1365(2) 0.36324(18)
O4 O -0.1437(2) 1.3060(2) 0.2285(2)
N1 N 0.1467(2) 0.3521(2) 0.2393(2)
N2 N 0.7840(3) 0.3556(3) -0.4846(2)
N3 N -0.2170(3) 0.9890(3) -0.0716(2)
C1 C 0.2784(3) 0.2469(3) 0.2530(3)
C2 C 0.3902(3) 0.2352(3) 0.1606(3)
C3 C 0.3706(3) 0.3366(3) 0.0468(3)
C4 C 0.2349(3) 0.4469(4) 0.0337(3)
C5 C 0.1282(3) 0.4506(3) 0.1293(3)
C6 C 0.4901(3) 0.3287(4) -0.0575(3)
C7 C 0.4432(4) 0.3491(5) -0.1921(3)
C8 C 0.5608(3) 0.3512(4) -0.2951(3)
C9 C 0.5940(4) 0.4743(4) -0.3398(4)
C10 C 0.7050(4) 0.4714(4) -0.4323(3)
C11 C 0.7517(3) 0.2363(3) -0.4412(3)
C12 C 0.6425(4) 0.2314(4) -0.3494(3)
C13 C -0.1119(3) 0.6807(3) 0.3616(3)
C14 C -0.1282(3) 0.8214(3) 0.2696(3)
C15 C -0.1013(3) 0.9306(3) 0.3130(3)
C16 C -0.1136(3) 1.0592(3) 0.2279(3)
C17 C -0.0809(3) 1.1747(3) 0.2751(3)
C18 C -0.1542(3) 1.0802(3) 0.1017(3)
C19 C -0.1780(3) 0.9694(3) 0.0556(3)
C20 C -0.1643(3) 0.8411(3) 0.1413(3)
H1 H 0.29510 0.17810 0.32900
H2 H 0.47920 0.15920 0.17450
H3 H -0.23300 0.92110 -0.09820
H4 H -0.22510 1.06900 -0.12380
H5 H 0.21640 0.51860 -0.04030
H6 H 0.03820 0.52540 0.11730
H7 H 0.52950 0.40260 -0.05370
H8 H 0.56780 0.23490 -0.03870
H9 H 0.36110 0.43990 -0.20910
H10 H 0.41040 0.27120 -0.19800
H11 H 0.54140 0.55930 -0.30760
H12 H 0.72570 0.55580 -0.45960
H13 H 0.80580 0.15250 -0.47470
H14 H 0.62370 0.14580 -0.32390
H15 H -0.07540 0.91760 0.39830
H16 H -0.16590 1.16830 0.04670
H17 H -0.17950 0.76670 0.11240
Co1A Co 0.03642(4) 0.64137(3) 0.62326(3)
Co1_2 Co -0.03642(4) 1.35863(3) 0.37674(3)
Co1_3 Co 0.96358(4) 0.35863(3) -0.62326(3)
O2A O 0.0962(2) 0.3261(2) 0.52067(18)
O3_2 O 0.0094(2) 0.1365(2) 0.36324(18)
O4_2 O -0.1437(2) 0.3060(2) 0.2285(2)
N2_2 N -0.2160(3) 0.3556(3) 0.5154(2)
loop_
_geom_bond_atom_site_label_1
_geom_bond_atom_site_label_2
_geom_bond_site_symmetry_1
_geom_bond_site_symmetry_2
Co1 O1 1_555 1_555
O1 C13 1_555 1_555
O2 C13 1_555 1_555
O3 C17 1_555 1_555
O4 C17 1_555 1_555
N1 Co1 1_555 1_555
N2 C10 1_555 1_555
N3 C19 1_555 1_555
C1 N1 1_555 1_555
C2 C1 1_555 1_555
C3 C2 1_555 1_555
C4 C3 1_555 1_555
C5 N1 1_555 1_555
C6 C3 1_555 1_555
C7 C6 1_555 1_555
C8 C7 1_555 1_555
C9 C8 1_555 1_555
C10 C9 1_555 1_555
C11 N2 1_555 1_555
C12 C8 1_555 1_555
C13 C14 1_555 1_555
C14 C15 1_555 1_555
C15 C16 1_555 1_555
C16 C17 1_555 1_555
C18 C16 1_555 1_555
C19 C18 1_555 1_555
C20 C14 1_555 1_555
H1 C1 1_555 1_555
H2 C2 1_555 1_555
H3 N3 1_555 1_555
H4 N3 1_555 1_555
H5 C4 1_555 1_555
H6 C5 1_555 1_555
H7 C6 1_555 1_555
H8 C6 1_555 1_555
H9 C7 1_555 1_555
H10 C7 1_555 1_555
H11 C9 1_555 1_555
H12 C10 1_555 1_555
H13 C11 1_555 1_555
H14 C12 1_555 1_555
H15 C15 1_555 1_555
H16 C18 1_555 1_555
H17 C20 1_555 1_555
Co1A O2 1_555 1_555
Co1_2 O3 1_555 1_555
Co1_3 N2 1_555 1_555
O2A Co1 1_555 1_555
O3_2 Co1 1_555 1_555
O4_2 Co1 1_555 1_555
N2_2 Co1 1_555 1_555
O4 Co1_2 1_555 1_555
C4 C5 1_555 1_555
C11 C12 1_555 1_555
C19 C20 1_555 1_555

#END
