
#######################################################################
#
#                 Cambridge Crystallographic Data Centre
#                                CCDC 
#
#######################################################################
#
# If this CIF has been generated from an entry in the Cambridge 
# Structural Database, then it will include bibliographic, chemical, 
# crystal, experimental, refinement or atomic coordinate data resulting 
# from the CCDC's data processing and validation procedures.
#
#######################################################################

data_SUXWOY
_symmetry_cell_setting           monoclinic
_symmetry_space_group_name_H-M   'P 21/n'
_symmetry_Int_Tables_number      14
_space_group_name_Hall           '-P 2yn'
loop_
_symmetry_equiv_pos_site_id
_symmetry_equiv_pos_as_xyz
1 x,y,z
2 1/2-x,1/2+y,1/2-z
3 -x,-y,-z
4 1/2+x,1/2-y,1/2+z
_cell_length_a                   11.721(3)
_cell_length_b                   12.615(4)
_cell_length_c                   21.133(6)
_cell_angle_alpha                90
_cell_angle_beta                 96.585(7)
_cell_angle_gamma                90
_cell_volume                     3104.12
loop_
_atom_site_label
_atom_site_type_symbol
_atom_site_fract_x
_atom_site_fract_y
_atom_site_fract_z
Eu1 Eu 0.73313(3) 0.28658(2) 0.240306(15)
N1 N 0.9295(5) 0.3407(4) 0.3039(3)
C1 C 1.0234(6) 0.2942(5) 0.2843(4)
C2 C 1.1302(7) 0.2917(6) 0.3230(4)
C3 C 1.1340(8) 0.3421(7) 0.3822(4)
H1 H 1.2033 0.3425 0.4095
C4 C 1.0396(7) 0.3910(6) 0.4014(4)
H2 H 1.0435 0.4255 0.441
C5 C 0.9388(7) 0.3882(6) 0.3610(4)
H3 H 0.8735 0.4212 0.3741
C6 C 1.0039(7) 0.2447(6) 0.2190(4)
O1 O 0.9005(4) 0.2233(3) 0.1990(2)
O2 O 1.0864(5) 0.2306(5) 0.1881(3)
C7 C 1.2366(8) 0.2388(8) 0.3051(6)
H4 H 1.2968 0.2429 0.3405
H5 H 1.2615 0.2743 0.2683
H6 H 1.2201 0.165 0.2947
N2 N 0.5296(5) 0.3202(5) 0.1801(3)
C8 C 0.4908(6) 0.2464(5) 0.1358(3)
C9 C 0.3748(7) 0.2430(6) 0.1098(4)
C10 C 0.3025(7) 0.3207(6) 0.1293(4)
H7 H 0.2244 0.32 0.1133
C11 C 0.3431(7) 0.3994(7) 0.1720(4)
H8 H 0.2951 0.4541 0.1836
C12 C 0.4579(6) 0.3936(6) 0.1967(4)
H9 H 0.4863 0.4446 0.2269
C13 C 0.5823(6) 0.1697(5) 0.1196(3)
O3 O 0.6691(4) 0.1589(3) 0.1622(2)
O4 O 0.5705(5) 0.1243(4) 0.0678(2)
C14 C 0.3256(7) 0.1569(6) 0.0649(4)
H10 H 0.3226 0.0908 0.0881
H11 H 0.374 0.1481 0.0309
H12 H 0.2487 0.1766 0.0468
N3 N 0.5686(5) 0.1796(5) 0.2975(3)
C15 C 0.5719(6) 0.2005(5) 0.3608(3)
C16 C 0.5236(7) 0.1327(5) 0.4029(3)
C17 C 0.4677(7) 0.0435(6) 0.3758(4)
H13 H 0.4342 -0.0046 0.4022
C18 C 0.4604(7) 0.0241(6) 0.3116(4)
H14 H 0.4195 -0.0348 0.2936
C19 C 0.5146(7) 0.0935(6) 0.2739(4)
H15 H 0.5131 0.079 0.2302
C20 C 0.6349(6) 0.3030(5) 0.3811(3)
O5 O 0.6793(4) 0.3518(3) 0.3374(2)
O6 O 0.6355(5) 0.3339(4) 0.4368(2)
C21 C 0.5320(9) 0.1480(7) 0.4743(4)
H16 H 0.6116 0.1599 0.491
H17 H 0.5037 0.0851 0.4938
H18 H 0.4862 0.2088 0.4838
N4 N 0.7520(5) 0.3872(4) 0.1301(3)
C22 C 0.7060(6) 0.4861(5) 0.1258(3)
C23 C 0.6665(7) 0.5319(5) 0.0673(3)
C24 C 0.6810(8) 0.4736(6) 0.0131(4)
H19 H 0.6543 0.5012 -0.0273
C25 C 0.7342(8) 0.3756(6) 0.0175(4)
H20 H 0.7467 0.338 -0.0195
C26 C 0.7687(7) 0.3338(6) 0.0771(4)
H21 H 0.8043 0.267 0.0804
C27 C 0.7039(6) 0.5389(5) 0.1895(3)
O7 O 0.7132(4) 0.4795(3) 0.2383(2)
O8 O 0.6971(4) 0.6366(3) 0.1914(2)
C28 C 0.6091(8) 0.6392(6) 0.0615(4)
H22 H 0.5529 0.6441 0.0917
H23 H 0.571 0.6481 0.0186
H24 H 0.6664 0.6942 0.0705
Na1 Na 0.6568(2) 0.5484(2) 0.33723(12)
O9 O 0.7137(5) 0.5404(4) 0.4505(3)
H25 H 0.723(7) 0.478(2) 0.442(4)
H26 H 0.780(3) 0.560(6) 0.452(4)
O10 O 0.4564(6) 0.5189(5) 0.3412(3)
H27 H 0.480(9) 0.568(5) 0.364(4)
H28 H 0.427(8) 0.497(8) 0.372(3)
Eu1A Eu 0.76687(3) 0.78658(2) 0.259694(15)
O1A O 0.5995(4) 0.7233(3) 0.3010(2)
O3A O 0.8309(4) 0.6589(3) 0.3378(2)
O8A O 0.8029(4) 0.1366(3) 0.3086(2)
Na1A Na 0.8432(2) 0.0484(2) 0.16277(12)
O11 O 1.0969(6) -0.1006(6) 0.0514(3)
H29 H 1.111(9) -0.090(8) 0.015(2)
H30 H 1.028(3) -0.113(8) 0.040(5)
loop_
_geom_bond_atom_site_label_1
_geom_bond_atom_site_label_2
_geom_bond_site_symmetry_1
_geom_bond_site_symmetry_2
Eu1 N1 1_555 1_555
N1 C1 1_555 1_555
C1 C2 1_555 1_555
C2 C3 1_555 1_555
C3 H1 1_555 1_555
C4 C3 1_555 1_555
H2 C4 1_555 1_555
C5 N1 1_555 1_555
H3 C5 1_555 1_555
C6 C1 1_555 1_555
O1 Eu1 1_555 1_555
O2 C6 1_555 1_555
C7 C2 1_555 1_555
H4 C7 1_555 1_555
H5 C7 1_555 1_555
H6 C7 1_555 1_555
N2 Eu1 1_555 1_555
C8 N2 1_555 1_555
C9 C8 1_555 1_555
C10 C9 1_555 1_555
H7 C10 1_555 1_555
C11 C10 1_555 1_555
H8 C11 1_555 1_555
C12 N2 1_555 1_555
H9 C12 1_555 1_555
C13 C8 1_555 1_555
O3 Eu1 1_555 1_555
O4 C13 1_555 1_555
C14 C9 1_555 1_555
H10 C14 1_555 1_555
H11 C14 1_555 1_555
H12 C14 1_555 1_555
N3 Eu1 1_555 1_555
C15 N3 1_555 1_555
C16 C15 1_555 1_555
C17 C16 1_555 1_555
H13 C17 1_555 1_555
C18 C17 1_555 1_555
H14 C18 1_555 1_555
C19 N3 1_555 1_555
H15 C19 1_555 1_555
C20 C15 1_555 1_555
O5 Eu1 1_555 1_555
O6 C20 1_555 1_555
C21 C16 1_555 1_555
H16 C21 1_555 1_555
H17 C21 1_555 1_555
H18 C21 1_555 1_555
N4 Eu1 1_555 1_555
C22 N4 1_555 1_555
C23 C22 1_555 1_555
C24 C23 1_555 1_555
H19 C24 1_555 1_555
C25 C24 1_555 1_555
H20 C25 1_555 1_555
C26 N4 1_555 1_555
H21 C26 1_555 1_555
C27 C22 1_555 1_555
O7 Eu1 1_555 1_555
O8 C27 1_555 1_555
C28 C23 1_555 1_555
H22 C28 1_555 1_555
H23 C28 1_555 1_555
H24 C28 1_555 1_555
Na1 O5 1_555 1_555
O9 Na1 1_555 1_555
H25 O9 1_555 1_555
H26 O9 1_555 1_555
O10 Na1 1_555 1_555
H27 O10 1_555 1_555
H28 O10 1_555 1_555
O11 H29 1_555 1_555
H30 O11 1_555 1_555
Eu1A O8 1_555 1_555
O1A Na1 1_555 1_555
O3A Na1 1_555 1_555
O8A Eu1 1_555 1_555
Na1A O1 1_555 1_555
C4 C5 1_555 1_555
C6 O1 1_555 1_555
C11 C12 1_555 1_555
C13 O3 1_555 1_555
O3 Na1A 1_555 1_555
C18 C19 1_555 1_555
C20 O5 1_555 1_555
C25 C26 1_555 1_555
C27 O7 1_555 1_555
O7 Na1 1_555 1_555
Eu1A O1A 1_555 1_555
Eu1A O3A 1_555 1_555

#END
