
#######################################################################
#
#                 Cambridge Crystallographic Data Centre
#                                CCDC 
#
#######################################################################
#
# If this CIF has been generated from an entry in the Cambridge 
# Structural Database, then it will include bibliographic, chemical, 
# crystal, experimental, refinement or atomic coordinate data resulting 
# from the CCDC's data processing and validation procedures.
#
#######################################################################

data_SUXYIU
_symmetry_cell_setting           tetragonal
_symmetry_space_group_name_H-M   'I 41/a c d'
_symmetry_Int_Tables_number      142
_space_group_name_Hall           '-I 4bd 2c'
loop_
_symmetry_equiv_pos_site_id
_symmetry_equiv_pos_as_xyz
1 x,y,z
2 1/4-y,3/4+x,1/4+z
3 -x,1/2-y,z
4 1/4+y,1/4-x,3/4+z
5 x,-y,1/2-z
6 1/2-x,y,-z
7 3/4+y,1/4+x,1/4-z
8 1/4-y,1/4-x,1/4-z
9 1/2+x,1/2+y,1/2+z
10 3/4-y,1/4+x,3/4+z
11 1/2-x,-y,1/2+z
12 3/4+y,3/4-x,1/4+z
13 1/2+x,1/2-y,-z
14 -x,1/2+y,1/2-z
15 1/4+y,3/4+x,3/4-z
16 3/4-y,3/4-x,3/4-z
17 -x,-y,-z
18 3/4+y,1/4-x,3/4-z
19 x,1/2+y,-z
20 3/4-y,3/4+x,1/4-z
21 -x,y,1/2+z
22 1/2+x,-y,z
23 1/4-y,3/4-x,3/4+z
24 3/4+y,3/4+x,3/4+z
25 1/2-x,1/2-y,1/2-z
26 1/4+y,3/4-x,1/4-z
27 1/2+x,y,1/2-z
28 1/4-y,1/4+x,3/4-z
29 1/2-x,1/2+y,z
30 x,1/2-y,1/2+z
31 3/4-y,1/4-x,1/4+z
32 1/4+y,1/4+x,1/4+z
_cell_length_a                   15.2302(4)
_cell_length_b                   15.2302(4)
_cell_length_c                   22.6334(12)
_cell_angle_alpha                90
_cell_angle_beta                 90
_cell_angle_gamma                90
_cell_volume                     5250.02
loop_
_atom_site_label
_atom_site_type_symbol
_atom_site_fract_x
_atom_site_fract_y
_atom_site_fract_z
Ho1 Ho 0.5000 0.2500 0.3750
O1 O 0.59106(13) 0.21881(15) 0.29529(10)
O2 O 0.53202(15) 0.39424(13) 0.34396(10)
N1 N 0.66932(17) 0.23422(18) 0.27425(13)
N2 N 0.52691(17) 0.44463(16) 0.29771(12)
C1 C 0.70854(19) 0.17233(19) 0.24034(14)
H1 H 0.6800 0.1178 0.2336
C2 C 0.78932(19) 0.18805(19) 0.21558(14)
H2 H 0.8163 0.1448 0.1914
C3 C 0.5262(2) 0.41170(19) 0.24238(14)
H3 H 0.5259 0.3499 0.2366
C4 C 0.5259(2) 0.46676(19) 0.19448(15)
H4 H 0.5249 0.4430 0.1557
Ho1A Ho 0.0000 0.2500 0.6250
Ho1C Ho 0.5000 0.7500 0.1250
Ho1P Ho 0.5000 -0.2500 0.6250
Ho1V Ho 1.0000 0.2500 0.1250
O1X O 0.90894(13) 0.28119(15) 0.20471(10)
O1O O 0.53119(15) 0.15894(13) 0.45471(10)
O1EA O 0.46881(15) -0.15894(13) 0.54529(10)
O1B O 0.40894(13) 0.28119(15) 0.29529(10)
O1N O 0.46881(15) 0.34106(13) 0.45471(10)
O2D O 0.53202(15) 0.60576(13) 0.15604(10)
O2O O 0.35576(13) 0.21798(15) 0.40604(10)
O2K O 0.14424(13) 0.21798(15) 0.59396(10)
O2N O 0.64424(13) 0.28202(15) 0.40604(10)
O2B O 0.46798(15) 0.10576(13) 0.34396(10)
N1X N 0.83068(17) 0.26578(18) 0.22575(13)
N1O N 0.51578(18) 0.08068(17) 0.47575(13)
N1EA N 0.48422(18) -0.08068(17) 0.52425(13)
N2D N 0.52691(17) 0.55537(16) 0.20229(12)
N2O N 0.30537(16) 0.22309(17) 0.45229(12)
N2K N 0.19463(16) 0.22309(17) 0.54771(12)
C1X C 0.79146(19) 0.32767(19) 0.25966(14)
C1O C 0.57767(19) 0.04146(19) 0.50966(14)
C1EA C 0.42233(19) -0.04146(19) 0.49034(14)
H1X H 0.8200 0.3822 0.2664
H1O H 0.6322 0.0700 0.5164
H1EA H 0.3678 -0.0700 0.4836
C2X C 0.71068(19) 0.31195(19) 0.28442(14)
C2O C 0.56195(19) -0.03932(19) 0.53442(14)
C2EA C 0.43805(19) 0.03932(19) 0.46558(14)
H2X H 0.6837 0.3552 0.3086
H2O H 0.6052 -0.0663 0.5586
H2EA H 0.3948 0.0663 0.4414
C3D C 0.5262(2) 0.58830(19) 0.25762(14)
C3O C 0.33830(19) 0.2238(2) 0.50762(14)
C3K C 0.16170(19) 0.2238(2) 0.49238(14)
H3D H 0.5259 0.6501 0.2634
H3O H 0.4001 0.2241 0.5134
H3K H 0.0999 0.2241 0.4866
C4D C 0.5259(2) 0.53324(19) 0.30552(15)
C4O C 0.28324(19) 0.2241(2) 0.55552(15)
C4K C 0.21676(19) 0.2241(2) 0.44448(15)
H4D H 0.5249 0.5570 0.3443
H4O H 0.3070 0.2251 0.5943
H4K H 0.1930 0.2251 0.4057
Cl1 Cl 0.5000 0.2500 0.1250
O3 O 0.57646(17) 0.24391(17) 0.16195(12)
O3B O 0.42354(17) 0.25609(17) 0.16195(12)
O3S O 0.50609(17) 0.32646(17) 0.08805(12)
O3Y O 0.49391(17) 0.17354(17) 0.08805(12)
Cl2 Cl 0.72659(6) -0.02341(6) 0.1250
O4 O 0.6466(4) -0.0166(5) 0.1510(4)
O5 O 0.7914(4) -0.0059(4) 0.1660(4)
O4F O 0.7334(5) -0.1034(4) 0.0990(4)
O5F O 0.7441(4) 0.0414(4) 0.0840(4)
loop_
_geom_bond_atom_site_label_1
_geom_bond_atom_site_label_2
_geom_bond_site_symmetry_1
_geom_bond_site_symmetry_2
Ho1 O1 1_555 1_555
Cl1 O3 1_555 1_555
Cl2 O4 1_555 1_555
O1 N1 1_555 1_555
O2 Ho1 1_555 1_555
O5 Cl2 1_555 1_555
N1 C1 1_555 1_555
N2 O2 1_555 1_555
C1 H1 1_555 1_555
C2 C1 1_555 1_555
H2 C2 1_555 1_555
C3 N2 1_555 1_555
H3 C3 1_555 1_555
C4 C3 1_555 1_555
H4 C4 1_555 1_555
Ho1A O2K 1_555 1_555
Ho1C O2D 1_555 1_555
Ho1P O1EA 1_555 1_555
Ho1V O1X 1_555 1_555
O1X N1X 1_555 1_555
O1O Ho1 1_555 1_555
O1EA N1EA 1_555 1_555
O1B Ho1 1_555 1_555
O1N Ho1 1_555 1_555
O2D N2D 1_555 1_555
O2O Ho1 1_555 1_555
O2K N2K 1_555 1_555
O2N Ho1 1_555 1_555
O2B Ho1 1_555 1_555
O3B Cl1 1_555 1_555
O3S Cl1 1_555 1_555
O3Y Cl1 1_555 1_555
O4F Cl2 1_555 1_555
O5F Cl2 1_555 1_555
N1X C2 1_555 1_555
N1O O1O 1_555 1_555
N1EA C1EA 1_555 1_555
N2D C4 1_555 1_555
N2O O2O 1_555 1_555
N2K C3K 1_555 1_555
C1X N1X 1_555 1_555
C1O N1O 1_555 1_555
C1EA H1EA 1_555 1_555
H1X C1X 1_555 1_555
H1O C1O 1_555 1_555
C2X N1 1_555 1_555
C2O N1EA 1_555 1_555
C2EA N1O 1_555 1_555
H2X C2X 1_555 1_555
H2O C2O 1_555 1_555
H2EA C2EA 1_555 1_555
C3D N2D 1_555 1_555
C3O N2O 1_555 1_555
C3K H3K 1_555 1_555
H3D C3D 1_555 1_555
H3O C3O 1_555 1_555
C4D N2 1_555 1_555
C4O N2K 1_555 1_555
C4K N2O 1_555 1_555
H4D C4D 1_555 1_555
H4O C4O 1_555 1_555
H4K C4K 1_555 1_555
C1X C2X 1_555 1_555
C1O C2O 1_555 1_555
C1EA C2EA 1_555 1_555
C3D C4D 1_555 1_555
C3O C4O 1_555 1_555
C3K C4K 1_555 1_555

#END
