
#######################################################################
#
#                 Cambridge Crystallographic Data Centre
#                                CCDC 
#
#######################################################################
#
# If this CIF has been generated from an entry in the Cambridge 
# Structural Database, then it will include bibliographic, chemical, 
# crystal, experimental, refinement or atomic coordinate data resulting 
# from the CCDC's data processing and validation procedures.
#
#######################################################################

data_SUXYAM
_symmetry_cell_setting           tetragonal
_symmetry_space_group_name_H-M   'I 41/a c d'
_symmetry_Int_Tables_number      142
_space_group_name_Hall           '-I 4bd 2c'
loop_
_symmetry_equiv_pos_site_id
_symmetry_equiv_pos_as_xyz
1 x,y,z
2 1/4-y,3/4+x,1/4+z
3 -x,1/2-y,z
4 1/4+y,1/4-x,3/4+z
5 x,-y,1/2-z
6 1/2-x,y,-z
7 3/4+y,1/4+x,1/4-z
8 1/4-y,1/4-x,1/4-z
9 1/2+x,1/2+y,1/2+z
10 3/4-y,1/4+x,3/4+z
11 1/2-x,-y,1/2+z
12 3/4+y,3/4-x,1/4+z
13 1/2+x,1/2-y,-z
14 -x,1/2+y,1/2-z
15 1/4+y,3/4+x,3/4-z
16 3/4-y,3/4-x,3/4-z
17 -x,-y,-z
18 3/4+y,1/4-x,3/4-z
19 x,1/2+y,-z
20 3/4-y,3/4+x,1/4-z
21 -x,y,1/2+z
22 1/2+x,-y,z
23 1/4-y,3/4-x,3/4+z
24 3/4+y,3/4+x,3/4+z
25 1/2-x,1/2-y,1/2-z
26 1/4+y,3/4-x,1/4-z
27 1/2+x,y,1/2-z
28 1/4-y,1/4+x,3/4-z
29 1/2-x,1/2+y,z
30 x,1/2-y,1/2+z
31 3/4-y,1/4-x,1/4+z
32 1/4+y,1/4+x,1/4+z
_cell_length_a                   15.3804(4)
_cell_length_b                   15.3804(4)
_cell_length_c                   22.9843(12)
_cell_angle_alpha                90
_cell_angle_beta                 90
_cell_angle_gamma                90
_cell_volume                     5437.09
loop_
_atom_site_label
_atom_site_type_symbol
_atom_site_fract_x
_atom_site_fract_y
_atom_site_fract_z
Nd1 Nd 0.5000 0.2500 0.3750
O1 O 0.59191(12) 0.21965(14) 0.29303(8)
O2 O 0.53338(14) 0.39686(12) 0.34324(8)
N1 N 0.66963(15) 0.23449(15) 0.27293(10)
N2 N 0.52833(15) 0.44642(14) 0.29745(9)
C1 C 0.70832(17) 0.17377(17) 0.23897(11)
H1 H 0.6797 0.1202 0.2315
C2 C 0.71114(16) 0.31041(17) 0.28460(11)
H2 H 0.6845 0.3525 0.3090
C3 C 0.52715(18) 0.41238(16) 0.24314(11)
H3 H 0.5264 0.3511 0.2380
C4 C 0.52702(18) 0.53383(16) 0.30453(11)
H4 H 0.5260 0.5580 0.3426
Nd1V Nd 1.0000 0.2500 0.1250
Nd1C Nd 0.5000 0.7500 0.1250
Nd1V_2 Nd 0.0000 0.2500 0.1250
Nd1C_2 Nd 0.5000 -0.2500 0.1250
O1X O 0.90809(12) 0.28035(14) 0.20697(8)
O1B O 0.40809(12) 0.28035(14) 0.29303(8)
O1Z O 0.09191(12) 0.21965(14) 0.20697(8)
O1N O 0.46965(14) 0.34191(12) 0.45697(8)
O1O O 0.53035(14) 0.15809(12) 0.45697(8)
O2D O 0.53338(14) 0.60314(12) 0.15676(8)
O2B O 0.46662(14) 0.10314(12) 0.34324(8)
O2M O 0.46662(14) -0.10314(12) 0.15676(8)
O2N O 0.64686(12) 0.28338(14) 0.40676(8)
O2O O 0.35314(12) 0.21662(14) 0.40676(8)
N1X N 0.83037(15) 0.26551(15) 0.22707(10)
N1B N 0.33037(15) 0.26551(15) 0.27293(10)
N1Z N 0.16963(15) 0.23449(15) 0.22707(10)
N2D N 0.52833(15) 0.55358(14) 0.20255(9)
N2B N 0.47167(15) 0.05358(14) 0.29745(9)
N2M N 0.47167(15) -0.05358(14) 0.20255(9)
C1X C 0.79168(17) 0.32623(17) 0.26103(11)
C1B C 0.29168(17) 0.32623(17) 0.23897(11)
C1Z C 0.20832(17) 0.17377(17) 0.26103(11)
H1X H 0.8203 0.3798 0.2685
H1B H 0.3203 0.3798 0.2315
H1Z H 0.1797 0.1202 0.2685
C2X C 0.78886(16) 0.18959(17) 0.21540(11)
C2B C 0.28886(16) 0.18959(17) 0.28460(11)
C2Z C 0.21114(16) 0.31041(17) 0.21540(11)
H2X H 0.8155 0.1475 0.1910
H2B H 0.3155 0.1475 0.3090
H2Z H 0.1845 0.3525 0.1910
C3D C 0.52715(18) 0.58762(16) 0.25686(11)
C3B C 0.47285(18) 0.08762(16) 0.24314(11)
C3M C 0.47285(18) -0.08762(16) 0.25686(11)
H3D H 0.5264 0.6489 0.2620
H3B H 0.4736 0.1489 0.2380
H3M H 0.4736 -0.1489 0.2620
C4D C 0.52702(18) 0.46617(16) 0.19547(11)
C4B C 0.47298(18) -0.03383(16) 0.30453(11)
C4M C 0.47298(18) 0.03383(16) 0.19547(11)
H4D H 0.5260 0.4420 0.1574
H4B H 0.4740 -0.0580 0.3426
H4M H 0.4740 0.0580 0.1574
Cl1 Cl 0.5000 0.2500 0.1250
O3 O 0.57573(16) 0.24613(16) 0.16135(10)
O3B O 0.42427(16) 0.25387(16) 0.16135(10)
O3S O 0.50387(16) 0.32573(16) 0.08865(10)
O3Y O 0.49613(16) 0.17427(16) 0.08865(10)
Cl2 Cl 0.72544(6) -0.02456(6) 0.1250
O4 O 0.6477(5) -0.0172(6) 0.1497(5)
O5 O 0.7895(5) -0.0023(6) 0.1623(5)
O4F O 0.7328(6) -0.1023(5) 0.1003(5)
O5F O 0.7477(6) 0.0395(5) 0.0877(5)
loop_
_geom_bond_atom_site_label_1
_geom_bond_atom_site_label_2
_geom_bond_site_symmetry_1
_geom_bond_site_symmetry_2
Nd1 O1 1_555 1_555
Cl1 O3 1_555 1_555
Cl2 O4 1_555 1_555
O1 N1 1_555 1_555
O2 Nd1 1_555 1_555
O5 Cl2 1_555 1_555
N1 C1 1_555 1_555
N2 O2 1_555 1_555
C1 H1 1_555 1_555
C2 N1 1_555 1_555
H2 C2 1_555 1_555
C3 N2 1_555 1_555
H3 C3 1_555 1_555
C4 N2 1_555 1_555
H4 C4 1_555 1_555
Nd1V O1X 1_555 1_555
Nd1C O2D 1_555 1_555
Nd1V_2 O1Z 1_555 1_555
Nd1C_2 O2M 1_555 1_555
O1X N1X 1_555 1_555
O1B Nd1 1_555 1_555
O1Z N1Z 1_555 1_555
O1N Nd1 1_555 1_555
O1O Nd1 1_555 1_555
O2D N2D 1_555 1_555
O2B Nd1 1_555 1_555
O2M N2M 1_555 1_555
O2N Nd1 1_555 1_555
O2O Nd1 1_555 1_555
O3B Cl1 1_555 1_555
O3S Cl1 1_555 1_555
O3Y Cl1 1_555 1_555
O4F Cl2 1_555 1_555
O5F Cl2 1_555 1_555
N1X C1X 1_555 1_555
N1B O1B 1_555 1_555
N1Z C1Z 1_555 1_555
N2D C3D 1_555 1_555
N2B O2B 1_555 1_555
N2M C3M 1_555 1_555
C1X C2 1_555 1_555
C1B N1B 1_555 1_555
C1Z H1Z 1_555 1_555
H1X C1X 1_555 1_555
H1B C1B 1_555 1_555
C2X C1 1_555 1_555
C2B N1B 1_555 1_555
C2Z N1Z 1_555 1_555
H2X C2X 1_555 1_555
H2B C2B 1_555 1_555
H2Z C2Z 1_555 1_555
C3D C4 1_555 1_555
C3B N2B 1_555 1_555
C3M H3M 1_555 1_555
H3D C3D 1_555 1_555
H3B C3B 1_555 1_555
C4D C3 1_555 1_555
C4B N2B 1_555 1_555
C4M N2M 1_555 1_555
H4D C4D 1_555 1_555
H4B C4B 1_555 1_555
H4M C4M 1_555 1_555
N1X C2X 1_555 1_555
N2D C4D 1_555 1_555
C1B C2Z 1_555 1_555
C1Z C2B 1_555 1_555
C3B C4M 1_555 1_555
C3M C4B 1_555 1_555

#END
