
#######################################################################
#
#                 Cambridge Crystallographic Data Centre
#                                CCDC 
#
#######################################################################
#
# If this CIF has been generated from an entry in the Cambridge 
# Structural Database, then it will include bibliographic, chemical, 
# crystal, experimental, refinement or atomic coordinate data resulting 
# from the CCDC's data processing and validation procedures.
#
#######################################################################

data_SUXYOA
_symmetry_cell_setting           tetragonal
_symmetry_space_group_name_H-M   'I 41/a c d'
_symmetry_Int_Tables_number      142
_space_group_name_Hall           '-I 4bd 2c'
loop_
_symmetry_equiv_pos_site_id
_symmetry_equiv_pos_as_xyz
1 x,y,z
2 1/4-y,3/4+x,1/4+z
3 -x,1/2-y,z
4 1/4+y,1/4-x,3/4+z
5 x,-y,1/2-z
6 1/2-x,y,-z
7 3/4+y,1/4+x,1/4-z
8 1/4-y,1/4-x,1/4-z
9 1/2+x,1/2+y,1/2+z
10 3/4-y,1/4+x,3/4+z
11 1/2-x,-y,1/2+z
12 3/4+y,3/4-x,1/4+z
13 1/2+x,1/2-y,-z
14 -x,1/2+y,1/2-z
15 1/4+y,3/4+x,3/4-z
16 3/4-y,3/4-x,3/4-z
17 -x,-y,-z
18 3/4+y,1/4-x,3/4-z
19 x,1/2+y,-z
20 3/4-y,3/4+x,1/4-z
21 -x,y,1/2+z
22 1/2+x,-y,z
23 1/4-y,3/4-x,3/4+z
24 3/4+y,3/4+x,3/4+z
25 1/2-x,1/2-y,1/2-z
26 1/4+y,3/4-x,1/4-z
27 1/2+x,y,1/2-z
28 1/4-y,1/4+x,3/4-z
29 1/2-x,1/2+y,z
30 x,1/2-y,1/2+z
31 3/4-y,1/4-x,1/4+z
32 1/4+y,1/4+x,1/4+z
_cell_length_a                   15.1777(4)
_cell_length_b                   15.1777(4)
_cell_length_c                   22.5094(12)
_cell_angle_alpha                90
_cell_angle_beta                 90
_cell_angle_gamma                90
_cell_volume                     5185.32
loop_
_atom_site_label
_atom_site_type_symbol
_atom_site_fract_x
_atom_site_fract_y
_atom_site_fract_z
Er1 Er 0.5000 0.2500 0.3750
O1 O 0.59052(11) 0.21840(12) 0.29594(8)
O2 O 0.53202(12) 0.39323(11) 0.34440(8)
N1 N 0.66916(14) 0.23390(14) 0.27491(9)
N2 N 0.52617(14) 0.44427(13) 0.29795(9)
C1 C 0.70908(16) 0.17164(16) 0.24123(10)
H1 H 0.6810 0.1164 0.2351
C2 C 0.78967(15) 0.18759(16) 0.21586(11)
H2 H 0.8168 0.1438 0.1918
C3 C 0.52531(17) 0.41139(15) 0.24210(10)
H3 H 0.5249 0.3494 0.2361
C4 C 0.52504(17) 0.46718(15) 0.19415(10)
H4 H 0.5240 0.4436 0.1551
Er1A Er 0.0000 0.2500 0.6250
Er1C Er 0.5000 0.7500 0.1250
Er1P Er 0.5000 -0.2500 0.6250
Er1V Er 1.0000 0.2500 0.1250
O1X O 0.90948(11) 0.28160(12) 0.20406(8)
O1O O 0.53160(12) 0.15948(11) 0.45406(8)
O1EA O 0.46840(12) -0.15948(11) 0.54594(8)
O1B O 0.40948(11) 0.28160(12) 0.29594(8)
O1N O 0.46840(12) 0.34052(11) 0.45406(8)
O2D O 0.53202(12) 0.60677(11) 0.15560(8)
O2O O 0.35677(11) 0.21798(12) 0.40560(8)
O2K O 0.14323(11) 0.21798(12) 0.59440(8)
O2N O 0.64323(11) 0.28202(12) 0.40560(8)
O2B O 0.46798(12) 0.10677(11) 0.34440(8)
N1X N 0.83084(14) 0.26610(14) 0.22509(9)
N1O N 0.51610(14) 0.08084(14) 0.47509(9)
N1EA N 0.48390(14) -0.08084(14) 0.52491(9)
N2D N 0.52617(14) 0.55573(13) 0.20205(9)
N2O N 0.30573(13) 0.22383(14) 0.45205(9)
N2K N 0.19427(13) 0.22383(14) 0.54795(9)
C1X C 0.79092(16) 0.32836(16) 0.25877(10)
C1O C 0.57836(16) 0.04092(16) 0.50877(10)
C1EA C 0.42164(16) -0.04092(16) 0.49123(10)
H1X H 0.8190 0.3836 0.2649
H1O H 0.6336 0.0690 0.5149
H1EA H 0.3664 -0.0690 0.4851
C2X C 0.71033(15) 0.31241(16) 0.28414(11)
C2O C 0.56241(16) -0.03967(15) 0.53414(11)
C2EA C 0.43759(16) 0.03967(15) 0.46586(11)
H2X H 0.6832 0.3562 0.3082
H2O H 0.6062 -0.0668 0.5582
H2EA H 0.3938 0.0668 0.4418
C3D C 0.52531(17) 0.58861(15) 0.25790(10)
C3O C 0.33861(15) 0.22469(17) 0.50790(10)
C3K C 0.16139(15) 0.22469(17) 0.49210(10)
H3D H 0.5249 0.6506 0.2639
H3O H 0.4006 0.2251 0.5139
H3K H 0.0994 0.2251 0.4861
C4D C 0.52504(17) 0.53282(15) 0.30585(10)
C4O C 0.28282(15) 0.22496(17) 0.55585(10)
C4K C 0.21718(15) 0.22496(17) 0.44415(10)
H4D H 0.5240 0.5564 0.3449
H4O H 0.3064 0.2260 0.5949
H4K H 0.1936 0.2260 0.4051
Cl1 Cl 0.5000 0.2500 0.1250
O3 O 0.57685(14) 0.24307(14) 0.16232(9)
O3B O 0.42315(14) 0.25693(14) 0.16232(9)
O3S O 0.50693(14) 0.32685(14) 0.08768(9)
O3Y O 0.49307(14) 0.17315(14) 0.08768(9)
Cl2 Cl 0.72764(5) -0.02236(5) 0.1250
O4 O 0.6459(3) -0.0156(4) 0.1512(3)
O5 O 0.7922(3) -0.0078(3) 0.1690(3)
O4F O 0.7344(4) -0.1041(3) 0.0988(3)
O5F O 0.7422(3) 0.0422(3) 0.0810(3)
loop_
_geom_bond_atom_site_label_1
_geom_bond_atom_site_label_2
_geom_bond_site_symmetry_1
_geom_bond_site_symmetry_2
Er1 O1 1_555 1_555
Cl1 O3 1_555 1_555
Cl2 O4 1_555 1_555
O1 N1 1_555 1_555
O2 Er1 1_555 1_555
O5 Cl2 1_555 1_555
N1 C1 1_555 1_555
N2 O2 1_555 1_555
C1 H1 1_555 1_555
C2 C1 1_555 1_555
H2 C2 1_555 1_555
C3 N2 1_555 1_555
H3 C3 1_555 1_555
C4 C3 1_555 1_555
H4 C4 1_555 1_555
Er1A O2K 1_555 1_555
Er1C O2D 1_555 1_555
Er1P O1EA 1_555 1_555
Er1V O1X 1_555 1_555
O1X N1X 1_555 1_555
O1O Er1 1_555 1_555
O1EA N1EA 1_555 1_555
O1B Er1 1_555 1_555
O1N Er1 1_555 1_555
O2D N2D 1_555 1_555
O2O Er1 1_555 1_555
O2K N2K 1_555 1_555
O2N Er1 1_555 1_555
O2B Er1 1_555 1_555
O3B Cl1 1_555 1_555
O3S Cl1 1_555 1_555
O3Y Cl1 1_555 1_555
O4F Cl2 1_555 1_555
O5F Cl2 1_555 1_555
N1X C2 1_555 1_555
N1O O1O 1_555 1_555
N1EA C1EA 1_555 1_555
N2D C4 1_555 1_555
N2O O2O 1_555 1_555
N2K C3K 1_555 1_555
C1X N1X 1_555 1_555
C1O N1O 1_555 1_555
C1EA H1EA 1_555 1_555
H1X C1X 1_555 1_555
H1O C1O 1_555 1_555
C2X N1 1_555 1_555
C2O N1EA 1_555 1_555
C2EA N1O 1_555 1_555
H2X C2X 1_555 1_555
H2O C2O 1_555 1_555
H2EA C2EA 1_555 1_555
C3D N2D 1_555 1_555
C3O N2O 1_555 1_555
C3K H3K 1_555 1_555
H3D C3D 1_555 1_555
H3O C3O 1_555 1_555
C4D N2 1_555 1_555
C4O N2K 1_555 1_555
C4K N2O 1_555 1_555
H4D C4D 1_555 1_555
H4O C4O 1_555 1_555
H4K C4K 1_555 1_555
C1X C2X 1_555 1_555
C1O C2O 1_555 1_555
C1EA C2EA 1_555 1_555
C3D C4D 1_555 1_555
C3O C4O 1_555 1_555
C3K C4K 1_555 1_555

#END
