
#######################################################################
#
#                 Cambridge Crystallographic Data Centre
#                                CCDC 
#
#######################################################################
#
# If this CIF has been generated from an entry in the Cambridge 
# Structural Database, then it will include bibliographic, chemical, 
# crystal, experimental, refinement or atomic coordinate data resulting 
# from the CCDC's data processing and validation procedures.
#
#######################################################################

data_SUXYEQ
_symmetry_cell_setting           tetragonal
_symmetry_space_group_name_H-M   'I 41/a c d'
_symmetry_Int_Tables_number      142
_space_group_name_Hall           '-I 4bd 2c'
loop_
_symmetry_equiv_pos_site_id
_symmetry_equiv_pos_as_xyz
1 x,y,z
2 1/4-y,3/4+x,1/4+z
3 -x,1/2-y,z
4 1/4+y,1/4-x,3/4+z
5 x,-y,1/2-z
6 1/2-x,y,-z
7 3/4+y,1/4+x,1/4-z
8 1/4-y,1/4-x,1/4-z
9 1/2+x,1/2+y,1/2+z
10 3/4-y,1/4+x,3/4+z
11 1/2-x,-y,1/2+z
12 3/4+y,3/4-x,1/4+z
13 1/2+x,1/2-y,-z
14 -x,1/2+y,1/2-z
15 1/4+y,3/4+x,3/4-z
16 3/4-y,3/4-x,3/4-z
17 -x,-y,-z
18 3/4+y,1/4-x,3/4-z
19 x,1/2+y,-z
20 3/4-y,3/4+x,1/4-z
21 -x,y,1/2+z
22 1/2+x,-y,z
23 1/4-y,3/4-x,3/4+z
24 3/4+y,3/4+x,3/4+z
25 1/2-x,1/2-y,1/2-z
26 1/4+y,3/4-x,1/4-z
27 1/2+x,y,1/2-z
28 1/4-y,1/4+x,3/4-z
29 1/2-x,1/2+y,z
30 x,1/2-y,1/2+z
31 3/4-y,1/4-x,1/4+z
32 1/4+y,1/4+x,1/4+z
_cell_length_a                   15.2553(4)
_cell_length_b                   15.2553(4)
_cell_length_c                   22.6667(12)
_cell_angle_alpha                90
_cell_angle_beta                 90
_cell_angle_gamma                90
_cell_volume                     5275.09
loop_
_atom_site_label
_atom_site_type_symbol
_atom_site_fract_x
_atom_site_fract_y
_atom_site_fract_z
Dy1 Dy 0.5000 0.2500 0.3750
O1 O 0.59121(12) 0.21876(14) 0.29510(10)
O2 O 0.53217(14) 0.39451(12) 0.34383(10)
N1 N 0.66943(16) 0.23424(16) 0.27415(13)
N2 N 0.52711(16) 0.44491(15) 0.29779(12)
C1 C 0.70896(18) 0.17248(18) 0.24020(14)
H1 H 0.6807 0.1179 0.2335
C2 C 0.78920(18) 0.18838(18) 0.21566(14)
H2 H 0.8161 0.1453 0.1914
C3 C 0.5260(2) 0.41183(17) 0.24253(15)
H3 H 0.5252 0.3501 0.2368
C4 C 0.52588(19) 0.46669(17) 0.19470(15)
H4 H 0.5250 0.4428 0.1560
Dy1A Dy 0.0000 0.2500 0.6250
Dy1C Dy 0.5000 0.7500 0.1250
Dy1P Dy 0.5000 -0.2500 0.6250
Dy1V Dy 1.0000 0.2500 0.1250
O1X O 0.90879(12) 0.28124(14) 0.20490(10)
O1O O 0.53124(14) 0.15879(12) 0.45490(10)
O1EA O 0.46876(14) -0.15879(12) 0.54510(10)
O1B O 0.40879(12) 0.28124(14) 0.29510(10)
O1N O 0.46876(14) 0.34121(12) 0.45490(10)
O2D O 0.53217(14) 0.60549(12) 0.15617(10)
O2O O 0.35549(12) 0.21783(14) 0.40617(10)
O2K O 0.14451(12) 0.21783(14) 0.59383(10)
O2N O 0.64451(12) 0.28217(14) 0.40617(10)
O2B O 0.46783(14) 0.10549(12) 0.34383(10)
N1X N 0.83057(16) 0.26576(16) 0.22585(13)
N1O N 0.51576(16) 0.08057(16) 0.47585(13)
N1EA N 0.48424(16) -0.08057(16) 0.52415(13)
N2D N 0.52711(16) 0.55509(15) 0.20221(12)
N2O N 0.30509(15) 0.22289(16) 0.45221(12)
N2K N 0.19491(15) 0.22289(16) 0.54779(12)
C1X C 0.79104(18) 0.32752(18) 0.25980(14)
C1O C 0.57752(18) 0.04104(18) 0.50980(14)
C1EA C 0.42248(18) -0.04104(18) 0.49020(14)
H1X H 0.8193 0.3821 0.2665
H1O H 0.6321 0.0693 0.5165
H1EA H 0.3679 -0.0693 0.4835
C2X C 0.71080(18) 0.31162(18) 0.28434(14)
C2O C 0.56162(18) -0.03920(18) 0.53434(14)
C2EA C 0.43838(18) 0.03920(18) 0.46566(14)
H2X H 0.6839 0.3547 0.3086
H2O H 0.6047 -0.0661 0.5586
H2EA H 0.3953 0.0661 0.4414
C3D C 0.5260(2) 0.58817(17) 0.25747(15)
C3O C 0.33817(17) 0.2240(2) 0.50747(15)
C3K C 0.16183(17) 0.2240(2) 0.49253(15)
H3D H 0.5252 0.6499 0.2632
H3O H 0.3999 0.2248 0.5132
H3K H 0.1001 0.2248 0.4868
C4D C 0.52588(19) 0.53331(17) 0.30530(15)
C4O C 0.28331(17) 0.22412(19) 0.55530(15)
C4K C 0.21669(17) 0.22412(19) 0.44470(15)
H4D H 0.5250 0.5572 0.3440
H4O H 0.3072 0.2250 0.5940
H4K H 0.1928 0.2250 0.4060
Cl1 Cl 0.5000 0.2500 0.1250
O3 O 0.57642(16) 0.24419(16) 0.16207(12)
O3B O 0.42358(16) 0.25581(16) 0.16207(12)
O3S O 0.50581(16) 0.32642(16) 0.08793(12)
O3Y O 0.49419(16) 0.17358(16) 0.08793(12)
Cl2 Cl 0.72654(6) -0.02346(6) 0.1250
O4 O 0.6466(4) -0.0162(4) 0.1506(4)
O5 O 0.7912(4) -0.0056(4) 0.1658(4)
O4F O 0.7338(4) -0.1034(4) 0.0994(4)
O5F O 0.7444(4) 0.0412(4) 0.0842(4)
loop_
_geom_bond_atom_site_label_1
_geom_bond_atom_site_label_2
_geom_bond_site_symmetry_1
_geom_bond_site_symmetry_2
Dy1 O1 1_555 1_555
Cl1 O3 1_555 1_555
Cl2 O4 1_555 1_555
O1 N1 1_555 1_555
O2 Dy1 1_555 1_555
O5 Cl2 1_555 1_555
N1 C1 1_555 1_555
N2 O2 1_555 1_555
C1 H1 1_555 1_555
C2 C1 1_555 1_555
H2 C2 1_555 1_555
C3 N2 1_555 1_555
H3 C3 1_555 1_555
C4 C3 1_555 1_555
H4 C4 1_555 1_555
Dy1A O2K 1_555 1_555
Dy1C O2D 1_555 1_555
Dy1P O1EA 1_555 1_555
Dy1V O1X 1_555 1_555
O1X N1X 1_555 1_555
O1O Dy1 1_555 1_555
O1EA N1EA 1_555 1_555
O1B Dy1 1_555 1_555
O1N Dy1 1_555 1_555
O2D N2D 1_555 1_555
O2O Dy1 1_555 1_555
O2K N2K 1_555 1_555
O2N Dy1 1_555 1_555
O2B Dy1 1_555 1_555
O3B Cl1 1_555 1_555
O3S Cl1 1_555 1_555
O3Y Cl1 1_555 1_555
O4F Cl2 1_555 1_555
O5F Cl2 1_555 1_555
N1X C2 1_555 1_555
N1O O1O 1_555 1_555
N1EA C1EA 1_555 1_555
N2D C4 1_555 1_555
N2O O2O 1_555 1_555
N2K C3K 1_555 1_555
C1X N1X 1_555 1_555
C1O N1O 1_555 1_555
C1EA H1EA 1_555 1_555
H1X C1X 1_555 1_555
H1O C1O 1_555 1_555
C2X N1 1_555 1_555
C2O N1EA 1_555 1_555
C2EA N1O 1_555 1_555
H2X C2X 1_555 1_555
H2O C2O 1_555 1_555
H2EA C2EA 1_555 1_555
C3D N2D 1_555 1_555
C3O N2O 1_555 1_555
C3K H3K 1_555 1_555
H3D C3D 1_555 1_555
H3O C3O 1_555 1_555
C4D N2 1_555 1_555
C4O N2K 1_555 1_555
C4K N2O 1_555 1_555
H4D C4D 1_555 1_555
H4O C4O 1_555 1_555
H4K C4K 1_555 1_555
C1X C2X 1_555 1_555
C1O C2O 1_555 1_555
C1EA C2EA 1_555 1_555
C3D C4D 1_555 1_555
C3O C4O 1_555 1_555
C3K C4K 1_555 1_555

#END
