
#######################################################################
#
#                 Cambridge Crystallographic Data Centre
#                                CCDC 
#
#######################################################################
#
# If this CIF has been generated from an entry in the Cambridge 
# Structural Database, then it will include bibliographic, chemical, 
# crystal, experimental, refinement or atomic coordinate data resulting 
# from the CCDC's data processing and validation procedures.
#
#######################################################################

data_SUYCIY
_symmetry_cell_setting           monoclinic
_symmetry_space_group_name_H-M   'P 21/c'
_symmetry_Int_Tables_number      14
_space_group_name_Hall           '-P 2ybc'
loop_
_symmetry_equiv_pos_site_id
_symmetry_equiv_pos_as_xyz
1 x,y,z
2 x,1/2-y,1/2+z
3 -x,-y,-z
4 -x,1/2+y,1/2-z
_cell_length_a                   7.7373(10)
_cell_length_b                   14.014(2)
_cell_length_c                   9.1101(12)
_cell_angle_alpha                90
_cell_angle_beta                 110.472(2)
_cell_angle_gamma                90
_cell_volume                     925.426
loop_
_atom_site_label
_atom_site_type_symbol
_atom_site_fract_x
_atom_site_fract_y
_atom_site_fract_z
Cu1 Cu 0.33270(3) 0.06292(2) 0.03275(3)
N1 N 0.0807(2) 0.10358(14) -0.0551(2)
N2 N 0.3828(3) 0.1845(2) -0.0620(3)
H1 H 0.4699(63) 0.1741(32) -0.0997(52)
H2 H 0.4325(50) 0.2259(29) 0.0167(46)
C1 C -0.0425(3) 0.04547(15) -0.0448(3)
C2 C 0.0469(4) 0.1956(2) -0.1361(4)
H3 H -0.0677(53) 0.2008(27) -0.2155(44)
H4 H 0.0355(64) 0.2579(40) -0.0565(58)
C3 C 0.2109(4) 0.2162(2) -0.1813(4)
H5 H 0.1962(4) 0.1844(2) -0.2795(4)
H6 H 0.2176(4) 0.2843(2) -0.1975(4)
C4 C 0.6281(3) 0.0496(2) 0.3010(3)
C5 C 0.8212(3) 0.0247(2) 0.4049(2)
C6 C 0.8531(3) -0.0162(2) 0.5515(3)
H7 H 0.7614(37) -0.0267(18) 0.5864(30)
C7 C 0.9691(3) 0.0412(2) 0.3551(3)
H8 H 0.9539(45) 0.0748(19) 0.2591(40)
O1 O -0.2180(2) 0.05350(11) -0.0946(2)
O3 O 0.5878(2) 0.03117(13) 0.1546(2)
O4 O 0.5177(2) 0.08484(15) 0.3554(2)
C1B C 0.0425(3) -0.04547(15) 0.0448(3)
N1B N -0.0807(2) -0.10358(14) 0.0551(2)
C2B C -0.0469(4) -0.1956(2) 0.1361(4)
H3B H 0.0677(53) -0.2008(27) 0.2155(44)
H4B H -0.0355(64) -0.2579(40) 0.0565(58)
C3B C -0.2109(4) -0.2162(2) 0.1813(4)
N2B N -0.3828(3) -0.1845(2) 0.0620(3)
H1B H -0.4699(63) -0.1741(32) 0.0997(52)
H2B H -0.4325(50) -0.2259(29) -0.0167(46)
H5B H -0.1962(4) -0.1844(2) 0.2795(4)
H6B H -0.2176(4) -0.2843(2) 0.1975(4)
O1B O 0.2180(2) -0.05350(11) 0.0946(2)
C7B C 1.0309(3) -0.0412(2) 0.6449(3)
C5B C 1.1788(3) -0.0247(2) 0.5951(2)
C4B C 1.3719(3) -0.0496(2) 0.6990(3)
O3B O 1.4122(2) -0.03117(13) 0.8454(2)
O4B O 1.4823(2) -0.08484(15) 0.6446(2)
C6B C 1.1469(3) 0.0162(2) 0.4485(3)
H7B H 1.2386(37) 0.0267(18) 0.4136(30)
H8B H 1.0461(45) -0.0748(19) 0.7409(40)
Cu1B Cu -0.33270(3) -0.06292(2) -0.03275(3)
O3B_2 O 0.4122(2) -0.03117(13) -0.1546(2)
Cu1B_2 Cu 0.66730(3) -0.06292(2) -0.03275(3)
Cu1_2 Cu 1.33270(3) 0.06292(2) 1.03275(3)
Cu1B_3 Cu 1.66730(3) -0.06292(2) 0.96725(3)
O3_2 O -0.4122(2) 0.03117(13) 0.1546(2)
O3B_3 O -0.5878(2) -0.03117(13) -0.1546(2)
O2 O 0.4525(3) -0.1561(2) 0.3514(3)
H9 H 0.4488(55) -0.1306(28) 0.4247(48)
H10 H 0.3904(55) -0.1288(29) 0.2884(46)
loop_
_geom_bond_atom_site_label_1
_geom_bond_atom_site_label_2
_geom_bond_site_symmetry_1
_geom_bond_site_symmetry_2
Cu1 N1 1_555 1_555
N1 C1 1_555 1_555
N2 Cu1 1_555 1_555
H1 N2 1_555 1_555
H2 N2 1_555 1_555
C1 O1 1_555 1_555
C2 N1 1_555 1_555
H3 C2 1_555 1_555
H4 C2 1_555 1_555
C3 N2 1_555 1_555
H5 C3 1_555 1_555
H6 C3 1_555 1_555
C4 C5 1_555 1_555
C5 C6 1_555 1_555
C6 H7 1_555 1_555
C7 C5 1_555 1_555
H8 C7 1_555 1_555
O1 Cu1B 1_555 1_555
O2 H9 1_555 1_555
H10 O2 1_555 1_555
O3 Cu1 1_555 1_555
O4 C4 1_555 1_555
C1B C1 1_555 1_555
N1B C1B 1_555 1_555
C2B N1B 1_555 1_555
H3B C2B 1_555 1_555
H4B C2B 1_555 1_555
C3B C2B 1_555 1_555
N2B C3B 1_555 1_555
H1B N2B 1_555 1_555
H2B N2B 1_555 1_555
H5B C3B 1_555 1_555
H6B C3B 1_555 1_555
O1B Cu1 1_555 1_555
C7B C6 1_555 1_555
C5B C7B 1_555 1_555
C4B C5B 1_555 1_555
O3B C4B 1_555 1_555
O4B C4B 1_555 1_555
C6B C7 1_555 1_555
H7B C6B 1_555 1_555
H8B C7B 1_555 1_555
Cu1B N1B 1_555 1_555
O3B_2 Cu1 1_555 1_555
Cu1B_2 O3 1_555 1_555
Cu1_2 O3B 1_555 1_555
Cu1B_3 O3B 1_555 1_555
O3_2 Cu1B 1_555 1_555
O3B_3 Cu1B 1_555 1_555
C2 C3 1_555 1_555
C4 O3 1_555 1_555
C1B O1B 1_555 1_555
N2B Cu1B 1_555 1_555
C5B C6B 1_555 1_555
O3B_2 Cu1B_2 1_555 1_555

#END
