
#######################################################################
#
#                 Cambridge Crystallographic Data Centre
#                                CCDC 
#
#######################################################################
#
# If this CIF has been generated from an entry in the Cambridge 
# Structural Database, then it will include bibliographic, chemical, 
# crystal, experimental, refinement or atomic coordinate data resulting 
# from the CCDC's data processing and validation procedures.
#
#######################################################################

data_SUYCUK
_symmetry_cell_setting           orthorhombic
_symmetry_space_group_name_H-M   'P c a 21'
_symmetry_Int_Tables_number      29
_space_group_name_Hall           'P 2c -2ac'
loop_
_symmetry_equiv_pos_site_id
_symmetry_equiv_pos_as_xyz
1 x,y,z
2 -x,-y,1/2+z
3 1/2+x,-y,z
4 1/2-x,y,1/2+z
_cell_length_a                   15.951(2)
_cell_length_b                   7.8879(8)
_cell_length_c                   14.8260(15)
_cell_angle_alpha                90
_cell_angle_beta                 90
_cell_angle_gamma                90
_cell_volume                     1865.41
loop_
_atom_site_label
_atom_site_type_symbol
_atom_site_fract_x
_atom_site_fract_y
_atom_site_fract_z
Cu1 Cu 0.64299(3) 0.29023(6) 0.61682(4)
Cu2 Cu 0.59980(3) -0.33893(6) 0.72953(3)
N1 N 0.5976(2) 0.0784(4) 0.5748(3)
N2 N 0.6066(3) 0.3709(5) 0.4944(3)
H1 H 0.5839(30) 0.4625(69) 0.5017(34)
H2 H 0.6579(33) 0.3643(66) 0.4479(40)
N3 N 0.6439(2) -0.1279(4) 0.7734(2)
N4 N 0.6463(2) -0.4322(5) 0.8452(3)
H3 H 0.6057(2) -0.4406(5) 0.8871(3)
H4 H 0.6685(2) -0.5357(5) 0.8361(3)
O1 O 0.6648(2) 0.1523(3) 0.7308(2)
O2 O 0.5740(2) -0.1998(3) 0.6187(2)
O3 O 0.8127(2) 0.3857(4) 0.5750(3)
O4 O 0.7072(2) 0.4898(4) 0.6529(2)
O5 O 0.9272(2) 0.3934(4) 0.7449(3)
O6 O 1.0356(2) 0.5358(3) 0.6924(2)
C1 C 0.6395(2) -0.0024(5) 0.7199(3)
C2 C 0.5997(2) -0.0483(5) 0.6296(3)
C3 C 0.5634(4) 0.0739(6) 0.4846(3)
H5 H 0.5201(31) -0.0012(79) 0.4853(37)
H6 H 0.5990(28) 0.0398(61) 0.4528(35)
C4 C 0.5381(3) 0.2536(6) 0.4626(4)
H7 H 0.5195(33) 0.2865(64) 0.4100(36)
H8 H 0.4812(26) 0.2711(50) 0.4979(28)
C5 C 0.6834(4) -0.1328(7) 0.8631(3)
H9 H 0.7280(39) -0.0685(69) 0.8607(49)
H10 H 0.6385(35) -0.0806(87) 0.9191(43)
C6 C 0.7120(4) -0.3114(7) 0.8752(4)
H11 H 0.7728(41) -0.3173(70) 0.8281(44)
H12 H 0.7255(33) -0.3291(65) 0.9296(40)
C7 C 0.7820(2) 0.4981(4) 0.6214(3)
C8 C 0.8282(2) 0.6614(5) 0.6415(3)
C9 C 0.7900(3) 0.8105(5) 0.6120(4)
H13 H 0.7400(30) 0.8073(48) 0.5871(28)
C10 C 0.8247(3) 0.9661(6) 0.6279(4)
H14 H 0.7997(3) 1.0634(6) 0.6049(4)
C11 C 0.8965(3) 0.9773(6) 0.6779(5)
H15 H 0.9208(32) 1.0492(72) 0.6944(40)
C12 C 0.9365(3) 0.8311(7) 0.7033(5)
H16 H 0.9647(25) 0.8301(55) 0.7279(33)
C13 C 0.9059(2) 0.6721(5) 0.6851(3)
C14 C 0.9569(2) 0.5208(5) 0.7099(3)
O6B O 0.5356(2) 0.4642(3) 0.6924(2)
O4_2 O 0.7072(2) -0.5102(4) 0.6529(2)
O6B_2 O 0.5356(2) -0.5358(3) 0.6924(2)
Cu2_2 Cu 0.59980(3) 0.66107(6) 0.72953(3)
Cu1B Cu 1.14299(3) 0.70977(6) 0.61682(4)
Cu2B Cu 1.09980(3) 0.33893(6) 0.72953(3)
O7 O 0.7869(2) 0.2965(4) 0.8383(2)
O8 O 0.9656(3) 0.3523(5) 0.4874(3)
H17 H 0.9991(38) 0.2888(72) 0.5302(40)
H18 H 0.9179(37) 0.3661(68) 0.5096(39)
loop_
_geom_bond_atom_site_label_1
_geom_bond_atom_site_label_2
_geom_bond_site_symmetry_1
_geom_bond_site_symmetry_2
Cu1 N1 1_555 1_555
Cu2 N3 1_555 1_555
N1 C2 1_555 1_555
N2 Cu1 1_555 1_555
H1 N2 1_555 1_555
H2 N2 1_555 1_555
N3 C1 1_555 1_555
N4 Cu2 1_555 1_555
H3 N4 1_555 1_555
H4 N4 1_555 1_555
O1 Cu1 1_555 1_555
O2 Cu2 1_555 1_555
O3 C7 1_555 1_555
O4 Cu1 1_555 1_555
O5 C14 1_555 1_555
O6 C14 1_555 1_555
C1 O1 1_555 1_555
C2 O2 1_555 1_555
C3 N1 1_555 1_555
H5 C3 1_555 1_555
H6 C3 1_555 1_555
C4 N2 1_555 1_555
H7 C4 1_555 1_555
H8 C4 1_555 1_555
C5 N3 1_555 1_555
H9 C5 1_555 1_555
H10 C5 1_555 1_555
C6 N4 1_555 1_555
H11 C6 1_555 1_555
H12 C6 1_555 1_555
C7 O4 1_555 1_555
C8 C7 1_555 1_555
C9 C8 1_555 1_555
H13 C9 1_555 1_555
C10 C9 1_555 1_555
H14 C10 1_555 1_555
C11 C10 1_555 1_555
H15 C11 1_555 1_555
C12 C11 1_555 1_555
H16 C12 1_555 1_555
C13 C8 1_555 1_555
C14 C13 1_555 1_555
O8 H17 1_555 1_555
H18 O8 1_555 1_555
O6B Cu1 1_555 1_555
O4_2 Cu2 1_555 1_555
O6B_2 Cu2 1_555 1_555
Cu2_2 O4 1_555 1_555
Cu1B O6 1_555 1_555
Cu2B O6 1_555 1_555
C1 C2 1_555 1_555
C3 C4 1_555 1_555
C5 C6 1_555 1_555
C12 C13 1_555 1_555
O6B Cu2_2 1_555 1_555

#END
