
#######################################################################
#
#                 Cambridge Crystallographic Data Centre
#                                CCDC 
#
#######################################################################
#
# If this CIF has been generated from an entry in the Cambridge 
# Structural Database, then it will include bibliographic, chemical, 
# crystal, experimental, refinement or atomic coordinate data resulting 
# from the CCDC's data processing and validation procedures.
#
#######################################################################

data_SUYCOE
_symmetry_cell_setting           monoclinic
_symmetry_space_group_name_H-M   'P 21'
_symmetry_Int_Tables_number      4
_space_group_name_Hall           'P 2yb'
loop_
_symmetry_equiv_pos_site_id
_symmetry_equiv_pos_as_xyz
1 x,y,z
2 -x,1/2+y,-z
_cell_length_a                   9.3800(10)
_cell_length_b                   20.613(2)
_cell_length_c                   12.0930(10)
_cell_angle_alpha                90
_cell_angle_beta                 104.270(10)
_cell_angle_gamma                90
_cell_volume                     2266.04
loop_
_atom_site_label
_atom_site_type_symbol
_atom_site_fract_x
_atom_site_fract_y
_atom_site_fract_z
Cu1 Cu 0.87609(8) 0.69510(4) 1.12843(6)
Cu2 Cu 0.37038(8) 0.75323(4) 1.01788(7)
Cu3 Cu 0.36285(7) 0.69163(4) 1.58405(7)
Cu4 Cu 0.89103(8) 0.75754(4) 0.56070(6)
O1 O 0.7868(4) 0.7451(2) 1.2351(4)
O2 O 0.5516(5) 0.7160(2) 1.1721(4)
O3 O 0.2436(5) 0.7760(3) 1.4419(5)
O4 O 0.2416(7) 0.8813(3) 1.4846(6)
O5 O 0.6958(5) 0.7347(2) 0.9727(4)
O6 O 0.4613(4) 0.7036(3) 0.9108(4)
O7 O 1.0353(5) 0.5715(3) 0.6854(5)
O8 O 1.0094(5) 0.6771(2) 0.7066(4)
O9 O 1.2482(5) 0.6753(2) 1.0239(4)
O10 O 0.9970(5) 0.7734(2) 1.1210(4)
O11 O 0.7423(4) 0.6914(2) 1.4909(3)
O12 O 0.5135(4) 0.7562(3) 1.6544(3)
O13 O 0.2672(5) 0.7122(2) 1.7072(4)
O14 O 0.9864(5) 0.7373(2) 0.4367(4)
N1 N 0.7707(7) 0.6145(3) 1.1507(6)
H1 H 0.7877(7) 0.6078(3) 1.2264(6)
H2 H 0.6738(7) 0.6224(3) 1.1250(6)
N2 N 1.0327(6) 0.6504(3) 1.0758(5)
N3 N 1.2157(6) 0.7975(3) 1.0745(5)
N4 N 1.4691(7) 0.8344(3) 0.9908(7)
H3 H 1.5668(7) 0.8280(3) 1.0146(7)
H4 H 1.4484(7) 0.8410(3) 0.9149(7)
N5 N 0.2108(6) 0.6260(3) 1.5185(5)
H5 H 0.1806(6) 0.6075(3) 1.5763(5)
H6 H 0.1330(6) 0.6467(3) 1.4743(5)
N6 N 0.5044(6) 0.6658(3) 1.5000(5)
N7 N 0.7486(5) 0.7829(3) 1.6450(5)
N8 N 1.0430(6) 0.8241(3) 1.6283(5)
H7 H 1.1224(6) 0.8028(3) 1.6692(5)
H8 H 1.0702(6) 0.8438(3) 1.5703(5)
C1 C 0.6497(6) 0.7494(3) 1.2315(5)
C2 C 0.6088(6) 0.8007(3) 1.3083(5)
C3 C 0.7024(7) 0.8531(3) 1.3472(6)
H9 H 0.7920(7) 0.8561(3) 1.3275(6)
C4 C 0.6631(8) 0.8999(3) 1.4139(6)
H10 H 0.7248(8) 0.9350(3) 1.4387(6)
C5 C 0.5291(8) 0.8945(3) 1.4449(7)
H11 H 0.5009(8) 0.9265(3) 1.4895(7)
C6 C 0.4380(7) 0.8412(3) 1.4089(5)
C7 C 0.4771(7) 0.7955(3) 1.3386(5)
H12 H 0.4144(7) 0.7610(3) 1.3115(5)
C8 C 0.2958(8) 0.8328(4) 1.4464(6)
C9 C 0.6005(6) 0.6991(4) 0.9138(5)
C10 C 0.6424(7) 0.6494(3) 0.8401(5)
C11 C 0.5541(7) 0.5948(4) 0.7982(6)
H13 H 0.4627(7) 0.5903(4) 0.8144(6)
C12 C 0.6006(8) 0.5493(4) 0.7351(7)
H14 H 0.5409(8) 0.5137(4) 0.7092(7)
C13 C 0.7376(7) 0.5545(4) 0.7076(6)
H15 H 0.7699(7) 0.5219(4) 0.6666(6)
C14 C 0.8242(7) 0.6095(3) 0.7431(6)
C15 C 0.7767(7) 0.6550(3) 0.8093(5)
H16 H 0.8359(7) 0.6908(3) 0.8347(5)
C16 C 0.9682(8) 0.6194(4) 0.7083(6)
C17 C 0.8015(8) 0.5536(4) 1.0993(7)
H17 H 0.7614(8) 0.5557(4) 1.0174(7)
H18 H 0.7530(8) 0.5183(4) 1.1286(7)
C18 C 0.9609(7) 0.5402(3) 1.1236(7)
H19 H 0.9748(7) 0.4946(3) 1.1093(7)
H20 H 1.0042(7) 0.5482(3) 1.2039(7)
C19 C 1.0434(8) 0.5804(3) 1.0535(7)
H21 H 1.1460(8) 0.5676(3) 1.0724(7)
H22 H 1.0027(8) 0.5719(3) 0.9730(7)
C20 C 1.1351(6) 0.6893(3) 1.0588(5)
C21 C 1.1115(6) 0.7597(3) 1.0868(5)
C22 C 1.2061(8) 0.8661(3) 1.1018(7)
H23 H 1.2396(8) 0.8717(3) 1.1837(7)
H24 H 1.1040(8) 0.8796(3) 1.0789(7)
C23 C 1.2936(13) 0.9078(4) 1.0455(11)
H25 H 1.2392(13) 0.9114(4) 0.9664(11)
H26 H 1.2936(13) 0.9506(4) 1.0788(11)
C24 C 1.4336(13) 0.8948(5) 1.0445(12)
H27 H 1.4909(13) 0.8948(5) 1.1231(12)
H28 H 1.4687(13) 0.9308(5) 1.0068(12)
C25 C 0.2543(9) 0.5740(5) 1.4506(8)
H29 H 0.3186(9) 0.5442(5) 1.5018(8)
H30 H 0.1670(9) 0.5501(5) 1.4123(8)
C26 C 0.3295(9) 0.5965(5) 1.3647(8)
H31 H 0.2765(9) 0.6336(5) 1.3256(8)
H32 H 0.3245(9) 0.5623(5) 1.3087(8)
C27 C 0.4894(8) 0.6155(4) 1.4106(7)
H33 H 0.5463(8) 0.5776(4) 1.4422(7)
H34 H 0.5283(8) 0.6319(4) 1.3488(7)
C28 C 0.6267(6) 0.6984(3) 1.5296(5)
C29 C 0.6284(6) 0.7499(3) 1.6166(5)
C30 C 0.7648(8) 0.8326(4) 1.7351(7)
H35 H 0.7206(8) 0.8169(4) 1.7946(7)
H36 H 0.7131(8) 0.8717(4) 1.7032(7)
C31 C 0.9255(9) 0.8485(4) 1.7865(7)
H37 H 0.9752(9) 0.8096(4) 1.8209(7)
H38 H 0.9314(9) 0.8802(4) 1.8468(7)
C32 C 1.0060(10) 0.8750(4) 1.7016(7)
H39 H 0.9449(10) 0.9074(4) 1.6542(7)
H40 H 1.0958(10) 0.8961(4) 1.7429(7)
O9_2 O 0.2482(5) 0.6753(2) 1.0239(4)
N3_2 N 0.2157(6) 0.7975(3) 1.0745(5)
N4_2 N 0.4691(7) 0.8344(3) 0.9908(7)
O11_2 O 0.7423(4) 0.6914(2) 0.4909(3)
N7_2 N 0.7486(5) 0.7829(3) 0.6450(5)
N8_2 N 1.0430(6) 0.8241(3) 0.6283(5)
Cu2_2 Cu 1.37038(8) 0.75323(4) 1.01788(7)
Cu4_2 Cu 0.89103(8) 0.75754(4) 1.56070(6)
H3_2 H 0.5668(7) 0.8280(3) 1.0146(7)
H4_2 H 0.4484(7) 0.8410(3) 0.9149(7)
H7_2 H 1.1224(6) 0.8028(3) 0.6692(5)
H8_2 H 1.0702(6) 0.8438(3) 0.5703(5)
O15 O 0.8604(8) 0.5830(4) 0.3949(5)
O16 O 0.4047(8) 0.8704(4) 0.7362(6)
O17 O 1.4341(7) 0.5634(3) 1.0393(6)
O18 O 0.9745(7) 0.4727(3) 0.5280(6)
O19 O 0.6516(8) 0.9597(3) 0.8489(7)
O20 O 0.7981(8) 0.8846(3) 1.0542(8)
O21 O 1.2579(8) 0.4998(3) 0.8373(8)
loop_
_geom_bond_atom_site_label_1
_geom_bond_atom_site_label_2
_geom_bond_site_symmetry_1
_geom_bond_site_symmetry_2
Cu1 O1 1_555 1_555
Cu2 O2 1_555 1_555
Cu3 O3 1_555 1_555
Cu4 O8 1_555 1_555
O1 C1 1_555 1_555
O2 C1 1_555 1_555
O3 C8 1_555 1_555
O4 C8 1_555 1_555
O5 Cu1 1_555 1_555
O6 Cu2 1_555 1_555
O7 C16 1_555 1_555
O8 C16 1_555 1_555
O9 C20 1_555 1_555
O10 Cu1 1_555 1_555
O11 C28 1_555 1_555
O12 Cu3 1_555 1_555
O13 Cu3 1_555 1_555
O14 Cu4 1_555 1_555
N1 Cu1 1_555 1_555
H1 N1 1_555 1_555
H2 N1 1_555 1_555
N2 Cu1 1_555 1_555
N3 C21 1_555 1_555
N4 H3 1_555 1_555
H4 N4 1_555 1_555
N5 Cu3 1_555 1_555
H5 N5 1_555 1_555
H6 N5 1_555 1_555
N6 Cu3 1_555 1_555
N7 C29 1_555 1_555
N8 H7 1_555 1_555
H8 N8 1_555 1_555
C1 C2 1_555 1_555
C2 C3 1_555 1_555
C3 H9 1_555 1_555
C4 C3 1_555 1_555
H10 C4 1_555 1_555
C5 C4 1_555 1_555
H11 C5 1_555 1_555
C6 C5 1_555 1_555
C7 C2 1_555 1_555
H12 C7 1_555 1_555
C8 C6 1_555 1_555
C9 O5 1_555 1_555
C10 C9 1_555 1_555
C11 C10 1_555 1_555
H13 C11 1_555 1_555
C12 C11 1_555 1_555
H14 C12 1_555 1_555
C13 C12 1_555 1_555
H15 C13 1_555 1_555
C14 C13 1_555 1_555
C15 C10 1_555 1_555
H16 C15 1_555 1_555
C16 C14 1_555 1_555
C17 N1 1_555 1_555
H17 C17 1_555 1_555
H18 C17 1_555 1_555
C18 C17 1_555 1_555
H19 C18 1_555 1_555
H20 C18 1_555 1_555
C19 N2 1_555 1_555
H21 C19 1_555 1_555
H22 C19 1_555 1_555
C20 N2 1_555 1_555
C21 O10 1_555 1_555
C22 N3 1_555 1_555
H23 C22 1_555 1_555
H24 C22 1_555 1_555
C23 C22 1_555 1_555
H25 C23 1_555 1_555
H26 C23 1_555 1_555
C24 N4 1_555 1_555
H27 C24 1_555 1_555
H28 C24 1_555 1_555
C25 N5 1_555 1_555
H29 C25 1_555 1_555
H30 C25 1_555 1_555
C26 C25 1_555 1_555
H31 C26 1_555 1_555
H32 C26 1_555 1_555
C27 N6 1_555 1_555
H33 C27 1_555 1_555
H34 C27 1_555 1_555
C28 N6 1_555 1_555
C29 O12 1_555 1_555
C30 N7 1_555 1_555
H35 C30 1_555 1_555
H36 C30 1_555 1_555
C31 C30 1_555 1_555
H37 C31 1_555 1_555
H38 C31 1_555 1_555
C32 N8 1_555 1_555
H39 C32 1_555 1_555
H40 C32 1_555 1_555
O9_2 Cu2 1_555 1_555
N3_2 Cu2 1_555 1_555
N4_2 Cu2 1_555 1_555
O11_2 Cu4 1_555 1_555
N7_2 Cu4 1_555 1_555
N8_2 Cu4 1_555 1_555
Cu2_2 O9 1_555 1_555
Cu4_2 O11 1_555 1_555
H3_2 N4_2 1_555 1_555
H4_2 N4_2 1_555 1_555
H7_2 N8_2 1_555 1_555
H8_2 N8_2 1_555 1_555
O6 C9 1_555 1_555
N3 Cu2_2 1_555 1_555
N4 Cu2_2 1_555 1_555
N7 Cu4_2 1_555 1_555
N8 Cu4_2 1_555 1_555
C6 C7 1_555 1_555
C14 C15 1_555 1_555
C18 C19 1_555 1_555
C20 C21 1_555 1_555
C23 C24 1_555 1_555
C26 C27 1_555 1_555
C28 C29 1_555 1_555
C31 C32 1_555 1_555

#END
