
#######################################################################
#
#                 Cambridge Crystallographic Data Centre
#                                CCDC 
#
#######################################################################
#
# If this CIF has been generated from an entry in the Cambridge 
# Structural Database, then it will include bibliographic, chemical, 
# crystal, experimental, refinement or atomic coordinate data resulting 
# from the CCDC's data processing and validation procedures.
#
#######################################################################

data_SUYDOF01
_symmetry_cell_setting           triclinic
_symmetry_space_group_name_H-M   'P -1'
_symmetry_Int_Tables_number      2
_space_group_name_Hall           '-P 1'
loop_
_symmetry_equiv_pos_site_id
_symmetry_equiv_pos_as_xyz
1 x,y,z
2 -x,-y,-z
_cell_length_a                   6.9486(2)
_cell_length_b                   9.7226(3)
_cell_length_c                   15.6020(5)
_cell_angle_alpha                83.911(2)
_cell_angle_beta                 81.527(2)
_cell_angle_gamma                70.4237(13)
_cell_volume                     980.46
loop_
_atom_site_label
_atom_site_type_symbol
_atom_site_fract_x
_atom_site_fract_y
_atom_site_fract_z
Cu1 Cu 0.5245(8) 0.7350(5) -0.3494(3)
Cu2 Cu 1.3529(8) -0.0985(5) 0.1500(3)
Cu3 Cu 0.6869(8) 0.5220(5) -0.0565(3)
Cu4 Cu 1.1321(8) 0.0909(5) -0.5574(3)
C1 C 1.0282(8) 0.2217(5) -0.0565(3)
N1 N 0.9090(8) 0.3381(5) -0.0106(3)
C2 C 1.1669(8) 0.0970(5) -0.0165(3)
C3 C 0.7219(8) 0.5394(5) -0.5169(3)
C4 C 0.8582(8) 0.4063(5) -0.6479(3)
N2 N 0.9351(8) 0.2848(5) -0.5089(3)
N3 N 0.6989(8) 0.5464(5) -0.4275(3)
C5 C 0.8410(8) 0.4074(5) -0.5565(3)
C6 C 0.7862(8) 0.4230(5) -0.3841(3)
C7 C 1.0674(8) 0.2058(5) 0.1129(3)
N4 N 1.1827(8) 0.0905(5) 0.0701(3)
C8 C 1.0163(8) 0.2245(5) -0.1471(3)
C9 C 1.2889(8) -0.0206(5) -0.0673(3)
C10 C 0.6284(8) 0.6669(5) -0.5688(3)
C11 C 0.9036(8) 0.2934(5) -0.4233(3)
C12 C 1.1355(8) 0.1113(5) -0.1935(3)
C13 C 0.7630(8) 0.5294(5) -0.6964(3)
C14 C 0.9299(8) 0.3287(5) 0.0730(3)
C15 C 0.6510(8) 0.6596(5) -0.6566(3)
C16 C 1.2730(8) -0.0128(5) -0.1545(3)
C17 C 0.5734(8) 0.6341(5) 0.0465(3)
N5 N 0.4994(8) 0.7290(5) 0.0915(3)
C18 C 1.2191(8) 0.0272(5) -0.6709(3)
C19 C 0.6457(8) 0.5997(5) -0.1711(3)
N6 N 0.3435(8) 0.8972(5) -0.4095(3)
C20 C 0.2445(8) 0.9820(5) -0.4540(3)
N7 N 1.2703(8) -0.0191(5) -0.7376(3)
N8 N 0.6063(8) 0.6521(5) -0.2389(3)
H1 H 0.928920 0.316430 -0.675610
H2 H 0.768060 0.417160 -0.321720
H3 H 1.074440 0.210980 0.173420
H4 H 0.921040 0.305650 -0.175660
H5 H 1.384310 -0.104320 -0.040800
H6 H 0.557570 0.757970 -0.542430
H7 H 0.963330 0.207970 -0.386940
H8 H 1.126490 0.115860 -0.254600
H9 H 0.777810 0.533160 -0.758720
H10 H 0.848540 0.405120 0.110120
H11 H 0.581260 0.740250 -0.693980
H12 H 1.354750 -0.091890 -0.189760
Cu2_2 Cu 0.3529(8) 0.9015(5) 0.1500(3)
Cu2_3 Cu 1.3529(8) -0.0985(5) -0.8500(3)
Cu4_2 Cu 0.1321(8) 1.0909(5) -0.5574(3)
N5_2 N 1.4994(8) -0.2710(5) 0.0915(3)
C20_2 C 1.2445(8) -0.0180(5) -0.4540(3)
N7_2 N 1.2703(8) -0.0191(5) 0.2624(3)
loop_
_geom_bond_atom_site_label_1
_geom_bond_atom_site_label_2
_geom_bond_site_symmetry_1
_geom_bond_site_symmetry_2
Cu1 N3 1_555 1_555
Cu2 N4 1_555 1_555
Cu3 N1 1_555 1_555
Cu4 N2 1_555 1_555
C1 N1 1_555 1_555
N1 C14 1_555 1_555
C2 C1 1_555 1_555
C3 N3 1_555 1_555
C4 C5 1_555 1_555
N2 C5 1_555 1_555
N3 C6 1_555 1_555
C5 C3 1_555 1_555
C6 C11 1_555 1_555
C7 N4 1_555 1_555
N4 C2 1_555 1_555
C8 C1 1_555 1_555
C9 C2 1_555 1_555
C10 C3 1_555 1_555
C11 N2 1_555 1_555
C12 C8 1_555 1_555
C13 C4 1_555 1_555
C14 C7 1_555 1_555
C15 C10 1_555 1_555
C16 C9 1_555 1_555
C17 Cu3 1_555 1_555
N5 C17 1_555 1_555
C18 Cu4 1_555 1_555
C19 Cu3 1_555 1_555
N6 Cu1 1_555 1_555
C20 N6 1_555 1_555
N7 C18 1_555 1_555
N8 Cu1 1_555 1_555
H1 C4 1_555 1_555
H2 C6 1_555 1_555
H3 C7 1_555 1_555
H4 C8 1_555 1_555
H5 C9 1_555 1_555
H6 C10 1_555 1_555
H7 C11 1_555 1_555
H8 C12 1_555 1_555
H9 C13 1_555 1_555
H10 C14 1_555 1_555
H11 C15 1_555 1_555
H12 C16 1_555 1_555
Cu2_2 N5 1_555 1_555
Cu2_3 N7 1_555 1_555
Cu4_2 C20 1_555 1_555
N5_2 Cu2 1_555 1_555
C20_2 Cu4 1_555 1_555
N7_2 Cu2 1_555 1_555
C12 C16 1_555 1_555
C13 C15 1_555 1_555
C19 N8 1_555 1_555

#END
