
#######################################################################
#
#                 Cambridge Crystallographic Data Centre
#                                CCDC 
#
#######################################################################
#
# If this CIF has been generated from an entry in the Cambridge 
# Structural Database, then it will include bibliographic, chemical, 
# crystal, experimental, refinement or atomic coordinate data resulting 
# from the CCDC's data processing and validation procedures.
#
#######################################################################

data_SUYFEX01
_symmetry_cell_setting           monoclinic
_symmetry_space_group_name_H-M   'C 2/m'
_symmetry_Int_Tables_number      12
_space_group_name_Hall           '-C 2y'
loop_
_symmetry_equiv_pos_site_id
_symmetry_equiv_pos_as_xyz
1 x,y,z
2 1/2+x,1/2+y,z
3 -x,y,-z
4 1/2-x,1/2+y,-z
5 -x,-y,-z
6 1/2-x,1/2-y,-z
7 x,-y,z
8 1/2+x,1/2-y,z
_cell_length_a                   12.3635(11)
_cell_length_b                   10.3210(8)
_cell_length_c                   5.6531(3)
_cell_angle_alpha                90
_cell_angle_beta                 93.849(2)
_cell_angle_gamma                90
_cell_volume                     719.729
loop_
_atom_site_label
_atom_site_type_symbol
_atom_site_fract_x
_atom_site_fract_y
_atom_site_fract_z
Cu1 Cu 0.30671(8) 0.000000 0.60161(15)
Cu2 Cu 0.0000(11) 0.000000 0.000(2)
N1 N 0.2756(4) 0.1545(4) 0.8356(7)
C1 C 0.1816(6) 0.000000 0.3797(12)
C2 C 0.4561(6) 0.000000 0.5283(12)
C3 C 0.3391(4) 0.1788(5) 1.0329(8)
C4 C 0.1866(5) 0.2271(6) 0.8052(9)
N2 N 0.1088(8) 0.000000 0.2422(16)
H1 H 0.404601 0.129978 1.063942
H2 H 0.137420 0.214752 0.668262
N1E N 0.2244(4) 0.3455(4) 1.1644(7)
C3E C 0.1609(4) 0.3212(5) 0.9671(8)
C4E C 0.3134(5) 0.2729(6) 1.1948(9)
H1E H 0.095399 0.370022 0.936058
H2E H 0.362580 0.285248 1.331738
C2D C 0.5439(6) 0.000000 0.4717(12)
Cu1D Cu -0.30671(8) 0.000000 -0.60161(15)
N1D N -0.2756(4) -0.1545(4) -0.8356(7)
C1D C -0.1816(6) 0.000000 -0.3797(12)
C3D C -0.3391(4) -0.1788(5) -1.0329(8)
C4D C -0.1866(5) -0.2271(6) -0.8052(9)
N2D N -0.1088(8) 0.000000 -0.2422(16)
H1D H -0.404601 -0.129978 -1.063942
H2D H -0.137420 -0.214752 -0.668262
N1A N -0.2244(4) -0.3455(4) -1.1644(7)
C3A C -0.1609(4) -0.3212(5) -0.9671(8)
C4A C -0.3134(5) -0.2729(6) -1.1948(9)
H1A H -0.095399 -0.370022 -0.936058
H2A H -0.362580 -0.285248 -1.331738
Cu1D_2 Cu 0.69329(8) 0.000000 0.39839(15)
Cu1E Cu 0.19329(8) 0.500000 1.39839(15)
Cu1A Cu -0.19329(8) -0.500000 -1.39839(15)
N1B N -0.2756(4) 0.1545(4) -0.8356(7)
N1F N 0.2756(4) -0.1545(4) 0.8356(7)
C2D_2 C -0.4561(6) 0.000000 -0.5283(12)
loop_
_geom_bond_atom_site_label_1
_geom_bond_atom_site_label_2
_geom_bond_site_symmetry_1
_geom_bond_site_symmetry_2
Cu1 N1 1_555 1_555
Cu2 N2 1_555 1_555
N1 C3 1_555 1_555
C1 Cu1 1_555 1_555
C2 Cu1 1_555 1_555
C3 H1 1_555 1_555
C4 N1 1_555 1_555
N2 C1 1_555 1_555
H2 C4 1_555 1_555
N1E C3E 1_555 1_555
C3E C4 1_555 1_555
C4E C3 1_555 1_555
H1E C3E 1_555 1_555
H2E C4E 1_555 1_555
C2D C2 1_555 1_555
Cu1D N1D 1_555 1_555
N1D C3D 1_555 1_555
C1D Cu1D 1_555 1_555
C3D H1D 1_555 1_555
C4D N1D 1_555 1_555
N2D Cu2 1_555 1_555
H2D C4D 1_555 1_555
N1A C3A 1_555 1_555
C3A C4D 1_555 1_555
C4A C3D 1_555 1_555
H1A C3A 1_555 1_555
H2A C4A 1_555 1_555
Cu1D_2 C2D 1_555 1_555
Cu1E N1E 1_555 1_555
Cu1A N1A 1_555 1_555
N1B Cu1D 1_555 1_555
N1F Cu1 1_555 1_555
C2D_2 Cu1D 1_555 1_555
N1E C4E 1_555 1_555
C1D N2D 1_555 1_555
N1A C4A 1_555 1_555

#END
