
#######################################################################
#
#                 Cambridge Crystallographic Data Centre
#                                CCDC 
#
#######################################################################
#
# If this CIF has been generated from an entry in the Cambridge 
# Structural Database, then it will include bibliographic, chemical, 
# crystal, experimental, refinement or atomic coordinate data resulting 
# from the CCDC's data processing and validation procedures.
#
#######################################################################

data_SUYGID
_symmetry_cell_setting           triclinic
_symmetry_space_group_name_H-M   'P -1'
_symmetry_Int_Tables_number      2
_space_group_name_Hall           '-P 1'
loop_
_symmetry_equiv_pos_site_id
_symmetry_equiv_pos_as_xyz
1 x,y,z
2 -x,-y,-z
_cell_length_a                   7.9841(5)
_cell_length_b                   11.5723(7)
_cell_length_c                   13.0522(8)
_cell_angle_alpha                86.0130(10)
_cell_angle_beta                 80.2550(10)
_cell_angle_gamma                78.3920(10)
_cell_volume                     1163.45
loop_
_atom_site_label
_atom_site_type_symbol
_atom_site_fract_x
_atom_site_fract_y
_atom_site_fract_z
Eu1 Eu 0.777642(10) 0.833489(7) 0.717497(6)
O1 O 1.02598(16) 0.82745(11) 0.59308(10)
O2 O 0.95680(16) 0.87385(12) 0.83140(9)
O3 O 0.62858(17) 0.87321(12) 1.57648(9)
O4 O 0.80290(19) 0.63688(12) 0.64041(12)
O5 O 0.95209(19) 0.63704(12) 0.76308(11)
O6 O 0.9737(2) 0.47449(13) 0.68284(15)
O7 O 0.48093(17) 0.79129(13) 0.77651(10)
O8 O 0.64275(17) 0.77354(13) 0.89511(10)
O9 O 0.37320(17) 0.75544(13) 0.93758(11)
O10 O 0.80793(18) 1.04165(12) 0.66196(10)
O11 O 0.59940(17) 1.02059(12) 0.78740(11)
O12 O 0.6447(3) 1.19617(15) 0.73702(16)
N1 N 1.15666(18) 0.73751(13) 0.56743(11)
N2 N 0.92011(18) 0.86855(13) 0.93519(11)
N3 N 0.69461(19) 0.86783(13) 1.47577(11)
N4 N 0.9118(2) 0.57887(14) 0.69524(14)
N5 N 0.49525(19) 0.77188(13) 0.87204(12)
N6 N 0.6829(2) 1.08969(14) 0.72861(13)
C1 C 1.1740(3) 0.68713(17) 0.47511(14)
H1 H 1.0935 0.7159 0.4290
C2 C 1.3082(3) 0.59415(17) 0.44756(14)
H2 H 1.3193 0.5593 0.3824
C3 C 1.4281(2) 0.55034(15) 0.51380(13)
C4 C 1.4069(2) 0.60727(17) 0.60769(14)
H3 H 1.4871 0.5816 0.6545
C5 C 1.2711(2) 0.69995(17) 0.63285(14)
H4 H 1.2582 0.7376 0.6969
C6 C 0.9832(2) 0.76980(16) 0.98827(14)
H5 H 1.0515 0.7039 0.9517
C7 C 0.9489(2) 0.76417(16) 1.09564(14)
H6 H 0.9927 0.6941 1.1327
C8 C 0.8500(2) 0.86102(15) 1.14977(13)
C9 C 0.7874(2) 0.96184(15) 1.09182(13)
H7 H 0.7201 1.0294 1.1265
C10 C 0.8226(2) 0.96384(15) 0.98487(13)
H8 H 0.7784 1.0323 0.9459
C11 C 0.7453(2) 0.96291(16) 1.42433(13)
H9 H 0.7435 1.0314 1.4610
C12 C 0.7997(2) 0.96088(16) 1.31839(13)
H10 H 0.8336 1.0286 1.2821
C13 C 0.8053(2) 0.86034(15) 1.26417(13)
C14 C 0.7613(3) 0.76130(16) 1.32116(14)
H11 H 0.7700 0.6898 1.2872
C15 C 0.7053(3) 0.76727(17) 1.42647(14)
H12 H 0.6739 0.7000 1.4649
Eu1A Eu 2.222358(10) 0.166511(7) 0.282503(6)
Eu1_2 Eu 0.777642(10) 0.833489(7) 1.717497(6)
Eu1_3 Eu 0.777642(10) 0.833489(7) -0.282503(6)
O1A O 1.97402(16) 0.17255(11) 0.40692(10)
O2_2 O 0.95680(16) 0.87385(12) -0.16860(9)
O2A O 2.04320(16) 0.12615(12) 0.16860(9)
O3_2 O 0.62858(17) 0.87321(12) 0.57648(9)
O3A O 2.37142(17) 0.12679(12) 0.42352(9)
O4A O 2.19710(19) 0.36312(12) 0.35959(12)
O5A O 2.04791(19) 0.36296(12) 0.23692(11)
O6A O 2.0263(2) 0.52551(13) 0.31716(15)
O7A O 2.51907(17) 0.20871(13) 0.22349(10)
O8A O 2.35725(17) 0.22646(13) 0.10489(10)
O9A O 2.62680(17) 0.24456(13) 0.06242(11)
O10A O 2.19207(18) -0.04165(12) 0.33804(10)
O11A O 2.40060(17) -0.02059(12) 0.21260(11)
O12A O 2.3553(3) -0.19617(15) 0.26298(16)
N1A N 1.84334(18) 0.26249(13) 0.43257(11)
N2_2 N 0.92011(18) 0.86855(13) -0.06481(11)
N3_2 N 0.69461(19) 0.86783(13) 0.47577(11)
N4A N 2.0882(2) 0.42113(14) 0.30476(14)
N5A N 2.50475(19) 0.22812(13) 0.12796(12)
N6A N 2.3171(2) -0.08969(14) 0.27139(13)
C1A C 1.8260(3) 0.31287(17) 0.52489(14)
H1A H 1.9065 0.2841 0.5710
C2A C 1.6918(3) 0.40585(17) 0.55244(14)
H2A H 1.6807 0.4407 0.6176
C3A C 1.5719(2) 0.44966(15) 0.48620(13)
C4A C 1.5931(2) 0.39273(17) 0.39231(14)
H3A H 1.5129 0.4184 0.3455
C5A C 1.7289(2) 0.30005(17) 0.36715(14)
H4A H 1.7418 0.2624 0.3031
C6_2 C 0.9832(2) 0.76980(16) -0.01173(14)
H5_2 H 1.0515 0.7039 -0.0483
C7_2 C 0.9489(2) 0.76417(16) 0.09564(14)
H6_2 H 0.9927 0.6941 0.1327
C8_2 C 0.8500(2) 0.86102(15) 0.14977(13)
C9_2 C 0.7874(2) 0.96184(15) 0.09182(13)
H7_2 H 0.7201 1.0294 0.1265
C10_2 C 0.8226(2) 0.96384(15) -0.01513(13)
H8_2 H 0.7784 1.0323 -0.0541
C11_2 C 0.7453(2) 0.96291(16) 0.42433(13)
H9_2 H 0.7435 1.0314 0.4610
C12_2 C 0.7997(2) 0.96088(16) 0.31839(13)
H10_2 H 0.8336 1.0286 0.2821
C13_2 C 0.8053(2) 0.86034(15) 0.26417(13)
C14_2 C 0.7613(3) 0.76130(16) 0.32116(14)
H11_2 H 0.7700 0.6898 0.2872
C15_2 C 0.7053(3) 0.76727(17) 0.42647(14)
H12_2 H 0.6739 0.7000 0.4649
C16 C 0.5593(3) 0.60128(19) 1.10281(18)
H13 H 0.5804 0.6067 1.0258
H14 H 0.5400 0.6821 1.1285
Cl1 Cl 0.74307(7) 0.51437(4) 1.14770(4)
Cl2 Cl 0.37189(7) 0.54009(6) 1.14595(5)
loop_
_geom_bond_atom_site_label_1
_geom_bond_atom_site_label_2
_geom_bond_site_symmetry_1
_geom_bond_site_symmetry_2
Eu1 O1 1_555 1_555
O1 N1 1_555 1_555
O2 Eu1 1_555 1_555
O3 N3 1_555 1_555
O4 Eu1 1_555 1_555
O5 Eu1 1_555 1_555
O6 N4 1_555 1_555
O7 Eu1 1_555 1_555
O8 Eu1 1_555 1_555
O9 N5 1_555 1_555
O10 Eu1 1_555 1_555
O11 Eu1 1_555 1_555
O12 N6 1_555 1_555
N1 C1 1_555 1_555
N2 O2 1_555 1_555
N3 C11 1_555 1_555
N4 O4 1_555 1_555
N5 O7 1_555 1_555
N6 O10 1_555 1_555
C1 H1 1_555 1_555
C2 C1 1_555 1_555
H2 C2 1_555 1_555
C3 C2 1_555 1_555
C4 C3 1_555 1_555
H3 C4 1_555 1_555
C5 N1 1_555 1_555
H4 C5 1_555 1_555
C6 N2 1_555 1_555
H5 C6 1_555 1_555
C7 C6 1_555 1_555
H6 C7 1_555 1_555
C8 C7 1_555 1_555
C9 C8 1_555 1_555
H7 C9 1_555 1_555
C10 N2 1_555 1_555
H8 C10 1_555 1_555
C11 H9 1_555 1_555
C12 C11 1_555 1_555
H10 C12 1_555 1_555
C13 C8 1_555 1_555
C14 C13 1_555 1_555
H11 C14 1_555 1_555
C15 N3 1_555 1_555
H12 C15 1_555 1_555
C16 H13 1_555 1_555
H14 C16 1_555 1_555
Cl1 C16 1_555 1_555
Cl2 C16 1_555 1_555
Eu1A O1A 1_555 1_555
Eu1_2 O3 1_555 1_555
Eu1_3 O2_2 1_555 1_555
O1A N1A 1_555 1_555
O2_2 N2_2 1_555 1_555
O2A Eu1A 1_555 1_555
O3_2 Eu1 1_555 1_555
O3A Eu1A 1_555 1_555
O4A Eu1A 1_555 1_555
O5A Eu1A 1_555 1_555
O6A N4A 1_555 1_555
O7A Eu1A 1_555 1_555
O8A Eu1A 1_555 1_555
O9A N5A 1_555 1_555
O10A Eu1A 1_555 1_555
O11A Eu1A 1_555 1_555
O12A N6A 1_555 1_555
N1A C1A 1_555 1_555
N2_2 C6_2 1_555 1_555
N3_2 O3_2 1_555 1_555
N4A O4A 1_555 1_555
N5A O7A 1_555 1_555
N6A O10A 1_555 1_555
C1A H1A 1_555 1_555
C2A C1A 1_555 1_555
H2A C2A 1_555 1_555
C3A C3 1_555 1_555
C4A C3A 1_555 1_555
H3A C4A 1_555 1_555
C5A N1A 1_555 1_555
H4A C5A 1_555 1_555
C6_2 H5_2 1_555 1_555
C7_2 C6_2 1_555 1_555
H6_2 C7_2 1_555 1_555
C8_2 C7_2 1_555 1_555
C9_2 C8_2 1_555 1_555
H7_2 C9_2 1_555 1_555
C10_2 N2_2 1_555 1_555
H8_2 C10_2 1_555 1_555
C11_2 N3_2 1_555 1_555
H9_2 C11_2 1_555 1_555
C12_2 C11_2 1_555 1_555
H10_2 C12_2 1_555 1_555
C13_2 C8_2 1_555 1_555
C14_2 C13_2 1_555 1_555
H11_2 C14_2 1_555 1_555
C15_2 N3_2 1_555 1_555
H12_2 C15_2 1_555 1_555
O5 N4 1_555 1_555
O8 N5 1_555 1_555
O11 N6 1_555 1_555
C4 C5 1_555 1_555
C9 C10 1_555 1_555
C12 C13 1_555 1_555
C14 C15 1_555 1_555
O5A N4A 1_555 1_555
O8A N5A 1_555 1_555
O11A N6A 1_555 1_555
C2A C3A 1_555 1_555
C4A C5A 1_555 1_555
C9_2 C10_2 1_555 1_555
C12_2 C13_2 1_555 1_555
C14_2 C15_2 1_555 1_555

#END
