
#######################################################################
#
#                 Cambridge Crystallographic Data Centre
#                                CCDC 
#
#######################################################################
#
# If this CIF has been generated from an entry in the Cambridge 
# Structural Database, then it will include bibliographic, chemical, 
# crystal, experimental, refinement or atomic coordinate data resulting 
# from the CCDC's data processing and validation procedures.
#
#######################################################################

data_SUYGOJ
_symmetry_cell_setting           triclinic
_symmetry_space_group_name_H-M   'P -1'
_symmetry_Int_Tables_number      2
_space_group_name_Hall           '-P 1'
loop_
_symmetry_equiv_pos_site_id
_symmetry_equiv_pos_as_xyz
1 x,y,z
2 -x,-y,-z
_cell_length_a                   7.9917(5)
_cell_length_b                   11.5668(7)
_cell_length_c                   13.0347(8)
_cell_angle_alpha                86.0590(10)
_cell_angle_beta                 80.1340(10)
_cell_angle_gamma                78.2550(10)
_cell_volume                     1161.52
loop_
_atom_site_label
_atom_site_type_symbol
_atom_site_fract_x
_atom_site_fract_y
_atom_site_fract_z
Gd1 Gd 0.777386(9) 0.833312(7) 0.717678(6)
O1 O 1.02444(16) 0.82720(11) 0.59321(10)
O2 O 0.95666(17) 0.87415(12) 0.83066(9)
O3 O 0.62864(17) 0.87372(12) 1.57713(9)
O4 O 0.80192(19) 0.63739(12) 0.64108(12)
O5 O 0.95223(19) 0.63785(12) 0.76314(11)
O6 O 0.9729(2) 0.47510(14) 0.68376(16)
O7 O 0.48223(18) 0.79088(13) 0.77573(10)
O8 O 0.64333(17) 0.77345(13) 0.89476(11)
O9 O 0.37413(18) 0.75493(13) 0.93691(11)
O10 O 0.80809(18) 1.04012(12) 0.66218(10)
O11 O 0.59902(18) 1.01912(12) 0.78729(11)
O12 O 0.6429(3) 1.19502(15) 0.73675(17)
N1 N 1.15539(19) 0.73739(13) 0.56764(11)
N2 N 0.91991(19) 0.86889(13) 0.93448(11)
N3 N 0.69504(19) 0.86834(13) 1.47630(11)
N4 N 0.9111(2) 0.57955(14) 0.69595(14)
N5 N 0.49582(19) 0.77173(13) 0.87144(12)
N6 N 0.6826(2) 1.08859(15) 0.72846(13)
C1 C 1.1729(3) 0.68680(17) 0.47533(15)
H1 H 1.0924 0.7154 0.4293
C2 C 1.3074(3) 0.59355(18) 0.44774(15)
H2 H 1.3185 0.5581 0.3827
C3 C 1.4277(2) 0.55043(15) 0.51390(13)
C4 C 1.4065(2) 0.60763(17) 0.60766(14)
H3 H 1.4869 0.5823 0.6544
C5 C 1.2700(2) 0.70055(17) 0.63297(14)
H4 H 1.2569 0.7387 0.6969
C6 C 0.9834(2) 0.76999(16) 0.98742(14)
H5 H 1.0519 0.7040 0.9506
C7 C 0.9492(2) 0.76424(15) 1.09522(14)
H6 H 0.9932 0.6941 1.1322
C8 C 0.8502(2) 0.86129(15) 1.14956(13)
C9 C 0.7879(2) 0.96209(15) 1.09168(13)
H7 H 0.7208 1.0298 1.1266
C10 C 0.8227(2) 0.96446(15) 0.98455(13)
H8 H 0.7785 1.0331 0.9458
C11 C 0.7464(2) 0.96300(15) 1.42487(14)
H9 H 0.7456 1.0312 1.4617
C12 C 0.8003(2) 0.96117(16) 1.31859(13)
H10 H 0.8341 1.0289 1.2822
C13 C 0.8053(2) 0.86070(15) 1.26447(13)
C14 C 0.7610(3) 0.76171(16) 1.32125(14)
H11 H 0.7694 0.6903 1.2871
C15 C 0.7051(3) 0.76792(17) 1.42680(14)
H12 H 0.6733 0.7008 1.4653
Gd1A Gd 2.222614(9) 0.166688(7) 0.282322(6)
Gd1_2 Gd 0.777386(9) 0.833312(7) 1.717678(6)
Gd1_3 Gd 0.777386(9) 0.833312(7) -0.282322(6)
O1A O 1.97556(16) 0.17280(11) 0.40679(10)
O2_2 O 0.95666(17) 0.87415(12) -0.16934(9)
O2A O 2.04334(17) 0.12585(12) 0.16934(9)
O3_2 O 0.62864(17) 0.87372(12) 0.57713(9)
O3A O 2.37136(17) 0.12628(12) 0.42287(9)
O4A O 2.19808(19) 0.36261(12) 0.35892(12)
O5A O 2.04777(19) 0.36215(12) 0.23686(11)
O6A O 2.0271(2) 0.52490(14) 0.31624(16)
O7A O 2.51777(18) 0.20912(13) 0.22427(10)
O8A O 2.35667(17) 0.22655(13) 0.10524(11)
O9A O 2.62587(18) 0.24507(13) 0.06309(11)
O10A O 2.19191(18) -0.04012(12) 0.33782(10)
O11A O 2.40098(18) -0.01912(12) 0.21271(11)
O12A O 2.3571(3) -0.19502(15) 0.26325(17)
N1A N 1.84461(19) 0.26261(13) 0.43236(11)
N2_2 N 0.91991(19) 0.86889(13) -0.06552(11)
N3_2 N 0.69504(19) 0.86834(13) 0.47630(11)
N4A N 2.0889(2) 0.42045(14) 0.30405(14)
N5A N 2.50418(19) 0.22827(13) 0.12856(12)
N6A N 2.3174(2) -0.08859(15) 0.27154(13)
C1A C 1.8271(3) 0.31320(17) 0.52467(15)
H1A H 1.9076 0.2846 0.5707
C2A C 1.6926(3) 0.40645(18) 0.55226(15)
H2A H 1.6815 0.4419 0.6173
C3A C 1.5723(2) 0.44957(15) 0.48610(13)
C4A C 1.5935(2) 0.39237(17) 0.39234(14)
H3A H 1.5131 0.4177 0.3456
C5A C 1.7300(2) 0.29945(17) 0.36703(14)
H4A H 1.7431 0.2613 0.3031
C6_2 C 0.9834(2) 0.76999(16) -0.01258(14)
H5_2 H 1.0519 0.7040 -0.0494
C7_2 C 0.9492(2) 0.76424(15) 0.09522(14)
H6_2 H 0.9932 0.6941 0.1322
C8_2 C 0.8502(2) 0.86129(15) 0.14956(13)
C9_2 C 0.7879(2) 0.96209(15) 0.09168(13)
H7_2 H 0.7208 1.0298 0.1266
C10_2 C 0.8227(2) 0.96446(15) -0.01545(13)
H8_2 H 0.7785 1.0331 -0.0542
C11_2 C 0.7464(2) 0.96300(15) 0.42487(14)
H9_2 H 0.7456 1.0312 0.4617
C12_2 C 0.8003(2) 0.96117(16) 0.31859(13)
H10_2 H 0.8341 1.0289 0.2822
C13_2 C 0.8053(2) 0.86070(15) 0.26447(13)
C14_2 C 0.7610(3) 0.76171(16) 0.32125(14)
H11_2 H 0.7694 0.6903 0.2871
C15_2 C 0.7051(3) 0.76792(17) 0.42680(14)
H12_2 H 0.6733 0.7008 0.4653
C16 C 0.5603(3) 0.60138(19) 1.10231(18)
H13 H 0.5816 0.6058 1.0252
H14 H 0.5414 0.6826 1.1273
Cl1 Cl 0.74334(7) 0.51440(4) 1.14775(4)
Cl2 Cl 0.37217(7) 0.54128(6) 1.14632(5)
loop_
_geom_bond_atom_site_label_1
_geom_bond_atom_site_label_2
_geom_bond_site_symmetry_1
_geom_bond_site_symmetry_2
Gd1 O1 1_555 1_555
O1 N1 1_555 1_555
O2 Gd1 1_555 1_555
O3 N3 1_555 1_555
O4 Gd1 1_555 1_555
O5 Gd1 1_555 1_555
O6 N4 1_555 1_555
O7 Gd1 1_555 1_555
O8 Gd1 1_555 1_555
O9 N5 1_555 1_555
O10 Gd1 1_555 1_555
O11 Gd1 1_555 1_555
O12 N6 1_555 1_555
N1 C1 1_555 1_555
N2 O2 1_555 1_555
N3 C11 1_555 1_555
N4 O4 1_555 1_555
N5 O7 1_555 1_555
N6 O10 1_555 1_555
C1 H1 1_555 1_555
C2 C1 1_555 1_555
H2 C2 1_555 1_555
C3 C2 1_555 1_555
C4 C3 1_555 1_555
H3 C4 1_555 1_555
C5 N1 1_555 1_555
H4 C5 1_555 1_555
C6 N2 1_555 1_555
H5 C6 1_555 1_555
C7 C6 1_555 1_555
H6 C7 1_555 1_555
C8 C7 1_555 1_555
C9 C8 1_555 1_555
H7 C9 1_555 1_555
C10 N2 1_555 1_555
H8 C10 1_555 1_555
C11 H9 1_555 1_555
C12 C11 1_555 1_555
H10 C12 1_555 1_555
C13 C8 1_555 1_555
C14 C13 1_555 1_555
H11 C14 1_555 1_555
C15 N3 1_555 1_555
H12 C15 1_555 1_555
C16 H13 1_555 1_555
H14 C16 1_555 1_555
Cl1 C16 1_555 1_555
Cl2 C16 1_555 1_555
Gd1A O1A 1_555 1_555
Gd1_2 O3 1_555 1_555
Gd1_3 O2_2 1_555 1_555
O1A N1A 1_555 1_555
O2_2 N2_2 1_555 1_555
O2A Gd1A 1_555 1_555
O3_2 Gd1 1_555 1_555
O3A Gd1A 1_555 1_555
O4A Gd1A 1_555 1_555
O5A Gd1A 1_555 1_555
O6A N4A 1_555 1_555
O7A Gd1A 1_555 1_555
O8A Gd1A 1_555 1_555
O9A N5A 1_555 1_555
O10A Gd1A 1_555 1_555
O11A Gd1A 1_555 1_555
O12A N6A 1_555 1_555
N1A C1A 1_555 1_555
N2_2 C6_2 1_555 1_555
N3_2 O3_2 1_555 1_555
N4A O4A 1_555 1_555
N5A O7A 1_555 1_555
N6A O10A 1_555 1_555
C1A H1A 1_555 1_555
C2A C1A 1_555 1_555
H2A C2A 1_555 1_555
C3A C3 1_555 1_555
C4A C3A 1_555 1_555
H3A C4A 1_555 1_555
C5A N1A 1_555 1_555
H4A C5A 1_555 1_555
C6_2 H5_2 1_555 1_555
C7_2 C6_2 1_555 1_555
H6_2 C7_2 1_555 1_555
C8_2 C7_2 1_555 1_555
C9_2 C8_2 1_555 1_555
H7_2 C9_2 1_555 1_555
C10_2 N2_2 1_555 1_555
H8_2 C10_2 1_555 1_555
C11_2 N3_2 1_555 1_555
H9_2 C11_2 1_555 1_555
C12_2 C11_2 1_555 1_555
H10_2 C12_2 1_555 1_555
C13_2 C8_2 1_555 1_555
C14_2 C13_2 1_555 1_555
H11_2 C14_2 1_555 1_555
C15_2 N3_2 1_555 1_555
H12_2 C15_2 1_555 1_555
O5 N4 1_555 1_555
O8 N5 1_555 1_555
O11 N6 1_555 1_555
C4 C5 1_555 1_555
C9 C10 1_555 1_555
C12 C13 1_555 1_555
C14 C15 1_555 1_555
O5A N4A 1_555 1_555
O8A N5A 1_555 1_555
O11A N6A 1_555 1_555
C2A C3A 1_555 1_555
C4A C5A 1_555 1_555
C9_2 C10_2 1_555 1_555
C12_2 C13_2 1_555 1_555
C14_2 C15_2 1_555 1_555

#END
