
#######################################################################
#
#                 Cambridge Crystallographic Data Centre
#                                CCDC 
#
#######################################################################
#
# If this CIF has been generated from an entry in the Cambridge 
# Structural Database, then it will include bibliographic, chemical, 
# crystal, experimental, refinement or atomic coordinate data resulting 
# from the CCDC's data processing and validation procedures.
#
#######################################################################

data_SUYGUO03
_symmetry_cell_setting           monoclinic
_symmetry_space_group_name_H-M   'P 21/c'
_symmetry_Int_Tables_number      14
_space_group_name_Hall           '-P 2ybc'
loop_
_symmetry_equiv_pos_site_id
_symmetry_equiv_pos_as_xyz
1 x,y,z
2 -x,1/2+y,1/2-z
3 -x,-y,-z
4 x,1/2-y,1/2+z
_cell_length_a                   9.6310(3)
_cell_length_b                   23.4531(7)
_cell_length_c                   6.9018(2)
_cell_angle_alpha                90
_cell_angle_beta                 98.717(2)
_cell_angle_gamma                90
_cell_volume                     1540.95
loop_
_atom_site_label
_atom_site_type_symbol
_atom_site_fract_x
_atom_site_fract_y
_atom_site_fract_z
C1 C 0.3415(5) 0.6556(2) 0.0612(6)
Cu1 Cu 0.17190(5) 0.55580(2) -0.15291(7)
Cu2 Cu 0.34583(7) 0.53428(3) -0.77858(8)
Cu3 Cu 0.49081(6) 0.70232(3) 0.14401(9)
C2 C 1.0110(5) 0.7688(2) 0.3224(7)
H1 H 1.1082 0.7663 0.3530
C3 C 0.7856(4) 0.72214(19) 0.2473(5)
C4 C 0.8030(5) 0.82653(19) 0.2522(5)
C5 C 0.7196(4) 0.77735(19) 0.2252(5)
C6 C 0.9510(5) 0.8201(2) 0.3041(6)
H2 H 1.0071 0.8524 0.3258
C7 C 0.9302(5) 0.7178(2) 0.2962(6)
C8 C 0.7339(6) 0.8793(2) 0.2291(6)
H3 H 0.7856 0.9129 0.2478
C9 C 0.9009(6) 0.6161(2) 0.2882(7)
H4 H 0.9371 0.5793 0.3003
C10 C 0.5921(6) 0.8817(2) 0.1796(7)
H5 H 0.5458 0.9166 0.1624
C11 C 0.7591(6) 0.6252(2) 0.2411(7)
H6 H 0.7014 0.5932 0.2224
C12 C 0.5179(5) 0.8308(2) 0.1552(6)
H7 H 0.4208 0.8325 0.1210
C13 C 0.9873(5) 0.6622(2) 0.3167(7)
H8 H 1.0838 0.6572 0.3497
N1 N 0.5777(4) 0.77949(16) 0.1779(5)
N2 N 0.6977(4) 0.67594(16) 0.2202(5)
N3 N 0.2622(4) 0.62151(16) -0.0030(5)
C14 C 0.2680(4) 0.54426(18) -0.5549(5)
N4 N 0.4621(4) 0.50776(18) -0.9475(5)
C15 C 0.0403(4) 0.51270(17) -0.0334(5)
N5 N 0.2258(4) 0.54930(17) -0.4090(6)
C1B C -0.3415(5) 0.3444(2) -0.0612(6)
Cu1B Cu -0.17190(5) 0.44420(2) 0.15291(7)
Cu1_2 Cu 0.17190(5) 0.55580(2) -1.15291(7)
Cu2_2 Cu 0.34583(7) 0.53428(3) 0.22142(8)
Cu2B Cu 0.65417(7) 0.46572(3) -1.22142(8)
Cu2B_2 Cu -0.34583(7) 0.46572(3) -0.22142(8)
Cu2B_3 Cu -0.34583(7) 0.46572(3) 0.77858(8)
Cu3B Cu -0.49081(6) 0.29768(3) -0.14401(9)
C2B C -1.0110(5) 0.2312(2) -0.3224(7)
H1B H -1.1082 0.2337 -0.3530
C3B C -0.7856(4) 0.27786(19) -0.2473(5)
C4B C -0.8030(5) 0.17347(19) -0.2522(5)
C5B C -0.7196(4) 0.22265(19) -0.2252(5)
C6B C -0.9510(5) 0.1799(2) -0.3041(6)
H2B H -1.0071 0.1476 -0.3258
C7B C -0.9302(5) 0.2822(2) -0.2962(6)
C8B C -0.7339(6) 0.1207(2) -0.2291(6)
H3B H -0.7856 0.0871 -0.2478
C9B C -0.9009(6) 0.3839(2) -0.2882(7)
H4B H -0.9371 0.4207 -0.3003
C10B C -0.5921(6) 0.1183(2) -0.1796(7)
H5B H -0.5458 0.0834 -0.1624
C11B C -0.7591(6) 0.3748(2) -0.2411(7)
H6B H -0.7014 0.4068 -0.2224
C12B C -0.5179(5) 0.1692(2) -0.1552(6)
H7B H -0.4208 0.1675 -0.1210
C13B C -0.9873(5) 0.3378(2) -0.3167(7)
H8B H -1.0838 0.3428 -0.3497
N1B N -0.5777(4) 0.22051(16) -0.1779(5)
N2B N -0.6977(4) 0.32406(16) -0.2202(5)
N3B N -0.2622(4) 0.37849(16) 0.0030(5)
C14B C -0.2680(4) 0.45574(18) 0.5549(5)
C14_2 C 0.2680(4) 0.54426(18) 0.4451(5)
N4B N 0.5379(4) 0.49224(18) -1.0525(5)
N4_2 N 0.4621(4) 0.50776(18) 0.0525(5)
C15B C -0.0403(4) 0.48730(17) 0.0334(5)
N5B N -0.2258(4) 0.45070(17) 0.4090(6)
loop_
_geom_bond_atom_site_label_1
_geom_bond_atom_site_label_2
_geom_bond_site_symmetry_1
_geom_bond_site_symmetry_2
C1 Cu3 1_555 1_555
Cu1 N3 1_555 1_555
Cu2 C14 1_555 1_555
Cu3 N1 1_555 1_555
C2 H1 1_555 1_555
C3 C5 1_555 1_555
C4 C5 1_555 1_555
C5 N1 1_555 1_555
C6 C2 1_555 1_555
H2 C6 1_555 1_555
C7 C2 1_555 1_555
C8 C4 1_555 1_555
H3 C8 1_555 1_555
C9 H4 1_555 1_555
C10 C8 1_555 1_555
H5 C10 1_555 1_555
C11 C9 1_555 1_555
H6 C11 1_555 1_555
C12 C10 1_555 1_555
H7 C12 1_555 1_555
C13 C7 1_555 1_555
H8 C13 1_555 1_555
N1 C12 1_555 1_555
N2 Cu3 1_555 1_555
N3 C1 1_555 1_555
C14 N5 1_555 1_555
N4 Cu2 1_555 1_555
C15 Cu1 1_555 1_555
N5 Cu1 1_555 1_555
C1B Cu3B 1_555 1_555
Cu1B Cu2B_2 1_555 1_555
Cu1_2 Cu2 1_555 1_555
Cu2_2 Cu1 1_555 1_555
Cu2B N4B 1_555 1_555
Cu2B_3 C14B 1_555 1_555
Cu3B N1B 1_555 1_555
C2B H1B 1_555 1_555
C3B C5B 1_555 1_555
C4B C5B 1_555 1_555
C5B N1B 1_555 1_555
C6B C2B 1_555 1_555
H2B C6B 1_555 1_555
C7B C2B 1_555 1_555
C8B C4B 1_555 1_555
H3B C8B 1_555 1_555
C9B H4B 1_555 1_555
C10B C8B 1_555 1_555
H5B C10B 1_555 1_555
C11B C9B 1_555 1_555
H6B C11B 1_555 1_555
C12B C10B 1_555 1_555
H7B C12B 1_555 1_555
C13B C7B 1_555 1_555
H8B C13B 1_555 1_555
N1B C12B 1_555 1_555
N2B Cu3B 1_555 1_555
N3B C1B 1_555 1_555
C14B N5B 1_555 1_555
C14_2 Cu2_2 1_555 1_555
N4B N4 1_555 1_555
N4_2 Cu2_2 1_555 1_555
C15B C15 1_555 1_555
N5B Cu1B 1_555 1_555
C3 C7 1_555 1_555
C3 N2 1_555 1_555
C4 C6 1_555 1_555
C9 C13 1_555 1_555
C11 N2 1_555 1_555
Cu1B N3B 1_555 1_555
Cu1B C15B 1_555 1_555
C3B C7B 1_555 1_555
C3B N2B 1_555 1_555
C4B C6B 1_555 1_555
C9B C13B 1_555 1_555
C11B N2B 1_555 1_555

#END
