
#######################################################################
#
#                 Cambridge Crystallographic Data Centre
#                                CCDC 
#
#######################################################################
#
# If this CIF has been generated from an entry in the Cambridge 
# Structural Database, then it will include bibliographic, chemical, 
# crystal, experimental, refinement or atomic coordinate data resulting 
# from the CCDC's data processing and validation procedures.
#
#######################################################################

data_SUYHIE
_symmetry_cell_setting           monoclinic
_symmetry_space_group_name_H-M   'P 21/c'
_symmetry_Int_Tables_number      14
_space_group_name_Hall           '-P 2ybc'
loop_
_symmetry_equiv_pos_site_id
_symmetry_equiv_pos_as_xyz
1 x,y,z
2 -x,1/2+y,1/2-z
3 -x,-y,-z
4 x,1/2-y,1/2+z
_cell_length_a                   10.2132(15)
_cell_length_b                   17.375(3)
_cell_length_c                   12.8144(19)
_cell_angle_alpha                90
_cell_angle_beta                 112.360(2)
_cell_angle_gamma                90
_cell_volume                     2103
loop_
_atom_site_label
_atom_site_type_symbol
_atom_site_fract_x
_atom_site_fract_y
_atom_site_fract_z
N1 N 0.5178(2) -0.01394(13) 0.75537(18)
Zn1 Zn 0.41999(3) 0.072906(17) 0.63842(2)
C2 C 0.3097(3) 0.14909(15) 0.7483(2)
O1 O 0.44021(18) 0.15948(11) 0.77971(15)
O2 O 0.24483(18) 0.10222(11) 0.66907(14)
O3 O -0.59100(19) 0.31369(11) 1.02712(15)
O4 O -0.41249(18) 0.39376(10) 1.10053(14)
O5 O 0.3145(2) 0.00368(12) 0.50538(16)
H2 H 0.239(3) 0.0196(18) 0.451(2)
H3 H 0.351(4) -0.026(2) 0.476(3)
C3 C 0.2295(3) 0.19093(16) 0.8060(2)
H4 H 0.2736 0.2330 0.8539
C4 C 0.0980(3) 0.17155(15) 0.7929(2)
H5 H 0.0559 0.1308 0.7417
C5 C 0.0110(3) 0.20621(15) 0.8489(2)
C6 C -0.1280(3) 0.18006(16) 0.8217(2)
H6 H -0.1631 0.1394 0.7688
C7 C -0.2146(3) 0.21214(16) 0.8702(2)
H7 H -0.3091 0.1942 0.8489
C8 C -0.1650(3) 0.27096(15) 0.9506(2)
C9 C -0.0263(3) 0.29732(15) 0.9779(2)
H8 H 0.0089 0.3377 1.0313
C10 C 0.0604(3) 0.26569(15) 0.9286(2)
H9 H 0.1543 0.2843 0.9489
C11 C -0.2527(3) 0.30660(15) 1.0051(2)
H10 H -0.2113 0.3483 1.0548
C12 C -0.3835(3) 0.28722(15) 0.9930(2)
H11 H -0.4245 0.2424 0.9507
C13 C -0.4678(3) 0.33291(15) 1.0429(2)
C14 C 0.6192(3) 0.00035(18) 0.8551(2)
H12 H 0.6482 0.0522 0.8739
C15 C 0.6844(4) -0.05630(18) 0.9326(3)
H13 H 0.7576 -0.0436 1.0027
C16 C 0.6423(4) -0.13168(19) 0.9073(3)
H14 H 0.6827 -0.1715 0.9607
C17 C 0.5408(4) -0.14810(19) 0.8033(3)
H15 H 0.5118 -0.1996 0.7817
C18 C 0.4820(4) -0.08740(17) 0.7307(3)
H16 H 0.4116 -0.0988 0.6588
Zn1C Zn -0.58001(3) 0.427094(17) 1.13842(2)
O3C O 0.40900(19) 0.18631(11) 0.52712(15)
O4C O 0.58751(18) 0.10624(10) 0.60053(14)
C1 C 0.9544(3) 0.03667(18) 0.3132(2)
H1 H 0.9348 0.0054 0.3663
N2 N 1.0893(3) 0.05277(14) 0.3312(2)
C19 C 1.1138(3) 0.09713(18) 0.2556(3)
H17 H 1.2093 0.1091 0.2676
C20 C 1.0086(4) 0.12641(19) 0.1615(3)
H18 H 1.0309 0.1575 0.1095
C21 C 0.8701(3) 0.1097(2) 0.1440(3)
H19 H 0.7946 0.1296 0.0802
C22 C 0.8431(3) 0.0636(2) 0.2209(3)
H20 H 0.7485 0.0505 0.2102
loop_
_geom_bond_atom_site_label_1
_geom_bond_atom_site_label_2
_geom_bond_site_symmetry_1
_geom_bond_site_symmetry_2
N1 Zn1 1_555 1_555
C1 H1 1_555 1_555
Zn1 O1 1_555 1_555
C2 O1 1_555 1_555
O2 Zn1 1_555 1_555
O3 C13 1_555 1_555
O4 C13 1_555 1_555
O5 Zn1 1_555 1_555
H2 O5 1_555 1_555
H3 O5 1_555 1_555
C3 C2 1_555 1_555
H4 C3 1_555 1_555
C4 C3 1_555 1_555
H5 C4 1_555 1_555
C5 C4 1_555 1_555
C6 C5 1_555 1_555
H6 C6 1_555 1_555
C7 C6 1_555 1_555
H7 C7 1_555 1_555
C8 C7 1_555 1_555
C9 C8 1_555 1_555
H8 C9 1_555 1_555
C10 C5 1_555 1_555
H9 C10 1_555 1_555
C11 C8 1_555 1_555
H10 C11 1_555 1_555
C12 C11 1_555 1_555
H11 C12 1_555 1_555
C13 C12 1_555 1_555
C14 N1 1_555 1_555
H12 C14 1_555 1_555
C15 C14 1_555 1_555
H13 C15 1_555 1_555
C16 C15 1_555 1_555
H14 C16 1_555 1_555
C17 C16 1_555 1_555
H15 C17 1_555 1_555
C18 N1 1_555 1_555
H16 C18 1_555 1_555
N2 C1 1_555 1_555
C19 N2 1_555 1_555
H17 C19 1_555 1_555
C20 C19 1_555 1_555
H18 C20 1_555 1_555
C21 C20 1_555 1_555
H19 C21 1_555 1_555
C22 C1 1_555 1_555
H20 C22 1_555 1_555
Zn1C O3 1_555 1_555
O3C Zn1 1_555 1_555
O4C Zn1 1_555 1_555
C2 O2 1_555 1_555
O4 Zn1C 1_555 1_555
C9 C10 1_555 1_555
C17 C18 1_555 1_555
C21 C22 1_555 1_555

#END
