
#######################################################################
#
#                 Cambridge Crystallographic Data Centre
#                                CCDC 
#
#######################################################################
#
# If this CIF has been generated from an entry in the Cambridge 
# Structural Database, then it will include bibliographic, chemical, 
# crystal, experimental, refinement or atomic coordinate data resulting 
# from the CCDC's data processing and validation procedures.
#
#######################################################################

data_SUYHAW
_symmetry_cell_setting           triclinic
_symmetry_space_group_name_H-M   'P -1'
_symmetry_Int_Tables_number      2
_space_group_name_Hall           '-P 1'
loop_
_symmetry_equiv_pos_site_id
_symmetry_equiv_pos_as_xyz
1 x,y,z
2 -x,-y,-z
_cell_length_a                   7.034(2)
_cell_length_b                   7.583(2)
_cell_length_c                   10.213(3)
_cell_angle_alpha                75.372(4)
_cell_angle_beta                 70.851(4)
_cell_angle_gamma                88.126(4)
_cell_volume                     497.177
loop_
_atom_site_label
_atom_site_type_symbol
_atom_site_fract_x
_atom_site_fract_y
_atom_site_fract_z
Yb1 Yb 0.31071(4) 0.22186(3) 1.01498(3)
C1 C 0.3854(12) 0.0294(11) 0.7912(9)
C2 C 0.4409(12) 0.0093(11) 0.6438(9)
C3 C 0.3229(16) 0.0805(15) 0.5592(11)
H1 H 0.2048 0.1355 0.5976
C4 C 0.6198(14) -0.0700(13) 0.5823(10)
H2 H 0.7015 -0.1163 0.6370
C5 C 0.7144(12) 0.4806(10) 0.7821(9)
C6 C 0.8607(13) 0.4930(11) 0.6352(10)
C7 C 0.8292(13) 0.3852(12) 0.5521(10)
H3 H 0.7149 0.3066 0.5875
C8 C 1.0353(13) 0.6070(12) 0.5820(10)
H4 H 1.0602 0.6780 0.6374
C9 C -0.0833(11) 0.4309(10) 1.0574(9)
O1 O 0.4818(8) -0.0459(8) 0.8752(6)
O2 O 0.2462(9) 0.1353(8) 0.8314(6)
O3 O 0.6140(8) 0.3311(8) 0.8501(6)
O4 O 0.6994(9) 0.6187(8) 0.8296(7)
O5 O -0.0295(9) 0.2697(8) 1.0944(7)
O6 O -0.2511(8) 0.4911(8) 1.1074(7)
O7 O 0.1351(8) -0.0452(7) 1.1590(7)
H5 H 0.0166 -0.0740 1.1644
H6 H 0.1979 -0.1429 1.1672
Yb1A Yb 0.68929(4) -0.22186(3) -0.01498(3)
Yb1A_2 Yb 0.68929(4) -0.22186(3) 0.98502(3)
Yb1A_3 Yb 0.68929(4) 0.77814(3) 0.98502(3)
Yb1A_4 Yb -0.31071(4) 0.77814(3) 0.98502(3)
Yb1_2 Yb 0.31071(4) 0.22186(3) 0.01498(3)
Yb1A_5 Yb 1.68929(4) 0.77814(3) -0.01498(3)
Yb1_3 Yb 1.31071(4) 0.22186(3) 0.01498(3)
C1A C 0.6146(12) -0.0294(11) 0.2088(9)
C2A C 0.5591(12) -0.0093(11) 0.3562(9)
C3A C 0.6771(16) -0.0805(15) 0.4408(11)
H1A H 0.7952 -0.1355 0.4024
C4A C 0.3802(14) 0.0700(13) 0.4177(10)
H2A H 0.2985 0.1163 0.3630
C5A C 1.2856(12) 0.5194(10) 0.2179(9)
C6A C 1.1393(13) 0.5070(11) 0.3648(10)
C7A C 1.1708(13) 0.6148(12) 0.4479(10)
H3A H 1.2851 0.6934 0.4125
C8A C 0.9647(13) 0.3930(12) 0.4180(10)
H4A H 0.9398 0.3220 0.3626
C9A C 0.0833(11) 0.5691(10) 0.9426(9)
O1A O 0.5182(8) 0.0459(8) 0.1248(6)
O1A_2 O 0.5182(8) 0.0459(8) 1.1248(6)
O1_2 O 0.4818(8) -0.0459(8) -0.1248(6)
O2A O 0.7538(9) -0.1353(8) 0.1686(6)
O3A O 1.3860(8) 0.6689(8) 0.1499(6)
O3A_2 O 0.3860(8) -0.3311(8) 0.1499(6)
O4A O 1.3006(9) 0.3813(8) 0.1704(7)
O4A_2 O 0.3006(9) 0.3813(8) 1.1704(7)
O4_2 O 0.6994(9) -0.3813(8) -0.1704(7)
O5A O 0.0295(9) 0.7303(8) 0.9056(7)
O5A_2 O 1.0295(9) -0.2697(8) -0.0944(7)
O6A O 0.2511(8) 0.5089(8) 0.8926(7)
O6_2 O 0.7489(8) -0.5089(8) 0.1074(7)
O7A O 0.8649(8) 0.0452(7) -0.1590(7)
H5A H 0.9834 0.0740 -0.1644
H6A H 0.8021 0.1429 -0.1672
loop_
_geom_bond_atom_site_label_1
_geom_bond_atom_site_label_2
_geom_bond_site_symmetry_1
_geom_bond_site_symmetry_2
Yb1 O1 1_555 1_555
C1 C2 1_555 1_555
C2 C3 1_555 1_555
C3 H1 1_555 1_555
C4 C2 1_555 1_555
H2 C4 1_555 1_555
C5 C6 1_555 1_555
C6 C7 1_555 1_555
C7 H3 1_555 1_555
C8 C6 1_555 1_555
H4 C8 1_555 1_555
C9 O5 1_555 1_555
O1 C1 1_555 1_555
O2 Yb1 1_555 1_555
O3 Yb1 1_555 1_555
O4 C5 1_555 1_555
O5 Yb1 1_555 1_555
O6 C9 1_555 1_555
O7 Yb1 1_555 1_555
H5 O7 1_555 1_555
H6 O7 1_555 1_555
Yb1A O1A 1_555 1_555
Yb1A_2 O1 1_555 1_555
Yb1A_3 O4 1_555 1_555
Yb1A_4 O6 1_555 1_555
Yb1_2 O1A 1_555 1_555
Yb1A_5 O3A 1_555 1_555
Yb1_3 O4A 1_555 1_555
C1A C2A 1_555 1_555
C2A C3A 1_555 1_555
C3A C4 1_555 1_555
H1A C3A 1_555 1_555
C4A C3 1_555 1_555
H2A C4A 1_555 1_555
C5A C6A 1_555 1_555
C6A C7A 1_555 1_555
C7A C8 1_555 1_555
H3A C7A 1_555 1_555
C8A C7 1_555 1_555
H4A C8A 1_555 1_555
C9A C9 1_555 1_555
O1A C1A 1_555 1_555
O1A_2 Yb1 1_555 1_555
O1_2 Yb1A 1_555 1_555
O2A Yb1A 1_555 1_555
O3A C5A 1_555 1_555
O3A_2 Yb1A 1_555 1_555
O4A C5A 1_555 1_555
O4A_2 Yb1 1_555 1_555
O4_2 Yb1A 1_555 1_555
O5A Yb1A_4 1_555 1_555
O5A_2 Yb1A 1_555 1_555
O6A Yb1 1_555 1_555
O6_2 Yb1A 1_555 1_555
O7A Yb1A 1_555 1_555
H5A O7A 1_555 1_555
H6A O7A 1_555 1_555
C1 O2 1_555 1_555
C5 O3 1_555 1_555
Yb1A_2 O1A_2 1_555 1_555
Yb1_2 O1_2 1_555 1_555
C1A O2A 1_555 1_555
C2A C4A 1_555 1_555
C6A C8A 1_555 1_555
C9A O5A 1_555 1_555
C9A O6A 1_555 1_555

#END
