
#######################################################################
#
#                 Cambridge Crystallographic Data Centre
#                                CCDC 
#
#######################################################################
#
# If this CIF has been generated from an entry in the Cambridge 
# Structural Database, then it will include bibliographic, chemical, 
# crystal, experimental, refinement or atomic coordinate data resulting 
# from the CCDC's data processing and validation procedures.
#
#######################################################################

data_SUYJAY
_symmetry_cell_setting           triclinic
_symmetry_space_group_name_H-M   'P -1'
_symmetry_Int_Tables_number      2
_space_group_name_Hall           '-P 1'
loop_
_symmetry_equiv_pos_site_id
_symmetry_equiv_pos_as_xyz
1 x,y,z
2 -x,-y,-z
_cell_length_a                   8.7242(14)
_cell_length_b                   11.1762(17)
_cell_length_c                   14.210(2)
_cell_angle_alpha                95.9770(10)
_cell_angle_beta                 105.948(2)
_cell_angle_gamma                107.017(3)
_cell_volume                     1247.95
loop_
_atom_site_label
_atom_site_type_symbol
_atom_site_fract_x
_atom_site_fract_y
_atom_site_fract_z
Ag1 Ag 0.18992(2) 0.789941(17) 0.198313(13)
O1 O -0.1034(2) 0.56970(17) 0.06781(14)
O2 O 0.4189(2) 0.89384(17) 0.38477(13)
O3 O 0.5809(2) 0.65495(16) 0.47965(13)
N1 N 0.2257(3) 0.8994(2) 0.06692(15)
N2 N 0.0110(3) 0.63965(19) -0.05116(15)
H1 H 0.0695 0.6247 -0.0898
N3 N 0.0373(3) 0.8513(2) 0.28181(15)
N4 N 0.3734(3) 1.07931(19) 0.42923(15)
H2 H 0.4058 1.1475 0.4765
N5 N 0.3388(2) 0.65910(18) 0.18415(15)
N6 N 0.3291(3) 0.49849(19) 0.39599(15)
H3 H 0.2627 0.4214 0.3942
C1 C 0.3585(3) 1.0079(2) 0.09336(19)
H4 H 0.4419 1.0246 0.1568
C2 C 0.3804(3) 1.0972(2) 0.0328(2)
H5 H 0.4757 1.1735 0.0545
C3 C 0.2598(4) 1.0721(3) -0.0599(2)
H6 H 0.2707 1.1308 -0.1035
C4 C 0.1235(3) 0.9603(2) -0.08807(19)
H7 H 0.0394 0.9414 -0.1516
C5 C 0.1091(3) 0.8756(2) -0.02376(18)
C6 C -0.0395(3) 0.7529(2) -0.0529(2)
H8 H -0.1056 0.7548 -0.0066
H9 H -0.1140 0.7473 -0.1210
C7 C -0.0292(3) 0.5578(2) 0.00759(18)
C8 C -0.1050(3) 0.7645(3) 0.2844(2)
H10 H -0.1325 0.6781 0.2532
C9 C -0.2128(3) 0.7952(3) 0.3302(2)
H11 H -0.3111 0.7310 0.3314
C10 C -0.1752(3) 0.9210(3) 0.3744(2)
H12 H -0.2494 0.9452 0.4042
C11 C -0.0268(3) 1.0114(3) 0.37424(19)
H13 H 0.0028 1.0983 0.4049
C12 C 0.0774(3) 0.9732(2) 0.32879(17)
C13 C 0.2458(3) 1.0686(2) 0.33435(17)
H14 H 0.2820 1.0402 0.2783
H15 H 0.2335 1.1531 0.3286
C14 C 0.4416(3) 0.9886(2) 0.44598(17)
C15 C 0.4180(3) 0.6709(2) 0.11494(17)
H16 H 0.4053 0.7318 0.0741
C16 C 0.5166(3) 0.5990(2) 0.10053(18)
H17 H 0.5752 0.6132 0.0532
C17 C 0.5288(3) 0.5057(3) 0.15634(19)
H18 H 0.5921 0.4522 0.1462
C18 C 0.4466(3) 0.4921(2) 0.22738(19)
H19 H 0.4524 0.4284 0.2663
C19 C 0.3555(3) 0.5721(2) 0.24127(17)
C20 C 0.2721(3) 0.5694(2) 0.32159(17)
H20 H 0.2964 0.6582 0.3552
H21 H 0.1480 0.5304 0.2900
C21 C 0.4798(3) 0.5475(2) 0.46690(17)
Ag1A Ag -0.18992(2) 0.210059(17) -0.198313(13)
Ag1A_2 Ag 0.81008(2) 1.210059(17) 0.801687(13)
Ag1A_3 Ag 0.81008(2) 0.210059(17) 0.801687(13)
O1A O 0.1034(2) 0.43030(17) -0.06781(14)
O2A O 0.5811(2) 1.10616(17) 0.61523(13)
O2A_2 O -0.4189(2) 0.10616(17) -0.38477(13)
O3A O 0.4191(2) 0.34505(16) 0.52035(13)
N1A N -0.2257(3) 0.1006(2) -0.06692(15)
N2A N -0.0110(3) 0.36035(19) 0.05116(15)
H1A H -0.0695 0.3753 0.0898
N3A N 0.9627(3) 1.1487(2) 0.71819(15)
N3A_2 N -0.0373(3) 0.1487(2) -0.28181(15)
N4A N 0.6266(3) 0.92069(19) 0.57077(15)
H2A H 0.5942 0.8525 0.5235
N5A N 0.6612(2) 0.34090(18) 0.81585(15)
N5A_2 N -0.3388(2) 0.34090(18) -0.18415(15)
N6A N 0.6709(3) 0.50151(19) 0.60401(15)
H3A H 0.7373 0.5786 0.6058
C1A C -0.3585(3) -0.0079(2) -0.09336(19)
H4A H -0.4419 -0.0246 -0.1568
C2A C -0.3804(3) -0.0972(2) -0.0328(2)
H5A H -0.4757 -0.1735 -0.0545
C3A C -0.2598(4) -0.0721(3) 0.0599(2)
H6A H -0.2707 -0.1308 0.1035
C4A C -0.1235(3) 0.0397(2) 0.08807(19)
H7A H -0.0394 0.0586 0.1516
C5A C -0.1091(3) 0.1244(2) 0.02376(18)
C6A C 0.0395(3) 0.2471(2) 0.0529(2)
H8A H 0.1056 0.2452 0.0066
H9A H 0.1140 0.2527 0.1210
C7A C 0.0292(3) 0.4422(2) -0.00759(18)
C8A C 1.1050(3) 1.2355(3) 0.7156(2)
H10A H 1.1325 1.3219 0.7468
C9A C 1.2128(3) 1.2048(3) 0.6698(2)
H11A H 1.3111 1.2690 0.6686
C10A C 1.1752(3) 1.0790(3) 0.6256(2)
H12A H 1.2494 1.0548 0.5958
C11A C 1.0268(3) 0.9886(3) 0.62576(19)
H13A H 0.9972 0.9017 0.5951
C12A C 0.9226(3) 1.0268(2) 0.67121(17)
C13A C 0.7542(3) 0.9314(2) 0.66565(17)
H14A H 0.7180 0.9598 0.7217
H15A H 0.7665 0.8469 0.6714
C14A C 0.5584(3) 1.0114(2) 0.55402(17)
C15A C 0.5820(3) 0.3291(2) 0.88506(17)
H16A H 0.5947 0.2682 0.9259
C16A C 0.4834(3) 0.4010(2) 0.89947(18)
H17A H 0.4248 0.3868 0.9468
C17A C 0.4712(3) 0.4943(3) 0.84366(19)
H18A H 0.4079 0.5478 0.8538
C18A C 0.5534(3) 0.5079(2) 0.77262(19)
H19A H 0.5476 0.5716 0.7337
C19A C 0.6445(3) 0.4279(2) 0.75873(17)
C20A C 0.7279(3) 0.4306(2) 0.67841(17)
H20A H 0.7036 0.3418 0.6448
H21A H 0.8520 0.4696 0.7100
C21A C 0.5202(3) 0.4525(2) 0.53310(17)
S1 S 0.83484(8) 0.26442(7) 0.26813(5)
F1 F 0.6446(3) 0.3310(3) 0.36252(17)
F2 F 0.8906(4) 0.4736(2) 0.39309(18)
F3 F 0.8647(3) 0.3038(2) 0.45763(14)
O4 O 0.7817(3) 0.3298(2) 0.18909(16)
O5 O 0.7255(2) 0.1362(2) 0.25641(17)
O6 O 1.0141(2) 0.28246(18) 0.29925(16)
C22 C 0.8089(5) 0.3483(3) 0.3762(2)
loop_
_geom_bond_atom_site_label_1
_geom_bond_atom_site_label_2
_geom_bond_site_symmetry_1
_geom_bond_site_symmetry_2
Ag1 O1 1_555 1_555
S1 O4 1_555 1_555
F1 C22 1_555 1_555
F2 C22 1_555 1_555
F3 C22 1_555 1_555
O1 C7 1_555 1_555
O2 Ag1 1_555 1_555
O3 C21 1_555 1_555
O5 S1 1_555 1_555
O6 S1 1_555 1_555
N1 Ag1 1_555 1_555
N2 H1 1_555 1_555
N3 Ag1 1_555 1_555
N4 H2 1_555 1_555
N5 Ag1 1_555 1_555
N6 H3 1_555 1_555
C1 N1 1_555 1_555
H4 C1 1_555 1_555
C2 C1 1_555 1_555
H5 C2 1_555 1_555
C3 C2 1_555 1_555
H6 C3 1_555 1_555
C4 C3 1_555 1_555
H7 C4 1_555 1_555
C5 N1 1_555 1_555
C6 N2 1_555 1_555
H8 C6 1_555 1_555
H9 C6 1_555 1_555
C7 N2 1_555 1_555
C8 N3 1_555 1_555
H10 C8 1_555 1_555
C9 C8 1_555 1_555
H11 C9 1_555 1_555
C10 C9 1_555 1_555
H12 C10 1_555 1_555
C11 C10 1_555 1_555
H13 C11 1_555 1_555
C12 N3 1_555 1_555
C13 N4 1_555 1_555
H14 C13 1_555 1_555
H15 C13 1_555 1_555
C14 O2 1_555 1_555
C15 N5 1_555 1_555
H16 C15 1_555 1_555
C16 C15 1_555 1_555
H17 C16 1_555 1_555
C17 C16 1_555 1_555
H18 C17 1_555 1_555
C18 C17 1_555 1_555
H19 C18 1_555 1_555
C19 N5 1_555 1_555
C20 N6 1_555 1_555
H20 C20 1_555 1_555
H21 C20 1_555 1_555
C21 N6 1_555 1_555
C22 S1 1_555 1_555
Ag1A O1A 1_555 1_555
Ag1A_2 O2A 1_555 1_555
Ag1A_3 N5A 1_555 1_555
O1A C7A 1_555 1_555
O2A C14A 1_555 1_555
O2A_2 Ag1A 1_555 1_555
O3A C21A 1_555 1_555
N1A Ag1A 1_555 1_555
N2A H1A 1_555 1_555
N3A Ag1A_2 1_555 1_555
N3A_2 Ag1A 1_555 1_555
N4A H2A 1_555 1_555
N5A C15A 1_555 1_555
N5A_2 Ag1A 1_555 1_555
N6A H3A 1_555 1_555
C1A N1A 1_555 1_555
H4A C1A 1_555 1_555
C2A C1A 1_555 1_555
H5A C2A 1_555 1_555
C3A C2A 1_555 1_555
H6A C3A 1_555 1_555
C4A C3A 1_555 1_555
H7A C4A 1_555 1_555
C5A N1A 1_555 1_555
C6A N2A 1_555 1_555
H8A C6A 1_555 1_555
H9A C6A 1_555 1_555
C7A C7 1_555 1_555
C8A N3A 1_555 1_555
H10A C8A 1_555 1_555
C9A C8A 1_555 1_555
H11A C9A 1_555 1_555
C10A C9A 1_555 1_555
H12A C10A 1_555 1_555
C11A C10A 1_555 1_555
H13A C11A 1_555 1_555
C12A N3A 1_555 1_555
C13A N4A 1_555 1_555
H14A C13A 1_555 1_555
H15A C13A 1_555 1_555
C14A C14 1_555 1_555
C15A H16A 1_555 1_555
C16A C15A 1_555 1_555
H17A C16A 1_555 1_555
C17A C16A 1_555 1_555
H18A C17A 1_555 1_555
C18A C17A 1_555 1_555
H19A C18A 1_555 1_555
C19A N5A 1_555 1_555
C20A N6A 1_555 1_555
H20A C20A 1_555 1_555
H21A C20A 1_555 1_555
C21A C21 1_555 1_555
N4 C14 1_555 1_555
C4 C5 1_555 1_555
C5 C6 1_555 1_555
C11 C12 1_555 1_555
C12 C13 1_555 1_555
C18 C19 1_555 1_555
C19 C20 1_555 1_555
N2A C7A 1_555 1_555
N4A C14A 1_555 1_555
N6A C21A 1_555 1_555
C4A C5A 1_555 1_555
C5A C6A 1_555 1_555
C11A C12A 1_555 1_555
C12A C13A 1_555 1_555
C18A C19A 1_555 1_555
C19A C20A 1_555 1_555

#END
