
#######################################################################
#
#                 Cambridge Crystallographic Data Centre
#                                CCDC 
#
#######################################################################
#
# If this CIF has been generated from an entry in the Cambridge 
# Structural Database, then it will include bibliographic, chemical, 
# crystal, experimental, refinement or atomic coordinate data resulting 
# from the CCDC's data processing and validation procedures.
#
#######################################################################

data_SUYJOM
_symmetry_cell_setting           monoclinic
_symmetry_space_group_name_H-M   'P 21/c'
_symmetry_Int_Tables_number      14
_space_group_name_Hall           '-P 2ybc'
loop_
_symmetry_equiv_pos_site_id
_symmetry_equiv_pos_as_xyz
1 x,y,z
2 -x,1/2+y,1/2-z
3 -x,-y,-z
4 x,1/2-y,1/2+z
_cell_length_a                   10.123(2)
_cell_length_b                   11.812(2)
_cell_length_c                   10.264(2)
_cell_angle_alpha                90
_cell_angle_beta                 94.122(2)
_cell_angle_gamma                90
_cell_volume                     1224.12
loop_
_atom_site_label
_atom_site_type_symbol
_atom_site_fract_x
_atom_site_fract_y
_atom_site_fract_z
Cu1 Cu 0.53293(4) 0.44688(4) 0.14711(4)
N1 N 0.5018(3) 0.5378(2) 0.2957(3)
N2 N 0.5887(3) 0.3555(3) 0.0048(3)
O1 O 0.3542(2) 0.3978(2) 0.1187(2)
O2 O 0.6958(2) 0.5474(2) 0.1426(3)
O3 O 0.1241(2) 0.3292(2) 0.0317(3)
S1 S 0.69266(9) 0.20646(9) -0.17233(10)
C1 C 0.2666(3) 0.5001(3) 0.2971(4)
C2 C 0.2552(3) 0.4302(3) 0.1865(4)
C3 C 0.1256(4) 0.3941(3) 0.1410(4)
C4 C 0.0163(4) 0.4253(4) 0.2056(4)
H1 H -0.0676 0.4013 0.1746
C5 C 0.0312(4) 0.4923(4) 0.3164(5)
H2 H -0.0428 0.5120 0.3602
C6 C 0.1528(4) 0.5294(4) 0.3616(4)
H3 H 0.1613 0.5747 0.4358
C7 C 0.3894(4) 0.5518(3) 0.3442(3)
H4 H 0.3874 0.5995 0.4161
C8 C 0.6186(4) 0.6025(3) 0.3450(4)
H5 H 0.6777 0.5550 0.3997
H6 H 0.5922 0.6665 0.3964
C9 C 0.6868(4) 0.6430(3) 0.2283(4)
H7 H 0.6362 0.7034 0.1844
H8 H 0.7744 0.6714 0.2551
C10 C -0.0026(4) 0.2961(4) -0.0268(5)
H9 H -0.0477 0.2509 0.0338
H10 H 0.0091 0.2528 -0.1043
H11 H -0.0542 0.3624 -0.0492
C11 C 0.6318(3) 0.2926(3) -0.0683(4)
H12 H 0.701(5) 0.568(4) 0.0643(18)
Cu1C Cu 0.53293(4) 0.05312(4) -0.35289(4)
S1C S 0.69266(9) 0.29354(9) 0.32767(10)
loop_
_geom_bond_atom_site_label_1
_geom_bond_atom_site_label_2
_geom_bond_site_symmetry_1
_geom_bond_site_symmetry_2
Cu1 N1 1_555 1_555
N1 C7 1_555 1_555
N2 Cu1 1_555 1_555
O1 Cu1 1_555 1_555
O2 Cu1 1_555 1_555
O3 C3 1_555 1_555
S1 C11 1_555 1_555
C1 C2 1_555 1_555
C2 O1 1_555 1_555
C3 C2 1_555 1_555
C4 C3 1_555 1_555
H1 C4 1_555 1_555
C5 C4 1_555 1_555
H2 C5 1_555 1_555
C6 C1 1_555 1_555
H3 C6 1_555 1_555
C7 C1 1_555 1_555
H4 C7 1_555 1_555
C8 N1 1_555 1_555
H5 C8 1_555 1_555
H6 C8 1_555 1_555
C9 O2 1_555 1_555
H7 C9 1_555 1_555
H8 C9 1_555 1_555
C10 O3 1_555 1_555
H9 C10 1_555 1_555
H10 C10 1_555 1_555
H11 C10 1_555 1_555
C11 N2 1_555 1_555
H12 O2 1_555 1_555
Cu1C S1 1_555 1_555
S1C Cu1 1_555 1_555
C5 C6 1_555 1_555
C8 C9 1_555 1_555

#END
