
#######################################################################
#
#                 Cambridge Crystallographic Data Centre
#                                CCDC 
#
#######################################################################
#
# If this CIF has been generated from an entry in the Cambridge 
# Structural Database, then it will include bibliographic, chemical, 
# crystal, experimental, refinement or atomic coordinate data resulting 
# from the CCDC's data processing and validation procedures.
#
#######################################################################

data_SUYQAE
_symmetry_cell_setting           monoclinic
_symmetry_space_group_name_H-M   'P 21/c'
_symmetry_Int_Tables_number      14
_space_group_name_Hall           '-P 2ybc'
loop_
_symmetry_equiv_pos_site_id
_symmetry_equiv_pos_as_xyz
1 x,y,z
2 x,1/2-y,1/2+z
3 -x,-y,-z
4 -x,1/2+y,1/2-z
_cell_length_a                   18.593(9)
_cell_length_b                   9.758(4)
_cell_length_c                   33.636(2)
_cell_angle_alpha                90
_cell_angle_beta                 94.875(2)
_cell_angle_gamma                90
_cell_volume                     6080.52
loop_
_atom_site_label
_atom_site_type_symbol
_atom_site_fract_x
_atom_site_fract_y
_atom_site_fract_z
Ag1 Ag 0.09201(2) 0.60495(3) 0.83393(1)
Ag2 Ag 0.29777(1) 1.08176(3) 0.88303(1)
O1 O 0.2000(1) 0.7743(3) 0.87128(7)
O2 O 0.2969(2) 1.0646(3) 0.78484(7)
O3 O 0.0838(1) 0.8390(3) 0.75159(7)
O4 O 0.2105(2) 0.3068(3) 0.83738(7)
O5 O 0.2119(2) 0.1738(3) 0.96394(8)
O6 O 0.1033(2) 0.5786(3) 0.92505(8)
O7 O 0.3841(1) 1.1802(3) 0.96276(7)
O8 O 0.6210(1) 1.1756(3) 0.93749(8)
O9 O 0.4450(1) 0.9921(3) 0.84977(7)
N1 N 0.1458(2) 0.7960(3) 0.81049(8)
N2 N 0.2470(2) 0.9379(3) 0.83064(8)
N3 N 0.1916(2) 0.9523(3) 0.76451(8)
N4 N 0.1516(2) 0.4474(3) 0.87968(8)
N5 N 0.2148(2) 0.2440(3) 0.90068(9)
N6 N 0.1547(2) 0.3763(3) 0.94731(9)
N7 N 0.4149(2) 1.0871(3) 0.90613(8)
N8 N 0.5059(2) 1.1785(3) 0.95267(8)
N9 N 0.5382(2) 1.0779(3) 0.89190(9)
C1 C 0.1997(2) 0.8401(4) 0.8368(1)
C2 C 0.2434(2) 0.9826(4) 0.7932(1)
C3 C 0.1426(2) 0.8659(4) 0.7762(1)
C4 C 0.2578(2) 0.7939(4) 0.9012(1)
C5 C 0.3212(2) 0.7244(4) 0.8979(1)
C6 C 0.3743(2) 0.7347(5) 0.9294(1)
C7 C 0.3624(2) 0.8108(4) 0.9628(1)
C8 C 0.2980(2) 0.8806(4) 0.9649(1)
C9 C 0.2436(2) 0.8715(4) 0.9339(1)
C10 C 0.3061(2) 1.0954(4) 0.7442(1)
C11 C 0.2621(2) 1.1904(4) 0.7243(1)
C12 C 0.2754(3) 1.2235(5) 0.6853(1)
C13 C 0.3311(3) 1.1622(6) 0.6675(1)
C14 C 0.3751(3) 1.0685(6) 0.6881(2)
C15 C 0.3622(2) 1.0346(5) 0.7271(1)
C16 C 0.0705(2) 0.9241(4) 0.7175(1)
C17 C 0.0640(2) 1.0631(4) 0.7211(1)
C18 C 0.0473(2) 1.1397(4) 0.6868(1)
C19 C 0.0360(2) 1.0749(5) 0.6501(1)
C20 C 0.0409(2) 0.9346(5) 0.6476(1)
C21 C 0.0583(2) 0.8559(4) 0.6815(1)
C22 C 0.1903(2) 0.3364(4) 0.8736(1)
C23 C 0.1925(2) 0.2680(4) 0.9368(1)
C24 C 0.1378(2) 0.4628(4) 0.9179(1)
C25 C 0.1897(2) 0.3908(4) 0.8042(1)
C26 C 0.2412(2) 0.4737(5) 0.7893(1)
C27 C 0.2234(3) 0.5406(5) 0.7534(1)
C28 C 0.1551(3) 0.5267(5) 0.7340(1)
C29 C 0.1038(2) 0.4450(5) 0.7507(1)
C30 C 0.1206(2) 0.3762(4) 0.7857(1)
C31 C 0.1856(2) 0.1868(5) 1.0025(1)
C32 C 0.2158(3) 0.2806(6) 1.0287(1)
C33 C 0.1894(4) 0.2864(7) 1.0667(2)
C34 C 0.1350(4) 0.1982(8) 1.0760(2)
C35 C 0.1080(4) 0.1040(7) 1.0498(2)
C36 C 0.1325(3) 0.0960(5) 1.0116(2)
C37 C 0.0994(2) 0.6204(4) 0.9655(1)
C38 C 0.0328(3) 0.6487(6) 0.9777(1)
C39 C 0.0280(3) 0.6999(6) 1.0161(2)
C40 C 0.0891(3) 0.7205(5) 1.0409(1)
C41 C 0.1555(3) 0.6909(6) 1.0280(1)
C42 C 0.1615(3) 0.6403(5) 0.9897(1)
C43 C 0.4379(2) 1.1482(4) 0.9403(1)
C44 C 0.5523(2) 1.1420(4) 0.9261(1)
C45 C 0.4676(2) 1.0543(3) 0.8832(1)
C46 C 0.4016(2) 1.2539(4) 0.9986(1)
C47 C 0.4077(3) 1.3927(4) 0.9977(1)
C48 C 0.4212(3) 1.4612(5) 1.0336(2)
C49 C 0.4272(3) 1.3907(5) 1.0688(1)
C50 C 0.4197(3) 1.2504(5) 1.0690(1)
C51 C 0.4068(2) 1.1796(4) 1.0335(1)
C52 C 0.6719(2) 1.1787(4) 0.9082(1)
C53 C 0.7212(3) 1.0753(5) 0.9068(1)
C54 C 0.7748(3) 1.0897(5) 0.8805(2)
C55 C 0.7782(3) 1.2026(5) 0.8569(2)
C56 C 0.7279(3) 1.3034(6) 0.8589(2)
C57 C 0.6733(3) 1.2916(5) 0.8849(2)
C58 C 0.4927(2) 0.9789(4) 0.8191(1)
C59 C 0.5287(3) 1.0903(5) 0.8057(1)
C60 C 0.5707(3) 1.0710(7) 0.7738(1)
C61 C 0.5746(3) 0.9477(7) 0.7557(1)
C62 C 0.5384(3) 0.8379(6) 0.7694(2)
C63 C 0.4957(3) 0.8511(5) 0.8019(1)
H1 H 0.3285 0.6721 0.8749
H2 H 0.4189 0.6881 0.9280
H3 H 0.3986 0.8164 0.9843
H4 H 0.2908 0.9346 0.9876
H5 H 0.1986 0.9166 0.9352
H6 H 0.2237 1.2320 0.7367
H7 H 0.2456 1.2888 0.6709
H8 H 0.3394 1.1860 0.6410
H9 H 0.4138 1.0264 0.6760
H10 H 0.3920 0.9696 0.7419
H11 H 0.0709 1.1060 0.7465
H12 H 0.0435 1.2370 0.6886
H13 H 0.0249 1.1276 0.6266
H14 H 0.0321 0.8910 0.6225
H15 H 0.0616 0.7586 0.6800
H16 H 0.2876 0.4840 0.8029
H17 H 0.2580 0.5968 0.7423
H18 H 0.1432 0.5730 0.7096
H19 H 0.0568 0.4376 0.7374
H20 H 0.0859 0.3197 0.7970
H21 H 0.2533 0.3395 1.0217
H22 H 0.2084 0.3508 1.0859
H23 H 0.1163 0.2051 1.1013
H24 H 0.0716 0.0425 1.0571
H25 H 0.1135 0.0305 0.9926
H26 H -0.0098 0.6332 0.9605
H27 H -0.0181 0.7196 1.0250
H28 H 0.0858 0.7558 1.0670
H29 H 0.1980 0.7058 1.0453
H30 H 0.2073 0.6199 0.9806
H31 H 0.4022 1.4407 0.9730
H32 H 0.4263 1.5584 1.0337
H33 H 0.4365 1.4381 1.0934
H34 H 0.4229 1.2015 1.0936
H35 H 0.4019 1.0833 1.0332
H36 H 0.7188 0.9961 0.9231
H37 H 0.8099 1.0196 0.8790
H38 H 0.8154 1.2110 0.8392
H39 H 0.7301 1.3823 0.8425
H40 H 0.6378 1.3612 0.8859
H41 H 0.5250 1.1768 0.8180
H42 H 0.5970 1.1465 0.7644
H43 H 0.6028 0.9366 0.7336
H44 H 0.5420 0.7508 0.7570
H45 H 0.4700 0.7749 0.8116
C18C C -0.0473(2) 0.6397(4) 0.8132(1)
C19C C -0.0360(2) 0.5749(5) 0.8499(1)
N5_2 N 0.2148(2) 1.2440(3) 0.90068(9)
Ag2_2 Ag 0.29777(1) 0.08176(3) 0.88303(1)
Ag1C Ag -0.09201(2) 1.10495(3) 0.66607(1)
H12C H -0.0435 0.7370 0.8114
H13C H -0.0249 0.6276 0.8734
Cl1 Cl 0.03144(6) 0.0351(1) 0.86476(3)
O10 O 0.0551(3) -0.0909(5) 0.8805(2)
O11 O 0.0395(4) 0.1417(7) 0.8926(2)
O12 O -0.0423(3) 0.0276(7) 0.8544(2)
O13 O 0.0687(3) 0.0721(5) 0.8313(2)
Cl2 Cl 0.41817(6) 0.09465(9) 0.36010(3)
O14 O 0.4136(2) -0.0359(3) 0.34064(9)
O15 O 0.3875(2) 0.1992(3) 0.33385(9)
O16 O 0.4921(2) 0.1281(4) 0.3705(1)
O17 O 0.3794(3) 0.0904(4) 0.3949(1)
loop_
_geom_bond_atom_site_label_1
_geom_bond_atom_site_label_2
_geom_bond_site_symmetry_1
_geom_bond_site_symmetry_2
Ag1 N1 1_555 1_555
Ag2 N2 1_555 1_555
Cl1 O10 1_555 1_555
Cl2 O14 1_555 1_555
O1 C1 1_555 1_555
O2 C2 1_555 1_555
O3 C3 1_555 1_555
O4 C22 1_555 1_555
O5 C23 1_555 1_555
O6 C24 1_555 1_555
O7 C43 1_555 1_555
O8 C44 1_555 1_555
O9 C45 1_555 1_555
O11 Cl1 1_555 1_555
O12 Cl1 1_555 1_555
O13 Cl1 1_555 1_555
O15 Cl2 1_555 1_555
O16 Cl2 1_555 1_555
O17 Cl2 1_555 1_555
N1 C1 1_555 1_555
N2 C1 1_555 1_555
N3 C2 1_555 1_555
N4 Ag1 1_555 1_555
N5 C22 1_555 1_555
N6 C23 1_555 1_555
N7 Ag2 1_555 1_555
N8 C43 1_555 1_555
N9 C44 1_555 1_555
C2 N2 1_555 1_555
C3 N1 1_555 1_555
C4 O1 1_555 1_555
C5 C4 1_555 1_555
C6 C5 1_555 1_555
C7 C6 1_555 1_555
C8 C7 1_555 1_555
C9 C4 1_555 1_555
C10 O2 1_555 1_555
C11 C10 1_555 1_555
C12 C11 1_555 1_555
C13 C12 1_555 1_555
C14 C13 1_555 1_555
C15 C10 1_555 1_555
C16 O3 1_555 1_555
C17 C16 1_555 1_555
C18 C17 1_555 1_555
C19 C18 1_555 1_555
C20 C19 1_555 1_555
C21 C16 1_555 1_555
C22 N4 1_555 1_555
C23 N5 1_555 1_555
C24 N4 1_555 1_555
C25 O4 1_555 1_555
C26 C25 1_555 1_555
C27 C26 1_555 1_555
C28 C27 1_555 1_555
C29 C28 1_555 1_555
C30 C25 1_555 1_555
C31 O5 1_555 1_555
C32 C31 1_555 1_555
C33 C32 1_555 1_555
C34 C33 1_555 1_555
C35 C34 1_555 1_555
C36 C31 1_555 1_555
C37 O6 1_555 1_555
C38 C37 1_555 1_555
C39 C38 1_555 1_555
C40 C39 1_555 1_555
C41 C40 1_555 1_555
C42 C37 1_555 1_555
C43 N7 1_555 1_555
C44 N8 1_555 1_555
C45 N7 1_555 1_555
C46 O7 1_555 1_555
C47 C46 1_555 1_555
C48 C47 1_555 1_555
C49 C48 1_555 1_555
C50 C49 1_555 1_555
C51 C46 1_555 1_555
C52 O8 1_555 1_555
C53 C52 1_555 1_555
C54 C53 1_555 1_555
C55 C54 1_555 1_555
C56 C55 1_555 1_555
C57 C52 1_555 1_555
C58 O9 1_555 1_555
C59 C58 1_555 1_555
C60 C59 1_555 1_555
C61 C60 1_555 1_555
C62 C61 1_555 1_555
C63 C58 1_555 1_555
H1 C5 1_555 1_555
H2 C6 1_555 1_555
H3 C7 1_555 1_555
H4 C8 1_555 1_555
H5 C9 1_555 1_555
H6 C11 1_555 1_555
H7 C12 1_555 1_555
H8 C13 1_555 1_555
H9 C14 1_555 1_555
H10 C15 1_555 1_555
H11 C17 1_555 1_555
H12 C18 1_555 1_555
H13 C19 1_555 1_555
H14 C20 1_555 1_555
H15 C21 1_555 1_555
H16 C26 1_555 1_555
H17 C27 1_555 1_555
H18 C28 1_555 1_555
H19 C29 1_555 1_555
H20 C30 1_555 1_555
H21 C32 1_555 1_555
H22 C33 1_555 1_555
H23 C34 1_555 1_555
H24 C35 1_555 1_555
H25 C36 1_555 1_555
H26 C38 1_555 1_555
H27 C39 1_555 1_555
H28 C40 1_555 1_555
H29 C41 1_555 1_555
H30 C42 1_555 1_555
H31 C47 1_555 1_555
H32 C48 1_555 1_555
H33 C49 1_555 1_555
H34 C50 1_555 1_555
H35 C51 1_555 1_555
H36 C53 1_555 1_555
H37 C54 1_555 1_555
H38 C55 1_555 1_555
H39 C56 1_555 1_555
H40 C57 1_555 1_555
H41 C59 1_555 1_555
H42 C60 1_555 1_555
H43 C61 1_555 1_555
H44 C62 1_555 1_555
H45 C63 1_555 1_555
C18C Ag1 1_555 1_555
C19C Ag1 1_555 1_555
N5_2 Ag2 1_555 1_555
Ag2_2 N5 1_555 1_555
Ag1C C18 1_555 1_555
H12C C18C 1_555 1_555
H13C C19C 1_555 1_555
N3 C3 1_555 1_555
N6 C24 1_555 1_555
N9 C45 1_555 1_555
C8 C9 1_555 1_555
C14 C15 1_555 1_555
C19 Ag1C 1_555 1_555
C20 C21 1_555 1_555
C29 C30 1_555 1_555
C35 C36 1_555 1_555
C41 C42 1_555 1_555
C50 C51 1_555 1_555
C56 C57 1_555 1_555
C62 C63 1_555 1_555
C18C C19C 1_555 1_555

#END
