
#######################################################################
#
#                 Cambridge Crystallographic Data Centre
#                                CCDC 
#
#######################################################################
#
# If this CIF has been generated from an entry in the Cambridge 
# Structural Database, then it will include bibliographic, chemical, 
# crystal, experimental, refinement or atomic coordinate data resulting 
# from the CCDC's data processing and validation procedures.
#
#######################################################################

data_SUYQEI
_symmetry_cell_setting           monoclinic
_symmetry_space_group_name_H-M   'P 21/a'
_symmetry_Int_Tables_number      14
_space_group_name_Hall           '-P 2yab'
loop_
_symmetry_equiv_pos_site_id
_symmetry_equiv_pos_as_xyz
1 x,y,z
2 1/2+x,1/2-y,z
3 -x,-y,-z
4 1/2-x,1/2+y,-z
_cell_length_a                   12.118(1)
_cell_length_b                   31.309(4)
_cell_length_c                   14.941(1)
_cell_angle_alpha                90
_cell_angle_beta                 109.161(2)
_cell_angle_gamma                90
_cell_volume                     5354.61
loop_
_atom_site_label
_atom_site_type_symbol
_atom_site_fract_x
_atom_site_fract_y
_atom_site_fract_z
Ag1 Ag 0.97553(6) 0.72255(2) 0.26946(6)
Ag2 Ag 0.72733(6) 0.72654(2) -0.24857(6)
S1 S 0.8964(2) 0.72417(9) 0.0189(2)
F1 F 1.1232(7) 0.7236(4) 0.0703(6)
F2 F 1.0440(8) 0.7768(3) -0.0116(7)
F3 F 1.0413(7) 0.7197(3) -0.0780(5)
O1 O 0.7086(5) 0.7288(2) 0.3178(5)
O2 O 0.5991(5) 0.8615(2) 0.2349(5)
O3 O 0.9677(5) 0.8182(2) 0.2574(5)
O4 O 0.4411(6) 0.7622(2) -0.3280(5)
O5 O 0.2624(5) 0.6770(2) -0.1842(5)
O6 O 0.6375(5) 0.6480(2) -0.1706(5)
O7 O 0.8126(7) 0.6618(2) -0.2848(7)
O8 O 0.9040(10) 0.6797(3) 0.0405(9)
O9 O 0.9025(9) 0.7488(4) 0.1000(6)
O10 O 0.8114(8) 0.7362(4) -0.0657(6)
N1 N 0.8450(6) 0.7722(2) 0.2866(5)
N2 N 0.6554(6) 0.7957(2) 0.2785(5)
N3 N 0.7846(6) 0.8439(2) 0.2401(5)
N4 N 0.5484(6) 0.7059(2) -0.2458(5)
N5 N 0.3552(6) 0.7210(3) -0.2500(6)
N6 N 0.4502(6) 0.6586(2) -0.1737(5)
C1 C 0.7385(8) 0.7662(3) 0.2926(6)
C2 C 0.6838(7) 0.8333(3) 0.2517(6)
C3 C 0.8605(8) 0.8121(3) 0.2603(7)
C4 C 0.7764(7) 0.6921(3) 0.3193(7)
C5 C 0.7771(8) 0.6745(4) 0.2351(7)
C6 C 0.835(1) 0.6372(3) 0.2377(9)
C7 C 0.888(1) 0.6175(4) 0.320(1)
C8 C 0.886(1) 0.6352(4) 0.4040(10)
C9 C 0.830(1) 0.6731(4) 0.4046(8)
C10 C 0.6112(8) 0.9036(3) 0.2042(7)
C11 C 0.696(1) 0.9304(4) 0.2620(9)
C12 C 0.698(1) 0.9719(4) 0.232(1)
C13 C 0.616(1) 0.9851(4) 0.1482(9)
C14 C 0.536(1) 0.9576(4) 0.0941(8)
C15 C 0.5324(9) 0.9161(3) 0.1230(7)
C16 C 0.9940(8) 0.8577(3) 0.2236(8)
C17 C 1.040(1) 0.8888(4) 0.2871(9)
C18 C 1.074(1) 0.9263(4) 0.253(1)
C19 C 1.063(1) 0.9305(4) 0.160(1)
C20 C 1.018(1) 0.8989(4) 0.0989(10)
C21 C 0.9829(9) 0.8608(3) 0.1302(9)
C22 C 0.4517(7) 0.7285(3) -0.2726(6)
C23 C 0.3611(8) 0.6852(3) -0.2021(7)
C24 C 0.5403(8) 0.6708(3) -0.1969(7)
C25 C 0.5169(8) 0.7685(3) -0.3817(7)
C26 C 0.5635(9) 0.8088(4) -0.3774(8)
C27 C 0.632(1) 0.8173(4) -0.4329(8)
C28 C 0.651(1) 0.7856(5) -0.4902(8)
C29 C 0.600(1) 0.7470(5) -0.4956(8)
C30 C 0.5305(9) 0.7374(3) -0.4401(7)
C31 C 0.2467(9) 0.6360(4) -0.1531(8)
C32 C 0.228(1) 0.6345(5) -0.0669(10)
C33 C 0.203(2) 0.5946(9) -0.038(2)
C34 C 0.189(2) 0.5601(7) -0.096(2)
C35 C 0.213(1) 0.5627(5) -0.176(2)
C36 C 0.240(1) 0.6025(4) -0.207(1)
C37 C 0.6349(8) 0.6068(3) -0.1331(7)
C38 C 0.7114(8) 0.5986(3) -0.0455(8)
C39 C 0.7150(10) 0.5576(4) -0.0095(8)
C40 C 0.643(1) 0.5264(4) -0.064(1)
C41 C 0.569(1) 0.5360(4) -0.151(1)
C42 C 0.565(1) 0.5760(4) -0.1875(8)
C43 C 0.895(1) 0.6364(5) -0.215(1)
C44 C 0.886(2) 0.5946(6) -0.258(2)
C45 C 0.808(2) 0.5951(7) -0.345(2)
C46 C 0.745(2) 0.6366(6) -0.364(1)
C47 C 1.035(1) 0.7344(4) 0.0026(9)
H1 H 0.7376 0.6881 0.1764
H2 H 0.8385 0.6250 0.1804
H3 H 0.9270 0.5911 0.3211
H4 H 0.9236 0.6208 0.4621
H5 H 0.8292 0.6857 0.4622
H6 H 0.7505 0.9205 0.3198
H7 H 0.7546 0.9913 0.2692
H8 H 0.6169 1.0139 0.1282
H9 H 0.4813 0.9671 0.0358
H10 H 0.4752 0.8967 0.0859
H11 H 1.0480 0.8854 0.3523
H12 H 1.1059 0.9492 0.2957
H13 H 1.0880 0.9561 0.1380
H14 H 1.0100 0.9023 0.0338
H15 H 0.9522 0.8379 0.0876
H16 H 0.5487 0.8302 -0.3375
H17 H 0.6668 0.8447 -0.4316
H18 H 0.7005 0.7910 -0.5266
H19 H 0.6109 0.7261 -0.5379
H20 H 0.4946 0.7102 -0.4429
H21 H 0.2318 0.6595 -0.0295
H22 H 0.1967 0.5913 0.0234
H23 H 0.1615 0.5339 -0.0795
H24 H 0.2118 0.5377 -0.2126
H25 H 0.2521 0.6050 -0.2669
H26 H 0.7613 0.6203 -0.0097
H27 H 0.7664 0.5510 0.0522
H28 H 0.6461 0.4982 -0.0400
H29 H 0.5200 0.5143 -0.1879
H30 H 0.5133 0.5824 -0.2494
H31 H 0.9714 0.6477 -0.2013
H32 H 0.8750 0.6351 -0.1589
H33 H 0.9599 0.5869 -0.2629
H34 H 0.8633 0.5744 -0.2207
H35 H 0.8458 0.5909 -0.3901
H36 H 0.7527 0.5729 -0.3496
H37 H 0.6666 0.6336 -0.3641
H38 H 0.7449 0.6485 -0.4219
N2A N 1.1554(6) 0.7043(2) 0.2785(5)
N5A N 0.8552(6) 0.7790(3) -0.2500(6)
Ag1A Ag 0.47553(6) 0.77745(2) 0.26946(6)
Ag2A Ag 0.22733(6) 0.77346(2) -0.24857(6)
S2 S 0.8801(3) 0.8823(1) -0.4786(3)
F4 F 0.896(2) 0.9587(4) -0.420(1)
F5 F 1.042(1) 0.9392(5) -0.427(1)
F6 F 0.908(1) 0.9548(3) -0.5537(7)
O11 O 0.9156(9) 0.8670(3) -0.3849(6)
O12 O 0.767(1) 0.8831(5) -0.532(1)
O13 O 0.942(2) 0.8608(5) -0.5340(10)
C48 C 0.939(2) 0.9338(6) -0.475(1)
loop_
_geom_bond_atom_site_label_1
_geom_bond_atom_site_label_2
_geom_bond_site_symmetry_1
_geom_bond_site_symmetry_2
Ag1 O9 1_555 1_555
Ag2 O7 1_555 1_555
S1 O8 1_555 1_555
S2 O11 1_555 1_555
F1 C47 1_555 1_555
F2 C47 1_555 1_555
F3 C47 1_555 1_555
F4 C48 1_555 1_555
F5 C48 1_555 1_555
F6 C48 1_555 1_555
O1 C1 1_555 1_555
O2 C2 1_555 1_555
O3 C3 1_555 1_555
O4 C22 1_555 1_555
O5 C23 1_555 1_555
O6 C24 1_555 1_555
O7 C43 1_555 1_555
O9 S1 1_555 1_555
O10 Ag2 1_555 1_555
O12 S2 1_555 1_555
O13 S2 1_555 1_555
N1 Ag1 1_555 1_555
N2 C1 1_555 1_555
N3 C2 1_555 1_555
N4 Ag2 1_555 1_555
N5 C22 1_555 1_555
N6 C23 1_555 1_555
C1 N1 1_555 1_555
C2 N2 1_555 1_555
C3 N1 1_555 1_555
C4 O1 1_555 1_555
C5 C4 1_555 1_555
C6 C5 1_555 1_555
C7 C6 1_555 1_555
C8 C7 1_555 1_555
C9 C4 1_555 1_555
C10 O2 1_555 1_555
C11 C10 1_555 1_555
C12 C11 1_555 1_555
C13 C12 1_555 1_555
C14 C13 1_555 1_555
C15 C10 1_555 1_555
C16 O3 1_555 1_555
C17 C16 1_555 1_555
C18 C17 1_555 1_555
C19 C18 1_555 1_555
C20 C19 1_555 1_555
C21 C16 1_555 1_555
C22 N4 1_555 1_555
C23 N5 1_555 1_555
C24 N4 1_555 1_555
C25 O4 1_555 1_555
C26 C25 1_555 1_555
C27 C26 1_555 1_555
C28 C27 1_555 1_555
C29 C28 1_555 1_555
C30 C25 1_555 1_555
C31 O5 1_555 1_555
C32 C31 1_555 1_555
C33 C32 1_555 1_555
C34 C33 1_555 1_555
C35 C34 1_555 1_555
C36 C31 1_555 1_555
C37 O6 1_555 1_555
C38 C37 1_555 1_555
C39 C38 1_555 1_555
C40 C39 1_555 1_555
C41 C40 1_555 1_555
C42 C37 1_555 1_555
C43 C44 1_555 1_555
C44 C45 1_555 1_555
C45 C46 1_555 1_555
C46 O7 1_555 1_555
C47 S1 1_555 1_555
C48 S2 1_555 1_555
H1 C5 1_555 1_555
H2 C6 1_555 1_555
H3 C7 1_555 1_555
H4 C8 1_555 1_555
H5 C9 1_555 1_555
H6 C11 1_555 1_555
H7 C12 1_555 1_555
H8 C13 1_555 1_555
H9 C14 1_555 1_555
H10 C15 1_555 1_555
H11 C17 1_555 1_555
H12 C18 1_555 1_555
H13 C19 1_555 1_555
H14 C20 1_555 1_555
H15 C21 1_555 1_555
H16 C26 1_555 1_555
H17 C27 1_555 1_555
H18 C28 1_555 1_555
H19 C29 1_555 1_555
H20 C30 1_555 1_555
H21 C32 1_555 1_555
H22 C33 1_555 1_555
H23 C34 1_555 1_555
H24 C35 1_555 1_555
H25 C36 1_555 1_555
H26 C38 1_555 1_555
H27 C39 1_555 1_555
H28 C40 1_555 1_555
H29 C41 1_555 1_555
H30 C42 1_555 1_555
H31 C43 1_555 1_555
H32 C43 1_555 1_555
H33 C44 1_555 1_555
H34 C44 1_555 1_555
H35 C45 1_555 1_555
H36 C45 1_555 1_555
H37 C46 1_555 1_555
H38 C46 1_555 1_555
N2A Ag1 1_555 1_555
N5A Ag2 1_555 1_555
Ag1A N2 1_555 1_555
Ag2A N5 1_555 1_555
S1 O10 1_555 1_555
N3 C3 1_555 1_555
N6 C24 1_555 1_555
C8 C9 1_555 1_555
C14 C15 1_555 1_555
C20 C21 1_555 1_555
C29 C30 1_555 1_555
C35 C36 1_555 1_555
C41 C42 1_555 1_555

#END
