
#######################################################################
#
#                 Cambridge Crystallographic Data Centre
#                                CCDC 
#
#######################################################################
#
# If this CIF has been generated from an entry in the Cambridge 
# Structural Database, then it will include bibliographic, chemical, 
# crystal, experimental, refinement or atomic coordinate data resulting 
# from the CCDC's data processing and validation procedures.
#
#######################################################################

data_SUYZUH
_symmetry_cell_setting           triclinic
_symmetry_space_group_name_H-M   'P -1'
_symmetry_Int_Tables_number      2
_space_group_name_Hall           '-P 1'
loop_
_symmetry_equiv_pos_site_id
_symmetry_equiv_pos_as_xyz
1 x,y,z
2 -x,-y,-z
_cell_length_a                   8.534(2)
_cell_length_b                   10.047(2)
_cell_length_c                   6.311(2)
_cell_angle_alpha                105.21(2)
_cell_angle_beta                 93.45(3)
_cell_angle_gamma                81.72(2)
_cell_volume                     516.572
loop_
_atom_site_label
_atom_site_type_symbol
_atom_site_fract_x
_atom_site_fract_y
_atom_site_fract_z
Cu1 Cu 0.93756(9) 0.56396(6) 0.27542(11)
Cl1 Cl 0.95141(17) 0.35842(12) 0.3756(2)
Cl2 Cl 0.80262(16) 0.48191(12) -0.0439(2)
N1 N 0.8838(5) 0.7631(4) 0.2681(7)
C1 C 0.9600(7) 0.8390(5) 0.1788(9)
H1 H 1.0440 0.8043 0.0839
C2 C 0.8966(8) 0.9791(5) 0.2469(10)
H2 H 0.9306 1.0537 0.2093
C3 C 0.7768(7) 0.9838(5) 0.3775(9)
H3 H 0.7103 1.0633 0.4461
N2 N 0.7691(5) 0.8533(4) 0.3926(7)
C4 C 0.6609(6) 0.8075(5) 0.5142(9)
C5 C 0.6538(7) 0.8628(6) 0.7366(10)
H4 H 0.7186 0.9289 0.8071
C6 C 0.5493(8) 0.8193(6) 0.8555(11)
H5 H 0.5447 0.8559 1.0068
C7 C 0.4529(7) 0.7231(6) 0.7529(10)
H6 H 0.3839 0.6934 0.8339
C8 C 0.4589(8) 0.6700(6) 0.5258(10)
H7 H 0.3915 0.6064 0.4547
C9 C 0.5639(7) 0.7109(5) 0.4055(9)
H8 H 0.5694 0.6742 0.2543
Cl1A Cl 1.04859(17) 0.64158(12) 0.6244(2)
Cl2A Cl 1.19738(16) 0.51809(12) 0.0439(2)
Cu1A Cu 1.06244(9) 0.43604(6) 0.72458(11)
Cu1A_2 Cu 1.06244(9) 0.43604(6) -0.27542(11)
loop_
_geom_bond_atom_site_label_1
_geom_bond_atom_site_label_2
_geom_bond_site_symmetry_1
_geom_bond_site_symmetry_2
Cu1 Cl1 1_555 1_555
Cl1 Cu1A 1_555 1_555
Cl2 Cu1 1_555 1_555
N1 Cu1 1_555 1_555
C1 N1 1_555 1_555
H1 C1 1_555 1_555
C2 C1 1_555 1_555
H2 C2 1_555 1_555
C3 C2 1_555 1_555
H3 C3 1_555 1_555
N2 N1 1_555 1_555
C4 N2 1_555 1_555
C5 C4 1_555 1_555
H4 C5 1_555 1_555
C6 C5 1_555 1_555
H5 C6 1_555 1_555
C7 C6 1_555 1_555
H6 C7 1_555 1_555
C8 C7 1_555 1_555
H7 C8 1_555 1_555
C9 C4 1_555 1_555
H8 C9 1_555 1_555
Cl1A Cu1 1_555 1_555
Cl2A Cu1 1_555 1_555
Cu1A Cl1A 1_555 1_555
Cu1A_2 Cl2 1_555 1_555
C3 N2 1_555 1_555
C8 C9 1_555 1_555
Cl2A Cu1A_2 1_555 1_555

#END
