
#######################################################################
#
#                 Cambridge Crystallographic Data Centre
#                                CCDC 
#
#######################################################################
#
# If this CIF has been generated from an entry in the Cambridge 
# Structural Database, then it will include bibliographic, chemical, 
# crystal, experimental, refinement or atomic coordinate data resulting 
# from the CCDC's data processing and validation procedures.
#
#######################################################################

data_SUZTAI
_symmetry_cell_setting           monoclinic
_symmetry_space_group_name_H-M   'P 21/n'
_symmetry_Int_Tables_number      14
_space_group_name_Hall           '-P 2yn'
loop_
_symmetry_equiv_pos_site_id
_symmetry_equiv_pos_as_xyz
1 x,y,z
2 1/2+x,1/2-y,1/2+z
3 -x,-y,-z
4 1/2-x,1/2+y,1/2-z
_cell_length_a                   5.8260(5)
_cell_length_b                   5.2520(7)
_cell_length_c                   5.8320(7)
_cell_angle_alpha                90
_cell_angle_beta                 113.86(2)
_cell_angle_gamma                90
_cell_volume                     163.198
loop_
_atom_site_label
_atom_site_type_symbol
_atom_site_fract_x
_atom_site_fract_y
_atom_site_fract_z
Cd1 Cd 0.0000 0.0000 0.0000
O1 O -0.1107(3) 0.2305(3) 0.2625(3)
O2 O -0.1786(3) 0.1954(3) 0.6104(3)
C1 C -0.0832(4) 0.1218(4) 0.4619(4)
C1B C 0.0832(4) -0.1218(4) 0.5381(4)
O1B O 0.1107(3) -0.2305(3) 0.7375(3)
O2B O 0.1786(3) -0.1954(3) 0.3896(3)
O1B_2 O 0.1107(3) -0.2305(3) -0.2625(3)
O2_2 O -0.1786(3) 0.1954(3) -0.3896(3)
O2A O 0.3214(3) 0.3046(3) 0.1104(3)
O2C O -0.3214(3) -0.3046(3) -0.1104(3)
Cd1_2 Cd 0.0000 0.0000 1.0000
Cd1A Cd -0.5000 0.5000 0.5000
Cd1A_2 Cd 0.5000 -0.5000 0.5000
loop_
_geom_bond_atom_site_label_1
_geom_bond_atom_site_label_2
_geom_bond_site_symmetry_1
_geom_bond_site_symmetry_2
Cd1 O1 1_555 1_555
O1 C1 1_555 1_555
O2 C1 1_555 1_555
C1 C1B 1_555 1_555
C1B O1B 1_555 1_555
O1B Cd1_2 1_555 1_555
O2B Cd1 1_555 1_555
O1B_2 Cd1 1_555 1_555
O2_2 Cd1 1_555 1_555
O2A Cd1 1_555 1_555
O2C Cd1 1_555 1_555
Cd1_2 O2 1_555 1_555
Cd1A O2 1_555 1_555
Cd1A_2 O2B 1_555 1_555
C1B O2B 1_555 1_555

#END
