
#######################################################################
#
#                 Cambridge Crystallographic Data Centre
#                                CCDC 
#
#######################################################################
#
# If this CIF has been generated from an entry in the Cambridge 
# Structural Database, then it will include bibliographic, chemical, 
# crystal, experimental, refinement or atomic coordinate data resulting 
# from the CCDC's data processing and validation procedures.
#
#######################################################################

data_SUZVEO
_symmetry_cell_setting           monoclinic
_symmetry_space_group_name_H-M   'C 2/c'
_symmetry_Int_Tables_number      15
_space_group_name_Hall           '-C 2yn'
loop_
_symmetry_equiv_pos_site_id
_symmetry_equiv_pos_as_xyz
1 x,y,z
2 1/2+x,1/2+y,z
3 x,-y,1/2+z
4 1/2+x,1/2-y,1/2+z
5 -x,-y,-z
6 1/2-x,1/2-y,-z
7 -x,y,1/2-z
8 1/2-x,1/2+y,1/2-z
_cell_length_a                   15.5712(8)
_cell_length_b                   11.5546(6)
_cell_length_c                   11.2428(6)
_cell_angle_alpha                90
_cell_angle_beta                 97.0760(10)
_cell_angle_gamma                90
_cell_volume                     2007.39
loop_
_atom_site_label
_atom_site_type_symbol
_atom_site_fract_x
_atom_site_fract_y
_atom_site_fract_z
Ni1 Ni 0.7500 0.2500 0.0000
C1 C 0.81308(16) 0.1397(2) 0.0950(2)
N1 N 0.85152(17) 0.0713(2) 0.1529(2)
C2 C 0.66616(14) 0.2547(2) 0.1047(2)
N2 N 0.61120(12) 0.25587(19) 0.16389(19)
Ni2 Ni 0.5000 0.25378(4) 0.2500
O1 O 0.5000 0.4305(3) 0.2500
H1 H 0.451(2) 0.483(3) 0.224(3)
N3 N 0.5000 0.0800(2) 0.2500
N4 N 0.42238(12) 0.21546(18) 0.08575(17)
C3 C 0.38415(16) 0.2909(3) 0.0051(2)
H2 H 0.3951 0.3712 0.0171
C4 C 0.32910(16) 0.2558(3) -0.0951(2)
H3 H 0.3031 0.3111 -0.1509
C5 C 0.31294(17) 0.1395(3) -0.1120(2)
H4 H 0.2748 0.1135 -0.1791
C6 C 0.35260(16) 0.0610(3) -0.0307(2)
H5 H 0.3425 -0.0196 -0.0417
C7 C 0.40754(15) 0.1010(2) 0.0675(2)
C8 C 0.45393(14) 0.0233(2) 0.1599(2)
C9 C 0.45264(16) -0.0971(2) 0.1575(2)
H6 H 0.4199 -0.1375 0.0937
C10 C 0.5000 -0.1566(3) 0.2500
H7 H 0.5000 -0.2388 0.2500
H1F H 0.549(2) 0.483(3) 0.276(3)
C9F C 0.54736(16) -0.0971(2) 0.3425(2)
C8F C 0.54607(14) 0.0233(2) 0.3401(2)
C7F C 0.59246(15) 0.1010(2) 0.4325(2)
N4F N 0.57762(12) 0.21546(18) 0.41425(17)
C3F C 0.61585(16) 0.2909(3) 0.4949(2)
H2F H 0.6049 0.3712 0.4829
C4F C 0.67090(16) 0.2558(3) 0.5951(2)
H3F H 0.6969 0.3111 0.6509
C5F C 0.68706(17) 0.1395(3) 0.6120(2)
H4F H 0.7252 0.1135 0.6791
C6F C 0.64740(16) 0.0610(3) 0.5307(2)
H5F H 0.6575 -0.0196 0.5417
H6F H 0.5801 -0.1375 0.4063
C1E C 0.68692(16) 0.3603(2) -0.0950(2)
N1E N 0.64848(17) 0.4287(2) -0.1529(2)
C2E C 0.83384(14) 0.2453(2) -0.1047(2)
N2E N 0.88880(12) 0.24413(19) -0.16389(19)
N2F N 0.38880(12) 0.25587(19) 0.33611(19)
Ni2C Ni 1.0000 0.24622(4) -0.2500
loop_
_geom_bond_atom_site_label_1
_geom_bond_atom_site_label_2
_geom_bond_site_symmetry_1
_geom_bond_site_symmetry_2
Ni1 C1 1_555 1_555
C1 N1 1_555 1_555
C2 Ni1 1_555 1_555
N2 C2 1_555 1_555
Ni2 N2 1_555 1_555
O1 Ni2 1_555 1_555
H1 O1 1_555 1_555
N3 Ni2 1_555 1_555
N4 Ni2 1_555 1_555
C3 N4 1_555 1_555
H2 C3 1_555 1_555
C4 C3 1_555 1_555
H3 C4 1_555 1_555
C5 C4 1_555 1_555
H4 C5 1_555 1_555
C6 C5 1_555 1_555
H5 C6 1_555 1_555
C7 N4 1_555 1_555
C8 N3 1_555 1_555
C9 C8 1_555 1_555
H6 C9 1_555 1_555
C10 C9 1_555 1_555
H7 C10 1_555 1_555
H1F O1 1_555 1_555
C9F C10 1_555 1_555
C8F N3 1_555 1_555
C7F C8F 1_555 1_555
N4F Ni2 1_555 1_555
C3F N4F 1_555 1_555
H2F C3F 1_555 1_555
C4F C3F 1_555 1_555
H3F C4F 1_555 1_555
C5F C4F 1_555 1_555
H4F C5F 1_555 1_555
C6F C7F 1_555 1_555
H5F C6F 1_555 1_555
H6F C9F 1_555 1_555
C1E Ni1 1_555 1_555
N1E C1E 1_555 1_555
C2E Ni1 1_555 1_555
N2E C2E 1_555 1_555
N2F Ni2 1_555 1_555
Ni2C N2E 1_555 1_555
C6 C7 1_555 1_555
C7 C8 1_555 1_555
C9F C8F 1_555 1_555
C7F N4F 1_555 1_555
C5F C6F 1_555 1_555

#END
