
#######################################################################
#
#                 Cambridge Crystallographic Data Centre
#                                CCDC 
#
#######################################################################
#
# If this CIF has been generated from an entry in the Cambridge 
# Structural Database, then it will include bibliographic, chemical, 
# crystal, experimental, refinement or atomic coordinate data resulting 
# from the CCDC's data processing and validation procedures.
#
#######################################################################

data_SUZXOA
_symmetry_cell_setting           monoclinic
_symmetry_space_group_name_H-M   'C c'
_symmetry_Int_Tables_number      9
_space_group_name_Hall           'C -2yc'
loop_
_symmetry_equiv_pos_site_id
_symmetry_equiv_pos_as_xyz
1 x,y,z
2 x,-y,1/2+z
3 1/2+x,1/2+y,z
4 1/2+x,1/2-y,1/2+z
_cell_length_a                   4.8149(3)
_cell_length_b                   24.6603(15)
_cell_length_c                   6.9111(4)
_cell_angle_alpha                90
_cell_angle_beta                 106.4180(10)
_cell_angle_gamma                90
_cell_volume                     787.143
loop_
_atom_site_label
_atom_site_type_symbol
_atom_site_fract_x
_atom_site_fract_y
_atom_site_fract_z
Sn1 Sn 1.10170(6) 0.446853(9) 0.92033(6)
P1 P 0.7106(2) 0.55920(4) 0.76814(16)
O1 O 0.9214(6) 0.52416(12) 0.9234(5)
O2 O 0.4205(6) 0.52912(14) 0.6892(5)
O3 O 0.8275(7) 0.57804(14) 0.5967(5)
C1 C 0.6549(8) 0.61930(17) 0.8977(7)
C2 C 0.5193(13) 0.6161(2) 1.0496(10)
H1 H 0.451(12) 0.5812(13) 1.069(9)
C3 C 0.4941(17) 0.6627(2) 1.1584(10)
H2 H 0.418(13) 0.657(3) 1.266(6)
C4 C 0.6004(16) 0.7110(3) 1.1184(12)
H3 H 0.595(14) 0.7421(18) 1.197(9)
C5 C 0.733(2) 0.7136(3) 0.9632(15)
H4 H 0.79(2) 0.7480(18) 0.937(15)
C6 C 0.7573(18) 0.6686(2) 0.8560(11)
H5 H 0.890(16) 0.667(4) 0.779(12)
O2A O 1.4205(6) 0.47088(14) 1.1892(5)
O3A O 0.8275(7) 0.42196(14) 1.0967(5)
Sn1A Sn 0.10170(6) 0.553147(9) 0.42033(6)
Sn1A_2 Sn 1.10170(6) 0.553147(9) 0.42033(6)
loop_
_geom_bond_atom_site_label_1
_geom_bond_atom_site_label_2
_geom_bond_site_symmetry_1
_geom_bond_site_symmetry_2
Sn1 O1 1_555 1_555
P1 O1 1_555 1_555
O2 P1 1_555 1_555
O3 P1 1_555 1_555
C1 P1 1_555 1_555
C2 C1 1_555 1_555
H1 C2 1_555 1_555
C3 C2 1_555 1_555
H2 C3 1_555 1_555
C4 C3 1_555 1_555
H3 C4 1_555 1_555
C5 C4 1_555 1_555
H4 C5 1_555 1_555
C6 C1 1_555 1_555
H5 C6 1_555 1_555
O2A Sn1 1_555 1_555
O3A Sn1 1_555 1_555
Sn1A O2 1_555 1_555
Sn1A_2 O3 1_555 1_555
C5 C6 1_555 1_555

#END
