
#######################################################################
#
#                 Cambridge Crystallographic Data Centre
#                                CCDC 
#
#######################################################################
#
# If this CIF has been generated from an entry in the Cambridge 
# Structural Database, then it will include bibliographic, chemical, 
# crystal, experimental, refinement or atomic coordinate data resulting 
# from the CCDC's data processing and validation procedures.
#
#######################################################################

data_TABDOR
_symmetry_cell_setting           triclinic
_symmetry_space_group_name_H-M   'P -1'
_symmetry_Int_Tables_number      2
_space_group_name_Hall           '-P 1'
loop_
_symmetry_equiv_pos_site_id
_symmetry_equiv_pos_as_xyz
1 x,y,z
2 -x,-y,-z
_cell_length_a                   7.94910(10)
_cell_length_b                   12.8013(3)
_cell_length_c                   13.5316(4)
_cell_angle_alpha                97.5992(8)
_cell_angle_beta                 105.3403(8)
_cell_angle_gamma                103.7083(15)
_cell_volume                     1261.84
loop_
_atom_site_label
_atom_site_type_symbol
_atom_site_fract_x
_atom_site_fract_y
_atom_site_fract_z
La1 La 0.26784(3) 0.05330(2) -0.04456(2)
O1 O 0.5967(5) 0.1055(3) 0.3853(3)
C1 C 0.4837(7) 0.0657(4) 0.2823(4)
C2 C 0.3078(6) 0.0531(4) 0.2781(4)
C3 C 0.2992(7) 0.0832(4) 0.3804(4)
C4 C 0.1760(11) 0.0952(8) 0.4340(6)
H1 H 0.0501 0.0779 0.3968
C5 C 0.2375(13) 0.1330(8) 0.5433(7)
H2 H 0.1522 0.1399 0.5797
C6 C 0.4222(12) 0.1604(8) 0.5990(7)
H3 H 0.4594 0.1845 0.6730
C7 C 0.5427(13) 0.1543(6) 0.5539(5)
H4 H 0.6683 0.1746 0.5926
C8 C 0.4822(9) 0.1163(5) 0.4451(4)
C9 C 0.5722(6) 0.0408(4) 0.2024(4)
O2 O 0.4713(4) -0.0033(3) 0.1079(3)
O3 O 0.7410(5) 0.0600(3) 0.2287(3)
C10 C 0.1365(6) 0.0109(4) 0.1881(4)
O4 O 0.0004(5) -0.0458(4) 0.2063(3)
O5 O 0.1269(5) 0.0356(3) 0.1000(3)
O6 O 0.0085(5) -0.5227(3) -0.1389(3)
C11 C 0.1494(6) -0.4323(4) -0.0754(4)
C12 C 0.1425(6) -0.3388(4) -0.1107(4)
C13 C -0.0146(6) -0.3702(4) -0.2049(4)
C14 C -0.0916(7) -0.3154(5) -0.2799(4)
H5 H -0.0423 -0.2388 -0.2741
C15 C -0.2414(7) -0.3765(5) -0.3627(4)
H6 H -0.2974 -0.3409 -0.4139
C16 C -0.3132(7) -0.4906(5) -0.3728(4)
H7 H -0.4153 -0.5304 -0.4313
C17 C -0.2389(7) -0.5457(5) -0.3001(4)
H8 H -0.2877 -0.6223 -0.3060
C18 C -0.0884(6) -0.4829(4) -0.2175(4)
C19 C 0.2618(6) -0.2237(4) -0.0683(4)
O7 O 0.1779(4) -0.1521(3) -0.0579(3)
O8 O 0.4314(4) -0.2048(3) -0.0491(3)
C20 C 0.2745(6) -0.4567(4) 0.0174(4)
O9 O 0.3702(5) -0.3770(3) 0.0895(3)
O10 O 0.2737(5) -0.5552(3) 0.0157(3)
O11 O 0.1591(5) 0.2186(3) 0.0162(3)
H15 H 0.0603 0.2133 0.0368
H16 H 0.1953 0.2902 0.0155
O12 O 0.3476(5) 0.1920(3) -0.1528(3)
H17 H 0.4439 0.2549 -0.1315
H18 H 0.2617 0.2037 -0.2010
La1A La 0.73216(3) -0.05330(2) 0.04456(2)
La1A_2 La -0.26784(3) -0.05330(2) 0.04456(2)
O2A O 0.5287(4) 0.0033(3) -0.1079(3)
O3A O 0.2590(5) -0.0600(3) -0.2287(3)
O4A O -0.0004(5) 0.0458(4) -0.2063(3)
O8A O 0.5686(4) 0.2048(3) 0.0491(3)
N1 N -0.4782(6) -0.5564(4) 0.1940(3)
H9 H -0.5639 -0.5431 0.1407
C21 C -0.3525(8) -0.4611(5) 0.2416(5)
H10 H -0.3563 -0.3980 0.2122
C22 C -0.2167(7) -0.4523(5) 0.3332(5)
H11 H -0.1297 -0.3834 0.3670
C23 C -0.2079(7) -0.5452(4) 0.3757(4)
C24 C -0.3420(7) -0.6442(5) 0.3223(4)
H12 H -0.3406 -0.7093 0.3487
C25 C -0.4758(7) -0.6476(5) 0.2319(4)
H13 H -0.5662 -0.7148 0.1964
C26 C -0.0667(7) -0.5442(5) 0.4711(4)
H14 H -0.0705 -0.6119 0.4934
N1A N 0.4782(6) -0.4436(4) 0.8060(3)
H9A H 0.5639 -0.4569 0.8593
C21A C 0.3525(8) -0.5389(5) 0.7584(5)
H10A H 0.3563 -0.6020 0.7878
C22A C 0.2167(7) -0.5477(5) 0.6668(5)
H11A H 0.1297 -0.6166 0.6330
C23A C 0.2079(7) -0.4548(4) 0.6243(4)
C24A C 0.3420(7) -0.3558(5) 0.6777(4)
H12A H 0.3406 -0.2907 0.6513
C25A C 0.4758(7) -0.3524(5) 0.7681(4)
H13A H 0.5662 -0.2852 0.8036
C26A C 0.0667(7) -0.4558(5) 0.5289(4)
H14A H 0.0705 -0.3881 0.5066
O13 O 0.7700(8) 0.2177(6) -0.1646(6)
H19 H 0.7978 0.1535 -0.1338
H20 H 0.7892 0.2672 -0.1071
O14 O 0.0303(15) 0.2388(16) 0.730(2)
O15? O 0.076(3) 0.2808(18) 0.798(2)
loop_
_geom_bond_atom_site_label_1
_geom_bond_atom_site_label_2
_geom_bond_site_symmetry_1
_geom_bond_site_symmetry_2
La1 O2 1_555 1_555
O1 C1 1_555 1_555
C1 C2 1_555 1_555
C2 C3 1_555 1_555
C3 C4 1_555 1_555
C4 H1 1_555 1_555
C5 C4 1_555 1_555
H2 C5 1_555 1_555
C6 C5 1_555 1_555
H3 C6 1_555 1_555
C7 C6 1_555 1_555
H4 C7 1_555 1_555
C8 O1 1_555 1_555
C9 C1 1_555 1_555
O2 C9 1_555 1_555
O3 C9 1_555 1_555
C10 C2 1_555 1_555
O4 C10 1_555 1_555
O5 La1 1_555 1_555
O6 C11 1_555 1_555
C11 C12 1_555 1_555
C12 C13 1_555 1_555
C13 C14 1_555 1_555
C14 H5 1_555 1_555
C15 C14 1_555 1_555
H6 C15 1_555 1_555
C16 C15 1_555 1_555
H7 C16 1_555 1_555
C17 C16 1_555 1_555
H8 C17 1_555 1_555
C18 O6 1_555 1_555
C19 C12 1_555 1_555
O7 La1 1_555 1_555
O8 C19 1_555 1_555
C20 C11 1_555 1_555
O9 C20 1_555 1_555
O10 C20 1_555 1_555
N1 H9 1_555 1_555
C21 N1 1_555 1_555
H10 C21 1_555 1_555
C22 C21 1_555 1_555
H11 C22 1_555 1_555
C23 C22 1_555 1_555
C24 C23 1_555 1_555
H12 C24 1_555 1_555
C25 N1 1_555 1_555
H13 C25 1_555 1_555
C26 C23 1_555 1_555
H14 C26 1_555 1_555
O11 La1 1_555 1_555
H15 O11 1_555 1_555
H16 O11 1_555 1_555
O12 La1 1_555 1_555
H17 O12 1_555 1_555
H18 O12 1_555 1_555
O13 H19 1_555 1_555
H20 O13 1_555 1_555
La1A O2 1_555 1_555
La1A_2 O4 1_555 1_555
O2A La1 1_555 1_555
O3A La1 1_555 1_555
O4A La1 1_555 1_555
O8A La1 1_555 1_555
N1A H9A 1_555 1_555
C21A N1A 1_555 1_555
H10A C21A 1_555 1_555
C22A C21A 1_555 1_555
H11A C22A 1_555 1_555
C23A C22A 1_555 1_555
C24A C23A 1_555 1_555
H12A C24A 1_555 1_555
C25A N1A 1_555 1_555
H13A C25A 1_555 1_555
C26A C26 1_555 1_555
H14A C26A 1_555 1_555
C3 C8 1_555 1_555
C7 C8 1_555 1_555
O3 La1A 1_555 1_555
C10 O5 1_555 1_555
C13 C18 1_555 1_555
C17 C18 1_555 1_555
C19 O7 1_555 1_555
O8 La1A 1_555 1_555
C24 C25 1_555 1_555
La1A O2A 1_555 1_555
C23A C26A 1_555 1_555
C24A C25A 1_555 1_555

#END
