
#######################################################################
#
#                 Cambridge Crystallographic Data Centre
#                                CCDC 
#
#######################################################################
#
# If this CIF has been generated from an entry in the Cambridge 
# Structural Database, then it will include bibliographic, chemical, 
# crystal, experimental, refinement or atomic coordinate data resulting 
# from the CCDC's data processing and validation procedures.
#
#######################################################################

data_TABDUX
_symmetry_cell_setting           monoclinic
_symmetry_space_group_name_H-M   'P 21/c'
_symmetry_Int_Tables_number      14
_space_group_name_Hall           '-P 2ybc'
loop_
_symmetry_equiv_pos_site_id
_symmetry_equiv_pos_as_xyz
1 x,y,z
2 -x,1/2+y,1/2-z
3 -x,-y,-z
4 x,1/2-y,1/2+z
_cell_length_a                   12.9328(4)
_cell_length_b                   23.7681(7)
_cell_length_c                   8.4679(2)
_cell_angle_alpha                90
_cell_angle_beta                 90.3430(12)
_cell_angle_gamma                90
_cell_volume                     2602.88
loop_
_atom_site_label
_atom_site_type_symbol
_atom_site_fract_x
_atom_site_fract_y
_atom_site_fract_z
Gd1 Gd -0.09429(4) 0.017570(19) -0.19619(5)
O1 O -0.1798(5) 0.1982(3) -0.4888(7)
C1 C -0.1743(7) 0.1409(4) -0.4662(9)
C2 C -0.1017(7) 0.1156(4) -0.5587(9)
C3 C -0.0542(7) 0.1621(4) -0.6500(9)
C4 C 0.0258(7) 0.1664(4) -0.7554(11)
H1 H 0.0613 0.1341 -0.7927
C5 C 0.0526(8) 0.2204(4) -0.8052(11)
H2 H 0.1070 0.2249 -0.8790
C6 C 0.0021(8) 0.2675(4) -0.7500(11)
H3 H 0.0244 0.3036 -0.7841
C7 C -0.0783(8) 0.2641(4) -0.6487(11)
H4 H -0.1142 0.2965 -0.6134
C8 C -0.1055(7) 0.2098(4) -0.5987(10)
C9 C -0.2513(7) 0.1216(4) -0.3466(9)
O2 O -0.2304(4) 0.0758(3) -0.2738(6)
O3 O -0.3263(5) 0.1514(3) -0.3178(8)
C10 C -0.0785(6) 0.0551(4) -0.5812(9)
O4 O -0.0366(5) 0.0428(2) -0.7127(6)
O5 O -0.1006(4) 0.0200(2) -0.4752(6)
O6 O -0.3504(5) -0.1436(2) 0.0533(6)
C11 C -0.2678(7) -0.1108(3) 0.0078(8)
C12 C -0.1942(7) -0.1083(3) 0.1240(9)
C13 C -0.2312(7) -0.1414(3) 0.2544(9)
C14 C -0.2004(8) -0.1553(4) 0.4094(10)
H5 H -0.1373 -0.1415 0.4524
C15 C -0.2637(8) -0.1892(4) 0.4966(12)
H6 H -0.2434 -0.1994 0.6007
C16 C -0.3582(9) -0.2095(4) 0.4360(12)
H7 H -0.3979 -0.2339 0.5007
C17 C -0.3960(9) -0.1963(4) 0.2910(11)
H8 H -0.4611 -0.2088 0.2520
C18 C -0.3272(8) -0.1618(4) 0.2042(9)
C19 C -0.2837(7) -0.0866(4) -0.1578(10)
O7 O -0.2176(4) -0.0514(3) -0.2071(6)
O8 O -0.3588(5) -0.1044(3) -0.2278(7)
C20 C -0.0921(6) -0.0793(4) 0.1327(9)
O9 O -0.0322(5) -0.0910(2) 0.2405(7)
O10 O -0.0654(4) -0.0427(2) 0.0280(6)
O11 O -0.1527(5) 0.0696(3) 0.0253(6)
H9 H -0.1149 0.0611 0.1126
H10 H -0.2043 0.0952 0.0207
Gd1B Gd 0.09429(4) -0.017570(19) 0.19619(5)
Gd1B_2 Gd 0.09429(4) -0.017570(19) -0.80381(5)
O4B O 0.0366(5) -0.0428(2) -0.2873(6)
O9B O 0.0322(5) 0.0910(2) -0.2405(7)
O10B O 0.0654(4) 0.0427(2) -0.0280(6)
N1 N -0.3913(6) -0.0588(3) -0.5048(8)
H11 H -0.3744 -0.0820 -0.4067
C21 C -0.4827(7) -0.0718(4) -0.5758(9)
H12 H -0.5295 -0.0963 -0.5236
C22 C -0.5085(7) -0.0508(4) -0.7191(9)
H13 H -0.5725 -0.0606 -0.7672
C23 C -0.4410(7) -0.0148(4) -0.7952(9)
C24 C -0.3477(7) -0.0016(4) -0.7185(11)
H14 H -0.3011 0.0238 -0.7674
C25 C -0.3225(8) -0.0241(4) -0.5767(10)
H15 H -0.2578 -0.0158 -0.5282
C26 C -0.4616(7) 0.0081(4) -0.9553(10)
H16 H -0.4163 0.0362 -0.9948
N1B N -0.6087(6) 0.0588(3) -1.4952(8)
H11B H -0.6256 0.0820 -1.5933
C21B C -0.5173(7) 0.0718(4) -1.4242(9)
H12B H -0.4705 0.0963 -1.4764
C22B C -0.4915(7) 0.0508(4) -1.2809(9)
H13B H -0.4275 0.0606 -1.2328
C23B C -0.5590(7) 0.0148(4) -1.2048(9)
C24B C -0.6523(7) 0.0016(4) -1.2815(11)
H14B H -0.6989 -0.0238 -1.2326
C25B C -0.6775(8) 0.0241(4) -1.4233(10)
H15B H -0.7422 0.0158 -1.4718
C26B C -0.5384(7) -0.0081(4) -1.0447(10)
H16B H -0.5837 -0.0362 -1.0052
O12 O -0.3031(6) 0.1448(4) 0.0108(9)
H17 H -0.3109 0.1474 -0.0963
H18 H -0.3499 0.1467 0.0883
O13 O -0.4022(6) 0.2333(4) -0.5384(11)
H19 H -0.3775 0.2074 -0.4701
H20 H -0.3387 0.2434 -0.5767
O14 O -0.4401(8) 0.1489(5) 0.2416(12)
H21 H -0.5048 0.1347 0.2367
H22 H -0.4275 0.1763 0.3128
loop_
_geom_bond_atom_site_label_1
_geom_bond_atom_site_label_2
_geom_bond_site_symmetry_1
_geom_bond_site_symmetry_2
Gd1 O2 1_555 1_555
O1 C1 1_555 1_555
C1 C2 1_555 1_555
C2 C3 1_555 1_555
C3 C4 1_555 1_555
C4 H1 1_555 1_555
C5 C4 1_555 1_555
H2 C5 1_555 1_555
C6 C5 1_555 1_555
H3 C6 1_555 1_555
C7 C6 1_555 1_555
H4 C7 1_555 1_555
C8 O1 1_555 1_555
C9 C1 1_555 1_555
O2 C9 1_555 1_555
O3 C9 1_555 1_555
C10 C2 1_555 1_555
O4 C10 1_555 1_555
O5 Gd1 1_555 1_555
O6 C11 1_555 1_555
C11 C12 1_555 1_555
C12 C13 1_555 1_555
C13 C14 1_555 1_555
C14 H5 1_555 1_555
C15 C14 1_555 1_555
H6 C15 1_555 1_555
C16 C15 1_555 1_555
H7 C16 1_555 1_555
C17 C16 1_555 1_555
H8 C17 1_555 1_555
C18 O6 1_555 1_555
C19 C11 1_555 1_555
O7 Gd1 1_555 1_555
O8 C19 1_555 1_555
C20 C12 1_555 1_555
O9 C20 1_555 1_555
O10 Gd1 1_555 1_555
O11 Gd1 1_555 1_555
H9 O11 1_555 1_555
H10 O11 1_555 1_555
N1 H11 1_555 1_555
C21 N1 1_555 1_555
H12 C21 1_555 1_555
C22 C21 1_555 1_555
H13 C22 1_555 1_555
C23 C22 1_555 1_555
C24 C23 1_555 1_555
H14 C24 1_555 1_555
C25 N1 1_555 1_555
H15 C25 1_555 1_555
C26 C23 1_555 1_555
H16 C26 1_555 1_555
O12 H17 1_555 1_555
H18 O12 1_555 1_555
O13 H19 1_555 1_555
H20 O13 1_555 1_555
O14 H21 1_555 1_555
H22 O14 1_555 1_555
Gd1B O9 1_555 1_555
Gd1B_2 O4 1_555 1_555
O4B Gd1 1_555 1_555
O9B Gd1 1_555 1_555
O10B Gd1 1_555 1_555
N1B H11B 1_555 1_555
C21B N1B 1_555 1_555
H12B C21B 1_555 1_555
C22B C21B 1_555 1_555
H13B C22B 1_555 1_555
C23B C22B 1_555 1_555
C24B C23B 1_555 1_555
H14B C24B 1_555 1_555
C25B N1B 1_555 1_555
H15B C25B 1_555 1_555
C26B C26 1_555 1_555
H16B C26B 1_555 1_555
C3 C8 1_555 1_555
C7 C8 1_555 1_555
C10 O5 1_555 1_555
C13 C18 1_555 1_555
C17 C18 1_555 1_555
C19 O7 1_555 1_555
C20 O10 1_555 1_555
O10 Gd1B 1_555 1_555
C24 C25 1_555 1_555
Gd1B O10B 1_555 1_555
C23B C26B 1_555 1_555
C24B C25B 1_555 1_555

#END
