
#######################################################################
#
#                 Cambridge Crystallographic Data Centre
#                                CCDC 
#
#######################################################################
#
# If this CIF has been generated from an entry in the Cambridge 
# Structural Database, then it will include bibliographic, chemical, 
# crystal, experimental, refinement or atomic coordinate data resulting 
# from the CCDC's data processing and validation procedures.
#
#######################################################################

data_TABFEJ
_symmetry_cell_setting           monoclinic
_symmetry_space_group_name_H-M   'P 21/n'
_symmetry_Int_Tables_number      14
_space_group_name_Hall           '-P 2yn'
loop_
_symmetry_equiv_pos_site_id
_symmetry_equiv_pos_as_xyz
1 x,y,z
2 1/2-x,1/2+y,1/2-z
3 -x,-y,-z
4 1/2+x,1/2-y,1/2+z
_cell_length_a                   7.3730(2)
_cell_length_b                   17.9140(4)
_cell_length_c                   16.3998(5)
_cell_angle_alpha                90
_cell_angle_beta                 96.2068(9)
_cell_angle_gamma                90
_cell_volume                     2153.39
loop_
_atom_site_label
_atom_site_type_symbol
_atom_site_fract_x
_atom_site_fract_y
_atom_site_fract_z
Mn1 Mn 0.24008(11) 0.54065(4) 0.30803(5)
O1 O 0.2233(5) 0.31419(19) 0.4700(2)
C1 C 0.2828(7) 0.3025(3) 0.3945(3)
C2 C 0.2794(7) 0.2281(3) 0.3750(3)
C3 C 0.2144(7) 0.1893(3) 0.4439(3)
C4 C 0.1791(7) 0.1144(3) 0.4634(3)
H1 H 0.1970 0.0750 0.4264
C5 C 0.1179(7) 0.1008(3) 0.5380(3)
H2 H 0.0929 0.0508 0.5525
C6 C 0.0907(7) 0.1584(3) 0.5940(3)
H3 H 0.0490 0.1463 0.6452
C7 C 0.1235(7) 0.2323(3) 0.5758(3)
H4 H 0.1058 0.2718 0.6128
C8 C 0.1837(7) 0.2446(3) 0.5003(3)
C9 C 0.3278(7) 0.3712(3) 0.3504(3)
O2 O 0.4060(5) 0.36191(19) 0.2862(2)
O3 O 0.2854(5) 0.43337(19) 0.3782(2)
C10 C 0.3281(7) 0.1908(3) 0.2994(3)
O4 O 0.3982(5) 0.2291(2) 0.2430(2)
H5 H 0.4063 0.2837 0.2556
O5 O 0.3004(6) 0.1233(2) 0.2912(2)
O6 O -0.0242(5) 0.4956(2) 0.2644(3)
H6 H -0.1129 0.5247 0.2392
H7 H -0.0738 0.4657 0.3006
O7 O 0.1079(6) 0.5880(2) 0.4102(3)
H8 H 0.1891 0.6128 0.4551
H9 H -0.0179 0.5760 0.4258
O8 O 0.4776(5) 0.6005(2) 0.3630(3)
H10 H 0.5715 0.5773 0.3945
H11 H 0.5180 0.6136 0.3106
O9 O 0.4087(5) 0.4958(2) 0.2170(2)
H12 H 0.4668 0.4503 0.2378
H13 H 0.4971 0.5296 0.2169
Mn1A Mn 0.25992(11) 0.04065(4) 0.19197(5)
O5A O 0.1996(6) 0.6233(2) 0.2088(2)
O10 O -0.2865(6) 0.2902(2) 0.4729(3)
C11 C -0.2338(8) 0.2710(3) 0.3982(3)
C12 C -0.2383(8) 0.1952(3) 0.3819(4)
C13 C -0.3026(8) 0.1614(4) 0.4569(4)
C14 C -0.3341(9) 0.0912(4) 0.4833(5)
H14 H -0.3196 0.0492 0.4493
C15 C -0.3854(8) 0.0830(4) 0.5575(5)
H15 H -0.4047 0.0337 0.5760
C16 C -0.4128(8) 0.1406(4) 0.6093(4)
H16 H -0.4505 0.1300 0.6616
C17 C -0.3865(8) 0.2150(4) 0.5870(4)
H17 H -0.4057 0.2563 0.6213
C18 C -0.3267(8) 0.2221(3) 0.5057(4)
C19 C -0.1758(8) 0.3373(3) 0.3499(4)
O11 O -0.1803(7) 0.4009(2) 0.3792(3)
O12 O -0.1256(7) 0.3243(3) 0.2800(3)
C20 C -0.1863(9) 0.1548(4) 0.3113(4)
O13 O -0.1272(6) 0.1906(3) 0.2540(3)
H18 H -0.1122 0.2427 0.2376
O14 O -0.2046(7) 0.0849(3) 0.3129(3)
O15 O 0.2243(6) 0.4630(2) 0.5459(2)
H19 H 0.2255 0.4544 0.4888
H20 H 0.2204 0.5119 0.5614
loop_
_geom_bond_atom_site_label_1
_geom_bond_atom_site_label_2
_geom_bond_site_symmetry_1
_geom_bond_site_symmetry_2
Mn1 O3 1_555 1_555
O1 C1 1_555 1_555
C1 C2 1_555 1_555
C2 C3 1_555 1_555
C3 C4 1_555 1_555
C4 H1 1_555 1_555
C5 C4 1_555 1_555
H2 C5 1_555 1_555
C6 C5 1_555 1_555
H3 C6 1_555 1_555
C7 C6 1_555 1_555
H4 C7 1_555 1_555
C8 O1 1_555 1_555
C9 C1 1_555 1_555
O2 C9 1_555 1_555
O3 C9 1_555 1_555
C10 C2 1_555 1_555
O4 C10 1_555 1_555
H5 O4 1_555 1_555
O5 C10 1_555 1_555
O6 Mn1 1_555 1_555
H6 O6 1_555 1_555
H7 O6 1_555 1_555
O7 Mn1 1_555 1_555
H8 O7 1_555 1_555
H9 O7 1_555 1_555
O8 Mn1 1_555 1_555
H10 O8 1_555 1_555
H11 O8 1_555 1_555
O9 Mn1 1_555 1_555
H12 O9 1_555 1_555
H13 O9 1_555 1_555
O10 C11 1_555 1_555
C11 C12 1_555 1_555
C12 C13 1_555 1_555
C13 C14 1_555 1_555
C14 H14 1_555 1_555
C15 C14 1_555 1_555
H15 C15 1_555 1_555
C16 C15 1_555 1_555
H16 C16 1_555 1_555
C17 C16 1_555 1_555
H17 C17 1_555 1_555
C18 O10 1_555 1_555
C19 C11 1_555 1_555
O11 C19 1_555 1_555
O12 C19 1_555 1_555
C20 C12 1_555 1_555
O13 C20 1_555 1_555
H18 O13 1_555 1_555
O14 C20 1_555 1_555
O15 H19 1_555 1_555
H20 O15 1_555 1_555
Mn1A O5 1_555 1_555
O5A Mn1 1_555 1_555
C3 C8 1_555 1_555
C7 C8 1_555 1_555
C13 C18 1_555 1_555
C17 C18 1_555 1_555

#END
