
#######################################################################
#
#                 Cambridge Crystallographic Data Centre
#                                CCDC 
#
#######################################################################
#
# If this CIF has been generated from an entry in the Cambridge 
# Structural Database, then it will include bibliographic, chemical, 
# crystal, experimental, refinement or atomic coordinate data resulting 
# from the CCDC's data processing and validation procedures.
#
#######################################################################

data_TABFAF
_symmetry_cell_setting           monoclinic
_symmetry_space_group_name_H-M   'P 21/n'
_symmetry_Int_Tables_number      14
_space_group_name_Hall           '-P 2yn'
loop_
_symmetry_equiv_pos_site_id
_symmetry_equiv_pos_as_xyz
1 x,y,z
2 1/2-x,1/2+y,1/2-z
3 -x,-y,-z
4 1/2+x,1/2-y,1/2+z
_cell_length_a                   7.37680(10)
_cell_length_b                   17.9573(4)
_cell_length_c                   16.5245(5)
_cell_angle_alpha                90
_cell_angle_beta                 96.2846(8)
_cell_angle_gamma                90
_cell_volume                     2175.8
loop_
_atom_site_label
_atom_site_type_symbol
_atom_site_fract_x
_atom_site_fract_y
_atom_site_fract_z
Cd1 Cd 0.25981(4) -0.04098(2) 0.19226(2)
O1 O 0.2133(4) 0.06819(19) 0.1160(2)
C1 C 0.1754(6) 0.1304(3) 0.1446(3)
O2 O 0.2778(4) 0.18640(18) 0.02463(19)
C2 C 0.2211(6) 0.1984(3) 0.0995(3)
C3 C 0.2226(6) 0.2731(3) 0.1189(3)
C4 C 0.2867(6) 0.3110(3) 0.0493(3)
C5 C 0.3234(6) 0.3856(3) 0.0296(3)
H1 H 0.3069 0.4252 0.0662
C6 C 0.3843(6) 0.3987(3) -0.0452(3)
H2 H 0.4103 0.4483 -0.0600
C7 C 0.4091(6) 0.3408(3) -0.1001(3)
H3 H 0.4486 0.3524 -0.1514
C8 C 0.3775(6) 0.2675(3) -0.0811(3)
H4 H 0.3964 0.2279 -0.1173
C9 C 0.3169(6) 0.2554(3) -0.0063(3)
O3 O 0.1031(4) 0.1403(2) 0.2097(2)
C10 C 0.1770(6) 0.3112(3) 0.1926(3)
O4 O 0.1148(4) 0.2734(2) 0.2514(2)
H5 H 0.0955 0.2188 0.2378
O5 O 0.1980(5) 0.3794(2) 0.1988(2)
O6 O 0.0127(4) -0.1053(2) 0.1367(2)
H6 H -0.0341 -0.1325 0.1743
H7 H -0.0823 -0.0825 0.1076
O7 O 0.3972(5) -0.0911(2) 0.0873(2)
H8 H 0.5083 -0.0829 0.0790
H9 H 0.3250 -0.1175 0.0401
O8 O 0.0825(4) 0.0078(2) 0.2841(2)
H10 H 0.0353 0.0521 0.2718
H11 H -0.0224 -0.0129 0.2950
O9 O 0.5347(4) 0.0077(2) 0.2366(2)
H12 H 0.5817 0.0367 0.1909
H13 H 0.6204 -0.0225 0.2628
Cd1A Cd 0.24019(4) 0.45902(2) 0.30774(2)
O5A O 0.3020(5) -0.1206(2) 0.3012(2)
O10 O 0.7866(5) 0.2111(2) 0.0253(2)
C11 C 0.7351(6) 0.2312(3) 0.0996(3)
C12 C 0.7389(6) 0.3053(3) 0.1156(4)
C13 C 0.8034(6) 0.3393(3) 0.0396(3)
C14 C 0.8347(7) 0.4100(4) 0.0137(4)
H14 H 0.8201 0.4520 0.0472
C15 C 0.8863(7) 0.4174(3) -0.0602(4)
H15 H 0.9074 0.4663 -0.0790
C16 C 0.9113(6) 0.3590(4) -0.1115(3)
H16 H 0.9472 0.3688 -0.1640
C17 C 0.8850(7) 0.2858(3) -0.0878(3)
H17 H 0.9044 0.2442 -0.1213
C18 C 0.8263(6) 0.2787(3) -0.0086(3)
C19 C 0.6780(7) 0.1636(3) 0.1485(4)
O11 O 0.6833(5) 0.1009(2) 0.1187(3)
O12 O 0.6275(5) 0.1779(2) 0.2173(3)
C20 C 0.6886(7) 0.3463(3) 0.1855(4)
O13 O 0.6295(5) 0.3112(2) 0.2425(2)
H18 H 0.6157 0.2597 0.2596
O14 O 0.7056(5) 0.4165(2) 0.1837(3)
O15 O 0.7254(5) -0.0362(2) 0.0469(2)
H19 H 0.6953 0.0088 0.0702
H20 H 0.7498 -0.0480 -0.0039
loop_
_geom_bond_atom_site_label_1
_geom_bond_atom_site_label_2
_geom_bond_site_symmetry_1
_geom_bond_site_symmetry_2
Cd1 O1 1_555 1_555
O1 C1 1_555 1_555
C1 C2 1_555 1_555
O2 C2 1_555 1_555
C2 C3 1_555 1_555
C3 C4 1_555 1_555
C4 C5 1_555 1_555
C5 H1 1_555 1_555
C6 C5 1_555 1_555
H2 C6 1_555 1_555
C7 C6 1_555 1_555
H3 C7 1_555 1_555
C8 C7 1_555 1_555
H4 C8 1_555 1_555
C9 O2 1_555 1_555
O3 C1 1_555 1_555
C10 C3 1_555 1_555
O4 C10 1_555 1_555
H5 O4 1_555 1_555
O5 C10 1_555 1_555
O6 Cd1 1_555 1_555
H6 O6 1_555 1_555
H7 O6 1_555 1_555
O7 Cd1 1_555 1_555
H8 O7 1_555 1_555
H9 O7 1_555 1_555
O8 Cd1 1_555 1_555
H10 O8 1_555 1_555
H11 O8 1_555 1_555
O9 Cd1 1_555 1_555
H12 O9 1_555 1_555
H13 O9 1_555 1_555
O10 C11 1_555 1_555
C11 C12 1_555 1_555
C12 C13 1_555 1_555
C13 C14 1_555 1_555
C14 H14 1_555 1_555
C15 C14 1_555 1_555
H15 C15 1_555 1_555
C16 C15 1_555 1_555
H16 C16 1_555 1_555
C17 C16 1_555 1_555
H17 C17 1_555 1_555
C18 O10 1_555 1_555
C19 C11 1_555 1_555
O11 C19 1_555 1_555
O12 C19 1_555 1_555
C20 C12 1_555 1_555
O13 C20 1_555 1_555
H18 O13 1_555 1_555
O14 C20 1_555 1_555
O15 H19 1_555 1_555
H20 O15 1_555 1_555
Cd1A O5 1_555 1_555
O5A Cd1 1_555 1_555
C4 C9 1_555 1_555
C8 C9 1_555 1_555
C13 C18 1_555 1_555
C17 C18 1_555 1_555

#END
