
#######################################################################
#
#                 Cambridge Crystallographic Data Centre
#                                CCDC 
#
#######################################################################
#
# If this CIF has been generated from an entry in the Cambridge 
# Structural Database, then it will include bibliographic, chemical, 
# crystal, experimental, refinement or atomic coordinate data resulting 
# from the CCDC's data processing and validation procedures.
#
#######################################################################

data_TABFOT
_symmetry_cell_setting           tetragonal
_symmetry_space_group_name_H-M   'P 43 21 2'
_symmetry_Int_Tables_number      96
_space_group_name_Hall           'P 4nw 2abw'
loop_
_symmetry_equiv_pos_site_id
_symmetry_equiv_pos_as_xyz
1 x,y,z
2 -x,-y,1/2+z
3 1/2-y,1/2+x,3/4+z
4 1/2+y,1/2-x,1/4+z
5 1/2-x,1/2+y,3/4-z
6 1/2+x,1/2-y,1/4-z
7 y,x,-z
8 -y,-x,1/2-z
_cell_length_a                   10.7037(15)
_cell_length_b                   10.7037(15)
_cell_length_c                   15.839(3)
_cell_angle_alpha                90
_cell_angle_beta                 90
_cell_angle_gamma                90
_cell_volume                     1814.66
loop_
_atom_site_label
_atom_site_type_symbol
_atom_site_fract_x
_atom_site_fract_y
_atom_site_fract_z
Cd1 Cd 0.19140(2) 0.19140(2) 0.0000
O1 O -0.0037(2) 0.1564(3) -0.06554(16)
N1 N -0.1574(2) 0.2048(3) 0.02779(16)
H1 H -0.2369 0.2078 0.0352
N2 N -0.1307(3) 0.2725(3) 0.16927(18)
N3 N -0.0295(3) 0.2980(4) 0.21890(18)
N4 N 0.0708(3) 0.2828(3) 0.17493(18)
N5 N 0.0412(2) 0.2469(3) 0.09504(17)
C1 C -0.3253(4) 0.1834(5) -0.1181(2)
H2 H -0.3483 0.2448 -0.0796
C2 C -0.4065(4) 0.1485(6) -0.1820(3)
H3 H -0.4846 0.1862 -0.1858
C3 C -0.3733(5) 0.0597(5) -0.2391(3)
H4 H -0.4281 0.0377 -0.2822
C4 C -0.2608(5) 0.0036(5) -0.2335(3)
H5 H -0.2391 -0.0578 -0.2723
C5 C -0.1772(5) 0.0366(4) -0.1703(3)
H6 H -0.0993 -0.0017 -0.1671
C6 C -0.2107(3) 0.1268(3) -0.1122(2)
C7 C -0.1151(3) 0.1644(4) -0.0489(2)
C8 C -0.0821(3) 0.2414(3) 0.0945(2)
Cd1B Cd 0.30860(2) -0.30860(2) -0.2500
Cd1C Cd -0.30860(2) 0.30860(2) 0.2500
O1F O 0.1564(3) -0.0037(2) 0.06554(16)
N1F N 0.2048(3) -0.1574(2) -0.02779(16)
H1F H 0.2078 -0.2369 -0.0352
N2F N 0.2725(3) -0.1307(3) -0.16927(18)
N2B N 0.2275(3) 0.3693(3) -0.08073(18)
N2E N 0.3693(3) 0.2275(3) 0.08073(18)
N3F N 0.2980(4) -0.0295(3) -0.21890(18)
N4F N 0.2828(3) 0.0708(3) -0.17493(18)
N5F N 0.2469(3) 0.0412(2) -0.09504(17)
C1F C 0.1834(5) -0.3253(4) 0.1181(2)
H2F H 0.2448 -0.3483 0.0796
C2F C 0.1485(6) -0.4065(4) 0.1820(3)
H3F H 0.1862 -0.4846 0.1858
C3F C 0.0597(5) -0.3733(5) 0.2391(3)
H4F H 0.0377 -0.4281 0.2822
C4F C 0.0036(5) -0.2608(5) 0.2335(3)
H5F H -0.0578 -0.2391 0.2723
C5F C 0.0366(4) -0.1772(5) 0.1703(3)
H6F H -0.0017 -0.0993 0.1671
C6F C 0.1268(3) -0.2107(3) 0.1122(2)
C7F C 0.1644(4) -0.1151(3) 0.0489(2)
C8F C 0.2414(3) -0.0821(3) -0.0945(2)
loop_
_geom_bond_atom_site_label_1
_geom_bond_atom_site_label_2
_geom_bond_site_symmetry_1
_geom_bond_site_symmetry_2
Cd1 O1 1_555 1_555
O1 C7 1_555 1_555
N1 H1 1_555 1_555
N2 N3 1_555 1_555
N3 N4 1_555 1_555
N4 N5 1_555 1_555
N5 Cd1 1_555 1_555
C1 H2 1_555 1_555
C2 C1 1_555 1_555
H3 C2 1_555 1_555
C3 C2 1_555 1_555
H4 C3 1_555 1_555
C4 C3 1_555 1_555
H5 C4 1_555 1_555
C5 C4 1_555 1_555
H6 C5 1_555 1_555
C6 C1 1_555 1_555
C7 N1 1_555 1_555
C8 N1 1_555 1_555
Cd1B N2F 1_555 1_555
Cd1C N2 1_555 1_555
O1F Cd1 1_555 1_555
N1F H1F 1_555 1_555
N2F N3F 1_555 1_555
N2B Cd1 1_555 1_555
N2E Cd1 1_555 1_555
N3F N4F 1_555 1_555
N4F N5F 1_555 1_555
N5F Cd1 1_555 1_555
C1F H2F 1_555 1_555
C2F C1F 1_555 1_555
H3F C2F 1_555 1_555
C3F C2F 1_555 1_555
H4F C3F 1_555 1_555
C4F C3F 1_555 1_555
H5F C4F 1_555 1_555
C5F C4F 1_555 1_555
H6F C5F 1_555 1_555
C6F C1F 1_555 1_555
C7F O1F 1_555 1_555
C8F N1F 1_555 1_555
N2 C8 1_555 1_555
N5 C8 1_555 1_555
C5 C6 1_555 1_555
C6 C7 1_555 1_555
N1F C7F 1_555 1_555
N2F C8F 1_555 1_555
N5F C8F 1_555 1_555
C5F C6F 1_555 1_555
C6F C7F 1_555 1_555

#END
