
#######################################################################
#
#                 Cambridge Crystallographic Data Centre
#                                CCDC 
#
#######################################################################
#
# If this CIF has been generated from an entry in the Cambridge 
# Structural Database, then it will include bibliographic, chemical, 
# crystal, experimental, refinement or atomic coordinate data resulting 
# from the CCDC's data processing and validation procedures.
#
#######################################################################

data_TABFUZ
_symmetry_cell_setting           monoclinic
_symmetry_space_group_name_H-M   'P 21/c'
_symmetry_Int_Tables_number      14
_space_group_name_Hall           '-P 2ybc'
loop_
_symmetry_equiv_pos_site_id
_symmetry_equiv_pos_as_xyz
1 x,y,z
2 -x,1/2+y,1/2-z
3 -x,-y,-z
4 x,1/2-y,1/2+z
_cell_length_a                   7.3812(15)
_cell_length_b                   9.886(2)
_cell_length_c                   12.798(3)
_cell_angle_alpha                90
_cell_angle_beta                 106.76(3)
_cell_angle_gamma                90
_cell_volume                     894.207
loop_
_atom_site_label
_atom_site_type_symbol
_atom_site_fract_x
_atom_site_fract_y
_atom_site_fract_z
Ag1 Ag 0.04630(8) 0.15445(4) 0.10820(3)
O1 O 0.2695(6) 0.3561(4) 0.0934(3)
N1 N 0.1448(6) 0.4071(4) -0.0865(3)
H1 H 0.1177 0.4722 -0.1331
N2 N 0.0509(7) 0.2457(4) -0.2298(3)
N3 N 0.0042(8) 0.1130(4) -0.2347(3)
N4 N 0.0166(7) 0.0699(4) -0.1365(4)
N5 N 0.0710(7) 0.1727(4) -0.0634(3)
C1 C 0.3530(9) 0.6241(6) 0.1516(5)
H2 H 0.3388 0.5650 0.2052
C2 C 0.4229(10) 0.7527(7) 0.1804(6)
H3 H 0.4578 0.7793 0.2532
C3 C 0.4406(11) 0.8408(7) 0.1015(6)
H4 H 0.4861 0.9278 0.1203
C4 C 0.3905(10) 0.7999(7) -0.0064(6)
H5 H 0.4029 0.8599 -0.0599
C5 C 0.3223(9) 0.6710(6) -0.0357(5)
H6 H 0.2892 0.6445 -0.1084
C6 C 0.3033(8) 0.5818(5) 0.0432(4)
C7 C 0.2393(8) 0.4385(5) 0.0205(4)
C8 C 0.0908(7) 0.2770(5) -0.1235(4)
Ag1C Ag 0.04630(8) 0.34555(4) -0.39180(3)
Ag1B Ag -0.04630(8) -0.15445(4) -0.10820(3)
N2C N 0.0509(7) 0.2543(4) 0.2702(3)
N4B N -0.0166(7) -0.0699(4) 0.1365(4)
loop_
_geom_bond_atom_site_label_1
_geom_bond_atom_site_label_2
_geom_bond_site_symmetry_1
_geom_bond_site_symmetry_2
Ag1 O1 1_555 1_555
O1 C7 1_555 1_555
N1 H1 1_555 1_555
N2 N3 1_555 1_555
N3 N4 1_555 1_555
N4 N5 1_555 1_555
N5 Ag1 1_555 1_555
C1 H2 1_555 1_555
C2 C1 1_555 1_555
H3 C2 1_555 1_555
C3 C2 1_555 1_555
H4 C3 1_555 1_555
C4 C3 1_555 1_555
H5 C4 1_555 1_555
C5 C4 1_555 1_555
H6 C5 1_555 1_555
C6 C1 1_555 1_555
C7 N1 1_555 1_555
C8 N1 1_555 1_555
Ag1C N2 1_555 1_555
Ag1B N4 1_555 1_555
N2C Ag1 1_555 1_555
N4B Ag1 1_555 1_555
N2 C8 1_555 1_555
N5 C8 1_555 1_555
C5 C6 1_555 1_555
C6 C7 1_555 1_555

#END
