
#######################################################################
#
#                 Cambridge Crystallographic Data Centre
#                                CCDC 
#
#######################################################################
#
# If this CIF has been generated from an entry in the Cambridge 
# Structural Database, then it will include bibliographic, chemical, 
# crystal, experimental, refinement or atomic coordinate data resulting 
# from the CCDC's data processing and validation procedures.
#
#######################################################################

data_TABFIN
_symmetry_cell_setting           triclinic
_symmetry_space_group_name_H-M   'P -1'
_symmetry_Int_Tables_number      2
_space_group_name_Hall           '-P 1'
loop_
_symmetry_equiv_pos_site_id
_symmetry_equiv_pos_as_xyz
1 x,y,z
2 -x,-y,-z
_cell_length_a                   7.9192(2)
_cell_length_b                   9.8162(2)
_cell_length_c                   12.2465(4)
_cell_angle_alpha                71.9123(15)
_cell_angle_beta                 76.5751(12)
_cell_angle_gamma                79.4170(14)
_cell_volume                     873.793
loop_
_atom_site_label
_atom_site_type_symbol
_atom_site_fract_x
_atom_site_fract_y
_atom_site_fract_z
Ag1 Ag 0.39374(3) 0.86363(2) 0.036758(17)
O1 O 0.1769(2) 0.9788(2) 0.56327(15)
C1 C 0.2416(3) 0.9117(3) 0.4761(2)
C2 C 0.3513(3) 0.9922(3) 0.3856(2)
C3 C 0.3598(3) 1.1201(3) 0.4183(2)
C4 C 0.4491(4) 1.2427(3) 0.3683(2)
H1 H 0.5266 1.2550 0.2950
C5 C 0.4210(4) 1.3443(3) 0.4290(3)
H2 H 0.4809 1.4275 0.3967
C6 C 0.3065(4) 1.3284(3) 0.5369(2)
H3 H 0.2886 1.4020 0.5752
C7 C 0.2185(4) 1.2075(3) 0.5893(2)
H4 H 0.1416 1.1950 0.6629
C8 C 0.2502(3) 1.1061(3) 0.5269(2)
C9 C 0.1818(4) 0.7668(3) 0.5028(2)
O2 O 0.2289(3) 0.7049(2) 0.41962(17)
O3 O 0.0949(3) 0.7154(2) 0.59899(17)
C10 C 0.4464(4) 0.9624(3) 0.2735(2)
O4 O 0.4271(3) 0.8421(2) 0.25610(16)
H5 H 0.3665 0.7928 0.3161
O5 O 0.5364(3) 1.0512(2) 0.20139(16)
N1 N 0.5778(3) 0.6705(2) 0.04089(19)
C11 C 0.6277(3) 0.5852(3) 0.1401(2)
H6 H 0.5826 0.6126 0.2102
C12 C 0.7420(3) 0.4589(3) 0.1450(2)
H7 H 0.7746 0.4025 0.2171
C13 C 0.8088(3) 0.4152(3) 0.0437(2)
C14 C 0.7575(3) 0.5050(3) -0.0601(2)
H8 H 0.7999 0.4804 -0.1316
C15 C 0.6443(3) 0.6301(3) -0.0572(2)
H9 H 0.6121 0.6904 -0.1283
C16 C 0.9333(3) 0.2811(3) 0.0439(2)
C17 C 0.9683(3) 0.1814(3) 0.1483(2)
H10 H 0.9076 0.1951 0.2214
C18 C 1.0919(3) 0.0628(3) 0.1443(2)
H11 H 1.1135 -0.0042 0.2159
N2 N 1.1834(3) 0.0376(2) 0.04329(19)
C19 C 1.0228(3) 0.2516(3) -0.0602(2)
H12 H 0.9990 0.3138 -0.1331
C20 C 1.1462(3) 0.1316(3) -0.0571(2)
H13 H 1.2075 0.1147 -0.1291
Ag1A Ag 0.60626(3) 1.13637(2) -0.036758(17)
Ag1_2 Ag 1.39374(3) -0.13637(2) 0.036758(17)
O5A O 0.4636(3) 0.9488(2) -0.20139(16)
N2_2 N 0.1834(3) 1.0376(2) 0.04329(19)
O6 O 0.9361(3) 1.4560(2) -0.31400(17)
H14 H 0.9729 1.5421 -0.3569
H15 H 0.8784 1.4339 -0.3659
loop_
_geom_bond_atom_site_label_1
_geom_bond_atom_site_label_2
_geom_bond_site_symmetry_1
_geom_bond_site_symmetry_2
Ag1 O4 1_555 1_555
O1 C1 1_555 1_555
C1 C2 1_555 1_555
C2 C3 1_555 1_555
C3 C4 1_555 1_555
C4 H1 1_555 1_555
C5 C4 1_555 1_555
H2 C5 1_555 1_555
C6 C5 1_555 1_555
H3 C6 1_555 1_555
C7 C6 1_555 1_555
H4 C7 1_555 1_555
C8 O1 1_555 1_555
C9 C1 1_555 1_555
O2 C9 1_555 1_555
O3 C9 1_555 1_555
C10 C2 1_555 1_555
O4 C10 1_555 1_555
H5 O4 1_555 1_555
O5 C10 1_555 1_555
N1 Ag1 1_555 1_555
C11 N1 1_555 1_555
H6 C11 1_555 1_555
C12 C11 1_555 1_555
H7 C12 1_555 1_555
C13 C12 1_555 1_555
C14 C13 1_555 1_555
H8 C14 1_555 1_555
C15 N1 1_555 1_555
H9 C15 1_555 1_555
C16 C13 1_555 1_555
C17 C16 1_555 1_555
H10 C17 1_555 1_555
C18 C17 1_555 1_555
H11 C18 1_555 1_555
N2 C18 1_555 1_555
C19 C16 1_555 1_555
H12 C19 1_555 1_555
C20 N2 1_555 1_555
H13 C20 1_555 1_555
O6 H14 1_555 1_555
H15 O6 1_555 1_555
Ag1A O5 1_555 1_555
Ag1_2 N2 1_555 1_555
O5A Ag1 1_555 1_555
N2_2 Ag1 1_555 1_555
C3 C8 1_555 1_555
C7 C8 1_555 1_555
C14 C15 1_555 1_555
C19 C20 1_555 1_555

#END
