
#######################################################################
#
#                 Cambridge Crystallographic Data Centre
#                                CCDC 
#
#######################################################################
#
# If this CIF has been generated from an entry in the Cambridge 
# Structural Database, then it will include bibliographic, chemical, 
# crystal, experimental, refinement or atomic coordinate data resulting 
# from the CCDC's data processing and validation procedures.
#
#######################################################################

data_TABGAG
_symmetry_cell_setting           orthorhombic
_symmetry_space_group_name_H-M   'P b c a'
_symmetry_Int_Tables_number      61
_space_group_name_Hall           '-P 2ac 2ab'
loop_
_symmetry_equiv_pos_site_id
_symmetry_equiv_pos_as_xyz
1 x,y,z
2 1/2-x,-y,1/2+z
3 -x,1/2+y,1/2-z
4 1/2+x,1/2-y,-z
5 -x,-y,-z
6 1/2+x,y,1/2-z
7 x,1/2-y,1/2+z
8 1/2-x,1/2+y,z
_cell_length_a                   9.6804(19)
_cell_length_b                   8.6933(17)
_cell_length_c                   19.830(4)
_cell_angle_alpha                90
_cell_angle_beta                 90
_cell_angle_gamma                90
_cell_volume                     1668.79
loop_
_atom_site_label
_atom_site_type_symbol
_atom_site_fract_x
_atom_site_fract_y
_atom_site_fract_z
Mn1 Mn 1.0000 0.0000 0.5000
O1 O 0.8808(2) 0.0229(3) 0.59404(11)
N1 N 0.6835(2) 0.1378(3) 0.55581(12)
H1 H 0.5957 0.1452 0.5616
N2 N 0.8657(2) 0.1927(3) 0.47667(12)
N3 N 0.8808(3) 0.3011(3) 0.42782(13)
N4 N 0.7711(3) 0.3860(3) 0.42507(13)
N5 N 0.6784(2) 0.3368(3) 0.47247(13)
C1 C 0.5556(3) -0.1100(4) 0.63927(17)
H2 H 0.5229 -0.1150 0.5952
C2 C 0.4874(4) -0.1871(4) 0.69053(19)
H3 H 0.4107 -0.2474 0.6806
C3 C 0.5329(4) -0.1748(4) 0.75608(19)
H4 H 0.4865 -0.2264 0.7904
C4 C 0.6470(4) -0.0864(4) 0.77105(18)
H5 H 0.6755 -0.0756 0.8156
C5 C 0.7190(3) -0.0135(4) 0.72002(16)
H6 H 0.7979 0.0432 0.7299
C6 C 0.6729(3) -0.0254(3) 0.65419(15)
C7 C 0.7553(3) 0.0470(3) 0.59932(14)
C8 C 0.7414(3) 0.2195(3) 0.50270(14)
Mn1C Mn 0.5000 0.5000 0.5000
Mn1C_2 Mn 1.5000 -0.5000 0.5000
O1D O 1.1192(2) -0.0229(3) 0.40596(11)
N1D N 1.3165(2) -0.1378(3) 0.44419(12)
H1D H 1.4043 -0.1452 0.4384
N2D N 1.1343(2) -0.1927(3) 0.52333(12)
N3D N 1.1192(3) -0.3011(3) 0.57218(13)
N4D N 1.2289(3) -0.3860(3) 0.57493(13)
N5D N 1.3216(2) -0.3368(3) 0.52753(13)
N5C N 1.1784(2) 0.1632(3) 0.52753(13)
N5G N 0.8216(2) -0.1632(3) 0.47247(13)
C1D C 1.4444(3) 0.1100(4) 0.36073(17)
H2D H 1.4771 0.1150 0.4048
C2D C 1.5126(4) 0.1871(4) 0.30947(19)
H3D H 1.5893 0.2474 0.3194
C3D C 1.4671(4) 0.1748(4) 0.24392(19)
H4D H 1.5135 0.2264 0.2096
C4D C 1.3530(4) 0.0864(4) 0.22895(18)
H5D H 1.3245 0.0756 0.1844
C5D C 1.2810(3) 0.0135(4) 0.27998(16)
H6D H 1.2021 -0.0432 0.2701
C6D C 1.3271(3) 0.0254(3) 0.34581(15)
C7D C 1.2447(3) -0.0470(3) 0.40068(14)
C8D C 1.2586(3) -0.2195(3) 0.49730(14)
loop_
_geom_bond_atom_site_label_1
_geom_bond_atom_site_label_2
_geom_bond_site_symmetry_1
_geom_bond_site_symmetry_2
Mn1 O1 1_555 1_555
O1 C7 1_555 1_555
N1 H1 1_555 1_555
N2 Mn1 1_555 1_555
N3 N2 1_555 1_555
N4 N3 1_555 1_555
N5 N4 1_555 1_555
C1 H2 1_555 1_555
C2 C1 1_555 1_555
H3 C2 1_555 1_555
C3 C2 1_555 1_555
H4 C3 1_555 1_555
C4 C3 1_555 1_555
H5 C4 1_555 1_555
C5 C4 1_555 1_555
H6 C5 1_555 1_555
C6 C1 1_555 1_555
C7 N1 1_555 1_555
C8 N1 1_555 1_555
Mn1C N5 1_555 1_555
Mn1C_2 N5D 1_555 1_555
O1D Mn1 1_555 1_555
N1D H1D 1_555 1_555
N2D Mn1 1_555 1_555
N3D N2D 1_555 1_555
N4D N3D 1_555 1_555
N5D N4D 1_555 1_555
N5C Mn1 1_555 1_555
N5G Mn1 1_555 1_555
C1D H2D 1_555 1_555
C2D C1D 1_555 1_555
H3D C2D 1_555 1_555
C3D C2D 1_555 1_555
H4D C3D 1_555 1_555
C4D C3D 1_555 1_555
H5D C4D 1_555 1_555
C5D C4D 1_555 1_555
H6D C5D 1_555 1_555
C6D C1D 1_555 1_555
C7D O1D 1_555 1_555
C8D N1D 1_555 1_555
N2 C8 1_555 1_555
N5 C8 1_555 1_555
C5 C6 1_555 1_555
C6 C7 1_555 1_555
N1D C7D 1_555 1_555
N2D C8D 1_555 1_555
N5D C8D 1_555 1_555
C5D C6D 1_555 1_555
C6D C7D 1_555 1_555

#END
