
#######################################################################
#
#                 Cambridge Crystallographic Data Centre
#                                CCDC 
#
#######################################################################
#
# If this CIF has been generated from an entry in the Cambridge 
# Structural Database, then it will include bibliographic, chemical, 
# crystal, experimental, refinement or atomic coordinate data resulting 
# from the CCDC's data processing and validation procedures.
#
#######################################################################

data_TABGEK
_symmetry_cell_setting           orthorhombic
_symmetry_space_group_name_H-M   'P b c a'
_symmetry_Int_Tables_number      61
_space_group_name_Hall           '-P 2ac 2ab'
loop_
_symmetry_equiv_pos_site_id
_symmetry_equiv_pos_as_xyz
1 x,y,z
2 1/2-x,-y,1/2+z
3 -x,1/2+y,1/2-z
4 1/2+x,1/2-y,-z
5 -x,-y,-z
6 1/2+x,y,1/2-z
7 x,1/2-y,1/2+z
8 1/2-x,1/2+y,z
_cell_length_a                   9.5801(19)
_cell_length_b                   8.4014(17)
_cell_length_c                   20.163(4)
_cell_angle_alpha                90
_cell_angle_beta                 90
_cell_angle_gamma                90
_cell_volume                     1622.84
loop_
_atom_site_label
_atom_site_type_symbol
_atom_site_fract_x
_atom_site_fract_y
_atom_site_fract_z
Cu1 Cu 1.0000 0.0000 0.5000
O1 O 0.8887(3) -0.0023(4) 0.58949(16)
N1 N 0.6919(4) 0.1222(5) 0.55321(19)
H1 H 0.6036 0.1325 0.5596
N2 N 0.8772(4) 0.1749(5) 0.47611(19)
N3 N 0.8956(4) 0.2842(5) 0.4270(2)
N4 N 0.7841(4) 0.3706(5) 0.4226(2)
N5 N 0.6875(4) 0.3215(5) 0.4683(2)
C1 C 0.5589(5) -0.1239(7) 0.6392(3)
H2 H 0.5250 -0.1327 0.5961
C2 C 0.4893(6) -0.1955(7) 0.6910(3)
H3 H 0.4098 -0.2558 0.6827
C3 C 0.5372(6) -0.1779(7) 0.7550(3)
H4 H 0.4902 -0.2273 0.7897
C4 C 0.6541(6) -0.0878(7) 0.7681(3)
H5 H 0.6834 -0.0726 0.8116
C5 C 0.7280(5) -0.0201(6) 0.7163(2)
H6 H 0.8092 0.0373 0.7246
C6 C 0.6802(5) -0.0384(6) 0.6518(2)
C7 C 0.7636(5) 0.0293(6) 0.5958(2)
C8 C 0.7500(5) 0.2023(5) 0.4999(2)
Cu1C Cu 0.5000 0.5000 0.5000
Cu1C_2 Cu 1.5000 -0.5000 0.5000
O1D O 1.1113(3) 0.0023(4) 0.41051(16)
N1D N 1.3081(4) -0.1222(5) 0.44679(19)
H1D H 1.3964 -0.1325 0.4404
N2D N 1.1228(4) -0.1749(5) 0.52389(19)
N3D N 1.1044(4) -0.2842(5) 0.5730(2)
N4D N 1.2159(4) -0.3706(5) 0.5774(2)
N5D N 1.3125(4) -0.3215(5) 0.5317(2)
N5C N 1.1875(4) 0.1785(5) 0.5317(2)
N5G N 0.8125(4) -0.1785(5) 0.4683(2)
C1D C 1.4411(5) 0.1239(7) 0.3608(3)
H2D H 1.4750 0.1327 0.4039
C2D C 1.5107(6) 0.1955(7) 0.3090(3)
H3D H 1.5902 0.2558 0.3173
C3D C 1.4628(6) 0.1779(7) 0.2450(3)
H4D H 1.5098 0.2273 0.2103
C4D C 1.3459(6) 0.0878(7) 0.2319(3)
H5D H 1.3166 0.0726 0.1884
C5D C 1.2720(5) 0.0201(6) 0.2837(2)
H6D H 1.1908 -0.0373 0.2754
C6D C 1.3198(5) 0.0384(6) 0.3482(2)
C7D C 1.2364(5) -0.0293(6) 0.4042(2)
C8D C 1.2500(5) -0.2023(5) 0.5001(2)
loop_
_geom_bond_atom_site_label_1
_geom_bond_atom_site_label_2
_geom_bond_site_symmetry_1
_geom_bond_site_symmetry_2
Cu1 O1 1_555 1_555
O1 C7 1_555 1_555
N1 H1 1_555 1_555
N2 Cu1 1_555 1_555
N3 N2 1_555 1_555
N4 N3 1_555 1_555
N5 N4 1_555 1_555
C1 H2 1_555 1_555
C2 C1 1_555 1_555
H3 C2 1_555 1_555
C3 C2 1_555 1_555
H4 C3 1_555 1_555
C4 C3 1_555 1_555
H5 C4 1_555 1_555
C5 C4 1_555 1_555
H6 C5 1_555 1_555
C6 C1 1_555 1_555
C7 N1 1_555 1_555
C8 N1 1_555 1_555
Cu1C N5 1_555 1_555
Cu1C_2 N5D 1_555 1_555
O1D Cu1 1_555 1_555
N1D H1D 1_555 1_555
N2D Cu1 1_555 1_555
N3D N2D 1_555 1_555
N4D N3D 1_555 1_555
N5D N4D 1_555 1_555
N5C Cu1 1_555 1_555
N5G Cu1 1_555 1_555
C1D H2D 1_555 1_555
C2D C1D 1_555 1_555
H3D C2D 1_555 1_555
C3D C2D 1_555 1_555
H4D C3D 1_555 1_555
C4D C3D 1_555 1_555
H5D C4D 1_555 1_555
C5D C4D 1_555 1_555
H6D C5D 1_555 1_555
C6D C1D 1_555 1_555
C7D O1D 1_555 1_555
C8D N1D 1_555 1_555
N2 C8 1_555 1_555
N5 C8 1_555 1_555
C5 C6 1_555 1_555
C6 C7 1_555 1_555
N1D C7D 1_555 1_555
N2D C8D 1_555 1_555
N5D C8D 1_555 1_555
C5D C6D 1_555 1_555
C6D C7D 1_555 1_555

#END
