
#######################################################################
#
#                 Cambridge Crystallographic Data Centre
#                                CCDC 
#
#######################################################################
#
# If this CIF has been generated from an entry in the Cambridge 
# Structural Database, then it will include bibliographic, chemical, 
# crystal, experimental, refinement or atomic coordinate data resulting 
# from the CCDC's data processing and validation procedures.
#
#######################################################################

data_TABHIP
_symmetry_cell_setting           monoclinic
_symmetry_space_group_name_H-M   'P 21/n'
_symmetry_Int_Tables_number      14
_space_group_name_Hall           '-P 2yn'
loop_
_symmetry_equiv_pos_site_id
_symmetry_equiv_pos_as_xyz
1 x,y,z
2 1/2-x,1/2+y,1/2-z
3 -x,-y,-z
4 1/2+x,1/2-y,1/2+z
_cell_length_a                   4.342(1)
_cell_length_b                   7.978(1)
_cell_length_c                   18.689(1)
_cell_angle_alpha                90
_cell_angle_beta                 90.009(1)
_cell_angle_gamma                90
_cell_volume                     647.396
loop_
_atom_site_label
_atom_site_type_symbol
_atom_site_fract_x
_atom_site_fract_y
_atom_site_fract_z
Sm1 Sm 0.0000 0.0000 0.0000
O1 O 0.0029(8) 0.2069(4) -0.10413(16)
C1 C -0.0091(13) 0.3877(6) -0.0995(3)
H1 H 0.1599 0.4297 -0.0688
H2 H -0.2077 0.4239 -0.0786
C2 C 0.0238(19) 0.4542(7) -0.1736(3)
H3 H -0.1346 0.5405 -0.1833
H4 H 0.2300 0.5047 -0.1804
C3 C 0.0280(17) 0.1580(6) -0.1775(3)
H5 H -0.1300 0.0727 -0.1891
H6 H 0.2337 0.1092 -0.1867
C4 C -0.0176(14) 0.3080(6) -0.2217(3)
H7 H -0.2269 0.3084 -0.2427
H8 H 0.1349 0.3112 -0.2610
B1 B -0.5000(12) 0.1876(7) 0.0685(3)
H9 H -0.517(10) 0.195(8) 0.016(3)
H10 H -0.341(12) 0.245(6) 0.086(3)
H11 H -0.492(13) 0.054(7) 0.082(3)
H12 H -0.681(12) 0.235(6) 0.086(3)
Sm1_2 Sm -1.0000 0.0000 0.0000
Sm1_3 Sm 1.0000 0.0000 0.0000
O1B O -0.0029(8) -0.2069(4) 0.10413(16)
C1B C 0.0091(13) -0.3877(6) 0.0995(3)
H1B H -0.1599 -0.4297 0.0688
H2B H 0.2077 -0.4239 0.0786
C2B C -0.0238(19) -0.4542(7) 0.1736(3)
H3B H 0.1346 -0.5405 0.1833
H4B H -0.2300 -0.5047 0.1804
C3B C -0.0280(17) -0.1580(6) 0.1775(3)
H5B H 0.1300 -0.0727 0.1891
H6B H -0.2337 -0.1092 0.1867
C4B C 0.0176(14) -0.3080(6) 0.2217(3)
H7B H 0.2269 -0.3084 0.2427
H8B H -0.1349 -0.3112 0.2610
B1_2 B 0.5000(12) 0.1876(7) 0.0685(3)
B1B B -0.5000(12) -0.1876(7) -0.0685(3)
B1B_2 B 0.5000(12) -0.1876(7) -0.0685(3)
H9_2 H 0.483(10) 0.195(8) 0.016(3)
H9B H -0.483(10) -0.195(8) -0.016(3)
H9B_2 H 0.517(10) -0.195(8) -0.016(3)
H10_2 H 0.659(12) 0.245(6) 0.086(3)
H10B H 0.341(12) -0.245(6) -0.086(3)
H10B_2 H -0.659(12) -0.245(6) -0.086(3)
H11_2 H 0.508(13) 0.054(7) 0.082(3)
H11B H -0.508(13) -0.054(7) -0.082(3)
H11B_2 H 0.492(13) -0.054(7) -0.082(3)
H12_2 H 0.319(12) 0.235(6) 0.086(3)
H12B H -0.319(12) -0.235(6) -0.086(3)
H12B_2 H 0.681(12) -0.235(6) -0.086(3)
loop_
_geom_bond_atom_site_label_1
_geom_bond_atom_site_label_2
_geom_bond_site_symmetry_1
_geom_bond_site_symmetry_2
Sm1 O1 1_555 1_555
O1 C1 1_555 1_555
C1 H1 1_555 1_555
H2 C1 1_555 1_555
C2 C1 1_555 1_555
H3 C2 1_555 1_555
H4 C2 1_555 1_555
C3 O1 1_555 1_555
H5 C3 1_555 1_555
H6 C3 1_555 1_555
C4 C2 1_555 1_555
H7 C4 1_555 1_555
H8 C4 1_555 1_555
B1 H9 1_555 1_555
H9 Sm1 1_555 1_555
H10 Sm1 1_555 1_555
H11 Sm1 1_555 1_555
H12 B1 1_555 1_555
Sm1_2 H9 1_555 1_555
Sm1_3 H9_2 1_555 1_555
O1B Sm1 1_555 1_555
C1B O1B 1_555 1_555
H1B C1B 1_555 1_555
H2B C1B 1_555 1_555
C2B C1B 1_555 1_555
H3B C2B 1_555 1_555
H4B C2B 1_555 1_555
C3B O1B 1_555 1_555
H5B C3B 1_555 1_555
H6B C3B 1_555 1_555
C4B C2B 1_555 1_555
H7B C4B 1_555 1_555
H8B C4B 1_555 1_555
B1_2 H9_2 1_555 1_555
B1B H9B 1_555 1_555
B1B_2 H9B_2 1_555 1_555
H9_2 Sm1 1_555 1_555
H9B Sm1 1_555 1_555
H9B_2 Sm1 1_555 1_555
H10_2 Sm1_3 1_555 1_555
H10B Sm1 1_555 1_555
H10B_2 Sm1_2 1_555 1_555
H11_2 Sm1 1_555 1_555
H11B Sm1 1_555 1_555
H11B_2 Sm1 1_555 1_555
H12_2 Sm1 1_555 1_555
H12B Sm1 1_555 1_555
H12B_2 Sm1_3 1_555 1_555
C3 C4 1_555 1_555
B1 H10 1_555 1_555
B1 H11 1_555 1_555
H11 Sm1_2 1_555 1_555
H12 Sm1_2 1_555 1_555
Sm1_2 H9B 1_555 1_555
Sm1_2 H11B 1_555 1_555
Sm1_3 H9B_2 1_555 1_555
Sm1_3 H11_2 1_555 1_555
Sm1_3 H11B_2 1_555 1_555
C3B C4B 1_555 1_555
B1_2 H10_2 1_555 1_555
B1_2 H11_2 1_555 1_555
B1_2 H12_2 1_555 1_555
B1B H10B_2 1_555 1_555
B1B H11B 1_555 1_555
B1B H12B 1_555 1_555
B1B_2 H10B 1_555 1_555
B1B_2 H11B_2 1_555 1_555
B1B_2 H12B_2 1_555 1_555

#END
