
#######################################################################
#
#                 Cambridge Crystallographic Data Centre
#                                CCDC 
#
#######################################################################
#
# If this CIF has been generated from an entry in the Cambridge 
# Structural Database, then it will include bibliographic, chemical, 
# crystal, experimental, refinement or atomic coordinate data resulting 
# from the CCDC's data processing and validation procedures.
#
#######################################################################

data_TABMEQ
_symmetry_cell_setting           monoclinic
_symmetry_space_group_name_H-M   'P 21/c'
_symmetry_Int_Tables_number      14
_space_group_name_Hall           '-P 2ybc'
loop_
_symmetry_equiv_pos_site_id
_symmetry_equiv_pos_as_xyz
1 x,y,z
2 -x,1/2+y,1/2-z
3 -x,-y,-z
4 x,1/2-y,1/2+z
_cell_length_a                   7.736(2)
_cell_length_b                   14.158(4)
_cell_length_c                   19.267(6)
_cell_angle_alpha                90
_cell_angle_beta                 106.564(6)
_cell_angle_gamma                90
_cell_volume                     2022.67
loop_
_atom_site_label
_atom_site_type_symbol
_atom_site_fract_x
_atom_site_fract_y
_atom_site_fract_z
Cu1 Cu 0.19107(9) 0.02958(5) 0.24478(4)
N1 N 0.1153(6) -0.0605(3) 0.3156(2)
H1 H -0.0060 -0.0533 0.3064
N2 N 0.1582(6) -0.0874(3) 0.1871(3)
N3 N 0.1489(6) -0.2434(3) 0.1843(3)
H2 H 0.1450 -0.3008 0.1985
N4 N 0.2470(6) 0.1133(3) 0.3295(3)
N5 N 0.2634(6) 0.1350(3) 0.4448(3)
H3 H 0.2600 0.1225 0.4881
N6 N 0.3351(7) 0.0962(3) 0.1903(3)
N7 N 0.5911(7) 0.1352(4) 0.1454(3)
N8 N 0.9105(7) 0.0948(3) 0.1974(3)
C1 C 0.1436(7) -0.1608(4) 0.2997(3)
H4 H 0.2563 -0.1837 0.3319
H5 H 0.0460 -0.1994 0.3063
C2 C 0.1486(7) -0.1651(4) 0.2241(3)
C3 C 0.1616(7) -0.1168(4) 0.1181(3)
C4 C 0.1655(8) -0.0658(4) 0.0580(3)
H6 H 0.1712 -0.0002 0.0591
C5 C 0.1609(9) -0.1150(5) -0.0034(4)
H7 H 0.1608 -0.0820 -0.0451
C6 C 0.1563(9) -0.2145(5) -0.0051(4)
H8 H 0.1542 -0.2460 -0.0477
C7 C 0.1548(8) -0.2651(5) 0.0547(4)
H9 H 0.1529 -0.3307 0.0539
C8 C 0.1563(8) -0.2154(4) 0.1169(4)
C9 C 0.1946(7) -0.0294(4) 0.3917(3)
H10 H 0.3043 -0.0643 0.4139
H11 H 0.1102 -0.0402 0.4197
C10 C 0.2349(7) 0.0740(4) 0.3896(3)
C11 C 0.2922(7) 0.2077(4) 0.3473(3)
C12 C 0.3225(7) 0.2818(4) 0.3057(3)
H12 H 0.3168 0.2731 0.2573
C13 C 0.3615(8) 0.3688(4) 0.3380(4)
H13 H 0.3846 0.4195 0.3113
C14 C 0.3671(9) 0.3822(5) 0.4104(4)
H14 H 0.3922 0.4420 0.4306
C15 C 0.3364(8) 0.3092(5) 0.4527(4)
H15 H 0.3402 0.3182 0.5009
C16 C 0.2994(8) 0.2215(4) 0.4195(4)
C17 C 0.4602(10) 0.1116(4) 0.1726(3)
C18 C 0.7589(9) 0.1099(4) 0.1762(3)
Cu1_2 Cu 1.19107(9) 0.02958(5) 0.24478(4)
N8_2 N -0.0895(7) 0.0948(3) 0.1974(3)
Cl1 Cl 0.6856(2) -0.03726(13) 0.36976(10)
O1 O 0.5202(6) -0.0703(3) 0.3206(2)
O2 O 0.8018(6) -0.1149(3) 0.3960(3)
O3 O 0.6454(6) 0.0084(3) 0.4297(2)
O4 O 0.7717(5) 0.0279(3) 0.3335(2)
loop_
_geom_bond_atom_site_label_1
_geom_bond_atom_site_label_2
_geom_bond_site_symmetry_1
_geom_bond_site_symmetry_2
Cu1 N1 1_555 1_555
Cl1 O1 1_555 1_555
O2 Cl1 1_555 1_555
O3 Cl1 1_555 1_555
O4 Cl1 1_555 1_555
N1 H1 1_555 1_555
N2 Cu1 1_555 1_555
N3 H2 1_555 1_555
N4 Cu1 1_555 1_555
N5 H3 1_555 1_555
N6 Cu1 1_555 1_555
N7 C17 1_555 1_555
N8 C18 1_555 1_555
C1 N1 1_555 1_555
H4 C1 1_555 1_555
H5 C1 1_555 1_555
C2 N2 1_555 1_555
C3 N2 1_555 1_555
C4 C3 1_555 1_555
H6 C4 1_555 1_555
C5 C4 1_555 1_555
H7 C5 1_555 1_555
C6 C5 1_555 1_555
H8 C6 1_555 1_555
C7 C6 1_555 1_555
H9 C7 1_555 1_555
C8 N3 1_555 1_555
C9 N1 1_555 1_555
H10 C9 1_555 1_555
H11 C9 1_555 1_555
C10 N4 1_555 1_555
C11 N4 1_555 1_555
C12 C11 1_555 1_555
H12 C12 1_555 1_555
C13 C12 1_555 1_555
H13 C13 1_555 1_555
C14 C13 1_555 1_555
H14 C14 1_555 1_555
C15 C14 1_555 1_555
H15 C15 1_555 1_555
C16 N5 1_555 1_555
C17 N6 1_555 1_555
C18 N7 1_555 1_555
Cu1_2 N8 1_555 1_555
N8_2 Cu1 1_555 1_555
N3 C2 1_555 1_555
N5 C10 1_555 1_555
C1 C2 1_555 1_555
C3 C8 1_555 1_555
C7 C8 1_555 1_555
C9 C10 1_555 1_555
C11 C16 1_555 1_555
C15 C16 1_555 1_555

#END
