
#######################################################################
#
#                 Cambridge Crystallographic Data Centre
#                                CCDC 
#
#######################################################################
#
# If this CIF has been generated from an entry in the Cambridge 
# Structural Database, then it will include bibliographic, chemical, 
# crystal, experimental, refinement or atomic coordinate data resulting 
# from the CCDC's data processing and validation procedures.
#
#######################################################################

data_TABNUG
_symmetry_cell_setting           orthorhombic
_symmetry_space_group_name_H-M   'P b c m'
_symmetry_Int_Tables_number      57
_space_group_name_Hall           '-P 2c 2b'
loop_
_symmetry_equiv_pos_site_id
_symmetry_equiv_pos_as_xyz
1 x,y,z
2 x,y,1/2-z
3 -x,1/2+y,z
4 x,1/2-y,1/2+z
5 -x,-y,-z
6 -x,-y,1/2+z
7 x,1/2-y,-z
8 -x,1/2+y,1/2-z
_cell_length_a                   5.961(1)
_cell_length_b                   17.493(3)
_cell_length_c                   8.049(2)
_cell_angle_alpha                90
_cell_angle_beta                 90
_cell_angle_gamma                90
_cell_volume                     839.316
loop_
_atom_site_label
_atom_site_type_symbol
_atom_site_fract_x
_atom_site_fract_y
_atom_site_fract_z
Ag1 Ag 0.3922(2) 0.14900(7) 0.7500
C1 C -0.212(3) 0.3186(8) 0.7500
C2 C -0.024(3) 0.2778(9) 0.7500
C3 C -0.3136(19) 0.3418(5) 0.9009(13)
N1 N 0.143(2) 0.2435(10) 0.7500
N2 N -0.3993(15) 0.3602(5) 1.0219(13)
C4 C -0.028(3) 0.0100(9) 0.7500
C5 C -0.223(3) -0.0285(9) 0.7500
H1 H -0.3452 0.0071 0.7500
H2 H -0.2311 -0.0600 0.8474
H3 H -0.2311 -0.0600 0.6526
N3 N 0.138(3) 0.0430(10) 0.7500
C3A C -0.3136(19) 0.3418(5) 0.5991(13)
N2A N -0.3993(15) 0.3602(5) 0.4781(13)
N2C N 0.6007(15) 0.1398(5) 0.5219(13)
N2F N 0.6007(15) 0.1398(5) 0.9781(13)
Ag1C Ag -0.6078(2) 0.35100(7) 1.2500
Ag1C_2 Ag -0.6078(2) 0.35100(7) 0.2500
loop_
_geom_bond_atom_site_label_1
_geom_bond_atom_site_label_2
_geom_bond_site_symmetry_1
_geom_bond_site_symmetry_2
Ag1 N1 1_555 1_555
C1 C2 1_555 1_555
C2 N1 1_555 1_555
C3 C1 1_555 1_555
N2 C3 1_555 1_555
C4 C5 1_555 1_555
C5 H1 1_555 1_555
H2 C5 1_555 1_555
H3 C5 1_555 1_555
N3 Ag1 1_555 1_555
C3A C1 1_555 1_555
N2A C3A 1_555 1_555
N2C Ag1 1_555 1_555
N2F Ag1 1_555 1_555
Ag1C N2 1_555 1_555
Ag1C_2 N2A 1_555 1_555
C4 N3 1_555 1_555

#END
