
#######################################################################
#
#                 Cambridge Crystallographic Data Centre
#                                CCDC 
#
#######################################################################
#
# If this CIF has been generated from an entry in the Cambridge 
# Structural Database, then it will include bibliographic, chemical, 
# crystal, experimental, refinement or atomic coordinate data resulting 
# from the CCDC's data processing and validation procedures.
#
#######################################################################

data_TABNIU
_symmetry_cell_setting           monoclinic
_symmetry_space_group_name_H-M   'P 21/c'
_symmetry_Int_Tables_number      14
_space_group_name_Hall           '-P 2ybc'
loop_
_symmetry_equiv_pos_site_id
_symmetry_equiv_pos_as_xyz
1 x,y,z
2 -x,1/2+y,1/2-z
3 -x,-y,-z
4 x,1/2-y,1/2+z
_cell_length_a                   8.3308(4)
_cell_length_b                   14.8945(7)
_cell_length_c                   18.3046(10)
_cell_angle_alpha                90
_cell_angle_beta                 99.298(2)
_cell_angle_gamma                90
_cell_volume                     2241.45
loop_
_atom_site_label
_atom_site_type_symbol
_atom_site_fract_x
_atom_site_fract_y
_atom_site_fract_z
Cu1 Cu 0.27359(4) 0.000809(18) 0.316886(15)
O1 O 0.2754(2) 0.08243(11) 0.39978(9)
O2 O 0.2767(2) 0.09957(11) 0.24624(9)
O3 O 0.2785(2) -0.07909(11) 0.23349(9)
O4 O 0.2796(2) -0.09998(11) 0.38656(9)
N1 N 0.5804(3) 0.01113(14) 0.34361(11)
N2 N 0.9198(3) 0.00928(14) 0.39796(12)
N3 N 0.9760(3) 0.00491(13) 0.27847(12)
C1 C 0.2501(3) 0.16499(17) 0.39271(14)
C2 C 0.2357(4) 0.21156(19) 0.46636(16)
C3 C 0.2337(4) 0.21707(18) 0.32907(16)
H1 H 0.2086 0.2791 0.3317
C4 C 0.2536(3) 0.17957(16) 0.26119(14)
C5 C 0.2496(4) 0.24378(18) 0.19481(16)
C6 C 0.2612(3) -0.16285(16) 0.23547(14)
C7 C 0.2548(4) -0.20615(19) 0.15922(16)
C8 C 0.2489(4) -0.21644(17) 0.29576(15)
H2 H 0.2299 -0.2790 0.2887
C9 C 0.2640(3) -0.18032(16) 0.36738(14)
C10 C 0.2638(4) -0.24794(19) 0.43102(16)
C11 C 0.9231(3) 0.00321(17) 0.20649(14)
H3 H 1.0019 0.0011 0.1744
C12 C 0.7578(2) 0.00433(12) 0.17401(10)
H4 H 0.7275 0.0037 0.1217
C13 C 0.6411(2) 0.00636(12) 0.21927(10)
H5 H 0.5287 0.0063 0.1990
C14 C 0.6927(3) 0.00848(15) 0.29628(13)
C15 C 0.6404(3) 0.01465(18) 0.41470(14)
H6 H 0.5670 0.0180 0.4493
C16 C 0.8092(3) 0.01370(18) 0.44164(14)
H7 H 0.8444 0.0164 0.4936
C17 C 0.8612(3) 0.00757(14) 0.32398(13)
F1 F 0.2473(3) 0.29989(12) 0.46352(11)
F2 F 0.0942(2) 0.19149(14) 0.48684(10)
F3 F 0.3519(2) 0.18223(13) 0.52021(10)
F4 F 0.2302(4) 0.20089(14) 0.13157(11)
F5 F 0.3831(3) 0.29265(16) 0.20176(14)
F6 F 0.1284(2) 0.30275(13) 0.19024(12)
F7 F 0.2376(5) -0.29278(13) 0.15967(13)
F8 F 0.1318(3) -0.17406(17) 0.11209(12)
F9 F 0.3855(3) -0.18563(19) 0.13076(12)
F10 F 0.2800(3) -0.20841(13) 0.49584(10)
F11 F 0.1256(2) -0.29557(14) 0.42141(13)
F12 F 0.3833(2) -0.30774(12) 0.43264(10)
N3_2 N -0.0240(3) 0.00491(13) 0.27847(12)
Cu1_2 Cu 1.27359(4) 0.000809(18) 0.316886(15)
loop_
_geom_bond_atom_site_label_1
_geom_bond_atom_site_label_2
_geom_bond_site_symmetry_1
_geom_bond_site_symmetry_2
Cu1 O1 1_555 1_555
O1 C1 1_555 1_555
O2 Cu1 1_555 1_555
O3 Cu1 1_555 1_555
O4 Cu1 1_555 1_555
N1 Cu1 1_555 1_555
N2 C16 1_555 1_555
N3 C11 1_555 1_555
C1 C2 1_555 1_555
C2 F1 1_555 1_555
C3 C1 1_555 1_555
H1 C3 1_555 1_555
C4 O2 1_555 1_555
C5 C4 1_555 1_555
C6 O3 1_555 1_555
C7 C6 1_555 1_555
C8 C6 1_555 1_555
H2 C8 1_555 1_555
C9 O4 1_555 1_555
C10 C9 1_555 1_555
C11 H3 1_555 1_555
C12 C11 1_555 1_555
H4 C12 1_555 1_555
C13 C12 1_555 1_555
H5 C13 1_555 1_555
C14 N1 1_555 1_555
C15 N1 1_555 1_555
H6 C15 1_555 1_555
C16 C15 1_555 1_555
H7 C16 1_555 1_555
C17 N2 1_555 1_555
F2 C2 1_555 1_555
F3 C2 1_555 1_555
F4 C5 1_555 1_555
F5 C5 1_555 1_555
F6 C5 1_555 1_555
F7 C7 1_555 1_555
F8 C7 1_555 1_555
F9 C7 1_555 1_555
F10 C10 1_555 1_555
F11 C10 1_555 1_555
F12 C10 1_555 1_555
N3_2 Cu1 1_555 1_555
Cu1_2 N3 1_555 1_555
N3 C17 1_555 1_555
C3 C4 1_555 1_555
C8 C9 1_555 1_555
C13 C14 1_555 1_555
C14 C17 1_555 1_555

#END
