
#######################################################################
#
#                 Cambridge Crystallographic Data Centre
#                                CCDC 
#
#######################################################################
#
# If this CIF has been generated from an entry in the Cambridge 
# Structural Database, then it will include bibliographic, chemical, 
# crystal, experimental, refinement or atomic coordinate data resulting 
# from the CCDC's data processing and validation procedures.
#
#######################################################################

data_TABPIW
_symmetry_cell_setting           triclinic
_symmetry_space_group_name_H-M   'P -1'
_symmetry_Int_Tables_number      2
_space_group_name_Hall           '-P 1'
loop_
_symmetry_equiv_pos_site_id
_symmetry_equiv_pos_as_xyz
1 x,y,z
2 -x,-y,-z
_cell_length_a                   10.217(3)
_cell_length_b                   11.546(3)
_cell_length_c                   13.552(4)
_cell_angle_alpha                74.01(2)
_cell_angle_beta                 76.02(3)
_cell_angle_gamma                77.92(2)
_cell_volume                     1473.74
loop_
_atom_site_label
_atom_site_type_symbol
_atom_site_fract_x
_atom_site_fract_y
_atom_site_fract_z
Ag1 Ag 0.43365(13) 0.46242(10) 0.41110(11)
Ag2 Ag 0.04749(13) 0.05853(10) 1.08472(11)
C1 C 0.3335(15) 0.1688(12) 0.7347(12)
C2 C 0.2272(16) 0.1441(12) 0.8141(12)
N1 N 0.1355(16) 0.1198(12) 0.8810(13)
C3 C 0.3406(16) 0.2822(13) 0.6680(12)
N2 N 0.3571(18) 0.3780(14) 0.6130(14)
C4 C 0.4386(18) 0.0695(15) 0.7170(14)
N3 N 0.5293(18) -0.0082(14) 0.7002(14)
N7 N 0.2661(15) 0.6176(12) 0.3934(11)
C9 C 0.2940(18) 0.7331(13) 0.3698(13)
H1 H 0.3843 0.7461 0.3544
C10 C 0.1902(16) 0.8321(14) 0.3682(13)
H2 H 0.2097 0.9113 0.3494
C11 C 0.0513(17) 0.8089(13) 0.3965(13)
C12 C 0.0326(18) 0.6954(13) 0.4205(12)
H3 H -0.0558 0.6774 0.4374
C13 C 0.1410(17) 0.6015(14) 0.4213(13)
H4 H 0.1222 0.5220 0.4433
C14 C -0.0593(18) 0.9116(13) 0.3996(13)
H5 H -0.1451 0.8876 0.4214
N8 N -0.3930(14) 1.3157(11) 0.3961(11)
C15 C -0.4127(19) 1.1996(14) 0.4256(14)
H6 H -0.5025 1.1852 0.4498
C16 C -0.3132(17) 1.0988(14) 0.4239(14)
H7 H -0.3341 1.0200 0.4454
C17 C -0.1750(16) 1.1228(13) 0.3868(13)
C18 C -0.1581(16) 1.2411(12) 0.3542(12)
H8 H -0.0710 1.2607 0.3250
C19 C -0.2660(17) 1.3328(14) 0.3630(13)
H9 H -0.2477 1.4124 0.3443
C20 C -0.0644(17) 1.0220(13) 0.3799(13)
H10 H 0.0210 1.0467 0.3551
N9 N 0.2078(13) -0.1001(10) 1.1088(10)
C21 C 0.1905(18) -0.2135(13) 1.1287(13)
H11 H 0.1016 -0.2295 1.1417
C22 C 0.2922(15) -0.3094(13) 1.1320(12)
H12 H 0.2706 -0.3876 1.1474
C23 C 0.4225(16) -0.2951(13) 1.1138(13)
C24 C 0.4491(19) -0.1739(13) 1.0944(13)
H13 H 0.5381 -0.1583 1.0820
C25 C 0.3405(16) -0.0794(13) 1.0942(12)
H14 H 0.3570 -0.0004 1.0840
C26 C 0.5456(18) -0.3898(13) 1.1092(13)
H15 H 0.6316 -0.3668 1.0936
N10 N 0.8757(13) -0.7948(10) 1.0970(10)
C27 C 0.8902(18) -0.6788(13) 1.0642(13)
H16 H 0.9770 -0.6596 1.0325
C28 C 0.7852(16) -0.5852(13) 1.0741(13)
H17 H 0.8041 -0.5057 1.0512
C29 C 0.6576(17) -0.6029(13) 1.1149(13)
C30 C 0.6344(18) -0.7274(13) 1.1490(13)
H18 H 0.5471 -0.7475 1.1758
C31 C 0.7488(17) -0.8167(14) 1.1403(13)
H19 H 0.7357 -0.8977 1.1667
C32 C 0.5346(18) -0.5101(13) 1.1275(12)
H20 H 0.4487 -0.5340 1.1483
N8_2 N 0.6070(14) 0.3157(11) 0.3961(11)
N10_2 N -0.1243(13) 0.2052(10) 1.0970(10)
Ag1_2 Ag -0.56635(13) 1.46242(10) 0.41110(11)
Ag2_2 Ag 1.04749(13) -0.94147(10) 1.08472(11)
C5 C 0.1725(16) 0.3493(13) 1.2258(13)
C6 C 0.074(2) 0.4549(16) 1.2140(15)
N4 N -0.0102(17) 0.5380(14) 1.2016(13)
C7 C 0.2307(17) 0.3237(14) 1.3140(14)
N5 N 0.2733(17) 0.3035(13) 1.3866(13)
C8 C 0.2052(18) 0.2699(15) 1.1555(14)
N6 N 0.2284(19) 0.2181(15) 1.0934(15)
loop_
_geom_bond_atom_site_label_1
_geom_bond_atom_site_label_2
_geom_bond_site_symmetry_1
_geom_bond_site_symmetry_2
Ag1 N2 1_555 1_555
Ag2 N1 1_555 1_555
C1 C2 1_555 1_555
C2 N1 1_555 1_555
C3 C1 1_555 1_555
N2 C3 1_555 1_555
C4 C1 1_555 1_555
N3 C4 1_555 1_555
C5 C6 1_555 1_555
C6 N4 1_555 1_555
C7 C5 1_555 1_555
N5 C7 1_555 1_555
C8 C5 1_555 1_555
N6 C8 1_555 1_555
N7 Ag1 1_555 1_555
C9 N7 1_555 1_555
H1 C9 1_555 1_555
C10 C9 1_555 1_555
H2 C10 1_555 1_555
C11 C10 1_555 1_555
C12 C11 1_555 1_555
H3 C12 1_555 1_555
C13 N7 1_555 1_555
H4 C13 1_555 1_555
C14 C11 1_555 1_555
H5 C14 1_555 1_555
N8 C15 1_555 1_555
C15 H6 1_555 1_555
C16 C15 1_555 1_555
H7 C16 1_555 1_555
C17 C16 1_555 1_555
C18 C17 1_555 1_555
H8 C18 1_555 1_555
C19 N8 1_555 1_555
H9 C19 1_555 1_555
C20 C14 1_555 1_555
H10 C20 1_555 1_555
N9 Ag2 1_555 1_555
C21 N9 1_555 1_555
H11 C21 1_555 1_555
C22 C21 1_555 1_555
H12 C22 1_555 1_555
C23 C22 1_555 1_555
C24 C23 1_555 1_555
H13 C24 1_555 1_555
C25 N9 1_555 1_555
H14 C25 1_555 1_555
C26 C23 1_555 1_555
H15 C26 1_555 1_555
N10 C27 1_555 1_555
C27 H16 1_555 1_555
C28 C27 1_555 1_555
H17 C28 1_555 1_555
C29 C28 1_555 1_555
C30 C29 1_555 1_555
H18 C30 1_555 1_555
C31 N10 1_555 1_555
H19 C31 1_555 1_555
C32 C26 1_555 1_555
H20 C32 1_555 1_555
N8_2 Ag1 1_555 1_555
N10_2 Ag2 1_555 1_555
Ag1_2 N8 1_555 1_555
Ag2_2 N10 1_555 1_555
C12 C13 1_555 1_555
C17 C20 1_555 1_555
C18 C19 1_555 1_555
C24 C25 1_555 1_555
C29 C32 1_555 1_555
C30 C31 1_555 1_555

#END
