
#######################################################################
#
#                 Cambridge Crystallographic Data Centre
#                                CCDC 
#
#######################################################################
#
# If this CIF has been generated from an entry in the Cambridge 
# Structural Database, then it will include bibliographic, chemical, 
# crystal, experimental, refinement or atomic coordinate data resulting 
# from the CCDC's data processing and validation procedures.
#
#######################################################################

data_TABPES
_symmetry_cell_setting           monoclinic
_symmetry_space_group_name_H-M   'C 2/c'
_symmetry_Int_Tables_number      15
_space_group_name_Hall           '-C 2yn'
loop_
_symmetry_equiv_pos_site_id
_symmetry_equiv_pos_as_xyz
1 x,y,z
2 1/2+x,1/2+y,z
3 x,-y,1/2+z
4 1/2+x,1/2-y,1/2+z
5 -x,-y,-z
6 1/2-x,1/2-y,-z
7 -x,y,1/2-z
8 1/2-x,1/2+y,1/2-z
_cell_length_a                   7.353(2)
_cell_length_b                   17.082(5)
_cell_length_c                   10.332(2)
_cell_angle_alpha                90
_cell_angle_beta                 100.73(1)
_cell_angle_gamma                90
_cell_volume                     1275.05
loop_
_atom_site_label
_atom_site_type_symbol
_atom_site_fract_x
_atom_site_fract_y
_atom_site_fract_z
Ag1 Ag 0.0000 0.07141(2) 0.2500
N1 N -0.2073(4) 0.18761(16) 0.3499(3)
N2 N -0.5000 0.41115(19) 0.2500
C1 C -0.3388(4) 0.22133(17) 0.3061(3)
C2 C -0.5000 0.3447(2) 0.2500
C3 C -0.5000 0.2623(2) 0.2500
N3 N 0.2019(3) 0.06988(12) 0.4379(2)
C4 C 0.2838(4) 0.13541(16) 0.4900(3)
H1 H 0.2594 0.1817 0.4425
C5 C 0.4027(4) 0.13852(15) 0.6102(2)
H2 H 0.4579 0.1856 0.6411
C6 C 0.4390(3) 0.07080(14) 0.6845(2)
C7 C 0.3550(3) 0.00235(14) 0.6300(2)
H3 H 0.3765 -0.0446 0.6757
C8 C 0.2399(3) 0.00408(15) 0.5084(2)
H4 H 0.1863 -0.0425 0.4738
C1F C -0.6612(4) 0.22133(17) 0.1939(3)
N1F N -0.7927(4) 0.18761(16) 0.1501(3)
C6F C 0.5610(3) 0.07080(14) 0.8155(2)
C5F C 0.5973(4) 0.13852(15) 0.8898(2)
C4F C 0.7162(4) 0.13541(16) 1.0100(3)
N3F N 0.7981(3) 0.06988(12) 1.0621(2)
C8F C 0.7601(3) 0.00408(15) 0.9916(2)
C7F C 0.6450(3) 0.00235(14) 0.8700(2)
H3F H 0.6235 -0.0446 0.8243
H4F H 0.8137 -0.0425 1.0262
H1F H 0.7406 0.1817 1.0575
H2F H 0.5421 0.1856 0.8589
N1F_2 N 0.2073(4) 0.18761(16) 0.1501(3)
N2A N 0.0000 -0.08885(19) 0.2500
N3F_2 N -0.2019(3) 0.06988(12) 0.0621(2)
Ag1A Ag -0.5000 0.57141(2) 0.2500
Ag1_2 Ag -1.0000 0.07141(2) 0.2500
Ag1_3 Ag 1.0000 0.07141(2) 1.2500
loop_
_geom_bond_atom_site_label_1
_geom_bond_atom_site_label_2
_geom_bond_site_symmetry_1
_geom_bond_site_symmetry_2
Ag1 N1 1_555 1_555
N1 C1 1_555 1_555
N2 C2 1_555 1_555
C1 C3 1_555 1_555
C2 C3 1_555 1_555
C3 C1F 1_555 1_555
N3 Ag1 1_555 1_555
C4 N3 1_555 1_555
H1 C4 1_555 1_555
C5 C4 1_555 1_555
H2 C5 1_555 1_555
C6 C5 1_555 1_555
C7 C6 1_555 1_555
H3 C7 1_555 1_555
C8 N3 1_555 1_555
H4 C8 1_555 1_555
C1F N1F 1_555 1_555
N1F Ag1_2 1_555 1_555
C6F C6 1_555 1_555
C5F C6F 1_555 1_555
C4F C5F 1_555 1_555
N3F C4F 1_555 1_555
C8F N3F 1_555 1_555
C7F C6F 1_555 1_555
H3F C7F 1_555 1_555
H4F C8F 1_555 1_555
H1F C4F 1_555 1_555
H2F C5F 1_555 1_555
N1F_2 Ag1 1_555 1_555
N2A Ag1 1_555 1_555
N3F_2 Ag1 1_555 1_555
Ag1A N2 1_555 1_555
Ag1_3 N3F 1_555 1_555
C7 C8 1_555 1_555
C8F C7F 1_555 1_555

#END
