
#######################################################################
#
#                 Cambridge Crystallographic Data Centre
#                                CCDC 
#
#######################################################################
#
# If this CIF has been generated from an entry in the Cambridge 
# Structural Database, then it will include bibliographic, chemical, 
# crystal, experimental, refinement or atomic coordinate data resulting 
# from the CCDC's data processing and validation procedures.
#
#######################################################################

data_TABPOC
_symmetry_cell_setting           triclinic
_symmetry_space_group_name_H-M   'P 1'
_symmetry_Int_Tables_number      1
_space_group_name_Hall           'P 1'
loop_
_symmetry_equiv_pos_site_id
_symmetry_equiv_pos_as_xyz
1 x,y,z
_cell_length_a                   7.8182(2)
_cell_length_b                   8.2681(3)
_cell_length_c                   10.3971(2)
_cell_angle_alpha                102.723(2)
_cell_angle_beta                 93.550(2)
_cell_angle_gamma                90.317(2)
_cell_volume                     654.199
loop_
_atom_site_label
_atom_site_type_symbol
_atom_site_fract_x
_atom_site_fract_y
_atom_site_fract_z
Ag1 Ag 0.16958(3) 0.14124(3) 0.46323(2)
Ag2 Ag -0.64132(3) 0.34232(3) 0.11987(2)
C1 C 0.4675(10) -0.3410(10) 0.4743(9)
C2 C 0.3854(11) -0.2031(10) 0.4452(8)
N1 N 0.3130(11) -0.0869(10) 0.4279(9)
C3 C 0.3720(13) -0.4874(13) 0.4650(9)
N2 N 0.3045(13) -0.6086(10) 0.4565(9)
C4 C 0.6570(15) -0.3352(14) 0.5173(12)
N3 N 0.7933(13) -0.3238(11) 0.5403(12)
C5 C -0.9433(13) -0.1805(11) 0.1030(9)
C6 C -0.8530(12) -0.0286(10) 0.1173(8)
N4 N -0.7748(12) 0.0950(11) 0.1250(9)
C7 C -0.8591(13) -0.3220(11) 0.1253(9)
N5 N -0.7896(11) -0.4326(9) 0.1520(8)
C8 C -1.1045(14) -0.1843(11) 0.0639(10)
N6 N -1.2539(13) -0.1786(12) 0.0234(9)
N7 N 0.0522(10) 0.2439(9) 0.6675(8)
C9 C 0.0339(12) 0.1721(10) 0.7717(10)
C10 C -0.0359(14) 0.2528(12) 0.8875(9)
H1 H -0.0452 0.1977 0.9579
N8 N -0.0915(13) 0.4119(11) 0.9000(9)
C11 C -0.0808(14) 0.4829(14) 0.7991(10)
H2 H -0.1290 0.5892 0.8044
C12 C -0.0019(15) 0.4090(14) 0.6854(13)
H3 H 0.0156 0.4699 0.6196
C13 C 0.1002(14) -0.0016(12) 0.7466(8)
H4 H 0.1460 -0.0294 0.6589
H5 H 0.0066 -0.0793 0.7505
H6 H 0.1914 -0.0093 0.8139
N9 N -0.5253(11) 0.2317(11) -0.0904(9)
C14 C -0.5093(12) 0.3173(12) -0.1840(7)
C15 C -0.4402(15) 0.2318(15) -0.2994(9)
H7 H -0.4343 0.2892 -0.3688
N10 N -0.3831(13) 0.0815(13) -0.3220(8)
C16 C -0.4023(15) 0.0037(14) -0.2241(12)
H8 H -0.3690 -0.1086 -0.2346
C17 C -0.4700(12) 0.0834(11) -0.1076(9)
H9 H -0.4757 0.0262 -0.0381
C18 C -0.5501(15) 0.4987(14) -0.1667(12)
H10 H -0.5945 0.5395 -0.0796
H11 H -0.6366 0.5128 -0.2355
H12 H -0.4458 0.5615 -0.1738
N11 N -0.0830(12) 0.1948(10) 0.3505(10)
C19 C -0.0906(12) 0.3242(13) 0.2993(11)
H13 H 0.0098 0.3890 0.2983
C20 C -0.2495(14) 0.3686(12) 0.2447(10)
N12 N -0.3861(13) 0.2843(12) 0.2350(9)
C21 C -0.3748(14) 0.1483(12) 0.2866(11)
H14 H -0.4750 0.0806 0.2793
C22 C -0.2322(13) 0.1007(12) 0.3478(11)
H15 H -0.2337 0.0074 0.3871
C23 C -0.2609(5) 0.5207(5) 0.1969(4)
H16 H -0.3792 0.5345 0.1647
H17 H -0.1848 0.5150 0.1246
H18 H -0.2264 0.6152 0.2690
N2_2 N 0.3045(13) 0.3914(10) 0.4565(9)
N5_2 N -0.7896(11) 0.5674(9) 0.1520(8)
Ag1_2 Ag 0.16958(3) -0.85876(3) 0.46323(2)
Ag2_2 Ag -0.64132(3) -0.65768(3) 0.11987(2)
loop_
_geom_bond_atom_site_label_1
_geom_bond_atom_site_label_2
_geom_bond_site_symmetry_1
_geom_bond_site_symmetry_2
Ag1 N1 1_555 1_555
Ag2 N4 1_555 1_555
C1 C2 1_555 1_555
C2 N1 1_555 1_555
C3 C1 1_555 1_555
N2 C3 1_555 1_555
C4 C1 1_555 1_555
N3 C4 1_555 1_555
C5 C6 1_555 1_555
C6 N4 1_555 1_555
C7 C5 1_555 1_555
N5 C7 1_555 1_555
C8 C5 1_555 1_555
N6 C8 1_555 1_555
N7 Ag1 1_555 1_555
C9 N7 1_555 1_555
C10 C9 1_555 1_555
H1 C10 1_555 1_555
N8 C10 1_555 1_555
C11 N8 1_555 1_555
H2 C11 1_555 1_555
C12 N7 1_555 1_555
H3 C12 1_555 1_555
C13 C9 1_555 1_555
H4 C13 1_555 1_555
H5 C13 1_555 1_555
H6 C13 1_555 1_555
N9 Ag2 1_555 1_555
C14 N9 1_555 1_555
C15 C14 1_555 1_555
H7 C15 1_555 1_555
N10 C15 1_555 1_555
C16 N10 1_555 1_555
H8 C16 1_555 1_555
C17 N9 1_555 1_555
H9 C17 1_555 1_555
C18 C14 1_555 1_555
H10 C18 1_555 1_555
H11 C18 1_555 1_555
H12 C18 1_555 1_555
N11 Ag1 1_555 1_555
C19 N11 1_555 1_555
H13 C19 1_555 1_555
C20 C19 1_555 1_555
N12 Ag2 1_555 1_555
C21 N12 1_555 1_555
H14 C21 1_555 1_555
C22 N11 1_555 1_555
H15 C22 1_555 1_555
C23 C20 1_555 1_555
H16 C23 1_555 1_555
H17 C23 1_555 1_555
H18 C23 1_555 1_555
N2_2 Ag1 1_555 1_555
N5_2 Ag2 1_555 1_555
Ag1_2 N2 1_555 1_555
Ag2_2 N5 1_555 1_555
C11 C12 1_555 1_555
C16 C17 1_555 1_555
C20 N12 1_555 1_555
C21 C22 1_555 1_555

#END
