
#######################################################################
#
#                 Cambridge Crystallographic Data Centre
#                                CCDC 
#
#######################################################################
#
# If this CIF has been generated from an entry in the Cambridge 
# Structural Database, then it will include bibliographic, chemical, 
# crystal, experimental, refinement or atomic coordinate data resulting 
# from the CCDC's data processing and validation procedures.
#
#######################################################################

data_TABPUI
_symmetry_cell_setting           triclinic
_symmetry_space_group_name_H-M   'P -1'
_symmetry_Int_Tables_number      2
_space_group_name_Hall           '-P 1'
loop_
_symmetry_equiv_pos_site_id
_symmetry_equiv_pos_as_xyz
1 x,y,z
2 -x,-y,-z
_cell_length_a                   7.197(2)
_cell_length_b                   8.110(1)
_cell_length_c                   8.757(2)
_cell_angle_alpha                88.16(2)
_cell_angle_beta                 69.99(2)
_cell_angle_gamma                72.61(2)
_cell_volume                     456.913
loop_
_atom_site_label
_atom_site_type_symbol
_atom_site_fract_x
_atom_site_fract_y
_atom_site_fract_z
Ag1 Ag -0.03397(2) -0.378112(18) -0.21173(2)
C1 C -0.3415(3) 0.1970(2) 0.0603(2)
C2 C -0.2371(3) 0.0288(2) -0.0160(2)
N1 N -0.1517(3) -0.1078(2) -0.0784(3)
C3 C -0.2666(3) 0.3324(2) -0.0092(3)
N2 N -0.2018(3) 0.4407(3) -0.0686(3)
C4 C -0.5144(3) 0.2253(3) 0.2045(3)
N3 N -0.6570(3) 0.2467(3) 0.3222(3)
N4 N 0.2961(2) -0.46009(18) -0.39751(18)
C5 C 0.4352(3) -0.6104(2) -0.3908(2)
C6 C 0.3605(4) -0.7346(3) -0.2740(3)
H1 H 0.4214 -0.8634 -0.3345
H2 H 0.1928 -0.6975 -0.2258
H3 H 0.4183 -0.7334 -0.1755
C7 C 0.3582(3) -0.3498(2) -0.5059(2)
C8 C 0.1981(4) -0.1838(3) -0.5111(4)
H4 H 0.2487 -0.1210 -0.6129
H5 H 0.1718 -0.0881 -0.3993
H6 H 0.0518 -0.2014 -0.4848
C7A C 0.6418(3) -0.6502(2) -0.4941(2)
N4A N 0.7039(2) -0.53991(18) -0.60249(18)
C5A C 0.5648(3) -0.3896(2) -0.6092(2)
C6A C 0.6395(4) -0.2654(3) -0.7260(3)
H1A H 0.5786 -0.1366 -0.6655
H2A H 0.8072 -0.3025 -0.7742
H3A H 0.5817 -0.2666 -0.8245
C8A C 0.8019(4) -0.8162(3) -0.4889(4)
H4A H 0.7513 -0.8790 -0.3871
H5A H 0.8282 -0.9119 -0.6007
H6A H 0.9482 -0.7986 -0.5152
C1_2 C -0.3415(3) -0.8030(2) 0.0603(2)
C2_2 C -0.2371(3) -0.9712(2) -0.0160(2)
N1_2 N -0.1517(3) -1.1078(2) -0.0784(3)
C3_2 C -0.2666(3) -0.6676(2) -0.0092(3)
N2_2 N -0.2018(3) -0.5593(3) -0.0686(3)
C4_2 C -0.5144(3) -0.7747(3) 0.2045(3)
N3_2 N -0.6570(3) -0.7533(3) 0.3222(3)
Ag1_2 Ag -0.03397(2) -1.378112(18) -0.21173(2)
N3A N -0.3430(3) -0.2467(3) -0.3222(3)
Ag1_3 Ag -0.03397(2) 0.621888(18) -0.21173(2)
Ag1A Ag -0.96603(2) 0.378112(18) 0.21173(2)
Ag1A_2 Ag 1.03397(2) -0.621888(18) -0.78827(2)
Ag1A_3 Ag -0.96603(2) -0.621888(18) 0.21173(2)
N2_3 N -0.2018(3) -1.5593(3) -0.0686(3)
N3A_2 N -0.3430(3) -1.2467(3) -0.3222(3)
N4_2 N 0.2961(2) -1.46009(18) -0.39751(18)
loop_
_geom_bond_atom_site_label_1
_geom_bond_atom_site_label_2
_geom_bond_site_symmetry_1
_geom_bond_site_symmetry_2
Ag1 N1 1_555 1_555
C1 C2 1_555 1_555
C2 N1 1_555 1_555
C3 C1 1_555 1_555
N2 C3 1_555 1_555
C4 C1 1_555 1_555
N3 C4 1_555 1_555
N4 Ag1 1_555 1_555
C5 N4 1_555 1_555
C6 C5 1_555 1_555
H1 C6 1_555 1_555
H2 C6 1_555 1_555
H3 C6 1_555 1_555
C7 N4 1_555 1_555
C8 C7 1_555 1_555
H4 C8 1_555 1_555
H5 C8 1_555 1_555
H6 C8 1_555 1_555
C7A C5 1_555 1_555
N4A C7A 1_555 1_555
C5A C7 1_555 1_555
C6A C5A 1_555 1_555
H1A C6A 1_555 1_555
H2A C6A 1_555 1_555
H3A C6A 1_555 1_555
C8A C7A 1_555 1_555
H4A C8A 1_555 1_555
H5A C8A 1_555 1_555
H6A C8A 1_555 1_555
C1_2 C2_2 1_555 1_555
C2_2 N1_2 1_555 1_555
N1_2 Ag1_2 1_555 1_555
C3_2 C1_2 1_555 1_555
N2_2 Ag1 1_555 1_555
C4_2 C1_2 1_555 1_555
N3_2 C4_2 1_555 1_555
Ag1_2 N2_3 1_555 1_555
N3A Ag1 1_555 1_555
Ag1_3 N2 1_555 1_555
Ag1A N3 1_555 1_555
Ag1A_2 N4A 1_555 1_555
Ag1A_3 N3_2 1_555 1_555
N3A_2 Ag1_2 1_555 1_555
N4_2 Ag1_2 1_555 1_555
N4A C5A 1_555 1_555
C3_2 N2_2 1_555 1_555

#END
