
#######################################################################
#
#                 Cambridge Crystallographic Data Centre
#                                CCDC 
#
#######################################################################
#
# If this CIF has been generated from an entry in the Cambridge 
# Structural Database, then it will include bibliographic, chemical, 
# crystal, experimental, refinement or atomic coordinate data resulting 
# from the CCDC's data processing and validation procedures.
#
#######################################################################

data_TABQAP
_symmetry_cell_setting           orthorhombic
_symmetry_space_group_name_H-M   'P n m a'
_symmetry_Int_Tables_number      62
_space_group_name_Hall           '-P 2ac 2n'
loop_
_symmetry_equiv_pos_site_id
_symmetry_equiv_pos_as_xyz
1 x,y,z
2 1/2+x,y,1/2-z
3 1/2-x,1/2+y,1/2+z
4 x,1/2-y,z
5 -x,-y,-z
6 1/2-x,-y,1/2+z
7 1/2+x,1/2-y,1/2-z
8 -x,1/2+y,-z
_cell_length_a                   16.6204(3)
_cell_length_b                   6.5616(1)
_cell_length_c                   10.2480(2)
_cell_angle_alpha                90
_cell_angle_beta                 90
_cell_angle_gamma                90
_cell_volume                     1117.61
loop_
_atom_site_label
_atom_site_type_symbol
_atom_site_fract_x
_atom_site_fract_y
_atom_site_fract_z
Ag1 Ag 0.268272(16) 0.2500 0.33649(2)
C1 C -0.0108(2) 0.2500 0.5101(4)
C2 C 0.0734(2) 0.2500 0.4944(3)
N1 N 0.14196(19) 0.2500 0.4787(3)
C3 C -0.0604(2) 0.2500 0.3983(4)
N2 N -0.1014(2) 0.2500 0.3073(3)
C4 C -0.0457(2) 0.2500 0.6352(4)
N3 N -0.0755(2) 0.2500 0.7368(3)
N4 N 0.19420(17) 0.2500 0.1397(3)
C5 C 0.1047(2) 0.2500 0.1457(3)
H1 H 0.0862 0.1280 0.1939
H2 H 0.0862 0.3720 0.1939
N5 N 0.06904(17) 0.2500 0.0149(3)
C6 C 0.09654(14) 0.0681(4) -0.0555(2)
H3 H 0.0724 0.0668 -0.1438
H4 H 0.0779 -0.0553 -0.0088
N6 N 0.18590(11) 0.0624(3) -0.06730(19)
C7 C 0.21976(14) 0.0669(4) 0.0663(2)
H5 H 0.2022 -0.0565 0.1140
H6 H 0.2792 0.0644 0.0610
C8 C 0.2116(2) 0.2500 -0.1359(3)
H7 H 0.2709 0.2500 -0.1441
H8 H 0.1886 0.2500 -0.2250
C7C C 0.21976(14) 0.4331(4) 0.0663(2)
N6C N 0.18590(11) 0.4376(3) -0.06730(19)
C6C C 0.09654(14) 0.4319(4) -0.0555(2)
H3C H 0.0724 0.4332 -0.1438
H4C H 0.0779 0.5553 -0.0088
H5C H 0.2022 0.5565 0.1140
H6C H 0.2792 0.4356 0.0610
N2A N 0.3986(2) 0.2500 0.1927(3)
N6B N 0.31410(11) 0.5624(3) 0.43270(19)
N6E N 0.31410(11) -0.0624(3) 0.43270(19)
Ag1A Ag -0.231728(16) 0.2500 0.16351(2)
Ag1B Ag 0.231728(16) -0.2500 -0.16351(2)
Ag1B_2 Ag 0.231728(16) 0.7500 -0.16351(2)
loop_
_geom_bond_atom_site_label_1
_geom_bond_atom_site_label_2
_geom_bond_site_symmetry_1
_geom_bond_site_symmetry_2
Ag1 N1 1_555 1_555
C1 C2 1_555 1_555
C2 N1 1_555 1_555
C3 C1 1_555 1_555
N2 C3 1_555 1_555
C4 C1 1_555 1_555
N3 C4 1_555 1_555
N4 Ag1 1_555 1_555
C5 N4 1_555 1_555
H1 C5 1_555 1_555
H2 C5 1_555 1_555
N5 C5 1_555 1_555
C6 N5 1_555 1_555
H3 C6 1_555 1_555
H4 C6 1_555 1_555
N6 C6 1_555 1_555
C7 N4 1_555 1_555
H5 C7 1_555 1_555
H6 C7 1_555 1_555
C8 N6 1_555 1_555
H7 C8 1_555 1_555
H8 C8 1_555 1_555
C7C N4 1_555 1_555
N6C C8 1_555 1_555
C6C N5 1_555 1_555
H3C C6C 1_555 1_555
H4C C6C 1_555 1_555
H5C C7C 1_555 1_555
H6C C7C 1_555 1_555
N2A Ag1 1_555 1_555
N6B Ag1 1_555 1_555
N6E Ag1 1_555 1_555
Ag1A N2 1_555 1_555
Ag1B N6 1_555 1_555
Ag1B_2 N6C 1_555 1_555
N6 C7 1_555 1_555
C7C N6C 1_555 1_555
N6C C6C 1_555 1_555

#END
