
#######################################################################
#
#                 Cambridge Crystallographic Data Centre
#                                CCDC 
#
#######################################################################
#
# If this CIF has been generated from an entry in the Cambridge 
# Structural Database, then it will include bibliographic, chemical, 
# crystal, experimental, refinement or atomic coordinate data resulting 
# from the CCDC's data processing and validation procedures.
#
#######################################################################

data_TABQET
_symmetry_cell_setting           monoclinic
_symmetry_space_group_name_H-M   'C 2/c'
_symmetry_Int_Tables_number      15
_space_group_name_Hall           '-C 2yn'
loop_
_symmetry_equiv_pos_site_id
_symmetry_equiv_pos_as_xyz
1 x,y,z
2 1/2+x,1/2+y,z
3 x,-y,1/2+z
4 1/2+x,1/2-y,1/2+z
5 -x,-y,-z
6 1/2-x,1/2-y,-z
7 -x,y,1/2-z
8 1/2-x,1/2+y,1/2-z
_cell_length_a                   30.955(4)
_cell_length_b                   12.705(3)
_cell_length_c                   17.058(5)
_cell_angle_alpha                90
_cell_angle_beta                 117.26(2)
_cell_angle_gamma                90
_cell_volume                     5963.55
loop_
_atom_site_label
_atom_site_type_symbol
_atom_site_fract_x
_atom_site_fract_y
_atom_site_fract_z
N5 N 0.3504(2) 1.0218(4) 0.1421(4)
O7 O 0.3184(2) 0.9792(4) 0.1565(4)
O8 O 0.3563(2) 1.1158(4) 0.1503(4)
O9 O 0.3761(2) 0.9648(4) 0.1225(4)
Ni1 Ni 0.34981(2) 0.68156(4) 0.25170(4)
N1 N 0.32487(15) 0.5446(3) 0.1731(3)
N2 N 0.27625(15) 0.7101(3) 0.2143(3)
N3 N 0.12896(15) 0.3201(3) 0.1714(3)
C1 C 0.3376(2) 0.4476(4) 0.2039(4)
H1 H 0.3581 0.4392 0.2639
C2 C 0.3220(2) 0.3583(4) 0.1520(4)
H2 H 0.3327 0.2922 0.1768
C3 C 0.2904(2) 0.3677(4) 0.0627(4)
C4 C 0.2754(2) 0.4682(4) 0.0313(4)
H3 H 0.2533 0.4788 -0.0276
C5 C 0.2934(2) 0.5525(4) 0.0877(4)
H4 H 0.2830 0.6194 0.0648
C6 C 0.2522(2) 0.6460(4) 0.2440(4)
H5 H 0.2701 0.5983 0.2884
C7 C 0.2025(2) 0.6477(4) 0.2118(4)
H6 H 0.1880 0.6033 0.2362
C8 C 0.17430(19) 0.7137(4) 0.1444(4)
C9 C 0.1988(2) 0.7828(4) 0.1145(4)
H7 H 0.1815 0.8316 0.0705
C10 C 0.2483(2) 0.7777(4) 0.1506(4)
H8 H 0.2637 0.8243 0.1295
C11 C 0.1521(2) 0.3514(4) 0.1252(4)
H9 H 0.1759 0.3073 0.1244
C12 C 0.1429(2) 0.4439(4) 0.0795(4)
H10 H 0.1598 0.4604 0.0479
C13 C 0.10863(19) 0.5131(4) 0.0798(3)
C14 C 0.0844(2) 0.4799(4) 0.1263(4)
H11 H 0.0603 0.5224 0.1277
C15 C 0.09521(19) 0.3853(4) 0.1704(4)
H12 H 0.0781 0.3662 0.2010
C16 C 0.2719(2) 0.2735(4) -0.0002(4)
H13 H 0.2641 0.2963 -0.0596
H14 H 0.2973 0.2208 0.0174
C17 C 0.11955(19) 0.7109(4) 0.1026(4)
H15 H 0.1067 0.7772 0.0729
H16 H 0.1094 0.7027 0.1484
C18 C 0.0983(2) 0.6207(4) 0.0361(4)
H17 H 0.0635 0.6302 0.0028
H18 H 0.1119 0.6236 -0.0050
O1 O 0.42103(12) 0.6478(3) 0.2779(2)
H19 H 0.4319(18) 0.668(4) 0.238(3)
H20 H 0.4463(14) 0.619(4) 0.327(2)
O2 O 0.34825(14) 0.7568(3) 0.1393(2)
H21 H 0.3494(18) 0.8303(15) 0.135(4)
H22 H 0.3758(14) 0.730(3) 0.138(4)
Ni2 Ni 0.5000 0.5000 0.5000
N4 N 0.49292(15) 0.3645(3) 0.4251(3)
C19 C 0.5146(2) 0.2731(4) 0.4610(4)
H23 H 0.5323 0.2695 0.5220
C20 C 0.5122(2) 0.1844(4) 0.4130(4)
H24 H 0.5292 0.1240 0.4413
C21 C 0.4846(2) 0.1856(4) 0.3229(4)
C22 C 0.4599(2) 0.2786(4) 0.2838(4)
H25 H 0.4398 0.2821 0.2233
C23 C 0.4662(2) 0.3652(4) 0.3372(4)
H26 H 0.4508 0.4276 0.3105
C24 C 0.4806(3) 0.0920(4) 0.2653(5)
H27 H 0.4489 0.0923 0.2143
H28 H 0.4834 0.0278 0.2981
O3 O 0.42864(12) 0.5293(2) 0.4185(2)
O4 O 0.35657(12) 0.6070(3) 0.3647(2)
O5 O 0.43233(15) 0.3216(3) 0.6171(3)
O6 O 0.48258(13) 0.4081(3) 0.5808(2)
C25 C 0.3926(2) 0.5661(4) 0.4265(3)
C26 C 0.3917(2) 0.5607(4) 0.5131(4)
H29 H 0.3723 0.6113 0.5208
C27 C 0.41373(19) 0.4966(4) 0.5803(4)
H30 H 0.4087 0.5120 0.6288
C28 C 0.4452(2) 0.4041(4) 0.5918(3)
C16E C 0.2281(2) 0.2265(4) 0.0002(4)
C3E C 0.2096(2) 0.1323(4) -0.0627(4)
C2E C 0.1780(2) 0.1417(4) -0.1520(4)
C1E C 0.1624(2) 0.0524(4) -0.2039(4)
N1E N 0.17513(15) -0.0446(3) -0.1731(3)
C5E C 0.2066(2) -0.0525(4) -0.0877(4)
C4E C 0.2246(2) 0.0318(4) -0.0313(4)
H3E H 0.2467 0.0212 0.0276
H4E H 0.2170 -0.1194 -0.0648
H1E H 0.1419 0.0608 -0.2639
H2E H 0.1673 0.2078 -0.1768
H13E H 0.2359 0.2037 0.0596
H14E H 0.2027 0.2792 -0.0174
C24F C 0.5194(3) 0.0920(4) 0.2347(5)
C21F C 0.5154(2) 0.1856(4) 0.1771(4)
C20F C 0.4878(2) 0.1844(4) 0.0870(4)
C19F C 0.4854(2) 0.2731(4) 0.0390(4)
N4F N 0.50708(15) 0.3645(3) 0.0749(3)
C23F C 0.5338(2) 0.3652(4) 0.1628(4)
C22F C 0.5401(2) 0.2786(4) 0.2162(4)
H25F H 0.5602 0.2821 0.2767
H26F H 0.5492 0.4276 0.1895
H23F H 0.4677 0.2695 -0.0220
H24F H 0.4708 0.1240 0.0587
H27F H 0.5511 0.0923 0.2857
H28F H 0.5166 0.0278 0.2019
O3D O 0.57136(12) 0.4707(2) 0.5815(2)
O4D O 0.64343(12) 0.3930(3) 0.6353(2)
O5D O 0.56767(15) 0.6784(3) 0.3829(3)
O6D O 0.51742(13) 0.5919(3) 0.4192(2)
C25D C 0.6074(2) 0.4339(4) 0.5735(3)
C26D C 0.6083(2) 0.4393(4) 0.4869(4)
H29D H 0.6277 0.3887 0.4792
C27D C 0.58627(19) 0.5034(4) 0.4197(4)
H30D H 0.5913 0.4880 0.3712
C28D C 0.5548(2) 0.5959(4) 0.4082(3)
Ni1D Ni 0.65019(2) 0.31844(4) 0.74830(4)
N2G N 0.22375(15) 1.2101(3) 0.2857(3)
N3G N 0.37104(15) 0.8201(3) 0.3286(3)
C6G C 0.2478(2) 1.1460(4) 0.2560(4)
H5G H 0.2299 1.0983 0.2116
C7G C 0.2975(2) 1.1477(4) 0.2882(4)
H6G H 0.3120 1.1033 0.2638
C8G C 0.32570(19) 1.2137(4) 0.3556(4)
C9G C 0.3012(2) 1.2828(4) 0.3855(4)
H7G H 0.3185 1.3316 0.4295
C10G C 0.2517(2) 1.2777(4) 0.3494(4)
H8G H 0.2363 1.3243 0.3705
C11G C 0.3479(2) 0.8514(4) 0.3748(4)
H9G H 0.3241 0.8073 0.3756
C12G C 0.3571(2) 0.9439(4) 0.4205(4)
H10G H 0.3402 0.9604 0.4521
C13G C 0.39137(19) 1.0131(4) 0.4202(3)
C14G C 0.4156(2) 0.9799(4) 0.3737(4)
H11G H 0.4397 1.0224 0.3723
C15G C 0.40479(19) 0.8853(4) 0.3296(4)
H12G H 0.4219 0.8662 0.2990
C17G C 0.38045(19) 1.2109(4) 0.3974(4)
H15G H 0.3933 1.2772 0.4271
H16G H 0.3906 1.2027 0.3516
C18G C 0.4017(2) 1.1207(4) 0.4639(4)
H17G H 0.4365 1.1302 0.4972
H18G H 0.3881 1.1236 0.5050
O1D O 0.57897(12) 0.3522(3) 0.7221(2)
H19D H 0.5681(18) 0.332(4) 0.762(3)
H20D H 0.5537(14) 0.381(4) 0.673(2)
O2D O 0.65175(14) 0.2432(3) 0.8607(2)
H21D H 0.6506(18) 0.1697(15) 0.865(4)
H22D H 0.6242(14) 0.270(3) 0.862(4)
Ni1G Ni 0.15019(2) 0.18156(4) 0.24830(4)
N4D N 0.50708(15) 0.6355(3) 0.5749(3)
Ni1E Ni 0.15019(2) -0.18156(4) -0.25170(4)
Ni2B Ni 0.5000 0.5000 0.0000
N1D N 0.67513(15) 0.4554(3) 0.8269(3)
N2D N 0.72375(15) 0.2899(3) 0.7857(3)
N3C N 0.62896(15) 0.1799(3) 0.6714(3)
Ni1G_2 Ni 0.15019(2) 1.18156(4) 0.24830(4)
O10? O 0.4903(4) 0.8043(8) 0.2817(11)
loop_
_geom_bond_atom_site_label_1
_geom_bond_atom_site_label_2
_geom_bond_site_symmetry_1
_geom_bond_site_symmetry_2
Ni1 N1 1_555 1_555
N1 C1 1_555 1_555
N2 Ni1 1_555 1_555
N3 C11 1_555 1_555
C1 H1 1_555 1_555
C2 C1 1_555 1_555
H2 C2 1_555 1_555
C3 C2 1_555 1_555
C4 C3 1_555 1_555
H3 C4 1_555 1_555
C5 N1 1_555 1_555
H4 C5 1_555 1_555
C6 N2 1_555 1_555
H5 C6 1_555 1_555
C7 C6 1_555 1_555
H6 C7 1_555 1_555
C8 C7 1_555 1_555
C9 C8 1_555 1_555
H7 C9 1_555 1_555
C10 N2 1_555 1_555
H8 C10 1_555 1_555
C11 H9 1_555 1_555
C12 C11 1_555 1_555
H10 C12 1_555 1_555
C13 C12 1_555 1_555
C14 C13 1_555 1_555
H11 C14 1_555 1_555
C15 N3 1_555 1_555
H12 C15 1_555 1_555
C16 C3 1_555 1_555
H13 C16 1_555 1_555
H14 C16 1_555 1_555
C17 C8 1_555 1_555
H15 C17 1_555 1_555
H16 C17 1_555 1_555
C18 C13 1_555 1_555
H17 C18 1_555 1_555
H18 C18 1_555 1_555
O1 Ni1 1_555 1_555
H19 O1 1_555 1_555
H20 O1 1_555 1_555
O2 Ni1 1_555 1_555
H21 O2 1_555 1_555
H22 O2 1_555 1_555
Ni2 N4 1_555 1_555
N4 C19 1_555 1_555
C19 H23 1_555 1_555
C20 C19 1_555 1_555
H24 C20 1_555 1_555
C21 C20 1_555 1_555
C22 C21 1_555 1_555
H25 C22 1_555 1_555
C23 N4 1_555 1_555
H26 C23 1_555 1_555
C24 C21 1_555 1_555
H27 C24 1_555 1_555
H28 C24 1_555 1_555
O3 Ni2 1_555 1_555
O4 Ni1 1_555 1_555
O5 C28 1_555 1_555
O6 Ni2 1_555 1_555
C25 O3 1_555 1_555
C26 C25 1_555 1_555
H29 C26 1_555 1_555
C27 C26 1_555 1_555
H30 C27 1_555 1_555
C28 O6 1_555 1_555
N5 O7 1_555 1_555
O8 N5 1_555 1_555
O9 N5 1_555 1_555
C16E C16 1_555 1_555
C3E C16E 1_555 1_555
C2E C3E 1_555 1_555
C1E C2E 1_555 1_555
N1E C1E 1_555 1_555
C5E N1E 1_555 1_555
C4E C3E 1_555 1_555
H3E C4E 1_555 1_555
H4E C5E 1_555 1_555
H1E C1E 1_555 1_555
H2E C2E 1_555 1_555
H13E C16E 1_555 1_555
H14E C16E 1_555 1_555
C24F C24 1_555 1_555
C21F C24F 1_555 1_555
C20F C21F 1_555 1_555
C19F C20F 1_555 1_555
N4F C19F 1_555 1_555
C23F N4F 1_555 1_555
C22F C21F 1_555 1_555
H25F C22F 1_555 1_555
H26F C23F 1_555 1_555
H23F C19F 1_555 1_555
H24F C20F 1_555 1_555
H27F C24F 1_555 1_555
H28F C24F 1_555 1_555
O3D Ni2 1_555 1_555
O4D C25D 1_555 1_555
O5D C28D 1_555 1_555
O6D Ni2 1_555 1_555
C25D O3D 1_555 1_555
C26D C25D 1_555 1_555
H29D C26D 1_555 1_555
C27D C26D 1_555 1_555
H30D C27D 1_555 1_555
C28D O6D 1_555 1_555
Ni1D O4D 1_555 1_555
N2G C6G 1_555 1_555
N3G Ni1 1_555 1_555
C6G H5G 1_555 1_555
C7G C6G 1_555 1_555
H6G C7G 1_555 1_555
C8G C7G 1_555 1_555
C9G C8G 1_555 1_555
H7G C9G 1_555 1_555
C10G N2G 1_555 1_555
H8G C10G 1_555 1_555
C11G N3G 1_555 1_555
H9G C11G 1_555 1_555
C12G C11G 1_555 1_555
H10G C12G 1_555 1_555
C13G C12G 1_555 1_555
C14G C13G 1_555 1_555
H11G C14G 1_555 1_555
C15G N3G 1_555 1_555
H12G C15G 1_555 1_555
C17G C8G 1_555 1_555
H15G C17G 1_555 1_555
H16G C17G 1_555 1_555
C18G C13G 1_555 1_555
H17G C18G 1_555 1_555
H18G C18G 1_555 1_555
O1D Ni1D 1_555 1_555
H19D O1D 1_555 1_555
H20D O1D 1_555 1_555
O2D Ni1D 1_555 1_555
H21D O2D 1_555 1_555
H22D O2D 1_555 1_555
Ni1G N3 1_555 1_555
N4D Ni2 1_555 1_555
Ni1E N1E 1_555 1_555
Ni2B N4F 1_555 1_555
N1D Ni1D 1_555 1_555
N2D Ni1D 1_555 1_555
N3C Ni1D 1_555 1_555
Ni1G_2 N2G 1_555 1_555
C4 C5 1_555 1_555
C9 C10 1_555 1_555
C14 C15 1_555 1_555
C17 C18 1_555 1_555
C22 C23 1_555 1_555
O4 C25 1_555 1_555
C27 C28 1_555 1_555
C5E C4E 1_555 1_555
C23F C22F 1_555 1_555
C27D C28D 1_555 1_555
C9G C10G 1_555 1_555
C14G C15G 1_555 1_555
C17G C18G 1_555 1_555

#END
