
#######################################################################
#
#                 Cambridge Crystallographic Data Centre
#                                CCDC 
#
#######################################################################
#
# If this CIF has been generated from an entry in the Cambridge 
# Structural Database, then it will include bibliographic, chemical, 
# crystal, experimental, refinement or atomic coordinate data resulting 
# from the CCDC's data processing and validation procedures.
#
#######################################################################

data_TABVUP
_symmetry_cell_setting           monoclinic
_symmetry_space_group_name_H-M   'C 2/c'
_symmetry_Int_Tables_number      15
_space_group_name_Hall           '-C 2yn'
loop_
_symmetry_equiv_pos_site_id
_symmetry_equiv_pos_as_xyz
1 x,y,z
2 -x,y,1/2-z
3 1/2+x,1/2+y,z
4 1/2-x,1/2+y,1/2-z
5 -x,-y,-z
6 x,-y,1/2+z
7 1/2-x,1/2-y,-z
8 1/2+x,1/2-y,1/2+z
_cell_length_a                   21.974(3)
_cell_length_b                   31.948(4)
_cell_length_c                   14.1566(19)
_cell_angle_alpha                90
_cell_angle_beta                 97.099(2)
_cell_angle_gamma                90
_cell_volume                     9862.11
loop_
_atom_site_label
_atom_site_type_symbol
_atom_site_fract_x
_atom_site_fract_y
_atom_site_fract_z
Co1 Co 0.43779(4) 0.16465(3) -0.18198(6)
Co2 Co 0.43295(4) 0.35829(3) 0.17068(6)
O1 O 0.5006(2) 0.20445(16) -0.1171(4)
O2 O 0.5803(2) 0.20378(17) -0.2007(4)
O3 O 0.4918(2) 0.31440(15) 0.1327(3)
O4 O 0.5844(2) 0.33339(15) 0.2029(3)
O5 O 0.3665(2) 0.20166(15) -0.1276(3)
O6 O 0.2867(2) 0.19057(17) -0.2380(4)
H1 H 0.3111 0.1755 -0.2613
O7 O 0.3635(2) 0.32198(16) 0.0871(4)
O8 O 0.2812(2) 0.36306(17) 0.0770(4)
H2 H 0.3019 0.3752 0.1208
O9 O 0.1400(2) 0.09894(15) -0.1982(3)
O10 O 0.0882(2) 0.06098(18) -0.3140(4)
O11 O 0.3638(2) 0.12699(15) -0.2391(4)
O12 O 0.4099(2) 0.0807(2) -0.3227(5)
O13 O 0.5000 0.1268(2) -0.2500
H3 H 0.4775 0.1084 -0.2831
O14 O 0.5000 0.3979(2) 0.2500
H4 H 0.4740 0.4124 0.2784
N1 N 0.4564(5) 0.1215(3) -0.0603(7)
N2 N 0.4439(3) 0.3897(2) 0.0388(4)
C1 C 0.5784(4) 0.2543(3) -0.0784(6)
C2 C 0.5509(4) 0.2686(3) -0.0034(6)
H5 H 0.5143 0.2568 0.0104
C3 C 0.5785(4) 0.3009(3) 0.0521(6)
C4 C 0.6326(4) 0.3185(3) 0.0332(6)
H6 H 0.6512 0.3390 0.0735
C5 C 0.6605(4) 0.3058(3) -0.0467(6)
C6 C 0.6318(4) 0.2726(3) -0.1007(6)
H7 H 0.6493 0.2627 -0.1529
C7 C 0.5509(3) 0.2176(2) -0.1368(5)
C8 C 0.5500(3) 0.3176(2) 0.1380(4)
C9 C 0.7175(4) 0.3268(3) -0.0739(7)
C10 C 0.7073(5) 0.3404(3) -0.1738(7)
H8 H 0.7029 0.3703 -0.1764
H9 H 0.6707 0.3276 -0.2048
H10 H 0.7417 0.3323 -0.2054
C11 C 0.7672(5) 0.2905(3) -0.0838(8)
H11 H 0.7952 0.2995 -0.1266
H12 H 0.7465 0.2656 -0.1082
H13 H 0.7895 0.2848 -0.0224
C12 C 0.7449(5) 0.3585(3) -0.0075(8)
H14 H 0.7763 0.3732 -0.0355
H15 H 0.7625 0.3452 0.0503
H16 H 0.7139 0.3779 0.0063
C13 C 0.2817(3) 0.2482(2) -0.1345(5)
C14 C 0.3111(3) 0.2727(2) -0.0640(5)
H17 H 0.3514 0.2669 -0.0391
C15 C 0.2803(3) 0.3062(2) -0.0300(5)
C16 C 0.2203(3) 0.3156(2) -0.0707(5)
H18 H 0.2005 0.3388 -0.0491
C17 C 0.1904(3) 0.2914(2) -0.1417(5)
C18 C 0.2214(3) 0.2573(2) -0.1749(5)
H19 H 0.2022 0.2406 -0.2236
C19 C 0.3150(3) 0.2109(2) -0.1670(5)
C20 C 0.3120(3) 0.3313(2) 0.0494(5)
C21 C 0.1237(4) 0.3023(3) -0.1846(7)
C22 C 0.1201(4) 0.3474(3) -0.2157(7)
H20 H 0.1423 0.3511 -0.2694
H21 H 0.1377 0.3649 -0.1642
H22 H 0.0780 0.3551 -0.2331
C23 C 0.0822(4) 0.2950(3) -0.1078(6)
H23 H 0.0406 0.3016 -0.1325
H24 H 0.0950 0.3125 -0.0540
H25 H 0.0846 0.2662 -0.0884
C24 C 0.1009(4) 0.2751(3) -0.2690(7)
H26 H 0.1016 0.2463 -0.2497
H27 H 0.1269 0.2788 -0.3181
H28 H 0.0597 0.2830 -0.2929
C25 C 0.1957(3) 0.0662(2) -0.3125(5)
C26 C 0.2505(4) 0.0848(3) -0.2810(7)
H29 H 0.2530 0.1039 -0.2311
C27 C 0.3028(4) 0.0750(3) -0.3243(7)
C28 C 0.2983(4) 0.0480(3) -0.4007(7)
H30 H 0.3331 0.0420 -0.4295
C29 C 0.2432(4) 0.0296(3) -0.4355(8)
C30 C 0.1922(4) 0.0384(3) -0.3911(7)
H31 H 0.1550 0.0259 -0.4131
C31 C 0.1368(3) 0.0758(2) -0.2730(5)
C32 C 0.3638(3) 0.0955(2) -0.2938(5)
C33 C 0.2377(5) 0.0040(4) -0.5329(8)
C34 C 0.1802(5) 0.0089(4) -0.5880(8)
H32 H 0.1495 0.0144 -0.5469
H33 H 0.1819 0.0319 -0.6313
H34 H 0.1699 -0.0163 -0.6235
C35 C 0.2387(5) -0.0411(4) -0.4918(8)
H35 H 0.2278 -0.0607 -0.5426
H36 H 0.2791 -0.0474 -0.4612
H37 H 0.2099 -0.0432 -0.4464
C36 C 0.2930(5) 0.0092(4) -0.5874(8)
H38 H 0.2885 0.0343 -0.6246
H39 H 0.3297 0.0108 -0.5432
H40 H 0.2955 -0.0144 -0.6287
C37 C 0.5122(6) 0.1205(4) -0.0153(9)
H41 H 0.5419 0.1386 -0.0333
C38 C 0.5276(6) 0.0919(4) 0.0610(9)
H42 H 0.5652 0.0941 0.0987
C39 C 0.4867(6) 0.0609(4) 0.0792(9)
C40 C 0.4272(6) 0.0655(4) 0.0370(8)
H43 H 0.3959 0.0491 0.0561
C41 C 0.4152(6) 0.0947(4) -0.0338(9)
H44 H 0.3755 0.0959 -0.0656
C42 C 0.4952(6) 0.0301(4) 0.1587(8)
H45 H 0.4605 0.0110 0.1542
H46 H 0.5321 0.0138 0.1552
C43 C 0.5000 0.0534(6) 0.2500
H47 H 0.4644 0.0715 0.2477
C44 C 0.4445(4) 0.3674(3) -0.0412(6)
H48 H 0.4436 0.3384 -0.0365
C45 C 0.4463(5) 0.3848(3) -0.1310(6)
H49 H 0.4471 0.3678 -0.1842
C46 C 0.4468(4) 0.4281(3) -0.1391(6)
C47 C 0.4472(5) 0.4518(3) -0.0559(8)
H50 H 0.4482 0.4809 -0.0585
C48 C 0.4461(4) 0.4318(3) 0.0291(6)
H51 H 0.4468 0.4481 0.0837
C49 C 0.4444(6) 0.4509(4) -0.2349(8)
H52 H 0.4379 0.4302 -0.2853
H53 H 0.4090 0.4693 -0.2415
C50 C 0.5000 0.4764(5) -0.2500
H54 H 0.5103 0.4943 -0.1951
Co1A Co 0.56221(4) 0.16465(3) -0.31802(6)
Co1A_2 Co 0.56221(4) 0.16465(3) 0.68198(6)
Co1F Co 0.06221(4) 0.33535(3) 0.18198(6)
Co2A Co 0.56705(4) 0.35829(3) -0.67068(6)
Co2A_2 Co 0.56705(4) 0.35829(3) 0.32932(6)
Co2F Co 0.06705(4) 0.14171(3) -0.17068(6)
Co2_2 Co 0.43295(4) 0.35829(3) -0.82932(6)
O1A O 0.4994(2) 0.20445(16) -0.3829(4)
O2A O 0.4197(2) 0.20378(17) -0.2993(4)
O3A O 0.5082(2) 0.31440(15) -0.6327(3)
O4A O 0.4156(2) 0.33339(15) -0.7029(3)
O4A_2 O 0.4156(2) 0.33339(15) 0.2971(3)
O4_2 O 0.5844(2) 0.33339(15) -0.7971(3)
O5A O 0.6335(2) 0.20166(15) -0.3724(3)
O6A O 0.7133(2) 0.19057(17) -0.2620(4)
H1A H 0.6889 0.1755 -0.2387
O7A O 0.6365(2) 0.32198(16) -0.5871(4)
O8A O 0.7188(2) 0.36306(17) -0.5770(4)
H2A H 0.6981 0.3752 -0.6208
O9F O 0.3600(2) 0.40106(15) 0.1982(3)
O9G O 0.6400(2) 0.40106(15) -0.6982(3)
O10F O 0.4118(2) 0.43902(18) 0.3140(4)
O11F O 0.1362(2) 0.37301(15) 0.2391(4)
O11A O 0.6362(2) 0.12699(15) -0.2609(4)
O12F O 0.0901(2) 0.4193(2) 0.3227(5)
H3A H 0.5225 0.1084 -0.2169
O14_2 O 0.5000 0.3979(2) -0.7500
H4A H 0.5260 0.4124 0.2216
H4A_2 H 0.5260 0.4124 -0.7784
H4_2 H 0.4740 0.4124 -0.7216
N1A N 0.5436(5) 0.1215(3) 0.5603(7)
N1A_2 N 0.5436(5) 0.1215(3) -0.4397(7)
N2A N 0.5561(3) 0.3897(2) -0.5388(4)
C1A C 0.4216(4) 0.2543(3) -0.4216(6)
C2A C 0.4491(4) 0.2686(3) -0.4966(6)
H5A H 0.4857 0.2568 -0.5104
C3A C 0.4215(4) 0.3009(3) -0.5521(6)
C4A C 0.3674(4) 0.3185(3) -0.5332(6)
H6A H 0.3488 0.3390 -0.5735
C5A C 0.3395(4) 0.3058(3) -0.4533(6)
C6A C 0.3682(4) 0.2726(3) -0.3993(6)
H7A H 0.3507 0.2627 -0.3471
C7A C 0.4491(3) 0.2176(2) -0.3632(5)
C8A C 0.4500(3) 0.3176(2) -0.6380(4)
C9A C 0.2825(4) 0.3268(3) -0.4261(7)
C10A C 0.2927(5) 0.3404(3) -0.3262(7)
H8A H 0.2971 0.3703 -0.3236
H9A H 0.3293 0.3276 -0.2952
H10A H 0.2583 0.3323 -0.2946
C11A C 0.2328(5) 0.2905(3) -0.4162(8)
H11A H 0.2048 0.2995 -0.3734
H12A H 0.2535 0.2656 -0.3918
H13A H 0.2105 0.2848 -0.4776
C12A C 0.2551(5) 0.3585(3) -0.4925(8)
H14A H 0.2237 0.3732 -0.4645
H15A H 0.2375 0.3452 -0.5503
H16A H 0.2861 0.3779 -0.5063
C13A C 0.7183(3) 0.2482(2) -0.3655(5)
C14A C 0.6889(3) 0.2727(2) -0.4360(5)
H17A H 0.6486 0.2669 -0.4609
C15A C 0.7197(3) 0.3062(2) -0.4700(5)
C16A C 0.7797(3) 0.3156(2) -0.4293(5)
H18A H 0.7995 0.3388 -0.4509
C17A C 0.8096(3) 0.2914(2) -0.3583(5)
C18A C 0.7786(3) 0.2573(2) -0.3251(5)
H19A H 0.7978 0.2406 -0.2764
C19A C 0.6850(3) 0.2109(2) -0.3330(5)
C20A C 0.6880(3) 0.3313(2) -0.5494(5)
C21A C 0.8763(4) 0.3023(3) -0.3154(7)
C22A C 0.8799(4) 0.3474(3) -0.2843(7)
H20A H 0.8577 0.3511 -0.2306
H21A H 0.8623 0.3649 -0.3358
H22A H 0.9220 0.3551 -0.2669
C23A C 0.9178(4) 0.2950(3) -0.3922(6)
H23A H 0.9594 0.3016 -0.3675
H24A H 0.9050 0.3125 -0.4460
H25A H 0.9154 0.2662 -0.4116
C24A C 0.8991(4) 0.2751(3) -0.2310(7)
H26A H 0.8984 0.2463 -0.2503
H27A H 0.8731 0.2788 -0.1819
H28A H 0.9403 0.2830 -0.2071
C25F C 0.3043(3) 0.4338(2) 0.3125(5)
C26F C 0.2495(4) 0.4152(3) 0.2810(7)
H29F H 0.2470 0.3961 0.2311
C27F C 0.1972(4) 0.4250(3) 0.3243(7)
C28F C 0.2017(4) 0.4520(3) 0.4007(7)
H30F H 0.1669 0.4580 0.4295
C29F C 0.2568(4) 0.4704(3) 0.4355(8)
C30F C 0.3078(4) 0.4616(3) 0.3911(7)
H31F H 0.3450 0.4741 0.4131
C31F C 0.3632(3) 0.4242(2) 0.2730(5)
C32F C 0.1362(3) 0.4045(2) 0.2938(5)
C33F C 0.2623(5) 0.4960(4) 0.5329(8)
C34F C 0.3198(5) 0.4911(4) 0.5880(8)
H32F H 0.3505 0.4856 0.5469
H33F H 0.3181 0.4681 0.6313
H34F H 0.3301 0.5163 0.6235
C35F C 0.2613(5) 0.5411(4) 0.4918(8)
H35F H 0.2722 0.5607 0.5426
H36F H 0.2209 0.5474 0.4612
H37F H 0.2901 0.5432 0.4464
C36F C 0.2070(5) 0.4908(4) 0.5874(8)
H38F H 0.2115 0.4657 0.6246
H39F H 0.1703 0.4892 0.5432
H40F H 0.2045 0.5144 0.6287
C37A C 0.4878(6) 0.1205(4) 0.5153(9)
H41A H 0.4581 0.1386 0.5333
C38A C 0.4724(6) 0.0919(4) 0.4390(9)
H42A H 0.4348 0.0941 0.4013
C39A C 0.5133(6) 0.0609(4) 0.4208(9)
C40A C 0.5728(6) 0.0655(4) 0.4630(8)
H43A H 0.6041 0.0491 0.4439
C41A C 0.5848(6) 0.0947(4) 0.5338(9)
H44A H 0.6245 0.0959 0.5656
C42A C 0.5048(6) 0.0301(4) 0.3413(8)
H45A H 0.5395 0.0110 0.3458
H46A H 0.4679 0.0138 0.3448
H47A H 0.5356 0.0715 0.2523
C44A C 0.5555(4) 0.3674(3) -0.4588(6)
H48A H 0.5564 0.3384 -0.4635
C45A C 0.5537(5) 0.3848(3) -0.3690(6)
H49A H 0.5529 0.3678 -0.3158
C46A C 0.5532(4) 0.4281(3) -0.3609(6)
C47A C 0.5528(5) 0.4518(3) -0.4441(8)
H50A H 0.5518 0.4809 -0.4415
C48A C 0.5539(4) 0.4318(3) -0.5291(6)
H51A H 0.5532 0.4481 -0.5837
C49A C 0.5556(6) 0.4509(4) -0.2651(8)
H52A H 0.5621 0.4302 -0.2147
H53A H 0.5910 0.4693 -0.2585
H54A H 0.4897 0.4943 -0.3049
loop_
_geom_bond_atom_site_label_1
_geom_bond_atom_site_label_2
_geom_bond_site_symmetry_1
_geom_bond_site_symmetry_2
Co1 O1 1_555 1_555
Co2 O3 1_555 1_555
O1 C7 1_555 1_555
O2 C7 1_555 1_555
O3 C8 1_555 1_555
O4 C8 1_555 1_555
O5 Co1 1_555 1_555
O6 H1 1_555 1_555
O7 Co2 1_555 1_555
O8 H2 1_555 1_555
O9 C31 1_555 1_555
O10 C31 1_555 1_555
O11 Co1 1_555 1_555
O12 C32 1_555 1_555
O13 Co1 1_555 1_555
H3 O13 1_555 1_555
O14 Co2 1_555 1_555
H4 O14 1_555 1_555
N1 Co1 1_555 1_555
N2 Co2 1_555 1_555
C1 C2 1_555 1_555
C2 H5 1_555 1_555
C3 C2 1_555 1_555
C4 C3 1_555 1_555
H6 C4 1_555 1_555
C5 C4 1_555 1_555
C6 C1 1_555 1_555
H7 C6 1_555 1_555
C7 C1 1_555 1_555
C8 C3 1_555 1_555
C9 C5 1_555 1_555
C10 C9 1_555 1_555
H8 C10 1_555 1_555
H9 C10 1_555 1_555
H10 C10 1_555 1_555
C11 C9 1_555 1_555
H11 C11 1_555 1_555
H12 C11 1_555 1_555
H13 C11 1_555 1_555
C12 C9 1_555 1_555
H14 C12 1_555 1_555
H15 C12 1_555 1_555
H16 C12 1_555 1_555
C13 C14 1_555 1_555
C14 H17 1_555 1_555
C15 C14 1_555 1_555
C16 C15 1_555 1_555
H18 C16 1_555 1_555
C17 C16 1_555 1_555
C18 C13 1_555 1_555
H19 C18 1_555 1_555
C19 O5 1_555 1_555
C20 O7 1_555 1_555
C21 C17 1_555 1_555
C22 C21 1_555 1_555
H20 C22 1_555 1_555
H21 C22 1_555 1_555
H22 C22 1_555 1_555
C23 C21 1_555 1_555
H23 C23 1_555 1_555
H24 C23 1_555 1_555
H25 C23 1_555 1_555
C24 C21 1_555 1_555
H26 C24 1_555 1_555
H27 C24 1_555 1_555
H28 C24 1_555 1_555
C25 C26 1_555 1_555
C26 H29 1_555 1_555
C27 C26 1_555 1_555
C28 C27 1_555 1_555
H30 C28 1_555 1_555
C29 C28 1_555 1_555
C30 C25 1_555 1_555
H31 C30 1_555 1_555
C31 C25 1_555 1_555
C32 O11 1_555 1_555
C33 C29 1_555 1_555
C34 C33 1_555 1_555
H32 C34 1_555 1_555
H33 C34 1_555 1_555
H34 C34 1_555 1_555
C35 C33 1_555 1_555
H35 C35 1_555 1_555
H36 C35 1_555 1_555
H37 C35 1_555 1_555
C36 C33 1_555 1_555
H38 C36 1_555 1_555
H39 C36 1_555 1_555
H40 C36 1_555 1_555
C37 N1 1_555 1_555
H41 C37 1_555 1_555
C38 C37 1_555 1_555
H42 C38 1_555 1_555
C39 C38 1_555 1_555
C40 C39 1_555 1_555
H43 C40 1_555 1_555
C41 N1 1_555 1_555
H44 C41 1_555 1_555
C42 C39 1_555 1_555
H45 C42 1_555 1_555
H46 C42 1_555 1_555
C43 C42 1_555 1_555
H47 C43 1_555 1_555
C44 N2 1_555 1_555
H48 C44 1_555 1_555
C45 C44 1_555 1_555
H49 C45 1_555 1_555
C46 C45 1_555 1_555
C47 C46 1_555 1_555
H50 C47 1_555 1_555
C48 N2 1_555 1_555
H51 C48 1_555 1_555
C49 C46 1_555 1_555
H52 C49 1_555 1_555
H53 C49 1_555 1_555
C50 C49 1_555 1_555
H54 C50 1_555 1_555
Co1A O2 1_555 1_555
Co1A_2 N1A 1_555 1_555
Co1F O11F 1_555 1_555
Co2A O3A 1_555 1_555
Co2A_2 O4 1_555 1_555
Co2F O9 1_555 1_555
Co2_2 O4A 1_555 1_555
O1A Co1A 1_555 1_555
O2A Co1 1_555 1_555
O3A C8A 1_555 1_555
O4A C8A 1_555 1_555
O4A_2 Co2 1_555 1_555
O4_2 Co2A 1_555 1_555
O5A Co1A 1_555 1_555
O6A H1A 1_555 1_555
O7A Co2A 1_555 1_555
O8A H2A 1_555 1_555
O9F Co2 1_555 1_555
O9G Co2A 1_555 1_555
O10F C31F 1_555 1_555
O11F C32F 1_555 1_555
O11A Co1A 1_555 1_555
O12F C32F 1_555 1_555
H3A O13 1_555 1_555
O14_2 Co2A 1_555 1_555
H4A O14 1_555 1_555
H4A_2 O14_2 1_555 1_555
H4_2 O14_2 1_555 1_555
N1A C37A 1_555 1_555
N1A_2 Co1A 1_555 1_555
N2A Co2A 1_555 1_555
C1A C2A 1_555 1_555
C2A H5A 1_555 1_555
C3A C2A 1_555 1_555
C4A C3A 1_555 1_555
H6A C4A 1_555 1_555
C5A C4A 1_555 1_555
C6A C1A 1_555 1_555
H7A C6A 1_555 1_555
C7A O1A 1_555 1_555
C8A C3A 1_555 1_555
C9A C5A 1_555 1_555
C10A C9A 1_555 1_555
H8A C10A 1_555 1_555
H9A C10A 1_555 1_555
H10A C10A 1_555 1_555
C11A C9A 1_555 1_555
H11A C11A 1_555 1_555
H12A C11A 1_555 1_555
H13A C11A 1_555 1_555
C12A C9A 1_555 1_555
H14A C12A 1_555 1_555
H15A C12A 1_555 1_555
H16A C12A 1_555 1_555
C13A C14A 1_555 1_555
C14A H17A 1_555 1_555
C15A C14A 1_555 1_555
C16A C15A 1_555 1_555
H18A C16A 1_555 1_555
C17A C16A 1_555 1_555
C18A C13A 1_555 1_555
H19A C18A 1_555 1_555
C19A O5A 1_555 1_555
C20A O7A 1_555 1_555
C21A C17A 1_555 1_555
C22A C21A 1_555 1_555
H20A C22A 1_555 1_555
H21A C22A 1_555 1_555
H22A C22A 1_555 1_555
C23A C21A 1_555 1_555
H23A C23A 1_555 1_555
H24A C23A 1_555 1_555
H25A C23A 1_555 1_555
C24A C21A 1_555 1_555
H26A C24A 1_555 1_555
H27A C24A 1_555 1_555
H28A C24A 1_555 1_555
C25F C26F 1_555 1_555
C26F H29F 1_555 1_555
C27F C26F 1_555 1_555
C28F C27F 1_555 1_555
H30F C28F 1_555 1_555
C29F C28F 1_555 1_555
C30F C25F 1_555 1_555
H31F C30F 1_555 1_555
C31F O9F 1_555 1_555
C32F C27F 1_555 1_555
C33F C29F 1_555 1_555
C34F C33F 1_555 1_555
H32F C34F 1_555 1_555
H33F C34F 1_555 1_555
H34F C34F 1_555 1_555
C35F C33F 1_555 1_555
H35F C35F 1_555 1_555
H36F C35F 1_555 1_555
H37F C35F 1_555 1_555
C36F C33F 1_555 1_555
H38F C36F 1_555 1_555
H39F C36F 1_555 1_555
H40F C36F 1_555 1_555
C37A H41A 1_555 1_555
C38A C37A 1_555 1_555
H42A C38A 1_555 1_555
C39A C38A 1_555 1_555
C40A C39A 1_555 1_555
H43A C40A 1_555 1_555
C41A N1A 1_555 1_555
H44A C41A 1_555 1_555
C42A C43 1_555 1_555
H45A C42A 1_555 1_555
H46A C42A 1_555 1_555
H47A C43 1_555 1_555
C44A N2A 1_555 1_555
H48A C44A 1_555 1_555
C45A C44A 1_555 1_555
H49A C45A 1_555 1_555
C46A C45A 1_555 1_555
C47A C46A 1_555 1_555
H50A C47A 1_555 1_555
C48A N2A 1_555 1_555
H51A C48A 1_555 1_555
C49A C50 1_555 1_555
H52A C49A 1_555 1_555
H53A C49A 1_555 1_555
H54A C50 1_555 1_555
O6 C19 1_555 1_555
O8 C20 1_555 1_555
O13 Co1A 1_555 1_555
O14 Co2A_2 1_555 1_555
C5 C6 1_555 1_555
C13 C19 1_555 1_555
C15 C20 1_555 1_555
C17 C18 1_555 1_555
C27 C32 1_555 1_555
C29 C30 1_555 1_555
C40 C41 1_555 1_555
C47 C48 1_555 1_555
Co2_2 O14_2 1_555 1_555
O2A C7A 1_555 1_555
O6A C19A 1_555 1_555
O8A C20A 1_555 1_555
C1A C7A 1_555 1_555
C5A C6A 1_555 1_555
C13A C19A 1_555 1_555
C15A C20A 1_555 1_555
C17A C18A 1_555 1_555
C25F C31F 1_555 1_555
C29F C30F 1_555 1_555
C39A C42A 1_555 1_555
C40A C41A 1_555 1_555
C46A C49A 1_555 1_555
C47A C48A 1_555 1_555

#END
