
#######################################################################
#
#                 Cambridge Crystallographic Data Centre
#                                CCDC 
#
#######################################################################
#
# If this CIF has been generated from an entry in the Cambridge 
# Structural Database, then it will include bibliographic, chemical, 
# crystal, experimental, refinement or atomic coordinate data resulting 
# from the CCDC's data processing and validation procedures.
#
#######################################################################

data_TABVEZ
_symmetry_cell_setting           monoclinic
_symmetry_space_group_name_H-M   'P 21'
_symmetry_Int_Tables_number      4
_space_group_name_Hall           'P 2yb'
loop_
_symmetry_equiv_pos_site_id
_symmetry_equiv_pos_as_xyz
1 x,y,z
2 -x,1/2+y,-z
_cell_length_a                   10.9527(17)
_cell_length_b                   39.602(6)
_cell_length_c                   13.043(2)
_cell_angle_alpha                90
_cell_angle_beta                 113.813(3)
_cell_angle_gamma                90
_cell_volume                     5175.76
loop_
_atom_site_label
_atom_site_type_symbol
_atom_site_fract_x
_atom_site_fract_y
_atom_site_fract_z
Mn1 Mn 0.8529(2) 0.73983(5) 0.05865(16)
Mn2 Mn 0.98814(16) 0.66892(4) 0.11874(13)
Mn3 Mn 0.81138(15) 0.61753(4) 0.26483(12)
Mn4 Mn 1.01994(15) 0.55440(4) 0.35448(12)
Mn5 Mn 0.86904(15) 0.56489(4) 0.48802(12)
Mn6 Mn 0.91613(16) 1.00285(4) 0.42010(12)
Mn7 Mn 1.08986(16) 0.95227(4) 0.26871(13)
Mn8 Mn 0.9338(2) 0.88477(5) 0.18667(17)
N1 N 0.7539(9) 0.7347(2) -0.1222(8)
C1 C 0.6513(15) 0.7556(3) -0.1825(11)
H1 H 0.6136 0.7694 -0.1431
C2 C 0.599(2) 0.7579(4) -0.2976(13)
H2 H 0.5282 0.7729 -0.3369
C3 C 0.6567(17) 0.7365(4) -0.3568(14)
H3 H 0.6192 0.7362 -0.4364
C4 C 0.7635(17) 0.7169(5) -0.2988(11)
H4 H 0.8078 0.7043 -0.3355
C5 C 0.8060(12) 0.7161(3) -0.1821(10)
C6 C 0.9310(13) 0.6924(3) -0.1066(10)
O1 O 0.9739(8) 0.7012(2) 0.0014(7)
O2 O 1.0246(9) 0.6941(2) -0.1550(7)
C7 C 1.0822(14) 0.7268(4) -0.1439(11)
H5 H 1.1472 0.7270 -0.1779
H6 H 1.1271 0.7326 -0.0642
H7 H 1.0119 0.7434 -0.1818
C8 C 0.8800(12) 0.6550(3) -0.1279(10)
C9 C 0.8547(13) 0.6375(3) -0.2262(9)
H8 H 0.8657 0.6481 -0.2872
C10 C 0.8139(12) 0.6047(3) -0.2343(9)
H9 H 0.7951 0.5922 -0.3011
C11 C 0.8005(11) 0.5902(3) -0.1451(10)
H10 H 0.7697 0.5676 -0.1490
C12 C 0.8324(13) 0.6088(3) -0.0499(11)
H11 H 0.8272 0.5982 0.0136
N2 N 0.8697(10) 0.6402(2) -0.0414(7)
O3 O 1.0268(10) 0.7521(2) 0.2004(8)
O4 O 1.1372(8) 0.7036(2) 0.2297(6)
C13 C 1.1304(14) 0.7338(4) 0.2535(12)
C14 C 1.250(2) 0.7486(5) 0.3565(19)
H12 H 1.2147 0.7563 0.4114
H13 H 1.3124 0.7298 0.3919
C15 C 1.328(2) 0.7761(7) 0.340(2)
H14 H 1.2680 0.7922 0.2863
H15 H 1.3913 0.7671 0.3115
H16 H 1.3767 0.7875 0.4119
O5 O 0.8253(11) 0.7919(2) 0.0341(8)
C16 C 0.9012(16) 0.8143(4) 0.0683(13)
H17 H 0.9744 0.8161 0.0472
O6 O 0.8859(13) 0.8355(3) 0.1312(10)
N3 N 0.6663(9) 0.7386(3) 0.1009(7)
C17 C 0.5645(13) 0.7598(3) 0.0678(10)
H18 H 0.5745 0.7800 0.0327
C18 C 0.4538(16) 0.7560(3) 0.0779(10)
H19 H 0.3903 0.7739 0.0558
C19 C 0.4245(13) 0.7263(4) 0.1206(10)
H20 H 0.3420 0.7225 0.1266
C20 C 0.5304(13) 0.7022(3) 0.1544(11)
H21 H 0.5185 0.6811 0.1836
C21 C 0.6487(13) 0.7088(3) 0.1458(10)
C22 C 0.7564(11) 0.6829(3) 0.1835(9)
O7 O 0.8442(8) 0.69103(18) 0.1293(6)
O8 O 0.7164(7) 0.6509(2) 0.1612(6)
C23 C 0.8445(10) 0.6882(3) 0.3133(9)
C24 C 0.8749(12) 0.7189(3) 0.3612(10)
H22 H 0.8433 0.7387 0.3176
C25 C 0.9542(14) 0.7211(4) 0.4773(11)
H23 H 0.9805 0.7422 0.5145
C26 C 0.9935(11) 0.6889(3) 0.5364(9)
H24 H 1.0476 0.6884 0.6146
C27 C 0.9517(11) 0.6602(3) 0.4784(8)
H25 H 0.9755 0.6395 0.5184
N4 N 0.8784(8) 0.6587(2) 0.3676(8)
N5 N 1.1470(8) 0.6420(2) 0.1201(7)
C28 C 1.2174(12) 0.6480(3) 0.0623(8)
H26 H 1.1938 0.6669 0.0131
C29 C 1.3288(12) 0.6277(4) 0.0686(11)
H27 H 1.3760 0.6314 0.0224
C30 C 1.3626(10) 0.6014(3) 0.1509(9)
H28 H 1.4394 0.5880 0.1638
C31 C 1.2913(10) 0.5950(3) 0.2090(9)
H29 H 1.3117 0.5764 0.2591
C32 C 1.1847(10) 0.6165(3) 0.1949(8)
C33 C 1.0954(11) 0.6111(3) 0.2593(9)
O9 O 0.9928(7) 0.63516(18) 0.2233(5)
O10 O 1.0463(7) 0.57956(18) 0.2424(6)
C34 C 1.1822(10) 0.6180(3) 0.3843(8)
C35 C 1.2322(10) 0.6478(3) 0.4300(9)
H30 H 1.2111 0.6674 0.3843
C36 C 1.3138(11) 0.6505(3) 0.5420(9)
H31 H 1.3446 0.6720 0.5743
C37 C 1.3516(11) 0.6212(3) 0.6089(9)
H32 H 1.4140 0.6218 0.6848
C38 C 1.2909(13) 0.5908(3) 0.5558(10)
H33 H 1.3111 0.5708 0.5994
O11 O 0.7376(7) 0.58224(19) 0.1514(5)
N6 N 1.2078(9) 0.5887(2) 0.4494(7)
O12 O 0.8465(7) 0.53413(16) 0.2174(6)
C39 C 0.7586(10) 0.5511(3) 0.1444(9)
C40 C 0.6661(11) 0.5337(3) 0.0390(9)
H34 H 0.6768 0.5438 -0.0263
H35 H 0.5725 0.5372 0.0293
C41 C 0.698(2) 0.4925(4) 0.0444(15)
H36 H 0.7850 0.4889 0.0408
H37 H 0.6285 0.4812 -0.0191
H38 H 0.7004 0.4832 0.1146
O13 O 0.6441(7) 0.6144(2) 0.3208(6)
O14 O 0.7520(7) 0.60065(18) 0.5012(6)
C42 C 0.6587(11) 0.6145(3) 0.4228(8)
C43 C 0.5599(13) 0.6353(3) 0.4528(10)
H39 H 0.4727 0.6235 0.4233
H40 H 0.5921 0.6361 0.5354
C44 C 0.541(2) 0.6679(5) 0.4127(19)
H41 H 0.6245 0.6805 0.4465
H42 H 0.4724 0.6789 0.4321
H43 H 0.5110 0.6676 0.3311
O15 O 0.9113(7) 0.58802(17) 0.3787(5)
O16 O 0.9821(6) 0.53094(18) 0.4659(5)
O17 O 1.0394(8) 0.5860(2) 0.6280(6)
O18 O 1.1612(7) 0.53852(19) 0.6902(6)
C45 C 1.1327(11) 0.5704(3) 0.6964(8)
C46 C 1.2295(12) 0.5882(3) 0.7992(10)
H44 H 1.1832 0.5934 0.8486
H45 H 1.2548 0.6099 0.7758
C47 C 1.3593(17) 0.5683(6) 0.8685(15)
H46 H 1.3393 0.5505 0.9117
H47 H 1.4258 0.5838 0.9199
H48 H 1.3947 0.5581 0.8177
O19 O 1.1321(7) 0.51844(18) 0.3363(5)
O20 O 1.2458(6) 0.5057(2) 0.5166(5)
C48 C 1.2311(10) 0.5041(3) 0.4212(10)
C49 C 1.3188(12) 0.4849(3) 0.3841(11)
H49 H 1.3943 0.4996 0.3893
H50 H 1.2691 0.4790 0.3042
C50 C 1.3778(14) 0.4509(4) 0.4535(11)
H51 H 1.4424 0.4567 0.5290
H52 H 1.4221 0.4376 0.4152
H53 H 1.3049 0.4377 0.4588
N7 N 0.6883(8) 0.5292(2) 0.3939(7)
C51 C 0.6074(11) 0.5255(3) 0.2862(9)
H54 H 0.5858 0.5447 0.2385
C52 C 0.5558(13) 0.4954(4) 0.2436(9)
H55 H 0.4955 0.4944 0.1670
C53 C 0.5842(13) 0.4666(4) 0.3026(11)
H56 H 0.5498 0.4456 0.2676
C54 C 0.6672(12) 0.4683(3) 0.4191(10)
H57 H 0.6901 0.4491 0.4665
C55 C 0.7132(12) 0.5019(3) 0.4586(10)
C56 C 0.7971(10) 0.5086(3) 0.5837(8)
O21 O 0.8441(7) 0.54096(18) 0.6019(5)
O22 O 0.9040(7) 0.48461(19) 0.6236(5)
C57 C 0.7118(10) 0.5024(3) 0.6508(8)
C58 C 0.6036(12) 0.5235(3) 0.6363(9)
H58 H 0.5798 0.5416 0.5840
C59 C 0.5312(12) 0.5170(3) 0.7022(9)
H59 H 0.4587 0.5312 0.6962
C60 C 0.5629(11) 0.4918(3) 0.7707(9)
H60 H 0.5101 0.4867 0.8113
C61 C 0.6727(12) 0.4724(3) 0.7853(11)
H61 H 0.7010 0.4554 0.8415
N8 N 0.7412(9) 0.4774(2) 0.7198(8)
N9 N 0.9774(8) 0.9603(2) 0.5158(6)
C62 C 1.0539(11) 0.9594(4) 0.6276(9)
H62 H 1.0802 0.9796 0.6701
C63 C 1.0935(12) 0.9273(3) 0.6793(10)
H63 H 1.1444 0.9260 0.7578
C64 C 1.0593(11) 0.8988(3) 0.6174(9)
H64 H 1.0934 0.8778 0.6521
C65 C 0.9801(12) 0.8995(3) 0.5106(11)
H65 H 0.9499 0.8791 0.4698
C66 C 0.9401(12) 0.9313(3) 0.4570(9)
C67 C 0.8615(11) 0.9370(3) 0.3311(9)
O23 O 0.8137(8) 0.9707(2) 0.3158(6)
O24 O 0.9415(7) 0.92986(18) 0.2718(6)
C68 C 0.7425(13) 0.9131(3) 0.2863(9)
C69 C 0.6241(13) 0.9186(3) 0.3037(10)
H66 H 0.6164 0.9382 0.3426
C70 C 0.5260(14) 0.8971(4) 0.2671(12)
H67 H 0.4467 0.9013 0.2781
C71 C 0.5373(14) 0.8671(4) 0.2103(12)
H68 H 0.4676 0.8508 0.1843
C72 C 0.6534(14) 0.8629(4) 0.1952(10)
H69 H 0.6638 0.8432 0.1577
N10 N 0.7553(12) 0.8862(3) 0.2324(8)
O25 O 1.2251(9) 0.9142(2) 0.3795(7)
O26 O 1.1014(12) 0.8672(2) 0.3274(9)
C73 C 1.1976(17) 0.8821(5) 0.3856(13)
C74 C 1.298(2) 0.8645(5) 0.4862(16)
H70 H 1.2696 0.8679 0.5484
H71 H 1.2902 0.8400 0.4691
C75 C 1.420(2) 0.8716(7) 0.5237(18)
H72 H 1.4670 0.8543 0.4995
H73 H 1.4566 0.8722 0.6058
H74 H 1.4318 0.8937 0.4952
N11 N 0.9856(9) 0.9844(2) 0.1158(7)
C76 C 0.9512(12) 1.0173(3) 0.1115(9)
H75 H 0.9432 1.0270 0.1751
C77 C 0.9281(12) 1.0368(3) 0.0224(9)
H76 H 0.9071 1.0600 0.0239
C78 C 0.9351(12) 1.0227(4) -0.0735(10)
H77 H 0.9160 1.0360 -0.1387
C79 C 0.9697(11) 0.9896(4) -0.0722(10)
H78 H 0.9790 0.9800 -0.1354
C80 C 0.9917(12) 0.9695(3) 0.0236(8)
C81 C 1.0218(13) 0.9327(3) 0.0327(10)
O27 O 1.0700(9) 0.9217(2) 0.1447(6)
O28 O 1.1308(8) 0.9305(2) -0.0033(7)
C82 C 1.1942(15) 0.8979(3) 0.0085(11)
H79 H 1.2645 0.8991 -0.0198
H80 H 1.1277 0.8810 -0.0344
H81 H 1.2335 0.8914 0.0878
C83 C 0.9112(14) 0.9135(3) -0.0400(11)
C84 C 0.8717(14) 0.9098(3) -0.1557(10)
H82 H 0.9291 0.9182 -0.1883
C85 C 0.7494(16) 0.8938(4) -0.2276(14)
H83 H 0.7176 0.8940 -0.3070
C86 C 0.6847(15) 0.8789(4) -0.1734(13)
H84 H 0.6108 0.8649 -0.2152
C87 C 0.7167(13) 0.8823(3) -0.0643(11)
H85 H 0.6596 0.8731 -0.0326
N12 N 0.8292(11) 0.8986(3) 0.0025(8)
Mn6A Mn 1.08387(16) 0.50285(4) 0.57990(12)
Mn7A Mn 0.91014(16) 0.45227(4) 0.73129(13)
O16A O 1.0179(6) 1.03094(18) 0.5341(5)
O18A O 0.8388(7) 1.03852(19) 0.3098(6)
O20A O 0.7542(6) 1.0057(2) 0.4834(5)
O22A O 1.0960(7) 0.98461(19) 0.3764(5)
N8A N 1.2588(9) 0.9774(2) 0.2802(8)
Cl1 Cl 1.3556(4) 0.83686(11) 0.8436(3)
O29 O 1.398(2) 0.8332(4) 0.9582(11)
O30 O 1.3619(13) 0.8731(4) 0.8215(12)
O31 O 1.4477(16) 0.8185(4) 0.8241(19)
O32 O 1.2177(13) 0.8268(5) 0.7882(15)
O33 O 1.4641(8) 0.1413(3) 0.0599(7)
C88 C 1.4556(14) 0.1684(3) 0.1213(10)
O34 O 0.9721(13) 0.3013(3) 0.6226(11)
O35 O 0.3503(12) 0.4793(3) 0.9161(10)
loop_
_geom_bond_atom_site_label_1
_geom_bond_atom_site_label_2
_geom_bond_site_symmetry_1
_geom_bond_site_symmetry_2
Mn1 N1 1_555 1_555
Mn2 O1 1_555 1_555
Mn3 O8 1_555 1_555
Mn4 O10 1_555 1_555
Mn5 O14 1_555 1_555
Mn6 N9 1_555 1_555
Mn7 O24 1_555 1_555
Mn8 O6 1_555 1_555
Cl1 O29 1_555 1_555
N1 C1 1_555 1_555
C1 H1 1_555 1_555
C2 C1 1_555 1_555
H2 C2 1_555 1_555
C3 C2 1_555 1_555
H3 C3 1_555 1_555
C4 C3 1_555 1_555
H4 C4 1_555 1_555
C5 N1 1_555 1_555
C6 C5 1_555 1_555
O1 Mn1 1_555 1_555
O2 C6 1_555 1_555
C7 O2 1_555 1_555
H5 C7 1_555 1_555
H6 C7 1_555 1_555
H7 C7 1_555 1_555
C8 C6 1_555 1_555
C9 C8 1_555 1_555
H8 C9 1_555 1_555
C10 C9 1_555 1_555
H9 C10 1_555 1_555
C11 C10 1_555 1_555
H10 C11 1_555 1_555
C12 C11 1_555 1_555
H11 C12 1_555 1_555
N2 Mn2 1_555 1_555
O3 Mn1 1_555 1_555
O4 Mn2 1_555 1_555
C13 O3 1_555 1_555
C14 C13 1_555 1_555
H12 C14 1_555 1_555
H13 C14 1_555 1_555
C15 C14 1_555 1_555
H14 C15 1_555 1_555
H15 C15 1_555 1_555
H16 C15 1_555 1_555
O5 Mn1 1_555 1_555
C16 O5 1_555 1_555
H17 C16 1_555 1_555
O6 C16 1_555 1_555
N3 Mn1 1_555 1_555
C17 N3 1_555 1_555
H18 C17 1_555 1_555
C18 C17 1_555 1_555
H19 C18 1_555 1_555
C19 C18 1_555 1_555
H20 C19 1_555 1_555
C20 C19 1_555 1_555
H21 C20 1_555 1_555
C21 N3 1_555 1_555
C22 C21 1_555 1_555
O7 Mn1 1_555 1_555
O8 C22 1_555 1_555
C23 C22 1_555 1_555
C24 C23 1_555 1_555
H22 C24 1_555 1_555
C25 C24 1_555 1_555
H23 C25 1_555 1_555
C26 C25 1_555 1_555
H24 C26 1_555 1_555
C27 C26 1_555 1_555
H25 C27 1_555 1_555
N4 Mn3 1_555 1_555
N5 Mn2 1_555 1_555
C28 N5 1_555 1_555
H26 C28 1_555 1_555
C29 C28 1_555 1_555
H27 C29 1_555 1_555
C30 C29 1_555 1_555
H28 C30 1_555 1_555
C31 C30 1_555 1_555
H29 C31 1_555 1_555
C32 N5 1_555 1_555
C33 C32 1_555 1_555
O9 Mn2 1_555 1_555
O10 C33 1_555 1_555
C34 C33 1_555 1_555
C35 C34 1_555 1_555
H30 C35 1_555 1_555
C36 C35 1_555 1_555
H31 C36 1_555 1_555
C37 C36 1_555 1_555
H32 C37 1_555 1_555
C38 C37 1_555 1_555
H33 C38 1_555 1_555
O11 Mn3 1_555 1_555
N6 Mn4 1_555 1_555
O12 Mn4 1_555 1_555
C39 O11 1_555 1_555
C40 C39 1_555 1_555
H34 C40 1_555 1_555
H35 C40 1_555 1_555
C41 C40 1_555 1_555
H36 C41 1_555 1_555
H37 C41 1_555 1_555
H38 C41 1_555 1_555
O13 Mn3 1_555 1_555
O14 C42 1_555 1_555
C42 O13 1_555 1_555
C43 C42 1_555 1_555
H39 C43 1_555 1_555
H40 C43 1_555 1_555
C44 C43 1_555 1_555
H41 C44 1_555 1_555
H42 C44 1_555 1_555
H43 C44 1_555 1_555
O15 Mn3 1_555 1_555
O16 Mn4 1_555 1_555
O17 Mn5 1_555 1_555
O18 C45 1_555 1_555
C45 O17 1_555 1_555
C46 C45 1_555 1_555
H44 C46 1_555 1_555
H45 C46 1_555 1_555
C47 C46 1_555 1_555
H46 C47 1_555 1_555
H47 C47 1_555 1_555
H48 C47 1_555 1_555
O19 Mn4 1_555 1_555
O20 C48 1_555 1_555
C48 O19 1_555 1_555
C49 C48 1_555 1_555
H49 C49 1_555 1_555
H50 C49 1_555 1_555
C50 C49 1_555 1_555
H51 C50 1_555 1_555
H52 C50 1_555 1_555
H53 C50 1_555 1_555
N7 Mn5 1_555 1_555
C51 N7 1_555 1_555
H54 C51 1_555 1_555
C52 C51 1_555 1_555
H55 C52 1_555 1_555
C53 C52 1_555 1_555
H56 C53 1_555 1_555
C54 C53 1_555 1_555
H57 C54 1_555 1_555
C55 N7 1_555 1_555
C56 C55 1_555 1_555
O21 Mn5 1_555 1_555
O22 C56 1_555 1_555
C57 C56 1_555 1_555
C58 C57 1_555 1_555
H58 C58 1_555 1_555
C59 C58 1_555 1_555
H59 C59 1_555 1_555
C60 C59 1_555 1_555
H60 C60 1_555 1_555
C61 C60 1_555 1_555
H61 C61 1_555 1_555
N8 C57 1_555 1_555
N9 C62 1_555 1_555
C62 H62 1_555 1_555
C63 C62 1_555 1_555
H63 C63 1_555 1_555
C64 C63 1_555 1_555
H64 C64 1_555 1_555
C65 C64 1_555 1_555
H65 C65 1_555 1_555
C66 N9 1_555 1_555
C67 C66 1_555 1_555
O23 Mn6 1_555 1_555
O24 Mn8 1_555 1_555
C68 C67 1_555 1_555
C69 C68 1_555 1_555
H66 C69 1_555 1_555
C70 C69 1_555 1_555
H67 C70 1_555 1_555
C71 C70 1_555 1_555
H68 C71 1_555 1_555
C72 C71 1_555 1_555
H69 C72 1_555 1_555
N10 Mn8 1_555 1_555
O25 Mn7 1_555 1_555
O26 Mn8 1_555 1_555
C73 O25 1_555 1_555
C74 C73 1_555 1_555
H70 C74 1_555 1_555
H71 C74 1_555 1_555
C75 C74 1_555 1_555
H72 C75 1_555 1_555
H73 C75 1_555 1_555
H74 C75 1_555 1_555
N11 Mn7 1_555 1_555
C76 N11 1_555 1_555
H75 C76 1_555 1_555
C77 C76 1_555 1_555
H76 C77 1_555 1_555
C78 C77 1_555 1_555
H77 C78 1_555 1_555
C79 C78 1_555 1_555
H78 C79 1_555 1_555
C80 N11 1_555 1_555
C81 C80 1_555 1_555
O27 Mn7 1_555 1_555
O28 C81 1_555 1_555
C82 O28 1_555 1_555
H79 C82 1_555 1_555
H80 C82 1_555 1_555
H81 C82 1_555 1_555
C83 C81 1_555 1_555
C84 C83 1_555 1_555
H82 C84 1_555 1_555
C85 C84 1_555 1_555
H83 C85 1_555 1_555
C86 C85 1_555 1_555
H84 C86 1_555 1_555
C87 C86 1_555 1_555
H85 C87 1_555 1_555
N12 Mn8 1_555 1_555
O30 Cl1 1_555 1_555
O31 Cl1 1_555 1_555
O32 Cl1 1_555 1_555
O33 C88 1_555 1_555
Mn6A O16 1_555 1_555
Mn7A O22 1_555 1_555
O16A Mn6 1_555 1_555
O18A Mn6 1_555 1_555
O20A Mn6 1_555 1_555
O22A Mn6 1_555 1_555
N8A Mn7 1_555 1_555
Mn2 O7 1_555 1_555
Mn3 O9 1_555 1_555
Mn4 O15 1_555 1_555
Mn5 O15 1_555 1_555
Mn5 O16 1_555 1_555
Mn7 O22A 1_555 1_555
Mn8 O27 1_555 1_555
C4 C5 1_555 1_555
C6 O1 1_555 1_555
C8 N2 1_555 1_555
C12 N2 1_555 1_555
O4 C13 1_555 1_555
C20 C21 1_555 1_555
C22 O7 1_555 1_555
C23 N4 1_555 1_555
C27 N4 1_555 1_555
C31 C32 1_555 1_555
C33 O9 1_555 1_555
C34 N6 1_555 1_555
C38 N6 1_555 1_555
O12 C39 1_555 1_555
O18 Mn6A 1_555 1_555
O20 Mn6A 1_555 1_555
C54 C55 1_555 1_555
C56 O21 1_555 1_555
O22 Mn6A 1_555 1_555
C61 N8 1_555 1_555
N8 Mn7A 1_555 1_555
C65 C66 1_555 1_555
C67 O23 1_555 1_555
C67 O24 1_555 1_555
C68 N10 1_555 1_555
C72 N10 1_555 1_555
O26 C73 1_555 1_555
C79 C80 1_555 1_555
C81 O27 1_555 1_555
C83 N12 1_555 1_555
C87 N12 1_555 1_555

#END
