
#######################################################################
#
#                 Cambridge Crystallographic Data Centre
#                                CCDC 
#
#######################################################################
#
# If this CIF has been generated from an entry in the Cambridge 
# Structural Database, then it will include bibliographic, chemical, 
# crystal, experimental, refinement or atomic coordinate data resulting 
# from the CCDC's data processing and validation procedures.
#
#######################################################################

data_TABZIH
_symmetry_cell_setting           orthorhombic
_symmetry_space_group_name_H-M   'P n m a'
_symmetry_Int_Tables_number      62
_space_group_name_Hall           '-P 2ac 2n'
loop_
_symmetry_equiv_pos_site_id
_symmetry_equiv_pos_as_xyz
1 x,y,z
2 1/2-x,-y,1/2+z
3 -x,1/2+y,-z
4 1/2+x,1/2-y,1/2-z
5 -x,-y,-z
6 1/2+x,y,1/2-z
7 x,1/2-y,z
8 1/2-x,1/2+y,1/2+z
_cell_length_a                   21.177(5)
_cell_length_b                   23.657(6)
_cell_length_c                   11.481(3)
_cell_angle_alpha                90
_cell_angle_beta                 90
_cell_angle_gamma                90
_cell_volume                     5751.8
loop_
_atom_site_label
_atom_site_type_symbol
_atom_site_fract_x
_atom_site_fract_y
_atom_site_fract_z
Cd1 Cd 0.0000 0.5000 1.0000
C1 C 0.2746(2) 0.7197(2) 0.8707(4)
C2 C 0.2666(2) 0.2800(2) 1.0592(5)
H1 H 0.2917 0.2994 1.1125
N1 N 0.1555(2) 0.60095(19) 0.8440(4)
N2 N 0.0543(2) 0.6009(2) 1.3234(5)
N3 N 0.1726(2) 0.3966(2) 1.0308(4)
N4 N 0.0149(2) 0.5537(2) 1.1757(4)
C3 C 0.1304(3) 0.7194(3) 1.3188(5)
C4 C 0.1940(2) 0.2802(2) 0.8971(5)
C5 C 0.1619(2) 0.7207(2) 0.8460(5)
H2 H 0.1237 0.7015 0.8396
C6 C 0.2163(2) 0.6904(2) 0.8552(5)
N5 N 0.0868(2) 0.4464(2) 1.0504(4)
N6 N 0.0699(2) 0.5561(2) 0.8908(4)
N7 N 0.1210(2) 0.5998(2) 0.7453(5)
C7 C 0.0966(3) 0.6910(3) 1.4070(6)
C8 C 0.0962(3) 0.6266(3) 1.4104(6)
H3 H 0.1388 0.6130 1.3977
H4 H 0.0831 0.6144 1.4874
C9 C 0.2306(2) 0.3095(2) 0.9825(5)
C10 C 0.1247(3) 0.5751(3) 0.9274(5)
H5 H 0.1398 0.5708 1.0030
C11 C 0.1582(3) 0.3086(3) 0.8116(5)
H6 H 0.1577 0.3479 0.8109
C12 C 0.3326(3) 0.6911(3) 0.8876(5)
H7 H 0.3334 0.6518 0.8883
C13 C 0.1364(3) 0.4363(2) 0.9861(5)
H8 H 0.1452 0.4551 0.9167
C14 C 0.1677(3) 0.6918(4) 1.2344(6)
H9 H 0.1675 0.6525 1.2319
N8 N 0.1475(3) 0.3800(3) 1.1327(5)
C15 C 0.0669(3) 0.5688(3) 1.2308(6)
H10 H 0.1074 0.5583 1.2079
C16 C 0.2181(3) 0.6263(2) 0.8497(6)
H11 H 0.2421 0.6149 0.7818
H12 H 0.2398 0.6121 0.9181
C17 C 0.0655(3) 0.7206(3) 1.4900(6)
C18 C 0.0696(3) 0.5721(3) 0.7786(6)
H13 H 0.0361 0.5645 0.7286
C19 C -0.0291(3) 0.5767(3) 1.2452(7)
H14 H -0.0720 0.5725 1.2301
C20 C 0.2320(3) 0.3734(3) 0.9877(5)
H15 H 0.2662 0.3854 1.0384
H16 H 0.2403 0.3883 0.9105
C21 C 0.1243(3) 0.2794(3) 0.7296(6)
H17 H 0.1012 0.2990 0.6737
C22 C 0.0959(3) 0.4108(3) 1.1403(6)
H18 H 0.0681 0.4082 1.2026
N9 N -0.0086(2) 0.6057(3) 1.3358(6)
C23 C 0.3877(3) 0.7209(3) 0.9032(6)
H19 H 0.4254 0.7015 0.9139
C24 C 0.2033(3) 0.7200(4) 1.1579(6)
H20 H 0.2280 0.7004 1.1047
H21 H 0.053(2) 0.694(2) 1.554(5)
Cd1B Cd 0.0000 1.0000 1.0000
Cd1B_2 Cd 0.0000 0.0000 1.0000
C1F C 0.2746(2) 0.7803(2) 0.8707(4)
C2F C 0.2666(2) 0.2200(2) 1.0592(5)
H1F H 0.2917 0.2006 1.1125
N1F N 0.1555(2) 0.89905(19) 0.8440(4)
N2F N 0.0543(2) 0.8991(2) 1.3234(5)
N3F N 0.1726(2) 0.1034(2) 1.0308(4)
N4F N 0.0149(2) 0.9463(2) 1.1757(4)
N4D N -0.0149(2) 0.4463(2) 0.8243(4)
C3F C 0.1304(3) 0.7806(3) 1.3188(5)
C4F C 0.1940(2) 0.2198(2) 0.8971(5)
C5F C 0.1619(2) 0.7793(2) 0.8460(5)
H2F H 0.1237 0.7985 0.8396
C6F C 0.2163(2) 0.8096(2) 0.8552(5)
N5F N 0.0868(2) 0.0536(2) 1.0504(4)
N5D N -0.0868(2) 0.5536(2) 0.9496(4)
N6F N 0.0699(2) 0.9439(2) 0.8908(4)
N6D N -0.0699(2) 0.4439(2) 1.1092(4)
N7F N 0.1210(2) 0.9002(2) 0.7453(5)
C7F C 0.0966(3) 0.8090(3) 1.4070(6)
C8F C 0.0962(3) 0.8734(3) 1.4104(6)
H3F H 0.1388 0.8870 1.3977
H4F H 0.0831 0.8856 1.4874
C9F C 0.2306(2) 0.1905(2) 0.9825(5)
C10F C 0.1247(3) 0.9249(3) 0.9274(5)
H5F H 0.1398 0.9292 1.0030
C11F C 0.1582(3) 0.1914(3) 0.8116(5)
H6F H 0.1577 0.1521 0.8109
C12F C 0.3326(3) 0.8089(3) 0.8876(5)
H7F H 0.3334 0.8482 0.8883
C13F C 0.1364(3) 0.0637(2) 0.9861(5)
H8F H 0.1452 0.0449 0.9167
C14F C 0.1677(3) 0.8082(4) 1.2344(6)
H9F H 0.1675 0.8475 1.2319
N8F N 0.1475(3) 0.1200(3) 1.1327(5)
C15F C 0.0669(3) 0.9312(3) 1.2308(6)
H10F H 0.1074 0.9417 1.2079
C16F C 0.2181(3) 0.8737(2) 0.8497(6)
H11F H 0.2421 0.8851 0.7818
H12F H 0.2398 0.8879 0.9181
C17F C 0.0655(3) 0.7794(3) 1.4900(6)
C18F C 0.0696(3) 0.9279(3) 0.7786(6)
H13F H 0.0361 0.9355 0.7286
C19F C -0.0291(3) 0.9233(3) 1.2452(7)
H14F H -0.0720 0.9275 1.2301
C20F C 0.2320(3) 0.1266(3) 0.9877(5)
H15F H 0.2662 0.1146 1.0384
H16F H 0.2403 0.1117 0.9105
C21F C 0.1243(3) 0.2206(3) 0.7296(6)
H17F H 0.1012 0.2010 0.6737
C22F C 0.0959(3) 0.0892(3) 1.1403(6)
H18F H 0.0681 0.0918 1.2026
N9F N -0.0086(2) 0.8943(3) 1.3358(6)
C23F C 0.3877(3) 0.7791(3) 0.9032(6)
H19F H 0.4254 0.7985 0.9139
C24F C 0.2033(3) 0.7800(4) 1.1579(6)
H20F H 0.2280 0.7996 1.1047
H21F H 0.053(2) 0.806(2) 1.554(5)
Cl1 Cl 0.24012(7) 0.46952(7) 0.67925(15)
O1 O 0.1832(3) 0.4556(4) 0.7232(6)
O2 O 0.2349(5) 0.5059(5) 0.5915(11)
O3 O 0.2703(6) 0.4267(5) 0.6372(11)
O4 O 0.2794(6) 0.4822(8) 0.7693(14)
Cl2 Cl -0.0322(4) 0.7500 -0.1424(6)
C25 C -0.0246(6) 0.7500 0.0079(11)
Cl3 Cl 0.0239(8) 0.6969(8) 0.0536(15)
Cl3F Cl 0.0239(8) 0.8031(8) 0.0536(15)
O5 O 0.0943(6) 0.4620(5) 0.4520(10)
C26 C 0.0474(4) 0.4280(6) 0.4216(7)
Cl4? Cl 0.0054(10) 0.6853(7) 0.027(2)
loop_
_geom_bond_atom_site_label_1
_geom_bond_atom_site_label_2
_geom_bond_site_symmetry_1
_geom_bond_site_symmetry_2
Cd1 N4 1_555 1_555
C1 C6 1_555 1_555
C2 H1 1_555 1_555
N1 N7 1_555 1_555
N2 C8 1_555 1_555
N3 C13 1_555 1_555
N4 C15 1_555 1_555
C3 C7 1_555 1_555
C4 C9 1_555 1_555
C5 H2 1_555 1_555
C6 C5 1_555 1_555
N5 Cd1 1_555 1_555
N6 Cd1 1_555 1_555
N7 C18 1_555 1_555
C7 C8 1_555 1_555
C8 H3 1_555 1_555
H4 C8 1_555 1_555
C9 C2 1_555 1_555
C10 N1 1_555 1_555
H5 C10 1_555 1_555
C11 C4 1_555 1_555
H6 C11 1_555 1_555
C12 C1 1_555 1_555
H7 C12 1_555 1_555
C13 N5 1_555 1_555
H8 C13 1_555 1_555
C14 C3 1_555 1_555
H9 C14 1_555 1_555
N8 N3 1_555 1_555
C15 N2 1_555 1_555
H10 C15 1_555 1_555
C16 N1 1_555 1_555
H11 C16 1_555 1_555
H12 C16 1_555 1_555
C17 C7 1_555 1_555
C18 N6 1_555 1_555
H13 C18 1_555 1_555
C19 N4 1_555 1_555
H14 C19 1_555 1_555
C20 N3 1_555 1_555
H15 C20 1_555 1_555
H16 C20 1_555 1_555
C21 C11 1_555 1_555
H17 C21 1_555 1_555
C22 N5 1_555 1_555
H18 C22 1_555 1_555
N9 N2 1_555 1_555
C23 C12 1_555 1_555
H19 C23 1_555 1_555
C24 C14 1_555 1_555
H20 C24 1_555 1_555
Cl1 O1 1_555 1_555
Cl2 C25 1_555 1_555
C25 Cl3 1_555 1_555
O2 Cl1 1_555 1_555
O3 Cl1 1_555 1_555
O4 Cl1 1_555 1_555
O5 C26 1_555 1_555
H21 C17 1_555 1_555
Cd1B N4F 1_555 1_555
Cd1B_2 N5F 1_555 1_555
C1F C1 1_555 1_555
C2F C2 1_555 1_555
H1F C2F 1_555 1_555
N1F N7F 1_555 1_555
N2F C8F 1_555 1_555
N3F C13F 1_555 1_555
N4F C15F 1_555 1_555
N4D Cd1 1_555 1_555
C3F C3 1_555 1_555
C4F C4 1_555 1_555
C5F C5 1_555 1_555
H2F C5F 1_555 1_555
C6F C1F 1_555 1_555
N5F C13F 1_555 1_555
N5D Cd1 1_555 1_555
N6F Cd1B 1_555 1_555
N6D Cd1 1_555 1_555
N7F C18F 1_555 1_555
C7F C3F 1_555 1_555
C8F C7F 1_555 1_555
H3F C8F 1_555 1_555
H4F C8F 1_555 1_555
C9F C2F 1_555 1_555
C10F N1F 1_555 1_555
H5F C10F 1_555 1_555
C11F C4F 1_555 1_555
H6F C11F 1_555 1_555
C12F C1F 1_555 1_555
H7F C12F 1_555 1_555
C13F H8F 1_555 1_555
C14F C3F 1_555 1_555
H9F C14F 1_555 1_555
N8F N3F 1_555 1_555
C15F N2F 1_555 1_555
H10F C15F 1_555 1_555
C16F N1F 1_555 1_555
H11F C16F 1_555 1_555
H12F C16F 1_555 1_555
C17F C17 1_555 1_555
C18F N6F 1_555 1_555
H13F C18F 1_555 1_555
C19F N4F 1_555 1_555
H14F C19F 1_555 1_555
C20F N3F 1_555 1_555
H15F C20F 1_555 1_555
H16F C20F 1_555 1_555
C21F C21 1_555 1_555
H17F C21F 1_555 1_555
C22F N5F 1_555 1_555
H18F C22F 1_555 1_555
N9F N2F 1_555 1_555
C23F C23 1_555 1_555
H19F C23F 1_555 1_555
C24F C24 1_555 1_555
H20F C24F 1_555 1_555
Cl3F C25 1_555 1_555
H21F C17F 1_555 1_555
C6 C16 1_555 1_555
N6 C10 1_555 1_555
C9 C20 1_555 1_555
N8 C22 1_555 1_555
C19 N9 1_555 1_555
C4F C9F 1_555 1_555
C5F C6F 1_555 1_555
C6F C16F 1_555 1_555
N6F C10F 1_555 1_555
C7F C17F 1_555 1_555
C9F C20F 1_555 1_555
C11F C21F 1_555 1_555
C12F C23F 1_555 1_555
C14F C24F 1_555 1_555
N8F C22F 1_555 1_555
C19F N9F 1_555 1_555

#END
