
#######################################################################
#
#                 Cambridge Crystallographic Data Centre
#                                CCDC 
#
#######################################################################
#
# If this CIF has been generated from an entry in the Cambridge 
# Structural Database, then it will include bibliographic, chemical, 
# crystal, experimental, refinement or atomic coordinate data resulting 
# from the CCDC's data processing and validation procedures.
#
#######################################################################

data_TABZUT01
_symmetry_cell_setting           monoclinic
_symmetry_space_group_name_H-M   'C 2/c'
_symmetry_Int_Tables_number      15
_space_group_name_Hall           '-C 2yn'
loop_
_symmetry_equiv_pos_site_id
_symmetry_equiv_pos_as_xyz
1 x,y,z
2 -x,y,1/2-z
3 1/2+x,1/2+y,z
4 1/2-x,1/2+y,1/2-z
5 -x,-y,-z
6 x,-y,1/2+z
7 1/2-x,1/2-y,-z
8 1/2+x,1/2-y,1/2+z
_cell_length_a                   10.260(2)
_cell_length_b                   13.485(3)
_cell_length_c                   27.749(6)
_cell_angle_alpha                90
_cell_angle_beta                 97.52(3)
_cell_angle_gamma                90
_cell_volume                     3806.22
loop_
_atom_site_label
_atom_site_type_symbol
_atom_site_fract_x
_atom_site_fract_y
_atom_site_fract_z
Cd1 Cd 1.0000 0.0000 0.5000
C1 C 0.5645(6) -0.3526(4) 0.2664(2)
N1 N 0.9462(5) -0.2108(4) 0.37725(18)
C2 C 0.9485(6) -0.1843(5) 0.4223(2)
H1 H 0.9377 -0.2279 0.4474
N2 N 0.8982(5) 0.1375(4) 0.4600(2)
C3 C 0.9481(6) 0.2252(5) 0.4523(2)
H2 H 1.0365 0.2419 0.4594
N3 N 0.8555(5) 0.2854(4) 0.4330(2)
C4 C 0.8058(6) -0.3289(4) 0.3250(2)
C5 C 0.8009(6) -0.3567(5) 0.2776(2)
H3 H 0.8788 -0.3673 0.2646
C6 C 0.6813(7) -0.3695(5) 0.2484(3)
H4 H 0.6802 -0.3898 0.2163
C7 C 0.6890(7) -0.3146(5) 0.3435(2)
H5 H 0.6904 -0.2969 0.3759
N4 N 0.9678(5) -0.0883(4) 0.42804(19)
C8 C 0.9799(7) 0.4116(4) 0.2749(3)
C9 C 0.9765(8) -0.0591(5) 0.3826(3)
H6 H 0.9895 0.0068 0.3746
C10 C 0.8520(7) 0.3848(5) 0.2818(3)
H7 H 0.7908 0.3701 0.2550
C11 C 0.9058(8) 0.3996(5) 0.3678(3)
C12 C 0.5695(7) -0.3260(5) 0.3145(2)
H8 H 0.4918 -0.3156 0.3277
C13 C 0.8671(8) 0.3898(5) 0.4187(3)
H9 H 0.9326 0.4225 0.4417
H10 H 0.7837 0.4230 0.4198
C14 C 0.9361(6) -0.3114(5) 0.3564(3)
H11 H 0.9465 -0.3596 0.3825
H12 H 1.0069 -0.3214 0.3369
C15 C 1.0674(8) 0.4354(5) 0.3153(3)
H13 H 1.1521 0.4556 0.3114
N5 N 0.9651(7) -0.1312(5) 0.3499(2)
C16 C 1.0307(8) 0.4295(5) 0.3616(3)
H14 H 1.0908 0.4458 0.3885
N6 N 0.7390(7) 0.2376(6) 0.4269(4)
C17 C 0.8157(7) 0.3799(5) 0.3272(3)
H15 H 0.7297 0.3633 0.3310
C18 C 0.7717(8) 0.1485(7) 0.4441(4)
H16 H 0.7108 0.0976 0.4450
N7 N 1.2832(6) 0.0946(5) 0.4870(3)
O1 O 1.3899(6) 0.1085(4) 0.4724(3)
O2 O 1.1885(6) 0.0574(5) 0.4672(3)
O3 O 1.2506(14) 0.1856(10) 0.5029(7)
Cd1A Cd 0.0000 0.0000 0.0000
Cd1A_2 Cd 1.0000 0.0000 0.0000
C1A C 0.4355(6) -0.3526(4) 0.2336(2)
N1A N 0.0538(5) -0.2108(4) 0.12275(18)
C2A C 0.0515(6) -0.1843(5) 0.0777(2)
H1A H 0.0623 -0.2279 0.0526
N2A N 1.1018(5) 0.1375(4) 0.0400(2)
N2D N 1.1018(5) -0.1375(4) 0.5400(2)
C3A C 1.0519(6) 0.2252(5) 0.0477(2)
H2A H 0.9635 0.2419 0.0406
N3A N 1.1445(5) 0.2854(4) 0.0670(2)
C4A C 0.1942(6) -0.3289(4) 0.1750(2)
C5A C 0.1991(6) -0.3567(5) 0.2224(2)
H3A H 0.1212 -0.3673 0.2354
C6A C 0.3187(7) -0.3695(5) 0.2516(3)
H4A H 0.3198 -0.3898 0.2837
C7A C 0.3110(7) -0.3146(5) 0.1565(2)
H5A H 0.3096 -0.2969 0.1241
N4A N 0.0322(5) -0.0883(4) 0.07196(19)
N4D N 1.0322(5) 0.0883(4) 0.57196(19)
C8A C 1.0201(7) 0.4116(4) 0.2251(3)
C9A C 0.0235(8) -0.0591(5) 0.1174(3)
H6A H 0.0105 0.0068 0.1254
C10A C 1.1480(7) 0.3848(5) 0.2182(3)
H7A H 1.2092 0.3701 0.2450
C11A C 1.0942(8) 0.3996(5) 0.1322(3)
C12A C 0.4305(7) -0.3260(5) 0.1855(2)
H8A H 0.5082 -0.3156 0.1723
C13A C 1.1329(8) 0.3898(5) 0.0813(3)
H9A H 1.0674 0.4225 0.0583
H10A H 1.2163 0.4230 0.0802
C14A C 0.0639(6) -0.3114(5) 0.1436(3)
H11A H 0.0535 -0.3596 0.1175
H12A H -0.0069 -0.3214 0.1631
C15A C 0.9326(8) 0.4354(5) 0.1847(3)
H13A H 0.8479 0.4556 0.1886
N5A N 0.0349(7) -0.1312(5) 0.1501(2)
C16A C 0.9693(8) 0.4295(5) 0.1384(3)
H14A H 0.9092 0.4458 0.1115
N6A N 1.2610(7) 0.2376(6) 0.0731(4)
C17A C 1.1843(7) 0.3799(5) 0.1728(3)
H15A H 1.2703 0.3633 0.1690
C18A C 1.2283(8) 0.1485(7) 0.0559(4)
H16A H 1.2892 0.0976 0.0550
N7D N 0.7168(6) -0.0946(5) 0.5130(3)
O1D O 0.6101(6) -0.1085(4) 0.5276(3)
O2D O 0.8115(6) -0.0574(5) 0.5328(3)
O3D O 0.7494(14) -0.1856(10) 0.4971(7)
O4 O 0.0000 0.8317(19) 0.2500
O5? O 1.3015(14) 0.0660(13) 0.5294(5)
loop_
_geom_bond_atom_site_label_1
_geom_bond_atom_site_label_2
_geom_bond_site_symmetry_1
_geom_bond_site_symmetry_2
Cd1 N2 1_555 1_555
C1 C6 1_555 1_555
N1 C2 1_555 1_555
C2 H1 1_555 1_555
N2 C3 1_555 1_555
C3 H2 1_555 1_555
N3 C3 1_555 1_555
C4 C5 1_555 1_555
C5 H3 1_555 1_555
C6 C5 1_555 1_555
H4 C6 1_555 1_555
C7 C4 1_555 1_555
H5 C7 1_555 1_555
N4 Cd1 1_555 1_555
C8 C10 1_555 1_555
C9 N4 1_555 1_555
H6 C9 1_555 1_555
C10 H7 1_555 1_555
C11 C13 1_555 1_555
C12 C1 1_555 1_555
H8 C12 1_555 1_555
C13 N3 1_555 1_555
H9 C13 1_555 1_555
H10 C13 1_555 1_555
C14 N1 1_555 1_555
H11 C14 1_555 1_555
H12 C14 1_555 1_555
C15 C8 1_555 1_555
H13 C15 1_555 1_555
N5 N1 1_555 1_555
C16 C11 1_555 1_555
H14 C16 1_555 1_555
N6 N3 1_555 1_555
C17 C10 1_555 1_555
H15 C17 1_555 1_555
C18 N2 1_555 1_555
H16 C18 1_555 1_555
N7 O1 1_555 1_555
O2 Cd1 1_555 1_555
O3 N7 1_555 1_555
Cd1A N4A 1_555 1_555
Cd1A_2 N2A 1_555 1_555
C1A C1 1_555 1_555
N1A C2A 1_555 1_555
C2A H1A 1_555 1_555
N2A C3A 1_555 1_555
N2D Cd1 1_555 1_555
C3A H2A 1_555 1_555
N3A C3A 1_555 1_555
C4A C5A 1_555 1_555
C5A H3A 1_555 1_555
C6A C1A 1_555 1_555
H4A C6A 1_555 1_555
C7A C4A 1_555 1_555
H5A C7A 1_555 1_555
N4A C2A 1_555 1_555
N4D Cd1 1_555 1_555
C8A C8 1_555 1_555
C9A N4A 1_555 1_555
H6A C9A 1_555 1_555
C10A C8A 1_555 1_555
H7A C10A 1_555 1_555
C11A C13A 1_555 1_555
C12A C1A 1_555 1_555
H8A C12A 1_555 1_555
C13A N3A 1_555 1_555
H9A C13A 1_555 1_555
H10A C13A 1_555 1_555
C14A N1A 1_555 1_555
H11A C14A 1_555 1_555
H12A C14A 1_555 1_555
C15A C8A 1_555 1_555
H13A C15A 1_555 1_555
N5A N1A 1_555 1_555
C16A C11A 1_555 1_555
H14A C16A 1_555 1_555
N6A N3A 1_555 1_555
C17A C10A 1_555 1_555
H15A C17A 1_555 1_555
C18A N2A 1_555 1_555
H16A C18A 1_555 1_555
N7D O1D 1_555 1_555
O2D Cd1 1_555 1_555
O3D N7D 1_555 1_555
C2 N4 1_555 1_555
C4 C14 1_555 1_555
C7 C12 1_555 1_555
C9 N5 1_555 1_555
C11 C17 1_555 1_555
C15 C16 1_555 1_555
N6 C18 1_555 1_555
N7 O2 1_555 1_555
C4A C14A 1_555 1_555
C5A C6A 1_555 1_555
C7A C12A 1_555 1_555
C9A N5A 1_555 1_555
C11A C17A 1_555 1_555
C15A C16A 1_555 1_555
N6A C18A 1_555 1_555
N7D O2D 1_555 1_555

#END
