
#######################################################################
#
#                 Cambridge Crystallographic Data Centre
#                                CCDC 
#
#######################################################################
#
# If this CIF has been generated from an entry in the Cambridge 
# Structural Database, then it will include bibliographic, chemical, 
# crystal, experimental, refinement or atomic coordinate data resulting 
# from the CCDC's data processing and validation procedures.
#
#######################################################################

data_TABZAZ
_symmetry_cell_setting           monoclinic
_symmetry_space_group_name_H-M   'C 2/m'
_symmetry_Int_Tables_number      12
_space_group_name_Hall           '-C 2y'
loop_
_symmetry_equiv_pos_site_id
_symmetry_equiv_pos_as_xyz
1 x,y,z
2 -x,y,-z
3 1/2+x,1/2+y,z
4 1/2-x,1/2+y,-z
5 -x,-y,-z
6 x,-y,z
7 1/2-x,1/2-y,-z
8 1/2+x,1/2-y,z
_cell_length_a                   9.324(3)
_cell_length_b                   15.989(5)
_cell_length_c                   15.217(5)
_cell_angle_alpha                90
_cell_angle_beta                 98.827(6)
_cell_angle_gamma                90
_cell_volume                     2241.7
loop_
_atom_site_label
_atom_site_type_symbol
_atom_site_fract_x
_atom_site_fract_y
_atom_site_fract_z
C1 C 0.5844(5) 0.6635(3) 0.1237(3)
H1 H 0.4920 0.6634 0.1396
C2 C 0.7704(5) 0.6333(3) 0.0703(3)
H2 H 0.8334 0.6050 0.0388
C3 C 0.6743(5) 0.7990(3) 0.2003(3)
H3 H 0.5752 0.8061 0.2110
H4 H 0.6985 0.8466 0.1659
C4 C 0.7743(5) 0.7978(2) 0.2885(3)
C5 C 0.7834(7) 0.7286(3) 0.3440(4)
H5 H 0.7300 0.6809 0.3257
C6 C 0.8701(8) 0.7295(3) 0.4257(4)
H6 H 0.8732 0.6824 0.4618
C7 C 0.9537(5) 0.7993(3) 0.4559(3)
C8 C 0.9425(5) 0.8679(3) 0.4005(3)
H7 H 0.9947 0.9160 0.4189
C9 C 0.8547(5) 0.8670(3) 0.3174(3)
H8 H 0.8507 0.9141 0.2812
Cl1 Cl 0.67625(18) 0.5000 -0.11048(10)
Mn1 Mn 0.5000 0.5000 0.0000
N1 N 0.6834(4) 0.7218(2) 0.1475(2)
N2 N 0.8062(4) 0.7023(2) 0.1138(3)
N3 N 0.6334(4) 0.6060(2) 0.0747(2)
C1A C 1.4156(5) 0.6635(3) 0.8763(3)
C1E C 0.5844(5) 0.3365(3) 0.1237(3)
C1D C 1.4156(5) 0.3365(3) 0.8763(3)
H1A H 1.5080 0.6634 0.8604
H1E H 0.4920 0.3366 0.1396
H1D H 1.5080 0.3366 0.8604
C2A C 1.2296(5) 0.6333(3) 0.9297(3)
C2E C 0.7704(5) 0.3667(3) 0.0703(3)
C2D C 1.2296(5) 0.3667(3) 0.9297(3)
H2A H 1.1666 0.6050 0.9612
H2E H 0.8334 0.3950 0.0388
H2D H 1.1666 0.3950 0.9612
C3A C 1.3257(5) 0.7990(3) 0.7997(3)
C3E C 0.6743(5) 0.2010(3) 0.2003(3)
C3D C 1.3257(5) 0.2010(3) 0.7997(3)
H3A H 1.4248 0.8061 0.7890
H3E H 0.5752 0.1939 0.2110
H3D H 1.4248 0.1939 0.7890
H4A H 1.3015 0.8466 0.8341
H4E H 0.6985 0.1534 0.1659
H4D H 1.3015 0.1534 0.8341
C4A C 1.2257(5) 0.7978(2) 0.7115(3)
C4E C 0.7743(5) 0.2022(2) 0.2885(3)
C4D C 1.2257(5) 0.2022(2) 0.7115(3)
C5A C 1.2166(7) 0.7286(3) 0.6560(4)
C5E C 0.7834(7) 0.2714(3) 0.3440(4)
C5D C 1.2166(7) 0.2714(3) 0.6560(4)
H5A H 1.2700 0.6809 0.6743
H5E H 0.7300 0.3191 0.3257
H5D H 1.2700 0.3191 0.6743
C6A C 1.1299(8) 0.7295(3) 0.5743(4)
C6E C 0.8701(8) 0.2705(3) 0.4257(4)
C6D C 1.1299(8) 0.2705(3) 0.5743(4)
H6A H 1.1268 0.6824 0.5382
H6E H 0.8732 0.3176 0.4618
H6D H 1.1268 0.3176 0.5382
C7A C 1.0463(5) 0.7993(3) 0.5441(3)
C7E C 0.9537(5) 0.2007(3) 0.4559(3)
C7D C 1.0463(5) 0.2007(3) 0.5441(3)
C8A C 1.0575(5) 0.8679(3) 0.5995(3)
C8E C 0.9425(5) 0.1321(3) 0.4005(3)
C8D C 1.0575(5) 0.1321(3) 0.5995(3)
H7A H 1.0053 0.9160 0.5811
H7E H 0.9947 0.0840 0.4189
H7D H 1.0053 0.0840 0.5811
C9A C 1.1453(5) 0.8670(3) 0.6826(3)
C9E C 0.8547(5) 0.1330(3) 0.3174(3)
C9D C 1.1453(5) 0.1330(3) 0.6826(3)
H8A H 1.1493 0.9141 0.7188
H8E H 0.8507 0.0859 0.2812
H8D H 1.1493 0.0859 0.7188
Cl1A Cl 0.32375(18) 0.5000 0.11048(10)
Mn1_2 Mn 1.5000 0.5000 1.0000
N1A N 1.3166(4) 0.7218(2) 0.8525(2)
N1E N 0.6834(4) 0.2782(2) 0.1475(2)
N1D N 1.3166(4) 0.2782(2) 0.8525(2)
N2A N 1.1938(4) 0.7023(2) 0.8862(3)
N2E N 0.8062(4) 0.2977(2) 0.1138(3)
N2D N 1.1938(4) 0.2977(2) 0.8862(3)
N3A N 1.3666(4) 0.6060(2) 0.9253(2)
N3A_2 N 0.3666(4) 0.6060(2) -0.0747(2)
N3D N 0.3666(4) 0.3940(2) -0.0747(2)
N3E N 0.6334(4) 0.3940(2) 0.0747(2)
N3D_2 N 1.3666(4) 0.3940(2) 0.9253(2)
O1 O 0.5084(7) 0.0000 0.2192(4)
O2 O 0.7266(9) 0.5000 0.2735(5)
O4 O 0.541(3) 1.0000 0.4020(7)
O5 O 0.8157(11) 0.5000 0.4435(9)
O3? O 0.7888(16) 0.5000 0.3506(17)
O6? O 0.516(4) 0.9658(11) 0.342(3)
loop_
_geom_bond_atom_site_label_1
_geom_bond_atom_site_label_2
_geom_bond_site_symmetry_1
_geom_bond_site_symmetry_2
C1 H1 1_555 1_555
C2 H2 1_555 1_555
C3 H3 1_555 1_555
H4 C3 1_555 1_555
C4 C3 1_555 1_555
C5 C4 1_555 1_555
H5 C5 1_555 1_555
C6 C5 1_555 1_555
H6 C6 1_555 1_555
C7 C6 1_555 1_555
C8 C7 1_555 1_555
H7 C8 1_555 1_555
C9 C4 1_555 1_555
H8 C9 1_555 1_555
Cl1 Mn1 1_555 1_555
Mn1 N3 1_555 1_555
N1 C1 1_555 1_555
N2 C2 1_555 1_555
N3 C1 1_555 1_555
C1A H1A 1_555 1_555
C1E H1E 1_555 1_555
C1D H1D 1_555 1_555
C2A H2A 1_555 1_555
C2E H2E 1_555 1_555
C2D H2D 1_555 1_555
C3A H3A 1_555 1_555
C3E H3E 1_555 1_555
C3D H3D 1_555 1_555
H4A C3A 1_555 1_555
H4E C3E 1_555 1_555
H4D C3D 1_555 1_555
C4A C3A 1_555 1_555
C4E C3E 1_555 1_555
C4D C3D 1_555 1_555
C5A C4A 1_555 1_555
C5E C4E 1_555 1_555
C5D C4D 1_555 1_555
H5A C5A 1_555 1_555
H5E C5E 1_555 1_555
H5D C5D 1_555 1_555
C6A C5A 1_555 1_555
C6E C5E 1_555 1_555
C6D C5D 1_555 1_555
H6A C6A 1_555 1_555
H6E C6E 1_555 1_555
H6D C6D 1_555 1_555
C7A C7 1_555 1_555
C7E C6E 1_555 1_555
C7D C6D 1_555 1_555
C8A C7A 1_555 1_555
C8E C7E 1_555 1_555
C8D C7D 1_555 1_555
H7A C8A 1_555 1_555
H7E C8E 1_555 1_555
H7D C8D 1_555 1_555
C9A C4A 1_555 1_555
C9E C4E 1_555 1_555
C9D C4D 1_555 1_555
H8A C9A 1_555 1_555
H8E C9E 1_555 1_555
H8D C9D 1_555 1_555
Cl1A Mn1 1_555 1_555
Mn1_2 N3A 1_555 1_555
N1A C1A 1_555 1_555
N1E C1E 1_555 1_555
N1D C1D 1_555 1_555
N2A C2A 1_555 1_555
N2E C2E 1_555 1_555
N2D C2D 1_555 1_555
N3A C1A 1_555 1_555
N3A_2 Mn1 1_555 1_555
N3D Mn1 1_555 1_555
N3E Mn1 1_555 1_555
N3D_2 C1D 1_555 1_555
C2 N3 1_555 1_555
C3 N1 1_555 1_555
C8 C9 1_555 1_555
N1 N2 1_555 1_555
C1E N3E 1_555 1_555
C2A N3A 1_555 1_555
C2E N3E 1_555 1_555
C2D N3D_2 1_555 1_555
C3A N1A 1_555 1_555
C3E N1E 1_555 1_555
C3D N1D 1_555 1_555
C6A C7A 1_555 1_555
C7E C7D 1_555 1_555
C8A C9A 1_555 1_555
C8E C9E 1_555 1_555
C8D C9D 1_555 1_555
Mn1_2 N3D_2 1_555 1_555
N1A N2A 1_555 1_555
N1E N2E 1_555 1_555
N1D N2D 1_555 1_555

#END
