
#######################################################################
#
#                 Cambridge Crystallographic Data Centre
#                                CCDC 
#
#######################################################################
#
# If this CIF has been generated from an entry in the Cambridge 
# Structural Database, then it will include bibliographic, chemical, 
# crystal, experimental, refinement or atomic coordinate data resulting 
# from the CCDC's data processing and validation procedures.
#
#######################################################################

data_TABZED
_symmetry_cell_setting           monoclinic
_symmetry_space_group_name_H-M   'C 2/m'
_symmetry_Int_Tables_number      12
_space_group_name_Hall           '-C 2y'
loop_
_symmetry_equiv_pos_site_id
_symmetry_equiv_pos_as_xyz
1 x,y,z
2 -x,y,-z
3 1/2+x,1/2+y,z
4 1/2-x,1/2+y,-z
5 -x,-y,-z
6 x,-y,z
7 1/2-x,1/2-y,-z
8 1/2+x,1/2-y,z
_cell_length_a                   10.017(3)
_cell_length_b                   14.126(3)
_cell_length_c                   16.534(4)
_cell_angle_alpha                90
_cell_angle_beta                 102.947(5)
_cell_angle_gamma                90
_cell_volume                     2280.09
loop_
_atom_site_label
_atom_site_type_symbol
_atom_site_fract_x
_atom_site_fract_y
_atom_site_fract_z
Cu1 Cu 0.5000 0.0000 1.0000
Cl1 Cl 0.22977(14) 0.0000 0.90444(9)
N1 N 0.5503(3) -0.1041(2) 0.9272(2)
N2 N 0.6692(4) -0.2120(3) 0.8730(3)
N3 N 0.5332(3) -0.2324(2) 0.85280(19)
C1 C 0.6748(4) -0.1351(3) 0.9184(3)
H1 H 0.7565 -0.1047 0.9423
C2 C 0.4644(4) -0.1685(3) 0.8853(2)
H2 H 0.3699 -0.1684 0.8799
C3 C 0.4818(5) -0.3186(3) 0.8054(3)
H3 H 0.5339 -0.3727 0.8314
H4 H 0.3869 -0.3283 0.8076
C4 C 0.4919(4) -0.3134(3) 0.7153(2)
C5 C 0.4986(4) -0.3119(3) 0.5454(2)
C6 C 0.5359(14) -0.3937(8) 0.6784(6)
H5 H 0.5652 -0.4472 0.7102
C7 C 0.5355(12) -0.3928(7) 0.5930(6)
H6 H 0.5604 -0.4472 0.5682
C8 C 0.4712(9) -0.2309(6) 0.5854(5)
H7 H 0.4525 -0.1747 0.5557
C9 C 0.4711(9) -0.2319(6) 0.6702(5)
H8 H 0.4565 -0.1757 0.6961
Cu1_2 Cu 0.5000 0.0000 0.0000
Cl1A Cl 0.77023(14) 0.0000 1.09556(9)
N1A N 0.4497(3) -0.1041(2) 0.0728(2)
N1A_2 N 0.4497(3) -0.1041(2) 1.0728(2)
N1D N 0.4497(3) 0.1041(2) 1.0728(2)
N1E N 0.5503(3) 0.1041(2) 0.9272(2)
N1D_2 N 0.4497(3) 0.1041(2) 0.0728(2)
N2A N 0.3308(4) -0.2120(3) 0.1270(3)
N2E N 0.6692(4) 0.2120(3) 0.8730(3)
N2D N 0.3308(4) 0.2120(3) 0.1270(3)
N3A N 0.4668(3) -0.2324(2) 0.14720(19)
N3E N 0.5332(3) 0.2324(2) 0.85280(19)
N3D N 0.4668(3) 0.2324(2) 0.14720(19)
C1A C 0.3252(4) -0.1351(3) 0.0816(3)
C1E C 0.6748(4) 0.1351(3) 0.9184(3)
C1D C 0.3252(4) 0.1351(3) 0.0816(3)
H1A H 0.2435 -0.1047 0.0577
H1E H 0.7565 0.1047 0.9423
H1D H 0.2435 0.1047 0.0577
C2A C 0.5356(4) -0.1685(3) 0.1147(2)
C2E C 0.4644(4) 0.1685(3) 0.8853(2)
C2D C 0.5356(4) 0.1685(3) 0.1147(2)
H2A H 0.6301 -0.1684 0.1201
H2E H 0.3699 0.1684 0.8799
H2D H 0.6301 0.1684 0.1201
C3A C 0.5182(5) -0.3186(3) 0.1946(3)
C3E C 0.4818(5) 0.3186(3) 0.8054(3)
C3D C 0.5182(5) 0.3186(3) 0.1946(3)
H3A H 0.4661 -0.3727 0.1686
H3E H 0.5339 0.3727 0.8314
H3D H 0.4661 0.3727 0.1686
H4A H 0.6131 -0.3283 0.1924
H4E H 0.3869 0.3283 0.8076
H4D H 0.6131 0.3283 0.1924
C4A C 0.5081(4) -0.3134(3) 0.2847(2)
C4E C 0.4919(4) 0.3134(3) 0.7153(2)
C4D C 0.5081(4) 0.3134(3) 0.2847(2)
C5A C 0.5014(4) -0.3119(3) 0.4546(2)
C5E C 0.4986(4) 0.3119(3) 0.5454(2)
C5D C 0.5014(4) 0.3119(3) 0.4546(2)
C6A C 0.4641(14) -0.3937(8) 0.3216(6)
C6E C 0.5359(14) 0.3937(8) 0.6784(6)
C6D C 0.4641(14) 0.3937(8) 0.3216(6)
H5A H 0.4348 -0.4472 0.2898
H5E H 0.5652 0.4472 0.7102
H5D H 0.4348 0.4472 0.2898
C7A C 0.4645(12) -0.3928(7) 0.4070(6)
C7E C 0.5355(12) 0.3928(7) 0.5930(6)
C7D C 0.4645(12) 0.3928(7) 0.4070(6)
H6A H 0.4396 -0.4472 0.4318
H6E H 0.5604 0.4472 0.5682
H6D H 0.4396 0.4472 0.4318
C8A C 0.5288(9) -0.2309(6) 0.4146(5)
C8E C 0.4712(9) 0.2309(6) 0.5854(5)
C8D C 0.5288(9) 0.2309(6) 0.4146(5)
H7A H 0.5475 -0.1747 0.4443
H7E H 0.4525 0.1747 0.5557
H7D H 0.5475 0.1747 0.4443
C9A C 0.5289(9) -0.2319(6) 0.3298(5)
C9E C 0.4711(9) 0.2319(6) 0.6702(5)
C9D C 0.5289(9) 0.2319(6) 0.3298(5)
H8A H 0.5435 -0.1757 0.3039
H8E H 0.4565 0.1757 0.6961
H8D H 0.5435 0.1757 0.3039
O2 O 0.2853(7) 0.0000 0.2517(3)
O4 O 0.0000 0.0722(17) 0.0000
O1? O 0.3414(10) 0.0507(10) 0.4199(5)
O3? O 0.5655(9) -0.0338(5) 0.3364(10)
C10? C 0.3970(9) 0.3419(8) 0.3110(5)
C11? C 0.3922(9) 0.3395(7) 0.3945(5)
C12? C 0.6211(9) 0.2826(7) 0.4317(5)
C13? C 0.6279(9) 0.2839(7) 0.3466(5)
H9? H 0.3211 0.3638 0.2724
H10? H 0.3118 0.3573 0.4096
H11? H 0.6961 0.2623 0.4719
H12? H 0.7079 0.2662 0.3309
loop_
_geom_bond_atom_site_label_1
_geom_bond_atom_site_label_2
_geom_bond_site_symmetry_1
_geom_bond_site_symmetry_2
Cu1 Cl1 1_555 1_555
N1 Cu1 1_555 1_555
N2 N3 1_555 1_555
N3 C2 1_555 1_555
C1 N1 1_555 1_555
H1 C1 1_555 1_555
C2 N1 1_555 1_555
H2 C2 1_555 1_555
C3 N3 1_555 1_555
H3 C3 1_555 1_555
H4 C3 1_555 1_555
C4 C3 1_555 1_555
C5 C7 1_555 1_555
C6 C4 1_555 1_555
H5 C6 1_555 1_555
C7 C6 1_555 1_555
H6 C7 1_555 1_555
C8 C5 1_555 1_555
H7 C8 1_555 1_555
C9 C4 1_555 1_555
H8 C9 1_555 1_555
Cu1_2 N1A 1_555 1_555
Cl1A Cu1 1_555 1_555
N1A C1A 1_555 1_555
N1A_2 Cu1 1_555 1_555
N1D Cu1 1_555 1_555
N1E Cu1 1_555 1_555
N1D_2 Cu1_2 1_555 1_555
N2A N3A 1_555 1_555
N2E N3E 1_555 1_555
N2D N3D 1_555 1_555
N3A C2A 1_555 1_555
N3E C2E 1_555 1_555
N3D C2D 1_555 1_555
C1A N2A 1_555 1_555
C1E N1E 1_555 1_555
C1D N1D_2 1_555 1_555
H1A C1A 1_555 1_555
H1E C1E 1_555 1_555
H1D C1D 1_555 1_555
C2A N1A 1_555 1_555
C2E N1E 1_555 1_555
C2D N1D_2 1_555 1_555
H2A C2A 1_555 1_555
H2E C2E 1_555 1_555
H2D C2D 1_555 1_555
C3A N3A 1_555 1_555
C3E N3E 1_555 1_555
C3D N3D 1_555 1_555
H3A C3A 1_555 1_555
H3E C3E 1_555 1_555
H3D C3D 1_555 1_555
H4A C3A 1_555 1_555
H4E C3E 1_555 1_555
H4D C3D 1_555 1_555
C4A C3A 1_555 1_555
C4E C3E 1_555 1_555
C4D C3D 1_555 1_555
C5A C5 1_555 1_555
C5E C5D 1_555 1_555
C5D C7D 1_555 1_555
C6A C4A 1_555 1_555
C6E C4E 1_555 1_555
C6D C4D 1_555 1_555
H5A C6A 1_555 1_555
H5E C6E 1_555 1_555
H5D C6D 1_555 1_555
C7A C5A 1_555 1_555
C7E C5E 1_555 1_555
C7D C6D 1_555 1_555
H6A C7A 1_555 1_555
H6E C7E 1_555 1_555
H6D C7D 1_555 1_555
C8A C5A 1_555 1_555
C8E C5E 1_555 1_555
C8D C5D 1_555 1_555
H7A C8A 1_555 1_555
H7E C8E 1_555 1_555
H7D C8D 1_555 1_555
C9A C4A 1_555 1_555
C9E C4E 1_555 1_555
C9D C4D 1_555 1_555
H8A C9A 1_555 1_555
H8E C9E 1_555 1_555
H8D C9D 1_555 1_555
N2 C1 1_555 1_555
C8 C9 1_555 1_555
N2E C1E 1_555 1_555
N2D C1D 1_555 1_555
C6A C7A 1_555 1_555
C6E C7E 1_555 1_555
C8A C9A 1_555 1_555
C8E C9E 1_555 1_555
C8D C9D 1_555 1_555

#END
