
#######################################################################
#
#                 Cambridge Crystallographic Data Centre
#                                CCDC 
#
#######################################################################
#
# If this CIF has been generated from an entry in the Cambridge 
# Structural Database, then it will include bibliographic, chemical, 
# crystal, experimental, refinement or atomic coordinate data resulting 
# from the CCDC's data processing and validation procedures.
#
#######################################################################

data_TACDIL
_symmetry_cell_setting           triclinic
_symmetry_space_group_name_H-M   'P -1'
_symmetry_Int_Tables_number      2
_space_group_name_Hall           '-P 1'
loop_
_symmetry_equiv_pos_site_id
_symmetry_equiv_pos_as_xyz
1 x,y,z
2 -x,-y,-z
_cell_length_a                   3.7649(15)
_cell_length_b                   9.400(4)
_cell_length_c                   10.068(4)
_cell_angle_alpha                85.159(8)
_cell_angle_beta                 86.133(8)
_cell_angle_gamma                78.749(7)
_cell_volume                     347.739
loop_
_atom_site_label
_atom_site_type_symbol
_atom_site_fract_x
_atom_site_fract_y
_atom_site_fract_z
Tl1 Tl 0.26571(13) 0.87512(5) 0.14160(5)
O1 O 0.354(2) 0.9255(9) -0.1049(8)
O2 O 0.218(2) 0.4091(10) -0.1132(8)
O3 O 0.108(3) 0.3885(11) -0.3170(12)
C1 C 0.319(3) 0.8379(13) -0.1968(12)
C2 C 0.290(3) 0.6924(13) -0.1673(12)
H1 H 0.3017 0.6521 -0.0776
C3 C 0.244(3) 0.6066(14) -0.2674(13)
C4 C 0.235(3) 0.6539(15) -0.4017(12)
H2 H 0.2069 0.5921 -0.4687
C5 C 0.269(3) 0.7984(16) -0.4314(12)
H3 H 0.2617 0.8367 -0.5218
C6 C 0.314(3) 0.8889(12) -0.3329(13)
H4 H 0.3427 0.9860 -0.3578
N1 N 0.189(3) 0.4606(11) -0.2287(11)
O1A O -0.354(2) 1.0745(9) 0.1049(8)
O1A_2 O 0.646(2) 1.0745(9) 0.1049(8)
Tl1A Tl -0.26571(13) 1.12488(5) -0.14160(5)
Tl1A_2 Tl 0.73429(13) 1.12488(5) -0.14160(5)
loop_
_geom_bond_atom_site_label_1
_geom_bond_atom_site_label_2
_geom_bond_site_symmetry_1
_geom_bond_site_symmetry_2
Tl1 O1 1_555 1_555
O1 C1 1_555 1_555
O2 N1 1_555 1_555
O3 N1 1_555 1_555
C1 C2 1_555 1_555
C2 H1 1_555 1_555
C3 C2 1_555 1_555
C4 C3 1_555 1_555
H2 C4 1_555 1_555
C5 C4 1_555 1_555
H3 C5 1_555 1_555
C6 C1 1_555 1_555
H4 C6 1_555 1_555
N1 C3 1_555 1_555
O1A Tl1 1_555 1_555
O1A_2 Tl1 1_555 1_555
Tl1A O1 1_555 1_555
Tl1A_2 O1 1_555 1_555
C5 C6 1_555 1_555
O1A Tl1A 1_555 1_555
O1A_2 Tl1A_2 1_555 1_555

#END
