
#######################################################################
#
#                 Cambridge Crystallographic Data Centre
#                                CCDC 
#
#######################################################################
#
# If this CIF has been generated from an entry in the Cambridge 
# Structural Database, then it will include bibliographic, chemical, 
# crystal, experimental, refinement or atomic coordinate data resulting 
# from the CCDC's data processing and validation procedures.
#
#######################################################################

data_TACDOR
_symmetry_cell_setting           monoclinic
_symmetry_space_group_name_H-M   'P 21/c'
_symmetry_Int_Tables_number      14
_space_group_name_Hall           '-P 2ybc'
loop_
_symmetry_equiv_pos_site_id
_symmetry_equiv_pos_as_xyz
1 x,y,z
2 x,1/2-y,1/2+z
3 -x,-y,-z
4 -x,1/2+y,1/2-z
_cell_length_a                   5.458(3)
_cell_length_b                   19.261(11)
_cell_length_c                   7.636(4)
_cell_angle_alpha                90
_cell_angle_beta                 91.857(11)
_cell_angle_gamma                90
_cell_volume                     802.325
loop_
_atom_site_label
_atom_site_type_symbol
_atom_site_fract_x
_atom_site_fract_y
_atom_site_fract_z
Tl1 Tl 0.43193(4) 0.515929(12) 0.73505(3)
O1 O 0.3826(8) 0.4242(3) 0.9815(6)
O2 O -0.1064(9) 0.1400(3) 0.7820(7)
O3 O 0.1962(8) 0.1052(3) 0.9503(6)
O4 O -0.0562(9) 0.4575(3) 0.8309(8)
O5 O -0.2527(7) 0.3780(3) 0.6867(6)
N1 N 0.0746(9) 0.1526(3) 0.8778(7)
N2 N -0.0874(9) 0.3969(3) 0.7897(7)
C1 C 0.3034(10) 0.3630(3) 0.9570(7)
C2 C 0.4418(11) 0.3043(4) 1.0239(8)
C3 C 0.3694(11) 0.2372(4) 1.0010(8)
C4 C 0.1483(10) 0.2233(3) 0.9083(8)
C5 C 0.0049(10) 0.2760(3) 0.8390(7)
C6 C 0.0769(10) 0.3444(3) 0.8649(8)
H1 H 0.5903 0.3152 1.0860
H2 H -0.1385 0.2603 0.7696
H3 H 0.4738 0.1893 1.0461
O1B O 0.6174(8) 0.5758(3) 1.0185(6)
Tl1B Tl 0.56807(4) 0.484071(12) 1.26495(3)
loop_
_geom_bond_atom_site_label_1
_geom_bond_atom_site_label_2
_geom_bond_site_symmetry_1
_geom_bond_site_symmetry_2
Tl1 O1 1_555 1_555
O1 C1 1_555 1_555
O2 N1 1_555 1_555
O3 N1 1_555 1_555
O4 N2 1_555 1_555
O5 N2 1_555 1_555
N1 C4 1_555 1_555
N2 C6 1_555 1_555
C1 C2 1_555 1_555
C2 C3 1_555 1_555
C3 C4 1_555 1_555
C4 C5 1_555 1_555
C5 C6 1_555 1_555
C6 C1 1_555 1_555
H1 C2 1_555 1_555
H2 C5 1_555 1_555
H3 C3 1_555 1_555
O1B Tl1 1_555 1_555
Tl1B O1 1_555 1_555
O1B Tl1B 1_555 1_555

#END
