
#######################################################################
#
#                 Cambridge Crystallographic Data Centre
#                                CCDC 
#
#######################################################################
#
# If this CIF has been generated from an entry in the Cambridge 
# Structural Database, then it will include bibliographic, chemical, 
# crystal, experimental, refinement or atomic coordinate data resulting 
# from the CCDC's data processing and validation procedures.
#
#######################################################################

data_TACGEL
_symmetry_cell_setting           triclinic
_symmetry_space_group_name_H-M   'P -1'
_symmetry_Int_Tables_number      2
_space_group_name_Hall           '-P 1'
loop_
_symmetry_equiv_pos_site_id
_symmetry_equiv_pos_as_xyz
1 x,y,z
2 -x,-y,-z
_cell_length_a                   9.6556(4)
_cell_length_b                   10.6835(4)
_cell_length_c                   12.1750(4)
_cell_angle_alpha                87.2590(10)
_cell_angle_beta                 79.5140(10)
_cell_angle_gamma                67.4120(10)
_cell_volume                     1139.88
loop_
_atom_site_label
_atom_site_type_symbol
_atom_site_fract_x
_atom_site_fract_y
_atom_site_fract_z
Mn1 Mn 0.74157(3) 0.13670(3) 0.42942(2)
Mn2 Mn 0.5000 0.5000 0.5000
C1 C 0.7919(2) 0.3151(2) 0.59988(17)
C2 C 0.8999(2) 0.3493(2) 0.66009(19)
H1 H 0.9635 0.2686 0.6939
H2 H 0.9658 0.3816 0.6068
C3 C 0.7855(3) 0.4194(2) 0.85391(19)
H3 H 0.8334 0.3299 0.8739
C4 C 0.7421(2) 0.5824(2) 0.71559(18)
H4 H 0.7615 0.6049 0.6412
C5 C 0.6907(3) 0.5144(2) 0.93369(19)
H5 H 0.6759 0.4899 1.0079
C6 C 0.6441(3) 0.6804(2) 0.79293(18)
H6 H 0.5964 0.7688 0.7707
C7 C 0.6164(2) 0.6475(2) 0.90409(18)
C8 C 0.5094(3) 0.7511(2) 0.98860(19)
C9 C 0.5193(3) 0.7377(3) 1.1012(2)
H7 H 0.5945 0.6625 1.1252
C10 C 0.3927(3) 0.8646(3) 0.9575(2)
H8 H 0.3810 0.8756 0.8831
C11 C 0.4173(3) 0.8363(3) 1.1775(2)
H9 H 0.4240 0.8269 1.2529
C12 C 0.2953(3) 0.9599(3) 1.0367(2)
H10 H 0.2185 1.0360 1.0154
C13 C 0.1958(3) 1.0456(3) 1.2277(2)
H11 H 0.1821 1.1361 1.2016
H12 H 0.2337 1.0347 1.2975
C14 C 0.0424(3) 1.0306(2) 1.2483(2)
N1 N 0.8099(2) 0.45447(18) 0.74687(15)
N2 N 0.3093(2) 0.9446(2) 1.14430(16)
N3 N 0.6268(2) 0.34233(17) 0.36751(15)
N4 N 0.6541(2) 0.3640(2) 0.27101(17)
N5 N 0.6812(4) 0.3823(3) 0.1778(2)
O1 O 0.85218(17) 0.20714(16) 0.54274(13)
O2 O 0.65805(17) 0.39605(15) 0.61122(13)
O3 O -0.0581(2) 1.12341(18) 1.31221(15)
O4 O 0.0296(2) 0.9364(2) 1.20402(18)
O5 O 0.35130(18) 0.39386(15) 0.56655(16)
O6 O 0.54616(17) 0.16794(15) 0.56102(13)
O7 O 0.3311(2) 0.21017(18) 0.47251(15)
O8 O 0.30017(19) 0.21624(16) 0.67317(14)
S1 S 0.38136(6) 0.24711(5) 0.56807(4)
O9 O 0.8401(2) -0.06051(16) 0.49478(15)
H13 H 0.800(3) -0.114(3) 0.504(2)
H14 H 0.926(4) -0.102(3) 0.486(3)
O10 O 0.6123(4) 0.0630(3) 0.3272(2)
H15 H 0.662(4) -0.014(4) 0.316(3)
H16 H 0.522(6) 0.095(5) 0.366(4)
Mn1A Mn 0.25843(3) 0.86330(3) 0.57058(2)
Mn1_2 Mn -0.25843(3) 1.13670(3) 1.42942(2)
Mn1A_2 Mn 1.25843(3) -0.13670(3) -0.42942(2)
C1A C 0.2081(2) 0.6849(2) 0.40012(17)
C2A C 0.1001(2) 0.6507(2) 0.33991(19)
H1A H 0.0365 0.7314 0.3061
H2A H 0.0342 0.6184 0.3932
C3A C 0.2145(3) 0.5806(2) 0.14609(19)
H3A H 0.1666 0.6701 0.1261
C4A C 0.2579(2) 0.4176(2) 0.28441(18)
H4A H 0.2385 0.3951 0.3588
C5A C 0.3093(3) 0.4856(2) 0.06631(19)
H5A H 0.3241 0.5101 -0.0079
C6A C 0.3559(3) 0.3196(2) 0.20707(18)
H6A H 0.4036 0.2312 0.2293
C7A C 0.3836(2) 0.3525(2) 0.09591(18)
C8A C 0.4906(3) 0.2489(2) 0.01140(19)
C9A C 0.4807(3) 0.2623(3) -0.1012(2)
H7A H 0.4055 0.3375 -0.1252
C10A C 0.6073(3) 0.1354(3) 0.0425(2)
H8A H 0.6190 0.1244 0.1169
C11A C 0.5827(3) 0.1637(3) -0.1775(2)
H9A H 0.5760 0.1731 -0.2529
C12A C 0.7047(3) 0.0401(3) -0.0367(2)
H10A H 0.7815 -0.0360 -0.0154
C13A C 0.8042(3) -0.0456(3) -0.2277(2)
H11A H 0.8179 -0.1361 -0.2016
H12A H 0.7663 -0.0347 -0.2975
C14A C 0.9576(3) -0.0306(2) -0.2483(2)
N1A N 0.1901(2) 0.54553(18) 0.25313(15)
N2A N 0.6907(2) 0.0554(2) -0.14430(16)
N3A N 0.3732(2) 0.65767(17) 0.63249(15)
N4A N 0.3459(2) 0.6360(2) 0.72899(17)
N5A N 0.3188(4) 0.6177(3) 0.8222(2)
O1A O 0.14782(17) 0.79286(16) 0.45726(13)
O2A O 0.34195(17) 0.60395(15) 0.38878(13)
O3A O 1.0581(2) -0.12341(18) -0.31221(15)
O3_2 O 0.9419(2) 0.12341(18) 0.31221(15)
O3A_2 O 0.0581(2) 0.87659(18) 0.68779(15)
O4A O 0.9704(2) 0.0636(2) -0.20402(18)
O5A O 0.64870(18) 0.60614(15) 0.43345(16)
O6A O 0.45384(17) 0.83206(15) 0.43898(13)
O7A O 0.6689(2) 0.78983(18) 0.52749(15)
O8A O 0.69983(19) 0.78376(16) 0.32683(14)
S1A S 0.61864(6) 0.75289(5) 0.43193(4)
O9A O 0.1599(2) 1.06051(16) 0.50522(15)
H13A H 0.200(3) 1.114(3) 0.496(2)
H14A H 0.074(4) 1.102(3) 0.514(3)
O10A O 0.3877(4) 0.9370(3) 0.6728(2)
H15A H 0.338(4) 1.014(4) 0.684(3)
H16A H 0.478(6) 0.905(5) 0.634(4)
O11 O 0.9489(3) 0.4064(3) 0.3536(3)
H17 H 0.862(5) 0.457(4) 0.384(3)
H18 H 0.943(6) 0.330(5) 0.345(4)
O12 O 0.8800(4) 0.6046(3) 1.1480(3)
H19 H 0.834(6) 0.658(4) 1.204(3)
H20 H 0.900(7) 0.524(2) 1.165(4)
O13 O 0.9527(6) 0.7144(5) 0.9399(4)
H21 H 0.919(10) 0.671(7) 0.988(5)
H22 H 0.997(10) 0.671(7) 0.882(4)
O14 O 1.058(2) 0.850(2) 0.9806(16)
H23? H 0.800(4) -0.018(6) 0.251(7)
H24? H 0.87(2) 0.887(8) 0.139(9)
H25? H 0.92(2) 0.774(19) 0.068(13)
O15? O 0.7121(8) 0.0333(5) 0.2841(5)
O16? O 0.8596(16) 0.8154(15) 0.1245(12)
loop_
_geom_bond_atom_site_label_1
_geom_bond_atom_site_label_2
_geom_bond_site_symmetry_1
_geom_bond_site_symmetry_2
Mn1 N3 1_555 1_555
Mn2 N3 1_555 1_555
C1 C2 1_555 1_555
C2 H1 1_555 1_555
H2 C2 1_555 1_555
C3 H3 1_555 1_555
C4 H4 1_555 1_555
C5 C3 1_555 1_555
H5 C5 1_555 1_555
C6 C4 1_555 1_555
H6 C6 1_555 1_555
C7 C5 1_555 1_555
C8 C7 1_555 1_555
C9 C8 1_555 1_555
H7 C9 1_555 1_555
C10 C8 1_555 1_555
H8 C10 1_555 1_555
C11 C9 1_555 1_555
H9 C11 1_555 1_555
C12 C10 1_555 1_555
H10 C12 1_555 1_555
C13 H11 1_555 1_555
H12 C13 1_555 1_555
C14 C13 1_555 1_555
N1 C2 1_555 1_555
N2 C11 1_555 1_555
N3 N4 1_555 1_555
N4 N5 1_555 1_555
O1 Mn1 1_555 1_555
O2 Mn2 1_555 1_555
O3 C14 1_555 1_555
O4 C14 1_555 1_555
O5 Mn2 1_555 1_555
O6 Mn1 1_555 1_555
O7 S1 1_555 1_555
O8 S1 1_555 1_555
S1 O5 1_555 1_555
O9 Mn1 1_555 1_555
H13 O9 1_555 1_555
H14 O9 1_555 1_555
O10 Mn1 1_555 1_555
H15 O10 1_555 1_555
H16 O10 1_555 1_555
O11 H17 1_555 1_555
H18 O11 1_555 1_555
O12 H19 1_555 1_555
H20 O12 1_555 1_555
O13 H21 1_555 1_555
H22 O13 1_555 1_555
Mn1A N3A 1_555 1_555
Mn1_2 O3 1_555 1_555
Mn1A_2 O3A 1_555 1_555
C1A C2A 1_555 1_555
C2A H1A 1_555 1_555
H2A C2A 1_555 1_555
C3A H3A 1_555 1_555
C4A H4A 1_555 1_555
C5A C3A 1_555 1_555
H5A C5A 1_555 1_555
C6A C4A 1_555 1_555
H6A C6A 1_555 1_555
C7A C5A 1_555 1_555
C8A C7A 1_555 1_555
C9A C8A 1_555 1_555
H7A C9A 1_555 1_555
C10A C8A 1_555 1_555
H8A C10A 1_555 1_555
C11A C9A 1_555 1_555
H9A C11A 1_555 1_555
C12A C10A 1_555 1_555
H10A C12A 1_555 1_555
C13A H11A 1_555 1_555
H12A C13A 1_555 1_555
C14A C13A 1_555 1_555
N1A C2A 1_555 1_555
N2A C11A 1_555 1_555
N3A Mn2 1_555 1_555
N4A N3A 1_555 1_555
N5A N4A 1_555 1_555
O1A Mn1A 1_555 1_555
O2A Mn2 1_555 1_555
O3A C14A 1_555 1_555
O3_2 Mn1 1_555 1_555
O3A_2 Mn1A 1_555 1_555
O4A C14A 1_555 1_555
O5A Mn2 1_555 1_555
O6A Mn1A 1_555 1_555
O7A S1A 1_555 1_555
O8A S1A 1_555 1_555
S1A O5A 1_555 1_555
O9A Mn1A 1_555 1_555
H13A O9A 1_555 1_555
H14A O9A 1_555 1_555
O10A Mn1A 1_555 1_555
H15A O10A 1_555 1_555
H16A O10A 1_555 1_555
C1 O1 1_555 1_555
C1 O2 1_555 1_555
C3 N1 1_555 1_555
C4 N1 1_555 1_555
C6 C7 1_555 1_555
C12 N2 1_555 1_555
C13 N2 1_555 1_555
O6 S1 1_555 1_555
C1A O1A 1_555 1_555
C1A O2A 1_555 1_555
C3A N1A 1_555 1_555
C4A N1A 1_555 1_555
C6A C7A 1_555 1_555
C12A N2A 1_555 1_555
C13A N2A 1_555 1_555
O6A S1A 1_555 1_555

#END
