
#######################################################################
#
#                 Cambridge Crystallographic Data Centre
#                                CCDC 
#
#######################################################################
#
# If this CIF has been generated from an entry in the Cambridge 
# Structural Database, then it will include bibliographic, chemical, 
# crystal, experimental, refinement or atomic coordinate data resulting 
# from the CCDC's data processing and validation procedures.
#
#######################################################################

data_TACJOW
_symmetry_cell_setting           orthorhombic
_symmetry_space_group_name_H-M   'P b a m'
_symmetry_Int_Tables_number      55
_space_group_name_Hall           '-P 2 2ab'
loop_
_symmetry_equiv_pos_site_id
_symmetry_equiv_pos_as_xyz
1 x,y,z
2 1/2-x,1/2+y,z
3 1/2+x,1/2-y,z
4 -x,-y,z
5 -x,-y,-z
6 1/2+x,1/2-y,-z
7 1/2-x,1/2+y,-z
8 x,y,-z
_cell_length_a                   7.624(3)
_cell_length_b                   10.143(4)
_cell_length_c                   4.504(2)
_cell_angle_alpha                90
_cell_angle_beta                 90
_cell_angle_gamma                90
_cell_volume                     348.295
loop_
_atom_site_label
_atom_site_type_symbol
_atom_site_fract_x
_atom_site_fract_y
_atom_site_fract_z
Hg1 Hg 0.0000 0.0000 0.000
C1 C 0.408(2) -0.029(2) 0.000
N1 N 0.272(2) 0.069(2) 0.000
H1 H 0.290 0.129 0.196
H2 H 0.392 -0.090 0.196
N1C N -0.272(2) -0.069(2) 0.000
H1G H 0.290 0.129 -0.196
C1C C 0.592(2) 0.029(2) 0.000
H2G H 0.392 -0.090 -0.196
H1D H -0.290 -0.129 -0.196
H1C H -0.290 -0.129 0.196
N1C_2 N 0.728(2) -0.069(2) 0.000
H2D H 0.608 0.090 -0.196
H2C H 0.608 0.090 0.196
Hg1_2 Hg 1.0000 0.0000 0.000
H1C_2 H 0.710 -0.129 0.196
H1D_2 H 0.710 -0.129 -0.196
Br1 Br 0.0765(2) -0.1887(2) 0.500
loop_
_geom_bond_atom_site_label_1
_geom_bond_atom_site_label_2
_geom_bond_site_symmetry_1
_geom_bond_site_symmetry_2
Hg1 N1 1_555 1_555
C1 N1 1_555 1_555
N1 H1 1_555 1_555
H2 C1 1_555 1_555
N1C Hg1 1_555 1_555
H1G N1 1_555 1_555
C1C C1 1_555 1_555
H2G C1 1_555 1_555
H1D N1C 1_555 1_555
H1C N1C 1_555 1_555
N1C_2 C1C 1_555 1_555
H2D C1C 1_555 1_555
H2C C1C 1_555 1_555
Hg1_2 N1C_2 1_555 1_555
H1C_2 N1C_2 1_555 1_555
H1D_2 N1C_2 1_555 1_555

#END
