
#######################################################################
#
#                 Cambridge Crystallographic Data Centre
#                                CCDC 
#
#######################################################################
#
# If this CIF has been generated from an entry in the Cambridge 
# Structural Database, then it will include bibliographic, chemical, 
# crystal, experimental, refinement or atomic coordinate data resulting 
# from the CCDC's data processing and validation procedures.
#
#######################################################################

data_TACJEO
_symmetry_cell_setting           monoclinic
_symmetry_space_group_name_H-M   'C c'
_symmetry_Int_Tables_number      9
_space_group_name_Hall           'C -2yc'
loop_
_symmetry_equiv_pos_site_id
_symmetry_equiv_pos_as_xyz
1 x,y,z
2 x,-y,1/2+z
3 1/2+x,1/2+y,z
4 1/2+x,1/2-y,1/2+z
_cell_length_a                   24.602(4)
_cell_length_b                   19.992(3)
_cell_length_c                   18.972(3)
_cell_angle_alpha                90
_cell_angle_beta                 130.42
_cell_angle_gamma                90
_cell_volume                     7103.99
loop_
_atom_site_label
_atom_site_type_symbol
_atom_site_fract_x
_atom_site_fract_y
_atom_site_fract_z
C1 C -0.0037(4) 0.0899(4) 0.0840(5)
C2 C 0.0600(4) 0.0950(4) 0.1885(4)
H1 H 0.0640 0.1396 0.2115
H2 H 0.0558 0.0629 0.2231
C3 C 0.1826(2) 0.0518(2) 0.2708(2)
C4 C 0.2039(2) 0.0539(2) 0.3588(3)
H3 H 0.1731 0.0706 0.3671
C5 C 0.2712(3) 0.0310(2) 0.4345(2)
H4 H 0.2855 0.0323 0.4935
C6 C 0.31728(19) 0.0060(2) 0.4222(3)
C7 C 0.2960(2) 0.0039(2) 0.3341(3)
H5 H 0.3268 -0.0128 0.3258
C8 C 0.2286(2) 0.0269(3) 0.2584(2)
H6 H 0.2144 0.0255 0.1995
C9 C 0.3904(4) -0.0194(3) 0.5018(5)
C10 C -0.0032(4) 0.0166(4) 0.0586(5)
H7 H -0.0433 0.0089 -0.0065
H8 H 0.0405 0.0075 0.0696
C11 C 0.0029(3) -0.09263(14) 0.1146(4)
C12 C 0.0148(3) -0.1242(2) 0.0604(3)
H9 H 0.0190 -0.0990 0.0230
C13 C 0.0203(3) -0.1935(2) 0.0621(3)
H10 H 0.0283 -0.2146 0.0258
C14 C 0.0140(3) -0.23118(14) 0.1180(4)
C15 C 0.0021(3) -0.19958(19) 0.1722(3)
H11 H -0.0022 -0.2248 0.2097
C16 C -0.0035(3) -0.1303(2) 0.1705(3)
H12 H -0.0114 -0.1092 0.2068
C17 C 0.0250(4) -0.3066(3) 0.1258(5)
C18 C -0.0703(4) 0.1051(4) 0.0651(5)
H13 H -0.0845 0.0675 0.0822
H14 H -0.0642 0.1439 0.1003
C19 C -0.1887(2) 0.0886(3) -0.0832(3)
C20 C -0.2225(2) 0.0652(2) -0.0512(2)
H15 H -0.1994 0.0675 0.0115
C21 C -0.2909(2) 0.0384(2) -0.1130(3)
H16 H -0.3135 0.0227 -0.0916
C22 C -0.3254(2) 0.0349(2) -0.2068(3)
C23 C -0.2916(3) 0.0583(3) -0.2388(2)
H17 H -0.3147 0.0560 -0.3016
C24 C -0.2233(3) 0.0851(3) -0.1770(3)
H18 H -0.2007 0.1008 -0.1984
C25 C -0.3955(4) -0.0014(4) -0.2731(6)
C26 C 0.0070(4) 0.1312(3) 0.0264(5)
H19 H 0.0526 0.1211 0.0430
H20 H -0.0308 0.1225 -0.0391
C27 C 0.0002(3) 0.24888(17) -0.0053(3)
C28 C -0.0070(3) 0.23609(16) -0.0830(3)
H21 H -0.0058 0.1923 -0.0985
C29 C -0.0161(3) 0.2887(2) -0.1377(3)
H22 H -0.0210 0.2802 -0.1897
C30 C -0.0180(3) 0.35419(18) -0.1146(3)
C31 C -0.0107(3) 0.36698(15) -0.0368(3)
H23 H -0.0119 0.4108 -0.0213
C32 C -0.0016(3) 0.3143(2) 0.0179(3)
H24 H 0.0033 0.3229 0.0699
C33 C -0.0268(4) 0.4091(3) -0.1755(5)
O1 O 0.1210(3) 0.0794(2) 0.1943(4)
O2 O 0.4272(3) -0.0366(2) 0.4829(3)
O3 O 0.4036(3) -0.0291(2) 0.5758(3)
O4 O -0.0080(3) -0.0254(2) 0.1126(4)
O5 O 0.0530(3) -0.3291(2) 0.0937(4)
O6 O 0.0010(3) -0.3370(2) 0.1567(4)
O7 O -0.1242(3) 0.1183(2) -0.0337(3)
O8 O -0.4212(3) -0.0179(3) -0.2339(4)
O9 O -0.4170(3) -0.0154(2) -0.3479(4)
O10 O 0.0047(3) 0.2003(2) 0.0486(3)
O11 O -0.0384(3) 0.3915(2) -0.2476(3)
O12 O -0.0238(3) 0.4686(2) -0.1545(4)
O26 O 0.5372(3) -0.0640(3) 0.4627(4)
H58 H 0.5363 -0.0174 0.4497
H59 H 0.5015 -0.0874 0.4061
Zn1 Zn 0.51868(8) -0.07357(4) 0.54293(10)
Zn2 Zn 0.48755(7) -0.07120(3) 0.68652(9)
O5C O 0.5530(3) -0.1709(2) 0.5937(4)
O6C O 0.5010(3) -0.1630(2) 0.6567(4)
O8_2 O 0.5788(3) -0.0179(3) 0.7661(4)
O9_2 O 0.5830(3) -0.0154(2) 0.6521(4)
O11B O 0.4616(3) -0.1085(2) 0.7524(3)
Zn1_2 Zn -0.48132(8) -0.07357(4) -0.45707(10)
Zn1C Zn 0.01868(8) -0.42643(4) 0.04293(10)
Zn2_2 Zn -0.51245(7) -0.07120(3) -0.31348(9)
Zn2B Zn -0.01245(7) 0.42880(3) -0.31348(9)
Zn2C Zn -0.01245(7) -0.42880(3) 0.18652(9)
C34 C 0.2303(4) 0.1669(3) 0.0666(5)
C35 C 0.1682(4) 0.1187(3) 0.0188(4)
H25 H 0.1373 0.1320 0.0312
H26 H 0.1408 0.1214 -0.0476
C36 C 0.1437(2) 0.00122(16) -0.0055(3)
C37 C 0.1727(2) -0.0625(2) 0.0253(3)
H27 H 0.2200 -0.0677 0.0789
C38 C 0.1311(3) -0.11839(15) -0.0241(3)
H28 H 0.1505 -0.1610 -0.0035
C39 C 0.0604(2) -0.11063(16) -0.1042(3)
C40 C 0.03131(19) -0.0469(2) -0.1350(3)
H29 H -0.0160 -0.0418 -0.1886
C41 C 0.0729(2) 0.00898(15) -0.0857(3)
H30 H 0.0535 0.0516 -0.1063
C42 C 0.0193(4) -0.1730(4) -0.1541(5)
C43 C 0.2669(4) 0.1640(4) 0.1697(4)
H31 H 0.2830 0.1188 0.1932
H32 H 0.3079 0.1936 0.2051
C44 C 0.2345(2) 0.2095(2) 0.2575(2)
C45 C 0.1792(2) 0.2367(2) 0.2504(2)
H33 H 0.1340 0.2413 0.1927
C46 C 0.1914(2) 0.2572(2) 0.3297(3)
H34 H 0.1543 0.2754 0.3249
C47 C 0.2589(3) 0.2504(2) 0.4160(2)
C48 C 0.3142(2) 0.2231(3) 0.4230(2)
H35 H 0.3594 0.2186 0.4808
C49 C 0.3020(2) 0.2027(2) 0.3438(3)
H36 H 0.3391 0.1845 0.3485
C50 C 0.2769(4) 0.2720(4) 0.5040(5)
C51 C 0.2023(4) 0.2352(3) 0.0303(5)
H37 H 0.1808 0.2385 -0.0342
H38 H 0.1670 0.2473 0.0358
C52 C 0.2546(3) 0.34277(14) 0.0891(4)
C53 C 0.1880(2) 0.37277(19) 0.0259(4)
H39 H 0.1476 0.3465 -0.0150
C54 C 0.1818(2) 0.4420(2) 0.0237(3)
H40 H 0.1373 0.4621 -0.0186
C55 C 0.2422(3) 0.48122(14) 0.0849(4)
C56 C 0.3087(2) 0.4512(2) 0.1481(3)
H41 H 0.3491 0.4775 0.1890
C57 C 0.3149(2) 0.3820(2) 0.1502(3)
H42 H 0.3594 0.3619 0.1925
C58 C 0.2264(5) 0.5551(3) 0.0775(6)
C59 C 0.2822(4) 0.1474(4) 0.0564(5)
H43 H 0.3073 0.1071 0.0915
H44 H 0.3168 0.1828 0.0781
C60 C 0.2656(3) 0.1549(2) -0.0859(3)
C61 C 0.3338(2) 0.1791(2) -0.0422(2)
H45 H 0.3673 0.1814 0.0220
C62 C 0.3519(2) 0.1997(2) -0.0946(3)
H46 H 0.3975 0.2159 -0.0654
C63 C 0.3018(3) 0.1963(2) -0.1907(3)
C64 C 0.2336(2) 0.1721(2) -0.2343(2)
H47 H 0.2002 0.1698 -0.2986
C65 C 0.2155(2) 0.1514(2) -0.1820(3)
H48 H 0.1699 0.1353 -0.2112
C66 C 0.3247(5) 0.2228(4) -0.2423(5)
C67 C 0.3124(5) 0.6238(4) 0.4561(5)
H49 H 0.3399 0.5875 0.4601
H50 H 0.2937 0.6110 0.4855
H51 H 0.3424 0.6624 0.4866
C68 C 0.1808(5) 0.6600(4) 0.3222(5)
H52 H 0.1644 0.6977 0.2816
H53 H 0.1835 0.6720 0.3734
H54 H 0.1481 0.6235 0.2890
C69 C 0.2705(5) 0.6346(4) 0.2991(5)
C70 C 0.3414(5) 0.6089(4) 0.3295(6)
H55 H 0.3739 0.6457 0.3513
H56 H 0.3335 0.5882 0.2779
H57 H 0.3614 0.5768 0.3783
N1 N 0.2526(4) 0.6397(3) 0.3573(5)
O13 O 0.1894(3) 0.0540(2) 0.0468(3)
O14 O -0.0401(3) -0.1614(3) -0.2324(3)
O15 O 0.0362(3) -0.2272(2) -0.1284(4)
O16 O 0.2145(3) 0.1848(3) 0.1772(3)
O17 O 0.2228(3) 0.2895(3) 0.4960(4)
O18 O 0.3377(3) 0.2764(2) 0.5804(4)
O19 O 0.2654(3) 0.2777(2) 0.0887(4)
O20 O 0.2849(3) 0.5850(2) 0.1342(4)
O21 O 0.1778(3) 0.5929(3) 0.0404(4)
O22 O 0.2405(3) 0.1355(3) -0.0433(4)
O23 O 0.2780(3) 0.2328(2) -0.3244(4)
O24 O 0.3923(3) 0.2317(3) -0.1942(4)
O25 O 0.2294(3) 0.6514(3) 0.2163(4)
O27 O -0.0521(3) -0.3244(2) -0.2856(4)
H60 H -0.0033 -0.3142 -0.2556
H61 H -0.0537 -0.3584 -0.2512
O28 O 0.1264(3) 0.7190(3) 0.0403(4)
H62 H 0.1046 0.6948 0.0600
H63 H 0.0970 0.7154 -0.0257
Zn3 Zn -0.10068(7) -0.24177(4) -0.29125(9)
Zn4 Zn 0.22177(8) 0.68097(4) 0.10098(10)
O17A O 0.2228(3) 0.7105(3) -0.0040(4)
O18B O -0.1623(3) -0.2236(2) -0.4196(4)
O23A O 0.2780(3) 0.7672(2) 0.1756(4)
O24B O -0.1077(3) -0.2683(3) -0.1942(4)
Zn3B Zn 0.39932(7) 0.25823(4) -0.29125(9)
Zn3B_2 Zn 0.39932(7) 0.25823(4) 0.70875(9)
Zn4A Zn 0.22177(8) 0.31903(4) -0.39902(10)
Zn4A_2 Zn 0.22177(8) 0.31903(4) 0.60098(10)
O29 O 0.5671(3) -0.1095(3) 0.3521(4)
H64 H 0.5705 -0.0763 0.3271
H65 H 0.6063 -0.1309 0.3852
O30 O 0.8842(3) 0.5593(2) 0.6876(4)
H66 H 0.9089 0.5275 0.6913
H67 H 0.8803 0.5543 0.7287
loop_
_geom_bond_atom_site_label_1
_geom_bond_atom_site_label_2
_geom_bond_site_symmetry_1
_geom_bond_site_symmetry_2
C1 C2 1_555 1_555
C2 H1 1_555 1_555
H2 C2 1_555 1_555
C3 C4 1_555 1_555
C4 H3 1_555 1_555
C5 C4 1_555 1_555
H4 C5 1_555 1_555
C6 C5 1_555 1_555
C7 C6 1_555 1_555
H5 C7 1_555 1_555
C8 C3 1_555 1_555
H6 C8 1_555 1_555
C9 C6 1_555 1_555
C10 C1 1_555 1_555
H7 C10 1_555 1_555
H8 C10 1_555 1_555
C11 C12 1_555 1_555
C12 H9 1_555 1_555
C13 C12 1_555 1_555
H10 C13 1_555 1_555
C14 C13 1_555 1_555
C15 C14 1_555 1_555
H11 C15 1_555 1_555
C16 C11 1_555 1_555
H12 C16 1_555 1_555
C17 C14 1_555 1_555
C18 C1 1_555 1_555
H13 C18 1_555 1_555
H14 C18 1_555 1_555
C19 C20 1_555 1_555
C20 H15 1_555 1_555
C21 C20 1_555 1_555
H16 C21 1_555 1_555
C22 C21 1_555 1_555
C23 C22 1_555 1_555
H17 C23 1_555 1_555
C24 C19 1_555 1_555
H18 C24 1_555 1_555
C25 C22 1_555 1_555
C26 C1 1_555 1_555
H19 C26 1_555 1_555
H20 C26 1_555 1_555
C27 C28 1_555 1_555
C28 H21 1_555 1_555
C29 C28 1_555 1_555
H22 C29 1_555 1_555
C30 C29 1_555 1_555
C31 C30 1_555 1_555
H23 C31 1_555 1_555
C32 C27 1_555 1_555
H24 C32 1_555 1_555
C33 C30 1_555 1_555
C34 C35 1_555 1_555
C35 H25 1_555 1_555
H26 C35 1_555 1_555
C36 C37 1_555 1_555
C37 H27 1_555 1_555
C38 C37 1_555 1_555
H28 C38 1_555 1_555
C39 C38 1_555 1_555
C40 C39 1_555 1_555
H29 C40 1_555 1_555
C41 C36 1_555 1_555
H30 C41 1_555 1_555
C42 C39 1_555 1_555
C43 C34 1_555 1_555
H31 C43 1_555 1_555
H32 C43 1_555 1_555
C44 C45 1_555 1_555
C45 H33 1_555 1_555
C46 C45 1_555 1_555
H34 C46 1_555 1_555
C47 C46 1_555 1_555
C48 C47 1_555 1_555
H35 C48 1_555 1_555
C49 C44 1_555 1_555
H36 C49 1_555 1_555
C50 C47 1_555 1_555
C51 C34 1_555 1_555
H37 C51 1_555 1_555
H38 C51 1_555 1_555
C52 C53 1_555 1_555
C53 H39 1_555 1_555
C54 C53 1_555 1_555
H40 C54 1_555 1_555
C55 C54 1_555 1_555
C56 C55 1_555 1_555
H41 C56 1_555 1_555
C57 C52 1_555 1_555
H42 C57 1_555 1_555
C58 C55 1_555 1_555
C59 C34 1_555 1_555
H43 C59 1_555 1_555
H44 C59 1_555 1_555
C60 C61 1_555 1_555
C61 H45 1_555 1_555
C62 C61 1_555 1_555
H46 C62 1_555 1_555
C63 C62 1_555 1_555
C64 C63 1_555 1_555
H47 C64 1_555 1_555
C65 C60 1_555 1_555
H48 C65 1_555 1_555
C66 C63 1_555 1_555
C67 H49 1_555 1_555
H50 C67 1_555 1_555
H51 C67 1_555 1_555
C68 H52 1_555 1_555
H53 C68 1_555 1_555
H54 C68 1_555 1_555
C69 C70 1_555 1_555
C70 H55 1_555 1_555
H56 C70 1_555 1_555
H57 C70 1_555 1_555
N1 C67 1_555 1_555
O1 C2 1_555 1_555
O2 C9 1_555 1_555
O3 C9 1_555 1_555
O4 C10 1_555 1_555
O5 C17 1_555 1_555
O6 C17 1_555 1_555
O7 C18 1_555 1_555
O8 C25 1_555 1_555
O9 C25 1_555 1_555
O10 C26 1_555 1_555
O11 C33 1_555 1_555
O12 C33 1_555 1_555
O13 C35 1_555 1_555
O14 C42 1_555 1_555
O15 C42 1_555 1_555
O16 C43 1_555 1_555
O17 C50 1_555 1_555
O18 C50 1_555 1_555
O19 C51 1_555 1_555
O20 C58 1_555 1_555
O21 C58 1_555 1_555
O22 C59 1_555 1_555
O23 C66 1_555 1_555
O24 C66 1_555 1_555
O25 C69 1_555 1_555
O26 H58 1_555 1_555
H59 O26 1_555 1_555
O27 H60 1_555 1_555
H61 O27 1_555 1_555
O28 H62 1_555 1_555
H63 O28 1_555 1_555
O29 H64 1_555 1_555
H65 O29 1_555 1_555
O30 H66 1_555 1_555
H67 O30 1_555 1_555
Zn1 O2 1_555 1_555
Zn2 O3 1_555 1_555
Zn3 O14 1_555 1_555
Zn4 O20 1_555 1_555
O5C Zn1 1_555 1_555
O6C Zn2 1_555 1_555
O8_2 Zn2 1_555 1_555
O9_2 Zn1 1_555 1_555
O11B Zn2 1_555 1_555
O17A Zn4 1_555 1_555
O18B Zn3 1_555 1_555
O23A Zn4 1_555 1_555
O24B Zn3 1_555 1_555
Zn1_2 O9 1_555 1_555
Zn1C O5 1_555 1_555
Zn2_2 O8 1_555 1_555
Zn2B O11 1_555 1_555
Zn2C O6 1_555 1_555
Zn3B O24 1_555 1_555
Zn3B_2 O18 1_555 1_555
Zn4A O23 1_555 1_555
Zn4A_2 O17 1_555 1_555
C3 O1 1_555 1_555
C7 C8 1_555 1_555
C11 O4 1_555 1_555
C15 C16 1_555 1_555
C19 O7 1_555 1_555
C23 C24 1_555 1_555
C27 O10 1_555 1_555
C31 C32 1_555 1_555
C36 O13 1_555 1_555
C40 C41 1_555 1_555
C44 O16 1_555 1_555
C48 C49 1_555 1_555
C52 O19 1_555 1_555
C56 C57 1_555 1_555
C60 O22 1_555 1_555
C64 C65 1_555 1_555
C68 N1 1_555 1_555
C69 N1 1_555 1_555
O21 Zn4 1_555 1_555
O25 Zn4 1_555 1_555
O26 Zn1 1_555 1_555
O27 Zn3 1_555 1_555
O28 Zn4 1_555 1_555

#END
