
#######################################################################
#
#                 Cambridge Crystallographic Data Centre
#                                CCDC 
#
#######################################################################
#
# If this CIF has been generated from an entry in the Cambridge 
# Structural Database, then it will include bibliographic, chemical, 
# crystal, experimental, refinement or atomic coordinate data resulting 
# from the CCDC's data processing and validation procedures.
#
#######################################################################

data_TACJIS
_symmetry_cell_setting           tetragonal
_symmetry_space_group_name_H-M   'I -4'
_symmetry_Int_Tables_number      82
_space_group_name_Hall           'I -4'
loop_
_symmetry_equiv_pos_site_id
_symmetry_equiv_pos_as_xyz
1 x,y,z
2 -x,-y,z
3 y,-x,-z
4 -y,x,-z
5 1/2+x,1/2+y,1/2+z
6 1/2-x,1/2-y,1/2+z
7 1/2+y,1/2-x,1/2-z
8 1/2-y,1/2+x,1/2-z
_cell_length_a                   22.5854(10)
_cell_length_b                   22.5854(10)
_cell_length_c                   8.8962(8)
_cell_angle_alpha                90
_cell_angle_beta                 90
_cell_angle_gamma                90
_cell_volume                     4537.95
loop_
_atom_site_label
_atom_site_type_symbol
_atom_site_fract_x
_atom_site_fract_y
_atom_site_fract_z
C1 C 0.5000 0.0000 -0.7500
C2 C 0.5358(3) 0.0425(2) -0.6543(7)
H1 H 0.5613 0.0664 -0.7176
H2 H 0.5095 0.0687 -0.5995
C3 C 0.5996(3) 0.0391(3) -0.4414(6)
C4 C 0.6118(3) 0.0998(3) -0.4503(7)
H3 H 0.6007 0.1214 -0.5346
C5 C 0.6407(3) 0.1271(3) -0.3320(8)
H4 H 0.6488 0.1674 -0.3371
C6 C 0.6579(3) 0.0949(3) -0.2041(7)
C7 C 0.6458(3) 0.0332(3) -0.2010(7)
H5 H 0.6572 0.0109 -0.1180
C8 C 0.6177(3) 0.0063(2) -0.3179(8)
H6 H 0.6107 -0.0342 -0.3150
C9 C 0.6836(3) 0.1245(3) -0.0702(6)
C10 C 1.0000 0.0000 1.0000
C11 C 0.9464(3) 0.0152(3) 0.9035(7)
H7 H 0.9324 -0.0199 0.8515
H8 H 0.9146 0.0301 0.9661
C12 C 0.9234(3) 0.0780(3) 0.6942(7)
C13 C 0.8623(3) 0.0702(3) 0.7142(7)
H9 H 0.8478 0.0507 0.7987
C14 C 0.8235(3) 0.0922(3) 0.6044(8)
H10 H 0.7828 0.0884 0.6177
C15 C 0.8450(3) 0.1191(3) 0.4778(8)
C16 C 0.9072(3) 0.1256(3) 0.4545(8)
H11 H 0.9219 0.1433 0.3678
C17 C 0.9450(3) 0.1046(3) 0.5657(7)
H12 H 0.9857 0.1086 0.5532
C18 C 0.8028(3) 0.1428(3) 0.3625(7)
C19 C 0.6078(3) 0.2676(3) 0.4526(8)
H13 H 0.6424 0.2487 0.4924
H14 H 0.5751 0.2616 0.5199
H15 H 0.6151 0.3093 0.4419
C20 C 0.5929(3) 0.2412(3) 0.2993(8)
C21 C 0.4875(3) 0.2805(3) 0.3291(10)
H16 H 0.5046 0.2948 0.4209
H17 H 0.4545 0.2552 0.3518
H18 H 0.4742 0.3133 0.2696
C22 C 0.5183(4) 0.2217(3) 0.0902(9)
H19 H 0.5481 0.2338 0.0198
H20 H 0.4804 0.2363 0.0583
H21 H 0.5172 0.1792 0.0951
Cd1 Cd 0.718996(19) 0.183051(19) 0.17374(5)
N1 N 0.5327(3) 0.2463(2) 0.2437(7)
O1 O 0.5706(2) 0.00874(19) -0.5516(5)
O2 O 0.7043(2) 0.1766(2) -0.0858(5)
O3 O 0.6836(2) 0.0997(2) 0.0523(5)
O4 O 0.96415(18) 0.0596(2) 0.7965(5)
O5 O 0.7514(2) 0.1579(2) 0.4069(5)
O6 O 0.8183(2) 0.1465(2) 0.2273(5)
O7 O 0.6269(2) 0.2070(2) 0.2440(6)
O8 O 0.7496(2) 0.27501(19) 0.1625(6)
H22 H 0.7456 0.2931 0.2595
H23 H 0.7261 0.2964 0.0906
C2A C 0.4642(3) -0.0425(2) -0.6543(7)
C2F C 0.5425(2) -0.0358(3) -0.8457(7)
C2G C 0.4575(2) 0.0358(3) -0.8457(7)
H1A H 0.4387 -0.0664 -0.7176
H1F H 0.5664 -0.0613 -0.7824
H1G H 0.4336 0.0613 -0.7824
H2A H 0.4905 -0.0687 -0.5995
H2F H 0.5687 -0.0095 -0.9005
H2G H 0.4313 0.0095 -0.9005
C3A C 0.4004(3) -0.0391(3) -0.4414(6)
C3F C 0.5391(3) -0.0996(3) -1.0586(6)
C3G C 0.4609(3) 0.0996(3) -1.0586(6)
C4A C 0.3882(3) -0.0998(3) -0.4503(7)
C4F C 0.5998(3) -0.1118(3) -1.0497(7)
C4G C 0.4002(3) 0.1118(3) -1.0497(7)
H3A H 0.3993 -0.1214 -0.5346
H3F H 0.6214 -0.1007 -0.9654
H3G H 0.3786 0.1007 -0.9654
C5A C 0.3593(3) -0.1271(3) -0.3320(8)
C5F C 0.6271(3) -0.1407(3) -1.1680(8)
C5G C 0.3729(3) 0.1407(3) -1.1680(8)
H4A H 0.3512 -0.1674 -0.3371
H4F H 0.6674 -0.1488 -1.1629
H4G H 0.3326 0.1488 -1.1629
C6A C 0.3421(3) -0.0949(3) -0.2041(7)
C6F C 0.5949(3) -0.1579(3) -1.2959(7)
C6G C 0.4051(3) 0.1579(3) -1.2959(7)
C7A C 0.3542(3) -0.0332(3) -0.2010(7)
C7F C 0.5332(3) -0.1458(3) -1.2990(7)
C7G C 0.4668(3) 0.1458(3) -1.2990(7)
H5A H 0.3428 -0.0109 -0.1180
H5F H 0.5109 -0.1572 -1.3820
H5G H 0.4891 0.1572 -1.3820
C8A C 0.3823(3) -0.0063(2) -0.3179(8)
C8F C 0.5063(2) -0.1177(3) -1.1821(8)
C8G C 0.4937(2) 0.1177(3) -1.1821(8)
H6A H 0.3893 0.0342 -0.3150
H6F H 0.4658 -0.1107 -1.1850
H6G H 0.5342 0.1107 -1.1850
C9A C 0.3164(3) -0.1245(3) -0.0702(6)
C9F C 0.6245(3) -0.1836(3) -1.4298(6)
C9G C 0.3755(3) 0.1836(3) -1.4298(6)
C11A C 1.0536(3) -0.0152(3) 0.9035(7)
C11B C 1.0152(3) 0.0536(3) 1.0965(7)
C11C C 0.9848(3) -0.0536(3) 1.0965(7)
H7A H 1.0676 0.0199 0.8515
H7B H 0.9801 0.0676 1.1485
H7C H 1.0199 -0.0676 1.1485
H8A H 1.0854 -0.0301 0.9661
H8B H 1.0301 0.0854 1.0339
H8C H 0.9699 -0.0854 1.0339
C12A C 1.0766(3) -0.0780(3) 0.6942(7)
C12B C 1.0780(3) 0.0766(3) 1.3058(7)
C12C C 0.9220(3) -0.0766(3) 1.3058(7)
C13A C 1.1377(3) -0.0702(3) 0.7142(7)
C13B C 1.0702(3) 0.1377(3) 1.2858(7)
C13C C 0.9298(3) -0.1377(3) 1.2858(7)
H9A H 1.1522 -0.0507 0.7987
H9B H 1.0507 0.1522 1.2013
H9C H 0.9493 -0.1522 1.2013
C14A C 1.1765(3) -0.0922(3) 0.6044(8)
C14B C 1.0922(3) 0.1765(3) 1.3956(8)
C14C C 0.9078(3) -0.1765(3) 1.3956(8)
H10A H 1.2172 -0.0884 0.6177
H10B H 1.0884 0.2172 1.3823
H10C H 0.9116 -0.2172 1.3823
C15A C 1.1550(3) -0.1191(3) 0.4778(8)
C15B C 1.1191(3) 0.1550(3) 1.5222(8)
C15C C 0.8809(3) -0.1550(3) 1.5222(8)
C16A C 1.0928(3) -0.1256(3) 0.4545(8)
C16B C 1.1256(3) 0.0928(3) 1.5455(8)
C16C C 0.8744(3) -0.0928(3) 1.5455(8)
H11A H 1.0781 -0.1433 0.3678
H11B H 1.1433 0.0781 1.6322
H11C H 0.8567 -0.0781 1.6322
C17A C 1.0550(3) -0.1046(3) 0.5657(7)
C17B C 1.1046(3) 0.0550(3) 1.4343(7)
C17C C 0.8954(3) -0.0550(3) 1.4343(7)
H12A H 1.0143 -0.1086 0.5532
H12B H 1.1086 0.0143 1.4468
H12C H 0.8914 -0.0143 1.4468
C18A C 1.1972(3) -0.1428(3) 0.3625(7)
C18B C 1.1428(3) 0.1972(3) 1.6375(7)
C18C C 0.8572(3) -0.1972(3) 1.6375(7)
C18A_2 C 0.1972(3) -0.1428(3) 0.3625(7)
C18F C 0.6428(3) -0.3028(3) -1.8625(7)
C18G C 0.3572(3) 0.3028(3) -1.8625(7)
C19A C 0.3922(3) -0.2676(3) 0.4526(8)
C19F C 0.7676(3) -0.1078(3) -1.9526(8)
C19G C 0.2324(3) 0.1078(3) -1.9526(8)
H13A H 0.3576 -0.2487 0.4924
H13F H 0.7487 -0.1424 -1.9924
H13G H 0.2513 0.1424 -1.9924
H14A H 0.4249 -0.2616 0.5199
H14F H 0.7616 -0.0751 -2.0199
H14G H 0.2384 0.0751 -2.0199
H15A H 0.3849 -0.3093 0.4419
H15F H 0.8093 -0.1151 -1.9419
H15G H 0.1907 0.1151 -1.9419
C20A C 0.4071(3) -0.2412(3) 0.2993(8)
C20F C 0.7412(3) -0.0929(3) -1.7993(8)
C20G C 0.2588(3) 0.0929(3) -1.7993(8)
C21A C 0.5125(3) -0.2805(3) 0.3291(10)
C21F C 0.7805(3) 0.0125(3) -1.8291(10)
C21G C 0.2195(3) -0.0125(3) -1.8291(10)
H16A H 0.4954 -0.2948 0.4209
H16F H 0.7948 -0.0046 -1.9209
H16G H 0.2052 0.0046 -1.9209
H17A H 0.5455 -0.2552 0.3518
H17F H 0.7552 0.0455 -1.8518
H17G H 0.2448 -0.0455 -1.8518
H18A H 0.5258 -0.3133 0.2696
H18F H 0.8133 0.0258 -1.7696
H18G H 0.1867 -0.0258 -1.7696
C22A C 0.4817(4) -0.2217(3) 0.0902(9)
C22F C 0.7217(3) -0.0183(4) -1.5902(9)
C22G C 0.2783(3) 0.0183(4) -1.5902(9)
H19A H 0.4519 -0.2338 0.0198
H19F H 0.7338 -0.0481 -1.5198
H19G H 0.2662 0.0481 -1.5198
H20A H 0.5196 -0.2363 0.0583
H20F H 0.7363 0.0196 -1.5583
H20G H 0.2637 -0.0196 -1.5583
H21A H 0.4828 -0.1792 0.0951
H21F H 0.6792 -0.0172 -1.5951
H21G H 0.3208 0.0172 -1.5951
Cd1A Cd 0.281004(19) -0.183051(19) 0.17374(5)
Cd1F Cd 0.683051(19) -0.218996(19) -1.67374(5)
Cd1G Cd 0.316949(19) 0.218996(19) -1.67374(5)
Cd1A_2 Cd 1.281004(19) -0.183051(19) 0.17374(5)
Cd1B Cd 1.183051(19) 0.281004(19) 1.82626(5)
Cd1C Cd 0.816949(19) -0.281004(19) 1.82626(5)
N1A N 0.4673(3) -0.2463(2) 0.2437(7)
N1F N 0.7463(2) -0.0327(3) -1.7437(7)
N1G N 0.2537(2) 0.0327(3) -1.7437(7)
O1A O 0.4294(2) -0.00874(19) -0.5516(5)
O1F O 0.50874(19) -0.0706(2) -0.9484(5)
O1G O 0.49126(19) 0.0706(2) -0.9484(5)
O2A O 0.2957(2) -0.1766(2) -0.0858(5)
O2F O 0.6766(2) -0.2043(2) -1.4142(5)
O2G O 0.3234(2) 0.2043(2) -1.4142(5)
O3A O 0.3164(2) -0.0997(2) 0.0523(5)
O3F O 0.5997(2) -0.1836(2) -1.5523(5)
O3G O 0.4003(2) 0.1836(2) -1.5523(5)
O4A O 1.03585(18) -0.0596(2) 0.7965(5)
O4B O 1.0596(2) 0.03585(18) 1.2035(5)
O4C O 0.9404(2) -0.03585(18) 1.2035(5)
O5A O 1.2486(2) -0.1579(2) 0.4069(5)
O5B O 1.1579(2) 0.2486(2) 1.5931(5)
O5C O 0.8421(2) -0.2486(2) 1.5931(5)
O5A_2 O 0.2486(2) -0.1579(2) 0.4069(5)
O5F O 0.6579(2) -0.2514(2) -1.9069(5)
O5G O 0.3421(2) 0.2514(2) -1.9069(5)
O6A O 1.1817(2) -0.1465(2) 0.2273(5)
O6B O 1.1465(2) 0.1817(2) 1.7727(5)
O6C O 0.8535(2) -0.1817(2) 1.7727(5)
O6A_2 O 0.1817(2) -0.1465(2) 0.2273(5)
O6F O 0.6465(2) -0.3183(2) -1.7273(5)
O6G O 0.3535(2) 0.3183(2) -1.7273(5)
O7A O 0.3731(2) -0.2070(2) 0.2440(6)
O7F O 0.7070(2) -0.1269(2) -1.7440(6)
O7G O 0.2930(2) 0.1269(2) -1.7440(6)
O8A O 0.2504(2) -0.27501(19) 0.1625(6)
O8F O 0.77501(19) -0.2496(2) -1.6625(6)
O8G O 0.22499(19) 0.2496(2) -1.6625(6)
H22A H 0.2544 -0.2931 0.2595
H22F H 0.7931 -0.2456 -1.7595
H22G H 0.2069 0.2456 -1.7595
H23A H 0.2739 -0.2964 0.0906
H23F H 0.7964 -0.2261 -1.5906
H23G H 0.2036 0.2261 -1.5906
loop_
_geom_bond_atom_site_label_1
_geom_bond_atom_site_label_2
_geom_bond_site_symmetry_1
_geom_bond_site_symmetry_2
C1 C2 1_555 1_555
C2 H1 1_555 1_555
H2 C2 1_555 1_555
C3 C4 1_555 1_555
C4 H3 1_555 1_555
C5 C4 1_555 1_555
H4 C5 1_555 1_555
C6 C5 1_555 1_555
C7 C6 1_555 1_555
H5 C7 1_555 1_555
C8 C3 1_555 1_555
H6 C8 1_555 1_555
C9 C6 1_555 1_555
C10 C11 1_555 1_555
C11 H7 1_555 1_555
H8 C11 1_555 1_555
C12 C13 1_555 1_555
C13 H9 1_555 1_555
C14 C13 1_555 1_555
H10 C14 1_555 1_555
C15 C14 1_555 1_555
C16 C15 1_555 1_555
H11 C16 1_555 1_555
C17 C12 1_555 1_555
H12 C17 1_555 1_555
C18 C15 1_555 1_555
C19 H13 1_555 1_555
H14 C19 1_555 1_555
H15 C19 1_555 1_555
C20 C19 1_555 1_555
C21 H16 1_555 1_555
H17 C21 1_555 1_555
H18 C21 1_555 1_555
C22 H19 1_555 1_555
H20 C22 1_555 1_555
H21 C22 1_555 1_555
Cd1 O2 1_555 1_555
N1 C20 1_555 1_555
O1 C2 1_555 1_555
O2 C9 1_555 1_555
O3 C9 1_555 1_555
O4 C11 1_555 1_555
O5 C18 1_555 1_555
O6 C18 1_555 1_555
O7 C20 1_555 1_555
O8 Cd1 1_555 1_555
H22 O8 1_555 1_555
H23 O8 1_555 1_555
C2A C1 1_555 1_555
C2F C1 1_555 1_555
C2G C1 1_555 1_555
H1A C2A 1_555 1_555
H1F C2F 1_555 1_555
H1G C2G 1_555 1_555
H2A C2A 1_555 1_555
H2F C2F 1_555 1_555
H2G C2G 1_555 1_555
C3A C4A 1_555 1_555
C3F C4F 1_555 1_555
C3G C4G 1_555 1_555
C4A H3A 1_555 1_555
C4F H3F 1_555 1_555
C4G H3G 1_555 1_555
C5A C4A 1_555 1_555
C5F C4F 1_555 1_555
C5G C4G 1_555 1_555
H4A C5A 1_555 1_555
H4F C5F 1_555 1_555
H4G C5G 1_555 1_555
C6A C5A 1_555 1_555
C6F C5F 1_555 1_555
C6G C5G 1_555 1_555
C7A C6A 1_555 1_555
C7F C6F 1_555 1_555
C7G C6G 1_555 1_555
H5A C7A 1_555 1_555
H5F C7F 1_555 1_555
H5G C7G 1_555 1_555
C8A C3A 1_555 1_555
C8F C3F 1_555 1_555
C8G C3G 1_555 1_555
H6A C8A 1_555 1_555
H6F C8F 1_555 1_555
H6G C8G 1_555 1_555
C9A C6A 1_555 1_555
C9F C6F 1_555 1_555
C9G C6G 1_555 1_555
C11A C10 1_555 1_555
C11B C10 1_555 1_555
C11C C10 1_555 1_555
H7A C11A 1_555 1_555
H7B C11B 1_555 1_555
H7C C11C 1_555 1_555
H8A C11A 1_555 1_555
H8B C11B 1_555 1_555
H8C C11C 1_555 1_555
C12A C13A 1_555 1_555
C12B C13B 1_555 1_555
C12C C13C 1_555 1_555
C13A H9A 1_555 1_555
C13B H9B 1_555 1_555
C13C H9C 1_555 1_555
C14A C13A 1_555 1_555
C14B C13B 1_555 1_555
C14C C13C 1_555 1_555
H10A C14A 1_555 1_555
H10B C14B 1_555 1_555
H10C C14C 1_555 1_555
C15A C14A 1_555 1_555
C15B C14B 1_555 1_555
C15C C14C 1_555 1_555
C16A C15A 1_555 1_555
C16B C15B 1_555 1_555
C16C C15C 1_555 1_555
H11A C16A 1_555 1_555
H11B C16B 1_555 1_555
H11C C16C 1_555 1_555
C17A C12A 1_555 1_555
C17B C12B 1_555 1_555
C17C C12C 1_555 1_555
H12A C17A 1_555 1_555
H12B C17B 1_555 1_555
H12C C17C 1_555 1_555
C18A C15A 1_555 1_555
C18B C15B 1_555 1_555
C18C C15C 1_555 1_555
C18A_2 O5A_2 1_555 1_555
C18F O5F 1_555 1_555
C18G O5G 1_555 1_555
C19A H13A 1_555 1_555
C19F H13F 1_555 1_555
C19G H13G 1_555 1_555
H14A C19A 1_555 1_555
H14F C19F 1_555 1_555
H14G C19G 1_555 1_555
H15A C19A 1_555 1_555
H15F C19F 1_555 1_555
H15G C19G 1_555 1_555
C20A C19A 1_555 1_555
C20F C19F 1_555 1_555
C20G C19G 1_555 1_555
C21A H16A 1_555 1_555
C21F H16F 1_555 1_555
C21G H16G 1_555 1_555
H17A C21A 1_555 1_555
H17F C21F 1_555 1_555
H17G C21G 1_555 1_555
H18A C21A 1_555 1_555
H18F C21F 1_555 1_555
H18G C21G 1_555 1_555
C22A H19A 1_555 1_555
C22F H19F 1_555 1_555
C22G H19G 1_555 1_555
H20A C22A 1_555 1_555
H20F C22F 1_555 1_555
H20G C22G 1_555 1_555
H21A C22A 1_555 1_555
H21F C22F 1_555 1_555
H21G C22G 1_555 1_555
Cd1A O2A 1_555 1_555
Cd1F O2F 1_555 1_555
Cd1G O2G 1_555 1_555
Cd1A_2 O5A 1_555 1_555
Cd1B O5B 1_555 1_555
Cd1C O5C 1_555 1_555
N1A C20A 1_555 1_555
N1F C20F 1_555 1_555
N1G C20G 1_555 1_555
O1A C2A 1_555 1_555
O1F C2F 1_555 1_555
O1G C2G 1_555 1_555
O2A C9A 1_555 1_555
O2F C9F 1_555 1_555
O2G C9G 1_555 1_555
O3A C9A 1_555 1_555
O3F C9F 1_555 1_555
O3G C9G 1_555 1_555
O4A C11A 1_555 1_555
O4B C11B 1_555 1_555
O4C C11C 1_555 1_555
O5A C18A 1_555 1_555
O5B C18B 1_555 1_555
O5C C18C 1_555 1_555
O5A_2 Cd1A 1_555 1_555
O5F Cd1F 1_555 1_555
O5G Cd1G 1_555 1_555
O6A C18A 1_555 1_555
O6B C18B 1_555 1_555
O6C C18C 1_555 1_555
O6A_2 C18A_2 1_555 1_555
O6F C18F 1_555 1_555
O6G C18G 1_555 1_555
O7A C20A 1_555 1_555
O7F C20F 1_555 1_555
O7G C20G 1_555 1_555
O8A Cd1A 1_555 1_555
O8F Cd1F 1_555 1_555
O8G Cd1G 1_555 1_555
H22A O8A 1_555 1_555
H22F O8F 1_555 1_555
H22G O8G 1_555 1_555
H23A O8A 1_555 1_555
H23F O8F 1_555 1_555
H23G O8G 1_555 1_555
C3 O1 1_555 1_555
C7 C8 1_555 1_555
C12 O4 1_555 1_555
C16 C17 1_555 1_555
C21 N1 1_555 1_555
C22 N1 1_555 1_555
Cd1 O3 1_555 1_555
Cd1 O5 1_555 1_555
Cd1 O6 1_555 1_555
Cd1 O7 1_555 1_555
C3A O1A 1_555 1_555
C3F O1F 1_555 1_555
C3G O1G 1_555 1_555
C7A C8A 1_555 1_555
C7F C8F 1_555 1_555
C7G C8G 1_555 1_555
C12A O4A 1_555 1_555
C12B O4B 1_555 1_555
C12C O4C 1_555 1_555
C16A C17A 1_555 1_555
C16B C17B 1_555 1_555
C16C C17C 1_555 1_555
C21A N1A 1_555 1_555
C21F N1F 1_555 1_555
C21G N1G 1_555 1_555
C22A N1A 1_555 1_555
C22F N1F 1_555 1_555
C22G N1G 1_555 1_555
Cd1A O3A 1_555 1_555
Cd1A O6A_2 1_555 1_555
Cd1A O7A 1_555 1_555
Cd1F O3F 1_555 1_555
Cd1F O6F 1_555 1_555
Cd1F O7F 1_555 1_555
Cd1G O3G 1_555 1_555
Cd1G O6G 1_555 1_555
Cd1G O7G 1_555 1_555
Cd1A_2 O6A 1_555 1_555
Cd1B O6B 1_555 1_555
Cd1C O6C 1_555 1_555

#END
