
#######################################################################
#
#                 Cambridge Crystallographic Data Centre
#                                CCDC 
#
#######################################################################
#
# If this CIF has been generated from an entry in the Cambridge 
# Structural Database, then it will include bibliographic, chemical, 
# crystal, experimental, refinement or atomic coordinate data resulting 
# from the CCDC's data processing and validation procedures.
#
#######################################################################

data_TACJUC
_symmetry_cell_setting           triclinic
_symmetry_space_group_name_H-M   'P -1'
_symmetry_Int_Tables_number      2
_space_group_name_Hall           '-P 1'
loop_
_symmetry_equiv_pos_site_id
_symmetry_equiv_pos_as_xyz
1 x,y,z
2 -x,-y,-z
_cell_length_a                   9.427(2)
_cell_length_b                   6.959(4)
_cell_length_c                   6.838(1)
_cell_angle_alpha                106.93(2)
_cell_angle_beta                 83.57(2)
_cell_angle_gamma                90.03(1)
_cell_volume                     426.206
loop_
_atom_site_label
_atom_site_type_symbol
_atom_site_fract_x
_atom_site_fract_y
_atom_site_fract_z
Hg1 Hg 0.25629(4) 0.16017(6) 0.43094(5)
I1 I 0.22849(8) 0.41970(10) 0.81249(9)
I2 I 0.27670(9) -0.23986(12) 0.40310(11)
N1 N 0.446(1) 0.233(2) 0.212(1)
N2 N 0.075(1) 0.183(1) 0.230(1)
C1 C 0.540(1) 0.068(2) 0.081(1)
C2 C 0.061(1) -0.003(2) 0.062(2)
H1 H 0.629 0.129 0.007
H2 H 0.580 -0.017 0.174
H3 H 0.160 -0.032 -0.041
H4 H 0.045 -0.125 0.129
H5 H 0.513 0.336 0.309
H6 H 0.401 0.305 0.113
H7 H 0.098 0.304 0.163
H8 H -0.025 0.217 0.328
C1A C 0.460(1) -0.068(2) -0.081(1)
C2A C -0.061(1) 0.003(2) -0.062(2)
N1A N 0.554(1) -0.233(2) -0.212(1)
H1A H 0.371 -0.129 -0.007
H2A H 0.420 0.017 -0.174
N2A N -0.075(1) -0.183(1) -0.230(1)
H3A H -0.160 0.032 0.041
H4A H -0.045 0.125 -0.129
Hg1A Hg 0.74371(4) -0.16017(6) -0.43094(5)
H5A H 0.487 -0.336 -0.309
H6A H 0.599 -0.305 -0.113
Hg1A_2 Hg -0.25629(4) -0.16017(6) -0.43094(5)
H7A H -0.098 -0.304 -0.163
H8A H 0.025 -0.217 -0.328
I1A I 0.77151(8) -0.41970(10) -0.81249(9)
I2A I 0.72330(9) 0.23986(12) -0.40310(11)
N2A_2 N 0.925(1) -0.183(1) -0.230(1)
loop_
_geom_bond_atom_site_label_1
_geom_bond_atom_site_label_2
_geom_bond_site_symmetry_1
_geom_bond_site_symmetry_2
Hg1 I1 1_555 1_555
I2 Hg1 1_555 1_555
N1 Hg1 1_555 1_555
N2 Hg1 1_555 1_555
C1 N1 1_555 1_555
C2 N2 1_555 1_555
H1 C1 1_555 1_555
H2 C1 1_555 1_555
H3 C2 1_555 1_555
H4 C2 1_555 1_555
H5 N1 1_555 1_555
H6 N1 1_555 1_555
H7 N2 1_555 1_555
H8 N2 1_555 1_555
C1A C1 1_555 1_555
C2A C2 1_555 1_555
N1A C1A 1_555 1_555
H1A C1A 1_555 1_555
H2A C1A 1_555 1_555
N2A C2A 1_555 1_555
H3A C2A 1_555 1_555
H4A C2A 1_555 1_555
Hg1A N1A 1_555 1_555
H5A N1A 1_555 1_555
H6A N1A 1_555 1_555
Hg1A_2 N2A 1_555 1_555
H7A N2A 1_555 1_555
H8A N2A 1_555 1_555
I1A Hg1A 1_555 1_555
I2A Hg1A 1_555 1_555
N2A_2 Hg1A 1_555 1_555

#END
