
#######################################################################
#
#                 Cambridge Crystallographic Data Centre
#                                CCDC 
#
#######################################################################
#
# If this CIF has been generated from an entry in the Cambridge 
# Structural Database, then it will include bibliographic, chemical, 
# crystal, experimental, refinement or atomic coordinate data resulting 
# from the CCDC's data processing and validation procedures.
#
#######################################################################

data_TACPOD
_symmetry_cell_setting           tetragonal
_symmetry_space_group_name_H-M   'P 41 21 2'
_symmetry_Int_Tables_number      92
_space_group_name_Hall           'P 4abw 2nw'
loop_
_symmetry_equiv_pos_site_id
_symmetry_equiv_pos_as_xyz
1 x,y,z
2 -x,-y,1/2+z
3 1/2-y,1/2+x,1/4+z
4 1/2+y,1/2-x,3/4+z
5 1/2-x,1/2+y,1/4-z
6 1/2+x,1/2-y,3/4-z
7 y,x,-z
8 -y,-x,1/2-z
_cell_length_a                   19.1245(8)
_cell_length_b                   19.1245(8)
_cell_length_c                   5.7338(5)
_cell_angle_alpha                90
_cell_angle_beta                 90
_cell_angle_gamma                90
_cell_volume                     2097.12
loop_
_atom_site_label
_atom_site_type_symbol
_atom_site_fract_x
_atom_site_fract_y
_atom_site_fract_z
Zn1 Zn 0.27028(11) 0.72972(11) 0.7500
Zn2 Zn 0.22113(10) 0.77887(10) 1.2500
O1 O 0.3162(8) 0.7566(8) 1.064(3)
O2 O 0.4081(8) 0.7881(8) 1.260(3)
O3 O 0.3782(11) 0.7346(14) 0.682(3)
O4 O 0.4445(10) 0.6266(10) 0.929(4)
O5 O 0.5726(12) 0.6261(12) 0.728(4)
O6 O 0.6159(8) 0.7305(8) 0.422(2)
O7 O 0.6818(7) 0.7569(7) 0.809(2)
O8 O 0.5774(13) 0.7723(14) 1.022(5)
C1 C 0.3770(12) 0.7595(12) 1.095(4)
C2 C 0.4303(13) 0.7536(14) 0.867(5)
H1 H 0.4573 0.7961 0.8349
C3 C 0.4745(17) 0.6869(16) 0.895(6)
H2 H 0.5036 0.6949 1.0327
C4 C 0.5267(13) 0.6859(14) 0.682(5)
H3 H 0.4992 0.6743 0.5433
C5 C 0.5767(12) 0.7488(13) 0.613(4)
H4 H 0.5470 0.7884 0.5686
C6 C 0.6163(12) 0.7695(14) 0.830(3)
O1G O 0.2434(8) 0.6838(8) 0.436(3)
O2G O 0.2119(8) 0.5919(8) 0.240(3)
O3G O 0.2654(14) 0.6218(11) 0.818(3)
O4G O 0.3734(10) 0.5555(10) 0.571(4)
O5G O 0.3739(12) 0.4274(12) 0.772(4)
O6G O 0.2695(8) 0.3841(8) 1.078(2)
O7G O 0.2431(7) 0.3182(7) 0.691(2)
O8G O 0.2277(14) 0.4226(13) 0.478(5)
C1G C 0.2405(12) 0.6230(12) 0.405(4)
C2G C 0.2464(14) 0.5697(13) 0.633(5)
H1G H 0.2039 0.5427 0.6651
C3G C 0.3131(16) 0.5255(17) 0.605(6)
H2G H 0.3051 0.4964 0.4673
C4G C 0.3141(14) 0.4733(13) 0.818(5)
H3G H 0.3257 0.5008 0.9567
C5G C 0.2512(13) 0.4233(12) 0.887(4)
H4G H 0.2116 0.4530 0.9314
C6G C 0.2305(14) 0.3837(12) 0.670(3)
O7C O 0.2569(7) 0.8182(7) 0.559(2)
O7E O 0.1818(7) 0.7431(7) 0.941(2)
O1G_2 O 0.2434(8) 0.6838(8) 1.436(3)
O6C O 0.2305(8) 0.8841(8) 1.172(2)
O6E O 0.1159(8) 0.7695(8) 1.328(2)
O7C_2 O 0.2569(7) 0.8182(7) 1.559(2)
Zn2B Zn 0.72113(10) 0.72113(10) 0.5000
Zn1B Zn 0.77028(11) 0.77028(11) 1.0000
Zn2_2 Zn 0.22113(10) 0.77887(10) 0.2500
Zn2C Zn 0.27887(10) 0.27887(10) 1.0000
Zn1C Zn 0.22972(11) 0.22972(11) 0.5000
loop_
_geom_bond_atom_site_label_1
_geom_bond_atom_site_label_2
_geom_bond_site_symmetry_1
_geom_bond_site_symmetry_2
Zn1 O1 1_555 1_555
Zn2 O1 1_555 1_555
O1 C1 1_555 1_555
O2 C1 1_555 1_555
O3 Zn1 1_555 1_555
O4 C3 1_555 1_555
O5 C4 1_555 1_555
O6 C5 1_555 1_555
O7 C6 1_555 1_555
O8 C6 1_555 1_555
C1 C2 1_555 1_555
C2 O3 1_555 1_555
H1 C2 1_555 1_555
C3 C2 1_555 1_555
H2 C3 1_555 1_555
C4 C3 1_555 1_555
H3 C4 1_555 1_555
C5 C4 1_555 1_555
H4 C5 1_555 1_555
C6 C5 1_555 1_555
O1G Zn1 1_555 1_555
O2G C1G 1_555 1_555
O3G Zn1 1_555 1_555
O4G C3G 1_555 1_555
O5G C4G 1_555 1_555
O6G C5G 1_555 1_555
O7G C6G 1_555 1_555
O8G C6G 1_555 1_555
C1G O1G 1_555 1_555
C2G O3G 1_555 1_555
H1G C2G 1_555 1_555
C3G C2G 1_555 1_555
H2G C3G 1_555 1_555
C4G C3G 1_555 1_555
H3G C4G 1_555 1_555
C5G C4G 1_555 1_555
H4G C5G 1_555 1_555
C6G C5G 1_555 1_555
O7C Zn1 1_555 1_555
O7E Zn1 1_555 1_555
O1G_2 Zn2 1_555 1_555
O6C Zn2 1_555 1_555
O6E Zn2 1_555 1_555
O7C_2 Zn2 1_555 1_555
Zn2B O6 1_555 1_555
Zn1B O7 1_555 1_555
Zn2_2 O1G 1_555 1_555
Zn2C O6G 1_555 1_555
Zn1C O7G 1_555 1_555
Zn2 O7E 1_555 1_555
O7 Zn2B 1_555 1_555
O7G Zn2C 1_555 1_555
C1G C2G 1_555 1_555
O7C Zn2_2 1_555 1_555

#END
