
#######################################################################
#
#                 Cambridge Crystallographic Data Centre
#                                CCDC 
#
#######################################################################
#
# If this CIF has been generated from an entry in the Cambridge 
# Structural Database, then it will include bibliographic, chemical, 
# crystal, experimental, refinement or atomic coordinate data resulting 
# from the CCDC's data processing and validation procedures.
#
#######################################################################

data_TACRUM
_symmetry_cell_setting           monoclinic
_symmetry_space_group_name_H-M   'P 21/n'
_symmetry_Int_Tables_number      14
_space_group_name_Hall           '-P 2yn'
loop_
_symmetry_equiv_pos_site_id
_symmetry_equiv_pos_as_xyz
1 x,y,z
2 1/2-x,1/2+y,1/2-z
3 -x,-y,-z
4 1/2+x,1/2-y,1/2+z
_cell_length_a                   12.1706(13)
_cell_length_b                   15.5995(17)
_cell_length_c                   15.8128(17)
_cell_angle_alpha                90
_cell_angle_beta                 93.9810(10)
_cell_angle_gamma                90
_cell_volume                     2994.9
loop_
_atom_site_label
_atom_site_type_symbol
_atom_site_fract_x
_atom_site_fract_y
_atom_site_fract_z
Cd1 Cd 0.69925(4) 0.90325(3) 0.34312(3)
Cd2 Cd 0.75009(4) 0.89623(3) 0.07374(3)
C1 C 0.9211(5) 0.8048(4) 0.3999(4)
C2 C 0.8406(5) 0.7286(4) 0.3999(4)
H1 H 0.8234 0.7180 0.4586
C3 C 0.8868(5) 0.6459(4) 0.3649(4)
H2 H 0.9674 0.6477 0.3697
C4 C 0.8466(5) 0.5691(4) 0.4142(4)
C5 C 0.8443(5) 0.6494(4) 0.2704(4)
H3 H 0.8990 0.6811 0.2402
C6 C 0.8324(5) 0.5616(4) 0.2296(4)
C7 C 0.7416(5) 0.7042(4) 0.2689(3)
H4 H 0.6774 0.6665 0.2606
C8 C 0.7374(4) 0.7689(4) 0.1968(4)
C9 C 0.9890(6) 0.8621(6) 0.1791(5)
H5 H 0.9466 0.8642 0.2258
C10 C 1.0994(7) 0.8435(7) 0.1915(6)
H6 H 1.1309 0.8329 0.2458
C11 C 1.1635(8) 0.8405(8) 0.1221(7)
H7 H 1.2381 0.8274 0.1288
C12 C 1.1137(6) 0.8576(7) 0.0438(6)
H8 H 1.1541 0.8566 -0.0040
C13 C 1.0022(5) 0.8763(5) 0.0366(5)
C14 C 0.9462(5) 0.8956(4) -0.0449(5)
C15 C 0.9865(7) 0.9086(5) -0.1250(5)
H9 H 1.0594 0.9051 -0.1389
C16 C 0.8960(7) 0.9277(6) -0.1786(5)
H10 H 0.8957 0.9397 -0.2363
C17 C 0.4526(8) 0.8167(6) 0.3101(7)
H11 H 0.4758 0.8113 0.2556
C18 C 0.3510(11) 0.7905(8) 0.3215(9)
H12 H 0.3035 0.7669 0.2792
C19 C 0.3262(10) 0.8019(8) 0.3994(9)
H13 H 0.2550 0.7861 0.4106
C20 C 0.3845(8) 0.8312(7) 0.4621(8)
H14 H 0.3586 0.8360 0.5158
C21 C 0.4903(7) 0.8556(6) 0.4444(6)
C22 C 0.5653(8) 0.8923(6) 0.5071(6)
C23 C 0.5572(10) 0.9114(7) 0.5938(7)
H15 H 0.4978 0.8984 0.6254
C24 C 0.6510(11) 0.9522(8) 0.6230(7)
H16 H 0.6665 0.9742 0.6772
N1 N 0.9415(4) 0.8771(4) 0.1029(4)
N2 N 0.8375(5) 0.9066(4) -0.0506(4)
N3 N 0.6668(6) 0.9193(5) 0.4853(4)
N4 N 0.5237(5) 0.8493(4) 0.3669(5)
N5 N 0.8076(5) 0.9257(4) -0.1316(4)
H17 H 0.7410 0.9354 -0.1510
N6 N 0.7198(8) 0.9545(6) 0.5557(6)
H18 H 0.7856 0.9750 0.5584
O1 O 0.8842(4) 0.8759(3) 0.3750(3)
O2 O 1.0170(4) 0.7918(3) 0.4273(4)
O3 O 0.7166(3) 0.8477(3) 0.2115(2)
O4 O 0.7561(4) 0.7442(3) 0.1247(3)
O5 O 0.7604(3) 0.5307(3) 0.3831(3)
O6 O 0.9002(4) 0.5483(3) 0.4800(3)
O7 O 0.9120(3) 0.5099(3) 0.2409(3)
O8 O 0.7483(4) 0.5433(3) 0.1834(3)
O9 O 0.7388(3) 0.7447(3) 0.3509(2)
O10 O 0.5832(4) 0.8533(3) 0.0215(3)
H19 H 0.5622 0.8022 0.0297
H20 H 0.5408 0.8881 -0.0063
Cd1A Cd 0.80075(4) 0.40325(3) 0.15688(3)
Cd2A Cd 0.74991(4) 0.39623(3) 0.42626(3)
O5A O 0.7396(3) 1.0307(3) 0.1169(3)
O7A O 0.5880(3) 1.0099(3) 0.2591(3)
O8A O 0.7517(4) 1.0433(3) 0.3166(3)
O11 O 0.1061(4) 0.4970(4) 0.3429(3)
H21 H 0.0757 0.4984 0.3897
H22 H 0.0576 0.5133 0.3051
O12 O 0.0504(9) 0.8936(8) 0.5996(8)
H23 H 0.0288 0.9350 0.6293
H24 H 0.0145 0.8469 0.6009
O13 O 0.4352(13) 0.7497(12) 0.1355(11)
H25 H 0.3837 0.7129 0.1313
H26 H 0.4493 0.7703 0.1848
H27? H -0.0748 1.0395 0.5581
H28? H -0.0371 0.9954 0.6358
O14? O -0.0896(10) 1.0181(8) 0.6054(9)
loop_
_geom_bond_atom_site_label_1
_geom_bond_atom_site_label_2
_geom_bond_site_symmetry_1
_geom_bond_site_symmetry_2
Cd1 N3 1_555 1_555
Cd2 N1 1_555 1_555
C1 C2 1_555 1_555
C2 H1 1_555 1_555
C3 C2 1_555 1_555
H2 C3 1_555 1_555
C4 C3 1_555 1_555
C5 C3 1_555 1_555
H3 C5 1_555 1_555
C6 C5 1_555 1_555
C7 C5 1_555 1_555
H4 C7 1_555 1_555
C8 C7 1_555 1_555
C9 H5 1_555 1_555
C10 C9 1_555 1_555
H6 C10 1_555 1_555
C11 C10 1_555 1_555
H7 C11 1_555 1_555
C12 C11 1_555 1_555
H8 C12 1_555 1_555
C13 C12 1_555 1_555
C14 C13 1_555 1_555
C15 C14 1_555 1_555
H9 C15 1_555 1_555
C16 C15 1_555 1_555
H10 C16 1_555 1_555
C17 H11 1_555 1_555
C18 C17 1_555 1_555
H12 C18 1_555 1_555
C19 C18 1_555 1_555
H13 C19 1_555 1_555
C20 C19 1_555 1_555
H14 C20 1_555 1_555
C21 C20 1_555 1_555
C22 C21 1_555 1_555
C23 C22 1_555 1_555
H15 C23 1_555 1_555
C24 C23 1_555 1_555
H16 C24 1_555 1_555
N1 C9 1_555 1_555
N2 Cd2 1_555 1_555
N3 C22 1_555 1_555
N4 Cd1 1_555 1_555
N5 C16 1_555 1_555
H17 N5 1_555 1_555
N6 C24 1_555 1_555
H18 N6 1_555 1_555
O1 Cd1 1_555 1_555
O2 C1 1_555 1_555
O3 Cd1 1_555 1_555
O4 Cd2 1_555 1_555
O5 C4 1_555 1_555
O6 C4 1_555 1_555
O7 C6 1_555 1_555
O8 C6 1_555 1_555
O9 Cd1 1_555 1_555
O10 Cd2 1_555 1_555
H19 O10 1_555 1_555
H20 O10 1_555 1_555
O11 H21 1_555 1_555
H22 O11 1_555 1_555
O12 H23 1_555 1_555
H24 O12 1_555 1_555
O13 H25 1_555 1_555
H26 O13 1_555 1_555
Cd1A O7 1_555 1_555
Cd2A O5 1_555 1_555
O5A Cd2 1_555 1_555
O7A Cd1 1_555 1_555
O8A Cd1 1_555 1_555
Cd2 O3 1_555 1_555
C1 O1 1_555 1_555
C2 O9 1_555 1_555
C7 O9 1_555 1_555
C8 O3 1_555 1_555
C8 O4 1_555 1_555
C13 N1 1_555 1_555
C14 N2 1_555 1_555
C17 N4 1_555 1_555
C21 N4 1_555 1_555
N2 N5 1_555 1_555
N3 N6 1_555 1_555
O8 Cd1A 1_555 1_555

#END
