
#######################################################################
#
#                 Cambridge Crystallographic Data Centre
#                                CCDC 
#
#######################################################################
#
# If this CIF has been generated from an entry in the Cambridge 
# Structural Database, then it will include bibliographic, chemical, 
# crystal, experimental, refinement or atomic coordinate data resulting 
# from the CCDC's data processing and validation procedures.
#
#######################################################################

data_TACSIB
_symmetry_cell_setting           orthorhombic
_symmetry_space_group_name_H-M   'P n a 21'
_symmetry_Int_Tables_number      33
_space_group_name_Hall           'P 2c -2n'
loop_
_symmetry_equiv_pos_site_id
_symmetry_equiv_pos_as_xyz
1 x,y,z
2 -x,-y,1/2+z
3 1/2+x,1/2-y,z
4 1/2-x,1/2+y,1/2+z
_cell_length_a                   6.9371(14)
_cell_length_b                   12.918(3)
_cell_length_c                   7.9596(16)
_cell_angle_alpha                90
_cell_angle_beta                 90
_cell_angle_gamma                90
_cell_volume                     713.287
loop_
_atom_site_label
_atom_site_type_symbol
_atom_site_fract_x
_atom_site_fract_y
_atom_site_fract_z
Zn1 Zn 0.32904(4) 0.72856(2) 0.5344(3)
Cl1 Cl 0.5941(4) 0.6913(3) 0.3086(3)
Cl2 Cl 0.5938(3) 0.6918(2) 0.7580(2)
O1 O 0.2565(9) 0.5579(4) 0.557(2)
O2 O -0.0471(10) 0.6039(4) 0.516(2)
N1 N -0.3328(9) 0.4634(7) 0.4642(17)
H1 H -0.4536 0.4561 0.5000
H2 H -0.3206 0.4342 0.3635
H3 H -0.3043 0.5304 0.4570
C1 C 0.0812(7) 0.5371(3) 0.5336(14)
C2 C 0.0139(8) 0.4256(4) 0.5188(14)
H4 H 0.1019 0.3812 0.5801
H5 H 0.0169 0.4050 0.4016
C3 C -0.1945(12) 0.4106(8) 0.5888(13)
H6 H -0.2244 0.3375 0.5982
H7 H -0.2059 0.4419 0.6991
Zn1B Zn 0.82904(4) 0.77144(2) 0.5344(3)
Zn1B_2 Zn -0.17096(4) 0.77144(2) 0.5344(3)
Cl1B Cl 0.0941(4) 0.8087(3) 0.3086(3)
Cl2B Cl 0.0938(3) 0.8082(2) 0.7580(2)
O2B O 0.4529(10) 0.8961(4) 0.516(2)
loop_
_geom_bond_atom_site_label_1
_geom_bond_atom_site_label_2
_geom_bond_site_symmetry_1
_geom_bond_site_symmetry_2
Zn1 Cl1 1_555 1_555
Cl1 Zn1B 1_555 1_555
Cl2 Zn1 1_555 1_555
O1 Zn1 1_555 1_555
O2 C1 1_555 1_555
N1 H1 1_555 1_555
H2 N1 1_555 1_555
H3 N1 1_555 1_555
C1 O1 1_555 1_555
C2 C1 1_555 1_555
H4 C2 1_555 1_555
H5 C2 1_555 1_555
C3 N1 1_555 1_555
H6 C3 1_555 1_555
H7 C3 1_555 1_555
Zn1B Cl2 1_555 1_555
Zn1B_2 O2 1_555 1_555
Cl1B Zn1 1_555 1_555
Cl2B Zn1 1_555 1_555
O2B Zn1 1_555 1_555
C2 C3 1_555 1_555
Zn1B_2 Cl1B 1_555 1_555
Zn1B_2 Cl2B 1_555 1_555

#END
