
#######################################################################
#
#                 Cambridge Crystallographic Data Centre
#                                CCDC 
#
#######################################################################
#
# If this CIF has been generated from an entry in the Cambridge 
# Structural Database, then it will include bibliographic, chemical, 
# crystal, experimental, refinement or atomic coordinate data resulting 
# from the CCDC's data processing and validation procedures.
#
#######################################################################

data_TACYED
_symmetry_cell_setting           hexagonal
_symmetry_space_group_name_H-M   'P -6'
_symmetry_Int_Tables_number      174
_space_group_name_Hall           'P -6'
loop_
_symmetry_equiv_pos_site_id
_symmetry_equiv_pos_as_xyz
1 x,y,z
2 -x+y,-x,-z
3 -y,x-y,z
4 x,y,-z
5 -x+y,-x,z
6 -y,x-y,-z
_cell_length_a                   15.8818(5)
_cell_length_b                   15.8818(5)
_cell_length_c                   9.9176(7)
_cell_angle_alpha                90
_cell_angle_beta                 90
_cell_angle_gamma                120
_cell_volume                     2166.39
loop_
_atom_site_label
_atom_site_type_symbol
_atom_site_fract_x
_atom_site_fract_y
_atom_site_fract_z
N1 N 0.352(3) 0.627(3) 0.0000
C14 C 0.3333 0.6667 0.1223(19)
N1B N 0.373(3) 0.725(4) 0.0000
N1A N 0.275(4) 0.648(3) 0.0000
C14E C 0.3333 0.6666 -0.1223(19)
In1 In 0.28350(4) 0.36037(4) 0.0000
O1 O 0.4066(8) 0.3265(7) 0.0000
O2 O 0.2552(6) 0.2089(6) 0.0000
O3 O 0.2606(10) -0.1814(8) 0.0000
O4 O 0.1591(6) -0.1298(6) 0.0000
O5 O 0.3715(5) 0.4803(5) 0.1406(5)
O6 O 0.2733(4) 0.3451(4) 0.2432(4)
C1 C 0.3722(9) 0.1594(8) 0.0000
C2 C 0.2988(9) 0.0609(9) 0.0000
H1 H 0.2337 0.0443 0.0000
C3 C 0.3234(11) -0.0104(9) 0.0000
C4 C 0.4209(12) 0.0134(12) 0.0000
H2 H 0.4372 -0.0353 0.0000
C5 C 0.4932(13) 0.1108(16) 0.0000
H3 H 0.5586 0.1285 0.0000
C6 C 0.4658(11) 0.1800(12) 0.0000
H4 H 0.5144 0.2450 0.0000
C7 C 0.3432(9) 0.2330(8) 0.0000
C8 C 0.2433(11) -0.1138(9) 0.0000
C9 C 0.3749(6) 0.4794(6) 0.3792(6)
C10 C 0.3393(8) 0.4346(9) 0.5000
H5 H 0.2885 0.3706 0.5000
C11 C 0.4530(8) 0.5798(8) 0.3809(8)
H6 H 0.4788 0.6124 0.3002
C12 C 0.4887(12) 0.6263(11) 0.5000
H7 H 0.5382 0.6910 0.5000
C13 C 0.3370(6) 0.4310(7) 0.2490(6)
In1B In -0.36037(4) -0.07687(6) 0.0000
In1A In 0.07687(6) -0.28350(4) 0.0000
In1_2 In 0.28350(4) 0.36037(4) 1.0000
In1_3 In 0.28350(4) 0.36037(4) -1.0000
In1B_2 In -0.36037(4) -0.07687(6) 1.0000
O1B O -0.3265(7) 0.0801(11) 0.0000
O1A O -0.0801(11) -0.4066(8) 0.0000
O2B O -0.2089(6) 0.0463(8) 0.0000
O2A O -0.0463(8) -0.2552(6) 0.0000
O3B O 0.1814(8) 0.4420(13) 0.0000
O3A O -0.4420(13) -0.2606(10) 0.0000
O4B O 0.1298(6) 0.2889(8) 0.0000
O4A O -0.2889(8) -0.1591(6) 0.0000
O5C O 0.3715(5) 0.4803(5) 0.8594(5)
O5C_2 O 0.3715(5) 0.4803(5) -0.1406(5)
O5_2 O 0.3715(5) 0.4803(5) -0.8594(5)
O5B O -0.4803(5) -0.1088(7) 0.1406(5)
O5E O -0.4803(5) -0.1088(7) 0.8594(5)
O5E_2 O -0.4803(5) -0.1088(7) -0.1406(5)
O5D O 0.1088(7) -0.3715(5) 0.1406(5)
O5A O 0.1088(7) -0.3715(5) -0.1406(5)
O6C O 0.2733(4) 0.3451(4) 0.7568(4)
O6C_2 O 0.2733(4) 0.3451(4) -0.2432(4)
O6_2 O 0.2733(4) 0.3451(4) -0.7568(4)
O6B O -0.3451(4) -0.0718(6) 0.2432(4)
O6E O -0.3451(4) -0.0718(6) 0.7568(4)
O6E_2 O -0.3451(4) -0.0718(6) -0.2432(4)
O6D O 0.0718(6) -0.2733(4) 0.2432(4)
O6A O 0.0718(6) -0.2733(4) -0.2432(4)
C1B C -0.1594(8) 0.2128(12) 0.0000
C1A C -0.2128(12) -0.3722(9) 0.0000
C2B C -0.0609(9) 0.2379(13) 0.0000
C2A C -0.2379(13) -0.2988(9) 0.0000
H1B H -0.0443 0.1894 0.0000
H1A H -0.1894 -0.2337 0.0000
C3B C 0.0104(9) 0.3338(14) 0.0000
C3A C -0.3338(14) -0.3234(11) 0.0000
C4B C -0.0134(12) 0.4075(17) 0.0000
C4A C -0.4075(17) -0.4209(12) 0.0000
H2B H 0.0353 0.4725 0.0000
H2A H -0.4725 -0.4372 0.0000
C5B C -0.1108(16) 0.3824(21) 0.0000
C5A C -0.3824(21) -0.4932(13) 0.0000
H3B H -0.1285 0.4301 0.0000
H3A H -0.4301 -0.5586 0.0000
C6B C -0.1800(12) 0.2858(16) 0.0000
C6A C -0.2858(16) -0.4658(11) 0.0000
H4B H -0.2450 0.2694 0.0000
H4A H -0.2694 -0.5144 0.0000
C7B C -0.2330(8) 0.1102(12) 0.0000
C7A C -0.1102(12) -0.3432(9) 0.0000
C8B C 0.1138(9) 0.3571(14) 0.0000
C8A C -0.3571(14) -0.2433(11) 0.0000
C9C C 0.3749(6) 0.4794(6) 0.6208(6)
C9C_2 C 0.3749(6) 0.4794(6) -0.3792(6)
C9_2 C 0.3749(6) 0.4794(6) -0.6208(6)
C9B C -0.4794(6) -0.1045(8) 0.3792(6)
C9E C -0.4794(6) -0.1045(8) 0.6208(6)
C10_2 C 0.3393(8) 0.4346(9) -0.5000
C10B C -0.4346(9) -0.0953(12) 0.5000
H5_2 H 0.2885 0.3706 -0.5000
H5B H -0.3706 -0.0821 0.5000
C11C C 0.4530(8) 0.5798(8) 0.6191(8)
C11C_2 C 0.4530(8) 0.5798(8) -0.3809(8)
C11_2 C 0.4530(8) 0.5798(8) -0.6191(8)
C11B C -0.5798(8) -0.1268(11) 0.3809(8)
C11E C -0.5798(8) -0.1268(11) 0.6191(8)
H6C H 0.4788 0.6124 0.6998
H6C_2 H 0.4788 0.6124 -0.3002
H6_2 H 0.4788 0.6124 -0.6998
H6B H -0.6124 -0.1336 0.3002
H6E H -0.6124 -0.1336 0.6998
C12_2 C 0.4887(12) 0.6263(11) -0.5000
C12B C -0.6263(11) -0.1376(16) 0.5000
H7_2 H 0.5382 0.6910 -0.5000
H7B H -0.6910 -0.1528 0.5000
C13C C 0.3370(6) 0.4310(7) 0.7510(6)
C13C_2 C 0.3370(6) 0.4310(7) -0.2490(6)
C13_2 C 0.3370(6) 0.4310(7) -0.7510(6)
C13B C -0.4310(7) -0.0940(9) 0.2490(6)
C13E C -0.4310(7) -0.0940(9) 0.7510(6)
loop_
_geom_bond_atom_site_label_1
_geom_bond_atom_site_label_2
_geom_bond_site_symmetry_1
_geom_bond_site_symmetry_2
In1 O1 1_555 1_555
O1 C7 1_555 1_555
O2 In1 1_555 1_555
O3 C8 1_555 1_555
O4 C8 1_555 1_555
O5 In1 1_555 1_555
O6 In1 1_555 1_555
C1 C2 1_555 1_555
C2 H1 1_555 1_555
C3 C2 1_555 1_555
C4 C3 1_555 1_555
H2 C4 1_555 1_555
C5 C4 1_555 1_555
H3 C5 1_555 1_555
C6 C1 1_555 1_555
H4 C6 1_555 1_555
C7 O2 1_555 1_555
C8 C3 1_555 1_555
C9 C10 1_555 1_555
C10 H5 1_555 1_555
C11 C9 1_555 1_555
H6 C11 1_555 1_555
C12 C11 1_555 1_555
H7 C12 1_555 1_555
C13 O5 1_555 1_555
N1 C14 1_555 1_555
C14 N1B 1_555 1_555
In1B O1B 1_555 1_555
In1A O3 1_555 1_555
In1_2 O5C 1_555 1_555
In1_3 O5_2 1_555 1_555
In1B_2 O5E 1_555 1_555
O1B C7B 1_555 1_555
O1A In1A 1_555 1_555
O2B In1B 1_555 1_555
O2A In1A 1_555 1_555
O3B In1 1_555 1_555
O3A In1B 1_555 1_555
O4B In1 1_555 1_555
O4A In1B 1_555 1_555
O5C C13C 1_555 1_555
O5C_2 In1 1_555 1_555
O5_2 C13_2 1_555 1_555
O5B In1B 1_555 1_555
O5E C13E 1_555 1_555
O5E_2 In1B 1_555 1_555
O5D In1A 1_555 1_555
O5A In1A 1_555 1_555
O6C In1_2 1_555 1_555
O6C_2 In1 1_555 1_555
O6_2 In1_3 1_555 1_555
O6B In1B 1_555 1_555
O6E In1B_2 1_555 1_555
O6E_2 In1B 1_555 1_555
O6D In1A 1_555 1_555
O6A In1A 1_555 1_555
C1B C2B 1_555 1_555
C1A C2A 1_555 1_555
C2B H1B 1_555 1_555
C2A H1A 1_555 1_555
C3B C2B 1_555 1_555
C3A C2A 1_555 1_555
C4B C3B 1_555 1_555
C4A C3A 1_555 1_555
H2B C4B 1_555 1_555
H2A C4A 1_555 1_555
C5B C4B 1_555 1_555
C5A C4A 1_555 1_555
H3B C5B 1_555 1_555
H3A C5A 1_555 1_555
C6B C1B 1_555 1_555
C6A C1A 1_555 1_555
H4B C6B 1_555 1_555
H4A C6A 1_555 1_555
C7B O2B 1_555 1_555
C7A O1A 1_555 1_555
C8B O3B 1_555 1_555
C8A O3A 1_555 1_555
C9C C10 1_555 1_555
C9C_2 C10_2 1_555 1_555
C9_2 C10_2 1_555 1_555
C9B C10B 1_555 1_555
C9E C10B 1_555 1_555
C10_2 H5_2 1_555 1_555
C10B H5B 1_555 1_555
C11C C12 1_555 1_555
C11C_2 C9C_2 1_555 1_555
C11_2 C9_2 1_555 1_555
C11B C9B 1_555 1_555
C11E C9E 1_555 1_555
H6C C11C 1_555 1_555
H6C_2 C11C_2 1_555 1_555
H6_2 C11_2 1_555 1_555
H6B C11B 1_555 1_555
H6E C11E 1_555 1_555
C12_2 C11C_2 1_555 1_555
C12B C11B 1_555 1_555
H7_2 C12_2 1_555 1_555
H7B C12B 1_555 1_555
C13C O6C 1_555 1_555
C13C_2 O5C_2 1_555 1_555
C13_2 O6_2 1_555 1_555
C13B O5B 1_555 1_555
C13E O6E 1_555 1_555
N1B N1 1_555 1_555
N1A N1 1_555 1_555
C14E N1 1_555 1_555
O4 In1A 1_555 1_555
O6 C13 1_555 1_555
C1 C7 1_555 1_555
C5 C6 1_555 1_555
C9 C13 1_555 1_555
C14 N1A 1_555 1_555
O2A C7A 1_555 1_555
O4B C8B 1_555 1_555
O4A C8A 1_555 1_555
O6C_2 C13C_2 1_555 1_555
O6B C13B 1_555 1_555
C1B C7B 1_555 1_555
C1A C7A 1_555 1_555
C3B C8B 1_555 1_555
C3A C8A 1_555 1_555
C5B C6B 1_555 1_555
C5A C6A 1_555 1_555
C9C C11C 1_555 1_555
C9C C13C 1_555 1_555
C9C_2 C13C_2 1_555 1_555
C9_2 C13_2 1_555 1_555
C9B C13B 1_555 1_555
C9E C13E 1_555 1_555
C11_2 C12_2 1_555 1_555
C11E C12B 1_555 1_555
N1B N1A 1_555 1_555
N1B C14E 1_555 1_555
N1A C14E 1_555 1_555

#END
