
#######################################################################
#
#                 Cambridge Crystallographic Data Centre
#                                CCDC 
#
#######################################################################
#
# If this CIF has been generated from an entry in the Cambridge 
# Structural Database, then it will include bibliographic, chemical, 
# crystal, experimental, refinement or atomic coordinate data resulting 
# from the CCDC's data processing and validation procedures.
#
#######################################################################

data_TACYON
_symmetry_cell_setting           monoclinic
_symmetry_space_group_name_H-M   'C 2/c'
_symmetry_Int_Tables_number      15
_space_group_name_Hall           '-C 2yn'
loop_
_symmetry_equiv_pos_site_id
_symmetry_equiv_pos_as_xyz
1 x,y,z
2 -x,y,1/2-z
3 1/2+x,1/2+y,z
4 1/2-x,1/2+y,1/2-z
5 -x,-y,-z
6 x,-y,1/2+z
7 1/2-x,1/2-y,-z
8 1/2+x,1/2-y,1/2+z
_cell_length_a                   15.7412(6)
_cell_length_b                   6.6018(2)
_cell_length_c                   16.5704(7)
_cell_angle_alpha                90
_cell_angle_beta                 109.108(2)
_cell_angle_gamma                90
_cell_volume                     1627.12
loop_
_atom_site_label
_atom_site_type_symbol
_atom_site_fract_x
_atom_site_fract_y
_atom_site_fract_z
Sb1 Sb 0.0000 0.05936(5) 0.2500
F1 F 0.1156(2) 0.0648(7) 0.3286(2)
F2 F -0.0430(3) 0.0545(5) 0.3420(2)
F3 F 0.0000 0.3394(6) 0.2500
F4 F 0.0000 -0.2201(6) 0.2500
F1A F -0.1156(2) 0.0648(7) 0.1714(2)
F2A F 0.0430(3) 0.0545(5) 0.1580(2)
Ag1 Ag 0.2500 -0.2500 0.0000
N1 N 0.2237(2) 0.0104(5) 0.0648(2)
N2 N 0.1940(2) 0.3571(6) 0.1465(2)
N3 N 0.0950(2) 0.4818(5) 0.0197(2)
C1 C 0.2685(3) 0.0436(7) 0.1477(3)
H1 H 0.3120 -0.0545 0.1788
C2 C 0.2520(3) 0.2132(8) 0.1866(3)
H2 H 0.2844 0.2285 0.2464
C3 C 0.1500(2) 0.3288(6) 0.0630(2)
C4 C 0.1645(3) 0.1500(6) 0.0223(2)
H3 H 0.1302 0.1290 -0.0367
C5 C 0.0341(3) 0.4521(6) -0.0672(2)
H4 H 0.0254 0.5795 -0.0967
H5 H 0.0594 0.3563 -0.0965
C6 C 0.0572(3) 0.6232(7) 0.0670(3)
H6 H 0.0966 0.6369 0.1249
H7 H 0.0492 0.7529 0.0394
Ag1B Ag -0.2500 1.2500 0.0000
N1D N -0.2237(2) 0.9896(5) -0.0648(2)
N1F N 0.2763(2) -0.5104(5) -0.0648(2)
N2D N -0.1940(2) 0.6429(6) -0.1465(2)
N3D N -0.0950(2) 0.5182(5) -0.0197(2)
C1D C -0.2685(3) 0.9564(7) -0.1477(3)
H1D H -0.3120 1.0545 -0.1788
C2D C -0.2520(3) 0.7868(8) -0.1866(3)
H2D H -0.2844 0.7715 -0.2464
C3D C -0.1500(2) 0.6712(6) -0.0630(2)
C4D C -0.1645(3) 0.8500(6) -0.0223(2)
H3D H -0.1302 0.8710 0.0367
C5D C -0.0341(3) 0.5479(6) 0.0672(2)
H4D H -0.0254 0.4205 0.0967
H5D H -0.0594 0.6437 0.0965
C6D C -0.0572(3) 0.3768(7) -0.0670(3)
H6D H -0.0966 0.3631 -0.1249
H7D H -0.0492 0.2471 -0.0394
loop_
_geom_bond_atom_site_label_1
_geom_bond_atom_site_label_2
_geom_bond_site_symmetry_1
_geom_bond_site_symmetry_2
Sb1 F1 1_555 1_555
Ag1 N1 1_555 1_555
F2 Sb1 1_555 1_555
F3 Sb1 1_555 1_555
F4 Sb1 1_555 1_555
N1 C1 1_555 1_555
N2 C2 1_555 1_555
N3 C3 1_555 1_555
C1 H1 1_555 1_555
C2 C1 1_555 1_555
H2 C2 1_555 1_555
C3 N2 1_555 1_555
C4 N1 1_555 1_555
H3 C4 1_555 1_555
C5 N3 1_555 1_555
H4 C5 1_555 1_555
H5 C5 1_555 1_555
C6 N3 1_555 1_555
H6 C6 1_555 1_555
H7 C6 1_555 1_555
Ag1B N1D 1_555 1_555
F1A Sb1 1_555 1_555
F2A Sb1 1_555 1_555
N1D C1D 1_555 1_555
N1F Ag1 1_555 1_555
N2D C2D 1_555 1_555
N3D C3D 1_555 1_555
C1D H1D 1_555 1_555
C2D C1D 1_555 1_555
H2D C2D 1_555 1_555
C3D N2D 1_555 1_555
C4D N1D 1_555 1_555
H3D C4D 1_555 1_555
C5D C6 1_555 1_555
H4D C5D 1_555 1_555
H5D C5D 1_555 1_555
C6D C5 1_555 1_555
H6D C6D 1_555 1_555
H7D C6D 1_555 1_555
C3 C4 1_555 1_555
N3D C5D 1_555 1_555
N3D C6D 1_555 1_555
C3D C4D 1_555 1_555

#END
