
#######################################################################
#
#                 Cambridge Crystallographic Data Centre
#                                CCDC 
#
#######################################################################
#
# If this CIF has been generated from an entry in the Cambridge 
# Structural Database, then it will include bibliographic, chemical, 
# crystal, experimental, refinement or atomic coordinate data resulting 
# from the CCDC's data processing and validation procedures.
#
#######################################################################

data_TACZUU
_symmetry_cell_setting           triclinic
_symmetry_space_group_name_H-M   'P -1'
_symmetry_Int_Tables_number      2
_space_group_name_Hall           '-P 1'
loop_
_symmetry_equiv_pos_site_id
_symmetry_equiv_pos_as_xyz
1 x,y,z
2 -x,-y,-z
_cell_length_a                   7.4087(5)
_cell_length_b                   9.1583(6)
_cell_length_c                   10.1717(7)
_cell_angle_alpha                63.7770(10)
_cell_angle_beta                 76.7350(10)
_cell_angle_gamma                86.0330(10)
_cell_volume                     602.201
loop_
_atom_site_label
_atom_site_type_symbol
_atom_site_fract_x
_atom_site_fract_y
_atom_site_fract_z
Au1 Au 1.0000 0.0000 0.5000
S1 S 1.35615(8) 0.89868(7) 0.19727(6)
S2 S 0.87028(8) 0.25215(7) 0.40750(6)
S3 S 1.27628(8) 0.12222(7) 0.47465(6)
N1 N 1.1539(3) 0.8277(2) 0.2129(2)
N2 N 1.4631(3) 0.7296(2) 0.2671(2)
C1 C 1.0519(3) 0.3888(3) 0.3702(2)
C2 C 1.0167(3) 0.5521(3) 0.3106(2)
H1 H 0.9004 0.5880 0.2924
C3 C 1.1619(3) 0.6643(3) 0.2775(2)
C4 C 1.3395(3) 0.6078(3) 0.3080(2)
C5 C 1.3725(3) 0.4388(3) 0.3722(3)
H2 H 1.4868 0.4012 0.3943
C6 C 1.2308(3) 0.3320(3) 0.4009(2)
O1 O 0.8037(3) 0.7896(2) 0.0341(2)
C7 C 0.8063(4) 0.6575(3) -0.0041(3)
H3 H 0.8902 0.6845 -0.0995
H4 H 0.6839 0.6370 -0.0101
H5 H 0.8467 0.5619 0.0716
O2 O 0.7387(3) 1.0461(2) 0.1566(2)
C8 C 0.6680(4) 1.2046(3) 0.1226(3)
H6 H 0.7602 1.2739 0.1218
H7 H 0.5585 1.1973 0.1974
H8 H 0.6379 1.2494 0.0256
Na1 Na 1.0000 1.0000 0.0000
H9 H 0.717(6) 0.773(5) 0.104(4)
H10 H 0.747(6) 1.006(5) 0.241(5)
S1A S 0.64385(8) -0.89868(7) 0.80273(6)
S2A S 1.12972(8) -0.25215(7) 0.59250(6)
S3A S 0.72372(8) -0.12222(7) 0.52535(6)
N1A N 0.8461(3) -0.8277(2) 0.7871(2)
N1A_2 N 0.8461(3) 1.1723(2) -0.2129(2)
N2A N 0.5369(3) -0.7296(2) 0.7329(2)
C1A C 0.9481(3) -0.3888(3) 0.6298(2)
C2A C 0.9833(3) -0.5521(3) 0.6894(2)
H1A H 1.0996 -0.5880 0.7076
C3A C 0.8381(3) -0.6643(3) 0.7225(2)
C4A C 0.6605(3) -0.6078(3) 0.6920(2)
C5A C 0.6275(3) -0.4388(3) 0.6278(3)
H2A H 0.5132 -0.4012 0.6057
C6A C 0.7692(3) -0.3320(3) 0.5991(2)
O1A O 1.1963(3) 1.2104(2) -0.0341(2)
C7A C 1.1937(4) 1.3425(3) 0.0041(3)
H3A H 1.1098 1.3155 0.0995
H4A H 1.3161 1.3630 0.0101
H5A H 1.1533 1.4381 -0.0716
O2A O 1.2613(3) 0.9539(2) -0.1566(2)
C8A C 1.3320(4) 0.7954(3) -0.1226(3)
H6A H 1.2398 0.7261 -0.1218
H7A H 1.4415 0.8027 -0.1974
H8A H 1.3621 0.7506 -0.0256
Na1_2 Na 1.0000 -1.0000 1.0000
H9A H 1.283(6) 1.227(5) -0.104(4)
H10A H 1.253(6) 0.994(5) -0.241(5)
loop_
_geom_bond_atom_site_label_1
_geom_bond_atom_site_label_2
_geom_bond_site_symmetry_1
_geom_bond_site_symmetry_2
Au1 S2 1_555 1_555
S1 N1 1_555 1_555
S2 C1 1_555 1_555
S3 Au1 1_555 1_555
N1 C3 1_555 1_555
N2 S1 1_555 1_555
C1 C2 1_555 1_555
C2 H1 1_555 1_555
C3 C2 1_555 1_555
C4 N2 1_555 1_555
C5 C4 1_555 1_555
H2 C5 1_555 1_555
C6 S3 1_555 1_555
O1 C7 1_555 1_555
C7 H3 1_555 1_555
H4 C7 1_555 1_555
H5 C7 1_555 1_555
O2 C8 1_555 1_555
C8 H6 1_555 1_555
H7 C8 1_555 1_555
H8 C8 1_555 1_555
Na1 N1 1_555 1_555
H9 O1 1_555 1_555
H10 O2 1_555 1_555
S1A N1A 1_555 1_555
S2A Au1 1_555 1_555
S3A Au1 1_555 1_555
N1A C3A 1_555 1_555
N1A_2 Na1 1_555 1_555
N2A S1A 1_555 1_555
C1A S2A 1_555 1_555
C2A C1A 1_555 1_555
H1A C2A 1_555 1_555
C3A C2A 1_555 1_555
C4A N2A 1_555 1_555
C5A C4A 1_555 1_555
H2A C5A 1_555 1_555
C6A S3A 1_555 1_555
O1A Na1 1_555 1_555
C7A O1A 1_555 1_555
H3A C7A 1_555 1_555
H4A C7A 1_555 1_555
H5A C7A 1_555 1_555
O2A Na1 1_555 1_555
C8A O2A 1_555 1_555
H6A C8A 1_555 1_555
H7A C8A 1_555 1_555
H8A C8A 1_555 1_555
Na1_2 N1A 1_555 1_555
H9A O1A 1_555 1_555
H10A O2A 1_555 1_555
C1 C6 1_555 1_555
C3 C4 1_555 1_555
C5 C6 1_555 1_555
O1 Na1 1_555 1_555
O2 Na1 1_555 1_555
C1A C6A 1_555 1_555
C3A C4A 1_555 1_555
C5A C6A 1_555 1_555

#END
