
#######################################################################
#
#                 Cambridge Crystallographic Data Centre
#                                CCDC 
#
#######################################################################
#
# If this CIF has been generated from an entry in the Cambridge 
# Structural Database, then it will include bibliographic, chemical, 
# crystal, experimental, refinement or atomic coordinate data resulting 
# from the CCDC's data processing and validation procedures.
#
#######################################################################

data_TADBAD
_symmetry_cell_setting           triclinic
_symmetry_space_group_name_H-M   'P -1'
_symmetry_Int_Tables_number      2
_space_group_name_Hall           '-P 1'
loop_
_symmetry_equiv_pos_site_id
_symmetry_equiv_pos_as_xyz
1 x,y,z
2 -x,-y,-z
_cell_length_a                   8.4687(7)
_cell_length_b                   8.6531(7)
_cell_length_c                   9.2081(7)
_cell_angle_alpha                106.4670(10)
_cell_angle_beta                 95.2890(10)
_cell_angle_gamma                98.9410(10)
_cell_volume                     632.59
loop_
_atom_site_label
_atom_site_type_symbol
_atom_site_fract_x
_atom_site_fract_y
_atom_site_fract_z
Au1 Au 0.5000 1.0000 1.0000
C1 C 0.3338(3) 0.7066(3) 0.6975(3)
C2 C 0.4404(3) 0.6302(3) 0.7731(3)
C3 C 0.4512(3) 0.4684(3) 0.7094(3)
H1 H 0.5223 0.4199 0.7569
C4 C 0.3517(3) 0.3783(3) 0.5702(3)
C5 C 0.2419(3) 0.4542(3) 0.4983(3)
C6 C 0.2352(3) 0.6203(3) 0.5635(3)
H2 H 0.1653 0.6705 0.5167
C7 C 0.7815(3) 0.2167(3) 0.8046(3)
H3 H 0.7120 0.2287 0.8779
C8 C 0.9984(4) 0.2929(4) 1.0174(3)
H4 H 0.9094 0.2996 1.0750
H5 H 1.0540 0.2097 1.0346
H6 H 1.0715 0.3968 1.0496
C9 C 1.0565(4) 0.2417(5) 0.7503(4)
H7 H 1.0023 0.2082 0.6470
H8 H 1.1247 0.3475 0.7720
H9 H 1.1210 0.1632 0.7627
N1 N 0.1517(3) 0.3516(3) 0.3693(3)
N2 N 0.3421(3) 0.2183(3) 0.4939(3)
N3 N 0.9380(3) 0.2513(3) 0.8548(3)
Na1 Na 0.5000 0.0000 0.5000
O1 O 0.7194(2) 0.1698(3) 0.6695(2)
S1 S 0.32807(9) 0.91706(8) 0.77159(8)
S2 S 0.55724(8) 0.73911(8) 0.95151(7)
S3 S 0.20501(8) 0.17591(8) 0.34608(8)
C1A C 0.6662(3) 1.2934(3) 1.3025(3)
C2A C 0.5596(3) 1.3698(3) 1.2269(3)
C3A C 0.5488(3) 1.5316(3) 1.2906(3)
H1A H 0.4777 1.5801 1.2431
C4A C 0.6483(3) 1.6217(3) 1.4298(3)
C5A C 0.7581(3) 1.5458(3) 1.5017(3)
C6A C 0.7648(3) 1.3797(3) 1.4365(3)
H2A H 0.8347 1.3295 1.4833
C7A C 0.2185(3) -0.2167(3) 0.1954(3)
H3A H 0.2880 -0.2287 0.1221
C8A C 0.0016(4) -0.2929(4) -0.0174(3)
H4A H 0.0906 -0.2996 -0.0750
H5A H -0.0540 -0.2097 -0.0346
H6A H -0.0715 -0.3968 -0.0496
C9A C -0.0565(4) -0.2417(5) 0.2497(4)
H7A H -0.0023 -0.2082 0.3530
H8A H -0.1247 -0.3475 0.2280
H9A H -0.1210 -0.1632 0.2373
N1A N 0.8483(3) 1.6484(3) 1.6307(3)
N2A N 0.6579(3) 1.7817(3) 1.5061(3)
N2A_2 N 0.6579(3) -0.2183(3) 0.5061(3)
N3A N 0.0620(3) -0.2513(3) 0.1452(3)
Na1_2 Na 0.5000 1.0000 0.5000
Na1_3 Na 0.5000 2.0000 1.5000
Na1_4 Na 0.5000 1.0000 1.5000
O1A O 0.2806(2) -0.1698(3) 0.3305(2)
S1A S 0.67193(9) 1.08294(8) 1.22841(8)
S1_2 S 0.32807(9) -0.08294(8) 0.77159(8)
S1A_2 S 0.67193(9) 0.08294(8) 0.22841(8)
S2A S 0.44276(8) 1.26089(8) 1.04849(7)
S3A S 0.79499(8) 1.82409(8) 1.65392(8)
loop_
_geom_bond_atom_site_label_1
_geom_bond_atom_site_label_2
_geom_bond_site_symmetry_1
_geom_bond_site_symmetry_2
Au1 S1 1_555 1_555
C1 C2 1_555 1_555
C2 C3 1_555 1_555
C3 H1 1_555 1_555
C4 C3 1_555 1_555
C5 C4 1_555 1_555
C6 C1 1_555 1_555
H2 C6 1_555 1_555
C7 H3 1_555 1_555
C8 H4 1_555 1_555
H5 C8 1_555 1_555
H6 C8 1_555 1_555
C9 H7 1_555 1_555
H8 C9 1_555 1_555
H9 C9 1_555 1_555
N1 C5 1_555 1_555
N2 C4 1_555 1_555
N3 C7 1_555 1_555
Na1 N2 1_555 1_555
O1 C7 1_555 1_555
S1 C1 1_555 1_555
S2 Au1 1_555 1_555
S3 N1 1_555 1_555
C1A C2A 1_555 1_555
C2A C3A 1_555 1_555
C3A H1A 1_555 1_555
C4A C3A 1_555 1_555
C5A C4A 1_555 1_555
C6A C1A 1_555 1_555
H2A C6A 1_555 1_555
C7A H3A 1_555 1_555
C8A H4A 1_555 1_555
H5A C8A 1_555 1_555
H6A C8A 1_555 1_555
C9A H7A 1_555 1_555
H8A C9A 1_555 1_555
H9A C9A 1_555 1_555
N1A C5A 1_555 1_555
N2A C4A 1_555 1_555
N2A_2 Na1 1_555 1_555
N3A C7A 1_555 1_555
Na1_2 S1 1_555 1_555
Na1_3 N2A 1_555 1_555
Na1_4 S1A 1_555 1_555
O1A Na1 1_555 1_555
S1A Au1 1_555 1_555
S1_2 Na1 1_555 1_555
S1A_2 Na1 1_555 1_555
S2A Au1 1_555 1_555
S3A N1A 1_555 1_555
C2 S2 1_555 1_555
C5 C6 1_555 1_555
C8 N3 1_555 1_555
C9 N3 1_555 1_555
N2 S3 1_555 1_555
Na1 O1 1_555 1_555
C1A S1A 1_555 1_555
C2A S2A 1_555 1_555
C5A C6A 1_555 1_555
C7A O1A 1_555 1_555
C8A N3A 1_555 1_555
C9A N3A 1_555 1_555
N2A S3A 1_555 1_555

#END
