
#######################################################################
#
#                 Cambridge Crystallographic Data Centre
#                                CCDC 
#
#######################################################################
#
# If this CIF has been generated from an entry in the Cambridge 
# Structural Database, then it will include bibliographic, chemical, 
# crystal, experimental, refinement or atomic coordinate data resulting 
# from the CCDC's data processing and validation procedures.
#
#######################################################################

data_TADBEH
_symmetry_cell_setting           monoclinic
_symmetry_space_group_name_H-M   'P 21/c'
_symmetry_Int_Tables_number      14
_space_group_name_Hall           '-P 2ybc'
loop_
_symmetry_equiv_pos_site_id
_symmetry_equiv_pos_as_xyz
1 x,y,z
2 -x,1/2+y,1/2-z
3 -x,-y,-z
4 x,1/2-y,1/2+z
_cell_length_a                   12.9803(14)
_cell_length_b                   10.1794(11)
_cell_length_c                   8.4481(9)
_cell_angle_alpha                90
_cell_angle_beta                 102.981(2)
_cell_angle_gamma                90
_cell_volume                     1087.74
loop_
_atom_site_label
_atom_site_type_symbol
_atom_site_fract_x
_atom_site_fract_y
_atom_site_fract_z
Au1 Au 0.5000 0.5000 1.0000
S1 S 0.61608(7) 0.67212(8) 1.07525(11)
C1 C 0.7255(3) 0.5081(3) 0.9053(4)
C2 C 0.8085(3) 0.4778(3) 0.8344(4)
H1 H 0.8092 0.3991 0.7788
C3 C 0.7235(2) 0.6303(3) 0.9897(4)
C4 C 0.8901(3) 0.6883(3) 0.9347(4)
C5 C 0.8044(3) 0.7181(3) 1.0058(4)
H2 H 0.8031 0.7962 1.0624
C6 C 0.8921(2) 0.5681(3) 0.8477(4)
S2 S 1.04836(6) 0.68775(8) 0.83593(10)
S3 S 0.62412(7) 0.39188(8) 0.89177(11)
N1 N 0.9746(2) 0.7653(3) 0.9358(3)
N2 N 0.9781(2) 0.5563(3) 0.7838(3)
Na1 Na 1.0000 1.0000 1.0000
N3 N 1.1872(2) 0.9395(3) 1.0877(4)
C7 C 1.2733(3) 0.9454(4) 1.0788(4)
C8 C 1.3817(3) 0.9559(4) 1.0609(5)
H3 H 1.3875 0.9171 0.9597
H4 H 1.4278 0.9107 1.1489
H5 H 1.4016 1.0468 1.0624
S1B S 0.38392(7) 0.32788(8) 0.92475(11)
C1B C 0.2745(3) 0.4919(3) 1.0947(4)
C2B C 0.1915(3) 0.5222(3) 1.1656(4)
H1B H 0.1908 0.6009 1.2212
C3B C 0.2765(2) 0.3697(3) 1.0103(4)
C4B C 0.1099(3) 0.3117(3) 1.0653(4)
C5B C 0.1956(3) 0.2819(3) 0.9942(4)
H2B H 0.1969 0.2038 0.9376
C6B C 0.1079(2) 0.4319(3) 1.1523(4)
S2B S -0.04836(6) 0.31225(8) 1.16407(10)
S3B S 0.37588(7) 0.60812(8) 1.10823(11)
N1B N 0.0254(2) 0.2347(3) 1.0642(3)
N1B_2 N 1.0254(2) 1.2347(3) 1.0642(3)
N2B N 0.0219(2) 0.4437(3) 1.2162(3)
N2A N 1.0219(2) 1.0563(3) 0.7162(3)
N2C N 0.9781(2) 0.9437(3) 1.2838(3)
Na1A Na 1.0000 0.5000 0.5000
Na1_2 Na 0.0000 0.0000 1.0000
Na1A_2 Na 0.0000 0.5000 1.5000
N3B N 0.8128(2) 1.0605(3) 0.9123(4)
C7B C 0.7267(3) 1.0546(4) 0.9212(4)
C8B C 0.6183(3) 1.0441(4) 0.9391(5)
H3B H 0.6125 1.0829 1.0403
H4B H 0.5722 1.0893 0.8511
H5B H 0.5984 0.9532 0.9376
loop_
_geom_bond_atom_site_label_1
_geom_bond_atom_site_label_2
_geom_bond_site_symmetry_1
_geom_bond_site_symmetry_2
Au1 S1 1_555 1_555
S1 C3 1_555 1_555
C1 C2 1_555 1_555
C2 H1 1_555 1_555
C3 C1 1_555 1_555
C4 C5 1_555 1_555
C5 C3 1_555 1_555
H2 C5 1_555 1_555
C6 C2 1_555 1_555
S2 N1 1_555 1_555
S3 Au1 1_555 1_555
N1 C4 1_555 1_555
N2 C6 1_555 1_555
Na1 N1 1_555 1_555
N3 Na1 1_555 1_555
C7 N3 1_555 1_555
C8 C7 1_555 1_555
H3 C8 1_555 1_555
H4 C8 1_555 1_555
H5 C8 1_555 1_555
S1B Au1 1_555 1_555
C1B C2B 1_555 1_555
C2B H1B 1_555 1_555
C3B S1B 1_555 1_555
C4B C5B 1_555 1_555
C5B C3B 1_555 1_555
H2B C5B 1_555 1_555
C6B C2B 1_555 1_555
S2B N1B 1_555 1_555
S3B Au1 1_555 1_555
N1B C4B 1_555 1_555
N1B_2 Na1 1_555 1_555
N2B C6B 1_555 1_555
N2A Na1 1_555 1_555
N2C Na1 1_555 1_555
Na1A N2 1_555 1_555
Na1_2 N1B 1_555 1_555
Na1A_2 N2B 1_555 1_555
N3B Na1 1_555 1_555
C7B N3B 1_555 1_555
C8B C7B 1_555 1_555
H3B C8B 1_555 1_555
H4B C8B 1_555 1_555
H5B C8B 1_555 1_555
C1 S3 1_555 1_555
C4 C6 1_555 1_555
S2 N2 1_555 1_555
C1B C3B 1_555 1_555
C1B S3B 1_555 1_555
C4B C6B 1_555 1_555
S2B N2B 1_555 1_555

#END
