
#######################################################################
#
#                 Cambridge Crystallographic Data Centre
#                                CCDC 
#
#######################################################################
#
# If this CIF has been generated from an entry in the Cambridge 
# Structural Database, then it will include bibliographic, chemical, 
# crystal, experimental, refinement or atomic coordinate data resulting 
# from the CCDC's data processing and validation procedures.
#
#######################################################################

data_TADCAC
_symmetry_cell_setting           monoclinic
_symmetry_space_group_name_H-M   'C 2/c'
_symmetry_Int_Tables_number      15
_space_group_name_Hall           '-C 2yn'
loop_
_symmetry_equiv_pos_site_id
_symmetry_equiv_pos_as_xyz
1 x,y,z
2 1/2+x,1/2+y,z
3 -x,y,1/2-z
4 1/2-x,1/2+y,1/2-z
5 -x,-y,-z
6 1/2-x,1/2-y,-z
7 x,-y,1/2+z
8 1/2+x,1/2-y,1/2+z
_cell_length_a                   13.905(2)
_cell_length_b                   14.378(2)
_cell_length_c                   9.350(1)
_cell_angle_alpha                90
_cell_angle_beta                 101.68(1)
_cell_angle_gamma                90
_cell_volume                     1830.6
loop_
_atom_site_label
_atom_site_type_symbol
_atom_site_fract_x
_atom_site_fract_y
_atom_site_fract_z
Au1 Au 0.43682(2) 0.06999(2) 0.09327(4)
Br1 Br 0.51671(6) 0.20139(6) 0.0075(1)
P1 P 0.3449(2) -0.0425(1) 0.1643(2)
C1 C 0.2486(6) -0.0001(6) 0.253(1)
C2 C 0.1927(5) -0.0610(6) 0.3171(9)
C3 C 0.1192(6) -0.0246(7) 0.382(1)
C4 C 0.1026(6) 0.0711(7) 0.381(1)
C5 C 0.1580(6) 0.1301(6) 0.318(1)
C6 C 0.2313(6) 0.0950(6) 0.256(1)
C7 C 0.2068(6) -0.1668(6) 0.317(1)
Au1D Au 0.56318(2) -0.06999(2) -0.09327(4)
Au1B Au 0.56318(2) 0.06999(2) 0.40673(4)
Au1F Au 0.43682(2) -0.06999(2) -0.40673(4)
Br1D Br 0.48329(6) -0.20139(6) -0.0075(1)
P1D P 0.6551(2) 0.0425(1) -0.1643(2)
Au1F_2 Au 0.43682(2) -0.06999(2) 0.59327(4)
Br1B Br 0.48329(6) 0.20139(6) 0.4925(1)
P1B P 0.6551(2) -0.0425(1) 0.3357(2)
Au1B_2 Au 0.56318(2) 0.06999(2) -0.59327(4)
Br1F Br 0.51671(6) -0.20139(6) -0.4925(1)
P1F P 0.3449(2) 0.0425(1) -0.3357(2)
C1D C 0.7514(6) 0.0001(6) -0.253(1)
C1B C 0.7514(6) -0.0001(6) 0.247(1)
C1F C 0.2486(6) 0.0001(6) -0.247(1)
C2D C 0.8073(5) 0.0610(6) -0.3171(9)
C6D C 0.7687(6) -0.0950(6) -0.256(1)
C2B C 0.8073(5) -0.0610(6) 0.1829(9)
C6B C 0.7687(6) 0.0950(6) 0.244(1)
C2F C 0.1927(5) 0.0610(6) -0.1829(9)
C6F C 0.2313(6) -0.0950(6) -0.244(1)
C3D C 0.8808(6) 0.0246(7) -0.382(1)
C7D C 0.7932(6) 0.1668(6) -0.317(1)
C5D C 0.8420(6) -0.1301(6) -0.318(1)
C3B C 0.8808(6) -0.0246(7) 0.118(1)
C7B C 0.7932(6) -0.1668(6) 0.183(1)
C5B C 0.8420(6) 0.1301(6) 0.182(1)
C3F C 0.1192(6) 0.0246(7) -0.118(1)
C7F C 0.2068(6) 0.1668(6) -0.183(1)
C5F C 0.1580(6) -0.1301(6) -0.182(1)
C4D C 0.8974(6) -0.0711(7) -0.381(1)
C4B C 0.8974(6) 0.0711(7) 0.119(1)
C4F C 0.1026(6) -0.0711(7) -0.119(1)
loop_
_geom_bond_atom_site_label_1
_geom_bond_atom_site_label_2
_geom_bond_site_symmetry_1
_geom_bond_site_symmetry_2
Au1 Br1 1_555 1_555
P1 Au1 1_555 1_555
C1 P1 1_555 1_555
C2 C1 1_555 1_555
C3 C2 1_555 1_555
C4 C3 1_555 1_555
C5 C4 1_555 1_555
C6 C1 1_555 1_555
C7 C2 1_555 1_555
Au1D Au1 1_555 1_555
Au1B Au1 1_555 1_555
Au1F Au1D 1_555 1_555
Br1D Au1D 1_555 1_555
P1D Au1D 1_555 1_555
Au1F_2 Au1B 1_555 1_555
Br1B Au1B 1_555 1_555
P1B Au1B 1_555 1_555
Au1B_2 Au1F 1_555 1_555
Br1F Au1F 1_555 1_555
P1F Au1F 1_555 1_555
C1D P1D 1_555 1_555
C1B P1B 1_555 1_555
C1F P1F 1_555 1_555
C2D C1D 1_555 1_555
C6D C1D 1_555 1_555
C2B C1B 1_555 1_555
C6B C1B 1_555 1_555
C2F C1F 1_555 1_555
C6F C1F 1_555 1_555
C3D C2D 1_555 1_555
C7D C2D 1_555 1_555
C5D C6D 1_555 1_555
C3B C2B 1_555 1_555
C7B C2B 1_555 1_555
C5B C6B 1_555 1_555
C3F C2F 1_555 1_555
C7F C2F 1_555 1_555
C5F C6F 1_555 1_555
C4D C3D 1_555 1_555
C4B C3B 1_555 1_555
C4F C3F 1_555 1_555
C5 C6 1_555 1_555
C5D C4D 1_555 1_555
C5B C4B 1_555 1_555
C5F C4F 1_555 1_555

#END
