
#######################################################################
#
#                 Cambridge Crystallographic Data Centre
#                                CCDC 
#
#######################################################################
#
# If this CIF has been generated from an entry in the Cambridge 
# Structural Database, then it will include bibliographic, chemical, 
# crystal, experimental, refinement or atomic coordinate data resulting 
# from the CCDC's data processing and validation procedures.
#
#######################################################################

data_TADDUZ
_symmetry_cell_setting           monoclinic
_symmetry_space_group_name_H-M   'C c'
_symmetry_Int_Tables_number      9
_space_group_name_Hall           'C -2yc'
loop_
_symmetry_equiv_pos_site_id
_symmetry_equiv_pos_as_xyz
1 x,y,z
2 x,-y,1/2+z
3 1/2+x,1/2+y,z
4 1/2+x,1/2-y,1/2+z
_cell_length_a                   25.5867(4)
_cell_length_b                   10.2311(2)
_cell_length_c                   9.9756(2)
_cell_angle_alpha                90
_cell_angle_beta                 91.7520(10)
_cell_angle_gamma                90
_cell_volume                     2610.19
loop_
_atom_site_label
_atom_site_type_symbol
_atom_site_fract_x
_atom_site_fract_y
_atom_site_fract_z
Pb1 Pb 0.38812(2) 0.43090(5) 0.43222(5)
Pb2 Pb 0.31983(2) 0.77521(5) 0.26425(5)
Pb3 Pb 0.39174(3) 0.17493(6) 0.12116(5)
Br1 Br 0.46697(7) 0.35937(19) 0.1943(2)
Br2 Br 0.42774(7) 0.70311(15) 0.3140(2)
S1 S 0.23633(16) 0.0167(4) 0.5259(4)
S2 S 0.19367(16) 0.5273(4) 0.7262(4)
P1 P 0.33990(15) 0.1031(3) 0.4327(4)
P2 P 0.30711(15) 0.5308(3) 0.6425(4)
C1 C 0.1692(7) 0.0229(16) 0.4800(15)
C2 C 0.1477(7) -0.069(2) 0.394(2)
H1 H 0.1685 -0.1349 0.3596
C3 C 0.0960(8) -0.064(3) 0.361(2)
H2 H 0.0811 -0.1264 0.3037
C4 C 0.0671(9) 0.030(3) 0.408(2)
H3 H 0.0317 0.0307 0.3841
C5 C 0.0867(9) 0.132(2) 0.496(2)
H4 H 0.0659 0.1991 0.5270
C6 C 0.1394(7) 0.120(2) 0.529(2)
H5 H 0.1548 0.1805 0.5870
C7 C 0.2692(6) 0.1230(13) 0.4146(13)
H6 H 0.2599 0.2129 0.4338
H7 H 0.2580 0.1040 0.3229
C8 C 0.1326(7) 0.5706(17) 0.6531(17)
C9 C 0.1110(9) 0.691(2) 0.688(2)
H8 H 0.1286 0.7494 0.7441
C10 C 0.0624(9) 0.717(2) 0.634(3)
H9 H 0.0439 0.7874 0.6664
C11 C 0.0391(9) 0.639(3) 0.530(2)
H10 H 0.0072 0.6652 0.4916
C12 C 0.0623(8) 0.528(2) 0.485(3)
H11 H 0.0487 0.4806 0.4130
C13 C 0.1091(8) 0.490(2) 0.558(2)
H12 H 0.1240 0.4088 0.5402
C14 C 0.2390(6) 0.5840(13) 0.6110(16)
H13 H 0.2381 0.6788 0.6109
H14 H 0.2278 0.5549 0.5221
O1 O 0.3549(4) -0.0278(9) 0.3752(10)
O2 O 0.3545(4) 0.1166(9) 0.5811(9)
O3 O 0.3618(4) 0.2129(9) 0.3477(10)
O4 O 0.2411(4) 0.0721(11) 0.6596(11)
O5 O 0.2549(5) -0.1142(9) 0.5095(12)
O6 O 0.3140(4) 0.3940(8) 0.5808(9)
O7 O 0.3164(4) 0.5241(9) 0.7952(9)
O8 O 0.3395(4) 0.6300(9) 0.5658(10)
O9 O 0.1974(4) 0.3884(10) 0.7326(12)
O10 O 0.1997(5) 0.5996(12) 0.8460(11)
O11 O 0.4585(5) 0.0157(13) 0.2468(17)
Pb1A Pb 0.38812(2) 0.56910(5) 0.93222(5)
Pb2_2 Pb 0.31983(2) -0.22479(5) 0.26425(5)
Pb2A Pb 0.31983(2) 0.22479(5) 0.76425(5)
Pb3A Pb 0.39174(3) 0.82507(6) 0.62116(5)
O1_2 O 0.3549(4) 0.9722(9) 0.3752(10)
O2A O 0.3545(4) 0.8834(9) 0.0811(9)
O4A O 0.2411(4) 0.9279(11) 0.1596(11)
O6A O 0.3140(4) 0.6060(8) 0.0808(9)
O7A O 0.3164(4) 0.4759(9) 0.2952(9)
O8A O 0.3395(4) 0.3700(9) 0.0658(10)
loop_
_geom_bond_atom_site_label_1
_geom_bond_atom_site_label_2
_geom_bond_site_symmetry_1
_geom_bond_site_symmetry_2
Pb1 Br1 1_555 1_555
Pb2 Br2 1_555 1_555
Pb3 Br1 1_555 1_555
Br2 Pb1 1_555 1_555
S1 C1 1_555 1_555
S2 C8 1_555 1_555
P1 C7 1_555 1_555
P2 C14 1_555 1_555
C1 C2 1_555 1_555
C2 H1 1_555 1_555
C3 C2 1_555 1_555
H2 C3 1_555 1_555
C4 C3 1_555 1_555
H3 C4 1_555 1_555
C5 C4 1_555 1_555
H4 C5 1_555 1_555
C6 C1 1_555 1_555
H5 C6 1_555 1_555
C7 S1 1_555 1_555
H6 C7 1_555 1_555
H7 C7 1_555 1_555
C8 C9 1_555 1_555
C9 H8 1_555 1_555
C10 C9 1_555 1_555
H9 C10 1_555 1_555
C11 C10 1_555 1_555
H10 C11 1_555 1_555
C12 C11 1_555 1_555
H11 C12 1_555 1_555
C13 C8 1_555 1_555
H12 C13 1_555 1_555
C14 S2 1_555 1_555
H13 C14 1_555 1_555
H14 C14 1_555 1_555
O1 P1 1_555 1_555
O2 P1 1_555 1_555
O3 Pb1 1_555 1_555
O4 S1 1_555 1_555
O5 S1 1_555 1_555
O6 Pb1 1_555 1_555
O7 P2 1_555 1_555
O8 Pb1 1_555 1_555
O9 S2 1_555 1_555
O10 S2 1_555 1_555
O11 Pb3 1_555 1_555
Pb1A O7 1_555 1_555
Pb2_2 O1 1_555 1_555
Pb2A O2 1_555 1_555
Pb3A O8 1_555 1_555
O1_2 Pb2 1_555 1_555
O2A Pb2 1_555 1_555
O4A Pb2 1_555 1_555
O6A Pb2 1_555 1_555
O7A Pb1 1_555 1_555
O8A Pb3 1_555 1_555
Pb3 O3 1_555 1_555
P1 O3 1_555 1_555
P2 O6 1_555 1_555
P2 O8 1_555 1_555
C5 C6 1_555 1_555
C12 C13 1_555 1_555
O4 Pb2A 1_555 1_555
O6 Pb2A 1_555 1_555

#END
