
#######################################################################
#
#                 Cambridge Crystallographic Data Centre
#                                CCDC 
#
#######################################################################
#
# If this CIF has been generated from an entry in the Cambridge 
# Structural Database, then it will include bibliographic, chemical, 
# crystal, experimental, refinement or atomic coordinate data resulting 
# from the CCDC's data processing and validation procedures.
#
#######################################################################

data_TADDEJ
_symmetry_cell_setting           monoclinic
_symmetry_space_group_name_H-M   'C 2/c'
_symmetry_Int_Tables_number      15
_space_group_name_Hall           '-C 2yn'
loop_
_symmetry_equiv_pos_site_id
_symmetry_equiv_pos_as_xyz
1 x,y,z
2 -x,y,1/2-z
3 1/2+x,1/2+y,z
4 1/2-x,1/2+y,1/2-z
5 -x,-y,-z
6 x,-y,1/2+z
7 1/2-x,1/2-y,-z
8 1/2+x,1/2-y,1/2+z
_cell_length_a                   14.696(5)
_cell_length_b                   14.296(5)
_cell_length_c                   11.558(5)
_cell_angle_alpha                90
_cell_angle_beta                 121.509(5)
_cell_angle_gamma                90
_cell_volume                     2070.24
loop_
_atom_site_label
_atom_site_type_symbol
_atom_site_fract_x
_atom_site_fract_y
_atom_site_fract_z
Ag1 Ag 0.0000 0.29197(2) 0.2500
N1 N 0.08612(14) 0.23451(13) 0.13923(19)
N2 N 0.16891(13) 0.28536(12) 0.15191(17)
N3 N 0.21976(13) 0.39384(12) 0.33154(17)
C1 C 0.18189(15) 0.38385(14) 0.1879(2)
H1 H 0.2394 0.4069 0.1763
N4 N 0.15678(15) 0.37373(15) 0.38178(19)
C2 C 0.08353(15) 0.44181(14) 0.09291(19)
C3 C 0.10276(18) 0.14885(16) 0.1091(2)
H2 H 0.0585 0.0980 0.0945
C4 C 0.1944(2) 0.14457(17) 0.1021(3)
H3 H 0.2215 0.0928 0.0813
C5 C 0.32168(17) 0.40849(16) 0.4315(2)
H4 H 0.3789 0.4213 0.4208
C6 C 0.05623(16) 0.52136(15) 0.1365(2)
H5 H 0.0937 0.5362 0.2284
C7 C 0.02605(16) 0.42079(15) -0.0453(2)
H6 H 0.0430 0.3676 -0.0766
C8 C 0.23570(18) 0.23280(16) 0.1323(2)
H7 H 0.2982 0.2529 0.1382
C9 C 0.2219(2) 0.37876(18) 0.5153(2)
H8 H 0.2008 0.3686 0.5773
C10 C 0.3252(2) 0.40103(18) 0.5512(2)
H9 H 0.3842 0.4091 0.6382
Ag1D Ag 0.0000 0.70803(2) -0.2500
N1D N -0.08612(14) 0.76549(13) -0.13923(19)
N1A N -0.08612(14) 0.23451(13) 0.36077(19)
N2D N -0.16891(13) 0.71464(12) -0.15191(17)
N3D N -0.21976(13) 0.60616(12) -0.33154(17)
C1D C -0.18189(15) 0.61615(14) -0.1879(2)
H1D H -0.2394 0.5931 -0.1763
N4D N -0.15678(15) 0.62627(15) -0.38178(19)
N4A N -0.15678(15) 0.37373(15) 0.11822(19)
C2D C -0.08353(15) 0.55819(14) -0.09291(19)
C3D C -0.10276(18) 0.85115(16) -0.1091(2)
H2D H -0.0585 0.9020 -0.0945
C4D C -0.1944(2) 0.85543(17) -0.1021(3)
H3D H -0.2215 0.9072 -0.0813
C5D C -0.32168(17) 0.59151(16) -0.4315(2)
H4D H -0.3789 0.5787 -0.4208
C6D C -0.05623(16) 0.47864(15) -0.1365(2)
H5D H -0.0937 0.4638 -0.2284
C7D C -0.02605(16) 0.57921(15) 0.0453(2)
H6D H -0.0430 0.6324 0.0766
C8D C -0.23570(18) 0.76720(16) -0.1323(2)
H7D H -0.2982 0.7471 -0.1382
C9D C -0.2219(2) 0.62124(18) -0.5153(2)
H8D H -0.2008 0.6314 -0.5773
C10D C -0.3252(2) 0.59897(18) -0.5512(2)
H9D H -0.3842 0.5909 -0.6382
N5 N 0.5000 0.3757(3) 0.2500
O1 O 0.43273(19) 0.4189(2) 0.2606(3)
O2 O 0.5000 0.2898(2) 0.2500
O1A O 0.56727(19) 0.4189(2) 0.2394(3)
loop_
_geom_bond_atom_site_label_1
_geom_bond_atom_site_label_2
_geom_bond_site_symmetry_1
_geom_bond_site_symmetry_2
Ag1 N1 1_555 1_555
N1 N2 1_555 1_555
N2 C1 1_555 1_555
N3 C1 1_555 1_555
C1 H1 1_555 1_555
N4 Ag1 1_555 1_555
C2 C1 1_555 1_555
C3 N1 1_555 1_555
H2 C3 1_555 1_555
C4 C3 1_555 1_555
H3 C4 1_555 1_555
C5 N3 1_555 1_555
H4 C5 1_555 1_555
C6 C2 1_555 1_555
H5 C6 1_555 1_555
C7 C2 1_555 1_555
H6 C7 1_555 1_555
C8 N2 1_555 1_555
H7 C8 1_555 1_555
C9 N4 1_555 1_555
H8 C9 1_555 1_555
C10 C5 1_555 1_555
H9 C10 1_555 1_555
N5 O1 1_555 1_555
O2 N5 1_555 1_555
Ag1D N1D 1_555 1_555
N1D N2D 1_555 1_555
N1A Ag1 1_555 1_555
N2D C1D 1_555 1_555
N3D C1D 1_555 1_555
C1D H1D 1_555 1_555
N4D Ag1D 1_555 1_555
N4A Ag1 1_555 1_555
C2D C1D 1_555 1_555
C3D N1D 1_555 1_555
H2D C3D 1_555 1_555
C4D C3D 1_555 1_555
H3D C4D 1_555 1_555
C5D N3D 1_555 1_555
H4D C5D 1_555 1_555
C6D C7 1_555 1_555
H5D C6D 1_555 1_555
C7D C6 1_555 1_555
H6D C7D 1_555 1_555
C8D N2D 1_555 1_555
H7D C8D 1_555 1_555
C9D N4D 1_555 1_555
H8D C9D 1_555 1_555
C10D C5D 1_555 1_555
H9D C10D 1_555 1_555
O1A N5 1_555 1_555
N3 N4 1_555 1_555
C4 C8 1_555 1_555
C9 C10 1_555 1_555
N3D N4D 1_555 1_555
C2D C6D 1_555 1_555
C2D C7D 1_555 1_555
C4D C8D 1_555 1_555
C9D C10D 1_555 1_555

#END
