
#######################################################################
#
#                 Cambridge Crystallographic Data Centre
#                                CCDC 
#
#######################################################################
#
# If this CIF has been generated from an entry in the Cambridge 
# Structural Database, then it will include bibliographic, chemical, 
# crystal, experimental, refinement or atomic coordinate data resulting 
# from the CCDC's data processing and validation procedures.
#
#######################################################################

data_TADDOT
_symmetry_cell_setting           monoclinic
_symmetry_space_group_name_H-M   'C c'
_symmetry_Int_Tables_number      9
_space_group_name_Hall           'C -2yc'
loop_
_symmetry_equiv_pos_site_id
_symmetry_equiv_pos_as_xyz
1 x,y,z
2 x,-y,1/2+z
3 1/2+x,1/2+y,z
4 1/2+x,1/2-y,1/2+z
_cell_length_a                   25.0502(7)
_cell_length_b                   10.1591(3)
_cell_length_c                   9.9560(3)
_cell_angle_alpha                90
_cell_angle_beta                 91.656(2)
_cell_angle_gamma                90
_cell_volume                     2532.62
loop_
_atom_site_label
_atom_site_type_symbol
_atom_site_fract_x
_atom_site_fract_y
_atom_site_fract_z
Pb1 Pb 0.388747(18) 0.43328(4) 0.43034(3)
Pb2 Pb 0.318260(19) 0.77311(4) 0.26652(3)
Pb3 Pb 0.39416(2) 0.17882(4) 0.12013(4)
Cl1 Cl 0.46076(15) 0.3677(4) 0.1938(4)
Cl2 Cl 0.42197(14) 0.7011(3) 0.3219(4)
S1 S 0.23340(13) 0.0169(3) 0.5259(3)
S2 S 0.18914(13) 0.5288(3) 0.7271(3)
P1 P 0.34009(13) 0.1027(3) 0.4353(3)
P2 P 0.30445(12) 0.5330(3) 0.6417(3)
C1 C 0.1652(5) 0.0270(13) 0.4794(11)
C2 C 0.1430(7) -0.0684(17) 0.3926(15)
H1 H 0.1640 -0.1344 0.3571
C3 C 0.0906(8) -0.062(2) 0.3624(16)
H2 H 0.0752 -0.1242 0.3050
C4 C 0.0595(7) 0.035(2) 0.4146(17)
H3 H 0.0231 0.0373 0.3937
C5 C 0.0820(6) 0.1313(18) 0.4988(16)
H4 H 0.0612 0.1988 0.5322
C6 C 0.1339(6) 0.1247(17) 0.5306(14)
H5 H 0.1491 0.1871 0.5882
C7 C 0.2677(5) 0.1227(12) 0.4151(12)
H6 H 0.2582 0.2134 0.4333
H7 H 0.2568 0.1029 0.3231
C8 C 0.1274(5) 0.5752(13) 0.6508(13)
C9 C 0.1032(7) 0.6932(16) 0.6867(16)
H8 H 0.1196 0.7487 0.7498
C10 C 0.0553(7) 0.726(2) 0.628(2)
H9 H 0.0379 0.8020 0.6545
C11 C 0.0318(7) 0.647(2) 0.528(2)
H10 H -0.0001 0.6725 0.4855
C12 C 0.0555(7) 0.532(2) 0.492(2)
H11 H 0.0397 0.4774 0.4267
C13 C 0.1033(7) 0.4973(19) 0.5540(16)
H12 H 0.1197 0.4191 0.5297
C14 C 0.2351(5) 0.5833(12) 0.6124(12)
H13 H 0.2339 0.6787 0.6107
H14 H 0.2236 0.5526 0.5240
O1 O 0.3551(4) -0.0296(8) 0.3793(9)
O2 O 0.3549(3) 0.1191(8) 0.5822(7)
O3 O 0.3619(4) 0.2132(8) 0.3473(8)
O4 O 0.2384(4) 0.0731(10) 0.6604(8)
O5 O 0.2511(4) -0.1154(9) 0.5085(11)
O6 O 0.3126(4) 0.3966(7) 0.5812(8)
O7 O 0.3157(4) 0.5283(8) 0.7930(7)
O8 O 0.3371(4) 0.6308(8) 0.5661(8)
O9 O 0.1926(4) 0.3885(9) 0.7355(11)
O10 O 0.1960(4) 0.6042(10) 0.8470(9)
O11 O 0.4584(4) 0.0071(11) 0.2519(12)
Pb1A Pb 0.388747(18) 0.56672(4) 0.93034(3)
Pb2_2 Pb 0.318260(19) -0.22689(4) 0.26652(3)
Pb2A Pb 0.318260(19) 0.22689(4) 0.76652(3)
Pb3A Pb 0.39416(2) 0.82118(4) 0.62013(4)
O1_2 O 0.3551(4) 0.9704(8) 0.3793(9)
O2A O 0.3549(3) 0.8809(8) 0.0822(7)
O4A O 0.2384(4) 0.9269(10) 0.1604(8)
O6A O 0.3126(4) 0.6034(7) 0.0812(8)
O7A O 0.3157(4) 0.4717(8) 0.2930(7)
O8A O 0.3371(4) 0.3692(8) 0.0661(8)
loop_
_geom_bond_atom_site_label_1
_geom_bond_atom_site_label_2
_geom_bond_site_symmetry_1
_geom_bond_site_symmetry_2
Pb1 Cl1 1_555 1_555
Pb2 Cl2 1_555 1_555
Pb3 Cl1 1_555 1_555
Cl2 Pb1 1_555 1_555
S1 C1 1_555 1_555
S2 C8 1_555 1_555
P1 C7 1_555 1_555
P2 C14 1_555 1_555
C1 C2 1_555 1_555
C2 H1 1_555 1_555
C3 C2 1_555 1_555
H2 C3 1_555 1_555
C4 C3 1_555 1_555
H3 C4 1_555 1_555
C5 C4 1_555 1_555
H4 C5 1_555 1_555
C6 C1 1_555 1_555
H5 C6 1_555 1_555
C7 S1 1_555 1_555
H6 C7 1_555 1_555
H7 C7 1_555 1_555
C8 C9 1_555 1_555
C9 H8 1_555 1_555
C10 C9 1_555 1_555
H9 C10 1_555 1_555
C11 C10 1_555 1_555
H10 C11 1_555 1_555
C12 C11 1_555 1_555
H11 C12 1_555 1_555
C13 C8 1_555 1_555
H12 C13 1_555 1_555
C14 S2 1_555 1_555
H13 C14 1_555 1_555
H14 C14 1_555 1_555
O1 P1 1_555 1_555
O2 P1 1_555 1_555
O3 Pb1 1_555 1_555
O4 S1 1_555 1_555
O5 S1 1_555 1_555
O6 Pb1 1_555 1_555
O7 P2 1_555 1_555
O8 Pb1 1_555 1_555
O9 S2 1_555 1_555
O10 S2 1_555 1_555
O11 Pb3 1_555 1_555
Pb1A O7 1_555 1_555
Pb2_2 O1 1_555 1_555
Pb2A O2 1_555 1_555
Pb3A O8 1_555 1_555
O1_2 Pb2 1_555 1_555
O2A Pb2 1_555 1_555
O4A Pb2 1_555 1_555
O6A Pb2 1_555 1_555
O7A Pb1 1_555 1_555
O8A Pb3 1_555 1_555
Pb3 O3 1_555 1_555
P1 O3 1_555 1_555
P2 O6 1_555 1_555
P2 O8 1_555 1_555
C5 C6 1_555 1_555
C12 C13 1_555 1_555
O4 Pb2A 1_555 1_555
O6 Pb2A 1_555 1_555

#END
