
#######################################################################
#
#                 Cambridge Crystallographic Data Centre
#                                CCDC 
#
#######################################################################
#
# If this CIF has been generated from an entry in the Cambridge 
# Structural Database, then it will include bibliographic, chemical, 
# crystal, experimental, refinement or atomic coordinate data resulting 
# from the CCDC's data processing and validation procedures.
#
#######################################################################

data_TADDEJ01
_symmetry_cell_setting           monoclinic
_symmetry_space_group_name_H-M   'P 21/n'
_symmetry_Int_Tables_number      14
_space_group_name_Hall           '-P 2yn'
loop_
_symmetry_equiv_pos_site_id
_symmetry_equiv_pos_as_xyz
1 x,y,z
2 1/2-x,1/2+y,1/2-z
3 -x,-y,-z
4 1/2+x,1/2-y,1/2+z
_cell_length_a                   9.155(5)
_cell_length_b                   20.337(5)
_cell_length_c                   11.698(5)
_cell_angle_alpha                90
_cell_angle_beta                 91.470(5)
_cell_angle_gamma                90
_cell_volume                     2177.28
loop_
_atom_site_label
_atom_site_type_symbol
_atom_site_fract_x
_atom_site_fract_y
_atom_site_fract_z
Ag1 Ag 0.70967(10) 0.15870(5) 0.47078(7)
N1 N 0.8360(9) 0.1091(4) 0.7167(6)
C1 C 0.9743(9) 0.1095(5) 0.6602(7)
H1 H 1.0486 0.0994 0.7195
N2 N 0.9295(9) 0.2018(4) 0.5318(7)
N3 N 0.7095(8) 0.1181(4) 0.6565(6)
N4 N 0.7499(9) 0.1128(5) 0.2864(7)
N5 N 1.0105(8) 0.1732(4) 0.6170(7)
C2 C 0.4977(10) 0.0776(5) 0.2909(7)
H2 H 0.4320 0.0533 0.2386
C3 C 1.0385(10) 0.0618(5) 0.4656(8)
H3 H 1.0664 0.1035 0.4420
N6 N 0.6381(8) 0.0799(4) 0.2369(6)
C4 C 0.6029(10) -0.0109(5) 0.4188(7)
H4 H 0.6725 -0.0193 0.3641
C5 C 0.3995(9) 0.0494(5) 0.4829(7)
H5 H 0.3300 0.0823 0.4722
N7 N 0.4346(9) 0.1415(4) 0.3042(6)
C6 C 0.9823(10) 0.0534(5) 0.5720(8)
N8 N 0.4899(9) 0.1841(4) 0.3840(6)
C7 C 0.5035(9) 0.0395(5) 0.4010(7)
C8 C 0.9459(10) -0.0089(5) 0.6068(8)
H6 H 0.9104 -0.0155 0.6797
C9 C 0.8591(12) 0.1027(6) 0.2166(9)
H7 H 0.9519 0.1205 0.2279
C10 C 0.6061(11) 0.1125(5) 0.7334(9)
H8 H 0.5064 0.1164 0.7175
C11 C 0.2931(12) 0.2267(6) 0.2982(9)
H9 H 0.2183 0.2560 0.2797
C12 C 1.1237(11) 0.2129(6) 0.6510(9)
H10 H 1.1938 0.2040 0.7078
C13 C 1.1142(13) 0.2681(6) 0.5860(9)
H11 H 1.1758 0.3044 0.5890
C14 C 0.8148(13) 0.0984(6) 0.8285(8)
H12 H 0.8862 0.0915 0.8852
C15 C 0.9948(12) 0.2590(5) 0.5149(10)
H13 H 0.9630 0.2896 0.4607
C16 C 0.3136(10) 0.1668(6) 0.2503(8)
H14 H 0.2569 0.1471 0.1928
C17 C 0.8208(14) 0.0632(7) 0.1259(9)
H15 H 0.8799 0.0496 0.0669
C18 C 0.4024(13) 0.2362(6) 0.3785(9)
H16 H 0.4138 0.2739 0.4230
C19 C 0.6680(14) 0.0998(6) 0.8416(9)
H17 H 0.6184 0.0936 0.9091
C20 C 0.6786(15) 0.0483(6) 0.1405(8)
H18 H 0.6200 0.0216 0.0937
Ag1B Ag 1.29033(10) -0.15870(5) 0.52922(7)
Ag1B_2 Ag 0.29033(10) -0.15870(5) 0.52922(7)
N1B N 1.1640(9) -0.1091(4) 0.2833(6)
C1B C 1.0257(9) -0.1095(5) 0.3398(7)
H1B H 0.9514 -0.0994 0.2805
N2B N 1.0705(9) -0.2018(4) 0.4682(7)
N3B N 1.2905(8) -0.1181(4) 0.3435(6)
N4B N 0.2501(9) -0.1128(5) 0.7136(7)
N4B_2 N 1.2501(9) -0.1128(5) 0.7136(7)
N5B N 0.9895(8) -0.1732(4) 0.3830(7)
C2B C 0.5023(10) -0.0776(5) 0.7091(7)
H2B H 0.5680 -0.0533 0.7614
C3B C 0.9615(10) -0.0618(5) 0.5344(8)
H3B H 0.9336 -0.1035 0.5580
N6B N 0.3619(8) -0.0799(4) 0.7631(6)
C4B C 0.3971(10) 0.0109(5) 0.5812(7)
H4B H 0.3275 0.0193 0.6359
C5B C 0.6005(9) -0.0494(5) 0.5171(7)
H5B H 0.6700 -0.0823 0.5278
N7B N 0.5654(9) -0.1415(4) 0.6958(6)
C6B C 1.0177(10) -0.0534(5) 0.4280(8)
N8B N 0.5101(9) -0.1841(4) 0.6160(6)
N8B_2 N 1.5101(9) -0.1841(4) 0.6160(6)
C7B C 0.4965(9) -0.0395(5) 0.5990(7)
C8B C 1.0541(10) 0.0089(5) 0.3932(8)
H6B H 1.0896 0.0155 0.3203
C9B C 0.1409(12) -0.1027(6) 0.7834(9)
H7B H 0.0481 -0.1205 0.7721
C10B C 1.3939(11) -0.1125(5) 0.2666(9)
H8B H 1.4936 -0.1164 0.2825
C11B C 0.7069(12) -0.2267(6) 0.7018(9)
H9B H 0.7817 -0.2560 0.7203
C12B C 0.8763(11) -0.2129(6) 0.3490(9)
H10B H 0.8062 -0.2040 0.2922
C13B C 0.8858(13) -0.2681(6) 0.4140(9)
H11B H 0.8242 -0.3044 0.4110
C14B C 1.1852(13) -0.0984(6) 0.1715(8)
H12B H 1.1138 -0.0915 0.1148
C15B C 1.0052(12) -0.2590(5) 0.4851(10)
H13B H 1.0370 -0.2896 0.5393
C16B C 0.6864(10) -0.1668(6) 0.7497(8)
H14B H 0.7431 -0.1471 0.8072
C17B C 0.1792(14) -0.0632(7) 0.8741(9)
H15B H 0.1201 -0.0496 0.9331
C18B C 0.5976(13) -0.2362(6) 0.6215(9)
H16B H 0.5862 -0.2739 0.5770
C19B C 1.3320(14) -0.0998(6) 0.1584(9)
H17B H 1.3816 -0.0936 0.0909
C20B C 0.3214(15) -0.0483(6) 0.8595(8)
H18B H 0.3800 -0.0216 0.9063
O1 O 0.8459(12) 0.4182(5) 0.5125(8)
N9 N 0.7401(12) 0.3989(6) 0.4536(11)
O2 O 0.7613(13) 0.3858(6) 0.3536(9)
O3 O 0.6247(12) 0.3933(7) 0.4959(13)
loop_
_geom_bond_atom_site_label_1
_geom_bond_atom_site_label_2
_geom_bond_site_symmetry_1
_geom_bond_site_symmetry_2
Ag1 N2 1_555 1_555
N1 C1 1_555 1_555
C1 H1 1_555 1_555
N2 N5 1_555 1_555
N3 Ag1 1_555 1_555
N4 Ag1 1_555 1_555
N5 C1 1_555 1_555
C2 H2 1_555 1_555
C3 H3 1_555 1_555
N6 N4 1_555 1_555
C4 H4 1_555 1_555
C5 H5 1_555 1_555
N7 C2 1_555 1_555
C6 C1 1_555 1_555
N8 Ag1 1_555 1_555
C7 C2 1_555 1_555
C8 C6 1_555 1_555
H6 C8 1_555 1_555
C9 N4 1_555 1_555
H7 C9 1_555 1_555
C10 N3 1_555 1_555
H8 C10 1_555 1_555
C11 H9 1_555 1_555
C12 N5 1_555 1_555
H10 C12 1_555 1_555
C13 C12 1_555 1_555
H11 C13 1_555 1_555
C14 N1 1_555 1_555
H12 C14 1_555 1_555
O1 N9 1_555 1_555
N9 O2 1_555 1_555
C15 N2 1_555 1_555
H13 C15 1_555 1_555
C16 N7 1_555 1_555
H14 C16 1_555 1_555
C17 C9 1_555 1_555
H15 C17 1_555 1_555
C18 N8 1_555 1_555
H16 C18 1_555 1_555
C19 C10 1_555 1_555
H17 C19 1_555 1_555
C20 N6 1_555 1_555
H18 C20 1_555 1_555
O3 N9 1_555 1_555
Ag1B N2B 1_555 1_555
Ag1B_2 N4B 1_555 1_555
N1B C1B 1_555 1_555
C1B H1B 1_555 1_555
N2B N5B 1_555 1_555
N3B Ag1B 1_555 1_555
N4B N6B 1_555 1_555
N4B_2 Ag1B 1_555 1_555
N5B C1B 1_555 1_555
C2B H2B 1_555 1_555
C3B C8 1_555 1_555
H3B C3B 1_555 1_555
N6B C2B 1_555 1_555
C4B C5 1_555 1_555
H4B C4B 1_555 1_555
C5B C4 1_555 1_555
H5B C5B 1_555 1_555
N7B C2B 1_555 1_555
C6B C1B 1_555 1_555
N8B Ag1B_2 1_555 1_555
N8B_2 Ag1B 1_555 1_555
C7B C2B 1_555 1_555
C8B C3 1_555 1_555
H6B C8B 1_555 1_555
C9B N4B 1_555 1_555
H7B C9B 1_555 1_555
C10B N3B 1_555 1_555
H8B C10B 1_555 1_555
C11B H9B 1_555 1_555
C12B N5B 1_555 1_555
H10B C12B 1_555 1_555
C13B C12B 1_555 1_555
H11B C13B 1_555 1_555
C14B N1B 1_555 1_555
H12B C14B 1_555 1_555
C15B N2B 1_555 1_555
H13B C15B 1_555 1_555
C16B N7B 1_555 1_555
H14B C16B 1_555 1_555
C17B C9B 1_555 1_555
H15B C17B 1_555 1_555
C18B N8B 1_555 1_555
H16B C18B 1_555 1_555
C19B C10B 1_555 1_555
H17B C19B 1_555 1_555
C20B N6B 1_555 1_555
H18B C20B 1_555 1_555
N1 N3 1_555 1_555
C2 N6 1_555 1_555
C3 C6 1_555 1_555
C4 C7 1_555 1_555
C5 C7 1_555 1_555
N7 N8 1_555 1_555
C11 C16 1_555 1_555
C11 C18 1_555 1_555
C13 C15 1_555 1_555
C14 C19 1_555 1_555
C17 C20 1_555 1_555
N1B N3B 1_555 1_555
C3B C6B 1_555 1_555
C4B C7B 1_555 1_555
C5B C7B 1_555 1_555
N7B N8B 1_555 1_555
C6B C8B 1_555 1_555
C11B C16B 1_555 1_555
C11B C18B 1_555 1_555
C13B C15B 1_555 1_555
C14B C19B 1_555 1_555
C17B C20B 1_555 1_555

#END
