
#######################################################################
#
#                 Cambridge Crystallographic Data Centre
#                                CCDC 
#
#######################################################################
#
# If this CIF has been generated from an entry in the Cambridge 
# Structural Database, then it will include bibliographic, chemical, 
# crystal, experimental, refinement or atomic coordinate data resulting 
# from the CCDC's data processing and validation procedures.
#
#######################################################################

data_TADGOW
_symmetry_cell_setting           triclinic
_symmetry_space_group_name_H-M   'P -1'
_symmetry_Int_Tables_number      2
_space_group_name_Hall           '-P 1'
loop_
_symmetry_equiv_pos_site_id
_symmetry_equiv_pos_as_xyz
1 x,y,z
2 -x,-y,-z
_cell_length_a                   8.7487(2)
_cell_length_b                   10.2172(2)
_cell_length_c                   11.8831(2)
_cell_angle_alpha                88.3680(10)
_cell_angle_beta                 69.4470(10)
_cell_angle_gamma                86.8800(10)
_cell_volume                     993.062
loop_
_atom_site_label
_atom_site_type_symbol
_atom_site_fract_x
_atom_site_fract_y
_atom_site_fract_z
Cu1 Cu 0.5000 0.5000 0.5000
Cu2 Cu -0.37813(3) 0.246020(19) 1.240800(19)
O1 O -0.35208(16) 0.35340(12) 1.09684(12)
O2 O -0.1857(2) 0.18516(14) 1.01208(15)
O3 O 0.29031(15) 0.47347(13) 0.62839(12)
O4 O 0.20456(16) 0.66279(12) 0.72849(13)
O5 O -0.40992(15) 0.62500(12) 0.64067(12)
O6 O -0.38169(15) 0.41399(12) 0.59894(12)
N1 N -0.54651(19) 0.13427(15) 1.22079(15)
N2 N -0.3424(2) 0.08613(15) 1.33234(15)
C1 C -0.2457(2) 0.29608(17) 1.00725(16)
C2 C -0.1916(2) 0.37528(16) 0.89143(15)
C3 C -0.0308(2) 0.41694(16) 0.84693(16)
C4 C 0.0932(2) 0.37467(19) 0.90420(18)
H1 H 0.1695 0.4422 0.8929
H2 H 0.1507 0.2953 0.8675
H3 H 0.0384 0.3596 0.9886
C5 C 0.01256(19) 0.50170(16) 0.74704(15)
C6 C 0.1845(2) 0.55032(16) 0.69765(15)
C7 C -0.0961(2) 0.53999(16) 0.68817(15)
C8 C -0.0466(2) 0.63566(18) 0.58335(16)
H4 H 0.0705 0.6342 0.5479
H5 H -0.0873 0.7224 0.6113
H6 H -0.0914 0.6111 0.5244
C9 C -0.2503(2) 0.48592(16) 0.72852(15)
C10 C -0.35687(19) 0.51132(16) 0.65350(15)
C11 C -0.3017(2) 0.40594(16) 0.83193(16)
C12 C -0.4728(2) 0.35736(18) 0.88038(17)
H7 H -0.5388 0.4111 0.9463
H8 H -0.4694 0.2682 0.9076
H9 H -0.5191 0.3618 0.8180
C13 C -0.6544(3) 0.1733(2) 1.1682(2)
H10 H -0.6488 0.2568 1.1342
C14 C -0.7736(3) 0.0928(3) 1.1633(2)
H11 H -0.8467 0.1212 1.1257
C15 C -0.7827(3) -0.0312(2) 1.2152(2)
H12 H -0.8617 -0.0871 1.2125
C16 C -0.6735(3) -0.0709(2) 1.2710(2)
H13 H -0.6793 -0.1531 1.3076
C17 C -0.5550(2) 0.01382(18) 1.27154(18)
C18 C -0.4305(2) -0.01653(18) 1.32715(18)
C19 C -0.4010(3) -0.1397(2) 1.3696(2)
H14 H -0.4621 -0.2096 1.3649
C20 C -0.2804(3) -0.1573(2) 1.4187(2)
H15 H -0.2592 -0.2393 1.4477
C21 C -0.1914(3) -0.0523(2) 1.4246(2)
H16 H -0.1097 -0.0621 1.4578
C22 C -0.2256(3) 0.0680(2) 1.3802(2)
H17 H -0.1651 0.1389 1.3838
Cu1_2 Cu -0.5000 0.5000 0.5000
Cu1_3 Cu 1.5000 0.5000 0.5000
Cu2A Cu 1.37813(3) 0.753980(19) -0.240800(19)
Cu2A_2 Cu 0.37813(3) 0.753980(19) 0.759200(19)
Cu2A_3 Cu -0.62187(3) 0.753980(19) 0.759200(19)
Cu2_2 Cu 0.62187(3) 0.246020(19) 0.240800(19)
Cu2_3 Cu 1.62187(3) 0.246020(19) 0.240800(19)
O1A O 1.35208(16) 0.64660(12) -0.09684(12)
O2A O 1.1857(2) 0.81484(14) -0.01208(15)
O3A O 0.70969(15) 0.52653(13) 0.37161(12)
O4A O 0.79544(16) 0.33721(12) 0.27151(13)
O4A_2 O -0.20456(16) 0.33721(12) 1.27151(13)
O4_2 O 1.20456(16) 0.66279(12) -0.27151(13)
O5A O 1.40992(15) 0.37500(12) 0.35933(12)
O5A_2 O -0.59008(15) 0.37500(12) 1.35933(12)
O5_2 O 1.59008(15) 0.62500(12) -0.35933(12)
O6A O 1.38169(15) 0.58601(12) 0.40106(12)
O6_2 O 0.61831(15) 0.41399(12) 0.59894(12)
O6A_2 O 0.38169(15) 0.58601(12) 0.40106(12)
N1A N 1.54651(19) 0.86573(15) -0.22079(15)
N2A N 1.3424(2) 0.91387(15) -0.33234(15)
C1A C 1.2457(2) 0.70392(17) -0.00725(16)
C2A C 1.1916(2) 0.62472(16) 0.10857(15)
C3A C 1.0308(2) 0.58306(16) 0.15307(16)
C4A C 0.9068(2) 0.62533(19) 0.09580(18)
H1A H 0.8305 0.5578 0.1071
H2A H 0.8493 0.7047 0.1325
H3A H 0.9616 0.6404 0.0114
C5A C 0.98744(19) 0.49830(16) 0.25296(15)
C6A C 0.8155(2) 0.44968(16) 0.30235(15)
C7A C 1.0961(2) 0.46001(16) 0.31183(15)
C8A C 1.0466(2) 0.36434(18) 0.41665(16)
H4A H 0.9295 0.3658 0.4521
H5A H 1.0873 0.2776 0.3887
H6A H 1.0914 0.3889 0.4756
C9A C 1.2503(2) 0.51408(16) 0.27148(15)
C10A C 1.35687(19) 0.48868(16) 0.34650(15)
C11A C 1.3017(2) 0.59406(16) 0.16807(16)
C12A C 1.4728(2) 0.64264(18) 0.11962(17)
H7A H 1.5388 0.5889 0.0537
H8A H 1.4694 0.7318 0.0924
H9A H 1.5191 0.6382 0.1820
C13A C 1.6544(3) 0.8267(2) -0.1682(2)
H10A H 1.6488 0.7432 -0.1342
C14A C 1.7736(3) 0.9072(3) -0.1633(2)
H11A H 1.8467 0.8788 -0.1257
C15A C 1.7827(3) 1.0312(2) -0.2152(2)
H12A H 1.8617 1.0871 -0.2125
C16A C 1.6735(3) 1.0709(2) -0.2710(2)
H13A H 1.6793 1.1531 -0.3076
C17A C 1.5550(2) 0.98618(18) -0.27154(18)
C18A C 1.4305(2) 1.01653(18) -0.32715(18)
C19A C 1.4010(3) 1.1397(2) -0.3696(2)
H14A H 1.4621 1.2096 -0.3649
C20A C 1.2804(3) 1.1573(2) -0.4187(2)
H15A H 1.2592 1.2393 -0.4477
C21A C 1.1914(3) 1.0523(2) -0.4246(2)
H16A H 1.1097 1.0621 -0.4578
C22A C 1.2256(3) 0.9320(2) -0.3802(2)
H17A H 1.1651 0.8611 -0.3838
O7 O 0.8960(5) 0.9539(4) 0.1105(4)
loop_
_geom_bond_atom_site_label_1
_geom_bond_atom_site_label_2
_geom_bond_site_symmetry_1
_geom_bond_site_symmetry_2
Cu1 O3 1_555 1_555
Cu2 O1 1_555 1_555
O1 C1 1_555 1_555
O2 C1 1_555 1_555
O3 C6 1_555 1_555
O4 C6 1_555 1_555
O5 C10 1_555 1_555
O6 C10 1_555 1_555
N1 Cu2 1_555 1_555
N2 Cu2 1_555 1_555
C1 C2 1_555 1_555
C2 C3 1_555 1_555
C3 C4 1_555 1_555
C4 H1 1_555 1_555
H2 C4 1_555 1_555
H3 C4 1_555 1_555
C5 C3 1_555 1_555
C6 C5 1_555 1_555
C7 C5 1_555 1_555
C8 C7 1_555 1_555
H4 C8 1_555 1_555
H5 C8 1_555 1_555
H6 C8 1_555 1_555
C9 C7 1_555 1_555
C10 C9 1_555 1_555
C11 C2 1_555 1_555
C12 C11 1_555 1_555
H7 C12 1_555 1_555
H8 C12 1_555 1_555
H9 C12 1_555 1_555
C13 N1 1_555 1_555
H10 C13 1_555 1_555
C14 C13 1_555 1_555
H11 C14 1_555 1_555
C15 C14 1_555 1_555
H12 C15 1_555 1_555
C16 C15 1_555 1_555
H13 C16 1_555 1_555
C17 N1 1_555 1_555
C18 N2 1_555 1_555
C19 C18 1_555 1_555
H14 C19 1_555 1_555
C20 C19 1_555 1_555
H15 C20 1_555 1_555
C21 C20 1_555 1_555
H16 C21 1_555 1_555
C22 N2 1_555 1_555
H17 C22 1_555 1_555
Cu1_2 O6 1_555 1_555
Cu1_3 O6A 1_555 1_555
Cu2A O1A 1_555 1_555
Cu2A_2 O4 1_555 1_555
Cu2A_3 O5 1_555 1_555
Cu2_2 O4A 1_555 1_555
Cu2_3 O5A 1_555 1_555
O1A C1A 1_555 1_555
O2A C1A 1_555 1_555
O3A Cu1 1_555 1_555
O4A C6A 1_555 1_555
O4A_2 Cu2 1_555 1_555
O4_2 Cu2A 1_555 1_555
O5A C10A 1_555 1_555
O5A_2 Cu2 1_555 1_555
O5_2 Cu2A 1_555 1_555
O6A C10A 1_555 1_555
O6_2 Cu1 1_555 1_555
O6A_2 Cu1 1_555 1_555
N1A Cu2A 1_555 1_555
N2A Cu2A 1_555 1_555
C1A C2A 1_555 1_555
C2A C3A 1_555 1_555
C3A C4A 1_555 1_555
C4A H1A 1_555 1_555
H2A C4A 1_555 1_555
H3A C4A 1_555 1_555
C5A C3A 1_555 1_555
C6A O3A 1_555 1_555
C7A C5A 1_555 1_555
C8A C7A 1_555 1_555
H4A C8A 1_555 1_555
H5A C8A 1_555 1_555
H6A C8A 1_555 1_555
C9A C7A 1_555 1_555
C10A C9A 1_555 1_555
C11A C2A 1_555 1_555
C12A C11A 1_555 1_555
H7A C12A 1_555 1_555
H8A C12A 1_555 1_555
H9A C12A 1_555 1_555
C13A N1A 1_555 1_555
H10A C13A 1_555 1_555
C14A C13A 1_555 1_555
H11A C14A 1_555 1_555
C15A C14A 1_555 1_555
H12A C15A 1_555 1_555
C16A C15A 1_555 1_555
H13A C16A 1_555 1_555
C17A N1A 1_555 1_555
C18A N2A 1_555 1_555
C19A C18A 1_555 1_555
H14A C19A 1_555 1_555
C20A C19A 1_555 1_555
H15A C20A 1_555 1_555
C21A C20A 1_555 1_555
H16A C21A 1_555 1_555
C22A N2A 1_555 1_555
H17A C22A 1_555 1_555
C9 C11 1_555 1_555
C16 C17 1_555 1_555
C17 C18 1_555 1_555
C21 C22 1_555 1_555
C5A C6A 1_555 1_555
C9A C11A 1_555 1_555
C16A C17A 1_555 1_555
C17A C18A 1_555 1_555
C21A C22A 1_555 1_555

#END
