
#######################################################################
#
#                 Cambridge Crystallographic Data Centre
#                                CCDC 
#
#######################################################################
#
# If this CIF has been generated from an entry in the Cambridge 
# Structural Database, then it will include bibliographic, chemical, 
# crystal, experimental, refinement or atomic coordinate data resulting 
# from the CCDC's data processing and validation procedures.
#
#######################################################################

data_TADGIQ
_symmetry_cell_setting           monoclinic
_symmetry_space_group_name_H-M   'C 2/c'
_symmetry_Int_Tables_number      15
_space_group_name_Hall           '-C 2yn'
loop_
_symmetry_equiv_pos_site_id
_symmetry_equiv_pos_as_xyz
1 x,y,z
2 -x,y,1/2-z
3 1/2+x,1/2+y,z
4 1/2-x,1/2+y,1/2-z
5 -x,-y,-z
6 x,-y,1/2+z
7 1/2-x,1/2-y,-z
8 1/2+x,1/2-y,1/2+z
_cell_length_a                   16.7343(3)
_cell_length_b                   8.29270(10)
_cell_length_c                   25.2054(4)
_cell_angle_alpha                90
_cell_angle_beta                 99.5090(10)
_cell_angle_gamma                90
_cell_volume                     3449.76
loop_
_atom_site_label
_atom_site_type_symbol
_atom_site_fract_x
_atom_site_fract_y
_atom_site_fract_z
Cd1 Cd 0.5000 0.65523(6) 0.2500
O1 O 0.3811(3) 0.6726(7) 0.1861(2)
O2 O 0.4225(3) 0.4250(8) 0.2038(2)
O3 O 0.2038(4) 0.3578(7) -0.0233(2)
O4 O 0.1411(4) 0.5847(11) -0.0105(2)
O5 O 0.0901(3) 0.1318(6) 0.1835(2)
O6 O 0.0562(3) 0.3764(6) 0.2049(2)
C1 C 0.3713(4) 0.5217(11) 0.1821(2)
C2 C 0.2914(3) 0.4626(9) 0.1502(2)
C3 C 0.2756(3) 0.4798(10) 0.0947(2)
C4 C 0.3402(4) 0.5404(14) 0.0637(3)
H1 H 0.3914 0.5457 0.0874
H2 H 0.3257 0.6458 0.0496
H3 H 0.3443 0.4679 0.0346
C5 C 0.1989(4) 0.4354(10) 0.0673(2)
C6 C 0.1788(4) 0.4628(10) 0.0075(3)
C7 C 0.1402(4) 0.3688(10) 0.0946(3)
C8 C 0.0570(5) 0.3235(15) 0.0640(3)
H4 H 0.0554 0.3431 0.0263
H5 H 0.0164 0.3874 0.0768
H6 H 0.0469 0.2113 0.0697
C9 C 0.1590(4) 0.3517(8) 0.1504(2)
C10 C 0.0971(3) 0.2810(9) 0.1812(2)
C11 C 0.2340(4) 0.3985(9) 0.1788(2)
C12 C 0.2530(4) 0.3830(11) 0.2392(2)
H7 H 0.3071 0.4206 0.2517
H8 H 0.2487 0.2720 0.2492
H9 H 0.2153 0.4464 0.2552
Cd1B Cd 0.0000 0.15523(6) 0.2500
Cd1B_2 Cd 1.0000 0.15523(6) 0.2500
O1A O 0.6189(3) 0.6726(7) 0.3139(2)
O2A O 0.5775(3) 0.4250(8) 0.2962(2)
O3A O 0.7962(4) 0.3578(7) 0.5233(2)
O4A O 0.8589(4) 0.5847(11) 0.5105(2)
O5A O 0.9099(3) 0.1318(6) 0.3165(2)
O5B O 0.5901(3) 0.6318(6) 0.1835(2)
O5C O 0.4099(3) 0.6318(6) 0.3165(2)
O6A O 0.9438(3) 0.3764(6) 0.2951(2)
O6B O 0.5562(3) 0.8764(6) 0.2049(2)
O6C O 0.4438(3) 0.8764(6) 0.2951(2)
C1A C 0.6287(4) 0.5217(11) 0.3179(2)
C2A C 0.7086(3) 0.4626(9) 0.3498(2)
C3A C 0.7244(3) 0.4798(10) 0.4053(2)
C4A C 0.6598(4) 0.5404(14) 0.4363(3)
H1A H 0.6086 0.5457 0.4126
H2A H 0.6743 0.6458 0.4504
H3A H 0.6557 0.4679 0.4654
C5A C 0.8011(4) 0.4354(10) 0.4327(2)
C6A C 0.8212(4) 0.4628(10) 0.4925(3)
C7A C 0.8598(4) 0.3688(10) 0.4054(3)
C8A C 0.9430(5) 0.3235(15) 0.4360(3)
H4A H 0.9446 0.3431 0.4737
H5A H 0.9836 0.3874 0.4232
H6A H 0.9531 0.2113 0.4303
C9A C 0.8410(4) 0.3517(8) 0.3496(2)
C10A C 0.9029(3) 0.2810(9) 0.3188(2)
C11A C 0.7660(4) 0.3985(9) 0.3212(2)
C12A C 0.7470(4) 0.3830(11) 0.2608(2)
H7A H 0.6929 0.4206 0.2483
H8A H 0.7513 0.2720 0.2508
H9A H 0.7847 0.4464 0.2448
C13 C 0.2195(7) 0.9038(16) 0.1087(4)
H10 H 0.1967 0.8076 0.0911
H11 H 0.2015 0.9959 0.0868
H12 H 0.2022 0.9141 0.1430
N1 N 0.3180(8) 0.8934(15) 0.1173(4)
C14 C 0.3832(14) 1.0552(18) 0.1499(6)
H13 H 0.4390 1.0262 0.1509
H14 H 0.3729 1.0707 0.1859
H15 H 0.3719 1.1533 0.1298
O7 O 0.5516(11) 1.2131(14) 0.1741(11)
loop_
_geom_bond_atom_site_label_1
_geom_bond_atom_site_label_2
_geom_bond_site_symmetry_1
_geom_bond_site_symmetry_2
Cd1 O1 1_555 1_555
O1 C1 1_555 1_555
O2 Cd1 1_555 1_555
O3 C6 1_555 1_555
O4 C6 1_555 1_555
O5 C10 1_555 1_555
O6 C10 1_555 1_555
C1 O2 1_555 1_555
C2 C1 1_555 1_555
C3 C2 1_555 1_555
C4 C3 1_555 1_555
H1 C4 1_555 1_555
H2 C4 1_555 1_555
H3 C4 1_555 1_555
C5 C3 1_555 1_555
C6 C5 1_555 1_555
C7 C5 1_555 1_555
C8 C7 1_555 1_555
H4 C8 1_555 1_555
H5 C8 1_555 1_555
H6 C8 1_555 1_555
C9 C7 1_555 1_555
C10 C9 1_555 1_555
C11 C2 1_555 1_555
C12 C11 1_555 1_555
H7 C12 1_555 1_555
H8 C12 1_555 1_555
H9 C12 1_555 1_555
C13 H10 1_555 1_555
H11 C13 1_555 1_555
H12 C13 1_555 1_555
N1 C13 1_555 1_555
C14 N1 1_555 1_555
H13 C14 1_555 1_555
H14 C14 1_555 1_555
H15 C14 1_555 1_555
Cd1B O5 1_555 1_555
Cd1B_2 O5A 1_555 1_555
O1A Cd1 1_555 1_555
O2A Cd1 1_555 1_555
O3A C6A 1_555 1_555
O4A C6A 1_555 1_555
O5A C10A 1_555 1_555
O5B Cd1 1_555 1_555
O5C Cd1 1_555 1_555
O6A Cd1B_2 1_555 1_555
O6B Cd1 1_555 1_555
O6C Cd1 1_555 1_555
C1A O1A 1_555 1_555
C2A C1A 1_555 1_555
C3A C2A 1_555 1_555
C4A C3A 1_555 1_555
H1A C4A 1_555 1_555
H2A C4A 1_555 1_555
H3A C4A 1_555 1_555
C5A C3A 1_555 1_555
C6A C5A 1_555 1_555
C7A C5A 1_555 1_555
C8A C7A 1_555 1_555
H4A C8A 1_555 1_555
H5A C8A 1_555 1_555
H6A C8A 1_555 1_555
C9A C7A 1_555 1_555
C10A O6A 1_555 1_555
C11A C2A 1_555 1_555
C12A C11A 1_555 1_555
H7A C12A 1_555 1_555
H8A C12A 1_555 1_555
H9A C12A 1_555 1_555
O6 Cd1B 1_555 1_555
C9 C11 1_555 1_555
O2A C1A 1_555 1_555
C9A C10A 1_555 1_555
C9A C11A 1_555 1_555

#END
