
#######################################################################
#
#                 Cambridge Crystallographic Data Centre
#                                CCDC 
#
#######################################################################
#
# If this CIF has been generated from an entry in the Cambridge 
# Structural Database, then it will include bibliographic, chemical, 
# crystal, experimental, refinement or atomic coordinate data resulting 
# from the CCDC's data processing and validation procedures.
#
#######################################################################

data_TADHAJ
_symmetry_cell_setting           triclinic
_symmetry_space_group_name_H-M   'P -1'
_symmetry_Int_Tables_number      2
_space_group_name_Hall           '-P 1'
loop_
_symmetry_equiv_pos_site_id
_symmetry_equiv_pos_as_xyz
1 x,y,z
2 -x,-y,-z
_cell_length_a                   9.05490(10)
_cell_length_b                   9.34590(10)
_cell_length_c                   11.54420(10)
_cell_angle_alpha                88.7520(10)
_cell_angle_beta                 69.2450(10)
_cell_angle_gamma                63.2570(10)
_cell_volume                     804.659
loop_
_atom_site_label
_atom_site_type_symbol
_atom_site_fract_x
_atom_site_fract_y
_atom_site_fract_z
Cd1 Cd 0.72039(3) -0.08312(2) 0.15515(2)
Cd2 Cd 0.5000 0.0000 0.5000
O1 O 0.4355(3) 0.0184(3) 0.3243(2)
O2 O 0.4546(3) 0.1310(3) 0.1557(2)
O3 O -0.3103(4) 0.1046(4) 0.4208(3)
O4 O -0.1830(4) 0.0703(3) 0.2126(3)
O5 O -0.2864(4) 0.7393(3) 0.4288(2)
O6 O -0.1534(4) 0.6866(3) 0.2206(2)
O7 O 0.6458(5) -0.2269(4) 0.0425(3)
O8 O 0.9599(6) -0.1540(5) -0.0292(3)
C1 C 0.3610(4) 0.1178(3) 0.2620(3)
C2 C 0.1612(4) 0.2128(3) 0.3049(3)
C3 C 0.0652(4) 0.1274(3) 0.3165(3)
C4 C 0.1527(5) -0.0555(4) 0.3091(4)
H1 H 0.2591 -0.1052 0.2337
H2 H 0.0707 -0.0935 0.3080
H3 H 0.1837 -0.0836 0.3808
C5 C -0.1142(4) 0.2151(4) 0.3290(3)
C6 C -0.2122(4) 0.1226(4) 0.3227(3)
C7 C -0.1982(4) 0.3834(3) 0.3330(3)
C8 C -0.3852(4) 0.4723(4) 0.3335(4)
H4 H -0.4436 0.5820 0.3760
H5 H -0.4525 0.4183 0.3762
H6 H -0.3784 0.4730 0.2486
C9 C -0.1000(4) 0.4655(3) 0.3287(3)
C10 C -0.1882(4) 0.6463(3) 0.3277(3)
C11 C 0.0794(4) 0.3830(3) 0.3148(3)
C12 C 0.1799(5) 0.4753(4) 0.3151(4)
H7 H 0.1919 0.5283 0.2428
H8 H 0.2967 0.4011 0.3129
H9 H 0.1149 0.5551 0.3899
Cd1A Cd 0.27961(3) 0.08312(2) 0.84485(2)
Cd1_2 Cd -0.27961(3) -0.08312(2) 0.15515(2)
Cd1_3 Cd -0.27961(3) 0.91688(2) 0.15515(2)
Cd1A_2 Cd 1.27961(3) 0.08312(2) 0.84485(2)
Cd1A_3 Cd 1.27961(3) -0.91688(2) 0.84485(2)
Cd2_2 Cd -0.5000 0.0000 0.5000
Cd2_3 Cd -0.5000 1.0000 0.5000
Cd2_4 Cd 1.5000 0.0000 0.5000
Cd2_5 Cd 1.5000 -1.0000 0.5000
O1A O 0.5645(3) -0.0184(3) 0.6757(2)
O2A O 0.5454(3) -0.1310(3) 0.8443(2)
O3A O 1.3103(4) -0.1046(4) 0.5792(3)
O3_2 O 0.6897(4) 0.1046(4) 0.4208(3)
O3A_2 O 0.3103(4) -0.1046(4) 0.5792(3)
O4A O 1.1830(4) -0.0703(3) 0.7874(3)
O4_2 O 0.8170(4) 0.0703(3) 0.2126(3)
O4A_2 O 0.1830(4) -0.0703(3) 0.7874(3)
O5A O 1.2864(4) -0.7393(3) 0.5712(2)
O5_2 O 0.7136(4) -0.2607(3) 0.4288(2)
O5A_2 O 0.2864(4) 0.2607(3) 0.5712(2)
O6A O 1.1534(4) -0.6866(3) 0.7794(2)
O6_2 O 0.8466(4) -0.3134(3) 0.2206(2)
O6A_2 O 0.1534(4) 0.3134(3) 0.7794(2)
O7A O 0.3542(5) 0.2269(4) 0.9575(3)
O8A O 0.0401(6) 0.1540(5) 1.0292(3)
C1A C 0.6390(4) -0.1178(3) 0.7380(3)
C2A C 0.8388(4) -0.2128(3) 0.6951(3)
C3A C 0.9348(4) -0.1274(3) 0.6835(3)
C4A C 0.8473(5) 0.0555(4) 0.6909(4)
H1A H 0.7409 0.1052 0.7663
H2A H 0.9293 0.0935 0.6920
H3A H 0.8163 0.0836 0.6192
C5A C 1.1142(4) -0.2151(4) 0.6710(3)
C6A C 1.2122(4) -0.1226(4) 0.6773(3)
C7A C 1.1982(4) -0.3834(3) 0.6670(3)
C8A C 1.3852(4) -0.4723(4) 0.6665(4)
H4A H 1.4436 -0.5820 0.6240
H5A H 1.4525 -0.4183 0.6238
H6A H 1.3784 -0.4730 0.7514
C9A C 1.1000(4) -0.4655(3) 0.6713(3)
C10A C 1.1882(4) -0.6463(3) 0.6723(3)
C11A C 0.9206(4) -0.3830(3) 0.6852(3)
C12A C 0.8201(5) -0.4753(4) 0.6849(4)
H7A H 0.8081 -0.5283 0.7572
H8A H 0.7033 -0.4011 0.6871
H9A H 0.8851 -0.5551 0.6101
O9 O 0.8996(14) 0.4748(10) 0.0140(7)
loop_
_geom_bond_atom_site_label_1
_geom_bond_atom_site_label_2
_geom_bond_site_symmetry_1
_geom_bond_site_symmetry_2
Cd1 O1 1_555 1_555
Cd2 O1 1_555 1_555
O1 C1 1_555 1_555
O2 Cd1 1_555 1_555
O3 C6 1_555 1_555
O4 C6 1_555 1_555
O5 C10 1_555 1_555
O6 C10 1_555 1_555
O7 Cd1 1_555 1_555
O8 Cd1 1_555 1_555
C1 O2 1_555 1_555
C2 C1 1_555 1_555
C3 C2 1_555 1_555
C4 C3 1_555 1_555
H1 C4 1_555 1_555
H2 C4 1_555 1_555
H3 C4 1_555 1_555
C5 C3 1_555 1_555
C6 C5 1_555 1_555
C7 C5 1_555 1_555
C8 C7 1_555 1_555
H4 C8 1_555 1_555
H5 C8 1_555 1_555
H6 C8 1_555 1_555
C9 C7 1_555 1_555
C10 C9 1_555 1_555
C11 C2 1_555 1_555
C12 C11 1_555 1_555
H7 C12 1_555 1_555
H8 C12 1_555 1_555
H9 C12 1_555 1_555
Cd1A O1A 1_555 1_555
Cd1_2 O4 1_555 1_555
Cd1_3 O6 1_555 1_555
Cd1A_2 O4A 1_555 1_555
Cd1A_3 O6A 1_555 1_555
Cd2_2 O3 1_555 1_555
Cd2_3 O5 1_555 1_555
Cd2_4 O3A 1_555 1_555
Cd2_5 O5A 1_555 1_555
O1A Cd2 1_555 1_555
O2A Cd1A 1_555 1_555
O3A C6A 1_555 1_555
O3_2 Cd2 1_555 1_555
O3A_2 Cd2 1_555 1_555
O4A C6A 1_555 1_555
O4_2 Cd1 1_555 1_555
O4A_2 Cd1A 1_555 1_555
O5A C10A 1_555 1_555
O5_2 Cd2 1_555 1_555
O5A_2 Cd2 1_555 1_555
O6A C10A 1_555 1_555
O6_2 Cd1 1_555 1_555
O6A_2 Cd1A 1_555 1_555
O7A Cd1A 1_555 1_555
O8A Cd1A 1_555 1_555
C1A O1A 1_555 1_555
C2A C1A 1_555 1_555
C3A C2A 1_555 1_555
C4A C3A 1_555 1_555
H1A C4A 1_555 1_555
H2A C4A 1_555 1_555
H3A C4A 1_555 1_555
C5A C3A 1_555 1_555
C6A C5A 1_555 1_555
C7A C5A 1_555 1_555
C8A C7A 1_555 1_555
H4A C8A 1_555 1_555
H5A C8A 1_555 1_555
H6A C8A 1_555 1_555
C9A C7A 1_555 1_555
C10A C9A 1_555 1_555
C11A C2A 1_555 1_555
C12A C11A 1_555 1_555
H7A C12A 1_555 1_555
H8A C12A 1_555 1_555
H9A C12A 1_555 1_555
C9 C11 1_555 1_555
O2A C1A 1_555 1_555
C9A C11A 1_555 1_555

#END
