
#######################################################################
#
#                 Cambridge Crystallographic Data Centre
#                                CCDC 
#
#######################################################################
#
# If this CIF has been generated from an entry in the Cambridge 
# Structural Database, then it will include bibliographic, chemical, 
# crystal, experimental, refinement or atomic coordinate data resulting 
# from the CCDC's data processing and validation procedures.
#
#######################################################################

data_TADJEO
_symmetry_cell_setting           triclinic
_symmetry_space_group_name_H-M   'P -1'
_symmetry_Int_Tables_number      2
_space_group_name_Hall           '-P 1'
loop_
_symmetry_equiv_pos_site_id
_symmetry_equiv_pos_as_xyz
1 x,y,z
2 -x,-y,-z
_cell_length_a                   9.4104(19)
_cell_length_b                   9.809(2)
_cell_length_c                   10.525(2)
_cell_angle_alpha                94.04(3)
_cell_angle_beta                 107.87(3)
_cell_angle_gamma                117.87(3)
_cell_volume                     790.549
loop_
_atom_site_label
_atom_site_type_symbol
_atom_site_fract_x
_atom_site_fract_y
_atom_site_fract_z
Sr1 Sr 0.5000 0.5000 0.5000
B1 B 0.7643(7) 0.1258(6) 0.8542(5)
O1 O 0.8039(5) 0.6576(5) 0.5216(4)
N1 N 0.6297(5) 0.1565(4) 0.7544(4)
N2 N 0.6868(5) -0.0561(4) 0.8349(4)
N3 N 0.8100(5) 0.2018(4) 1.0041(4)
N4 N 0.9290(5) 0.1951(4) 0.8200(4)
N5 N 0.5205(5) 0.2882(4) 0.6351(4)
N6 N 0.6054(5) -0.3037(4) 0.7367(4)
N7 N 0.9176(5) 0.2589(5) 1.2357(4)
N8 N 1.0925(5) 0.2433(5) 0.6931(4)
C1 C 1.0950(6) 0.2390(5) 0.9072(5)
H1 H 1.121(6) 0.249(5) 1.000(5)
C2 C 0.5612(6) -0.1599(5) 0.8793(5)
H2 H 0.523(6) -0.125(5) 0.944(5)
C3 C 0.9359(6) 0.1995(5) 0.6929(5)
H3 H 0.834(6) 0.168(5) 0.606(5)
C4 C 0.6636(6) 0.2931(5) 0.7133(5)
H4 H 0.790(7) 0.392(6) 0.744(5)
C5 C 0.3856(7) 0.1405(6) 0.6268(5)
H5 H 0.262(7) 0.105(6) 0.571(5)
C6 C 0.4502(6) 0.0599(5) 0.6998(5)
H6 H 0.3860 -0.0413 0.7111
C7 C 0.8240(6) 0.3438(5) 1.0543(5)
H7 H 0.793(7) 0.397(6) 0.987(5)
C8 C 0.8702(6) 0.1591(6) 1.1205(5)
H8 H 0.866(6) 0.061(6) 1.115(5)
C9 C 0.5143(6) -0.3094(5) 0.8187(5)
H9 H 0.4321 -0.4025 0.8308
C10 C 0.8878(7) 0.3761(6) 1.1931(5)
H10 H 0.9087 0.4647 1.2517
C11 C 1.1928(7) 0.2681(6) 0.8299(5)
H11 H 1.322(7) 0.305(6) 0.861(5)
C12 C 0.7068(6) -0.1504(5) 0.7495(4)
H12 H 0.778(6) -0.109(5) 0.700(5)
H13 H 0.903(7) 0.712(6) 0.589(5)
H14 H 0.855(8) 0.704(8) 0.460(7)
O1A O 0.1961(5) 0.3424(5) 0.4784(4)
H13A H 0.097(7) 0.288(6) 0.411(5)
H14A H 0.145(8) 0.296(8) 0.540(7)
B1A B 0.2357(7) 0.8742(6) 0.1458(5)
N1A N 0.3703(5) 0.8435(4) 0.2456(4)
N2A N 0.3132(5) 1.0561(4) 0.1651(4)
N3A N 0.1900(5) 0.7982(4) -0.0041(4)
N4A N 0.0710(5) 0.8049(4) 0.1800(4)
N5A N 0.4795(5) 0.7118(4) 0.3649(4)
N6A N 0.3946(5) 1.3037(4) 0.2633(4)
N7A N 0.0824(5) 0.7411(5) -0.2357(4)
N8A N -0.0925(5) 0.7567(5) 0.3069(4)
C1A C -0.0950(6) 0.7610(5) 0.0928(5)
H1A H -0.121(6) 0.751(5) 0.000(5)
C2A C 0.4388(6) 1.1599(5) 0.1207(5)
H2A H 0.477(6) 1.125(5) 0.056(5)
C3A C 0.0641(6) 0.8005(5) 0.3071(5)
H3A H 0.166(6) 0.832(5) 0.394(5)
C4A C 0.3364(6) 0.7069(5) 0.2867(5)
H4A H 0.210(7) 0.608(6) 0.256(5)
C5A C 0.6144(7) 0.8595(6) 0.3732(5)
H5A H 0.738(7) 0.895(6) 0.429(5)
C6A C 0.5498(6) 0.9401(5) 0.3002(5)
H6A H 0.6140 1.0413 0.2889
C7A C 0.1760(6) 0.6562(5) -0.0543(5)
H7A H 0.207(7) 0.603(6) 0.013(5)
C8A C 0.1298(6) 0.8409(6) -0.1205(5)
H8A H 0.134(6) 0.939(6) -0.115(5)
C9A C 0.4857(6) 1.3094(5) 0.1813(5)
H9A H 0.5679 1.4025 0.1692
C10A C 0.1122(7) 0.6239(6) -0.1931(5)
H10A H 0.0913 0.5353 -0.2517
C11A C -0.1928(7) 0.7319(6) 0.1701(5)
H11A H -0.322(7) 0.695(6) 0.139(5)
C12A C 0.2932(6) 1.1504(5) 0.2505(4)
H12A H 0.222(6) 1.109(5) 0.300(5)
N6_2 N 0.6054(5) 0.6963(4) 0.7367(4)
N6A_2 N 0.3946(5) 0.3037(4) 0.2633(4)
Sr1_2 Sr 0.5000 -0.5000 0.5000
Sr1_3 Sr 0.5000 1.5000 0.5000
loop_
_geom_bond_atom_site_label_1
_geom_bond_atom_site_label_2
_geom_bond_site_symmetry_1
_geom_bond_site_symmetry_2
Sr1 O1 1_555 1_555
B1 N1 1_555 1_555
O1 H13 1_555 1_555
N1 C4 1_555 1_555
N2 B1 1_555 1_555
N3 B1 1_555 1_555
N4 B1 1_555 1_555
N5 Sr1 1_555 1_555
N6 C9 1_555 1_555
N7 C8 1_555 1_555
N8 C3 1_555 1_555
C1 N4 1_555 1_555
H1 C1 1_555 1_555
C2 N2 1_555 1_555
H2 C2 1_555 1_555
C3 N4 1_555 1_555
H3 C3 1_555 1_555
C4 N5 1_555 1_555
H4 C4 1_555 1_555
C5 N5 1_555 1_555
H5 C5 1_555 1_555
C6 N1 1_555 1_555
H6 C6 1_555 1_555
C7 N3 1_555 1_555
H7 C7 1_555 1_555
C8 N3 1_555 1_555
H8 C8 1_555 1_555
C9 C2 1_555 1_555
H9 C9 1_555 1_555
C10 N7 1_555 1_555
H10 C10 1_555 1_555
C11 N8 1_555 1_555
H11 C11 1_555 1_555
C12 N2 1_555 1_555
H12 C12 1_555 1_555
H14 O1 1_555 1_555
O1A Sr1 1_555 1_555
H13A O1A 1_555 1_555
H14A O1A 1_555 1_555
B1A N1A 1_555 1_555
N1A C4A 1_555 1_555
N2A B1A 1_555 1_555
N3A B1A 1_555 1_555
N4A B1A 1_555 1_555
N5A Sr1 1_555 1_555
N6A C9A 1_555 1_555
N7A C8A 1_555 1_555
N8A C3A 1_555 1_555
C1A N4A 1_555 1_555
H1A C1A 1_555 1_555
C2A N2A 1_555 1_555
H2A C2A 1_555 1_555
C3A N4A 1_555 1_555
H3A C3A 1_555 1_555
C4A N5A 1_555 1_555
H4A C4A 1_555 1_555
C5A N5A 1_555 1_555
H5A C5A 1_555 1_555
C6A N1A 1_555 1_555
H6A C6A 1_555 1_555
C7A N3A 1_555 1_555
H7A C7A 1_555 1_555
C8A N3A 1_555 1_555
H8A C8A 1_555 1_555
C9A C2A 1_555 1_555
H9A C9A 1_555 1_555
C10A N7A 1_555 1_555
H10A C10A 1_555 1_555
C11A N8A 1_555 1_555
H11A C11A 1_555 1_555
C12A N2A 1_555 1_555
H12A C12A 1_555 1_555
N6_2 Sr1 1_555 1_555
N6A_2 Sr1 1_555 1_555
Sr1_2 N6 1_555 1_555
Sr1_3 N6A 1_555 1_555
N6 C12 1_555 1_555
C1 C11 1_555 1_555
C5 C6 1_555 1_555
C7 C10 1_555 1_555
N6A C12A 1_555 1_555
C1A C11A 1_555 1_555
C5A C6A 1_555 1_555
C7A C10A 1_555 1_555

#END
