
#######################################################################
#
#                 Cambridge Crystallographic Data Centre
#                                CCDC 
#
#######################################################################
#
# If this CIF has been generated from an entry in the Cambridge 
# Structural Database, then it will include bibliographic, chemical, 
# crystal, experimental, refinement or atomic coordinate data resulting 
# from the CCDC's data processing and validation procedures.
#
#######################################################################

data_TADJAK
_symmetry_cell_setting           triclinic
_symmetry_space_group_name_H-M   'P -1'
_symmetry_Int_Tables_number      2
_space_group_name_Hall           '-P 1'
loop_
_symmetry_equiv_pos_site_id
_symmetry_equiv_pos_as_xyz
1 x,y,z
2 -x,-y,-z
_cell_length_a                   9.3893(19)
_cell_length_b                   9.6820(19)
_cell_length_c                   10.384(2)
_cell_angle_alpha                93.39(3)
_cell_angle_beta                 108.36(3)
_cell_angle_gamma                118.04(3)
_cell_volume                     766.192
loop_
_atom_site_label
_atom_site_type_symbol
_atom_site_fract_x
_atom_site_fract_y
_atom_site_fract_z
Ca1 Ca 0.5000 0.5000 0.5000
B1 B 0.2333(3) 0.8731(2) 0.1506(2)
O1 O 0.78800(18) 0.63891(17) 0.51869(15)
H1 H 0.888(4) 0.677(3) 0.594(3)
H2 H 0.818(3) 0.674(3) 0.449(3)
N1 N 0.4764(2) 0.70036(18) 0.36855(15)
N2 N -0.1026(2) 0.74617(19) 0.30565(16)
N3 N 0.36644(19) 0.83812(17) 0.25140(15)
N4 N 0.4010(2) 1.30701(18) 0.27921(16)
N5 N 0.0797(2) 0.74546(19) -0.23706(16)
N6 N 0.31184(19) 1.05738(17) 0.17289(15)
N7 N 0.18843(19) 0.79977(17) -0.00260(15)
N8 N 0.06599(19) 0.80058(17) 0.18256(15)
C1 C 0.1820(2) 0.6605(2) -0.0526(2)
H3 H 0.220(3) 0.605(2) 0.009(2)
C2 C 0.2963(2) 1.1509(2) 0.26237(18)
H4 H 0.215(3) 1.107(2) 0.309(2)
C3 C 0.4912(2) 1.3142(2) 0.19468(19)
H5 H 0.575(3) 1.413(3) 0.189(2)
C4 C 0.1168(2) 0.6299(2) -0.1944(2)
H6 H 0.098(3) 0.546(3) -0.260(2)
C5 C 0.3334(2) 0.7001(2) 0.29386(19)
H7 H 0.215(3) 0.615(2) 0.270(2)
C6 C 0.0558(2) 0.7926(2) 0.30977(19)
H8 H 0.152(2) 0.815(2) 0.390(2)
C7 C 0.6117(3) 0.8484(2) 0.3735(2)
H9 H 0.731(3) 0.878(2) 0.420(2)
C8 C 0.1241(2) 0.8436(2) -0.11921(19)
H10 H 0.115(2) 0.939(2) -0.1144(19)
C9 C -0.2002(3) 0.7249(2) 0.1667(2)
H11 H -0.322(3) 0.692(2) 0.134(2)
C10 C 0.4385(2) 1.1636(2) 0.12988(19)
H12 H 0.474(2) 1.125(2) 0.065(2)
C11 C 0.5469(2) 0.9325(2) 0.30297(19)
H13 H 0.602(3) 1.037(3) 0.285(2)
C12 C -0.1002(2) 0.7572(2) 0.0908(2)
H14 H -0.126(3) 0.753(2) -0.006(2)
O1A O 0.21200(18) 0.36109(17) 0.48131(15)
H1A H 0.112(4) 0.323(3) 0.406(3)
H2A H 0.182(3) 0.326(3) 0.551(3)
B1A B 0.7667(3) 0.1269(2) 0.8494(2)
N1A N 0.5236(2) 0.29964(18) 0.63145(15)
N2A N 1.1026(2) 0.25383(19) 0.69435(16)
N3A N 0.63356(19) 0.16188(17) 0.74860(15)
N4A N 0.5990(2) -0.30701(18) 0.72079(16)
N5A N 0.9203(2) 0.25454(19) 1.23706(16)
N6A N 0.68816(19) -0.05738(17) 0.82711(15)
N7A N 0.81157(19) 0.20023(17) 1.00260(15)
N8A N 0.93401(19) 0.19942(17) 0.81744(15)
C1A C 0.8180(2) 0.3395(2) 1.0526(2)
H3A H 0.780(3) 0.395(2) 0.991(2)
C2A C 0.7037(2) -0.1509(2) 0.73763(18)
H4A H 0.785(3) -0.107(2) 0.691(2)
C3A C 0.5088(2) -0.3142(2) 0.80532(19)
H5A H 0.425(3) -0.413(3) 0.811(2)
C4A C 0.8832(2) 0.3701(2) 1.1944(2)
H6A H 0.902(3) 0.454(3) 1.260(2)
C5A C 0.6666(2) 0.2999(2) 0.70614(19)
H7A H 0.785(3) 0.385(2) 0.730(2)
C6A C 0.9442(2) 0.2074(2) 0.69023(19)
H8A H 0.848(2) 0.185(2) 0.610(2)
C7A C 0.3883(3) 0.1516(2) 0.6265(2)
H9A H 0.269(3) 0.122(2) 0.580(2)
C8A C 0.8759(2) 0.1564(2) 1.11921(19)
H10A H 0.885(2) 0.061(2) 1.1144(19)
C9A C 1.2002(3) 0.2751(2) 0.8333(2)
H11A H 1.322(3) 0.308(2) 0.866(2)
C10A C 0.5615(2) -0.1636(2) 0.87012(19)
H12A H 0.526(2) -0.125(2) 0.935(2)
C11A C 0.4531(2) 0.0675(2) 0.69703(19)
H13A H 0.398(3) -0.037(3) 0.715(2)
C12A C 1.1002(2) 0.2428(2) 0.9092(2)
H14A H 1.126(3) 0.247(2) 1.006(2)
N4_2 N 0.4010(2) 0.30701(18) 0.27921(16)
N4A_2 N 0.5990(2) 0.69299(18) 0.72079(16)
Ca1_2 Ca 0.5000 1.5000 0.5000
Ca1_3 Ca 0.5000 -0.5000 0.5000
loop_
_geom_bond_atom_site_label_1
_geom_bond_atom_site_label_2
_geom_bond_site_symmetry_1
_geom_bond_site_symmetry_2
Ca1 O1 1_555 1_555
B1 N3 1_555 1_555
O1 H1 1_555 1_555
H2 O1 1_555 1_555
N1 Ca1 1_555 1_555
N2 C6 1_555 1_555
N3 C5 1_555 1_555
N4 C2 1_555 1_555
N5 C4 1_555 1_555
N6 B1 1_555 1_555
N7 B1 1_555 1_555
N8 B1 1_555 1_555
C1 N7 1_555 1_555
H3 C1 1_555 1_555
C2 N6 1_555 1_555
H4 C2 1_555 1_555
C3 N4 1_555 1_555
H5 C3 1_555 1_555
C4 C1 1_555 1_555
H6 C4 1_555 1_555
C5 N1 1_555 1_555
H7 C5 1_555 1_555
C6 N8 1_555 1_555
H8 C6 1_555 1_555
C7 N1 1_555 1_555
H9 C7 1_555 1_555
C8 N5 1_555 1_555
H10 C8 1_555 1_555
C9 N2 1_555 1_555
H11 C9 1_555 1_555
C10 N6 1_555 1_555
H12 C10 1_555 1_555
C11 N3 1_555 1_555
H13 C11 1_555 1_555
C12 N8 1_555 1_555
H14 C12 1_555 1_555
O1A Ca1 1_555 1_555
H1A O1A 1_555 1_555
H2A O1A 1_555 1_555
B1A N3A 1_555 1_555
N1A Ca1 1_555 1_555
N2A C6A 1_555 1_555
N3A C5A 1_555 1_555
N4A C2A 1_555 1_555
N5A C4A 1_555 1_555
N6A B1A 1_555 1_555
N7A B1A 1_555 1_555
N8A B1A 1_555 1_555
C1A N7A 1_555 1_555
H3A C1A 1_555 1_555
C2A N6A 1_555 1_555
H4A C2A 1_555 1_555
C3A N4A 1_555 1_555
H5A C3A 1_555 1_555
C4A C1A 1_555 1_555
H6A C4A 1_555 1_555
C5A N1A 1_555 1_555
H7A C5A 1_555 1_555
C6A N8A 1_555 1_555
H8A C6A 1_555 1_555
C7A N1A 1_555 1_555
H9A C7A 1_555 1_555
C8A N5A 1_555 1_555
H10A C8A 1_555 1_555
C9A N2A 1_555 1_555
H11A C9A 1_555 1_555
C10A N6A 1_555 1_555
H12A C10A 1_555 1_555
C11A N3A 1_555 1_555
H13A C11A 1_555 1_555
C12A N8A 1_555 1_555
H14A C12A 1_555 1_555
N4_2 Ca1 1_555 1_555
N4A_2 Ca1 1_555 1_555
Ca1_2 N4 1_555 1_555
Ca1_3 N4A 1_555 1_555
N7 C8 1_555 1_555
C3 C10 1_555 1_555
C7 C11 1_555 1_555
C9 C12 1_555 1_555
N7A C8A 1_555 1_555
C3A C10A 1_555 1_555
C7A C11A 1_555 1_555
C9A C12A 1_555 1_555

#END
