
#######################################################################
#
#                 Cambridge Crystallographic Data Centre
#                                CCDC 
#
#######################################################################
#
# If this CIF has been generated from an entry in the Cambridge 
# Structural Database, then it will include bibliographic, chemical, 
# crystal, experimental, refinement or atomic coordinate data resulting 
# from the CCDC's data processing and validation procedures.
#
#######################################################################

data_TADVAV
_symmetry_cell_setting           monoclinic
_symmetry_space_group_name_H-M   'P 21/c'
_symmetry_Int_Tables_number      14
_space_group_name_Hall           '-P 2ybc'
loop_
_symmetry_equiv_pos_site_id
_symmetry_equiv_pos_as_xyz
1 x,y,z
2 -x,1/2+y,1/2-z
3 -x,-y,-z
4 x,1/2-y,1/2+z
_cell_length_a                   8.700(1)
_cell_length_b                   11.962(1)
_cell_length_c                   7.034(1)
_cell_angle_alpha                90
_cell_angle_beta                 98.35(1)
_cell_angle_gamma                90
_cell_volume                     724.264
loop_
_atom_site_label
_atom_site_type_symbol
_atom_site_fract_x
_atom_site_fract_y
_atom_site_fract_z
Cu1 Cu 0.2514(2) 0.2564(1) 0.3201(2)
Cl1 Cl 0.0627(3) 0.3299(2) 0.0911(3)
Cl2 Cl 0.4532(3) 0.1882(2) 0.5365(3)
N1 N 0.2554(9) 0.3954(6) 0.4818(11)
N2 N 0.2376(9) 0.1126(6) 0.1733(11)
N3 N 0.2419(9) -0.0618(6) 0.0978(11)
N4 N 0.2378(11) -0.1783(6) 0.1184(14)
C1 C 0.2289(12) 0.0117(8) 0.2377(13)
C2 C 0.2601(12) 0.5011(7) 0.4416(14)
C3 C 0.2869(18) 0.5536(9) 0.2563(17)
Cl1C Cl 0.0627(3) 0.1701(2) 0.5911(3)
Cl2C Cl 0.4532(3) 0.3118(2) 0.0365(3)
Cu1C Cu 0.2514(2) 0.2436(1) -0.1799(2)
Cu1C_2 Cu 0.2514(2) 0.2436(1) 0.8201(2)
N2C N 0.2376(9) 0.3874(6) 0.6733(11)
N1C N 0.2554(9) 0.1046(6) -0.0182(11)
C2C C 0.2601(12) -0.0011(7) -0.0584(14)
N3C N 0.2419(9) 0.5618(6) 0.5978(11)
C1C C 0.2289(12) 0.4883(8) 0.7377(13)
C3C C 0.2869(18) -0.0536(9) -0.2437(17)
N4C N 0.2378(11) 0.6783(6) 0.6184(14)
Cl1_2 Cl 0.0627(3) 0.3299(2) 1.0911(3)
Cl2C_2 Cl 0.4532(3) 0.3118(2) 1.0365(3)
N1C_2 N 0.2554(9) 0.1046(6) 0.9818(11)
loop_
_geom_bond_atom_site_label_1
_geom_bond_atom_site_label_2
_geom_bond_site_symmetry_1
_geom_bond_site_symmetry_2
Cu1 Cl1 1_555 1_555
Cl1 Cu1C 1_555 1_555
Cl2 Cu1 1_555 1_555
N1 Cu1 1_555 1_555
N2 Cu1 1_555 1_555
N3 N4 1_555 1_555
C1 N2 1_555 1_555
C2 N1 1_555 1_555
C3 C2 1_555 1_555
Cl1C Cu1 1_555 1_555
Cl2C Cu1 1_555 1_555
Cu1C Cl2C 1_555 1_555
Cu1C_2 Cl2 1_555 1_555
N2C N1 1_555 1_555
N1C N2 1_555 1_555
C2C N3 1_555 1_555
N3C C2 1_555 1_555
C1C N2C 1_555 1_555
C3C C2C 1_555 1_555
N4C N3C 1_555 1_555
Cl1_2 Cu1C_2 1_555 1_555
Cl2C_2 Cu1C_2 1_555 1_555
N1C_2 Cu1C_2 1_555 1_555
N3 C1 1_555 1_555
Cl1C Cu1C_2 1_555 1_555
Cu1C N1C 1_555 1_555
Cu1C_2 N2C 1_555 1_555
N1C C2C 1_555 1_555
N3C C1C 1_555 1_555

#END
