
#######################################################################
#
#                 Cambridge Crystallographic Data Centre
#                                CCDC 
#
#######################################################################
#
# If this CIF has been generated from an entry in the Cambridge 
# Structural Database, then it will include bibliographic, chemical, 
# crystal, experimental, refinement or atomic coordinate data resulting 
# from the CCDC's data processing and validation procedures.
#
#######################################################################

data_TADWOL
_symmetry_cell_setting           orthorhombic
_symmetry_space_group_name_H-M   'P 21 21 21'
_symmetry_Int_Tables_number      19
_space_group_name_Hall           'P 2ac 2ab'
loop_
_symmetry_equiv_pos_site_id
_symmetry_equiv_pos_as_xyz
1 x,y,z
2 1/2-x,-y,1/2+z
3 -x,1/2+y,1/2-z
4 1/2+x,1/2-y,-z
_cell_length_a                   9.2741(3)
_cell_length_b                   11.6970(3)
_cell_length_c                   17.8322(4)
_cell_angle_alpha                90
_cell_angle_beta                 90
_cell_angle_gamma                90
_cell_volume                     1934.42
loop_
_atom_site_label
_atom_site_type_symbol
_atom_site_fract_x
_atom_site_fract_y
_atom_site_fract_z
Cu1 Cu 0.64707(7) 0.24111(7) 0.42613(4)
O1 O 0.4723(4) 0.2502(5) 0.4903(2)
O2 O 0.2586(5) 0.3391(4) 0.4985(3)
O3 O 0.5553(7) 0.0748(6) 0.3709(5)
H1 H 0.604(7) 0.036(6) 0.360(5)
H2 H 0.485(7) 0.063(7) 0.377(5)
N1 N 0.7943(5) 0.2610(5) 0.3461(3)
N2 N 0.5286(6) 0.3374(5) 0.3577(3)
H3 H 0.4828 0.2898 0.3251
N3 N 0.0105(7) 0.6014(6) 0.4477(4)
H4 H -0.0707 0.6127 0.4697
N4 N 0.2193(7) 0.6285(5) 0.4029(4)
H5 H 0.2988 0.6619 0.3910
C1 C 0.9136(7) 0.2000(7) 0.3353(4)
H6 H 0.9333 0.1395 0.3676
C2 C 1.0106(8) 0.2236(7) 0.2771(4)
H7 H 1.0930 0.1795 0.2703
C3 C 0.9803(8) 0.3138(8) 0.2305(4)
H8 H 1.0438 0.3327 0.1921
C4 C 0.8565(8) 0.3760(7) 0.2404(4)
H9 H 0.8352 0.4368 0.2087
C5 C 0.7635(7) 0.3474(6) 0.2981(4)
C6 C 0.6263(8) 0.4109(6) 0.3135(4)
H10 H 0.6472 0.4804 0.3412
H11 H 0.5805 0.4320 0.2666
C7 C 0.4161(7) 0.3973(6) 0.4022(4)
H12 H 0.4600 0.4671 0.4224
C8 C 0.3790(7) 0.3212(5) 0.4687(4)
C9 C 0.2877(8) 0.4341(7) 0.3534(4)
H13 H 0.3247 0.4680 0.3077
H14 H 0.2337 0.3664 0.3395
C10 C 0.1877(7) 0.5163(6) 0.3890(4)
C11 C 0.0551(7) 0.5004(7) 0.4185(5)
H15 H 0.0034 0.4323 0.4187
C12 C 0.1093(8) 0.6782(7) 0.4372(5)
H16 H 0.1038 0.7547 0.4513
O2C O 0.7586(5) 0.1609(4) 0.5015(3)
Cu1C Cu 0.14707(7) 0.25889(7) 0.57387(4)
Cl1 Cl -0.30098(18) 0.49212(16) 0.55194(10)
O4 O -0.2138(6) 0.5930(4) 0.5613(3)
O5 O -0.2721(5) 0.4432(4) 0.4794(3)
O6 O -0.4495(5) 0.5225(5) 0.5590(3)
O7 O -0.2638(6) 0.4108(5) 0.6089(3)
Cl2 Cl 0.6179(2) 0.74150(18) 0.34736(11)
O8 O 0.5107(13) 0.7150(11) 0.3998(7)
O9 O 0.6396(15) 0.8574(8) 0.3336(7)
O10 O 0.5874(15) 0.6929(11) 0.2733(6)
O11 O 0.7484(11) 0.6829(11) 0.3691(8)
O12? O 0.4657(14) 0.750(3) 0.3416(15)
O13? O 0.671(3) 0.708(2) 0.2741(10)
O14? O 0.663(3) 0.6617(18) 0.4018(12)
O15? O 0.678(3) 0.8519(15) 0.3651(16)
O16? O 0.689(3) 0.8318(17) 0.3911(13)
O17? O 0.534(3) 0.677(2) 0.4029(12)
O18? O 0.723(2) 0.6669(19) 0.3194(15)
O19? O 0.521(2) 0.791(2) 0.2971(12)
loop_
_geom_bond_atom_site_label_1
_geom_bond_atom_site_label_2
_geom_bond_site_symmetry_1
_geom_bond_site_symmetry_2
Cu1 O1 1_555 1_555
O1 C8 1_555 1_555
O2 C8 1_555 1_555
O3 Cu1 1_555 1_555
H1 O3 1_555 1_555
H2 O3 1_555 1_555
N1 Cu1 1_555 1_555
N2 Cu1 1_555 1_555
H3 N2 1_555 1_555
N3 H4 1_555 1_555
N4 H5 1_555 1_555
C1 N1 1_555 1_555
H6 C1 1_555 1_555
C2 C1 1_555 1_555
H7 C2 1_555 1_555
C3 C2 1_555 1_555
H8 C3 1_555 1_555
C4 C3 1_555 1_555
H9 C4 1_555 1_555
C5 N1 1_555 1_555
C6 N2 1_555 1_555
H10 C6 1_555 1_555
H11 C6 1_555 1_555
C7 N2 1_555 1_555
H12 C7 1_555 1_555
C8 C7 1_555 1_555
C9 C7 1_555 1_555
H13 C9 1_555 1_555
H14 C9 1_555 1_555
C10 N4 1_555 1_555
C11 N3 1_555 1_555
H15 C11 1_555 1_555
C12 N3 1_555 1_555
H16 C12 1_555 1_555
Cl1 O4 1_555 1_555
O5 Cl1 1_555 1_555
O6 Cl1 1_555 1_555
O7 Cl1 1_555 1_555
Cl2 O8 1_555 1_555
O9 Cl2 1_555 1_555
O10 Cl2 1_555 1_555
O11 Cl2 1_555 1_555
O2C Cu1 1_555 1_555
Cu1C O2 1_555 1_555
N4 C12 1_555 1_555
C4 C5 1_555 1_555
C5 C6 1_555 1_555
C9 C10 1_555 1_555
C10 C11 1_555 1_555

#END
