
#######################################################################
#
#                 Cambridge Crystallographic Data Centre
#                                CCDC 
#
#######################################################################
#
# If this CIF has been generated from an entry in the Cambridge 
# Structural Database, then it will include bibliographic, chemical, 
# crystal, experimental, refinement or atomic coordinate data resulting 
# from the CCDC's data processing and validation procedures.
#
#######################################################################

data_TADZII
_symmetry_cell_setting           monoclinic
_symmetry_space_group_name_H-M   'P 21/c'
_symmetry_Int_Tables_number      14
_space_group_name_Hall           '-P 2ybc'
loop_
_symmetry_equiv_pos_site_id
_symmetry_equiv_pos_as_xyz
1 x,y,z
2 x,1/2-y,1/2+z
3 -x,-y,-z
4 -x,1/2+y,1/2-z
_cell_length_a                   10.638(2)
_cell_length_b                   12.764(3)
_cell_length_c                   22.652(5)
_cell_angle_alpha                90
_cell_angle_beta                 90.45(3)
_cell_angle_gamma                90
_cell_volume                     3075.67
loop_
_atom_site_label
_atom_site_type_symbol
_atom_site_fract_x
_atom_site_fract_y
_atom_site_fract_z
Zn1 Zn 0.48756(3) 0.85989(3) 0.254251(16)
Fe1 Fe 0.89097(3) 1.06089(4) 0.338336(18)
Fe2 Fe 0.62431(4) 0.73171(4) 0.03307(2)
O1 O 0.53120(17) 0.74873(16) 0.19636(9)
O2 O 0.6535(2) 0.88443(18) 0.17562(12)
O3 O 0.55421(16) 0.98053(17) 0.30352(10)
O4 O 0.66482(19) 0.83641(17) 0.31812(10)
N1 N 0.3702(2) 0.78057(19) 0.31365(11)
N2 N -0.3454(2) 0.4442(2) 0.29037(12)
C1 C 0.4795(5) 0.8346(5) 0.0261(2)
H1 H 0.4429 0.8780 0.0573
C2 C 0.4425(3) 0.7338(5) 0.00814(19)
H2 H 0.3757 0.6924 0.0264
C3 C 0.5138(4) 0.7017(4) -0.03939(19)
H3 H 0.5066 0.6346 -0.0601
C4 C 0.5942(3) 0.7800(4) -0.05248(17)
H4 H 0.6574 0.7764 -0.0837
C5 C 0.5799(5) 0.8627(4) -0.0153(2)
H5 H 0.6269 0.9287 -0.0162
C6 C 0.6429(3) 0.6254(2) 0.10036(13)
H6 H 0.5750 0.5830 0.1169
C7 C 0.7207(3) 0.5961(3) 0.05290(15)
H7 H 0.7166 0.5301 0.0309
C8 C 0.8056(3) 0.6810(3) 0.04229(15)
H8 H 0.8699 0.6830 0.0116
C9 C 0.7796(3) 0.7620(3) 0.08259(15)
H9 H 0.8236 0.8294 0.0850
C10 C 0.6790(2) 0.7291(2) 0.11982(13)
C11 C 0.6194(3) 0.7928(2) 0.16631(14)
C12 C 1.0102(3) 1.1617(3) 0.29576(16)
H10 H 1.0353 1.2315 0.3096
C13 C 1.0717(3) 1.0666(3) 0.30940(16)
H11 H 1.1472 1.0593 0.3341
C14 C 1.0066(3) 0.9839(3) 0.28125(16)
H12 H 1.0290 0.9095 0.2831
C15 C 0.9006(3) 1.0275(3) 0.25048(14)
H13 H 0.8382 0.9889 0.2270
C16 C 0.9051(3) 1.1385(3) 0.25937(15)
H14 H 0.8447 1.1896 0.2437
C17 C 0.7252(3) 1.1032(3) 0.37702(15)
H15 H 0.6627 1.1519 0.3608
C18 C 0.8309(3) 1.1304(3) 0.41355(15)
H16 H 0.8530 1.2011 0.4270
C19 C 0.8970(3) 1.0379(3) 0.42706(15)
H17 H 0.9736 1.0334 0.4513
C20 C 0.8366(3) 0.9522(3) 0.39825(14)
H18 H 0.8637 0.8789 0.3996
C21 C 0.7300(2) 0.9922(3) 0.36689(13)
C22 C 0.6463(2) 0.9316(2) 0.32717(13)
C23 C 0.3763(3) 0.6773(3) 0.32375(16)
H19 H 0.4315 0.6378 0.3012
C24 C 0.3062(3) 0.6266(3) 0.36520(16)
H20 H 0.3146 0.5546 0.3701
C25 C 0.2236(3) 0.6814(3) 0.39962(14)
C26 C 0.2163(3) 0.7888(3) 0.38952(15)
H21 H 0.1611 0.8296 0.4113
C27 C 0.2911(3) 0.8348(3) 0.34709(14)
H22 H 0.2859 0.9070 0.3417
C28 C -0.3268(2) 0.5471(2) 0.28217(14)
H23 H -0.3761 0.5819 0.2544
C29 C -0.2375(2) 0.6037(2) 0.31329(15)
H24 H -0.2298 0.6753 0.3068
C30 C -0.1597(3) 0.5552(3) 0.35372(14)
C31 C -0.1778(3) 0.4478(3) 0.36100(17)
H25 H -0.1271 0.4106 0.3872
C32 C -0.2709(3) 0.3966(3) 0.32937(18)
H26 H -0.2821 0.3252 0.3357
C33 C -0.0615(3) 0.6179(3) 0.38704(17)
H27 H -0.0229 0.6665 0.3597
H28 H -0.1037 0.6592 0.4169
C34 C 0.0415(3) 0.5555(3) 0.41685(16)
H29 H 0.0800 0.5097 0.3880
H30 H 0.0048 0.5118 0.4472
C35 C 0.1446(3) 0.6258(3) 0.44516(16)
H31 H 0.200(3) 0.576(3) 0.4753(15)
H32 H 0.101(3) 0.679(3) 0.4694(14)
N2C N 0.3454(2) 0.9442(2) 0.20963(12)
Zn1C Zn -0.48756(3) 0.35989(3) 0.245749(16)
loop_
_geom_bond_atom_site_label_1
_geom_bond_atom_site_label_2
_geom_bond_site_symmetry_1
_geom_bond_site_symmetry_2
Zn1 O1 1_555 1_555
Fe1 C12 1_555 1_555
Fe2 C1 1_555 1_555
O1 C11 1_555 1_555
O2 C11 1_555 1_555
O3 Zn1 1_555 1_555
O4 Zn1 1_555 1_555
N1 Zn1 1_555 1_555
N2 C28 1_555 1_555
C1 H1 1_555 1_555
C2 Fe2 1_555 1_555
H2 C2 1_555 1_555
C3 Fe2 1_555 1_555
H3 C3 1_555 1_555
C4 Fe2 1_555 1_555
H4 C4 1_555 1_555
C5 Fe2 1_555 1_555
H5 C5 1_555 1_555
C6 Fe2 1_555 1_555
H6 C6 1_555 1_555
C7 Fe2 1_555 1_555
H7 C7 1_555 1_555
C8 Fe2 1_555 1_555
H8 C8 1_555 1_555
C9 Fe2 1_555 1_555
H9 C9 1_555 1_555
C10 Fe2 1_555 1_555
C11 C10 1_555 1_555
C12 H10 1_555 1_555
C13 Fe1 1_555 1_555
H11 C13 1_555 1_555
C14 Fe1 1_555 1_555
H12 C14 1_555 1_555
C15 Fe1 1_555 1_555
H13 C15 1_555 1_555
C16 Fe1 1_555 1_555
H14 C16 1_555 1_555
C17 Fe1 1_555 1_555
H15 C17 1_555 1_555
C18 Fe1 1_555 1_555
H16 C18 1_555 1_555
C19 Fe1 1_555 1_555
H17 C19 1_555 1_555
C20 Fe1 1_555 1_555
H18 C20 1_555 1_555
C21 Fe1 1_555 1_555
C22 O3 1_555 1_555
C23 N1 1_555 1_555
H19 C23 1_555 1_555
C24 C23 1_555 1_555
H20 C24 1_555 1_555
C25 C24 1_555 1_555
C26 C25 1_555 1_555
H21 C26 1_555 1_555
C27 N1 1_555 1_555
H22 C27 1_555 1_555
C28 H23 1_555 1_555
C29 C28 1_555 1_555
H24 C29 1_555 1_555
C30 C29 1_555 1_555
C31 C30 1_555 1_555
H25 C31 1_555 1_555
C32 N2 1_555 1_555
H26 C32 1_555 1_555
C33 C30 1_555 1_555
H27 C33 1_555 1_555
H28 C33 1_555 1_555
C34 C33 1_555 1_555
H29 C34 1_555 1_555
H30 C34 1_555 1_555
C35 C25 1_555 1_555
H31 C35 1_555 1_555
H32 C35 1_555 1_555
N2C Zn1 1_555 1_555
Zn1C N2 1_555 1_555
O4 C22 1_555 1_555
C1 C2 1_555 1_555
C1 C5 1_555 1_555
C2 C3 1_555 1_555
C3 C4 1_555 1_555
C4 C5 1_555 1_555
C6 C10 1_555 1_555
C6 C7 1_555 1_555
C7 C8 1_555 1_555
C8 C9 1_555 1_555
C9 C10 1_555 1_555
C12 C13 1_555 1_555
C12 C16 1_555 1_555
C13 C14 1_555 1_555
C14 C15 1_555 1_555
C15 C16 1_555 1_555
C17 C21 1_555 1_555
C17 C18 1_555 1_555
C18 C19 1_555 1_555
C19 C20 1_555 1_555
C20 C21 1_555 1_555
C21 C22 1_555 1_555
C26 C27 1_555 1_555
C31 C32 1_555 1_555
C34 C35 1_555 1_555

#END
