
#######################################################################
#
#                 Cambridge Crystallographic Data Centre
#                                CCDC 
#
#######################################################################
#
# If this CIF has been generated from an entry in the Cambridge 
# Structural Database, then it will include bibliographic, chemical, 
# crystal, experimental, refinement or atomic coordinate data resulting 
# from the CCDC's data processing and validation procedures.
#
#######################################################################

data_TADZAA
_symmetry_cell_setting           triclinic
_symmetry_space_group_name_H-M   'P -1'
_symmetry_Int_Tables_number      2
_space_group_name_Hall           '-P 1'
loop_
_symmetry_equiv_pos_site_id
_symmetry_equiv_pos_as_xyz
1 x,y,z
2 -x,-y,-z
_cell_length_a                   10.547(2)
_cell_length_b                   11.101(2)
_cell_length_c                   13.882(3)
_cell_angle_alpha                109.90(3)
_cell_angle_beta                 106.04(3)
_cell_angle_gamma                93.44(3)
_cell_volume                     1447.29
loop_
_atom_site_label
_atom_site_type_symbol
_atom_site_fract_x
_atom_site_fract_y
_atom_site_fract_z
Pb1 Pb 0.595854(16) 0.925892(14) 0.636947(12)
Fe1 Fe 0.87852(6) 0.72161(5) 0.97005(5)
Fe2 Fe 0.85092(6) 1.24175(5) 0.45819(5)
N1 N 0.6731(3) 0.7575(3) 0.4937(3)
N2 N 0.6172(4) 0.1184(3) -0.1741(3)
C1 C 0.9459(8) 0.9007(6) 1.0916(5)
H1 H 1.0008 0.9740 1.0902
C2 C 0.8035(7) 0.8725(6) 1.0546(4)
H2 H 0.7424 0.9235 1.0249
C3 C 0.7672(5) 0.7574(6) 1.0714(4)
H3 H 0.6759 0.7141 1.0554
C4 C 0.8850(5) 0.7208(5) 1.1184(3)
H4 H 0.8903 0.6444 1.1387
C5 C 0.9938(6) 0.8060(6) 1.1293(4)
H5 H 1.0882 0.8009 1.1590
C6 C 0.9507(4) 0.7205(4) 0.8481(3)
H6 H 1.0075 0.7931 0.8474
C7 C 0.9962(5) 0.6216(5) 0.8866(4)
H7 H 1.0898 0.6153 0.9178
C8 C 0.8831(5) 0.5356(4) 0.8732(4)
H8 H 0.8847 0.4595 0.8939
C9 C 0.7665(5) 0.5795(4) 0.8264(4)
H9 H 0.6737 0.5386 0.8084
C10 C 0.8090(4) 0.6940(4) 0.8101(3)
C11 C 0.7182(4) 0.7718(4) 0.7633(3)
C12 C 0.9507(5) 1.1894(5) 0.3472(4)
H10 H 1.0456 1.2186 0.3601
C13 C 0.8432(5) 1.2502(5) 0.3112(3)
H11 H 0.8504 1.3295 0.2954
C14 C 0.7229(5) 1.1767(4) 0.3032(3)
H12 H 0.6328 1.1969 0.2809
C15 C 0.7551(5) 1.0693(4) 0.3320(4)
H13 H 0.6917 1.0021 0.3334
C16 C 0.8960(5) 1.0763(5) 0.3583(4)
H14 H 0.9472 1.0148 0.3817
C17 C 0.7564(5) 1.3524(4) 0.5591(3)
H15 H 0.6636 1.3666 0.5378
C18 C 0.8701(5) 1.4301(4) 0.5618(4)
H16 H 0.8695 1.5072 0.5425
C19 C 0.9854(5) 1.3766(4) 0.5975(4)
H17 H 1.0778 1.4102 0.6067
C20 C 0.9427(4) 1.2648(4) 0.6161(3)
H18 H 1.0006 1.2082 0.6407
C21 C 0.8009(4) 1.2495(4) 0.5926(3)
C22 C 0.7129(4) 1.1456(4) 0.6007(3)
C23 C 0.7125(4) 0.7971(4) 0.4239(3)
H19 H 0.7490 0.8843 0.4463
C24 C 0.7018(4) 0.7161(4) 0.3212(3)
H20 H 0.7294 0.7490 0.2756
C25 C 0.6501(4) 0.5855(4) 0.2856(3)
C26 C 0.6096(5) 0.5427(4) 0.3573(4)
H21 H 0.5741 0.4558 0.3370
C27 C 0.6230(4) 0.6316(4) 0.4598(3)
H22 H 0.5956 0.6017 0.5070
C28 C 0.6449(5) 0.4985(4) 0.1748(4)
H23 H 0.6730 0.5370 0.1327
C29 C 0.6047(5) 0.3747(4) 0.1329(4)
H24 H 0.5709 0.3359 0.1725
C30 C 0.6101(6) 0.0800(5) -0.0950(4)
H25 H 0.6082 -0.0079 -0.1074
C31 C 0.6055(6) 0.1589(5) 0.0027(4)
H26 H 0.6001 0.1247 0.0542
C32 C 0.6089(4) 0.2896(4) 0.0249(3)
C33 C 0.6159(5) 0.3327(4) -0.0573(4)
H27 H 0.6186 0.4203 -0.0464
C34 C 0.6188(5) 0.2459(4) -0.1538(3)
H28 H 0.6220 0.2765 -0.2078
O1 O 0.7722(3) 0.8699(3) 0.7525(2)
O2 O 0.5936(3) 0.7374(3) 0.7345(3)
O3 O 0.7693(3) 1.0586(2) 0.6284(2)
O4 O 0.5904(3) 1.1486(3) 0.5830(2)
N2_2 N 0.6172(4) 1.1184(3) 0.8259(3)
Pb1_2 Pb 0.595854(16) -0.074108(14) -0.363053(12)
loop_
_geom_bond_atom_site_label_1
_geom_bond_atom_site_label_2
_geom_bond_site_symmetry_1
_geom_bond_site_symmetry_2
Pb1 N1 1_555 1_555
Fe1 C1 1_555 1_555
Fe2 C12 1_555 1_555
N1 C23 1_555 1_555
N2 C30 1_555 1_555
C1 H1 1_555 1_555
C2 Fe1 1_555 1_555
H2 C2 1_555 1_555
C3 Fe1 1_555 1_555
H3 C3 1_555 1_555
C4 Fe1 1_555 1_555
H4 C4 1_555 1_555
C5 Fe1 1_555 1_555
H5 C5 1_555 1_555
C6 Fe1 1_555 1_555
H6 C6 1_555 1_555
C7 Fe1 1_555 1_555
H7 C7 1_555 1_555
C8 Fe1 1_555 1_555
H8 C8 1_555 1_555
C9 Fe1 1_555 1_555
H9 C9 1_555 1_555
C10 Fe1 1_555 1_555
C11 C10 1_555 1_555
C12 H10 1_555 1_555
C13 Fe2 1_555 1_555
H11 C13 1_555 1_555
C14 Fe2 1_555 1_555
H12 C14 1_555 1_555
C15 Fe2 1_555 1_555
H13 C15 1_555 1_555
C16 Fe2 1_555 1_555
H14 C16 1_555 1_555
C17 Fe2 1_555 1_555
H15 C17 1_555 1_555
C18 Fe2 1_555 1_555
H16 C18 1_555 1_555
C19 Fe2 1_555 1_555
H17 C19 1_555 1_555
C20 Fe2 1_555 1_555
H18 C20 1_555 1_555
C21 Fe2 1_555 1_555
C22 C21 1_555 1_555
C23 H19 1_555 1_555
C24 C23 1_555 1_555
H20 C24 1_555 1_555
C25 C24 1_555 1_555
C26 C25 1_555 1_555
H21 C26 1_555 1_555
C27 N1 1_555 1_555
H22 C27 1_555 1_555
C28 C25 1_555 1_555
H23 C28 1_555 1_555
C29 C28 1_555 1_555
H24 C29 1_555 1_555
C30 H25 1_555 1_555
C31 C30 1_555 1_555
H26 C31 1_555 1_555
C32 C29 1_555 1_555
C33 C32 1_555 1_555
H27 C33 1_555 1_555
C34 N2 1_555 1_555
H28 C34 1_555 1_555
O1 Pb1 1_555 1_555
O2 C11 1_555 1_555
O3 Pb1 1_555 1_555
O4 C22 1_555 1_555
N2_2 Pb1 1_555 1_555
Pb1_2 N2 1_555 1_555
C1 C2 1_555 1_555
C1 C5 1_555 1_555
C2 C3 1_555 1_555
C3 C4 1_555 1_555
C4 C5 1_555 1_555
C6 C7 1_555 1_555
C6 C10 1_555 1_555
C7 C8 1_555 1_555
C8 C9 1_555 1_555
C9 C10 1_555 1_555
C11 O1 1_555 1_555
C12 C13 1_555 1_555
C12 C16 1_555 1_555
C13 C14 1_555 1_555
C14 C15 1_555 1_555
C15 C16 1_555 1_555
C17 C18 1_555 1_555
C17 C21 1_555 1_555
C18 C19 1_555 1_555
C19 C20 1_555 1_555
C20 C21 1_555 1_555
C22 O3 1_555 1_555
C26 C27 1_555 1_555
C31 C32 1_555 1_555
C33 C34 1_555 1_555

#END
