
#######################################################################
#
#                 Cambridge Crystallographic Data Centre
#                                CCDC 
#
#######################################################################
#
# If this CIF has been generated from an entry in the Cambridge 
# Structural Database, then it will include bibliographic, chemical, 
# crystal, experimental, refinement or atomic coordinate data resulting 
# from the CCDC's data processing and validation procedures.
#
#######################################################################

data_TADZIJ
_symmetry_cell_setting           monoclinic
_symmetry_space_group_name_H-M   'C 2/c'
_symmetry_Int_Tables_number      15
_space_group_name_Hall           '-C 2yn'
loop_
_symmetry_equiv_pos_site_id
_symmetry_equiv_pos_as_xyz
1 x,y,z
2 -x,y,1/2-z
3 1/2+x,1/2+y,z
4 1/2-x,1/2+y,1/2-z
5 -x,-y,-z
6 x,-y,1/2+z
7 1/2-x,1/2-y,-z
8 1/2+x,1/2-y,1/2+z
_cell_length_a                   19.097(5)
_cell_length_b                   9.994(5)
_cell_length_c                   19.479(5)
_cell_angle_alpha                90
_cell_angle_beta                 100.659(5)
_cell_angle_gamma                90
_cell_volume                     3653.53
loop_
_atom_site_label
_atom_site_type_symbol
_atom_site_fract_x
_atom_site_fract_y
_atom_site_fract_z
Mn1 Mn 0.0000 0.20513(4) 0.2500
O1 O -0.01142(8) 0.34893(14) 0.32770(7)
O2 O -0.10422(8) 0.27744(15) 0.37200(7)
N1 N -0.00306(8) 0.04352(15) 0.16446(8)
N2 N -0.11484(9) 0.17955(17) 0.19635(8)
N3 N -0.17128(8) -0.13322(17) -0.04008(8)
H1 H -0.1490 -0.1912 -0.0606
N4 N -0.25950(9) -0.00285(19) -0.01777(9)
N5 N -0.33270(12) -0.3149(2) -0.20467(11)
C1 C 0.05288(11) -0.0236(2) 0.15101(10)
H2 H 0.0969 -0.0108 0.1800
C2 C 0.04826(12) -0.1127(2) 0.09516(11)
H3 H 0.0883 -0.1597 0.0880
C3 C -0.01541(11) -0.1304(2) 0.05129(11)
H4 H -0.0192 -0.1900 0.0141
C4 C -0.07504(10) -0.05829(19) 0.06256(9)
C5 C -0.14421(10) -0.0616(2) 0.01949(9)
C6 C -0.19976(10) 0.0172(2) 0.03170(10)
C7 C -0.19235(10) 0.1027(2) 0.09169(10)
C8 C -0.24787(12) 0.1808(3) 0.10823(12)
H5 H -0.2920 0.1828 0.0786
C9 C -0.23634(12) 0.2536(3) 0.16835(13)
H6 H -0.2726 0.3053 0.1806
C10 C -0.16949(12) 0.2494(3) 0.21120(11)
H7 H -0.1626 0.2982 0.2526
C11 C -0.12608(10) 0.10529(19) 0.13690(9)
C12 C -0.06654(10) 0.02796(18) 0.12119(9)
C13 C -0.24024(10) -0.0939(2) -0.05983(10)
C14 C -0.29011(10) -0.1443(2) -0.12083(10)
C15 C -0.28436(12) -0.2672(2) -0.15192(11)
H8 H -0.2446 -0.3196 -0.1352
C16 C -0.38880(15) -0.2375(3) -0.22736(15)
H9 H -0.4238 -0.2701 -0.2631
C17 C -0.39834(15) -0.1138(3) -0.20177(17)
H10 H -0.4379 -0.0626 -0.2206
C18 C -0.34845(13) -0.0660(3) -0.14761(14)
H11 H -0.3538 0.0183 -0.1290
C19 C -0.04906(11) 0.34441(18) 0.37454(9)
C20 C -0.02326(10) 0.42635(18) 0.43932(9)
C21 C 0.04871(10) 0.4397(2) 0.46600(10)
H12 H 0.0818 0.3985 0.4434
C22 C -0.07204(10) 0.4864(2) 0.47413(10)
H13 H -0.1206 0.4770 0.4572
Mn1D Mn 0.0000 0.79487(4) 0.7500
O1D O 0.01142(8) 0.65107(14) 0.67230(7)
O1A O 0.01142(8) 0.34893(14) 0.17230(7)
O2D O 0.10422(8) 0.72256(15) 0.62800(7)
N1A N 0.00306(8) 0.04352(15) 0.33554(8)
N2A N 0.11484(9) 0.17955(17) 0.30365(8)
N3A N 0.17128(8) -0.13322(17) 0.54008(8)
H1A H 0.1490 -0.1912 0.5606
N4A N 0.25950(9) -0.00285(19) 0.51777(9)
N5A N 0.33270(12) -0.3149(2) 0.70467(11)
C1A C -0.05288(11) -0.0236(2) 0.34899(10)
H2A H -0.0969 -0.0108 0.3200
C2A C -0.04826(12) -0.1127(2) 0.40484(11)
H3A H -0.0883 -0.1597 0.4120
C3A C 0.01541(11) -0.1304(2) 0.44871(11)
H4A H 0.0192 -0.1900 0.4859
C4A C 0.07504(10) -0.05829(19) 0.43744(9)
C5A C 0.14421(10) -0.0616(2) 0.48051(9)
C6A C 0.19976(10) 0.0172(2) 0.46830(10)
C7A C 0.19235(10) 0.1027(2) 0.40831(10)
C8A C 0.24787(12) 0.1808(3) 0.39177(12)
H5A H 0.2920 0.1828 0.4214
C9A C 0.23634(12) 0.2536(3) 0.33165(13)
H6A H 0.2726 0.3053 0.3194
C10A C 0.16949(12) 0.2494(3) 0.28880(11)
H7A H 0.1626 0.2982 0.2474
C11A C 0.12608(10) 0.10529(19) 0.36310(9)
C12A C 0.06654(10) 0.02796(18) 0.37881(9)
C13A C 0.24024(10) -0.0939(2) 0.55983(10)
C14A C 0.29011(10) -0.1443(2) 0.62083(10)
C15A C 0.28436(12) -0.2672(2) 0.65192(11)
H8A H 0.2446 -0.3196 0.6352
C16A C 0.38880(15) -0.2375(3) 0.72736(15)
H9A H 0.4238 -0.2701 0.7631
C17A C 0.39834(15) -0.1138(3) 0.70177(17)
H10A H 0.4379 -0.0626 0.7206
C18A C 0.34845(13) -0.0660(3) 0.64761(14)
H11A H 0.3538 0.0183 0.6290
C19D C 0.04906(11) 0.65559(18) 0.62546(9)
C20D C 0.02326(10) 0.57365(18) 0.56068(9)
C21D C -0.04871(10) 0.5603(2) 0.53400(10)
H12D H -0.0818 0.6015 0.5566
C22D C 0.07204(10) 0.5136(2) 0.52587(10)
H13D H 0.1206 0.5230 0.5428
loop_
_geom_bond_atom_site_label_1
_geom_bond_atom_site_label_2
_geom_bond_site_symmetry_1
_geom_bond_site_symmetry_2
Mn1 O1 1_555 1_555
O1 C19 1_555 1_555
O2 C19 1_555 1_555
N1 Mn1 1_555 1_555
N2 Mn1 1_555 1_555
N3 H1 1_555 1_555
N4 C6 1_555 1_555
N5 C15 1_555 1_555
C1 N1 1_555 1_555
H2 C1 1_555 1_555
C2 C1 1_555 1_555
H3 C2 1_555 1_555
C3 C2 1_555 1_555
H4 C3 1_555 1_555
C4 C3 1_555 1_555
C5 N3 1_555 1_555
C6 C5 1_555 1_555
C7 C6 1_555 1_555
C8 C7 1_555 1_555
H5 C8 1_555 1_555
C9 C8 1_555 1_555
H6 C9 1_555 1_555
C10 N2 1_555 1_555
H7 C10 1_555 1_555
C11 N2 1_555 1_555
C12 N1 1_555 1_555
C13 N3 1_555 1_555
C14 C13 1_555 1_555
C15 C14 1_555 1_555
H8 C15 1_555 1_555
C16 N5 1_555 1_555
H9 C16 1_555 1_555
C17 C16 1_555 1_555
H10 C17 1_555 1_555
C18 C14 1_555 1_555
H11 C18 1_555 1_555
C19 C20 1_555 1_555
C20 C21 1_555 1_555
C21 H12 1_555 1_555
C22 C20 1_555 1_555
H13 C22 1_555 1_555
Mn1D O1D 1_555 1_555
O1D C19D 1_555 1_555
O1A Mn1 1_555 1_555
O2D C19D 1_555 1_555
N1A Mn1 1_555 1_555
N2A Mn1 1_555 1_555
N3A H1A 1_555 1_555
N4A C6A 1_555 1_555
N5A C15A 1_555 1_555
C1A N1A 1_555 1_555
H2A C1A 1_555 1_555
C2A C1A 1_555 1_555
H3A C2A 1_555 1_555
C3A C2A 1_555 1_555
H4A C3A 1_555 1_555
C4A C3A 1_555 1_555
C5A N3A 1_555 1_555
C6A C5A 1_555 1_555
C7A C6A 1_555 1_555
C8A C7A 1_555 1_555
H5A C8A 1_555 1_555
C9A C8A 1_555 1_555
H6A C9A 1_555 1_555
C10A N2A 1_555 1_555
H7A C10A 1_555 1_555
C11A N2A 1_555 1_555
C12A N1A 1_555 1_555
C13A N3A 1_555 1_555
C14A C13A 1_555 1_555
C15A C14A 1_555 1_555
H8A C15A 1_555 1_555
C16A N5A 1_555 1_555
H9A C16A 1_555 1_555
C17A C16A 1_555 1_555
H10A C17A 1_555 1_555
C18A C14A 1_555 1_555
H11A C18A 1_555 1_555
C19D C20D 1_555 1_555
C20D C21D 1_555 1_555
C21D C22 1_555 1_555
H12D C21D 1_555 1_555
C22D C21 1_555 1_555
H13D C22D 1_555 1_555
N4 C13 1_555 1_555
C4 C5 1_555 1_555
C4 C12 1_555 1_555
C7 C11 1_555 1_555
C9 C10 1_555 1_555
C11 C12 1_555 1_555
C17 C18 1_555 1_555
N4A C13A 1_555 1_555
C4A C5A 1_555 1_555
C4A C12A 1_555 1_555
C7A C11A 1_555 1_555
C9A C10A 1_555 1_555
C11A C12A 1_555 1_555
C17A C18A 1_555 1_555
C20D C22D 1_555 1_555

#END
