
#######################################################################
#
#                 Cambridge Crystallographic Data Centre
#                                CCDC 
#
#######################################################################
#
# If this CIF has been generated from an entry in the Cambridge 
# Structural Database, then it will include bibliographic, chemical, 
# crystal, experimental, refinement or atomic coordinate data resulting 
# from the CCDC's data processing and validation procedures.
#
#######################################################################

data_TAFBOT
_symmetry_cell_setting           monoclinic
_symmetry_space_group_name_H-M   'P 21/c'
_symmetry_Int_Tables_number      14
_space_group_name_Hall           '-P 2ybc'
loop_
_symmetry_equiv_pos_site_id
_symmetry_equiv_pos_as_xyz
1 x,y,z
2 -x,1/2+y,1/2-z
3 -x,-y,-z
4 x,1/2-y,1/2+z
_cell_length_a                   8.4400(5)
_cell_length_b                   9.8301(6)
_cell_length_c                   18.3307(11)
_cell_angle_alpha                90
_cell_angle_beta                 116.651(4)
_cell_angle_gamma                90
_cell_volume                     1359.25
loop_
_atom_site_label
_atom_site_type_symbol
_atom_site_fract_x
_atom_site_fract_y
_atom_site_fract_z
Cd1 Cd 0.97369(2) 0.71526(2) 0.830328(11)
O1 O 0.7024(3) 0.7379(2) 0.71412(13)
O2 O 0.7794(3) 0.5343(2) 0.76619(12)
O3 O -0.1260(3) 0.7917(2) 0.44122(12)
O4 O 0.1407(3) 0.8544(2) 0.46225(12)
N1 N 0.1902(3) 0.6517(3) 0.79568(13)
N2 N 0.3502(3) 0.5453(2) 0.74560(14)
N3 N -0.0791(3) 0.6564(2) 0.60601(13)
N4 N -0.0482(3) 0.4361(2) 0.63103(13)
C1 C 0.1854(3) 0.5844(3) 0.73186(15)
C2 C 0.3653(4) 0.6548(4) 0.85203(17)
H1 H 0.4091 0.6957 0.9031
C3 C 0.4640(4) 0.5896(4) 0.82214(17)
H2 H 0.5861 0.5771 0.8485
C4 C 0.4019(4) 0.4685(3) 0.69085(18)
H3 H 0.2970 0.4284 0.6474
H4 H 0.4806 0.3950 0.7212
C5 C 0.4941(4) 0.5570(4) 0.65368(17)
H5 H 0.5133 0.5039 0.6138
H6 H 0.4166 0.6322 0.6251
C6 C 0.6702(4) 0.6135(3) 0.71549(16)
C7 C 0.0229(3) 0.5573(3) 0.65714(15)
C8 C -0.2018(4) 0.4596(3) 0.56064(16)
H7 H -0.2800 0.3927 0.5287
C9 C -0.2214(4) 0.5936(3) 0.54514(16)
H8 H -0.3142 0.6357 0.5013
C10 C -0.0427(4) 0.8031(3) 0.61047(17)
H9 H 0.0030 0.8324 0.6668
H10 H -0.1529 0.8512 0.5790
C11 C 0.0893(4) 0.8412(3) 0.57884(15)
H11 H 0.1940 0.7851 0.6068
H12 H 0.1247 0.9349 0.5940
C12 C 0.0280(4) 0.8273(3) 0.48779(17)
Cd1C Cd -0.02631(2) 0.78474(2) 0.330328(11)
Cd1_2 Cd -0.02631(2) 0.71526(2) 0.830328(11)
Cd1A Cd 0.02631(2) 0.21526(2) 0.669672(11)
O3C O 0.8740(3) 0.7083(2) 0.94122(12)
O4C O 1.1407(3) 0.6456(2) 0.96225(12)
N1_2 N 1.1902(3) 0.6517(3) 0.79568(13)
N4A N 1.0482(3) 0.9361(2) 0.86897(13)
O5 O 0.4875(5) 0.3244(4) 0.9545(2)
H13 H 0.4324 0.3513 0.9041
H14 H 0.5903 0.3618 0.9785
loop_
_geom_bond_atom_site_label_1
_geom_bond_atom_site_label_2
_geom_bond_site_symmetry_1
_geom_bond_site_symmetry_2
Cd1 O1 1_555 1_555
O1 C6 1_555 1_555
O2 Cd1 1_555 1_555
O3 C12 1_555 1_555
O4 C12 1_555 1_555
N1 C1 1_555 1_555
N2 C1 1_555 1_555
N3 C7 1_555 1_555
N4 C7 1_555 1_555
C1 C7 1_555 1_555
C2 N1 1_555 1_555
H1 C2 1_555 1_555
C3 N2 1_555 1_555
H2 C3 1_555 1_555
C4 N2 1_555 1_555
H3 C4 1_555 1_555
H4 C4 1_555 1_555
C5 C4 1_555 1_555
H5 C5 1_555 1_555
H6 C5 1_555 1_555
C6 O2 1_555 1_555
C8 N4 1_555 1_555
H7 C8 1_555 1_555
C9 N3 1_555 1_555
H8 C9 1_555 1_555
C10 N3 1_555 1_555
H9 C10 1_555 1_555
H10 C10 1_555 1_555
C11 C10 1_555 1_555
H11 C11 1_555 1_555
H12 C11 1_555 1_555
C12 C11 1_555 1_555
O5 H13 1_555 1_555
H14 O5 1_555 1_555
Cd1C O3 1_555 1_555
Cd1_2 N1 1_555 1_555
Cd1A N4 1_555 1_555
O3C Cd1 1_555 1_555
O4C Cd1 1_555 1_555
N1_2 Cd1 1_555 1_555
N4A Cd1 1_555 1_555
O4 Cd1C 1_555 1_555
C2 C3 1_555 1_555
C5 C6 1_555 1_555
C8 C9 1_555 1_555

#END
