
#######################################################################
#
#                 Cambridge Crystallographic Data Centre
#                                CCDC 
#
#######################################################################
#
# If this CIF has been generated from an entry in the Cambridge 
# Structural Database, then it will include bibliographic, chemical, 
# crystal, experimental, refinement or atomic coordinate data resulting 
# from the CCDC's data processing and validation procedures.
#
#######################################################################

data_TAFKAN
_symmetry_cell_setting           monoclinic
_symmetry_space_group_name_H-M   'P 21/c'
_symmetry_Int_Tables_number      14
_space_group_name_Hall           '-P 2ybc'
loop_
_symmetry_equiv_pos_site_id
_symmetry_equiv_pos_as_xyz
1 x,y,z
2 x,1/2-y,1/2+z
3 -x,-y,-z
4 -x,1/2+y,1/2-z
_cell_length_a                   5.7530(12)
_cell_length_b                   21.865(4)
_cell_length_c                   13.343(3)
_cell_angle_alpha                90
_cell_angle_beta                 98.25(3)
_cell_angle_gamma                90
_cell_volume                     1661.04
loop_
_atom_site_label
_atom_site_type_symbol
_atom_site_fract_x
_atom_site_fract_y
_atom_site_fract_z
Mn1 Mn 0.0000 0.5000 0.5000
O1 O 0.1598(4) 0.57220(10) 0.59717(18)
C1 C 0.1464(6) 0.68221(15) 0.7999(2)
C2 C -0.0909(6) 0.57403(15) 0.7264(2)
F1 F 0.6912(4) 0.74759(10) 0.66316(18)
C3 C 0.0949(6) 0.59617(14) 0.6750(2)
N1 N -0.0320(5) 0.65707(13) 0.8474(2)
C4 C 0.2113(6) 0.65153(15) 0.7157(2)
C5 C 0.5049(6) 0.72835(15) 0.7063(3)
N2 N 0.5641(5) 0.81318(13) 0.8266(2)
C6 C 0.4389(6) 0.76196(15) 0.7890(2)
C7 C 0.2566(6) 0.73717(16) 0.8328(3)
H1 H 0.2050 0.7579 0.8863
C8 C -0.1388(6) 0.60554(16) 0.8101(3)
H2 H -0.2559 0.5898 0.8440
C9 C -0.0958(7) 0.68346(18) 0.9417(3)
H3 H -0.2469 0.6672 0.9528
H4 H -0.1120 0.7274 0.9337
C10 C 0.5066(8) 0.83729(18) 0.9220(3)
H5 H 0.4895 0.8038 0.9681
H6 H 0.3586 0.8592 0.9099
C11 C 0.3953(6) 0.67637(15) 0.6712(3)
H7 H 0.4436 0.6566 0.6159
C12 C 0.6047(7) 0.86379(16) 0.7572(3)
H8 H 0.4605 0.8868 0.7391
H9 H 0.6507 0.8471 0.6956
C13 C 0.0818(9) 0.6702(3) 1.0333(3)
H10 H 0.0316 0.6885 1.0920
H11 H 0.2313 0.6868 1.0235
H12 H 0.0959 0.6267 1.0429
C14 C -0.2420(6) 0.51896(16) 0.6953(3)
O2 O -0.2371(4) 0.49557(10) 0.60957(18)
O3 O -0.3687(6) 0.50014(13) 0.7573(2)
C15 C 0.7964(7) 0.90605(16) 0.8079(3)
H13 H 0.9431 0.8836 0.8201
H14 H 0.8171 0.9395 0.7623
C16 C 0.6994(8) 0.88014(18) 0.9696(3)
H15 H 0.6561 0.8964 1.0320
H16 H 0.8432 0.8569 0.9868
N3 N 0.7443(5) 0.93119(13) 0.9040(2)
H17 H 0.7407 0.9694 0.9192
O1B O -0.1598(4) 0.42780(10) 0.40283(18)
C1B C -0.1464(6) 0.31779(15) 0.2001(2)
C2B C 0.0909(6) 0.42597(15) 0.2736(2)
F1B F -0.6912(4) 0.25241(10) 0.33684(18)
C3B C -0.0949(6) 0.40383(14) 0.3250(2)
N1B N 0.0320(5) 0.34293(13) 0.1526(2)
C4B C -0.2113(6) 0.34847(15) 0.2843(2)
C5B C -0.5049(6) 0.27165(15) 0.2937(3)
N2B N -0.5641(5) 0.18682(13) 0.1734(2)
C6B C -0.4389(6) 0.23804(15) 0.2110(2)
C7B C -0.2566(6) 0.26283(16) 0.1672(3)
H1B H -0.2050 0.2421 0.1137
C8B C 0.1388(6) 0.39446(16) 0.1899(3)
H2B H 0.2559 0.4102 0.1560
C9B C 0.0958(7) 0.31654(18) 0.0583(3)
H3B H 0.2469 0.3328 0.0472
H4B H 0.1120 0.2726 0.0663
C10B C -0.5066(8) 0.16271(18) 0.0780(3)
H5B H -0.4895 0.1962 0.0319
H6B H -0.3586 0.1408 0.0901
C11B C -0.3953(6) 0.32363(15) 0.3288(3)
H7B H -0.4436 0.3434 0.3841
C12B C -0.6047(7) 0.13621(16) 0.2428(3)
H8B H -0.4605 0.1132 0.2609
H9B H -0.6507 0.1529 0.3044
C13B C -0.0818(9) 0.3298(3) -0.0333(3)
H10B H -0.0316 0.3115 -0.0920
H11B H -0.2313 0.3132 -0.0235
H12B H -0.0959 0.3733 -0.0429
C14B C 0.2420(6) 0.48104(16) 0.3047(3)
O2B O 0.2371(4) 0.50443(10) 0.39043(18)
O3B O 0.3687(6) 0.49986(13) 0.2427(2)
C15B C -0.7964(7) 0.09395(16) 0.1921(3)
H13B H -0.9431 0.1164 0.1799
H14B H -0.8171 0.0605 0.2377
C16B C -0.6994(8) 0.11986(18) 0.0304(3)
H15B H -0.6561 0.1036 -0.0320
H16B H -0.8432 0.1431 0.0132
N3B N -0.7443(5) 0.06881(13) 0.0960(2)
H17B H -0.7407 0.0306 0.0808
N3A N -0.2557(5) 0.56881(13) 0.4040(2)
N3C N 0.2557(5) 0.43119(13) 0.5960(2)
Mn1A Mn 1.0000 1.0000 1.0000
Mn1A_2 Mn -1.0000 0.0000 0.0000
H17A H -0.2593 0.5306 0.4192
H17C H 0.2593 0.4694 0.5808
O4 O -0.6130(13) 0.5307(6) 0.9156(6)
O5? O -0.075(3) 0.4823(5) 0.9514(8)
loop_
_geom_bond_atom_site_label_1
_geom_bond_atom_site_label_2
_geom_bond_site_symmetry_1
_geom_bond_site_symmetry_2
Mn1 O1 1_555 1_555
O1 C3 1_555 1_555
C1 N1 1_555 1_555
C2 C3 1_555 1_555
F1 C5 1_555 1_555
C3 C4 1_555 1_555
N1 C8 1_555 1_555
C4 C1 1_555 1_555
C5 C6 1_555 1_555
N2 C6 1_555 1_555
C6 C7 1_555 1_555
C7 C1 1_555 1_555
H1 C7 1_555 1_555
C8 C2 1_555 1_555
H2 C8 1_555 1_555
C9 N1 1_555 1_555
H3 C9 1_555 1_555
H4 C9 1_555 1_555
C10 N2 1_555 1_555
H5 C10 1_555 1_555
H6 C10 1_555 1_555
C11 C4 1_555 1_555
H7 C11 1_555 1_555
C12 N2 1_555 1_555
H8 C12 1_555 1_555
H9 C12 1_555 1_555
C13 C9 1_555 1_555
H10 C13 1_555 1_555
H11 C13 1_555 1_555
H12 C13 1_555 1_555
C14 C2 1_555 1_555
O2 Mn1 1_555 1_555
O3 C14 1_555 1_555
C15 C12 1_555 1_555
H13 C15 1_555 1_555
H14 C15 1_555 1_555
C16 C10 1_555 1_555
H15 C16 1_555 1_555
H16 C16 1_555 1_555
N3 C15 1_555 1_555
H17 N3 1_555 1_555
O1B Mn1 1_555 1_555
C1B N1B 1_555 1_555
C2B C3B 1_555 1_555
F1B C5B 1_555 1_555
C3B O1B 1_555 1_555
N1B C8B 1_555 1_555
C4B C1B 1_555 1_555
C5B C6B 1_555 1_555
N2B C6B 1_555 1_555
C6B C7B 1_555 1_555
C7B C1B 1_555 1_555
H1B C7B 1_555 1_555
C8B C2B 1_555 1_555
H2B C8B 1_555 1_555
C9B N1B 1_555 1_555
H3B C9B 1_555 1_555
H4B C9B 1_555 1_555
C10B N2B 1_555 1_555
H5B C10B 1_555 1_555
H6B C10B 1_555 1_555
C11B C4B 1_555 1_555
H7B C11B 1_555 1_555
C12B N2B 1_555 1_555
H8B C12B 1_555 1_555
H9B C12B 1_555 1_555
C13B C9B 1_555 1_555
H10B C13B 1_555 1_555
H11B C13B 1_555 1_555
H12B C13B 1_555 1_555
C14B C2B 1_555 1_555
O2B Mn1 1_555 1_555
O3B C14B 1_555 1_555
C15B C12B 1_555 1_555
H13B C15B 1_555 1_555
H14B C15B 1_555 1_555
C16B C10B 1_555 1_555
H15B C16B 1_555 1_555
H16B C16B 1_555 1_555
N3B C15B 1_555 1_555
H17B N3B 1_555 1_555
N3A Mn1 1_555 1_555
N3C Mn1 1_555 1_555
Mn1A N3 1_555 1_555
Mn1A_2 N3B 1_555 1_555
H17A N3A 1_555 1_555
H17C N3C 1_555 1_555
C5 C11 1_555 1_555
C14 O2 1_555 1_555
C16 N3 1_555 1_555
C3B C4B 1_555 1_555
C5B C11B 1_555 1_555
C14B O2B 1_555 1_555
C16B N3B 1_555 1_555

#END
