
#######################################################################
#
#                 Cambridge Crystallographic Data Centre
#                                CCDC 
#
#######################################################################
#
# If this CIF has been generated from an entry in the Cambridge 
# Structural Database, then it will include bibliographic, chemical, 
# crystal, experimental, refinement or atomic coordinate data resulting 
# from the CCDC's data processing and validation procedures.
#
#######################################################################

data_TAFLUI
_symmetry_cell_setting           monoclinic
_symmetry_space_group_name_H-M   'C 2/c'
_symmetry_Int_Tables_number      15
_space_group_name_Hall           '-C 2yn'
loop_
_symmetry_equiv_pos_site_id
_symmetry_equiv_pos_as_xyz
1 x,y,z
2 1/2+x,1/2+y,z
3 x,-y,1/2+z
4 1/2+x,1/2-y,1/2+z
5 -x,-y,-z
6 1/2-x,1/2-y,-z
7 -x,y,1/2-z
8 1/2-x,1/2+y,1/2-z
_cell_length_a                   16.942(3)
_cell_length_b                   11.735(2)
_cell_length_c                   12.721(3)
_cell_angle_alpha                90
_cell_angle_beta                 101.08(3)
_cell_angle_gamma                90
_cell_volume                     2481.97
loop_
_atom_site_label
_atom_site_type_symbol
_atom_site_fract_x
_atom_site_fract_y
_atom_site_fract_z
La1 La 0.5000 0.156672(12) 0.7500
Na1 Na 0.5000 1.0000 1.0000
N1 N 0.26414(13) 0.0801(2) 0.49744(19)
O1 O 0.51748(12) 0.35235(13) 0.83825(15)
O2 O 0.46559(11) 0.94920(13) 0.81493(13)
O3 O 0.64285(10) 0.21396(17) 0.72328(13)
O4 O 0.56317(10) 0.15502(13) 0.57643(13)
O5 O 0.39429(9) 0.09497(16) 0.58261(13)
C1 C 0.5000 0.4038(3) 0.7500
C2 C 0.5000 0.5320(3) 0.7500
C3 C 0.48574(16) 0.5916(2) 0.8389(2)
H1 H 0.4778 0.5521 0.8994
C4 C 0.48333(16) 0.7092(2) 0.83781(19)
H2 H 0.4705 0.7485 0.8958
C5 C 0.5000 0.7693(3) 0.7500
C6 C 0.5000 0.8971(3) 0.7500
C7 C 0.62890(13) 0.19581(19) 0.62439(18)
C8 C 0.69173(13) 0.22373(19) 0.56025(18)
C9 C 0.67694(14) 0.2060(2) 0.45052(19)
H3 H 0.6278 0.1757 0.4169
C10 C 0.76592(14) 0.2675(2) 0.60964(19)
H4 H 0.7770 0.2789 0.6834
C11 C 0.32212(15) 0.0787(2) 0.5819(2)
H5 H 0.3076 0.0642 0.6475
C12 C 0.18143(18) 0.0547(4) 0.5060(4)
H6 H 0.1785 0.0434 0.5799
H7 H 0.1640 -0.0132 0.4662
H8 H 0.1473 0.1172 0.4776
C13 C 0.2801(2) 0.1003(4) 0.3915(3)
H9 H 0.3361 0.1175 0.3965
H10 H 0.2482 0.1633 0.3594
H11 H 0.2666 0.0334 0.3483
O1F O 0.48252(12) 0.35235(13) 0.66175(15)
C4F C 0.51667(16) 0.7092(2) 0.66219(19)
C3F C 0.51426(16) 0.5916(2) 0.6611(2)
H1F H 0.5222 0.5521 0.6006
H2F H 0.5295 0.7485 0.6042
O2F O 0.53441(11) 0.94920(13) 0.68507(13)
C10E C 0.73408(14) 0.2325(2) 0.39036(19)
C8E C 0.80827(13) 0.27627(19) 0.43975(18)
C7E C 0.87110(13) 0.30419(19) 0.37561(18)
O3E O 0.85715(10) 0.28604(17) 0.27672(13)
O4E O 0.93683(10) 0.34498(13) 0.42357(13)
C9E C 0.82306(14) 0.2940(2) 0.54948(19)
H3E H 0.8722 0.3243 0.5831
H4E H 0.7230 0.2211 0.3166
N1F N 0.73586(13) 0.0801(2) 1.00256(19)
O5F O 0.60571(9) 0.09497(16) 0.91739(13)
C11F C 0.67788(15) 0.0787(2) 0.9181(2)
H5F H 0.6924 0.0642 0.8525
C12F C 0.81857(18) 0.0547(4) 0.9940(4)
H6F H 0.8215 0.0434 0.9201
H7F H 0.8360 -0.0132 1.0338
H8F H 0.8527 0.1172 1.0224
C13F C 0.7199(2) 0.1003(4) 1.1085(3)
H9F H 0.6639 0.1175 1.1035
H10F H 0.7518 0.1633 1.1406
H11F H 0.7334 0.0334 1.1517
O2_2 O 0.46559(11) -0.05080(13) 0.81493(13)
O2F_2 O 0.53441(11) -0.05080(13) 0.68507(13)
O3F O 0.35715(10) 0.21396(17) 0.77672(13)
O4F O 0.43683(10) 0.15502(13) 0.92357(13)
O2D O 0.53441(11) 1.05080(13) 1.18507(13)
O4B O 0.56317(10) 0.84498(13) 1.07643(13)
O4F_2 O 0.43683(10) 1.15502(13) 0.92357(13)
O5B O 0.39429(9) 0.90503(16) 1.08261(13)
O5F_2 O 0.60571(9) 1.09497(16) 0.91739(13)
La1_2 La 0.5000 1.156672(12) 0.7500
Na1B Na 0.5000 0.0000 0.5000
Na1B_2 Na 0.5000 1.0000 0.5000
La1C La 1.0000 0.343328(12) 0.2500
Na1C Na 1.0000 0.5000 0.5000
Na1_2 Na 0.5000 0.0000 1.0000
loop_
_geom_bond_atom_site_label_1
_geom_bond_atom_site_label_2
_geom_bond_site_symmetry_1
_geom_bond_site_symmetry_2
La1 O1 1_555 1_555
Na1 O2 1_555 1_555
N1 C11 1_555 1_555
O1 C1 1_555 1_555
O2 C6 1_555 1_555
O3 La1 1_555 1_555
O4 La1 1_555 1_555
O5 La1 1_555 1_555
C1 C2 1_555 1_555
C2 C3 1_555 1_555
C3 H1 1_555 1_555
C4 C3 1_555 1_555
H2 C4 1_555 1_555
C5 C4 1_555 1_555
C6 C5 1_555 1_555
C7 O3 1_555 1_555
C8 C7 1_555 1_555
C9 C8 1_555 1_555
H3 C9 1_555 1_555
C10 C8 1_555 1_555
H4 C10 1_555 1_555
C11 O5 1_555 1_555
H5 C11 1_555 1_555
C12 N1 1_555 1_555
H6 C12 1_555 1_555
H7 C12 1_555 1_555
H8 C12 1_555 1_555
C13 N1 1_555 1_555
H9 C13 1_555 1_555
H10 C13 1_555 1_555
H11 C13 1_555 1_555
O1F La1 1_555 1_555
C4F C5 1_555 1_555
C3F C2 1_555 1_555
H1F C3F 1_555 1_555
H2F C4F 1_555 1_555
O2F C6 1_555 1_555
C10E C9 1_555 1_555
C8E C10E 1_555 1_555
C7E C8E 1_555 1_555
O3E C7E 1_555 1_555
O4E C7E 1_555 1_555
C9E C10 1_555 1_555
H3E C9E 1_555 1_555
H4E C10E 1_555 1_555
N1F C11F 1_555 1_555
O5F La1 1_555 1_555
C11F O5F 1_555 1_555
H5F C11F 1_555 1_555
C12F N1F 1_555 1_555
H6F C12F 1_555 1_555
H7F C12F 1_555 1_555
H8F C12F 1_555 1_555
C13F N1F 1_555 1_555
H9F C13F 1_555 1_555
H10F C13F 1_555 1_555
H11F C13F 1_555 1_555
O2_2 La1 1_555 1_555
O2F_2 La1 1_555 1_555
O3F La1 1_555 1_555
O4F La1 1_555 1_555
O2D Na1 1_555 1_555
O4B Na1 1_555 1_555
O4F_2 Na1 1_555 1_555
O5B Na1 1_555 1_555
O5F_2 Na1 1_555 1_555
La1_2 O2 1_555 1_555
Na1B O4 1_555 1_555
Na1B_2 O2F 1_555 1_555
La1C O3E 1_555 1_555
Na1C O4E 1_555 1_555
Na1_2 O5F 1_555 1_555
O4 C7 1_555 1_555
O5 Na1B 1_555 1_555
C1 O1F 1_555 1_555
C4F C3F 1_555 1_555
O2F La1_2 1_555 1_555
C8E C9E 1_555 1_555
O4E La1C 1_555 1_555
O2_2 Na1_2 1_555 1_555
O2F_2 Na1B 1_555 1_555
O4F Na1_2 1_555 1_555
O4F_2 La1_2 1_555 1_555
O5F_2 La1_2 1_555 1_555

#END
