
#######################################################################
#
#                 Cambridge Crystallographic Data Centre
#                                CCDC 
#
#######################################################################
#
# If this CIF has been generated from an entry in the Cambridge 
# Structural Database, then it will include bibliographic, chemical, 
# crystal, experimental, refinement or atomic coordinate data resulting 
# from the CCDC's data processing and validation procedures.
#
#######################################################################

data_TAFMOD
_symmetry_cell_setting           triclinic
_symmetry_space_group_name_H-M   'P -1'
_symmetry_Int_Tables_number      2
_space_group_name_Hall           '-P 1'
loop_
_symmetry_equiv_pos_site_id
_symmetry_equiv_pos_as_xyz
1 x,y,z
2 -x,-y,-z
_cell_length_a                   11.8055(12)
_cell_length_b                   11.8778(12)
_cell_length_c                   12.1840(13)
_cell_angle_alpha                80.763(2)
_cell_angle_beta                 71.982(2)
_cell_angle_gamma                80.913(2)
_cell_volume                     1592.92
loop_
_atom_site_label
_atom_site_type_symbol
_atom_site_fract_x
_atom_site_fract_y
_atom_site_fract_z
Zn1 Zn 1.0000 -1.0000 0.0000
Zn2 Zn 0.5000 0.5000 -0.5000
O1 O 0.9299(4) -1.0854(3) 0.1715(3)
O2 O 1.1665(3) -1.0111(3) 0.0308(4)
O3 O 0.4553(3) 0.5895(3) -0.6501(3)
O4 O 0.6697(3) 0.5526(4) -0.5632(4)
N1 N 0.5625(3) 0.3478(3) -0.5897(3)
N2 N 0.9473(3) -0.8386(3) 0.0701(3)
N3 N 0.7542(3) -0.0076(3) -0.5135(3)
N4 N 0.7775(3) -0.4959(3) -0.0559(3)
C1 C 0.5066(4) 0.3253(4) -0.6620(5)
C2 C 0.5388(5) 0.2295(5) -0.7196(5)
C3 C 0.6323(4) 0.1509(4) -0.7017(4)
C4 C 0.6907(3) 0.1712(3) -0.6255(3)
C5 C 0.6538(3) 0.2711(3) -0.5732(4)
C6 C 0.7939(4) 0.0905(4) -0.6031(4)
C7 C 0.8585(4) -0.0816(5) -0.4840(5)
C8 C 0.8189(3) -0.1761(4) -0.3899(4)
C9 C 0.8280(4) -0.2873(4) -0.4148(4)
C10 C 0.7884(4) -0.3738(4) -0.3254(4)
C11 C 0.7374(4) -0.3488(4) -0.2128(4)
C12 C 0.7297(4) -0.2381(4) -0.1885(4)
C13 C 0.7702(4) -0.1511(4) -0.2756(4)
C14 C 0.6877(4) -0.4402(4) -0.1181(4)
C15 C 0.7249(4) -0.5832(4) 0.0423(4)
C16 C 0.9925(4) -0.8108(4) 0.1494(3)
C17 C 0.9556(4) -0.7092(4) 0.1980(4)
C18 C 0.8679(4) -0.6328(4) 0.1654(4)
C19 C 0.8210(4) -0.6597(3) 0.0830(3)
C20 C 0.8641(4) -0.7632(3) 0.0381(4)
H1 H 0.696(4) 0.286(4) -0.522(4)
H2 H 0.442(5) 0.385(4) -0.676(4)
H3 H 0.694(5) -0.218(4) -0.126(5)
H4 H 1.047(6) -0.867(6) 0.171(5)
H5 H 0.765(4) -0.074(4) -0.254(4)
H6 H 0.839(4) 0.134(4) -0.573(4)
H7 H 0.835(5) -0.786(5) -0.015(5)
H8 H 0.699(5) 0.019(5) -0.444(5)
H9 H 0.839(4) 0.055(4) -0.661(4)
H10 H 0.713(4) -0.054(4) -0.535(4)
H11 H 0.808(5) -0.446(5) -0.027(6)
H12 H 0.840(5) -0.526(4) -0.102(5)
H13 H 0.628(5) -0.414(5) -0.063(5)
H14 H 0.668(4) -0.533(4) 0.101(4)
H15 H 0.870(4) -0.305(4) -0.496(4)
H16 H 0.677(5) -0.625(4) 0.019(5)
H17 H 0.667(5) -0.500(5) -0.155(5)
H18 H 0.837(5) -0.570(5) 0.201(5)
H19 H 0.793(4) -0.447(5) -0.340(5)
H20 H 0.987(5) -0.690(5) 0.256(5)
H21 H 0.407(5) 0.629(4) -0.661(4)
H22 H 1.203(6) -0.966(5) -0.004(6)
H23 H 0.724(6) 0.518(5) -0.556(5)
H26 H 0.892(6) -0.031(6) -0.468(6)
H28 H 0.490(6) 0.216(5) -0.773(6)
H29 H 0.504(7) 0.619(7) -0.706(7)
H30 H 0.654(6) 0.089(6) -0.732(6)
H32 H 0.912(5) -0.106(5) -0.560(5)
H33 H 1.180(6) -1.041(6) 0.082(7)
H36 H 0.855(11) -1.151(10) 0.181(10)
H37 H 0.955(6) -1.113(6) 0.204(6)
H39 H 0.685(6) 0.591(6) -0.605(6)
O1A O 1.0701(4) -0.9146(3) -0.1715(3)
H36A H 1.145(11) -0.849(10) -0.181(10)
H37A H 1.045(6) -0.887(6) -0.204(6)
O2A O 0.8335(3) -0.9889(3) -0.0308(4)
H22A H 0.797(6) -1.034(5) 0.004(6)
H33A H 0.820(6) -0.959(6) -0.082(7)
N1A N 1.4375(3) -2.3478(3) 0.5897(3)
N2A N 1.0527(3) -1.1614(3) -0.0701(3)
N3A N 1.2458(3) -1.9924(3) 0.5135(3)
N4A N 1.2225(3) -1.5041(3) 0.0559(3)
C1A C 1.4934(4) -2.3253(4) 0.6620(5)
C2A C 1.4612(5) -2.2295(5) 0.7196(5)
C3A C 1.3677(4) -2.1509(4) 0.7017(4)
C4A C 1.3093(3) -2.1712(3) 0.6255(3)
C5A C 1.3462(3) -2.2711(3) 0.5732(4)
C6A C 1.2061(4) -2.0905(4) 0.6031(4)
C7A C 1.1415(4) -1.9184(5) 0.4840(5)
C8A C 1.1811(3) -1.8239(4) 0.3899(4)
C9A C 1.1720(4) -1.7127(4) 0.4148(4)
C10A C 1.2116(4) -1.6262(4) 0.3254(4)
C11A C 1.2626(4) -1.6512(4) 0.2128(4)
C12A C 1.2703(4) -1.7619(4) 0.1885(4)
C13A C 1.2298(4) -1.8489(4) 0.2756(4)
C14A C 1.3123(4) -1.5598(4) 0.1181(4)
C15A C 1.2751(4) -1.4168(4) -0.0423(4)
C16A C 1.0075(4) -1.1892(4) -0.1494(3)
C17A C 1.0444(4) -1.2908(4) -0.1980(4)
C18A C 1.1321(4) -1.3672(4) -0.1654(4)
C19A C 1.1790(4) -1.3403(3) -0.0830(3)
C20A C 1.1359(4) -1.2368(3) -0.0381(4)
H1A H 1.304(4) -2.286(4) 0.522(4)
H2A H 1.558(5) -2.385(4) 0.676(4)
H3A H 1.306(5) -1.782(4) 0.126(5)
H4A H 0.953(6) -1.133(6) -0.171(5)
H5A H 1.235(4) -1.926(4) 0.254(4)
H6A H 1.161(4) -2.134(4) 0.573(4)
H7A H 1.165(5) -1.214(5) 0.015(5)
H8A H 1.301(5) -2.019(5) 0.444(5)
H9A H 1.161(4) -2.055(4) 0.661(4)
H10A H 1.287(4) -1.946(4) 0.535(4)
H11A H 1.192(5) -1.554(5) 0.027(6)
H12A H 1.160(5) -1.474(4) 0.102(5)
H13A H 1.372(5) -1.586(5) 0.063(5)
H14A H 1.332(4) -1.467(4) -0.101(4)
H15A H 1.130(4) -1.695(4) 0.496(4)
H16A H 1.323(5) -1.375(4) -0.019(5)
H17A H 1.333(5) -1.500(5) 0.155(5)
H18A H 1.163(5) -1.430(5) -0.201(5)
H19A H 1.207(4) -1.553(5) 0.340(5)
H20A H 1.013(5) -1.310(5) -0.256(5)
H26A H 1.108(6) -1.969(6) 0.468(6)
H28A H 1.510(6) -2.216(5) 0.773(6)
H30A H 1.346(6) -2.089(6) 0.732(6)
H32A H 1.088(5) -1.894(5) 0.560(5)
O3A O 0.5447(3) 0.4105(3) -0.3499(3)
H21A H 0.593(5) 0.371(4) -0.339(4)
H29A H 0.496(7) 0.381(7) -0.294(7)
O4A O 0.3303(3) 0.4474(4) -0.4368(4)
H23A H 0.276(6) 0.482(5) -0.444(5)
H39A H 0.315(6) 0.409(6) -0.395(6)
N1A_2 N 0.4375(3) 0.6522(3) -0.4103(3)
Zn2_2 Zn 1.5000 -2.5000 0.5000
S1 S 0.74040(9) -1.28271(9) 0.13816(9)
O5 O 0.8396(3) -1.3473(3) 0.0603(3)
O6 O 0.6320(3) -1.3377(4) 0.1619(4)
O7 O 0.7178(4) -1.1664(3) 0.0842(4)
O8 O 0.7712(5) -1.2788(5) 0.2433(4)
S2 S 1.17786(10) -1.22665(10) 0.29248(10)
O9 O 1.1619(13) -1.1176(6) 0.2436(8)
O10 O 1.2359(18) -1.2225(9) 0.3686(12)
O11 O 1.0717(6) -1.2677(10) 0.3227(12)
O12 O 1.2511(7) -1.3061(10) 0.2152(16)
O13 O 0.5791(4) 1.0817(4) 0.6731(4)
H25 H 0.539(5) 1.055(5) 0.735(5)
H44 H 0.633(9) 1.099(16) 0.676(17)
O14 O 1.0118(4) -0.4284(4) 0.2244(5)
H24 H 1.021(5) -0.389(4) 0.248(4)
H38 H 0.969(6) -0.405(6) 0.178(6)
O15 O 1.1212(5) -1.4361(6) 0.5524(6)
H35 H 1.095(6) -1.473(5) 0.536(6)
H40 H 1.035(9) -1.435(8) 0.623(9)
O16 O 1.4576(5) -1.2332(6) 0.0400(4)
H27 H 1.391(9) -1.180(8) 0.068(8)
H31 H 1.515(7) -1.237(6) 0.095(7)
O17 O 0.4713(6) 0.9770(6) 0.8824(5)
H34 H 0.459(5) 0.933(4) 0.921(5)
H43 H 0.402(8) 1.044(8) 0.930(8)
O18 O 0.6322(4) 0.8630(4) 0.4039(4)
H41 H 0.556(7) 0.890(6) 0.389(6)
H42 H 0.685(5) 0.798(5) 0.357(5)
loop_
_geom_bond_atom_site_label_1
_geom_bond_atom_site_label_2
_geom_bond_site_symmetry_1
_geom_bond_site_symmetry_2
Zn1 O1 1_555 1_555
Zn2 O3 1_555 1_555
S1 O5 1_555 1_555
S2 O9 1_555 1_555
O1 H36 1_555 1_555
O2 Zn1 1_555 1_555
O3 H21 1_555 1_555
O4 Zn2 1_555 1_555
O6 S1 1_555 1_555
O7 S1 1_555 1_555
O8 S1 1_555 1_555
O10 S2 1_555 1_555
O11 S2 1_555 1_555
O12 S2 1_555 1_555
O13 H25 1_555 1_555
O14 H24 1_555 1_555
O15 H35 1_555 1_555
O16 H27 1_555 1_555
O17 H34 1_555 1_555
O18 H41 1_555 1_555
N1 Zn2 1_555 1_555
N2 Zn1 1_555 1_555
N3 C6 1_555 1_555
N4 C14 1_555 1_555
C1 N1 1_555 1_555
C2 C1 1_555 1_555
C3 C2 1_555 1_555
C4 C3 1_555 1_555
C5 N1 1_555 1_555
C6 C4 1_555 1_555
C7 N3 1_555 1_555
C8 C7 1_555 1_555
C9 C8 1_555 1_555
C10 C9 1_555 1_555
C11 C10 1_555 1_555
C12 C11 1_555 1_555
C13 C8 1_555 1_555
C14 C11 1_555 1_555
C15 N4 1_555 1_555
C16 N2 1_555 1_555
C17 C16 1_555 1_555
C18 C17 1_555 1_555
C19 C15 1_555 1_555
C20 N2 1_555 1_555
H1 C5 1_555 1_555
H2 C1 1_555 1_555
H3 C12 1_555 1_555
H4 C16 1_555 1_555
H5 C13 1_555 1_555
H6 C6 1_555 1_555
H7 C20 1_555 1_555
H8 N3 1_555 1_555
H9 C6 1_555 1_555
H10 N3 1_555 1_555
H11 N4 1_555 1_555
H12 N4 1_555 1_555
H13 C14 1_555 1_555
H14 C15 1_555 1_555
H15 C9 1_555 1_555
H16 C15 1_555 1_555
H17 C14 1_555 1_555
H18 C18 1_555 1_555
H19 C10 1_555 1_555
H20 C17 1_555 1_555
H22 O2 1_555 1_555
H23 O4 1_555 1_555
H26 C7 1_555 1_555
H28 C2 1_555 1_555
H29 O3 1_555 1_555
H30 C3 1_555 1_555
H31 O16 1_555 1_555
H32 C7 1_555 1_555
H33 O2 1_555 1_555
H37 O1 1_555 1_555
H38 O14 1_555 1_555
H39 O4 1_555 1_555
H40 O15 1_555 1_555
H42 O18 1_555 1_555
H43 O17 1_555 1_555
H44 O13 1_555 1_555
O1A Zn1 1_555 1_555
H36A O1A 1_555 1_555
H37A O1A 1_555 1_555
O2A Zn1 1_555 1_555
H22A O2A 1_555 1_555
H33A O2A 1_555 1_555
N1A C1A 1_555 1_555
N2A Zn1 1_555 1_555
N3A C6A 1_555 1_555
N4A C14A 1_555 1_555
C1A C2A 1_555 1_555
C2A C3A 1_555 1_555
C3A C4A 1_555 1_555
C4A C5A 1_555 1_555
C5A N1A 1_555 1_555
C6A C4A 1_555 1_555
C7A N3A 1_555 1_555
C8A C7A 1_555 1_555
C9A C8A 1_555 1_555
C10A C9A 1_555 1_555
C11A C10A 1_555 1_555
C12A C11A 1_555 1_555
C13A C8A 1_555 1_555
C14A C11A 1_555 1_555
C15A N4A 1_555 1_555
C16A N2A 1_555 1_555
C17A C16A 1_555 1_555
C18A C17A 1_555 1_555
C19A C15A 1_555 1_555
C20A N2A 1_555 1_555
H1A C5A 1_555 1_555
H2A C1A 1_555 1_555
H3A C12A 1_555 1_555
H4A C16A 1_555 1_555
H5A C13A 1_555 1_555
H6A C6A 1_555 1_555
H7A C20A 1_555 1_555
H8A N3A 1_555 1_555
H9A C6A 1_555 1_555
H10A N3A 1_555 1_555
H11A N4A 1_555 1_555
H12A N4A 1_555 1_555
H13A C14A 1_555 1_555
H14A C15A 1_555 1_555
H15A C9A 1_555 1_555
H16A C15A 1_555 1_555
H17A C14A 1_555 1_555
H18A C18A 1_555 1_555
H19A C10A 1_555 1_555
H20A C17A 1_555 1_555
H26A C7A 1_555 1_555
H28A C2A 1_555 1_555
H30A C3A 1_555 1_555
H32A C7A 1_555 1_555
O3A Zn2 1_555 1_555
H21A O3A 1_555 1_555
H29A O3A 1_555 1_555
O4A Zn2 1_555 1_555
H23A O4A 1_555 1_555
H39A O4A 1_555 1_555
N1A_2 Zn2 1_555 1_555
Zn2_2 N1A 1_555 1_555
C4 C5 1_555 1_555
C12 C13 1_555 1_555
C18 C19 1_555 1_555
C19 C20 1_555 1_555
C12A C13A 1_555 1_555
C18A C19A 1_555 1_555
C19A C20A 1_555 1_555

#END
