
#######################################################################
#
#                 Cambridge Crystallographic Data Centre
#                                CCDC 
#
#######################################################################
#
# If this CIF has been generated from an entry in the Cambridge 
# Structural Database, then it will include bibliographic, chemical, 
# crystal, experimental, refinement or atomic coordinate data resulting 
# from the CCDC's data processing and validation procedures.
#
#######################################################################

data_TAFNEU
_symmetry_cell_setting           monoclinic
_symmetry_space_group_name_H-M   'P 21/c'
_symmetry_Int_Tables_number      14
_space_group_name_Hall           '-P 2ybc'
loop_
_symmetry_equiv_pos_site_id
_symmetry_equiv_pos_as_xyz
1 x,y,z
2 x,1/2-y,1/2+z
3 -x,-y,-z
4 -x,1/2+y,1/2-z
_cell_length_a                   12.5705(18)
_cell_length_b                   16.078(2)
_cell_length_c                   9.1921(13)
_cell_angle_alpha                90
_cell_angle_beta                 95.010(3)
_cell_angle_gamma                90
_cell_volume                     1850.7
loop_
_atom_site_label
_atom_site_type_symbol
_atom_site_fract_x
_atom_site_fract_y
_atom_site_fract_z
Zn1 Zn 0.25412(3) -0.11816(3) -0.24038(4)
O1 O 0.4437(3) -0.12201(19) -0.2792(4)
N1 N 0.2438(2) -0.31555(19) 0.0624(3)
N2 N 0.2209(2) -0.00395(19) -0.3561(3)
C1 C 0.1238(3) 0.0289(2) -0.3474(4)
C2 C 0.2863(3) -0.2457(2) 0.0150(4)
N3 N 0.1776(3) -0.3430(2) -0.0492(4)
C3 C 0.3719(3) -0.1960(3) 0.0982(5)
H1 H 0.3693 -0.2072 0.2015
H2 H 0.4407 -0.2151 0.0711
N4 N 0.0895(3) -0.0888(2) -0.2011(4)
C4 C 0.0529(3) -0.0163(3) -0.2560(4)
C5 C 0.2873(4) 0.0324(3) -0.4436(5)
H3 H 0.3546 0.0092 -0.4490
C6 C 0.0920(4) 0.0999(3) -0.4247(6)
H4 H 0.0246 0.1224 -0.4165
C7 C 0.2614(4) 0.1016(3) -0.5253(6)
H5 H 0.3091 0.1245 -0.5861
C8 C 0.1612(4) 0.1368(3) -0.5141(6)
H6 H 0.1411 0.1847 -0.5663
C9 C -0.1104(4) -0.0312(4) -0.1443(7)
H7 H -0.1774 -0.0116 -0.1253
C10 C 0.0271(4) -0.1326(3) -0.1189(6)
H8 H 0.0521 -0.1832 -0.0805
C11 C -0.0735(4) -0.1059(4) -0.0885(7)
H9 H -0.1151 -0.1380 -0.0313
C12 C -0.0466(4) 0.0140(4) -0.2289(6)
H10 H -0.0701 0.0648 -0.2678
N5 N 0.1803(3) -0.2920(2) -0.1590(4)
N6 N 0.2491(3) -0.22966(19) -0.1208(3)
C13 C 0.3653(3) -0.1048(2) 0.0752(4)
N7 N 0.3264(2) -0.06603(18) -0.0463(3)
N8 N 0.4072(3) -0.0517(2) 0.1738(4)
N9 N 0.3967(3) 0.0223(3) 0.1095(5)
N10 N 0.3471(3) 0.0149(2) -0.0216(4)
Zn1A Zn 0.25412(3) -0.38184(3) 0.25962(4)
N1A N 0.2438(2) -0.18445(19) -0.4376(3)
O2 O 0.4815(3) -0.3762(2) -0.0614(4)
O3 O 0.6045(3) -0.2577(2) 0.3472(4)
O4 O 0.2973(3) -0.6817(2) 0.3917(4)
loop_
_geom_bond_atom_site_label_1
_geom_bond_atom_site_label_2
_geom_bond_site_symmetry_1
_geom_bond_site_symmetry_2
Zn1 O1 1_555 1_555
N1 C2 1_555 1_555
N2 Zn1 1_555 1_555
C1 N2 1_555 1_555
C2 C3 1_555 1_555
N3 N1 1_555 1_555
C3 H1 1_555 1_555
H2 C3 1_555 1_555
N4 Zn1 1_555 1_555
C4 C1 1_555 1_555
C5 N2 1_555 1_555
H3 C5 1_555 1_555
C6 C1 1_555 1_555
H4 C6 1_555 1_555
C7 C5 1_555 1_555
H5 C7 1_555 1_555
C8 C6 1_555 1_555
H6 C8 1_555 1_555
C9 H7 1_555 1_555
C10 N4 1_555 1_555
H8 C10 1_555 1_555
C11 C9 1_555 1_555
H9 C11 1_555 1_555
C12 C4 1_555 1_555
H10 C12 1_555 1_555
N5 N3 1_555 1_555
N6 Zn1 1_555 1_555
C13 C3 1_555 1_555
N7 Zn1 1_555 1_555
N8 C13 1_555 1_555
N9 N8 1_555 1_555
N10 N7 1_555 1_555
Zn1A N1 1_555 1_555
N1A Zn1 1_555 1_555
C2 N6 1_555 1_555
N4 C4 1_555 1_555
C7 C8 1_555 1_555
C9 C12 1_555 1_555
C10 C11 1_555 1_555
N5 N6 1_555 1_555
C13 N7 1_555 1_555
N9 N10 1_555 1_555

#END
