
#######################################################################
#
#                 Cambridge Crystallographic Data Centre
#                                CCDC 
#
#######################################################################
#
# If this CIF has been generated from an entry in the Cambridge 
# Structural Database, then it will include bibliographic, chemical, 
# crystal, experimental, refinement or atomic coordinate data resulting 
# from the CCDC's data processing and validation procedures.
#
#######################################################################

data_TAFPOG
_symmetry_cell_setting           triclinic
_symmetry_space_group_name_H-M   'P -1'
_symmetry_Int_Tables_number      2
_space_group_name_Hall           '-P 1'
loop_
_symmetry_equiv_pos_site_id
_symmetry_equiv_pos_as_xyz
1 x,y,z
2 -x,-y,-z
_cell_length_a                   8.6110(10)
_cell_length_b                   9.0960(10)
_cell_length_c                   11.3710(10)
_cell_angle_alpha                104.8110(10)
_cell_angle_beta                 111.3680(10)
_cell_angle_gamma                94.2480(10)
_cell_volume                     787.908
loop_
_atom_site_label
_atom_site_type_symbol
_atom_site_fract_x
_atom_site_fract_y
_atom_site_fract_z
P1 P 0.17090(9) 0.48318(8) 0.18037(7)
P2 P 0.22918(9) 0.46388(8) 0.66575(7)
P3 P -0.14070(10) -0.00776(9) 0.20976(9)
Al1 Al 0.04841(11) 0.32627(10) 0.35600(8)
Al2 Al 0.17332(10) 0.36380(9) -0.10345(8)
O1 O 0.1904(2) 0.3684(2) 0.0657(2)
O2 O 0.0261(3) 0.5667(2) 0.1378(2)
O3 O 0.3325(3) 0.6120(3) 0.2576(2)
O4 O 0.1553(3) 0.3956(3) 0.2742(2)
O5 O 0.4180(2) 0.5225(2) 0.7338(2)
O6 O 0.1795(3) 0.3693(3) 0.5206(2)
O7 O 0.1679(3) 0.3572(2) 0.7302(2)
O8 O 0.1395(3) 0.6044(2) 0.6688(2)
O9 O -0.0766(2) -0.1540(2) 0.1656(2)
O10 O 0.0129(3) 0.1244(2) 0.2921(2)
O11 O -0.2250(5) -0.0335(4) 0.3061(4)
O12 O -0.2672(3) 0.0331(3) 0.0990(3)
O13 O 0.4088(2) 0.3068(2) -0.0573(2)
O14 O 0.6838(2) 0.4241(2) 0.0260(2)
C1 C 0.5263(3) 0.4219(3) -0.0092(3)
H1 H 0.403(8) 0.581(7) 0.265(6)
H2 H -0.177(14) 0.038(11) 0.371(9)
C1A C 0.4737(3) 0.5781(3) 0.0092(3)
O13A O 0.5912(2) 0.6932(2) 0.0573(2)
O14A O 0.3162(2) 0.5759(2) -0.0260(2)
P2A P -0.22918(9) 0.53612(8) 0.33425(7)
O5A O -0.4180(2) 0.4775(2) 0.2662(2)
O6A O -0.1795(3) 0.6307(3) 0.4794(2)
O7A O -0.1679(3) 0.6428(2) 0.2698(2)
O8A O -0.1395(3) 0.3956(2) 0.3312(2)
Al1A Al -0.04841(11) 0.67373(10) 0.64400(8)
Al2A Al -0.17332(10) 0.63620(9) 0.10345(8)
P1A P -0.17090(9) 0.51682(8) -0.18037(7)
O1A O -0.1904(2) 0.6316(2) -0.0657(2)
O2A O -0.0261(3) 0.4333(2) -0.1378(2)
O3A O -0.3325(3) 0.3880(3) -0.2576(2)
O4A O -0.1553(3) 0.6044(3) -0.2742(2)
H1A H -0.403(8) 0.419(7) -0.265(6)
P3A P 0.14070(10) 0.00776(9) -0.20976(9)
O9A O 0.0766(2) 0.1540(2) -0.1656(2)
O10A O -0.0129(3) -0.1244(2) -0.2921(2)
O11A O 0.2250(5) 0.0335(4) -0.3061(4)
O12A O 0.2672(3) -0.0331(3) -0.0990(3)
H2A H 0.177(14) -0.038(11) -0.371(9)
O7_2 O 0.1679(3) 0.3572(2) -0.2698(2)
Al2_2 Al 0.17332(10) 0.36380(9) 0.89655(8)
Al2A_2 Al -0.17332(10) -0.36380(9) 0.10345(8)
Al2A_3 Al 0.82668(10) 0.63620(9) 0.10345(8)
O4A_2 O -0.1553(3) 0.6044(3) 0.7258(2)
O10A_2 O -0.0129(3) 0.8756(2) 0.7079(2)
O9_2 O -0.0766(2) 0.8460(2) 0.1656(2)
O13A_2 O -0.4088(2) 0.6932(2) 0.0573(2)
O14_2 O -0.3162(2) 0.4241(2) 0.0260(2)
Al1A_2 Al -0.04841(11) 0.67373(10) -0.35600(8)
Al1A_3 Al -0.04841(11) -0.32627(10) -0.35600(8)
C2 C 0.3538(6) -0.0636(5) 0.2188(5)
C3 C 0.3799(5) 0.1105(4) 0.2481(4)
C4 C 0.4862(9) 0.1900(6) 0.3930(5)
N1 N 0.2141(5) -0.1483(4) 0.0895(5)
N2 N 0.4639(4) 0.1607(4) 0.1671(3)
H3 H 0.227(6) -0.103(6) 0.024(5)
H4 H 0.225(7) -0.239(7) 0.063(5)
H5 H 0.125(9) -0.150(8) 0.102(7)
H6 H 0.557(5) 0.125(4) 0.175(4)
H7 H 0.393(7) 0.125(6) 0.077(6)
H8 H 0.494(5) 0.263(5) 0.197(4)
H9 H 0.322(6) -0.089(6) 0.289(5)
H10 H 0.453(6) -0.099(6) 0.217(5)
H11 H 0.270(6) 0.142(5) 0.221(5)
H12 H 0.507(6) 0.304(6) 0.421(5)
H13 H 0.421(7) 0.172(7) 0.442(6)
H14 H 0.606(8) 0.166(7) 0.423(6)
O15 O 0.1288(14) -0.1083(15) 0.4583(9)
loop_
_geom_bond_atom_site_label_1
_geom_bond_atom_site_label_2
_geom_bond_site_symmetry_1
_geom_bond_site_symmetry_2
P1 O1 1_555 1_555
P2 O5 1_555 1_555
P3 O9 1_555 1_555
Al1 O4 1_555 1_555
Al2 O1 1_555 1_555
O2 P1 1_555 1_555
O3 P1 1_555 1_555
O4 P1 1_555 1_555
O6 P2 1_555 1_555
O7 P2 1_555 1_555
O8 P2 1_555 1_555
O9 Al2A_2 1_555 1_555
O10 P3 1_555 1_555
O11 P3 1_555 1_555
O12 P3 1_555 1_555
O13 Al2 1_555 1_555
O14 C1 1_555 1_555
C1 O13 1_555 1_555
C2 C3 1_555 1_555
C3 C4 1_555 1_555
C4 H12 1_555 1_555
N1 C2 1_555 1_555
N2 C3 1_555 1_555
H1 O3 1_555 1_555
H2 O11 1_555 1_555
H3 N1 1_555 1_555
H4 N1 1_555 1_555
H5 N1 1_555 1_555
H6 N2 1_555 1_555
H7 N2 1_555 1_555
H8 N2 1_555 1_555
H9 C2 1_555 1_555
H10 C2 1_555 1_555
H11 C3 1_555 1_555
H13 C4 1_555 1_555
H14 C4 1_555 1_555
C1A C1 1_555 1_555
O13A C1A 1_555 1_555
O14A Al2 1_555 1_555
P2A O5A 1_555 1_555
O6A P2A 1_555 1_555
O7A P2A 1_555 1_555
O8A Al1 1_555 1_555
Al1A O8 1_555 1_555
Al2A O2 1_555 1_555
P1A O1A 1_555 1_555
O1A Al2A 1_555 1_555
O2A Al2 1_555 1_555
O3A P1A 1_555 1_555
O4A P1A 1_555 1_555
H1A O3A 1_555 1_555
P3A O9A 1_555 1_555
O9A Al2 1_555 1_555
O10A P3A 1_555 1_555
O11A P3A 1_555 1_555
O12A P3A 1_555 1_555
H2A O11A 1_555 1_555
O7_2 Al2 1_555 1_555
Al2_2 O7 1_555 1_555
Al2A_3 O14 1_555 1_555
O4A_2 Al1A 1_555 1_555
O10A_2 Al1A 1_555 1_555
O9_2 Al2A 1_555 1_555
O13A_2 Al2A 1_555 1_555
O14_2 Al2A 1_555 1_555
Al1A_2 O4A 1_555 1_555
Al1A_3 O10A 1_555 1_555
Al1 O6 1_555 1_555
Al1 O10 1_555 1_555
C1A O14A 1_555 1_555
O13A Al2A_3 1_555 1_555
P2A O8A 1_555 1_555
O6A Al1A 1_555 1_555
O7A Al2A 1_555 1_555
P1A O2A 1_555 1_555

#END
