
#######################################################################
#
#                 Cambridge Crystallographic Data Centre
#                                CCDC 
#
#######################################################################
#
# If this CIF has been generated from an entry in the Cambridge 
# Structural Database, then it will include bibliographic, chemical, 
# crystal, experimental, refinement or atomic coordinate data resulting 
# from the CCDC's data processing and validation procedures.
#
#######################################################################

data_TAFREZ
_symmetry_cell_setting           monoclinic
_symmetry_space_group_name_H-M   'C 2/c'
_symmetry_Int_Tables_number      15
_space_group_name_Hall           '-C 2yn'
loop_
_symmetry_equiv_pos_site_id
_symmetry_equiv_pos_as_xyz
1 x,y,z
2 -x,y,1/2-z
3 1/2+x,1/2+y,z
4 1/2-x,1/2+y,1/2-z
5 -x,-y,-z
6 x,-y,1/2+z
7 1/2-x,1/2-y,-z
8 1/2+x,1/2-y,1/2+z
_cell_length_a                   15.787(2)
_cell_length_b                   12.3934(16)
_cell_length_c                   20.928(3)
_cell_angle_alpha                90
_cell_angle_beta                 102.886(2)
_cell_angle_gamma                90
_cell_volume                     3991.54
loop_
_atom_site_label
_atom_site_type_symbol
_atom_site_fract_x
_atom_site_fract_y
_atom_site_fract_z
Co1 Co 0.14130(2) 0.75556(3) 0.031896(18)
O1 O 0.19393(13) 0.85606(16) -0.02535(10)
O3 O 0.31252(12) 0.89707(16) -0.05997(10)
O6 O -0.03293(14) 1.27944(17) -0.08480(11)
O7 O -0.03321(15) 1.13418(19) -0.02616(13)
N1 N 0.06733(16) 0.6842(2) -0.05609(12)
N2 N -0.10230(18) 0.5481(2) -0.21960(13)
H3 H -0.097(3) 0.4789(17) -0.2247(19)
N3 N -0.27843(16) 0.6760(2) -0.38256(12)
C1 C 0.0375(3) 0.7426(3) -0.11033(18)
H4 H 0.0567 0.8152 -0.1107
C2 C -0.0191(2) 0.7045(3) -0.16558(17)
H5 H -0.0384 0.7502 -0.2024
C3 C -0.0478(2) 0.5976(3) -0.16678(15)
C4 C -0.0154(2) 0.5354(2) -0.11086(15)
H6 H -0.0321 0.4620 -0.1095
C5 C 0.04078(19) 0.5810(2) -0.05789(15)
H7 H 0.0619 0.5370 -0.0205
C6 C -0.2504(2) 0.7355(3) -0.32827(16)
H8 H -0.2717 0.8072 -0.3281
C7 C -0.1928(2) 0.6998(3) -0.27276(15)
H9 H -0.1759 0.7456 -0.2357
C8 C -0.1594(2) 0.5946(3) -0.27188(15)
C9 C -0.1898(2) 0.5314(3) -0.32725(16)
H10 H -0.1705 0.4590 -0.3286
C10 C -0.2482(2) 0.5744(3) -0.38032(15)
H11 H -0.2681 0.5295 -0.4174
C11 C 0.20793(18) 1.0352(2) -0.06095(14)
C12 C 0.12557(18) 1.0628(2) -0.05284(14)
H12 H 0.0909 1.0104 -0.0375
C13 C 0.09379(18) 1.1671(2) -0.06711(14)
C14 C 0.1458(2) 1.2443(2) -0.0874(2)
H13 H 0.1242 1.3154 -0.0971
C15 C 0.2292(2) 1.2184(3) -0.0935(2)
H14 H 0.2651 1.2720 -0.1064
C16 C 0.2602(2) 1.1134(3) -0.08054(18)
H15 H 0.3170 1.0952 -0.0851
C17 C 0.24025(17) 0.9210(2) -0.04742(12)
C18 C 0.00404(18) 1.1949(2) -0.05912(14)
Co1F Co 0.35870(2) 0.74444(3) -0.031896(18)
Co1D Co -0.14130(2) 1.24444(3) -0.031896(18)
Co1G Co -0.35870(2) 0.74444(3) -0.468104(18)
O3F O 0.18748(12) 0.60293(16) 0.05997(10)
O6D O 0.03293(14) 0.72056(17) 0.08480(11)
O7D O 0.03321(15) 0.86582(19) 0.02616(13)
N3G N 0.22157(16) 0.8240(2) 0.11744(12)
O2 O -0.0715(2) 1.3185(3) -0.22088(14)
H1 H -0.045(3) 1.310(4) -0.1806(11)
H2 H -0.077(4) 1.255(2) -0.237(2)
O4 O -0.0809(4) 0.9339(5) -0.1003(3)
O5 O -0.0865(14) 1.093(2) -0.2746(11)
O8? O -0.0376(11) 0.9635(11) -0.2181(5)
O9? O -0.1258(11) 1.0124(14) -0.2549(8)
O10? O -0.1274(12) 1.103(2) -0.2671(10)
loop_
_geom_bond_atom_site_label_1
_geom_bond_atom_site_label_2
_geom_bond_site_symmetry_1
_geom_bond_site_symmetry_2
Co1 O1 1_555 1_555
O1 C17 1_555 1_555
O2 H1 1_555 1_555
H2 O2 1_555 1_555
O3 C17 1_555 1_555
O6 C18 1_555 1_555
O7 C18 1_555 1_555
N1 Co1 1_555 1_555
N2 H3 1_555 1_555
N3 C6 1_555 1_555
C1 N1 1_555 1_555
H4 C1 1_555 1_555
C2 C1 1_555 1_555
H5 C2 1_555 1_555
C3 N2 1_555 1_555
C4 C3 1_555 1_555
H6 C4 1_555 1_555
C5 N1 1_555 1_555
H7 C5 1_555 1_555
C6 H8 1_555 1_555
C7 C6 1_555 1_555
H9 C7 1_555 1_555
C8 N2 1_555 1_555
C9 C8 1_555 1_555
H10 C9 1_555 1_555
C10 N3 1_555 1_555
H11 C10 1_555 1_555
C11 C12 1_555 1_555
C12 H12 1_555 1_555
C13 C12 1_555 1_555
C14 C13 1_555 1_555
H13 C14 1_555 1_555
C15 C14 1_555 1_555
H14 C15 1_555 1_555
C16 C11 1_555 1_555
H15 C16 1_555 1_555
C17 C11 1_555 1_555
C18 C13 1_555 1_555
Co1F O3 1_555 1_555
Co1D O6 1_555 1_555
Co1G N3 1_555 1_555
O3F Co1 1_555 1_555
O6D Co1 1_555 1_555
O7D Co1 1_555 1_555
N3G Co1 1_555 1_555
O7 Co1D 1_555 1_555
C2 C3 1_555 1_555
C4 C5 1_555 1_555
C7 C8 1_555 1_555
C9 C10 1_555 1_555
C15 C16 1_555 1_555

#END
