
#######################################################################
#
#                 Cambridge Crystallographic Data Centre
#                                CCDC 
#
#######################################################################
#
# If this CIF has been generated from an entry in the Cambridge 
# Structural Database, then it will include bibliographic, chemical, 
# crystal, experimental, refinement or atomic coordinate data resulting 
# from the CCDC's data processing and validation procedures.
#
#######################################################################

data_TAFRAV
_symmetry_cell_setting           monoclinic
_symmetry_space_group_name_H-M   'P 21/c'
_symmetry_Int_Tables_number      14
_space_group_name_Hall           '-P 2ybc'
loop_
_symmetry_equiv_pos_site_id
_symmetry_equiv_pos_as_xyz
1 x,y,z
2 -x,1/2+y,1/2-z
3 -x,-y,-z
4 x,1/2-y,1/2+z
_cell_length_a                   8.8309(11)
_cell_length_b                   14.8164(18)
_cell_length_c                   14.8547(18)
_cell_angle_alpha                90
_cell_angle_beta                 106.6450(10)
_cell_angle_gamma                90
_cell_volume                     1862.18
loop_
_atom_site_label
_atom_site_type_symbol
_atom_site_fract_x
_atom_site_fract_y
_atom_site_fract_z
Co1 Co 0.35935(2) 0.409093(13) 0.096322(14)
O1 O 0.60279(13) 0.45574(7) 0.13109(7)
O2 O 0.50958(13) 0.40128(7) 0.24125(8)
O3 O 0.71507(17) 0.76632(9) 0.58143(9)
O4 O 0.55346(12) 0.78573(7) 0.43727(7)
O5 O 0.24166(13) 0.43350(8) -0.04435(8)
H1 H 0.290(2) 0.4701(11) -0.0724(12)
H2 H 0.251(2) 0.3804(10) -0.0676(13)
N1 N 0.16028(15) 0.34487(8) 0.11950(9)
N2 N -0.24162(16) 0.25230(9) 0.18767(9)
H3 H -0.3320(19) 0.2659(12) 0.1492(12)
N3 N -0.29458(15) 0.04288(9) 0.36601(9)
C1 C 0.65634(19) 0.57149(11) 0.49696(12)
C2 C 0.66595(19) 0.55421(12) 0.40656(11)
H4 H 0.6072 0.5909 0.3562
C3 C 0.75847(19) 0.48514(12) 0.38776(12)
C4 C 0.7462(2) 0.51840(11) 0.57025(11)
H5 H 0.7438 0.5296 0.6328
C5 C 0.8390(2) 0.44938(12) 0.55226(12)
H6 H 0.8998 0.4135 0.6028
C6 C 0.8444(2) 0.43181(12) 0.46179(13)
H7 H 0.9068 0.3833 0.4503
C7 C 0.5466(2) 0.64400(11) 0.51357(12)
H8 H 0.5282 0.6338 0.5755
H9 H 0.4435 0.6390 0.4649
C8 C 0.61129(19) 0.73898(11) 0.51122(11)
C9 C 0.7691(2) 0.47045(14) 0.28908(12)
H10 H 0.8518 0.4247 0.2915
H11 H 0.8042 0.5275 0.2668
C10 C 0.61803(18) 0.44015(10) 0.21730(11)
C11 C 0.01701(19) 0.34181(11) 0.05586(11)
H12 H 0.0080 0.3619 -0.0062
C12 C -0.11708(19) 0.31116(11) 0.07554(11)
H13 H -0.2156 0.3111 0.0281
C13 C -0.10706(18) 0.28029(10) 0.16551(11)
C14 C 0.04108(18) 0.28346(11) 0.23217(11)
H14 H 0.0534 0.2639 0.2948
C15 C 0.16881(18) 0.31518(10) 0.20621(11)
H15 H 0.2688 0.3161 0.2523
C16 C -0.39894(19) 0.11127(11) 0.34109(12)
H16 H -0.4903 0.1097 0.3627
C17 C -0.38146(18) 0.18301(11) 0.28644(11)
H17 H -0.4593 0.2292 0.2709
C18 C -0.24777(18) 0.18753(10) 0.25379(10)
C19 C -0.13200(18) 0.12211(11) 0.28683(11)
H18 H -0.0341 0.1257 0.2724
C20 C -0.16102(18) 0.05224(11) 0.34060(11)
H19 H -0.0813 0.0076 0.3611
Co1A Co -0.35935(2) -0.090907(13) 0.403678(14)
Co1A_2 Co 0.64065(2) 0.909093(13) 0.403678(14)
O4A O 0.44654(12) 0.28573(7) 0.06273(7)
N3A N 0.29458(15) 0.54288(9) 0.13399(9)
loop_
_geom_bond_atom_site_label_1
_geom_bond_atom_site_label_2
_geom_bond_site_symmetry_1
_geom_bond_site_symmetry_2
Co1 O1 1_555 1_555
O1 C10 1_555 1_555
O2 Co1 1_555 1_555
O3 C8 1_555 1_555
O4 C8 1_555 1_555
O5 Co1 1_555 1_555
H1 O5 1_555 1_555
H2 O5 1_555 1_555
N1 Co1 1_555 1_555
N2 H3 1_555 1_555
N3 C16 1_555 1_555
C1 C2 1_555 1_555
C2 H4 1_555 1_555
C3 C2 1_555 1_555
C4 C1 1_555 1_555
H5 C4 1_555 1_555
C5 C4 1_555 1_555
H6 C5 1_555 1_555
C6 C3 1_555 1_555
H7 C6 1_555 1_555
C7 C1 1_555 1_555
H8 C7 1_555 1_555
H9 C7 1_555 1_555
C8 C7 1_555 1_555
C9 C3 1_555 1_555
H10 C9 1_555 1_555
H11 C9 1_555 1_555
C10 O2 1_555 1_555
C11 N1 1_555 1_555
H12 C11 1_555 1_555
C12 C11 1_555 1_555
H13 C12 1_555 1_555
C13 N2 1_555 1_555
C14 C13 1_555 1_555
H14 C14 1_555 1_555
C15 N1 1_555 1_555
H15 C15 1_555 1_555
C16 H16 1_555 1_555
C17 C16 1_555 1_555
H17 C17 1_555 1_555
C18 N2 1_555 1_555
C19 C18 1_555 1_555
H18 C19 1_555 1_555
C20 N3 1_555 1_555
H19 C20 1_555 1_555
Co1A N3 1_555 1_555
Co1A_2 O4 1_555 1_555
O4A Co1 1_555 1_555
N3A Co1 1_555 1_555
C5 C6 1_555 1_555
C9 C10 1_555 1_555
C12 C13 1_555 1_555
C14 C15 1_555 1_555
C17 C18 1_555 1_555
C19 C20 1_555 1_555

#END
