
#######################################################################
#
#                 Cambridge Crystallographic Data Centre
#                                CCDC 
#
#######################################################################
#
# If this CIF has been generated from an entry in the Cambridge 
# Structural Database, then it will include bibliographic, chemical, 
# crystal, experimental, refinement or atomic coordinate data resulting 
# from the CCDC's data processing and validation procedures.
#
#######################################################################

data_TAFSOK
_symmetry_cell_setting           monoclinic
_symmetry_space_group_name_H-M   'P 21/c'
_symmetry_Int_Tables_number      14
_space_group_name_Hall           '-P 2ybc'
loop_
_symmetry_equiv_pos_site_id
_symmetry_equiv_pos_as_xyz
1 x,y,z
2 -x,1/2+y,1/2-z
3 -x,-y,-z
4 x,1/2-y,1/2+z
_cell_length_a                   9.3215(6)
_cell_length_b                   18.3383(12)
_cell_length_c                   7.8408(6)
_cell_angle_alpha                90
_cell_angle_beta                 105.988(7)
_cell_angle_gamma                90
_cell_volume                     1288.47
loop_
_atom_site_label
_atom_site_type_symbol
_atom_site_fract_x
_atom_site_fract_y
_atom_site_fract_z
Cu1 Cu 0.44022(3) 0.038632(14) 0.17976(3)
K1 K 0.83502(5) -0.04913(3) 0.58330(7)
S1 S 0.52913(6) -0.15333(3) 0.54501(8)
O1 O 0.23585(16) 0.05965(9) 0.0725(2)
O2 O 0.64891(15) 0.01318(8) 0.27848(19)
N1 N 0.3849(2) -0.04275(10) 0.3153(2)
O3 O 0.87873(17) 0.05427(9) 0.3124(2)
C1 C 0.4365(2) 0.15028(12) -0.0763(3)
H1 H 0.4871 0.1835 -0.1324
N2 N 0.51705(19) 0.10946(10) 0.0466(2)
C2 C 0.4449(2) -0.08916(12) 0.4105(3)
C3 C 0.7437(2) 0.05692(12) 0.2409(3)
C4 C 0.1846(2) 0.10412(12) -0.0616(3)
C5 C 0.2074(2) 0.19589(12) -0.2801(3)
H2 H 0.2684 0.2270 -0.3273
C6 C -0.0341(2) 0.15171(13) -0.2811(3)
H3 H -0.1393 0.1519 -0.3306
C7 C 0.0553(3) 0.19686(13) -0.3536(3)
H4 H 0.0117 0.2276 -0.4518
C8 C 0.6820(2) 0.11439(12) 0.0980(3)
H5 H 0.7169 0.1020 -0.0083
C9 C 0.2751(2) 0.14986(12) -0.1363(3)
C10 C 0.0284(2) 0.10724(13) -0.1396(3)
H6 H -0.0350 0.0776 -0.0924
C11 C 0.7400(3) 0.18963(13) 0.1612(3)
H7 H 0.7059 0.2247 0.0642
H8 H 0.8494 0.1888 0.1991
H9 H 0.7024 0.2040 0.2613
Cu1B Cu 0.55978(3) -0.038632(14) 0.82024(3)
K1B K 0.16498(5) 0.04913(3) 0.41670(7)
K1B_2 K 1.16498(5) 0.04913(3) 0.41670(7)
S1B S 0.47087(6) 0.15333(3) 0.45499(8)
O1B O 0.76415(16) -0.05965(9) 0.9275(2)
N1B N 0.6151(2) 0.04275(10) 0.6847(2)
O3B O 1.12127(17) -0.05427(9) 0.6876(2)
loop_
_geom_bond_atom_site_label_1
_geom_bond_atom_site_label_2
_geom_bond_site_symmetry_1
_geom_bond_site_symmetry_2
Cu1 O1 1_555 1_555
K1 S1 1_555 1_555
S1 C2 1_555 1_555
O1 C4 1_555 1_555
O2 Cu1 1_555 1_555
N1 Cu1 1_555 1_555
O3 K1 1_555 1_555
C1 H1 1_555 1_555
N2 Cu1 1_555 1_555
C2 N1 1_555 1_555
C3 O2 1_555 1_555
C4 C9 1_555 1_555
C5 H2 1_555 1_555
C6 H3 1_555 1_555
C7 C5 1_555 1_555
H4 C7 1_555 1_555
C8 N2 1_555 1_555
H5 C8 1_555 1_555
C9 C1 1_555 1_555
C10 C4 1_555 1_555
H6 C10 1_555 1_555
C11 C8 1_555 1_555
H7 C11 1_555 1_555
H8 C11 1_555 1_555
H9 C11 1_555 1_555
Cu1B S1 1_555 1_555
K1B O1 1_555 1_555
K1B_2 O3 1_555 1_555
S1B Cu1 1_555 1_555
O1B K1 1_555 1_555
N1B K1 1_555 1_555
O3B K1 1_555 1_555
K1 O2 1_555 1_555
N1 K1B 1_555 1_555
O3 C3 1_555 1_555
C1 N2 1_555 1_555
C3 C8 1_555 1_555
C5 C9 1_555 1_555
C6 C7 1_555 1_555
C6 C10 1_555 1_555
Cu1B O1B 1_555 1_555
Cu1B N1B 1_555 1_555
K1B S1B 1_555 1_555
K1B_2 O3B 1_555 1_555

#END
