
#######################################################################
#
#                 Cambridge Crystallographic Data Centre
#                                CCDC 
#
#######################################################################
#
# If this CIF has been generated from an entry in the Cambridge 
# Structural Database, then it will include bibliographic, chemical, 
# crystal, experimental, refinement or atomic coordinate data resulting 
# from the CCDC's data processing and validation procedures.
#
#######################################################################

data_TAFSOJ
_symmetry_cell_setting           triclinic
_symmetry_space_group_name_H-M   'P -1'
_symmetry_Int_Tables_number      2
_space_group_name_Hall           '-P 1'
loop_
_symmetry_equiv_pos_site_id
_symmetry_equiv_pos_as_xyz
1 x,y,z
2 -x,-y,-z
_cell_length_a                   7.527(2)
_cell_length_b                   7.555(2)
_cell_length_c                   28.018(6)
_cell_angle_alpha                82.27(3)
_cell_angle_beta                 80.92(3)
_cell_angle_gamma                68.42(3)
_cell_volume                     1457.96
loop_
_atom_site_label
_atom_site_type_symbol
_atom_site_fract_x
_atom_site_fract_y
_atom_site_fract_z
Cl1 Cl 0.21244(13) -0.83909(14) 0.94000(3)
N1 N 0.4373(3) -0.5858(3) 0.76545(7)
H1 H 0.5148 -0.5349 0.7798
C1 C 0.3632(4) -0.5128(5) 0.72432(11)
N2 N 0.2363(4) -0.5844(4) 0.71312(9)
O1 O 0.1218(4) -0.8121(4) 0.75700(9)
C2 C 0.2206(5) -0.7167(5) 0.75258(12)
C3 C 0.3478(5) -0.7112(5) 0.78946(10)
C4 C 0.3592(5) -0.8055(5) 0.83342(11)
H2 H 0.2788 -0.8807 0.8429
N3 N 0.4158(4) -0.3765(4) 0.69605(9)
H3 H 0.4980 -0.3224 0.7019
C5 C 0.3353(6) -0.2927(6) 0.65006(12)
H4 H 0.3677 -0.3927 0.6289
H5 H 0.1978 -0.2325 0.6548
C6 C 0.4269(7) -0.1560(7) 0.62873(16)
H6 H 0.3966 -0.0598 0.6510
H7 H 0.5641 -0.2187 0.6245
C7 C 0.3535(6) -0.0562(8) 0.57942(15)
O2 O 0.2902(4) 0.1170(4) 0.57256(9)
O3 O 0.3723(4) -0.1702(4) 0.54833(10)
C8 C 0.4890(5) -0.8108(4) 0.86785(11)
C9 C 0.4346(5) -0.8330(5) 0.91745(11)
C10 C 0.5492(5) -0.8243(6) 0.95093(12)
H8 H 0.5073 -0.8358 0.9850
C11 C 0.7280(5) -0.8052(6) 0.93552(12)
H9 H 0.8142 -0.8098 0.9579
C12 C 0.7840(5) -0.8001(6) 0.88583(13)
H10 H 0.9065 -0.7876 0.8748
C13 C 0.6686(5) -0.7941(5) 0.85263(13)
H11 H 0.7123 -0.7799 0.8187
Cl2 Cl 0.78850(14) -0.36701(16) 0.93275(3)
N4 N 0.9257(4) -0.0621(4) 0.75615(7)
H12 H 1.0178 0.0089 0.7748
C14 C 0.8270(5) 0.0019(5) 0.71828(10)
N5 N 0.7127(4) -0.0997(4) 0.71195(9)
C15 C 0.7327(5) -0.2253(5) 0.75245(11)
O4 O 0.6470(4) -0.3426(4) 0.76178(8)
C16 C 0.8689(5) -0.2016(5) 0.78263(11)
C17 C 0.9077(5) -0.3047(5) 0.82645(12)
H13 H 0.8465 -0.3971 0.8367
N6 N 0.8476(4) 0.1397(4) 0.68656(10)
H14 H 0.9690 0.1900 0.6965
C18 C 0.7389(5) 0.2079(5) 0.64390(11)
H15 H 0.6066 0.2215 0.6535
H16 H 0.7435 0.3306 0.6310
C19 C 0.8228(5) 0.0698(6) 0.60442(12)
H17 H 0.9589 0.0430 0.5978
H18 H 0.8026 -0.0478 0.6157
C20 C 0.7322(6) 0.1548(7) 0.55745(13)
O5 O 0.7666(4) 0.0203(4) 0.52843(8)
H19 H 0.7213 0.0687 0.5018
O6 O 0.6245(4) 0.3176(4) 0.55106(9)
C21 C 1.0341(5) -0.2939(5) 0.85769(11)
C22 C 1.0019(4) -0.3309(5) 0.90772(12)
C23 C 1.1269(6) -0.3335(5) 0.94076(13)
H20 H 1.0931 -0.3561 0.9749
C24 C 1.2956(5) -0.3135(5) 0.92196(14)
H21 H 1.3830 -0.3199 0.9442
C25 C 1.3332(5) -0.2685(5) 0.87276(13)
H22 H 1.4523 -0.2502 0.8605
C26 C 1.2092(4) -0.2597(4) 0.84192(11)
H23 H 1.2379 -0.2308 0.8078
K1 K 0.29769(14) 0.40197(16) 0.50594(4)
O8 O 0.0498(5) 0.3804(5) 0.44787(10)
H26 H 0.0576 0.2511 0.4470
H27 H 0.0733 0.4336 0.4155
K1A K 0.70231(14) -0.40197(16) 0.49406(4)
K1A_2 K 0.70231(14) 0.59803(16) 0.49406(4)
O3A O 0.6277(4) 0.1702(4) 0.45167(10)
O6A O 0.3755(4) 0.6824(4) 0.44894(9)
O8A O -0.0498(5) 0.6196(5) 0.55213(10)
K1A_3 K -0.29769(14) 0.59803(16) 0.49406(4)
H26A H -0.0576 0.7489 0.5530
H27A H -0.0733 0.5664 0.5845
O7 O 1.0595(5) 0.3982(5) 0.63594(11)
H24 H 0.9673 0.4721 0.6518
H25 H 1.1080 0.4126 0.6709
loop_
_geom_bond_atom_site_label_1
_geom_bond_atom_site_label_2
_geom_bond_site_symmetry_1
_geom_bond_site_symmetry_2
Cl1 C9 1_555 1_555
N1 H1 1_555 1_555
C1 N1 1_555 1_555
N2 C1 1_555 1_555
O1 C2 1_555 1_555
C2 N2 1_555 1_555
C3 N1 1_555 1_555
C4 C3 1_555 1_555
H2 C4 1_555 1_555
N3 C1 1_555 1_555
H3 N3 1_555 1_555
C5 N3 1_555 1_555
H4 C5 1_555 1_555
H5 C5 1_555 1_555
C6 C5 1_555 1_555
H6 C6 1_555 1_555
H7 C6 1_555 1_555
C7 C6 1_555 1_555
O2 C7 1_555 1_555
O3 C7 1_555 1_555
C8 C4 1_555 1_555
C9 C8 1_555 1_555
C10 C9 1_555 1_555
H8 C10 1_555 1_555
C11 C10 1_555 1_555
H9 C11 1_555 1_555
C12 C11 1_555 1_555
H10 C12 1_555 1_555
C13 C8 1_555 1_555
H11 C13 1_555 1_555
Cl2 C22 1_555 1_555
N4 H12 1_555 1_555
C14 N4 1_555 1_555
N5 C14 1_555 1_555
C15 N5 1_555 1_555
O4 C15 1_555 1_555
C16 N4 1_555 1_555
C17 C16 1_555 1_555
H13 C17 1_555 1_555
N6 C14 1_555 1_555
H14 N6 1_555 1_555
C18 N6 1_555 1_555
H15 C18 1_555 1_555
H16 C18 1_555 1_555
C19 C18 1_555 1_555
H17 C19 1_555 1_555
H18 C19 1_555 1_555
C20 C19 1_555 1_555
O5 C20 1_555 1_555
H19 O5 1_555 1_555
O6 C20 1_555 1_555
C21 C17 1_555 1_555
C22 C21 1_555 1_555
C23 C22 1_555 1_555
H20 C23 1_555 1_555
C24 C23 1_555 1_555
H21 C24 1_555 1_555
C25 C24 1_555 1_555
H22 C25 1_555 1_555
C26 C21 1_555 1_555
H23 C26 1_555 1_555
K1 O2 1_555 1_555
O7 H24 1_555 1_555
H25 O7 1_555 1_555
O8 K1 1_555 1_555
H26 O8 1_555 1_555
H27 O8 1_555 1_555
K1A O3 1_555 1_555
K1A_2 O6 1_555 1_555
O3A K1 1_555 1_555
O6A K1 1_555 1_555
O8A K1 1_555 1_555
K1A_3 O8 1_555 1_555
H26A O8A 1_555 1_555
H27A O8A 1_555 1_555
C2 C3 1_555 1_555
C12 C13 1_555 1_555
C15 C16 1_555 1_555
O6 K1 1_555 1_555
C25 C26 1_555 1_555
K1A_2 O6A 1_555 1_555
O8A K1A_3 1_555 1_555

#END
