
#######################################################################
#
#                 Cambridge Crystallographic Data Centre
#                                CCDC 
#
#######################################################################
#
# If this CIF has been generated from an entry in the Cambridge 
# Structural Database, then it will include bibliographic, chemical, 
# crystal, experimental, refinement or atomic coordinate data resulting 
# from the CCDC's data processing and validation procedures.
#
#######################################################################

data_TAFSIE
_symmetry_cell_setting           triclinic
_symmetry_space_group_name_H-M   'P -1'
_symmetry_Int_Tables_number      2
_space_group_name_Hall           '-P 1'
loop_
_symmetry_equiv_pos_site_id
_symmetry_equiv_pos_as_xyz
1 x,y,z
2 -x,-y,-z
_cell_length_a                   13.1941(8)
_cell_length_b                   13.7376(9)
_cell_length_c                   22.6554(15)
_cell_angle_alpha                102.0400(10)
_cell_angle_beta                 92.4870(10)
_cell_angle_gamma                108.8400(10)
_cell_volume                     3773.61
loop_
_atom_site_label
_atom_site_type_symbol
_atom_site_fract_x
_atom_site_fract_y
_atom_site_fract_z
O1 O 0.6821(11) -0.7951(8) 0.7297(5)
Cu1 Cu 0.8230(2) -0.1925(3) 1.00112(13)
Cu2 Cu 0.8692(2) 0.1399(2) 0.69428(11)
O2 O 0.8773(10) -0.6405(9) 0.5734(5)
O3 O 0.3452(9) -0.4566(10) 0.7441(5)
O4 O 0.5677(9) -0.2895(9) 0.5699(5)
O5 O 0.4438(9) -0.5724(8) 0.6679(4)
O6 O 0.8242(9) -0.6164(8) 0.8099(5)
Al1 Al 0.7526(3) -0.3980(3) 0.73931(17)
W1 W 1.02666(5) -0.36046(5) 0.73606(3)
W2 W 0.47511(5) -0.44239(5) 0.73088(3)
W3 W 0.60825(5) -0.34325(5) 0.62430(3)
W4 W 0.80005(6) -0.12980(5) 0.74539(3)
W5 W 0.93119(5) -0.18944(5) 0.85258(3)
Cu4 Cu 0.7135(4) 0.1056(3) 0.17502(14)
W6 W 0.70631(6) -0.66062(5) 0.74713(3)
W7 W 0.85377(5) -0.54630(5) 0.62807(3)
W8 W 0.61656(6) -0.51300(6) 0.85181(3)
W9 W 0.87691(5) -0.47113(5) 0.85498(3)
W10 W 0.56064(5) -0.59409(5) 0.62612(3)
W11 W 0.90329(5) -0.29292(5) 0.62880(3)
O7 O 0.6024(9) -0.6475(8) 0.6896(4)
O8 O 0.6316(8) -0.4332(8) 0.6935(4)
O9 O 0.8565(7) -0.4005(7) 0.6940(4)
O10 O 0.7495(7) -0.3353(8) 0.6060(4)
O11 O 0.6585(6) -0.3709(6) 0.8744(3)
O12 O 0.5172(8) -0.5124(10) 0.7864(5)
O13 O 0.7812(7) -0.2714(6) 0.7850(4)
O14 O 0.9657(10) -0.4818(9) 0.9092(5)
O15 O 0.7413(7) -0.4838(8) 0.7860(4)
O16 O 0.5524(8) -0.4897(8) 0.5819(5)
O17 O 0.9200(8) -0.0844(7) 0.8089(4)
O18 O 0.6813(8) -0.2166(8) 0.6895(5)
O19 O 0.8944(8) -0.4324(8) 0.5844(4)
O20 O 0.7068(8) -0.1202(8) 0.8066(5)
O21 O 0.8075(9) -0.6175(8) 0.6894(4)
W12 W 0.66978(5) -0.23100(5) 0.85105(3)
O22 O 0.7523(9) -0.4935(8) 0.8973(4)
O23 O 0.8145(7) -0.1718(8) 0.8964(4)
O24 O 0.9687(8) -0.4406(8) 0.7924(4)
O25 O 0.9534(9) -0.2270(9) 0.5748(5)
O26 O 0.4943(10) -0.7059(9) 0.5714(5)
O27 O 0.6086(9) -0.6510(8) 0.8077(4)
O28 O 0.9017(8) -0.3220(8) 0.8747(4)
O29 O 0.4803(8) -0.3670(8) 0.6669(4)
O30 O 0.9987(8) -0.4860(8) 0.6717(4)
O31 O 1.0368(9) -0.1086(9) 0.9062(5)
O32 O 1.0052(8) -0.2446(8) 0.7909(4)
O33 O 1.1603(9) -0.3341(9) 0.7507(5)
O34 O 0.8843(8) -0.1847(8) 0.6907(4)
O35 O 0.8158(10) -0.0093(8) 0.7293(5)
O36 O 0.5518(9) -0.3135(8) 0.7826(5)
O37 O 0.7065(8) -0.5691(8) 0.6053(4)
O38 O 0.6029(9) -0.1747(9) 0.9012(5)
O39 O 1.0350(8) -0.2814(8) 0.6724(4)
O40 O 0.5342(11) -0.5452(11) 0.9061(5)
N4 N 0.9630(11) -0.1952(12) 1.0215(6)
N5 N 0.9772(12) 0.2278(11) 0.7600(6)
C1 C 1.1519(14) -0.1762(14) 1.0917(8)
C2 C 1.1340(14) -0.0919(13) 1.0783(7)
H8 H 1.1869 -0.0255 1.0912
C3 C 1.1749(14) 0.3467(14) 0.8306(7)
C4 C 1.1186(14) 0.2419(14) 0.8314(7)
H11 H 1.1456 0.2078 0.8563
C5 C 0.8315(17) 0.0294(13) 0.2497(8)
H12 H 0.8890 0.0887 0.2474
C6 C 0.9835(16) -0.2820(15) 1.0296(7)
H13 H 0.9348 -0.3488 1.0112
N7 N 1.6907(14) -0.1782(19) 1.0213(7)
N8 N 0.8201(15) 0.0753(14) 0.6115(7)
C7 C 1.0261(15) 0.1923(15) 0.7963(8)
H14 H 0.9918 0.1224 0.7979
C8 C 1.0293(17) 0.3330(14) 0.7609(9)
H15 H 0.9979 0.3661 0.7374
N9 N 0.735(2) 0.0112(16) 0.2175(7)
C9 C 1.0371(15) -0.1020(16) 1.0454(8)
H16 H 1.0247 -0.0413 1.0402
N10 N 1.2906(17) 0.7970(16) 0.8710(8)
C10 C 0.8485(15) -0.0316(13) 0.2841(7)
H17 H 0.9158 -0.0133 0.3061
C11 C 1.1262(14) 0.3894(14) 0.7956(8)
H18 H 1.1592 0.4600 0.7948
C12 C 1.6817(16) -0.080(2) 1.0335(8)
H19 H 1.7431 -0.0225 1.0335
C14 C 0.765(2) -0.1246(14) 0.2876(8)
C15 C 1.2845(15) 0.4075(15) 0.8658(8)
H22 H 1.3207 0.4654 0.8476
H23 H 1.3270 0.3611 0.8627
C16 C 1.280(2) 0.4518(16) 0.9324(9)
H24 H 1.3093 0.4281 0.9623
C18 C 0.8668(17) 0.1206(18) 0.5687(10)
H27 H 0.9199 0.1870 0.5807
C19 C 1.0759(17) -0.2732(15) 1.0649(8)
H28 H 1.0869 -0.3343 1.0707
C20 C 1.5011(16) -0.1375(16) 1.0547(8)
C21 C 1.3577(18) 0.6658(15) 0.8947(10)
H29 H 1.4118 0.6358 0.8921
C22 C 1.5881(17) -0.0596(18) 1.0457(8)
H30 H 1.5849 0.0076 1.0478
C23 C 1.2490(16) -0.1617(18) 1.1356(8)
H31 H 1.2778 -0.0878 1.1572
H32 H 1.2242 -0.2029 1.1653
C24 C 1.3604(15) 0.7474(16) 0.8677(8)
H33 H 1.4171 0.7693 0.8451
C25 C 1.3962(18) -0.123(2) 1.0682(11)
H34 H 1.3502 -0.1400 1.0303
H35 H 1.4096 -0.0494 1.0875
C26 C 0.789(2) -0.1905(17) 0.3312(9)
H36 H 0.7252 -0.2513 0.3297
H37 H 0.8463 -0.2163 0.3174
C27 C 0.7415(18) -0.0263(18) 0.5913(10)
H38 H 0.7068 -0.0607 0.6199
C28 C 1.3377(17) -0.1914(17) 1.1090(10)
H39 H 1.3088 -0.2643 1.0857
H40 H 1.3895 -0.1881 1.1417
C29 C 1.6047(17) -0.254(2) 1.0280(11)
H41 H 1.6054 -0.3227 1.0199
C30 C 1.269(2) 0.6303(17) 0.9263(9)
C31 C 0.7648(19) -0.0263(18) 0.4877(8)
C32 C 1.5135(19) -0.2354(19) 1.0465(12)
H42 H 1.4575 -0.2914 1.0539
C33 C 0.734(2) -0.0858(17) 0.4207(9)
H43 H 0.7217 -0.0393 0.3965
H44 H 0.6680 -0.1458 0.4163
C34 C 1.194(2) 0.682(2) 0.9304(12)
H45 H 1.1352 0.6620 0.9516
C35 C 0.6532(18) -0.080(2) 0.2230(12)
H46 H 0.5850 -0.0957 0.2029
C36 C 0.715(2) -0.0760(16) 0.5307(9)
H47 H 0.6633 -0.1433 0.5188
C37 C 0.8402(19) 0.0733(18) 0.5064(10)
H48 H 0.8734 0.1091 0.4780
C38 C 0.824(3) -0.1235(18) 0.3990(9)
H49 H 0.8887 -0.0634 0.4013
H50 H 0.8388 -0.1668 0.4247
C41 C 1.234(2) 0.525(2) 0.9476(12)
H55 H 1.1783 0.5124 0.9719
C42 C 0.668(2) -0.150(2) 0.2571(12)
H56 H 0.6122 -0.2117 0.2582
C43 C 1.211(2) 0.763(2) 0.9019(13)
H57 H 1.1606 0.7973 0.9048
Cu1_2 Cu 1.8230(2) -0.1925(3) 1.00112(13)
Cu4A Cu 1.2865(4) 0.8944(3) 0.82498(14)
N7_2 N 0.6907(14) -0.1782(19) 1.0213(7)
N10A N 0.7094(17) 0.2030(16) 0.1290(8)
Cu3 Cu 0.28202(18) 0.61198(17) 0.58500(9)
N1 N 0.2032(11) 0.5026(11) 0.6275(6)
H1 H 0.2471 0.5001 0.6583
H2 H 0.1466 0.5175 0.6428
O41 O 0.1019(10) 0.5964(12) 0.5438(5)
H3 H 0.1070 0.6353 0.5203
N2 N 0.3506(12) 0.7198(12) 0.5375(6)
H4 H 0.4094 0.7083 0.5233
H5 H 0.3038 0.7124 0.5054
N3 N 0.2999(13) 0.4894(11) 0.5250(6)
H6 H 0.2646 0.4815 0.4885
H7 H 0.3702 0.5025 0.5208
N6 N 0.2882(14) 0.7379(12) 0.6511(7)
H9 H 0.2256 0.7255 0.6674
H10 H 0.3419 0.7511 0.6807
C13 C 0.1649(16) 0.3978(14) 0.5805(8)
H20 H 0.1421 0.3394 0.6003
H21 H 0.1044 0.3939 0.5532
C17 C 0.2573(17) 0.3922(15) 0.5464(8)
H25 H 0.3130 0.3847 0.5725
H26 H 0.2337 0.3314 0.5120
C39 C 0.3820(19) 0.8294(17) 0.5759(10)
H51 H 0.4556 0.8519 0.5951
H52 H 0.3777 0.8779 0.5511
C40 C 0.308(2) 0.8297(18) 0.6224(11)
H53 H 0.2396 0.8284 0.6039
H54 H 0.3376 0.8948 0.6537
O42 O 0.475(2) 0.875(2) 0.7560(11)
O43 O 0.566(3) 0.991(3) 0.7067(18)
loop_
_geom_bond_atom_site_label_1
_geom_bond_atom_site_label_2
_geom_bond_site_symmetry_1
_geom_bond_site_symmetry_2
O1 W6 1_555 1_555
Cu1 O23 1_555 1_555
Cu2 O35 1_555 1_555
Cu3 N1 1_555 1_555
O2 W7 1_555 1_555
O3 W2 1_555 1_555
O4 W3 1_555 1_555
O5 W2 1_555 1_555
O6 W6 1_555 1_555
Al1 O8 1_555 1_555
W1 O9 1_555 1_555
W2 O8 1_555 1_555
W3 O8 1_555 1_555
W4 O13 1_555 1_555
W5 O13 1_555 1_555
Cu4 N9 1_555 1_555
W6 O7 1_555 1_555
W7 O9 1_555 1_555
W8 O11 1_555 1_555
W9 O6 1_555 1_555
W10 O5 1_555 1_555
W11 O9 1_555 1_555
O7 W10 1_555 1_555
O8 W10 1_555 1_555
O9 Al1 1_555 1_555
O10 W3 1_555 1_555
O11 W12 1_555 1_555
O12 W2 1_555 1_555
O13 Al1 1_555 1_555
O14 W9 1_555 1_555
O15 Al1 1_555 1_555
O16 W3 1_555 1_555
O17 W4 1_555 1_555
O18 W3 1_555 1_555
O19 W7 1_555 1_555
O20 W4 1_555 1_555
O21 W6 1_555 1_555
W12 O13 1_555 1_555
O22 W8 1_555 1_555
O23 W5 1_555 1_555
O24 W1 1_555 1_555
O25 W11 1_555 1_555
O26 W10 1_555 1_555
O27 W6 1_555 1_555
O28 W5 1_555 1_555
O29 W2 1_555 1_555
O30 W1 1_555 1_555
O31 W5 1_555 1_555
O32 W1 1_555 1_555
O33 W1 1_555 1_555
O34 W4 1_555 1_555
O35 W4 1_555 1_555
O36 W2 1_555 1_555
O37 W7 1_555 1_555
O38 W12 1_555 1_555
O39 W1 1_555 1_555
O40 W8 1_555 1_555
N1 H1 1_555 1_555
H2 N1 1_555 1_555
O41 Cu3 1_555 1_555
H3 O41 1_555 1_555
N2 Cu3 1_555 1_555
H4 N2 1_555 1_555
H5 N2 1_555 1_555
N3 Cu3 1_555 1_555
H6 N3 1_555 1_555
H7 N3 1_555 1_555
N4 Cu1 1_555 1_555
N5 Cu2 1_555 1_555
C1 C2 1_555 1_555
C2 H8 1_555 1_555
N6 Cu3 1_555 1_555
H9 N6 1_555 1_555
H10 N6 1_555 1_555
C3 C4 1_555 1_555
C4 H11 1_555 1_555
C5 H12 1_555 1_555
C6 N4 1_555 1_555
H13 C6 1_555 1_555
N7 C12 1_555 1_555
N8 Cu2 1_555 1_555
C7 N5 1_555 1_555
H14 C7 1_555 1_555
C8 N5 1_555 1_555
H15 C8 1_555 1_555
N9 C5 1_555 1_555
C9 N4 1_555 1_555
H16 C9 1_555 1_555
N10 C24 1_555 1_555
C10 C5 1_555 1_555
H17 C10 1_555 1_555
C11 C3 1_555 1_555
H18 C11 1_555 1_555
C12 H19 1_555 1_555
C13 N1 1_555 1_555
H20 C13 1_555 1_555
H21 C13 1_555 1_555
C14 C10 1_555 1_555
C15 C3 1_555 1_555
H22 C15 1_555 1_555
H23 C15 1_555 1_555
C16 C15 1_555 1_555
H24 C16 1_555 1_555
C17 N3 1_555 1_555
H25 C17 1_555 1_555
H26 C17 1_555 1_555
C18 N8 1_555 1_555
H27 C18 1_555 1_555
C19 C1 1_555 1_555
H28 C19 1_555 1_555
C20 C22 1_555 1_555
C21 H29 1_555 1_555
C22 C12 1_555 1_555
H30 C22 1_555 1_555
C23 C1 1_555 1_555
H31 C23 1_555 1_555
H32 C23 1_555 1_555
C24 C21 1_555 1_555
H33 C24 1_555 1_555
C25 C20 1_555 1_555
H34 C25 1_555 1_555
H35 C25 1_555 1_555
C26 C14 1_555 1_555
H36 C26 1_555 1_555
H37 C26 1_555 1_555
C27 N8 1_555 1_555
H38 C27 1_555 1_555
C28 C23 1_555 1_555
H39 C28 1_555 1_555
H40 C28 1_555 1_555
C29 N7 1_555 1_555
H41 C29 1_555 1_555
C30 C21 1_555 1_555
C31 C33 1_555 1_555
C32 C20 1_555 1_555
H42 C32 1_555 1_555
C33 H43 1_555 1_555
H44 C33 1_555 1_555
C34 C30 1_555 1_555
H45 C34 1_555 1_555
C35 N9 1_555 1_555
H46 C35 1_555 1_555
C36 C27 1_555 1_555
H47 C36 1_555 1_555
C37 C18 1_555 1_555
H48 C37 1_555 1_555
C38 C26 1_555 1_555
H49 C38 1_555 1_555
H50 C38 1_555 1_555
C39 N2 1_555 1_555
H51 C39 1_555 1_555
H52 C39 1_555 1_555
C40 N6 1_555 1_555
H53 C40 1_555 1_555
H54 C40 1_555 1_555
C41 C16 1_555 1_555
H55 C41 1_555 1_555
C42 C14 1_555 1_555
H56 C42 1_555 1_555
C43 N10 1_555 1_555
H57 C43 1_555 1_555
Cu1_2 N7 1_555 1_555
Cu4A N10 1_555 1_555
N7_2 Cu1 1_555 1_555
N10A Cu4 1_555 1_555
W3 O29 1_555 1_555
W4 O18 1_555 1_555
W5 O17 1_555 1_555
W5 O32 1_555 1_555
W6 O15 1_555 1_555
W7 O21 1_555 1_555
W7 O30 1_555 1_555
W8 O12 1_555 1_555
W8 O15 1_555 1_555
W8 O27 1_555 1_555
W9 O15 1_555 1_555
W9 O22 1_555 1_555
W9 O24 1_555 1_555
W9 O28 1_555 1_555
W10 O16 1_555 1_555
W10 O37 1_555 1_555
W11 O10 1_555 1_555
W11 O19 1_555 1_555
W11 O34 1_555 1_555
W11 O39 1_555 1_555
O20 W12 1_555 1_555
W12 O23 1_555 1_555
W12 O36 1_555 1_555
C2 C9 1_555 1_555
C4 C7 1_555 1_555
C6 C19 1_555 1_555
C8 C11 1_555 1_555
C13 C17 1_555 1_555
C25 C28 1_555 1_555
C29 C32 1_555 1_555
C30 C41 1_555 1_555
C31 C36 1_555 1_555
C31 C37 1_555 1_555
C33 C38 1_555 1_555
C34 C43 1_555 1_555
C35 C42 1_555 1_555
C39 C40 1_555 1_555

#END
