
#######################################################################
#
#                 Cambridge Crystallographic Data Centre
#                                CCDC 
#
#######################################################################
#
# If this CIF has been generated from an entry in the Cambridge 
# Structural Database, then it will include bibliographic, chemical, 
# crystal, experimental, refinement or atomic coordinate data resulting 
# from the CCDC's data processing and validation procedures.
#
#######################################################################

data_TAFXUV
_symmetry_cell_setting           hexagonal
_symmetry_space_group_name_H-M   'P 6/m c c'
_symmetry_Int_Tables_number      192
_space_group_name_Hall           "-P 6 2'c"
loop_
_symmetry_equiv_pos_site_id
_symmetry_equiv_pos_as_xyz
1 x,y,z
2 -y,x-y,z
3 -x+y,-x,z
4 -x,-y,z
5 y,-x+y,z
6 x-y,x,z
7 y,x,1/2-z
8 x-y,-y,1/2-z
9 -x,-x+y,1/2-z
10 -y,-x,1/2-z
11 -x+y,y,1/2-z
12 x,x-y,1/2-z
13 -x,-y,-z
14 y,-x+y,-z
15 x-y,x,-z
16 x,y,-z
17 -y,x-y,-z
18 -x+y,-x,-z
19 -y,-x,1/2+z
20 -x+y,y,1/2+z
21 x,x-y,1/2+z
22 y,x,1/2+z
23 x-y,-y,1/2+z
24 -x,-x+y,1/2+z
_cell_length_a                   23.717(6)
_cell_length_b                   23.717(6)
_cell_length_c                   22.033(8)
_cell_angle_alpha                90
_cell_angle_beta                 90
_cell_angle_gamma                120
_cell_volume                     10733.1
loop_
_atom_site_label
_atom_site_type_symbol
_atom_site_fract_x
_atom_site_fract_y
_atom_site_fract_z
Cu1 Cu 0.5000 0.5000 0.5000
S1 S 0.5304(6) 0.3722(6) 0.4645(5)
S2 S 0.3627(8) 0.3888(8) 0.4630(7)
O6 O 0.4981(11) 0.3965(12) 0.5000
O7 O 0.3999(12) 0.4522(10) 0.5000
C1 C 0.5000 0.5000 0.7158(8)
C2 C 0.4610(10) 0.5154(12) 0.6831(7)
H1 H 0.4341 0.5269 0.7039
C3 C 0.4593(10) 0.5148(11) 0.6212(7)
H2 H 0.4311 0.5242 0.6000
C4 C 0.609(2) 0.3980(12) 0.5000
C5 C 0.5020(13) 0.293(3) 0.5000
C6 C 0.296(3) 0.396(2) 0.430(2)
C7 C 0.357(2) 0.318(4) 0.5000
N1 N 0.5000 0.5000 0.5918(7)
Cu1F Cu 0.5000 0.5000 1.0000
S1O S 0.5304(6) 0.3722(6) 0.5355(5)
S1C S 0.4696(6) 0.6278(6) 0.4645(5)
S1L S 0.4696(6) 0.6278(6) 0.5355(5)
S2O S 0.3627(8) 0.3888(8) 0.5370(7)
S2C S 0.6373(8) 0.6112(8) 0.4630(7)
S2L S 0.6373(8) 0.6112(8) 0.5370(7)
O6C O 0.5019(11) 0.6035(12) 0.5000
O7C O 0.6001(12) 0.5478(10) 0.5000
C1F C 0.5000 0.5000 0.7842(8)
C2F C 0.5154(12) 0.4610(10) 0.8169(7)
C2I C 0.4846(12) 0.5390(10) 0.8169(7)
C2C C 0.5390(10) 0.4846(12) 0.6831(7)
H1F H 0.5269 0.4341 0.7961
H1I H 0.4731 0.5659 0.7961
H1C H 0.5659 0.4731 0.7039
C3F C 0.5148(11) 0.4593(10) 0.8788(7)
C3I C 0.4852(11) 0.5407(10) 0.8788(7)
C3C C 0.5407(10) 0.4852(11) 0.6212(7)
H2F H 0.5242 0.4311 0.9000
H2I H 0.4758 0.5689 0.9000
H2C H 0.5689 0.4758 0.6000
C4C C 0.391(2) 0.6020(12) 0.5000
C5C C 0.4980(13) 0.707(3) 0.5000
C6O C 0.296(3) 0.396(2) 0.570(2)
C6C C 0.704(3) 0.604(2) 0.430(2)
C6L C 0.704(3) 0.604(2) 0.570(2)
C7C C 0.643(2) 0.682(4) 0.5000
N1F N 0.5000 0.5000 0.9082(7)
N1L N 0.5000 0.5000 0.4082(7)
W1 W 0.58724(4) 0.25433(6) 0.31068(3)
O1 O 0.6025(6) 0.2050(4) 0.2500
O2 O 0.5287(6) 0.1961(8) 0.3548(5)
O3 O 0.5391(8) 0.2695(7) 0.2500
O4 O 0.6667 0.3333 0.2500
O5 O 0.6023(5) 0.3328(7) 0.3473(5)
W1A W 0.74567(6) 0.33291(7) 0.31068(3)
W1B W 0.66709(7) 0.41276(4) 0.31068(3)
W1J W 0.66709(7) 0.25433(6) 0.18932(3)
W1K W 0.58724(4) 0.33291(7) 0.18932(3)
W1I W 0.74567(6) 0.41276(4) 0.18932(3)
O1A O 0.7950(4) 0.3975(7) 0.2500
O1B O 0.6025(7) 0.3975(6) 0.2500
O2A O 0.8039(8) 0.3326(10) 0.3548(5)
O2B O 0.6674(10) 0.4713(6) 0.3548(5)
O2J O 0.6674(10) 0.1961(8) 0.1452(5)
O2K O 0.5287(6) 0.3326(10) 0.1452(5)
O2I O 0.8039(8) 0.4713(6) 0.1452(5)
O3A O 0.7305(7) 0.2696(11) 0.2500
O3B O 0.7304(11) 0.4609(8) 0.2500
O5A O 0.6672(7) 0.2695(9) 0.3473(5)
O5B O 0.7305(9) 0.3977(5) 0.3473(5)
O5J O 0.7305(9) 0.3328(7) 0.1527(5)
O5K O 0.6023(5) 0.2695(9) 0.1527(5)
O5I O 0.6672(7) 0.3977(5) 0.1527(5)
V1? V 0.58724(4) 0.25433(6) 0.31068(3)
loop_
_geom_bond_atom_site_label_1
_geom_bond_atom_site_label_2
_geom_bond_site_symmetry_1
_geom_bond_site_symmetry_2
Cu1 O6 1_555 1_555
W1 O1 1_555 1_555
S1 O6 1_555 1_555
S2 O7 1_555 1_555
O1 W1J 1_555 1_555
O2 W1 1_555 1_555
O3 W1 1_555 1_555
O4 W1 1_555 1_555
O5 W1 1_555 1_555
O6 S1O 1_555 1_555
O7 Cu1 1_555 1_555
C1 C2 1_555 1_555
C2 H1 1_555 1_555
C3 C2 1_555 1_555
H2 C3 1_555 1_555
C4 S1 1_555 1_555
C5 S1 1_555 1_555
C6 S2 1_555 1_555
C7 S2 1_555 1_555
N1 Cu1 1_555 1_555
Cu1F N1F 1_555 1_555
W1A O4 1_555 1_555
W1B O4 1_555 1_555
W1J O4 1_555 1_555
W1K O3 1_555 1_555
W1I O4 1_555 1_555
S1O S1 1_555 1_555
S1C S1L 1_555 1_555
S1L O6C 1_555 1_555
S2O S2 1_555 1_555
S2C S2L 1_555 1_555
S2L O7C 1_555 1_555
O1A W1A 1_555 1_555
O1B W1B 1_555 1_555
O2A W1A 1_555 1_555
O2B W1B 1_555 1_555
O2J W1J 1_555 1_555
O2K W1K 1_555 1_555
O2I W1I 1_555 1_555
O3A W1A 1_555 1_555
O3B W1B 1_555 1_555
O5A W1 1_555 1_555
O5B W1A 1_555 1_555
O5J W1J 1_555 1_555
O5K W1J 1_555 1_555
O5I W1K 1_555 1_555
O6C Cu1 1_555 1_555
O7C Cu1 1_555 1_555
C1F C1 1_555 1_555
C2F C1F 1_555 1_555
C2I C1F 1_555 1_555
C2C C1 1_555 1_555
H1F C2F 1_555 1_555
H1I C2I 1_555 1_555
H1C C2C 1_555 1_555
C3F C2F 1_555 1_555
C3I C2I 1_555 1_555
C3C N1 1_555 1_555
H2F C3F 1_555 1_555
H2I C3I 1_555 1_555
H2C C3C 1_555 1_555
C4C S1C 1_555 1_555
C5C S1C 1_555 1_555
C6O S2O 1_555 1_555
C6C S2C 1_555 1_555
C6L S2L 1_555 1_555
C7C S2C 1_555 1_555
N1F C3F 1_555 1_555
N1L Cu1 1_555 1_555
O4 W1K 1_555 1_555
O5 W1B 1_555 1_555
O7 S2O 1_555 1_555
C3 N1 1_555 1_555
C4 S1O 1_555 1_555
C5 S1O 1_555 1_555
C7 S2O 1_555 1_555
W1A O5A 1_555 1_555
W1B O5B 1_555 1_555
W1J O3A 1_555 1_555
W1K O1B 1_555 1_555
W1K O5K 1_555 1_555
W1I O1A 1_555 1_555
W1I O3B 1_555 1_555
W1I O5J 1_555 1_555
W1I O5I 1_555 1_555
S1C O6C 1_555 1_555
S1L C4C 1_555 1_555
S1L C5C 1_555 1_555
S2C O7C 1_555 1_555
S2L C7C 1_555 1_555
C2C C3C 1_555 1_555
C3I N1F 1_555 1_555

#END
