
#######################################################################
#
#                 Cambridge Crystallographic Data Centre
#                                CCDC 
#
#######################################################################
#
# If this CIF has been generated from an entry in the Cambridge 
# Structural Database, then it will include bibliographic, chemical, 
# crystal, experimental, refinement or atomic coordinate data resulting 
# from the CCDC's data processing and validation procedures.
#
#######################################################################

data_TAFYAC
_symmetry_cell_setting           triclinic
_symmetry_space_group_name_H-M   'P -1'
_symmetry_Int_Tables_number      2
_space_group_name_Hall           '-P 1'
loop_
_symmetry_equiv_pos_site_id
_symmetry_equiv_pos_as_xyz
1 x,y,z
2 -x,-y,-z
_cell_length_a                   9.7240(4)
_cell_length_b                   14.3150(6)
_cell_length_c                   18.1450(8)
_cell_angle_alpha                68.882(7)
_cell_angle_beta                 89.7910(10)
_cell_angle_gamma                71.1880(10)
_cell_volume                     2212.09
loop_
_atom_site_label
_atom_site_type_symbol
_atom_site_fract_x
_atom_site_fract_y
_atom_site_fract_z
Ni1 Ni 0.5000 0.0000 0.5000
Mo1 Mo 0.05844(5) 0.36178(4) 0.37178(3)
Mo2 Mo 0.19044(5) 0.45188(4) 0.50722(3)
Mo3 Mo 0.20788(5) 0.20144(4) 0.54746(3)
Mo4 Mo 0.04303(5) 0.37638(4) 0.67053(3)
C1 C 0.5796(7) 0.1647(5) 0.7053(4)
H1 H 0.6191 0.1552 0.7552
C2 C 0.4407(6) 0.1760(5) 0.6831(4)
H2 H 0.3673 0.1759 0.7161
C3 C 0.5529(6) 0.1832(4) 0.5791(3)
C4 C 0.5975(6) 0.1832(5) 0.5018(3)
C5 C 0.6862(7) 0.1230(5) 0.4116(4)
H3 H 0.7121 0.0800 0.3821
C6 C 0.7147(7) 0.2132(5) 0.3967(4)
H4 H 0.7627 0.2438 0.3554
C7 C 0.8069(6) 0.1586(5) 0.6373(4)
H5 H 0.8246 0.2134 0.6513
H6 H 0.8304 0.1687 0.5836
C8 C 0.9047(6) 0.0508(5) 0.6938(4)
C9 C 1.0012(6) 0.0439(5) 0.7526(4)
H7 H 1.0008 0.1051 0.7598
C10 C 1.1000(7) -0.1425(6) 0.7947(4)
H8 H 1.1668 -0.2069 0.8292
C11 C 1.0047(8) -0.1395(6) 0.7382(4)
H9 H 1.0051 -0.2025 0.7341
C12 C 0.9078(7) -0.0427(6) 0.6871(4)
H10 H 0.8441 -0.0406 0.6479
C13 C 0.6504(7) 0.3583(5) 0.4500(4)
H11 H 0.7480 0.3617 0.4532
H12 H 0.6049 0.3710 0.4948
C14 C 0.5606(6) 0.4432(5) 0.3725(4)
C15 C 0.6090(7) 0.5223(5) 0.3235(4)
H13 H 0.7017 0.5221 0.3361
C16 C 0.3832(8) 0.6028(6) 0.2397(4)
H14 H 0.3204 0.6585 0.1964
N1 N 0.3397(6) 0.5239(5) 0.2858(4)
H15 H 0.2540 0.5242 0.2739
C17 C 0.4253(7) 0.4444(5) 0.3500(4)
H16 H 0.3928 0.3893 0.3797
N2 N 0.6132(5) 0.1038(4) 0.4769(3)
N3 N 0.6596(5) 0.2518(4) 0.4537(3)
N4 N 0.6498(5) 0.1701(4) 0.6396(3)
N5 N 0.4239(5) 0.1878(4) 0.6055(3)
N8 N 1.0947(5) -0.0509(4) 0.7989(3)
H26 H 1.1560 -0.0531 0.8340
C27 C 0.5217(7) 0.6008(5) 0.2568(4)
H27 H 0.5558 0.6527 0.2232
O1 O 0.3225(4) 0.1142(3) 0.5094(2)
O2 O 0.1702(4) 0.1196(3) 0.6328(3)
O3 O 0.4116(5) 0.0650(4) 0.3793(3)
O4 O 0.0389(4) 0.2571(3) 0.4756(2)
O6 O 0.1892(4) 0.2806(3) 0.3380(3)
O7 O -0.1024(4) 0.3744(3) 0.3246(2)
O8 O -0.0574(4) 0.4837(3) 0.4318(2)
O9 O 0.0783(4) 0.4965(3) 0.3109(2)
O10 O 0.1951(4) 0.3505(3) 0.7312(2)
O11 O -0.0335(4) 0.2857(3) 0.7249(3)
O12 O 0.1616(4) 0.5648(3) 0.4209(2)
O13 O 0.2293(4) 0.3464(3) 0.4614(2)
O14 O 0.1385(4) 0.3242(3) 0.5918(2)
O15 O 0.3605(4) 0.4261(3) 0.5489(2)
H30 H 0.456(7) 0.062(6) 0.348(4)
H31 H 0.338(8) 0.128(6) 0.366(4)
Mo1A Mo 0.94156(5) -0.36178(4) 0.62822(3)
Mo1A_2 Mo -0.05844(5) 0.63822(4) 0.62822(3)
Mo2A Mo 0.80956(5) -0.45188(4) 0.49278(3)
Mo2A_2 Mo -0.19044(5) 0.54812(4) 0.49278(3)
Mo3A Mo 0.79212(5) -0.20144(4) 0.45254(3)
Mo4A Mo 0.95697(5) -0.37638(4) 0.32947(3)
Mo4A_2 Mo -0.04303(5) 0.62362(4) 0.32947(3)
C1A C 0.4204(7) -0.1647(5) 0.2947(4)
H1A H 0.3809 -0.1552 0.2448
C2A C 0.5593(6) -0.1760(5) 0.3169(4)
H2A H 0.6327 -0.1759 0.2839
C3A C 0.4471(6) -0.1832(4) 0.4209(3)
C4A C 0.4025(6) -0.1832(5) 0.4982(3)
C5A C 0.3138(7) -0.1230(5) 0.5884(4)
H3A H 0.2879 -0.0800 0.6179
C6A C 0.2853(7) -0.2132(5) 0.6033(4)
H4A H 0.2373 -0.2438 0.6446
C7A C 0.1931(6) -0.1586(5) 0.3627(4)
H5A H 0.1754 -0.2134 0.3487
H6A H 0.1696 -0.1687 0.4164
C8A C 0.0953(6) -0.0508(5) 0.3062(4)
C9A C -0.0012(6) -0.0439(5) 0.2474(4)
H7A H -0.0008 -0.1051 0.2402
C10A C -0.1000(7) 0.1425(6) 0.2053(4)
H8A H -0.1668 0.2069 0.1708
C11A C -0.0047(8) 0.1395(6) 0.2618(4)
H9A H -0.0051 0.2025 0.2659
C12A C 0.0922(7) 0.0427(6) 0.3129(4)
H10A H 0.1559 0.0406 0.3521
C13A C 0.3496(7) -0.3583(5) 0.5500(4)
H11A H 0.2520 -0.3617 0.5468
H12A H 0.3951 -0.3710 0.5052
C14A C 0.4394(6) -0.4432(5) 0.6275(4)
C15A C 0.3910(7) -0.5223(5) 0.6765(4)
H13A H 0.2983 -0.5221 0.6639
C16A C 0.6168(8) -0.6028(6) 0.7603(4)
H14A H 0.6796 -0.6585 0.8036
N1A N 0.6603(6) -0.5239(5) 0.7142(4)
H15A H 0.7460 -0.5242 0.7261
C17A C 0.5747(7) -0.4444(5) 0.6500(4)
H16A H 0.6072 -0.3893 0.6203
N2A N 0.3868(5) -0.1038(4) 0.5231(3)
N3A N 0.3404(5) -0.2518(4) 0.5463(3)
N4A N 0.3502(5) -0.1701(4) 0.3604(3)
N5A N 0.5761(5) -0.1878(4) 0.3945(3)
N8A N -0.0947(5) 0.0509(4) 0.2011(3)
H26A H -0.1560 0.0531 0.1660
C27A C 0.4783(7) -0.6008(5) 0.7432(4)
H27A H 0.4442 -0.6527 0.7768
O1A O 0.6775(4) -0.1142(3) 0.4906(2)
O2A O 0.8298(4) -0.1196(3) 0.3672(3)
O3A O 0.5884(5) -0.0650(4) 0.6207(3)
O4A O 0.9611(4) -0.2571(3) 0.5244(2)
O6A O 0.8108(4) -0.2806(3) 0.6620(3)
O7A O 1.1024(4) -0.3744(3) 0.6754(2)
O8A O 0.0574(4) 0.5163(3) 0.5682(2)
O8A_2 O 1.0574(4) -0.4837(3) 0.5682(2)
O8_2 O 0.9426(4) -0.5163(3) 0.4318(2)
O9A O -0.0783(4) 0.5035(3) 0.6891(2)
O9A_2 O 0.9217(4) -0.4965(3) 0.6891(2)
O9_2 O 1.0783(4) -0.5035(3) 0.3109(2)
O10A O 0.8049(4) -0.3505(3) 0.2688(2)
O11A O 1.0335(4) -0.2857(3) 0.2751(3)
O12A O -0.1616(4) 0.4352(3) 0.5791(2)
O12A_2 O 0.8384(4) -0.5648(3) 0.5791(2)
O12_2 O 1.1616(4) -0.4352(3) 0.4209(2)
O13A O 0.7707(4) -0.3464(3) 0.5386(2)
O14A O 0.8615(4) -0.3242(3) 0.4082(2)
O15A O 0.6395(4) -0.4261(3) 0.4511(2)
H30A H 0.544(7) -0.062(6) 0.652(4)
H31A H 0.662(8) -0.128(6) 0.634(4)
Mo5 Mo 0.51408(5) 0.20150(4) 1.00084(3)
Mo6 Mo 0.64700(5) -0.06261(4) 1.07395(3)
Mo7 Mo 0.85719(5) 0.04605(4) 0.94375(3)
Mo8 Mo 0.24025(6) 0.14226(5) 1.08196(3)
O16 O 0.3206(5) 0.1269(4) 1.1702(3)
O17 O 0.0634(5) 0.2197(4) 1.0760(3)
O18 O 0.7836(4) 0.0033(3) 0.8749(2)
O19 O 0.8094(4) -0.1099(3) 1.0236(2)
O20 O 1.0518(4) -0.0332(3) 0.9503(2)
O21 O 0.8459(4) 0.1713(3) 0.8856(3)
O22 O 0.6774(4) 0.0842(3) 0.9922(2)
O23 O 0.5381(5) 0.3082(3) 0.9290(3)
O24 O 0.3099(4) 0.2488(3) 1.0111(3)
O25 O 0.5856(5) 0.1987(4) 1.0867(3)
O26 O 0.4583(4) 0.0524(3) 1.0501(2)
O27 O 0.7223(4) -0.0603(3) 1.1576(2)
O28 O 0.4109(4) 0.1724(3) 0.8930(2)
Mo5A Mo 0.48592(5) -0.20150(4) 0.99916(3)
Mo6A Mo 0.35300(5) 0.06261(4) 0.92605(3)
Mo7A Mo 0.14281(5) -0.04605(4) 1.05625(3)
Mo7A_2 Mo 1.14281(5) -0.04605(4) 1.05625(3)
Mo8A Mo 0.75975(6) -0.14226(5) 0.91804(3)
O16A O 0.6794(5) -0.1269(4) 0.8298(3)
O17A O 0.9366(5) -0.2197(4) 0.9240(3)
O18A O 0.2164(4) -0.0033(3) 1.1251(2)
O19A O 0.1906(4) 0.1099(3) 0.9764(2)
O20A O 0.9482(4) 0.0332(3) 1.0497(2)
O20A_2 O -0.0518(4) 0.0332(3) 1.0497(2)
O20_2 O 0.0518(4) -0.0332(3) 0.9503(2)
O21A O 0.1541(4) -0.1713(3) 1.1144(3)
O22A O 0.3226(4) -0.0842(3) 1.0078(2)
O23A O 0.4619(5) -0.3082(3) 1.0710(3)
O24A O 0.6901(4) -0.2488(3) 0.9889(3)
O25A O 0.4144(5) -0.1987(4) 0.9133(3)
O26A O 0.5417(4) -0.0524(3) 0.9499(2)
O27A O 0.2777(4) 0.0603(3) 0.8424(2)
O28A O 0.5891(4) -0.1724(3) 1.1070(2)
C18 C 0.3491(11) 0.5947(8) 0.8420(7)
H17 H 0.2741 0.6132 0.8022
C19 C 0.4726(11) 0.6178(7) 0.8290(6)
H18 H 0.4975 0.6553 0.7804
C20 C 0.4738(9) 0.5272(7) 0.9586(5)
C21 C 0.6935(9) 0.5895(7) 0.9157(6)
H19 H 0.7063 0.5871 0.9694
H20 H 0.6895 0.6594 0.8790
C22 C 0.8240(8) 0.5051(6) 0.9042(5)
C23 C 0.8270(8) 0.4067(6) 0.9124(5)
H21 H 0.7459 0.3866 0.9269
C24 C 1.0689(8) 0.3604(6) 0.8809(4)
H22 H 1.1494 0.3107 0.8721
C25 C 1.0751(9) 0.4561(7) 0.8747(5)
H23 H 1.1595 0.4727 0.8627
C26 C 0.9513(9) 0.5288(7) 0.8869(6)
H24 H 0.9537 0.5947 0.8834
N6 N 0.5541(7) 0.5744(6) 0.9022(5)
N7 N 0.9480(7) 0.3372(5) 0.8994(4)
H25 H 0.9466 0.2759 0.9033
N9 N 0.3476(7) 0.5398(6) 0.9222(5)
C18A C 0.6509(11) 0.4053(8) 1.1580(7)
H17A H 0.7259 0.3868 1.1978
C19A C 0.5274(11) 0.3822(7) 1.1710(6)
H18A H 0.5025 0.3447 1.2196
C20A C 0.5262(9) 0.4728(7) 1.0414(5)
C21A C 0.3065(9) 0.4105(7) 1.0843(6)
H19A H 0.2937 0.4129 1.0306
H20A H 0.3105 0.3406 1.1210
C22A C 0.1760(8) 0.4949(6) 1.0958(5)
C23A C 0.1730(8) 0.5933(6) 1.0876(5)
H21A H 0.2541 0.6134 1.0731
C24A C -0.0689(8) 0.6396(6) 1.1191(4)
H22A H -0.1494 0.6893 1.1279
C25A C -0.0751(9) 0.5439(7) 1.1253(5)
H23A H -0.1595 0.5273 1.1373
C26A C 0.0487(9) 0.4712(7) 1.1131(6)
H24A H 0.0463 0.4053 1.1166
N6A N 0.4459(7) 0.4256(6) 1.0978(5)
N7A N 0.0520(7) 0.6628(5) 1.1006(4)
H25A H 0.0534 0.7241 1.0967
N9A N 0.6524(7) 0.4602(6) 1.0778(5)
O5 O 0.5904(6) 0.0711(5) 0.2644(3)
H28 H 0.658(10) 0.018(8) 0.270(6)
H29 H 0.555(9) 0.095(7) 0.215(6)
loop_
_geom_bond_atom_site_label_1
_geom_bond_atom_site_label_2
_geom_bond_site_symmetry_1
_geom_bond_site_symmetry_2
Ni1 N2 1_555 1_555
Mo1 O4 1_555 1_555
Mo2 O12 1_555 1_555
Mo3 N5 1_555 1_555
Mo4 O10 1_555 1_555
Mo5 O22 1_555 1_555
Mo6 O19 1_555 1_555
Mo7 O18 1_555 1_555
Mo8 O16 1_555 1_555
C1 H1 1_555 1_555
C2 C1 1_555 1_555
H2 C2 1_555 1_555
C3 C4 1_555 1_555
C4 N2 1_555 1_555
C5 H3 1_555 1_555
C6 C5 1_555 1_555
H4 C6 1_555 1_555
C7 H5 1_555 1_555
H6 C7 1_555 1_555
C8 C7 1_555 1_555
C9 C8 1_555 1_555
H7 C9 1_555 1_555
C10 H8 1_555 1_555
C11 C10 1_555 1_555
H9 C11 1_555 1_555
C12 C8 1_555 1_555
H10 C12 1_555 1_555
C13 H11 1_555 1_555
H12 C13 1_555 1_555
C14 C13 1_555 1_555
C15 C14 1_555 1_555
H13 C15 1_555 1_555
C16 H14 1_555 1_555
N1 C16 1_555 1_555
H15 N1 1_555 1_555
C17 C14 1_555 1_555
H16 C17 1_555 1_555
C18 H17 1_555 1_555
C19 C18 1_555 1_555
H18 C19 1_555 1_555
C20 N6 1_555 1_555
C21 H19 1_555 1_555
H20 C21 1_555 1_555
C22 C21 1_555 1_555
C23 C22 1_555 1_555
H21 C23 1_555 1_555
C24 H22 1_555 1_555
C25 C24 1_555 1_555
H23 C25 1_555 1_555
C26 C22 1_555 1_555
H24 C26 1_555 1_555
N2 C5 1_555 1_555
N3 C4 1_555 1_555
N4 C1 1_555 1_555
N5 C2 1_555 1_555
N6 C19 1_555 1_555
N7 C23 1_555 1_555
H25 N7 1_555 1_555
N8 C9 1_555 1_555
H26 N8 1_555 1_555
C27 C15 1_555 1_555
H27 C27 1_555 1_555
N9 C18 1_555 1_555
O1 Ni1 1_555 1_555
O2 Mo3 1_555 1_555
O3 Ni1 1_555 1_555
O4 Mo3 1_555 1_555
O5 H28 1_555 1_555
O6 Mo1 1_555 1_555
O7 Mo1 1_555 1_555
O8 Mo1 1_555 1_555
O9 Mo1 1_555 1_555
O11 Mo4 1_555 1_555
O12 Mo4A_2 1_555 1_555
O13 Mo1 1_555 1_555
O14 Mo2 1_555 1_555
O15 Mo2 1_555 1_555
O17 Mo8 1_555 1_555
O18 Mo8A 1_555 1_555
O19 Mo7 1_555 1_555
O20 Mo7 1_555 1_555
O21 Mo7 1_555 1_555
O22 Mo6 1_555 1_555
O23 Mo5 1_555 1_555
O24 Mo5 1_555 1_555
O25 Mo5 1_555 1_555
O26 Mo5 1_555 1_555
O27 Mo6 1_555 1_555
O28 Mo5 1_555 1_555
H29 O5 1_555 1_555
H30 O3 1_555 1_555
H31 O3 1_555 1_555
Mo1A O4A 1_555 1_555
Mo1A_2 O8A 1_555 1_555
Mo2A O8_2 1_555 1_555
Mo2A_2 O8 1_555 1_555
Mo3A N5A 1_555 1_555
Mo4A O8_2 1_555 1_555
Mo4A_2 O8 1_555 1_555
Mo5A O22A 1_555 1_555
Mo6A O26 1_555 1_555
Mo7A O18A 1_555 1_555
Mo7A_2 O20 1_555 1_555
Mo8A O19 1_555 1_555
C1A H1A 1_555 1_555
C2A C1A 1_555 1_555
H2A C2A 1_555 1_555
C3A C4A 1_555 1_555
C4A N2A 1_555 1_555
C5A H3A 1_555 1_555
C6A C5A 1_555 1_555
H4A C6A 1_555 1_555
C7A H5A 1_555 1_555
H6A C7A 1_555 1_555
C8A C7A 1_555 1_555
C9A C8A 1_555 1_555
H7A C9A 1_555 1_555
C10A H8A 1_555 1_555
C11A C10A 1_555 1_555
H9A C11A 1_555 1_555
C12A C8A 1_555 1_555
H10A C12A 1_555 1_555
C13A H11A 1_555 1_555
H12A C13A 1_555 1_555
C14A C13A 1_555 1_555
C15A C14A 1_555 1_555
H13A C15A 1_555 1_555
C16A H14A 1_555 1_555
N1A C16A 1_555 1_555
H15A N1A 1_555 1_555
C17A C14A 1_555 1_555
H16A C17A 1_555 1_555
C18A H17A 1_555 1_555
C19A C18A 1_555 1_555
H18A C19A 1_555 1_555
C20A C20 1_555 1_555
C21A H19A 1_555 1_555
H20A C21A 1_555 1_555
C22A C21A 1_555 1_555
C23A C22A 1_555 1_555
H21A C23A 1_555 1_555
C24A H22A 1_555 1_555
C25A C24A 1_555 1_555
H23A C25A 1_555 1_555
C26A C22A 1_555 1_555
H24A C26A 1_555 1_555
N2A Ni1 1_555 1_555
N3A C4A 1_555 1_555
N4A C1A 1_555 1_555
N5A C2A 1_555 1_555
N6A C19A 1_555 1_555
N7A C23A 1_555 1_555
H25A N7A 1_555 1_555
N8A C9A 1_555 1_555
H26A N8A 1_555 1_555
C27A C15A 1_555 1_555
H27A C27A 1_555 1_555
N9A C18A 1_555 1_555
O1A Ni1 1_555 1_555
O2A Mo3A 1_555 1_555
O3A Ni1 1_555 1_555
O4A Mo3A 1_555 1_555
O6A Mo1A 1_555 1_555
O7A Mo1A 1_555 1_555
O8A Mo2 1_555 1_555
O8A_2 Mo1A 1_555 1_555
O9A Mo4 1_555 1_555
O9A_2 Mo1A 1_555 1_555
O9_2 Mo4A 1_555 1_555
O10A Mo4A 1_555 1_555
O11A Mo4A 1_555 1_555
O12A Mo4 1_555 1_555
O12A_2 Mo2A 1_555 1_555
O12_2 Mo4A 1_555 1_555
O13A Mo1A 1_555 1_555
O14A Mo2A 1_555 1_555
O15A Mo2A 1_555 1_555
O16A Mo8A 1_555 1_555
O17A Mo8A 1_555 1_555
O18A Mo8 1_555 1_555
O19A Mo8 1_555 1_555
O20A Mo7 1_555 1_555
O20A_2 Mo7A 1_555 1_555
O20_2 Mo7A 1_555 1_555
O21A Mo7A 1_555 1_555
O22A Mo6A 1_555 1_555
O23A Mo5A 1_555 1_555
O24A Mo5A 1_555 1_555
O25A Mo5A 1_555 1_555
O26A Mo6 1_555 1_555
O27A Mo6A 1_555 1_555
O28A Mo6 1_555 1_555
H30A O3A 1_555 1_555
H31A O3A 1_555 1_555
Mo2 O13 1_555 1_555
Mo3 O1 1_555 1_555
Mo3 O13 1_555 1_555
Mo3 O14 1_555 1_555
Mo4 O14 1_555 1_555
Mo4 O8A 1_555 1_555
Mo6 O26 1_555 1_555
Mo7 O22 1_555 1_555
Mo8 O24 1_555 1_555
Mo8 O26 1_555 1_555
C3 N4 1_555 1_555
C3 N5 1_555 1_555
C6 N3 1_555 1_555
C7 N4 1_555 1_555
C10 N8 1_555 1_555
C11 C12 1_555 1_555
C13 N3 1_555 1_555
C16 C27 1_555 1_555
N1 C17 1_555 1_555
C20 N9 1_555 1_555
C21 N6 1_555 1_555
C24 N7 1_555 1_555
C25 C26 1_555 1_555
O9 Mo4A_2 1_555 1_555
O28 Mo6A 1_555 1_555
Mo1A_2 O9A 1_555 1_555
Mo2A O13A 1_555 1_555
Mo2A_2 O12A 1_555 1_555
Mo3A O1A 1_555 1_555
Mo3A O13A 1_555 1_555
Mo3A O14A 1_555 1_555
Mo4A O14A 1_555 1_555
Mo5A O26A 1_555 1_555
Mo5A O28A 1_555 1_555
Mo6A O19A 1_555 1_555
Mo6A O26A 1_555 1_555
Mo7A O19A 1_555 1_555
Mo7A O22A 1_555 1_555
Mo7A_2 O20A 1_555 1_555
Mo8A O24A 1_555 1_555
Mo8A O26A 1_555 1_555
C3A N4A 1_555 1_555
C3A N5A 1_555 1_555
C5A N2A 1_555 1_555
C6A N3A 1_555 1_555
C7A N4A 1_555 1_555
C10A N8A 1_555 1_555
C11A C12A 1_555 1_555
C13A N3A 1_555 1_555
C16A C27A 1_555 1_555
N1A C17A 1_555 1_555
C20A N6A 1_555 1_555
C20A N9A 1_555 1_555
C21A N6A 1_555 1_555
C24A N7A 1_555 1_555
C25A C26A 1_555 1_555

#END
