
#######################################################################
#
#                 Cambridge Crystallographic Data Centre
#                                CCDC 
#
#######################################################################
#
# If this CIF has been generated from an entry in the Cambridge 
# Structural Database, then it will include bibliographic, chemical, 
# crystal, experimental, refinement or atomic coordinate data resulting 
# from the CCDC's data processing and validation procedures.
#
#######################################################################

data_TAFYEG
_symmetry_cell_setting           triclinic
_symmetry_space_group_name_H-M   'P -1'
_symmetry_Int_Tables_number      2
_space_group_name_Hall           '-P 1'
loop_
_symmetry_equiv_pos_site_id
_symmetry_equiv_pos_as_xyz
1 x,y,z
2 -x,-y,-z
_cell_length_a                   10.467(6)
_cell_length_b                   13.725(8)
_cell_length_c                   15.932(1)
_cell_angle_alpha                85.217(1)
_cell_angle_beta                 76.214(1)
_cell_angle_gamma                72.187(1)
_cell_volume                     2116.15
loop_
_atom_site_label
_atom_site_type_symbol
_atom_site_fract_x
_atom_site_fract_y
_atom_site_fract_z
C1 C 0.8825(7) 0.8173(5) 0.6657(5)
H1 H 0.8042 0.8396 0.7097
C2 C 1.0076(7) 0.8243(5) 0.6656(5)
H2 H 1.0314 0.8522 0.7088
C3 C 1.0183(6) 0.7509(4) 0.5450(4)
C4 C 1.0823(6) 0.7014(4) 0.4605(4)
C5 C 1.2190(7) 0.6726(5) 0.3311(5)
H3 H 1.2728 0.6809 0.2770
C6 C 1.1967(7) 0.5849(5) 0.3663(4)
H4 H 1.2341 0.5214 0.3397
C7 C 1.2439(6) 0.7643(5) 0.5710(5)
H5 H 1.2635 0.8278 0.5768
H6 H 1.2843 0.7411 0.5120
C8 C 1.3072(6) 0.6846(5) 0.6328(5)
C9 C 1.3269(9) 0.5838(7) 0.6250(7)
H7 H 1.3033 0.5609 0.5792
C10 C 1.3462(7) 0.7154(6) 0.6996(5)
H8 H 1.3337 0.7846 0.7068
C11 C 1.3822(11) 0.5135(7) 0.6847(7)
H9 H 1.3910 0.4443 0.6811
C12 C 1.4218(8) 0.5469(7) 0.7466(6)
H10 H 1.4638 0.5004 0.7850
C13 C 1.1280(7) 0.8562(5) 0.3728(4)
H11 H 1.2162 0.8698 0.3614
H12 H 1.0686 0.8955 0.4227
C14 C 1.0644(6) 0.8881(4) 0.2955(4)
C15 C 0.9491(7) 0.8619(5) 0.2914(5)
H13 H 0.9124 0.8232 0.3359
C16 C 1.1192(7) 0.9406(6) 0.2256(5)
H14 H 1.1987 0.9577 0.2251
C17 C 1.0574(9) 0.9680(6) 0.1564(6)
H15 H 1.0951 1.0038 0.1099
C18 C 0.9388(8) 0.9426(6) 0.1558(5)
H16 H 0.8961 0.9605 0.1094
O1 O 1.0590(5) 0.5052(4) 0.6155(3)
O20 O 0.4190(5) 0.9254(4) 0.7662(3)
O21 O 0.6174(4) 1.0186(4) 0.7246(3)
O22 O 0.6364(4) 0.8719(3) 0.3034(3)
O23 O 0.4562(4) 0.7555(4) 0.3725(3)
O24 O 0.7286(4) 0.6722(3) 0.3563(3)
O25 O 0.4798(4) 0.9331(3) 0.4463(3)
O26 O 0.6710(4) 1.0280(3) 0.3842(3)
O27 O 0.7415(4) 0.8293(3) 0.4540(3)
O28 O 0.5606(4) 0.7370(3) 0.5180(3)
O29 O 0.6147(4) 0.8903(3) 0.6025(3)
O30 O 0.6497(5) 0.7034(3) 0.6744(3)
O31 O 0.8260(4) 0.6224(3) 0.5282(3)
O34 O 0.8159(4) 0.9919(3) 0.5086(3)
Co1 Co 1.0000 0.5000 0.5000
Mo1 Mo 0.59660(5) 0.77658(4) 0.39528(4)
Mo2 Mo 0.67790(5) 0.96929(4) 0.48534(3)
Mo3 Mo 0.49410(5) 0.99173(4) 0.68438(4)
Mo5 Mo 0.70451(5) 0.73370(4) 0.57022(4)
N1 N 0.8881(5) 0.7722(4) 0.5904(3)
N2 N 1.0941(5) 0.7823(4) 0.5894(4)
N3 N 1.1111(5) 0.6023(4) 0.4467(3)
N4 N 1.1472(5) 0.7465(4) 0.3907(3)
N5 N 1.4023(6) 0.6461(6) 0.7547(4)
H17 H 1.4265 0.6663 0.7965
N6 N 0.8888(5) 0.8916(4) 0.2240(4)
H18 H 0.8143 0.8768 0.2251
C1A C 0.1175(7) 1.1827(5) 0.3343(5)
H1A H 0.1958 1.1604 0.2903
C2A C -0.0076(7) 1.1757(5) 0.3344(5)
H2A H -0.0314 1.1478 0.2912
C3A C -0.0183(6) 1.2491(4) 0.4550(4)
C4A C -0.0823(6) 1.2986(4) 0.5395(4)
C5A C -0.2190(7) 1.3274(5) 0.6689(5)
H3A H -0.2728 1.3191 0.7230
C6A C -0.1967(7) 1.4151(5) 0.6337(4)
H4A H -0.2341 1.4786 0.6603
C7A C -0.2439(6) 1.2357(5) 0.4290(5)
H5A H -0.2635 1.1722 0.4232
H6A H -0.2843 1.2589 0.4880
C8A C -0.3072(6) 1.3154(5) 0.3672(5)
C9A C -0.3269(9) 1.4162(7) 0.3750(7)
H7A H -0.3033 1.4391 0.4208
C10A C -0.3462(7) 1.2846(6) 0.3004(5)
H8A H -0.3337 1.2154 0.2932
C11A C -0.3822(11) 1.4865(7) 0.3153(7)
H9A H -0.3910 1.5557 0.3189
C12A C -0.4218(8) 1.4531(7) 0.2534(6)
H10A H -0.4638 1.4996 0.2150
C13A C -0.1280(7) 1.1438(5) 0.6272(4)
H11A H -0.2162 1.1302 0.6386
H12A H -0.0686 1.1045 0.5773
C14A C -0.0644(6) 1.1119(4) 0.7045(4)
C15A C 0.0509(7) 1.1381(5) 0.7086(5)
H13A H 0.0876 1.1768 0.6641
C16A C -0.1192(7) 1.0594(6) 0.7744(5)
H14A H -0.1987 1.0423 0.7749
C17A C -0.0574(9) 1.0320(6) 0.8436(6)
H15A H -0.0951 0.9962 0.8901
C18A C 0.0612(8) 1.0574(6) 0.8442(5)
H16A H 0.1039 1.0395 0.8906
O1A O 0.9410(5) 0.4948(4) 0.3845(3)
O20A O 0.5810(5) 1.0746(4) 0.2338(3)
O21A O 0.3826(4) 0.9814(4) 0.2754(3)
O22A O 0.3636(4) 1.1281(3) 0.6966(3)
O23A O 0.5438(4) 1.2445(4) 0.6275(3)
O24A O 0.2714(4) 1.3278(3) 0.6437(3)
O25A O 0.5202(4) 1.0669(3) 0.5537(3)
O26A O 0.3290(4) 0.9720(3) 0.6158(3)
O27A O 0.2585(4) 1.1707(3) 0.5460(3)
O28A O 0.4394(4) 1.2630(3) 0.4820(3)
O29A O 0.3853(4) 1.1097(3) 0.3975(3)
O30A O 0.3503(5) 1.2966(3) 0.3256(3)
O31A O 0.1740(4) 1.3776(3) 0.4718(3)
O31A_2 O 1.1740(4) 0.3776(3) 0.4718(3)
O34A O 0.1841(4) 1.0081(3) 0.4914(3)
Co1_2 Co 0.0000 1.5000 0.5000
Mo1A Mo 0.40340(5) 1.22342(4) 0.60472(4)
Mo2A Mo 0.32210(5) 1.03071(4) 0.51466(3)
Mo3A Mo 0.50590(5) 1.00827(4) 0.31562(4)
Mo5A Mo 0.29549(5) 1.26630(4) 0.42978(4)
N1A N 0.1119(5) 1.2278(4) 0.4096(3)
N2A N -0.0941(5) 1.2177(4) 0.4106(4)
N3A N -0.1111(5) 1.3977(4) 0.5533(3)
N3A_2 N 0.8889(5) 0.3977(4) 0.5533(3)
N4A N -0.1472(5) 1.2535(4) 0.6093(3)
N5A N -0.4023(6) 1.3539(6) 0.2453(4)
H17A H -0.4265 1.3337 0.2035
N6A N 0.1112(5) 1.1084(4) 0.7760(4)
H18A H 0.1857 1.1232 0.7749
O2 O 0.0433(4) 0.3945(3) 0.0044(3)
O4 O -0.2203(4) 0.3989(4) 0.0729(3)
O6 O -0.1571(4) 0.5047(3) -0.0782(3)
O8 O 0.0984(6) 0.3989(4) 0.2389(3)
O10 O -0.0222(5) 0.2966(4) 0.1520(3)
O12 O 0.2556(5) 0.2818(4) 0.1026(3)
O14 O -0.0975(4) 0.5145(3) 0.1433(3)
O16 O -0.3288(5) 0.6053(4) 0.0736(3)
O17 O -0.0817(5) 0.2873(3) -0.0636(3)
O18 O 0.1869(5) 0.2712(4) -0.1519(3)
O19 O -0.0233(5) 0.3732(4) -0.2263(3)
O32 O 0.1068(5) 0.1587(4) 0.0196(4)
O33 O -0.1608(6) 0.1783(4) 0.0896(4)
Mo4 Mo -0.17786(5) 0.51239(4) 0.04581(4)
Mo6 Mo 0.03240(6) 0.36260(4) -0.13350(4)
Mo7 Mo 0.10158(6) 0.37459(4) 0.13565(4)
Mo8 Mo -0.05040(6) 0.24796(5) 0.04979(5)
O2A O -0.0433(4) 0.6055(3) -0.0044(3)
O4A O 0.2203(4) 0.6011(4) -0.0729(3)
O6A O 0.1571(4) 0.4953(3) 0.0782(3)
O8A O -0.0984(6) 0.6011(4) -0.2389(3)
O10A O 0.0222(5) 0.7034(4) -0.1520(3)
O12A O -0.2556(5) 0.7182(4) -0.1026(3)
O14A O 0.0975(4) 0.4855(3) -0.1433(3)
O16A O 0.3288(5) 0.3947(4) -0.0736(3)
O17A O 0.0817(5) 0.7127(3) 0.0636(3)
O18A O -0.1869(5) 0.7288(4) 0.1519(3)
O19A O 0.0233(5) 0.6268(4) 0.2263(3)
O32A O -0.1068(5) 0.8413(4) -0.0196(4)
O33A O 0.1608(6) 0.8217(4) -0.0896(4)
Mo4A Mo 0.17786(5) 0.48761(4) -0.04581(4)
Mo6A Mo -0.03240(6) 0.63740(4) 0.13350(4)
Mo7A Mo -0.10158(6) 0.62541(4) -0.13565(4)
Mo8A Mo 0.05040(6) 0.75204(5) -0.04979(5)
O3 O 0.4968(8) 0.6714(9) 0.8944(6)
O5 O 0.4757(8) 0.7599(6) 0.1843(5)
O7 O 0.3375(11) 0.7479(10) 0.0565(8)
O9 O 0.3764(18) 0.5581(16) 0.1226(18)
O11 O 0.3775(8) 0.9197(6) 0.9659(6)
O13 O 0.5988(7) 0.8824(6) 1.0720(5)
O15 O 0.6521(7) 0.9395(5) 0.8896(4)
Co2 Co 0.5000 1.0000 1.0000
O11A O 0.6225(8) 1.0803(6) 1.0341(6)
O13A O 0.4012(7) 1.1176(6) 0.9280(5)
O15A O 0.3479(7) 1.0605(5) 1.1104(4)
loop_
_geom_bond_atom_site_label_1
_geom_bond_atom_site_label_2
_geom_bond_site_symmetry_1
_geom_bond_site_symmetry_2
C1 H1 1_555 1_555
C2 C1 1_555 1_555
H2 C2 1_555 1_555
C3 C4 1_555 1_555
C4 N3 1_555 1_555
C5 H3 1_555 1_555
C6 C5 1_555 1_555
H4 C6 1_555 1_555
C7 H5 1_555 1_555
H6 C7 1_555 1_555
C8 C7 1_555 1_555
C9 C8 1_555 1_555
H7 C9 1_555 1_555
C10 C8 1_555 1_555
H8 C10 1_555 1_555
C11 C9 1_555 1_555
H9 C11 1_555 1_555
C12 C11 1_555 1_555
H10 C12 1_555 1_555
C13 H11 1_555 1_555
H12 C13 1_555 1_555
C14 C13 1_555 1_555
C15 C14 1_555 1_555
H13 C15 1_555 1_555
C16 C14 1_555 1_555
H14 C16 1_555 1_555
C17 C16 1_555 1_555
H15 C17 1_555 1_555
C18 C17 1_555 1_555
H16 C18 1_555 1_555
O1 Co1 1_555 1_555
O2 Mo4 1_555 1_555
O4 Mo4 1_555 1_555
O6 Mo4 1_555 1_555
O8 Mo7 1_555 1_555
O10 Mo7 1_555 1_555
O11 Co2 1_555 1_555
O12 Mo7 1_555 1_555
O13 Co2 1_555 1_555
O14 Mo4 1_555 1_555
O15 Co2 1_555 1_555
O16 Mo4 1_555 1_555
O17 Mo6 1_555 1_555
O18 Mo6 1_555 1_555
O19 Mo6 1_555 1_555
O20 Mo3 1_555 1_555
O21 Mo3 1_555 1_555
O22 Mo1 1_555 1_555
O23 Mo1 1_555 1_555
O24 Mo1 1_555 1_555
O25 Mo1 1_555 1_555
O26 Mo2 1_555 1_555
O27 Mo1 1_555 1_555
O28 Mo1 1_555 1_555
O29 Mo2 1_555 1_555
O30 Mo5 1_555 1_555
O31 Co1 1_555 1_555
O32 Mo8 1_555 1_555
O33 Mo8 1_555 1_555
O34 Mo2 1_555 1_555
Co1 N3 1_555 1_555
Co2 O11A 1_555 1_555
Mo2 O25 1_555 1_555
Mo3 O29 1_555 1_555
Mo4 O2A 1_555 1_555
Mo5 O27 1_555 1_555
Mo6 O2 1_555 1_555
Mo7 O2 1_555 1_555
Mo8 O2 1_555 1_555
N1 C1 1_555 1_555
N2 C2 1_555 1_555
N3 C6 1_555 1_555
N4 C4 1_555 1_555
N5 C10 1_555 1_555
H17 N5 1_555 1_555
N6 C15 1_555 1_555
H18 N6 1_555 1_555
C1A H1A 1_555 1_555
C2A C1A 1_555 1_555
H2A C2A 1_555 1_555
C3A C4A 1_555 1_555
C4A N3A 1_555 1_555
C5A H3A 1_555 1_555
C6A C5A 1_555 1_555
H4A C6A 1_555 1_555
C7A H5A 1_555 1_555
H6A C7A 1_555 1_555
C8A C7A 1_555 1_555
C9A C8A 1_555 1_555
H7A C9A 1_555 1_555
C10A C8A 1_555 1_555
H8A C10A 1_555 1_555
C11A C9A 1_555 1_555
H9A C11A 1_555 1_555
C12A C11A 1_555 1_555
H10A C12A 1_555 1_555
C13A H11A 1_555 1_555
H12A C13A 1_555 1_555
C14A C13A 1_555 1_555
C15A C14A 1_555 1_555
H13A C15A 1_555 1_555
C16A C14A 1_555 1_555
H14A C16A 1_555 1_555
C17A C16A 1_555 1_555
H15A C17A 1_555 1_555
C18A C17A 1_555 1_555
H16A C18A 1_555 1_555
O1A Co1 1_555 1_555
O2A Mo4A 1_555 1_555
O4A Mo4A 1_555 1_555
O6A Mo7 1_555 1_555
O8A Mo7A 1_555 1_555
O10A Mo7A 1_555 1_555
O12A Mo7A 1_555 1_555
O13A Co2 1_555 1_555
O14A Mo6 1_555 1_555
O15A Co2 1_555 1_555
O16A Mo4A 1_555 1_555
O17A Mo6A 1_555 1_555
O18A Mo6A 1_555 1_555
O19A Mo6A 1_555 1_555
O20A Mo3A 1_555 1_555
O21A Mo3A 1_555 1_555
O22A Mo3 1_555 1_555
O23A Mo1A 1_555 1_555
O24A Mo1A 1_555 1_555
O25A Mo2 1_555 1_555
O26A Mo3 1_555 1_555
O27A Mo1A 1_555 1_555
O28A Mo1A 1_555 1_555
O29A Mo2A 1_555 1_555
O30A Mo5A 1_555 1_555
O31A Co1_2 1_555 1_555
O31A_2 Co1 1_555 1_555
O32A Mo8A 1_555 1_555
O33A Mo8A 1_555 1_555
O34A Mo2A 1_555 1_555
Co1_2 N3A 1_555 1_555
Mo1A O22A 1_555 1_555
Mo2A O25 1_555 1_555
Mo3A O22 1_555 1_555
Mo4A O2 1_555 1_555
Mo5A O27A 1_555 1_555
Mo6A O14 1_555 1_555
Mo7A O6 1_555 1_555
Mo8A O2A 1_555 1_555
N1A C1A 1_555 1_555
N2A C2A 1_555 1_555
N3A C6A 1_555 1_555
N3A_2 Co1 1_555 1_555
N4A C4A 1_555 1_555
N5A C10A 1_555 1_555
H17A N5A 1_555 1_555
N6A C15A 1_555 1_555
H18A N6A 1_555 1_555
C3 N1 1_555 1_555
C3 N2 1_555 1_555
C5 N4 1_555 1_555
C7 N2 1_555 1_555
C12 N5 1_555 1_555
C13 N4 1_555 1_555
C18 N6 1_555 1_555
O4 Mo8 1_555 1_555
O6 Mo6 1_555 1_555
O10 Mo8 1_555 1_555
O14 Mo7 1_555 1_555
O17 Mo8 1_555 1_555
O25 Mo3A 1_555 1_555
O26 Mo3A 1_555 1_555
O27 Mo2 1_555 1_555
O28 Mo5 1_555 1_555
O29 Mo5 1_555 1_555
O31 Mo5 1_555 1_555
Mo3 O25A 1_555 1_555
Mo5 N1 1_555 1_555
C3A N1A 1_555 1_555
C3A N2A 1_555 1_555
C5A N4A 1_555 1_555
C7A N2A 1_555 1_555
C12A N5A 1_555 1_555
C13A N4A 1_555 1_555
C18A N6A 1_555 1_555
O2A Mo6A 1_555 1_555
O2A Mo7A 1_555 1_555
O4A Mo8A 1_555 1_555
O6A Mo4A 1_555 1_555
O6A Mo6A 1_555 1_555
O10A Mo8A 1_555 1_555
O14A Mo4A 1_555 1_555
O14A Mo7A 1_555 1_555
O17A Mo8A 1_555 1_555
O25A Mo1A 1_555 1_555
O25A Mo2A 1_555 1_555
O26A Mo2A 1_555 1_555
O27A Mo2A 1_555 1_555
O28A Mo5A 1_555 1_555
O29A Mo3A 1_555 1_555
O29A Mo5A 1_555 1_555
O31A Mo5A 1_555 1_555
Mo5A N1A 1_555 1_555

#END
