
#######################################################################
#
#                 Cambridge Crystallographic Data Centre
#                                CCDC 
#
#######################################################################
#
# If this CIF has been generated from an entry in the Cambridge 
# Structural Database, then it will include bibliographic, chemical, 
# crystal, experimental, refinement or atomic coordinate data resulting 
# from the CCDC's data processing and validation procedures.
#
#######################################################################

data_TAGBUZ
_symmetry_cell_setting           monoclinic
_symmetry_space_group_name_H-M   'C c'
_symmetry_Int_Tables_number      9
_space_group_name_Hall           'C -2yc'
loop_
_symmetry_equiv_pos_site_id
_symmetry_equiv_pos_as_xyz
1 x,y,z
2 x,-y,1/2+z
3 1/2+x,1/2+y,z
4 1/2+x,1/2-y,1/2+z
_cell_length_a                   17.4002(13)
_cell_length_b                   11.1573(7)
_cell_length_c                   17.4202(13)
_cell_angle_alpha                90
_cell_angle_beta                 113.479(5)
_cell_angle_gamma                90
_cell_volume                     3101.94
loop_
_atom_site_label
_atom_site_type_symbol
_atom_site_fract_x
_atom_site_fract_y
_atom_site_fract_z
Ag1 Ag 0.10629(2) 0.26823(2) 0.69175(2)
S1 S -0.09379(6) 0.38124(9) 0.68633(6)
O1 O -0.04133(18) 0.3673(3) 0.63933(19)
O2 O -0.0527(3) 0.3696(3) 0.7750(2)
O3 O -0.1724(2) 0.3194(3) 0.6517(2)
O4 O 0.49124(14) 0.58134(18) 0.44344(15)
O5 O 0.60338(18) 1.0021(3) 0.4406(2)
O6 O 0.17966(14) 0.9122(2) 0.37489(19)
N1 N 0.1889(2) 0.3003(4) 0.6037(2)
N2 N 0.5928(2) 1.5773(3) 0.66007(18)
N3 N 0.1495(2) 1.5678(3) 0.2655(3)
C1 C -0.1228(4) 0.5373(4) 0.6731(4)
C2 C 0.2322(2) 0.3495(4) 0.5798(3)
C3 C 0.2847(2) 0.4184(3) 0.5490(2)
C4 C 0.3239(2) 0.3642(3) 0.5022(2)
H1 H 0.3184 0.2812 0.4920
C5 C 0.37081(19) 0.4326(2) 0.47070(19)
H2 H 0.3981 0.3962 0.4398
C6 C 0.37774(19) 0.5563(3) 0.4849(2)
C7 C 0.3390(2) 0.6096(3) 0.5323(2)
H3 H 0.3445 0.6925 0.5426
C8 C 0.2924(2) 0.5409(3) 0.5642(2)
H4 H 0.2661 0.5770 0.5961
C9 C 0.43228(18) 0.6279(2) 0.45281(19)
C10 C 0.41557(19) 0.7599(2) 0.43754(19)
C11 C 0.48391(18) 0.8347(2) 0.45310(18)
H5 H 0.5377 0.8018 0.4680
C12 C 0.47282(18) 0.9585(2) 0.44660(18)
C13 C 0.39317(18) 1.0067(2) 0.42233(18)
H6 H 0.3862 1.0903 0.4205
C14 C 0.32303(19) 0.9318(3) 0.40047(19)
C15 C 0.33538(18) 0.8077(2) 0.40932(19)
H7 H 0.2890 0.7564 0.3961
C16 C 0.54831(18) 1.0364(2) 0.46208(19)
C17 C 0.55601(18) 1.1550(2) 0.50548(19)
C18 C 0.6010(2) 1.2465(3) 0.4873(2)
H8 H 0.6234 1.2340 0.4468
C19 C 0.6129(2) 1.3552(3) 0.5283(2)
H9 H 0.6422 1.4175 0.5156
C20 C 0.5803(2) 1.3706(2) 0.58945(19)
C21 C 0.5370(2) 1.2792(3) 0.6097(2)
H10 H 0.5162 1.2906 0.6514
C22 C 0.5250(2) 1.1702(3) 0.5668(2)
H11 H 0.4960 1.1075 0.5795
C23 C 0.5884(2) 1.4864(3) 0.6302(2)
C24 C 0.23481(19) 0.9775(3) 0.3734(2)
C25 C 0.21454(18) 1.1058(2) 0.34553(19)
C26 C 0.25246(19) 1.1655(3) 0.29931(19)
H12 H 0.2916 1.1249 0.2841
C27 C 0.2330(2) 1.2837(3) 0.2758(2)
H13 H 0.2582 1.3239 0.2444
C28 C 0.1750(2) 1.3420(3) 0.2998(2)
C29 C 0.1341(2) 1.2834(3) 0.3425(2)
H14 H 0.0937 1.3237 0.3560
C30 C 0.1535(2) 1.1640(3) 0.3654(2)
H15 H 0.1258 1.1228 0.3941
C31 C 0.1592(2) 1.4690(3) 0.2803(3)
F1 F -0.1755(2) 0.5637(2) 0.7083(2)
F2 F -0.1599(3) 0.5663(4) 0.5928(3)
F3 F -0.0534(3) 0.6054(3) 0.7066(3)
N2B N 0.0928(2) 0.0773(3) 0.66007(18)
N3A N 0.1495(2) 0.4322(3) 0.7655(3)
Ag1B Ag 0.60629(2) 1.76823(2) 0.69175(2)
Ag1A Ag 0.10629(2) 1.73177(2) 0.19175(2)
O7 O 0.34722(19) 0.4673(3) 0.7672(2)
O8 O 0.4397(3) 0.3744(4) 0.7391(2)
N4 N 0.4136(2) 0.4629(3) 0.7606(2)
C32 C 0.4657(3) 0.5716(4) 0.7801(3)
H16 H 0.4566 0.6169 0.8233
H17 H 0.4505 0.6204 0.7301
H18 H 0.5242 0.5492 0.7997
loop_
_geom_bond_atom_site_label_1
_geom_bond_atom_site_label_2
_geom_bond_site_symmetry_1
_geom_bond_site_symmetry_2
Ag1 O1 1_555 1_555
S1 O1 1_555 1_555
O2 S1 1_555 1_555
O3 S1 1_555 1_555
O4 C9 1_555 1_555
O5 C16 1_555 1_555
O6 C24 1_555 1_555
O7 N4 1_555 1_555
O8 N4 1_555 1_555
N1 Ag1 1_555 1_555
N2 C23 1_555 1_555
N3 C31 1_555 1_555
N4 C32 1_555 1_555
C1 S1 1_555 1_555
C2 N1 1_555 1_555
C3 C2 1_555 1_555
C4 C3 1_555 1_555
H1 C4 1_555 1_555
C5 C4 1_555 1_555
H2 C5 1_555 1_555
C6 C5 1_555 1_555
C7 C6 1_555 1_555
H3 C7 1_555 1_555
C8 C3 1_555 1_555
H4 C8 1_555 1_555
C9 C6 1_555 1_555
C10 C9 1_555 1_555
C11 C10 1_555 1_555
H5 C11 1_555 1_555
C12 C11 1_555 1_555
C13 C12 1_555 1_555
H6 C13 1_555 1_555
C14 C13 1_555 1_555
C15 C10 1_555 1_555
H7 C15 1_555 1_555
C16 C12 1_555 1_555
C17 C16 1_555 1_555
C18 C17 1_555 1_555
H8 C18 1_555 1_555
C19 C18 1_555 1_555
H9 C19 1_555 1_555
C20 C19 1_555 1_555
C21 C20 1_555 1_555
H10 C21 1_555 1_555
C22 C17 1_555 1_555
H11 C22 1_555 1_555
C23 C20 1_555 1_555
C24 C14 1_555 1_555
C25 C24 1_555 1_555
C26 C25 1_555 1_555
H12 C26 1_555 1_555
C27 C26 1_555 1_555
H13 C27 1_555 1_555
C28 C27 1_555 1_555
C29 C28 1_555 1_555
H14 C29 1_555 1_555
C30 C25 1_555 1_555
H15 C30 1_555 1_555
C31 C28 1_555 1_555
C32 H16 1_555 1_555
H17 C32 1_555 1_555
H18 C32 1_555 1_555
F1 C1 1_555 1_555
F2 C1 1_555 1_555
F3 C1 1_555 1_555
N2B Ag1 1_555 1_555
N3A Ag1 1_555 1_555
Ag1B N2 1_555 1_555
Ag1A N3 1_555 1_555
C7 C8 1_555 1_555
C14 C15 1_555 1_555
C21 C22 1_555 1_555
C29 C30 1_555 1_555

#END
