
#######################################################################
#
#                 Cambridge Crystallographic Data Centre
#                                CCDC 
#
#######################################################################
#
# If this CIF has been generated from an entry in the Cambridge 
# Structural Database, then it will include bibliographic, chemical, 
# crystal, experimental, refinement or atomic coordinate data resulting 
# from the CCDC's data processing and validation procedures.
#
#######################################################################

data_TAGCAH
_symmetry_cell_setting           triclinic
_symmetry_space_group_name_H-M   'P -1'
_symmetry_Int_Tables_number      2
_space_group_name_Hall           '-P 1'
loop_
_symmetry_equiv_pos_site_id
_symmetry_equiv_pos_as_xyz
1 x,y,z
2 -x,-y,-z
_cell_length_a                   8.6692(5)
_cell_length_b                   8.7012(5)
_cell_length_c                   9.5318(6)
_cell_angle_alpha                71.403(4)
_cell_angle_beta                 72.248(3)
_cell_angle_gamma                82.859(4)
_cell_volume                     648.724
loop_
_atom_site_label
_atom_site_type_symbol
_atom_site_fract_x
_atom_site_fract_y
_atom_site_fract_z
Pu1 Pu 0.303477(14) 0.042729(14) 0.788790(13)
Pu2 Pu 0.819508(14) -0.432137(14) 0.781177(13)
P1 P 0.47834(10) -0.27119(10) 0.60924(10)
P2 P 1.27593(10) 0.02653(10) 0.18684(10)
P3 P 1.02113(10) -0.22924(10) 0.37309(10)
P4 P 0.22583(10) -0.53969(10) 0.82853(10)
O1 O 1.0788(3) -0.3306(3) 0.2611(3)
O2 O 0.6100(3) -0.3252(3) 0.6921(3)
O3 O 1.4525(3) 0.0417(3) 0.1777(3)
O4 O 0.0609(3) -0.4545(3) 0.8304(3)
O5 O 1.2644(3) -0.0294(3) 0.0541(3)
O6 O 0.9594(3) -0.3362(3) 0.5388(3)
O7 O 0.8945(3) -0.1019(3) 0.3261(3)
O8 O 1.1764(3) 0.1832(3) 0.1942(3)
O9 O 0.2252(3) -0.7184(3) 0.8384(3)
O10 O 0.0970(3) -0.1576(3) 0.9365(3)
O11 O 0.2872(3) -0.5223(3) 0.9584(3)
O12 O 0.5506(3) -0.2098(3) 0.4341(3)
O13 O 0.6084(3) -0.6394(3) 0.8716(3)
C1 C 1.1935(4) -0.1283(4) 0.3645(4)
H1 H 1.2802 -0.2110 0.3834
H2 H 1.1626 -0.0785 0.4496
O14 O 0.3600(3) -0.1473(3) 0.6692(3)
C2 C 0.3683(4) -0.4501(4) 0.6458(4)
H3 H 0.3089 -0.4244 0.5669
H4 H 0.4503 -0.5359 0.6247
H5 H 0.057(5) -0.191(5) 1.031(6)
H6 H 0.608(5) -0.731(6) 0.916(5)
H7 H 0.523(6) -0.613(5) 0.912(5)
H8 H 0.049(6) -0.186(6) 0.904(6)
Pu1A Pu 0.696523(14) -1.042729(14) 1.211210(13)
Pu1_2 Pu -0.696523(14) -0.957271(14) 1.788790(13)
Pu1_3 Pu 0.303477(14) -0.957271(14) 0.788790(13)
Pu1_4 Pu 0.303477(14) -0.957271(14) 1.788790(13)
Pu1_5 Pu 1.303477(14) 0.042729(14) -0.211210(13)
Pu1A_2 Pu -0.303477(14) -1.042729(14) 2.211210(13)
Pu1A_3 Pu 0.696523(14) -0.042729(14) 0.211210(13)
Pu1A_4 Pu 0.696523(14) -0.042729(14) 1.211210(13)
Pu1A_5 Pu 1.696523(14) -0.042729(14) 0.211210(13)
Pu2A Pu 0.180492(14) -0.567863(14) 1.218823(13)
Pu2_2 Pu -0.180492(14) -1.432137(14) 1.781177(13)
Pu2_3 Pu -0.180492(14) -0.432137(14) 0.781177(13)
Pu2_4 Pu -0.180492(14) -0.432137(14) 1.781177(13)
Pu2A_2 Pu 1.180492(14) -0.567863(14) 0.218823(13)
Pu2A_3 Pu 1.180492(14) -0.567863(14) 1.218823(13)
Pu2A_4 Pu 1.180492(14) 0.432137(14) 0.218823(13)
P1A P 0.52166(10) -0.72881(10) 1.39076(10)
P2A P -0.27593(10) -1.02653(10) 1.81316(10)
P3A P -0.02113(10) -0.77076(10) 1.62691(10)
P4A P 0.77417(10) -0.46031(10) 1.17147(10)
O1A O -0.0788(3) -0.6694(3) 1.7389(3)
O1_2 O 0.0788(3) -0.3306(3) 1.2611(3)
O1A_2 O 0.9212(3) -0.6694(3) 0.7389(3)
O2A O 0.3900(3) -0.6748(3) 1.3079(3)
O3A O -0.4525(3) -1.0417(3) 1.8223(3)
O3_2 O 0.4525(3) -0.9583(3) 1.1777(3)
O3A_2 O 0.5475(3) -0.0417(3) 0.8223(3)
O4A O 0.9391(3) -0.5455(3) 1.1696(3)
O4_2 O 1.0609(3) -0.4545(3) 0.8304(3)
O4A_2 O -0.0609(3) -0.5455(3) 1.1696(3)
O5A O -0.2644(3) -0.9706(3) 1.9459(3)
O5_2 O 0.2644(3) -0.0294(3) 1.0541(3)
O5A_2 O 0.7356(3) -0.9706(3) 0.9459(3)
O6A O 0.0406(3) -0.6638(3) 1.4612(3)
O7A O 0.1055(3) -0.8981(3) 1.6739(3)
O7_2 O 0.8945(3) -1.1019(3) 1.3261(3)
O7A_2 O 0.1055(3) 0.1019(3) 0.6739(3)
O8A O -0.1764(3) -1.1832(3) 1.8058(3)
O8_2 O 0.1764(3) -0.8168(3) 1.1942(3)
O8A_2 O 0.8236(3) -0.1832(3) 0.8058(3)
O9A O 0.7748(3) -0.2816(3) 1.1616(3)
O9_2 O 0.2252(3) 0.2816(3) 0.8384(3)
O9A_2 O 0.7748(3) -1.2816(3) 1.1616(3)
O10A O 0.9030(3) -0.8424(3) 1.0635(3)
O11A O 0.7128(3) -0.4777(3) 1.0416(3)
O12A O 0.4494(3) -0.7902(3) 1.5659(3)
O12_2 O 0.5506(3) -1.2098(3) 1.4341(3)
O12A_2 O 0.4494(3) 0.2098(3) 0.5659(3)
O13A O 0.3916(3) -0.3606(3) 1.1284(3)
C1A C -0.1935(4) -0.8717(4) 1.6355(4)
H1A H -0.2802 -0.7890 1.6166
H2A H -0.1626 -0.9215 1.5504
O14A O 0.6400(3) -0.8527(3) 1.3308(3)
C2A C 0.6317(4) -0.5499(4) 1.3542(4)
H3A H 0.6911 -0.5756 1.4331
H4A H 0.5497 -0.4641 1.3753
H5A H 0.943(5) -0.809(5) 0.969(6)
H6A H 0.392(5) -0.269(6) 1.084(5)
H7A H 0.477(6) -0.387(5) 1.088(5)
H8A H 0.951(6) -0.814(6) 1.096(6)
loop_
_geom_bond_atom_site_label_1
_geom_bond_atom_site_label_2
_geom_bond_site_symmetry_1
_geom_bond_site_symmetry_2
Pu1 O10 1_555 1_555
Pu2 O2 1_555 1_555
P1 O2 1_555 1_555
P2 O3 1_555 1_555
P3 O1 1_555 1_555
P4 O4 1_555 1_555
O1 Pu2A_2 1_555 1_555
O3 Pu1A_5 1_555 1_555
O4 Pu2_3 1_555 1_555
O5 P2 1_555 1_555
O6 Pu2 1_555 1_555
O7 P3 1_555 1_555
O8 P2 1_555 1_555
O9 P4 1_555 1_555
O10 H5 1_555 1_555
O11 P4 1_555 1_555
O12 P1 1_555 1_555
O13 Pu2 1_555 1_555
C1 P2 1_555 1_555
H1 C1 1_555 1_555
H2 C1 1_555 1_555
O14 Pu1 1_555 1_555
C2 P1 1_555 1_555
H3 C2 1_555 1_555
H4 C2 1_555 1_555
H6 O13 1_555 1_555
H7 O13 1_555 1_555
H8 O10 1_555 1_555
Pu1A O3_2 1_555 1_555
Pu1_2 O3A 1_555 1_555
Pu1_3 O9 1_555 1_555
Pu1_4 O7A 1_555 1_555
Pu1_5 O5 1_555 1_555
Pu1A_2 O5A 1_555 1_555
Pu1A_3 O7 1_555 1_555
Pu1A_4 O9A 1_555 1_555
Pu2A O11 1_555 1_555
Pu2_2 O8A 1_555 1_555
Pu2_4 O1A 1_555 1_555
Pu2A_3 O4A 1_555 1_555
Pu2A_4 O8 1_555 1_555
P1A O2A 1_555 1_555
P2A O3A 1_555 1_555
P3A O1A 1_555 1_555
P4A O4A 1_555 1_555
O1_2 Pu2A 1_555 1_555
O1A_2 Pu2 1_555 1_555
O2A Pu2A 1_555 1_555
O3A_2 Pu1 1_555 1_555
O4_2 Pu2 1_555 1_555
O4A_2 Pu2A 1_555 1_555
O5A P2A 1_555 1_555
O5_2 Pu1 1_555 1_555
O5A_2 Pu1A 1_555 1_555
O6A Pu2A 1_555 1_555
O7A P3A 1_555 1_555
O7_2 Pu1A 1_555 1_555
O7A_2 Pu1 1_555 1_555
O8A P2A 1_555 1_555
O8_2 Pu2A 1_555 1_555
O8A_2 Pu2 1_555 1_555
O9A P4A 1_555 1_555
O9_2 Pu1 1_555 1_555
O9A_2 Pu1A 1_555 1_555
O10A Pu1A 1_555 1_555
O11A Pu2 1_555 1_555
O12A Pu1_4 1_555 1_555
O12_2 Pu1A 1_555 1_555
O12A_2 Pu1 1_555 1_555
O13A Pu2A 1_555 1_555
C1A P2A 1_555 1_555
H1A C1A 1_555 1_555
H2A C1A 1_555 1_555
O14A Pu1A 1_555 1_555
C2A P1A 1_555 1_555
H3A C2A 1_555 1_555
H4A C2A 1_555 1_555
H5A O10A 1_555 1_555
H6A O13A 1_555 1_555
H7A O13A 1_555 1_555
H8A O10A 1_555 1_555
P1 O14 1_555 1_555
P3 O6 1_555 1_555
P3 C1 1_555 1_555
P4 C2 1_555 1_555
O12 Pu1A_3 1_555 1_555
P1A O12A 1_555 1_555
P1A O14A 1_555 1_555
P3A O6A 1_555 1_555
P3A C1A 1_555 1_555
P4A O11A 1_555 1_555
P4A C2A 1_555 1_555

#END
