
#######################################################################
#
#                 Cambridge Crystallographic Data Centre
#                                CCDC 
#
#######################################################################
#
# If this CIF has been generated from an entry in the Cambridge 
# Structural Database, then it will include bibliographic, chemical, 
# crystal, experimental, refinement or atomic coordinate data resulting 
# from the CCDC's data processing and validation procedures.
#
#######################################################################

data_TAGGEN
_symmetry_cell_setting           monoclinic
_symmetry_space_group_name_H-M   'P 21/n'
_symmetry_Int_Tables_number      14
_space_group_name_Hall           '-P 2yn'
loop_
_symmetry_equiv_pos_site_id
_symmetry_equiv_pos_as_xyz
1 x,y,z
2 1/2-x,1/2+y,1/2-z
3 -x,-y,-z
4 1/2+x,1/2-y,1/2+z
_cell_length_a                   12.859(3)
_cell_length_b                   9.672(2)
_cell_length_c                   12.247(3)
_cell_angle_alpha                90
_cell_angle_beta                 113.52(2)
_cell_angle_gamma                90
_cell_volume                     1396.64
loop_
_atom_site_label
_atom_site_type_symbol
_atom_site_fract_x
_atom_site_fract_y
_atom_site_fract_z
Cu1 Cu 0.48468(4) 0.23760(4) 0.75450(4)
N1 N 0.4601(2) 0.0383(3) 0.7341(2)
C1 C 0.4977(3) -0.0260(3) 0.6588(3)
C2 C 0.4938(3) -0.1659(3) 0.6423(3)
C3 C 0.4502(3) -0.2466(3) 0.7075(3)
C4 C 0.4109(3) -0.1847(3) 0.7828(3)
C5 C 0.4170(2) -0.0402(3) 0.7959(3)
N2 N 0.3762(2) 0.0167(3) 0.8740(2)
C6 C 0.3670(2) 0.1514(3) 0.9051(3)
C7 C 0.3168(3) 0.1730(4) 0.9859(3)
C8 C 0.3055(3) 0.3043(4) 1.0205(3)
C9 C 0.3414(3) 0.4138(4) 0.9724(3)
C10 C 0.3898(3) 0.3871(3) 0.8936(3)
N3 N 0.4036(2) 0.2574(2) 0.8593(2)
O1 O 0.5435(2) 0.4310(2) 0.7616(2)
O2 O 0.5873(2) 0.2663(2) 0.6670(2)
C11 C 0.5979(3) 0.3907(3) 0.7010(3)
C12 C 0.6722(3) 0.4881(4) 0.6711(4)
O3 O 0.3121(3) 0.3323(3) 0.5988(2)
N4 N 0.2543(2) 0.2765(3) 0.5024(2)
O4 O 0.2933(2) 0.1901(3) 0.4575(2)
O5 O 0.6552(2) 0.1799(3) 0.9531(2)
H1 H 0.5325 0.0377 0.6092
H2 H 0.5243 -0.2122 0.5804
H3 H 0.4461 -0.3577 0.6977
H4 H 0.3767 -0.2453 0.8349
H5 H 0.3436 -0.0583 0.9176
H6 H 0.2889 0.0858 1.0223
H7 H 0.2669 0.3227 1.0829
H8 H 0.3319 0.5186 0.9974
H9 H 0.4184 0.4733 0.8569
H10 H 0.7110 0.4347 0.6196
H11 H 0.7374 0.5272 0.7521
H12 H 0.6219 0.5732 0.6197
O5C O 0.1552(2) 0.3201(3) 0.4531(2)
N4C N 0.7543(2) 0.2235(3) 1.0024(2)
Cu1C Cu -0.01532(4) 0.26240(4) 0.25450(4)
O3C O 0.8121(3) 0.1677(3) 1.0988(2)
O4C O 0.7933(2) 0.3099(3) 0.9575(2)
N1C N -0.0399(2) 0.4617(3) 0.2341(2)
N3C N -0.0964(2) 0.2426(2) 0.3593(2)
O1C O 0.0435(2) 0.0690(2) 0.2616(2)
O2C O 0.0873(2) 0.2337(2) 0.1670(2)
O3C_2 O -0.1879(3) 0.1677(3) 0.0988(2)
Cu1C_2 Cu 0.98468(4) 0.26240(4) 1.25450(4)
C1C C -0.0023(3) 0.5260(3) 0.1588(3)
C5C C -0.0830(2) 0.5402(3) 0.2959(3)
C6C C -0.1330(2) 0.3486(3) 0.4051(3)
C10C C -0.1102(3) 0.1129(3) 0.3936(3)
C11C C 0.0979(3) 0.1093(3) 0.2010(3)
C2C C -0.0062(3) 0.6659(3) 0.1423(3)
H1C H 0.0325 0.4623 0.1092
C4C C -0.0891(3) 0.6847(3) 0.2828(3)
N2C N -0.1238(2) 0.4833(3) 0.3740(2)
C7C C -0.1832(3) 0.3270(4) 0.4859(3)
C9C C -0.1586(3) 0.0862(4) 0.4724(3)
H9C H -0.0816 0.0267 0.3569
C12C C 0.1722(3) 0.0119(4) 0.1711(4)
C3C C -0.0498(3) 0.7466(3) 0.2075(3)
H2C H 0.0243 0.7122 0.0804
H4C H -0.1233 0.7453 0.3349
H5C H -0.1564 0.5583 0.4176
C8C C -0.1945(3) 0.1957(4) 0.5205(3)
H6C H -0.2111 0.4142 0.5223
H8C H -0.1681 -0.0186 0.4974
H10C H 0.2110 0.0653 0.1196
H11C H 0.2374 -0.0272 0.2521
H12C H 0.1219 -0.0732 0.1197
H3C H -0.0539 0.8577 0.1977
H7C H -0.2331 0.1773 0.5829
loop_
_geom_bond_atom_site_label_1
_geom_bond_atom_site_label_2
_geom_bond_site_symmetry_1
_geom_bond_site_symmetry_2
Cu1 N1 1_555 1_555
N1 C1 1_555 1_555
C1 C2 1_555 1_555
C2 C3 1_555 1_555
C3 C4 1_555 1_555
C4 C5 1_555 1_555
C5 N1 1_555 1_555
N2 C5 1_555 1_555
C6 N2 1_555 1_555
C7 C6 1_555 1_555
C8 C7 1_555 1_555
C9 C8 1_555 1_555
C10 C9 1_555 1_555
N3 Cu1 1_555 1_555
O1 Cu1 1_555 1_555
O2 Cu1 1_555 1_555
C11 O1 1_555 1_555
C12 C11 1_555 1_555
O3 Cu1 1_555 1_555
N4 O3 1_555 1_555
O4 N4 1_555 1_555
O5 Cu1 1_555 1_555
H1 C1 1_555 1_555
H2 C2 1_555 1_555
H3 C3 1_555 1_555
H4 C4 1_555 1_555
H5 N2 1_555 1_555
H6 C7 1_555 1_555
H7 C8 1_555 1_555
H8 C9 1_555 1_555
H9 C10 1_555 1_555
H10 C12 1_555 1_555
H11 C12 1_555 1_555
H12 C12 1_555 1_555
O5C N4 1_555 1_555
N4C O5 1_555 1_555
Cu1C O5C 1_555 1_555
O3C N4C 1_555 1_555
O4C N4C 1_555 1_555
N1C Cu1C 1_555 1_555
N3C Cu1C 1_555 1_555
O1C Cu1C 1_555 1_555
O2C Cu1C 1_555 1_555
O3C_2 Cu1C 1_555 1_555
Cu1C_2 O3C 1_555 1_555
C1C N1C 1_555 1_555
C5C N1C 1_555 1_555
C6C N3C 1_555 1_555
C10C N3C 1_555 1_555
C11C O1C 1_555 1_555
C2C C1C 1_555 1_555
H1C C1C 1_555 1_555
C4C C5C 1_555 1_555
N2C C5C 1_555 1_555
C7C C6C 1_555 1_555
C9C C10C 1_555 1_555
H9C C10C 1_555 1_555
C12C C11C 1_555 1_555
C3C C2C 1_555 1_555
H2C C2C 1_555 1_555
H4C C4C 1_555 1_555
H5C N2C 1_555 1_555
C8C C7C 1_555 1_555
H6C C7C 1_555 1_555
H8C C9C 1_555 1_555
H10C C12C 1_555 1_555
H11C C12C 1_555 1_555
H12C C12C 1_555 1_555
H3C C3C 1_555 1_555
H7C C8C 1_555 1_555
C6 N3 1_555 1_555
C10 N3 1_555 1_555
O2 C11 1_555 1_555
O2C C11C 1_555 1_555
C6C N2C 1_555 1_555
C4C C3C 1_555 1_555
C9C C8C 1_555 1_555

#END
