
#######################################################################
#
#                 Cambridge Crystallographic Data Centre
#                                CCDC 
#
#######################################################################
#
# If this CIF has been generated from an entry in the Cambridge 
# Structural Database, then it will include bibliographic, chemical, 
# crystal, experimental, refinement or atomic coordinate data resulting 
# from the CCDC's data processing and validation procedures.
#
#######################################################################

data_TAGHEQ
_symmetry_cell_setting           monoclinic
_symmetry_space_group_name_H-M   'P 21/n'
_symmetry_Int_Tables_number      14
_space_group_name_Hall           '-P 2yn'
loop_
_symmetry_equiv_pos_site_id
_symmetry_equiv_pos_as_xyz
1 x,y,z
2 1/2-x,1/2+y,1/2-z
3 -x,-y,-z
4 1/2+x,1/2-y,1/2+z
_cell_length_a                   8.0562(3)
_cell_length_b                   18.4484(6)
_cell_length_c                   15.3958(6)
_cell_angle_alpha                90
_cell_angle_beta                 100.588(3)
_cell_angle_gamma                90
_cell_volume                     2249.23
loop_
_atom_site_label
_atom_site_type_symbol
_atom_site_fract_x
_atom_site_fract_y
_atom_site_fract_z
C1 C 0.9629(3) 0.10448(13) -0.00468(17)
H1 H 0.9890 0.0828 0.0551
H2 H 1.0443 0.0852 -0.0398
C2 C 0.7863(3) 0.08510(14) -0.04810(17)
H3 H 0.7600 0.1098 -0.1061
H4 H 0.7807 0.0322 -0.0591
C3 C 0.6601(3) 0.05790(13) 0.07593(18)
H5 H 0.7673 0.0630 0.1188
H6 H 0.6483 0.0067 0.0564
C4 C 0.5147(4) 0.07933(14) 0.1179(2)
H7 H 0.4092 0.0774 0.0734
H8 H 0.5039 0.0446 0.1656
C5 C 0.5217(4) 0.15453(15) 0.24378(19)
H9 H 0.6254 0.1359 0.2818
H10 H 0.4249 0.1247 0.2540
C6 C 0.4945(3) 0.23196(15) 0.2652(2)
H11 H 0.3953 0.2513 0.2242
H12 H 0.4723 0.2359 0.3262
C7 C 0.6097(3) 0.34868(14) 0.2610(2)
H13 H 0.5546 0.3599 0.3118
H14 H 0.5340 0.3646 0.2062
C8 C 0.7747(3) 0.38729(14) 0.27067(18)
H15 H 0.7569 0.4403 0.2732
H16 H 0.8497 0.3721 0.3260
C9 C 1.0133(3) 0.39970(15) 0.20379(18)
H17 H 1.0889 0.3793 0.2561
H18 H 1.0084 0.4529 0.2113
C10 C 1.0805(3) 0.38226(14) 0.12179(19)
H19 H 1.0124 0.4069 0.0701
H20 H 1.1990 0.3988 0.1279
C11 C 1.1608(3) 0.28192(15) 0.0441(2)
H21 H 1.2808 0.2965 0.0600
H22 H 1.1123 0.3043 -0.0134
C12 C 1.1475(3) 0.20125(15) 0.03746(19)
H23 H 1.2240 0.1828 -0.0010
H24 H 1.1817 0.1793 0.0968
C13 C 0.5511(3) 0.38524(12) -0.23495(15)
C14 C 0.5952(3) 0.27451(12) -0.14116(17)
H25 H 0.7057 0.2494 -0.1287
H26 H 0.5265 0.2521 -0.1943
C15 C 0.5066(3) 0.26578(13) -0.06361(17)
H27 H 0.3910 0.2859 -0.0791
H28 H 0.4969 0.2136 -0.0506
C16 C 0.6122(4) 0.37754(14) -0.00478(18)
H29 H 0.6736 0.4020 0.0488
H30 H 0.4986 0.3997 -0.0202
C17 C 0.7059(4) 0.38864(15) -0.07960(18)
H31 H 0.7119 0.4411 -0.0925
H32 H 0.8227 0.3701 -0.0625
B1 B 0.5851(4) 0.47105(15) -0.2456(2)
H33 H 0.520(2) 0.4897(4) -0.3132(11)
H34 H 0.725(2) 0.4811(2) -0.2377(12)
H35 H 0.533(2) 0.5021(5) -0.1933(11)
N1 N 0.6208(3) 0.35089(11) -0.15773(14)
O1 O 0.9773(2) 0.18156(9) 0.00146(12)
O2 O 0.6607(2) 0.10412(9) 0.00216(12)
O3 O 0.5376(2) 0.15089(9) 0.15375(13)
O4 O 0.6405(2) 0.27284(9) 0.25735(12)
O5 O 0.8497(2) 0.36977(9) 0.19670(11)
O6 O 1.0712(2) 0.30588(9) 0.11010(12)
O7 O 0.4667(2) 0.34716(9) -0.29349(11)
O8 O 0.5954(2) 0.30180(10) 0.01337(11)
Na1 Na 0.79504(11) 0.23549(5) 0.12723(6)
O7C O 0.9667(2) 0.15284(9) 0.20651(11)
Na1C Na 0.29504(11) 0.26451(5) -0.37277(6)
loop_
_geom_bond_atom_site_label_1
_geom_bond_atom_site_label_2
_geom_bond_site_symmetry_1
_geom_bond_site_symmetry_2
C1 H1 1_555 1_555
H2 C1 1_555 1_555
C2 C1 1_555 1_555
H3 C2 1_555 1_555
H4 C2 1_555 1_555
C3 H5 1_555 1_555
H6 C3 1_555 1_555
C4 C3 1_555 1_555
H7 C4 1_555 1_555
H8 C4 1_555 1_555
C5 H9 1_555 1_555
H10 C5 1_555 1_555
C6 C5 1_555 1_555
H11 C6 1_555 1_555
H12 C6 1_555 1_555
C7 H13 1_555 1_555
H14 C7 1_555 1_555
C8 C7 1_555 1_555
H15 C8 1_555 1_555
H16 C8 1_555 1_555
C9 H17 1_555 1_555
H18 C9 1_555 1_555
C10 C9 1_555 1_555
H19 C10 1_555 1_555
H20 C10 1_555 1_555
C11 H21 1_555 1_555
H22 C11 1_555 1_555
C12 C11 1_555 1_555
H23 C12 1_555 1_555
H24 C12 1_555 1_555
C13 B1 1_555 1_555
C14 H25 1_555 1_555
H26 C14 1_555 1_555
C15 C14 1_555 1_555
H27 C15 1_555 1_555
H28 C15 1_555 1_555
C16 H29 1_555 1_555
H30 C16 1_555 1_555
C17 C16 1_555 1_555
H31 C17 1_555 1_555
H32 C17 1_555 1_555
B1 H33 1_555 1_555
H34 B1 1_555 1_555
H35 B1 1_555 1_555
N1 C13 1_555 1_555
O1 C1 1_555 1_555
O2 C2 1_555 1_555
O3 C4 1_555 1_555
O4 C6 1_555 1_555
O5 C8 1_555 1_555
O6 C10 1_555 1_555
O7 C13 1_555 1_555
O8 C15 1_555 1_555
Na1 O1 1_555 1_555
O7C Na1 1_555 1_555
Na1C O7 1_555 1_555
C3 O2 1_555 1_555
C5 O3 1_555 1_555
C7 O4 1_555 1_555
C9 O5 1_555 1_555
C11 O6 1_555 1_555
C12 O1 1_555 1_555
C14 N1 1_555 1_555
C16 O8 1_555 1_555
C17 N1 1_555 1_555
O3 Na1 1_555 1_555
O4 Na1 1_555 1_555
O5 Na1 1_555 1_555
O6 Na1 1_555 1_555
O8 Na1 1_555 1_555

#END
