
#######################################################################
#
#                 Cambridge Crystallographic Data Centre
#                                CCDC 
#
#######################################################################
#
# If this CIF has been generated from an entry in the Cambridge 
# Structural Database, then it will include bibliographic, chemical, 
# crystal, experimental, refinement or atomic coordinate data resulting 
# from the CCDC's data processing and validation procedures.
#
#######################################################################

data_TAGMUK
_symmetry_cell_setting           monoclinic
_symmetry_space_group_name_H-M   'C 2/c'
_symmetry_Int_Tables_number      15
_space_group_name_Hall           '-C 2yn'
loop_
_symmetry_equiv_pos_site_id
_symmetry_equiv_pos_as_xyz
1 x,y,z
2 1/2+x,1/2+y,z
3 x,-y,1/2+z
4 1/2+x,1/2-y,1/2+z
5 -x,-y,-z
6 1/2-x,1/2-y,-z
7 -x,y,1/2-z
8 1/2-x,1/2+y,1/2-z
_cell_length_a                   36.118(2)
_cell_length_b                   16.2137(9)
_cell_length_c                   23.4909(14)
_cell_angle_alpha                90
_cell_angle_beta                 121.606(4)
_cell_angle_gamma                90
_cell_volume                     11716
loop_
_atom_site_label
_atom_site_type_symbol
_atom_site_fract_x
_atom_site_fract_y
_atom_site_fract_z
U1 U 0.260969(16) 1.04543(3) 0.26055(2)
Cs1 Cs 0.19734(3) 1.27498(5) 0.19174(4)
Cs2 Cs 0.32970(3) 1.31249(5) 0.35497(4)
O1 O 0.3299(3) 1.0299(5) 0.2798(4)
O2 O 0.2969(3) 1.0268(5) 0.3740(4)
O3 O 0.2154(3) 0.9459(5) 0.3536(4)
O4 O 0.1943(3) 1.0705(5) 0.2431(3)
O5 O 0.2262(3) 1.0726(5) 0.1486(4)
O6 O 0.2890(3) 0.9491(5) 0.1440(3)
O7 O 0.2721(3) 1.1540(5) 0.2782(4)
O8 O 0.2493(3) 0.9372(5) 0.2440(4)
C1 C 0.3586(4) 0.9292(8) 0.2403(6)
C2 C 0.3556(4) 0.9657(8) 0.2927(6)
C3 C 0.3836(4) 0.9338(8) 0.3593(5)
C4 C 0.4100(4) 0.8668(8) 0.3690(6)
H1 H 0.4277 0.8468 0.4122
C5 C 0.4117(4) 0.8273(8) 0.3171(6)
C6 C 0.3849(4) 0.8630(9) 0.2520(6)
H2 H 0.3856 0.8401 0.2162
C7 C 0.4394(4) 0.7509(8) 0.3281(6)
C8 C 0.4675(5) 0.7269(10) 0.4024(6)
H3 H 0.4861 0.7723 0.4273
H4 H 0.4849 0.6798 0.4071
H5 H 0.4490 0.7139 0.4192
C9 C 0.4694(4) 0.7666(9) 0.3005(7)
H6 H 0.4520 0.7809 0.2540
H7 H 0.4858 0.7177 0.3056
H8 H 0.4889 0.8111 0.3247
C10 C 0.4087(5) 0.6778(9) 0.2903(7)
H9 H 0.3898 0.6686 0.3070
H10 H 0.4257 0.6292 0.2970
H11 H 0.3916 0.6903 0.2435
C11 C 0.3840(4) 0.9765(8) 0.4176(6)
H12 H 0.4136 0.9780 0.4556
H13 H 0.3742 1.0329 0.4051
C12 C 0.3551(4) 0.9330(8) 0.4377(6)
C13 C 0.3133(4) 0.9613(8) 0.4149(5)
C14 C 0.2896(4) 0.9235(7) 0.4408(5)
C15 C 0.3069(4) 0.8565(8) 0.4841(6)
H14 H 0.2906 0.8319 0.4996
C16 C 0.3488(4) 0.8248(8) 0.5051(6)
C17 C 0.3710(4) 0.8649(7) 0.4807(5)
H15 H 0.3986 0.8454 0.4935
C18 C 0.3672(5) 0.7558(8) 0.5565(6)
C19 C 0.3809(5) 0.7926(9) 0.6251(7)
H16 H 0.4008 0.8372 0.6349
H17 H 0.3947 0.7507 0.6587
H18 H 0.3556 0.8128 0.6244
C20 C 0.3331(5) 0.6878(8) 0.5380(7)
H19 H 0.3108 0.7074 0.5452
H20 H 0.3468 0.6401 0.5654
H21 H 0.3204 0.6733 0.4918
C21 C 0.4060(5) 0.7153(9) 0.5592(7)
H22 H 0.3979 0.6971 0.5152
H23 H 0.4153 0.6688 0.5888
H24 H 0.4293 0.7543 0.5752
C22 C 0.2467(4) 0.9601(8) 0.4228(5)
H25 H 0.2367 0.9355 0.4500
H26 H 0.2500 1.0190 0.4316
C23 C 0.1767(4) 0.9913(8) 0.3334(5)
H27 H 0.1837 1.0489 0.3453
H28 H 0.1625 0.9701 0.3558
C24 C 0.1469(4) 0.9832(8) 0.2590(5)
C25 C 0.1570(4) 1.0258(8) 0.2173(6)
C26 C 0.1269(4) 1.0246(7) 0.1471(5)
C27 C 0.0890(4) 0.9796(7) 0.1229(5)
H29 H 0.0696 0.9786 0.0769
C28 C 0.0778(4) 0.9356(8) 0.1626(6)
C29 C 0.1085(4) 0.9378(7) 0.2321(5)
H30 H 0.1030 0.9081 0.2607
C30 C 0.0349(4) 0.8900(8) 0.1332(5)
C31 C 0.0294(5) 0.8459(10) 0.1864(7)
H31 H 0.0512 0.8039 0.2078
H32 H 0.0011 0.8212 0.1655
H33 H 0.0325 0.8852 0.2193
C32 C 0.0301(5) 0.8279(9) 0.0808(7)
H34 H 0.0274 0.8568 0.0432
H35 H 0.0046 0.7949 0.0664
H36 H 0.0552 0.7928 0.0999
C33 C -0.0021(4) 0.9564(9) 0.0978(8)
H37 H 0.0035 1.0010 0.1282
H38 H -0.0296 0.9317 0.0846
H39 H -0.0027 0.9771 0.0590
C34 C 0.1343(4) 1.0735(8) 0.0998(6)
H40 H 0.1532 1.1197 0.1237
H41 H 0.1067 1.0956 0.0646
C35 C 0.1547(4) 1.0233(7) 0.0679(6)
C36 C 0.1998(4) 1.0270(7) 0.0950(5)
C37 C 0.2159(4) 0.9843(7) 0.0607(5)
C38 C 0.1885(4) 0.9353(7) 0.0051(5)
H42 H 0.2003 0.9069 -0.0162
C39 C 0.1443(4) 0.9276(7) -0.0194(6)
C40 C 0.1284(4) 0.9763(7) 0.0125(6)
H43 H 0.0986 0.9767 -0.0048
C41 C 0.1138(4) 0.8714(8) -0.0782(6)
C42 C 0.1384(4) 0.8136(8) -0.0969(7)
H44 H 0.1183 0.7776 -0.1320
H45 H 0.1584 0.7814 -0.0586
H46 H 0.1543 0.8449 -0.1118
C43 C 0.0828(4) 0.9252(8) -0.1391(6)
H47 H 0.0994 0.9560 -0.1532
H48 H 0.0675 0.9626 -0.1270
H49 H 0.0624 0.8905 -0.1751
C44 C 0.0858(4) 0.8205(9) -0.0597(6)
H50 H 0.0696 0.7801 -0.0939
H51 H 0.0660 0.8563 -0.0559
H52 H 0.1042 0.7931 -0.0178
C45 C 0.2624(4) 0.9948(8) 0.0826(6)
H53 H 0.2673 0.9746 0.0482
H54 H 0.2701 1.0528 0.0899
C46 C 0.3343(4) 0.9659(8) 0.1731(6)
H55 H 0.3392 1.0250 0.1760
H56 H 0.3444 0.9427 0.1454
O9 O 0.2404(3) 1.2993(5) 0.3411(4)
C47 C 0.2318(6) 1.2417(10) 0.3783(9)
H57 H 0.2009 1.2427 0.3635
H58 H 0.2485 1.2527 0.4247
H59 H 0.2381 1.1858 0.3701
O10 O 0.2827(3) 1.2999(5) 0.2018(4)
C48 C 0.2944(6) 1.2426(10) 0.1687(8)
H60 H 0.2765 1.2491 0.1213
H61 H 0.3248 1.2521 0.1815
H62 H 0.2924 1.1875 0.1811
O11 O 0.3405(4) 1.1589(6) 0.4554(5)
C49 C 0.3570(7) 1.1177(13) 0.5178(10)
H63 H 0.3448 1.0633 0.5100
H64 H 0.3491 1.1482 0.5450
H65 H 0.3881 1.1139 0.5403
O12 O 0.3806(4) 1.1686(7) 0.3318(6)
C50 C 0.4033(14) 1.148(3) 0.300(2)
H66 H 0.4125 1.0923 0.3102
H67 H 0.3848 1.1562 0.2534
H68 H 0.4282 1.1840 0.3176
O8G O 0.2507(3) 1.4372(5) 0.2560(4)
Cs1G Cs 0.30266(3) 0.77498(5) 0.30826(4)
Cs2G Cs 0.17030(3) 0.81249(5) 0.14503(4)
Cl1 Cl 0.0467(5) 0.5955(9) 0.2154(7)
Cl2 Cl 0.0150(4) 0.5858(9) 0.0739(6)
Cl3 Cl -0.0277(5) 0.4955(11) 0.1258(8)
C51 C 0.0232(9) 0.531(3) 0.142(2)
H69 H 0.0423 0.4843 0.1498
loop_
_geom_bond_atom_site_label_1
_geom_bond_atom_site_label_2
_geom_bond_site_symmetry_1
_geom_bond_site_symmetry_2
U1 O1 1_555 1_555
Cs1 O7 1_555 1_555
Cs2 O7 1_555 1_555
O1 C2 1_555 1_555
O2 U1 1_555 1_555
O3 C22 1_555 1_555
O4 U1 1_555 1_555
O5 U1 1_555 1_555
O6 C45 1_555 1_555
O7 U1 1_555 1_555
O8 U1 1_555 1_555
C1 C2 1_555 1_555
C2 C3 1_555 1_555
C3 C4 1_555 1_555
C4 H1 1_555 1_555
C5 C4 1_555 1_555
C6 C1 1_555 1_555
H2 C6 1_555 1_555
C7 C5 1_555 1_555
C8 C7 1_555 1_555
H3 C8 1_555 1_555
H4 C8 1_555 1_555
H5 C8 1_555 1_555
C9 C7 1_555 1_555
H6 C9 1_555 1_555
H7 C9 1_555 1_555
H8 C9 1_555 1_555
C10 C7 1_555 1_555
H9 C10 1_555 1_555
H10 C10 1_555 1_555
H11 C10 1_555 1_555
C11 C3 1_555 1_555
H12 C11 1_555 1_555
H13 C11 1_555 1_555
C12 C11 1_555 1_555
C13 O2 1_555 1_555
C14 C13 1_555 1_555
C15 C14 1_555 1_555
H14 C15 1_555 1_555
C16 C15 1_555 1_555
C17 C12 1_555 1_555
H15 C17 1_555 1_555
C18 C16 1_555 1_555
C19 C18 1_555 1_555
H16 C19 1_555 1_555
H17 C19 1_555 1_555
H18 C19 1_555 1_555
C20 C18 1_555 1_555
H19 C20 1_555 1_555
H20 C20 1_555 1_555
H21 C20 1_555 1_555
C21 C18 1_555 1_555
H22 C21 1_555 1_555
H23 C21 1_555 1_555
H24 C21 1_555 1_555
C22 C14 1_555 1_555
H25 C22 1_555 1_555
H26 C22 1_555 1_555
C23 O3 1_555 1_555
H27 C23 1_555 1_555
H28 C23 1_555 1_555
C24 C23 1_555 1_555
C25 O4 1_555 1_555
C26 C25 1_555 1_555
C27 C26 1_555 1_555
H29 C27 1_555 1_555
C28 C27 1_555 1_555
C29 C24 1_555 1_555
H30 C29 1_555 1_555
C30 C28 1_555 1_555
C31 C30 1_555 1_555
H31 C31 1_555 1_555
H32 C31 1_555 1_555
H33 C31 1_555 1_555
C32 C30 1_555 1_555
H34 C32 1_555 1_555
H35 C32 1_555 1_555
H36 C32 1_555 1_555
C33 C30 1_555 1_555
H37 C33 1_555 1_555
H38 C33 1_555 1_555
H39 C33 1_555 1_555
C34 C26 1_555 1_555
H40 C34 1_555 1_555
H41 C34 1_555 1_555
C35 C34 1_555 1_555
C36 O5 1_555 1_555
C37 C36 1_555 1_555
C38 C37 1_555 1_555
H42 C38 1_555 1_555
C39 C38 1_555 1_555
C40 C35 1_555 1_555
H43 C40 1_555 1_555
C41 C39 1_555 1_555
C42 C41 1_555 1_555
H44 C42 1_555 1_555
H45 C42 1_555 1_555
H46 C42 1_555 1_555
C43 C41 1_555 1_555
H47 C43 1_555 1_555
H48 C43 1_555 1_555
H49 C43 1_555 1_555
C44 C41 1_555 1_555
H50 C44 1_555 1_555
H51 C44 1_555 1_555
H52 C44 1_555 1_555
C45 C37 1_555 1_555
H53 C45 1_555 1_555
H54 C45 1_555 1_555
C46 O6 1_555 1_555
H55 C46 1_555 1_555
H56 C46 1_555 1_555
O9 Cs1 1_555 1_555
C47 O9 1_555 1_555
H57 C47 1_555 1_555
H58 C47 1_555 1_555
H59 C47 1_555 1_555
O10 Cs1 1_555 1_555
C48 O10 1_555 1_555
H60 C48 1_555 1_555
H61 C48 1_555 1_555
H62 C48 1_555 1_555
O11 Cs2 1_555 1_555
C49 O11 1_555 1_555
H63 C49 1_555 1_555
H64 C49 1_555 1_555
H65 C49 1_555 1_555
O12 Cs2 1_555 1_555
C50 O12 1_555 1_555
H66 C50 1_555 1_555
H67 C50 1_555 1_555
H68 C50 1_555 1_555
Cl1 C51 1_555 1_555
Cl2 C51 1_555 1_555
Cl3 C51 1_555 1_555
C51 H69 1_555 1_555
O8G Cs1 1_555 1_555
Cs1G O8 1_555 1_555
Cs2G O8 1_555 1_555
Cs2 O9 1_555 1_555
Cs2 O10 1_555 1_555
Cs2 O8G 1_555 1_555
C1 C46 1_555 1_555
C5 C6 1_555 1_555
C12 C13 1_555 1_555
C16 C17 1_555 1_555
C24 C25 1_555 1_555
C28 C29 1_555 1_555
C35 C36 1_555 1_555
C39 C40 1_555 1_555

#END
