
#######################################################################
#
#                 Cambridge Crystallographic Data Centre
#                                CCDC 
#
#######################################################################
#
# If this CIF has been generated from an entry in the Cambridge 
# Structural Database, then it will include bibliographic, chemical, 
# crystal, experimental, refinement or atomic coordinate data resulting 
# from the CCDC's data processing and validation procedures.
#
#######################################################################

data_TAGMUL
_symmetry_cell_setting           monoclinic
_symmetry_space_group_name_H-M   'C 2/c'
_symmetry_Int_Tables_number      15
_space_group_name_Hall           '-C 2yn'
loop_
_symmetry_equiv_pos_site_id
_symmetry_equiv_pos_as_xyz
1 x,y,z
2 -x,y,1/2-z
3 1/2+x,1/2+y,z
4 1/2-x,1/2+y,1/2-z
5 -x,-y,-z
6 x,-y,1/2+z
7 1/2-x,1/2-y,-z
8 1/2+x,1/2-y,1/2+z
_cell_length_a                   24.222(4)
_cell_length_b                   15.306(3)
_cell_length_c                   14.028(3)
_cell_angle_alpha                90
_cell_angle_beta                 113.17(3)
_cell_angle_gamma                90
_cell_volume                     4781.28
loop_
_atom_site_label
_atom_site_type_symbol
_atom_site_fract_x
_atom_site_fract_y
_atom_site_fract_z
Cd1 Cd 0.66451(8) 0.33003(14) 0.72140(10)
Cd2 Cd 0.67774(8) 0.35633(14) 0.20023(10)
O1 O 0.7630(6) 0.3862(10) 0.8093(9)
H1 H 0.7622 0.4424 0.7942
H2 H 0.7980 0.3613 0.8106
O2 O 0.6567(8) 0.1268(12) 0.3679(11)
O3 O 0.6641(6) 0.2159(12) 0.2464(9)
O4 O 0.6496(7) 0.4959(10) 0.6986(9)
O5 O 0.5708(7) 0.4060(12) 0.6463(10)
O6 O 0.7202(7) 0.1985(11) 0.7468(10)
O7 O 0.7243(7) 0.0560(13) 0.7464(12)
N1 N 0.6818(8) 0.3399(11) 0.5666(12)
N2 N 0.6896(8) 0.3553(12) 0.3750(12)
N3 N 0.5712(9) 0.6331(17) 0.6533(12)
N4 N 0.4527(8) 0.6092(18) 0.6095(13)
N5 N 0.5974(11) 0.2016(14) 0.6681(12)
N6 N 0.5348(12) 0.0448(17) 0.6484(17)
N7 N 0.6577(10) 0.3263(14) 0.8744(11)
N8 N 0.6052(11) 0.3017(18) 0.8774(14)
N9 N 0.6044(10) 0.3084(17) 0.9687(16)
N10 N 0.6618(9) 0.3331(14) 1.0335(11)
N11 N 0.7475(9) 0.3671(13) 1.0055(11)
H3 H 0.7643 0.3740 0.9622
H4 H 0.7676 0.3765 1.0705
C1 C 0.6647(10) 0.1997(17) 0.3355(17)
C2 C 0.6768(9) 0.2831(17) 0.4065(15)
C3 C 0.6741(9) 0.2722(17) 0.5071(15)
H5 H 0.6670 0.2175 0.5288
C4 C 0.6985(9) 0.4137(17) 0.5390(15)
H6 H 0.7092 0.4610 0.5842
C5 C 0.7001(10) 0.4206(18) 0.4378(17)
H7 H 0.7091 0.4745 0.4168
C6 C 0.5929(12) 0.4874(17) 0.6641(16)
C7 C 0.5462(11) 0.5534(18) 0.6436(14)
C8 C 0.4860(13) 0.535(2) 0.6202(17)
H8 H 0.4703 0.4784 0.6128
C9 C 0.4740(13) 0.691(2) 0.6130(18)
H9 H 0.4483 0.7383 0.6000
C10 C 0.5357(13) 0.703(2) 0.6365(18)
H10 H 0.5513 0.7592 0.6403
C11 C 0.6942(11) 0.1236(19) 0.7298(15)
C12 C 0.6272(11) 0.1226(18) 0.6900(15)
C13 C 0.5957(15) 0.047(2) 0.683(2)
H11 H 0.6168 -0.0051 0.7033
C14 C 0.5107(12) 0.123(2) 0.6250(18)
H12 H 0.4690 0.1222 0.6002
C15 C 0.5344(14) 0.208(2) 0.6291(19)
H13 H 0.5121 0.2593 0.6096
C16 C 0.6901(11) 0.3415(15) 0.9717(19)
Cd2E Cd 0.67774(8) 0.64367(14) 0.70023(10)
Cd2F Cd 0.82226(8) 0.14367(14) 0.79977(10)
Cd2_2 Cd 0.67774(8) 0.35633(14) 1.20023(10)
O4E O 0.6496(7) 0.5041(10) 0.1986(9)
O6F O 0.7798(7) 0.3015(11) 0.2532(10)
O7F O 0.7757(7) 0.4440(13) 0.2536(12)
N3E N 0.5712(9) 0.3669(17) 0.1533(12)
N10_2 N 0.6618(9) 0.3331(14) 0.0335(11)
O8 O 0.4496(12) -0.100(2) 0.5853(18)
H14 H 0.4659 -0.0525 0.5745
H15 H 0.4103 -0.1011 0.5569
loop_
_geom_bond_atom_site_label_1
_geom_bond_atom_site_label_2
_geom_bond_site_symmetry_1
_geom_bond_site_symmetry_2
Cd1 O1 1_555 1_555
Cd2 O3 1_555 1_555
O1 H1 1_555 1_555
H2 O1 1_555 1_555
O2 C1 1_555 1_555
O3 C1 1_555 1_555
O4 Cd1 1_555 1_555
O5 Cd1 1_555 1_555
O6 Cd1 1_555 1_555
O7 C11 1_555 1_555
N1 Cd1 1_555 1_555
N2 Cd2 1_555 1_555
N3 C7 1_555 1_555
N4 C8 1_555 1_555
N5 Cd1 1_555 1_555
N6 C13 1_555 1_555
N7 Cd1 1_555 1_555
N8 N7 1_555 1_555
N9 N8 1_555 1_555
N10 N9 1_555 1_555
N11 H3 1_555 1_555
H4 N11 1_555 1_555
C1 C2 1_555 1_555
C2 N2 1_555 1_555
C3 N1 1_555 1_555
H5 C3 1_555 1_555
C4 N1 1_555 1_555
H6 C4 1_555 1_555
C5 N2 1_555 1_555
H7 C5 1_555 1_555
C6 O4 1_555 1_555
C7 C6 1_555 1_555
C8 C7 1_555 1_555
H8 C8 1_555 1_555
C9 N4 1_555 1_555
H9 C9 1_555 1_555
C10 N3 1_555 1_555
H10 C10 1_555 1_555
C11 O6 1_555 1_555
C12 N5 1_555 1_555
C13 C12 1_555 1_555
H11 C13 1_555 1_555
C14 N6 1_555 1_555
H12 C14 1_555 1_555
C15 N5 1_555 1_555
H13 C15 1_555 1_555
C16 N7 1_555 1_555
O8 H14 1_555 1_555
H15 O8 1_555 1_555
Cd2E O4 1_555 1_555
Cd2F O6 1_555 1_555
Cd2_2 N10 1_555 1_555
O4E Cd2 1_555 1_555
O6F Cd2 1_555 1_555
O7F Cd2 1_555 1_555
N3E Cd2 1_555 1_555
N10_2 Cd2 1_555 1_555
O5 C6 1_555 1_555
O7 Cd2F 1_555 1_555
N3 Cd2E 1_555 1_555
N10 C16 1_555 1_555
N11 C16 1_555 1_555
C2 C3 1_555 1_555
C4 C5 1_555 1_555
C9 C10 1_555 1_555
C11 C12 1_555 1_555
C14 C15 1_555 1_555

#END
