
#######################################################################
#
#                 Cambridge Crystallographic Data Centre
#                                CCDC 
#
#######################################################################
#
# If this CIF has been generated from an entry in the Cambridge 
# Structural Database, then it will include bibliographic, chemical, 
# crystal, experimental, refinement or atomic coordinate data resulting 
# from the CCDC's data processing and validation procedures.
#
#######################################################################

data_TAGNEW
_symmetry_cell_setting           orthorhombic
_symmetry_space_group_name_H-M   'P b c a'
_symmetry_Int_Tables_number      61
_space_group_name_Hall           '-P 2ac 2ab'
loop_
_symmetry_equiv_pos_site_id
_symmetry_equiv_pos_as_xyz
1 x,y,z
2 1/2-x,-y,1/2+z
3 1/2+x,1/2-y,-z
4 -x,1/2+y,1/2-z
5 -x,-y,-z
6 1/2+x,y,1/2-z
7 1/2-x,1/2+y,z
8 x,1/2-y,1/2+z
_cell_length_a                   24.018(5)
_cell_length_b                   20.361(5)
_cell_length_c                   29.799(5)
_cell_angle_alpha                90
_cell_angle_beta                 90
_cell_angle_gamma                90
_cell_volume                     14572.6
loop_
_atom_site_label
_atom_site_type_symbol
_atom_site_fract_x
_atom_site_fract_y
_atom_site_fract_z
W1 W 0.448500(13) -0.11971(2) -0.067640(11)
W2 W 0.365820(13) -0.40217(2) -0.077700(12)
W3 W 0.335160(13) -0.11577(2) -0.134640(12)
W4 W 0.463590(13) -0.11221(2) -0.180200(11)
W5 W 0.383520(13) -0.39420(2) -0.200530(11)
W6 W 0.554340(12) -0.25765(2) -0.173870(11)
W7 W 0.394520(13) -0.26940(2) -0.014160(11)
W8 W 0.535980(13) -0.26746(2) -0.061810(11)
W9 W 0.283390(13) -0.26857(2) -0.083690(12)
W10 W 0.432990(13) -0.25699(2) -0.249490(11)
W11 W 0.506530(13) -0.39772(2) -0.126910(11)
W12 W 0.303030(13) -0.25870(2) -0.205750(11)
Ag1 Ag 0.31793(3) -0.56405(6) -0.24302(3)
Ag4 Ag 0.53085(3) -0.56950(5) -0.18935(3)
Si1 Si 0.41721(8) -0.26065(12) -0.13141(7)
O1 O 0.3147(2) -0.3496(3) -0.21538(17)
O2 O 0.2408(2) -0.2506(4) -0.23235(18)
O3 O 0.3710(2) -0.4688(4) -0.2242(2)
O4 O 0.2847(2) -0.0594(3) -0.13673(19)
O5 O 0.3483(2) -0.4786(3) -0.06025(19)
O6 O 0.4531(2) -0.2441(4) -0.30355(17)
O7 O 0.4164(2) -0.1819(3) -0.12928(17)
O8 O 0.3929(2) -0.2860(3) -0.17939(17)
O9 O 0.5364(2) -0.4734(4) -0.12697(18)
O10 O 0.4943(2) -0.0512(3) -0.2111(2)
O11 O 0.3035(2) -0.1815(3) -0.09698(18)
O12 O 0.5848(2) -0.2605(4) -0.02095(17)
O13 O 0.4672(2) -0.0617(3) -0.02988(19)
O14 O 0.3158(2) -0.1738(3) -0.18339(18)
O15 O 0.3967(2) -0.2648(4) 0.04235(17)
O16 O 0.4807(2) -0.2884(3) -0.12573(16)
O17 O 0.5232(2) -0.1726(3) -0.17226(18)
O18 O 0.37865(19) -0.2910(3) -0.09137(16)
O19 O 0.4715(2) -0.2873(3) -0.02883(17)
O20 O 0.2157(2) -0.2621(4) -0.06952(18)
O21 O 0.3575(2) -0.4087(3) -0.14180(18)
O22 O 0.4430(2) -0.4113(3) -0.08889(17)
O23 O 0.5019(2) -0.2751(4) -0.22114(18)
O24 O 0.5437(2) -0.3578(3) -0.07583(17)
O25 O 0.5570(2) -0.3505(3) -0.16544(17)
O26 O 0.3534(2) -0.2432(4) -0.25385(17)
O27 O 0.3905(2) -0.0772(4) -0.17396(18)
O28 O 0.4561(2) -0.4062(3) -0.17552(17)
O29 O 0.2931(2) -0.3606(3) -0.07605(18)
O30 O 0.5089(2) -0.1793(3) -0.06551(18)
O31 O 0.4094(2) -0.1818(3) -0.03195(18)
O32 O 0.3825(2) -0.3621(3) -0.02061(17)
O33 O 0.4177(2) -0.3479(4) -0.25023(18)
O34 O 0.4784(2) -0.0807(3) -0.12135(18)
O35 O 0.3171(2) -0.2573(4) -0.02535(17)
O36 O 0.6140(2) -0.2458(4) -0.20281(18)
O37 O 0.2802(2) -0.2819(4) -0.14621(19)
O38 O 0.3776(2) -0.0823(3) -0.08456(18)
O39 O 0.4385(2) -0.1710(3) -0.22579(18)
O40 O 0.5813(2) -0.2482(4) -0.11402(17)
C1 C 0.4243(4) -0.6517(6) -0.2049(3)
H1 H 0.4477 -0.6747 -0.2241
C11 C 0.2122(3) -0.6061(6) -0.2953(3)
C13 C 0.1547(3) -0.6023(6) -0.3127(3)
C25 C 0.1384(4) -0.5135(6) -0.2677(3)
C26 C 0.3704(4) -0.6697(5) -0.2016(3)
H16 H 0.3568 -0.7037 -0.2194
C30 C 0.1029(4) -0.4626(7) -0.2554(4)
H19 H 0.0666 -0.4612 -0.2663
C35 C 0.2118(4) -0.4678(7) -0.2203(3)
H24 H 0.2468 -0.4704 -0.2072
C37 C 0.1771(5) -0.4173(8) -0.2099(4)
H26 H 0.1894 -0.3836 -0.1913
C38 C 0.1216(5) -0.4157(8) -0.2276(4)
H27 H 0.0980 -0.3814 -0.2197
C39 C 0.3563(4) -0.5872(6) -0.1470(3)
H28 H 0.3336 -0.5654 -0.1266
C40 C 0.1938(4) -0.5176(6) -0.2518(3)
C41 C 0.2314(5) -0.6951(6) -0.3457(3)
H29 H 0.2557 -0.7261 -0.3577
C42 C 0.2474(4) -0.6547(6) -0.3134(3)
H30 H 0.2834 -0.6585 -0.3022
C43 C 0.1397(4) -0.6494(6) -0.3460(3)
H31 H 0.1032 -0.6507 -0.3564
C44 C 0.1751(5) -0.6896(6) -0.3619(3)
H32 H 0.1640 -0.7169 -0.3852
C49 C 0.4114(4) -0.5680(5) -0.1521(3)
H35 H 0.4250 -0.5327 -0.1357
N2 N 0.2287(3) -0.5622(5) -0.2643(3)
N4 N 0.1192(3) -0.5570(5) -0.2970(2)
N6 N 0.3350(4) -0.6380(6) -0.1718(3)
N9 N 0.4451(3) -0.6001(5) -0.1806(2)
O41 O 0.3831(2) -0.5664(4) -0.3011(2)
Ag4E Ag 0.03085(3) -0.56950(5) -0.31065(3)
N4E N 0.6192(3) -0.5570(5) -0.2030(2)
Ag2 Ag 0.63633(3) -0.49601(5) -0.04490(3)
C6 C 0.5348(4) -0.5957(6) -0.0603(3)
H6 H 0.5712 -0.5958 -0.0710
C8 C 0.7978(3) -0.5578(6) -0.1002(3)
C10 C 0.8371(4) -0.6052(7) -0.0876(3)
H8 H 0.8707 -0.6076 -0.1031
C12 C 0.7484(3) -0.5512(5) -0.0746(3)
C14 C 0.7198(3) -0.4649(5) -0.1188(3)
C15 C 0.7707(3) -0.4708(5) -0.1441(3)
C16 C 0.6817(4) -0.4144(6) -0.1303(3)
H9 H 0.6481 -0.4109 -0.1149
C18 C 0.7400(4) -0.5952(6) -0.0378(3)
H10 H 0.7076 -0.5926 -0.0209
C20 C 0.7792(5) -0.6404(7) -0.0276(3)
H11 H 0.7740 -0.6676 -0.0028
C22 C 0.7801(4) -0.4276(6) -0.1812(3)
H13 H 0.8102 -0.4348 -0.2002
C29 C 0.7453(4) -0.3760(7) -0.1889(3)
H18 H 0.7545 -0.3443 -0.2101
C31 C 0.6936(4) -0.3710(6) -0.1636(4)
H20 H 0.6685 -0.3377 -0.1703
C32 C 0.8277(4) -0.6473(7) -0.0537(4)
H21 H 0.8529 -0.6807 -0.0475
C45 C 0.5184(3) -0.5448(5) -0.0299(3)
C46 C 0.5714(4) -0.4024(6) 0.0267(3)
H33 H 0.6074 -0.4000 0.0153
C47 C 0.5362(3) -0.4544(5) 0.0125(3)
C48 C 0.5005(4) -0.6429(6) -0.0739(3)
H34 H 0.5124 -0.6746 -0.0943
C50 C 0.5543(4) -0.3561(6) 0.0567(3)
H36 H 0.5789 -0.3235 0.0659
N1 N 0.8080(3) -0.5176(4) -0.1349(2)
N3 N 0.7105(3) -0.5047(4) -0.0835(2)
N8 N 0.5546(2) -0.4982(4) -0.0169(2)
Ag2D Ag 0.36367(3) -0.50399(5) 0.04490(3)
C6D C 0.4652(4) -0.4043(6) 0.0603(3)
H6D H 0.4288 -0.4042 0.0710
C8D C 0.2022(3) -0.4422(6) 0.1002(3)
C10D C 0.1629(4) -0.3948(7) 0.0876(3)
H8D H 0.1293 -0.3924 0.1031
C12D C 0.2516(3) -0.4488(5) 0.0746(3)
C14D C 0.2802(3) -0.5351(5) 0.1188(3)
C15D C 0.2293(3) -0.5292(5) 0.1441(3)
C16D C 0.3183(4) -0.5856(6) 0.1303(3)
H9D H 0.3519 -0.5891 0.1149
C18D C 0.2600(4) -0.4048(6) 0.0378(3)
H10D H 0.2924 -0.4074 0.0209
C20D C 0.2208(5) -0.3596(7) 0.0276(3)
H11D H 0.2260 -0.3324 0.0028
C22D C 0.2199(4) -0.5724(6) 0.1812(3)
H13D H 0.1898 -0.5652 0.2002
C29D C 0.2547(4) -0.6240(7) 0.1889(3)
H18D H 0.2455 -0.6557 0.2101
C31D C 0.3064(4) -0.6290(6) 0.1636(4)
H20D H 0.3315 -0.6623 0.1703
C32D C 0.1723(4) -0.3527(7) 0.0537(4)
H21D H 0.1471 -0.3193 0.0475
C45D C 0.4816(3) -0.4552(5) 0.0299(3)
C46D C 0.4286(4) -0.5976(6) -0.0267(3)
H33D H 0.3926 -0.6000 -0.0153
C47D C 0.4638(3) -0.5456(5) -0.0125(3)
C48D C 0.4995(4) -0.3571(6) 0.0739(3)
H34D H 0.4876 -0.3254 0.0943
C50D C 0.4457(4) -0.6439(6) -0.0567(3)
H36D H 0.4211 -0.6765 -0.0659
N1D N 0.1920(3) -0.4824(4) 0.1349(2)
N3D N 0.2895(3) -0.4953(4) 0.0835(2)
N8D N 0.4454(2) -0.5018(4) 0.0169(2)
Ag3 Ag 0.12322(4) -0.47801(5) -0.01369(3)
C2 C 0.0502(5) -0.3675(7) -0.0475(4)
H2 H 0.0295 -0.3793 -0.0224
C3 C 0.1280(4) -0.3761(7) -0.0896(4)
H3 H 0.1625 -0.3955 -0.0948
C4 C 0.0288(5) -0.3197(7) -0.0747(5)
H4 H -0.0054 -0.3005 -0.0683
C5 C 0.1115(7) -0.3277(7) -0.1182(4)
H5 H 0.1344 -0.3132 -0.1413
C7 C 0.0713(4) -0.5359(6) 0.0791(4)
H7 H 0.0594 -0.5010 0.0614
C9 C 0.1187(4) -0.5723(5) 0.0669(3)
C17 C 0.2128(4) -0.6445(6) 0.0508(3)
C19 C 0.1365(4) -0.6255(6) 0.0946(3)
C21 C 0.2629(4) -0.6784(5) 0.0415(3)
H12 H 0.2742 -0.7125 0.0602
C23 C 0.0611(4) -0.6031(7) 0.1452(3)
H14 H 0.0418 -0.6116 0.1717
C24 C 0.1052(4) -0.6399(6) 0.1354(3)
H15 H 0.1159 -0.6742 0.1542
C27 C 0.2298(4) -0.5744(6) -0.0156(3)
H17 H 0.2193 -0.5412 -0.0353
C28 C 0.1966(3) -0.5895(6) 0.0222(3)
C33 C 0.2943(4) -0.6614(7) 0.0057(3)
H22 H 0.3271 -0.6840 -0.0003
C34 C 0.2774(4) -0.6093(8) -0.0226(4)
H23 H 0.2997 -0.5985 -0.0470
C36 C 0.0425(4) -0.5524(6) 0.1177(3)
H25 H 0.0104 -0.5295 0.1253
N5 N 0.1830(3) -0.6605(4) 0.0864(3)
N7 N 0.0978(3) -0.3982(5) -0.0541(2)
N10 N 0.1493(3) -0.5552(5) 0.0297(3)
N11 N 0.0584(7) -0.3007(7) -0.1112(4)
loop_
_geom_bond_atom_site_label_1
_geom_bond_atom_site_label_2
_geom_bond_site_symmetry_1
_geom_bond_site_symmetry_2
W1 O7 1_555 1_555
W2 O5 1_555 1_555
W3 O4 1_555 1_555
W4 O7 1_555 1_555
W5 O1 1_555 1_555
W6 O16 1_555 1_555
W7 O15 1_555 1_555
W8 O12 1_555 1_555
W9 O11 1_555 1_555
W10 O6 1_555 1_555
W11 O9 1_555 1_555
W12 O1 1_555 1_555
Ag1 O3 1_555 1_555
Ag2 N3 1_555 1_555
Ag3 N7 1_555 1_555
Ag4 O9 1_555 1_555
Si1 O7 1_555 1_555
O2 W12 1_555 1_555
O3 W5 1_555 1_555
O7 W3 1_555 1_555
O8 W5 1_555 1_555
O10 W4 1_555 1_555
O11 W3 1_555 1_555
O13 W1 1_555 1_555
O14 W3 1_555 1_555
O16 W8 1_555 1_555
O17 W4 1_555 1_555
O18 W2 1_555 1_555
O19 W7 1_555 1_555
O20 W9 1_555 1_555
O21 W2 1_555 1_555
O22 W2 1_555 1_555
O23 W6 1_555 1_555
O24 W8 1_555 1_555
O25 W6 1_555 1_555
O26 W10 1_555 1_555
O27 W3 1_555 1_555
O28 W5 1_555 1_555
O29 W2 1_555 1_555
O30 W1 1_555 1_555
O31 W1 1_555 1_555
O32 W2 1_555 1_555
O33 W5 1_555 1_555
O34 W1 1_555 1_555
O35 W7 1_555 1_555
O36 W6 1_555 1_555
O37 W9 1_555 1_555
O38 W1 1_555 1_555
O39 W4 1_555 1_555
O40 W6 1_555 1_555
C1 H1 1_555 1_555
C2 H2 1_555 1_555
C3 H3 1_555 1_555
C4 C2 1_555 1_555
H4 C4 1_555 1_555
C5 C3 1_555 1_555
H5 C5 1_555 1_555
C6 H6 1_555 1_555
C7 H7 1_555 1_555
C8 C10 1_555 1_555
C9 C7 1_555 1_555
C10 H8 1_555 1_555
C11 C13 1_555 1_555
C12 C8 1_555 1_555
C13 C43 1_555 1_555
C14 C15 1_555 1_555
C15 C22 1_555 1_555
C16 C14 1_555 1_555
H9 C16 1_555 1_555
C17 C21 1_555 1_555
C18 C12 1_555 1_555
H10 C18 1_555 1_555
C19 C9 1_555 1_555
C20 C18 1_555 1_555
H11 C20 1_555 1_555
C21 H12 1_555 1_555
C22 H13 1_555 1_555
C23 H14 1_555 1_555
C24 C19 1_555 1_555
H15 C24 1_555 1_555
C25 C30 1_555 1_555
C26 C1 1_555 1_555
H16 C26 1_555 1_555
C27 H17 1_555 1_555
C28 C17 1_555 1_555
C29 C22 1_555 1_555
H18 C29 1_555 1_555
C30 H19 1_555 1_555
C31 C16 1_555 1_555
H20 C31 1_555 1_555
C32 C10 1_555 1_555
H21 C32 1_555 1_555
C33 C21 1_555 1_555
H22 C33 1_555 1_555
C34 C27 1_555 1_555
H23 C34 1_555 1_555
C35 H24 1_555 1_555
C36 C7 1_555 1_555
H25 C36 1_555 1_555
C37 C35 1_555 1_555
H26 C37 1_555 1_555
C38 C30 1_555 1_555
H27 C38 1_555 1_555
C39 H28 1_555 1_555
C40 C25 1_555 1_555
C41 H29 1_555 1_555
C42 C11 1_555 1_555
H30 C42 1_555 1_555
C43 H31 1_555 1_555
C44 C41 1_555 1_555
H32 C44 1_555 1_555
C45 C6 1_555 1_555
C46 H33 1_555 1_555
C47 C46 1_555 1_555
C48 C6 1_555 1_555
H34 C48 1_555 1_555
C49 C39 1_555 1_555
H35 C49 1_555 1_555
C50 C46 1_555 1_555
H36 C50 1_555 1_555
N1 C8 1_555 1_555
N2 Ag1 1_555 1_555
N3 C12 1_555 1_555
N4 C13 1_555 1_555
N5 C17 1_555 1_555
N6 Ag1 1_555 1_555
N7 C2 1_555 1_555
N8 Ag2 1_555 1_555
N9 Ag4 1_555 1_555
N10 Ag3 1_555 1_555
N11 C4 1_555 1_555
O41 Ag1 1_555 1_555
Ag2D N3D 1_555 1_555
Ag4E N4 1_555 1_555
C6D H6D 1_555 1_555
C8D C10D 1_555 1_555
C10D H8D 1_555 1_555
C12D C8D 1_555 1_555
C14D C15D 1_555 1_555
C15D C22D 1_555 1_555
C16D C14D 1_555 1_555
H9D C16D 1_555 1_555
C18D C12D 1_555 1_555
H10D C18D 1_555 1_555
C20D C18D 1_555 1_555
H11D C20D 1_555 1_555
C22D H13D 1_555 1_555
C29D C22D 1_555 1_555
H18D C29D 1_555 1_555
C31D C16D 1_555 1_555
H20D C31D 1_555 1_555
C32D C10D 1_555 1_555
H21D C32D 1_555 1_555
C45D C47 1_555 1_555
C46D H33D 1_555 1_555
C47D C45 1_555 1_555
C48D C50 1_555 1_555
H34D C48D 1_555 1_555
C50D C48 1_555 1_555
H36D C50D 1_555 1_555
N1D C8D 1_555 1_555
N3D C12D 1_555 1_555
N4E Ag4 1_555 1_555
N8D Ag2D 1_555 1_555
W3 O38 1_555 1_555
W4 O27 1_555 1_555
W4 O34 1_555 1_555
W5 O21 1_555 1_555
W6 O17 1_555 1_555
W7 O18 1_555 1_555
W7 O31 1_555 1_555
W7 O32 1_555 1_555
W8 O19 1_555 1_555
W8 O30 1_555 1_555
W8 O40 1_555 1_555
W9 O18 1_555 1_555
W9 O29 1_555 1_555
W9 O35 1_555 1_555
W10 O8 1_555 1_555
W10 O23 1_555 1_555
W10 O33 1_555 1_555
W10 O39 1_555 1_555
W11 O16 1_555 1_555
W11 O22 1_555 1_555
W11 O24 1_555 1_555
W11 O25 1_555 1_555
W11 O28 1_555 1_555
W12 O8 1_555 1_555
W12 O14 1_555 1_555
W12 O26 1_555 1_555
W12 O37 1_555 1_555
Si1 O8 1_555 1_555
Si1 O16 1_555 1_555
Si1 O18 1_555 1_555
C1 N9 1_555 1_555
C3 N7 1_555 1_555
C5 N11 1_555 1_555
C9 N10 1_555 1_555
C11 N2 1_555 1_555
C14 N3 1_555 1_555
C15 N1 1_555 1_555
C19 N5 1_555 1_555
C20 C32 1_555 1_555
C23 C24 1_555 1_555
C23 C36 1_555 1_555
C25 N4 1_555 1_555
C26 N6 1_555 1_555
C27 C28 1_555 1_555
C28 N10 1_555 1_555
C29 C31 1_555 1_555
C33 C34 1_555 1_555
C35 C40 1_555 1_555
C37 C38 1_555 1_555
C39 N6 1_555 1_555
C40 N2 1_555 1_555
C41 C42 1_555 1_555
C43 C44 1_555 1_555
C45 N8 1_555 1_555
C47 N8 1_555 1_555
C49 N9 1_555 1_555
C6D C45D 1_555 1_555
C6D C48D 1_555 1_555
C14D N3D 1_555 1_555
C15D N1D 1_555 1_555
C20D C32D 1_555 1_555
C29D C31D 1_555 1_555
C45D N8D 1_555 1_555
C46D C47D 1_555 1_555
C46D C50D 1_555 1_555
C47D N8D 1_555 1_555

#END
