
#######################################################################
#
#                 Cambridge Crystallographic Data Centre
#                                CCDC 
#
#######################################################################
#
# If this CIF has been generated from an entry in the Cambridge 
# Structural Database, then it will include bibliographic, chemical, 
# crystal, experimental, refinement or atomic coordinate data resulting 
# from the CCDC's data processing and validation procedures.
#
#######################################################################

data_TAGNUM
_symmetry_cell_setting           triclinic
_symmetry_space_group_name_H-M   'P -1'
_symmetry_Int_Tables_number      2
_space_group_name_Hall           '-P 1'
loop_
_symmetry_equiv_pos_site_id
_symmetry_equiv_pos_as_xyz
1 x,y,z
2 -x,-y,-z
_cell_length_a                   9.5713(6)
_cell_length_b                   11.1182(7)
_cell_length_c                   14.4993(10)
_cell_angle_alpha                76.926(5)
_cell_angle_beta                 85.764(5)
_cell_angle_gamma                82.410(5)
_cell_volume                     1488.24
loop_
_atom_site_label
_atom_site_type_symbol
_atom_site_fract_x
_atom_site_fract_y
_atom_site_fract_z
Co1 Co 0.49165(6) 0.22286(5) 0.35916(4)
C1 C 0.4426(5) 0.1660(4) 0.1738(3)
H1 H 0.3884 0.1035 0.2036
C2 C 0.5766(5) 0.3149(4) 0.1492(3)
C3 C 0.5519(5) 0.2930(4) 0.0617(3)
C4 C 0.6107(5) 0.3597(4) -0.0223(3)
H2 H 0.5945 0.3431 -0.0804
C5 C 0.6926(5) 0.4501(4) -0.0175(3)
C6 C 0.7169(5) 0.4737(4) 0.0722(3)
C7 C 0.6592(5) 0.4058(4) 0.1546(3)
H3 H 0.6758 0.4211 0.2131
C8 C 0.8068(6) 0.5724(5) 0.0766(4)
H4 H 0.8983 0.5541 0.0476
H5 H 0.8165 0.5747 0.1416
H6 H 0.7634 0.6516 0.0434
C9 C 0.7567(6) 0.5239(5) -0.1072(4)
H7 H 0.8574 0.5040 -0.1080
H8 H 0.7328 0.6111 -0.1095
H9 H 0.7208 0.5034 -0.1611
C10 C 0.5499(5) 0.4740(4) 0.3854(3)
H10 H 0.6463 0.4480 0.3880
C11 C 0.3242(5) 0.4757(4) 0.3760(3)
C12 C 0.3476(5) 0.5977(4) 0.3802(3)
C13 C 0.2369(5) 0.6914(4) 0.3785(3)
H11 H 0.2535 0.7707 0.3821
C14 C 0.1021(5) 0.6661(4) 0.3713(3)
C15 C 0.0757(5) 0.5439(4) 0.3678(3)
C16 C 0.1868(5) 0.4498(4) 0.3699(3)
H12 H 0.1700 0.3701 0.3672
C17 C -0.0734(5) 0.5157(5) 0.3637(4)
H13 H -0.0719 0.4309 0.3586
H14 H -0.1167 0.5702 0.3096
H15 H -0.1263 0.5280 0.4204
C18 C -0.0198(6) 0.7672(5) 0.3687(4)
H16 H -0.0720 0.7744 0.3133
H17 H 0.0154 0.8447 0.3669
H18 H -0.0805 0.7470 0.4244
C28 C 0.7494(5) 0.1480(4) 0.4156(3)
C29 C 0.8774(4) 0.0711(4) 0.4612(3)
C30 C 0.8667(4) -0.0279(4) 0.5397(3)
C31 C 1.0111(5) 0.0974(4) 0.4231(3)
H28 H 1.0184 0.1634 0.3713
C32 C 0.7274(4) -0.0585(4) 0.5896(3)
N1 N 0.5046(4) 0.2339(3) 0.2191(2)
N2 N 0.4674(4) 0.1984(4) 0.0791(3)
H29 H 0.4363 0.1659 0.0373
N3 N 0.4537(4) 0.4005(3) 0.3797(2)
N4 N 0.4914(4) 0.5904(3) 0.3870(3)
H30 H 0.5366 0.6506 0.3916
O1 O 0.6320(3) 0.1008(3) 0.4337(2)
O2 O 0.7588(3) 0.2494(3) 0.3612(2)
O3 O 0.6890(3) -0.1613(2) 0.5809(2)
O4 O 0.6636(3) 0.0098(3) 0.6394(2)
Co1A Co 0.50835(6) -0.22286(5) 0.64084(4)
Co1_2 Co 1.49165(6) 0.22286(5) 0.35916(4)
Co1A_2 Co 1.50835(6) -0.22286(5) 0.64084(4)
C1A C 0.5574(5) -0.1660(4) 0.8262(3)
H1A H 0.6116 -0.1035 0.7964
C2A C 0.4234(5) -0.3149(4) 0.8508(3)
C3A C 0.4481(5) -0.2930(4) 0.9383(3)
C4A C 0.3893(5) -0.3597(4) 1.0223(3)
H2A H 0.4055 -0.3431 1.0804
C5A C 0.3074(5) -0.4501(4) 1.0175(3)
C6A C 0.2831(5) -0.4737(4) 0.9278(3)
C7A C 0.3408(5) -0.4058(4) 0.8454(3)
H3A H 0.3242 -0.4211 0.7869
C8A C 0.1932(6) -0.5724(5) 0.9234(4)
H4A H 0.1017 -0.5541 0.9524
H5A H 0.1835 -0.5747 0.8584
H6A H 0.2366 -0.6516 0.9566
C9A C 0.2433(6) -0.5239(5) 1.1072(4)
H7A H 0.1426 -0.5040 1.1080
H8A H 0.2672 -0.6111 1.1095
H9A H 0.2792 -0.5034 1.1611
C10A C 0.4501(5) -0.4740(4) 0.6146(3)
H10A H 0.3537 -0.4480 0.6120
C11A C 0.6758(5) -0.4757(4) 0.6240(3)
C12A C 0.6524(5) -0.5977(4) 0.6198(3)
C13A C 0.7631(5) -0.6914(4) 0.6215(3)
H11A H 0.7465 -0.7707 0.6179
C14A C 0.8979(5) -0.6661(4) 0.6287(3)
C15A C 0.9243(5) -0.5439(4) 0.6322(3)
C16A C 0.8132(5) -0.4498(4) 0.6301(3)
H12A H 0.8300 -0.3701 0.6328
C17A C 1.0734(5) -0.5157(5) 0.6363(4)
H13A H 1.0719 -0.4309 0.6414
H14A H 1.1167 -0.5702 0.6904
H15A H 1.1263 -0.5280 0.5796
C18A C 1.0198(6) -0.7672(5) 0.6313(4)
H16A H 1.0720 -0.7744 0.6867
H17A H 0.9846 -0.8447 0.6331
H18A H 1.0805 -0.7470 0.5756
C28A C 1.2506(5) -0.1480(4) 0.5844(3)
C29A C 1.1226(4) -0.0711(4) 0.5388(3)
C30A C 1.1333(4) 0.0279(4) 0.4603(3)
C31A C 0.9889(5) -0.0974(4) 0.5769(3)
H28A H 0.9816 -0.1634 0.6287
C32A C 1.2726(4) 0.0585(4) 0.4104(3)
N1A N 0.4954(4) -0.2339(3) 0.7809(2)
N2A N 0.5326(4) -0.1984(4) 0.9209(3)
H29A H 0.5637 -0.1659 0.9627
N3A N 0.5463(4) -0.4005(3) 0.6203(2)
N4A N 0.5086(4) -0.5904(3) 0.6130(3)
H30A H 0.4634 -0.6506 0.6084
O1A O 1.3680(3) -0.1008(3) 0.5663(2)
O1A_2 O 0.3680(3) -0.1008(3) 0.5663(2)
O2A O 1.2412(3) -0.2494(3) 0.6388(2)
O3A O 1.3110(3) 0.1613(2) 0.4191(2)
O3A_2 O 0.3110(3) 0.1613(2) 0.4191(2)
O4A O 1.3364(3) -0.0098(3) 0.3606(2)
C19 C 0.4168(6) 1.1487(5) 0.8389(4)
H19 H 0.4810 1.2053 0.8152
C20 C 0.2598(5) 1.0205(5) 0.8430(3)
C21 C 0.2908(6) 1.0256(5) 0.9340(3)
C22 C 0.2232(6) 0.9550(4) 1.0117(4)
H20 H 0.2414 0.9595 1.0729
C23 C 0.1295(6) 0.8786(5) 0.9973(4)
C24 C 0.0985(6) 0.8739(5) 0.9038(4)
C25 C 0.1658(6) 0.9440(5) 0.8265(4)
H21 H 0.1485 0.9399 0.7651
C26 C -0.0062(7) 0.7915(6) 0.8874(5)
H22 H -0.0230 0.8078 0.8210
H23 H -0.0933 0.8083 0.9221
H24 H 0.0310 0.7059 0.9087
C27 C 0.0584(7) 0.7997(6) 1.0820(4)
H25 H -0.0413 0.8258 1.0828
H26 H 0.0960 0.8092 1.1392
H27 H 0.0752 0.7140 1.0779
N5 N 0.3428(5) 1.1005(4) 0.7824(3)
H31 H 0.3467 1.1163 0.7215
N6 N 0.3897(5) 1.1083(4) 0.9292(3)
O5 O 0.4187(4) 0.1794(3) 0.5923(2)
H32 H 0.495(3) 0.131(4) 0.602(3)
H33 H 0.366(4) 0.168(4) 0.551(3)
loop_
_geom_bond_atom_site_label_1
_geom_bond_atom_site_label_2
_geom_bond_site_symmetry_1
_geom_bond_site_symmetry_2
Co1 N1 1_555 1_555
C1 H1 1_555 1_555
C2 C3 1_555 1_555
C3 C4 1_555 1_555
C4 H2 1_555 1_555
C5 C4 1_555 1_555
C6 C5 1_555 1_555
C7 C2 1_555 1_555
H3 C7 1_555 1_555
C8 C6 1_555 1_555
H4 C8 1_555 1_555
H5 C8 1_555 1_555
H6 C8 1_555 1_555
C9 C5 1_555 1_555
H7 C9 1_555 1_555
H8 C9 1_555 1_555
H9 C9 1_555 1_555
C10 H10 1_555 1_555
C11 C12 1_555 1_555
C12 C13 1_555 1_555
C13 H11 1_555 1_555
C14 C13 1_555 1_555
C15 C14 1_555 1_555
C16 C11 1_555 1_555
H12 C16 1_555 1_555
C17 C15 1_555 1_555
H13 C17 1_555 1_555
H14 C17 1_555 1_555
H15 C17 1_555 1_555
C18 C14 1_555 1_555
H16 C18 1_555 1_555
H17 C18 1_555 1_555
H18 C18 1_555 1_555
C19 H19 1_555 1_555
C20 C21 1_555 1_555
C21 C22 1_555 1_555
C22 H20 1_555 1_555
C23 C22 1_555 1_555
C24 C23 1_555 1_555
C25 C20 1_555 1_555
H21 C25 1_555 1_555
C26 C24 1_555 1_555
H22 C26 1_555 1_555
H23 C26 1_555 1_555
H24 C26 1_555 1_555
C27 C23 1_555 1_555
H25 C27 1_555 1_555
H26 C27 1_555 1_555
H27 C27 1_555 1_555
C28 C29 1_555 1_555
C29 C30 1_555 1_555
C30 C32 1_555 1_555
C31 C29 1_555 1_555
H28 C31 1_555 1_555
C32 O3 1_555 1_555
N1 C1 1_555 1_555
N2 C1 1_555 1_555
H29 N2 1_555 1_555
N3 Co1 1_555 1_555
N4 C10 1_555 1_555
H30 N4 1_555 1_555
N5 C19 1_555 1_555
H31 N5 1_555 1_555
N6 C19 1_555 1_555
O1 Co1 1_555 1_555
O2 C28 1_555 1_555
O3 Co1A 1_555 1_555
O4 C32 1_555 1_555
O5 H32 1_555 1_555
H33 O5 1_555 1_555
Co1A N1A 1_555 1_555
Co1_2 O3A 1_555 1_555
Co1A_2 O1A 1_555 1_555
C1A H1A 1_555 1_555
C2A C3A 1_555 1_555
C3A C4A 1_555 1_555
C4A H2A 1_555 1_555
C5A C4A 1_555 1_555
C6A C5A 1_555 1_555
C7A C2A 1_555 1_555
H3A C7A 1_555 1_555
C8A C6A 1_555 1_555
H4A C8A 1_555 1_555
H5A C8A 1_555 1_555
H6A C8A 1_555 1_555
C9A C5A 1_555 1_555
H7A C9A 1_555 1_555
H8A C9A 1_555 1_555
H9A C9A 1_555 1_555
C10A H10A 1_555 1_555
C11A C12A 1_555 1_555
C12A C13A 1_555 1_555
C13A H11A 1_555 1_555
C14A C13A 1_555 1_555
C15A C14A 1_555 1_555
C16A C11A 1_555 1_555
H12A C16A 1_555 1_555
C17A C15A 1_555 1_555
H13A C17A 1_555 1_555
H14A C17A 1_555 1_555
H15A C17A 1_555 1_555
C18A C14A 1_555 1_555
H16A C18A 1_555 1_555
H17A C18A 1_555 1_555
H18A C18A 1_555 1_555
C28A C29A 1_555 1_555
C29A C30A 1_555 1_555
C30A C31 1_555 1_555
C31A C30 1_555 1_555
H28A C31A 1_555 1_555
C32A C30A 1_555 1_555
N1A C1A 1_555 1_555
N2A C1A 1_555 1_555
H29A N2A 1_555 1_555
N3A Co1A 1_555 1_555
N4A C10A 1_555 1_555
H30A N4A 1_555 1_555
O1A C28A 1_555 1_555
O1A_2 Co1A 1_555 1_555
O2A C28A 1_555 1_555
O3A C32A 1_555 1_555
O3A_2 Co1 1_555 1_555
O4A C32A 1_555 1_555
C2 N1 1_555 1_555
C3 N2 1_555 1_555
C6 C7 1_555 1_555
C10 N3 1_555 1_555
C11 N3 1_555 1_555
C12 N4 1_555 1_555
C15 C16 1_555 1_555
C20 N5 1_555 1_555
C21 N6 1_555 1_555
C24 C25 1_555 1_555
C28 O1 1_555 1_555
C2A N1A 1_555 1_555
C3A N2A 1_555 1_555
C6A C7A 1_555 1_555
C10A N3A 1_555 1_555
C11A N3A 1_555 1_555
C12A N4A 1_555 1_555
C15A C16A 1_555 1_555
C29A C31A 1_555 1_555

#END
