
#######################################################################
#
#                 Cambridge Crystallographic Data Centre
#                                CCDC 
#
#######################################################################
#
# If this CIF has been generated from an entry in the Cambridge 
# Structural Database, then it will include bibliographic, chemical, 
# crystal, experimental, refinement or atomic coordinate data resulting 
# from the CCDC's data processing and validation procedures.
#
#######################################################################

data_TAGPAU
_symmetry_cell_setting           monoclinic
_symmetry_space_group_name_H-M   'C 2/c'
_symmetry_Int_Tables_number      15
_space_group_name_Hall           '-C 2yn'
loop_
_symmetry_equiv_pos_site_id
_symmetry_equiv_pos_as_xyz
1 x,y,z
2 -x,y,1/2-z
3 1/2+x,1/2+y,z
4 1/2-x,1/2+y,1/2-z
5 -x,-y,-z
6 x,-y,1/2+z
7 1/2-x,1/2-y,-z
8 1/2+x,1/2-y,1/2+z
_cell_length_a                   33.406(7)
_cell_length_b                   7.3968(15)
_cell_length_c                   14.920(3)
_cell_angle_alpha                90
_cell_angle_beta                 108.53(3)
_cell_angle_gamma                90
_cell_volume                     3495.57
loop_
_atom_site_label
_atom_site_type_symbol
_atom_site_fract_x
_atom_site_fract_y
_atom_site_fract_z
Co1 Co 0.208272(11) 0.63273(5) 0.13020(2)
C1 C 0.28649(8) 0.3654(4) 0.19449(19)
C2 C 0.29963(9) 0.3769(4) 0.1057(2)
H1 H 0.2876 0.2751 0.0650
H2 H 0.2881 0.4866 0.0717
C3 C 0.34716(9) 0.3765(4) 0.12665(19)
C4 C 0.36776(9) 0.2137(4) 0.1252(2)
H3 H 0.3523 0.1069 0.1137
C5 C 0.41114(10) 0.2071(4) 0.1406(2)
H4 H 0.4244 0.0971 0.1391
C6 C 0.43432(10) 0.3662(4) 0.1580(2)
H5 H 0.4632 0.3638 0.1677
C7 C 0.41422(9) 0.5278(4) 0.1609(2)
H6 H 0.4300 0.6337 0.1741
C8 C 0.37063(9) 0.5365(4) 0.14453(18)
C9 C 0.34964(9) 0.7184(4) 0.14143(19)
H7 H 0.3706 0.8066 0.1744
H8 H 0.3288 0.7102 0.1739
C10 C 0.32822(8) 0.7821(4) 0.03996(19)
C11 C 0.18169(9) 0.2367(4) 0.10985(19)
H9 H 0.2086 0.2077 0.1086
C12 C 0.12801(9) 0.3873(4) 0.11974(19)
C13 C 0.11540(10) 0.2066(4) 0.10317(19)
C14 C 0.07490(10) 0.1493(4) 0.0967(2)
H10 H 0.0671 0.0285 0.0856
C15 C 0.04676(10) 0.2761(5) 0.1072(2)
C16 C 0.05854(9) 0.4611(5) 0.1231(2)
C17 C 0.09921(9) 0.5166(4) 0.12992(19)
H11 H 0.1071 0.6372 0.1410
C18 C 0.02685(10) 0.5981(5) 0.1343(2)
H12 H 0.0394 0.7163 0.1427
H13 H 0.0187 0.5677 0.1886
H14 H 0.0024 0.5973 0.0789
C19 C 0.00302(11) 0.2169(6) 0.1047(2)
H15 H -0.0008 0.0913 0.0879
H16 H -0.0178 0.2874 0.0587
H17 H -0.0001 0.2345 0.1659
N1 N 0.17035(7) 0.4029(3) 0.12388(16)
N2 N 0.15070(8) 0.1130(3) 0.09743(17)
O1 O 0.25994(6) 0.4776(3) 0.20592(14)
O2 O 0.30223(6) 0.2372(3) 0.25089(14)
O3 O 0.29611(6) 0.8837(3) 0.02163(13)
O4 O 0.34298(6) 0.7350(3) -0.02480(13)
O5 O 0.24367(6) 0.8665(3) 0.12593(14)
H18 H 0.2500(9) 0.902(5) 0.1827(10)
H19 H 0.2626(8) 0.877(4) 0.0991(19)
Co1C Co 0.291728(11) 0.13273(5) 0.36980(2)
Co1F Co 0.291728(11) 0.86727(5) -0.13020(2)
O2C O 0.19777(6) 0.7372(3) 0.24911(14)
O3F O 0.20389(6) 0.6163(3) -0.02163(13)
O4F O 0.15702(6) 0.7650(3) 0.02480(13)
loop_
_geom_bond_atom_site_label_1
_geom_bond_atom_site_label_2
_geom_bond_site_symmetry_1
_geom_bond_site_symmetry_2
Co1 N1 1_555 1_555
C1 C2 1_555 1_555
C2 H1 1_555 1_555
H2 C2 1_555 1_555
C3 C2 1_555 1_555
C4 C3 1_555 1_555
H3 C4 1_555 1_555
C5 C4 1_555 1_555
H4 C5 1_555 1_555
C6 C5 1_555 1_555
H5 C6 1_555 1_555
C7 C6 1_555 1_555
H6 C7 1_555 1_555
C8 C3 1_555 1_555
C9 C8 1_555 1_555
H7 C9 1_555 1_555
H8 C9 1_555 1_555
C10 C9 1_555 1_555
C11 H9 1_555 1_555
C12 C13 1_555 1_555
C13 C14 1_555 1_555
C14 H10 1_555 1_555
C15 C14 1_555 1_555
C16 C15 1_555 1_555
C17 C12 1_555 1_555
H11 C17 1_555 1_555
C18 C16 1_555 1_555
H12 C18 1_555 1_555
H13 C18 1_555 1_555
H14 C18 1_555 1_555
C19 C15 1_555 1_555
H15 C19 1_555 1_555
H16 C19 1_555 1_555
H17 C19 1_555 1_555
N1 C11 1_555 1_555
N2 C11 1_555 1_555
O1 Co1 1_555 1_555
O2 C1 1_555 1_555
O3 C10 1_555 1_555
O4 C10 1_555 1_555
O5 Co1 1_555 1_555
H18 O5 1_555 1_555
H19 O5 1_555 1_555
Co1C O2 1_555 1_555
Co1F O3 1_555 1_555
O2C Co1 1_555 1_555
O3F Co1 1_555 1_555
O4F Co1 1_555 1_555
C1 O1 1_555 1_555
C7 C8 1_555 1_555
C12 N1 1_555 1_555
C13 N2 1_555 1_555
C16 C17 1_555 1_555
O4 Co1F 1_555 1_555

#END
