
#######################################################################
#
#                 Cambridge Crystallographic Data Centre
#                                CCDC 
#
#######################################################################
#
# If this CIF has been generated from an entry in the Cambridge 
# Structural Database, then it will include bibliographic, chemical, 
# crystal, experimental, refinement or atomic coordinate data resulting 
# from the CCDC's data processing and validation procedures.
#
#######################################################################

data_TAGPIC
_symmetry_cell_setting           monoclinic
_symmetry_space_group_name_H-M   'P 21/n'
_symmetry_Int_Tables_number      14
_space_group_name_Hall           '-P 2yn'
loop_
_symmetry_equiv_pos_site_id
_symmetry_equiv_pos_as_xyz
1 x,y,z
2 1/2-x,1/2+y,1/2-z
3 -x,-y,-z
4 1/2+x,1/2-y,1/2+z
_cell_length_a                   12.44773(65)
_cell_length_b                   15.30440(86)
_cell_length_c                   9.84703(54)
_cell_angle_alpha                90
_cell_angle_beta                 90.9717(37)
_cell_angle_gamma                90
_cell_volume                     1875.64
loop_
_atom_site_label
_atom_site_type_symbol
_atom_site_fract_x
_atom_site_fract_y
_atom_site_fract_z
Sn1 Sn 0.179761 0.239277 0.257982
Cl1 Cl 0.2417 0.35586 0.07228
Cl2 Cl 0.23036 0.34783 0.46443
N1 N 0.109790 0.137960 0.073690
N2 N 0.044590 0.095520 -0.11837
N3 N 0.043530 0.098090 -0.363060
N4 N 0.129780 0.153640 -0.529670
C1 C 0.038130 0.155620 -0.021770
C2 C 0.163780 0.063920 0.038710
N5 N 0.123310 0.037020 -0.080690
C3 C -0.021520 0.090190 -0.242070
C4 C 0.068270 0.172580 -0.425270
C5 C 0.144410 0.064610 -0.534840
N6 N 0.091380 0.029750 -0.430650
H1 H -0.010420 0.203580 -0.021740
H2 H 0.219850 0.036530 0.089760
H3 H -0.075850 0.137440 -0.241790
H4 H -0.060040 0.033640 -0.244040
H5 H 0.045690 0.229360 -0.399340
H6 H 0.184620 0.033610 -0.600130
C6 C 0.339791 0.186518 0.267480
C7 C 0.394373 0.169368 0.148417
H7 H 0.360967 0.180958 0.062846
C8 C 0.497835 0.135258 0.154557
H8 H 0.535139 0.123537 0.073183
C9 C 0.546713 0.118299 0.279760
H9 H 0.617424 0.094987 0.283957
C10 C 0.492130 0.135449 0.398823
H10 H 0.525536 0.123859 0.484394
C11 C 0.388669 0.169559 0.392683
H11 H 0.351364 0.181280 0.474057
C12 C 0.019731 0.292036 0.248485
C13 C -0.068392 0.236724 0.257986
H12 H -0.057909 0.175608 0.268677
C14 C -0.171854 0.270833 0.251846
H13 H -0.232082 0.233029 0.258340
C15 C -0.187192 0.360255 0.236205
H14 H -0.257903 0.383567 0.232008
C16 C -0.099068 0.415567 0.226703
H15 H -0.109551 0.476683 0.216013
C17 C 0.004393 0.381458 0.232843
H16 H 0.064621 0.419261 0.226350
Sn1_2 Sn 0.179761 0.239277 -0.742018
N4_2 N 0.129780 0.153640 0.470330
loop_
_geom_bond_atom_site_label_1
_geom_bond_atom_site_label_2
_geom_bond_site_symmetry_1
_geom_bond_site_symmetry_2
Sn1 Cl1 1_555 1_555
Cl2 Sn1 1_555 1_555
N1 Sn1 1_555 1_555
N2 C1 1_555 1_555
N3 C3 1_555 1_555
N4 C4 1_555 1_555
C1 N1 1_555 1_555
C2 N1 1_555 1_555
N5 N2 1_555 1_555
C3 N2 1_555 1_555
C4 N3 1_555 1_555
C5 N4 1_555 1_555
N6 N3 1_555 1_555
H1 C1 1_555 1_555
H2 C2 1_555 1_555
H3 C3 1_555 1_555
H4 C3 1_555 1_555
H5 C4 1_555 1_555
H6 C5 1_555 1_555
C6 Sn1 1_555 1_555
C7 C6 1_555 1_555
H7 C7 1_555 1_555
C8 C7 1_555 1_555
H8 C8 1_555 1_555
C9 C8 1_555 1_555
H9 C9 1_555 1_555
C10 C9 1_555 1_555
H10 C10 1_555 1_555
C11 C6 1_555 1_555
H11 C11 1_555 1_555
C12 Sn1 1_555 1_555
C13 C12 1_555 1_555
H12 C13 1_555 1_555
C14 C13 1_555 1_555
H13 C14 1_555 1_555
C15 C14 1_555 1_555
H14 C15 1_555 1_555
C16 C15 1_555 1_555
H15 C16 1_555 1_555
C17 C12 1_555 1_555
H16 C17 1_555 1_555
Sn1_2 N4 1_555 1_555
N4_2 Sn1 1_555 1_555
C2 N5 1_555 1_555
C5 N6 1_555 1_555
C10 C11 1_555 1_555
C16 C17 1_555 1_555

#END
