
#######################################################################
#
#                 Cambridge Crystallographic Data Centre
#                                CCDC 
#
#######################################################################
#
# If this CIF has been generated from an entry in the Cambridge 
# Structural Database, then it will include bibliographic, chemical, 
# crystal, experimental, refinement or atomic coordinate data resulting 
# from the CCDC's data processing and validation procedures.
#
#######################################################################

data_TAGPIA
_symmetry_cell_setting           monoclinic
_symmetry_space_group_name_H-M   'P 21/c'
_symmetry_Int_Tables_number      14
_space_group_name_Hall           '-P 2ybc'
loop_
_symmetry_equiv_pos_site_id
_symmetry_equiv_pos_as_xyz
1 x,y,z
2 -x,1/2+y,1/2-z
3 -x,-y,-z
4 x,1/2-y,1/2+z
_cell_length_a                   9.201(3)
_cell_length_b                   17.128(5)
_cell_length_c                   22.12(2)
_cell_angle_alpha                90
_cell_angle_beta                 95.94(4)
_cell_angle_gamma                90
_cell_volume                     3467.28
loop_
_atom_site_label
_atom_site_type_symbol
_atom_site_fract_x
_atom_site_fract_y
_atom_site_fract_z
Sn1 Sn 0.2944(1) 0.7521(1) 0.9427(1)
O1 O 0.2735(15) 0.8122(8) 0.8487(5)
O2 O 0.3967(16) 0.7178(9) 0.8033(6)
O3 O 0.2856(17) 0.6933(9) 1.0338(6)
O4 O 0.3795(17) 0.7920(8) 1.0909(6)
N1 N 0.3127(15) 0.7832(7) 0.6928(6)
C1 C 0.3189(25) 0.7758(13) 0.8013(8)
C2 C 0.2689(18) 0.8187(10) 0.7419(7)
C3 C 0.2652(22) 0.8158(13) 0.6395(8)
C4 C 0.3150(20) 0.7308(9) 1.0840(8)
C5 C 0.1826(21) 0.8824(11) 0.6299(8)
C6 C 0.1361(21) 0.9159(12) 0.6830(10)
C7 C 0.1829(25) 0.8838(12) 0.7409(8)
C8 C 0.5217(22) 0.7698(13) 0.9503(10)
C9 C 0.6187(34) 0.7080(20) 0.9808(17)
C10 C 0.7812(37) 0.7243(25) 0.9775(18)
C11 C 0.8810(54) 0.6775(32) 1.0211(23)
C12 C 0.1440(27) 0.8399(15) 0.9659(12)
C13 C 0.2298(44) 0.9175(20) 0.9712(21)
C14 C 0.1539(61) 0.9842(28) 0.9370(27)
C15 C 0.2611(53) 1.0416(29) 0.9678(23)
C16 C 0.2028(24) 0.6425(13) 0.9075(11)
C17 C 0.3203(31) 0.5784(17) 0.9137(15)
C18 C 0.2672(42) 0.5020(22) 0.8859(24)
C19 C 0.4025(37) 0.4516(22) 0.8839(17)
H1 H 0.10585(21) 0.9047(11) 0.5898(8)
H2 H 0.0715(21) 0.9608(12) 0.6797(10)
H3 H 0.1546(25) 0.9070(12) 0.7779(8)
H4 H 0.5416(22) 0.8180(13) 0.9726(10)
H5 H 0.5494(22) 0.7755(13) 0.9094(10)
H6 H 0.6014(34) 0.7058(20) 1.0233(17)
H7 H 0.5942(34) 0.6581(20) 0.9617(17)
H8 H 0.7991(37) 0.7793(25) 0.9856(18)
H9 H 0.8035(37) 0.7121(25) 0.9367(18)
H10 H 0.9815(54) 0.6908(32) 1.0160(23)
H11 H 0.8654(54) 0.6222(32) 1.0134(23)
H12 H 0.8611(54) 0.6895(32) 1.0623(23)
H13 H 0.1063(27) 0.8270(15) 1.0040(12)
H14 H 0.0635(27) 0.8443(15) 0.9341(12)
H15 H 0.3246(44) 0.9087(20) 0.9569(21)
H16 H 0.2425(44) 0.9316(20) 1.0139(21)
H17 H 0.1591(61) 0.9808(28) 0.8935(27)
H18 H 0.0534(61) 0.9931(28) 0.9448(27)
H19 H 0.2382(53) 1.0938(29) 0.9526(23)
H20 H 0.3596(53) 1.0279(29) 0.9599(23)
H21 H 0.2540(53) 1.0401(29) 1.0113(23)
H22 H 0.1683(24) 0.6488(13) 0.8648(11)
H23 H 0.1218(24) 0.6279(13) 0.9299(11)
H24 H 0.3477(31) 0.5696(17) 0.9567(15)
H25 H 0.4048(31) 0.5962(17) 0.8948(15)
H26 H 0.1977(42) 0.4771(22) 0.9097(24)
H27 H 0.2220(42) 0.5107(22) 0.8449(24)
H28 H 0.3747(37) 0.4016(22) 0.8656(17)
H29 H 0.4473(37) 0.4435(22) 0.9250(17)
H30 H 0.4716(37) 0.4772(22) 0.8602(17)
C4C C 0.3150(20) 0.7692(9) 0.5840(8)
C3C C 0.2652(22) 0.6842(13) 1.1395(8)
O3C O 0.2856(17) 0.8067(9) 0.5338(6)
O4C O 0.3795(17) 0.7080(8) 0.5909(6)
N1C N 0.3127(15) 0.7168(7) 1.1928(6)
C5C C 0.1826(21) 0.6176(11) 1.1299(8)
Sn1C Sn 0.2944(1) 0.7479(1) 0.4427(1)
C2C C 0.2689(18) 0.6813(10) 1.2419(7)
C6C C 0.1361(21) 0.5841(12) 1.1830(10)
H1C H 0.10585(21) 0.5953(11) 1.0898(8)
O1C O 0.2735(15) 0.6878(8) 0.3487(5)
C8C C 0.5217(22) 0.7302(13) 0.4503(10)
C12C C 0.1440(27) 0.6601(15) 0.4659(12)
C16C C 0.2028(24) 0.8575(13) 0.4075(11)
C1C C 0.3189(25) 0.7242(13) 1.3013(8)
C7C C 0.1829(25) 0.6162(12) 1.2409(8)
H2C H 0.0715(21) 0.5392(12) 1.1797(10)
C9C C 0.6187(34) 0.7920(20) 0.4808(17)
H4C H 0.5416(22) 0.6820(13) 0.4726(10)
H5C H 0.5494(22) 0.7245(13) 0.4094(10)
C13C C 0.2298(44) 0.5825(20) 0.4712(21)
H13C H 0.1063(27) 0.6730(15) 0.5040(12)
H14C H 0.0635(27) 0.6557(15) 0.4341(12)
C17C C 0.3203(31) 0.9216(17) 0.4137(15)
H22C H 0.1683(24) 0.8512(13) 0.3648(11)
H23C H 0.1218(24) 0.8721(13) 0.4299(11)
O1C_2 O 0.2735(15) 0.6878(8) 1.3487(5)
O2C O 0.3967(16) 0.7822(9) 1.3033(6)
H3C H 0.1546(25) 0.5930(12) 1.2779(8)
C10C C 0.7812(37) 0.7757(25) 0.4775(18)
H6C H 0.6014(34) 0.7942(20) 0.5233(17)
H7C H 0.5942(34) 0.8419(20) 0.4617(17)
C14C C 0.1539(61) 0.5158(28) 0.4370(27)
H15C H 0.3246(44) 0.5913(20) 0.4569(21)
H16C H 0.2425(44) 0.5684(20) 0.5139(21)
C18C C 0.2672(42) 0.9980(22) 0.3859(24)
H24C H 0.3477(31) 0.9304(17) 0.4567(15)
H25C H 0.4048(31) 0.9038(17) 0.3948(15)
C11C C 0.8810(54) 0.8225(32) 0.5211(23)
H8C H 0.7991(37) 0.7207(25) 0.4856(18)
H9C H 0.8035(37) 0.7879(25) 0.4367(18)
C15C C 0.2611(53) 0.4584(29) 0.4678(23)
H17C H 0.1591(61) 0.5192(28) 0.3935(27)
H18C H 0.0534(61) 0.5069(28) 0.4448(27)
C19C C 0.4025(37) 1.0484(22) 0.3839(17)
H26C H 0.1977(42) 1.0229(22) 0.4097(24)
H27C H 0.2220(42) 0.9893(22) 0.3449(24)
H10C H 0.9815(54) 0.8092(32) 0.5160(23)
H11C H 0.8654(54) 0.8778(32) 0.5134(23)
H12C H 0.8611(54) 0.8105(32) 0.5623(23)
H19C H 0.2382(53) 0.4062(29) 0.4526(23)
H20C H 0.3596(53) 0.4721(29) 0.4599(23)
H21C H 0.2540(53) 0.4599(29) 0.5113(23)
H28C H 0.3747(37) 1.0984(22) 0.3656(17)
H29C H 0.4473(37) 1.0565(22) 0.4250(17)
H30C H 0.4716(37) 1.0228(22) 0.3602(17)
Sn1C_2 Sn 0.2944(1) 0.7479(1) 1.4427(1)
N2 N 0.4799(15) 0.6423(9) 0.7027(6)
C20 C 0.4103(18) 0.5625(14) 0.7096(9)
C21 C 0.2424(22) 0.5704(13) 0.6967(11)
C22 C 0.1617(26) 0.4950(14) 0.7034(12)
C23 C 0.2152(30) 0.4329(15) 0.6613(12)
C24 C 0.3868(33) 0.4226(14) 0.6757(14)
C25 C 0.4685(28) 0.5006(14) 0.6681(12)
C26 C 0.6410(20) 0.6455(13) 0.7124(9)
C27 C 0.6998(24) 0.6218(13) 0.7750(10)
C28 C 0.8707(25) 0.6298(15) 0.7828(13)
C29 C 0.9151(28) 0.7116(18) 0.7698(15)
C30 C 0.8585(29) 0.7345(20) 0.7054(14)
C31 C 0.6848(22) 0.7280(12) 0.6989(11)
H31 H 0.4418(15) 0.6776(9) 0.7314(6)
H32 H 0.4500(15) 0.6598(9) 0.6616(6)
H33 H 0.4362(18) 0.5445(14) 0.7509(9)
H34 H 0.2212(22) 0.5889(13) 0.6553(11)
H35 H 0.2083(22) 0.6083(13) 0.7246(11)
H36 H 0.1778(26) 0.4773(14) 0.7452(12)
H37 H 0.0580(26) 0.5036(14) 0.6925(12)
H38 H 0.1672(30) 0.3837(15) 0.6678(12)
H39 H 0.1930(30) 0.4489(15) 0.6193(12)
H40 H 0.4212(33) 0.3842(14) 0.6482(14)
H41 H 0.4081(33) 0.4047(14) 0.7172(14)
H42 H 0.4497(28) 0.5182(14) 0.6263(12)
H43 H 0.5727(28) 0.4935(14) 0.6782(12)
H44 H 0.6819(20) 0.6087(13) 0.6854(9)
H45 H 0.6587(24) 0.6551(13) 0.8044(10)
H46 H 0.6731(24) 0.5680(13) 0.7817(10)
H47 H 0.9120(25) 0.5946(15) 0.7548(13)
H48 H 0.9073(25) 0.6162(15) 0.8242(13)
H49 H 0.8745(28) 0.7468(18) 0.7980(15)
H50 H 1.0209(28) 0.7155(18) 0.7748(15)
H51 H 0.8873(29) 0.7877(20) 0.6973(14)
H52 H 0.8978(29) 0.6994(20) 0.6768(14)
H53 H 0.6458(22) 0.7418(12) 0.6579(11)
H54 H 0.6462(22) 0.7634(12) 0.7275(11)
loop_
_geom_bond_atom_site_label_1
_geom_bond_atom_site_label_2
_geom_bond_site_symmetry_1
_geom_bond_site_symmetry_2
Sn1 O1 1_555 1_555
O1 C1 1_555 1_555
O2 C1 1_555 1_555
O3 Sn1 1_555 1_555
O4 C4 1_555 1_555
N1 C2 1_555 1_555
C1 C2 1_555 1_555
C2 C7 1_555 1_555
C3 N1 1_555 1_555
C4 O3 1_555 1_555
C5 C3 1_555 1_555
C6 C5 1_555 1_555
C7 C6 1_555 1_555
C8 Sn1 1_555 1_555
C9 C8 1_555 1_555
C10 C9 1_555 1_555
C11 C10 1_555 1_555
C12 Sn1 1_555 1_555
C13 C12 1_555 1_555
C14 C13 1_555 1_555
C15 C14 1_555 1_555
C16 Sn1 1_555 1_555
C17 C16 1_555 1_555
C18 C17 1_555 1_555
C19 C18 1_555 1_555
N2 C20 1_555 1_555
C20 C21 1_555 1_555
C21 C22 1_555 1_555
C22 C23 1_555 1_555
C23 C24 1_555 1_555
C24 C25 1_555 1_555
C25 C20 1_555 1_555
C26 N2 1_555 1_555
C27 C26 1_555 1_555
C28 C27 1_555 1_555
C29 C28 1_555 1_555
C30 C29 1_555 1_555
C31 C26 1_555 1_555
H1 C5 1_555 1_555
H2 C6 1_555 1_555
H3 C7 1_555 1_555
H4 C8 1_555 1_555
H5 C8 1_555 1_555
H6 C9 1_555 1_555
H7 C9 1_555 1_555
H8 C10 1_555 1_555
H9 C10 1_555 1_555
H10 C11 1_555 1_555
H11 C11 1_555 1_555
H12 C11 1_555 1_555
H13 C12 1_555 1_555
H14 C12 1_555 1_555
H15 C13 1_555 1_555
H16 C13 1_555 1_555
H17 C14 1_555 1_555
H18 C14 1_555 1_555
H19 C15 1_555 1_555
H20 C15 1_555 1_555
H21 C15 1_555 1_555
H22 C16 1_555 1_555
H23 C16 1_555 1_555
H24 C17 1_555 1_555
H25 C17 1_555 1_555
H26 C18 1_555 1_555
H27 C18 1_555 1_555
H28 C19 1_555 1_555
H29 C19 1_555 1_555
H30 C19 1_555 1_555
H31 N2 1_555 1_555
H32 N2 1_555 1_555
H33 C20 1_555 1_555
H34 C21 1_555 1_555
H35 C21 1_555 1_555
H36 C22 1_555 1_555
H37 C22 1_555 1_555
H38 C23 1_555 1_555
H39 C23 1_555 1_555
H40 C24 1_555 1_555
H41 C24 1_555 1_555
H42 C25 1_555 1_555
H43 C25 1_555 1_555
H44 C26 1_555 1_555
H45 C27 1_555 1_555
H46 C27 1_555 1_555
H47 C28 1_555 1_555
H48 C28 1_555 1_555
H49 C29 1_555 1_555
H50 C29 1_555 1_555
H51 C30 1_555 1_555
H52 C30 1_555 1_555
H53 C31 1_555 1_555
H54 C31 1_555 1_555
C4C C3 1_555 1_555
C3C C4 1_555 1_555
O3C C4C 1_555 1_555
O4C C4C 1_555 1_555
N1C C3C 1_555 1_555
C5C C3C 1_555 1_555
Sn1C O3C 1_555 1_555
C2C N1C 1_555 1_555
C6C C5C 1_555 1_555
H1C C5C 1_555 1_555
O1C Sn1C 1_555 1_555
C8C Sn1C 1_555 1_555
C12C Sn1C 1_555 1_555
C16C Sn1C 1_555 1_555
C1C C2C 1_555 1_555
C7C C2C 1_555 1_555
H2C C6C 1_555 1_555
C9C C8C 1_555 1_555
H4C C8C 1_555 1_555
H5C C8C 1_555 1_555
C13C C12C 1_555 1_555
H13C C12C 1_555 1_555
H14C C12C 1_555 1_555
C17C C16C 1_555 1_555
H22C C16C 1_555 1_555
H23C C16C 1_555 1_555
O1C_2 C1C 1_555 1_555
O2C C1C 1_555 1_555
H3C C7C 1_555 1_555
C10C C9C 1_555 1_555
H6C C9C 1_555 1_555
H7C C9C 1_555 1_555
C14C C13C 1_555 1_555
H15C C13C 1_555 1_555
H16C C13C 1_555 1_555
C18C C17C 1_555 1_555
H24C C17C 1_555 1_555
H25C C17C 1_555 1_555
C11C C10C 1_555 1_555
H8C C10C 1_555 1_555
H9C C10C 1_555 1_555
C15C C14C 1_555 1_555
H17C C14C 1_555 1_555
H18C C14C 1_555 1_555
C19C C18C 1_555 1_555
H26C C18C 1_555 1_555
H27C C18C 1_555 1_555
H10C C11C 1_555 1_555
H11C C11C 1_555 1_555
H12C C11C 1_555 1_555
H19C C15C 1_555 1_555
H20C C15C 1_555 1_555
H21C C15C 1_555 1_555
H28C C19C 1_555 1_555
H29C C19C 1_555 1_555
H30C C19C 1_555 1_555
Sn1C_2 O1C_2 1_555 1_555
C30 C31 1_555 1_555
C6C C7C 1_555 1_555

#END
