
#######################################################################
#
#                 Cambridge Crystallographic Data Centre
#                                CCDC 
#
#######################################################################
#
# If this CIF has been generated from an entry in the Cambridge 
# Structural Database, then it will include bibliographic, chemical, 
# crystal, experimental, refinement or atomic coordinate data resulting 
# from the CCDC's data processing and validation procedures.
#
#######################################################################

data_TAGQID
_symmetry_cell_setting           monoclinic
_symmetry_space_group_name_H-M   'P 21/n'
_symmetry_Int_Tables_number      14
_space_group_name_Hall           '-P 2yn'
loop_
_symmetry_equiv_pos_site_id
_symmetry_equiv_pos_as_xyz
1 x,y,z
2 1/2-x,1/2+y,1/2-z
3 -x,-y,-z
4 1/2+x,1/2-y,1/2+z
_cell_length_a                   7.9726(9)
_cell_length_b                   15.8243(17)
_cell_length_c                   11.1938(12)
_cell_angle_alpha                90
_cell_angle_beta                 102.8580(10)
_cell_angle_gamma                90
_cell_volume                     1376.81
loop_
_atom_site_label
_atom_site_type_symbol
_atom_site_fract_x
_atom_site_fract_y
_atom_site_fract_z
Cu1 Cu 0.35983(3) 0.037309(15) 0.03630(2)
O1 O 0.24795(18) -0.07245(9) -0.00372(14)
O2 O 0.46153(18) -0.12581(9) -0.08425(14)
O3 O 0.3370(2) -0.36505(11) -0.36764(17)
O4 O 0.1117(2) -0.44659(9) -0.36745(14)
N1 N 0.2708(2) 0.05565(11) 0.18375(17)
N2 N 0.0816(2) 0.06848(12) 0.29888(17)
C1 C 0.3147(3) -0.12879(12) -0.05877(18)
C2 C 0.2084(3) -0.20599(13) -0.10141(19)
C3 C 0.2601(3) -0.26065(13) -0.18376(19)
H1 H 0.3630 -0.2511 -0.2076
C4 C 0.1579(3) -0.32953(13) -0.23048(19)
C5 C 0.0055(3) -0.34457(14) -0.1928(2)
H2 H -0.0621 -0.3909 -0.2238
C6 C -0.0470(3) -0.29086(15) -0.1090(2)
C7 C 0.0548(3) -0.22124(14) -0.0650(2)
H3 H 0.0199 -0.1844 -0.0105
C8 C 0.2096(3) -0.38325(13) -0.3276(2)
C9 C -0.2136(4) -0.3083(2) -0.0688(3)
H4 H -0.2042 -0.3610 -0.0253
H5 H -0.2348 -0.2636 -0.0161
H6 H -0.3070 -0.3114 -0.1396
C10 C 0.1191(3) 0.03000(14) 0.2014(2)
H7 H 0.0487 -0.0094 0.1527
C11 C 0.3307(4) 0.11360(18) 0.2757(2)
H8 H 0.4347 0.1424 0.2872
C12 C 0.2145(4) 0.12188(18) 0.3464(2)
H9 H 0.2233 0.1570 0.4141
C13 C -0.0785(3) 0.05840(16) 0.3431(2)
H10 H -0.1716 0.0442 0.2743
H11 H -0.1066 0.1118 0.3763
C14 C -0.0652(3) -0.00961(16) 0.4408(2)
H12 H -0.0342 -0.0626 0.4079
H13 H -0.1774 -0.0170 0.4595
Cu1B Cu 0.64017(3) -0.037309(15) -0.03630(2)
Cu1A Cu 0.14017(3) -0.462691(15) -0.53630(2)
Cu1B_2 Cu -0.35983(3) -0.037309(15) 0.96370(2)
Cu1C Cu 0.85983(3) 0.462691(15) 0.53630(2)
O1B O 0.75205(18) 0.07245(9) 0.00372(14)
O2B O 0.53847(18) 0.12581(9) 0.08425(14)
O3B O 0.6630(2) 0.36505(11) 0.36764(17)
O4B O 0.8883(2) 0.44659(9) 0.36745(14)
O4A O 0.3883(2) 0.05341(9) -0.13255(14)
O4C O 0.6117(2) -0.05341(9) 0.13255(14)
N1B N -0.2708(2) -0.05565(11) 0.81625(17)
N1B_2 N 0.7292(2) -0.05565(11) -0.18375(17)
N2B N -0.0816(2) -0.06848(12) 0.70112(17)
C1B C 0.6853(3) 0.12879(12) 0.05877(18)
C2B C 0.7916(3) 0.20599(13) 0.10141(19)
C3B C 0.7399(3) 0.26065(13) 0.18376(19)
H1B H 0.6370 0.2511 0.2076
C4B C 0.8421(3) 0.32953(13) 0.23048(19)
C5B C 0.9945(3) 0.34457(14) 0.1928(2)
H2B H 1.0621 0.3909 0.2238
C6B C 1.0470(3) 0.29086(15) 0.1090(2)
C7B C 0.9452(3) 0.22124(14) 0.0650(2)
H3B H 0.9801 0.1844 0.0105
C8B C 0.7904(3) 0.38325(13) 0.3276(2)
C9B C 1.2136(4) 0.3083(2) 0.0688(3)
H4B H 1.2042 0.3610 0.0253
H5B H 1.2348 0.2636 0.0161
H6B H 1.3070 0.3114 0.1396
C10B C -0.1191(3) -0.03000(14) 0.7986(2)
H7B H -0.0487 0.0094 0.8473
C11B C -0.3307(4) -0.11360(18) 0.7243(2)
H8B H -0.4347 -0.1424 0.7128
C12B C -0.2145(4) -0.12188(18) 0.6536(2)
H9B H -0.2233 -0.1570 0.5859
C13B C 0.0785(3) -0.05840(16) 0.6569(2)
H10B H 0.1716 -0.0442 0.7257
H11B H 0.1066 -0.1118 0.6237
C14B C 0.0652(3) 0.00961(16) 0.5592(2)
H12B H 0.0342 0.0626 0.5921
H13B H 0.1774 0.0170 0.5405
loop_
_geom_bond_atom_site_label_1
_geom_bond_atom_site_label_2
_geom_bond_site_symmetry_1
_geom_bond_site_symmetry_2
Cu1 O1 1_555 1_555
O1 C1 1_555 1_555
O2 C1 1_555 1_555
O3 C8 1_555 1_555
O4 C8 1_555 1_555
N1 Cu1 1_555 1_555
N2 C10 1_555 1_555
C1 C2 1_555 1_555
C2 C3 1_555 1_555
C3 H1 1_555 1_555
C4 C3 1_555 1_555
C5 C4 1_555 1_555
H2 C5 1_555 1_555
C6 C5 1_555 1_555
C7 C2 1_555 1_555
H3 C7 1_555 1_555
C8 C4 1_555 1_555
C9 C6 1_555 1_555
H4 C9 1_555 1_555
H5 C9 1_555 1_555
H6 C9 1_555 1_555
C10 N1 1_555 1_555
H7 C10 1_555 1_555
C11 N1 1_555 1_555
H8 C11 1_555 1_555
C12 N2 1_555 1_555
H9 C12 1_555 1_555
C13 N2 1_555 1_555
H10 C13 1_555 1_555
H11 C13 1_555 1_555
C14 C13 1_555 1_555
H12 C14 1_555 1_555
H13 C14 1_555 1_555
Cu1B O2 1_555 1_555
Cu1A O4 1_555 1_555
Cu1B_2 N1B 1_555 1_555
Cu1C O4B 1_555 1_555
O1B Cu1B 1_555 1_555
O2B Cu1 1_555 1_555
O3B C8B 1_555 1_555
O4B C8B 1_555 1_555
O4A Cu1 1_555 1_555
O4C Cu1B 1_555 1_555
N1B C10B 1_555 1_555
N1B_2 Cu1B 1_555 1_555
N2B C10B 1_555 1_555
C1B O1B 1_555 1_555
C2B C1B 1_555 1_555
C3B C2B 1_555 1_555
H1B C3B 1_555 1_555
C4B C3B 1_555 1_555
C5B C4B 1_555 1_555
H2B C5B 1_555 1_555
C6B C5B 1_555 1_555
C7B C2B 1_555 1_555
H3B C7B 1_555 1_555
C8B C4B 1_555 1_555
C9B C6B 1_555 1_555
H4B C9B 1_555 1_555
H5B C9B 1_555 1_555
H6B C9B 1_555 1_555
C10B H7B 1_555 1_555
C11B N1B 1_555 1_555
H8B C11B 1_555 1_555
C12B N2B 1_555 1_555
H9B C12B 1_555 1_555
C13B N2B 1_555 1_555
H10B C13B 1_555 1_555
H11B C13B 1_555 1_555
C14B C14 1_555 1_555
H12B C14B 1_555 1_555
H13B C14B 1_555 1_555
C6 C7 1_555 1_555
C11 C12 1_555 1_555
O2B C1B 1_555 1_555
C6B C7B 1_555 1_555
C11B C12B 1_555 1_555
C13B C14B 1_555 1_555

#END
