
#######################################################################
#
#                 Cambridge Crystallographic Data Centre
#                                CCDC 
#
#######################################################################
#
# If this CIF has been generated from an entry in the Cambridge 
# Structural Database, then it will include bibliographic, chemical, 
# crystal, experimental, refinement or atomic coordinate data resulting 
# from the CCDC's data processing and validation procedures.
#
#######################################################################

data_TAGSOL
_symmetry_cell_setting           monoclinic
_symmetry_space_group_name_H-M   'C 2/c'
_symmetry_Int_Tables_number      15
_space_group_name_Hall           '-C 2yn'
loop_
_symmetry_equiv_pos_site_id
_symmetry_equiv_pos_as_xyz
1 x,y,z
2 -x,y,1/2-z
3 1/2+x,1/2+y,z
4 1/2-x,1/2+y,1/2-z
5 -x,-y,-z
6 x,-y,1/2+z
7 1/2-x,1/2-y,-z
8 1/2+x,1/2-y,1/2+z
_cell_length_a                   33.104(7)
_cell_length_b                   7.4812(15)
_cell_length_c                   19.848(4)
_cell_angle_alpha                90
_cell_angle_beta                 104.75(3)
_cell_angle_gamma                90
_cell_volume                     4753.52
loop_
_atom_site_label
_atom_site_type_symbol
_atom_site_fract_x
_atom_site_fract_y
_atom_site_fract_z
Nd1 Nd 0.021208(3) 0.756877(11) 0.478039(5)
O1 O -0.05272(5) 0.77287(18) 0.47401(9)
O2 O -0.07801(4) 1.02814(18) 0.50551(7)
O3 O -0.01875(4) 0.48157(18) 0.42717(7)
O4 O -0.08087(4) 0.38043(18) 0.42992(7)
O5 O -0.01518(5) 1.06188(19) 0.42609(7)
O6 O 0.00895(5) 0.88691(18) 0.35688(7)
O7 O 0.06064(4) 0.5593(2) 0.41849(8)
H1 H 0.0500 0.4641 0.3982
H2 H 0.0863 0.5622 0.4189
N1 N -0.17918(6) 0.6447(3) 0.37015(11)
N2 N -0.13429(8) 0.7795(3) 0.27883(12)
N3 N -0.04740(7) 1.2398(2) 0.18932(10)
C1 C -0.20561(8) 0.6788(4) 0.40926(16)
H7 H -0.2326 0.6339 0.3949
C2 C -0.19482(9) 0.7775(4) 0.4700(2)
H8 H -0.2142 0.8006 0.4955
C3 C -0.15445(7) 0.8410(3) 0.49186(13)
H9 H -0.1465 0.9093 0.5322
C4 C -0.12564(6) 0.8031(3) 0.45374(11)
C5 C -0.13989(6) 0.7056(3) 0.39135(12)
C6 C -0.11557(6) 0.6888(3) 0.33738(11)
C7 C -0.07794(6) 0.5987(3) 0.34407(9)
C8 C -0.05779(8) 0.6149(3) 0.29113(11)
H10 H -0.0319 0.5615 0.2955
C9 C -0.07636(11) 0.7106(3) 0.23183(13)
H11 H -0.0632 0.7240 0.1959
C10 C -0.11492(11) 0.7856(4) 0.22752(14)
H12 H -0.1282 0.8438 0.1865
C11 C -0.08189(6) 0.8739(2) 0.47966(10)
C12 C -0.05874(6) 0.4814(2) 0.40466(9)
C13 C -0.08813(8) 1.2557(2) 0.18542(13)
H13 H -0.1057 1.2962 0.1439
C14 C -0.10552(7) 1.2149(3) 0.24018(12)
H14 H -0.1338 1.2331 0.2362
C15 C -0.07982(6) 1.1464(3) 0.30073(10)
H15 H -0.0906 1.1194 0.3385
C16 C -0.03794(6) 1.1186(2) 0.30462(9)
C17 C -0.02270(6) 1.1726(2) 0.24828(9)
C18 C -0.01203(6) 1.0191(2) 0.36569(9)
Nd1D Nd -0.021208(3) 1.243123(11) 0.521961(5)
Nd1D_2 Nd -0.021208(3) 0.243123(11) 0.521961(5)
Nd1A Nd -0.021208(3) 0.756877(11) 0.021961(5)
Nd1E Nd 0.021208(3) 1.243123(11) -0.021961(5)
Nd1_2 Nd 0.021208(3) 1.756877(11) 0.478039(5)
O1D O 0.05272(5) 1.22713(18) 0.52599(9)
O2D O 0.07801(4) 0.97186(18) 0.49449(7)
O3D O 0.01875(4) 1.51843(18) 0.57283(7)
O3D_2 O 0.01875(4) 0.51843(18) 0.57283(7)
O3_2 O -0.01875(4) 1.48157(18) 0.42717(7)
O4D O 0.08087(4) 1.61957(18) 0.57008(7)
O4D_2 O 0.08087(4) 0.61957(18) 0.57008(7)
O4_2 O -0.08087(4) 1.38043(18) 0.42992(7)
O5A O 0.01518(5) 1.06188(19) 0.07391(7)
O5D O 0.01518(5) 0.93812(19) 0.57391(7)
O6A O -0.00895(5) 0.88691(18) 0.14312(7)
O6D O -0.00895(5) 1.11309(18) 0.64312(7)
O7D O -0.06064(4) 1.4407(2) 0.58151(8)
H1D H -0.0500 1.5359 0.6018
H2D H -0.0863 1.4378 0.5811
N1D N 0.17918(6) 1.3553(3) 0.62985(11)
N2D N 0.13429(8) 1.2205(3) 0.72117(12)
N3A N 0.04740(7) 1.2398(2) 0.31068(10)
C1D C 0.20561(8) 1.3212(4) 0.59074(16)
H7D H 0.2326 1.3661 0.6051
C2D C 0.19482(9) 1.2225(4) 0.5300(2)
H8D H 0.2142 1.1994 0.5045
C3D C 0.15445(7) 1.1590(3) 0.50814(13)
H9D H 0.1465 1.0907 0.4678
C4D C 0.12564(6) 1.1969(3) 0.54626(11)
C5D C 0.13989(6) 1.2944(3) 0.60865(12)
C6D C 0.11557(6) 1.3112(3) 0.66262(11)
C7D C 0.07794(6) 1.4013(3) 0.65593(9)
C8D C 0.05779(8) 1.3851(3) 0.70887(11)
H10D H 0.0319 1.4385 0.7045
C9D C 0.07636(11) 1.2894(3) 0.76817(13)
H11D H 0.0632 1.2760 0.8041
C10D C 0.11492(11) 1.2144(4) 0.77248(14)
H12D H 0.1282 1.1562 0.8135
C11D C 0.08189(6) 1.1261(2) 0.52034(10)
C12D C 0.05874(6) 1.5186(2) 0.59534(9)
C13A C 0.08813(8) 1.2557(2) 0.31458(13)
H13A H 0.1057 1.2962 0.3561
C14A C 0.10552(7) 1.2149(3) 0.25982(12)
H14A H 0.1338 1.2331 0.2638
C15A C 0.07982(6) 1.1464(3) 0.19927(10)
H15A H 0.0906 1.1194 0.1615
C16A C 0.03794(6) 1.1186(2) 0.19538(9)
C17A C 0.02270(6) 1.1726(2) 0.25172(9)
C18A C 0.01203(6) 1.0191(2) 0.13431(9)
O8 O -0.21218(8) 0.4140(4) 0.24538(14)
H3 H -0.2048 0.4748 0.2828
H4 H -0.2134 0.3049 0.2562
O9 O -0.20457(10) 1.0425(4) 0.2759(3)
H5 H -0.1904 0.9510 0.2714
H6 H -0.2211 1.0203 0.2993
N4 N 0.14563(6) 0.5919(3) 0.44134(12)
C19 C 0.17351(7) 0.5679(4) 0.40380(15)
H16 H 0.1649 0.5088 0.3613
C20 C 0.21442(8) 0.6259(4) 0.42465(14)
H17 H 0.2326 0.6044 0.3968
C21 C 0.22828(7) 0.7168(3) 0.48759(15)
C22 C 0.19944(9) 0.7409(3) 0.52672(18)
H18 H 0.2071 0.7990 0.5695
C23 C 0.15889(8) 0.6767(4) 0.50107(16)
H19 H 0.1400 0.6949 0.5279
N4F N 0.35437(6) 0.9081(3) 0.55866(12)
C19F C 0.32649(7) 0.9321(4) 0.59620(15)
H16F H 0.3351 0.9912 0.6387
C20F C 0.28558(8) 0.8741(4) 0.57535(14)
H17F H 0.2674 0.8956 0.6032
C21F C 0.27172(7) 0.7832(3) 0.51241(15)
C22F C 0.30056(9) 0.7591(3) 0.47328(18)
H18F H 0.2929 0.7010 0.4305
C23F C 0.34111(8) 0.8233(4) 0.49893(16)
H19F H 0.3600 0.8051 0.4721
loop_
_geom_bond_atom_site_label_1
_geom_bond_atom_site_label_2
_geom_bond_site_symmetry_1
_geom_bond_site_symmetry_2
Nd1 O1 1_555 1_555
O1 C11 1_555 1_555
O2 C11 1_555 1_555
O3 Nd1 1_555 1_555
O4 C12 1_555 1_555
O5 Nd1 1_555 1_555
O6 Nd1 1_555 1_555
O7 Nd1 1_555 1_555
H1 O7 1_555 1_555
H2 O7 1_555 1_555
O8 H3 1_555 1_555
H4 O8 1_555 1_555
O9 H5 1_555 1_555
H6 O9 1_555 1_555
N1 C1 1_555 1_555
N2 C6 1_555 1_555
N3 C13 1_555 1_555
N4 C19 1_555 1_555
C1 H7 1_555 1_555
C2 C1 1_555 1_555
H8 C2 1_555 1_555
C3 C2 1_555 1_555
H9 C3 1_555 1_555
C4 C3 1_555 1_555
C5 N1 1_555 1_555
C6 C5 1_555 1_555
C7 C6 1_555 1_555
C8 C7 1_555 1_555
H10 C8 1_555 1_555
C9 C8 1_555 1_555
H11 C9 1_555 1_555
C10 N2 1_555 1_555
H12 C10 1_555 1_555
C11 C4 1_555 1_555
C12 O3 1_555 1_555
C13 H13 1_555 1_555
C14 C13 1_555 1_555
H14 C14 1_555 1_555
C15 C14 1_555 1_555
H15 C15 1_555 1_555
C16 C15 1_555 1_555
C17 N3 1_555 1_555
C18 O5 1_555 1_555
C19 H16 1_555 1_555
C20 C19 1_555 1_555
H17 C20 1_555 1_555
C21 C20 1_555 1_555
C22 C21 1_555 1_555
H18 C22 1_555 1_555
C23 N4 1_555 1_555
H19 C23 1_555 1_555
Nd1D O2 1_555 1_555
Nd1D_2 O3 1_555 1_555
Nd1A O5A 1_555 1_555
Nd1E O5A 1_555 1_555
Nd1_2 O3D 1_555 1_555
O1D Nd1D 1_555 1_555
O2D Nd1 1_555 1_555
O3D Nd1D 1_555 1_555
O3D_2 Nd1 1_555 1_555
O3_2 Nd1D 1_555 1_555
O4D Nd1_2 1_555 1_555
O4D_2 Nd1 1_555 1_555
O4_2 Nd1D 1_555 1_555
O5A C18A 1_555 1_555
O5D Nd1 1_555 1_555
O6A Nd1A 1_555 1_555
O6D Nd1D 1_555 1_555
O7D Nd1D 1_555 1_555
H1D O7D 1_555 1_555
H2D O7D 1_555 1_555
N1D C1D 1_555 1_555
N2D C6D 1_555 1_555
N3A C13A 1_555 1_555
N4F C19F 1_555 1_555
C1D H7D 1_555 1_555
C2D C1D 1_555 1_555
H8D C2D 1_555 1_555
C3D C2D 1_555 1_555
H9D C3D 1_555 1_555
C4D C3D 1_555 1_555
C5D N1D 1_555 1_555
C6D C5D 1_555 1_555
C7D C6D 1_555 1_555
C8D C7D 1_555 1_555
H10D C8D 1_555 1_555
C9D C8D 1_555 1_555
H11D C9D 1_555 1_555
C10D N2D 1_555 1_555
H12D C10D 1_555 1_555
C11D O1D 1_555 1_555
C12D O3D 1_555 1_555
C13A H13A 1_555 1_555
C14A C13A 1_555 1_555
H14A C14A 1_555 1_555
C15A C14A 1_555 1_555
H15A C15A 1_555 1_555
C16A C15A 1_555 1_555
C17A C17 1_555 1_555
C18A O6A 1_555 1_555
C19F H16F 1_555 1_555
C20F C19F 1_555 1_555
H17F C20F 1_555 1_555
C21F C21 1_555 1_555
C22F C21F 1_555 1_555
H18F C22F 1_555 1_555
C23F N4F 1_555 1_555
H19F C23F 1_555 1_555
O4 Nd1D_2 1_555 1_555
O5 Nd1D 1_555 1_555
O6 C18 1_555 1_555
C4 C5 1_555 1_555
C7 C12 1_555 1_555
C9 C10 1_555 1_555
C16 C17 1_555 1_555
C16 C18 1_555 1_555
C22 C23 1_555 1_555
Nd1D O5D 1_555 1_555
Nd1D_2 O3D_2 1_555 1_555
Nd1_2 O3_2 1_555 1_555
O2D C11D 1_555 1_555
O4D C12D 1_555 1_555
N3A C17A 1_555 1_555
C4D C5D 1_555 1_555
C4D C11D 1_555 1_555
C7D C12D 1_555 1_555
C9D C10D 1_555 1_555
C16A C17A 1_555 1_555
C16A C18A 1_555 1_555
C20F C21F 1_555 1_555
C22F C23F 1_555 1_555

#END
