
#######################################################################
#
#                 Cambridge Crystallographic Data Centre
#                                CCDC 
#
#######################################################################
#
# If this CIF has been generated from an entry in the Cambridge 
# Structural Database, then it will include bibliographic, chemical, 
# crystal, experimental, refinement or atomic coordinate data resulting 
# from the CCDC's data processing and validation procedures.
#
#######################################################################

data_TAGSEB
_symmetry_cell_setting           orthorhombic
_symmetry_space_group_name_H-M   'P c a 21'
_symmetry_Int_Tables_number      29
_space_group_name_Hall           'P 2c -2ac'
loop_
_symmetry_equiv_pos_site_id
_symmetry_equiv_pos_as_xyz
1 x,y,z
2 -x,-y,1/2+z
3 1/2+x,-y,z
4 1/2-x,y,1/2+z
_cell_length_a                   23.920(3)
_cell_length_b                   13.1187(16)
_cell_length_c                   19.689(2)
_cell_angle_alpha                90
_cell_angle_beta                 90
_cell_angle_gamma                90
_cell_volume                     6178.39
loop_
_atom_site_label
_atom_site_type_symbol
_atom_site_fract_x
_atom_site_fract_y
_atom_site_fract_z
V1 V 0.46028(10) 0.15805(17) 0.66521(12)
V2 V 0.53266(9) 0.33730(16) 0.57218(12)
V3 V 0.46628(8) 0.55876(14) 0.62295(10)
V4 V 0.53115(8) -0.25001(14) 0.71313(11)
V5 V 0.47307(12) -0.07835(17) 0.61570(14)
V6 V 0.38683(8) -0.25814(14) 0.56647(10)
Cu1 Cu 0.50465(7) 0.13970(12) 0.83792(10)
Cu2 Cu 0.67342(7) 0.29380(12) 0.62355(10)
Cu3 Cu 0.54846(6) 0.37165(12) 0.38899(10)
Cu4 Cu 1.02418(6) 0.20374(11) 0.90048(10)
O1 O 0.4966(4) 0.1425(6) 0.7342(5)
O2 O 0.4425(4) 0.0392(7) 0.6278(5)
O3 O 0.4005(6) 0.1965(10) 0.6855(8)
O4 O 0.4918(4) 0.2440(7) 0.6077(5)
O5 O 0.5937(4) 0.3317(6) 0.6050(5)
O6 O 0.5341(4) 0.3185(7) 0.4908(5)
O7 O 0.5042(4) 0.4617(6) 0.5852(4)
O8 O 0.5134(3) 0.6396(5) 0.6614(4)
O9 O 0.4259(4) 0.5133(8) 0.6776(5)
O10 O 0.4275(4) 0.6266(6) 0.5624(4)
O11 O 0.5968(3) -0.2326(7) 0.7109(5)
O12 O 0.4923(4) -0.1416(6) 0.6873(5)
O13 O 0.5125(4) -0.2676(7) 0.7930(5)
O14 O 0.5328(6) -0.0595(11) 0.5797(7)
O15 O 0.4353(4) -0.1502(7) 0.5608(5)
O16 O 0.3551(4) -0.2509(8) 0.6377(4)
O17 O 0.3418(4) -0.2525(7) 0.5046(5)
N1 N 0.5661(4) 0.0488(7) 0.8586(5)
N2 N 0.9638(4) 0.1086(7) 0.9002(6)
N3 N 0.4556(4) 0.2385(7) 0.8806(6)
N4 N 0.0909(4) 0.2772(7) 0.9219(5)
N5 N 0.6904(5) 0.1513(7) 0.6186(6)
N6 N 0.7049(5) -0.5743(7) 0.6493(5)
N7 N 0.6196(4) 0.3056(7) 0.3704(6)
N8 N 0.9957(4) 0.5238(8) 0.3703(6)
C1 C 0.5940(5) -0.0054(9) 0.8123(6)
H1 H 0.5795 -0.0058 0.7685
C2 C 0.6396(6) -0.0577(9) 0.8224(7)
H2 H 0.6555 -0.0939 0.7867
C3 C 0.6640(5) -0.0600(8) 0.8846(7)
C4 C 0.6366(6) -0.0052(11) 0.9342(7)
H3 H 0.6506 -0.0029 0.9782
C5 C 0.5894(6) 0.0448(10) 0.9183(6)
H4 H 0.5716 0.0799 0.9532
C6 C 0.7180(5) -0.1130(8) 0.8978(8)
H5 H 0.7225 -0.1677 0.8651
H6 H 0.7170 -0.1431 0.9427
C7 C 0.7683(4) -0.0407(8) 0.8929(7)
H7 H 0.7652 0.0110 0.9279
H8 H 0.7677 -0.0066 0.8492
C8 C 0.8245(4) -0.0973(9) 0.9010(8)
H9 H 0.8241 -0.1356 0.9432
H10 H 0.8288 -0.1455 0.8640
C9 C 0.8732(5) -0.0263(8) 0.9014(7)
C10 C 0.8951(5) 0.0091(10) 0.9572(7)
H11 H 0.8799 -0.0107 0.9985
C11 C 0.9412(5) 0.0764(9) 0.9573(7)
H12 H 0.9558 0.0985 0.9986
C12 C 0.9415(5) 0.0743(9) 0.8400(7)
H13 H 0.9558 0.0977 0.7989
C13 C 0.8990(5) 0.0074(9) 0.8402(7)
H14 H 0.8859 -0.0178 0.7990
C14 C 0.4534(6) 0.2481(10) 0.9478(8)
H15 H 0.4766 0.2093 0.9755
C15 C 0.4152(6) 0.3182(11) 0.9765(9)
H16 H 0.4116 0.3215 1.0235
C16 C 0.3841(6) 0.3800(9) 0.9376(7)
C17 C 0.3889(6) 0.3717(10) 0.8687(7)
H17 H 0.3672 0.4120 0.8402
C18 C 0.4262(6) 0.3034(9) 0.8420(8)
H18 H 0.4313 0.3019 0.7952
C19 C 0.3397(5) 0.4491(9) 0.9691(7)
H19 H 0.3385 0.5140 0.9455
H20 H 0.3483 0.4618 1.0165
C20 C 0.2823(5) 0.3937(10) 0.9627(9)
H21 H 0.2802 0.3622 0.9182
H22 H 0.2808 0.3397 0.9963
C21 C 0.2332(5) 0.4600(11) 0.9717(8)
H23 H 0.2360 0.5184 0.9417
H24 H 0.2319 0.4848 1.0181
C22 C 0.1817(5) 0.4019(9) 0.9562(7)
C23 C 0.1510(6) 0.3519(11) 1.0047(7)
H25 H 0.1604 0.3596 1.0502
C24 C 0.1063(6) 0.2902(11) 0.9870(7)
H26 H 0.0865 0.2568 1.0210
C25 C 0.1202(5) 0.3251(8) 0.8756(6)
H27 H 0.1104 0.3177 0.8302
C26 C 0.1651(5) 0.3858(9) 0.8919(8)
H28 H 0.1847 0.4172 0.8569
C27 C 0.7436(6) 0.1210(10) 0.6059(9)
H29 H 0.7699 0.1694 0.5930
C28 C 0.7595(6) 0.0213(11) 0.6113(9)
H30 H 0.7970 0.0052 0.6054
C29 C 0.7233(7) -0.0546(11) 0.6249(7)
C30 C 0.6695(6) -0.0246(11) 0.6339(7)
H31 H 0.6422 -0.0735 0.6425
C31 C 0.6544(5) 0.0762(11) 0.6307(6)
H32 H 0.6170 0.0929 0.6374
C32 C 0.7444(7) -0.1684(11) 0.6282(9)
H33 H 0.7174 -0.2139 0.6073
H34 H 0.7798 -0.1755 0.6046
C33 C 0.7512(6) -0.1929(10) 0.7024(8)
H35 H 0.7146 -0.1919 0.7236
H36 H 0.7734 -0.1396 0.7234
C34 C 0.7782(6) -0.2940(10) 0.7170(9)
H37 H 0.8158 -0.2913 0.6987
H38 H 0.7818 -0.2997 0.7659
C35 C 0.7522(6) -0.3907(9) 0.6922(7)
C36 C 0.6952(6) -0.4019(10) 0.6823(7)
H39 H 0.6715 -0.3466 0.6889
C37 C 0.6734(5) -0.4950(9) 0.6626(7)
H40 H 0.6348 -0.5016 0.6586
C38 C 0.7593(6) -0.5626(10) 0.6560(7)
H41 H 0.7823 -0.6181 0.6467
C39 C 0.7839(5) -0.4730(11) 0.6758(7)
H42 H 0.8227 -0.4686 0.6781
C40 C 0.6357(6) 0.2937(11) 0.3061(8)
H43 H 0.6106 0.3090 0.2716
C41 C 0.6886(5) 0.2596(10) 0.2889(7)
H44 H 0.6985 0.2511 0.2436
C42 C 0.7258(5) 0.2385(8) 0.3393(7)
C43 C 0.7066(6) 0.2503(9) 0.4055(7)
H45 H 0.7304 0.2358 0.4416
C44 C 0.6558(6) 0.2813(9) 0.4178(7)
H46 H 0.6446 0.2865 0.4629
C45 C 0.7848(5) 0.2124(10) 0.3227(8)
H47 H 0.7871 0.1857 0.2769
H48 H 0.7983 0.1605 0.3537
C46 C 0.8212(5) 0.3088(9) 0.3289(7)
H49 H 0.8064 0.3614 0.2993
H50 H 0.8196 0.3339 0.3752
C47 C 0.8817(5) 0.2879(11) 0.3100(9)
H51 H 0.8943 0.2273 0.3337
H52 H 0.8840 0.2747 0.2616
C48 C 0.9192(5) 0.3752(9) 0.3277(7)
C49 C 0.9264(5) 0.4025(9) 0.3989(7)
H53 H 0.9057 0.3703 0.4327
C50 C 0.9642(4) 0.4761(9) 0.4148(6)
H54 H 0.9680 0.4940 0.4602
C51 C 0.9889(6) 0.4933(11) 0.3034(7)
H55 H 1.0120 0.5221 0.2706
C52 C 0.9518(6) 0.4266(12) 0.2841(6)
H56 H 0.9478 0.4141 0.2378
V4_2 V 0.53115(8) 0.74999(14) 0.71313(11)
V6_2 V 0.38683(8) 0.74186(14) 0.56647(10)
Cu2_2 Cu 0.67342(7) -0.70620(12) 0.62355(10)
Cu3B Cu 1.04846(6) 0.62835(12) 0.38899(10)
Cu4B Cu 0.52418(6) -0.20374(11) 0.90048(10)
Cu4_2 Cu 0.02418(6) 0.20374(11) 0.90048(10)
O8_2 O 0.5134(3) -0.3604(5) 0.6614(4)
O10_2 O 0.4275(4) -0.3734(6) 0.5624(4)
O13B O 1.0125(4) 0.2676(7) 0.7930(5)
N4_2 N 1.0909(4) 0.2772(7) 0.9219(5)
N6_2 N 0.7049(5) 0.4257(7) 0.6493(5)
N8B N 0.4957(4) 0.4762(8) 0.3703(6)
loop_
_geom_bond_atom_site_label_1
_geom_bond_atom_site_label_2
_geom_bond_site_symmetry_1
_geom_bond_site_symmetry_2
V1 O1 1_555 1_555
V2 O4 1_555 1_555
V3 O7 1_555 1_555
V4 O11 1_555 1_555
V5 O2 1_555 1_555
V6 O15 1_555 1_555
Cu1 O1 1_555 1_555
Cu2 O5 1_555 1_555
Cu3 O6 1_555 1_555
Cu4 N2 1_555 1_555
O2 V1 1_555 1_555
O3 V1 1_555 1_555
O4 V1 1_555 1_555
O5 V2 1_555 1_555
O6 V2 1_555 1_555
O7 V2 1_555 1_555
O8 V3 1_555 1_555
O9 V3 1_555 1_555
O10 V3 1_555 1_555
O12 V4 1_555 1_555
O13 V4 1_555 1_555
O14 V5 1_555 1_555
O15 V5 1_555 1_555
O16 V6 1_555 1_555
O17 V6 1_555 1_555
N1 Cu1 1_555 1_555
N2 C11 1_555 1_555
N3 Cu1 1_555 1_555
N4 C24 1_555 1_555
N5 Cu2 1_555 1_555
N6 C37 1_555 1_555
N7 Cu3 1_555 1_555
N8 C50 1_555 1_555
C1 N1 1_555 1_555
H1 C1 1_555 1_555
C2 C1 1_555 1_555
H2 C2 1_555 1_555
C3 C2 1_555 1_555
C4 C3 1_555 1_555
H3 C4 1_555 1_555
C5 N1 1_555 1_555
H4 C5 1_555 1_555
C6 C3 1_555 1_555
H5 C6 1_555 1_555
H6 C6 1_555 1_555
C7 C6 1_555 1_555
H7 C7 1_555 1_555
H8 C7 1_555 1_555
C8 C7 1_555 1_555
H9 C8 1_555 1_555
H10 C8 1_555 1_555
C9 C8 1_555 1_555
C10 C9 1_555 1_555
H11 C10 1_555 1_555
C11 C10 1_555 1_555
H12 C11 1_555 1_555
C12 N2 1_555 1_555
H13 C12 1_555 1_555
C13 C9 1_555 1_555
H14 C13 1_555 1_555
C14 N3 1_555 1_555
H15 C14 1_555 1_555
C15 C14 1_555 1_555
H16 C15 1_555 1_555
C16 C15 1_555 1_555
C17 C16 1_555 1_555
H17 C17 1_555 1_555
C18 N3 1_555 1_555
H18 C18 1_555 1_555
C19 C16 1_555 1_555
H19 C19 1_555 1_555
H20 C19 1_555 1_555
C20 C19 1_555 1_555
H21 C20 1_555 1_555
H22 C20 1_555 1_555
C21 C20 1_555 1_555
H23 C21 1_555 1_555
H24 C21 1_555 1_555
C22 C21 1_555 1_555
C23 C22 1_555 1_555
H25 C23 1_555 1_555
C24 C23 1_555 1_555
H26 C24 1_555 1_555
C25 N4 1_555 1_555
H27 C25 1_555 1_555
C26 C22 1_555 1_555
H28 C26 1_555 1_555
C27 N5 1_555 1_555
H29 C27 1_555 1_555
C28 C27 1_555 1_555
H30 C28 1_555 1_555
C29 C28 1_555 1_555
C30 C29 1_555 1_555
H31 C30 1_555 1_555
C31 N5 1_555 1_555
H32 C31 1_555 1_555
C32 C29 1_555 1_555
H33 C32 1_555 1_555
H34 C32 1_555 1_555
C33 C32 1_555 1_555
H35 C33 1_555 1_555
H36 C33 1_555 1_555
C34 C33 1_555 1_555
H37 C34 1_555 1_555
H38 C34 1_555 1_555
C35 C34 1_555 1_555
C36 C35 1_555 1_555
H39 C36 1_555 1_555
C37 C36 1_555 1_555
H40 C37 1_555 1_555
C38 N6 1_555 1_555
H41 C38 1_555 1_555
C39 C35 1_555 1_555
H42 C39 1_555 1_555
C40 N7 1_555 1_555
H43 C40 1_555 1_555
C41 C40 1_555 1_555
H44 C41 1_555 1_555
C42 C41 1_555 1_555
C43 C42 1_555 1_555
H45 C43 1_555 1_555
C44 N7 1_555 1_555
H46 C44 1_555 1_555
C45 C42 1_555 1_555
H47 C45 1_555 1_555
H48 C45 1_555 1_555
C46 C45 1_555 1_555
H49 C46 1_555 1_555
H50 C46 1_555 1_555
C47 C46 1_555 1_555
H51 C47 1_555 1_555
H52 C47 1_555 1_555
C48 C47 1_555 1_555
C49 C48 1_555 1_555
H53 C49 1_555 1_555
C50 C49 1_555 1_555
H54 C50 1_555 1_555
C51 N8 1_555 1_555
H55 C51 1_555 1_555
C52 C48 1_555 1_555
H56 C52 1_555 1_555
V4_2 O8 1_555 1_555
V6_2 O10 1_555 1_555
Cu2_2 N6 1_555 1_555
Cu3B N8 1_555 1_555
Cu4B O13 1_555 1_555
Cu4_2 N4 1_555 1_555
O8_2 V4 1_555 1_555
O10_2 V6 1_555 1_555
O13B Cu4 1_555 1_555
N4_2 Cu4 1_555 1_555
N6_2 Cu2 1_555 1_555
N8B Cu3 1_555 1_555
V5 O12 1_555 1_555
C4 C5 1_555 1_555
C12 C13 1_555 1_555
C17 C18 1_555 1_555
C25 C26 1_555 1_555
C30 C31 1_555 1_555
C38 C39 1_555 1_555
C43 C44 1_555 1_555
C51 C52 1_555 1_555

#END
