
#######################################################################
#
#                 Cambridge Crystallographic Data Centre
#                                CCDC 
#
#######################################################################
#
# If this CIF has been generated from an entry in the Cambridge 
# Structural Database, then it will include bibliographic, chemical, 
# crystal, experimental, refinement or atomic coordinate data resulting 
# from the CCDC's data processing and validation procedures.
#
#######################################################################

data_TAGSOL01
_symmetry_cell_setting           monoclinic
_symmetry_space_group_name_H-M   'C 2/c'
_symmetry_Int_Tables_number      15
_space_group_name_Hall           '-C 2yn'
loop_
_symmetry_equiv_pos_site_id
_symmetry_equiv_pos_as_xyz
1 x,y,z
2 -x,y,1/2-z
3 1/2+x,1/2+y,z
4 1/2-x,1/2+y,1/2-z
5 -x,-y,-z
6 x,-y,1/2+z
7 1/2-x,1/2-y,-z
8 1/2+x,1/2-y,1/2+z
_cell_length_a                   33.151(2)
_cell_length_b                   7.4802(4)
_cell_length_c                   19.8661(12)
_cell_angle_alpha                90
_cell_angle_beta                 104.7440(10)
_cell_angle_gamma                90
_cell_volume                     4764.11
loop_
_atom_site_label
_atom_site_type_symbol
_atom_site_fract_x
_atom_site_fract_y
_atom_site_fract_z
Nd1 Nd 1.021212(5) 0.243330(19) 0.478065(8)
O2 O 0.98127(6) 0.5185(3) 0.42728(11)
O4 O 0.91912(7) 0.6194(3) 0.43008(12)
O5 O 0.94724(7) 0.2278(3) 0.47431(15)
O6 O 0.92207(7) -0.0284(3) 0.50528(12)
O7 O 0.98478(7) -0.0613(3) 0.42598(11)
O8 O 1.00907(7) 0.1126(3) 0.35698(12)
O9 O 1.06051(7) 0.4426(3) 0.41868(12)
H5 H 1.0864 0.4191 0.4301
H6 H 1.0500 0.4302 0.3752
C1 C 0.94236(12) 0.3850(5) 0.29086(19)
H7 H 0.9683 0.4377 0.2952
C2 C 0.92350(16) 0.2899(5) 0.2319(2)
H8 H 0.9364 0.2767 0.1957
C3 C 0.88526(16) 0.2155(5) 0.2280(2)
H9 H 0.8720 0.1567 0.1871
C4 C 0.88448(11) 0.3114(5) 0.33722(19)
C5 C 0.92200(10) 0.4010(4) 0.34391(17)
C6 C 0.86018(10) 0.2938(5) 0.3913(2)
C7 C 0.79468(12) 0.3208(6) 0.4094(3)
H10 H 0.7677 0.3659 0.3951
C8 C 0.80515(14) 0.2237(5) 0.4692(3)
H11 H 0.7856 0.2010 0.4945
C9 C 0.84578(11) 0.1589(5) 0.4918(2)
H12 H 0.8537 0.0906 0.5322
C10 C 0.87416(10) 0.1975(5) 0.4535(2)
C11 C 0.94101(9) 0.5185(4) 0.40471(16)
C12 C 0.91796(9) 0.1262(4) 0.47947(17)
C13 C 0.91201(12) -0.2555(4) 0.1860(2)
H13 H 0.8944 -0.2957 0.1445
C14 C 0.89443(11) -0.2156(5) 0.2399(2)
H14 H 0.8662 -0.2346 0.2358
C15 C 0.92019(10) -0.1459(4) 0.30057(17)
H15 H 0.9094 -0.1175 0.3381
C16 C 0.96216(10) -0.1193(4) 0.30461(16)
C17 C 0.97725(9) -0.1724(4) 0.24815(16)
C18 C 0.98812(9) -0.0192(4) 0.36567(16)
N1 N 0.86562(12) 0.2214(4) 0.27874(19)
N2 N 0.82077(9) 0.3547(4) 0.37035(18)
N3 N 0.95249(10) -0.2404(3) 0.18917(17)
Nd1D Nd 0.978788(5) 0.756670(19) 0.521935(8)
Nd1D_2 Nd 0.978788(5) -0.243330(19) 0.521935(8)
Nd1A Nd 0.978788(5) 0.243330(19) 0.021935(8)
Nd1E Nd 1.021212(5) -0.243330(19) -0.021935(8)
Nd1_2 Nd 1.021212(5) 1.243330(19) 0.478065(8)
O2D O 1.01873(6) 0.4815(3) 0.57272(11)
O4D O 1.08088(7) 0.3806(3) 0.56992(12)
O5D O 1.05276(7) 0.7722(3) 0.52569(15)
O6D O 1.07793(7) 1.0284(3) 0.49472(12)
O6D_2 O 1.07793(7) 0.0284(3) 0.49472(12)
O6_2 O 0.92207(7) 0.9716(3) 0.50528(12)
O7A O 1.01522(7) -0.0613(3) 0.07402(11)
O7D O 1.01522(7) 0.0613(3) 0.57402(11)
O7D_2 O 1.01522(7) 1.0613(3) 0.57402(11)
O7_2 O 0.98478(7) 0.9387(3) 0.42598(11)
O8A O 0.99093(7) 0.1126(3) 0.14302(12)
O8D O 0.99093(7) 0.8874(3) 0.64302(12)
O9D O 0.93949(7) 0.5574(3) 0.58132(12)
H5D H 0.9136 0.5809 0.5699
H6D H 0.9500 0.5698 0.6248
C1D C 1.05764(12) 0.6150(5) 0.70914(19)
H7D H 1.0317 0.5623 0.7048
C2D C 1.07650(16) 0.7101(5) 0.7681(2)
H8D H 1.0636 0.7233 0.8043
C3D C 1.11474(16) 0.7845(5) 0.7720(2)
H9D H 1.1280 0.8433 0.8129
C4D C 1.11552(11) 0.6886(5) 0.66278(19)
C5D C 1.07800(10) 0.5990(4) 0.65609(17)
C6D C 1.13982(10) 0.7062(5) 0.6087(2)
C7D C 1.20532(12) 0.6792(6) 0.5906(3)
H10D H 1.2323 0.6341 0.6049
C8D C 1.19485(14) 0.7763(5) 0.5308(3)
H11D H 1.2144 0.7990 0.5055
C9D C 1.15422(11) 0.8411(5) 0.5082(2)
H12D H 1.1463 0.9094 0.4678
C10D C 1.12584(10) 0.8025(5) 0.5465(2)
C11D C 1.05899(9) 0.4815(4) 0.59529(16)
C12D C 1.08204(9) 0.8738(4) 0.52053(17)
C13A C 1.08799(12) -0.2555(4) 0.3140(2)
H13A H 1.1056 -0.2957 0.3555
C14A C 1.10557(11) -0.2156(5) 0.2601(2)
H14A H 1.1338 -0.2346 0.2642
C15A C 1.07981(10) -0.1459(4) 0.19943(17)
H15A H 1.0906 -0.1175 0.1619
C16A C 1.03784(10) -0.1193(4) 0.19539(16)
C17A C 1.02275(9) -0.1724(4) 0.25185(16)
C18A C 1.01188(9) -0.0192(4) 0.13433(16)
N1D N 1.13438(12) 0.7786(4) 0.72126(19)
N2D N 1.17923(9) 0.6453(4) 0.62965(18)
N3A N 1.04751(10) -0.2404(3) 0.31083(17)
O1 O 0.78714(12) 0.5873(5) 0.2459(2)
H1 H 0.8059 0.4855 0.2538
H2 H 0.7982 0.6960 0.2704
O3 O 0.79556(14) 0.9626(6) 0.2754(3)
H3 H 0.7709 1.0035 0.2688
H4 H 0.7940 0.8513 0.2666
C19 C 0.84110(12) 0.6770(6) 0.4985(3)
H16 H 0.8599 0.6946 0.4715
C20 C 0.80071(13) 0.7407(5) 0.4733(3)
H17 H 0.7931 0.7991 0.4306
C21 C 0.77177(11) 0.7166(5) 0.5123(3)
C22 C 0.78578(12) 0.6255(6) 0.5753(2)
H18 H 0.7676 0.6035 0.6030
C23 C 0.82630(12) 0.5686(6) 0.5962(2)
H19 H 0.8349 0.5100 0.6387
N4 N 0.85439(10) 0.5924(5) 0.5589(2)
C19F C 0.65890(12) 0.8230(6) 0.5015(3)
H16F H 0.6401 0.8054 0.5285
C20F C 0.69929(13) 0.7593(5) 0.5267(3)
H17F H 0.7069 0.7009 0.5694
C21F C 0.72823(11) 0.7834(5) 0.4877(3)
C22F C 0.71422(12) 0.8745(6) 0.4247(2)
H18F H 0.7324 0.8965 0.3970
C23F C 0.67370(12) 0.9314(6) 0.4038(2)
H19F H 0.6651 0.9900 0.3613
N4F N 0.64561(10) 0.9076(5) 0.4411(2)
loop_
_geom_bond_atom_site_label_1
_geom_bond_atom_site_label_2
_geom_bond_site_symmetry_1
_geom_bond_site_symmetry_2
Nd1 O2 1_555 1_555
O1 H1 1_555 1_555
H2 O1 1_555 1_555
O2 C11 1_555 1_555
O3 H3 1_555 1_555
H4 O3 1_555 1_555
O4 C11 1_555 1_555
O5 Nd1 1_555 1_555
O6 C12 1_555 1_555
O7 Nd1 1_555 1_555
O8 Nd1 1_555 1_555
O9 Nd1 1_555 1_555
H5 O9 1_555 1_555
H6 O9 1_555 1_555
C1 H7 1_555 1_555
C2 C1 1_555 1_555
H8 C2 1_555 1_555
C3 C2 1_555 1_555
H9 C3 1_555 1_555
C4 C5 1_555 1_555
C5 C1 1_555 1_555
C6 C4 1_555 1_555
C7 H10 1_555 1_555
C8 C7 1_555 1_555
H11 C8 1_555 1_555
C9 C8 1_555 1_555
H12 C9 1_555 1_555
C10 C6 1_555 1_555
C11 C5 1_555 1_555
C12 O5 1_555 1_555
C13 H13 1_555 1_555
C14 C13 1_555 1_555
H14 C14 1_555 1_555
C15 C14 1_555 1_555
H15 C15 1_555 1_555
C16 C15 1_555 1_555
C17 C16 1_555 1_555
C18 O7 1_555 1_555
C19 H16 1_555 1_555
C20 C19 1_555 1_555
H17 C20 1_555 1_555
C21 C20 1_555 1_555
C22 C21 1_555 1_555
H18 C22 1_555 1_555
C23 C22 1_555 1_555
H19 C23 1_555 1_555
N1 C3 1_555 1_555
N2 C6 1_555 1_555
N3 C13 1_555 1_555
N4 C19 1_555 1_555
Nd1D O2 1_555 1_555
Nd1D_2 O6 1_555 1_555
Nd1A O7A 1_555 1_555
Nd1E O7A 1_555 1_555
Nd1_2 O6D 1_555 1_555
O2D Nd1 1_555 1_555
O4D Nd1 1_555 1_555
O5D Nd1D 1_555 1_555
O6D C12D 1_555 1_555
O6D_2 Nd1 1_555 1_555
O6_2 Nd1D 1_555 1_555
O7A C18A 1_555 1_555
O7D Nd1 1_555 1_555
O7D_2 Nd1D 1_555 1_555
O7_2 Nd1D 1_555 1_555
O8A Nd1A 1_555 1_555
O8D Nd1D 1_555 1_555
O9D Nd1D 1_555 1_555
H5D O9D 1_555 1_555
H6D O9D 1_555 1_555
C1D H7D 1_555 1_555
C2D C1D 1_555 1_555
H8D C2D 1_555 1_555
C3D C2D 1_555 1_555
H9D C3D 1_555 1_555
C4D C5D 1_555 1_555
C5D C1D 1_555 1_555
C6D C4D 1_555 1_555
C7D H10D 1_555 1_555
C8D C7D 1_555 1_555
H11D C8D 1_555 1_555
C9D C8D 1_555 1_555
H12D C9D 1_555 1_555
C10D C6D 1_555 1_555
C11D O2D 1_555 1_555
C12D O5D 1_555 1_555
C13A H13A 1_555 1_555
C14A C13A 1_555 1_555
H14A C14A 1_555 1_555
C15A C14A 1_555 1_555
H15A C15A 1_555 1_555
C16A C15A 1_555 1_555
C17A C17 1_555 1_555
C18A O8A 1_555 1_555
C19F H16F 1_555 1_555
C20F C19F 1_555 1_555
H17F C20F 1_555 1_555
C21F C21 1_555 1_555
C22F C21F 1_555 1_555
H18F C22F 1_555 1_555
C23F C22F 1_555 1_555
H19F C23F 1_555 1_555
N1D C3D 1_555 1_555
N2D C6D 1_555 1_555
N3A C13A 1_555 1_555
N4F C19F 1_555 1_555
O4 Nd1D 1_555 1_555
O7 Nd1D_2 1_555 1_555
O8 C18 1_555 1_555
C4 N1 1_555 1_555
C7 N2 1_555 1_555
C9 C10 1_555 1_555
C10 C12 1_555 1_555
C16 C18 1_555 1_555
C17 N3 1_555 1_555
C23 N4 1_555 1_555
Nd1D O2D 1_555 1_555
Nd1D_2 O7D 1_555 1_555
Nd1_2 O7D_2 1_555 1_555
Nd1_2 O7_2 1_555 1_555
O4D C11D 1_555 1_555
C4D N1D 1_555 1_555
C5D C11D 1_555 1_555
C7D N2D 1_555 1_555
C9D C10D 1_555 1_555
C10D C12D 1_555 1_555
C16A C17A 1_555 1_555
C16A C18A 1_555 1_555
C17A N3A 1_555 1_555
C20F C21F 1_555 1_555
C23F N4F 1_555 1_555

#END
