
#######################################################################
#
#                 Cambridge Crystallographic Data Centre
#                                CCDC 
#
#######################################################################
#
# If this CIF has been generated from an entry in the Cambridge 
# Structural Database, then it will include bibliographic, chemical, 
# crystal, experimental, refinement or atomic coordinate data resulting 
# from the CCDC's data processing and validation procedures.
#
#######################################################################

data_TAGTIG
_symmetry_cell_setting           monoclinic
_symmetry_space_group_name_H-M   'P 21/c'
_symmetry_Int_Tables_number      14
_space_group_name_Hall           '-P 2ybc'
loop_
_symmetry_equiv_pos_site_id
_symmetry_equiv_pos_as_xyz
1 x,y,z
2 -x,1/2+y,1/2-z
3 -x,-y,-z
4 x,1/2-y,1/2+z
_cell_length_a                   6.2523(7)
_cell_length_b                   13.0742(14)
_cell_length_c                   18.0207(19)
_cell_angle_alpha                90
_cell_angle_beta                 92.1930(10)
_cell_angle_gamma                90
_cell_volume                     1472
loop_
_atom_site_label
_atom_site_type_symbol
_atom_site_fract_x
_atom_site_fract_y
_atom_site_fract_z
O1 O -0.2098(3) -0.21590(15) 0.43657(12)
Cu1 Cu 0.49222(5) -0.23625(3) 0.457400(19)
Cu2 Cu 0.0000 -0.5000 0.5000
P1 P 0.28319(10) -0.42931(5) 0.37424(4)
P2 P -0.00190(10) -0.27514(5) 0.44528(4)
O4 O 0.1880(3) -0.20141(14) 0.44904(11)
O5 O -0.1330(3) -0.44117(14) 0.37237(11)
H5 H -0.2538 -0.4167 0.3707
O6 O 0.0059(3) -0.34881(15) 0.51174(11)
O7 O 0.4635(3) -0.35061(14) 0.38669(11)
O8 O 0.2579(3) -0.49633(14) 0.44355(11)
O9 O 0.4669(3) -0.34158(16) 0.55363(11)
H6 H 0.3495 -0.3696 0.5517
H7 H 0.5466 -0.3905 0.5474
O10 O 0.3108(3) -0.49285(15) 0.30548(11)
C1 C 0.0239(4) -0.3597(2) 0.36448(15)
C2 C 0.0009(4) -0.3117(2) 0.28610(15)
H8 H 0.0547 -0.3630 0.2519
N1 N -0.0909(4) -0.1720(2) 0.16302(14)
H9 H -0.1479 -0.1161 0.1837
H10 H -0.0877 -0.1611 0.1138
C3 C 0.1364(5) -0.2153(3) 0.27492(19)
H11 H 0.0809 -0.1596 0.3040
H12 H 0.2829 -0.2282 0.2921
C4 C 0.1319(5) -0.1853(3) 0.19317(18)
H13 H 0.2100 -0.1218 0.1875
H14 H 0.2027 -0.2377 0.1650
C5 C -0.2316(6) -0.2613(3) 0.17665(19)
H15 H -0.1834 -0.3197 0.1485
H16 H -0.3770 -0.2455 0.1597
C6 C -0.2286(5) -0.2883(3) 0.25883(17)
H17 H -0.3187 -0.3475 0.2665
H18 H -0.2845 -0.2316 0.2869
O11 O 0.5239(3) -0.11522(17) 0.52334(13)
H19 H 0.6513 -0.1018 0.5301
H20 H 0.4540 -0.1123 0.5471
O1B O 0.2098(3) -0.78410(15) 0.56343(12)
O1_2 O 0.7902(3) -0.21590(15) 0.43657(12)
O1B_2 O -0.7902(3) -0.78410(15) 0.56343(12)
Cu1B Cu 0.50778(5) -0.76375(3) 0.542600(19)
Cu1_2 Cu -0.50778(5) -0.23625(3) 0.457400(19)
Cu1B_2 Cu -0.49222(5) -0.76375(3) 0.542600(19)
P1B P -0.28319(10) -0.57069(5) 0.62576(4)
P2B P 0.00190(10) -0.72486(5) 0.55472(4)
O4B O -0.1880(3) -0.79859(14) 0.55096(11)
O5B O 0.1330(3) -0.55883(14) 0.62763(11)
H5B H 0.2538 -0.5833 0.6293
O6B O -0.0059(3) -0.65119(15) 0.48826(11)
O7B O -0.4635(3) -0.64939(14) 0.61331(11)
O8B O -0.2579(3) -0.50367(14) 0.55645(11)
O9B O -0.4669(3) -0.65842(16) 0.44637(11)
H6B H -0.3495 -0.6304 0.4483
H7B H -0.5466 -0.6095 0.4526
O10B O -0.3108(3) -0.50715(15) 0.69452(11)
C1B C -0.0239(4) -0.6403(2) 0.63552(15)
C2B C -0.0009(4) -0.6883(2) 0.71390(15)
H8B H -0.0547 -0.6370 0.7481
N1B N 0.0909(4) -0.8280(2) 0.83698(14)
H9B H 0.1479 -0.8839 0.8163
H10B H 0.0877 -0.8389 0.8862
C3B C -0.1364(5) -0.7847(3) 0.72508(19)
H11B H -0.0809 -0.8404 0.6960
H12B H -0.2829 -0.7718 0.7079
C4B C -0.1319(5) -0.8147(3) 0.80683(18)
H13B H -0.2100 -0.8782 0.8125
H14B H -0.2027 -0.7623 0.8350
C5B C 0.2316(6) -0.7387(3) 0.82335(19)
H15B H 0.1834 -0.6803 0.8515
H16B H 0.3770 -0.7545 0.8403
C6B C 0.2286(5) -0.7117(3) 0.74117(17)
H17B H 0.3187 -0.6525 0.7335
H18B H 0.2845 -0.7684 0.7131
O11B O -0.5239(3) -0.88478(17) 0.47666(13)
H19B H -0.6513 -0.8982 0.4699
H20B H -0.4540 -0.8877 0.4529
O2 O 0.1178(5) 0.0061(2) 0.4326(2)
H1 H 0.1588 -0.0575 0.4294
H2 H 0.0410 0.0099 0.4099
O3 O 0.7009(7) -0.9739(4) 0.3536(2)
H3 H 0.6166 -1.0177 0.3335
H4 H 0.8053 -0.9634 0.3258
loop_
_geom_bond_atom_site_label_1
_geom_bond_atom_site_label_2
_geom_bond_site_symmetry_1
_geom_bond_site_symmetry_2
O1 P2 1_555 1_555
O2 H1 1_555 1_555
H2 O2 1_555 1_555
O3 H3 1_555 1_555
H4 O3 1_555 1_555
Cu1 O4 1_555 1_555
Cu2 O5 1_555 1_555
P1 O7 1_555 1_555
P2 O4 1_555 1_555
O5 H5 1_555 1_555
O6 Cu2 1_555 1_555
O7 Cu1 1_555 1_555
O8 Cu2 1_555 1_555
O9 Cu1 1_555 1_555
H6 O9 1_555 1_555
H7 O9 1_555 1_555
O10 P1 1_555 1_555
C1 P1 1_555 1_555
C2 C1 1_555 1_555
H8 C2 1_555 1_555
N1 H9 1_555 1_555
H10 N1 1_555 1_555
C3 C2 1_555 1_555
H11 C3 1_555 1_555
H12 C3 1_555 1_555
C4 N1 1_555 1_555
H13 C4 1_555 1_555
H14 C4 1_555 1_555
C5 N1 1_555 1_555
H15 C5 1_555 1_555
H16 C5 1_555 1_555
C6 C2 1_555 1_555
H17 C6 1_555 1_555
H18 C6 1_555 1_555
O11 Cu1 1_555 1_555
H19 O11 1_555 1_555
H20 O11 1_555 1_555
O1B Cu1B 1_555 1_555
O1_2 Cu1 1_555 1_555
O1B_2 Cu1B_2 1_555 1_555
Cu1_2 O1 1_555 1_555
Cu1B_2 O4B 1_555 1_555
P1B O7B 1_555 1_555
P2B O1B 1_555 1_555
O4B P2B 1_555 1_555
O5B Cu2 1_555 1_555
H5B O5B 1_555 1_555
O6B Cu2 1_555 1_555
O7B Cu1B_2 1_555 1_555
O8B Cu2 1_555 1_555
O9B Cu1B_2 1_555 1_555
H6B O9B 1_555 1_555
H7B O9B 1_555 1_555
O10B P1B 1_555 1_555
C1B P1B 1_555 1_555
C2B C1B 1_555 1_555
H8B C2B 1_555 1_555
N1B H9B 1_555 1_555
H10B N1B 1_555 1_555
C3B C2B 1_555 1_555
H11B C3B 1_555 1_555
H12B C3B 1_555 1_555
C4B N1B 1_555 1_555
H13B C4B 1_555 1_555
H14B C4B 1_555 1_555
C5B N1B 1_555 1_555
H15B C5B 1_555 1_555
H16B C5B 1_555 1_555
C6B C2B 1_555 1_555
H17B C6B 1_555 1_555
H18B C6B 1_555 1_555
O11B Cu1B_2 1_555 1_555
H19B O11B 1_555 1_555
H20B O11B 1_555 1_555
P1 O8 1_555 1_555
P2 O6 1_555 1_555
P2 C1 1_555 1_555
O5 C1 1_555 1_555
C3 C4 1_555 1_555
C5 C6 1_555 1_555
P1B O8B 1_555 1_555
P2B O6B 1_555 1_555
P2B C1B 1_555 1_555
O5B C1B 1_555 1_555
C3B C4B 1_555 1_555
C5B C6B 1_555 1_555

#END
