
#######################################################################
#
#                 Cambridge Crystallographic Data Centre
#                                CCDC 
#
#######################################################################
#
# If this CIF has been generated from an entry in the Cambridge 
# Structural Database, then it will include bibliographic, chemical, 
# crystal, experimental, refinement or atomic coordinate data resulting 
# from the CCDC's data processing and validation procedures.
#
#######################################################################

data_TAGWAB
_symmetry_cell_setting           triclinic
_symmetry_space_group_name_H-M   'P -1'
_symmetry_Int_Tables_number      2
_space_group_name_Hall           '-P 1'
loop_
_symmetry_equiv_pos_site_id
_symmetry_equiv_pos_as_xyz
1 x,y,z
2 -x,-y,-z
_cell_length_a                   5.6932(11)
_cell_length_b                   10.537(2)
_cell_length_c                   12.898(3)
_cell_angle_alpha                66.23(3)
_cell_angle_beta                 78.72(3)
_cell_angle_gamma                83.80(3)
_cell_volume                     694.06
loop_
_atom_site_label
_atom_site_type_symbol
_atom_site_fract_x
_atom_site_fract_y
_atom_site_fract_z
Cd1 Cd -0.29851(3) 0.864863(16) -0.024180(14)
P1 P 0.14994(10) 0.78646(6) 0.13495(5)
P2 P 0.27647(9) 0.73931(6) -0.08958(5)
O1 O -0.1120(3) 0.81782(17) 0.12653(14)
O2 O 0.1723(3) 0.71202(18) 0.26458(14)
H1 H 0.284(6) 0.729(3) 0.274(3)
O3 O 0.3199(3) 0.90553(16) 0.07799(14)
O4 O 0.0268(3) 0.79565(18) -0.11440(14)
O5 O 0.3566(3) 0.62139(16) -0.12946(13)
O6 O 0.4643(3) 0.84973(17) -0.13718(14)
O7 O 0.5117(3) 0.63382(17) 0.08939(14)
H2 H 0.570(5) 0.544(3) 0.098(2)
N1 N 0.2705(4) 0.3683(2) 0.29105(17)
H9 H 0.409(5) 0.364(3) 0.244(3)
C1 C 0.0867(4) 0.4518(2) 0.2468(2)
C2 C -0.1180(4) 0.4607(3) 0.3217(2)
H10 H -0.2491 0.5153 0.2934
C3 C -0.1278(5) 0.3885(3) 0.4384(2)
H11 H -0.2646 0.3952 0.4891
C4 C 0.0669(6) 0.3059(3) 0.4800(2)
H12 H 0.0626 0.2572 0.5586
C5 C 0.2648(5) 0.2971(3) 0.4040(2)
H13 H 0.3963 0.2414 0.4306
C6 C 0.2652(4) 0.6618(2) 0.06894(18)
C7 C 0.1174(4) 0.5297(2) 0.11897(19)
H14 H -0.0403 0.5554 0.0975
H15 H 0.1933 0.4672 0.0830
Cd1_2 Cd 0.70149(3) 0.864863(16) -0.024180(14)
Cd1A Cd 0.29851(3) 1.135137(16) 0.024180(14)
O3_2 O -0.6801(3) 0.90553(16) 0.07799(14)
O3A O -0.3199(3) 1.09447(16) -0.07799(14)
O6_2 O -0.5357(3) 0.84973(17) -0.13718(14)
O7_2 O -0.4883(3) 0.63382(17) 0.08939(14)
H2_2 H -0.430(5) 0.544(3) 0.098(2)
O8 O 0.5484(4) 0.7553(3) 0.32391(18)
H3 H 0.658(7) 0.782(4) 0.263(3)
H4 H 0.513(6) 0.826(4) 0.336(3)
O9 O 0.0655(7) 0.9291(4) 0.6399(3)
H5 H 0.216(11) 0.956(6) 0.611(5)
H6 H 0.057(9) 0.892(5) 0.718(5)
O10 O 0.5704(6) 1.0092(3) 0.6346(2)
H7 H 0.707(9) 1.013(5) 0.617(4)
H8 H 0.552(8) 0.952(5) 0.705(4)
loop_
_geom_bond_atom_site_label_1
_geom_bond_atom_site_label_2
_geom_bond_site_symmetry_1
_geom_bond_site_symmetry_2
Cd1 O1 1_555 1_555
P1 O1 1_555 1_555
P2 O4 1_555 1_555
O2 P1 1_555 1_555
H1 O2 1_555 1_555
O3 P1 1_555 1_555
O4 Cd1 1_555 1_555
O5 P2 1_555 1_555
O6 P2 1_555 1_555
O7 H2 1_555 1_555
O8 H3 1_555 1_555
H4 O8 1_555 1_555
O9 H5 1_555 1_555
H6 O9 1_555 1_555
O10 H7 1_555 1_555
H8 O10 1_555 1_555
N1 H9 1_555 1_555
C1 N1 1_555 1_555
C2 C1 1_555 1_555
H10 C2 1_555 1_555
C3 C2 1_555 1_555
H11 C3 1_555 1_555
C4 C3 1_555 1_555
H12 C4 1_555 1_555
C5 N1 1_555 1_555
H13 C5 1_555 1_555
C6 P1 1_555 1_555
C7 C1 1_555 1_555
H14 C7 1_555 1_555
H15 C7 1_555 1_555
Cd1_2 O3 1_555 1_555
Cd1A O3 1_555 1_555
O3_2 Cd1 1_555 1_555
O3A Cd1 1_555 1_555
O6_2 Cd1 1_555 1_555
O7_2 Cd1 1_555 1_555
H2_2 O7_2 1_555 1_555
P2 C6 1_555 1_555
O6 Cd1_2 1_555 1_555
O7 C6 1_555 1_555
O7 Cd1_2 1_555 1_555
C4 C5 1_555 1_555
C6 C7 1_555 1_555

#END
