
#######################################################################
#
#                 Cambridge Crystallographic Data Centre
#                                CCDC 
#
#######################################################################
#
# If this CIF has been generated from an entry in the Cambridge 
# Structural Database, then it will include bibliographic, chemical, 
# crystal, experimental, refinement or atomic coordinate data resulting 
# from the CCDC's data processing and validation procedures.
#
#######################################################################

data_TAGXAB
_symmetry_cell_setting           triclinic
_symmetry_space_group_name_H-M   'P -1'
_symmetry_Int_Tables_number      2
_space_group_name_Hall           '-P 1'
loop_
_symmetry_equiv_pos_site_id
_symmetry_equiv_pos_as_xyz
1 x,y,z
2 -x,-y,-z
_cell_length_a                   6.9599(8)
_cell_length_b                   10.9174(11)
_cell_length_c                   11.2349(12)
_cell_angle_alpha                108.533(13)
_cell_angle_beta                 101.440(13)
_cell_angle_gamma                106.686(12)
_cell_volume                     734.847
loop_
_atom_site_label
_atom_site_type_symbol
_atom_site_fract_x
_atom_site_fract_y
_atom_site_fract_z
Fe1 Fe 0.78089(3) 1.08003(2) 0.27970(2)
O1 O 0.73646(18) 0.91473(13) 0.35718(12)
O2 O 0.51369(19) 0.90889(13) 0.11912(13)
O3 O 0.2911(2) 0.44514(13) 0.08591(14)
N1 N 0.9462(2) 0.78317(16) 0.55566(16)
N2 N 0.4871(3) 0.37138(18) 0.34777(17)
N3 N 0.2075(2) 0.77549(17) -0.19167(16)
N4 N -0.0171(2) 0.35538(17) -0.22127(17)
C1 C 0.6054(2) 0.80225(18) 0.26475(17)
C2 C 0.4899(2) 0.80124(18) 0.13975(17)
C3 C 0.3542(2) 0.65837(18) 0.05484(17)
C4 C 0.3826(2) 0.57248(18) 0.12819(17)
C5 C 0.5409(2) 0.66357(18) 0.25840(17)
C6 C 0.6174(2) 0.62038(18) 0.35489(17)
C7 C 0.7970(3) 0.71287(19) 0.46691(18)
C8 C 0.5386(3) 0.48069(19) 0.34564(17)
C9 C 0.2246(2) 0.61119(18) -0.07338(17)
C10 C 0.2162(2) 0.70359(19) -0.13677(18)
C11 C 0.0921(2) 0.46720(19) -0.15162(17)
O4 O 0.5798(2) 1.14280(17) 0.37749(15)
H1 H 0.546(4) 1.201(3) 0.368(3)
H2 H 0.482(5) 1.086(3) 0.377(3)
O5 O 0.9842(2) 1.00792(16) 0.19005(16)
H3 H 0.937(4) 0.954(3) 0.123(3)
H4 H 1.063(5) 0.990(3) 0.237(3)
N1A N 1.0538(2) 1.21683(16) 0.44434(16)
N3A N 0.7925(2) 1.22451(17) 0.19167(16)
Fe1A Fe 1.21911(3) 0.91997(2) 0.72030(2)
Fe1A_2 Fe 0.21911(3) 0.91997(2) -0.27970(2)
O6 O 0.7722(2) 1.05536(16) 0.63080(15)
H5 H 0.815(4) 1.139(3) 0.653(3)
H6 H 0.773(5) 1.020(4) 0.550(4)
O7 O 0.1790(4) -0.8294(2) 0.05401(19)
H7 H 0.216(5) -0.748(4) 0.074(4)
H8 H 0.156(8) -0.840(6) 0.119(6)
loop_
_geom_bond_atom_site_label_1
_geom_bond_atom_site_label_2
_geom_bond_site_symmetry_1
_geom_bond_site_symmetry_2
Fe1 O1 1_555 1_555
O1 C1 1_555 1_555
O2 Fe1 1_555 1_555
O3 C4 1_555 1_555
N1 C7 1_555 1_555
N2 C8 1_555 1_555
N3 C10 1_555 1_555
N4 C11 1_555 1_555
C1 C2 1_555 1_555
C2 O2 1_555 1_555
C3 C2 1_555 1_555
C4 C3 1_555 1_555
C5 C1 1_555 1_555
C6 C5 1_555 1_555
C7 C6 1_555 1_555
C8 C6 1_555 1_555
C9 C3 1_555 1_555
C10 C9 1_555 1_555
C11 C9 1_555 1_555
O4 Fe1 1_555 1_555
H1 O4 1_555 1_555
H2 O4 1_555 1_555
O5 Fe1 1_555 1_555
H3 O5 1_555 1_555
H4 O5 1_555 1_555
O6 H5 1_555 1_555
H6 O6 1_555 1_555
O7 H7 1_555 1_555
H8 O7 1_555 1_555
N1A Fe1 1_555 1_555
N3A Fe1 1_555 1_555
Fe1A N1 1_555 1_555
Fe1A_2 N3 1_555 1_555
C4 C5 1_555 1_555

#END
