
#######################################################################
#
#                 Cambridge Crystallographic Data Centre
#                                CCDC 
#
#######################################################################
#
# If this CIF has been generated from an entry in the Cambridge 
# Structural Database, then it will include bibliographic, chemical, 
# crystal, experimental, refinement or atomic coordinate data resulting 
# from the CCDC's data processing and validation procedures.
#
#######################################################################

data_TAGZAE
_symmetry_cell_setting           orthorhombic
_symmetry_space_group_name_H-M   'C c c m'
_symmetry_Int_Tables_number      66
_space_group_name_Hall           '-C 2 2n'
loop_
_symmetry_equiv_pos_site_id
_symmetry_equiv_pos_as_xyz
1 x,y,z
2 -x,-y,z
3 -x,y,1/2-z
4 x,-y,1/2-z
5 1/2+x,1/2+y,z
6 1/2-x,1/2-y,z
7 1/2-x,1/2+y,1/2-z
8 1/2+x,1/2-y,1/2-z
9 -x,-y,-z
10 x,y,-z
11 x,-y,1/2+z
12 -x,y,1/2+z
13 1/2-x,1/2-y,-z
14 1/2+x,1/2+y,-z
15 1/2+x,1/2-y,1/2+z
16 1/2-x,1/2+y,1/2+z
_cell_length_a                   17.965(4)
_cell_length_b                   22.164(4)
_cell_length_c                   22.225(4)
_cell_angle_alpha                90
_cell_angle_beta                 90
_cell_angle_gamma                90
_cell_volume                     8849.47
loop_
_atom_site_label
_atom_site_type_symbol
_atom_site_fract_x
_atom_site_fract_y
_atom_site_fract_z
Cu1 Cu 0.0000 0.5000 0.7500
Cu2 Cu 0.0000 0.0000 0.7500
N1 N 0.0000 0.4082(10) 0.7500
C1 C 0.0618(14) 0.3778(8) 0.7564(8)
H1 H 0.1056 0.3997 0.7608
C2 C 0.0671(11) 0.3155(8) 0.7571(8)
H2 H 0.1128 0.2964 0.7619
C3 C 0.0000 0.2815(9) 0.7500
C4 C 0.0000 0.2168(11) 0.7500
C5 C 0.0518(14) 0.1837(8) 0.7151(14)
H3 H 0.0884 0.2036 0.6932
C6 C 0.0472(14) 0.1224(11) 0.7141(12)
H4 H 0.0778 0.1015 0.6875
N2 N 0.0000 0.0899(12) 0.7500
N3 N 0.0000 0.5000 0.6587(10)
C7 C 0.054(2) 0.4815(16) 0.6279(10)
H5 H 0.0940 0.4654 0.6494
C8 C 0.0622(18) 0.4821(14) 0.5646(10)
H6 H 0.1061 0.4713 0.5452
C9 C 0.0000 0.5000 0.5345(11)
N4 N 0.0000 0.0000 0.6572(18)
C10 C -0.0551(15) 0.0274(13) 0.630(2)
H7 H -0.0914 0.0481 0.6520
C11 C -0.0571(19) 0.0239(17) 0.564(2)
H8 H -0.0987 0.0385 0.5439
C12 C 0.0000 0.0000 0.532(2)
O16 O -0.1372(14) 0.0000 0.7500
O17 O 0.1550(17) 0.5000 0.7500
Cu1H Cu 0.0000 0.5000 0.2500
Cu2H Cu 0.0000 0.0000 0.2500
Cu2_2 Cu 0.0000 1.0000 0.7500
N1A N 0.0000 0.5918(10) 0.7500
C1B C -0.0618(14) 0.3778(8) 0.7436(8)
C1A C -0.0618(14) 0.6222(8) 0.7564(8)
C1C C 0.0618(14) 0.6222(8) 0.7436(8)
H1B H -0.1056 0.3997 0.7392
H1A H -0.1056 0.6003 0.7608
H1C H 0.1056 0.6003 0.7392
C2B C -0.0671(11) 0.3155(8) 0.7429(8)
C2A C -0.0671(11) 0.6845(8) 0.7571(8)
C2C C 0.0671(11) 0.6845(8) 0.7429(8)
H2B H -0.1128 0.2964 0.7381
H2A H -0.1128 0.7036 0.7619
H2C H 0.1128 0.7036 0.7381
C3A C 0.0000 0.7185(9) 0.7500
C4A C 0.0000 0.7832(11) 0.7500
C5B C -0.0518(14) 0.1837(8) 0.7849(14)
C5A C -0.0518(14) 0.8163(8) 0.7151(14)
C5C C 0.0518(14) 0.8163(8) 0.7849(14)
H3B H -0.0884 0.2036 0.8068
H3A H -0.0884 0.7964 0.6932
H3C H 0.0884 0.7964 0.8068
C6B C -0.0472(14) 0.1224(11) 0.7859(12)
C6A C -0.0472(14) 0.8776(11) 0.7141(12)
C6C C 0.0472(14) 0.8776(11) 0.7859(12)
H4B H -0.0778 0.1015 0.8125
H4A H -0.0778 0.8985 0.6875
H4C H 0.0778 0.8985 0.8125
N2A N 0.0000 0.9101(12) 0.7500
N2A_2 N 0.0000 -0.0899(12) 0.7500
N3H N 0.0000 0.5000 0.3413(10)
N3B N 0.0000 0.5000 0.8413(10)
C7A C -0.054(2) 0.5185(16) 0.6279(10)
C7H C -0.054(2) 0.5185(16) 0.3721(10)
C7I C 0.054(2) 0.4815(16) 0.3721(10)
H5A H -0.0940 0.5346 0.6494
H5I H 0.0940 0.4654 0.3506
H5H H -0.0940 0.5346 0.3506
C8A C -0.0622(18) 0.5179(14) 0.5646(10)
C8H C -0.0622(18) 0.5179(14) 0.4354(10)
C8I C 0.0622(18) 0.4821(14) 0.4354(10)
H6A H -0.1061 0.5287 0.5452
H6I H 0.1061 0.4713 0.4548
H6H H -0.1061 0.5287 0.4548
C9H C 0.0000 0.5000 0.4655(11)
N4H N 0.0000 0.0000 0.3428(18)
N4B N 0.0000 0.0000 0.8428(18)
C10A C 0.0551(15) -0.0274(13) 0.630(2)
C10H C 0.0551(15) -0.0274(13) 0.370(2)
C10I C -0.0551(15) 0.0274(13) 0.370(2)
H7A H 0.0914 -0.0481 0.6520
H7I H -0.0914 0.0481 0.3480
H7H H 0.0914 -0.0481 0.3480
C11A C 0.0571(19) -0.0239(17) 0.564(2)
C11H C 0.0571(19) -0.0239(17) 0.436(2)
C11I C -0.0571(19) 0.0239(17) 0.436(2)
H8A H 0.0987 -0.0385 0.5439
H8I H -0.0987 0.0385 0.4561
H8H H 0.0987 -0.0385 0.4561
C12H C 0.0000 0.0000 0.468(2)
O16A O 0.1372(14) 0.0000 0.7500
O17A O -0.1550(17) 0.5000 0.7500
W1 W 0.40131(5) 0.18534(4) 0.57888(4)
W2 W 0.42603(8) 0.32261(6) 0.5000
W3 W 0.27484(6) 0.38690(5) 0.57969(7)
W4 W 0.2500 0.2500 0.34165(6)
P1 P 0.2500 0.2500 0.5000
O1 O 0.286(2) 0.1900(9) 0.5000
O2 O 0.2500 0.2500 0.4269(4)
O3 O 0.3330(6) 0.244(2) 0.5000
O4 O 0.293(2) 0.3074(12) 0.5000
O5 O 0.3722(10) 0.3668(14) 0.5576(12)
O6 O 0.2624(19) 0.4080(17) 0.5000
O7 O 0.3302(13) 0.1241(10) 0.5794(10)
O8 O 0.3473(9) 0.2249(10) 0.6397(10)
O9 O 0.5128(13) 0.3552(12) 0.5000
O10 O 0.4739(9) 0.1521(9) 0.6152(8)
O11 O 0.2500 0.2500 0.2614(16)
O12 O 0.2845(14) 0.4552(13) 0.6188(19)
O13 O 0.4413(19) 0.2609(8) 0.5594(7)
O14 O 0.425(3) 0.1645(11) 0.5000
O15 O 0.2805(10) 0.3278(12) 0.6441(12)
W1E W 0.09869(5) 0.31466(4) 0.57888(4)
W1I W 0.40131(5) 0.18534(4) 0.42112(4)
W1L W 0.09869(5) 0.31466(4) 0.42112(4)
W2E W 0.07397(8) 0.17739(6) 0.5000
W3E W 0.22516(6) 0.11310(5) 0.57969(7)
W3I W 0.27484(6) 0.38690(5) 0.42031(7)
W3L W 0.22516(6) 0.11310(5) 0.42031(7)
W4I W 0.2500 0.2500 0.65835(6)
O1E O 0.214(2) 0.3100(9) 0.5000
O2I O 0.2500 0.2500 0.5731(4)
O3E O 0.1670(6) 0.256(2) 0.5000
O4E O 0.207(2) 0.1926(12) 0.5000
O5I O 0.3722(10) 0.3668(14) 0.4424(12)
O5E O 0.1278(10) 0.1332(14) 0.5576(12)
O5L O 0.1278(10) 0.1332(14) 0.4424(12)
O6E O 0.2376(19) 0.0920(17) 0.5000
O7E O 0.1698(13) 0.3759(10) 0.5794(10)
O7I O 0.3302(13) 0.1241(10) 0.4206(10)
O7L O 0.1698(13) 0.3759(10) 0.4206(10)
O8I O 0.3473(9) 0.2249(10) 0.3603(10)
O8L O 0.1527(9) 0.2751(10) 0.3603(10)
O8E O 0.1527(9) 0.2751(10) 0.6397(10)
O9E O -0.0128(13) 0.1448(12) 0.5000
O10E O 0.0261(9) 0.3479(9) 0.6152(8)
O10I O 0.4739(9) 0.1521(9) 0.3848(8)
O10L O 0.0261(9) 0.3479(9) 0.3848(8)
O11I O 0.2500 0.2500 0.7386(16)
O12E O 0.2155(14) 0.0448(13) 0.6188(19)
O12I O 0.2845(14) 0.4552(13) 0.3812(19)
O12L O 0.2155(14) 0.0448(13) 0.3812(19)
O13I O 0.4413(19) 0.2609(8) 0.4406(7)
O13E O 0.0587(19) 0.2391(8) 0.5594(7)
O13L O 0.0587(19) 0.2391(8) 0.4406(7)
O14E O 0.075(3) 0.3355(11) 0.5000
O15L O 0.2195(10) 0.1722(12) 0.3559(12)
O15I O 0.2805(10) 0.3278(12) 0.3559(12)
O15E O 0.2195(10) 0.1722(12) 0.6441(12)
loop_
_geom_bond_atom_site_label_1
_geom_bond_atom_site_label_2
_geom_bond_site_symmetry_1
_geom_bond_site_symmetry_2
W1 O3 1_555 1_555
W2 O3 1_555 1_555
W3 O4 1_555 1_555
W4 O2 1_555 1_555
P1 O1 1_555 1_555
O1 O3 1_555 1_555
O2 P1 1_555 1_555
O3 P1 1_555 1_555
O4 W2 1_555 1_555
O5 W2 1_555 1_555
O6 W3 1_555 1_555
O7 W1 1_555 1_555
O8 W1 1_555 1_555
O9 W2 1_555 1_555
O10 W1 1_555 1_555
O11 W4 1_555 1_555
O12 W3 1_555 1_555
O13 W1 1_555 1_555
O14 W1 1_555 1_555
O15 W3 1_555 1_555
Cu1 N1 1_555 1_555
Cu2 N2 1_555 1_555
N1 C1 1_555 1_555
C1 H1 1_555 1_555
C2 C1 1_555 1_555
H2 C2 1_555 1_555
C3 C2 1_555 1_555
C4 C3 1_555 1_555
C5 C4 1_555 1_555
H3 C5 1_555 1_555
C6 C5 1_555 1_555
H4 C6 1_555 1_555
N2 C6 1_555 1_555
N3 Cu1 1_555 1_555
C7 N3 1_555 1_555
H5 C7 1_555 1_555
C8 C7 1_555 1_555
H6 C8 1_555 1_555
C9 C8 1_555 1_555
N4 Cu2 1_555 1_555
C10 N4 1_555 1_555
H7 C10 1_555 1_555
C11 C10 1_555 1_555
H8 C11 1_555 1_555
C12 C11 1_555 1_555
O16 Cu2 1_555 1_555
O17 Cu1 1_555 1_555
W1E O3E 1_555 1_555
W1I O3 1_555 1_555
W1L O3E 1_555 1_555
W2E O3E 1_555 1_555
W3E O7 1_555 1_555
W3I O4 1_555 1_555
W3L O4E 1_555 1_555
W4I O8 1_555 1_555
O1E P1 1_555 1_555
O2I P1 1_555 1_555
O3E P1 1_555 1_555
O4E P1 1_555 1_555
O5I W2 1_555 1_555
O5E W2E 1_555 1_555
O5L W2E 1_555 1_555
O6E W3E 1_555 1_555
O7E W3 1_555 1_555
O7I W1I 1_555 1_555
O7L W1L 1_555 1_555
O8I W4 1_555 1_555
O8L W4 1_555 1_555
O8E W1E 1_555 1_555
O9E W2E 1_555 1_555
O10E W1E 1_555 1_555
O10I W1I 1_555 1_555
O10L W1L 1_555 1_555
O11I W4I 1_555 1_555
O12E W3E 1_555 1_555
O12I W3I 1_555 1_555
O12L W3L 1_555 1_555
O13I W2 1_555 1_555
O13E W1E 1_555 1_555
O13L W1L 1_555 1_555
O14E W1E 1_555 1_555
O15L W4 1_555 1_555
O15I W4 1_555 1_555
O15E W3E 1_555 1_555
Cu1H N3H 1_555 1_555
Cu2H N4H 1_555 1_555
Cu2_2 N2A 1_555 1_555
N1A Cu1 1_555 1_555
C1B N1 1_555 1_555
C1A N1A 1_555 1_555
C1C N1A 1_555 1_555
H1B C1B 1_555 1_555
H1A C1A 1_555 1_555
H1C C1C 1_555 1_555
C2B C3 1_555 1_555
C2A C1A 1_555 1_555
C2C C1C 1_555 1_555
H2B C2B 1_555 1_555
H2A C2A 1_555 1_555
H2C C2C 1_555 1_555
C3A C2A 1_555 1_555
C4A C3A 1_555 1_555
C5B C4 1_555 1_555
C5A C4A 1_555 1_555
C5C C4A 1_555 1_555
H3B C5B 1_555 1_555
H3A C5A 1_555 1_555
H3C C5C 1_555 1_555
C6B N2 1_555 1_555
C6A C5A 1_555 1_555
C6C C5C 1_555 1_555
H4B C6B 1_555 1_555
H4A C6A 1_555 1_555
H4C C6C 1_555 1_555
N2A C6A 1_555 1_555
N2A_2 Cu2 1_555 1_555
N3H C7H 1_555 1_555
N3B Cu1 1_555 1_555
C7A N3 1_555 1_555
C7H H5H 1_555 1_555
C7I N3H 1_555 1_555
H5A C7A 1_555 1_555
H5I C7I 1_555 1_555
C8A C9 1_555 1_555
C8H C7H 1_555 1_555
C8I C7I 1_555 1_555
H6A C8A 1_555 1_555
H6I C8I 1_555 1_555
H6H C8H 1_555 1_555
C9H C9 1_555 1_555
N4H C10H 1_555 1_555
N4B Cu2 1_555 1_555
C10A N4 1_555 1_555
C10H H7H 1_555 1_555
C10I N4H 1_555 1_555
H7A C10A 1_555 1_555
H7I C10I 1_555 1_555
C11A C12 1_555 1_555
C11H C10H 1_555 1_555
C11I C10I 1_555 1_555
H8A C11A 1_555 1_555
H8I C11I 1_555 1_555
H8H C11H 1_555 1_555
C12H C12 1_555 1_555
O16A Cu2 1_555 1_555
O17A Cu1 1_555 1_555
W2 O13 1_555 1_555
W3 O5 1_555 1_555
P1 O4 1_555 1_555
O1 O4E 1_555 1_555
O3 O4 1_555 1_555
O4 O1E 1_555 1_555
O6 W3I 1_555 1_555
O14 W1I 1_555 1_555
O15 W4I 1_555 1_555
W1E O7E 1_555 1_555
W1I O8I 1_555 1_555
W1I O13I 1_555 1_555
W1L O8L 1_555 1_555
W1L O14E 1_555 1_555
W2E O4E 1_555 1_555
W2E O13E 1_555 1_555
W2E O13L 1_555 1_555
W3E O4E 1_555 1_555
W3E O5E 1_555 1_555
W3I O5I 1_555 1_555
W3I O7L 1_555 1_555
W3I O15I 1_555 1_555
W3L O5L 1_555 1_555
W3L O6E 1_555 1_555
W3L O7I 1_555 1_555
W3L O15L 1_555 1_555
W4I O2I 1_555 1_555
W4I O8E 1_555 1_555
W4I O15E 1_555 1_555
O1E O3E 1_555 1_555
O3E O4E 1_555 1_555
C1B C2B 1_555 1_555
C2C C3A 1_555 1_555
C5B C6B 1_555 1_555
C6C N2A 1_555 1_555
C7A C8A 1_555 1_555
C8H C9H 1_555 1_555
C8I C9H 1_555 1_555
C10A C11A 1_555 1_555
C11H C12H 1_555 1_555
C11I C12H 1_555 1_555

#END
