
#######################################################################
#
#                 Cambridge Crystallographic Data Centre
#                                CCDC 
#
#######################################################################
#
# If this CIF has been generated from an entry in the Cambridge 
# Structural Database, then it will include bibliographic, chemical, 
# crystal, experimental, refinement or atomic coordinate data resulting 
# from the CCDC's data processing and validation procedures.
#
#######################################################################

data_TAGZEI
_symmetry_cell_setting           orthorhombic
_symmetry_space_group_name_H-M   'C c c m'
_symmetry_Int_Tables_number      66
_space_group_name_Hall           '-C 2 2n'
loop_
_symmetry_equiv_pos_site_id
_symmetry_equiv_pos_as_xyz
1 x,y,z
2 -x,-y,z
3 -x,y,1/2-z
4 x,-y,1/2-z
5 1/2+x,1/2+y,z
6 1/2-x,1/2-y,z
7 1/2-x,1/2+y,1/2-z
8 1/2+x,1/2-y,1/2-z
9 -x,-y,-z
10 x,y,-z
11 x,-y,1/2+z
12 -x,y,1/2+z
13 1/2-x,1/2-y,-z
14 1/2+x,1/2+y,-z
15 1/2+x,1/2-y,1/2+z
16 1/2-x,1/2+y,1/2+z
_cell_length_a                   17.847(4)
_cell_length_b                   22.178(4)
_cell_length_c                   22.284(5)
_cell_angle_alpha                90
_cell_angle_beta                 90
_cell_angle_gamma                90
_cell_volume                     8820.25
loop_
_atom_site_label
_atom_site_type_symbol
_atom_site_fract_x
_atom_site_fract_y
_atom_site_fract_z
Cu1 Cu 0.0000 0.0000 -0.2500
Cu2 Cu 0.0000 0.5000 -0.2500
N1 N 0.0000 0.0910(5) -0.2500
C1 C -0.0461(6) 0.1240(5) -0.2868(5)
H1 H -0.0792 0.1028 -0.3128
C2 C -0.0471(6) 0.1839(4) -0.2882(5)
H2 H -0.0795 0.2047 -0.3150
C3 C 0.0000 0.2157(6) -0.2500
C4 C 0.0000 0.2845(6) -0.2500
C5 C -0.0621(6) 0.3165(5) -0.2388(4)
H3 H -0.1079 0.2961 -0.2310
C6 C -0.0607(6) 0.3778(5) -0.2386(5)
H4 H -0.1052 0.3995 -0.2297
N2 N 0.0000 0.4071(5) -0.2500
N3 N 0.0000 0.0000 -0.1595(5)
C7 C -0.0540(7) 0.0260(6) -0.1264(5)
H5 H -0.0941 0.0442 -0.1477
C8 C -0.0570(7) 0.0288(6) -0.0668(5)
H6 H -0.0968 0.0498 -0.0479
C9 C 0.0000 0.0000 -0.0308(7)
N4 N 0.0000 0.5000 -0.1593(6)
C10 C 0.0611(9) 0.4918(6) -0.1291(6)
H7 H 0.1065 0.4864 -0.1506
C11 C 0.0637(8) 0.4906(6) -0.0645(5)
H8 H 0.1098 0.4833 -0.0444
C12 C 0.0000 0.5000 -0.0324(7)
O15 O 0.1400(6) 0.0000 -0.2500
O16 O -0.1587(7) 0.5000 -0.2500
Cu1H Cu 0.0000 0.0000 0.2500
Cu2H Cu 0.0000 0.5000 0.2500
Cu2_2 Cu 0.0000 -0.5000 -0.2500
N1A N 0.0000 -0.0910(5) -0.2500
C1B C 0.0461(6) 0.1240(5) -0.2132(5)
C1A C 0.0461(6) -0.1240(5) -0.2868(5)
C1C C -0.0461(6) -0.1240(5) -0.2132(5)
H1B H 0.0792 0.1028 -0.1872
H1A H 0.0792 -0.1028 -0.3128
H1C H -0.0792 -0.1028 -0.1872
C2B C 0.0471(6) 0.1839(4) -0.2118(5)
C2A C 0.0471(6) -0.1839(4) -0.2882(5)
C2C C -0.0471(6) -0.1839(4) -0.2118(5)
H2B H 0.0795 0.2047 -0.1850
H2A H 0.0795 -0.2047 -0.3150
H2C H -0.0795 -0.2047 -0.1850
C3A C 0.0000 -0.2157(6) -0.2500
C4A C 0.0000 -0.2845(6) -0.2500
C5B C 0.0621(6) 0.3165(5) -0.2612(4)
C5A C 0.0621(6) -0.3165(5) -0.2388(4)
C5C C -0.0621(6) -0.3165(5) -0.2612(4)
H3B H 0.1079 0.2961 -0.2690
H3A H 0.1079 -0.2961 -0.2310
H3C H -0.1079 -0.2961 -0.2690
C6B C 0.0607(6) 0.3778(5) -0.2614(5)
C6A C 0.0607(6) -0.3778(5) -0.2386(5)
C6C C -0.0607(6) -0.3778(5) -0.2614(5)
H4B H 0.1052 0.3995 -0.2703
H4A H 0.1052 -0.3995 -0.2297
H4C H -0.1052 -0.3995 -0.2703
N2A N 0.0000 -0.4071(5) -0.2500
N2A_2 N 0.0000 0.5929(5) -0.2500
N3H N 0.0000 0.0000 0.1595(5)
N3B N 0.0000 0.0000 -0.3405(5)
C7A C 0.0540(7) -0.0260(6) -0.1264(5)
C7H C 0.0540(7) -0.0260(6) 0.1264(5)
C7I C -0.0540(7) 0.0260(6) 0.1264(5)
H5A H 0.0941 -0.0442 -0.1477
H5I H -0.0941 0.0442 0.1477
H5H H 0.0941 -0.0442 0.1477
C8A C 0.0570(7) -0.0288(6) -0.0668(5)
C8H C 0.0570(7) -0.0288(6) 0.0668(5)
C8I C -0.0570(7) 0.0288(6) 0.0668(5)
H6A H 0.0968 -0.0498 -0.0479
H6I H -0.0968 0.0498 0.0479
H6H H 0.0968 -0.0498 0.0479
C9H C 0.0000 0.0000 0.0308(7)
N4H N 0.0000 0.5000 0.1593(6)
N4B N 0.0000 0.5000 -0.3407(6)
C10A C -0.0611(9) 0.5082(6) -0.1291(6)
C10H C -0.0611(9) 0.5082(6) 0.1291(6)
C10I C 0.0611(9) 0.4918(6) 0.1291(6)
H7A H -0.1065 0.5136 -0.1506
H7I H 0.1065 0.4864 0.1506
H7H H -0.1065 0.5136 0.1506
C11A C -0.0637(8) 0.5094(6) -0.0645(5)
C11H C -0.0637(8) 0.5094(6) 0.0645(5)
C11I C 0.0637(8) 0.4906(6) 0.0645(5)
H8A H -0.1098 0.5167 -0.0444
H8I H 0.1098 0.4833 0.0444
H8H H -0.1098 0.5167 0.0444
C12H C 0.0000 0.5000 0.0324(7)
O15A O -0.1400(6) 0.0000 -0.2500
O16A O 0.1587(7) 0.5000 -0.2500
Mo1 Mo 0.2500 0.2500 -0.15734(6)
Mo2 Mo 0.07150(12) 0.18157(9) 0.0000
Mo3 Mo 0.22021(8) 0.11375(5) -0.07886(6)
Mo4 Mo 0.10077(8) 0.31841(6) -0.07854(5)
P1 P 0.2500 0.2500 0.0000
O1 O 0.2660(7) 0.2184(5) -0.0587(4)
O2 O 0.1633(5) 0.2630(7) 0.0000
O3 O 0.2155(9) 0.1866(5) 0.0000
O4 O 0.0600(13) 0.2417(5) -0.0590(4)
O5 O 0.3466(4) 0.2224(4) -0.1407(5)
O6 O 0.2857(5) 0.3299(4) -0.1414(5)
O7 O -0.0131(7) 0.1494(6) 0.0000
O8 O 0.1221(6) 0.1350(7) -0.0600(5)
O9 O 0.0853(15) 0.3428(6) 0.0000
O10 O 0.2343(7) 0.0863(10) 0.0000
O11 O 0.0276(5) 0.3495(4) -0.1162(4)
O12 O 0.2500 0.2500 -0.2347(7)
O13 O 0.3267(5) 0.1198(4) -0.0842(5)
O14 O 0.2078(7) 0.0487(5) -0.1175(5)
Mo1I Mo 0.2500 0.2500 0.15734(6)
Mo2E Mo 0.42850(12) 0.31843(9) 0.0000
Mo3E Mo 0.27979(8) 0.38625(5) -0.07886(6)
Mo3I Mo 0.22021(8) 0.11375(5) 0.07886(6)
Mo3L Mo 0.27979(8) 0.38625(5) 0.07886(6)
Mo4E Mo 0.39923(8) 0.18159(6) -0.07854(5)
Mo4I Mo 0.10077(8) 0.31841(6) 0.07854(5)
Mo4L Mo 0.39923(8) 0.18159(6) 0.07854(5)
O1E O 0.2340(7) 0.2816(5) -0.0587(4)
O1I O 0.2660(7) 0.2184(5) 0.0587(4)
O1L O 0.2340(7) 0.2816(5) 0.0587(4)
O2E O 0.3367(5) 0.2370(7) 0.0000
O3E O 0.2845(9) 0.3134(5) 0.0000
O4I O 0.0600(13) 0.2417(5) 0.0590(4)
O4E O 0.4400(13) 0.2583(5) -0.0590(4)
O4L O 0.4400(13) 0.2583(5) 0.0590(4)
O5E O 0.1534(4) 0.2776(4) -0.1407(5)
O5I O 0.3466(4) 0.2224(4) 0.1407(5)
O5L O 0.1534(4) 0.2776(4) 0.1407(5)
O6E O 0.2143(5) 0.1701(4) -0.1414(5)
O6I O 0.2857(5) 0.3299(4) 0.1414(5)
O6L O 0.2143(5) 0.1701(4) 0.1414(5)
O7E O 0.5131(7) 0.3506(6) 0.0000
O8I O 0.1221(6) 0.1350(7) 0.0600(5)
O8E O 0.3779(6) 0.3650(7) -0.0600(5)
O8L O 0.3779(6) 0.3650(7) 0.0600(5)
O9E O 0.4147(15) 0.1572(6) 0.0000
O10E O 0.2657(7) 0.4137(10) 0.0000
O11E O 0.4724(5) 0.1505(4) -0.1162(4)
O11I O 0.0276(5) 0.3495(4) 0.1162(4)
O11L O 0.4724(5) 0.1505(4) 0.1162(4)
O12I O 0.2500 0.2500 0.2347(7)
O13E O 0.1733(5) 0.3802(4) -0.0842(5)
O13I O 0.3267(5) 0.1198(4) 0.0842(5)
O13L O 0.1733(5) 0.3802(4) 0.0842(5)
O14E O 0.2922(7) 0.4513(5) -0.1175(5)
O14I O 0.2078(7) 0.0487(5) 0.1175(5)
O14L O 0.2922(7) 0.4513(5) 0.1175(5)
loop_
_geom_bond_atom_site_label_1
_geom_bond_atom_site_label_2
_geom_bond_site_symmetry_1
_geom_bond_site_symmetry_2
Mo1 O1 1_555 1_555
Mo2 O2 1_555 1_555
Mo3 O1 1_555 1_555
Mo4 O2 1_555 1_555
P1 O1 1_555 1_555
O1 O3 1_555 1_555
O2 P1 1_555 1_555
O3 Mo3 1_555 1_555
O4 Mo2 1_555 1_555
O5 Mo1 1_555 1_555
O6 Mo1 1_555 1_555
O7 Mo2 1_555 1_555
O8 Mo2 1_555 1_555
O9 Mo4 1_555 1_555
O10 Mo3 1_555 1_555
O11 Mo4 1_555 1_555
O12 Mo1 1_555 1_555
O13 Mo3 1_555 1_555
O14 Mo3 1_555 1_555
Cu1 N1 1_555 1_555
Cu2 N2 1_555 1_555
N1 C1 1_555 1_555
C1 H1 1_555 1_555
C2 C1 1_555 1_555
H2 C2 1_555 1_555
C3 C2 1_555 1_555
C4 C3 1_555 1_555
C5 C4 1_555 1_555
H3 C5 1_555 1_555
C6 C5 1_555 1_555
H4 C6 1_555 1_555
N2 C6 1_555 1_555
N3 Cu1 1_555 1_555
C7 N3 1_555 1_555
H5 C7 1_555 1_555
C8 C7 1_555 1_555
H6 C8 1_555 1_555
C9 C8 1_555 1_555
N4 Cu2 1_555 1_555
C10 N4 1_555 1_555
H7 C10 1_555 1_555
C11 C10 1_555 1_555
H8 C11 1_555 1_555
C12 C11 1_555 1_555
O15 Cu1 1_555 1_555
O16 Cu2 1_555 1_555
Mo1I O1I 1_555 1_555
Mo2E O2E 1_555 1_555
Mo3E O6 1_555 1_555
Mo3I O3 1_555 1_555
Mo3L O1L 1_555 1_555
Mo4E O5 1_555 1_555
Mo4I O2 1_555 1_555
Mo4L O2E 1_555 1_555
O1E Mo1 1_555 1_555
O1I P1 1_555 1_555
O1L P1 1_555 1_555
O2E P1 1_555 1_555
O3E P1 1_555 1_555
O4I Mo2 1_555 1_555
O4E Mo2E 1_555 1_555
O4L Mo2E 1_555 1_555
O5E Mo1 1_555 1_555
O5I Mo1I 1_555 1_555
O5L Mo1I 1_555 1_555
O6E Mo1 1_555 1_555
O6I Mo1I 1_555 1_555
O6L Mo1I 1_555 1_555
O7E Mo2E 1_555 1_555
O8I Mo2 1_555 1_555
O8E Mo2E 1_555 1_555
O8L Mo2E 1_555 1_555
O9E Mo4E 1_555 1_555
O10E Mo3E 1_555 1_555
O11E Mo4E 1_555 1_555
O11I Mo4I 1_555 1_555
O11L Mo4L 1_555 1_555
O12I Mo1I 1_555 1_555
O13E Mo4 1_555 1_555
O13I Mo3I 1_555 1_555
O13L Mo3L 1_555 1_555
O14E Mo3E 1_555 1_555
O14I Mo3I 1_555 1_555
O14L Mo3L 1_555 1_555
Cu1H N3H 1_555 1_555
Cu2H N4H 1_555 1_555
Cu2_2 N2A 1_555 1_555
N1A Cu1 1_555 1_555
C1B N1 1_555 1_555
C1A N1A 1_555 1_555
C1C N1A 1_555 1_555
H1B C1B 1_555 1_555
H1A C1A 1_555 1_555
H1C C1C 1_555 1_555
C2B C3 1_555 1_555
C2A C1A 1_555 1_555
C2C C1C 1_555 1_555
H2B C2B 1_555 1_555
H2A C2A 1_555 1_555
H2C C2C 1_555 1_555
C3A C2A 1_555 1_555
C4A C3A 1_555 1_555
C5B C4 1_555 1_555
C5A C4A 1_555 1_555
C5C C4A 1_555 1_555
H3B C5B 1_555 1_555
H3A C5A 1_555 1_555
H3C C5C 1_555 1_555
C6B N2 1_555 1_555
C6A C5A 1_555 1_555
C6C C5C 1_555 1_555
H4B C6B 1_555 1_555
H4A C6A 1_555 1_555
H4C C6C 1_555 1_555
N2A C6A 1_555 1_555
N2A_2 Cu2 1_555 1_555
N3H C7H 1_555 1_555
N3B Cu1 1_555 1_555
C7A N3 1_555 1_555
C7H H5H 1_555 1_555
C7I N3H 1_555 1_555
H5A C7A 1_555 1_555
H5I C7I 1_555 1_555
C8A C9 1_555 1_555
C8H C7H 1_555 1_555
C8I C7I 1_555 1_555
H6A C8A 1_555 1_555
H6I C8I 1_555 1_555
H6H C8H 1_555 1_555
C9H C9 1_555 1_555
N4H C10H 1_555 1_555
N4B Cu2 1_555 1_555
C10A N4 1_555 1_555
C10H H7H 1_555 1_555
C10I N4H 1_555 1_555
H7A C10A 1_555 1_555
H7I C10I 1_555 1_555
C11A C12 1_555 1_555
C11H C10H 1_555 1_555
C11I C10I 1_555 1_555
H8A C11A 1_555 1_555
H8I C11I 1_555 1_555
H8H C11H 1_555 1_555
C12H C12 1_555 1_555
O15A Cu1 1_555 1_555
O16A Cu2 1_555 1_555
Mo3 O8 1_555 1_555
Mo3 O6E 1_555 1_555
Mo4 O4 1_555 1_555
Mo4 O5E 1_555 1_555
P1 O3 1_555 1_555
P1 O1E 1_555 1_555
O1 O1E 1_555 1_555
O3 O1I 1_555 1_555
O9 Mo4I 1_555 1_555
O10 Mo3I 1_555 1_555
O13 Mo4E 1_555 1_555
Mo1I O1L 1_555 1_555
Mo3E O1E 1_555 1_555
Mo3E O3E 1_555 1_555
Mo3E O8E 1_555 1_555
Mo3E O13E 1_555 1_555
Mo3I O1I 1_555 1_555
Mo3I O6L 1_555 1_555
Mo3I O8I 1_555 1_555
Mo3L O3E 1_555 1_555
Mo3L O6I 1_555 1_555
Mo3L O8L 1_555 1_555
Mo3L O10E 1_555 1_555
Mo4E O2E 1_555 1_555
Mo4E O4E 1_555 1_555
Mo4I O4I 1_555 1_555
Mo4I O5L 1_555 1_555
Mo4I O13L 1_555 1_555
Mo4L O4L 1_555 1_555
Mo4L O5I 1_555 1_555
Mo4L O9E 1_555 1_555
Mo4L O13I 1_555 1_555
O1E O3E 1_555 1_555
O1I O1L 1_555 1_555
O1L O3E 1_555 1_555
C1B C2B 1_555 1_555
C2C C3A 1_555 1_555
C5B C6B 1_555 1_555
C6C N2A 1_555 1_555
C7A C8A 1_555 1_555
C8H C9H 1_555 1_555
C8I C9H 1_555 1_555
C10A C11A 1_555 1_555
C11H C12H 1_555 1_555
C11I C12H 1_555 1_555

#END
