
#######################################################################
#
#                 Cambridge Crystallographic Data Centre
#                                CCDC 
#
#######################################################################
#
# If this CIF has been generated from an entry in the Cambridge 
# Structural Database, then it will include bibliographic, chemical, 
# crystal, experimental, refinement or atomic coordinate data resulting 
# from the CCDC's data processing and validation procedures.
#
#######################################################################

data_TAHBAH
_symmetry_cell_setting           monoclinic
_symmetry_space_group_name_H-M   'P 21/n'
_symmetry_Int_Tables_number      14
_space_group_name_Hall           '-P 2yn'
loop_
_symmetry_equiv_pos_site_id
_symmetry_equiv_pos_as_xyz
1 x,y,z
2 1/2-x,1/2+y,1/2-z
3 -x,-y,-z
4 1/2+x,1/2-y,1/2+z
_cell_length_a                   16.618(5)
_cell_length_b                   9.013(5)
_cell_length_c                   22.215(5)
_cell_angle_alpha                90
_cell_angle_beta                 105.201(5)
_cell_angle_gamma                90
_cell_volume                     3210.9
loop_
_atom_site_label
_atom_site_type_symbol
_atom_site_fract_x
_atom_site_fract_y
_atom_site_fract_z
Cu1 Cu -0.16126(7) -0.50035(12) 0.19784(5)
S1 S -0.27811(18) -0.6393(3) 0.17652(14)
O1 O -0.0867(3) -0.6683(7) 0.2288(2)
N1 N -0.0780(4) -0.3324(8) 0.2093(3)
N2 N -0.3215(4) -0.3562(8) 0.1486(3)
H1 H -0.3558 -0.2845 0.1357
N3 N -0.2368(4) -0.3330(8) 0.1714(3)
C1 C 0.0053(6) -0.3367(11) 0.2259(4)
H2 H 0.0319 -0.4283 0.2308
C2 C 0.0530(6) -0.2091(13) 0.2362(4)
H3 H 0.1109 -0.2157 0.2473
C3 C -0.3471(5) -0.4993(10) 0.1477(3)
C4 C -0.2069(5) -0.2031(9) 0.1784(3)
H4 H -0.2401 -0.1186 0.1697
C5 C -0.1165(6) -0.1965(10) 0.2010(4)
C6 C 0.0154(6) -0.0739(12) 0.2299(4)
H5 H 0.0474 0.0121 0.2377
C7 C -0.0734(6) -0.0646(10) 0.2114(4)
H6 H -0.1008 0.0262 0.2067
Cu2 Cu -0.03301(6) -0.42139(12) 0.05988(5)
S2 S -0.13568(13) -0.5825(2) 0.06490(10)
C8 C -0.2152(5) -0.4543(9) 0.0357(3)
N4 N -0.2025(4) -0.3098(7) 0.0359(3)
N5 N -0.1207(4) -0.2713(8) 0.0515(3)
C9 C -0.0969(5) -0.1362(10) 0.0581(3)
H7 H -0.1346 -0.0585 0.0551
C10 C -0.0070(5) -0.1103(9) 0.0708(3)
C11 C 0.1151(5) 0.0373(11) 0.0874(4)
H8 H 0.1416 0.1291 0.0932
C12 C 0.1206(5) -0.2255(10) 0.0801(4)
H9 H 0.1517 -0.3117 0.0813
S3 S -0.07027(13) -0.4150(2) -0.06976(9)
N6 N -0.2923(4) -0.5027(8) 0.0146(3)
H10 H -0.3324 -0.4406 0.0015
H11 H -0.3026 -0.5963 0.0139
N7 N -0.4258(5) -0.5297(8) 0.1233(3)
H12 H -0.4603 -0.4597 0.1081
H13 H -0.4431 -0.6198 0.1224
N8 N 0.0384(4) -0.2368(8) 0.0719(3)
C13 C 0.0290(5) 0.0290(9) 0.0792(3)
H14 H -0.0028 0.1138 0.0794
C14 C 0.1613(6) -0.0898(12) 0.0869(5)
H15 H 0.2183 -0.0846 0.0910
V1 V 0.06551(8) -0.52073(15) -0.37505(5)
V2 V 0.16651(7) -0.55033(14) -0.46961(5)
V3 V -0.11307(8) -0.64883(16) -0.40515(6)
V4 V 0.01454(8) -0.32054(14) -0.49650(6)
V5 V -0.08914(8) -0.31064(16) -0.40006(6)
O2 O -0.0233(3) -0.2011(5) -0.4514(2)
O3 O 0.0858(4) -0.6631(7) -0.4370(3)
O4 O -0.0059(3) -0.6566(6) -0.3565(2)
O5 O 0.0450(3) -0.5081(6) -0.5409(2)
O6 O -0.1733(3) -0.3082(6) -0.4768(2)
O7 O -0.1087(3) -0.6111(5) -0.5699(2)
O8 O -0.1970(3) -0.6034(6) -0.4817(2)
O9 O -0.0678(3) -0.7828(5) -0.4644(2)
O10 O -0.1353(3) -0.4726(6) -0.3732(2)
O11 O -0.2499(3) -0.4367(6) -0.5859(2)
O12 O 0.1622(4) -0.2275(7) -0.6233(3)
O13 O 0.1462(3) -0.5341(5) -0.3173(2)
O14 O -0.1159(3) -0.1757(6) -0.3638(2)
O15 O 0.0160(3) -0.3591(5) -0.3495(2)
H16 H -0.224(5) -0.672(10) -0.502(4)
H17 H 0.1463 -0.5323 -0.6629
H18 H -0.052(3) -0.671(11) 0.207(2)
H19 H -0.060(3) -0.679(9) 0.2667(8)
Cu1B Cu 0.16126(7) -0.49965(12) -0.19784(5)
Cu1_2 Cu -0.16126(7) -0.50035(12) -0.80216(5)
S1B S 0.27811(18) -0.3607(3) -0.17652(14)
O1B O 0.0867(3) -0.3317(7) -0.2288(2)
N1B N 0.0780(4) -0.6676(8) -0.2093(3)
N2B N 0.3215(4) -0.6438(8) -0.1486(3)
H1B H 0.3558 -0.7155 -0.1357
N3B N 0.2368(4) -0.6670(8) -0.1714(3)
C1B C -0.0053(6) -0.6633(11) -0.2259(4)
H2B H -0.0319 -0.5717 -0.2308
C2B C -0.0530(6) -0.7909(13) -0.2362(4)
H3B H -0.1109 -0.7843 -0.2473
C3B C 0.3471(5) -0.5007(10) -0.1477(3)
C4B C 0.2069(5) -0.7969(9) -0.1784(3)
H4B H 0.2401 -0.8814 -0.1697
C5B C 0.1165(6) -0.8035(10) -0.2010(4)
C6B C -0.0154(6) -0.9261(12) -0.2299(4)
H5B H -0.0474 -1.0121 -0.2377
C7B C 0.0734(6) -0.9354(10) -0.2114(4)
H6B H 0.1008 -1.0262 -0.2067
Cu2B Cu 0.03301(6) -0.57861(12) -0.05988(5)
S2B S 0.13568(13) -0.4175(2) -0.06490(10)
C8B C 0.2152(5) -0.5457(9) -0.0357(3)
N4B N 0.2025(4) -0.6902(7) -0.0359(3)
N5B N 0.1207(4) -0.7287(8) -0.0515(3)
C9B C 0.0969(5) -0.8638(10) -0.0581(3)
H7B H 0.1346 -0.9415 -0.0551
C10B C 0.0070(5) -0.8897(9) -0.0708(3)
C11B C -0.1151(5) -1.0373(11) -0.0874(4)
H8B H -0.1416 -1.1291 -0.0932
C12B C -0.1206(5) -0.7745(10) -0.0801(4)
H9B H -0.1517 -0.6883 -0.0813
S3B S 0.07027(13) -0.5850(2) 0.06976(9)
N6B N 0.2923(4) -0.4973(8) -0.0146(3)
H10B H 0.3324 -0.5594 -0.0015
H11B H 0.3026 -0.4037 -0.0139
N7B N 0.4258(5) -0.4703(8) -0.1233(3)
H12B H 0.4603 -0.5403 -0.1081
H13B H 0.4431 -0.3802 -0.1224
N8B N -0.0384(4) -0.7632(8) -0.0719(3)
C13B C -0.0290(5) -1.0290(9) -0.0792(3)
H14B H 0.0028 -1.1138 -0.0794
C14B C -0.1613(6) -0.9102(12) -0.0869(5)
H15B H -0.2183 -0.9154 -0.0910
V1B V -0.06551(8) -0.47927(15) -0.62495(5)
V2B V -0.16651(7) -0.44967(14) -0.53039(5)
V3B V 0.11307(8) -0.35117(16) -0.59485(6)
V4B V -0.01454(8) -0.67946(14) -0.50350(6)
V5B V 0.08914(8) -0.68936(16) -0.59994(6)
O2B O 0.0233(3) -0.7989(5) -0.5486(2)
O3B O -0.0858(4) -0.3369(7) -0.5630(3)
O4B O 0.0059(3) -0.3434(6) -0.6435(2)
O5B O -0.0450(3) -0.4919(6) -0.4591(2)
O6B O 0.1733(3) -0.6918(6) -0.5232(2)
O7B O 0.1087(3) -0.3889(5) -0.4301(2)
O8B O 0.1970(3) -0.3966(6) -0.5183(2)
O9B O 0.0678(3) -0.2172(5) -0.5356(2)
O10B O 0.1353(3) -0.5274(6) -0.6268(2)
O11B O 0.2499(3) -0.5633(6) -0.4141(2)
O12B O -0.1622(4) -0.7725(7) -0.3767(3)
O13B O -0.1462(3) -0.4659(5) 0.3173(2)
O13B_2 O -0.1462(3) -0.4659(5) -0.6827(2)
O14B O 0.1159(3) -0.8243(6) -0.6362(2)
O15B O -0.0160(3) -0.6409(5) -0.6505(2)
H16B H 0.224(5) -0.328(10) -0.498(4)
H17B H -0.1463 -0.4677 -0.3371
H18B H 0.052(3) -0.329(11) -0.207(2)
H19B H 0.060(3) -0.321(9) -0.2667(8)
O16 O 0.0485(5) -0.7205(8) 0.1941(3)
H20 H 0.054(5) -0.679(8) 0.1611(15)
H21 H 0.082(4) -0.679(7) 0.2249(17)
O17 O -0.8054(5) -0.6363(10) 0.2733(4)
H22 H -0.783(4) -0.703(4) 0.256(3)
H23 H -0.784(4) -0.553(3) 0.268(4)
O18 O -0.7744(6) -0.9581(17) 0.2937(6)
H24 H -0.731(3) -0.911(10) 0.290(4)
H25 H -0.760(4) -1.010(9) 0.327(3)
loop_
_geom_bond_atom_site_label_1
_geom_bond_atom_site_label_2
_geom_bond_site_symmetry_1
_geom_bond_site_symmetry_2
Cu1 S1 1_555 1_555
S1 C3 1_555 1_555
O1 Cu1 1_555 1_555
N1 Cu1 1_555 1_555
N2 H1 1_555 1_555
N3 Cu1 1_555 1_555
C1 N1 1_555 1_555
H2 C1 1_555 1_555
C2 C1 1_555 1_555
H3 C2 1_555 1_555
C3 N2 1_555 1_555
C4 N3 1_555 1_555
H4 C4 1_555 1_555
C5 N1 1_555 1_555
C6 C2 1_555 1_555
H5 C6 1_555 1_555
C7 C5 1_555 1_555
H6 C7 1_555 1_555
Cu2 S2 1_555 1_555
S2 Cu1 1_555 1_555
C8 S2 1_555 1_555
N4 C8 1_555 1_555
N5 Cu2 1_555 1_555
C9 N5 1_555 1_555
H7 C9 1_555 1_555
C10 C9 1_555 1_555
C11 H8 1_555 1_555
C12 H9 1_555 1_555
S3 Cu2 1_555 1_555
N6 C8 1_555 1_555
H10 N6 1_555 1_555
H11 N6 1_555 1_555
N7 C3 1_555 1_555
H12 N7 1_555 1_555
H13 N7 1_555 1_555
N8 Cu2 1_555 1_555
C13 C10 1_555 1_555
H14 C13 1_555 1_555
C14 C11 1_555 1_555
H15 C14 1_555 1_555
V1 O3 1_555 1_555
V2 O3 1_555 1_555
V3 O4 1_555 1_555
V4 O2 1_555 1_555
V5 O2 1_555 1_555
O3 V4B 1_555 1_555
O4 V1 1_555 1_555
O5 V2 1_555 1_555
O6 V5 1_555 1_555
O7 V1B 1_555 1_555
O8 V3 1_555 1_555
O9 V3 1_555 1_555
O10 V3 1_555 1_555
O11 V2B 1_555 1_555
O12 V3B 1_555 1_555
O13 V1 1_555 1_555
O14 V5 1_555 1_555
O15 V1 1_555 1_555
O16 H20 1_555 1_555
O17 H22 1_555 1_555
O18 H24 1_555 1_555
H16 O8 1_555 1_555
H17 O10B 1_555 1_555
H18 O1 1_555 1_555
H19 O1 1_555 1_555
H21 O16 1_555 1_555
H23 O17 1_555 1_555
H25 O18 1_555 1_555
Cu1B O13 1_555 1_555
Cu1_2 O13B_2 1_555 1_555
S1B Cu1B 1_555 1_555
O1B Cu1B 1_555 1_555
N1B Cu1B 1_555 1_555
N2B H1B 1_555 1_555
N3B Cu1B 1_555 1_555
C1B N1B 1_555 1_555
H2B C1B 1_555 1_555
C2B C1B 1_555 1_555
H3B C2B 1_555 1_555
C3B S1B 1_555 1_555
C4B N3B 1_555 1_555
H4B C4B 1_555 1_555
C5B N1B 1_555 1_555
C6B C2B 1_555 1_555
H5B C6B 1_555 1_555
C7B C5B 1_555 1_555
H6B C7B 1_555 1_555
Cu2B S3 1_555 1_555
S2B Cu1B 1_555 1_555
C8B S2B 1_555 1_555
N4B C8B 1_555 1_555
N5B Cu2B 1_555 1_555
C9B N5B 1_555 1_555
H7B C9B 1_555 1_555
C10B C9B 1_555 1_555
C11B H8B 1_555 1_555
C12B H9B 1_555 1_555
S3B Cu2 1_555 1_555
N6B C8B 1_555 1_555
H10B N6B 1_555 1_555
H11B N6B 1_555 1_555
N7B C3B 1_555 1_555
H12B N7B 1_555 1_555
H13B N7B 1_555 1_555
N8B Cu2B 1_555 1_555
C13B C10B 1_555 1_555
H14B C13B 1_555 1_555
C14B C11B 1_555 1_555
H15B C14B 1_555 1_555
V1B O5 1_555 1_555
V2B O6 1_555 1_555
V3B O5 1_555 1_555
V4B O5 1_555 1_555
V5B O5 1_555 1_555
O2B V4B 1_555 1_555
O3B V4 1_555 1_555
O4B V1B 1_555 1_555
O5B V1 1_555 1_555
O6B V2 1_555 1_555
O7B V1 1_555 1_555
O8B V2 1_555 1_555
O9B V4 1_555 1_555
O10B V3B 1_555 1_555
O11B V2 1_555 1_555
O12B V3 1_555 1_555
O13B Cu1 1_555 1_555
O13B_2 V1B 1_555 1_555
O14B V5B 1_555 1_555
O15B V1B 1_555 1_555
H16B O8B 1_555 1_555
H17B O10 1_555 1_555
H18B O1B 1_555 1_555
H19B O1B 1_555 1_555
N2 N3 1_555 1_555
C4 C5 1_555 1_555
C6 C7 1_555 1_555
N4 N5 1_555 1_555
C10 N8 1_555 1_555
C11 C13 1_555 1_555
C12 N8 1_555 1_555
C12 C14 1_555 1_555
V2 O7B 1_555 1_555
V3 O5B 1_555 1_555
V4 O5 1_555 1_555
V4 O5B 1_555 1_555
V4 O7B 1_555 1_555
V5 O10 1_555 1_555
V5 O15 1_555 1_555
V5 O5B 1_555 1_555
O7 V2B 1_555 1_555
O7 V4B 1_555 1_555
O8 V2B 1_555 1_555
O9 V4B 1_555 1_555
N2B N3B 1_555 1_555
N2B C3B 1_555 1_555
C4B C5B 1_555 1_555
C6B C7B 1_555 1_555
Cu2B S2B 1_555 1_555
Cu2B S3B 1_555 1_555
N4B N5B 1_555 1_555
C10B N8B 1_555 1_555
C11B C13B 1_555 1_555
C12B N8B 1_555 1_555
C12B C14B 1_555 1_555
V1B O3B 1_555 1_555
V2B O3B 1_555 1_555
V2B O5B 1_555 1_555
V3B O4B 1_555 1_555
V3B O8B 1_555 1_555
V3B O9B 1_555 1_555
V4B O5B 1_555 1_555
V5B O2B 1_555 1_555
V5B O6B 1_555 1_555
V5B O10B 1_555 1_555
V5B O15B 1_555 1_555

#END
