
#######################################################################
#
#                 Cambridge Crystallographic Data Centre
#                                CCDC 
#
#######################################################################
#
# If this CIF has been generated from an entry in the Cambridge 
# Structural Database, then it will include bibliographic, chemical, 
# crystal, experimental, refinement or atomic coordinate data resulting 
# from the CCDC's data processing and validation procedures.
#
#######################################################################

data_TAHDUD
_symmetry_cell_setting           monoclinic
_symmetry_space_group_name_H-M   'P 21/a'
_symmetry_Int_Tables_number      14
_space_group_name_Hall           '-P 2yab'
loop_
_symmetry_equiv_pos_site_id
_symmetry_equiv_pos_as_xyz
1 x,y,z
2 1/2-x,1/2+y,-z
3 -x,-y,-z
4 1/2+x,1/2-y,z
_cell_length_a                   6.143(4)
_cell_length_b                   22.191(9)
_cell_length_c                   6.745(4)
_cell_angle_alpha                90
_cell_angle_beta                 98.43(3)
_cell_angle_gamma                90
_cell_volume                     909.54
loop_
_atom_site_label
_atom_site_type_symbol
_atom_site_fract_x
_atom_site_fract_y
_atom_site_fract_z
S1 S 1.26174(13) 0.66404(3) 0.27552(12)
Na1 Na 1.2824(2) 0.79010(5) 0.5569(2)
O1 O 1.2900(5) 0.67915(11) 0.0721(4)
O2 O 1.1294(4) 0.70790(10) 0.3645(4)
O3 O 1.4672(4) 0.64976(10) 0.4002(4)
O4 O 0.7083(4) 0.44558(11) 0.1854(4)
O5 O 1.0509(4) 0.76356(12) 0.8043(4)
O6 O 1.0731(4) 0.38330(9) 0.3126(4)
C1 C 0.8420(5) 0.49406(13) 0.2053(4)
C2 C 1.0695(5) 0.48939(13) 0.2772(5)
C3 C 1.1958(5) 0.54139(13) 0.3006(5)
H1 H 1.3482 0.5387 0.3510
C4 C 1.1032(5) 0.59707(13) 0.2516(5)
C5 C 0.8787(5) 0.60046(13) 0.1776(5)
H2 H 0.8141 0.6385 0.1416
C6 C 1.1721(6) 0.43171(13) 0.3264(5)
H3 H 1.3259 0.4311 0.3723
C7 C 0.7500(5) 0.54962(14) 0.1563(5)
H4 H 0.5973 0.5528 0.1076
H5 H 0.798(6) 0.4176(14) 0.219(7)
H6 H 1.109(9) 0.7368(17) 0.895(5)
H7 H 1.007(10) 0.7940(16) 0.877(6)
Na1C Na 0.7824(2) 0.70990(5) 0.5569(2)
Na1C_2 Na 1.7824(2) 0.70990(5) 0.5569(2)
Na1A Na 1.2176(2) 0.29010(5) 0.4431(2)
O2C O 1.6294(4) 0.79210(10) 0.3645(4)
O3C O 0.9672(4) 0.85024(10) 0.4002(4)
O5C O 1.5509(4) 0.73644(12) 0.8043(4)
O6A O 1.4269(4) 0.88330(9) 0.6874(4)
H6C H 1.609(9) 0.7632(17) 0.895(5)
H7C H 1.507(10) 0.7060(16) 0.877(6)
loop_
_geom_bond_atom_site_label_1
_geom_bond_atom_site_label_2
_geom_bond_site_symmetry_1
_geom_bond_site_symmetry_2
S1 O1 1_555 1_555
Na1 O2 1_555 1_555
O2 S1 1_555 1_555
O3 S1 1_555 1_555
O4 C1 1_555 1_555
O5 Na1 1_555 1_555
O6 C6 1_555 1_555
C1 C2 1_555 1_555
C2 C3 1_555 1_555
C3 H1 1_555 1_555
C4 S1 1_555 1_555
C5 C4 1_555 1_555
H2 C5 1_555 1_555
C6 C2 1_555 1_555
H3 C6 1_555 1_555
C7 C1 1_555 1_555
H4 C7 1_555 1_555
H5 O4 1_555 1_555
H6 O5 1_555 1_555
H7 O5 1_555 1_555
Na1C O2 1_555 1_555
Na1C_2 O3 1_555 1_555
Na1A O6 1_555 1_555
O2C Na1 1_555 1_555
O3C Na1 1_555 1_555
O5C Na1 1_555 1_555
O6A Na1 1_555 1_555
H6C O5C 1_555 1_555
H7C O5C 1_555 1_555
O5 Na1C 1_555 1_555
C3 C4 1_555 1_555
C5 C7 1_555 1_555
Na1C_2 O2C 1_555 1_555
Na1C_2 O5C 1_555 1_555

#END
