
#######################################################################
#
#                 Cambridge Crystallographic Data Centre
#                                CCDC 
#
#######################################################################
#
# If this CIF has been generated from an entry in the Cambridge 
# Structural Database, then it will include bibliographic, chemical, 
# crystal, experimental, refinement or atomic coordinate data resulting 
# from the CCDC's data processing and validation procedures.
#
#######################################################################

data_TAHFEP
_symmetry_cell_setting           triclinic
_symmetry_space_group_name_H-M   'P -1'
_symmetry_Int_Tables_number      2
_space_group_name_Hall           '-P 1'
loop_
_symmetry_equiv_pos_site_id
_symmetry_equiv_pos_as_xyz
1 x,y,z
2 -x,-y,-z
_cell_length_a                   8.7124(17)
_cell_length_b                   8.8764(18)
_cell_length_c                   9.0999(18)
_cell_angle_alpha                107.14(3)
_cell_angle_beta                 113.61(3)
_cell_angle_gamma                100.43(3)
_cell_volume                     579.135
loop_
_atom_site_label
_atom_site_type_symbol
_atom_site_fract_x
_atom_site_fract_y
_atom_site_fract_z
Co1 Co 0.0000 0.0000 0.5000
Co2 Co 0.01265(15) -0.08278(15) 0.81361(15)
O1 O 0.1624(7) 0.0920(7) 1.0716(7)
O2 O 0.8336(8) 0.7022(8) 1.6040(7)
O3 O 0.8068(8) 0.7550(8) 1.3705(8)
N1 N 0.3118(9) 0.2265(9) 1.1504(9)
O4 O 0.1216(9) -0.2420(8) 0.9287(8)
H1 H 0.2307 -0.1983 1.0071
C1 C 0.6043(11) 0.5081(11) 1.3320(11)
N2 N 0.1890(10) -0.0524(10) 0.7092(10)
C2 C 0.3146(12) 0.3457(11) 1.0891(11)
H2 H 0.2166 0.3332 0.9879
N3 N 0.3441(10) 0.0316(10) 0.7969(11)
C3 C 0.5974(11) 0.3809(12) 1.3909(12)
H3 H 0.6932 0.3918 1.4929
C4 C 0.4479(11) 0.2379(12) 1.2975(11)
H4 H 0.4415 0.1515 1.3353
C5 C 0.4628(12) 0.4862(11) 1.1763(11)
H5 H 0.4687 0.5671 1.1311
C6 C 0.7623(11) 0.6714(11) 1.4435(11)
N4 N 0.4932(11) 0.1094(12) 0.8791(12)
N5 N -0.2022(12) 0.1270(11) 0.6708(10)
N6 N -0.0871(11) 0.0663(10) 0.6853(10)
N7 N -0.3059(17) 0.1932(18) 0.6612(16)
C7 C 0.092(2) -0.4130(16) 0.841(2)
H6 H 0.1573 -0.4538 0.9248
H7 H 0.1321 -0.4259 0.7554
H8 H -0.0327 -0.4759 0.7837
Co1_2 Co -1.0000 -1.0000 -0.5000
Co1_3 Co 1.0000 1.0000 1.5000
Co2A Co -0.01265(15) 0.08278(15) 0.18639(15)
Co2_2 Co 0.01265(15) -0.08278(15) -0.18639(15)
Co2_3 Co 1.01265(15) 0.91722(15) 1.81361(15)
Co2A_2 Co -1.01265(15) -0.91722(15) -0.81361(15)
Co2A_3 Co -0.01265(15) 0.08278(15) 1.18639(15)
O1A O -0.1624(7) -0.0920(7) -0.0716(7)
O1_2 O 0.1624(7) 0.0920(7) 0.0716(7)
O1A_2 O -0.1624(7) -0.0920(7) 0.9284(7)
O2A O -0.8336(8) -0.7022(8) -0.6040(7)
O2_2 O -0.1664(8) -0.2978(8) 0.6040(7)
O2A_2 O 0.1664(8) 0.2978(8) 0.3960(7)
O3A O -0.8068(8) -0.7550(8) -0.3705(8)
O3_2 O -0.1932(8) -0.2450(8) 0.3705(8)
O3A_2 O 0.1932(8) 0.2450(8) 0.6295(8)
N1A N -0.3118(9) -0.2265(9) -0.1504(9)
O4A O -0.1216(9) 0.2420(8) 0.0713(8)
H1A H -0.2307 0.1983 -0.0071
C1A C -0.6043(11) -0.5081(11) -0.3320(11)
N2A N -0.1890(10) 0.0524(10) 0.2908(10)
C2A C -0.3146(12) -0.3457(11) -0.0891(11)
H2A H -0.2166 -0.3332 0.0121
N3A N -0.3441(10) -0.0316(10) 0.2031(11)
C3A C -0.5974(11) -0.3809(12) -0.3909(12)
H3A H -0.6932 -0.3918 -0.4929
C4A C -0.4479(11) -0.2379(12) -0.2975(11)
H4A H -0.4415 -0.1515 -0.3353
C5A C -0.4628(12) -0.4862(11) -0.1763(11)
H5A H -0.4687 -0.5671 -0.1311
C6A C -0.7623(11) -0.6714(11) -0.4435(11)
N4A N -0.4932(11) -0.1094(12) 0.1209(12)
N5A N 0.2022(12) -0.1270(11) 0.3292(10)
N6A N 0.0871(11) -0.0663(10) 0.3147(10)
N7A N 0.3059(17) -0.1932(18) 0.3388(16)
C7A C -0.092(2) 0.4130(16) 0.159(2)
H6A H -0.1573 0.4538 0.0752
H7A H -0.1321 0.4259 0.2446
H8A H 0.0327 0.4759 0.2163
loop_
_geom_bond_atom_site_label_1
_geom_bond_atom_site_label_2
_geom_bond_site_symmetry_1
_geom_bond_site_symmetry_2
Co1 N2 1_555 1_555
Co2 O1 1_555 1_555
O1 N1 1_555 1_555
O2 C6 1_555 1_555
O3 C6 1_555 1_555
N1 C2 1_555 1_555
O4 Co2 1_555 1_555
H1 O4 1_555 1_555
C1 C3 1_555 1_555
N2 Co2 1_555 1_555
C2 H2 1_555 1_555
N3 N2 1_555 1_555
C3 H3 1_555 1_555
C4 N1 1_555 1_555
H4 C4 1_555 1_555
C5 C1 1_555 1_555
H5 C5 1_555 1_555
C6 C1 1_555 1_555
N4 N3 1_555 1_555
N5 N6 1_555 1_555
N6 Co1 1_555 1_555
N7 N5 1_555 1_555
C7 O4 1_555 1_555
H6 C7 1_555 1_555
H7 C7 1_555 1_555
H8 C7 1_555 1_555
Co1_2 O3A 1_555 1_555
Co1_3 O3 1_555 1_555
Co2A O1A 1_555 1_555
Co2_2 O1A 1_555 1_555
Co2_3 O2 1_555 1_555
Co2A_2 O2A 1_555 1_555
Co2A_3 O1 1_555 1_555
O1A N1A 1_555 1_555
O1_2 Co2A 1_555 1_555
O1A_2 Co2 1_555 1_555
O2A C6A 1_555 1_555
O2_2 Co2 1_555 1_555
O2A_2 Co2A 1_555 1_555
O3A C6A 1_555 1_555
O3_2 Co1 1_555 1_555
O3A_2 Co1 1_555 1_555
N1A C2A 1_555 1_555
O4A Co2A 1_555 1_555
H1A O4A 1_555 1_555
C1A C3A 1_555 1_555
N2A Co1 1_555 1_555
C2A H2A 1_555 1_555
N3A N2A 1_555 1_555
C3A H3A 1_555 1_555
C4A N1A 1_555 1_555
H4A C4A 1_555 1_555
C5A C1A 1_555 1_555
H5A C5A 1_555 1_555
C6A C1A 1_555 1_555
N4A N3A 1_555 1_555
N5A N6A 1_555 1_555
N6A Co1 1_555 1_555
N7A N5A 1_555 1_555
C7A O4A 1_555 1_555
H6A C7A 1_555 1_555
H7A C7A 1_555 1_555
H8A C7A 1_555 1_555
Co2 N6 1_555 1_555
C2 C5 1_555 1_555
C3 C4 1_555 1_555
Co2A N2A 1_555 1_555
Co2A N6A 1_555 1_555
Co2_2 O1_2 1_555 1_555
Co2A_3 O1A_2 1_555 1_555
C2A C5A 1_555 1_555
C3A C4A 1_555 1_555

#END
