
#######################################################################
#
#                 Cambridge Crystallographic Data Centre
#                                CCDC 
#
#######################################################################
#
# If this CIF has been generated from an entry in the Cambridge 
# Structural Database, then it will include bibliographic, chemical, 
# crystal, experimental, refinement or atomic coordinate data resulting 
# from the CCDC's data processing and validation procedures.
#
#######################################################################

data_TAHHAM
_symmetry_cell_setting           triclinic
_symmetry_space_group_name_H-M   'P -1'
_symmetry_Int_Tables_number      2
_space_group_name_Hall           '-P 1'
loop_
_symmetry_equiv_pos_site_id
_symmetry_equiv_pos_as_xyz
1 x,y,z
2 -x,-y,-z
_cell_length_a                   12.1902(2)
_cell_length_b                   12.4277(2)
_cell_length_c                   26.95940(10)
_cell_angle_alpha                102.7250(10)
_cell_angle_beta                 97.9580(10)
_cell_angle_gamma                90.6270(10)
_cell_volume                     3941.93
loop_
_atom_site_label
_atom_site_type_symbol
_atom_site_fract_x
_atom_site_fract_y
_atom_site_fract_z
O58 O 0.7119(8) 0.9116(8) 0.1419(3)
O61 O -0.0026(16) 0.2122(15) 0.5223(6)
O65 O 0.2346(8) 0.6861(9) 0.0907(4)
O66 O 0.2004(8) 0.2885(10) 0.3949(4)
O69 O 0.9412(8) 0.6372(9) 0.9871(4)
O70 O 0.3477(9) 0.8686(9) 0.0697(4)
O71 O 0.5597(10) 0.8312(11) 0.0533(4)
O72 O 0.7248(9) 0.3703(11) 0.5463(4)
O73 O 0.8630(10) 0.9005(10) 0.3477(4)
O74 O 0.0515(10) 0.5720(12) 0.4074(4)
O75 O 0.8170(10) 0.9369(12) 0.4534(5)
O76 O 0.0081(11) 0.6960(13) 0.0909(5)
O77 O 0.1806(13) 0.9232(13) 0.4455(5)
O78 O 0.2324(13) 0.4392(13) 0.4894(5)
O79 O 0.0176(11) 0.7250(12) 0.3030(6)
O80 O 0.9459(13) 0.8797(13) 0.1509(6)
O81 O 0.1288(12) 0.0661(12) 0.3811(5)
Cl1 Cl 0.1038(8) 0.9406(8) 0.2600(3)
O82 O 0.051(4) 1.024(4) 0.2785(18)
La1 La 0.71513(6) 0.43960(6) 0.08916(2)
La2 La 0.46158(6) 0.75798(6) 0.33531(2)
La3 La 0.78360(6) 0.26866(6) 0.35807(2)
La4 La 0.22639(6) 0.19263(6) 0.15740(2)
Mo1 Mo 0.76530(9) 0.24189(9) 0.19320(4)
Mo2 Mo 0.84373(9) 0.43136(9) 0.24778(4)
Mo3 Mo 0.69653(9) 0.67381(9) 0.23630(4)
Mo4 Mo 0.51342(9) 0.64744(9) 0.17328(4)
Mo5 Mo 0.44334(9) 0.22373(9) 0.30348(4)
Mo6 Mo 0.52903(9) 0.11918(9) 0.22532(4)
Mo7 Mo 0.53233(9) 0.47800(9) 0.38098(4)
Mo8 Mo 0.74016(9) 0.58789(9) 0.35166(4)
Mo9 Mo 0.39043(9) 0.40218(9) 0.09893(3)
Mo10 Mo 0.52271(9) 0.18914(9) 0.10766(3)
Mo11 Mo 0.29252(9) 0.46489(9) 0.29314(4)
Mo12 Mo 0.27132(9) 0.52770(9) 0.20632(4)
P1 P 0.5470(3) 0.4154(3) 0.23478(10)
O1 O 0.8827(7) 0.1778(7) 0.1801(3)
O2 O 0.7773(6) 0.3865(6) 0.1757(3)
O3 O 0.6728(6) 0.1898(6) 0.1231(2)
O4 O 0.7903(6) 0.3025(6) 0.2677(2)
O5 O 0.6916(6) 0.1031(6) 0.2094(3)
O6 O 0.5795(6) 0.2972(6) 0.2060(2)
O7 O 0.9788(7) 0.4117(7) 0.2455(3)
O8 O 0.8509(6) 0.5082(7) 0.3228(3)
O9 O 0.8462(6) 0.5926(7) 0.2361(3)
O10 O 0.6563(6) 0.4887(6) 0.2557(3)
O11 O 0.7441(7) 0.7970(7) 0.2290(3)
O12 O 0.6573(6) 0.5823(6) 0.1667(3)
O13 O 0.5433(6) 0.6975(6) 0.2486(2)
O14 O 0.7343(6) 0.6945(6) 0.3134(3)
O15 O 0.5197(7) 0.7621(7) 0.1501(3)
O16 O 0.4585(6) 0.5390(7) 0.1055(3)
O17 O 0.3453(6) 0.6544(6) 0.1819(3)
O18 O 0.4713(6) 0.4715(6) 0.1971(3)
O19 O 0.4026(7) 0.1169(7) 0.3266(3)
O20 O 0.5977(6) 0.2000(6) 0.2938(3)
O21 O 0.3867(6) 0.1869(6) 0.2300(3)
O22 O 0.5052(6) 0.3292(6) 0.3702(2)
O23 O 0.2989(6) 0.3114(6) 0.3115(3)
O24 O 0.4834(6) 0.4009(6) 0.2795(3)
O25 O 0.5097(7) -0.0109(7) 0.2307(3)
O26 O 0.4872(6) 0.0959(7) 0.1480(3)
O27 O 0.5542(7) 0.5226(7) 0.4456(3)
O28 O 0.3908(6) 0.5163(6) 0.3622(3)
O29 O 0.5810(6) 0.6054(6) 0.3543(3)
O30 O 0.6842(6) 0.4448(7) 0.3648(3)
O31 O 0.8024(7) 0.6552(7) 0.4103(3)
O32 O 0.3337(7) 0.3666(7) 0.0358(3)
O33 O 0.2719(6) 0.4469(7) 0.1321(3)
O34 O 0.3828(6) 0.2634(6) 0.1227(3)
O35 O 0.5412(6) 0.3427(7) 0.0972(3)
O36 O 0.4913(7) 0.1131(7) 0.0467(3)
O37 O 0.1704(7) 0.4986(7) 0.3130(3)
O38 O 0.2591(6) 0.3827(6) 0.2214(3)
O39 O 0.3485(6) 0.5960(6) 0.2748(3)
O40 O 0.1429(7) 0.5745(7) 0.2038(3)
O41 O 0.6075(7) 0.8409(7) 0.4155(3)
O42 O 0.4577(7) 0.7557(7) 0.4296(3)
O43 O 0.8768(7) 0.3031(7) 0.0827(3)
O44 O 0.7265(7) 0.2531(7) 0.0262(3)
O45 O 0.2898(8) 0.7307(8) 0.5560(3)
O46 O 0.3289(8) 0.8836(7) 0.6164(3)
O47 O 0.7565(7) -0.0610(7) -0.0707(3)
O48 O 0.8492(7) -0.2117(7) -0.0650(3)
O49 O 0.0620(7) 0.3141(7) 0.1530(3)
O50 O 0.5824(7) 0.9164(7) 0.3223(3)
O51 O 0.1360(7) 0.1854(7) 0.2405(3)
O52 O 0.6864(8) 0.6309(8) 0.0672(3)
O53 O 0.2538(8) 0.7434(8) 0.3581(4)
O54 O 0.0467(7) 0.0647(8) 0.1314(3)
O55 O 0.5754(7) 0.4105(8) 0.0006(3)
O56 O 0.8256(8) 0.0810(8) 0.3004(3)
O57 O 0.3818(8) 0.9461(7) 0.3784(3)
O59 O 0.9878(8) 0.2969(9) 0.3399(4)
O60 O 0.3382(8) 0.8368(8) 0.2641(3)
O62 O 0.8974(8) 0.5524(9) 0.1331(3)
O63 O 0.8996(8) 0.4170(9) 0.4329(3)
O64 O 0.8243(8) 0.4639(8) 0.0120(3)
O67 O 0.2600(8) -0.0133(8) 0.1712(3)
O68 O 0.9213(8) 0.1615(9) 0.4126(3)
C1 C 0.8201(11) 0.2300(11) 0.0465(4)
C2 C 0.8657(11) 0.1173(10) 0.0297(5)
H1 H 0.9390 0.1158 0.0489
H2 H 0.8733 0.1048 -0.0064
C3 C 0.7931(11) 0.0247(10) 0.0378(4)
H3 H 0.7941 0.0322 0.0745
H4 H 0.7174 0.0336 0.0231
C4 C 0.8254(12) -0.0901(11) 0.0152(4)
H5 H 0.7831 -0.1421 0.0280
H6 H 0.9031 -0.0969 0.0273
C5 C 0.8075(10) -0.1221(10) -0.0428(4)
C6 C 0.5519(11) 0.8067(10) 0.4460(4)
C7 C 0.5995(11) 0.8271(14) 0.5020(4)
H7 H 0.6192 0.9052 0.5146
H8 H 0.6669 0.7871 0.5054
C8 C 0.5198(11) 0.7921(11) 0.5362(4)
H9 H 0.5604 0.7955 0.5701
H10 H 0.4940 0.7161 0.5217
C9 C 0.4211(11) 0.8633(12) 0.5413(5)
H11 H 0.4463 0.9387 0.5575
H12 H 0.3819 0.8628 0.5074
C10 C 0.3432(10) 0.8228(11) 0.5728(4)
O45A O 0.7102(8) 0.2693(8) 0.4440(3)
O46A O 0.6711(8) 0.1164(7) 0.3836(3)
O47A O 0.2435(7) 0.0610(7) 0.0707(3)
O48A O 0.1508(7) 0.2117(7) 0.0650(3)
La3A La 0.21640(6) 0.73134(6) 0.64193(2)
La4A La 0.77361(6) -0.19263(6) -0.15740(2)
loop_
_geom_bond_atom_site_label_1
_geom_bond_atom_site_label_2
_geom_bond_site_symmetry_1
_geom_bond_site_symmetry_2
La1 O2 1_555 1_555
La2 O13 1_555 1_555
La3 O4 1_555 1_555
La4 O21 1_555 1_555
Mo1 Mo2 1_555 1_555
Mo2 O2 1_555 1_555
Mo3 Mo4 1_555 1_555
Mo4 O12 1_555 1_555
Mo5 Mo6 1_555 1_555
Mo6 O5 1_555 1_555
Mo7 Mo8 1_555 1_555
Mo8 O8 1_555 1_555
Mo9 Mo10 1_555 1_555
Mo10 O3 1_555 1_555
Mo11 Mo12 1_555 1_555
Mo12 O17 1_555 1_555
P1 O6 1_555 1_555
O1 Mo1 1_555 1_555
O2 Mo1 1_555 1_555
O3 Mo1 1_555 1_555
O4 Mo1 1_555 1_555
O5 Mo1 1_555 1_555
O6 Mo1 1_555 1_555
O7 Mo2 1_555 1_555
O8 Mo2 1_555 1_555
O9 Mo2 1_555 1_555
O10 Mo2 1_555 1_555
O11 Mo3 1_555 1_555
O12 La1 1_555 1_555
O13 Mo3 1_555 1_555
O14 Mo3 1_555 1_555
O15 Mo4 1_555 1_555
O16 Mo4 1_555 1_555
O17 Mo4 1_555 1_555
O18 Mo4 1_555 1_555
O19 Mo5 1_555 1_555
O20 La3 1_555 1_555
O21 Mo5 1_555 1_555
O22 Mo5 1_555 1_555
O23 Mo5 1_555 1_555
O24 Mo5 1_555 1_555
O25 Mo6 1_555 1_555
O26 Mo6 1_555 1_555
O27 Mo7 1_555 1_555
O28 Mo7 1_555 1_555
O29 La2 1_555 1_555
O30 La3 1_555 1_555
O31 Mo8 1_555 1_555
O32 Mo9 1_555 1_555
O33 Mo9 1_555 1_555
O34 La4 1_555 1_555
O35 La1 1_555 1_555
O36 Mo10 1_555 1_555
O37 Mo11 1_555 1_555
O38 La4 1_555 1_555
O39 La2 1_555 1_555
O40 Mo12 1_555 1_555
O41 La2 1_555 1_555
O42 La2 1_555 1_555
O43 La1 1_555 1_555
O44 La1 1_555 1_555
O45 C10 1_555 1_555
O46 C10 1_555 1_555
O47 C5 1_555 1_555
O48 C5 1_555 1_555
O49 La4 1_555 1_555
O50 La2 1_555 1_555
O51 La4 1_555 1_555
O52 La1 1_555 1_555
O53 La2 1_555 1_555
O54 La4 1_555 1_555
O55 La1 1_555 1_555
O56 La3 1_555 1_555
O57 La2 1_555 1_555
O59 La3 1_555 1_555
O60 La2 1_555 1_555
O62 La1 1_555 1_555
O63 La3 1_555 1_555
O64 La1 1_555 1_555
O67 La4 1_555 1_555
O68 La3 1_555 1_555
Cl1 O82 1_555 1_555
C1 O43 1_555 1_555
C2 C1 1_555 1_555
H1 C2 1_555 1_555
H2 C2 1_555 1_555
C3 C2 1_555 1_555
H3 C3 1_555 1_555
H4 C3 1_555 1_555
C4 C3 1_555 1_555
H5 C4 1_555 1_555
H6 C4 1_555 1_555
C5 C4 1_555 1_555
C6 O41 1_555 1_555
C7 C6 1_555 1_555
H7 C7 1_555 1_555
H8 C7 1_555 1_555
C8 C7 1_555 1_555
H9 C8 1_555 1_555
H10 C8 1_555 1_555
C9 C8 1_555 1_555
H11 C9 1_555 1_555
H12 C9 1_555 1_555
C10 C9 1_555 1_555
O45A La3 1_555 1_555
O46A La3 1_555 1_555
O47A La4 1_555 1_555
O48A La4 1_555 1_555
La3A O45 1_555 1_555
La4A O47 1_555 1_555
Mo2 O4 1_555 1_555
Mo3 O9 1_555 1_555
Mo3 O10 1_555 1_555
Mo3 O12 1_555 1_555
Mo4 O13 1_555 1_555
Mo5 O20 1_555 1_555
Mo6 O6 1_555 1_555
Mo6 O20 1_555 1_555
Mo6 O21 1_555 1_555
Mo7 O22 1_555 1_555
Mo7 O29 1_555 1_555
Mo7 O30 1_555 1_555
Mo8 O14 1_555 1_555
Mo8 O29 1_555 1_555
Mo8 O30 1_555 1_555
Mo9 O16 1_555 1_555
Mo9 O35 1_555 1_555
Mo9 O34 1_555 1_555
Mo10 O26 1_555 1_555
Mo10 O34 1_555 1_555
Mo10 O35 1_555 1_555
Mo11 O23 1_555 1_555
Mo11 O24 1_555 1_555
Mo11 O28 1_555 1_555
Mo11 O38 1_555 1_555
Mo11 O39 1_555 1_555
Mo12 O33 1_555 1_555
Mo12 O39 1_555 1_555
Mo12 O38 1_555 1_555
P1 O24 1_555 1_555
P1 O10 1_555 1_555
P1 O18 1_555 1_555
O42 C6 1_555 1_555
O44 C1 1_555 1_555
O46 La3A 1_555 1_555
O48 La4A 1_555 1_555

#END
