
#######################################################################
#
#                 Cambridge Crystallographic Data Centre
#                                CCDC 
#
#######################################################################
#
# If this CIF has been generated from an entry in the Cambridge 
# Structural Database, then it will include bibliographic, chemical, 
# crystal, experimental, refinement or atomic coordinate data resulting 
# from the CCDC's data processing and validation procedures.
#
#######################################################################

data_TAHJIW
_symmetry_cell_setting           triclinic
_symmetry_space_group_name_H-M   'P -1'
_symmetry_Int_Tables_number      2
_space_group_name_Hall           '-P 1'
loop_
_symmetry_equiv_pos_site_id
_symmetry_equiv_pos_as_xyz
1 x,y,z
2 -x,-y,-z
_cell_length_a                   9.160(3)
_cell_length_b                   10.587(4)
_cell_length_c                   11.457(4)
_cell_angle_alpha                69.381(6)
_cell_angle_beta                 89.914(7)
_cell_angle_gamma                69.338(7)
_cell_volume                     963.398
loop_
_atom_site_label
_atom_site_type_symbol
_atom_site_fract_x
_atom_site_fract_y
_atom_site_fract_z
Zn1 Zn 0.5000 0.0000 0.5000
C1 C 0.0688(6) 0.4758(5) 0.7151(4)
H1 H -0.0383 0.4788 0.7149
H2 H 0.0643 0.5737 0.6686
C2 C 0.1452(7) 0.4238(6) 0.8515(4)
H3 H 0.2508 0.4245 0.8513
H4 H 0.0848 0.4910 0.8894
C3 C 0.1536(7) 0.2714(6) 0.9304(5)
H5 H 0.0475 0.2719 0.9319
H6 H 0.2110 0.2052 0.8904
N1 N 0.3398(5) 0.1722(4) 0.5518(4)
C4 C 0.1924(6) 0.1866(6) 0.5745(5)
H7 H 0.1495 0.1267 0.5568
C5 C 0.1011(6) 0.2860(6) 0.6228(5)
H8 H -0.0007 0.2916 0.6366
C6 C 0.1592(6) 0.3772(5) 0.6509(4)
C7 C 0.3080(7) 0.3647(6) 0.6247(6)
H9 H 0.3519 0.4256 0.6393
C8 C 0.3934(7) 0.2631(6) 0.5769(6)
H10 H 0.4947 0.2574 0.5612
N2 N 0.3818(5) 0.1001(4) 1.3121(3)
C9 C 0.4622(6) 0.1221(6) 1.2134(5)
H11 H 0.5701 0.0985 1.2285
C10 C 0.3913(7) 0.1779(7) 1.0914(5)
H12 H 0.4516 0.1909 1.0261
C11 C 0.2324(6) 0.2148(6) 1.0642(4)
C12 C 0.1499(6) 0.1958(6) 1.1644(5)
H13 H 0.0414 0.2219 1.1508
C13 C 0.2273(6) 0.1380(6) 1.2853(5)
H14 H 0.1686 0.1248 1.3517
Cl1 Cl 0.75150(16) 0.20734(15) 0.40650(13)
O1 O 0.6699(5) 0.1125(4) 0.4453(4)
O2 O 0.7953(10) 0.2361(9) 0.5045(6)
O3 O 0.8734(8) 0.1538(8) 0.3484(8)
O4 O 0.6472(10) 0.3387(7) 0.3200(7)
C1A C 0.9312(6) -0.4758(5) 0.2849(4)
H1A H 1.0383 -0.4788 0.2851
H2A H 0.9357 -0.5737 0.3314
C2A C 0.8548(7) -0.4238(6) 0.1485(4)
H3A H 0.7492 -0.4245 0.1487
H4A H 0.9152 -0.4910 0.1106
C3A C 0.8464(7) -0.2714(6) 0.0696(5)
H5A H 0.9525 -0.2719 0.0681
H6A H 0.7890 -0.2052 0.1096
N1A N 0.6602(5) -0.1722(4) 0.4482(4)
C4A C 0.8076(6) -0.1866(6) 0.4255(5)
H7A H 0.8505 -0.1267 0.4432
C5A C 0.8989(6) -0.2860(6) 0.3772(5)
H8A H 1.0007 -0.2916 0.3634
C6A C 0.8408(6) -0.3772(5) 0.3491(4)
C7A C 0.6920(7) -0.3647(6) 0.3753(6)
H9A H 0.6481 -0.4256 0.3607
C8A C 0.6066(7) -0.2631(6) 0.4231(6)
H10A H 0.5053 -0.2574 0.4388
N2A N 0.6182(5) -0.1001(4) -0.3121(3)
C9A C 0.5378(6) -0.1221(6) -0.2134(5)
H11A H 0.4299 -0.0985 -0.2285
C10A C 0.6087(7) -0.1779(7) -0.0914(5)
H12A H 0.5484 -0.1909 -0.0261
C11A C 0.7676(6) -0.2148(6) -0.0642(4)
C12A C 0.8501(6) -0.1958(6) -0.1644(5)
H13A H 0.9586 -0.2219 -0.1508
C13A C 0.7727(6) -0.1380(6) -0.2853(5)
H14A H 0.8314 -0.1248 -0.3517
Cl1A Cl 0.24850(16) -0.20734(15) 0.59350(13)
O1A O 0.3301(5) -0.1125(4) 0.5547(4)
O2A O 0.2047(10) -0.2361(9) 0.4955(6)
O3A O 0.1266(8) -0.1538(8) 0.6516(8)
O4A O 0.3528(10) -0.3387(7) 0.6800(7)
N2_2 N 0.3818(5) 0.1001(4) 0.3121(3)
N2A_2 N 0.6182(5) -0.1001(4) 0.6879(3)
Zn1_2 Zn 0.5000 0.0000 1.5000
Zn1_3 Zn 0.5000 0.0000 -0.5000
C14 C 0.3369(11) 0.5737(14) 0.1290(19)
H15 H 0.3830 0.4735 0.1500
C15 C 0.2881(12) 0.6688(19) 0.0056(15)
H16 H 0.3014 0.6322 -0.0583
C16 C 0.2226(12) 0.8113(17) -0.0239(11)
H17 H 0.1891 0.8732 -0.1080
C17 C 0.2043(11) 0.8663(13) 0.0639(12)
H18 H 0.1585 0.9668 0.0410
C18 C 0.2502(11) 0.7807(15) 0.1853(11)
H19 H 0.2377 0.8230 0.2452
C19 C 0.3139(11) 0.6351(16) 0.2232(11)
H20 H 0.3421 0.5762 0.3083
loop_
_geom_bond_atom_site_label_1
_geom_bond_atom_site_label_2
_geom_bond_site_symmetry_1
_geom_bond_site_symmetry_2
Zn1 N1 1_555 1_555
C1 H1 1_555 1_555
H2 C1 1_555 1_555
C2 C1 1_555 1_555
H3 C2 1_555 1_555
H4 C2 1_555 1_555
C3 C2 1_555 1_555
H5 C3 1_555 1_555
H6 C3 1_555 1_555
N1 C4 1_555 1_555
C4 H7 1_555 1_555
C5 C4 1_555 1_555
H8 C5 1_555 1_555
C6 C1 1_555 1_555
C7 C6 1_555 1_555
H9 C7 1_555 1_555
C8 N1 1_555 1_555
H10 C8 1_555 1_555
N2 C9 1_555 1_555
C9 H11 1_555 1_555
C10 C9 1_555 1_555
H12 C10 1_555 1_555
C11 C3 1_555 1_555
C12 C11 1_555 1_555
H13 C12 1_555 1_555
C13 N2 1_555 1_555
H14 C13 1_555 1_555
Cl1 O1 1_555 1_555
O1 Zn1 1_555 1_555
O2 Cl1 1_555 1_555
O3 Cl1 1_555 1_555
O4 Cl1 1_555 1_555
C14 H15 1_555 1_555
C15 C14 1_555 1_555
H16 C15 1_555 1_555
C16 C15 1_555 1_555
H17 C16 1_555 1_555
C17 C16 1_555 1_555
H18 C17 1_555 1_555
C18 C17 1_555 1_555
H19 C18 1_555 1_555
C19 C14 1_555 1_555
H20 C19 1_555 1_555
C1A H1A 1_555 1_555
H2A C1A 1_555 1_555
C2A C1A 1_555 1_555
H3A C2A 1_555 1_555
H4A C2A 1_555 1_555
C3A C2A 1_555 1_555
H5A C3A 1_555 1_555
H6A C3A 1_555 1_555
N1A Zn1 1_555 1_555
C4A N1A 1_555 1_555
H7A C4A 1_555 1_555
C5A C4A 1_555 1_555
H8A C5A 1_555 1_555
C6A C1A 1_555 1_555
C7A C6A 1_555 1_555
H9A C7A 1_555 1_555
C8A N1A 1_555 1_555
H10A C8A 1_555 1_555
N2A C9A 1_555 1_555
C9A H11A 1_555 1_555
C10A C9A 1_555 1_555
H12A C10A 1_555 1_555
C11A C3A 1_555 1_555
C12A C11A 1_555 1_555
H13A C12A 1_555 1_555
C13A N2A 1_555 1_555
H14A C13A 1_555 1_555
Cl1A O1A 1_555 1_555
O1A Zn1 1_555 1_555
O2A Cl1A 1_555 1_555
O3A Cl1A 1_555 1_555
O4A Cl1A 1_555 1_555
N2_2 Zn1 1_555 1_555
N2A_2 Zn1 1_555 1_555
Zn1_2 N2 1_555 1_555
Zn1_3 N2A 1_555 1_555
C5 C6 1_555 1_555
C7 C8 1_555 1_555
C10 C11 1_555 1_555
C12 C13 1_555 1_555
C18 C19 1_555 1_555
C5A C6A 1_555 1_555
C7A C8A 1_555 1_555
C10A C11A 1_555 1_555
C12A C13A 1_555 1_555

#END
