
#######################################################################
#
#                 Cambridge Crystallographic Data Centre
#                                CCDC 
#
#######################################################################
#
# If this CIF has been generated from an entry in the Cambridge 
# Structural Database, then it will include bibliographic, chemical, 
# crystal, experimental, refinement or atomic coordinate data resulting 
# from the CCDC's data processing and validation procedures.
#
#######################################################################

data_TAHJES
_symmetry_cell_setting           triclinic
_symmetry_space_group_name_H-M   'P -1'
_symmetry_Int_Tables_number      2
_space_group_name_Hall           '-P 1'
loop_
_symmetry_equiv_pos_site_id
_symmetry_equiv_pos_as_xyz
1 x,y,z
2 -x,-y,-z
_cell_length_a                   9.142(2)
_cell_length_b                   10.582(3)
_cell_length_c                   11.491(3)
_cell_angle_alpha                110.216(4)
_cell_angle_beta                 90.116(4)
_cell_angle_gamma                110.499(4)
_cell_volume                     967.491
loop_
_atom_site_label
_atom_site_type_symbol
_atom_site_fract_x
_atom_site_fract_y
_atom_site_fract_z
Co1 Co 0.5000 0.5000 0.5000
C1 C 0.0739(6) 0.0234(4) 0.7169(4)
H1 H 0.0708 -0.0739 0.6719
H2 H -0.0339 0.0193 0.7162
C2 C 0.1499(6) 0.0763(5) 0.8524(4)
H3 H 0.2560 0.0762 0.8529
H4 H 0.0899 0.0096 0.8910
C3 C 0.1569(6) 0.2295(5) 0.9297(4)
H5 H 0.2149 0.2954 0.8899
H6 H 0.0505 0.2287 0.9300
N1 N 0.3421(4) 0.3261(4) 0.5520(3)
C4 C 0.1944(5) 0.3093(5) 0.5715(4)
H7 H 0.1506 0.3678 0.5518
C5 C 0.1026(5) 0.2097(5) 0.6195(4)
H8 H -0.0007 0.2018 0.6301
C6 C 0.1628(5) 0.1215(4) 0.6518(4)
C7 C 0.3158(6) 0.1371(5) 0.6286(5)
H9 H 0.3614 0.0784 0.6459
C8 C 0.4006(6) 0.2385(6) 0.5805(5)
H10 H 0.5034 0.2469 0.5670
N2 N 0.3818(4) 0.3998(4) 1.3112(3)
C9 C 0.4636(6) 0.3800(6) 1.2143(4)
H11 H 0.5718 0.4049 1.2305
C10 C 0.3943(6) 0.3245(6) 1.0919(4)
H12 H 0.4560 0.3131 1.0277
C11 C 0.2338(5) 0.2855(5) 1.0631(4)
C12 C 0.1500(5) 0.3035(5) 1.1630(4)
H13 H 0.0412 0.2765 1.1492
C13 C 0.2281(5) 0.3619(5) 1.2843(4)
H14 H 0.1692 0.3751 1.3502
Cl1 Cl 0.24947(13) 0.70362(12) 0.59484(11)
O1 O 0.3269(4) 0.6044(4) 0.5496(4)
O2 O 0.2014(9) 0.7368(8) 0.4993(6)
O3 O 0.1300(7) 0.6515(7) 0.6573(7)
O4 O 0.3603(8) 0.8336(6) 0.6785(6)
C1A C 0.9261(6) 0.9766(4) 0.2831(4)
H1A H 0.9292 1.0739 0.3281
H2A H 1.0339 0.9807 0.2838
C2A C 0.8501(6) 0.9237(5) 0.1476(4)
H3A H 0.7440 0.9238 0.1471
H4A H 0.9101 0.9904 0.1090
C3A C 0.8431(6) 0.7705(5) 0.0703(4)
H5A H 0.7851 0.7046 0.1101
H6A H 0.9495 0.7713 0.0700
N1A N 0.6579(4) 0.6739(4) 0.4480(3)
C4A C 0.8056(5) 0.6907(5) 0.4285(4)
H7A H 0.8494 0.6322 0.4482
C5A C 0.8974(5) 0.7903(5) 0.3805(4)
H8A H 1.0007 0.7982 0.3699
C6A C 0.8372(5) 0.8785(4) 0.3482(4)
C7A C 0.6842(6) 0.8629(5) 0.3714(5)
H9A H 0.6386 0.9216 0.3541
C8A C 0.5994(6) 0.7615(6) 0.4195(5)
H10A H 0.4966 0.7531 0.4330
N2A N 0.6182(4) 0.6002(4) -0.3112(3)
C9A C 0.5364(6) 0.6200(6) -0.2143(4)
H11A H 0.4282 0.5951 -0.2305
C10A C 0.6057(6) 0.6755(6) -0.0919(4)
H12A H 0.5440 0.6869 -0.0277
C11A C 0.7662(5) 0.7145(5) -0.0631(4)
C12A C 0.8500(5) 0.6965(5) -0.1630(4)
H13A H 0.9588 0.7235 -0.1492
C13A C 0.7719(5) 0.6381(5) -0.2843(4)
H14A H 0.8308 0.6249 -0.3502
Cl1A Cl 0.75053(13) 0.29638(12) 0.40516(11)
O1A O 0.6731(4) 0.3956(4) 0.4504(4)
O2A O 0.7986(9) 0.2632(8) 0.5007(6)
O3A O 0.8700(7) 0.3485(7) 0.3427(7)
O4A O 0.6397(8) 0.1664(6) 0.3215(6)
N2_2 N 0.3818(4) 0.3998(4) 0.3112(3)
N2A_2 N 0.6182(4) 0.6002(4) 0.6888(3)
Co1_2 Co 0.5000 0.5000 1.5000
Co1_3 Co 0.5000 0.5000 -0.5000
C14 C 0.6684(9) 0.0776(10) 0.8808(16)
H15 H 0.6247 -0.0212 0.8661
C15 C 0.7150(10) 0.1779(15) 0.9986(11)
H16 H 0.6995 0.1456 1.0650
C16 C 0.7809(11) 0.3179(13) 1.0245(11)
H17 H 0.8131 0.3822 1.1072
C17 C 0.7539(10) 0.2798(13) 0.8107(10)
H18 H 0.7653 0.3213 0.7503
C18 C 0.8007(11) 0.3662(12) 0.9338(11)
H19 H 0.8499 0.4658 0.9542
C19 C 0.6895(10) 0.1310(15) 0.7755(10)
H20 H 0.6613 0.0685 0.6920
loop_
_geom_bond_atom_site_label_1
_geom_bond_atom_site_label_2
_geom_bond_site_symmetry_1
_geom_bond_site_symmetry_2
Co1 N1 1_555 1_555
C1 H1 1_555 1_555
H2 C1 1_555 1_555
C2 C1 1_555 1_555
H3 C2 1_555 1_555
H4 C2 1_555 1_555
C3 C2 1_555 1_555
H5 C3 1_555 1_555
H6 C3 1_555 1_555
N1 C4 1_555 1_555
C4 H7 1_555 1_555
C5 C4 1_555 1_555
H8 C5 1_555 1_555
C6 C1 1_555 1_555
C7 C6 1_555 1_555
H9 C7 1_555 1_555
C8 N1 1_555 1_555
H10 C8 1_555 1_555
N2 C9 1_555 1_555
C9 H11 1_555 1_555
C10 C9 1_555 1_555
H12 C10 1_555 1_555
C11 C3 1_555 1_555
C12 C11 1_555 1_555
H13 C12 1_555 1_555
C13 N2 1_555 1_555
H14 C13 1_555 1_555
Cl1 O1 1_555 1_555
O1 Co1 1_555 1_555
O2 Cl1 1_555 1_555
O3 Cl1 1_555 1_555
O4 Cl1 1_555 1_555
C14 H15 1_555 1_555
C15 C14 1_555 1_555
H16 C15 1_555 1_555
C16 C15 1_555 1_555
H17 C16 1_555 1_555
C17 H18 1_555 1_555
C18 C16 1_555 1_555
H19 C18 1_555 1_555
C19 C14 1_555 1_555
H20 C19 1_555 1_555
C1A H1A 1_555 1_555
H2A C1A 1_555 1_555
C2A C1A 1_555 1_555
H3A C2A 1_555 1_555
H4A C2A 1_555 1_555
C3A C2A 1_555 1_555
H5A C3A 1_555 1_555
H6A C3A 1_555 1_555
N1A Co1 1_555 1_555
C4A N1A 1_555 1_555
H7A C4A 1_555 1_555
C5A C4A 1_555 1_555
H8A C5A 1_555 1_555
C6A C1A 1_555 1_555
C7A C6A 1_555 1_555
H9A C7A 1_555 1_555
C8A N1A 1_555 1_555
H10A C8A 1_555 1_555
N2A C9A 1_555 1_555
C9A H11A 1_555 1_555
C10A C9A 1_555 1_555
H12A C10A 1_555 1_555
C11A C3A 1_555 1_555
C12A C11A 1_555 1_555
H13A C12A 1_555 1_555
C13A N2A 1_555 1_555
H14A C13A 1_555 1_555
Cl1A O1A 1_555 1_555
O1A Co1 1_555 1_555
O2A Cl1A 1_555 1_555
O3A Cl1A 1_555 1_555
O4A Cl1A 1_555 1_555
N2_2 Co1 1_555 1_555
N2A_2 Co1 1_555 1_555
Co1_2 N2 1_555 1_555
Co1_3 N2A 1_555 1_555
C5 C6 1_555 1_555
C7 C8 1_555 1_555
C10 C11 1_555 1_555
C12 C13 1_555 1_555
C17 C18 1_555 1_555
C17 C19 1_555 1_555
C5A C6A 1_555 1_555
C7A C8A 1_555 1_555
C10A C11A 1_555 1_555
C12A C13A 1_555 1_555

#END
