
#######################################################################
#
#                 Cambridge Crystallographic Data Centre
#                                CCDC 
#
#######################################################################
#
# If this CIF has been generated from an entry in the Cambridge 
# Structural Database, then it will include bibliographic, chemical, 
# crystal, experimental, refinement or atomic coordinate data resulting 
# from the CCDC's data processing and validation procedures.
#
#######################################################################

data_TAHQEA
_symmetry_cell_setting           triclinic
_symmetry_space_group_name_H-M   'P -1'
_symmetry_Int_Tables_number      2
_space_group_name_Hall           '-P 1'
loop_
_symmetry_equiv_pos_site_id
_symmetry_equiv_pos_as_xyz
1 x,y,z
2 -x,-y,-z
_cell_length_a                   9.8756(4)
_cell_length_b                   10.1142(4)
_cell_length_c                   11.6938(5)
_cell_angle_alpha                112.73
_cell_angle_beta                 92.46
_cell_angle_gamma                112.28
_cell_volume                     972.018
loop_
_atom_site_label
_atom_site_type_symbol
_atom_site_fract_x
_atom_site_fract_y
_atom_site_fract_z
Cu1 Cu 0.05248(3) -0.91716(3) -0.80571(2)
O1 O 0.08431(15) -1.11579(16) -0.89900(14)
O2 O 0.26940(15) -0.88142(17) -0.79037(14)
O3 O 0.15670(15) 1.01115(17) -0.11978(13)
O4 O 0.21900(17) 0.88043(19) -0.29746(14)
O5 O 0.11661(17) -0.14692(17) -0.58375(15)
N1 N 0.09810(18) -0.68767(19) -0.74543(16)
C1 C 0.6658(2) 1.0950(2) -0.09548(19)
C2 C 0.5149(2) 1.0070(2) -0.15507(18)
H1 H 0.4812 0.9045 -0.2238
C3 C 0.4132(2) 1.0696(2) -0.11366(19)
C4 C 0.6137(2) 1.3081(2) 0.05137(19)
C5 C 0.7147(2) 1.2449(2) 0.00564(19)
H2 H 0.8187 1.3053 0.0443
C6 C 0.6727(2) 1.4713(2) 0.1663(2)
C7 C 0.7494(3) 1.4661(3) 0.2798(2)
H3 H 0.6765 1.3872 0.3017
H4 H 0.8320 1.4370 0.2576
H5 H 0.7889 1.5708 0.3527
C8 C 0.7887(3) 1.5980(3) 0.1342(2)
H6 H 0.7403 1.6033 0.0621
H7 H 0.8278 1.7016 0.2082
H8 H 0.8715 1.5693 0.1119
C9 C 0.2506(2) 0.9770(2) -0.1848(2)
C10 C 0.2244(2) -1.0280(2) -0.86292(19)
C11 C 0.1181(3) -0.5947(3) -0.6216(2)
H9 H 0.1044 -0.6414 -0.5639
C12 C 0.1578(3) -0.4339(3) -0.5747(2)
H10 H 0.1703 -0.3716 -0.4865
C13 C 0.1578(2) -0.4606(3) -0.7863(2)
H11 H 0.1710 -0.4167 -0.8459
C14 C 0.1172(2) -0.6210(2) -0.8258(2)
H12 H 0.1023 -0.6862 -0.9137
C15 C 0.4141(2) 0.0805(2) -0.5223(2)
H13 H 0.3272 0.1066 -0.5097
H14 H 0.4699 0.1312 -0.5738
N2 N 0.3618(2) -0.0925(2) -0.58870(17)
C16 C 0.4845(2) -0.1418(2) -0.6052(2)
H15 H 0.5438 -0.1000 -0.6597
H16 H 0.4422 -0.2591 -0.6482
C17 C 0.1789(2) -0.3653(2) -0.6582(2)
C18 C 0.2178(2) -0.1906(2) -0.60709(19)
C19 C 0.5480(3) 1.5213(3) 0.2037(3)
H17 H 0.4730 1.4422 0.2242
H18 H 0.5902 1.6247 0.2782
H19 H 0.5005 1.5292 0.1328
C20 C 0.4629(2) 1.2177(2) -0.00938(19)
H20 H 0.3920 1.2576 0.0208
O6 O 0.04576(19) -0.92302(19) -0.61901(15)
H21 H 0.056(3) -0.999(3) -0.613(3)
H22 H -0.026(2) -0.915(3) -0.588(2)
Cu1A Cu 0.94752(3) 0.91716(3) -0.19429(2)
Cu1A_2 Cu -0.05248(3) 0.91716(3) -0.19429(2)
Cu1_2 Cu 1.05248(3) -0.91716(3) -0.80571(2)
O1A O 0.91569(15) 1.11579(16) -0.10100(14)
O2A O 0.73060(15) 0.88142(17) -0.20963(14)
O3_2 O 1.15670(15) 1.01115(17) -0.11978(13)
O3A O -0.15670(15) -1.01115(17) -0.88022(13)
O3A_2 O 0.84330(15) -1.01115(17) -0.88022(13)
O4A O 0.78100(17) -0.88043(19) -0.70254(14)
O5A O 0.88339(17) 0.14692(17) -0.41625(15)
N1A N 0.90190(18) 0.68767(19) -0.25457(16)
C1A C 0.3342(2) -1.0950(2) -0.90452(19)
C2A C 0.4851(2) -1.0070(2) -0.84493(18)
H1A H 0.5188 -0.9045 -0.7762
C3A C 0.5868(2) -1.0696(2) -0.88634(19)
C4A C 0.3863(2) -1.3081(2) -1.05137(19)
C5A C 0.2853(2) -1.2449(2) -1.00564(19)
H2A H 0.1813 -1.3053 -1.0443
C6A C 0.3273(2) -1.4713(2) -1.1663(2)
C7A C 0.2506(3) -1.4661(3) -1.2798(2)
H3A H 0.3235 -1.3872 -1.3017
H4A H 0.1680 -1.4370 -1.2576
H5A H 0.2111 -1.5708 -1.3527
C8A C 0.2113(3) -1.5980(3) -1.1342(2)
H6A H 0.2597 -1.6033 -1.0621
H7A H 0.1722 -1.7016 -1.2082
H8A H 0.1285 -1.5693 -1.1119
C9A C 0.7494(2) -0.9770(2) -0.8152(2)
C10A C 0.7756(2) 1.0280(2) -0.13708(19)
C11A C 0.8819(3) 0.5947(3) -0.3784(2)
H9A H 0.8956 0.6414 -0.4361
C12A C 0.8422(3) 0.4339(3) -0.4253(2)
H10A H 0.8297 0.3716 -0.5135
C13A C 0.8422(2) 0.4606(3) -0.2137(2)
H11A H 0.8290 0.4167 -0.1541
C14A C 0.8828(2) 0.6210(2) -0.1742(2)
H12A H 0.8977 0.6862 -0.0863
C15A C 0.5859(2) -0.0805(2) -0.4777(2)
H13A H 0.6728 -0.1066 -0.4903
H14A H 0.5301 -0.1312 -0.4262
N2A N 0.6382(2) 0.0925(2) -0.41130(17)
C16A C 0.5155(2) 0.1418(2) -0.3948(2)
H15A H 0.4562 0.1000 -0.3403
H16A H 0.5578 0.2591 -0.3518
C17A C 0.8211(2) 0.3653(2) -0.3418(2)
C18A C 0.7822(2) 0.1906(2) -0.39291(19)
C19A C 0.4520(3) -1.5213(3) -1.2037(3)
H17A H 0.5270 -1.4422 -1.2242
H18A H 0.4098 -1.6247 -1.2782
H19A H 0.4995 -1.5292 -1.1328
C20A C 0.5371(2) -1.2177(2) -0.99062(19)
H20A H 0.6080 -1.2576 -1.0208
O6A O 0.95424(19) 0.92302(19) -0.38099(15)
H21A H 0.944(3) 0.999(3) -0.387(3)
H22A H 1.026(2) 0.915(3) -0.412(2)
loop_
_geom_bond_atom_site_label_1
_geom_bond_atom_site_label_2
_geom_bond_site_symmetry_1
_geom_bond_site_symmetry_2
Cu1 O1 1_555 1_555
O1 C10 1_555 1_555
O2 Cu1 1_555 1_555
O3 C9 1_555 1_555
O4 C9 1_555 1_555
O5 C18 1_555 1_555
N1 Cu1 1_555 1_555
C1 C2 1_555 1_555
C2 H1 1_555 1_555
C3 C2 1_555 1_555
C4 C5 1_555 1_555
C5 C1 1_555 1_555
H2 C5 1_555 1_555
C6 C4 1_555 1_555
C7 C6 1_555 1_555
H3 C7 1_555 1_555
H4 C7 1_555 1_555
H5 C7 1_555 1_555
C8 C6 1_555 1_555
H6 C8 1_555 1_555
H7 C8 1_555 1_555
H8 C8 1_555 1_555
C9 C3 1_555 1_555
C10 O2 1_555 1_555
C11 N1 1_555 1_555
H9 C11 1_555 1_555
C12 C11 1_555 1_555
H10 C12 1_555 1_555
C13 H11 1_555 1_555
C14 N1 1_555 1_555
H12 C14 1_555 1_555
C15 H13 1_555 1_555
H14 C15 1_555 1_555
N2 C15 1_555 1_555
C16 N2 1_555 1_555
H15 C16 1_555 1_555
H16 C16 1_555 1_555
C17 C12 1_555 1_555
C18 N2 1_555 1_555
C19 C6 1_555 1_555
H17 C19 1_555 1_555
H18 C19 1_555 1_555
H19 C19 1_555 1_555
C20 C3 1_555 1_555
H20 C20 1_555 1_555
O6 Cu1 1_555 1_555
H21 O6 1_555 1_555
H22 O6 1_555 1_555
Cu1A O1A 1_555 1_555
Cu1A_2 O3 1_555 1_555
Cu1_2 O3A_2 1_555 1_555
O1A C10A 1_555 1_555
O2A Cu1A 1_555 1_555
O3_2 Cu1A 1_555 1_555
O3A Cu1 1_555 1_555
O3A_2 C9A 1_555 1_555
O4A C9A 1_555 1_555
O5A C18A 1_555 1_555
N1A Cu1A 1_555 1_555
C1A C10 1_555 1_555
C2A C1A 1_555 1_555
H1A C2A 1_555 1_555
C3A C2A 1_555 1_555
C4A C5A 1_555 1_555
C5A C1A 1_555 1_555
H2A C5A 1_555 1_555
C6A C4A 1_555 1_555
C7A C6A 1_555 1_555
H3A C7A 1_555 1_555
H4A C7A 1_555 1_555
H5A C7A 1_555 1_555
C8A C6A 1_555 1_555
H6A C8A 1_555 1_555
H7A C8A 1_555 1_555
H8A C8A 1_555 1_555
C9A C3A 1_555 1_555
C10A C1 1_555 1_555
C11A N1A 1_555 1_555
H9A C11A 1_555 1_555
C12A C11A 1_555 1_555
H10A C12A 1_555 1_555
C13A H11A 1_555 1_555
C14A N1A 1_555 1_555
H12A C14A 1_555 1_555
C15A C16 1_555 1_555
H13A C15A 1_555 1_555
H14A C15A 1_555 1_555
N2A C15A 1_555 1_555
C16A C15 1_555 1_555
H15A C16A 1_555 1_555
H16A C16A 1_555 1_555
C17A C12A 1_555 1_555
C18A N2A 1_555 1_555
C19A C6A 1_555 1_555
H17A C19A 1_555 1_555
H18A C19A 1_555 1_555
H19A C19A 1_555 1_555
C20A C3A 1_555 1_555
H20A C20A 1_555 1_555
O6A Cu1A 1_555 1_555
H21A O6A 1_555 1_555
H22A O6A 1_555 1_555
C4 C20 1_555 1_555
C13 C14 1_555 1_555
C13 C17 1_555 1_555
C17 C18 1_555 1_555
O2A C10A 1_555 1_555
C4A C20A 1_555 1_555
C13A C14A 1_555 1_555
C13A C17A 1_555 1_555
N2A C16A 1_555 1_555
C17A C18A 1_555 1_555

#END
