
#######################################################################
#
#                 Cambridge Crystallographic Data Centre
#                                CCDC 
#
#######################################################################
#
# If this CIF has been generated from an entry in the Cambridge 
# Structural Database, then it will include bibliographic, chemical, 
# crystal, experimental, refinement or atomic coordinate data resulting 
# from the CCDC's data processing and validation procedures.
#
#######################################################################

data_TAHQIE
_symmetry_cell_setting           triclinic
_symmetry_space_group_name_H-M   'P -1'
_symmetry_Int_Tables_number      2
_space_group_name_Hall           '-P 1'
loop_
_symmetry_equiv_pos_site_id
_symmetry_equiv_pos_as_xyz
1 x,y,z
2 -x,-y,-z
_cell_length_a                   12.5500(9)
_cell_length_b                   12.5769(9)
_cell_length_c                   15.4112(11)
_cell_angle_alpha                78.9590(10)
_cell_angle_beta                 68.0470(10)
_cell_angle_gamma                88.5710(10)
_cell_volume                     2211.46
loop_
_atom_site_label
_atom_site_type_symbol
_atom_site_fract_x
_atom_site_fract_y
_atom_site_fract_z
Cu1 Cu 0.52960(3) 0.70862(3) 0.56197(3)
O1 O 0.6352(2) 0.86040(18) 0.55388(16)
O2 O 0.59255(19) 0.64454(19) 0.65579(16)
O3 O 0.44348(18) 0.73385(18) 0.47782(15)
O4 O 0.9982(2) 0.48395(19) 0.25051(17)
O5 O 0.6708(2) 0.9914(2) 0.4259(2)
H1 H 0.617(4) 0.958(4) 0.422(3)
O6 O 0.5396(2) 0.8830(2) 0.37553(17)
O7 O 0.4531(2) 0.51316(19) 0.71671(17)
O8 O 0.4285(2) 1.0414(2) 0.1063(2)
O9 O 0.2898(2) 0.9573(2) 0.08234(19)
H2 H 0.2997 1.0125 0.0392
O10 O 0.8962(2) 0.9509(2) 0.70601(17)
O11 O 0.4814(2) 0.2245(2) 0.98122(18)
H3 H 0.4698 0.1646 1.0193
O12 O 0.6009(3) 0.2546(2) 1.0503(2)
O13 O 0.7464(2) 0.6338(2) 0.91858(17)
O14 O 0.1722(2) 0.62755(19) 0.32701(18)
O15 O 0.9180(2) 1.3042(2) 0.37755(19)
H4 H 0.9559 1.3621 0.3454
O16 O 1.1031(2) 0.9375(2) -0.10194(17)
O17 O 1.0478(2) 1.2931(2) 0.4449(2)
N1 N 1.3970(2) 0.7552(2) -0.33417(18)
N2 N 0.6657(2) 0.6613(2) 0.46056(18)
N3 N 1.0098(2) 0.6496(2) 0.15892(19)
N4 N 1.0505(2) 0.7623(2) -0.02836(19)
C1 C 1.4143(3) 0.8154(3) -0.2769(2)
H5 H 1.4907 0.8395 -0.2894
C2 C 1.3262(3) 0.8435(3) -0.2009(2)
H6 H 1.3414 0.8885 -0.1634
C3 C 1.2886(3) 0.7197(3) -0.3139(2)
H7 H 1.2749 0.6776 -0.3540
C4 C 1.1969(3) 0.7419(3) -0.2375(2)
H8 H 1.1217 0.7140 -0.2244
C5 C 1.2152(3) 0.8056(3) -0.1797(2)
C6 C 0.8609(3) 0.6082(3) 0.3172(2)
C7 C 1.1182(3) 0.8394(3) -0.0985(2)
C8 C 0.9549(3) 0.7921(3) 0.0529(2)
H9 H 0.8827 0.7532 0.0619
H10 H 0.9444 0.8710 0.0392
C9 C 0.4654(3) 0.8065(3) 0.4030(2)
C10 C 0.9630(3) 0.5766(3) 0.2395(2)
C11 C 0.6862(3) 0.9445(3) 0.5040(2)
C12 C 0.7723(3) 1.0015(3) 0.5258(2)
C13 C 0.7983(3) 0.9537(3) 0.6035(2)
H11 H 0.7611 0.8862 0.6410
C14 C 0.8256(3) 1.1004(3) 0.4706(2)
H12 H 0.8069 1.1340 0.4178
C15 C 0.3968(3) 0.7991(3) 0.3422(2)
C16 C 0.4098(3) 0.8806(3) 0.2647(2)
H13 H 0.4635 0.9399 0.2489
C17 C 0.3446(3) 0.8761(3) 0.2095(2)
C18 C 0.2670(3) 0.7890(3) 0.2321(2)
H14 H 0.2231 0.7853 0.1940
C19 C 0.2535(3) 0.7075(3) 0.3103(2)
C20 C 0.3181(3) 0.7114(3) 0.3656(2)
H15 H 0.3089 0.6551 0.4190
C21 C 0.3585(3) 0.9661(3) 0.1277(3)
C22 C 0.5365(3) 0.5622(3) 0.7182(2)
C23 C 0.5775(3) 0.5268(3) 0.7992(2)
C24 C 0.6458(3) 0.5993(3) 0.8170(2)
H16 H 0.6690 0.6687 0.7767
C25 C 0.6795(3) 0.5692(3) 0.8939(2)
C26 C 0.6460(3) 0.4681(3) 0.9514(2)
H17 H 0.6676 0.4481 1.0049
C27 C 0.5813(3) 0.3953(3) 0.9321(2)
C28 C 0.5457(3) 0.4245(3) 0.8561(2)
H18 H 0.5001 0.3750 0.8433
C29 C 0.6574(3) 0.6143(3) 0.3920(2)
H19 H 0.5830 0.5995 0.3931
C30 C 0.7514(3) 0.5865(3) 0.3202(2)
H20 H 0.7417 0.5529 0.2733
C31 C 0.8707(3) 0.6539(3) 0.3888(2)
H21 H 0.9443 0.6685 0.3895
C32 C 0.7722(3) 0.6781(3) 0.4593(2)
H22 H 0.7797 0.7079 0.5091
C33 C 1.1032(3) 0.6202(3) 0.0777(2)
H23 H 1.1147 0.5415 0.0915
H24 H 1.1755 0.6600 0.0671
C34 C 0.9800(3) 0.7631(3) 0.1426(2)
H25 H 1.0447 0.8108 0.1373
H26 H 0.9117 0.7754 0.1978
C35 C 1.0754(3) 0.6475(3) -0.0106(2)
H27 H 1.1414 0.6320 -0.0660
H28 H 1.0079 0.6019 -0.0026
C36 C 0.9064(3) 1.1494(3) 0.4936(2)
C37 C 0.9332(3) 1.1011(3) 0.5709(2)
H29 H 0.9895 1.1350 0.5854
C38 C 0.8783(3) 1.0035(3) 0.6273(2)
C39 C 0.9663(3) 1.2556(3) 0.4367(2)
C40 C 0.9731(3) 1.0024(3) 0.7358(3)
H30 H 1.0508 1.0083 0.6867
H31 H 0.9736 0.9593 0.7958
H32 H 0.9476 1.0751 0.7454
C41 C 0.5554(3) 0.2861(3) 0.9944(3)
C42 C 0.1620(3) 0.5352(3) 0.4011(3)
H33 H 0.2363 0.5015 0.3875
H34 H 0.1040 0.4825 0.4039
H35 H 0.1387 0.5584 0.4625
C43 C 0.7945(4) 0.7338(3) 0.8548(3)
H36 H 0.8429 0.7194 0.7920
H37 H 0.8413 0.7709 0.8797
H38 H 0.7325 0.7798 0.8489
Cu1_2 Cu 1.52960(3) 0.70862(3) -0.43803(3)
N1_2 N 0.3970(2) 0.7552(2) 0.66583(18)
O18 O 0.2581(2) 0.1135(2) 0.7934(2)
H39 H 0.314(4) 0.107(4) 0.744(3)
H40 H 0.216(4) 0.053(4) 0.814(3)
O19 O 0.3052(3) 0.1260(3) 0.9497(2)
H41 H 0.361(4) 0.188(4) 0.934(3)
H42 H 0.301(4) 0.111(4) 0.898(4)
O20 O 0.2487(3) 0.4534(3) 0.8891(2)
H43 H 0.313(4) 0.475(4) 0.846(4)
H44 H 0.268(4) 0.406(4) 0.943(4)
loop_
_geom_bond_atom_site_label_1
_geom_bond_atom_site_label_2
_geom_bond_site_symmetry_1
_geom_bond_site_symmetry_2
Cu1 O1 1_555 1_555
O1 C11 1_555 1_555
O2 Cu1 1_555 1_555
O3 Cu1 1_555 1_555
O4 C10 1_555 1_555
O5 H1 1_555 1_555
O6 C9 1_555 1_555
O7 C22 1_555 1_555
O8 C21 1_555 1_555
O9 H2 1_555 1_555
O10 C38 1_555 1_555
O11 H3 1_555 1_555
O12 C41 1_555 1_555
O13 C25 1_555 1_555
O14 C19 1_555 1_555
O15 H4 1_555 1_555
O16 C7 1_555 1_555
O17 C39 1_555 1_555
N1 C1 1_555 1_555
N2 Cu1 1_555 1_555
N3 C10 1_555 1_555
N4 C7 1_555 1_555
C1 H5 1_555 1_555
C2 C1 1_555 1_555
H6 C2 1_555 1_555
C3 N1 1_555 1_555
H7 C3 1_555 1_555
C4 C3 1_555 1_555
H8 C4 1_555 1_555
C5 C2 1_555 1_555
C6 C10 1_555 1_555
C7 C5 1_555 1_555
C8 N4 1_555 1_555
H9 C8 1_555 1_555
H10 C8 1_555 1_555
C9 O3 1_555 1_555
C11 O5 1_555 1_555
C12 C11 1_555 1_555
C13 C12 1_555 1_555
H11 C13 1_555 1_555
C14 C12 1_555 1_555
H12 C14 1_555 1_555
C15 C9 1_555 1_555
C16 C15 1_555 1_555
H13 C16 1_555 1_555
C17 C16 1_555 1_555
C18 C17 1_555 1_555
H14 C18 1_555 1_555
C19 C18 1_555 1_555
C20 C15 1_555 1_555
H15 C20 1_555 1_555
C21 O9 1_555 1_555
C22 O2 1_555 1_555
C23 C22 1_555 1_555
C24 C23 1_555 1_555
H16 C24 1_555 1_555
C25 C24 1_555 1_555
C26 C25 1_555 1_555
H17 C26 1_555 1_555
C27 C26 1_555 1_555
C28 C23 1_555 1_555
H18 C28 1_555 1_555
C29 N2 1_555 1_555
H19 C29 1_555 1_555
C30 C6 1_555 1_555
H20 C30 1_555 1_555
C31 C6 1_555 1_555
H21 C31 1_555 1_555
C32 N2 1_555 1_555
H22 C32 1_555 1_555
C33 N3 1_555 1_555
H23 C33 1_555 1_555
H24 C33 1_555 1_555
C34 N3 1_555 1_555
H25 C34 1_555 1_555
H26 C34 1_555 1_555
C35 N4 1_555 1_555
H27 C35 1_555 1_555
H28 C35 1_555 1_555
C36 C14 1_555 1_555
C37 C36 1_555 1_555
H29 C37 1_555 1_555
C38 C13 1_555 1_555
C39 O15 1_555 1_555
C40 O10 1_555 1_555
H30 C40 1_555 1_555
H31 C40 1_555 1_555
H32 C40 1_555 1_555
C41 O11 1_555 1_555
C42 O14 1_555 1_555
H33 C42 1_555 1_555
H34 C42 1_555 1_555
H35 C42 1_555 1_555
C43 O13 1_555 1_555
H36 C43 1_555 1_555
H37 C43 1_555 1_555
H38 C43 1_555 1_555
O18 H39 1_555 1_555
H40 O18 1_555 1_555
O19 H41 1_555 1_555
H42 O19 1_555 1_555
O20 H43 1_555 1_555
H44 O20 1_555 1_555
Cu1_2 N1 1_555 1_555
N1_2 Cu1 1_555 1_555
C4 C5 1_555 1_555
C8 C34 1_555 1_555
C17 C21 1_555 1_555
C19 C20 1_555 1_555
C27 C28 1_555 1_555
C27 C41 1_555 1_555
C29 C30 1_555 1_555
C31 C32 1_555 1_555
C33 C35 1_555 1_555
C36 C39 1_555 1_555
C37 C38 1_555 1_555

#END
