
#######################################################################
#
#                 Cambridge Crystallographic Data Centre
#                                CCDC 
#
#######################################################################
#
# If this CIF has been generated from an entry in the Cambridge 
# Structural Database, then it will include bibliographic, chemical, 
# crystal, experimental, refinement or atomic coordinate data resulting 
# from the CCDC's data processing and validation procedures.
#
#######################################################################

data_TAHQUQ
_symmetry_cell_setting           triclinic
_symmetry_space_group_name_H-M   'P -1'
_symmetry_Int_Tables_number      2
_space_group_name_Hall           '-P 1'
loop_
_symmetry_equiv_pos_site_id
_symmetry_equiv_pos_as_xyz
1 x,y,z
2 -x,-y,-z
_cell_length_a                   10.4264(9)
_cell_length_b                   12.1568(11)
_cell_length_c                   13.6373(12)
_cell_angle_alpha                71.8620(10)
_cell_angle_beta                 67.9350(10)
_cell_angle_gamma                68.8170(10)
_cell_volume                     1462.55
loop_
_atom_site_label
_atom_site_type_symbol
_atom_site_fract_x
_atom_site_fract_y
_atom_site_fract_z
Co1 Co 0.86313(4) 0.90339(4) 0.65096(4)
O1 O 0.9180(3) 1.3923(3) 0.2205(4)
O2 O 0.9203(2) 1.1455(2) 0.45235(18)
O3 O 1.0561(2) 1.2035(2) 0.2280(2)
O4 O 0.7878(2) 1.0151(2) 0.52333(19)
O5 O 0.9115(3) 1.0570(2) 0.6630(2)
H1 H 0.914(3) 1.0966(17) 0.5973(16)
H2 H 0.9196 0.9871 0.6934
N1 N 0.6545(3) 0.9534(3) 0.7600(2)
N2 N 0.8338(3) 0.7580(3) 0.6090(3)
N3 N 0.1286(3) 1.0245(4) 0.9893(3)
N4 N 0.6326(3) 0.5032(3) 0.5060(3)
C1 C 0.6069(4) 0.8833(4) 0.8552(3)
H3 H 0.6691 0.8059 0.8738
C2 C 0.4743(5) 0.9165(5) 0.9271(3)
H4 H 0.4457 0.8627 0.9934
C3 C 0.3809(4) 1.0297(5) 0.9029(4)
C4 C 0.4268(5) 1.1017(5) 0.8057(4)
H5 H 0.3661 1.1788 0.7847
C5 C 0.5638(4) 1.0606(4) 0.7379(4)
H6 H 0.5948 1.1127 0.6712
C6 C 0.2348(5) 1.0765(6) 0.9808(5)
H7 H 0.2461 1.0606 1.0532
H8 H 0.2008 1.1649 0.9568
C7 C 0.1149(6) 0.9912(9) 0.9096(6)
H9 H 0.2092 0.9369 0.8779
H10 H 0.0989 1.0646 0.8530
C8 C -0.0072(4) 1.0669(4) 1.0709(3)
H11 H 0.0131 1.0536 1.1397
H12 H -0.0463 1.1547 1.0473
C9 C 0.8358(4) 0.7642(4) 0.5089(4)
H13 H 0.8522 0.8338 0.4556
C10 C 0.8153(5) 0.6745(4) 0.4789(4)
H14 H 0.8186 0.6824 0.4065
C11 C 0.7896(4) 0.5726(4) 0.5565(5)
C12 C 0.7899(5) 0.5662(4) 0.6578(4)
H15 H 0.7736 0.4978 0.7130
C13 C 0.8138(4) 0.6585(4) 0.6805(4)
H16 H 0.8162 0.6503 0.7515
C14 C 0.7654(5) 0.4708(4) 0.5293(5)
H17 H 0.8456 0.4449 0.4660
H18 H 0.7674 0.4013 0.5910
C15 C 0.5079(6) 0.5659(6) 0.5617(8)
H19 H 0.5217 0.6407 0.5656
H20 H 0.4834 0.5187 0.6364
C16 C 0.6189(4) 0.3993(4) 0.4791(4)
H21 H 0.6085 0.3343 0.5443
H22 H 0.7078 0.3678 0.4233
C17 C 0.8292(3) 1.0994(3) 0.4507(3)
C18 C 0.7996(4) 1.2399(3) 0.2724(3)
C19 C 0.7166(4) 1.2933(4) 0.2017(4)
H23 H 0.7435 1.3539 0.1410
C20 C 0.5947(4) 1.2594(4) 0.2185(4)
H24 H 0.5389 1.2962 0.1696
C21 C 0.5562(4) 1.1721(4) 0.3066(3)
H25 H 0.4739 1.1477 0.3182
C22 C 0.6350(4) 1.1203(3) 0.3777(3)
H26 H 0.6059 1.0609 0.4389
C23 C 0.7588(3) 1.1530(3) 0.3623(3)
C24 C 0.9344(4) 1.2829(3) 0.2408(3)
Co1A Co -0.86313(4) 1.09661(4) 1.34904(4)
Co1_2 Co -1.13687(4) 0.90339(4) 1.65096(4)
Co1A_2 Co 0.13687(4) 0.09661(4) 0.34904(4)
Co1A_3 Co 1.13687(4) 1.09661(4) 0.34904(4)
O1A O -0.9180(3) 0.6077(3) 1.7795(4)
O2A O -0.9203(2) 0.8545(2) 1.54765(18)
O2_2 O -1.0797(2) 1.1455(2) 1.45235(18)
O2A_2 O 1.0797(2) 0.8545(2) 0.54765(18)
O3A O -1.0561(2) 0.7965(2) 1.7720(2)
O3_2 O -0.9439(2) 1.2035(2) 1.2280(2)
O3A_2 O 0.9439(2) 0.7965(2) 0.7720(2)
O4A O -0.7878(2) 0.9849(2) 1.47667(19)
O5A O -0.9115(3) 0.9430(2) 1.3370(2)
H1A H -0.914(3) 0.9034(17) 1.4027(16)
H2A H -0.9196 1.0129 1.3066
N1A N -0.6545(3) 1.0466(3) 1.2400(2)
N2A N 0.1662(3) 0.2420(3) 0.3910(3)
N2A_2 N -0.8338(3) 1.2420(3) 1.3910(3)
N3A N -0.1286(3) 0.9755(4) 1.0107(3)
N4A N 0.3674(3) 0.4968(3) 0.4940(3)
C1A C -0.6069(4) 1.1167(4) 1.1448(3)
H3A H -0.6691 1.1941 1.1262
C2A C -0.4743(5) 1.0835(5) 1.0729(3)
H4A H -0.4457 1.1373 1.0066
C3A C -0.3809(4) 0.9703(5) 1.0971(4)
C4A C -0.4268(5) 0.8983(5) 1.1943(4)
H5A H -0.3661 0.8212 1.2153
C5A C -0.5638(4) 0.9394(4) 1.2621(4)
H6A H -0.5948 0.8873 1.3288
C6A C -0.2348(5) 0.9235(6) 1.0192(5)
H7A H -0.2461 0.9394 0.9468
H8A H -0.2008 0.8351 1.0432
C7A C -0.1149(6) 1.0088(9) 1.0904(6)
H9A H -0.2092 1.0631 1.1221
H10A H -0.0989 0.9354 1.1470
C8A C 0.0072(4) 0.9331(4) 0.9291(3)
H11A H -0.0131 0.9464 0.8603
H12A H 0.0463 0.8453 0.9527
C9A C 0.1642(4) 0.2358(4) 0.4911(4)
H13A H 0.1478 0.1662 0.5444
C10A C 0.1847(5) 0.3255(4) 0.5211(4)
H14A H 0.1814 0.3176 0.5935
C11A C 0.2104(4) 0.4274(4) 0.4435(5)
C12A C 0.2101(5) 0.4338(4) 0.3422(4)
H15A H 0.2264 0.5022 0.2870
C13A C 0.1862(4) 0.3415(4) 0.3195(4)
H16A H 0.1838 0.3497 0.2485
C14A C 0.2346(5) 0.5292(4) 0.4707(5)
H17A H 0.1544 0.5551 0.5340
H18A H 0.2326 0.5987 0.4090
C15A C 0.4921(6) 0.4341(6) 0.4383(8)
H19A H 0.4783 0.3593 0.4344
H20A H 0.5166 0.4813 0.3636
C16A C 0.3811(4) 0.6007(4) 0.5209(4)
H21A H 0.3915 0.6657 0.4557
H22A H 0.2922 0.6322 0.5767
C17A C -0.8292(3) 0.9006(3) 1.5493(3)
C18A C -0.7996(4) 0.7601(3) 1.7276(3)
C19A C -0.7166(4) 0.7067(4) 1.7983(4)
H23A H -0.7435 0.6461 1.8590
C20A C -0.5947(4) 0.7406(4) 1.7815(4)
H24A H -0.5389 0.7038 1.8304
C21A C -0.5562(4) 0.8279(4) 1.6934(3)
H25A H -0.4739 0.8523 1.6818
C22A C -0.6350(4) 0.8797(3) 1.6223(3)
H26A H -0.6059 0.9391 1.5611
C23A C -0.7588(3) 0.8470(3) 1.6377(3)
C24A C -0.9344(4) 0.7171(3) 1.7592(3)
loop_
_geom_bond_atom_site_label_1
_geom_bond_atom_site_label_2
_geom_bond_site_symmetry_1
_geom_bond_site_symmetry_2
Co1 O4 1_555 1_555
O1 C24 1_555 1_555
O2 C17 1_555 1_555
O3 C24 1_555 1_555
O4 C17 1_555 1_555
O5 Co1 1_555 1_555
H1 O5 1_555 1_555
H2 O5 1_555 1_555
N1 Co1 1_555 1_555
N2 Co1 1_555 1_555
N3 C6 1_555 1_555
N4 C14 1_555 1_555
C1 N1 1_555 1_555
H3 C1 1_555 1_555
C2 C1 1_555 1_555
H4 C2 1_555 1_555
C3 C2 1_555 1_555
C4 C3 1_555 1_555
H5 C4 1_555 1_555
C5 N1 1_555 1_555
H6 C5 1_555 1_555
C6 C3 1_555 1_555
H7 C6 1_555 1_555
H8 C6 1_555 1_555
C7 N3 1_555 1_555
H9 C7 1_555 1_555
H10 C7 1_555 1_555
C8 N3 1_555 1_555
H11 C8 1_555 1_555
H12 C8 1_555 1_555
C9 N2 1_555 1_555
H13 C9 1_555 1_555
C10 C9 1_555 1_555
H14 C10 1_555 1_555
C11 C10 1_555 1_555
C12 C11 1_555 1_555
H15 C12 1_555 1_555
C13 N2 1_555 1_555
H16 C13 1_555 1_555
C14 C11 1_555 1_555
H17 C14 1_555 1_555
H18 C14 1_555 1_555
C15 N4 1_555 1_555
H19 C15 1_555 1_555
H20 C15 1_555 1_555
C16 N4 1_555 1_555
H21 C16 1_555 1_555
H22 C16 1_555 1_555
C17 C23 1_555 1_555
C18 C19 1_555 1_555
C19 H23 1_555 1_555
C20 C19 1_555 1_555
H24 C20 1_555 1_555
C21 C20 1_555 1_555
H25 C21 1_555 1_555
C22 C21 1_555 1_555
H26 C22 1_555 1_555
C23 C18 1_555 1_555
C24 C18 1_555 1_555
Co1A O2_2 1_555 1_555
Co1_2 O2A 1_555 1_555
Co1A_2 N2A 1_555 1_555
Co1A_3 O2 1_555 1_555
O1A C24A 1_555 1_555
O2A C17A 1_555 1_555
O2A_2 Co1 1_555 1_555
O3A Co1_2 1_555 1_555
O3_2 Co1A 1_555 1_555
O3A_2 Co1 1_555 1_555
O4A Co1A 1_555 1_555
O5A Co1A 1_555 1_555
H1A O5A 1_555 1_555
H2A O5A 1_555 1_555
N1A Co1A 1_555 1_555
N2A C9A 1_555 1_555
N2A_2 Co1A 1_555 1_555
N3A C6A 1_555 1_555
N4A C14A 1_555 1_555
C1A N1A 1_555 1_555
H3A C1A 1_555 1_555
C2A C1A 1_555 1_555
H4A C2A 1_555 1_555
C3A C2A 1_555 1_555
C4A C3A 1_555 1_555
H5A C4A 1_555 1_555
C5A N1A 1_555 1_555
H6A C5A 1_555 1_555
C6A C3A 1_555 1_555
H7A C6A 1_555 1_555
H8A C6A 1_555 1_555
C7A C8 1_555 1_555
H9A C7A 1_555 1_555
H10A C7A 1_555 1_555
C8A C7 1_555 1_555
H11A C8A 1_555 1_555
H12A C8A 1_555 1_555
C9A H13A 1_555 1_555
C10A C9A 1_555 1_555
H14A C10A 1_555 1_555
C11A C10A 1_555 1_555
C12A C11A 1_555 1_555
H15A C12A 1_555 1_555
C13A N2A 1_555 1_555
H16A C13A 1_555 1_555
C14A C11A 1_555 1_555
H17A C14A 1_555 1_555
H18A C14A 1_555 1_555
C15A C16 1_555 1_555
H19A C15A 1_555 1_555
H20A C15A 1_555 1_555
C16A C15 1_555 1_555
H21A C16A 1_555 1_555
H22A C16A 1_555 1_555
C17A O4A 1_555 1_555
C18A C19A 1_555 1_555
C19A H23A 1_555 1_555
C20A C19A 1_555 1_555
H24A C20A 1_555 1_555
C21A C20A 1_555 1_555
H25A C21A 1_555 1_555
C22A C21A 1_555 1_555
H26A C22A 1_555 1_555
C23A C17A 1_555 1_555
C24A O3A 1_555 1_555
O3 Co1A_3 1_555 1_555
C4 C5 1_555 1_555
C12 C13 1_555 1_555
C22 C23 1_555 1_555
N3A C7A 1_555 1_555
N3A C8A 1_555 1_555
N4A C15A 1_555 1_555
N4A C16A 1_555 1_555
C4A C5A 1_555 1_555
C12A C13A 1_555 1_555
C18A C23A 1_555 1_555
C18A C24A 1_555 1_555
C22A C23A 1_555 1_555

#END
