
#######################################################################
#
#                 Cambridge Crystallographic Data Centre
#                                CCDC 
#
#######################################################################
#
# If this CIF has been generated from an entry in the Cambridge 
# Structural Database, then it will include bibliographic, chemical, 
# crystal, experimental, refinement or atomic coordinate data resulting 
# from the CCDC's data processing and validation procedures.
#
#######################################################################

data_TAHRAX
_symmetry_cell_setting           triclinic
_symmetry_space_group_name_H-M   'P 1'
_symmetry_Int_Tables_number      1
_space_group_name_Hall           'P 1'
loop_
_symmetry_equiv_pos_site_id
_symmetry_equiv_pos_as_xyz
1 x,y,z
_cell_length_a                   7.970(2)
_cell_length_b                   11.722(3)
_cell_length_c                   14.420(4)
_cell_angle_alpha                77.851(5)
_cell_angle_beta                 78.390(5)
_cell_angle_gamma                83.092(5)
_cell_volume                     1285.78
loop_
_atom_site_label
_atom_site_type_symbol
_atom_site_fract_x
_atom_site_fract_y
_atom_site_fract_z
Cu1 Cu 0.22513(12) 0.30664(9) 0.28735(8)
Cu2 Cu -0.30142(12) -0.19757(9) 0.33816(7)
O1 O 0.5290(8) 0.7193(6) 0.4411(5)
O4 O 0.5389(8) 0.5633(6) 0.3733(5)
O6 O 0.2850(7) 0.3665(5) 0.3953(4)
O8 O 0.1523(8) 0.5385(6) 0.3448(5)
O10 O 0.3475(8) 0.1211(6) 0.3407(5)
H1 H 0.268(7) 0.096(8) 0.319(6)
H2 H 0.444(5) 0.094(7) 0.314(6)
O12 O -0.1501(8) -0.3584(5) 0.2908(5)
H3 H -0.232(7) -0.403(6) 0.314(7)
H4 H -0.054(5) -0.392(6) 0.304(7)
O14 O -0.3108(9) 0.0676(6) 0.2634(5)
O15 O 0.1382(9) 0.2674(6) 0.1814(5)
O16 O -0.1566(8) -0.0956(5) 0.2329(5)
O17 O 0.1011(8) 0.0818(5) 0.2529(5)
N1 N -0.4572(10) -0.1896(6) 0.2451(5)
N2 N -0.8144(10) -0.2523(6) 0.0040(5)
H5 H -0.720(7) -0.292(7) -0.023(6)
N3 N -1.0709(10) -0.4029(6) 0.0015(5)
N4 N -1.5641(11) -0.6368(8) 0.1955(6)
N5 N -0.1673(11) -0.1819(7) 0.4415(7)
N6 N 0.2021(9) -0.0244(6) 0.6298(5)
N7 N 0.4676(10) 0.1258(7) 0.6211(6)
H6 H 0.512(11) 0.091(7) 0.674(4)
N8 N 1.0014(10) 0.2723(7) 0.3774(5)
C1 C -0.3872(12) -0.2015(8) 0.1554(7)
H7 H -0.2662 -0.2173 0.1400
C2 C -0.4847(12) -0.1918(8) 0.0818(7)
H8 H -0.4315 -0.2041 0.0192
C3 C -0.6586(13) -0.1641(8) 0.1038(7)
C4 C -0.7329(12) -0.1530(9) 0.1982(8)
H9 H -0.8534 -0.1357 0.2153
C5 C -0.6291(11) -0.1676(8) 0.2659(7)
H10 H -0.6809 -0.1620 0.3303
C6 C -0.7693(12) -0.1414(8) 0.0291(8)
H11 H -0.7094 -0.0927 -0.0302
H12 H -0.8770 -0.0961 0.0524
C7 C -0.9400(12) -0.2208(8) -0.0611(6)
H13 H -0.8882 -0.1695 -0.1212
H14 H -1.0418 -0.1764 -0.0301
C8 C -0.8791(11) -0.3393(8) 0.0895(7)
H15 H -0.9754 -0.3018 0.1307
H16 H -0.7865 -0.3673 0.1274
C9 C -0.9965(11) -0.3283(8) -0.0858(6)
H17 H -1.0821 -0.3043 -0.1288
H18 H -0.8965 -0.3711 -0.1199
C10 C -0.9405(12) -0.4428(8) 0.0617(7)
H19 H -0.8421 -0.4854 0.0261
H20 H -0.9892 -0.4973 0.1206
C11 C -1.1471(12) -0.5007(8) -0.0190(7)
H21 H -1.0550 -0.5632 -0.0314
H22 H -1.1958 -0.4733 -0.0786
C12 C -1.4978(13) -0.5389(8) 0.2017(7)
H23 H -1.5483 -0.4985 0.2523
C13 C -1.3571(13) -0.4960(8) 0.1354(7)
H24 H -1.3106 -0.4280 0.1423
C14 C -1.2840(11) -0.5512(8) 0.0596(7)
C15 C -1.3540(12) -0.6533(9) 0.0557(7)
H25 H -1.3069 -0.6952 0.0055
C16 C -1.4901(12) -0.6929(8) 0.1240(7)
H26 H -1.5342 -0.7635 0.1207
C17 C 0.3368(13) 0.5710(9) 0.5180(7)
C18 C 0.2201(12) 0.4995(8) 0.5017(7)
C19 C 0.0973(13) 0.4532(9) 0.5787(8)
H27 H 0.0148 0.4074 0.5684
C20 C 0.0934(16) 0.4731(9) 0.6711(9)
H28 H 0.0080 0.4408 0.7228
C21 C 0.2136(17) 0.5399(10) 0.6886(8)
H29 H 0.2153 0.5501 0.7520
C22 C 0.3308(15) 0.5912(9) 0.6096(7)
H30 H 0.4086 0.6412 0.6192
C23 C 0.4766(13) 0.6195(8) 0.4387(7)
C24 C 0.2218(11) 0.4709(8) 0.4052(7)
C25 C -0.0562(13) -0.0985(9) 0.4229(7)
H31 H -0.0398 -0.0501 0.3605
C26 C 0.0330(13) -0.0797(9) 0.4875(7)
H32 H 0.1101 -0.0198 0.4702
C27 C 0.0121(12) -0.1471(8) 0.5783(7)
C28 C -0.1047(14) -0.2325(9) 0.5999(8)
H33 H -0.1254 -0.2807 0.6622
C29 C -0.1890(14) -0.2454(9) 0.5293(7)
H34 H -0.2681 -0.3040 0.5446
C30 C 0.0995(13) -0.1290(9) 0.6583(7)
H35 H 0.0108 -0.1198 0.7157
H36 H 0.1764 -0.1996 0.6766
C31 C 0.3815(12) -0.0534(8) 0.5840(7)
H37 H 0.3828 -0.0981 0.5327
H38 H 0.4453 -0.1020 0.6326
C32 C 0.4647(12) 0.0590(9) 0.5416(7)
H39 H 0.3998 0.1076 0.4934
H40 H 0.5836 0.0417 0.5084
C33 C 0.2081(12) 0.0244(8) 0.7133(7)
H41 H 0.2748 -0.0312 0.7569
H42 H 0.0902 0.0381 0.7493
C34 C 0.2925(11) 0.1394(8) 0.6802(7)
H43 H 0.2192 0.1966 0.6416
H44 H 0.3008 0.1710 0.7374
C35 C 0.0859(12) 0.1673(8) 0.1865(7)
C36 C 0.0149(11) 0.1513(8) 0.1016(7)
C37 C 0.0828(12) 0.2058(8) 0.0088(7)
H45 H 0.1710 0.2569 -0.0002
C38 C 0.0264(13) 0.1878(9) -0.0707(8)
H46 H 0.0767 0.2248 -0.1337
C39 C -0.1056(13) 0.1146(8) -0.0578(7)
H47 H -0.1469 0.1017 -0.1118
C40 C -0.1760(13) 0.0607(8) 0.0351(7)
H48 H -0.2671 0.0119 0.0438
C41 C -0.1175(12) 0.0760(8) 0.1154(7)
C42 C -0.1989(12) 0.0116(8) 0.2124(7)
C43 C 0.5288(12) 0.2458(8) 0.5826(8)
H49 H 0.5432 0.2800 0.6375
H50 H 0.4389 0.2960 0.5512
C44 C 0.6954(13) 0.2488(8) 0.5112(7)
C45 C 0.6957(13) 0.3022(9) 0.4148(8)
H51 H 0.5904 0.3322 0.3941
C46 C 0.8479(12) 0.3114(8) 0.3498(7)
H52 H 0.8457 0.3458 0.2842
C47 C 0.8510(12) 0.2038(8) 0.5362(7)
H53 H 0.8559 0.1627 0.6000
C48 C 1.0011(12) 0.2186(9) 0.4681(7)
H54 H 1.1078 0.1890 0.4872
Cu1_2 Cu 1.22513(12) 0.30664(9) 0.28735(8)
Cu1_3 Cu -1.77487(12) -0.69336(9) 0.28735(8)
Cu2_2 Cu 0.69858(12) 0.80243(9) 0.33816(7)
O1_2 O -0.4710(8) -0.2807(6) 0.4411(5)
N4_2 N 0.4359(11) 0.3632(8) 0.1955(6)
N8_2 N 0.0014(10) 0.2723(7) 0.3774(5)
O2 O -1.5235(10) -0.3758(7) -0.0807(5)
O5 O -1.5804(12) -0.2497(9) -0.2035(7)
O7 O -1.3719(11) -0.3843(7) -0.2224(6)
N9 N -1.4921(12) -0.3379(8) -0.1697(7)
O3 O -1.3571(19) -0.6367(11) -0.2165(11)
O9 O -1.2577(10) -0.0981(7) -0.1407(5)
O11 O -1.4912(10) 0.0161(7) -0.1526(6)
O13 O -1.2907(9) 0.0122(7) -0.2787(5)
N10 N -1.3484(11) -0.0238(8) -0.1881(6)
O18? O -1.500(5) -0.670(3) -0.163(3)
loop_
_geom_bond_atom_site_label_1
_geom_bond_atom_site_label_2
_geom_bond_site_symmetry_1
_geom_bond_site_symmetry_2
Cu1 O6 1_555 1_555
Cu2 O12 1_555 1_555
O1 C23 1_555 1_555
O2 N9 1_555 1_555
O4 C23 1_555 1_555
O5 N9 1_555 1_555
O6 C24 1_555 1_555
O7 N9 1_555 1_555
O8 C24 1_555 1_555
O9 N10 1_555 1_555
O10 Cu1 1_555 1_555
H1 O10 1_555 1_555
H2 O10 1_555 1_555
O11 N10 1_555 1_555
O12 H3 1_555 1_555
H4 O12 1_555 1_555
O13 N10 1_555 1_555
O14 C42 1_555 1_555
O15 Cu1 1_555 1_555
O16 Cu2 1_555 1_555
O17 C35 1_555 1_555
N1 Cu2 1_555 1_555
N2 H5 1_555 1_555
N3 C9 1_555 1_555
N4 C12 1_555 1_555
N5 Cu2 1_555 1_555
N6 C30 1_555 1_555
N7 H6 1_555 1_555
N8 C46 1_555 1_555
C1 N1 1_555 1_555
H7 C1 1_555 1_555
C2 C1 1_555 1_555
H8 C2 1_555 1_555
C3 C2 1_555 1_555
C4 C3 1_555 1_555
H9 C4 1_555 1_555
C5 N1 1_555 1_555
H10 C5 1_555 1_555
C6 N2 1_555 1_555
H11 C6 1_555 1_555
H12 C6 1_555 1_555
C7 N2 1_555 1_555
H13 C7 1_555 1_555
H14 C7 1_555 1_555
C8 N2 1_555 1_555
H15 C8 1_555 1_555
H16 C8 1_555 1_555
C9 C7 1_555 1_555
H17 C9 1_555 1_555
H18 C9 1_555 1_555
C10 N3 1_555 1_555
H19 C10 1_555 1_555
H20 C10 1_555 1_555
C11 N3 1_555 1_555
H21 C11 1_555 1_555
H22 C11 1_555 1_555
C12 H23 1_555 1_555
C13 C12 1_555 1_555
H24 C13 1_555 1_555
C14 C11 1_555 1_555
C15 C14 1_555 1_555
H25 C15 1_555 1_555
C16 N4 1_555 1_555
H26 C16 1_555 1_555
C17 C18 1_555 1_555
C18 C19 1_555 1_555
C19 H27 1_555 1_555
C20 C19 1_555 1_555
H28 C20 1_555 1_555
C21 C20 1_555 1_555
H29 C21 1_555 1_555
C22 C17 1_555 1_555
H30 C22 1_555 1_555
C23 C17 1_555 1_555
C24 C18 1_555 1_555
C25 N5 1_555 1_555
H31 C25 1_555 1_555
C26 C25 1_555 1_555
H32 C26 1_555 1_555
C27 C26 1_555 1_555
C28 C27 1_555 1_555
H33 C28 1_555 1_555
C29 N5 1_555 1_555
H34 C29 1_555 1_555
C30 C27 1_555 1_555
H35 C30 1_555 1_555
H36 C30 1_555 1_555
C31 N6 1_555 1_555
H37 C31 1_555 1_555
H38 C31 1_555 1_555
C32 N7 1_555 1_555
H39 C32 1_555 1_555
H40 C32 1_555 1_555
C33 N6 1_555 1_555
H41 C33 1_555 1_555
H42 C33 1_555 1_555
C34 N7 1_555 1_555
H43 C34 1_555 1_555
H44 C34 1_555 1_555
C35 O15 1_555 1_555
C36 C35 1_555 1_555
C37 C36 1_555 1_555
H45 C37 1_555 1_555
C38 C37 1_555 1_555
H46 C38 1_555 1_555
C39 C38 1_555 1_555
H47 C39 1_555 1_555
C40 C39 1_555 1_555
H48 C40 1_555 1_555
C41 C36 1_555 1_555
C42 O16 1_555 1_555
C43 N7 1_555 1_555
H49 C43 1_555 1_555
H50 C43 1_555 1_555
C44 C43 1_555 1_555
C45 C44 1_555 1_555
H51 C45 1_555 1_555
C46 C45 1_555 1_555
H52 C46 1_555 1_555
C47 C44 1_555 1_555
H53 C47 1_555 1_555
C48 N8 1_555 1_555
H54 C48 1_555 1_555
Cu1_2 N8 1_555 1_555
Cu1_3 N4 1_555 1_555
Cu2_2 O1 1_555 1_555
O1_2 Cu2 1_555 1_555
N4_2 Cu1 1_555 1_555
N8_2 Cu1 1_555 1_555
C3 C6 1_555 1_555
C4 C5 1_555 1_555
C8 C10 1_555 1_555
C13 C14 1_555 1_555
C15 C16 1_555 1_555
C21 C22 1_555 1_555
C28 C29 1_555 1_555
C31 C32 1_555 1_555
C33 C34 1_555 1_555
C40 C41 1_555 1_555
C41 C42 1_555 1_555
C47 C48 1_555 1_555

#END
