
#######################################################################
#
#                 Cambridge Crystallographic Data Centre
#                                CCDC 
#
#######################################################################
#
# If this CIF has been generated from an entry in the Cambridge 
# Structural Database, then it will include bibliographic, chemical, 
# crystal, experimental, refinement or atomic coordinate data resulting 
# from the CCDC's data processing and validation procedures.
#
#######################################################################

data_TAHREB
_symmetry_cell_setting           triclinic
_symmetry_space_group_name_H-M   'P 1'
_symmetry_Int_Tables_number      1
_space_group_name_Hall           'P 1'
loop_
_symmetry_equiv_pos_site_id
_symmetry_equiv_pos_as_xyz
1 x,y,z
_cell_length_a                   7.9501(5)
_cell_length_b                   11.7386(8)
_cell_length_c                   15.1027(10)
_cell_angle_alpha                104.2980(10)
_cell_angle_beta                 102.9130(10)
_cell_angle_gamma                97.4760(10)
_cell_volume                     1305.36
loop_
_atom_site_label
_atom_site_type_symbol
_atom_site_fract_x
_atom_site_fract_y
_atom_site_fract_z
Cu1 Cu -0.37717(5) 0.08922(4) 0.24490(3)
Cu2 Cu 0.13764(5) -0.39739(4) 0.28814(3)
O1 O -0.3053(4) -0.0125(3) 0.1407(2)
O3 O -0.2574(4) -0.1575(3) 0.2093(2)
O5 O 0.1509(4) -0.1758(3) 0.2209(2)
O6 O -0.0203(4) -0.3554(3) 0.1854(2)
O11 O -0.4934(4) -0.0670(3) 0.2934(2)
H1 H -0.599(3) -0.098(5) 0.262(3)
H2 H -0.425(5) -0.102(4) 0.263(3)
O12 O -0.0197(4) -0.5885(3) 0.2413(2)
H3 H -0.104(5) -0.602(5) 0.266(3)
H4 H 0.060(5) -0.616(5) 0.272(3)
O13 O 0.3012(4) -0.6149(3) 0.3238(2)
O14 O 0.6950(5) -0.6330(3) 0.3120(3)
O15 O 0.3233(4) -0.4188(3) 0.3908(2)
O16 O 0.5776(4) -0.7914(3) 0.3497(2)
N1 N -0.5983(5) 0.0906(3) 0.1508(3)
N2 N -1.1251(5) 0.2137(3) -0.0376(2)
N3 N -1.3915(4) 0.3586(3) -0.0399(2)
H5 H -1.483(7) 0.305(5) -0.083(4)
N4 N -1.7186(5) 0.5566(3) 0.1954(3)
N5 N 1.0144(5) -0.3281(3) 0.3849(3)
N6 N 0.6807(5) -0.0723(3) 0.5790(3)
N7 N 0.4268(4) 0.0821(3) 0.5684(2)
H6 H 0.360(6) 0.061(4) 0.604(3)
N8 N -0.1395(5) 0.1059(3) 0.3321(2)
C1 C -0.1222(6) 0.1089(4) 0.4229(3)
H7 H -0.2262 0.0972 0.4434
C2 C 0.0090(6) 0.1202(4) 0.3039(3)
H8 H -0.0003 0.1168 0.2395
C3 C 0.0369(6) 0.1278(4) 0.4882(3)
H9 H 0.0422 0.1282 0.5517
C4 C 0.1907(6) 0.1464(4) 0.4596(3)
C5 C 0.1750(6) 0.1395(4) 0.3652(3)
H10 H 0.2769 0.1479 0.3426
C6 C 0.3727(6) 0.1792(4) 0.5266(3)
H11 H 0.4585 0.2012 0.4923
H12 H 0.3782 0.2508 0.5789
C7 C 0.4054(6) -0.0340(4) 0.4930(3)
H13 H 0.4563 -0.0178 0.4422
H14 H 0.2785 -0.0684 0.4647
C8 C 0.4948(6) -0.1244(4) 0.5324(3)
H15 H 0.4363 -0.1476 0.5785
H16 H 0.4843 -0.1974 0.4802
C9 C 0.6153(5) 0.1268(4) 0.6275(3)
H17 H 0.6200 0.1940 0.6831
H18 H 0.6867 0.1577 0.5894
C10 C 0.6937(6) 0.0287(4) 0.6613(3)
H19 H 0.8186 0.0599 0.6971
H20 H 0.6293 0.0019 0.7039
C11 C 0.7860(7) -0.1586(4) 0.6046(3)
H21 H 0.7128 -0.2189 0.6230
H22 H 0.8862 -0.1161 0.6602
C12 C 0.8554(6) -0.2216(4) 0.5252(3)
C13 C 0.9392(7) -0.3168(4) 0.5317(4)
H23 H 0.9432 -0.3480 0.5844
C14 C 0.8467(6) -0.1859(4) 0.4437(3)
H24 H 0.7845 -0.1244 0.4336
C15 C 1.0170(7) -0.3666(4) 0.4622(3)
H25 H 1.0750 -0.4309 0.4691
C16 C 0.9285(6) -0.2395(4) 0.3768(3)
H26 H 0.9229 -0.2117 0.3225
C17 C -0.6790(6) -0.0043(4) 0.0760(4)
H27 H -0.6312 -0.0751 0.0685
C18 C -0.8298(6) -0.0033(4) 0.0090(4)
H28 H -0.8827 -0.0727 -0.0429
C19 C -0.6718(6) 0.1880(4) 0.1604(3)
H29 H -0.6183 0.2557 0.2137
C20 C -0.8220(6) 0.1941(4) 0.0961(3)
H30 H -0.8697 0.2649 0.1062
C21 C -0.9034(5) 0.0977(4) 0.0171(3)
C22 C -1.0511(6) 0.1062(4) -0.0609(3)
H31 H -1.0078 0.1042 -0.1177
H32 H -1.1460 0.0350 -0.0773
C23 C -1.2113(5) 0.2400(4) -0.1246(3)
H33 H -1.3155 0.1761 -0.1606
H34 H -1.1290 0.2422 -0.1649
C24 C -1.2534(6) 0.2028(4) 0.0178(3)
H35 H -1.1987 0.1815 0.0756
H36 H -1.3555 0.1382 -0.0202
C25 C -1.3154(6) 0.3210(4) 0.0457(3)
H37 H -1.4054 0.3117 0.0806
H38 H -1.2149 0.3839 0.0882
C26 C -1.2671(5) 0.3586(4) -0.1004(3)
H39 H -1.1621 0.4226 -0.0666
H40 H -1.3245 0.3760 -0.1596
C27 C -1.7994(6) 0.4896(4) 0.1073(3)
H41 H -1.9228 0.4612 0.0921
C28 C -1.7165(6) 0.4589(4) 0.0367(3)
H42 H -1.7801 0.4095 -0.0249
C29 C -1.5369(6) 0.5021(4) 0.0580(3)
C30 C -1.4484(6) 0.5698(4) 0.1515(4)
H43 H -1.3246 0.5977 0.1693
C31 C -1.5442(6) 0.5948(4) 0.2163(3)
H44 H -1.4840 0.6415 0.2792
C32 C -1.4364(6) 0.4813(4) -0.0163(3)
H45 H -1.5071 0.4934 -0.0749
H46 H -1.3259 0.5421 0.0061
C33 C -0.2544(5) -0.1110(4) 0.1450(3)
C34 C -0.1948(6) -0.1749(4) 0.0620(3)
C35 C 0.0279(5) -0.2571(4) 0.1684(3)
C36 C -0.0683(6) -0.2462(4) 0.0728(3)
C37 C -0.0240(6) -0.3093(4) -0.0074(3)
H47 H 0.0644 -0.3561 -0.0003
C38 C -0.1069(7) -0.3046(4) -0.0968(3)
H48 H -0.0763 -0.3487 -0.1507
C39 C -0.2348(7) -0.2356(4) -0.1078(3)
H49 H -0.2942 -0.2336 -0.1692
C40 C -0.2751(7) -0.1695(4) -0.0284(3)
H50 H -0.3590 -0.1195 -0.0358
C41 C 0.6236(8) -0.4702(5) 0.6419(4)
H51 H 0.6200 -0.4268 0.7033
C42 C 0.7452(7) -0.5449(4) 0.6314(3)
H52 H 0.8261 -0.5517 0.6857
C43 C 0.5083(7) -0.4600(4) 0.5621(3)
H53 H 0.4275 -0.4077 0.5695
C44 C 0.6275(6) -0.6021(4) 0.4610(3)
C45 C 0.7472(6) -0.6093(4) 0.5412(3)
H54 H 0.8314 -0.6590 0.5342
C46 C 0.5079(6) -0.5242(4) 0.4719(3)
C47 C 0.3680(5) -0.5191(4) 0.3878(3)
C48 C 0.6344(5) -0.6780(4) 0.3659(3)
Cu1_2 Cu 0.62283(5) -0.91078(4) 0.24490(3)
Cu2_2 Cu 1.13764(5) -0.39739(4) 0.28814(3)
Cu2_3 Cu -1.86236(5) 0.60261(4) 0.28814(3)
O16_2 O -0.4224(4) 0.2086(3) 0.3497(2)
N4_2 N 0.2814(5) -0.4434(3) 0.1954(3)
N5_2 N 0.0144(5) -0.3281(3) 0.3849(3)
S1 S -0.74576(14) -0.80543(10) -0.23873(8)
O7 O -0.6832(5) -0.8112(4) -0.1402(3)
O8 O -0.7586(5) -0.9258(3) -0.3047(3)
O9 O -0.9208(4) -0.7733(3) -0.2544(3)
O10 O -0.6190(4) -0.7175(3) -0.2561(2)
O2 O -0.9028(8) -0.5344(5) -0.1893(4)
O4 O -0.6774(18) -1.1379(11) -0.2138(9)
O17? O -0.5654(11) -1.0453(7) -0.1668(6)
loop_
_geom_bond_atom_site_label_1
_geom_bond_atom_site_label_2
_geom_bond_site_symmetry_1
_geom_bond_site_symmetry_2
Cu1 O1 1_555 1_555
Cu2 O6 1_555 1_555
S1 O7 1_555 1_555
O1 C33 1_555 1_555
O3 C33 1_555 1_555
O5 C35 1_555 1_555
O6 C35 1_555 1_555
O8 S1 1_555 1_555
O9 S1 1_555 1_555
O10 S1 1_555 1_555
O11 Cu1 1_555 1_555
H1 O11 1_555 1_555
H2 O11 1_555 1_555
O12 Cu2 1_555 1_555
H3 O12 1_555 1_555
H4 O12 1_555 1_555
O13 C47 1_555 1_555
O14 C48 1_555 1_555
O15 Cu2 1_555 1_555
O16 C48 1_555 1_555
N1 Cu1 1_555 1_555
N2 C22 1_555 1_555
N3 H5 1_555 1_555
N4 C27 1_555 1_555
N5 C15 1_555 1_555
N6 C8 1_555 1_555
N7 H6 1_555 1_555
N8 Cu1 1_555 1_555
C1 N8 1_555 1_555
H7 C1 1_555 1_555
C2 N8 1_555 1_555
H8 C2 1_555 1_555
C3 C1 1_555 1_555
H9 C3 1_555 1_555
C4 C3 1_555 1_555
C5 C2 1_555 1_555
H10 C5 1_555 1_555
C6 N7 1_555 1_555
H11 C6 1_555 1_555
H12 C6 1_555 1_555
C7 N7 1_555 1_555
H13 C7 1_555 1_555
H14 C7 1_555 1_555
C8 C7 1_555 1_555
H15 C8 1_555 1_555
H16 C8 1_555 1_555
C9 N7 1_555 1_555
H17 C9 1_555 1_555
H18 C9 1_555 1_555
C10 N6 1_555 1_555
H19 C10 1_555 1_555
H20 C10 1_555 1_555
C11 N6 1_555 1_555
H21 C11 1_555 1_555
H22 C11 1_555 1_555
C12 C11 1_555 1_555
C13 C12 1_555 1_555
H23 C13 1_555 1_555
C14 C12 1_555 1_555
H24 C14 1_555 1_555
C15 C13 1_555 1_555
H25 C15 1_555 1_555
C16 N5 1_555 1_555
H26 C16 1_555 1_555
C17 N1 1_555 1_555
H27 C17 1_555 1_555
C18 C17 1_555 1_555
H28 C18 1_555 1_555
C19 N1 1_555 1_555
H29 C19 1_555 1_555
C20 C19 1_555 1_555
H30 C20 1_555 1_555
C21 C18 1_555 1_555
C22 C21 1_555 1_555
H31 C22 1_555 1_555
H32 C22 1_555 1_555
C23 N2 1_555 1_555
H33 C23 1_555 1_555
H34 C23 1_555 1_555
C24 N2 1_555 1_555
H35 C24 1_555 1_555
H36 C24 1_555 1_555
C25 N3 1_555 1_555
H37 C25 1_555 1_555
H38 C25 1_555 1_555
C26 N3 1_555 1_555
H39 C26 1_555 1_555
H40 C26 1_555 1_555
C27 H41 1_555 1_555
C28 C27 1_555 1_555
H42 C28 1_555 1_555
C29 C28 1_555 1_555
C30 C29 1_555 1_555
H43 C30 1_555 1_555
C31 N4 1_555 1_555
H44 C31 1_555 1_555
C32 N3 1_555 1_555
H45 C32 1_555 1_555
H46 C32 1_555 1_555
C33 C34 1_555 1_555
C34 C36 1_555 1_555
C35 C36 1_555 1_555
C36 C37 1_555 1_555
C37 H47 1_555 1_555
C38 C37 1_555 1_555
H48 C38 1_555 1_555
C39 C38 1_555 1_555
H49 C39 1_555 1_555
C40 C34 1_555 1_555
H50 C40 1_555 1_555
C41 H51 1_555 1_555
C42 C41 1_555 1_555
H52 C42 1_555 1_555
C43 C41 1_555 1_555
H53 C43 1_555 1_555
C44 C45 1_555 1_555
C45 C42 1_555 1_555
H54 C45 1_555 1_555
C46 C43 1_555 1_555
C47 O15 1_555 1_555
C48 C44 1_555 1_555
Cu1_2 O16 1_555 1_555
Cu2_2 N5 1_555 1_555
Cu2_3 N4 1_555 1_555
O16_2 Cu1 1_555 1_555
N4_2 Cu2 1_555 1_555
N5_2 Cu2 1_555 1_555
C4 C5 1_555 1_555
C4 C6 1_555 1_555
C9 C10 1_555 1_555
C14 C16 1_555 1_555
C20 C21 1_555 1_555
C23 C26 1_555 1_555
C24 C25 1_555 1_555
C29 C32 1_555 1_555
C30 C31 1_555 1_555
C39 C40 1_555 1_555
C44 C46 1_555 1_555
C46 C47 1_555 1_555

#END
