
#######################################################################
#
#                 Cambridge Crystallographic Data Centre
#                                CCDC 
#
#######################################################################
#
# If this CIF has been generated from an entry in the Cambridge 
# Structural Database, then it will include bibliographic, chemical, 
# crystal, experimental, refinement or atomic coordinate data resulting 
# from the CCDC's data processing and validation procedures.
#
#######################################################################

data_TAHXUX
_symmetry_cell_setting           tetragonal
_symmetry_space_group_name_H-M   'P 41'
_symmetry_Int_Tables_number      76
_space_group_name_Hall           'P 4w'
loop_
_symmetry_equiv_pos_site_id
_symmetry_equiv_pos_as_xyz
1 x,y,z
2 -x,-y,1/2+z
3 -y,x,1/4+z
4 y,-x,3/4+z
_cell_length_a                   11.5433(6)
_cell_length_b                   11.5433(6)
_cell_length_c                   22.9224(15)
_cell_angle_alpha                90
_cell_angle_beta                 90
_cell_angle_gamma                90
_cell_volume                     3054.36
loop_
_atom_site_label
_atom_site_type_symbol
_atom_site_fract_x
_atom_site_fract_y
_atom_site_fract_z
Zn1 Zn 0.81310(3) 0.73973(2) 0.113269(11)
Zn2 Zn 0.73497(3) 0.95453(3) 0.031930(14)
O1 O 0.70400(18) 0.83731(18) 0.15541(9)
O2 O 0.6837(2) 1.00460(17) 0.10835(9)
O3 O 0.95910(16) 0.80850(18) 0.09035(9)
O4 O 0.90075(17) 0.93773(17) 0.02437(9)
O5 O 0.73927(18) 0.67562(17) 0.04343(8)
O6 O 0.6433(2) 0.82371(18) 0.00474(10)
O7 O 0.83602(18) 0.59862(16) 0.15763(8)
O8 O 0.92918(16) 0.70230(16) 0.22253(8)
C1 C 0.6708(3) 0.9400(3) 0.15212(12)
C2 C 0.6075(3) 0.9915(3) 0.20409(13)
H1 H 0.5274 0.9609 0.2041
H2 H 0.6022 1.0763 0.1982
C3 C 0.6593(3) 0.9701(3) 0.26425(12)
C4 C 0.5949(3) 1.0480(3) 0.30741(14)
H3 H 0.5124 1.0279 0.3074
H4 H 0.6042 1.1292 0.2959
H5 H 0.6267 1.0367 0.3466
C5 C 0.7863(3) 1.0025(5) 0.2643(2)
H6 H 0.8182 0.9921 0.3036
H7 H 0.7949 1.0837 0.2525
H8 H 0.8283 0.9527 0.2368
C6 C 0.6452(5) 0.8458(3) 0.28338(18)
H9 H 0.6904 0.7953 0.2577
H10 H 0.5632 0.8242 0.2813
H11 H 0.6727 0.8373 0.3236
C7 C 0.9776(2) 0.8795(2) 0.05000(12)
C8 C 1.1005(2) 0.8947(2) 0.03023(13)
H12 H 1.1531 0.8624 0.0602
H13 H 1.1174 0.9785 0.0266
C9 C 1.1251(3) 0.8348(2) -0.02892(12)
C10 C 1.0845(3) 0.7094(3) -0.02671(15)
H14 H 0.9997 0.7073 -0.0245
H15 H 1.1174 0.6714 0.0077
H16 H 1.1102 0.6689 -0.0620
C11 C 1.0666(4) 0.8977(3) -0.07873(15)
H17 H 1.0819 0.8566 -0.1153
H18 H 1.0971 0.9767 -0.0814
H19 H 0.9829 0.9005 -0.0717
C12 C 1.2560(3) 0.8355(4) -0.03870(17)
H20 H 1.2940 0.7917 -0.0075
H21 H 1.2842 0.9156 -0.0384
H22 H 1.2737 0.7998 -0.0764
C13 C 0.6648(3) 0.7174(3) 0.00962(12)
C14 C 0.5979(3) 0.6339(3) -0.02817(14)
H23 H 0.5143 0.6510 -0.0238
H24 H 0.6111 0.5545 -0.0133
C15 C 0.6279(3) 0.6360(3) -0.09334(13)
C16 C 0.7563(3) 0.6250(5) -0.10241(19)
H25 H 0.7730 0.6206 -0.1443
H26 H 0.7843 0.5545 -0.0832
H27 H 0.7955 0.6926 -0.0857
C17 C 0.5849(5) 0.7458(4) -0.12156(18)
H28 H 0.6264 0.8123 -0.1052
H29 H 0.5017 0.7544 -0.1141
H30 H 0.5985 0.7421 -0.1637
C18 C 0.5699(5) 0.5302(5) -0.12170(19)
H31 H 0.5836 0.5316 -0.1639
H32 H 0.4863 0.5324 -0.1142
H33 H 0.6026 0.4591 -0.1051
C19 C 0.8916(2) 0.6071(3) 0.20496(12)
C20 C 0.9099(3) 0.4978(3) 0.23952(15)
H34 H 0.9581 0.5165 0.2740
H35 H 0.9543 0.4426 0.2152
C21 C 0.7999(3) 0.4375(3) 0.26054(15)
C22 C 0.7413(5) 0.3760(5) 0.2117(2)
H36 H 0.6625 0.3546 0.2235
H37 H 0.7850 0.3060 0.2018
H38 H 0.7377 0.4271 0.1776
C23 C 0.7235(6) 0.5263(5) 0.2885(4)
H39 H 0.7191 0.5950 0.2635
H40 H 0.7557 0.5481 0.3265
H41 H 0.6457 0.4941 0.2939
C24 C 0.8340(4) 0.3473(3) 0.30640(17)
H42 H 0.7643 0.3084 0.3209
H43 H 0.8737 0.3859 0.3389
H44 H 0.8860 0.2901 0.2888
Zn2B Zn 1.04547(3) 0.73497(3) 0.281930(14)
O8C O 0.70230(16) 1.07082(16) -0.02747(8)
loop_
_geom_bond_atom_site_label_1
_geom_bond_atom_site_label_2
_geom_bond_site_symmetry_1
_geom_bond_site_symmetry_2
Zn1 O1 1_555 1_555
Zn2 O2 1_555 1_555
O1 C1 1_555 1_555
O2 C1 1_555 1_555
O3 Zn1 1_555 1_555
O4 Zn2 1_555 1_555
O5 Zn1 1_555 1_555
O6 Zn2 1_555 1_555
O7 Zn1 1_555 1_555
O8 C19 1_555 1_555
C1 C2 1_555 1_555
C2 H1 1_555 1_555
H2 C2 1_555 1_555
C3 C2 1_555 1_555
C4 C3 1_555 1_555
H3 C4 1_555 1_555
H4 C4 1_555 1_555
H5 C4 1_555 1_555
C5 C3 1_555 1_555
H6 C5 1_555 1_555
H7 C5 1_555 1_555
H8 C5 1_555 1_555
C6 C3 1_555 1_555
H9 C6 1_555 1_555
H10 C6 1_555 1_555
H11 C6 1_555 1_555
C7 O3 1_555 1_555
C8 C7 1_555 1_555
H12 C8 1_555 1_555
H13 C8 1_555 1_555
C9 C8 1_555 1_555
C10 C9 1_555 1_555
H14 C10 1_555 1_555
H15 C10 1_555 1_555
H16 C10 1_555 1_555
C11 C9 1_555 1_555
H17 C11 1_555 1_555
H18 C11 1_555 1_555
H19 C11 1_555 1_555
C12 C9 1_555 1_555
H20 C12 1_555 1_555
H21 C12 1_555 1_555
H22 C12 1_555 1_555
C13 O5 1_555 1_555
C14 C13 1_555 1_555
H23 C14 1_555 1_555
H24 C14 1_555 1_555
C15 C14 1_555 1_555
C16 C15 1_555 1_555
H25 C16 1_555 1_555
H26 C16 1_555 1_555
H27 C16 1_555 1_555
C17 C15 1_555 1_555
H28 C17 1_555 1_555
H29 C17 1_555 1_555
H30 C17 1_555 1_555
C18 C15 1_555 1_555
H31 C18 1_555 1_555
H32 C18 1_555 1_555
H33 C18 1_555 1_555
C19 O7 1_555 1_555
C20 C19 1_555 1_555
H34 C20 1_555 1_555
H35 C20 1_555 1_555
C21 C20 1_555 1_555
C22 C21 1_555 1_555
H36 C22 1_555 1_555
H37 C22 1_555 1_555
H38 C22 1_555 1_555
C23 C21 1_555 1_555
H39 C23 1_555 1_555
H40 C23 1_555 1_555
H41 C23 1_555 1_555
C24 C21 1_555 1_555
H42 C24 1_555 1_555
H43 C24 1_555 1_555
H44 C24 1_555 1_555
Zn2B O8 1_555 1_555
O8C Zn2 1_555 1_555
O4 C7 1_555 1_555
O6 C13 1_555 1_555

#END
