
#######################################################################
#
#                 Cambridge Crystallographic Data Centre
#                                CCDC 
#
#######################################################################
#
# If this CIF has been generated from an entry in the Cambridge 
# Structural Database, then it will include bibliographic, chemical, 
# crystal, experimental, refinement or atomic coordinate data resulting 
# from the CCDC's data processing and validation procedures.
#
#######################################################################

data_TAJCEN
_symmetry_cell_setting           monoclinic
_symmetry_space_group_name_H-M   'P 21/n'
_symmetry_Int_Tables_number      14
_space_group_name_Hall           '-P 2yn'
loop_
_symmetry_equiv_pos_site_id
_symmetry_equiv_pos_as_xyz
1 x,y,z
2 1/2+x,1/2-y,1/2+z
3 -x,-y,-z
4 1/2-x,1/2+y,1/2-z
_cell_length_a                   11.6675(7)
_cell_length_b                   12.2256(7)
_cell_length_c                   17.4437(10)
_cell_angle_alpha                90
_cell_angle_beta                 103.5100(10)
_cell_angle_gamma                90
_cell_volume                     2419.36
loop_
_atom_site_label
_atom_site_type_symbol
_atom_site_fract_x
_atom_site_fract_y
_atom_site_fract_z
Hg1 Hg 0.711372(18) 0.309428(16) 0.396347(12)
I1 I 0.80447(3) 0.22232(3) 0.53695(2)
I2 I 0.52821(3) 0.31716(3) 0.27387(2)
C1 C 0.8429(4) 0.5367(4) 0.4812(3)
H1 H 0.8744 0.4851 0.5213
C2 C 0.8735(5) 0.6449(4) 0.4946(3)
H2 H 0.9249 0.6666 0.5428
C3 C 0.8292(4) 0.7217(4) 0.4373(3)
C4 C 0.7568(5) 0.6845(4) 0.3681(3)
H3 H 0.7253 0.7343 0.3267
C5 C 0.7303(5) 0.5744(4) 0.3592(3)
H4 H 0.6804 0.5502 0.3111
C6 C 0.8544(5) 0.8419(4) 0.4509(3)
H5 H 0.9233 0.8516 0.4959
H6 H 0.8738 0.8744 0.4036
C7 C 0.7081(4) 0.8756(4) 0.5337(3)
C8 C 0.5980(4) 0.9393(4) 0.5246(3)
C9 C 0.5799(4) 0.9961(4) 0.4541(3)
C10 C 0.6782(4) 0.9703(4) 0.4167(3)
C11 C 0.5198(4) 0.9416(4) 0.5733(3)
H7 H 0.5338 0.9032 0.6219
N1 N 0.7715(4) 0.5007(3) 0.4153(2)
N2 N 0.7517(3) 0.8986(3) 0.4678(2)
O1 O 0.7526(3) 0.8126(3) 0.5854(2)
O2 O 0.6948(3) 1.0016(3) 0.3538(2)
C12 C 0.9187(5) 0.1823(4) 0.3331(3)
H8 H 0.8828 0.1236 0.3546
C13 C 1.0118(4) 0.1595(4) 0.2996(3)
H9 H 1.0387 0.0864 0.2979
C14 C 1.0664(4) 0.2444(4) 0.2682(3)
C15 C 1.0243(4) 0.3482(4) 0.2725(3)
H10 H 1.0596 0.4084 0.2522
C16 C 0.9297(5) 0.3647(4) 0.3067(3)
H11 H 0.9010 0.4370 0.3088
C17 C 1.1642(4) 0.2206(4) 0.2278(3)
H12 H 1.1951 0.2900 0.2112
H13 H 1.2296 0.1827 0.2647
C18 C 1.1567(4) 0.0454(4) 0.1474(3)
C19 C 1.0801(4) 0.0098(4) 0.0702(3)
C20 C 1.0049(4) 0.0955(4) 0.0389(3)
C21 C 1.0305(4) 0.1879(4) 0.0966(3)
C22 C 1.0773(4) -0.0894(4) 0.0317(3)
H14 H 1.1281 -0.1485 0.0523
N3 N 0.8768(4) 0.2831(3) 0.3368(2)
N4 N 1.1194(3) 0.1519(3) 0.1591(2)
O3 O 1.2340(3) -0.0027(3) 0.1919(2)
O4 O 0.9829(3) 0.2758(3) 0.0931(2)
C11B C 0.4802(4) 1.0584(4) 0.4267(3)
C8B C 0.4020(4) 1.0607(4) 0.4754(3)
C7B C 0.2919(4) 1.1244(4) 0.4663(3)
N2B N 0.2483(3) 1.1014(3) 0.5322(2)
C6B C 0.1456(5) 1.1581(4) 0.5491(3)
C3B C 0.1708(4) 1.2783(4) 0.5627(3)
C2B C 0.1265(5) 1.3551(4) 0.5054(3)
C1B C 0.1571(4) 1.4633(4) 0.5188(3)
H1B H 0.1256 1.5149 0.4787
N1B N 0.2285(4) 1.4993(3) 0.5847(2)
C5B C 0.2697(5) 1.4256(4) 0.6408(3)
C4B C 0.2432(5) 1.3155(4) 0.6319(3)
H3B H 0.2747 1.2657 0.6733
H4B H 0.3196 1.4498 0.6889
H2B H 0.0751 1.3334 0.4572
H5B H 0.0767 1.1484 0.5041
H6B H 0.1262 1.1256 0.5964
C10B C 0.3218(4) 1.0297(4) 0.5833(3)
C9B C 0.4201(4) 1.0039(4) 0.5459(3)
O2B O 0.3052(3) 0.9984(3) 0.6462(2)
O1B O 0.2474(3) 1.1874(3) 0.4146(2)
H7B H 0.4662 1.0968 0.3781
C22B C 0.9227(4) 0.0894(4) -0.0317(3)
C19B C 0.9199(4) -0.0098(4) -0.0702(3)
C18B C 0.8433(4) -0.0454(4) -0.1474(3)
N4B N 0.8806(3) -0.1519(3) -0.1591(2)
C17B C 0.8358(4) -0.2206(4) -0.2278(3)
C14B C 0.9336(4) -0.2444(4) -0.2682(3)
C13B C 0.9882(4) -0.1595(4) -0.2996(3)
C12B C 1.0813(5) -0.1823(4) -0.3331(3)
H8B H 1.1172 -0.1236 -0.3546
N3B N 1.1232(4) -0.2831(3) -0.3368(2)
C16B C 1.0703(5) -0.3647(4) -0.3067(3)
C15B C 0.9757(4) -0.3482(4) -0.2725(3)
H10B H 0.9404 -0.4084 -0.2522
H11B H 1.0990 -0.4370 -0.3088
H9B H 0.9613 -0.0864 -0.2979
H12B H 0.8049 -0.2900 -0.2112
H13B H 0.7704 -0.1827 -0.2647
C21B C 0.9695(4) -0.1879(4) -0.0966(3)
C20B C 0.9951(4) -0.0955(4) -0.0389(3)
O4B O 1.0171(3) -0.2758(3) -0.0931(2)
O3B O 0.7660(3) 0.0027(3) -0.1919(2)
H14B H 0.8719 0.1485 -0.0523
Hg1B Hg 0.288628(18) 1.690572(16) 0.603653(12)
I1B I 0.19553(3) 1.77768(3) 0.46305(2)
I2B I 0.47179(3) 1.68284(3) 0.72613(2)
Hg1B_2 Hg 1.288628(18) -0.309428(16) -0.396347(12)
N3B_2 N 0.1232(4) 1.7169(3) 0.6632(2)
loop_
_geom_bond_atom_site_label_1
_geom_bond_atom_site_label_2
_geom_bond_site_symmetry_1
_geom_bond_site_symmetry_2
Hg1 I1 1_555 1_555
I2 Hg1 1_555 1_555
C1 H1 1_555 1_555
C2 C1 1_555 1_555
H2 C2 1_555 1_555
C3 C2 1_555 1_555
C4 C3 1_555 1_555
H3 C4 1_555 1_555
C5 C4 1_555 1_555
H4 C5 1_555 1_555
C6 C3 1_555 1_555
H5 C6 1_555 1_555
H6 C6 1_555 1_555
C7 C8 1_555 1_555
C8 C9 1_555 1_555
C9 C10 1_555 1_555
C10 N2 1_555 1_555
C11 C8 1_555 1_555
H7 C11 1_555 1_555
N1 Hg1 1_555 1_555
N2 C6 1_555 1_555
O1 C7 1_555 1_555
O2 C10 1_555 1_555
C12 H8 1_555 1_555
C13 C12 1_555 1_555
H9 C13 1_555 1_555
C14 C13 1_555 1_555
C15 C14 1_555 1_555
H10 C15 1_555 1_555
C16 C15 1_555 1_555
H11 C16 1_555 1_555
C17 C14 1_555 1_555
H12 C17 1_555 1_555
H13 C17 1_555 1_555
C18 C19 1_555 1_555
C19 C20 1_555 1_555
C20 C21 1_555 1_555
C21 N4 1_555 1_555
C22 C19 1_555 1_555
H14 C22 1_555 1_555
N3 Hg1 1_555 1_555
N4 C17 1_555 1_555
O3 C18 1_555 1_555
O4 C21 1_555 1_555
C11B C9 1_555 1_555
C8B C11B 1_555 1_555
C7B C8B 1_555 1_555
N2B C7B 1_555 1_555
C6B N2B 1_555 1_555
C3B C6B 1_555 1_555
C2B C3B 1_555 1_555
C1B C2B 1_555 1_555
H1B C1B 1_555 1_555
N1B C1B 1_555 1_555
C5B N1B 1_555 1_555
C4B C3B 1_555 1_555
H3B C4B 1_555 1_555
H4B C5B 1_555 1_555
H2B C2B 1_555 1_555
H5B C6B 1_555 1_555
H6B C6B 1_555 1_555
C10B N2B 1_555 1_555
C9B C11 1_555 1_555
O2B C10B 1_555 1_555
O1B C7B 1_555 1_555
H7B C11B 1_555 1_555
C22B C20 1_555 1_555
C19B C22B 1_555 1_555
C18B C19B 1_555 1_555
N4B C18B 1_555 1_555
C17B N4B 1_555 1_555
C14B C17B 1_555 1_555
C13B C14B 1_555 1_555
C12B C13B 1_555 1_555
H8B C12B 1_555 1_555
N3B C12B 1_555 1_555
C16B N3B 1_555 1_555
C15B C14B 1_555 1_555
H10B C15B 1_555 1_555
H11B C16B 1_555 1_555
H9B C13B 1_555 1_555
H12B C17B 1_555 1_555
H13B C17B 1_555 1_555
C21B N4B 1_555 1_555
C20B C22 1_555 1_555
O4B C21B 1_555 1_555
O3B C18B 1_555 1_555
H14B C22B 1_555 1_555
Hg1B N1B 1_555 1_555
I1B Hg1B 1_555 1_555
I2B Hg1B 1_555 1_555
Hg1B_2 N3B 1_555 1_555
N3B_2 Hg1B 1_555 1_555
C1 N1 1_555 1_555
C5 N1 1_555 1_555
C7 N2 1_555 1_555
C12 N3 1_555 1_555
C16 N3 1_555 1_555
C18 N4 1_555 1_555
C8B C9B 1_555 1_555
C5B C4B 1_555 1_555
C10B C9B 1_555 1_555
C19B C20B 1_555 1_555
C16B C15B 1_555 1_555
C21B C20B 1_555 1_555

#END
