
#######################################################################
#
#                 Cambridge Crystallographic Data Centre
#                                CCDC 
#
#######################################################################
#
# If this CIF has been generated from an entry in the Cambridge 
# Structural Database, then it will include bibliographic, chemical, 
# crystal, experimental, refinement or atomic coordinate data resulting 
# from the CCDC's data processing and validation procedures.
#
#######################################################################

data_TAJGAO
_symmetry_cell_setting           orthorhombic
_symmetry_space_group_name_H-M   'P 21 21 21'
_symmetry_Int_Tables_number      19
_space_group_name_Hall           'P 2ac 2ab'
loop_
_symmetry_equiv_pos_site_id
_symmetry_equiv_pos_as_xyz
1 x,y,z
2 1/2-x,-y,1/2+z
3 -x,1/2+y,1/2-z
4 1/2+x,1/2-y,-z
_cell_length_a                   10.0865(9)
_cell_length_b                   13.1405(17)
_cell_length_c                   13.676(2)
_cell_angle_alpha                90
_cell_angle_beta                 90
_cell_angle_gamma                90
_cell_volume                     1812.64
loop_
_atom_site_label
_atom_site_type_symbol
_atom_site_fract_x
_atom_site_fract_y
_atom_site_fract_z
Cd1 Cd 0.87590(4) 0.98060(3) 0.81914(3)
N1 N 0.8270(4) 0.9628(3) 1.0431(3)
N2 N 0.7635(4) 0.9449(3) 0.9543(3)
N3 N 0.9218(4) 1.2151(3) 0.7987(3)
N4 N 0.9837(4) 1.1270(3) 0.8329(4)
O1 O 0.7713(3) 1.0072(3) 1.2032(2)
O2 O 0.9766(3) 1.3748(3) 0.7377(3)
C1 C 0.7360(5) 0.9891(4) 1.1148(4)
C2 C 0.6142(6) 0.9865(4) 1.0675(3)
H1 H 0.5323 0.9998 1.0961
C3 C 0.6350(6) 0.9610(3) 0.9714(3)
C4 C 0.5356(5) 0.9524(5) 0.8905(4)
H2 H 0.5245 1.0176 0.8598
H3 H 0.4522 0.9301 0.9167
H4 H 0.5663 0.9040 0.8430
C5 C 0.9609(5) 0.9349(4) 1.0526(4)
C6 C 1.0473(6) 0.9952(6) 1.1073(4)
H5 H 1.0155 1.0528 1.1392
C7 C 1.1788(6) 0.9700(6) 1.1143(5)
H6 H 1.2360 1.0118 1.1494
C8 C 1.2270(7) 0.8843(6) 1.0703(5)
H7 H 1.3163 0.8676 1.0755
C9 C 1.1423(7) 0.8231(4) 1.0187(5)
H8 H 1.1741 0.7640 0.9895
C10 C 1.0099(6) 0.8486(4) 1.0098(4)
H9 H 0.9534 0.8066 0.9744
C11 C 1.0118(6) 1.2873(4) 0.7694(4)
C12 C 1.1345(7) 1.2416(4) 0.7841(3)
H10 H 1.2167 1.2707 0.7711
C13 C 1.1125(5) 1.1445(3) 0.8219(4)
C14 C 1.2103(5) 1.0670(4) 0.8553(4)
H11 H 1.2254 1.0748 0.9242
H12 H 1.2922 1.0762 0.8207
H13 H 1.1762 1.0001 0.8425
C15 C 0.7833(5) 1.2267(3) 0.8202(5)
C16 C 0.6943(7) 1.2404(5) 0.7456(5)
H14 H 0.7237 1.2480 0.6816
C17 C 0.5591(7) 1.2426(6) 0.7669(6)
H15 H 0.4973 1.2485 0.7168
C18 C 0.5176(6) 1.2361(5) 0.8627(6)
H16 H 0.4277 1.2396 0.8771
C19 C 0.6057(7) 1.2247(4) 0.9353(5)
H17 H 0.5768 1.2212 0.9998
C20 C 0.7411(6) 1.2181(5) 0.9141(5)
H18 H 0.8020 1.2078 0.9642
Cd1A Cd 0.62410(4) 1.01940(3) 1.31914(3)
Cd1B Cd 1.12410(4) 1.48060(3) 0.68086(3)
O1A O 0.7287(3) 0.9928(3) 0.7032(2)
O2B O 1.0234(3) 0.8748(3) 0.7623(3)
loop_
_geom_bond_atom_site_label_1
_geom_bond_atom_site_label_2
_geom_bond_site_symmetry_1
_geom_bond_site_symmetry_2
Cd1 N2 1_555 1_555
N1 N2 1_555 1_555
N2 C3 1_555 1_555
N3 N4 1_555 1_555
N4 Cd1 1_555 1_555
O1 C1 1_555 1_555
O2 C11 1_555 1_555
C1 N1 1_555 1_555
C2 C1 1_555 1_555
H1 C2 1_555 1_555
C3 C2 1_555 1_555
C4 C3 1_555 1_555
H2 C4 1_555 1_555
H3 C4 1_555 1_555
H4 C4 1_555 1_555
C5 N1 1_555 1_555
C6 C5 1_555 1_555
H5 C6 1_555 1_555
C7 C6 1_555 1_555
H6 C7 1_555 1_555
C8 C7 1_555 1_555
H7 C8 1_555 1_555
C9 C8 1_555 1_555
H8 C9 1_555 1_555
C10 C5 1_555 1_555
H9 C10 1_555 1_555
C11 N3 1_555 1_555
C12 C11 1_555 1_555
H10 C12 1_555 1_555
C13 N4 1_555 1_555
C14 C13 1_555 1_555
H11 C14 1_555 1_555
H12 C14 1_555 1_555
H13 C14 1_555 1_555
C15 N3 1_555 1_555
C16 C15 1_555 1_555
H14 C16 1_555 1_555
C17 C16 1_555 1_555
H15 C17 1_555 1_555
C18 C17 1_555 1_555
H16 C18 1_555 1_555
C19 C18 1_555 1_555
H17 C19 1_555 1_555
C20 C15 1_555 1_555
H18 C20 1_555 1_555
Cd1A O1 1_555 1_555
Cd1B O2 1_555 1_555
O1A Cd1 1_555 1_555
O2B Cd1 1_555 1_555
C9 C10 1_555 1_555
C12 C13 1_555 1_555
C19 C20 1_555 1_555

#END
