
#######################################################################
#
#                 Cambridge Crystallographic Data Centre
#                                CCDC 
#
#######################################################################
#
# If this CIF has been generated from an entry in the Cambridge 
# Structural Database, then it will include bibliographic, chemical, 
# crystal, experimental, refinement or atomic coordinate data resulting 
# from the CCDC's data processing and validation procedures.
#
#######################################################################

data_TAJLOH
_symmetry_cell_setting           monoclinic
_symmetry_space_group_name_H-M   'P 21/c'
_symmetry_Int_Tables_number      14
_space_group_name_Hall           '-P 2ybc'
loop_
_symmetry_equiv_pos_site_id
_symmetry_equiv_pos_as_xyz
1 x,y,z
2 -x,1/2+y,1/2-z
3 -x,-y,-z
4 x,1/2-y,1/2+z
_cell_length_a                   7.3163(2)
_cell_length_b                   15.6024(3)
_cell_length_c                   17.9687(4)
_cell_angle_alpha                90
_cell_angle_beta                 99.3100(10)
_cell_angle_gamma                90
_cell_volume                     2024.14
loop_
_atom_site_label
_atom_site_type_symbol
_atom_site_fract_x
_atom_site_fract_y
_atom_site_fract_z
Co1 Co 0.35757(5) 0.64855(2) 0.31211(2)
K1 K -0.12534(11) 0.90907(5) 0.45365(4)
S1 S 0.53762(12) 0.81527(5) 0.52828(5)
S2 S 0.09735(12) 0.59950(5) 0.35939(5)
S3 S 0.61786(11) 0.69458(5) 0.26603(5)
O1 O 0.2940(4) 0.43472(14) 0.19032(14)
O2 O 0.1024(3) 0.57826(15) 0.10911(12)
O3 O 0.2286(4) 0.96223(17) 0.45147(16)
N1 N 0.4898(3) 0.54862(15) 0.35309(13)
N2 N 0.2774(3) 0.57673(15) 0.22906(13)
N3 N 0.2053(3) 0.73329(14) 0.25354(13)
N4 N 0.4351(4) 0.72011(16) 0.39700(14)
N5 N -0.0148(5) 0.7285(3) 0.4482(2)
N6 N 0.7104(5) 0.5536(2) 0.18269(19)
C1 C 0.6071(5) 0.5429(2) 0.41868(17)
H1 H 0.6398 0.5921 0.4468
C2 C 0.6797(6) 0.4647(3) 0.4448(2)
H2 H 0.7610 0.4616 0.4902
C3 C 0.6323(6) 0.3921(2) 0.4041(2)
H3 H 0.6767 0.3390 0.4224
C4 C 0.5180(5) 0.3982(2) 0.3355(2)
H4 H 0.4864 0.3496 0.3063
C5 C 0.4510(4) 0.47759(18) 0.31072(18)
C6 C 0.3329(4) 0.49227(18) 0.23578(18)
C7 C 0.1638(4) 0.61192(19) 0.16875(16)
C8 C 0.1197(4) 0.70363(19) 0.18617(15)
C9 C -0.0008(5) 0.7535(2) 0.13788(19)
H5 H -0.0595 0.7318 0.0920
C10 C -0.0329(5) 0.8367(2) 0.1590(2)
H6 H -0.1142 0.8717 0.1273
C11 C 0.0557(5) 0.8674(2) 0.2268(2)
H7 H 0.0362 0.9235 0.2414
C12 C 0.1742(5) 0.81419(19) 0.27335(18)
H8 H 0.2338 0.8349 0.3195
C13 C 0.4774(4) 0.75969(17) 0.45120(16)
C14 C 0.0392(5) 0.6788(2) 0.41068(19)
C15 C 0.6686(4) 0.6107(2) 0.21558(18)
K1B K 0.12534(11) 1.09093(5) 0.54635(4)
K1_2 K 0.87466(11) 0.90907(5) 0.45365(4)
K1A K 0.12534(11) 0.40907(5) 0.04635(4)
K1C K -0.12534(11) 0.59093(5) -0.04635(4)
S1_2 S -0.46238(12) 0.81527(5) 0.52828(5)
O1A O -0.2940(4) 0.93472(14) 0.30968(14)
O2A O -0.1024(3) 1.07826(15) 0.39089(12)
O2C O 0.1024(3) 0.92174(15) 0.60911(12)
O3B O -0.2286(4) 1.03777(17) 0.54853(16)
loop_
_geom_bond_atom_site_label_1
_geom_bond_atom_site_label_2
_geom_bond_site_symmetry_1
_geom_bond_site_symmetry_2
Co1 S2 1_555 1_555
K1 O3 1_555 1_555
S1 C13 1_555 1_555
S2 C14 1_555 1_555
S3 Co1 1_555 1_555
O1 C6 1_555 1_555
O2 C7 1_555 1_555
O3 K1B 1_555 1_555
N1 Co1 1_555 1_555
N2 Co1 1_555 1_555
N3 Co1 1_555 1_555
N4 Co1 1_555 1_555
N5 K1 1_555 1_555
N6 C15 1_555 1_555
C1 N1 1_555 1_555
H1 C1 1_555 1_555
C2 C1 1_555 1_555
H2 C2 1_555 1_555
C3 C2 1_555 1_555
H3 C3 1_555 1_555
C4 C3 1_555 1_555
H4 C4 1_555 1_555
C5 N1 1_555 1_555
C6 N2 1_555 1_555
C7 N2 1_555 1_555
C8 N3 1_555 1_555
C9 C8 1_555 1_555
H5 C9 1_555 1_555
C10 C9 1_555 1_555
H6 C10 1_555 1_555
C11 C10 1_555 1_555
H7 C11 1_555 1_555
C12 N3 1_555 1_555
H8 C12 1_555 1_555
C13 N4 1_555 1_555
C14 N5 1_555 1_555
C15 S3 1_555 1_555
K1B O2A 1_555 1_555
K1_2 S1 1_555 1_555
K1A O1 1_555 1_555
K1C O2 1_555 1_555
S1_2 K1 1_555 1_555
O1A K1 1_555 1_555
O2A K1 1_555 1_555
O2C K1 1_555 1_555
O3B K1 1_555 1_555
O2 K1A 1_555 1_555
C4 C5 1_555 1_555
C5 C6 1_555 1_555
C7 C8 1_555 1_555
C11 C12 1_555 1_555
K1B O2C 1_555 1_555
K1B O3B 1_555 1_555

#END
