
#######################################################################
#
#                 Cambridge Crystallographic Data Centre
#                                CCDC 
#
#######################################################################
#
# If this CIF has been generated from an entry in the Cambridge 
# Structural Database, then it will include bibliographic, chemical, 
# crystal, experimental, refinement or atomic coordinate data resulting 
# from the CCDC's data processing and validation procedures.
#
#######################################################################

data_TAJLIB
_symmetry_cell_setting           triclinic
_symmetry_space_group_name_H-M   'P -1'
_symmetry_Int_Tables_number      2
_space_group_name_Hall           '-P 1'
loop_
_symmetry_equiv_pos_site_id
_symmetry_equiv_pos_as_xyz
1 x,y,z
2 -x,-y,-z
_cell_length_a                   11.7419(3)
_cell_length_b                   11.7459(3)
_cell_length_c                   15.8925(4)
_cell_angle_alpha                96.7740(10)
_cell_angle_beta                 109.2480(10)
_cell_angle_gamma                108.7820(10)
_cell_volume                     1896.59
loop_
_atom_site_label
_atom_site_type_symbol
_atom_site_fract_x
_atom_site_fract_y
_atom_site_fract_z
Co1 Co 0.124444(18) -0.028329(18) 0.295399(13)
Na1 Na -0.10707(8) 0.34210(7) 0.43727(5)
Na2 Na -0.25073(10) 0.19031(10) 0.20902(7)
O1 O -0.08033(12) 0.16219(12) 0.35060(9)
O2 O -0.18871(16) 0.03660(18) 0.15785(11)
O5 O -0.11768(13) 0.52977(14) 0.51272(9)
O6 O -0.33123(14) 0.22661(15) 0.33332(11)
O7 O -0.13006(17) 0.41708(17) 0.29869(12)
O8 O -0.2109(3) 0.2800(3) 0.0894(2)
O9 O -0.4720(2) 0.0842(2) 0.10249(17)
N1 N 0.16821(12) 0.04386(12) 0.42299(9)
N2 N -0.00983(13) 0.03394(13) 0.27547(9)
N3 N 0.04840(13) -0.08955(12) 0.16402(9)
N4 N 0.23682(15) 0.13017(13) 0.28658(10)
N5 N 0.29270(14) 0.13317(13) 0.23616(10)
N6 N 0.3492(2) 0.1431(2) 0.18820(17)
N7 N 0.25866(14) -0.09661(13) 0.31504(11)
N8 N 0.37234(14) -0.03646(13) 0.34025(10)
N9 N 0.48493(18) 0.0174(2) 0.36780(17)
N10 N 0.00503(14) -0.18692(14) 0.30193(10)
N11 N 0.05107(15) -0.23655(13) 0.35756(11)
N12 N 0.0928(2) -0.2848(2) 0.41345(16)
C1 C 0.25922(16) 0.03586(16) 0.49837(11)
H1 H 0.3096 -0.0084 0.4906
C2 C 0.27936(18) 0.09141(18) 0.58623(12)
H2 H 0.3423 0.0843 0.6369
C3 C 0.20630(19) 0.15720(18) 0.59875(12)
H3 H 0.2193 0.1954 0.6577
C4 C 0.11246(17) 0.16588(16) 0.52188(12)
H4 H 0.0617 0.2101 0.5286
C5 C 0.09589(15) 0.10837(14) 0.43623(11)
C6 C -0.00914(15) 0.10609(14) 0.34907(11)
C7 C -0.09402(17) 0.00864(16) 0.18629(12)
C8 C -0.05827(16) -0.06357(15) 0.12271(11)
C9 C -0.12762(19) -0.10128(16) 0.02901(12)
H5 H -0.2003 -0.0823 0.0023
C10 C -0.0880(2) -0.16752(18) -0.02475(13)
H6 H -0.1331 -0.1932 -0.0883
C11 C 0.0189(3) -0.1954(2) 0.01634(15)
H7 H 0.0461 -0.2413 -0.0190
C12 C 0.0864(2) -0.15422(17) 0.11161(13)
H8 H 0.1595 -0.1722 0.1393
Na1A Na 0.10707(8) 0.65790(7) 0.56273(5)
Na1A_2 Na 0.10707(8) -0.34210(7) 0.56273(5)
O5A O 0.11768(13) 0.47023(14) 0.48728(9)
N12A N -0.0928(2) 0.2848(2) 0.58655(16)
Co2 Co 0.358264(19) 0.545671(18) 0.199812(13)
O3 O 0.65883(17) 0.4933(2) 0.37217(11)
O4 O 0.60250(14) 0.37967(15) 0.18827(10)
N13 N 0.41332(13) 0.61702(12) 0.32818(9)
N14 N 0.49768(13) 0.49111(14) 0.24100(10)
N15 N 0.33561(13) 0.46147(13) 0.07969(9)
N16 N 0.23825(15) 0.39090(13) 0.20841(10)
N17 N 0.19946(15) 0.39136(14) 0.26858(11)
N18 N 0.1599(3) 0.3864(2) 0.32537(18)
N19 N 0.21807(15) 0.60587(15) 0.15502(12)
N20 N 0.11356(16) 0.55798(18) 0.15440(14)
N21 N 0.0092(2) 0.5178(3) 0.1537(3)
N22 N 0.48237(16) 0.69979(16) 0.19231(12)
N23 N 0.4400(2) 0.76081(18) 0.14891(16)
N24 N 0.4000(4) 0.8192(4) 0.1017(3)
C13 C 0.36003(18) 0.68078(16) 0.36772(13)
H9 H 0.2895 0.6962 0.3307
C14 C 0.4072(2) 0.72412(18) 0.46203(14)
H10 H 0.3691 0.7688 0.4879
C15 C 0.5110(2) 0.70099(19) 0.51784(13)
H11 H 0.5430 0.7288 0.5815
C16 C 0.56648(18) 0.63553(18) 0.47722(12)
H12 H 0.6371 0.6194 0.5132
C17 C 0.51596(16) 0.59478(15) 0.38327(11)
C18 C 0.56647(17) 0.52130(17) 0.33228(12)
C19 C 0.51803(15) 0.42218(15) 0.17566(11)
C20 C 0.42058(15) 0.40573(15) 0.08209(11)
C21 C 0.41924(18) 0.34089(17) 0.00327(13)
H13 H 0.4786 0.3031 0.0068
C22 C 0.3278(2) 0.33311(19) -0.08128(13)
H14 H 0.3246 0.2897 -0.1355
C23 C 0.2420(2) 0.3907(2) -0.08371(13)
H15 H 0.1806 0.3871 -0.1398
C24 C 0.24752(17) 0.45362(17) -0.00260(11)
H16 H 0.1887 0.4917 -0.0049
loop_
_geom_bond_atom_site_label_1
_geom_bond_atom_site_label_2
_geom_bond_site_symmetry_1
_geom_bond_site_symmetry_2
Co1 N1 1_555 1_555
Co2 N13 1_555 1_555
Na1 O1 1_555 1_555
Na2 O1 1_555 1_555
O1 C6 1_555 1_555
O2 Na2 1_555 1_555
O3 C18 1_555 1_555
O4 C19 1_555 1_555
O5 Na1 1_555 1_555
O6 Na1 1_555 1_555
O7 Na1 1_555 1_555
O8 Na2 1_555 1_555
O9 Na2 1_555 1_555
N1 C1 1_555 1_555
N2 Co1 1_555 1_555
N3 Co1 1_555 1_555
N4 Co1 1_555 1_555
N5 N4 1_555 1_555
N6 N5 1_555 1_555
N7 Co1 1_555 1_555
N8 N7 1_555 1_555
N9 N8 1_555 1_555
N10 Co1 1_555 1_555
N11 N10 1_555 1_555
N12 N11 1_555 1_555
N13 C13 1_555 1_555
N14 Co2 1_555 1_555
N15 Co2 1_555 1_555
N16 Co2 1_555 1_555
N17 N16 1_555 1_555
N18 N17 1_555 1_555
N19 Co2 1_555 1_555
N20 N19 1_555 1_555
N21 N20 1_555 1_555
N22 Co2 1_555 1_555
N23 N22 1_555 1_555
N24 N23 1_555 1_555
C1 H1 1_555 1_555
C2 C1 1_555 1_555
H2 C2 1_555 1_555
C3 C2 1_555 1_555
H3 C3 1_555 1_555
C4 C3 1_555 1_555
H4 C4 1_555 1_555
C5 N1 1_555 1_555
C6 N2 1_555 1_555
C7 O2 1_555 1_555
C8 N3 1_555 1_555
C9 C8 1_555 1_555
H5 C9 1_555 1_555
C10 C9 1_555 1_555
H6 C10 1_555 1_555
C11 C10 1_555 1_555
H7 C11 1_555 1_555
C12 N3 1_555 1_555
H8 C12 1_555 1_555
C13 H9 1_555 1_555
C14 C13 1_555 1_555
H10 C14 1_555 1_555
C15 C14 1_555 1_555
H11 C15 1_555 1_555
C16 C15 1_555 1_555
H12 C16 1_555 1_555
C17 N13 1_555 1_555
C18 N14 1_555 1_555
C19 N14 1_555 1_555
C20 N15 1_555 1_555
C21 C20 1_555 1_555
H13 C21 1_555 1_555
C22 C21 1_555 1_555
H14 C22 1_555 1_555
C23 C22 1_555 1_555
H15 C23 1_555 1_555
C24 N15 1_555 1_555
H16 C24 1_555 1_555
Na1A O5 1_555 1_555
Na1A_2 N12 1_555 1_555
O5A Na1 1_555 1_555
N12A Na1 1_555 1_555
Na2 O6 1_555 1_555
Na2 O7 1_555 1_555
N2 C7 1_555 1_555
C4 C5 1_555 1_555
C5 C6 1_555 1_555
C7 C8 1_555 1_555
C11 C12 1_555 1_555
C16 C17 1_555 1_555
C17 C18 1_555 1_555
C19 C20 1_555 1_555
C23 C24 1_555 1_555
Na1A O5A 1_555 1_555

#END
