
#######################################################################
#
#                 Cambridge Crystallographic Data Centre
#                                CCDC 
#
#######################################################################
#
# If this CIF has been generated from an entry in the Cambridge 
# Structural Database, then it will include bibliographic, chemical, 
# crystal, experimental, refinement or atomic coordinate data resulting 
# from the CCDC's data processing and validation procedures.
#
#######################################################################

data_TAJNUP
_symmetry_cell_setting           monoclinic
_symmetry_space_group_name_H-M   'P 21/n'
_symmetry_Int_Tables_number      14
_space_group_name_Hall           '-P 2yn'
loop_
_symmetry_equiv_pos_site_id
_symmetry_equiv_pos_as_xyz
1 x,y,z
2 1/2-x,1/2+y,1/2-z
3 -x,-y,-z
4 1/2+x,1/2-y,1/2+z
_cell_length_a                   10.194(6)
_cell_length_b                   10.384(7)
_cell_length_c                   18.518(10)
_cell_angle_alpha                90
_cell_angle_beta                 93.304(5)
_cell_angle_gamma                90
_cell_volume                     1956.96
loop_
_atom_site_label
_atom_site_type_symbol
_atom_site_fract_x
_atom_site_fract_y
_atom_site_fract_z
Cd1 Cd 0.073591(12) 0.151064(12) -0.031685(8)
O1 O 0.24217(13) 0.04608(14) -0.08383(9)
O2 O 0.92778(13) -0.01414(13) -0.06271(7)
O3 O 0.29947(14) 0.22211(15) -0.02499(8)
N1 N 0.05712(16) 0.30597(16) -0.12451(9)
O4 O 0.90374(17) -0.19919(14) -0.11793(9)
N2 N -0.10071(16) 0.28584(15) -0.01535(9)
C1 C 0.90731(17) -0.00944(17) -0.18915(10)
C2 C 0.69280(17) 0.09520(18) -0.16294(10)
C3 C 0.32577(19) 0.12933(19) -0.06397(11)
C4 C 1.0073(2) -0.0295(2) -0.23505(11)
H1 H 1.0711 -0.0913 -0.2235
C5 C 0.8170(2) 0.1497(2) -0.27046(11)
H2 H 0.7525 0.2102 -0.2831
C6 C 0.91222(16) -0.08145(18) -0.11948(10)
C7 C -0.01581(19) 0.40875(18) -0.11152(11)
C8 C 0.80916(17) 0.08006(18) -0.20679(10)
C9 C -0.1890(2) 0.2624(2) 0.03312(12)
H3 H -0.1853 0.1847 0.0581
C10 C 0.45882(18) 0.11787(19) -0.09294(10)
C11 C 1.0135(2) 0.0408(2) -0.29742(12)
H4 H 1.0820 0.0274 -0.3277
C12 C -0.0100(2) 0.5185(2) -0.15311(13)
H5 H -0.0593 0.5907 -0.1423
C13 C 0.52488(19) 0.22608(19) -0.11469(11)
H6 H 0.4917 0.3074 -0.1052
C14 C -0.2876(2) 0.4652(3) 0.01269(14)
H7 H -0.3495 0.5271 0.0233
C15 C 0.0690(3) 0.5202(3) -0.21058(14)
H8 H 0.0733 0.5933 -0.2394
C16 C 0.62986(18) -0.01207(19) -0.13731(11)
H9 H 0.6669 -0.0931 -0.1429
C17 C -0.10690(19) 0.39609(18) -0.05264(11)
C18 C 0.63939(18) 0.21485(19) -0.15035(11)
H10 H 0.6811 0.2885 -0.1661
C19 C 0.51360(18) -0.00121(19) -0.10372(11)
H11 H 0.4717 -0.0749 -0.0882
C20 C -0.2852(3) 0.3493(2) 0.04746(15)
H12 H -0.3479 0.3296 0.0803
C21 C 0.1340(2) 0.3092(2) -0.18024(13)
H13 H 0.1850 0.2373 -0.1892
C22 C -0.1981(2) 0.4896(2) -0.03784(13)
H14 H -0.1986 0.5681 -0.0620
C23 C 0.1412(2) 0.4138(3) -0.22503(13)
H15 H 0.1941 0.4122 -0.2643
C24 C 0.9187(2) 0.1309(2) -0.31512(12)
H16 H 0.9230 0.1792 -0.3572
Cd1B Cd 0.926409(12) -0.151064(12) 0.031685(8)
Cd1_2 Cd 1.073591(12) 0.151064(12) -0.031685(8)
O2B O 0.07222(13) 0.01414(13) 0.06271(7)
O2_2 O -0.07222(13) -0.01414(13) -0.06271(7)
loop_
_geom_bond_atom_site_label_1
_geom_bond_atom_site_label_2
_geom_bond_site_symmetry_1
_geom_bond_site_symmetry_2
Cd1 O1 1_555 1_555
O1 C3 1_555 1_555
O2 C6 1_555 1_555
O3 Cd1 1_555 1_555
N1 Cd1 1_555 1_555
O4 C6 1_555 1_555
N2 Cd1 1_555 1_555
C1 C4 1_555 1_555
C2 C8 1_555 1_555
C3 O3 1_555 1_555
C4 H1 1_555 1_555
C5 H2 1_555 1_555
C6 C1 1_555 1_555
C7 N1 1_555 1_555
C8 C1 1_555 1_555
C9 N2 1_555 1_555
H3 C9 1_555 1_555
C10 C3 1_555 1_555
C11 C4 1_555 1_555
H4 C11 1_555 1_555
C12 C7 1_555 1_555
H5 C12 1_555 1_555
C13 C10 1_555 1_555
H6 C13 1_555 1_555
C14 H7 1_555 1_555
C15 C12 1_555 1_555
H8 C15 1_555 1_555
C16 C2 1_555 1_555
H9 C16 1_555 1_555
C17 N2 1_555 1_555
C18 C2 1_555 1_555
H10 C18 1_555 1_555
C19 C10 1_555 1_555
H11 C19 1_555 1_555
C20 C9 1_555 1_555
H12 C20 1_555 1_555
C21 N1 1_555 1_555
H13 C21 1_555 1_555
C22 C14 1_555 1_555
H14 C22 1_555 1_555
C23 C15 1_555 1_555
H15 C23 1_555 1_555
C24 C5 1_555 1_555
H16 C24 1_555 1_555
Cd1B O2 1_555 1_555
Cd1_2 O2 1_555 1_555
O2B Cd1 1_555 1_555
O2_2 Cd1 1_555 1_555
C5 C8 1_555 1_555
C7 C17 1_555 1_555
C11 C24 1_555 1_555
C13 C18 1_555 1_555
C14 C20 1_555 1_555
C16 C19 1_555 1_555
C17 C22 1_555 1_555
C21 C23 1_555 1_555

#END
