
#######################################################################
#
#                 Cambridge Crystallographic Data Centre
#                                CCDC 
#
#######################################################################
#
# If this CIF has been generated from an entry in the Cambridge 
# Structural Database, then it will include bibliographic, chemical, 
# crystal, experimental, refinement or atomic coordinate data resulting 
# from the CCDC's data processing and validation procedures.
#
#######################################################################

data_TAJPAX
_symmetry_cell_setting           triclinic
_symmetry_space_group_name_H-M   'P -1'
_symmetry_Int_Tables_number      2
_space_group_name_Hall           '-P 1'
loop_
_symmetry_equiv_pos_site_id
_symmetry_equiv_pos_as_xyz
1 x,y,z
2 -x,-y,-z
_cell_length_a                   9.7295(5)
_cell_length_b                   11.9107(7)
_cell_length_c                   14.2445(8)
_cell_angle_alpha                107.3620(10)
_cell_angle_beta                 104.2840(10)
_cell_angle_gamma                101.9200(10)
_cell_volume                     1455.08
loop_
_atom_site_label
_atom_site_type_symbol
_atom_site_fract_x
_atom_site_fract_y
_atom_site_fract_z
Cd1 Cd 0.641261(16) 0.246481(13) 0.230584(12)
O1 O 0.68623(19) 0.24450(18) 0.06807(15)
O2 O 0.8724(2) 0.25262(17) 0.19606(14)
O3 O 1.4378(2) 0.67906(18) 0.60458(14)
O4 O 1.2099(2) 0.67474(17) 0.60084(13)
N1 N 0.6414(2) 0.45359(16) 0.24016(15)
N2 N 0.6335(2) 1.04528(17) 0.23484(16)
N3 N 0.3829(2) 0.16646(17) 0.13719(15)
C1 C 0.8225(3) 0.2636(2) 0.11114(19)
C2 C 0.9276(2) 0.3015(2) 0.05573(18)
C3 C 0.8831(3) 0.2425(2) -0.05173(19)
H1 H 0.7903 0.1832 -0.0861
C4 C 0.9713(3) 0.2685(3) -0.1087(2)
H2 H 0.9399 0.2264 -0.1804
C5 C 1.1066(4) 0.3577(3) -0.0584(2)
H3 H 1.1668 0.3777 -0.0963
C6 C 1.1537(3) 0.4178(3) 0.0479(2)
H4 H 1.2456 0.4785 0.0807
C7 C 1.0678(3) 0.3905(2) 0.10787(19)
C8 C 1.1282(3) 0.4597(2) 0.22241(18)
C9 C 1.2726(3) 0.4709(3) 0.2789(2)
H5 H 1.3310 0.4345 0.2443
C10 C 1.3308(3) 0.5353(2) 0.38573(19)
H6 H 1.4283 0.5432 0.4217
C11 C 1.2452(3) 0.5878(2) 0.43927(18)
C12 C 1.1010(3) 0.5780(2) 0.38285(19)
H7 H 1.0422 0.6134 0.4176
C13 C 1.0445(3) 0.5165(2) 0.27622(19)
H8 H 0.9491 0.5130 0.2398
C14 C 1.3033(3) 0.6520(2) 0.55555(19)
C15 C 0.5708(3) 0.4704(2) 0.15490(18)
H9 H 0.5224 0.4016 0.0937
C16 C 0.5658(3) 0.5845(2) 0.15299(19)
H10 H 0.5128 0.5913 0.0920
C17 C 0.6402(2) 0.6893(2) 0.24243(18)
C18 C 0.7152(3) 0.6722(2) 0.33082(19)
H11 H 0.7678 0.7397 0.3924
C19 C 0.7112(3) 0.5541(2) 0.32667(19)
H12 H 0.7597 0.5441 0.3873
C20 C 0.6384(3) 0.8137(2) 0.24211(19)
C21 C 0.5119(3) 0.8318(3) 0.1893(3)
H13 H 0.4248 0.7661 0.1538
C22 C 0.5144(3) 0.9478(3) 0.1889(3)
H14 H 0.4263 0.9579 0.1539
C23 C 0.7564(3) 1.0269(2) 0.2840(2)
H15 H 0.8429 1.0935 0.3165
C24 C 0.7632(3) 0.9142(2) 0.2896(2)
H16 H 0.8524 0.9067 0.3257
C25 C 0.3312(3) 0.1079(3) 0.0345(2)
H17 H 0.3985 0.1110 -0.0017
C26 C 0.1844(3) 0.0429(3) -0.0216(2)
H18 H 0.1553 0.0031 -0.0934
C27 C 0.0800(2) 0.0365(2) 0.02890(17)
C28 C 0.1332(3) 0.0996(3) 0.1350(2)
H19 H 0.0677 0.0999 0.1728
C29 C 0.2828(3) 0.1625(3) 0.18613(19)
H20 H 0.3149 0.2039 0.2579
Cd1A Cd 1.358739(16) 0.753519(13) 0.769416(12)
Cd1_2 Cd 0.641261(16) 1.246481(13) 0.230584(12)
Cd1A_2 Cd -0.641261(16) -0.246481(13) -0.230584(12)
Cd1_3 Cd 0.641261(16) -0.753519(13) 0.230584(12)
O1A O 1.31377(19) 0.75550(18) 0.93193(15)
O2A O 1.1276(2) 0.74738(17) 0.80394(14)
O3A O 0.5622(2) 0.32094(18) 0.39542(14)
O4A O 0.7901(2) 0.32526(17) 0.39916(13)
N1_2 N 0.6414(2) -0.54641(16) 0.24016(15)
N1A N 1.3586(2) 0.54641(16) 0.75984(15)
N2_2 N 0.6335(2) 0.04528(17) 0.23484(16)
N2A N 1.3665(2) 0.95472(17) 0.76516(16)
N3A N -0.3829(2) -0.16646(17) -0.13719(15)
N3A_2 N 1.6171(2) 0.83354(17) 0.86281(15)
C1A C 1.1775(3) 0.7364(2) 0.88886(19)
C2A C 1.0724(2) 0.6985(2) 0.94427(18)
C3A C 1.1169(3) 0.7575(2) 1.05173(19)
H1A H 1.2097 0.8168 1.0861
C4A C 1.0287(3) 0.7315(3) 1.1087(2)
H2A H 1.0601 0.7736 1.1804
C5A C 0.8934(4) 0.6423(3) 1.0584(2)
H3A H 0.8332 0.6223 1.0963
C6A C 0.8463(3) 0.5822(3) 0.9521(2)
H4A H 0.7544 0.5215 0.9193
C7A C 0.9322(3) 0.6095(2) 0.89213(19)
C8A C 0.8718(3) 0.5403(2) 0.77759(18)
C9A C 0.7274(3) 0.5291(3) 0.7211(2)
H5A H 0.6690 0.5655 0.7557
C10A C 0.6692(3) 0.4647(2) 0.61427(19)
H6A H 0.5717 0.4568 0.5783
C11A C 0.7548(3) 0.4122(2) 0.56073(18)
C12A C 0.8990(3) 0.4220(2) 0.61715(19)
H7A H 0.9578 0.3866 0.5824
C13A C 0.9555(3) 0.4835(2) 0.72378(19)
H8A H 1.0509 0.4870 0.7602
C14A C 0.6967(3) 0.3480(2) 0.44445(19)
C15_2 C 0.5708(3) -0.5296(2) 0.15490(18)
H9_2 H 0.5224 -0.5984 0.0937
C16_2 C 0.5658(3) -0.4155(2) 0.15299(19)
H10_2 H 0.5128 -0.4087 0.0920
C17_2 C 0.6402(2) -0.3107(2) 0.24243(18)
C18_2 C 0.7152(3) -0.3278(2) 0.33082(19)
H11_2 H 0.7678 -0.2603 0.3924
C19_2 C 0.7112(3) -0.4459(2) 0.32667(19)
H12_2 H 0.7597 -0.4559 0.3873
C20_2 C 0.6384(3) -0.1863(2) 0.24211(19)
C21_2 C 0.5119(3) -0.1682(3) 0.1893(3)
H13_2 H 0.4248 -0.2339 0.1538
C22_2 C 0.5144(3) -0.0522(3) 0.1889(3)
H14_2 H 0.4263 -0.0421 0.1539
C23_2 C 0.7564(3) 0.0269(2) 0.2840(2)
H15_2 H 0.8429 0.0935 0.3165
C24_2 C 0.7632(3) -0.0858(2) 0.2896(2)
H16_2 H 0.8524 -0.0933 0.3257
C25A C -0.3312(3) -0.1079(3) -0.0345(2)
H17A H -0.3985 -0.1110 0.0017
C26A C -0.1844(3) -0.0429(3) 0.0216(2)
H18A H -0.1553 -0.0031 0.0934
C27A C -0.0800(2) -0.0365(2) -0.02890(17)
C28A C -0.1332(3) -0.0996(3) -0.1350(2)
H19A H -0.0677 -0.0999 -0.1728
C29A C -0.2828(3) -0.1625(3) -0.18613(19)
H20A H -0.3149 -0.2039 -0.2579
N4 N 0.1212(3) -0.0163(4) 0.4025(3)
C30 C 0.2298(4) 0.0766(4) 0.4134(3)
H21 H 0.2051 0.1400 0.3944
C31 C 0.3783(4) 0.0876(3) 0.4510(3)
H22 H 0.4498 0.1570 0.4569
C32 C 0.4215(3) -0.0033(3) 0.4798(2)
C33 C 0.3054(7) -0.0856(6) 0.4912(7)
H23 H 0.3290 -0.1385 0.5249
C34 C 0.1590(8) -0.0905(8) 0.4546(7)
H24 H 0.0859 -0.1443 0.4654
N4A N 0.8788(3) 0.0163(4) 0.5975(3)
C30A C 0.7702(4) -0.0766(4) 0.5866(3)
H21A H 0.7949 -0.1400 0.6056
C31A C 0.6217(4) -0.0876(3) 0.5490(3)
H22A H 0.5502 -0.1570 0.5431
C32A C 0.5785(3) 0.0033(3) 0.5202(2)
C33A C 0.6946(7) 0.0856(6) 0.5088(7)
H23A H 0.6710 0.1385 0.4751
C34A C 0.8410(8) 0.0905(8) 0.5454(7)
H24A H 0.9141 0.1443 0.5346
O5 O 0.9244(2) 0.6986(2) 0.58036(19)
H25 H 1.0003 0.6797 0.5782
H26 H 0.9338 0.7197 0.6425
C35? C 0.3121(9) -0.1166(7) 0.4410(8)
C36? C 0.1694(11) -0.1153(9) 0.4024(9)
H27? H 0.3346 -0.1887 0.4414
H28? H 0.0965 -0.1917 0.3723
loop_
_geom_bond_atom_site_label_1
_geom_bond_atom_site_label_2
_geom_bond_site_symmetry_1
_geom_bond_site_symmetry_2
Cd1 O1 1_555 1_555
O1 C1 1_555 1_555
O2 Cd1 1_555 1_555
O3 C14 1_555 1_555
O4 C14 1_555 1_555
N1 Cd1 1_555 1_555
N2 C22 1_555 1_555
N3 Cd1 1_555 1_555
C1 O2 1_555 1_555
C2 C1 1_555 1_555
C3 C2 1_555 1_555
H1 C3 1_555 1_555
C4 C3 1_555 1_555
H2 C4 1_555 1_555
C5 C4 1_555 1_555
H3 C5 1_555 1_555
C6 C5 1_555 1_555
H4 C6 1_555 1_555
C7 C2 1_555 1_555
C8 C7 1_555 1_555
C9 C8 1_555 1_555
H5 C9 1_555 1_555
C10 C9 1_555 1_555
H6 C10 1_555 1_555
C11 C10 1_555 1_555
C12 C11 1_555 1_555
H7 C12 1_555 1_555
C13 C8 1_555 1_555
H8 C13 1_555 1_555
C14 C11 1_555 1_555
C15 N1 1_555 1_555
H9 C15 1_555 1_555
C16 C15 1_555 1_555
H10 C16 1_555 1_555
C17 C16 1_555 1_555
C18 C17 1_555 1_555
H11 C18 1_555 1_555
C19 N1 1_555 1_555
H12 C19 1_555 1_555
C20 C17 1_555 1_555
C21 C20 1_555 1_555
H13 C21 1_555 1_555
C22 C21 1_555 1_555
H14 C22 1_555 1_555
C23 N2 1_555 1_555
H15 C23 1_555 1_555
C24 C20 1_555 1_555
H16 C24 1_555 1_555
C25 N3 1_555 1_555
H17 C25 1_555 1_555
C26 C25 1_555 1_555
H18 C26 1_555 1_555
C27 C26 1_555 1_555
C28 C27 1_555 1_555
H19 C28 1_555 1_555
C29 N3 1_555 1_555
H20 C29 1_555 1_555
N4 C30 1_555 1_555
C30 H21 1_555 1_555
C31 C30 1_555 1_555
H22 C31 1_555 1_555
C32 C31 1_555 1_555
C33 C32 1_555 1_555
H23 C33 1_555 1_555
C34 N4 1_555 1_555
H24 C34 1_555 1_555
O5 H25 1_555 1_555
H26 O5 1_555 1_555
Cd1A O3 1_555 1_555
Cd1_2 N2 1_555 1_555
Cd1A_2 N3A 1_555 1_555
Cd1_3 N1_2 1_555 1_555
O1A Cd1A 1_555 1_555
O2A Cd1A 1_555 1_555
O3A Cd1 1_555 1_555
O4A Cd1 1_555 1_555
N1_2 C15_2 1_555 1_555
N1A Cd1A 1_555 1_555
N2_2 Cd1 1_555 1_555
N2A Cd1A 1_555 1_555
N3A C25A 1_555 1_555
N3A_2 Cd1A 1_555 1_555
C1A O1A 1_555 1_555
C2A C1A 1_555 1_555
C3A C2A 1_555 1_555
H1A C3A 1_555 1_555
C4A C3A 1_555 1_555
H2A C4A 1_555 1_555
C5A C4A 1_555 1_555
H3A C5A 1_555 1_555
C6A C5A 1_555 1_555
H4A C6A 1_555 1_555
C7A C2A 1_555 1_555
C8A C7A 1_555 1_555
C9A C8A 1_555 1_555
H5A C9A 1_555 1_555
C10A C9A 1_555 1_555
H6A C10A 1_555 1_555
C11A C10A 1_555 1_555
C12A C11A 1_555 1_555
H7A C12A 1_555 1_555
C13A C8A 1_555 1_555
H8A C13A 1_555 1_555
C14A O3A 1_555 1_555
C15_2 H9_2 1_555 1_555
C16_2 C15_2 1_555 1_555
H10_2 C16_2 1_555 1_555
C17_2 C16_2 1_555 1_555
C18_2 C17_2 1_555 1_555
H11_2 C18_2 1_555 1_555
C19_2 N1_2 1_555 1_555
H12_2 C19_2 1_555 1_555
C20_2 C17_2 1_555 1_555
C21_2 C20_2 1_555 1_555
H13_2 C21_2 1_555 1_555
C22_2 N2_2 1_555 1_555
H14_2 C22_2 1_555 1_555
C23_2 N2_2 1_555 1_555
H15_2 C23_2 1_555 1_555
C24_2 C20_2 1_555 1_555
H16_2 C24_2 1_555 1_555
C25A H17A 1_555 1_555
C26A C25A 1_555 1_555
H18A C26A 1_555 1_555
C27A C27 1_555 1_555
C28A C27A 1_555 1_555
H19A C28A 1_555 1_555
C29A N3A 1_555 1_555
H20A C29A 1_555 1_555
N4A C30A 1_555 1_555
C30A H21A 1_555 1_555
C31A C30A 1_555 1_555
H22A C31A 1_555 1_555
C32A C32 1_555 1_555
C33A C32A 1_555 1_555
H23A C33A 1_555 1_555
C34A N4A 1_555 1_555
H24A C34A 1_555 1_555
O4 Cd1A 1_555 1_555
C6 C7 1_555 1_555
C12 C13 1_555 1_555
C18 C19 1_555 1_555
C23 C24 1_555 1_555
C28 C29 1_555 1_555
C33 C34 1_555 1_555
O2A C1A 1_555 1_555
O4A C14A 1_555 1_555
C6A C7A 1_555 1_555
C11A C14A 1_555 1_555
C12A C13A 1_555 1_555
C18_2 C19_2 1_555 1_555
C21_2 C22_2 1_555 1_555
C23_2 C24_2 1_555 1_555
C26A C27A 1_555 1_555
C28A C29A 1_555 1_555
C31A C32A 1_555 1_555
C33A C34A 1_555 1_555

#END
