
#######################################################################
#
#                 Cambridge Crystallographic Data Centre
#                                CCDC 
#
#######################################################################
#
# If this CIF has been generated from an entry in the Cambridge 
# Structural Database, then it will include bibliographic, chemical, 
# crystal, experimental, refinement or atomic coordinate data resulting 
# from the CCDC's data processing and validation procedures.
#
#######################################################################

data_TAJPEB
_symmetry_cell_setting           monoclinic
_symmetry_space_group_name_H-M   'P 21/c'
_symmetry_Int_Tables_number      14
_space_group_name_Hall           '-P 2ybc'
loop_
_symmetry_equiv_pos_site_id
_symmetry_equiv_pos_as_xyz
1 x,y,z
2 -x,1/2+y,1/2-z
3 -x,-y,-z
4 x,1/2-y,1/2+z
_cell_length_a                   18.5333(10)
_cell_length_b                   8.4344(5)
_cell_length_c                   17.6921(10)
_cell_angle_alpha                90
_cell_angle_beta                 108.5960(10)
_cell_angle_gamma                90
_cell_volume                     2621.19
loop_
_atom_site_label
_atom_site_type_symbol
_atom_site_fract_x
_atom_site_fract_y
_atom_site_fract_z
Cd1 Cd 0.352688(7) 0.894850(15) 0.036951(7)
O1 O 0.24509(8) 1.03147(17) 0.04969(7)
O2 O 0.30870(7) 0.89697(15) 0.15675(8)
O3 O 0.53868(8) 1.3130(2) 0.37092(9)
O4 O 0.51723(8) 1.2813(2) 0.48483(9)
O5 O 0.41438(8) 1.15193(18) 0.06779(8)
H1 H 0.4417 1.1631 0.1141
H2 H 0.4411 1.1731 0.0401
N1 N 0.29561(10) 0.64154(19) 0.02816(9)
N2 N 0.28237(12) 0.3848(2) 0.04797(11)
H3 H 0.2949 0.2889 0.0629
N3 N 0.31920(9) 0.91526(18) -0.09821(9)
N4 N 0.31075(10) 0.8208(2) -0.21770(9)
H4 H 0.3231 0.7710 -0.2542
C1 C 0.25149(10) 0.9745(2) 0.11761(10)
C2 C 0.18651(9) 0.9942(2) 0.15079(10)
C3 C 0.11325(11) 0.9550(3) 0.10289(13)
H5 H 0.1039 0.9324 0.0492
C4 C 0.05436(12) 0.9498(4) 0.13480(16)
H6 H 0.0054 0.9248 0.1024
C5 C 0.06778(12) 0.9813(3) 0.21446(16)
H7 H 0.0284 0.9734 0.2362
C6 C 0.13970(11) 1.0246(3) 0.26204(13)
H8 H 0.1483 1.0469 0.3157
C7 C 0.19962(10) 1.0355(2) 0.23071(10)
C8 C 0.27420(10) 1.1005(2) 0.27969(10)
C9 C 0.30828(10) 1.2197(2) 0.24811(10)
H9 H 0.2827 1.2609 0.1979
C10 C 0.37922(10) 1.2771(2) 0.29034(11)
H10 H 0.4018 1.3549 0.2681
C11 C 0.41717(10) 1.2194(2) 0.36593(11)
C12 C 0.38232(11) 1.1055(2) 0.39927(11)
H11 H 0.4068 1.0686 0.4506
C13 C 0.31133(11) 1.0468(2) 0.35636(10)
H12 H 0.2883 0.9708 0.3791
C14 C 0.49584(10) 1.2750(2) 0.41083(12)
C15 C 0.33006(13) 0.5087(3) 0.05724(12)
H13 H 0.3824 0.5009 0.0819
C16 C 0.20987(13) 0.4399(2) 0.01024(12)
C17 C 0.13916(15) 0.3668(3) -0.01198(15)
H14 H 0.1340 0.2595 -0.0026
C18 C 0.07722(15) 0.4602(3) -0.04843(16)
H15 H 0.0288 0.4156 -0.0637
C19 C 0.08529(15) 0.6219(3) -0.06326(17)
H16 H 0.0422 0.6817 -0.0888
C20 C 0.15572(12) 0.6937(3) -0.04077(12)
H17 H 0.1608 0.8005 -0.0510
C21 C 0.21879(12) 0.6016(2) -0.00244(12)
C22 C 0.35212(11) 0.8301(2) -0.14044(11)
H18 H 0.3993 0.7815 -0.1188
C23 C 0.24498(12) 0.9054(2) -0.22788(11)
C24 C 0.18257(13) 0.9368(3) -0.29469(13)
H19 H 0.1790 0.8959 -0.3446
C25 C 0.12685(14) 1.0306(3) -0.28342(15)
H20 H 0.0843 1.0541 -0.3268
C26 C 0.13174(12) 1.0924(3) -0.20851(15)
H21 H 0.0925 1.1558 -0.2034
C27 C 0.19349(11) 1.0615(2) -0.14222(12)
H22 H 0.1968 1.1028 -0.0925
C28 C 0.25065(10) 0.9659(2) -0.15280(10)
Cd1A Cd 0.647312(7) 1.394850(15) 0.463049(7)
O3A O 0.46132(8) 0.8130(2) 0.12908(9)
O6 O 0.5228(2) 0.3604(7) 0.2075(2)
H23 H 0.5235 0.2975 0.2453
H24 H 0.4918 0.3655 0.1604
H25? H 0.5207 0.1956 0.2676
H26? H 0.5565 0.1068 0.2275
O7? O 0.5131(3) 0.1450(13) 0.2242(3)
loop_
_geom_bond_atom_site_label_1
_geom_bond_atom_site_label_2
_geom_bond_site_symmetry_1
_geom_bond_site_symmetry_2
Cd1 O1 1_555 1_555
O1 C1 1_555 1_555
O2 Cd1 1_555 1_555
O3 C14 1_555 1_555
O4 C14 1_555 1_555
O5 Cd1 1_555 1_555
H1 O5 1_555 1_555
H2 O5 1_555 1_555
N1 Cd1 1_555 1_555
N2 H3 1_555 1_555
N3 Cd1 1_555 1_555
N4 H4 1_555 1_555
C1 O2 1_555 1_555
C2 C1 1_555 1_555
C3 C2 1_555 1_555
H5 C3 1_555 1_555
C4 C3 1_555 1_555
H6 C4 1_555 1_555
C5 C4 1_555 1_555
H7 C5 1_555 1_555
C6 C5 1_555 1_555
H8 C6 1_555 1_555
C7 C2 1_555 1_555
C8 C7 1_555 1_555
C9 C8 1_555 1_555
H9 C9 1_555 1_555
C10 C9 1_555 1_555
H10 C10 1_555 1_555
C11 C10 1_555 1_555
C12 C11 1_555 1_555
H11 C12 1_555 1_555
C13 C8 1_555 1_555
H12 C13 1_555 1_555
C14 C11 1_555 1_555
C15 N1 1_555 1_555
H13 C15 1_555 1_555
C16 N2 1_555 1_555
C17 C16 1_555 1_555
H14 C17 1_555 1_555
C18 C17 1_555 1_555
H15 C18 1_555 1_555
C19 C18 1_555 1_555
H16 C19 1_555 1_555
C20 C19 1_555 1_555
H17 C20 1_555 1_555
C21 N1 1_555 1_555
C22 N3 1_555 1_555
H18 C22 1_555 1_555
C23 N4 1_555 1_555
C24 C23 1_555 1_555
H19 C24 1_555 1_555
C25 C24 1_555 1_555
H20 C25 1_555 1_555
C26 C25 1_555 1_555
H21 C26 1_555 1_555
C27 C26 1_555 1_555
H22 C27 1_555 1_555
C28 N3 1_555 1_555
O6 H23 1_555 1_555
H24 O6 1_555 1_555
Cd1A O3 1_555 1_555
O3A Cd1 1_555 1_555
N2 C15 1_555 1_555
N4 C22 1_555 1_555
C6 C7 1_555 1_555
C12 C13 1_555 1_555
C16 C21 1_555 1_555
C20 C21 1_555 1_555
C23 C28 1_555 1_555
C27 C28 1_555 1_555

#END
