
#######################################################################
#
#                 Cambridge Crystallographic Data Centre
#                                CCDC 
#
#######################################################################
#
# If this CIF has been generated from an entry in the Cambridge 
# Structural Database, then it will include bibliographic, chemical, 
# crystal, experimental, refinement or atomic coordinate data resulting 
# from the CCDC's data processing and validation procedures.
#
#######################################################################

data_TAJPUR
_symmetry_cell_setting           orthorhombic
_symmetry_space_group_name_H-M   'P b c a'
_symmetry_Int_Tables_number      61
_space_group_name_Hall           '-P 2ac 2ab'
loop_
_symmetry_equiv_pos_site_id
_symmetry_equiv_pos_as_xyz
1 x,y,z
2 1/2+x,1/2-y,-z
3 -x,1/2+y,1/2-z
4 1/2-x,-y,1/2+z
5 -x,-y,-z
6 1/2-x,1/2+y,z
7 x,1/2-y,1/2+z
8 1/2+x,y,1/2-z
_cell_length_a                   13.7599(9)
_cell_length_b                   6.0567(5)
_cell_length_c                   28.110(2)
_cell_angle_alpha                90
_cell_angle_beta                 90
_cell_angle_gamma                90
_cell_volume                     2342.68
loop_
_atom_site_label
_atom_site_type_symbol
_atom_site_fract_x
_atom_site_fract_y
_atom_site_fract_z
V1 V -0.13027(5) 0.10806(17) 0.38508(3)
P1 P 0.10989(8) 0.0518(3) 0.38658(5)
P2 P 0.14800(9) 0.1107(3) 0.16023(5)
O1 O 0.1435(2) -0.1769(7) 0.40125(12)
O2 O 0.1773(2) 0.2400(7) 0.40603(12)
O3 O 0.0105(2) 0.1165(6) 0.40619(12)
O4 O 0.2581(2) 0.1144(6) 0.15714(12)
O5 O 0.1033(2) -0.0866(6) 0.13454(12)
O6 O 0.0984(2) 0.3205(7) 0.14073(12)
O7 O -0.1796(2) 0.0926(7) 0.43597(12)
C1 C 0.1128(3) 0.0653(11) 0.32328(19)
C2 C 0.1465(3) -0.1130(10) 0.29628(19)
H3 H 0.1659 -0.2449 0.3119
C3 C 0.1522(3) -0.1006(10) 0.24702(19)
H4 H 0.1747 -0.2242 0.2294
C4 C 0.1248(3) 0.0934(10) 0.22305(19)
C5 C 0.0896(3) 0.2721(11) 0.24941(19)
H5 H 0.0693 0.4028 0.2336
C6 C 0.0842(3) 0.2593(11) 0.29906(18)
H6 H 0.0610 0.3823 0.3167
V1G V 0.36973(5) 0.10806(17) 0.11492(3)
V1B V 0.13027(5) -0.39194(17) 0.11492(3)
V1B_2 V 0.13027(5) 0.60806(17) 0.11492(3)
O4G O -0.2419(2) 0.1144(6) 0.34286(12)
O5B O -0.1033(2) 0.4134(6) 0.36546(12)
O6B O -0.0984(2) -0.1795(7) 0.35927(12)
N1 N 0.4700(3) 0.4541(9) 0.95214(16)
H1 H 0.4456 0.3577 0.9299
H2 H 0.4809 0.5875 0.9374
C7 C 0.5632(4) 0.3667(11) 0.97126(19)
H7 H 0.6111 0.3534 0.9451
H8 H 0.5524 0.2179 0.9848
C8 C 0.3978(4) 0.4837(12) 0.9912(2)
H9 H 0.3371 0.5468 0.9781
H10 H 0.3822 0.3384 1.0054
N1D N 0.5300(3) 0.5459(9) 1.04786(16)
H1D H 0.5544 0.6423 1.0701
H2D H 0.5191 0.4125 1.0626
C7D C 0.4368(4) 0.6333(11) 1.02874(19)
H7D H 0.3889 0.6466 1.0549
H8D H 0.4476 0.7821 1.0152
C8D C 0.6022(4) 0.5163(12) 1.0088(2)
H9D H 0.6629 0.4532 1.0219
H10D H 0.6178 0.6616 0.9946
loop_
_geom_bond_atom_site_label_1
_geom_bond_atom_site_label_2
_geom_bond_site_symmetry_1
_geom_bond_site_symmetry_2
V1 O3 1_555 1_555
P1 O1 1_555 1_555
P2 O4 1_555 1_555
O2 P1 1_555 1_555
O3 P1 1_555 1_555
O4 V1G 1_555 1_555
O5 P2 1_555 1_555
O6 P2 1_555 1_555
O7 V1 1_555 1_555
N1 H1 1_555 1_555
H2 N1 1_555 1_555
C1 P1 1_555 1_555
C2 C1 1_555 1_555
H3 C2 1_555 1_555
C3 C2 1_555 1_555
H4 C3 1_555 1_555
C4 P2 1_555 1_555
C5 C4 1_555 1_555
H5 C5 1_555 1_555
C6 C1 1_555 1_555
H6 C6 1_555 1_555
C7 N1 1_555 1_555
H7 C7 1_555 1_555
H8 C7 1_555 1_555
C8 N1 1_555 1_555
H9 C8 1_555 1_555
H10 C8 1_555 1_555
V1B O5 1_555 1_555
V1B_2 O6 1_555 1_555
O4G V1 1_555 1_555
O5B V1 1_555 1_555
O6B V1 1_555 1_555
N1D H1D 1_555 1_555
H2D N1D 1_555 1_555
C7D C8 1_555 1_555
H7D C7D 1_555 1_555
H8D C7D 1_555 1_555
C8D C7 1_555 1_555
H9D C8D 1_555 1_555
H10D C8D 1_555 1_555
C3 C4 1_555 1_555
C5 C6 1_555 1_555
N1D C7D 1_555 1_555
N1D C8D 1_555 1_555

#END
