
#######################################################################
#
#                 Cambridge Crystallographic Data Centre
#                                CCDC 
#
#######################################################################
#
# If this CIF has been generated from an entry in the Cambridge 
# Structural Database, then it will include bibliographic, chemical, 
# crystal, experimental, refinement or atomic coordinate data resulting 
# from the CCDC's data processing and validation procedures.
#
#######################################################################

data_TAJPIF
_symmetry_cell_setting           monoclinic
_symmetry_space_group_name_H-M   'P 21/n'
_symmetry_Int_Tables_number      14
_space_group_name_Hall           '-P 2yn'
loop_
_symmetry_equiv_pos_site_id
_symmetry_equiv_pos_as_xyz
1 x,y,z
2 1/2-x,1/2+y,1/2-z
3 -x,-y,-z
4 1/2+x,1/2-y,1/2+z
_cell_length_a                   10.0671(9)
_cell_length_b                   6.1691(6)
_cell_length_c                   14.0546(13)
_cell_angle_alpha                90
_cell_angle_beta                 95.028(2)
_cell_angle_gamma                90
_cell_volume                     869.501
loop_
_atom_site_label
_atom_site_type_symbol
_atom_site_fract_x
_atom_site_fract_y
_atom_site_fract_z
V1 V 0.74516(6) 0.08126(10) 0.28308(4)
P1 P 0.48800(9) 0.39458(15) 0.27660(6)
O1 O 0.5616(2) 0.1775(4) 0.26534(18)
O2 O 0.5623(2) 0.5828(4) 0.22995(18)
O3 O 0.3456(3) 0.3782(5) 0.23627(19)
O4 O 0.7796(3) 0.3904(4) 0.30511(18)
O5 O 0.7461(3) -0.0458(5) 0.38173(19)
C1 C 0.4974(3) 0.4535(6) 0.4024(2)
C2 C 0.4732(4) 0.6634(7) 0.4333(3)
H4 H 0.4547 0.7758 0.3879
C3 C 0.5240(4) 0.2911(6) 0.4694(3)
H5 H 0.5405 0.1476 0.4489
V1B V 0.25484(6) 0.91874(10) 0.71692(4)
V1A V 0.75484(6) 0.58126(10) 0.21692(4)
V1C V 0.24516(6) 0.41874(10) 0.78308(4)
P1B P 0.51200(9) 0.60542(15) 0.72340(6)
O1B O 0.4384(2) 0.8225(4) 0.73466(18)
O2B O 0.4377(2) 0.4172(4) 0.77005(18)
O2A O 0.9377(2) 0.0828(4) 0.27005(18)
O2C O 0.0623(2) 0.9172(4) 0.72995(18)
O3B O 0.6544(3) 0.6218(5) 0.76373(19)
O4A O 0.7204(3) -0.1096(4) 0.19489(18)
O4C O 0.2796(3) 1.1096(4) 0.80511(18)
O4B O 0.2204(3) 0.6096(4) 0.69489(18)
O5B O 0.2539(3) 1.0458(5) 0.61827(19)
C1B C 0.5026(3) 0.5465(6) 0.5976(2)
C2B C 0.5268(4) 0.3366(7) 0.5667(3)
H4B H 0.5453 0.2242 0.6121
C3B C 0.4760(4) 0.7089(6) 0.5306(3)
H5B H 0.4595 0.8524 0.5511
N1 N 0.3694(3) -0.0970(5) 0.1556(2)
H1 H 0.4365 -0.1818 0.1826
H2 H 0.2931 -0.1253 0.1836
H3 H 0.3916 0.0451 0.1643
C4 C 0.3483(4) -0.1446(8) 0.0515(3)
H6 H 0.2789 -0.0462 0.0218
H7 H 0.3155 -0.2952 0.0425
C5 C 0.4758(4) -0.1174(7) 0.0010(3)
H8 H 0.5470 -0.2078 0.0339
H9 H 0.4596 -0.1709 -0.0654
N1B N 0.6306(3) 0.0970(5) -0.1556(2)
H1B H 0.5635 0.1818 -0.1826
H2B H 0.7069 0.1253 -0.1836
H3B H 0.6084 -0.0451 -0.1643
C4B C 0.6517(4) 0.1446(8) -0.0515(3)
H6B H 0.7211 0.0462 -0.0218
H7B H 0.6845 0.2952 -0.0425
C5B C 0.5242(4) 0.1174(7) -0.0010(3)
H8B H 0.4530 0.2078 -0.0339
H9B H 0.5404 0.1709 0.0654
loop_
_geom_bond_atom_site_label_1
_geom_bond_atom_site_label_2
_geom_bond_site_symmetry_1
_geom_bond_site_symmetry_2
V1 O1 1_555 1_555
P1 O1 1_555 1_555
O2 P1 1_555 1_555
O3 P1 1_555 1_555
O4 V1 1_555 1_555
O5 V1 1_555 1_555
N1 H1 1_555 1_555
H2 N1 1_555 1_555
H3 N1 1_555 1_555
C1 P1 1_555 1_555
C2 C1 1_555 1_555
H4 C2 1_555 1_555
C3 C1 1_555 1_555
H5 C3 1_555 1_555
C4 N1 1_555 1_555
H6 C4 1_555 1_555
H7 C4 1_555 1_555
C5 C4 1_555 1_555
H8 C5 1_555 1_555
H9 C5 1_555 1_555
V1B O1B 1_555 1_555
V1A O2 1_555 1_555
V1C O2B 1_555 1_555
P1B O1B 1_555 1_555
O2B P1B 1_555 1_555
O2A V1 1_555 1_555
O2C V1B 1_555 1_555
O3B P1B 1_555 1_555
O4A V1 1_555 1_555
O4C V1B 1_555 1_555
O4B V1B 1_555 1_555
O5B V1B 1_555 1_555
N1B H1B 1_555 1_555
H2B N1B 1_555 1_555
H3B N1B 1_555 1_555
C1B P1B 1_555 1_555
C2B C3 1_555 1_555
H4B C2B 1_555 1_555
C3B C2 1_555 1_555
H5B C3B 1_555 1_555
C4B N1B 1_555 1_555
H6B C4B 1_555 1_555
H7B C4B 1_555 1_555
C5B C5 1_555 1_555
H8B C5B 1_555 1_555
H9B C5B 1_555 1_555
O4 V1A 1_555 1_555
V1C O4B 1_555 1_555
C1B C2B 1_555 1_555
C1B C3B 1_555 1_555
C4B C5B 1_555 1_555

#END
