
#######################################################################
#
#                 Cambridge Crystallographic Data Centre
#                                CCDC 
#
#######################################################################
#
# If this CIF has been generated from an entry in the Cambridge 
# Structural Database, then it will include bibliographic, chemical, 
# crystal, experimental, refinement or atomic coordinate data resulting 
# from the CCDC's data processing and validation procedures.
#
#######################################################################

data_TAJQEC
_symmetry_cell_setting           monoclinic
_symmetry_space_group_name_H-M   'P 21/c'
_symmetry_Int_Tables_number      14
_space_group_name_Hall           '-P 2ybc'
loop_
_symmetry_equiv_pos_site_id
_symmetry_equiv_pos_as_xyz
1 x,y,z
2 -x,1/2+y,1/2-z
3 -x,-y,-z
4 x,1/2-y,1/2+z
_cell_length_a                   10.0173(9)
_cell_length_b                   19.8278(17)
_cell_length_c                   10.0473(9)
_cell_angle_alpha                90
_cell_angle_beta                 113.771(2)
_cell_angle_gamma                90
_cell_volume                     1826.31
loop_
_atom_site_label
_atom_site_type_symbol
_atom_site_fract_x
_atom_site_fract_y
_atom_site_fract_z
C1 C 0.4660(3) 0.06193(14) 1.0442(3)
V1 V 0.28701(5) 0.25997(2) 0.73871(5)
V2 V 0.26825(5) 0.10894(2) 0.49708(5)
P1 P 0.00944(7) 0.36448(3) 0.67902(7)
P2 P 0.51163(7) 0.13468(3) 0.82832(7)
F1 F 0.19426(17) 0.19330(8) 0.58641(17)
F2 F 0.34077(17) 0.31324(8) 0.91588(17)
F3 F 0.19739(18) 0.05531(9) 0.59976(19)
O1 O 0.1065(2) 0.31496(10) 0.6437(2)
O2 O -0.1481(2) 0.34022(10) 0.6302(2)
O3 O 0.0651(2) 0.37979(10) 0.8422(2)
O4 O 0.4635(2) 0.11777(9) 0.6670(2)
O5 O 0.6718(2) 0.15704(10) 0.8810(2)
O6 O 0.4159(2) 0.18663(10) 0.8586(2)
O7 O 0.3924(2) 0.29648(10) 0.6764(2)
O8 O 0.3240(2) 0.05220(9) 0.4058(2)
O9 O 0.1441(3) 0.20963(12) 0.8501(2)
C2 C 0.0059(3) 0.44103(13) 0.5802(3)
C3 C 0.1038(3) 0.45093(14) 0.5150(3)
H1 H 0.1753 0.4176 0.5251
C4 C -0.0978(3) 0.49089(14) 0.5645(3)
H2 H -0.1649 0.4850 0.6086
C5 C 0.5029(3) 0.05911(13) 0.9238(3)
C6 C 0.4624(3) 0.00349(14) 1.1195(3)
H3 H 0.4364 0.0060 1.2005
H4 H 0.4431 0.1041 1.0747
H17 H 0.747(8) 0.162(4) 0.988(7)
H20 H 0.124(7) 0.236(3) 0.908(7)
H21 H 0.206(5) 0.182(3) 0.907(5)
C1B C 0.5340(3) -0.06193(14) 0.9558(3)
V1B V -0.28701(5) 0.74003(2) 0.26129(5)
V1B_2 V 0.71299(5) -0.25997(2) 1.26129(5)
V1C V 0.28701(5) 0.24003(2) 0.23871(5)
V2B V 0.73175(5) -0.10894(2) 1.50292(5)
V2C V 0.26825(5) 0.39106(2) 0.99708(5)
V2A V -0.26825(5) 0.60894(2) 0.00292(5)
V2B_2 V -0.26825(5) 0.89106(2) 0.50292(5)
P1B P -0.00944(7) 0.63552(3) 0.32098(7)
P2B P 0.48837(7) -0.13468(3) 1.17168(7)
F1B F -0.19426(17) 0.80670(8) 0.41359(17)
F1B_2 F 0.80574(17) -0.19330(8) 1.41359(17)
F2C F 0.34077(17) 0.18676(8) 0.41588(17)
F2B F -0.34077(17) 0.68676(8) 0.08412(17)
F2A F 0.65923(17) -0.18676(8) 1.58412(17)
F3B F 0.80261(18) -0.05531(9) 1.40024(19)
O1B O -0.1065(2) 0.68504(10) 0.3563(2)
O2B O 0.1481(2) 0.65978(10) 0.3698(2)
O3B O -0.0651(2) 0.62021(10) 0.1578(2)
O3C O 0.0651(2) 0.12021(10) 0.3422(2)
O3A O 0.9349(2) -0.12021(10) 1.6578(2)
O4B O 0.5365(2) -0.11777(9) 1.3330(2)
O5B O 0.3282(2) -0.15704(10) 1.1190(2)
O6B O 0.5841(2) -0.18663(10) 1.1414(2)
O6B_2 O -0.4159(2) 0.81337(10) 0.1414(2)
O7B O -0.3924(2) 0.70352(10) 0.3236(2)
O8B O 0.6760(2) -0.05220(9) 1.5942(2)
O9B O -0.1441(3) 0.79037(12) 0.1499(2)
C2B C -0.0059(3) 0.55897(13) 0.4198(3)
C3B C -0.1038(3) 0.54907(14) 0.4850(3)
H1B H -0.1753 0.5824 0.4749
C4B C 0.0978(3) 0.50911(14) 0.4355(3)
H2B H 0.1649 0.5150 0.3914
C5B C 0.4971(3) -0.05911(13) 1.0762(3)
C6B C 0.5376(3) -0.00349(14) 0.8805(3)
H3B H 0.5636 -0.0060 0.7995
H4B H 0.5569 -0.1041 0.9253
H17B H 0.253(8) -0.162(4) 1.012(7)
H20B H -0.124(7) 0.764(3) 0.092(7)
H21B H -0.206(5) 0.818(3) 0.093(5)
N1 N 0.6781(3) 0.12884(12) 0.5695(3)
N2 N 0.8745(3) 0.12646(12) 0.4769(3)
C7 C 0.6248(3) 0.09079(14) 0.4283(3)
H5 H 0.5285 0.1083 0.3614
H6 H 0.6142 0.0423 0.4457
C8 C 0.7146(3) 0.19976(14) 0.5462(3)
H7 H 0.7334 0.2271 0.6345
H8 H 0.6324 0.2203 0.4639
C9 C 0.8110(3) 0.09531(15) 0.6802(3)
H9 H 0.7838 0.0519 0.7113
H10 H 0.8557 0.1246 0.7669
C10 C 0.8517(3) 0.19760(14) 0.5131(3)
H11 H 0.8389 0.2276 0.4300
H12 H 0.9376 0.2133 0.5987
C11 C 0.7365(3) 0.10010(15) 0.3613(3)
H13 H 0.7551 0.0565 0.3240
H14 H 0.6989 0.1324 0.2792
C12 C 0.9193(3) 0.08309(15) 0.6099(3)
H15 H 1.0193 0.0949 0.6790
H16 H 0.9181 0.0350 0.5831
H18 H 0.607(4) 0.1291(18) 0.599(4)
H19 H 0.936(5) 0.129(2) 0.446(5)
loop_
_geom_bond_atom_site_label_1
_geom_bond_atom_site_label_2
_geom_bond_site_symmetry_1
_geom_bond_site_symmetry_2
C1 C5 1_555 1_555
V1 F1 1_555 1_555
V2 F1 1_555 1_555
P1 O1 1_555 1_555
P2 O4 1_555 1_555
F2 V1 1_555 1_555
F3 V2 1_555 1_555
O1 V1 1_555 1_555
O2 P1 1_555 1_555
O3 P1 1_555 1_555
O4 V2 1_555 1_555
O5 P2 1_555 1_555
O6 V1 1_555 1_555
O7 V1 1_555 1_555
O8 V2 1_555 1_555
O9 V1 1_555 1_555
N1 C7 1_555 1_555
N2 C10 1_555 1_555
C2 P1 1_555 1_555
C3 C2 1_555 1_555
H1 C3 1_555 1_555
C4 C2 1_555 1_555
H2 C4 1_555 1_555
C5 P2 1_555 1_555
C6 C1 1_555 1_555
H3 C6 1_555 1_555
H4 C1 1_555 1_555
C7 H5 1_555 1_555
H6 C7 1_555 1_555
C8 N1 1_555 1_555
H7 C8 1_555 1_555
H8 C8 1_555 1_555
C9 N1 1_555 1_555
H9 C9 1_555 1_555
H10 C9 1_555 1_555
C10 C8 1_555 1_555
H11 C10 1_555 1_555
H12 C10 1_555 1_555
C11 N2 1_555 1_555
H13 C11 1_555 1_555
H14 C11 1_555 1_555
C12 N2 1_555 1_555
H15 C12 1_555 1_555
H16 C12 1_555 1_555
H17 O5 1_555 1_555
H18 N1 1_555 1_555
H19 N2 1_555 1_555
H20 O9 1_555 1_555
H21 O9 1_555 1_555
C1B C5B 1_555 1_555
V1B F1B 1_555 1_555
V1B_2 F1B_2 1_555 1_555
V1C F2C 1_555 1_555
V2B F1B_2 1_555 1_555
V2C F2 1_555 1_555
V2A F2B 1_555 1_555
V2B_2 F1B 1_555 1_555
P1B O1B 1_555 1_555
P2B O4B 1_555 1_555
F2C V2 1_555 1_555
F2B V1B 1_555 1_555
F2A V2B 1_555 1_555
F3B V2B 1_555 1_555
O1B V1B 1_555 1_555
O2B P1B 1_555 1_555
O3B V2A 1_555 1_555
O3C V2 1_555 1_555
O3A V2B 1_555 1_555
O4B V2B 1_555 1_555
O5B P2B 1_555 1_555
O6B V1B_2 1_555 1_555
O6B_2 V1B 1_555 1_555
O7B V1B 1_555 1_555
O8B V2B 1_555 1_555
O9B V1B 1_555 1_555
C2B P1B 1_555 1_555
C3B C4 1_555 1_555
H1B C3B 1_555 1_555
C4B C3 1_555 1_555
H2B C4B 1_555 1_555
C5B C6 1_555 1_555
C6B C5 1_555 1_555
H3B C6B 1_555 1_555
H4B C1B 1_555 1_555
H17B O5B 1_555 1_555
H20B O9B 1_555 1_555
H21B O9B 1_555 1_555
P2 O6 1_555 1_555
O3 V2C 1_555 1_555
C7 C11 1_555 1_555
C9 C12 1_555 1_555
C1B C6B 1_555 1_555
P1B O3B 1_555 1_555
P2B O6B 1_555 1_555
P2B C5B 1_555 1_555
C2B C3B 1_555 1_555
C2B C4B 1_555 1_555

#END
