
#######################################################################
#
#                 Cambridge Crystallographic Data Centre
#                                CCDC 
#
#######################################################################
#
# If this CIF has been generated from an entry in the Cambridge 
# Structural Database, then it will include bibliographic, chemical, 
# crystal, experimental, refinement or atomic coordinate data resulting 
# from the CCDC's data processing and validation procedures.
#
#######################################################################

data_TAJXAF
_symmetry_cell_setting           triclinic
_symmetry_space_group_name_H-M   'P -1'
_symmetry_Int_Tables_number      2
_space_group_name_Hall           '-P 1'
loop_
_symmetry_equiv_pos_site_id
_symmetry_equiv_pos_as_xyz
1 x,y,z
2 -x,-y,-z
_cell_length_a                   7.642(7)
_cell_length_b                   8.378(8)
_cell_length_c                   13.350(12)
_cell_angle_alpha                72.398(15)
_cell_angle_beta                 87.327(15)
_cell_angle_gamma                72.126(13)
_cell_volume                     774.383
loop_
_atom_site_label
_atom_site_type_symbol
_atom_site_fract_x
_atom_site_fract_y
_atom_site_fract_z
Cu1 Cu 0.5000 0.5000 0.5000
C1 C -0.3203(9) 1.1008(9) 0.4875(7)
C2 C -0.3351(9) 1.1289(9) 0.5896(6)
C3 C -0.1047(10) 0.8377(10) 0.6674(7)
C4 C -0.0951(9) 0.8195(9) 0.5617(7)
C5 C -0.2010(9) 0.9395(9) 0.4740(7)
C6 C -0.2610(12) 1.0110(10) 0.7837(7)
H1 H -0.3228 1.1333 0.7785
H2 H -0.1403 0.9776 0.8180
C7 C -0.3701(18) 0.8988(17) 0.8501(9)
H3 H -0.4957 0.9442 0.8231
H4 H -0.3654 0.9008 0.9214
H5 H -0.3185 0.7800 0.8480
C8 C 0.0484(10) 0.6678(10) 0.5506(7)
C9 C -0.1898(11) 0.9113(10) 0.3694(7)
H6 H -0.0760 0.8231 0.3667
H7 H -0.1949 1.0194 0.3159
H8 H -0.2911 0.8730 0.3576
C10 C -0.5864(10) 1.4759(9) 0.2891(7)
C11 C -0.7760(10) 1.5474(9) 0.2713(7)
H9 H -0.8527 1.5351 0.3273
C12 C -0.8506(11) 1.6372(10) 0.1697(8)
C13 C -0.7369(13) 1.6593(12) 0.0873(6)
C14 C -0.5476(12) 1.5917(12) 0.1045(8)
H10 H -0.4714 1.6088 0.0485
C15 C -0.4723(11) 1.4994(11) 0.2047(7)
H11 H -0.3452 1.4526 0.2163
Cl1 Cl -0.8263(5) 1.7676(5) -0.0410(2)
Cl2 Cl -1.0863(3) 1.7203(3) 0.1502(2)
N1 N -0.2386(8) 0.9924(8) 0.6752(6)
N2 N 0.1663(9) 0.5509(9) 0.5421(7)
N3 N -0.4157(8) 1.2199(7) 0.3994(6)
N4 N -0.5086(8) 1.3793(8) 0.3950(5)
O1 O -0.4343(7) 1.2690(6) 0.6065(4)
O2 O -0.0081(8) 0.7351(7) 0.7405(5)
Cu1_2 Cu -0.5000 1.5000 0.5000
Cu1_3 Cu 1.5000 -0.5000 0.5000
C1A C 1.3203(9) -0.1008(9) 0.5125(7)
C2A C 1.3351(9) -0.1289(9) 0.4104(6)
C3A C 1.1047(10) 0.1623(10) 0.3326(7)
C4A C 1.0951(9) 0.1805(9) 0.4383(7)
C5A C 1.2010(9) 0.0605(9) 0.5260(7)
C6A C 1.2610(12) -0.0110(10) 0.2163(7)
H1A H 1.3228 -0.1333 0.2215
H2A H 1.1403 0.0224 0.1820
C7A C 1.3701(18) 0.1012(17) 0.1499(9)
H3A H 1.4957 0.0558 0.1769
H4A H 1.3654 0.0992 0.0786
H5A H 1.3185 0.2200 0.1520
C8A C 0.9516(10) 0.3322(10) 0.4494(7)
C9A C 1.1898(11) 0.0887(10) 0.6306(7)
H6A H 1.0760 0.1769 0.6333
H7A H 1.1949 -0.0194 0.6841
H8A H 1.2911 0.1270 0.6424
C10A C 1.5864(10) -0.4759(9) 0.7109(7)
C11A C 1.7760(10) -0.5474(9) 0.7287(7)
H9A H 1.8527 -0.5351 0.6727
C12A C 1.8506(11) -0.6372(10) 0.8303(8)
C13A C 1.7369(13) -0.6593(12) 0.9127(6)
C14A C 1.5476(12) -0.5917(12) 0.8955(8)
H10A H 1.4714 -0.6088 0.9515
C15A C 1.4723(11) -0.4994(11) 0.7953(7)
H11A H 1.3452 -0.4526 0.7837
Cl1A Cl 1.8263(5) -0.7676(5) 1.0410(2)
Cl2A Cl 2.0863(3) -0.7203(3) 0.8498(2)
N1A N 1.2386(8) 0.0076(8) 0.3248(6)
N2A N 0.8337(9) 0.4491(9) 0.4579(7)
N3A N 1.4157(8) -0.2199(7) 0.6006(6)
N4A N 1.5086(8) -0.3793(8) 0.6050(5)
N4_2 N 0.4914(8) 0.3793(8) 0.3950(5)
N4A_2 N 0.5086(8) 0.6207(8) 0.6050(5)
O1A O 1.4343(7) -0.2690(6) 0.3935(4)
O1_2 O 0.5657(7) 0.2690(6) 0.6065(4)
O1A_2 O 0.4343(7) 0.7310(6) 0.3935(4)
O2A O 1.0081(8) 0.2649(7) 0.2595(5)
loop_
_geom_bond_atom_site_label_1
_geom_bond_atom_site_label_2
_geom_bond_site_symmetry_1
_geom_bond_site_symmetry_2
Cu1 N2 1_555 1_555
C1 C2 1_555 1_555
C2 N1 1_555 1_555
C3 C4 1_555 1_555
C4 C5 1_555 1_555
C5 C1 1_555 1_555
C6 H1 1_555 1_555
H2 C6 1_555 1_555
C7 C6 1_555 1_555
H3 C7 1_555 1_555
H4 C7 1_555 1_555
H5 C7 1_555 1_555
C8 C4 1_555 1_555
C9 C5 1_555 1_555
H6 C9 1_555 1_555
H7 C9 1_555 1_555
H8 C9 1_555 1_555
C10 C11 1_555 1_555
C11 H9 1_555 1_555
C12 C11 1_555 1_555
C13 C12 1_555 1_555
C14 C13 1_555 1_555
H10 C14 1_555 1_555
C15 C10 1_555 1_555
H11 C15 1_555 1_555
Cl1 C13 1_555 1_555
Cl2 C12 1_555 1_555
N1 C3 1_555 1_555
N2 C8 1_555 1_555
N3 C1 1_555 1_555
N4 C10 1_555 1_555
O1 C2 1_555 1_555
O2 C3 1_555 1_555
Cu1_2 N4 1_555 1_555
Cu1_3 N4A 1_555 1_555
C1A C2A 1_555 1_555
C2A N1A 1_555 1_555
C3A C4A 1_555 1_555
C4A C5A 1_555 1_555
C5A C1A 1_555 1_555
C6A H1A 1_555 1_555
H2A C6A 1_555 1_555
C7A C6A 1_555 1_555
H3A C7A 1_555 1_555
H4A C7A 1_555 1_555
H5A C7A 1_555 1_555
C8A C4A 1_555 1_555
C9A C5A 1_555 1_555
H6A C9A 1_555 1_555
H7A C9A 1_555 1_555
H8A C9A 1_555 1_555
C10A C11A 1_555 1_555
C11A H9A 1_555 1_555
C12A C11A 1_555 1_555
C13A C12A 1_555 1_555
C14A C13A 1_555 1_555
H10A C14A 1_555 1_555
C15A C10A 1_555 1_555
H11A C15A 1_555 1_555
Cl1A C13A 1_555 1_555
Cl2A C12A 1_555 1_555
N1A C3A 1_555 1_555
N2A Cu1 1_555 1_555
N3A C1A 1_555 1_555
N4A C10A 1_555 1_555
N4_2 Cu1 1_555 1_555
N4A_2 Cu1 1_555 1_555
O1A Cu1_3 1_555 1_555
O1_2 Cu1 1_555 1_555
O1A_2 Cu1 1_555 1_555
O2A C3A 1_555 1_555
C6 N1 1_555 1_555
C14 C15 1_555 1_555
N3 N4 1_555 1_555
O1 Cu1_2 1_555 1_555
C2A O1A 1_555 1_555
C6A N1A 1_555 1_555
C8A N2A 1_555 1_555
C14A C15A 1_555 1_555
N3A N4A 1_555 1_555

#END
