
#######################################################################
#
#                 Cambridge Crystallographic Data Centre
#                                CCDC 
#
#######################################################################
#
# If this CIF has been generated from an entry in the Cambridge 
# Structural Database, then it will include bibliographic, chemical, 
# crystal, experimental, refinement or atomic coordinate data resulting 
# from the CCDC's data processing and validation procedures.
#
#######################################################################

data_TAKCEO
_symmetry_cell_setting           monoclinic
_symmetry_space_group_name_H-M   'P 21/c'
_symmetry_Int_Tables_number      14
_space_group_name_Hall           '-P 2ybc'
loop_
_symmetry_equiv_pos_site_id
_symmetry_equiv_pos_as_xyz
1 x,y,z
2 x,1/2-y,1/2+z
3 -x,-y,-z
4 -x,1/2+y,1/2-z
_cell_length_a                   18.599(4)
_cell_length_b                   12.556(3)
_cell_length_c                   14.042(3)
_cell_angle_alpha                90
_cell_angle_beta                 102.90(3)
_cell_angle_gamma                90
_cell_volume                     3196.45
loop_
_atom_site_label
_atom_site_type_symbol
_atom_site_fract_x
_atom_site_fract_y
_atom_site_fract_z
Co1 Co 0.564940(16) 0.04385(2) -0.28357(2)
Co2 Co -0.050250(16) -0.17113(2) -0.18872(2)
Ca1 Ca 0.23626(2) 0.00169(4) -0.27995(3)
O1 O 0.54695(9) 0.15767(14) -0.37486(12)
O2 O 0.55534(11) 0.33410(15) -0.36685(14)
O3 O 0.58349(9) -0.05809(14) -0.18235(12)
O4 O 0.60218(11) -0.06580(16) -0.02045(13)
O5 O 0.47020(9) -0.01221(13) -0.33591(12)
O6 O 0.35375(9) -0.00405(15) -0.32363(13)
O7 O 0.65961(9) 0.10456(14) -0.23450(12)
O8 O 0.77063(10) 0.11522(16) -0.26828(13)
O9 O -0.09611(9) -0.12966(13) -0.31754(11)
O10 O -0.12758(11) -0.20338(16) -0.46482(13)
O11 O 0.00292(9) -0.22154(13) -0.06673(11)
O12 O 0.07022(15) -0.35723(19) -0.00072(15)
O13 O 0.02257(9) -0.06595(13) -0.18373(12)
O14 O 0.13023(10) -0.03613(15) -0.22128(14)
O15 O -0.12447(9) -0.27681(13) -0.19610(12)
O16 O -0.23785(9) -0.30216(14) -0.17476(13)
N1 N 0.52161(11) 0.13125(16) -0.19911(14)
N2 N 0.61357(10) -0.03955(16) -0.36420(14)
N3 N 0.00811(10) -0.26603(15) -0.24741(14)
N4 N -0.11356(10) -0.08660(15) -0.12826(13)
C1 C 0.53666(17) 0.2430(2) -0.22600(19)
C2 C 0.54665(13) 0.2484(2) -0.33052(17)
C3 C 0.55971(16) 0.0988(2) -0.09778(18)
C4 C 0.58284(13) -0.0174(2) -0.09800(18)
C5 C 0.44107(15) 0.1064(3) -0.2190(2)
C6 C 0.41900(13) 0.02443(19) -0.29797(17)
C7 C 0.70954(13) 0.0749(2) -0.27973(17)
C8 C 0.68560(13) -0.01499(19) -0.35070(17)
C9 C 0.73138(15) -0.0666(2) -0.4005(2)
C10 C 0.70177(16) -0.1449(2) -0.4673(2)
C11 C 0.62765(16) -0.1689(2) -0.48156(19)
C12 C 0.58461(14) -0.1147(2) -0.42888(18)
C13 C -0.04120(14) -0.2965(2) -0.34300(17)
C14 C -0.09236(13) -0.2037(2) -0.37978(17)
C15 C 0.02773(16) -0.3546(2) -0.17548(18)
C16 C 0.03577(15) -0.3093(2) -0.07249(18)
C17 C 0.07398(14) -0.2056(2) -0.2617(2)
C18 C 0.07720(13) -0.0946(2) -0.21876(17)
C19 C -0.18262(13) -0.24597(19) -0.16922(16)
C20 C -0.17777(12) -0.13561(18) -0.12769(16)
C21 C -0.23063(14) -0.0892(2) -0.08685(18)
C22 C -0.21553(15) 0.0094(2) -0.0427(2)
C23 C -0.14927(15) 0.0580(2) -0.04132(19)
C24 C -0.09913(14) 0.0082(2) -0.08544(18)
O17 O 0.22570(15) -0.17983(19) -0.3462(2)
O18 O 0.16341(13) 0.0158(2) -0.43709(16)
O19 O 0.28236(14) 0.11065(19) -0.13853(15)
O20 O 0.29615(14) -0.1130(2) -0.14626(17)
H5 H 0.4945(17) 0.287(3) -0.224(2)
H6 H 0.5844(18) 0.266(3) -0.184(2)
H7 H 0.5270(16) 0.110(2) -0.052(2)
H8 H 0.6007(16) 0.143(2) -0.077(2)
H9 H 0.430(2) 0.084(3) -0.158(3)
H10 H 0.410(2) 0.171(3) -0.240(3)
H11 H 0.7780(17) -0.050(2) -0.388(2)
H12 H 0.7313(17) -0.181(2) -0.503(2)
H13 H 0.6038(16) -0.222(2) -0.524(2)
H14 H 0.5378(16) -0.132(2) -0.4328(19)
H15 H -0.0677(16) -0.357(2) -0.333(2)
H16 H -0.0125(14) -0.314(2) -0.3930(19)
H17 H 0.0723(16) -0.390(2) -0.183(2)
H18 H -0.0140(17) -0.400(3) -0.190(2)
H19 H 0.0741(16) -0.205(2) -0.328(2)
H20 H 0.1202(16) -0.249(3) -0.232(2)
H21 H -0.2749(17) -0.128(2) -0.091(2)
H22 H -0.2510(16) 0.044(2) -0.017(2)
H23 H -0.1359(15) 0.122(2) -0.0118(19)
H24 H -0.0517(14) 0.034(2) -0.0824(17)
H25 H 0.234(2) -0.238(4) -0.315(3)
H26 H 0.216(3) -0.189(4) -0.393(3)
H27 H 0.133(2) -0.033(3) -0.464(3)
H28 H 0.1540(18) 0.066(3) -0.462(2)
H29 H 0.314(2) 0.088(4) -0.087(3)
H30 H 0.273(4) 0.185(5) -0.142(5)
H31 H 0.344(2) -0.130(3) -0.133(3)
H32 H 0.275(2) -0.160(3) -0.128(3)
O16C O 0.23785(9) 0.19784(14) -0.32524(13)
Ca1C Ca -0.23626(2) -0.49831(4) -0.22005(3)
O21 O 0.63462(15) 0.33689(19) -0.01810(16)
H1 H 0.6296 0.4048 -0.0530
H2 H 0.6021 0.3377 0.0262
O22 O 0.77252(16) 0.2705(2) 0.0504(2)
H3 H 0.7245 0.2836 0.0246
H4 H 0.7899 0.3205 0.0992
loop_
_geom_bond_atom_site_label_1
_geom_bond_atom_site_label_2
_geom_bond_site_symmetry_1
_geom_bond_site_symmetry_2
Co1 O1 1_555 1_555
Co2 O9 1_555 1_555
Ca1 O6 1_555 1_555
O1 C2 1_555 1_555
O2 C2 1_555 1_555
O3 Co1 1_555 1_555
O4 C4 1_555 1_555
O5 Co1 1_555 1_555
O6 C6 1_555 1_555
O7 Co1 1_555 1_555
O8 C7 1_555 1_555
O9 C14 1_555 1_555
O10 C14 1_555 1_555
O11 Co2 1_555 1_555
O12 C16 1_555 1_555
O13 Co2 1_555 1_555
O14 Ca1 1_555 1_555
O15 Co2 1_555 1_555
O16 C19 1_555 1_555
N1 Co1 1_555 1_555
N2 Co1 1_555 1_555
N3 Co2 1_555 1_555
N4 Co2 1_555 1_555
C1 N1 1_555 1_555
C2 C1 1_555 1_555
C3 N1 1_555 1_555
C4 O3 1_555 1_555
C5 N1 1_555 1_555
C6 O5 1_555 1_555
C7 O7 1_555 1_555
C8 N2 1_555 1_555
C9 C8 1_555 1_555
C10 C9 1_555 1_555
C11 C10 1_555 1_555
C12 N2 1_555 1_555
C13 N3 1_555 1_555
C14 C13 1_555 1_555
C15 N3 1_555 1_555
C16 O11 1_555 1_555
C17 N3 1_555 1_555
C18 O13 1_555 1_555
C19 O15 1_555 1_555
C20 N4 1_555 1_555
C21 C20 1_555 1_555
C22 C21 1_555 1_555
C23 C22 1_555 1_555
C24 N4 1_555 1_555
O17 Ca1 1_555 1_555
O18 Ca1 1_555 1_555
O19 Ca1 1_555 1_555
O20 Ca1 1_555 1_555
O21 H1 1_555 1_555
H2 O21 1_555 1_555
O22 H3 1_555 1_555
H4 O22 1_555 1_555
H5 C1 1_555 1_555
H6 C1 1_555 1_555
H7 C3 1_555 1_555
H8 C3 1_555 1_555
H9 C5 1_555 1_555
H10 C5 1_555 1_555
H11 C9 1_555 1_555
H12 C10 1_555 1_555
H13 C11 1_555 1_555
H14 C12 1_555 1_555
H15 C13 1_555 1_555
H16 C13 1_555 1_555
H17 C15 1_555 1_555
H18 C15 1_555 1_555
H19 C17 1_555 1_555
H20 C17 1_555 1_555
H21 C21 1_555 1_555
H22 C22 1_555 1_555
H23 C23 1_555 1_555
H24 C24 1_555 1_555
H25 O17 1_555 1_555
H26 O17 1_555 1_555
H27 O18 1_555 1_555
H28 O18 1_555 1_555
H29 O19 1_555 1_555
H30 O19 1_555 1_555
H31 O20 1_555 1_555
H32 O20 1_555 1_555
O16C Ca1 1_555 1_555
Ca1C O16 1_555 1_555
O14 C18 1_555 1_555
C3 C4 1_555 1_555
C5 C6 1_555 1_555
C7 C8 1_555 1_555
C11 C12 1_555 1_555
C15 C16 1_555 1_555
C17 C18 1_555 1_555
C19 C20 1_555 1_555
C23 C24 1_555 1_555

#END
