
#######################################################################
#
#                 Cambridge Crystallographic Data Centre
#                                CCDC 
#
#######################################################################
#
# If this CIF has been generated from an entry in the Cambridge 
# Structural Database, then it will include bibliographic, chemical, 
# crystal, experimental, refinement or atomic coordinate data resulting 
# from the CCDC's data processing and validation procedures.
#
#######################################################################

data_TAKDIU
_symmetry_cell_setting           cubic
_symmetry_space_group_name_H-M   'F d -3 m'
_symmetry_Int_Tables_number      227
_space_group_name_Hall           'F 4d 2 3 -1d'
loop_
_symmetry_equiv_pos_site_id
_symmetry_equiv_pos_as_xyz
1 x,y,z
2 1/4-y,1/4+x,1/4+z
3 x,-y,-z
4 z,x,y
5 1/4-x,1/4-y,1/4-z
6 -x,1/2-y,1/2+z
7 1/4+y,1/4+x,1/4-z
8 1/4-x,1/4+z,1/4+y
9 y,1/2-x,1/2-z
10 3/4+y,1/4-x,3/4+z
11 -x,1/2+y,1/2-z
12 -z,1/2-x,1/2+y
13 3/4+x,1/4+y,3/4-z
14 3/4-y,1/4-x,3/4-z
15 3/4+x,1/4-z,3/4+y
16 -y,x,-z
17 z,-x,-y
18 1/4-x,3/4+y,3/4+z
19 1/4-x,3/4-z,3/4-y
20 y,1/2+x,1/2+z
21 -z,1/2+x,1/2-y
22 3/4+x,3/4-y,1/4+z
23 3/4+x,3/4+z,1/4-y
24 -y,-x,z
25 y,z,x
26 1/4-z,1/4-x,1/4-y
27 1/4-z,1/4+y,1/4+x
28 1/2-z,y,1/2-x
29 3/4+z,3/4+y,1/4-x
30 1/2+y,-z,1/2-x
31 3/4-z,3/4+x,1/4+y
32 3/4-z,3/4-y,1/4-x
33 -z,-y,x
34 -y,z,-x
35 3/4+z,1/4-x,3/4+y
36 1/2+z,y,1/2+x
37 1/2-y,-z,1/2+x
38 1/4+z,3/4+x,3/4-y
39 z,-y,-x
40 1/4-y,1/4-z,1/4-x
41 1/2-x,1/2-z,y
42 1/4+y,3/4-z,3/4+x
43 x,-z,-y
44 3/4+y,3/4+z,1/4-x
45 1/2+x,1/2+z,y
46 3/4-y,1/4+z,3/4+x
47 -x,z,-y
48 3/4+z,1/4-y,3/4+x
49 x,1/2+y,1/2+z
50 1/4-y,3/4+x,3/4+z
51 x,1/2-y,1/2-z
52 z,1/2+x,1/2+y
53 1/4-x,3/4-y,3/4-z
54 -x,-y,z
55 1/4+y,3/4+x,3/4-z
56 1/4-x,3/4+z,3/4+y
57 y,-x,-z
58 3/4+y,3/4-x,1/4+z
59 -x,y,-z
60 -z,-x,y
61 3/4+x,3/4+y,1/4-z
62 3/4-y,3/4-x,1/4-z
63 3/4+x,3/4-z,1/4+y
64 -y,1/2+x,1/2-z
65 z,1/2-x,1/2-y
66 1/4-x,1/4+y,1/4+z
67 1/4-x,1/4-z,1/4-y
68 y,x,z
69 -z,x,-y
70 3/4+x,1/4-y,3/4+z
71 3/4+x,1/4+z,3/4-y
72 -y,1/2-x,1/2+z
73 y,1/2+z,1/2+x
74 1/4-z,3/4-x,3/4-y
75 1/4-z,3/4+y,3/4+x
76 1/2-z,1/2+y,-x
77 3/4+z,1/4+y,3/4-x
78 1/2+y,1/2-z,-x
79 3/4-z,1/4+x,3/4+y
80 3/4-z,1/4-y,3/4-x
81 -z,1/2-y,1/2+x
82 -y,1/2+z,1/2-x
83 3/4+z,3/4-x,1/4+y
84 1/2+z,1/2+y,x
85 1/2-y,1/2-z,x
86 1/4+z,1/4+x,1/4-y
87 z,1/2-y,1/2-x
88 1/4-y,3/4-z,3/4-x
89 1/2-x,-z,1/2+y
90 1/4+y,1/4-z,1/4+x
91 x,1/2-z,1/2-y
92 3/4+y,1/4+z,3/4-x
93 1/2+x,z,1/2+y
94 3/4-y,3/4+z,1/4+x
95 -x,1/2+z,1/2-y
96 3/4+z,3/4-y,1/4+x
97 1/2+x,y,1/2+z
98 3/4-y,1/4+x,3/4+z
99 1/2+x,-y,1/2-z
100 1/2+z,x,1/2+y
101 3/4-x,1/4-y,3/4-z
102 1/2-x,1/2-y,z
103 3/4+y,1/4+x,3/4-z
104 3/4-x,1/4+z,3/4+y
105 1/2+y,1/2-x,-z
106 1/4+y,1/4-x,1/4+z
107 1/2-x,1/2+y,-z
108 1/2-z,1/2-x,y
109 1/4+x,1/4+y,1/4-z
110 1/4-y,1/4-x,1/4-z
111 1/4+x,1/4-z,1/4+y
112 1/2-y,x,1/2-z
113 1/2+z,-x,1/2-y
114 3/4-x,3/4+y,1/4+z
115 3/4-x,3/4-z,1/4-y
116 1/2+y,1/2+x,z
117 1/2-z,1/2+x,-y
118 1/4+x,3/4-y,3/4+z
119 1/4+x,3/4+z,3/4-y
120 1/2-y,-x,1/2+z
121 1/2+y,z,1/2+x
122 3/4-z,1/4-x,3/4-y
123 3/4-z,1/4+y,3/4+x
124 -z,y,-x
125 1/4+z,3/4+y,3/4-x
126 y,-z,-x
127 1/4-z,3/4+x,3/4+y
128 1/4-z,3/4-y,3/4-x
129 1/2-z,-y,1/2+x
130 1/2-y,z,1/2-x
131 1/4+z,1/4-x,1/4+y
132 z,y,x
133 -y,-z,x
134 3/4+z,3/4+x,1/4-y
135 1/2+z,-y,1/2-x
136 3/4-y,1/4-z,3/4-x
137 -x,1/2-z,1/2+y
138 3/4+y,3/4-z,1/4+x
139 1/2+x,-z,1/2-y
140 1/4+y,3/4+z,3/4-x
141 x,1/2+z,1/2+y
142 1/4-y,1/4+z,1/4+x
143 1/2-x,z,1/2-y
144 1/4+z,1/4-y,1/4+x
145 1/2+x,1/2+y,z
146 3/4-y,3/4+x,1/4+z
147 1/2+x,1/2-y,-z
148 1/2+z,1/2+x,y
149 3/4-x,3/4-y,1/4-z
150 1/2-x,-y,1/2+z
151 3/4+y,3/4+x,1/4-z
152 3/4-x,3/4+z,1/4+y
153 1/2+y,-x,1/2-z
154 1/4+y,3/4-x,3/4+z
155 1/2-x,y,1/2-z
156 1/2-z,-x,1/2+y
157 1/4+x,3/4+y,3/4-z
158 1/4-y,3/4-x,3/4-z
159 1/4+x,3/4-z,3/4+y
160 1/2-y,1/2+x,-z
161 1/2+z,1/2-x,-y
162 3/4-x,1/4+y,3/4+z
163 3/4-x,1/4-z,3/4-y
164 1/2+y,x,1/2+z
165 1/2-z,x,1/2-y
166 1/4+x,1/4-y,1/4+z
167 1/4+x,1/4+z,1/4-y
168 1/2-y,1/2-x,z
169 1/2+y,1/2+z,x
170 3/4-z,3/4-x,1/4-y
171 3/4-z,3/4+y,1/4+x
172 -z,1/2+y,1/2-x
173 1/4+z,1/4+y,1/4-x
174 y,1/2-z,1/2-x
175 1/4-z,1/4+x,1/4+y
176 1/4-z,1/4-y,1/4-x
177 1/2-z,1/2-y,x
178 1/2-y,1/2+z,-x
179 1/4+z,3/4-x,3/4+y
180 z,1/2+y,1/2+x
181 -y,1/2-z,1/2+x
182 3/4+z,1/4+x,3/4-y
183 1/2+z,1/2-y,-x
184 3/4-y,3/4-z,1/4-x
185 -x,-z,y
186 3/4+y,1/4-z,3/4+x
187 1/2+x,1/2-z,-y
188 1/4+y,1/4+z,1/4-x
189 x,z,y
190 1/4-y,3/4+z,3/4+x
191 1/2-x,1/2+z,-y
192 1/4+z,3/4-y,3/4+x
_cell_length_a                   19.907(2)
_cell_length_b                   19.907(2)
_cell_length_c                   19.907(2)
_cell_angle_alpha                90
_cell_angle_beta                 90
_cell_angle_gamma                90
_cell_volume                     7888.92
loop_
_atom_site_label
_atom_site_type_symbol
_atom_site_fract_x
_atom_site_fract_y
_atom_site_fract_z
Eu1 Eu 0.50000 0.00000 0.00000
Eu2 Eu 0.37500 -0.12500 0.12500
N1 N 0.35622 0.00000 0.00000
N2 N 0.31630 -0.03885 0.03885
C1 C 0.25172 -0.02402 0.02402
C2 C 0.19168 -0.04902 0.04902
C3 C 0.13165 -0.02451 0.02451
Eu2B Eu 0.37500 0.12500 -0.12500
Eu2I Eu 0.62500 -0.12500 -0.12500
Eu2DA Eu 0.62500 0.12500 0.12500
N1KD N 0.50000 -0.14378 0.00000
N1ZC N 0.50000 0.14378 0.00000
N1TA N 0.64378 0.00000 0.00000
N1AA N 0.50000 0.00000 0.14378
N1IA N 0.50000 0.00000 -0.14378
N2B N 0.31630 0.03885 -0.03885
N2QE N 0.53885 -0.18370 -0.03885
N2KD N 0.46115 -0.18370 0.03885
N2DF N 0.53885 0.18370 0.03885
N2ZC N 0.46115 0.18370 -0.03885
N2TA N 0.68370 0.03885 0.03885
N2FB N 0.68370 -0.03885 -0.03885
N2YD N 0.53885 0.03885 0.18370
N2AA N 0.46115 -0.03885 0.18370
N2PD N 0.46115 0.03885 -0.18370
N2IA N 0.53885 -0.03885 -0.18370
N2RE N 0.43370 -0.21115 0.21115
N2GG N 0.28885 -0.21115 0.06630
N2ED N 0.28885 -0.06630 0.21115
N2EF N 0.43370 0.21115 -0.21115
N2MA N 0.28885 0.21115 -0.06630
N2KA N 0.28885 0.06630 -0.21115
C1B C 0.25172 0.02402 -0.02402
C1QE C 0.52402 -0.24828 -0.02402
C1KD C 0.47598 -0.24828 0.02402
C1DF C 0.52402 0.24828 0.02402
C1ZC C 0.47598 0.24828 -0.02402
C1TA C 0.74828 0.02402 0.02402
C1FB C 0.74828 -0.02402 -0.02402
C1YD C 0.52402 0.02402 0.24828
C1AA C 0.47598 -0.02402 0.24828
C1PD C 0.47598 0.02402 -0.24828
C1IA C 0.52402 -0.02402 -0.24828
C2B C 0.19168 0.04902 -0.04902
C2QE C 0.54902 -0.30832 -0.04902
C2KD C 0.45098 -0.30832 0.04902
C2DF C 0.54902 0.30832 0.04902
C2ZC C 0.45098 0.30832 -0.04902
C2TA C 0.80832 0.04902 0.04902
C2FB C 0.80832 -0.04902 -0.04902
C2YD C 0.54902 0.04902 0.30832
C2AA C 0.45098 -0.04902 0.30832
C2PD C 0.45098 0.04902 -0.30832
C2IA C 0.54902 -0.04902 -0.30832
C3B C 0.13165 0.02451 -0.02451
C3QE C 0.52451 -0.36835 -0.02451
C3KD C 0.47549 -0.36835 0.02451
C3DF C 0.52451 0.36835 0.02451
C3ZC C 0.47549 0.36835 -0.02451
C3TA C 0.86835 0.02451 0.02451
C3FB C 0.86835 -0.02451 -0.02451
C3YD C 0.52451 0.02451 0.36835
C3AA C 0.47549 -0.02451 0.36835
C3PD C 0.47549 0.02451 -0.36835
C3IA C 0.52451 -0.02451 -0.36835
loop_
_geom_bond_atom_site_label_1
_geom_bond_atom_site_label_2
_geom_bond_site_symmetry_1
_geom_bond_site_symmetry_2
Eu1 N1 1_555 1_555
Eu2 N2 1_555 1_555
N1 N2 1_555 1_555
N2 C1 1_555 1_555
C1 C2 1_555 1_555
C2 C3 1_555 1_555
C3 C3B 1_555 1_555
Eu2B N2B 1_555 1_555
Eu2I N2QE 1_555 1_555
Eu2DA N2DF 1_555 1_555
N1KD Eu1 1_555 1_555
N1ZC Eu1 1_555 1_555
N1TA Eu1 1_555 1_555
N1AA Eu1 1_555 1_555
N1IA Eu1 1_555 1_555
N2B N1 1_555 1_555
N2QE N1KD 1_555 1_555
N2KD Eu2 1_555 1_555
N2DF N1ZC 1_555 1_555
N2ZC Eu2B 1_555 1_555
N2TA Eu2DA 1_555 1_555
N2FB Eu2I 1_555 1_555
N2YD Eu2DA 1_555 1_555
N2AA Eu2 1_555 1_555
N2PD Eu2B 1_555 1_555
N2IA Eu2I 1_555 1_555
N2RE Eu2 1_555 1_555
N2GG Eu2 1_555 1_555
N2ED Eu2 1_555 1_555
N2EF Eu2B 1_555 1_555
N2MA Eu2B 1_555 1_555
N2KA Eu2B 1_555 1_555
C1B C1 1_555 1_555
C1QE N2QE 1_555 1_555
C1KD N2KD 1_555 1_555
C1DF N2DF 1_555 1_555
C1ZC N2ZC 1_555 1_555
C1TA N2TA 1_555 1_555
C1FB N2FB 1_555 1_555
C1YD N2YD 1_555 1_555
C1AA N2AA 1_555 1_555
C1PD N2PD 1_555 1_555
C1IA N2IA 1_555 1_555
C2B C1B 1_555 1_555
C2QE C1QE 1_555 1_555
C2KD C1KD 1_555 1_555
C2DF C1DF 1_555 1_555
C2ZC C1ZC 1_555 1_555
C2TA C1TA 1_555 1_555
C2FB C1FB 1_555 1_555
C2YD C1YD 1_555 1_555
C2AA C1AA 1_555 1_555
C2PD C1PD 1_555 1_555
C2IA C1IA 1_555 1_555
C3B C2B 1_555 1_555
C3QE C2QE 1_555 1_555
C3KD C2KD 1_555 1_555
C3DF C2DF 1_555 1_555
C3ZC C2ZC 1_555 1_555
C3TA C2TA 1_555 1_555
C3FB C2FB 1_555 1_555
C3YD C2YD 1_555 1_555
C3AA C2AA 1_555 1_555
C3PD C2PD 1_555 1_555
C3IA C2IA 1_555 1_555
N1KD N2KD 1_555 1_555
N1ZC N2ZC 1_555 1_555
N1TA N2TA 1_555 1_555
N1TA N2FB 1_555 1_555
N1AA N2YD 1_555 1_555
N1AA N2AA 1_555 1_555
N1IA N2PD 1_555 1_555
N1IA N2IA 1_555 1_555
N2B C1B 1_555 1_555
C1QE C1KD 1_555 1_555
C1DF C1ZC 1_555 1_555
C1TA C1FB 1_555 1_555
C1YD C1AA 1_555 1_555
C1PD C1IA 1_555 1_555
C3QE C3KD 1_555 1_555
C3DF C3ZC 1_555 1_555
C3TA C3FB 1_555 1_555
C3YD C3AA 1_555 1_555
C3PD C3IA 1_555 1_555

#END
