
#######################################################################
#
#                 Cambridge Crystallographic Data Centre
#                                CCDC 
#
#######################################################################
#
# If this CIF has been generated from an entry in the Cambridge 
# Structural Database, then it will include bibliographic, chemical, 
# crystal, experimental, refinement or atomic coordinate data resulting 
# from the CCDC's data processing and validation procedures.
#
#######################################################################

data_TAKHOE
_symmetry_cell_setting           triclinic
_symmetry_space_group_name_H-M   'P -1'
_symmetry_Int_Tables_number      2
_space_group_name_Hall           '-P 1'
loop_
_symmetry_equiv_pos_site_id
_symmetry_equiv_pos_as_xyz
1 x,y,z
2 -x,-y,-z
_cell_length_a                   15.9580(17)
_cell_length_b                   18.062(2)
_cell_length_c                   21.120(2)
_cell_angle_alpha                113.929(1)
_cell_angle_beta                 90.783(2)
_cell_angle_gamma                94.244(2)
_cell_volume                     5542.63
loop_
_atom_site_label
_atom_site_type_symbol
_atom_site_fract_x
_atom_site_fract_y
_atom_site_fract_z
O5 O 0.152(3) 0.1873(18) 0.717(2)
Cu5 Cu 0.2445(6) 0.3115(6) 0.7649(5)
N11 N 0.138(3) 0.364(3) 0.823(2)
H21 H 0.1329 0.4124 0.8207
H22 H 0.0911 0.3318 0.8014
N12 N 0.269(3) 0.303(3) 0.863(2)
H23 H 0.2858 0.2541 0.8550
H24 H 0.3104 0.3411 0.8874
N13 N 0.229(3) 0.359(3) 0.686(2)
H25 H 0.1775 0.3435 0.6648
H26 H 0.2366 0.4139 0.7050
N14 N 0.341(2) 0.240(2) 0.705(2)
H27 H 0.3926 0.2628 0.7226
H28 H 0.3348 0.1888 0.7025
C11 C 0.138(4) 0.377(4) 0.897(3)
H41 H 0.0816 0.3695 0.9106
H42 H 0.1614 0.4321 0.9263
C12 C 0.192(4) 0.316(5) 0.904(4)
H43 H 0.2091 0.3336 0.9524
H44 H 0.1586 0.2645 0.8894
C13 C 0.296(5) 0.323(4) 0.638(5)
H45 H 0.3451 0.3612 0.6504
H46 H 0.2764 0.3131 0.5915
C14 C 0.320(4) 0.244(3) 0.638(2)
H47 H 0.2750 0.2024 0.6147
H48 H 0.3692 0.2290 0.6102
O11 O 0.089(2) 0.229(2) 0.1350(19)
O13 O 0.015(3) 0.205(3) 0.796(2)
O15 O 0.8718(19) 0.6842(18) 0.9440(16)
O17 O 0.741(2) 0.785(2) 0.9939(17)
O20 O 0.678(3) 0.442(3) 0.287(2)
O22 O 0.677(2) 0.852(2) 0.913(2)
O24 O 0.291(4) 0.537(4) 0.829(4)
Cu4 Cu 0.5000 0.0000 0.5000
N5 N 0.6076(17) 0.0415(13) 0.5536(10)
H9 H 0.6488 0.0407 0.5248
H10 H 0.6046 0.0934 0.5839
N6 N 0.488(2) 0.0947(15) 0.4743(16)
H11 H 0.5020 0.1416 0.5113
H12 H 0.5224 0.0919 0.4403
C5 C 0.628(2) -0.0091(18) 0.5925(16)
C6 C 0.399(2) 0.093(2) 0.4505(19)
N5A N 0.3924(17) -0.0415(13) 0.4464(10)
N6A N 0.512(2) -0.0947(15) 0.5257(16)
C6A C 0.601(2) -0.093(2) 0.5495(19)
C5A C 0.372(2) 0.0091(18) 0.4075(16)
H9A H 0.3512 -0.0407 0.4752
H10A H 0.3954 -0.0934 0.4161
H11A H 0.4980 -0.1416 0.4887
H12A H 0.4776 -0.0919 0.5597
O1 O 0.8363(11) 0.2771(11) 0.4341(9)
O2 O 0.8725(10) 0.1247(9) 0.4480(8)
O3 O 0.3361(18) -0.2577(17) -0.0354(13)
O4 O 0.6629(10) 0.2352(9) 0.4352(8)
O6 O 0.6949(11) 0.0853(10) 0.4483(9)
O7 O 0.361(3) 0.307(3) 0.453(3)
O8 O 0.9042(12) 0.2796(12) 0.5851(9)
O9 O 0.520(3) 0.480(3) 0.351(3)
O10 O 0.7631(12) 0.3690(10) 0.5735(9)
O12 O 0.7847(11) 0.1484(9) 0.5844(7)
O14 O 0.6441(11) 0.2465(9) 0.5778(8)
O16 O 0.7507(11) 0.0465(9) 0.2064(8)
O18 O 0.6606(10) 0.1541(9) 0.2811(8)
O19 O 0.8141(11) 0.1891(10) 0.2803(8)
O21 O 0.7648(10) 0.0972(9) 0.3365(8)
O23 O 0.7952(11) 0.3055(10) 0.6917(8)
O25 O 0.7703(11) 0.3897(10) 0.8159(9)
O26 O 0.6490(11) 0.3379(9) 0.7287(8)
O27 O 0.7516(11) 0.4490(10) 0.7286(9)
O28 O 1.0728(12) 0.1849(12) 0.2717(11)
O29 O 0.9328(11) 0.0732(10) 0.2006(8)
O30 O 0.9436(11) 0.1269(10) 0.3335(9)
O31 O 0.9460(10) 0.2816(10) 0.3452(9)
O32 O 0.8706(11) 0.4242(10) 0.4302(9)
O33 O 0.7205(10) 0.3216(10) 0.3649(9)
O34 O 0.6285(13) -0.0696(11) 0.3892(10)
O35 O 0.5622(13) 0.3503(11) 0.4338(10)
O36 O 0.5876(11) 0.0475(10) 0.3394(9)
O37 O 0.5252(11) 0.1846(11) 0.3500(8)
O38 O 0.5155(11) 0.1289(9) 0.2123(8)
O39 O 0.5762(10) -0.0083(10) 0.2032(8)
O40 O 0.5810(11) 0.2787(9) 0.2886(9)
O41 O 0.5391(12) 0.2359(10) 0.1465(9)
O42 O 0.9355(12) 0.2209(13) 0.2060(10)
O43 O 0.8462(13) 0.3058(11) 0.1423(10)
O44 O 0.7046(12) 0.2551(9) 0.2017(9)
O45 O 0.9481(13) -0.0967(12) 0.1310(9)
O46 O 0.8789(10) -0.0203(9) 0.2596(9)
O47 O 0.9673(12) 0.0034(11) 0.3814(10)
O48 O 0.7974(11) -0.0228(10) 0.3668(8)
O49 O 0.6835(11) -0.0635(10) 0.2636(8)
O50 O 0.6048(13) -0.1734(10) 0.1340(9)
O51 O 0.6649(11) -0.0485(10) 0.0932(9)
O52 O 0.6393(12) 0.1083(11) 0.1294(10)
O53 O 0.8007(11) 0.1444(10) 0.1312(8)
O54 O 0.8366(12) 0.3356(11) 0.2847(9)
O55 O 0.4246(12) 0.0420(11) 0.2759(10)
O56 O 0.7761(12) -0.1082(10) 0.1504(9)
O57 O 0.7200(13) 0.0231(12) 0.0047(9)
O58 O 0.8302(11) -0.0099(10) 0.0932(8)
O59 O 0.6915(12) 0.4963(11) 0.5591(10)
O60 O 0.8205(12) 0.5222(9) 0.6575(9)
O61 O 0.9648(14) 0.5979(12) 0.7440(11)
O62 O 1.0451(12) 0.3176(11) 0.6665(10)
O63 O 0.9149(10) 0.2151(10) 0.6803(8)
O64 O 0.9437(11) 0.3665(10) 0.7800(9)
O65 O 1.0054(13) 0.4752(11) 0.9100(10)
O66 O 0.8788(12) 0.3541(11) 0.8925(9)
O67 O 0.7762(13) 0.2303(12) 0.9107(9)
O68 O 0.7238(12) 0.3841(11) 0.9345(10)
O69 O 0.6871(11) 0.5446(11) 1.0014(9)
O70 O 0.6093(11) 0.4359(11) 0.8731(9)
O71 O 0.8343(13) 0.5026(11) 0.9300(10)
O72 O 0.5356(11) 0.2188(10) 0.6599(9)
O73 O 0.5342(12) 0.1353(10) 0.7431(10)
O74 O 0.5199(10) 0.3023(9) 0.7926(9)
O75 O 0.4392(11) 0.4476(11) 0.8366(10)
O76 O 0.6603(11) 0.2558(10) 0.8213(8)
O77 O 0.4947(11) 0.3684(10) 0.7043(9)
O78 O 0.4817(11) 0.2783(11) 0.5608(9)
O79 O 0.6697(11) 0.5527(9) 0.7006(9)
O80 O 0.6457(13) 0.6687(11) 0.8333(10)
O81 O 0.5868(12) 0.5024(11) 0.7864(9)
O82 O 0.9236(11) 0.4300(10) 0.6925(8)
O83 O 0.8004(12) 0.6038(10) 0.7891(9)
O84 O 0.7171(12) 0.5515(11) 0.8708(10)
O85 O 0.8996(13) 0.5148(11) 0.8220(10)
O86 O 0.6833(11) 0.1736(10) 0.6920(9)
O87 O 0.8109(12) 0.2227(10) 0.7799(9)
O88 O 0.8217(13) 0.0750(10) 0.6691(9)
O89 O 0.6098(11) 0.4016(9) 0.6262(9)
P1 P 0.7479(4) 0.1213(4) 0.2773(3)
P2 P 0.7416(5) 0.3690(4) 0.7393(3)
W1 W 0.93979(7) 0.31787(7) 0.67182(6)
W2 W 0.68240(8) 0.57491(6) 0.79470(6)
W3 W 0.66171(8) -0.07863(6) 0.17331(6)
W4 W 0.80226(7) 0.16881(6) 0.67362(6)
W5 W 0.71518(8) 0.48296(7) 0.92126(6)
W6 W 0.77158(8) 0.28707(7) 0.86323(6)
W7 W 0.52941(8) 0.41153(7) 0.79696(6)
W8 W 0.56229(7) 0.30193(6) 0.62115(6)
W9 W 0.87303(8) -0.03049(7) 0.17038(6)
W10 W 0.58709(7) 0.21749(6) 0.73898(6)
W11 W 0.59592(8) 0.20380(7) 0.19878(6)
W12 W 0.73083(8) 0.04403(7) 0.09212(6)
W13 W 0.52696(7) 0.07966(7) 0.27680(6)
W14 W 0.71503(8) 0.46000(6) 0.61840(6)
W15 W 0.91298(8) 0.43863(7) 0.86369(6)
W16 W 0.83855(8) 0.32410(7) 0.37678(6)
W17 W 0.82579(8) 0.25480(7) 0.19604(6)
W18 W 0.96433(8) 0.17894(7) 0.27412(6)
W19 W 0.61551(7) 0.27130(6) 0.37972(6)
W20 W 0.88749(7) 0.05050(7) 0.36568(6)
W21 W 0.67952(8) 0.00435(6) 0.36841(6)
W22 W 0.88061(8) 0.53179(7) 0.74013(6)
Nd1 Nd 0.77133(10) 0.22246(8) 0.51157(7)
Cu1 Cu 1.0000 0.0000 0.5000
Cu2 Cu 1.0000 0.5000 0.5000
Cu3 Cu 0.4738(3) -0.2095(2) 0.03824(18)
N1 N 1.0002(17) 0.4261(14) 0.5485(12)
H1 H 1.0271 0.4525 0.5904
H2 H 0.9469 0.4121 0.5552
N2 N 1.0691(15) 0.4208(14) 0.4321(13)
H3 H 1.0366 0.3875 0.3948
H4 H 1.1096 0.4472 0.4179
N3 N 0.8777(14) -0.0100(14) 0.5204(13)
H5 H 0.8725 0.0056 0.5663
H6 H 0.8489 0.0223 0.5067
N4 N 0.9888(16) -0.1215(13) 0.4557(13)
H7 H 1.0342 -0.1404 0.4678
H8 H 0.9863 -0.1387 0.4092
N7 N 0.4566(16) -0.3089(14) 0.0589(13)
H13 H 0.4016 -0.3265 0.0524
H14 H 0.4715 -0.2953 0.1037
N8 N 0.5431(16) -0.2795(15) -0.0396(12)
H15 H 0.5977 -0.2604 -0.0315
H16 H 0.5252 -0.2795 -0.0802
N9 N 0.4897(17) -0.1157(13) 0.0085(11)
H17 H 0.4624 -0.1292 -0.0328
H18 H 0.5447 -0.1050 0.0039
N10 N 0.4122(16) -0.1332(14) 0.1156(12)
H19 H 0.4456 -0.1117 0.1545
H20 H 0.3666 -0.1599 0.1236
N15 N 0.393(3) 0.317(2) 0.326(2)
N16 N 0.201(7) 0.153(6) 0.170(4)
C1 C 1.043(2) 0.3505(16) 0.5079(15)
H29 H 1.0678 0.3303 0.5392
H30 H 1.0018 0.3085 0.4769
C2 C 1.109(3) 0.371(2) 0.467(2)
H31 H 1.1284 0.3217 0.4321
H32 H 1.1571 0.4024 0.4972
C3 C 0.842(2) -0.0983(16) 0.4816(19)
C4 C 0.909(2) -0.1543(17) 0.4786(19)
C7 C 0.504(3) -0.373(2) 0.017(2)
H33 H 0.5514 -0.3767 0.0436
H34 H 0.4690 -0.4238 0.0001
C8 C 0.533(3) -0.357(3) -0.042(2)
H35 H 0.4948 -0.3891 -0.0813
H36 H 0.5873 -0.3796 -0.0528
C9 C 0.4564(17) -0.0434(16) 0.0608(14)
H37 H 0.5010 -0.0107 0.0943
H38 H 0.4343 -0.0107 0.0387
C10 C 0.388(2) -0.070(2) 0.0968(17)
H39 H 0.3373 -0.0900 0.0664
H40 H 0.3741 -0.0244 0.1382
C15 C 0.323(6) 0.255(6) 0.285(6)
C16 C 0.252(5) 0.208(5) 0.233(4)
Na1 Na 0.4487(8) 0.4170(8) 0.4353(7)
Na1A Na 0.5513(8) 0.5830(8) 0.5647(7)
N3A N 1.1223(14) 0.0100(14) 0.4796(13)
N4A N 1.0112(16) 0.1215(13) 0.5443(13)
O47A O 1.0327(12) -0.0034(11) 0.6186(10)
N1A N 0.9998(17) 0.5739(14) 0.4515(12)
N2A N 0.9309(15) 0.5792(14) 0.5679(13)
O32A O 1.1294(11) 0.5758(10) 0.5698(9)
O59A O 0.3085(12) 0.5037(11) 0.4409(10)
O7A O 0.639(3) 0.693(3) 0.547(3)
O9A O 0.480(3) 0.520(3) 0.649(3)
O35A O 0.4378(13) 0.6497(11) 0.5662(10)
N15A N 0.607(3) 0.683(2) 0.674(2)
H5A H 1.1275 -0.0056 0.4337
H6A H 1.1511 -0.0223 0.4933
C3A C 1.158(2) 0.0983(16) 0.5184(19)
H7A H 0.9658 0.1404 0.5322
H8A H 1.0137 0.1387 0.5908
C4A C 1.091(2) 0.1543(17) 0.5214(19)
W20A W 1.11251(7) -0.05050(7) 0.63432(6)
H1A H 0.9729 0.5475 0.4096
H2A H 1.0531 0.5879 0.4448
C1A C 0.957(2) 0.6495(16) 0.4921(15)
H3A H 0.9634 0.6125 0.6052
H4A H 0.8904 0.5528 0.5821
C2A C 0.891(3) 0.629(2) 0.533(2)
W16A W 1.16145(8) 0.67590(7) 0.62322(6)
W14A W 0.28497(8) 0.54000(6) 0.38160(6)
H29A H 0.9322 0.6697 0.4608
H30A H 0.9982 0.6915 0.5231
H31A H 0.8716 0.6783 0.5679
H32A H 0.8429 0.5976 0.5028
loop_
_geom_bond_atom_site_label_1
_geom_bond_atom_site_label_2
_geom_bond_site_symmetry_1
_geom_bond_site_symmetry_2
O1 W16 1_555 1_555
O2 W20 1_555 1_555
O3 Cu3 1_555 1_555
O4 W19 1_555 1_555
O5 Cu5 1_555 1_555
O6 W21 1_555 1_555
O7 Na1 1_555 1_555
O8 W1 1_555 1_555
O9 Na1 1_555 1_555
O10 W14 1_555 1_555
O12 W4 1_555 1_555
O14 W8 1_555 1_555
O16 P1 1_555 1_555
O18 P1 1_555 1_555
O19 P1 1_555 1_555
O21 P1 1_555 1_555
O23 P2 1_555 1_555
O25 P2 1_555 1_555
O26 P2 1_555 1_555
O27 P2 1_555 1_555
O28 W18 1_555 1_555
O29 W9 1_555 1_555
O30 W18 1_555 1_555
O31 W16 1_555 1_555
O32 W16 1_555 1_555
O33 W16 1_555 1_555
O34 W21 1_555 1_555
O35 W19 1_555 1_555
O36 W13 1_555 1_555
O37 W13 1_555 1_555
O38 W11 1_555 1_555
O39 W3 1_555 1_555
O40 W11 1_555 1_555
O41 W11 1_555 1_555
O42 W17 1_555 1_555
O43 W17 1_555 1_555
O44 W11 1_555 1_555
O45 W9 1_555 1_555
O46 W9 1_555 1_555
O47 W20 1_555 1_555
O48 W20 1_555 1_555
O49 W3 1_555 1_555
O50 W3 1_555 1_555
O51 W3 1_555 1_555
O52 W11 1_555 1_555
O53 W12 1_555 1_555
O54 W16 1_555 1_555
O55 W13 1_555 1_555
O56 W3 1_555 1_555
O57 W12 1_555 1_555
O58 W9 1_555 1_555
O59 W14 1_555 1_555
O60 W14 1_555 1_555
O61 W22 1_555 1_555
O62 W1 1_555 1_555
O63 W1 1_555 1_555
O64 W1 1_555 1_555
O65 W15 1_555 1_555
O66 W6 1_555 1_555
O67 W6 1_555 1_555
O68 W5 1_555 1_555
O69 W5 1_555 1_555
O70 W5 1_555 1_555
O71 W5 1_555 1_555
O72 W8 1_555 1_555
O73 W10 1_555 1_555
O74 W7 1_555 1_555
O75 W7 1_555 1_555
O76 W6 1_555 1_555
O77 W7 1_555 1_555
O78 W8 1_555 1_555
O79 W2 1_555 1_555
O80 W2 1_555 1_555
O81 W2 1_555 1_555
O82 W1 1_555 1_555
O83 W2 1_555 1_555
O84 W2 1_555 1_555
O85 W15 1_555 1_555
O86 W4 1_555 1_555
O87 W4 1_555 1_555
O88 W4 1_555 1_555
O89 W8 1_555 1_555
W1 O23 1_555 1_555
W2 O27 1_555 1_555
W3 O16 1_555 1_555
W4 O23 1_555 1_555
W5 O25 1_555 1_555
W6 O25 1_555 1_555
W7 O26 1_555 1_555
W8 O26 1_555 1_555
W9 O16 1_555 1_555
W10 O26 1_555 1_555
W11 O18 1_555 1_555
W12 O16 1_555 1_555
W13 O18 1_555 1_555
W14 O27 1_555 1_555
W15 O25 1_555 1_555
W16 O19 1_555 1_555
W17 O19 1_555 1_555
W18 O19 1_555 1_555
W19 O18 1_555 1_555
W20 O21 1_555 1_555
W21 O21 1_555 1_555
W22 O27 1_555 1_555
Nd1 O1 1_555 1_555
Cu1 O47 1_555 1_555
Cu2 O32 1_555 1_555
Cu3 O50 1_555 1_555
Cu4 N5 1_555 1_555
Cu5 N11 1_555 1_555
N1 Cu2 1_555 1_555
H1 N1 1_555 1_555
H2 N1 1_555 1_555
N2 Cu2 1_555 1_555
H3 N2 1_555 1_555
H4 N2 1_555 1_555
N3 Cu1 1_555 1_555
H5 N3 1_555 1_555
H6 N3 1_555 1_555
N4 Cu1 1_555 1_555
H7 N4 1_555 1_555
H8 N4 1_555 1_555
N5 H9 1_555 1_555
H10 N5 1_555 1_555
N6 Cu4 1_555 1_555
H11 N6 1_555 1_555
H12 N6 1_555 1_555
N7 Cu3 1_555 1_555
H13 N7 1_555 1_555
H14 N7 1_555 1_555
N8 Cu3 1_555 1_555
H15 N8 1_555 1_555
H16 N8 1_555 1_555
N9 Cu3 1_555 1_555
H17 N9 1_555 1_555
H18 N9 1_555 1_555
N10 Cu3 1_555 1_555
H19 N10 1_555 1_555
H20 N10 1_555 1_555
N11 H21 1_555 1_555
H22 N11 1_555 1_555
N12 Cu5 1_555 1_555
H23 N12 1_555 1_555
H24 N12 1_555 1_555
N13 Cu5 1_555 1_555
H25 N13 1_555 1_555
H26 N13 1_555 1_555
N14 Cu5 1_555 1_555
H27 N14 1_555 1_555
H28 N14 1_555 1_555
N15 C15 1_555 1_555
N16 C16 1_555 1_555
C1 N1 1_555 1_555
H29 C1 1_555 1_555
H30 C1 1_555 1_555
C2 N2 1_555 1_555
H31 C2 1_555 1_555
H32 C2 1_555 1_555
C3 N3 1_555 1_555
C4 N4 1_555 1_555
C5 N5 1_555 1_555
C6 N6 1_555 1_555
C7 N7 1_555 1_555
H33 C7 1_555 1_555
H34 C7 1_555 1_555
C8 N8 1_555 1_555
H35 C8 1_555 1_555
H36 C8 1_555 1_555
C9 N9 1_555 1_555
H37 C9 1_555 1_555
H38 C9 1_555 1_555
C10 N10 1_555 1_555
H39 C10 1_555 1_555
H40 C10 1_555 1_555
C11 N11 1_555 1_555
H41 C11 1_555 1_555
H42 C11 1_555 1_555
C12 N12 1_555 1_555
H43 C12 1_555 1_555
H44 C12 1_555 1_555
C13 N13 1_555 1_555
H45 C13 1_555 1_555
H46 C13 1_555 1_555
C14 N14 1_555 1_555
H47 C14 1_555 1_555
H48 C14 1_555 1_555
C15 C16 1_555 1_555
Na1 O35 1_555 1_555
Na1A O59 1_555 1_555
N3A Cu1 1_555 1_555
N4A Cu1 1_555 1_555
O47A Cu1 1_555 1_555
N1A Cu2 1_555 1_555
N2A Cu2 1_555 1_555
O32A Cu2 1_555 1_555
N5A Cu4 1_555 1_555
N6A Cu4 1_555 1_555
C6A C5 1_555 1_555
C5A C6 1_555 1_555
O59A Na1 1_555 1_555
O7A Na1A 1_555 1_555
O9A Na1A 1_555 1_555
O35A Na1A 1_555 1_555
N15A Na1A 1_555 1_555
H5A N3A 1_555 1_555
H6A N3A 1_555 1_555
C3A N3A 1_555 1_555
H7A N4A 1_555 1_555
H8A N4A 1_555 1_555
C4A N4A 1_555 1_555
W20A O47A 1_555 1_555
H1A N1A 1_555 1_555
H2A N1A 1_555 1_555
C1A N1A 1_555 1_555
H3A N2A 1_555 1_555
H4A N2A 1_555 1_555
C2A N2A 1_555 1_555
W16A O32A 1_555 1_555
H9A N5A 1_555 1_555
H10A N5A 1_555 1_555
H11A N6A 1_555 1_555
H12A N6A 1_555 1_555
W14A O59A 1_555 1_555
H29A C1A 1_555 1_555
H30A C1A 1_555 1_555
H31A C2A 1_555 1_555
H32A C2A 1_555 1_555
O2 Nd1 1_555 1_555
O4 Nd1 1_555 1_555
O6 Nd1 1_555 1_555
O8 Nd1 1_555 1_555
O10 Nd1 1_555 1_555
O12 Nd1 1_555 1_555
O14 Nd1 1_555 1_555
O29 W18 1_555 1_555
O30 W20 1_555 1_555
O31 W18 1_555 1_555
O33 W19 1_555 1_555
O36 W21 1_555 1_555
O37 W19 1_555 1_555
O38 W13 1_555 1_555
O39 W13 1_555 1_555
O40 W19 1_555 1_555
O42 W18 1_555 1_555
O44 W17 1_555 1_555
O46 W20 1_555 1_555
O48 W21 1_555 1_555
O49 W21 1_555 1_555
O51 W12 1_555 1_555
O52 W12 1_555 1_555
O53 W17 1_555 1_555
O54 W17 1_555 1_555
O56 W9 1_555 1_555
O58 W12 1_555 1_555
O60 W22 1_555 1_555
O63 W4 1_555 1_555
O64 W15 1_555 1_555
O66 W15 1_555 1_555
O68 W6 1_555 1_555
O70 W7 1_555 1_555
O71 W15 1_555 1_555
O72 W10 1_555 1_555
O74 W10 1_555 1_555
O76 W10 1_555 1_555
O77 W8 1_555 1_555
O79 W14 1_555 1_555
O81 W7 1_555 1_555
O82 W22 1_555 1_555
O83 W22 1_555 1_555
O84 W5 1_555 1_555
O85 W22 1_555 1_555
O86 W10 1_555 1_555
O87 W6 1_555 1_555
O89 W14 1_555 1_555
N15 Na1 1_555 1_555
C1 C2 1_555 1_555
C3 C4 1_555 1_555
C7 C8 1_555 1_555
C9 C10 1_555 1_555
C11 C12 1_555 1_555
C13 C14 1_555 1_555
Na1 Na1A 1_555 1_555
N5A C5A 1_555 1_555
N6A C6A 1_555 1_555
C3A C4A 1_555 1_555
C1A C2A 1_555 1_555

#END
