
#######################################################################
#
#                 Cambridge Crystallographic Data Centre
#                                CCDC 
#
#######################################################################
#
# If this CIF has been generated from an entry in the Cambridge 
# Structural Database, then it will include bibliographic, chemical, 
# crystal, experimental, refinement or atomic coordinate data resulting 
# from the CCDC's data processing and validation procedures.
#
#######################################################################

data_TAKHUK
_symmetry_cell_setting           triclinic
_symmetry_space_group_name_H-M   'P -1'
_symmetry_Int_Tables_number      2
_space_group_name_Hall           '-P 1'
loop_
_symmetry_equiv_pos_site_id
_symmetry_equiv_pos_as_xyz
1 x,y,z
2 -x,-y,-z
_cell_length_a                   15.974(5)
_cell_length_b                   18.025(5)
_cell_length_c                   21.021(5)
_cell_angle_alpha                113.976(5)
_cell_angle_beta                 90.729(5)
_cell_angle_gamma                94.169(5)
_cell_volume                     5509.79
loop_
_atom_site_label
_atom_site_type_symbol
_atom_site_fract_x
_atom_site_fract_y
_atom_site_fract_z
O7 O 0.3418(19) 0.8115(16) 0.7830(16)
Cu5 Cu 0.2555(4) 0.6883(4) 0.7346(4)
N11 N 0.1626(19) 0.7509(19) 0.7930(16)
H21 H 0.1615 0.8003 0.7919
H22 H 0.1119 0.7231 0.7782
N12 N 0.273(2) 0.646(2) 0.812(2)
H23 H 0.2700 0.5908 0.7929
H24 H 0.3228 0.6653 0.8345
N13 N 0.225(3) 0.695(3) 0.646(2)
H25 H 0.1865 0.6537 0.6223
H26 H 0.2018 0.7418 0.6555
N14 N 0.356(2) 0.640(2) 0.6826(18)
H27 H 0.4029 0.6725 0.7042
H28 H 0.3612 0.5911 0.6835
C11 C 0.187(3) 0.758(3) 0.8633(18)
H45 H 0.1428 0.7800 0.8949
H46 H 0.2376 0.7947 0.8809
C12 C 0.203(4) 0.675(3) 0.860(3)
H47 H 0.2187 0.6787 0.9056
H48 H 0.1528 0.6381 0.8422
C13 C 0.297(3) 0.691(4) 0.601(3)
H49 H 0.3281 0.7440 0.6158
H50 H 0.2775 0.6731 0.5528
C14 C 0.351(3) 0.631(3) 0.6092(19)
H51 H 0.3279 0.5758 0.5797
H52 H 0.4071 0.6382 0.5943
O11 O 0.4838(16) 0.7941(16) 0.7072(15)
O15 O 0.620(2) 0.312(2) 0.5564(19)
O17 O 0.7589(18) 0.2139(18) 0.5072(16)
O19 O 0.828(2) 0.145(2) 0.589(2)
O21 O 0.622(2) 0.499(2) 0.195(2)
O23 O 0.412(2) 0.768(2) 0.366(2)
O25 O 0.523(3) 0.911(3) 0.450(3)
O27 O 0.826(2) 0.559(2) 0.211(2)
O29 O 0.685(4) 0.590(4) 0.435(3)
O31 O 0.211(4) 0.467(4) 0.675(3)
Cu4 Cu 0.0000 0.0000 0.0000
N7 N -0.1082(15) -0.0449(12) -0.0569(11)
H13 H -0.1037 -0.0963 -0.0881
H14 H -0.1503 -0.0454 -0.0291
N8 N -0.0116(17) 0.0958(14) -0.0263(14)
H15 H 0.0218 0.0921 -0.0614
H16 H 0.0035 0.1430 0.0104
C7 C -0.126(2) 0.0083(19) -0.0938(16)
C8 C -0.0980(17) 0.0935(17) -0.0475(18)
N7A N 0.1082(15) 0.0449(12) 0.0569(11)
N8A N 0.0116(17) -0.0958(14) 0.0263(14)
H13A H 0.1037 0.0963 0.0881
H14A H 0.1503 0.0454 0.0291
C7A C 0.126(2) -0.0083(19) 0.0938(16)
H15A H -0.0218 -0.0921 0.0614
H16A H -0.0035 -0.1430 -0.0104
C8A C 0.0980(17) -0.0935(17) 0.0475(18)
O1 O 0.8067(9) 0.9132(9) 0.0509(8)
O2 O 0.8347(9) 0.7658(9) 0.0651(8)
O3 O 1.0000 0.5000 0.0000
O4 O 0.6298(8) 0.8758(9) 0.0510(8)
O5 O 1.130(3) 0.682(3) 0.040(2)
O6 O 0.6661(9) 0.7265(9) 0.0663(9)
O8 O 0.8540(10) 0.7544(8) -0.0770(8)
O9 O 0.989(2) 0.5175(19) 0.133(3)
O10 O 0.7400(9) 0.6339(9) -0.0698(9)
O12 O 0.7130(9) 0.8508(9) -0.0846(8)
O13 O 1.1704(14) 1.2587(14) 0.5380(13)
O14 O 0.5974(9) 0.7208(8) -0.0849(8)
O16 O 0.7492(8) 0.9502(8) 0.2930(8)
O18 O 0.8392(9) 0.8436(8) 0.2165(8)
O20 O 0.7353(9) 0.9050(8) 0.1643(8)
O22 O 0.6850(8) 0.8121(9) 0.2201(8)
O24 O 0.7303(9) 0.6116(8) -0.3150(7)
O26 O 0.8521(9) 0.6613(8) -0.2276(7)
O28 O 0.7059(9) 0.6945(9) -0.1901(8)
O30 O 0.7500(9) 0.5531(8) -0.2263(8)
O32 O 0.8704(11) 1.0688(9) 0.1092(8)
O33 O 0.9124(9) 0.9528(9) 0.1607(8)
O34 O 1.0706(10) 0.9587(10) 0.2224(9)
O35 O 0.9238(9) 1.0060(8) 0.2953(8)
O36 O 0.8930(9) 1.1727(9) 0.3663(8)
O37 O 0.8354(9) 1.0481(9) 0.4073(8)
O38 O 0.7244(9) 1.1069(10) 0.3490(8)
O39 O 0.7771(12) 0.9751(10) 0.4951(8)
O40 O 0.6712(9) 1.0112(9) 0.4081(8)
O41 O 0.6987(9) 0.8563(9) 0.3692(7)
O42 O 0.5519(10) 1.0955(10) 0.3684(9)
O43 O 0.6528(10) 0.6947(11) 0.3561(9)
O44 O 0.5647(9) 0.7790(9) 0.2931(9)
O45 O 0.4280(10) 0.8144(10) 0.2289(9)
O46 O 0.6309(10) 0.5780(9) 0.0696(8)
O47 O 0.5518(10) 0.7188(9) 0.1548(9)
O48 O 0.6612(10) 0.6651(9) 0.2176(9)
O49 O 0.9203(9) 0.7215(9) 0.2112(8)
O50 O 0.9624(11) 0.7643(10) 0.3535(9)
O51 O 0.9362(9) 0.6490(9) 0.0661(9)
O52 O 0.6228(10) 1.0200(9) 0.2399(8)
O53 O 0.5538(10) 0.8737(10) 0.1652(9)
O54 O 0.8187(9) 1.0641(9) 0.2357(8)
O55 O 0.5305(11) 0.9941(10) 0.1160(9)
O56 O 0.7049(9) 1.0224(9) 0.1313(8)
O57 O 0.7944(9) 0.7455(8) 0.2978(8)
O58 O 0.7808(10) 0.6765(9) 0.1311(8)
O59 O 0.5675(9) 0.9282(8) 0.3010(8)
O60 O 0.9862(9) 0.8728(9) 0.2890(8)
O61 O 0.8609(10) 0.8917(9) 0.3704(9)
O62 O 0.9746(8) 0.8138(8) 0.1488(7)
O63 O 0.9679(12) 0.8662(9) -0.2414(10)
O64 O 0.7259(11) 0.7705(10) -0.4110(10)
O65 O 0.8164(11) 0.4563(9) -0.5015(8)
O66 O 0.8565(11) 0.3328(9) -0.3309(9)
O67 O 0.7001(10) 0.3944(9) -0.2891(8)
O68 O 0.5358(11) 0.4011(10) -0.2423(10)
O69 O 0.7845(10) 0.4464(8) -0.3718(8)
O70 O 1.0593(10) 0.5539(10) -0.3366(9)
O71 O 0.9816(9) 0.6961(9) -0.2923(8)
O72 O 0.8404(9) 0.7441(8) -0.3218(8)
O73 O 0.9644(8) 0.7834(9) -0.1569(7)
O74 O 0.8172(9) 0.8268(8) -0.1906(7)
O75 O 1.0168(10) 0.7255(9) -0.0559(8)
O76 O 0.6773(10) 0.4793(9) -0.1557(8)
O77 O 0.8079(12) 0.5044(10) -0.0558(9)
O78 O 0.8302(10) 0.4469(9) -0.2003(8)
O79 O 0.6009(10) 0.4856(9) -0.3225(8)
O80 O 0.6243(9) 0.6474(9) -0.3911(8)
O81 O 0.7754(10) 0.6162(9) -0.4317(8)
O82 O 0.6883(9) 0.7743(9) -0.2803(8)
O83 O 0.6787(9) 0.9238(9) -0.1696(8)
O84 O 0.5842(10) 0.7853(10) -0.1801(8)
O85 O 0.4532(10) 0.6832(9) -0.1656(9)
O86 O 0.6682(11) 0.4984(9) -0.4301(8)
O87 O 0.8921(10) 0.5625(9) -0.3715(8)
O88 O 1.0045(9) 0.6322(9) -0.2034(8)
O89 O 0.8890(9) 0.5979(8) -0.1242(7)
O90 O 0.4946(11) 0.5238(11) -0.4114(9)
O91 O 0.5571(9) 0.6336(9) -0.2795(8)
O92 O 0.5767(10) 0.5718(9) -0.1904(9)
O93 O 0.9157(9) 0.4971(9) -0.2860(8)
P1 P 0.7524(3) 0.8792(3) 0.2230(3)
P2 P 0.7594(3) 0.6314(3) -0.2389(3)
W1 W 0.56136(6) 0.68295(5) -0.17086(5)
W2 W 0.83813(6) 1.07890(5) 0.32682(5)
W3 W 0.81785(6) 0.42524(5) -0.29353(5)
W4 W 0.78562(6) 0.51690(6) -0.42089(5)
W5 W 0.69861(6) 0.83132(5) -0.17316(5)
W6 W 0.91322(6) 0.78253(5) -0.23856(5)
W7 W 0.97070(6) 0.58842(6) -0.29604(5)
W8 W 0.72936(6) 0.71277(6) -0.36337(5)
W9 W 0.62734(6) 1.03103(6) 0.32984(5)
W10 W 0.90341(6) 0.79572(6) 0.30097(5)
W11 W 0.66134(6) 0.67647(5) 0.12257(5)
W12 W 0.93677(6) 0.69866(5) -0.11995(5)
W13 W 0.76891(6) 0.95605(6) 0.40816(5)
W14 W 0.58791(6) 0.56170(6) -0.36344(5)
W15 W 0.97252(6) 0.92004(5) 0.22303(5)
W16 W 0.67393(6) 0.74527(6) 0.30392(5)
W17 W 0.53585(6) 0.82145(6) 0.22594(5)
W18 W 0.78459(6) 0.54126(5) -0.11681(5)
W19 W 0.88356(6) 0.72879(5) 0.11960(5)
W20 W 0.61312(6) 0.94940(5) 0.13380(5)
W21 W 0.61993(6) 0.46859(6) -0.23940(5)
W22 W 0.82035(6) 0.99526(5) 0.13109(5)
Sm1 Sm 0.72904(7) 0.77808(7) -0.01146(6)
Cu1 Cu 0.5000 1.0000 0.0000
Cu2 Cu 1.0252(2) 1.20967(17) 0.46159(16)
Cu3 Cu 0.5000 0.5000 0.0000
N1 N 0.6243(13) 1.0084(14) -0.0210(11)
H1 H 0.6532 0.9775 -0.0056
H2 H 0.6301 0.9910 -0.0673
N2 N 0.5121(13) 1.1217(11) 0.0446(11)
H3 H 0.4668 1.1415 0.0333
H4 H 0.5162 1.1393 0.0913
N3 N 1.0095(14) 1.1167(11) 0.4901(11)
H5 H 1.0362 1.1308 0.5318
H6 H 0.9544 1.1069 0.4950
N4 N 1.0872(12) 1.1324(11) 0.3850(10)
H7 H 1.0540 1.1111 0.3458
H8 H 1.1326 1.1594 0.3770
N5 N 0.4999(14) 0.5746(12) -0.0505(11)
H9 H 0.5530 0.5882 -0.0581
H10 H 0.4717 0.5489 -0.0921
N6 N 0.4296(13) 0.5817(12) 0.0686(13)
H11 H 0.3889 0.5562 0.0834
H12 H 0.4617 0.6163 0.1057
N9 N 1.0457(14) 1.3071(12) 0.4398(13)
H17 H 1.1011 1.3220 0.4442
H18 H 1.0285 1.2940 0.3954
N10 N 0.9559(14) 1.2778(12) 0.5366(11)
H19 H 0.9014 1.2597 0.5260
H20 H 0.9705 1.2744 0.5767
N15 N 1.0980(17) 0.6806(13) 0.1681(9)
N16 N 1.288(5) 0.831(5) 0.315(4)
C1 C 0.6570(18) 1.098(2) 0.016(2)
H29 H 0.7029 1.1097 -0.0088
H30 H 0.6781 1.1086 0.0629
C2 C 0.5880(18) 1.1502(17) 0.0198(18)
H31 H 0.6054 1.2060 0.0512
H32 H 0.5761 1.1489 -0.0260
C3 C 1.0415(15) 1.0418(13) 0.4396(13)
H33 H 0.9970 1.0087 0.4061
H34 H 1.0623 1.0101 0.4634
C4 C 1.1136(16) 1.0675(16) 0.4020(14)
H35 H 1.1641 1.0861 0.4321
H36 H 1.1257 1.0215 0.3599
C5 C 0.4602(18) 0.6470(16) -0.0085(15)
H37 H 0.4365 0.6704 -0.0382
H38 H 0.5017 0.6871 0.0237
C6 C 0.3925(18) 0.626(2) 0.0311(18)
H39 H 0.3706 0.6755 0.0639
H40 H 0.3468 0.5925 -0.0006
C9 C 0.968(3) 1.360(2) 0.545(2)
H41 H 1.0053 1.3896 0.5855
H42 H 0.9140 1.3833 0.5553
C10 C 1.001(2) 1.3757(19) 0.4860(18)
H43 H 1.0396 1.4247 0.5038
H44 H 0.9555 1.3845 0.4599
C15 C 1.155(4) 0.753(3) 0.212(4)
H53 H 1.1195 0.7813 0.2497
H54 H 1.1576 0.7839 0.1839
C16 C 1.241(3) 0.777(5) 0.249(4)
H55 H 1.2574 0.7241 0.2438
H56 H 1.2726 0.7898 0.2155
Na1 Na 1.0604(6) 0.5950(5) 0.0780(5)
Na1A Na 0.9396(6) 0.4050(5) -0.0780(5)
N1A N 0.3757(13) 0.9916(14) 0.0210(11)
N2A N 0.4879(13) 0.8783(11) -0.0446(11)
O55A O 0.4695(11) 1.0059(10) -0.1160(9)
N5A N 0.5001(14) 0.4254(12) 0.0505(11)
N6A N 0.5704(13) 0.4183(12) -0.0686(13)
O46A O 0.3691(10) 0.4220(9) -0.0696(8)
O77A O 1.1921(12) 0.4956(10) 0.0558(9)
W11A W 0.33866(6) 0.32353(5) -0.12257(5)
O1A O 0.1933(9) 0.0868(9) -0.0509(8)
O2A O 0.1653(9) 0.2342(9) -0.0651(8)
O3A O 0.0000 0.5000 0.0000
O4A O 0.3702(8) 0.1242(9) -0.0510(8)
O5A O -0.130(3) 0.318(3) -0.040(2)
O6A O 0.3339(9) 0.2735(9) -0.0663(9)
O8A O 0.1460(10) 0.2456(8) 0.0770(8)
O9A O 0.011(2) 0.4825(19) -0.133(3)
O10A O 0.2600(9) 0.3661(9) 0.0698(9)
O12A O 0.2870(9) 0.1492(9) 0.0846(8)
O14A O 0.4026(9) 0.2792(8) 0.0849(8)
O16A O 0.2508(8) 0.0498(8) -0.2930(8)
O18A O 0.1608(9) 0.1564(8) -0.2165(8)
O20A O 0.2647(9) 0.0950(8) -0.1643(8)
O22A O 0.3150(8) 0.1879(9) -0.2201(8)
O24A O 0.2697(9) 0.3884(8) 0.3150(7)
O26A O 0.1479(9) 0.3387(8) 0.2276(7)
O28A O 0.2941(9) 0.3055(9) 0.1901(8)
O30A O 0.2500(9) 0.4469(8) 0.2263(8)
O32A O 0.1296(11) -0.0688(9) -0.1092(8)
O33A O 0.0876(9) 0.0472(9) -0.1607(8)
O34A O -0.0706(10) 0.0413(10) -0.2224(9)
O35A O 0.0762(9) -0.0060(8) -0.2953(8)
O37A O 0.1646(9) -0.0481(9) -0.4073(8)
O39A O 0.2229(12) 0.0249(10) -0.4951(8)
O40A O 0.3288(9) -0.0112(9) -0.4081(8)
O41A O 0.3013(9) 0.1437(9) -0.3692(7)
O43A O 0.3472(10) 0.3053(11) -0.3561(9)
O44A O 0.4353(9) 0.2210(9) -0.2931(9)
O45A O 0.5720(10) 0.1856(10) -0.2289(9)
O47A O 0.4482(10) 0.2812(9) -0.1548(9)
O48A O 0.3388(10) 0.3349(9) -0.2176(9)
O49A O 0.0797(9) 0.2785(9) -0.2112(8)
O51A O 0.0638(9) 0.3510(9) -0.0661(9)
O52A O 0.3772(10) -0.0200(9) -0.2399(8)
O53A O 0.4462(10) 0.1263(10) -0.1652(9)
O54A O 0.1813(9) -0.0641(9) -0.2357(8)
O55A_2 O 0.4695(11) 0.0059(10) -0.1160(9)
O56A O 0.2951(9) -0.0224(9) -0.1313(8)
O57A O 0.2056(9) 0.2545(8) -0.2978(8)
O58A O 0.2192(10) 0.3235(9) -0.1311(8)
O59A O 0.4325(9) 0.0718(8) -0.3010(8)
O60A O 0.0138(9) 0.1272(9) -0.2890(8)
O61A O 0.1391(10) 0.1083(9) -0.3704(9)
O62A O 0.0254(8) 0.1862(8) -0.1488(7)
O67A O 0.2999(10) 0.6056(9) 0.2891(8)
O68A O 0.4642(11) 0.5989(10) 0.2423(10)
O76A O 0.3227(10) 0.5207(9) 0.1557(8)
O77A_2 O 0.1921(12) 0.4956(10) 0.0558(9)
O78A O 0.1698(10) 0.5531(9) 0.2003(8)
O79A O 0.3991(10) 0.5144(9) 0.3225(8)
O80A O 0.3757(9) 0.3526(9) 0.3911(8)
O86A O 0.3318(11) 0.5016(9) 0.4301(8)
O89A O 0.1110(9) 0.4021(8) 0.1242(7)
O90A O 0.5054(11) 0.4762(11) 0.4114(9)
O91A O 0.4429(9) 0.3664(9) 0.2795(8)
O92A O 0.4233(10) 0.4282(9) 0.1904(9)
P1A P 0.2476(3) 0.1208(3) -0.2230(3)
P2A P 0.2406(3) 0.3686(3) 0.2389(3)
W13A W 0.23109(6) 0.04395(6) -0.40816(5)
W14A W 0.41209(6) 0.43830(6) 0.36344(5)
W15A W 0.02748(6) 0.07996(5) -0.22303(5)
W16A W 0.32607(6) 0.25473(6) -0.30392(5)
W17A W 0.46415(6) 0.17855(6) -0.22594(5)
W18A W 0.21541(6) 0.45874(5) 0.11681(5)
W19A W 0.11644(6) 0.27121(5) -0.11960(5)
W20A W 0.38688(6) 0.05060(5) -0.13380(5)
W21A W 0.38007(6) 0.53141(6) 0.23940(5)
W22A W 0.17965(6) 0.00474(5) -0.13109(5)
Sm1A Sm 0.27096(7) 0.22192(7) 0.01146(6)
Cu1A Cu 0.5000 0.0000 0.0000
N1A_2 N 0.3757(13) -0.0084(14) 0.0210(11)
H1A H 0.3468 0.0225 0.0056
H2A H 0.3699 0.0090 0.0673
N2A_2 N 0.4879(13) -0.1217(11) -0.0446(11)
H3A H 0.5332 -0.1415 -0.0333
H4A H 0.4838 -0.1393 -0.0913
N15A N -0.0980(17) 0.3194(13) -0.1681(9)
N16A N -0.288(5) 0.169(5) -0.315(4)
C1A C 0.3430(18) -0.098(2) -0.016(2)
H29A H 0.2971 -0.1097 0.0088
H30A H 0.3219 -0.1086 -0.0629
C2A C 0.4120(18) -0.1502(17) -0.0198(18)
H31A H 0.3946 -0.2060 -0.0512
H32A H 0.4239 -0.1489 0.0260
C15A C -0.155(4) 0.247(3) -0.212(4)
H53A H -0.1195 0.2187 -0.2497
H54A H -0.1576 0.2161 -0.1839
C16A C -0.241(3) 0.223(5) -0.249(4)
H55A H -0.2574 0.2759 -0.2438
H56A H -0.2726 0.2102 -0.2155
Na1A_2 Na -0.0604(6) 0.4050(5) -0.0780(5)
Na1_2 Na 0.0604(6) 0.5950(5) 0.0780(5)
N1_2 N 0.6243(13) 0.0084(14) -0.0210(11)
N2_2 N 0.5121(13) 0.1217(11) 0.0446(11)
O55_2 O 0.5305(11) -0.0059(10) 0.1160(9)
O77_2 O -0.1921(12) 0.5044(10) -0.0558(9)
H9A H 0.4470 0.4118 0.0581
H10A H 0.5283 0.4511 0.0921
H11A H 0.6111 0.4438 -0.0834
H12A H 0.5383 0.3837 -0.1057
C5A C 0.5398(18) 0.3530(16) 0.0085(15)
H37A H 0.5635 0.3296 0.0382
H38A H 0.4983 0.3129 -0.0237
C6A C 0.6075(18) 0.374(2) -0.0311(18)
H39A H 0.6294 0.3245 -0.0639
H40A H 0.6532 0.4075 0.0006
W1A W 0.43864(6) 0.31705(5) 0.17086(5)
W2A W 0.16187(6) -0.07890(5) -0.32682(5)
W3A W 0.18215(6) 0.57476(5) 0.29353(5)
W4A W 0.21438(6) 0.48310(6) 0.42089(5)
W5A W 0.30139(6) 0.16868(5) 0.17316(5)
W6A W 0.08678(6) 0.21747(5) 0.23856(5)
W7A W 0.02930(6) 0.41158(6) 0.29604(5)
W8A W 0.27064(6) 0.28723(6) 0.36337(5)
W9A W 0.37266(6) -0.03103(6) -0.32984(5)
W10A W 0.09659(6) 0.20428(6) -0.30097(5)
W12A W 0.06323(6) 0.30134(5) 0.11995(5)
O84A O 0.4158(10) 0.2147(10) 0.1801(8)
O85A O 0.5468(10) 0.3168(9) 0.1656(9)
O13A O -0.1704(14) -0.2587(14) -0.5380(13)
O36A O 0.1070(9) -0.1727(9) -0.3663(8)
Cu2A Cu -0.0252(2) -0.20967(17) -0.46159(16)
N3A N -0.0095(14) -0.1167(11) -0.4901(11)
H5A H -0.0362 -0.1308 -0.5318
H6A H 0.0456 -0.1069 -0.4950
N4A N -0.0872(12) -0.1324(11) -0.3850(10)
H7A H -0.0540 -0.1111 -0.3458
H8A H -0.1326 -0.1594 -0.3770
N9A N -0.0457(14) -0.3071(12) -0.4398(13)
H17A H -0.1011 -0.3220 -0.4442
H18A H -0.0285 -0.2940 -0.3954
N10A N 0.0441(14) -0.2778(12) -0.5366(11)
H19A H 0.0986 -0.2597 -0.5260
H20A H 0.0295 -0.2744 -0.5767
C3A C -0.0415(15) -0.0418(13) -0.4396(13)
H33A H 0.0030 -0.0087 -0.4061
H34A H -0.0623 -0.0101 -0.4634
C4A C -0.1136(16) -0.0675(16) -0.4020(14)
H35A H -0.1641 -0.0861 -0.4321
H36A H -0.1257 -0.0215 -0.3599
C9A C 0.032(3) -0.360(2) -0.545(2)
H41A H -0.0053 -0.3896 -0.5855
H42A H 0.0860 -0.3833 -0.5553
C10A C -0.001(2) -0.3757(19) -0.4860(18)
H43A H -0.0396 -0.4247 -0.5038
H44A H 0.0445 -0.3845 -0.4599
O38A O 0.2756(9) -0.1069(10) -0.3490(8)
O66A O 0.1435(11) 0.6672(9) 0.3309(9)
O69A O 0.2155(10) 0.5536(8) 0.3718(8)
O93A O 0.0843(9) 0.5029(9) 0.2860(8)
O65A O 0.1836(11) 0.5437(9) 0.5015(8)
O81A O 0.2246(10) 0.3838(9) 0.4317(8)
O87A O 0.1079(10) 0.4375(9) 0.3715(8)
O74A O 0.1828(9) 0.1732(8) 0.1906(7)
O82A O 0.3117(9) 0.2257(9) 0.2803(8)
O83A O 0.3213(9) 0.0762(9) 0.1696(8)
O63A O 0.0321(12) 0.1338(9) 0.2414(10)
O71A O 0.0184(9) 0.3039(9) 0.2923(8)
O72A O 0.1596(9) 0.2559(8) 0.3218(8)
O73A O 0.0356(8) 0.2166(9) 0.1569(7)
O70A O -0.0593(10) 0.4461(10) 0.3366(9)
O88A O -0.0045(9) 0.3678(9) 0.2034(8)
O64A O 0.2741(11) 0.2295(10) 0.4110(10)
O42A O 0.4481(10) -0.0955(10) -0.3684(9)
O50A O 0.0376(11) 0.2357(10) -0.3535(9)
O75A O -0.0168(10) 0.2745(9) 0.0559(8)
O5A_2 O 0.870(3) 0.318(3) -0.040(2)
O9A_2 O 1.011(2) 0.4825(19) -0.133(3)
O51A_2 O 1.0638(9) 0.3510(9) -0.0661(9)
N15A_2 N 0.9020(17) 0.3194(13) -0.1681(9)
H1A_2 H 0.3468 1.0225 0.0056
H2A_2 H 0.3699 1.0090 0.0673
C1A_2 C 0.3430(18) 0.902(2) -0.016(2)
H3A_2 H 0.5332 0.8585 -0.0333
H4A_2 H 0.4838 0.8607 -0.0913
C2A_2 C 0.4120(18) 0.8498(17) -0.0198(18)
W20A_2 W 0.38688(6) 1.05060(5) -0.13380(5)
W18A_2 W 1.21541(6) 0.45874(5) 0.11681(5)
O5_2 O 0.130(3) 0.682(3) 0.040(2)
O9_2 O -0.011(2) 0.5175(19) 0.133(3)
O51_2 O -0.0638(9) 0.6490(9) 0.0661(9)
N15_2 N 0.0980(17) 0.6806(13) 0.1681(9)
H1_2 H 0.6532 -0.0225 -0.0056
H2_2 H 0.6301 -0.0090 -0.0673
C1_2 C 0.6570(18) 0.098(2) 0.016(2)
H3_2 H 0.4668 0.1415 0.0333
H4_2 H 0.5162 0.1393 0.0913
C2_2 C 0.5880(18) 0.1502(17) 0.0198(18)
W20_2 W 0.61312(6) -0.05060(5) 0.13380(5)
W18_2 W -0.21541(6) 0.54126(5) -0.11681(5)
H29A_2 H 0.2971 0.8903 0.0088
H30A_2 H 0.3219 0.8914 -0.0629
H31A_2 H 0.3946 0.7940 -0.0512
H32A_2 H 0.4239 0.8511 0.0260
H29_2 H 0.7029 0.1097 -0.0088
H30_2 H 0.6781 0.1086 0.0629
H31_2 H 0.6054 0.2060 0.0512
H32_2 H 0.5761 0.1489 -0.0260
loop_
_geom_bond_atom_site_label_1
_geom_bond_atom_site_label_2
_geom_bond_site_symmetry_1
_geom_bond_site_symmetry_2
O1 W22 1_555 1_555
O2 W19 1_555 1_555
O3 Na1 1_555 1_555
O4 W20 1_555 1_555
O5 Na1 1_555 1_555
O6 W11 1_555 1_555
O7 Cu5 1_555 1_555
O8 W12 1_555 1_555
O9 Na1 1_555 1_555
O10 W18 1_555 1_555
O12 W5 1_555 1_555
O13 Cu2 1_555 1_555
O14 W1 1_555 1_555
O16 P1 1_555 1_555
O18 P1 1_555 1_555
O20 P1 1_555 1_555
O22 P1 1_555 1_555
O24 P2 1_555 1_555
O26 P2 1_555 1_555
O28 P2 1_555 1_555
O30 P2 1_555 1_555
O32 W22 1_555 1_555
O33 W15 1_555 1_555
O34 W15 1_555 1_555
O35 W2 1_555 1_555
O36 W2 1_555 1_555
O37 W2 1_555 1_555
O38 W2 1_555 1_555
O39 W13 1_555 1_555
O40 W9 1_555 1_555
O41 W13 1_555 1_555
O42 W9 1_555 1_555
O43 W16 1_555 1_555
O44 W16 1_555 1_555
O45 W17 1_555 1_555
O46 W11 1_555 1_555
O47 W11 1_555 1_555
O48 W11 1_555 1_555
O49 W10 1_555 1_555
O50 W10 1_555 1_555
O51 W19 1_555 1_555
O52 W9 1_555 1_555
O53 W17 1_555 1_555
O54 W2 1_555 1_555
O55 W20 1_555 1_555
O56 W20 1_555 1_555
O57 W10 1_555 1_555
O58 W11 1_555 1_555
O59 W9 1_555 1_555
O60 W10 1_555 1_555
O61 W10 1_555 1_555
O62 W15 1_555 1_555
O63 W6 1_555 1_555
O64 W8 1_555 1_555
O65 W4 1_555 1_555
O66 W3 1_555 1_555
O67 W3 1_555 1_555
O68 W21 1_555 1_555
O69 W3 1_555 1_555
O70 W7 1_555 1_555
O71 W6 1_555 1_555
O72 W6 1_555 1_555
O73 W6 1_555 1_555
O74 W5 1_555 1_555
O75 W12 1_555 1_555
O76 W18 1_555 1_555
O77 W18 1_555 1_555
O78 W3 1_555 1_555
O79 W14 1_555 1_555
O80 W8 1_555 1_555
O81 W4 1_555 1_555
O82 W5 1_555 1_555
O83 W5 1_555 1_555
O84 W1 1_555 1_555
O85 W1 1_555 1_555
O86 W4 1_555 1_555
O87 W4 1_555 1_555
O88 W7 1_555 1_555
O89 W12 1_555 1_555
O90 W14 1_555 1_555
O91 W1 1_555 1_555
O92 W1 1_555 1_555
O93 W3 1_555 1_555
W1 O28 1_555 1_555
W2 O16 1_555 1_555
W3 O30 1_555 1_555
W4 O24 1_555 1_555
W5 O28 1_555 1_555
W6 O26 1_555 1_555
W7 O26 1_555 1_555
W8 O24 1_555 1_555
W9 O16 1_555 1_555
W10 O18 1_555 1_555
W11 O22 1_555 1_555
W12 O26 1_555 1_555
W13 O16 1_555 1_555
W14 O24 1_555 1_555
W15 O18 1_555 1_555
W16 O22 1_555 1_555
W17 O22 1_555 1_555
W18 O30 1_555 1_555
W19 O18 1_555 1_555
W20 O20 1_555 1_555
W21 O30 1_555 1_555
W22 O20 1_555 1_555
Sm1 O1 1_555 1_555
Cu1 O55 1_555 1_555
Cu2 O36 1_555 1_555
Cu3 O46 1_555 1_555
Cu4 N7 1_555 1_555
Cu5 N11 1_555 1_555
N1 Cu1 1_555 1_555
H1 N1 1_555 1_555
H2 N1 1_555 1_555
N2 Cu1 1_555 1_555
H3 N2 1_555 1_555
H4 N2 1_555 1_555
N3 Cu2 1_555 1_555
H5 N3 1_555 1_555
H6 N3 1_555 1_555
N4 Cu2 1_555 1_555
H7 N4 1_555 1_555
H8 N4 1_555 1_555
N5 Cu3 1_555 1_555
H9 N5 1_555 1_555
H10 N5 1_555 1_555
N6 Cu3 1_555 1_555
H11 N6 1_555 1_555
H12 N6 1_555 1_555
N7 H13 1_555 1_555
H14 N7 1_555 1_555
N8 Cu4 1_555 1_555
H15 N8 1_555 1_555
H16 N8 1_555 1_555
N9 Cu2 1_555 1_555
H17 N9 1_555 1_555
H18 N9 1_555 1_555
N10 Cu2 1_555 1_555
H19 N10 1_555 1_555
H20 N10 1_555 1_555
N11 H21 1_555 1_555
H22 N11 1_555 1_555
N12 Cu5 1_555 1_555
H23 N12 1_555 1_555
H24 N12 1_555 1_555
N13 Cu5 1_555 1_555
H25 N13 1_555 1_555
H26 N13 1_555 1_555
N14 Cu5 1_555 1_555
H27 N14 1_555 1_555
H28 N14 1_555 1_555
N15 C15 1_555 1_555
N16 C16 1_555 1_555
C1 N1 1_555 1_555
H29 C1 1_555 1_555
H30 C1 1_555 1_555
C2 N2 1_555 1_555
H31 C2 1_555 1_555
H32 C2 1_555 1_555
C3 N3 1_555 1_555
H33 C3 1_555 1_555
H34 C3 1_555 1_555
C4 N4 1_555 1_555
H35 C4 1_555 1_555
H36 C4 1_555 1_555
C5 N5 1_555 1_555
H37 C5 1_555 1_555
H38 C5 1_555 1_555
C6 N6 1_555 1_555
H39 C6 1_555 1_555
H40 C6 1_555 1_555
C7 N7 1_555 1_555
C8 N8 1_555 1_555
C9 N10 1_555 1_555
H41 C9 1_555 1_555
H42 C9 1_555 1_555
C10 N9 1_555 1_555
H43 C10 1_555 1_555
H44 C10 1_555 1_555
C11 N11 1_555 1_555
H45 C11 1_555 1_555
H46 C11 1_555 1_555
C12 N12 1_555 1_555
H47 C12 1_555 1_555
H48 C12 1_555 1_555
C13 N13 1_555 1_555
H49 C13 1_555 1_555
H50 C13 1_555 1_555
C14 N14 1_555 1_555
H51 C14 1_555 1_555
H52 C14 1_555 1_555
C15 H53 1_555 1_555
H54 C15 1_555 1_555
C16 C15 1_555 1_555
H55 C16 1_555 1_555
H56 C16 1_555 1_555
Na1 O51 1_555 1_555
Na1A O3 1_555 1_555
N1A Cu1 1_555 1_555
N2A Cu1 1_555 1_555
O55A Cu1 1_555 1_555
N5A Cu3 1_555 1_555
N6A Cu3 1_555 1_555
O46A Cu3 1_555 1_555
N7A Cu4 1_555 1_555
N8A Cu4 1_555 1_555
O77A Na1 1_555 1_555
W11A O46A 1_555 1_555
O1A W22A 1_555 1_555
O2A W19A 1_555 1_555
O3A Na1A_2 1_555 1_555
O4A W20A 1_555 1_555
O5A Na1A_2 1_555 1_555
O6A W11A 1_555 1_555
O8A Sm1A 1_555 1_555
O9A Na1A_2 1_555 1_555
O10A W18A 1_555 1_555
O12A Sm1A 1_555 1_555
O14A Sm1A 1_555 1_555
O16A P1A 1_555 1_555
O18A P1A 1_555 1_555
O20A P1A 1_555 1_555
O22A W11A 1_555 1_555
O24A P2A 1_555 1_555
O26A P2A 1_555 1_555
O28A P2A 1_555 1_555
O30A P2A 1_555 1_555
O32A W22A 1_555 1_555
O33A W15A 1_555 1_555
O34A W15A 1_555 1_555
O35A W15A 1_555 1_555
O37A W13A 1_555 1_555
O39A W13A 1_555 1_555
O40A W13A 1_555 1_555
O41A W13A 1_555 1_555
O43A W16A 1_555 1_555
O44A W16A 1_555 1_555
O45A W17A 1_555 1_555
O47A W11A 1_555 1_555
O48A W11A 1_555 1_555
O49A W19A 1_555 1_555
O51A W19A 1_555 1_555
O52A W20A 1_555 1_555
O53A W17A 1_555 1_555
O54A W22A 1_555 1_555
O55A_2 W20A 1_555 1_555
O56A W20A 1_555 1_555
O57A W16A 1_555 1_555
O58A W11A 1_555 1_555
O59A W17A 1_555 1_555
O60A W15A 1_555 1_555
O61A W13A 1_555 1_555
O62A W15A 1_555 1_555
O67A W21A 1_555 1_555
O68A W21A 1_555 1_555
O76A W18A 1_555 1_555
O77A_2 W18A 1_555 1_555
O78A W18A 1_555 1_555
O79A W14A 1_555 1_555
O80A W14A 1_555 1_555
O86A W14A 1_555 1_555
O89A W18A 1_555 1_555
O90A W14A 1_555 1_555
O91A W14A 1_555 1_555
O92A W21A 1_555 1_555
P1A O22A 1_555 1_555
W13A O16A 1_555 1_555
W14A O24A 1_555 1_555
W15A O18A 1_555 1_555
W16A O22A 1_555 1_555
W17A O22A 1_555 1_555
W18A O30A 1_555 1_555
W19A O18A 1_555 1_555
W20A O20A 1_555 1_555
W21A O30A 1_555 1_555
W22A O20A 1_555 1_555
Sm1A O1A 1_555 1_555
Cu1A O55A_2 1_555 1_555
N1A_2 Cu1A 1_555 1_555
H1A N1A_2 1_555 1_555
H2A N1A_2 1_555 1_555
N2A_2 Cu1A 1_555 1_555
H3A N2A_2 1_555 1_555
H4A N2A_2 1_555 1_555
N15A C15A 1_555 1_555
N16A C16A 1_555 1_555
C1A N1A_2 1_555 1_555
H29A C1A 1_555 1_555
H30A C1A 1_555 1_555
C2A N2A_2 1_555 1_555
H31A C2A 1_555 1_555
H32A C2A 1_555 1_555
C15A H53A 1_555 1_555
H54A C15A 1_555 1_555
C16A C15A 1_555 1_555
H55A C16A 1_555 1_555
H56A C16A 1_555 1_555
Na1A_2 O51A 1_555 1_555
Na1_2 O3A 1_555 1_555
N1_2 Cu1A 1_555 1_555
N2_2 Cu1A 1_555 1_555
O55_2 Cu1A 1_555 1_555
O77_2 Na1A_2 1_555 1_555
H9A N5A 1_555 1_555
H10A N5A 1_555 1_555
H11A N6A 1_555 1_555
H12A N6A 1_555 1_555
C5A N5A 1_555 1_555
H37A C5A 1_555 1_555
H38A C5A 1_555 1_555
C6A N6A 1_555 1_555
H39A C6A 1_555 1_555
H40A C6A 1_555 1_555
W1A O14A 1_555 1_555
W2A O16A 1_555 1_555
W3A O30A 1_555 1_555
W4A O24A 1_555 1_555
W5A O12A 1_555 1_555
W6A O26A 1_555 1_555
W7A O26A 1_555 1_555
W8A O24A 1_555 1_555
W9A O16A 1_555 1_555
W10A O18A 1_555 1_555
W12A O8A 1_555 1_555
O84A W1A 1_555 1_555
O85A W1A 1_555 1_555
O13A Cu2A 1_555 1_555
O36A W2A 1_555 1_555
Cu2A O36A 1_555 1_555
N3A Cu2A 1_555 1_555
H5A N3A 1_555 1_555
H6A N3A 1_555 1_555
N4A Cu2A 1_555 1_555
H7A N4A 1_555 1_555
H8A N4A 1_555 1_555
N9A Cu2A 1_555 1_555
H17A N9A 1_555 1_555
H18A N9A 1_555 1_555
N10A Cu2A 1_555 1_555
H19A N10A 1_555 1_555
H20A N10A 1_555 1_555
C3A N3A 1_555 1_555
H33A C3A 1_555 1_555
H34A C3A 1_555 1_555
C4A N4A 1_555 1_555
H35A C4A 1_555 1_555
H36A C4A 1_555 1_555
C9A N10A 1_555 1_555
H41A C9A 1_555 1_555
H42A C9A 1_555 1_555
C10A N9A 1_555 1_555
H43A C10A 1_555 1_555
H44A C10A 1_555 1_555
O38A W2A 1_555 1_555
O66A W3A 1_555 1_555
O69A W3A 1_555 1_555
O93A W3A 1_555 1_555
O65A W4A 1_555 1_555
O81A W4A 1_555 1_555
O87A W4A 1_555 1_555
O74A W5A 1_555 1_555
O82A W5A 1_555 1_555
O83A W5A 1_555 1_555
O63A W6A 1_555 1_555
O71A W6A 1_555 1_555
O72A W6A 1_555 1_555
O73A W6A 1_555 1_555
O70A W7A 1_555 1_555
O88A W7A 1_555 1_555
O64A W8A 1_555 1_555
O42A W9A 1_555 1_555
O50A W10A 1_555 1_555
O75A W12A 1_555 1_555
O5A_2 Na1A 1_555 1_555
O9A_2 Na1A 1_555 1_555
O51A_2 Na1A 1_555 1_555
N15A_2 Na1A 1_555 1_555
H1A_2 N1A 1_555 1_555
H2A_2 N1A 1_555 1_555
C1A_2 N1A 1_555 1_555
H3A_2 N2A 1_555 1_555
H4A_2 N2A 1_555 1_555
C2A_2 N2A 1_555 1_555
W20A_2 O55A 1_555 1_555
H13A N7A 1_555 1_555
H14A N7A 1_555 1_555
C7A N7A 1_555 1_555
H15A N8A 1_555 1_555
H16A N8A 1_555 1_555
C8A N8A 1_555 1_555
W18A_2 O77A 1_555 1_555
O5_2 Na1_2 1_555 1_555
O9_2 Na1_2 1_555 1_555
O51_2 Na1_2 1_555 1_555
N15_2 Na1_2 1_555 1_555
H1_2 N1_2 1_555 1_555
H2_2 N1_2 1_555 1_555
C1_2 N1_2 1_555 1_555
H3_2 N2_2 1_555 1_555
H4_2 N2_2 1_555 1_555
C2_2 N2_2 1_555 1_555
W20_2 O55_2 1_555 1_555
W18_2 O77_2 1_555 1_555
H29A_2 C1A_2 1_555 1_555
H30A_2 C1A_2 1_555 1_555
H31A_2 C2A_2 1_555 1_555
H32A_2 C2A_2 1_555 1_555
H29_2 C1_2 1_555 1_555
H30_2 C1_2 1_555 1_555
H31_2 C2_2 1_555 1_555
H32_2 C2_2 1_555 1_555
O2 Sm1 1_555 1_555
O4 Sm1 1_555 1_555
O6 Sm1 1_555 1_555
O8 Sm1 1_555 1_555
O10 Sm1 1_555 1_555
O12 Sm1 1_555 1_555
O14 Sm1 1_555 1_555
O33 W22 1_555 1_555
O35 W15 1_555 1_555
O37 W13 1_555 1_555
O38 W9 1_555 1_555
O40 W13 1_555 1_555
O41 W16 1_555 1_555
O44 W17 1_555 1_555
O47 W17 1_555 1_555
O48 W16 1_555 1_555
O49 W19 1_555 1_555
O52 W20 1_555 1_555
O53 W20 1_555 1_555
O54 W22 1_555 1_555
O56 W22 1_555 1_555
O57 W16 1_555 1_555
O58 W19 1_555 1_555
O59 W17 1_555 1_555
O60 W15 1_555 1_555
O61 W13 1_555 1_555
O62 W19 1_555 1_555
O67 W21 1_555 1_555
O69 W4 1_555 1_555
O71 W7 1_555 1_555
O72 W8 1_555 1_555
O73 W12 1_555 1_555
O74 W6 1_555 1_555
O76 W21 1_555 1_555
O77 Na1A 1_555 1_555
O78 W18 1_555 1_555
O79 W21 1_555 1_555
O80 W14 1_555 1_555
O81 W8 1_555 1_555
O82 W8 1_555 1_555
O84 W5 1_555 1_555
O86 W14 1_555 1_555
O87 W7 1_555 1_555
O88 W12 1_555 1_555
O89 W18 1_555 1_555
O91 W14 1_555 1_555
O92 W21 1_555 1_555
O93 W7 1_555 1_555
N15 Na1 1_555 1_555
C1 C2 1_555 1_555
C3 C4 1_555 1_555
C5 C6 1_555 1_555
C7 C8 1_555 1_555
C9 C10 1_555 1_555
C11 C12 1_555 1_555
C13 C14 1_555 1_555
O2A Sm1A 1_555 1_555
O4A Sm1A 1_555 1_555
O6A Sm1A 1_555 1_555
O10A Sm1A 1_555 1_555
O26A W12A 1_555 1_555
O28A W1A 1_555 1_555
O28A W5A 1_555 1_555
O33A W22A 1_555 1_555
O35A W2A 1_555 1_555
O37A W2A 1_555 1_555
O40A W9A 1_555 1_555
O41A W16A 1_555 1_555
O44A W17A 1_555 1_555
O47A W17A 1_555 1_555
O48A W16A 1_555 1_555
O49A W10A 1_555 1_555
O52A W9A 1_555 1_555
O53A W20A 1_555 1_555
O54A W2A 1_555 1_555
O56A W22A 1_555 1_555
O57A W10A 1_555 1_555
O58A W19A 1_555 1_555
O59A W9A 1_555 1_555
O60A W10A 1_555 1_555
O61A W10A 1_555 1_555
O62A W19A 1_555 1_555
O67A W3A 1_555 1_555
O76A W21A 1_555 1_555
O77A_2 Na1_2 1_555 1_555
O78A W3A 1_555 1_555
O79A W21A 1_555 1_555
O80A W8A 1_555 1_555
O86A W4A 1_555 1_555
O89A W12A 1_555 1_555
O91A W1A 1_555 1_555
O92A W1A 1_555 1_555
N15A Na1A_2 1_555 1_555
C1A C2A 1_555 1_555
C5A C6A 1_555 1_555
W4A O69A 1_555 1_555
W5A O84A 1_555 1_555
W6A O74A 1_555 1_555
W7A O71A 1_555 1_555
W7A O87A 1_555 1_555
W7A O93A 1_555 1_555
W8A O72A 1_555 1_555
W8A O81A 1_555 1_555
W8A O82A 1_555 1_555
W9A O38A 1_555 1_555
W12A O73A 1_555 1_555
W12A O88A 1_555 1_555
C3A C4A 1_555 1_555
C9A C10A 1_555 1_555
C1A_2 C2A_2 1_555 1_555
C7A C8A 1_555 1_555
C1_2 C2_2 1_555 1_555

#END
