
#######################################################################
#
#                 Cambridge Crystallographic Data Centre
#                                CCDC 
#
#######################################################################
#
# If this CIF has been generated from an entry in the Cambridge 
# Structural Database, then it will include bibliographic, chemical, 
# crystal, experimental, refinement or atomic coordinate data resulting 
# from the CCDC's data processing and validation procedures.
#
#######################################################################

data_TAKHIY
_symmetry_cell_setting           triclinic
_symmetry_space_group_name_H-M   'P -1'
_symmetry_Int_Tables_number      2
_space_group_name_Hall           '-P 1'
loop_
_symmetry_equiv_pos_site_id
_symmetry_equiv_pos_as_xyz
1 x,y,z
2 -x,-y,-z
_cell_length_a                   15.991(2)
_cell_length_b                   18.029(2)
_cell_length_c                   21.1160(17)
_cell_angle_alpha                113.872(2)
_cell_angle_beta                 90.777(1)
_cell_angle_gamma                94.239(2)
_cell_volume                     5545.44
loop_
_atom_site_label
_atom_site_type_symbol
_atom_site_fract_x
_atom_site_fract_y
_atom_site_fract_z
O5 O 0.157(2) 0.184(2) 0.7185(18)
Cu5 Cu 0.2437(4) 0.3121(4) 0.7679(3)
N11 N 0.1469(16) 0.364(2) 0.8246(14)
H21 H 0.1448 0.4136 0.8250
H22 H 0.0991 0.3341 0.8031
N12 N 0.274(3) 0.305(3) 0.8583(15)
H23 H 0.2977 0.2583 0.8491
H24 H 0.3127 0.3464 0.8823
N13 N 0.227(2) 0.348(2) 0.6899(15)
H25 H 0.1765 0.3258 0.6692
H26 H 0.2253 0.4020 0.7090
N14 N 0.3327(16) 0.2478(18) 0.7088(13)
H27 H 0.3844 0.2691 0.7276
H28 H 0.3261 0.1954 0.7031
C11 C 0.149(3) 0.372(3) 0.8971(17)
H41 H 0.0928 0.3640 0.9109
H42 H 0.1732 0.4257 0.9278
C12 C 0.202(3) 0.309(4) 0.902(4)
H43 H 0.2210 0.3237 0.9500
H44 H 0.1695 0.2561 0.8859
C13 C 0.289(3) 0.328(3) 0.635(2)
H45 H 0.3333 0.3718 0.6446
H46 H 0.2624 0.3151 0.5892
C14 C 0.319(4) 0.255(3) 0.642(2)
H47 H 0.2792 0.2096 0.6144
H48 H 0.3716 0.2453 0.6192
O13 O 0.7401(19) 0.787(2) 0.9941(16)
O15 O 0.8724(18) 0.685(2) 0.9449(15)
O17 O 0.682(3) 0.857(3) 0.909(2)
O19 O 0.0160(18) 0.209(2) 0.7978(16)
O21 O 0.094(2) 0.219(3) 0.134(2)
O23 O 0.992(4) 0.078(4) 0.045(3)
O25 O 0.678(2) 0.440(3) 0.296(2)
O27 O 0.881(3) 0.499(3) 0.307(2)
O29 O 0.296(4) 0.549(4) 0.831(3)
Cu3 Cu 0.5000 0.0000 0.5000
N5 N 0.3900(16) -0.0410(16) 0.4452(12)
H9 H 0.3916 -0.0936 0.4161
H10 H 0.3484 -0.0379 0.4743
N6 N 0.4911(17) 0.0975(17) 0.4733(14)
H11 H 0.5058 0.1444 0.5102
H12 H 0.5262 0.0939 0.4394
C5 C 0.373(2) 0.005(2) 0.4070(14)
H29 H 0.3137 -0.0003 0.3958
H30 H 0.4022 -0.0155 0.3639
C6 C 0.4035(19) 0.097(2) 0.4491(16)
H31 H 0.4016 0.1271 0.4199
H32 H 0.3686 0.1217 0.4882
N5A N 0.6100(16) 0.0410(16) 0.5548(12)
N6A N 0.5089(17) -0.0975(17) 0.5267(14)
H9A H 0.6084 0.0936 0.5839
H10A H 0.6516 0.0379 0.5257
C5A C 0.627(2) -0.005(2) 0.5930(14)
H11A H 0.4942 -0.1444 0.4898
H12A H 0.4738 -0.0939 0.5606
C6A C 0.5965(19) -0.097(2) 0.5509(16)
H29A H 0.6863 0.0003 0.6042
H30A H 0.5978 0.0155 0.6361
H31A H 0.5984 -0.1271 0.5801
H32A H 0.6314 -0.1217 0.5118
O1 O 0.7608(11) 0.3703(12) 0.5716(9)
O2 O 0.8725(10) 0.1245(12) 0.4490(8)
O3 O 0.5000 0.5000 0.5000
O4 O 0.6937(11) 0.0868(12) 0.4499(8)
O6 O 0.6633(10) 0.2357(12) 0.4344(9)
O7 O 0.370(3) 0.328(4) 0.469(3)
O8 O 0.8354(10) 0.2772(11) 0.4337(9)
O9 O 0.523(2) 0.473(3) 0.351(3)
O10 O 0.7866(11) 0.1490(12) 0.5863(9)
O11 O 0.3296(16) -0.2546(18) -0.0392(13)
O12 O 0.9031(11) 0.2803(13) 0.5853(8)
O14 O 0.6449(11) 0.2455(11) 0.5775(9)
O16 O 0.8147(10) 0.1867(11) 0.2778(8)
O18 O 0.7506(11) 0.0479(12) 0.2084(8)
O20 O 0.6608(11) 0.1541(11) 0.2806(8)
O22 O 0.7625(11) 0.0960(13) 0.3348(9)
O24 O 0.7528(10) 0.4475(11) 0.7290(8)
O26 O 0.6473(10) 0.3386(11) 0.7292(8)
O28 O 0.7692(10) 0.3897(11) 0.8160(8)
O30 O 0.7925(10) 0.3058(12) 0.6889(8)
O31 O 0.5408(12) 0.2356(13) 0.1480(10)
O32 O 0.5809(12) 0.2788(12) 0.2862(9)
O33 O 0.5633(11) 0.3525(12) 0.4316(10)
O34 O 0.6411(10) 0.1079(13) 0.1287(9)
O35 O 0.7239(12) 0.0245(14) 0.0060(9)
O36 O 0.8483(13) 0.3018(14) 0.1409(11)
O37 O 0.7070(12) 0.2532(12) 0.1986(9)
O38 O 0.8376(10) 0.3347(12) 0.2813(10)
O39 O 0.8717(12) 0.4231(14) 0.4271(10)
O40 O 0.9352(11) 0.2229(12) 0.2071(9)
O41 O 1.0715(12) 0.1823(13) 0.2701(11)
O42 O 0.8784(11) -0.0199(12) 0.2592(9)
O43 O 0.9678(10) 0.0015(11) 0.3807(9)
O44 O 0.7934(11) -0.0234(11) 0.3688(9)
O45 O 0.9467(11) 0.1262(11) 0.3320(8)
O46 O 0.9488(11) 0.2813(11) 0.3446(8)
O47 O 0.9464(12) -0.0996(12) 0.1296(10)
O48 O 0.8295(12) -0.0107(12) 0.0931(8)
O49 O 0.8015(12) 0.1427(12) 0.1285(9)
O50 O 0.9346(11) 0.0724(12) 0.1996(9)
O51 O 0.5151(10) 0.1285(11) 0.2124(8)
O52 O 0.4256(12) 0.0416(13) 0.2737(9)
O53 O 0.5253(12) 0.1869(13) 0.3480(8)
O54 O 0.7226(12) 0.3217(11) 0.3646(8)
O55 O 0.6809(10) -0.0668(11) 0.2625(8)
O56 O 0.5740(12) -0.0078(12) 0.2018(9)
O57 O 0.5864(11) 0.0458(14) 0.3378(8)
O58 O 0.6283(11) -0.0690(13) 0.3913(9)
O59 O 0.6680(10) -0.0488(11) 0.0938(8)
O60 O 0.6066(12) -0.1732(13) 0.1346(9)
O61 O 0.7738(11) -0.1060(12) 0.1507(9)
O62 O 0.3108(11) 0.5040(13) 0.4421(9)
O63 O 0.6688(11) 0.5534(11) 0.7003(8)
O64 O 0.8226(10) 0.5232(12) 0.6580(8)
O65 O 0.8213(11) 0.0760(13) 0.6708(9)
O66 O 1.0456(11) 0.3204(12) 0.6685(9)
O67 O 0.9151(11) 0.2175(11) 0.6813(8)
O68 O 0.8131(11) 0.2263(12) 0.7817(9)
O69 O 0.7776(11) 0.2288(14) 0.9118(9)
O70 O 0.7246(11) 0.3843(12) 0.9323(8)
O71 O 0.6854(12) 0.5452(13) 1.0021(10)
O72 O 0.5200(11) 0.3036(12) 0.7927(9)
O73 O 0.5350(11) 0.1352(12) 0.7436(9)
O74 O 0.6851(10) 0.1724(11) 0.6909(8)
O75 O 0.9611(12) 0.6008(14) 0.7444(10)
O76 O 0.9408(11) 0.3673(11) 0.7813(8)
O77 O 0.8993(11) 0.5155(12) 0.8239(9)
O78 O 0.8000(11) 0.6049(12) 0.7900(9)
O79 O 1.0028(12) 0.4769(13) 0.9092(10)
O80 O 0.8309(11) 0.5038(14) 0.9317(9)
O81 O 0.4383(12) 0.4473(13) 0.8364(9)
O82 O 0.4953(11) 0.3695(11) 0.7038(9)
O83 O 0.4841(12) 0.2766(12) 0.5584(10)
O84 O 0.6420(12) 0.6696(14) 0.8322(10)
O85 O 0.7143(11) 0.5529(11) 0.8732(9)
O86 O 0.6096(11) 0.4362(13) 0.8720(9)
O87 O 0.6604(10) 0.2550(11) 0.8221(8)
O88 O 0.5375(10) 0.2172(12) 0.6577(9)
O89 O 0.6096(10) 0.4044(11) 0.6260(8)
O90 O 0.8767(11) 0.3546(13) 0.8933(9)
O91 O 0.9224(11) 0.4305(12) 0.6911(9)
O92 O 0.5857(11) 0.5036(12) 0.7866(9)
P1 P 0.7487(4) 0.1206(4) 0.2765(3)
P2 P 0.7412(4) 0.3701(4) 0.7395(3)
W1 W 0.93893(7) 0.31857(8) 0.67211(6)
W2 W 0.68165(7) 0.57564(7) 0.79477(6)
W3 W 0.71418(7) 0.48345(8) 0.92125(5)
W4 W 0.80192(7) 0.16890(7) 0.67417(5)
W5 W 0.66181(7) -0.07962(7) 0.17329(5)
W6 W 0.87257(7) -0.03188(8) 0.17029(6)
W7 W 0.58722(7) 0.21729(7) 0.73908(6)
W8 W 0.56242(7) 0.30193(7) 0.62123(5)
W9 W 0.77109(7) 0.28763(8) 0.86347(6)
W10 W 0.52936(7) 0.41134(8) 0.79683(6)
W11 W 0.71401(7) 0.46061(7) 0.61840(6)
W12 W 0.91159(7) 0.43982(8) 0.86385(6)
W13 W 0.73147(8) 0.04291(8) 0.09156(6)
W14 W 0.59725(8) 0.20317(8) 0.19770(6)
W15 W 0.52800(7) 0.07960(8) 0.27646(6)
W16 W 0.87915(7) 0.53268(8) 0.74006(6)
W17 W 0.61619(7) 0.27167(7) 0.37870(6)
W18 W 0.83875(7) 0.32399(8) 0.37565(6)
W19 W 0.67928(7) 0.00389(7) 0.36838(5)
W20 W 0.96391(7) 0.17808(8) 0.27366(6)
W21 W 0.88682(7) 0.04957(8) 0.36562(6)
W22 W 0.82652(8) 0.25371(8) 0.19492(6)
Pr1 Pr 0.77091(9) 0.22262(10) 0.51141(7)
Cu1 Cu 0.4748(2) -0.2095(2) 0.03846(17)
Cu2 Cu 1.0000 0.5000 0.5000
Cu4 Cu 1.0000 0.0000 0.5000
N1 N 1.0034(19) 0.5740(19) 0.4497(13)
H1 H 1.0571 0.5896 0.4457
H2 H 0.9795 0.5470 0.4068
N2 N 0.9287(18) 0.5775(17) 0.5656(13)
H3 H 0.9597 0.6108 0.6038
H4 H 0.8878 0.5503 0.5785
N3 N 0.9876(16) -0.1238(17) 0.4543(13)
H5 H 0.9866 -0.1404 0.4079
H6 H 1.0324 -0.1430 0.4669
N4 N 0.8772(14) -0.013(2) 0.5196(14)
H7 H 0.8478 0.0171 0.5032
H8 H 0.8718 0.0068 0.5657
N7 N 0.4541(16) -0.3081(17) 0.0601(15)
H13 H 0.4678 -0.2949 0.1051
H14 H 0.3994 -0.3262 0.0522
N8 N 0.5442(16) -0.2796(16) -0.0354(12)
H15 H 0.5314 -0.2755 -0.0754
H16 H 0.5988 -0.2627 -0.0240
N9 N 0.4163(14) -0.1297(15) 0.1157(11)
H17 H 0.3727 -0.1561 0.1267
H18 H 0.4519 -0.1069 0.1532
N10 N 0.4922(15) -0.1151(16) 0.0110(12)
H19 H 0.5475 -0.1038 0.0084
H20 H 0.4676 -0.1289 -0.0313
N15 N 0.395(2) 0.3128(18) 0.3284(12)
N16 N 0.213(3) 0.164(3) 0.198(2)
C1 C 0.958(3) 0.647(3) 0.488(2)
C2 C 0.891(2) 0.627(2) 0.5314(19)
C3 C 0.909(2) -0.158(3) 0.4741(19)
C4 C 0.843(2) -0.096(2) 0.488(2)
C7 C 0.505(3) -0.372(2) 0.0162(18)
H33 H 0.5554 -0.3712 0.0428
H34 H 0.4738 -0.4244 0.0036
C8 C 0.529(3) -0.364(2) -0.0445(19)
H35 H 0.4853 -0.3911 -0.0805
H36 H 0.5798 -0.3913 -0.0599
C9 C 0.385(2) -0.065(2) 0.0983(17)
H37 H 0.3736 -0.0189 0.1399
H38 H 0.3346 -0.0852 0.0686
C10 C 0.4572(16) -0.0426(18) 0.0604(13)
H39 H 0.4364 -0.0116 0.0360
H40 H 0.5010 -0.0084 0.0939
C15 C 0.340(4) 0.240(3) 0.283(3)
C16 C 0.251(4) 0.236(3) 0.257(3)
Na1 Na 0.4442(11) 0.4020(9) 0.4157(9)
Na1A Na 0.5558(11) 0.5980(9) 0.5843(9)
N1A N 0.9966(19) 0.4260(19) 0.5503(13)
N2A N 1.0713(18) 0.4225(17) 0.4344(13)
O39A O 1.1283(12) 0.5769(14) 0.5729(10)
N3A N 1.0124(16) 0.1238(17) 0.5457(13)
N4A N 1.1228(14) 0.013(2) 0.4804(14)
O43A O 1.0322(10) -0.0015(11) 0.6193(9)
W11A W 0.28599(7) 0.53939(7) 0.38160(6)
O24A O 0.2472(10) 0.5525(11) 0.2710(8)
O26A O 0.3527(10) 0.6614(11) 0.2708(8)
O28A O 0.2308(10) 0.6103(11) 0.1840(8)
O30A O 0.2075(10) 0.6942(12) 0.3111(8)
O64A O 0.1774(10) 0.4768(12) 0.3420(8)
O75A O 0.0389(12) 0.3992(14) 0.2556(10)
O77A O 0.1007(11) 0.4845(12) 0.1761(9)
O78A O 0.2000(11) 0.3951(12) 0.2100(9)
O91A O 0.0776(11) 0.5695(12) 0.3089(9)
P2A P 0.2588(4) 0.6299(4) 0.2605(3)
W16A W 0.12085(7) 0.46732(8) 0.25994(6)
O63A O 0.3312(11) 0.4466(11) 0.2997(8)
O89A O 0.3904(10) 0.5956(11) 0.3740(8)
W1A W 0.06107(7) 0.68143(8) 0.32789(6)
W2A W 0.31835(7) 0.42436(7) 0.20523(6)
W3A W 0.28582(7) 0.51655(8) 0.07875(5)
W4A W 0.19808(7) 0.83110(7) 0.32583(5)
W7A W 0.41278(7) 0.78271(7) 0.26092(6)
W8A W 0.43758(7) 0.69807(7) 0.37877(5)
W9A W 0.22891(7) 0.71237(8) 0.13653(6)
W10A W 0.47064(7) 0.58866(8) 0.20317(6)
W12A W 0.08841(7) 0.56018(8) 0.13615(6)
O66A O -0.0456(11) 0.6796(12) 0.3315(9)
O67A O 0.0849(11) 0.7825(11) 0.3187(8)
O76A O 0.0592(11) 0.6327(11) 0.2187(8)
O84A O 0.3580(12) 0.3304(14) 0.1678(10)
O85A O 0.2857(11) 0.4471(11) 0.1268(9)
O92A O 0.4143(11) 0.4964(12) 0.2134(9)
O70A O 0.2754(11) 0.6157(12) 0.0677(8)
O71A O 0.3146(12) 0.4548(13) -0.0021(10)
O80A O 0.1691(11) 0.4962(14) 0.0683(9)
O86A O 0.3904(11) 0.5638(13) 0.1280(9)
O65A O 0.1787(11) 0.9240(13) 0.3292(9)
O68A O 0.1869(11) 0.7737(12) 0.2183(9)
O74A O 0.3149(10) 0.8276(11) 0.3091(8)
O72A O 0.4800(11) 0.6964(12) 0.2073(9)
O73A O 0.4650(11) 0.8648(12) 0.2564(9)
O87A O 0.3396(10) 0.7450(11) 0.1779(8)
O88A O 0.4625(10) 0.7828(12) 0.3423(9)
O82A O 0.5047(11) 0.6305(11) 0.2962(9)
O83A O 0.5159(12) 0.7234(12) 0.4416(10)
O69A O 0.2224(11) 0.7712(14) 0.0882(9)
O90A O 0.1233(11) 0.6454(13) 0.1067(9)
O81A O 0.5617(12) 0.5527(13) 0.1636(9)
O79A O -0.0028(12) 0.5231(13) 0.0908(10)
O62A O 0.6892(11) 0.4960(13) 0.5579(9)
O7A O 0.630(3) 0.672(4) 0.531(3)
O9A O 0.477(2) 0.527(3) 0.649(3)
O33A O 0.4367(11) 0.6475(12) 0.5684(10)
N15A N 0.605(2) 0.6872(18) 0.6716(12)
H1A H 0.9429 0.4104 0.5543
H2A H 1.0205 0.4530 0.5932
C1A C 1.042(3) 0.353(3) 0.512(2)
H3A H 1.0403 0.3892 0.3962
H4A H 1.1122 0.4497 0.4215
C2A C 1.109(2) 0.373(2) 0.4686(19)
W18A W 1.16125(7) 0.67601(8) 0.62435(6)
H5A H 1.0134 0.1404 0.5921
H6A H 0.9676 0.1430 0.5331
C3A C 1.091(2) 0.158(3) 0.5259(19)
H7A H 1.1522 -0.0171 0.4968
H8A H 1.1282 -0.0068 0.4343
C4A C 1.157(2) 0.096(2) 0.512(2)
W21A W 1.11318(7) -0.04957(8) 0.63438(6)
O1A O 0.2392(11) 0.6297(12) 0.4284(9)
O12A O 0.0969(11) 0.7197(13) 0.4147(8)
O10A O 0.2134(11) 0.8510(12) 0.4137(9)
O14A O 0.3551(11) 0.7545(11) 0.4225(9)
loop_
_geom_bond_atom_site_label_1
_geom_bond_atom_site_label_2
_geom_bond_site_symmetry_1
_geom_bond_site_symmetry_2
O1 W11 1_555 1_555
O2 W21 1_555 1_555
O3 Na1 1_555 1_555
O4 W19 1_555 1_555
O5 Cu5 1_555 1_555
O6 W17 1_555 1_555
O7 Na1 1_555 1_555
O8 W18 1_555 1_555
O9 Na1 1_555 1_555
O10 W4 1_555 1_555
O11 Cu1 1_555 1_555
O12 W1 1_555 1_555
O14 W8 1_555 1_555
O16 P1 1_555 1_555
O18 P1 1_555 1_555
O20 P1 1_555 1_555
O22 P1 1_555 1_555
O24 P2 1_555 1_555
O26 P2 1_555 1_555
O28 P2 1_555 1_555
O30 P2 1_555 1_555
O31 W14 1_555 1_555
O32 W14 1_555 1_555
O33 W17 1_555 1_555
O34 W13 1_555 1_555
O35 W13 1_555 1_555
O36 W22 1_555 1_555
O37 W14 1_555 1_555
O38 W18 1_555 1_555
O39 W18 1_555 1_555
O40 W20 1_555 1_555
O41 W20 1_555 1_555
O42 W6 1_555 1_555
O43 W21 1_555 1_555
O44 W19 1_555 1_555
O45 W20 1_555 1_555
O46 W18 1_555 1_555
O47 W6 1_555 1_555
O48 W6 1_555 1_555
O49 W13 1_555 1_555
O50 W6 1_555 1_555
O51 W14 1_555 1_555
O52 W15 1_555 1_555
O53 W15 1_555 1_555
O54 W17 1_555 1_555
O55 W5 1_555 1_555
O56 W5 1_555 1_555
O57 W15 1_555 1_555
O58 W19 1_555 1_555
O59 W5 1_555 1_555
O60 W5 1_555 1_555
O61 W5 1_555 1_555
O62 Na1 1_555 1_555
O63 W2 1_555 1_555
O64 W11 1_555 1_555
O65 W4 1_555 1_555
O66 W1 1_555 1_555
O67 W1 1_555 1_555
O68 W4 1_555 1_555
O69 W9 1_555 1_555
O70 W3 1_555 1_555
O71 W3 1_555 1_555
O72 W7 1_555 1_555
O73 W7 1_555 1_555
O74 W4 1_555 1_555
O75 W16 1_555 1_555
O76 W1 1_555 1_555
O77 W12 1_555 1_555
O78 W2 1_555 1_555
O79 W12 1_555 1_555
O80 W3 1_555 1_555
O81 W10 1_555 1_555
O82 W8 1_555 1_555
O83 W8 1_555 1_555
O84 W2 1_555 1_555
O85 W2 1_555 1_555
O86 W3 1_555 1_555
O87 W7 1_555 1_555
O88 W7 1_555 1_555
O89 W8 1_555 1_555
O90 W9 1_555 1_555
O91 W1 1_555 1_555
O92 W2 1_555 1_555
W1 O30 1_555 1_555
W2 O24 1_555 1_555
W3 O28 1_555 1_555
W4 O30 1_555 1_555
W5 O18 1_555 1_555
W6 O18 1_555 1_555
W7 O26 1_555 1_555
W8 O26 1_555 1_555
W9 O28 1_555 1_555
W10 O26 1_555 1_555
W11 O24 1_555 1_555
W12 O28 1_555 1_555
W13 O18 1_555 1_555
W14 O20 1_555 1_555
W15 O20 1_555 1_555
W16 O24 1_555 1_555
W17 O20 1_555 1_555
W18 O16 1_555 1_555
W19 O22 1_555 1_555
W20 O16 1_555 1_555
W21 O22 1_555 1_555
W22 O16 1_555 1_555
Pr1 O1 1_555 1_555
Cu1 O60 1_555 1_555
Cu2 O39 1_555 1_555
Cu3 N5 1_555 1_555
Cu4 O43 1_555 1_555
Cu5 N11 1_555 1_555
N1 Cu2 1_555 1_555
H1 N1 1_555 1_555
H2 N1 1_555 1_555
N2 Cu2 1_555 1_555
H3 N2 1_555 1_555
H4 N2 1_555 1_555
N3 Cu4 1_555 1_555
H5 N3 1_555 1_555
H6 N3 1_555 1_555
N4 Cu4 1_555 1_555
H7 N4 1_555 1_555
H8 N4 1_555 1_555
N5 H9 1_555 1_555
H10 N5 1_555 1_555
N6 Cu3 1_555 1_555
H11 N6 1_555 1_555
H12 N6 1_555 1_555
N7 Cu1 1_555 1_555
H13 N7 1_555 1_555
H14 N7 1_555 1_555
N8 Cu1 1_555 1_555
H15 N8 1_555 1_555
H16 N8 1_555 1_555
N9 Cu1 1_555 1_555
H17 N9 1_555 1_555
H18 N9 1_555 1_555
N10 Cu1 1_555 1_555
H19 N10 1_555 1_555
H20 N10 1_555 1_555
N11 H21 1_555 1_555
H22 N11 1_555 1_555
N12 Cu5 1_555 1_555
H23 N12 1_555 1_555
H24 N12 1_555 1_555
N13 Cu5 1_555 1_555
H25 N13 1_555 1_555
H26 N13 1_555 1_555
N14 Cu5 1_555 1_555
H27 N14 1_555 1_555
H28 N14 1_555 1_555
N15 C15 1_555 1_555
N16 C16 1_555 1_555
C1 N1 1_555 1_555
C2 N2 1_555 1_555
C3 N3 1_555 1_555
C4 N4 1_555 1_555
C5 N5 1_555 1_555
H29 C5 1_555 1_555
H30 C5 1_555 1_555
C6 N6 1_555 1_555
H31 C6 1_555 1_555
H32 C6 1_555 1_555
C7 N7 1_555 1_555
H33 C7 1_555 1_555
H34 C7 1_555 1_555
C8 N8 1_555 1_555
H35 C8 1_555 1_555
H36 C8 1_555 1_555
C9 N9 1_555 1_555
H37 C9 1_555 1_555
H38 C9 1_555 1_555
C10 N10 1_555 1_555
H39 C10 1_555 1_555
H40 C10 1_555 1_555
C11 N11 1_555 1_555
H41 C11 1_555 1_555
H42 C11 1_555 1_555
C12 N12 1_555 1_555
H43 C12 1_555 1_555
H44 C12 1_555 1_555
C13 N13 1_555 1_555
H45 C13 1_555 1_555
H46 C13 1_555 1_555
C14 N14 1_555 1_555
H47 C14 1_555 1_555
H48 C14 1_555 1_555
C15 C16 1_555 1_555
Na1 O33 1_555 1_555
Na1A O3 1_555 1_555
N1A Cu2 1_555 1_555
N2A Cu2 1_555 1_555
O39A Cu2 1_555 1_555
N5A Cu3 1_555 1_555
N6A Cu3 1_555 1_555
N3A Cu4 1_555 1_555
N4A Cu4 1_555 1_555
O43A Cu4 1_555 1_555
W11A O62 1_555 1_555
O24A W11A 1_555 1_555
O26A P2A 1_555 1_555
O28A P2A 1_555 1_555
O30A P2A 1_555 1_555
O64A W11A 1_555 1_555
O75A W16A 1_555 1_555
O77A W16A 1_555 1_555
O78A W16A 1_555 1_555
O91A W16A 1_555 1_555
P2A O24A 1_555 1_555
W16A O24A 1_555 1_555
O63A W11A 1_555 1_555
O89A W11A 1_555 1_555
W1A O30A 1_555 1_555
W2A O24A 1_555 1_555
W3A O28A 1_555 1_555
W4A O30A 1_555 1_555
W7A O26A 1_555 1_555
W8A O26A 1_555 1_555
W9A O28A 1_555 1_555
W10A O26A 1_555 1_555
W12A O28A 1_555 1_555
O66A W1A 1_555 1_555
O67A W1A 1_555 1_555
O76A W1A 1_555 1_555
O84A W2A 1_555 1_555
O85A W2A 1_555 1_555
O92A W2A 1_555 1_555
O70A W3A 1_555 1_555
O71A W3A 1_555 1_555
O80A W3A 1_555 1_555
O86A W3A 1_555 1_555
O65A W4A 1_555 1_555
O68A W4A 1_555 1_555
O74A W4A 1_555 1_555
O72A W7A 1_555 1_555
O73A W7A 1_555 1_555
O87A W7A 1_555 1_555
O88A W7A 1_555 1_555
O82A W8A 1_555 1_555
O83A W8A 1_555 1_555
O69A W9A 1_555 1_555
O90A W9A 1_555 1_555
O81A W10A 1_555 1_555
O79A W12A 1_555 1_555
O62A W11 1_555 1_555
O7A Na1A 1_555 1_555
O9A Na1A 1_555 1_555
O33A Na1A 1_555 1_555
N15A Na1A 1_555 1_555
H1A N1A 1_555 1_555
H2A N1A 1_555 1_555
C1A N1A 1_555 1_555
H3A N2A 1_555 1_555
H4A N2A 1_555 1_555
C2A N2A 1_555 1_555
W18A O39A 1_555 1_555
H9A N5A 1_555 1_555
H10A N5A 1_555 1_555
C5A N5A 1_555 1_555
H11A N6A 1_555 1_555
H12A N6A 1_555 1_555
C6A N6A 1_555 1_555
H5A N3A 1_555 1_555
H6A N3A 1_555 1_555
C3A N3A 1_555 1_555
H7A N4A 1_555 1_555
H8A N4A 1_555 1_555
C4A N4A 1_555 1_555
W21A O43A 1_555 1_555
O1A W11A 1_555 1_555
O12A W1A 1_555 1_555
O10A W4A 1_555 1_555
O14A W8A 1_555 1_555
H29A C5A 1_555 1_555
H30A C5A 1_555 1_555
H31A C6A 1_555 1_555
H32A C6A 1_555 1_555
O2 Pr1 1_555 1_555
O4 Pr1 1_555 1_555
O6 Pr1 1_555 1_555
O8 Pr1 1_555 1_555
O10 Pr1 1_555 1_555
O12 Pr1 1_555 1_555
O14 Pr1 1_555 1_555
O32 W17 1_555 1_555
O34 W14 1_555 1_555
O37 W22 1_555 1_555
O38 W22 1_555 1_555
O40 W22 1_555 1_555
O42 W21 1_555 1_555
O44 W21 1_555 1_555
O45 W21 1_555 1_555
O46 W20 1_555 1_555
O48 W13 1_555 1_555
O49 W22 1_555 1_555
O50 W20 1_555 1_555
O51 W15 1_555 1_555
O53 W17 1_555 1_555
O54 W18 1_555 1_555
O55 W19 1_555 1_555
O56 W15 1_555 1_555
O57 W19 1_555 1_555
O59 W13 1_555 1_555
O61 W6 1_555 1_555
O63 W11 1_555 1_555
O64 W16 1_555 1_555
O67 W4 1_555 1_555
O68 W9 1_555 1_555
O70 W9 1_555 1_555
O72 W10 1_555 1_555
O74 W7 1_555 1_555
O76 W12 1_555 1_555
O77 W16 1_555 1_555
O78 W16 1_555 1_555
O80 W12 1_555 1_555
O82 W10 1_555 1_555
O85 W3 1_555 1_555
O86 W10 1_555 1_555
O87 W9 1_555 1_555
O88 W8 1_555 1_555
O89 W11 1_555 1_555
O90 W12 1_555 1_555
O91 W16 1_555 1_555
O92 W10 1_555 1_555
N15 Na1 1_555 1_555
C1 C2 1_555 1_555
C3 C4 1_555 1_555
C5 C6 1_555 1_555
C7 C8 1_555 1_555
C9 C10 1_555 1_555
C11 C12 1_555 1_555
C13 C14 1_555 1_555
Na1A O62A 1_555 1_555
O64A W16A 1_555 1_555
O77A W12A 1_555 1_555
O78A W2A 1_555 1_555
O91A W1A 1_555 1_555
O63A W2A 1_555 1_555
O89A W8A 1_555 1_555
W3A O85A 1_555 1_555
W4A O67A 1_555 1_555
W7A O74A 1_555 1_555
W8A O88A 1_555 1_555
W9A O70A 1_555 1_555
W9A O68A 1_555 1_555
W9A O87A 1_555 1_555
W10A O72A 1_555 1_555
W10A O82A 1_555 1_555
W10A O86A 1_555 1_555
W10A O92A 1_555 1_555
W12A O76A 1_555 1_555
W12A O80A 1_555 1_555
W12A O90A 1_555 1_555
C1A C2A 1_555 1_555
C5A C6A 1_555 1_555
C3A C4A 1_555 1_555

#END
