
#######################################################################
#
#                 Cambridge Crystallographic Data Centre
#                                CCDC 
#
#######################################################################
#
# If this CIF has been generated from an entry in the Cambridge 
# Structural Database, then it will include bibliographic, chemical, 
# crystal, experimental, refinement or atomic coordinate data resulting 
# from the CCDC's data processing and validation procedures.
#
#######################################################################

data_TAKJUL
_symmetry_cell_setting           monoclinic
_symmetry_space_group_name_H-M   'A 2/a'
_symmetry_Int_Tables_number      15
_space_group_name_Hall           '-A 2yn'
loop_
_symmetry_equiv_pos_site_id
_symmetry_equiv_pos_as_xyz
1 x,y,z
2 1/2-x,y,-z
3 x,1/2+y,1/2+z
4 1/2-x,1/2+y,1/2-z
5 -x,-y,-z
6 1/2+x,-y,z
7 -x,1/2-y,1/2-z
8 1/2+x,1/2-y,1/2+z
_cell_length_a                   24.812(6)
_cell_length_b                   8.855(3)
_cell_length_c                   12.080(2)
_cell_angle_alpha                90
_cell_angle_beta                 90
_cell_angle_gamma                89.21(3)
_cell_volume                     2653.85
loop_
_atom_site_label
_atom_site_type_symbol
_atom_site_fract_x
_atom_site_fract_y
_atom_site_fract_z
Cu1 Cu 0.16150(2) 0.05745(5) 0.27482(4)
Cu2 Cu 0.00838(2) -0.00914(7) 0.11327(5)
Cl1 Cl 0.20222(4) 0.0003(1) 0.11182(9)
Cl2 Cl 0.07129(4) -0.0562(1) 0.24396(9)
Cl3 Cl -0.01006(4) -0.2148(1) -0.00747(8)
N1 N 0.1402(1) 0.2905(3) 0.2560(2)
N2 N 0.1215(1) 0.4933(3) 0.1244(2)
N3 N 0.1638(1) 0.5505(3) 0.3006(3)
N4 N 0.0698(1) 0.4785(3) 0.2942(3)
C1 C 0.1382(2) 0.3295(4) 0.1381(3)
C2 C 0.1625(1) 0.5922(4) 0.1855(3)
C3 C 0.1794(1) 0.3912(4) 0.3104(3)
C4 C 0.0860(2) 0.3189(4) 0.3050(3)
C5 C 0.0662(1) 0.5195(4) 0.1792(3)
C6 C 0.1105(2) 0.5723(4) 0.3506(3)
C7 C 0.1169(2) 0.5334(5) 0.0029(3)
C8 C 0.1713(1) 0.5380(4) -0.0542(3)
C9 C 0.1943(2) 0.4173(5) -0.1062(3)
H1 H 0.114(2) 0.269(5) 0.095(4)
H2 H 0.174(2) 0.322(5) 0.100(4)
H3 H 0.198(2) 0.563(5) 0.149(4)
H4 H 0.148(2) 0.702(5) 0.175(4)
H5 H 0.214(2) 0.375(5) 0.274(4)
H6 H 0.187(2) 0.361(6) 0.394(4)
H7 H 0.086(2) 0.294(5) 0.376(4)
H8 H 0.064(2) 0.244(5) 0.266(4)
H9 H 0.044(2) 0.454(6) 0.141(5)
H10 H 0.057(2) 0.629(5) 0.167(4)
H11 H 0.113(2) 0.535(5) 0.429(4)
H12 H 0.100(2) 0.687(5) 0.339(4)
H13 H 0.102(2) 0.619(6) -0.002(4)
H14 H 0.095(2) 0.443(5) -0.039(4)
H15 H 0.197(2) 0.617(5) -0.027(4)
H16 H 0.235(2) 0.416(5) -0.122(4)
H17 H 0.181(2) 0.323(5) -0.118(4)
C8B C 0.1713(1) 0.0380(4) 0.4458(3)
C9B C 0.1943(2) -0.0827(5) 0.3938(3)
Cl3D Cl 0.01006(4) 0.2148(1) 0.00747(8)
N4F N -0.0698(1) 0.0215(3) 0.2058(3)
Cu2D Cu -0.00838(2) 0.00914(7) -0.11327(5)
Cu2F Cu -0.00838(2) 0.50914(7) 0.38673(5)
Cu1B Cu 0.16150(2) 0.55745(5) -0.22518(4)
H15B H 0.197(2) 0.117(5) 0.473(4)
H16B H 0.235(2) -0.084(5) 0.378(4)
H17B H 0.181(2) -0.177(5) 0.382(4)
loop_
_geom_bond_atom_site_label_1
_geom_bond_atom_site_label_2
_geom_bond_site_symmetry_1
_geom_bond_site_symmetry_2
Cu1 Cl1 1_555 1_555
Cu2 Cl2 1_555 1_555
Cl2 Cu1 1_555 1_555
Cl3 Cu2 1_555 1_555
N1 Cu1 1_555 1_555
N2 C1 1_555 1_555
N3 C2 1_555 1_555
N4 C4 1_555 1_555
C1 N1 1_555 1_555
C2 N2 1_555 1_555
C3 N1 1_555 1_555
C4 N1 1_555 1_555
C5 N2 1_555 1_555
C6 N3 1_555 1_555
C7 N2 1_555 1_555
C8 C7 1_555 1_555
C9 C8 1_555 1_555
H1 C1 1_555 1_555
H2 C1 1_555 1_555
H3 C2 1_555 1_555
H4 C2 1_555 1_555
H5 C3 1_555 1_555
H6 C3 1_555 1_555
H7 C4 1_555 1_555
H8 C4 1_555 1_555
H9 C5 1_555 1_555
H10 C5 1_555 1_555
H11 C6 1_555 1_555
H12 C6 1_555 1_555
H13 C7 1_555 1_555
H14 C7 1_555 1_555
H15 C8 1_555 1_555
H16 C9 1_555 1_555
H17 C9 1_555 1_555
C8B Cu1 1_555 1_555
C9B Cu1 1_555 1_555
Cl3D Cu2 1_555 1_555
N4F Cu2 1_555 1_555
Cu2D Cl3 1_555 1_555
Cu2F N4 1_555 1_555
Cu1B C8 1_555 1_555
H15B C8B 1_555 1_555
H16B C9B 1_555 1_555
H17B C9B 1_555 1_555
N3 C3 1_555 1_555
N4 C5 1_555 1_555
N4 C6 1_555 1_555
C9 Cu1B 1_555 1_555
C8B C9B 1_555 1_555
Cl3D Cu2D 1_555 1_555

#END
