
#######################################################################
#
#                 Cambridge Crystallographic Data Centre
#                                CCDC 
#
#######################################################################
#
# If this CIF has been generated from an entry in the Cambridge 
# Structural Database, then it will include bibliographic, chemical, 
# crystal, experimental, refinement or atomic coordinate data resulting 
# from the CCDC's data processing and validation procedures.
#
#######################################################################

data_TAKKAS
_symmetry_cell_setting           triclinic
_symmetry_space_group_name_H-M   'P -1'
_symmetry_Int_Tables_number      2
_space_group_name_Hall           '-P 1'
loop_
_symmetry_equiv_pos_site_id
_symmetry_equiv_pos_as_xyz
1 x,y,z
2 -x,-y,-z
_cell_length_a                   7.618(2)
_cell_length_b                   7.048(2)
_cell_length_c                   13.150(3)
_cell_angle_alpha                97.50(2)
_cell_angle_beta                 92.70(2)
_cell_angle_gamma                100.74(2)
_cell_volume                     685.891
loop_
_atom_site_label
_atom_site_type_symbol
_atom_site_fract_x
_atom_site_fract_y
_atom_site_fract_z
Cu1 Cu 0.4096(1) 0.0755(1) 0.40294(6)
Cu2 Cu 0.5175(1) 0.0425(1) 0.11359(6)
Cl1 Cl 0.4463(2) -0.1192(2) 0.2522(1)
Cl2 Cl 0.6951(2) 0.1845(2) 0.4817(1)
Cl3 Cl 0.3116(2) 0.1353(2) 0.0079(1)
N1 N -0.2676(6) 0.2937(7) 0.1699(4)
N2 N 0.0409(6) 0.3648(6) 0.2431(3)
N3 N -0.1538(6) 0.5931(7) 0.2863(4)
N4 N -0.0548(6) 0.5536(6) 0.1150(4)
C1 C -0.1235(7) 0.2055(8) 0.2071(4)
C2 C -0.0087(8) 0.5115(8) 0.3265(4)
C3 C -0.0983(8) 0.6914(8) 0.1970(5)
C4 C -0.3090(7) 0.4398(8) 0.2533(5)
C5 C -0.2099(8) 0.3998(8) 0.0828(4)
C6 C 0.0914(7) 0.4717(8) 0.1501(4)
C7 C 0.1996(7) 0.2798(9) 0.2766(5)
C8 C 0.1766(8) 0.1877(8) 0.3729(5)
C9 C 0.262(1) 0.278(1) 0.4642(5)
H1 H -0.090(7) 0.119(8) 0.147(4)
H2 H -0.141(7) 0.148(8) 0.271(4)
H3 H 0.100(7) 0.622(7) 0.343(4)
H4 H -0.050(7) 0.423(8) 0.380(4)
H5 H -0.004(7) 0.779(7) 0.216(4)
H6 H -0.182(9) 0.752(9) 0.161(5)
H7 H -0.408(8) 0.479(8) 0.217(5)
H8 H -0.359(6) 0.372(7) 0.306(4)
H9 H -0.321(6) 0.447(7) 0.057(4)
H10 H -0.184(8) 0.294(8) 0.024(5)
H11 H 0.211(9) 0.57(1) 0.174(6)
H12 H 0.130(7) 0.385(8) 0.103(4)
H13 H 0.294(6) 0.395(7) 0.296(4)
H14 H 0.226(8) 0.177(8) 0.210(5)
H15 H 0.085(6) 0.092(7) 0.377(4)
H16 H 0.349(6) 0.420(6) 0.465(3)
H17 H 0.253(9) 0.258(9) 0.521(5)
Cl2A Cl 0.3049(2) -0.1845(2) 0.5183(1)
Cl3A Cl 0.6884(2) -0.1353(2) -0.0079(1)
N1_2 N 0.7324(6) 0.2937(7) 0.1699(4)
Cu1A Cu 0.5904(1) -0.0755(1) 0.59706(6)
Cu2A Cu 0.4825(1) -0.0425(1) -0.11359(6)
Cu2_2 Cu -0.4825(1) 0.0425(1) 0.11359(6)
loop_
_geom_bond_atom_site_label_1
_geom_bond_atom_site_label_2
_geom_bond_site_symmetry_1
_geom_bond_site_symmetry_2
Cu1 Cl1 1_555 1_555
Cu2 Cl1 1_555 1_555
Cl2 Cu1 1_555 1_555
Cl3 Cu2 1_555 1_555
N1 C1 1_555 1_555
N2 C1 1_555 1_555
N3 C2 1_555 1_555
N4 C3 1_555 1_555
C1 H1 1_555 1_555
C2 N2 1_555 1_555
C3 N3 1_555 1_555
C4 N1 1_555 1_555
C5 N1 1_555 1_555
C6 N2 1_555 1_555
C7 N2 1_555 1_555
C8 Cu1 1_555 1_555
C9 Cu1 1_555 1_555
H2 C1 1_555 1_555
H3 C2 1_555 1_555
H4 C2 1_555 1_555
H5 C3 1_555 1_555
H6 C3 1_555 1_555
H7 C4 1_555 1_555
H8 C4 1_555 1_555
H9 C5 1_555 1_555
H10 C5 1_555 1_555
H11 C6 1_555 1_555
H12 C6 1_555 1_555
H13 C7 1_555 1_555
H14 C7 1_555 1_555
H15 C8 1_555 1_555
H16 C9 1_555 1_555
H17 C9 1_555 1_555
Cl2A Cu1 1_555 1_555
Cl3A Cu2 1_555 1_555
N1_2 Cu2 1_555 1_555
Cu1A Cl2 1_555 1_555
Cu2A Cl3 1_555 1_555
Cu2_2 N1 1_555 1_555
N3 C4 1_555 1_555
N4 C5 1_555 1_555
N4 C6 1_555 1_555
C7 C8 1_555 1_555
C8 C9 1_555 1_555
Cl2A Cu1A 1_555 1_555
Cl3A Cu2A 1_555 1_555

#END
