
#######################################################################
#
#                 Cambridge Crystallographic Data Centre
#                                CCDC 
#
#######################################################################
#
# If this CIF has been generated from an entry in the Cambridge 
# Structural Database, then it will include bibliographic, chemical, 
# crystal, experimental, refinement or atomic coordinate data resulting 
# from the CCDC's data processing and validation procedures.
#
#######################################################################

data_TAKLAU
_symmetry_cell_setting           monoclinic
_symmetry_space_group_name_H-M   'P 21/n'
_symmetry_Int_Tables_number      14
_space_group_name_Hall           '-P 2yn'
loop_
_symmetry_equiv_pos_site_id
_symmetry_equiv_pos_as_xyz
1 x,y,z
2 1/2-x,1/2+y,1/2-z
3 -x,-y,-z
4 1/2+x,1/2-y,1/2+z
_cell_length_a                   11.759(2)
_cell_length_b                   16.025(3)
_cell_length_c                   12.652(2)
_cell_angle_alpha                90
_cell_angle_beta                 117.73(3)
_cell_angle_gamma                90
_cell_volume                     2110.3
loop_
_atom_site_label
_atom_site_type_symbol
_atom_site_fract_x
_atom_site_fract_y
_atom_site_fract_z
Si1 Si 0.59645(13) 0.18443(9) -0.40270(11)
Si2 Si 0.50269(12) 0.32087(9) -0.04970(10)
N1 N 0.5816(3) 0.1937(2) -0.2763(3)
N2 N 0.2962(3) 0.3920(2) -0.4776(3)
N3 N 0.5500(3) 0.2528(2) -0.1242(3)
N4 N 0.4869(4) 0.0349(3) -0.1490(3)
C1 C 0.6524(5) 0.2797(3) -0.4498(5)
H1 H 0.5897 0.3240 -0.4682
H2 H 0.6622 0.2671 -0.5201
H3 H 0.7343 0.2975 -0.3856
C2 C 0.7206(4) 0.1024(3) -0.3682(4)
H4 H 0.8011 0.1207 -0.3024
H5 H 0.7327 0.0925 -0.4379
H6 H 0.6929 0.0512 -0.3462
C3 C 0.4448(5) 0.1497(4) -0.5316(4)
H7 H 0.3793 0.1922 -0.5503
H8 H 0.4164 0.0980 -0.5116
H9 H 0.4592 0.1409 -0.6002
C4 C 0.5412(4) 0.2563(3) -0.2335(4)
C5 C 0.4815(3) 0.3317(3) -0.3099(3)
C6 C 0.3592(4) 0.3279(3) -0.4044(3)
H10 H 0.3162 0.2764 -0.4192
C7 C 0.3607(4) 0.4652(3) -0.4543(4)
H11 H 0.3198 0.5113 -0.5033
C8 C 0.4794(4) 0.4754(3) -0.3653(4)
H12 H 0.5202 0.5276 -0.3528
C9 C 0.5423(4) 0.4088(3) -0.2913(4)
H13 H 0.6260 0.4156 -0.2286
C10 C 0.3319(4) 0.3516(3) -0.1327(3)
H14 H 0.3173 0.3805 -0.2053
H15 H 0.3106 0.3881 -0.0835
H16 H 0.2784 0.3021 -0.1530
C11 C 0.6055(4) 0.4178(3) -0.0021(4)
H17 H 0.6953 0.4020 0.0417
H18 H 0.5822 0.4515 0.0485
H19 H 0.5919 0.4497 -0.0722
C12 C 0.5268(5) 0.2679(3) 0.0886(4)
H20 H 0.6160 0.2513 0.1339
H21 H 0.4723 0.2189 0.0686
H22 H 0.5047 0.3058 0.1361
C13 C 0.4964(5) -0.0218(3) -0.0532(3)
H23 H 0.5731 -0.0566 -0.0283
H24 H 0.4215 -0.0588 -0.0853
C14 C 0.3622(4) 0.0768(3) -0.2034(4)
H25 H 0.3577 0.1145 -0.2652
H26 H 0.3519 0.1082 -0.1429
H27 H 0.2944 0.0355 -0.2383
C15 C 0.4998(5) -0.0154(3) -0.2415(4)
H28 H 0.4929 0.0210 -0.3055
H29 H 0.4321 -0.0569 -0.2732
H30 H 0.5827 -0.0429 -0.2061
Li1 Li 0.6171(6) 0.1338(5) -0.1169(6)
Si1C Si 1.09645(13) 0.31557(9) 0.09730(11)
Si2C Si 1.00269(12) 0.17913(9) 0.45030(10)
N1C N 1.0816(3) 0.3063(2) 0.2237(3)
N2C N 0.7962(3) 0.1080(2) 0.0224(3)
N2_2 N 1.2962(3) 0.3920(2) 0.5224(3)
N3C N 1.0500(3) 0.2472(2) 0.3758(3)
N4B N 0.5131(4) -0.0349(3) 0.1490(3)
N4C N 0.9869(4) 0.4651(3) 0.3510(3)
C1C C 1.1524(5) 0.2203(3) 0.0502(5)
H1C H 1.0897 0.1760 0.0318
H2C H 1.1622 0.2329 -0.0201
H3C H 1.2343 0.2025 0.1144
C2C C 1.2206(4) 0.3976(3) 0.1318(4)
H4C H 1.3011 0.3793 0.1976
H5C H 1.2327 0.4075 0.0621
H6C H 1.1929 0.4488 0.1538
C3C C 0.9448(5) 0.3503(4) -0.0316(4)
H7C H 0.8793 0.3078 -0.0503
H8C H 0.9164 0.4020 -0.0116
H9C H 0.9592 0.3591 -0.1002
C4C C 1.0412(4) 0.2437(3) 0.2665(4)
C5C C 0.9815(3) 0.1683(3) 0.1901(3)
C6C C 0.8592(4) 0.1721(3) 0.0956(3)
H10C H 0.8162 0.2236 0.0808
C7C C 0.8607(4) 0.0348(3) 0.0457(4)
H11C H 0.8198 -0.0113 -0.0033
C8C C 0.9794(4) 0.0246(3) 0.1347(4)
H12C H 1.0202 -0.0276 0.1472
C9C C 1.0423(4) 0.0912(3) 0.2087(4)
H13C H 1.1260 0.0844 0.2714
C10C C 0.8319(4) 0.1484(3) 0.3673(3)
H14C H 0.8173 0.1195 0.2947
H15C H 0.8106 0.1119 0.4165
H16C H 0.7784 0.1979 0.3470
C11C C 1.1055(4) 0.0822(3) 0.4979(4)
H17C H 1.1953 0.0980 0.5417
H18C H 1.0822 0.0485 0.5485
H19C H 1.0919 0.0503 0.4278
C12C C 1.0268(5) 0.2321(3) 0.5886(4)
H20C H 1.1160 0.2487 0.6339
H21C H 0.9723 0.2811 0.5686
H22C H 1.0047 0.1942 0.6361
C13B C 0.5036(5) 0.0218(3) 0.0532(3)
H23B H 0.4269 0.0566 0.0283
H24B H 0.5785 0.0588 0.0853
C14B C 0.6378(4) -0.0768(3) 0.2034(4)
H25B H 0.6423 -0.1145 0.2652
H26B H 0.6481 -0.1082 0.1429
H27B H 0.7056 -0.0355 0.2383
C15B C 0.5002(5) 0.0154(3) 0.2415(4)
H28B H 0.5071 -0.0210 0.3055
H29B H 0.5679 0.0569 0.2732
H30B H 0.4173 0.0429 0.2061
Li1C Li 1.1171(6) 0.3662(5) 0.3831(6)
Li1C_2 Li 0.1171(6) 0.3662(5) -0.6169(6)
Li1B Li 0.3829(6) -0.1338(5) 0.1169(6)
loop_
_geom_bond_atom_site_label_1
_geom_bond_atom_site_label_2
_geom_bond_site_symmetry_1
_geom_bond_site_symmetry_2
Si1 N1 1_555 1_555
Si2 N3 1_555 1_555
N1 C4 1_555 1_555
N2 C6 1_555 1_555
N3 C4 1_555 1_555
N4 C13 1_555 1_555
C1 Si1 1_555 1_555
H1 C1 1_555 1_555
H2 C1 1_555 1_555
H3 C1 1_555 1_555
C2 Si1 1_555 1_555
H4 C2 1_555 1_555
H5 C2 1_555 1_555
H6 C2 1_555 1_555
C3 Si1 1_555 1_555
H7 C3 1_555 1_555
H8 C3 1_555 1_555
H9 C3 1_555 1_555
C4 C5 1_555 1_555
C5 C6 1_555 1_555
C6 H10 1_555 1_555
C7 N2 1_555 1_555
H11 C7 1_555 1_555
C8 C7 1_555 1_555
H12 C8 1_555 1_555
C9 C5 1_555 1_555
H13 C9 1_555 1_555
C10 Si2 1_555 1_555
H14 C10 1_555 1_555
H15 C10 1_555 1_555
H16 C10 1_555 1_555
C11 Si2 1_555 1_555
H17 C11 1_555 1_555
H18 C11 1_555 1_555
H19 C11 1_555 1_555
C12 Si2 1_555 1_555
H20 C12 1_555 1_555
H21 C12 1_555 1_555
H22 C12 1_555 1_555
C13 H23 1_555 1_555
H24 C13 1_555 1_555
C14 N4 1_555 1_555
H25 C14 1_555 1_555
H26 C14 1_555 1_555
H27 C14 1_555 1_555
C15 N4 1_555 1_555
H28 C15 1_555 1_555
H29 C15 1_555 1_555
H30 C15 1_555 1_555
Li1 N1 1_555 1_555
Si1C N1C 1_555 1_555
Si2C N3C 1_555 1_555
N1C C4C 1_555 1_555
N2C Li1 1_555 1_555
N2_2 Li1C 1_555 1_555
N3C C4C 1_555 1_555
N4B C13B 1_555 1_555
N4C Li1C 1_555 1_555
C1C Si1C 1_555 1_555
H1C C1C 1_555 1_555
H2C C1C 1_555 1_555
H3C C1C 1_555 1_555
C2C Si1C 1_555 1_555
H4C C2C 1_555 1_555
H5C C2C 1_555 1_555
H6C C2C 1_555 1_555
C3C Si1C 1_555 1_555
H7C C3C 1_555 1_555
H8C C3C 1_555 1_555
H9C C3C 1_555 1_555
C4C C5C 1_555 1_555
C5C C6C 1_555 1_555
C6C N2C 1_555 1_555
H10C C6C 1_555 1_555
C7C N2C 1_555 1_555
H11C C7C 1_555 1_555
C8C C7C 1_555 1_555
H12C C8C 1_555 1_555
C9C C5C 1_555 1_555
H13C C9C 1_555 1_555
C10C Si2C 1_555 1_555
H14C C10C 1_555 1_555
H15C C10C 1_555 1_555
H16C C10C 1_555 1_555
C11C Si2C 1_555 1_555
H17C C11C 1_555 1_555
H18C C11C 1_555 1_555
H19C C11C 1_555 1_555
C12C Si2C 1_555 1_555
H20C C12C 1_555 1_555
H21C C12C 1_555 1_555
H22C C12C 1_555 1_555
C13B C13 1_555 1_555
H23B C13B 1_555 1_555
H24B C13B 1_555 1_555
C14B N4B 1_555 1_555
H25B C14B 1_555 1_555
H26B C14B 1_555 1_555
H27B C14B 1_555 1_555
C15B N4B 1_555 1_555
H28B C15B 1_555 1_555
H29B C15B 1_555 1_555
H30B C15B 1_555 1_555
Li1C N1C 1_555 1_555
Li1C_2 N2 1_555 1_555
Li1B N4B 1_555 1_555
N3 Li1 1_555 1_555
N4 Li1 1_555 1_555
C8 C9 1_555 1_555
N3C Li1C 1_555 1_555
C8C C9C 1_555 1_555

#END
