
#######################################################################
#
#                 Cambridge Crystallographic Data Centre
#                                CCDC 
#
#######################################################################
#
# If this CIF has been generated from an entry in the Cambridge 
# Structural Database, then it will include bibliographic, chemical, 
# crystal, experimental, refinement or atomic coordinate data resulting 
# from the CCDC's data processing and validation procedures.
#
#######################################################################

data_TAKNIE
_symmetry_cell_setting           monoclinic
_symmetry_space_group_name_H-M   'P 21/c'
_symmetry_Int_Tables_number      14
_space_group_name_Hall           '-P 2ybc'
loop_
_symmetry_equiv_pos_site_id
_symmetry_equiv_pos_as_xyz
1 x,y,z
2 -x,1/2+y,1/2-z
3 -x,-y,-z
4 x,1/2-y,1/2+z
_cell_length_a                   12.3784(8)
_cell_length_b                   7.8493(5)
_cell_length_c                   18.5551(12)
_cell_angle_alpha                90
_cell_angle_beta                 99.6660(10)
_cell_angle_gamma                90
_cell_volume                     1777.25
loop_
_atom_site_label
_atom_site_type_symbol
_atom_site_fract_x
_atom_site_fract_y
_atom_site_fract_z
Ag1 Ag 0.03806(5) 0.10206(8) 0.17402(3)
S1 S 0.17760(16) -0.0532(2) 0.09834(10)
S2 S 0.07369(15) 0.4136(2) 0.25984(9)
N1 N 0.0577(5) 0.3171(8) 0.0910(3)
H1 H -0.0125 0.3680 0.0779
C1 C 0.2817(6) 0.1697(9) 0.2420(4)
H2 H 0.2318 0.0923 0.2582
C2 C 0.3429(6) 0.1164(10) 0.1895(4)
C3 C 0.3155(6) -0.0522(10) 0.1521(4)
H3 H 0.3213 -0.1435 0.1894
H4 H 0.3694 -0.0767 0.1196
C4 C 0.1867(6) 0.1236(9) 0.0353(4)
H5 H 0.2508 0.1951 0.0549
H6 H 0.1985 0.0773 -0.0124
C5 C 0.0835(7) 0.2350(10) 0.0236(4)
H7 H 0.0924 0.3253 -0.0122
H8 H 0.0203 0.1638 0.0019
C6 C 0.1339(6) 0.4557(9) 0.1190(4)
H9 H 0.1377 0.5383 0.0792
H10 H 0.2081 0.4077 0.1344
C7 C 0.0989(6) 0.5483(9) 0.1833(4)
H11 H 0.0311 0.6129 0.1651
H12 H 0.1564 0.6322 0.2022
C8 C 0.2097(6) 0.3914(10) 0.3166(4)
H13 H 0.2333 0.5025 0.3391
H14 H 0.2059 0.3086 0.3563
C9 C 0.2918(6) 0.3316(9) 0.2710(3)
C10 C 0.3709(6) 0.4410(10) 0.2511(4)
H15 H 0.3797 0.5522 0.2714
C11 C 0.4366(7) 0.3881(11) 0.2018(4)
H16 H 0.4922 0.4611 0.1898
C12 C 0.4209(6) 0.2269(11) 0.1699(4)
H17 H 0.4638 0.1925 0.1345
Ag1A Ag -0.03806(5) 0.60206(8) 0.32598(3)
S2A S -0.07369(15) -0.0864(2) 0.24016(9)
F1 F 0.6767(5) 0.4684(9) -0.0165(3)
F2 F 0.5833(5) 0.2845(12) 0.0323(4)
F3 F 0.5980(6) 0.5405(11) 0.0729(4)
S3 S 0.77199(16) 0.3544(2) 0.11096(10)
O1 O 0.8182(5) 0.2165(7) 0.0748(3)
O2 O 0.7286(5) 0.3068(7) 0.1753(3)
O3 O 0.8374(5) 0.5068(7) 0.1181(3)
C13 C 0.6501(7) 0.4146(15) 0.0467(5)
loop_
_geom_bond_atom_site_label_1
_geom_bond_atom_site_label_2
_geom_bond_site_symmetry_1
_geom_bond_site_symmetry_2
Ag1 S1 1_555 1_555
F1 C13 1_555 1_555
F2 C13 1_555 1_555
F3 C13 1_555 1_555
S1 C3 1_555 1_555
S2 Ag1 1_555 1_555
S3 O1 1_555 1_555
O2 S3 1_555 1_555
O3 S3 1_555 1_555
N1 Ag1 1_555 1_555
H1 N1 1_555 1_555
C1 H2 1_555 1_555
C2 C1 1_555 1_555
C3 C2 1_555 1_555
H3 C3 1_555 1_555
H4 C3 1_555 1_555
C4 S1 1_555 1_555
H5 C4 1_555 1_555
H6 C4 1_555 1_555
C5 N1 1_555 1_555
H7 C5 1_555 1_555
H8 C5 1_555 1_555
C6 N1 1_555 1_555
H9 C6 1_555 1_555
H10 C6 1_555 1_555
C7 S2 1_555 1_555
H11 C7 1_555 1_555
H12 C7 1_555 1_555
C8 S2 1_555 1_555
H13 C8 1_555 1_555
H14 C8 1_555 1_555
C9 C1 1_555 1_555
C10 C9 1_555 1_555
H15 C10 1_555 1_555
C11 C10 1_555 1_555
H16 C11 1_555 1_555
C12 C2 1_555 1_555
H17 C12 1_555 1_555
C13 S3 1_555 1_555
Ag1A S2 1_555 1_555
S2A Ag1 1_555 1_555
C4 C5 1_555 1_555
C6 C7 1_555 1_555
C8 C9 1_555 1_555
C11 C12 1_555 1_555

#END
