
#######################################################################
#
#                 Cambridge Crystallographic Data Centre
#                                CCDC 
#
#######################################################################
#
# If this CIF has been generated from an entry in the Cambridge 
# Structural Database, then it will include bibliographic, chemical, 
# crystal, experimental, refinement or atomic coordinate data resulting 
# from the CCDC's data processing and validation procedures.
#
#######################################################################

data_TAKNEA
_symmetry_cell_setting           monoclinic
_symmetry_space_group_name_H-M   'C c'
_symmetry_Int_Tables_number      9
_space_group_name_Hall           'C -2yc'
loop_
_symmetry_equiv_pos_site_id
_symmetry_equiv_pos_as_xyz
1 x,y,z
2 x,-y,1/2+z
3 1/2+x,1/2+y,z
4 1/2+x,1/2-y,1/2+z
_cell_length_a                   10.7933(12)
_cell_length_b                   10.8604(12)
_cell_length_c                   24.337(3)
_cell_angle_alpha                90
_cell_angle_beta                 95.103(2)
_cell_angle_gamma                90
_cell_volume                     2841.47
loop_
_atom_site_label
_atom_site_type_symbol
_atom_site_fract_x
_atom_site_fract_y
_atom_site_fract_z
Ag1 Ag 0.67832(7) 0.74924(8) -0.09457(4)
Ag2 Ag 0.83142(7) 0.38549(7) 0.01012(4)
S1 S 0.5885(2) 0.8385(2) -0.19356(12)
S2 S 0.7497(2) 0.4953(2) -0.07367(11)
S3 S 0.2643(2) 0.9569(3) 0.10908(13)
S4 S 0.5832(2) 0.8157(2) -0.01135(11)
N1 N 0.8525(8) 0.7234(7) -0.1423(4)
H1 H 0.8991 0.7970 -0.1360
N2 N 0.3680(9) 0.7033(8) 0.0586(4)
H2 H 0.2920 0.6589 0.0534
C1 C 0.5506(10) 0.5458(9) -0.1769(5)
H3 H 0.5254 0.5906 -0.1462
C2 C 0.5332(9) 0.5964(9) -0.2288(5)
C3 C 0.4898(10) 0.7299(10) -0.2356(5)
H4 H 0.4034 0.7362 -0.2253
H5 H 0.4893 0.7534 -0.2750
C4 C 0.7370(10) 0.8273(10) -0.2221(5)
H6 H 0.7213 0.8225 -0.2628
H7 H 0.7834 0.9045 -0.2134
C5 C 0.8208(9) 0.7189(9) -0.2028(4)
H8 H 0.7776 0.6405 -0.2127
H9 H 0.8982 0.7215 -0.2218
C6 C 0.9368(10) 0.6234(10) -0.1208(5)
H10 H 0.9720 0.6454 -0.0832
H11 H 1.0068 0.6172 -0.1444
C7 C 0.8740(9) 0.4987(9) -0.1190(5)
H12 H 0.9370 0.4362 -0.1064
H13 H 0.8398 0.4761 -0.1567
C8 C 0.6386(10) 0.3899(9) -0.1090(5)
H14 H 0.6748 0.3061 -0.1088
H15 H 0.5625 0.3866 -0.0891
C9 C 0.6043(9) 0.4307(9) -0.1685(5)
C10 C 0.6348(10) 0.3597(10) -0.2137(5)
H16 H 0.6699 0.2799 -0.2086
C11 C 0.6118(10) 0.4102(10) -0.2661(5)
H17 H 0.6307 0.3637 -0.2974
C12 C 0.5620(9) 0.5265(10) -0.2736(5)
H18 H 0.5473 0.5592 -0.3098
C13 C 0.5581(10) 0.9951(9) 0.0924(5)
H19 H 0.5088 1.0280 0.0616
C14 C 0.5136(10) 1.0030(9) 0.1422(5)
C15 C 0.3823(10) 1.0467(10) 0.1491(5)
H20 H 0.3745 1.1340 0.1376
H21 H 0.3674 1.0420 0.1886
C16 C 0.2851(11) 0.8067(10) 0.1401(5)
H22 H 0.3069 0.8174 0.1802
H23 H 0.2047 0.7624 0.1354
C17 C 0.3868(10) 0.7242(9) 0.1166(5)
H24 H 0.4690 0.7638 0.1250
H25 H 0.3889 0.6437 0.1357
C18 C 0.4621(9) 0.6221(9) 0.0362(5)
H26 H 0.4314 0.5968 -0.0017
H27 H 0.4715 0.5467 0.0591
C19 C 0.5882(10) 0.6819(9) 0.0346(4)
H28 H 0.6475 0.6207 0.0220
H29 H 0.6190 0.7080 0.0723
C20 C 0.6990(11) 0.9179(10) 0.0244(5)
H30 H 0.7823 0.8798 0.0247
H31 H 0.7006 0.9970 0.0042
C21 C 0.6701(10) 0.9424(10) 0.0831(5)
C22 C 0.7452(10) 0.9003(9) 0.1275(5)
H32 H 0.8224 0.8625 0.1218
C23 C 0.7095(12) 0.9122(10) 0.1810(5)
H33 H 0.7640 0.8892 0.2121
C24 C 0.5903(11) 0.9595(11) 0.1873(5)
H34 H 0.5613 0.9618 0.2230
Ag2B Ag 0.33142(7) 0.88549(7) 0.01012(4)
S3B S 0.7643(2) 0.4569(3) 0.10908(13)
S4B S 1.0832(2) 0.3157(2) -0.01135(11)
N2B N 0.8680(9) 0.2033(8) 0.0586(4)
H2B H 0.7920 0.1589 0.0534
N3 N 0.3106(9) 0.5849(9) -0.1156(5)
O1 O 0.3622(8) 0.6799(7) -0.0939(4)
O2 O 0.3346(10) 0.4841(8) -0.0903(4)
O3 O 0.2446(9) 0.5909(7) -0.1589(5)
N4 N 0.0041(9) 0.7437(9) 0.0281(5)
O4 O 0.1003(9) 0.7250(9) 0.0050(5)
O5 O 0.0114(9) 0.8044(9) 0.0736(5)
O6 O -0.0950(8) 0.7008(8) 0.0116(4)
loop_
_geom_bond_atom_site_label_1
_geom_bond_atom_site_label_2
_geom_bond_site_symmetry_1
_geom_bond_site_symmetry_2
Ag1 S1 1_555 1_555
Ag2 S2 1_555 1_555
S1 C3 1_555 1_555
S2 Ag1 1_555 1_555
S3 C15 1_555 1_555
S4 Ag1 1_555 1_555
N1 Ag1 1_555 1_555
H1 N1 1_555 1_555
N2 H2 1_555 1_555
N3 O1 1_555 1_555
O2 N3 1_555 1_555
O3 N3 1_555 1_555
N4 O4 1_555 1_555
O5 N4 1_555 1_555
O6 N4 1_555 1_555
C1 H3 1_555 1_555
C2 C1 1_555 1_555
C3 C2 1_555 1_555
H4 C3 1_555 1_555
H5 C3 1_555 1_555
C4 S1 1_555 1_555
H6 C4 1_555 1_555
H7 C4 1_555 1_555
C5 N1 1_555 1_555
H8 C5 1_555 1_555
H9 C5 1_555 1_555
C6 N1 1_555 1_555
H10 C6 1_555 1_555
H11 C6 1_555 1_555
C7 S2 1_555 1_555
H12 C7 1_555 1_555
H13 C7 1_555 1_555
C8 S2 1_555 1_555
H14 C8 1_555 1_555
H15 C8 1_555 1_555
C9 C1 1_555 1_555
C10 C9 1_555 1_555
H16 C10 1_555 1_555
C11 C10 1_555 1_555
H17 C11 1_555 1_555
C12 C2 1_555 1_555
H18 C12 1_555 1_555
C13 H19 1_555 1_555
C14 C13 1_555 1_555
C15 C14 1_555 1_555
H20 C15 1_555 1_555
H21 C15 1_555 1_555
C16 S3 1_555 1_555
H22 C16 1_555 1_555
H23 C16 1_555 1_555
C17 N2 1_555 1_555
H24 C17 1_555 1_555
H25 C17 1_555 1_555
C18 N2 1_555 1_555
H26 C18 1_555 1_555
H27 C18 1_555 1_555
C19 S4 1_555 1_555
H28 C19 1_555 1_555
H29 C19 1_555 1_555
C20 S4 1_555 1_555
H30 C20 1_555 1_555
H31 C20 1_555 1_555
C21 C13 1_555 1_555
C22 C21 1_555 1_555
H32 C22 1_555 1_555
C23 C22 1_555 1_555
H33 C23 1_555 1_555
C24 C14 1_555 1_555
H34 C24 1_555 1_555
Ag2B S3 1_555 1_555
S3B Ag2 1_555 1_555
S4B Ag2 1_555 1_555
N2B Ag2 1_555 1_555
H2B N2B 1_555 1_555
S4 Ag2B 1_555 1_555
N2 Ag2B 1_555 1_555
C4 C5 1_555 1_555
C6 C7 1_555 1_555
C8 C9 1_555 1_555
C11 C12 1_555 1_555
C16 C17 1_555 1_555
C18 C19 1_555 1_555
C20 C21 1_555 1_555
C23 C24 1_555 1_555

#END
