
#######################################################################
#
#                 Cambridge Crystallographic Data Centre
#                                CCDC 
#
#######################################################################
#
# If this CIF has been generated from an entry in the Cambridge 
# Structural Database, then it will include bibliographic, chemical, 
# crystal, experimental, refinement or atomic coordinate data resulting 
# from the CCDC's data processing and validation procedures.
#
#######################################################################

data_TAKPOM
_symmetry_cell_setting           monoclinic
_symmetry_space_group_name_H-M   'P 21/c'
_symmetry_Int_Tables_number      14
_space_group_name_Hall           '-P 2ybc'
loop_
_symmetry_equiv_pos_site_id
_symmetry_equiv_pos_as_xyz
1 x,y,z
2 -x,1/2+y,1/2-z
3 -x,-y,-z
4 x,1/2-y,1/2+z
_cell_length_a                   9.6325(2)
_cell_length_b                   19.3591(5)
_cell_length_c                   11.2552(3)
_cell_angle_alpha                90
_cell_angle_beta                 111.1090(10)
_cell_angle_gamma                90
_cell_volume                     1957.99
loop_
_atom_site_label
_atom_site_type_symbol
_atom_site_fract_x
_atom_site_fract_y
_atom_site_fract_z
C1 C 0.6740(4) 1.1227(2) 0.3731(3)
C2 C 0.6329(4) 1.1886(2) 0.3050(4)
C3 C 0.6670(5) 1.2079(3) 0.2117(4)
H1 H 0.7226 1.1833 0.1734
C4 C 0.6032(7) 1.2750(4) 0.1766(6)
H2 H 0.6136 1.3023 0.1123
C5 C 0.5324(7) 1.2914(3) 0.2441(6)
H3 H 0.4780 1.3317 0.2387
C6 C 0.3537(4) 0.97981(19) 0.2799(3)
C7 C 0.3146(4) 0.9714(2) 0.1452(3)
C8 C 0.4010(4) 0.9560(3) 0.0861(4)
H4 H 0.5033 0.9488 0.1175
C9 C 0.2936(5) 0.9528(3) -0.0464(4)
H5 H 0.3214 0.9425 -0.1154
C10 C 0.1506(5) 0.9664(3) -0.0585(3)
H6 H 0.0663 0.9670 -0.1324
C11 C 0.8770(4) 0.9143(2) 0.3232(3)
C12 C 0.8773(4) 0.8794(2) 0.2135(3)
C13 C 0.9910(5) 0.8690(3) 0.1792(4)
H7 H 1.0916 0.8784 0.2211
C14 C 0.9125(7) 0.8381(3) 0.0550(5)
H8 H 0.9602 0.8240 0.0006
C15 C 0.7629(7) 0.8317(4) 0.0256(4)
H9 H 0.6942 0.8134 -0.0487
C16 C 0.7732(5) 0.8426(3) 0.6679(5)
H10 H 0.7381 0.7961 0.6730
H11 H 0.7790 0.8668 0.7450
C17 C 0.9250(5) 0.8387(3) 0.6620(6)
H12 H 0.9945 0.8186 0.7395
H13 H 0.9240 0.8106 0.5903
Nd1 Nd 0.761392(18) 0.988711(11) 0.500146(15)
O1 O 0.7491(3) 1.07859(15) 0.3434(2)
O2 O 0.6336(3) 1.11019(15) 0.4578(2)
O3 O 0.4947(3) 0.97482(18) 0.3616(2)
O4 O 0.2419(3) 0.99016(16) 0.3041(2)
O5 O 0.7561(3) 0.91088(17) 0.3360(3)
O6 O 0.9984(3) 0.94684(17) 0.3987(2)
O7 O 0.6635(3) 0.87836(16) 0.5564(2)
H14 H 0.5858 0.8872 0.5727
O8 O 0.9665(3) 0.90692(15) 0.6475(2)
H15 H 1.0370 0.9054 0.6189
O9 O 0.5499(4) 1.2382(2) 0.3290(4)
O10 O 0.1597(3) 0.97834(17) 0.0578(2)
O11 O 0.7362(3) 0.8560(2) 0.1208(3)
Nd1B Nd 0.238608(18) 1.011289(11) 0.499854(15)
Nd1B_2 Nd 1.238608(18) 1.011289(11) 0.499854(15)
O4B O 0.7581(3) 1.00984(16) 0.6959(2)
O6B O 1.0016(3) 1.05316(17) 0.6013(2)
loop_
_geom_bond_atom_site_label_1
_geom_bond_atom_site_label_2
_geom_bond_site_symmetry_1
_geom_bond_site_symmetry_2
C1 C2 1_555 1_555
C2 C3 1_555 1_555
C3 H1 1_555 1_555
C4 C3 1_555 1_555
H2 C4 1_555 1_555
C5 C4 1_555 1_555
H3 C5 1_555 1_555
C6 C7 1_555 1_555
C7 C8 1_555 1_555
C8 H4 1_555 1_555
C9 C8 1_555 1_555
H5 C9 1_555 1_555
C10 C9 1_555 1_555
H6 C10 1_555 1_555
C11 C12 1_555 1_555
C12 C13 1_555 1_555
C13 H7 1_555 1_555
C14 C13 1_555 1_555
H8 C14 1_555 1_555
C15 C14 1_555 1_555
H9 C15 1_555 1_555
C16 H10 1_555 1_555
H11 C16 1_555 1_555
C17 C16 1_555 1_555
H12 C17 1_555 1_555
H13 C17 1_555 1_555
Nd1 O1 1_555 1_555
O1 C1 1_555 1_555
O2 C1 1_555 1_555
O3 C6 1_555 1_555
O4 C6 1_555 1_555
O5 C11 1_555 1_555
O6 C11 1_555 1_555
O7 C16 1_555 1_555
H14 O7 1_555 1_555
O8 C17 1_555 1_555
H15 O8 1_555 1_555
O9 C2 1_555 1_555
O10 C7 1_555 1_555
O11 C12 1_555 1_555
Nd1B O4 1_555 1_555
Nd1B_2 O6 1_555 1_555
O4B Nd1 1_555 1_555
O6B Nd1 1_555 1_555
C5 O9 1_555 1_555
C10 O10 1_555 1_555
C15 O11 1_555 1_555
Nd1 O2 1_555 1_555
Nd1 O3 1_555 1_555
Nd1 O5 1_555 1_555
Nd1 O7 1_555 1_555
Nd1 O8 1_555 1_555

#END
