
#######################################################################
#
#                 Cambridge Crystallographic Data Centre
#                                CCDC 
#
#######################################################################
#
# If this CIF has been generated from an entry in the Cambridge 
# Structural Database, then it will include bibliographic, chemical, 
# crystal, experimental, refinement or atomic coordinate data resulting 
# from the CCDC's data processing and validation procedures.
#
#######################################################################

data_TAKPEC
_symmetry_cell_setting           monoclinic
_symmetry_space_group_name_H-M   'P 21/c'
_symmetry_Int_Tables_number      14
_space_group_name_Hall           '-P 2ybc'
loop_
_symmetry_equiv_pos_site_id
_symmetry_equiv_pos_as_xyz
1 x,y,z
2 -x,1/2+y,1/2-z
3 -x,-y,-z
4 x,1/2-y,1/2+z
_cell_length_a                   9.6516(10)
_cell_length_b                   19.2802(19)
_cell_length_c                   11.1986(11)
_cell_angle_alpha                90
_cell_angle_beta                 111.4500(10)
_cell_angle_gamma                90
_cell_volume                     1939.55
loop_
_atom_site_label
_atom_site_type_symbol
_atom_site_fract_x
_atom_site_fract_y
_atom_site_fract_z
C1 C 0.6692(3) 1.1203(2) 0.3749(3)
C2 C 0.6284(4) 1.1872(2) 0.3071(4)
C3 C 0.6650(4) 1.2076(2) 0.2171(4)
H1 H 0.7227 1.1836 0.1800
C4 C 0.6017(7) 1.2745(4) 0.1820(6)
H2 H 0.6143 1.3021 0.1186
C5 C 0.5295(7) 1.2906(3) 0.2455(6)
H3 H 0.4752 1.3312 0.2389
C6 C 0.3592(3) 0.98013(18) 0.2828(3)
C7 C 0.3175(3) 0.9717(2) 0.1479(3)
C8 C 0.4007(4) 0.9568(3) 0.0865(4)
H4 H 0.5032 0.9503 0.1170
C9 C 0.2923(5) 0.9526(3) -0.0453(4)
H5 H 0.3187 0.9421 -0.1152
C10 C 0.1517(5) 0.9655(3) -0.0559(4)
H6 H 0.0666 0.9658 -0.1299
C11 C 0.8964(3) 0.91874(18) 0.3333(3)
C12 C 0.8818(4) 0.8820(2) 0.2196(3)
C13 C 0.9884(5) 0.8675(2) 0.1802(4)
H7 H 1.0905 0.8743 0.2195
C14 C 0.9021(7) 0.8373(3) 0.0559(5)
H8 H 0.9450 0.8211 -0.0007
C15 C 0.7557(7) 0.8350(4) 0.0304(5)
H9 H 0.6825 0.8178 -0.0434
C16 C 0.7748(4) 0.8444(3) 0.6580(5)
H10 H 0.7419 0.7969 0.6585
H11 H 0.7791 0.8661 0.7374
C17 C 0.9266(5) 0.8443(2) 0.6522(5)
H12 H 0.9981 0.8242 0.7297
H13 H 0.9276 0.8176 0.5791
Er1 Er 0.752503(14) 0.991276(8) 0.500134(12)
O1 O 0.7414(3) 1.07601(14) 0.3442(2)
O2 O 0.6302(3) 1.10821(14) 0.4617(2)
O3 O 0.5002(3) 0.97542(16) 0.3636(2)
O4 O 0.2512(3) 0.99019(14) 0.3111(2)
O5 O 0.7784(3) 0.92266(15) 0.3505(2)
O6 O 1.0253(3) 0.94512(15) 0.4061(2)
O7 O 0.6652(3) 0.88178(14) 0.5484(2)
H14 H 0.5875 0.8891 0.5654
O8 O 0.9613(2) 0.91458(14) 0.6401(2)
H15 H 1.0307 0.9157 0.6103
O9 O 0.5439(4) 1.2364(2) 0.3303(4)
O10 O 0.1619(3) 0.97729(17) 0.0610(2)
O11 O 0.7364(3) 0.86178(18) 0.1298(3)
Er1B Er 0.247497(14) 1.008724(8) 0.499866(12)
Er1B_2 Er 1.247497(14) 1.008724(8) 0.499866(12)
O4B O 0.7488(3) 1.00981(14) 0.6889(2)
O6B O 0.9747(3) 1.05488(15) 0.5939(2)
loop_
_geom_bond_atom_site_label_1
_geom_bond_atom_site_label_2
_geom_bond_site_symmetry_1
_geom_bond_site_symmetry_2
C1 C2 1_555 1_555
C2 C3 1_555 1_555
C3 H1 1_555 1_555
C4 C3 1_555 1_555
H2 C4 1_555 1_555
C5 C4 1_555 1_555
H3 C5 1_555 1_555
C6 C7 1_555 1_555
C7 C8 1_555 1_555
C8 H4 1_555 1_555
C9 C8 1_555 1_555
H5 C9 1_555 1_555
C10 C9 1_555 1_555
H6 C10 1_555 1_555
C11 C12 1_555 1_555
C12 C13 1_555 1_555
C13 H7 1_555 1_555
C14 C13 1_555 1_555
H8 C14 1_555 1_555
C15 C14 1_555 1_555
H9 C15 1_555 1_555
C16 H10 1_555 1_555
H11 C16 1_555 1_555
C17 C16 1_555 1_555
H12 C17 1_555 1_555
H13 C17 1_555 1_555
Er1 O1 1_555 1_555
O1 C1 1_555 1_555
O2 C1 1_555 1_555
O3 C6 1_555 1_555
O4 C6 1_555 1_555
O5 C11 1_555 1_555
O6 C11 1_555 1_555
O7 C16 1_555 1_555
H14 O7 1_555 1_555
O8 C17 1_555 1_555
H15 O8 1_555 1_555
O9 C2 1_555 1_555
O10 C7 1_555 1_555
O11 C12 1_555 1_555
Er1B O4 1_555 1_555
Er1B_2 O6 1_555 1_555
O4B Er1 1_555 1_555
O6B Er1 1_555 1_555
C5 O9 1_555 1_555
C10 O10 1_555 1_555
C15 O11 1_555 1_555
Er1 O2 1_555 1_555
Er1 O3 1_555 1_555
Er1 O5 1_555 1_555
Er1 O7 1_555 1_555
Er1 O8 1_555 1_555

#END
