
#######################################################################
#
#                 Cambridge Crystallographic Data Centre
#                                CCDC 
#
#######################################################################
#
# If this CIF has been generated from an entry in the Cambridge 
# Structural Database, then it will include bibliographic, chemical, 
# crystal, experimental, refinement or atomic coordinate data resulting 
# from the CCDC's data processing and validation procedures.
#
#######################################################################

data_TAKPIG
_symmetry_cell_setting           monoclinic
_symmetry_space_group_name_H-M   'P 21/c'
_symmetry_Int_Tables_number      14
_space_group_name_Hall           '-P 2ybc'
loop_
_symmetry_equiv_pos_site_id
_symmetry_equiv_pos_as_xyz
1 x,y,z
2 -x,1/2+y,1/2-z
3 -x,-y,-z
4 x,1/2-y,1/2+z
_cell_length_a                   9.6811(7)
_cell_length_b                   19.3670(15)
_cell_length_c                   11.2416(8)
_cell_angle_alpha                90
_cell_angle_beta                 111.3180(10)
_cell_angle_gamma                90
_cell_volume                     1963.51
loop_
_atom_site_label
_atom_site_type_symbol
_atom_site_fract_x
_atom_site_fract_y
_atom_site_fract_z
C1 C 0.6713(3) 1.12167(17) 0.3742(3)
C2 C 0.6310(4) 1.18818(18) 0.3072(3)
C3 C 0.6675(4) 1.2082(2) 0.2167(3)
H1 H 0.7249 1.1843 0.1797
C4 C 0.6036(7) 1.2753(3) 0.1817(5)
H2 H 0.6156 1.3030 0.1186
C5 C 0.5318(7) 1.2907(2) 0.2459(6)
H3 H 0.4774 1.3310 0.2401
C6 C 0.3568(3) 0.97992(15) 0.2807(3)
C7 C 0.3158(3) 0.97138(17) 0.1461(3)
C8 C 0.4002(4) 0.9569(2) 0.0861(3)
H4 H 0.5024 0.9506 0.1164
C9 C 0.2906(5) 0.9526(2) -0.0457(3)
H5 H 0.3169 0.9418 -0.1153
C10 C 0.1512(4) 0.9655(2) -0.0569(3)
H6 H 0.0667 0.9661 -0.1308
C11 C 0.8889(3) 0.91720(16) 0.3283(3)
C12 C 0.8785(4) 0.88147(17) 0.2163(3)
C13 C 0.9875(5) 0.8686(2) 0.1793(4)
H7 H 1.0886 0.8767 0.2195
C14 C 0.9047(8) 0.8378(3) 0.0558(5)
H8 H 0.9495 0.8218 0.0006
C15 C 0.7577(7) 0.8345(3) 0.0285(4)
H9 H 0.6865 0.8174 -0.0459
C16 C 0.7736(4) 0.8432(2) 0.6597(4)
H10 H 0.7401 0.7960 0.6603
H11 H 0.7785 0.8648 0.7389
C17 C 0.9245(5) 0.8422(2) 0.6539(5)
H12 H 0.9950 0.8220 0.7311
H13 H 0.9249 0.8153 0.5813
Gd1 Gd 0.755116(14) 0.990696(8) 0.500365(12)
O1 O 0.7451(2) 1.07792(12) 0.3447(2)
O2 O 0.6318(3) 1.10929(12) 0.4599(2)
O3 O 0.4966(2) 0.97559(15) 0.3614(2)
O4 O 0.2478(3) 0.99017(13) 0.3075(2)
O5 O 0.7706(3) 0.91874(14) 0.3442(2)
O6 O 1.0154(3) 0.94605(14) 0.4014(2)
O7 O 0.6641(2) 0.88061(12) 0.5512(2)
H14 H 0.5870 0.8884 0.5686
O8 O 0.9622(2) 0.91113(12) 0.6418(2)
H15 H 1.0317 0.9112 0.6124
O9 O 0.5465(4) 1.23665(18) 0.3298(4)
O10 O 0.1611(3) 0.97714(15) 0.0595(2)
O11 O 0.7353(3) 0.85955(17) 0.1258(3)
Gd1B Gd 0.244884(14) 1.009304(8) 0.499635(12)
Gd1B_2 Gd 1.244884(14) 1.009304(8) 0.499635(12)
O4B O 0.7522(3) 1.00983(13) 0.6925(2)
O6B O 0.9846(3) 1.05395(14) 0.5986(2)
loop_
_geom_bond_atom_site_label_1
_geom_bond_atom_site_label_2
_geom_bond_site_symmetry_1
_geom_bond_site_symmetry_2
C1 C2 1_555 1_555
C2 C3 1_555 1_555
C3 H1 1_555 1_555
C4 C3 1_555 1_555
H2 C4 1_555 1_555
C5 C4 1_555 1_555
H3 C5 1_555 1_555
C6 C7 1_555 1_555
C7 C8 1_555 1_555
C8 H4 1_555 1_555
C9 C8 1_555 1_555
H5 C9 1_555 1_555
C10 C9 1_555 1_555
H6 C10 1_555 1_555
C11 C12 1_555 1_555
C12 C13 1_555 1_555
C13 H7 1_555 1_555
C14 C13 1_555 1_555
H8 C14 1_555 1_555
C15 C14 1_555 1_555
H9 C15 1_555 1_555
C16 H10 1_555 1_555
H11 C16 1_555 1_555
C17 C16 1_555 1_555
H12 C17 1_555 1_555
H13 C17 1_555 1_555
Gd1 O1 1_555 1_555
O1 C1 1_555 1_555
O2 C1 1_555 1_555
O3 C6 1_555 1_555
O4 C6 1_555 1_555
O5 C11 1_555 1_555
O6 C11 1_555 1_555
O7 C16 1_555 1_555
H14 O7 1_555 1_555
O8 C17 1_555 1_555
H15 O8 1_555 1_555
O9 C2 1_555 1_555
O10 C7 1_555 1_555
O11 C12 1_555 1_555
Gd1B O4 1_555 1_555
Gd1B_2 O6 1_555 1_555
O4B Gd1 1_555 1_555
O6B Gd1 1_555 1_555
C5 O9 1_555 1_555
C10 O10 1_555 1_555
C15 O11 1_555 1_555
Gd1 O2 1_555 1_555
Gd1 O3 1_555 1_555
Gd1 O5 1_555 1_555
Gd1 O7 1_555 1_555
Gd1 O8 1_555 1_555

#END
