
#######################################################################
#
#                 Cambridge Crystallographic Data Centre
#                                CCDC 
#
#######################################################################
#
# If this CIF has been generated from an entry in the Cambridge 
# Structural Database, then it will include bibliographic, chemical, 
# crystal, experimental, refinement or atomic coordinate data resulting 
# from the CCDC's data processing and validation procedures.
#
#######################################################################

data_TAKPAY
_symmetry_cell_setting           monoclinic
_symmetry_space_group_name_H-M   'P 21/c'
_symmetry_Int_Tables_number      14
_space_group_name_Hall           '-P 2ybc'
loop_
_symmetry_equiv_pos_site_id
_symmetry_equiv_pos_as_xyz
1 x,y,z
2 -x,1/2+y,1/2-z
3 -x,-y,-z
4 x,1/2-y,1/2+z
_cell_length_a                   9.6699(19)
_cell_length_b                   19.337(4)
_cell_length_c                   11.235(2)
_cell_angle_alpha                90
_cell_angle_beta                 111.296(9)
_cell_angle_gamma                90
_cell_volume                     1957.35
loop_
_atom_site_label
_atom_site_type_symbol
_atom_site_fract_x
_atom_site_fract_y
_atom_site_fract_z
C1 C 0.6696(4) 1.1207(2) 0.3738(4)
C2 C 0.6300(5) 1.1876(3) 0.3065(4)
C3 C 0.6661(5) 1.2071(3) 0.2174(4)
H1 H 0.7231 1.1824 0.1809
C4 C 0.6062(7) 1.2732(4) 0.1806(6)
H2 H 0.6198 1.2999 0.1168
C5 C 0.5338(8) 1.2905(3) 0.2446(7)
H3 H 0.4813 1.3316 0.2376
C6 C 0.3586(5) 0.9803(2) 0.2819(4)
C7 C 0.3171(4) 0.9716(2) 0.1478(4)
C8 C 0.4002(5) 0.9569(3) 0.0863(4)
H4 H 0.5025 0.9504 0.1164
C9 C 0.2917(6) 0.9530(3) -0.0454(5)
H5 H 0.3179 0.9424 -0.1152
C10 C 0.1528(6) 0.9659(3) -0.0554(4)
H6 H 0.0681 0.9666 -0.1292
C11 C 0.8935(4) 0.9179(2) 0.3311(4)
C12 C 0.8808(5) 0.8821(2) 0.2181(4)
C13 C 0.9879(6) 0.8679(3) 0.1798(5)
H7 H 1.0895 0.8751 0.2194
C14 C 0.9037(9) 0.8373(3) 0.0562(6)
H8 H 0.9478 0.8212 0.0005
C15 C 0.7583(8) 0.8343(4) 0.0301(5)
H9 H 0.6866 0.8167 -0.0436
C16 C 0.7737(5) 0.8433(3) 0.6596(5)
H10 H 0.7406 0.7960 0.6601
H11 H 0.7780 0.8650 0.7387
C17 C 0.9267(5) 0.8431(3) 0.6530(6)
H12 H 0.9979 0.8229 0.7299
H13 H 0.9272 0.8166 0.5799
Dy1 Dy 0.753453(18) 0.991036(12) 0.500336(15)
O1 O 0.7430(3) 1.07697(16) 0.3451(3)
O2 O 0.6311(3) 1.10882(15) 0.4610(3)
O3 O 0.4990(3) 0.97524(18) 0.3635(3)
O4 O 0.2490(3) 0.99018(16) 0.3088(3)
O5 O 0.7751(3) 0.92138(17) 0.3482(3)
O6 O 1.0221(3) 0.94545(17) 0.4043(3)
O7 O 0.6645(3) 0.88096(15) 0.5495(3)
H14 H 0.5873 0.8885 0.5670
O8 O 0.9624(3) 0.91293(16) 0.6414(3)
H15 H 1.0318 0.9134 0.6118
O9 O 0.5449(5) 1.2374(2) 0.3296(4)
O10 O 0.1621(3) 0.97719(19) 0.0604(3)
O11 O 0.7358(4) 0.86092(19) 0.1280(3)
Dy1B Dy 0.246547(18) 1.008964(12) 0.499664(15)
Dy1B_2 Dy 1.246547(18) 1.008964(12) 0.499664(15)
O4B O 0.7510(3) 1.00982(16) 0.6912(3)
O6B O 0.9779(3) 1.05455(17) 0.5957(3)
loop_
_geom_bond_atom_site_label_1
_geom_bond_atom_site_label_2
_geom_bond_site_symmetry_1
_geom_bond_site_symmetry_2
C1 C2 1_555 1_555
C2 C3 1_555 1_555
C3 H1 1_555 1_555
C4 C3 1_555 1_555
H2 C4 1_555 1_555
C5 C4 1_555 1_555
H3 C5 1_555 1_555
C6 C7 1_555 1_555
C7 C8 1_555 1_555
C8 H4 1_555 1_555
C9 C8 1_555 1_555
H5 C9 1_555 1_555
C10 C9 1_555 1_555
H6 C10 1_555 1_555
C11 C12 1_555 1_555
C12 C13 1_555 1_555
C13 H7 1_555 1_555
C14 C13 1_555 1_555
H8 C14 1_555 1_555
C15 C14 1_555 1_555
H9 C15 1_555 1_555
C16 H10 1_555 1_555
H11 C16 1_555 1_555
C17 C16 1_555 1_555
H12 C17 1_555 1_555
H13 C17 1_555 1_555
Dy1 O1 1_555 1_555
O1 C1 1_555 1_555
O2 C1 1_555 1_555
O3 C6 1_555 1_555
O4 C6 1_555 1_555
O5 C11 1_555 1_555
O6 C11 1_555 1_555
O7 C16 1_555 1_555
H14 O7 1_555 1_555
O8 C17 1_555 1_555
H15 O8 1_555 1_555
O9 C2 1_555 1_555
O10 C7 1_555 1_555
O11 C12 1_555 1_555
Dy1B O4 1_555 1_555
Dy1B_2 O6 1_555 1_555
O4B Dy1 1_555 1_555
O6B Dy1 1_555 1_555
C5 O9 1_555 1_555
C10 O10 1_555 1_555
C15 O11 1_555 1_555
Dy1 O2 1_555 1_555
Dy1 O3 1_555 1_555
Dy1 O5 1_555 1_555
Dy1 O7 1_555 1_555
Dy1 O8 1_555 1_555

#END
