
#######################################################################
#
#                 Cambridge Crystallographic Data Centre
#                                CCDC 
#
#######################################################################
#
# If this CIF has been generated from an entry in the Cambridge 
# Structural Database, then it will include bibliographic, chemical, 
# crystal, experimental, refinement or atomic coordinate data resulting 
# from the CCDC's data processing and validation procedures.
#
#######################################################################

data_TAKPUS
_symmetry_cell_setting           monoclinic
_symmetry_space_group_name_H-M   'P 21/c'
_symmetry_Int_Tables_number      14
_space_group_name_Hall           '-P 2ybc'
loop_
_symmetry_equiv_pos_site_id
_symmetry_equiv_pos_as_xyz
1 x,y,z
2 -x,1/2+y,1/2-z
3 -x,-y,-z
4 x,1/2-y,1/2+z
_cell_length_a                   9.6717(10)
_cell_length_b                   19.445(2)
_cell_length_c                   11.2537(12)
_cell_angle_alpha                90
_cell_angle_beta                 111.2680(10)
_cell_angle_gamma                90
_cell_volume                     1972.3
loop_
_atom_site_label
_atom_site_type_symbol
_atom_site_fract_x
_atom_site_fract_y
_atom_site_fract_z
C1 C 0.6724(3) 1.12250(16) 0.3737(3)
C2 C 0.6325(4) 1.18825(17) 0.3070(3)
C3 C 0.6679(4) 1.2081(2) 0.2158(3)
H1 H 0.7243 1.1843 0.1777
C4 C 0.6036(6) 1.2752(3) 0.1823(5)
H2 H 0.6153 1.3029 0.1192
C5 C 0.5329(7) 1.2909(2) 0.2464(6)
H3 H 0.4790 1.3312 0.2411
C6 C 0.3552(3) 0.98005(14) 0.2799(3)
C7 C 0.3153(3) 0.97140(16) 0.1463(3)
C8 C 0.4004(4) 0.9566(2) 0.0865(3)
H4 H 0.5027 0.9502 0.1173
C9 C 0.2924(5) 0.9524(2) -0.0450(3)
H5 H 0.3194 0.9416 -0.1141
C10 C 0.1520(4) 0.9655(2) -0.0571(3)
H6 H 0.0680 0.9661 -0.1312
C11 C 0.8845(3) 0.91695(15) 0.3264(3)
C12 C 0.8776(3) 0.88103(16) 0.2152(3)
C13 C 0.9891(5) 0.8688(2) 0.1804(4)
H7 H 1.0899 0.8772 0.2220
C14 C 0.9090(8) 0.8379(3) 0.0568(5)
H8 H 0.9554 0.8225 0.0025
C15 C 0.7611(7) 0.8337(3) 0.0280(4)
H9 H 0.6913 0.8161 -0.0464
C16 C 0.7724(4) 0.8428(2) 0.6611(4)
H10 H 0.7382 0.7960 0.6623
H11 H 0.7781 0.8647 0.7401
C17 C 0.9233(5) 0.8411(2) 0.6544(5)
H12 H 0.9934 0.8202 0.7307
H13 H 0.9223 0.8146 0.5811
Sm1 Sm 0.756847(14) 0.990285(8) 0.500210(12)
O1 O 0.7469(2) 1.07868(11) 0.3445(2)
O2 O 0.6325(3) 1.10986(11) 0.4591(2)
O3 O 0.4949(2) 0.97583(14) 0.3613(2)
O4 O 0.2458(3) 0.99022(12) 0.3059(2)
O5 O 0.7656(2) 0.91698(13) 0.3411(2)
O6 O 1.0087(3) 0.94675(13) 0.4001(2)
O7 O 0.6632(2) 0.88009(12) 0.5527(2)
H14 H 0.5859 0.8881 0.5696
O8 O 0.9633(2) 0.90928(11) 0.6436(2)
H15 H 1.0332 0.9089 0.6146
O9 O 0.5483(4) 1.23679(18) 0.3300(4)
O10 O 0.1607(2) 0.97722(14) 0.0589(2)
O11 O 0.7355(3) 0.85883(17) 0.1239(3)
Sm1B Sm 0.243153(14) 1.009715(8) 0.499790(12)
Sm1B_2 Sm 1.243153(14) 1.009715(8) 0.499790(12)
O4B O 0.7542(3) 1.00978(12) 0.6941(2)
O6B O 0.9913(3) 1.05325(13) 0.5999(2)
loop_
_geom_bond_atom_site_label_1
_geom_bond_atom_site_label_2
_geom_bond_site_symmetry_1
_geom_bond_site_symmetry_2
C1 C2 1_555 1_555
C2 C3 1_555 1_555
C3 H1 1_555 1_555
C4 C3 1_555 1_555
H2 C4 1_555 1_555
C5 C4 1_555 1_555
H3 C5 1_555 1_555
C6 C7 1_555 1_555
C7 C8 1_555 1_555
C8 H4 1_555 1_555
C9 C8 1_555 1_555
H5 C9 1_555 1_555
C10 C9 1_555 1_555
H6 C10 1_555 1_555
C11 C12 1_555 1_555
C12 C13 1_555 1_555
C13 H7 1_555 1_555
C14 C13 1_555 1_555
H8 C14 1_555 1_555
C15 C14 1_555 1_555
H9 C15 1_555 1_555
C16 H10 1_555 1_555
H11 C16 1_555 1_555
C17 C16 1_555 1_555
H12 C17 1_555 1_555
H13 C17 1_555 1_555
Sm1 O1 1_555 1_555
O1 C1 1_555 1_555
O2 C1 1_555 1_555
O3 C6 1_555 1_555
O4 C6 1_555 1_555
O5 C11 1_555 1_555
O6 C11 1_555 1_555
O7 C16 1_555 1_555
H14 O7 1_555 1_555
O8 C17 1_555 1_555
H15 O8 1_555 1_555
O9 C2 1_555 1_555
O10 C7 1_555 1_555
O11 C12 1_555 1_555
Sm1B O4 1_555 1_555
Sm1B_2 O6 1_555 1_555
O4B Sm1 1_555 1_555
O6B Sm1 1_555 1_555
C5 O9 1_555 1_555
C10 O10 1_555 1_555
C15 O11 1_555 1_555
Sm1 O2 1_555 1_555
Sm1 O3 1_555 1_555
Sm1 O5 1_555 1_555
Sm1 O7 1_555 1_555
Sm1 O8 1_555 1_555

#END
