
#######################################################################
#
#                 Cambridge Crystallographic Data Centre
#                                CCDC 
#
#######################################################################
#
# If this CIF has been generated from an entry in the Cambridge 
# Structural Database, then it will include bibliographic, chemical, 
# crystal, experimental, refinement or atomic coordinate data resulting 
# from the CCDC's data processing and validation procedures.
#
#######################################################################

data_TAKXOT
_symmetry_cell_setting           tetragonal
_symmetry_space_group_name_H-M   'P 43'
_symmetry_Int_Tables_number      78
_space_group_name_Hall           'P 4cw'
loop_
_symmetry_equiv_pos_site_id
_symmetry_equiv_pos_as_xyz
1 x,y,z
2 -x,-y,1/2+z
3 -y,x,3/4+z
4 y,-x,1/4+z
_cell_length_a                   7.496(2)
_cell_length_b                   7.496(2)
_cell_length_c                   27.941(5)
_cell_angle_alpha                90
_cell_angle_beta                 90
_cell_angle_gamma                90
_cell_volume                     1570.01
loop_
_atom_site_label
_atom_site_type_symbol
_atom_site_fract_x
_atom_site_fract_y
_atom_site_fract_z
Zn1 Zn 0.46447(8) 0.59027(7) 0.10001(2)
Br1 Br 0.76449(8) 0.67589(10) 0.10419(3)
Br2 Br 0.28072(10) 0.64166(12) 0.16672(3)
O1 O 0.4092(6) 0.3516(5) 0.07407(16)
C1 C 0.3939(8) 0.2039(7) 0.09339(19)
N1 N 0.2741(7) 0.0892(6) 0.07562(17)
H1 H 0.2697 -0.0163 0.0876
C2 C 0.5041(11) 0.1457(9) 0.1345(3)
H2 H 0.5029 0.0179 0.1365
H3 H 0.4563 0.1951 0.1635
H4 H 0.6244 0.1865 0.1302
C3 C 0.1507(7) 0.1333(7) 0.0370(2)
H5 H 0.2092 0.2174 0.0152
C4 C -0.0163(10) 0.2213(10) 0.0575(3)
H6 H -0.0715 0.1421 0.0806
H7 H 0.0162 0.3307 0.0738
C5 C -0.1470(11) 0.2622(12) 0.0179(3)
H8 H -0.2531 0.3164 0.0314
H9 H -0.0938 0.3470 -0.0041
C6 C -0.1980(11) 0.0963(12) -0.0088(3)
H10 H -0.2791 0.1270 -0.0346
H11 H -0.2595 0.0153 0.0127
C7 C -0.0331(9) 0.0034(11) -0.0295(3)
H12 H -0.0687 -0.1075 -0.0447
H13 H 0.0203 0.0790 -0.0538
C8 C 0.1040(8) -0.0355(7) 0.0093(2)
H14 H 0.0533 -0.1227 0.0316
N2 N 0.2617(6) -0.1149(6) -0.01365(18)
H15 H 0.2864 -0.0836 -0.0425
C9 C 0.5190(9) -0.3068(10) -0.0194(3)
H16 H 0.5204 -0.2576 -0.0511
H17 H 0.5066 -0.4341 -0.0212
H18 H 0.6286 -0.2778 -0.0034
C10 C 0.3679(7) -0.2317(7) 0.0076(2)
O2 O 0.3348(6) -0.2760(5) 0.05029(16)
O2_2 O 0.3348(6) 0.7240(5) 0.05029(16)
Zn1_2 Zn 0.46447(8) -0.40973(7) 0.10001(2)
loop_
_geom_bond_atom_site_label_1
_geom_bond_atom_site_label_2
_geom_bond_site_symmetry_1
_geom_bond_site_symmetry_2
Zn1 Br1 1_555 1_555
Br2 Zn1 1_555 1_555
O1 Zn1 1_555 1_555
C1 O1 1_555 1_555
N1 C1 1_555 1_555
H1 N1 1_555 1_555
C2 C1 1_555 1_555
H2 C2 1_555 1_555
H3 C2 1_555 1_555
H4 C2 1_555 1_555
C3 N1 1_555 1_555
H5 C3 1_555 1_555
C4 C3 1_555 1_555
H6 C4 1_555 1_555
H7 C4 1_555 1_555
C5 C4 1_555 1_555
H8 C5 1_555 1_555
H9 C5 1_555 1_555
C6 C5 1_555 1_555
H10 C6 1_555 1_555
H11 C6 1_555 1_555
C7 C6 1_555 1_555
H12 C7 1_555 1_555
H13 C7 1_555 1_555
C8 C3 1_555 1_555
H14 C8 1_555 1_555
N2 C8 1_555 1_555
H15 N2 1_555 1_555
C9 H16 1_555 1_555
H17 C9 1_555 1_555
H18 C9 1_555 1_555
C10 N2 1_555 1_555
O2 C10 1_555 1_555
O2_2 Zn1 1_555 1_555
Zn1_2 O2 1_555 1_555
C7 C8 1_555 1_555
C9 C10 1_555 1_555

#END
