
#######################################################################
#
#                 Cambridge Crystallographic Data Centre
#                                CCDC 
#
#######################################################################
#
# If this CIF has been generated from an entry in the Cambridge 
# Structural Database, then it will include bibliographic, chemical, 
# crystal, experimental, refinement or atomic coordinate data resulting 
# from the CCDC's data processing and validation procedures.
#
#######################################################################

data_TAKYUB
_symmetry_cell_setting           monoclinic
_symmetry_space_group_name_H-M   'P 21/c'
_symmetry_Int_Tables_number      14
_space_group_name_Hall           '-P 2ybc'
loop_
_symmetry_equiv_pos_site_id
_symmetry_equiv_pos_as_xyz
1 x,y,z
2 -x,1/2+y,1/2-z
3 -x,-y,-z
4 x,1/2-y,1/2+z
_cell_length_a                   9.8916(12)
_cell_length_b                   22.079(3)
_cell_length_c                   9.7122(11)
_cell_angle_alpha                90
_cell_angle_beta                 102.995(2)
_cell_angle_gamma                90
_cell_volume                     2066.79
loop_
_atom_site_label
_atom_site_type_symbol
_atom_site_fract_x
_atom_site_fract_y
_atom_site_fract_z
O12 O 0.3934(6) 0.3485(2) 0.4584(5)
H8 H 0.3218 0.3714 0.4296
H10 H 0.4248 0.3354 0.3882
O13 O 0.0725(8) 0.5937(4) 0.9517(8)
H12 H 0.0204 0.5818 0.8745
H13 H 0.1016 0.5624 1.0005
O1 O -1.0654(4) 0.97293(15) 0.7603(4)
O2 O -1.4779(4) 0.77662(15) 0.2721(4)
C1 C -1.4975(5) 0.7832(2) 0.3950(5)
O3 O -1.2300(4) 0.96475(16) 0.8852(4)
O4 O -0.6200(4) 1.01897(19) 0.8283(4)
C2 C -1.3998(5) 0.8258(2) 0.4938(5)
N1 N -1.4359(4) 0.83565(18) 0.6159(4)
O5 O -1.5927(4) 0.75929(16) 0.4409(4)
C3 C -1.2005(5) 1.3434(2) 0.7450(5)
C4 C -1.1322(5) 1.2834(2) 0.7890(5)
C5 C -1.0052(5) 1.2682(2) 0.7619(6)
H1 H -0.9551 1.2962 0.7218
C6 C -0.9540(6) 1.2105(2) 0.7956(6)
H2 H -0.8682 1.1993 0.7793
C7 C -1.0308(5) 1.1696(2) 0.8534(5)
C8 C -1.1555(5) 1.1881(2) 0.8812(5)
H3 H -1.2062 1.1609 0.9226
C9 C -0.9805(5) 1.1053(2) 0.8825(5)
C10 C -1.2865(5) 0.8532(2) 0.4587(5)
H4 H -1.2624 0.8449 0.3734
C11 C -1.2100(5) 0.8937(2) 0.5548(6)
H5 H -1.1317 0.9124 0.5361
C12 C -1.2513(5) 0.9061(2) 0.6793(5)
C13 C -1.3651(5) 0.8753(2) 0.7061(5)
H6 H -1.3923 0.8828 0.7902
C14 C -1.1765(5) 0.9514(2) 0.7835(5)
C15 C -0.6699(6) 1.0015(3) 0.7035(6)
C16 C -0.5803(6) 1.0002(3) 0.5978(6)
C17 C -0.6182(7) 0.9648(3) 0.4759(6)
H7 H -0.6978 0.9411 0.4616
Eu1 Eu -0.83883(2) 0.981672(9) 0.89996(2)
N2 N -1.2058(4) 1.24429(17) 0.8500(4)
O6 O -1.3175(4) 1.35269(15) 0.7718(4)
O7 O -1.1375(4) 1.37900(15) 0.6836(4)
O8 O -0.8789(4) 1.08828(16) 0.8344(4)
O9 O -1.0423(3) 1.07142(14) 0.9516(4)
O10 O -0.7931(4) 0.98523(15) 0.6646(4)
O11 O -0.6364(4) 0.92702(18) 1.0378(6)
H9 H -0.5736 0.9523 1.0702
H11 H -0.6165 0.8997 0.9846
Zn1 Zn -1.60166(6) 0.71805(2) 0.14362(6)
C18 C -0.4608(6) 1.0350(3) 0.6218(6)
H14 H -0.4296 1.0687 0.7066
O1B O -0.9346(4) 1.02707(15) 1.2397(4)
O2B O -0.5221(4) 1.22338(15) 1.7279(4)
C1B C -0.5025(5) 1.2168(2) 1.6050(5)
O3B O -0.7700(4) 1.03525(16) 1.1148(4)
O4B O -0.3800(4) 0.98103(19) 0.1717(4)
O4B_2 O -1.3800(4) 0.98103(19) 1.1717(4)
C2B C -0.6002(5) 1.1742(2) 1.5062(5)
N1B N -0.5641(4) 1.16435(18) 1.3841(4)
N1C N -1.4359(4) 0.66435(18) 0.1159(4)
N1A N -0.5641(4) 1.33565(18) 1.8841(4)
O5B O -0.4073(4) 1.24071(16) 1.5591(4)
O5C O -1.5927(4) 0.74071(16) -0.0591(4)
O5A O -0.4073(4) 1.25929(16) 2.0591(4)
C3B C -0.7995(5) 0.6566(2) 1.2550(5)
C4B C -0.8678(5) 0.7166(2) 1.2110(5)
C5B C -0.9948(5) 0.7318(2) 1.2381(6)
H1B H -1.0449 0.7038 1.2782
C6B C -1.0460(6) 0.7895(2) 1.2044(6)
H2B H -1.1318 0.8007 1.2207
C7B C -0.9692(5) 0.8304(2) 1.1466(5)
C8B C -0.8445(5) 0.8119(2) 1.1188(5)
H3B H -0.7938 0.8391 1.0774
C9B C -1.0195(5) 0.8947(2) 1.1175(5)
C10B C -0.7135(5) 1.1468(2) 1.5413(5)
H4B H -0.7376 1.1551 1.6266
C11B C -0.7900(5) 1.1063(2) 1.4452(6)
H5B H -0.8683 1.0876 1.4639
C12B C -0.7487(5) 1.0939(2) 1.3207(5)
C13B C -0.6349(5) 1.1247(2) 1.2939(5)
H6B H -0.6077 1.1172 1.2098
C14B C -0.8235(5) 1.0486(2) 1.2165(5)
C15B C -0.3301(6) 0.9985(3) 0.2965(6)
C16B C -0.4197(6) 0.9998(3) 0.4022(6)
C17B C -0.3818(7) 1.0352(3) 0.5241(6)
H7B H -0.3022 1.0589 0.5384
Eu1B Eu -1.16117(2) 1.018328(9) 1.10004(2)
Eu1A Eu -1.16117(2) 1.481672(9) 0.60004(2)
Eu1B_2 Eu -0.16117(2) 1.018328(9) 0.10004(2)
Eu1C Eu -0.83883(2) 0.518328(9) 1.39996(2)
N2B N -0.7942(4) 0.75571(17) 1.1500(4)
N2B_2 N -1.7942(4) 0.75571(17) 0.1500(4)
N2_2 N -0.2058(4) 1.24429(17) 1.8500(4)
O6B O -0.6825(4) 0.64731(15) 1.2282(4)
O6B_2 O -1.6825(4) 0.64731(15) 0.2282(4)
O6_2 O -0.3175(4) 1.35269(15) 1.7718(4)
O7B O -0.8625(4) 0.62100(15) 1.3164(4)
O7A O -0.8625(4) 0.87900(15) 0.8164(4)
O7C O -1.1375(4) 1.12100(15) 1.1836(4)
O8B O -1.1211(4) 0.91172(16) 1.1656(4)
O9B O -0.9577(3) 0.92858(14) 1.0484(4)
O10B O -0.2069(4) 1.01477(15) 0.3354(4)
O10B_2 O -1.2069(4) 1.01477(15) 1.3354(4)
O11B O -1.3636(4) 1.07298(18) 0.9622(6)
H9B H -1.4264 1.0477 0.9298
H11B H -1.3835 1.1003 1.0154
Zn1B Zn -0.39834(6) 1.28195(2) 1.85638(6)
Zn1C Zn -1.60166(6) 0.78195(2) 0.64362(6)
Zn1B_2 Zn -1.39834(6) 1.28195(2) 0.85638(6)
Zn1_2 Zn -0.60166(6) 0.71805(2) 1.14362(6)
Zn1A Zn -0.39834(6) 1.21805(2) 1.35638(6)
C18B C -0.5392(6) 0.9650(3) 0.3782(6)
H14B H -0.5704 0.9313 0.2934
N3? N -0.4608(6) 1.0350(3) 0.6218(6)
loop_
_geom_bond_atom_site_label_1
_geom_bond_atom_site_label_2
_geom_bond_site_symmetry_1
_geom_bond_site_symmetry_2
O1 C14 1_555 1_555
O2 C1 1_555 1_555
C1 C2 1_555 1_555
O3 C14 1_555 1_555
O4 C15 1_555 1_555
C2 N1 1_555 1_555
N1 C13 1_555 1_555
O5 C1 1_555 1_555
C3 C4 1_555 1_555
C4 C5 1_555 1_555
C5 H1 1_555 1_555
C6 C5 1_555 1_555
H2 C6 1_555 1_555
C7 C6 1_555 1_555
C8 C7 1_555 1_555
H3 C8 1_555 1_555
C9 C7 1_555 1_555
C10 C2 1_555 1_555
H4 C10 1_555 1_555
C11 C10 1_555 1_555
H5 C11 1_555 1_555
C12 C11 1_555 1_555
C13 C12 1_555 1_555
H6 C13 1_555 1_555
C14 C12 1_555 1_555
C15 C16 1_555 1_555
C16 C17 1_555 1_555
C17 H7 1_555 1_555
Eu1 O1 1_555 1_555
N2 C4 1_555 1_555
O6 C3 1_555 1_555
O7 C3 1_555 1_555
O8 C9 1_555 1_555
O9 C9 1_555 1_555
O10 C15 1_555 1_555
O11 Eu1 1_555 1_555
O12 H8 1_555 1_555
O13 H12 1_555 1_555
H9 O11 1_555 1_555
H10 O12 1_555 1_555
H11 O11 1_555 1_555
H13 O13 1_555 1_555
Zn1 O2 1_555 1_555
C18 C16 1_555 1_555
H14 C18 1_555 1_555
O1B C14B 1_555 1_555
O2B C1B 1_555 1_555
C1B C2B 1_555 1_555
O3B Eu1 1_555 1_555
O4B C15B 1_555 1_555
O4B_2 Eu1B 1_555 1_555
C2B N1B 1_555 1_555
N1B C13B 1_555 1_555
N1C Zn1 1_555 1_555
N1A Zn1B 1_555 1_555
O5B C1B 1_555 1_555
O5C Zn1 1_555 1_555
O5A Zn1B 1_555 1_555
C3B C4B 1_555 1_555
C4B C5B 1_555 1_555
C5B H1B 1_555 1_555
C6B C5B 1_555 1_555
H2B C6B 1_555 1_555
C7B C6B 1_555 1_555
C8B C7B 1_555 1_555
H3B C8B 1_555 1_555
C9B C7B 1_555 1_555
C10B C2B 1_555 1_555
H4B C10B 1_555 1_555
C11B C10B 1_555 1_555
H5B C11B 1_555 1_555
C12B C11B 1_555 1_555
C13B C12B 1_555 1_555
H6B C13B 1_555 1_555
C14B O3B 1_555 1_555
C15B C16B 1_555 1_555
C16B C17B 1_555 1_555
C17B C18 1_555 1_555
H7B C17B 1_555 1_555
Eu1B O3 1_555 1_555
Eu1A O7 1_555 1_555
Eu1B_2 O4B 1_555 1_555
Eu1C O7B 1_555 1_555
N2B C4B 1_555 1_555
N2B_2 Zn1 1_555 1_555
N2_2 Zn1B 1_555 1_555
O6B C3B 1_555 1_555
O6B_2 Zn1 1_555 1_555
O6_2 Zn1B 1_555 1_555
O7B C3B 1_555 1_555
O7A Eu1 1_555 1_555
O7C Eu1B 1_555 1_555
O8B C9B 1_555 1_555
O9B Eu1 1_555 1_555
O10B C15B 1_555 1_555
O10B_2 Eu1B 1_555 1_555
O11B Eu1B 1_555 1_555
H9B O11B 1_555 1_555
H11B O11B 1_555 1_555
Zn1B O2B 1_555 1_555
Zn1C N1 1_555 1_555
Zn1B_2 N2 1_555 1_555
Zn1_2 N2B 1_555 1_555
Zn1A N1B 1_555 1_555
C18B C17 1_555 1_555
H14B C18B 1_555 1_555
O4 Eu1 1_555 1_555
O5 Zn1C 1_555 1_555
C8 N2 1_555 1_555
Eu1 O8 1_555 1_555
Eu1 O10 1_555 1_555
O6 Zn1B_2 1_555 1_555
O9 Eu1B 1_555 1_555
O1B Eu1B 1_555 1_555
O5B Zn1A 1_555 1_555
C8B N2B 1_555 1_555
C9B O9B 1_555 1_555
C12B C14B 1_555 1_555
C16B C18B 1_555 1_555
Eu1B O8B 1_555 1_555
Eu1B_2 O10B 1_555 1_555
O6B Zn1_2 1_555 1_555

#END
