
#######################################################################
#
#                 Cambridge Crystallographic Data Centre
#                                CCDC 
#
#######################################################################
#
# If this CIF has been generated from an entry in the Cambridge 
# Structural Database, then it will include bibliographic, chemical, 
# crystal, experimental, refinement or atomic coordinate data resulting 
# from the CCDC's data processing and validation procedures.
#
#######################################################################

data_TAKZEL
_symmetry_cell_setting           monoclinic
_symmetry_space_group_name_H-M   'C 2/m'
_symmetry_Int_Tables_number      12
_space_group_name_Hall           '-C 2y'
loop_
_symmetry_equiv_pos_site_id
_symmetry_equiv_pos_as_xyz
1 x,y,z
2 1/2+x,1/2+y,z
3 x,-y,z
4 1/2+x,1/2-y,z
5 -x,-y,-z
6 1/2-x,1/2-y,-z
7 -x,y,-z
8 1/2-x,1/2+y,-z
_cell_length_a                   11.7540(15)
_cell_length_b                   9.6390(13)
_cell_length_c                   5.1732(7)
_cell_angle_alpha                90
_cell_angle_beta                 112.946(2)
_cell_angle_gamma                90
_cell_volume                     539.73
loop_
_atom_site_label
_atom_site_type_symbol
_atom_site_fract_x
_atom_site_fract_y
_atom_site_fract_z
K1 K 0.16915(3) 0.0000 0.37750(8)
O1 O 0.31020(8) 0.24843(10) 0.31886(19)
O2 O 0.44268(9) 0.34715(10) 0.1807(2)
N1 N 0.37116(13) 0.0000 0.2118(3)
N2 N 0.38900(9) 0.24236(11) 0.2134(2)
C1 C 0.5000 0.07395(18) 0.0000
C2 C 0.41908(11) 0.11087(13) 0.1351(2)
K1D K -0.16915(3) 0.0000 -0.37750(8)
O1B O 0.31020(8) -0.24843(10) 0.31886(19)
O1E O 0.18980(8) 0.25157(10) 0.68114(19)
O1G O 0.18980(8) -0.25157(10) 0.68114(19)
O2C O -0.05732(9) 0.15285(10) 0.1807(2)
O2E O 0.05732(9) 0.15285(10) -0.1807(2)
O2G O 0.05732(9) -0.15285(10) -0.1807(2)
K1E K 0.33085(3) 0.5000 0.62250(8)
C2B C 0.41908(11) -0.11087(13) 0.1351(2)
O2A O -0.05732(9) -0.15285(10) 0.1807(2)
C1B C 0.5000 -0.07395(18) 0.0000
C2F C 0.58092(11) 0.11087(13) -0.1351(2)
K1A K 0.66915(3) 0.5000 0.37750(8)
K1E_2 K 0.33085(3) 0.5000 -0.37750(8)
N1D N 0.62884(13) 0.0000 -0.2118(3)
N2F N 0.61100(9) 0.24236(11) -0.2134(2)
N2B N 0.38900(9) -0.24236(11) 0.2134(2)
C2D C 0.58092(11) -0.11087(13) -0.1351(2)
O2B O 0.44268(9) -0.34715(10) 0.1807(2)
N2D N 0.61100(9) -0.24236(11) -0.2134(2)
K1D_2 K 0.83085(3) 0.0000 -0.37750(8)
O1F O 0.68980(8) 0.24843(10) -0.31886(19)
O2F O 0.55732(9) 0.34715(10) -0.1807(2)
K1A_2 K 0.66915(3) 0.5000 -0.62250(8)
O1D O 0.68980(8) -0.24843(10) -0.31886(19)
O2D O 0.55732(9) -0.34715(10) -0.1807(2)
K1A_3 K 0.66915(3) -0.5000 0.37750(8)
K1E_3 K 0.33085(3) -0.5000 -0.37750(8)
K1A_4 K 0.66915(3) -0.5000 -0.62250(8)
K1E_4 K 0.33085(3) -0.5000 0.62250(8)
O1A O 0.81020(8) -0.25157(10) -0.68114(19)
O1C O 0.81020(8) 0.25157(10) -0.68114(19)
O2A_2 O 0.94268(9) -0.15285(10) 0.1807(2)
O2C_2 O 0.94268(9) 0.15285(10) 0.1807(2)
O2E_2 O 1.05732(9) 0.15285(10) -0.1807(2)
O2G_2 O 1.05732(9) -0.15285(10) -0.1807(2)
loop_
_geom_bond_atom_site_label_1
_geom_bond_atom_site_label_2
_geom_bond_site_symmetry_1
_geom_bond_site_symmetry_2
K1 O1 1_555 1_555
O1 N2 1_555 1_555
O2 N2 1_555 1_555
N1 K1 1_555 1_555
N2 C2 1_555 1_555
C1 C2 1_555 1_555
C2 N1 1_555 1_555
K1D O2C 1_555 1_555
O1B K1 1_555 1_555
O1E K1 1_555 1_555
O1G K1 1_555 1_555
O2C K1 1_555 1_555
O2E K1 1_555 1_555
O2G K1 1_555 1_555
K1E O1 1_555 1_555
C2B N1 1_555 1_555
O2A K1 1_555 1_555
C1B C1 1_555 1_555
C2F C1 1_555 1_555
K1A O2 1_555 1_555
K1E_2 O2 1_555 1_555
N1D C2F 1_555 1_555
N2F C2F 1_555 1_555
N2B O1B 1_555 1_555
C2D C1B 1_555 1_555
O2B N2B 1_555 1_555
N2D C2D 1_555 1_555
K1D_2 N1D 1_555 1_555
O1F N2F 1_555 1_555
O2F K1A 1_555 1_555
K1A_2 O1F 1_555 1_555
O1D N2D 1_555 1_555
O2D N2D 1_555 1_555
K1A_3 O2B 1_555 1_555
K1E_3 O2B 1_555 1_555
K1A_4 O1D 1_555 1_555
K1E_4 O1B 1_555 1_555
O1A K1D_2 1_555 1_555
O1C K1D_2 1_555 1_555
O2A_2 K1D_2 1_555 1_555
O2C_2 K1D_2 1_555 1_555
O2E_2 K1D_2 1_555 1_555
O2G_2 K1D_2 1_555 1_555
K1D O2A 1_555 1_555
K1D O2E 1_555 1_555
K1D O2G 1_555 1_555
O1E K1E 1_555 1_555
O1G K1E_4 1_555 1_555
C2B C1B 1_555 1_555
C2B N2B 1_555 1_555
K1E_2 O2F 1_555 1_555
N1D C2D 1_555 1_555
N2F O2F 1_555 1_555
K1D_2 O1F 1_555 1_555
K1D_2 O1D 1_555 1_555
K1A_2 O1C 1_555 1_555
O2D K1A_3 1_555 1_555
O2D K1E_3 1_555 1_555
K1A_4 O1A 1_555 1_555

#END
