
#######################################################################
#
#                 Cambridge Crystallographic Data Centre
#                                CCDC 
#
#######################################################################
#
# If this CIF has been generated from an entry in the Cambridge 
# Structural Database, then it will include bibliographic, chemical, 
# crystal, experimental, refinement or atomic coordinate data resulting 
# from the CCDC's data processing and validation procedures.
#
#######################################################################

data_TALFOD
_symmetry_cell_setting           monoclinic
_symmetry_space_group_name_H-M   'C c'
_symmetry_Int_Tables_number      9
_space_group_name_Hall           'C -2yc'
loop_
_symmetry_equiv_pos_site_id
_symmetry_equiv_pos_as_xyz
1 x,y,z
2 x,-y,1/2+z
3 1/2+x,1/2+y,z
4 1/2+x,1/2-y,1/2+z
_cell_length_a                   16.824(3)
_cell_length_b                   13.646(2)
_cell_length_c                   15.090(2)
_cell_angle_alpha                90
_cell_angle_beta                 111.192(3)
_cell_angle_gamma                90
_cell_volume                     3230.09
loop_
_atom_site_label
_atom_site_type_symbol
_atom_site_fract_x
_atom_site_fract_y
_atom_site_fract_z
Cu1 Cu 0.54963(6) 0.14877(7) 0.12035(6)
Cu2 Cu 0.46774(7) 0.20025(7) 0.22937(9)
Cu3 Cu 0.25634(6) 0.23713(8) -0.07464(8)
Cu4 Cu 1.34834(6) -0.11553(7) 0.25945(7)
Cu5 Cu -0.54068(6) 0.44796(7) -0.22373(7)
S1 S 0.79317(14) -0.0256(2) -0.09952(17)
S2 S 0.96286(13) 0.05545(17) 0.02044(18)
S3 S 0.01991(15) 0.4204(2) 0.15144(16)
S4 S -0.14528(14) 0.32577(17) 0.03837(17)
N1 N 0.6280(4) 0.0995(5) 0.0540(4)
N2 N 1.2288(4) -0.0612(5) 0.1835(4)
N3 N 0.1831(4) 0.2647(6) 0.0127(5)
N4 N -0.4120(4) 0.4126(5) -0.1535(5)
N5 N 0.3679(5) 0.1935(5) -0.0054(5)
N6 N 0.6702(4) 0.2282(6) 0.3070(5)
N7 N 1.4085(4) 0.0087(6) 0.2840(5)
N8 N -0.5487(5) 0.6622(5) -0.2683(5)
N9 N -0.5944(4) 0.3257(5) -0.2233(5)
C1 C 0.7118(5) 0.0923(6) 0.0978(6)
H1 H 0.7351 0.1146 0.1601
C2 C 0.7663(4) 0.0547(6) 0.0583(5)
H2 H 0.8245 0.0516 0.0935
C3 C 0.7352(5) 0.0219(6) -0.0330(6)
C4 C 0.6455(5) 0.0275(6) -0.0814(5)
H3 H 0.6207 0.0050 -0.1435
C5 C 0.5969(5) 0.0660(6) -0.0361(5)
H4 H 0.5384 0.0696 -0.0690
C6 C 0.8961(5) -0.0530(6) -0.0124(6)
H5 H 0.9239 -0.1020 -0.0377
H6 H 0.8891 -0.0801 0.0438
C7 C 1.0635(5) 0.0057(6) 0.0836(6)
C8 C 1.1264(5) 0.0689(6) 0.1343(6)
H7 H 1.1151 0.1353 0.1365
C9 C 1.2083(5) 0.0319(6) 0.1829(6)
H8 H 1.2508 0.0757 0.2167
C10 C 1.1674(5) -0.1219(6) 0.1327(6)
H9 H 1.1804 -0.1879 0.1311
C11 C 1.0856(6) -0.0916(6) 0.0825(7)
H10 H 1.0450 -0.1367 0.0476
C12 C 0.0983(5) 0.2682(6) -0.0298(6)
H11 H 0.0739 0.2385 -0.0889
C13 C 0.0455(5) 0.3124(6) 0.0082(5)
H12 H -0.0131 0.3124 -0.0250
C14 C 0.0789(5) 0.3574(6) 0.0958(6)
C15 C 0.1665(5) 0.3509(7) 0.1432(6)
H13 H 0.1917 0.3772 0.2038
C16 C 0.2165(5) 0.3045(7) 0.0991(6)
H14 H 0.2752 0.3012 0.1312
C17 C -0.0822(5) 0.4359(6) 0.0604(6)
H15 H -0.0747 0.4558 0.0022
H16 H -0.1125 0.4879 0.0786
C18 C -0.2444(5) 0.3660(6) -0.0398(6)
C19 C -0.3051(5) 0.2936(6) -0.0815(7)
H17 H -0.2900 0.2278 -0.0725
C20 C -0.3849(6) 0.3191(6) -0.1342(7)
H18 H -0.4244 0.2692 -0.1593
C21 C -0.3533(6) 0.4791(7) -0.1177(7)
H19 H -0.3694 0.5441 -0.1320
C22 C -0.2697(5) 0.4619(6) -0.0605(7)
H20 H -0.2316 0.5133 -0.0367
C23 C 0.4355(5) 0.1723(5) 0.0399(5)
C24 C 0.6174(5) 0.1946(6) 0.2426(6)
C25 C 1.4340(5) 0.0821(6) 0.2694(6)
C26 C -0.5501(5) 0.5803(6) -0.2535(5)
C27 C -0.6182(5) 0.2468(6) -0.2267(5)
Cu2_2 Cu 1.46774(7) 0.20025(7) 0.22937(9)
Cu2A Cu -0.53226(7) 0.79975(7) -0.27063(9)
Cu3C Cu 0.75634(6) 0.26287(8) 0.42536(8)
Cu4A Cu -0.65166(6) 0.11553(7) -0.24055(7)
N6C N 0.1702(4) 0.2718(6) -0.1930(5)
N8A N 0.4513(5) 0.3378(5) 0.2317(5)
C25_2 C 0.4340(5) 0.0821(6) 0.2694(6)
C27A C 1.3818(5) -0.2468(6) 0.2733(5)
loop_
_geom_bond_atom_site_label_1
_geom_bond_atom_site_label_2
_geom_bond_site_symmetry_1
_geom_bond_site_symmetry_2
Cu1 Cu2 1_555 1_555
Cu2 C24 1_555 1_555
Cu3 N3 1_555 1_555
Cu4 N2 1_555 1_555
Cu5 N4 1_555 1_555
S1 C3 1_555 1_555
S2 C6 1_555 1_555
S3 C14 1_555 1_555
S4 C17 1_555 1_555
N1 Cu1 1_555 1_555
N2 C9 1_555 1_555
N3 C12 1_555 1_555
N4 C20 1_555 1_555
N5 Cu3 1_555 1_555
N6 C24 1_555 1_555
N7 Cu4 1_555 1_555
N8 C26 1_555 1_555
N9 Cu5 1_555 1_555
C1 N1 1_555 1_555
H1 C1 1_555 1_555
C2 C1 1_555 1_555
H2 C2 1_555 1_555
C3 C2 1_555 1_555
C4 C3 1_555 1_555
H3 C4 1_555 1_555
C5 N1 1_555 1_555
H4 C5 1_555 1_555
C6 S1 1_555 1_555
H5 C6 1_555 1_555
H6 C6 1_555 1_555
C7 S2 1_555 1_555
C8 C7 1_555 1_555
H7 C8 1_555 1_555
C9 C8 1_555 1_555
H8 C9 1_555 1_555
C10 N2 1_555 1_555
H9 C10 1_555 1_555
C11 C7 1_555 1_555
H10 C11 1_555 1_555
C12 H11 1_555 1_555
C13 C12 1_555 1_555
H12 C13 1_555 1_555
C14 C13 1_555 1_555
C15 C14 1_555 1_555
H13 C15 1_555 1_555
C16 N3 1_555 1_555
H14 C16 1_555 1_555
C17 S3 1_555 1_555
H15 C17 1_555 1_555
H16 C17 1_555 1_555
C18 S4 1_555 1_555
C19 C18 1_555 1_555
H17 C19 1_555 1_555
C20 C19 1_555 1_555
H18 C20 1_555 1_555
C21 N4 1_555 1_555
H19 C21 1_555 1_555
C22 C18 1_555 1_555
H20 C22 1_555 1_555
C23 Cu1 1_555 1_555
C24 Cu1 1_555 1_555
C25 N7 1_555 1_555
C26 Cu5 1_555 1_555
C27 N9 1_555 1_555
Cu2_2 C25 1_555 1_555
Cu2A N8 1_555 1_555
Cu3C N6 1_555 1_555
Cu4A C27 1_555 1_555
N6C Cu3 1_555 1_555
N8A Cu2 1_555 1_555
C25_2 Cu2 1_555 1_555
C27A Cu4 1_555 1_555
N5 C23 1_555 1_555
C4 C5 1_555 1_555
C10 C11 1_555 1_555
C15 C16 1_555 1_555
C21 C22 1_555 1_555

#END
