
#######################################################################
#
#                 Cambridge Crystallographic Data Centre
#                                CCDC 
#
#######################################################################
#
# If this CIF has been generated from an entry in the Cambridge 
# Structural Database, then it will include bibliographic, chemical, 
# crystal, experimental, refinement or atomic coordinate data resulting 
# from the CCDC's data processing and validation procedures.
#
#######################################################################

data_TALHOE
_symmetry_cell_setting           monoclinic
_symmetry_space_group_name_H-M   'P 21/n'
_symmetry_Int_Tables_number      14
_space_group_name_Hall           '-P 2yn'
loop_
_symmetry_equiv_pos_site_id
_symmetry_equiv_pos_as_xyz
1 x,y,z
2 1/2-x,1/2+y,1/2-z
3 -x,-y,-z
4 1/2+x,1/2-y,1/2+z
_cell_length_a                   15.7158(6)
_cell_length_b                   21.8620(8)
_cell_length_c                   23.7775(9)
_cell_angle_alpha                90
_cell_angle_beta                 108.778(8)
_cell_angle_gamma                90
_cell_volume                     7734.61
loop_
_atom_site_label
_atom_site_type_symbol
_atom_site_fract_x
_atom_site_fract_y
_atom_site_fract_z
Cu1 Cu 0.24027(4) 0.74140(2) 0.20986(3)
Cu2 Cu 0.36021(4) 0.99271(2) 0.25344(2)
Cu3 Cu 0.48786(4) 0.93076(3) 0.17119(3)
Cu4 Cu -0.05042(4) 0.55813(3) 0.16474(3)
Cu5 Cu -0.03275(4) 0.55820(3) 0.30079(3)
Cu6 Cu 0.60785(4) 0.92308(3) 0.30671(3)
N1 N -0.1481(3) 0.56283(19) 0.24591(19)
N2 N -0.1577(3) 0.57128(18) 0.18590(19)
N3 N -0.2927(3) 0.5540(2) 0.1957(2)
N4 N 0.6591(3) 0.8982(2) 0.2494(2)
N5 N 0.6092(3) 0.9033(2) 0.19076(19)
N6 N 0.7242(4) 0.8415(2) 0.1977(3)
N7 N -0.0480(3) 0.43323(17) 0.13809(18)
N8 N -0.0182(3) 0.48866(17) 0.12380(17)
N9 N 0.0526(4) 0.4135(2) 0.09308(19)
N10 N 0.3516(3) 0.90918(14) 0.23431(15)
N11 N 0.4137(3) 0.87870(14) 0.21499(16)
N12 N 0.3032(3) 0.81463(14) 0.21305(16)
N13 N 0.3988(3) 0.98863(17) 0.12754(16)
N14 N 0.4184(3) 1.04930(16) 0.14385(15)
N15 N 0.2757(3) 1.0440(2) 0.08577(18)
N16 N 0.1403(2) 0.57593(13) 0.22749(15)
N17 N 0.0616(2) 0.60739(14) 0.20098(15)
N18 N 0.1765(2) 0.66862(13) 0.20620(16)
C1 C -0.2299(4) 0.5524(3) 0.2493(2)
C2 C -0.2468(4) 0.5371(3) 0.3056(3)
C3 C -0.3016(4) 0.4881(4) 0.3073(3)
H1 H -0.3304 0.4663 0.2729
C4 C -0.3135(6) 0.4715(4) 0.3611(4)
H2 H -0.3484 0.4377 0.3628
C5 C -0.2739(8) 0.5051(6) 0.4112(5)
H3 H -0.2831 0.4950 0.4468
C6 C -0.2193(9) 0.5551(6) 0.4085(4)
H4 H -0.1918 0.5780 0.4424
C7 C -0.2064(7) 0.5700(5) 0.3564(4)
H5 H -0.1697 0.6030 0.3551
C8 C -0.2454(4) 0.5666(2) 0.1590(2)
C9 C -0.2867(4) 0.5766(3) 0.0945(2)
C10 C -0.3726(5) 0.5552(3) 0.0660(3)
H6 H -0.4042 0.5336 0.0866
C11 C -0.4102(7) 0.5668(5) 0.0058(4)
H7 H -0.4669 0.5512 -0.0143
C12 C -0.3669(8) 0.6003(6) -0.0252(4)
H8 H -0.3950 0.6088 -0.0652
C13 C -0.2837(7) 0.6206(5) 0.0026(4)
H9 H -0.2526 0.6417 -0.0187
C14 C -0.2429(5) 0.6103(4) 0.0638(3)
H10 H -0.1863 0.6264 0.0833
C15 C 0.7277(4) 0.8608(3) 0.2513(3)
C16 C 0.7948(5) 0.8426(3) 0.3083(4)
C17 C 0.8359(7) 0.7866(5) 0.3124(5)
H11 H 0.8228 0.7601 0.2801
C18 C 0.8990(9) 0.7708(7) 0.3677(7)
H12 H 0.9333 0.7355 0.3707
C19 C 0.9109(9) 0.8058(8) 0.4164(7)
H13 H 0.9450 0.7913 0.4537
C20 C 0.8742(6) 0.8598(6) 0.4110(5)
H14 H 0.8877 0.8855 0.4440
C21 C 0.8157(5) 0.8799(4) 0.3574(4)
H15 H 0.7905 0.9188 0.3546
C22 C 0.6502(4) 0.8691(3) 0.1612(3)
C23 C 0.6173(4) 0.8629(3) 0.0956(3)
C24 C 0.6297(5) 0.8097(4) 0.0694(4)
H16 H 0.6598 0.7770 0.0923
C25 C 0.5960(6) 0.8047(5) 0.0068(5)
H17 H 0.6050 0.7696 -0.0127
C26 C 0.5498(8) 0.8537(6) -0.0238(5)
H18 H 0.5248 0.8501 -0.0649
C27 C 0.5381(7) 0.9055(5) 0.0005(3)
H19 H 0.5079 0.9379 -0.0228
C28 C 0.5708(6) 0.9109(4) 0.0605(3)
H20 H 0.5622 0.9471 0.0784
C29 C -0.0038(4) 0.3903(3) 0.1191(2)
C30 C -0.0227(6) 0.3240(3) 0.1257(3)
C31 C 0.0454(7) 0.2834(3) 0.1367(3)
H21 H 0.1029 0.2964 0.1395
C32 C 0.0282(9) 0.2198(4) 0.1441(4)
H22 H 0.0738 0.1907 0.1521
C33 C -0.0571(11) 0.2044(5) 0.1388(5)
H23 H -0.0689 0.1632 0.1430
C34 C -0.1262(9) 0.2433(4) 0.1280(4)
H24 H -0.1835 0.2299 0.1256
C35 C -0.1091(7) 0.3045(3) 0.1205(3)
H25 H -0.1558 0.3327 0.1119
C36 C 0.0413(4) 0.4744(3) 0.0969(2)
C37 C 0.0896(4) 0.5181(3) 0.0718(2)
C38 C 0.1620(6) 0.5009(4) 0.0566(4)
H26 H 0.1814 0.4606 0.0625
C39 C 0.2080(7) 0.5421(7) 0.0325(4)
H27 H 0.2583 0.5291 0.0233
C40 C 0.1805(8) 0.6009(6) 0.0222(4)
H28 H 0.2119 0.6284 0.0064
C41 C 0.1078(7) 0.6188(4) 0.0350(3)
H29 H 0.0880 0.6590 0.0280
C42 C 0.0610(5) 0.5773(3) 0.0590(3)
H30 H 0.0093 0.5902 0.0665
C43 C 0.2867(3) 0.87019(17) 0.23344(18)
C44 C 0.2071(3) 0.88617(17) 0.2505(2)
C45 C 0.1229(4) 0.8648(2) 0.2186(3)
H31 H 0.1157 0.8400 0.1856
C46 C 0.0496(4) 0.8801(3) 0.2353(3)
H32 H -0.0068 0.8649 0.2139
C47 C 0.0588(5) 0.9171(3) 0.2827(4)
H33 H 0.0087 0.9273 0.2935
C48 C 0.1415(5) 0.9395(3) 0.3147(3)
H34 H 0.1475 0.9651 0.3469
C49 C 0.2162(4) 0.9239(2) 0.2989(2)
H35 H 0.2726 0.9388 0.3207
C50 C 0.3835(3) 0.82263(18) 0.20322(19)
C51 C 0.4308(4) 0.77433(19) 0.1815(2)
C52 C 0.5216(4) 0.7665(2) 0.2076(3)
H36 H 0.5528 0.7910 0.2396
C53 C 0.5671(5) 0.7228(3) 0.1869(4)
H37 H 0.6286 0.7176 0.2051
C54 C 0.5219(8) 0.6870(3) 0.1399(5)
H38 H 0.5530 0.6582 0.1252
C55 C 0.4335(7) 0.6932(3) 0.1148(4)
H39 H 0.4033 0.6681 0.0830
C56 C 0.3849(5) 0.7369(2) 0.1354(3)
H40 H 0.3230 0.7404 0.1181
C57 C 0.3132(4) 0.9887(2) 0.0930(2)
C58 C 0.2626(5) 0.9325(3) 0.0662(3)
C59 C 0.1691(6) 0.9347(5) 0.0490(4)
H41 H 0.1403 0.9697 0.0560
C60 C 0.1183(9) 0.8836(8) 0.0208(5)
H42 H 0.0558 0.8829 0.0081
C61 C 0.1695(11) 0.8343(6) 0.0136(5)
H43 H 0.1374 0.7994 -0.0029
C62 C 0.2572(8) 0.8304(4) 0.0270(4)
H44 H 0.2846 0.7955 0.0186
C63 C 0.3085(6) 0.8825(3) 0.0550(3)
H45 H 0.3708 0.8828 0.0653
C64 C 0.3426(3) 1.0799(2) 0.1179(2)
C65 C 0.3317(4) 1.1456(2) 0.1238(2)
C66 C 0.2537(5) 1.1733(3) 0.0875(4)
H46 H 0.2087 1.1502 0.0611
C67 C 0.2440(8) 1.2361(4) 0.0914(5)
H47 H 0.1925 1.2551 0.0667
C68 C 0.3096(8) 1.2710(4) 0.1312(4)
H48 H 0.3023 1.3131 0.1331
C69 C 0.3835(7) 1.2440(3) 0.1668(3)
H49 H 0.4273 1.2670 0.1943
C70 C 0.3948(5) 1.1806(3) 0.1627(2)
H50 H 0.4469 1.1623 0.1872
C71 C 0.2079(3) 0.61365(16) 0.23012(18)
C72 C 0.3026(3) 0.59527(17) 0.2534(2)
C73 C 0.3600(4) 0.6098(2) 0.2227(3)
H51 H 0.3397 0.6322 0.1877
C74 C 0.4493(4) 0.5908(3) 0.2445(4)
H52 H 0.4889 0.6015 0.2243
C75 C 0.4787(4) 0.5571(3) 0.2943(4)
H53 H 0.5380 0.5437 0.3077
C76 C 0.4230(5) 0.5426(3) 0.3249(3)
H54 H 0.4441 0.5196 0.3595
C77 C 0.3335(4) 0.5620(2) 0.3049(3)
H55 H 0.2951 0.5524 0.3264
C78 C 0.0860(3) 0.66220(17) 0.18897(18)
C79 C 0.0188(3) 0.70927(18) 0.1583(2)
C80 C 0.0295(4) 0.7430(2) 0.1128(2)
H56 H 0.0811 0.7388 0.1020
C81 C -0.0381(5) 0.7841(3) 0.0824(3)
H57 H -0.0311 0.8069 0.0512
C82 C -0.1124(5) 0.7911(3) 0.0973(3)
H58 H -0.1574 0.8177 0.0758
C83 C -0.1223(4) 0.7594(3) 0.1440(3)
H59 H -0.1728 0.7660 0.1554
C84 C -0.0579(3) 0.7173(2) 0.1747(2)
H60 H -0.0659 0.6948 0.2058
Cu2A Cu 0.13979(4) 0.49271(2) 0.24656(2)
Cu5A Cu 0.53275(4) 1.05820(3) 0.19921(3)
Cu6A Cu -0.10785(4) 0.42308(3) 0.19329(3)
N7A N 0.5480(3) 0.93323(17) 0.36191(18)
N14A N 0.0816(3) 0.54930(16) 0.35615(15)
N16A N 0.3597(2) 1.07593(13) 0.27251(15)
loop_
_geom_bond_atom_site_label_1
_geom_bond_atom_site_label_2
_geom_bond_site_symmetry_1
_geom_bond_site_symmetry_2
Cu1 N12 1_555 1_555
Cu2 N10 1_555 1_555
Cu3 N5 1_555 1_555
Cu4 N2 1_555 1_555
Cu5 N1 1_555 1_555
Cu6 N4 1_555 1_555
N1 N2 1_555 1_555
N2 C8 1_555 1_555
N3 C1 1_555 1_555
N4 N5 1_555 1_555
N5 C22 1_555 1_555
N6 C15 1_555 1_555
N7 N8 1_555 1_555
N8 Cu4 1_555 1_555
N9 C29 1_555 1_555
N10 N11 1_555 1_555
N11 Cu3 1_555 1_555
N12 C43 1_555 1_555
N13 Cu3 1_555 1_555
N14 N13 1_555 1_555
N15 C57 1_555 1_555
N16 N17 1_555 1_555
N17 Cu4 1_555 1_555
N18 Cu1 1_555 1_555
C1 N1 1_555 1_555
C2 C1 1_555 1_555
C3 C2 1_555 1_555
H1 C3 1_555 1_555
C4 C3 1_555 1_555
H2 C4 1_555 1_555
C5 C4 1_555 1_555
H3 C5 1_555 1_555
C6 C5 1_555 1_555
H4 C6 1_555 1_555
C7 C2 1_555 1_555
H5 C7 1_555 1_555
C8 N3 1_555 1_555
C9 C8 1_555 1_555
C10 C9 1_555 1_555
H6 C10 1_555 1_555
C11 C10 1_555 1_555
H7 C11 1_555 1_555
C12 C11 1_555 1_555
H8 C12 1_555 1_555
C13 C12 1_555 1_555
H9 C13 1_555 1_555
C14 C9 1_555 1_555
H10 C14 1_555 1_555
C15 N4 1_555 1_555
C16 C15 1_555 1_555
C17 C16 1_555 1_555
H11 C17 1_555 1_555
C18 C17 1_555 1_555
H12 C18 1_555 1_555
C19 C18 1_555 1_555
H13 C19 1_555 1_555
C20 C19 1_555 1_555
H14 C20 1_555 1_555
C21 C16 1_555 1_555
H15 C21 1_555 1_555
C22 N6 1_555 1_555
C23 C22 1_555 1_555
C24 C23 1_555 1_555
H16 C24 1_555 1_555
C25 C24 1_555 1_555
H17 C25 1_555 1_555
C26 C25 1_555 1_555
H18 C26 1_555 1_555
C27 C26 1_555 1_555
H19 C27 1_555 1_555
C28 C23 1_555 1_555
H20 C28 1_555 1_555
C29 N7 1_555 1_555
C30 C29 1_555 1_555
C31 C30 1_555 1_555
H21 C31 1_555 1_555
C32 C31 1_555 1_555
H22 C32 1_555 1_555
C33 C32 1_555 1_555
H23 C33 1_555 1_555
C34 C33 1_555 1_555
H24 C34 1_555 1_555
C35 C30 1_555 1_555
H25 C35 1_555 1_555
C36 N8 1_555 1_555
C37 C36 1_555 1_555
C38 C37 1_555 1_555
H26 C38 1_555 1_555
C39 C38 1_555 1_555
H27 C39 1_555 1_555
C40 C39 1_555 1_555
H28 C40 1_555 1_555
C41 C40 1_555 1_555
H29 C41 1_555 1_555
C42 C37 1_555 1_555
H30 C42 1_555 1_555
C43 N10 1_555 1_555
C44 C43 1_555 1_555
C45 C44 1_555 1_555
H31 C45 1_555 1_555
C46 C45 1_555 1_555
H32 C46 1_555 1_555
C47 C46 1_555 1_555
H33 C47 1_555 1_555
C48 C47 1_555 1_555
H34 C48 1_555 1_555
C49 C44 1_555 1_555
H35 C49 1_555 1_555
C50 N11 1_555 1_555
C51 C50 1_555 1_555
C52 C51 1_555 1_555
H36 C52 1_555 1_555
C53 C52 1_555 1_555
H37 C53 1_555 1_555
C54 C53 1_555 1_555
H38 C54 1_555 1_555
C55 C54 1_555 1_555
H39 C55 1_555 1_555
C56 C51 1_555 1_555
H40 C56 1_555 1_555
C57 N13 1_555 1_555
C58 C57 1_555 1_555
C59 C58 1_555 1_555
H41 C59 1_555 1_555
C60 C59 1_555 1_555
H42 C60 1_555 1_555
C61 C60 1_555 1_555
H43 C61 1_555 1_555
C62 C61 1_555 1_555
H44 C62 1_555 1_555
C63 C58 1_555 1_555
H45 C63 1_555 1_555
C64 N14 1_555 1_555
C65 C64 1_555 1_555
C66 C65 1_555 1_555
H46 C66 1_555 1_555
C67 C66 1_555 1_555
H47 C67 1_555 1_555
C68 C67 1_555 1_555
H48 C68 1_555 1_555
C69 C68 1_555 1_555
H49 C69 1_555 1_555
C70 C65 1_555 1_555
H50 C70 1_555 1_555
C71 N16 1_555 1_555
C72 C71 1_555 1_555
C73 C72 1_555 1_555
H51 C73 1_555 1_555
C74 C73 1_555 1_555
H52 C74 1_555 1_555
C75 C74 1_555 1_555
H53 C75 1_555 1_555
C76 C75 1_555 1_555
H54 C76 1_555 1_555
C77 C72 1_555 1_555
H55 C77 1_555 1_555
C78 N17 1_555 1_555
C79 C78 1_555 1_555
C80 C79 1_555 1_555
H56 C80 1_555 1_555
C81 C80 1_555 1_555
H57 C81 1_555 1_555
C82 C81 1_555 1_555
H58 C82 1_555 1_555
C83 C82 1_555 1_555
H59 C83 1_555 1_555
C84 C79 1_555 1_555
H60 C84 1_555 1_555
Cu2A N16 1_555 1_555
Cu5A N14 1_555 1_555
Cu6A N7 1_555 1_555
N7A Cu6 1_555 1_555
N14A Cu5 1_555 1_555
N16A Cu2 1_555 1_555
N9 C36 1_555 1_555
N12 C50 1_555 1_555
N15 C64 1_555 1_555
N18 C71 1_555 1_555
N18 C78 1_555 1_555
C6 C7 1_555 1_555
C13 C14 1_555 1_555
C20 C21 1_555 1_555
C27 C28 1_555 1_555
C34 C35 1_555 1_555
C41 C42 1_555 1_555
C48 C49 1_555 1_555
C55 C56 1_555 1_555
C62 C63 1_555 1_555
C69 C70 1_555 1_555
C76 C77 1_555 1_555
C83 C84 1_555 1_555

#END
