
#######################################################################
#
#                 Cambridge Crystallographic Data Centre
#                                CCDC 
#
#######################################################################
#
# If this CIF has been generated from an entry in the Cambridge 
# Structural Database, then it will include bibliographic, chemical, 
# crystal, experimental, refinement or atomic coordinate data resulting 
# from the CCDC's data processing and validation procedures.
#
#######################################################################

data_TALJAS
_symmetry_cell_setting           monoclinic
_symmetry_space_group_name_H-M   'P 2/c'
_symmetry_Int_Tables_number      13
_space_group_name_Hall           '-P 2yc'
loop_
_symmetry_equiv_pos_site_id
_symmetry_equiv_pos_as_xyz
1 x,y,z
2 -x,y,1/2-z
3 -x,-y,-z
4 x,-y,1/2+z
_cell_length_a                   17.4879(11)
_cell_length_b                   12.5107(8)
_cell_length_c                   21.5927(13)
_cell_angle_alpha                90
_cell_angle_beta                 93.6040(10)
_cell_angle_gamma                90
_cell_volume                     4714.83
loop_
_atom_site_label
_atom_site_type_symbol
_atom_site_fract_x
_atom_site_fract_y
_atom_site_fract_z
Cu1 Cu 0.44891(3) 1.47507(4) 0.06510(3)
Cu2 Cu 0.40875(3) 1.08074(4) -0.01238(3)
Cu3 Cu 0.5000 0.97463(6) 0.2500
N1 N 0.4013(2) 1.5340(3) -0.01200(17)
N2 N 0.4101(2) 1.6402(3) -0.02373(17)
N3 N 0.3128(2) 1.5766(3) -0.08764(17)
N4 N 0.3675(2) 1.9603(3) -0.07599(16)
N5 N 0.3381(2) 1.2022(3) -0.03245(17)
N6 N 0.4534(2) 1.0201(3) 0.06608(16)
N7 N 0.47798(19) 0.9138(3) 0.06605(15)
N8 N 0.4830(2) 0.9730(3) 0.16425(15)
N9 N 0.4378(2) 1.3504(3) 0.12007(17)
N10 N 0.5006(2) 0.5926(3) 0.12315(18)
C1 C 0.3419(3) 1.4981(4) -0.0500(2)
C2 C 0.3565(2) 1.6620(3) -0.06873(19)
C3 C 0.3148(2) 1.3889(3) -0.0526(2)
C4 C 0.2412(3) 1.3663(4) -0.0772(3)
H1 H 0.2091 1.4205 -0.0930
C5 C 0.2168(3) 1.2606(4) -0.0777(3)
H2 H 0.1681 1.2426 -0.0942
C6 C 0.2654(3) 1.1832(4) -0.0533(3)
H3 H 0.2470 1.1136 -0.0511
C7 C 0.3614(3) 1.3047(3) -0.0324(2)
H4 H 0.4114 1.3199 -0.0180
C8 C 0.3442(2) 1.7713(3) -0.0927(2)
C9 C 0.2966(3) 1.7944(4) -0.1447(2)
H5 H 0.2701 1.7404 -0.1665
C10 C 0.2895(3) 1.9013(4) -0.1637(2)
H6 H 0.2602 1.9186 -0.1998
C11 C 0.3256(2) 1.9801(3) -0.1293(2)
H7 H 0.3210 2.0504 -0.1431
C12 C 0.3762(3) 1.8575(3) -0.0592(2)
H8 H 0.4055 1.8428 -0.0228
C13 C 0.4566(2) 1.0529(3) 0.12429(18)
C14 C 0.4933(2) 0.8898(3) 0.12481(19)
C15 C 0.4396(2) 1.1620(3) 0.14482(18)
C16 C 0.4090(3) 1.1819(4) 0.2008(2)
H9 H 0.3986 1.1261 0.2275
C17 C 0.3940(3) 1.2866(4) 0.2167(2)
H10 H 0.3740 1.3022 0.2545
C18 C 0.4089(3) 1.3675(4) 0.1760(2)
H11 H 0.3987 1.4374 0.1875
C19 C 0.4540(2) 1.2484(3) 0.10671(19)
H12 H 0.4764 1.2346 0.0696
C20 C 0.5166(2) 0.7813(3) 0.14559(18)
C21 C 0.5686(3) 0.7580(4) 0.1943(2)
H13 H 0.5914 0.8125 0.2181
C22 C 0.5865(3) 0.6519(4) 0.2072(2)
H14 H 0.6227 0.6343 0.2390
C23 C 0.5489(3) 0.5711(3) 0.1713(2)
H15 H 0.5583 0.5001 0.1819
C24 C 0.4845(2) 0.6954(3) 0.1107(2)
H16 H 0.4503 0.7109 0.0771
Cu1A Cu 0.55109(3) 1.47507(4) 0.43490(3)
Cu1_2 Cu 0.44891(3) 0.47507(4) 0.06510(3)
Cu1A_2 Cu 0.55109(3) 0.47507(4) 0.43490(3)
Cu2A Cu 0.59125(3) 1.08074(4) 0.51238(3)
Cu2_2 Cu 0.40875(3) 2.08074(4) -0.01238(3)
Cu2B Cu 0.59125(3) 0.91926(4) 0.01238(3)
Cu2C Cu 0.40875(3) 0.91926(4) 0.48762(3)
Cu2_3 Cu 0.40875(3) 0.08074(4) -0.01238(3)
N1_2 N 0.4013(2) 0.5340(3) -0.01200(17)
N1A N 0.5987(2) 1.5340(3) 0.51200(17)
N2_2 N 0.4101(2) 0.6402(3) -0.02373(17)
N3_2 N 0.3128(2) 0.5766(3) -0.08764(17)
N4_2 N 0.3675(2) 0.9603(3) -0.07599(16)
N4A N 0.6325(2) 0.9603(3) 0.57599(16)
N5_2 N 0.3381(2) 0.2022(3) -0.03245(17)
N5A N 0.6619(2) 1.2022(3) 0.53245(17)
N6A N 0.5466(2) 1.0201(3) 0.43392(16)
N7A N 0.52202(19) 0.9138(3) 0.43395(15)
N7B N 0.52202(19) 1.0862(3) -0.06605(15)
N7C N 0.47798(19) 1.0862(3) 0.56605(15)
N8A N 0.5170(2) 0.9730(3) 0.33575(15)
N9A N 0.5622(2) 1.3504(3) 0.37993(17)
N10A N 0.4994(2) 0.5926(3) 0.37685(18)
N10_2 N 0.5006(2) 1.5926(3) 0.12315(18)
N10A_2 N 0.4994(2) 1.5926(3) 0.37685(18)
C1_2 C 0.3419(3) 0.4981(4) -0.0500(2)
C2_2 C 0.3565(2) 0.6620(3) -0.06873(19)
C3_2 C 0.3148(2) 0.3889(3) -0.0526(2)
C4_2 C 0.2412(3) 0.3663(4) -0.0772(3)
H1_2 H 0.2091 0.4205 -0.0930
C5_2 C 0.2168(3) 0.2606(4) -0.0777(3)
H2_2 H 0.1681 0.2426 -0.0942
C6_2 C 0.2654(3) 0.1832(4) -0.0533(3)
H3_2 H 0.2470 0.1136 -0.0511
C7_2 C 0.3614(3) 0.3047(3) -0.0324(2)
H4_2 H 0.4114 0.3199 -0.0180
C8_2 C 0.3442(2) 0.7713(3) -0.0927(2)
C9_2 C 0.2966(3) 0.7944(4) -0.1447(2)
H5_2 H 0.2701 0.7404 -0.1665
C10_2 C 0.2895(3) 0.9013(4) -0.1637(2)
H6_2 H 0.2602 0.9186 -0.1998
C11_2 C 0.3256(2) 0.9801(3) -0.1293(2)
H7_2 H 0.3210 1.0504 -0.1431
C12_2 C 0.3762(3) 0.8575(3) -0.0592(2)
H8_2 H 0.4055 0.8428 -0.0228
C13A C 0.5434(2) 1.0529(3) 0.37571(18)
C14A C 0.5067(2) 0.8898(3) 0.37519(19)
C15A C 0.5604(2) 1.1620(3) 0.35518(18)
C16A C 0.5910(3) 1.1819(4) 0.2992(2)
H9A H 0.6014 1.1261 0.2725
C17A C 0.6060(3) 1.2866(4) 0.2833(2)
H10A H 0.6260 1.3022 0.2455
C18A C 0.5911(3) 1.3675(4) 0.3240(2)
H11A H 0.6013 1.4374 0.3125
C19A C 0.5460(2) 1.2484(3) 0.39329(19)
H12A H 0.5236 1.2346 0.4304
C20A C 0.4834(2) 0.7813(3) 0.35441(18)
C21A C 0.4314(3) 0.7580(4) 0.3057(2)
H13A H 0.4086 0.8125 0.2819
C22A C 0.4135(3) 0.6519(4) 0.2928(2)
H14A H 0.3773 0.6343 0.2610
C23A C 0.4511(3) 0.5711(3) 0.3287(2)
H15A H 0.4417 0.5001 0.3181
C24A C 0.5155(2) 0.6954(3) 0.3893(2)
H16A H 0.5497 0.7109 0.4229
Cu4 Cu 0.10222(3) 1.01009(4) 0.50826(3)
Cu5 Cu 0.02543(3) 1.40417(4) 0.44533(3)
Cu6 Cu 0.0000 0.91512(6) 0.2500
N11 N 0.0478(2) 0.9543(3) 0.43453(16)
N12 N 0.0249(2) 0.8474(3) 0.43305(17)
N13 N 0.0146(2) 0.9133(3) 0.33639(15)
N14 N 0.0513(2) 1.2866(3) 0.38855(18)
N15 N -0.0030(2) 0.5300(3) 0.37007(18)
N16 N 0.0878(2) 1.5715(3) 0.52681(17)
N17 N 0.0974(2) 1.4640(3) 0.51202(16)
N18 N 0.1961(2) 1.5110(3) 0.57768(18)
N19 N 0.1673(2) 1.1352(3) 0.53122(17)
N20 N 0.1360(2) 1.8910(3) 0.57253(18)
C25 C 0.0388(2) 0.9908(3) 0.37600(19)
C26 C 0.0073(2) 0.8278(3) 0.37447(19)
C27 C 0.0543(2) 1.1026(3) 0.35838(19)
C28 C 0.0847(3) 1.1281(4) 0.3035(2)
H17 H 0.0955 1.0749 0.2753
C29 C 0.0990(3) 1.2340(4) 0.2905(2)
H18 H 0.1202 1.2537 0.2537
C30 C 0.0807(3) 1.3107(4) 0.3342(2)
H19 H 0.0892 1.3822 0.3251
C31 C 0.0393(2) 1.1829(3) 0.3998(2)
H20 H 0.0199 1.1640 0.4374
C32 C -0.0168(2) 0.7199(3) 0.35311(19)
C33 C -0.0702(3) 0.7012(4) 0.3036(2)
H21 H -0.0941 0.7577 0.2822
C34 C -0.0868(3) 0.5959(4) 0.2869(2)
H22 H -0.1206 0.5807 0.2531
C35 C -0.0522(3) 0.5149(4) 0.3214(2)
H23 H -0.0640 0.4449 0.3099
C36 C 0.0155(3) 0.6304(3) 0.3853(2)
H24 H 0.0511 0.6421 0.4185
C37 C 0.1475(2) 1.5951(3) 0.56389(17)
C38 C 0.1622(2) 1.4326(4) 0.5432(2)
C39 C 0.1616(2) 1.7043(3) 0.5893(2)
C40 C 0.2028(3) 1.7272(4) 0.6437(2)
H25 H 0.2261 1.6728 0.6674
C41 C 0.2092(3) 1.8317(4) 0.6629(2)
H26 H 0.2361 1.8488 0.7001
C42 C 0.1755(3) 1.9102(4) 0.6268(2)
H27 H 0.1802 1.9806 0.6403
C43 C 0.1297(2) 1.7889(3) 0.5555(2)
H28 H 0.1021 1.7734 0.5183
C44 C 0.1907(2) 1.3223(3) 0.54424(19)
C45 C 0.2666(2) 1.3020(4) 0.5640(2)
H29 H 0.2999 1.3576 0.5753
C46 C 0.2912(3) 1.1973(4) 0.5665(2)
H30 H 0.3415 1.1810 0.5796
C47 C 0.2396(3) 1.1161(4) 0.5492(2)
H31 H 0.2568 1.0458 0.5503
C48 C 0.1429(3) 1.2373(3) 0.5301(2)
H32 H 0.0914 1.2509 0.5194
Cu4A Cu -0.10222(3) 1.01009(4) -0.00826(3)
Cu4_2 Cu 0.10222(3) 2.01009(4) 0.50826(3)
Cu4_3 Cu 0.10222(3) 0.01009(4) 0.50826(3)
Cu5A Cu -0.02543(3) 1.40417(4) 0.05467(3)
Cu5_2 Cu 0.02543(3) 0.40417(4) 0.44533(3)
Cu5B Cu -0.02543(3) 1.59583(4) 0.55467(3)
Cu5A_2 Cu -0.02543(3) 0.40417(4) 0.05467(3)
Cu5B_2 Cu -0.02543(3) 0.59583(4) 0.55467(3)
N11A N -0.0478(2) 0.9543(3) 0.06547(16)
N12A N -0.0249(2) 0.8474(3) 0.06695(17)
N13A N -0.0146(2) 0.9133(3) 0.16361(15)
N14A N -0.0513(2) 1.2866(3) 0.11145(18)
N15A N 0.0030(2) 0.5300(3) 0.12993(18)
N15_2 N -0.0030(2) 1.5300(3) 0.37007(18)
N15A_2 N 0.0030(2) 1.5300(3) 0.12993(18)
N16_2 N 0.0878(2) 0.5715(3) 0.52681(17)
N16B N -0.0878(2) 1.4285(3) 0.47319(17)
N16C N 0.0878(2) 1.4285(3) 0.02681(17)
N17_2 N 0.0974(2) 0.4640(3) 0.51202(16)
N17A N -0.0974(2) 1.4640(3) -0.01202(16)
N18_2 N 0.1961(2) 0.5110(3) 0.57768(18)
N19_2 N 0.1673(2) 0.1352(3) 0.53122(17)
N19A N -0.1673(2) 1.1352(3) -0.03122(17)
N20_2 N 0.1360(2) 0.8910(3) 0.57253(18)
N20A N -0.1360(2) 0.8910(3) -0.07253(18)
C25A C -0.0388(2) 0.9908(3) 0.12400(19)
C26A C -0.0073(2) 0.8278(3) 0.12553(19)
C27A C -0.0543(2) 1.1026(3) 0.14162(19)
C28A C -0.0847(3) 1.1281(4) 0.1965(2)
H17A H -0.0955 1.0749 0.2247
C29A C -0.0990(3) 1.2340(4) 0.2095(2)
H18A H -0.1202 1.2537 0.2463
C30A C -0.0807(3) 1.3107(4) 0.1658(2)
H19A H -0.0892 1.3822 0.1749
C31A C -0.0393(2) 1.1829(3) 0.1002(2)
H20A H -0.0199 1.1640 0.0626
C32A C 0.0168(2) 0.7199(3) 0.14689(19)
C33A C 0.0702(3) 0.7012(4) 0.1964(2)
H21A H 0.0941 0.7577 0.2178
C34A C 0.0868(3) 0.5959(4) 0.2131(2)
H22A H 0.1206 0.5807 0.2469
C35A C 0.0522(3) 0.5149(4) 0.1786(2)
H23A H 0.0640 0.4449 0.1901
C36A C -0.0155(3) 0.6304(3) 0.1147(2)
H24A H -0.0511 0.6421 0.0815
C37_2 C 0.1475(2) 0.5951(3) 0.56389(17)
C38_2 C 0.1622(2) 0.4326(4) 0.5432(2)
C39_2 C 0.1616(2) 0.7043(3) 0.5893(2)
C40_2 C 0.2028(3) 0.7272(4) 0.6437(2)
H25_2 H 0.2261 0.6728 0.6674
C41_2 C 0.2092(3) 0.8317(4) 0.6629(2)
H26_2 H 0.2361 0.8488 0.7001
C42_2 C 0.1755(3) 0.9102(4) 0.6268(2)
H27_2 H 0.1802 0.9806 0.6403
C43_2 C 0.1297(2) 0.7889(3) 0.5555(2)
H28_2 H 0.1021 0.7734 0.5183
C44_2 C 0.1907(2) 0.3223(3) 0.54424(19)
C45_2 C 0.2666(2) 0.3020(4) 0.5640(2)
H29_2 H 0.2999 0.3576 0.5753
C46_2 C 0.2912(3) 0.1973(4) 0.5665(2)
H30_2 H 0.3415 0.1810 0.5796
C47_2 C 0.2396(3) 0.1161(4) 0.5492(2)
H31_2 H 0.2568 0.0458 0.5503
C48_2 C 0.1429(3) 0.2373(3) 0.5301(2)
H32_2 H 0.0914 0.2509 0.5194
N21 N 0.2492(4) 0.8711(5) 0.2323(3)
O1 O 0.2516(4) 0.7715(4) 0.2363(3)
O2 O 0.3057(4) 0.9257(5) 0.2202(3)
O3 O 0.1851(3) 0.9146(4) 0.2436(3)
O4 O 0.2782(2) 0.5603(3) 0.19110(18)
H33 H 0.2722 0.6259 0.1999
H34 H 0.2458 0.5377 0.1631
O5 O 0.2318(3) 0.4359(3) 0.2886(2)
H35 H 0.2581 0.4692 0.2629
H36 H 0.2618 0.4230 0.3202
loop_
_geom_bond_atom_site_label_1
_geom_bond_atom_site_label_2
_geom_bond_site_symmetry_1
_geom_bond_site_symmetry_2
Cu1 N1 1_555 1_555
Cu2 N5 1_555 1_555
Cu3 N8 1_555 1_555
N1 N2 1_555 1_555
N2 C2 1_555 1_555
N3 C1 1_555 1_555
N4 C11 1_555 1_555
N5 C6 1_555 1_555
N6 Cu2 1_555 1_555
N7 N6 1_555 1_555
N8 C13 1_555 1_555
N9 Cu1 1_555 1_555
N10 C23 1_555 1_555
C1 N1 1_555 1_555
C2 N3 1_555 1_555
C3 C1 1_555 1_555
C4 C3 1_555 1_555
H1 C4 1_555 1_555
C5 C4 1_555 1_555
H2 C5 1_555 1_555
C6 C5 1_555 1_555
H3 C6 1_555 1_555
C7 N5 1_555 1_555
H4 C7 1_555 1_555
C8 C2 1_555 1_555
C9 C8 1_555 1_555
H5 C9 1_555 1_555
C10 C9 1_555 1_555
H6 C10 1_555 1_555
C11 C10 1_555 1_555
H7 C11 1_555 1_555
C12 N4 1_555 1_555
H8 C12 1_555 1_555
C13 N6 1_555 1_555
C14 N7 1_555 1_555
C15 C13 1_555 1_555
C16 C15 1_555 1_555
H9 C16 1_555 1_555
C17 C16 1_555 1_555
H10 C17 1_555 1_555
C18 N9 1_555 1_555
H11 C18 1_555 1_555
C19 N9 1_555 1_555
H12 C19 1_555 1_555
C20 C14 1_555 1_555
C21 C20 1_555 1_555
H13 C21 1_555 1_555
C22 C21 1_555 1_555
H14 C22 1_555 1_555
C23 C22 1_555 1_555
H15 C23 1_555 1_555
C24 N10 1_555 1_555
H16 C24 1_555 1_555
Cu4 N11 1_555 1_555
Cu5 N14 1_555 1_555
Cu6 N13 1_555 1_555
N11 N12 1_555 1_555
N12 C26 1_555 1_555
N13 C25 1_555 1_555
N14 C30 1_555 1_555
N15 C35 1_555 1_555
N16 N17 1_555 1_555
N17 Cu5 1_555 1_555
N18 C37 1_555 1_555
N19 Cu4 1_555 1_555
N20 C42 1_555 1_555
C25 N11 1_555 1_555
C26 N13 1_555 1_555
C27 C25 1_555 1_555
C28 C27 1_555 1_555
H17 C28 1_555 1_555
C29 C28 1_555 1_555
H18 C29 1_555 1_555
C30 C29 1_555 1_555
H19 C30 1_555 1_555
C31 N14 1_555 1_555
H20 C31 1_555 1_555
C32 C26 1_555 1_555
C33 C32 1_555 1_555
H21 C33 1_555 1_555
C34 C33 1_555 1_555
H22 C34 1_555 1_555
C35 C34 1_555 1_555
H23 C35 1_555 1_555
C36 N15 1_555 1_555
H24 C36 1_555 1_555
C37 N16 1_555 1_555
C38 N17 1_555 1_555
C39 C37 1_555 1_555
C40 C39 1_555 1_555
H25 C40 1_555 1_555
C41 C40 1_555 1_555
H26 C41 1_555 1_555
C42 C41 1_555 1_555
H27 C42 1_555 1_555
C43 N20 1_555 1_555
H28 C43 1_555 1_555
C44 C38 1_555 1_555
C45 C44 1_555 1_555
H29 C45 1_555 1_555
C46 C45 1_555 1_555
H30 C46 1_555 1_555
C47 N19 1_555 1_555
H31 C47 1_555 1_555
C48 N19 1_555 1_555
H32 C48 1_555 1_555
N21 O1 1_555 1_555
O2 N21 1_555 1_555
O3 N21 1_555 1_555
O4 H33 1_555 1_555
H34 O4 1_555 1_555
O5 H35 1_555 1_555
H36 O5 1_555 1_555
Cu1A N1A 1_555 1_555
Cu1_2 N10 1_555 1_555
Cu1A_2 N10A 1_555 1_555
Cu2A N4A 1_555 1_555
Cu2_2 N4 1_555 1_555
Cu2B N7 1_555 1_555
Cu2C N7A 1_555 1_555
Cu2_3 N5_2 1_555 1_555
N1_2 Cu1_2 1_555 1_555
N2_2 N1_2 1_555 1_555
N3_2 C1_2 1_555 1_555
N4_2 Cu2 1_555 1_555
N5_2 C6_2 1_555 1_555
N5A Cu2A 1_555 1_555
N6A Cu2A 1_555 1_555
N7A N6A 1_555 1_555
N7B Cu2 1_555 1_555
N7C Cu2A 1_555 1_555
N8A Cu3 1_555 1_555
N9A Cu1A 1_555 1_555
N10A C23A 1_555 1_555
N10_2 Cu1 1_555 1_555
N10A_2 Cu1A 1_555 1_555
C1_2 N1_2 1_555 1_555
C2_2 N2_2 1_555 1_555
C3_2 C1_2 1_555 1_555
C4_2 C3_2 1_555 1_555
H1_2 C4_2 1_555 1_555
C5_2 C4_2 1_555 1_555
H2_2 C5_2 1_555 1_555
C6_2 C5_2 1_555 1_555
H3_2 C6_2 1_555 1_555
C7_2 N5_2 1_555 1_555
H4_2 C7_2 1_555 1_555
C8_2 C2_2 1_555 1_555
C9_2 C8_2 1_555 1_555
H5_2 C9_2 1_555 1_555
C10_2 C9_2 1_555 1_555
H6_2 C10_2 1_555 1_555
C11_2 N4_2 1_555 1_555
H7_2 C11_2 1_555 1_555
C12_2 N4_2 1_555 1_555
H8_2 C12_2 1_555 1_555
C13A N6A 1_555 1_555
C14A N7A 1_555 1_555
C15A C13A 1_555 1_555
C16A C15A 1_555 1_555
H9A C16A 1_555 1_555
C17A C16A 1_555 1_555
H10A C17A 1_555 1_555
C18A N9A 1_555 1_555
H11A C18A 1_555 1_555
C19A N9A 1_555 1_555
H12A C19A 1_555 1_555
C20A C14A 1_555 1_555
C21A C20A 1_555 1_555
H13A C21A 1_555 1_555
C22A C21A 1_555 1_555
H14A C22A 1_555 1_555
C23A C22A 1_555 1_555
H15A C23A 1_555 1_555
C24A N10A 1_555 1_555
H16A C24A 1_555 1_555
Cu4A N11A 1_555 1_555
Cu4_2 N20 1_555 1_555
Cu4_3 N19_2 1_555 1_555
Cu5A N14A 1_555 1_555
Cu5_2 N15 1_555 1_555
Cu5B N16 1_555 1_555
Cu5A_2 N15A 1_555 1_555
Cu5B_2 N16_2 1_555 1_555
N11A N12A 1_555 1_555
N12A C26A 1_555 1_555
N13A Cu6 1_555 1_555
N14A C30A 1_555 1_555
N15A C35A 1_555 1_555
N15_2 Cu5 1_555 1_555
N15A_2 Cu5A 1_555 1_555
N16_2 N17_2 1_555 1_555
N16B Cu5 1_555 1_555
N16C Cu5A 1_555 1_555
N17_2 Cu5_2 1_555 1_555
N17A Cu5A 1_555 1_555
N18_2 C37_2 1_555 1_555
N19_2 C47_2 1_555 1_555
N19A Cu4A 1_555 1_555
N20_2 Cu4 1_555 1_555
N20A Cu4A 1_555 1_555
C25A N11A 1_555 1_555
C26A N13A 1_555 1_555
C27A C25A 1_555 1_555
C28A C27A 1_555 1_555
H17A C28A 1_555 1_555
C29A C28A 1_555 1_555
H18A C29A 1_555 1_555
C30A C29A 1_555 1_555
H19A C30A 1_555 1_555
C31A N14A 1_555 1_555
H20A C31A 1_555 1_555
C32A C26A 1_555 1_555
C33A C32A 1_555 1_555
H21A C33A 1_555 1_555
C34A C33A 1_555 1_555
H22A C34A 1_555 1_555
C35A C34A 1_555 1_555
H23A C35A 1_555 1_555
C36A N15A 1_555 1_555
H24A C36A 1_555 1_555
C37_2 N16_2 1_555 1_555
C38_2 N17_2 1_555 1_555
C39_2 C37_2 1_555 1_555
C40_2 C39_2 1_555 1_555
H25_2 C40_2 1_555 1_555
C41_2 C40_2 1_555 1_555
H26_2 C41_2 1_555 1_555
C42_2 N20_2 1_555 1_555
H27_2 C42_2 1_555 1_555
C43_2 N20_2 1_555 1_555
H28_2 C43_2 1_555 1_555
C44_2 C38_2 1_555 1_555
C45_2 C44_2 1_555 1_555
H29_2 C45_2 1_555 1_555
C46_2 C45_2 1_555 1_555
H30_2 C46_2 1_555 1_555
C47_2 C46_2 1_555 1_555
H31_2 C47_2 1_555 1_555
C48_2 N19_2 1_555 1_555
H32_2 C48_2 1_555 1_555
N8 C14 1_555 1_555
C3 C7 1_555 1_555
C8 C12 1_555 1_555
C15 C19 1_555 1_555
C17 C18 1_555 1_555
C20 C24 1_555 1_555
N18 C38 1_555 1_555
C27 C31 1_555 1_555
C32 C36 1_555 1_555
C39 C43 1_555 1_555
C44 C48 1_555 1_555
C46 C47 1_555 1_555
N3_2 C2_2 1_555 1_555
N8A C13A 1_555 1_555
N8A C14A 1_555 1_555
C3_2 C7_2 1_555 1_555
C8_2 C12_2 1_555 1_555
C10_2 C11_2 1_555 1_555
C15A C19A 1_555 1_555
C17A C18A 1_555 1_555
C20A C24A 1_555 1_555
N13A C25A 1_555 1_555
N18_2 C38_2 1_555 1_555
C27A C31A 1_555 1_555
C32A C36A 1_555 1_555
C39_2 C43_2 1_555 1_555
C41_2 C42_2 1_555 1_555
C44_2 C48_2 1_555 1_555

#END
