
#######################################################################
#
#                 Cambridge Crystallographic Data Centre
#                                CCDC 
#
#######################################################################
#
# If this CIF has been generated from an entry in the Cambridge 
# Structural Database, then it will include bibliographic, chemical, 
# crystal, experimental, refinement or atomic coordinate data resulting 
# from the CCDC's data processing and validation procedures.
#
#######################################################################

data_TALJUM
_symmetry_cell_setting           monoclinic
_symmetry_space_group_name_H-M   'P 21/n'
_symmetry_Int_Tables_number      14
_space_group_name_Hall           '-P 2yn'
loop_
_symmetry_equiv_pos_site_id
_symmetry_equiv_pos_as_xyz
1 x,y,z
2 1/2-x,1/2+y,1/2-z
3 -x,-y,-z
4 1/2+x,1/2-y,1/2+z
_cell_length_a                   20.4436(13)
_cell_length_b                   16.9489(11)
_cell_length_c                   23.1265(15)
_cell_angle_alpha                90
_cell_angle_beta                 112.0070(10)
_cell_angle_gamma                90
_cell_volume                     7429.39
loop_
_atom_site_label
_atom_site_type_symbol
_atom_site_fract_x
_atom_site_fract_y
_atom_site_fract_z
Cu1 Cu 0.54581(3) -0.18444(4) -1.05136(3)
Cu2 Cu 0.45822(3) -0.39922(4) -0.88425(3)
Cu3 Cu 0.93870(3) -0.29715(4) -0.34427(3)
Cu4 Cu 0.5000 -0.5000 -0.5000
Cu5 Cu 0.01491(3) -0.22870(4) -0.94210(3)
N1 N 0.5223(2) -0.2263(3) -1.13892(18)
N2 N 0.4790(2) -0.2325(2) -0.90432(18)
N3 N 0.5030(2) -0.2248(2) -0.99122(18)
C1 C 0.5200(3) -0.3660(3) -1.0057(2)
N4 N 0.4910(2) -0.3072(2) -0.9223(2)
N5 N -0.0321(2) -0.2964(3) -1.2554(2)
C2 C 0.4855(3) -0.1861(3) -0.9481(2)
N6 N 0.5258(2) -0.2752(3) -1.35501(19)
H1 H 0.5692 -0.2741 -1.3284
N7 N 0.1552(2) -0.3077(2) -1.50941(19)
C3 C 0.4787(3) -0.0978(3) -0.9450(2)
N8 N 0.5031(2) -0.4284(3) -0.79210(19)
N9 N 0.5429(2) -0.4941(2) -1.07100(19)
C4 C 0.5062(3) -0.3012(3) -0.9709(2)
C5 C 0.4977(3) 0.0214(3) -0.8921(2)
H2 H 0.5209 0.0489 -0.8546
N10 N 0.4544(2) 0.0651(2) -0.94158(18)
N11 N 0.4082(2) -0.2944(3) -1.36378(19)
C6 C 0.4818(3) -0.3775(3) -1.0692(2)
H3 H 0.4474 -0.3402 -1.0913
N12 N 0.3520(2) -0.3719(3) -0.90239(19)
N13 N 0.4158(2) -0.3016(3) -1.4645(2)
H4 H 0.3925 -0.3151 -1.5030
C7 C 0.5107(3) -0.0575(3) -0.8914(2)
H5 H 0.5408 -0.0829 -0.8550
N14 N 0.5966(2) -0.4685(3) -0.4681(2)
H6 H 0.6172 -0.4693 -0.4277
N15 N -0.0023(3) -0.2371(3) -1.0295(2)
H7 H -0.0401 -0.2140 -1.0550
N16 N 0.1084(2) -0.2666(3) -0.9255(2)
H8 H 0.1369 -0.2635 -0.8867
N17 N 0.6195(2) -0.4445(3) -0.5583(2)
N18 N 0.1016(2) -0.3055(3) -1.0269(2)
N19 N 0.8430(2) -0.3518(3) -0.39407(19)
C8 C 0.0330(3) -0.3144(3) -1.2174(2)
H9 H 0.0643 -0.3332 -1.2354
C9 C 0.5703(3) -0.4203(3) -0.9772(2)
H10 H 0.5983 -0.4147 -0.9346
C10 C 0.2094(3) -0.3274(4) -0.9416(2)
C11 C 0.4204(3) 0.0205(3) -0.9914(2)
H11 H 0.3877 0.0464 -1.0262
C12 C 0.5810(3) -0.4845(4) -1.0105(3)
H12 H 0.6159 -0.5219 -0.9897
C13 C 0.1359(3) -0.2955(4) -0.9621(3)
C14 C 0.3044(3) -0.3062(3) -1.4555(2)
C15 C 0.4929(3) -0.4408(3) -1.0997(2)
H13 H 0.4648 -0.4477 -1.1421
C16 C 0.4283(3) -0.0590(3) -0.9971(2)
H14 H 0.4017 -0.0864 -1.0337
C17 C 0.3191(3) -0.3656(4) -0.8627(2)
H15 H 0.3441 -0.3794 -0.8208
C18 C 0.2692(3) -0.3516(4) -1.5078(2)
H16 H 0.2941 -0.3841 -1.5254
C19 C 0.8099(3) -0.3394(3) -0.4542(2)
H17 H 0.8320 -0.3073 -0.4746
C20 C 0.0123(3) -0.2822(3) -1.1247(2)
C21 C 0.5394(3) -0.4538(3) -0.6649(2)
C22 C 0.3821(3) -0.3034(3) -1.4269(2)
C23 C 0.6371(3) -0.4457(4) -0.4984(2)
C24 C 0.5746(3) -0.3989(3) -0.6869(2)
H18 H 0.6124 -0.3700 -0.6588
C25 C 0.4943(3) -0.2650(3) -1.2634(2)
C26 C 0.4576(3) -0.2155(3) -1.1837(2)
H19 H 0.4216 -0.1946 -1.1723
C27 C 0.7113(3) -0.4140(3) -0.4612(2)
C28 C 0.4785(3) -0.2792(3) -1.3304(2)
N20 N 0.5004(2) -0.4832(3) -0.5808(2)
H20 H 0.4599 -0.4891 -0.6115
C29 C 0.4739(3) -0.4837(3) -0.7710(2)
H21 H 0.4413 -0.5169 -0.8004
C30 C 0.5518(3) -0.4644(3) -0.5963(2)
C31 C 0.4869(3) -0.4973(3) -0.7093(2)
H22 H 0.4609 -0.5352 -0.6973
C32 C 0.5579(3) -0.2798(3) -1.2183(2)
H23 H 0.5939 -0.3037 -1.2281
C33 C 0.5545(3) -0.3868(3) -0.7493(2)
H24 H 0.5776 -0.3475 -0.7631
C34 C 0.5692(3) -0.2595(3) -1.1575(2)
H25 H 0.6140 -0.2701 -1.1270
C35 C 0.2503(3) -0.3400(4) -0.8794(2)
H26 H 0.2313 -0.3312 -0.8487
C36 C 0.3133(3) -0.3552(3) -0.9615(2)
H27 H 0.3354 -0.3534 -0.9905
C37 C 0.7456(3) -0.3700(3) -0.4884(2)
H28 H 0.7253 -0.3602 -0.5315
C38 C 0.0583(3) -0.3074(4) -1.1527(3)
H29 H 0.1056 -0.3196 -1.1283
C39 C 0.1952(3) -0.3475(4) -1.5338(2)
H30 H 0.1720 -0.3750 -1.5713
C40 C 0.0380(3) -0.2749(4) -1.0553(2)
C41 C 0.4430(3) -0.2331(4) -1.2430(2)
H31 H 0.3972 -0.2242 -1.2722
C42 C 0.2620(3) -0.2647(4) -1.4291(2)
H32 H 0.2834 -0.2342 -1.3929
C43 C -0.0536(3) -0.2632(4) -1.1604(2)
H33 H -0.0852 -0.2436 -1.1430
C44 C 0.1901(3) -0.2691(3) -1.4561(3)
H34 H 0.1635 -0.2435 -1.4362
C45 C 0.2400(3) -0.3398(4) -0.9825(3)
H35 H 0.2128 -0.3383 -1.0255
C46 C -0.0751(3) -0.2737(4) -1.2276(3)
H36 H -0.1225 -0.2638 -1.2528
C47 C 0.7451(3) -0.4302(4) -0.4015(3)
H37 H 0.7240 -0.4632 -0.3808
C48 C 0.8125(3) -0.3984(4) -0.3686(3)
H38 H 0.8359 -0.4118 -0.3264
Cu1B Cu 0.45419(3) -0.81556(4) -0.94864(3)
Cu1C Cu 0.04581(3) -0.31556(4) -1.55136(3)
Cu1B_2 Cu 0.45419(3) 0.18444(4) -0.94864(3)
Cu1_2 Cu 0.54581(3) -1.18444(4) -1.05136(3)
Cu1C_2 Cu 1.04581(3) -0.31556(4) -0.55136(3)
Cu2B Cu 0.54178(3) -0.60078(4) -0.11575(3)
Cu2B_2 Cu 0.54178(3) -0.60078(4) -1.11575(3)
Cu2_2 Cu 1.45822(3) -0.39922(4) 0.11575(3)
Cu3B Cu 0.06130(3) -0.70285(4) -0.65573(3)
Cu3C Cu 0.43870(3) -0.20285(4) -0.84427(3)
Cu3_2 Cu -0.06130(3) -0.29715(4) -1.34427(3)
Cu3A Cu 0.56130(3) -0.79715(4) -1.15573(3)
Cu5_2 Cu 1.01491(3) -0.22870(4) 0.05790(3)
Cu5C Cu 0.51491(3) -0.27130(4) -1.44210(3)
Cu5_3 Cu 1.01491(3) -0.22870(4) -0.94210(3)
N1C N 1.0223(2) -0.2737(3) -0.63892(18)
N1B N 0.4777(2) -0.7737(3) -0.86108(18)
N2B N 0.5210(2) -0.7675(2) -1.09568(18)
N2C N 0.9790(2) -0.2675(2) -0.40432(18)
N2A N 0.0210(2) -0.7325(2) -0.59568(18)
N3B N 0.4970(2) -0.7752(2) -1.00878(18)
C1B C 0.4800(3) -0.6340(3) -0.9943(2)
N4B N 0.5090(2) -0.6928(2) -1.0777(2)
N4B_2 N 0.5090(2) -0.6928(2) -0.0777(2)
N5_2 N 0.9679(2) -0.2964(3) -0.2554(2)
N5B N 0.0321(2) -0.7036(3) -0.7446(2)
C2B C 0.5145(3) -0.8139(3) -1.0519(2)
N6C N 1.0258(2) -0.2248(3) -0.85501(19)
N6C_2 N 0.0258(2) -0.2248(3) -0.85501(19)
N6C_3 N 1.0258(2) -0.2248(3) 0.14499(19)
H1C H 1.0692 -0.2259 -0.8284
H1C_2 H 0.0692 -0.2259 -0.8284
H1C_3 H 1.0692 -0.2259 0.1716
N7C N 0.6552(2) -0.1923(2) -1.00941(19)
N7A N 0.3448(2) -0.8077(2) -0.99059(19)
C3B C 0.5213(3) -0.9022(3) -1.0550(2)
N8B N 0.4969(2) -0.5716(3) -0.20790(19)
N9B N 0.4571(2) -0.5059(2) -0.92900(19)
N9_2 N 0.5429(2) -0.4941(2) -0.07100(19)
C4B C 0.4938(3) -0.6988(3) -1.0291(2)
C5B C 0.5023(3) -1.0214(3) -1.1079(2)
H2B H 0.4791 -1.0489 -1.1454
N10B N 0.5456(2) -1.0651(2) -1.05842(18)
N10B_2 N 0.5456(2) -0.0651(2) -1.05842(18)
N10_2 N 0.4544(2) -0.9349(2) -0.94158(18)
N11C N 0.9082(2) -0.2056(3) -0.86378(19)
C6B C 0.5182(3) -0.6225(3) -0.9308(2)
H3B H 0.5526 -0.6598 -0.9087
N12_2 N 1.3520(2) -0.3719(3) 0.09761(19)
N12B N 0.6480(2) -0.6281(3) -0.09761(19)
N13C N 0.9158(2) -0.1984(3) -0.9645(2)
N13C_2 N -0.0842(2) -0.1984(3) -0.9645(2)
N13C_3 N 0.9158(2) -0.1984(3) 0.0355(2)
H4C H 0.8925 -0.1849 -1.0030
H4C_2 H -0.1075 -0.1849 -1.0030
H4C_3 H 0.8925 -0.1849 -0.0030
C7B C 0.4893(3) -0.9425(3) -1.1086(2)
H5B H 0.4592 -0.9171 -1.1450
N14B N 0.4034(2) -0.5315(3) -0.5319(2)
H6B H 0.3828 -0.5307 -0.5723
N15_2 N 0.9977(3) -0.2371(3) -0.0295(2)
H7_2 H 0.9599 -0.2140 -0.0550
N16_2 N 1.1084(2) -0.2666(3) 0.0745(2)
H8_2 H 1.1369 -0.2635 0.1133
N17B N 0.3805(2) -0.5555(3) -0.4417(2)
N18_2 N 1.1016(2) -0.3055(3) -0.0269(2)
N19B N 0.1570(2) -0.6482(3) -0.60593(19)
C8_2 C 1.0330(3) -0.3144(3) -0.2174(2)
H9_2 H 1.0643 -0.3332 -0.2354
C9B C 0.4297(3) -0.5797(3) -1.0228(2)
H10B H 0.4017 -0.5853 -1.0654
C10_2 C 1.2094(3) -0.3274(4) 0.0584(2)
C11B C 0.5796(3) -1.0205(3) -1.0086(2)
H11B H 0.6123 -1.0464 -0.9738
C12B C 0.4190(3) -0.5155(4) -0.9895(3)
H12B H 0.3841 -0.4781 -1.0103
C13_2 C 1.1359(3) -0.2955(4) 0.0379(3)
C14C C 0.8044(3) -0.1938(3) -0.9555(2)
C15B C 0.5071(3) -0.5592(3) -0.9003(2)
H13B H 0.5352 -0.5523 -0.8579
C16B C 0.5717(3) -0.9410(3) -1.0029(2)
H14B H 0.5983 -0.9136 -0.9663
C17_2 C 1.3191(3) -0.3656(4) 0.1373(2)
H15_2 H 1.3441 -0.3794 0.1792
C18C C 0.7692(3) -0.1484(4) -1.0078(2)
H16C H 0.7941 -0.1159 -1.0254
C19B C 0.1901(3) -0.6606(3) -0.5458(2)
H17B H 0.1680 -0.6927 -0.5254
C20_2 C 1.0123(3) -0.2822(3) -0.1247(2)
C21B C 0.4606(3) -0.5462(3) -0.3351(2)
C22C C 0.8821(3) -0.1966(3) -0.9269(2)
C23B C 0.3629(3) -0.5543(4) -0.5016(2)
C24B C 0.4254(3) -0.6011(3) -0.3131(2)
H18B H 0.3876 -0.6300 -0.3412
C25C C 0.9943(3) -0.2350(3) -0.7634(2)
C26C C 0.9576(3) -0.2845(3) -0.6837(2)
H19C H 0.9216 -0.3054 -0.6723
C27B C 0.2887(3) -0.5860(3) -0.5388(2)
C28C C 0.9785(3) -0.2208(3) -0.8304(2)
N20B N 0.4996(2) -0.5168(3) -0.4192(2)
H20B H 0.5401 -0.5109 -0.3885
C29B C 0.5261(3) -0.5163(3) -0.2290(2)
H21B H 0.5587 -0.4831 -0.1996
C30B C 0.4482(3) -0.5356(3) -0.4037(2)
C31B C 0.5131(3) -0.5027(3) -0.2907(2)
H22B H 0.5391 -0.4648 -0.3027
C32C C 1.0579(3) -0.2202(3) -0.7183(2)
H23C H 1.0939 -0.1963 -0.7281
C33B C 0.4455(3) -0.6132(3) -0.2507(2)
H24B H 0.4224 -0.6525 -0.2369
C34C C 1.0692(3) -0.2405(3) -0.6575(2)
H25C H 1.1140 -0.2299 -0.6270
C35_2 C 1.2503(3) -0.3400(4) 0.1206(2)
H26_2 H 1.2313 -0.3312 0.1513
C36_2 C 1.3133(3) -0.3552(3) 0.0385(2)
H27_2 H 1.3354 -0.3534 0.0095
C37B C 0.2544(3) -0.6300(3) -0.5116(2)
H28B H 0.2747 -0.6398 -0.4685
C38_2 C 1.0583(3) -0.3074(4) -0.1527(3)
H29_2 H 1.1056 -0.3196 -0.1283
C39C C 0.6952(3) -0.1525(4) -1.0338(2)
H30C H 0.6720 -0.1250 -1.0713
C40_2 C 1.0380(3) -0.2749(4) -0.0553(2)
C41C C 0.9430(3) -0.2669(4) -0.7430(2)
H31C H 0.8972 -0.2758 -0.7722
C42C C 0.7620(3) -0.2353(4) -0.9291(2)
H32C H 0.7834 -0.2658 -0.8929
C43_2 C 0.9464(3) -0.2632(4) -0.1604(2)
H33_2 H 0.9148 -0.2436 -0.1430
C44C C 0.6901(3) -0.2309(3) -0.9561(3)
H34C H 0.6635 -0.2565 -0.9362
C45_2 C 1.2400(3) -0.3398(4) 0.0175(3)
H35_2 H 1.2128 -0.3383 -0.0255
C46_2 C 0.9249(3) -0.2737(4) -0.2276(3)
H36_2 H 0.8775 -0.2638 -0.2528
C47B C 0.2549(3) -0.5698(4) -0.5985(3)
H37B H 0.2760 -0.5368 -0.6192
C48B C 0.1875(3) -0.6016(4) -0.6314(3)
H38B H 0.1641 -0.5882 -0.6736
B1 B 0.8188(6) -0.1116(8) -0.1668(5)
F1 F 0.8588(3) -0.1534(4) -0.1128(2)
F2 F 0.8095(3) -0.1622(4) -0.2171(2)
F3 F 0.8478(3) -0.0406(4) -0.1726(2)
F4 F 0.7545(4) -0.1024(4) -0.1652(3)
B2 B 0.2804(9) -0.2367(9) -0.1333(7)
F5 F 0.2156(3) -0.2119(4) -0.1450(3)
F6 F 0.2974(4) -0.2354(5) -0.1826(3)
F7 F 0.3261(4) -0.1912(4) -0.0876(3)
F8 F 0.2863(4) -0.3112(4) -0.1114(3)
B3 B 0.3328(10) 0.2497(11) -0.2074(8)
F9 F 0.2987(5) 0.3117(4) -0.1900(4)
F10 F 0.3039(4) 0.2499(5) -0.2730(4)
F11 F 0.3209(4) 0.1858(5) -0.1855(4)
F12 F 0.4005(5) 0.2681(6) -0.1908(4)
O1 O 0.3299(5) -0.3891(5) -0.3083(4)
H39 H 0.3228 -0.3725 -0.2765
O2 O 0.7665(5) 0.0067(5) 0.1087(5)
H40 H 0.7519 -0.0004 0.0695
O3 O 0.6902(5) -0.2826(6) -0.2821(4)
H42 H 0.6778 -0.2354 -0.2763
O5 O 0.8289(12) -0.0233(11) -0.7111(9)
H43 H 0.8711 -0.0400 -0.7003
O6 O 0.6886(11) -0.4053(12) -0.2402(9)
H44 H 0.7115 -0.4363 -0.2106
O11 O 0.4980(18) 0.0412(19) -0.6115(15)
H48 H 0.4736 0.0071 -0.6014
H49 H 0.5366 0.0472 -0.6168
O12 O 1.284(2) -0.071(3) 0.454(2)
H50 H 1.2392 -0.0654 0.4438
H51 H 1.3023 -0.0644 0.4937
O4? O 0.6776(9) -0.2251(11) -0.2843(9)
H41? H 0.6620 -0.2204 -0.2560
O7? O 0.7398(13) -0.4075(14) -0.2496(11)
O8? O 0.6797(16) -0.4589(17) -0.2261(12)
H45? H 0.7169 -0.4655 -0.1939
O9? O 0.2973(12) -0.4133(14) -0.1091(10)
H46? H 0.3037 -0.3729 -0.1281
O10? O 0.2954(11) -0.1234(13) -0.1397(9)
H47? H 0.2967 -0.1714 -0.1499
O13? O 0.7252(13) -0.1500(15) -0.1667(11)
H52? H 0.7342 -0.1276 -0.1463
O14? O 0.3094(14) -0.2899(16) -0.1711(12)
H53? H 0.2884 -0.3224 -0.2002
loop_
_geom_bond_atom_site_label_1
_geom_bond_atom_site_label_2
_geom_bond_site_symmetry_1
_geom_bond_site_symmetry_2
Cu1 N1 1_555 1_555
Cu2 N4 1_555 1_555
Cu3 N19 1_555 1_555
Cu4 N14 1_555 1_555
Cu5 N15 1_555 1_555
N1 C26 1_555 1_555
N2 N4 1_555 1_555
N3 Cu1 1_555 1_555
C1 C4 1_555 1_555
N4 C4 1_555 1_555
N5 C8 1_555 1_555
C2 N2 1_555 1_555
N6 H1 1_555 1_555
N7 C39 1_555 1_555
C3 C2 1_555 1_555
N8 Cu2 1_555 1_555
N9 C12 1_555 1_555
C4 N3 1_555 1_555
C5 H2 1_555 1_555
N10 C5 1_555 1_555
N11 C22 1_555 1_555
C6 C1 1_555 1_555
H3 C6 1_555 1_555
N12 Cu2 1_555 1_555
N13 H4 1_555 1_555
C7 C3 1_555 1_555
H5 C7 1_555 1_555
N14 H6 1_555 1_555
N15 H7 1_555 1_555
N16 Cu5 1_555 1_555
H8 N16 1_555 1_555
N17 C23 1_555 1_555
N18 C13 1_555 1_555
N19 C19 1_555 1_555
C8 H9 1_555 1_555
C9 C1 1_555 1_555
H10 C9 1_555 1_555
C10 C13 1_555 1_555
C11 N10 1_555 1_555
H11 C11 1_555 1_555
C12 C9 1_555 1_555
H12 C12 1_555 1_555
C13 N16 1_555 1_555
C14 C18 1_555 1_555
C15 N9 1_555 1_555
H13 C15 1_555 1_555
C16 C3 1_555 1_555
H14 C16 1_555 1_555
C17 N12 1_555 1_555
H15 C17 1_555 1_555
C18 H16 1_555 1_555
C19 H17 1_555 1_555
C20 C38 1_555 1_555
C21 C24 1_555 1_555
C22 N13 1_555 1_555
C23 N14 1_555 1_555
C24 H18 1_555 1_555
C25 C28 1_555 1_555
C26 H19 1_555 1_555
C27 C23 1_555 1_555
C28 N6 1_555 1_555
N20 Cu4 1_555 1_555
H20 N20 1_555 1_555
C29 N8 1_555 1_555
H21 C29 1_555 1_555
C30 N17 1_555 1_555
C31 C21 1_555 1_555
H22 C31 1_555 1_555
C32 C25 1_555 1_555
H23 C32 1_555 1_555
C33 N8 1_555 1_555
H24 C33 1_555 1_555
C34 N1 1_555 1_555
H25 C34 1_555 1_555
C35 C10 1_555 1_555
H26 C35 1_555 1_555
C36 N12 1_555 1_555
H27 C36 1_555 1_555
C37 C19 1_555 1_555
H28 C37 1_555 1_555
C38 C8 1_555 1_555
H29 C38 1_555 1_555
C39 C18 1_555 1_555
H30 C39 1_555 1_555
C40 N15 1_555 1_555
C41 C25 1_555 1_555
H31 C41 1_555 1_555
C42 C14 1_555 1_555
H32 C42 1_555 1_555
C43 C20 1_555 1_555
H33 C43 1_555 1_555
C44 N7 1_555 1_555
H34 C44 1_555 1_555
C45 C10 1_555 1_555
H35 C45 1_555 1_555
C46 N5 1_555 1_555
H36 C46 1_555 1_555
C47 C27 1_555 1_555
H37 C47 1_555 1_555
C48 N19 1_555 1_555
H38 C48 1_555 1_555
B1 F1 1_555 1_555
F2 B1 1_555 1_555
F3 B1 1_555 1_555
F4 B1 1_555 1_555
B2 F5 1_555 1_555
F6 B2 1_555 1_555
F7 B2 1_555 1_555
F8 B2 1_555 1_555
B3 F9 1_555 1_555
F10 B3 1_555 1_555
F11 B3 1_555 1_555
F12 B3 1_555 1_555
O1 H39 1_555 1_555
O2 H40 1_555 1_555
O3 H42 1_555 1_555
O5 H43 1_555 1_555
O6 H44 1_555 1_555
O11 H48 1_555 1_555
H49 O11 1_555 1_555
O12 H50 1_555 1_555
H51 O12 1_555 1_555
Cu1B N1B 1_555 1_555
Cu1C N7 1_555 1_555
Cu1B_2 N10 1_555 1_555
Cu1_2 N10B 1_555 1_555
Cu1C_2 N1C 1_555 1_555
Cu2B N4B_2 1_555 1_555
Cu2B_2 N9 1_555 1_555
Cu2_2 N12_2 1_555 1_555
Cu3B N2A 1_555 1_555
Cu3C N2 1_555 1_555
Cu3_2 N5 1_555 1_555
Cu3A N2B 1_555 1_555
Cu5_2 N6C_3 1_555 1_555
Cu5C N6 1_555 1_555
Cu5_3 N6C 1_555 1_555
N1C C26C 1_555 1_555
N2B N4B 1_555 1_555
N2C Cu3 1_555 1_555
N3B Cu1B 1_555 1_555
C1B C4B 1_555 1_555
N4B Cu2B_2 1_555 1_555
N5_2 Cu3 1_555 1_555
N5B Cu3B 1_555 1_555
C2B N2B 1_555 1_555
N6C H1C 1_555 1_555
N6C_2 Cu5 1_555 1_555
N6C_3 H1C_3 1_555 1_555
H1C_2 N6C_2 1_555 1_555
N7C Cu1 1_555 1_555
N7A Cu1B 1_555 1_555
C3B C2B 1_555 1_555
N8B Cu2B 1_555 1_555
N9B Cu2 1_555 1_555
N9_2 Cu2B 1_555 1_555
C4B N3B 1_555 1_555
C5B H2B 1_555 1_555
N10B C5B 1_555 1_555
N10B_2 Cu1 1_555 1_555
N10_2 Cu1B 1_555 1_555
N11C C22C 1_555 1_555
C6B C1B 1_555 1_555
H3B C6B 1_555 1_555
N12_2 C17_2 1_555 1_555
N12B Cu2B 1_555 1_555
N13C Cu5_3 1_555 1_555
N13C_2 Cu5 1_555 1_555
N13C_3 Cu5_2 1_555 1_555
H4C N13C 1_555 1_555
H4C_2 N13C_2 1_555 1_555
H4C_3 N13C_3 1_555 1_555
C7B C3B 1_555 1_555
H5B C7B 1_555 1_555
N14B Cu4 1_555 1_555
H6B N14B 1_555 1_555
N15_2 Cu5_2 1_555 1_555
H7_2 N15_2 1_555 1_555
N16_2 Cu5_2 1_555 1_555
H8_2 N16_2 1_555 1_555
N17B C23B 1_555 1_555
N18_2 C13_2 1_555 1_555
N19B Cu3B 1_555 1_555
C8_2 N5_2 1_555 1_555
H9_2 C8_2 1_555 1_555
C9B C1B 1_555 1_555
H10B C9B 1_555 1_555
C10_2 C13_2 1_555 1_555
C11B N10B 1_555 1_555
H11B C11B 1_555 1_555
C12B N9B 1_555 1_555
H12B C12B 1_555 1_555
C13_2 N16_2 1_555 1_555
C14C C18C 1_555 1_555
C15B N9B 1_555 1_555
H13B C15B 1_555 1_555
C16B C3B 1_555 1_555
H14B C16B 1_555 1_555
C17_2 H15_2 1_555 1_555
C18C H16C 1_555 1_555
C19B N19B 1_555 1_555
H17B C19B 1_555 1_555
C20_2 C38_2 1_555 1_555
C21B C24B 1_555 1_555
C22C N13C 1_555 1_555
C23B N14B 1_555 1_555
C24B H18B 1_555 1_555
C25C C28C 1_555 1_555
C26C H19C 1_555 1_555
C27B C23B 1_555 1_555
C28C N6C 1_555 1_555
N20B Cu4 1_555 1_555
H20B N20B 1_555 1_555
C29B N8B 1_555 1_555
H21B C29B 1_555 1_555
C30B N17B 1_555 1_555
C31B C21B 1_555 1_555
H22B C31B 1_555 1_555
C32C C25C 1_555 1_555
H23C C32C 1_555 1_555
C33B N8B 1_555 1_555
H24B C33B 1_555 1_555
C34C N1C 1_555 1_555
H25C C34C 1_555 1_555
C35_2 C10_2 1_555 1_555
H26_2 C35_2 1_555 1_555
C36_2 N12_2 1_555 1_555
H27_2 C36_2 1_555 1_555
C37B C19B 1_555 1_555
H28B C37B 1_555 1_555
C38_2 C8_2 1_555 1_555
H29_2 C38_2 1_555 1_555
C39C N7C 1_555 1_555
H30C C39C 1_555 1_555
C40_2 N15_2 1_555 1_555
C41C C25C 1_555 1_555
H31C C41C 1_555 1_555
C42C C14C 1_555 1_555
H32C C42C 1_555 1_555
C43_2 C20_2 1_555 1_555
H33_2 C43_2 1_555 1_555
C44C N7C 1_555 1_555
H34C C44C 1_555 1_555
C45_2 C10_2 1_555 1_555
H35_2 C45_2 1_555 1_555
C46_2 N5_2 1_555 1_555
H36_2 C46_2 1_555 1_555
C47B C27B 1_555 1_555
H37B C47B 1_555 1_555
C48B N19B 1_555 1_555
H38B C48B 1_555 1_555
N3 C2 1_555 1_555
C5 C7 1_555 1_555
N11 C28 1_555 1_555
C6 C15 1_555 1_555
N13 Cu5C 1_555 1_555
N18 C40 1_555 1_555
C11 C16 1_555 1_555
C14 C22 1_555 1_555
C17 C35 1_555 1_555
C20 C40 1_555 1_555
C21 C30 1_555 1_555
C24 C33 1_555 1_555
C26 C41 1_555 1_555
C27 C37 1_555 1_555
N20 C30 1_555 1_555
C29 C31 1_555 1_555
C32 C34 1_555 1_555
C36 C45 1_555 1_555
C42 C44 1_555 1_555
C43 C46 1_555 1_555
C47 C48 1_555 1_555
N3B C2B 1_555 1_555
N4B C4B 1_555 1_555
C5B C7B 1_555 1_555
N11C C28C 1_555 1_555
C6B C15B 1_555 1_555
N18_2 C40_2 1_555 1_555
C9B C12B 1_555 1_555
C11B C16B 1_555 1_555
C14C C22C 1_555 1_555
C17_2 C35_2 1_555 1_555
C18C C39C 1_555 1_555
C20_2 C40_2 1_555 1_555
C21B C30B 1_555 1_555
C24B C33B 1_555 1_555
C26C C41C 1_555 1_555
C27B C37B 1_555 1_555
N20B C30B 1_555 1_555
C29B C31B 1_555 1_555
C32C C34C 1_555 1_555
C36_2 C45_2 1_555 1_555
C42C C44C 1_555 1_555
C43_2 C46_2 1_555 1_555
C47B C48B 1_555 1_555

#END
