
#######################################################################
#
#                 Cambridge Crystallographic Data Centre
#                                CCDC 
#
#######################################################################
#
# If this CIF has been generated from an entry in the Cambridge 
# Structural Database, then it will include bibliographic, chemical, 
# crystal, experimental, refinement or atomic coordinate data resulting 
# from the CCDC's data processing and validation procedures.
#
#######################################################################

data_TALKIB
_symmetry_cell_setting           triclinic
_symmetry_space_group_name_H-M   'P -1'
_symmetry_Int_Tables_number      2
_space_group_name_Hall           '-P 1'
loop_
_symmetry_equiv_pos_site_id
_symmetry_equiv_pos_as_xyz
1 x,y,z
2 -x,-y,-z
_cell_length_a                   8.0017(7)
_cell_length_b                   8.5956(7)
_cell_length_c                   10.5915(9)
_cell_angle_alpha                79.648(4)
_cell_angle_beta                 79.043(3)
_cell_angle_gamma                78.855(4)
_cell_volume                     693.939
loop_
_atom_site_label
_atom_site_type_symbol
_atom_site_fract_x
_atom_site_fract_y
_atom_site_fract_z
Cu1 Cu -0.58339(6) 0.82484(5) 0.75893(4)
Cu2 Cu -0.35365(6) 0.58523(5) 0.52352(4)
Cu3 Cu -0.83034(6) 1.10320(5) 0.25411(4)
Cu4 Cu -0.08095(6) 0.33159(5) 1.02326(4)
N1 N -0.6234(4) 0.8618(3) 0.5768(3)
N2 N -0.5265(4) 0.7733(3) 0.4824(3)
N3 N -0.7157(4) 0.9594(3) 0.3867(3)
C1 C -0.5851(4) 0.8362(4) 0.3725(3)
H1 H -0.5406 0.7991 0.2936
C2 C -0.7334(5) 0.9696(4) 0.5145(3)
H2 H -0.8153 1.0453 0.5549
N4 N -0.3331(4) 0.5311(3) 0.7111(3)
N5 N -0.4080(4) 0.6363(3) 0.7980(3)
N6 N -0.2261(4) 0.4442(3) 0.8954(3)
C3 C -0.3398(4) 0.5798(4) 0.9054(3)
H3 H -0.3680 0.6292 0.9796
C4 C -0.2272(5) 0.4195(4) 0.7742(3)
H4 H -0.1602 0.3325 0.7380
N7 N -0.0089(4) 0.2881(3) 0.2933(3)
N8 N -0.1125(4) 0.3716(3) 0.2041(3)
N9 N -0.1979(4) 0.4761(4) 0.3886(3)
C5 C -0.2202(4) 0.4800(4) 0.2660(3)
H5 H -0.3047 0.5531 0.2277
C6 C -0.0646(4) 0.3547(4) 0.4002(3)
H6 H -0.0165 0.3210 0.4759
N10 N -0.8856(4) 1.1599(3) 0.9784(3)
N11 N -0.7966(4) 1.0640(3) 1.0721(3)
N12 N -0.7040(4) 0.9661(3) 0.8841(3)
C7 C -0.6926(4) 0.9513(4) 1.0118(3)
H7 H -0.6185 0.8695 1.0531
C8 C -0.8257(5) 1.0974(4) 0.8696(3)
H8 H -0.8639 1.1399 0.7910
Cu3_2 Cu 0.16966(6) 0.10320(5) 0.25411(4)
Cu3_3 Cu -0.83034(6) 1.10320(5) 1.25411(4)
Cu4_2 Cu -0.08095(6) 0.33159(5) 0.02326(4)
Cu4_3 Cu -1.08095(6) 1.33159(5) 1.02326(4)
N7_2 N -1.0089(4) 1.2881(3) 0.2933(3)
N8_2 N -0.1125(4) 0.3716(3) 1.2041(3)
N10_2 N 0.1144(4) 0.1599(3) 0.9784(3)
N11_2 N -0.7966(4) 1.0640(3) 0.0721(3)
loop_
_geom_bond_atom_site_label_1
_geom_bond_atom_site_label_2
_geom_bond_site_symmetry_1
_geom_bond_site_symmetry_2
Cu1 N1 1_555 1_555
Cu2 N2 1_555 1_555
Cu3 N3 1_555 1_555
Cu4 N6 1_555 1_555
N1 N2 1_555 1_555
N2 C1 1_555 1_555
N3 C1 1_555 1_555
C1 H1 1_555 1_555
C2 N1 1_555 1_555
H2 C2 1_555 1_555
N4 Cu2 1_555 1_555
N5 Cu1 1_555 1_555
N6 C3 1_555 1_555
C3 N5 1_555 1_555
H3 C3 1_555 1_555
C4 N4 1_555 1_555
H4 C4 1_555 1_555
N7 N8 1_555 1_555
N8 C5 1_555 1_555
N9 Cu2 1_555 1_555
C5 N9 1_555 1_555
H5 C5 1_555 1_555
C6 N7 1_555 1_555
H6 C6 1_555 1_555
N10 N11 1_555 1_555
N11 C7 1_555 1_555
N12 Cu1 1_555 1_555
C7 N12 1_555 1_555
H7 C7 1_555 1_555
C8 N10 1_555 1_555
H8 C8 1_555 1_555
Cu3_2 N7 1_555 1_555
Cu3_3 N11 1_555 1_555
Cu4_2 N8 1_555 1_555
Cu4_3 N10 1_555 1_555
N7_2 Cu3 1_555 1_555
N8_2 Cu4 1_555 1_555
N10_2 Cu4 1_555 1_555
N11_2 Cu3 1_555 1_555
N3 C2 1_555 1_555
N4 N5 1_555 1_555
N6 C4 1_555 1_555
N9 C6 1_555 1_555
N12 C8 1_555 1_555

#END
