
#######################################################################
#
#                 Cambridge Crystallographic Data Centre
#                                CCDC 
#
#######################################################################
#
# If this CIF has been generated from an entry in the Cambridge 
# Structural Database, then it will include bibliographic, chemical, 
# crystal, experimental, refinement or atomic coordinate data resulting 
# from the CCDC's data processing and validation procedures.
#
#######################################################################

data_TALKOH
_symmetry_cell_setting           triclinic
_symmetry_space_group_name_H-M   'P -1'
_symmetry_Int_Tables_number      2
_space_group_name_Hall           '-P 1'
loop_
_symmetry_equiv_pos_site_id
_symmetry_equiv_pos_as_xyz
1 x,y,z
2 -x,-y,-z
_cell_length_a                   8.1270(6)
_cell_length_b                   8.7159(7)
_cell_length_c                   11.4385(9)
_cell_angle_alpha                80.177(4)
_cell_angle_beta                 79.310(6)
_cell_angle_gamma                84.147(6)
_cell_volume                     782.43
loop_
_atom_site_label
_atom_site_type_symbol
_atom_site_fract_x
_atom_site_fract_y
_atom_site_fract_z
Ag1 Ag 1.59493(3) 0.18004(3) 1.24285(2)
Ag2 Ag 1.35580(3) 0.42200(3) 1.46605(2)
Ag3 Ag 1.81731(3) -0.11320(3) 1.75053(2)
Ag4 Ag 1.08328(3) 0.66468(3) 0.96824(2)
N1 N 1.6302(3) 0.1411(3) 1.4344(2)
N2 N 1.5356(3) 0.2233(3) 1.5196(2)
N3 N 1.7081(4) 0.0485(3) 1.6113(2)
C1 C 1.7294(4) 0.0401(4) 1.4937(3)
H1 H 1.8072 -0.0306 1.4571
C2 C 1.5857(4) 0.1643(4) 1.6225(3)
H2 H 1.5413 0.1991 1.6951
N4 N 1.3461(3) 0.4854(3) 1.2711(2)
N5 N 1.4104(3) 0.3784(3) 1.1943(2)
N6 N 1.2433(3) 0.5580(3) 1.1010(2)
C3 C 1.2480(4) 0.5878(4) 1.2113(3)
H3 H 1.1879 0.6725 1.2429
C4 C 1.3459(4) 0.4277(4) 1.0946(3)
H4 H 1.3694 0.3771 1.0275
N7 N 1.0104(3) 0.6968(3) 1.7013(2)
N8 N 1.1095(3) 0.6184(3) 1.7817(2)
N9 N 1.1773(3) 0.5166(3) 1.6122(2)
C5 C 1.0565(4) 0.6324(4) 1.6034(3)
H5 H 1.0094 0.6643 1.5343
C6 C 1.2060(4) 0.5136(4) 1.7249(3)
H6 H 1.2856 0.4448 1.7591
N10 N 1.7871(3) -0.0700(3) 0.9399(2)
N11 N 1.8717(4) -0.1607(3) 1.0244(2)
N12 N 1.7139(3) 0.0258(3) 1.1116(2)
C7 C 1.6969(4) 0.0386(4) 0.9964(3)
H7 H 1.6282 0.1167 0.9595
C8 C 1.8238(4) -0.0982(4) 1.1232(3)
H8 H 1.8630 -0.1369 1.1947
Ag3_2 Ag 0.81731(3) 0.88680(3) 1.75053(2)
Ag3_3 Ag 1.81731(3) -0.11320(3) 0.75053(2)
Ag4_2 Ag 1.08328(3) 0.66468(3) 1.96824(2)
Ag4_3 Ag 2.08328(3) -0.33532(3) 0.96824(2)
N7_2 N 2.0104(3) -0.3032(3) 1.7013(2)
N8_2 N 1.1095(3) 0.6184(3) 0.7817(2)
N10_2 N 1.7871(3) -0.0700(3) 1.9399(2)
N11_2 N 0.8717(4) 0.8393(3) 1.0244(2)
loop_
_geom_bond_atom_site_label_1
_geom_bond_atom_site_label_2
_geom_bond_site_symmetry_1
_geom_bond_site_symmetry_2
Ag1 N1 1_555 1_555
Ag2 N2 1_555 1_555
Ag3 N3 1_555 1_555
Ag4 N6 1_555 1_555
N1 N2 1_555 1_555
N2 C2 1_555 1_555
N3 C1 1_555 1_555
C1 N1 1_555 1_555
H1 C1 1_555 1_555
C2 N3 1_555 1_555
H2 C2 1_555 1_555
N4 Ag2 1_555 1_555
N5 Ag1 1_555 1_555
N6 C3 1_555 1_555
C3 N4 1_555 1_555
H3 C3 1_555 1_555
C4 N5 1_555 1_555
H4 C4 1_555 1_555
N7 N8 1_555 1_555
N8 C6 1_555 1_555
N9 Ag2 1_555 1_555
C5 N7 1_555 1_555
H5 C5 1_555 1_555
C6 N9 1_555 1_555
H6 C6 1_555 1_555
N10 N11 1_555 1_555
N11 C8 1_555 1_555
N12 Ag1 1_555 1_555
C7 N10 1_555 1_555
H7 C7 1_555 1_555
C8 N12 1_555 1_555
H8 C8 1_555 1_555
Ag3_2 N7 1_555 1_555
Ag3_3 N10 1_555 1_555
Ag4_2 N8 1_555 1_555
Ag4_3 N11 1_555 1_555
N7_2 Ag3 1_555 1_555
N8_2 Ag4 1_555 1_555
N10_2 Ag3 1_555 1_555
N11_2 Ag4 1_555 1_555
N4 N5 1_555 1_555
N6 C4 1_555 1_555
N9 C5 1_555 1_555
N12 C7 1_555 1_555

#END
