
#######################################################################
#
#                 Cambridge Crystallographic Data Centre
#                                CCDC 
#
#######################################################################
#
# If this CIF has been generated from an entry in the Cambridge 
# Structural Database, then it will include bibliographic, chemical, 
# crystal, experimental, refinement or atomic coordinate data resulting 
# from the CCDC's data processing and validation procedures.
#
#######################################################################

data_TALKAT
_symmetry_cell_setting           orthorhombic
_symmetry_space_group_name_H-M   'F d d 2'
_symmetry_Int_Tables_number      43
_space_group_name_Hall           'F 2 -2d'
loop_
_symmetry_equiv_pos_site_id
_symmetry_equiv_pos_as_xyz
1 x,y,z
2 -x,-y,z
3 1/4+x,1/4-y,1/4+z
4 1/4-x,1/4+y,1/4+z
5 x,1/2+y,1/2+z
6 -x,1/2-y,1/2+z
7 1/4+x,3/4-y,3/4+z
8 1/4-x,3/4+y,3/4+z
9 1/2+x,y,1/2+z
10 1/2-x,-y,1/2+z
11 3/4+x,1/4-y,3/4+z
12 3/4-x,1/4+y,3/4+z
13 1/2+x,1/2+y,z
14 1/2-x,1/2-y,z
15 3/4+x,3/4-y,1/4+z
16 3/4-x,3/4+y,1/4+z
_cell_length_a                   31.667(2)
_cell_length_b                   10.4902(7)
_cell_length_c                   21.2886(15)
_cell_angle_alpha                90
_cell_angle_beta                 90
_cell_angle_gamma                90
_cell_volume                     7071.93
loop_
_atom_site_label
_atom_site_type_symbol
_atom_site_fract_x
_atom_site_fract_y
_atom_site_fract_z
Cu1 Cu 0.119460(14) 0.52039(5) 0.45317(2)
Cu2 Cu 0.222954(15) 0.50690(5) 0.45068(2)
Cu3 Cu 0.196887(14) 0.73851(5) 0.34058(2)
Cl1 Cl 0.2500 0.7500 0.42528(7)
Cl2 Cl 0.17045(3) 0.51166(9) 0.36739(5)
N1 N 0.14984(9) 0.4829(3) 0.52915(14)
N2 N 0.19187(9) 0.5147(3) 0.53010(14)
N3 N 0.16895(8) 0.5045(3) 0.62952(15)
N4 N 0.02095(9) 0.3336(3) 0.66117(14)
N5 N 0.31839(9) 0.6602(3) 0.66695(14)
N6 N 0.22889(8) 0.7338(3) 0.26231(15)
N7 N 0.2500 0.7500 0.1621(2)
N8 N 0.10236(8) 0.5816(3) 0.12663(14)
C1 C 0.13795(10) 0.4770(3) 0.58961(18)
C2 C 0.20181(10) 0.5271(3) 0.59112(19)
C3 C 0.09613(10) 0.4352(3) 0.61148(16)
C4 C 0.08528(11) 0.4516(4) 0.67400(18)
H1 H 0.1033 0.4980 0.7014
C5 C 0.04806(11) 0.4000(4) 0.69619(19)
H2 H 0.0413 0.4127 0.7392
C6 C 0.03087(12) 0.3207(4) 0.60035(19)
H3 H 0.0119 0.2753 0.5739
C7 C 0.06727(11) 0.3701(4) 0.57416(17)
H4 H 0.0726 0.3596 0.5305
C8 C 0.24342(10) 0.5675(3) 0.61505(17)
C9 C 0.25007(10) 0.5674(4) 0.68005(18)
H5 H 0.2290 0.5359 0.7077
C10 C 0.28763(10) 0.6137(4) 0.70331(19)
H6 H 0.2919 0.6125 0.7475
C11 C 0.31216(11) 0.6572(4) 0.60503(18)
H7 H 0.3340 0.6872 0.5783
C12 C 0.27542(11) 0.6124(3) 0.57785(17)
H8 H 0.2724 0.6127 0.5335
C13 C 0.21810(10) 0.7243(3) 0.2016(2)
C14 C 0.17671(10) 0.6824(3) 0.17833(18)
C15 C 0.14472(10) 0.6358(4) 0.21641(17)
H9 H 0.1476 0.6376 0.2608
C16 C 0.10836(10) 0.5865(4) 0.18880(18)
H10 H 0.0867 0.5547 0.2154
C17 C 0.13283(11) 0.6302(4) 0.09024(19)
H11 H 0.1289 0.6300 0.0460
C18 C 0.16963(11) 0.6805(4) 0.11406(17)
H12 H 0.1903 0.7142 0.0863
Cu1J Cu -0.130540(14) 0.72961(5) 0.20317(2)
Cu1B Cu 0.369460(14) 0.72961(5) 0.70317(2)
Cu1M Cu 0.380540(14) 0.97961(5) 0.45317(2)
Cu2J Cu -0.027046(15) 0.74310(5) 0.20068(2)
Cu2M Cu 0.277046(15) 0.99310(5) 0.45068(2)
Cu2N Cu -0.027046(15) 0.24310(5) 0.70068(2)
Cu2L Cu -0.277046(15) 1.00690(5) 0.45068(2)
Cu3M Cu 0.303113(14) 0.76149(5) 0.34058(2)
Cu3G Cu 0.053113(14) 0.48851(5) 0.09058(2)
Cu3F Cu 0.446887(14) 1.01149(5) 0.09058(2)
Cl2M Cl 0.32955(3) 0.98834(9) 0.36739(5)
N1J N -0.10016(9) 0.7671(3) 0.27915(14)
N1M N 0.35016(9) 1.0171(3) 0.52915(14)
N2J N -0.05813(9) 0.7353(3) 0.28010(14)
N2M N 0.30813(9) 0.9853(3) 0.53010(14)
N3J N -0.08105(8) 0.7455(3) 0.37952(15)
N4J N -0.22905(9) 0.9164(3) 0.41117(14)
N4F N 0.27095(9) 0.4164(3) 0.41117(14)
N4G N 0.22905(9) 1.0836(3) 0.41117(14)
N5J N 0.06839(9) 0.5898(3) 0.41695(14)
N5K N 0.43161(9) 0.9102(3) 0.41695(14)
N6M N 0.27111(8) 0.7662(3) 0.26231(15)
N8M N 0.39764(8) 0.9184(3) 0.12663(14)
N8C N 0.14764(8) 0.8316(3) 0.37663(14)
N8B N 0.35236(8) 0.6684(3) 0.37663(14)
C1J C -0.11205(10) 0.7730(3) 0.33961(18)
C2J C -0.04819(10) 0.7229(3) 0.34112(19)
C3J C -0.15387(10) 0.8148(3) 0.36148(16)
C4J C -0.16472(11) 0.7984(4) 0.42400(18)
H1J H -0.1467 0.7520 0.4514
C5J C -0.20194(11) 0.8500(4) 0.44619(19)
H2J H -0.2087 0.8373 0.4892
C6J C -0.21913(12) 0.9293(4) 0.35035(19)
H3J H -0.2381 0.9747 0.3239
C7J C -0.18273(11) 0.8799(4) 0.32416(17)
H4J H -0.1774 0.8904 0.2805
C8J C -0.00658(10) 0.6825(3) 0.36505(17)
C9J C 0.00007(10) 0.6826(4) 0.43005(18)
H5J H -0.0210 0.7141 0.4577
C10J C 0.03763(10) 0.6363(4) 0.45331(19)
H6J H 0.0419 0.6375 0.4975
C11J C 0.06216(11) 0.5928(4) 0.35503(18)
H7J H 0.0840 0.5628 0.3283
C12J C 0.02542(11) 0.6376(3) 0.32785(17)
H8J H 0.0224 0.6373 0.2835
C13M C 0.28190(10) 0.7757(3) 0.2016(2)
C14M C 0.32329(10) 0.8176(3) 0.17833(18)
C15M C 0.35528(10) 0.8642(4) 0.21641(17)
H9M H 0.3524 0.8624 0.2608
C16M C 0.39164(10) 0.9135(4) 0.18880(18)
H10M H 0.4133 0.9453 0.2154
C17M C 0.36717(11) 0.8698(4) 0.09024(19)
H11M H 0.3711 0.8700 0.0460
C18M C 0.33037(11) 0.8195(4) 0.11406(17)
H12M H 0.3097 0.7858 0.0863
loop_
_geom_bond_atom_site_label_1
_geom_bond_atom_site_label_2
_geom_bond_site_symmetry_1
_geom_bond_site_symmetry_2
Cu1 Cl2 1_555 1_555
Cu2 Cl1 1_555 1_555
Cu3 Cl1 1_555 1_555
Cl1 Cu2M 1_555 1_555
Cl2 Cu2 1_555 1_555
N1 Cu1 1_555 1_555
N2 Cu2 1_555 1_555
N3 C1 1_555 1_555
N4 C5 1_555 1_555
N5 C10 1_555 1_555
N6 Cu3 1_555 1_555
N7 C13 1_555 1_555
N8 C16 1_555 1_555
C1 N1 1_555 1_555
C2 N2 1_555 1_555
C3 C1 1_555 1_555
C4 C3 1_555 1_555
H1 C4 1_555 1_555
C5 C4 1_555 1_555
H2 C5 1_555 1_555
C6 N4 1_555 1_555
H3 C6 1_555 1_555
C7 C3 1_555 1_555
H4 C7 1_555 1_555
C8 C2 1_555 1_555
C9 C8 1_555 1_555
H5 C9 1_555 1_555
C10 C9 1_555 1_555
H6 C10 1_555 1_555
C11 N5 1_555 1_555
H7 C11 1_555 1_555
C12 C8 1_555 1_555
H8 C12 1_555 1_555
C13 N6 1_555 1_555
C14 C13 1_555 1_555
C15 C14 1_555 1_555
H9 C15 1_555 1_555
C16 C15 1_555 1_555
H10 C16 1_555 1_555
C17 N8 1_555 1_555
H11 C17 1_555 1_555
C18 C14 1_555 1_555
H12 C18 1_555 1_555
Cu1J N1J 1_555 1_555
Cu1B N5 1_555 1_555
Cu1M Cl2M 1_555 1_555
Cu2J N2J 1_555 1_555
Cu2M Cl2M 1_555 1_555
Cu2N N4 1_555 1_555
Cu2L N4J 1_555 1_555
Cu3M Cl1 1_555 1_555
Cu3G N8 1_555 1_555
Cu3F N8M 1_555 1_555
Cl2M Cu3M 1_555 1_555
N1J N2J 1_555 1_555
N1M Cu1M 1_555 1_555
N2J C2J 1_555 1_555
N2M Cu2M 1_555 1_555
N3J C1J 1_555 1_555
N4J C5J 1_555 1_555
N4F Cu2 1_555 1_555
N4G Cu2M 1_555 1_555
N5J Cu1 1_555 1_555
N5K Cu1M 1_555 1_555
N6M N6 1_555 1_555
N8M C16M 1_555 1_555
N8C Cu3 1_555 1_555
N8B Cu3M 1_555 1_555
C1J N1J 1_555 1_555
C2J N3J 1_555 1_555
C3J C1J 1_555 1_555
C4J C3J 1_555 1_555
H1J C4J 1_555 1_555
C5J C4J 1_555 1_555
H2J C5J 1_555 1_555
C6J N4J 1_555 1_555
H3J C6J 1_555 1_555
C7J C3J 1_555 1_555
H4J C7J 1_555 1_555
C8J C2J 1_555 1_555
C9J C8J 1_555 1_555
H5J C9J 1_555 1_555
C10J N5J 1_555 1_555
H6J C10J 1_555 1_555
C11J N5J 1_555 1_555
H7J C11J 1_555 1_555
C12J C8J 1_555 1_555
H8J C12J 1_555 1_555
C13M N7 1_555 1_555
C14M C13M 1_555 1_555
C15M C14M 1_555 1_555
H9M C15M 1_555 1_555
C16M C15M 1_555 1_555
H10M C16M 1_555 1_555
C17M N8M 1_555 1_555
H11M C17M 1_555 1_555
C18M C14M 1_555 1_555
H12M C18M 1_555 1_555
Cu3 Cl2 1_555 1_555
N1 N2 1_555 1_555
N3 C2 1_555 1_555
C6 C7 1_555 1_555
C11 C12 1_555 1_555
C17 C18 1_555 1_555
Cu3M N6M 1_555 1_555
N1M N2M 1_555 1_555
N6M C13M 1_555 1_555
C6J C7J 1_555 1_555
C9J C10J 1_555 1_555
C11J C12J 1_555 1_555
C17M C18M 1_555 1_555

#END
