
#######################################################################
#
#                 Cambridge Crystallographic Data Centre
#                                CCDC 
#
#######################################################################
#
# If this CIF has been generated from an entry in the Cambridge 
# Structural Database, then it will include bibliographic, chemical, 
# crystal, experimental, refinement or atomic coordinate data resulting 
# from the CCDC's data processing and validation procedures.
#
#######################################################################

data_TALREF
_symmetry_cell_setting           triclinic
_symmetry_space_group_name_H-M   'P -1'
_symmetry_Int_Tables_number      2
_space_group_name_Hall           '-P 1'
loop_
_symmetry_equiv_pos_site_id
_symmetry_equiv_pos_as_xyz
1 x,y,z
2 -x,-y,-z
_cell_length_a                   11.6394(3)
_cell_length_b                   11.9491(4)
_cell_length_c                   14.5833(4)
_cell_angle_alpha                88.4280(10)
_cell_angle_beta                 82.3070(10)
_cell_angle_gamma                77.9530(10)
_cell_volume                     1965.73
loop_
_atom_site_label
_atom_site_type_symbol
_atom_site_fract_x
_atom_site_fract_y
_atom_site_fract_z
Fe1 Fe 0.03167(6) 0.26125(6) 0.26408(5)
S1 S -0.05694(14) 0.14260(15) 0.58065(10)
N1 N 0.3071(4) -0.3135(4) 0.1012(3)
C1 C 0.4759(4) -0.4505(4) 0.0278(3)
S2 S 0.05824(14) 0.32115(16) -0.06808(10)
N2 N 0.0852(3) 0.0805(3) 0.2145(3)
C2 C 0.5548(5) -0.3893(4) 0.0612(4)
H1 H 0.5241 -0.3233 0.0987
N3 N -0.0304(3) 0.4399(3) 0.3113(3)
C3 C 0.6738(5) -0.4253(4) 0.0394(4)
H2 H 0.7253 -0.3833 0.0617
N4 N -0.2873(4) 0.8052(4) 0.4458(3)
C4 C 0.2774(5) -0.4772(4) 0.0152(4)
H3 H 0.1939 -0.4548 0.0301
N5 N -0.1616(3) 0.2562(3) 0.2595(3)
C5 C 0.3500(5) -0.4139(4) 0.0473(4)
N6 N -0.7762(3) 0.2701(3) 0.2595(3)
C6 C 0.2196(5) -0.2420(5) 0.0786(4)
H4 H 0.1844 -0.2578 0.0265
N7 N 0.0195(4) 0.2052(4) 0.4006(3)
C7 C 0.1696(4) -0.1337(4) 0.1305(4)
N8 N 0.0401(4) 0.3128(4) 0.1247(3)
C8 C 0.2252(5) -0.0980(5) 0.2009(4)
H5 H 0.2932 -0.1460 0.2209
C9 C 0.1793(5) 0.0080(4) 0.2404(4)
H6 H 0.2166 0.0309 0.2887
C10 C 0.0693(5) -0.0613(5) 0.1062(4)
H7 H 0.0273 -0.0835 0.0607
C11 C 0.0312(5) 0.0438(5) 0.1492(4)
H8 H -0.0375 0.0931 0.1314
C12 C 0.0090(5) 0.5283(5) 0.2700(4)
H9 H 0.0749 0.5127 0.2229
C13 C -0.0412(5) 0.6415(4) 0.2920(3)
H10 H -0.0094 0.7013 0.2608
C14 C -0.1382(4) 0.6669(4) 0.3600(4)
C15 C -0.1775(5) 0.5744(5) 0.4057(4)
H11 H -0.2419 0.5870 0.4542
C16 C -0.1213(5) 0.4652(5) 0.3789(4)
H12 H -0.1490 0.4034 0.4106
C17 C -0.1993(5) 0.7863(5) 0.3849(4)
H13 H -0.1712 0.8485 0.3543
C18 C -0.3432(4) 0.9172(4) 0.4746(3)
C19 C -0.2822(5) 0.9927(4) 0.5063(3)
H14 H -0.1982 0.9735 0.5013
C20 C -0.3441(5) 1.0981(5) 0.5460(4)
H15 H -0.3011 1.1486 0.5685
C21 C -0.4650(5) 1.1288(4) 0.5527(4)
H16 H -0.5051 1.2003 0.5793
C22 C -0.4690(4) 0.9466(4) 0.4803(3)
C23 C -0.2272(4) 0.3298(5) 0.2061(4)
H17 H -0.1896 0.3811 0.1682
C24 C -0.3457(4) 0.3347(5) 0.2033(4)
H18 H -0.3880 0.3886 0.1643
C25 C -0.4039(4) 0.2605(4) 0.2580(3)
C26 C -0.3372(4) 0.1842(5) 0.3133(4)
H19 H -0.3729 0.1325 0.3523
C27 C -0.2173(4) 0.1841(4) 0.3110(4)
H20 H -0.1723 0.1299 0.3481
C28 C -0.5323(4) 0.2648(4) 0.2579(3)
C29 C -0.5836(5) 0.2726(5) 0.1767(4)
H21 H -0.5365 0.2765 0.1188
C30 C -0.7032(4) 0.2747(5) 0.1802(4)
H22 H -0.7359 0.2796 0.1235
C31 C -0.7273(4) 0.2650(4) 0.3374(3)
H23 H -0.7773 0.2642 0.3944
C32 C -0.6078(4) 0.2607(4) 0.3404(4)
H24 H -0.5776 0.2549 0.3981
C33 C -0.0130(4) 0.1794(4) 0.4760(4)
C34 C 0.0474(4) 0.3162(4) 0.0448(4)
Fe1A Fe 0.96833(6) -1.26125(6) -0.26408(5)
Fe1_2 Fe -0.96833(6) 0.26125(6) 0.26408(5)
Fe1A_2 Fe -1.03167(6) 1.73875(6) 0.73592(5)
Fe1_3 Fe 1.03167(6) 0.26125(6) 0.26408(5)
S1A S 1.05694(14) -1.14260(15) -0.58065(10)
N1A N 0.6929(4) -0.6865(4) -0.1012(3)
C1A C 0.5241(4) -0.5495(4) -0.0278(3)
S2A S 0.94176(14) -1.32115(16) 0.06808(10)
N2A N 0.9148(3) -1.0805(3) -0.2145(3)
C2A C 0.4452(5) -0.6107(4) -0.0612(4)
H1A H 0.4759 -0.6767 -0.0987
N3A N -0.9696(3) 1.5601(3) 0.6887(3)
N3A_2 N 1.0304(3) -1.4399(3) -0.3113(3)
C3A C 0.3262(5) -0.5747(4) -0.0394(4)
H2A H 0.2747 -0.6167 -0.0617
N4A N -0.7127(4) 1.1948(4) 0.5542(3)
C4A C 0.7226(5) -0.5228(4) -0.0152(4)
H3A H 0.8061 -0.5452 -0.0301
N5_2 N 0.8384(3) 0.2562(3) 0.2595(3)
N5A N 1.1616(3) -1.2562(3) -0.2595(3)
C5A C 0.6500(5) -0.5861(4) -0.0473(4)
N6_2 N 0.2238(3) 0.2701(3) 0.2595(3)
N6A N 0.7762(3) -1.2701(3) -0.2595(3)
C6A C 0.7804(5) -0.7580(5) -0.0786(4)
H4A H 0.8156 -0.7422 -0.0265
N7A N 0.9805(4) -1.2052(4) -0.4006(3)
C7A C 0.8304(4) -0.8663(4) -0.1305(4)
N8A N 0.9599(4) -1.3128(4) -0.1247(3)
C8A C 0.7748(5) -0.9020(5) -0.2009(4)
H5A H 0.7068 -0.8540 -0.2209
C9A C 0.8207(5) -1.0080(4) -0.2404(4)
H6A H 0.7834 -1.0309 -0.2887
C10A C 0.9307(5) -0.9387(5) -0.1062(4)
H7A H 0.9727 -0.9165 -0.0607
C11A C 0.9688(5) -1.0438(5) -0.1492(4)
H8A H 1.0375 -1.0931 -0.1314
C12A C -1.0090(5) 1.4717(5) 0.7300(4)
H9A H -1.0749 1.4873 0.7771
C13A C -0.9588(5) 1.3585(4) 0.7080(3)
H10A H -0.9906 1.2987 0.7392
C14A C -0.8618(4) 1.3331(4) 0.6400(4)
C15A C -0.8225(5) 1.4256(5) 0.5943(4)
H11A H -0.7581 1.4130 0.5458
C16A C -0.8787(5) 1.5348(5) 0.6211(4)
H12A H -0.8510 1.5966 0.5894
C17A C -0.8007(5) 1.2137(5) 0.6151(4)
H13A H -0.8288 1.1515 0.6457
C18A C -0.6568(4) 1.0828(4) 0.5254(3)
C19A C -0.7178(5) 1.0073(4) 0.4937(3)
H14A H -0.8018 1.0265 0.4987
C20A C -0.6559(5) 0.9019(5) 0.4540(4)
H15A H -0.6989 0.8514 0.4315
C21A C -0.5350(5) 0.8712(4) 0.4473(4)
H16A H -0.4949 0.7997 0.4207
C22A C -0.5310(4) 1.0534(4) 0.5197(3)
C23_2 C 0.7728(4) 0.3298(5) 0.2061(4)
H17_2 H 0.8104 0.3811 0.1682
C24_2 C 0.6543(4) 0.3347(5) 0.2033(4)
H18_2 H 0.6120 0.3886 0.1643
C25_2 C 0.5961(4) 0.2605(4) 0.2580(3)
C26_2 C 0.6628(4) 0.1842(5) 0.3133(4)
H19_2 H 0.6271 0.1325 0.3523
C27_2 C 0.7827(4) 0.1841(4) 0.3110(4)
H20_2 H 0.8277 0.1299 0.3481
C28_2 C 0.4677(4) 0.2648(4) 0.2579(3)
C29_2 C 0.4164(5) 0.2726(5) 0.1767(4)
H21_2 H 0.4635 0.2765 0.1188
C30_2 C 0.2968(4) 0.2747(5) 0.1802(4)
H22_2 H 0.2641 0.2796 0.1235
C31_2 C 0.2727(4) 0.2650(4) 0.3374(3)
H23_2 H 0.2227 0.2642 0.3944
C32_2 C 0.3922(4) 0.2607(4) 0.3404(4)
H24_2 H 0.4224 0.2549 0.3981
C33A C 1.0130(4) -1.1794(4) -0.4760(4)
C34A C 0.9526(4) -1.3162(4) -0.0448(4)
C35 C 0.3456(12) 0.0922(10) -0.1006(8)
H25 H 0.3949 0.0977 -0.0512
H26 H 0.2790 0.1595 -0.0962
Cl1 Cl 0.4315(7) 0.0861(6) -0.2110(6)
Cl2 Cl 0.2923(5) -0.0353(5) -0.0899(4)
O1 O -0.3141(10) 1.4017(10) 0.7130(7)
O3 O -0.5398(10) 1.4117(10) 0.6718(7)
C36? C 0.3456(12) 0.0922(10) -0.1006(8)
H27? H 0.2596 0.1244 -0.0974
H28? H 0.3760 0.1418 -0.0605
Cl3? Cl 0.3536(11) -0.0300(10) -0.0437(8)
Cl4? Cl 0.3998(16) 0.1211(14) -0.2048(13)
Cl5? Cl -0.2712(14) 1.4022(14) 0.6327(11)
C37? C -0.4157(15) 1.397(8) 0.686(3)
H29? H -0.4267 1.3167 0.6929
H30? H -0.4340 1.4348 0.7467
Cl6? Cl -0.5025(14) 1.4716(13) 0.6051(11)
Cl7? Cl -0.4132(13) 1.401(2) 0.7041(8)
Cl8? Cl -0.4064(12) 1.4424(13) 0.5200(8)
C38? C -0.3082(10) 1.4025(10) 0.6035(7)
H31? H -0.2589 1.4597 0.6086
H32? H -0.2564 1.3263 0.5903
O2? O 0.4569(10) 0.0746(10) -0.0393(7)
loop_
_geom_bond_atom_site_label_1
_geom_bond_atom_site_label_2
_geom_bond_site_symmetry_1
_geom_bond_site_symmetry_2
Fe1 N2 1_555 1_555
S1 C33 1_555 1_555
N1 C5 1_555 1_555
C1 C2 1_555 1_555
S2 C34 1_555 1_555
N2 C9 1_555 1_555
C2 H1 1_555 1_555
N3 Fe1 1_555 1_555
C3 C2 1_555 1_555
H2 C3 1_555 1_555
N4 C17 1_555 1_555
C4 H3 1_555 1_555
N5 Fe1 1_555 1_555
C5 C1 1_555 1_555
N6 C30 1_555 1_555
C6 N1 1_555 1_555
H4 C6 1_555 1_555
N7 Fe1 1_555 1_555
C7 C6 1_555 1_555
N8 Fe1 1_555 1_555
C8 C7 1_555 1_555
H5 C8 1_555 1_555
C9 C8 1_555 1_555
H6 C9 1_555 1_555
C10 C7 1_555 1_555
H7 C10 1_555 1_555
C11 N2 1_555 1_555
H8 C11 1_555 1_555
C12 N3 1_555 1_555
H9 C12 1_555 1_555
C13 C12 1_555 1_555
H10 C13 1_555 1_555
C14 C13 1_555 1_555
C15 C14 1_555 1_555
H11 C15 1_555 1_555
C16 N3 1_555 1_555
H12 C16 1_555 1_555
C17 C14 1_555 1_555
H13 C17 1_555 1_555
C18 N4 1_555 1_555
C19 C18 1_555 1_555
H14 C19 1_555 1_555
C20 C19 1_555 1_555
H15 C20 1_555 1_555
C21 C20 1_555 1_555
H16 C21 1_555 1_555
C22 C18 1_555 1_555
C23 N5 1_555 1_555
H17 C23 1_555 1_555
C24 C23 1_555 1_555
H18 C24 1_555 1_555
C25 C24 1_555 1_555
C26 C25 1_555 1_555
H19 C26 1_555 1_555
C27 N5 1_555 1_555
H20 C27 1_555 1_555
C28 C25 1_555 1_555
C29 C28 1_555 1_555
H21 C29 1_555 1_555
C30 C29 1_555 1_555
H22 C30 1_555 1_555
C31 N6 1_555 1_555
H23 C31 1_555 1_555
C32 C28 1_555 1_555
H24 C32 1_555 1_555
C33 N7 1_555 1_555
C34 N8 1_555 1_555
C35 H25 1_555 1_555
H26 C35 1_555 1_555
Cl1 C35 1_555 1_555
Cl2 C35 1_555 1_555
Fe1A N2A 1_555 1_555
Fe1_2 N6 1_555 1_555
Fe1A_2 N3A 1_555 1_555
Fe1_3 N5_2 1_555 1_555
S1A C33A 1_555 1_555
N1A C5A 1_555 1_555
C1A C1 1_555 1_555
S2A C34A 1_555 1_555
N2A C9A 1_555 1_555
C2A C1A 1_555 1_555
H1A C2A 1_555 1_555
N3A C12A 1_555 1_555
N3A_2 Fe1A 1_555 1_555
C3A C4 1_555 1_555
H2A C3A 1_555 1_555
N4A C17A 1_555 1_555
C4A C3 1_555 1_555
H3A C4A 1_555 1_555
N5_2 C23_2 1_555 1_555
N5A Fe1A 1_555 1_555
C5A C1A 1_555 1_555
N6_2 Fe1 1_555 1_555
N6A Fe1A 1_555 1_555
C6A N1A 1_555 1_555
H4A C6A 1_555 1_555
N7A Fe1A 1_555 1_555
C7A C6A 1_555 1_555
N8A Fe1A 1_555 1_555
C8A C7A 1_555 1_555
H5A C8A 1_555 1_555
C9A C8A 1_555 1_555
H6A C9A 1_555 1_555
C10A C7A 1_555 1_555
H7A C10A 1_555 1_555
C11A N2A 1_555 1_555
H8A C11A 1_555 1_555
C12A H9A 1_555 1_555
C13A C12A 1_555 1_555
H10A C13A 1_555 1_555
C14A C13A 1_555 1_555
C15A C14A 1_555 1_555
H11A C15A 1_555 1_555
C16A N3A 1_555 1_555
H12A C16A 1_555 1_555
C17A C14A 1_555 1_555
H13A C17A 1_555 1_555
C18A N4A 1_555 1_555
C19A C18A 1_555 1_555
H14A C19A 1_555 1_555
C20A C19A 1_555 1_555
H15A C20A 1_555 1_555
C21A C22 1_555 1_555
H16A C21A 1_555 1_555
C22A C21 1_555 1_555
C23_2 H17_2 1_555 1_555
C24_2 C23_2 1_555 1_555
H18_2 C24_2 1_555 1_555
C25_2 C24_2 1_555 1_555
C26_2 C25_2 1_555 1_555
H19_2 C26_2 1_555 1_555
C27_2 N5_2 1_555 1_555
H20_2 C27_2 1_555 1_555
C28_2 C25_2 1_555 1_555
C29_2 C28_2 1_555 1_555
H21_2 C29_2 1_555 1_555
C30_2 N6_2 1_555 1_555
H22_2 C30_2 1_555 1_555
C31_2 N6_2 1_555 1_555
H23_2 C31_2 1_555 1_555
C32_2 C28_2 1_555 1_555
H24_2 C32_2 1_555 1_555
C33A N7A 1_555 1_555
C34A N8A 1_555 1_555
C4 C5 1_555 1_555
C10 C11 1_555 1_555
C15 C16 1_555 1_555
C22 C22A 1_555 1_555
C26 C27 1_555 1_555
C31 C32 1_555 1_555
C2A C3A 1_555 1_555
C4A C5A 1_555 1_555
C10A C11A 1_555 1_555
C15A C16A 1_555 1_555
C18A C22A 1_555 1_555
C20A C21A 1_555 1_555
C26_2 C27_2 1_555 1_555
C29_2 C30_2 1_555 1_555
C31_2 C32_2 1_555 1_555

#END
