
#######################################################################
#
#                 Cambridge Crystallographic Data Centre
#                                CCDC 
#
#######################################################################
#
# If this CIF has been generated from an entry in the Cambridge 
# Structural Database, then it will include bibliographic, chemical, 
# crystal, experimental, refinement or atomic coordinate data resulting 
# from the CCDC's data processing and validation procedures.
#
#######################################################################

data_TALRAB
_symmetry_cell_setting           monoclinic
_symmetry_space_group_name_H-M   'C 2/c'
_symmetry_Int_Tables_number      15
_space_group_name_Hall           '-C 2yn'
loop_
_symmetry_equiv_pos_site_id
_symmetry_equiv_pos_as_xyz
1 x,y,z
2 -x,y,1/2-z
3 1/2+x,1/2+y,z
4 1/2-x,1/2+y,1/2-z
5 -x,-y,-z
6 x,-y,1/2+z
7 1/2-x,1/2-y,-z
8 1/2+x,1/2-y,1/2+z
_cell_length_a                   18.203(3)
_cell_length_b                   20.285(4)
_cell_length_c                   15.757(3)
_cell_angle_alpha                90
_cell_angle_beta                 95.694(3)
_cell_angle_gamma                90
_cell_volume                     5789.53
loop_
_atom_site_label
_atom_site_type_symbol
_atom_site_fract_x
_atom_site_fract_y
_atom_site_fract_z
Fe1 Fe 0.7500 0.2500 0.5000
C1 C 0.5135(3) 0.0137(3) 0.0404(4)
S1 S 0.95540(11) 0.21723(12) 0.33793(13)
N1 N 0.8476(3) 0.2558(3) 0.4420(3)
C3 C 0.5291(3) -0.0289(3) 0.1113(4)
H2 H 0.5476 -0.0110 0.1649
N2 N 0.5517(3) 0.1088(3) 0.1264(3)
C4 C 0.5182(4) -0.0947(4) 0.1038(4)
H3 H 0.5295 -0.1224 0.1519
N3 N 0.7705(3) 0.1435(3) 0.5292(3)
C5 C 0.4902(3) -0.1226(3) 0.0247(4)
H4 H 0.4823 -0.1688 0.0204
C6 C 0.5257(3) 0.0832(3) 0.0458(4)
N4 N 0.7641(3) -0.1048(3) 0.5506(4)
C7 C 0.5992(4) 0.1544(3) 0.1325(4)
H5 H 0.6173 0.1709 0.0821
C8 C 0.6271(4) 0.1825(3) 0.2149(4)
C9 C 0.6824(4) 0.2291(3) 0.2218(4)
H6 H 0.7003 0.2469 0.1720
C10 C 0.7117(3) 0.2497(3) 0.3019(4)
H7 H 0.7509 0.2808 0.3054
N5 N 0.6877(3) 0.2280(2) 0.3748(3)
C11 C 0.6003(4) 0.1614(3) 0.2909(4)
H8 H 0.5611 0.1305 0.2891
C12 C 0.6306(4) 0.1853(3) 0.3671(4)
H9 H 0.6105 0.1713 0.4174
C13 C 0.8387(4) 0.1197(3) 0.5329(5)
H10 H 0.8781 0.1499 0.5289
C14 C 0.8557(4) 0.0542(4) 0.5422(5)
H11 H 0.9055 0.0400 0.5443
C15 C 0.7999(4) 0.0088(3) 0.5484(5)
C16 C 0.7275(4) 0.0326(3) 0.5455(4)
H12 H 0.6872 0.0033 0.5496
C17 C 0.7163(4) 0.0989(3) 0.5368(4)
H13 H 0.6671 0.1148 0.5360
C18 C 0.8162(4) -0.0624(3) 0.5536(5)
H14 H 0.8661 -0.0770 0.5592
C19 C 0.7829(3) -0.1725(3) 0.5558(4)
C20 C 0.8348(3) -0.1977(3) 0.6174(4)
H15 H 0.8612 -0.1686 0.6567
C21 C 0.8486(4) -0.2651(3) 0.6224(5)
H16 H 0.8850 -0.2813 0.6646
C22 C 0.8107(3) -0.3086(3) 0.5678(4)
H17 H 0.8201 -0.3546 0.5728
C23 C 0.7429(3) -0.2157(3) 0.4965(4)
C24 C 0.8931(4) 0.2392(3) 0.3989(4)
Fe1B Fe 0.2500 -0.2500 -0.5000
Fe1_2 Fe 0.7500 -0.7500 0.5000
C1D C 0.4865(3) -0.0137(3) -0.0404(4)
S1F S 0.54460(11) 0.28277(12) 0.66207(13)
N1F N 0.6524(3) 0.2442(3) 0.5580(3)
C3D C 0.4709(3) 0.0289(3) -0.1113(4)
H2D H 0.4524 0.0110 -0.1649
N2D N 0.4483(3) -0.1088(3) -0.1264(3)
C4D C 0.4818(4) 0.0947(4) -0.1038(4)
H3D H 0.4705 0.1224 -0.1519
N3F N 0.7295(3) -0.6435(3) 0.4708(3)
N3F_2 N 0.7295(3) 0.3565(3) 0.4708(3)
C5D C 0.5098(3) 0.1226(3) -0.0247(4)
H4D H 0.5177 0.1688 -0.0204
C6D C 0.4743(3) -0.0832(3) -0.0458(4)
N4F N 0.7359(3) -0.3952(3) 0.4494(4)
C7D C 0.4008(4) -0.1544(3) -0.1325(4)
H5D H 0.3827 -0.1709 -0.0821
C8D C 0.3729(4) -0.1825(3) -0.2149(4)
C9D C 0.3176(4) -0.2291(3) -0.2218(4)
H6D H 0.2997 -0.2469 -0.1720
C10D C 0.2883(3) -0.2497(3) -0.3019(4)
H7D H 0.2491 -0.2808 -0.3054
N5D N 0.3123(3) -0.2280(2) -0.3748(3)
N5F N 0.8123(3) 0.2720(2) 0.6252(3)
C11D C 0.3997(4) -0.1614(3) -0.2909(4)
H8D H 0.4389 -0.1305 -0.2891
C12D C 0.3694(4) -0.1853(3) -0.3671(4)
H9D H 0.3895 -0.1713 -0.4174
C13F C 0.6613(4) -0.6197(3) 0.4671(5)
H10F H 0.6219 -0.6499 0.4711
C14F C 0.6443(4) -0.5542(4) 0.4578(5)
H11F H 0.5945 -0.5400 0.4557
C15F C 0.7001(4) -0.5088(3) 0.4516(5)
C16F C 0.7725(4) -0.5326(3) 0.4545(4)
H12F H 0.8128 -0.5033 0.4504
C17F C 0.7837(4) -0.5989(3) 0.4632(4)
H13F H 0.8329 -0.6148 0.4640
C18F C 0.6838(4) -0.4376(3) 0.4464(5)
H14F H 0.6339 -0.4230 0.4408
C19F C 0.7171(3) -0.3275(3) 0.4442(4)
C20F C 0.6652(3) -0.3023(3) 0.3826(4)
H15F H 0.6388 -0.3314 0.3433
C21F C 0.6514(4) -0.2349(3) 0.3776(5)
H16F H 0.6150 -0.2187 0.3354
C22F C 0.6893(3) -0.1914(3) 0.4322(4)
H17F H 0.6799 -0.1454 0.4272
C23F C 0.7571(3) -0.2843(3) 0.5035(4)
C24F C 0.6069(4) 0.2608(3) 0.6011(4)
Cl1 Cl 0.64916(13) -0.01227(12) 0.33773(16)
Cl2 Cl 0.7714(2) -0.07180(16) 0.2671(3)
Cl3 Cl 0.77636(14) 0.06765(13) 0.30771(19)
C2 C 0.7486(10) -0.0164(9) 0.3316(12)
H1 H 0.7723 -0.0278 0.3897
O1 O 1.0449(6) 0.1751(6) 0.5711(7)
H18 H 1.0874 0.1908 0.5696
C25 C 1.0821(9) 0.0618(8) 0.5955(11)
H19 H 1.0584 0.0559 0.5374
H20 H 1.0748 0.0221 0.6290
H21 H 1.1350 0.0696 0.5937
C26 C 1.0468(9) 0.1223(8) 0.6378(11)
H22 H 0.9965 0.1117 0.6522
H23 H 1.0774 0.1360 0.6903
O2 O 1.0189(6) 0.1281(6) 0.5049(7)
C27? C 0.9718(10) -0.0366(7) 0.7126(9)
H24? H 0.9355 -0.0723 0.7184
H25? H 0.9450 0.0060 0.7092
C28? C 0.9718(10) -0.0366(7) 0.7126(9)
H26? H 0.9232 -0.0461 0.7315
H27? H 0.9841 -0.0704 0.6719
H28? H 0.9708 0.0067 0.6850
O3? O 1.0076(9) -0.0463(8) 0.6380(11)
H29? H 0.9991 -0.0709 0.5944
C29? C 0.7239(11) 0.0026(10) 0.2715(11)
H30? H 0.7014 0.0133 0.2126
loop_
_geom_bond_atom_site_label_1
_geom_bond_atom_site_label_2
_geom_bond_site_symmetry_1
_geom_bond_site_symmetry_2
Fe1 N1 1_555 1_555
Cl1 C2 1_555 1_555
Cl2 C2 1_555 1_555
Cl3 C2 1_555 1_555
C1 C3 1_555 1_555
C2 H1 1_555 1_555
S1 C24 1_555 1_555
N1 C24 1_555 1_555
C3 H2 1_555 1_555
N2 C6 1_555 1_555
C4 C3 1_555 1_555
H3 C4 1_555 1_555
N3 Fe1 1_555 1_555
C5 C4 1_555 1_555
H4 C5 1_555 1_555
C6 C1 1_555 1_555
N4 C18 1_555 1_555
C7 N2 1_555 1_555
H5 C7 1_555 1_555
C8 C7 1_555 1_555
C9 C8 1_555 1_555
H6 C9 1_555 1_555
C10 C9 1_555 1_555
H7 C10 1_555 1_555
N5 Fe1 1_555 1_555
C11 C8 1_555 1_555
H8 C11 1_555 1_555
C12 N5 1_555 1_555
H9 C12 1_555 1_555
C13 N3 1_555 1_555
H10 C13 1_555 1_555
C14 C13 1_555 1_555
H11 C14 1_555 1_555
C15 C14 1_555 1_555
C16 C15 1_555 1_555
H12 C16 1_555 1_555
C17 N3 1_555 1_555
H13 C17 1_555 1_555
C18 C15 1_555 1_555
H14 C18 1_555 1_555
C19 N4 1_555 1_555
C20 C19 1_555 1_555
H15 C20 1_555 1_555
C21 C20 1_555 1_555
H16 C21 1_555 1_555
C22 C21 1_555 1_555
H17 C22 1_555 1_555
C23 C19 1_555 1_555
O1 H18 1_555 1_555
C25 H19 1_555 1_555
H20 C25 1_555 1_555
H21 C25 1_555 1_555
C26 O1 1_555 1_555
H22 C26 1_555 1_555
H23 C26 1_555 1_555
Fe1B N5D 1_555 1_555
Fe1_2 N3F 1_555 1_555
C1D C1 1_555 1_555
S1F C24F 1_555 1_555
N1F Fe1 1_555 1_555
C3D C1D 1_555 1_555
H2D C3D 1_555 1_555
N2D C6D 1_555 1_555
C4D C3D 1_555 1_555
H3D C4D 1_555 1_555
N3F C13F 1_555 1_555
N3F_2 Fe1 1_555 1_555
C5D C6 1_555 1_555
H4D C5D 1_555 1_555
C6D C5 1_555 1_555
N4F C18F 1_555 1_555
C7D N2D 1_555 1_555
H5D C7D 1_555 1_555
C8D C7D 1_555 1_555
C9D C8D 1_555 1_555
H6D C9D 1_555 1_555
C10D C9D 1_555 1_555
H7D C10D 1_555 1_555
N5D C10D 1_555 1_555
N5F Fe1 1_555 1_555
C11D C8D 1_555 1_555
H8D C11D 1_555 1_555
C12D N5D 1_555 1_555
H9D C12D 1_555 1_555
C13F H10F 1_555 1_555
C14F C13F 1_555 1_555
H11F C14F 1_555 1_555
C15F C14F 1_555 1_555
C16F C15F 1_555 1_555
H12F C16F 1_555 1_555
C17F N3F 1_555 1_555
H13F C17F 1_555 1_555
C18F C15F 1_555 1_555
H14F C18F 1_555 1_555
C19F N4F 1_555 1_555
C20F C19F 1_555 1_555
H15F C20F 1_555 1_555
C21F C20F 1_555 1_555
H16F C21F 1_555 1_555
C22F C23 1_555 1_555
H17F C22F 1_555 1_555
C23F C22 1_555 1_555
C24F N1F 1_555 1_555
C10 N5 1_555 1_555
C11 C12 1_555 1_555
C16 C17 1_555 1_555
C23 C23F 1_555 1_555
C25 C26 1_555 1_555
C1D C6D 1_555 1_555
C4D C5D 1_555 1_555
C11D C12D 1_555 1_555
C16F C17F 1_555 1_555
C19F C23F 1_555 1_555
C21F C22F 1_555 1_555

#END
