
#######################################################################
#
#                 Cambridge Crystallographic Data Centre
#                                CCDC 
#
#######################################################################
#
# If this CIF has been generated from an entry in the Cambridge 
# Structural Database, then it will include bibliographic, chemical, 
# crystal, experimental, refinement or atomic coordinate data resulting 
# from the CCDC's data processing and validation procedures.
#
#######################################################################

data_TALYIP
_symmetry_cell_setting           triclinic
_symmetry_space_group_name_H-M   'P -1'
_symmetry_Int_Tables_number      2
_space_group_name_Hall           '-P 1'
loop_
_symmetry_equiv_pos_site_id
_symmetry_equiv_pos_as_xyz
1 x,y,z
2 -x,-y,-z
_cell_length_a                   8.155(2)
_cell_length_b                   12.375(4)
_cell_length_c                   22.168(6)
_cell_angle_alpha                92.626(4)
_cell_angle_beta                 95.868(4)
_cell_angle_gamma                90.261(4)
_cell_volume                     2223
loop_
_atom_site_label
_atom_site_type_symbol
_atom_site_fract_x
_atom_site_fract_y
_atom_site_fract_z
Dy1 Dy -0.48168(3) -0.25628(2) 0.263010(11)
Dy2 Dy -0.98401(3) -0.309240(19) 0.242530(11)
O1 O -0.4456(6) -0.3092(4) 0.1670(2)
O2 O -0.1944(5) -0.3770(4) 0.17702(18)
O3 O -0.3473(5) -0.1000(3) 0.2491(2)
O4 O -0.0984(5) -0.1447(3) 0.2248(2)
O5 O -0.8948(5) -0.2856(4) 0.14565(19)
O6 O -0.7229(5) -0.1956(3) 0.21263(17)
O7 O -0.7765(6) -0.4298(4) 0.2462(2)
O8 O -0.5141(6) -0.4346(4) 0.2807(2)
O9 O -0.2296(4) -0.3001(3) 0.31229(17)
O10 O -0.0713(5) -0.4419(3) 0.30620(19)
O11 O -0.5942(5) -0.2017(4) 0.34845(18)
O12 O -0.8617(5) -0.2371(4) 0.33194(18)
C1 C -0.3220(7) -0.3512(5) 0.1448(3)
C2 C -0.3309(7) -0.3698(4) 0.0778(2)
C3 C -0.4751(7) -0.3508(5) 0.0415(3)
H1 H -0.5685 -0.3284 0.0592
C4 C -0.4816(8) -0.3647(6) -0.0209(3)
H2 H -0.5786 -0.3498 -0.0447
C5 C -0.3454(8) -0.4007(6) -0.0484(3)
C6 C -0.2014(8) -0.4191(5) -0.0116(3)
H3 H -0.1080 -0.4417 -0.0293
C7 C -0.1935(7) -0.4045(5) 0.0510(3)
H4 H -0.0960 -0.4180 0.0749
C8 C -0.3538(10) -0.4184(7) -0.1168(3)
H5 H -0.3182 -0.3539 -0.1342
H6 H -0.4652 -0.4355 -0.1328
H7 H -0.2834 -0.4772 -0.1266
C9 C -0.2117(7) -0.0789(5) 0.2281(3)
C10 C -0.1891(7) 0.0301(4) 0.2052(3)
C11 C -0.3026(8) 0.1117(5) 0.2114(3)
H8 H -0.3960 0.0980 0.2307
C12 C -0.2807(8) 0.2121(5) 0.1897(3)
H9 H -0.3597 0.2649 0.1944
C13 C -0.1434(8) 0.2361(5) 0.1609(3)
C14 C -0.0298(9) 0.1547(6) 0.1553(3)
H10 H 0.0637 0.1684 0.1360
C15 C -0.0507(8) 0.0547(5) 0.1774(3)
H11 H 0.0297 0.0024 0.1736
C16 C -0.1198(11) 0.3470(6) 0.1373(4)
H12 H -0.2135 0.3909 0.1441
H13 H -0.1089 0.3405 0.0945
H14 H -0.0221 0.3802 0.1581
C17 C -0.7897(7) -0.2114(5) 0.1579(3)
C18 C -0.7560(7) -0.1358(5) 0.1110(3)
C19 C -0.8320(8) -0.1544(6) 0.0524(3)
H15 H -0.8951 -0.2168 0.0426
C20 C -0.8142(9) -0.0806(6) 0.0086(3)
H16 H -0.8641 -0.0942 -0.0307
C21 C -0.7214(9) 0.0149(6) 0.0226(4)
C22 C -0.6455(9) 0.0305(6) 0.0801(3)
H17 H -0.5825 0.0928 0.0901
C23 C -0.6603(8) -0.0447(6) 0.1241(3)
H18 H -0.6048 -0.0331 0.1626
C24 C -0.7111(11) 0.0973(8) -0.0262(4)
H19 H -0.8032 0.1454 -0.0260
H20 H -0.7134 0.0601 -0.0652
H21 H -0.6104 0.1381 -0.0179
C25 C -0.6531(8) -0.4789(5) 0.2690(3)
C26 C -0.6696(7) -0.5952(4) 0.2823(3)
C27 C -0.5323(8) -0.6521(5) 0.3038(3)
H22 H -0.4295 -0.6181 0.3090
C28 C -0.5469(9) -0.7586(6) 0.3177(4)
H23 H -0.4529 -0.7961 0.3316
C29 C -0.6994(10) -0.8118(5) 0.3114(3)
C30 C -0.8357(9) -0.7526(6) 0.2912(3)
H24 H -0.9393 -0.7855 0.2871
C31 C -0.8219(8) -0.6465(5) 0.2773(3)
H25 H -0.9160 -0.6085 0.2642
C32 C -0.7131(12) -0.9300(6) 0.3245(5)
H26 H -0.7059 -0.9376 0.3676
H27 H -0.6252 -0.9691 0.3081
H28 H -0.8171 -0.9584 0.3062
C33 C -0.1706(7) -0.3882(5) 0.3344(3)
C34 C -0.2121(7) -0.4214(5) 0.3938(3)
C35 C -0.1676(8) -0.5240(5) 0.4125(3)
H29 H -0.1181 -0.5718 0.3864
C36 C -0.1966(9) -0.5556(6) 0.4699(3)
H30 H -0.1680 -0.6249 0.4816
C37 C -0.2667(8) -0.4860(6) 0.5095(3)
C38 C -0.3121(8) -0.3833(6) 0.4905(3)
H31 H -0.3600 -0.3352 0.5169
C39 C -0.2867(8) -0.3522(5) 0.4330(3)
H32 H -0.3200 -0.2842 0.4207
C40 C -0.2927(10) -0.5178(8) 0.5724(3)
H33 H -0.3584 -0.5827 0.5701
H34 H -0.3483 -0.4607 0.5927
H35 H -0.1878 -0.5303 0.5948
C41 C -0.7373(7) -0.2050(4) 0.3657(3)
C42 C -0.7613(7) -0.1684(5) 0.4284(3)
C43 C -0.6286(8) -0.1346(6) 0.4693(3)
H36 H -0.5226 -0.1348 0.4573
C44 C -0.6541(10) -0.1004(7) 0.5282(3)
H37 H -0.5642 -0.0771 0.5549
C45 C -0.8071(11) -0.1001(7) 0.5480(3)
C46 C -0.9375(10) -0.1357(7) 0.5071(3)
H38 H -1.0431 -0.1369 0.5194
C47 C -0.9152(8) -0.1690(6) 0.4494(3)
H39 H -1.0059 -0.1928 0.4232
C48 C -0.8331(13) -0.0635(10) 0.6121(4)
H40 H -0.9413 -0.0335 0.6128
H41 H -0.7520 -0.0095 0.6267
H42 H -0.8227 -0.1242 0.6377
Dy2_2 Dy 0.01599(3) -0.309240(19) 0.242530(11)
O2_2 O -1.1944(5) -0.3770(4) 0.17702(18)
O4_2 O -1.0984(5) -0.1447(3) 0.2248(2)
O9_2 O -1.2296(4) -0.3001(3) 0.31229(17)
O10_2 O -1.0713(5) -0.4419(3) 0.30620(19)
loop_
_geom_bond_atom_site_label_1
_geom_bond_atom_site_label_2
_geom_bond_site_symmetry_1
_geom_bond_site_symmetry_2
Dy1 O1 1_555 1_555
Dy2 O5 1_555 1_555
O1 C1 1_555 1_555
O2 C1 1_555 1_555
O3 Dy1 1_555 1_555
O4 C9 1_555 1_555
O5 C17 1_555 1_555
O6 Dy1 1_555 1_555
O7 Dy2 1_555 1_555
O8 Dy1 1_555 1_555
O9 Dy1 1_555 1_555
O10 C33 1_555 1_555
O11 Dy1 1_555 1_555
O12 Dy2 1_555 1_555
C1 C2 1_555 1_555
C2 C3 1_555 1_555
C3 H1 1_555 1_555
C4 C3 1_555 1_555
H2 C4 1_555 1_555
C5 C4 1_555 1_555
C6 C5 1_555 1_555
H3 C6 1_555 1_555
C7 C2 1_555 1_555
H4 C7 1_555 1_555
C8 C5 1_555 1_555
H5 C8 1_555 1_555
H6 C8 1_555 1_555
H7 C8 1_555 1_555
C9 O3 1_555 1_555
C10 C9 1_555 1_555
C11 C10 1_555 1_555
H8 C11 1_555 1_555
C12 C11 1_555 1_555
H9 C12 1_555 1_555
C13 C12 1_555 1_555
C14 C13 1_555 1_555
H10 C14 1_555 1_555
C15 C10 1_555 1_555
H11 C15 1_555 1_555
C16 C13 1_555 1_555
H12 C16 1_555 1_555
H13 C16 1_555 1_555
H14 C16 1_555 1_555
C17 O6 1_555 1_555
C18 C17 1_555 1_555
C19 C18 1_555 1_555
H15 C19 1_555 1_555
C20 C19 1_555 1_555
H16 C20 1_555 1_555
C21 C20 1_555 1_555
C22 C21 1_555 1_555
H17 C22 1_555 1_555
C23 C18 1_555 1_555
H18 C23 1_555 1_555
C24 C21 1_555 1_555
H19 C24 1_555 1_555
H20 C24 1_555 1_555
H21 C24 1_555 1_555
C25 O7 1_555 1_555
C26 C25 1_555 1_555
C27 C26 1_555 1_555
H22 C27 1_555 1_555
C28 C27 1_555 1_555
H23 C28 1_555 1_555
C29 C28 1_555 1_555
C30 C29 1_555 1_555
H24 C30 1_555 1_555
C31 C26 1_555 1_555
H25 C31 1_555 1_555
C32 C29 1_555 1_555
H26 C32 1_555 1_555
H27 C32 1_555 1_555
H28 C32 1_555 1_555
C33 O9 1_555 1_555
C34 C33 1_555 1_555
C35 C34 1_555 1_555
H29 C35 1_555 1_555
C36 C35 1_555 1_555
H30 C36 1_555 1_555
C37 C36 1_555 1_555
C38 C37 1_555 1_555
H31 C38 1_555 1_555
C39 C34 1_555 1_555
H32 C39 1_555 1_555
C40 C37 1_555 1_555
H33 C40 1_555 1_555
H34 C40 1_555 1_555
H35 C40 1_555 1_555
C41 O11 1_555 1_555
C42 C41 1_555 1_555
C43 C42 1_555 1_555
H36 C43 1_555 1_555
C44 C43 1_555 1_555
H37 C44 1_555 1_555
C45 C44 1_555 1_555
C46 C45 1_555 1_555
H38 C46 1_555 1_555
C47 C42 1_555 1_555
H39 C47 1_555 1_555
C48 C45 1_555 1_555
H40 C48 1_555 1_555
H41 C48 1_555 1_555
H42 C48 1_555 1_555
Dy2_2 O2 1_555 1_555
O2_2 Dy2 1_555 1_555
O4_2 Dy2 1_555 1_555
O9_2 Dy2 1_555 1_555
O10_2 Dy2 1_555 1_555
Dy2 O6 1_555 1_555
O4 Dy2_2 1_555 1_555
O8 C25 1_555 1_555
O9 Dy2_2 1_555 1_555
O10 Dy2_2 1_555 1_555
O12 C41 1_555 1_555
C6 C7 1_555 1_555
C14 C15 1_555 1_555
C22 C23 1_555 1_555
C30 C31 1_555 1_555
C38 C39 1_555 1_555
C46 C47 1_555 1_555

#END
