
#######################################################################
#
#                 Cambridge Crystallographic Data Centre
#                                CCDC 
#
#######################################################################
#
# If this CIF has been generated from an entry in the Cambridge 
# Structural Database, then it will include bibliographic, chemical, 
# crystal, experimental, refinement or atomic coordinate data resulting 
# from the CCDC's data processing and validation procedures.
#
#######################################################################

data_TAMBOZ
_symmetry_cell_setting           triclinic
_symmetry_space_group_name_H-M   'P -1'
_symmetry_Int_Tables_number      2
_space_group_name_Hall           '-P 1'
loop_
_symmetry_equiv_pos_site_id
_symmetry_equiv_pos_as_xyz
1 x,y,z
2 -x,-y,-z
_cell_length_a                   8.5229(17)
_cell_length_b                   9.5084(19)
_cell_length_c                   10.709(2)
_cell_angle_alpha                95.55(3)
_cell_angle_beta                 91.46(3)
_cell_angle_gamma                92.36(3)
_cell_volume                     862.668
loop_
_atom_site_label
_atom_site_type_symbol
_atom_site_fract_x
_atom_site_fract_y
_atom_site_fract_z
Pb1 Pb 0.242325(13) 0.914817(12) 0.473404(12)
N1 N 0.2834(3) 0.6678(3) 0.5309(3)
N2 N 0.0864(3) 0.7213(3) 0.3405(3)
O1 O 0.3988(4) 0.8270(3) 0.2976(3)
O2 O 0.5293(4) 1.0298(4) 0.3384(3)
Cl1 Cl 0.3821(2) 0.6670(2) 0.06604(19)
Cl2 Cl -0.02149(12) 0.89287(10) 0.64424(10)
C1 C 0.3771(5) 0.6465(5) 0.6296(4)
H1 H 0.4250 0.7242 0.6774
C2 C 0.4041(6) 0.5117(5) 0.6620(5)
H2 H 0.4699 0.4989 0.7303
C3 C 0.3329(5) 0.3982(5) 0.5923(5)
H3 H 0.3498 0.3070 0.6126
C4 C 0.2362(4) 0.4190(4) 0.4921(4)
H4 H 0.1859 0.3424 0.4445
C5 C 0.2142(4) 0.5567(4) 0.4624(4)
C6 C 0.1133(4) 0.5847(4) 0.3541(3)
C7 C 0.0465(5) 0.4767(4) 0.2708(4)
H5 H 0.0647 0.3829 0.2818
C8 C -0.0468(5) 0.5093(5) 0.1716(4)
H6 H -0.0923 0.4379 0.1152
C9 C -0.0718(5) 0.6484(5) 0.1572(4)
H7 H -0.1335 0.6731 0.0906
C10 C -0.0037(4) 0.7499(4) 0.2433(4)
H8 H -0.0212 0.8441 0.2335
C11 C 0.4953(4) 0.9203(4) 0.2686(4)
C12 C 0.5749(4) 0.8945(4) 0.1452(4)
C13 C 0.6967(5) 0.9887(6) 0.1200(5)
H9 H 0.7266 1.0631 0.1798
C14 C 0.7739(6) 0.9742(9) 0.0084(7)
H10 H 0.8545 1.0386 -0.0070
C15 C 0.7315(9) 0.8653(11) -0.0788(6)
H11 H 0.7843 0.8550 -0.1539
C16 C 0.6115(8) 0.7698(8) -0.0580(5)
H12 H 0.5835 0.6959 -0.1188
C17 C 0.5319(5) 0.7838(5) 0.0542(4)
Pb1A Pb 0.757675(13) 1.085183(12) 0.526596(12)
Pb1A_2 Pb -0.242325(13) 1.085183(12) 0.526596(12)
O2A O 0.4707(4) 0.9702(4) 0.6616(3)
Cl2A Cl 0.02149(12) 1.10713(10) 0.35576(10)
loop_
_geom_bond_atom_site_label_1
_geom_bond_atom_site_label_2
_geom_bond_site_symmetry_1
_geom_bond_site_symmetry_2
Pb1 N1 1_555 1_555
N1 C1 1_555 1_555
N2 Pb1 1_555 1_555
O1 Pb1 1_555 1_555
O2 C11 1_555 1_555
Cl1 C17 1_555 1_555
Cl2 Pb1 1_555 1_555
C1 H1 1_555 1_555
C2 C1 1_555 1_555
H2 C2 1_555 1_555
C3 C2 1_555 1_555
H3 C3 1_555 1_555
C4 C3 1_555 1_555
H4 C4 1_555 1_555
C5 N1 1_555 1_555
C6 N2 1_555 1_555
C7 C6 1_555 1_555
H5 C7 1_555 1_555
C8 C7 1_555 1_555
H6 C8 1_555 1_555
C9 C8 1_555 1_555
H7 C9 1_555 1_555
C10 N2 1_555 1_555
H8 C10 1_555 1_555
C11 O1 1_555 1_555
C12 C11 1_555 1_555
C13 C12 1_555 1_555
H9 C13 1_555 1_555
C14 C13 1_555 1_555
H10 C14 1_555 1_555
C15 C14 1_555 1_555
H11 C15 1_555 1_555
C16 C15 1_555 1_555
H12 C16 1_555 1_555
C17 C12 1_555 1_555
Pb1A O2 1_555 1_555
Pb1A_2 Cl2 1_555 1_555
O2A Pb1 1_555 1_555
Cl2A Pb1 1_555 1_555
C4 C5 1_555 1_555
C5 C6 1_555 1_555
C9 C10 1_555 1_555
C16 C17 1_555 1_555
Pb1A_2 Cl2A 1_555 1_555

#END
