
#######################################################################
#
#                 Cambridge Crystallographic Data Centre
#                                CCDC 
#
#######################################################################
#
# If this CIF has been generated from an entry in the Cambridge 
# Structural Database, then it will include bibliographic, chemical, 
# crystal, experimental, refinement or atomic coordinate data resulting 
# from the CCDC's data processing and validation procedures.
#
#######################################################################

data_TAMHUM
_symmetry_cell_setting           rhombohedral
_symmetry_space_group_name_H-M   'R -3'
_symmetry_Int_Tables_number      148
_space_group_name_Hall           '-R 3'
loop_
_symmetry_equiv_pos_site_id
_symmetry_equiv_pos_as_xyz
1 x,y,z
2 -y,x-y,z
3 -x+y,-x,z
4 2/3+x,1/3+y,1/3+z
5 2/3-y,1/3+x-y,1/3+z
6 2/3-x+y,1/3-x,1/3+z
7 1/3+x,2/3+y,2/3+z
8 1/3-y,2/3+x-y,2/3+z
9 1/3-x+y,2/3-x,2/3+z
10 -x,-y,-z
11 y,-x+y,-z
12 x-y,x,-z
13 1/3-x,2/3-y,2/3-z
14 1/3+y,2/3-x+y,2/3-z
15 1/3+x-y,2/3+x,2/3-z
16 2/3-x,1/3-y,1/3-z
17 2/3+y,1/3-x+y,1/3-z
18 2/3+x-y,1/3+x,1/3-z
_cell_length_a                   27.978(2)
_cell_length_b                   27.978(2)
_cell_length_c                   14.9798(10)
_cell_angle_alpha                90
_cell_angle_beta                 90
_cell_angle_gamma                120
_cell_volume                     10154.8
loop_
_atom_site_label
_atom_site_type_symbol
_atom_site_fract_x
_atom_site_fract_y
_atom_site_fract_z
Ag1 Ag 0.74308(4) 0.12940(3) 0.42770(5)
N1 N 0.8029(3) 0.2138(3) 0.3746(5)
C1 C 0.8816(4) 0.2640(4) 0.0494(6)
H1 H 0.8474 0.2307 0.0431
C2 C 0.8849(4) 0.3032(4) 0.1089(6)
C3 C 0.8023(4) 0.2282(4) 0.2903(6)
H2 H 0.7762 0.2016 0.2505
N2 N 0.8768(3) 0.3194(4) 0.3102(6)
C4 C 0.8793(5) 0.3053(7) 0.3923(8)
H3 H 0.9071 0.3319 0.4301
N3 N 0.9329(3) 0.3497(4) 0.1237(6)
C5 C 0.8385(4) 0.2806(4) 0.2581(6)
N4 N 0.9238(4) 0.2709(4) 0.0011(6)
C6 C 0.9762(4) 0.3577(5) 0.0748(8)
H4 H 1.0103 0.3911 0.0818
C7 C 0.8439(5) 0.2541(5) 0.4271(7)
H5 H 0.8477 0.2464 0.4876
C8 C 0.9730(5) 0.3190(5) 0.0144(8)
H6 H 1.0048 0.3255 -0.0182
C11 C 0.8354(5) 0.2950(4) 0.1630(6)
H13 H 0.8013 0.2652 0.1356
H14 H 0.8333 0.3293 0.1610
Ag1N Ag 0.94701(5) 0.40975(4) 0.23897(5)
Ag1O Ag 0.92359(4) 0.20393(3) -0.09437(5)
N2M N 0.6527(4) 0.1093(5) 0.3565(6)
N3M N 0.6830(4) 0.0835(5) 0.5430(6)
N4O N 0.7429(4) 0.0624(4) 0.3322(6)
Cl1 Cl 0.45921(12) 0.07063(13) 0.61106(19)
O2 O 0.5043(5) 0.1102(6) 0.5669(9)
O3 O 0.4310(8) 0.0324(6) 0.5470(9)
O4 O 0.4299(5) 0.0928(6) 0.6408(12)
O5 O 0.4695(8) 0.0440(7) 0.6748(10)
S1 S 0.8702(2) 0.1353(3) 0.5483(3)
C9 C 0.9243(10) 0.2043(14) 0.5542(19)
H7 H 0.9283 0.2223 0.4963
H8 H 0.9588 0.2051 0.5692
H9 H 0.9159 0.2239 0.6002
O1 O 0.8172(4) 0.1340(6) 0.5422(7)
C10 C 0.8798(10) 0.1234(11) 0.6664(14)
H10 H 0.8533 0.0851 0.6825
H11 H 0.8740 0.1485 0.7043
H12 H 0.9174 0.1301 0.6751
loop_
_geom_bond_atom_site_label_1
_geom_bond_atom_site_label_2
_geom_bond_site_symmetry_1
_geom_bond_site_symmetry_2
Ag1 N1 1_555 1_555
Cl1 O2 1_555 1_555
S1 C9 1_555 1_555
N1 C3 1_555 1_555
C1 H1 1_555 1_555
C2 C1 1_555 1_555
C3 H2 1_555 1_555
N2 C4 1_555 1_555
C4 H3 1_555 1_555
N3 C2 1_555 1_555
C5 C3 1_555 1_555
N4 C1 1_555 1_555
C6 N3 1_555 1_555
H4 C6 1_555 1_555
C7 N1 1_555 1_555
H5 C7 1_555 1_555
C8 N4 1_555 1_555
H6 C8 1_555 1_555
C9 H7 1_555 1_555
H8 C9 1_555 1_555
H9 C9 1_555 1_555
O1 S1 1_555 1_555
C10 S1 1_555 1_555
H10 C10 1_555 1_555
H11 C10 1_555 1_555
H12 C10 1_555 1_555
C11 C2 1_555 1_555
H13 C11 1_555 1_555
H14 C11 1_555 1_555
O3 Cl1 1_555 1_555
O4 Cl1 1_555 1_555
O5 Cl1 1_555 1_555
Ag1N N2 1_555 1_555
Ag1O N4 1_555 1_555
N2M Ag1 1_555 1_555
N3M Ag1 1_555 1_555
N4O Ag1 1_555 1_555
N2 C5 1_555 1_555
C4 C7 1_555 1_555
N3 Ag1N 1_555 1_555
C5 C11 1_555 1_555
C6 C8 1_555 1_555

#END
