
#######################################################################
#
#                 Cambridge Crystallographic Data Centre
#                                CCDC 
#
#######################################################################
#
# If this CIF has been generated from an entry in the Cambridge 
# Structural Database, then it will include bibliographic, chemical, 
# crystal, experimental, refinement or atomic coordinate data resulting 
# from the CCDC's data processing and validation procedures.
#
#######################################################################

data_TAMJAU
_symmetry_cell_setting           rhombohedral
_symmetry_space_group_name_H-M   'R -3'
_symmetry_Int_Tables_number      148
_space_group_name_Hall           '-R 3'
loop_
_symmetry_equiv_pos_site_id
_symmetry_equiv_pos_as_xyz
1 x,y,z
2 -y,x-y,z
3 -x+y,-x,z
4 2/3+x,1/3+y,1/3+z
5 2/3-y,1/3+x-y,1/3+z
6 2/3-x+y,1/3-x,1/3+z
7 1/3+x,2/3+y,2/3+z
8 1/3-y,2/3+x-y,2/3+z
9 1/3-x+y,2/3-x,2/3+z
10 -x,-y,-z
11 y,-x+y,-z
12 x-y,x,-z
13 1/3-x,2/3-y,2/3-z
14 1/3+y,2/3-x+y,2/3-z
15 1/3+x-y,2/3+x,2/3-z
16 2/3-x,1/3-y,1/3-z
17 2/3+y,1/3-x+y,1/3-z
18 2/3+x-y,1/3+x,1/3-z
_cell_length_a                   28.3911(13)
_cell_length_b                   28.3911(13)
_cell_length_c                   11.7766(17)
_cell_angle_alpha                90
_cell_angle_beta                 90
_cell_angle_gamma                120
_cell_volume                     8220.82
loop_
_atom_site_label
_atom_site_type_symbol
_atom_site_fract_x
_atom_site_fract_y
_atom_site_fract_z
Cl1 Cl 0.78804(9) 0.06068(9) 0.3383(2)
O1 O 0.8389(3) 0.0734(3) 0.3032(7)
O2 O 0.7561(3) 0.0055(3) 0.3596(10)
O3 O 0.7621(4) 0.0761(4) 0.2531(9)
O4 O 0.7964(4) 0.0935(4) 0.4396(7)
Cl2 Cl 0.9024(2) 0.0957(2) 0.6034(8)
Cl3 Cl 0.8482(3) 0.1608(3) 0.6602(8)
C10 C 0.8912(3) 0.1446(3) 0.5926(8)
H9 H 0.8824 0.1447 0.5113
H10 H 0.9274 0.1773 0.6033
Cl2O Cl 0.7643(2) 0.2376(2) 0.7299(8)
Cl3O Cl 0.8185(3) 0.1725(3) 0.6731(8)
C10O C 0.7755(3) 0.1887(3) 0.7407(8)
H9O H 0.7843 0.1886 0.8220
H10O H 0.7393 0.1560 0.7300
Ag1 Ag 0.52201(4) 0.58933(2) 0.80682(7)
N1 N 0.5702(2) 0.6493(2) 0.9514(6)
C1 C 0.6088(3) 0.6448(3) 1.0087(7)
H1 H 0.6070 0.6105 1.0107
N2 N 0.5484(3) 0.6757(3) 0.7079(10)
C2 C 0.6156(3) 0.7413(3) 1.0116(9)
H2 H 0.6169 0.7754 1.0135
C3 C 0.5493(4) 0.7168(3) 0.7602(10)
C4 C 0.5647(4) 0.7656(4) 0.7143(12)
H3 H 0.5667 0.7940 0.7604
N3 N 0.6545(3) 0.7365(2) 1.0663(6)
C5 C 0.5634(3) 0.6847(4) 0.6012(12)
H4 H 0.5644 0.6567 0.5591
C6 C 0.5740(3) 0.6991(3) 0.9526(9)
C7 C 0.5327(4) 0.7056(3) 0.8874(12)
H5 H 0.4968 0.6722 0.8942
H6 H 0.5297 0.7363 0.9191
C8 C 0.5783(3) 0.7350(4) 0.5455(11)
H7 H 0.5888 0.7404 0.4679
C9 C 0.6499(3) 0.6872(3) 1.0636(7)
H8 H 0.6765 0.6819 1.1014
N4 N 0.5771(3) 0.7744(3) 0.6062(11)
Ag1G Ag 0.74400(2) 0.59935(4) 0.47349(7)
Ag1E Ag 0.73399(4) 0.81132(4) 1.14015(7)
Ag1Q Ag 0.59935(4) 0.85534(4) 0.52651(7)
Ag1I Ag 0.47799(4) 0.41067(2) 0.19318(7)
N1G N 0.6840(2) 0.5876(3) 0.6181(6)
C1G C 0.6885(3) 0.6307(4) 0.6754(7)
H1G H 0.7228 0.6632 0.6774
N2G N 0.6576(3) 0.5394(4) 0.3746(10)
C2G C 0.5920(3) 0.5410(4) 0.6783(9)
H2G H 0.5579 0.5082 0.6802
C3G C 0.6165(3) 0.4992(5) 0.4269(10)
C4G C 0.5677(4) 0.4658(6) 0.3810(12)
H3G H 0.5393 0.4394 0.4271
N3G N 0.5968(2) 0.5847(4) 0.7330(6)
N3E N 0.7487(4) 0.6788(3) 0.3996(6)
C5G C 0.6486(4) 0.5454(5) 0.2679(12)
H4G H 0.6766 0.5744 0.2258
C6G C 0.6342(3) 0.5416(4) 0.6193(9)
C7G C 0.6277(3) 0.4938(5) 0.5541(12)
H5G H 0.6611 0.4913 0.5609
H6G H 0.5970 0.4601 0.5858
C8G C 0.5983(4) 0.5100(5) 0.2122(11)
H7G H 0.5929 0.5151 0.1346
C9G C 0.6461(3) 0.6294(4) 0.7303(7)
H8G H 0.6514 0.6613 0.7681
N4G N 0.5589(3) 0.4694(4) 0.2729(11)
N4P N 0.4411(3) 0.5306(4) 0.7271(11)
N4K N 0.8027(4) 0.5771(3) 0.3938(11)
loop_
_geom_bond_atom_site_label_1
_geom_bond_atom_site_label_2
_geom_bond_site_symmetry_1
_geom_bond_site_symmetry_2
Ag1 N1 1_555 1_555
N1 C1 1_555 1_555
C1 H1 1_555 1_555
N2 Ag1 1_555 1_555
C2 H2 1_555 1_555
C3 N2 1_555 1_555
C4 C3 1_555 1_555
H3 C4 1_555 1_555
N3 C2 1_555 1_555
C5 N2 1_555 1_555
H4 C5 1_555 1_555
C6 N1 1_555 1_555
C7 C3 1_555 1_555
H5 C7 1_555 1_555
H6 C7 1_555 1_555
C8 C5 1_555 1_555
H7 C8 1_555 1_555
C9 C1 1_555 1_555
H8 C9 1_555 1_555
N4 C4 1_555 1_555
Cl1 O1 1_555 1_555
O2 Cl1 1_555 1_555
O3 Cl1 1_555 1_555
O4 Cl1 1_555 1_555
Cl2 C10 1_555 1_555
Cl3 C10 1_555 1_555
C10 H9 1_555 1_555
H10 C10 1_555 1_555
Ag1G N1G 1_555 1_555
Ag1E N3 1_555 1_555
Ag1Q N4 1_555 1_555
Ag1I N4G 1_555 1_555
N1G C1G 1_555 1_555
C1G H1G 1_555 1_555
N2G Ag1G 1_555 1_555
C2G H2G 1_555 1_555
C3G N2G 1_555 1_555
C4G C3G 1_555 1_555
H3G C4G 1_555 1_555
N3G Ag1 1_555 1_555
N3E Ag1G 1_555 1_555
C5G N2G 1_555 1_555
H4G C5G 1_555 1_555
C6G N1G 1_555 1_555
C7G C3G 1_555 1_555
H5G C7G 1_555 1_555
H6G C7G 1_555 1_555
C8G C5G 1_555 1_555
H7G C8G 1_555 1_555
C9G C1G 1_555 1_555
H8G C9G 1_555 1_555
N4G C4G 1_555 1_555
N4P Ag1 1_555 1_555
N4K Ag1G 1_555 1_555
Cl2O C10O 1_555 1_555
Cl3O Cl3 1_555 1_555
C10O Cl3O 1_555 1_555
H9O C10O 1_555 1_555
H10O C10O 1_555 1_555
C2 C6 1_555 1_555
N3 C9 1_555 1_555
C6 C7 1_555 1_555
C8 N4 1_555 1_555
C2G N3G 1_555 1_555
C2G C6G 1_555 1_555
N3G C9G 1_555 1_555
C6G C7G 1_555 1_555
C8G N4G 1_555 1_555

#END
