
#######################################################################
#
#                 Cambridge Crystallographic Data Centre
#                                CCDC 
#
#######################################################################
#
# If this CIF has been generated from an entry in the Cambridge 
# Structural Database, then it will include bibliographic, chemical, 
# crystal, experimental, refinement or atomic coordinate data resulting 
# from the CCDC's data processing and validation procedures.
#
#######################################################################

data_TAMLOK
_symmetry_cell_setting           triclinic
_symmetry_space_group_name_H-M   'P -1'
_symmetry_Int_Tables_number      2
_space_group_name_Hall           '-P 1'
loop_
_symmetry_equiv_pos_site_id
_symmetry_equiv_pos_as_xyz
1 x,y,z
2 -x,-y,-z
_cell_length_a                   5.4726(3)
_cell_length_b                   7.8082(5)
_cell_length_c                   15.6005(10)
_cell_angle_alpha                77.2090(10)
_cell_angle_beta                 87.5910(10)
_cell_angle_gamma                88.3970(10)
_cell_volume                     649.391
loop_
_atom_site_label
_atom_site_type_symbol
_atom_site_fract_x
_atom_site_fract_y
_atom_site_fract_z
Zn1 Zn 0.34607(7) 0.50011(5) 0.74371(2)
Br1 Br 0.61554(6) 0.34343(4) 0.66653(2)
Br2 Br 0.45022(6) 0.68965(4) 0.83703(2)
N1 N 0.1191(5) 0.3225(4) 0.82362(18)
N2 N 0.1275(5) 0.6587(4) 0.65468(18)
C1 C 0.1144(6) 0.1521(4) 0.8208(2)
H1 H 0.2287 0.1087 0.7829
C2 C -0.0518(6) 0.0370(4) 0.8713(2)
H2 H -0.0479 -0.0834 0.8686
C3 C -0.2241(6) 0.0985(4) 0.9261(2)
C4 C -0.2155(6) 0.2742(5) 0.9292(2)
H3 H -0.3278 0.3215 0.9664
C5 C -0.0434(6) 0.3797(4) 0.8782(2)
H4 H -0.0394 0.4994 0.8817
C6 C -0.0311(7) 0.7679(5) 0.6841(2)
H5 H -0.0215 0.7789 0.7433
C7 C -0.2084(7) 0.8658(5) 0.6330(2)
H6 H -0.3168 0.9416 0.6571
C8 C -0.2264(6) 0.8524(4) 0.5462(2)
C9 C -0.0564(6) 0.7423(4) 0.5148(2)
H7 H -0.0586 0.7319 0.4553
C10 C 0.1154(6) 0.6482(4) 0.5701(2)
H8 H 0.2289 0.5736 0.5475
C11 C -0.4019(6) -0.0241(4) 0.9784(2)
H9 H -0.3750 -0.1460 0.9815
C12 C -0.4129(6) 0.9477(4) 0.4881(2)
H10 H -0.4090 0.9338 0.4291
Zn1A Zn -1.34607(7) -0.50011(5) 1.25629(2)
Zn1A_2 Zn -1.34607(7) 1.49989(5) 0.25629(2)
Br1A Br -1.61554(6) -0.34343(4) 1.33347(2)
Br2A Br -1.45022(6) -0.68965(4) 1.16297(2)
N1A N -1.1191(5) -0.3225(4) 1.17638(18)
N2A N -1.1275(5) 1.3413(4) 0.34532(18)
N2A_2 N -1.1275(5) -0.6587(4) 1.34532(18)
C1A C -1.1144(6) -0.1521(4) 1.1792(2)
H1A H -1.2287 -0.1087 1.2171
C2A C -0.9482(6) -0.0370(4) 1.1287(2)
H2A H -0.9521 0.0834 1.1314
C3A C -0.7759(6) -0.0985(4) 1.0739(2)
C4A C -0.7845(6) -0.2742(5) 1.0708(2)
H3A H -0.6722 -0.3215 1.0336
C5A C -0.9566(6) -0.3797(4) 1.1218(2)
H4A H -0.9606 -0.4994 1.1183
C6A C -0.9689(7) 1.2321(5) 0.3159(2)
H5A H -0.9785 1.2211 0.2567
C7A C -0.7916(7) 1.1342(5) 0.3670(2)
H6A H -0.6832 1.0584 0.3429
C8A C -0.7736(6) 1.1476(4) 0.4538(2)
C9A C -0.9436(6) 1.2577(4) 0.4852(2)
H7A H -0.9414 1.2681 0.5447
C10A C -1.1154(6) 1.3518(4) 0.4299(2)
H8A H -1.2289 1.4264 0.4525
C11A C -0.5981(6) 0.0241(4) 1.0216(2)
H9A H -0.6250 0.1460 1.0185
C12A C -0.5871(6) 1.0523(4) 0.5119(2)
H10A H -0.5910 1.0662 0.5709
loop_
_geom_bond_atom_site_label_1
_geom_bond_atom_site_label_2
_geom_bond_site_symmetry_1
_geom_bond_site_symmetry_2
Zn1 Br1 1_555 1_555
Br2 Zn1 1_555 1_555
N1 Zn1 1_555 1_555
N2 Zn1 1_555 1_555
C1 N1 1_555 1_555
H1 C1 1_555 1_555
C2 C1 1_555 1_555
H2 C2 1_555 1_555
C3 C2 1_555 1_555
C4 C3 1_555 1_555
H3 C4 1_555 1_555
C5 N1 1_555 1_555
H4 C5 1_555 1_555
C6 N2 1_555 1_555
H5 C6 1_555 1_555
C7 C6 1_555 1_555
H6 C7 1_555 1_555
C8 C7 1_555 1_555
C9 C8 1_555 1_555
H7 C9 1_555 1_555
C10 N2 1_555 1_555
H8 C10 1_555 1_555
C11 C3 1_555 1_555
H9 C11 1_555 1_555
C12 C8 1_555 1_555
H10 C12 1_555 1_555
Zn1A Br1A 1_555 1_555
Zn1A_2 N2A 1_555 1_555
Br2A Zn1A 1_555 1_555
N1A Zn1A 1_555 1_555
N2A C6A 1_555 1_555
N2A_2 Zn1A 1_555 1_555
C1A N1A 1_555 1_555
H1A C1A 1_555 1_555
C2A C1A 1_555 1_555
H2A C2A 1_555 1_555
C3A C2A 1_555 1_555
C4A C3A 1_555 1_555
H3A C4A 1_555 1_555
C5A N1A 1_555 1_555
H4A C5A 1_555 1_555
C6A H5A 1_555 1_555
C7A C6A 1_555 1_555
H6A C7A 1_555 1_555
C8A C7A 1_555 1_555
C9A C8A 1_555 1_555
H7A C9A 1_555 1_555
C10A N2A 1_555 1_555
H8A C10A 1_555 1_555
C11A C11 1_555 1_555
H9A C11A 1_555 1_555
C12A C12 1_555 1_555
H10A C12A 1_555 1_555
C4 C5 1_555 1_555
C9 C10 1_555 1_555
C3A C11A 1_555 1_555
C4A C5A 1_555 1_555
C8A C12A 1_555 1_555
C9A C10A 1_555 1_555

#END
