
#######################################################################
#
#                 Cambridge Crystallographic Data Centre
#                                CCDC 
#
#######################################################################
#
# If this CIF has been generated from an entry in the Cambridge 
# Structural Database, then it will include bibliographic, chemical, 
# crystal, experimental, refinement or atomic coordinate data resulting 
# from the CCDC's data processing and validation procedures.
#
#######################################################################

data_TAMLIE
_symmetry_cell_setting           triclinic
_symmetry_space_group_name_H-M   'P -1'
_symmetry_Int_Tables_number      2
_space_group_name_Hall           '-P 1'
loop_
_symmetry_equiv_pos_site_id
_symmetry_equiv_pos_as_xyz
1 x,y,z
2 -x,-y,-z
_cell_length_a                   3.91426(17)
_cell_length_b                   8.8696(8)
_cell_length_c                   9.4343(5)
_cell_angle_alpha                79.568(3)
_cell_angle_beta                 86.280(4)
_cell_angle_gamma                86.248(6)
_cell_volume                     320.965
loop_
_atom_site_label
_atom_site_type_symbol
_atom_site_fract_x
_atom_site_fract_y
_atom_site_fract_z
Cd1 Cd 0.50000 0.50000 0.50000
Br1 Br 0.0035(7) 0.6787(3) 0.3446(2)
N1 N 0.566(3) 0.3279(3) 0.3288(10)
C1 C 0.5551(12) 0.0723(14) -0.0064(2)
C2 C 0.5581(12) 0.1577(8) 0.1066(6)
C3 C 0.6791(16) 0.3063(7) 0.0782(8)
C4 C 0.682(2) 0.3910(5) 0.1902(13)
C5 C 0.446(4) 0.1812(6) 0.3568(8)
C6 C 0.443(3) 0.0965(9) 0.2448(10)
H1 H 0.635(2) 0.1220(17) -0.0927(4)
H2 H 0.755(2) 0.3473(11) -0.0118(9)
H3 H 0.760(2) 0.4863(6) 0.1720(16)
H4 H 0.370(5) 0.1402(8) 0.4467(8)
H5 H 0.365(4) 0.0012(9) 0.2630(12)
Cd1_2 Cd -0.50000 0.50000 0.50000
Cd1_3 Cd 0.50000 -0.50000 -0.50000
Cd1_4 Cd 1.50000 0.50000 0.50000
Br1_2 Br 1.0035(7) 0.6787(3) 0.3446(2)
Br1A Br -0.0035(7) 0.3213(3) 0.6554(2)
Br1A_2 Br 0.9965(7) 0.3213(3) 0.6554(2)
N1A N 0.434(3) -0.3279(3) -0.3288(10)
N1A_2 N 0.434(3) 0.6721(3) 0.6712(10)
C1A C 0.4449(12) -0.0723(14) 0.0064(2)
C2A C 0.4419(12) -0.1577(8) -0.1066(6)
C3A C 0.3209(16) -0.3063(7) -0.0782(8)
C4A C 0.318(2) -0.3910(5) -0.1902(13)
C5A C 0.554(4) -0.1812(6) -0.3568(8)
C6A C 0.557(3) -0.0965(9) -0.2448(10)
H1A H 0.365(2) -0.1220(17) 0.0927(4)
H2A H 0.245(2) -0.3473(11) 0.0118(9)
H3A H 0.240(2) -0.4863(6) -0.1720(16)
H4A H 0.630(5) -0.1402(8) -0.4467(8)
H5A H 0.635(4) -0.0012(9) -0.2630(12)
loop_
_geom_bond_atom_site_label_1
_geom_bond_atom_site_label_2
_geom_bond_site_symmetry_1
_geom_bond_site_symmetry_2
Cd1 Br1 1_555 1_555
Br1 Cd1_2 1_555 1_555
N1 Cd1 1_555 1_555
C1 C2 1_555 1_555
C2 C3 1_555 1_555
C3 C4 1_555 1_555
C4 N1 1_555 1_555
C5 N1 1_555 1_555
C6 C2 1_555 1_555
H1 C1 1_555 1_555
H2 C3 1_555 1_555
H3 C4 1_555 1_555
H4 C5 1_555 1_555
H5 C6 1_555 1_555
Cd1_2 Br1A 1_555 1_555
Cd1_3 N1A 1_555 1_555
Cd1_4 Br1_2 1_555 1_555
Br1_2 Cd1 1_555 1_555
Br1A Cd1 1_555 1_555
Br1A_2 Cd1 1_555 1_555
N1A C4A 1_555 1_555
N1A_2 Cd1 1_555 1_555
C1A C1 1_555 1_555
C2A C1A 1_555 1_555
C3A C2A 1_555 1_555
C4A C3A 1_555 1_555
C5A N1A 1_555 1_555
C6A C2A 1_555 1_555
H1A C1A 1_555 1_555
H2A C3A 1_555 1_555
H3A C4A 1_555 1_555
H4A C5A 1_555 1_555
H5A C6A 1_555 1_555
C5 C6 1_555 1_555
Cd1_4 Br1A_2 1_555 1_555
C5A C6A 1_555 1_555

#END
