
#######################################################################
#
#                 Cambridge Crystallographic Data Centre
#                                CCDC 
#
#######################################################################
#
# If this CIF has been generated from an entry in the Cambridge 
# Structural Database, then it will include bibliographic, chemical, 
# crystal, experimental, refinement or atomic coordinate data resulting 
# from the CCDC's data processing and validation procedures.
#
#######################################################################

data_TAMRIJ
_symmetry_cell_setting           orthorhombic
_symmetry_space_group_name_H-M   'P 21 21 21'
_symmetry_Int_Tables_number      19
_space_group_name_Hall           'P 2ac 2ab'
loop_
_symmetry_equiv_pos_site_id
_symmetry_equiv_pos_as_xyz
1 x,y,z
2 1/2-x,-y,1/2+z
3 1/2+x,1/2-y,-z
4 -x,1/2+y,1/2-z
_cell_length_a                   11.122(1)
_cell_length_b                   14.430(1)
_cell_length_c                   16.248(1)
_cell_angle_alpha                90
_cell_angle_beta                 90
_cell_angle_gamma                90
_cell_volume                     2607.65
loop_
_atom_site_label
_atom_site_type_symbol
_atom_site_fract_x
_atom_site_fract_y
_atom_site_fract_z
Rb1 Rb 0.53798(3) 0.27619(2) 0.288588(19)
P1 P 0.52748(8) 0.01998(5) 0.31939(4)
Si1 Si 0.38898(9) -0.13307(6) 0.42776(5)
Si2 Si 0.26562(8) -0.00394(5) 0.29130(6)
O1 O 0.75704(19) 0.15832(13) 0.28203(14)
O2 O 0.5817(2) -0.08417(15) 0.12629(13)
C1 C 0.3996(3) -0.04710(19) 0.34480(18)
C2 C 0.4677(4) -0.24771(18) 0.40681(18)
H1 H 0.4187 -0.2850 0.3692
H2 H 0.4786 -0.2813 0.4587
H3 H 0.5463 -0.2359 0.3817
C3 C 0.2282(3) -0.1688(2) 0.4483(2)
H4 H 0.1875 -0.1202 0.4800
H5 H 0.2274 -0.2268 0.4797
H6 H 0.1862 -0.1780 0.3959
C4 C 0.4480(4) -0.0991(2) 0.53262(17)
H7 H 0.5309 -0.0768 0.5274
H8 H 0.4462 -0.1531 0.5692
H9 H 0.3976 -0.0499 0.5557
C5 C 0.2911(3) 0.1070(2) 0.2328(2)
H10 H 0.3057 0.1577 0.2718
H11 H 0.2198 0.1212 0.1997
H12 H 0.3610 0.0999 0.1967
C6 C 0.1336(3) 0.0259(2) 0.3594(2)
H13 H 0.0917 -0.0311 0.3754
H14 H 0.0781 0.0664 0.3293
H15 H 0.1624 0.0579 0.4088
C7 C 0.2017(3) -0.0863(2) 0.2123(2)
H16 H 0.2540 -0.0874 0.1637
H17 H 0.1212 -0.0656 0.1962
H18 H 0.1968 -0.1487 0.2358
C8 C 0.5721(3) 0.09205(19) 0.41041(17)
C9 C 0.4808(3) 0.11347(18) 0.46648(17)
H19 H 0.4048 0.0843 0.4602
C10 C 0.4964(3) 0.1753(2) 0.53071(18)
H20 H 0.4326 0.1865 0.5683
C11 C 0.6047(3) 0.2204(2) 0.54004(18)
H21 H 0.6162 0.2631 0.5838
C12 C 0.6965(3) 0.2025(2) 0.48481(19)
H22 H 0.7709 0.2341 0.4912
C13 C 0.6836(3) 0.1396(2) 0.41987(19)
C14 C 0.7894(3) 0.1274(2) 0.36338(19)
H23 H 0.8585 0.1639 0.3840
H24 H 0.8132 0.0614 0.3617
C15 C 0.8562(3) 0.1480(2) 0.2269(2)
H25 H 0.9247 0.1841 0.2473
H26 H 0.8332 0.1705 0.1722
H27 H 0.8787 0.0825 0.2235
C16 C 0.6609(3) -0.05616(19) 0.31395(18)
C17 C 0.7122(3) -0.0961(2) 0.3839(2)
H28 H 0.6730 -0.0882 0.4354
C18 C 0.8180(3) -0.1467(2) 0.3814(2)
H29 H 0.8499 -0.1730 0.4304
C19 C 0.8763(4) -0.1587(2) 0.3076(3)
H30 H 0.9493 -0.1928 0.3054
C20 C 0.8287(3) -0.1212(2) 0.2373(2)
H31 H 0.8697 -0.1296 0.1865
C21 C 0.7208(3) -0.0705(2) 0.23856(19)
C22 C 0.6769(3) -0.0284(2) 0.15877(19)
H32 H 0.6474 0.0354 0.1688
H33 H 0.7438 -0.0252 0.1187
C23 C 0.5321(4) -0.0427(3) 0.0539(2)
H34 H 0.4964 0.0173 0.0680
H35 H 0.4700 -0.0834 0.0310
H36 H 0.5958 -0.0336 0.0130
Rb1C Rb 0.46202(3) -0.22381(2) 0.211412(19)
O2C O 0.4183(2) 0.41583(15) 0.37371(13)
loop_
_geom_bond_atom_site_label_1
_geom_bond_atom_site_label_2
_geom_bond_site_symmetry_1
_geom_bond_site_symmetry_2
Rb1 P1 1_555 1_555
P1 C1 1_555 1_555
Si1 C1 1_555 1_555
Si2 C1 1_555 1_555
O1 Rb1 1_555 1_555
O2 C22 1_555 1_555
C2 Si1 1_555 1_555
H1 C2 1_555 1_555
H2 C2 1_555 1_555
H3 C2 1_555 1_555
C3 Si1 1_555 1_555
H4 C3 1_555 1_555
H5 C3 1_555 1_555
H6 C3 1_555 1_555
C4 Si1 1_555 1_555
H7 C4 1_555 1_555
H8 C4 1_555 1_555
H9 C4 1_555 1_555
C5 Si2 1_555 1_555
H10 C5 1_555 1_555
H11 C5 1_555 1_555
H12 C5 1_555 1_555
C6 Si2 1_555 1_555
H13 C6 1_555 1_555
H14 C6 1_555 1_555
H15 C6 1_555 1_555
C7 Si2 1_555 1_555
H16 C7 1_555 1_555
H17 C7 1_555 1_555
H18 C7 1_555 1_555
C8 P1 1_555 1_555
C9 C8 1_555 1_555
H19 C9 1_555 1_555
C10 C9 1_555 1_555
H20 C10 1_555 1_555
C11 C10 1_555 1_555
H21 C11 1_555 1_555
C12 C11 1_555 1_555
H22 C12 1_555 1_555
C13 C8 1_555 1_555
C14 O1 1_555 1_555
H23 C14 1_555 1_555
H24 C14 1_555 1_555
C15 O1 1_555 1_555
H25 C15 1_555 1_555
H26 C15 1_555 1_555
H27 C15 1_555 1_555
C16 P1 1_555 1_555
C17 C16 1_555 1_555
H28 C17 1_555 1_555
C18 C17 1_555 1_555
H29 C18 1_555 1_555
C19 C18 1_555 1_555
H30 C19 1_555 1_555
C20 C19 1_555 1_555
H31 C20 1_555 1_555
C21 C16 1_555 1_555
C22 C21 1_555 1_555
H32 C22 1_555 1_555
H33 C22 1_555 1_555
C23 O2 1_555 1_555
H34 C23 1_555 1_555
H35 C23 1_555 1_555
H36 C23 1_555 1_555
Rb1C O2 1_555 1_555
O2C Rb1 1_555 1_555
C12 C13 1_555 1_555
C13 C14 1_555 1_555
C20 C21 1_555 1_555

#END
