
#######################################################################
#
#                 Cambridge Crystallographic Data Centre
#                                CCDC 
#
#######################################################################
#
# If this CIF has been generated from an entry in the Cambridge 
# Structural Database, then it will include bibliographic, chemical, 
# crystal, experimental, refinement or atomic coordinate data resulting 
# from the CCDC's data processing and validation procedures.
#
#######################################################################

data_TAMROP
_symmetry_cell_setting           orthorhombic
_symmetry_space_group_name_H-M   'A b a 2'
_symmetry_Int_Tables_number      41
_space_group_name_Hall           'A 2 -2ab'
loop_
_symmetry_equiv_pos_site_id
_symmetry_equiv_pos_as_xyz
1 x,y,z
2 -x,-y,z
3 1/2+x,1/2-y,z
4 1/2-x,1/2+y,z
5 x,1/2+y,1/2+z
6 -x,1/2-y,1/2+z
7 1/2+x,-y,1/2+z
8 1/2-x,y,1/2+z
_cell_length_a                   12.144(2)
_cell_length_b                   40.776(7)
_cell_length_c                   8.3530(15)
_cell_angle_alpha                90
_cell_angle_beta                 90
_cell_angle_gamma                90
_cell_volume                     4136.27
loop_
_atom_site_label
_atom_site_type_symbol
_atom_site_fract_x
_atom_site_fract_y
_atom_site_fract_z
Cd1 Cd 0.5000 1.0000 0.47167(16)
O1 O 0.5000 1.0000 0.179(2)
O2 O 0.5000 1.0000 0.7416(18)
C1 C 0.7172(5) 0.89196(17) 0.4674(14)
N1 N 0.5949(5) 0.95016(15) 0.4789(14)
C2 C 0.6123(6) 0.8943(2) 0.3999(11)
H1 H 0.5806 0.8762 0.3498
C3 C 0.7832(5) 0.86069(17) 0.4551(14)
H2 H 0.8036 0.8539 0.5636
C4 C 0.7961(7) 0.81432(19) 0.2983(12)
N2 N 0.7222(5) 0.83364(16) 0.3794(9)
H3 H 0.6523 0.8305 0.3850
C5 C 0.7569(7) 0.91958(19) 0.5428(11)
H4 H 0.8267 0.9193 0.5885
C6 C 0.7753(6) 0.7835(2) 0.2266(13)
H5 H 0.7069 0.7736 0.2393
C7 C 0.8896(6) 0.86332(19) 0.3545(9)
H6 H 0.8787 0.8800 0.2717
C8 C 0.8528(9) 0.7686(2) 0.1413(13)
H7 H 0.8402 0.7476 0.1025
C9 C 0.5563(6) 0.9237(2) 0.4083(11)
H8 H 0.4870 0.9249 0.3611
C10 C 0.8949(7) 0.82969(19) 0.2739(10)
C11 C 0.9556(9) 0.7844(2) 0.1082(12)
C12 C 1.0367(10) 0.7696(3) 0.0110(13)
H9 H 1.0237 0.7489 -0.0321
C13 C 1.1327(8) 0.7850(2) -0.0204(18)
H10 H 1.1846 0.7751 -0.0864
C14 C 1.1542(8) 0.8155(3) 0.0455(13)
H11 H 1.2204 0.8259 0.0222
C15 C 1.0801(7) 0.8306(2) 0.1439(11)
H12 H 1.0969 0.8508 0.1895
C16 C 0.6942(7) 0.9475(2) 0.5509(12)
H13 H 0.7211 0.9654 0.6081
C17 C 0.9767(6) 0.8153(2) 0.1768(11)
C18 C 0.9891(6) 0.87260(19) 0.4530(17)
C19 C 1.0288(6) 0.8526(2) 0.5722(13)
H14 H 0.9950 0.8324 0.5886
C20 C 1.0465(6) 0.9016(2) 0.4264(8)
H15 H 1.0222 0.9157 0.3463
C21 C 1.1149(8) 0.8610(3) 0.6668(11)
H16 H 1.1352 0.8477 0.7523
C22 C 1.1385(6) 0.9102(2) 0.5149(9)
C23 C 1.1721(7) 0.8895(3) 0.6353(12)
H17 H 1.2338 0.8947 0.6960
C24 C 1.2026(5) 0.93987(18) 0.4772(16)
N3 N 1.3112(5) 0.94265(18) 0.5046(9)
N4 N 1.1607(5) 0.96679(18) 0.4097(10)
N5 N 1.3347(5) 0.97251(16) 0.4503(14)
N6 N 1.2482(6) 0.98707(18) 0.3877(12)
Cd1_2 Cd 1.5000 1.0000 0.47167(16)
Cd1_3 Cd -0.5000 1.0000 0.47167(16)
C1A C 0.2828(5) 1.10804(17) 0.4674(14)
N1A N 0.4051(5) 1.04984(15) 0.4789(14)
C2A C 0.3877(6) 1.1057(2) 0.3999(11)
H1A H 0.4194 1.1238 0.3498
C3A C 0.2168(5) 1.13931(17) 0.4551(14)
H2A H 0.1964 1.1461 0.5636
C4A C 0.2039(7) 1.18568(19) 0.2983(12)
N2A N 0.2778(5) 1.16636(16) 0.3794(9)
H3A H 0.3477 1.1695 0.3850
C5A C 0.2431(7) 1.08042(19) 0.5428(11)
H4A H 0.1733 1.0807 0.5885
C6A C 0.2247(6) 1.2165(2) 0.2266(13)
H5A H 0.2931 1.2264 0.2393
C7A C 0.1104(6) 1.13668(19) 0.3545(9)
H6A H 0.1213 1.1200 0.2717
C8A C 0.1472(9) 1.2314(2) 0.1413(13)
H7A H 0.1598 1.2524 0.1025
C9A C 0.4437(6) 1.0763(2) 0.4083(11)
H8A H 0.5130 1.0751 0.3611
C10A C 0.1051(7) 1.17031(19) 0.2739(10)
C11A C 0.0444(9) 1.2156(2) 0.1082(12)
C12A C -0.0367(10) 1.2304(3) 0.0110(13)
H9A H -0.0237 1.2511 -0.0321
C13A C -0.1327(8) 1.2150(2) -0.0204(18)
H10A H -0.1846 1.2249 -0.0864
C14A C -0.1542(8) 1.1845(3) 0.0455(13)
H11A H -0.2204 1.1741 0.0222
C15A C -0.0801(7) 1.1694(2) 0.1439(11)
H12A H -0.0969 1.1492 0.1895
C16A C 0.3058(7) 1.0525(2) 0.5509(12)
H13A H 0.2789 1.0346 0.6081
C17A C 0.0233(6) 1.1847(2) 0.1768(11)
C18A C 0.0109(6) 1.12740(19) 0.4530(17)
C19A C -0.0288(6) 1.1474(2) 0.5722(13)
H14A H 0.0050 1.1676 0.5886
C20A C -0.0465(6) 1.0984(2) 0.4264(8)
H15A H -0.0222 1.0843 0.3463
C21A C -0.1149(8) 1.1390(3) 0.6668(11)
H16A H -0.1352 1.1523 0.7523
C22A C -0.1385(6) 1.0898(2) 0.5149(9)
C23A C -0.1721(7) 1.1105(3) 0.6353(12)
H17A H -0.2338 1.1053 0.6960
C24A C -0.2026(5) 1.06013(18) 0.4772(16)
N3A N -0.3112(5) 1.05735(18) 0.5046(9)
N4A N -0.1607(5) 1.03321(18) 0.4097(10)
N5A N -0.3347(5) 1.02749(16) 0.4503(14)
N5_2 N 0.3347(5) 0.97251(16) 0.4503(14)
N5A_2 N 0.6653(5) 1.02749(16) 0.4503(14)
N6A N -0.2482(6) 1.01293(18) 0.3877(12)
loop_
_geom_bond_atom_site_label_1
_geom_bond_atom_site_label_2
_geom_bond_site_symmetry_1
_geom_bond_site_symmetry_2
Cd1 O1 1_555 1_555
O2 Cd1 1_555 1_555
C1 C2 1_555 1_555
N1 Cd1 1_555 1_555
C2 H1 1_555 1_555
C3 C1 1_555 1_555
H2 C3 1_555 1_555
C4 N2 1_555 1_555
N2 C3 1_555 1_555
H3 N2 1_555 1_555
C5 C1 1_555 1_555
H4 C5 1_555 1_555
C6 C4 1_555 1_555
H5 C6 1_555 1_555
C7 C3 1_555 1_555
H6 C7 1_555 1_555
C8 C6 1_555 1_555
H7 C8 1_555 1_555
C9 N1 1_555 1_555
H8 C9 1_555 1_555
C10 C4 1_555 1_555
C11 C8 1_555 1_555
C12 C11 1_555 1_555
H9 C12 1_555 1_555
C13 C12 1_555 1_555
H10 C13 1_555 1_555
C14 C13 1_555 1_555
H11 C14 1_555 1_555
C15 C14 1_555 1_555
H12 C15 1_555 1_555
C16 N1 1_555 1_555
H13 C16 1_555 1_555
C17 C10 1_555 1_555
C18 C7 1_555 1_555
C19 C18 1_555 1_555
H14 C19 1_555 1_555
C20 C18 1_555 1_555
H15 C20 1_555 1_555
C21 C19 1_555 1_555
H16 C21 1_555 1_555
C22 C20 1_555 1_555
C23 C21 1_555 1_555
H17 C23 1_555 1_555
C24 C22 1_555 1_555
N3 C24 1_555 1_555
N4 C24 1_555 1_555
N5 N3 1_555 1_555
N6 N4 1_555 1_555
Cd1_2 N5 1_555 1_555
Cd1_3 N5A 1_555 1_555
C1A C2A 1_555 1_555
N1A Cd1 1_555 1_555
C2A H1A 1_555 1_555
C3A C1A 1_555 1_555
H2A C3A 1_555 1_555
C4A N2A 1_555 1_555
N2A C3A 1_555 1_555
H3A N2A 1_555 1_555
C5A C1A 1_555 1_555
H4A C5A 1_555 1_555
C6A C4A 1_555 1_555
H5A C6A 1_555 1_555
C7A C3A 1_555 1_555
H6A C7A 1_555 1_555
C8A C6A 1_555 1_555
H7A C8A 1_555 1_555
C9A N1A 1_555 1_555
H8A C9A 1_555 1_555
C10A C4A 1_555 1_555
C11A C8A 1_555 1_555
C12A C11A 1_555 1_555
H9A C12A 1_555 1_555
C13A C12A 1_555 1_555
H10A C13A 1_555 1_555
C14A C13A 1_555 1_555
H11A C14A 1_555 1_555
C15A C14A 1_555 1_555
H12A C15A 1_555 1_555
C16A N1A 1_555 1_555
H13A C16A 1_555 1_555
C17A C10A 1_555 1_555
C18A C7A 1_555 1_555
C19A C18A 1_555 1_555
H14A C19A 1_555 1_555
C20A C18A 1_555 1_555
H15A C20A 1_555 1_555
C21A C19A 1_555 1_555
H16A C21A 1_555 1_555
C22A C20A 1_555 1_555
C23A C21A 1_555 1_555
H17A C23A 1_555 1_555
C24A C22A 1_555 1_555
N3A C24A 1_555 1_555
N4A C24A 1_555 1_555
N5A N3A 1_555 1_555
N5_2 Cd1 1_555 1_555
N5A_2 Cd1 1_555 1_555
N6A N4A 1_555 1_555
C2 C9 1_555 1_555
C5 C16 1_555 1_555
C7 C10 1_555 1_555
C11 C17 1_555 1_555
C15 C17 1_555 1_555
C22 C23 1_555 1_555
N5 N6 1_555 1_555
C2A C9A 1_555 1_555
C5A C16A 1_555 1_555
C7A C10A 1_555 1_555
C11A C17A 1_555 1_555
C15A C17A 1_555 1_555
C22A C23A 1_555 1_555
N5A N6A 1_555 1_555

#END
