
#######################################################################
#
#                 Cambridge Crystallographic Data Centre
#                                CCDC 
#
#######################################################################
#
# If this CIF has been generated from an entry in the Cambridge 
# Structural Database, then it will include bibliographic, chemical, 
# crystal, experimental, refinement or atomic coordinate data resulting 
# from the CCDC's data processing and validation procedures.
#
#######################################################################

data_TAMZUE
_symmetry_cell_setting           triclinic
_symmetry_space_group_name_H-M   'P -1'
_symmetry_Int_Tables_number      2
_space_group_name_Hall           '-P 1'
loop_
_symmetry_equiv_pos_site_id
_symmetry_equiv_pos_as_xyz
1 x,y,z
2 -x,-y,-z
_cell_length_a                   11.1450(15)
_cell_length_b                   12.424(2)
_cell_length_c                   22.1800(12)
_cell_angle_alpha                102.016(2)
_cell_angle_beta                 103.475(3)
_cell_angle_gamma                95.419(2)
_cell_volume                     2888
loop_
_atom_site_label
_atom_site_type_symbol
_atom_site_fract_x
_atom_site_fract_y
_atom_site_fract_z
C1 C 0.3008(6) 0.1724(5) 0.6292(3)
H1 H 0.2243 0.1266 0.6117
C2 C 0.3475(7) 0.2409(6) 0.5918(3)
H2 H 0.3048 0.2351 0.5496
C3 C 0.4535(5) 0.3130(5) 0.6191(3)
C4 C 0.5222(6) 0.3106(5) 0.6830(3)
H3 H 0.5977 0.3573 0.7023
C5 C 0.4775(6) 0.2416(5) 0.7141(3)
C6 C 0.5337(6) 0.2312(5) 0.7785(3)
C7 C 0.6396(5) 0.3065(5) 0.8199(3)
H4 H 0.6736 0.3658 0.8066
C8 C 0.6937(6) 0.2898(5) 0.8827(3)
C9 C 0.6436(6) 0.2018(5) 0.8962(3)
H5 H 0.6806 0.1849 0.9345
C10 C 0.5381(6) 0.1321(5) 0.8564(3)
H6 H 0.5028 0.0737 0.8701
C11 C 0.5065(6) 0.3920(4) 0.5847(3)
C12 C 0.8068(6) 0.3696(6) 0.9262(3)
C13 C 0.2841(6) -0.1080(5) 0.8034(3)
H7 H 0.3205 -0.1510 0.7751
C14 C 0.2383(5) -0.1540(5) 0.8430(3)
H8 H 0.2391 -0.2294 0.8410
C15 C 0.1871(5) -0.0889(5) 0.8889(3)
C16 C 0.1814(5) 0.0200(5) 0.8902(3)
H9 H 0.1489 0.0640 0.9200
C17 C 0.2260(5) 0.0633(5) 0.8452(3)
C18 C 0.2299(6) 0.1826(5) 0.8438(3)
C19 C 0.1837(6) 0.2608(5) 0.8847(3)
H10 H 0.1573 0.2420 0.9185
C20 C 0.1781(6) 0.3649(5) 0.8740(3)
C21 C 0.2049(6) 0.3894(4) 0.8229(3)
H11 H 0.1956 0.4579 0.8131
C22 C 0.2482(6) 0.3055(5) 0.7846(3)
H12 H 0.2677 0.3242 0.7492
C23 C 0.1349(6) -0.1425(5) 0.9323(4)
C24 C 0.1207(6) 0.4391(5) 0.9162(3)
C25 C 0.0488(5) 0.0620(4) 0.6914(3)
H13 H 0.0524 0.1301 0.7193
C26 C -0.0675(6) 0.0059(5) 0.6528(3)
H14 H -0.1394 0.0388 0.6514
C27 C -0.0713(6) -0.0973(5) 0.6181(3)
C28 C 0.0434(5) -0.1456(5) 0.6141(3)
H15 H 0.0412 -0.2150 0.5877
C29 C 0.1533(5) -0.0826(5) 0.6515(3)
C30 C 0.2760(5) -0.1148(5) 0.6503(3)
C31 C 0.2975(6) -0.2038(6) 0.6116(3)
H16 H 0.2306 -0.2522 0.5824
C32 C 0.4216(6) -0.2262(5) 0.6142(3)
C33 C 0.5166(6) -0.1522(6) 0.6612(3)
H17 H 0.5985 -0.1653 0.6653
C34 C 0.4946(6) -0.0623(5) 0.7011(3)
H18 H 0.5602 -0.0157 0.7322
C35 C -0.1931(6) -0.1704(5) 0.5830(3)
C36 C 0.4565(6) -0.3222(6) 0.5721(4)
Co1 Co 0.32239(8) 0.08629(7) 0.74301(4)
Gd1 Gd 0.30126(3) 0.44649(2) 0.451350(15)
Gd2 Gd 0.95940(3) 0.63148(3) 0.949312(15)
N1 N 0.3676(5) 0.1734(4) 0.6908(3)
N2 N 0.4854(5) 0.1475(4) 0.7979(2)
N3 N 0.2797(4) 0.0071(4) 0.8024(2)
N4 N 0.2652(5) 0.2078(4) 0.7903(2)
N5 N 0.1560(5) 0.0208(4) 0.6893(2)
N6 N 0.3765(4) -0.0411(4) 0.6952(2)
O1 O 0.4299(4) 0.4098(4) 0.5379(2)
O2 O 0.6218(4) 0.4331(3) 0.60027(19)
O3 O 0.8399(4) 0.4511(4) 0.9097(2)
O4 O 0.8557(4) 0.3404(3) 0.9719(2)
O5 O 0.0910(4) -0.2449(4) 0.9183(2)
O6 O 0.1288(4) -0.0760(4) 0.9836(2)
O7 O 0.0954(4) 0.4157(3) 0.9633(2)
O8 O 0.0917(4) 0.5279(3) 0.8967(2)
O9 O -0.2869(4) -0.1252(4) 0.5717(2)
O10 O -0.1952(4) -0.2732(3) 0.5614(2)
O11 O 0.3634(4) -0.3777(4) 0.5290(2)
O12 O 0.5562(4) -0.3531(4) 0.5870(2)
O22 O 0.2014(4) 0.3666(4) 0.3376(2)
H19 H 0.2573 0.3255 0.3184
H20 H 0.1262 0.3177 0.3331
O23 O 0.1327(4) 0.5408(4) 0.4153(2)
H21 H 0.1618 0.6012 0.3990
H22 H 0.0697 0.4894 0.3821
O24 O 0.1740(4) 0.4548(4) 0.5262(2)
H23 H 0.1186 0.3858 0.5161
H24 H 0.2268 0.4670 0.5687
O25 O 0.8806(5) 0.6285(4) 0.8372(2)
H25 H 0.9491 0.6440 0.8194
H26 H 0.8344 0.5565 0.8148
O26 O 0.7532(4) 0.6767(4) 0.9296(2)
H27 H 0.7428 0.7232 0.9679
H28 H 0.6936 0.6098 0.9171
O27 O 0.9792(4) 0.8100(4) 1.0253(2)
H29 H 1.0183 0.8006 1.0652
H30 H 1.0174 0.8619 1.0226
Gd1A Gd 0.69874(3) 0.55351(2) 0.548650(15)
Gd1A_2 Gd -0.30126(3) -0.44649(2) 0.548650(15)
Gd1_2 Gd 0.30126(3) -0.55351(2) 0.451350(15)
Gd1A_3 Gd 0.69874(3) -0.44649(2) 0.548650(15)
Gd2A Gd 1.04060(3) 0.36852(3) 1.050688(15)
Gd2_2 Gd -0.04060(3) -0.36852(3) 0.949312(15)
Gd2A_2 Gd 0.04060(3) 0.36852(3) 1.050688(15)
Gd2_3 Gd -0.04060(3) 0.63148(3) 0.949312(15)
O2A O 0.3782(4) 0.5669(3) 0.39973(19)
O4A O 1.1443(4) 0.6596(3) 1.0281(2)
O5_2 O 1.0910(4) 0.7551(4) 0.9183(2)
O7A O 0.9046(4) 0.5843(3) 1.0367(2)
O8_2 O 1.0917(4) 0.5279(3) 0.8967(2)
O10A O 0.1952(4) 0.2732(3) 0.4386(2)
O11_2 O 0.3634(4) 0.6223(4) 0.5290(2)
O12A O 0.4438(4) 0.3531(4) 0.4130(2)
N7 N 0.1382(6) 0.9641(5) 0.2006(3)
O13 O 0.0979(4) 1.0522(4) 0.2028(2)
O14 O 0.0908(5) 0.8832(4) 0.1556(2)
O15 O 0.2249(4) 0.9541(4) 0.2419(2)
N8 N 0.8766(6) 0.3953(5) 0.2911(3)
O16 O 0.9614(5) 0.3764(4) 0.2651(2)
O17 O 0.7883(4) 0.4291(4) 0.2617(2)
O18 O 0.8750(5) 0.3711(4) 0.3416(2)
N9 N 0.7884(5) 0.1513(5) 0.5384(3)
O19 O 0.6835(4) 0.1029(4) 0.5224(2)
O20 O 0.8103(4) 0.2521(4) 0.5624(2)
O21 O 0.8762(4) 0.1013(4) 0.5315(2)
O28 O 0.1282(9) 0.5166(8) 0.2757(5)
H31 H 0.1282 0.5862 0.2873
H32 H 0.1932 0.5023 0.2997
O29 O 0.6433(9) 0.6483(7) 0.7548(4)
H33 H 0.5964 0.6155 0.7728
H34 H 0.6628 0.7167 0.7741
O30 O 0.0956(9) 0.7150(8) 0.2192(5)
H35 H 0.0173 0.7128 0.2055
H36 H 0.1299 0.7821 0.2354
O31 O 0.9139(9) 0.6221(9) 0.3828(4)
H37 H 0.8513 0.5927 0.3515
H38 H 0.9163 0.6924 0.3919
O32 O 0.5063(9) 0.5152(6) 0.9165(4)
H39 H 0.4608 0.4747 0.8813
H40 H 0.5454 0.4745 0.9382
O33 O 0.3559(9) 0.6906(8) 0.9545(4)
H41 H 0.3967 0.7343 0.9897
H42 H 0.2874 0.6609 0.9588
O34 O 0.3967(9) 0.1578(8) 0.0745(5)
H43 H 0.4085 0.1632 0.0387
H44 H 0.4347 0.1071 0.0871
loop_
_geom_bond_atom_site_label_1
_geom_bond_atom_site_label_2
_geom_bond_site_symmetry_1
_geom_bond_site_symmetry_2
C1 H1 1_555 1_555
C2 C1 1_555 1_555
H2 C2 1_555 1_555
C3 C2 1_555 1_555
C4 C3 1_555 1_555
H3 C4 1_555 1_555
C5 C4 1_555 1_555
C6 C5 1_555 1_555
C7 C6 1_555 1_555
H4 C7 1_555 1_555
C8 C7 1_555 1_555
C9 C8 1_555 1_555
H5 C9 1_555 1_555
C10 C9 1_555 1_555
H6 C10 1_555 1_555
C11 C3 1_555 1_555
C12 C8 1_555 1_555
C13 H7 1_555 1_555
C14 C13 1_555 1_555
H8 C14 1_555 1_555
C15 C14 1_555 1_555
C16 C15 1_555 1_555
H9 C16 1_555 1_555
C17 C16 1_555 1_555
C18 C17 1_555 1_555
C19 C18 1_555 1_555
H10 C19 1_555 1_555
C20 C19 1_555 1_555
C21 C20 1_555 1_555
H11 C21 1_555 1_555
C22 C21 1_555 1_555
H12 C22 1_555 1_555
C23 C15 1_555 1_555
C24 C20 1_555 1_555
C25 H13 1_555 1_555
C26 C25 1_555 1_555
H14 C26 1_555 1_555
C27 C26 1_555 1_555
C28 C27 1_555 1_555
H15 C28 1_555 1_555
C29 C28 1_555 1_555
C30 C29 1_555 1_555
C31 C30 1_555 1_555
H16 C31 1_555 1_555
C32 C31 1_555 1_555
C33 C32 1_555 1_555
H17 C33 1_555 1_555
C34 C33 1_555 1_555
H18 C34 1_555 1_555
C35 C27 1_555 1_555
C36 C32 1_555 1_555
Co1 N1 1_555 1_555
Gd1 O1 1_555 1_555
Gd2 O3 1_555 1_555
N1 C1 1_555 1_555
N2 C6 1_555 1_555
N3 C13 1_555 1_555
N4 C18 1_555 1_555
N5 C25 1_555 1_555
N6 C30 1_555 1_555
N7 O13 1_555 1_555
N8 O16 1_555 1_555
N9 O19 1_555 1_555
O1 C11 1_555 1_555
O2 C11 1_555 1_555
O3 C12 1_555 1_555
O4 C12 1_555 1_555
O5 C23 1_555 1_555
O6 C23 1_555 1_555
O7 C24 1_555 1_555
O8 C24 1_555 1_555
O9 C35 1_555 1_555
O10 C35 1_555 1_555
O11 C36 1_555 1_555
O12 C36 1_555 1_555
O14 N7 1_555 1_555
O15 N7 1_555 1_555
O17 N8 1_555 1_555
O18 N8 1_555 1_555
O20 N9 1_555 1_555
O21 N9 1_555 1_555
O22 Gd1 1_555 1_555
H19 O22 1_555 1_555
H20 O22 1_555 1_555
O23 Gd1 1_555 1_555
H21 O23 1_555 1_555
H22 O23 1_555 1_555
O24 Gd1 1_555 1_555
H23 O24 1_555 1_555
H24 O24 1_555 1_555
O25 Gd2 1_555 1_555
H25 O25 1_555 1_555
H26 O25 1_555 1_555
O26 Gd2 1_555 1_555
H27 O26 1_555 1_555
H28 O26 1_555 1_555
O27 Gd2 1_555 1_555
H29 O27 1_555 1_555
H30 O27 1_555 1_555
O28 H31 1_555 1_555
H32 O28 1_555 1_555
O29 H33 1_555 1_555
H34 O29 1_555 1_555
O30 H35 1_555 1_555
H36 O30 1_555 1_555
O31 H37 1_555 1_555
H38 O31 1_555 1_555
O32 H39 1_555 1_555
H40 O32 1_555 1_555
O33 H41 1_555 1_555
H42 O33 1_555 1_555
O34 H43 1_555 1_555
H44 O34 1_555 1_555
Gd1A O2 1_555 1_555
Gd1A_2 O10 1_555 1_555
Gd1_2 O11 1_555 1_555
Gd1A_3 O12 1_555 1_555
Gd2A O4 1_555 1_555
Gd2_2 O5 1_555 1_555
Gd2A_2 O7 1_555 1_555
Gd2_3 O8 1_555 1_555
O2A Gd1 1_555 1_555
O4A Gd2 1_555 1_555
O5_2 Gd2 1_555 1_555
O7A Gd2 1_555 1_555
O8_2 Gd2 1_555 1_555
O10A Gd1 1_555 1_555
O11_2 Gd1 1_555 1_555
O12A Gd1 1_555 1_555
C5 N1 1_555 1_555
C10 N2 1_555 1_555
C17 N3 1_555 1_555
C22 N4 1_555 1_555
C29 N5 1_555 1_555
C34 N6 1_555 1_555
Co1 N2 1_555 1_555
Co1 N3 1_555 1_555
Co1 N4 1_555 1_555
Co1 N5 1_555 1_555
Co1 N6 1_555 1_555

#END
