
#######################################################################
#
#                 Cambridge Crystallographic Data Centre
#                                CCDC 
#
#######################################################################
#
# If this CIF has been generated from an entry in the Cambridge 
# Structural Database, then it will include bibliographic, chemical, 
# crystal, experimental, refinement or atomic coordinate data resulting 
# from the CCDC's data processing and validation procedures.
#
#######################################################################

data_TAMZOY
_symmetry_cell_setting           triclinic
_symmetry_space_group_name_H-M   'P -1'
_symmetry_Int_Tables_number      2
_space_group_name_Hall           '-P 1'
loop_
_symmetry_equiv_pos_site_id
_symmetry_equiv_pos_as_xyz
1 x,y,z
2 -x,-y,-z
_cell_length_a                   11.682(2)
_cell_length_b                   15.1662(15)
_cell_length_c                   15.468(2)
_cell_angle_alpha                96.085(2)
_cell_angle_beta                 109.650(3)
_cell_angle_gamma                90.622(2)
_cell_volume                     2563.19
loop_
_atom_site_label
_atom_site_type_symbol
_atom_site_fract_x
_atom_site_fract_y
_atom_site_fract_z
C1 C 1.0096(3) 0.1326(2) 0.1560(2)
H1 H 0.9711 0.1846 0.1638
C2 C 0.9431(3) 0.0524(2) 0.1297(2)
H2 H 0.8616 0.0502 0.1250
C3 C 0.9970(3) -0.0247(2) 0.1104(2)
C4 C 1.1190(3) -0.0188(2) 0.1184(2)
H3 H 1.1571 -0.0688 0.1035
C5 C 1.1831(3) 0.0618(2) 0.1488(2)
C6 C 1.3148(3) 0.0742(2) 0.1609(3)
C7 C 1.3809(3) 0.0083(3) 0.1342(2)
H4 H 1.3442 -0.0472 0.1070
C8 C 1.5032(3) 0.0265(2) 0.1489(2)
C9 C 1.5562(3) 0.1098(2) 0.1914(3)
H5 H 1.6385 0.1229 0.2039
C10 C 1.4829(3) 0.1722(2) 0.2144(3)
H6 H 1.5174 0.2282 0.2418
C11 C 0.9282(3) -0.1120(2) 0.0804(3)
C12 C 1.5761(3) -0.0412(2) 0.1185(3)
C13 C 0.6784(3) 0.5826(2) 0.4230(2)
H7 H 0.7330 0.6101 0.4783
C14 C 0.6072(3) 0.5117(2) 0.4243(3)
H8 H 0.6136 0.4910 0.4801
C15 C 0.5240(3) 0.4694(2) 0.3413(2)
C16 C 0.5110(3) 0.5040(3) 0.2607(3)
H9 H 0.4532 0.4797 0.2054
C17 C 0.5867(3) 0.5768(2) 0.2636(3)
C18 C 0.5859(3) 0.6211(2) 0.1814(2)
C19 C 0.4963(3) 0.6001(2) 0.0958(3)
H10 H 0.4323 0.5593 0.0872
C20 C 0.5067(4) 0.6432(2) 0.0224(3)
C21 C 0.6030(3) 0.7051(2) 0.0387(3)
H11 H 0.6100 0.7346 -0.0091
C22 C 0.6868(3) 0.7219(2) 0.1254(3)
H12 H 0.7517 0.7624 0.1356
C23 C 0.4519(3) 0.3857(2) 0.3406(2)
C24 C 0.4112(3) 0.6237(2) -0.0707(2)
C25 C 0.5952(3) 0.8045(3) 0.3603(3)
H13 H 0.5508 0.7518 0.3552
C26 C 0.5482(3) 0.8864(2) 0.3816(3)
H14 H 0.4741 0.8870 0.3917
C27 C 0.6109(3) 0.9643(3) 0.3875(3)
C28 C 0.7227(3) 0.9606(2) 0.3737(2)
H15 H 0.7677 1.0128 0.3779
C29 C 0.7669(3) 0.8801(2) 0.3539(3)
C30 C 0.8817(3) 0.8673(2) 0.3362(2)
C31 C 0.9723(3) 0.9341(2) 0.3518(2)
H16 H 0.9612 0.9922 0.3724
C32 C 1.0810(3) 0.9117(2) 0.3355(2)
C33 C 1.0908(3) 0.8271(2) 0.2979(2)
H17 H 1.1581 0.8131 0.2808
C34 C 1.0002(3) 0.7630(2) 0.2855(2)
H18 H 1.0084 0.7055 0.2615
C35 C 0.5696(3) 1.0538(2) 0.4159(2)
C36 C 1.1802(3) 0.9827(2) 0.3607(2)
C37 C 0.8608(3) 0.5392(2) 0.2304(3)
H19 H 0.7941 0.5445 0.1778
C38 C 0.9400(3) 0.4709(2) 0.2285(3)
H20 H 0.9245 0.4310 0.1754
C39 C 1.0398(3) 0.4624(2) 0.3041(3)
C40 C 1.0597(3) 0.5215(2) 0.3827(3)
H21 H 1.1271 0.5170 0.4351
C41 C 0.9790(3) 0.5871(2) 0.3831(3)
C42 C 0.9884(3) 0.6513(2) 0.4642(2)
C43 C 1.0847(3) 0.6536(2) 0.5465(3)
H22 H 1.1483 0.6158 0.5522
C44 C 1.0842(3) 0.7138(2) 0.6205(2)
C45 C 0.9875(3) 0.7710(2) 0.6081(3)
H23 H 0.9858 0.8125 0.6564
C46 C 0.8962(3) 0.7653(2) 0.5246(2)
H24 H 0.8314 0.8022 0.5172
C47 C 1.1315(3) 0.3908(2) 0.3090(2)
C48 C 1.1854(3) 0.7166(2) 0.7122(2)
Co1 Co 0.78568(4) 0.69721(3) 0.32402(3)
Co2 Co 1.24588(4) 0.25254(3) 0.22476(3)
N1 N 1.1310(3) 0.13572(19) 0.1704(2)
N2 N 1.3647(3) 0.1558(2) 0.1991(2)
N3 N 0.6713(3) 0.61464(19) 0.3412(2)
N4 N 0.6779(3) 0.6805(2) 0.1986(2)
N5 N 0.7033(3) 0.80189(19) 0.3473(2)
N6 N 0.8987(3) 0.7817(2) 0.3077(2)
N7 N 0.8788(3) 0.59732(19) 0.3064(2)
N8 N 0.8974(3) 0.7064(2) 0.4513(2)
O1 O 0.8228(2) -0.11923(16) 0.08692(17)
O2 O 0.9763(2) -0.17512(16) 0.05099(16)
O3 O 1.5297(2) -0.10569(15) 0.06392(16)
O4 O 1.6923(2) -0.02052(15) 0.14847(16)
H25 H 1.7344 -0.0692 0.1303
O5 O 0.4767(2) 0.35391(15) 0.41408(16)
O6 O 0.3734(2) 0.35968(16) 0.26373(17)
O7 O 0.32200(19) 0.57375(14) -0.08113(15)
O8 O 0.4271(2) 0.66428(15) -0.13413(17)
O9 O 0.4574(2) 1.06189(15) 0.40058(16)
O10 O 0.6503(2) 1.11202(16) 0.45310(17)
O11 O 1.1740(2) 1.05256(16) 0.39841(16)
O12 O 1.2745(2) 0.95501(14) 0.33725(16)
H26 H 1.3436 0.9954 0.3676
O13 O 1.1115(2) 0.33448(16) 0.23902(16)
O14 O 1.2153(2) 0.39565(15) 0.37893(16)
O15 O 1.2624(2) 0.65698(16) 0.71694(17)
O16 O 1.1876(2) 0.77670(15) 0.77289(16)
O17 O 1.2060(2) 0.28652(14) 0.08950(16)
H27 H 1.1416 0.3272 0.0769
H28 H 1.1810 0.2339 0.0461
O18 O 1.3040(2) 0.21874(15) 0.36488(16)
H29 H 1.2864 0.1641 0.3644
H30 H 1.3804 0.2287 0.3897
Co2_2 Co 0.24588(4) 0.25254(3) 0.22476(3)
O6_2 O 1.3734(2) 0.35968(16) 0.26373(17)
O19 O 0.2030(6) 0.7497(4) 0.0974(4)
H31 H 0.2153 0.7521 0.0465
H32 H 0.1438 0.7814 0.0986
O20 O 0.2209(4) 0.4580(3) 0.0276(3)
H33 H 0.1915 0.4497 -0.0311
H34 H 0.2176 0.5135 0.0410
O21 O 0.3452(7) 0.6797(5) 0.2735(5)
H35 H 0.3848 0.6576 0.3225
H36 H 0.2830 0.7039 0.2803
O22 O 0.0138(5) 0.6129(4) 0.1170(4)
H37 H 0.0055 0.6195 0.0614
H38 H -0.0022 0.5589 0.1207
O23 O 0.2958(5) 0.8096(4) 0.9733(4)
H39 H 0.2325 0.8056 0.9883
H40 H 0.3475 0.7741 1.0012
loop_
_geom_bond_atom_site_label_1
_geom_bond_atom_site_label_2
_geom_bond_site_symmetry_1
_geom_bond_site_symmetry_2
C1 H1 1_555 1_555
C2 C1 1_555 1_555
H2 C2 1_555 1_555
C3 C2 1_555 1_555
C4 C3 1_555 1_555
H3 C4 1_555 1_555
C5 C4 1_555 1_555
C6 C5 1_555 1_555
C7 C6 1_555 1_555
H4 C7 1_555 1_555
C8 C7 1_555 1_555
C9 C8 1_555 1_555
H5 C9 1_555 1_555
C10 C9 1_555 1_555
H6 C10 1_555 1_555
C11 C3 1_555 1_555
C12 C8 1_555 1_555
C13 H7 1_555 1_555
C14 C13 1_555 1_555
H8 C14 1_555 1_555
C15 C14 1_555 1_555
C16 C15 1_555 1_555
H9 C16 1_555 1_555
C17 C16 1_555 1_555
C18 C17 1_555 1_555
C19 C18 1_555 1_555
H10 C19 1_555 1_555
C20 C19 1_555 1_555
C21 C20 1_555 1_555
H11 C21 1_555 1_555
C22 C21 1_555 1_555
H12 C22 1_555 1_555
C23 C15 1_555 1_555
C24 C20 1_555 1_555
C25 H13 1_555 1_555
C26 C25 1_555 1_555
H14 C26 1_555 1_555
C27 C26 1_555 1_555
C28 C27 1_555 1_555
H15 C28 1_555 1_555
C29 C28 1_555 1_555
C30 C29 1_555 1_555
C31 C30 1_555 1_555
H16 C31 1_555 1_555
C32 C31 1_555 1_555
C33 C32 1_555 1_555
H17 C33 1_555 1_555
C34 C33 1_555 1_555
H18 C34 1_555 1_555
C35 C27 1_555 1_555
C36 C32 1_555 1_555
C37 H19 1_555 1_555
C38 C37 1_555 1_555
H20 C38 1_555 1_555
C39 C38 1_555 1_555
C40 C39 1_555 1_555
H21 C40 1_555 1_555
C41 C40 1_555 1_555
C42 C41 1_555 1_555
C43 C42 1_555 1_555
H22 C43 1_555 1_555
C44 C43 1_555 1_555
C45 C44 1_555 1_555
H23 C45 1_555 1_555
C46 C45 1_555 1_555
H24 C46 1_555 1_555
C47 C39 1_555 1_555
C48 C44 1_555 1_555
Co1 N3 1_555 1_555
Co2 N1 1_555 1_555
N1 C1 1_555 1_555
N2 C6 1_555 1_555
N3 C13 1_555 1_555
N4 C18 1_555 1_555
N5 C25 1_555 1_555
N6 C30 1_555 1_555
N7 C37 1_555 1_555
N8 C42 1_555 1_555
O1 C11 1_555 1_555
O2 C11 1_555 1_555
O3 C12 1_555 1_555
O4 C12 1_555 1_555
H25 O4 1_555 1_555
O5 C23 1_555 1_555
O6 C23 1_555 1_555
O7 C24 1_555 1_555
O8 C24 1_555 1_555
O9 C35 1_555 1_555
O10 C35 1_555 1_555
O11 C36 1_555 1_555
O12 C36 1_555 1_555
H26 O12 1_555 1_555
O13 C47 1_555 1_555
O14 C47 1_555 1_555
O15 C48 1_555 1_555
O16 C48 1_555 1_555
O17 Co2 1_555 1_555
H27 O17 1_555 1_555
H28 O17 1_555 1_555
O18 Co2 1_555 1_555
H29 O18 1_555 1_555
H30 O18 1_555 1_555
O19 H31 1_555 1_555
H32 O19 1_555 1_555
O20 H33 1_555 1_555
H34 O20 1_555 1_555
O21 H35 1_555 1_555
H36 O21 1_555 1_555
O22 H37 1_555 1_555
H38 O22 1_555 1_555
O23 H39 1_555 1_555
H40 O23 1_555 1_555
Co2_2 O6 1_555 1_555
O6_2 Co2 1_555 1_555
C5 N1 1_555 1_555
C10 N2 1_555 1_555
C17 N3 1_555 1_555
C22 N4 1_555 1_555
C29 N5 1_555 1_555
C34 N6 1_555 1_555
C41 N7 1_555 1_555
C46 N8 1_555 1_555
Co1 N4 1_555 1_555
Co1 N5 1_555 1_555
Co1 N6 1_555 1_555
Co1 N7 1_555 1_555
Co1 N8 1_555 1_555
Co2 N2 1_555 1_555
Co2 O13 1_555 1_555

#END
