
#######################################################################
#
#                 Cambridge Crystallographic Data Centre
#                                CCDC 
#
#######################################################################
#
# If this CIF has been generated from an entry in the Cambridge 
# Structural Database, then it will include bibliographic, chemical, 
# crystal, experimental, refinement or atomic coordinate data resulting 
# from the CCDC's data processing and validation procedures.
#
#######################################################################

data_TANBAN
_symmetry_cell_setting           triclinic
_symmetry_space_group_name_H-M   'P -1'
_symmetry_Int_Tables_number      2
_space_group_name_Hall           '-P 1'
loop_
_symmetry_equiv_pos_site_id
_symmetry_equiv_pos_as_xyz
1 x,y,z
2 -x,-y,-z
_cell_length_a                   11.0396(13)
_cell_length_b                   12.5110(16)
_cell_length_c                   22.498(2)
_cell_angle_alpha                101.492(2)
_cell_angle_beta                 102.416(3)
_cell_angle_gamma                95.975(2)
_cell_volume                     2938.58
loop_
_atom_site_label
_atom_site_type_symbol
_atom_site_fract_x
_atom_site_fract_y
_atom_site_fract_z
C1 C 0.6975(5) 0.8276(4) 0.3710(3)
H1 H 0.7740 0.8739 0.3878
C2 C 0.6509(6) 0.7598(5) 0.4094(3)
H2 H 0.6922 0.7661 0.4509
C3 C 0.5449(5) 0.6876(4) 0.3819(3)
C4 C 0.4778(6) 0.6892(5) 0.3164(2)
H3 H 0.4036 0.6409 0.2972
C5 C 0.5226(5) 0.7587(4) 0.2850(2)
C6 C 0.4653(6) 0.7666(4) 0.2214(2)
C7 C 0.3589(5) 0.6922(5) 0.1797(3)
H4 H 0.3229 0.6324 0.1921
C8 C 0.3079(5) 0.7112(5) 0.1180(3)
C9 C 0.3560(6) 0.7985(5) 0.1040(3)
H5 H 0.3191 0.8161 0.0667
C10 C 0.4645(5) 0.8686(4) 0.1446(3)
H6 H 0.5018 0.9270 0.1315
C11 C 0.4930(6) 0.6081(4) 0.4153(2)
C12 C 0.1953(6) 0.6313(5) 0.0748(3)
C13 C 0.7167(5) 1.1078(5) 0.1974(3)
H7 H 0.6816 1.1504 0.2260
C14 C 0.7621(5) 1.1528(5) 0.1570(3)
H8 H 0.7617 1.2277 0.1586
C15 C 0.8116(5) 1.0887(4) 0.1109(2)
C16 C 0.8175(5) 0.9791(5) 0.1086(3)
H9 H 0.8499 0.9363 0.0788
C17 C 0.7716(5) 0.9349(4) 0.1540(2)
C18 C 0.7701(5) 0.8176(5) 0.1556(3)
C19 C 0.8145(5) 0.7364(5) 0.1149(3)
H10 H 0.8384 0.7538 0.0804
C20 C 0.8222(5) 0.6349(4) 0.1257(3)
C21 C 0.7942(5) 0.6118(4) 0.1774(3)
H11 H 0.8024 0.5436 0.1870
C22 C 0.7527(5) 0.6935(4) 0.2158(2)
H12 H 0.7348 0.6750 0.2514
C23 C 0.8651(6) 1.1401(5) 0.0673(3)
C24 C 0.8800(5) 0.5594(4) 0.0848(2)
C25 C 0.9516(5) 0.9373(4) 0.3092(2)
H13 H 0.9485 0.8699 0.2821
C26 C 1.0668(6) 0.9924(5) 0.3470(3)
H14 H 1.1386 0.9593 0.3482
C27 C 1.0724(5) 1.0964(5) 0.3825(3)
C28 C 0.9566(5) 1.1446(4) 0.3862(2)
H15 H 0.9579 1.2126 0.4123
C29 C 0.8476(5) 1.0826(4) 0.3486(2)
C30 C 0.7248(4) 1.1134(5) 0.3494(2)
C31 C 0.7027(5) 1.2051(5) 0.3883(3)
H16 H 0.7690 1.2540 0.4165
C32 C 0.5779(5) 1.2239(4) 0.3848(2)
C33 C 0.4828(5) 1.1531(4) 0.3373(2)
H17 H 0.4011 1.1689 0.3317
C34 C 0.5055(5) 1.0633(5) 0.2999(2)
H18 H 0.4396 1.0166 0.2701
C35 C 1.1937(6) 1.1701(5) 0.4181(3)
C36 C 0.5419(5) 1.3219(5) 0.4258(3)
Co1 Co 0.67800(7) 0.91333(6) 0.25739(3)
La1 La 0.69902(3) 0.55373(2) 0.548091(14)
La2 La 0.04026(3) 0.36712(3) 0.050167(15)
N1 N 0.6331(4) 0.8265(4) 0.3102(2)
N2 N 0.5153(4) 0.8517(4) 0.2031(2)
N3 N 0.7209(4) 0.9937(3) 0.19762(19)
N4 N 0.7352(4) 0.7917(4) 0.2097(2)
N5 N 0.8443(4) 0.9789(4) 0.3109(2)
N6 N 0.6248(4) 1.0409(3) 0.30551(19)
O1 O 0.5678(4) 0.5897(3) 0.46225(18)
O2 O 0.3771(4) 0.5681(3) 0.39910(18)
O3 O 0.1614(4) 0.5483(3) 0.09116(18)
O4 O 0.1450(4) 0.6588(3) 0.02800(17)
O5 O 0.9073(4) 1.2449(3) 0.08175(19)
O6 O 0.8708(4) 1.0760(3) 0.01689(18)
O7 O 0.9058(3) 0.5835(3) 0.03737(17)
O8 O 0.9078(4) 0.4708(3) 0.10333(18)
O9 O 1.2872(4) 1.1251(3) 0.42820(18)
O10 O 1.1947(3) 1.2723(3) 0.43854(17)
O11 O 0.6361(4) 1.3774(3) 0.47008(18)
O12 O 0.4440(4) 1.3525(3) 0.41294(16)
O13 O 0.7984(4) 0.6340(3) 0.66249(18)
H19 H 0.7425 0.6751 0.6816
H20 H 0.8736 0.6829 0.6669
O14 O 0.8679(4) 0.4595(3) 0.5846(2)
H21 H 0.8388 0.3992 0.6010
H22 H 0.9308 0.5110 0.6178
O15 O 0.8254(4) 0.5463(3) 0.47358(19)
H23 H 0.8808 0.6153 0.4837
H24 H 0.7726 0.5341 0.4311
O16 O 0.1195(4) 0.3709(3) 0.16290(18)
H25 H 0.0510 0.3554 0.1807
H26 H 0.1657 0.4429 0.1853
O17 O 0.2456(4) 0.3235(4) 0.0693(2)
H27 H 0.2559 0.2770 0.0310
H28 H 0.3051 0.3903 0.0818
O18 O 0.0211(4) 0.1895(3) -0.02589(19)
H29 H -0.0180 0.1990 -0.0658
H30 H -0.0171 0.1377 -0.0232
La1_2 La 0.69902(3) 1.55373(2) 0.548091(14)
La1A La 0.30098(3) 1.44627(2) 0.451909(14)
La1A_2 La 0.30098(3) 0.44627(2) 0.451909(14)
La1A_3 La 1.30098(3) 1.44627(2) 0.451909(14)
La2A La -0.04026(3) 0.63288(3) -0.050167(15)
La2_2 La 1.04026(3) 1.36712(3) 0.050167(15)
La2A_2 La 0.95974(3) 0.63288(3) -0.050167(15)
La2_3 La 1.04026(3) 0.36712(3) 0.050167(15)
O2A O 0.6229(4) 0.4319(3) 0.60090(18)
O4A O -0.1450(4) 0.3412(3) -0.02800(17)
O5_2 O -0.0927(4) 0.2449(3) 0.08175(19)
O7A O 0.0942(3) 0.4165(3) -0.03737(17)
O8_2 O -0.0922(4) 0.4708(3) 0.10333(18)
O10A O 0.8053(3) 0.7277(3) 0.56146(17)
O11_2 O 0.6361(4) 0.3774(3) 0.47008(18)
O12A O 0.5560(4) 0.6475(3) 0.58706(16)
N7 N 0.1385(5) 0.9654(5) 0.2009(3)
O19 O 0.0981(4) 1.0528(3) 0.2030(2)
O20 O 0.0912(5) 0.8829(4) 0.1559(2)
O21 O 0.2248(4) 0.9546(3) 0.24166(19)
N8 N 0.8765(6) 0.3947(5) 0.2912(2)
O22 O 0.9615(4) 0.3772(4) 0.26488(19)
O23 O 0.7881(4) 0.4287(4) 0.26155(18)
O24 O 0.8746(4) 0.3713(4) 0.3414(2)
N9 N 0.7878(5) 0.1518(5) 0.5384(2)
O25 O 0.6842(4) 0.1039(4) 0.5228(2)
O26 O 0.8103(4) 0.2521(3) 0.56253(18)
O27 O 0.8767(4) 0.1012(3) 0.53159(18)
O28 O 0.1272(9) 0.5160(7) 0.2761(4)
H31 H 0.1272 0.5857 0.2877
H32 H 0.1922 0.5018 0.3000
O29 O 0.6441(8) 0.6493(7) 0.7543(4)
H33 H 0.5972 0.6164 0.7723
H34 H 0.6635 0.7176 0.7736
O30 O 0.0955(9) 0.7131(7) 0.2193(4)
H35 H 0.0173 0.7110 0.2056
H36 H 0.1299 0.7803 0.2356
O31 O 0.9150(9) 0.6226(8) 0.3833(4)
H37 H 0.8524 0.5932 0.3520
H38 H 0.9175 0.6929 0.3923
O32 O 0.5080(8) 0.5154(6) 0.9175(4)
H39 H 0.4624 0.4749 0.8824
H40 H 0.5471 0.4746 0.9392
O33 O 0.3563(8) 0.6894(7) 0.9545(4)
H41 H 0.3970 0.7331 0.9897
H42 H 0.2877 0.6597 0.9587
O34 O 0.3974(8) 0.1579(7) 0.0738(4)
H43 H 0.4092 0.1633 0.0380
H44 H 0.4354 0.1072 0.0864
loop_
_geom_bond_atom_site_label_1
_geom_bond_atom_site_label_2
_geom_bond_site_symmetry_1
_geom_bond_site_symmetry_2
C1 H1 1_555 1_555
C2 C1 1_555 1_555
H2 C2 1_555 1_555
C3 C2 1_555 1_555
C4 C3 1_555 1_555
H3 C4 1_555 1_555
C5 C4 1_555 1_555
C6 C5 1_555 1_555
C7 C6 1_555 1_555
H4 C7 1_555 1_555
C8 C7 1_555 1_555
C9 C8 1_555 1_555
H5 C9 1_555 1_555
C10 C9 1_555 1_555
H6 C10 1_555 1_555
C11 C3 1_555 1_555
C12 C8 1_555 1_555
C13 H7 1_555 1_555
C14 C13 1_555 1_555
H8 C14 1_555 1_555
C15 C14 1_555 1_555
C16 C15 1_555 1_555
H9 C16 1_555 1_555
C17 C16 1_555 1_555
C18 C17 1_555 1_555
C19 C18 1_555 1_555
H10 C19 1_555 1_555
C20 C19 1_555 1_555
C21 C20 1_555 1_555
H11 C21 1_555 1_555
C22 C21 1_555 1_555
H12 C22 1_555 1_555
C23 C15 1_555 1_555
C24 C20 1_555 1_555
C25 H13 1_555 1_555
C26 C25 1_555 1_555
H14 C26 1_555 1_555
C27 C26 1_555 1_555
C28 C27 1_555 1_555
H15 C28 1_555 1_555
C29 C28 1_555 1_555
C30 C29 1_555 1_555
C31 C30 1_555 1_555
H16 C31 1_555 1_555
C32 C31 1_555 1_555
C33 C32 1_555 1_555
H17 C33 1_555 1_555
C34 C33 1_555 1_555
H18 C34 1_555 1_555
C35 C27 1_555 1_555
C36 C32 1_555 1_555
Co1 N1 1_555 1_555
La1 O1 1_555 1_555
La2 O3 1_555 1_555
N1 C1 1_555 1_555
N2 C6 1_555 1_555
N3 C13 1_555 1_555
N4 C18 1_555 1_555
N5 C25 1_555 1_555
N6 C30 1_555 1_555
O1 C11 1_555 1_555
O2 C11 1_555 1_555
O3 C12 1_555 1_555
O4 C12 1_555 1_555
O5 C23 1_555 1_555
O6 C23 1_555 1_555
O7 C24 1_555 1_555
O8 C24 1_555 1_555
O9 C35 1_555 1_555
O10 C35 1_555 1_555
O11 C36 1_555 1_555
O12 C36 1_555 1_555
O13 La1 1_555 1_555
H19 O13 1_555 1_555
H20 O13 1_555 1_555
O14 La1 1_555 1_555
H21 O14 1_555 1_555
H22 O14 1_555 1_555
O15 La1 1_555 1_555
H23 O15 1_555 1_555
H24 O15 1_555 1_555
O16 La2 1_555 1_555
H25 O16 1_555 1_555
H26 O16 1_555 1_555
O17 La2 1_555 1_555
H27 O17 1_555 1_555
H28 O17 1_555 1_555
O18 La2 1_555 1_555
H29 O18 1_555 1_555
H30 O18 1_555 1_555
N7 O19 1_555 1_555
N8 O22 1_555 1_555
N9 O25 1_555 1_555
O20 N7 1_555 1_555
O21 N7 1_555 1_555
O23 N8 1_555 1_555
O24 N8 1_555 1_555
O26 N9 1_555 1_555
O27 N9 1_555 1_555
O28 H31 1_555 1_555
H32 O28 1_555 1_555
O29 H33 1_555 1_555
H34 O29 1_555 1_555
O30 H35 1_555 1_555
H36 O30 1_555 1_555
O31 H37 1_555 1_555
H38 O31 1_555 1_555
O32 H39 1_555 1_555
H40 O32 1_555 1_555
O33 H41 1_555 1_555
H42 O33 1_555 1_555
O34 H43 1_555 1_555
H44 O34 1_555 1_555
La1_2 O11 1_555 1_555
La1A O12 1_555 1_555
La1A_2 O2 1_555 1_555
La1A_3 O10 1_555 1_555
La2A O4 1_555 1_555
La2_2 O5 1_555 1_555
La2A_2 O7 1_555 1_555
La2_3 O8 1_555 1_555
O2A La1 1_555 1_555
O4A La2 1_555 1_555
O5_2 La2 1_555 1_555
O7A La2 1_555 1_555
O8_2 La2 1_555 1_555
O10A La1 1_555 1_555
O11_2 La1 1_555 1_555
O12A La1 1_555 1_555
C5 N1 1_555 1_555
C10 N2 1_555 1_555
C17 N3 1_555 1_555
C22 N4 1_555 1_555
C29 N5 1_555 1_555
C34 N6 1_555 1_555
Co1 N2 1_555 1_555
Co1 N3 1_555 1_555
Co1 N4 1_555 1_555
Co1 N5 1_555 1_555
Co1 N6 1_555 1_555

#END
