
#######################################################################
#
#                 Cambridge Crystallographic Data Centre
#                                CCDC 
#
#######################################################################
#
# If this CIF has been generated from an entry in the Cambridge 
# Structural Database, then it will include bibliographic, chemical, 
# crystal, experimental, refinement or atomic coordinate data resulting 
# from the CCDC's data processing and validation procedures.
#
#######################################################################

data_TANBIV
_symmetry_cell_setting           triclinic
_symmetry_space_group_name_H-M   'P -1'
_symmetry_Int_Tables_number      2
_space_group_name_Hall           '-P 1'
loop_
_symmetry_equiv_pos_site_id
_symmetry_equiv_pos_as_xyz
1 x,y,z
2 -x,-y,-z
_cell_length_a                   11.1668(11)
_cell_length_b                   12.4554(12)
_cell_length_c                   22.2593(15)
_cell_angle_alpha                101.9860(10)
_cell_angle_beta                 103.319(2)
_cell_angle_gamma                95.5480(10)
_cell_volume                     2912.86
loop_
_atom_site_label
_atom_site_type_symbol
_atom_site_fract_x
_atom_site_fract_y
_atom_site_fract_z
C1 C 0.6988(5) 0.8272(4) 0.3712(3)
H1 H 0.7747 0.8736 0.3884
C2 C 0.6541(6) 0.7589(5) 0.4087(3)
H2 H 0.6978 0.7638 0.4504
C3 C 0.5457(5) 0.6870(4) 0.3814(2)
C4 C 0.4773(5) 0.6884(4) 0.3168(2)
H3 H 0.4032 0.6402 0.2970
C5 C 0.5222(5) 0.7597(4) 0.2862(2)
C6 C 0.4644(5) 0.7684(4) 0.2213(2)
C7 C 0.3583(5) 0.6940(4) 0.1794(3)
H4 H 0.3238 0.6349 0.1926
C8 C 0.3050(5) 0.7095(4) 0.1177(2)
C9 C 0.3537(5) 0.7998(5) 0.1037(2)
H5 H 0.3154 0.8183 0.0663
C10 C 0.4614(5) 0.8678(4) 0.1441(3)
H6 H 0.4978 0.9253 0.1303
C11 C 0.4937(5) 0.6097(4) 0.4158(2)
C12 C 0.1946(5) 0.6312(5) 0.0742(3)
C13 C 0.7173(5) 1.1087(4) 0.1974(3)
H7 H 0.6833 1.1522 0.2265
C14 C 0.7617(4) 1.1526(4) 0.1567(3)
H8 H 0.7597 1.2275 0.1580
C15 C 0.8125(5) 1.0893(4) 0.1110(2)
C16 C 0.8184(5) 0.9812(4) 0.1101(2)
H9 H 0.8518 0.9380 0.0805
C17 C 0.7736(5) 0.9353(4) 0.1544(3)
C18 C 0.7705(5) 0.8178(4) 0.1560(3)
C19 C 0.8160(5) 0.7395(5) 0.1159(3)
H10 H 0.8419 0.7580 0.0821
C20 C 0.8225(5) 0.6350(4) 0.1263(3)
C21 C 0.7934(5) 0.6111(4) 0.1774(3)
H11 H 0.8014 0.5425 0.1870
C22 C 0.7505(4) 0.6934(4) 0.2154(2)
H12 H 0.7293 0.6744 0.2503
C23 C 0.8658(6) 1.1416(5) 0.0680(3)
C24 C 0.8785(5) 0.5602(4) 0.0843(2)
C25 C 0.9505(4) 0.9375(4) 0.3083(2)
H13 H 0.9467 0.8696 0.2804
C26 C 1.0663(6) 0.9931(5) 0.3466(3)
H14 H 1.1377 0.9599 0.3484
C27 C 1.0704(5) 1.0977(4) 0.3812(3)
C28 C 0.9558(4) 1.1459(4) 0.3861(2)
H15 H 0.9580 1.2147 0.4128
C29 C 0.8474(4) 1.0832(4) 0.3492(2)
C30 C 0.7249(4) 1.1148(5) 0.3501(2)
C31 C 0.7037(5) 1.2045(5) 0.3889(3)
H16 H 0.7700 1.2533 0.4180
C32 C 0.5778(5) 1.2251(5) 0.3855(3)
C33 C 0.4833(5) 1.1523(4) 0.3386(2)
H17 H 0.4017 1.1660 0.3345
C34 C 0.5051(5) 1.0623(5) 0.2988(3)
H18 H 0.4400 1.0157 0.2676
C35 C 1.1935(5) 1.1708(4) 0.4173(3)
C36 C 0.5447(5) 1.3223(5) 0.4277(3)
Co1 Co 0.67778(6) 0.91394(5) 0.25723(3)
Eu1 Eu 0.69870(2) 0.55354(2) 0.548601(12)
Eu2 Eu 0.04045(2) 0.36846(2) 0.050600(12)
N1 N 0.6314(4) 0.8259(4) 0.3093(2)
N2 N 0.5147(4) 0.8536(3) 0.2025(2)
N3 N 0.7212(4) 0.9935(3) 0.19702(19)
N4 N 0.7356(4) 0.7924(3) 0.20962(19)
N5 N 0.8445(4) 0.9791(4) 0.3105(2)
N6 N 0.6253(4) 1.0416(3) 0.30555(19)
O1 O 0.5700(3) 0.5904(3) 0.46235(17)
O2 O 0.3790(3) 0.5675(3) 0.39925(17)
O3 O 0.1599(3) 0.5489(3) 0.09087(17)
O4 O 0.1440(3) 0.6593(3) 0.02801(17)
O5 O 0.9084(3) 1.2441(3) 0.08138(17)
O6 O 0.8711(4) 1.0764(3) 0.01695(18)
O7 O 0.9045(3) 0.5841(3) 0.03714(16)
O8 O 0.9085(3) 0.4722(3) 0.10335(17)
O9 O 1.2866(3) 1.1257(3) 0.42811(18)
O10 O 1.1954(3) 1.2728(3) 0.43839(16)
O11 O 0.6365(3) 1.3774(3) 0.47096(17)
O12 O 0.4450(3) 1.3536(3) 0.41301(16)
O22 O 0.7988(4) 0.6335(3) 0.66283(17)
H19 H 0.7429 0.6746 0.6820
H20 H 0.8740 0.6825 0.6673
O23 O 0.8681(4) 0.4588(3) 0.5845(2)
H21 H 0.8390 0.3984 0.6009
H22 H 0.9311 0.5102 0.6177
O24 O 0.8267(4) 0.5446(3) 0.47357(19)
H23 H 0.8821 0.6136 0.4837
H24 H 0.7739 0.5324 0.4311
O25 O 0.1199(4) 0.3713(3) 0.16279(18)
H25 H 0.0514 0.3559 0.1806
H26 H 0.1661 0.4434 0.1852
O26 O 0.2463(3) 0.3227(3) 0.0696(2)
H27 H 0.2566 0.2762 0.0314
H28 H 0.3058 0.3895 0.0822
O27 O 0.0212(4) 0.1899(3) -0.02524(19)
H29 H -0.0180 0.1994 -0.0651
H30 H -0.0170 0.1381 -0.0226
Eu1A Eu 0.30130(2) 0.44646(2) 0.451399(12)
Eu1A_2 Eu 1.30130(2) 1.44646(2) 0.451399(12)
Eu1_2 Eu 0.69870(2) 1.55354(2) 0.548601(12)
Eu1A_3 Eu 0.30130(2) 1.44646(2) 0.451399(12)
Eu2A Eu -0.04045(2) 0.63154(2) -0.050600(12)
Eu2_2 Eu 1.04045(2) 1.36846(2) 0.050600(12)
Eu2A_2 Eu 0.95955(2) 0.63154(2) -0.050600(12)
Eu2_3 Eu 1.04045(2) 0.36846(2) 0.050600(12)
O2A O 0.6210(3) 0.4325(3) 0.60075(17)
O4A O -0.1440(3) 0.3407(3) -0.02801(17)
O5_2 O -0.0916(3) 0.2441(3) 0.08138(17)
O7A O 0.0955(3) 0.4159(3) -0.03714(16)
O8_2 O -0.0915(3) 0.4722(3) 0.10335(17)
O10A O 0.8046(3) 0.7272(3) 0.56161(16)
O11_2 O 0.6365(3) 0.3774(3) 0.47096(17)
O12A O 0.5550(3) 0.6464(3) 0.58699(16)
N7 N 0.1377(5) 0.9639(4) 0.2003(2)
O13 O 0.0983(4) 1.0522(3) 0.2031(2)
O14 O 0.0907(4) 0.8830(4) 0.1557(2)
O15 O 0.2245(4) 0.9535(3) 0.24147(18)
N8 N 0.8757(6) 0.3944(4) 0.2911(2)
O16 O 0.9616(4) 0.3765(4) 0.26508(19)
O17 O 0.7877(4) 0.4291(3) 0.26143(18)
O18 O 0.8749(4) 0.3707(4) 0.3416(2)
N9 N 0.7883(4) 0.1514(4) 0.5386(2)
O19 O 0.6836(4) 0.1029(3) 0.5225(2)
O20 O 0.8104(3) 0.2519(3) 0.56206(19)
O21 O 0.8759(4) 0.1011(3) 0.53123(17)
O28 O 0.1292(9) 0.5168(7) 0.2756(4)
H31 H 0.1292 0.5865 0.2872
H32 H 0.1942 0.5026 0.2996
O29 O 0.6439(8) 0.6474(6) 0.7543(4)
H33 H 0.5971 0.6146 0.7723
H34 H 0.6634 0.7157 0.7736
O30 O 0.0943(8) 0.7154(7) 0.2189(4)
H35 H 0.0161 0.7132 0.2052
H36 H 0.1287 0.7825 0.2351
O31 O 0.9138(8) 0.6226(8) 0.3831(4)
H37 H 0.8512 0.5931 0.3518
H38 H 0.9163 0.6928 0.3921
O32 O 0.5068(8) 0.5154(6) 0.9173(3)
H39 H 0.4613 0.4749 0.8822
H40 H 0.5459 0.4746 0.9390
O33 O 0.3562(8) 0.6893(7) 0.9540(4)
H41 H 0.3970 0.7331 0.9892
H42 H 0.2877 0.6597 0.9583
O34 O 0.3960(8) 0.1577(7) 0.0748(4)
H43 H 0.4078 0.1631 0.0390
H44 H 0.4340 0.1070 0.0874
loop_
_geom_bond_atom_site_label_1
_geom_bond_atom_site_label_2
_geom_bond_site_symmetry_1
_geom_bond_site_symmetry_2
C1 H1 1_555 1_555
C2 C1 1_555 1_555
H2 C2 1_555 1_555
C3 C2 1_555 1_555
C4 C3 1_555 1_555
H3 C4 1_555 1_555
C5 C4 1_555 1_555
C6 C5 1_555 1_555
C7 C6 1_555 1_555
H4 C7 1_555 1_555
C8 C7 1_555 1_555
C9 C8 1_555 1_555
H5 C9 1_555 1_555
C10 C9 1_555 1_555
H6 C10 1_555 1_555
C11 C3 1_555 1_555
C12 C8 1_555 1_555
C13 H7 1_555 1_555
C14 C13 1_555 1_555
H8 C14 1_555 1_555
C15 C14 1_555 1_555
C16 C15 1_555 1_555
H9 C16 1_555 1_555
C17 C16 1_555 1_555
C18 C17 1_555 1_555
C19 C18 1_555 1_555
H10 C19 1_555 1_555
C20 C19 1_555 1_555
C21 C20 1_555 1_555
H11 C21 1_555 1_555
C22 C21 1_555 1_555
H12 C22 1_555 1_555
C23 C15 1_555 1_555
C24 C20 1_555 1_555
C25 H13 1_555 1_555
C26 C25 1_555 1_555
H14 C26 1_555 1_555
C27 C26 1_555 1_555
C28 C27 1_555 1_555
H15 C28 1_555 1_555
C29 C28 1_555 1_555
C30 C29 1_555 1_555
C31 C30 1_555 1_555
H16 C31 1_555 1_555
C32 C31 1_555 1_555
C33 C32 1_555 1_555
H17 C33 1_555 1_555
C34 C33 1_555 1_555
H18 C34 1_555 1_555
C35 C27 1_555 1_555
C36 C32 1_555 1_555
Co1 N1 1_555 1_555
Eu1 O1 1_555 1_555
Eu2 O3 1_555 1_555
N1 C1 1_555 1_555
N2 C6 1_555 1_555
N3 C13 1_555 1_555
N4 C18 1_555 1_555
N5 C25 1_555 1_555
N6 C30 1_555 1_555
N7 O13 1_555 1_555
N8 O16 1_555 1_555
N9 O19 1_555 1_555
O1 C11 1_555 1_555
O2 C11 1_555 1_555
O3 C12 1_555 1_555
O4 C12 1_555 1_555
O5 C23 1_555 1_555
O6 C23 1_555 1_555
O7 C24 1_555 1_555
O8 C24 1_555 1_555
O9 C35 1_555 1_555
O10 C35 1_555 1_555
O11 C36 1_555 1_555
O12 C36 1_555 1_555
O14 N7 1_555 1_555
O15 N7 1_555 1_555
O17 N8 1_555 1_555
O18 N8 1_555 1_555
O20 N9 1_555 1_555
O21 N9 1_555 1_555
O22 Eu1 1_555 1_555
H19 O22 1_555 1_555
H20 O22 1_555 1_555
O23 Eu1 1_555 1_555
H21 O23 1_555 1_555
H22 O23 1_555 1_555
O24 Eu1 1_555 1_555
H23 O24 1_555 1_555
H24 O24 1_555 1_555
O25 Eu2 1_555 1_555
H25 O25 1_555 1_555
H26 O25 1_555 1_555
O26 Eu2 1_555 1_555
H27 O26 1_555 1_555
H28 O26 1_555 1_555
O27 Eu2 1_555 1_555
H29 O27 1_555 1_555
H30 O27 1_555 1_555
O28 H31 1_555 1_555
H32 O28 1_555 1_555
O29 H33 1_555 1_555
H34 O29 1_555 1_555
O30 H35 1_555 1_555
H36 O30 1_555 1_555
O31 H37 1_555 1_555
H38 O31 1_555 1_555
O32 H39 1_555 1_555
H40 O32 1_555 1_555
O33 H41 1_555 1_555
H42 O33 1_555 1_555
O34 H43 1_555 1_555
H44 O34 1_555 1_555
Eu1A O2 1_555 1_555
Eu1A_2 O10 1_555 1_555
Eu1_2 O11 1_555 1_555
Eu1A_3 O12 1_555 1_555
Eu2A O4 1_555 1_555
Eu2_2 O5 1_555 1_555
Eu2A_2 O7 1_555 1_555
Eu2_3 O8 1_555 1_555
O2A Eu1 1_555 1_555
O4A Eu2 1_555 1_555
O5_2 Eu2 1_555 1_555
O7A Eu2 1_555 1_555
O8_2 Eu2 1_555 1_555
O10A Eu1 1_555 1_555
O11_2 Eu1 1_555 1_555
O12A Eu1 1_555 1_555
C5 N1 1_555 1_555
C10 N2 1_555 1_555
C17 N3 1_555 1_555
C22 N4 1_555 1_555
C29 N5 1_555 1_555
C34 N6 1_555 1_555
Co1 N2 1_555 1_555
Co1 N3 1_555 1_555
Co1 N4 1_555 1_555
Co1 N5 1_555 1_555
Co1 N6 1_555 1_555

#END
