
#######################################################################
#
#                 Cambridge Crystallographic Data Centre
#                                CCDC 
#
#######################################################################
#
# If this CIF has been generated from an entry in the Cambridge 
# Structural Database, then it will include bibliographic, chemical, 
# crystal, experimental, refinement or atomic coordinate data resulting 
# from the CCDC's data processing and validation procedures.
#
#######################################################################

data_TANBER
_symmetry_cell_setting           triclinic
_symmetry_space_group_name_H-M   'P -1'
_symmetry_Int_Tables_number      2
_space_group_name_Hall           '-P 1'
loop_
_symmetry_equiv_pos_site_id
_symmetry_equiv_pos_as_xyz
1 x,y,z
2 -x,-y,-z
_cell_length_a                   11.2397(8)
_cell_length_b                   12.4964(9)
_cell_length_c                   22.3020(16)
_cell_angle_alpha                102.1140(10)
_cell_angle_beta                 103.410(2)
_cell_angle_gamma                95.5970(10)
_cell_volume                     2943.78
loop_
_atom_site_label
_atom_site_type_symbol
_atom_site_fract_x
_atom_site_fract_y
_atom_site_fract_z
C1 C 0.6990(4) 0.8268(4) 0.3710(2)
H1 H 0.7756 0.8717 0.3885
C2 C 0.6520(5) 0.7595(4) 0.4082(2)
H2 H 0.6944 0.7659 0.4502
C3 C 0.5465(4) 0.6875(3) 0.38188(19)
C4 C 0.4793(4) 0.6893(3) 0.31740(18)
H3 H 0.4055 0.6412 0.2977
C5 C 0.5226(4) 0.7593(3) 0.28625(19)
C6 C 0.4661(4) 0.7685(3) 0.22139(19)
C7 C 0.3603(4) 0.6932(4) 0.1793(2)
H4 H 0.3268 0.6334 0.1920
C8 C 0.3070(4) 0.7100(4) 0.1185(2)
C9 C 0.3567(4) 0.8005(4) 0.1049(2)
H5 H 0.3184 0.8186 0.0675
C10 C 0.4624(4) 0.8685(4) 0.1440(2)
H6 H 0.4982 0.9260 0.1303
C11 C 0.4950(4) 0.6077(3) 0.41475(19)
C12 C 0.1946(4) 0.6314(4) 0.0751(2)
C13 C 0.7168(4) 1.1080(3) 0.1971(2)
H7 H 0.6812 1.1509 0.2254
C14 C 0.7622(4) 1.1524(4) 0.15716(19)
H8 H 0.7614 1.2274 0.1592
C15 C 0.8125(4) 1.0898(3) 0.1111(2)
C16 C 0.8173(4) 0.9805(4) 0.1096(2)
H9 H 0.8489 0.9370 0.0795
C17 C 0.7733(4) 0.9349(3) 0.1544(2)
C18 C 0.7706(4) 0.8179(3) 0.1562(2)
C19 C 0.8164(4) 0.7396(4) 0.1150(2)
H10 H 0.8426 0.7583 0.0814
C20 C 0.8216(4) 0.6353(4) 0.1255(2)
C21 C 0.7938(4) 0.6103(3) 0.1772(2)
H11 H 0.8022 0.5420 0.1868
C22 C 0.7519(4) 0.6934(3) 0.21525(19)
H12 H 0.7322 0.6747 0.2504
C23 C 0.8668(4) 1.1429(4) 0.0682(2)
C24 C 0.8783(4) 0.5605(3) 0.08440(18)
C25 C 0.9522(4) 0.9367(3) 0.3083(2)
H13 H 0.9489 0.8690 0.2804
C26 C 1.0656(4) 0.9928(4) 0.3469(2)
H14 H 1.1367 0.9599 0.3487
C27 C 1.0709(4) 1.0969(4) 0.3819(2)
C28 C 0.9562(4) 1.1455(4) 0.38622(19)
H15 H 0.9582 1.2142 0.4128
C29 C 0.8470(4) 1.0820(3) 0.3483(2)
C30 C 0.7242(4) 1.1145(4) 0.35023(19)
C31 C 0.7017(4) 1.2021(4) 0.3891(2)
H16 H 0.7676 1.2498 0.4189
C32 C 0.5775(4) 1.2248(3) 0.38592(18)
C33 C 0.4826(4) 1.1533(4) 0.3390(2)
H17 H 0.4018 1.1677 0.3345
C34 C 0.5045(4) 1.0625(4) 0.2993(2)
H18 H 0.4394 1.0154 0.2686
C35 C 1.1926(4) 1.1710(4) 0.4176(2)
C36 C 0.5423(4) 1.3208(4) 0.4280(2)
Co1 Co 0.67802(5) 0.91368(4) 0.25714(3)
N1 N 0.6329(4) 0.8266(3) 0.30963(16)
N2 N 0.5157(3) 0.8528(3) 0.20256(17)
N3 N 0.7218(3) 0.9925(3) 0.19720(16)
N4 N 0.7357(3) 0.7930(3) 0.20992(17)
N5 N 0.8446(3) 0.9791(3) 0.31040(16)
N6 N 0.6237(3) 1.0416(3) 0.30531(15)
O1 O 0.5703(3) 0.5899(3) 0.46191(13)
O2 O 0.3804(3) 0.5679(2) 0.39940(14)
O3 O 0.1607(3) 0.5489(2) 0.09138(14)
O4 O 0.1444(3) 0.6594(3) 0.02854(14)
O5 O 0.9084(3) 1.2449(2) 0.08176(14)
O6 O 0.8714(3) 1.0764(3) 0.01641(15)
O7 O 0.9047(3) 0.5843(2) 0.03698(13)
O8 O 0.9089(3) 0.4729(2) 0.10363(14)
O9 O 1.2866(3) 1.1260(3) 0.42873(14)
O10 O 1.1951(3) 1.2735(2) 0.43871(14)
O11 O 0.6364(3) 1.3767(2) 0.47075(14)
O12 O 0.4443(3) 1.3533(2) 0.41319(13)
O22 O 0.7982(3) 0.6335(3) 0.66243(14)
H19 H 0.7423 0.6745 0.6816
H20 H 0.8733 0.6824 0.6669
O23 O 0.8682(3) 0.4601(3) 0.58543(14)
H21 H 0.8390 0.3997 0.6018
H22 H 0.9311 0.5115 0.6186
O24 O 0.8267(3) 0.5459(3) 0.47363(15)
H23 H 0.8820 0.6149 0.4838
H24 H 0.7739 0.5337 0.4312
O25 O 0.1195(3) 0.3719(3) 0.16284(14)
H25 H 0.0510 0.3564 0.1807
H26 H 0.1657 0.4440 0.1853
O26 O 0.2458(3) 0.3224(3) 0.06944(16)
H27 H 0.2562 0.2759 0.0312
H28 H 0.3053 0.3893 0.0820
O27 O 0.0206(3) 0.1898(3) -0.02577(16)
H29 H -0.0186 0.1993 -0.0657
H30 H -0.0176 0.1380 -0.0231
Sm1 Sm 0.69867(2) 0.553414(17) 0.548779(10)
Sm2 Sm 0.04029(2) 0.368468(18) 0.050589(10)
O2A O 0.6196(3) 0.4321(2) 0.60060(14)
O4A O -0.1444(3) 0.3406(3) -0.02854(14)
O5_2 O -0.0916(3) 0.2449(2) 0.08176(14)
O7A O 0.0953(3) 0.4157(2) -0.03698(13)
O8_2 O -0.0911(3) 0.4729(2) 0.10363(14)
O10A O 0.8049(3) 0.7265(2) 0.56129(14)
O11_2 O 0.6364(3) 0.3767(2) 0.47075(14)
O12A O 0.5557(3) 0.6467(2) 0.58681(13)
Sm1_2 Sm 0.69867(2) 1.553414(17) 0.548779(10)
Sm1A Sm 0.30133(2) 1.446586(17) 0.451221(10)
Sm1A_2 Sm 0.30133(2) 0.446586(17) 0.451221(10)
Sm1A_3 Sm 1.30133(2) 1.446586(17) 0.451221(10)
Sm2A Sm -0.04029(2) 0.631532(18) -0.050589(10)
Sm2_2 Sm 1.04029(2) 1.368468(18) 0.050589(10)
Sm2A_2 Sm 0.95971(2) 0.631532(18) -0.050589(10)
Sm2_3 Sm 1.04029(2) 0.368468(18) 0.050589(10)
N7 N 0.1385(4) 0.9639(3) 0.20082(19)
O13 O 0.0978(3) 1.0517(3) 0.20283(16)
O14 O 0.0906(3) 0.8828(3) 0.15580(17)
O15 O 0.2248(3) 0.9541(3) 0.24208(15)
N8 N 0.8762(4) 0.3953(4) 0.2908(2)
O16 O 0.9619(3) 0.3765(3) 0.26503(15)
O17 O 0.7880(3) 0.4287(3) 0.26147(14)
O18 O 0.8744(3) 0.3712(3) 0.34147(16)
N9 N 0.7879(4) 0.1507(4) 0.53857(19)
O19 O 0.6828(3) 0.1033(3) 0.52279(16)
O20 O 0.8108(3) 0.2519(3) 0.56228(15)
O21 O 0.8761(3) 0.1015(3) 0.53161(14)
O28 O 0.1275(7) 0.5168(6) 0.2755(3)
H31 H 0.1274 0.5864 0.2871
H32 H 0.1925 0.5026 0.2994
O29 O 0.6437(6) 0.6488(5) 0.7550(3)
H33 H 0.5969 0.6160 0.7730
H34 H 0.6632 0.7172 0.7743
O30 O 0.0956(6) 0.7152(6) 0.2189(3)
H35 H 0.0173 0.7131 0.2052
H36 H 0.1299 0.7824 0.2352
O31 O 0.9142(7) 0.6235(6) 0.3827(3)
H37 H 0.8516 0.5940 0.3514
H38 H 0.9167 0.6937 0.3917
O32 O 0.5058(7) 0.5155(5) 0.9165(3)
H39 H 0.4603 0.4750 0.8813
H40 H 0.5449 0.4747 0.9382
O33 O 0.3557(6) 0.6902(6) 0.9542(3)
H41 H 0.3964 0.7340 0.9894
H42 H 0.2872 0.6606 0.9584
O34 O 0.3967(7) 0.1572(6) 0.0745(4)
H43 H 0.4085 0.1625 0.0387
H44 H 0.4347 0.1065 0.0871
loop_
_geom_bond_atom_site_label_1
_geom_bond_atom_site_label_2
_geom_bond_site_symmetry_1
_geom_bond_site_symmetry_2
C1 H1 1_555 1_555
C2 C1 1_555 1_555
H2 C2 1_555 1_555
C3 C2 1_555 1_555
C4 C3 1_555 1_555
H3 C4 1_555 1_555
C5 C4 1_555 1_555
C6 C5 1_555 1_555
C7 C6 1_555 1_555
H4 C7 1_555 1_555
C8 C7 1_555 1_555
C9 C8 1_555 1_555
H5 C9 1_555 1_555
C10 C9 1_555 1_555
H6 C10 1_555 1_555
C11 C3 1_555 1_555
C12 C8 1_555 1_555
C13 H7 1_555 1_555
C14 C13 1_555 1_555
H8 C14 1_555 1_555
C15 C14 1_555 1_555
C16 C15 1_555 1_555
H9 C16 1_555 1_555
C17 C16 1_555 1_555
C18 C17 1_555 1_555
C19 C18 1_555 1_555
H10 C19 1_555 1_555
C20 C19 1_555 1_555
C21 C20 1_555 1_555
H11 C21 1_555 1_555
C22 C21 1_555 1_555
H12 C22 1_555 1_555
C23 C15 1_555 1_555
C24 C20 1_555 1_555
C25 H13 1_555 1_555
C26 C25 1_555 1_555
H14 C26 1_555 1_555
C27 C26 1_555 1_555
C28 C27 1_555 1_555
H15 C28 1_555 1_555
C29 C28 1_555 1_555
C30 C29 1_555 1_555
C31 C30 1_555 1_555
H16 C31 1_555 1_555
C32 C31 1_555 1_555
C33 C32 1_555 1_555
H17 C33 1_555 1_555
C34 C33 1_555 1_555
H18 C34 1_555 1_555
C35 C27 1_555 1_555
C36 C32 1_555 1_555
Co1 N1 1_555 1_555
N1 C1 1_555 1_555
N2 C6 1_555 1_555
N3 C13 1_555 1_555
N4 C18 1_555 1_555
N5 C25 1_555 1_555
N6 C30 1_555 1_555
N7 O13 1_555 1_555
N8 O16 1_555 1_555
N9 O19 1_555 1_555
O1 C11 1_555 1_555
O2 C11 1_555 1_555
O3 C12 1_555 1_555
O4 C12 1_555 1_555
O5 C23 1_555 1_555
O6 C23 1_555 1_555
O7 C24 1_555 1_555
O8 C24 1_555 1_555
O9 C35 1_555 1_555
O10 C35 1_555 1_555
O11 C36 1_555 1_555
O12 C36 1_555 1_555
O14 N7 1_555 1_555
O15 N7 1_555 1_555
O17 N8 1_555 1_555
O18 N8 1_555 1_555
O20 N9 1_555 1_555
O21 N9 1_555 1_555
O22 H19 1_555 1_555
H20 O22 1_555 1_555
O23 H21 1_555 1_555
H22 O23 1_555 1_555
O24 H23 1_555 1_555
H24 O24 1_555 1_555
O25 H25 1_555 1_555
H26 O25 1_555 1_555
O26 H27 1_555 1_555
H28 O26 1_555 1_555
O27 H29 1_555 1_555
H30 O27 1_555 1_555
O28 H31 1_555 1_555
H32 O28 1_555 1_555
O29 H33 1_555 1_555
H34 O29 1_555 1_555
O30 H35 1_555 1_555
H36 O30 1_555 1_555
O31 H37 1_555 1_555
H38 O31 1_555 1_555
O32 H39 1_555 1_555
H40 O32 1_555 1_555
O33 H41 1_555 1_555
H42 O33 1_555 1_555
O34 H43 1_555 1_555
H44 O34 1_555 1_555
Sm1 O1 1_555 1_555
Sm2 O3 1_555 1_555
O2A Sm1 1_555 1_555
O4A Sm2 1_555 1_555
O5_2 Sm2 1_555 1_555
O7A Sm2 1_555 1_555
O8_2 Sm2 1_555 1_555
O10A Sm1 1_555 1_555
O11_2 Sm1 1_555 1_555
O12A Sm1 1_555 1_555
Sm1_2 O11 1_555 1_555
Sm1A O12 1_555 1_555
Sm1A_2 O2 1_555 1_555
Sm1A_3 O10 1_555 1_555
Sm2A O4 1_555 1_555
Sm2_2 O5 1_555 1_555
Sm2A_2 O7 1_555 1_555
Sm2_3 O8 1_555 1_555
C5 N1 1_555 1_555
C10 N2 1_555 1_555
C17 N3 1_555 1_555
C22 N4 1_555 1_555
C29 N5 1_555 1_555
C34 N6 1_555 1_555
Co1 N2 1_555 1_555
Co1 N3 1_555 1_555
Co1 N4 1_555 1_555
Co1 N5 1_555 1_555
Co1 N6 1_555 1_555
O22 Sm1 1_555 1_555
O23 Sm1 1_555 1_555
O24 Sm1 1_555 1_555
O25 Sm2 1_555 1_555
O26 Sm2 1_555 1_555
O27 Sm2 1_555 1_555

#END
