
#######################################################################
#
#                 Cambridge Crystallographic Data Centre
#                                CCDC 
#
#######################################################################
#
# If this CIF has been generated from an entry in the Cambridge 
# Structural Database, then it will include bibliographic, chemical, 
# crystal, experimental, refinement or atomic coordinate data resulting 
# from the CCDC's data processing and validation procedures.
#
#######################################################################

data_TANCIV
_symmetry_cell_setting           triclinic
_symmetry_space_group_name_H-M   'P -1'
_symmetry_Int_Tables_number      2
_space_group_name_Hall           '-P 1'
loop_
_symmetry_equiv_pos_site_id
_symmetry_equiv_pos_as_xyz
1 x,y,z
2 -x,-y,-z
_cell_length_a                   11.7616(12)
_cell_length_b                   11.8456(12)
_cell_length_c                   17.1991(15)
_cell_angle_alpha                93.140(8)
_cell_angle_beta                 91.869(8)
_cell_angle_gamma                103.343(9)
_cell_volume                     2325.52
loop_
_atom_site_label
_atom_site_type_symbol
_atom_site_fract_x
_atom_site_fract_y
_atom_site_fract_z
Zn1 Zn 0.53097(10) 0.45531(9) 0.59933(5)
Zn2 Zn 0.70377(9) 0.81162(9) 0.58219(5)
Zn3 Zn 0.80546(9) 0.40111(9) 0.40916(5)
P1 P 0.4661(2) 0.6995(2) 0.66470(12)
P2 P 0.7141(2) 0.5917(2) 0.49472(12)
O1 O 0.6715(5) 0.4861(5) 0.5420(3)
O3 O 0.7830(5) 0.6948(5) 0.5466(3)
O5 O 0.6103(5) 0.6287(5) 0.4565(3)
O6 O 0.7956(5) 0.5600(5) 0.4327(3)
O7 O 0.5469(5) 0.7830(5) 0.6159(3)
O8 O 0.4988(5) 0.5808(5) 0.6675(3)
O9 O 0.3405(5) 0.6896(5) 0.6387(3)
O10 O 0.4873(5) 0.7574(5) 0.7501(3)
H1 H 0.455(8) 0.712(7) 0.778(4)
N1 N 0.9150(6) 0.3830(6) 0.3217(4)
N2 N 0.9682(6) 0.3616(6) 0.2022(3)
N3 N 0.7054(6) 0.9179(6) 0.4949(4)
N4 N 0.7143(6) 0.9731(6) 0.3741(4)
N5 N 0.5642(6) 0.3267(6) 0.6654(4)
N6 N 0.5708(6) 0.1987(6) 0.7518(3)
N7 N 0.8713(6) 0.3303(6) -0.4999(4)
N8 N 0.9204(6) 0.3045(6) -0.3791(3)
N9 N 0.7980(6) 0.8915(6) -0.3216(4)
N10 N 0.8389(6) 0.9338(6) -0.1958(4)
C1 C 0.9651(7) 0.3552(7) 0.1179(4)
C2 C 1.0671(8) 0.3607(7) 0.0784(4)
H4 H 1.1391 0.3672 0.1069
C3 C 1.0644(8) 0.3568(7) -0.0023(4)
H5 H 1.1346 0.3608 -0.0289
C4 C 0.9581(8) 0.3469(7) -0.0449(4)
C5 C 0.8589(8) 0.3410(7) -0.0041(4)
H6 H 0.7865 0.3343 -0.0323
C6 C 0.8599(8) 0.3443(7) 0.0769(4)
H7 H 0.7895 0.3393 0.1035
C7 C 0.9513(8) 0.3380(7) -0.1323(4)
C8 C 0.8617(8) 0.3744(8) -0.1741(4)
H8 H 0.8066 0.4057 -0.1461
C9 C 0.8526(8) 0.3656(7) -0.2541(4)
H9 H 0.7922 0.3908 -0.2811
C10 C 0.9333(8) 0.3190(7) -0.2950(4)
C11 C 1.0235(8) 0.2866(8) -0.2558(4)
H10 H 1.0802 0.2578 -0.2839
C12 C 1.0309(8) 0.2960(8) -0.1763(5)
H11 H 1.0932 0.2728 -0.1500
C13 C 0.8845(8) 0.3860(7) 0.2475(5)
H12 H 0.8137 0.4029 0.2287
C14 C 1.0201(8) 0.3548(7) 0.3257(4)
H13 H 1.0619 0.3458 0.3723
C15 C 1.0561(8) 0.3413(8) 0.2517(5)
H14 H 1.1269 0.3221 0.2370
C16 C 0.7318(8) 0.9679(8) 0.2922(4)
C17 C 0.7221(8) 0.8623(7) 0.2512(4)
H15 H 0.7029 0.7923 0.2774
C18 C 0.7402(8) 0.8581(7) 0.1718(4)
H16 H 0.7344 0.7847 0.1447
C19 C 0.7667(7) 0.9582(7) 0.1307(4)
C20 C 0.7762(7) 1.0628(8) 0.1742(4)
H17 H 0.7961 1.1329 0.1482
C21 C 0.7584(7) 1.0702(7) 0.2529(4)
H18 H 0.7641 1.1436 0.2799
C22 C 0.7851(8) 0.9506(7) 0.0459(4)
C23 C 0.7319(7) 0.8535(7) -0.0012(4)
H19 H 0.6822 0.7899 0.0213
C24 C 0.7488(8) 0.8465(7) -0.0802(5)
H20 H 0.7106 0.7793 -0.1118
C25 C 0.8216(8) 0.9379(8) -0.1124(4)
C26 C 0.8763(8) 1.0365(8) -0.0678(5)
H21 H 0.9247 1.1001 -0.0911
C27 C 0.8597(8) 1.0420(7) 0.0120(4)
H22 H 0.8995 1.1086 0.0436
C28 C 0.7366(8) 0.8944(7) 0.4232(5)
H23 H 0.7699 0.8311 0.4084
C29 C 0.6618(9) 1.0458(8) 0.4156(5)
H24 H 0.6328 1.1078 0.3962
C30 C 0.6587(8) 1.0137(7) 0.4894(5)
H25 H 0.6288 1.0515 0.5314
C31 C 0.5558(8) 0.1412(8) 0.8243(4)
C32 C 0.5673(7) 0.2065(7) 0.8941(4)
H26 H 0.5885 0.2890 0.8953
C33 C 0.5474(7) 0.1506(7) 0.9624(5)
H27 H 0.5567 0.1959 1.0105
C34 C 0.5144(7) 0.0303(7) 0.9632(4)
C35 C 0.5061(7) -0.0318(7) 0.8914(4)
H28 H 0.4851 -0.1143 0.8900
C36 C 0.5273(7) 0.0217(8) 0.8220(4)
H29 H 0.5222 -0.0231 0.7740
C37 C 0.5487(7) 0.3032(7) 0.7388(4)
H30 H 0.5252 0.3527 0.7773
C38 C 0.5943(8) 0.2343(7) 0.6299(5)
H31 H 0.6100 0.2269 0.5762
C39 C 0.5989(8) 0.1534(8) 0.6822(5)
H32 H 0.6177 0.0803 0.6724
C40 C 0.8707(7) 0.3701(8) -0.4260(4)
H33 H 0.8402 0.4343 -0.4088
C41 C 0.9521(8) 0.2216(8) -0.4251(5)
H34 H 0.9889 0.1632 -0.4083
C42 C 0.9218(9) 0.2374(8) -0.4994(5)
H35 H 0.9337 0.1914 -0.5440
C43 C 0.7565(7) 0.8857(7) -0.2511(4)
H36 H 0.6776 0.8515 -0.2409
C44 C 0.9405(8) 0.9737(8) -0.2323(5)
H37 H 1.0140 1.0124 -0.2083
C45 C 0.9155(8) 0.9469(8) -0.3102(5)
H38 H 0.9698 0.9636 -0.3501
Zn1A Zn 0.46903(10) 0.54469(9) 0.40067(5)
Zn1A_2 Zn 0.46903(10) -0.45531(9) 1.40067(5)
Zn2A Zn 0.29623(9) 0.18838(9) 0.41781(5)
Zn2_2 Zn 0.70377(9) 0.81162(9) -0.41781(5)
Zn2_3 Zn 0.70377(9) 0.81162(9) 1.58219(5)
Zn3A Zn 0.19454(9) 0.59889(9) 0.59084(5)
Zn3_2 Zn 0.80546(9) 0.40111(9) -0.59084(5)
Zn3_3 Zn 0.80546(9) 0.40111(9) 1.40916(5)
P1A P 0.5339(2) 0.3005(2) 0.33530(12)
P2A P 0.2859(2) 0.4083(2) 0.50528(12)
O1A O 0.3285(5) 0.5139(5) 0.4580(3)
O3A O 0.2170(5) 0.3052(5) 0.4534(3)
O5A O 0.3897(5) 0.3713(5) 0.5435(3)
O6A O 0.2044(5) 0.4400(5) 0.5673(3)
O7A O 0.4531(5) 0.2170(5) 0.3841(3)
O8A O 0.5012(5) 0.4192(5) 0.3325(3)
O9A O 0.6595(5) 0.3104(5) 0.3613(3)
O10A O 0.5127(5) 0.2426(5) 0.2499(3)
H1A H 0.545(8) 0.288(7) 0.222(4)
N1_2 N 0.9150(6) 0.3830(6) 1.3217(4)
N1A N 0.0850(6) 0.6170(6) 0.6783(4)
N2_2 N 0.9682(6) 0.3616(6) 1.2022(3)
N3_2 N 0.7054(6) 0.9179(6) 1.4949(4)
N3A N 0.2946(6) 0.0821(6) 0.5051(4)
N4_2 N 0.7143(6) 0.9731(6) 1.3741(4)
N5A N 0.4358(6) -0.3267(6) 1.3346(4)
N5A_2 N 0.4358(6) 0.6733(6) 0.3346(4)
N6A N 0.4292(6) -0.1987(6) 1.2482(3)
N7_2 N 0.8713(6) 0.3303(6) 0.5001(4)
N7A N 0.1287(6) 0.6697(6) 0.4999(4)
N8_2 N 0.9204(6) 0.3045(6) 0.6209(3)
N9_2 N 0.7980(6) 0.8915(6) 0.6784(4)
N9A N 0.2020(6) 0.1085(6) 0.3216(4)
N10_2 N 0.8389(6) 0.9338(6) 0.8042(4)
C1_2 C 0.9651(7) 0.3552(7) 1.1179(4)
C2_2 C 1.0671(8) 0.3607(7) 1.0784(4)
H4_2 H 1.1391 0.3672 1.1069
C3_2 C 1.0644(8) 0.3568(7) 0.9977(4)
H5_2 H 1.1346 0.3608 0.9711
C4_2 C 0.9581(8) 0.3469(7) 0.9551(4)
C5_2 C 0.8589(8) 0.3410(7) 0.9959(4)
H6_2 H 0.7865 0.3343 0.9677
C6_2 C 0.8599(8) 0.3443(7) 1.0769(4)
H7_2 H 0.7895 0.3393 1.1035
C7_2 C 0.9513(8) 0.3380(7) 0.8677(4)
C8_2 C 0.8617(8) 0.3744(8) 0.8259(4)
H8_2 H 0.8066 0.4057 0.8539
C9_2 C 0.8526(8) 0.3656(7) 0.7459(4)
H9_2 H 0.7922 0.3908 0.7189
C10_2 C 0.9333(8) 0.3190(7) 0.7050(4)
C11_2 C 1.0235(8) 0.2866(8) 0.7442(4)
H10_2 H 1.0802 0.2578 0.7161
C12_2 C 1.0309(8) 0.2960(8) 0.8237(5)
H11_2 H 1.0932 0.2728 0.8500
C13_2 C 0.8845(8) 0.3860(7) 1.2475(5)
H12_2 H 0.8137 0.4029 1.2287
C14_2 C 1.0201(8) 0.3548(7) 1.3257(4)
H13_2 H 1.0619 0.3458 1.3723
C15_2 C 1.0561(8) 0.3413(8) 1.2517(5)
H14_2 H 1.1269 0.3221 1.2370
C16_2 C 0.7318(8) 0.9679(8) 1.2922(4)
C17_2 C 0.7221(8) 0.8623(7) 1.2512(4)
H15_2 H 0.7029 0.7923 1.2774
C18_2 C 0.7402(8) 0.8581(7) 1.1718(4)
H16_2 H 0.7344 0.7847 1.1447
C19_2 C 0.7667(7) 0.9582(7) 1.1307(4)
C20_2 C 0.7762(7) 1.0628(8) 1.1742(4)
H17_2 H 0.7961 1.1329 1.1482
C21_2 C 0.7584(7) 1.0702(7) 1.2529(4)
H18_2 H 0.7641 1.1436 1.2799
C22_2 C 0.7851(8) 0.9506(7) 1.0459(4)
C23_2 C 0.7319(7) 0.8535(7) 0.9988(4)
H19_2 H 0.6822 0.7899 1.0213
C24_2 C 0.7488(8) 0.8465(7) 0.9198(5)
H20_2 H 0.7106 0.7793 0.8882
C25_2 C 0.8216(8) 0.9379(8) 0.8876(4)
C26_2 C 0.8763(8) 1.0365(8) 0.9322(5)
H21_2 H 0.9247 1.1001 0.9089
C27_2 C 0.8597(8) 1.0420(7) 1.0120(4)
H22_2 H 0.8995 1.1086 1.0436
C28_2 C 0.7366(8) 0.8944(7) 1.4232(5)
H23_2 H 0.7699 0.8311 1.4084
C29_2 C 0.6618(9) 1.0458(8) 1.4156(5)
H24_2 H 0.6328 1.1078 1.3962
C30_2 C 0.6587(8) 1.0137(7) 1.4894(5)
H25_2 H 0.6288 1.0515 1.5314
C31A C 0.4442(8) -0.1412(8) 1.1757(4)
C32A C 0.4327(7) -0.2065(7) 1.1059(4)
H26A H 0.4115 -0.2890 1.1047
C33A C 0.4526(7) -0.1506(7) 1.0376(5)
H27A H 0.4433 -0.1959 0.9895
C34A C 0.4856(7) -0.0303(7) 1.0368(4)
C35A C 0.4939(7) 0.0318(7) 1.1086(4)
H28A H 0.5149 0.1143 1.1100
C36A C 0.4727(7) -0.0217(8) 1.1780(4)
H29A H 0.4778 0.0231 1.2260
C37A C 0.4513(7) -0.3032(7) 1.2612(4)
H30A H 0.4748 -0.3527 1.2227
C38A C 0.4057(8) -0.2343(7) 1.3701(5)
H31A H 0.3900 -0.2269 1.4238
C39A C 0.4011(8) -0.1534(8) 1.3178(5)
H32A H 0.3823 -0.0803 1.3276
C40_2 C 0.8707(7) 0.3701(8) 0.5740(4)
H33_2 H 0.8402 0.4343 0.5912
C41_2 C 0.9521(8) 0.2216(8) 0.5749(5)
H34_2 H 0.9889 0.1632 0.5917
C42_2 C 0.9218(9) 0.2374(8) 0.5006(5)
H35_2 H 0.9337 0.1914 0.4560
C43_2 C 0.7565(7) 0.8857(7) 0.7489(4)
H36_2 H 0.6776 0.8515 0.7591
C44_2 C 0.9405(8) 0.9737(8) 0.7677(5)
H37_2 H 1.0140 1.0124 0.7917
C45_2 C 0.9155(8) 0.9469(8) 0.6898(5)
H38_2 H 0.9698 0.9636 0.6499
P3 P 0.4035(2) 0.5338(2) 0.90133(15)
O11 O 0.5182(6) 0.5017(6) 0.8984(4)
H2 H 0.5776 0.4874 0.9388
O12 O 0.3675(6) 0.5479(5) 0.9896(3)
O13 O 0.3935(5) 0.6396(5) 0.8616(3)
O14 O 0.3012(8) 0.4292(6) 0.8705(4)
H3 H 0.3030 0.4198 0.8231
O2 O 0.6789(5) 0.5912(5) 0.7947(3)
O4 O 0.2994(6) 0.4224(5) 0.7141(3)
loop_
_geom_bond_atom_site_label_1
_geom_bond_atom_site_label_2
_geom_bond_site_symmetry_1
_geom_bond_site_symmetry_2
Zn1 O1 1_555 1_555
Zn2 O3 1_555 1_555
Zn3 O6 1_555 1_555
P1 O7 1_555 1_555
P2 O1 1_555 1_555
P3 O11 1_555 1_555
O3 P2 1_555 1_555
O5 P2 1_555 1_555
O6 P2 1_555 1_555
O7 Zn2 1_555 1_555
O8 Zn1 1_555 1_555
O9 P1 1_555 1_555
O10 P1 1_555 1_555
H1 O10 1_555 1_555
O11 H2 1_555 1_555
O12 P3 1_555 1_555
O13 P3 1_555 1_555
O14 P3 1_555 1_555
H3 O14 1_555 1_555
N1 Zn3 1_555 1_555
N2 C1 1_555 1_555
N3 Zn2 1_555 1_555
N4 C16 1_555 1_555
N5 Zn1 1_555 1_555
N6 C31 1_555 1_555
N7 C40 1_555 1_555
N8 C10 1_555 1_555
N9 C43 1_555 1_555
N10 C25 1_555 1_555
C1 C2 1_555 1_555
C2 H4 1_555 1_555
C3 C2 1_555 1_555
H5 C3 1_555 1_555
C4 C3 1_555 1_555
C5 C4 1_555 1_555
H6 C5 1_555 1_555
C6 C1 1_555 1_555
H7 C6 1_555 1_555
C7 C4 1_555 1_555
C8 C7 1_555 1_555
H8 C8 1_555 1_555
C9 C8 1_555 1_555
H9 C9 1_555 1_555
C10 C9 1_555 1_555
C11 C10 1_555 1_555
H10 C11 1_555 1_555
C12 C7 1_555 1_555
H11 C12 1_555 1_555
C13 N1 1_555 1_555
H12 C13 1_555 1_555
C14 N1 1_555 1_555
H13 C14 1_555 1_555
C15 N2 1_555 1_555
H14 C15 1_555 1_555
C16 C17 1_555 1_555
C17 H15 1_555 1_555
C18 C17 1_555 1_555
H16 C18 1_555 1_555
C19 C18 1_555 1_555
C20 C19 1_555 1_555
H17 C20 1_555 1_555
C21 C16 1_555 1_555
H18 C21 1_555 1_555
C22 C19 1_555 1_555
C23 C22 1_555 1_555
H19 C23 1_555 1_555
C24 C23 1_555 1_555
H20 C24 1_555 1_555
C25 C24 1_555 1_555
C26 C25 1_555 1_555
H21 C26 1_555 1_555
C27 C22 1_555 1_555
H22 C27 1_555 1_555
C28 N3 1_555 1_555
H23 C28 1_555 1_555
C29 N4 1_555 1_555
H24 C29 1_555 1_555
C30 N3 1_555 1_555
H25 C30 1_555 1_555
C31 C32 1_555 1_555
C32 H26 1_555 1_555
C33 C32 1_555 1_555
H27 C33 1_555 1_555
C34 C33 1_555 1_555
C35 C34 1_555 1_555
H28 C35 1_555 1_555
C36 C31 1_555 1_555
H29 C36 1_555 1_555
C37 N5 1_555 1_555
H30 C37 1_555 1_555
C38 N5 1_555 1_555
H31 C38 1_555 1_555
C39 N6 1_555 1_555
H32 C39 1_555 1_555
C40 N8 1_555 1_555
H33 C40 1_555 1_555
C41 N8 1_555 1_555
H34 C41 1_555 1_555
C42 N7 1_555 1_555
H35 C42 1_555 1_555
C43 N10 1_555 1_555
H36 C43 1_555 1_555
C44 N10 1_555 1_555
H37 C44 1_555 1_555
C45 N9 1_555 1_555
H38 C45 1_555 1_555
Zn1A O5 1_555 1_555
Zn1A_2 N5A 1_555 1_555
Zn2A O3A 1_555 1_555
Zn2_2 N9 1_555 1_555
Zn2_3 N3_2 1_555 1_555
Zn3A O9 1_555 1_555
Zn3_2 N7 1_555 1_555
Zn3_3 N1_2 1_555 1_555
P1A O7A 1_555 1_555
P2A O1A 1_555 1_555
O1A Zn1A 1_555 1_555
O3A P2A 1_555 1_555
O5A Zn1 1_555 1_555
O6A Zn3A 1_555 1_555
O7A Zn2A 1_555 1_555
O8A Zn1A 1_555 1_555
O9A Zn3 1_555 1_555
O10A P1A 1_555 1_555
H1A O10A 1_555 1_555
N1_2 C13_2 1_555 1_555
N1A Zn3A 1_555 1_555
N2_2 C1_2 1_555 1_555
N3_2 C28_2 1_555 1_555
N3A Zn2A 1_555 1_555
N4_2 C16_2 1_555 1_555
N5A C37A 1_555 1_555
N5A_2 Zn1A 1_555 1_555
N6A C31A 1_555 1_555
N7_2 Zn3 1_555 1_555
N7A Zn3A 1_555 1_555
N8_2 C10_2 1_555 1_555
N9_2 Zn2 1_555 1_555
N9A Zn2A 1_555 1_555
N10_2 C25_2 1_555 1_555
C1_2 C2_2 1_555 1_555
C2_2 H4_2 1_555 1_555
C3_2 C2_2 1_555 1_555
H5_2 C3_2 1_555 1_555
C4_2 C3_2 1_555 1_555
C5_2 C4_2 1_555 1_555
H6_2 C5_2 1_555 1_555
C6_2 C1_2 1_555 1_555
H7_2 C6_2 1_555 1_555
C7_2 C4_2 1_555 1_555
C8_2 C7_2 1_555 1_555
H8_2 C8_2 1_555 1_555
C9_2 C8_2 1_555 1_555
H9_2 C9_2 1_555 1_555
C10_2 C9_2 1_555 1_555
C11_2 C10_2 1_555 1_555
H10_2 C11_2 1_555 1_555
C12_2 C7_2 1_555 1_555
H11_2 C12_2 1_555 1_555
C13_2 N2_2 1_555 1_555
H12_2 C13_2 1_555 1_555
C14_2 N1_2 1_555 1_555
H13_2 C14_2 1_555 1_555
C15_2 N2_2 1_555 1_555
H14_2 C15_2 1_555 1_555
C16_2 C17_2 1_555 1_555
C17_2 H15_2 1_555 1_555
C18_2 C17_2 1_555 1_555
H16_2 C18_2 1_555 1_555
C19_2 C18_2 1_555 1_555
C20_2 C19_2 1_555 1_555
H17_2 C20_2 1_555 1_555
C21_2 C16_2 1_555 1_555
H18_2 C21_2 1_555 1_555
C22_2 C19_2 1_555 1_555
C23_2 C22_2 1_555 1_555
H19_2 C23_2 1_555 1_555
C24_2 C23_2 1_555 1_555
H20_2 C24_2 1_555 1_555
C25_2 C24_2 1_555 1_555
C26_2 C25_2 1_555 1_555
H21_2 C26_2 1_555 1_555
C27_2 C22_2 1_555 1_555
H22_2 C27_2 1_555 1_555
C28_2 N4_2 1_555 1_555
H23_2 C28_2 1_555 1_555
C29_2 N4_2 1_555 1_555
H24_2 C29_2 1_555 1_555
C30_2 N3_2 1_555 1_555
H25_2 C30_2 1_555 1_555
C31A C32A 1_555 1_555
C32A H26A 1_555 1_555
C33A C32A 1_555 1_555
H27A C33A 1_555 1_555
C34A C34 1_555 1_555
C35A C34A 1_555 1_555
H28A C35A 1_555 1_555
C36A C31A 1_555 1_555
H29A C36A 1_555 1_555
C37A N6A 1_555 1_555
H30A C37A 1_555 1_555
C38A N5A 1_555 1_555
H31A C38A 1_555 1_555
C39A N6A 1_555 1_555
H32A C39A 1_555 1_555
C40_2 N7_2 1_555 1_555
H33_2 C40_2 1_555 1_555
C41_2 N8_2 1_555 1_555
H34_2 C41_2 1_555 1_555
C42_2 N7_2 1_555 1_555
H35_2 C42_2 1_555 1_555
C43_2 N9_2 1_555 1_555
H36_2 C43_2 1_555 1_555
C44_2 N10_2 1_555 1_555
H37_2 C44_2 1_555 1_555
C45_2 N9_2 1_555 1_555
H38_2 C45_2 1_555 1_555
P1 O8 1_555 1_555
N2 C13 1_555 1_555
N4 C28 1_555 1_555
N6 C37 1_555 1_555
C5 C6 1_555 1_555
C11 C12 1_555 1_555
C14 C15 1_555 1_555
C20 C21 1_555 1_555
C26 C27 1_555 1_555
C29 C30 1_555 1_555
C35 C36 1_555 1_555
C38 C39 1_555 1_555
C41 C42 1_555 1_555
C44 C45 1_555 1_555
P1A O8A 1_555 1_555
P1A O9A 1_555 1_555
P2A O5A 1_555 1_555
P2A O6A 1_555 1_555
N8_2 C40_2 1_555 1_555
N10_2 C43_2 1_555 1_555
C5_2 C6_2 1_555 1_555
C11_2 C12_2 1_555 1_555
C14_2 C15_2 1_555 1_555
C20_2 C21_2 1_555 1_555
C26_2 C27_2 1_555 1_555
C29_2 C30_2 1_555 1_555
C33A C34A 1_555 1_555
C35A C36A 1_555 1_555
C38A C39A 1_555 1_555
C41_2 C42_2 1_555 1_555
C44_2 C45_2 1_555 1_555

#END
