
#######################################################################
#
#                 Cambridge Crystallographic Data Centre
#                                CCDC 
#
#######################################################################
#
# If this CIF has been generated from an entry in the Cambridge 
# Structural Database, then it will include bibliographic, chemical, 
# crystal, experimental, refinement or atomic coordinate data resulting 
# from the CCDC's data processing and validation procedures.
#
#######################################################################

data_TANHUN
_symmetry_cell_setting           triclinic
_symmetry_space_group_name_H-M   'P -1'
_symmetry_Int_Tables_number      2
_space_group_name_Hall           '-P 1'
loop_
_symmetry_equiv_pos_site_id
_symmetry_equiv_pos_as_xyz
1 x,y,z
2 -x,-y,-z
_cell_length_a                   11.1804(9)
_cell_length_b                   17.3956(14)
_cell_length_c                   25.706(2)
_cell_angle_alpha                107.4560(10)
_cell_angle_beta                 90.016(2)
_cell_angle_gamma                95.2510(10)
_cell_volume                     4747.27
loop_
_atom_site_label
_atom_site_type_symbol
_atom_site_fract_x
_atom_site_fract_y
_atom_site_fract_z
C1 C -0.2509(9) 0.0817(8) 0.0699(4)
H1 H -0.2572 0.0459 0.0332
H2 H -0.2373 0.1367 0.0692
H3 H -0.3241 0.0750 0.0882
C2 C -0.1466(11) 0.0620(8) 0.1001(4)
H4 H -0.1721 0.0576 0.1353
H5 H -0.0813 0.1047 0.1062
C3 C 0.0439(9) -0.0312(7) 0.0957(4)
C4 C 0.1499(8) -0.0061(6) 0.0753(4)
H6 H 0.1495 0.0084 0.0433
C5 C 0.2568(8) -0.0031(5) 0.1035(4)
H7 H 0.3294 0.0121 0.0900
C6 C 0.2549(8) -0.0232(5) 0.1526(3)
C7 C 0.1461(10) -0.0488(8) 0.1724(4)
H8 H 0.1435 -0.0600 0.2055
C8 C 0.0473(9) -0.0562(6) 0.1422(4)
H9 H -0.0234 -0.0794 0.1526
C9 C 0.5130(8) 0.0231(7) 0.1606(4)
H10 H 0.5878 0.0110 0.1741
H11 H 0.5094 -0.0014 0.1214
C10 C 0.5161(12) 0.1111(8) 0.1722(5)
H12 H 0.4779 0.1232 0.1425
H13 H 0.5981 0.1345 0.1766
H14 H 0.4744 0.1334 0.2052
C11 C -0.0895(10) 0.0038(7) 0.2908(5)
H15 H -0.0786 0.0615 0.2987
H16 H -0.1644 -0.0167 0.2711
H17 H -0.0248 -0.0199 0.2692
C12 C -0.0908(9) -0.0183(8) 0.3450(5)
H18 H -0.0590 -0.0701 0.3396
H19 H -0.1723 -0.0220 0.3576
C13 C 0.0127(12) -0.0540(7) 0.4518(4)
H20 H 0.0221 -0.0921 0.4182
C14 C -0.0016(9) 0.0265(6) 0.4536(4)
C15 C -0.0134(7) 0.0773(6) 0.5032(4)
H21 H -0.0224 0.1312 0.5067
C16 C 0.3599(10) 0.3871(7) 0.4851(4)
H22 H 0.3039 0.3448 0.4900
H23 H 0.3264 0.4381 0.4983
H24 H 0.4334 0.3892 0.5050
C17 C 0.3855(8) 0.3699(7) 0.4240(4)
H25 H 0.4079 0.4221 0.4185
H26 H 0.3093 0.3494 0.4046
C18 C 0.6228(9) 0.3323(6) 0.4340(4)
C19 C 0.7050(11) 0.3934(6) 0.4275(5)
H27 H 0.6896 0.4194 0.4018
C20 C 0.8103(10) 0.4157(6) 0.4594(4)
H28 H 0.8653 0.4566 0.4550
C21 C 0.8333(8) 0.3768(4) 0.4978(4)
C22 C 0.7511(10) 0.3157(6) 0.5044(5)
H29 H 0.7665 0.2897 0.5301
C23 C 0.6459(10) 0.2934(7) 0.4725(5)
H30 H 0.5909 0.2525 0.4768
C24 C 1.0414(8) 0.3108(6) 0.5089(4)
H31 H 1.1183 0.3161 0.5276
H32 H 0.9905 0.2679 0.5170
C25 C 1.0598(10) 0.2882(7) 0.4477(4)
H33 H 0.9888 0.2574 0.4287
H34 H 1.1269 0.2565 0.4387
H35 H 1.0753 0.3366 0.4372
C26 C 1.0582(9) -0.2624(6) 0.1940(4)
H36 H 1.0345 -0.3191 0.1780
H37 H 1.0571 -0.2355 0.1664
H38 H 1.1378 -0.2552 0.2098
C27 C 0.9712(9) -0.2265(6) 0.2383(4)
H39 H 1.0158 -0.2028 0.2726
H40 H 0.9349 -0.1834 0.2292
C28 C 0.7696(8) -0.2382(5) 0.2950(3)
C29 C 0.6662(9) -0.2069(5) 0.2792(3)
H41 H 0.6434 -0.2242 0.2424
C30 C 0.6010(8) -0.1557(5) 0.3126(3)
H42 H 0.5401 -0.1329 0.2995
C31 C 0.6249(8) -0.1372(5) 0.3662(3)
C32 C 0.7183(8) -0.1610(6) 0.3887(4)
H43 H 0.7346 -0.1436 0.4261
C33 C 0.7928(9) -0.2161(6) 0.3506(3)
H44 H 0.8562 -0.2364 0.3640
C34 C 0.4159(7) -0.1500(5) 0.4259(4)
H45 H 0.4546 -0.1902 0.4373
H46 H 0.3726 -0.1768 0.3916
C35 C 0.3316(10) -0.1105(7) 0.4680(4)
H47 H 0.2935 -0.0710 0.4563
H48 H 0.2716 -0.1507 0.4730
H49 H 0.3751 -0.0845 0.5018
C36 C 0.8998(9) -0.7666(6) 0.3047(4)
H50 H 0.9691 -0.7521 0.2864
H51 H 0.9175 -0.7510 0.3433
H52 H 0.8793 -0.8241 0.2914
C37 C 0.7989(8) -0.7250(5) 0.2944(3)
H53 H 0.7286 -0.7635 0.2824
H54 H 0.7800 -0.6845 0.3277
C38 C 0.6970(8) -0.6673(6) 0.2161(4)
C39 C 0.6856(8) -0.6783(6) 0.1590(3)
H55 H 0.7516 -0.6862 0.1366
C40 C 0.5647(9) -0.6766(6) 0.1372(4)
H56 H 0.5544 -0.6841 0.1000
C41 C 0.4720(8) -0.6650(6) 0.1677(4)
C42 C 0.4782(10) -0.6498(6) 0.2267(4)
H57 H 0.4119 -0.6386 0.2486
C43 C 0.5963(9) -0.6538(6) 0.2482(5)
H58 H 0.6054 -0.6471 0.2853
C44 C 0.2066(10) -0.6928(8) 0.1717(5)
H59 H 0.1320 -0.6822 0.1571
H60 H 0.2118 -0.6634 0.2104
C45 C 0.2036(11) -0.7818(7) 0.1648(5)
H61 H 0.2808 -0.7998 0.1536
H62 H 0.1846 -0.7916 0.1988
H63 H 0.1437 -0.8108 0.1375
C46 C 1.4540(10) -0.4226(6) 0.3513(5)
H64 H 1.4850 -0.4741 0.3362
H65 H 1.5049 -0.3901 0.3814
H66 H 1.3742 -0.4306 0.3637
C47 C 1.4509(9) -0.3810(7) 0.3088(5)
H67 H 1.4193 -0.3290 0.3240
H68 H 1.5318 -0.3713 0.2971
C48 C 1.3586(8) -0.3803(5) 0.2061(4)
C49 C 1.3780(9) -0.2963(6) 0.2252(4)
H69 H 1.3928 -0.2704 0.2622
C50 C 1.3752(8) -0.2511(6) 0.1889(4)
H70 H 1.3882 -0.1950 0.2016
C51 C 1.3531(9) -0.2899(5) 0.1336(4)
C52 C 1.3338(9) -0.3738(6) 0.1145(4)
H71 H 1.3190 -0.3998 0.0775
C53 C 1.3365(10) -0.4190(6) 0.1508(4)
H72 H 1.3235 -0.4752 0.1380
C54 C 1.2476(9) -0.2806(5) 0.0357(4)
H73 H 1.1703 -0.2852 0.0522
H74 H 1.2688 -0.3349 0.0177
C55 C 1.2373(10) -0.2372(7) -0.0056(4)
H75 H 1.2973 -0.2526 -0.0324
H76 H 1.1589 -0.2511 -0.0230
H77 H 1.2488 -0.1799 0.0120
C56 C -0.3584(11) -0.4446(9) 0.1421(5)
H78 H -0.3365 -0.3873 0.1564
H79 H -0.4415 -0.4542 0.1305
H80 H -0.3460 -0.4697 0.1700
C57 C -0.2810(11) -0.4802(6) 0.0938(5)
H81 H -0.2441 -0.5260 0.0987
H82 H -0.3298 -0.4986 0.0604
C58 C -0.1195(11) -0.4899(7) -0.0115(5)
H83 H -0.1991 -0.4853 -0.0197
C59 C -0.0724(9) -0.4562(6) 0.0387(4)
C60 C 0.0422(9) -0.4659(6) 0.0529(4)
H84 H 0.0701 -0.4442 0.0889
Cu1 Cu 0.43341(10) 0.00920(7) 0.37687(5)
Cu2 Cu 0.20351(10) 0.06686(7) 0.36745(5)
Cu3 Cu 0.36588(10) 0.04147(7) 0.28187(5)
Cu4 Cu 0.41684(10) 0.17027(7) 0.37244(5)
Cu5 Cu 1.03962(10) -0.42734(7) 0.37312(5)
Cu6 Cu 1.16234(10) -0.45080(7) 0.28056(5)
Cu7 Cu 0.94666(10) -0.38699(7) 0.28399(5)
Cu8 Cu 0.94129(10) -0.54852(7) 0.28053(5)
Cu9 Cu -0.44955(10) -0.23339(7) 0.05048(5)
Cu10 Cu -0.24893(10) -0.31106(7) 0.05180(5)
Cu11 Cu -0.21580(10) -0.15588(7) 0.04387(5)
Cu12 Cu -0.32242(10) -0.27537(7) -0.04517(5)
I1 I 0.25080(5) -0.08317(3) 0.31442(2)
I2 I 0.34010(5) 0.12688(3) 0.45747(2)
I3 I 0.23086(5) 0.16395(3) 0.30348(2)
I4 I 0.59127(5) 0.07947(4) 0.32423(2)
I5 I 1.13410(5) -0.29894(3) 0.34862(2)
I6 I 1.01132(5) -0.50158(4) 0.19520(2)
I7 I 1.13923(5) -0.56453(4) 0.33434(2)
I8 I 0.79818(5) -0.44957(3) 0.34544(2)
I9 I -0.41251(5) -0.13229(4) -0.01077(2)
I10 I -0.44432(5) -0.38922(3) -0.00729(2)
I11 I -0.29382(5) -0.17985(4) 0.13530(2)
I12 I -0.09165(5) -0.27036(4) -0.01737(2)
S1 S -0.0948(2) -0.03621(16) 0.05778(10)
S2 S 0.38665(19) -0.02540(14) 0.19021(9)
S3 S 0.0044(2) 0.06327(15) 0.39586(11)
S4 S 0.4939(2) 0.30391(15) 0.38908(10)
S5 S 0.9727(2) 0.40490(13) 0.53360(9)
S6 S 0.8516(2) -0.30092(14) 0.24703(9)
S7 S 0.53009(17) -0.07103(12) 0.41726(8)
S8 S 0.8378(2) -0.67646(15) 0.24165(10)
S9 S 0.3338(2) -0.65475(16) 0.13755(10)
S10 S 1.3567(2) -0.44230(16) 0.25008(11)
S11 S 1.3606(2) -0.22884(14) 0.08921(9)
S12 S -0.16171(19) -0.39815(14) 0.08999(10)
C15A C 0.0134(7) -0.0773(6) 0.4968(4)
C14A C 0.0016(9) -0.0265(6) 0.5464(4)
C13A C -0.0127(12) 0.0540(7) 0.5482(4)
H20A H -0.0221 0.0921 0.5818
S3A S -0.0044(2) -0.06327(15) 0.60414(11)
C12A C 0.0908(9) 0.0183(8) 0.6550(5)
C11A C 0.0895(10) -0.0038(7) 0.7092(5)
H15A H 0.0786 -0.0615 0.7013
H16A H 0.1644 0.0167 0.7289
H17A H 0.0248 0.0199 0.7308
H18A H 0.0590 0.0701 0.6604
H19A H 0.1723 0.0220 0.6424
H21A H 0.0224 -0.1312 0.4933
C60A C -0.0422(9) -0.5341(6) -0.0529(4)
C59A C 0.0724(9) -0.5438(6) -0.0387(4)
C58A C 0.1195(11) -0.5101(7) 0.0115(5)
H83A H 0.1991 -0.5147 0.0197
S12A S 0.16171(19) -0.60185(14) -0.08999(10)
C57A C 0.2810(11) -0.5198(6) -0.0938(5)
C56A C 0.3584(11) -0.5554(9) -0.1421(5)
H78A H 0.3365 -0.6127 -0.1564
H79A H 0.4415 -0.5458 -0.1305
H80A H 0.3460 -0.5303 -0.1700
H81A H 0.2441 -0.4740 -0.0987
H82A H 0.3298 -0.5014 -0.0604
H84A H -0.0701 -0.5558 -0.0889
Cu2A Cu -0.20351(10) -0.06686(7) 0.63255(5)
Cu5A Cu 0.96038(10) 0.42734(7) 0.62688(5)
C16A C 1.6401(10) -0.3871(7) 0.5149(4)
H22A H 1.6961 -0.3448 0.5100
H23A H 1.6736 -0.4381 0.5017
H24A H 1.5666 -0.3892 0.4950
C17A C 1.6145(8) -0.3699(7) 0.5760(4)
H25A H 1.5921 -0.4221 0.5815
H26A H 1.6907 -0.3494 0.5954
C18A C 1.3772(9) -0.3323(6) 0.5660(4)
C19A C 1.2950(11) -0.3934(6) 0.5725(5)
H27A H 1.3104 -0.4194 0.5982
C20A C 1.1897(10) -0.4157(6) 0.5406(4)
H28A H 1.1347 -0.4566 0.5450
C21A C 1.1667(8) -0.3768(4) 0.5022(4)
C22A C 1.2489(10) -0.3157(6) 0.4956(5)
H29A H 1.2335 -0.2897 0.4699
C23A C 1.3541(10) -0.2934(7) 0.5275(5)
H30A H 1.4091 -0.2525 0.5232
C24A C 0.9586(8) -0.3108(6) 0.4911(4)
H31A H 0.8817 -0.3161 0.4724
H32A H 1.0095 -0.2679 0.4830
C25A C 0.9402(10) -0.2882(7) 0.5523(4)
H33A H 1.0112 -0.2574 0.5713
H34A H 0.8731 -0.2565 0.5613
H35A H 0.9247 -0.3366 0.5628
S4A S 1.5061(2) -0.30391(15) 0.61092(10)
S5A S 1.0273(2) -0.40490(13) 0.46640(9)
I1A I -0.25080(5) 0.08317(3) 0.68558(2)
I3A I -0.23086(5) -0.16395(3) 0.69652(2)
I2A I -0.34010(5) -0.12688(3) 0.54253(2)
I5A I 0.86590(5) 0.29894(3) 0.65138(2)
I7A I 0.86077(5) 0.56453(4) 0.66566(2)
I8A I 1.20182(5) 0.44957(3) 0.65456(2)
Cu1A Cu -0.43341(10) -0.00920(7) 0.62313(5)
Cu3A Cu -0.36588(10) -0.04147(7) 0.71813(5)
Cu4A Cu -0.41684(10) -0.17027(7) 0.62756(5)
Cu6A Cu 0.83766(10) 0.45080(7) 0.71944(5)
Cu7A Cu 1.05334(10) 0.38699(7) 0.71601(5)
Cu8A Cu 1.05871(10) 0.54852(7) 0.71947(5)
Cu9_2 Cu 1.55045(10) -0.23339(7) 0.05048(5)
Cu12A Cu 0.32242(10) -0.72463(7) 0.04517(5)
C46_2 C -0.5460(10) -0.4226(6) 0.3513(5)
H64_2 H -0.5150 -0.4741 0.3362
H65_2 H -0.4951 -0.3901 0.3814
H66_2 H -0.6258 -0.4306 0.3637
C47_2 C -0.5491(9) -0.3810(7) 0.3088(5)
H67_2 H -0.5807 -0.3290 0.3240
H68_2 H -0.4682 -0.3713 0.2971
C48_2 C -0.6414(8) -0.3803(5) 0.2061(4)
C49_2 C -0.6220(9) -0.2963(6) 0.2252(4)
H69_2 H -0.6072 -0.2704 0.2622
C50_2 C -0.6248(8) -0.2511(6) 0.1889(4)
H70_2 H -0.6118 -0.1950 0.2016
C51_2 C -0.6469(9) -0.2899(5) 0.1336(4)
C52_2 C -0.6662(9) -0.3738(6) 0.1145(4)
H71_2 H -0.6810 -0.3998 0.0775
C53_2 C -0.6635(10) -0.4190(6) 0.1508(4)
H72_2 H -0.6765 -0.4752 0.1380
C54_2 C -0.7524(9) -0.2806(5) 0.0357(4)
H73_2 H -0.8297 -0.2852 0.0522
H74_2 H -0.7312 -0.3349 0.0177
C55_2 C -0.7627(10) -0.2372(7) -0.0056(4)
H75_2 H -0.7027 -0.2526 -0.0324
H76_2 H -0.8411 -0.2511 -0.0230
H77_2 H -0.7512 -0.1799 0.0120
S10_2 S -0.6433(2) -0.44230(16) 0.25008(11)
S11_2 S -0.6394(2) -0.22884(14) 0.08921(9)
C36A C -0.8998(9) -0.2334(6) -0.3047(4)
H50A H -0.9691 -0.2479 -0.2864
H51A H -0.9175 -0.2490 -0.3433
H52A H -0.8793 -0.1759 -0.2914
C37A C -0.7989(8) -0.2750(5) -0.2944(3)
H53A H -0.7286 -0.2365 -0.2824
H54A H -0.7800 -0.3155 -0.3277
C38A C -0.6970(8) -0.3327(6) -0.2161(4)
C39A C -0.6856(8) -0.3217(6) -0.1590(3)
H55A H -0.7516 -0.3138 -0.1366
C40A C -0.5647(9) -0.3234(6) -0.1372(4)
H56A H -0.5544 -0.3159 -0.1000
C41A C -0.4720(8) -0.3350(6) -0.1677(4)
C42A C -0.4782(10) -0.3502(6) -0.2267(4)
H57A H -0.4119 -0.3614 -0.2486
C43A C -0.5963(9) -0.3462(6) -0.2482(5)
H58A H -0.6054 -0.3529 -0.2853
C44A C -0.2066(10) -0.3072(8) -0.1717(5)
H59A H -0.1320 -0.3178 -0.1571
H60A H -0.2118 -0.3366 -0.2104
C45A C -0.2036(11) -0.2182(7) -0.1648(5)
H61A H -0.2808 -0.2002 -0.1536
H62A H -0.1846 -0.2084 -0.1988
H63A H -0.1437 -0.1892 -0.1375
S8A S -0.8378(2) -0.32354(15) -0.24165(10)
S9A S -0.3338(2) -0.34525(16) -0.13755(10)
I4A I -0.59127(5) -0.07947(4) 0.67577(2)
C26A C -1.0582(9) 0.2624(6) 0.8060(4)
H36A H -1.0345 0.3191 0.8220
H37A H -1.0571 0.2355 0.8336
H38A H -1.1378 0.2552 0.7902
C27A C -0.9712(9) 0.2265(6) 0.7617(4)
H39A H -1.0158 0.2028 0.7274
H40A H -0.9349 0.1834 0.7708
C28A C -0.7696(8) 0.2382(5) 0.7050(3)
C29A C -0.6662(9) 0.2069(5) 0.7208(3)
H41A H -0.6434 0.2242 0.7576
C30A C -0.6010(8) 0.1557(5) 0.6874(3)
H42A H -0.5401 0.1329 0.7005
C31A C -0.6249(8) 0.1372(5) 0.6338(3)
C32A C -0.7183(8) 0.1610(6) 0.6113(4)
H43A H -0.7346 0.1436 0.5739
C33A C -0.7928(9) 0.2161(6) 0.6494(3)
H44A H -0.8562 0.2364 0.6360
C34A C -0.4159(7) 0.1500(5) 0.5741(4)
H45A H -0.4546 0.1902 0.5627
H46A H -0.3726 0.1768 0.6084
C35A C -0.3316(10) 0.1105(7) 0.5320(4)
H47A H -0.2935 0.0710 0.5437
H48A H -0.2716 0.1507 0.5270
H49A H -0.3751 0.0845 0.4982
S6A S -0.8516(2) 0.30092(14) 0.75297(9)
S7A S -0.53009(17) 0.07103(12) 0.58274(8)
C1A C 0.2509(9) -0.0817(8) 0.9301(4)
H1A H 0.2572 -0.0459 0.9668
H2A H 0.2373 -0.1367 0.9308
H3A H 0.3241 -0.0750 0.9118
C2A C 0.1466(11) -0.0620(8) 0.8999(4)
H4A H 0.1721 -0.0576 0.8647
H5A H 0.0813 -0.1047 0.8938
C3A C -0.0439(9) 0.0312(7) 0.9043(4)
C4A C -0.1499(8) 0.0061(6) 0.9247(4)
H6A H -0.1495 -0.0084 0.9567
C5A C -0.2568(8) 0.0031(5) 0.8965(4)
H7A H -0.3294 -0.0121 0.9100
C6A C -0.2549(8) 0.0232(5) 0.8474(3)
C7A C -0.1461(10) 0.0488(8) 0.8276(4)
H8A H -0.1435 0.0600 0.7945
C8A C -0.0473(9) 0.0562(6) 0.8578(4)
H9A H 0.0234 0.0794 0.8474
C9A C -0.5130(8) -0.0231(7) 0.8394(4)
H10A H -0.5878 -0.0110 0.8259
H11A H -0.5094 0.0014 0.8786
C10A C -0.5161(12) -0.1111(8) 0.8278(5)
H12A H -0.4779 -0.1232 0.8575
H13A H -0.5981 -0.1345 0.8234
H14A H -0.4744 -0.1334 0.7948
S1A S 0.0948(2) 0.03621(16) 0.94222(10)
S2A S -0.38665(19) 0.02540(14) 0.80979(9)
I6A I 0.98868(5) 0.50158(4) 0.80480(2)
I9_2 I 1.58749(5) -0.13229(4) -0.01077(2)
I10_2 I 1.55568(5) -0.38922(3) -0.00729(2)
I11_2 I 1.70618(5) -0.17985(4) 0.13530(2)
I12A I 0.09165(5) -0.72964(4) 0.01737(2)
Cu10_2 Cu 1.75107(10) -0.31106(7) 0.05180(5)
Cu11_2 Cu 1.78420(10) -0.15588(7) 0.04387(5)
Cu10A Cu 0.24893(10) -0.68894(7) -0.05180(5)
Cu4A_2 Cu 1.58316(10) -0.17027(7) 0.62756(5)
S4A_2 S -0.4939(2) -0.30391(15) 0.61092(10)
S10A S 0.6433(2) 0.44230(16) 0.74992(11)
S6A_2 S 1.1484(2) 0.30092(14) 0.75297(9)
S8A_2 S 1.1622(2) 0.67646(15) 0.75835(10)
I9A I 0.41251(5) -0.86771(4) 0.01077(2)
I10A I 0.44432(5) -0.61078(3) 0.00729(2)
Cu6_2 Cu -0.83766(10) -0.45080(7) 0.28056(5)
Cu8A_2 Cu -0.94129(10) -0.45148(7) -0.28053(5)
Cu7A_2 Cu -0.94666(10) 0.38699(7) 0.71601(5)
Cu11A Cu 0.21580(10) 0.15588(7) 0.95613(5)
Cu12_2 Cu 1.67758(10) -0.27537(7) -0.04517(5)
Cu11A_2 Cu 0.21580(10) -0.84412(7) -0.04387(5)
I12_2 I 1.90835(5) -0.27036(4) -0.01737(2)
S12_2 S 1.83829(19) -0.39815(14) 0.08999(10)
S1_2 S 1.9052(2) -0.03621(16) 0.05778(10)
loop_
_geom_bond_atom_site_label_1
_geom_bond_atom_site_label_2
_geom_bond_site_symmetry_1
_geom_bond_site_symmetry_2
C1 H1 1_555 1_555
H2 C1 1_555 1_555
H3 C1 1_555 1_555
C2 C1 1_555 1_555
H4 C2 1_555 1_555
H5 C2 1_555 1_555
C3 C4 1_555 1_555
C4 H6 1_555 1_555
C5 C4 1_555 1_555
H7 C5 1_555 1_555
C6 C5 1_555 1_555
C7 C6 1_555 1_555
H8 C7 1_555 1_555
C8 C3 1_555 1_555
H9 C8 1_555 1_555
C9 H10 1_555 1_555
H11 C9 1_555 1_555
C10 C9 1_555 1_555
H12 C10 1_555 1_555
H13 C10 1_555 1_555
H14 C10 1_555 1_555
C11 H15 1_555 1_555
H16 C11 1_555 1_555
H17 C11 1_555 1_555
C12 C11 1_555 1_555
H18 C12 1_555 1_555
H19 C12 1_555 1_555
C13 H20 1_555 1_555
C14 C13 1_555 1_555
C15 C14 1_555 1_555
H21 C15 1_555 1_555
C16 H22 1_555 1_555
H23 C16 1_555 1_555
H24 C16 1_555 1_555
C17 C16 1_555 1_555
H25 C17 1_555 1_555
H26 C17 1_555 1_555
C18 C19 1_555 1_555
C19 H27 1_555 1_555
C20 C19 1_555 1_555
H28 C20 1_555 1_555
C21 C20 1_555 1_555
C22 C21 1_555 1_555
H29 C22 1_555 1_555
C23 C18 1_555 1_555
H30 C23 1_555 1_555
C24 H31 1_555 1_555
H32 C24 1_555 1_555
C25 C24 1_555 1_555
H33 C25 1_555 1_555
H34 C25 1_555 1_555
H35 C25 1_555 1_555
C26 H36 1_555 1_555
H37 C26 1_555 1_555
H38 C26 1_555 1_555
C27 C26 1_555 1_555
H39 C27 1_555 1_555
H40 C27 1_555 1_555
C28 C29 1_555 1_555
C29 H41 1_555 1_555
C30 C29 1_555 1_555
H42 C30 1_555 1_555
C31 C30 1_555 1_555
C32 C31 1_555 1_555
H43 C32 1_555 1_555
C33 C28 1_555 1_555
H44 C33 1_555 1_555
C34 H45 1_555 1_555
H46 C34 1_555 1_555
C35 C34 1_555 1_555
H47 C35 1_555 1_555
H48 C35 1_555 1_555
H49 C35 1_555 1_555
C36 H50 1_555 1_555
H51 C36 1_555 1_555
H52 C36 1_555 1_555
C37 C36 1_555 1_555
H53 C37 1_555 1_555
H54 C37 1_555 1_555
C38 C39 1_555 1_555
C39 H55 1_555 1_555
C40 C39 1_555 1_555
H56 C40 1_555 1_555
C41 C40 1_555 1_555
C42 C41 1_555 1_555
H57 C42 1_555 1_555
C43 C38 1_555 1_555
H58 C43 1_555 1_555
C44 H59 1_555 1_555
H60 C44 1_555 1_555
C45 C44 1_555 1_555
H61 C45 1_555 1_555
H62 C45 1_555 1_555
H63 C45 1_555 1_555
C46 H64 1_555 1_555
H65 C46 1_555 1_555
H66 C46 1_555 1_555
C47 C46 1_555 1_555
H67 C47 1_555 1_555
H68 C47 1_555 1_555
C48 C49 1_555 1_555
C49 H69 1_555 1_555
C50 C49 1_555 1_555
H70 C50 1_555 1_555
C51 C50 1_555 1_555
C52 C51 1_555 1_555
H71 C52 1_555 1_555
C53 C48 1_555 1_555
H72 C53 1_555 1_555
C54 H73 1_555 1_555
H74 C54 1_555 1_555
C55 C54 1_555 1_555
H75 C55 1_555 1_555
H76 C55 1_555 1_555
H77 C55 1_555 1_555
C56 H78 1_555 1_555
H79 C56 1_555 1_555
H80 C56 1_555 1_555
C57 C56 1_555 1_555
H81 C57 1_555 1_555
H82 C57 1_555 1_555
C58 H83 1_555 1_555
C59 C58 1_555 1_555
C60 C59 1_555 1_555
H84 C60 1_555 1_555
Cu1 I1 1_555 1_555
Cu2 I1 1_555 1_555
Cu3 I1 1_555 1_555
Cu4 I2 1_555 1_555
Cu5 I5 1_555 1_555
Cu6 I5 1_555 1_555
Cu7 I5 1_555 1_555
Cu8 I6 1_555 1_555
Cu9 I9 1_555 1_555
Cu10 I10 1_555 1_555
Cu11 I9 1_555 1_555
Cu12 I9 1_555 1_555
I2 Cu1 1_555 1_555
I3 Cu2 1_555 1_555
I4 Cu1 1_555 1_555
I6 Cu6 1_555 1_555
I7 Cu5 1_555 1_555
I8 Cu5 1_555 1_555
I10 Cu9 1_555 1_555
I11 Cu9 1_555 1_555
I12 Cu10 1_555 1_555
S1 C2 1_555 1_555
S2 C6 1_555 1_555
S3 C12 1_555 1_555
S4 C17 1_555 1_555
S5 C21 1_555 1_555
S6 C27 1_555 1_555
S7 C31 1_555 1_555
S8 C37 1_555 1_555
S9 C41 1_555 1_555
S10 C47 1_555 1_555
S11 C51 1_555 1_555
S12 C57 1_555 1_555
C15A C13 1_555 1_555
C14A C15A 1_555 1_555
C13A C15 1_555 1_555
H20A C13A 1_555 1_555
S3A C14A 1_555 1_555
C12A S3A 1_555 1_555
C11A C12A 1_555 1_555
H15A C11A 1_555 1_555
H16A C11A 1_555 1_555
H17A C11A 1_555 1_555
H18A C12A 1_555 1_555
H19A C12A 1_555 1_555
H21A C15A 1_555 1_555
C60A C58 1_555 1_555
C59A C60A 1_555 1_555
C58A C60 1_555 1_555
H83A C58A 1_555 1_555
S12A C59A 1_555 1_555
C57A S12A 1_555 1_555
C56A C57A 1_555 1_555
H78A C56A 1_555 1_555
H79A C56A 1_555 1_555
H80A C56A 1_555 1_555
H81A C57A 1_555 1_555
H82A C57A 1_555 1_555
H84A C60A 1_555 1_555
Cu2A S3A 1_555 1_555
Cu5A S5 1_555 1_555
C16A H22A 1_555 1_555
H23A C16A 1_555 1_555
H24A C16A 1_555 1_555
C17A C16A 1_555 1_555
H25A C17A 1_555 1_555
H26A C17A 1_555 1_555
C18A C19A 1_555 1_555
C19A H27A 1_555 1_555
C20A C19A 1_555 1_555
H28A C20A 1_555 1_555
C21A C20A 1_555 1_555
C22A C21A 1_555 1_555
H29A C22A 1_555 1_555
C23A C18A 1_555 1_555
H30A C23A 1_555 1_555
C24A H31A 1_555 1_555
H32A C24A 1_555 1_555
C25A C24A 1_555 1_555
H33A C25A 1_555 1_555
H34A C25A 1_555 1_555
H35A C25A 1_555 1_555
S4A C17A 1_555 1_555
S5A Cu5 1_555 1_555
I1A Cu2A 1_555 1_555
I3A Cu2A 1_555 1_555
I2A Cu2A 1_555 1_555
I5A Cu5A 1_555 1_555
I7A Cu5A 1_555 1_555
I8A Cu5A 1_555 1_555
Cu1A I1A 1_555 1_555
Cu3A I1A 1_555 1_555
Cu4A I3A 1_555 1_555
Cu6A I5A 1_555 1_555
Cu7A I5A 1_555 1_555
Cu8A I7A 1_555 1_555
Cu9_2 S11 1_555 1_555
Cu12A S9 1_555 1_555
C46_2 H64_2 1_555 1_555
H65_2 C46_2 1_555 1_555
H66_2 C46_2 1_555 1_555
C47_2 C46_2 1_555 1_555
H67_2 C47_2 1_555 1_555
H68_2 C47_2 1_555 1_555
C48_2 C49_2 1_555 1_555
C49_2 H69_2 1_555 1_555
C50_2 C49_2 1_555 1_555
H70_2 C50_2 1_555 1_555
C51_2 C50_2 1_555 1_555
C52_2 C51_2 1_555 1_555
H71_2 C52_2 1_555 1_555
C53_2 C48_2 1_555 1_555
H72_2 C53_2 1_555 1_555
C54_2 H73_2 1_555 1_555
H74_2 C54_2 1_555 1_555
C55_2 C54_2 1_555 1_555
H75_2 C55_2 1_555 1_555
H76_2 C55_2 1_555 1_555
H77_2 C55_2 1_555 1_555
S10_2 C47_2 1_555 1_555
S11_2 Cu9 1_555 1_555
C36A H50A 1_555 1_555
H51A C36A 1_555 1_555
H52A C36A 1_555 1_555
C37A C36A 1_555 1_555
H53A C37A 1_555 1_555
H54A C37A 1_555 1_555
C38A C39A 1_555 1_555
C39A H55A 1_555 1_555
C40A C39A 1_555 1_555
H56A C40A 1_555 1_555
C41A C40A 1_555 1_555
C42A C41A 1_555 1_555
H57A C42A 1_555 1_555
C43A C38A 1_555 1_555
H58A C43A 1_555 1_555
C44A H59A 1_555 1_555
H60A C44A 1_555 1_555
C45A C44A 1_555 1_555
H61A C45A 1_555 1_555
H62A C45A 1_555 1_555
H63A C45A 1_555 1_555
S8A C37A 1_555 1_555
S9A Cu12 1_555 1_555
I4A Cu1A 1_555 1_555
C26A H36A 1_555 1_555
H37A C26A 1_555 1_555
H38A C26A 1_555 1_555
C27A C26A 1_555 1_555
H39A C27A 1_555 1_555
H40A C27A 1_555 1_555
C28A C29A 1_555 1_555
C29A H41A 1_555 1_555
C30A C29A 1_555 1_555
H42A C30A 1_555 1_555
C31A C30A 1_555 1_555
C32A C31A 1_555 1_555
H43A C32A 1_555 1_555
C33A C28A 1_555 1_555
H44A C33A 1_555 1_555
C34A H45A 1_555 1_555
H46A C34A 1_555 1_555
C35A C34A 1_555 1_555
H47A C35A 1_555 1_555
H48A C35A 1_555 1_555
H49A C35A 1_555 1_555
S6A C27A 1_555 1_555
S7A Cu1A 1_555 1_555
C1A H1A 1_555 1_555
H2A C1A 1_555 1_555
H3A C1A 1_555 1_555
C2A C1A 1_555 1_555
H4A C2A 1_555 1_555
H5A C2A 1_555 1_555
C3A C4A 1_555 1_555
C4A H6A 1_555 1_555
C5A C4A 1_555 1_555
H7A C5A 1_555 1_555
C6A C5A 1_555 1_555
C7A C6A 1_555 1_555
H8A C7A 1_555 1_555
C8A C3A 1_555 1_555
H9A C8A 1_555 1_555
C9A H10A 1_555 1_555
H11A C9A 1_555 1_555
C10A C9A 1_555 1_555
H12A C10A 1_555 1_555
H13A C10A 1_555 1_555
H14A C10A 1_555 1_555
S1A C2A 1_555 1_555
S2A Cu3A 1_555 1_555
I6A Cu6A 1_555 1_555
I9_2 Cu9_2 1_555 1_555
I10_2 Cu9_2 1_555 1_555
I11_2 Cu9_2 1_555 1_555
I12A Cu12A 1_555 1_555
Cu10_2 I10_2 1_555 1_555
Cu11_2 I9_2 1_555 1_555
Cu10A S12A 1_555 1_555
Cu4A_2 S4A 1_555 1_555
S4A_2 Cu4A 1_555 1_555
S10A Cu6A 1_555 1_555
S6A_2 Cu7A 1_555 1_555
S8A_2 Cu8A 1_555 1_555
I9A Cu12A 1_555 1_555
I10A Cu12A 1_555 1_555
Cu6_2 S10_2 1_555 1_555
Cu8A_2 S8A 1_555 1_555
Cu7A_2 S6A 1_555 1_555
Cu11A S1A 1_555 1_555
Cu12_2 I9_2 1_555 1_555
Cu11A_2 I12A 1_555 1_555
I12_2 Cu10_2 1_555 1_555
S12_2 Cu10_2 1_555 1_555
S1_2 Cu11_2 1_555 1_555
C3 S1 1_555 1_555
C7 C8 1_555 1_555
C9 S2 1_555 1_555
C14 S3 1_555 1_555
C18 S4 1_555 1_555
C22 C23 1_555 1_555
C24 S5 1_555 1_555
C28 S6 1_555 1_555
C32 C33 1_555 1_555
C34 S7 1_555 1_555
C38 S8 1_555 1_555
C42 C43 1_555 1_555
C44 S9 1_555 1_555
C48 S10 1_555 1_555
C52 C53 1_555 1_555
C54 S11 1_555 1_555
C59 S12 1_555 1_555
Cu1 S7 1_555 1_555
Cu2 I2 1_555 1_555
Cu2 S3 1_555 1_555
Cu3 I4 1_555 1_555
Cu3 I3 1_555 1_555
Cu3 S2 1_555 1_555
Cu4 I4 1_555 1_555
Cu4 S4 1_555 1_555
Cu4 I3 1_555 1_555
Cu6 S10 1_555 1_555
Cu6 I7 1_555 1_555
Cu7 S6 1_555 1_555
Cu7 I6 1_555 1_555
Cu7 I8 1_555 1_555
Cu8 I8 1_555 1_555
Cu8 S8 1_555 1_555
Cu8 I7 1_555 1_555
Cu10 I11 1_555 1_555
Cu10 S12 1_555 1_555
Cu11 S1 1_555 1_555
Cu11 I11 1_555 1_555
Cu11 I12 1_555 1_555
Cu12 I12 1_555 1_555
Cu12 I10 1_555 1_555
C14A C13A 1_555 1_555
C59A C58A 1_555 1_555
C18A S4A 1_555 1_555
C21A S5A 1_555 1_555
C22A C23A 1_555 1_555
C24A S5A 1_555 1_555
I3A Cu3A 1_555 1_555
I2A Cu4A 1_555 1_555
I2A Cu1A 1_555 1_555
I7A Cu6A 1_555 1_555
I8A Cu7A 1_555 1_555
I8A Cu8A 1_555 1_555
Cu3A I4A 1_555 1_555
Cu4A I4A 1_555 1_555
Cu7A I6A 1_555 1_555
Cu8A I6A 1_555 1_555
C48_2 S10_2 1_555 1_555
C51_2 S11_2 1_555 1_555
C52_2 C53_2 1_555 1_555
C54_2 S11_2 1_555 1_555
C38A S8A 1_555 1_555
C41A S9A 1_555 1_555
C42A C43A 1_555 1_555
C44A S9A 1_555 1_555
C28A S6A 1_555 1_555
C31A S7A 1_555 1_555
C32A C33A 1_555 1_555
C34A S7A 1_555 1_555
C3A S1A 1_555 1_555
C6A S2A 1_555 1_555
C7A C8A 1_555 1_555
C9A S2A 1_555 1_555
I10_2 Cu12_2 1_555 1_555
I11_2 Cu10_2 1_555 1_555
I11_2 Cu11_2 1_555 1_555
I12A Cu10A 1_555 1_555
Cu11_2 I12_2 1_555 1_555
Cu10A I10A 1_555 1_555
I9A Cu11A_2 1_555 1_555
Cu12_2 I12_2 1_555 1_555

#END
