
#######################################################################
#
#                 Cambridge Crystallographic Data Centre
#                                CCDC 
#
#######################################################################
#
# If this CIF has been generated from an entry in the Cambridge 
# Structural Database, then it will include bibliographic, chemical, 
# crystal, experimental, refinement or atomic coordinate data resulting 
# from the CCDC's data processing and validation procedures.
#
#######################################################################

data_TANHOH
_symmetry_cell_setting           monoclinic
_symmetry_space_group_name_H-M   'C 2/m'
_symmetry_Int_Tables_number      12
_space_group_name_Hall           '-C 2y'
loop_
_symmetry_equiv_pos_site_id
_symmetry_equiv_pos_as_xyz
1 x,y,z
2 -x,y,-z
3 1/2+x,1/2+y,z
4 1/2-x,1/2+y,-z
5 -x,-y,-z
6 x,-y,z
7 1/2-x,1/2-y,-z
8 1/2+x,1/2-y,z
_cell_length_a                   8.792(5)
_cell_length_b                   21.509(12)
_cell_length_c                   7.436(4)
_cell_angle_alpha                90
_cell_angle_beta                 103.882(7)
_cell_angle_gamma                90
_cell_volume                     1365.13
loop_
_atom_site_label
_atom_site_type_symbol
_atom_site_fract_x
_atom_site_fract_y
_atom_site_fract_z
C1 C 0.2721(9) 0.3070(4) 0.5868(10)
H1 H 0.2873 0.3457 0.6441
C2 C 0.1785(8) 0.3022(3) 0.4086(9)
C3 C 0.3427(8) 0.2557(3) 0.6802(9)
H2 H 0.4038 0.2593 0.8006
C4 C 0.2412(9) 0.4090(4) 0.2247(12)
H3 H 0.1998 0.4457 0.1536
H4 H 0.3140 0.4230 0.3370
C5 C 0.3298(9) 0.3714(4) 0.1143(11)
H5 H 0.3826 0.3378 0.1888
H6 H 0.4055 0.3974 0.0767
H7 H 0.2582 0.3549 0.0065
Cu1 Cu 0.0000 0.43414(5) 0.5000
I1 I 0.22729(8) 0.5000 0.71135(9)
S1 S 0.0795(2) 0.36851(8) 0.2888(2)
C1F C 0.2279(9) 0.1930(4) 0.4132(10)
H1F H 0.2127 0.1543 0.3559
C2F C 0.3215(8) 0.1978(3) 0.5914(9)
C3F C 0.1573(8) 0.2443(3) 0.3198(9)
H2F H 0.0962 0.2407 0.1994
C4F C 0.2588(9) 0.0910(4) 0.7753(12)
H3F H 0.3002 0.0543 0.8464
H4F H 0.1860 0.0770 0.6630
C5F C 0.1702(9) 0.1286(4) 0.8857(11)
H5F H 0.1174 0.1622 0.8112
H6F H 0.0945 0.1026 0.9233
H7F H 0.2418 0.1451 0.9935
Cu1D Cu 0.0000 0.56586(5) 0.5000
Cu1F Cu 0.5000 0.06586(5) 0.5000
I1A I -0.22729(8) 0.5000 0.28865(9)
S1F S 0.4205(2) 0.13149(8) 0.7112(2)
S1A S -0.0795(2) 0.36851(8) 0.7112(2)
loop_
_geom_bond_atom_site_label_1
_geom_bond_atom_site_label_2
_geom_bond_site_symmetry_1
_geom_bond_site_symmetry_2
C1 H1 1_555 1_555
C2 C1 1_555 1_555
C3 C1 1_555 1_555
H2 C3 1_555 1_555
C4 H3 1_555 1_555
H4 C4 1_555 1_555
C5 C4 1_555 1_555
H5 C5 1_555 1_555
H6 C5 1_555 1_555
H7 C5 1_555 1_555
Cu1 I1 1_555 1_555
I1 Cu1D 1_555 1_555
S1 C2 1_555 1_555
C1F H1F 1_555 1_555
C2F C3 1_555 1_555
C3F C2 1_555 1_555
H2F C3F 1_555 1_555
C4F H3F 1_555 1_555
H4F C4F 1_555 1_555
C5F C4F 1_555 1_555
H5F C5F 1_555 1_555
H6F C5F 1_555 1_555
H7F C5F 1_555 1_555
Cu1D I1A 1_555 1_555
Cu1F S1F 1_555 1_555
I1A Cu1 1_555 1_555
S1F C2F 1_555 1_555
S1A Cu1 1_555 1_555
C4 S1 1_555 1_555
Cu1 S1 1_555 1_555
C1F C2F 1_555 1_555
C1F C3F 1_555 1_555
C4F S1F 1_555 1_555

#END
