
#######################################################################
#
#                 Cambridge Crystallographic Data Centre
#                                CCDC 
#
#######################################################################
#
# If this CIF has been generated from an entry in the Cambridge 
# Structural Database, then it will include bibliographic, chemical, 
# crystal, experimental, refinement or atomic coordinate data resulting 
# from the CCDC's data processing and validation procedures.
#
#######################################################################

data_TANJEZ
_symmetry_cell_setting           rhombohedral
_symmetry_space_group_name_H-M   'R -3 c'
_symmetry_Int_Tables_number      167
_space_group_name_Hall           '-R 3 2"c'
loop_
_symmetry_equiv_pos_site_id
_symmetry_equiv_pos_as_xyz
1 x,y,z
2 -y,x-y,z
3 -x+y,-x,z
4 y,x,1/2-z
5 -x,-x+y,1/2-z
6 x-y,-y,1/2-z
7 2/3+x,1/3+y,1/3+z
8 2/3-y,1/3+x-y,1/3+z
9 2/3-x+y,1/3-x,1/3+z
10 2/3+y,1/3+x,5/6-z
11 2/3-x,1/3-x+y,5/6-z
12 2/3+x-y,1/3-y,5/6-z
13 1/3+x,2/3+y,2/3+z
14 1/3-y,2/3+x-y,2/3+z
15 1/3-x+y,2/3-x,2/3+z
16 1/3+y,2/3+x,1/6-z
17 1/3-x,2/3-x+y,1/6-z
18 1/3+x-y,2/3-y,1/6-z
19 -x,-y,-z
20 y,-x+y,-z
21 x-y,x,-z
22 -y,-x,1/2+z
23 x,x-y,1/2+z
24 -x+y,y,1/2+z
25 1/3-x,2/3-y,2/3-z
26 1/3+y,2/3-x+y,2/3-z
27 1/3+x-y,2/3+x,2/3-z
28 1/3-y,2/3-x,1/6+z
29 1/3+x,2/3+x-y,1/6+z
30 1/3-x+y,2/3+y,1/6+z
31 2/3-x,1/3-y,1/3-z
32 2/3+y,1/3-x+y,1/3-z
33 2/3+x-y,1/3+x,1/3-z
34 2/3-y,1/3-x,5/6+z
35 2/3+x,1/3+x-y,5/6+z
36 2/3-x+y,1/3+y,5/6+z
_cell_length_a                   16.6650(5)
_cell_length_b                   16.6650(5)
_cell_length_c                   57.781(8)
_cell_angle_alpha                90
_cell_angle_beta                 90
_cell_angle_gamma                120
_cell_volume                     13897.2
loop_
_atom_site_label
_atom_site_type_symbol
_atom_site_fract_x
_atom_site_fract_y
_atom_site_fract_z
C1 C 0.2974(8) 0.9817(6) 0.02568(11)
C2 C 0.3360(8) 0.9317(6) 0.03437(12)
H1 H 0.3115 0.8950 0.0475
C3 C 0.4129(8) 0.9371(6) 0.02299(13)
H2 H 0.4329 0.8963 0.0275
C4 C 0.4592(7) 0.9974(5) 0.00617(12)
C5 C 0.4214(8) 1.0485(6) -0.00153(12)
H3 H 0.4492 1.0887 -0.0139
C6 C 0.3440(7) 1.0427(5) 0.00829(13)
H4 H 0.3227 1.0814 0.0030
C7 C 0.2147(8) 0.9727(6) 0.03681(13)
H5 H 0.1793 0.9118 0.0438
H6 H 0.1758 0.9794 0.0254
C8 C 0.3299(7) 1.2057(5) 0.04976(17)
H7 H 0.3399 1.2039 0.0333
H8 H 0.2922 1.2346 0.0517
C9 C 0.4207(8) 1.2680(6) 0.06025(12)
H9 H 0.4154 1.2636 0.0768
H10 H 0.4412 1.3306 0.0556
H11 H 0.4647 1.2505 0.0552
Cu1 Cu 0.10843(7) 1.03704(10) 0.073513(17)
Cu2 Cu 0.0000 1.0000 0.11179(3)
I1 I 0.12025(3) 1.17319(4) 0.098328(8)
I2 I 0.0000 1.0000 0.035719(15)
S1 S 0.25129(20) 1.06950(14) 0.06096(4)
C1R C 0.7026(8) 1.0183(6) -0.02568(11)
C1A C 0.0183(6) 1.3157(10) 0.02568(11)
C1S C -0.0183(6) 1.6843(10) -0.02568(11)
C1B C -0.3157(10) 0.7026(8) 0.02568(11)
C1T C -0.6843(10) 0.2974(8) -0.02568(11)
C2R C 0.6640(8) 1.0683(6) -0.03437(12)
C2A C 0.0683(6) 1.4043(10) 0.03437(12)
C2S C -0.0683(6) 1.5957(10) -0.03437(12)
C2B C -0.4043(10) 0.6640(8) 0.03437(12)
C2T C -0.5957(10) 0.3360(8) -0.03437(12)
H1R H 0.6885 1.1050 -0.0475
H1A H 0.1050 1.4165 0.0475
H1S H -0.1050 1.5835 -0.0475
H1B H -0.4165 0.6885 0.0475
H1T H -0.5835 0.3115 -0.0475
C3R C 0.5871(8) 1.0629(6) -0.02299(13)
C3A C 0.0629(6) 1.4758(10) 0.02299(13)
C3S C -0.0629(6) 1.5242(10) -0.02299(13)
C3B C -0.4758(10) 0.5871(8) 0.02299(13)
C3T C -0.5242(10) 0.4129(8) -0.02299(13)
H2R H 0.5671 1.1037 -0.0275
H2A H 0.1037 1.5366 0.0275
H2S H -0.1037 1.4634 -0.0275
H2B H -0.5366 0.5671 0.0275
H2T H -0.4634 0.4329 -0.0275
C4R C 0.5408(7) 1.0026(5) -0.00617(12)
C4A C 0.0026(5) 1.4618(9) 0.00617(12)
C4S C -0.0026(5) 1.5382(9) -0.00617(12)
C4B C -0.4618(9) 0.5408(7) 0.00617(12)
C4T C -0.5382(9) 0.4592(7) -0.00617(12)
C5R C 0.5786(8) 0.9515(6) 0.00153(12)
C5A C -0.0485(6) 1.3729(10) -0.00153(12)
C5S C 0.0485(6) 1.6271(10) 0.00153(12)
C5B C -0.3729(10) 0.5786(8) -0.00153(12)
C5T C -0.6271(10) 0.4214(8) 0.00153(12)
H3R H 0.5508 0.9113 0.0139
H3A H -0.0887 1.3605 -0.0139
H3S H 0.0887 1.6395 0.0139
H3B H -0.3605 0.5508 -0.0139
H3T H -0.6395 0.4492 0.0139
C6R C 0.6560(7) 0.9573(5) -0.00829(13)
C6A C -0.0427(5) 1.3013(9) 0.00829(13)
C6S C 0.0427(5) 1.6987(9) -0.00829(13)
C6B C -0.3013(9) 0.6560(7) 0.00829(13)
C6T C -0.6987(9) 0.3440(7) -0.00829(13)
H4R H 0.6773 0.9186 -0.0030
H4A H -0.0814 1.2413 0.0030
H4S H 0.0814 1.7587 -0.0030
H4B H -0.2413 0.6773 0.0030
H4T H -0.7587 0.3227 -0.0030
C7R C 0.7853(8) 1.0273(6) -0.03681(13)
C7A C 0.0273(6) 1.2420(10) 0.03681(13)
C7S C -0.0273(6) 1.7580(10) -0.03681(13)
C7B C -0.2420(10) 0.7853(8) 0.03681(13)
C7T C -0.7580(10) 0.2147(8) -0.03681(13)
H5R H 0.8207 1.0882 -0.0438
H5A H 0.0882 1.2675 0.0438
H5S H -0.0882 1.7325 -0.0438
H5B H -0.2675 0.8207 0.0438
H5T H -0.7325 0.1793 -0.0438
H6R H 0.8242 1.0206 -0.0254
H6A H 0.0206 1.1964 0.0254
H6S H -0.0206 1.8036 -0.0254
H6B H -0.1964 0.8242 0.0254
H6T H -0.8036 0.1758 -0.0254
C8R C 0.6701(7) 0.7943(5) -0.04976(17)
C8A C -0.2057(5) 1.1242(9) 0.04976(17)
C8S C 0.2057(5) 1.8758(9) -0.04976(17)
C8B C -0.1242(9) 0.6701(7) 0.04976(17)
C8T C -0.8758(9) 0.3299(7) -0.04976(17)
H7R H 0.6601 0.7961 -0.0333
H7A H -0.2039 1.1360 0.0333
H7S H 0.2039 1.8640 -0.0333
H7B H -0.1360 0.6601 0.0333
H7T H -0.8640 0.3399 -0.0333
H8R H 0.7078 0.7654 -0.0517
H8A H -0.2346 1.0576 0.0517
H8S H 0.2346 1.9424 -0.0517
H8B H -0.0576 0.7078 0.0517
H8T H -0.9424 0.2922 -0.0517
C9R C 0.5793(8) 0.7320(6) -0.06025(12)
C9A C -0.2680(6) 1.1527(10) 0.06025(12)
C9S C 0.2680(6) 1.8473(10) -0.06025(12)
C9B C -0.1527(10) 0.5793(8) 0.06025(12)
C9T C -0.8473(10) 0.4207(8) -0.06025(12)
H9R H 0.5846 0.7364 -0.0768
H9A H -0.2636 1.1518 0.0768
H9S H 0.2636 1.8482 -0.0768
H9B H -0.1518 0.5846 0.0768
H9T H -0.8482 0.4154 -0.0768
H10R H 0.5588 0.6694 -0.0556
H10A H -0.3306 1.1106 0.0556
H10S H 0.3306 1.8894 -0.0556
H10B H -0.1106 0.5588 0.0556
H10T H -0.8894 0.4412 -0.0556
H11R H 0.5353 0.7495 -0.0552
H11A H -0.2505 1.2142 0.0552
H11S H 0.2505 1.7858 -0.0552
H11B H -0.2142 0.5353 0.0552
H11T H -0.7858 0.4647 -0.0552
Cu1A Cu -0.03704(10) 1.07139(12) 0.073513(17)
Cu1B Cu -0.07139(12) 0.89157(7) 0.073513(17)
Cu1R Cu 0.89157(7) 0.96296(10) -0.073513(17)
Cu1S Cu 0.03704(10) 1.92861(12) -0.073513(17)
Cu1T Cu -0.92861(12) 0.10843(7) -0.073513(17)
Cu1S_2 Cu 1.03704(10) 0.92861(12) -0.073513(17)
Cu1T_2 Cu 1.07139(12) 1.10843(7) -0.073513(17)
Cu1T_3 Cu 0.07139(12) 2.10843(7) -0.073513(17)
Cu2R Cu 1.0000 1.0000 -0.11179(3)
Cu2R_2 Cu 0.0000 2.0000 -0.11179(3)
I1A I -0.17319(4) 0.94706(5) 0.098328(8)
I1B I 0.05294(5) 0.87975(3) 0.098328(8)
I1R I 0.87975(3) 0.82681(4) -0.098328(8)
I1T I 0.94706(5) 1.12025(3) -0.098328(8)
I1S I 0.17319(4) 2.05294(5) -0.098328(8)
I1R_2 I -0.12025(3) 1.82681(4) -0.098328(8)
I1T_2 I -1.05294(5) 0.12025(3) -0.098328(8)
I1S_2 I -0.82681(4) 0.05294(5) -0.098328(8)
I1S_3 I 1.17319(4) 1.05294(5) -0.098328(8)
I2R I 1.0000 1.0000 -0.035719(15)
I2R_2 I 0.0000 2.0000 -0.035719(15)
I2R_3 I -1.0000 0.0000 -0.035719(15)
S1R S 0.74871(20) 0.93050(14) -0.06096(4)
S1A S -0.06950(14) 1.18179(24) 0.06096(4)
S1S S 0.06950(14) 1.81821(24) -0.06096(4)
S1B S -0.18179(24) 0.74871(20) 0.06096(4)
S1T S -0.81821(24) 0.25129(20) -0.06096(4)
O1 O 0.0000 1.0000 0.14978(15)
H12? H 0.0187 0.9641 0.1547
loop_
_geom_bond_atom_site_label_1
_geom_bond_atom_site_label_2
_geom_bond_site_symmetry_1
_geom_bond_site_symmetry_2
C1 C2 1_555 1_555
C2 H1 1_555 1_555
C3 C2 1_555 1_555
H2 C3 1_555 1_555
C4 C3 1_555 1_555
C5 C4 1_555 1_555
H3 C5 1_555 1_555
C6 C1 1_555 1_555
H4 C6 1_555 1_555
C7 C1 1_555 1_555
H5 C7 1_555 1_555
H6 C7 1_555 1_555
C8 H7 1_555 1_555
H8 C8 1_555 1_555
C9 C8 1_555 1_555
H9 C9 1_555 1_555
H10 C9 1_555 1_555
H11 C9 1_555 1_555
Cu1 I1 1_555 1_555
Cu2 I1 1_555 1_555
I1 Cu1A 1_555 1_555
I2 Cu1 1_555 1_555
S1 C7 1_555 1_555
C1R C2R 1_555 1_555
C1A C2A 1_555 1_555
C1S C2S 1_555 1_555
C1B C2B 1_555 1_555
C1T C2T 1_555 1_555
C2R H1R 1_555 1_555
C2A H1A 1_555 1_555
C2S H1S 1_555 1_555
C2B H1B 1_555 1_555
C2T H1T 1_555 1_555
C3R C2R 1_555 1_555
C3A C2A 1_555 1_555
C3S C2S 1_555 1_555
C3B C2B 1_555 1_555
C3T C2T 1_555 1_555
H2R C3R 1_555 1_555
H2A C3A 1_555 1_555
H2S C3S 1_555 1_555
H2B C3B 1_555 1_555
H2T C3T 1_555 1_555
C4R C4 1_555 1_555
C4A C3A 1_555 1_555
C4S C3S 1_555 1_555
C4B C3B 1_555 1_555
C4T C3T 1_555 1_555
C5R C4R 1_555 1_555
C5A C4A 1_555 1_555
C5S C4S 1_555 1_555
C5B C4B 1_555 1_555
C5T C4T 1_555 1_555
H3R C5R 1_555 1_555
H3A C5A 1_555 1_555
H3S C5S 1_555 1_555
H3B C5B 1_555 1_555
H3T C5T 1_555 1_555
C6R C1R 1_555 1_555
C6A C1A 1_555 1_555
C6S C1S 1_555 1_555
C6B C1B 1_555 1_555
C6T C1T 1_555 1_555
H4R C6R 1_555 1_555
H4A C6A 1_555 1_555
H4S C6S 1_555 1_555
H4B C6B 1_555 1_555
H4T C6T 1_555 1_555
C7R C1R 1_555 1_555
C7A C1A 1_555 1_555
C7S C1S 1_555 1_555
C7B C1B 1_555 1_555
C7T C1T 1_555 1_555
H5R C7R 1_555 1_555
H5A C7A 1_555 1_555
H5S C7S 1_555 1_555
H5B C7B 1_555 1_555
H5T C7T 1_555 1_555
H6R C7R 1_555 1_555
H6A C7A 1_555 1_555
H6S C7S 1_555 1_555
H6B C7B 1_555 1_555
H6T C7T 1_555 1_555
C8R H7R 1_555 1_555
C8A H7A 1_555 1_555
C8S H7S 1_555 1_555
C8B H7B 1_555 1_555
C8T H7T 1_555 1_555
H8R C8R 1_555 1_555
H8A C8A 1_555 1_555
H8S C8S 1_555 1_555
H8B C8B 1_555 1_555
H8T C8T 1_555 1_555
C9R C8R 1_555 1_555
C9A C8A 1_555 1_555
C9S C8S 1_555 1_555
C9B C8B 1_555 1_555
C9T C8T 1_555 1_555
H9R C9R 1_555 1_555
H9A C9A 1_555 1_555
H9S C9S 1_555 1_555
H9B C9B 1_555 1_555
H9T C9T 1_555 1_555
H10R C9R 1_555 1_555
H10A C9A 1_555 1_555
H10S C9S 1_555 1_555
H10B C9B 1_555 1_555
H10T C9T 1_555 1_555
H11R C9R 1_555 1_555
H11A C9A 1_555 1_555
H11S C9S 1_555 1_555
H11B C9B 1_555 1_555
H11T C9T 1_555 1_555
Cu1A I2 1_555 1_555
Cu1B I2 1_555 1_555
Cu1R I1R 1_555 1_555
Cu1S I1S 1_555 1_555
Cu1T I1T_2 1_555 1_555
Cu1S_2 I1R 1_555 1_555
Cu1T_2 I1T 1_555 1_555
Cu1T_3 I1S 1_555 1_555
Cu2R I1R 1_555 1_555
Cu2R_2 I1S 1_555 1_555
I1A Cu2 1_555 1_555
I1B Cu1 1_555 1_555
I1T Cu1R 1_555 1_555
I1R_2 Cu1S 1_555 1_555
I1S_2 Cu1T 1_555 1_555
I1S_3 Cu1S_2 1_555 1_555
I2R Cu1R 1_555 1_555
I2R_2 Cu1S 1_555 1_555
I2R_3 Cu1T 1_555 1_555
S1R C7R 1_555 1_555
S1A C7A 1_555 1_555
S1S C7S 1_555 1_555
S1B C7B 1_555 1_555
S1T C7T 1_555 1_555
C5 C6 1_555 1_555
C8 S1 1_555 1_555
Cu1 S1 1_555 1_555
Cu2 I1B 1_555 1_555
C3R C4R 1_555 1_555
C4A C4S 1_555 1_555
C4B C4T 1_555 1_555
C5R C6R 1_555 1_555
C5A C6A 1_555 1_555
C5S C6S 1_555 1_555
C5B C6B 1_555 1_555
C5T C6T 1_555 1_555
C8R S1R 1_555 1_555
C8A S1A 1_555 1_555
C8S S1S 1_555 1_555
C8B S1B 1_555 1_555
C8T S1T 1_555 1_555
Cu1A I1A 1_555 1_555
Cu1A S1A 1_555 1_555
Cu1B I1A 1_555 1_555
Cu1B I1B 1_555 1_555
Cu1B S1B 1_555 1_555
Cu1R S1R 1_555 1_555
Cu1S S1S 1_555 1_555
Cu1T S1T 1_555 1_555
Cu1S_2 I2R 1_555 1_555
Cu1T_2 I1S_3 1_555 1_555
Cu1T_2 I2R 1_555 1_555
Cu1T_3 I2R_2 1_555 1_555
Cu2R I1T 1_555 1_555
Cu2R I1S_3 1_555 1_555
Cu2R_2 I1R_2 1_555 1_555

#END
