
#######################################################################
#
#                 Cambridge Crystallographic Data Centre
#                                CCDC 
#
#######################################################################
#
# If this CIF has been generated from an entry in the Cambridge 
# Structural Database, then it will include bibliographic, chemical, 
# crystal, experimental, refinement or atomic coordinate data resulting 
# from the CCDC's data processing and validation procedures.
#
#######################################################################

data_TANJAV
_symmetry_cell_setting           monoclinic
_symmetry_space_group_name_H-M   'C 2/c'
_symmetry_Int_Tables_number      15
_space_group_name_Hall           '-C 2yn'
loop_
_symmetry_equiv_pos_site_id
_symmetry_equiv_pos_as_xyz
1 x,y,z
2 -x,y,1/2-z
3 1/2+x,1/2+y,z
4 1/2-x,1/2+y,1/2-z
5 -x,-y,-z
6 x,-y,1/2+z
7 1/2-x,1/2-y,-z
8 1/2+x,1/2-y,1/2+z
_cell_length_a                   24.998(6)
_cell_length_b                   8.734(2)
_cell_length_c                   22.402(6)
_cell_angle_alpha                90
_cell_angle_beta                 101.507(2)
_cell_angle_gamma                90
_cell_volume                     4792.78
loop_
_atom_site_label
_atom_site_type_symbol
_atom_site_fract_x
_atom_site_fract_y
_atom_site_fract_z
C1 C 0.1576(2) 1.0489(6) 0.2142(2)
C2 C 0.1520(2) 0.9287(6) 0.2532(2)
H1 H 0.1214 0.8660 0.2442
C3 C 0.1913(2) 0.9003(6) 0.3051(2)
H2 H 0.1865 0.8195 0.3306
C4 C 0.2385(2) 0.9934(6) 0.3198(2)
C5 C 0.2430(2) 1.1121(7) 0.2801(2)
H3 H 0.2737 1.1746 0.2880
C6 C 0.2022(2) 1.1405(7) 0.2281(2)
H4 H 0.2059 1.2230 0.2030
C7 C 0.27975(19) 0.9677(5) 0.3756(2)
C8 C 0.2652(2) 0.9173(6) 0.4286(2)
H5 H 0.2286 0.9017 0.4297
C9 C 0.3052(2) 0.8900(6) 0.4802(2)
H6 H 0.2947 0.8546 0.5153
C10 C 0.3606(2) 0.9137(6) 0.4811(3)
C11 C 0.3743(2) 0.9638(6) 0.4269(3)
H7 H 0.4108 0.9802 0.4254
C12 C 0.3353(2) 0.9890(6) 0.3762(2)
H8 H 0.3458 1.0214 0.3407
C13 C 0.4035(2) 0.8823(6) 0.5360(3)
H9 H 0.4389 0.9104 0.5278
H10 H 0.3969 0.9448 0.5696
C14 C 0.4465(2) 0.6698(7) 0.6302(3)
H11 H 0.4556 0.5631 0.6392
H12 H 0.4262 0.7060 0.6601
C15 C 0.4992(3) 0.7610(7) 0.6371(3)
H13 H 0.4918 0.8670 0.6435
H14 H 0.5251 0.7231 0.6714
H15 H 0.5138 0.7506 0.6009
C16 C 0.1142(2) 1.0791(6) 0.1583(2)
H16 H 0.0787 1.0737 0.1693
H17 H 0.1189 1.1822 0.1440
C17 C 0.1850(2) 0.9748(7) 0.0840(3)
H18 H 0.2116 0.9560 0.1211
H19 H 0.1893 1.0790 0.0709
C18 C 0.1927(2) 0.8605(7) 0.0340(3)
H20 H 0.1582 0.8418 0.0074
H21 H 0.2178 0.9024 0.0110
H22 H 0.2070 0.7660 0.0525
Cu1 Cu 0.44430(3) 0.54415(7) 0.48885(3)
I1 I 0.518810(13) 0.71133(4) 0.450760(16)
S1 S 0.40451(6) 0.68158(15) 0.55773(6)
S2 S 0.11619(6) 0.94481(17) 0.09676(6)
C1C C 0.3424(2) 0.5489(6) 0.2858(2)
C2C C 0.3480(2) 0.4287(6) 0.2468(2)
H1C H 0.3786 0.3660 0.2558
C3C C 0.3087(2) 0.4003(6) 0.1949(2)
H2C H 0.3135 0.3195 0.1694
C4C C 0.2615(2) 0.4934(6) 0.1802(2)
C5C C 0.2570(2) 0.6121(7) 0.2199(2)
H3C H 0.2263 0.6746 0.2120
C6C C 0.2978(2) 0.6405(7) 0.2719(2)
H4C H 0.2941 0.7230 0.2970
C7C C 0.22025(19) 0.4677(5) 0.1244(2)
C8C C 0.2348(2) 0.4173(6) 0.0714(2)
H5C H 0.2714 0.4017 0.0703
C9C C 0.1948(2) 0.3900(6) 0.0198(2)
H6C H 0.2053 0.3546 -0.0153
C10C C 0.1394(2) 0.4137(6) 0.0189(3)
C11C C 0.1257(2) 0.4638(6) 0.0731(3)
H7C H 0.0892 0.4802 0.0746
C12C C 0.1647(2) 0.4890(6) 0.1238(2)
H8C H 0.1542 0.5214 0.1593
C13C C 0.0965(2) 0.3823(6) -0.0360(3)
H9C H 0.0611 0.4104 -0.0278
H10C H 0.1031 0.4448 -0.0696
C14C C 0.0535(2) 0.1698(7) -0.1302(3)
H11C H 0.0444 0.0631 -0.1392
H12C H 0.0738 0.2060 -0.1601
C15C C 0.0008(3) 0.2610(7) -0.1371(3)
H13C H 0.0082 0.3670 -0.1435
H14C H -0.0251 0.2231 -0.1714
H15C H -0.0138 0.2506 -0.1009
C16C C 0.3858(2) 0.5791(6) 0.3417(2)
H16C H 0.4213 0.5737 0.3307
H17C H 0.3811 0.6822 0.3560
C17C C 0.3150(2) 0.4748(7) 0.4160(3)
H18C H 0.2884 0.4560 0.3789
H19C H 0.3107 0.5790 0.4291
C18C C 0.3073(2) 0.3605(7) 0.4660(3)
H20C H 0.3418 0.3418 0.4926
H21C H 0.2822 0.4024 0.4890
H22C H 0.2930 0.2660 0.4475
Cu1D Cu 0.55570(3) 0.45585(7) 0.51115(3)
Cu1C Cu 0.05570(3) 1.04415(7) 0.01115(3)
Cu1C_2 Cu 0.05570(3) 0.04415(7) 0.01115(3)
I1D I 0.481190(13) 0.28867(4) 0.549240(16)
S1C S 0.09549(6) 0.18158(15) -0.05773(6)
S1D S 0.59549(6) 0.31842(15) 0.44227(6)
S2C S 0.38381(6) 0.44481(17) 0.40324(6)
S2G S 0.61619(6) 0.55519(17) 0.59676(6)
C19 C 0.5000 0.2996(14) 0.7500
C20 C 0.5000 0.1349(11) 0.7500
N1 N 0.5000 0.4288(9) 0.7500
O1 O 0.6456(3) 0.9171(9) 0.3289(3)
H26 H 0.6120 0.8983 0.3157
H27 H 0.6493 1.0089 0.3417
H23? H 0.4633 0.0983 0.7462
H24? H 0.5218 0.0983 0.7875
H25? H 0.5149 0.0983 0.7164
loop_
_geom_bond_atom_site_label_1
_geom_bond_atom_site_label_2
_geom_bond_site_symmetry_1
_geom_bond_site_symmetry_2
C1 C2 1_555 1_555
C2 H1 1_555 1_555
C3 C2 1_555 1_555
H2 C3 1_555 1_555
C4 C3 1_555 1_555
C5 C4 1_555 1_555
H3 C5 1_555 1_555
C6 C1 1_555 1_555
H4 C6 1_555 1_555
C7 C4 1_555 1_555
C8 C7 1_555 1_555
H5 C8 1_555 1_555
C9 C8 1_555 1_555
H6 C9 1_555 1_555
C10 C9 1_555 1_555
C11 C10 1_555 1_555
H7 C11 1_555 1_555
C12 C7 1_555 1_555
H8 C12 1_555 1_555
C13 C10 1_555 1_555
H9 C13 1_555 1_555
H10 C13 1_555 1_555
C14 H11 1_555 1_555
H12 C14 1_555 1_555
C15 C14 1_555 1_555
H13 C15 1_555 1_555
H14 C15 1_555 1_555
H15 C15 1_555 1_555
C16 C1 1_555 1_555
H16 C16 1_555 1_555
H17 C16 1_555 1_555
C17 H18 1_555 1_555
H19 C17 1_555 1_555
C18 C17 1_555 1_555
H20 C18 1_555 1_555
H21 C18 1_555 1_555
H22 C18 1_555 1_555
C19 C20 1_555 1_555
Cu1 I1 1_555 1_555
I1 Cu1D 1_555 1_555
N1 C19 1_555 1_555
O1 H26 1_555 1_555
H27 O1 1_555 1_555
S1 C13 1_555 1_555
S2 C16 1_555 1_555
C1C C2C 1_555 1_555
C2C H1C 1_555 1_555
C3C C2C 1_555 1_555
H2C C3C 1_555 1_555
C4C C3C 1_555 1_555
C5C C4C 1_555 1_555
H3C C5C 1_555 1_555
C6C C1C 1_555 1_555
H4C C6C 1_555 1_555
C7C C4C 1_555 1_555
C8C C7C 1_555 1_555
H5C C8C 1_555 1_555
C9C C8C 1_555 1_555
H6C C9C 1_555 1_555
C10C C9C 1_555 1_555
C11C C10C 1_555 1_555
H7C C11C 1_555 1_555
C12C C7C 1_555 1_555
H8C C12C 1_555 1_555
C13C C10C 1_555 1_555
H9C C13C 1_555 1_555
H10C C13C 1_555 1_555
C14C H11C 1_555 1_555
H12C C14C 1_555 1_555
C15C C14C 1_555 1_555
H13C C15C 1_555 1_555
H14C C15C 1_555 1_555
H15C C15C 1_555 1_555
C16C C1C 1_555 1_555
H16C C16C 1_555 1_555
H17C C16C 1_555 1_555
C17C H18C 1_555 1_555
H19C C17C 1_555 1_555
C18C C17C 1_555 1_555
H20C C18C 1_555 1_555
H21C C18C 1_555 1_555
H22C C18C 1_555 1_555
Cu1D I1D 1_555 1_555
Cu1C S2 1_555 1_555
Cu1C_2 S1C 1_555 1_555
I1D Cu1 1_555 1_555
S1C C13C 1_555 1_555
S1D Cu1D 1_555 1_555
S2C Cu1 1_555 1_555
S2G Cu1D 1_555 1_555
C5 C6 1_555 1_555
C11 C12 1_555 1_555
C14 S1 1_555 1_555
C17 S2 1_555 1_555
Cu1 S1 1_555 1_555
C5C C6C 1_555 1_555
C11C C12C 1_555 1_555
C14C S1C 1_555 1_555
C16C S2C 1_555 1_555
C17C S2C 1_555 1_555

#END
