
#######################################################################
#
#                 Cambridge Crystallographic Data Centre
#                                CCDC 
#
#######################################################################
#
# If this CIF has been generated from an entry in the Cambridge 
# Structural Database, then it will include bibliographic, chemical, 
# crystal, experimental, refinement or atomic coordinate data resulting 
# from the CCDC's data processing and validation procedures.
#
#######################################################################

data_TANJOJ
_symmetry_cell_setting           orthorhombic
_symmetry_space_group_name_H-M   'P b c a'
_symmetry_Int_Tables_number      61
_space_group_name_Hall           '-P 2ac 2ab'
loop_
_symmetry_equiv_pos_site_id
_symmetry_equiv_pos_as_xyz
1 x,y,z
2 1/2-x,-y,1/2+z
3 -x,1/2+y,1/2-z
4 1/2+x,1/2-y,-z
5 -x,-y,-z
6 1/2+x,y,1/2-z
7 x,1/2-y,1/2+z
8 1/2-x,1/2+y,z
_cell_length_a                   14.8878(6)
_cell_length_b                   15.1363(6)
_cell_length_c                   23.6357(9)
_cell_angle_alpha                90
_cell_angle_beta                 90
_cell_angle_gamma                90
_cell_volume                     5326.22
loop_
_atom_site_label
_atom_site_type_symbol
_atom_site_fract_x
_atom_site_fract_y
_atom_site_fract_z
I1 I 0.46398(2) 0.08676(2) 0.553037(14)
I2 I 0.65808(2) 0.19380(3) 0.671254(17)
I3 I 0.36246(3) 0.21592(3) 0.710112(17)
I4 I 0.48062(3) 0.37845(3) 0.574044(19)
Cu1 Cu 0.51056(6) 0.30153(5) 0.67269(3)
Cu2 Cu 0.49747(5) 0.11583(5) 0.66373(3)
Cu3 Cu 0.57692(5) 0.22942(5) 0.57342(3)
Cu4 Cu 0.38434(6) 0.21929(6) 0.59817(4)
N1 N 0.6585(3) 0.2303(3) 0.5049(2)
N2 N 0.5156(3) 0.4933(3) 0.80272(18)
N3 N 0.5312(3) 0.3830(3) 0.7394(2)
N4 N 0.7661(3) 0.2567(3) 0.4399(2)
C1 C 0.5649(4) 0.4267(4) 0.8258(3)
H1 H 0.5884 0.4266 0.8623
N5 N 0.7483(3) 0.4315(3) 0.5274(2)
N6 N 0.8299(3) 0.3345(4) 0.5676(2)
N7 N 0.3663(5) 0.5301(5) 0.7034(3)
C2 C 0.7684(3) 0.3460(4) 0.5274(2)
N8 N 0.4937(5) 0.5681(4) 0.6680(3)
C3 C 0.4494(5) 0.5162(4) 0.7089(3)
C4 C 0.7981(5) 0.4746(5) 0.5666(3)
H2 H 0.7972 0.5348 0.5743
C5 C 0.4968(4) 0.4628(4) 0.7505(2)
C6 C 0.7309(3) 0.2770(3) 0.4906(2)
C7 C 0.6456(4) 0.1763(4) 0.4593(3)
H3 H 0.5997 0.1350 0.4557
C8 C 0.5748(4) 0.3605(4) 0.7877(3)
H4 H 0.6063 0.3082 0.7937
C9 C 0.7099(4) 0.1921(4) 0.4201(3)
H5 H 0.7151 0.1637 0.3854
C10 C 0.3463(6) 0.5870(5) 0.6610(3)
H6 H 0.2897 0.6059 0.6496
C11 C 0.8484(5) 0.4141(6) 0.5921(3)
H7 H 0.8890 0.4242 0.6213
C12 C 0.3000(5) 0.4836(6) 0.7363(4)
H8 H 0.3139 0.4217 0.7366
H9 H 0.2417 0.4924 0.7199
H10 H 0.3003 0.5057 0.7744
C13 C 0.6877(5) 0.4745(5) 0.4882(3)
H11 H 0.7197 0.4898 0.4543
H12 H 0.6640 0.5271 0.5052
H13 H 0.6393 0.4352 0.4790
C14 C 0.8759(6) 0.2515(6) 0.5790(4)
H14 H 0.8326 0.2071 0.5888
H15 H 0.9171 0.2594 0.6099
H16 H 0.9083 0.2333 0.5459
C15 C 0.4293(8) 0.6111(6) 0.6382(4)
H17 H 0.4386 0.6496 0.6081
C16 C 0.5903(7) 0.5652(7) 0.6564(4)
H18 H 0.6010 0.5815 0.6178
H19 H 0.6123 0.5065 0.6629
H20 H 0.6208 0.6058 0.6810
Cu2B Cu 0.50253(5) 0.61583(5) 0.83627(3)
Cu4C Cu 0.88434(6) 0.28071(6) 0.40183(4)
N2B N 0.4844(3) -0.0067(3) 0.69728(18)
N4C N 0.2661(3) 0.2433(3) 0.5601(2)
loop_
_geom_bond_atom_site_label_1
_geom_bond_atom_site_label_2
_geom_bond_site_symmetry_1
_geom_bond_site_symmetry_2
I1 Cu2 1_555 1_555
I2 Cu1 1_555 1_555
I3 Cu1 1_555 1_555
I4 Cu1 1_555 1_555
Cu1 Cu2 1_555 1_555
Cu2 I2 1_555 1_555
Cu3 I1 1_555 1_555
Cu4 I1 1_555 1_555
N1 Cu3 1_555 1_555
N2 C1 1_555 1_555
N3 Cu1 1_555 1_555
N4 C6 1_555 1_555
C1 H1 1_555 1_555
N5 C2 1_555 1_555
N6 C2 1_555 1_555
N7 C3 1_555 1_555
C2 C6 1_555 1_555
N8 C3 1_555 1_555
C3 C5 1_555 1_555
C4 N5 1_555 1_555
H2 C4 1_555 1_555
C5 N2 1_555 1_555
C6 N1 1_555 1_555
C7 N1 1_555 1_555
H3 C7 1_555 1_555
C8 N3 1_555 1_555
H4 C8 1_555 1_555
C9 N4 1_555 1_555
H5 C9 1_555 1_555
C10 N7 1_555 1_555
H6 C10 1_555 1_555
C11 N6 1_555 1_555
H7 C11 1_555 1_555
C12 N7 1_555 1_555
H8 C12 1_555 1_555
H9 C12 1_555 1_555
H10 C12 1_555 1_555
C13 N5 1_555 1_555
H11 C13 1_555 1_555
H12 C13 1_555 1_555
H13 C13 1_555 1_555
C14 N6 1_555 1_555
H14 C14 1_555 1_555
H15 C14 1_555 1_555
H16 C14 1_555 1_555
C15 N8 1_555 1_555
H17 C15 1_555 1_555
C16 N8 1_555 1_555
H18 C16 1_555 1_555
H19 C16 1_555 1_555
H20 C16 1_555 1_555
Cu2B N2 1_555 1_555
Cu4C N4 1_555 1_555
N2B Cu2 1_555 1_555
N4C Cu4 1_555 1_555
I2 Cu3 1_555 1_555
I3 Cu2 1_555 1_555
I3 Cu4 1_555 1_555
I4 Cu3 1_555 1_555
I4 Cu4 1_555 1_555
Cu1 Cu3 1_555 1_555
Cu1 Cu4 1_555 1_555
Cu2 Cu3 1_555 1_555
Cu2 Cu4 1_555 1_555
Cu3 Cu4 1_555 1_555
N3 C5 1_555 1_555
C1 C8 1_555 1_555
C4 C11 1_555 1_555
C7 C9 1_555 1_555
C10 C15 1_555 1_555

#END
