
#######################################################################
#
#                 Cambridge Crystallographic Data Centre
#                                CCDC 
#
#######################################################################
#
# If this CIF has been generated from an entry in the Cambridge 
# Structural Database, then it will include bibliographic, chemical, 
# crystal, experimental, refinement or atomic coordinate data resulting 
# from the CCDC's data processing and validation procedures.
#
#######################################################################

data_TANJUP
_symmetry_cell_setting           monoclinic
_symmetry_space_group_name_H-M   'C 2/c'
_symmetry_Int_Tables_number      15
_space_group_name_Hall           '-C 2yn'
loop_
_symmetry_equiv_pos_site_id
_symmetry_equiv_pos_as_xyz
1 x,y,z
2 -x,y,1/2-z
3 1/2+x,1/2+y,z
4 1/2-x,1/2+y,1/2-z
5 -x,-y,-z
6 x,-y,1/2+z
7 1/2-x,1/2-y,-z
8 1/2+x,1/2-y,1/2+z
_cell_length_a                   26.982(8)
_cell_length_b                   7.503(2)
_cell_length_c                   15.853(4)
_cell_angle_alpha                90
_cell_angle_beta                 109.316(7)
_cell_angle_gamma                90
_cell_volume                     3028.72
loop_
_atom_site_label
_atom_site_type_symbol
_atom_site_fract_x
_atom_site_fract_y
_atom_site_fract_z
Cu1 Cu 0.752361(12) 0.62636(4) 0.915930(19)
Cu2 Cu 0.638623(12) 0.73928(4) 0.921689(19)
Cu3 Cu 0.5000 0.98142(6) 0.7500
O1 O 0.63634(8) 0.7469(3) 0.79597(12)
O2 O 0.71180(7) 0.6329(3) 0.78715(12)
O3 O 0.54357(8) 0.9763(3) 0.67504(12)
O4 O 0.53015(8) 0.6810(3) 0.67329(14)
O5 O 0.56381(7) 1.0048(2) 0.35662(12)
O6 O 0.58037(8) 0.7298(2) 0.31604(12)
O7 O 0.70273(8) 0.7820(2) 0.40375(13)
O8 O 0.69865(7) 0.5019(2) 0.45135(12)
O9 O 0.79536(7) 0.6347(2) 1.04057(11)
H1 H 0.7961 0.5315 1.0631
O10 O 0.57350(7) 0.5926(2) 0.88356(12)
H2 H 0.5790 0.4917 0.8640
H3 H 0.5467 0.6501 0.8519
N1 N 0.86177(9) 0.7534(3) 0.95145(15)
N2 N 0.81543(9) 0.7004(3) 0.88529(14)
N3 N 0.87300(10) 0.7626(3) 0.82063(16)
H4 H 0.8872 0.7771 0.7799
N4 N 0.94542(11) 0.8498(4) 0.94544(19)
H5 H 0.9586 0.8667 1.0022
H6 H 0.9640 0.8704 0.9117
C1 C 0.82370(12) 0.7068(4) 0.80825(18)
H7 H 0.7991 0.6772 0.7533
C2 C 0.89606(11) 0.7917(4) 0.90967(18)
C3 C 0.64462(10) 0.7235(3) 0.65350(16)
C4 C 0.59403(10) 0.7952(3) 0.61362(17)
C5 C 0.57712(10) 0.8423(3) 0.52410(17)
H8 H 0.5447 0.8977 0.4992
C6 C 0.60826(10) 0.8074(3) 0.47069(16)
C7 C 0.65671(10) 0.7226(3) 0.50773(16)
C8 C 0.67528(10) 0.6854(3) 0.59921(16)
H9 H 0.7084 0.6348 0.6245
C9 C 0.66607(10) 0.6970(3) 0.75375(17)
C10 C 0.55374(10) 0.8161(4) 0.65997(16)
C11 C 0.58367(10) 0.8498(3) 0.37323(16)
C12 C 0.68902(9) 0.6695(3) 0.44878(16)
Cu1E Cu 0.752361(12) 0.37364(4) 0.415930(19)
Cu1F Cu 0.747639(12) 0.87364(4) 1.084070(19)
Cu1A Cu 0.247639(12) 0.62636(4) 0.584070(19)
Cu1D Cu 0.247639(12) 0.37364(4) 1.084070(19)
Cu2E Cu 0.638623(12) 0.26072(4) 0.421689(19)
Cu2F Cu 0.861377(12) 0.76072(4) 1.078311(19)
Cu2A Cu 0.361377(12) 0.73928(4) 0.578311(19)
Cu2D Cu 0.361377(12) 0.26072(4) 1.078311(19)
Cu3D Cu 0.5000 1.01858(6) 0.2500
Cu3D_2 Cu 0.5000 1.01858(6) 1.2500
O1A O 0.36366(8) 0.7469(3) 0.70403(12)
O2A O 0.28820(7) 0.6329(3) 0.71285(12)
O3A O 0.45643(8) 0.9763(3) 0.82496(12)
O4A O 0.46985(8) 0.6810(3) 0.82671(14)
O5D O 0.43619(7) 0.9952(2) 0.64338(12)
O5E O 0.56381(7) 0.9952(2) 0.85662(12)
O5A O 0.43619(7) 1.0048(2) 1.14338(12)
O6A O 0.41963(8) 0.7298(2) 1.18396(12)
O7A O 0.29727(8) 0.7820(2) 1.09625(13)
O8E O 0.69865(7) 0.4981(2) 0.95135(12)
O8A O 0.30135(7) 0.5019(2) 1.04865(12)
O8D O 0.30135(7) 0.4981(2) 0.54865(12)
O9F O 0.70464(7) 0.8653(2) 0.95943(11)
O9G O 0.29536(7) 0.8653(2) 0.54057(11)
O9A O 0.20464(7) 0.6347(2) 0.45943(11)
H1F H 0.7039 0.9685 0.9369
H1G H 0.2961 0.9685 0.5631
H1A H 0.2039 0.5315 0.4369
O10A O 0.42650(7) 0.5926(2) 0.61644(12)
H2A H 0.4210 0.4917 0.6360
H3A H 0.4533 0.6501 0.6481
N1F N 0.63823(9) 0.7466(3) 1.04855(15)
N1G N 0.36177(9) 0.7466(3) 0.45145(15)
N2F N 0.68457(9) 0.7996(3) 1.11471(14)
N2A N 0.18457(9) 0.7004(3) 0.61471(14)
N3F N 0.62700(10) 0.7374(3) 1.17937(16)
H4F H 0.6128 0.7229 1.2201
N4F N 0.55458(11) 0.6502(4) 1.05456(19)
H5F H 0.5414 0.6333 0.9978
H6F H 0.5360 0.6296 1.0883
C1F C 0.67630(12) 0.7932(4) 1.19175(18)
H7F H 0.7009 0.8228 1.2467
C2F C 0.60394(11) 0.7083(4) 1.09033(18)
C3A C 0.35538(10) 0.7235(3) 0.84650(16)
C4A C 0.40597(10) 0.7952(3) 0.88638(17)
C5A C 0.42288(10) 0.8423(3) 0.97590(17)
H8A H 0.4553 0.8977 1.0008
C6A C 0.39174(10) 0.8074(3) 1.02931(16)
C7A C 0.34329(10) 0.7226(3) 0.99227(16)
C8A C 0.32472(10) 0.6854(3) 0.90079(16)
H9A H 0.2916 0.6348 0.8755
C9A C 0.33393(10) 0.6970(3) 0.74625(17)
C10A C 0.44626(10) 0.8161(4) 0.84003(16)
C11A C 0.41633(10) 0.8498(3) 1.12677(16)
C12A C 0.31098(9) 0.6695(3) 1.05122(16)
loop_
_geom_bond_atom_site_label_1
_geom_bond_atom_site_label_2
_geom_bond_site_symmetry_1
_geom_bond_site_symmetry_2
Cu1 O2 1_555 1_555
Cu2 O1 1_555 1_555
Cu3 O3 1_555 1_555
O1 C9 1_555 1_555
O2 C9 1_555 1_555
O3 C10 1_555 1_555
O4 C10 1_555 1_555
O5 C11 1_555 1_555
O6 C11 1_555 1_555
O7 C12 1_555 1_555
O8 C12 1_555 1_555
O9 Cu1 1_555 1_555
H1 O9 1_555 1_555
O10 Cu2 1_555 1_555
H2 O10 1_555 1_555
H3 O10 1_555 1_555
N1 N2 1_555 1_555
N2 Cu1 1_555 1_555
N3 H4 1_555 1_555
N4 H5 1_555 1_555
H6 N4 1_555 1_555
C1 N2 1_555 1_555
H7 C1 1_555 1_555
C2 N1 1_555 1_555
C3 C4 1_555 1_555
C4 C5 1_555 1_555
C5 H8 1_555 1_555
C6 C5 1_555 1_555
C7 C6 1_555 1_555
C8 C3 1_555 1_555
H9 C8 1_555 1_555
C9 C3 1_555 1_555
C10 C4 1_555 1_555
C11 C6 1_555 1_555
C12 C7 1_555 1_555
Cu1E O8 1_555 1_555
Cu1F O9 1_555 1_555
Cu1A O2A 1_555 1_555
Cu1D O8A 1_555 1_555
Cu2E O8 1_555 1_555
Cu2F O9 1_555 1_555
Cu2A O1A 1_555 1_555
Cu2D O8A 1_555 1_555
Cu3D O5 1_555 1_555
Cu3D_2 O5A 1_555 1_555
O1A C9A 1_555 1_555
O2A C9A 1_555 1_555
O3A Cu3 1_555 1_555
O4A C10A 1_555 1_555
O5D Cu3 1_555 1_555
O5E Cu3 1_555 1_555
O5A C11A 1_555 1_555
O6A C11A 1_555 1_555
O7A C12A 1_555 1_555
O8E Cu1 1_555 1_555
O8A C12A 1_555 1_555
O8D Cu1A 1_555 1_555
O9F Cu1 1_555 1_555
O9G Cu1A 1_555 1_555
O9A Cu1A 1_555 1_555
H1F O9F 1_555 1_555
H1G O9G 1_555 1_555
H1A O9A 1_555 1_555
O10A Cu2A 1_555 1_555
H2A O10A 1_555 1_555
H3A O10A 1_555 1_555
N1F Cu2 1_555 1_555
N1G Cu2A 1_555 1_555
N2F Cu1F 1_555 1_555
N2A Cu1A 1_555 1_555
N3F H4F 1_555 1_555
N4F H5F 1_555 1_555
H6F N4F 1_555 1_555
C1F N2F 1_555 1_555
H7F C1F 1_555 1_555
C2F N1F 1_555 1_555
C3A C4A 1_555 1_555
C4A C5A 1_555 1_555
C5A H8A 1_555 1_555
C6A C5A 1_555 1_555
C7A C6A 1_555 1_555
C8A C3A 1_555 1_555
H9A C8A 1_555 1_555
C9A C3A 1_555 1_555
C10A O3A 1_555 1_555
C11A C6A 1_555 1_555
C12A C7A 1_555 1_555
Cu2 O8E 1_555 1_555
Cu2 O9F 1_555 1_555
N1 Cu2F 1_555 1_555
N3 C1 1_555 1_555
N3 C2 1_555 1_555
N4 C2 1_555 1_555
C7 C8 1_555 1_555
Cu1F O9F 1_555 1_555
Cu2A O8D 1_555 1_555
Cu2A O9G 1_555 1_555
N1F N2F 1_555 1_555
N3F C1F 1_555 1_555
N3F C2F 1_555 1_555
N4F C2F 1_555 1_555
C4A C10A 1_555 1_555
C7A C8A 1_555 1_555

#END
