
#######################################################################
#
#                 Cambridge Crystallographic Data Centre
#                                CCDC 
#
#######################################################################
#
# If this CIF has been generated from an entry in the Cambridge 
# Structural Database, then it will include bibliographic, chemical, 
# crystal, experimental, refinement or atomic coordinate data resulting 
# from the CCDC's data processing and validation procedures.
#
#######################################################################

data_TANKOK
_symmetry_cell_setting           triclinic
_symmetry_space_group_name_H-M   'P -1'
_symmetry_Int_Tables_number      2
_space_group_name_Hall           '-P 1'
loop_
_symmetry_equiv_pos_site_id
_symmetry_equiv_pos_as_xyz
1 x,y,z
2 -x,-y,-z
_cell_length_a                   8.0920(16)
_cell_length_b                   8.9980(18)
_cell_length_c                   10.884(2)
_cell_angle_alpha                81.53(3)
_cell_angle_beta                 71.23(3)
_cell_angle_gamma                82.80(3)
_cell_volume                     739.579
loop_
_atom_site_label
_atom_site_type_symbol
_atom_site_fract_x
_atom_site_fract_y
_atom_site_fract_z
Co1 Co 0.87098(5) 0.90174(4) 0.95017(3)
N1 N 0.8321(3) 0.6801(2) 0.9544(2)
C1 C 0.9387(3) 0.6001(3) 0.8617(2)
C2 C 0.92617(16) 0.44702(12) 0.86631(11)
H1 H 1.0038 0.3910 0.8033
C3 C 0.79433(16) 0.37962(12) 0.96779(11)
C4 C 0.67931(16) 0.46626(12) 1.06073(11)
H2 H 0.5868 0.4239 1.1266
C5 C 0.70585(16) 0.61651(12) 1.05278(11)
C6 C 1.07679(16) 0.69325(12) 0.76254(11)
O1 O 1.0730(3) 0.8279(2) 0.7887(2)
O2 O 1.1815(2) 0.63597(18) 0.66923(16)
C7 C 0.7694(2) 0.21344(18) 0.98083(16)
O3 O 0.9091(3) 0.1220(2) 0.9514(2)
O4 O 0.6197(2) 0.17689(18) 1.01790(18)
C8 C 0.6113(2) 0.72438(18) 1.15268(18)
O5 O 0.4859(4) 0.6859(3) 1.2453(2)
O6 O 0.6778(3) 0.8502(2) 1.1310(2)
O7 O 0.6980(3) 0.9567(3) 0.8328(2)
H7 H 0.5975 0.9321 0.8807
H8 H 0.7491 1.0173 0.8602
Co1_2 Co 0.87098(5) 1.90174(4) 0.95017(3)
Co1_3 Co 0.87098(5) -0.09826(4) 0.95017(3)
Co1A Co 1.12902(5) 0.09826(4) 1.04983(3)
Co1A_2 Co 1.12902(5) 1.09826(4) 1.04983(3)
N1_2 N 0.8321(3) 1.6801(2) 0.9544(2)
C1_2 C 0.9387(3) 1.6001(3) 0.8617(2)
C2_2 C 0.92617(16) 1.44702(12) 0.86631(11)
H1_2 H 1.0038 1.3910 0.8033
C3_2 C 0.79433(16) 1.37962(12) 0.96779(11)
C4_2 C 0.67931(16) 1.46626(12) 1.06073(11)
H2_2 H 0.5868 1.4239 1.1266
C5_2 C 0.70585(16) 1.61651(12) 1.05278(11)
C6_2 C 1.07679(16) 1.69325(12) 0.76254(11)
O1_2 O 1.0730(3) 1.8279(2) 0.7887(2)
O2_2 O 1.1815(2) 1.63597(18) 0.66923(16)
C7_2 C 0.7694(2) 1.21344(18) 0.98083(16)
O3_2 O 0.9091(3) 1.1220(2) 0.9514(2)
O3A O 1.0909(3) 0.8780(2) 1.0486(2)
O3_3 O 0.9091(3) 2.1220(2) 0.9514(2)
O3A_2 O 1.0909(3) 1.8780(2) 1.0486(2)
O4_2 O 0.6197(2) 1.17689(18) 1.01790(18)
C8_2 C 0.6113(2) 1.72438(18) 1.15268(18)
O5_2 O 0.4859(4) 1.6859(3) 1.2453(2)
O6_2 O 0.6778(3) 1.8502(2) 1.1310(2)
O7_2 O 0.6980(3) 1.9567(3) 0.8328(2)
H7_2 H 0.5975 1.9321 0.8807
H8_2 H 0.7491 2.0173 0.8602
Co2 Co 0.5000 0.0000 0.5000
N2 N 0.30388(16) 0.17878(13) 0.49025(12)
C9 C 0.35175(16) 0.31157(13) 0.42242(12)
H3 H 0.4684 0.3182 0.3723
C10 C 0.23756(16) 0.43907(13) 0.42277(12)
H4 H 0.2771 0.5287 0.3738
C11 C 0.06260(16) 0.43208(13) 0.49726(12)
C12 C 0.01225(16) 0.29352(13) 0.56523(12)
H5 H -0.1039 0.2829 0.6149
C13 C 0.13587(16) 0.17126(13) 0.55866(12)
H6 H 0.0994 0.0793 0.6044
O8 O 0.3811(3) -0.0498(2) 0.69754(19)
H9 H 0.3671 0.0197 0.7459
H10 H 0.2919 -0.0997 0.7215
O9 O 0.3485(3) -0.1562(2) 0.4620(2)
H11 H 0.3815 -0.2041 0.3955
H12 H 0.2888 -0.2169 0.5229
Co2_2 Co -0.5000 1.0000 0.5000
N2A N -0.30388(16) 0.82122(13) 0.50975(12)
N2A_2 N 0.69612(16) -0.17878(13) 0.50975(12)
C9A C -0.35175(16) 0.68843(13) 0.57758(12)
H3A H -0.4684 0.6818 0.6277
C10A C -0.23756(16) 0.56093(13) 0.57723(12)
H4A H -0.2771 0.4713 0.6262
C11A C -0.06260(16) 0.56792(13) 0.50274(12)
C12A C -0.01225(16) 0.70648(13) 0.43477(12)
H5A H 0.1039 0.7171 0.3851
C13A C -0.13587(16) 0.82874(13) 0.44134(12)
H6A H -0.0994 0.9207 0.3956
O8A O 0.6189(3) 0.0498(2) 0.30246(19)
H9A H 0.6329 -0.0197 0.2541
H10A H 0.7081 0.0997 0.2785
O9A O 0.6515(3) 0.1562(2) 0.5380(2)
H11A H 0.6185 0.2041 0.6045
H12A H 0.7112 0.2169 0.4771
loop_
_geom_bond_atom_site_label_1
_geom_bond_atom_site_label_2
_geom_bond_site_symmetry_1
_geom_bond_site_symmetry_2
Co1 N1 1_555 1_555
Co2 N2 1_555 1_555
N1 C1 1_555 1_555
C1 C2 1_555 1_555
C2 H1 1_555 1_555
C3 C2 1_555 1_555
C4 C3 1_555 1_555
H2 C4 1_555 1_555
C5 N1 1_555 1_555
C6 C1 1_555 1_555
O1 Co1 1_555 1_555
O2 C6 1_555 1_555
C7 C3 1_555 1_555
O3 C7 1_555 1_555
O4 C7 1_555 1_555
C8 C5 1_555 1_555
O5 C8 1_555 1_555
O6 Co1 1_555 1_555
N2 C9 1_555 1_555
C9 H3 1_555 1_555
C10 C9 1_555 1_555
H4 C10 1_555 1_555
C11 C10 1_555 1_555
C12 C11 1_555 1_555
H5 C12 1_555 1_555
C13 N2 1_555 1_555
H6 C13 1_555 1_555
O7 Co1 1_555 1_555
H7 O7 1_555 1_555
H8 O7 1_555 1_555
O8 Co2 1_555 1_555
H9 O8 1_555 1_555
H10 O8 1_555 1_555
O9 Co2 1_555 1_555
H11 O9 1_555 1_555
H12 O9 1_555 1_555
Co1_2 N1_2 1_555 1_555
Co1_3 O3 1_555 1_555
Co1A O3 1_555 1_555
Co1A_2 O3_2 1_555 1_555
Co2_2 N2A 1_555 1_555
N1_2 C1_2 1_555 1_555
C1_2 C2_2 1_555 1_555
C2_2 H1_2 1_555 1_555
C3_2 C2_2 1_555 1_555
C4_2 C3_2 1_555 1_555
H2_2 C4_2 1_555 1_555
C5_2 N1_2 1_555 1_555
C6_2 C1_2 1_555 1_555
O1_2 Co1_2 1_555 1_555
O2_2 C6_2 1_555 1_555
C7_2 C3_2 1_555 1_555
O3_2 Co1 1_555 1_555
O3A Co1 1_555 1_555
O3_3 Co1_2 1_555 1_555
O3A_2 Co1_2 1_555 1_555
O4_2 C7_2 1_555 1_555
C8_2 C5_2 1_555 1_555
O5_2 C8_2 1_555 1_555
O6_2 Co1_2 1_555 1_555
N2A C9A 1_555 1_555
N2A_2 Co2 1_555 1_555
C9A H3A 1_555 1_555
C10A C9A 1_555 1_555
H4A C10A 1_555 1_555
C11A C11 1_555 1_555
C12A C11A 1_555 1_555
H5A C12A 1_555 1_555
C13A N2A 1_555 1_555
H6A C13A 1_555 1_555
O7_2 Co1_2 1_555 1_555
H7_2 O7_2 1_555 1_555
H8_2 O7_2 1_555 1_555
O8A Co2 1_555 1_555
H9A O8A 1_555 1_555
H10A O8A 1_555 1_555
O9A Co2 1_555 1_555
H11A O9A 1_555 1_555
H12A O9A 1_555 1_555
C4 C5 1_555 1_555
C6 O1 1_555 1_555
C8 O6 1_555 1_555
C12 C13 1_555 1_555
Co1A_2 O3A 1_555 1_555
C4_2 C5_2 1_555 1_555
C6_2 O1_2 1_555 1_555
C7_2 O3_2 1_555 1_555
C8_2 O6_2 1_555 1_555
C10A C11A 1_555 1_555
C12A C13A 1_555 1_555

#END
