
#######################################################################
#
#                 Cambridge Crystallographic Data Centre
#                                CCDC 
#
#######################################################################
#
# If this CIF has been generated from an entry in the Cambridge 
# Structural Database, then it will include bibliographic, chemical, 
# crystal, experimental, refinement or atomic coordinate data resulting 
# from the CCDC's data processing and validation procedures.
#
#######################################################################

data_TANKAW
_symmetry_cell_setting           monoclinic
_symmetry_space_group_name_H-M   'P 21/c'
_symmetry_Int_Tables_number      14
_space_group_name_Hall           '-P 2ybc'
loop_
_symmetry_equiv_pos_site_id
_symmetry_equiv_pos_as_xyz
1 x,y,z
2 -x,1/2+y,1/2-z
3 -x,-y,-z
4 x,1/2-y,1/2+z
_cell_length_a                   13.5623(16)
_cell_length_b                   7.2662(9)
_cell_length_c                   15.2513(13)
_cell_angle_alpha                90
_cell_angle_beta                 123.605(7)
_cell_angle_gamma                90
_cell_volume                     1251.78
loop_
_atom_site_label
_atom_site_type_symbol
_atom_site_fract_x
_atom_site_fract_y
_atom_site_fract_z
Cu1 Cu 0.99284(3) 1.10370(5) 0.58457(2)
Cu2 Cu 0.74933(3) 0.97964(5) 0.39200(3)
O1 O 0.73623(18) 0.9146(3) 0.51060(15)
O2 O 0.89631(18) 1.0643(3) 0.64171(16)
O3 O 0.86671(18) 1.2613(3) 0.96094(15)
O4 O 0.8961(2) 0.9777(3) 1.02249(17)
O5 O 0.41289(18) 0.9306(3) 0.68476(15)
O6 O 0.41109(18) 0.7549(3) 0.56297(16)
O7 O 0.90464(17) 0.8712(3) 0.46422(14)
H1 H 0.8967 0.7649 0.4829
N1 N 1.2424(2) 0.9963(3) 0.73376(19)
N2 N 1.1331(2) 1.0205(4) 0.72013(19)
N3 N 1.2564(2) 0.9253(4) 0.87962(19)
H2 H 1.2854 0.8927 0.9437
N4 N 1.4280(2) 0.8891(4) 0.8784(2)
H3 H 1.4621 0.8985 0.8448
H4 H 1.4674 0.8503 0.9423
C1 C 0.7502(3) 0.9680(4) 0.6701(2)
C2 C 0.8191(3) 1.0293(4) 0.7744(2)
H5 H 0.8952 1.0735 0.8020
C3 C 0.7740(3) 1.0240(4) 0.8363(2)
C4 C 0.6589(3) 0.9645(4) 0.7945(2)
H6 H 0.6283 0.9634 0.8361
C5 C 0.5894(3) 0.9064(4) 0.6900(2)
C6 C 0.6364(3) 0.9054(4) 0.6290(2)
H7 H 0.5910 0.8623 0.5601
C7 C 0.7982(3) 0.9818(4) 0.6017(2)
C8 C 0.8519(3) 1.0895(4) 0.9495(2)
C9 C 0.4611(3) 0.8560(4) 0.6405(2)
C10 C 1.1441(3) 0.9771(5) 0.8080(2)
H8 H 1.0836 0.9812 0.8195
C11 C 1.3144(3) 0.9347(4) 0.8312(2)
Cu1C Cu 0.99284(3) 1.39630(5) 1.08457(2)
Cu1B Cu 1.00716(3) 0.89630(5) 0.41543(2)
Cu2C Cu 0.74933(3) 1.52036(5) 0.89200(3)
Cu2B Cu 0.25067(3) 1.02036(5) 0.60800(3)
Cu2B_2 Cu 1.25067(3) 1.02036(5) 0.60800(3)
O3C O 0.86671(18) 1.2387(3) 0.46094(15)
O5B O 0.58711(18) 1.0694(3) 0.31524(15)
O7B O 1.09536(17) 1.1288(3) 0.53578(14)
H1B H 1.1033 1.2351 0.5171
N1B N 0.7576(2) 1.0037(3) 0.26624(19)
loop_
_geom_bond_atom_site_label_1
_geom_bond_atom_site_label_2
_geom_bond_site_symmetry_1
_geom_bond_site_symmetry_2
Cu1 O2 1_555 1_555
Cu2 O1 1_555 1_555
O1 C7 1_555 1_555
O2 C7 1_555 1_555
O3 C8 1_555 1_555
O4 C8 1_555 1_555
O5 C9 1_555 1_555
O6 C9 1_555 1_555
O7 Cu1 1_555 1_555
H1 O7 1_555 1_555
N1 N2 1_555 1_555
N2 Cu1 1_555 1_555
N3 H2 1_555 1_555
N4 H3 1_555 1_555
H4 N4 1_555 1_555
C1 C2 1_555 1_555
C2 H5 1_555 1_555
C3 C2 1_555 1_555
C4 C3 1_555 1_555
H6 C4 1_555 1_555
C5 C4 1_555 1_555
C6 C1 1_555 1_555
H7 C6 1_555 1_555
C7 C1 1_555 1_555
C8 C3 1_555 1_555
C9 C5 1_555 1_555
C10 N2 1_555 1_555
H8 C10 1_555 1_555
C11 N1 1_555 1_555
Cu1C O3 1_555 1_555
Cu1B O7 1_555 1_555
Cu2C O3 1_555 1_555
Cu2B O5 1_555 1_555
Cu2B_2 N1 1_555 1_555
O3C Cu1 1_555 1_555
O5B Cu2 1_555 1_555
O7B Cu1 1_555 1_555
H1B O7B 1_555 1_555
N1B Cu2 1_555 1_555
Cu2 O7 1_555 1_555
Cu2 O3C 1_555 1_555
N3 C10 1_555 1_555
N3 C11 1_555 1_555
N4 C11 1_555 1_555
C5 C6 1_555 1_555
Cu1B O7B 1_555 1_555
Cu2B_2 O7B 1_555 1_555

#END
