
#######################################################################
#
#                 Cambridge Crystallographic Data Centre
#                                CCDC 
#
#######################################################################
#
# If this CIF has been generated from an entry in the Cambridge 
# Structural Database, then it will include bibliographic, chemical, 
# crystal, experimental, refinement or atomic coordinate data resulting 
# from the CCDC's data processing and validation procedures.
#
#######################################################################

data_TANKIE
_symmetry_cell_setting           orthorhombic
_symmetry_space_group_name_H-M   'P b c n'
_symmetry_Int_Tables_number      60
_space_group_name_Hall           '-P 2n 2ab'
loop_
_symmetry_equiv_pos_site_id
_symmetry_equiv_pos_as_xyz
1 x,y,z
2 1/2-x,1/2-y,1/2+z
3 -x,y,1/2-z
4 1/2+x,1/2-y,-z
5 -x,-y,-z
6 1/2+x,1/2+y,1/2-z
7 x,-y,1/2+z
8 1/2-x,1/2+y,z
_cell_length_a                   15.9192(6)
_cell_length_b                   5.9225(3)
_cell_length_c                   18.5992(8)
_cell_angle_alpha                90
_cell_angle_beta                 90
_cell_angle_gamma                90
_cell_volume                     1753.56
loop_
_atom_site_label
_atom_site_type_symbol
_atom_site_fract_x
_atom_site_fract_y
_atom_site_fract_z
Co1 Co 0.0000 0.40570(8) 0.7500
Co2 Co 0.175680(18) 0.08603(6) 0.647420(16)
N1 N 0.05509(11) 0.4366(3) 0.84715(10)
C1 C 0.11886(13) 0.3012(4) 0.86593(11)
C2 C 0.15946(13) 0.3265(5) 0.93093(11)
H1 H 0.2025 0.2287 0.9441
C3 C 0.13499(14) 0.5003(4) 0.97647(11)
C4 C 0.07016(13) 0.6451(4) 0.95538(12)
H2 H 0.0535 0.7642 0.9847
C5 C 0.03126(13) 0.6074(4) 0.88994(12)
C6 C 0.14344(14) 0.1385(4) 0.80756(12)
O1 O 0.10719(9) 0.1700(3) 0.74570(8)
O2 O 0.19824(11) -0.0034(3) 0.82043(9)
C7 C 0.17690(14) 0.5358(4) 1.04833(12)
O3 O 0.24979(10) 0.4604(3) 1.05657(8)
O4 O 0.13387(9) 0.6402(3) 1.09435(8)
C8 C -0.04206(13) 0.7379(5) 0.85928(12)
O5 O -0.07287(10) 0.8982(3) 0.89413(8)
O6 O -0.06826(9) 0.6678(3) 0.79900(8)
O7 O 0.22407(9) -0.2159(3) 0.69745(8)
H3 H 0.2227 -0.1821 0.7389
H4 H 0.1822 -0.2974 0.7003
Co2B Co -0.175680(18) 0.08603(6) 0.852580(16)
Co2A Co 0.324320(18) 0.41397(6) 1.147420(16)
Co2F Co 0.175680(18) 0.91397(6) 1.147420(16)
Co2B_2 Co -0.175680(18) 1.08603(6) 0.852580(16)
Co2G Co 0.324320(18) -0.41397(6) 0.647420(16)
Co2C Co -0.324320(18) 0.41397(6) 0.352580(16)
Co2D Co -0.175680(18) 0.91397(6) 0.352580(16)
Co2_2 Co 0.175680(18) 1.08603(6) 0.647420(16)
Co2G_2 Co 0.324320(18) 0.58603(6) 0.647420(16)
N1B N -0.05509(11) 0.4366(3) 0.65285(10)
C1B C -0.11886(13) 0.3012(4) 0.63407(11)
C2B C -0.15946(13) 0.3265(5) 0.56907(11)
H1B H -0.2025 0.2287 0.5559
C3B C -0.13499(14) 0.5003(4) 0.52353(11)
C4B C -0.07016(13) 0.6451(4) 0.54462(12)
H2B H -0.0535 0.7642 0.5153
C5B C -0.03126(13) 0.6074(4) 0.61006(12)
C6B C -0.14344(14) 0.1385(4) 0.69244(12)
O1B O -0.10719(9) 0.1700(3) 0.75430(8)
O2B O -0.19824(11) -0.0034(3) 0.67957(9)
C7B C -0.17690(14) 0.5358(4) 0.45167(12)
O3B O -0.24979(10) 0.4604(3) 0.44343(8)
O3A O 0.25021(10) 0.0396(3) 0.55657(8)
O3C O -0.25021(10) 0.0396(3) 0.94343(8)
O4B O -0.13387(9) 0.6402(3) 0.40565(8)
O4F O 0.13387(9) 0.3598(3) 0.59435(8)
O4D O -0.13387(9) 0.3598(3) 0.90565(8)
C8B C 0.04206(13) 0.7379(5) 0.64072(12)
O5B O 0.07287(10) 0.8982(3) 0.60587(8)
O5B_2 O 0.07287(10) -0.1018(3) 0.60587(8)
O5_2 O -0.07287(10) -0.1018(3) 0.89413(8)
O6B O 0.06826(9) 0.6678(3) 0.70100(8)
O7G O 0.27593(9) 0.2841(3) 0.69745(8)
O7B O -0.22407(9) -0.2159(3) 0.80255(8)
O7E O -0.27593(9) 0.2841(3) 0.80255(8)
H3G H 0.2773 0.3179 0.7389
H3B H -0.2227 -0.1821 0.7611
H3E H -0.2773 0.3179 0.7611
H4G H 0.3178 0.2026 0.7003
H4B H -0.1822 -0.2974 0.7997
H4E H -0.3178 0.2026 0.7997
loop_
_geom_bond_atom_site_label_1
_geom_bond_atom_site_label_2
_geom_bond_site_symmetry_1
_geom_bond_site_symmetry_2
Co1 N1 1_555 1_555
Co2 O1 1_555 1_555
N1 C1 1_555 1_555
C1 C2 1_555 1_555
C2 H1 1_555 1_555
C3 C2 1_555 1_555
C4 C3 1_555 1_555
H2 C4 1_555 1_555
C5 N1 1_555 1_555
C6 C1 1_555 1_555
O1 Co1 1_555 1_555
O2 C6 1_555 1_555
C7 C3 1_555 1_555
O3 C7 1_555 1_555
O4 C7 1_555 1_555
C8 C5 1_555 1_555
O5 C8 1_555 1_555
O6 Co1 1_555 1_555
O7 Co2 1_555 1_555
H3 O7 1_555 1_555
H4 O7 1_555 1_555
Co2B O1B 1_555 1_555
Co2A O3 1_555 1_555
Co2F O4 1_555 1_555
Co2B_2 O5 1_555 1_555
Co2G O7 1_555 1_555
Co2C O3B 1_555 1_555
Co2D O4B 1_555 1_555
Co2_2 O5B 1_555 1_555
Co2G_2 O7G 1_555 1_555
N1B Co1 1_555 1_555
C1B N1B 1_555 1_555
C2B C1B 1_555 1_555
H1B C2B 1_555 1_555
C3B C2B 1_555 1_555
C4B C3B 1_555 1_555
H2B C4B 1_555 1_555
C5B N1B 1_555 1_555
C6B C1B 1_555 1_555
O1B Co1 1_555 1_555
O2B C6B 1_555 1_555
C7B C3B 1_555 1_555
O3B C7B 1_555 1_555
O3A Co2 1_555 1_555
O3C Co2B 1_555 1_555
O4B C7B 1_555 1_555
O4F Co2 1_555 1_555
O4D Co2B 1_555 1_555
C8B C5B 1_555 1_555
O5B C8B 1_555 1_555
O5B_2 Co2 1_555 1_555
O5_2 Co2B 1_555 1_555
O6B Co1 1_555 1_555
O7G Co2 1_555 1_555
O7B Co2B 1_555 1_555
O7E Co2B 1_555 1_555
H3G O7G 1_555 1_555
H3B O7B 1_555 1_555
H3E O7E 1_555 1_555
H4G O7G 1_555 1_555
H4B O7B 1_555 1_555
H4E O7E 1_555 1_555
C4 C5 1_555 1_555
C6 O1 1_555 1_555
C8 O6 1_555 1_555
C4B C5B 1_555 1_555
C6B O1B 1_555 1_555
C8B O6B 1_555 1_555

#END
