
#######################################################################
#
#                 Cambridge Crystallographic Data Centre
#                                CCDC 
#
#######################################################################
#
# If this CIF has been generated from an entry in the Cambridge 
# Structural Database, then it will include bibliographic, chemical, 
# crystal, experimental, refinement or atomic coordinate data resulting 
# from the CCDC's data processing and validation procedures.
#
#######################################################################

data_TANKOI
_symmetry_cell_setting           monoclinic
_symmetry_space_group_name_H-M   'P 21/c'
_symmetry_Int_Tables_number      14
_space_group_name_Hall           '-P 2ybc'
loop_
_symmetry_equiv_pos_site_id
_symmetry_equiv_pos_as_xyz
1 x,y,z
2 -x,1/2+y,1/2-z
3 -x,-y,-z
4 x,1/2-y,1/2+z
_cell_length_a                   14.889(2)
_cell_length_b                   15.194(4)
_cell_length_c                   22.693(5)
_cell_angle_alpha                90
_cell_angle_beta                 101.05(2)
_cell_angle_gamma                90
_cell_volume                     5038.51
loop_
_atom_site_label
_atom_site_type_symbol
_atom_site_fract_x
_atom_site_fract_y
_atom_site_fract_z
Hg1 Hg 0.0473(1) 0.0795(1) 0.2680(1)
Hg2 Hg 0.2591(1) -0.0285(1) 0.3989(1)
Br1 Br 0.2106(1) 0.1577(1) 0.3655(1)
P1 P -0.1605(2) 0.1178(2) 0.2803(1)
P2 P -0.3994(2) 0.3464(2) 0.1433(1)
P3 P -0.1764(2) 0.4804(2) 0.3119(1)
P4 P -0.0851(2) 0.3586(2) 0.1042(1)
O1 O -0.1534(5) 0.2075(4) 0.2550(3)
O2 O -0.3141(5) 0.2955(4) 0.1660(3)
O3 O -0.2108(5) 0.4196(5) 0.2611(3)
O4 O -0.0927(5) 0.3542(5) 0.1686(3)
Li1 Li -0.1888(13) 0.3176(13) 0.2147(8)
C1 C -0.0545(8) 0.0761(8) 0.3221(5)
C2 C 0.3808(8) -0.0384(1) 0.3646(6)
C3 C 0.1387(8) 0.0847(7) 0.2073(4)
C4 C 0.1353(8) -0.0456(7) 0.4321(5)
C5 C -0.2679(8) 0.5052(7) 0.3528(5)
C6 C -0.2625(9) 0.5711(7) 0.3962(5)
C7 C -0.3321(12) 0.5899(9) 0.4260(6)
C8 C -0.4101(11) 0.5411(11) 0.4114(7)
C9 C -0.4198(10) 0.4713(10) 0.3710(6)
C10 C -0.3470(8) 0.4544(8) 0.3406(6)
C11 C -0.0839(8) 0.4326(7) 0.3642(5)
C12 C -0.0602(12) 0.3513(10) 0.3593(8)
C13 C 0.0109(16) 0.3101(12) 0.4011(11)
C14 C 0.0575(13) 0.3490(10) 0.4452(8)
C15 C 0.0410(14) 0.4305(13) 0.4476(9)
C16 C -0.0288(15) 0.4741(12) 0.4096(9)
C17 C -0.2437(7) 0.1140(8) 0.3298(5)
C18 C -0.2466(8) 0.0480(7) 0.3710(5)
C19 C -0.3073(9) 0.0448(8) 0.4076(6)
C20 C -0.3732(10) 0.1102(11) 0.4041(6)
C21 C -0.3738(11) 0.1780(12) 0.3633(7)
C22 C -0.3067(9) 0.1831(9) 0.3265(5)
C23 C -0.2056(8) 0.0401(8) 0.2224(5)
C24 C -0.1680(11) -0.0431(7) 0.2163(6)
C25 C -0.2075(13) -0.0982(10) 0.1719(7)
C26 C -0.2825(13) -0.0717(11) 0.1312(7)
C27 C -0.3179(11) 0.0088(11) 0.1347(6)
C28 C -0.2811(9) 0.0666(9) 0.1787(5)
C29 C -0.1365(8) 0.2640(8) 0.0635(5)
C30 C -0.1760(10) 0.2668(10) 0.0023(6)
C31 C -0.2100(11) 0.1899(11) -0.0264(7)
C32 C -0.2098(10) 0.1147(11) 0.0021(7)
C33 C -0.1718(14) 0.1117(10) 0.0634(8)
C34 C -0.1357(11) 0.1880(7) 0.0941(6)
C35 C 0.0335(7) 0.3478(7) 0.0967(4)
C36 C 0.0968(8) 0.3147(7) 0.1426(5)
C37 C 0.1875(8) 0.3009(7) 0.1344(6)
C38 C 0.2114(10) 0.3175(8) 0.0803(7)
C39 C 0.1488(10) 0.3510(9) 0.0356(7)
C40 C 0.0601(8) 0.3672(8) 0.0412(6)
C41 C -0.4545(7) 0.3064(7) 0.0705(5)
C42 C -0.5359(8) 0.3406(9) 0.0404(6)
C43 C -0.5760(10) 0.3090(11) -0.0150(6)
C44 C -0.5391(11) 0.2403(11) -0.0389(6)
C45 C -0.4612(12) 0.2084(11) -0.0112(6)
C46 C -0.4155(9) 0.2388(8) 0.0450(5)
C47 C -0.4849(7) 0.3253(7) 0.1896(4)
C48 C -0.5361(10) 0.3890(9) 0.2099(7)
C49 C -0.5993(10) 0.3688(11) 0.2438(7)
C50 C -0.6121(10) 0.2861(11) 0.2612(6)
C51 C -0.5680(11) 0.2208(12) 0.2387(7)
C52 C -0.4973(9) 0.2400(9) 0.2040(6)
H1 H -0.0352 0.1117 0.3572
H2 H -0.0629 0.0165 0.3340
H3 H 0.4310 -0.0126 0.3920
H4 H 0.3739 -0.0096 0.3264
H5 H 0.1913 0.1186 0.2253
H6 H 0.1084 0.1133 0.1712
H7 H 0.0957 0.0042 0.4220
H8 H 0.1482 -0.0535 0.4748
H9 H -0.2072 0.6050 0.4057
H10 H -0.3262 0.6354 0.4558
H11 H -0.4609 0.5557 0.4299
H12 H -0.4741 0.4357 0.3640
H13 H -0.3523 0.4079 0.3115
H14 H -0.0920 0.3174 0.3261
H15 H 0.0237 0.2492 0.3951
H16 H 0.1021 0.3194 0.4747
H17 H 0.0796 0.4646 0.4780
H18 H -0.0380 0.5356 0.4158
H19 H -0.2025 0.0014 0.3736
H20 H -0.3052 -0.0023 0.4360
H21 H -0.4176 0.1084 0.4297
H22 H -0.4204 0.2223 0.3598
H23 H -0.3046 0.2325 0.3003
H24 H -0.1140 -0.0612 0.2438
H25 H -0.1826 -0.1560 0.1690
H26 H -0.3100 -0.1110 0.0998
H27 H -0.3704 0.0261 0.1056
H28 H -0.3063 0.1246 0.1799
H29 H -0.1793 0.3212 -0.0195
H30 H -0.2347 0.1917 -0.0687
H31 H -0.2353 0.0627 -0.0187
H32 H -0.1703 0.0570 0.0847
H33 H -0.1108 0.1860 0.1364
H34 H 0.0800 0.3007 0.1803
H35 H 0.2328 0.2797 0.1672
H36 H 0.2723 0.3052 0.0743
H37 H 0.1667 0.3644 -0.0018
H38 H 0.0168 0.3911 0.0082
H39 H -0.5650 0.3871 0.0584
H40 H -0.6306 0.3361 -0.0368
H41 H -0.5698 0.2149 -0.0761
H42 H -0.4337 0.1618 -0.0301
H43 H -0.3589 0.2129 0.0648
H44 H -0.5274 0.4494 0.2000
H45 H -0.6358 0.4152 0.2558
H46 H -0.6518 0.2739 0.2889
H47 H -0.5831 0.1607 0.2456
H48 H -0.4608 0.1938 0.1917
C2A C -0.3808(8) 0.4616(1) 0.1354(6)
C3A C -0.1387(8) 0.5847(7) 0.2927(4)
C4A C -0.1353(8) 0.4544(7) 0.0679(5)
P2A P 0.3994(2) -0.1536(2) 0.3567(1)
P3A P 0.1764(2) -0.0196(2) 0.1881(1)
P4A P 0.0851(2) -0.1414(2) 0.3958(1)
loop_
_geom_bond_atom_site_label_1
_geom_bond_atom_site_label_2
_geom_bond_site_symmetry_1
_geom_bond_site_symmetry_2
Hg1 Br1 1_555 1_555
Hg2 Br1 1_555 1_555
P1 O1 1_555 1_555
P2 O2 1_555 1_555
P3 O3 1_555 1_555
P4 O4 1_555 1_555
O1 Li1 1_555 1_555
O2 Li1 1_555 1_555
O3 Li1 1_555 1_555
O4 Li1 1_555 1_555
C1 Hg1 1_555 1_555
C2 Hg2 1_555 1_555
C3 Hg1 1_555 1_555
C4 Hg2 1_555 1_555
C5 P3 1_555 1_555
C6 C5 1_555 1_555
C7 C6 1_555 1_555
C8 C7 1_555 1_555
C9 C8 1_555 1_555
C10 C5 1_555 1_555
C11 P3 1_555 1_555
C12 C11 1_555 1_555
C13 C12 1_555 1_555
C14 C13 1_555 1_555
C15 C14 1_555 1_555
C16 C11 1_555 1_555
C17 P1 1_555 1_555
C18 C17 1_555 1_555
C19 C18 1_555 1_555
C20 C19 1_555 1_555
C21 C20 1_555 1_555
C22 C17 1_555 1_555
C23 P1 1_555 1_555
C24 C23 1_555 1_555
C25 C24 1_555 1_555
C26 C25 1_555 1_555
C27 C26 1_555 1_555
C28 C23 1_555 1_555
C29 P4 1_555 1_555
C30 C29 1_555 1_555
C31 C30 1_555 1_555
C32 C31 1_555 1_555
C33 C32 1_555 1_555
C34 C29 1_555 1_555
C35 P4 1_555 1_555
C36 C35 1_555 1_555
C37 C36 1_555 1_555
C38 C37 1_555 1_555
C39 C38 1_555 1_555
C40 C35 1_555 1_555
C41 P2 1_555 1_555
C42 C41 1_555 1_555
C43 C42 1_555 1_555
C44 C43 1_555 1_555
C45 C44 1_555 1_555
C46 C41 1_555 1_555
C47 P2 1_555 1_555
C48 C47 1_555 1_555
C49 C48 1_555 1_555
C50 C49 1_555 1_555
C51 C50 1_555 1_555
C52 C47 1_555 1_555
H1 C1 1_555 1_555
H2 C1 1_555 1_555
H3 C2 1_555 1_555
H4 C2 1_555 1_555
H5 C3 1_555 1_555
H6 C3 1_555 1_555
H7 C4 1_555 1_555
H8 C4 1_555 1_555
H9 C6 1_555 1_555
H10 C7 1_555 1_555
H11 C8 1_555 1_555
H12 C9 1_555 1_555
H13 C10 1_555 1_555
H14 C12 1_555 1_555
H15 C13 1_555 1_555
H16 C14 1_555 1_555
H17 C15 1_555 1_555
H18 C16 1_555 1_555
H19 C18 1_555 1_555
H20 C19 1_555 1_555
H21 C20 1_555 1_555
H22 C21 1_555 1_555
H23 C22 1_555 1_555
H24 C24 1_555 1_555
H25 C25 1_555 1_555
H26 C26 1_555 1_555
H27 C27 1_555 1_555
H28 C28 1_555 1_555
H29 C30 1_555 1_555
H30 C31 1_555 1_555
H31 C32 1_555 1_555
H32 C33 1_555 1_555
H33 C34 1_555 1_555
H34 C36 1_555 1_555
H35 C37 1_555 1_555
H36 C38 1_555 1_555
H37 C39 1_555 1_555
H38 C40 1_555 1_555
H39 C42 1_555 1_555
H40 C43 1_555 1_555
H41 C44 1_555 1_555
H42 C45 1_555 1_555
H43 C46 1_555 1_555
H44 C48 1_555 1_555
H45 C49 1_555 1_555
H46 C50 1_555 1_555
H47 C51 1_555 1_555
H48 C52 1_555 1_555
C2A P2 1_555 1_555
C3A P3 1_555 1_555
C4A P4 1_555 1_555
P2A C2 1_555 1_555
P3A C3 1_555 1_555
P4A C4 1_555 1_555
P1 C1 1_555 1_555
C9 C10 1_555 1_555
C15 C16 1_555 1_555
C21 C22 1_555 1_555
C27 C28 1_555 1_555
C33 C34 1_555 1_555
C39 C40 1_555 1_555
C45 C46 1_555 1_555
C51 C52 1_555 1_555

#END
