
#######################################################################
#
#                 Cambridge Crystallographic Data Centre
#                                CCDC 
#
#######################################################################
#
# If this CIF has been generated from an entry in the Cambridge 
# Structural Database, then it will include bibliographic, chemical, 
# crystal, experimental, refinement or atomic coordinate data resulting 
# from the CCDC's data processing and validation procedures.
#
#######################################################################

data_TANNAX
_symmetry_cell_setting           monoclinic
_symmetry_space_group_name_H-M   'C 2/c'
_symmetry_Int_Tables_number      15
_space_group_name_Hall           '-C 2yn'
loop_
_symmetry_equiv_pos_site_id
_symmetry_equiv_pos_as_xyz
1 x,y,z
2 1/2+x,1/2+y,z
3 -x,y,1/2-z
4 1/2-x,1/2+y,1/2-z
5 -x,-y,-z
6 1/2-x,1/2-y,-z
7 x,-y,1/2+z
8 1/2+x,1/2-y,1/2+z
_cell_length_a                   18.097(4)
_cell_length_b                   9.714(2)
_cell_length_c                   13.845(1)
_cell_angle_alpha                90
_cell_angle_beta                 92.46(1)
_cell_angle_gamma                90
_cell_volume                     2431.63
loop_
_atom_site_label
_atom_site_type_symbol
_atom_site_fract_x
_atom_site_fract_y
_atom_site_fract_z
Cd1 Cd 0.02054(1) 0.09493(2) 0.38336(1)
Cl1 Cl -0.05913(4) 0.13420(7) 0.54382(5)
Cl2 Cl 0.09577(4) 0.06872(8) 0.22679(4)
O1 O 0.0286(1) 0.3420(2) 0.3928(1)
O2 O 0.1176(1) 0.2255(2) 0.4692(2)
C1 C 0.0816(1) 0.3328(3) 0.4527(2)
C2 C 0.0973(1) 0.4651(3) 0.5095(2)
N1 N 0.1626(1) 0.4688(2) 0.5798(2)
C3 C 0.1602(2) 0.6104(3) 0.6270(2)
C4 C 0.2240(2) 0.6416(4) 0.6973(3)
C5 C 0.1583(2) 0.3567(3) 0.6563(2)
C6 C 0.0885(2) 0.3559(5) 0.7122(3)
C7 C 0.2343(2) 0.4464(3) 0.5289(3)
C8 C 0.2504(2) 0.5456(5) 0.4520(3)
H1 H 0.0543 0.4846 0.5453
H2 H 0.1043 0.5370 0.4632
H3 H 0.1153 0.6170 0.6611
H4 H 0.1600 0.6785 0.5767
H5 H 0.2181 0.7323 0.7234
H6 H 0.2696 0.6369 0.6644
H7 H 0.2249 0.5754 0.7488
H8 H 0.1994 0.3684 0.7016
H9 H 0.1622 0.2693 0.6246
H10 H 0.0908 0.2821 0.7583
H11 H 0.0465 0.3429 0.6684
H12 H 0.0838 0.4420 0.7454
H13 H 0.2325 0.3561 0.5007
H14 H 0.2741 0.4508 0.5769
H15 H 0.2967 0.5221 0.4249
H16 H 0.2534 0.6368 0.4785
H17 H 0.2118 0.5421 0.4024
Cl1D Cl 0.05913(4) -0.13420(7) 0.45618(5)
Cl2B Cl -0.09577(4) 0.06872(8) 0.27321(4)
Cd1D Cd -0.02054(1) -0.09493(2) 0.61664(1)
Cd1B Cd -0.02054(1) 0.09493(2) 0.11664(1)
Cl2D Cl -0.09577(4) -0.06872(8) 0.77321(4)
Cl2F Cl 0.09577(4) -0.06872(8) 0.72679(4)
O1D O -0.0286(1) -0.3420(2) 0.6072(1)
O2D O -0.1176(1) -0.2255(2) 0.5308(2)
Cl1B Cl 0.05913(4) 0.13420(7) -0.04382(5)
Cl1F Cl -0.05913(4) -0.13420(7) 0.04382(5)
O1B O -0.0286(1) 0.3420(2) 0.1072(1)
O2B O -0.1176(1) 0.2255(2) 0.0308(2)
Cd1F Cd 0.02054(1) -0.09493(2) 0.88336(1)
C1D C -0.0816(1) -0.3328(3) 0.5473(2)
Cd1F_2 Cd 0.02054(1) -0.09493(2) -0.11664(1)
C1B C -0.0816(1) 0.3328(3) 0.0473(2)
Cl1B_2 Cl 0.05913(4) 0.13420(7) 0.95618(5)
Cl1F_2 Cl -0.05913(4) -0.13420(7) 1.04382(5)
O1F O 0.0286(1) -0.3420(2) 0.8928(1)
O2F O 0.1176(1) -0.2255(2) 0.9692(2)
C2D C -0.0973(1) -0.4651(3) 0.4905(2)
C2B C -0.0973(1) 0.4651(3) -0.0095(2)
C1F C 0.0816(1) -0.3328(3) 0.9527(2)
N1D N -0.1626(1) -0.4688(2) 0.4202(2)
H1D H -0.0543 -0.4846 0.4547
H2D H -0.1043 -0.5370 0.5368
N1B N -0.1626(1) 0.4688(2) -0.0798(2)
H1B H -0.0543 0.4846 -0.0453
H2B H -0.1043 0.5370 0.0368
C2F C 0.0973(1) -0.4651(3) 1.0095(2)
C3D C -0.1602(2) -0.6104(3) 0.3730(2)
C5D C -0.1583(2) -0.3567(3) 0.3437(2)
C7D C -0.2343(2) -0.4464(3) 0.4711(3)
C3B C -0.1602(2) 0.6104(3) -0.1270(2)
C5B C -0.1583(2) 0.3567(3) -0.1563(2)
C7B C -0.2343(2) 0.4464(3) -0.0289(3)
N1F N 0.1626(1) -0.4688(2) 1.0798(2)
H1F H 0.0543 -0.4846 1.0453
H2F H 0.1043 -0.5370 0.9632
C4D C -0.2240(2) -0.6416(4) 0.3027(3)
H3D H -0.1153 -0.6170 0.3389
H4D H -0.1600 -0.6785 0.4233
C6D C -0.0885(2) -0.3559(5) 0.2878(3)
H8D H -0.1994 -0.3684 0.2984
H9D H -0.1622 -0.2693 0.3754
C8D C -0.2504(2) -0.5456(5) 0.5480(3)
H13D H -0.2325 -0.3561 0.4993
H14D H -0.2741 -0.4508 0.4231
C4B C -0.2240(2) 0.6416(4) -0.1973(3)
H3B H -0.1153 0.6170 -0.1611
H4B H -0.1600 0.6785 -0.0767
C6B C -0.0885(2) 0.3559(5) -0.2122(3)
H8B H -0.1994 0.3684 -0.2016
H9B H -0.1622 0.2693 -0.1246
C8B C -0.2504(2) 0.5456(5) 0.0480(3)
H13B H -0.2325 0.3561 -0.0007
H14B H -0.2741 0.4508 -0.0769
C3F C 0.1602(2) -0.6104(3) 1.1270(2)
C5F C 0.1583(2) -0.3567(3) 1.1563(2)
C7F C 0.2343(2) -0.4464(3) 1.0289(3)
H5D H -0.2181 -0.7323 0.2766
H6D H -0.2696 -0.6369 0.3356
H7D H -0.2249 -0.5754 0.2512
H10D H -0.0908 -0.2821 0.2417
H11D H -0.0465 -0.3429 0.3316
H12D H -0.0838 -0.4420 0.2546
H15D H -0.2967 -0.5221 0.5751
H16D H -0.2534 -0.6368 0.5215
H17D H -0.2118 -0.5421 0.5976
H5B H -0.2181 0.7323 -0.2234
H6B H -0.2696 0.6369 -0.1644
H7B H -0.2249 0.5754 -0.2488
H10B H -0.0908 0.2821 -0.2583
H11B H -0.0465 0.3429 -0.1684
H12B H -0.0838 0.4420 -0.2454
H15B H -0.2967 0.5221 0.0751
H16B H -0.2534 0.6368 0.0215
H17B H -0.2118 0.5421 0.0976
C4F C 0.2240(2) -0.6416(4) 1.1973(3)
H3F H 0.1153 -0.6170 1.1611
H4F H 0.1600 -0.6785 1.0767
C6F C 0.0885(2) -0.3559(5) 1.2122(3)
H8F H 0.1994 -0.3684 1.2016
H9F H 0.1622 -0.2693 1.1246
C8F C 0.2504(2) -0.5456(5) 0.9520(3)
H13F H 0.2325 -0.3561 1.0007
H14F H 0.2741 -0.4508 1.0769
H5F H 0.2181 -0.7323 1.2234
H6F H 0.2696 -0.6369 1.1644
H7F H 0.2249 -0.5754 1.2488
H10F H 0.0908 -0.2821 1.2583
H11F H 0.0465 -0.3429 1.1684
H12F H 0.0838 -0.4420 1.2454
H15F H 0.2967 -0.5221 0.9249
H16F H 0.2534 -0.6368 0.9785
H17F H 0.2118 -0.5421 0.9024
loop_
_geom_bond_atom_site_label_1
_geom_bond_atom_site_label_2
_geom_bond_site_symmetry_1
_geom_bond_site_symmetry_2
Cd1 Cl1 1_555 1_555
Cl1 Cd1D 1_555 1_555
Cl2 Cd1 1_555 1_555
O1 Cd1 1_555 1_555
O2 Cd1 1_555 1_555
C1 O1 1_555 1_555
C2 C1 1_555 1_555
N1 C2 1_555 1_555
C3 N1 1_555 1_555
C4 C3 1_555 1_555
C5 N1 1_555 1_555
C6 C5 1_555 1_555
C7 N1 1_555 1_555
C8 C7 1_555 1_555
H1 C2 1_555 1_555
H2 C2 1_555 1_555
H3 C3 1_555 1_555
H4 C3 1_555 1_555
H5 C4 1_555 1_555
H6 C4 1_555 1_555
H7 C4 1_555 1_555
H8 C5 1_555 1_555
H9 C5 1_555 1_555
H10 C6 1_555 1_555
H11 C6 1_555 1_555
H12 C6 1_555 1_555
H13 C7 1_555 1_555
H14 C7 1_555 1_555
H15 C8 1_555 1_555
H16 C8 1_555 1_555
H17 C8 1_555 1_555
Cl1D Cd1 1_555 1_555
Cl2B Cd1 1_555 1_555
Cd1D Cl1D 1_555 1_555
Cd1B Cl2 1_555 1_555
Cl2D Cd1D 1_555 1_555
Cl2F Cd1D 1_555 1_555
O1D Cd1D 1_555 1_555
O2D Cd1D 1_555 1_555
Cl1B Cd1B 1_555 1_555
Cl1F Cd1B 1_555 1_555
O1B Cd1B 1_555 1_555
O2B Cd1B 1_555 1_555
Cd1F Cl2D 1_555 1_555
C1D O1D 1_555 1_555
Cd1F_2 Cl1B 1_555 1_555
C1B O1B 1_555 1_555
Cl1B_2 Cd1F 1_555 1_555
Cl1F_2 Cd1F 1_555 1_555
O1F Cd1F 1_555 1_555
O2F Cd1F 1_555 1_555
C2D C1D 1_555 1_555
C2B C1B 1_555 1_555
C1F O1F 1_555 1_555
N1D C2D 1_555 1_555
H1D C2D 1_555 1_555
H2D C2D 1_555 1_555
N1B C2B 1_555 1_555
H1B C2B 1_555 1_555
H2B C2B 1_555 1_555
C2F C1F 1_555 1_555
C3D N1D 1_555 1_555
C5D N1D 1_555 1_555
C7D N1D 1_555 1_555
C3B N1B 1_555 1_555
C5B N1B 1_555 1_555
C7B N1B 1_555 1_555
N1F C2F 1_555 1_555
H1F C2F 1_555 1_555
H2F C2F 1_555 1_555
C4D C3D 1_555 1_555
H3D C3D 1_555 1_555
H4D C3D 1_555 1_555
C6D C5D 1_555 1_555
H8D C5D 1_555 1_555
H9D C5D 1_555 1_555
C8D C7D 1_555 1_555
H13D C7D 1_555 1_555
H14D C7D 1_555 1_555
C4B C3B 1_555 1_555
H3B C3B 1_555 1_555
H4B C3B 1_555 1_555
C6B C5B 1_555 1_555
H8B C5B 1_555 1_555
H9B C5B 1_555 1_555
C8B C7B 1_555 1_555
H13B C7B 1_555 1_555
H14B C7B 1_555 1_555
C3F N1F 1_555 1_555
C5F N1F 1_555 1_555
C7F N1F 1_555 1_555
H5D C4D 1_555 1_555
H6D C4D 1_555 1_555
H7D C4D 1_555 1_555
H10D C6D 1_555 1_555
H11D C6D 1_555 1_555
H12D C6D 1_555 1_555
H15D C8D 1_555 1_555
H16D C8D 1_555 1_555
H17D C8D 1_555 1_555
H5B C4B 1_555 1_555
H6B C4B 1_555 1_555
H7B C4B 1_555 1_555
H10B C6B 1_555 1_555
H11B C6B 1_555 1_555
H12B C6B 1_555 1_555
H15B C8B 1_555 1_555
H16B C8B 1_555 1_555
H17B C8B 1_555 1_555
C4F C3F 1_555 1_555
H3F C3F 1_555 1_555
H4F C3F 1_555 1_555
C6F C5F 1_555 1_555
H8F C5F 1_555 1_555
H9F C5F 1_555 1_555
C8F C7F 1_555 1_555
H13F C7F 1_555 1_555
H14F C7F 1_555 1_555
H5F C4F 1_555 1_555
H6F C4F 1_555 1_555
H7F C4F 1_555 1_555
H10F C6F 1_555 1_555
H11F C6F 1_555 1_555
H12F C6F 1_555 1_555
H15F C8F 1_555 1_555
H16F C8F 1_555 1_555
H17F C8F 1_555 1_555
O2 C1 1_555 1_555
Cl2B Cd1B 1_555 1_555
Cl2F Cd1F 1_555 1_555
O2D C1D 1_555 1_555
Cl1F Cd1F_2 1_555 1_555
O2B C1B 1_555 1_555
O2F C1F 1_555 1_555

#END
