
#######################################################################
#
#                 Cambridge Crystallographic Data Centre
#                                CCDC 
#
#######################################################################
#
# If this CIF has been generated from an entry in the Cambridge 
# Structural Database, then it will include bibliographic, chemical, 
# crystal, experimental, refinement or atomic coordinate data resulting 
# from the CCDC's data processing and validation procedures.
#
#######################################################################

data_TANNIH
_symmetry_cell_setting           triclinic
_symmetry_space_group_name_H-M   'P -1'
_symmetry_Int_Tables_number      2
_space_group_name_Hall           '-P 1'
loop_
_symmetry_equiv_pos_site_id
_symmetry_equiv_pos_as_xyz
1 x,y,z
2 -x,-y,-z
_cell_length_a                   9.657(6)
_cell_length_b                   12.577(8)
_cell_length_c                   13.693(9)
_cell_angle_alpha                70.382(7)
_cell_angle_beta                 85.214(7)
_cell_angle_gamma                73.171(7)
_cell_volume                     1499.29
loop_
_atom_site_label
_atom_site_type_symbol
_atom_site_fract_x
_atom_site_fract_y
_atom_site_fract_z
Zn1 Zn -0.00110(2) 0.28515(2) 0.242220(19)
C1 C 0.3585(2) 0.33373(19) 0.34414(18)
C2 C 0.5031(2) 0.32606(18) 0.31578(16)
C3 C 0.5937(2) 0.34373(18) 0.38018(16)
C4 C 0.5403(3) 0.3652(2) 0.47144(18)
H1 H 0.6018 0.3744 0.5149
C5 C 0.3978(3) 0.3730(3) 0.4985(2)
H2 H 0.3631 0.3878 0.5594
C6 C 0.3068(2) 0.3586(2) 0.43373(19)
H3 H 0.2100 0.3656 0.4507
C7 C 0.2553(2) 0.3103(2) 0.28234(19)
C8 C 0.5584(2) 0.3003(2) 0.21731(17)
C9 C 0.7492(2) 0.34058(18) 0.35545(17)
C10 C 0.1095(3) 0.3340(2) 0.02612(19)
H4 H 0.2050 0.3120 0.0487
C11 C -0.1217(3) 0.3718(2) 0.0250(2)
H5 H -0.2168 0.3808 0.0471
C12 C -0.0792(3) 0.3939(3) -0.0745(2)
H6 H -0.1384 0.4204 -0.1329
C13 C 0.1655(3) 0.3841(3) -0.1620(2)
H7 H 0.2651 0.3557 -0.1374
H8 H 0.1464 0.4671 -0.2015
C14 C 0.1461(3) 0.3194(2) -0.23145(18)
C15 C 0.0546(3) 0.3763(2) -0.3160(2)
H9 H 0.0049 0.4553 -0.3299
C16 C 0.0352(3) 0.3171(2) -0.3814(2)
H10 H -0.0291 0.3559 -0.4374
C17 C 0.1114(3) 0.2012(2) -0.36282(19)
C18 C 0.2038(4) 0.1443(2) -0.2770(2)
H11 H 0.2551 0.0657 -0.2631
C19 C 0.2197(4) 0.2035(3) -0.2127(2)
H12 H 0.2816 0.1642 -0.1553
C20 C 0.0998(3) 0.1388(2) -0.4368(2)
H13 H 0.0548 0.1963 -0.5010
H14 H 0.1962 0.0979 -0.4525
C21 C 0.0681(3) -0.0606(2) -0.3427(2)
H15 H 0.1659 -0.0988 -0.3292
C22 C -0.1630(3) -0.0249(2) -0.3489(2)
H16 H -0.2554 -0.0351 -0.3400
C23 C -0.1322(3) 0.0774(2) -0.3987(2)
H17 H -0.1980 0.1499 -0.4298
N1 N -0.0026(2) 0.33389(17) 0.08829(15)
N2 N 0.0690(2) 0.36944(18) -0.07247(15)
N3 N 0.0148(2) 0.05369(17) -0.39448(16)
N4 N -0.0365(2) -0.11221(17) -0.31328(16)
O1 O 0.12215(16) 0.34713(16) 0.30057(14)
O2 O 0.30067(19) 0.2561(2) 0.22167(17)
O3 O 0.82807(19) 0.3369(2) 0.42280(15)
O4 O 0.79025(16) 0.33997(15) 0.26490(13)
O5 O 0.53258(19) 0.38935(16) 0.13247(12)
H25 H 0.4947 0.4498 0.1464
O6 O 0.62182(17) 0.20083(15) 0.21833(14)
Zn1A Zn 0.00110(2) -0.28515(2) -0.242220(19)
Zn1_2 Zn 0.99890(2) 0.28515(2) 0.242220(19)
Zn1_3 Zn -1.00110(2) 0.28515(2) 0.242220(19)
C1_2 C -0.6415(2) 0.33373(19) 0.34414(18)
C2_2 C -0.4969(2) 0.32606(18) 0.31578(16)
C3_2 C -0.4063(2) 0.34373(18) 0.38018(16)
C4_2 C -0.4597(3) 0.3652(2) 0.47144(18)
H1_2 H -0.3982 0.3744 0.5149
C5_2 C -0.6022(3) 0.3730(3) 0.4985(2)
H2_2 H -0.6369 0.3878 0.5594
C6_2 C -0.6932(2) 0.3586(2) 0.43373(19)
H3_2 H -0.7900 0.3656 0.4507
C7_2 C -0.7447(2) 0.3103(2) 0.28234(19)
C8_2 C -0.4416(2) 0.3003(2) 0.21731(17)
C9_2 C -0.2508(2) 0.34058(18) 0.35545(17)
C10A C -0.1095(3) -0.3340(2) -0.02612(19)
H4A H -0.2050 -0.3120 -0.0487
C11A C 0.1217(3) -0.3718(2) -0.0250(2)
H5A H 0.2168 -0.3808 -0.0471
C12A C 0.0792(3) -0.3939(3) 0.0745(2)
H6A H 0.1384 -0.4204 0.1329
C13A C -0.1655(3) -0.3841(3) 0.1620(2)
H7A H -0.2651 -0.3557 0.1374
H8A H -0.1464 -0.4671 0.2015
C14A C -0.1461(3) -0.3194(2) 0.23145(18)
C15A C -0.0546(3) -0.3763(2) 0.3160(2)
H9A H -0.0049 -0.4553 0.3299
C16A C -0.0352(3) -0.3171(2) 0.3814(2)
H10A H 0.0291 -0.3559 0.4374
C17A C -0.1114(3) -0.2012(2) 0.36282(19)
C18A C -0.2038(4) -0.1443(2) 0.2770(2)
H11A H -0.2551 -0.0657 0.2631
C19A C -0.2197(4) -0.2035(3) 0.2127(2)
H12A H -0.2816 -0.1642 0.1553
C20A C -0.0998(3) -0.1388(2) 0.4368(2)
H13A H -0.0548 -0.1963 0.5010
H14A H -0.1962 -0.0979 0.4525
C21A C -0.0681(3) 0.0606(2) 0.3427(2)
H15A H -0.1659 0.0988 0.3292
C22A C 0.1630(3) 0.0249(2) 0.3489(2)
H16A H 0.2554 0.0351 0.3400
C23A C 0.1322(3) -0.0774(2) 0.3987(2)
H17A H 0.1980 -0.1499 0.4298
N1A N 0.0026(2) -0.33389(17) -0.08829(15)
N2A N -0.0690(2) -0.36944(18) 0.07247(15)
N3A N -0.0148(2) -0.05369(17) 0.39448(16)
N4A N 0.0365(2) 0.11221(17) 0.31328(16)
O1_2 O -0.87785(16) 0.34713(16) 0.30057(14)
O1A O -0.12215(16) -0.34713(16) -0.30057(14)
O2_2 O -0.69933(19) 0.2561(2) 0.22167(17)
O3_2 O -0.17193(19) 0.3369(2) 0.42280(15)
O4_2 O -0.20975(16) 0.33997(15) 0.26490(13)
O4A O 0.20975(16) -0.33997(15) -0.26490(13)
O5_2 O -0.46742(19) 0.38935(16) 0.13247(12)
H25_2 H -0.5053 0.4498 0.1464
O6_2 O -0.37818(17) 0.20083(15) 0.21833(14)
C24 C 0.5881(3) 0.3052(2) 0.9287(2)
H18 H 0.5645 0.3028 0.9965
C25 C 0.6176(5) 0.3678(3) 0.7658(3)
H19 H 0.6179 0.4178 0.6981
C26 C 0.6655(5) 0.2504(3) 0.7965(3)
H20 H 0.7049 0.2046 0.7546
C27 C 0.6893(4) 0.0877(3) 0.9689(3)
H21 H 0.6563 0.0395 0.9388
H22 H 0.6434 0.0817 1.0356
C28 C 0.8508(4) 0.0422(2) 0.9846(2)
C29 C 0.9176(4) 0.0696(3) 1.0544(3)
H23 H 0.8626 0.1166 1.0915
C30 C 0.9362(4) -0.0283(3) 0.9307(3)
H24 H 0.8929 -0.0478 0.8835
N5 N 0.6455(3) 0.2107(2) 0.9007(2)
N6 N 0.5683(3) 0.4026(2) 0.84937(18)
C24A C 1.4119(3) -0.3052(2) 1.0713(2)
H18A H 1.4355 -0.3028 1.0035
C25A C 1.3824(5) -0.3678(3) 1.2342(3)
H19A H 1.3821 -0.4178 1.3019
C26A C 1.3345(5) -0.2504(3) 1.2035(3)
H20A H 1.2951 -0.2046 1.2454
C27A C 1.3107(4) -0.0877(3) 1.0311(3)
H21A H 1.3437 -0.0395 1.0612
H22A H 1.3566 -0.0817 0.9644
C28A C 1.1492(4) -0.0422(2) 1.0154(2)
C29A C 1.0824(4) -0.0696(3) 0.9456(3)
H23A H 1.1374 -0.1166 0.9085
C30A C 1.0638(4) 0.0283(3) 1.0693(3)
H24A H 1.1071 0.0478 1.1165
N5A N 1.3545(3) -0.2107(2) 1.0993(2)
N6A N 1.4317(3) -0.4026(2) 1.15063(18)
O7 O 0.5419(8) 1.0237(7) 0.3966(6)
H26 H 0.4652 1.0748 0.3693
H27 H 0.5313 0.9542 0.4093
O8 O 0.460(3) 0.073(2) 0.153(2)
H28 H 0.4663 0.0119 0.2095
H29 H 0.3773 0.0912 0.1249
H30? H 0.4958 0.0434 0.2165
H31? H 0.4190 0.1091 0.1239
O9? O 0.434(3) 0.043(3) 0.175(2)
loop_
_geom_bond_atom_site_label_1
_geom_bond_atom_site_label_2
_geom_bond_site_symmetry_1
_geom_bond_site_symmetry_2
Zn1 N1 1_555 1_555
C1 C2 1_555 1_555
C2 C3 1_555 1_555
C3 C4 1_555 1_555
C4 H1 1_555 1_555
C5 C4 1_555 1_555
H2 C5 1_555 1_555
C6 C1 1_555 1_555
H3 C6 1_555 1_555
C7 C1 1_555 1_555
C8 C2 1_555 1_555
C9 C3 1_555 1_555
C10 H4 1_555 1_555
C11 H5 1_555 1_555
C12 C11 1_555 1_555
H6 C12 1_555 1_555
C13 H7 1_555 1_555
H8 C13 1_555 1_555
C14 C13 1_555 1_555
C15 C14 1_555 1_555
H9 C15 1_555 1_555
C16 C15 1_555 1_555
H10 C16 1_555 1_555
C17 C16 1_555 1_555
C18 C17 1_555 1_555
H11 C18 1_555 1_555
C19 C14 1_555 1_555
H12 C19 1_555 1_555
C20 C17 1_555 1_555
H13 C20 1_555 1_555
H14 C20 1_555 1_555
C21 H15 1_555 1_555
C22 H16 1_555 1_555
C23 C22 1_555 1_555
H17 C23 1_555 1_555
C24 H18 1_555 1_555
C25 H19 1_555 1_555
C26 C25 1_555 1_555
H20 C26 1_555 1_555
C27 H21 1_555 1_555
H22 C27 1_555 1_555
C28 C27 1_555 1_555
C29 C28 1_555 1_555
H23 C29 1_555 1_555
C30 C28 1_555 1_555
H24 C30 1_555 1_555
N1 C10 1_555 1_555
N2 C10 1_555 1_555
N3 C20 1_555 1_555
N4 C21 1_555 1_555
N5 C24 1_555 1_555
N6 C24 1_555 1_555
O1 Zn1 1_555 1_555
O2 C7 1_555 1_555
O3 C9 1_555 1_555
O4 C9 1_555 1_555
O5 C8 1_555 1_555
H25 O5 1_555 1_555
O6 C8 1_555 1_555
O7 H26 1_555 1_555
H27 O7 1_555 1_555
O8 H28 1_555 1_555
H29 O8 1_555 1_555
Zn1A N4 1_555 1_555
Zn1_2 O4 1_555 1_555
Zn1_3 O1_2 1_555 1_555
C1_2 C2_2 1_555 1_555
C2_2 C3_2 1_555 1_555
C3_2 C4_2 1_555 1_555
C4_2 H1_2 1_555 1_555
C5_2 C4_2 1_555 1_555
H2_2 C5_2 1_555 1_555
C6_2 C1_2 1_555 1_555
H3_2 C6_2 1_555 1_555
C7_2 C1_2 1_555 1_555
C8_2 C2_2 1_555 1_555
C9_2 C3_2 1_555 1_555
C10A H4A 1_555 1_555
C11A H5A 1_555 1_555
C12A C11A 1_555 1_555
H6A C12A 1_555 1_555
C13A H7A 1_555 1_555
H8A C13A 1_555 1_555
C14A C13A 1_555 1_555
C15A C14A 1_555 1_555
H9A C15A 1_555 1_555
C16A C15A 1_555 1_555
H10A C16A 1_555 1_555
C17A C16A 1_555 1_555
C18A C17A 1_555 1_555
H11A C18A 1_555 1_555
C19A C14A 1_555 1_555
H12A C19A 1_555 1_555
C20A C17A 1_555 1_555
H13A C20A 1_555 1_555
H14A C20A 1_555 1_555
C21A H15A 1_555 1_555
C22A H16A 1_555 1_555
C23A C22A 1_555 1_555
H17A C23A 1_555 1_555
C24A H18A 1_555 1_555
C25A H19A 1_555 1_555
C26A C25A 1_555 1_555
H20A C26A 1_555 1_555
C27A H21A 1_555 1_555
H22A C27A 1_555 1_555
C28A C27A 1_555 1_555
C29A C30 1_555 1_555
H23A C29A 1_555 1_555
C30A C29 1_555 1_555
H24A C30A 1_555 1_555
N1A Zn1A 1_555 1_555
N2A C10A 1_555 1_555
N3A C20A 1_555 1_555
N4A Zn1 1_555 1_555
N5A C24A 1_555 1_555
N6A C24A 1_555 1_555
O1_2 C7_2 1_555 1_555
O1A Zn1A 1_555 1_555
O2_2 C7_2 1_555 1_555
O3_2 C9_2 1_555 1_555
O4_2 Zn1 1_555 1_555
O4A Zn1A 1_555 1_555
O5_2 C8_2 1_555 1_555
H25_2 O5_2 1_555 1_555
O6_2 C8_2 1_555 1_555
C5 C6 1_555 1_555
C7 O1 1_555 1_555
C11 N1 1_555 1_555
C12 N2 1_555 1_555
C13 N2 1_555 1_555
C18 C19 1_555 1_555
C21 N3 1_555 1_555
C22 N4 1_555 1_555
C23 N3 1_555 1_555
C25 N6 1_555 1_555
C26 N5 1_555 1_555
C27 N5 1_555 1_555
C5_2 C6_2 1_555 1_555
C9_2 O4_2 1_555 1_555
C10A N1A 1_555 1_555
C11A N1A 1_555 1_555
C12A N2A 1_555 1_555
C13A N2A 1_555 1_555
C18A C19A 1_555 1_555
C21A N3A 1_555 1_555
C21A N4A 1_555 1_555
C22A N4A 1_555 1_555
C23A N3A 1_555 1_555
C25A N6A 1_555 1_555
C26A N5A 1_555 1_555
C27A N5A 1_555 1_555
C28A C29A 1_555 1_555
C28A C30A 1_555 1_555

#END
