
#######################################################################
#
#                 Cambridge Crystallographic Data Centre
#                                CCDC 
#
#######################################################################
#
# If this CIF has been generated from an entry in the Cambridge 
# Structural Database, then it will include bibliographic, chemical, 
# crystal, experimental, refinement or atomic coordinate data resulting 
# from the CCDC's data processing and validation procedures.
#
#######################################################################

data_TANPAB
_symmetry_cell_setting           monoclinic
_symmetry_space_group_name_H-M   'P 21/c'
_symmetry_Int_Tables_number      14
_space_group_name_Hall           '-P 2ybc'
loop_
_symmetry_equiv_pos_site_id
_symmetry_equiv_pos_as_xyz
1 x,y,z
2 -x,1/2+y,1/2-z
3 -x,-y,-z
4 x,1/2-y,1/2+z
_cell_length_a                   10.5883(10)
_cell_length_b                   20.2922(19)
_cell_length_c                   24.9206(19)
_cell_angle_alpha                90
_cell_angle_beta                 111.197(3)
_cell_angle_gamma                90
_cell_volume                     4992.17
loop_
_atom_site_label
_atom_site_type_symbol
_atom_site_fract_x
_atom_site_fract_y
_atom_site_fract_z
Zn1 Zn 0.91471(5) 0.28230(3) 0.96341(2)
Zn2 Zn 0.25119(5) 0.56581(3) 1.22143(2)
Zn3 Zn 2.13183(5) -0.02862(3) 1.17922(2)
C1 C 0.5907(4) 0.1535(2) 0.90187(18)
C2 C 0.5649(4) 0.0956(2) 0.86887(18)
C3 C 0.4355(4) 0.0664(2) 0.85206(18)
C4 C 0.3365(4) 0.0941(2) 0.86890(18)
H1 H 0.2508 0.0751 0.8569
C5 C 0.3630(4) 0.1497(2) 0.90331(19)
H2 H 0.2967 0.1672 0.9154
C6 C 0.4893(4) 0.1788(2) 0.91948(18)
H3 H 0.5072 0.2161 0.9427
C7 C 0.7208(4) 0.1922(2) 0.91561(19)
C8 C 0.6736(4) 0.0660(2) 0.8497(2)
C9 C 0.4023(5) 0.0060(2) 0.81422(19)
C10 C 1.2410(4) 0.3851(2) 0.80943(18)
C11 C 1.1495(4) 0.3767(2) 0.83790(18)
C12 C 1.1956(4) 0.3501(2) 0.89342(18)
C13 C 1.3312(4) 0.3316(2) 0.91872(19)
H4 H 1.3627 0.3148 0.9560
C14 C 1.4198(4) 0.3376(2) 0.88982(18)
H5 H 1.5092 0.3237 0.9069
C15 C 1.3742(4) 0.3644(2) 0.83525(18)
H6 H 1.4334 0.3686 0.8155
C16 C 1.2057(4) 0.4202(2) 0.75251(19)
C17 C 1.0019(4) 0.3954(2) 0.80639(19)
C18 C 1.1096(4) 0.3387(2) 0.92935(19)
C19 C 1.1276(5) 0.1820(3) 1.0017(2)
H7 H 1.1373 0.1853 0.9662
C20 C 1.0582(5) 0.1960(3) 1.0707(2)
H8 H 1.0096 0.2114 1.0926
C21 C 1.1547(5) 0.1491(3) 1.0875(2)
H9 H 1.1849 0.1270 1.1226
C22 C 1.3089(5) 0.0968(3) 1.0420(2)
H10 H 1.2865 0.0790 1.0035
H11 H 1.3174 0.0602 1.0681
C23 C 1.4426(5) 0.1330(3) 1.0592(2)
H12 H 1.4677 0.1485 1.0985
H13 H 1.4326 0.1711 1.0345
C24 C 1.5539(5) 0.0890(3) 1.0545(2)
H14 H 1.5645 0.0511 1.0795
H15 H 1.5282 0.0730 1.0153
C25 C 1.6877(5) 0.1254(3) 1.0712(3)
H16 H 1.6818 0.1581 1.0420
H17 H 1.7049 0.1482 1.1073
C26 C 1.8900(5) 0.0576(3) 1.1272(2)
H18 H 1.8910 0.0698 1.1633
C27 C 1.9395(5) 0.0121(3) 1.0599(2)
H19 H 1.9832 -0.0136 1.0410
C28 C 1.8320(5) 0.0513(3) 1.0337(2)
H20 H 1.7876 0.0572 0.9944
C29 C 0.7732(5) 0.3920(2) 1.0004(2)
H21 H 0.6890 0.3776 0.9756
C30 C 0.9864(5) 0.3987(2) 1.0471(2)
H22 H 1.0787 0.3897 1.0605
C31 C 0.9280(5) 0.4497(2) 1.0647(2)
H23 H 0.9720 0.4814 1.0921
C32 C 0.6884(5) 0.4888(2) 1.0400(2)
H24 H 0.6045 0.4817 1.0077
H25 H 0.7156 0.5342 1.0386
C33 C 0.6643(5) 0.4772(2) 1.0957(2)
H26 H 0.7474 0.4862 1.1279
H27 H 0.5961 0.5080 1.0978
C34 C 0.6184(5) 0.4077(2) 1.1015(2)
H28 H 0.6925 0.3775 1.1061
H29 H 0.5444 0.3960 1.0664
C35 C 0.5722(5) 0.3995(3) 1.1520(2)
H30 H 0.5462 0.3540 1.1541
H31 H 0.6465 0.4098 1.1874
C36 C 0.4478(5) 0.4826(2) 1.1877(2)
H32 H 0.5140 0.4861 1.2243
C37 C 0.3409(5) 0.4512(2) 1.0988(2)
H33 H 0.3179 0.4299 1.0635
C38 C 0.2670(5) 0.4967(2) 1.1139(2)
H34 H 0.1835 0.5127 1.0898
C39 C 0.4669(4) 0.6674(2) 1.26619(19)
H35 H 0.5293 0.6368 1.2885
C40 C 0.2830(5) 0.7124(2) 1.2082(2)
H36 H 0.1942 0.7175 1.1828
C41 C 0.3758(5) 0.7610(2) 1.2258(2)
H37 H 0.3632 0.8052 1.2154
C42 C 0.6241(5) 0.7631(2) 1.2942(2)
H38 H 0.6246 0.7775 1.3314
H39 H 0.6955 0.7306 1.3010
C43 C 0.6538(5) 0.8215(2) 1.2628(2)
H40 H 0.6631 0.8068 1.2274
H41 H 0.5791 0.8526 1.2529
C44 C 0.7840(5) 0.8554(2) 1.3007(2)
H42 H 0.7824 0.8597 1.3392
H43 H 0.7856 0.8995 1.2860
C45 C 0.9140(5) 0.8203(3) 1.3046(2)
H44 H 0.9006 0.7731 1.3055
H45 H 0.9857 0.8327 1.3402
C46 C 1.0076(5) 0.8942(2) 1.2484(2)
H46 H 1.0171 0.9307 1.2721
C47 C 0.9575(5) 0.7953(3) 1.2128(2)
H47 H 0.9274 0.7519 1.2069
C48 C 1.0113(5) 0.8305(2) 1.1800(2)
H48 H 1.0243 0.8150 1.1472
N1 N 1.0421(4) 0.21758(19) 1.01648(15)
N2 N 1.1993(4) 0.1406(2) 1.04315(18)
N3 N 1.9749(4) 0.0159(2) 1.11856(16)
N4 N 1.8011(4) 0.0807(3) 1.07718(19)
N5 N 0.8885(4) 0.36249(18) 1.00649(15)
N6 N 0.7922(4) 0.44534(18) 1.03446(15)
N7 N 0.3332(4) 0.51608(18) 1.17015(16)
N8 N 0.4571(4) 0.44267(19) 1.14625(17)
N9 N 0.3401(4) 0.65385(18) 1.23381(15)
N10 N 0.4926(4) 0.73192(18) 1.26214(16)
N11 N 1.0435(4) 0.89273(19) 1.20279(16)
N12 N 0.9560(4) 0.83619(19) 1.25632(17)
O1 O 0.7290(3) 0.24641(15) 0.94370(14)
O2 O 0.8120(3) 0.17249(16) 0.90015(13)
O3 O 0.7631(3) 0.03159(17) 0.88396(17)
O4 O 0.6685(3) 0.07897(17) 0.79970(16)
O5 O 0.4917(3) -0.03129(15) 0.81298(14)
O6 O 0.2747(3) -0.00148(15) 0.78341(13)
O7 O 1.1600(3) 0.47867(15) 0.75091(12)
O8 O 1.2306(3) 0.39297(18) 0.71328(14)
O9 O 0.9443(3) 0.43198(15) 0.83240(13)
O10 O 0.9445(3) 0.37356(15) 0.75741(13)
O11 O 0.9990(3) 0.30614(14) 0.90665(12)
O12 O 1.1554(3) 0.35713(17) 0.97993(13)
Zn2C Zn 0.25119(5) -0.06581(3) 0.72143(2)
Zn2B Zn 0.74881(5) 0.43419(3) 0.77857(2)
Zn3_2 Zn 1.13183(5) 0.97138(3) 1.17922(2)
Zn3B Zn 0.86817(5) 0.02862(3) 0.82078(2)
Zn3C Zn 1.13183(5) 0.52862(3) 0.67922(2)
N11_2 N 2.0435(4) -0.10727(19) 1.20279(16)
O3B O 2.2369(3) -0.03159(17) 1.11604(17)
O4B O 2.3315(3) -0.07897(17) 1.20030(16)
O6C O 0.2747(3) 0.50148(15) 1.28341(13)
O7C O 2.1600(3) 0.02133(15) 1.25091(12)
O9B O 0.0557(3) 0.56802(15) 1.16760(13)
O13 O 0.3675(13) 0.2934(6) 0.0679(4)
H49 H 0.3017 0.2848 0.0769
H50 H 0.4229 0.2675 0.0663
O14 O 0.648(3) 0.2714(12) 0.0475(11)
H51 H 0.6202 0.2628 0.0748
H52 H 0.5799 0.2756 0.0163
O15 O 0.2094(9) 0.7370(5) 0.3241(4)
H53 H 0.130(12) 0.723(6) 0.277(5)
H54 H 0.159(16) 0.695(7) 0.310(7)
H55? H 0.1590 0.6952 0.3101
H56? H 0.0464 0.6857 0.3270
O16? O 0.123(2) 0.7081(9) 0.3343(6)
loop_
_geom_bond_atom_site_label_1
_geom_bond_atom_site_label_2
_geom_bond_site_symmetry_1
_geom_bond_site_symmetry_2
Zn1 N1 1_555 1_555
Zn2 N7 1_555 1_555
Zn3 N3 1_555 1_555
C1 C2 1_555 1_555
C2 C3 1_555 1_555
C3 C4 1_555 1_555
C4 H1 1_555 1_555
C5 C4 1_555 1_555
H2 C5 1_555 1_555
C6 C1 1_555 1_555
H3 C6 1_555 1_555
C7 C1 1_555 1_555
C8 C2 1_555 1_555
C9 C3 1_555 1_555
C10 C11 1_555 1_555
C11 C12 1_555 1_555
C12 C13 1_555 1_555
C13 H4 1_555 1_555
C14 C13 1_555 1_555
H5 C14 1_555 1_555
C15 C10 1_555 1_555
H6 C15 1_555 1_555
C16 C10 1_555 1_555
C17 C11 1_555 1_555
C18 C12 1_555 1_555
C19 H7 1_555 1_555
C20 H8 1_555 1_555
C21 C20 1_555 1_555
H9 C21 1_555 1_555
C22 H10 1_555 1_555
H11 C22 1_555 1_555
C23 C22 1_555 1_555
H12 C23 1_555 1_555
H13 C23 1_555 1_555
C24 C23 1_555 1_555
H14 C24 1_555 1_555
H15 C24 1_555 1_555
C25 C24 1_555 1_555
H16 C25 1_555 1_555
H17 C25 1_555 1_555
C26 H18 1_555 1_555
C27 H19 1_555 1_555
C28 C27 1_555 1_555
H20 C28 1_555 1_555
C29 H21 1_555 1_555
C30 H22 1_555 1_555
C31 C30 1_555 1_555
H23 C31 1_555 1_555
C32 H24 1_555 1_555
H25 C32 1_555 1_555
C33 C32 1_555 1_555
H26 C33 1_555 1_555
H27 C33 1_555 1_555
C34 C33 1_555 1_555
H28 C34 1_555 1_555
H29 C34 1_555 1_555
C35 C34 1_555 1_555
H30 C35 1_555 1_555
H31 C35 1_555 1_555
C36 H32 1_555 1_555
C37 H33 1_555 1_555
C38 C37 1_555 1_555
H34 C38 1_555 1_555
C39 H35 1_555 1_555
C40 H36 1_555 1_555
C41 C40 1_555 1_555
H37 C41 1_555 1_555
C42 H38 1_555 1_555
H39 C42 1_555 1_555
C43 C42 1_555 1_555
H40 C43 1_555 1_555
H41 C43 1_555 1_555
C44 C43 1_555 1_555
H42 C44 1_555 1_555
H43 C44 1_555 1_555
C45 C44 1_555 1_555
H44 C45 1_555 1_555
H45 C45 1_555 1_555
C46 H46 1_555 1_555
C47 H47 1_555 1_555
C48 C47 1_555 1_555
H48 C48 1_555 1_555
N1 C19 1_555 1_555
N2 C19 1_555 1_555
N3 C26 1_555 1_555
N4 C25 1_555 1_555
N5 Zn1 1_555 1_555
N6 C29 1_555 1_555
N7 C36 1_555 1_555
N8 C35 1_555 1_555
N9 Zn2 1_555 1_555
N10 C39 1_555 1_555
N11 C46 1_555 1_555
N12 C45 1_555 1_555
O1 Zn1 1_555 1_555
O2 C7 1_555 1_555
O3 C8 1_555 1_555
O4 C8 1_555 1_555
O5 C9 1_555 1_555
O6 C9 1_555 1_555
O7 C16 1_555 1_555
O8 C16 1_555 1_555
O9 C17 1_555 1_555
O10 C17 1_555 1_555
O11 Zn1 1_555 1_555
O12 C18 1_555 1_555
O13 H49 1_555 1_555
H50 O13 1_555 1_555
O14 H51 1_555 1_555
H52 O14 1_555 1_555
O15 H53 1_555 1_555
H54 O15 1_555 1_555
Zn2C O6 1_555 1_555
Zn2B O9 1_555 1_555
Zn3_2 N11 1_555 1_555
Zn3B O3 1_555 1_555
Zn3C O7 1_555 1_555
N11_2 Zn3 1_555 1_555
O3B Zn3 1_555 1_555
O4B Zn3 1_555 1_555
O6C Zn2 1_555 1_555
O7C Zn3 1_555 1_555
O9B Zn2 1_555 1_555
C5 C6 1_555 1_555
C7 O1 1_555 1_555
C14 C15 1_555 1_555
C18 O11 1_555 1_555
C20 N1 1_555 1_555
C21 N2 1_555 1_555
C22 N2 1_555 1_555
C26 N4 1_555 1_555
C27 N3 1_555 1_555
C28 N4 1_555 1_555
C29 N5 1_555 1_555
C30 N5 1_555 1_555
C31 N6 1_555 1_555
C32 N6 1_555 1_555
C36 N8 1_555 1_555
C37 N8 1_555 1_555
C38 N7 1_555 1_555
C39 N9 1_555 1_555
C40 N9 1_555 1_555
C41 N10 1_555 1_555
C42 N10 1_555 1_555
C46 N12 1_555 1_555
C47 N12 1_555 1_555
C48 N11 1_555 1_555
O4 Zn3B 1_555 1_555

#END
