
#######################################################################
#
#                 Cambridge Crystallographic Data Centre
#                                CCDC 
#
#######################################################################
#
# If this CIF has been generated from an entry in the Cambridge 
# Structural Database, then it will include bibliographic, chemical, 
# crystal, experimental, refinement or atomic coordinate data resulting 
# from the CCDC's data processing and validation procedures.
#
#######################################################################

data_TANPEF
_symmetry_cell_setting           monoclinic
_symmetry_space_group_name_H-M   'P 21/c'
_symmetry_Int_Tables_number      14
_space_group_name_Hall           '-P 2ybc'
loop_
_symmetry_equiv_pos_site_id
_symmetry_equiv_pos_as_xyz
1 x,y,z
2 -x,1/2+y,1/2-z
3 -x,-y,-z
4 x,1/2-y,1/2+z
_cell_length_a                   10.0224(8)
_cell_length_b                   19.0867(15)
_cell_length_c                   17.2808(11)
_cell_angle_alpha                90
_cell_angle_beta                 120.691(3)
_cell_angle_gamma                90
_cell_volume                     2842.7
loop_
_atom_site_label
_atom_site_type_symbol
_atom_site_fract_x
_atom_site_fract_y
_atom_site_fract_z
Zn1 Zn -0.26869(3) -0.290751(15) 0.593135(17)
O1 O -0.47924(19) -0.30306(10) 0.56909(11)
O2 O -0.5245(2) -0.35324(10) 0.44166(12)
O3 O -0.7420(2) -0.23460(11) 0.31152(13)
O4 O -1.1151(2) -0.24846(11) 0.21044(12)
O5 O -1.2560(3) -0.33283(15) 0.21755(18)
N1 N -0.1484(2) -0.38065(11) 0.61555(13)
N2 N 0.0462(2) -0.45441(11) 0.68305(14)
N3 N 0.7331(2) -0.27054(12) 0.99988(14)
N4 N 0.6909(3) -0.31546(11) 0.87263(14)
N5 N -0.8147(3) -0.33993(13) 0.24295(14)
C1 C -0.7390(3) -0.32704(12) 0.46009(15)
C2 C -0.8517(3) -0.31366(12) 0.36966(15)
C3 C -1.0084(3) -0.31389(12) 0.34420(15)
C4 C -0.7845(3) -0.33857(14) 0.52254(16)
H1 H -0.7095 -0.3463 0.5825
C5 C -0.9391(3) -0.33875(15) 0.49702(18)
H2 H -0.9683 -0.3465 0.5395
C6 C -1.0506(3) -0.32725(13) 0.40787(17)
H3 H -1.1551 -0.3285 0.3903
C7 C -0.5688(3) -0.32890(13) 0.49053(16)
C8 C -0.7984(3) -0.29321(14) 0.30476(16)
C9 C -1.1380(3) -0.29873(13) 0.24904(17)
C10 C -0.8646(4) -0.41172(17) 0.2406(2)
H4 H -0.8065 -0.4318 0.2997
H5 H -0.8473 -0.4385 0.1995
H6 H -0.9731 -0.4123 0.2211
C11 C -0.7511(4) -0.3224(3) 0.1853(2)
H7 H -0.7703 -0.2739 0.1685
H8 H -0.8001 -0.3510 0.1321
H9 H -0.6413 -0.3310 0.2175
C12 C -0.0095(3) -0.39127(13) 0.68626(16)
H10 H 0.0433 -0.3591 0.7325
C13 C -0.0635(3) -0.48555(15) 0.6050(2)
H11 H -0.0569 -0.5295 0.5839
C14 C -0.1830(3) -0.44046(15) 0.56457(19)
H12 H -0.2747 -0.4485 0.5105
C15 C 0.1969(3) -0.48391(15) 0.75213(19)
H13 H 0.1859 -0.5341 0.7554
H14 H 0.2249 -0.4642 0.8102
C16 C 0.3261(3) -0.46991(13) 0.73373(17)
C17 C 0.4101(3) -0.40789(13) 0.76139(16)
H15 H 0.3843 -0.3739 0.7901
C18 C 0.5320(3) -0.39583(13) 0.74678(16)
C19 C 0.5685(3) -0.44635(15) 0.70305(18)
H16 H 0.6494 -0.4386 0.6924
C20 C 0.4855(3) -0.50823(17) 0.6750(2)
H17 H 0.5108 -0.5420 0.6459
C21 C 0.3656(3) -0.51975(16) 0.6903(2)
H18 H 0.3101 -0.5615 0.6714
C22 C 0.6223(4) -0.32820(15) 0.77580(18)
H19 H 0.7042 -0.3299 0.7616
H20 H 0.5538 -0.2897 0.7424
C23 C 0.6462(3) -0.26748(14) 0.91113(16)
H21 H 0.5650 -0.2361 0.8797
C24 C 0.8372(4) -0.32310(18) 1.0175(2)
H22 H 0.9136 -0.3375 1.0746
C25 C 0.8126(4) -0.35103(18) 0.9398(2)
H23 H 0.8678 -0.3874 0.9333
Zn1C Zn -1.26869(3) -0.209249(15) 0.093135(17)
Zn1C_2 Zn 0.73131(3) -0.209249(15) 1.093135(17)
O4C O -0.1151(2) -0.25154(11) 0.71044(12)
N3C N -0.2669(2) -0.22946(12) 0.49988(14)
O6 O -0.9564(7) -0.4360(4) -0.1035(5)
N6 N -0.7072(5) -0.41503(18) -0.0010(2)
C26 C -0.8376(11) -0.3904(5) -0.0684(5)
H24 H -0.8469 -0.3449 -0.0900
C27 C -0.7041(15) -0.4848(3) 0.0328(7)
H25 H -0.8030 -0.4950 0.0265
H26 H -0.6247 -0.4872 0.0952
H27 H -0.6826 -0.5183 -0.0008
C28 C -0.5696(9) -0.3707(5) 0.0342(7)
H28 H -0.4920 -0.3939 0.0267
H29 H -0.5295 -0.3620 0.0970
H30 H -0.5967 -0.3270 0.0022
loop_
_geom_bond_atom_site_label_1
_geom_bond_atom_site_label_2
_geom_bond_site_symmetry_1
_geom_bond_site_symmetry_2
Zn1 O1 1_555 1_555
O1 C7 1_555 1_555
O2 C7 1_555 1_555
O3 C8 1_555 1_555
O4 C9 1_555 1_555
O5 C9 1_555 1_555
N1 Zn1 1_555 1_555
N2 C12 1_555 1_555
N3 C23 1_555 1_555
N4 C22 1_555 1_555
N5 C8 1_555 1_555
C1 C2 1_555 1_555
C2 C3 1_555 1_555
C3 C6 1_555 1_555
C4 C1 1_555 1_555
H1 C4 1_555 1_555
C5 C4 1_555 1_555
H2 C5 1_555 1_555
C6 C5 1_555 1_555
H3 C6 1_555 1_555
C7 C1 1_555 1_555
C8 C2 1_555 1_555
C9 C3 1_555 1_555
C10 N5 1_555 1_555
H4 C10 1_555 1_555
H5 C10 1_555 1_555
H6 C10 1_555 1_555
C11 N5 1_555 1_555
H7 C11 1_555 1_555
H8 C11 1_555 1_555
H9 C11 1_555 1_555
C12 N1 1_555 1_555
H10 C12 1_555 1_555
C13 N2 1_555 1_555
H11 C13 1_555 1_555
C14 N1 1_555 1_555
H12 C14 1_555 1_555
C15 N2 1_555 1_555
H13 C15 1_555 1_555
H14 C15 1_555 1_555
C16 C15 1_555 1_555
C17 C16 1_555 1_555
H15 C17 1_555 1_555
C18 C17 1_555 1_555
C19 C18 1_555 1_555
H16 C19 1_555 1_555
C20 C19 1_555 1_555
H17 C20 1_555 1_555
C21 C16 1_555 1_555
H18 C21 1_555 1_555
C22 C18 1_555 1_555
H19 C22 1_555 1_555
H20 C22 1_555 1_555
C23 N4 1_555 1_555
H21 C23 1_555 1_555
C24 N3 1_555 1_555
H22 C24 1_555 1_555
C25 N4 1_555 1_555
H23 C25 1_555 1_555
O6 C26 1_555 1_555
N6 C26 1_555 1_555
C26 H24 1_555 1_555
C27 N6 1_555 1_555
H25 C27 1_555 1_555
H26 C27 1_555 1_555
H27 C27 1_555 1_555
C28 N6 1_555 1_555
H28 C28 1_555 1_555
H29 C28 1_555 1_555
H30 C28 1_555 1_555
Zn1C O4 1_555 1_555
Zn1C_2 N3 1_555 1_555
O4C Zn1 1_555 1_555
N3C Zn1 1_555 1_555
C13 C14 1_555 1_555
C20 C21 1_555 1_555
C24 C25 1_555 1_555

#END
