
#######################################################################
#
#                 Cambridge Crystallographic Data Centre
#                                CCDC 
#
#######################################################################
#
# If this CIF has been generated from an entry in the Cambridge 
# Structural Database, then it will include bibliographic, chemical, 
# crystal, experimental, refinement or atomic coordinate data resulting 
# from the CCDC's data processing and validation procedures.
#
#######################################################################

data_TANREF
_symmetry_cell_setting           monoclinic
_symmetry_space_group_name_H-M   'P 21/n'
_symmetry_Int_Tables_number      14
_space_group_name_Hall           '-P 2yn'
loop_
_symmetry_equiv_pos_site_id
_symmetry_equiv_pos_as_xyz
1 x,y,z
2 1/2-x,1/2+y,1/2-z
3 -x,-y,-z
4 1/2+x,1/2-y,1/2+z
_cell_length_a                   10.404(4)
_cell_length_b                   16.454(5)
_cell_length_c                   13.539(5)
_cell_angle_alpha                90
_cell_angle_beta                 103.99(3)
_cell_angle_gamma                90
_cell_volume                     2248.96
loop_
_atom_site_label
_atom_site_type_symbol
_atom_site_fract_x
_atom_site_fract_y
_atom_site_fract_z
O4 O 0.064(1) 0.0806(9) 0.149(1)
N3 N 0.087(2) 0.001(1) 0.459(2)
C25 C 0.163(3) -0.016(2) 0.387(2)
C26 C 0.098(3) 0.088(2) 0.504(3)
O5 O 0.199(2) 0.030(1) 0.336(2)
C27 C 0.004(3) -0.061(2) 0.492(2)
C27B C -0.004(3) 0.061(2) 0.508(2)
N3B N -0.087(2) -0.001(1) 0.541(2)
C26B C -0.098(3) -0.088(2) 0.496(3)
C25B C -0.163(3) 0.016(2) 0.613(2)
O5B O -0.199(2) -0.030(1) 0.664(2)
Cu1 Cu 0.60933(9) 0.06246(6) 0.02345(7)
O1 O 0.4420(5) 0.0383(3) -0.0780(4)
O2 O 0.8800(6) -0.0394(4) 0.2446(5)
O3 O 0.7763(5) 0.0431(4) 0.1218(4)
N1 N 0.6968(6) 0.1318(4) -0.0610(5)
N2 N 0.5232(6) 0.1496(4) 0.1207(5)
C1 C 0.6507(8) 0.2014(5) -0.1024(6)
C2 C 0.7156(8) 0.2469(5) -0.1650(6)
C3 C 0.3817(8) 0.1523(5) 0.2380(7)
C4 C 0.4431(9) 0.1125(5) 0.1725(7)
C5 C 0.5426(8) 0.2287(5) 0.1356(7)
C6 C 0.4849(8) 0.2753(5) 0.1989(7)
C7 C 0.8779(8) 0.1440(5) -0.1426(6)
C8 C 0.8126(8) 0.1027(5) -0.0812(7)
C9 C 0.8317(7) 0.2167(5) -0.1847(6)
C10 C 0.4001(8) 0.2368(5) 0.2500(6)
C11 C 0.237(1) 0.1691(8) -0.0309(8)
C12 C 0.203(1) 0.248(1) -0.009(1)
C13 C 0.225(2) 0.312(1) -0.070(2)
C14 C 0.274(1) 0.3016(7) -0.150(1)
C15 C 0.383(1) 0.234(1) -0.336(1)
C16 C 0.428(1) 0.187(1) -0.410(1)
C17 C 0.448(1) 0.106(2) -0.402(1)
C18 C 0.417(1) 0.059(1) -0.3163(8)
C19 C 0.3376(7) 0.0784(4) -0.1488(6)
C20 C 0.2942(8) 0.1583(5) -0.1099(7)
C21 C 0.309(1) 0.2216(6) -0.172(1)
C22 C 0.359(1) 0.1908(7) -0.256(1)
C23 C 0.3776(8) 0.1072(7) -0.2451(7)
C24 C 0.7829(7) -0.0211(5) 0.1767(6)
O1B O 0.5580(5) -0.0383(3) 0.0780(4)
Cu1B Cu 0.39067(9) -0.06246(6) -0.02345(7)
C10C C 0.9001(8) 0.2632(5) -0.2500(6)
C9C C 0.3317(7) 0.2833(5) 0.3153(6)
C24B C 0.2171(7) 0.0211(5) -0.1767(6)
C19B C 0.6624(7) -0.0784(4) 0.1488(6)
O3B O 0.2237(5) -0.0431(4) -0.1218(4)
N1B N 0.3032(6) -0.1318(4) 0.0610(5)
N2B N 0.4768(6) -0.1496(4) -0.1207(5)
C3C C 0.8817(8) 0.3477(5) -0.2620(7)
C6C C 0.9849(8) 0.2247(5) -0.3011(7)
C2C C 0.2156(8) 0.2531(5) 0.3350(6)
C7C C 0.3779(8) 0.3560(5) 0.3574(6)
O2B O 0.1200(6) 0.0394(4) -0.2446(5)
C20B C 0.7058(8) -0.1583(5) 0.1099(7)
C23B C 0.6224(8) -0.1072(7) 0.2451(7)
C1B C 0.3493(8) -0.2014(5) 0.1024(6)
C8B C 0.1874(8) -0.1027(5) 0.0812(7)
C4B C 0.5569(9) -0.1125(5) -0.1725(7)
C5B C 0.4574(8) -0.2287(5) -0.1356(7)
C4C C 0.9431(9) 0.3875(5) -0.3275(7)
C5C C 1.0426(8) 0.2713(5) -0.3644(7)
C1C C 0.1507(8) 0.2986(5) 0.3976(6)
C8C C 0.3126(8) 0.3973(5) 0.4188(7)
C11B C 0.763(1) -0.1691(8) 0.0309(8)
C21B C 0.691(1) -0.2216(6) 0.172(1)
C18B C 0.583(1) -0.059(1) 0.3163(8)
C22B C 0.641(1) -0.1908(7) 0.256(1)
C2B C 0.2844(8) -0.2469(5) 0.1650(6)
C7B C 0.1221(8) -0.1440(5) 0.1426(6)
C3B C 0.6183(8) -0.1523(5) -0.2380(7)
C6B C 0.5151(8) -0.2753(5) -0.1989(7)
N2C N 1.0232(6) 0.3504(4) -0.3793(5)
N1C N 0.1968(6) 0.3682(4) 0.4390(5)
C12B C 0.797(1) -0.248(1) 0.009(1)
C14B C 0.726(1) -0.3016(7) 0.150(1)
C17B C 0.552(1) -0.106(2) 0.402(1)
C15B C 0.617(1) -0.234(1) 0.336(1)
C9B C 0.1683(7) -0.2167(5) 0.1847(6)
C10B C 0.5999(8) -0.2368(5) -0.2500(6)
Cu1C Cu 1.10933(9) 0.43754(6) -0.47655(7)
Cu1C_2 Cu 0.10933(9) 0.43754(6) 0.52345(7)
C13B C 0.775(2) -0.312(1) 0.070(2)
C16B C 0.572(1) -0.187(1) 0.410(1)
C10A C 0.0999(8) -0.2632(5) 0.2500(6)
C9A C 0.6683(7) -0.2833(5) -0.3153(6)
O1A O 1.0580(5) 0.5383(3) -0.4220(4)
O1C O 0.9420(5) 0.4617(3) -0.5780(4)
O3C O 1.2763(5) 0.4569(4) -0.3782(4)
N1C_2 N 1.1968(6) 0.3682(4) -0.5610(5)
C3A C 0.1183(8) -0.3477(5) 0.2620(7)
C6A C 0.0151(8) -0.2247(5) 0.3011(7)
C2A C 0.7844(8) -0.2531(5) -0.3350(6)
C7A C 0.6221(8) -0.3560(5) -0.3574(6)
Cu1A Cu 0.89067(9) 0.56246(6) -0.52345(7)
C19A C 1.1624(7) 0.5784(4) -0.3512(6)
C19C C 0.8376(7) 0.4216(4) -0.6488(6)
C24C C 1.2829(7) 0.5211(5) -0.3233(6)
C4A C 0.0569(9) -0.3875(5) 0.3275(7)
C5A C -0.0426(8) -0.2713(5) 0.3644(7)
C1A C 0.8493(8) -0.2986(5) -0.3976(6)
C8A C 0.6874(8) -0.3973(5) -0.4188(7)
O3A O 0.7237(5) 0.5431(4) -0.6218(4)
N1A N 0.8032(6) 0.6318(4) -0.4390(5)
N2A N 0.9768(6) 0.6496(4) -0.6207(5)
C20A C 1.2058(8) 0.6583(5) -0.3901(7)
C23A C 1.1224(8) 0.6072(7) -0.2549(7)
C20C C 0.7942(8) 0.3417(5) -0.6099(7)
C23C C 0.8776(8) 0.3928(7) -0.7451(7)
C24A C 0.7171(7) 0.4789(5) -0.6767(6)
O2C O 1.3800(6) 0.5394(4) -0.2554(5)
N2A_2 N -0.0232(6) -0.3504(4) 0.3793(5)
N1A_2 N 0.8032(6) -0.3682(4) -0.4390(5)
C1A_2 C 0.8493(8) 0.7014(5) -0.3976(6)
C8A_2 C 0.6874(8) 0.6027(5) -0.4188(7)
C4A_2 C 1.0569(9) 0.6125(5) -0.6725(7)
C5A_2 C 0.9574(8) 0.7287(5) -0.6356(7)
C11A C 1.263(1) 0.6691(8) -0.4691(8)
C21A C 1.191(1) 0.7216(6) -0.328(1)
C18A C 1.083(1) 0.559(1) -0.1837(8)
C22A C 1.141(1) 0.6908(7) -0.244(1)
C11C C 0.737(1) 0.3309(8) -0.5309(8)
C21C C 0.809(1) 0.2784(6) -0.672(1)
C18C C 0.917(1) 0.441(1) -0.8163(8)
C22C C 0.859(1) 0.3092(7) -0.756(1)
O2A O 0.6200(6) 0.4606(4) -0.7446(5)
C12A C 1.297(1) 0.748(1) -0.491(1)
C14A C 1.226(1) 0.8016(7) -0.350(1)
C17A C 1.052(1) 0.606(2) -0.098(1)
C15A C 1.117(1) 0.734(1) -0.164(1)
C12C C 0.703(1) 0.252(1) -0.509(1)
C14C C 0.774(1) 0.1984(7) -0.650(1)
C17C C 0.948(1) 0.394(2) -0.902(1)
C15C C 0.883(1) 0.266(1) -0.836(1)
C13A C 1.275(2) 0.812(1) -0.430(2)
C16A C 1.072(1) 0.687(1) -0.090(1)
C13C C 0.725(2) 0.188(1) -0.570(2)
C16C C 0.928(1) 0.313(1) -0.910(1)
loop_
_geom_bond_atom_site_label_1
_geom_bond_atom_site_label_2
_geom_bond_site_symmetry_1
_geom_bond_site_symmetry_2
Cu1 O1 1_555 1_555
O1 C19 1_555 1_555
O2 C24 1_555 1_555
O3 Cu1 1_555 1_555
N1 Cu1 1_555 1_555
N2 Cu1 1_555 1_555
C1 N1 1_555 1_555
C2 C1 1_555 1_555
C3 C4 1_555 1_555
C4 N2 1_555 1_555
C5 N2 1_555 1_555
C6 C5 1_555 1_555
C7 C8 1_555 1_555
C8 N1 1_555 1_555
C9 C2 1_555 1_555
C10 C3 1_555 1_555
C11 C12 1_555 1_555
C12 C13 1_555 1_555
C13 C14 1_555 1_555
C14 C21 1_555 1_555
C15 C16 1_555 1_555
C16 C17 1_555 1_555
C17 C18 1_555 1_555
C18 C23 1_555 1_555
C19 C20 1_555 1_555
C20 C11 1_555 1_555
C21 C20 1_555 1_555
C22 C15 1_555 1_555
C23 C19 1_555 1_555
C24 O3 1_555 1_555
N3 C25 1_555 1_555
C25 O5 1_555 1_555
C26 N3 1_555 1_555
C27 N3 1_555 1_555
O1B Cu1 1_555 1_555
Cu1B O1 1_555 1_555
C10C C9 1_555 1_555
C9C C10 1_555 1_555
C24B C19 1_555 1_555
C19B C24 1_555 1_555
O3B Cu1B 1_555 1_555
N1B Cu1B 1_555 1_555
N2B Cu1B 1_555 1_555
C3C C10C 1_555 1_555
C6C C10C 1_555 1_555
C2C C9C 1_555 1_555
C7C C9C 1_555 1_555
O2B C24B 1_555 1_555
C20B C19B 1_555 1_555
C23B C19B 1_555 1_555
C1B N1B 1_555 1_555
C8B N1B 1_555 1_555
C4B N2B 1_555 1_555
C5B N2B 1_555 1_555
C4C C3C 1_555 1_555
C5C C6C 1_555 1_555
C1C C2C 1_555 1_555
C8C C7C 1_555 1_555
C11B C20B 1_555 1_555
C21B C20B 1_555 1_555
C18B C23B 1_555 1_555
C22B C23B 1_555 1_555
C2B C1B 1_555 1_555
C7B C8B 1_555 1_555
C3B C4B 1_555 1_555
C6B C5B 1_555 1_555
N2C C4C 1_555 1_555
N1C C1C 1_555 1_555
C12B C11B 1_555 1_555
C14B C21B 1_555 1_555
C17B C18B 1_555 1_555
C15B C22B 1_555 1_555
C9B C2B 1_555 1_555
C10B C3B 1_555 1_555
Cu1C N2C 1_555 1_555
Cu1C_2 N1C 1_555 1_555
C13B C12B 1_555 1_555
C16B C17B 1_555 1_555
C10A C9B 1_555 1_555
C9A C10B 1_555 1_555
O1A Cu1C 1_555 1_555
O1C Cu1C 1_555 1_555
O3C Cu1C 1_555 1_555
N1C_2 Cu1C 1_555 1_555
C3A C10A 1_555 1_555
C6A C10A 1_555 1_555
C2A C9A 1_555 1_555
C7A C9A 1_555 1_555
Cu1A O1A 1_555 1_555
C19A O1A 1_555 1_555
C19C O1C 1_555 1_555
C24C O3C 1_555 1_555
C4A C3A 1_555 1_555
C5A C6A 1_555 1_555
C1A C2A 1_555 1_555
C8A C7A 1_555 1_555
O3A Cu1A 1_555 1_555
N1A Cu1A 1_555 1_555
N2A Cu1A 1_555 1_555
C20A C19A 1_555 1_555
C23A C19A 1_555 1_555
C20C C19C 1_555 1_555
C23C C19C 1_555 1_555
C24A C19C 1_555 1_555
O2C C24C 1_555 1_555
N2A_2 C4A 1_555 1_555
N1A_2 C1A 1_555 1_555
C1A_2 N1A 1_555 1_555
C8A_2 N1A 1_555 1_555
C4A_2 N2A 1_555 1_555
C5A_2 N2A 1_555 1_555
C11A C20A 1_555 1_555
C21A C20A 1_555 1_555
C18A C23A 1_555 1_555
C22A C23A 1_555 1_555
C11C C20C 1_555 1_555
C21C C20C 1_555 1_555
C18C C23C 1_555 1_555
C22C C23C 1_555 1_555
O2A C24A 1_555 1_555
C12A C11A 1_555 1_555
C14A C21A 1_555 1_555
C17A C18A 1_555 1_555
C15A C22A 1_555 1_555
C12C C11C 1_555 1_555
C14C C21C 1_555 1_555
C17C C18C 1_555 1_555
C15C C22C 1_555 1_555
C13A C12A 1_555 1_555
C16A C17A 1_555 1_555
C13C C12C 1_555 1_555
C16C C17C 1_555 1_555
C27B N3 1_555 1_555
N3B C27 1_555 1_555
C26B C27 1_555 1_555
C25B N3B 1_555 1_555
O5B C25B 1_555 1_555
C6 C10 1_555 1_555
C7 C9 1_555 1_555
C21 C22 1_555 1_555
C22 C23 1_555 1_555
C26 C27B 1_555 1_555
O1B Cu1B 1_555 1_555
O1B C19B 1_555 1_555
C24B O3B 1_555 1_555
C5C N2C 1_555 1_555
C8C N1C 1_555 1_555
C21B C22B 1_555 1_555
C7B C9B 1_555 1_555
C6B C10B 1_555 1_555
C14B C13B 1_555 1_555
C15B C16B 1_555 1_555
O1C Cu1A 1_555 1_555
C19A C24C 1_555 1_555
C5A N2A_2 1_555 1_555
C8A N1A_2 1_555 1_555
O3A C24A 1_555 1_555
C21A C22A 1_555 1_555
C21C C22C 1_555 1_555
C14A C13A 1_555 1_555
C15A C16A 1_555 1_555
C14C C13C 1_555 1_555
C15C C16C 1_555 1_555
C27B N3B 1_555 1_555
N3B C26B 1_555 1_555

#END
