
#######################################################################
#
#                 Cambridge Crystallographic Data Centre
#                                CCDC 
#
#######################################################################
#
# If this CIF has been generated from an entry in the Cambridge 
# Structural Database, then it will include bibliographic, chemical, 
# crystal, experimental, refinement or atomic coordinate data resulting 
# from the CCDC's data processing and validation procedures.
#
#######################################################################

data_TANSIM
_symmetry_cell_setting           triclinic
_symmetry_space_group_name_H-M   'P -1'
_symmetry_Int_Tables_number      2
_space_group_name_Hall           '-P 1'
loop_
_symmetry_equiv_pos_site_id
_symmetry_equiv_pos_as_xyz
1 x,y,z
2 -x,-y,-z
_cell_length_a                   5.570(2)
_cell_length_b                   6.6885(18)
_cell_length_c                   12.863(3)
_cell_angle_alpha                71.51(2)
_cell_angle_beta                 79.41(3)
_cell_angle_gamma                83.69(3)
_cell_volume                     446.047
loop_
_atom_site_label
_atom_site_type_symbol
_atom_site_fract_x
_atom_site_fract_y
_atom_site_fract_z
Pd1 Pd 0.5000 0.5000 1.0000
Zn1 Zn 1.5000 0.0000 0.5000
Cl1 Cl 0.4734(3) 0.82242(18) 0.86695(10)
O1 O 1.2144(7) -0.1984(6) 0.5242(3)
O2 O 1.6813(7) -0.2419(6) 0.6203(3)
O3 O 1.5504(7) 0.3691(6) 0.6302(3)
O4 O 1.3102(7) 0.1317(6) 0.6166(3)
N1 N 0.7867(8) 0.4137(7) 0.8994(4)
C1 C 1.1716(9) 0.4879(8) 0.7823(5)
C2 C 0.7754(10) 0.2440(8) 0.8657(5)
C3 C 1.1587(9) 0.3170(8) 0.7444(4)
C4 C 0.9585(10) 0.1941(8) 0.7873(5)
C5 C 0.9842(9) 0.5322(8) 0.8595(4)
C6 C 1.3572(10) 0.2707(8) 0.6567(4)
H1 H 0.6400 0.1571 0.8956
H2 H 0.9466 0.0754 0.7635
H3 H 0.9936 0.6498 0.8846
H4 H 1.3088 0.5733 0.7556
H5 H 1.0721 -0.1913 0.5768
H6 H 1.2273 -0.2951 0.4828
H7 H 1.6496 -0.2472 0.6962
H8 H 1.7939 -0.3426 0.5971
Zn1_2 Zn -0.5000 1.0000 1.5000
Cl1A Cl 0.5266(3) 0.17758(18) 1.13305(10)
O1A O 1.7856(7) 0.1984(6) 0.4758(3)
O2A O 1.3187(7) 0.2419(6) 0.3797(3)
O3A O -0.5504(7) 0.6309(6) 1.3698(3)
O4A O -0.3102(7) 0.8683(6) 1.3834(3)
O4A_2 O 1.6898(7) -0.1317(6) 0.3834(3)
N1A N 0.2133(8) 0.5863(7) 1.1006(4)
C1A C -0.1716(9) 0.5121(8) 1.2177(5)
C2A C 0.2246(10) 0.7560(8) 1.1343(5)
C3A C -0.1587(9) 0.6830(8) 1.2556(4)
C4A C 0.0415(10) 0.8059(8) 1.2127(5)
C5A C 0.0158(9) 0.4678(8) 1.1405(4)
C6A C -0.3572(10) 0.7293(8) 1.3433(4)
H1A H 0.3600 0.8429 1.1044
H2A H 0.0534 0.9246 1.2365
H3A H 0.0064 0.3502 1.1154
H4A H -0.3088 0.4267 1.2444
H5A H 1.9279 0.1913 0.4232
H6A H 1.7727 0.2951 0.5172
H7A H 1.3504 0.2472 0.3038
H8A H 1.2061 0.3426 0.4029
loop_
_geom_bond_atom_site_label_1
_geom_bond_atom_site_label_2
_geom_bond_site_symmetry_1
_geom_bond_site_symmetry_2
Pd1 Cl1 1_555 1_555
Zn1 O1 1_555 1_555
O1 H5 1_555 1_555
O2 Zn1 1_555 1_555
O3 C6 1_555 1_555
O4 Zn1 1_555 1_555
N1 Pd1 1_555 1_555
C1 C3 1_555 1_555
C2 N1 1_555 1_555
C3 C4 1_555 1_555
C4 C2 1_555 1_555
C5 N1 1_555 1_555
C6 O4 1_555 1_555
H1 C2 1_555 1_555
H2 C4 1_555 1_555
H3 C5 1_555 1_555
H4 C1 1_555 1_555
H6 O1 1_555 1_555
H7 O2 1_555 1_555
H8 O2 1_555 1_555
Zn1_2 O4A 1_555 1_555
Cl1A Pd1 1_555 1_555
O1A Zn1 1_555 1_555
O2A Zn1 1_555 1_555
O3A C6A 1_555 1_555
O4A C6A 1_555 1_555
O4A_2 Zn1 1_555 1_555
N1A Pd1 1_555 1_555
C1A C3A 1_555 1_555
C2A N1A 1_555 1_555
C3A C4A 1_555 1_555
C4A C2A 1_555 1_555
C5A N1A 1_555 1_555
C6A C3A 1_555 1_555
H1A C2A 1_555 1_555
H2A C4A 1_555 1_555
H3A C5A 1_555 1_555
H4A C1A 1_555 1_555
H5A O1A 1_555 1_555
H6A O1A 1_555 1_555
H7A O2A 1_555 1_555
H8A O2A 1_555 1_555
C1 C5 1_555 1_555
C3 C6 1_555 1_555
C1A C5A 1_555 1_555

#END
