
#######################################################################
#
#                 Cambridge Crystallographic Data Centre
#                                CCDC 
#
#######################################################################
#
# If this CIF has been generated from an entry in the Cambridge 
# Structural Database, then it will include bibliographic, chemical, 
# crystal, experimental, refinement or atomic coordinate data resulting 
# from the CCDC's data processing and validation procedures.
#
#######################################################################

data_TANVEK
_symmetry_cell_setting           monoclinic
_symmetry_space_group_name_H-M   'C 2/m'
_symmetry_Int_Tables_number      12
_space_group_name_Hall           '-C 2y'
loop_
_symmetry_equiv_pos_site_id
_symmetry_equiv_pos_as_xyz
1 x,y,z
2 1/2+x,1/2+y,z
3 -x,y,-z
4 1/2-x,1/2+y,-z
5 -x,-y,-z
6 1/2-x,1/2-y,-z
7 x,-y,z
8 1/2+x,1/2-y,z
_cell_length_a                   22.514(5)
_cell_length_b                   13.402(3)
_cell_length_c                   10.922(2)
_cell_angle_alpha                90
_cell_angle_beta                 101.613(4)
_cell_angle_gamma                90
_cell_volume                     3228.06
loop_
_atom_site_label
_atom_site_type_symbol
_atom_site_fract_x
_atom_site_fract_y
_atom_site_fract_z
N11 N 0.7188(10) 0.7554(12) 0.3896(13)
N12 N 0.7252(6) 0.7651(18) 0.0102(17)
C19 C 0.7727(8) 0.7623(14) 0.3551(15)
H13 H 0.8084 0.7648 0.4183
C20 C 0.7782(7) 0.7659(13) 0.2334(17)
H14 H 0.8171 0.7707 0.2128
C21 C 0.7274(8) 0.7625(11) 0.1415(13)
C22 C 0.6719(7) 0.7554(12) 0.1733(15)
H15 H 0.6357 0.7527 0.1111
C23 C 0.6700(8) 0.7522(13) 0.2976(17)
H16 H 0.6314 0.7475 0.3198
N11E N 0.7812(10) 0.7446(12) -0.3896(13)
N12E N 0.7748(6) 0.7349(18) -0.0102(17)
C19E C 0.7273(8) 0.7377(14) -0.3551(15)
H13E H 0.6916 0.7352 -0.4183
C20E C 0.7218(7) 0.7341(13) -0.2334(17)
H14E H 0.6829 0.7293 -0.2128
C21E C 0.7726(8) 0.7375(11) -0.1415(13)
C22E C 0.8281(7) 0.7446(12) -0.1733(15)
H15E H 0.8643 0.7473 -0.1111
C23E C 0.8300(8) 0.7478(13) -0.2976(17)
H16E H 0.8686 0.7525 -0.3198
Fe1 Fe 0.5000 0.5000 0.5000
Fe2 Fe 1.0000 0.5000 0.0000
S1 S 0.63848(12) 0.5000 0.8970(2)
S2 S 0.86283(11) 0.5000 -0.3969(2)
C1 C 0.5867(4) 0.5000 0.7709(9)
C2 C 0.9166(4) 0.5000 -0.2740(8)
N1 N 0.5489(3) 0.5000 0.6819(6)
N2 N 0.9544(3) 0.5000 -0.1858(7)
N3 N 0.5903(3) 0.5000 0.4382(5)
N4 N 0.7512(3) 0.5000 0.3019(8)
N5 N 0.5000 0.6645(5) 0.5000
N6 N 0.4815(5) 0.9758(8) 0.4606(9)
C3 C 0.5886(3) 0.5000 0.3152(7)
H1 H 0.5501 0.5000 0.2603
C4 C 0.6392(3) 0.5000 0.2641(7)
H2 H 0.6358 0.5000 0.1760
C5 C 0.6948(3) 0.5000 0.3423(6)
C6 C 0.6979(3) 0.5000 0.4681(7)
H3 H 0.7361 0.5000 0.5243
C7 C 0.6452(3) 0.5000 0.5125(7)
H4 H 0.6479 0.5000 0.6004
C8 C 0.5484(4) 0.7156(5) 0.5511(8)
H5 H 0.5838 0.6798 0.5887
C9 C 0.5505(5) 0.8196(6) 0.5534(10)
H6 H 0.5866 0.8534 0.5914
C10 C 0.5000 0.8722(8) 0.5000
N7 N 0.9100(3) 0.5000 0.0602(6)
N8 N 0.7459(3) 0.5000 0.1865(7)
N9 N 1.0000 0.6647(5) 0.0000
N10 N 1.0070(4) 0.9753(7) 0.0505(8)
C11 C 0.9092(4) 0.5000 0.1812(8)
H7 H 0.9470 0.5000 0.2385
C12 C 0.8569(4) 0.5000 0.2303(9)
H8 H 0.8589 0.5000 0.3180
C13 C 0.8032(4) 0.5000 0.1495(8)
C14 C 0.8017(4) 0.5000 0.0225(10)
H9 H 0.7642 0.5000 -0.0361
C15 C 0.8561(4) 0.5000 -0.0167(9)
H10 H 0.8550 0.5000 -0.1041
C16 C 0.9954(4) 0.7168(5) 0.1010(8)
H11 H 0.9924 0.6811 0.1746
C17 C 0.9946(4) 0.8190(6) 0.1055(11)
H12 H 0.9905 0.8528 0.1798
C18 C 1.0000 0.8715(8) 0.0000
Fe1_2 Fe 0.5000 1.5000 0.5000
Fe2_2 Fe 1.0000 1.5000 0.0000
Fe2_3 Fe 0.0000 0.5000 1.0000
S1D S 0.36152(12) 0.5000 0.1030(2)
S2D S 1.13717(11) 0.5000 0.3969(2)
C1D C 0.4133(4) 0.5000 0.2291(9)
C2D C 1.0834(4) 0.5000 0.2740(8)
N1D N 0.4511(3) 0.5000 0.3181(6)
N2D N 1.0456(3) 0.5000 0.1858(7)
N3D N 0.4097(3) 0.5000 0.5618(5)
N4D N 0.2488(3) 0.5000 0.6981(8)
N5F N 0.5000 1.3355(5) 0.5000
N5F_2 N 0.5000 0.3355(5) 0.5000
N6F N 0.4815(5) 1.0242(8) 0.4606(9)
N6B N 0.5185(5) 0.9758(8) 0.5394(9)
N6D N 0.5185(5) 1.0242(8) 0.5394(9)
C3D C 0.4114(3) 0.5000 0.6848(7)
H1D H 0.4499 0.5000 0.7397
C4D C 0.3608(3) 0.5000 0.7359(7)
H2D H 0.3642 0.5000 0.8240
C5D C 0.3052(3) 0.5000 0.6577(6)
C6D C 0.3021(3) 0.5000 0.5319(7)
H3D H 0.2639 0.5000 0.4757
C7D C 0.3548(3) 0.5000 0.4875(7)
H4D H 0.3521 0.5000 0.3996
C8D C 0.4516(4) 1.2844(5) 0.4489(8)
C8F C 0.5484(4) 1.2844(5) 0.5511(8)
C8B C 0.4516(4) 0.7156(5) 0.4489(8)
H5F H 0.5838 1.3202 0.5887
H5D H 0.4162 1.3202 0.4113
H5B H 0.4162 0.6798 0.4113
C9D C 0.4495(5) 1.1804(6) 0.4466(10)
C9F C 0.5505(5) 1.1804(6) 0.5534(10)
C9B C 0.4495(5) 0.8196(6) 0.4466(10)
H6F H 0.5866 1.1466 0.5914
H6D H 0.4134 1.1466 0.4086
H6B H 0.4134 0.8534 0.4086
C10F C 0.5000 1.1278(8) 0.5000
N7D N 0.0900(3) 0.5000 0.9398(6)
N7D_2 N 1.0900(3) 0.5000 -0.0602(6)
N8D N 0.2541(3) 0.5000 0.8135(7)
N9F N 1.0000 1.3353(5) 0.0000
N9F_2 N 1.0000 0.3353(5) 0.0000
N10F N 1.0070(4) 1.0247(7) 0.0505(8)
N10B N 0.9930(4) 0.9753(7) -0.0505(8)
N10D N 0.9930(4) 1.0247(7) -0.0505(8)
C11D C 0.0908(4) 0.5000 0.8188(8)
H7D H 0.0530 0.5000 0.7615
C12D C 0.1431(4) 0.5000 0.7697(9)
H8D H 0.1411 0.5000 0.6820
C13D C 0.1968(4) 0.5000 0.8505(8)
C14D C 0.1983(4) 0.5000 0.9775(10)
H9D H 0.2358 0.5000 1.0361
C15D C 0.1439(4) 0.5000 1.0167(9)
H10D H 0.1450 0.5000 1.1041
C16D C 1.0046(4) 1.2832(5) -0.1010(8)
C16F C 0.9954(4) 1.2832(5) 0.1010(8)
C16B C 1.0046(4) 0.7168(5) -0.1010(8)
H11F H 0.9924 1.3189 0.1746
H11D H 1.0076 1.3189 -0.1746
H11B H 1.0076 0.6811 -0.1746
C17D C 1.0054(4) 1.1810(6) -0.1055(11)
C17F C 0.9946(4) 1.1810(6) 0.1055(11)
C17B C 1.0054(4) 0.8190(6) -0.1055(11)
H12F H 0.9905 1.1472 0.1798
H12D H 1.0095 1.1472 -0.1798
H12B H 1.0095 0.8528 -0.1798
C18F C 1.0000 1.1285(8) 0.0000
loop_
_geom_bond_atom_site_label_1
_geom_bond_atom_site_label_2
_geom_bond_site_symmetry_1
_geom_bond_site_symmetry_2
Fe1 N1 1_555 1_555
Fe2 N2 1_555 1_555
S1 C1 1_555 1_555
S2 C2 1_555 1_555
C1 N1 1_555 1_555
C2 N2 1_555 1_555
N3 Fe1 1_555 1_555
N4 C5 1_555 1_555
N5 Fe1 1_555 1_555
N6 C10 1_555 1_555
C3 N3 1_555 1_555
H1 C3 1_555 1_555
C4 C3 1_555 1_555
H2 C4 1_555 1_555
C5 C4 1_555 1_555
C6 C5 1_555 1_555
H3 C6 1_555 1_555
C7 N3 1_555 1_555
H4 C7 1_555 1_555
C8 N5 1_555 1_555
H5 C8 1_555 1_555
C9 C8 1_555 1_555
H6 C9 1_555 1_555
C10 C9 1_555 1_555
N7 Fe2 1_555 1_555
N8 N4 1_555 1_555
N9 Fe2 1_555 1_555
N10 C18 1_555 1_555
C11 N7 1_555 1_555
H7 C11 1_555 1_555
C12 C11 1_555 1_555
H8 C12 1_555 1_555
C13 N8 1_555 1_555
C14 C13 1_555 1_555
H9 C14 1_555 1_555
C15 N7 1_555 1_555
H10 C15 1_555 1_555
C16 N9 1_555 1_555
H11 C16 1_555 1_555
C17 C16 1_555 1_555
H12 C17 1_555 1_555
C18 C17 1_555 1_555
N11 C19 1_555 1_555
N12 C21 1_555 1_555
C19 H13 1_555 1_555
C20 C19 1_555 1_555
H14 C20 1_555 1_555
C21 C20 1_555 1_555
C22 C21 1_555 1_555
H15 C22 1_555 1_555
C23 N11 1_555 1_555
H16 C23 1_555 1_555
Fe1_2 N5F 1_555 1_555
Fe2_2 N9F 1_555 1_555
Fe2_3 N7D 1_555 1_555
S1D C1D 1_555 1_555
S2D C2D 1_555 1_555
C1D N1D 1_555 1_555
C2D N2D 1_555 1_555
N1D Fe1 1_555 1_555
N2D Fe2 1_555 1_555
N3D Fe1 1_555 1_555
N4D C5D 1_555 1_555
N5F C8D 1_555 1_555
N5F_2 Fe1 1_555 1_555
N6F N6 1_555 1_555
N6B N6 1_555 1_555
N6D N6 1_555 1_555
C3D N3D 1_555 1_555
H1D C3D 1_555 1_555
C4D C3D 1_555 1_555
H2D C4D 1_555 1_555
C5D C4D 1_555 1_555
C6D C5D 1_555 1_555
H3D C6D 1_555 1_555
C7D N3D 1_555 1_555
H4D C7D 1_555 1_555
C8D H5D 1_555 1_555
C8F N5F 1_555 1_555
C8B N5 1_555 1_555
H5F C8F 1_555 1_555
H5B C8B 1_555 1_555
C9D C8D 1_555 1_555
C9F C8F 1_555 1_555
C9B C10 1_555 1_555
H6F C9F 1_555 1_555
H6D C9D 1_555 1_555
H6B C9B 1_555 1_555
C10F N6F 1_555 1_555
N7D C11D 1_555 1_555
N7D_2 Fe2 1_555 1_555
N8D N4D 1_555 1_555
N9F C16D 1_555 1_555
N9F_2 Fe2 1_555 1_555
N10F N10 1_555 1_555
N10B N10 1_555 1_555
N10D N10 1_555 1_555
C11D H7D 1_555 1_555
C12D C11D 1_555 1_555
H8D C12D 1_555 1_555
C13D N8D 1_555 1_555
C14D C13D 1_555 1_555
H9D C14D 1_555 1_555
C15D N7D 1_555 1_555
H10D C15D 1_555 1_555
C16D H11D 1_555 1_555
C16F N9F 1_555 1_555
C16B N9 1_555 1_555
H11F C16F 1_555 1_555
H11B C16B 1_555 1_555
C17D C16D 1_555 1_555
C17F C16F 1_555 1_555
C17B C18 1_555 1_555
H12F C17F 1_555 1_555
H12D C17D 1_555 1_555
H12B C17B 1_555 1_555
C18F N10F 1_555 1_555
N11E C19E 1_555 1_555
N12E N12 1_555 1_555
C19E H13E 1_555 1_555
C20E C19E 1_555 1_555
H14E C20E 1_555 1_555
C21E N12E 1_555 1_555
C22E C21E 1_555 1_555
H15E C22E 1_555 1_555
C23E N11E 1_555 1_555
H16E C23E 1_555 1_555
C6 C7 1_555 1_555
C10 N6B 1_555 1_555
C12 C13 1_555 1_555
C14 C15 1_555 1_555
C18 N10B 1_555 1_555
C22 C23 1_555 1_555
N6F N6B 1_555 1_555
N6F N6D 1_555 1_555
N6B N6D 1_555 1_555
N6D C10F 1_555 1_555
C6D C7D 1_555 1_555
C8B C9B 1_555 1_555
C9D C10F 1_555 1_555
C9F C10F 1_555 1_555
N10F N10B 1_555 1_555
N10F N10D 1_555 1_555
N10B N10D 1_555 1_555
N10D C18F 1_555 1_555
C12D C13D 1_555 1_555
C14D C15D 1_555 1_555
C16B C17B 1_555 1_555
C17D C18F 1_555 1_555
C17F C18F 1_555 1_555
C20E C21E 1_555 1_555
C22E C23E 1_555 1_555

#END
