
#######################################################################
#
#                 Cambridge Crystallographic Data Centre
#                                CCDC 
#
#######################################################################
#
# If this CIF has been generated from an entry in the Cambridge 
# Structural Database, then it will include bibliographic, chemical, 
# crystal, experimental, refinement or atomic coordinate data resulting 
# from the CCDC's data processing and validation procedures.
#
#######################################################################

data_TANVUZ
_symmetry_cell_setting           orthorhombic
_symmetry_space_group_name_H-M   'F d d 2'
_symmetry_Int_Tables_number      43
_space_group_name_Hall           'F 2 -2d'
loop_
_symmetry_equiv_pos_site_id
_symmetry_equiv_pos_as_xyz
1 x,y,z
2 -x,-y,z
3 1/4-x,1/4+y,1/4+z
4 3/4+x,3/4-y,1/4+z
5 x,1/2+y,1/2+z
6 -x,1/2-y,1/2+z
7 1/4-x,3/4+y,3/4+z
8 3/4+x,1/4-y,3/4+z
9 1/2+x,y,1/2+z
10 1/2-x,-y,1/2+z
11 3/4-x,1/4+y,3/4+z
12 1/4+x,3/4-y,3/4+z
13 1/2+x,1/2+y,z
14 1/2-x,1/2-y,z
15 3/4-x,3/4+y,1/4+z
16 1/4+x,1/4-y,1/4+z
_cell_length_a                   33.83(1)
_cell_length_b                   18.143(2)
_cell_length_c                   3.981(7)
_cell_angle_alpha                90
_cell_angle_beta                 90
_cell_angle_gamma                90
_cell_volume                     2443.45
loop_
_atom_site_label
_atom_site_type_symbol
_atom_site_fract_x
_atom_site_fract_y
_atom_site_fract_z
Ca1 Ca 0.5000 0.5000 1.00000
Cl1 Cl 0.54443(5) 0.56037(9) 0.5024(9)
N1 N 0.5440(2) 0.3889(3) 0.994(2)
C1 C 0.5808(2) 0.3906(5) 0.871(3)
C2 C 0.6056(2) 0.3310(5) 0.876(3)
C3 C 0.5928(3) 0.2668(5) 1.011(3)
C4 C 0.5549(3) 0.2631(4) 1.134(3)
C5 C 0.5331(2) 0.3236(4) 1.123(2)
H1 H 0.5904 0.4372 0.7772
H2 H 0.6327 0.3354 0.7860
H3 H 0.6103 0.2245 1.0181
H4 H 0.5444 0.2167 1.2211
H5 H 0.5062 0.3202 1.2143
Ca1_2 Ca 0.5000 0.5000 0.00000
Cl1A Cl 0.45557(5) 0.43963(9) 0.5024(9)
Cl1_2 Cl 0.54443(5) 0.56037(9) 1.5024(9)
Cl1A_2 Cl 0.45557(5) 0.43963(9) 1.5024(9)
N1A N 0.4560(2) 0.6111(3) 0.994(2)
C1A C 0.4192(2) 0.6094(5) 0.871(3)
C2A C 0.3944(2) 0.6690(5) 0.876(3)
C3A C 0.4072(3) 0.7332(5) 1.011(3)
C4A C 0.4451(3) 0.7369(4) 1.134(3)
C5A C 0.4669(2) 0.6764(4) 1.123(2)
H5A H 0.4938 0.6798 1.2143
H4A H 0.4556 0.7833 1.2211
H3A H 0.3897 0.7755 1.0181
H2A H 0.3673 0.6646 0.7860
H1A H 0.4096 0.5628 0.7772
loop_
_geom_bond_atom_site_label_1
_geom_bond_atom_site_label_2
_geom_bond_site_symmetry_1
_geom_bond_site_symmetry_2
Ca1 Cl1 1_555 1_555
Cl1 Ca1_2 1_555 1_555
N1 Ca1 1_555 1_555
C1 N1 1_555 1_555
C2 C1 1_555 1_555
C3 C2 1_555 1_555
C4 C3 1_555 1_555
C5 N1 1_555 1_555
H1 C1 1_555 1_555
H2 C2 1_555 1_555
H3 C3 1_555 1_555
H4 C4 1_555 1_555
H5 C5 1_555 1_555
Ca1_2 Cl1A 1_555 1_555
Cl1A Ca1 1_555 1_555
Cl1_2 Ca1 1_555 1_555
Cl1A_2 Ca1 1_555 1_555
N1A Ca1 1_555 1_555
C1A N1A 1_555 1_555
C2A C1A 1_555 1_555
C3A C2A 1_555 1_555
C4A C3A 1_555 1_555
C5A N1A 1_555 1_555
H5A C5A 1_555 1_555
H4A C4A 1_555 1_555
H3A C3A 1_555 1_555
H2A C2A 1_555 1_555
H1A C1A 1_555 1_555
C4 C5 1_555 1_555
C4A C5A 1_555 1_555

#END
