
#######################################################################
#
#                 Cambridge Crystallographic Data Centre
#                                CCDC 
#
#######################################################################
#
# If this CIF has been generated from an entry in the Cambridge 
# Structural Database, then it will include bibliographic, chemical, 
# crystal, experimental, refinement or atomic coordinate data resulting 
# from the CCDC's data processing and validation procedures.
#
#######################################################################

data_TANVIO
_symmetry_cell_setting           monoclinic
_symmetry_space_group_name_H-M   'P 21/c'
_symmetry_Int_Tables_number      14
_space_group_name_Hall           '-P 2ybc'
loop_
_symmetry_equiv_pos_site_id
_symmetry_equiv_pos_as_xyz
1 x,y,z
2 -x,1/2+y,1/2-z
3 -x,-y,-z
4 x,1/2-y,1/2+z
_cell_length_a                   7.2556(19)
_cell_length_b                   17.061(4)
_cell_length_c                   12.298(3)
_cell_angle_alpha                90
_cell_angle_beta                 96.843(4)
_cell_angle_gamma                90
_cell_volume                     1511.5
loop_
_atom_site_label
_atom_site_type_symbol
_atom_site_fract_x
_atom_site_fract_y
_atom_site_fract_z
Fe1 Fe 0.5000 0.5000 0.5000
N1 N 0.3338(3) 0.40810(12) 0.55072(16)
C1 C 0.2555(3) 0.35339(13) 0.57466(19)
Se1 Se 0.13301(4) 0.268288(16) 0.61322(3)
N2 N 0.3184(3) 0.50787(11) 0.33917(15)
N3 N -0.0048(3) 0.52791(12) 0.03204(15)
C2 C 0.2191(4) 0.57170(14) 0.30874(19)
H1 H 0.2228 0.6144 0.3586
C3 C 0.1108(4) 0.57931(14) 0.20853(19)
H2 H 0.0420 0.6258 0.1905
C4 C 0.1054(3) 0.51712(13) 0.13512(17)
C5 C 0.2059(3) 0.44958(13) 0.16608(18)
H3 H 0.2038 0.4058 0.1183
C6 C 0.3083(3) 0.44790(13) 0.26764(18)
H4 H 0.3761 0.4016 0.2886
O1 O 0.3392(2) 0.58785(10) 0.56511(13)
H9 H 0.364(4) 0.631(2) 0.560(3)
C12 C 0.1785(5) 0.57827(17) 0.6206(3)
H10 H 0.2053 0.5385 0.6790
H11 H 0.0753 0.5582 0.5680
C13 C 0.1181(5) 0.65239(19) 0.6705(3)
H12 H 0.0080 0.6421 0.7073
H13 H 0.0882 0.6917 0.6129
H14 H 0.2185 0.6720 0.7239
Fe1_2 Fe -0.5000 0.5000 -0.5000
N1B N 0.6662(3) 0.59190(12) 0.44928(16)
C1B C 0.7445(3) 0.64661(13) 0.42534(19)
Se1B Se 0.86699(4) 0.731712(16) 0.38678(3)
N2B N -0.3184(3) 0.49213(11) -0.33917(15)
N2B_2 N 0.6816(3) 0.49213(11) 0.66083(15)
N3B N 0.0048(3) 0.47209(12) -0.03204(15)
C2B C -0.2191(4) 0.42830(14) -0.30874(19)
H1B H -0.2228 0.3856 -0.3586
C3B C -0.1108(4) 0.42069(14) -0.20853(19)
H2B H -0.0420 0.3742 -0.1905
C4B C -0.1054(3) 0.48288(13) -0.13512(17)
C5B C -0.2059(3) 0.55042(13) -0.16608(18)
H3B H -0.2038 0.5942 -0.1183
C6B C -0.3083(3) 0.55210(13) -0.26764(18)
H4B H -0.3761 0.5984 -0.2886
O1B O 0.6608(2) 0.41215(10) 0.43489(13)
H9B H 0.636(4) 0.369(2) 0.440(3)
C12B C 0.8215(5) 0.42173(17) 0.3794(3)
H10B H 0.7947 0.4615 0.3210
H11B H 0.9247 0.4418 0.4320
C13B C 0.8819(5) 0.34761(19) 0.3295(3)
H12B H 0.9920 0.3579 0.2927
H13B H 0.9118 0.3083 0.3871
H14B H 0.7815 0.3280 0.2761
N4 N 0.4312(3) 0.74037(12) 0.5499(2)
N5 N 0.5365(3) 0.98239(12) 0.54135(19)
C7 C 0.3616(4) 0.78277(16) 0.4637(3)
H5 H 0.2881 0.7568 0.4055
C8 C 0.3902(4) 0.86241(16) 0.4542(3)
H6 H 0.3379 0.8906 0.3913
C9 C 0.4975(4) 0.89976(14) 0.5391(2)
C10 C 0.5340(5) 0.77701(17) 0.6296(3)
H7 H 0.5846 0.7474 0.6915
C11 C 0.5724(4) 0.85714(16) 0.6279(3)
H8 H 0.6484 0.8814 0.6866
N4B N 0.5688(3) 1.25963(12) 0.4501(2)
N5B N 0.4635(3) 1.01761(12) 0.45865(19)
C7B C 0.6384(4) 1.21723(16) 0.5363(3)
H5B H 0.7119 1.2432 0.5945
C8B C 0.6098(4) 1.13759(16) 0.5458(3)
H6B H 0.6621 1.1094 0.6087
C9B C 0.5025(4) 1.10024(14) 0.4609(2)
C10B C 0.4660(5) 1.22299(17) 0.3704(3)
H7B H 0.4154 1.2526 0.3085
C11B C 0.4276(4) 1.14286(16) 0.3721(3)
H8B H 0.3516 1.1186 0.3134
loop_
_geom_bond_atom_site_label_1
_geom_bond_atom_site_label_2
_geom_bond_site_symmetry_1
_geom_bond_site_symmetry_2
Fe1 N1 1_555 1_555
N1 C1 1_555 1_555
C1 Se1 1_555 1_555
N2 Fe1 1_555 1_555
N3 C4 1_555 1_555
C2 N2 1_555 1_555
H1 C2 1_555 1_555
C3 C2 1_555 1_555
H2 C3 1_555 1_555
C4 C3 1_555 1_555
C5 C4 1_555 1_555
H3 C5 1_555 1_555
C6 N2 1_555 1_555
H4 C6 1_555 1_555
N4 C7 1_555 1_555
N5 C9 1_555 1_555
C7 H5 1_555 1_555
C8 C7 1_555 1_555
H6 C8 1_555 1_555
C9 C8 1_555 1_555
C10 N4 1_555 1_555
H7 C10 1_555 1_555
C11 C9 1_555 1_555
H8 C11 1_555 1_555
O1 Fe1 1_555 1_555
H9 O1 1_555 1_555
C12 O1 1_555 1_555
H10 C12 1_555 1_555
H11 C12 1_555 1_555
C13 C12 1_555 1_555
H12 C13 1_555 1_555
H13 C13 1_555 1_555
H14 C13 1_555 1_555
Fe1_2 N2B 1_555 1_555
N1B Fe1 1_555 1_555
C1B N1B 1_555 1_555
Se1B C1B 1_555 1_555
N2B C2B 1_555 1_555
N2B_2 Fe1 1_555 1_555
N3B N3 1_555 1_555
C2B H1B 1_555 1_555
C3B C2B 1_555 1_555
H2B C3B 1_555 1_555
C4B N3B 1_555 1_555
C5B C4B 1_555 1_555
H3B C5B 1_555 1_555
C6B N2B 1_555 1_555
H4B C6B 1_555 1_555
N4B C7B 1_555 1_555
N5B N5 1_555 1_555
C7B H5B 1_555 1_555
C8B C7B 1_555 1_555
H6B C8B 1_555 1_555
C9B N5B 1_555 1_555
C10B N4B 1_555 1_555
H7B C10B 1_555 1_555
C11B C9B 1_555 1_555
H8B C11B 1_555 1_555
O1B Fe1 1_555 1_555
H9B O1B 1_555 1_555
C12B O1B 1_555 1_555
H10B C12B 1_555 1_555
H11B C12B 1_555 1_555
C13B C12B 1_555 1_555
H12B C13B 1_555 1_555
H13B C13B 1_555 1_555
H14B C13B 1_555 1_555
C5 C6 1_555 1_555
C10 C11 1_555 1_555
C3B C4B 1_555 1_555
C5B C6B 1_555 1_555
C8B C9B 1_555 1_555
C10B C11B 1_555 1_555

#END
