
#######################################################################
#
#                 Cambridge Crystallographic Data Centre
#                                CCDC 
#
#######################################################################
#
# If this CIF has been generated from an entry in the Cambridge 
# Structural Database, then it will include bibliographic, chemical, 
# crystal, experimental, refinement or atomic coordinate data resulting 
# from the CCDC's data processing and validation procedures.
#
#######################################################################

data_TANVOU
_symmetry_cell_setting           monoclinic
_symmetry_space_group_name_H-M   'C 2/m'
_symmetry_Int_Tables_number      12
_space_group_name_Hall           '-C 2y'
loop_
_symmetry_equiv_pos_site_id
_symmetry_equiv_pos_as_xyz
1 x,y,z
2 1/2+x,1/2+y,z
3 -x,y,-z
4 1/2-x,1/2+y,-z
5 -x,-y,-z
6 1/2-x,1/2-y,-z
7 x,-y,z
8 1/2+x,1/2-y,z
_cell_length_a                   9.2518(16)
_cell_length_b                   20.446(4)
_cell_length_c                   8.5790(15)
_cell_angle_alpha                90
_cell_angle_beta                 103.215(3)
_cell_angle_gamma                90
_cell_volume                     1579.85
loop_
_atom_site_label
_atom_site_type_symbol
_atom_site_fract_x
_atom_site_fract_y
_atom_site_fract_z
C7 C 0.5000 0.3440(4) 0.5000
H5 H 0.4788 0.3749 0.4104
H6 H 0.5905 0.3195 0.4978
H7 H 0.5140 0.3680 0.6012
C8 C 0.3763(9) 0.2988(4) 0.4862(9)
N4 N 0.2798(10) 0.2640(4) 0.4761(10)
H5B H 0.5212 0.3749 0.5896
H6B H 0.4095 0.3195 0.5022
H6G H 0.0905 0.1805 0.4978
H7B H 0.4860 0.3680 0.3988
C8B C 0.6237(9) 0.2988(4) 0.5138(9)
C8E C 0.1237(9) 0.2012(4) 0.5138(9)
N4E N 0.2202(10) 0.2360(4) 0.5239(10)
N4B N 0.7202(10) 0.2640(4) 0.5239(10)
Fe1 Fe 0.0000 0.5000 0.5000
N1 N 0.1905(3) 0.5000 0.4026(3)
C1 C 0.2643(4) 0.5000 0.3113(4)
Se1 Se 0.37696(5) 0.5000 0.16730(5)
N2 N 0.0988(2) 0.42057(9) 0.6679(2)
C2 C 0.0665(3) 0.32431(13) 0.8170(3)
H1 H 0.002(3) 0.2960(15) 0.843(4)
C3 C 0.0117(3) 0.37547(12) 0.7151(3)
H2 H -0.091(3) 0.3794(15) 0.673(4)
N3 N 0.2925(2) 0.26959(10) 0.9802(3)
C4 C 0.2190(3) 0.31966(11) 0.8736(3)
C5 C 0.2454(3) 0.41418(11) 0.7220(3)
H3 H 0.304(3) 0.4451(15) 0.685(3)
C6 C 0.3098(3) 0.36497(12) 0.8257(3)
H4 H 0.416(3) 0.3612(14) 0.860(3)
Fe1A Fe 0.5000 0.0000 1.5000
Fe1A_2 Fe 0.5000 1.0000 1.5000
N1D N -0.1905(3) 0.5000 0.5974(3)
C1D C -0.2643(4) 0.5000 0.6887(4)
Se1D Se -0.37696(5) 0.5000 0.83270(5)
N2F N 0.0988(2) 0.57943(9) 0.6679(2)
N2D N -0.0988(2) 0.57943(9) 0.3321(2)
N2B N -0.0988(2) 0.42057(9) 0.3321(2)
N2E N 0.4012(2) 0.07943(9) 1.3321(2)
N2C N 0.4012(2) 0.92057(9) 1.3321(2)
C2F C 0.0665(3) 0.67569(13) 0.8170(3)
C2E C 0.4335(3) 0.17569(13) 1.1830(3)
C2C C 0.4335(3) 0.82431(13) 1.1830(3)
H1F H 0.002(3) 0.7040(15) 0.843(4)
H1E H 0.498(3) 0.2040(15) 1.157(4)
H1C H 0.498(3) 0.7960(15) 1.157(4)
C3F C 0.0117(3) 0.62453(12) 0.7151(3)
C3E C 0.4883(3) 0.12453(12) 1.2849(3)
C3C C 0.4883(3) 0.87547(12) 1.2849(3)
H2F H -0.091(3) 0.6206(15) 0.673(4)
H2E H 0.591(3) 0.1206(15) 1.327(4)
H2C H 0.591(3) 0.8794(15) 1.327(4)
N3E N 0.2075(2) 0.23041(10) 1.0198(3)
N3F N 0.2925(2) 0.73041(10) 0.9802(3)
N3C N 0.2075(2) 0.76959(10) 1.0198(3)
C4F C 0.2190(3) 0.68034(11) 0.8736(3)
C4E C 0.2810(3) 0.18034(11) 1.1264(3)
C4C C 0.2810(3) 0.81966(11) 1.1264(3)
C5F C 0.2454(3) 0.58582(11) 0.7220(3)
C5E C 0.2546(3) 0.08582(11) 1.2780(3)
C5C C 0.2546(3) 0.91418(11) 1.2780(3)
H3F H 0.304(3) 0.5549(15) 0.685(3)
H3E H 0.196(3) 0.0549(15) 1.315(3)
H3C H 0.196(3) 0.9451(15) 1.315(3)
C6F C 0.3098(3) 0.63503(12) 0.8257(3)
C6E C 0.1902(3) 0.13503(12) 1.1743(3)
C6C C 0.1902(3) 0.86497(12) 1.1743(3)
H4F H 0.416(3) 0.6388(14) 0.860(3)
H4E H 0.084(3) 0.1388(14) 1.140(3)
H4C H 0.084(3) 0.8612(14) 1.140(3)
loop_
_geom_bond_atom_site_label_1
_geom_bond_atom_site_label_2
_geom_bond_site_symmetry_1
_geom_bond_site_symmetry_2
Fe1 N1 1_555 1_555
N1 C1 1_555 1_555
C1 Se1 1_555 1_555
N2 Fe1 1_555 1_555
C2 H1 1_555 1_555
C3 N2 1_555 1_555
H2 C3 1_555 1_555
N3 C4 1_555 1_555
C4 C2 1_555 1_555
C5 N2 1_555 1_555
H3 C5 1_555 1_555
C6 C4 1_555 1_555
H4 C6 1_555 1_555
C7 H5 1_555 1_555
H5 H7B 1_555 1_555
H6 C7 1_555 1_555
H7 C7 1_555 1_555
C8 C7 1_555 1_555
N4 C8 1_555 1_555
Fe1A N2E 1_555 1_555
Fe1A_2 N2C 1_555 1_555
N1D Fe1 1_555 1_555
C1D N1D 1_555 1_555
Se1D C1D 1_555 1_555
N2F Fe1 1_555 1_555
N2D Fe1 1_555 1_555
N2B Fe1 1_555 1_555
N2E C3E 1_555 1_555
N2C C3C 1_555 1_555
C2F H1F 1_555 1_555
C2E H1E 1_555 1_555
C2C H1C 1_555 1_555
C3F N2F 1_555 1_555
C3E C2E 1_555 1_555
C3C C2C 1_555 1_555
H2F C3F 1_555 1_555
H2E C3E 1_555 1_555
H2C C3C 1_555 1_555
N3E N3 1_555 1_555
N3F N3C 1_555 1_555
N3C C4C 1_555 1_555
C4F C2F 1_555 1_555
C4E C2E 1_555 1_555
C4C C2C 1_555 1_555
C5F N2F 1_555 1_555
C5E N2E 1_555 1_555
C5C N2C 1_555 1_555
H3F C5F 1_555 1_555
H3E C5E 1_555 1_555
H3C C5C 1_555 1_555
C6F C4F 1_555 1_555
C6E C4E 1_555 1_555
C6C C4C 1_555 1_555
H4F C6F 1_555 1_555
H4E C6E 1_555 1_555
H4C C6C 1_555 1_555
H5B C7 1_555 1_555
H6B C7 1_555 1_555
H6G C8E 1_555 1_555
H7B C7 1_555 1_555
C8B C7 1_555 1_555
C8E N4E 1_555 1_555
N4E N4 1_555 1_555
N4B C8B 1_555 1_555
C2 C3 1_555 1_555
C5 C6 1_555 1_555
H6 C8B 1_555 1_555
H7 H5B 1_555 1_555
C8 H6B 1_555 1_555
C2F C3F 1_555 1_555
N3E C4E 1_555 1_555
N3F C4F 1_555 1_555
C5F C6F 1_555 1_555
C5E C6E 1_555 1_555
C5C C6C 1_555 1_555

#END
