
#######################################################################
#
#                 Cambridge Crystallographic Data Centre
#                                CCDC 
#
#######################################################################
#
# If this CIF has been generated from an entry in the Cambridge 
# Structural Database, then it will include bibliographic, chemical, 
# crystal, experimental, refinement or atomic coordinate data resulting 
# from the CCDC's data processing and validation procedures.
#
#######################################################################

data_TANYOY
_symmetry_cell_setting           triclinic
_symmetry_space_group_name_H-M   'P -1'
_symmetry_Int_Tables_number      2
_space_group_name_Hall           '-P 1'
loop_
_symmetry_equiv_pos_site_id
_symmetry_equiv_pos_as_xyz
1 x,y,z
2 -x,-y,-z
_cell_length_a                   7.7261(2)
_cell_length_b                   12.8359(3)
_cell_length_c                   13.0946(4)
_cell_angle_alpha                68.951(1)
_cell_angle_beta                 80.047(1)
_cell_angle_gamma                77.472(2)
_cell_volume                     1176.66
loop_
_atom_site_label
_atom_site_type_symbol
_atom_site_fract_x
_atom_site_fract_y
_atom_site_fract_z
K1 K 0.28406(7) -0.03323(5) -0.51031(5)
Cl1 Cl 0.19265(9) 0.57686(6) -0.97362(5)
S1 S 0.19308(8) 0.34277(6) -0.52736(5)
S2 S -0.02501(8) 0.16905(6) -0.27546(5)
P1 P 0.23886(8) 0.14847(6) -0.28637(5)
N1 N 0.4111(2) 0.18322(17) -0.58784(16)
N2 N 0.3516(3) 0.13070(18) -0.39766(16)
C1 C 0.2566(3) 0.4590(2) -0.8601(2)
C2 C 0.3761(3) 0.3681(2) -0.8782(2)
H1 H 0.4189 0.3697 -0.9511
C3 C 0.4328(3) 0.2752(2) -0.7896(2)
H2 H 0.5152 0.2130 -0.8017
C4 C 0.3687(3) 0.2728(2) -0.6826(2)
C5 C 0.2500(3) 0.3668(2) -0.6674(2)
C6 C 0.1914(3) 0.4606(2) -0.7552(2)
H3 H 0.1099 0.5234 -0.7439
C7 C 0.3311(3) 0.2053(2) -0.4983(2)
C8 C 0.3274(3) 0.0264(2) -0.1766(2)
C9 C 0.2152(4) -0.0386(2) -0.0955(2)
H4 H 0.0904 -0.0219 -0.1006
C10 C 0.2843(4) -0.1275(2) -0.0074(2)
H5 H 0.2072 -0.1724 0.0470
C11 C 0.4650(4) -0.1507(2) 0.0012(2)
H6 H 0.5118 -0.2110 0.0622
C12 C 0.5780(4) -0.0870(2) -0.0783(2)
H7 H 0.7024 -0.1035 -0.0719
C13 C 0.5105(3) 0.0011(2) -0.1672(2)
H8 H 0.5889 0.0444 -0.2222
C14 C 0.3032(3) 0.2651(2) -0.2624(2)
C15 C 0.1962(3) 0.3170(2) -0.1918(2)
H9 H 0.0852 0.2939 -0.1583
C16 C 0.2499(3) 0.4026(2) -0.1696(2)
H10 H 0.1754 0.4385 -0.1218
C17 C 0.4122(4) 0.4351(2) -0.2175(2)
H11 H 0.4494 0.4935 -0.2025
C18 C 0.5199(4) 0.3835(2) -0.2866(2)
H12 H 0.6315 0.4063 -0.3189
C19 C 0.4672(3) 0.2984(2) -0.3098(2)
H13 H 0.5425 0.2629 -0.3576
O1 O -0.0154(3) -0.04748(19) -0.35045(18)
H14 H -0.020(4) 0.005(3) -0.321(3)
O2 O 0.2002(3) -0.23099(17) -0.49591(17)
H15 H 0.138(4) -0.236(3) -0.535(3)
C20 C 0.0111(5) -0.1575(3) -0.2666(3)
H16 H 0.1292 -0.1723 -0.2415
H17 H 0.0027 -0.2156 -0.2969
H18 H -0.0806 -0.1594 -0.2044
C21 C 0.2576(4) -0.3435(3) -0.4271(3)
H19 H 0.1558 -0.3734 -0.3777
H20 H 0.3488 -0.3436 -0.3836
H21 H 0.3078 -0.3912 -0.4727
K1A K 0.71594(7) 0.03323(5) -0.48969(5)
K1A_2 K -0.28406(7) 0.03323(5) -0.48969(5)
N1A N 0.5889(2) -0.18322(17) -0.41216(16)
N2A N 0.6484(3) -0.13070(18) -0.60234(16)
O1A O 0.0154(3) 0.04748(19) -0.64955(18)
H14A H 0.020(4) -0.005(3) -0.679(3)
loop_
_geom_bond_atom_site_label_1
_geom_bond_atom_site_label_2
_geom_bond_site_symmetry_1
_geom_bond_site_symmetry_2
K1 N1 1_555 1_555
Cl1 C1 1_555 1_555
S1 C5 1_555 1_555
S2 P1 1_555 1_555
P1 N2 1_555 1_555
N1 C4 1_555 1_555
N2 K1 1_555 1_555
C1 C2 1_555 1_555
C2 H1 1_555 1_555
C3 C2 1_555 1_555
H2 C3 1_555 1_555
C4 C3 1_555 1_555
C5 C4 1_555 1_555
C6 C1 1_555 1_555
H3 C6 1_555 1_555
C7 S1 1_555 1_555
C8 P1 1_555 1_555
C9 C8 1_555 1_555
H4 C9 1_555 1_555
C10 C9 1_555 1_555
H5 C10 1_555 1_555
C11 C10 1_555 1_555
H6 C11 1_555 1_555
C12 C11 1_555 1_555
H7 C12 1_555 1_555
C13 C8 1_555 1_555
H8 C13 1_555 1_555
C14 P1 1_555 1_555
C15 C14 1_555 1_555
H9 C15 1_555 1_555
C16 C15 1_555 1_555
H10 C16 1_555 1_555
C17 C16 1_555 1_555
H11 C17 1_555 1_555
C18 C17 1_555 1_555
H12 C18 1_555 1_555
C19 C14 1_555 1_555
H13 C19 1_555 1_555
O1 K1 1_555 1_555
H14 O1 1_555 1_555
O2 K1 1_555 1_555
H15 O2 1_555 1_555
C20 O1 1_555 1_555
H16 C20 1_555 1_555
H17 C20 1_555 1_555
H18 C20 1_555 1_555
C21 O2 1_555 1_555
H19 C21 1_555 1_555
H20 C21 1_555 1_555
H21 C21 1_555 1_555
K1A N1 1_555 1_555
K1A_2 O1 1_555 1_555
N1A K1 1_555 1_555
N2A K1 1_555 1_555
O1A K1 1_555 1_555
H14A O1A 1_555 1_555
N1 C7 1_555 1_555
N2 C7 1_555 1_555
N2 K1A 1_555 1_555
C5 C6 1_555 1_555
C12 C13 1_555 1_555
C18 C19 1_555 1_555
K1A N1A 1_555 1_555
K1A N2A 1_555 1_555
K1A_2 O1A 1_555 1_555

#END
