
#######################################################################
#
#                 Cambridge Crystallographic Data Centre
#                                CCDC 
#
#######################################################################
#
# If this CIF has been generated from an entry in the Cambridge 
# Structural Database, then it will include bibliographic, chemical, 
# crystal, experimental, refinement or atomic coordinate data resulting 
# from the CCDC's data processing and validation procedures.
#
#######################################################################

data_TAPBOD
_symmetry_cell_setting           monoclinic
_symmetry_space_group_name_H-M   'C 2/c'
_symmetry_Int_Tables_number      15
_space_group_name_Hall           '-C 2yn'
loop_
_symmetry_equiv_pos_site_id
_symmetry_equiv_pos_as_xyz
1 x,y,z
2 -x,y,1/2-z
3 1/2+x,1/2+y,z
4 1/2-x,1/2+y,1/2-z
5 -x,-y,-z
6 x,-y,1/2+z
7 1/2-x,1/2-y,-z
8 1/2+x,1/2-y,1/2+z
_cell_length_a                   5.3583(10)
_cell_length_b                   15.217(3)
_cell_length_c                   14.986(3)
_cell_angle_alpha                90
_cell_angle_beta                 99.296(6)
_cell_angle_gamma                90
_cell_volume                     1205.87
loop_
_atom_site_label
_atom_site_type_symbol
_atom_site_fract_x
_atom_site_fract_y
_atom_site_fract_z
Ag1 Ag 0.5000 0.17428(2) 0.2500
O1 O 0.3968(4) 0.25467(16) 0.11458(15)
O2 O 0.7978(6) 0.0452(2) 0.2469(3)
O3 O 1.0000 0.1638(2) 0.2500
N1 N 1.0000 0.0841(2) 0.2500
N2 N 0.5153(6) 0.33853(19) 0.0025(2)
H1 H 0.3977 0.3096 -0.0459
C1 C 0.5391(6) 0.30975(19) 0.0871(2)
C2 C 0.7643(7) 0.3537(2) 0.1426(2)
H2 H 0.8933 0.3107 0.1647
H3 H 0.7150 0.3842 0.1938
C3 C 0.8614(7) 0.4181(3) 0.0790(3)
H4 H 0.7969 0.4785 0.0929
H5 H 1.0219 0.3914 0.0708
C4 C 0.7110(7) 0.4002(2) -0.0143(2)
H6 H 0.6368 0.4539 -0.0416
H7 H 0.8177 0.3745 -0.0539
Ag1_2 Ag 1.5000 0.17428(2) 0.2500
O1A O 0.6032(4) 0.25467(16) 0.38542(15)
O2A O 1.2022(6) 0.0452(2) 0.2531(3)
O2A_2 O 0.2022(6) 0.0452(2) 0.2531(3)
O3_2 O 0.0000 0.1638(2) 0.2500
N2A N 0.4847(6) 0.33853(19) 0.4975(2)
H1A H 0.6023 0.3096 0.5459
C1A C 0.4609(6) 0.30975(19) 0.4129(2)
C2A C 0.2357(7) 0.3537(2) 0.3574(2)
H2A H 0.1067 0.3107 0.3353
H3A H 0.2850 0.3842 0.3062
C3A C 0.1386(7) 0.4181(3) 0.4210(3)
H4A H 0.2031 0.4785 0.4071
H5A H -0.0219 0.3914 0.4292
C4A C 0.2890(7) 0.4002(2) 0.5143(2)
H6A H 0.3632 0.4539 0.5416
H7A H 0.1823 0.3745 0.5539
loop_
_geom_bond_atom_site_label_1
_geom_bond_atom_site_label_2
_geom_bond_site_symmetry_1
_geom_bond_site_symmetry_2
Ag1 O1 1_555 1_555
O1 C1 1_555 1_555
O2 Ag1 1_555 1_555
O3 Ag1 1_555 1_555
N1 O2 1_555 1_555
N2 H1 1_555 1_555
C1 N2 1_555 1_555
C2 C1 1_555 1_555
H2 C2 1_555 1_555
H3 C2 1_555 1_555
C3 C2 1_555 1_555
H4 C3 1_555 1_555
H5 C3 1_555 1_555
C4 N2 1_555 1_555
H6 C4 1_555 1_555
H7 C4 1_555 1_555
Ag1_2 O3 1_555 1_555
O1A Ag1 1_555 1_555
O2A N1 1_555 1_555
O2A_2 Ag1 1_555 1_555
O3_2 Ag1 1_555 1_555
N2A H1A 1_555 1_555
C1A O1A 1_555 1_555
C2A C1A 1_555 1_555
H2A C2A 1_555 1_555
H3A C2A 1_555 1_555
C3A C2A 1_555 1_555
H4A C3A 1_555 1_555
H5A C3A 1_555 1_555
C4A N2A 1_555 1_555
H6A C4A 1_555 1_555
H7A C4A 1_555 1_555
O3 N1 1_555 1_555
C3 C4 1_555 1_555
Ag1_2 O2A 1_555 1_555
N2A C1A 1_555 1_555
C3A C4A 1_555 1_555

#END
