
#######################################################################
#
#                 Cambridge Crystallographic Data Centre
#                                CCDC 
#
#######################################################################
#
# If this CIF has been generated from an entry in the Cambridge 
# Structural Database, then it will include bibliographic, chemical, 
# crystal, experimental, refinement or atomic coordinate data resulting 
# from the CCDC's data processing and validation procedures.
#
#######################################################################

data_TAPCIX
_symmetry_cell_setting           orthorhombic
_symmetry_space_group_name_H-M   'P b a m'
_symmetry_Int_Tables_number      55
_space_group_name_Hall           '-P 2 2ab'
loop_
_symmetry_equiv_pos_site_id
_symmetry_equiv_pos_as_xyz
1 x,y,z
2 -x,-y,z
3 1/2-x,1/2+y,-z
4 1/2+x,1/2-y,-z
5 -x,-y,-z
6 x,y,-z
7 1/2+x,1/2-y,z
8 1/2-x,1/2+y,z
_cell_length_a                   7.2585(6)
_cell_length_b                   9.8675(9)
_cell_length_c                   9.9976(10)
_cell_angle_alpha                90
_cell_angle_beta                 90
_cell_angle_gamma                90
_cell_volume                     716.061
loop_
_atom_site_label
_atom_site_type_symbol
_atom_site_fract_x
_atom_site_fract_y
_atom_site_fract_z
Mn1 Mn 0.10410(4) 0.26054(3) 0.0000
O1 O 0.21104(13) 0.39949(10) 0.14871(9)
O2 O 0.51076(13) 0.35063(9) 0.17022(9)
O3 O -0.15458(18) 0.38066(15) 0.0000
H1 H -0.169(3) 0.437(2) -0.070(2)
C1 C 0.2039(2) 0.38337(16) 0.42968(14)
H2 H 0.103(2) 0.3414(18) 0.381(2)
C2 C 0.35252(18) 0.43346(14) 0.35950(14)
C3 C 0.5000 0.5000 0.42840(17)
C4 C 0.36086(18) 0.39452(14) 0.21458(13)
Mn1D Mn 0.89590(4) 0.73946(3) 0.0000
Mn1F Mn 0.60410(4) 0.23946(3) 0.0000
Mn1F_2 Mn -0.39590(4) 0.23946(3) 0.0000
Mn1G Mn 0.39590(4) 0.76054(3) 0.0000
Mn1D_2 Mn 0.89590(4) 0.73946(3) 1.0000
Mn1G_2 Mn 0.39590(4) 0.76054(3) 1.0000
Mn1_2 Mn 0.10410(4) 0.26054(3) 1.0000
Mn1F_3 Mn 0.60410(4) 0.23946(3) 1.0000
O1A O 0.78896(13) 0.60051(10) 0.14871(9)
O1D O 0.78896(13) 0.60051(10) 0.85129(9)
O1E O 0.21104(13) 0.39949(10) 0.85129(9)
O1E_2 O 0.21104(13) 0.39949(10) -0.14871(9)
O1D_2 O 0.78896(13) 0.60051(10) -0.14871(9)
O2A O 0.48924(13) 0.64937(9) 0.17022(9)
O2D O 0.48924(13) 0.64937(9) 0.82978(9)
O2E O 0.51076(13) 0.35063(9) 0.82978(9)
O2F O 0.01076(13) 0.14937(9) 0.17022(9)
O2C O 0.01076(13) 0.14937(9) -0.17022(9)
O2G O 0.98924(13) 0.85063(9) 0.17022(9)
O2B O 0.98924(13) 0.85063(9) -0.17022(9)
O3F O 0.34542(18) 0.11934(15) 0.0000
O3G O 0.65458(18) 0.88066(15) 0.0000
O3D O 1.15458(18) 0.61934(15) 0.0000
H1E H -0.169(3) 0.437(2) 0.070(2)
H1F H 0.331(3) 0.063(2) -0.070(2)
H1C H 0.331(3) 0.063(2) 0.070(2)
H1G H 0.669(3) 0.937(2) -0.070(2)
H1B H 0.669(3) 0.937(2) 0.070(2)
H1D H 1.169(3) 0.563(2) 0.070(2)
H1A H 1.169(3) 0.563(2) -0.070(2)
C1E C 0.2039(2) 0.38337(16) 0.57032(14)
C1D C 0.7961(2) 0.61663(16) 0.57032(14)
C1A C 0.7961(2) 0.61663(16) 0.42968(14)
H2E H 0.103(2) 0.3414(18) 0.619(2)
H2A H 0.897(2) 0.6586(18) 0.381(2)
H2D H 0.897(2) 0.6586(18) 0.619(2)
C2E C 0.35252(18) 0.43346(14) 0.64050(14)
C2D C 0.64748(18) 0.56654(14) 0.64050(14)
C2A C 0.64748(18) 0.56654(14) 0.35950(14)
C3E C 0.5000 0.5000 0.57160(17)
C4A C 0.63914(18) 0.60548(14) 0.21458(13)
C4D C 0.63914(18) 0.60548(14) 0.78542(13)
C4E C 0.36086(18) 0.39452(14) 0.78542(13)
loop_
_geom_bond_atom_site_label_1
_geom_bond_atom_site_label_2
_geom_bond_site_symmetry_1
_geom_bond_site_symmetry_2
Mn1 O1 1_555 1_555
O1 C4 1_555 1_555
O2 C4 1_555 1_555
O3 Mn1 1_555 1_555
H1 O3 1_555 1_555
C1 H2 1_555 1_555
C2 C1 1_555 1_555
C3 C2 1_555 1_555
C4 C2 1_555 1_555
Mn1D O1A 1_555 1_555
Mn1F O2 1_555 1_555
Mn1F_2 O3 1_555 1_555
Mn1G O2A 1_555 1_555
Mn1D_2 O1D 1_555 1_555
Mn1G_2 O2D 1_555 1_555
Mn1_2 O1E 1_555 1_555
Mn1F_3 O2E 1_555 1_555
O1A C4A 1_555 1_555
O1D C4D 1_555 1_555
O1E C4E 1_555 1_555
O1E_2 Mn1 1_555 1_555
O1D_2 Mn1D 1_555 1_555
O2A C4A 1_555 1_555
O2D C4D 1_555 1_555
O2E C4E 1_555 1_555
O2F Mn1 1_555 1_555
O2C Mn1 1_555 1_555
O2G Mn1D 1_555 1_555
O2B Mn1D 1_555 1_555
O3F Mn1 1_555 1_555
O3G Mn1D 1_555 1_555
O3D Mn1D 1_555 1_555
H1E O3 1_555 1_555
H1F O3F 1_555 1_555
H1C O3F 1_555 1_555
H1G O3G 1_555 1_555
H1B O3G 1_555 1_555
H1D O3D 1_555 1_555
H1A O3D 1_555 1_555
C1E C1 1_555 1_555
C1D C1A 1_555 1_555
C1A H2A 1_555 1_555
H2E C1E 1_555 1_555
H2D C1D 1_555 1_555
C2E C1E 1_555 1_555
C2D C1D 1_555 1_555
C2A C3 1_555 1_555
C3E C3 1_555 1_555
C4A C2A 1_555 1_555
C4D C2D 1_555 1_555
C4E C2E 1_555 1_555
Mn1F O3F 1_555 1_555
Mn1G O3G 1_555 1_555
C1A C2A 1_555 1_555
C2E C3E 1_555 1_555
C2D C3E 1_555 1_555

#END
