
#######################################################################
#
#                 Cambridge Crystallographic Data Centre
#                                CCDC 
#
#######################################################################
#
# If this CIF has been generated from an entry in the Cambridge 
# Structural Database, then it will include bibliographic, chemical, 
# crystal, experimental, refinement or atomic coordinate data resulting 
# from the CCDC's data processing and validation procedures.
#
#######################################################################

data_TAPCEU
_symmetry_cell_setting           triclinic
_symmetry_space_group_name_H-M   'P -1'
_symmetry_Int_Tables_number      2
_space_group_name_Hall           '-P 1'
loop_
_symmetry_equiv_pos_site_id
_symmetry_equiv_pos_as_xyz
1 x,y,z
2 -x,-y,-z
_cell_length_a                   10.599(5)
_cell_length_b                   12.238(5)
_cell_length_c                   13.468(5)
_cell_angle_alpha                73.105(5)
_cell_angle_beta                 70.024(5)
_cell_angle_gamma                88.139(5)
_cell_volume                     1566.63
loop_
_atom_site_label
_atom_site_type_symbol
_atom_site_fract_x
_atom_site_fract_y
_atom_site_fract_z
Ni1 Ni 0.0000 0.5000 -0.5000
Ni2 Ni 0.0000 0.0000 0.0000
Mo1 Mo 0.16787(5) 0.78897(5) -0.59141(4)
Mo2 Mo -0.08389(5) 0.18149(5) 0.34648(4)
Mo3 Mo 0.17939(5) -0.00222(5) 0.19797(4)
Mo4 Mo 0.16056(5) 1.06676(4) -0.57188(4)
O1 O 0.2482(4) 0.9716(4) -0.6590(3)
O2 O -0.1845(4) -0.0019(4) 0.4456(3)
O3 O 0.0164(4) 0.8852(3) -0.4889(3)
O4 O 0.0712(4) 0.0974(4) 0.2985(3)
O5 O 0.0835(4) 0.8632(4) -0.7021(3)
O6 O 0.2228(4) 0.7871(3) -0.4699(3)
O7 O 0.3090(5) 0.7473(4) -0.6714(4)
O8 O 0.3225(5) -0.0540(4) 0.1255(4)
O9 O 0.0892(4) 0.0306(4) 0.1091(3)
O10 O -0.1710(5) 0.1789(4) 0.2618(4)
O11 O -0.0008(5) 0.3164(4) 0.2913(4)
O12 O 0.2629(5) 1.1907(4) -0.6291(4)
O13 O 0.0585(5) 0.6672(4) -0.5334(4)
O14 O -0.1149(5) 0.5063(4) -0.3383(4)
H1 H -0.1222 0.4548 -0.2781
H2 H -0.1340 0.5623 -0.3117
N1 N 0.3071(5) 0.1643(5) 0.1157(4)
N2 N 0.3712(6) 0.3516(5) 0.0470(5)
N3 N 0.4563(5) 0.2917(5) -0.0132(4)
N4 N 0.3180(6) 0.4492(5) -0.3794(5)
N5 N 0.3308(7) 0.3547(6) -0.4117(6)
N6 N 0.1590(5) 0.4504(4) -0.4464(4)
N7 N 0.1862(6) 0.0274(5) -0.1287(4)
N8 N 0.4063(7) 0.0344(8) -0.2059(6)
N9 N 0.3486(6) 0.0658(5) -0.2848(5)
N10 N 0.0334(6) -0.1738(5) 0.0535(4)
N11 N 0.0480(7) -0.3511(5) 0.1566(5)
N12 N 0.1075(6) -0.3393(5) 0.0465(5)
C1 C 0.4205(7) 0.1822(6) 0.0258(6)
H3 H 0.4655 0.1259 -0.0034
C2 C 0.2817(7) 0.2714(6) 0.1232(6)
H4 H 0.2075 0.2868 0.1774
C3 C 0.5700(7) 0.3483(7) -0.1121(5)
H5 H 0.6158 0.2915 -0.1461
H6 H 0.6332 0.3839 -0.0910
C4 C 0.5269(7) 0.4384(6) -0.1955(6)
H7 H 0.6061 0.4728 -0.2594
H8 H 0.4879 0.4982 -0.1630
C5 C 0.4258(7) 0.3938(6) -0.2344(6)
H9 H 0.3384 0.3772 -0.1759
H10 H 0.4543 0.3236 -0.2522
C6 C 0.4157(9) 0.4835(8) -0.3363(7)
H11 H 0.3902 0.5540 -0.3180
H12 H 0.5037 0.4991 -0.3941
C7 C 0.2174(7) 0.5042(6) -0.4008(6)
H13 H 0.1910 0.5725 -0.3856
C8 C 0.2319(8) 0.3599(7) -0.4516(7)
H14 H 0.2145 0.3046 -0.4810
C9 C 0.2162(7) 0.0587(6) -0.2360(6)
H15 H 0.1542 0.0737 -0.2723
C10 C 0.3063(8) 0.0148(9) -0.1177(6)
H16 H 0.3158 -0.0073 -0.0487
C11 C 0.4282(7) 0.0929(7) -0.4027(5)
H17 H 0.5079 0.1413 -0.4193
H18 H 0.3757 0.1349 -0.4459
C12 C 0.4696(7) -0.0144(6) -0.4348(6)
H19 H 0.3920 -0.0691 -0.4057
H20 H 0.5362 -0.0487 -0.4030
C13 C 0.0981(8) -0.2333(6) -0.0157(6)
H21 H 0.1306 -0.2064 -0.0926
C14 C 0.0062(8) -0.2497(6) 0.1565(6)
H22 H -0.0384 -0.2306 0.2212
C15 C 0.1649(9) -0.4360(7) 0.0022(8)
H23 H 0.2516 -0.4098 -0.0559
H24 H 0.1792 -0.4974 0.0609
C16 C 0.0740(14) -0.4808(12) -0.0427(13)
H25 H 0.1127 -0.5458 -0.0666
H26 H 0.0695 -0.4219 -0.1073
Ni2_2 Ni 1.0000 0.0000 -1.0000
Ni2_3 Ni 0.0000 -1.0000 0.0000
Ni2_4 Ni 0.0000 1.0000 -1.0000
Mo1A Mo -0.16787(5) 0.21103(5) -0.40859(4)
Mo1_2 Mo 0.16787(5) -0.21103(5) 0.40859(4)
Mo2A Mo 0.08389(5) 0.81851(5) -1.34648(4)
Mo2A_2 Mo 0.08389(5) 0.81851(5) -0.34648(4)
Mo2_2 Mo -0.08389(5) 0.18149(5) -0.65352(4)
Mo3A Mo -0.17939(5) 1.00222(5) -1.19797(4)
Mo3_2 Mo 0.17939(5) 0.99778(5) -0.80203(4)
Mo4_2 Mo 0.16056(5) 0.06676(4) 0.42812(4)
Mo4A Mo -0.16056(5) -0.06676(4) 0.57188(4)
Mo4A_2 Mo -0.16056(5) 0.93324(4) -0.42812(4)
Mo4_3 Mo 0.16056(5) 0.06676(4) -0.57188(4)
Mo4A_3 Mo -0.16056(5) -0.06676(4) -0.42812(4)
Mo4A_4 Mo -0.16056(5) 0.93324(4) -1.42812(4)
O1_2 O 0.2482(4) -0.0284(4) 0.3410(3)
O1A O -0.2482(4) 0.0284(4) -0.3410(3)
O1A_2 O -0.2482(4) 1.0284(4) -1.3410(3)
O2A O 0.1845(4) 1.0019(4) -0.4456(3)
O2A_2 O 0.1845(4) 1.0019(4) -1.4456(3)
O2A_3 O 0.1845(4) 0.0019(4) 0.5544(3)
O3A O -0.0164(4) 0.1148(3) -0.5111(3)
O3A_2 O -0.0164(4) 0.1148(3) 0.4889(3)
O3A_3 O -0.0164(4) 1.1148(3) -0.5111(3)
O3_2 O 0.0164(4) 0.8852(3) -1.4889(3)
O3_3 O 0.0164(4) -0.1148(3) 0.5111(3)
O4A O -0.0712(4) 0.9026(4) -1.2985(3)
O4_2 O 0.0712(4) 1.0974(4) -0.7015(3)
O5_2 O 0.0835(4) -0.1368(4) 0.2979(3)
O5A O -0.0835(4) 0.1368(4) -0.2979(3)
O5A_2 O -0.0835(4) 1.1368(4) -1.2979(3)
O6A O -0.2228(4) 0.2129(3) -0.5301(3)
O6A_2 O -0.2228(4) 0.2129(3) 0.4699(3)
O6_2 O 0.2228(4) 0.7871(3) -1.4699(3)
O7A O -0.3090(5) 0.2527(4) -0.3286(4)
O8A O -0.3225(5) 1.0540(4) -1.1255(4)
O9A O -0.0892(4) 0.9694(4) -1.1091(3)
O9A_2 O -0.0892(4) -0.0306(4) -0.1091(3)
O10A O 0.1710(5) 0.8211(4) -1.2618(4)
O11A O 0.0008(5) 0.6836(4) -1.2913(4)
O12_2 O 0.2629(5) 0.1907(4) 0.3709(4)
O13A O -0.0585(5) 0.3328(4) -0.4666(4)
O14A O 0.1149(5) 0.4937(4) -0.6617(4)
H1A H 0.1222 0.5452 -0.7219
H2A H 0.1340 0.4377 -0.6883
N1A N -0.3071(5) 0.8357(5) -1.1157(4)
N2A N -0.3712(6) 0.6484(5) -1.0470(5)
N3A N -0.4563(5) 0.7083(5) -0.9868(4)
N4A N -0.3180(6) 0.5508(5) -0.6206(5)
N5A N -0.3308(7) 0.6453(6) -0.5883(6)
N6A N -0.1590(5) 0.5496(4) -0.5536(4)
N7A N 0.8138(6) -0.0274(5) -0.8713(4)
N7A_2 N -0.1862(6) -0.0274(5) 0.1287(4)
N8A N 0.5937(7) -0.0344(8) -0.7941(6)
N9A N 0.6514(6) -0.0658(5) -0.7152(5)
N10A N -0.0334(6) -0.8262(5) -0.0535(4)
N10A_2 N -0.0334(6) 0.1738(5) -0.0535(4)
N11A N -0.0480(7) -0.6489(5) -0.1566(5)
N12A N -0.1075(6) -0.6607(5) -0.0465(5)
C1A C -0.4205(7) 0.8178(6) -1.0258(6)
H3A H -0.4655 0.8741 -0.9966
C2A C -0.2817(7) 0.7286(6) -1.1232(6)
H4A H -0.2075 0.7132 -1.1774
C3A C -0.5700(7) 0.6517(7) -0.8879(5)
H5A H -0.6158 0.7085 -0.8539
H6A H -0.6332 0.6161 -0.9090
C4A C -0.5269(7) 0.5616(6) -0.8045(6)
H7A H -0.6061 0.5272 -0.7406
H8A H -0.4879 0.5018 -0.8370
C5A C -0.4258(7) 0.6062(6) -0.7656(6)
H9A H -0.3384 0.6228 -0.8241
H10A H -0.4543 0.6764 -0.7478
C6A C -0.4157(9) 0.5165(8) -0.6637(7)
H11A H -0.3902 0.4460 -0.6820
H12A H -0.5037 0.5009 -0.6059
C7A C -0.2174(7) 0.4958(6) -0.5992(6)
H13A H -0.1910 0.4275 -0.6144
C8A C -0.2319(8) 0.6401(7) -0.5484(7)
H14A H -0.2145 0.6954 -0.5190
C9A C 0.7838(7) -0.0587(6) -0.7640(6)
H15A H 0.8458 -0.0737 -0.7277
C10A C 0.6937(8) -0.0148(9) -0.8823(6)
H16A H 0.6842 0.0073 -0.9513
C11A C 0.5718(7) -0.0929(7) -0.5973(5)
H17A H 0.4921 -0.1413 -0.5807
H18A H 0.6243 -0.1349 -0.5541
C12A C 0.5304(7) 0.0144(6) -0.5652(6)
H19A H 0.6080 0.0691 -0.5943
H20A H 0.4638 0.0487 -0.5970
C13A C -0.0981(8) -0.7667(6) 0.0157(6)
H21A H -0.1306 -0.7936 0.0926
C14A C -0.0062(8) -0.7503(6) -0.1565(6)
H22A H 0.0384 -0.7694 -0.2212
C15A C -0.1649(9) -0.5640(7) -0.0022(8)
H23A H -0.2516 -0.5902 0.0559
H24A H -0.1792 -0.5026 -0.0609
C16A C -0.0740(14) -0.5192(12) 0.0427(13)
H25A H -0.1127 -0.4542 0.0666
H26A H -0.0695 -0.5781 0.1073
O15 O 0.5719(11) 0.2736(9) 0.2147(11)
C17? C 0.047(2) -0.5257(18) 0.031(2)
H27? H 0.0825 -0.5934 0.0113
H28? H -0.0026 -0.5482 0.1103
loop_
_geom_bond_atom_site_label_1
_geom_bond_atom_site_label_2
_geom_bond_site_symmetry_1
_geom_bond_site_symmetry_2
Ni1 O13 1_555 1_555
Ni2 O9 1_555 1_555
Mo1 O1 1_555 1_555
Mo2 O2 1_555 1_555
Mo3 O4 1_555 1_555
Mo4 O1 1_555 1_555
O1 Mo3_2 1_555 1_555
O2 Mo4A 1_555 1_555
O3 Mo1 1_555 1_555
O4 Mo2 1_555 1_555
O5 Mo1 1_555 1_555
O6 Mo1 1_555 1_555
O7 Mo1 1_555 1_555
O8 Mo3 1_555 1_555
O9 Mo3 1_555 1_555
O10 Mo2 1_555 1_555
O11 Mo2 1_555 1_555
O12 Mo4 1_555 1_555
O13 Mo1 1_555 1_555
O14 Ni1 1_555 1_555
H1 O14 1_555 1_555
H2 O14 1_555 1_555
N1 Mo3 1_555 1_555
N2 N3 1_555 1_555
N3 C1 1_555 1_555
N4 N5 1_555 1_555
N5 C8 1_555 1_555
N6 Ni1 1_555 1_555
N7 Ni2 1_555 1_555
N8 N9 1_555 1_555
N9 C9 1_555 1_555
N10 Ni2 1_555 1_555
N11 N12 1_555 1_555
N12 C13 1_555 1_555
C1 N1 1_555 1_555
H3 C1 1_555 1_555
C2 N1 1_555 1_555
H4 C2 1_555 1_555
C3 N3 1_555 1_555
H5 C3 1_555 1_555
H6 C3 1_555 1_555
C4 C3 1_555 1_555
H7 C4 1_555 1_555
H8 C4 1_555 1_555
C5 C4 1_555 1_555
H9 C5 1_555 1_555
H10 C5 1_555 1_555
C6 N4 1_555 1_555
H11 C6 1_555 1_555
H12 C6 1_555 1_555
C7 N4 1_555 1_555
H13 C7 1_555 1_555
C8 N6 1_555 1_555
H14 C8 1_555 1_555
C9 N7 1_555 1_555
H15 C9 1_555 1_555
C10 N7 1_555 1_555
H16 C10 1_555 1_555
C11 N9 1_555 1_555
H17 C11 1_555 1_555
H18 C11 1_555 1_555
C12 C11 1_555 1_555
H19 C12 1_555 1_555
H20 C12 1_555 1_555
C13 N10 1_555 1_555
H21 C13 1_555 1_555
C14 N10 1_555 1_555
H22 C14 1_555 1_555
C15 N12 1_555 1_555
H23 C15 1_555 1_555
H24 C15 1_555 1_555
C16 C15 1_555 1_555
H25 C16 1_555 1_555
H26 C16 1_555 1_555
Ni2_2 N7A 1_555 1_555
Ni2_3 N10A 1_555 1_555
Ni2_4 O9A 1_555 1_555
Mo1A O1A 1_555 1_555
Mo1_2 O1_2 1_555 1_555
Mo2A O2A_2 1_555 1_555
Mo2A_2 O3 1_555 1_555
Mo2_2 O3A 1_555 1_555
Mo3A O1A_2 1_555 1_555
Mo3_2 O5 1_555 1_555
Mo4_2 O4 1_555 1_555
Mo4A O3A_2 1_555 1_555
Mo4A_2 O3 1_555 1_555
Mo4_3 O3A 1_555 1_555
Mo4A_3 O1A 1_555 1_555
Mo4A_4 O1A_2 1_555 1_555
O1_2 Mo3 1_555 1_555
O2A Mo4 1_555 1_555
O2A_3 Mo4_2 1_555 1_555
O3A Mo1A 1_555 1_555
O3A_2 Mo2 1_555 1_555
O3A_3 Mo4 1_555 1_555
O3_2 Mo2A 1_555 1_555
O3_3 Mo1_2 1_555 1_555
O4A Mo2A 1_555 1_555
O4_2 Mo4 1_555 1_555
O5_2 Mo3 1_555 1_555
O5A Mo1A 1_555 1_555
O5A_2 Mo3A 1_555 1_555
O6A Mo1A 1_555 1_555
O6A_2 Mo2 1_555 1_555
O6_2 Mo2A 1_555 1_555
O7A Mo1A 1_555 1_555
O8A Mo3A 1_555 1_555
O9A Mo3A 1_555 1_555
O9A_2 Ni2 1_555 1_555
O10A Mo2A 1_555 1_555
O11A Mo2A 1_555 1_555
O12_2 Mo4_2 1_555 1_555
O13A Ni1 1_555 1_555
O14A Ni1 1_555 1_555
H1A O14A 1_555 1_555
H2A O14A 1_555 1_555
N1A Mo3A 1_555 1_555
N2A N3A 1_555 1_555
N3A C1A 1_555 1_555
N4A N5A 1_555 1_555
N5A C8A 1_555 1_555
N6A Ni1 1_555 1_555
N7A C9A 1_555 1_555
N7A_2 Ni2 1_555 1_555
N8A N9A 1_555 1_555
N9A C9A 1_555 1_555
N10A C13A 1_555 1_555
N10A_2 Ni2 1_555 1_555
N11A N12A 1_555 1_555
N12A C13A 1_555 1_555
C1A N1A 1_555 1_555
H3A C1A 1_555 1_555
C2A N1A 1_555 1_555
H4A C2A 1_555 1_555
C3A N3A 1_555 1_555
H5A C3A 1_555 1_555
H6A C3A 1_555 1_555
C4A C3A 1_555 1_555
H7A C4A 1_555 1_555
H8A C4A 1_555 1_555
C5A C4A 1_555 1_555
H9A C5A 1_555 1_555
H10A C5A 1_555 1_555
C6A N4A 1_555 1_555
H11A C6A 1_555 1_555
H12A C6A 1_555 1_555
C7A N4A 1_555 1_555
H13A C7A 1_555 1_555
C8A N6A 1_555 1_555
H14A C8A 1_555 1_555
C9A H15A 1_555 1_555
C10A N7A 1_555 1_555
H16A C10A 1_555 1_555
C11A N9A 1_555 1_555
H17A C11A 1_555 1_555
H18A C11A 1_555 1_555
C12A C12 1_555 1_555
H19A C12A 1_555 1_555
H20A C12A 1_555 1_555
C13A H21A 1_555 1_555
C14A N10A 1_555 1_555
H22A C14A 1_555 1_555
C15A N12A 1_555 1_555
H23A C15A 1_555 1_555
H24A C15A 1_555 1_555
C16A C16 1_555 1_555
H25A C16A 1_555 1_555
H26A C16A 1_555 1_555
Mo4 O3 1_555 1_555
O6 Mo2A_2 1_555 1_555
N2 C2 1_555 1_555
N6 C7 1_555 1_555
N8 C10 1_555 1_555
N11 C14 1_555 1_555
C5 C6 1_555 1_555
Mo1A O13A 1_555 1_555
Mo1_2 O5_2 1_555 1_555
Mo2A_2 O2A 1_555 1_555
Mo2_2 O6A 1_555 1_555
Mo3A O4A 1_555 1_555
Mo3_2 O4_2 1_555 1_555
Mo4_2 O1_2 1_555 1_555
Mo4_2 O3A_2 1_555 1_555
Mo4_2 O3_3 1_555 1_555
Mo4A O3_3 1_555 1_555
Mo4A_2 O3A_3 1_555 1_555
Mo4A_3 O3A 1_555 1_555
Mo4A_4 O3_2 1_555 1_555
Mo4A_4 O4A 1_555 1_555
N2A C2A 1_555 1_555
N6A C7A 1_555 1_555
N8A C10A 1_555 1_555
N11A C14A 1_555 1_555
C5A C6A 1_555 1_555
C11A C12A 1_555 1_555
C15A C16A 1_555 1_555

#END
