
#######################################################################
#
#                 Cambridge Crystallographic Data Centre
#                                CCDC 
#
#######################################################################
#
# If this CIF has been generated from an entry in the Cambridge 
# Structural Database, then it will include bibliographic, chemical, 
# crystal, experimental, refinement or atomic coordinate data resulting 
# from the CCDC's data processing and validation procedures.
#
#######################################################################

data_TAPFOG
_symmetry_cell_setting           triclinic
_symmetry_space_group_name_H-M   'P -1'
_symmetry_Int_Tables_number      2
_space_group_name_Hall           '-P 1'
loop_
_symmetry_equiv_pos_site_id
_symmetry_equiv_pos_as_xyz
1 x,y,z
2 -x,-y,-z
_cell_length_a                   10.572(4)
_cell_length_b                   12.517(5)
_cell_length_c                   8.070(3)
_cell_angle_alpha                109.72(1)
_cell_angle_beta                 110.76(1)
_cell_angle_gamma                100.07(1)
_cell_volume                     885.849
loop_
_atom_site_label
_atom_site_type_symbol
_atom_site_fract_x
_atom_site_fract_y
_atom_site_fract_z
Er1 Er 0.208026(13) 0.097074(11) 0.16730(2)
O1 O -0.0344(3) 0.0263(2) 0.1529(4)
O2 O 0.1388(3) 0.1708(3) 0.4242(4)
O3 O 0.4080(3) 0.1287(2) 0.4213(4)
O4 O 0.3540(3) 0.1084(3) 1.0179(4)
O5 O 0.3126(3) 0.3109(2) 0.2953(4)
O6 O 0.0913(3) 0.2257(2) 0.0700(4)
O7 O 0.1902(4) -0.0940(3) 0.1418(6)
C1 C 0.0100(4) 0.1061(3) 0.3282(5)
C2 C -0.0926(4) 0.1190(3) 0.4157(6)
C3 C -0.0385(5) 0.2382(4) 0.5968(6)
C4 C -0.0233(4) 0.3444(4) 0.5483(6)
O8 O -0.1157(3) 0.3415(3) 0.3994(5)
N1 N 0.0891(5) 0.4423(4) 0.6770(7)
C5 C 0.4959(4) 0.1410(3) 0.5878(5)
O9 O 0.6259(3) 0.1669(3) 0.6376(4)
C6 C 0.4337(5) 0.1215(4) 0.7218(6)
C7 C 0.5242(6) 0.2045(5) 0.9334(7)
C8 C 0.4829(4) 0.1674(4) 1.0713(6)
N2 N 0.5851(4) 0.2021(4) 1.2464(6)
C9 C 0.1968(4) 0.3204(3) 0.1948(6)
C10 C 0.1815(5) 0.4405(4) 0.2240(7)
C11 C 0.3236(5) 0.5404(3) 0.3112(6)
C12 C 0.3982(4) 0.5183(3) 0.1828(6)
O10 O 0.3297(4) 0.4561(3) 0.0025(5)
N3 N 0.5388(4) 0.5704(4) 0.2690(6)
H1 H 0.1263(64) -0.1474(52) 0.0810(86)
H2 H 0.2507(71) -0.1081(54) 0.230(10)
H3 H -0.1829(56) 0.1116(43) 0.3198(76)
H4 H -0.0997(80) 0.0519(68) 0.452(11)
H5 H -0.1052(62) 0.2400(49) 0.6522(85)
H6 H 0.0553(49) 0.2501(39) 0.7052(68)
H7 H 0.1402(61) 0.4342(50) 0.7439(86)
H8 H 0.1019(59) 0.5127(51) 0.6419(83)
H9 H 0.4311(78) 0.0365(69) 0.712(11)
H10 H 0.3412(92) 0.1136(71) 0.680(12)
H11 H 0.6337(98) 0.2204(77) 0.974(13)
H12 H 0.556(10) 0.3094(90) 0.998(14)
H13 H 0.6733(69) 0.2336(54) 1.2604(88)
H14 H 0.5695(79) 0.1855(65) 1.320(11)
H15 H 0.1375(47) 0.4535(38) 0.3106(67)
H16 H 0.1147(57) 0.4356(43) 0.1116(81)
H17 H 0.3862(52) 0.5526(41) 0.4489(75)
H18 H 0.3098(46) 0.6096(40) 0.3184(63)
H19 H 0.5890(55) 0.6223(45) 0.3925(83)
H20 H 0.5699(63) 0.5693(51) 0.2028(91)
Er1A Er -0.208026(13) -0.097074(11) -0.16730(2)
Er1_2 Er 0.208026(13) 0.097074(11) 1.16730(2)
O1A O 0.0344(3) -0.0263(2) -0.1529(4)
O4_2 O 0.3540(3) 0.1084(3) 0.0179(4)
loop_
_geom_bond_atom_site_label_1
_geom_bond_atom_site_label_2
_geom_bond_site_symmetry_1
_geom_bond_site_symmetry_2
Er1 O1 1_555 1_555
O1 C1 1_555 1_555
O2 Er1 1_555 1_555
O3 Er1 1_555 1_555
O4 C8 1_555 1_555
O5 Er1 1_555 1_555
O6 Er1 1_555 1_555
O7 Er1 1_555 1_555
C1 O2 1_555 1_555
C2 C1 1_555 1_555
C3 C2 1_555 1_555
C4 C3 1_555 1_555
O8 C4 1_555 1_555
N1 C4 1_555 1_555
C5 O3 1_555 1_555
O9 C5 1_555 1_555
C6 C5 1_555 1_555
C7 C6 1_555 1_555
C8 C7 1_555 1_555
N2 C8 1_555 1_555
C9 O5 1_555 1_555
C10 C9 1_555 1_555
C11 C10 1_555 1_555
C12 C11 1_555 1_555
O10 C12 1_555 1_555
N3 C12 1_555 1_555
H1 O7 1_555 1_555
H2 O7 1_555 1_555
H3 C2 1_555 1_555
H4 C2 1_555 1_555
H5 C3 1_555 1_555
H6 C3 1_555 1_555
H7 N1 1_555 1_555
H8 N1 1_555 1_555
H9 C6 1_555 1_555
H10 C6 1_555 1_555
H11 C7 1_555 1_555
H12 C7 1_555 1_555
H13 N2 1_555 1_555
H14 N2 1_555 1_555
H15 C10 1_555 1_555
H16 C10 1_555 1_555
H17 C11 1_555 1_555
H18 C11 1_555 1_555
H19 N3 1_555 1_555
H20 N3 1_555 1_555
Er1A O1 1_555 1_555
Er1_2 O4 1_555 1_555
O1A Er1 1_555 1_555
O4_2 Er1 1_555 1_555
O6 C9 1_555 1_555
Er1A O1A 1_555 1_555

#END
