
#######################################################################
#
#                 Cambridge Crystallographic Data Centre
#                                CCDC 
#
#######################################################################
#
# If this CIF has been generated from an entry in the Cambridge 
# Structural Database, then it will include bibliographic, chemical, 
# crystal, experimental, refinement or atomic coordinate data resulting 
# from the CCDC's data processing and validation procedures.
#
#######################################################################

data_TAPGUN
_symmetry_cell_setting           tetragonal
_symmetry_space_group_name_H-M   'P 4/n'
_symmetry_Int_Tables_number      85
_space_group_name_Hall           '-P 4a'
loop_
_symmetry_equiv_pos_site_id
_symmetry_equiv_pos_as_xyz
1 x,y,z
2 1/2-y,x,z
3 y,1/2-x,z
4 1/2-x,1/2-y,z
5 -x,-y,-z
6 1/2+y,-x,-z
7 -y,1/2+x,-z
8 1/2+x,1/2+y,-z
_cell_length_a                   12.3790(13)
_cell_length_b                   12.3790(13)
_cell_length_c                   6.5695(8)
_cell_angle_alpha                90
_cell_angle_beta                 90
_cell_angle_gamma                90
_cell_volume                     1006.71
loop_
_atom_site_label
_atom_site_type_symbol
_atom_site_fract_x
_atom_site_fract_y
_atom_site_fract_z
La1 La 0.2500 0.2500 1.04365(5)
K1 K 0.7500 0.2500 2.0000
O1 O 0.2500 0.2500 1.4349(7)
N1 N 0.4250(2) 0.3392(3) 1.1917(5)
N2 N 0.6803(2) 0.5916(2) 1.1929(5)
N3 N 0.6439(3) 0.3669(3) 1.7074(6)
C1 C 0.4995(2) 0.3803(3) 1.2609(5)
C2 C 0.6394(2) 0.5178(2) 1.2629(5)
C3 C 0.6206(3) 0.3942(3) 1.5475(5)
C4 C 0.5896(2) 0.4281(2) 1.3509(5)
La1G La 0.7500 0.7500 0.95635(5)
La1G_2 La -0.2500 -0.2500 0.95635(5)
La1G_3 La 0.7500 -0.2500 0.95635(5)
La1G_4 La -0.2500 0.7500 0.95635(5)
K1_2 K -0.2500 0.2500 2.0000
K1A K 0.2500 -0.2500 2.0000
K1A_2 K 0.2500 0.7500 2.0000
N1C N 0.0750(2) 0.1608(3) 1.1917(5)
N1B N 0.3392(3) 0.0750(2) 1.1917(5)
N1A N 0.1608(3) 0.4250(2) 1.1917(5)
N2C N -0.1803(2) -0.0916(2) 1.1929(5)
N2B N 0.5916(2) -0.1803(2) 1.1929(5)
N2A N -0.0916(2) 0.6803(2) 1.1929(5)
N2G N 0.1803(2) 0.0916(2) 0.8071(5)
N2D N 0.3197(2) 0.4084(2) 0.8071(5)
N2E N 0.0916(2) 0.3197(2) 0.8071(5)
N2F N 0.4084(2) 0.1803(2) 0.8071(5)
N3C N -0.1439(3) 0.1331(3) 1.7074(6)
N3B N 0.3669(3) -0.1439(3) 1.7074(6)
N3A N 0.1331(3) 0.6439(3) 1.7074(6)
N3E N 0.8669(3) 0.3561(3) 2.2926(6)
N3F N 0.6331(3) 0.1439(3) 2.2926(6)
N3C_2 N 0.8561(3) 0.1331(3) 1.7074(6)
C1C C 0.0005(2) 0.1197(3) 1.2609(5)
C1B C 0.3803(3) 0.0005(2) 1.2609(5)
C1A C 0.1197(3) 0.4995(2) 1.2609(5)
C2C C -0.1394(2) -0.0178(2) 1.2629(5)
C2B C 0.5178(2) -0.1394(2) 1.2629(5)
C2A C -0.0178(2) 0.6394(2) 1.2629(5)
C3C C -0.1206(3) 0.1058(3) 1.5475(5)
C3B C 0.3942(3) -0.1206(3) 1.5475(5)
C3A C 0.1058(3) 0.6206(3) 1.5475(5)
C4C C -0.0896(2) 0.0719(2) 1.3509(5)
C4B C 0.4281(2) -0.0896(2) 1.3509(5)
C4A C 0.0719(2) 0.5896(2) 1.3509(5)
loop_
_geom_bond_atom_site_label_1
_geom_bond_atom_site_label_2
_geom_bond_site_symmetry_1
_geom_bond_site_symmetry_2
La1 O1 1_555 1_555
K1 N3 1_555 1_555
N1 La1 1_555 1_555
N2 C2 1_555 1_555
N3 C3 1_555 1_555
C1 N1 1_555 1_555
C2 C4 1_555 1_555
C3 C4 1_555 1_555
C4 C1 1_555 1_555
La1G N2 1_555 1_555
La1G_2 N2C 1_555 1_555
La1G_3 N2B 1_555 1_555
La1G_4 N2A 1_555 1_555
K1_2 N3C 1_555 1_555
K1A N3B 1_555 1_555
K1A_2 N3A 1_555 1_555
N1C La1 1_555 1_555
N1B La1 1_555 1_555
N1A La1 1_555 1_555
N2C C2C 1_555 1_555
N2B C2B 1_555 1_555
N2A C2A 1_555 1_555
N2G La1 1_555 1_555
N2D La1 1_555 1_555
N2E La1 1_555 1_555
N2F La1 1_555 1_555
N3C C3C 1_555 1_555
N3B C3B 1_555 1_555
N3A C3A 1_555 1_555
N3E K1 1_555 1_555
N3F K1 1_555 1_555
N3C_2 K1 1_555 1_555
C1C N1C 1_555 1_555
C1B N1B 1_555 1_555
C1A N1A 1_555 1_555
C2C C4C 1_555 1_555
C2B C4B 1_555 1_555
C2A C4A 1_555 1_555
C3C C4C 1_555 1_555
C3B C4B 1_555 1_555
C3A C4A 1_555 1_555
C4C C1C 1_555 1_555
C4B C1B 1_555 1_555
C4A C1A 1_555 1_555

#END
