
#######################################################################
#
#                 Cambridge Crystallographic Data Centre
#                                CCDC 
#
#######################################################################
#
# If this CIF has been generated from an entry in the Cambridge 
# Structural Database, then it will include bibliographic, chemical, 
# crystal, experimental, refinement or atomic coordinate data resulting 
# from the CCDC's data processing and validation procedures.
#
#######################################################################

data_TAPGUO
_symmetry_cell_setting           monoclinic
_symmetry_space_group_name_H-M   'C 2/c'
_symmetry_Int_Tables_number      15
_space_group_name_Hall           '-C 2yn'
loop_
_symmetry_equiv_pos_site_id
_symmetry_equiv_pos_as_xyz
1 x,y,z
2 -x,y,1/2-z
3 1/2+x,1/2+y,z
4 1/2-x,1/2+y,1/2-z
5 -x,-y,-z
6 x,-y,1/2+z
7 1/2-x,1/2-y,-z
8 1/2+x,1/2-y,1/2+z
_cell_length_a                   16.0549(9)
_cell_length_b                   14.7739(8)
_cell_length_c                   20.9160(12)
_cell_angle_alpha                90
_cell_angle_beta                 105.132(1)
_cell_angle_gamma                90
_cell_volume                     4789.12
loop_
_atom_site_label
_atom_site_type_symbol
_atom_site_fract_x
_atom_site_fract_y
_atom_site_fract_z
Zn1 Zn 0.187205(19) 0.369999(18) 0.396272(16)
O1 O 0.53334(14) 0.08968(15) 0.38519(12)
H1 H 0.562(2) 0.058(2) 0.3674(19)
O2 O 0.18988(14) 0.27147(14) 0.30006(11)
O3 O 0.28118(13) 0.28339(12) 0.39912(10)
O4 O 0.36261(12) -0.03145(12) 0.16548(9)
O5 O 0.22605(13) -0.01786(13) 0.16966(11)
N1 N -0.20345(15) 0.23238(15) 0.45062(12)
N2 N 0.07816(15) 0.30611(14) 0.40365(12)
N3 N 0.23111(15) 0.43047(14) 0.48740(12)
N4 N 0.42626(16) 0.58563(15) 0.69255(12)
C1 C -0.07024(19) 0.26716(19) 0.35794(15)
H2 H -0.1211 0.2724 0.3226
C2 C -0.15852(19) 0.2538(2) 0.51976(15)
H3 H -0.1041 0.2862 0.5211
H4 H -0.1438 0.1970 0.5453
C3 C 0.30310(19) -0.00110(17) 0.19209(15)
C4 C 0.18023(19) 0.46276(18) 0.52394(16)
H5 H 0.1198 0.4526 0.5092
C5 C 0.31535(18) 0.17759(17) 0.32360(14)
C6 C 0.33546(18) 0.05766(17) 0.25181(14)
C7 C 0.29980(19) 0.52676(19) 0.60492(14)
C8 C 0.00511(19) 0.30940(19) 0.35470(15)
H6 H 0.0053 0.3425 0.3158
C9 C 0.39914(18) 0.16679(18) 0.36205(15)
H7 H 0.4208 0.2047 0.3994
C10 C 0.00614(19) 0.21033(18) 0.46348(15)
H8 H 0.0089 0.1743 0.5016
C11 C 0.45187(18) 0.10007(19) 0.34585(15)
C12 C 0.41896(18) 0.04585(18) 0.29066(15)
H9 H 0.4542 0.0001 0.2794
C13 C -0.15142(19) 0.17121(19) 0.42126(16)
H10 H -0.1861 0.1512 0.3772
H11 H -0.1358 0.1169 0.4496
C14 C -0.28537(18) 0.18796(19) 0.44900(15)
H12 H -0.3165 0.1749 0.4025
H13 H -0.2738 0.1296 0.4730
C15 C 0.31639(18) 0.44469(18) 0.51017(15)
H14 H 0.3534 0.4216 0.4852
C16 C 0.25767(18) 0.24830(18) 0.34064(14)
C17 C 0.21239(19) 0.51013(19) 0.58212(15)
H15 H 0.1741 0.5314 0.6066
C18 C 0.2824(2) 0.12297(16) 0.26855(16)
H16 H 0.2245 0.1302 0.2428
C19 C 0.07802(18) 0.25655(18) 0.45714(14)
H17 H 0.1294 0.2531 0.4920
C20 C -0.07014(18) 0.21669(18) 0.41404(15)
C21 C 0.35300(19) 0.49119(18) 0.56796(15)
H18 H 0.4138 0.4989 0.5824
C22 C 0.45199(19) 0.50438(18) 0.73350(15)
H19 H 0.4370 0.4498 0.7054
H20 H 0.4198 0.5020 0.7679
C23 C 0.4525(2) 0.66689(19) 0.73413(15)
H21 H 0.4210 0.6687 0.7689
H22 H 0.4370 0.7218 0.7065
C24 C 0.3327(2) 0.5872(2) 0.66424(15)
H23 H 0.3150 0.6502 0.6513
H24 H 0.3045 0.5691 0.6991
Zn1C Zn 0.312795(19) 0.869999(18) 0.103728(16)
Zn1C_2 Zn 0.312795(19) -0.130001(18) 0.103728(16)
Zn1F Zn -0.687205(19) 0.130001(18) 0.603728(16)
Zn1A Zn 0.812795(19) 0.369999(18) 1.103728(16)
O1C O -0.03334(14) 0.58968(15) 0.11481(12)
H1C H -0.062(2) 0.558(2) 0.1326(19)
O2C O 0.31012(14) 0.77147(14) 0.19994(11)
O3C O 0.21882(13) 0.78339(12) 0.10088(10)
O4C O 0.13739(12) 0.46855(12) 0.33452(9)
O4_2 O 0.36261(12) 0.96855(12) 0.16548(9)
O5C O 0.27395(13) 0.48214(13) 0.33034(11)
N1F N -0.29655(15) 0.26762(15) 0.54938(12)
N2F N -0.57816(15) 0.19389(14) 0.59635(12)
N2C N 0.42184(15) 0.80611(14) 0.09635(12)
N3A N 0.76889(15) 0.43047(14) 1.01260(12)
N3C N 0.26889(15) 0.93047(14) 0.01260(12)
N4A N 0.57374(16) 0.58563(15) 0.80745(12)
C1F C -0.42976(19) 0.23284(19) 0.64206(15)
H2F H -0.3789 0.2276 0.6774
C2F C -0.34148(19) 0.2462(2) 0.48024(15)
H3F H -0.3959 0.2138 0.4789
H4F H -0.3562 0.3030 0.4547
C3C C 0.19690(19) 0.49890(17) 0.30791(15)
C4A C 0.81977(19) 0.46276(18) 0.97606(16)
H5A H 0.8802 0.4526 0.9908
C5C C 0.18465(18) 0.67759(17) 0.17640(14)
C6C C 0.16454(18) 0.55766(17) 0.24819(14)
C7A C 0.70020(19) 0.52676(19) 0.89508(14)
C8F C -0.50511(19) 0.19060(19) 0.64530(15)
H6F H -0.5053 0.1575 0.6842
C9C C 0.10086(18) 0.66679(18) 0.13795(15)
H7C H 0.0792 0.7047 0.1006
C10F C -0.50614(19) 0.28967(18) 0.53652(15)
H8F H -0.5089 0.3257 0.4984
C11C C 0.04813(18) 0.60007(19) 0.15415(15)
C12C C 0.08104(18) 0.54585(18) 0.20934(15)
H9C H 0.0458 0.5001 0.2206
C13F C -0.34858(19) 0.32879(19) 0.57874(16)
H10F H -0.3139 0.3488 0.6228
H11F H -0.3642 0.3831 0.5504
C14F C -0.21463(18) 0.31204(19) 0.55100(15)
H12F H -0.1835 0.3251 0.5975
H13F H -0.2262 0.3704 0.5270
C15A C 0.68361(18) 0.44469(18) 0.98983(15)
H14A H 0.6466 0.4216 1.0148
C16C C 0.24233(18) 0.74830(18) 0.15936(14)
C17A C 0.78761(19) 0.51013(19) 0.91788(15)
H15A H 0.8259 0.5314 0.8934
C18C C 0.2176(2) 0.62297(16) 0.23145(16)
H16C H 0.2755 0.6302 0.2572
C19F C -0.57802(18) 0.24345(18) 0.54286(14)
H17F H -0.6294 0.2469 0.5080
C20F C -0.42986(18) 0.28331(18) 0.58596(15)
C21A C 0.64700(19) 0.49119(18) 0.93204(15)
H18A H 0.5862 0.4989 0.9176
C22A C 0.54801(19) 0.50438(18) 0.76650(15)
H19A H 0.5630 0.4498 0.7946
H20A H 0.5802 0.5020 0.7321
C23A C 0.5475(2) 0.66689(19) 0.76587(15)
H21A H 0.5790 0.6687 0.7311
H22A H 0.5630 0.7218 0.7935
C24A C 0.6673(2) 0.5872(2) 0.83576(15)
H23A H 0.6850 0.6502 0.8487
H24A H 0.6955 0.5691 0.8009
O6 O 0.05078(16) -0.0833(2) 0.10105(12)
H25 H 0.020(2) -0.095(3) 0.1286(17)
H26 H 0.1021(14) -0.071(3) 0.1243(18)
loop_
_geom_bond_atom_site_label_1
_geom_bond_atom_site_label_2
_geom_bond_site_symmetry_1
_geom_bond_site_symmetry_2
Zn1 O3 1_555 1_555
O1 H1 1_555 1_555
O2 C16 1_555 1_555
O3 C16 1_555 1_555
O4 C3 1_555 1_555
O5 C3 1_555 1_555
N1 C2 1_555 1_555
N2 Zn1 1_555 1_555
N3 Zn1 1_555 1_555
N4 C22 1_555 1_555
C1 H2 1_555 1_555
C2 H3 1_555 1_555
H4 C2 1_555 1_555
C3 C6 1_555 1_555
C4 N3 1_555 1_555
H5 C4 1_555 1_555
C5 C9 1_555 1_555
C6 C12 1_555 1_555
C7 C17 1_555 1_555
C8 N2 1_555 1_555
H6 C8 1_555 1_555
C9 H7 1_555 1_555
C10 H8 1_555 1_555
C11 O1 1_555 1_555
C12 C11 1_555 1_555
H9 C12 1_555 1_555
C13 N1 1_555 1_555
H10 C13 1_555 1_555
H11 C13 1_555 1_555
C14 N1 1_555 1_555
H12 C14 1_555 1_555
H13 C14 1_555 1_555
C15 N3 1_555 1_555
H14 C15 1_555 1_555
C16 C5 1_555 1_555
C17 C4 1_555 1_555
H15 C17 1_555 1_555
C18 C5 1_555 1_555
H16 C18 1_555 1_555
C19 N2 1_555 1_555
H17 C19 1_555 1_555
C20 C1 1_555 1_555
C21 C7 1_555 1_555
H18 C21 1_555 1_555
C22 H19 1_555 1_555
H20 C22 1_555 1_555
C23 N4 1_555 1_555
H21 C23 1_555 1_555
H22 C23 1_555 1_555
C24 N4 1_555 1_555
H23 C24 1_555 1_555
H24 C24 1_555 1_555
O6 H25 1_555 1_555
H26 O6 1_555 1_555
Zn1C O3C 1_555 1_555
Zn1C_2 O4 1_555 1_555
Zn1F N2F 1_555 1_555
Zn1A N3A 1_555 1_555
O1C H1C 1_555 1_555
O2C C16C 1_555 1_555
O3C C16C 1_555 1_555
O4C Zn1 1_555 1_555
O4_2 Zn1C 1_555 1_555
O5C C3C 1_555 1_555
N1F C2F 1_555 1_555
N2F C8F 1_555 1_555
N2C Zn1C 1_555 1_555
N3A C4A 1_555 1_555
N3C Zn1C 1_555 1_555
N4A C22A 1_555 1_555
C1F H2F 1_555 1_555
C2F C14 1_555 1_555
H3F C2F 1_555 1_555
H4F C2F 1_555 1_555
C3C O4C 1_555 1_555
C4A H5A 1_555 1_555
C5C C9C 1_555 1_555
C6C C3C 1_555 1_555
C7A C17A 1_555 1_555
C8F C1F 1_555 1_555
H6F C8F 1_555 1_555
C9C H7C 1_555 1_555
C10F H8F 1_555 1_555
C11C O1C 1_555 1_555
C12C C6C 1_555 1_555
H9C C12C 1_555 1_555
C13F N1F 1_555 1_555
H10F C13F 1_555 1_555
H11F C13F 1_555 1_555
C14F C2 1_555 1_555
H12F C14F 1_555 1_555
H13F C14F 1_555 1_555
C15A N3A 1_555 1_555
H14A C15A 1_555 1_555
C16C C5C 1_555 1_555
C17A C4A 1_555 1_555
H15A C17A 1_555 1_555
C18C C5C 1_555 1_555
H16C C18C 1_555 1_555
C19F N2F 1_555 1_555
H17F C19F 1_555 1_555
C20F C1F 1_555 1_555
C21A C7A 1_555 1_555
H18A C21A 1_555 1_555
C22A C22 1_555 1_555
H19A C22A 1_555 1_555
H20A C22A 1_555 1_555
C23A C23 1_555 1_555
H21A C23A 1_555 1_555
H22A C23A 1_555 1_555
C24A N4A 1_555 1_555
H23A C24A 1_555 1_555
H24A C24A 1_555 1_555
C1 C8 1_555 1_555
C6 C18 1_555 1_555
C7 C24 1_555 1_555
C9 C11 1_555 1_555
C10 C19 1_555 1_555
C10 C20 1_555 1_555
C13 C20 1_555 1_555
C15 C21 1_555 1_555
N1F C14F 1_555 1_555
N4A C23A 1_555 1_555
C6C C18C 1_555 1_555
C7A C24A 1_555 1_555
C9C C11C 1_555 1_555
C10F C19F 1_555 1_555
C10F C20F 1_555 1_555
C11C C12C 1_555 1_555
C13F C20F 1_555 1_555
C15A C21A 1_555 1_555

#END
