
#######################################################################
#
#                 Cambridge Crystallographic Data Centre
#                                CCDC 
#
#######################################################################
#
# If this CIF has been generated from an entry in the Cambridge 
# Structural Database, then it will include bibliographic, chemical, 
# crystal, experimental, refinement or atomic coordinate data resulting 
# from the CCDC's data processing and validation procedures.
#
#######################################################################

data_TAPHAV
_symmetry_cell_setting           monoclinic
_symmetry_space_group_name_H-M   'P 21/c'
_symmetry_Int_Tables_number      14
_space_group_name_Hall           '-P 2ybc'
loop_
_symmetry_equiv_pos_site_id
_symmetry_equiv_pos_as_xyz
1 x,y,z
2 -x,1/2+y,1/2-z
3 -x,-y,-z
4 x,1/2-y,1/2+z
_cell_length_a                   12.1267(2)
_cell_length_b                   28.8702(4)
_cell_length_c                   9.6769(1)
_cell_angle_alpha                90
_cell_angle_beta                 93.585(1)
_cell_angle_gamma                90
_cell_volume                     3381.26
loop_
_atom_site_label
_atom_site_type_symbol
_atom_site_fract_x
_atom_site_fract_y
_atom_site_fract_z
Zn1 Zn -0.19806(2) 0.140740(10) -0.32334(3)
O1 O -0.10877(13) 0.15282(6) -0.47652(18)
O2 O -0.17334(15) 0.15913(7) -1.12949(18)
O3 O -0.01852(17) 0.19419(7) -1.1875(2)
O4 O 0.24084(16) 0.24963(7) -0.8109(2)
O5 O 0.22762(17) 0.22180(9) -0.6066(2)
O10 O -0.23384(14) 0.12576(7) -0.6364(2)
N1 N -0.68042(16) -0.30847(7) -0.1160(2)
N2 N -0.47434(16) -0.15938(7) -0.0705(2)
N3 N -0.43543(16) -0.08460(7) -0.2591(2)
H3 H -0.3679(15) -0.0891(9) -0.283(3)
N4 N -0.28734(15) 0.08089(7) -0.3146(2)
C1 C -0.0477(2) 0.18377(8) -0.9492(3)
C2 C 0.0527(2) 0.20499(8) -0.9094(3)
H4 H 0.0976 0.2181 -0.9762
C3 C 0.0847(2) 0.20632(9) -0.7704(3)
C4 C 0.02176(19) 0.18798(8) -0.6695(3)
H5 H 0.0466 0.1896 -0.5745
C5 C -0.07806(19) 0.16725(8) -0.7093(3)
C6 C -0.11252(19) 0.16520(8) -0.8497(3)
H6 H -0.1810 0.1510 -0.8774
C7 C -0.0811(2) 0.17925(9) -1.1012(3)
N5 N 0.19139(17) 0.22745(8) -0.7251(2)
C8 C -0.14832(19) 0.14649(8) -0.6013(3)
C17 C -0.57122(19) -0.31465(9) -0.1208(3)
H10 H -0.5455 -0.3433 -0.1552
C18 C -0.4940(2) -0.28156(9) -0.0784(3)
H11 H -0.4174 -0.2877 -0.0839
C19 C -0.6416(2) -0.23335(9) -0.0196(3)
H12 H -0.6691 -0.2054 0.0169
C20 C -0.5286(2) -0.23962(8) -0.0280(3)
C21 C -0.7135(2) -0.26788(9) -0.0642(3)
H13 H -0.7904 -0.2628 -0.0582
C22 C -0.4475(2) -0.20135(9) 0.0113(3)
H14 H -0.4502 -0.1943 0.1112
H15 H -0.3717 -0.2117 -0.0056
C23 C -0.3975(2) -0.12197(8) -0.0304(3)
H16 H -0.3219 -0.1307 -0.0536
H17 H -0.3969 -0.1169 0.0708
C24 C -0.4317(2) -0.07768(9) -0.1057(3)
H18 H -0.5055 -0.0680 -0.0781
H19 H -0.3784 -0.0528 -0.0791
C25 C -0.5048(2) -0.12582(9) -0.3004(3)
H20 H -0.4994 -0.1319 -0.4004
H21 H -0.5830 -0.1192 -0.2844
C26 C -0.4677(2) -0.16805(9) -0.2187(3)
H22 H -0.5151 -0.1947 -0.2469
H23 H -0.3906 -0.1758 -0.2383
C27 C -0.48085(19) -0.04327(8) -0.3383(3)
H24 H -0.4901 -0.0514 -0.4377
H25 H -0.5549 -0.0359 -0.3065
C28 C -0.40948(19) -0.00090(8) -0.3225(3)
C29 C -0.43034(19) 0.03412(9) -0.2292(3)
H26 H -0.4875 0.0307 -0.1672
C30 C -0.36738(19) 0.07397(9) -0.2274(3)
H27 H -0.3813 0.0974 -0.1618
C31 C -0.2653(2) 0.04694(8) -0.4031(3)
H28 H -0.2075 0.0513 -0.4637
C32 C -0.3235(2) 0.00575(9) -0.4098(3)
H29 H -0.3051 -0.0178 -0.4730
Zn1A Zn -0.80194(2) -0.359260(10) -0.17666(3)
Zn1_2 Zn -0.19806(2) 0.140740(10) -1.32334(3)
O2_2 O -0.17334(15) 0.15913(7) -0.12949(18)
N1A N -0.31958(16) 0.19153(7) -0.3840(2)
Zn2 Zn 0.17637(2) 0.095740(10) -0.37361(3)
O6 O 0.10648(13) 0.06912(6) -0.54203(18)
O7 O 0.22203(13) 0.09813(6) -0.69157(19)
O8 O -0.25387(14) 0.01345(7) -0.71488(19)
O9 O -0.30492(15) 0.01815(8) -0.9320(2)
O11 O 0.12566(16) 0.16194(7) -0.3640(2)
H1 H 0.0739(19) 0.1709(10) -0.311(3)
H2 H 0.1771(19) 0.1833(9) -0.354(3)
O12 O -0.04392(14) 0.08221(7) -1.26409(19)
O13 O 0.13348(13) 0.07282(6) -1.19459(18)
Cl1 Cl 0.36132(5) 0.10176(2) -0.36439(7)
C9 C -0.12450(18) 0.03920(8) -0.8645(3)
C10 C -0.04906(19) 0.04669(8) -0.7538(3)
H7 H -0.0671 0.0399 -0.6618
C11 C 0.05431(18) 0.06452(8) -0.7808(2)
C12 C 0.08013(19) 0.07223(8) -0.9175(3)
H8 H 0.1517 0.0831 -0.9360
C13 C 0.00261(19) 0.06417(8) -1.0274(3)
C14 C -0.10205(19) 0.04828(8) -1.0005(3)
H9 H -0.1570 0.0437 -1.0736
N6 N -0.23541(16) 0.02227(7) -0.8343(2)
C15 C 0.13556(19) 0.07821(8) -0.6628(3)
C16 C 0.0302(2) 0.07393(8) -1.1746(3)
Zn2_2 Zn 0.17637(2) 0.095740(10) -1.37361(3)
O13_2 O 0.13348(13) 0.07282(6) -0.19459(18)
loop_
_geom_bond_atom_site_label_1
_geom_bond_atom_site_label_2
_geom_bond_site_symmetry_1
_geom_bond_site_symmetry_2
Zn1 O1 1_555 1_555
Zn2 O6 1_555 1_555
O1 C8 1_555 1_555
O2 C7 1_555 1_555
O3 C7 1_555 1_555
O4 N5 1_555 1_555
O5 N5 1_555 1_555
O6 C15 1_555 1_555
O7 C15 1_555 1_555
O8 N6 1_555 1_555
O9 N6 1_555 1_555
O10 C8 1_555 1_555
O11 Zn2 1_555 1_555
H1 O11 1_555 1_555
H2 O11 1_555 1_555
O12 C16 1_555 1_555
O13 C16 1_555 1_555
N1 C17 1_555 1_555
N2 C22 1_555 1_555
N3 H3 1_555 1_555
N4 Zn1 1_555 1_555
Cl1 Zn2 1_555 1_555
C1 C2 1_555 1_555
C2 H4 1_555 1_555
C3 C2 1_555 1_555
C4 C3 1_555 1_555
H5 C4 1_555 1_555
C5 C4 1_555 1_555
C6 C1 1_555 1_555
H6 C6 1_555 1_555
C7 C1 1_555 1_555
N5 C3 1_555 1_555
C8 C5 1_555 1_555
C9 C10 1_555 1_555
C10 H7 1_555 1_555
C11 C10 1_555 1_555
C12 C11 1_555 1_555
H8 C12 1_555 1_555
C13 C12 1_555 1_555
C14 C9 1_555 1_555
H9 C14 1_555 1_555
N6 C9 1_555 1_555
C15 C11 1_555 1_555
C16 C13 1_555 1_555
C17 H10 1_555 1_555
C18 C17 1_555 1_555
H11 C18 1_555 1_555
C19 H12 1_555 1_555
C20 C18 1_555 1_555
C21 N1 1_555 1_555
H13 C21 1_555 1_555
C22 C20 1_555 1_555
H14 C22 1_555 1_555
H15 C22 1_555 1_555
C23 N2 1_555 1_555
H16 C23 1_555 1_555
H17 C23 1_555 1_555
C24 N3 1_555 1_555
H18 C24 1_555 1_555
H19 C24 1_555 1_555
C25 N3 1_555 1_555
H20 C25 1_555 1_555
H21 C25 1_555 1_555
C26 N2 1_555 1_555
H22 C26 1_555 1_555
H23 C26 1_555 1_555
C27 N3 1_555 1_555
H24 C27 1_555 1_555
H25 C27 1_555 1_555
C28 C27 1_555 1_555
C29 C28 1_555 1_555
H26 C29 1_555 1_555
C30 N4 1_555 1_555
H27 C30 1_555 1_555
C31 N4 1_555 1_555
H28 C31 1_555 1_555
C32 C28 1_555 1_555
H29 C32 1_555 1_555
Zn1A N1 1_555 1_555
Zn1_2 O2 1_555 1_555
Zn2_2 O13 1_555 1_555
O2_2 Zn1 1_555 1_555
O13_2 Zn2 1_555 1_555
N1A Zn1 1_555 1_555
C5 C6 1_555 1_555
C13 C14 1_555 1_555
C19 C20 1_555 1_555
C19 C21 1_555 1_555
C23 C24 1_555 1_555
C25 C26 1_555 1_555
C29 C30 1_555 1_555
C31 C32 1_555 1_555

#END
