
#######################################################################
#
#                 Cambridge Crystallographic Data Centre
#                                CCDC 
#
#######################################################################
#
# If this CIF has been generated from an entry in the Cambridge 
# Structural Database, then it will include bibliographic, chemical, 
# crystal, experimental, refinement or atomic coordinate data resulting 
# from the CCDC's data processing and validation procedures.
#
#######################################################################

data_TAPHOH
_symmetry_cell_setting           triclinic
_symmetry_space_group_name_H-M   'P -1'
_symmetry_Int_Tables_number      2
_space_group_name_Hall           '-P 1'
loop_
_symmetry_equiv_pos_site_id
_symmetry_equiv_pos_as_xyz
1 x,y,z
2 -x,-y,-z
_cell_length_a                   7.150(4)
_cell_length_b                   9.314(5)
_cell_length_c                   10.523(7)
_cell_angle_alpha                93.55(5)
_cell_angle_beta                 97.15(5)
_cell_angle_gamma                109.06(4)
_cell_volume                     653.269
loop_
_atom_site_label
_atom_site_type_symbol
_atom_site_fract_x
_atom_site_fract_y
_atom_site_fract_z
Cu1 Cu 0.0000 0.0000 0.0000
N1 N -0.0313(3) -0.1686(2) 0.1145(2)
N2 N -0.2491(3) -0.1196(2) -0.1080(2)
N3 N -0.5711(3) -0.2262(2) -0.2445(2)
S1 S -0.7313(1) -0.1406(1) -0.2456(1)
O1 O -0.7922(3) -0.1322(2) -0.1220(2)
O2 O -0.1170(3) 0.2151(2) 0.3514(2)
C1 C 0.0025(4) -0.1404(3) 0.2419(2)
C2 C -0.0346(4) -0.2534(3) 0.3219(3)
C3 C -0.1091(4) -0.4016(3) 0.2695(3)
C4 C -0.1408(5) -0.4321(3) 0.1392(3)
C5 C -0.1013(4) -0.3147(3) 0.0654(3)
C6 C -0.3915(3) -0.0467(3) 0.2760(2)
C7 C -0.4908(4) -0.1569(3) 0.1761(3)
C8 C -0.5846(4) -0.3031(3) 0.2011(3)
C9 C -0.5835(4) -0.3426(3) 0.3246(3)
C10 C -0.4858(4) -0.2292(3) 0.4239(3)
C11 C -0.3894(4) -0.0825(3) 0.4010(2)
C12 C -0.6828(7) -0.5036(4) 0.3491(5)
C13 C -0.4039(3) -0.1657(2) -0.1694(2)
H1 H 0.0494(38) -0.0393(32) 0.2735(24)
H2 H -0.0094(38) -0.2247(30) 0.4074(27)
H3 H -0.1402(37) -0.4726(31) 0.3177(25)
H4 H -0.1929(38) -0.5341(33) 0.1001(24)
H5 H -0.1180(36) -0.3306(28) -0.0228(26)
H6 H -0.4968(40) -0.1353(32) 0.0932(29)
H7 H -0.6512(42) -0.3769(35) 0.1333(28)
H8 H -0.4912(41) -0.2561(33) 0.5012(29)
H9 H -0.3194(41) 0.0020(34) 0.4694(27)
H10 H -0.7293(59) -0.5067(48) 0.4180(40)
H11 H -0.6029(73) -0.5519(55) 0.3575(47)
H12 H -0.8166(67) -0.5660(50) 0.2860(44)
N1A N 0.0313(3) 0.1686(2) -0.1145(2)
C1A C -0.0025(4) 0.1404(3) -0.2419(2)
C2A C 0.0346(4) 0.2534(3) -0.3219(3)
C3A C 0.1091(4) 0.4016(3) -0.2695(3)
C4A C 0.1408(5) 0.4321(3) -0.1392(3)
C5A C 0.1013(4) 0.3147(3) -0.0654(3)
H5A H 0.1180(36) 0.3306(28) 0.0228(26)
H4A H 0.1929(38) 0.5341(33) -0.1001(24)
H3A H 0.1402(37) 0.4726(31) -0.3177(25)
H2A H 0.0094(38) 0.2247(30) -0.4074(27)
H1A H -0.0494(38) 0.0393(32) -0.2735(24)
O1_2 O 0.2078(3) -0.1322(2) -0.1220(2)
Cu1_2 Cu -1.0000 0.0000 0.0000
N2A N -0.7509(3) 0.1196(2) 0.1080(2)
C13A C -0.5961(3) 0.1657(2) 0.1694(2)
N3A N -0.4289(3) 0.2262(2) 0.2445(2)
S1A S -0.2687(1) 0.1406(1) 0.2456(1)
O1A O -0.2078(3) 0.1322(2) 0.1220(2)
N2A_2 N 0.2491(3) 0.1196(2) 0.1080(2)
O2A O -0.8830(3) -0.2151(2) -0.3514(2)
C6A C -0.6085(3) 0.0467(3) -0.2760(2)
C7A C -0.5092(4) 0.1569(3) -0.1761(3)
C8A C -0.4154(4) 0.3031(3) -0.2011(3)
C9A C -0.4165(4) 0.3426(3) -0.3246(3)
C10A C -0.5142(4) 0.2292(3) -0.4239(3)
C11A C -0.6106(4) 0.0825(3) -0.4010(2)
H9A H -0.6806(41) -0.0020(34) -0.4694(27)
H8A H -0.5088(41) 0.2561(33) -0.5012(29)
C12A C -0.3172(7) 0.5036(4) -0.3491(5)
H10A H -0.2707(59) 0.5067(48) -0.4180(40)
H11A H -0.3971(73) 0.5519(55) -0.3575(47)
H12A H -0.1834(67) 0.5660(50) -0.2860(44)
H7A H -0.3488(42) 0.3769(35) -0.1333(28)
H6A H -0.5032(40) 0.1353(32) -0.0932(29)
loop_
_geom_bond_atom_site_label_1
_geom_bond_atom_site_label_2
_geom_bond_site_symmetry_1
_geom_bond_site_symmetry_2
Cu1 N1 1_555 1_555
N1 C1 1_555 1_555
N2 Cu1 1_555 1_555
N3 S1 1_555 1_555
S1 O1 1_555 1_555
O1 Cu1_2 1_555 1_555
O2 S1A 1_555 1_555
C1 C2 1_555 1_555
C2 C3 1_555 1_555
C3 C4 1_555 1_555
C4 C5 1_555 1_555
C5 N1 1_555 1_555
C6 C7 1_555 1_555
C7 C8 1_555 1_555
C8 C9 1_555 1_555
C9 C10 1_555 1_555
C10 C11 1_555 1_555
C11 C6 1_555 1_555
C12 C9 1_555 1_555
C13 N2 1_555 1_555
H1 C1 1_555 1_555
H2 C2 1_555 1_555
H3 C3 1_555 1_555
H4 C4 1_555 1_555
H5 C5 1_555 1_555
H6 C7 1_555 1_555
H7 C8 1_555 1_555
H8 C10 1_555 1_555
H9 C11 1_555 1_555
H10 C12 1_555 1_555
H11 C12 1_555 1_555
H12 C12 1_555 1_555
N1A Cu1 1_555 1_555
C1A N1A 1_555 1_555
C2A C1A 1_555 1_555
C3A C2A 1_555 1_555
C4A C3A 1_555 1_555
C5A N1A 1_555 1_555
H5A C5A 1_555 1_555
H4A C4A 1_555 1_555
H3A C3A 1_555 1_555
H2A C2A 1_555 1_555
H1A C1A 1_555 1_555
O1_2 Cu1 1_555 1_555
Cu1_2 N2A 1_555 1_555
N2A C13A 1_555 1_555
C13A N3A 1_555 1_555
N3A S1A 1_555 1_555
S1A C6 1_555 1_555
O1A Cu1 1_555 1_555
N2A_2 Cu1 1_555 1_555
O2A S1 1_555 1_555
C6A S1 1_555 1_555
C7A C6A 1_555 1_555
C8A C7A 1_555 1_555
C9A C8A 1_555 1_555
C10A C9A 1_555 1_555
C11A C6A 1_555 1_555
H9A C11A 1_555 1_555
H8A C10A 1_555 1_555
C12A C9A 1_555 1_555
H10A C12A 1_555 1_555
H11A C12A 1_555 1_555
H12A C12A 1_555 1_555
H7A C8A 1_555 1_555
H6A C7A 1_555 1_555
N3 C13 1_555 1_555
C4A C5A 1_555 1_555
S1A O1A 1_555 1_555
C10A C11A 1_555 1_555

#END
