
#######################################################################
#
#                 Cambridge Crystallographic Data Centre
#                                CCDC 
#
#######################################################################
#
# If this CIF has been generated from an entry in the Cambridge 
# Structural Database, then it will include bibliographic, chemical, 
# crystal, experimental, refinement or atomic coordinate data resulting 
# from the CCDC's data processing and validation procedures.
#
#######################################################################

data_TAPHID
_symmetry_cell_setting           monoclinic
_symmetry_space_group_name_H-M   'P 21/n'
_symmetry_Int_Tables_number      14
_space_group_name_Hall           '-P 2yn'
loop_
_symmetry_equiv_pos_site_id
_symmetry_equiv_pos_as_xyz
1 x,y,z
2 1/2-x,1/2+y,1/2-z
3 -x,-y,-z
4 1/2+x,1/2-y,1/2+z
_cell_length_a                   11.561(5)
_cell_length_b                   11.515(5)
_cell_length_c                   14.717(6)
_cell_angle_alpha                90
_cell_angle_beta                 94.955(4)
_cell_angle_gamma                90
_cell_volume                     1951.88
loop_
_atom_site_label
_atom_site_type_symbol
_atom_site_fract_x
_atom_site_fract_y
_atom_site_fract_z
Zn1 Zn 0.43267(3) 0.56887(3) 0.09649(2)
O1 O 0.35868(17) 0.63798(18) -0.01629(13)
O2 O 0.52538(17) 0.59452(17) -0.07385(13)
N1 N 0.2980(2) 0.5403(2) 0.17156(15)
C1 C 0.4227(2) 0.6342(2) -0.08203(19)
O3 O 0.07336(19) 0.8587(2) -0.36135(14)
C2 C 0.4425(2) 0.6754(3) -0.24678(18)
H1 H 0.5178 0.6418 -0.2390
O4 O 0.03630(19) 0.8199(2) -0.21824(16)
C3 C 0.1275(3) 0.4298(3) 0.1944(2)
H2 H 0.0796 0.3647 0.1781
C4 C 0.2639(2) 0.7273(2) -0.18275(18)
H3 H 0.2171 0.7288 -0.1328
N2 N 0.0060(2) 0.5207(2) 0.40508(16)
C5 C 0.0842(3) 0.4403(3) 0.4552(2)
H4 H 0.1591 0.4379 0.4273
H5 H 0.0503 0.3613 0.4519
C6 C 0.2266(3) 0.4503(3) 0.1505(2)
H6 H 0.2450 0.3986 0.1036
C7 C 0.4014(3) 0.7183(3) -0.33205(18)
C8 C 0.1005(3) 0.8206(3) -0.2802(2)
C9 C 0.4707(3) 0.7103(3) -0.41647(19)
C10 C 0.0989(3) 0.5056(3) 0.26252(19)
C11 C 0.3748(2) 0.6807(2) -0.17222(18)
C12 C 0.2906(3) 0.7670(3) -0.33988(19)
H7 H 0.2610 0.7981 -0.3970
C13 C 0.1725(3) 0.5976(3) 0.2843(2)
H8 H 0.1558 0.6507 0.3308
C14 C 0.2217(2) 0.7717(2) -0.26700(19)
C15 C -0.1048(3) 0.5229(3) 0.4464(2)
H9 H -0.1407 0.4448 0.4428
H10 H -0.1587 0.5780 0.4129
C16 C 0.2708(3) 0.6125(3) 0.23825(19)
H11 H 0.3209 0.6760 0.2544
C17 C 0.4927(3) 0.8322(3) -0.4519(2)
H12 H 0.5380 0.8768 -0.4046
H13 H 0.4184 0.8711 -0.4679
H14 H 0.5361 0.8269 -0.5062
C18 C -0.0111(3) 0.4894(3) 0.3086(2)
H15 H -0.0732 0.5384 0.2780
H16 H -0.0362 0.4073 0.3029
C19 C 0.3999(3) 0.6421(3) -0.4913(2)
H17 H 0.3849 0.5636 -0.4693
H18 H 0.4435 0.6371 -0.5454
H19 H 0.3259 0.6818 -0.5072
C20 C 0.5878(3) 0.6497(3) -0.3957(2)
H20 H 0.5751 0.5713 -0.3728
H21 H 0.6352 0.6942 -0.3495
H22 H 0.6279 0.6450 -0.4516
Zn1B Zn 0.56733(3) 0.43113(3) -0.09649(2)
Zn1C Zn -0.06733(3) 0.93113(3) -0.40351(2)
Zn1B_2 Zn -0.43267(3) 0.43113(3) 0.90351(2)
Zn1A Zn 1.06733(3) 0.06887(3) 0.40351(2)
O1B O 0.64132(17) 0.36202(18) 0.01629(13)
O2B O 0.47462(17) 0.40548(17) 0.07385(13)
N1B N -0.2980(2) 0.4597(2) 0.82844(15)
N1B_2 N 0.7020(2) 0.4597(2) -0.17156(15)
C1B C 0.5773(2) 0.3658(2) 0.08203(19)
O3B O 0.92664(19) 0.1413(2) 0.36135(14)
O3C O 0.57336(19) 0.6413(2) 0.13865(14)
O3A O 0.42664(19) 0.3587(2) -0.13865(14)
C2B C 0.5575(2) 0.3246(3) 0.24678(18)
H1B H 0.4822 0.3582 0.2390
O4B O 0.96370(19) 0.1801(2) 0.21824(16)
C3B C -0.1275(3) 0.5702(3) 0.8056(2)
H2B H -0.0796 0.6353 0.8219
C4B C 0.7361(2) 0.2727(2) 0.18275(18)
H3B H 0.7829 0.2712 0.1328
N2B N -0.0060(2) 0.4793(2) 0.59492(16)
C5B C -0.0842(3) 0.5597(3) 0.5448(2)
H4B H -0.1591 0.5621 0.5727
H5B H -0.0503 0.6387 0.5481
C6B C -0.2266(3) 0.5497(3) 0.8495(2)
H6B H -0.2450 0.6014 0.8964
C7B C 0.5986(3) 0.2817(3) 0.33205(18)
C8B C 0.8995(3) 0.1794(3) 0.2802(2)
C9B C 0.5293(3) 0.2897(3) 0.41647(19)
C10B C -0.0989(3) 0.4944(3) 0.73748(19)
C11B C 0.6252(2) 0.3193(2) 0.17222(18)
C12B C 0.7094(3) 0.2330(3) 0.33988(19)
H7B H 0.7390 0.2019 0.3970
C13B C -0.1725(3) 0.4024(3) 0.7157(2)
H8B H -0.1558 0.3493 0.6692
C14B C 0.7783(2) 0.2283(2) 0.26700(19)
C15B C 0.1048(3) 0.4771(3) 0.5536(2)
H9B H 0.1407 0.5552 0.5572
H10B H 0.1587 0.4220 0.5871
C16B C -0.2708(3) 0.3875(3) 0.76175(19)
H11B H -0.3209 0.3240 0.7456
C17B C 0.5073(3) 0.1678(3) 0.4519(2)
H12B H 0.4620 0.1232 0.4046
H13B H 0.5816 0.1289 0.4679
H14B H 0.4639 0.1731 0.5062
C18B C 0.0111(3) 0.5106(3) 0.6914(2)
H15B H 0.0732 0.4616 0.7220
H16B H 0.0362 0.5927 0.6971
C19B C 0.6001(3) 0.3579(3) 0.4913(2)
H17B H 0.6151 0.4364 0.4693
H18B H 0.5565 0.3629 0.5454
H19B H 0.6741 0.3182 0.5072
C20B C 0.4122(3) 0.3503(3) 0.3957(2)
H20B H 0.4249 0.4287 0.3728
H21B H 0.3648 0.3058 0.3495
H22B H 0.3721 0.3550 0.4516
loop_
_geom_bond_atom_site_label_1
_geom_bond_atom_site_label_2
_geom_bond_site_symmetry_1
_geom_bond_site_symmetry_2
Zn1 O1 1_555 1_555
O1 C1 1_555 1_555
O2 C1 1_555 1_555
N1 Zn1 1_555 1_555
C1 C11 1_555 1_555
O3 C8 1_555 1_555
C2 H1 1_555 1_555
O4 C8 1_555 1_555
C3 H2 1_555 1_555
C4 H3 1_555 1_555
N2 C5 1_555 1_555
C5 H4 1_555 1_555
H5 C5 1_555 1_555
C6 N1 1_555 1_555
H6 C6 1_555 1_555
C7 C2 1_555 1_555
C8 C14 1_555 1_555
C9 C7 1_555 1_555
C10 C3 1_555 1_555
C11 C2 1_555 1_555
C12 C7 1_555 1_555
H7 C12 1_555 1_555
C13 C10 1_555 1_555
H8 C13 1_555 1_555
C14 C4 1_555 1_555
C15 N2 1_555 1_555
H9 C15 1_555 1_555
H10 C15 1_555 1_555
C16 N1 1_555 1_555
H11 C16 1_555 1_555
C17 C9 1_555 1_555
H12 C17 1_555 1_555
H13 C17 1_555 1_555
H14 C17 1_555 1_555
C18 N2 1_555 1_555
H15 C18 1_555 1_555
H16 C18 1_555 1_555
C19 C9 1_555 1_555
H17 C19 1_555 1_555
H18 C19 1_555 1_555
H19 C19 1_555 1_555
C20 C9 1_555 1_555
H20 C20 1_555 1_555
H21 C20 1_555 1_555
H22 C20 1_555 1_555
Zn1B O2 1_555 1_555
Zn1C O3 1_555 1_555
Zn1B_2 N1B 1_555 1_555
Zn1A O3B 1_555 1_555
O1B Zn1B 1_555 1_555
O2B Zn1 1_555 1_555
N1B C6B 1_555 1_555
N1B_2 Zn1B 1_555 1_555
C1B O1B 1_555 1_555
O3B C8B 1_555 1_555
O3C Zn1 1_555 1_555
O3A Zn1B 1_555 1_555
C2B H1B 1_555 1_555
O4B C8B 1_555 1_555
C3B H2B 1_555 1_555
C4B H3B 1_555 1_555
N2B C5B 1_555 1_555
C5B C15 1_555 1_555
H4B C5B 1_555 1_555
H5B C5B 1_555 1_555
C6B C3B 1_555 1_555
H6B C6B 1_555 1_555
C7B C2B 1_555 1_555
C8B C14B 1_555 1_555
C9B C7B 1_555 1_555
C10B C3B 1_555 1_555
C11B C1B 1_555 1_555
C12B C7B 1_555 1_555
H7B C12B 1_555 1_555
C13B C10B 1_555 1_555
H8B C13B 1_555 1_555
C14B C4B 1_555 1_555
C15B C5 1_555 1_555
H9B C15B 1_555 1_555
H10B C15B 1_555 1_555
C16B N1B 1_555 1_555
H11B C16B 1_555 1_555
C17B C9B 1_555 1_555
H12B C17B 1_555 1_555
H13B C17B 1_555 1_555
H14B C17B 1_555 1_555
C18B N2B 1_555 1_555
H15B C18B 1_555 1_555
H16B C18B 1_555 1_555
C19B C9B 1_555 1_555
H17B C19B 1_555 1_555
H18B C19B 1_555 1_555
H19B C19B 1_555 1_555
C20B C9B 1_555 1_555
H20B C20B 1_555 1_555
H21B C20B 1_555 1_555
H22B C20B 1_555 1_555
C3 C6 1_555 1_555
C4 C11 1_555 1_555
C10 C18 1_555 1_555
C12 C14 1_555 1_555
C13 C16 1_555 1_555
O2B C1B 1_555 1_555
C2B C11B 1_555 1_555
C4B C11B 1_555 1_555
N2B C15B 1_555 1_555
C10B C18B 1_555 1_555
C12B C14B 1_555 1_555
C13B C16B 1_555 1_555

#END
