
#######################################################################
#
#                 Cambridge Crystallographic Data Centre
#                                CCDC 
#
#######################################################################
#
# If this CIF has been generated from an entry in the Cambridge 
# Structural Database, then it will include bibliographic, chemical, 
# crystal, experimental, refinement or atomic coordinate data resulting 
# from the CCDC's data processing and validation procedures.
#
#######################################################################

data_TAPHEZ
_symmetry_cell_setting           triclinic
_symmetry_space_group_name_H-M   'P -1'
_symmetry_Int_Tables_number      2
_space_group_name_Hall           '-P 1'
loop_
_symmetry_equiv_pos_site_id
_symmetry_equiv_pos_as_xyz
1 x,y,z
2 -x,-y,-z
_cell_length_a                   9.4905(5)
_cell_length_b                   12.1120(6)
_cell_length_c                   23.4975(12)
_cell_angle_alpha                93.066(1)
_cell_angle_beta                 90.284(1)
_cell_angle_gamma                110.117(1)
_cell_volume                     2531.81
loop_
_atom_site_label
_atom_site_type_symbol
_atom_site_fract_x
_atom_site_fract_y
_atom_site_fract_z
Zn1 Zn 0.0000 0.5000 0.5000
Zn2 Zn -0.29882(2) -0.101565(18) 0.153421(9)
Zn3 Zn 0.06544(2) 0.535190(18) 0.354285(8)
O1 O -0.46470(17) -0.13470(13) 0.25424(6)
O2 O -0.14795(17) 0.81403(16) 0.58202(7)
O3 O -0.37324(18) 0.74701(16) 0.61366(6)
O4 O -0.53864(17) -0.14635(13) 0.46281(7)
O5 O -0.3457(2) -0.04992(13) 0.51669(6)
O6 O -0.44857(17) -0.16317(15) 0.03294(7)
O7 O -0.81576(16) -0.18053(13) -0.11915(6)
O8 O -0.95439(15) -0.03048(13) 0.16425(6)
O9 O -1.04084(15) -0.19636(13) -0.09477(6)
O10 O -0.05282(13) 0.57128(11) 0.42338(5)
O11 O -0.03266(15) 0.35893(11) 0.35460(5)
O12 O -0.47588(15) -0.08426(13) 0.11813(6)
O13 O -0.05443(14) 0.34060(11) 0.44928(5)
O14 O -0.24755(15) -0.00882(12) 0.22615(5)
O15 O -0.72868(14) 0.56268(12) 0.38488(5)
O16 O -0.20399(14) 0.53715(12) 0.34741(5)
O17 O -0.78337(14) 0.56362(12) 0.47762(5)
O18 O -1.13598(14) -0.07636(11) 0.09775(5)
N1 N -0.4137(2) -0.07129(14) 0.47074(7)
N2 N -0.90711(18) -0.17453(14) -0.08358(7)
N3 N -0.28197(19) 0.75499(16) 0.57612(7)
N4 N 0.08348(18) 0.48858(14) 0.04951(6)
N5 N -0.51273(18) -0.71002(14) 0.20553(7)
N6 N -0.77396(18) -0.88954(14) 0.24560(7)
H1 H -0.808(2) -0.9333(19) 0.2159(9)
N7 N 0.12022(17) 0.51685(14) 0.26722(6)
N8 N -0.90344(17) -1.28331(14) 0.33445(6)
N9 N -0.33219(17) -0.27935(14) 0.16167(7)
C1 C -0.5132(2) -0.82954(17) 0.21171(9)
H2 H -0.4124 -0.8269 0.2211
H3 H -0.5451 -0.8756 0.1759
C2 C -0.0020(2) 0.56865(18) 0.05035(8)
H4 H 0.0626 0.6461 0.0404
H5 H -0.0381 0.5758 0.0884
C3 C -0.7730(2) -0.76865(17) 0.23437(9)
H6 H -0.7448 -0.7184 0.2691
H7 H -0.8729 -0.7729 0.2226
C4 C 0.2144(2) 0.53376(19) 0.08818(8)
H8 H 0.2694 0.6149 0.0802
H9 H 0.2799 0.4887 0.0804
C5 C -0.8139(2) -1.07516(18) 0.35471(8)
H10 H -0.7570 -1.0111 0.3783
C6 C -0.4025(2) -0.64994(17) 0.16377(9)
H11 H -0.4358 -0.6868 0.1261
H12 H -0.3072 -0.6588 0.1726
C7 C -0.8242(2) -1.18819(18) 0.36663(8)
H13 H -0.7731 -1.1982 0.3987
C8 C -0.08012(19) 0.30280(16) 0.39836(8)
C9 C -0.9743(2) -1.15754(17) 0.27421(8)
H14 H -1.0283 -1.1502 0.2424
C10 C -0.3299(2) -0.33070(18) 0.21087(8)
H15 H -0.3134 -0.2843 0.2447
C11 C -0.9778(2) -1.26667(18) 0.28902(8)
H16 H -1.0348 -1.3323 0.2663
C12 C -0.3874(2) -0.46838(17) 0.11311(9)
H17 H -0.4102 -0.5138 0.0789
C13 C -0.3602(2) -0.34863(17) 0.11352(8)
H18 H -0.3613 -0.3148 0.0790
C14 C -0.6182(2) -0.88750(17) 0.25815(9)
H19 H -0.6195 -0.9674 0.2610
H20 H -0.5823 -0.8446 0.2944
C15 C -0.6636(2) -0.71653(18) 0.18847(9)
H21 H -0.6943 -0.7649 0.1532
H22 H -0.6637 -0.6382 0.1818
C16 C -0.2438(2) 0.11015(16) 0.43339(8)
H23 H -0.2194 0.1415 0.4706
C17 C 0.2446(2) 0.59658(19) 0.24769(8)
H24 H 0.3129 0.6479 0.2740
C18 C 0.1337(2) 0.47690(19) -0.00864(8)
H25 H 0.2002 0.5530 -0.0196
H26 H 0.1895 0.4232 -0.0099
C19 C -0.3134(2) 0.00952(16) 0.32237(8)
C20 C -0.6658(2) -0.11330(16) 0.04804(8)
C21 C -0.3510(2) -0.44880(18) 0.21361(9)
H27 H -0.3452 -0.4801 0.2485
C22 C 0.0250(2) 0.44235(16) 0.22874(8)
H28 H -0.0612 0.3860 0.2415
C23 C -0.3810(2) -0.52059(17) 0.16343(9)
C24 C 0.0494(2) 0.44570(17) 0.17071(8)
H29 H -0.0196 0.3925 0.1453
C25 C 0.2757(2) 0.60589(19) 0.19055(8)
H30 H 0.3621 0.6635 0.1789
C26 C -0.8895(2) -1.05863(17) 0.30724(8)
C27 C -0.3481(2) -0.05047(17) 0.26323(8)
C28 C -0.3348(2) 0.69282(16) 0.52107(8)
C29 C -0.3433(2) -0.00292(16) 0.42230(8)
C30 C -0.9502(2) -0.11636(15) 0.01458(8)
H31 H -1.0453 -0.1191 0.0030
C31 C -0.2313(2) 0.66948(16) 0.48588(8)
H32 H -0.1302 0.6949 0.4965
C32 C -0.1812(2) 0.17580(16) 0.38732(8)
C33 C -0.4325(2) 0.57831(15) 0.41700(7)
H33 H -0.4650 0.5422 0.3811
C34 C -0.8544(2) -0.14144(16) -0.02396(8)
C35 C -0.9010(2) -0.08683(16) 0.07111(8)
C36 C -0.7591(2) -0.08588(16) 0.08732(8)
H34 H -0.7265 -0.0665 0.1251
C37 C -0.28251(19) 0.60688(15) 0.43402(7)
C38 C -0.17599(19) 0.56813(16) 0.39823(8)
C39 C -0.2143(2) 0.12475(16) 0.33226(8)
H35 H -0.1698 0.1680 0.3016
C40 C -0.8845(2) -0.93867(16) 0.29145(8)
H36 H -0.8578 -0.8851 0.3251
H37 H -0.9837 -0.9436 0.2784
C41 C -0.4857(2) 0.65768(15) 0.50715(8)
H38 H -0.5536 0.6699 0.5330
C42 C -0.53352(19) 0.60354(15) 0.45352(7)
C43 C -0.69578(19) 0.57365(15) 0.43750(8)
C44 C -0.5166(2) -0.12091(17) 0.06674(9)
C45 C -0.7131(2) -0.14005(16) -0.00883(8)
H39 H -0.6510 -0.1566 -0.0359
C46 C 0.1772(2) 0.52882(17) 0.15056(8)
C47 C -0.3821(2) -0.05405(17) 0.36819(8)
H40 H -0.4527 -0.1294 0.3624
C48 C -1.0033(2) -0.06137(15) 0.11484(8)
Zn1_2 Zn -1.0000 0.5000 0.5000
Zn1_3 Zn 1.0000 0.5000 0.5000
Zn2A Zn 0.29882(2) 1.101565(18) 0.846579(9)
Zn2_2 Zn -1.29882(2) -0.101565(18) 0.153421(9)
Zn2_3 Zn 0.70118(2) -0.101565(18) 0.153421(9)
Zn2_4 Zn 0.70118(2) 1.898435(18) 0.153421(9)
Zn3A Zn -0.06544(2) 0.464810(18) 0.645715(8)
Zn3_2 Zn -0.93456(2) 0.535190(18) 0.354285(8)
Zn3_3 Zn -0.93456(2) -1.464810(18) 0.354285(8)
Zn3A_2 Zn -0.06544(2) 0.464810(18) -0.354285(8)
Zn3A_3 Zn 0.93456(2) 0.464810(18) 0.645715(8)
O1A O 0.46470(17) 1.13470(13) 0.74576(6)
O2A O 0.14795(17) 0.18597(16) 0.41798(7)
O3A O 0.37324(18) 0.25299(16) 0.38634(6)
O4A O 0.53864(17) 1.14635(13) 0.53719(7)
O5A O 0.3457(2) 1.04992(13) 0.48331(6)
O6_2 O 0.55143(17) -0.16317(15) 0.03294(7)
O7_2 O 0.18424(16) -0.18053(13) -0.11915(6)
O8_2 O 0.04561(15) -0.03048(13) 0.16425(6)
O9_2 O -0.04084(15) -0.19636(13) -0.09477(6)
O10A O 0.05282(13) 0.42872(11) 0.57662(5)
O11A O 0.03266(15) 0.64107(11) 0.64540(5)
O12_2 O 0.52412(15) -0.08426(13) 0.11813(6)
O12A O 0.47588(15) 1.08426(13) 0.88187(6)
O13A O 0.05443(14) 0.65940(11) 0.55072(5)
O14A O 0.24755(15) 1.00882(12) 0.77385(5)
O15A O 0.72868(14) 0.43732(12) 0.61512(5)
O15_2 O 0.27132(14) 0.56268(12) 0.38488(5)
O15A_2 O -0.27132(14) 0.43732(12) 0.61512(5)
O16A O 0.20399(14) 0.46285(12) 0.65259(5)
O17A O 0.78337(14) 0.43638(12) 0.52238(5)
O17_2 O 0.21663(14) 0.56362(12) 0.47762(5)
O17A_2 O -0.21663(14) 0.43638(12) 0.52238(5)
O18_2 O -0.13598(14) -0.07636(11) 0.09775(5)
O18A O 0.13598(14) 1.07636(11) 0.90225(5)
N1A N 0.4137(2) 1.07129(14) 0.52926(7)
N2_2 N 0.09289(18) -0.17453(14) -0.08358(7)
N3A N 0.28197(19) 0.24501(16) 0.42388(7)
N4A N -0.08348(18) 0.51142(14) -0.04951(6)
N5_2 N 0.48727(18) 1.28998(14) 0.20553(7)
N6_2 N 0.22604(18) 1.11046(14) 0.24560(7)
H1_2 H 0.192(2) 1.0667(19) 0.2159(9)
N7A N -0.12022(17) 0.48315(14) -0.26722(6)
N7A_2 N -0.12022(17) 0.48315(14) 0.73278(6)
N8_2 N 0.09656(17) 0.71669(14) 0.33445(6)
N8A N -0.09656(17) 0.28331(14) 0.66555(6)
N9_2 N 0.66781(17) 1.72065(14) 0.16167(7)
N9A N 0.33219(17) 1.27935(14) 0.83833(7)
C1_2 C 0.4868(2) 1.17046(17) 0.21171(9)
H2_2 H 0.5876 1.1731 0.2211
H3_2 H 0.4549 1.1244 0.1759
C2A C 0.0020(2) 0.43135(18) -0.05035(8)
H4A H -0.0626 0.3539 -0.0404
H5A H 0.0381 0.4242 -0.0884
C3_2 C 0.2270(2) 1.23135(17) 0.23437(9)
H6_2 H 0.2552 1.2816 0.2691
H7_2 H 0.1271 1.2271 0.2226
C4A C -0.2144(2) 0.46624(19) -0.08818(8)
H8A H -0.2694 0.3851 -0.0802
H9A H -0.2799 0.5113 -0.0804
C5_2 C 0.1861(2) 0.92484(18) 0.35471(8)
H10_2 H 0.2430 0.9889 0.3783
C6_2 C 0.5975(2) 1.35006(17) 0.16377(9)
H11_2 H 0.5642 1.3132 0.1261
H12_2 H 0.6928 1.3412 0.1726
C7_2 C 0.1758(2) 0.81181(18) 0.36663(8)
H13_2 H 0.2269 0.8018 0.3987
C8A C 0.08012(19) 0.69720(16) 0.60164(8)
C9_2 C 0.0257(2) 0.84246(17) 0.27421(8)
H14_2 H -0.0283 0.8498 0.2424
C10_2 C 0.6701(2) 1.66930(18) 0.21087(8)
H15_2 H 0.6866 1.7157 0.2447
C11_2 C 0.0222(2) 0.73333(18) 0.28902(8)
H16_2 H -0.0348 0.6677 0.2663
C12_2 C 0.6126(2) 1.53162(17) 0.11311(9)
H17_2 H 0.5898 1.4862 0.0789
C13_2 C 0.6398(2) 1.65137(17) 0.11352(8)
H18_2 H 0.6387 1.6852 0.0790
C14_2 C 0.3818(2) 1.11250(17) 0.25815(9)
H19_2 H 0.3805 1.0326 0.2610
H20_2 H 0.4177 1.1554 0.2944
C15_2 C 0.3364(2) 1.28347(18) 0.18847(9)
H21_2 H 0.3057 1.2351 0.1532
H22_2 H 0.3363 1.3618 0.1818
C16A C 0.2438(2) 0.88985(16) 0.56661(8)
H23A H 0.2194 0.8585 0.5294
C17A C -0.2446(2) 0.40342(19) -0.24769(8)
H24A H -0.3129 0.3521 -0.2740
C18A C -0.1337(2) 0.52310(19) 0.00864(8)
H25A H -0.2002 0.4470 0.0196
H26A H -0.1895 0.5768 0.0099
C19A C 0.3134(2) 0.99048(16) 0.67763(8)
C20_2 C 0.3342(2) -0.11330(16) 0.04804(8)
C21_2 C 0.6490(2) 1.55120(18) 0.21361(9)
H27_2 H 0.6548 1.5199 0.2485
C22A C -0.0250(2) 0.55765(16) -0.22874(8)
H28A H 0.0612 0.6140 -0.2415
C23_2 C 0.6190(2) 1.47941(17) 0.16343(9)
C24A C -0.0494(2) 0.55430(17) -0.17071(8)
H29A H 0.0196 0.6075 -0.1453
C25A C -0.2757(2) 0.39411(19) -0.19055(8)
H30A H -0.3621 0.3365 -0.1789
C26_2 C 0.1105(2) 0.94137(17) 0.30724(8)
C27A C 0.3481(2) 1.05047(17) 0.73677(8)
C28A C 0.3348(2) 0.30718(16) 0.47893(8)
C29A C 0.3433(2) 1.00292(16) 0.57770(8)
C30_2 C 0.0498(2) -0.11636(15) 0.01458(8)
H31_2 H -0.0453 -0.1191 0.0030
C31A C 0.2313(2) 0.33052(16) 0.51412(8)
H32A H 0.1302 0.3051 0.5035
C32A C 0.1812(2) 0.82420(16) 0.61268(8)
C33A C 0.4325(2) 0.42169(15) 0.58300(7)
H33A H 0.4650 0.4578 0.6189
C34_2 C 0.1456(2) -0.14144(16) -0.02396(8)
C35_2 C 0.0990(2) -0.08683(16) 0.07111(8)
C36_2 C 0.2409(2) -0.08588(16) 0.08732(8)
H34_2 H 0.2735 -0.0665 0.1251
C37A C 0.28251(19) 0.39312(15) 0.56598(7)
C38A C 0.17599(19) 0.43187(16) 0.60177(8)
C39A C 0.2143(2) 0.87525(16) 0.66774(8)
H35A H 0.1698 0.8320 0.6984
C40_2 C 0.1155(2) 1.06133(16) 0.29145(8)
H36_2 H 0.1422 1.1149 0.3251
H37_2 H 0.0163 1.0564 0.2784
C41A C 0.4857(2) 0.34232(15) 0.49285(8)
H38A H 0.5536 0.3301 0.4670
C42A C 0.53352(19) 0.39646(15) 0.54648(7)
C43A C 0.69578(19) 0.42635(15) 0.56250(8)
C44_2 C 0.4834(2) -0.12091(17) 0.06674(9)
C45_2 C 0.2869(2) -0.14005(16) -0.00883(8)
H39_2 H 0.3490 -0.1566 -0.0359
C46A C -0.1772(2) 0.47118(17) -0.15056(8)
C47A C 0.3821(2) 1.05405(17) 0.63181(8)
H40A H 0.4527 1.1294 0.6376
C48_2 C -0.0033(2) -0.06137(15) 0.11484(8)
O19 O 0.3464(2) 0.30276(17) 0.03891(8)
H41 H 0.380(3) 0.252(2) 0.0213(12)
H42 H 0.260(2) 0.267(2) 0.0521(12)
loop_
_geom_bond_atom_site_label_1
_geom_bond_atom_site_label_2
_geom_bond_site_symmetry_1
_geom_bond_site_symmetry_2
Zn1 O10 1_555 1_555
Zn2 O12 1_555 1_555
Zn3 O10 1_555 1_555
O1 C27 1_555 1_555
O2 N3 1_555 1_555
O3 N3 1_555 1_555
O4 N1 1_555 1_555
O5 N1 1_555 1_555
O6 C44 1_555 1_555
O7 N2 1_555 1_555
O8 C48 1_555 1_555
O9 N2 1_555 1_555
O10 C38 1_555 1_555
O11 Zn3 1_555 1_555
O12 C44 1_555 1_555
O13 Zn1 1_555 1_555
O14 Zn2 1_555 1_555
O15 C43 1_555 1_555
O16 C38 1_555 1_555
O17 C43 1_555 1_555
O18 C48 1_555 1_555
N1 C29 1_555 1_555
N2 C34 1_555 1_555
N3 C28 1_555 1_555
N4 C2 1_555 1_555
N5 C1 1_555 1_555
N6 H1 1_555 1_555
N7 Zn3 1_555 1_555
N8 C7 1_555 1_555
N9 Zn2 1_555 1_555
C1 H2 1_555 1_555
H3 C1 1_555 1_555
C2 H4 1_555 1_555
H5 C2 1_555 1_555
C3 N6 1_555 1_555
H6 C3 1_555 1_555
H7 C3 1_555 1_555
C4 N4 1_555 1_555
H8 C4 1_555 1_555
H9 C4 1_555 1_555
C5 H10 1_555 1_555
C6 N5 1_555 1_555
H11 C6 1_555 1_555
H12 C6 1_555 1_555
C7 C5 1_555 1_555
H13 C7 1_555 1_555
C8 O11 1_555 1_555
C9 H14 1_555 1_555
C10 N9 1_555 1_555
H15 C10 1_555 1_555
C11 N8 1_555 1_555
H16 C11 1_555 1_555
C12 H17 1_555 1_555
C13 N9 1_555 1_555
H18 C13 1_555 1_555
C14 N6 1_555 1_555
H19 C14 1_555 1_555
H20 C14 1_555 1_555
C15 N5 1_555 1_555
H21 C15 1_555 1_555
H22 C15 1_555 1_555
C16 H23 1_555 1_555
C17 N7 1_555 1_555
H24 C17 1_555 1_555
C18 N4 1_555 1_555
H25 C18 1_555 1_555
H26 C18 1_555 1_555
C19 C27 1_555 1_555
C20 C36 1_555 1_555
C21 C10 1_555 1_555
H27 C21 1_555 1_555
C22 N7 1_555 1_555
H28 C22 1_555 1_555
C23 C6 1_555 1_555
C24 C22 1_555 1_555
H29 C24 1_555 1_555
C25 C17 1_555 1_555
H30 C25 1_555 1_555
C26 C5 1_555 1_555
C27 O14 1_555 1_555
C28 C31 1_555 1_555
C29 C16 1_555 1_555
C30 H31 1_555 1_555
C31 H32 1_555 1_555
C32 C8 1_555 1_555
C33 H33 1_555 1_555
C34 C30 1_555 1_555
C35 C30 1_555 1_555
C36 C35 1_555 1_555
H34 C36 1_555 1_555
C37 C31 1_555 1_555
C38 C37 1_555 1_555
C39 C19 1_555 1_555
H35 C39 1_555 1_555
C40 N6 1_555 1_555
H36 C40 1_555 1_555
H37 C40 1_555 1_555
C41 C28 1_555 1_555
H38 C41 1_555 1_555
C42 C33 1_555 1_555
C43 C42 1_555 1_555
C44 C20 1_555 1_555
C45 C20 1_555 1_555
H39 C45 1_555 1_555
C46 C4 1_555 1_555
C47 C19 1_555 1_555
H40 C47 1_555 1_555
C48 C35 1_555 1_555
O19 H41 1_555 1_555
H42 O19 1_555 1_555
Zn1_2 O17 1_555 1_555
Zn1_3 O17A 1_555 1_555
Zn2A O12A 1_555 1_555
Zn2_2 O18 1_555 1_555
Zn2_3 O12_2 1_555 1_555
Zn2_4 N9_2 1_555 1_555
Zn3A O10A 1_555 1_555
Zn3_2 O15 1_555 1_555
Zn3_3 N8 1_555 1_555
Zn3A_2 N7A 1_555 1_555
Zn3A_3 O15A 1_555 1_555
O1A C27A 1_555 1_555
O2A N3A 1_555 1_555
O3A N3A 1_555 1_555
O4A N1A 1_555 1_555
O5A N1A 1_555 1_555
O6_2 C44_2 1_555 1_555
O7_2 N2_2 1_555 1_555
O8_2 C48_2 1_555 1_555
O9_2 N2_2 1_555 1_555
O10A Zn1 1_555 1_555
O11A Zn3A 1_555 1_555
O12_2 C44_2 1_555 1_555
O13A Zn1 1_555 1_555
O14A Zn2A 1_555 1_555
O15A C43A 1_555 1_555
O15_2 Zn3 1_555 1_555
O15A_2 Zn3A 1_555 1_555
O16A C38A 1_555 1_555
O17A C43A 1_555 1_555
O17_2 Zn1 1_555 1_555
O17A_2 Zn1 1_555 1_555
O18_2 Zn2 1_555 1_555
O18A Zn2A 1_555 1_555
N1A C29A 1_555 1_555
N2_2 C34_2 1_555 1_555
N3A C28A 1_555 1_555
N4A C2A 1_555 1_555
N5_2 C1_2 1_555 1_555
N6_2 H1_2 1_555 1_555
N7A C17A 1_555 1_555
N7A_2 Zn3A 1_555 1_555
N8_2 Zn3 1_555 1_555
N8A Zn3A 1_555 1_555
N9_2 C10_2 1_555 1_555
N9A Zn2A 1_555 1_555
C1_2 H2_2 1_555 1_555
H3_2 C1_2 1_555 1_555
C2A C18 1_555 1_555
H4A C2A 1_555 1_555
H5A C2A 1_555 1_555
C3_2 N6_2 1_555 1_555
H6_2 C3_2 1_555 1_555
H7_2 C3_2 1_555 1_555
C4A N4A 1_555 1_555
H8A C4A 1_555 1_555
H9A C4A 1_555 1_555
C5_2 H10_2 1_555 1_555
C6_2 N5_2 1_555 1_555
H11_2 C6_2 1_555 1_555
H12_2 C6_2 1_555 1_555
C7_2 N8_2 1_555 1_555
H13_2 C7_2 1_555 1_555
C8A O11A 1_555 1_555
C9_2 H14_2 1_555 1_555
C10_2 H15_2 1_555 1_555
C11_2 N8_2 1_555 1_555
H16_2 C11_2 1_555 1_555
C12_2 H17_2 1_555 1_555
C13_2 N9_2 1_555 1_555
H18_2 C13_2 1_555 1_555
C14_2 N6_2 1_555 1_555
H19_2 C14_2 1_555 1_555
H20_2 C14_2 1_555 1_555
C15_2 N5_2 1_555 1_555
H21_2 C15_2 1_555 1_555
H22_2 C15_2 1_555 1_555
C16A H23A 1_555 1_555
C17A H24A 1_555 1_555
C18A C2 1_555 1_555
H25A C18A 1_555 1_555
H26A C18A 1_555 1_555
C19A C27A 1_555 1_555
C20_2 C36_2 1_555 1_555
C21_2 C10_2 1_555 1_555
H27_2 C21_2 1_555 1_555
C22A N7A 1_555 1_555
H28A C22A 1_555 1_555
C23_2 C6_2 1_555 1_555
C24A C22A 1_555 1_555
H29A C24A 1_555 1_555
C25A C17A 1_555 1_555
H30A C25A 1_555 1_555
C26_2 C5_2 1_555 1_555
C27A O14A 1_555 1_555
C28A C31A 1_555 1_555
C29A C16A 1_555 1_555
C30_2 H31_2 1_555 1_555
C31A H32A 1_555 1_555
C32A C8A 1_555 1_555
C33A H33A 1_555 1_555
C34_2 C30_2 1_555 1_555
C35_2 C30_2 1_555 1_555
C36_2 C35_2 1_555 1_555
H34_2 C36_2 1_555 1_555
C37A C31A 1_555 1_555
C38A O10A 1_555 1_555
C39A C19A 1_555 1_555
H35A C39A 1_555 1_555
C40_2 N6_2 1_555 1_555
H36_2 C40_2 1_555 1_555
H37_2 C40_2 1_555 1_555
C41A C28A 1_555 1_555
H38A C41A 1_555 1_555
C42A C33A 1_555 1_555
C43A C42A 1_555 1_555
C44_2 C20_2 1_555 1_555
C45_2 C20_2 1_555 1_555
H39_2 C45_2 1_555 1_555
C46A C4A 1_555 1_555
C47A C19A 1_555 1_555
H40A C47A 1_555 1_555
C48_2 O18_2 1_555 1_555
O13 C8 1_555 1_555
C1 C14 1_555 1_555
C3 C15 1_555 1_555
C9 C11 1_555 1_555
C9 C26 1_555 1_555
C12 C13 1_555 1_555
C12 C23 1_555 1_555
C16 C32 1_555 1_555
C21 C23 1_555 1_555
C24 C46 1_555 1_555
C25 C46 1_555 1_555
C26 C40 1_555 1_555
C29 C47 1_555 1_555
C32 C39 1_555 1_555
C33 C37 1_555 1_555
C34 C45 1_555 1_555
C41 C42 1_555 1_555
O13A C8A 1_555 1_555
N4A C18A 1_555 1_555
C1_2 C14_2 1_555 1_555
C3_2 C15_2 1_555 1_555
C5_2 C7_2 1_555 1_555
C9_2 C11_2 1_555 1_555
C9_2 C26_2 1_555 1_555
C12_2 C13_2 1_555 1_555
C12_2 C23_2 1_555 1_555
C16A C32A 1_555 1_555
C21_2 C23_2 1_555 1_555
C24A C46A 1_555 1_555
C25A C46A 1_555 1_555
C26_2 C40_2 1_555 1_555
C29A C47A 1_555 1_555
C32A C39A 1_555 1_555
C33A C37A 1_555 1_555
C34_2 C45_2 1_555 1_555
C35_2 C48_2 1_555 1_555
C37A C38A 1_555 1_555
C41A C42A 1_555 1_555

#END
