
#######################################################################
#
#                 Cambridge Crystallographic Data Centre
#                                CCDC 
#
#######################################################################
#
# If this CIF has been generated from an entry in the Cambridge 
# Structural Database, then it will include bibliographic, chemical, 
# crystal, experimental, refinement or atomic coordinate data resulting 
# from the CCDC's data processing and validation procedures.
#
#######################################################################

data_TAPKAY
_symmetry_cell_setting           triclinic
_symmetry_space_group_name_H-M   'P -1'
_symmetry_Int_Tables_number      2
_space_group_name_Hall           '-P 1'
loop_
_symmetry_equiv_pos_site_id
_symmetry_equiv_pos_as_xyz
1 x,y,z
2 -x,-y,-z
_cell_length_a                   10.741(9)
_cell_length_b                   11.109(9)
_cell_length_c                   11.933(11)
_cell_angle_alpha                77.678(19)
_cell_angle_beta                 84.65(3)
_cell_angle_gamma                75.99(2)
_cell_volume                     1348.39
loop_
_atom_site_label
_atom_site_type_symbol
_atom_site_fract_x
_atom_site_fract_y
_atom_site_fract_z
Cu1 Cu -0.54615(14) -0.00692(13) 0.19766(13)
Cu2 Cu -0.47807(15) 0.24335(14) 0.06587(12)
Cu3 Cu -0.49041(14) 0.41749(13) 0.33146(12)
Cu4 Cu -0.0302(2) -0.21568(19) -0.06598(18)
P1 P -0.4240(3) 0.1298(3) 0.3361(2)
P2 P -0.2469(3) 0.2749(3) 0.1915(3)
P3 P -0.4876(3) -0.3030(3) 0.1962(3)
P4 P -0.3128(3) -0.1518(3) 0.0561(3)
O1 O -0.4891(7) 0.1454(7) 0.2223(7)
O2 O -0.4727(9) 0.2399(7) 0.3941(7)
O3 O -0.4370(8) 0.0030(7) 0.4093(7)
O4 O -0.3194(9) 0.3846(8) 0.2475(8)
O5 O -0.3065(9) 0.2660(9) 0.0832(8)
O6 O -0.1070(9) 0.2789(8) 0.1703(8)
O7 O -0.1987(9) 0.0186(8) 0.2438(8)
H1 H -0.1325 0.0297 0.2073
O8 O -0.4992(8) -0.4050(7) 0.2998(7)
O9 O -0.5688(9) -0.1745(8) 0.2141(9)
O10 O -0.5221(10) -0.3379(9) 0.0877(7)
O11 O -0.3800(8) -0.0373(7) 0.1081(8)
O12 O -0.1732(9) -0.1492(9) 0.0267(8)
O13 O -0.3801(9) -0.1651(8) -0.0463(7)
O14 O -0.2449(9) -0.4023(8) 0.1311(8)
H2 H -0.1977 -0.3807 0.0763
O15 O -0.0772(17) -0.3825(15) -0.0443(15)
O16 O -0.018(2) -0.0380(19) -0.1221(19)
O17 O 0.106(2) -0.274(2) 0.084(2)
O19 O -0.5887(12) 0.4275(10) 0.1490(11)
N1 N -0.2982(10) -0.0362(9) 0.6925(8)
N2 N -0.3519(11) -0.4493(10) 0.5608(8)
C1 C -0.2548(12) 0.1263(10) 0.2963(10)
C2 C -0.1769(13) 0.1187(13) 0.4024(11)
H3 H -0.0864 0.1039 0.3790
H4 H -0.2006 0.2004 0.4251
C3 C -0.1945(12) 0.0178(12) 0.5070(12)
C4 C -0.2751(12) 0.0482(11) 0.5987(11)
H5 H -0.3162 0.1328 0.5955
C5 C -0.2380(13) -0.1568(12) 0.6957(11)
H6 H -0.2531 -0.2169 0.7596
C6 C -0.1565(15) -0.1962(13) 0.6112(14)
H7 H -0.1157 -0.2813 0.6179
C7 C -0.1337(14) -0.1075(12) 0.5125(12)
H8 H -0.0789 -0.1329 0.4525
C8 C -0.3182(12) -0.2911(10) 0.1726(10)
C9 C -0.2511(13) -0.2733(12) 0.2756(10)
H9 H -0.1638 -0.2671 0.2511
H10 H -0.2955 -0.1938 0.2969
C10 C -0.2470(12) -0.3777(11) 0.3804(10)
C11 C -0.1497(15) -0.4858(13) 0.3990(12)
H11 H -0.0825 -0.4996 0.3447
C12 C -0.1544(14) -0.5732(14) 0.4999(13)
H12 H -0.0880 -0.6450 0.5150
C13 C -0.2562(14) -0.5554(13) 0.5783(12)
H13 H -0.2594 -0.6169 0.6443
C14 C -0.3446(13) -0.3630(11) 0.4653(10)
H14 H -0.4084 -0.2887 0.4548
Cu1A Cu -0.45385(14) 0.00692(13) 0.80234(13)
Cu1A_2 Cu -0.45385(14) 0.00692(13) -0.19766(13)
Cu2A Cu -0.52193(15) -0.24335(14) -0.06587(12)
Cu3A Cu -0.50959(14) -0.41749(13) 0.66854(12)
Cu3_2 Cu -0.49041(14) -0.58251(13) 0.33146(12)
Cu4A Cu 0.0302(2) 0.21568(19) 0.06598(18)
O6A O 0.1070(9) -0.2789(8) -0.1703(8)
O8_2 O -0.4992(8) 0.5950(7) 0.2998(7)
O10A O -0.4779(10) 0.3379(9) -0.0877(7)
O13A O -0.6199(9) 0.1651(8) 0.0463(7)
N1A N -0.7018(10) 0.0362(9) 0.3075(8)
N2A N -0.6481(11) 0.4493(10) 0.4392(8)
O18 O 0.148(3) -0.510(3) 0.193(3)
O20 O -0.140(5) 0.154(4) -0.234(4)
loop_
_geom_bond_atom_site_label_1
_geom_bond_atom_site_label_2
_geom_bond_site_symmetry_1
_geom_bond_site_symmetry_2
Cu1 O1 1_555 1_555
Cu2 O1 1_555 1_555
Cu3 O2 1_555 1_555
Cu4 O12 1_555 1_555
P1 O1 1_555 1_555
P2 O4 1_555 1_555
P3 O8 1_555 1_555
P4 O11 1_555 1_555
O2 P1 1_555 1_555
O3 P1 1_555 1_555
O4 Cu3 1_555 1_555
O5 Cu2 1_555 1_555
O6 P2 1_555 1_555
O7 H1 1_555 1_555
O8 Cu3_2 1_555 1_555
O9 Cu1 1_555 1_555
O10 P3 1_555 1_555
O11 Cu1 1_555 1_555
O12 P4 1_555 1_555
O13 P4 1_555 1_555
O14 H2 1_555 1_555
O15 Cu4 1_555 1_555
O16 Cu4 1_555 1_555
O17 Cu4 1_555 1_555
O19 Cu2 1_555 1_555
N1 C4 1_555 1_555
N2 C13 1_555 1_555
C1 P1 1_555 1_555
C2 C1 1_555 1_555
H3 C2 1_555 1_555
H4 C2 1_555 1_555
C3 C2 1_555 1_555
C4 C3 1_555 1_555
H5 C4 1_555 1_555
C5 N1 1_555 1_555
H6 C5 1_555 1_555
C6 C5 1_555 1_555
H7 C6 1_555 1_555
C7 C3 1_555 1_555
H8 C7 1_555 1_555
C8 P3 1_555 1_555
C9 C8 1_555 1_555
H9 C9 1_555 1_555
H10 C9 1_555 1_555
C10 C9 1_555 1_555
C11 C10 1_555 1_555
H11 C11 1_555 1_555
C12 C11 1_555 1_555
H12 C12 1_555 1_555
C13 C12 1_555 1_555
H13 C13 1_555 1_555
C14 N2 1_555 1_555
H14 C14 1_555 1_555
Cu1A N1 1_555 1_555
Cu1A_2 O13 1_555 1_555
Cu2A O10 1_555 1_555
Cu3A N2 1_555 1_555
Cu4A O6 1_555 1_555
O6A Cu4 1_555 1_555
O8_2 Cu3 1_555 1_555
O10A Cu2 1_555 1_555
O13A Cu1 1_555 1_555
N1A Cu1 1_555 1_555
N2A Cu3 1_555 1_555
Cu2 O13A 1_555 1_555
Cu3 O19 1_555 1_555
P2 O5 1_555 1_555
P2 C1 1_555 1_555
P3 O9 1_555 1_555
P4 C8 1_555 1_555
O7 C1 1_555 1_555
O13 Cu2A 1_555 1_555
O14 C8 1_555 1_555
C6 C7 1_555 1_555
C10 C14 1_555 1_555

#END
