
#######################################################################
#
#                 Cambridge Crystallographic Data Centre
#                                CCDC 
#
#######################################################################
#
# If this CIF has been generated from an entry in the Cambridge 
# Structural Database, then it will include bibliographic, chemical, 
# crystal, experimental, refinement or atomic coordinate data resulting 
# from the CCDC's data processing and validation procedures.
#
#######################################################################

data_TAPMII
_symmetry_cell_setting           monoclinic
_symmetry_space_group_name_H-M   'P 21/c'
_symmetry_Int_Tables_number      14
_space_group_name_Hall           '-P 2ybc'
loop_
_symmetry_equiv_pos_site_id
_symmetry_equiv_pos_as_xyz
1 x,y,z
2 -x,1/2+y,1/2-z
3 -x,-y,-z
4 x,1/2-y,1/2+z
_cell_length_a                   7.6290(15)
_cell_length_b                   18.696(4)
_cell_length_c                   13.297(3)
_cell_angle_alpha                90
_cell_angle_beta                 114.05(3)
_cell_angle_gamma                90
_cell_volume                     1731.93
loop_
_atom_site_label
_atom_site_type_symbol
_atom_site_fract_x
_atom_site_fract_y
_atom_site_fract_z
Ag1 Ag 0.28245(6) 0.47834(2) 0.93623(3)
N1 N 0.0212(6) 0.5358(2) 0.8074(3)
C1 C -0.1480(9) 0.5247(3) 0.8078(5)
H1 H -0.1771 0.4852 0.8433
N2 N -0.2763(6) 0.5755(2) 0.7525(3)
C2 C -0.1798(8) 0.6231(3) 0.7154(4)
H2 H -0.2308 0.6651 0.6734
C3 C 0.0034(8) 0.5986(3) 0.7505(4)
H3 H 0.1036 0.6214 0.7375
C4 C -0.4716(7) 0.5823(3) 0.7475(4)
H4 H -0.4731 0.6206 0.7987
H5 H -0.5080 0.5370 0.7723
C5 C -0.6176(7) 0.5996(3) 0.6334(4)
C6 C -0.6964(7) 0.5434(3) 0.5585(4)
C7 C -0.8299(7) 0.5593(3) 0.4536(4)
H6 H -0.8865 0.5212 0.4035
C8 C -0.8835(7) 0.6287(3) 0.4195(4)
C9 C -0.8029(7) 0.6849(3) 0.4924(4)
C10 C -0.6724(7) 0.6705(3) 0.6023(4)
C11 C -0.5984(8) 0.7312(3) 0.6833(4)
H7 H -0.6645 0.7311 0.7329
H8 H -0.6224 0.7767 0.6433
H9 H -0.4601 0.7254 0.7264
C12 C -0.6407(8) 0.4664(3) 0.5891(5)
H10 H -0.7174 0.4354 0.5274
H11 H -0.6643 0.4539 0.6540
H12 H -0.5042 0.4601 0.6056
C13 C -1.0249(8) 0.6418(3) 0.3020(4)
H13 H -0.9587 0.6647 0.2609
H14 H -1.1281 0.6731 0.3018
H15 H -1.0795 0.5961 0.2671
C14 C -0.8571(8) 0.7603(3) 0.4546(4)
H16 H -0.7420 0.7911 0.4873
H17 H -0.9014 0.7623 0.3735
N3 N -1.0092(6) 0.7891(2) 0.4846(3)
C15 C -1.0323(7) 0.8586(3) 0.5008(4)
H18 H -0.9457 0.8951 0.5008
N4 N -1.1881(6) 0.8701(2) 0.5166(3)
C16 C -1.2704(8) 0.8041(3) 0.5115(4)
H19 H -1.3853 0.7950 0.5210
C17 C -1.1616(8) 0.7541(3) 0.4909(5)
H20 H -1.1862 0.7042 0.4824
Cl1 Cl 0.56975(17) 0.42197(7) 0.91072(11)
Ag1A Ag -1.28245(6) 0.97834(2) 0.56377(3)
Ag1B Ag 0.71755(6) 0.52166(2) 1.06377(3)
N4A N 0.1881(6) 0.3701(2) 0.9834(3)
Cl1B Cl 0.43025(17) 0.57803(7) 1.08928(11)
loop_
_geom_bond_atom_site_label_1
_geom_bond_atom_site_label_2
_geom_bond_site_symmetry_1
_geom_bond_site_symmetry_2
Ag1 N1 1_555 1_555
N1 C1 1_555 1_555
C1 H1 1_555 1_555
N2 C1 1_555 1_555
C2 N2 1_555 1_555
H2 C2 1_555 1_555
C3 N1 1_555 1_555
H3 C3 1_555 1_555
C4 N2 1_555 1_555
H4 C4 1_555 1_555
H5 C4 1_555 1_555
C5 C4 1_555 1_555
C6 C5 1_555 1_555
C7 C6 1_555 1_555
H6 C7 1_555 1_555
C8 C7 1_555 1_555
C9 C8 1_555 1_555
C10 C5 1_555 1_555
C11 C10 1_555 1_555
H7 C11 1_555 1_555
H8 C11 1_555 1_555
H9 C11 1_555 1_555
C12 C6 1_555 1_555
H10 C12 1_555 1_555
H11 C12 1_555 1_555
H12 C12 1_555 1_555
C13 C8 1_555 1_555
H13 C13 1_555 1_555
H14 C13 1_555 1_555
H15 C13 1_555 1_555
C14 C9 1_555 1_555
H16 C14 1_555 1_555
H17 C14 1_555 1_555
N3 C14 1_555 1_555
C15 N3 1_555 1_555
H18 C15 1_555 1_555
N4 C15 1_555 1_555
C16 N4 1_555 1_555
H19 C16 1_555 1_555
C17 N3 1_555 1_555
H20 C17 1_555 1_555
Cl1 Ag1 1_555 1_555
Ag1A N4 1_555 1_555
Ag1B Cl1 1_555 1_555
N4A Ag1 1_555 1_555
Cl1B Ag1 1_555 1_555
C2 C3 1_555 1_555
C9 C10 1_555 1_555
C16 C17 1_555 1_555
Ag1B Cl1B 1_555 1_555

#END
