
#######################################################################
#
#                 Cambridge Crystallographic Data Centre
#                                CCDC 
#
#######################################################################
#
# If this CIF has been generated from an entry in the Cambridge 
# Structural Database, then it will include bibliographic, chemical, 
# crystal, experimental, refinement or atomic coordinate data resulting 
# from the CCDC's data processing and validation procedures.
#
#######################################################################

data_TAPMEE
_symmetry_cell_setting           triclinic
_symmetry_space_group_name_H-M   'P -1'
_symmetry_Int_Tables_number      2
_space_group_name_Hall           '-P 1'
loop_
_symmetry_equiv_pos_site_id
_symmetry_equiv_pos_as_xyz
1 x,y,z
2 -x,-y,-z
_cell_length_a                   9.054(10)
_cell_length_b                   10.406(11)
_cell_length_c                   10.574(11)
_cell_angle_alpha                69.008(16)
_cell_angle_beta                 77.512(17)
_cell_angle_gamma                82.171(17)
_cell_volume                     906.226
loop_
_atom_site_label
_atom_site_type_symbol
_atom_site_fract_x
_atom_site_fract_y
_atom_site_fract_z
Ag1 Ag 0.32228(6) 0.37027(5) 0.00766(6)
N1 N 0.1988(7) 0.5180(6) 0.1048(6)
C1 C 0.2671(8) 0.5662(7) 0.1745(7)
H1 H 0.3618 0.5297 0.2019
N2 N 0.1840(7) 0.6757(6) 0.2023(6)
C2 C 0.0548(8) 0.6967(7) 0.1476(7)
H2 H -0.0262 0.7641 0.1525
C3 C 0.0663(8) 0.6021(7) 0.0852(7)
H3 H -0.0055 0.5941 0.0353
C4 C 0.2311(8) 0.7597(7) 0.2717(8)
H4 H 0.2895 0.8362 0.2023
H5 H 0.2978 0.7019 0.3365
C5 C 0.0949(7) 0.8179(7) 0.3496(7)
C6 C 0.0321(8) 0.7375(7) 0.4830(7)
C7 C -0.0995(8) 0.7866(7) 0.5525(7)
H6 H -0.1424 0.7304 0.6425
C8 C -0.1703(8) 0.9167(8) 0.4931(7)
C9 C -0.1026(8) 0.9994(7) 0.3624(7)
C10 C 0.0278(7) 0.9495(7) 0.2884(7)
C11 C 0.0944(9) 1.0380(7) 0.1445(7)
H7 H 0.1590 1.1038 0.1494
H8 H 0.0124 1.0884 0.0956
H9 H 0.1552 0.9793 0.0952
C12 C 0.1055(9) 0.5969(7) 0.5544(8)
H10 H 0.0402 0.5517 0.6424
H11 H 0.2044 0.6084 0.5712
H12 H 0.1191 0.5401 0.4957
C13 C -0.3125(8) 0.9641(9) 0.5714(8)
H13 H -0.3547 0.8852 0.6491
H14 H -0.3866 1.0047 0.5103
H15 H -0.2894 1.0333 0.6061
C14 C -0.1711(8) 1.1453(7) 0.2989(8)
H16 H -0.2130 1.1843 0.3730
H17 H -0.0898 1.2038 0.2351
N3 N -0.2923(6) 1.1501(6) 0.2232(6)
C15 C -0.3912(8) 1.2610(7) 0.1817(7)
H18 H -0.3956 1.3427 0.2033
N4 N -0.4802(7) 1.2410(6) 0.1079(6)
C16 C -0.4339(8) 1.1118(8) 0.0998(7)
H19 H -0.4765 1.0688 0.0518
C17 C -0.3193(8) 1.0549(7) 0.1700(7)
H20 H -0.2679 0.9668 0.1803
O1 O 0.3056(6) 0.2547(5) -0.1404(5)
C18 C 0.3659(8) 0.3409(7) -0.2507(8)
O2 O 0.4114(6) 0.4548(5) -0.2607(5)
C19 C 0.3852(9) 0.3093(8) -0.3838(8)
H21 H 0.4478 0.2230 -0.3756
H22 H 0.4348 0.3847 -0.4609
H23 H 0.2856 0.2998 -0.4004
Ag1_2 Ag -0.67772(6) 1.37027(5) 0.00766(6)
N4_2 N 0.5198(7) 0.2410(6) 0.1079(6)
loop_
_geom_bond_atom_site_label_1
_geom_bond_atom_site_label_2
_geom_bond_site_symmetry_1
_geom_bond_site_symmetry_2
Ag1 N1 1_555 1_555
N1 C1 1_555 1_555
C1 H1 1_555 1_555
N2 C1 1_555 1_555
C2 N2 1_555 1_555
H2 C2 1_555 1_555
C3 N1 1_555 1_555
H3 C3 1_555 1_555
C4 N2 1_555 1_555
H4 C4 1_555 1_555
H5 C4 1_555 1_555
C5 C4 1_555 1_555
C6 C5 1_555 1_555
C7 C6 1_555 1_555
H6 C7 1_555 1_555
C8 C7 1_555 1_555
C9 C8 1_555 1_555
C10 C5 1_555 1_555
C11 C10 1_555 1_555
H7 C11 1_555 1_555
H8 C11 1_555 1_555
H9 C11 1_555 1_555
C12 C6 1_555 1_555
H10 C12 1_555 1_555
H11 C12 1_555 1_555
H12 C12 1_555 1_555
C13 C8 1_555 1_555
H13 C13 1_555 1_555
H14 C13 1_555 1_555
H15 C13 1_555 1_555
C14 C9 1_555 1_555
H16 C14 1_555 1_555
H17 C14 1_555 1_555
N3 C14 1_555 1_555
C15 N3 1_555 1_555
H18 C15 1_555 1_555
N4 C15 1_555 1_555
C16 N4 1_555 1_555
H19 C16 1_555 1_555
C17 N3 1_555 1_555
H20 C17 1_555 1_555
O1 Ag1 1_555 1_555
C18 O1 1_555 1_555
O2 C18 1_555 1_555
C19 C18 1_555 1_555
H21 C19 1_555 1_555
H22 C19 1_555 1_555
H23 C19 1_555 1_555
Ag1_2 N4 1_555 1_555
N4_2 Ag1 1_555 1_555
C2 C3 1_555 1_555
C9 C10 1_555 1_555
C16 C17 1_555 1_555

#END
