
#######################################################################
#
#                 Cambridge Crystallographic Data Centre
#                                CCDC 
#
#######################################################################
#
# If this CIF has been generated from an entry in the Cambridge 
# Structural Database, then it will include bibliographic, chemical, 
# crystal, experimental, refinement or atomic coordinate data resulting 
# from the CCDC's data processing and validation procedures.
#
#######################################################################

data_TAPTOU
_symmetry_cell_setting           monoclinic
_symmetry_space_group_name_H-M   'C 2/c'
_symmetry_Int_Tables_number      15
_space_group_name_Hall           '-C 2yn'
loop_
_symmetry_equiv_pos_site_id
_symmetry_equiv_pos_as_xyz
1 x,y,z
2 1/2+x,1/2+y,z
3 -x,y,1/2-z
4 1/2-x,1/2+y,1/2-z
5 -x,-y,-z
6 1/2-x,1/2-y,-z
7 x,-y,1/2+z
8 1/2+x,1/2-y,1/2+z
_cell_length_a                   23.005(3)
_cell_length_b                   9.2208(12)
_cell_length_c                   7.9222(11)
_cell_angle_alpha                90
_cell_angle_beta                 103.200(3)
_cell_angle_gamma                90
_cell_volume                     1636.09
loop_
_atom_site_label
_atom_site_type_symbol
_atom_site_fract_x
_atom_site_fract_y
_atom_site_fract_z
Cu1 Cu 0.2500 0.2500 0.0000
S1 S 0.31450(2) 0.28841(6) -0.27386(7)
N1 N 0.40289(7) 0.18230(17) 0.38129(19)
N2 N 0.40758(8) 0.06144(19) 0.2869(2)
N3 N 0.32549(7) 0.18796(16) 0.16601(18)
N4 N 0.26537(8) 0.54801(16) -0.4214(2)
C1 C 0.35955(9) 0.0705(2) 0.1599(3)
H1 H 0.3497 -0.0004 0.0709
C2 C 0.35421(10) 0.25522(19) 0.3087(3)
H2 H 0.3416 0.3429 0.3522
C3 C 0.44843(9) 0.2183(2) 0.5394(2)
H3 H 0.4800 0.1432 0.5599
H4 H 0.4298 0.2192 0.6404
C4 C 0.47586(8) 0.3644(2) 0.5221(2)
C5 C 0.44648(8) 0.4907(2) 0.5506(2)
H5 H 0.4097 0.4845 0.5857
C6 C 0.52969(8) 0.3750(2) 0.4716(2)
H6 H 0.5502 0.2894 0.4523
C7 C 0.28523(8) 0.43986(19) -0.3604(2)
Cu1F Cu 0.2500 0.7500 -0.5000
Cu1A Cu 0.7500 0.7500 1.0000
Cu1F_2 Cu 0.2500 -0.2500 0.5000
S1E S 0.18550(2) 0.21159(6) 0.27386(7)
N1D N 0.59711(7) 0.81770(17) 0.61871(19)
N2D N 0.59242(8) 0.93856(19) 0.7131(2)
N3D N 0.67451(7) 0.81204(16) 0.83399(18)
N3E N 0.17451(7) 0.31204(16) -0.16601(18)
N4E N 0.23463(8) -0.04801(16) 0.4214(2)
N4F N 0.26537(8) 0.45199(16) 0.0786(2)
N4C N 0.23463(8) 0.04801(16) -0.0786(2)
C1D C 0.64045(9) 0.9295(2) 0.8401(3)
H1D H 0.6503 1.0004 0.9291
C2D C 0.64579(10) 0.74478(19) 0.6913(3)
H2D H 0.6584 0.6571 0.6478
C3D C 0.55157(9) 0.7817(2) 0.4606(2)
H3D H 0.5200 0.8568 0.4401
H4D H 0.5702 0.7808 0.3596
C4D C 0.52414(8) 0.6356(2) 0.4779(2)
C5D C 0.55352(8) 0.5093(2) 0.4494(2)
H5D H 0.5903 0.5155 0.4143
C6D C 0.47031(8) 0.6250(2) 0.5284(2)
H6D H 0.4498 0.7106 0.5477
C7E C 0.21477(8) 0.06014(19) 0.3604(2)
loop_
_geom_bond_atom_site_label_1
_geom_bond_atom_site_label_2
_geom_bond_site_symmetry_1
_geom_bond_site_symmetry_2
Cu1 S1 1_555 1_555
S1 C7 1_555 1_555
N1 N2 1_555 1_555
N2 C1 1_555 1_555
N3 Cu1 1_555 1_555
N4 C7 1_555 1_555
C1 N3 1_555 1_555
H1 C1 1_555 1_555
C2 N1 1_555 1_555
H2 C2 1_555 1_555
C3 N1 1_555 1_555
H3 C3 1_555 1_555
H4 C3 1_555 1_555
C4 C3 1_555 1_555
C5 C4 1_555 1_555
H5 C5 1_555 1_555
C6 C4 1_555 1_555
H6 C6 1_555 1_555
Cu1F N4 1_555 1_555
Cu1A N3D 1_555 1_555
Cu1F_2 N4E 1_555 1_555
S1E Cu1 1_555 1_555
N1D N2D 1_555 1_555
N2D C1D 1_555 1_555
N3D C1D 1_555 1_555
N3E Cu1 1_555 1_555
N4E C7E 1_555 1_555
N4F Cu1 1_555 1_555
N4C Cu1 1_555 1_555
C1D H1D 1_555 1_555
C2D N1D 1_555 1_555
H2D C2D 1_555 1_555
C3D N1D 1_555 1_555
H3D C3D 1_555 1_555
H4D C3D 1_555 1_555
C4D C3D 1_555 1_555
C5D C6 1_555 1_555
H5D C5D 1_555 1_555
C6D C5 1_555 1_555
H6D C6D 1_555 1_555
C7E S1E 1_555 1_555
N3 C2 1_555 1_555
N3D C2D 1_555 1_555
C4D C5D 1_555 1_555
C4D C6D 1_555 1_555

#END
