
#######################################################################
#
#                 Cambridge Crystallographic Data Centre
#                                CCDC 
#
#######################################################################
#
# If this CIF has been generated from an entry in the Cambridge 
# Structural Database, then it will include bibliographic, chemical, 
# crystal, experimental, refinement or atomic coordinate data resulting 
# from the CCDC's data processing and validation procedures.
#
#######################################################################

data_TAPVOW
_symmetry_cell_setting           monoclinic
_symmetry_space_group_name_H-M   'P 21/a'
_symmetry_Int_Tables_number      14
_space_group_name_Hall           '-P 2yab'
loop_
_symmetry_equiv_pos_site_id
_symmetry_equiv_pos_as_xyz
1 x,y,z
2 1/2-x,1/2+y,-z
3 -x,-y,-z
4 1/2+x,1/2-y,z
_cell_length_a                   18.4449(5)
_cell_length_b                   9.0987(3)
_cell_length_c                   18.6750(5)
_cell_angle_alpha                90
_cell_angle_beta                 90.535(2)
_cell_angle_gamma                90
_cell_volume                     3133.99
loop_
_atom_site_label
_atom_site_type_symbol
_atom_site_fract_x
_atom_site_fract_y
_atom_site_fract_z
Fe1 Fe 0.004391(11) 0.62290(2) 0.252100(12)
Br1 Br 0.253080(10) 0.73659(3) 0.272470(11)
C1 C 0.11111(9) 0.39475(18) 0.31172(9)
C2 C -0.03391(11) 0.7477(2) 0.45656(10)
C3 C 0.05598(9) 0.8653(2) 0.37460(10)
C4 C -0.07361(11) 0.9495(2) 0.37392(11)
C5 C -0.10691(9) 0.42806(19) 0.17431(9)
C6 C -0.16164(11) 0.5067(2) 0.12615(10)
C7 C -0.14285(11) 0.2996(2) 0.21295(10)
C8 C -0.04334(10) 0.3735(2) 0.13026(10)
C9 C 0.14965(10) 0.4358(2) 0.08254(10)
C10 C 0.20745(11) 0.3271(2) 0.06097(11)
C11 C 0.27246(10) 0.4255(2) 0.04821(10)
C12 C 0.13224(12) 0.4638(2) 0.38322(10)
C13 C 0.26455(10) 0.5416(2) 0.10565(11)
C14 C 0.36481(10) 1.1247(2) 0.41428(10)
C15 C 0.30897(11) 1.2179(2) 0.45153(12)
C16 C 0.24676(10) 1.1119(2) 0.46549(10)
C17 C 0.26452(13) 0.9781(3) 0.42235(13)
C18 C 0.05064(11) 0.2840(2) 0.32207(13)
C19 C 0.17671(10) 0.3205(2) 0.27845(10)
C20 C 0.03529(9) 0.85518(19) 0.13741(9)
C21 C -0.03792(12) 0.9190(3) 0.15602(13)
C22 C 0.03414(15) 0.7930(3) 0.06182(11)
C23 C 0.09395(13) 0.9719(3) 0.14379(14)
C24 C -0.02279(9) 0.81807(19) 0.38293(9)
Li1 Li 0.14693(15) 0.6409(3) 0.20543(15)
Li2 Li 0.36316(15) 0.8777(3) 0.30454(15)
O1 O 0.08740(6) 0.50801(12) 0.26390(6)
O2 O 0.05346(6) 0.73899(13) 0.18572(6)
O3 O -0.04130(6) 0.71087(13) 0.32999(6)
O4 O -0.08204(6) 0.52915(13) 0.22755(6)
O5 O 0.18755(6) 0.55285(15) 0.11866(6)
O6 O 0.32503(6) 1.01057(15) 0.37917(6)
H1 H -0.0020 0.6621 0.4616
H2 H -0.0845 0.7164 0.4610
H3 H -0.0223 0.8194 0.4941
H4 H 0.0625 0.9101 0.3274
H5 H 0.0876 0.7792 0.3792
H6 H 0.0685 0.9370 0.4119
H7 H -0.1240 0.9161 0.3762
H8 H -0.0651 0.9962 0.3275
H9 H -0.0643 1.0207 0.4123
H10 H -0.1381 0.5902 0.1028
H11 H -0.2021 0.5422 0.1551
H12 H -0.1799 0.4384 0.0897
H13 H -0.1830 0.3363 0.2419
H14 H -0.1071 0.2510 0.2441
H15 H -0.1614 0.2291 0.1776
H16 H -0.0082 0.3244 0.1618
H17 H -0.0200 0.4570 0.1067
H18 H -0.0609 0.3039 0.0940
H19 H 0.1235 0.4736 0.0398
H20 H 0.1143 0.3891 0.1149
H21 H 0.1933 0.2735 0.0169
H22 H 0.2174 0.2553 0.0997
H23 H 0.3185 0.3705 0.0541
H24 H 0.2706 0.4695 -0.0002
H25 H 0.2908 0.5121 0.1499
H26 H 0.2841 0.6369 0.0891
H27 H 0.3996 1.0829 0.4494
H28 H 0.3919 1.1840 0.3791
H29 H 0.3286 1.2582 0.4970
H30 H 0.2929 1.3003 0.4206
H31 H 0.2000 1.1549 0.4497
H32 H 0.2439 1.0876 0.5171
H33 H 0.2225 0.9505 0.3918
H34 H 0.2759 0.8947 0.4546
H35 H 0.1700 0.5377 0.3757
H36 H 0.1506 0.3874 0.4156
H37 H 0.0897 0.5106 0.4044
H38 H 0.0077 0.3341 0.3406
H39 H 0.0665 0.2085 0.3562
H40 H 0.0387 0.2378 0.2761
H41 H 0.1631 0.2799 0.2316
H42 H 0.1936 0.2410 0.3098
H43 H 0.2156 0.3928 0.2725
H44 H -0.0746 0.8412 0.1545
H45 H -0.0508 0.9958 0.1214
H46 H -0.0358 0.9615 0.2042
H47 H 0.0810 0.7472 0.0517
H48 H 0.0250 0.8725 0.0275
H49 H -0.0044 0.7192 0.0576
H50 H 0.0957 1.0093 0.1930
H51 H 0.0830 1.0528 0.1108
H52 H 0.1410 0.9288 0.1317
Li2C Li -0.13684(15) 0.6223(3) 0.30454(15)
O3C O 0.45870(6) 0.78913(13) 0.32999(6)
O4C O 0.41796(6) 0.97085(13) 0.22755(6)
loop_
_geom_bond_atom_site_label_1
_geom_bond_atom_site_label_2
_geom_bond_site_symmetry_1
_geom_bond_site_symmetry_2
Fe1 O1 1_555 1_555
Br1 Li1 1_555 1_555
C1 C12 1_555 1_555
C2 C24 1_555 1_555
C3 C24 1_555 1_555
C4 C24 1_555 1_555
C5 C6 1_555 1_555
C6 H10 1_555 1_555
C7 C5 1_555 1_555
C8 C5 1_555 1_555
C9 C10 1_555 1_555
C10 C11 1_555 1_555
C11 C13 1_555 1_555
C12 H35 1_555 1_555
C13 O5 1_555 1_555
C14 C15 1_555 1_555
C15 C16 1_555 1_555
C16 C17 1_555 1_555
C17 O6 1_555 1_555
C18 C1 1_555 1_555
C19 C1 1_555 1_555
C20 C21 1_555 1_555
C21 H44 1_555 1_555
C22 C20 1_555 1_555
C23 C20 1_555 1_555
C24 O3 1_555 1_555
Li1 O1 1_555 1_555
Li2 Br1 1_555 1_555
O1 C1 1_555 1_555
O2 Fe1 1_555 1_555
O3 Fe1 1_555 1_555
O4 Fe1 1_555 1_555
O5 C9 1_555 1_555
O6 C14 1_555 1_555
H1 C2 1_555 1_555
H2 C2 1_555 1_555
H3 C2 1_555 1_555
H4 C3 1_555 1_555
H5 C3 1_555 1_555
H6 C3 1_555 1_555
H7 C4 1_555 1_555
H8 C4 1_555 1_555
H9 C4 1_555 1_555
H11 C6 1_555 1_555
H12 C6 1_555 1_555
H13 C7 1_555 1_555
H14 C7 1_555 1_555
H15 C7 1_555 1_555
H16 C8 1_555 1_555
H17 C8 1_555 1_555
H18 C8 1_555 1_555
H19 C9 1_555 1_555
H20 C9 1_555 1_555
H21 C10 1_555 1_555
H22 C10 1_555 1_555
H23 C11 1_555 1_555
H24 C11 1_555 1_555
H25 C13 1_555 1_555
H26 C13 1_555 1_555
H27 C14 1_555 1_555
H28 C14 1_555 1_555
H29 C15 1_555 1_555
H30 C15 1_555 1_555
H31 C16 1_555 1_555
H32 C16 1_555 1_555
H33 C17 1_555 1_555
H34 C17 1_555 1_555
H36 C12 1_555 1_555
H37 C12 1_555 1_555
H38 C18 1_555 1_555
H39 C18 1_555 1_555
H40 C18 1_555 1_555
H41 C19 1_555 1_555
H42 C19 1_555 1_555
H43 C19 1_555 1_555
H45 C21 1_555 1_555
H46 C21 1_555 1_555
H47 C22 1_555 1_555
H48 C22 1_555 1_555
H49 C22 1_555 1_555
H50 C23 1_555 1_555
H51 C23 1_555 1_555
H52 C23 1_555 1_555
Li2C O3 1_555 1_555
O3C Li2 1_555 1_555
O4C Li2 1_555 1_555
C5 O4 1_555 1_555
C20 O2 1_555 1_555
Li1 O2 1_555 1_555
Li1 O5 1_555 1_555
Li2 O6 1_555 1_555
O4 Li2C 1_555 1_555

#END
