
#######################################################################
#
#                 Cambridge Crystallographic Data Centre
#                                CCDC 
#
#######################################################################
#
# If this CIF has been generated from an entry in the Cambridge 
# Structural Database, then it will include bibliographic, chemical, 
# crystal, experimental, refinement or atomic coordinate data resulting 
# from the CCDC's data processing and validation procedures.
#
#######################################################################

data_TAPWUD01
_symmetry_cell_setting           monoclinic
_symmetry_space_group_name_H-M   'P 21/c'
_symmetry_Int_Tables_number      14
_space_group_name_Hall           '-P 2ybc'
loop_
_symmetry_equiv_pos_site_id
_symmetry_equiv_pos_as_xyz
1 x,y,z
2 -x,1/2+y,1/2-z
3 -x,-y,-z
4 x,1/2-y,1/2+z
_cell_length_a                   17.191(4)
_cell_length_b                   7.3448(10)
_cell_length_c                   15.5279(17)
_cell_angle_alpha                90
_cell_angle_beta                 101.964(8)
_cell_angle_gamma                90
_cell_volume                     1918.03
loop_
_atom_site_label
_atom_site_type_symbol
_atom_site_fract_x
_atom_site_fract_y
_atom_site_fract_z
Mn1 Mn -0.017330(13) -0.42917(3) -0.367830(13)
O1 O -0.08775(7) -0.54933(14) -0.28131(7)
O2 O -0.06477(6) -0.84497(14) -0.25682(6)
O3 O 0.10632(6) -0.50347(15) -0.51699(7)
O4 O 0.03938(8) -0.69193(16) -0.35614(8)
O5 O 0.05821(6) -0.29339(14) -0.43822(7)
O6 O -0.08328(8) -0.17980(16) -0.35277(8)
O7 O 0.10333(7) 0.03438(16) -0.44035(8)
C1 C -0.24201(9) -0.5688(2) -0.24656(11)
C2 C 0.23665(9) -0.2761(2) -0.52473(9)
H1 H 0.2413 -0.4016 -0.5375
C3 C -0.10989(8) -0.70613(19) -0.26205(8)
O8 O -0.22050(8) -0.40070(16) -0.26974(10)
C4 C 0.28761(10) 0.0333(2) -0.52211(10)
C5 C -0.19082(8) -0.7240(2) -0.24369(9)
C6 C 0.17150(8) -0.2169(2) -0.49347(9)
C7 C 0.29657(9) -0.1544(2) -0.53824(10)
C8 C -0.29362(9) -0.9137(2) -0.20235(10)
C9 C 0.16595(9) -0.0284(2) -0.47281(9)
C10 C 0.22180(10) 0.0941(2) -0.48830(10)
H2 H 0.2162 0.2197 -0.4763
C11 C -0.21797(9) -0.8915(2) -0.22254(10)
H3 H -0.1846 -0.9950 -0.2215
C12 C 0.10867(8) -0.3493(2) -0.48240(9)
C13 C -0.32170(10) -1.0867(2) -0.18163(12)
H4 H -0.2890 -1.1912 -0.1810
C14 C -0.34256(9) -0.7574(2) -0.20296(10)
C15 C -0.31524(10) -0.5877(2) -0.22575(11)
H5 H -0.3482 -0.4836 -0.2268
C16 C 0.36408(10) -0.2151(3) -0.56892(11)
H6 H 0.3712 -0.3414 -0.5781
C17 C -0.44422(11) -0.9491(3) -0.16283(13)
H7 H -0.4953 -0.9622 -0.1493
C18 C -0.41869(10) -0.7803(3) -0.18241(12)
H8 H -0.4522 -0.6776 -0.1822
C19 C 0.40924(12) 0.0942(3) -0.57174(14)
H9 H 0.4475 0.1781 -0.5842
C20 C -0.39525(11) -1.1038(3) -0.16263(13)
H10 H -0.4137 -1.2202 -0.1492
C21 C 0.34548(11) 0.1570(3) -0.54089(12)
H11 H 0.3398 0.2838 -0.5319
C22 C 0.41928(11) -0.0926(3) -0.58544(13)
H12 H 0.4644 -0.1341 -0.6062
H13 H -0.1726(14) -0.407(3) -0.2732(15)
H14 H 0.0612(13) -0.740(3) -0.3844(16)
H15 H -0.1220(14) -0.150(3) -0.3885(16)
H16 H 0.0753(15) -0.065(3) -0.4305(17)
H17 H -0.0745(13) -0.087(3) -0.3164(15)
H18 H 0.0152(13) -0.768(3) -0.3275(16)
Mn1A Mn 0.017330(13) -0.92917(3) -0.132170(13)
Mn1B Mn 0.017330(13) -0.57083(3) -0.632170(13)
O2A O 0.06477(6) -0.34497(14) -0.24318(6)
O3B O -0.10632(6) -0.49653(15) -0.48301(7)
loop_
_geom_bond_atom_site_label_1
_geom_bond_atom_site_label_2
_geom_bond_site_symmetry_1
_geom_bond_site_symmetry_2
Mn1 O1 1_555 1_555
O1 C3 1_555 1_555
O2 C3 1_555 1_555
O3 C12 1_555 1_555
O4 Mn1 1_555 1_555
O5 Mn1 1_555 1_555
O6 Mn1 1_555 1_555
O7 C9 1_555 1_555
C1 O8 1_555 1_555
C2 H1 1_555 1_555
C3 C5 1_555 1_555
O8 H13 1_555 1_555
C4 C7 1_555 1_555
C5 C1 1_555 1_555
C6 C2 1_555 1_555
C7 C2 1_555 1_555
C8 C11 1_555 1_555
C9 C6 1_555 1_555
C10 C4 1_555 1_555
H2 C10 1_555 1_555
C11 C5 1_555 1_555
H3 C11 1_555 1_555
C12 O5 1_555 1_555
C13 C8 1_555 1_555
H4 C13 1_555 1_555
C14 C8 1_555 1_555
C15 C1 1_555 1_555
H5 C15 1_555 1_555
C16 C7 1_555 1_555
H6 C16 1_555 1_555
C17 H7 1_555 1_555
C18 C14 1_555 1_555
H8 C18 1_555 1_555
C19 H9 1_555 1_555
C20 C13 1_555 1_555
H10 C20 1_555 1_555
C21 C4 1_555 1_555
H11 C21 1_555 1_555
C22 C16 1_555 1_555
H12 C22 1_555 1_555
H14 O4 1_555 1_555
H15 O6 1_555 1_555
H16 O7 1_555 1_555
H17 O6 1_555 1_555
H18 O4 1_555 1_555
Mn1A O2 1_555 1_555
Mn1B O3 1_555 1_555
O2A Mn1 1_555 1_555
O3B Mn1 1_555 1_555
C6 C12 1_555 1_555
C9 C10 1_555 1_555
C14 C15 1_555 1_555
C17 C18 1_555 1_555
C17 C20 1_555 1_555
C19 C21 1_555 1_555
C19 C22 1_555 1_555

#END
