
#######################################################################
#
#                 Cambridge Crystallographic Data Centre
#                                CCDC 
#
#######################################################################
#
# If this CIF has been generated from an entry in the Cambridge 
# Structural Database, then it will include bibliographic, chemical, 
# crystal, experimental, refinement or atomic coordinate data resulting 
# from the CCDC's data processing and validation procedures.
#
#######################################################################

data_TAPWIR
_symmetry_cell_setting           monoclinic
_symmetry_space_group_name_H-M   'C 2/c'
_symmetry_Int_Tables_number      15
_space_group_name_Hall           '-C 2yn'
loop_
_symmetry_equiv_pos_site_id
_symmetry_equiv_pos_as_xyz
1 x,y,z
2 1/2+x,1/2+y,z
3 -x,y,1/2-z
4 1/2-x,1/2+y,1/2-z
5 -x,-y,-z
6 1/2-x,1/2-y,-z
7 x,-y,1/2+z
8 1/2+x,1/2-y,1/2+z
_cell_length_a                   16.1930(4)
_cell_length_b                   33.4500(9)
_cell_length_c                   6.5169(2)
_cell_angle_alpha                90
_cell_angle_beta                 112.3490(10)
_cell_angle_gamma                90
_cell_volume                     3264.77
loop_
_atom_site_label
_atom_site_type_symbol
_atom_site_fract_x
_atom_site_fract_y
_atom_site_fract_z
Na1 Na 0.0000 0.30706(2) 0.7500
O1 O 0.27698(7) 0.31719(3) 0.97414(17)
O2 O 0.14494(7) 0.32681(3) 1.00023(17)
O3 O 0.03594(7) 0.30544(3) 0.43393(16)
F1 F 0.27048(9) 0.50546(3) 1.01595(18)
F2 F 0.0000 0.49109(4) 0.2500
C1 C 0.21670(10) 0.33954(4) 0.9896(2)
C2 C 0.23177(10) 0.38393(4) 0.9968(2)
C3 C 0.17330(11) 0.40959(5) 1.0425(3)
H10 H 0.1239 0.3989 1.0688
C4 C 0.18627(12) 0.45061(5) 1.0503(3)
H11 H 0.1469 0.4681 1.0836
C5 C 0.25735(11) 0.46525(5) 1.0087(2)
C6 C 0.31642(12) 0.44119(5) 0.9612(3)
H12 H 0.3648 0.4523 0.9321
C7 C 0.30349(11) 0.40006(5) 0.9568(3)
H13 H 0.3440 0.3828 0.9262
C8 C 0.0000 0.32280(6) 0.2500
C9 C 0.0000 0.36805(6) 0.2500
C10 C 0.05339(10) 0.38922(5) 0.4370(2)
H14 H 0.0897 0.3751 0.5662
C11 C 0.05441(12) 0.43078(5) 0.4381(3)
H15 H 0.0916 0.4452 0.5650
C12 C 0.0000 0.45025(7) 0.2500
O5 O 0.0000 0.23282(5) 0.7500
H18 H 0.0088(14) 0.2167(6) 0.662(3)
Na1_2 Na 0.0000 0.30706(2) -0.2500
O1B O -0.27698(7) 0.31719(3) 0.52586(17)
O2B O -0.14494(7) 0.32681(3) 0.49977(17)
O3B O -0.03594(7) 0.30544(3) 0.06607(16)
O3B_2 O -0.03594(7) 0.30544(3) 1.06607(16)
F1B F -0.27048(9) 0.50546(3) 0.48405(18)
C1B C -0.21670(10) 0.33954(4) 0.5104(2)
C2B C -0.23177(10) 0.38393(4) 0.5032(2)
C3B C -0.17330(11) 0.40959(5) 0.4575(3)
H10B H -0.1239 0.3989 0.4312
C4B C -0.18627(12) 0.45061(5) 0.4497(3)
H11B H -0.1469 0.4681 0.4164
C5B C -0.25735(11) 0.46525(5) 0.4913(2)
C6B C -0.31642(12) 0.44119(5) 0.5388(3)
H12B H -0.3648 0.4523 0.5679
C7B C -0.30349(11) 0.40006(5) 0.5432(3)
H13B H -0.3440 0.3828 0.5738
C10B C -0.05339(10) 0.38922(5) 0.0630(2)
H14B H -0.0897 0.3751 -0.0662
C11B C -0.05441(12) 0.43078(5) 0.0619(3)
H15B H -0.0916 0.4452 -0.0650
H18B H -0.0088(14) 0.2167(6) 0.838(3)
Co1 Co 0.2500 0.2500 0.5000
N1 N 0.32012(8) 0.24780(3) 0.3142(2)
H1 H 0.3743(8) 0.2401(5) 0.395(3)
H2 H 0.3206(14) 0.2701(4) 0.245(3)
H3 H 0.2979(11) 0.2295(4) 0.211(3)
N2 N 0.25725(8) 0.30863(4) 0.50156(18)
H4 H 0.2136(10) 0.3202(5) 0.393(3)
H5 H 0.3084(9) 0.3156(5) 0.495(3)
H6 H 0.2581(13) 0.3179(5) 0.628(2)
N3 N 0.14240(8) 0.25011(3) 0.2282(2)
H7 H 0.1394(12) 0.2721(4) 0.152(3)
H8 H 0.1425(12) 0.2301(4) 0.141(3)
H9 H 0.0940(11) 0.2476(5) 0.254(4)
N1E N 0.17988(8) 0.25220(3) 0.6858(2)
H1E H 0.1257(8) 0.2599(5) 0.605(3)
H2E H 0.1794(14) 0.2299(4) 0.755(3)
H3E H 0.2021(11) 0.2705(4) 0.789(3)
N2E N 0.24275(8) 0.19137(4) 0.49844(18)
H4E H 0.2864(10) 0.1798(5) 0.607(3)
H5E H 0.1916(9) 0.1844(5) 0.505(3)
H6E H 0.2419(13) 0.1821(5) 0.372(2)
N3E N 0.35760(8) 0.24989(3) 0.7718(2)
H7E H 0.3606(12) 0.2279(4) 0.848(3)
H8E H 0.3575(12) 0.2699(4) 0.859(3)
H9E H 0.4060(11) 0.2524(5) 0.746(4)
O4 O 0.45223(7) 0.30789(3) 0.57339(18)
F3 F 0.5000 0.49354(4) 0.7500
C13 C 0.5000 0.32551(6) 0.7500
C14 C 0.5000 0.37072(6) 0.7500
C15 C 0.45117(11) 0.39170(5) 0.5582(3)
H16 H 0.4178 0.3775 0.4263
C16 C 0.45067(12) 0.43336(5) 0.5578(3)
H17 H 0.4169 0.4479 0.4274
C17 C 0.5000 0.45281(7) 0.7500
O4B O 0.54777(7) 0.30789(3) 0.92661(18)
C15B C 0.54883(11) 0.39170(5) 0.9418(3)
H16B H 0.5822 0.3775 1.0737
C16B C 0.54933(12) 0.43336(5) 0.9422(3)
H17B H 0.5831 0.4479 1.0726
loop_
_geom_bond_atom_site_label_1
_geom_bond_atom_site_label_2
_geom_bond_site_symmetry_1
_geom_bond_site_symmetry_2
Na1 O2 1_555 1_555
Co1 N1 1_555 1_555
N1 H1 1_555 1_555
H2 N1 1_555 1_555
H3 N1 1_555 1_555
N2 Co1 1_555 1_555
H4 N2 1_555 1_555
H5 N2 1_555 1_555
H6 N2 1_555 1_555
N3 Co1 1_555 1_555
H7 N3 1_555 1_555
H8 N3 1_555 1_555
H9 N3 1_555 1_555
O1 C1 1_555 1_555
O2 C1 1_555 1_555
O3 Na1 1_555 1_555
O4 C13 1_555 1_555
F1 C5 1_555 1_555
F2 C12 1_555 1_555
F3 C17 1_555 1_555
C1 C2 1_555 1_555
C2 C3 1_555 1_555
C3 H10 1_555 1_555
C4 C3 1_555 1_555
H11 C4 1_555 1_555
C5 C4 1_555 1_555
C6 C5 1_555 1_555
H12 C6 1_555 1_555
C7 C2 1_555 1_555
H13 C7 1_555 1_555
C8 O3 1_555 1_555
C9 C8 1_555 1_555
C10 C9 1_555 1_555
H14 C10 1_555 1_555
C11 C10 1_555 1_555
H15 C11 1_555 1_555
C12 C11 1_555 1_555
C13 C14 1_555 1_555
C14 C15 1_555 1_555
C15 H16 1_555 1_555
C16 C15 1_555 1_555
H17 C16 1_555 1_555
C17 C16 1_555 1_555
O5 Na1 1_555 1_555
H18 O5 1_555 1_555
Na1_2 O3B 1_555 1_555
N1E Co1 1_555 1_555
H1E N1E 1_555 1_555
H2E N1E 1_555 1_555
H3E N1E 1_555 1_555
N2E Co1 1_555 1_555
H4E N2E 1_555 1_555
H5E N2E 1_555 1_555
H6E N2E 1_555 1_555
N3E Co1 1_555 1_555
H7E N3E 1_555 1_555
H8E N3E 1_555 1_555
H9E N3E 1_555 1_555
O1B C1B 1_555 1_555
O2B Na1 1_555 1_555
O3B C8 1_555 1_555
O3B_2 Na1 1_555 1_555
O4B C13 1_555 1_555
F1B C5B 1_555 1_555
C1B O2B 1_555 1_555
C2B C1B 1_555 1_555
C3B C2B 1_555 1_555
H10B C3B 1_555 1_555
C4B C3B 1_555 1_555
H11B C4B 1_555 1_555
C5B C4B 1_555 1_555
C6B C5B 1_555 1_555
H12B C6B 1_555 1_555
C7B C2B 1_555 1_555
H13B C7B 1_555 1_555
C10B C9 1_555 1_555
H14B C10B 1_555 1_555
C11B C12 1_555 1_555
H15B C11B 1_555 1_555
C15B C14 1_555 1_555
H16B C15B 1_555 1_555
C16B C17 1_555 1_555
H17B C16B 1_555 1_555
H18B O5 1_555 1_555
C6 C7 1_555 1_555
C6B C7B 1_555 1_555
C10B C11B 1_555 1_555
C15B C16B 1_555 1_555

#END
