
#######################################################################
#
#                 Cambridge Crystallographic Data Centre
#                                CCDC 
#
#######################################################################
#
# If this CIF has been generated from an entry in the Cambridge 
# Structural Database, then it will include bibliographic, chemical, 
# crystal, experimental, refinement or atomic coordinate data resulting 
# from the CCDC's data processing and validation procedures.
#
#######################################################################

data_TAPXAL
_symmetry_cell_setting           triclinic
_symmetry_space_group_name_H-M   'P -1'
_symmetry_Int_Tables_number      2
_space_group_name_Hall           '-P 1'
loop_
_symmetry_equiv_pos_site_id
_symmetry_equiv_pos_as_xyz
1 x,y,z
2 -x,-y,-z
_cell_length_a                   9.5795(2)
_cell_length_b                   10.4344(2)
_cell_length_c                   14.6343(3)
_cell_angle_alpha                71.9450(10)
_cell_angle_beta                 76.2590(10)
_cell_angle_gamma                88.2540(10)
_cell_volume                     1349.48
loop_
_atom_site_label
_atom_site_type_symbol
_atom_site_fract_x
_atom_site_fract_y
_atom_site_fract_z
Yb1 Yb 0.719819(11) 0.632388(10) 0.507022(7)
O1 O 0.8288(2) 0.6596(2) 0.61527(14)
O2 O 0.7818(2) 0.8023(2) 0.70334(16)
O3 O 0.8537(3) 0.2639(2) 1.03673(16)
O4 O 0.6493(2) 0.2296(2) 1.48919(16)
O5 O 0.4371(2) 0.2192(2) 1.45486(15)
O6 O 0.6400(2) 0.6080(2) 0.38624(14)
O7 O 0.4513(2) 0.5033(2) 0.37533(15)
O8 O 0.6158(2) 0.8885(2) -0.06101(14)
O9 O 1.18226(19) 1.15787(19) -0.38705(14)
O10 O 1.03690(19) 1.32436(19) -0.41186(14)
O11 O 0.8091(2) 0.4244(2) 0.50997(17)
C1 C 0.8080(3) 0.6878(3) 0.6964(2)
C2 C 0.8190(3) 0.5761(3) 0.7867(2)
C3 C 0.7590(3) 0.5878(3) 0.8804(2)
H1 H 0.7123 0.6656 0.8857
C4 C 0.8897(3) 0.4595(3) 0.7804(2)
H2 H 0.9293 0.4497 0.7186
C5 C 0.7679(3) 0.4862(3) 0.9651(2)
H3 H 0.7266 0.4948 1.0271
C6 C 0.9017(4) 0.3587(3) 0.8645(2)
H4 H 0.9516 0.2823 0.8595
C7 C 0.8390(3) 0.3715(3) 0.9570(2)
C8 C 0.7807(3) 0.2632(3) 1.1322(2)
C9 C 0.8494(3) 0.3139(4) 1.1860(2)
H5 H 0.9405 0.3561 1.1575
C10 C 0.6446(4) 0.2018(4) 1.1719(2)
H6 H 0.5995 0.1667 1.1346
C11 C 0.7829(3) 0.3023(3) 1.2831(2)
H7 H 0.8305 0.3349 1.3205
C12 C 0.5771(3) 0.1935(4) 1.2680(2)
H8 H 0.4843 0.1549 1.2949
C13 C 0.6454(3) 0.2421(3) 1.3255(2)
C14 C 0.5735(3) 0.2302(3) 1.4309(2)
C15 C 0.5564(3) 0.5866(3) 0.33866(19)
C16 C 0.5824(3) 0.6633(3) 0.23141(19)
C17 C 0.6770(3) 0.7773(3) 0.1899(2)
H9 H 0.7288 0.8020 0.2286
C18 C 0.5088(3) 0.6264(3) 0.1720(2)
H10 H 0.4462 0.5506 0.1988
C19 C 0.6941(3) 0.8539(3) 0.0912(2)
H11 H 0.7559 0.9303 0.0638
C20 C 0.5272(3) 0.7009(3) 0.0737(2)
H12 H 0.4785 0.6745 0.0341
C21 C 0.6180(3) 0.8147(3) 0.03449(19)
C22 C 0.7322(3) 0.9661(3) -0.12788(19)
C23 C 0.8731(3) 0.9313(3) -0.1328(2)
H13 H 0.8962 0.8573 -0.0848
C24 C 0.6964(3) 1.0790(3) -0.1962(2)
H14 H 0.6008 1.1016 -0.1913
C25 C 0.9797(3) 1.0087(3) -0.2107(2)
H15 H 1.0748 0.9844 -0.2167
C26 C 0.8034(3) 1.1574(3) -0.2716(2)
H16 H 0.7803 1.2343 -0.3172
C27 C 0.9457(3) 1.1223(3) -0.27986(19)
C28 C 1.0607(3) 1.2053(3) -0.36344(19)
Yb1A Yb 0.280181(11) 0.367612(10) 0.492978(7)
Yb1_2 Yb -0.280181(11) -0.367612(10) 1.507022(7)
Yb1_3 Yb 0.719819(11) 0.632388(10) -0.492978(7)
Yb1A_2 Yb 0.280181(11) 0.367612(10) 1.492978(7)
Yb1A_3 Yb 1.280181(11) 1.367612(10) -0.507022(7)
O1A O 0.1712(2) 0.3404(2) 0.38473(14)
O2A O 0.2182(2) 0.1977(2) 0.29666(16)
O3A O 0.1463(3) 0.7361(2) -0.03673(16)
O4A O 0.3507(2) 0.7704(2) -0.48919(16)
O5A O 0.5629(2) 0.7808(2) -0.45486(15)
O5_2 O 0.4371(2) 0.2192(2) 0.45486(15)
O5A_2 O 0.5629(2) 0.7808(2) 0.54514(15)
O6A O 0.3600(2) 0.3920(2) 0.61376(14)
O7A O 0.5487(2) 0.4967(2) 0.62467(15)
O8A O 0.3842(2) 0.1115(2) 1.06101(14)
O9A O -0.18226(19) -0.15787(19) 1.38705(14)
O9_2 O 0.18226(19) 0.15787(19) 0.61295(14)
O9A_2 O 0.81774(19) 0.84213(19) 0.38705(14)
O10A O -0.03690(19) -0.32436(19) 1.41186(14)
O10_2 O 0.03690(19) 0.32436(19) 0.58814(14)
O10A_2 O 0.96310(19) 0.67564(19) 0.41186(14)
O11A O 0.1909(2) 0.5756(2) 0.49003(17)
C1A C 0.1920(3) 0.3122(3) 0.3036(2)
C2A C 0.1810(3) 0.4239(3) 0.2133(2)
C3A C 0.2410(3) 0.4122(3) 0.1196(2)
H1A H 0.2877 0.3344 0.1143
C4A C 0.1103(3) 0.5405(3) 0.2196(2)
H2A H 0.0707 0.5503 0.2814
C5A C 0.2321(3) 0.5138(3) 0.0349(2)
H3A H 0.2734 0.5052 -0.0271
C6A C 0.0983(4) 0.6413(3) 0.1355(2)
H4A H 0.0484 0.7177 0.1405
C7A C 0.1610(3) 0.6285(3) 0.0430(2)
C8A C 0.2193(3) 0.7368(3) -0.1322(2)
C9A C 0.1506(3) 0.6861(4) -0.1860(2)
H5A H 0.0595 0.6439 -0.1575
C10A C 0.3554(4) 0.7982(4) -0.1719(2)
H6A H 0.4005 0.8333 -0.1346
C11A C 0.2171(3) 0.6977(3) -0.2831(2)
H7A H 0.1695 0.6651 -0.3205
C12A C 0.4229(3) 0.8065(4) -0.2680(2)
H8A H 0.5157 0.8451 -0.2949
C13A C 0.3546(3) 0.7579(3) -0.3255(2)
C14A C 0.4265(3) 0.7698(3) -0.4309(2)
C15A C 0.4436(3) 0.4134(3) 0.66134(19)
C16A C 0.4176(3) 0.3367(3) 0.76859(19)
C17A C 0.3230(3) 0.2227(3) 0.8101(2)
H9A H 0.2712 0.1980 0.7714
C18A C 0.4912(3) 0.3736(3) 0.8280(2)
H10A H 0.5538 0.4494 0.8012
C19A C 0.3059(3) 0.1461(3) 0.9088(2)
H11A H 0.2441 0.0697 0.9362
C20A C 0.4728(3) 0.2991(3) 0.9263(2)
H12A H 0.5215 0.3255 0.9659
C21A C 0.3820(3) 0.1853(3) 0.96551(19)
C22A C 0.2678(3) 0.0339(3) 1.12788(19)
C23A C 0.1269(3) 0.0687(3) 1.1328(2)
H13A H 0.1038 0.1427 1.0848
C24A C 0.3036(3) -0.0790(3) 1.1962(2)
H14A H 0.3992 -0.1016 1.1913
C25A C 0.0203(3) -0.0087(3) 1.2107(2)
H15A H -0.0748 0.0156 1.2167
C26A C 0.1966(3) -0.1574(3) 1.2716(2)
H16A H 0.2197 -0.2343 1.3172
C27A C 0.0543(3) -0.1223(3) 1.27986(19)
C28A C -0.0607(3) -0.2053(3) 1.36344(19)
C28_2 C 0.0607(3) 0.2053(3) 0.63656(19)
C28A_2 C 0.9393(3) 0.7947(3) 0.36344(19)
C29 C 0.9468(3) 0.0531(3) 1.4836(2)
N1 N 0.7982(3) -0.0073(2) 1.52482(19)
H17 H 0.7729 -0.0406 1.4817
H18 H 0.7381 0.0558 1.5363
H19 H 0.7944 -0.0732 1.5813
C29A C 1.0532(3) -0.0531(3) 1.5164(2)
N1A N 1.2018(3) 0.0073(2) 1.47518(19)
H17A H 1.2271 0.0406 1.5183
H18A H 1.2619 -0.0558 1.4637
H19A H 1.2056 0.0732 1.4187
loop_
_geom_bond_atom_site_label_1
_geom_bond_atom_site_label_2
_geom_bond_site_symmetry_1
_geom_bond_site_symmetry_2
Yb1 O1 1_555 1_555
O1 C1 1_555 1_555
O2 C1 1_555 1_555
O3 C7 1_555 1_555
O4 C14 1_555 1_555
O5 C14 1_555 1_555
O6 Yb1 1_555 1_555
O7 C15 1_555 1_555
O8 C21 1_555 1_555
O9 C28 1_555 1_555
O10 C28 1_555 1_555
O11 Yb1 1_555 1_555
C1 C2 1_555 1_555
C2 C3 1_555 1_555
C3 H1 1_555 1_555
C4 C2 1_555 1_555
H2 C4 1_555 1_555
C5 C3 1_555 1_555
H3 C5 1_555 1_555
C6 C4 1_555 1_555
H4 C6 1_555 1_555
C7 C5 1_555 1_555
C8 O3 1_555 1_555
C9 C8 1_555 1_555
H5 C9 1_555 1_555
C10 C8 1_555 1_555
H6 C10 1_555 1_555
C11 C9 1_555 1_555
H7 C11 1_555 1_555
C12 C10 1_555 1_555
H8 C12 1_555 1_555
C13 C11 1_555 1_555
C14 C13 1_555 1_555
C15 O6 1_555 1_555
C16 C15 1_555 1_555
C17 C16 1_555 1_555
H9 C17 1_555 1_555
C18 C16 1_555 1_555
H10 C18 1_555 1_555
C19 C17 1_555 1_555
H11 C19 1_555 1_555
C20 C18 1_555 1_555
H12 C20 1_555 1_555
C21 C19 1_555 1_555
C22 O8 1_555 1_555
C23 C22 1_555 1_555
H13 C23 1_555 1_555
C24 C22 1_555 1_555
H14 C24 1_555 1_555
C25 C23 1_555 1_555
H15 C25 1_555 1_555
C26 C24 1_555 1_555
H16 C26 1_555 1_555
C27 C25 1_555 1_555
C28 C27 1_555 1_555
C29 N1 1_555 1_555
N1 H17 1_555 1_555
H18 N1 1_555 1_555
H19 N1 1_555 1_555
Yb1A O7 1_555 1_555
Yb1_2 O9A 1_555 1_555
Yb1_3 O5A 1_555 1_555
Yb1A_2 O5 1_555 1_555
Yb1A_3 O9 1_555 1_555
O1A Yb1A 1_555 1_555
O2A C1A 1_555 1_555
O3A C7A 1_555 1_555
O4A C14A 1_555 1_555
O5A C14A 1_555 1_555
O5_2 Yb1A 1_555 1_555
O5A_2 Yb1 1_555 1_555
O6A Yb1A 1_555 1_555
O7A Yb1 1_555 1_555
O8A C21A 1_555 1_555
O9A C28A 1_555 1_555
O9_2 Yb1A 1_555 1_555
O9A_2 Yb1 1_555 1_555
O10A Yb1_2 1_555 1_555
O10_2 Yb1A 1_555 1_555
O10A_2 Yb1 1_555 1_555
O11A Yb1A 1_555 1_555
C1A O1A 1_555 1_555
C2A C1A 1_555 1_555
C3A C2A 1_555 1_555
H1A C3A 1_555 1_555
C4A C2A 1_555 1_555
H2A C4A 1_555 1_555
C5A C3A 1_555 1_555
H3A C5A 1_555 1_555
C6A C4A 1_555 1_555
H4A C6A 1_555 1_555
C7A C5A 1_555 1_555
C8A O3A 1_555 1_555
C9A C8A 1_555 1_555
H5A C9A 1_555 1_555
C10A C8A 1_555 1_555
H6A C10A 1_555 1_555
C11A C9A 1_555 1_555
H7A C11A 1_555 1_555
C12A C10A 1_555 1_555
H8A C12A 1_555 1_555
C13A C11A 1_555 1_555
C14A C13A 1_555 1_555
C15A O6A 1_555 1_555
C16A C15A 1_555 1_555
C17A C16A 1_555 1_555
H9A C17A 1_555 1_555
C18A C16A 1_555 1_555
H10A C18A 1_555 1_555
C19A C17A 1_555 1_555
H11A C19A 1_555 1_555
C20A C18A 1_555 1_555
H12A C20A 1_555 1_555
C21A C19A 1_555 1_555
C22A O8A 1_555 1_555
C23A C22A 1_555 1_555
H13A C23A 1_555 1_555
C24A C22A 1_555 1_555
H14A C24A 1_555 1_555
C25A C23A 1_555 1_555
H15A C25A 1_555 1_555
C26A C24A 1_555 1_555
H16A C26A 1_555 1_555
C27A C25A 1_555 1_555
C28A O10A 1_555 1_555
C28_2 O9_2 1_555 1_555
C28A_2 O9A_2 1_555 1_555
C29A C29 1_555 1_555
N1A C29A 1_555 1_555
H17A N1A 1_555 1_555
H18A N1A 1_555 1_555
H19A N1A 1_555 1_555
O10 Yb1A_3 1_555 1_555
C6 C7 1_555 1_555
C12 C13 1_555 1_555
C20 C21 1_555 1_555
C26 C27 1_555 1_555
O7A C15A 1_555 1_555
O10_2 C28_2 1_555 1_555
O10A_2 C28A_2 1_555 1_555
C6A C7A 1_555 1_555
C12A C13A 1_555 1_555
C20A C21A 1_555 1_555
C26A C27A 1_555 1_555
C27A C28A 1_555 1_555

#END
