
#######################################################################
#
#                 Cambridge Crystallographic Data Centre
#                                CCDC 
#
#######################################################################
#
# If this CIF has been generated from an entry in the Cambridge 
# Structural Database, then it will include bibliographic, chemical, 
# crystal, experimental, refinement or atomic coordinate data resulting 
# from the CCDC's data processing and validation procedures.
#
#######################################################################

data_TAPXEP
_symmetry_cell_setting           orthorhombic
_symmetry_space_group_name_H-M   'P b c a'
_symmetry_Int_Tables_number      61
_space_group_name_Hall           '-P 2ac 2ab'
loop_
_symmetry_equiv_pos_site_id
_symmetry_equiv_pos_as_xyz
1 x,y,z
2 1/2-x,-y,1/2+z
3 -x,1/2+y,1/2-z
4 1/2+x,1/2-y,-z
5 -x,-y,-z
6 1/2+x,y,1/2-z
7 x,1/2-y,1/2+z
8 1/2-x,1/2+y,z
_cell_length_a                   9.9772(6)
_cell_length_b                   19.1646(12)
_cell_length_c                   28.2445(18)
_cell_angle_alpha                90
_cell_angle_beta                 90
_cell_angle_gamma                90
_cell_volume                     5400.6
loop_
_atom_site_label
_atom_site_type_symbol
_atom_site_fract_x
_atom_site_fract_y
_atom_site_fract_z
Yb1 Yb 0.085684(15) 0.115738(8) 0.495599(5)
O1 O 0.2415(3) 0.15200(14) 0.55485(9)
O2 O 0.0542(3) 0.21091(14) 0.54831(9)
O3 O 0.2939(3) 0.35389(15) 0.73277(9)
O4 O 0.2250(3) 0.20092(13) 0.93077(9)
O5 O 0.1957(3) 0.31096(14) 0.95185(9)
O6 O 0.0250(3) 0.06362(13) 0.42752(9)
O7 O -0.0038(3) -0.04472(14) 0.45255(8)
O8 O -0.0345(4) -0.10577(14) 0.23494(10)
O9 O 0.2031(3) 0.05993(16) 0.05997(10)
O10 O -0.0128(3) 0.06429(18) 0.04352(12)
O11 O -0.1339(3) 0.15280(15) 0.48671(9)
H1 H -0.1481 0.1886 0.5042
H2 H -0.1474 0.1651 0.4577
O12 O 0.2500(3) 0.03421(15) 0.48783(9)
H3 H 0.3142 0.0434 0.5068
H4 H 0.2185 -0.0062 0.4951
C1 C 0.1642(4) 0.19975(19) 0.56959(12)
C2 C 0.2002(4) 0.24063(19) 0.61241(12)
C3 C 0.1121(4) 0.2894(2) 0.63018(14)
H5 H 0.0317 0.2980 0.6146
C4 C 0.3193(4) 0.2282(3) 0.63603(15)
H6 H 0.3789 0.1949 0.6245
C5 C 0.1429(5) 0.3254(2) 0.67105(14)
H7 H 0.0829 0.3580 0.6832
C6 C 0.3500(5) 0.2650(3) 0.67651(16)
H8 H 0.4306 0.2571 0.6921
C7 C 0.2616(4) 0.3132(2) 0.69353(12)
C8 C 0.2710(4) 0.32824(19) 0.77770(12)
C9 C 0.2844(4) 0.37636(18) 0.81381(14)
H9 H 0.3060 0.4224 0.8068
C10 C 0.2385(5) 0.2598(2) 0.78769(13)
H10 H 0.2273 0.2276 0.7634
C11 C 0.2659(4) 0.35616(18) 0.85998(13)
H11 H 0.2735 0.3889 0.8841
C12 C 0.2227(4) 0.23971(19) 0.83443(13)
H12 H 0.2028 0.1934 0.8414
C13 C 0.2360(4) 0.28753(18) 0.87098(11)
C14 C 0.2184(3) 0.26418(18) 0.92121(12)
C15 C 0.0119(3) -0.00061(17) 0.41978(12)
C16 C 0.0123(3) -0.02625(18) 0.37022(11)
C17 C -0.0016(4) 0.02020(19) 0.33264(12)
H13 H -0.0032 0.0680 0.3383
C18 C 0.0189(4) -0.09728(19) 0.36104(13)
H14 H 0.0313 -0.1284 0.3859
C19 C -0.0130(4) -0.00491(18) 0.28656(13)
H15 H -0.0223 0.0259 0.2613
C20 C 0.0074(4) -0.12241(18) 0.31541(13)
H16 H 0.0116 -0.1701 0.3095
C21 C -0.0105(4) -0.07578(19) 0.27867(12)
C22 C -0.0035(4) -0.06709(19) 0.19451(12)
C23 C 0.1239(5) -0.0437(3) 0.18684(15)
H17 H 0.1907 -0.0514 0.2092
C24 C -0.1046(4) -0.05688(19) 0.16230(14)
H18 H -0.1906 -0.0734 0.1682
C25 C 0.1523(4) -0.0085(3) 0.14525(14)
H19 H 0.2389 0.0074 0.1396
C26 C -0.0756(4) -0.0215(2) 0.12078(14)
H20 H -0.1429 -0.0144 0.0985
C27 C 0.0525(4) 0.00340(19) 0.11201(12)
C28 C 0.0841(4) 0.0455(2) 0.06881(13)
Yb1D Yb -0.085684(15) -0.115738(8) 0.504401(5)
Yb1B Yb -0.085684(15) -0.384262(8) 0.004401(5)
Yb1F Yb 0.085684(15) 0.384262(8) 0.995599(5)
O1D O -0.2415(3) -0.15200(14) 0.44515(9)
O2D O -0.0542(3) -0.21091(14) 0.45169(9)
O3D O -0.2939(3) -0.35389(15) 0.26723(9)
O4D O -0.2250(3) -0.20092(13) 0.06923(9)
O5D O -0.1957(3) -0.31096(14) 0.04815(9)
O5B O -0.1957(3) -0.18904(14) 0.54815(9)
O5F O 0.1957(3) 0.18904(14) 0.45185(9)
O6D O -0.0250(3) -0.06362(13) 0.57248(9)
O7D O 0.0038(3) 0.04472(14) 0.54745(8)
O8D O 0.0345(4) 0.10577(14) 0.76506(10)
O9D O -0.2031(3) -0.05993(16) 0.94003(10)
O10D O 0.0128(3) -0.06429(18) 0.95648(12)
O11D O 0.1339(3) -0.15280(15) 0.51329(9)
H1D H 0.1481 -0.1886 0.4958
H2D H 0.1474 -0.1651 0.5423
O12D O -0.2500(3) -0.03421(15) 0.51217(9)
H3D H -0.3142 -0.0434 0.4932
H4D H -0.2185 0.0062 0.5049
C1D C -0.1642(4) -0.19975(19) 0.43041(12)
C2D C -0.2002(4) -0.24063(19) 0.38759(12)
C3D C -0.1121(4) -0.2894(2) 0.36982(14)
H5D H -0.0317 -0.2980 0.3854
C4D C -0.3193(4) -0.2282(3) 0.36397(15)
H6D H -0.3789 -0.1949 0.3755
C5D C -0.1429(5) -0.3254(2) 0.32895(14)
H7D H -0.0829 -0.3580 0.3168
C6D C -0.3500(5) -0.2650(3) 0.32349(16)
H8D H -0.4306 -0.2571 0.3079
C7D C -0.2616(4) -0.3132(2) 0.30647(12)
C8D C -0.2710(4) -0.32824(19) 0.22230(12)
C9D C -0.2844(4) -0.37636(18) 0.18619(14)
H9D H -0.3060 -0.4224 0.1932
C10D C -0.2385(5) -0.2598(2) 0.21231(13)
H10D H -0.2273 -0.2276 0.2366
C11D C -0.2659(4) -0.35616(18) 0.14002(13)
H11D H -0.2735 -0.3889 0.1159
C12D C -0.2227(4) -0.23971(19) 0.16557(13)
H12D H -0.2028 -0.1934 0.1586
C13D C -0.2360(4) -0.28753(18) 0.12902(11)
C14D C -0.2184(3) -0.26418(18) 0.07879(12)
C15D C -0.0119(3) 0.00061(17) 0.58022(12)
C16D C -0.0123(3) 0.02625(18) 0.62978(11)
C17D C 0.0016(4) -0.02020(19) 0.66736(12)
H13D H 0.0032 -0.0680 0.6617
C18D C -0.0189(4) 0.09728(19) 0.63896(13)
H14D H -0.0313 0.1284 0.6141
C19D C 0.0130(4) 0.00491(18) 0.71344(13)
H15D H 0.0223 -0.0259 0.7387
C20D C -0.0074(4) 0.12241(18) 0.68459(13)
H16D H -0.0116 0.1701 0.6905
C21D C 0.0105(4) 0.07578(19) 0.72133(12)
C22D C 0.0035(4) 0.06709(19) 0.80549(12)
C23D C -0.1239(5) 0.0437(3) 0.81316(15)
H17D H -0.1907 0.0514 0.7908
C24D C 0.1046(4) 0.05688(19) 0.83770(14)
H18D H 0.1906 0.0734 0.8318
C25D C -0.1523(4) 0.0085(3) 0.85475(14)
H19D H -0.2389 -0.0074 0.8604
C26D C 0.0756(4) 0.0215(2) 0.87922(14)
H20D H 0.1429 0.0144 0.9015
C27D C -0.0525(4) -0.00340(19) 0.88799(12)
C28D C -0.0841(4) -0.0455(2) 0.93119(13)
N1 N -0.0032(4) 0.17360(18) 0.98614(13)
H21 H 0.0117 0.1250 0.9973
H22 H 0.0150 0.2043 1.0056
H23 H 0.0707 0.1782 0.9617
H24 H -0.0855 0.1552 0.9813
loop_
_geom_bond_atom_site_label_1
_geom_bond_atom_site_label_2
_geom_bond_site_symmetry_1
_geom_bond_site_symmetry_2
Yb1 O1 1_555 1_555
O1 C1 1_555 1_555
O2 Yb1 1_555 1_555
O3 C7 1_555 1_555
O4 C14 1_555 1_555
O5 C14 1_555 1_555
O6 Yb1 1_555 1_555
O7 C15 1_555 1_555
O8 C21 1_555 1_555
O9 C28 1_555 1_555
O10 C28 1_555 1_555
O11 Yb1 1_555 1_555
H1 O11 1_555 1_555
H2 O11 1_555 1_555
O12 Yb1 1_555 1_555
H3 O12 1_555 1_555
H4 O12 1_555 1_555
C1 O2 1_555 1_555
C2 C1 1_555 1_555
C3 C2 1_555 1_555
H5 C3 1_555 1_555
C4 C2 1_555 1_555
H6 C4 1_555 1_555
C5 C3 1_555 1_555
H7 C5 1_555 1_555
C6 C4 1_555 1_555
H8 C6 1_555 1_555
C7 C5 1_555 1_555
C8 O3 1_555 1_555
C9 C8 1_555 1_555
H9 C9 1_555 1_555
C10 C8 1_555 1_555
H10 C10 1_555 1_555
C11 C9 1_555 1_555
H11 C11 1_555 1_555
C12 C10 1_555 1_555
H12 C12 1_555 1_555
C13 C11 1_555 1_555
C14 C13 1_555 1_555
C15 O6 1_555 1_555
C16 C15 1_555 1_555
C17 C16 1_555 1_555
H13 C17 1_555 1_555
C18 C16 1_555 1_555
H14 C18 1_555 1_555
C19 C17 1_555 1_555
H15 C19 1_555 1_555
C20 C18 1_555 1_555
H16 C20 1_555 1_555
C21 C19 1_555 1_555
C22 O8 1_555 1_555
C23 C22 1_555 1_555
H17 C23 1_555 1_555
C24 C22 1_555 1_555
H18 C24 1_555 1_555
C25 C23 1_555 1_555
H19 C25 1_555 1_555
C26 C24 1_555 1_555
H20 C26 1_555 1_555
C27 C25 1_555 1_555
C28 C27 1_555 1_555
N1 H21 1_555 1_555
H22 N1 1_555 1_555
H23 N1 1_555 1_555
H24 N1 1_555 1_555
Yb1D O7 1_555 1_555
Yb1B O5D 1_555 1_555
Yb1F O5 1_555 1_555
O1D Yb1D 1_555 1_555
O2D Yb1D 1_555 1_555
O3D C7D 1_555 1_555
O4D C14D 1_555 1_555
O5D C14D 1_555 1_555
O5B Yb1D 1_555 1_555
O5F Yb1 1_555 1_555
O6D Yb1D 1_555 1_555
O7D Yb1 1_555 1_555
O8D C21D 1_555 1_555
O9D C28D 1_555 1_555
O10D C28D 1_555 1_555
O11D Yb1D 1_555 1_555
H1D O11D 1_555 1_555
H2D O11D 1_555 1_555
O12D Yb1D 1_555 1_555
H3D O12D 1_555 1_555
H4D O12D 1_555 1_555
C1D O1D 1_555 1_555
C2D C1D 1_555 1_555
C3D C2D 1_555 1_555
H5D C3D 1_555 1_555
C4D C2D 1_555 1_555
H6D C4D 1_555 1_555
C5D C3D 1_555 1_555
H7D C5D 1_555 1_555
C6D C4D 1_555 1_555
H8D C6D 1_555 1_555
C7D C5D 1_555 1_555
C8D O3D 1_555 1_555
C9D C8D 1_555 1_555
H9D C9D 1_555 1_555
C10D C8D 1_555 1_555
H10D C10D 1_555 1_555
C11D C9D 1_555 1_555
H11D C11D 1_555 1_555
C12D C10D 1_555 1_555
H12D C12D 1_555 1_555
C13D C11D 1_555 1_555
C14D C13D 1_555 1_555
C15D O6D 1_555 1_555
C16D C15D 1_555 1_555
C17D C16D 1_555 1_555
H13D C17D 1_555 1_555
C18D C16D 1_555 1_555
H14D C18D 1_555 1_555
C19D C17D 1_555 1_555
H15D C19D 1_555 1_555
C20D C18D 1_555 1_555
H16D C20D 1_555 1_555
C21D C19D 1_555 1_555
C22D O8D 1_555 1_555
C23D C22D 1_555 1_555
H17D C23D 1_555 1_555
C24D C22D 1_555 1_555
H18D C24D 1_555 1_555
C25D C23D 1_555 1_555
H19D C25D 1_555 1_555
C26D C24D 1_555 1_555
H20D C26D 1_555 1_555
C27D C25D 1_555 1_555
C28D C27D 1_555 1_555
C6 C7 1_555 1_555
C12 C13 1_555 1_555
C20 C21 1_555 1_555
C26 C27 1_555 1_555
O2D C1D 1_555 1_555
O7D C15D 1_555 1_555
C6D C7D 1_555 1_555
C12D C13D 1_555 1_555
C20D C21D 1_555 1_555
C26D C27D 1_555 1_555

#END
