
#######################################################################
#
#                 Cambridge Crystallographic Data Centre
#                                CCDC 
#
#######################################################################
#
# If this CIF has been generated from an entry in the Cambridge 
# Structural Database, then it will include bibliographic, chemical, 
# crystal, experimental, refinement or atomic coordinate data resulting 
# from the CCDC's data processing and validation procedures.
#
#######################################################################

data_TAPYEQ
_symmetry_cell_setting           monoclinic
_symmetry_space_group_name_H-M   'P 21/c'
_symmetry_Int_Tables_number      14
_space_group_name_Hall           '-P 2ybc'
loop_
_symmetry_equiv_pos_site_id
_symmetry_equiv_pos_as_xyz
1 x,y,z
2 -x,1/2+y,1/2-z
3 -x,-y,-z
4 x,1/2-y,1/2+z
_cell_length_a                   14.988(3)
_cell_length_b                   12.305(3)
_cell_length_c                   13.071(3)
_cell_angle_alpha                90
_cell_angle_beta                 92.45(3)
_cell_angle_gamma                90
_cell_volume                     2408.45
loop_
_atom_site_label
_atom_site_type_symbol
_atom_site_fract_x
_atom_site_fract_y
_atom_site_fract_z
Ag1 Ag 0.519780(12) 0.384067(14) -0.444845(13)
O1 O 0.40353(11) 0.35349(17) 0.07611(12)
O2 O 0.26682(10) 0.37587(12) 0.00239(11)
O3 O -0.33300(10) 0.36406(14) 0.04541(12)
O4 O -0.20276(10) 0.34970(14) 0.13611(11)
N1 N 0.46273(12) 0.39656(14) -0.29554(14)
N2 N -0.41885(12) 0.35338(15) 0.41128(14)
C1 C 0.37457(15) 0.37958(17) -0.28579(17)
H1 H 0.3373 0.3727 -0.3461
C2 C 0.33636(15) 0.37185(17) -0.19244(17)
H2 H 0.2740 0.3598 -0.1886
C3 C 0.39028(14) 0.38197(16) -0.10356(17)
C4 C 0.48107(14) 0.40147(16) -0.11277(17)
H3 H 0.5194 0.4097 -0.0535
C5 C 0.51458(14) 0.40869(17) -0.20932(16)
H4 H 0.5765 0.4227 -0.2153
C6 C 0.35556(14) 0.36901(17) 0.00104(17)
C7 C 0.23093(15) 0.3600(2) 0.10429(16)
H5 H 0.2528 0.4182 0.1513
H6 H 0.2509 0.2891 0.1329
C8 C 0.13078(14) 0.36323(17) 0.09352(15)
C9 C 0.08198(14) 0.44731(17) 0.13892(15)
C10 C 0.12341(15) 0.53290(19) 0.19846(16)
H7 H 0.1864 0.5324 0.2103
C11 C 0.07492(18) 0.61462(19) 0.23829(19)
H8 H 0.1042 0.6703 0.2773
C12 C -0.01937(18) 0.61748(19) 0.22205(19)
H9 H -0.0529 0.6752 0.2496
C13 C -0.06158(16) 0.53769(19) 0.16717(17)
H10 H -0.1247 0.5404 0.1573
C14 C -0.01370(14) 0.44956(17) 0.12374(15)
C15 C -0.05759(14) 0.36704(18) 0.06604(16)
C16 C -0.00933(14) 0.28049(18) 0.02595(16)
C17 C -0.05106(17) 0.1917(2) -0.02880(18)
H11 H -0.1144 0.1887 -0.0352
C18 C -0.0027(2) 0.1120(2) -0.0717(2)
H12 H -0.0322 0.0551 -0.1087
C19 C 0.0916(2) 0.1132(2) -0.0618(2)
H13 H 0.1251 0.0578 -0.0931
C20 C 0.13445(16) 0.19317(19) -0.00779(18)
H14 H 0.1978 0.1918 -0.0005
C21 C 0.08640(14) 0.27956(17) 0.03840(16)
C22 C -0.15643(14) 0.37649(19) 0.04321(17)
H15 H -0.1716 0.4514 0.0210
H16 H -0.1750 0.3260 -0.0126
C23 C -0.29175(14) 0.35242(17) 0.12578(16)
C24 C -0.33413(14) 0.34557(17) 0.22670(16)
C25 C -0.42659(14) 0.34271(17) 0.22878(16)
H17 H -0.4621 0.3385 0.1670
C26 C -0.46603(14) 0.34609(17) 0.32214(16)
H18 H -0.5293 0.3431 0.3233
C27 C -0.32918(15) 0.3551(2) 0.40909(17)
H19 H -0.2953 0.3598 0.4720
C28 C -0.28458(14) 0.3502(2) 0.31925(17)
H20 H -0.2212 0.3501 0.3204
Ag1_2 Ag -0.480220(12) 0.384067(14) 0.555155(13)
N2_2 N 0.58115(12) 0.35338(15) -0.58872(14)
O5 O 0.31882(13) 0.54336(16) -0.64160(15)
O6 O 0.35400(13) 0.42099(19) -0.52731(14)
O7 O 0.29251(17) 0.37420(17) -0.67182(15)
N3 N 0.32150(12) 0.44595(18) -0.61439(14)
loop_
_geom_bond_atom_site_label_1
_geom_bond_atom_site_label_2
_geom_bond_site_symmetry_1
_geom_bond_site_symmetry_2
Ag1 N1 1_555 1_555
O1 C6 1_555 1_555
O2 C6 1_555 1_555
O3 C23 1_555 1_555
O4 C22 1_555 1_555
N1 C1 1_555 1_555
N2 C26 1_555 1_555
C1 H1 1_555 1_555
C2 C1 1_555 1_555
H2 C2 1_555 1_555
C3 C2 1_555 1_555
C4 C3 1_555 1_555
H3 C4 1_555 1_555
C5 N1 1_555 1_555
H4 C5 1_555 1_555
C6 C3 1_555 1_555
C7 O2 1_555 1_555
H5 C7 1_555 1_555
H6 C7 1_555 1_555
C8 C7 1_555 1_555
C9 C8 1_555 1_555
C10 C9 1_555 1_555
H7 C10 1_555 1_555
C11 C10 1_555 1_555
H8 C11 1_555 1_555
C12 C11 1_555 1_555
H9 C12 1_555 1_555
C13 C12 1_555 1_555
H10 C13 1_555 1_555
C14 C9 1_555 1_555
C15 C14 1_555 1_555
C16 C15 1_555 1_555
C17 C16 1_555 1_555
H11 C17 1_555 1_555
C18 C17 1_555 1_555
H12 C18 1_555 1_555
C19 C18 1_555 1_555
H13 C19 1_555 1_555
C20 C19 1_555 1_555
H14 C20 1_555 1_555
C21 C8 1_555 1_555
C22 C15 1_555 1_555
H15 C22 1_555 1_555
H16 C22 1_555 1_555
C23 O4 1_555 1_555
C24 C23 1_555 1_555
C25 C24 1_555 1_555
H17 C25 1_555 1_555
C26 C25 1_555 1_555
H18 C26 1_555 1_555
C27 N2 1_555 1_555
H19 C27 1_555 1_555
C28 C24 1_555 1_555
H20 C28 1_555 1_555
O5 N3 1_555 1_555
O6 N3 1_555 1_555
O7 N3 1_555 1_555
Ag1_2 N2 1_555 1_555
N2_2 Ag1 1_555 1_555
C4 C5 1_555 1_555
C13 C14 1_555 1_555
C16 C21 1_555 1_555
C20 C21 1_555 1_555
C27 C28 1_555 1_555

#END
