
#######################################################################
#
#                 Cambridge Crystallographic Data Centre
#                                CCDC 
#
#######################################################################
#
# If this CIF has been generated from an entry in the Cambridge 
# Structural Database, then it will include bibliographic, chemical, 
# crystal, experimental, refinement or atomic coordinate data resulting 
# from the CCDC's data processing and validation procedures.
#
#######################################################################

data_TAQFUN01
_symmetry_cell_setting           triclinic
_symmetry_space_group_name_H-M   'P -1'
_symmetry_Int_Tables_number      2
_space_group_name_Hall           '-P 1'
loop_
_symmetry_equiv_pos_site_id
_symmetry_equiv_pos_as_xyz
1 x,y,z
2 -x,-y,-z
_cell_length_a                   4.1823(7)
_cell_length_b                   9.2088(15)
_cell_length_c                   9.7104(16)
_cell_angle_alpha                107.052(3)
_cell_angle_beta                 101.884(3)
_cell_angle_gamma                90.844(3)
_cell_volume                     348.752
loop_
_atom_site_label
_atom_site_type_symbol
_atom_site_fract_x
_atom_site_fract_y
_atom_site_fract_z
Tl1 Tl 0.18924(6) 0.35422(3) 0.32777(3)
O1 O 0.2827(12) 0.4530(6) 0.6154(6)
F1 F -0.2413(11) 0.0039(5) 0.6357(6)
F2 F 0.7061(10) 0.4677(5) 0.8777(5)
F3 F -0.1928(10) 0.2130(5) 0.4992(5)
F4 F 0.6490(12) 0.2578(6) 1.0144(5)
F5 F 0.1796(13) 0.0215(6) 0.8939(6)
C1 C 0.2605(16) 0.3493(8) 0.6823(8)
C2 C -0.0040(17) 0.1188(8) 0.6953(8)
C3 C 0.4396(18) 0.2471(9) 0.8865(8)
C4 C 0.2073(18) 0.1275(9) 0.8262(9)
C5 C 0.4668(15) 0.3549(8) 0.8162(8)
C6 C 0.0230(15) 0.2263(8) 0.6264(8)
Tl1A Tl -0.18924(6) 0.64578(3) 0.67223(3)
Tl1A_2 Tl 0.81076(6) 0.64578(3) 0.67223(3)
O1A O -0.2827(12) 0.5470(6) 0.3846(6)
O1A_2 O 0.7173(12) 0.5470(6) 0.3846(6)
loop_
_geom_bond_atom_site_label_1
_geom_bond_atom_site_label_2
_geom_bond_site_symmetry_1
_geom_bond_site_symmetry_2
Tl1 O1 1_555 1_555
O1 C1 1_555 1_555
F1 C2 1_555 1_555
F2 C5 1_555 1_555
F3 C6 1_555 1_555
F4 C3 1_555 1_555
F5 C4 1_555 1_555
C1 C5 1_555 1_555
C2 C4 1_555 1_555
C3 C4 1_555 1_555
C5 C3 1_555 1_555
C6 C1 1_555 1_555
Tl1A O1 1_555 1_555
Tl1A_2 O1 1_555 1_555
O1A Tl1 1_555 1_555
O1A_2 Tl1 1_555 1_555
C2 C6 1_555 1_555
Tl1A O1A 1_555 1_555
Tl1A_2 O1A_2 1_555 1_555

#END
