
#######################################################################
#
#                 Cambridge Crystallographic Data Centre
#                                CCDC 
#
#######################################################################
#
# If this CIF has been generated from an entry in the Cambridge 
# Structural Database, then it will include bibliographic, chemical, 
# crystal, experimental, refinement or atomic coordinate data resulting 
# from the CCDC's data processing and validation procedures.
#
#######################################################################

data_TAQJEB
_symmetry_cell_setting           monoclinic
_symmetry_space_group_name_H-M   'P 21'
_symmetry_Int_Tables_number      4
_space_group_name_Hall           'P 2yb'
loop_
_symmetry_equiv_pos_site_id
_symmetry_equiv_pos_as_xyz
1 x,y,z
2 -x,1/2+y,-z
_cell_length_a                   12.7387(3)
_cell_length_b                   9.8238(3)
_cell_length_c                   14.4844(4)
_cell_angle_alpha                90
_cell_angle_beta                 101.3780(10)
_cell_angle_gamma                90
_cell_volume                     1776.99
loop_
_atom_site_label
_atom_site_type_symbol
_atom_site_fract_x
_atom_site_fract_y
_atom_site_fract_z
Cu1 Cu -0.26297(2) -0.04404(4) -0.08557(2)
O1 O -0.12061(17) 0.0446(2) -0.08073(16)
H1 H -0.128(2) 0.1300(19) -0.085(2)
H2 H -0.103(3) 0.009(4) -0.1286(18)
N1 N -0.40867(19) -0.1353(3) -0.09514(16)
C1 C -0.4061(2) -0.2250(3) -0.01179(19)
H3 H -0.3800 -0.3167 -0.0246
H4 H -0.4790 -0.2343 0.0016
C2 C -0.3317(2) -0.1620(3) 0.0723(2)
H5 H -0.3637 -0.0773 0.0914
H6 H -0.3208 -0.2259 0.1262
N2 N -0.22821(19) -0.1314(3) 0.04597(16)
S1 S -0.14195(6) -0.24512(7) 0.07237(5)
O2 O -0.05398(15) -0.2193(2) 0.02385(13)
O3 O -0.18451(17) -0.3823(2) 0.06091(14)
C3 C -0.0870(2) -0.2300(3) 0.19485(19)
C4 C -0.0685(2) -0.1021(3) 0.2359(2)
H7 H -0.0875 -0.0221 0.1997
C5 C -0.0215(3) -0.0934(4) 0.3311(2)
H8 H -0.0079 -0.0063 0.3595
C6 C 0.0058(2) -0.2087(4) 0.3852(2)
C7 C -0.0130(3) -0.3337(4) 0.3423(2)
H9 H 0.0059 -0.4137 0.3786
C8 C -0.0589(2) -0.3461(3) 0.2479(2)
H10 H -0.0709 -0.4336 0.2197
C9 C 0.0538(3) -0.1989(5) 0.4891(2)
H11 H 0.0610 -0.1029 0.5078
H12 H 0.1246 -0.2420 0.5017
H13 H 0.0070 -0.2453 0.5253
C10 C -0.4317(2) -0.2156(3) -0.1839(2)
H14 H -0.4601 -0.1545 -0.2374
H15 H -0.4869 -0.2850 -0.1798
C11 C -0.3311(2) -0.2850(3) -0.2010(2)
H16 H -0.3075 -0.3555 -0.1526
H17 H -0.3446 -0.3290 -0.2638
N3 N -0.24848(19) -0.1789(2) -0.19609(16)
S2 S -0.14874(6) -0.21836(8) -0.23734(5)
O4 O -0.07454(16) -0.1038(2) -0.22157(14)
O5 O -0.10294(17) -0.3504(2) -0.20842(14)
C12 C -0.1915(2) -0.2329(3) -0.36124(19)
C13 C -0.2143(3) -0.3582(4) -0.4037(2)
H18 H -0.2055 -0.4391 -0.3670
C14 C -0.2499(3) -0.3650(4) -0.4998(2)
H19 H -0.2664 -0.4515 -0.5283
C15 C -0.2626(2) -0.2509(4) -0.5559(2)
C16 C -0.2387(3) -0.1268(4) -0.5120(2)
H20 H -0.2464 -0.0463 -0.5491
C17 C -0.2042(3) -0.1164(4) -0.4159(2)
H21 H -0.1891 -0.0297 -0.3874
C18 C -0.3002(3) -0.2624(5) -0.6614(2)
H22 H -0.3038 -0.1714 -0.6896
H23 H -0.3713 -0.3044 -0.6751
H24 H -0.2498 -0.3187 -0.6877
C19 C -0.4897(2) -0.0260(3) -0.0975(2)
H25 H -0.4897 0.0056 -0.0326
H26 H -0.5618 -0.0623 -0.1243
C20 C -0.4649(2) 0.0919(3) -0.1565(2)
H27 H -0.4784 0.0658 -0.2238
H28 H -0.5111 0.1706 -0.1492
N4 N -0.35219(19) 0.1279(3) -0.12450(17)
S3 S -0.32408(6) 0.27929(8) -0.14054(5)
O6 O -0.38464(19) 0.3761(2) -0.09700(15)
O7 O -0.20807(16) 0.2938(2) -0.11467(14)
C21 C -0.3613(2) 0.3109(3) -0.2635(2)
C22 C -0.3167(3) 0.2330(4) -0.3255(2)
H29 H -0.2624 0.1685 -0.3021
C23 C -0.3519(3) 0.2495(5) -0.4226(3)
H30 H -0.3220 0.1951 -0.4650
C24 C -0.4300(3) 0.3447(4) -0.4572(2)
C25 C -0.4724(3) 0.4227(4) -0.3940(2)
H31 H -0.5258 0.4886 -0.4170
C26 C -0.4383(2) 0.4064(3) -0.2976(2)
H32 H -0.4680 0.4611 -0.2551
C27 C -0.4724(3) 0.3617(6) -0.5625(3)
H33 H -0.5271 0.4332 -0.5729
H34 H -0.5039 0.2757 -0.5889
H35 H -0.4134 0.3872 -0.5934
K1 K 0.07036(5) -0.00081(6) 0.05484(5)
O2A O 0.05398(15) 0.2807(2) -0.02385(13)
O3A O 0.18451(17) 0.1177(2) -0.06091(14)
O5A O 0.10294(17) 0.1496(2) 0.20842(14)
O7A O 0.20807(16) -0.2062(2) 0.11467(14)
K1A K -0.07036(5) -0.50081(6) -0.05484(5)
K1A_2 K -0.07036(5) 0.49919(6) -0.05484(5)
O8 O -0.2730(3) 0.1877(4) 0.1400(4)
C28 C -0.1968(3) 0.3062(5) 0.1677(3)
H36 H -0.1225 0.2812 0.1638
H37 H -0.2190 0.3866 0.1273
C29 C -0.2069(7) 0.3324(7) 0.2670(4)
H38 H -0.1352 0.3373 0.3083
H39 H -0.2443 0.4198 0.2714
C30 C -0.2654(5) 0.2253(9) 0.2946(4)
H40 H -0.2190 0.1728 0.3451
H41 H -0.3258 0.2624 0.3205
C31 C -0.3034(4) 0.1424(5) 0.2225(4)
H42 H -0.3825 0.1391 0.2127
H43 H -0.2757 0.0492 0.2375
loop_
_geom_bond_atom_site_label_1
_geom_bond_atom_site_label_2
_geom_bond_site_symmetry_1
_geom_bond_site_symmetry_2
Cu1 O1 1_555 1_555
O1 H1 1_555 1_555
H2 O1 1_555 1_555
N1 Cu1 1_555 1_555
C1 N1 1_555 1_555
H3 C1 1_555 1_555
H4 C1 1_555 1_555
C2 C1 1_555 1_555
H5 C2 1_555 1_555
H6 C2 1_555 1_555
N2 Cu1 1_555 1_555
S1 N2 1_555 1_555
O2 S1 1_555 1_555
O3 S1 1_555 1_555
C3 S1 1_555 1_555
C4 C3 1_555 1_555
H7 C4 1_555 1_555
C5 C4 1_555 1_555
H8 C5 1_555 1_555
C6 C5 1_555 1_555
C7 C6 1_555 1_555
H9 C7 1_555 1_555
C8 C3 1_555 1_555
H10 C8 1_555 1_555
C9 C6 1_555 1_555
H11 C9 1_555 1_555
H12 C9 1_555 1_555
H13 C9 1_555 1_555
C10 N1 1_555 1_555
H14 C10 1_555 1_555
H15 C10 1_555 1_555
C11 C10 1_555 1_555
H16 C11 1_555 1_555
H17 C11 1_555 1_555
N3 Cu1 1_555 1_555
S2 N3 1_555 1_555
O4 S2 1_555 1_555
O5 S2 1_555 1_555
C12 S2 1_555 1_555
C13 C12 1_555 1_555
H18 C13 1_555 1_555
C14 C13 1_555 1_555
H19 C14 1_555 1_555
C15 C14 1_555 1_555
C16 C15 1_555 1_555
H20 C16 1_555 1_555
C17 C12 1_555 1_555
H21 C17 1_555 1_555
C18 C15 1_555 1_555
H22 C18 1_555 1_555
H23 C18 1_555 1_555
H24 C18 1_555 1_555
C19 N1 1_555 1_555
H25 C19 1_555 1_555
H26 C19 1_555 1_555
C20 C19 1_555 1_555
H27 C20 1_555 1_555
H28 C20 1_555 1_555
N4 Cu1 1_555 1_555
S3 N4 1_555 1_555
O6 S3 1_555 1_555
O7 S3 1_555 1_555
C21 S3 1_555 1_555
C22 C21 1_555 1_555
H29 C22 1_555 1_555
C23 C22 1_555 1_555
H30 C23 1_555 1_555
C24 C23 1_555 1_555
C25 C24 1_555 1_555
H31 C25 1_555 1_555
C26 C21 1_555 1_555
H32 C26 1_555 1_555
C27 C24 1_555 1_555
H33 C27 1_555 1_555
H34 C27 1_555 1_555
H35 C27 1_555 1_555
K1 O1 1_555 1_555
O8 C28 1_555 1_555
C28 H36 1_555 1_555
H37 C28 1_555 1_555
C29 C28 1_555 1_555
H38 C29 1_555 1_555
H39 C29 1_555 1_555
C30 C29 1_555 1_555
H40 C30 1_555 1_555
H41 C30 1_555 1_555
C31 O8 1_555 1_555
H42 C31 1_555 1_555
H43 C31 1_555 1_555
O2A K1 1_555 1_555
O3A K1 1_555 1_555
O5A K1 1_555 1_555
O7A K1 1_555 1_555
K1A O2 1_555 1_555
K1A_2 O7 1_555 1_555
C2 N2 1_555 1_555
O2 K1 1_555 1_555
O3 K1A 1_555 1_555
C7 C8 1_555 1_555
C11 N3 1_555 1_555
O5 K1A 1_555 1_555
C16 C17 1_555 1_555
C20 N4 1_555 1_555
C25 C26 1_555 1_555
C30 C31 1_555 1_555
O2A K1A_2 1_555 1_555

#END
