
#######################################################################
#
#                 Cambridge Crystallographic Data Centre
#                                CCDC 
#
#######################################################################
#
# If this CIF has been generated from an entry in the Cambridge 
# Structural Database, then it will include bibliographic, chemical, 
# crystal, experimental, refinement or atomic coordinate data resulting 
# from the CCDC's data processing and validation procedures.
#
#######################################################################

data_TAQJIE
_symmetry_cell_setting           monoclinic
_symmetry_space_group_name_H-M   'P 21/c'
_symmetry_Int_Tables_number      14
_space_group_name_Hall           '-P 2ybc'
loop_
_symmetry_equiv_pos_site_id
_symmetry_equiv_pos_as_xyz
1 x,y,z
2 -x,1/2+y,1/2-z
3 -x,-y,-z
4 x,1/2-y,1/2+z
_cell_length_a                   15.467(5)
_cell_length_b                   12.639(7)
_cell_length_c                   21.004(5)
_cell_angle_alpha                90
_cell_angle_beta                 118.99(3)
_cell_angle_gamma                90
_cell_volume                     3591.55
loop_
_atom_site_label
_atom_site_type_symbol
_atom_site_fract_x
_atom_site_fract_y
_atom_site_fract_z
Ba1 Ba 0.7547(1) 0.2046(1) 0.71861(9)
I1 I 0.5883(1) 0.2039(2) 0.7794(1)
I2 I 0.9387(2) 0.2209(2) 0.6742(1)
O1 O 0.870(2) 0.070(1) 0.826(1)
C11 C 0.980(3) 0.048(4) 0.856(3)
C12 C 1.022(6) 0.035(6) 0.918(3)
C13 C 1.123(4) 0.034(6) 0.960(2)
O2 O 0.630(1) 0.204(1) 0.5711(8)
C14 C 0.576(2) 0.297(3) 0.526(2)
C15 C 0.647(3) 0.328(3) 0.504(2)
C16 C 0.596(3) 0.446(3) 0.467(2)
N3 N 0.703(2) -0.010(2) 0.674(1)
C17 C 0.778(2) -0.064(2) 0.679(2)
C18 C 0.780(2) -0.176(2) 0.680(2)
C19 C 0.706(2) -0.232(2) 0.680(1)
C20 C 0.628(2) -0.175(2) 0.675(1)
C21 C 0.627(2) -0.063(2) 0.672(1)
N4 N 0.714(2) 0.430(2) 0.695(1)
C22 C 0.773(2) -0.512(2) 0.676(2)
C23 C 0.771(2) -0.408(2) 0.670(2)
C24 C 0.708(2) -0.348(2) 0.688(1)
C25 C 0.648(2) -0.405(2) 0.706(1)
C26 C 1.345(2) 0.514(2) 1.290(2)
N5 N 0.885(2) 0.328(2) 0.849(1)
C27 C 0.947(3) 0.406(3) 0.853(2)
C28 C 0.995(3) 0.474(2) 0.913(2)
C29 C 0.979(2) 0.462(2) 0.972(1)
C30 C 0.919(2) 0.380(3) 0.970(2)
C31 C 0.874(2) 0.315(2) 0.908(2)
H9 H 0.83333 -0.0272 0.6806
H10 H 0.8355 -0.2113 0.6827
H11 H 0.5713 -0.2089 0.6718
H12 H 0.5734 -0.0245 0.6692
H13 H 1.1803 0.5488 1.3330
H14 H 1.1876 0.3741 1.3475
H15 H 0.6028 -0.3613 0.7161
H16 H 1.3856 0.5578 1.2751
H17 H 0.9611 0.4131 0.8133
H18 H 1.0352 0.5296 0.9135
H19 H 0.9089 0.3672 1.0100
H20 H 0.8329 0.2576 0.9073
H21 H 0.8371 0.0320 0.8499
H22 H 1.0102 0.1159 0.8422
H23 H 0.9896 -0.0206 0.8325
H24 H 0.9980 -0.0287 0.9298
H25 H 1.0134 0.1083 0.9401
H26 H 1.1608 0.0830 1.0034
H27 H 1.1478 0.0514 0.9267
H28 H 1.1406 -0.0360 0.9780
H29 H 0.6220 0.1368 0.5458
H30 H 0.5622 0.3631 0.5560
H31 H 0.5023 0.2836 0.4785
H32 H 0.6477 0.2783 0.4644
H33 H 0.7185 0.3394 0.5487
H34 H 0.6077 0.4695 0.4236
H35 H 0.6235 0.4989 0.5048
H36 H 0.5251 0.4405 0.4489
N4_2 N 0.714(2) -0.570(2) 0.695(1)
Ba1_2 Ba 0.7547(1) -0.7954(1) 0.71861(9)
Ba1B Ba 1.2453(1) -0.2046(1) 1.28139(9)
N3B N 1.297(2) 0.010(2) 1.326(1)
C17B C 1.222(2) 0.064(2) 1.321(2)
C18B C 1.220(2) 0.176(2) 1.320(2)
C19B C 1.294(2) 0.232(2) 1.320(1)
C20B C 1.372(2) 0.175(2) 1.325(1)
C21B C 1.373(2) 0.063(2) 1.328(1)
H12B H 1.4266 0.0245 1.3308
H11B H 1.4287 0.2089 1.3282
C24B C 1.292(2) 0.348(2) 1.312(1)
C23B C 1.229(2) 0.408(2) 1.330(2)
C22B C 1.227(2) 0.512(2) 1.324(2)
N4B N 1.286(2) 0.570(2) 1.305(1)
Ba1B_2 Ba 1.2453(1) 0.7954(1) 1.28139(9)
I1B I 1.4117(1) 0.7961(2) 1.2206(1)
I2B I 1.0613(2) 0.7791(2) 1.3258(1)
O1B O 1.130(2) 0.930(1) 1.174(1)
C11B C 1.020(3) 0.952(4) 1.144(3)
C12B C 0.978(6) 0.965(6) 1.082(3)
C13B C 0.877(4) 0.966(6) 1.040(2)
H26B H 0.8392 0.9170 0.9966
H27B H 0.8522 0.9486 1.0733
H28B H 0.8594 1.0360 1.0220
H24B H 1.0020 1.0287 1.0702
H25B H 0.9866 0.8917 1.0599
H22B H 0.9898 0.8841 1.1578
H23B H 1.0104 1.0206 1.1675
H21B H 1.1629 0.9680 1.1501
O2B O 1.370(1) 0.796(1) 1.4289(8)
C14B C 1.424(2) 0.703(3) 1.474(2)
C15B C 1.353(3) 0.672(3) 1.496(2)
C16B C 1.404(3) 0.554(3) 1.533(2)
H34B H 1.3923 0.5305 1.5764
H35B H 1.3765 0.5011 1.4952
H36B H 1.4749 0.5595 1.5511
H32B H 1.3523 0.7217 1.5356
H33B H 1.2815 0.6606 1.4513
H30B H 1.4378 0.6369 1.4440
H31B H 1.4977 0.7164 1.5215
H29B H 1.3780 0.8632 1.4542
N3B_2 N 1.297(2) 1.010(2) 1.326(1)
N5B N 1.115(2) 0.672(2) 1.151(1)
C27B C 1.053(3) 0.594(3) 1.147(2)
C28B C 1.005(3) 0.526(2) 1.087(2)
C29B C 1.021(2) 0.538(2) 1.028(1)
C30B C 1.081(2) 0.620(3) 1.030(2)
C31B C 1.126(2) 0.685(2) 1.092(2)
H20B H 1.1671 0.7424 1.0927
H19B H 1.0911 0.6328 0.9900
H18B H 0.9648 0.4704 1.0865
H17B H 1.0389 0.5869 1.1867
C25B C 1.352(2) 0.405(2) 1.294(1)
H15B H 1.3972 0.3613 1.2839
H10B H 1.1645 0.2113 1.3173
H9B H 1.16667 0.0272 1.3194
C26B C 0.655(2) -0.514(2) 0.710(2)
H13B H 0.8197 -0.5488 0.6670
H14B H 0.8124 -0.3741 0.6525
N1 N 0.210(2) 0.394(2) 0.648(1)
C1 C 0.297(2) 0.396(2) 0.647(1)
C2 C 0.330(2) 0.316(2) 0.622(1)
C3 C 0.281(2) 0.220(2) 0.603(1)
C4 C 0.197(2) 0.212(2) 0.610(2)
C5 C 0.166(2) 0.297(3) 0.632(2)
N2 N 0.378(2) -0.035(2) 0.519(1)
C6 C 0.395(2) 0.065(3) 0.512(2)
C7 C 0.368(2) 0.146(2) 0.539(2)
C8 C 0.319(2) 0.135(2) 0.578(1)
C9 C 0.304(2) 0.031(3) 0.590(2)
C10 C 0.335(2) -0.048(3) 0.560(2)
H1 H 0.3355 0.4591 0.6632
H2 H 0.3888 0.3253 0.6182
H3 H 0.1624 0.1482 0.5994
H4 H 0.1072 0.2927 0.6350
H5 H 0.4304 0.0821 0.4849
H6 H 0.3857 0.2147 0.5311
H7 H 0.2758 0.0122 0.6182
H8 H 0.3218 -0.1202 0.5668
loop_
_geom_bond_atom_site_label_1
_geom_bond_atom_site_label_2
_geom_bond_site_symmetry_1
_geom_bond_site_symmetry_2
N1 C1 1_555 1_555
C1 C2 1_555 1_555
C2 C3 1_555 1_555
C3 C4 1_555 1_555
C4 C5 1_555 1_555
C5 N1 1_555 1_555
N2 C6 1_555 1_555
C6 C7 1_555 1_555
C7 C8 1_555 1_555
C8 C3 1_555 1_555
C9 C8 1_555 1_555
C10 N2 1_555 1_555
H1 C1 1_555 1_555
H2 C2 1_555 1_555
H3 C4 1_555 1_555
H4 C5 1_555 1_555
H5 C6 1_555 1_555
H6 C7 1_555 1_555
H7 C9 1_555 1_555
H8 C10 1_555 1_555
Ba1 I1 1_555 1_555
I2 Ba1 1_555 1_555
O1 Ba1 1_555 1_555
C11 O1 1_555 1_555
C12 C11 1_555 1_555
C13 C12 1_555 1_555
O2 Ba1 1_555 1_555
C14 O2 1_555 1_555
C15 C14 1_555 1_555
C16 C15 1_555 1_555
N3 Ba1 1_555 1_555
C17 N3 1_555 1_555
C18 C17 1_555 1_555
C19 C18 1_555 1_555
C20 C19 1_555 1_555
C21 N3 1_555 1_555
N4 Ba1 1_555 1_555
C22 C23 1_555 1_555
C23 C24 1_555 1_555
C24 C19 1_555 1_555
C25 C24 1_555 1_555
C26 H16 1_555 1_555
N5 Ba1 1_555 1_555
C27 N5 1_555 1_555
C28 C27 1_555 1_555
C29 C28 1_555 1_555
C30 C29 1_555 1_555
C31 N5 1_555 1_555
H9 C17 1_555 1_555
H10 C18 1_555 1_555
H11 C20 1_555 1_555
H12 C21 1_555 1_555
H13 C22B 1_555 1_555
H14 C23B 1_555 1_555
H15 C25 1_555 1_555
H17 C27 1_555 1_555
H18 C28 1_555 1_555
H19 C30 1_555 1_555
H20 C31 1_555 1_555
H21 O1 1_555 1_555
H22 C11 1_555 1_555
H23 C11 1_555 1_555
H24 C12 1_555 1_555
H25 C12 1_555 1_555
H26 C13 1_555 1_555
H27 C13 1_555 1_555
H28 C13 1_555 1_555
H29 O2 1_555 1_555
H30 C14 1_555 1_555
H31 C14 1_555 1_555
H32 C15 1_555 1_555
H33 C15 1_555 1_555
H34 C16 1_555 1_555
H35 C16 1_555 1_555
H36 C16 1_555 1_555
N4_2 C22 1_555 1_555
Ba1_2 N4_2 1_555 1_555
Ba1B N3B 1_555 1_555
N3B C17B 1_555 1_555
C17B C18B 1_555 1_555
C18B C19B 1_555 1_555
C19B C20B 1_555 1_555
C20B C21B 1_555 1_555
C21B N3B 1_555 1_555
H12B C21B 1_555 1_555
H11B C20B 1_555 1_555
C24B C19B 1_555 1_555
C23B C24B 1_555 1_555
C22B C23B 1_555 1_555
N4B C26 1_555 1_555
Ba1B_2 N4B 1_555 1_555
I1B Ba1B_2 1_555 1_555
I2B Ba1B_2 1_555 1_555
O1B Ba1B_2 1_555 1_555
C11B O1B 1_555 1_555
C12B C11B 1_555 1_555
C13B C12B 1_555 1_555
H26B C13B 1_555 1_555
H27B C13B 1_555 1_555
H28B C13B 1_555 1_555
H24B C12B 1_555 1_555
H25B C12B 1_555 1_555
H22B C11B 1_555 1_555
H23B C11B 1_555 1_555
H21B O1B 1_555 1_555
O2B Ba1B_2 1_555 1_555
C14B O2B 1_555 1_555
C15B C14B 1_555 1_555
C16B C15B 1_555 1_555
H34B C16B 1_555 1_555
H35B C16B 1_555 1_555
H36B C16B 1_555 1_555
H32B C15B 1_555 1_555
H33B C15B 1_555 1_555
H30B C14B 1_555 1_555
H31B C14B 1_555 1_555
H29B O2B 1_555 1_555
N3B_2 Ba1B_2 1_555 1_555
N5B Ba1B_2 1_555 1_555
C27B N5B 1_555 1_555
C28B C27B 1_555 1_555
C29B C29 1_555 1_555
C30B C29B 1_555 1_555
C31B N5B 1_555 1_555
H20B C31B 1_555 1_555
H19B C30B 1_555 1_555
H18B C28B 1_555 1_555
H17B C27B 1_555 1_555
C25B C26 1_555 1_555
H15B C25B 1_555 1_555
H10B C18B 1_555 1_555
H9B C17B 1_555 1_555
C26B C25 1_555 1_555
H13B C22 1_555 1_555
H14B C23 1_555 1_555
C9 C10 1_555 1_555
C20 C21 1_555 1_555
C30 C31 1_555 1_555
N4_2 C26B 1_555 1_555
C24B C25B 1_555 1_555
C22B N4B 1_555 1_555
C28B C29B 1_555 1_555
C30B C31B 1_555 1_555

#END
