
#######################################################################
#
#                 Cambridge Crystallographic Data Centre
#                                CCDC 
#
#######################################################################
#
# If this CIF has been generated from an entry in the Cambridge 
# Structural Database, then it will include bibliographic, chemical, 
# crystal, experimental, refinement or atomic coordinate data resulting 
# from the CCDC's data processing and validation procedures.
#
#######################################################################

data_TAQQIL
_symmetry_cell_setting           triclinic
_symmetry_space_group_name_H-M   'P -1'
_symmetry_Int_Tables_number      2
_space_group_name_Hall           '-P 1'
loop_
_symmetry_equiv_pos_site_id
_symmetry_equiv_pos_as_xyz
1 x,y,z
2 -x,-y,-z
_cell_length_a                   11.318(2)
_cell_length_b                   11.078(2)
_cell_length_c                   9.206(4)
_cell_angle_alpha                80.87(2)
_cell_angle_beta                 77.52(2)
_cell_angle_gamma                87.53(1)
_cell_volume                     1112.66
loop_
_atom_site_label
_atom_site_type_symbol
_atom_site_fract_x
_atom_site_fract_y
_atom_site_fract_z
Ba1 Ba 0.38691(4) 0.11270(3) 0.25795(4)
I1 I 0.57468(5) 0.17149(4) 0.51282(5)
I2 I 0.33431(5) -0.08117(4) -0.00116(5)
N1 N 0.3872(6) 0.3275(4) 0.0324(6)
C1 C 0.3430(7) 0.4362(5) 0.0673(8)
C2 C 0.3459(8) 0.5377(6) -0.0435(9)
C3 C 0.3928(9) 0.5266(7) -0.1913(9)
C4 C 0.4390(8) 0.4163(7) -0.2275(8)
C5 C 0.4313(8) 0.3230(6) -0.1116(8)
N2 N 0.3216(6) 0.3579(5) 0.3287(6)
C6 C 0.2929(8) 0.4435(6) 0.2268(8)
C7 C 0.209(1) 0.5380(8) 0.269(1)
C8 C 0.163(1) 0.5435(9) 0.418(1)
C9 C 0.203(1) 0.4585(8) 0.523(1)
C10 C 0.2814(8) 0.3655(7) 0.4739(8)
N3 N 0.1740(6) 0.1052(5) 0.4998(6)
C11 C 0.0635(7) 0.1423(6) 0.4853(8)
C12 C -0.0313(7) 0.1398(6) 0.612(1)
C13 C -0.0100(8) 0.0999(7) 0.753(1)
C14 C 0.1017(8) 0.0634(7) 0.7658(8)
C15 C 0.1919(7) 0.0671(7) 0.6376(8)
N4 N 0.1414(6) 0.1789(5) 0.2180(7)
C16 C 0.0455(8) 0.1859(6) 0.3337(9)
C17 C -0.064(1) 0.233(1) 0.306(1)
C18 C -0.080(1) 0.276(1) 0.160(1)
C19 C 0.021(1) 0.266(1) 0.045(1)
C20 C 0.127(1) 0.2180(8) 0.078(1)
H1 H 0.3125 0.6164 -0.0170
H2 H 0.3949 0.5977 -0.2684
H3 H 0.4734 0.4061 -0.3315
H4 H 0.4624 0.2438 -0.1357
H5 H 0.1847 0.5982 0.1902
H6 H 0.1072 0.6075 0.4483
H7 H 0.1785 0.4619 0.6306
H8 H 0.3054 0.3018 0.5478
H9 H -0.1113 0.1670 0.6000
H10 H -0.0753 0.0971 0.8409
H11 H 0.1207 0.0362 0.8661
H12 H 0.2730 0.0409 0.6481
H13 H -0.1343 0.2373 0.3916
H14 H -0.1575 0.3044 0.1435
H15 H 0.0118 0.2922 -0.0582
H16 H 0.1963 0.2142 -0.0071
I1A I 0.42532(5) -0.17149(4) 0.48718(5)
I2A I 0.66569(5) 0.08117(4) 0.00116(5)
Ba1A Ba 0.61309(4) -0.11270(3) 0.74205(4)
Ba1A_2 Ba 0.61309(4) -0.11270(3) -0.25795(4)
loop_
_geom_bond_atom_site_label_1
_geom_bond_atom_site_label_2
_geom_bond_site_symmetry_1
_geom_bond_site_symmetry_2
Ba1 I1 1_555 1_555
I1 Ba1A 1_555 1_555
I2 Ba1 1_555 1_555
N1 Ba1 1_555 1_555
C1 N1 1_555 1_555
C2 C1 1_555 1_555
C3 C2 1_555 1_555
C4 C3 1_555 1_555
C5 N1 1_555 1_555
N2 Ba1 1_555 1_555
C6 C1 1_555 1_555
C7 C6 1_555 1_555
C8 C7 1_555 1_555
C9 C8 1_555 1_555
C10 N2 1_555 1_555
N3 Ba1 1_555 1_555
C11 N3 1_555 1_555
C12 C11 1_555 1_555
C13 C12 1_555 1_555
C14 C13 1_555 1_555
C15 N3 1_555 1_555
N4 Ba1 1_555 1_555
C16 C11 1_555 1_555
C17 C16 1_555 1_555
C18 C17 1_555 1_555
C19 C18 1_555 1_555
C20 N4 1_555 1_555
H1 C2 1_555 1_555
H2 C3 1_555 1_555
H3 C4 1_555 1_555
H4 C5 1_555 1_555
H5 C7 1_555 1_555
H6 C8 1_555 1_555
H7 C9 1_555 1_555
H8 C10 1_555 1_555
H9 C12 1_555 1_555
H10 C13 1_555 1_555
H11 C14 1_555 1_555
H12 C15 1_555 1_555
H13 C17 1_555 1_555
H14 C18 1_555 1_555
H15 C19 1_555 1_555
H16 C20 1_555 1_555
I1A Ba1 1_555 1_555
I2A Ba1 1_555 1_555
Ba1A I1A 1_555 1_555
Ba1A_2 I2 1_555 1_555
C4 C5 1_555 1_555
N2 C6 1_555 1_555
C9 C10 1_555 1_555
C14 C15 1_555 1_555
N4 C16 1_555 1_555
C19 C20 1_555 1_555
I2A Ba1A_2 1_555 1_555

#END
