
#######################################################################
#
#                 Cambridge Crystallographic Data Centre
#                                CCDC 
#
#######################################################################
#
# If this CIF has been generated from an entry in the Cambridge 
# Structural Database, then it will include bibliographic, chemical, 
# crystal, experimental, refinement or atomic coordinate data resulting 
# from the CCDC's data processing and validation procedures.
#
#######################################################################

data_TAQQOS
_symmetry_cell_setting           monoclinic
_symmetry_space_group_name_H-M   'P 21/c'
_symmetry_Int_Tables_number      14
_space_group_name_Hall           '-P 2ybc'
loop_
_symmetry_equiv_pos_site_id
_symmetry_equiv_pos_as_xyz
1 x,y,z
2 -x,1/2+y,1/2-z
3 -x,-y,-z
4 x,1/2-y,1/2+z
_cell_length_a                   11.656(3)
_cell_length_b                   7.326(2)
_cell_length_c                   14.012(2)
_cell_angle_alpha                90
_cell_angle_beta                 109.090(10)
_cell_angle_gamma                90
_cell_volume                     1130.71
loop_
_atom_site_label
_atom_site_type_symbol
_atom_site_fract_x
_atom_site_fract_y
_atom_site_fract_z
Ni1 Ni 0.52933(3) 0.46211(6) 0.40173(3)
O1 O 0.60914(18) 0.5734(3) 0.53924(15)
O2 O 0.4785(2) 0.3196(3) 0.26788(15)
O3 O 0.5565(2) 0.2106(3) 0.15334(15)
N1 N 0.6760(2) 0.5053(3) 0.36285(19)
C1 C 0.7264(3) 0.6031(4) 0.5819(2)
C2 C 0.7743(3) 0.6305(5) 0.6865(2)
H1 H 0.7234 0.6213 0.7254
C3 C 0.8962(3) 0.6710(6) 0.7331(3)
H2 H 0.9261 0.6850 0.8029
C4 C 0.9734(3) 0.6906(6) 0.6777(3)
H3 H 1.0538 0.7246 0.7088
C5 C 0.9299(3) 0.6594(5) 0.5763(3)
H4 H 0.9826 0.6696 0.5391
C6 C 0.8080(3) 0.6121(4) 0.5259(2)
C7 C 0.7776(3) 0.5664(4) 0.4195(2)
H5 H 0.8378 0.5833 0.3902
C8 C 0.6610(3) 0.4487(5) 0.2594(2)
H6 H 0.7350 0.3915 0.2569
H7 H 0.6447 0.5545 0.2153
C9 C 0.5561(3) 0.3147(4) 0.2243(2)
O4 O 0.5864(3) 0.2007(3) 0.47130(19)
H8 H 0.585(3) 0.203(5) 0.5292(11)
C10 C 0.6739(4) 0.0709(6) 0.4646(4)
H9 H 0.6512 -0.0481 0.4828
H10 H 0.6722 0.0644 0.3950
C11 C 0.7927(5) 0.1097(8) 0.5261(5)
H11 H 0.8036 0.2395 0.5327
H12 H 0.8490 0.0596 0.4961
H13 H 0.8070 0.0565 0.5915
Ni1B Ni 0.47067(3) 0.53789(6) 0.59827(3)
Ni1A Ni 0.47067(3) -0.03789(6) 0.09827(3)
O1B O 0.39086(18) 0.4266(3) 0.46076(15)
O3A O 0.4435(2) 0.7106(3) 0.34666(15)
loop_
_geom_bond_atom_site_label_1
_geom_bond_atom_site_label_2
_geom_bond_site_symmetry_1
_geom_bond_site_symmetry_2
Ni1 O1 1_555 1_555
O1 C1 1_555 1_555
O2 Ni1 1_555 1_555
O3 C9 1_555 1_555
N1 Ni1 1_555 1_555
C1 C2 1_555 1_555
C2 H1 1_555 1_555
C3 C2 1_555 1_555
H2 C3 1_555 1_555
C4 C3 1_555 1_555
H3 C4 1_555 1_555
C5 C4 1_555 1_555
H4 C5 1_555 1_555
C6 C1 1_555 1_555
C7 N1 1_555 1_555
H5 C7 1_555 1_555
C8 N1 1_555 1_555
H6 C8 1_555 1_555
H7 C8 1_555 1_555
C9 O2 1_555 1_555
O4 Ni1 1_555 1_555
H8 O4 1_555 1_555
C10 O4 1_555 1_555
H9 C10 1_555 1_555
H10 C10 1_555 1_555
C11 C10 1_555 1_555
H11 C11 1_555 1_555
H12 C11 1_555 1_555
H13 C11 1_555 1_555
Ni1B O1 1_555 1_555
Ni1A O3 1_555 1_555
O1B Ni1 1_555 1_555
O3A Ni1 1_555 1_555
C5 C6 1_555 1_555
C6 C7 1_555 1_555
C8 C9 1_555 1_555
Ni1B O1B 1_555 1_555

#END
