
#######################################################################
#
#                 Cambridge Crystallographic Data Centre
#                                CCDC 
#
#######################################################################
#
# If this CIF has been generated from an entry in the Cambridge 
# Structural Database, then it will include bibliographic, chemical, 
# crystal, experimental, refinement or atomic coordinate data resulting 
# from the CCDC's data processing and validation procedures.
#
#######################################################################

data_TAQQAD
_symmetry_cell_setting           monoclinic
_symmetry_space_group_name_H-M   'C 2/c'
_symmetry_Int_Tables_number      15
_space_group_name_Hall           '-C 2yn'
loop_
_symmetry_equiv_pos_site_id
_symmetry_equiv_pos_as_xyz
1 x,y,z
2 -x,y,1/2-z
3 1/2+x,1/2+y,z
4 1/2-x,1/2+y,1/2-z
5 -x,-y,-z
6 x,-y,1/2+z
7 1/2-x,1/2-y,-z
8 1/2+x,1/2-y,1/2+z
_cell_length_a                   17.102(5)
_cell_length_b                   9.845(1)
_cell_length_c                   7.600(2)
_cell_angle_alpha                90
_cell_angle_beta                 107.65(2)
_cell_angle_gamma                90
_cell_volume                     1219.37
loop_
_atom_site_label
_atom_site_type_symbol
_atom_site_fract_x
_atom_site_fract_y
_atom_site_fract_z
Ca1 Ca 1.00000 0.0914(3) 0.2500
Br1 Br 0.89590(6) -0.0895(1) -0.0106(1)
N1 N 0.9285(5) 0.3015(8) 0.114(1)
C1 C 0.9590(6) 0.424(1) 0.178(1)
C2 C 0.9156(7) 0.544(1) 0.116(2)
C3 C 0.8407(8) 0.536(1) -0.011(2)
C4 C 0.8079(7) 0.413(2) -0.077(2)
C5 C 0.8537(7) 0.298(1) -0.013(2)
H1 H 0.9394 0.6322 0.1666
H2 H 0.8086 0.6172 -0.0554
H3 H 0.7533 0.4059 -0.1655
H4 H 0.8309 0.2097 -0.0635
Ca1D Ca 1.00000 -0.0914(3) -0.2500
Br1D Br 1.10410(6) 0.0895(1) 0.0106(1)
Br1A Br 1.10410(6) -0.0895(1) 0.5106(1)
Ca1E Ca 1.00000 -0.0914(3) 0.7500
Br1E Br 0.89590(6) 0.0895(1) 0.4894(1)
C1A C 1.0410(6) 0.424(1) 0.322(1)
N1A N 1.0715(5) 0.3015(8) 0.386(1)
C5A C 1.1463(7) 0.298(1) 0.513(2)
C4A C 1.1921(7) 0.413(2) 0.577(2)
C3A C 1.1593(8) 0.536(1) 0.511(2)
C2A C 1.0844(7) 0.544(1) 0.384(2)
H1A H 1.0606 0.6322 0.3334
H2A H 1.1914 0.6172 0.5554
H3A H 1.2467 0.4059 0.6655
H4A H 1.1691 0.2097 0.5635
loop_
_geom_bond_atom_site_label_1
_geom_bond_atom_site_label_2
_geom_bond_site_symmetry_1
_geom_bond_site_symmetry_2
Ca1 Br1 1_555 1_555
Br1 Ca1D 1_555 1_555
N1 Ca1 1_555 1_555
C1 N1 1_555 1_555
C2 C1 1_555 1_555
C3 C2 1_555 1_555
C4 C3 1_555 1_555
C5 N1 1_555 1_555
H1 C2 1_555 1_555
H2 C3 1_555 1_555
H3 C4 1_555 1_555
H4 C5 1_555 1_555
Ca1D Br1D 1_555 1_555
Br1D Ca1 1_555 1_555
Br1A Ca1 1_555 1_555
Ca1E Br1A 1_555 1_555
Br1E Ca1 1_555 1_555
C1A C1 1_555 1_555
N1A Ca1 1_555 1_555
C5A N1A 1_555 1_555
C4A C5A 1_555 1_555
C3A C4A 1_555 1_555
C2A C1A 1_555 1_555
H1A C2A 1_555 1_555
H2A C3A 1_555 1_555
H3A C4A 1_555 1_555
H4A C5A 1_555 1_555
C4 C5 1_555 1_555
Ca1E Br1E 1_555 1_555
C1A N1A 1_555 1_555
C3A C2A 1_555 1_555

#END
