
#######################################################################
#
#                 Cambridge Crystallographic Data Centre
#                                CCDC 
#
#######################################################################
#
# If this CIF has been generated from an entry in the Cambridge 
# Structural Database, then it will include bibliographic, chemical, 
# crystal, experimental, refinement or atomic coordinate data resulting 
# from the CCDC's data processing and validation procedures.
#
#######################################################################

data_TAQTIQ
_symmetry_cell_setting           monoclinic
_symmetry_space_group_name_H-M   'C 2'
_symmetry_Int_Tables_number      5
_space_group_name_Hall           'C 2y'
loop_
_symmetry_equiv_pos_site_id
_symmetry_equiv_pos_as_xyz
1 x,y,z
2 -x,y,-z
3 1/2+x,1/2+y,z
4 1/2-x,1/2+y,-z
_cell_length_a                   21.2692(16)
_cell_length_b                   12.5647(6)
_cell_length_c                   13.4995(10)
_cell_angle_alpha                90
_cell_angle_beta                 121.843(2)
_cell_angle_gamma                90
_cell_volume                     3064.66
loop_
_atom_site_label
_atom_site_type_symbol
_atom_site_fract_x
_atom_site_fract_y
_atom_site_fract_z
Cu1 Cu -0.67704(2) 0.01122(3) -1.17538(3)
Cu2 Cu -0.81040(2) 0.08968(3) -1.32170(3)
O1 O -0.64662(14) 0.0558(2) -1.2839(2)
O2 O -0.76185(14) 0.1044(2) -1.4124(2)
O3 O -0.77698(15) 0.3811(2) -1.7345(2)
O4 O -0.66186(15) 0.4429(2) -1.6164(2)
O5 O -0.64811(15) 0.1513(2) -1.1021(2)
O6 O -0.75811(16) 0.2197(2) -1.2302(2)
O7 O -0.65522(15) 0.5536(2) -0.7844(2)
O8 O -0.76756(14) 0.4868(2) -0.9055(2)
N1 N -0.58718(16) -0.0710(3) -1.0226(3)
N2 N -0.40377(17) -0.3271(3) -0.4702(3)
C1 C -0.6825(2) 0.2571(3) -1.6055(3)
C2 C -0.6653(2) 0.2470(3) -1.4779(3)
C3 C -0.6732(2) 0.1253(3) -1.4655(3)
H1 H -0.6244 0.0941 -1.4368
C4 C -0.7241(4) 0.0812(4) -1.5871(4)
H2 H -0.7681 0.0508 -1.5939
H3 H -0.6990 0.0261 -1.6038
C5 C -0.7446(3) 0.1737(4) -1.6713(4)
H4 H -0.7922 0.2031 -1.6921
H5 H -0.7470 0.1507 -1.7419
C6 C -0.6155(4) 0.2300(5) -1.6149(6)
H6 H -0.6315 0.2194 -1.6953
H7 H -0.5925 0.1661 -1.5717
H8 H -0.5805 0.2874 -1.5835
C7 C -0.5878(4) 0.2808(6) -1.3875(5)
H9 H -0.5599 0.2918 -1.4240
H10 H -0.5646 0.2264 -1.3292
H11 H -0.5894 0.3459 -1.3517
C8 C -0.7257(4) 0.3126(4) -1.4705(5)
H12 H -0.7210 0.2995 -1.3968
H13 H -0.7741 0.2912 -1.5324
H14 H -0.7190 0.3871 -1.4778
C9 C -0.7084(2) 0.3706(3) -1.6558(3)
C10 C -0.69538(17) 0.0933(3) -1.3806(3)
C11 C -0.6692(2) 0.3345(3) -1.0797(4)
C12 C -0.7217(2) 0.3750(3) -1.0410(3)
C13 C -0.6755(2) 0.4633(3) -0.9537(3)
H15 H -0.6742 0.5239 -0.9983
C14 C -0.5957(3) 0.4144(5) -0.8834(5)
H16 H -0.5588 0.4685 -0.8668
H17 H -0.5858 0.3848 -0.8102
C15 C -0.5937(3) 0.3282(4) -0.9597(4)
H18 H -0.5880 0.2589 -0.9242
H19 H -0.5527 0.3396 -0.9706
C16 C -0.6592(3) 0.4099(4) -1.1563(4)
H20 H -0.7067 0.4284 -1.2226
H21 H -0.6299 0.3765 -1.1823
H22 H -0.6347 0.4731 -1.1131
C17 C -0.7947(3) 0.4209(4) -1.1411(4)
H23 H -0.8279 0.4335 -1.1144
H24 H -0.8168 0.3711 -1.2046
H25 H -0.7851 0.4867 -1.1670
C18 C -0.7383(3) 0.2829(4) -0.9830(4)
H26 H -0.7542 0.3112 -0.9337
H27 H -0.6944 0.2411 -0.9371
H28 H -0.7767 0.2389 -1.0421
C19 C -0.6947(2) 0.2264(3) -1.1427(3)
C20 C -0.70202(19) 0.5043(3) -0.8751(3)
C21 C -0.5466(2) -0.0172(4) -0.9240(4)
H29 H -0.5432 0.0562 -0.9284
C22 C -0.5091(2) -0.0645(4) -0.8149(3)
H30 H -0.4807 -0.0233 -0.7486
C23 C -0.51425(18) -0.1734(3) -0.8052(3)
C24 C -0.5525(3) -0.2294(4) -0.9091(4)
H31 H -0.5552 -0.3033 -0.9076
C25 C -0.5870(3) -0.1763(4) -1.0155(4)
H32 H -0.6108 -0.2159 -1.0839
C26 C -0.3989(4) -0.2239(4) -0.4820(4)
H33 H -0.3711 -0.1839 -0.4145
C27 C -0.4321(4) -0.1706(4) -0.5878(4)
H34 H -0.4239 -0.0983 -0.5905
C28 C -0.47742(19) -0.2263(3) -0.6885(3)
C29 C -0.4852(3) -0.3309(4) -0.6733(4)
H35 H -0.5163 -0.3726 -0.7380
C30 C -0.4481(3) -0.3776(4) -0.5638(4)
H36 H -0.4558 -0.4496 -0.5583
Cu1C Cu -0.82296(2) 0.51122(3) -1.82462(3)
Cu1C_2 Cu -0.82296(2) 0.51122(3) -0.82462(3)
Cu2C Cu -0.68960(2) 0.58968(3) -1.67830(3)
Cu2C_2 Cu -0.68960(2) 0.58968(3) -0.67830(3)
Cu2B Cu -0.31040(2) -0.41032(3) -0.32170(3)
O3C O -0.72302(15) -0.1189(2) -1.2655(2)
O4C O -0.83814(15) -0.0571(2) -1.3836(2)
O7C O -0.84478(15) 0.0536(2) -1.2156(2)
O8C O -0.73244(14) -0.0132(2) -1.0945(2)
N2B N -0.90377(17) 0.1729(3) -1.4702(3)
loop_
_geom_bond_atom_site_label_1
_geom_bond_atom_site_label_2
_geom_bond_site_symmetry_1
_geom_bond_site_symmetry_2
Cu1 Cu2 1_555 1_555
Cu2 O2 1_555 1_555
O1 Cu1 1_555 1_555
O2 C10 1_555 1_555
O3 C9 1_555 1_555
O4 C9 1_555 1_555
O5 Cu1 1_555 1_555
O6 Cu2 1_555 1_555
O7 C20 1_555 1_555
O8 C20 1_555 1_555
N1 Cu1 1_555 1_555
N2 C26 1_555 1_555
C1 C2 1_555 1_555
C2 C3 1_555 1_555
C3 H1 1_555 1_555
C4 C3 1_555 1_555
H2 C4 1_555 1_555
H3 C4 1_555 1_555
C5 C1 1_555 1_555
H4 C5 1_555 1_555
H5 C5 1_555 1_555
C6 C1 1_555 1_555
H6 C6 1_555 1_555
H7 C6 1_555 1_555
H8 C6 1_555 1_555
C7 C2 1_555 1_555
H9 C7 1_555 1_555
H10 C7 1_555 1_555
H11 C7 1_555 1_555
C8 C2 1_555 1_555
H12 C8 1_555 1_555
H13 C8 1_555 1_555
H14 C8 1_555 1_555
C9 C1 1_555 1_555
C10 O1 1_555 1_555
C11 C12 1_555 1_555
C12 C13 1_555 1_555
C13 H15 1_555 1_555
C14 C13 1_555 1_555
H16 C14 1_555 1_555
H17 C14 1_555 1_555
C15 C11 1_555 1_555
H18 C15 1_555 1_555
H19 C15 1_555 1_555
C16 C11 1_555 1_555
H20 C16 1_555 1_555
H21 C16 1_555 1_555
H22 C16 1_555 1_555
C17 C12 1_555 1_555
H23 C17 1_555 1_555
H24 C17 1_555 1_555
H25 C17 1_555 1_555
C18 C12 1_555 1_555
H26 C18 1_555 1_555
H27 C18 1_555 1_555
H28 C18 1_555 1_555
C19 O5 1_555 1_555
C20 C13 1_555 1_555
C21 N1 1_555 1_555
H29 C21 1_555 1_555
C22 C21 1_555 1_555
H30 C22 1_555 1_555
C23 C22 1_555 1_555
C24 C23 1_555 1_555
H31 C24 1_555 1_555
C25 N1 1_555 1_555
H32 C25 1_555 1_555
C26 H33 1_555 1_555
C27 C26 1_555 1_555
H34 C27 1_555 1_555
C28 C23 1_555 1_555
C29 C28 1_555 1_555
H35 C29 1_555 1_555
C30 N2 1_555 1_555
H36 C30 1_555 1_555
Cu1C O3 1_555 1_555
Cu1C_2 O8 1_555 1_555
Cu2C O4 1_555 1_555
Cu2C_2 O7 1_555 1_555
Cu2B N2 1_555 1_555
O3C Cu1 1_555 1_555
O4C Cu2 1_555 1_555
O7C Cu2 1_555 1_555
O8C Cu1 1_555 1_555
N2B Cu2 1_555 1_555
O6 C19 1_555 1_555
C3 C10 1_555 1_555
C4 C5 1_555 1_555
C11 C19 1_555 1_555
C14 C15 1_555 1_555
C24 C25 1_555 1_555
C27 C28 1_555 1_555
C29 C30 1_555 1_555
Cu1C Cu2C 1_555 1_555
Cu1C_2 Cu2C_2 1_555 1_555

#END
