
#######################################################################
#
#                 Cambridge Crystallographic Data Centre
#                                CCDC 
#
#######################################################################
#
# If this CIF has been generated from an entry in the Cambridge 
# Structural Database, then it will include bibliographic, chemical, 
# crystal, experimental, refinement or atomic coordinate data resulting 
# from the CCDC's data processing and validation procedures.
#
#######################################################################

data_TAQTUC
_symmetry_cell_setting           monoclinic
_symmetry_space_group_name_H-M   'C 2/c'
_symmetry_Int_Tables_number      15
_space_group_name_Hall           '-C 2yn'
loop_
_symmetry_equiv_pos_site_id
_symmetry_equiv_pos_as_xyz
1 x,y,z
2 -x,y,1/2-z
3 1/2+x,1/2+y,z
4 1/2-x,1/2+y,1/2-z
5 -x,-y,-z
6 x,-y,1/2+z
7 1/2-x,1/2-y,-z
8 1/2+x,1/2-y,1/2+z
_cell_length_a                   21.3215(6)
_cell_length_b                   12.6721(4)
_cell_length_c                   13.4677(4)
_cell_angle_alpha                90
_cell_angle_beta                 121.974(2)
_cell_angle_gamma                90
_cell_volume                     3086.76
loop_
_atom_site_label
_atom_site_type_symbol
_atom_site_fract_x
_atom_site_fract_y
_atom_site_fract_z
Cu1 Cu 0.18286(5) 0.21287(7) 0.42630(7)
O1 O 0.2658(3) 0.6908(4) 0.1600(4)
O2 O 0.2697(3) 0.4167(4) 0.4835(4)
O3 O 0.1514(3) 0.7457(4) 0.0339(4)
O4 O 0.1563(3) 0.3553(4) 0.3589(4)
C1 C 0.2000(5) 0.7040(5) 0.1291(6)
N1 N 0.0911(3) 0.1306(5) 0.2761(5)
C2 C 0.1796(5) 0.5363(6) 0.3462(7)
C3 C 0.2043(5) 0.4282(6) 0.4006(6)
C4 C 0.0506(5) 0.1806(7) 0.1776(7)
H1 H 0.0471 0.2536 0.1805
C5 C 0.1778(5) 0.6677(6) 0.2133(6)
H2 H 0.1282 0.6953 0.1852
C6 C 0.2311(6) 0.4858(6) 0.2245(8)
H3 H 0.2805 0.5079 0.2818
H4 H 0.2230 0.4934 0.1476
H5 H 0.2247 0.4132 0.2377
C7 C 0.0925(6) 0.0283(8) 0.2658(7)
H6 H 0.1194 -0.0111 0.3341
C8 C 0.0572(6) -0.0252(7) 0.1617(7)
H7 H 0.0598 -0.0984 0.1619
C9 C 0.0187(4) 0.0267(6) 0.0585(6)
C10 C 0.2291(13) 0.7102(12) 0.3356(12)
H8 H 0.2727 0.7410 0.3418
H9 H 0.2043 0.7643 0.3532
C11 C 0.0124(5) 0.1326(8) 0.0687(7)
H10 H -0.0177 0.1728 0.0023
C12 C 0.1770(11) 0.5523(9) 0.2345(13)
C13 C 0.0918(8) 0.532(2) 0.1328(13)
H11 H 0.0862 0.5402 0.0576
H12 H 0.0610 0.5830 0.1402
H13 H 0.0775 0.4624 0.1400
C14 C 0.2504(16) 0.6217(9) 0.4182(11)
H14 H 0.2555 0.6445 0.4909
H15 H 0.2966 0.5902 0.4353
C15 C 0.1145(16) 0.5671(17) 0.344(3)
H16 H 0.0758 0.5170 0.2990
H17 H 0.0992 0.6357 0.3092
H18 H 0.1248 0.5693 0.4226
Cu1D Cu -0.18286(5) -0.21287(7) -0.42630(7)
Cu1A Cu -0.18286(5) -0.78713(7) 0.07370(7)
Cu1B Cu -0.31714(5) -0.28713(7) -0.57370(7)
Cu1C Cu 0.31714(5) 0.71287(7) 0.07370(7)
Cu1E Cu 0.18286(5) 0.78713(7) -0.07370(7)
Cu1F Cu 0.31714(5) 0.28713(7) 0.57370(7)
Cu1G Cu -0.31714(5) -0.71287(7) -0.07370(7)
O1D O -0.2658(3) -0.6908(4) -0.1600(4)
O1C O 0.2342(3) 0.1908(4) 0.3400(4)
O1G O -0.2342(3) -0.1908(4) -0.3400(4)
O2D O -0.2697(3) -0.4167(4) -0.4835(4)
O2B O -0.2303(3) -0.0833(4) -0.5165(4)
O2F O 0.2303(3) 0.0833(4) 0.5165(4)
O3D O -0.1514(3) -0.7457(4) -0.0339(4)
O3A O -0.1514(3) -0.2543(4) -0.5339(4)
O3E O 0.1514(3) 0.2543(4) 0.5339(4)
O4D O -0.1563(3) -0.3553(4) -0.3589(4)
C1D C -0.2000(5) -0.7040(5) -0.1291(6)
N1D N -0.0911(3) -0.1306(5) -0.2761(5)
C2D C -0.1796(5) -0.5363(6) -0.3462(7)
C3D C -0.2043(5) -0.4282(6) -0.4006(6)
C4D C -0.0506(5) -0.1806(7) -0.1776(7)
H1D H -0.0471 -0.2536 -0.1805
C5D C -0.1778(5) -0.6677(6) -0.2133(6)
H2D H -0.1282 -0.6953 -0.1852
C6D C -0.2311(6) -0.4858(6) -0.2245(8)
H3D H -0.2805 -0.5079 -0.2818
H4D H -0.2230 -0.4934 -0.1476
H5D H -0.2247 -0.4132 -0.2377
C7D C -0.0925(6) -0.0283(8) -0.2658(7)
H6D H -0.1194 0.0111 -0.3341
C8D C -0.0572(6) 0.0252(7) -0.1617(7)
H7D H -0.0598 0.0984 -0.1619
C9D C -0.0187(4) -0.0267(6) -0.0585(6)
C10D C -0.2291(13) -0.7102(12) -0.3356(12)
H8D H -0.2727 -0.7410 -0.3418
H9D H -0.2043 -0.7643 -0.3532
C11D C -0.0124(5) -0.1326(8) -0.0687(7)
H10D H 0.0177 -0.1728 -0.0023
C12D C -0.1770(11) -0.5523(9) -0.2345(13)
C13D C -0.0918(8) -0.532(2) -0.1328(13)
H11D H -0.0862 -0.5402 -0.0576
H12D H -0.0610 -0.5830 -0.1402
H13D H -0.0775 -0.4624 -0.1400
C14D C -0.2504(16) -0.6217(9) -0.4182(11)
H14D H -0.2555 -0.6445 -0.4909
H15D H -0.2966 -0.5902 -0.4353
C15D C -0.1145(16) -0.5671(17) -0.344(3)
H16D H -0.0758 -0.5170 -0.2990
H17D H -0.0992 -0.6357 -0.3092
H18D H -0.1248 -0.5693 -0.4226
loop_
_geom_bond_atom_site_label_1
_geom_bond_atom_site_label_2
_geom_bond_site_symmetry_1
_geom_bond_site_symmetry_2
Cu1 O4 1_555 1_555
O1 C1 1_555 1_555
O2 C3 1_555 1_555
O3 C1 1_555 1_555
O4 C3 1_555 1_555
C1 C5 1_555 1_555
N1 Cu1 1_555 1_555
C2 C3 1_555 1_555
C4 N1 1_555 1_555
H1 C4 1_555 1_555
C5 H2 1_555 1_555
C6 H3 1_555 1_555
H4 C6 1_555 1_555
H5 C6 1_555 1_555
C7 N1 1_555 1_555
H6 C7 1_555 1_555
C8 C7 1_555 1_555
H7 C8 1_555 1_555
C9 C8 1_555 1_555
C10 C5 1_555 1_555
H8 C10 1_555 1_555
H9 C10 1_555 1_555
C11 C4 1_555 1_555
H10 C11 1_555 1_555
C12 C2 1_555 1_555
C13 C12 1_555 1_555
H11 C13 1_555 1_555
H12 C13 1_555 1_555
H13 C13 1_555 1_555
C14 C2 1_555 1_555
H14 C14 1_555 1_555
H15 C14 1_555 1_555
C15 C2 1_555 1_555
H16 C15 1_555 1_555
H17 C15 1_555 1_555
H18 C15 1_555 1_555
Cu1D Cu1B 1_555 1_555
Cu1A Cu1G 1_555 1_555
Cu1B O2D 1_555 1_555
Cu1C O1 1_555 1_555
Cu1E O3 1_555 1_555
Cu1F Cu1 1_555 1_555
Cu1G O1D 1_555 1_555
O1D C1D 1_555 1_555
O1C Cu1 1_555 1_555
O1G Cu1D 1_555 1_555
O2D C3D 1_555 1_555
O2B Cu1D 1_555 1_555
O2F Cu1 1_555 1_555
O3D Cu1A 1_555 1_555
O3A Cu1D 1_555 1_555
O3E Cu1 1_555 1_555
O4D Cu1D 1_555 1_555
C1D O3D 1_555 1_555
N1D Cu1D 1_555 1_555
C2D C3D 1_555 1_555
C3D O4D 1_555 1_555
C4D N1D 1_555 1_555
H1D C4D 1_555 1_555
C5D C1D 1_555 1_555
H2D C5D 1_555 1_555
C6D H3D 1_555 1_555
H4D C6D 1_555 1_555
H5D C6D 1_555 1_555
C7D N1D 1_555 1_555
H6D C7D 1_555 1_555
C8D C7D 1_555 1_555
H7D C8D 1_555 1_555
C9D C9 1_555 1_555
C10D C5D 1_555 1_555
H8D C10D 1_555 1_555
H9D C10D 1_555 1_555
C11D C4D 1_555 1_555
H10D C11D 1_555 1_555
C12D C2D 1_555 1_555
C13D C12D 1_555 1_555
H11D C13D 1_555 1_555
H12D C13D 1_555 1_555
H13D C13D 1_555 1_555
C14D C2D 1_555 1_555
H14D C14D 1_555 1_555
H15D C14D 1_555 1_555
C15D C2D 1_555 1_555
H16D C15D 1_555 1_555
H17D C15D 1_555 1_555
H18D C15D 1_555 1_555
O2 Cu1F 1_555 1_555
C5 C12 1_555 1_555
C6 C12 1_555 1_555
C9 C11 1_555 1_555
C10 C14 1_555 1_555
Cu1C Cu1E 1_555 1_555
C5D C12D 1_555 1_555
C6D C12D 1_555 1_555
C8D C9D 1_555 1_555
C9D C11D 1_555 1_555
C10D C14D 1_555 1_555

#END
