
#######################################################################
#
#                 Cambridge Crystallographic Data Centre
#                                CCDC 
#
#######################################################################
#
# If this CIF has been generated from an entry in the Cambridge 
# Structural Database, then it will include bibliographic, chemical, 
# crystal, experimental, refinement or atomic coordinate data resulting 
# from the CCDC's data processing and validation procedures.
#
#######################################################################

data_TAQVEO
_symmetry_cell_setting           triclinic
_symmetry_space_group_name_H-M   'P -1'
_symmetry_Int_Tables_number      2
_space_group_name_Hall           '-P 1'
loop_
_symmetry_equiv_pos_site_id
_symmetry_equiv_pos_as_xyz
1 x,y,z
2 -x,-y,-z
_cell_length_a                   9.5125(3)
_cell_length_b                   11.3212(3)
_cell_length_c                   18.4446(4)
_cell_angle_alpha                104.879(2)
_cell_angle_beta                 92.208(2)
_cell_angle_gamma                95.825(2)
_cell_volume                     1905.52
loop_
_atom_site_label
_atom_site_type_symbol
_atom_site_fract_x
_atom_site_fract_y
_atom_site_fract_z
Cd1 Cd 0.38444(5) 0.59509(4) 0.45519(2)
Cd2 Cd 0.32276(5) 0.99223(4) 1.02860(2)
O1 O 0.3584(5) 0.5732(4) 0.3233(2)
O2 O 0.2333(5) 0.7040(4) 0.3936(3)
O3 O 0.3429(7) 0.8336(5) 0.0810(3)
O4 O 0.1745(5) 0.9444(5) 0.1154(3)
O5 O 0.4586(5) 0.9073(4) 0.9277(3)
O6 O 0.2323(5) 0.8517(5) 0.9135(3)
O7 O 0.4657(5) 0.5645(4) 0.5717(2)
O8 O 0.3142(5) 0.6977(4) 0.5817(2)
N1 N -0.4323(6) -0.2478(5) 0.4606(3)
N2 N 0.2020(6) 0.4343(5) 0.4432(3)
N3 N 0.2303(6) 1.1570(5) 1.0106(3)
C1 C 0.1890(7) 0.6615(6) 0.2592(4)
C2 C 0.2861(8) 0.7307(6) 0.2136(4)
C3 C 0.1818(7) 0.7644(7) 0.1604(4)
H1 H 0.1443 0.6878 0.1234
C4 C 0.0578(10) 0.8075(10) 0.2104(5)
H2 H 0.0688 0.8963 0.2296
H3 H -0.0329 0.7815 0.1819
C5 C 0.0689(9) 0.7444(10) 0.2758(5)
H4 H 0.0903 0.8058 0.3235
H5 H -0.0198 0.6955 0.2783
C6 C 0.1273(11) 0.5338(8) 0.2139(5)
H6 H 0.0680 0.4959 0.2445
H7 H 0.2028 0.4849 0.1980
H8 H 0.0721 0.5400 0.1706
C7 C 0.3898(11) 0.6481(8) 0.1673(5)
H9 H 0.4472 0.6951 0.1405
H10 H 0.3366 0.5791 0.1321
H11 H 0.4495 0.6193 0.2007
C8 C 0.3725(8) 0.8448(7) 0.2639(4)
H12 H 0.3100 0.8974 0.2926
H13 H 0.4251 0.8882 0.2335
H14 H 0.4368 0.8209 0.2975
C9 C 0.2663(7) 0.6470(6) 0.3303(4)
C10 C 0.2360(8) 0.8537(7) 0.1168(4)
C11 C 0.3753(9) 0.7298(7) 0.8266(4)
C12 C 0.4032(12) 0.7599(7) 0.7537(4)
C13 C 0.3892(8) 0.6437(7) 0.6942(4)
H15 H 0.4553 0.5895 0.7065
C14 C 0.2243(12) 0.5992(10) 0.7159(5)
H16 H 0.1540 0.6317 0.6893
H17 H 0.2056 0.5101 0.7019
C15 C 0.2191(13) 0.6478(10) 0.7972(6)
H18 H 0.2040 0.5813 0.8213
H19 H 0.1431 0.6993 0.8084
C16 C 0.4573(15) 0.6471(9) 0.8549(5)
H20 H 0.5505 0.6877 0.8726
H21 H 0.4644 0.5745 0.8152
H22 H 0.4110 0.6245 0.8955
C17 C 0.5760(9) 0.8016(11) 0.7610(7)
H23 H 0.5976 0.8786 0.7984
H24 H 0.6063 0.8105 0.7135
H25 H 0.6243 0.7398 0.7754
C18 C 0.3323(9) 0.8629(6) 0.7403(4)
H26 H 0.2316 0.8411 0.7359
H27 H 0.3622 0.8803 0.6946
H28 H 0.3569 0.9345 0.7816
C19 C 0.3541(8) 0.8372(6) 0.8920(4)
C20 C 0.3903(7) 0.6380(6) 0.6116(3)
C21 C -0.4137(9) -0.1481(7) 0.5184(4)
H29 H -0.4656 -0.1475 0.5601
C22 C -0.3222(9) -0.0465(7) 0.5194(5)
H30 H -0.3133 0.0206 0.5615
C23 C -0.2433(7) -0.0419(7) 0.4594(5)
C24 C -0.2607(8) -0.1444(7) 0.3992(5)
H31 H -0.2095 -0.1468 0.3570
C25 C -0.3564(8) -0.2449(7) 0.4023(4)
H32 H -0.3674 -0.3135 0.3611
C26 C -0.1481(8) 0.0727(7) 0.4649(5)
H33 H -0.1467 0.1337 0.5097
C27 C -0.0703(8) 0.0972(8) 0.4173(5)
H34 H -0.0694 0.0377 0.3721
C28 C 0.1761(9) 0.3470(7) 0.3779(5)
H35 H 0.2179 0.3617 0.3358
C29 C 0.0928(9) 0.2384(7) 0.3692(5)
H36 H 0.0842 0.1797 0.3231
C30 C 0.0224(8) 0.2158(7) 0.4274(5)
C31 C 0.0397(8) 0.3070(7) 0.4941(5)
H37 H -0.0099 0.2973 0.5351
C32 C 0.1323(7) 0.4146(7) 0.5001(4)
H38 H 0.1448 0.4741 0.5459
C33 C 0.2975(8) 1.2335(6) 0.9756(4)
H39 H 0.3834 1.2151 0.9556
C34 C 0.2440(8) 1.3386(6) 0.9683(4)
H40 H 0.2948 1.3903 0.9443
C35 C 0.1162(7) 1.3682(6) 0.9962(3)
C36 C 0.0459(7) 1.2869(6) 1.0306(4)
H41 H -0.0415 1.3015 1.0498
C37 C 0.1059(7) 1.1847(6) 1.0361(4)
H42 H 0.0564 1.1309 1.0592
C38 C 0.0604(7) 1.4830(6) 0.9888(4)
H43 H 0.1164 1.5342 0.9666
Cd1A Cd 0.61556(5) 0.40491(4) 0.54481(2)
Cd1_2 Cd -0.61556(5) -0.40491(4) 0.45519(2)
Cd1_3 Cd 1.38444(5) 1.59509(4) 0.45519(2)
Cd1_4 Cd 0.38444(5) 0.59509(4) 1.45519(2)
Cd2A Cd 0.67724(5) 0.00777(4) -0.02860(2)
Cd2_2 Cd 0.32276(5) 0.99223(4) 0.02860(2)
Cd2A_2 Cd 0.67724(5) 1.00777(4) 0.97140(2)
Cd2A_3 Cd -0.32276(5) 2.00777(4) 0.97140(2)
Cd2_3 Cd 0.32276(5) -0.00777(4) 0.02860(2)
O1_2 O 0.3584(5) 0.5732(4) 1.3233(2)
O1A O 0.6416(5) 0.4268(4) 0.6767(2)
O2_2 O 0.2333(5) 0.7040(4) 1.3936(3)
O2A O 0.7667(5) 0.2960(4) 0.6064(3)
O3_2 O 0.3429(7) 0.8336(5) 1.0810(3)
O3A O 0.6571(7) 0.1664(5) -0.0810(3)
O4_2 O 0.1745(5) 0.9444(5) 1.1154(3)
O4A O 0.8255(5) 0.0556(5) -0.1154(3)
O5A O 0.5414(5) 0.0927(4) 0.0723(3)
O5A_2 O 0.5414(5) 1.0927(4) 1.0723(3)
O5_2 O 0.4586(5) -0.0927(4) -0.0723(3)
O6A O 0.7677(5) 0.1483(5) 0.0865(3)
O7A O 0.5343(5) 0.4355(4) 0.4283(2)
O8A O 0.6858(5) 0.3023(4) 0.4183(2)
N1_2 N 0.5677(6) 0.7522(5) 0.4606(3)
N1A N 0.4323(6) 0.2478(5) 0.5394(3)
N2_2 N 1.2020(6) 1.4343(5) 0.4432(3)
N2A N 0.7980(6) 0.5657(5) 0.5568(3)
N3A N -0.2303(6) 1.8430(5) 0.9894(3)
N3A_2 N 0.7697(6) -0.1570(5) -0.0106(3)
C1_2 C 0.1890(7) 0.6615(6) 1.2592(4)
C2_2 C 0.2861(8) 0.7307(6) 1.2136(4)
C3_2 C 0.1818(7) 0.7644(7) 1.1604(4)
H1_2 H 0.1443 0.6878 1.1234
C4_2 C 0.0578(10) 0.8075(10) 1.2104(5)
H2_2 H 0.0688 0.8963 1.2296
H3_2 H -0.0329 0.7815 1.1819
C5_2 C 0.0689(9) 0.7444(10) 1.2758(5)
H4_2 H 0.0903 0.8058 1.3235
H5_2 H -0.0198 0.6955 1.2783
C6_2 C 0.1273(11) 0.5338(8) 1.2139(5)
H6_2 H 0.0680 0.4959 1.2445
H7_2 H 0.2028 0.4849 1.1980
H8_2 H 0.0721 0.5400 1.1706
C7_2 C 0.3898(11) 0.6481(8) 1.1673(5)
H9_2 H 0.4472 0.6951 1.1405
H10_2 H 0.3366 0.5791 1.1321
H11_2 H 0.4495 0.6193 1.2007
C8_2 C 0.3725(8) 0.8448(7) 1.2639(4)
H12_2 H 0.3100 0.8974 1.2926
H13_2 H 0.4251 0.8882 1.2335
H14_2 H 0.4368 0.8209 1.2975
C9_2 C 0.2663(7) 0.6470(6) 1.3303(4)
C10_2 C 0.2360(8) 0.8537(7) 1.1168(4)
C11A C 0.6247(9) 0.2702(7) 0.1734(4)
C12A C 0.5968(12) 0.2401(7) 0.2463(4)
C13A C 0.6108(8) 0.3563(7) 0.3058(4)
H15A H 0.5447 0.4105 0.2935
C14A C 0.7757(12) 0.4008(10) 0.2841(5)
H16A H 0.8460 0.3683 0.3107
H17A H 0.7944 0.4899 0.2981
C15A C 0.7809(13) 0.3522(10) 0.2028(6)
H18A H 0.7960 0.4187 0.1787
H19A H 0.8569 0.3007 0.1916
C16A C 0.5427(15) 0.3529(9) 0.1451(5)
H20A H 0.4495 0.3123 0.1274
H21A H 0.5356 0.4255 0.1848
H22A H 0.5890 0.3755 0.1045
C17A C 0.4240(9) 0.1984(11) 0.2390(7)
H23A H 0.4024 0.1214 0.2016
H24A H 0.3937 0.1895 0.2865
H25A H 0.3757 0.2602 0.2246
C18A C 0.6677(9) 0.1371(6) 0.2597(4)
H26A H 0.7684 0.1589 0.2641
H27A H 0.6378 0.1197 0.3054
H28A H 0.6431 0.0655 0.2184
C19A C 0.6459(8) 0.1628(6) 0.1080(4)
C20A C 0.6097(7) 0.3620(6) 0.3884(3)
C21_2 C 0.5863(9) 0.8519(7) 0.5184(4)
H29_2 H 0.5344 0.8525 0.5601
C22_2 C 0.6778(9) 0.9535(7) 0.5194(5)
H30_2 H 0.6867 1.0206 0.5615
C23_2 C 0.7567(7) 0.9581(7) 0.4594(5)
C24_2 C 0.7393(8) 0.8556(7) 0.3992(5)
H31_2 H 0.7905 0.8532 0.3570
C25_2 C 0.6436(8) 0.7551(7) 0.4023(4)
H32_2 H 0.6326 0.6865 0.3611
C26_2 C 0.8519(8) 1.0727(7) 0.4649(5)
H33_2 H 0.8533 1.1337 0.5097
C27_2 C 0.9297(8) 1.0972(8) 0.4173(5)
H34_2 H 0.9306 1.0377 0.3721
C28_2 C 1.1761(9) 1.3470(7) 0.3779(5)
H35_2 H 1.2179 1.3617 0.3358
C29_2 C 1.0928(9) 1.2384(7) 0.3692(5)
H36_2 H 1.0842 1.1797 0.3231
C30_2 C 1.0224(8) 1.2158(7) 0.4274(5)
C31_2 C 1.0397(8) 1.3070(7) 0.4941(5)
H37_2 H 0.9901 1.2973 0.5351
C32_2 C 1.1323(7) 1.4146(7) 0.5001(4)
H38_2 H 1.1448 1.4741 0.5459
C33A C -0.2975(8) 1.7665(6) 1.0244(4)
H39A H -0.3834 1.7849 1.0444
C34A C -0.2440(8) 1.6614(6) 1.0317(4)
H40A H -0.2948 1.6097 1.0557
C35A C -0.1162(7) 1.6318(6) 1.0038(3)
C36A C -0.0459(7) 1.7131(6) 0.9694(4)
H41A H 0.0415 1.6985 0.9502
C37A C -0.1059(7) 1.8153(6) 0.9639(4)
H42A H -0.0564 1.8691 0.9408
C38A C -0.0604(7) 1.5170(6) 1.0112(4)
H43A H -0.1164 1.4658 1.0334
loop_
_geom_bond_atom_site_label_1
_geom_bond_atom_site_label_2
_geom_bond_site_symmetry_1
_geom_bond_site_symmetry_2
Cd1 O1 1_555 1_555
Cd2 O5 1_555 1_555
O1 C9 1_555 1_555
O2 Cd1 1_555 1_555
O3 C10 1_555 1_555
O4 C10 1_555 1_555
O5 C19 1_555 1_555
O6 Cd2 1_555 1_555
O7 Cd1 1_555 1_555
O8 Cd1 1_555 1_555
N1 C21 1_555 1_555
N2 Cd1 1_555 1_555
N3 Cd2 1_555 1_555
C1 C2 1_555 1_555
C2 C3 1_555 1_555
C3 H1 1_555 1_555
C4 C3 1_555 1_555
H2 C4 1_555 1_555
H3 C4 1_555 1_555
C5 C1 1_555 1_555
H4 C5 1_555 1_555
H5 C5 1_555 1_555
C6 C1 1_555 1_555
H6 C6 1_555 1_555
H7 C6 1_555 1_555
H8 C6 1_555 1_555
C7 C2 1_555 1_555
H9 C7 1_555 1_555
H10 C7 1_555 1_555
H11 C7 1_555 1_555
C8 C2 1_555 1_555
H12 C8 1_555 1_555
H13 C8 1_555 1_555
H14 C8 1_555 1_555
C9 O2 1_555 1_555
C10 C3 1_555 1_555
C11 C12 1_555 1_555
C12 C13 1_555 1_555
C13 H15 1_555 1_555
C14 C13 1_555 1_555
H16 C14 1_555 1_555
H17 C14 1_555 1_555
C15 C11 1_555 1_555
H18 C15 1_555 1_555
H19 C15 1_555 1_555
C16 C11 1_555 1_555
H20 C16 1_555 1_555
H21 C16 1_555 1_555
H22 C16 1_555 1_555
C17 C12 1_555 1_555
H23 C17 1_555 1_555
H24 C17 1_555 1_555
H25 C17 1_555 1_555
C18 C12 1_555 1_555
H26 C18 1_555 1_555
H27 C18 1_555 1_555
H28 C18 1_555 1_555
C19 O6 1_555 1_555
C20 O7 1_555 1_555
C21 H29 1_555 1_555
C22 C21 1_555 1_555
H30 C22 1_555 1_555
C23 C22 1_555 1_555
C24 C23 1_555 1_555
H31 C24 1_555 1_555
C25 N1 1_555 1_555
H32 C25 1_555 1_555
C26 C23 1_555 1_555
H33 C26 1_555 1_555
C27 C26 1_555 1_555
H34 C27 1_555 1_555
C28 N2 1_555 1_555
H35 C28 1_555 1_555
C29 C28 1_555 1_555
H36 C29 1_555 1_555
C30 C27 1_555 1_555
C31 C30 1_555 1_555
H37 C31 1_555 1_555
C32 N2 1_555 1_555
H38 C32 1_555 1_555
C33 N3 1_555 1_555
H39 C33 1_555 1_555
C34 C33 1_555 1_555
H40 C34 1_555 1_555
C35 C34 1_555 1_555
C36 C35 1_555 1_555
H41 C36 1_555 1_555
C37 N3 1_555 1_555
H42 C37 1_555 1_555
C38 C35 1_555 1_555
H43 C38 1_555 1_555
Cd1A O7 1_555 1_555
Cd1_2 N1 1_555 1_555
Cd1_3 N2_2 1_555 1_555
Cd1_4 O1_2 1_555 1_555
Cd2A O3A 1_555 1_555
Cd2_2 O3 1_555 1_555
Cd2A_2 O5 1_555 1_555
Cd2A_3 N3A 1_555 1_555
Cd2_3 O5A 1_555 1_555
O1_2 C9_2 1_555 1_555
O1A Cd1A 1_555 1_555
O2_2 Cd1_4 1_555 1_555
O2A Cd1A 1_555 1_555
O3_2 Cd2 1_555 1_555
O4_2 Cd2 1_555 1_555
O4A Cd2A 1_555 1_555
O5A Cd2A 1_555 1_555
O5A_2 Cd2 1_555 1_555
O5_2 Cd2A 1_555 1_555
O6A Cd2A 1_555 1_555
O7A Cd1 1_555 1_555
O8A Cd1A 1_555 1_555
N1_2 Cd1 1_555 1_555
N1A Cd1A 1_555 1_555
N2_2 C28_2 1_555 1_555
N2A Cd1A 1_555 1_555
N3A C33A 1_555 1_555
N3A_2 Cd2A 1_555 1_555
C1_2 C2_2 1_555 1_555
C2_2 C3_2 1_555 1_555
C3_2 H1_2 1_555 1_555
C4_2 C3_2 1_555 1_555
H2_2 C4_2 1_555 1_555
H3_2 C4_2 1_555 1_555
C5_2 C1_2 1_555 1_555
H4_2 C5_2 1_555 1_555
H5_2 C5_2 1_555 1_555
C6_2 C1_2 1_555 1_555
H6_2 C6_2 1_555 1_555
H7_2 C6_2 1_555 1_555
H8_2 C6_2 1_555 1_555
C7_2 C2_2 1_555 1_555
H9_2 C7_2 1_555 1_555
H10_2 C7_2 1_555 1_555
H11_2 C7_2 1_555 1_555
C8_2 C2_2 1_555 1_555
H12_2 C8_2 1_555 1_555
H13_2 C8_2 1_555 1_555
H14_2 C8_2 1_555 1_555
C9_2 O2_2 1_555 1_555
C10_2 O3_2 1_555 1_555
C11A C12A 1_555 1_555
C12A C13A 1_555 1_555
C13A H15A 1_555 1_555
C14A C13A 1_555 1_555
H16A C14A 1_555 1_555
H17A C14A 1_555 1_555
C15A C11A 1_555 1_555
H18A C15A 1_555 1_555
H19A C15A 1_555 1_555
C16A C11A 1_555 1_555
H20A C16A 1_555 1_555
H21A C16A 1_555 1_555
H22A C16A 1_555 1_555
C17A C12A 1_555 1_555
H23A C17A 1_555 1_555
H24A C17A 1_555 1_555
H25A C17A 1_555 1_555
C18A C12A 1_555 1_555
H26A C18A 1_555 1_555
H27A C18A 1_555 1_555
H28A C18A 1_555 1_555
C19A O5A 1_555 1_555
C20A O7A 1_555 1_555
C21_2 N1_2 1_555 1_555
H29_2 C21_2 1_555 1_555
C22_2 C21_2 1_555 1_555
H30_2 C22_2 1_555 1_555
C23_2 C22_2 1_555 1_555
C24_2 C23_2 1_555 1_555
H31_2 C24_2 1_555 1_555
C25_2 N1_2 1_555 1_555
H32_2 C25_2 1_555 1_555
C26_2 C23_2 1_555 1_555
H33_2 C26_2 1_555 1_555
C27_2 C26_2 1_555 1_555
H34_2 C27_2 1_555 1_555
C28_2 H35_2 1_555 1_555
C29_2 C28_2 1_555 1_555
H36_2 C29_2 1_555 1_555
C30_2 C27_2 1_555 1_555
C31_2 C30_2 1_555 1_555
H37_2 C31_2 1_555 1_555
C32_2 N2_2 1_555 1_555
H38_2 C32_2 1_555 1_555
C33A H39A 1_555 1_555
C34A C33A 1_555 1_555
H40A C34A 1_555 1_555
C35A C34A 1_555 1_555
C36A C35A 1_555 1_555
H41A C36A 1_555 1_555
C37A N3A 1_555 1_555
H42A C37A 1_555 1_555
C38A C38 1_555 1_555
H43A C38A 1_555 1_555
O4 Cd2_2 1_555 1_555
O8 C20 1_555 1_555
C1 C9 1_555 1_555
C4 C5 1_555 1_555
C11 C19 1_555 1_555
C13 C20 1_555 1_555
C14 C15 1_555 1_555
C24 C25 1_555 1_555
C29 C30 1_555 1_555
C31 C32 1_555 1_555
C36 C37 1_555 1_555
Cd1A O7A 1_555 1_555
Cd2A_2 O5A_2 1_555 1_555
Cd2_3 O5_2 1_555 1_555
O4_2 C10_2 1_555 1_555
O6A C19A 1_555 1_555
O8A C20A 1_555 1_555
C1_2 C9_2 1_555 1_555
C3_2 C10_2 1_555 1_555
C4_2 C5_2 1_555 1_555
C11A C19A 1_555 1_555
C13A C20A 1_555 1_555
C14A C15A 1_555 1_555
C24_2 C25_2 1_555 1_555
C29_2 C30_2 1_555 1_555
C31_2 C32_2 1_555 1_555
C35A C38A 1_555 1_555
C36A C37A 1_555 1_555

#END
