
#######################################################################
#
#                 Cambridge Crystallographic Data Centre
#                                CCDC 
#
#######################################################################
#
# If this CIF has been generated from an entry in the Cambridge 
# Structural Database, then it will include bibliographic, chemical, 
# crystal, experimental, refinement or atomic coordinate data resulting 
# from the CCDC's data processing and validation procedures.
#
#######################################################################

data_TAQVIS
_symmetry_cell_setting           monoclinic
_symmetry_space_group_name_H-M   'P 21'
_symmetry_Int_Tables_number      4
_space_group_name_Hall           'P 2yb'
loop_
_symmetry_equiv_pos_site_id
_symmetry_equiv_pos_as_xyz
1 x,y,z
2 -x,1/2+y,-z
_cell_length_a                   18.8494(7)
_cell_length_b                   10.8373(4)
_cell_length_c                   19.0705(7)
_cell_angle_alpha                90
_cell_angle_beta                 102.786(2)
_cell_angle_gamma                90
_cell_volume                     3799.06
loop_
_atom_site_label
_atom_site_type_symbol
_atom_site_fract_x
_atom_site_fract_y
_atom_site_fract_z
Cd1 Cd -0.30794(3) -0.55794(5) 1.24473(3)
Cd2 Cd -0.69250(3) 0.05671(5) 1.22020(3)
Cd3 Cd -0.19668(3) -0.82607(5) 1.19363(3)
Cd4 Cd 0.19760(3) -0.21220(5) 1.26897(3)
O1 O -0.6348(3) -0.9795(7) 1.1275(3)
O2 O -1.1310(3) 0.1968(7) 1.1049(3)
O3 O -0.3096(3) -0.9075(6) 1.1225(3)
O4 O 0.0776(3) -0.2402(6) 1.2748(3)
O5 O -0.3390(4) -0.3892(6) 1.3123(3)
O6 O -0.8084(3) -0.0405(6) 1.1963(3)
O7 O -0.8001(3) 0.1357(6) 1.1464(3)
O8 O 0.1524(4) -0.3776(5) 1.3294(3)
O9 O -0.4249(3) -0.5229(7) 1.2614(3)
O10 O -0.6177(3) -0.8012(7) 1.1829(3)
O11 O -0.3134(3) -0.7307(6) 1.1743(3)
O12 O -0.6826(5) -0.2449(11) 1.3131(6)
O13 O -0.6270(8) -0.0755(11) 1.2931(5)
O14 O -0.1885(4) -0.5767(11) 1.2587(5)
O15 O -0.1090(5) -0.7168(8) 1.2751(4)
O16 O -1.1278(3) 0.0207(6) 1.1586(3)
N1 N -0.2139(4) 0.1663(7) 0.8247(3)
N2 N -0.2994(4) -0.4341(8) 1.1494(4)
N3 N -0.1952(4) -0.9549(7) 1.2919(4)
N4 N -0.2016(5) -1.5796(7) 1.6305(4)
N5 N -0.2934(5) -0.6835(7) 1.3495(4)
N6 N -0.3033(4) -1.3123(7) 1.6852(4)
C1 C 0.0894(5) -0.3338(10) 1.3131(4)
C2 C -0.3452(5) -0.8171(10) 1.1312(4)
C3 C -0.2642(6) -1.4831(11) 1.5228(5)
H1 H -0.3067 -1.4770 1.4872
C4 C -0.3059(6) -0.3131(10) 1.1545(5)
H2 H -0.3219 -0.2811 1.1936
C5 C -0.4700(6) -1.0258(10) 1.0967(5)
H3 H -0.5022 -1.0767 1.1168
H4 H -0.4210 -1.0553 1.1125
H5 H -0.4838 -1.0291 1.0452
C6 C -0.9613(6) 0.2453(9) 1.1011(5)
H6 H -0.9973 0.2965 1.1152
H7 H -0.9678 0.2471 1.0498
H8 H -0.9136 0.2754 1.1230
C7 C -0.2269(6) -0.7826(11) 1.4536(5)
H9 H -0.1828 -0.7895 1.4868
C8 C -0.2837(7) -0.8558(9) 1.4605(5)
C9 C -0.1428(5) -1.4262(9) 1.5734(5)
H10 H -0.1013 -1.3797 1.5735
C10 C -0.3096(6) -1.1308(9) 1.5801(5)
C11 C -0.5513(4) -0.8356(11) 1.0912(4)
H11 H -0.5688 -0.8690 1.0427
C12 C -0.2511(6) -1.1402(9) 1.6361(5)
H12 H -0.2123 -1.0857 1.6402
C13 C -0.2375(6) -1.1354(9) 1.3418(5)
H13 H -0.2729 -1.1963 1.3371
C14 C -0.2133(5) 0.0428(11) 0.8161(4)
H14 H -0.2020 0.0114 0.7745
C15 C -0.2495(5) 0.1311(9) 0.9354(5)
H15 H -0.2613 0.1656 0.9760
C16 C -0.2334(7) -0.6997(11) 1.3989(5)
H16 H -0.1931 -0.6517 1.3963
C17 C -0.1277(6) -1.0451(11) 1.4005(5)
H17 H -0.0861 -1.0426 1.4373
C18 C -0.2787(6) -0.4772(9) 1.0925(5)
H18 H -0.2741 -0.5621 1.0882
C19 C -0.3172(6) -1.0360(9) 1.5229(5)
H19 H -0.3582 -1.0413 1.4855
C20 C -0.1386(6) -0.9590(9) 1.3466(5)
H20 H -0.1031 -0.8985 1.3488
C21 C -1.0412(4) 0.0512(10) 1.0848(4)
C22 C -0.4565(4) -0.8919(10) 1.2035(4)
H21 H -0.4883 -0.9477 1.2208
H22 H -0.4628 -0.8100 1.2204
H23 H -0.4070 -0.9174 1.2209
C23 C -0.4246(4) -0.8023(8) 1.0917(4)
C24 C -0.2685(5) -0.2763(9) 1.0441(4)
C25 C -0.2748(6) -0.9509(11) 1.5201(5)
H24 H -0.2340 -0.9444 1.5575
C26 C -0.1438(6) -1.5145(9) 1.6275(5)
H25 H -0.1015 -1.5272 1.6625
C27 C -0.2479(5) 0.0041(8) 0.9274(4)
C28 C -0.3654(6) -1.2151(11) 1.5779(5)
H26 H -0.4059 -1.2134 1.5398
C29 C -0.1690(6) -1.2267(11) 1.4583(5)
H27 H -0.1291 -1.2165 1.4965
C30 C -0.2284(6) -0.0382(9) 0.8657(5)
H28 H -0.2256 -0.1227 0.8580
C31 C -0.4746(5) -0.8927(8) 1.1217(4)
C32 C -0.9694(5) 0.1118(8) 1.1259(4)
C33 C -0.2611(6) -1.5648(10) 1.5777(5)
H29 H -0.3020 -1.6123 1.5786
C34 C -0.2435(5) -1.0424(10) 1.2897(5)
H30 H -0.2840 -1.0430 1.2516
C35 C -0.2635(5) -0.4023(9) 1.0391(5)
H31 H -0.2498 -0.4373 0.9996
C36 C -0.2112(6) -1.3179(12) 1.4600(5)
H32 H -0.2492 -1.3282 1.4201
C37 C -0.2544(4) -0.1942(10) 0.9868(4)
H33 H -0.2390 -0.2319 0.9490
C38 C -0.2613(4) -0.0741(10) 0.9838(4)
H34 H -0.2763 -0.0359 1.0217
C39 C -0.4027(6) -0.4299(12) 1.3005(5)
C40 C -0.4295(6) -0.2150(12) 1.3565(8)
H35 H -0.3919 -0.2093 1.4004
H36 H -0.4108 -0.1809 1.3172
C41 C -0.4936(6) -0.1509(12) 1.3642(8)
H37 H -0.5027 -0.0817 1.3311
H38 H -0.4874 -0.1195 1.4128
C42 C -0.5369(7) -0.2897(15) 1.2277(5)
H39 H -0.5114 -0.2128 1.2292
H40 H -0.5874 -0.2772 1.2058
H41 H -0.5165 -0.3485 1.2000
C43 C -0.5682(7) -0.4687(13) 1.3061(8)
H42 H -0.5618 -0.4931 1.3556
H43 H -0.5464 -0.5292 1.2807
H44 H -0.6192 -0.4625 1.2848
C44 C -0.6242(7) -0.1702(18) 1.3125(6)
C45 C -0.4557(6) -0.3637(11) 1.3394(5)
H45 H -0.4560 -0.4063 1.3847
C46 C -0.5299(7) -0.3370(14) 1.3018(6)
C47 C -0.5623(6) -0.2479(10) 1.3464(5)
C48 C 0.0086(6) -0.2933(12) 1.3940(7)
H46 H 0.0509 -0.2705 1.4297
H47 H -0.0272 -0.3281 1.4170
H48 H -0.0111 -0.2216 1.3671
C49 C 0.0497(6) -0.4973(14) 1.3862(6)
H49 H 0.0720 -0.4725 1.4350
H50 H 0.0850 -0.5451 1.3676
C50 C -0.0209(6) -0.5811(14) 1.3867(6)
H51 H -0.0127 -0.6667 1.3759
H52 H -0.0351 -0.5762 1.4325
C51 C -0.0875(6) -0.3301(12) 1.2485(7)
H53 H -0.1264 -0.3644 1.2126
H54 H -0.0601 -0.2734 1.2262
H55 H -0.1073 -0.2873 1.2839
C52 C -0.1297(6) -0.6112(11) 1.2828(5)
C53 C -0.0112(6) -0.5024(11) 1.2270(5)
H56 H -0.0524 -0.5278 1.1906
H57 H 0.0163 -0.5737 1.2468
H58 H 0.0191 -0.4487 1.2061
C54 C 0.0300(6) -0.3897(10) 1.3426(5)
C55 C -0.0751(5) -0.5234(8) 1.3290(5)
H59 H -0.1041 -0.4700 1.3533
C56 C -0.0369(5) -0.4354(10) 1.2853(5)
C57 C -0.9639(5) 0.1074(9) 1.2063(4)
H60 H -0.9999 0.1610 1.2186
H61 H -0.9163 0.1338 1.2310
H62 H -0.9721 0.0244 1.2204
C58 C -0.8368(4) 0.0392(9) 1.1507(4)
C59 C -1.0588(4) 0.0779(10) 1.0042(4)
H63 H -1.0694 0.1641 0.9964
H64 H -1.1003 0.0302 0.9811
H65 H -1.0178 0.0563 0.9845
C60 C -1.1048(5) 0.0892(10) 1.1171(5)
C61 C -0.9426(6) -0.1025(12) 1.1005(6)
H66 H -0.9340 -0.1449 1.0583
H67 H -0.9195 -0.1495 1.1427
C62 C -1.0230(5) -0.0932(9) 1.0965(5)
H68 H -1.0348 -0.1224 1.1406
H69 H -1.0502 -0.1413 1.0565
C63 C -0.4257(4) -0.8215(9) 1.0117(4)
H70 H -0.4044 -0.9000 1.0052
H71 H -0.3985 -0.7570 0.9953
H72 H -0.4751 -0.8196 0.9844
C64 C -0.6063(5) -0.8750(11) 1.1364(5)
C65 C -0.4586(4) -0.6746(8) 1.1009(5)
H73 H -0.4423 -0.6446 1.1498
H74 H -0.4459 -0.6146 1.0681
C66 C -0.5406(5) -0.6986(10) 1.0835(5)
H75 H -0.5635 -0.6533 1.1164
H76 H -0.5621 -0.6722 1.0348
C67 C -0.2498(5) -1.2328(9) 1.6876(4)
H77 H -0.2091 -1.2386 1.7253
C68 C -0.1801(6) -1.1368(9) 1.3992(5)
C69 C -0.3477(6) -0.8356(12) 1.4107(5)
H78 H -0.3888 -0.8813 1.4130
C70 C -0.2334(5) 0.2061(9) 0.8824(4)
H79 H -0.2368 0.2910 0.8881
C71 C -0.3513(7) -0.7473(10) 1.3566(5)
H80 H -0.3956 -0.7329 1.3248
C72 C -0.2063(6) -1.4102(9) 1.5192(5)
C73 C -0.5654(8) -0.2926(14) 1.4225(7)
H81 H -0.6043 -0.3508 1.4193
H82 H -0.5735 -0.2234 1.4512
H83 H -0.5201 -0.3315 1.4445
C74 C -0.2899(6) -0.2325(9) 1.1042(5)
H84 H -0.2935 -0.1479 1.1108
C75 C -0.3608(6) -1.3032(10) 1.6328(5)
H85 H -0.3998 -1.3562 1.6318
C76 C -0.9108(4) 0.0255(9) 1.1045(4)
H86 H -0.9076 0.0483 1.0556
Cd2_2 Cd -0.69250(3) -0.94329(5) 1.22020(3)
Cd2A Cd -0.30750(3) -1.44329(5) 1.77980(3)
Cd3_2 Cd -1.19668(3) 0.17393(5) 1.19363(3)
Cd4_2 Cd -0.80240(3) -0.21220(5) 1.26897(3)
Cd4A Cd -0.19760(3) 0.28780(5) 0.73103(3)
Cd4A_2 Cd -0.19760(3) -1.71220(5) 1.73103(3)
O1_2 O -0.6348(3) 0.0205(7) 1.1275(3)
O2_2 O -0.1310(3) -0.8032(7) 1.1049(3)
O6_2 O 0.1916(3) -0.0405(6) 1.1963(3)
O10_2 O -0.6177(3) 0.1988(7) 1.1829(3)
O12_2 O 0.3174(5) -0.2449(11) 1.3131(6)
O16_2 O -0.1278(3) -0.9793(6) 1.1586(3)
N1A N 0.2139(4) -0.3337(7) 1.1753(3)
N4A N 0.2016(5) -0.0796(7) 1.3695(4)
N6A N -0.6967(4) 0.1877(7) 1.3148(4)
loop_
_geom_bond_atom_site_label_1
_geom_bond_atom_site_label_2
_geom_bond_site_symmetry_1
_geom_bond_site_symmetry_2
Cd1 O5 1_555 1_555
Cd2 O6 1_555 1_555
Cd3 O3 1_555 1_555
Cd4 O4 1_555 1_555
O1 C64 1_555 1_555
O2 C60 1_555 1_555
O3 C2 1_555 1_555
O4 C1 1_555 1_555
O5 C39 1_555 1_555
O6 C58 1_555 1_555
O7 Cd2 1_555 1_555
O8 Cd4 1_555 1_555
O9 Cd1 1_555 1_555
O10 C64 1_555 1_555
O11 Cd1 1_555 1_555
O12 C44 1_555 1_555
O13 Cd2 1_555 1_555
O14 Cd1 1_555 1_555
O15 Cd3 1_555 1_555
O16 C60 1_555 1_555
N1 C14 1_555 1_555
N2 Cd1 1_555 1_555
N3 Cd3 1_555 1_555
N4 C26 1_555 1_555
N5 Cd1 1_555 1_555
N6 C67 1_555 1_555
C1 O8 1_555 1_555
C2 O11 1_555 1_555
C3 H1 1_555 1_555
C4 N2 1_555 1_555
H2 C4 1_555 1_555
C5 H3 1_555 1_555
H4 C5 1_555 1_555
H5 C5 1_555 1_555
C6 H6 1_555 1_555
H7 C6 1_555 1_555
H8 C6 1_555 1_555
C7 H9 1_555 1_555
C8 C7 1_555 1_555
C9 H10 1_555 1_555
C10 C12 1_555 1_555
C11 H11 1_555 1_555
C12 H12 1_555 1_555
C13 H13 1_555 1_555
C14 H14 1_555 1_555
C15 H15 1_555 1_555
C16 N5 1_555 1_555
H16 C16 1_555 1_555
C17 H17 1_555 1_555
C18 N2 1_555 1_555
H18 C18 1_555 1_555
C19 C10 1_555 1_555
H19 C19 1_555 1_555
C20 N3 1_555 1_555
H20 C20 1_555 1_555
C21 C32 1_555 1_555
C22 H21 1_555 1_555
H22 C22 1_555 1_555
H23 C22 1_555 1_555
C23 C2 1_555 1_555
C24 C35 1_555 1_555
C25 C8 1_555 1_555
H24 C25 1_555 1_555
C26 C9 1_555 1_555
H25 C26 1_555 1_555
C27 C15 1_555 1_555
C28 C10 1_555 1_555
H26 C28 1_555 1_555
C29 H27 1_555 1_555
C30 C14 1_555 1_555
H28 C30 1_555 1_555
C31 C5 1_555 1_555
C32 C6 1_555 1_555
C33 N4 1_555 1_555
H29 C33 1_555 1_555
C34 N3 1_555 1_555
H30 C34 1_555 1_555
C35 C18 1_555 1_555
H31 C35 1_555 1_555
C36 C29 1_555 1_555
H32 C36 1_555 1_555
C37 C24 1_555 1_555
H33 C37 1_555 1_555
C38 C27 1_555 1_555
H34 C38 1_555 1_555
C39 O9 1_555 1_555
C40 H35 1_555 1_555
H36 C40 1_555 1_555
C41 C40 1_555 1_555
H37 C41 1_555 1_555
H38 C41 1_555 1_555
C42 H39 1_555 1_555
H40 C42 1_555 1_555
H41 C42 1_555 1_555
C43 H42 1_555 1_555
H43 C43 1_555 1_555
H44 C43 1_555 1_555
C44 O13 1_555 1_555
C45 C39 1_555 1_555
H45 C45 1_555 1_555
C46 C42 1_555 1_555
C47 C41 1_555 1_555
C48 H46 1_555 1_555
H47 C48 1_555 1_555
H48 C48 1_555 1_555
C49 H49 1_555 1_555
H50 C49 1_555 1_555
C50 C49 1_555 1_555
H51 C50 1_555 1_555
H52 C50 1_555 1_555
C51 H53 1_555 1_555
H54 C51 1_555 1_555
H55 C51 1_555 1_555
C52 O14 1_555 1_555
C53 H56 1_555 1_555
H57 C53 1_555 1_555
H58 C53 1_555 1_555
C54 C1 1_555 1_555
C55 C50 1_555 1_555
H59 C55 1_555 1_555
C56 C51 1_555 1_555
C57 C32 1_555 1_555
H60 C57 1_555 1_555
H61 C57 1_555 1_555
H62 C57 1_555 1_555
C58 O7 1_555 1_555
C59 C21 1_555 1_555
H63 C59 1_555 1_555
H64 C59 1_555 1_555
H65 C59 1_555 1_555
C60 C21 1_555 1_555
C61 H66 1_555 1_555
H67 C61 1_555 1_555
C62 C21 1_555 1_555
H68 C62 1_555 1_555
H69 C62 1_555 1_555
C63 C23 1_555 1_555
H70 C63 1_555 1_555
H71 C63 1_555 1_555
H72 C63 1_555 1_555
C64 C11 1_555 1_555
C65 C23 1_555 1_555
H73 C65 1_555 1_555
H74 C65 1_555 1_555
C66 C11 1_555 1_555
H75 C66 1_555 1_555
H76 C66 1_555 1_555
C67 C12 1_555 1_555
H77 C67 1_555 1_555
C68 C13 1_555 1_555
C69 C8 1_555 1_555
H78 C69 1_555 1_555
C70 N1 1_555 1_555
H79 C70 1_555 1_555
C71 N5 1_555 1_555
H80 C71 1_555 1_555
C72 C3 1_555 1_555
C73 C47 1_555 1_555
H81 C73 1_555 1_555
H82 C73 1_555 1_555
H83 C73 1_555 1_555
C74 C4 1_555 1_555
H84 C74 1_555 1_555
C75 N6 1_555 1_555
H85 C75 1_555 1_555
C76 C32 1_555 1_555
H86 C76 1_555 1_555
Cd2_2 O1 1_555 1_555
Cd2A N6 1_555 1_555
Cd3_2 O2 1_555 1_555
Cd4_2 O6 1_555 1_555
Cd4A N1 1_555 1_555
Cd4A_2 N4 1_555 1_555
O1_2 Cd2 1_555 1_555
O2_2 Cd3 1_555 1_555
O6_2 Cd4 1_555 1_555
O10_2 Cd2 1_555 1_555
O12_2 Cd4 1_555 1_555
O16_2 Cd3 1_555 1_555
N1A Cd4 1_555 1_555
N4A Cd4 1_555 1_555
N6A Cd2 1_555 1_555
Cd3 O11 1_555 1_555
O10 Cd2_2 1_555 1_555
O12 Cd4_2 1_555 1_555
O15 C52 1_555 1_555
O16 Cd3_2 1_555 1_555
C3 C33 1_555 1_555
C7 C16 1_555 1_555
C9 C72 1_555 1_555
C11 C31 1_555 1_555
C13 C34 1_555 1_555
C15 C70 1_555 1_555
C17 C20 1_555 1_555
C17 C68 1_555 1_555
C19 C25 1_555 1_555
C22 C31 1_555 1_555
C23 C31 1_555 1_555
C24 C74 1_555 1_555
C27 C30 1_555 1_555
C28 C75 1_555 1_555
C29 C68 1_555 1_555
C36 C72 1_555 1_555
C37 C38 1_555 1_555
C40 C45 1_555 1_555
C43 C46 1_555 1_555
C44 C47 1_555 1_555
C45 C46 1_555 1_555
C46 C47 1_555 1_555
C48 C54 1_555 1_555
C49 C54 1_555 1_555
C52 C55 1_555 1_555
C53 C56 1_555 1_555
C54 C56 1_555 1_555
C55 C56 1_555 1_555
C58 C76 1_555 1_555
C61 C62 1_555 1_555
C61 C76 1_555 1_555
C65 C66 1_555 1_555
C69 C71 1_555 1_555

#END
