
#######################################################################
#
#                 Cambridge Crystallographic Data Centre
#                                CCDC 
#
#######################################################################
#
# If this CIF has been generated from an entry in the Cambridge 
# Structural Database, then it will include bibliographic, chemical, 
# crystal, experimental, refinement or atomic coordinate data resulting 
# from the CCDC's data processing and validation procedures.
#
#######################################################################

data_TAQXUF
_symmetry_cell_setting           triclinic
_symmetry_space_group_name_H-M   'P -1'
_symmetry_Int_Tables_number      2
_space_group_name_Hall           '-P 1'
loop_
_symmetry_equiv_pos_site_id
_symmetry_equiv_pos_as_xyz
1 x,y,z
2 -x,-y,-z
_cell_length_a                   7.2200(14)
_cell_length_b                   10.140(2)
_cell_length_c                   12.080(2)
_cell_angle_alpha                93.79(3)
_cell_angle_beta                 103.21(3)
_cell_angle_gamma                104.21(3)
_cell_volume                     827.615
loop_
_atom_site_label
_atom_site_type_symbol
_atom_site_fract_x
_atom_site_fract_y
_atom_site_fract_z
V1 V 0.48819(4) 0.03887(3) 1.21076(2)
O1 O 0.38825(17) 0.29890(12) 0.92992(10)
O2 O 0.48337(19) 0.16776(12) 1.09285(10)
O3 O 0.56779(16) 0.11785(12) 0.90678(11)
O4 O 0.42943(19) 0.07725(14) 0.66491(12)
O5 O 0.2021(2) 0.16356(15) 0.56053(13)
O6 O 0.33410(17) -0.20694(12) 0.68114(11)
O7 O 0.0648(2) -0.37963(14) 0.64107(14)
O8 O 0.28336(19) 0.03326(15) 1.24126(14)
P1 P 0.41953(6) 0.16339(4) 0.96220(4)
N1 N 0.18692(19) -0.04201(13) 0.79481(11)
C1 C 0.1916(2) 0.02552(16) 0.90872(14)
H1 H 0.1839 -0.0415 0.9623
H2 H 0.0786 0.0628 0.9023
C2 C 0.1096(3) 0.03117(19) 0.70046(15)
H3 H 0.0596 0.1019 0.7317
H4 H -0.0006 -0.0331 0.6460
C3 C 0.2581(3) 0.09627(18) 0.63776(16)
C4 C 0.0813(2) -0.18895(17) 0.77421(16)
H5 H -0.0585 -0.2002 0.7421
H6 H 0.0970 -0.2271 0.8462
C5 C 0.1623(2) -0.26528(17) 0.69158(15)
Co1 Co 0.5000 0.5000 1.0000
N2 N 0.1939(2) 0.50640(15) 0.99665(13)
O9 O 0.4763(3) 0.56113(14) 0.83634(12)
H7 H 0.502(4) 0.6456(10) 0.839(2)
H8 H 0.448(4) 0.522(2) 0.7698(11)
C6 C 0.0397(3) 0.4324(2) 0.91448(17)
H9 H 0.0621 0.3836 0.8532
C7 C 0.1526(3) 0.57413(19) 1.08241(16)
H10 H 0.2559 0.6271 1.1416
V1A V 0.51181(4) 0.96113(3) 0.78924(2)
V1A_2 V 0.51181(4) -0.03887(3) 0.78924(2)
V1_2 V 0.48819(4) 1.03887(3) 1.21076(2)
O1A O 0.61175(17) 0.70110(12) 1.07008(10)
O2A O 0.51663(19) 0.83224(12) 0.90715(10)
O3A O 0.43221(16) 0.88215(12) 1.09322(11)
O3A_2 O 0.43221(16) -0.11785(12) 1.09322(11)
O3_2 O 0.56779(16) 1.11785(12) 0.90678(11)
O4A O 0.57057(19) 0.92275(14) 1.33509(12)
O4A_2 O 0.57057(19) -0.07725(14) 1.33509(12)
O4_2 O 0.42943(19) 1.07725(14) 0.66491(12)
O5A O 0.7979(2) 0.83644(15) 1.43947(13)
O6A O 0.66590(17) 1.20694(12) 1.31886(11)
O6A_2 O 0.66590(17) 0.20694(12) 1.31886(11)
O6_2 O 0.33410(17) 0.79306(12) 0.68114(11)
O7A O 0.9352(2) 1.37963(14) 1.35893(14)
O8A O 0.71664(19) 0.96674(15) 0.75874(14)
P1A P 0.58047(6) 0.83661(4) 1.03780(4)
N1A N 0.81308(19) 1.04201(13) 1.20519(11)
N1A_2 N 0.81308(19) 0.04201(13) 1.20519(11)
N1_2 N 0.18692(19) 0.95799(13) 0.79481(11)
C1A C 0.8084(2) 0.97448(16) 1.09128(14)
H1A H 0.8161 1.0415 1.0377
H2A H 0.9214 0.9372 1.0977
C2A C 0.8904(3) 0.96883(19) 1.29954(15)
H3A H 0.9404 0.8981 1.2683
H4A H 1.0006 1.0331 1.3540
C3A C 0.7419(3) 0.90373(18) 1.36224(16)
C4A C 0.9187(2) 1.18895(17) 1.22579(16)
H5A H 1.0585 1.2002 1.2579
H6A H 0.9030 1.2271 1.1538
C5A C 0.8377(2) 1.26528(17) 1.30842(15)
Co1_2 Co -0.5000 0.5000 1.0000
N2A N -0.1939(2) 0.49360(15) 1.00335(13)
N2A_2 N 0.8061(2) 0.49360(15) 1.00335(13)
O9A O 0.5237(3) 0.43887(14) 1.16366(12)
H7A H 0.498(4) 0.3544(10) 1.161(2)
H8A H 0.552(4) 0.478(2) 1.2302(11)
C6A C -0.0397(3) 0.5676(2) 1.08552(17)
H9A H -0.0621 0.6164 1.1468
C7A C -0.1526(3) 0.42587(19) 0.91759(16)
H10A H -0.2559 0.3729 0.8584
Co2 Co 0.5000 0.5000 0.5000
O10 O 0.28922(19) 0.44976(14) 0.60052(12)
H11 H 0.234(3) 0.3656(10) 0.590(2)
H12 H 0.208(3) 0.4943(18) 0.602(2)
O11 O 0.4097(2) 0.29797(13) 0.42618(12)
H13 H 0.355(3) 0.2393(19) 0.4626(19)
H14 H 0.490(3) 0.267(2) 0.399(2)
O12 O 0.2951(2) 0.54223(15) 0.36770(13)
H15 H 0.276(3) 0.6200(12) 0.380(2)
H16 H 0.187(2) 0.4825(16) 0.359(2)
O10A O 0.71078(19) 0.55024(14) 0.39948(12)
H11A H 0.766(3) 0.6344(10) 0.410(2)
H12A H 0.792(3) 0.5057(18) 0.398(2)
O11A O 0.5903(2) 0.70203(13) 0.57382(12)
H13A H 0.645(3) 0.7607(19) 0.5374(19)
H14A H 0.510(3) 0.733(2) 0.601(2)
O12A O 0.7049(2) 0.45777(15) 0.63230(13)
H15A H 0.724(3) 0.3800(12) 0.620(2)
H16A H 0.813(2) 0.5175(16) 0.641(2)
O13 O 0.7873(3) 0.2140(2) 0.6045(2)
H17 H 0.866(4) 0.188(3) 0.575(3)
H18 H 0.695(4) 0.151(2) 0.611(3)
loop_
_geom_bond_atom_site_label_1
_geom_bond_atom_site_label_2
_geom_bond_site_symmetry_1
_geom_bond_site_symmetry_2
V1 O2 1_555 1_555
O1 P1 1_555 1_555
O2 P1 1_555 1_555
O3 P1 1_555 1_555
O4 C3 1_555 1_555
O5 C3 1_555 1_555
O6 C5 1_555 1_555
O7 C5 1_555 1_555
O8 V1 1_555 1_555
P1 C1 1_555 1_555
N1 C1 1_555 1_555
C1 H1 1_555 1_555
H2 C1 1_555 1_555
C2 N1 1_555 1_555
H3 C2 1_555 1_555
H4 C2 1_555 1_555
C3 C2 1_555 1_555
C4 N1 1_555 1_555
H5 C4 1_555 1_555
H6 C4 1_555 1_555
C5 C4 1_555 1_555
Co1 O1 1_555 1_555
N2 Co1 1_555 1_555
O9 Co1 1_555 1_555
H7 O9 1_555 1_555
H8 O9 1_555 1_555
C6 N2 1_555 1_555
H9 C6 1_555 1_555
C7 N2 1_555 1_555
H10 C7 1_555 1_555
Co2 O10 1_555 1_555
O10 H11 1_555 1_555
H12 O10 1_555 1_555
O11 Co2 1_555 1_555
H13 O11 1_555 1_555
H14 O11 1_555 1_555
O12 Co2 1_555 1_555
H15 O12 1_555 1_555
H16 O12 1_555 1_555
O13 H17 1_555 1_555
H18 O13 1_555 1_555
V1A O2A 1_555 1_555
V1A_2 O3 1_555 1_555
V1_2 O3A 1_555 1_555
O1A Co1 1_555 1_555
O2A P1A 1_555 1_555
O3A P1A 1_555 1_555
O3A_2 V1 1_555 1_555
O3_2 V1A 1_555 1_555
O4A V1_2 1_555 1_555
O4A_2 V1 1_555 1_555
O4_2 V1A 1_555 1_555
O5A C3A 1_555 1_555
O6A V1_2 1_555 1_555
O6A_2 V1 1_555 1_555
O6_2 V1A 1_555 1_555
O7A C5A 1_555 1_555
O8A V1A 1_555 1_555
P1A O1A 1_555 1_555
N1A V1_2 1_555 1_555
N1A_2 V1 1_555 1_555
N1_2 V1A 1_555 1_555
C1A P1A 1_555 1_555
H1A C1A 1_555 1_555
H2A C1A 1_555 1_555
C2A N1A 1_555 1_555
H3A C2A 1_555 1_555
H4A C2A 1_555 1_555
C3A O4A 1_555 1_555
C4A N1A 1_555 1_555
H5A C4A 1_555 1_555
H6A C4A 1_555 1_555
C5A O6A 1_555 1_555
Co1_2 N2A 1_555 1_555
N2A C6A 1_555 1_555
N2A_2 Co1 1_555 1_555
O9A Co1 1_555 1_555
H7A O9A 1_555 1_555
H8A O9A 1_555 1_555
C6A C7 1_555 1_555
H9A C6A 1_555 1_555
C7A C6 1_555 1_555
H10A C7A 1_555 1_555
O10A Co2 1_555 1_555
H11A O10A 1_555 1_555
H12A O10A 1_555 1_555
O11A Co2 1_555 1_555
H13A O11A 1_555 1_555
H14A O11A 1_555 1_555
O12A Co2 1_555 1_555
H15A O12A 1_555 1_555
H16A O12A 1_555 1_555
O4 V1A_2 1_555 1_555
O6 V1A_2 1_555 1_555
N1 V1A_2 1_555 1_555
N1A C1A 1_555 1_555
C2A C3A 1_555 1_555
C4A C5A 1_555 1_555
N2A C7A 1_555 1_555

#END
