
#######################################################################
#
#                 Cambridge Crystallographic Data Centre
#                                CCDC 
#
#######################################################################
#
# If this CIF has been generated from an entry in the Cambridge 
# Structural Database, then it will include bibliographic, chemical, 
# crystal, experimental, refinement or atomic coordinate data resulting 
# from the CCDC's data processing and validation procedures.
#
#######################################################################

data_TAQYUH
_symmetry_cell_setting           monoclinic
_symmetry_space_group_name_H-M   'P 21/c'
_symmetry_Int_Tables_number      14
_space_group_name_Hall           '-P 2ybc'
loop_
_symmetry_equiv_pos_site_id
_symmetry_equiv_pos_as_xyz
1 x,y,z
2 -x,1/2+y,1/2-z
3 -x,-y,-z
4 x,1/2-y,1/2+z
_cell_length_a                   19.256(4)
_cell_length_b                   5.3176(10)
_cell_length_c                   18.467(4)
_cell_angle_alpha                90
_cell_angle_beta                 91.078(7)
_cell_angle_gamma                90
_cell_volume                     1890.61
loop_
_atom_site_label
_atom_site_type_symbol
_atom_site_fract_x
_atom_site_fract_y
_atom_site_fract_z
Ni1 Ni 0.45939(3) 0.44653(12) 0.36659(3)
S1 S 0.35433(6) 0.6771(2) 0.30946(6)
S2 S 0.31811(6) 0.4744(3) 0.16450(7)
O1 O 0.43158(16) 1.1330(6) 0.31367(17)
O2 O 0.47910(15) 1.1231(6) 0.20365(17)
O3 O 0.35285(18) 0.8975(9) 0.0538(2)
O4 O 0.46012(16) 0.7784(7) 0.07841(17)
O5 O 0.47144(18) 0.7605(7) 0.43031(18)
O6 O 0.39518(17) 0.3079(7) 0.44470(19)
H1 H 0.3711(11) 0.183(3) 0.443(3)
H2 H 0.3782(15) 0.398(4) 0.4746(12)
C1 C 0.3019(2) 0.4557(10) 0.2590(3)
C2 C 0.3916(2) 0.8223(9) 0.2340(3)
C3 C 0.3745(2) 0.7290(9) 0.1687(2)
C4 C 0.4382(2) 1.0411(9) 0.2509(2)
C5 C 0.3968(2) 0.8174(10) 0.0948(3)
Ni2 Ni -0.01860(3) 0.15482(13) 0.36529(3)
S3 S 0.20992(6) 0.0980(3) 0.22923(7)
S4 S 0.23757(6) 0.2786(3) 0.37710(7)
O7 O 0.09489(16) -0.2025(7) 0.20303(19)
O8 O 0.02239(16) -0.0306(7) 0.28069(19)
O9 O 0.1493(2) 0.1392(9) 0.4859(2)
O10 O 0.05779(16) -0.0141(7) 0.42700(19)
O11 O -0.08247(18) -0.1509(7) 0.3852(2)
O12 O -0.0592(2) 0.3221(8) 0.4546(2)
O13 O 0.04137(18) 0.4733(7) 0.3528(2)
C6 C 0.2580(2) 0.3093(11) 0.2834(3)
C7 C 0.1454(2) 0.0438(10) 0.2937(3)
C8 C 0.1590(2) 0.1215(10) 0.3613(3)
C9 C 0.0823(2) -0.0764(9) 0.2577(3)
C10 C 0.1186(3) 0.0835(10) 0.4290(3)
Ni1_2 Ni 0.45939(3) 1.44653(12) 0.36659(3)
Ni1A Ni 0.54061(3) 0.94653(12) 0.13341(3)
O1_2 O 0.43158(16) 0.1330(6) 0.31367(17)
O2A O 0.52090(15) 0.6231(6) 0.29635(17)
O4A O 0.53988(16) 0.2784(7) 0.42159(17)
Ni2A Ni 0.01860(3) -0.34518(13) 0.13471(3)
O7A O -0.09489(16) 0.2975(7) 0.29697(19)
O14 O 0.8005(3) 0.4250(13) 0.4487(4)
H3 H 0.7759(12) 0.308(4) 0.437(3)
H4 H 0.8176(18) 0.469(9) 0.4869(11)
loop_
_geom_bond_atom_site_label_1
_geom_bond_atom_site_label_2
_geom_bond_site_symmetry_1
_geom_bond_site_symmetry_2
Ni1 S1 1_555 1_555
S1 C1 1_555 1_555
S2 C1 1_555 1_555
O1 C4 1_555 1_555
O2 C4 1_555 1_555
O3 C5 1_555 1_555
O4 C5 1_555 1_555
O5 Ni1 1_555 1_555
O6 Ni1 1_555 1_555
H1 O6 1_555 1_555
H2 O6 1_555 1_555
C1 C6 1_555 1_555
C2 S1 1_555 1_555
C3 S2 1_555 1_555
C4 C2 1_555 1_555
C5 C3 1_555 1_555
Ni2 O8 1_555 1_555
S3 C6 1_555 1_555
S4 C6 1_555 1_555
O7 C9 1_555 1_555
O8 C9 1_555 1_555
O9 C10 1_555 1_555
O10 Ni2 1_555 1_555
O11 Ni2 1_555 1_555
O12 Ni2 1_555 1_555
O13 Ni2 1_555 1_555
C7 S3 1_555 1_555
C8 S4 1_555 1_555
C9 C7 1_555 1_555
C10 O10 1_555 1_555
O14 H3 1_555 1_555
H4 O14 1_555 1_555
Ni1_2 O1 1_555 1_555
Ni1A O2 1_555 1_555
O1_2 Ni1 1_555 1_555
O2A Ni1 1_555 1_555
O4A Ni1 1_555 1_555
Ni2A O7 1_555 1_555
O7A Ni2 1_555 1_555
O4 Ni1A 1_555 1_555
C2 C3 1_555 1_555
C7 C8 1_555 1_555
C8 C10 1_555 1_555

#END
