
#######################################################################
#
#                 Cambridge Crystallographic Data Centre
#                                CCDC 
#
#######################################################################
#
# If this CIF has been generated from an entry in the Cambridge 
# Structural Database, then it will include bibliographic, chemical, 
# crystal, experimental, refinement or atomic coordinate data resulting 
# from the CCDC's data processing and validation procedures.
#
#######################################################################

data_TARDOF01
_symmetry_cell_setting           orthorhombic
_symmetry_space_group_name_H-M   'I m a 2'
_symmetry_Int_Tables_number      46
_space_group_name_Hall           'I 2 -2a'
loop_
_symmetry_equiv_pos_site_id
_symmetry_equiv_pos_as_xyz
1 x,y,z
2 -x,-y,z
3 1/2-x,y,z
4 1/2+x,-y,z
5 1/2+x,1/2+y,1/2+z
6 1/2-x,1/2-y,1/2+z
7 -x,1/2+y,1/2+z
8 x,1/2-y,1/2+z
_cell_length_a                   6.894(2)
_cell_length_b                   19.687(3)
_cell_length_c                   6.442(3)
_cell_angle_alpha                90
_cell_angle_beta                 90
_cell_angle_gamma                90
_cell_volume                     874.322
loop_
_atom_site_label
_atom_site_type_symbol
_atom_site_fract_x
_atom_site_fract_y
_atom_site_fract_z
Na1 Na 0.2500 -0.22831(6) -0.0799(9)
O1 O 0.2500 -0.3855(2) -0.472(1)
O2 O 0.2500 -0.3618(1) -0.145(1)
O3 O 0.2500 -0.67817(10) -0.1175(9)
O4 O 0.4932(2) -0.26359(9) 0.1650(10)
N1 N 0.2500 -0.4031(1) -0.288(1)
C1 C 0.2500 -0.4744(2) -0.242(1)
C2 C 0.2500 -0.5201(2) -0.404(1)
C3 C 0.2500 -0.5886(2) -0.363(1)
C4 C 0.2500 -0.6132(2) -0.157(1)
C5 C 0.2500 -0.5643(2) 0.003(1)
C6 C 0.2500 -0.4957(2) -0.0394(10)
H1 H 0.2500 -0.505(2) -0.532(7)
H2 H 0.2500 -0.618(3) -0.48(1)
H3 H -0.050(4) -0.290(1) 0.093(4)
H4 H -0.066(5) -0.237(2) 0.234(6)
H5 H 0.2500 -0.585(2) 0.146(7)
H6 H 0.2500 -0.459(2) 0.056(8)
Na1E Na 0.2500 -0.27169(6) -0.5799(9)
O1E O 0.2500 -0.1145(2) 0.028(1)
Na1E_2 Na 0.2500 -0.27169(6) 0.4201(9)
O4B O 0.0068(2) -0.26359(9) 0.1650(10)
H3B H 0.550(4) -0.290(1) 0.093(4)
H4B H 0.566(5) -0.237(2) 0.234(6)
O4E O 0.0068(2) -0.23641(9) -0.3350(10)
H3G H -0.050(4) -0.210(1) -0.407(4)
H4G H -0.066(5) -0.263(2) -0.266(6)
O4G O 0.4932(2) -0.23641(9) -0.3350(10)
H3E H 0.550(4) -0.210(1) -0.407(4)
H4E H 0.566(5) -0.263(2) -0.266(6)
loop_
_geom_bond_atom_site_label_1
_geom_bond_atom_site_label_2
_geom_bond_site_symmetry_1
_geom_bond_site_symmetry_2
Na1 O2 1_555 1_555
O1 N1 1_555 1_555
O2 N1 1_555 1_555
O3 C4 1_555 1_555
O4 Na1 1_555 1_555
N1 C1 1_555 1_555
C1 C2 1_555 1_555
C2 C3 1_555 1_555
C3 C4 1_555 1_555
C4 C5 1_555 1_555
C5 C6 1_555 1_555
C6 C1 1_555 1_555
H1 C2 1_555 1_555
H2 C3 1_555 1_555
H3 O4B 1_555 1_555
H4 O4B 1_555 1_555
H5 C5 1_555 1_555
H6 C6 1_555 1_555
Na1E O1 1_555 1_555
O1E Na1 1_555 1_555
Na1E_2 O4 1_555 1_555
O4B Na1 1_555 1_555
H3B O4 1_555 1_555
H4B O4 1_555 1_555
O4E Na1 1_555 1_555
H3G O4E 1_555 1_555
H4G O4E 1_555 1_555
O4G Na1 1_555 1_555
H3E O4G 1_555 1_555
H4E O4G 1_555 1_555
Na1E O4E 1_555 1_555
Na1E O4G 1_555 1_555
Na1E_2 O4B 1_555 1_555

#END
