
#######################################################################
#
#                 Cambridge Crystallographic Data Centre
#                                CCDC 
#
#######################################################################
#
# If this CIF has been generated from an entry in the Cambridge 
# Structural Database, then it will include bibliographic, chemical, 
# crystal, experimental, refinement or atomic coordinate data resulting 
# from the CCDC's data processing and validation procedures.
#
#######################################################################

data_TARDOF02
_symmetry_cell_setting           orthorhombic
_symmetry_space_group_name_H-M   'I m a 2'
_symmetry_Int_Tables_number      46
_space_group_name_Hall           'I 2 -2a'
loop_
_symmetry_equiv_pos_site_id
_symmetry_equiv_pos_as_xyz
1 x,y,z
2 -x,-y,z
3 1/2-x,y,z
4 1/2+x,-y,z
5 1/2+x,1/2+y,1/2+z
6 1/2-x,1/2-y,1/2+z
7 -x,1/2+y,1/2+z
8 x,1/2-y,1/2+z
_cell_length_a                   6.888(6)
_cell_length_b                   19.699(8)
_cell_length_c                   6.436(8)
_cell_angle_alpha                90
_cell_angle_beta                 90
_cell_angle_gamma                90
_cell_volume                     873.28
loop_
_atom_site_label
_atom_site_type_symbol
_atom_site_fract_x
_atom_site_fract_y
_atom_site_fract_z
Na1 Na 0.2500 -0.27157(5) 0.0000
O1 O 0.2500 -0.67810(8) -0.4619(4)
C1 C 0.2500 -0.6132(1) -0.4220(6)
C2 C 0.2500 -0.5891(2) -0.2170(7)
C3 C 0.2500 -0.5202(2) -0.1744(7)
C4 C 0.2500 -0.4746(2) -0.3356(7)
N1 N 0.2500 -0.4028(1) -0.2906(7)
O2 O 0.2500 -0.3851(1) -0.1077(6)
O3 O 0.2500 -0.3619(1) -0.4339(6)
C5 C 0.2500 -0.4959(2) -0.5388(6)
C6 C 0.2500 -0.5646(2) -0.5811(7)
O4 O 0.4927(2) -0.23625(9) -0.2443(3)
H1 H 0.2500 -0.619(2) -0.093(8)
H2 H 0.2500 -0.505(2) -0.046(6)
H3 H 0.2500 -0.462(2) -0.636(7)
H4 H 0.2500 -0.583(2) -0.729(6)
H5 H 0.533(3) -0.263(1) -0.300(4)
H6 H 0.566(4) -0.212(1) -0.169(4)
Na1E Na 0.2500 -0.22843(5) -0.5000
Na1E_2 Na 0.2500 -0.22843(5) 0.5000
O4B O 0.0073(2) -0.23625(9) -0.2443(3)
O4E O 0.0073(2) -0.26375(9) 0.2557(3)
O4G O 0.4927(2) -0.26375(9) 0.2557(3)
O3E O 0.2500 -0.1381(1) 0.0661(6)
H5B H -0.033(3) -0.263(1) -0.300(4)
H6B H -0.066(4) -0.212(1) -0.169(4)
H5E H -0.033(3) -0.237(1) 0.200(4)
H6E H -0.066(4) -0.288(1) 0.331(4)
H5G H 0.533(3) -0.237(1) 0.200(4)
H6G H 0.566(4) -0.288(1) 0.331(4)
loop_
_geom_bond_atom_site_label_1
_geom_bond_atom_site_label_2
_geom_bond_site_symmetry_1
_geom_bond_site_symmetry_2
Na1 O2 1_555 1_555
O1 C1 1_555 1_555
C1 C2 1_555 1_555
C2 C3 1_555 1_555
C3 C4 1_555 1_555
C4 N1 1_555 1_555
N1 O2 1_555 1_555
O3 N1 1_555 1_555
C5 C4 1_555 1_555
C6 C1 1_555 1_555
O4 Na1 1_555 1_555
H1 C2 1_555 1_555
H2 C3 1_555 1_555
H3 C5 1_555 1_555
H4 C6 1_555 1_555
H5 O4 1_555 1_555
H6 O4 1_555 1_555
Na1E O3 1_555 1_555
Na1E_2 O4E 1_555 1_555
O4B Na1 1_555 1_555
O4E Na1 1_555 1_555
O4G Na1 1_555 1_555
O3E Na1 1_555 1_555
H5B O4B 1_555 1_555
H6B O4B 1_555 1_555
H5E O4E 1_555 1_555
H6E O4E 1_555 1_555
H5G O4G 1_555 1_555
H6G O4G 1_555 1_555
C5 C6 1_555 1_555
O4 Na1E 1_555 1_555
Na1E O4B 1_555 1_555
Na1E_2 O4G 1_555 1_555

#END
