
#######################################################################
#
#                 Cambridge Crystallographic Data Centre
#                                CCDC 
#
#######################################################################
#
# If this CIF has been generated from an entry in the Cambridge 
# Structural Database, then it will include bibliographic, chemical, 
# crystal, experimental, refinement or atomic coordinate data resulting 
# from the CCDC's data processing and validation procedures.
#
#######################################################################

data_TARDUN
_symmetry_cell_setting           orthorhombic
_symmetry_space_group_name_H-M   'P n n m'
_symmetry_Int_Tables_number      58
_space_group_name_Hall           '-P 2 2n'
loop_
_symmetry_equiv_pos_site_id
_symmetry_equiv_pos_as_xyz
1 x,y,z
2 -x,-y,z
3 1/2-x,1/2+y,1/2-z
4 1/2+x,1/2-y,1/2-z
5 -x,-y,-z
6 x,y,-z
7 1/2+x,1/2-y,1/2+z
8 1/2-x,1/2+y,1/2+z
_cell_length_a                   10.407(4)
_cell_length_b                   15.894(5)
_cell_length_c                   19.417(7)
_cell_angle_alpha                90
_cell_angle_beta                 90
_cell_angle_gamma                90
_cell_volume                     3211.74
loop_
_atom_site_label
_atom_site_type_symbol
_atom_site_fract_x
_atom_site_fract_y
_atom_site_fract_z
O21 O 0.5000 1.0000 0.084(2)
O22 O 0.269(5) 1.075(4) 0.0000
W1 W 1.28375(4) 0.94401(3) 0.59137(2)
W2 W 1.27071(5) 1.13700(3) 0.5000
W3 W 0.98725(4) 1.19312(3) 0.59167(2)
W4 W 1.0000 1.0000 0.68315(3)
P1 P 1.0000 1.0000 0.5000
O1 O 1.1494(18) 1.0054(10) 0.5000
O2 O 1.0423(17) 1.0879(12) 0.5000
O3 O 1.0485(11) 0.9555(8) 0.5651(6)
O4 O 1.3269(15) 0.9137(7) 0.5000
O5 O 1.1768(9) 0.9841(5) 0.6625(5)
O6 O 1.0000 1.0000 0.7681(5)
O7 O 1.4139(7) 0.9182(5) 0.6352(4)
O8 O 1.3190(10) 1.0568(5) 0.4333(4)
O9 O 1.3927(11) 1.2042(8) 0.5000
O10 O 1.1839(7) 0.8424(5) 0.5968(5)
O11 O 1.1620(8) 1.1855(6) 0.5657(4)
O12 O 0.9525(10) 1.2292(9) 0.5000
O13 O 0.9841(7) 1.2831(5) 0.6355(5)
O14 O 1.0208(8) 1.1160(6) 0.6626(6)
O15 O 1.2845(10) 1.0374(6) 0.1618(5)
O16 O 1.3473(12) 1.3406(7) 0.3668(6)
O17 O 1.2050(10) 1.3874(6) 0.2898(6)
H1 H 1.2167 1.4319 0.3102
N1 N 1.2756(9) 1.1054(6) 0.2025(5)
C1 C 1.1912(12) 1.1686(8) 0.1852(6)
H2 H 1.1358 1.1618 0.1480
C2 C 1.1891(12) 1.2413(8) 0.2226(7)
H3 H 1.1332 1.2846 0.2108
C3 C 1.2707(12) 1.2498(7) 0.2784(6)
C4 C 1.3446(10) 1.1866(6) 0.2961(6)
H4 H 1.3981 1.1921 0.3343
C5 C 1.3452(12) 1.1140(8) 0.2607(7)
H5 H 1.3942 1.0691 0.2765
C6 C 1.2766(13) 1.3292(10) 0.3168(7)
Ca1 Ca 1.3906(13) 1.3853(6) 0.5000
O18 O 1.632(2) 1.2887(13) 0.5000
O19 O 1.466(2) 1.5213(18) 0.5811(13)
O20 O 1.175(4) 1.383(2) 0.5000
W1A W 0.71625(4) 1.05599(3) 0.59137(2)
W1D W 0.71625(4) 1.05599(3) 0.40863(2)
W1E W 1.28375(4) 0.94401(3) 0.40863(2)
W2A W 0.72929(5) 0.86300(3) 0.5000
W3A W 1.01275(4) 0.80688(3) 0.59167(2)
W3E W 0.98725(4) 1.19312(3) 0.40833(2)
W3D W 1.01275(4) 0.80688(3) 0.40833(2)
W4D W 1.0000 1.0000 0.31685(3)
O1A O 0.8506(18) 0.9946(10) 0.5000
O2A O 0.9577(17) 0.9121(12) 0.5000
O3D O 0.9515(11) 1.0445(8) 0.4349(6)
O3A O 0.9515(11) 1.0445(8) 0.5651(6)
O3E O 1.0485(11) 0.9555(8) 0.4349(6)
O4A O 0.6731(15) 1.0863(7) 0.5000
O5A O 0.8232(9) 1.0159(5) 0.6625(5)
O5E O 1.1768(9) 0.9841(5) 0.3375(5)
O5D O 0.8232(9) 1.0159(5) 0.3375(5)
O6D O 1.0000 1.0000 0.2319(5)
O7A O 0.5861(7) 1.0818(5) 0.6352(4)
O7D O 0.5861(7) 1.0818(5) 0.3648(4)
O7E O 1.4139(7) 0.9182(5) 0.3648(4)
O8E O 1.3190(10) 1.0568(5) 0.5667(4)
O8A O 0.6810(10) 0.9432(5) 0.4333(4)
O8D O 0.6810(10) 0.9432(5) 0.5667(4)
O9A O 0.6073(11) 0.7958(8) 0.5000
O10A O 0.8161(7) 1.1576(5) 0.5968(5)
O10D O 0.8161(7) 1.1576(5) 0.4032(5)
O10E O 1.1839(7) 0.8424(5) 0.4032(5)
O11E O 1.1620(8) 1.1855(6) 0.4343(4)
O11A O 0.8380(8) 0.8145(6) 0.5657(4)
O11D O 0.8380(8) 0.8145(6) 0.4343(4)
O12A O 1.0475(10) 0.7708(9) 0.5000
O13A O 1.0159(7) 0.7169(5) 0.6355(5)
O13E O 0.9841(7) 1.2831(5) 0.3645(5)
O13D O 1.0159(7) 0.7169(5) 0.3645(5)
O14A O 0.9792(8) 0.8840(6) 0.6626(6)
O14E O 1.0208(8) 1.1160(6) 0.3374(6)
O14D O 0.9792(8) 0.8840(6) 0.3374(6)
O15E O 1.2845(10) 1.0374(6) 0.8382(5)
O15A O 0.7155(10) 0.9626(6) 0.1618(5)
O15D O 0.7155(10) 0.9626(6) 0.8382(5)
O16E O 1.3473(12) 1.3406(7) 0.6332(6)
O16A O 0.6527(12) 0.6594(7) 0.3668(6)
O16D O 0.6527(12) 0.6594(7) 0.6332(6)
O17E O 1.2050(10) 1.3874(6) 0.7102(6)
O17A O 0.7950(10) 0.6126(6) 0.2898(6)
O17D O 0.7950(10) 0.6126(6) 0.7102(6)
H1E H 1.2167 1.4319 0.6898
H1A H 0.7833 0.5681 0.3102
H1D H 0.7833 0.5681 0.6898
N1E N 1.2756(9) 1.1054(6) 0.7975(5)
N1A N 0.7244(9) 0.8946(6) 0.2025(5)
N1D N 0.7244(9) 0.8946(6) 0.7975(5)
C1E C 1.1912(12) 1.1686(8) 0.8148(6)
C1A C 0.8088(12) 0.8314(8) 0.1852(6)
C1D C 0.8088(12) 0.8314(8) 0.8148(6)
H2E H 1.1358 1.1618 0.8520
H2A H 0.8642 0.8382 0.1480
H2D H 0.8642 0.8382 0.8520
C2E C 1.1891(12) 1.2413(8) 0.7774(7)
C2A C 0.8109(12) 0.7587(8) 0.2226(7)
C2D C 0.8109(12) 0.7587(8) 0.7774(7)
H3E H 1.1332 1.2846 0.7892
H3A H 0.8668 0.7154 0.2108
H3D H 0.8668 0.7154 0.7892
C3E C 1.2707(12) 1.2498(7) 0.7216(6)
C3A C 0.7293(12) 0.7502(7) 0.2784(6)
C3D C 0.7293(12) 0.7502(7) 0.7216(6)
C4E C 1.3446(10) 1.1866(6) 0.7039(6)
C4A C 0.6554(10) 0.8134(6) 0.2961(6)
C4D C 0.6554(10) 0.8134(6) 0.7039(6)
H4E H 1.3981 1.1921 0.6657
H4A H 0.6019 0.8079 0.3343
H4D H 0.6019 0.8079 0.6657
C5E C 1.3452(12) 1.1140(8) 0.7393(7)
C5A C 0.6548(12) 0.8860(8) 0.2607(7)
C5D C 0.6548(12) 0.8860(8) 0.7393(7)
H5E H 1.3942 1.0691 0.7235
H5A H 0.6058 0.9309 0.2765
H5D H 0.6058 0.9309 0.7235
C6E C 1.2766(13) 1.3292(10) 0.6832(7)
C6A C 0.7234(13) 0.6708(10) 0.3168(7)
C6D C 0.7234(13) 0.6708(10) 0.6832(7)
Ca1A Ca 0.6094(13) 0.6147(6) 0.5000
Ca1A_2 Ca 1.6094(13) 1.6147(6) 0.5000
O18A O 0.368(2) 0.7113(13) 0.5000
O19A O 1.534(2) 1.4787(18) 0.5811(13)
O19D O 1.534(2) 1.4787(18) 0.4189(13)
O19E O 1.466(2) 1.5213(18) 0.4189(13)
O19A_2 O 0.534(2) 0.4787(18) 0.5811(13)
O19_2 O 0.466(2) 0.5213(18) 0.5811(13)
O19E_2 O 0.466(2) 0.5213(18) 0.4189(13)
O19D_2 O 0.534(2) 0.4787(18) 0.4189(13)
O20A O 0.825(4) 0.617(2) 0.5000
loop_
_geom_bond_atom_site_label_1
_geom_bond_atom_site_label_2
_geom_bond_site_symmetry_1
_geom_bond_site_symmetry_2
W1 O1 1_555 1_555
W2 O1 1_555 1_555
W3 O2 1_555 1_555
W4 O3 1_555 1_555
P1 O1 1_555 1_555
O1 O2 1_555 1_555
O2 W2 1_555 1_555
O3 W1 1_555 1_555
O4 W1 1_555 1_555
O5 W1 1_555 1_555
O6 W4 1_555 1_555
O7 W1 1_555 1_555
O8 W2 1_555 1_555
O9 W2 1_555 1_555
O10 W1 1_555 1_555
O11 W2 1_555 1_555
O12 W3 1_555 1_555
O13 W3 1_555 1_555
O14 W3 1_555 1_555
O15 N1 1_555 1_555
O16 C6 1_555 1_555
O17 H1 1_555 1_555
N1 C1 1_555 1_555
C1 H2 1_555 1_555
C2 C1 1_555 1_555
H3 C2 1_555 1_555
C3 C2 1_555 1_555
C4 C3 1_555 1_555
H4 C4 1_555 1_555
C5 N1 1_555 1_555
H5 C5 1_555 1_555
C6 O17 1_555 1_555
Ca1 O9 1_555 1_555
O18 Ca1 1_555 1_555
O19 Ca1 1_555 1_555
O20 Ca1 1_555 1_555
W1A O1A 1_555 1_555
W1D O1A 1_555 1_555
W1E O1 1_555 1_555
W2A O1A 1_555 1_555
W3A O3 1_555 1_555
W3E O2 1_555 1_555
W3D O2A 1_555 1_555
W4D O3D 1_555 1_555
O1A P1 1_555 1_555
O2A P1 1_555 1_555
O3D P1 1_555 1_555
O3A W3 1_555 1_555
O3E P1 1_555 1_555
O4A W1A 1_555 1_555
O5A W4 1_555 1_555
O5E W1E 1_555 1_555
O5D W1D 1_555 1_555
O6D W4D 1_555 1_555
O7A W1A 1_555 1_555
O7D W1D 1_555 1_555
O7E W1E 1_555 1_555
O8E W1 1_555 1_555
O8A W1D 1_555 1_555
O8D W1A 1_555 1_555
O9A W2A 1_555 1_555
O10A W3 1_555 1_555
O10D W1D 1_555 1_555
O10E W1E 1_555 1_555
O11E W2 1_555 1_555
O11A W2A 1_555 1_555
O11D W2A 1_555 1_555
O12A W3A 1_555 1_555
O13A W3A 1_555 1_555
O13E W3E 1_555 1_555
O13D W3D 1_555 1_555
O14A W4 1_555 1_555
O14E W3E 1_555 1_555
O14D W3D 1_555 1_555
O15E N1E 1_555 1_555
O15A N1A 1_555 1_555
O15D N1D 1_555 1_555
O16E Ca1 1_555 1_555
O16A C6A 1_555 1_555
O16D C6D 1_555 1_555
O17E H1E 1_555 1_555
O17A H1A 1_555 1_555
O17D H1D 1_555 1_555
N1E C1E 1_555 1_555
N1A C1A 1_555 1_555
N1D C1D 1_555 1_555
C1E H2E 1_555 1_555
C1A H2A 1_555 1_555
C1D H2D 1_555 1_555
C2E C1E 1_555 1_555
C2A C1A 1_555 1_555
C2D C1D 1_555 1_555
H3E C2E 1_555 1_555
H3A C2A 1_555 1_555
H3D C2D 1_555 1_555
C3E C2E 1_555 1_555
C3A C2A 1_555 1_555
C3D C2D 1_555 1_555
C4E C3E 1_555 1_555
C4A C3A 1_555 1_555
C4D C3D 1_555 1_555
H4E C4E 1_555 1_555
H4A C4A 1_555 1_555
H4D C4D 1_555 1_555
C5E N1E 1_555 1_555
C5A N1A 1_555 1_555
C5D N1D 1_555 1_555
H5E C5E 1_555 1_555
H5A C5A 1_555 1_555
H5D C5D 1_555 1_555
C6E O16E 1_555 1_555
C6A O17A 1_555 1_555
C6D O17D 1_555 1_555
Ca1A O9A 1_555 1_555
Ca1A_2 O19 1_555 1_555
O18A Ca1A 1_555 1_555
O19A Ca1 1_555 1_555
O19D Ca1 1_555 1_555
O19E Ca1 1_555 1_555
O19A_2 Ca1A 1_555 1_555
O19_2 Ca1A 1_555 1_555
O19E_2 Ca1A 1_555 1_555
O19D_2 Ca1A 1_555 1_555
O20A Ca1A 1_555 1_555
W2 O8E 1_555 1_555
W3 O11 1_555 1_555
W4 O5 1_555 1_555
W4 O14 1_555 1_555
W4 O3A 1_555 1_555
P1 O2 1_555 1_555
P1 O3 1_555 1_555
P1 O3A 1_555 1_555
O2 O3D 1_555 1_555
O2 O3A 1_555 1_555
O3 O2A 1_555 1_555
O3 O3A 1_555 1_555
O4 W1E 1_555 1_555
O8 W1E 1_555 1_555
O10 W3A 1_555 1_555
O12 W3E 1_555 1_555
O16 Ca1 1_555 1_555
C3 C6 1_555 1_555
C4 C5 1_555 1_555
O19 O19A 1_555 1_555
W1A O3A 1_555 1_555
W1A O5A 1_555 1_555
W1A O10A 1_555 1_555
W1D O3D 1_555 1_555
W1D O4A 1_555 1_555
W1E O3E 1_555 1_555
W2A O2A 1_555 1_555
W2A O8A 1_555 1_555
W2A O8D 1_555 1_555
W3A O2A 1_555 1_555
W3A O11A 1_555 1_555
W3A O14A 1_555 1_555
W3E O3D 1_555 1_555
W3E O10D 1_555 1_555
W3E O11E 1_555 1_555
W3D O3E 1_555 1_555
W3D O10E 1_555 1_555
W3D O11D 1_555 1_555
W3D O12A 1_555 1_555
W4D O3E 1_555 1_555
W4D O5E 1_555 1_555
W4D O5D 1_555 1_555
W4D O14E 1_555 1_555
W4D O14D 1_555 1_555
O1A O2A 1_555 1_555
O2A O3E 1_555 1_555
O3D O3E 1_555 1_555
O16A Ca1A 1_555 1_555
O16D Ca1A 1_555 1_555
O17E C6E 1_555 1_555
C3E C6E 1_555 1_555
C3A C6A 1_555 1_555
C3D C6D 1_555 1_555
C4E C5E 1_555 1_555
C4A C5A 1_555 1_555
C4D C5D 1_555 1_555
Ca1A_2 O19A 1_555 1_555
Ca1A_2 O19D 1_555 1_555
Ca1A_2 O19E 1_555 1_555
O19D O19E 1_555 1_555
O19A_2 O19_2 1_555 1_555
O19E_2 O19D_2 1_555 1_555

#END
