
#######################################################################
#
#                 Cambridge Crystallographic Data Centre
#                                CCDC 
#
#######################################################################
#
# If this CIF has been generated from an entry in the Cambridge 
# Structural Database, then it will include bibliographic, chemical, 
# crystal, experimental, refinement or atomic coordinate data resulting 
# from the CCDC's data processing and validation procedures.
#
#######################################################################

data_TARDOF03
_symmetry_cell_setting           orthorhombic
_symmetry_space_group_name_H-M   'I m a 2'
_symmetry_Int_Tables_number      46
_space_group_name_Hall           'I 2 -2a'
loop_
_symmetry_equiv_pos_site_id
_symmetry_equiv_pos_as_xyz
1 x,y,z
2 -x,-y,z
3 1/2-x,y,z
4 1/2+x,-y,z
5 1/2+x,1/2+y,1/2+z
6 1/2-x,1/2-y,1/2+z
7 -x,1/2+y,1/2+z
8 x,1/2-y,1/2+z
_cell_length_a                   6.8807(19)
_cell_length_b                   19.780(4)
_cell_length_c                   6.4251(14)
_cell_angle_alpha                90
_cell_angle_beta                 90
_cell_angle_gamma                90
_cell_volume                     874.458
loop_
_atom_site_label
_atom_site_type_symbol
_atom_site_fract_x
_atom_site_fract_y
_atom_site_fract_z
Na1 Na 0.2500 0.22910(17) 0.4186(6)
O1 O 0.2500 -0.1782(3) 0.8824(10)
O2 O 0.2500 0.1154(5) 0.5299(14)
O3 O 0.2500 0.1385(4) 0.8576(14)
O4 O 0.4927(7) 0.2370(2) 0.1621(7)
H1 H 0.587(6) 0.216(3) 0.110(11)
H2 H 0.527(9) 0.268(3) 0.244(11)
N1 N 0.2500 0.0983(4) 0.7140(17)
C1 C 0.2500 -0.1119(5) 0.8444(15)
C2 C 0.2500 -0.0880(6) 0.6382(18)
H3 H 0.2500 -0.1193 0.5260
C3 C 0.2500 -0.0198(6) 0.5977(19)
H4 H 0.2500 -0.0042 0.4578
C4 C 0.2500 0.0269(5) 0.7619(17)
C5 C 0.2500 0.0047(6) 0.9591(17)
H5 H 0.2500 0.0363 1.0707
C6 C 0.2500 -0.0646(6) 1.0008(17)
H6 H 0.2500 -0.0795 1.1414
Na1E Na 0.2500 0.27090(17) 0.9186(6)
Na1E_2 Na 0.2500 0.27090(17) -0.0814(6)
O3E O 0.2500 0.3615(4) 0.3576(14)
O4B O 0.0073(7) 0.2370(2) 0.1621(7)
O4E O 0.0073(7) 0.2630(2) 0.6621(7)
O4G O 0.4927(7) 0.2630(2) 0.6621(7)
H1B H -0.087(6) 0.216(3) 0.110(11)
H1E H -0.087(6) 0.284(3) 0.610(11)
H1G H 0.587(6) 0.284(3) 0.610(11)
H2B H -0.027(9) 0.268(3) 0.244(11)
H2E H -0.027(9) 0.232(3) 0.744(11)
H2G H 0.527(9) 0.232(3) 0.744(11)
loop_
_geom_bond_atom_site_label_1
_geom_bond_atom_site_label_2
_geom_bond_site_symmetry_1
_geom_bond_site_symmetry_2
Na1 O2 1_555 1_555
O1 C1 1_555 1_555
O2 N1 1_555 1_555
O3 N1 1_555 1_555
O4 Na1 1_555 1_555
H1 O4 1_555 1_555
H2 O4 1_555 1_555
N1 C4 1_555 1_555
C1 C2 1_555 1_555
C2 H3 1_555 1_555
C3 C2 1_555 1_555
H4 C3 1_555 1_555
C4 C3 1_555 1_555
C5 C4 1_555 1_555
H5 C5 1_555 1_555
C6 C1 1_555 1_555
H6 C6 1_555 1_555
Na1E O3 1_555 1_555
Na1E_2 O4 1_555 1_555
O3E Na1 1_555 1_555
O4B Na1 1_555 1_555
O4E Na1 1_555 1_555
O4G Na1 1_555 1_555
H1B O4B 1_555 1_555
H1E O4E 1_555 1_555
H1G O4G 1_555 1_555
H2B O4B 1_555 1_555
H2E O4E 1_555 1_555
H2G O4G 1_555 1_555
C5 C6 1_555 1_555
Na1E O4E 1_555 1_555
Na1E O4G 1_555 1_555
Na1E_2 O4B 1_555 1_555

#END
