
#######################################################################
#
#                 Cambridge Crystallographic Data Centre
#                                CCDC 
#
#######################################################################
#
# If this CIF has been generated from an entry in the Cambridge 
# Structural Database, then it will include bibliographic, chemical, 
# crystal, experimental, refinement or atomic coordinate data resulting 
# from the CCDC's data processing and validation procedures.
#
#######################################################################

data_TARFID
_symmetry_cell_setting           monoclinic
_symmetry_space_group_name_H-M   'P 21/n'
_symmetry_Int_Tables_number      14
_space_group_name_Hall           '-P 2yn'
loop_
_symmetry_equiv_pos_site_id
_symmetry_equiv_pos_as_xyz
1 x,y,z
2 1/2-x,1/2+y,1/2-z
3 -x,-y,-z
4 1/2+x,1/2-y,1/2+z
_cell_length_a                   7.444(2)
_cell_length_b                   17.715(5)
_cell_length_c                   8.760(3)
_cell_angle_alpha                90
_cell_angle_beta                 115.490(5)
_cell_angle_gamma                90
_cell_volume                     1042.74
loop_
_atom_site_label
_atom_site_type_symbol
_atom_site_fract_x
_atom_site_fract_y
_atom_site_fract_z
Ni1 Ni 0.5000 0.0000 0.0000
Cl1 Cl 0.29019(8) 0.03422(4) 0.18800(7)
N1 N 0.8583(3) 0.18894(11) 0.1614(2)
N2 N 0.6871(3) 0.22190(11) 0.1504(3)
N3 N 0.6352(3) 0.10114(10) 0.0675(2)
N4 N 1.4960(3) 0.40462(11) 0.1192(2)
N5 N 1.6006(3) 0.41176(11) 0.0257(2)
N6 N 1.7781(3) 0.45378(10) 0.2903(2)
C1 C 1.0466(4) 0.22979(17) 0.2249(3)
H1 H 1.1560 0.1932 0.2660
H2 H 1.0583 0.2609 0.3213
C2 C 1.0688(3) 0.27974(13) 0.0953(3)
H3 H 0.9550 0.3142 0.0477
H4 H 1.0695 0.2486 0.0031
C3 C 1.2602(3) 0.32514(13) 0.1736(3)
H5 H 1.2536 0.3592 0.2591
H6 H 1.3721 0.2906 0.2307
C4 C 1.2981(3) 0.37064(15) 0.0462(3)
H7 H 1.2847 0.3380 -0.0484
H8 H 1.1977 0.4106 0.0017
C5 C 0.5590(3) 0.16650(13) 0.0941(3)
H9 H 0.4249 0.1717 0.0738
C6 C 0.8257(3) 0.11743(13) 0.1132(3)
H10 H 0.9221 0.0835 0.1116
C7 C 1.7686(3) 0.44184(13) 0.1333(3)
H11 H 1.8731 0.4541 0.1047
C8 C 1.6021(3) 0.42984(13) 0.2747(3)
H12 H 1.5591 0.4307 0.3611
Ni1A Ni 2.0000 0.5000 0.5000
Ni1A_2 Ni -1.0000 -0.5000 -0.5000
Cl1B Cl 0.70981(8) -0.03422(4) -0.18800(7)
N1B N 0.1417(3) -0.18894(11) -0.1614(2)
N2B N 0.3129(3) -0.22190(11) -0.1504(3)
N3B N 0.3648(3) -0.10114(10) -0.0675(2)
N4B N -0.4960(3) -0.40462(11) -0.1192(2)
N5B N -0.6006(3) -0.41176(11) -0.0257(2)
N6B N -0.7781(3) -0.45378(10) -0.2903(2)
N6A N 0.7219(3) -0.04622(10) 0.2097(2)
N6C N 0.2781(3) 0.04622(10) -0.2097(2)
C1B C -0.0466(4) -0.22979(17) -0.2249(3)
H1B H -0.1560 -0.1932 -0.2660
H2B H -0.0583 -0.2609 -0.3213
C2B C -0.0688(3) -0.27974(13) -0.0953(3)
H3B H 0.0450 -0.3142 -0.0477
H4B H -0.0695 -0.2486 -0.0031
C3B C -0.2602(3) -0.32514(13) -0.1736(3)
H5B H -0.2536 -0.3592 -0.2591
H6B H -0.3721 -0.2906 -0.2307
C4B C -0.2981(3) -0.37064(15) -0.0462(3)
H7B H -0.2847 -0.3380 0.0484
H8B H -0.1977 -0.4106 -0.0017
C5B C 0.4410(3) -0.16650(13) -0.0941(3)
H9B H 0.5751 -0.1717 -0.0738
C6B C 0.1743(3) -0.11743(13) -0.1132(3)
H10B H 0.0779 -0.0835 -0.1116
C7B C -0.7686(3) -0.44184(13) -0.1333(3)
H11B H -0.8731 -0.4541 -0.1047
C8B C -0.6021(3) -0.42984(13) -0.2747(3)
H12B H -0.5591 -0.4307 -0.3611
loop_
_geom_bond_atom_site_label_1
_geom_bond_atom_site_label_2
_geom_bond_site_symmetry_1
_geom_bond_site_symmetry_2
Ni1 Cl1 1_555 1_555
N1 N2 1_555 1_555
N2 C5 1_555 1_555
N3 Ni1 1_555 1_555
N4 N5 1_555 1_555
N5 C7 1_555 1_555
N6 C7 1_555 1_555
C1 N1 1_555 1_555
H1 C1 1_555 1_555
H2 C1 1_555 1_555
C2 C1 1_555 1_555
H3 C2 1_555 1_555
H4 C2 1_555 1_555
C3 C2 1_555 1_555
H5 C3 1_555 1_555
H6 C3 1_555 1_555
C4 N4 1_555 1_555
H7 C4 1_555 1_555
H8 C4 1_555 1_555
C5 N3 1_555 1_555
H9 C5 1_555 1_555
C6 N1 1_555 1_555
H10 C6 1_555 1_555
C7 H11 1_555 1_555
C8 N4 1_555 1_555
H12 C8 1_555 1_555
Ni1A N6 1_555 1_555
Ni1A_2 N6B 1_555 1_555
Cl1B Ni1 1_555 1_555
N1B N2B 1_555 1_555
N2B C5B 1_555 1_555
N3B Ni1 1_555 1_555
N4B N5B 1_555 1_555
N5B C7B 1_555 1_555
N6B C7B 1_555 1_555
N6A Ni1 1_555 1_555
N6C Ni1 1_555 1_555
C1B N1B 1_555 1_555
H1B C1B 1_555 1_555
H2B C1B 1_555 1_555
C2B C1B 1_555 1_555
H3B C2B 1_555 1_555
H4B C2B 1_555 1_555
C3B C2B 1_555 1_555
H5B C3B 1_555 1_555
H6B C3B 1_555 1_555
C4B N4B 1_555 1_555
H7B C4B 1_555 1_555
H8B C4B 1_555 1_555
C5B N3B 1_555 1_555
H9B C5B 1_555 1_555
C6B N1B 1_555 1_555
H10B C6B 1_555 1_555
C7B H11B 1_555 1_555
C8B N4B 1_555 1_555
H12B C8B 1_555 1_555
N3 C6 1_555 1_555
N6 C8 1_555 1_555
C3 C4 1_555 1_555
N3B C6B 1_555 1_555
N6B C8B 1_555 1_555
C3B C4B 1_555 1_555

#END
