
#######################################################################
#
#                 Cambridge Crystallographic Data Centre
#                                CCDC 
#
#######################################################################
#
# If this CIF has been generated from an entry in the Cambridge 
# Structural Database, then it will include bibliographic, chemical, 
# crystal, experimental, refinement or atomic coordinate data resulting 
# from the CCDC's data processing and validation procedures.
#
#######################################################################

data_TARGUQ
_symmetry_cell_setting           monoclinic
_symmetry_space_group_name_H-M   'P 21/c'
_symmetry_Int_Tables_number      14
_space_group_name_Hall           '-P 2ybc'
loop_
_symmetry_equiv_pos_site_id
_symmetry_equiv_pos_as_xyz
1 x,y,z
2 -x,1/2+y,1/2-z
3 -x,-y,-z
4 x,1/2-y,1/2+z
_cell_length_a                   12.106(5)
_cell_length_b                   6.373(3)
_cell_length_c                   10.355(4)
_cell_angle_alpha                90
_cell_angle_beta                 101.489(5)
_cell_angle_gamma                90
_cell_volume                     782.897
loop_
_atom_site_label
_atom_site_type_symbol
_atom_site_fract_x
_atom_site_fract_y
_atom_site_fract_z
Cd1 Cd 0.61605(10) 1.08159(18) -0.08475(11)
C1 C 0.7332(15) 1.145(3) 0.2228(16)
C2 C 0.8079(14) 0.950(2) 0.2145(16)
H1 H 0.8642 0.9378 0.2965
C3 C 0.8690(15) 0.968(3) 0.0970(19)
H2 H 0.8959 1.1089 0.0809
C4 C 0.9568(18) 0.798(4) 0.1135(19)
H3 H 1.0344 0.8154 0.1381
C5 C 0.9016(16) 0.617(3) 0.0859(19)
H4 H 0.9321 0.4828 0.0878
C6 C 0.7780(15) 0.679(3) 0.0509(16)
H5 H 0.7284 0.5777 -0.0040
C7 C 0.7440(13) 0.736(2) 0.1859(14)
H6 H 0.7753 0.6327 0.2533
C8 C 0.6167(13) 0.749(2) 0.1720(16)
O1 O 0.6875(12) 1.237(2) 0.1239(12)
O2 O 0.6158(14) 1.417(3) -0.116(2)
H7 H 0.6776 1.4842 -0.1015
H8 H 0.5540 1.4808 -0.1437
O3 O 0.7291(12) 1.198(2) 0.3412(12)
O4 O 0.5599(10) 0.838(2) 0.0688(12)
O5 O 0.5693(10) 0.675(2) 0.2568(12)
O6 O 0.7856(10) 0.8820(19) -0.0078(11)
Cd1C Cd 0.61605(10) 1.41841(18) 0.41525(11)
Cd1B Cd 0.38395(10) 0.91841(18) 0.08475(11)
Cd1C_2 Cd 0.61605(10) 0.41841(18) 0.41525(11)
O3C O 0.7291(12) 1.302(2) -0.1588(12)
O4B O 0.4401(10) 1.162(2) -0.0688(12)
O5C O 0.5693(10) 0.825(2) -0.2432(12)
loop_
_geom_bond_atom_site_label_1
_geom_bond_atom_site_label_2
_geom_bond_site_symmetry_1
_geom_bond_site_symmetry_2
Cd1 O1 1_555 1_555
C1 C2 1_555 1_555
C2 H1 1_555 1_555
C3 C2 1_555 1_555
H2 C3 1_555 1_555
C4 C3 1_555 1_555
H3 C4 1_555 1_555
C5 C4 1_555 1_555
H4 C5 1_555 1_555
C6 C5 1_555 1_555
H5 C6 1_555 1_555
C7 C2 1_555 1_555
H6 C7 1_555 1_555
C8 C7 1_555 1_555
O1 C1 1_555 1_555
O2 Cd1 1_555 1_555
H7 O2 1_555 1_555
H8 O2 1_555 1_555
O3 C1 1_555 1_555
O4 Cd1 1_555 1_555
O5 C8 1_555 1_555
O6 Cd1 1_555 1_555
Cd1C O3 1_555 1_555
Cd1B O4 1_555 1_555
Cd1C_2 O5 1_555 1_555
O3C Cd1 1_555 1_555
O4B Cd1 1_555 1_555
O5C Cd1 1_555 1_555
C3 O6 1_555 1_555
C6 C7 1_555 1_555
C6 O6 1_555 1_555
C8 O4 1_555 1_555
Cd1B O4B 1_555 1_555

#END
