
#######################################################################
#
#                 Cambridge Crystallographic Data Centre
#                                CCDC 
#
#######################################################################
#
# If this CIF has been generated from an entry in the Cambridge 
# Structural Database, then it will include bibliographic, chemical, 
# crystal, experimental, refinement or atomic coordinate data resulting 
# from the CCDC's data processing and validation procedures.
#
#######################################################################

data_TARLUU
_symmetry_cell_setting           orthorhombic
_symmetry_space_group_name_H-M   'C 2 2 21'
_symmetry_Int_Tables_number      20
_space_group_name_Hall           'C 2n 2'
loop_
_symmetry_equiv_pos_site_id
_symmetry_equiv_pos_as_xyz
1 x,y,z
2 -x,-y,1/2+z
3 -x,y,1/2-z
4 x,-y,-z
5 1/2+x,1/2+y,z
6 1/2-x,1/2-y,1/2+z
7 1/2-x,1/2+y,1/2-z
8 1/2+x,1/2-y,-z
_cell_length_a                   18.348(4)
_cell_length_b                   19.657(4)
_cell_length_c                   15.490(3)
_cell_angle_alpha                90
_cell_angle_beta                 90
_cell_angle_gamma                90
_cell_volume                     5586.73
loop_
_atom_site_label
_atom_site_type_symbol
_atom_site_fract_x
_atom_site_fract_y
_atom_site_fract_z
Cu1 Cu 0.161448(13) 0.147840(14) 0.373676(17)
O1 O 0.20385(10) 0.11134(9) 0.50254(12)
O2 O 0.09973(9) 0.21203(9) 0.43737(11)
O3 O 0.12608(9) 0.18973(9) 0.24202(11)
O4 O 0.22046(8) 0.08176(9) 0.30871(10)
N1 N 0.07997(9) 0.07783(10) 0.37600(15)
N2 N -0.25536(10) -0.28260(10) 0.37083(14)
C1 C 0.2371(2) 0.1233(2) 0.6487(2)
H1 H 0.2655 0.0837 0.6351
H2 H 0.2031 0.1126 0.6939
H3 H 0.2688 0.1592 0.6677
C2 C 0.19578(14) 0.14633(15) 0.56910(16)
C3 C 0.15019(15) 0.20416(15) 0.57796(17)
H4 H 0.1495 0.2249 0.6319
C4 C 0.10645(12) 0.23322(12) 0.51475(15)
C5 C 0.06203(12) 0.29538(13) 0.53598(15)
C6 C 0.07024(14) 0.33306(14) 0.61219(17)
H5 H 0.1040 0.3192 0.6534
C7 C 0.02841(14) 0.39097(14) 0.6270(2)
H6 H 0.0352 0.4161 0.6772
C8 C -0.02315(15) 0.41138(14) 0.5674(2)
H7 H -0.0515 0.4497 0.5778
C9 C -0.03231(15) 0.37459(14) 0.49208(19)
H8 H -0.0672 0.3880 0.4520
C10 C 0.01031(14) 0.31768(13) 0.47601(16)
H9 H 0.0044 0.2940 0.4245
C11 C 0.15100(17) 0.22608(17) 0.09960(18)
H10 H 0.1114 0.2563 0.1126
H11 H 0.1379 0.1976 0.0516
H12 H 0.1935 0.2522 0.0851
C12 C 0.16702(13) 0.18233(13) 0.17716(15)
C13 C 0.22389(13) 0.13448(13) 0.16955(16)
H13 H 0.2502 0.1349 0.1182
C14 C 0.24479(12) 0.08647(13) 0.23138(14)
C15 C 0.30069(12) 0.03394(13) 0.20853(15)
C16 C 0.31088(13) 0.00916(13) 0.12486(18)
H14 H 0.2832 0.0268 0.0798
C17 C 0.36203(15) -0.04166(14) 0.10811(17)
H15 H 0.3680 -0.0579 0.0522
C18 C 0.40377(14) -0.06786(14) 0.17432(19)
H16 H 0.4377 -0.1019 0.1632
C19 C 0.39478(14) -0.04324(15) 0.25752(18)
H17 H 0.4234 -0.0604 0.3020
C20 C 0.34345(14) 0.00681(13) 0.27494(15)
H18 H 0.3374 0.0224 0.3312
C21 C 0.09477(13) 0.01250(13) 0.39052(18)
H19 H 0.1426 0.0003 0.4028
C22 C 0.04265(14) -0.03783(14) 0.3882(2)
H20 H 0.0556 -0.0829 0.3982
C23 C -0.02957(12) -0.02078(12) 0.3708(2)
C24 C -0.04457(14) 0.04745(14) 0.3561(2)
H21 H -0.0919 0.0612 0.3436
C25 C 0.01095(13) 0.09511(13) 0.35995(19)
H22 H -0.0003 0.1407 0.3511
C26 C -0.26932(12) -0.21576(12) 0.36786(18)
H23 H -0.3177 -0.2017 0.3657
C27 C -0.21567(13) -0.16701(12) 0.36783(19)
H24 H -0.2281 -0.1211 0.3669
C28 C -0.14232(12) -0.18651(12) 0.36919(18)
C29 C -0.12797(12) -0.25602(12) 0.37152(18)
H25 H -0.0801 -0.2715 0.3723
C30 C -0.18508(12) -0.30200(12) 0.37270(18)
H26 H -0.1744 -0.3482 0.3749
C31 C -0.08899(13) -0.07069(14) 0.3662(2)
H27 H -0.1359 -0.0537 0.3585
C32 C -0.08218(12) -0.13746(12) 0.37190(19)
H28 H -0.0353 -0.1548 0.3782
Cu1D Cu 0.661448(13) 0.647840(14) 0.373676(17)
Cu1D_2 Cu -0.338552(13) -0.352160(14) 0.373676(17)
O1D O 0.70385(10) 0.61134(9) 0.50254(12)
O2D O 0.59973(9) 0.71203(9) 0.43737(11)
O3D O 0.62608(9) 0.68973(9) 0.24202(11)
O4D O 0.72046(8) 0.58176(9) 0.30871(10)
N1D N 0.57997(9) 0.57783(10) 0.37600(15)
N2D N 0.24464(10) 0.21740(10) 0.37083(14)
N2_2 N 0.74464(10) 0.71740(10) 0.37083(14)
C1D C 0.7371(2) 0.6233(2) 0.6487(2)
H1D H 0.7655 0.5837 0.6351
H2D H 0.7031 0.6126 0.6939
H3D H 0.7688 0.6592 0.6677
C2D C 0.69578(14) 0.64633(15) 0.56910(16)
C3D C 0.65019(15) 0.70416(15) 0.57796(17)
H4D H 0.6495 0.7249 0.6319
C4D C 0.60645(12) 0.73322(12) 0.51475(15)
C5D C 0.56203(12) 0.79538(13) 0.53598(15)
C6D C 0.57024(14) 0.83306(14) 0.61219(17)
H5D H 0.6040 0.8192 0.6534
C7D C 0.52841(14) 0.89097(14) 0.6270(2)
H6D H 0.5352 0.9161 0.6772
C8D C 0.47685(15) 0.91138(14) 0.5674(2)
H7D H 0.4485 0.9497 0.5778
C9D C 0.46769(15) 0.87459(14) 0.49208(19)
H8D H 0.4328 0.8880 0.4520
C10D C 0.51031(14) 0.81768(13) 0.47601(16)
H9D H 0.5044 0.7940 0.4245
C11D C 0.65100(17) 0.72608(17) 0.09960(18)
H10D H 0.6114 0.7563 0.1126
H11D H 0.6379 0.6976 0.0516
H12D H 0.6935 0.7522 0.0851
C12D C 0.66702(13) 0.68233(13) 0.17716(15)
C13D C 0.72389(13) 0.63448(13) 0.16955(16)
H13D H 0.7502 0.6349 0.1182
C14D C 0.74479(12) 0.58647(13) 0.23138(14)
C15D C 0.80069(12) 0.53394(13) 0.20853(15)
C16D C 0.81088(13) 0.50916(13) 0.12486(18)
H14D H 0.7832 0.5268 0.0798
C17D C 0.86203(15) 0.45834(14) 0.10811(17)
H15D H 0.8680 0.4421 0.0522
C18D C 0.90377(14) 0.43214(14) 0.17432(19)
H16D H 0.9377 0.3981 0.1632
C19D C 0.89478(14) 0.45676(15) 0.25752(18)
H17D H 0.9234 0.4396 0.3020
C20D C 0.84345(14) 0.50681(13) 0.27494(15)
H18D H 0.8374 0.5224 0.3312
C21D C 0.59477(13) 0.51250(13) 0.39052(18)
H19D H 0.6426 0.5003 0.4028
C22D C 0.54265(14) 0.46217(14) 0.3882(2)
H20D H 0.5556 0.4171 0.3982
C23D C 0.47043(12) 0.47922(12) 0.3708(2)
C24D C 0.45543(14) 0.54745(14) 0.3561(2)
H21D H 0.4081 0.5612 0.3436
C25D C 0.51095(13) 0.59511(13) 0.35995(19)
H22D H 0.4997 0.6407 0.3511
C26D C 0.23068(12) 0.28424(12) 0.36786(18)
H23D H 0.1823 0.2983 0.3657
C27D C 0.28433(13) 0.33299(12) 0.36783(19)
H24D H 0.2719 0.3789 0.3669
C28D C 0.35768(12) 0.31349(12) 0.36919(18)
C29D C 0.37203(12) 0.24398(12) 0.37152(18)
H25D H 0.4199 0.2285 0.3723
C30D C 0.31492(12) 0.19800(12) 0.37270(18)
H26D H 0.3256 0.1518 0.3749
C31D C 0.41101(13) 0.42931(14) 0.3662(2)
H27D H 0.3641 0.4463 0.3585
C32D C 0.41782(12) 0.36254(12) 0.37190(19)
H28D H 0.4647 0.3452 0.3782
O5 O 0.30968(16) 0.0000 0.5000
H29 H 0.283(2) 0.038(2) 0.499(3)
H29C H 0.283(2) -0.038(2) 0.501(3)
O6 O 0.0000 0.28294(17) 0.2500
H30 H 0.0350(19) 0.2573(18) 0.253(3)
H30B H -0.0350(19) 0.2573(18) 0.247(3)
loop_
_geom_bond_atom_site_label_1
_geom_bond_atom_site_label_2
_geom_bond_site_symmetry_1
_geom_bond_site_symmetry_2
Cu1 O1 1_555 1_555
O1 C2 1_555 1_555
O2 Cu1 1_555 1_555
O3 Cu1 1_555 1_555
O4 Cu1 1_555 1_555
O5 H29 1_555 1_555
O6 H30 1_555 1_555
N1 Cu1 1_555 1_555
N2 C26 1_555 1_555
C1 H1 1_555 1_555
H2 C1 1_555 1_555
H3 C1 1_555 1_555
C2 C1 1_555 1_555
C3 C2 1_555 1_555
H4 C3 1_555 1_555
C4 O2 1_555 1_555
C5 C4 1_555 1_555
C6 C5 1_555 1_555
H5 C6 1_555 1_555
C7 C6 1_555 1_555
H6 C7 1_555 1_555
C8 C7 1_555 1_555
H7 C8 1_555 1_555
C9 C8 1_555 1_555
H8 C9 1_555 1_555
C10 C5 1_555 1_555
H9 C10 1_555 1_555
C11 H10 1_555 1_555
H11 C11 1_555 1_555
H12 C11 1_555 1_555
C12 O3 1_555 1_555
C13 C12 1_555 1_555
H13 C13 1_555 1_555
C14 O4 1_555 1_555
C15 C14 1_555 1_555
C16 C15 1_555 1_555
H14 C16 1_555 1_555
C17 C16 1_555 1_555
H15 C17 1_555 1_555
C18 C17 1_555 1_555
H16 C18 1_555 1_555
C19 C18 1_555 1_555
H17 C19 1_555 1_555
C20 C15 1_555 1_555
H18 C20 1_555 1_555
C21 N1 1_555 1_555
H19 C21 1_555 1_555
C22 C21 1_555 1_555
H20 C22 1_555 1_555
C23 C22 1_555 1_555
C24 C23 1_555 1_555
H21 C24 1_555 1_555
C25 N1 1_555 1_555
H22 C25 1_555 1_555
C26 H23 1_555 1_555
C27 C26 1_555 1_555
H24 C27 1_555 1_555
C28 C27 1_555 1_555
C29 C28 1_555 1_555
H25 C29 1_555 1_555
C30 N2 1_555 1_555
H26 C30 1_555 1_555
C31 C23 1_555 1_555
H27 C31 1_555 1_555
C32 C28 1_555 1_555
H28 C32 1_555 1_555
Cu1D O1D 1_555 1_555
Cu1D_2 N2 1_555 1_555
O1D C2D 1_555 1_555
O2D Cu1D 1_555 1_555
O3D Cu1D 1_555 1_555
O4D Cu1D 1_555 1_555
N1D Cu1D 1_555 1_555
N2D Cu1 1_555 1_555
N2_2 Cu1D 1_555 1_555
C1D H1D 1_555 1_555
H2D C1D 1_555 1_555
H3D C1D 1_555 1_555
C2D C1D 1_555 1_555
C3D C2D 1_555 1_555
H4D C3D 1_555 1_555
C4D O2D 1_555 1_555
C5D C4D 1_555 1_555
C6D C5D 1_555 1_555
H5D C6D 1_555 1_555
C7D C6D 1_555 1_555
H6D C7D 1_555 1_555
C8D C7D 1_555 1_555
H7D C8D 1_555 1_555
C9D C8D 1_555 1_555
H8D C9D 1_555 1_555
C10D C5D 1_555 1_555
H9D C10D 1_555 1_555
C11D H10D 1_555 1_555
H11D C11D 1_555 1_555
H12D C11D 1_555 1_555
C12D O3D 1_555 1_555
C13D C12D 1_555 1_555
H13D C13D 1_555 1_555
C14D O4D 1_555 1_555
C15D C14D 1_555 1_555
C16D C15D 1_555 1_555
H14D C16D 1_555 1_555
C17D C16D 1_555 1_555
H15D C17D 1_555 1_555
C18D C17D 1_555 1_555
H16D C18D 1_555 1_555
C19D C18D 1_555 1_555
H17D C19D 1_555 1_555
C20D C15D 1_555 1_555
H18D C20D 1_555 1_555
C21D N1D 1_555 1_555
H19D C21D 1_555 1_555
C22D C21D 1_555 1_555
H20D C22D 1_555 1_555
C23D C22D 1_555 1_555
C24D C23D 1_555 1_555
H21D C24D 1_555 1_555
C25D N1D 1_555 1_555
H22D C25D 1_555 1_555
C26D N2D 1_555 1_555
H23D C26D 1_555 1_555
C27D C26D 1_555 1_555
H24D C27D 1_555 1_555
C28D C27D 1_555 1_555
C29D C28D 1_555 1_555
H25D C29D 1_555 1_555
C30D N2D 1_555 1_555
H26D C30D 1_555 1_555
C31D C23D 1_555 1_555
H27D C31D 1_555 1_555
C32D C28D 1_555 1_555
H28D C32D 1_555 1_555
H29C O5 1_555 1_555
H30B O6 1_555 1_555
C3 C4 1_555 1_555
C9 C10 1_555 1_555
C11 C12 1_555 1_555
C13 C14 1_555 1_555
C19 C20 1_555 1_555
C24 C25 1_555 1_555
C29 C30 1_555 1_555
C31 C32 1_555 1_555
C3D C4D 1_555 1_555
C9D C10D 1_555 1_555
C11D C12D 1_555 1_555
C13D C14D 1_555 1_555
C19D C20D 1_555 1_555
C24D C25D 1_555 1_555
C29D C30D 1_555 1_555
C31D C32D 1_555 1_555

#END
