
#######################################################################
#
#                 Cambridge Crystallographic Data Centre
#                                CCDC 
#
#######################################################################
#
# If this CIF has been generated from an entry in the Cambridge 
# Structural Database, then it will include bibliographic, chemical, 
# crystal, experimental, refinement or atomic coordinate data resulting 
# from the CCDC's data processing and validation procedures.
#
#######################################################################

data_TARMUV
_symmetry_cell_setting           monoclinic
_symmetry_space_group_name_H-M   'C c'
_symmetry_Int_Tables_number      9
_space_group_name_Hall           'C -2yc'
loop_
_symmetry_equiv_pos_site_id
_symmetry_equiv_pos_as_xyz
1 x,y,z
2 x,-y,1/2+z
3 1/2+x,1/2+y,z
4 1/2+x,1/2-y,1/2+z
_cell_length_a                   11.2483(4)
_cell_length_b                   16.7076(6)
_cell_length_c                   7.2948(3)
_cell_angle_alpha                90
_cell_angle_beta                 118.6116(19)
_cell_angle_gamma                90
_cell_volume                     1203.52
loop_
_atom_site_label
_atom_site_type_symbol
_atom_site_fract_x
_atom_site_fract_y
_atom_site_fract_z
Cu1 Cu 0.22318(8) 0.15226(4) 0.66095(11)
Cu2 Cu 0.12543(10) -0.01514(6) 0.82957(15)
Cl1 Cl 0.29133(16) 0.02323(9) 0.7475(2)
Cl2 Cl 0.08299(19) 0.15002(10) 0.3133(3)
N1 N 0.4029(5) 0.3186(3) 1.2546(9)
C1 C 0.3059(6) 0.3665(3) 1.2454(9)
C2 C 0.1721(8) 0.3562(5) 1.2139(13)
H1 H 0.1343 0.3056 1.2017
C3 C 0.1014(8) 0.4245(6) 1.2023(14)
H2 H 0.0132 0.4200 1.1805
C4 C 0.1580(9) 0.5015(5) 1.2223(14)
H3 H 0.1066 0.5462 1.2151
C5 C 0.2875(7) 0.5120(4) 1.2523(12)
H4 H 0.3253 0.5626 1.2667
C6 C 0.3589(6) 0.4430(3) 1.2598(8)
N2 N 0.4869(5) 0.4337(3) 1.2826(8)
N3 N 0.5114(6) 0.3579(3) 1.2754(10)
O1 O 0.4205(7) 0.2370(3) 1.2902(9)
C7 C 0.3285(10) 0.1972(6) 1.0955(12)
H5 H 0.2361 0.2088 1.0639
H6 H 0.3415 0.1398 1.1154
C8 C 0.3463(8) 0.2211(4) 0.9101(12)
H7 H 0.4209 0.2013 0.9018
C9 C 0.2636(10) 0.2676(4) 0.7629(13)
H8 H 0.1882 0.2882 0.7674
H9 H 0.2792 0.2804 0.6522
Cu2A Cu 0.12543(10) 0.01514(6) 0.32957(15)
Cu2C Cu 0.62543(10) 0.51514(6) 1.32957(15)
Cl1A Cl 0.29133(16) -0.02323(9) 1.2475(2)
Cl2A Cl 0.08299(19) -0.15002(10) 0.8133(3)
N2C N -0.0131(5) 0.0663(3) 0.7826(8)
loop_
_geom_bond_atom_site_label_1
_geom_bond_atom_site_label_2
_geom_bond_site_symmetry_1
_geom_bond_site_symmetry_2
Cu1 Cl1 1_555 1_555
Cu2 Cl1 1_555 1_555
Cl1 Cu2A 1_555 1_555
Cl2 Cu1 1_555 1_555
N1 C1 1_555 1_555
C1 C2 1_555 1_555
C2 H1 1_555 1_555
C3 C2 1_555 1_555
H2 C3 1_555 1_555
C4 C3 1_555 1_555
H3 C4 1_555 1_555
C5 C4 1_555 1_555
H4 C5 1_555 1_555
C6 C1 1_555 1_555
N2 C6 1_555 1_555
N3 N1 1_555 1_555
O1 N1 1_555 1_555
C7 O1 1_555 1_555
H5 C7 1_555 1_555
H6 C7 1_555 1_555
C8 Cu1 1_555 1_555
H7 C8 1_555 1_555
C9 Cu1 1_555 1_555
H8 C9 1_555 1_555
H9 C9 1_555 1_555
Cu2A Cl2 1_555 1_555
Cu2C N2 1_555 1_555
Cl1A Cu2 1_555 1_555
Cl2A Cu2 1_555 1_555
N2C Cu2 1_555 1_555
C5 C6 1_555 1_555
N2 N3 1_555 1_555
C7 C8 1_555 1_555
C8 C9 1_555 1_555

#END
