
#######################################################################
#
#                 Cambridge Crystallographic Data Centre
#                                CCDC 
#
#######################################################################
#
# If this CIF has been generated from an entry in the Cambridge 
# Structural Database, then it will include bibliographic, chemical, 
# crystal, experimental, refinement or atomic coordinate data resulting 
# from the CCDC's data processing and validation procedures.
#
#######################################################################

data_TARMOP
_symmetry_cell_setting           triclinic
_symmetry_space_group_name_H-M   'P -1'
_symmetry_Int_Tables_number      2
_space_group_name_Hall           '-P 1'
loop_
_symmetry_equiv_pos_site_id
_symmetry_equiv_pos_as_xyz
1 x,y,z
2 -x,-y,-z
_cell_length_a                   7.6331(10)
_cell_length_b                   9.9871(13)
_cell_length_c                   14.8977(18)
_cell_angle_alpha                104.747(10)
_cell_angle_beta                 94.761(10)
_cell_angle_gamma                106.901(10)
_cell_volume                     1035.6
loop_
_atom_site_label
_atom_site_type_symbol
_atom_site_fract_x
_atom_site_fract_y
_atom_site_fract_z
Cu1 Cu 0.20333(11) 0.06979(7) 0.45638(4)
Br1 Br 0.18528(7) 0.02099(5) 0.60575(3)
N1 N 0.2776(6) 0.4721(4) 0.4252(3)
N2 N 0.2737(6) 0.3350(4) 0.4003(3)
N3 N 0.2381(6) 0.2833(4) 0.4724(2)
C1 C 0.2195(6) 0.3946(5) 0.5443(3)
C2 C 0.1798(7) 0.3963(5) 0.6350(3)
H1 H 0.1638 0.3152 0.6571
C3 C 0.1662(8) 0.5264(6) 0.6891(3)
H2 H 0.1400 0.5329 0.7496
C4 C 0.1906(8) 0.6494(6) 0.6560(3)
H3 H 0.1805 0.7343 0.6957
C5 C 0.2284(7) 0.6493(5) 0.5678(3)
H4 H 0.2426 0.7302 0.5456
C6 C 0.2440(6) 0.5177(5) 0.5135(3)
O1 O 0.3096(6) 0.5600(4) 0.3660(2)
C7 C 0.3287(9) 0.4788(6) 0.2730(4)
H5 H 0.2128 0.4018 0.2423
H6 H 0.4251 0.4346 0.2784
C8 C 0.3776(10) 0.5831(7) 0.2185(4)
H7 H 0.4990 0.6467 0.2318
C9 C 0.2601(9) 0.5935(7) 0.1510(4)
H8 H 0.1376 0.5316 0.1358
H9 H 0.3009 0.6626 0.1191
Cu2 Cu 0.40968(11) 0.45665(8) 0.08416(5)
Br2 Br 0.25591(7) 0.37424(5) -0.08040(3)
N4 N 0.4470(5) 0.2701(4) 0.1060(2)
N5 N 0.3079(5) 0.1843(4) 0.1331(3)
N6 N 0.3603(5) 0.0734(4) 0.1456(2)
C10 C 0.5331(6) 0.0805(4) 0.1243(3)
C11 C 0.6427(7) -0.0090(5) 0.1237(3)
H10 H 0.5999 -0.1045 0.1425
C12 C 0.8093(7) 0.0372(5) 0.0941(3)
H11 H 0.8880 -0.0189 0.0918
C13 C 0.8656(7) 0.1656(5) 0.0674(3)
H12 H 0.9800 0.1918 0.0478
C14 C 0.7574(6) 0.2541(5) 0.0691(3)
H13 H 0.7963 0.3397 0.0516
C15 C 0.5858(6) 0.2099(5) 0.0984(3)
O2 O 0.2336(5) -0.0457(3) 0.1615(2)
C16 C 0.1653(7) -0.0053(6) 0.2511(3)
H14 H 0.0489 -0.0790 0.2498
H15 H 0.1428 0.0875 0.2592
C17 C 0.3059(7) 0.0069(6) 0.3313(3)
H16 H 0.4105 0.0900 0.3510
C18 C 0.2900(8) -0.0963(6) 0.3773(3)
H17 H 0.1869 -0.1806 0.3593
H18 H 0.3822 -0.0826 0.4269
Cu1A Cu -0.20333(11) -0.06979(7) 0.54362(4)
Br1A Br -0.18528(7) -0.02099(5) 0.39425(3)
Cu2A Cu 0.59032(11) 0.54335(8) -0.08416(5)
Br2A Br 0.74409(7) 0.62576(5) 0.08040(3)
loop_
_geom_bond_atom_site_label_1
_geom_bond_atom_site_label_2
_geom_bond_site_symmetry_1
_geom_bond_site_symmetry_2
Cu1 Br1 1_555 1_555
Br1 Cu1A 1_555 1_555
N1 N2 1_555 1_555
N2 N3 1_555 1_555
N3 Cu1 1_555 1_555
C1 N3 1_555 1_555
C2 C1 1_555 1_555
H1 C2 1_555 1_555
C3 C2 1_555 1_555
H2 C3 1_555 1_555
C4 C3 1_555 1_555
H3 C4 1_555 1_555
C5 C4 1_555 1_555
H4 C5 1_555 1_555
C6 N1 1_555 1_555
O1 N1 1_555 1_555
C7 O1 1_555 1_555
H5 C7 1_555 1_555
H6 C7 1_555 1_555
C8 C7 1_555 1_555
H7 C8 1_555 1_555
C9 C8 1_555 1_555
H8 C9 1_555 1_555
H9 C9 1_555 1_555
Cu2 C8 1_555 1_555
Br2 Cu2 1_555 1_555
N4 Cu2 1_555 1_555
N5 N4 1_555 1_555
N6 N5 1_555 1_555
C10 N6 1_555 1_555
C11 C10 1_555 1_555
H10 C11 1_555 1_555
C12 C11 1_555 1_555
H11 C12 1_555 1_555
C13 C12 1_555 1_555
H12 C13 1_555 1_555
C14 C13 1_555 1_555
H13 C14 1_555 1_555
C15 N4 1_555 1_555
O2 N6 1_555 1_555
C16 O2 1_555 1_555
H14 C16 1_555 1_555
H15 C16 1_555 1_555
C17 Cu1 1_555 1_555
H16 C17 1_555 1_555
C18 Cu1 1_555 1_555
H17 C18 1_555 1_555
H18 C18 1_555 1_555
Cu1A Br1A 1_555 1_555
Br1A Cu1 1_555 1_555
Cu2A Br2 1_555 1_555
Br2A Cu2 1_555 1_555
C1 C6 1_555 1_555
C5 C6 1_555 1_555
C9 Cu2 1_555 1_555
C10 C15 1_555 1_555
C14 C15 1_555 1_555
C16 C17 1_555 1_555
C17 C18 1_555 1_555
Cu2A Br2A 1_555 1_555

#END
