
#######################################################################
#
#                 Cambridge Crystallographic Data Centre
#                                CCDC 
#
#######################################################################
#
# If this CIF has been generated from an entry in the Cambridge 
# Structural Database, then it will include bibliographic, chemical, 
# crystal, experimental, refinement or atomic coordinate data resulting 
# from the CCDC's data processing and validation procedures.
#
#######################################################################

data_TARPUY
_symmetry_cell_setting           monoclinic
_symmetry_space_group_name_H-M   'P 21/c'
_symmetry_Int_Tables_number      14
_space_group_name_Hall           '-P 2ybc'
loop_
_symmetry_equiv_pos_site_id
_symmetry_equiv_pos_as_xyz
1 x,y,z
2 -x,1/2+y,1/2-z
3 -x,-y,-z
4 x,1/2-y,1/2+z
_cell_length_a                   7.710(2)
_cell_length_b                   7.387(2)
_cell_length_c                   17.644(5)
_cell_angle_alpha                90
_cell_angle_beta                 95.920(4)
_cell_angle_gamma                90
_cell_volume                     999.533
loop_
_atom_site_label
_atom_site_type_symbol
_atom_site_fract_x
_atom_site_fract_y
_atom_site_fract_z
Cs1 Cs 0.61814(3) 1.15836(3) 0.202809(12)
N1 N -0.0999(5) 0.6609(4) -0.13318(17)
N2 N -0.3177(4) 0.6458(4) 0.11529(19)
O1 O 0.3897(3) 0.9392(4) 0.05699(14)
O2 O 0.2848(4) 0.9204(4) 0.16834(14)
O3 O 0.2147(4) 0.8293(4) -0.05904(15)
O4 O 0.0179(4) 0.6680(5) -0.17271(17)
O5 O -0.2474(4) 0.6140(5) -0.15816(16)
O6 O -0.4347(4) 0.5481(5) 0.08869(16)
O7 O -0.3110(4) 0.7085(5) 0.17992(16)
C1 C 0.2672(5) 0.8950(5) 0.1002(2)
C2 C 0.1041(5) 0.8131(4) 0.06072(19)
C3 C 0.0920(5) 0.7829(5) -0.02067(19)
C4 C -0.0694(5) 0.7031(5) -0.05156(18)
C5 C -0.2010(5) 0.6574(4) -0.0082(2)
H1 H -0.3025 0.6031 -0.0306
C6 C -0.1802(5) 0.6936(5) 0.0694(2)
C7 C -0.0278(5) 0.7726(5) 0.10330(19)
H2 H -0.0161 0.7977 0.1552
H3 H 0.284(10) 0.879(10) -0.023(4)
Cs1A Cs 0.38186(3) 0.65836(3) 0.297191(12)
Cs1A_2 Cs 0.38186(3) 1.65836(3) 0.297191(12)
Cs1B Cs 0.38186(3) 0.84164(3) -0.202809(12)
Cs1C Cs -0.38186(3) 0.34164(3) -0.297191(12)
Cs1B_2 Cs -0.61814(3) 0.84164(3) -0.202809(12)
Cs1_2 Cs -0.38186(3) 0.15836(3) 0.202809(12)
Cs1_3 Cs -0.38186(3) 1.15836(3) 0.202809(12)
Cs1A_3 Cs -0.61814(3) 0.65836(3) 0.297191(12)
O2A O 0.7152(4) 1.4204(4) 0.33166(14)
O3B O 0.7853(4) 1.1707(4) 0.05904(15)
O4B O 0.9821(4) 1.3320(5) 0.17271(17)
O5C O 0.7526(4) 0.8860(5) 0.34184(16)
O5B O 0.2474(4) 1.3860(5) 0.15816(16)
O6_2 O 0.5653(4) 1.5481(5) 0.08869(16)
O7_2 O 0.6890(4) 0.7085(5) 0.17992(16)
O7A O 0.3110(4) 1.2085(5) 0.32008(16)
H3B H 0.716(10) 1.121(10) 0.023(4)
loop_
_geom_bond_atom_site_label_1
_geom_bond_atom_site_label_2
_geom_bond_site_symmetry_1
_geom_bond_site_symmetry_2
Cs1 O1 1_555 1_555
N1 O4 1_555 1_555
N2 O6 1_555 1_555
O1 C1 1_555 1_555
O2 Cs1 1_555 1_555
O3 C3 1_555 1_555
O4 Cs1B 1_555 1_555
O5 N1 1_555 1_555
O6 Cs1_2 1_555 1_555
O7 N2 1_555 1_555
C1 O2 1_555 1_555
C2 C1 1_555 1_555
C3 C2 1_555 1_555
C4 N1 1_555 1_555
C5 C4 1_555 1_555
H1 C5 1_555 1_555
C6 N2 1_555 1_555
C7 C2 1_555 1_555
H2 C7 1_555 1_555
H3 O3 1_555 1_555
Cs1A O2 1_555 1_555
Cs1A_2 O2A 1_555 1_555
Cs1B O3 1_555 1_555
Cs1C O5 1_555 1_555
Cs1B_2 O5 1_555 1_555
Cs1_3 O7 1_555 1_555
Cs1A_3 O7 1_555 1_555
O2A Cs1 1_555 1_555
O3B Cs1 1_555 1_555
O4B Cs1 1_555 1_555
O5C Cs1 1_555 1_555
O5B Cs1 1_555 1_555
O6_2 Cs1 1_555 1_555
O7_2 Cs1 1_555 1_555
O7A Cs1 1_555 1_555
H3B O3B 1_555 1_555
C3 C4 1_555 1_555
C5 C6 1_555 1_555
C6 C7 1_555 1_555
Cs1A O5C 1_555 1_555
Cs1A O7_2 1_555 1_555
Cs1A_2 O5B 1_555 1_555
Cs1A_2 O7A 1_555 1_555

#END
