
#######################################################################
#
#                 Cambridge Crystallographic Data Centre
#                                CCDC 
#
#######################################################################
#
# If this CIF has been generated from an entry in the Cambridge 
# Structural Database, then it will include bibliographic, chemical, 
# crystal, experimental, refinement or atomic coordinate data resulting 
# from the CCDC's data processing and validation procedures.
#
#######################################################################

data_TARPIM
_symmetry_cell_setting           monoclinic
_symmetry_space_group_name_H-M   'P 21/n'
_symmetry_Int_Tables_number      14
_space_group_name_Hall           '-P 2yn'
loop_
_symmetry_equiv_pos_site_id
_symmetry_equiv_pos_as_xyz
1 x,y,z
2 1/2-x,1/2+y,1/2-z
3 -x,-y,-z
4 1/2+x,1/2-y,1/2+z
_cell_length_a                   12.613(13)
_cell_length_b                   20.10(2)
_cell_length_c                   20.33(2)
_cell_angle_alpha                90
_cell_angle_beta                 103.865(17)
_cell_angle_gamma                90
_cell_volume                     5003.91
loop_
_atom_site_label
_atom_site_type_symbol
_atom_site_fract_x
_atom_site_fract_y
_atom_site_fract_z
Sn1 Sn -0.29983(5) -0.32371(3) 0.21865(3)
Sn2 Sn -0.81035(5) -0.28051(3) 0.18590(3)
Cl1 Cl -0.2515(2) -0.40805(13) 0.30679(13)
Cl2 Cl -0.8227(2) -0.18435(14) 0.11013(15)
Cl3 Cl -0.0765(3) -0.25995(17) 0.37334(16)
Cl4 Cl -0.3566(5) -0.3299(2) -0.0045(3)
Cl5 Cl -0.6765(5) -0.2936(2) 0.4058(2)
Cl6 Cl -0.7864(3) -0.49573(18) 0.13955(18)
N1 N -0.2867(6) -0.2375(3) 0.1350(3)
N2 N -0.7447(5) -0.3735(3) 0.2577(3)
O1 O -0.1352(4) -0.3167(3) 0.2157(3)
O2 O -0.0042(5) -0.2696(3) 0.1780(4)
O3 O -0.6417(5) -0.2877(3) 0.1917(3)
O4 O -0.4872(5) -0.3412(4) 0.2269(4)
C1 C -0.1021(6) -0.2744(4) 0.1786(5)
C2 C -0.1817(7) -0.2297(4) 0.1339(4)
C3 C -0.1497(8) -0.1801(5) 0.0952(6)
H1 H -0.0762 -0.1738 0.0966
C4 C -0.2259(10) -0.1415(5) 0.0558(6)
H2 H -0.2049 -0.1086 0.0293
C5 C -0.3368(8) -0.1501(5) 0.0542(5)
C6 C -0.4181(12) -0.1143(6) 0.0113(6)
H3 H -0.4004 -0.0839 -0.0189
C7 C -0.5272(10) -0.1238(6) 0.0133(6)
H4 H -0.5818 -0.0978 -0.0136
C8 C -0.5533(9) -0.1715(6) 0.0552(7)
H5 H -0.6258 -0.1783 0.0564
C9 C -0.4740(8) -0.2082(5) 0.0945(5)
H6 H -0.4929 -0.2411 0.1219
C10 C -0.3650(8) -0.1987(4) 0.0955(4)
C11 C -0.5851(7) -0.3337(6) 0.2228(5)
C12 C -0.6374(7) -0.3847(5) 0.2604(4)
C13 C -0.5796(8) -0.4380(5) 0.2946(5)
H7 H -0.5061 -0.4439 0.2957
C14 C -0.6333(8) -0.4819(6) 0.3266(6)
H8 H -0.5967 -0.5187 0.3487
C15 C -0.7436(8) -0.4714(5) 0.3262(5)
C16 C -0.8037(11) -0.5146(5) 0.3585(6)
H9 H -0.7694 -0.5497 0.3850
C17 C -0.9122(11) -0.5040(6) 0.3502(6)
H10 H -0.9535 -0.5343 0.3680
C18 C -0.9618(8) -0.4497(5) 0.3162(5)
H11 H -1.0355 -0.4426 0.3138
C19 C -0.9080(7) -0.4059(5) 0.2859(5)
H12 H -0.9437 -0.3693 0.2627
C20 C -0.7963(7) -0.4171(4) 0.2904(4)
C21 C -0.3123(9) -0.2420(6) 0.2867(5)
H13 H -0.3854 -0.2235 0.2733
H14 H -0.3025 -0.2596 0.3322
C22 C -0.2314(13) -0.1872(6) 0.2881(6)
C23 C -0.1209(14) -0.1918(6) 0.3274(7)
C24 C -0.0499(13) -0.1400(8) 0.3238(7)
H15 H 0.0228 -0.1427 0.3475
C25 C -0.086(2) -0.0857(10) 0.2859(11)
H16 H -0.0382 -0.0511 0.2843
C26 C -0.187(2) -0.0806(11) 0.2517(9)
H17 H -0.2065 -0.0415 0.2274
C27 C -0.2686(15) -0.1283(8) 0.2478(8)
H18 H -0.3397 -0.1229 0.2220
C28 C -0.3594(7) -0.3899(5) 0.1332(5)
H19 H -0.3933 -0.4284 0.1482
H20 H -0.4144 -0.3670 0.0992
C29 C -0.2585(14) -0.4146(7) 0.0990(6)
C30 C -0.2672(11) -0.3816(7) 0.0396(9)
C31 C -0.1779(11) -0.3968(8) 0.0070(10)
H21 H -0.1683 -0.3774 -0.0328
C32 C -0.1124(15) -0.4428(9) 0.0433(9)
H22 H -0.0562 -0.4555 0.0237
C33 C -0.1091(14) -0.4764(10) 0.1040(10)
H23 H -0.0527 -0.5066 0.1193
C34 C -0.1836(9) -0.4674(7) 0.1422(8)
H24 H -0.1880 -0.4874 0.1827
C35 C -0.8068(8) -0.2228(5) 0.2752(5)
H25 H -0.8525 -0.1838 0.2628
H26 H -0.8372 -0.2491 0.3063
C36 C -0.6919(12) -0.2007(8) 0.3111(7)
C37 C -0.6256(14) -0.2259(7) 0.3671(8)
C38 C -0.5229(13) -0.2023(10) 0.3967(8)
H27 H -0.4800 -0.2218 0.4356
C39 C -0.4858(15) -0.1477(11) 0.3660(12)
H28 H -0.4173 -0.1290 0.3834
C40 C -0.562(2) -0.1210(8) 0.3038(15)
H29 H -0.5384 -0.0838 0.2840
C41 C -0.6447(11) -0.1409(7) 0.2783(8)
H30 H -0.6845 -0.1220 0.2382
C42 C -0.8726(7) -0.3513(5) 0.1066(4)
H31 H -0.9065 -0.3878 0.1251
H32 H -0.9286 -0.3299 0.0719
C43 C -0.7849(10) -0.3792(7) 0.0738(6)
C44 C -0.7414(11) -0.4409(9) 0.0860(7)
C45 C -0.6591(10) -0.4622(8) 0.0555(8)
H33 H -0.6243 -0.5029 0.0659
C46 C -0.6334(14) -0.4208(13) 0.0106(10)
H34 H -0.5892 -0.4383 -0.0157
C47 C -0.662(3) -0.360(2) -0.0007(12)
H35 H -0.6288 -0.3328 -0.0269
C48 C -0.7414(10) -0.3377(8) 0.0268(6)
H36 H -0.7696 -0.2953 0.0160
Sn2_2 Sn 0.18965(5) -0.28051(3) 0.18590(3)
O2_2 O -1.0042(5) -0.2696(3) 0.1780(4)
O5 O 0.612(2) -0.3930(12) 0.4444(9)
C49 C 0.628(2) -0.4658(12) 0.4687(12)
H37 H 0.651(6) -0.3588(16) 0.467(3)
H38 H 0.705(2) -0.482(2) 0.481(3)
H39 H 0.602(5) -0.479(2) 0.509(2)
H40 H 0.593(5) -0.5017(15) 0.437(2)
loop_
_geom_bond_atom_site_label_1
_geom_bond_atom_site_label_2
_geom_bond_site_symmetry_1
_geom_bond_site_symmetry_2
Sn1 Cl1 1_555 1_555
Sn2 Cl2 1_555 1_555
Cl3 C23 1_555 1_555
Cl4 C30 1_555 1_555
Cl5 C37 1_555 1_555
Cl6 C44 1_555 1_555
N1 Sn1 1_555 1_555
N2 Sn2 1_555 1_555
O1 Sn1 1_555 1_555
O2 C1 1_555 1_555
O3 Sn2 1_555 1_555
O4 Sn1 1_555 1_555
O5 C49 1_555 1_555
C1 O1 1_555 1_555
C2 N1 1_555 1_555
C3 C2 1_555 1_555
H1 C3 1_555 1_555
C4 C3 1_555 1_555
H2 C4 1_555 1_555
C5 C4 1_555 1_555
C6 C5 1_555 1_555
H3 C6 1_555 1_555
C7 C6 1_555 1_555
H4 C7 1_555 1_555
C8 C7 1_555 1_555
H5 C8 1_555 1_555
C9 C8 1_555 1_555
H6 C9 1_555 1_555
C10 N1 1_555 1_555
C11 O3 1_555 1_555
C12 N2 1_555 1_555
C13 C12 1_555 1_555
H7 C13 1_555 1_555
C14 C13 1_555 1_555
H8 C14 1_555 1_555
C15 C14 1_555 1_555
C16 C15 1_555 1_555
H9 C16 1_555 1_555
C17 C16 1_555 1_555
H10 C17 1_555 1_555
C18 C17 1_555 1_555
H11 C18 1_555 1_555
C19 C18 1_555 1_555
H12 C19 1_555 1_555
C20 N2 1_555 1_555
C21 Sn1 1_555 1_555
H13 C21 1_555 1_555
H14 C21 1_555 1_555
C22 C21 1_555 1_555
C23 C22 1_555 1_555
C24 C23 1_555 1_555
H15 C24 1_555 1_555
C25 C24 1_555 1_555
H16 C25 1_555 1_555
C26 C25 1_555 1_555
H17 C26 1_555 1_555
C27 C22 1_555 1_555
H18 C27 1_555 1_555
C28 Sn1 1_555 1_555
H19 C28 1_555 1_555
H20 C28 1_555 1_555
C29 C28 1_555 1_555
C30 C29 1_555 1_555
C31 C30 1_555 1_555
H21 C31 1_555 1_555
C32 C31 1_555 1_555
H22 C32 1_555 1_555
C33 C32 1_555 1_555
H23 C33 1_555 1_555
C34 C29 1_555 1_555
H24 C34 1_555 1_555
C35 Sn2 1_555 1_555
H25 C35 1_555 1_555
H26 C35 1_555 1_555
C36 C35 1_555 1_555
C37 C36 1_555 1_555
C38 C37 1_555 1_555
H27 C38 1_555 1_555
C39 C38 1_555 1_555
H28 C39 1_555 1_555
C40 C39 1_555 1_555
H29 C40 1_555 1_555
C41 C36 1_555 1_555
H30 C41 1_555 1_555
C42 Sn2 1_555 1_555
H31 C42 1_555 1_555
H32 C42 1_555 1_555
C43 C42 1_555 1_555
C44 C43 1_555 1_555
C45 C44 1_555 1_555
H33 C45 1_555 1_555
C46 C45 1_555 1_555
H34 C46 1_555 1_555
C47 C46 1_555 1_555
H35 C47 1_555 1_555
C48 C43 1_555 1_555
H36 C48 1_555 1_555
C49 H38 1_555 1_555
H37 O5 1_555 1_555
H39 C49 1_555 1_555
H40 C49 1_555 1_555
Sn2_2 O2 1_555 1_555
O2_2 Sn2 1_555 1_555
O4 C11 1_555 1_555
C1 C2 1_555 1_555
C5 C10 1_555 1_555
C9 C10 1_555 1_555
C11 C12 1_555 1_555
C15 C20 1_555 1_555
C19 C20 1_555 1_555
C26 C27 1_555 1_555
C33 C34 1_555 1_555
C40 C41 1_555 1_555
C47 C48 1_555 1_555

#END
