
#######################################################################
#
#                 Cambridge Crystallographic Data Centre
#                                CCDC 
#
#######################################################################
#
# If this CIF has been generated from an entry in the Cambridge 
# Structural Database, then it will include bibliographic, chemical, 
# crystal, experimental, refinement or atomic coordinate data resulting 
# from the CCDC's data processing and validation procedures.
#
#######################################################################

data_TARQEI
_symmetry_cell_setting           monoclinic
_symmetry_space_group_name_H-M   'P 21/c'
_symmetry_Int_Tables_number      14
_space_group_name_Hall           '-P 2ybc'
loop_
_symmetry_equiv_pos_site_id
_symmetry_equiv_pos_as_xyz
1 x,y,z
2 -x,1/2+y,1/2-z
3 -x,-y,-z
4 x,1/2-y,1/2+z
_cell_length_a                   10.356(2)
_cell_length_b                   9.766(2)
_cell_length_c                   9.415(1)
_cell_angle_alpha                90
_cell_angle_beta                 108.00(1)
_cell_angle_gamma                90
_cell_volume                     905.598
loop_
_atom_site_label
_atom_site_type_symbol
_atom_site_fract_x
_atom_site_fract_y
_atom_site_fract_z
Li1 Li 1.1821(7) 0.3223(6) 0.1400(7)
B1 B 1.2170(5) 0.1662(5) -0.0956(6)
N1 N 1.3041(3) 0.1967(3) 0.0656(3)
C1 C 1.4282(4) 0.2727(5) 0.0705(5)
C2 C 1.3434(5) 0.0707(4) 0.1514(5)
O1 O 0.9757(3) 0.3275(2) 0.0698(3)
C3 C 0.8971(4) 0.4393(4) 0.0938(5)
O2 O 0.8104(2) 0.4860(3) -0.0463(3)
C4 C 0.7229(4) 0.3773(4) -0.1194(6)
O3 O 0.8006(3) 0.2663(3) -0.1417(3)
C5 C 0.8862(5) 0.2186(4) -0.0026(5)
H1 H 1.2758(34) 0.1065(36) -0.1656(42)
H2 H 1.1280(37) 0.1026(36) -0.0991(42)
H3 H 1.1763(36) 0.2675(37) -0.1561(43)
H4 H 0.9624(39) 0.5156(39) 0.1434(46)
H5 H 0.8417(41) 0.4090(40) 0.1578(48)
H6 H 0.6714(42) 0.3499(40) -0.0433(50)
H7 H 0.6725(42) 0.4145(40) -0.2216(50)
H8 H 0.8214(42) 0.1932(42) 0.0499(49)
H9 H 0.9418(39) 0.1471(43) -0.0283(46)
H10 H 1.4040(39) 0.3586(41) 0.0058(47)
H11 H 1.4746(41) 0.2958(40) 0.1790(49)
H12 H 1.4870(42) 0.2112(40) 0.0315(47)
H13 H 1.4016(40) 0.0100(41) 0.1131(48)
H14 H 1.3969(45) 0.0884(41) 0.2551(49)
H15 H 1.2576(42) 0.0165(40) 0.1548(46)
O2B O 1.1896(2) 0.5140(3) 0.0463(3)
H1C H 1.2758(34) 0.3935(36) 0.3344(42)
Li1B Li 0.8179(7) 0.6777(6) -0.1400(7)
Li1C Li 1.1821(7) 0.1777(6) -0.3600(7)
loop_
_geom_bond_atom_site_label_1
_geom_bond_atom_site_label_2
_geom_bond_site_symmetry_1
_geom_bond_site_symmetry_2
Li1 N1 1_555 1_555
B1 N1 1_555 1_555
N1 C1 1_555 1_555
C1 H10 1_555 1_555
C2 N1 1_555 1_555
O1 Li1 1_555 1_555
C3 O1 1_555 1_555
O2 C3 1_555 1_555
C4 O2 1_555 1_555
O3 C4 1_555 1_555
C5 O1 1_555 1_555
H1 B1 1_555 1_555
H2 B1 1_555 1_555
H3 B1 1_555 1_555
H4 C3 1_555 1_555
H5 C3 1_555 1_555
H6 C4 1_555 1_555
H7 C4 1_555 1_555
H8 C5 1_555 1_555
H9 C5 1_555 1_555
H11 C1 1_555 1_555
H12 C1 1_555 1_555
H13 C2 1_555 1_555
H14 C2 1_555 1_555
H15 C2 1_555 1_555
O2B Li1 1_555 1_555
H1C Li1 1_555 1_555
Li1B O2 1_555 1_555
Li1C H1 1_555 1_555
O3 C5 1_555 1_555

#END
