
#######################################################################
#
#                 Cambridge Crystallographic Data Centre
#                                CCDC 
#
#######################################################################
#
# If this CIF has been generated from an entry in the Cambridge 
# Structural Database, then it will include bibliographic, chemical, 
# crystal, experimental, refinement or atomic coordinate data resulting 
# from the CCDC's data processing and validation procedures.
#
#######################################################################

data_TARQAE
_symmetry_cell_setting           triclinic
_symmetry_space_group_name_H-M   'P -1'
_symmetry_Int_Tables_number      2
_space_group_name_Hall           '-P 1'
loop_
_symmetry_equiv_pos_site_id
_symmetry_equiv_pos_as_xyz
1 x,y,z
2 -x,-y,-z
_cell_length_a                   8.911(1)
_cell_length_b                   9.577(2)
_cell_length_c                   10.615(2)
_cell_angle_alpha                77.56(1)
_cell_angle_beta                 65.27(1)
_cell_angle_gamma                63.37(1)
_cell_volume                     735.092
loop_
_atom_site_label
_atom_site_type_symbol
_atom_site_fract_x
_atom_site_fract_y
_atom_site_fract_z
O1 O -1.4169(2) 0.6562(2) 0.7282(2)
O2 O -1.7183(2) 0.8843(2) 0.6672(2)
N1 N -1.0177(3) 0.4515(2) 0.7430(2)
N2 N -2.1562(3) 1.0123(2) 0.7481(2)
C1 C -1.6391(4) 0.9201(3) 0.7428(3)
C2 C -1.4960(4) 0.6176(3) 0.6558(3)
C3 C -1.5851(4) 0.7588(3) 0.5766(3)
C4 C -1.5540(4) 0.7773(3) 0.8213(3)
C5 C -2.3325(4) 1.1452(4) 0.7906(3)
C6 C -0.8664(5) 0.4576(4) 0.7607(4)
B1 B -0.9543(5) 0.3315(3) 0.6377(3)
B2 B -2.1449(4) 0.9045(4) 0.6538(3)
Li1 Li -1.1536(6) 0.6373(5) 0.6457(5)
C7 C -1.1368(5) 0.4205(4) 0.8788(3)
C8 C -2.1237(5) 0.9296(4) 0.8731(3)
Li2 Li -1.9388(6) 1.0589(5) 0.6220(4)
H1 H -1.5437(38) 0.9623(32) 0.6704(29)
H2 H -2.3563(36) 1.2033(32) 0.7036(29)
H3 H -2.3404(35) 1.2164(32) 0.8529(27)
H4 H -1.4895(38) 0.7978(31) 0.4965(28)
H5 H -1.5896(38) 0.5762(32) 0.7246(27)
H6 H -2.1976(34) 0.9749(30) 0.5678(26)
H7 H -1.4989(37) 0.8041(31) 0.8693(27)
H8 H -1.6493(36) 0.7320(30) 0.5348(27)
H9 H -0.9092(36) 0.5397(34) 0.8276(28)
H10 H -1.0646(36) 0.3391(30) 0.6110(26)
H11 H -1.7414(37) 1.0029(33) 0.8075(27)
H12 H -2.2182(38) 0.8846(32) 0.9377(28)
H13 H -0.8899(35) 0.2059(32) 0.6770(25)
H14 H -0.8548(35) 0.3546(29) 0.5352(27)
H15 H -2.2199(34) 0.8295(32) 0.7191(26)
H16 H -1.6485(38) 0.7371(31) 0.8902(28)
H17 H -1.1764(36) 0.5059(33) 0.9415(28)
H18 H -2.0134(41) 0.8365(34) 0.8473(27)
H19 H -1.3946(38) 0.5354(33) 0.5886(27)
H20 H -1.9911(36) 0.8124(30) 0.5999(25)
H21 H -2.1145(36) 1.0012(33) 0.9272(27)
H22 H -0.7848(38) 0.4850(32) 0.6681(30)
H23 H -1.0740(37) 0.3166(34) 0.9222(28)
H24 H -0.7959(37) 0.3548(35) 0.7910(26)
H25 H -2.4346(38) 1.1074(31) 0.8526(27)
H26 H -1.2295(40) 0.4155(33) 0.8717(29)
H14A H -1.1452(35) 0.6454(29) 0.4648(27)
H6A H -1.8024(34) 1.0251(30) 0.4322(26)
H13_2 H -1.8899(35) 1.2059(32) 0.6770(25)
Li2_2 Li -0.9388(6) 0.0589(5) 0.6220(4)
Li1A Li -0.8464(6) 0.3627(5) 0.3543(5)
H15_2 H -1.2199(34) 0.8295(32) 0.7191(26)
Li2A Li -2.0612(6) 0.9411(5) 0.3780(4)
Li1_2 Li -2.1536(6) 0.6373(5) 0.6457(5)
loop_
_geom_bond_atom_site_label_1
_geom_bond_atom_site_label_2
_geom_bond_site_symmetry_1
_geom_bond_site_symmetry_2
O1 C2 1_555 1_555
O2 C1 1_555 1_555
N1 C6 1_555 1_555
N2 C5 1_555 1_555
C1 C4 1_555 1_555
C2 C3 1_555 1_555
C3 O2 1_555 1_555
C4 O1 1_555 1_555
C5 H2 1_555 1_555
C6 H9 1_555 1_555
B1 N1 1_555 1_555
B2 N2 1_555 1_555
Li1 O1 1_555 1_555
C7 N1 1_555 1_555
C8 N2 1_555 1_555
Li2 O2 1_555 1_555
H1 C1 1_555 1_555
H3 C5 1_555 1_555
H4 C3 1_555 1_555
H5 C2 1_555 1_555
H6 B2 1_555 1_555
H7 C4 1_555 1_555
H8 C3 1_555 1_555
H10 B1 1_555 1_555
H11 C1 1_555 1_555
H12 C8 1_555 1_555
H13 B1 1_555 1_555
H14 B1 1_555 1_555
H15 B2 1_555 1_555
H16 C4 1_555 1_555
H17 C7 1_555 1_555
H18 C8 1_555 1_555
H19 C2 1_555 1_555
H20 B2 1_555 1_555
H21 C8 1_555 1_555
H22 C6 1_555 1_555
H23 C7 1_555 1_555
H24 C6 1_555 1_555
H25 C5 1_555 1_555
H26 C7 1_555 1_555
H14A Li1 1_555 1_555
H6A Li2 1_555 1_555
H13_2 Li2 1_555 1_555
Li2_2 H13 1_555 1_555
Li1A H14 1_555 1_555
H15_2 Li1 1_555 1_555
Li2A H6 1_555 1_555
Li1_2 H15 1_555 1_555
N1 Li1 1_555 1_555
N2 Li2 1_555 1_555

#END
