
#######################################################################
#
#                 Cambridge Crystallographic Data Centre
#                                CCDC 
#
#######################################################################
#
# If this CIF has been generated from an entry in the Cambridge 
# Structural Database, then it will include bibliographic, chemical, 
# crystal, experimental, refinement or atomic coordinate data resulting 
# from the CCDC's data processing and validation procedures.
#
#######################################################################

data_TARQEJ
_symmetry_cell_setting           monoclinic
_symmetry_space_group_name_H-M   'P 21/c'
_symmetry_Int_Tables_number      14
_space_group_name_Hall           '-P 2ybc'
loop_
_symmetry_equiv_pos_site_id
_symmetry_equiv_pos_as_xyz
1 x,y,z
2 -x,1/2+y,1/2-z
3 -x,-y,-z
4 x,1/2-y,1/2+z
_cell_length_a                   5.8412(11)
_cell_length_b                   21.715(2)
_cell_length_c                   7.6285(15)
_cell_angle_alpha                90
_cell_angle_beta                 92.048(3)
_cell_angle_gamma                90
_cell_volume                     966.994
loop_
_atom_site_label
_atom_site_type_symbol
_atom_site_fract_x
_atom_site_fract_y
_atom_site_fract_z
Cs1 Cs 0.68595(5) 0.488282(16) 0.74361(4)
N1 N 0.1409(7) 0.3775(2) 0.8854(6)
N2 N 0.3171(8) 0.1632(2) 0.9715(6)
O1 O 0.5773(6) 0.40640(18) 1.0662(6)
O2 O 0.1549(8) 0.43122(19) 0.9325(7)
O3 O -0.0078(7) 0.36090(19) 0.7786(6)
O4 O 0.1438(9) 0.1514(2) 0.8792(6)
O5 O 0.4333(9) 0.1218(2) 1.0422(7)
O6 O 0.8349(7) 0.4513(2) 0.3529(6)
C1 C 0.5142(9) 0.3514(2) 1.0450(7)
C2 C 0.3011(8) 0.3323(2) 0.9559(6)
C3 C 0.2408(8) 0.2716(2) 0.9314(6)
H1 H 0.1050 0.2614 0.8708
C4 C 0.3832(9) 0.2259(2) 0.9974(7)
C5 C 0.5928(9) 0.2401(3) 1.0838(7)
H2 H 0.6891 0.2089 1.1256
C6 C 0.6531(8) 0.3004(3) 1.1056(7)
H3 H 0.7925 0.3091 1.1631
H4 H 0.901(10) 0.4176(18) 0.380(3)
H5 H 0.707(4) 0.445(3) 0.306(4)
Cs1B Cs 0.31405(5) 0.511718(16) 1.25639(4)
Cs1_2 Cs -0.31405(5) 0.488282(16) 0.74361(4)
Cs1C Cs 0.68595(5) 0.011718(16) 1.24361(4)
Cs1B_2 Cs 1.31405(5) 0.511718(16) 0.25639(4)
O1B O 0.4227(6) 0.59360(18) 0.9338(6)
O2_2 O 1.1549(8) 0.43122(19) 0.9325(7)
O2B O 0.8451(8) 0.56878(19) 1.0675(7)
O3_2 O 0.9922(7) 0.36090(19) 0.7786(6)
O5C O 0.4333(9) 0.3782(2) 0.5422(7)
O6B O 1.1651(7) 0.5487(2) 0.6471(6)
H4B H 1.099(10) 0.5824(18) 0.620(3)
H5B H 1.293(4) 0.555(3) 0.694(4)
loop_
_geom_bond_atom_site_label_1
_geom_bond_atom_site_label_2
_geom_bond_site_symmetry_1
_geom_bond_site_symmetry_2
Cs1 O1 1_555 1_555
N1 O2 1_555 1_555
N2 O4 1_555 1_555
O1 C1 1_555 1_555
O2 Cs1B 1_555 1_555
O3 N1 1_555 1_555
O5 N2 1_555 1_555
O6 Cs1 1_555 1_555
C1 C2 1_555 1_555
C2 N1 1_555 1_555
C3 C2 1_555 1_555
H1 C3 1_555 1_555
C4 N2 1_555 1_555
C5 C4 1_555 1_555
H2 C5 1_555 1_555
C6 C1 1_555 1_555
H3 C6 1_555 1_555
H4 O6 1_555 1_555
H5 O6 1_555 1_555
Cs1B O1 1_555 1_555
Cs1_2 O2 1_555 1_555
Cs1C O5 1_555 1_555
Cs1B_2 O6 1_555 1_555
O1B Cs1 1_555 1_555
O2_2 Cs1 1_555 1_555
O2B Cs1 1_555 1_555
O3_2 Cs1 1_555 1_555
O5C Cs1 1_555 1_555
O6B Cs1 1_555 1_555
H4B O6B 1_555 1_555
H5B O6B 1_555 1_555
O3 Cs1_2 1_555 1_555
C3 C4 1_555 1_555
C5 C6 1_555 1_555
Cs1B O1B 1_555 1_555
Cs1B_2 O6B 1_555 1_555

#END
