
#######################################################################
#
#                 Cambridge Crystallographic Data Centre
#                                CCDC 
#
#######################################################################
#
# If this CIF has been generated from an entry in the Cambridge 
# Structural Database, then it will include bibliographic, chemical, 
# crystal, experimental, refinement or atomic coordinate data resulting 
# from the CCDC's data processing and validation procedures.
#
#######################################################################

data_TARQAF
_symmetry_cell_setting           monoclinic
_symmetry_space_group_name_H-M   'P 21/c'
_symmetry_Int_Tables_number      14
_space_group_name_Hall           '-P 2ybc'
loop_
_symmetry_equiv_pos_site_id
_symmetry_equiv_pos_as_xyz
1 x,y,z
2 -x,1/2+y,1/2-z
3 -x,-y,-z
4 x,1/2-y,1/2+z
_cell_length_a                   9.682(3)
_cell_length_b                   7.317(2)
_cell_length_c                   14.358(4)
_cell_angle_alpha                90
_cell_angle_beta                 90.641(4)
_cell_angle_gamma                90
_cell_volume                     1017.1
loop_
_atom_site_label
_atom_site_type_symbol
_atom_site_fract_x
_atom_site_fract_y
_atom_site_fract_z
Cs1 Cs -0.02049(3) 0.21009(4) 0.130322(18)
O1 O 0.1732(3) 0.5523(6) 0.0239(2)
O2 O 0.1471(3) 0.5584(5) 0.1886(2)
O3 O 0.1869(3) 0.8372(5) 0.1072(3)
O4 O 0.6629(3) 0.8979(4) -0.0427(2)
O5 O 0.8388(3) 0.8458(4) 0.0554(2)
O6 O 0.8108(3) 0.5947(5) 0.1830(2)
S1 S 0.21082(10) 0.64195(14) 0.10899(7)
C1 C 0.3914(4) 0.6144(5) 0.1250(3)
C2 C 0.4812(4) 0.7090(5) 0.0686(3)
H1 H 0.4466 0.7759 0.0185
C3 C 0.6234(4) 0.7055(5) 0.0859(3)
C4 C 0.6744(4) 0.5998(6) 0.1604(3)
C5 C 0.5845(5) 0.5002(7) 0.2140(3)
H2 H 0.6188 0.4269 0.2619
C6 C 0.4441(5) 0.5083(6) 0.1974(3)
H3 H 0.3842 0.4423 0.2348
C7 C 0.7172(4) 0.8193(5) 0.0319(3)
H4 H 0.851(7) 0.671(9) 0.150(5)
Cs1B Cs 0.02049(3) -0.21009(4) -0.130322(18)
Cs1A Cs 0.02049(3) -0.28991(4) 0.369678(18)
Cs1A_2 Cs 0.02049(3) 0.71009(4) 0.369678(18)
Cs1B_2 Cs 0.02049(3) 0.78991(4) -0.130322(18)
Cs1_2 Cs -0.02049(3) 1.21009(4) 0.130322(18)
Cs1B_3 Cs 1.02049(3) 0.78991(4) -0.130322(18)
Cs1_3 Cs 0.97951(3) 1.21009(4) 0.130322(18)
Cs1_4 Cs 0.97951(3) 0.21009(4) 0.130322(18)
Cs1A_3 Cs 1.02049(3) 0.71009(4) 0.369678(18)
O1B O -0.1732(3) 0.4477(6) -0.0239(2)
O2A O -0.1471(3) 0.0584(5) 0.3114(2)
O3_2 O 0.1869(3) -0.1628(5) 0.1072(3)
O3B O -0.1869(3) 0.1628(5) -0.1072(3)
O4B O 0.3371(3) 0.1021(4) 0.0427(2)
O5_2 O -0.1612(3) -0.1542(4) 0.0554(2)
O5B O 0.1612(3) 0.1542(4) -0.0554(2)
O6_2 O -0.1892(3) 0.5947(5) 0.1830(2)
O6A O 0.1892(3) 0.0947(5) 0.3170(2)
H4_2 H -0.149(7) 0.671(9) 0.150(5)
H4A H 0.149(7) 0.171(9) 0.350(5)
loop_
_geom_bond_atom_site_label_1
_geom_bond_atom_site_label_2
_geom_bond_site_symmetry_1
_geom_bond_site_symmetry_2
Cs1 O1 1_555 1_555
O1 S1 1_555 1_555
O2 Cs1 1_555 1_555
O3 S1 1_555 1_555
O4 C7 1_555 1_555
O5 C7 1_555 1_555
O6 C4 1_555 1_555
S1 O2 1_555 1_555
C1 S1 1_555 1_555
C2 C1 1_555 1_555
H1 C2 1_555 1_555
C3 C2 1_555 1_555
C4 C3 1_555 1_555
C5 C4 1_555 1_555
H2 C5 1_555 1_555
C6 C1 1_555 1_555
H3 C6 1_555 1_555
C7 C3 1_555 1_555
H4 O6 1_555 1_555
Cs1B O3_2 1_555 1_555
Cs1A O2A 1_555 1_555
Cs1A_2 O2 1_555 1_555
Cs1B_2 O1 1_555 1_555
Cs1_2 O3 1_555 1_555
Cs1B_3 O4 1_555 1_555
Cs1_3 O5 1_555 1_555
Cs1_4 O6 1_555 1_555
Cs1A_3 O6 1_555 1_555
O1B Cs1 1_555 1_555
O2A Cs1 1_555 1_555
O3_2 Cs1 1_555 1_555
O3B Cs1 1_555 1_555
O4B Cs1 1_555 1_555
O5_2 Cs1 1_555 1_555
O5B Cs1 1_555 1_555
O6_2 Cs1 1_555 1_555
O6A Cs1 1_555 1_555
H4_2 O6_2 1_555 1_555
H4A O6A 1_555 1_555
O3 Cs1B_2 1_555 1_555
O5 Cs1B_3 1_555 1_555
C5 C6 1_555 1_555
Cs1B O3B 1_555 1_555
Cs1B O5_2 1_555 1_555
Cs1B O5B 1_555 1_555
Cs1A O6A 1_555 1_555
Cs1A_2 O6_2 1_555 1_555
Cs1B_2 O1B 1_555 1_555

#END
