
#######################################################################
#
#                 Cambridge Crystallographic Data Centre
#                                CCDC 
#
#######################################################################
#
# If this CIF has been generated from an entry in the Cambridge 
# Structural Database, then it will include bibliographic, chemical, 
# crystal, experimental, refinement or atomic coordinate data resulting 
# from the CCDC's data processing and validation procedures.
#
#######################################################################

data_TARQAG
_symmetry_cell_setting           triclinic
_symmetry_space_group_name_H-M   'P -1'
_symmetry_Int_Tables_number      2
_space_group_name_Hall           '-P 1'
loop_
_symmetry_equiv_pos_site_id
_symmetry_equiv_pos_as_xyz
1 x,y,z
2 -x,-y,-z
_cell_length_a                   7.1322(15)
_cell_length_b                   11.260(3)
_cell_length_c                   18.161(4)
_cell_angle_alpha                86.072(3)
_cell_angle_beta                 79.964(3)
_cell_angle_gamma                72.880(2)
_cell_volume                     1372.3
loop_
_atom_site_label
_atom_site_type_symbol
_atom_site_fract_x
_atom_site_fract_y
_atom_site_fract_z
O11 O 0.597(3) 0.9798(17) 0.3016(13)
H17 H 0.52(3) 1.045(13) 0.320(18)
H18 H 0.55(4) 0.921(15) 0.315(17)
C1 C 0.3770(12) 0.3491(8) -0.3782(4)
C2 C 0.3911(12) 0.3805(8) -0.3012(5)
C3 C 0.3160(14) 0.5018(9) -0.2764(5)
H1 H 0.2597 0.5658 -0.3081
C4 C 0.3263(15) 0.5257(10) -0.2041(6)
H2 H 0.2769 0.6075 -0.1882
C5 C 0.4759(13) 0.3194(8) -0.1792(5)
H3 H 0.5321 0.2569 -0.1467
C6 C 0.4687(14) 0.2891(9) -0.2504(5)
H4 H 0.5162 0.2065 -0.2648
C7 C 1.1628(16) 0.2111(9) 0.3539(5)
C8 C 1.1071(13) 0.1782(9) 0.2832(5)
C9 C 0.9340(16) 0.1487(10) 0.2823(5)
H5 H 0.8450 0.1486 0.3263
C10 C 0.8940(15) 0.1195(10) 0.2159(6)
H6 H 0.7782 0.0971 0.2164
C11 C 1.1755(17) 0.1517(13) 0.1522(6)
H7 H 1.2598 0.1536 0.1071
C12 C 1.2300(16) 0.1804(11) 0.2153(6)
H8 H 1.3479 0.2011 0.2130
C13 C 0.8951(11) 0.4240(8) -0.3993(4)
C14 C 0.9036(11) 0.3927(8) -0.3178(4)
C15 C 0.8287(12) 0.4851(8) -0.2645(4)
H9 H 0.7676 0.5665 -0.2784
C16 C 0.8466(14) 0.4539(9) -0.1913(5)
H10 H 0.7990 0.5171 -0.1566
C17 C 0.9971(13) 0.2509(9) -0.2178(5)
H11 H 1.0540 0.1699 -0.2021
C18 C 0.9890(13) 0.2738(8) -0.2935(5)
H12 H 1.0408 0.2094 -0.3274
C19 C 0.3995(12) 0.9941(7) -0.4829(5)
N1 N 0.4034(11) 0.4379(7) -0.1552(4)
N2 N 1.0115(12) 0.1214(8) 0.1505(4)
N3 N 0.9272(11) 0.3395(7) -0.1666(4)
O1 O 0.4262(9) 0.2372(5) -0.3973(3)
O2 O 0.3111(9) 0.4355(6) -0.4229(3)
O3 O 1.3393(11) 0.2147(6) 0.3534(4)
O4 O 1.0315(10) 0.2361(7) 0.4118(4)
O5 O 0.7928(10) 0.5292(6) -0.4158(3)
O6 O 0.9951(8) 0.3399(5) -0.4455(3)
O7 O 0.3893(8) 0.8886(5) -0.4601(4)
O8 O 0.2513(8) 1.0902(5) -0.4806(4)
O9 O 0.3928(9) 0.6556(6) -0.4449(4)
H13 H 0.286(7) 0.702(7) -0.452(5)
H14 H 0.380(13) 0.595(6) -0.419(5)
O10 O -0.1727(14) 1.1060(11) -0.4007(6)
H15 H -0.17(2) 1.176(7) -0.391(9)
H16 H -0.265(18) 1.087(13) -0.374(8)
I1 I 1.23578(9) 0.08767(6) -0.05581(4)
Cu1 Cu 0.9386(2) 0.29459(14) -0.05677(7)
Cu2 Cu 0.9488(2) 0.08077(17) 0.05332(8)
Cu3 Cu 0.3916(2) 0.47986(13) -0.04766(7)
Na1 Na -0.0196(17) 1.0393(9) -0.5099(7)
I2 I 1.0000 0.5000 0.0000
I3 I 0.59603(9) 0.29302(6) 0.02894(4)
Tb1 Tb 0.69288(6) 0.71462(3) -0.47936(2)
C1A C 0.6230(12) 0.6509(8) -0.6218(4)
C2A C 0.6089(12) 0.6195(8) -0.6988(5)
C3A C 0.6840(14) 0.4982(9) -0.7236(5)
H1A H 0.7403 0.4342 -0.6919
C4A C 0.6737(15) 0.4743(10) -0.7959(6)
H2A H 0.7231 0.3925 -0.8118
C5A C 0.5241(13) 0.6806(8) -0.8208(5)
H3A H 0.4679 0.7431 -0.8533
C6A C 0.5313(14) 0.7109(9) -0.7496(5)
H4A H 0.4838 0.7935 -0.7352
C7A C 0.8372(16) 0.7889(9) -0.3539(5)
C8A C 0.8929(13) 0.8218(9) -0.2832(5)
C9A C 1.0660(16) 0.8513(10) -0.2823(5)
H5A H 1.1550 0.8514 -0.3263
C10A C 1.1060(15) 0.8805(10) -0.2159(6)
H6A H 1.2218 0.9029 -0.2164
C11A C 0.8245(17) 0.8483(13) -0.1522(6)
H7A H 0.7402 0.8464 -0.1071
C12A C 0.7700(16) 0.8196(11) -0.2153(6)
H8A H 0.6521 0.7989 -0.2130
C13A C 1.1049(11) 0.5760(8) -0.6007(4)
C14A C 1.0964(11) 0.6073(8) -0.6822(4)
C15A C 1.1713(12) 0.5149(8) -0.7355(4)
H9A H 1.2324 0.4335 -0.7216
C16A C 1.1534(14) 0.5461(9) -0.8087(5)
H10A H 1.2010 0.4829 -0.8434
C17A C 1.0029(13) 0.7491(9) -0.7822(5)
H11A H 0.9460 0.8301 -0.7979
C18A C 1.0110(13) 0.7262(8) -0.7065(5)
H12A H 0.9592 0.7906 -0.6726
C19A C 0.6005(12) 1.0059(7) -0.5171(5)
N1A N 0.5966(11) 0.5621(7) -0.8448(4)
N1_2 N 1.4034(11) 0.4379(7) -0.1552(4)
N2A N 0.9885(12) 0.8786(8) -0.1505(4)
N2A_2 N 0.9885(12) -0.1214(8) -0.1505(4)
N3A N 1.0728(11) 0.6605(7) -0.8334(4)
N3A_2 N 1.0728(11) 0.6605(7) 0.1666(4)
O1A O 0.5738(9) 0.7628(5) -0.6027(3)
O1_2 O 1.4262(9) 0.2372(5) -0.3973(3)
O2A O 0.6889(9) 0.5645(6) -0.5771(3)
O2_2 O 1.3111(9) 0.4355(6) -0.4229(3)
O3A O 0.6607(11) 0.7853(6) -0.3534(4)
O3_2 O 1.3393(11) 0.2147(6) -0.6466(4)
O4A O 0.9685(10) 0.7639(7) -0.4118(4)
O4_2 O 0.0315(10) 1.2361(7) -0.5882(4)
O4_3 O 1.0315(10) 0.2361(7) -0.5882(4)
O5A O 1.2072(10) 0.4708(6) -0.5842(3)
O6A O 1.0049(8) 0.6601(5) -0.5545(3)
O7A O 0.6107(8) 1.1114(5) -0.5399(4)
O7A_2 O -0.3893(8) 1.1114(5) -0.5399(4)
O7A_3 O 1.6107(8) 0.1114(5) -0.5399(4)
O7_2 O 1.3893(8) 0.8886(5) -0.4601(4)
O8A O 0.7487(8) 0.9098(5) -0.5194(4)
O8A_2 O -0.2513(8) 0.9098(5) -0.5194(4)
O8_2 O 1.2513(8) 0.0902(5) -0.4806(4)
O8_3 O 1.2513(8) 1.0902(5) -0.4806(4)
O9A O 1.6072(9) 0.3444(6) -0.5551(4)
H13A H 1.714(7) 0.298(7) -0.548(5)
H14A H 1.620(13) 0.405(6) -0.581(5)
O10A O 0.1727(14) 0.8940(11) -0.5993(6)
O10A_2 O 1.1727(14) 0.8940(11) -0.5993(6)
O10_2 O 0.8273(14) 1.1060(11) -0.4007(6)
H15A H 0.17(2) 0.824(7) -0.609(9)
H15A_2 H 1.17(2) 0.824(7) -0.609(9)
H15_2 H 0.83(2) 1.176(7) -0.391(9)
H16A H 0.265(18) 0.913(13) -0.626(8)
H16A_2 H 1.265(18) 0.913(13) -0.626(8)
H16_2 H 0.735(18) 1.087(13) -0.374(8)
I1A I 0.76422(9) -0.08767(6) 0.05581(4)
I1A_2 I 0.76422(9) 0.91233(6) 0.05581(4)
Cu1A Cu 1.0614(2) 0.70541(14) 0.05677(7)
Cu1A_2 Cu 1.0614(2) -0.29459(14) 0.05677(7)
Cu1A_3 Cu 0.0614(2) 0.70541(14) 0.05677(7)
Cu1A_4 Cu 1.0614(2) 0.70541(14) -0.94323(7)
Cu2A Cu 1.0512(2) -0.08077(17) -0.05332(8)
Cu2A_2 Cu 0.0512(2) 0.91923(17) -0.05332(8)
Cu2A_3 Cu 1.0512(2) 0.91923(17) -0.05332(8)
Cu3_2 Cu 1.3916(2) 0.47986(13) -0.04766(7)
Cu3A Cu 0.6084(2) 0.52014(13) 0.04766(7)
Cu3A_2 Cu 0.6084(2) 0.52014(13) -0.95234(7)
Na1A Na 1.0196(17) 0.9607(9) -0.4901(7)
Na1_2 Na 0.9804(17) 0.0393(9) 0.4901(7)
Na1A_2 Na 0.0196(17) 0.9607(9) -0.4901(7)
Na1_3 Na 0.9804(17) 1.0393(9) -0.5099(7)
I2_2 I 0.0000 0.5000 0.0000
I3A I 0.40397(9) 0.70698(6) -0.02894(4)
I3A_2 I 1.40397(9) 0.70698(6) -0.02894(4)
I3A_3 I 1.40397(9) -0.29302(6) -0.02894(4)
I3_2 I 1.59603(9) 0.29302(6) 0.02894(4)
Tb1A Tb 1.30712(6) 0.28538(3) -0.52064(2)
Tb1A_2 Tb 0.30712(6) 0.28538(3) -0.52064(2)
Tb1A_3 Tb 1.30712(6) 0.28538(3) 0.47936(2)
Tb1A_4 Tb 0.30712(6) 1.28538(3) -0.52064(2)
loop_
_geom_bond_atom_site_label_1
_geom_bond_atom_site_label_2
_geom_bond_site_symmetry_1
_geom_bond_site_symmetry_2
C1 C2 1_555 1_555
C2 C3 1_555 1_555
C3 H1 1_555 1_555
C4 C3 1_555 1_555
H2 C4 1_555 1_555
C5 H3 1_555 1_555
C6 C2 1_555 1_555
H4 C6 1_555 1_555
C7 C8 1_555 1_555
C8 C9 1_555 1_555
C9 H5 1_555 1_555
C10 C9 1_555 1_555
H6 C10 1_555 1_555
C11 H7 1_555 1_555
C12 C8 1_555 1_555
H8 C12 1_555 1_555
C13 C14 1_555 1_555
C14 C15 1_555 1_555
C15 H9 1_555 1_555
C16 C15 1_555 1_555
H10 C16 1_555 1_555
C17 H11 1_555 1_555
C18 C14 1_555 1_555
H12 C18 1_555 1_555
C19 O7 1_555 1_555
N1 C4 1_555 1_555
N2 C10 1_555 1_555
N3 C16 1_555 1_555
O1 C1 1_555 1_555
O2 C1 1_555 1_555
O3 C7 1_555 1_555
O4 C7 1_555 1_555
O5 C13 1_555 1_555
O6 C13 1_555 1_555
O7 Tb1 1_555 1_555
O8 C19 1_555 1_555
O9 H13 1_555 1_555
H14 O9 1_555 1_555
O10 H15 1_555 1_555
H16 O10 1_555 1_555
O11 H17 1_555 1_555
H18 O11 1_555 1_555
I1 Cu1 1_555 1_555
Cu1 N3 1_555 1_555
Cu2 N2 1_555 1_555
Cu3 N1 1_555 1_555
Na1 O8 1_555 1_555
I2 Cu1 1_555 1_555
I3 Cu1 1_555 1_555
Tb1 O5 1_555 1_555
C1A C2A 1_555 1_555
C2A C3A 1_555 1_555
C3A H1A 1_555 1_555
C4A C3A 1_555 1_555
H2A C4A 1_555 1_555
C5A H3A 1_555 1_555
C6A C2A 1_555 1_555
H4A C6A 1_555 1_555
C7A C8A 1_555 1_555
C8A C9A 1_555 1_555
C9A H5A 1_555 1_555
C10A C9A 1_555 1_555
H6A C10A 1_555 1_555
C11A H7A 1_555 1_555
C12A C8A 1_555 1_555
H8A C12A 1_555 1_555
C13A C14A 1_555 1_555
C14A C15A 1_555 1_555
C15A H9A 1_555 1_555
C16A C15A 1_555 1_555
H10A C16A 1_555 1_555
C17A H11A 1_555 1_555
C18A C14A 1_555 1_555
H12A C18A 1_555 1_555
C19A C19 1_555 1_555
N1A C4A 1_555 1_555
N1_2 Cu3_2 1_555 1_555
N2A C10A 1_555 1_555
N2A_2 Cu2A 1_555 1_555
N3A C16A 1_555 1_555
N3A_2 Cu1A 1_555 1_555
O1A Tb1 1_555 1_555
O1_2 Tb1A 1_555 1_555
O2A Tb1 1_555 1_555
O2_2 Tb1A 1_555 1_555
O3A Tb1 1_555 1_555
O3_2 Tb1A 1_555 1_555
O4A Tb1 1_555 1_555
O4_2 Na1 1_555 1_555
O4_3 Tb1A 1_555 1_555
O5A C13A 1_555 1_555
O6A Tb1 1_555 1_555
O7A C19A 1_555 1_555
O7A_2 Na1 1_555 1_555
O7A_3 Tb1A 1_555 1_555
O7_2 Na1A 1_555 1_555
O8A Tb1 1_555 1_555
O8A_2 Na1 1_555 1_555
O8_2 Tb1A 1_555 1_555
O8_3 Na1A 1_555 1_555
O9A H13A 1_555 1_555
H14A O9A 1_555 1_555
O10A Na1 1_555 1_555
O10A_2 H15A_2 1_555 1_555
O10_2 H15_2 1_555 1_555
H15A O10A 1_555 1_555
H16A O10A 1_555 1_555
H16A_2 O10A_2 1_555 1_555
H16_2 O10_2 1_555 1_555
I1A Cu2 1_555 1_555
I1A_2 Cu1A 1_555 1_555
Cu1A I2 1_555 1_555
Cu1A_2 I1A 1_555 1_555
Cu1A_3 I2_2 1_555 1_555
Cu1A_4 N3A 1_555 1_555
Cu2A I1 1_555 1_555
Cu2A_2 I3A 1_555 1_555
Cu2A_3 N2A 1_555 1_555
Cu3_2 I2 1_555 1_555
Cu3A I2 1_555 1_555
Cu3A_2 N1A 1_555 1_555
Na1A O4A 1_555 1_555
Na1_2 O4 1_555 1_555
Na1A_2 O7 1_555 1_555
Na1_3 O7A 1_555 1_555
I2_2 Cu3 1_555 1_555
I3A Cu3 1_555 1_555
I3A_2 Cu1A 1_555 1_555
I3A_3 Cu1A_2 1_555 1_555
I3_2 Cu3_2 1_555 1_555
Tb1A O6 1_555 1_555
Tb1A_2 O1 1_555 1_555
Tb1A_3 O3 1_555 1_555
Tb1A_4 O8 1_555 1_555
C5 C6 1_555 1_555
C5 N1 1_555 1_555
C11 C12 1_555 1_555
C11 N2 1_555 1_555
C17 C18 1_555 1_555
C17 N3 1_555 1_555
O2 Tb1A_2 1_555 1_555
O4 Tb1A_3 1_555 1_555
O8 Na1A_2 1_555 1_555
O9 Tb1 1_555 1_555
O10 Na1 1_555 1_555
O10 Na1A_2 1_555 1_555
I1 Cu2 1_555 1_555
Cu2 I3 1_555 1_555
Cu3 I3 1_555 1_555
Na1 Na1A_2 1_555 1_555
I3 Cu3A 1_555 1_555
C1A O1A 1_555 1_555
C1A O2A 1_555 1_555
C5A C6A 1_555 1_555
C5A N1A 1_555 1_555
C7A O3A 1_555 1_555
C7A O4A 1_555 1_555
C11A C12A 1_555 1_555
C11A N2A 1_555 1_555
C13A O6A 1_555 1_555
C17A C18A 1_555 1_555
C17A N3A 1_555 1_555
C19A O8A 1_555 1_555
O4_2 Tb1A_4 1_555 1_555
O5A Tb1A 1_555 1_555
O7A Tb1A_4 1_555 1_555
O8A Na1A 1_555 1_555
O8A Na1_3 1_555 1_555
O8A_2 Na1A_2 1_555 1_555
O8_3 Na1_3 1_555 1_555
O9A Tb1A 1_555 1_555
O10A Na1A_2 1_555 1_555
O10A_2 Na1A 1_555 1_555
O10A_2 Na1_3 1_555 1_555
O10_2 Na1A 1_555 1_555
O10_2 Na1_3 1_555 1_555
I1A Cu2A 1_555 1_555
I1A_2 Cu2A_3 1_555 1_555
Cu1A_3 I3A 1_555 1_555
Cu2A I3A_3 1_555 1_555
Cu2A_3 I3A_2 1_555 1_555
Cu3_2 I3A_2 1_555 1_555
Cu3A I3A 1_555 1_555
Na1A Na1_3 1_555 1_555

#END
