
#######################################################################
#
#                 Cambridge Crystallographic Data Centre
#                                CCDC 
#
#######################################################################
#
# If this CIF has been generated from an entry in the Cambridge 
# Structural Database, then it will include bibliographic, chemical, 
# crystal, experimental, refinement or atomic coordinate data resulting 
# from the CCDC's data processing and validation procedures.
#
#######################################################################

data_TARQUA
_symmetry_cell_setting           triclinic
_symmetry_space_group_name_H-M   'P -1'
_symmetry_Int_Tables_number      2
_space_group_name_Hall           '-P 1'
loop_
_symmetry_equiv_pos_site_id
_symmetry_equiv_pos_as_xyz
1 x,y,z
2 -x,-y,-z
_cell_length_a                   7.1755(7)
_cell_length_b                   11.4346(12)
_cell_length_c                   18.3179(19)
_cell_angle_alpha                86.188(1)
_cell_angle_beta                 78.880(1)
_cell_angle_gamma                73.573(1)
_cell_volume                     1414.44
loop_
_atom_site_label
_atom_site_type_symbol
_atom_site_fract_x
_atom_site_fract_y
_atom_site_fract_z
O9 O 0.394(3) 0.0256(15) 0.7012(12)
H17 H 0.488(13) 0.055(12) 0.695(12)
H18 H 0.431(19) -0.046(5) 0.688(10)
La1 La 0.30407(6) 0.28845(4) 0.47693(2)
I1 I 0.0000 0.5000 1.0000
I2 I 0.59342(8) 0.29599(5) 1.02793(3)
I3 I 0.23380(8) 0.08774(5) 0.94352(3)
Cu1 Cu 0.39340(17) 0.47979(11) 0.95270(6)
Cu2 Cu -0.05864(18) 0.29204(12) 0.94480(6)
Cu3 Cu -0.0564(2) 0.08193(14) 0.05292(7)
O1 O 0.3019(8) 0.4355(4) 0.5828(3)
O2 O 0.6241(7) 0.3454(5) 0.4432(3)
H1 H 0.6431 0.4142 0.4459
H2 H 0.7375 0.2968 0.4288
O3 O 0.4251(8) 0.2403(4) 0.6067(3)
O4 O 0.3420(8) 0.2166(5) 0.3429(3)
O5 O 0.0423(8) 0.2332(6) 0.4061(3)
O6 O -0.0214(7) 0.3341(4) 0.5605(3)
O7 O 0.6106(7) 0.1102(4) 0.4568(3)
N1 N 0.4065(9) 0.4379(6) 0.8464(3)
N2 N 0.0024(11) 0.1269(7) 0.1477(4)
N3 N -0.0682(9) 0.3347(6) 0.8359(4)
C1 C 0.4626(12) 0.2911(7) 0.7512(4)
H3 H 0.5072 0.2100 0.7369
C2 C 0.4707(11) 0.3233(7) 0.8212(4)
H4 H 0.5240 0.2617 0.8532
C3 C 0.3327(12) 0.5238(7) 0.7979(5)
H5 H 0.2870 0.6043 0.8136
C4 C 0.3207(12) 0.5005(7) 0.7272(4)
H6 H 0.2686 0.5638 0.6959
C5 C 0.3871(10) 0.3815(7) 0.7025(4)
C6 C 0.3722(11) 0.3505(7) 0.6259(4)
C7 C 0.1667(13) 0.2099(7) 0.3484(5)
C8 C 0.1068(12) 0.1800(8) 0.2786(4)
C9 C -0.0671(12) 0.1500(8) 0.2805(5)
H7 H -0.1535 0.1484 0.3252
C10 C -0.1104(13) 0.1224(8) 0.2144(5)
H8 H -0.2256 0.0993 0.2166
C11 C 0.1700(15) 0.1569(10) 0.1479(5)
H9 H 0.2530 0.1600 0.1025
C12 C 0.2262(14) 0.1832(10) 0.2104(5)
H10 H 0.3445 0.2032 0.2070
C13 C -0.0175(11) 0.2688(7) 0.7110(4)
H11 H 0.0310 0.2050 0.6774
C14 C -0.0087(12) 0.2482(8) 0.7849(5)
H12 H 0.0423 0.1684 0.8004
C15 C -0.1452(11) 0.4492(7) 0.8119(4)
H13 H -0.1864 0.5117 0.8463
C16 C -0.1661(11) 0.4784(7) 0.7395(4)
H14 H -0.2236 0.5584 0.7259
C17 C -0.1003(10) 0.3869(7) 0.6870(4)
C18 C -0.1138(10) 0.4170(7) 0.6068(4)
C19 C 0.6031(10) 0.0069(7) 0.4821(4)
O8 O -0.1743(10) 0.1054(7) 0.5969(4)
H15 H -0.3011 0.1388 0.5942
H16 H -0.1734 0.0978 0.6454
Na1 Na -0.0220(13) 0.0389(7) 0.4879(6)
O10 O 0.7470(7) -0.0842(4) 0.4808(3)
O11 O -0.2134(8) 0.5194(5) 0.5910(3)
C19A C 0.3969(10) -0.0069(7) 0.5179(4)
O7A O 0.3894(7) -0.1102(4) 0.5432(3)
O10A O 0.2530(7) 0.0842(4) 0.5192(3)
O6A O 0.0214(7) 0.6659(4) 0.4395(3)
N3A N 0.0682(9) 0.6653(6) 0.1641(4)
C13A C 0.0175(11) 0.7312(7) 0.2890(4)
H11A H -0.0310 0.7950 0.3226
C14A C 0.0087(12) 0.7518(8) 0.2151(5)
H12A H -0.0423 0.8316 0.1996
C15A C 0.1452(11) 0.5508(7) 0.1881(4)
H13A H 0.1864 0.4883 0.1537
C16A C 0.1661(11) 0.5216(7) 0.2605(4)
H14A H 0.2236 0.4416 0.2741
C17A C 0.1003(10) 0.6131(7) 0.3130(4)
C18A C 0.1138(10) 0.5830(7) 0.3932(4)
O11A O 0.2134(8) 0.4806(5) 0.4090(3)
La1A La -0.30407(6) 0.71155(4) 0.52307(2)
Cu2A Cu 0.05864(18) 0.70796(12) 0.05520(6)
Na1_2 Na 0.9780(13) 0.0389(7) 0.4879(6)
I2A I 0.40658(8) 0.70401(5) 0.97207(3)
I3_2 I 0.23380(8) 0.08774(5) -0.05648(3)
O8A O 0.1743(10) -0.1054(7) 0.4031(4)
H15A H 0.3011 -0.1388 0.4058
H16A H 0.1734 -0.0978 0.3546
O1A O -0.3019(8) 0.5645(4) 0.4172(3)
O3A O -0.4251(8) 0.7597(4) 0.3933(3)
N1A N -0.4065(9) 0.5621(6) 0.1536(3)
C1A C -0.4626(12) 0.7089(7) 0.2488(4)
H3A H -0.5072 0.7900 0.2631
C2A C -0.4707(11) 0.6767(7) 0.1788(4)
H4A H -0.5240 0.7383 0.1468
C3A C -0.3327(12) 0.4762(7) 0.2021(5)
H5A H -0.2870 0.3957 0.1864
C4A C -0.3207(12) 0.4995(7) 0.2728(4)
H6A H -0.2686 0.4362 0.3041
C5A C -0.3871(10) 0.6185(7) 0.2975(4)
C6A C -0.3722(11) 0.6495(7) 0.3741(4)
O2A O -0.6241(7) 0.6546(5) 0.5568(3)
H1A H -0.6431 0.5858 0.5541
H2A H -0.7375 0.7032 0.5712
O4A O -0.3420(8) 0.7834(5) 0.6571(3)
O5A O -0.0423(8) 0.7668(6) 0.5939(3)
N2A N -0.0024(11) 0.8731(7) 0.8523(4)
C7A C -0.1667(13) 0.7901(7) 0.6516(5)
C8A C -0.1068(12) 0.8200(8) 0.7214(4)
C9A C 0.0671(12) 0.8500(8) 0.7195(5)
H7A H 0.1535 0.8516 0.6748
C10A C 0.1104(13) 0.8776(8) 0.7856(5)
H8A H 0.2256 0.9007 0.7834
C11A C -0.1700(15) 0.8431(10) 0.8521(5)
H9A H -0.2530 0.8400 0.8975
C12A C -0.2262(14) 0.8168(10) 0.7896(5)
H10A H -0.3445 0.7968 0.7930
Cu1A Cu 0.60660(17) 0.52021(11) 1.04730(6)
Cu3A Cu 0.0564(2) 0.91807(14) 0.94708(7)
Cu1A_2 Cu -0.39340(17) 0.52021(11) 1.04730(6)
Cu2A_2 Cu 0.05864(18) 0.70796(12) 1.05520(6)
Cu2_2 Cu 0.94136(18) 0.29204(12) 0.94480(6)
Cu3_2 Cu -0.0564(2) 0.08193(14) 1.05292(7)
Cu3A_2 Cu 0.0564(2) -0.08193(14) 0.94708(7)
I2_2 I -0.40658(8) 0.29599(5) 1.02793(3)
I3A I -0.23380(8) -0.08774(5) 0.05648(3)
Na1A Na 0.0220(13) -0.0389(7) 0.5121(6)
O7_2 O -0.3894(7) 0.1102(4) 0.4568(3)
O10_2 O -0.2530(7) -0.0842(4) 0.4808(3)
La1A_2 La 0.69593(6) -0.28845(4) 0.52307(2)
Na1A_2 Na 1.0220(13) -0.0389(7) 0.5121(6)
O7A_2 O -0.6106(7) 0.8898(4) 0.5432(3)
O10_3 O -0.2530(7) 0.9158(4) 0.4808(3)
I3A_2 I -0.23380(8) 0.91226(5) 0.05648(3)
I1A I 0.0000 0.5000 0.0000
I2A_2 I 0.40658(8) 0.70401(5) -0.02793(3)
O5_2 O 1.0423(8) 0.2332(6) 0.4061(3)
O8_2 O 0.8257(10) 0.1054(7) 0.5969(4)
O10A_2 O 1.2530(7) 0.0842(4) 0.5192(3)
O8A_2 O 1.1743(10) -0.1054(7) 0.4031(4)
Cu2_3 Cu -0.05864(18) 0.29204(12) -0.05520(6)
Cu3A_3 Cu 0.0564(2) -0.08193(14) -0.05292(7)
Cu1A_3 Cu -0.39340(17) 0.52021(11) 0.04730(6)
Na1A_3 Na 0.0220(13) 0.9611(7) 0.5121(6)
I1A_2 I 1.0000 0.5000 1.0000
N1A_2 N 0.5935(9) 0.5621(6) 1.1536(3)
I3A_3 I -0.23380(8) 0.91226(5) 1.05648(3)
I3_3 I 0.23380(8) 1.08774(5) 0.94352(3)
H15_2 H 0.6989 0.1388 0.5942
H16_2 H 0.8266 0.0978 0.6454
H15A_2 H 1.3011 -0.1388 0.4058
H16A_2 H 1.1734 -0.0978 0.3546
loop_
_geom_bond_atom_site_label_1
_geom_bond_atom_site_label_2
_geom_bond_site_symmetry_1
_geom_bond_site_symmetry_2
La1 O1 1_555 1_555
I1 Cu1 1_555 1_555
I2 Cu1 1_555 1_555
I3 Cu2 1_555 1_555
Cu1 N1 1_555 1_555
Cu2 I1 1_555 1_555
Cu3 N2 1_555 1_555
O1 C6 1_555 1_555
O2 La1 1_555 1_555
H1 O2 1_555 1_555
H2 O2 1_555 1_555
O3 La1 1_555 1_555
O4 La1 1_555 1_555
O5 La1 1_555 1_555
O6 La1 1_555 1_555
O7 La1 1_555 1_555
N1 C2 1_555 1_555
N2 C10 1_555 1_555
N3 Cu2 1_555 1_555
C1 H3 1_555 1_555
C2 C1 1_555 1_555
H4 C2 1_555 1_555
C3 N1 1_555 1_555
H5 C3 1_555 1_555
C4 C3 1_555 1_555
H6 C4 1_555 1_555
C5 C1 1_555 1_555
C6 O3 1_555 1_555
C7 O4 1_555 1_555
C8 C7 1_555 1_555
C9 C8 1_555 1_555
H7 C9 1_555 1_555
C10 C9 1_555 1_555
H8 C10 1_555 1_555
C11 N2 1_555 1_555
H9 C11 1_555 1_555
C12 C8 1_555 1_555
H10 C12 1_555 1_555
C13 H11 1_555 1_555
C14 N3 1_555 1_555
H12 C14 1_555 1_555
C15 N3 1_555 1_555
H13 C15 1_555 1_555
C16 C15 1_555 1_555
H14 C16 1_555 1_555
C17 C13 1_555 1_555
C18 O6 1_555 1_555
C19 O7 1_555 1_555
O8 H15 1_555 1_555
H16 O8 1_555 1_555
Na1 O5 1_555 1_555
O9 H17 1_555 1_555
O10 C19 1_555 1_555
O11 C18 1_555 1_555
H18 O9 1_555 1_555
C19A C19 1_555 1_555
O7A C19A 1_555 1_555
O10A La1 1_555 1_555
O6A C18A 1_555 1_555
N3A C14A 1_555 1_555
C13A H11A 1_555 1_555
C14A C13A 1_555 1_555
H12A C14A 1_555 1_555
C15A N3A 1_555 1_555
H13A C15A 1_555 1_555
C16A C15A 1_555 1_555
H14A C16A 1_555 1_555
C17A C13A 1_555 1_555
C18A C17A 1_555 1_555
O11A La1 1_555 1_555
La1A O11 1_555 1_555
Cu2A N3A 1_555 1_555
Na1_2 O7 1_555 1_555
I2A Cu1 1_555 1_555
I3_2 Cu3 1_555 1_555
O8A Na1 1_555 1_555
H15A O8A 1_555 1_555
H16A O8A 1_555 1_555
O1A La1A 1_555 1_555
O3A La1A 1_555 1_555
N1A C2A 1_555 1_555
C1A H3A 1_555 1_555
C2A C1A 1_555 1_555
H4A C2A 1_555 1_555
C3A N1A 1_555 1_555
H5A C3A 1_555 1_555
C4A C3A 1_555 1_555
H6A C4A 1_555 1_555
C5A C1A 1_555 1_555
C6A O1A 1_555 1_555
O2A La1A 1_555 1_555
H1A O2A 1_555 1_555
H2A O2A 1_555 1_555
O4A La1A 1_555 1_555
O5A La1A 1_555 1_555
N2A C10A 1_555 1_555
C7A O4A 1_555 1_555
C8A C7A 1_555 1_555
C9A C8A 1_555 1_555
H7A C9A 1_555 1_555
C10A C9A 1_555 1_555
H8A C10A 1_555 1_555
C11A N2A 1_555 1_555
H9A C11A 1_555 1_555
C12A C8A 1_555 1_555
H10A C12A 1_555 1_555
Cu1A I2 1_555 1_555
Cu3A N2A 1_555 1_555
Cu1A_2 I1 1_555 1_555
Cu2A_2 I1 1_555 1_555
Cu2_2 I2 1_555 1_555
Cu3_2 I3 1_555 1_555
Cu3A_2 I3 1_555 1_555
I2_2 Cu2 1_555 1_555
I3A Cu3 1_555 1_555
Na1A O8 1_555 1_555
O7_2 Na1 1_555 1_555
O10_2 Na1 1_555 1_555
La1A_2 O10 1_555 1_555
Na1A_2 O10 1_555 1_555
O7A_2 La1A 1_555 1_555
O10_3 La1A 1_555 1_555
I3A_2 Cu2A 1_555 1_555
I1A Cu2A 1_555 1_555
I2A_2 Cu2A 1_555 1_555
O5_2 Na1_2 1_555 1_555
O8_2 Na1_2 1_555 1_555
O10A_2 Na1_2 1_555 1_555
O8A_2 Na1_2 1_555 1_555
Cu2_3 I3_2 1_555 1_555
Cu3A_3 I3_2 1_555 1_555
Cu1A_3 N1A 1_555 1_555
Na1A_3 O5A 1_555 1_555
I1A_2 Cu1A 1_555 1_555
N1A_2 Cu1A 1_555 1_555
I3A_3 Cu3A 1_555 1_555
I3_3 Cu3A 1_555 1_555
H15_2 O8_2 1_555 1_555
H16_2 O8_2 1_555 1_555
H15A_2 O8A_2 1_555 1_555
H16A_2 O8A_2 1_555 1_555
O5 C7 1_555 1_555
C4 C5 1_555 1_555
C5 C6 1_555 1_555
C11 C12 1_555 1_555
C13 C14 1_555 1_555
C16 C17 1_555 1_555
C17 C18 1_555 1_555
O8 Na1 1_555 1_555
Na1 O10A 1_555 1_555
Na1 Na1A 1_555 1_555
O10 Na1_2 1_555 1_555
C19A O10A 1_555 1_555
O7A La1A_2 1_555 1_555
O7A Na1A 1_555 1_555
O10A Na1A 1_555 1_555
O6A La1A 1_555 1_555
C16A C17A 1_555 1_555
C18A O11A 1_555 1_555
Na1_2 Na1A_2 1_555 1_555
I2A Cu1A 1_555 1_555
I2A Cu2A_2 1_555 1_555
O8A Na1A 1_555 1_555
O3A C6A 1_555 1_555
C4A C5A 1_555 1_555
C5A C6A 1_555 1_555
O5A C7A 1_555 1_555
C11A C12A 1_555 1_555
Cu1A_2 I2_2 1_555 1_555
Cu2A_2 I3A_3 1_555 1_555
Cu2_2 I1A_2 1_555 1_555
I3A Cu3A_3 1_555 1_555
Na1A O10_2 1_555 1_555
Na1A_2 O8A_2 1_555 1_555
Na1A_2 O10A_2 1_555 1_555
Na1A_2 O8_2 1_555 1_555
O10_3 Na1A_3 1_555 1_555
I1A Cu1A_3 1_555 1_555
I1A Cu2_3 1_555 1_555

#END
