
#######################################################################
#
#                 Cambridge Crystallographic Data Centre
#                                CCDC 
#
#######################################################################
#
# If this CIF has been generated from an entry in the Cambridge 
# Structural Database, then it will include bibliographic, chemical, 
# crystal, experimental, refinement or atomic coordinate data resulting 
# from the CCDC's data processing and validation procedures.
#
#######################################################################

data_TARRAH
_symmetry_cell_setting           monoclinic
_symmetry_space_group_name_H-M   'C 2/c'
_symmetry_Int_Tables_number      15
_space_group_name_Hall           '-C 2yn'
loop_
_symmetry_equiv_pos_site_id
_symmetry_equiv_pos_as_xyz
1 x,y,z
2 -x,y,1/2-z
3 1/2+x,1/2+y,z
4 1/2-x,1/2+y,1/2-z
5 -x,-y,-z
6 x,-y,1/2+z
7 1/2-x,1/2-y,-z
8 1/2+x,1/2-y,1/2+z
_cell_length_a                   21.893(4)
_cell_length_b                   9.2903(17)
_cell_length_c                   17.243(3)
_cell_angle_alpha                90
_cell_angle_beta                 108.622(2)
_cell_angle_gamma                90
_cell_volume                     3323.49
loop_
_atom_site_label
_atom_site_type_symbol
_atom_site_fract_x
_atom_site_fract_y
_atom_site_fract_z
Tm1 Tm 0.01308(2) -0.18533(5) 1.07338(3)
Ag1 Ag 0.17227(5) -0.56516(15) 1.13860(7)
O1 O 0.0631(3) -0.4263(7) 1.0791(4)
C1 C 0.0354(5) -0.5149(10) 1.0249(6)
O2 O -0.0573(4) -0.2675(8) 1.1545(4)
O3 O 0.0729(3) 0.0495(8) 1.0311(4)
O4 O 0.1317(4) -0.1228(9) 1.1058(5)
C2 C 0.1245(5) -0.0218(11) 1.0568(6)
C3 C 0.1782(5) 0.0110(12) 1.0218(6)
C4 C 0.1718(6) 0.1187(14) 0.9662(8)
H1 H 0.1378 0.1837 0.9559
N1 N -0.1395(5) 0.3374(11) 1.2668(6)
C5 C -0.1350(6) 0.1937(14) 1.2609(7)
H2 H -0.1545 0.1354 1.2900
C6 C -0.1126(7) 0.4162(14) 1.2217(10)
H3 H -0.1156 0.5158 1.2245
N2 N 0.2667(5) 0.0463(13) 0.9398(6)
C7 C -0.0368(5) -0.2474(10) 1.2300(6)
O5 O -0.0696(3) -0.2317(8) 1.2771(4)
C8 C -0.0814(7) 0.3623(13) 1.1726(9)
H4 H -0.0649 0.4233 1.1415
C9 C 0.2168(6) 0.1299(16) 0.9252(8)
H5 H 0.2110 0.2006 0.8853
C10 C 0.2753(7) -0.053(2) 0.9968(10)
H6 H 0.3113 -0.1119 1.0081
C11 C 0.2333(7) -0.0728(19) 1.0403(10)
H7 H 0.2417 -0.1416 1.0815
C12 C -0.0741(5) 0.2140(11) 1.1690(6)
C13 C -0.1027(6) 0.1298(13) 1.2134(7)
H8 H -0.1001 0.0300 1.2114
C14 C -0.0380(5) 0.1475(11) 1.1168(6)
O6 O -0.0157(4) 0.0248(8) 1.1358(4)
O7 O -0.0359(4) 0.2193(8) 1.0566(4)
O8 O 0.0604(3) -0.6261(8) 1.0074(4)
Tm1D Tm -0.01308(2) -0.81467(5) 0.92662(3)
Tm1D_2 Tm -0.01308(2) 0.18533(5) 0.92662(3)
Tm1A Tm -0.01308(2) -0.18533(5) 1.42662(3)
Ag1D Ag -0.17227(5) -0.43484(15) 0.86140(7)
Ag1A Ag -0.17227(5) 0.43484(15) 1.36140(7)
Ag1F Ag 0.32773(5) 0.06516(15) 0.86140(7)
Ag1B Ag -0.32773(5) -0.06516(15) 1.13860(7)
Ag1E Ag 0.17227(5) -0.43484(15) 0.63860(7)
O1D O -0.0631(3) -0.5737(7) 0.9209(4)
O1D_2 O -0.0631(3) 0.4263(7) 0.9209(4)
C1D C -0.0354(5) -0.4851(10) 0.9751(6)
O2A O 0.0573(4) -0.2675(8) 1.3455(4)
O2D O 0.0573(4) 0.2675(8) 0.8455(4)
O3D O -0.0729(3) -0.0495(8) 0.9689(4)
O4D O -0.1317(4) 0.1228(9) 0.8942(5)
C2D C -0.1245(5) 0.0218(11) 0.9432(6)
C3D C -0.1782(5) -0.0110(12) 0.9782(6)
C4D C -0.1718(6) -0.1187(14) 1.0338(8)
H1D H -0.1378 -0.1837 1.0441
N1D N 0.1395(5) -0.3374(11) 0.7332(6)
N1A N 0.1395(5) -0.6626(11) 1.2332(6)
N1E N -0.1395(5) -0.3374(11) 0.7668(6)
C5D C 0.1350(6) -0.1937(14) 0.7391(7)
H2D H 0.1545 -0.1354 0.7100
C6D C 0.1126(7) -0.4162(14) 0.7783(10)
H3D H 0.1156 -0.5158 0.7755
N2D N -0.2667(5) -0.0463(13) 1.0602(6)
N2F N 0.2333(5) -0.5463(13) 1.0602(6)
N2B N -0.2333(5) -0.4537(13) 0.9398(6)
C7A C 0.0368(5) -0.2474(10) 1.2700(6)
O5A O 0.0696(3) -0.2317(8) 1.2229(4)
O5E O -0.0696(3) 0.2317(8) 0.7771(4)
C8D C 0.0814(7) -0.3623(13) 0.8274(9)
H4D H 0.0649 -0.4233 0.8585
C9D C -0.2168(6) -0.1299(16) 1.0748(8)
H5D H -0.2110 -0.2006 1.1147
C10D C -0.2753(7) 0.053(2) 1.0032(10)
H6D H -0.3113 0.1119 0.9919
C11D C -0.2333(7) 0.0728(19) 0.9597(10)
H7D H -0.2417 0.1416 0.9185
C12D C 0.0741(5) -0.2140(11) 0.8310(6)
C13D C 0.1027(6) -0.1298(13) 0.7866(7)
H8D H 0.1001 -0.0300 0.7886
C14D C 0.0380(5) -0.1475(11) 0.8832(6)
O6D O 0.0157(4) -0.0248(8) 0.8642(4)
O7D O 0.0359(4) -0.2193(8) 0.9434(4)
O8D O -0.0604(3) -0.3739(8) 0.9926(4)
O8_2 O 0.0604(3) 0.3739(8) 1.0074(4)
O9 O 0.2036(5) 0.6977(14) 0.2419(8)
H9 H 0.234(5) 0.712(18) 0.222(8)
H10 H 0.221(7) 0.68(3) 0.291(5)
loop_
_geom_bond_atom_site_label_1
_geom_bond_atom_site_label_2
_geom_bond_site_symmetry_1
_geom_bond_site_symmetry_2
Tm1 O1 1_555 1_555
Ag1 O1 1_555 1_555
O1 C1 1_555 1_555
C1 O8 1_555 1_555
O2 Tm1 1_555 1_555
O3 Tm1 1_555 1_555
O4 Tm1 1_555 1_555
C2 O3 1_555 1_555
C3 C2 1_555 1_555
C4 C3 1_555 1_555
H1 C4 1_555 1_555
N1 C5 1_555 1_555
C5 H2 1_555 1_555
C6 N1 1_555 1_555
H3 C6 1_555 1_555
N2 C9 1_555 1_555
C7 O2 1_555 1_555
O5 C7 1_555 1_555
C8 C6 1_555 1_555
H4 C8 1_555 1_555
C9 C4 1_555 1_555
H5 C9 1_555 1_555
C10 N2 1_555 1_555
H6 C10 1_555 1_555
C11 C3 1_555 1_555
H7 C11 1_555 1_555
C12 C8 1_555 1_555
C13 C5 1_555 1_555
H8 C13 1_555 1_555
C14 C12 1_555 1_555
O6 Tm1 1_555 1_555
O7 C14 1_555 1_555
O8 Tm1D 1_555 1_555
O9 H9 1_555 1_555
H10 O9 1_555 1_555
Tm1D O1D 1_555 1_555
Tm1D_2 O3 1_555 1_555
Tm1A O5 1_555 1_555
Ag1D O1D 1_555 1_555
Ag1A N1 1_555 1_555
Ag1F N2 1_555 1_555
Ag1B N2D 1_555 1_555
Ag1E N1D 1_555 1_555
O1D C1D 1_555 1_555
O1D_2 Tm1D_2 1_555 1_555
C1D C1 1_555 1_555
O2A Tm1A 1_555 1_555
O2D Tm1D_2 1_555 1_555
O3D Tm1 1_555 1_555
O4D Tm1D_2 1_555 1_555
C2D O3D 1_555 1_555
C3D C2D 1_555 1_555
C4D C3D 1_555 1_555
H1D C4D 1_555 1_555
N1D C5D 1_555 1_555
N1A Ag1 1_555 1_555
N1E Ag1D 1_555 1_555
C5D H2D 1_555 1_555
C6D N1D 1_555 1_555
H3D C6D 1_555 1_555
N2D C9D 1_555 1_555
N2F Ag1 1_555 1_555
N2B Ag1D 1_555 1_555
C7A C7 1_555 1_555
O5A Tm1 1_555 1_555
O5E Tm1D_2 1_555 1_555
C8D C6D 1_555 1_555
H4D C8D 1_555 1_555
C9D C4D 1_555 1_555
H5D C9D 1_555 1_555
C10D N2D 1_555 1_555
H6D C10D 1_555 1_555
C11D C3D 1_555 1_555
H7D C11D 1_555 1_555
C12D C8D 1_555 1_555
C13D C5D 1_555 1_555
H8D C13D 1_555 1_555
C14D C12D 1_555 1_555
O6D Tm1D_2 1_555 1_555
O7D Tm1 1_555 1_555
O8D Tm1 1_555 1_555
O8_2 Tm1D_2 1_555 1_555
O4 C2 1_555 1_555
C10 C11 1_555 1_555
C12 C13 1_555 1_555
C14 O6 1_555 1_555
O7 Tm1D_2 1_555 1_555
Tm1D_2 O3D 1_555 1_555
C1D O8D 1_555 1_555
O2A C7A 1_555 1_555
O4D C2D 1_555 1_555
C7A O5A 1_555 1_555
C10D C11D 1_555 1_555
C12D C13D 1_555 1_555
C14D O6D 1_555 1_555
C14D O7D 1_555 1_555

#END
