
#######################################################################
#
#                 Cambridge Crystallographic Data Centre
#                                CCDC 
#
#######################################################################
#
# If this CIF has been generated from an entry in the Cambridge 
# Structural Database, then it will include bibliographic, chemical, 
# crystal, experimental, refinement or atomic coordinate data resulting 
# from the CCDC's data processing and validation procedures.
#
#######################################################################

data_TARROV
_symmetry_cell_setting           triclinic
_symmetry_space_group_name_H-M   'P -1'
_symmetry_Int_Tables_number      2
_space_group_name_Hall           '-P 1'
loop_
_symmetry_equiv_pos_site_id
_symmetry_equiv_pos_as_xyz
1 x,y,z
2 -x,-y,-z
_cell_length_a                   7.1322(15)
_cell_length_b                   11.260(3)
_cell_length_c                   18.161(4)
_cell_angle_alpha                86.072(3)
_cell_angle_beta                 79.964(3)
_cell_angle_gamma                72.880(2)
_cell_volume                     1372.3
loop_
_atom_site_label
_atom_site_type_symbol
_atom_site_fract_x
_atom_site_fract_y
_atom_site_fract_z
O11 O 0.603(2) 0.9785(15) 0.3001(10)
H17 H 0.494(16) 1.01(2) 0.288(13)
H18 H 0.59(3) 0.929(19) 0.335(10)
C1 C 0.3778(12) 0.3503(7) -0.3780(4)
C2 C 0.3914(12) 0.3805(7) -0.3001(5)
C3 C 0.3157(13) 0.5015(8) -0.2758(5)
H1 H 0.2590 0.5659 -0.3072
C4 C 0.3276(14) 0.5232(8) -0.2024(5)
H2 H 0.2791 0.6048 -0.1861
C5 C 0.4728(14) 0.3219(8) -0.1789(5)
H3 H 0.5289 0.2590 -0.1466
C6 C 0.4669(13) 0.2909(8) -0.2499(5)
H4 H 0.5146 0.2082 -0.2640
C7 C 1.1640(15) 0.2129(8) 0.3528(5)
C8 C 1.1085(13) 0.1803(8) 0.2815(5)
C9 C 0.9369(15) 0.1492(9) 0.2820(5)
H5 H 0.8513 0.1462 0.3265
C10 C 0.8932(15) 0.1223(10) 0.2148(5)
H6 H 0.7746 0.1034 0.2153
C11 C 1.1766(17) 0.1540(11) 0.1507(6)
H7 H 1.2588 0.1578 0.1053
C12 C 1.2315(16) 0.1813(10) 0.2150(5)
H8 H 1.3507 0.2002 0.2132
C13 C 0.8948(11) 0.4216(7) -0.3981(4)
C14 C 0.9013(12) 0.3922(7) -0.3173(4)
C15 C 0.8279(12) 0.4848(8) -0.2637(5)
H9 H 0.7661 0.5662 -0.2775
C16 C 0.8481(14) 0.4543(8) -0.1899(5)
H10 H 0.8047 0.5174 -0.1550
C17 C 0.9970(14) 0.2487(8) -0.2182(5)
H11 H 1.0536 0.1676 -0.2026
C18 C 0.9880(12) 0.2726(8) -0.2933(5)
H12 H 1.0399 0.2086 -0.3274
C19 C 0.3972(12) 0.9940(7) -0.4826(4)
N1 N 0.4027(10) 0.4368(7) -0.1542(4)
N2 N 1.0102(12) 0.1222(7) 0.1504(4)
N3 N 0.9271(11) 0.3384(7) -0.1668(4)
O1 O 0.4248(9) 0.2374(5) -0.3965(3)
O2 O 0.3090(9) 0.4364(5) -0.4224(3)
O3 O 1.3420(10) 0.2144(6) 0.3516(3)
O4 O 1.0352(10) 0.2367(6) 0.4104(4)
O5 O 0.7935(9) 0.5278(5) -0.4145(3)
O6 O 0.9923(8) 0.3395(5) -0.4444(3)
O7 O 0.3875(8) 0.8885(5) -0.4596(3)
O8 O 0.2523(8) 1.0892(5) -0.4814(3)
O9 O 0.3903(9) 0.6560(5) -0.4449(4)
H13 H 0.318(11) 0.713(5) -0.419(4)
H14 H 0.358(13) 0.592(4) -0.437(5)
O10 O 0.8292(12) 0.1058(9) 0.5982(6)
H15 H 0.722(9) 0.160(8) 0.600(8)
H16 H 0.815(18) 0.043(7) 0.621(8)
I1 I 1.23588(9) 0.08750(5) -0.05598(3)
Cu1 Cu 0.9395(2) 0.29410(13) -0.05675(7)
Cu2 Cu 0.9480(2) 0.08140(15) 0.05295(7)
Cu3 Cu 0.39143(19) 0.48002(11) -0.04763(6)
Na1 Na 0.9781(14) 0.0406(8) 0.4889(5)
I2 I 1.0000 0.5000 0.0000
I3 I 0.59591(9) 0.29345(5) 0.02858(3)
Gd1 Gd 0.69348(6) 0.71416(3) -0.47910(2)
C19A C 0.6028(12) 1.0060(7) -0.5174(4)
O7A O 0.6125(8) 1.1115(5) -0.5404(3)
O8A O 0.7477(8) 0.9108(5) -0.5186(3)
Cu1A Cu 1.0605(2) 0.70590(13) 0.05675(7)
Cu2A Cu 1.0520(2) -0.08140(15) -0.05295(7)
Cu3_2 Cu 1.39143(19) 0.48002(11) -0.04763(6)
Gd1A Gd 1.30652(6) 0.28584(3) -0.52090(2)
I1A I 0.76412(9) -0.08750(5) 0.05598(3)
I3A I 0.40409(9) 0.70655(5) -0.02858(3)
C1A C 0.6222(12) 0.6497(7) -0.6220(4)
C2A C 0.6086(12) 0.6195(7) -0.6999(5)
C3A C 0.6843(13) 0.4985(8) -0.7242(5)
H1A H 0.7410 0.4341 -0.6928
C4A C 0.6724(14) 0.4768(8) -0.7976(5)
H2A H 0.7209 0.3952 -0.8139
C5A C 0.5272(14) 0.6781(8) -0.8211(5)
H3A H 0.4711 0.7410 -0.8534
C6A C 0.5331(13) 0.7091(8) -0.7501(5)
H4A H 0.4854 0.7918 -0.7360
N1A N 0.5973(10) 0.5632(7) -0.8458(4)
O1A O 0.5752(9) 0.7626(5) -0.6035(3)
O2A O 0.6910(9) 0.5636(5) -0.5776(3)
C7A C 0.8360(15) 0.7871(8) -0.3528(5)
C8A C 0.8915(13) 0.8197(8) -0.2815(5)
C9A C 1.0631(15) 0.8508(9) -0.2820(5)
H5A H 1.1487 0.8538 -0.3265
C10A C 1.1068(15) 0.8777(10) -0.2148(5)
H6A H 1.2254 0.8966 -0.2153
C11A C 0.8234(17) 0.8460(11) -0.1507(6)
H7A H 0.7412 0.8422 -0.1053
C12A C 0.7685(16) 0.8187(10) -0.2150(5)
H8A H 0.6493 0.7998 -0.2132
N2A N 0.9898(12) 0.8778(7) -0.1504(4)
O3A O 0.6580(10) 0.7856(6) -0.3516(3)
O4A O 0.9648(10) 0.7633(6) -0.4104(4)
C13A C 1.1052(11) 0.5784(7) -0.6019(4)
C14A C 1.0987(12) 0.6078(7) -0.6827(4)
C15A C 1.1721(12) 0.5152(8) -0.7363(5)
H9A H 1.2339 0.4338 -0.7225
C16A C 1.1519(14) 0.5457(8) -0.8101(5)
H10A H 1.1953 0.4826 -0.8450
C17A C 1.0030(14) 0.7513(8) -0.7818(5)
H11A H 0.9464 0.8324 -0.7974
C18A C 1.0120(12) 0.7274(8) -0.7067(5)
H12A H 0.9601 0.7914 -0.6726
N3A N 1.0729(11) 0.6616(7) -0.8332(4)
O5A O 1.2065(9) 0.4722(5) -0.5855(3)
O6A O 1.0077(8) 0.6605(5) -0.5556(3)
O9A O 1.6097(9) 0.3440(5) -0.5551(4)
H13A H 1.682(11) 0.287(5) -0.581(4)
H14A H 1.642(13) 0.408(4) -0.563(5)
Na1A Na 1.0219(14) 0.9594(8) -0.4889(5)
O10A O 1.1708(12) -0.1058(9) 0.4018(6)
H15A H 1.278(9) -0.160(8) 0.400(8)
H16A H 1.185(18) -0.043(7) 0.379(8)
Gd1A_2 Gd 0.30652(6) 0.28584(3) -0.52090(2)
Gd1A_3 Gd 1.30652(6) 0.28584(3) 0.47910(2)
Na1A_2 Na 0.0219(14) 0.9594(8) -0.4889(5)
Na1_2 Na -0.0219(14) 1.0406(8) -0.5111(5)
Gd1A_4 Gd 0.30652(6) 1.28584(3) -0.52090(2)
Na1A_3 Na 1.0219(14) -0.0406(8) 0.5111(5)
I2_2 I 0.0000 0.5000 0.0000
O7A_2 O 0.6125(8) 0.1115(5) 0.4596(3)
O8_2 O 1.2523(8) 0.0892(5) 0.5186(3)
O8A_2 O 0.7477(8) -0.0892(5) 0.4814(3)
Cu3A Cu 0.60857(19) 0.51998(11) 0.04763(6)
Na1_3 Na 0.9781(14) 1.0406(8) -0.5111(5)
I1A_2 I 0.76412(9) 0.91250(5) 0.05598(3)
N3A_2 N 1.0729(11) 0.6616(7) 0.1668(4)
I3A_2 I 1.40409(9) 0.70655(5) -0.02858(3)
N2A_2 N 0.9898(12) -0.1222(7) -0.1504(4)
N1_2 N 1.4027(10) 0.4368(7) -0.1542(4)
I3_2 I 1.59591(9) 0.29345(5) 0.02858(3)
O7A_3 O 1.6125(8) 0.1115(5) -0.5404(3)
O1_2 O 1.4248(9) 0.2374(5) -0.3965(3)
O2_2 O 1.3090(9) 0.4364(5) -0.4224(3)
O3_2 O 1.3420(10) 0.2144(6) -0.6484(3)
O4_2 O 1.0352(10) 0.2367(6) -0.5896(4)
O8_3 O 1.2523(8) 0.0892(5) -0.4814(3)
Cu1A_2 Cu 1.0605(2) -0.29410(13) 0.05675(7)
Cu1A_3 Cu 0.0605(2) 0.70590(13) 0.05675(7)
Cu3A_2 Cu 0.60857(19) 0.51998(11) -0.95237(6)
Cu2A_2 Cu 1.0520(2) 0.91860(15) -0.05295(7)
Cu1A_4 Cu 1.0605(2) 0.70590(13) -0.94325(7)
O7_2 O 1.3875(8) 0.8885(5) -0.4596(3)
O8_4 O 1.2523(8) 1.0892(5) -0.4814(3)
O10A_2 O 1.1708(12) 0.8942(9) -0.5982(6)
O10_2 O 0.8292(12) 1.1058(9) -0.4018(6)
H15A_2 H 1.278(9) 0.840(8) -0.600(8)
H16A_2 H 1.185(18) 0.957(7) -0.621(8)
H15_2 H 0.722(9) 1.160(8) -0.400(8)
H16_2 H 0.815(18) 1.043(7) -0.379(8)
loop_
_geom_bond_atom_site_label_1
_geom_bond_atom_site_label_2
_geom_bond_site_symmetry_1
_geom_bond_site_symmetry_2
C1 C2 1_555 1_555
C2 C3 1_555 1_555
C3 H1 1_555 1_555
C4 C3 1_555 1_555
H2 C4 1_555 1_555
C5 H3 1_555 1_555
C6 C2 1_555 1_555
H4 C6 1_555 1_555
C7 C8 1_555 1_555
C8 C9 1_555 1_555
C9 H5 1_555 1_555
C10 C9 1_555 1_555
H6 C10 1_555 1_555
C11 H7 1_555 1_555
C12 C8 1_555 1_555
H8 C12 1_555 1_555
C13 C14 1_555 1_555
C14 C15 1_555 1_555
C15 H9 1_555 1_555
C16 C15 1_555 1_555
H10 C16 1_555 1_555
C17 H11 1_555 1_555
C18 C14 1_555 1_555
H12 C18 1_555 1_555
C19 O7 1_555 1_555
N1 C4 1_555 1_555
N2 C10 1_555 1_555
N3 C16 1_555 1_555
O1 C1 1_555 1_555
O2 C1 1_555 1_555
O3 C7 1_555 1_555
O4 C7 1_555 1_555
O5 C13 1_555 1_555
O6 C13 1_555 1_555
O7 Gd1 1_555 1_555
O8 C19 1_555 1_555
O9 H13 1_555 1_555
H14 O9 1_555 1_555
O10 H15 1_555 1_555
H16 O10 1_555 1_555
O11 H17 1_555 1_555
H18 O11 1_555 1_555
I1 Cu1 1_555 1_555
Cu1 N3 1_555 1_555
Cu2 N2 1_555 1_555
Cu3 N1 1_555 1_555
Na1 O4 1_555 1_555
I2 Cu1 1_555 1_555
I3 Cu1 1_555 1_555
Gd1 O5 1_555 1_555
C19A C19 1_555 1_555
O7A C19A 1_555 1_555
O8A Gd1 1_555 1_555
Cu1A I2 1_555 1_555
Cu2A I1 1_555 1_555
Cu3_2 I2 1_555 1_555
Gd1A O6 1_555 1_555
I1A Cu2 1_555 1_555
I3A Cu3 1_555 1_555
C1A C2A 1_555 1_555
C2A C3A 1_555 1_555
C3A H1A 1_555 1_555
C4A C3A 1_555 1_555
H2A C4A 1_555 1_555
C5A H3A 1_555 1_555
C6A C2A 1_555 1_555
H4A C6A 1_555 1_555
N1A C4A 1_555 1_555
O1A Gd1 1_555 1_555
O2A Gd1 1_555 1_555
C7A C8A 1_555 1_555
C8A C9A 1_555 1_555
C9A H5A 1_555 1_555
C10A C9A 1_555 1_555
H6A C10A 1_555 1_555
C11A H7A 1_555 1_555
C12A C8A 1_555 1_555
H8A C12A 1_555 1_555
N2A C10A 1_555 1_555
O3A Gd1 1_555 1_555
O4A Gd1 1_555 1_555
C13A C14A 1_555 1_555
C14A C15A 1_555 1_555
C15A H9A 1_555 1_555
C16A C15A 1_555 1_555
H10A C16A 1_555 1_555
C17A H11A 1_555 1_555
C18A C14A 1_555 1_555
H12A C18A 1_555 1_555
N3A C16A 1_555 1_555
O5A Gd1A 1_555 1_555
O6A Gd1 1_555 1_555
O9A Gd1A 1_555 1_555
H13A O9A 1_555 1_555
H14A O9A 1_555 1_555
Na1A O8A 1_555 1_555
O10A Na1 1_555 1_555
H15A O10A 1_555 1_555
H16A O10A 1_555 1_555
Gd1A_2 O1 1_555 1_555
Gd1A_3 O3 1_555 1_555
Na1A_2 O7 1_555 1_555
Na1_2 O8 1_555 1_555
Gd1A_4 O8 1_555 1_555
Na1A_3 O10 1_555 1_555
I2_2 Cu3 1_555 1_555
O7A_2 Na1 1_555 1_555
O8_2 Na1 1_555 1_555
O8A_2 Na1 1_555 1_555
Cu3A I2 1_555 1_555
Na1_3 O7A 1_555 1_555
I1A_2 Cu1A 1_555 1_555
N3A_2 Cu1A 1_555 1_555
I3A_2 Cu1A 1_555 1_555
N2A_2 Cu2A 1_555 1_555
N1_2 Cu3_2 1_555 1_555
I3_2 Cu3_2 1_555 1_555
O7A_3 Gd1A 1_555 1_555
O1_2 Gd1A 1_555 1_555
O2_2 Gd1A 1_555 1_555
O3_2 Gd1A 1_555 1_555
O4_2 Gd1A 1_555 1_555
O8_3 Gd1A 1_555 1_555
Cu1A_2 I1A 1_555 1_555
Cu1A_3 I3A 1_555 1_555
Cu3A_2 N1A 1_555 1_555
Cu2A_2 N2A 1_555 1_555
Cu1A_4 N3A 1_555 1_555
O7_2 Na1A 1_555 1_555
O8_4 Na1A 1_555 1_555
O10A_2 Na1A 1_555 1_555
O10_2 Na1A 1_555 1_555
H15A_2 O10A_2 1_555 1_555
H16A_2 O10A_2 1_555 1_555
H15_2 O10_2 1_555 1_555
H16_2 O10_2 1_555 1_555
C5 N1 1_555 1_555
C5 C6 1_555 1_555
C11 N2 1_555 1_555
C11 C12 1_555 1_555
C17 N3 1_555 1_555
C17 C18 1_555 1_555
O2 Gd1A_2 1_555 1_555
O4 Gd1A_3 1_555 1_555
O8 Na1A_2 1_555 1_555
O9 Gd1 1_555 1_555
O10 Na1 1_555 1_555
I1 Cu2 1_555 1_555
Cu3 I3 1_555 1_555
Na1 Na1A_3 1_555 1_555
I3 Cu3A 1_555 1_555
C19A O8A 1_555 1_555
O7A Gd1A_4 1_555 1_555
O8A Na1_3 1_555 1_555
Cu2A I1A 1_555 1_555
Cu3_2 I3A_2 1_555 1_555
I3A Cu3A 1_555 1_555
C1A O1A 1_555 1_555
C1A O2A 1_555 1_555
C5A N1A 1_555 1_555
C5A C6A 1_555 1_555
C7A O3A 1_555 1_555
C7A O4A 1_555 1_555
C11A N2A 1_555 1_555
C11A C12A 1_555 1_555
O4A Na1A 1_555 1_555
C13A O5A 1_555 1_555
C13A O6A 1_555 1_555
C17A N3A 1_555 1_555
C17A C18A 1_555 1_555
Na1A Na1_3 1_555 1_555
O10A Na1A_3 1_555 1_555
Gd1A_3 O8_2 1_555 1_555
Na1A_2 Na1_2 1_555 1_555
Na1A_3 O8A_2 1_555 1_555
Na1A_3 O8_2 1_555 1_555
I2_2 Cu1A_3 1_555 1_555
Na1_3 O8_4 1_555 1_555
Na1_3 O10_2 1_555 1_555
Na1_3 O10A_2 1_555 1_555
I1A_2 Cu2A_2 1_555 1_555

#END
