
#######################################################################
#
#                 Cambridge Crystallographic Data Centre
#                                CCDC 
#
#######################################################################
#
# If this CIF has been generated from an entry in the Cambridge 
# Structural Database, then it will include bibliographic, chemical, 
# crystal, experimental, refinement or atomic coordinate data resulting 
# from the CCDC's data processing and validation procedures.
#
#######################################################################

data_TARRIP
_symmetry_cell_setting           triclinic
_symmetry_space_group_name_H-M   'P -1'
_symmetry_Int_Tables_number      2
_space_group_name_Hall           '-P 1'
loop_
_symmetry_equiv_pos_site_id
_symmetry_equiv_pos_as_xyz
1 x,y,z
2 -x,-y,-z
_cell_length_a                   7.1322(15)
_cell_length_b                   11.260(3)
_cell_length_c                   18.161(4)
_cell_angle_alpha                86.072(3)
_cell_angle_beta                 79.964(3)
_cell_angle_gamma                72.880(2)
_cell_volume                     1372.3
loop_
_atom_site_label
_atom_site_type_symbol
_atom_site_fract_x
_atom_site_fract_y
_atom_site_fract_z
O11 O 0.600(4) 0.9784(19) 0.2991(11)
H17 H 0.60(5) 1.045(15) 0.316(14)
H18 H 0.59(6) 0.93(2) 0.333(11)
C1 C 0.3764(18) 0.3492(13) -0.3777(7)
C2 C 0.3902(17) 0.3789(12) -0.3009(7)
C3 C 0.3192(19) 0.5000(12) -0.2746(7)
H1 H 0.2659 0.5648 -0.3064
C4 C 0.326(2) 0.5250(11) -0.2034(7)
H2 H 0.2733 0.6067 -0.1877
C5 C 0.4727(19) 0.3210(12) -0.1785(7)
H3 H 0.5235 0.2582 -0.1452
C6 C 0.4694(18) 0.2895(13) -0.2506(7)
H4 H 0.5211 0.2071 -0.2650
C7 C 1.168(2) 0.2132(11) 0.3525(7)
C8 C 1.109(2) 0.1792(12) 0.2811(7)
C9 C 0.938(2) 0.1501(14) 0.2822(8)
H5 H 0.8507 0.1493 0.3267
C10 C 0.896(2) 0.1216(15) 0.2150(8)
H6 H 0.7794 0.1005 0.2158
C11 C 1.179(2) 0.1566(16) 0.1492(8)
H7 H 1.2582 0.1642 0.1038
C12 C 1.234(2) 0.1807(13) 0.2144(7)
H8 H 1.3548 0.1977 0.2133
C13 C 0.8952(18) 0.4211(11) -0.3979(7)
C14 C 0.9018(17) 0.3931(11) -0.3174(6)
C15 C 0.8295(17) 0.4838(11) -0.2639(7)
H9 H 0.7689 0.5655 -0.2774
C16 C 0.8479(19) 0.4528(12) -0.1905(7)
H10 H 0.8015 0.5161 -0.1558
C17 C 0.9958(18) 0.2505(12) -0.2173(7)
H11 H 1.0523 0.1693 -0.2018
C18 C 0.9877(18) 0.2726(10) -0.2926(6)
H12 H 1.0390 0.2080 -0.3263
C19 C 0.3985(17) 0.9945(11) -0.4818(7)
N1 N 0.4052(15) 0.4392(10) -0.1549(6)
N2 N 1.0124(19) 0.1225(11) 0.1497(6)
N3 N 0.9278(16) 0.3377(10) -0.1657(5)
O1 O 0.4254(13) 0.2372(7) -0.3956(4)
O2 O 0.3063(13) 0.4349(8) -0.4219(5)
O3 O 1.3438(14) 0.2143(9) 0.3508(5)
O4 O 1.0367(14) 0.2379(9) 0.4102(5)
O5 O 0.7938(13) 0.5275(7) -0.4147(4)
O6 O 0.9919(12) 0.3391(8) -0.4445(5)
O7 O 0.3873(12) 0.8886(7) -0.4593(5)
O8 O 0.2529(11) 1.0864(7) -0.4813(5)
O9 O 0.3864(12) 0.6559(8) -0.4445(6)
H13 H 0.271(7) 0.692(9) -0.451(8)
H14 H 0.401(16) 0.581(3) -0.439(8)
O10 O 0.828(2) 0.1069(14) 0.5972(7)
H15 H 0.91(2) 0.122(17) 0.618(8)
H16 H 0.76(3) 0.068(19) 0.625(8)
I1 I 1.23556(14) 0.08747(8) -0.05608(5)
Cu1 Cu 0.9403(3) 0.29354(19) -0.05672(10)
Cu2 Cu 0.9478(3) 0.0816(2) 0.05305(11)
Cu3 Cu 0.3919(3) 0.47992(17) -0.04794(9)
Na1 Na 0.978(2) 0.0409(11) 0.4898(8)
I2 I 1.0000 0.5000 0.0000
I3 I 0.59572(13) 0.29357(8) 0.02846(5)
Eu1 Eu 0.69374(9) 0.71402(6) -0.47886(3)
C19A C 0.6015(17) 1.0055(11) -0.5182(7)
O7A O 0.6127(12) 1.1114(7) -0.5407(5)
O8A O 0.7471(11) 0.9136(7) -0.5187(5)
Cu1A Cu 1.0597(3) 0.70646(19) 0.05672(10)
Cu2A Cu 1.0522(3) -0.0816(2) -0.05305(11)
Cu3_2 Cu 1.3919(3) 0.47992(17) -0.04794(9)
Eu1A Eu 1.30626(9) 0.28598(6) -0.52114(3)
I1A I 0.76444(14) -0.08747(8) 0.05608(5)
I3A I 0.40428(13) 0.70643(8) -0.02846(5)
C1A C 0.6236(18) 0.6508(13) -0.6223(7)
C2A C 0.6098(17) 0.6211(12) -0.6991(7)
C3A C 0.6808(19) 0.5000(12) -0.7254(7)
H1A H 0.7341 0.4352 -0.6936
C4A C 0.674(2) 0.4750(11) -0.7966(7)
H2A H 0.7267 0.3933 -0.8123
C5A C 0.5273(19) 0.6790(12) -0.8215(7)
H3A H 0.4765 0.7418 -0.8548
C6A C 0.5306(18) 0.7105(13) -0.7494(7)
H4A H 0.4789 0.7929 -0.7350
N1A N 0.5948(15) 0.5608(10) -0.8451(6)
O1A O 0.5746(13) 0.7628(7) -0.6044(4)
O2A O 0.6937(13) 0.5651(8) -0.5781(5)
C7A C 0.832(2) 0.7868(11) -0.3525(7)
C8A C 0.891(2) 0.8208(12) -0.2811(7)
C9A C 1.062(2) 0.8499(14) -0.2822(8)
H5A H 1.1493 0.8507 -0.3267
C10A C 1.104(2) 0.8784(15) -0.2150(8)
H6A H 1.2206 0.8995 -0.2158
C11A C 0.821(2) 0.8434(16) -0.1492(8)
H7A H 0.7418 0.8358 -0.1038
C12A C 0.766(2) 0.8193(13) -0.2144(7)
H8A H 0.6452 0.8023 -0.2133
N2A N 0.9876(19) 0.8775(11) -0.1497(6)
O3A O 0.6562(14) 0.7857(9) -0.3508(5)
O4A O 0.9633(14) 0.7621(9) -0.4102(5)
C13A C 1.1048(18) 0.5789(11) -0.6021(7)
C14A C 1.0982(17) 0.6069(11) -0.6826(6)
C15A C 1.1705(17) 0.5162(11) -0.7361(7)
H9A H 1.2311 0.4345 -0.7226
C16A C 1.1521(19) 0.5472(12) -0.8095(7)
H10A H 1.1985 0.4839 -0.8442
C17A C 1.0042(18) 0.7495(12) -0.7827(7)
H11A H 0.9477 0.8307 -0.7982
C18A C 1.0123(18) 0.7274(10) -0.7074(6)
H12A H 0.9610 0.7920 -0.6737
N3A N 1.0722(16) 0.6623(10) -0.8343(5)
O5A O 1.2062(13) 0.4725(7) -0.5853(4)
O6A O 1.0081(12) 0.6609(8) -0.5555(5)
O9A O 1.6136(12) 0.3441(8) -0.5555(6)
H13A H 1.729(7) 0.308(9) -0.549(8)
H14A H 1.599(16) 0.419(3) -0.561(8)
Na1A Na 1.022(2) 0.9591(11) -0.4898(8)
O10A O 1.172(2) -0.1069(14) 0.4028(7)
H15A H 1.09(2) -0.122(17) 0.382(8)
H16A H 1.24(3) -0.068(19) 0.375(8)
Eu1A_2 Eu 0.30626(9) 0.28598(6) -0.52114(3)
Eu1A_3 Eu 1.30626(9) 0.28598(6) 0.47886(3)
Na1A_2 Na 0.022(2) 0.9591(11) -0.4898(8)
Na1_2 Na -0.022(2) 1.0409(11) -0.5102(8)
Eu1A_4 Eu 0.30626(9) 1.28598(6) -0.52114(3)
Na1A_3 Na 1.022(2) -0.0409(11) 0.5102(8)
I2_2 I 0.0000 0.5000 0.0000
O7A_2 O 0.6127(12) 0.1114(7) 0.4593(5)
O8_2 O 1.2529(11) 0.0864(7) 0.5187(5)
O8A_2 O 0.7471(11) -0.0864(7) 0.4813(5)
Cu3A Cu 0.6081(3) 0.52008(17) 0.04794(9)
Na1_3 Na 0.978(2) 1.0409(11) -0.5102(8)
I1A_2 I 0.76444(14) 0.91253(8) 0.05608(5)
N3A_2 N 1.0722(16) 0.6623(10) 0.1657(5)
I3A_2 I 1.40428(13) 0.70643(8) -0.02846(5)
N2A_2 N 0.9876(19) -0.1225(11) -0.1497(6)
N1_2 N 1.4052(15) 0.4392(10) -0.1549(6)
I3_2 I 1.59572(13) 0.29357(8) 0.02846(5)
O7A_3 O 1.6127(12) 0.1114(7) -0.5407(5)
O1_2 O 1.4254(13) 0.2372(7) -0.3956(4)
O2_2 O 1.3063(13) 0.4349(8) -0.4219(5)
O3_2 O 1.3438(14) 0.2143(9) -0.6492(5)
O4_2 O 1.0367(14) 0.2379(9) -0.5898(5)
O8_3 O 1.2529(11) 0.0864(7) -0.4813(5)
Cu1A_2 Cu 1.0597(3) -0.29354(19) 0.05672(10)
Cu1A_3 Cu 0.0597(3) 0.70646(19) 0.05672(10)
Cu3A_2 Cu 0.6081(3) 0.52008(17) -0.95206(9)
Cu2A_2 Cu 1.0522(3) 0.9184(2) -0.05305(11)
Cu1A_4 Cu 1.0597(3) 0.70646(19) -0.94328(10)
O7_2 O 1.3873(12) 0.8886(7) -0.4593(5)
O8_4 O 1.2529(11) 1.0864(7) -0.4813(5)
O10A_2 O 1.172(2) 0.8931(14) -0.5972(7)
O10_2 O 0.828(2) 1.1069(14) -0.4028(7)
H15A_2 H 1.09(2) 0.878(17) -0.618(8)
H16A_2 H 1.24(3) 0.932(19) -0.625(8)
H15_2 H 0.91(2) 1.122(17) -0.382(8)
H16_2 H 0.76(3) 1.068(19) -0.375(8)
loop_
_geom_bond_atom_site_label_1
_geom_bond_atom_site_label_2
_geom_bond_site_symmetry_1
_geom_bond_site_symmetry_2
C1 C2 1_555 1_555
C2 C3 1_555 1_555
C3 H1 1_555 1_555
C4 C3 1_555 1_555
H2 C4 1_555 1_555
C5 H3 1_555 1_555
C6 C2 1_555 1_555
H4 C6 1_555 1_555
C7 C8 1_555 1_555
C8 C9 1_555 1_555
C9 H5 1_555 1_555
C10 C9 1_555 1_555
H6 C10 1_555 1_555
C11 H7 1_555 1_555
C12 C8 1_555 1_555
H8 C12 1_555 1_555
C13 C14 1_555 1_555
C14 C15 1_555 1_555
C15 H9 1_555 1_555
C16 C15 1_555 1_555
H10 C16 1_555 1_555
C17 H11 1_555 1_555
C18 C14 1_555 1_555
H12 C18 1_555 1_555
C19 O7 1_555 1_555
N1 C4 1_555 1_555
N2 C10 1_555 1_555
N3 C16 1_555 1_555
O1 C1 1_555 1_555
O2 C1 1_555 1_555
O3 C7 1_555 1_555
O4 C7 1_555 1_555
O5 C13 1_555 1_555
O6 C13 1_555 1_555
O7 Eu1 1_555 1_555
O8 C19 1_555 1_555
O9 H13 1_555 1_555
H14 O9 1_555 1_555
O10 H15 1_555 1_555
H16 O10 1_555 1_555
O11 H17 1_555 1_555
H18 O11 1_555 1_555
I1 Cu1 1_555 1_555
Cu1 N3 1_555 1_555
Cu2 N2 1_555 1_555
Cu3 N1 1_555 1_555
Na1 O4 1_555 1_555
I2 Cu1 1_555 1_555
I3 Cu1 1_555 1_555
Eu1 O5 1_555 1_555
C19A C19 1_555 1_555
O7A C19A 1_555 1_555
O8A Eu1 1_555 1_555
Cu1A I2 1_555 1_555
Cu2A I1 1_555 1_555
Cu3_2 I2 1_555 1_555
Eu1A O6 1_555 1_555
I1A Cu2 1_555 1_555
I3A Cu3 1_555 1_555
C1A C2A 1_555 1_555
C2A C3A 1_555 1_555
C3A H1A 1_555 1_555
C4A C3A 1_555 1_555
H2A C4A 1_555 1_555
C5A H3A 1_555 1_555
C6A C2A 1_555 1_555
H4A C6A 1_555 1_555
N1A C4A 1_555 1_555
O1A Eu1 1_555 1_555
O2A Eu1 1_555 1_555
C7A C8A 1_555 1_555
C8A C9A 1_555 1_555
C9A H5A 1_555 1_555
C10A C9A 1_555 1_555
H6A C10A 1_555 1_555
C11A H7A 1_555 1_555
C12A C8A 1_555 1_555
H8A C12A 1_555 1_555
N2A C10A 1_555 1_555
O3A Eu1 1_555 1_555
O4A Eu1 1_555 1_555
C13A C14A 1_555 1_555
C14A C15A 1_555 1_555
C15A H9A 1_555 1_555
C16A C15A 1_555 1_555
H10A C16A 1_555 1_555
C17A H11A 1_555 1_555
C18A C14A 1_555 1_555
H12A C18A 1_555 1_555
N3A C16A 1_555 1_555
O5A Eu1A 1_555 1_555
O6A Eu1 1_555 1_555
O9A Eu1A 1_555 1_555
H13A O9A 1_555 1_555
H14A O9A 1_555 1_555
Na1A O8A 1_555 1_555
O10A Na1 1_555 1_555
H15A O10A 1_555 1_555
H16A O10A 1_555 1_555
Eu1A_2 O1 1_555 1_555
Eu1A_3 O3 1_555 1_555
Na1A_2 O7 1_555 1_555
Na1_2 O8 1_555 1_555
Eu1A_4 O8 1_555 1_555
Na1A_3 O10 1_555 1_555
I2_2 Cu3 1_555 1_555
O7A_2 Na1 1_555 1_555
O8_2 Na1 1_555 1_555
O8A_2 Na1 1_555 1_555
Cu3A I2 1_555 1_555
Na1_3 O7A 1_555 1_555
I1A_2 Cu1A 1_555 1_555
N3A_2 Cu1A 1_555 1_555
I3A_2 Cu1A 1_555 1_555
N2A_2 Cu2A 1_555 1_555
N1_2 Cu3_2 1_555 1_555
I3_2 Cu3_2 1_555 1_555
O7A_3 Eu1A 1_555 1_555
O1_2 Eu1A 1_555 1_555
O2_2 Eu1A 1_555 1_555
O3_2 Eu1A 1_555 1_555
O4_2 Eu1A 1_555 1_555
O8_3 Eu1A 1_555 1_555
Cu1A_2 I1A 1_555 1_555
Cu1A_3 I3A 1_555 1_555
Cu3A_2 N1A 1_555 1_555
Cu2A_2 N2A 1_555 1_555
Cu1A_4 N3A 1_555 1_555
O7_2 Na1A 1_555 1_555
O8_4 Na1A 1_555 1_555
O10A_2 Na1A 1_555 1_555
O10_2 Na1A 1_555 1_555
H15A_2 O10A_2 1_555 1_555
H16A_2 O10A_2 1_555 1_555
H15_2 O10_2 1_555 1_555
H16_2 O10_2 1_555 1_555
C5 N1 1_555 1_555
C5 C6 1_555 1_555
C11 N2 1_555 1_555
C11 C12 1_555 1_555
C17 N3 1_555 1_555
C17 C18 1_555 1_555
O2 Eu1A_2 1_555 1_555
O4 Eu1A_3 1_555 1_555
O8 Na1A_2 1_555 1_555
O9 Eu1 1_555 1_555
O10 Na1 1_555 1_555
I1 Cu2 1_555 1_555
Cu3 I3 1_555 1_555
Na1 Na1A_3 1_555 1_555
I3 Cu3A 1_555 1_555
C19A O8A 1_555 1_555
O7A Eu1A_4 1_555 1_555
O8A Na1_3 1_555 1_555
Cu2A I1A 1_555 1_555
Cu3_2 I3A_2 1_555 1_555
I3A Cu3A 1_555 1_555
C1A O1A 1_555 1_555
C1A O2A 1_555 1_555
C5A N1A 1_555 1_555
C5A C6A 1_555 1_555
C7A O3A 1_555 1_555
C7A O4A 1_555 1_555
C11A N2A 1_555 1_555
C11A C12A 1_555 1_555
O4A Na1A 1_555 1_555
C13A O5A 1_555 1_555
C13A O6A 1_555 1_555
C17A N3A 1_555 1_555
C17A C18A 1_555 1_555
Na1A Na1_3 1_555 1_555
O10A Na1A_3 1_555 1_555
Eu1A_3 O8_2 1_555 1_555
Na1A_2 Na1_2 1_555 1_555
Na1A_3 O8A_2 1_555 1_555
Na1A_3 O8_2 1_555 1_555
I2_2 Cu1A_3 1_555 1_555
Na1_3 O8_4 1_555 1_555
Na1_3 O10_2 1_555 1_555
Na1_3 O10A_2 1_555 1_555
I1A_2 Cu2A_2 1_555 1_555

#END
