
#######################################################################
#
#                 Cambridge Crystallographic Data Centre
#                                CCDC 
#
#######################################################################
#
# If this CIF has been generated from an entry in the Cambridge 
# Structural Database, then it will include bibliographic, chemical, 
# crystal, experimental, refinement or atomic coordinate data resulting 
# from the CCDC's data processing and validation procedures.
#
#######################################################################

data_TARRUB
_symmetry_cell_setting           triclinic
_symmetry_space_group_name_H-M   'P -1'
_symmetry_Int_Tables_number      2
_space_group_name_Hall           '-P 1'
loop_
_symmetry_equiv_pos_site_id
_symmetry_equiv_pos_as_xyz
1 x,y,z
2 -x,-y,-z
_cell_length_a                   6.2301(12)
_cell_length_b                   8.6277(17)
_cell_length_c                   8.9610(18)
_cell_angle_alpha                110.70(3)
_cell_angle_beta                 110.27(3)
_cell_angle_gamma                91.49(3)
_cell_volume                     416.575
loop_
_atom_site_label
_atom_site_type_symbol
_atom_site_fract_x
_atom_site_fract_y
_atom_site_fract_z
H1 H 1.275(8) 0.285(6) 0.304(6)
H2 H 1.255(7) 0.341(5) 0.434(6)
H3 H 1.135(8) 0.272(6) 0.022(6)
H4 H 0.986(6) 0.328(5) -0.084(5)
C1 C 0.5074(5) 0.1557(3) 0.6267(3)
Eu1 Eu 0.80927(2) 0.355009(16) 0.186951(16)
C2 C 0.6457(5) 0.1426(3) 0.5298(3)
C3 C 0.3637(5) 0.0123(3) 0.5957(3)
H5 H 0.2720 0.0201 0.6599
C4 C 0.8149(5) 0.2924(3) 0.5638(4)
C5 C 0.4963(5) 0.3214(3) 0.7579(3)
C6 C 0.6074(5) -0.0373(4) -0.0111(4)
O1 O 1.1943(4) 0.3113(3) 0.3381(3)
O2 O 0.8179(4) 0.3248(3) 0.4393(3)
O3 O 1.0289(4) 0.3183(3) 0.0087(3)
O4 O 0.9472(4) 0.3754(3) 0.7177(3)
O5 O 0.4064(4) 0.4291(3) 0.7004(3)
O6 O 0.5638(4) 0.3379(3) 0.9107(3)
O7 O 0.7968(4) 0.0568(3) 0.0663(3)
O8 O 0.5696(4) -0.1918(3) -0.1061(3)
H1A H -0.275(8) -0.285(6) 0.696(6)
H2A H -0.255(7) -0.341(5) 0.566(6)
H3A H -0.135(8) -0.272(6) 0.978(6)
H4A H 0.014(6) -0.328(5) 1.084(5)
C1A C 0.4926(5) -0.1557(3) 0.3733(3)
Eu1A Eu 0.19073(2) -0.355009(16) 0.813049(16)
Eu1A_2 Eu 1.19073(2) 0.644991(16) 0.813049(16)
Eu1A_3 Eu 0.19073(2) 0.644991(16) 0.813049(16)
Eu1_2 Eu 0.80927(2) 0.355009(16) 1.186951(16)
Eu1A_4 Eu 0.19073(2) -0.355009(16) -0.186951(16)
Eu1_3 Eu -0.19073(2) -0.644991(16) 0.186951(16)
Eu1_4 Eu 0.80927(2) -0.644991(16) 0.186951(16)
C2A C 0.3543(5) -0.1426(3) 0.4702(3)
C3A C 0.6363(5) -0.0123(3) 0.4043(3)
H5A H 0.7280 -0.0201 0.3401
C4A C 0.1851(5) -0.2924(3) 0.4362(4)
C5A C 0.5037(5) -0.3214(3) 0.2421(3)
C6A C 0.3926(5) 0.0373(4) 0.0111(4)
O1A O -0.1943(4) -0.3113(3) 0.6619(3)
O2A O 0.1821(4) -0.3248(3) 0.5607(3)
O3A O -0.0289(4) -0.3183(3) 0.9913(3)
O4A O 0.0528(4) -0.3754(3) 0.2823(3)
O4A_2 O 1.0528(4) 0.6246(3) 0.2823(3)
O4_2 O -0.0528(4) -0.6246(3) 0.7177(3)
O5A O 0.5936(4) -0.4291(3) 0.2996(3)
O5A_2 O 0.5936(4) 0.5709(3) 0.2996(3)
O5_2 O 0.4064(4) -0.5709(3) 0.7004(3)
O6A O 0.4362(4) -0.3379(3) 0.0893(3)
O6_2 O 0.5638(4) 0.3379(3) -0.0893(3)
O6A_2 O 0.4362(4) -0.3379(3) 1.0893(3)
O7A O 0.2032(4) -0.0568(3) -0.0663(3)
O7A_2 O 0.2032(4) -0.0568(3) 0.9337(3)
O8A O 0.4304(4) 0.1918(3) 0.1061(3)
O8_2 O 0.5696(4) -0.1918(3) 0.8939(3)
loop_
_geom_bond_atom_site_label_1
_geom_bond_atom_site_label_2
_geom_bond_site_symmetry_1
_geom_bond_site_symmetry_2
H1 O1 1_555 1_555
H2 O1 1_555 1_555
H3 O3 1_555 1_555
H4 O3 1_555 1_555
C1 C2 1_555 1_555
Eu1 O1 1_555 1_555
C2 C4 1_555 1_555
C3 C1 1_555 1_555
H5 C3 1_555 1_555
C4 O2 1_555 1_555
C5 C1 1_555 1_555
C6 O7 1_555 1_555
O2 Eu1 1_555 1_555
O3 Eu1 1_555 1_555
O4 C4 1_555 1_555
O5 C5 1_555 1_555
O6 C5 1_555 1_555
O7 Eu1 1_555 1_555
O8 C6 1_555 1_555
H1A O1A 1_555 1_555
H2A O1A 1_555 1_555
H3A O3A 1_555 1_555
H4A O3A 1_555 1_555
C1A C2A 1_555 1_555
Eu1A O1A 1_555 1_555
Eu1A_2 O4 1_555 1_555
Eu1A_3 O5 1_555 1_555
Eu1_2 O6 1_555 1_555
Eu1A_4 O8 1_555 1_555
Eu1_3 O4A 1_555 1_555
Eu1_4 O5A 1_555 1_555
C2A C3 1_555 1_555
C3A C2 1_555 1_555
H5A C3A 1_555 1_555
C4A C2A 1_555 1_555
C5A C1A 1_555 1_555
C6A C6 1_555 1_555
O2A Eu1A 1_555 1_555
O3A Eu1A 1_555 1_555
O4A C4A 1_555 1_555
O4A_2 Eu1 1_555 1_555
O4_2 Eu1A 1_555 1_555
O5A C5A 1_555 1_555
O5A_2 Eu1 1_555 1_555
O5_2 Eu1A 1_555 1_555
O6A Eu1A_4 1_555 1_555
O6_2 Eu1 1_555 1_555
O6A_2 Eu1A 1_555 1_555
O7A Eu1A_4 1_555 1_555
O7A_2 Eu1A 1_555 1_555
O8A Eu1 1_555 1_555
O8_2 Eu1A 1_555 1_555
C1A C3A 1_555 1_555
C4A O2A 1_555 1_555
C5A O6A 1_555 1_555
C6A O7A 1_555 1_555
C6A O8A 1_555 1_555

#END
