
#######################################################################
#
#                 Cambridge Crystallographic Data Centre
#                                CCDC 
#
#######################################################################
#
# If this CIF has been generated from an entry in the Cambridge 
# Structural Database, then it will include bibliographic, chemical, 
# crystal, experimental, refinement or atomic coordinate data resulting 
# from the CCDC's data processing and validation procedures.
#
#######################################################################

data_TARSEM
_symmetry_cell_setting           triclinic
_symmetry_space_group_name_H-M   'P -1'
_symmetry_Int_Tables_number      2
_space_group_name_Hall           '-P 1'
loop_
_symmetry_equiv_pos_site_id
_symmetry_equiv_pos_as_xyz
1 x,y,z
2 -x,-y,-z
_cell_length_a                   6.1931(12)
_cell_length_b                   8.5776(17)
_cell_length_c                   8.8684(18)
_cell_angle_alpha                111.03(3)
_cell_angle_beta                 109.97(3)
_cell_angle_gamma                91.82(3)
_cell_volume                     406.843
loop_
_atom_site_label
_atom_site_type_symbol
_atom_site_fract_x
_atom_site_fract_y
_atom_site_fract_z
H1 H -0.204(8) -0.730(8) 0.305(7)
H2 H -0.494(10) -0.670(8) -0.085(5)
H3 H -0.342(6) -0.715(7) 0.040(7)
H4 H -0.254(9) -0.639(7) 0.446(3)
Ho1 Ho -0.69031(3) -0.64753(2) 0.18405(2)
C1 C 0.1466(7) 0.1437(5) 0.5288(5)
C2 C 0.0065(7) 0.1587(5) 0.6273(5)
C3 C 0.1378(8) -0.0136(5) 0.4028(6)
H5 H 0.2299 -0.0219 0.3375
C4 C 0.3143(7) 0.2935(5) 0.5599(5)
C5 C -0.0019(7) 0.3265(5) 0.7605(5)
C6 C -0.1067(8) 0.0378(5) 0.0108(6)
O1 O 0.4491(6) 0.3808(4) 0.7156(4)
O2 O -0.3118(6) -0.6905(5) 0.3359(4)
O3 O -0.4725(6) -0.6829(5) 0.0079(5)
O4 O 0.3144(6) 0.3253(4) 0.4338(4)
O5 O 0.0741(6) 0.3461(4) 0.9163(4)
O6 O -0.0990(5) 0.4319(4) 0.7032(4)
O7 O -0.0683(5) 0.1950(4) 0.1035(4)
O8 O 0.2964(5) 0.0578(4) 0.0621(5)
H1_2 H 0.796(8) 0.270(8) 0.305(7)
H2_2 H 0.506(10) 0.330(8) -0.085(5)
H3_2 H 0.658(6) 0.285(7) 0.040(7)
H4_2 H 0.746(9) 0.361(7) 0.446(3)
Ho1A Ho 0.69031(3) 0.64753(2) 0.81595(2)
Ho1_2 Ho 0.30969(3) 0.35247(2) 0.18405(2)
Ho1_3 Ho 0.30969(3) 0.35247(2) 1.18405(2)
Ho1A_2 Ho -0.30969(3) 0.64753(2) 0.81595(2)
Ho1A_3 Ho -0.30969(3) -0.35247(2) -0.18405(2)
Ho1_4 Ho 0.30969(3) -0.64753(2) 0.18405(2)
Ho1A_4 Ho -0.30969(3) -0.35247(2) 0.81595(2)
C1A C -0.1466(7) -0.1437(5) 0.4712(5)
C2A C -0.0065(7) -0.1587(5) 0.3727(5)
C3A C -0.1378(8) 0.0136(5) 0.5972(6)
H5A H -0.2299 0.0219 0.6625
C4A C -0.3143(7) -0.2935(5) 0.4401(5)
C5A C 0.0019(7) -0.3265(5) 0.2395(5)
C6A C 0.1067(8) -0.0378(5) -0.0108(6)
O1A O -0.4491(6) -0.3808(4) 0.2844(4)
O1A_2 O 0.5509(6) 0.6192(4) 0.2844(4)
O2_2 O 0.6882(6) 0.3095(5) 0.3359(4)
O3_2 O 0.5275(6) 0.3171(5) 0.0079(5)
O4A O -0.3144(6) -0.3253(4) 0.5662(4)
O4_2 O -0.6856(6) -0.6747(4) 0.4338(4)
O5A O -0.0741(6) -0.3461(4) 0.0837(4)
O5_2 O -0.9259(6) -0.6539(4) -0.0837(4)
O5_3 O 0.0741(6) 0.3461(4) -0.0837(4)
O6A O 0.0990(5) -0.4319(4) 0.2968(4)
O6A_2 O -0.9010(5) -0.4319(4) 0.2968(4)
O6A_3 O 0.0990(5) 0.5681(4) 0.2968(4)
O7_2 O -1.0683(5) -0.8050(4) 0.1035(4)
O7A O 0.0683(5) -0.1950(4) -0.1035(4)
O8_2 O -0.7036(5) -0.9422(4) 0.0621(5)
O8A O -0.2964(5) -0.0578(4) -0.0621(5)
loop_
_geom_bond_atom_site_label_1
_geom_bond_atom_site_label_2
_geom_bond_site_symmetry_1
_geom_bond_site_symmetry_2
H1 O2 1_555 1_555
H2 O3 1_555 1_555
H3 O3 1_555 1_555
H4 O2 1_555 1_555
Ho1 O2 1_555 1_555
C1 C2 1_555 1_555
C2 C5 1_555 1_555
C3 C1 1_555 1_555
H5 C3 1_555 1_555
C4 C1 1_555 1_555
C5 O5 1_555 1_555
C6 O7 1_555 1_555
O1 C4 1_555 1_555
O3 Ho1 1_555 1_555
O4 C4 1_555 1_555
O5 Ho1_3 1_555 1_555
O6 C5 1_555 1_555
O7 Ho1_2 1_555 1_555
O8 Ho1_2 1_555 1_555
H1_2 O2_2 1_555 1_555
H2_2 O3_2 1_555 1_555
H3_2 O3_2 1_555 1_555
H4_2 O2_2 1_555 1_555
Ho1A O1 1_555 1_555
Ho1_2 O4 1_555 1_555
Ho1A_2 O6 1_555 1_555
Ho1A_3 O5A 1_555 1_555
Ho1_4 O6A 1_555 1_555
Ho1A_4 O4A 1_555 1_555
C1A C2A 1_555 1_555
C2A C3 1_555 1_555
C3A C2 1_555 1_555
H5A C3A 1_555 1_555
C4A C1A 1_555 1_555
C5A C2A 1_555 1_555
C6A C6 1_555 1_555
O1A Ho1 1_555 1_555
O1A_2 Ho1_2 1_555 1_555
O2_2 Ho1_2 1_555 1_555
O3_2 Ho1_2 1_555 1_555
O4A C4A 1_555 1_555
O4_2 Ho1 1_555 1_555
O5A C5A 1_555 1_555
O5_2 Ho1 1_555 1_555
O5_3 Ho1_2 1_555 1_555
O6A C5A 1_555 1_555
O6A_2 Ho1 1_555 1_555
O6A_3 Ho1_2 1_555 1_555
O7_2 Ho1 1_555 1_555
O7A Ho1A_3 1_555 1_555
O8_2 Ho1 1_555 1_555
O8A C6 1_555 1_555
O8 C6A 1_555 1_555
Ho1A_3 O8A 1_555 1_555
C1A C3A 1_555 1_555
C4A O1A 1_555 1_555
C6A O7A 1_555 1_555

#END
