
#######################################################################
#
#                 Cambridge Crystallographic Data Centre
#                                CCDC 
#
#######################################################################
#
# If this CIF has been generated from an entry in the Cambridge 
# Structural Database, then it will include bibliographic, chemical, 
# crystal, experimental, refinement or atomic coordinate data resulting 
# from the CCDC's data processing and validation procedures.
#
#######################################################################

data_TARSOW
_symmetry_cell_setting           monoclinic
_symmetry_space_group_name_H-M   'C 2/c'
_symmetry_Int_Tables_number      15
_space_group_name_Hall           '-C 2yn'
loop_
_symmetry_equiv_pos_site_id
_symmetry_equiv_pos_as_xyz
1 x,y,z
2 -x,y,1/2-z
3 1/2+x,1/2+y,z
4 1/2-x,1/2+y,1/2-z
5 -x,-y,-z
6 x,-y,1/2+z
7 1/2-x,1/2-y,-z
8 1/2+x,1/2-y,1/2+z
_cell_length_a                   18.805(4)
_cell_length_b                   7.7577(16)
_cell_length_c                   14.724(3)
_cell_angle_alpha                90
_cell_angle_beta                 113.70(3)
_cell_angle_gamma                90
_cell_volume                     1966.83
loop_
_atom_site_label
_atom_site_type_symbol
_atom_site_fract_x
_atom_site_fract_y
_atom_site_fract_z
O1 O 0.0000 1.0000 0.0000
H1 H 0.2508(19) 1.279(3) 0.117(3)
H2 H 0.156(2) 1.049(5) 0.2072(16)
H3 H 0.168(2) 1.132(3) 0.133(3)
H4 H 0.3050(14) 1.180(5) 0.098(3)
Dy1 Dy 0.246511(7) 0.866296(17) 0.115480(9)
C1 C 0.42448(16) 0.9828(4) -0.0740(2)
C2 C 0.43776(16) 0.9620(4) 0.0261(2)
C3 C 0.48670(16) 1.0197(4) -0.0990(2)
H5 H 0.4780 1.0326 -0.1654
C4 C 0.37426(17) 0.9272(4) 0.0604(2)
C5 C 0.36459(16) 0.5289(4) 0.1240(2)
C6 C 0.42989(17) 0.4143(4) 0.1897(2)
H6 H 0.4438 0.3333 0.1494
H7 H 0.4133 0.3492 0.2340
C7 C 0.5000 0.5256(6) 0.2500
H8 H 0.5129 0.5991 0.2055
O2 O 0.15205(13) 1.0392(3) 0.14866(17)
O3 O 0.26256(17) 1.1841(4) 0.0994(2)
O4 O 0.38521(13) 0.9493(3) 0.14828(16)
O5 O 0.30737(11) 0.8778(3) -0.00293(15)
O6 O 0.32857(12) 0.6169(3) 0.16449(16)
O7 O 0.35181(13) 0.5353(3) 0.03357(16)
C8 C 0.34613(15) 0.9591(4) -0.1607(2)
O8 O 0.32068(12) 0.8077(3) -0.18184(16)
O9 O 0.31473(12) 1.0895(3) -0.21095(16)
H1D H 0.7492(19) 0.721(3) -0.117(3)
H2D H 0.844(2) 0.951(5) -0.2072(16)
H3D H 0.832(2) 0.868(3) -0.133(3)
H4D H 0.6950(14) 0.820(5) -0.098(3)
Dy1D Dy 0.753489(7) 1.133704(17) -0.115480(9)
Dy1F Dy 0.253489(7) 0.633704(17) -0.115480(9)
Dy1E Dy 0.246511(7) 1.133704(17) -0.384520(9)
Dy1B Dy 0.746511(7) 1.366296(17) 0.115480(9)
Dy1A Dy 0.753489(7) 0.866296(17) 0.384520(9)
Dy1G Dy 0.746511(7) 0.633704(17) 0.615480(9)
C1D C 0.57552(16) 1.0172(4) 0.0740(2)
C2D C 0.56224(16) 1.0380(4) -0.0261(2)
C3D C 0.51330(16) 0.9803(4) 0.0990(2)
H5D H 0.5220 0.9674 0.1654
C4D C 0.62574(17) 1.0728(4) -0.0604(2)
C5A C 0.63541(16) 0.5289(4) 0.3760(2)
C6A C 0.57011(17) 0.4143(4) 0.3103(2)
H6A H 0.5562 0.3333 0.3506
H7A H 0.5867 0.3492 0.2660
H8A H 0.4871 0.5991 0.2945
O2D O 0.84795(13) 0.9608(3) -0.14866(17)
O3D O 0.73744(17) 0.8159(4) -0.0994(2)
O4D O 0.61479(13) 1.0507(3) -0.14828(16)
O5D O 0.69263(11) 1.1222(3) 0.00293(15)
O5F O 0.19263(11) 0.6222(3) 0.00293(15)
O5B O 0.80737(11) 1.3778(3) -0.00293(15)
O6A O 0.67143(12) 0.6169(3) 0.33551(16)
O6D O 0.67143(12) 1.3831(3) -0.16449(16)
O7A O 0.64819(13) 0.5353(3) 0.46643(16)
O7F O 0.14819(13) 0.9647(3) -0.03357(16)
O7B O 0.85181(13) 1.0353(3) 0.03357(16)
C8D C 0.65387(15) 1.0409(4) 0.1607(2)
O8D O 0.67932(12) 1.1923(3) 0.18184(16)
O8F O 0.17932(12) 0.6923(3) 0.18184(16)
O8B O 0.82068(12) 1.3077(3) -0.18184(16)
O9D O 0.68527(12) 0.9105(3) 0.21095(16)
O9E O 0.31473(12) 0.9105(3) 0.28905(16)
O9A O 0.68527(12) 1.0895(3) -0.28905(16)
loop_
_geom_bond_atom_site_label_1
_geom_bond_atom_site_label_2
_geom_bond_site_symmetry_1
_geom_bond_site_symmetry_2
H1 O3 1_555 1_555
H2 O2 1_555 1_555
H3 O2 1_555 1_555
H4 O3 1_555 1_555
Dy1 O2 1_555 1_555
C1 C2 1_555 1_555
C2 C4 1_555 1_555
C3 C1 1_555 1_555
H5 C3 1_555 1_555
C4 O4 1_555 1_555
C5 C6 1_555 1_555
C6 H6 1_555 1_555
H7 C6 1_555 1_555
C7 C6 1_555 1_555
H8 C7 1_555 1_555
O3 Dy1 1_555 1_555
O4 Dy1 1_555 1_555
O5 Dy1 1_555 1_555
O6 Dy1 1_555 1_555
O7 C5 1_555 1_555
C8 C1 1_555 1_555
O8 C8 1_555 1_555
O9 C8 1_555 1_555
H1D O3D 1_555 1_555
H2D O2D 1_555 1_555
H3D O2D 1_555 1_555
H4D O3D 1_555 1_555
Dy1D O2D 1_555 1_555
Dy1F O5 1_555 1_555
Dy1E O9 1_555 1_555
Dy1B O5D 1_555 1_555
Dy1A O6A 1_555 1_555
Dy1G O7A 1_555 1_555
C1D C2D 1_555 1_555
C2D C3 1_555 1_555
C3D C2 1_555 1_555
H5D C3D 1_555 1_555
C4D C2D 1_555 1_555
C5A C6A 1_555 1_555
C6A C7 1_555 1_555
H6A C6A 1_555 1_555
H7A C6A 1_555 1_555
H8A C7 1_555 1_555
O3D Dy1D 1_555 1_555
O4D Dy1D 1_555 1_555
O5D Dy1D 1_555 1_555
O5F Dy1 1_555 1_555
O5B Dy1D 1_555 1_555
O6A C5A 1_555 1_555
O6D Dy1D 1_555 1_555
O7A C5A 1_555 1_555
O7F Dy1 1_555 1_555
O7B Dy1D 1_555 1_555
C8D C1D 1_555 1_555
O8D Dy1B 1_555 1_555
O8F Dy1 1_555 1_555
O8B Dy1D 1_555 1_555
O9D Dy1A 1_555 1_555
O9E Dy1 1_555 1_555
O9A Dy1D 1_555 1_555
C4 O5 1_555 1_555
C5 O6 1_555 1_555
O7 Dy1F 1_555 1_555
O8 Dy1F 1_555 1_555
Dy1F O5F 1_555 1_555
Dy1B O5B 1_555 1_555
C1D C3D 1_555 1_555
C4D O4D 1_555 1_555
C4D O5D 1_555 1_555
C8D O8D 1_555 1_555
C8D O9D 1_555 1_555

#END
