
#######################################################################
#
#                 Cambridge Crystallographic Data Centre
#                                CCDC 
#
#######################################################################
#
# If this CIF has been generated from an entry in the Cambridge 
# Structural Database, then it will include bibliographic, chemical, 
# crystal, experimental, refinement or atomic coordinate data resulting 
# from the CCDC's data processing and validation procedures.
#
#######################################################################

data_TARSUC
_symmetry_cell_setting           monoclinic
_symmetry_space_group_name_H-M   'C 2/c'
_symmetry_Int_Tables_number      15
_space_group_name_Hall           '-C 2yn'
loop_
_symmetry_equiv_pos_site_id
_symmetry_equiv_pos_as_xyz
1 x,y,z
2 -x,y,1/2-z
3 1/2+x,1/2+y,z
4 1/2-x,1/2+y,1/2-z
5 -x,-y,-z
6 x,-y,1/2+z
7 1/2-x,1/2-y,-z
8 1/2+x,1/2-y,1/2+z
_cell_length_a                   18.7825(18)
_cell_length_b                   7.7434(8)
_cell_length_c                   14.6995(14)
_cell_angle_alpha                90
_cell_angle_beta                 113.777(1)
_cell_angle_gamma                90
_cell_volume                     1956.44
loop_
_atom_site_label
_atom_site_type_symbol
_atom_site_fract_x
_atom_site_fract_y
_atom_site_fract_z
H1 H 0.387(3) 0.034(6) -0.109(4)
H2 H 0.342(3) 0.065(6) -0.211(3)
H3 H 0.265(3) 0.238(7) -0.117(3)
H4 H 0.210(3) 0.192(8) -0.089(4)
O1 O 0.17989(16) -0.1923(4) 0.18184(19)
O2 O 0.18514(16) 0.0899(4) 0.2116(2)
Ho1 Ho 0.253500(10) -0.13449(2) -0.115350(12)
C1 C 0.0620(2) -0.0376(5) -0.0258(3)
C2 C 0.0756(2) -0.0172(5) 0.0743(3)
C3 C 0.0131(2) 0.0213(5) 0.0984(3)
H5 H 0.0217 0.0367 0.1647
C4 C 0.1260(2) -0.0730(5) -0.0607(3)
C5 C 0.1538(2) -0.0409(6) 0.1608(3)
C6 C 0.1358(2) -0.4708(5) -0.1232(3)
C7 C 0.0701(2) -0.5856(5) -0.1900(3)
H6 H 0.0869 -0.6499 -0.2345
H7 H 0.0563 -0.6676 -0.1500
C8 C 0.0000 -0.4754(8) -0.2500
H8 H -0.0127 -0.4017 -0.2053
O3 O 0.11448(17) -0.0516(4) -0.1488(2)
O4 O 0.34671(18) 0.0396(4) -0.1493(2)
O5 O 0.2368(2) 0.1830(5) -0.0994(3)
O6 O 0.19291(16) -0.1225(3) 0.0027(2)
O8 O 0.14827(17) -0.4650(4) -0.0333(2)
O9 O 0.17166(16) -0.3826(3) -0.1643(2)
H1D H -0.387(3) -0.034(6) 0.109(4)
H2D H -0.342(3) -0.065(6) 0.211(3)
H3D H -0.265(3) -0.238(7) 0.117(3)
H4D H -0.210(3) -0.192(8) 0.089(4)
O1D O -0.17989(16) 0.1923(4) -0.18184(19)
O1F O 0.32011(16) -0.3077(4) -0.18184(19)
O1B O -0.32011(16) 0.3077(4) 0.18184(19)
O2D O -0.18514(16) -0.0899(4) -0.2116(2)
O2E O 0.18514(16) -0.0899(4) -0.2884(2)
O2A O -0.18514(16) 0.0899(4) 0.2884(2)
Ho1B Ho -0.246500(10) 0.36551(2) -0.115350(12)
Ho1E Ho 0.253500(10) 0.13449(2) 0.384650(12)
Ho1F Ho 0.246500(10) -0.36551(2) 0.115350(12)
Ho1D Ho -0.253500(10) 0.13449(2) 0.115350(12)
Ho1A Ho -0.253500(10) -0.13449(2) -0.384650(12)
Ho1G Ho -0.246500(10) -0.36551(2) -0.615350(12)
C1D C -0.0620(2) 0.0376(5) 0.0258(3)
C2D C -0.0756(2) 0.0172(5) -0.0743(3)
C3D C -0.0131(2) -0.0213(5) -0.0984(3)
H5D H -0.0217 -0.0367 -0.1647
C4D C -0.1260(2) 0.0730(5) 0.0607(3)
C5D C -0.1538(2) 0.0409(6) -0.1608(3)
C6A C -0.1358(2) -0.4708(5) -0.3768(3)
C7A C -0.0701(2) -0.5856(5) -0.3100(3)
H6A H -0.0869 -0.6499 -0.2655
H7A H -0.0563 -0.6676 -0.3500
H8A H 0.0127 -0.4017 -0.2947
O3D O -0.11448(17) 0.0516(4) 0.1488(2)
O4D O -0.34671(18) -0.0396(4) 0.1493(2)
O5D O -0.2368(2) -0.1830(5) 0.0994(3)
O6D O -0.19291(16) 0.1225(3) -0.0027(2)
O6F O 0.30709(16) -0.3775(3) -0.0027(2)
O6B O -0.30709(16) 0.3775(3) 0.0027(2)
O8A O -0.14827(17) -0.4650(4) -0.4667(2)
O8F O 0.35173(17) -0.0350(4) 0.0333(2)
O8B O -0.35173(17) 0.0350(4) -0.0333(2)
O9A O -0.17166(16) -0.3826(3) -0.3357(2)
O9D O -0.17166(16) 0.3826(3) 0.1643(2)
O7 O 0.0000 -0.5000 0.0000
loop_
_geom_bond_atom_site_label_1
_geom_bond_atom_site_label_2
_geom_bond_site_symmetry_1
_geom_bond_site_symmetry_2
H1 O4 1_555 1_555
H2 O4 1_555 1_555
H3 O5 1_555 1_555
H4 O5 1_555 1_555
O1 C5 1_555 1_555
O2 C5 1_555 1_555
Ho1 O3 1_555 1_555
C1 C2 1_555 1_555
C2 C3 1_555 1_555
C3 H5 1_555 1_555
C4 C1 1_555 1_555
C5 C2 1_555 1_555
C6 C7 1_555 1_555
C7 H6 1_555 1_555
H7 C7 1_555 1_555
C8 C7 1_555 1_555
H8 C8 1_555 1_555
O3 C4 1_555 1_555
O4 Ho1 1_555 1_555
O5 Ho1 1_555 1_555
O6 Ho1 1_555 1_555
O8 C6 1_555 1_555
O9 Ho1 1_555 1_555
H1D O4D 1_555 1_555
H2D O4D 1_555 1_555
H3D O5D 1_555 1_555
H4D O5D 1_555 1_555
O1D Ho1B 1_555 1_555
O1F Ho1 1_555 1_555
O1B Ho1D 1_555 1_555
O2D Ho1A 1_555 1_555
O2E Ho1 1_555 1_555
O2A Ho1D 1_555 1_555
Ho1B O6D 1_555 1_555
Ho1E O2 1_555 1_555
Ho1F O1 1_555 1_555
Ho1D O3D 1_555 1_555
Ho1A O9A 1_555 1_555
Ho1G O8A 1_555 1_555
C1D C3 1_555 1_555
C2D C1D 1_555 1_555
C3D C1 1_555 1_555
H5D C3D 1_555 1_555
C4D C1D 1_555 1_555
C5D O1D 1_555 1_555
C6A C7A 1_555 1_555
C7A C8 1_555 1_555
H6A C7A 1_555 1_555
H7A C7A 1_555 1_555
H8A C8 1_555 1_555
O3D C4D 1_555 1_555
O4D Ho1D 1_555 1_555
O5D Ho1D 1_555 1_555
O6D Ho1D 1_555 1_555
O6F Ho1 1_555 1_555
O6B Ho1B 1_555 1_555
O8A C6A 1_555 1_555
O8F Ho1 1_555 1_555
O8B Ho1D 1_555 1_555
O9A C6A 1_555 1_555
O9D Ho1D 1_555 1_555
C4 O6 1_555 1_555
C6 O9 1_555 1_555
O6 Ho1F 1_555 1_555
O8 Ho1F 1_555 1_555
O2D C5D 1_555 1_555
Ho1F O6F 1_555 1_555
Ho1D O6B 1_555 1_555
C2D C3D 1_555 1_555
C2D C5D 1_555 1_555
C4D O6D 1_555 1_555

#END
