
#######################################################################
#
#                 Cambridge Crystallographic Data Centre
#                                CCDC 
#
#######################################################################
#
# If this CIF has been generated from an entry in the Cambridge 
# Structural Database, then it will include bibliographic, chemical, 
# crystal, experimental, refinement or atomic coordinate data resulting 
# from the CCDC's data processing and validation procedures.
#
#######################################################################

data_TARSAI
_symmetry_cell_setting           triclinic
_symmetry_space_group_name_H-M   'P -1'
_symmetry_Int_Tables_number      2
_space_group_name_Hall           '-P 1'
loop_
_symmetry_equiv_pos_site_id
_symmetry_equiv_pos_as_xyz
1 x,y,z
2 -x,-y,-z
_cell_length_a                   6.2071(8)
_cell_length_b                   8.5862(18)
_cell_length_c                   8.8891(11)
_cell_angle_alpha                110.938(2)
_cell_angle_beta                 110.025(2)
_cell_angle_gamma                91.761(2)
_cell_volume                     409.339
loop_
_atom_site_label
_atom_site_type_symbol
_atom_site_fract_x
_atom_site_fract_y
_atom_site_fract_z
Dy1 Dy 0.69035(5) 0.64695(3) -0.18479(3)
O1 O -0.4477(8) -0.3798(5) -0.7160(6)
O2 O -0.3165(8) -0.3253(6) -0.4351(6)
O3 O 0.3121(9) 0.6898(6) -0.3367(6)
H1 H 0.2179 0.7215 -0.2912
H2 H 0.2339 0.6408 -0.4409
O4 O 0.4717(8) 0.6833(6) -0.0079(6)
H3 H 0.5105 0.6465 0.0691
H4 H 0.3411 0.7076 -0.0251
O5 O 0.0967(8) -0.4326(5) -0.7026(5)
O6 O -0.0738(8) -0.3444(6) -0.9158(6)
O7 O -0.2974(8) -0.0574(6) -0.0631(6)
O8 O 0.0685(8) -0.1950(5) -0.1039(6)
C1 C -0.3168(11) -0.2938(7) -0.5612(8)
C2 C -0.1474(11) -0.1433(8) -0.5292(8)
C3 C -0.1385(11) 0.0131(8) -0.4027(8)
H5 H -0.2302 0.0220 -0.3373
C4 C -0.0094(11) -0.1582(7) -0.6264(8)
C5 C 0.0022(10) -0.3259(7) -0.7589(8)
C6 C -0.1078(11) 0.0373(8) 0.0116(8)
Dy1A Dy -0.69035(5) -0.64695(3) -0.81521(3)
Dy1_2 Dy -0.30965(5) -0.35305(3) -0.18479(3)
Dy1A_2 Dy 0.30965(5) -0.64695(3) -0.81521(3)
Dy1_3 Dy -0.30965(5) -0.35305(3) -1.18479(3)
Dy1A_3 Dy 0.30965(5) 0.35305(3) -0.81521(3)
Dy1_4 Dy -0.30965(5) 0.64695(3) -0.18479(3)
Dy1A_4 Dy 0.30965(5) 0.35305(3) 0.18479(3)
O1A O 0.4477(8) 0.3798(5) -0.2840(6)
O1A_2 O -0.5523(8) -0.6202(5) -0.2840(6)
O2A O 0.3165(8) 0.3253(6) -0.5649(6)
O2_2 O 0.6835(8) 0.6747(6) -0.4351(6)
O3_2 O -0.6879(9) -0.3102(6) -0.3367(6)
H1_2 H -0.7821 -0.2785 -0.2912
H2_2 H -0.7661 -0.3592 -0.4409
O4_2 O -0.5283(8) -0.3167(6) -0.0079(6)
H3_2 H -0.4895 -0.3535 0.0691
H4_2 H -0.6589 -0.2924 -0.0251
O5A O -0.0967(8) 0.4326(5) -0.2974(5)
O5A_2 O 0.9033(8) 0.4326(5) -0.2974(5)
O5A_3 O -0.0967(8) -0.5674(5) -0.2974(5)
O6A O 0.0738(8) 0.3444(6) -0.0842(6)
O6_2 O 0.9262(8) 0.6556(6) 0.0842(6)
O6_3 O -0.0738(8) -0.3444(6) 0.0842(6)
O7_2 O 0.7026(8) 0.9426(6) -0.0631(6)
O7A O 0.2974(8) 0.0574(6) 0.0631(6)
O8_2 O 1.0685(8) 0.8050(5) -0.1039(6)
O8A O -0.0685(8) 0.1950(5) 0.1039(6)
C1A C 0.3168(11) 0.2938(7) -0.4388(8)
C2A C 0.1474(11) 0.1433(8) -0.4708(8)
C3A C 0.1385(11) -0.0131(8) -0.5973(8)
H5A H 0.2302 -0.0220 -0.6627
C4A C 0.0094(11) 0.1582(7) -0.3736(8)
C5A C -0.0022(10) 0.3259(7) -0.2411(8)
C6A C 0.1078(11) -0.0373(8) -0.0116(8)
loop_
_geom_bond_atom_site_label_1
_geom_bond_atom_site_label_2
_geom_bond_site_symmetry_1
_geom_bond_site_symmetry_2
Dy1 O3 1_555 1_555
O1 C1 1_555 1_555
O2 C1 1_555 1_555
O3 H1 1_555 1_555
H2 O3 1_555 1_555
O4 Dy1 1_555 1_555
H3 O4 1_555 1_555
H4 O4 1_555 1_555
O5 C5 1_555 1_555
O6 C5 1_555 1_555
O7 C6 1_555 1_555
O8 Dy1_2 1_555 1_555
C1 C2 1_555 1_555
C2 C3 1_555 1_555
C3 H5 1_555 1_555
C4 C2 1_555 1_555
C5 C4 1_555 1_555
C6 O8A 1_555 1_555
Dy1A O1 1_555 1_555
Dy1_2 O2 1_555 1_555
Dy1A_2 O5 1_555 1_555
Dy1_3 O6 1_555 1_555
Dy1A_3 O2A 1_555 1_555
Dy1_4 O5A 1_555 1_555
Dy1A_4 O6A 1_555 1_555
O1A Dy1 1_555 1_555
O1A_2 Dy1_2 1_555 1_555
O2A C1A 1_555 1_555
O2_2 Dy1 1_555 1_555
O3_2 Dy1_2 1_555 1_555
H1_2 O3_2 1_555 1_555
H2_2 O3_2 1_555 1_555
O4_2 Dy1_2 1_555 1_555
H3_2 O4_2 1_555 1_555
H4_2 O4_2 1_555 1_555
O5A C5A 1_555 1_555
O5A_2 Dy1 1_555 1_555
O5A_3 Dy1_2 1_555 1_555
O6A C5A 1_555 1_555
O6_2 Dy1 1_555 1_555
O6_3 Dy1_2 1_555 1_555
O7_2 Dy1 1_555 1_555
O7A Dy1A_4 1_555 1_555
O8_2 Dy1 1_555 1_555
O8A Dy1A_4 1_555 1_555
C1A O1A 1_555 1_555
C2A C1A 1_555 1_555
C3A C4 1_555 1_555
H5A C3A 1_555 1_555
C4A C3 1_555 1_555
C5A C4A 1_555 1_555
C6A O8 1_555 1_555
O7 Dy1_2 1_555 1_555
C6 C6A 1_555 1_555
O7A C6A 1_555 1_555
C2A C3A 1_555 1_555
C2A C4A 1_555 1_555

#END
