
#######################################################################
#
#                 Cambridge Crystallographic Data Centre
#                                CCDC 
#
#######################################################################
#
# If this CIF has been generated from an entry in the Cambridge 
# Structural Database, then it will include bibliographic, chemical, 
# crystal, experimental, refinement or atomic coordinate data resulting 
# from the CCDC's data processing and validation procedures.
#
#######################################################################

data_TARSIQ
_symmetry_cell_setting           monoclinic
_symmetry_space_group_name_H-M   'C 2/c'
_symmetry_Int_Tables_number      15
_space_group_name_Hall           '-C 2yn'
loop_
_symmetry_equiv_pos_site_id
_symmetry_equiv_pos_as_xyz
1 x,y,z
2 -x,y,1/2-z
3 1/2+x,1/2+y,z
4 1/2-x,1/2+y,1/2-z
5 -x,-y,-z
6 x,-y,1/2+z
7 1/2-x,1/2-y,-z
8 1/2+x,1/2-y,1/2+z
_cell_length_a                   18.833(3)
_cell_length_b                   7.7766(12)
_cell_length_c                   14.755(2)
_cell_angle_alpha                90
_cell_angle_beta                 113.696(2)
_cell_angle_gamma                90
_cell_volume                     1978.78
loop_
_atom_site_label
_atom_site_type_symbol
_atom_site_fract_x
_atom_site_fract_y
_atom_site_fract_z
Tb1 Tb 0.253737(10) 0.36633(2) 0.384331(14)
O1 O 0.11446(16) 0.4497(4) 0.3518(2)
O2 O 0.19268(15) 0.3780(4) 0.5030(2)
O3 O 0.34760(17) 0.5429(4) 0.3509(2)
H1 H 0.3479 0.5324 0.2958
H2 H 0.3895 0.4985 0.3846
O4 O 0.2372(2) 0.6862(4) 0.4019(3)
H3 H 0.2298 0.7244 0.4492
H4 H 0.2162 0.7456 0.3524
O6 O 0.17857(16) 0.3081(4) 0.6822(2)
O7 O 0.18507(16) 0.5906(4) 0.7101(2)
O8 O 0.17141(16) 0.1162(4) 0.3356(2)
O9 O 0.14763(17) 0.0359(4) 0.4664(2)
C1 C 0.0622(2) 0.4616(5) 0.4742(3)
C2 C 0.0757(2) 0.4834(5) 0.5741(3)
C3 C -0.0133(2) 0.4803(5) 0.4017(3)
H5 H -0.0218 0.4680 0.3355
C4 C 0.1257(2) 0.4290(6) 0.4397(3)
C5 C 0.1530(2) 0.4589(6) 0.6605(3)
C6 C 0.1351(2) 0.0297(6) 0.3760(3)
C7 C 0.0701(2) -0.0862(5) 0.3104(3)
H6 H 0.0563 -0.1669 0.3508
H7 H 0.0869 -0.1511 0.2665
C8 C 0.0000 0.0233(8) 0.2500
H8 H -0.0130 0.0966 0.2943
Tb1D Tb -0.253737(10) 0.63367(2) 0.615669(14)
Tb1F Tb 0.246263(10) 0.13367(2) 0.615669(14)
Tb1E Tb 0.253737(10) 0.63367(2) 0.884331(14)
Tb1B Tb -0.246263(10) 0.86633(2) 0.384331(14)
Tb1A Tb -0.253737(10) 0.36633(2) 0.115669(14)
Tb1G Tb -0.246263(10) 0.13367(2) -0.115669(14)
O1D O -0.11446(16) 0.5503(4) 0.6482(2)
O2D O -0.19268(15) 0.6220(4) 0.4970(2)
O2F O 0.30732(15) 0.1220(4) 0.4970(2)
O2B O -0.30732(15) 0.8780(4) 0.5030(2)
O3D O -0.34760(17) 0.4571(4) 0.6491(2)
H1D H -0.3479 0.4676 0.7042
H2D H -0.3895 0.5015 0.6154
O4D O -0.2372(2) 0.3138(4) 0.5981(3)
H3D H -0.2298 0.2756 0.5508
H4D H -0.2162 0.2544 0.6476
O6D O -0.17857(16) 0.6919(4) 0.3178(2)
O6F O 0.32143(16) 0.1919(4) 0.3178(2)
O6B O -0.32143(16) 0.8081(4) 0.6822(2)
O7D O -0.18507(16) 0.4094(4) 0.2899(2)
O7E O 0.18507(16) 0.4094(4) 0.2101(2)
O7A O -0.18507(16) 0.5906(4) 0.7899(2)
O8A O -0.17141(16) 0.1162(4) 0.1644(2)
O8D O -0.17141(16) 0.8838(4) 0.6644(2)
O9A O -0.14763(17) 0.0359(4) 0.0336(2)
O9F O 0.35237(17) 0.4641(4) 0.5336(2)
O9B O -0.35237(17) 0.5359(4) 0.4664(2)
C1D C -0.0622(2) 0.5384(5) 0.5258(3)
C2D C -0.0757(2) 0.5166(5) 0.4259(3)
C3D C 0.0133(2) 0.5197(5) 0.5983(3)
H5D H 0.0218 0.5320 0.6645
C4D C -0.1257(2) 0.5710(6) 0.5603(3)
C5D C -0.1530(2) 0.5411(6) 0.3395(3)
C6A C -0.1351(2) 0.0297(6) 0.1240(3)
C7A C -0.0701(2) -0.0862(5) 0.1896(3)
H6A H -0.0563 -0.1669 0.1492
H7A H -0.0869 -0.1511 0.2335
H8A H 0.0130 0.0966 0.2057
O5 O 0.5000 0.5000 0.5000
H9? H 0.2714 0.7171 0.3845
H10? H 0.2010 0.6637 0.3493
loop_
_geom_bond_atom_site_label_1
_geom_bond_atom_site_label_2
_geom_bond_site_symmetry_1
_geom_bond_site_symmetry_2
Tb1 O1 1_555 1_555
O1 C4 1_555 1_555
O2 Tb1 1_555 1_555
O3 Tb1 1_555 1_555
H1 O3 1_555 1_555
H2 O3 1_555 1_555
O4 Tb1 1_555 1_555
H3 O4 1_555 1_555
H4 O4 1_555 1_555
O6 C5 1_555 1_555
O7 C5 1_555 1_555
O8 Tb1 1_555 1_555
O9 C6 1_555 1_555
C1 C2 1_555 1_555
C2 C5 1_555 1_555
C3 C1 1_555 1_555
H5 C3 1_555 1_555
C4 O2 1_555 1_555
C6 O8 1_555 1_555
C7 C6 1_555 1_555
H6 C7 1_555 1_555
H7 C7 1_555 1_555
C8 C7 1_555 1_555
H8 C8 1_555 1_555
Tb1D O1D 1_555 1_555
Tb1F O2 1_555 1_555
Tb1E O7 1_555 1_555
Tb1B O2D 1_555 1_555
Tb1A O7D 1_555 1_555
Tb1G O9A 1_555 1_555
O1D C4D 1_555 1_555
O2D Tb1D 1_555 1_555
O2F Tb1 1_555 1_555
O2B Tb1D 1_555 1_555
O3D Tb1D 1_555 1_555
H1D O3D 1_555 1_555
H2D O3D 1_555 1_555
O4D Tb1D 1_555 1_555
H3D O4D 1_555 1_555
H4D O4D 1_555 1_555
O6D Tb1B 1_555 1_555
O6F Tb1 1_555 1_555
O6B Tb1D 1_555 1_555
O7D C5D 1_555 1_555
O7E Tb1 1_555 1_555
O7A Tb1D 1_555 1_555
O8A Tb1A 1_555 1_555
O8D Tb1D 1_555 1_555
O9A C6A 1_555 1_555
O9F Tb1 1_555 1_555
O9B Tb1D 1_555 1_555
C1D C2D 1_555 1_555
C2D C3 1_555 1_555
C3D C2 1_555 1_555
H5D C3D 1_555 1_555
C4D O2D 1_555 1_555
C5D O6D 1_555 1_555
C6A O8A 1_555 1_555
C7A C8 1_555 1_555
H6A C7A 1_555 1_555
H7A C7A 1_555 1_555
H8A C8 1_555 1_555
O6 Tb1F 1_555 1_555
O9 Tb1F 1_555 1_555
C1 C4 1_555 1_555
Tb1F O2F 1_555 1_555
Tb1B O2B 1_555 1_555
C1D C3D 1_555 1_555
C1D C4D 1_555 1_555
C2D C5D 1_555 1_555
C6A C7A 1_555 1_555

#END
