
#######################################################################
#
#                 Cambridge Crystallographic Data Centre
#                                CCDC 
#
#######################################################################
#
# If this CIF has been generated from an entry in the Cambridge 
# Structural Database, then it will include bibliographic, chemical, 
# crystal, experimental, refinement or atomic coordinate data resulting 
# from the CCDC's data processing and validation procedures.
#
#######################################################################

data_TARTEN
_symmetry_cell_setting           monoclinic
_symmetry_space_group_name_H-M   'P 21/n'
_symmetry_Int_Tables_number      14
_space_group_name_Hall           '-P 2yn'
loop_
_symmetry_equiv_pos_site_id
_symmetry_equiv_pos_as_xyz
1 x,y,z
2 1/2-x,1/2+y,1/2-z
3 -x,-y,-z
4 1/2+x,1/2-y,1/2+z
_cell_length_a                   7.7489(8)
_cell_length_b                   7.1601(7)
_cell_length_c                   17.2940(18)
_cell_angle_alpha                90
_cell_angle_beta                 91.165(1)
_cell_angle_gamma                90
_cell_volume                     959.323
loop_
_atom_site_label
_atom_site_type_symbol
_atom_site_fract_x
_atom_site_fract_y
_atom_site_fract_z
Er1 Er 0.34753(2) 0.48793(2) 0.244532(10)
O1 O 0.5820(4) 0.6710(4) 0.2864(2)
H1 H 0.6819 0.6694 0.3029
H2 H 0.5516 0.7803 0.2824
O2 O 0.2884(4) 0.1994(4) 0.17294(17)
O3 O 0.5658(4) 0.2664(4) 0.17850(18)
O4 O 0.3578(4) -0.1825(4) 0.18950(17)
O5 O 0.4202(4) -0.4178(4) 0.11527(17)
O6 O 0.4900(4) 0.3235(4) 0.34030(19)
O7 O 0.4221(4) 0.0266(4) 0.31777(19)
C1 C 0.4426(6) 0.1814(5) 0.1477(2)
C2 C 0.4703(5) 0.0777(6) 0.0727(2)
C3 C 0.4502(6) -0.1150(6) 0.0612(2)
C4 C 0.5199(5) 0.1889(6) 0.0113(2)
H3 H 0.5335 0.3167 0.0190
C5 C 0.4059(5) -0.2468(6) 0.1250(2)
C6 C 0.5074(6) 0.1518(6) 0.3538(3)
C7 C 0.6371(6) 0.0921(7) 0.4141(3)
H4 H 0.6808 0.2020 0.4408
H5 H 0.7334 0.0329 0.3888
C8 C 0.5643(7) -0.0432(7) 0.4736(3)
H6 H 0.5097 -0.1467 0.4464
H7 H 0.6591 -0.0934 0.5046
Er1B Er 0.65247(2) -0.48793(2) -0.244532(10)
Er1A Er 0.15247(2) -0.01207(2) 0.255468(10)
Er1_2 Er 0.34753(2) -0.51207(2) 0.244532(10)
Er1C Er 0.84753(2) 0.01207(2) -0.255468(10)
Er1B_2 Er 0.65247(2) 0.51207(2) -0.244532(10)
Er1B_3 Er 0.65247(2) -0.48793(2) 0.755468(10)
Er1C_2 Er 0.84753(2) 0.01207(2) 0.744532(10)
O1B O 0.4180(4) -0.6710(4) -0.2864(2)
H1B H 0.3181 -0.6694 -0.3029
H2B H 0.4484 -0.7803 -0.2824
O2B O 0.7116(4) -0.1994(4) -0.17294(17)
O2A O 0.2116(4) 0.6994(4) 0.32706(17)
O2C O 0.7884(4) -0.6994(4) -0.32706(17)
O3B O 0.4342(4) -0.2664(4) -0.17850(18)
O4B O 0.6422(4) 0.1825(4) -0.18950(17)
O4_2 O 0.3578(4) 0.8175(4) 0.18950(17)
O4A O 0.1422(4) 0.3175(4) 0.31050(17)
O4B_2 O 0.6422(4) -0.8175(4) -0.18950(17)
O4C O 0.8578(4) -0.3175(4) -0.31050(17)
O5B O 0.5798(4) 0.4178(4) -0.11527(17)
O5_2 O 0.4202(4) 0.5822(4) 0.11527(17)
O5B_2 O 0.5798(4) -0.5822(4) -0.11527(17)
O6B O 0.5100(4) -0.3235(4) 0.65970(19)
O6B_2 O 0.5100(4) -0.3235(4) -0.34030(19)
O7B O 0.5779(4) -0.0266(4) 0.68223(19)
O7A O 0.0779(4) 0.5266(4) 0.18223(19)
O7C O 0.9221(4) -0.5266(4) -0.18223(19)
C1B C 0.5574(6) -0.1814(5) -0.1477(2)
C2B C 0.5297(5) -0.0777(6) -0.0727(2)
C3B C 0.5498(6) 0.1150(6) -0.0612(2)
C4B C 0.4801(5) -0.1889(6) -0.0113(2)
H3B H 0.4665 -0.3167 -0.0190
C5B C 0.5941(5) 0.2468(6) -0.1250(2)
C6B C 0.4926(6) -0.1518(6) 0.6462(3)
C7B C 0.3629(6) -0.0921(7) 0.5859(3)
H4B H 0.3192 -0.2020 0.5592
H5B H 0.2666 -0.0329 0.6112
C8B C 0.4357(7) 0.0432(7) 0.5264(3)
H6B H 0.4903 0.1467 0.5536
H7B H 0.3409 0.0934 0.4954
loop_
_geom_bond_atom_site_label_1
_geom_bond_atom_site_label_2
_geom_bond_site_symmetry_1
_geom_bond_site_symmetry_2
Er1 O1 1_555 1_555
O1 H1 1_555 1_555
H2 O1 1_555 1_555
O2 Er1 1_555 1_555
O3 Er1 1_555 1_555
O4 C5 1_555 1_555
O5 C5 1_555 1_555
O6 Er1 1_555 1_555
O7 C6 1_555 1_555
C1 O2 1_555 1_555
C2 C1 1_555 1_555
C3 C2 1_555 1_555
C4 C2 1_555 1_555
H3 C4 1_555 1_555
C5 C3 1_555 1_555
C6 O6 1_555 1_555
C7 C6 1_555 1_555
H4 C7 1_555 1_555
H5 C7 1_555 1_555
C8 C7 1_555 1_555
H6 C8 1_555 1_555
H7 C8 1_555 1_555
Er1B O1B 1_555 1_555
Er1A O2 1_555 1_555
Er1_2 O4 1_555 1_555
Er1C O2B 1_555 1_555
Er1B_2 O4B 1_555 1_555
Er1B_3 O6B 1_555 1_555
Er1C_2 O7B 1_555 1_555
O1B H1B 1_555 1_555
H2B O1B 1_555 1_555
O2B Er1B 1_555 1_555
O2A Er1 1_555 1_555
O2C Er1B 1_555 1_555
O3B Er1B 1_555 1_555
O4B Er1C 1_555 1_555
O4_2 Er1 1_555 1_555
O4A Er1 1_555 1_555
O4B_2 Er1B 1_555 1_555
O4C Er1B 1_555 1_555
O5B Er1B_2 1_555 1_555
O5_2 Er1 1_555 1_555
O5B_2 Er1B 1_555 1_555
O6B C6B 1_555 1_555
O6B_2 Er1B 1_555 1_555
O7B C6B 1_555 1_555
O7A Er1 1_555 1_555
O7C Er1B 1_555 1_555
C1B O2B 1_555 1_555
C2B C1B 1_555 1_555
C3B C4 1_555 1_555
C4B C3 1_555 1_555
H3B C4B 1_555 1_555
C5B O4B 1_555 1_555
C6B C7B 1_555 1_555
C7B H4B 1_555 1_555
H5B C7B 1_555 1_555
C8B C8 1_555 1_555
H6B C8B 1_555 1_555
H7B C8B 1_555 1_555
O3 C1 1_555 1_555
O4 Er1A 1_555 1_555
O5 Er1_2 1_555 1_555
O7 Er1A 1_555 1_555
Er1A O4A 1_555 1_555
Er1C O4C 1_555 1_555
O3B C1B 1_555 1_555
O5B C5B 1_555 1_555
C2B C3B 1_555 1_555
C2B C4B 1_555 1_555
C3B C5B 1_555 1_555
C7B C8B 1_555 1_555

#END
