
#######################################################################
#
#                 Cambridge Crystallographic Data Centre
#                                CCDC 
#
#######################################################################
#
# If this CIF has been generated from an entry in the Cambridge 
# Structural Database, then it will include bibliographic, chemical, 
# crystal, experimental, refinement or atomic coordinate data resulting 
# from the CCDC's data processing and validation procedures.
#
#######################################################################

data_TARTOX
_symmetry_cell_setting           triclinic
_symmetry_space_group_name_H-M   'P -1'
_symmetry_Int_Tables_number      2
_space_group_name_Hall           '-P 1'
loop_
_symmetry_equiv_pos_site_id
_symmetry_equiv_pos_as_xyz
1 x,y,z
2 -x,-y,-z
_cell_length_a                   6.2191(12)
_cell_length_b                   8.5786(17)
_cell_length_c                   8.9113(18)
_cell_angle_alpha                110.89(3)
_cell_angle_beta                 110.11(3)
_cell_angle_gamma                91.64(3)
_cell_volume                     410.855
loop_
_atom_site_label
_atom_site_type_symbol
_atom_site_fract_x
_atom_site_fract_y
_atom_site_fract_z
H1 H -0.246(8) 0.654(7) 0.055(3)
H2 H -0.294(7) 0.729(6) 0.200(5)
H3 H 0.020(9) 0.677(8) 0.588(4)
H4 H -0.128(8) 0.747(7) 0.487(7)
Tb1 Tb 0.19019(3) 0.646400(19) 0.314490(19)
O1 O 0.5964(5) -0.4309(3) -0.2019(4)
O2 O 0.2031(5) -0.0576(4) -0.5638(4)
O3 O -0.1919(5) 0.6894(4) 0.1636(4)
O4 O 0.5675(5) -0.1938(3) -0.6052(4)
C1 C 0.4923(6) -0.1573(5) -0.1258(4)
O5 O -0.0288(6) 0.6825(5) 0.4910(4)
C2 C 0.5026(6) -0.3243(5) -0.2586(5)
C3 C 0.3529(6) -0.1436(5) -0.0292(4)
C4 C 0.6368(6) -0.0133(5) -0.0955(5)
H5 H 0.7289 -0.0224 -0.1603
C5 C 0.3931(6) 0.0381(5) -0.4883(5)
O6 O 0.4303(5) -0.3420(4) -0.4142(4)
C6 C 0.1855(6) -0.2931(5) -0.0615(5)
O7 O 0.0519(5) -0.3780(4) -0.2175(4)
O8 O 0.1833(5) -0.3244(4) 0.0631(4)
H1_2 H -0.246(8) -0.346(7) -0.945(3)
H2_2 H -0.294(7) -0.271(6) -0.800(5)
H3_2 H 0.020(9) -0.323(8) -0.412(4)
H4_2 H -0.128(8) -0.253(7) -0.513(7)
Tb1A Tb 0.80981(3) -0.646400(19) -0.314490(19)
Tb1_2 Tb 0.19019(3) -0.353600(19) -0.685510(19)
Tb1A_2 Tb -0.19019(3) -0.646400(19) -0.314490(19)
Tb1_3 Tb 0.19019(3) -0.353600(19) 0.314490(19)
Tb1A_3 Tb 0.80981(3) 0.353600(19) 0.685510(19)
Tb1_4 Tb 1.19019(3) 0.646400(19) 0.314490(19)
Tb1A_4 Tb 0.80981(3) 0.353600(19) -0.314490(19)
O1A O 0.4036(5) 0.4309(3) 0.2019(4)
O1A_2 O 0.4036(5) -0.5691(3) -0.7981(4)
O2_2 O 0.2031(5) 0.9424(4) 0.4362(4)
O2A O 0.7969(5) 0.0576(4) -0.4362(4)
O3_2 O -0.1919(5) -0.3106(4) -0.8364(4)
O4_2 O 0.5675(5) 0.8062(3) 0.3948(4)
O4A O 0.4325(5) 0.1938(3) -0.3948(4)
C1A C 0.5077(6) 0.1573(5) 0.1258(4)
O5_2 O -0.0288(6) -0.3175(5) -0.5090(4)
C2A C 0.4974(6) 0.3243(5) 0.2586(5)
C3A C 0.6471(6) 0.1436(5) 0.0292(4)
C4A C 0.3632(6) 0.0133(5) 0.0955(5)
H5A H 0.2711 0.0224 0.1603
C5A C 0.6069(6) -0.0381(5) -0.5117(5)
O6A O 0.5697(5) 0.3420(4) 0.4142(4)
O6_2 O 0.4303(5) 0.6580(4) 0.5858(4)
C6A C 0.8145(6) 0.2931(5) 0.0615(5)
O7A O 0.9481(5) 0.3780(4) 0.2175(4)
O7A_2 O -0.0519(5) 0.3780(4) 0.2175(4)
O7A_3 O -0.0519(5) -0.6220(4) -0.7825(4)
O8A O 0.8167(5) 0.3244(4) -0.0631(4)
O8_2 O 0.1833(5) 0.6756(4) 0.0631(4)
O8_3 O 0.1833(5) -0.3244(4) -0.9369(4)
loop_
_geom_bond_atom_site_label_1
_geom_bond_atom_site_label_2
_geom_bond_site_symmetry_1
_geom_bond_site_symmetry_2
H1 O3 1_555 1_555
H2 O3 1_555 1_555
H3 O5 1_555 1_555
H4 O5 1_555 1_555
Tb1 O3 1_555 1_555
O1 C2 1_555 1_555
O2 C5 1_555 1_555
O4 Tb1_2 1_555 1_555
C1 C2 1_555 1_555
O5 Tb1 1_555 1_555
C2 O6 1_555 1_555
C3 C1 1_555 1_555
C4 C1 1_555 1_555
H5 C4 1_555 1_555
C5 O4A 1_555 1_555
O6 Tb1_2 1_555 1_555
C6 C3 1_555 1_555
O7 C6 1_555 1_555
O8 C6 1_555 1_555
H1_2 O3_2 1_555 1_555
H2_2 O3_2 1_555 1_555
H3_2 O5_2 1_555 1_555
H4_2 O5_2 1_555 1_555
Tb1A O1 1_555 1_555
Tb1_2 O2 1_555 1_555
Tb1A_2 O7 1_555 1_555
Tb1_3 O8 1_555 1_555
Tb1A_3 O6A 1_555 1_555
Tb1_4 O7A 1_555 1_555
Tb1A_4 O2A 1_555 1_555
O1A Tb1 1_555 1_555
O1A_2 Tb1_2 1_555 1_555
O2_2 Tb1 1_555 1_555
O2A C5A 1_555 1_555
O3_2 Tb1_2 1_555 1_555
O4_2 Tb1 1_555 1_555
O4A Tb1A_4 1_555 1_555
C1A C2A 1_555 1_555
O5_2 Tb1_2 1_555 1_555
C2A O1A 1_555 1_555
C3A C4 1_555 1_555
C4A C3 1_555 1_555
H5A C4A 1_555 1_555
C5A O4 1_555 1_555
O6A C2A 1_555 1_555
O6_2 Tb1 1_555 1_555
C6A C3A 1_555 1_555
O7A C6A 1_555 1_555
O7A_2 Tb1 1_555 1_555
O7A_3 Tb1_2 1_555 1_555
O8A Tb1A_4 1_555 1_555
O8_2 Tb1 1_555 1_555
O8_3 Tb1_2 1_555 1_555
C5 C5A 1_555 1_555
C1A C3A 1_555 1_555
C1A C4A 1_555 1_555
C6A O8A 1_555 1_555

#END
