
#######################################################################
#
#                 Cambridge Crystallographic Data Centre
#                                CCDC 
#
#######################################################################
#
# If this CIF has been generated from an entry in the Cambridge 
# Structural Database, then it will include bibliographic, chemical, 
# crystal, experimental, refinement or atomic coordinate data resulting 
# from the CCDC's data processing and validation procedures.
#
#######################################################################

data_TARWEO
_symmetry_cell_setting           monoclinic
_symmetry_space_group_name_H-M   'C 2/c'
_symmetry_Int_Tables_number      15
_space_group_name_Hall           '-C 2yn'
loop_
_symmetry_equiv_pos_site_id
_symmetry_equiv_pos_as_xyz
1 x,y,z
2 -x,y,1/2-z
3 1/2+x,1/2+y,z
4 1/2-x,1/2+y,1/2-z
5 -x,-y,-z
6 x,-y,1/2+z
7 1/2-x,1/2-y,-z
8 1/2+x,1/2-y,1/2+z
_cell_length_a                   19.588(4)
_cell_length_b                   17.095(3)
_cell_length_c                   7.073(2)
_cell_angle_alpha                90
_cell_angle_beta                 97.44(3)
_cell_angle_gamma                90
_cell_volume                     2348.5
loop_
_atom_site_label
_atom_site_type_symbol
_atom_site_fract_x
_atom_site_fract_y
_atom_site_fract_z
Cd1 Cd 0.635080(14) -0.31250(2) 0.09475(5)
N1 N 0.9125(2) -0.4749(2) -0.4168(5)
N2 N 0.8096(2) -0.4271(2) -0.3249(5)
N3 N 0.8993(2) -0.3397(2) -0.3969(5)
N4 N 0.9967(2) -0.3968(2) -0.5042(5)
N5 N 1.0507(2) -0.2684(2) -0.5348(6)
N6 N 0.8317(2) -0.5623(2) -0.3512(5)
N7 N 0.7184(2) -0.6038(2) -0.2742(7)
N8 N 0.8061(2) -0.2918(2) -0.2742(5)
N9 N 0.6919(2) -0.3001(3) -0.1659(7)
C1 C 0.9356(2) -0.4014(2) -0.4395(5)
C2 C 0.8482(2) -0.4873(2) -0.3636(5)
C3 C 0.8384(2) -0.3555(2) -0.3348(5)
C4 C 1.0232(2) -0.3271(2) -0.5187(6)
C5 C 0.7707(2) -0.5804(2) -0.3103(7)
C6 C 0.7451(2) -0.3009(2) -0.2190(7)
O1 O 0.5711(2) -0.6763(2) -0.1491(6)
O2 O 0.5765(3) -0.5796(3) -0.5526(10)
H1 H 0.9381(2) -0.5142(2) -0.4357(5)
Cd1F Cd 0.864920(14) -0.18750(2) -0.09475(5)
Cd1G Cd 1.135080(14) -0.18750(2) -0.40525(5)
Cd1E Cd 0.635080(14) -0.68750(2) -0.40525(5)
N5B N 0.5507(2) -0.7684(2) -0.5348(6)
N8C N 0.6939(2) -0.7918(2) -0.2258(5)
N9E N 0.6919(2) -0.6999(3) -0.6659(7)
O3 O 0.6392(3) 0.5584(3) 0.5864(7)
loop_
_geom_bond_atom_site_label_1
_geom_bond_atom_site_label_2
_geom_bond_site_symmetry_1
_geom_bond_site_symmetry_2
Cd1 N9 1_555 1_555
N1 C1 1_555 1_555
N2 C2 1_555 1_555
N3 C1 1_555 1_555
N4 C1 1_555 1_555
N5 C4 1_555 1_555
N6 C2 1_555 1_555
N7 C5 1_555 1_555
N8 C3 1_555 1_555
N9 C6 1_555 1_555
C2 N1 1_555 1_555
C3 N2 1_555 1_555
C4 N4 1_555 1_555
C5 N6 1_555 1_555
C6 N8 1_555 1_555
O1 Cd1E 1_555 1_555
O2 Cd1E 1_555 1_555
H1 N1 1_555 1_555
Cd1F N8 1_555 1_555
Cd1G N5 1_555 1_555
Cd1E N7 1_555 1_555
N5B Cd1E 1_555 1_555
N8C Cd1E 1_555 1_555
N9E Cd1E 1_555 1_555
N3 C3 1_555 1_555

#END
