
#######################################################################
#
#                 Cambridge Crystallographic Data Centre
#                                CCDC 
#
#######################################################################
#
# If this CIF has been generated from an entry in the Cambridge 
# Structural Database, then it will include bibliographic, chemical, 
# crystal, experimental, refinement or atomic coordinate data resulting 
# from the CCDC's data processing and validation procedures.
#
#######################################################################

data_TARYOC
_symmetry_cell_setting           triclinic
_symmetry_space_group_name_H-M   'P -1'
_symmetry_Int_Tables_number      2
_space_group_name_Hall           '-P 1'
loop_
_symmetry_equiv_pos_site_id
_symmetry_equiv_pos_as_xyz
1 x,y,z
2 -x,-y,-z
_cell_length_a                   9.5508(19)
_cell_length_b                   10.961(2)
_cell_length_c                   11.675(2)
_cell_angle_alpha                110.926(3)
_cell_angle_beta                 93.927(3)
_cell_angle_gamma                115.196(3)
_cell_volume                     997.197
loop_
_atom_site_label
_atom_site_type_symbol
_atom_site_fract_x
_atom_site_fract_y
_atom_site_fract_z
Fe1 Fe 0.5000 0.5000 1.0000
N1 N 0.5097(3) 0.3246(2) 1.0538(2)
N2 N 0.7512(3) 0.6281(3) 1.0686(2)
N3 N 0.5241(3) 0.3946(3) 1.8061(2)
C1 C 0.6543(4) 0.2286(3) 1.1380(3)
H1 H 0.7522 0.2332 1.1610
C2 C 0.5167(3) 0.1256(3) 1.1519(2)
C3 C 0.6458(3) 0.3246(3) 1.0898(3)
H2 H 0.7400 0.3930 1.0820
C4 C 0.8871(3) 0.6834(3) 1.0904(3)
C5 C 0.4866(4) 0.0752(3) 1.3462(3)
H3 H 0.3776 0.0591 1.3360
H4 H 0.4964 0.0138 1.3856
C6 C 0.6475(4) 0.3691(3) 1.7860(3)
H5 H 0.7196 0.3880 1.8561
C7 C 0.5724(4) 0.2893(3) 1.5626(3)
C8 C 0.4209(4) 0.3629(4) 1.7025(3)
H6 H 0.3318 0.3761 1.7125
C9 C 0.3760(4) 0.2215(3) 1.0643(3)
H7 H 0.2789 0.2171 1.0385
C10 C 0.6743(4) 0.3166(4) 1.6685(3)
H8 H 0.7614 0.2997 1.6606
C11 C 0.6024(4) 0.2388(3) 1.4323(3)
H9 H 0.7112 0.2544 1.4418
H10 H 0.5925 0.2996 1.3924
C12 C 0.5208(4) 0.0276(3) 1.2140(3)
H11 H 0.6254 0.0332 1.2233
H12 H 0.4414 -0.0751 1.1600
C13 C 0.3751(4) 0.1224(3) 1.1111(3)
H13 H 0.2788 0.0528 1.1152
C14 C 0.4410(4) 0.3116(4) 1.5816(3)
H14 H 0.3667 0.2919 1.5127
S1 S 1.08103(12) 0.76225(14) 1.12229(19)
Fe1_2 Fe 0.5000 0.5000 2.0000
N1A N 0.4903(3) 0.6754(2) 0.9462(2)
N1A_2 N 0.4903(3) 0.6754(2) 1.9462(2)
N2A N 0.2488(3) 0.3719(3) 0.9314(2)
N3_2 N 0.5241(3) 0.3946(3) 0.8061(2)
N3A N 0.4759(3) 0.6054(3) 1.1939(2)
C1A C 0.3457(4) 0.7714(3) 1.8620(3)
H1A H 0.2478 0.7668 1.8390
C2A C 0.4833(3) 0.8744(3) 1.8481(2)
C3A C 0.3542(3) 0.6754(3) 1.9102(3)
H2A H 0.2600 0.6070 1.9180
C4A C 0.1129(3) 0.3166(3) 0.9096(3)
C5A C 0.5134(4) 0.9248(3) 1.6538(3)
H3A H 0.6224 0.9409 1.6640
H4A H 0.5036 0.9862 1.6144
C6A C 0.3525(4) 0.6309(3) 1.2140(3)
H5A H 0.2804 0.6120 1.1439
C7A C 0.4276(4) 0.7107(3) 1.4374(3)
C8A C 0.5791(4) 0.6371(4) 1.2975(3)
H6A H 0.6682 0.6239 1.2875
C9A C 0.6240(4) 0.7785(3) 1.9357(3)
H7A H 0.7211 0.7829 1.9615
C10A C 0.3257(4) 0.6834(4) 1.3315(3)
H8A H 0.2386 0.7003 1.3394
C11A C 0.3976(4) 0.7612(3) 1.5677(3)
H9A H 0.2888 0.7456 1.5582
H10A H 0.4075 0.7004 1.6076
C12A C 0.4792(4) 0.9724(3) 1.7860(3)
H11A H 0.3746 0.9668 1.7767
H12A H 0.5586 1.0751 1.8400
C13A C 0.6249(4) 0.8776(3) 1.8889(3)
H13A H 0.7212 0.9472 1.8848
C14A C 0.5590(4) 0.6884(4) 1.4184(3)
H14A H 0.6333 0.7081 1.4873
S1A S -0.08103(12) 0.23775(14) 0.87771(19)
C15 C 0.049(3) 0.317(4) 0.505(2)
H15 H 0.0671 0.3919 0.5828
C16 C -0.013(8) 0.104(7) 0.280(6)
H16 H -0.0351 0.0281 0.2007
C17 C -0.054(5) 0.069(5) 0.384(5)
H17 H -0.1085 -0.0293 0.3723
C18 C 0.092(5) 0.358(4) 0.408(5)
H18 H 0.1414 0.4562 0.4182
C19 C 0.053(5) 0.240(6) 0.297(3)
H19 H 0.0774 0.2598 0.2277
C20 C -0.014(4) 0.180(5) 0.495(5)
H20 H -0.0291 0.1616 0.5668
C21? C 0.078(3) 0.345(3) 0.457(5)
C22? C -0.069(5) 0.053(4) 0.326(5)
C23? C 0.001(6) 0.131(7) 0.260(5)
C24? C 0.075(3) 0.286(6) 0.336(6)
C25? C -0.067(3) 0.120(5) 0.462(4)
C26? C 0.016(3) 0.274(6) 0.533(3)
H21? H 0.1292 0.4483 0.4967
H22? H -0.1218 -0.0508 0.2826
H23? H -0.0005 0.0883 0.1752
H24? H 0.1254 0.3499 0.2992
H25? H -0.1210 0.0583 0.5001
H26? H 0.0270 0.3234 0.6191
loop_
_geom_bond_atom_site_label_1
_geom_bond_atom_site_label_2
_geom_bond_site_symmetry_1
_geom_bond_site_symmetry_2
Fe1 N1 1_555 1_555
N1 C3 1_555 1_555
N2 Fe1 1_555 1_555
N3 C6 1_555 1_555
C1 H1 1_555 1_555
C2 C1 1_555 1_555
C3 C1 1_555 1_555
H2 C3 1_555 1_555
C4 N2 1_555 1_555
C5 H3 1_555 1_555
H4 C5 1_555 1_555
C6 H5 1_555 1_555
C7 C10 1_555 1_555
C8 N3 1_555 1_555
H6 C8 1_555 1_555
C9 N1 1_555 1_555
H7 C9 1_555 1_555
C10 C6 1_555 1_555
H8 C10 1_555 1_555
C11 C5 1_555 1_555
H9 C11 1_555 1_555
H10 C11 1_555 1_555
C12 C2 1_555 1_555
H11 C12 1_555 1_555
H12 C12 1_555 1_555
C13 C2 1_555 1_555
H13 C13 1_555 1_555
C14 C7 1_555 1_555
H14 C14 1_555 1_555
S1 C4 1_555 1_555
C15 H15 1_555 1_555
C16 H16 1_555 1_555
C17 C16 1_555 1_555
H17 C17 1_555 1_555
C18 C15 1_555 1_555
H18 C18 1_555 1_555
C19 C16 1_555 1_555
H19 C19 1_555 1_555
C20 C15 1_555 1_555
H20 C20 1_555 1_555
Fe1_2 N3 1_555 1_555
N1A Fe1 1_555 1_555
N1A_2 Fe1_2 1_555 1_555
N2A Fe1 1_555 1_555
N3_2 Fe1 1_555 1_555
N3A Fe1 1_555 1_555
C1A H1A 1_555 1_555
C2A C1A 1_555 1_555
C3A N1A_2 1_555 1_555
H2A C3A 1_555 1_555
C4A N2A 1_555 1_555
C5A H3A 1_555 1_555
H4A C5A 1_555 1_555
C6A N3A 1_555 1_555
H5A C6A 1_555 1_555
C7A C10A 1_555 1_555
C8A N3A 1_555 1_555
H6A C8A 1_555 1_555
C9A N1A_2 1_555 1_555
H7A C9A 1_555 1_555
C10A C6A 1_555 1_555
H8A C10A 1_555 1_555
C11A C5A 1_555 1_555
H9A C11A 1_555 1_555
H10A C11A 1_555 1_555
C12A C2A 1_555 1_555
H11A C12A 1_555 1_555
H12A C12A 1_555 1_555
C13A C2A 1_555 1_555
H13A C13A 1_555 1_555
C14A C7A 1_555 1_555
H14A C14A 1_555 1_555
S1A C4A 1_555 1_555
C5 C12 1_555 1_555
C7 C11 1_555 1_555
C8 C14 1_555 1_555
C9 C13 1_555 1_555
C17 C20 1_555 1_555
C18 C19 1_555 1_555
C1A C3A 1_555 1_555
C5A C12A 1_555 1_555
C7A C11A 1_555 1_555
C8A C14A 1_555 1_555
C9A C13A 1_555 1_555

#END
