
#######################################################################
#
#                 Cambridge Crystallographic Data Centre
#                                CCDC 
#
#######################################################################
#
# If this CIF has been generated from an entry in the Cambridge 
# Structural Database, then it will include bibliographic, chemical, 
# crystal, experimental, refinement or atomic coordinate data resulting 
# from the CCDC's data processing and validation procedures.
#
#######################################################################

data_TASCIB
_symmetry_cell_setting           triclinic
_symmetry_space_group_name_H-M   'P -1'
_symmetry_Int_Tables_number      2
_space_group_name_Hall           '-P 1'
loop_
_symmetry_equiv_pos_site_id
_symmetry_equiv_pos_as_xyz
1 x,y,z
2 -x,-y,-z
_cell_length_a                   11.5345(6)
_cell_length_b                   13.2238(7)
_cell_length_c                   13.9066(8)
_cell_angle_alpha                98.180(1)
_cell_angle_beta                 94.401(1)
_cell_angle_gamma                115.153(1)
_cell_volume                     1878.08
loop_
_atom_site_label
_atom_site_type_symbol
_atom_site_fract_x
_atom_site_fract_y
_atom_site_fract_z
O1 O 0.9027(15) 0.9072(15) 0.1504(12)
H1 H 0.9304 0.8576 0.1549
H2 H 0.9218 0.9460 0.1053
O2 O 0.4118(16) 0.3434(14) 0.0494(12)
H3 H 0.4324 0.2948 0.0700
H4 H 0.3835 0.3337 -0.0111
O3 O 0.0626(13) 0.3194(12) 0.0225(11)
H5 H 0.1035 0.3007 -0.0194
H6 H -0.0174 0.2771 0.0215
O4 O 0.7817(12) 0.2135(11) 0.7314(10)
H7 H 0.7486 0.1480 0.6943
H8 H 0.8334 0.2271 0.7837
O5 O 0.3237(9) 0.6320(7) 0.1994(6)
Cu1 Cu 0.5000 1.0000 0.5000
W1 W 0.39357(4) 0.58996(3) 0.29043(3)
W2 W 0.79251(4) 0.71591(3) 0.70906(3)
W3 W 0.34434(4) 0.71517(3) 0.52910(3)
W4 W 0.66129(4) 0.71181(3) 0.45698(3)
W5 W 0.42145(4) 0.54275(3) 0.68709(3)
W6 W 0.61143(4) 0.85441(3) 0.68507(3)
Cu2 Cu 0.0000 0.5000 0.5000
Cu3 Cu 0.70846(13) 1.00998(12) 0.93312(10)
O6 O 0.7707(7) 0.8461(6) 0.6756(6)
O7 O 0.3151(7) 0.6292(6) 0.4018(6)
O8 O 0.5430(7) 0.7223(6) 0.3427(6)
O9 O 0.7092(6) 0.6520(6) 0.5526(6)
O10 O 0.5524(6) 0.7560(5) 0.5347(5)
O11 O 0.3765(7) 0.8472(6) 0.4938(6)
O12 O 0.2563(7) 0.4383(6) 0.2862(6)
O13 O 0.4282(7) 0.7865(6) 0.6648(5)
O14 O 0.5813(7) 0.6724(6) 0.7079(5)
O15 O 0.6454(8) 0.9801(6) 0.6428(6)
O16 O 0.6991(7) 0.6212(6) 0.3538(5)
O17 O 0.7920(7) 0.8406(6) 0.4602(7)
O18 O 0.1833(7) 0.6683(6) 0.5485(6)
O19 O 0.4833(7) 0.5216(6) 0.2244(6)
O20 O 0.4860(6) 0.5386(6) 0.4100(5)
O21 O 0.3451(8) 0.5768(7) 0.7811(6)
O22 O 0.3517(7) 0.5737(6) 0.5790(6)
O23 O 0.9452(7) 0.7526(7) 0.6737(7)
O24 O 0.5902(8) 0.9524(7) 0.4010(6)
H9 H 0.5558 0.8827 0.3856
O25 O 0.6316(8) 0.8947(7) 0.8123(7)
O26 O 0.8276(8) 0.7694(7) 0.8355(7)
N1 N 0.5811(9) 1.0714(9) 0.9068(7)
O27 O -0.0937(8) 0.5931(8) 0.4923(9)
H10 H -0.0533 0.6545 0.5301
O28 O 0.8809(9) 1.1389(9) 0.8761(8)
N2 N 0.7491(10) 1.1136(8) 1.0629(8)
O29 O 0.0316(10) 0.5082(10) 0.3623(8)
O30 O 0.8119(12) 0.9315(10) 0.9738(7)
H11 H 0.8155 0.8899 0.9256
N3 N 0.5017(11) 1.1897(10) 0.9601(9)
N4 N 0.7103(11) 1.2403(10) 1.1546(9)
C1 C 0.5848(11) 1.1467(10) 0.9803(9)
C2 C 0.6764(12) 1.1691(10) 1.0680(9)
C3 C 0.4924(12) 1.0653(12) 0.8326(10)
H12 H 0.4690 1.0194 0.7704
C4 C 0.8305(13) 1.1495(12) 1.1515(10)
H13 H 0.8919 1.1247 1.1694
C5 C 0.4446(13) 1.1397(13) 0.8674(10)
H14 H 0.3825 1.1533 0.8323
C6 C 0.8044(15) 1.2284(13) 1.2080(12)
H15 H 0.8443 1.2667 1.2716
O5A O 0.6763(9) 0.3680(7) 0.8006(6)
Cu1_2 Cu 0.5000 0.0000 0.5000
W1A W 0.60643(4) 0.41004(3) 0.70957(3)
W2A W 0.20749(4) 0.28409(3) 0.29094(3)
W3A W 0.65566(4) 0.28483(3) 0.47090(3)
W4A W 0.33871(4) 0.28819(3) 0.54302(3)
W5A W 0.57855(4) 0.45725(3) 0.31291(3)
W6A W 0.38857(4) 0.14559(3) 0.31493(3)
Cu2_2 Cu 1.0000 0.5000 0.5000
Cu3A Cu 0.29154(13) -0.00998(12) 0.06688(10)
O6A O 0.2293(7) 0.1539(6) 0.3244(6)
O7A O 0.6849(7) 0.3708(6) 0.5982(6)
O8A O 0.4570(7) 0.2777(6) 0.6573(6)
O9A O 0.2908(6) 0.3480(6) 0.4474(6)
O10A O 0.4476(6) 0.2440(5) 0.4653(5)
O11A O 0.6235(7) 0.1528(6) 0.5062(6)
O11A_2 O 0.6235(7) 1.1528(6) 0.5062(6)
O12A O 0.7437(7) 0.5617(6) 0.7138(6)
O13A O 0.5718(7) 0.2135(6) 0.3352(5)
O14A O 0.4187(7) 0.3276(6) 0.2921(5)
O15A O 0.3546(8) 0.0199(6) 0.3572(6)
O16A O 0.3009(7) 0.3788(6) 0.6462(5)
O17A O 0.2080(7) 0.1594(6) 0.5398(7)
O18A O 0.8167(7) 0.3317(6) 0.4515(6)
O18A_2 O -0.1833(7) 0.3317(6) 0.4515(6)
O19A O 0.5167(7) 0.4784(6) 0.7756(6)
O20A O 0.5140(6) 0.4614(6) 0.5900(5)
O21A O 0.6549(8) 0.4232(7) 0.2189(6)
O22A O 0.6483(7) 0.4263(6) 0.4210(6)
O23A O 0.0548(7) 0.2474(7) 0.3263(7)
O24A O 0.4098(8) 1.0476(7) 0.5990(6)
H9A H 0.4442 1.1173 0.6144
O25A O 0.3684(8) 0.1053(7) 0.1877(7)
O26A O 0.1724(8) 0.2306(7) 0.1645(7)
N1A N 0.4189(9) -0.0714(9) 0.0932(7)
O27A O 0.0937(8) 0.4069(8) 0.5077(9)
H10A H 0.0533 0.3455 0.4699
O28A O 0.1191(9) -0.1389(9) 0.1239(8)
N2A N 0.2509(10) -0.1136(8) -0.0629(8)
O29A O -0.0316(10) 0.4918(10) 0.6377(8)
O30A O 0.1881(12) 0.0685(10) 0.0262(7)
H11A H 0.1845 0.1101 0.0744
N3A N 0.4983(11) -0.1897(10) 0.0399(9)
N4A N 0.2897(11) -0.2403(10) -0.1546(9)
C1A C 0.4152(11) -0.1467(10) 0.0197(9)
C2A C 0.3236(12) -0.1691(10) -0.0680(9)
C3A C 0.5076(12) -0.0653(12) 0.1674(10)
H12A H 0.5310 -0.0194 0.2296
C4A C 0.1695(13) -0.1495(12) -0.1515(10)
H13A H 0.1081 -0.1247 -0.1694
C5A C 0.5554(13) -0.1397(13) 0.1326(10)
H14A H 0.6175 -0.1533 0.1677
C6A C 0.1956(15) -0.2284(13) -0.2080(12)
H15A H 0.1557 -0.2667 -0.2716
O31 O 0.2843(17) 0.3253(16) 0.8546(14)
H16 H 0.3312 0.2901 0.8532
H17 H 0.2196 0.3047 0.8853
O32 O 0.9427(18) 0.6541(17) 0.2855(15)
H18 H 0.9480 0.6029 0.3136
H19 H 0.9811 0.6713 0.2362
O33 O 0.8459(18) 0.1029(16) 0.4331(16)
H20 H 0.8527 0.0752 0.4836
H21 H 0.8603 0.0761 0.3785
O34 O -0.006(3) 0.494(3) 0.122(3)
H22 H -0.0060 0.4367 0.1430
H23 H 0.0314 0.5138 0.0724
O35 O -0.008(2) 0.992(2) 0.3527(19)
H24 H 0.0051 0.9331 0.3514
H25 H 0.0468 1.0499 0.3338
O36 O 0.283(3) 0.540(3) -0.007(2)
H26 H 0.3030 0.4852 -0.0092
H27 H 0.2442 0.5548 0.0382
loop_
_geom_bond_atom_site_label_1
_geom_bond_atom_site_label_2
_geom_bond_site_symmetry_1
_geom_bond_site_symmetry_2
O1 H1 1_555 1_555
H2 O1 1_555 1_555
O2 H3 1_555 1_555
H4 O2 1_555 1_555
O3 H5 1_555 1_555
H6 O3 1_555 1_555
O4 H7 1_555 1_555
H8 O4 1_555 1_555
O5 W1 1_555 1_555
Cu1 O11 1_555 1_555
W1 O7 1_555 1_555
W2 O6 1_555 1_555
W3 O7 1_555 1_555
W4 O8 1_555 1_555
W5 O14 1_555 1_555
W6 O6 1_555 1_555
Cu2 O18 1_555 1_555
Cu3 O25 1_555 1_555
O8 W1 1_555 1_555
O9 W2 1_555 1_555
O10 W3 1_555 1_555
O11 W3 1_555 1_555
O12 W1 1_555 1_555
O13 W3 1_555 1_555
O14 W2 1_555 1_555
O15 W6 1_555 1_555
O16 W4 1_555 1_555
O17 W4 1_555 1_555
O18 W3 1_555 1_555
O19 W1 1_555 1_555
O20 W1 1_555 1_555
O21 W5 1_555 1_555
O22 W3 1_555 1_555
O23 W2 1_555 1_555
O24 Cu1 1_555 1_555
H9 O24 1_555 1_555
O25 W6 1_555 1_555
O26 W2 1_555 1_555
N1 Cu3 1_555 1_555
O27 Cu2 1_555 1_555
H10 O27 1_555 1_555
O28 Cu3 1_555 1_555
N2 Cu3 1_555 1_555
O29 Cu2 1_555 1_555
O30 Cu3 1_555 1_555
H11 O30 1_555 1_555
N3 C1 1_555 1_555
N4 C2 1_555 1_555
C1 N1 1_555 1_555
C2 N2 1_555 1_555
C3 N1 1_555 1_555
H12 C3 1_555 1_555
C4 N2 1_555 1_555
H13 C4 1_555 1_555
C5 N3 1_555 1_555
H14 C5 1_555 1_555
C6 N4 1_555 1_555
H15 C6 1_555 1_555
O31 H16 1_555 1_555
H17 O31 1_555 1_555
O32 H18 1_555 1_555
H19 O32 1_555 1_555
O33 H20 1_555 1_555
H21 O33 1_555 1_555
O34 H22 1_555 1_555
H23 O34 1_555 1_555
O35 H24 1_555 1_555
H25 O35 1_555 1_555
O36 H26 1_555 1_555
H27 O36 1_555 1_555
O5A W1A 1_555 1_555
Cu1_2 O11A 1_555 1_555
W1A O7A 1_555 1_555
W2A O12 1_555 1_555
W3A O7A 1_555 1_555
W4A O8A 1_555 1_555
W5A O16 1_555 1_555
W6A O6A 1_555 1_555
Cu2_2 O18A 1_555 1_555
Cu3A O25A 1_555 1_555
O6A W2A 1_555 1_555
O8A W1A 1_555 1_555
O9A W2A 1_555 1_555
O10A W3A 1_555 1_555
O11A W3A 1_555 1_555
O11A_2 Cu1 1_555 1_555
O12A W2 1_555 1_555
O13A W3A 1_555 1_555
O14A W2A 1_555 1_555
O15A W6A 1_555 1_555
O16A W5 1_555 1_555
O17A W4A 1_555 1_555
O18A W3A 1_555 1_555
O18A_2 Cu2 1_555 1_555
O19A W5 1_555 1_555
O20A W5 1_555 1_555
O21A W5A 1_555 1_555
O22A W3A 1_555 1_555
O23A W2A 1_555 1_555
O24A Cu1 1_555 1_555
H9A O24A 1_555 1_555
O25A W6A 1_555 1_555
O26A W2A 1_555 1_555
N1A Cu3A 1_555 1_555
O27A Cu2 1_555 1_555
H10A O27A 1_555 1_555
O28A Cu3A 1_555 1_555
N2A Cu3A 1_555 1_555
O29A Cu2 1_555 1_555
O30A Cu3A 1_555 1_555
H11A O30A 1_555 1_555
N3A C1A 1_555 1_555
N4A C2A 1_555 1_555
C1A N1A 1_555 1_555
C2A N2A 1_555 1_555
C3A N1A 1_555 1_555
H12A C3A 1_555 1_555
C4A N2A 1_555 1_555
H13A C4A 1_555 1_555
C5A N3A 1_555 1_555
H14A C5A 1_555 1_555
C6A N4A 1_555 1_555
H15A C6A 1_555 1_555
W4 O9 1_555 1_555
W4 O10 1_555 1_555
W4 O20 1_555 1_555
W5 O22 1_555 1_555
W6 O10 1_555 1_555
W6 O13 1_555 1_555
W6 O14 1_555 1_555
O19 W5A 1_555 1_555
O20 W5A 1_555 1_555
C1 C2 1_555 1_555
C3 C5 1_555 1_555
C4 C6 1_555 1_555
W1A O12A 1_555 1_555
W1A O19A 1_555 1_555
W1A O20A 1_555 1_555
W4A O9A 1_555 1_555
W4A O10A 1_555 1_555
W4A O16A 1_555 1_555
W4A O20A 1_555 1_555
W5A O14A 1_555 1_555
W5A O22A 1_555 1_555
W6A O10A 1_555 1_555
W6A O13A 1_555 1_555
W6A O14A 1_555 1_555
C1A C2A 1_555 1_555
C3A C5A 1_555 1_555
C4A C6A 1_555 1_555

#END
