
#######################################################################
#
#                 Cambridge Crystallographic Data Centre
#                                CCDC 
#
#######################################################################
#
# If this CIF has been generated from an entry in the Cambridge 
# Structural Database, then it will include bibliographic, chemical, 
# crystal, experimental, refinement or atomic coordinate data resulting 
# from the CCDC's data processing and validation procedures.
#
#######################################################################

data_TASCOH
_symmetry_cell_setting           monoclinic
_symmetry_space_group_name_H-M   'P 21/m'
_symmetry_Int_Tables_number      11
_space_group_name_Hall           '-P 2yb'
loop_
_symmetry_equiv_pos_site_id
_symmetry_equiv_pos_as_xyz
1 x,y,z
2 -x,1/2+y,-z
3 -x,-y,-z
4 x,1/2-y,z
_cell_length_a                   11.7985(8)
_cell_length_b                   23.3231(17)
_cell_length_c                   14.2971(10)
_cell_angle_alpha                90
_cell_angle_beta                 110.222(1)
_cell_angle_gamma                90
_cell_volume                     3691.74
loop_
_atom_site_label
_atom_site_type_symbol
_atom_site_fract_x
_atom_site_fract_y
_atom_site_fract_z
O1 O -0.1792(9) 0.4057(4) -0.4125(7)
O2 O -0.3739(9) 0.4921(4) -0.3541(7)
W1 W -0.11816(5) 0.389626(19) -0.28622(3)
W2 W 0.19418(4) 0.384790(19) 0.13336(4)
W3 W -0.09337(4) 0.388421(18) -0.02127(3)
W4 W 0.16272(4) 0.394726(19) -0.13328(4)
W5 W -0.00354(4) 0.465990(18) 0.19185(3)
W6 W -0.31265(4) 0.47232(2) -0.22677(4)
Mn1 Mn 0.0365(3) 0.2500 -0.2172(2)
O3 O -0.0178(7) 0.3867(3) -0.1191(6)
O4 O -0.0980(7) 0.4023(3) 0.1128(6)
O5 O 0.0534(7) 0.4518(3) 0.0589(6)
O6 O 0.1301(8) 0.4031(3) 0.2303(6)
O7 O 0.1134(7) 0.4826(3) -0.1191(6)
O8 O -0.2608(8) 0.3949(3) -0.2531(6)
O9 O -0.1268(7) 0.4808(3) -0.2365(6)
O10 O -0.1950(7) 0.4476(3) -0.0754(6)
O11 O 0.2281(7) 0.3947(3) 0.0059(6)
O12 O 0.0603(8) 0.3419(3) 0.0611(6)
O13 O -0.0449(8) 0.4559(4) 0.2952(6)
O14 O -0.1871(8) 0.3299(3) -0.0497(7)
O15 O 0.1623(8) 0.3198(4) -0.1532(7)
O16 O -0.4410(8) 0.4495(4) -0.2040(7)
O17 O 0.2950(8) 0.4544(3) 0.1723(7)
O18 O 0.0449(8) 0.4084(4) -0.2682(6)
O19 O 0.2905(8) 0.4159(4) -0.1586(7)
O20 O -0.1068(8) 0.3146(3) -0.2836(7)
O21 O 0.0145(17) 0.2500 -0.0725(12)
H4 H 0.0014 0.2172 -0.0582
O22 O 0.3026(9) 0.3337(4) 0.1912(7)
N2 N 0.089(2) 0.2500 -0.3474(16)
C7 C 0.111(2) 0.2952(8) -0.3953(15)
H10 H 0.1025 0.3331 -0.3788
N7 N 0.149(2) 0.2791(9) -0.4712(14)
O1B O 0.1792(9) 0.5943(4) 0.4125(7)
O2B O 0.3739(9) 0.5079(4) 0.3541(7)
W1B W 0.11816(5) 0.610374(19) 0.28622(3)
W2B W -0.19418(4) 0.615210(19) -0.13336(4)
W3B W 0.09337(4) 0.611579(18) 0.02127(3)
W4B W -0.16272(4) 0.605274(19) 0.13328(4)
W5B W 0.00354(4) 0.534010(18) -0.19185(3)
W6B W 0.31265(4) 0.52768(2) 0.22677(4)
Mn1A Mn -0.0365(3) 0.7500 0.2172(2)
O3B O 0.0178(7) 0.6133(3) 0.1191(6)
O4B O 0.0980(7) 0.5977(3) -0.1128(6)
O5B O -0.0534(7) 0.5482(3) -0.0589(6)
O6B O -0.1301(8) 0.5969(3) -0.2303(6)
O7B O -0.1134(7) 0.5174(3) 0.1191(6)
O8B O 0.2608(8) 0.6051(3) 0.2531(6)
O9B O 0.1268(7) 0.5192(3) 0.2365(6)
O10B O 0.1950(7) 0.5524(3) 0.0754(6)
O11B O -0.2281(7) 0.6053(3) -0.0059(6)
O12B O -0.0603(8) 0.6581(3) -0.0611(6)
O13B O 0.0449(8) 0.5441(4) -0.2952(6)
O14B O 0.1871(8) 0.6701(3) 0.0497(7)
O15B O -0.1623(8) 0.6802(4) 0.1532(7)
O15C O 0.1623(8) 0.1802(4) -0.1532(7)
O16B O 0.4410(8) 0.5505(4) 0.2040(7)
O17B O -0.2950(8) 0.5456(3) -0.1723(7)
O18B O -0.0449(8) 0.5916(4) 0.2682(6)
O19B O -0.2905(8) 0.5841(4) 0.1586(7)
O20B O 0.1068(8) 0.6854(3) 0.2836(7)
O20C O -0.1068(8) 0.1854(3) -0.2836(7)
H4C H 0.0014 0.2828 -0.0582
O22B O -0.3026(9) 0.6663(4) -0.1912(7)
C7C C 0.111(2) 0.2048(8) -0.3953(15)
H10C H 0.1025 0.1669 -0.3788
N7C N 0.149(2) 0.2209(9) -0.4712(14)
C2 C 0.2781(13) 0.4795(6) 0.5032(11)
H5 H 0.2999 0.4916 0.4499
C5 C 0.1615(14) 0.4702(7) 0.4991(11)
H8 H 0.0907 0.4743 0.4446
C6 C 0.2924(16) 0.4536(7) 0.6510(11)
H9 H 0.3255 0.4448 0.7185
N4 N 0.1738(18) 0.4533(7) 0.5950(13)
N6 N 0.3533(17) 0.4689(9) 0.5920(19)
C3 C 0.5262(13) 0.5760(6) 0.9401(10)
H6 H 0.6083 0.5839 0.9596
C4 C 0.3523(13) 0.5570(7) 0.9461(12)
H7 H 0.2906 0.5488 0.9705
N3 N 0.4652(15) 0.5660(7) 1.0013(13)
N5 N 0.3381(16) 0.5613(9) 0.8480(19)
C8 C 0.4485(15) 0.5729(8) 0.8447(13)
H11 H 0.4680 0.5779 0.7875
N8 N 0.0814(17) 0.7963(5) 0.7956(11)
C10 C 0.093(3) 0.7783(8) 0.7085(17)
H14 H 0.0992 0.8018 0.6580
C11 C 0.077(3) 0.7500 0.847(2)
H15 H 0.0706 0.7500 0.9102
N8C N 0.0814(17) 0.7037(5) 0.7956(11)
C10C C 0.093(3) 0.7217(8) 0.7085(17)
H14C H 0.0992 0.6982 0.6580
O23 O 0.1748(18) 0.6089(8) 0.6042(15)
O24 O 0.274(3) 0.3519(10) 0.4142(16)
C1 C 0.489(3) 0.7792(14) 0.351(3)
H1 H 0.5473 0.8034 0.3934
N1 N 0.382(2) 0.7951(10) 0.2730(19)
C9 C 0.303(4) 0.7500 0.229(3)
C1C C 0.489(3) 0.7208(14) 0.351(3)
H1C H 0.5473 0.6966 0.3934
N1C N 0.382(2) 0.7049(10) 0.2730(19)
H2? H 0.3419 0.8208 0.2971
H3? H 0.4024 0.8128 0.2252
H12? H 0.2318 0.7500 0.2486
H13? H 0.2790 0.7500 0.1572
loop_
_geom_bond_atom_site_label_1
_geom_bond_atom_site_label_2
_geom_bond_site_symmetry_1
_geom_bond_site_symmetry_2
C1 H1 1_555 1_555
N1 C1 1_555 1_555
O1 W1 1_555 1_555
O2 W6 1_555 1_555
W1 O3 1_555 1_555
W2 O5 1_555 1_555
W3 O3 1_555 1_555
W4 O3 1_555 1_555
W5 O4 1_555 1_555
W6 O8 1_555 1_555
Mn1 O15 1_555 1_555
O4 W3 1_555 1_555
O5 W3 1_555 1_555
O6 W2 1_555 1_555
O7 W4 1_555 1_555
O8 W1 1_555 1_555
O9 W1 1_555 1_555
O10 W3 1_555 1_555
O11 W2 1_555 1_555
O12 W2 1_555 1_555
O13 W5 1_555 1_555
O14 W3 1_555 1_555
O15 W4 1_555 1_555
O16 W6 1_555 1_555
O17 W2 1_555 1_555
O18 W1 1_555 1_555
O19 W4 1_555 1_555
O20 W1 1_555 1_555
O21 Mn1 1_555 1_555
H4 O21 1_555 1_555
O22 W2 1_555 1_555
C2 H5 1_555 1_555
C3 H6 1_555 1_555
C4 H7 1_555 1_555
N2 Mn1 1_555 1_555
C5 C2 1_555 1_555
H8 C5 1_555 1_555
C6 H9 1_555 1_555
N3 C3 1_555 1_555
N4 C5 1_555 1_555
N5 C4 1_555 1_555
N6 C2 1_555 1_555
C7 N2 1_555 1_555
H10 C7 1_555 1_555
N7 C7 1_555 1_555
C8 C3 1_555 1_555
H11 C8 1_555 1_555
N8 C10 1_555 1_555
C9 N1 1_555 1_555
C10 H14 1_555 1_555
C11 N8 1_555 1_555
H15 C11 1_555 1_555
C1C C1 1_555 1_555
H1C C1C 1_555 1_555
N1C C9 1_555 1_555
O1B W1B 1_555 1_555
O2B W6B 1_555 1_555
W1B O3B 1_555 1_555
W2B O5B 1_555 1_555
W3B O3B 1_555 1_555
W4B O3B 1_555 1_555
W5B O7 1_555 1_555
W6B O17 1_555 1_555
Mn1A O15B 1_555 1_555
O4B W3B 1_555 1_555
O5B W3B 1_555 1_555
O6B W2B 1_555 1_555
O7B W5 1_555 1_555
O8B W1B 1_555 1_555
O9B W5 1_555 1_555
O10B W3B 1_555 1_555
O11B W2B 1_555 1_555
O12B W2B 1_555 1_555
O13B W5B 1_555 1_555
O14B W3B 1_555 1_555
O15B W4B 1_555 1_555
O15C Mn1 1_555 1_555
O16B W6B 1_555 1_555
O17B W6 1_555 1_555
O18B W1B 1_555 1_555
O19B W4B 1_555 1_555
O20B W1B 1_555 1_555
O20C Mn1 1_555 1_555
H4C O21 1_555 1_555
O22B W2B 1_555 1_555
C7C N2 1_555 1_555
H10C C7C 1_555 1_555
N7C N7 1_555 1_555
N8C C11 1_555 1_555
C10C C10 1_555 1_555
H14C C10C 1_555 1_555
W3 O12 1_555 1_555
W4 O11 1_555 1_555
W4 O18 1_555 1_555
W5 O5 1_555 1_555
W5 O6 1_555 1_555
W6 O9 1_555 1_555
W6 O10 1_555 1_555
Mn1 O20 1_555 1_555
O9 W5B 1_555 1_555
C4 N3 1_555 1_555
C6 N4 1_555 1_555
C6 N6 1_555 1_555
N5 C8 1_555 1_555
C1C N1C 1_555 1_555
W1B O9B 1_555 1_555
W2B O17B 1_555 1_555
W3B O12B 1_555 1_555
W4B O7B 1_555 1_555
W4B O11B 1_555 1_555
W4B O18B 1_555 1_555
W5B O4B 1_555 1_555
W5B O5B 1_555 1_555
W5B O6B 1_555 1_555
W6B O8B 1_555 1_555
W6B O9B 1_555 1_555
W6B O10B 1_555 1_555
Mn1A O20B 1_555 1_555
C7C N7C 1_555 1_555
N8C C10C 1_555 1_555

#END
