
#######################################################################
#
#                 Cambridge Crystallographic Data Centre
#                                CCDC 
#
#######################################################################
#
# If this CIF has been generated from an entry in the Cambridge 
# Structural Database, then it will include bibliographic, chemical, 
# crystal, experimental, refinement or atomic coordinate data resulting 
# from the CCDC's data processing and validation procedures.
#
#######################################################################

data_TASHEC
_symmetry_cell_setting           triclinic
_symmetry_space_group_name_H-M   'P -1'
_symmetry_Int_Tables_number      2
_space_group_name_Hall           '-P 1'
loop_
_symmetry_equiv_pos_site_id
_symmetry_equiv_pos_as_xyz
1 x,y,z
2 -x,-y,-z
_cell_length_a                   7.5499(4)
_cell_length_b                   11.3438(6)
_cell_length_c                   12.5741(7)
_cell_angle_alpha                72.138(4)
_cell_angle_beta                 80.148(4)
_cell_angle_gamma                74.945(4)
_cell_volume                     984.904
loop_
_atom_site_label
_atom_site_type_symbol
_atom_site_fract_x
_atom_site_fract_y
_atom_site_fract_z
Ag1 Ag 0.50346(6) 0.31554(4) 0.46955(4)
N14 N 0.7344(6) 0.3657(5) 0.5139(4)
H1 H 0.7348 0.4493 0.4770
H2 H 0.7203 0.3572 0.5899
N15 N 1.2534(6) 0.2683(4) 0.4459(4)
H3 H 1.2446 0.2892 0.3699
H4 H 1.2664 0.1818 0.4732
C10 C 0.9128(7) 0.2844(5) 0.4844(5)
H5 H 0.9190 0.2834 0.4054
H6 H 0.9190 0.1963 0.5324
C11 C 1.0782(7) 0.3295(6) 0.4986(5)
H7 H 1.0575 0.4226 0.4653
H8 H 1.0883 0.3118 0.5798
Ag1_2 Ag 1.50346(6) 0.31554(4) 0.46955(4)
N15_2 N 0.2534(6) 0.2683(4) 0.4459(4)
H3_2 H 0.2446 0.2892 0.3699
H4_2 H 0.2664 0.1818 0.4732
Ag2 Ag 1.30830(6) 0.20577(4) 0.16415(4)
Ag3 Ag 0.91121(7) 0.88907(4) -0.03071(4)
N1 N 1.3341(6) 0.7151(4) -0.2707(4)
N2 N 1.5275(6) 0.5175(4) -0.2483(4)
N3 N 1.4953(6) 0.3540(4) -0.0748(4)
N4 N 1.2787(6) 0.3976(4) 0.0685(4)
N5 N 1.0825(6) 0.6071(4) 0.0466(4)
N6 N 1.1097(7) 0.7618(4) -0.1187(4)
N7 N 1.3045(6) 0.5588(4) -0.0988(4)
N8 N 1.1177(7) 0.9093(4) -0.2888(4)
N9 N 1.2469(8) 0.9845(5) -0.4875(4)
N10 N 1.7141(6) 0.3207(4) -0.2260(4)
N11 N 1.8412(8) 0.1057(5) -0.1104(5)
N12 N 1.0599(6) 0.4413(5) 0.2092(4)
N13 N 0.8022(7) 0.5875(5) 0.2889(4)
C1 C 1.1910(8) 0.7930(5) -0.2277(5)
C2 C 1.3922(7) 0.5976(5) -0.2091(4)
C3 C 1.5754(7) 0.3996(5) -0.1822(4)
C4 C 1.3620(7) 0.4334(5) -0.0356(4)
C5 C 1.1404(7) 0.4850(5) 0.1064(4)
C6 C 1.1649(8) 0.6438(5) -0.0565(5)
C7 C 1.1921(9) 0.9433(5) -0.3941(5)
C8 C 1.7747(8) 0.2074(5) -0.1595(5)
C9 C 0.9257(8) 0.5246(6) 0.2473(5)
N16 N 1.3308(7) 0.0136(5) 0.2659(4)
H9 H 1.2798 -0.0290 0.2317
H10 H 1.2635 0.0138 0.3342
N17 N 1.6671(16) -0.1296(9) 0.1110(7)
H11 H 1.6768 -0.2134 0.1510
H12 H 1.5570 -0.1013 0.0796
C12 C 1.5209(12) -0.0552(17) 0.2851(9)
H13 H 1.5614 -0.0216 0.3386
H14 H 1.5178 -0.1451 0.3235
C13 C 1.6711(15) -0.0543(10) 0.1864(8)
H15 H 1.7923 -0.0849 0.2171
H16 H 1.6637 0.0349 0.1409
Ag3_2 Ag 1.91121(7) -0.11093(4) -0.03071(4)
N11_2 N 0.8412(8) 1.1057(5) -0.1104(5)
N17_2 N 0.6671(16) 0.8704(9) 0.1110(7)
H11_2 H 0.6768 0.7866 0.1510
H12_2 H 0.5570 0.8987 0.0796
C14? C 1.491(2) 0.078(2) -0.2701(11)
C15? C 1.4149(16) 0.0512(12) -0.1463(11)
H17? H 1.4099 0.0625 -0.3159
H18? H 1.5078 0.1663 -0.3008
H19? H 1.4092 -0.0394 -0.1153
H20? H 1.4952 0.0704 -0.1023
H21? H 1.7502 0.0196 -0.2429
H22? H 1.7111 -0.0166 -0.3384
H23? H 1.1586 0.1146 -0.1833
H24? H 1.2381 0.2158 -0.1709
N18? N 1.6692(7) -0.0136(5) -0.2659(4)
N19? N 1.2296(17) 0.1324(12) -0.1402(12)
loop_
_geom_bond_atom_site_label_1
_geom_bond_atom_site_label_2
_geom_bond_site_symmetry_1
_geom_bond_site_symmetry_2
Ag1 N14 1_555 1_555
Ag2 N4 1_555 1_555
Ag3 N6 1_555 1_555
N1 C1 1_555 1_555
N2 C2 1_555 1_555
N3 C3 1_555 1_555
N4 C4 1_555 1_555
N5 C5 1_555 1_555
N6 C1 1_555 1_555
N7 C2 1_555 1_555
N8 C1 1_555 1_555
N9 C7 1_555 1_555
N10 C3 1_555 1_555
N11 C8 1_555 1_555
N12 C5 1_555 1_555
N13 C9 1_555 1_555
C2 N1 1_555 1_555
C3 N2 1_555 1_555
C4 N3 1_555 1_555
C5 N4 1_555 1_555
C6 N5 1_555 1_555
C7 N8 1_555 1_555
C8 N10 1_555 1_555
C9 N12 1_555 1_555
N14 H1 1_555 1_555
H2 N14 1_555 1_555
N15 H3 1_555 1_555
H4 N15 1_555 1_555
C10 N14 1_555 1_555
H5 C10 1_555 1_555
H6 C10 1_555 1_555
C11 N15 1_555 1_555
H7 C11 1_555 1_555
H8 C11 1_555 1_555
N16 Ag2 1_555 1_555
H9 N16 1_555 1_555
H10 N16 1_555 1_555
N17 H11 1_555 1_555
H12 N17 1_555 1_555
C12 N16 1_555 1_555
H13 C12 1_555 1_555
H14 C12 1_555 1_555
C13 N17 1_555 1_555
H15 C13 1_555 1_555
H16 C13 1_555 1_555
Ag1_2 N15 1_555 1_555
Ag3_2 N11 1_555 1_555
N11_2 Ag3 1_555 1_555
N15_2 Ag1 1_555 1_555
H3_2 N15_2 1_555 1_555
H4_2 N15_2 1_555 1_555
N17_2 Ag3 1_555 1_555
H11_2 N17_2 1_555 1_555
H12_2 N17_2 1_555 1_555
N6 C6 1_555 1_555
N7 C4 1_555 1_555
N7 C6 1_555 1_555
C10 C11 1_555 1_555
N17 Ag3_2 1_555 1_555
C12 C13 1_555 1_555

#END
