
#######################################################################
#
#                 Cambridge Crystallographic Data Centre
#                                CCDC 
#
#######################################################################
#
# If this CIF has been generated from an entry in the Cambridge 
# Structural Database, then it will include bibliographic, chemical, 
# crystal, experimental, refinement or atomic coordinate data resulting 
# from the CCDC's data processing and validation procedures.
#
#######################################################################

data_TASJUT
_symmetry_cell_setting           tetragonal
_symmetry_space_group_name_H-M   'I 41/a c d'
_symmetry_Int_Tables_number      142
_space_group_name_Hall           '-I 4bd 2c'
loop_
_symmetry_equiv_pos_site_id
_symmetry_equiv_pos_as_xyz
1 x,y,z
2 1/4-y,3/4+x,1/4+z
3 1/4+y,1/4-x,3/4+z
4 1/4+y,3/4+x,3/4-z
5 1/4-y,1/4-x,1/4-z
6 1/2+x,1/2+y,1/2+z
7 3/4-y,1/4+x,3/4+z
8 3/4+y,3/4-x,1/4+z
9 3/4+y,1/4+x,1/4-z
10 1/2-x,-y,1/2+z
11 1/2-x,y,-z
12 x,-y,1/2-z
13 -x,1/2-y,z
14 -x,1/2+y,1/2-z
15 1/2+x,1/2-y,-z
16 3/4-y,3/4-x,3/4-z
17 -x,-y,-z
18 3/4+y,1/4-x,3/4-z
19 3/4-y,3/4+x,1/4-z
20 3/4-y,1/4-x,1/4+z
21 3/4+y,3/4+x,3/4+z
22 1/2-x,1/2-y,1/2-z
23 1/4+y,3/4-x,1/4-z
24 1/4-y,1/4+x,3/4-z
25 1/4-y,3/4-x,3/4+z
26 1/2+x,y,1/2-z
27 1/2+x,-y,z
28 -x,y,1/2+z
29 x,1/2+y,-z
30 x,1/2-y,1/2+z
31 1/2-x,1/2+y,z
32 1/4+y,1/4+x,1/4+z
_cell_length_a                   24.1253(16)
_cell_length_b                   24.1253(16)
_cell_length_c                   23.745(2)
_cell_angle_alpha                90
_cell_angle_beta                 90
_cell_angle_gamma                90
_cell_volume                     13820.3
loop_
_atom_site_label
_atom_site_type_symbol
_atom_site_fract_x
_atom_site_fract_y
_atom_site_fract_z
O4 O 0.5000 0.2500 0.1250
O5 O 0.5000 0.2500 0.8750
O6 O 0.3939(17) 0.2823(15) 0.8567(17)
Ag1 Ag 0.32851(4) 0.0000 0.7500
Ag2 Ag 0.5000 0.2500 0.74481(6)
N2 N 0.3888(3) 0.0770(3) 0.7457(3)
N3 N 0.4530(3) 0.1703(3) 0.7468(3)
N4 N 0.2972(2) 0.0688(2) 0.8093(3)
N5 N 0.2438(2) 0.0681(3) 0.8350(3)
C1 C 0.4352(4) 0.0814(4) 0.7161(4)
H1 H 0.4464 0.0513 0.6944
C2 C 0.4672(4) 0.1279(4) 0.7161(4)
H2 H 0.4991 0.1295 0.6941
C3 C 0.4067(3) 0.1659(3) 0.7777(4)
H3 H 0.3969 0.1951 0.8014
C4 C 0.3736(3) 0.1205(3) 0.7758(3)
C5 C 0.3205(3) 0.1166(3) 0.8074(3)
C6 C 0.2990(4) 0.1675(3) 0.8396(4)
H4 H 0.2645 0.1585 0.8577
H5 H 0.2933 0.1976 0.8138
H6 H 0.3256 0.1783 0.8676
C7 C 0.2344(3) 0.0274(3) 0.8679(3)
C8 C 0.1802(3) 0.0232(3) 0.8930(3)
C9 C 0.1394(3) 0.0633(4) 0.8778(4)
H7 H 0.1482 0.0920 0.8532
C10 C 0.0874(4) 0.0591(5) 0.8999(5)
H8 H 0.0607 0.0853 0.8906
C11 C 0.0740(4) 0.0157(5) 0.9364(5)
H9 H 0.0377 0.0119 0.9492
C12 C 0.1139(4) -0.0216(5) 0.9536(4)
H10 H 0.1052 -0.0488 0.9798
C13 C 0.1675(4) -0.0184(4) 0.9316(4)
H11 H 0.1945 -0.0437 0.9426
N2C N 0.3270(3) 0.1388(3) 1.0043(3)
N3C N 0.4203(3) 0.2030(3) 1.0032(3)
N4C N 0.3188(2) 0.0472(2) 0.9407(3)
N5C N 0.3181(3) -0.0062(2) 0.9150(3)
C1C C 0.3314(4) 0.1852(4) 1.0339(4)
H1C H 0.3013 0.1964 1.0556
C2C C 0.3779(4) 0.2172(4) 1.0339(4)
H2C H 0.3795 0.2491 1.0559
C3C C 0.4159(3) 0.1567(3) 0.9723(4)
H3C H 0.4451 0.1469 0.9486
C4C C 0.3705(3) 0.1236(3) 0.9742(3)
C5C C 0.3666(3) 0.0705(3) 0.9426(3)
C6C C 0.4175(3) 0.0490(4) 0.9104(4)
H4C H 0.4085 0.0145 0.8923
H5C H 0.4476 0.0433 0.9362
H6C H 0.4283 0.0756 0.8824
C7C C 0.2774(3) -0.0156(3) 0.8821(3)
C8C C 0.2732(3) -0.0698(3) 0.8570(3)
C9C C 0.3133(4) -0.1106(3) 0.8722(4)
H7C H 0.3420 -0.1018 0.8968
C10C C 0.3091(5) -0.1626(4) 0.8501(5)
H8C H 0.3353 -0.1893 0.8594
C11C C 0.2657(5) -0.1760(4) 0.8136(5)
H9C H 0.2619 -0.2123 0.8008
C12C C 0.2284(5) -0.1361(4) 0.7964(4)
H10C H 0.2012 -0.1448 0.7702
C13C C 0.2316(4) -0.0825(4) 0.8184(4)
H11C H 0.2063 -0.0555 0.8074
Ag1A Ag 0.2500 0.07851(4) 1.0000
Ag2C Ag 0.5000 0.2500 1.00519(6)
N2K N 0.3888(3) -0.0770(3) 0.7543(3)
N3L N 0.5470(3) 0.3297(3) 0.7468(3)
N4K N 0.2972(2) -0.0688(2) 0.6907(3)
N1 N 0.5469(4) 0.13344(19) 0.0555(2)
O1 O 0.5606(7) 0.1765(4) 0.0777(6)
O2 O 0.5394(8) 0.1321(6) 0.0051(3)
O3 O 0.5518(8) 0.0908(4) 0.0817(6)
O7? O 0.5415(9) 0.0838(3) 0.0554(8)
O8? O 0.5696(7) 0.1565(6) 0.0164(6)
O9? O 0.5228(7) 0.1609(6) 0.0906(7)
C14? C 0.2500 0.3394(15) 1.0000
H12? H 0.2500 0.3791 1.0000
H13? H 0.2185 0.3269 0.9788
H14? H 0.2467 0.3269 1.0382
H15? H 0.2467 0.3044 1.0383
H16? H 0.2185 0.3044 0.9788
N6? N 0.3364(7) 0.3302(18) 0.9525(15)
C15? C 0.2500 0.2920(13) 1.0000
H17? H 0.2500 0.2522 1.0000
C16? C 0.2976(4) 0.3157(8) 0.9732(10)
loop_
_geom_bond_atom_site_label_1
_geom_bond_atom_site_label_2
_geom_bond_site_symmetry_1
_geom_bond_site_symmetry_2
N1 O1 1_555 1_555
O2 N1 1_555 1_555
O3 N1 1_555 1_555
Ag1 N2 1_555 1_555
Ag2 N3 1_555 1_555
N2 C1 1_555 1_555
N3 C2 1_555 1_555
N4 Ag1 1_555 1_555
N5 N4 1_555 1_555
C1 H1 1_555 1_555
C2 C1 1_555 1_555
H2 C2 1_555 1_555
C3 N3 1_555 1_555
H3 C3 1_555 1_555
C4 N2 1_555 1_555
C5 N4 1_555 1_555
C6 C5 1_555 1_555
H4 C6 1_555 1_555
H5 C6 1_555 1_555
H6 C6 1_555 1_555
C7 N5 1_555 1_555
C8 C7 1_555 1_555
C9 C8 1_555 1_555
H7 C9 1_555 1_555
C10 C9 1_555 1_555
H8 C10 1_555 1_555
C11 C10 1_555 1_555
H9 C11 1_555 1_555
C12 C11 1_555 1_555
H10 C12 1_555 1_555
C13 C8 1_555 1_555
H11 C13 1_555 1_555
N2C C1C 1_555 1_555
N3C C2C 1_555 1_555
N4C N5C 1_555 1_555
N5C C7C 1_555 1_555
C1C H1C 1_555 1_555
C2C C1C 1_555 1_555
H2C C2C 1_555 1_555
C3C N3C 1_555 1_555
H3C C3C 1_555 1_555
C4C N2C 1_555 1_555
C5C N4C 1_555 1_555
C6C C5C 1_555 1_555
H4C C6C 1_555 1_555
H5C C6C 1_555 1_555
H6C C6C 1_555 1_555
C7C C7 1_555 1_555
C8C C7C 1_555 1_555
C9C C8C 1_555 1_555
H7C C9C 1_555 1_555
C10C C9C 1_555 1_555
H8C C10C 1_555 1_555
C11C C10C 1_555 1_555
H9C C11C 1_555 1_555
C12C C11C 1_555 1_555
H10C C12C 1_555 1_555
C13C C8C 1_555 1_555
H11C C13C 1_555 1_555
Ag1A N2C 1_555 1_555
Ag2C N3C 1_555 1_555
N2K Ag1 1_555 1_555
N3L Ag2 1_555 1_555
N4K Ag1 1_555 1_555
C3 C4 1_555 1_555
C4 C5 1_555 1_555
C12 C13 1_555 1_555
N4C Ag1A 1_555 1_555
C3C C4C 1_555 1_555
C4C C5C 1_555 1_555
C12C C13C 1_555 1_555

#END
