
#######################################################################
#
#                 Cambridge Crystallographic Data Centre
#                                CCDC 
#
#######################################################################
#
# If this CIF has been generated from an entry in the Cambridge 
# Structural Database, then it will include bibliographic, chemical, 
# crystal, experimental, refinement or atomic coordinate data resulting 
# from the CCDC's data processing and validation procedures.
#
#######################################################################

data_TASKUV
_symmetry_cell_setting           monoclinic
_symmetry_space_group_name_H-M   'P 21/c'
_symmetry_Int_Tables_number      14
_space_group_name_Hall           '-P 2ybc'
loop_
_symmetry_equiv_pos_site_id
_symmetry_equiv_pos_as_xyz
1 x,y,z
2 -x,1/2+y,1/2-z
3 -x,-y,-z
4 x,1/2-y,1/2+z
_cell_length_a                   5.5730(11)
_cell_length_b                   17.435(4)
_cell_length_c                   7.8510(16)
_cell_angle_alpha                90
_cell_angle_beta                 108.43(3)
_cell_angle_gamma                90
_cell_volume                     723.719
loop_
_atom_site_label
_atom_site_type_symbol
_atom_site_fract_x
_atom_site_fract_y
_atom_site_fract_z
Ag1 Ag 0.10147(5) 0.315870(13) 0.44264(3)
S1 S -0.26090(14) 0.15690(4) 0.24468(10)
O1 O -0.1068(5) 0.13426(15) 0.1339(3)
O2 O -0.5105(4) 0.12153(14) 0.1892(3)
O3 O -0.2733(5) 0.23991(14) 0.2637(3)
C1 C -0.1006(6) 0.12006(17) 0.4626(4)
N1 N 0.2804(5) 0.19413(15) 0.4799(4)
H1 H 0.2820 0.1761 0.3702
H2 H 0.4453 0.1975 0.5535
C2 C 0.1491(6) 0.14119(17) 0.5548(4)
C3 C 0.2655(6) 0.11026(19) 0.7263(4)
H3 H 0.4333 0.1251 0.7922
C4 C -0.2286(6) 0.06797(17) 0.5387(4)
H4 H -0.3974 0.0536 0.4741
C5 C -0.1113(6) 0.03704(18) 0.7078(4)
H5 H -0.1995 0.0020 0.7592
C6 C 0.1369(6) 0.05782(18) 0.8014(4)
H6 H 0.2191 0.0364 0.9163
Ag1C Ag 0.10147(5) 0.184130(13) -0.05736(3)
Ag1C_2 Ag -0.89853(5) 0.184130(13) -0.05736(3)
Ag1C_3 Ag 0.10147(5) 0.184130(13) 0.94264(3)
O1C O -0.1068(5) 0.36574(15) 0.6339(3)
O2C O 0.4895(4) 0.37847(14) 0.6892(3)
C3C C 0.2655(6) 0.38974(19) 0.2263(4)
H3C H 0.4333 0.3749 0.2922
C6C C 0.1369(6) 0.44218(18) 0.3014(4)
H6C H 0.2191 0.4636 0.4163
loop_
_geom_bond_atom_site_label_1
_geom_bond_atom_site_label_2
_geom_bond_site_symmetry_1
_geom_bond_site_symmetry_2
Ag1 O3 1_555 1_555
S1 O1 1_555 1_555
O1 Ag1C 1_555 1_555
O2 S1 1_555 1_555
O3 S1 1_555 1_555
C1 S1 1_555 1_555
N1 Ag1 1_555 1_555
H1 N1 1_555 1_555
H2 N1 1_555 1_555
C2 C1 1_555 1_555
C3 C2 1_555 1_555
H3 C3 1_555 1_555
C4 C1 1_555 1_555
H4 C4 1_555 1_555
C5 C4 1_555 1_555
H5 C5 1_555 1_555
C6 C3 1_555 1_555
H6 C6 1_555 1_555
Ag1C_2 O2 1_555 1_555
Ag1C_3 C3 1_555 1_555
O1C Ag1 1_555 1_555
O2C Ag1 1_555 1_555
C3C Ag1 1_555 1_555
H3C C3C 1_555 1_555
C6C Ag1 1_555 1_555
H6C C6C 1_555 1_555
N1 C2 1_555 1_555
C5 C6 1_555 1_555
C6 Ag1C_3 1_555 1_555
C3C C6C 1_555 1_555

#END
