
#######################################################################
#
#                 Cambridge Crystallographic Data Centre
#                                CCDC 
#
#######################################################################
#
# If this CIF has been generated from an entry in the Cambridge 
# Structural Database, then it will include bibliographic, chemical, 
# crystal, experimental, refinement or atomic coordinate data resulting 
# from the CCDC's data processing and validation procedures.
#
#######################################################################

data_TASLAC
_symmetry_cell_setting           monoclinic
_symmetry_space_group_name_H-M   'C 2/c'
_symmetry_Int_Tables_number      15
_space_group_name_Hall           '-C 2yn'
loop_
_symmetry_equiv_pos_site_id
_symmetry_equiv_pos_as_xyz
1 x,y,z
2 -x,y,1/2-z
3 1/2+x,1/2+y,z
4 1/2-x,1/2+y,1/2-z
5 -x,-y,-z
6 x,-y,1/2+z
7 1/2-x,1/2-y,-z
8 1/2+x,1/2-y,1/2+z
_cell_length_a                   22.475(5)
_cell_length_b                   7.4410(15)
_cell_length_c                   14.549(3)
_cell_angle_alpha                90
_cell_angle_beta                 123.05(3)
_cell_angle_gamma                90
_cell_volume                     2039.43
loop_
_atom_site_label
_atom_site_type_symbol
_atom_site_fract_x
_atom_site_fract_y
_atom_site_fract_z
Ag1 Ag 0.082991(7) 0.233653(18) 0.088717(11)
S1 S -0.07620(2) 0.16923(5) -0.16519(3)
O1 O -0.01341(7) 0.28134(18) -0.10280(12)
C1 C -0.21593(9) 0.2296(2) -0.32963(13)
C2 C -0.23164(8) 0.0481(2) -0.32007(13)
H1 H -0.1957 -0.0249 -0.2632
C3 C -0.14740(8) 0.3102(2) -0.26032(13)
C4 C -0.13722(8) 0.4893(2) -0.27440(13)
C5 C -0.25944(9) 0.5155(2) -0.42644(14)
H2 H -0.2968 0.5859 -0.4828
C6 C -0.19471(9) 0.5903(2) -0.35870(14)
H3 H -0.1877 0.7132 -0.3679
C7 C -0.27183(8) 0.3341(2) -0.41404(13)
O2 O -0.09631(6) 0.08990(17) -0.09366(10)
O3 O -0.06924(7) 0.03276(18) -0.22938(11)
N1 N -0.07413(8) 0.5883(2) -0.20853(13)
C8 C -0.33908(9) 0.2560(2) -0.48822(15)
H4 H -0.3757 0.3264 -0.5459
C9 C -0.29735(9) -0.0236(2) -0.39110(14)
H5 H -0.3064 -0.1449 -0.3820
C10 C -0.35181(9) 0.0784(2) -0.47730(14)
H6 H -0.3968 0.0258 -0.5274
H9 H -0.0675(12) 0.662(3) -0.2487(17)
H10 H -0.0371(9) 0.524(3) -0.1700(16)
Ag1D Ag -0.082991(7) -0.233653(18) -0.088717(11)
Ag1D_2 Ag -0.082991(7) 0.766347(18) -0.088717(11)
Ag1G Ag -0.417009(7) 0.266347(18) -0.411283(11)
O2D O 0.09631(6) -0.08990(17) 0.09366(10)
N1D N 0.07413(8) 0.4117(2) 0.20853(13)
C8G C 0.16092(9) 0.2440(2) 0.01178(15)
H4G H 0.1243 0.1736 -0.0459
C10G C 0.14819(9) 0.4216(2) 0.02270(14)
H6G H 0.1032 0.4742 -0.0274
H9D H 0.0675(12) 0.338(3) 0.2487(17)
H10D H 0.0371(9) 0.476(3) 0.1700(16)
O4 O -0.06584(8) 0.79906(19) -0.38518(12)
H7 H -0.0473(15) 0.895(3) -0.345(2)
H8 H -0.0736(12) 0.827(3) -0.4483(15)
loop_
_geom_bond_atom_site_label_1
_geom_bond_atom_site_label_2
_geom_bond_site_symmetry_1
_geom_bond_site_symmetry_2
Ag1 O1 1_555 1_555
S1 O1 1_555 1_555
C1 C2 1_555 1_555
C2 H1 1_555 1_555
C3 S1 1_555 1_555
C4 C3 1_555 1_555
C5 H2 1_555 1_555
C6 C4 1_555 1_555
H3 C6 1_555 1_555
C7 C1 1_555 1_555
O2 S1 1_555 1_555
O3 S1 1_555 1_555
N1 C4 1_555 1_555
C8 C7 1_555 1_555
H4 C8 1_555 1_555
C9 C2 1_555 1_555
H5 C9 1_555 1_555
C10 C8 1_555 1_555
H6 C10 1_555 1_555
O4 H7 1_555 1_555
H8 O4 1_555 1_555
H9 N1 1_555 1_555
H10 N1 1_555 1_555
Ag1D O2 1_555 1_555
Ag1D_2 N1 1_555 1_555
Ag1G C8 1_555 1_555
O2D Ag1 1_555 1_555
N1D Ag1 1_555 1_555
C8G Ag1 1_555 1_555
H4G C8G 1_555 1_555
C10G Ag1 1_555 1_555
H6G C10G 1_555 1_555
H9D N1D 1_555 1_555
H10D N1D 1_555 1_555
C1 C3 1_555 1_555
C5 C6 1_555 1_555
C5 C7 1_555 1_555
C9 C10 1_555 1_555
C10 Ag1G 1_555 1_555
C8G C10G 1_555 1_555

#END
