
#######################################################################
#
#                 Cambridge Crystallographic Data Centre
#                                CCDC 
#
#######################################################################
#
# If this CIF has been generated from an entry in the Cambridge 
# Structural Database, then it will include bibliographic, chemical, 
# crystal, experimental, refinement or atomic coordinate data resulting 
# from the CCDC's data processing and validation procedures.
#
#######################################################################

data_TASLEG
_symmetry_cell_setting           monoclinic
_symmetry_space_group_name_H-M   'P 21'
_symmetry_Int_Tables_number      4
_space_group_name_Hall           'P 2yb'
loop_
_symmetry_equiv_pos_site_id
_symmetry_equiv_pos_as_xyz
1 x,y,z
2 -x,1/2+y,-z
_cell_length_a                   7.2689(15)
_cell_length_b                   7.5693(15)
_cell_length_c                   9.6200(19)
_cell_angle_alpha                90
_cell_angle_beta                 104.48(3)
_cell_angle_gamma                90
_cell_volume                     512.484
loop_
_atom_site_label
_atom_site_type_symbol
_atom_site_fract_x
_atom_site_fract_y
_atom_site_fract_z
Ag1 Ag 0.88944(6) 0.55866(8) 0.66277(4)
S1 S 0.7148(2) 0.1563(2) 0.67258(16)
O1 O 0.8058(8) 0.5991(8) 0.4075(6)
O2 O 0.9002(8) 0.2479(8) 0.7047(6)
O3 O 0.6864(7) 0.0465(9) 0.5441(5)
O4 O 0.5605(7) 0.2830(8) 0.6705(5)
C1 C 0.7576(8) 0.0868(10) 0.9602(7)
C2 C 0.7188(9) 0.0092(10) 0.8204(7)
C3 C 0.7375(9) -0.0221(9) 1.0760(7)
C4 C 0.6680(9) -0.1657(10) 0.7976(7)
C5 C 0.6873(10) -0.2017(10) 1.0505(7)
H1 H 0.6745 -0.2743 1.1281
C6 C 0.6572(9) -0.2722(9) 0.9173(7)
H2 H 0.6284 -0.3943 0.9036
C7 C 0.7662(8) 0.0487(13) 1.2155(6)
H3 H 0.7526 -0.0248 1.2923
C8 C 0.8113(10) 0.2668(10) 0.9923(7)
H4 H 0.8279 0.3418 0.9172
C9 C 0.8392(10) 0.3332(11) 1.1264(8)
H5 H 0.8758 0.4531 1.1447
C10 C 0.8135(10) 0.2231(10) 1.2407(7)
H6 H 0.8293 0.2708 1.3343
N1 N 0.6351(9) -0.2585(9) 0.6678(6)
H7 H 0.6165 -0.1796 0.5928
H8 H 0.5267 -0.3253 0.6564
H9 H 0.77(2) 0.710(7) 0.409(19)
H10 H 0.913(13) 0.61(2) 0.380(18)
Ag1_2 Ag 0.88944(6) -0.44134(8) 0.66277(4)
Ag1A Ag 1.11056(6) 0.05866(8) 1.33723(4)
C7A C 1.2338(8) 0.5487(13) 0.7845(6)
C10A C 1.1865(10) 0.7231(10) 0.7593(7)
N1_2 N 0.6351(9) 0.7415(9) 0.6678(6)
loop_
_geom_bond_atom_site_label_1
_geom_bond_atom_site_label_2
_geom_bond_site_symmetry_1
_geom_bond_site_symmetry_2
Ag1 O1 1_555 1_555
S1 O2 1_555 1_555
O1 H9 1_555 1_555
O2 Ag1 1_555 1_555
O3 S1 1_555 1_555
O4 S1 1_555 1_555
C1 C2 1_555 1_555
C2 S1 1_555 1_555
C3 C1 1_555 1_555
C4 C2 1_555 1_555
C5 C3 1_555 1_555
H1 C5 1_555 1_555
C6 C4 1_555 1_555
H2 C6 1_555 1_555
C7 C3 1_555 1_555
H3 C7 1_555 1_555
C8 C1 1_555 1_555
H4 C8 1_555 1_555
C9 C8 1_555 1_555
H5 C9 1_555 1_555
C10 C7 1_555 1_555
H6 C10 1_555 1_555
N1 C4 1_555 1_555
H7 N1 1_555 1_555
H8 N1 1_555 1_555
H10 O1 1_555 1_555
Ag1_2 N1 1_555 1_555
Ag1A C7 1_555 1_555
C7A Ag1 1_555 1_555
C10A Ag1 1_555 1_555
N1_2 Ag1 1_555 1_555
C5 C6 1_555 1_555
C9 C10 1_555 1_555
C10 Ag1A 1_555 1_555
C7A C10A 1_555 1_555

#END
