
#######################################################################
#
#                 Cambridge Crystallographic Data Centre
#                                CCDC 
#
#######################################################################
#
# If this CIF has been generated from an entry in the Cambridge 
# Structural Database, then it will include bibliographic, chemical, 
# crystal, experimental, refinement or atomic coordinate data resulting 
# from the CCDC's data processing and validation procedures.
#
#######################################################################

data_TASPEK
_symmetry_cell_setting           triclinic
_symmetry_space_group_name_H-M   'P -1'
_symmetry_Int_Tables_number      2
_space_group_name_Hall           '-P 1'
loop_
_symmetry_equiv_pos_site_id
_symmetry_equiv_pos_as_xyz
1 x,y,z
2 -x,-y,-z
_cell_length_a                   6.3551(5)
_cell_length_b                   8.3149(6)
_cell_length_c                   15.6125(12)
_cell_angle_alpha                80.384(6)
_cell_angle_beta                 87.873(6)
_cell_angle_gamma                76.608(6)
_cell_volume                     791.285
loop_
_atom_site_label
_atom_site_type_symbol
_atom_site_fract_x
_atom_site_fract_y
_atom_site_fract_z
N8 N 1.00000 0.00000 0.50000
O4 O 0.801(5) 0.028(5) 0.518(2)
O5 O 1.029(6) 0.150(4) 0.4406(19)
O6 O 1.143(6) -0.089(5) 0.518(4)
O4A O 1.199(5) -0.028(5) 0.482(2)
O5A O 0.971(6) -0.150(4) 0.5594(19)
O6A O 0.857(6) 0.089(5) 0.482(4)
Pt1 Pt -0.49818(9) 0.93180(7) -0.25753(4)
Ag1 Ag 0.00143(17) 0.92736(14) -0.27954(8)
Ag2 Ag 0.00000 0.50000 0.00000
N1 N -0.471(2) 0.8556(15) -0.3780(8)
H1 H -0.3513 0.8849 -0.405
H2 H -0.5898 0.9162 -0.4105
C1 C -0.454(3) 0.679(2) -0.3811(12)
H3 H -0.4485 0.6613 -0.4418
H4 H -0.3222 0.6117 -0.3509
H5 H -0.5803 0.6441 -0.3526
N2 N -0.5232(19) 1.0022(15) -0.1383(9)
H6 H -0.4136 0.9314 -0.1043
H7 H -0.6515 0.9834 -0.1143
C2 C -0.516(4) 1.181(3) -0.1308(13)
H8 H -0.4906 1.1873 -0.0701
H9 H -0.3984 1.213 -0.167
H10 H -0.6538 1.2565 -0.1505
N3 N -0.8984(18) 1.1494(15) -0.3301(8)
N4 N -0.6915(18) 1.1475(15) -0.3137(8)
C3 C -0.647(2) 1.2938(18) -0.3521(11)
H11 H -0.5113 1.3225 -0.3515
C4 C -0.835(2) 1.396(2) -0.3928(11)
H12 H -0.8547 1.5074 -0.4236
C5 C -0.984(2) 1.298(2) -0.3779(11)
H13 H -1.1291 1.3311 -0.3988
N5 N -0.0855(19) 0.7007(15) -0.2253(9)
N6 N -0.2996(18) 0.7173(14) -0.2064(8)
C6 C -0.328(2) 0.5728(19) -0.1620(11)
H14 H -0.4619 0.5516 -0.1403
C7 C -0.128(3) 0.4565(19) -0.1519(10)
H15 H -0.0981 0.343 -0.1241
C8 C 0.018(2) 0.549(2) -0.1934(11)
H16 H 0.1694 0.5072 -0.1974
N7 N 0.028(2) 0.8453(16) -0.0613(8)
O1 O -0.1409(17) 0.7964(14) -0.0331(8)
O2 O 0.2056(16) 0.7466(15) -0.0524(8)
O3 O 0.0084(18) 0.9942(13) -0.0983(8)
Pt1A Pt 0.49818(9) 0.06820(7) 0.25753(4)
Pt1_2 Pt 0.50182(9) 0.93180(7) -0.25753(4)
Ag1A Ag -0.00143(17) 0.07264(14) 0.27954(8)
Ag1_2 Ag -0.99857(17) 0.92736(14) -0.27954(8)
N1A N 0.471(2) 0.1444(15) 0.3780(8)
H1A H 0.3513 0.1151 0.405
H2A H 0.5898 0.0838 0.4105
C1A C 0.454(3) 0.321(2) 0.3811(12)
H3A H 0.4485 0.3387 0.4418
H4A H 0.3222 0.3883 0.3509
H5A H 0.5803 0.3559 0.3526
N2A N 0.5232(19) -0.0022(15) 0.1383(9)
H6A H 0.4136 0.0686 0.1043
H7A H 0.6515 0.0166 0.1143
C2A C 0.516(4) -0.181(3) 0.1308(13)
H8A H 0.4906 -0.1873 0.0701
H9A H 0.3984 -0.213 0.167
H10A H 0.6538 -0.2565 0.1505
N3_2 N 0.1016(18) 1.1494(15) -0.3301(8)
N3A N -0.1016(18) -0.1494(15) 0.3301(8)
N4_2 N 0.3085(18) 1.1475(15) -0.3137(8)
N4A N 0.6915(18) -0.1475(15) 0.3137(8)
C3_2 C 0.353(2) 1.2938(18) -0.3521(11)
H11_2 H 0.4887 1.3225 -0.3515
C4_2 C 0.165(2) 1.396(2) -0.3928(11)
H12_2 H 0.1453 1.5074 -0.4236
C5_2 C 0.016(2) 1.298(2) -0.3779(11)
H13_2 H -0.1291 1.3311 -0.3988
N5A N 0.0855(19) 0.2993(15) 0.2253(9)
N6A N 0.2996(18) 0.2827(14) 0.2064(8)
C6A C 0.328(2) 0.4272(19) 0.1620(11)
H14A H 0.4619 0.4484 0.1403
C7A C 0.128(3) 0.5435(19) 0.1519(10)
H15A H 0.0981 0.657 0.1241
C8A C -0.018(2) 0.451(2) 0.1934(11)
H16A H -0.1694 0.4928 0.1974
N7A N -0.028(2) 0.1547(16) 0.0613(8)
O1A O 0.1409(17) 0.2036(14) 0.0331(8)
O2A O -0.2056(16) 0.2534(15) 0.0524(8)
O3A O -0.0084(18) 0.0058(13) 0.0983(8)
loop_
_geom_bond_atom_site_label_1
_geom_bond_atom_site_label_2
_geom_bond_site_symmetry_1
_geom_bond_site_symmetry_2
Pt1 N1 1_555 1_555
Ag1 N5 1_555 1_555
Ag2 C7 1_555 1_555
N1 H1 1_555 1_555
H2 N1 1_555 1_555
C1 N1 1_555 1_555
H3 C1 1_555 1_555
H4 C1 1_555 1_555
H5 C1 1_555 1_555
N2 Pt1 1_555 1_555
H6 N2 1_555 1_555
H7 N2 1_555 1_555
C2 N2 1_555 1_555
H8 C2 1_555 1_555
H9 C2 1_555 1_555
H10 C2 1_555 1_555
N3 N4 1_555 1_555
N4 Pt1 1_555 1_555
C3 N4 1_555 1_555
H11 C3 1_555 1_555
C4 C3 1_555 1_555
H12 C4 1_555 1_555
C5 N3 1_555 1_555
H13 C5 1_555 1_555
N5 N6 1_555 1_555
N6 Pt1 1_555 1_555
C6 N6 1_555 1_555
H14 C6 1_555 1_555
C7 C6 1_555 1_555
H15 C7 1_555 1_555
C8 N5 1_555 1_555
H16 C8 1_555 1_555
N7 O1 1_555 1_555
O1 Ag2 1_555 1_555
O2 Ag2 1_555 1_555
O3 N7 1_555 1_555
N8 O4 1_555 1_555
O4 O5A 1_555 1_555
O5 N8 1_555 1_555
O6 N8 1_555 1_555
Pt1A N1A 1_555 1_555
Pt1_2 N4_2 1_555 1_555
Ag1A N3A 1_555 1_555
Ag1_2 N3 1_555 1_555
N1A H1A 1_555 1_555
H2A N1A 1_555 1_555
C1A N1A 1_555 1_555
H3A C1A 1_555 1_555
H4A C1A 1_555 1_555
H5A C1A 1_555 1_555
N2A Pt1A 1_555 1_555
H6A N2A 1_555 1_555
H7A N2A 1_555 1_555
C2A N2A 1_555 1_555
H8A C2A 1_555 1_555
H9A C2A 1_555 1_555
H10A C2A 1_555 1_555
N3_2 Ag1 1_555 1_555
N4_2 N3_2 1_555 1_555
N4A Pt1A 1_555 1_555
C3_2 N4_2 1_555 1_555
H11_2 C3_2 1_555 1_555
C4_2 C3_2 1_555 1_555
H12_2 C4_2 1_555 1_555
C5_2 N3_2 1_555 1_555
H13_2 C5_2 1_555 1_555
N5A Ag1A 1_555 1_555
N6A Pt1A 1_555 1_555
C6A N6A 1_555 1_555
H14A C6A 1_555 1_555
C7A Ag2 1_555 1_555
H15A C7A 1_555 1_555
C8A N5A 1_555 1_555
H16A C8A 1_555 1_555
N7A O1A 1_555 1_555
O1A Ag2 1_555 1_555
O2A Ag2 1_555 1_555
O3A N7A 1_555 1_555
O4A N8 1_555 1_555
O5A N8 1_555 1_555
O6A N8 1_555 1_555
C4 C5 1_555 1_555
C7 C8 1_555 1_555
N7 O2 1_555 1_555
O4 O6A 1_555 1_555
O5 O4A 1_555 1_555
O5 O6A 1_555 1_555
O6 O4A 1_555 1_555
O6 O5A 1_555 1_555
C4_2 C5_2 1_555 1_555
N5A N6A 1_555 1_555
C6A C7A 1_555 1_555
C7A C8A 1_555 1_555
N7A O2A 1_555 1_555

#END
