
#######################################################################
#
#                 Cambridge Crystallographic Data Centre
#                                CCDC 
#
#######################################################################
#
# If this CIF has been generated from an entry in the Cambridge 
# Structural Database, then it will include bibliographic, chemical, 
# crystal, experimental, refinement or atomic coordinate data resulting 
# from the CCDC's data processing and validation procedures.
#
#######################################################################

data_TASPAG
_symmetry_cell_setting           monoclinic
_symmetry_space_group_name_H-M   'P 21/c'
_symmetry_Int_Tables_number      14
_space_group_name_Hall           '-P 2ybc'
loop_
_symmetry_equiv_pos_site_id
_symmetry_equiv_pos_as_xyz
1 x,y,z
2 -x,1/2+y,1/2-z
3 -x,-y,-z
4 x,1/2-y,1/2+z
_cell_length_a                   6.7730(5)
_cell_length_b                   15.1893(11)
_cell_length_c                   11.0704(10)
_cell_angle_alpha                90
_cell_angle_beta                 117.506(6)
_cell_angle_gamma                90
_cell_volume                     1010.15
loop_
_atom_site_label
_atom_site_type_symbol
_atom_site_fract_x
_atom_site_fract_y
_atom_site_fract_z
Pt1 Pt 1.00000 0.00000 1.00000
Ag1 Ag 0.27785(6) -0.20756(3) 0.70648(4)
N1 N 0.8551(6) -0.0606(3) 1.1039(4)
H1 H 0.8089 -0.1139 1.0656
H2 H 0.732 -0.0296 1.0876
C1 C 0.9793(8) -0.0742(4) 1.2528(5)
H3 H 1.0223 -0.017 1.2987
H4 H 1.1131 -0.1091 1.2744
H5 H 0.8847 -0.1055 1.2841
N2 N 0.5630(6) 0.0081(2) 0.7551(4)
H6 H 0.5385 0.0611 0.782
N3 N 0.7443(6) -0.0425(3) 0.8285(3)
C2 C 0.7167(7) -0.1157(3) 0.7562(5)
H7 H 0.817 -0.1641 0.7833
C3 C 0.5174(7) -0.1110(3) 0.6340(5)
H8 H 0.4602 -0.153 0.5651
C4 C 0.4246(7) -0.0308(3) 0.6378(5)
H9 H 0.288 -0.0076 0.5699
N4 N 0.3247(6) -0.1714(3) 0.9788(4)
O1 O 0.2140(6) -0.2348(2) 0.9101(3)
O2 O 0.3850(5) -0.1120(2) 0.9246(3)
O3 O 0.3795(6) -0.1674(2) 1.1041(3)
N5 N -0.1868(7) -0.1866(3) 0.4929(4)
O4 O -0.3668(6) -0.1824(2) 0.3877(4)
O5 O -0.0585(6) -0.1218(2) 0.5321(3)
O6 O -0.1278(7) -0.2559(3) 0.5624(4)
Ag1B Ag 1.72215(6) 0.20756(3) 1.29352(4)
Ag1A Ag 1.72215(6) 0.29244(3) 0.79352(4)
Ag1C Ag 0.27785(6) -0.29244(3) 1.20648(4)
N1B N 1.1449(6) 0.0606(3) 0.8961(4)
H1B H 1.1911 0.1139 0.9344
H2B H 1.268 0.0296 0.9124
C1B C 1.0207(8) 0.0742(4) 0.7472(5)
H3B H 0.9777 0.017 0.7013
H4B H 0.8869 0.1091 0.7256
H5B H 1.1153 0.1055 0.7159
N2B N 1.4370(6) -0.0081(2) 1.2449(4)
H6B H 1.4615 -0.0611 1.218
N3B N 1.2557(6) 0.0425(3) 1.1715(3)
C2B C 1.2833(7) 0.1157(3) 1.2438(5)
H7B H 1.183 0.1641 1.2167
C3B C 1.4826(7) 0.1110(3) 1.3660(5)
H8B H 1.5398 0.153 1.4349
C4B C 1.5754(7) 0.0308(3) 1.3622(5)
H9B H 1.712 0.0076 1.4301
N4B N 1.6753(6) 0.1714(3) 1.0212(4)
O1B O 1.7860(6) 0.2348(2) 1.0899(3)
O2B O 1.6150(5) 0.1120(2) 1.0754(3)
O3B O 1.6205(6) 0.1674(2) 0.8959(3)
O3A O 1.6205(6) 0.3326(2) 1.3959(3)
O3C O 0.3795(6) -0.3326(2) 0.6041(3)
N5B N 2.1868(7) 0.1866(3) 1.5071(4)
O4B O 2.3668(6) 0.1824(2) 1.6123(4)
O5B O 2.0585(6) 0.1218(2) 1.4679(3)
O6B O 2.1278(7) 0.2559(3) 1.4376(4)
loop_
_geom_bond_atom_site_label_1
_geom_bond_atom_site_label_2
_geom_bond_site_symmetry_1
_geom_bond_site_symmetry_2
Pt1 N1 1_555 1_555
Ag1 C3 1_555 1_555
N1 H1 1_555 1_555
H2 N1 1_555 1_555
C1 N1 1_555 1_555
H3 C1 1_555 1_555
H4 C1 1_555 1_555
H5 C1 1_555 1_555
N2 H6 1_555 1_555
N3 Pt1 1_555 1_555
C2 N3 1_555 1_555
H7 C2 1_555 1_555
C3 C2 1_555 1_555
H8 C3 1_555 1_555
C4 N2 1_555 1_555
H9 C4 1_555 1_555
N4 O1 1_555 1_555
O1 Ag1 1_555 1_555
O2 Ag1 1_555 1_555
O3 N4 1_555 1_555
N5 O4 1_555 1_555
O5 Ag1 1_555 1_555
O6 Ag1 1_555 1_555
Ag1B C3B 1_555 1_555
Ag1A O3B 1_555 1_555
Ag1C O3 1_555 1_555
N1B Pt1 1_555 1_555
H1B N1B 1_555 1_555
H2B N1B 1_555 1_555
C1B N1B 1_555 1_555
H3B C1B 1_555 1_555
H4B C1B 1_555 1_555
H5B C1B 1_555 1_555
N2B H6B 1_555 1_555
N3B Pt1 1_555 1_555
C2B N3B 1_555 1_555
H7B C2B 1_555 1_555
C3B C2B 1_555 1_555
H8B C3B 1_555 1_555
C4B N2B 1_555 1_555
H9B C4B 1_555 1_555
N4B O1B 1_555 1_555
O1B Ag1B 1_555 1_555
O2B Ag1B 1_555 1_555
O3B N4B 1_555 1_555
O3A Ag1B 1_555 1_555
O3C Ag1 1_555 1_555
N5B O4B 1_555 1_555
O5B Ag1B 1_555 1_555
O6B Ag1B 1_555 1_555
N2 N3 1_555 1_555
C3 C4 1_555 1_555
N4 O2 1_555 1_555
N5 O5 1_555 1_555
N5 O6 1_555 1_555
N2B N3B 1_555 1_555
C3B C4B 1_555 1_555
N4B O2B 1_555 1_555
N5B O5B 1_555 1_555
N5B O6B 1_555 1_555

#END
