
#######################################################################
#
#                 Cambridge Crystallographic Data Centre
#                                CCDC 
#
#######################################################################
#
# If this CIF has been generated from an entry in the Cambridge 
# Structural Database, then it will include bibliographic, chemical, 
# crystal, experimental, refinement or atomic coordinate data resulting 
# from the CCDC's data processing and validation procedures.
#
#######################################################################

data_TASSAH
_symmetry_cell_setting           monoclinic
_symmetry_space_group_name_H-M   'P 21/n'
_symmetry_Int_Tables_number      14
_space_group_name_Hall           '-P 2yn'
loop_
_symmetry_equiv_pos_site_id
_symmetry_equiv_pos_as_xyz
1 x,y,z
2 1/2-x,1/2+y,1/2-z
3 -x,-y,-z
4 1/2+x,1/2-y,1/2+z
_cell_length_a                   9.2160(10)
_cell_length_b                   17.516(2)
_cell_length_c                   10.781(2)
_cell_angle_alpha                90
_cell_angle_beta                 110.100(10)
_cell_angle_gamma                90
_cell_volume                     1634.35
loop_
_atom_site_label
_atom_site_type_symbol
_atom_site_fract_x
_atom_site_fract_y
_atom_site_fract_z
Sn1 Sn 0.0000 0.0000 0.0000
Cl1 Cl 0.22880(12) -0.01278(6) -0.08453(11)
C1 C 0.1044(5) -0.0806(2) 0.1492(4)
H1 H 0.1676(5) -0.0549(2) 0.2279(4)
H2 H 0.1687(5) -0.1145(2) 0.1207(4)
H3 H 0.0165(5) -0.1122(2) 0.1689(4)
P1 P 0.21605(11) 0.13055(5) 0.25792(10)
O1 O 0.3643(3) 0.0828(2) 0.3277(3)
C2 C 0.4717(5) 0.0620(3) 0.2611(4)
H4 H 0.5421(5) 0.1139(3) 0.2659(4)
H5 H 0.4399(5) 0.0447(3) 0.1748(4)
C3 C 0.5742(7) 0.0017(3) 0.3413(6)
H6 H 0.6534(7) -0.0098(3) 0.3051(6)
H7 H 0.5144(7) -0.0438(3) 0.3368(6)
H8 H 0.6204(7) 0.0171(3) 0.4314(6)
O2 O 0.2727(3) 0.2131(2) 0.2423(3)
C4 C 0.2447(7) 0.2519(3) 0.1182(5)
H9 H 0.2479(7) 0.2158(3) 0.0520(5)
H10 H 0.3431(7) 0.2952(3) 0.1381(5)
C5 C 0.0970(8) 0.2883(4) 0.0788(7)
H11 H 0.0822(8) 0.3178(4) 0.0002(7)
H12 H 0.0915(8) 0.3214(4) 0.1483(7)
H13 H 0.0179(8) 0.2501(4) 0.0613(7)
O3 O 0.1146(3) 0.09894(14) 0.1300(2)
C6 C 0.1255(4) 0.1346(2) 0.3831(4)
H14 H 0.2235(4) 0.1441(2) 0.4673(4)
C7 C 0.0135(4) 0.2012(2) 0.3608(4)
C8 C -0.1417(5) 0.1938(2) 0.2842(4)
H15 H -0.1759(5) 0.1451(2) 0.2435(4)
C9 C -0.2416(5) 0.2559(2) 0.2636(4)
H16 H -0.3541(5) 0.2489(2) 0.2207(4)
C10 C -0.1871(5) 0.3247(2) 0.3210(4)
H17 H -0.2558(5) 0.3671(2) 0.3086(4)
C11 C -0.0333(5) 0.3336(2) 0.3981(4)
H18 H 0.0223(5) 0.3824(2) 0.4452(4)
C12 C 0.0655(5) 0.2720(2) 0.4176(4)
H19 H 0.1831(5) 0.2776(2) 0.4667(4)
C13 C 0.0154(4) 0.0424(2) 0.4978(4)
H20 H 0.1014(4) 0.0606(2) 0.5801(4)
H21 H -0.0783(4) 0.0699(2) 0.4920(4)
N1 N 0.0651(4) 0.0577(2) 0.3848(3)
H22 H -0.0179(4) 0.0440(2) 0.2911(3)
Cl1B Cl -0.22880(12) 0.01278(6) 0.08453(11)
C1B C -0.1044(5) 0.0806(2) -0.1492(4)
H1B H -0.1676(5) 0.0549(2) -0.2279(4)
H2B H -0.1687(5) 0.1145(2) -0.1207(4)
H3B H -0.0165(5) 0.1122(2) -0.1689(4)
C13B C -0.0154(4) -0.0424(2) 0.5022(4)
H20B H -0.1014(4) -0.0606(2) 0.4199(4)
H21B H 0.0783(4) -0.0699(2) 0.5080(4)
N1B N -0.0651(4) -0.0577(2) 0.6152(3)
C6B C -0.1255(4) -0.1346(2) 0.6169(4)
P1B P -0.21605(11) -0.13055(5) 0.74208(10)
O1B O -0.3643(3) -0.0828(2) 0.6723(3)
C2B C -0.4717(5) -0.0620(3) 0.7389(4)
H4B H -0.5421(5) -0.1139(3) 0.7341(4)
H5B H -0.4399(5) -0.0447(3) 0.8252(4)
C3B C -0.5742(7) -0.0017(3) 0.6587(6)
H6B H -0.6534(7) 0.0098(3) 0.6949(6)
H7B H -0.5144(7) 0.0438(3) 0.6632(6)
H8B H -0.6204(7) -0.0171(3) 0.5686(6)
O2B O -0.2727(3) -0.2131(2) 0.7577(3)
C4B C -0.2447(7) -0.2519(3) 0.8818(5)
H9B H -0.2479(7) -0.2158(3) 0.9480(5)
H10B H -0.3431(7) -0.2952(3) 0.8619(5)
C5B C -0.0970(8) -0.2883(4) 0.9212(7)
H11B H -0.0822(8) -0.3178(4) 0.9998(7)
H12B H -0.0915(8) -0.3214(4) 0.8517(7)
H13B H -0.0179(8) -0.2501(4) 0.9387(7)
O3B O -0.1146(3) -0.09894(14) 0.8700(2)
Sn1_2 Sn 0.0000 0.0000 1.0000
H14B H -0.2235(4) -0.1441(2) 0.5327(4)
C7B C -0.0135(4) -0.2012(2) 0.6392(4)
C8B C 0.1417(5) -0.1938(2) 0.7158(4)
H15B H 0.1759(5) -0.1451(2) 0.7565(4)
C9B C 0.2416(5) -0.2559(2) 0.7364(4)
H16B H 0.3541(5) -0.2489(2) 0.7793(4)
C10B C 0.1871(5) -0.3247(2) 0.6790(4)
H17B H 0.2558(5) -0.3671(2) 0.6914(4)
C11B C 0.0333(5) -0.3336(2) 0.6019(4)
H18B H -0.0223(5) -0.3824(2) 0.5548(4)
C12B C -0.0655(5) -0.2720(2) 0.5824(4)
H19B H -0.1831(5) -0.2776(2) 0.5333(4)
H22B H 0.0179(4) -0.0440(2) 0.7089(3)
O3B_2 O -0.1146(3) -0.09894(14) -0.1300(2)
loop_
_geom_bond_atom_site_label_1
_geom_bond_atom_site_label_2
_geom_bond_site_symmetry_1
_geom_bond_site_symmetry_2
Sn1 Cl1 1_555 1_555
C1 Sn1 1_555 1_555
H1 C1 1_555 1_555
H2 C1 1_555 1_555
H3 C1 1_555 1_555
P1 O1 1_555 1_555
O1 C2 1_555 1_555
C2 H4 1_555 1_555
H5 C2 1_555 1_555
C3 C2 1_555 1_555
H6 C3 1_555 1_555
H7 C3 1_555 1_555
H8 C3 1_555 1_555
O2 P1 1_555 1_555
C4 O2 1_555 1_555
H9 C4 1_555 1_555
H10 C4 1_555 1_555
C5 C4 1_555 1_555
H11 C5 1_555 1_555
H12 C5 1_555 1_555
H13 C5 1_555 1_555
O3 Sn1 1_555 1_555
C6 P1 1_555 1_555
H14 C6 1_555 1_555
C7 C6 1_555 1_555
C8 C7 1_555 1_555
H15 C8 1_555 1_555
C9 C8 1_555 1_555
H16 C9 1_555 1_555
C10 C9 1_555 1_555
H17 C10 1_555 1_555
C11 C10 1_555 1_555
H18 C11 1_555 1_555
C12 C7 1_555 1_555
H19 C12 1_555 1_555
C13 H20 1_555 1_555
H21 C13 1_555 1_555
N1 C6 1_555 1_555
H22 N1 1_555 1_555
Cl1B Sn1 1_555 1_555
C1B Sn1 1_555 1_555
H1B C1B 1_555 1_555
H2B C1B 1_555 1_555
H3B C1B 1_555 1_555
C13B C13 1_555 1_555
H20B C13B 1_555 1_555
H21B C13B 1_555 1_555
N1B C13B 1_555 1_555
C6B N1B 1_555 1_555
P1B C6B 1_555 1_555
O1B P1B 1_555 1_555
C2B O1B 1_555 1_555
H4B C2B 1_555 1_555
H5B C2B 1_555 1_555
C3B C2B 1_555 1_555
H6B C3B 1_555 1_555
H7B C3B 1_555 1_555
H8B C3B 1_555 1_555
O2B P1B 1_555 1_555
C4B O2B 1_555 1_555
H9B C4B 1_555 1_555
H10B C4B 1_555 1_555
C5B C4B 1_555 1_555
H11B C5B 1_555 1_555
H12B C5B 1_555 1_555
H13B C5B 1_555 1_555
O3B P1B 1_555 1_555
Sn1_2 O3B 1_555 1_555
H14B C6B 1_555 1_555
C7B C6B 1_555 1_555
C8B C7B 1_555 1_555
H15B C8B 1_555 1_555
C9B C8B 1_555 1_555
H16B C9B 1_555 1_555
C10B C9B 1_555 1_555
H17B C10B 1_555 1_555
C11B C10B 1_555 1_555
H18B C11B 1_555 1_555
C12B C7B 1_555 1_555
H19B C12B 1_555 1_555
H22B N1B 1_555 1_555
O3B_2 Sn1 1_555 1_555
P1 O3 1_555 1_555
C11 C12 1_555 1_555
C13 N1 1_555 1_555
C11B C12B 1_555 1_555

#END
