
#######################################################################
#
#                 Cambridge Crystallographic Data Centre
#                                CCDC 
#
#######################################################################
#
# If this CIF has been generated from an entry in the Cambridge 
# Structural Database, then it will include bibliographic, chemical, 
# crystal, experimental, refinement or atomic coordinate data resulting 
# from the CCDC's data processing and validation procedures.
#
#######################################################################

data_TASUCM10
_symmetry_cell_setting           triclinic
_symmetry_space_group_name_H-M   'P -1'
_symmetry_Int_Tables_number      2
_space_group_name_Hall           '-P 1'
loop_
_symmetry_equiv_pos_site_id
_symmetry_equiv_pos_as_xyz
1 x,y,z
2 -x,-y,-z
_cell_length_a                   5.50(1)
_cell_length_b                   9.05(2)
_cell_length_c                   5.26(1)
_cell_angle_alpha                96.1(5)
_cell_angle_beta                 98.9(5)
_cell_angle_gamma                120.5(5)
_cell_volume                     217.558
loop_
_atom_site_label
_atom_site_type_symbol
_atom_site_fract_x
_atom_site_fract_y
_atom_site_fract_z
Mn1 Mn 0.00000 0.00000 0.00000
C1 C 0.02080 0.31550 -0.19750
C2 C -0.09040 0.39930 -0.02360
O1 O 0.21700 0.40080 -0.31780
O2 O -0.12030 0.14450 -0.24270
O3 O 0.28670 -0.00180 -0.24380
O4 O 0.34310 0.24670 0.29490
C2A C 0.09040 0.60070 0.02360
C1A C -0.02080 0.68450 0.19750
O1A O -0.21700 0.59920 0.31780
O2A O 0.12030 0.85550 0.24270
Mn1A Mn 0.00000 1.00000 0.00000
O2A_2 O 0.12030 -0.14450 0.24270
O3A O -0.28670 0.00180 0.24380
O4A O -0.34310 -0.24670 -0.29490
loop_
_geom_bond_atom_site_label_1
_geom_bond_atom_site_label_2
_geom_bond_site_symmetry_1
_geom_bond_site_symmetry_2
Mn1 O2 1_555 1_555
C1 C2 1_555 1_555
C2 C2A 1_555 1_555
O1 C1 1_555 1_555
O2 C1 1_555 1_555
O3 Mn1 1_555 1_555
O4 Mn1 1_555 1_555
C2A C1A 1_555 1_555
C1A O1A 1_555 1_555
O2A C1A 1_555 1_555
Mn1A O2A 1_555 1_555
O2A_2 Mn1 1_555 1_555
O3A Mn1 1_555 1_555
O4A Mn1 1_555 1_555

#END
