
#######################################################################
#
#                 Cambridge Crystallographic Data Centre
#                                CCDC 
#
#######################################################################
#
# If this CIF has been generated from an entry in the Cambridge 
# Structural Database, then it will include bibliographic, chemical, 
# crystal, experimental, refinement or atomic coordinate data resulting 
# from the CCDC's data processing and validation procedures.
#
#######################################################################

data_TASUCM11
_symmetry_cell_setting           triclinic
_symmetry_space_group_name_H-M   'P -1'
_symmetry_Int_Tables_number      2
_space_group_name_Hall           '-P 1'
loop_
_symmetry_equiv_pos_site_id
_symmetry_equiv_pos_as_xyz
1 x,y,z
2 -x,-y,-z
_cell_length_a                   5.2900(10)
_cell_length_b                   5.4740(10)
_cell_length_c                   7.7750(10)
_cell_angle_alpha                83.410(10)
_cell_angle_beta                 75.840(10)
_cell_angle_gamma                81.190(10)
_cell_volume                     215.025
loop_
_atom_site_label
_atom_site_type_symbol
_atom_site_fract_x
_atom_site_fract_y
_atom_site_fract_z
Mn1 Mn 0.0000 0.0000 0.0000
O1 O 0.2423(3) -0.2645(2) 0.14403(18)
O2 O 0.3095(4) -0.1807(4) 0.4003(2)
C1 C 0.2035(4) -0.2929(4) 0.3141(2)
C2 C 0.0289(5) -0.4890(5) 0.4007(3)
O3 O 0.2378(3) 0.2852(3) 0.0042(2)
O4 O 0.2896(3) -0.0965(3) -0.24624(19)
H1 H 0.214(6) 0.410(6) 0.042(4)
H2 H 0.394(7) 0.278(6) -0.031(5)
H3 H 0.264(7) -0.146(7) -0.330(5)
H4 H 0.426(8) -0.022(7) -0.281(5)
H5 H -0.1357 -0.4509 0.3633
H6 H 0.1134 -0.6482 0.3582
C2A C -0.0289(5) -0.5110(5) 0.5993(3)
C1A C -0.2035(4) -0.7071(4) 0.6859(2)
O1A O -0.2423(3) -0.7355(2) 0.85597(18)
O2A O -0.3095(4) -0.8193(4) 0.5997(2)
H5A H 0.1357 -0.5491 0.6367
H6A H -0.1134 -0.3518 0.6418
O3A O -0.2378(3) -0.2852(3) -0.0042(2)
H1A H -0.214(6) -0.410(6) -0.042(4)
H2A H -0.394(7) -0.278(6) 0.031(5)
O4A O -0.2896(3) 0.0965(3) 0.24624(19)
H3A H -0.264(7) 0.146(7) 0.330(5)
H4A H -0.426(8) 0.022(7) 0.281(5)
O1A_2 O -0.2423(3) 0.2645(2) -0.14403(18)
Mn1_2 Mn 0.0000 -1.0000 1.0000
loop_
_geom_bond_atom_site_label_1
_geom_bond_atom_site_label_2
_geom_bond_site_symmetry_1
_geom_bond_site_symmetry_2
Mn1 O1 1_555 1_555
O1 C1 1_555 1_555
O2 C1 1_555 1_555
C1 C2 1_555 1_555
C2 H5 1_555 1_555
O3 Mn1 1_555 1_555
O4 Mn1 1_555 1_555
H1 O3 1_555 1_555
H2 O3 1_555 1_555
H3 O4 1_555 1_555
H4 O4 1_555 1_555
H6 C2 1_555 1_555
C2A C2 1_555 1_555
C1A C2A 1_555 1_555
O1A C1A 1_555 1_555
O2A C1A 1_555 1_555
H5A C2A 1_555 1_555
H6A C2A 1_555 1_555
O3A Mn1 1_555 1_555
H1A O3A 1_555 1_555
H2A O3A 1_555 1_555
O4A Mn1 1_555 1_555
H3A O4A 1_555 1_555
H4A O4A 1_555 1_555
O1A_2 Mn1 1_555 1_555
Mn1_2 O1A 1_555 1_555

#END
