
#######################################################################
#
#                 Cambridge Crystallographic Data Centre
#                                CCDC 
#
#######################################################################
#
# If this CIF has been generated from an entry in the Cambridge 
# Structural Database, then it will include bibliographic, chemical, 
# crystal, experimental, refinement or atomic coordinate data resulting 
# from the CCDC's data processing and validation procedures.
#
#######################################################################

data_TASVUG
_symmetry_cell_setting           orthorhombic
_symmetry_space_group_name_H-M   'P n n a'
_symmetry_Int_Tables_number      52
_space_group_name_Hall           '-P 2a 2bc'
loop_
_symmetry_equiv_pos_site_id
_symmetry_equiv_pos_as_xyz
1 x,y,z
2 1/2-x,-y,z
3 1/2-x,1/2+y,1/2-z
4 x,1/2-y,1/2-z
5 -x,-y,-z
6 1/2+x,y,-z
7 1/2+x,1/2-y,1/2+z
8 -x,1/2+y,1/2+z
_cell_length_a                   25.73(2)
_cell_length_b                   26.94(3)
_cell_length_c                   15.188(13)
_cell_angle_alpha                90
_cell_angle_beta                 90
_cell_angle_gamma                90
_cell_volume                     10527.8
loop_
_atom_site_label
_atom_site_type_symbol
_atom_site_fract_x
_atom_site_fract_y
_atom_site_fract_z
Tb1 Tb 0.60286(2) 0.183664(19) 0.64990(5)
Cl1 Cl 0.36142(19) 0.37582(13) 0.2030(4)
O1 O 0.4742(5) 0.5577(4) 0.1423(10)
C1 C 0.3777(6) 0.3882(7) 0.4112(13)
H1 H 0.3637 0.4102 0.4567
Cl2 Cl 0.3857(2) 0.47088(18) 0.0852(4)
C2 C 0.3910(5) 0.4288(5) 0.3496(12)
Cl3 Cl 0.45454(15) 0.56709(12) 0.3845(3)
C3 C 0.3838(5) 0.4296(4) 0.2565(13)
Cl4 Cl 0.42174(18) 0.47808(16) 0.5058(3)
C4 C 0.3967(5) 0.4712(5) 0.2044(12)
O2 O 0.5496(3) 0.2532(3) 0.6366(6)
Cl5 Cl 0.4883(2) 0.3640(2) 0.3321(3)
O3 O 0.1618(3) 0.2509(3) 0.3945(6)
C5 C 0.4179(5) 0.5140(4) 0.2392(10)
C6 C 0.4248(5) 0.5154(4) 0.3321(11)
O4 O 0.4005(3) 0.5957(3) 0.1815(6)
Cl6 Cl 0.57008(15) 0.32190(16) 0.4667(3)
Cl7 Cl 0.42901(17) 0.31706(18) 0.7336(4)
O5 O 0.1589(4) 0.3059(4) 0.2741(7)
C7 C 0.4133(5) 0.4733(5) 0.3898(11)
Cl8 Cl 0.34751(14) 0.36484(17) 0.6067(4)
O6 O 0.5495(3) 0.3231(3) 0.7201(7)
C8 C 0.4318(6) 0.5598(4) 0.1841(11)
Cl9 Cl 0.28227(18) 0.44839(12) 0.4289(4)
C9 C 0.4197(5) 0.3633(4) 0.4738(12)
O7 O 0.5254(4) 0.1518(3) 0.5784(8)
H2 H 0.5204 0.1192 0.5890
Cl10 Cl 0.17724(16) 0.39666(15) 0.3979(4)
C10 C 0.4714(5) 0.3516(5) 0.4428(10)
O8 O 0.6075(6) 0.1906(6) 0.4868(12)
H3 H 0.6342 0.1765 0.4577
H4 H 0.5829 0.2072 0.4569
Cl11 Cl 0.27399(15) 0.21840(13) 0.3548(3)
C11 C 0.5072(5) 0.3307(4) 0.5031(10)
O9 O 0.6797(6) 0.1413(5) 0.5867(13)
H5 H 0.6944 0.1596 0.5437
Cl12 Cl 0.37941(14) 0.26894(16) 0.3763(3)
C12 C 0.4960(4) 0.3199(3) 0.5919(10)
C13 C 0.4448(5) 0.3293(4) 0.6221(9)
C14 C 0.4081(5) 0.3515(4) 0.5604(12)
C15 C 0.5353(4) 0.2966(4) 0.6554(9)
C16 C 0.3278(5) 0.3573(4) 0.4023(12)
C17 C 0.2815(5) 0.3855(4) 0.4039(11)
C18 C 0.2331(5) 0.3623(4) 0.3951(11)
C19 C 0.2298(5) 0.3112(4) 0.3689(10)
C20 C 0.2757(5) 0.2834(5) 0.3779(11)
C21 C 0.3244(5) 0.3058(5) 0.3859(11)
C22 C 0.1789(4) 0.2860(5) 0.3481(10)
C23 C 0.4880(9) 0.1725(8) 0.5192(17)
H6 H 0.4948 0.2079 0.5152
H7 H 0.4540 0.1686 0.5459
C24 C 0.4849(19) 0.1520(19) 0.425(2)
H8 H 0.4577 0.1689 0.3932
H9 H 0.4774 0.1171 0.4266
H10 H 0.5174 0.1573 0.3954
C25 C 0.7064(12) 0.0950(8) 0.593(5)
H11 H 0.7414 0.1084 0.5943
H12 H 0.7017 0.0847 0.5328
C26 C 0.720(3) 0.0434(15) 0.631(4)
H13 H 0.7568 0.0410 0.6392
H14 H 0.7086 0.0182 0.5905
H15 H 0.7026 0.0390 0.6864
Tb1E Tb 0.10286(2) 0.183664(19) 0.35010(5)
Tb1G Tb 0.39714(2) 0.683664(19) 0.14990(5)
Tb1F Tb 0.10286(2) 0.316336(19) 0.14990(5)
Tb1C Tb 0.60286(2) 0.316336(19) 0.85010(5)
O3E O 0.6618(3) 0.2509(3) 0.6055(6)
O4G O 0.5995(3) 0.0957(3) 0.6815(6)
O5F O 0.6589(4) 0.1941(4) 0.7741(7)
O6C O 0.5495(3) 0.1769(3) 0.7799(7)
loop_
_geom_bond_atom_site_label_1
_geom_bond_atom_site_label_2
_geom_bond_site_symmetry_1
_geom_bond_site_symmetry_2
Tb1 O2 1_555 1_555
Cl1 C3 1_555 1_555
O1 C8 1_555 1_555
C1 H1 1_555 1_555
Cl2 C4 1_555 1_555
C2 C1 1_555 1_555
Cl3 C6 1_555 1_555
C3 C2 1_555 1_555
Cl4 C7 1_555 1_555
C4 C3 1_555 1_555
O2 C15 1_555 1_555
Cl5 C10 1_555 1_555
O3 C22 1_555 1_555
C5 C4 1_555 1_555
C6 C5 1_555 1_555
O4 C8 1_555 1_555
Cl6 C11 1_555 1_555
Cl7 C13 1_555 1_555
O5 C22 1_555 1_555
C7 C2 1_555 1_555
Cl8 C14 1_555 1_555
O6 C15 1_555 1_555
C8 C5 1_555 1_555
Cl9 C17 1_555 1_555
C9 C1 1_555 1_555
O7 Tb1 1_555 1_555
H2 O7 1_555 1_555
Cl10 C18 1_555 1_555
C10 C9 1_555 1_555
O8 Tb1 1_555 1_555
H3 O8 1_555 1_555
H4 O8 1_555 1_555
Cl11 C20 1_555 1_555
C11 C10 1_555 1_555
O9 Tb1 1_555 1_555
H5 O9 1_555 1_555
Cl12 C21 1_555 1_555
C12 C11 1_555 1_555
C13 C12 1_555 1_555
C14 C9 1_555 1_555
C15 C12 1_555 1_555
C16 C1 1_555 1_555
C17 C16 1_555 1_555
C18 C17 1_555 1_555
C19 C18 1_555 1_555
C20 C19 1_555 1_555
C21 C16 1_555 1_555
C22 C19 1_555 1_555
C23 O7 1_555 1_555
H6 C23 1_555 1_555
H7 C23 1_555 1_555
C24 C23 1_555 1_555
H8 C24 1_555 1_555
H9 C24 1_555 1_555
H10 C24 1_555 1_555
C25 O9 1_555 1_555
H11 C25 1_555 1_555
H12 C25 1_555 1_555
C26 C25 1_555 1_555
H13 C26 1_555 1_555
H14 C26 1_555 1_555
H15 C26 1_555 1_555
Tb1E O3 1_555 1_555
Tb1G O4 1_555 1_555
Tb1F O5 1_555 1_555
Tb1C O6 1_555 1_555
O3E Tb1 1_555 1_555
O4G Tb1 1_555 1_555
O5F Tb1 1_555 1_555
O6C Tb1 1_555 1_555
C6 C7 1_555 1_555
C13 C14 1_555 1_555
C20 C21 1_555 1_555

#END
