
#######################################################################
#
#                 Cambridge Crystallographic Data Centre
#                                CCDC 
#
#######################################################################
#
# If this CIF has been generated from an entry in the Cambridge 
# Structural Database, then it will include bibliographic, chemical, 
# crystal, experimental, refinement or atomic coordinate data resulting 
# from the CCDC's data processing and validation procedures.
#
#######################################################################

data_TASWIU
_symmetry_cell_setting           monoclinic
_symmetry_space_group_name_H-M   'C 2/c'
_symmetry_Int_Tables_number      15
_space_group_name_Hall           '-C 2yn'
loop_
_symmetry_equiv_pos_site_id
_symmetry_equiv_pos_as_xyz
1 x,y,z
2 1/2+x,1/2+y,z
3 -x,y,1/2-z
4 1/2-x,1/2+y,1/2-z
5 -x,-y,-z
6 1/2-x,1/2-y,-z
7 x,-y,1/2+z
8 1/2+x,1/2-y,1/2+z
_cell_length_a                   23.738(3)
_cell_length_b                   12.8470(8)
_cell_length_c                   25.506(2)
_cell_angle_alpha                90
_cell_angle_beta                 116.213(3)
_cell_angle_gamma                90
_cell_volume                     6978.42
loop_
_atom_site_label
_atom_site_type_symbol
_atom_site_fract_x
_atom_site_fract_y
_atom_site_fract_z
O24 O 0.3887(5) -0.0164(8) 0.2041(4)
N3 N 0.2109(6) 0.3806(10) -0.1528(4)
C13 C 0.2306(10) 0.3999(15) -0.2017(7)
H9 H 0.2017 0.3660 -0.2376
H10 H 0.2312 0.4738 -0.2091
C14 C 0.2926(11) 0.3560(18) -0.1808(9)
H11 H 0.3140 0.3619 -0.1390
H12 H 0.3157 0.3929 -0.1978
H13 H 0.2894 0.2839 -0.1917
C15 C 0.2494(10) 0.4253(15) -0.0951(7)
H14 H 0.2275 0.4160 -0.0711
H15 H 0.2883 0.3861 -0.0771
C16 C 0.2646(11) 0.5326(17) -0.0943(9)
H16 H 0.2634 0.5514 -0.1312
H17 H 0.3059 0.5449 -0.0637
H18 H 0.2347 0.5737 -0.0876
C17 C 0.1846(10) 0.2773(14) -0.1501(7)
H19 H 0.2192 0.2287 -0.1327
H20 H 0.1650 0.2826 -0.1240
C18 C 0.1397(10) 0.2337(17) -0.2041(9)
H21 H 0.1069 0.2833 -0.2240
H22 H 0.1220 0.1717 -0.1964
H23 H 0.1600 0.2167 -0.2283
Mo1 Mo 0.49192(3) 0.08841(5) 0.12779(2)
Mo2 Mo 0.52423(4) -0.26571(5) 0.04292(3)
Mo3 Mo 0.39602(3) -0.19838(5) -0.08995(3)
Mo4 Mo 0.38700(3) -0.12223(6) 0.03746(3)
Mo5 Mo 0.63459(3) -0.13810(5) 0.00861(3)
Mo6 Mo 0.62936(3) -0.06019(5) 0.13739(2)
V1 V 0.51291(7) -0.14985(10) 0.14427(5)
Ni1 Ni 0.5000 -0.32003(8) 0.2500
Si1 Si 0.5000 0.0000 0.0000
O1 O 0.4626(4) -0.1134(6) -0.0018(3)
O2 O 0.5553(4) -0.0827(6) 0.0361(3)
O3 O 0.5401(4) 0.0377(6) 0.0662(3)
O4 O 0.4542(4) 0.0217(6) 0.0304(3)
O5 O 0.6636(4) -0.1037(6) 0.0889(3)
O6 O 0.3638(4) -0.1766(8) -0.0350(2)
O7 O 0.5872(4) -0.2489(6) 0.0212(3)
O8 O 0.6460(3) 0.0781(5) 0.1309(4)
O9 O 0.4608(3) -0.2180(6) 0.0717(2)
O10 O 0.5603(3) -0.0219(4) 0.1601(3)
O11 O 0.3464(3) 0.0018(5) 0.0077(3)
O12 O 0.4450(3) -0.0487(4) 0.1114(3)
O13 O 0.5759(3) -0.1902(5) 0.1192(3)
O14 O 0.5356(3) -0.3849(4) 0.0681(2)
O15 O 0.3399(3) -0.1793(5) 0.0600(3)
O16 O 0.6848(3) -0.0934(5) 0.2027(2)
O17 O 0.4894(4) 0.1171(5) 0.1890(2)
O18 O 0.3495(3) -0.2908(4) -0.1318(3)
O19 O 0.6950(3) -0.2037(5) 0.0113(3)
O20 O 0.5162(3) -0.2067(4) 0.20214(19)
O21 O 0.5476(3) 0.1819(5) 0.1266(4)
O22 O 0.4219(3) 0.1515(5) 0.0740(3)
O23 O 0.4626(4) -0.2798(9) -0.0309(2)
N1 N 0.5021(3) -0.4338(4) 0.1932(2)
N2 N 0.4048(3) -0.3299(4) 0.1945(2)
C1 C 0.5500(4) -0.4829(6) 0.1923(3)
H1 H 0.5900 -0.4627 0.2192
C2 C 0.5449(4) -0.5637(6) 0.1538(4)
H2 H 0.5805 -0.5973 0.1558
C3 C 0.4858(5) -0.5924(7) 0.1129(4)
H3 H 0.4810 -0.6451 0.0863
C4 C 0.4327(4) -0.5414(6) 0.1116(3)
C5 C 0.3701(6) -0.5665(8) 0.0728(4)
H4 H 0.3627 -0.6209 0.0466
C6 C 0.3220(5) -0.5161(8) 0.0725(4)
H5 H 0.2816 -0.5337 0.0452
C7 C 0.3307(4) -0.4336(7) 0.1140(3)
C8 C 0.2818(4) -0.3824(8) 0.1191(4)
H6 H 0.2403 -0.4011 0.0954
C9 C 0.2952(4) -0.3041(8) 0.1592(4)
H7 H 0.2630 -0.2667 0.1618
C10 C 0.3578(4) -0.2812(7) 0.1961(4)
H8 H 0.3662 -0.2281 0.2234
C11 C 0.3919(3) -0.4066(5) 0.1537(3)
C12 C 0.4442(3) -0.4600(5) 0.1529(3)
Mo1D Mo 0.50808(3) -0.08841(5) -0.12779(2)
Mo1B Mo 0.50808(3) 0.08841(5) 0.37221(2)
Mo1F Mo 0.49192(3) -0.08841(5) 0.62779(2)
Mo1D_2 Mo 0.50808(3) -0.08841(5) 0.87221(2)
Mo1_2 Mo 0.49192(3) 0.08841(5) 1.12779(2)
Mo2D Mo 0.47577(4) 0.26571(5) -0.04292(3)
Mo2F Mo 0.52423(4) 0.26571(5) 0.54292(3)
Mo2B Mo 0.47577(4) -0.26571(5) 0.45708(3)
Mo2D_2 Mo 0.47577(4) 0.26571(5) 0.95708(3)
Mo2_2 Mo 0.52423(4) -0.26571(5) 1.04292(3)
Mo3D Mo 0.60398(3) 0.19838(5) 0.08995(3)
Mo3F Mo 0.39602(3) 0.19838(5) 0.41005(3)
Mo3B Mo 0.60398(3) -0.19838(5) 0.58995(3)
Mo3_2 Mo 0.39602(3) -0.19838(5) 0.91005(3)
Mo3D_2 Mo 0.60398(3) 0.19838(5) 1.08995(3)
Mo4D Mo 0.61300(3) 0.12223(6) -0.03746(3)
Mo4B Mo 0.61300(3) -0.12223(6) 0.46254(3)
Mo4F Mo 0.38700(3) 0.12223(6) 0.53746(3)
Mo4D_2 Mo 0.61300(3) 0.12223(6) 0.96254(3)
Mo4_2 Mo 0.38700(3) -0.12223(6) 1.03746(3)
Mo5D Mo 0.36541(3) 0.13810(5) -0.00861(3)
Mo5F Mo 0.63459(3) 0.13810(5) 0.50861(3)
Mo5B Mo 0.36541(3) -0.13810(5) 0.49139(3)
Mo5_2 Mo 0.63459(3) -0.13810(5) 1.00861(3)
Mo5D_2 Mo 0.36541(3) 0.13810(5) 0.99139(3)
Mo6D Mo 0.37064(3) 0.06019(5) -0.13739(2)
Mo6F Mo 0.62936(3) 0.06019(5) 0.63739(2)
Mo6B Mo 0.37064(3) -0.06019(5) 0.36261(2)
Mo6D_2 Mo 0.37064(3) 0.06019(5) 0.86261(2)
Mo6_2 Mo 0.62936(3) -0.06019(5) 1.13739(2)
V1D V 0.48709(7) 0.14985(10) -0.14427(5)
V1B V 0.48709(7) -0.14985(10) 0.35573(5)
V1F V 0.51291(7) 0.14985(10) 0.64427(5)
V1D_2 V 0.48709(7) 0.14985(10) 0.85573(5)
V1_2 V 0.51291(7) -0.14985(10) 1.14427(5)
Ni1F Ni 0.5000 0.32003(8) 0.7500
Si1F Si 0.5000 0.0000 0.5000
Si1_2 Si 0.5000 0.0000 1.0000
O1D O 0.5374(4) 0.1134(6) 0.0018(3)
O1F O 0.4626(4) 0.1134(6) 0.4982(3)
O1B O 0.5374(4) -0.1134(6) 0.5018(3)
O1D_2 O 0.5374(4) 0.1134(6) 1.0018(3)
O1_2 O 0.4626(4) -0.1134(6) 0.9982(3)
O2D O 0.4447(4) 0.0827(6) -0.0361(3)
O2F O 0.5553(4) 0.0827(6) 0.5361(3)
O2B O 0.4447(4) -0.0827(6) 0.4639(3)
O2D_2 O 0.4447(4) 0.0827(6) 0.9639(3)
O2_2 O 0.5553(4) -0.0827(6) 1.0361(3)
O3D O 0.4599(4) -0.0377(6) -0.0662(3)
O3B O 0.4599(4) 0.0377(6) 0.4338(3)
O3F O 0.5401(4) -0.0377(6) 0.5662(3)
O3D_2 O 0.4599(4) -0.0377(6) 0.9338(3)
O3_2 O 0.5401(4) 0.0377(6) 1.0662(3)
O4D O 0.5458(4) -0.0217(6) -0.0304(3)
O4B O 0.5458(4) 0.0217(6) 0.4696(3)
O4F O 0.4542(4) -0.0217(6) 0.5304(3)
O4D_2 O 0.5458(4) -0.0217(6) 0.9696(3)
O4_2 O 0.4542(4) 0.0217(6) 1.0304(3)
O5D O 0.3364(4) 0.1037(6) -0.0889(3)
O5F O 0.6636(4) 0.1037(6) 0.5889(3)
O5B O 0.3364(4) -0.1037(6) 0.4111(3)
O5D_2 O 0.3364(4) 0.1037(6) 0.9111(3)
O5_2 O 0.6636(4) -0.1037(6) 1.0889(3)
O6D O 0.6362(4) 0.1766(8) 0.0350(2)
O6B O 0.6362(4) -0.1766(8) 0.5350(2)
O6F O 0.3638(4) 0.1766(8) 0.4650(2)
O6_2 O 0.3638(4) -0.1766(8) 0.9650(2)
O6D_2 O 0.6362(4) 0.1766(8) 1.0350(2)
O7D O 0.4128(4) 0.2489(6) -0.0212(3)
O7F O 0.5872(4) 0.2489(6) 0.5212(3)
O7B O 0.4128(4) -0.2489(6) 0.4788(3)
O7D_2 O 0.4128(4) 0.2489(6) 0.9788(3)
O7_2 O 0.5872(4) -0.2489(6) 1.0212(3)
O8D O 0.3540(3) -0.0781(5) -0.1309(4)
O8F O 0.6460(3) -0.0781(5) 0.6309(4)
O8B O 0.3540(3) 0.0781(5) 0.3691(4)
O8D_2 O 0.3540(3) -0.0781(5) 0.8691(4)
O8_2 O 0.6460(3) 0.0781(5) 1.1309(4)
O9B O 0.5392(3) -0.2180(6) 0.4283(2)
O9F O 0.4608(3) 0.2180(6) 0.5717(2)
O9D O 0.5392(3) 0.2180(6) 0.9283(2)
O9_2 O 0.4608(3) -0.2180(6) 1.0717(2)
O9D_2 O 0.5392(3) 0.2180(6) -0.0717(2)
O10D O 0.4397(3) 0.0219(4) -0.1601(3)
O10B O 0.4397(3) -0.0219(4) 0.3399(3)
O10F O 0.5603(3) 0.0219(4) 0.6601(3)
O10D_2 O 0.4397(3) 0.0219(4) 0.8399(3)
O10_2 O 0.5603(3) -0.0219(4) 1.1601(3)
O11B O 0.6536(3) 0.0018(5) 0.4923(3)
O11F O 0.3464(3) -0.0018(5) 0.5077(3)
O11D O 0.6536(3) -0.0018(5) 0.9923(3)
O11_2 O 0.3464(3) 0.0018(5) 1.0077(3)
O11D_2 O 0.6536(3) -0.0018(5) -0.0077(3)
O12B O 0.5550(3) -0.0487(4) 0.3886(3)
O12F O 0.4450(3) 0.0487(4) 0.6114(3)
O12D O 0.5550(3) 0.0487(4) 0.8886(3)
O12_2 O 0.4450(3) -0.0487(4) 1.1114(3)
O12D_2 O 0.5550(3) 0.0487(4) -0.1114(3)
O13B O 0.4241(3) -0.1902(5) 0.3808(3)
O13F O 0.5759(3) 0.1902(5) 0.6192(3)
O13D O 0.4241(3) 0.1902(5) 0.8808(3)
O13_2 O 0.5759(3) -0.1902(5) 1.1192(3)
O13D_2 O 0.4241(3) 0.1902(5) -0.1192(3)
O14F O 0.5356(3) 0.3849(4) 0.5681(2)
O14_2 O 0.5356(3) -0.3849(4) 1.0681(2)
O14D O 0.4644(3) 0.3849(4) 0.9319(2)
O14B O 0.4644(3) -0.3849(4) 0.4319(2)
O14D_2 O 0.4644(3) 0.3849(4) -0.0681(2)
O15B O 0.6601(3) -0.1793(5) 0.4400(3)
O15F O 0.3399(3) 0.1793(5) 0.5600(3)
O15D O 0.6601(3) 0.1793(5) 0.9400(3)
O15_2 O 0.3399(3) -0.1793(5) 1.0600(3)
O15D_2 O 0.6601(3) 0.1793(5) -0.0600(3)
O16B O 0.3152(3) -0.0934(5) 0.2973(2)
O16F O 0.6848(3) 0.0934(5) 0.7027(2)
O16D O 0.3152(3) 0.0934(5) 0.7973(2)
O16D_2 O 0.3152(3) 0.0934(5) -0.2027(2)
O16_2 O 0.6848(3) -0.0934(5) 1.2027(2)
O17B O 0.5106(4) 0.1171(5) 0.3110(2)
O17D O 0.5106(4) -0.1171(5) 0.8110(2)
O17_2 O 0.4894(4) 0.1171(5) 1.1890(2)
O17F O 0.4894(4) -0.1171(5) 0.6890(2)
O17D_2 O 0.5106(4) -0.1171(5) -0.1890(2)
O18F O 0.3495(3) 0.2908(4) 0.3682(3)
O18_2 O 0.3495(3) -0.2908(4) 0.8682(3)
O18D O 0.6505(3) 0.2908(4) 1.1318(3)
O18B O 0.6505(3) -0.2908(4) 0.6318(3)
O18D_2 O 0.6505(3) 0.2908(4) 0.1318(3)
O19F O 0.6950(3) 0.2037(5) 0.5113(3)
O19B O 0.3050(3) -0.2037(5) 0.4887(3)
O19_2 O 0.6950(3) -0.2037(5) 1.0113(3)
O19D O 0.3050(3) 0.2037(5) 0.9887(3)
O19D_2 O 0.3050(3) 0.2037(5) -0.0113(3)
O20B O 0.4838(3) -0.2067(4) 0.29786(19)
O20F O 0.5162(3) 0.2067(4) 0.70214(19)
O20D O 0.4838(3) 0.2067(4) 0.79786(19)
O20D_2 O 0.4838(3) 0.2067(4) -0.20214(19)
O20_2 O 0.5162(3) -0.2067(4) 1.20214(19)
O21B O 0.4524(3) 0.1819(5) 0.3734(4)
O21D O 0.4524(3) -0.1819(5) 0.8734(4)
O21_2 O 0.5476(3) 0.1819(5) 1.1266(4)
O21F O 0.5476(3) -0.1819(5) 0.6266(4)
O21D_2 O 0.4524(3) -0.1819(5) -0.1266(4)
O22B O 0.5781(3) 0.1515(5) 0.4260(3)
O22F O 0.4219(3) -0.1515(5) 0.5740(3)
O22D O 0.5781(3) -0.1515(5) 0.9260(3)
O22_2 O 0.4219(3) 0.1515(5) 1.0740(3)
O22D_2 O 0.5781(3) -0.1515(5) -0.0740(3)
O23F O 0.4626(4) 0.2798(9) 0.4691(2)
O23_2 O 0.4626(4) -0.2798(9) 0.9691(2)
O23D O 0.5374(4) 0.2798(9) 1.0309(2)
O23B O 0.5374(4) -0.2798(9) 0.5309(2)
O23D_2 O 0.5374(4) 0.2798(9) 0.0309(2)
N1F N 0.5021(3) 0.4338(4) 0.6932(2)
N1D N 0.4979(3) 0.4338(4) 0.8068(2)
N1B N 0.4979(3) -0.4338(4) 0.3068(2)
N2F N 0.4048(3) 0.3299(4) 0.6945(2)
N2D N 0.5952(3) 0.3299(4) 0.8055(2)
N2B N 0.5952(3) -0.3299(4) 0.3055(2)
C1F C 0.5500(4) 0.4829(6) 0.6923(3)
C1D C 0.4500(4) 0.4829(6) 0.8077(3)
C1B C 0.4500(4) -0.4829(6) 0.3077(3)
H1F H 0.5900 0.4627 0.7192
H1D H 0.4100 0.4627 0.7808
H1B H 0.4100 -0.4627 0.2808
C2F C 0.5449(4) 0.5637(6) 0.6538(4)
C2D C 0.4551(4) 0.5637(6) 0.8462(4)
C2B C 0.4551(4) -0.5637(6) 0.3462(4)
H2F H 0.5805 0.5973 0.6558
H2D H 0.4195 0.5973 0.8442
H2B H 0.4195 -0.5973 0.3442
C3F C 0.4858(5) 0.5924(7) 0.6129(4)
C3D C 0.5142(5) 0.5924(7) 0.8871(4)
C3B C 0.5142(5) -0.5924(7) 0.3871(4)
H3F H 0.4810 0.6451 0.5863
H3D H 0.5190 0.6451 0.9137
H3B H 0.5190 -0.6451 0.4137
C4F C 0.4327(4) 0.5414(6) 0.6116(3)
C4D C 0.5673(4) 0.5414(6) 0.8884(3)
C4B C 0.5673(4) -0.5414(6) 0.3884(3)
C5F C 0.3701(6) 0.5665(8) 0.5728(4)
C5D C 0.6299(6) 0.5665(8) 0.9272(4)
C5B C 0.6299(6) -0.5665(8) 0.4272(4)
H4F H 0.3627 0.6209 0.5466
H4D H 0.6373 0.6209 0.9534
H4B H 0.6373 -0.6209 0.4534
C6F C 0.3220(5) 0.5161(8) 0.5725(4)
C6D C 0.6780(5) 0.5161(8) 0.9275(4)
C6B C 0.6780(5) -0.5161(8) 0.4275(4)
H5F H 0.2816 0.5337 0.5452
H5D H 0.7184 0.5337 0.9548
H5B H 0.7184 -0.5337 0.4548
C7F C 0.3307(4) 0.4336(7) 0.6140(3)
C7D C 0.6693(4) 0.4336(7) 0.8860(3)
C7B C 0.6693(4) -0.4336(7) 0.3860(3)
C8F C 0.2818(4) 0.3824(8) 0.6191(4)
C8D C 0.7182(4) 0.3824(8) 0.8809(4)
C8B C 0.7182(4) -0.3824(8) 0.3809(4)
H6F H 0.2403 0.4011 0.5954
H6D H 0.7597 0.4011 0.9046
H6B H 0.7597 -0.4011 0.4046
C9F C 0.2952(4) 0.3041(8) 0.6592(4)
C9D C 0.7048(4) 0.3041(8) 0.8408(4)
C9B C 0.7048(4) -0.3041(8) 0.3408(4)
H7F H 0.2630 0.2667 0.6618
H7D H 0.7370 0.2667 0.8382
H7B H 0.7370 -0.2667 0.3382
C10F C 0.3578(4) 0.2812(7) 0.6961(4)
C10D C 0.6422(4) 0.2812(7) 0.8039(4)
C10B C 0.6422(4) -0.2812(7) 0.3039(4)
H8D H 0.6338 0.2281 0.7766
H8F H 0.3662 0.2281 0.7234
H8B H 0.6338 -0.2281 0.2766
C11D C 0.6081(3) 0.4066(5) 0.8463(3)
C11F C 0.3919(3) 0.4066(5) 0.6537(3)
C11B C 0.6081(3) -0.4066(5) 0.3463(3)
C12D C 0.5558(3) 0.4600(5) 0.8471(3)
C12F C 0.4442(3) 0.4600(5) 0.6529(3)
C12B C 0.5558(3) -0.4600(5) 0.3471(3)
loop_
_geom_bond_atom_site_label_1
_geom_bond_atom_site_label_2
_geom_bond_site_symmetry_1
_geom_bond_site_symmetry_2
Mo1 V1 1_555 1_555
Mo2 V1 1_555 1_555
Mo3 O1 1_555 1_555
Mo4 V1 1_555 1_555
Mo5 O2 1_555 1_555
Mo6 V1 1_555 1_555
V1 O9 1_555 1_555
Ni1 O20 1_555 1_555
Si1 O1 1_555 1_555
O1 Mo2 1_555 1_555
O2 Mo2 1_555 1_555
O3 Mo1 1_555 1_555
O4 Mo1 1_555 1_555
O5 Mo5 1_555 1_555
O6 Mo3 1_555 1_555
O7 Mo2 1_555 1_555
O8 Mo6 1_555 1_555
O9 Mo2 1_555 1_555
O10 Mo1 1_555 1_555
O11 Mo4 1_555 1_555
O12 Mo1 1_555 1_555
O13 Mo2 1_555 1_555
O14 Mo2 1_555 1_555
O15 Mo4 1_555 1_555
O16 Mo6 1_555 1_555
O17 Mo1 1_555 1_555
O18 Mo3 1_555 1_555
O19 Mo5 1_555 1_555
O20 V1 1_555 1_555
O21 Mo1 1_555 1_555
O22 Mo1 1_555 1_555
O23 Mo2 1_555 1_555
N1 Ni1 1_555 1_555
N2 Ni1 1_555 1_555
N3 C13 1_555 1_555
C1 N1 1_555 1_555
H1 C1 1_555 1_555
C2 C1 1_555 1_555
H2 C2 1_555 1_555
C3 C2 1_555 1_555
H3 C3 1_555 1_555
C4 C3 1_555 1_555
C5 C4 1_555 1_555
H4 C5 1_555 1_555
C6 C5 1_555 1_555
H5 C6 1_555 1_555
C7 C6 1_555 1_555
C8 C7 1_555 1_555
H6 C8 1_555 1_555
C9 C8 1_555 1_555
H7 C9 1_555 1_555
C10 N2 1_555 1_555
H8 C10 1_555 1_555
C11 N2 1_555 1_555
C12 N1 1_555 1_555
C13 H9 1_555 1_555
H10 C13 1_555 1_555
C14 C13 1_555 1_555
H11 C14 1_555 1_555
H12 C14 1_555 1_555
H13 C14 1_555 1_555
C15 N3 1_555 1_555
H14 C15 1_555 1_555
H15 C15 1_555 1_555
C16 C15 1_555 1_555
H16 C16 1_555 1_555
H17 C16 1_555 1_555
H18 C16 1_555 1_555
C17 N3 1_555 1_555
H19 C17 1_555 1_555
H20 C17 1_555 1_555
C18 C17 1_555 1_555
H21 C18 1_555 1_555
H22 C18 1_555 1_555
H23 C18 1_555 1_555
Mo1D V1D 1_555 1_555
Mo1B V1B 1_555 1_555
Mo1F V1F 1_555 1_555
Mo1D_2 V1D_2 1_555 1_555
Mo1_2 V1_2 1_555 1_555
Mo2D V1D 1_555 1_555
Mo2F V1F 1_555 1_555
Mo2B V1B 1_555 1_555
Mo2D_2 V1D_2 1_555 1_555
Mo2_2 V1_2 1_555 1_555
Mo3D O3 1_555 1_555
Mo3F O1F 1_555 1_555
Mo3B O1B 1_555 1_555
Mo3_2 O1_2 1_555 1_555
Mo3D_2 O1D_2 1_555 1_555
Mo4D V1D 1_555 1_555
Mo4B V1B 1_555 1_555
Mo4F V1F 1_555 1_555
Mo4D_2 V1D_2 1_555 1_555
Mo4_2 V1_2 1_555 1_555
Mo5D O4 1_555 1_555
Mo5F O2F 1_555 1_555
Mo5B O2B 1_555 1_555
Mo5_2 O2_2 1_555 1_555
Mo5D_2 O2D_2 1_555 1_555
Mo6D V1D 1_555 1_555
Mo6F V1F 1_555 1_555
Mo6B V1B 1_555 1_555
Mo6D_2 V1D_2 1_555 1_555
Mo6_2 V1_2 1_555 1_555
V1D O9D_2 1_555 1_555
V1B O9B 1_555 1_555
V1F O9F 1_555 1_555
V1D_2 O9D 1_555 1_555
V1_2 O9_2 1_555 1_555
Ni1F O20F 1_555 1_555
Si1F O1F 1_555 1_555
Si1_2 O1D_2 1_555 1_555
O1D Si1 1_555 1_555
O1F Mo2F 1_555 1_555
O1B Mo2B 1_555 1_555
O1D_2 Mo2D_2 1_555 1_555
O1_2 Mo2_2 1_555 1_555
O2D Si1 1_555 1_555
O2F Mo2F 1_555 1_555
O2B Mo2B 1_555 1_555
O2D_2 Mo2D_2 1_555 1_555
O2_2 Mo2_2 1_555 1_555
O3D Mo3 1_555 1_555
O3B Mo1B 1_555 1_555
O3F Mo1F 1_555 1_555
O3D_2 Mo1D_2 1_555 1_555
O3_2 Mo1_2 1_555 1_555
O4D Mo5 1_555 1_555
O4B Mo1B 1_555 1_555
O4F Mo1F 1_555 1_555
O4D_2 Mo1D_2 1_555 1_555
O4_2 Mo1_2 1_555 1_555
O5D Mo5D 1_555 1_555
O5F Mo5F 1_555 1_555
O5B Mo5B 1_555 1_555
O5D_2 Mo5D_2 1_555 1_555
O5_2 Mo5_2 1_555 1_555
O6D Mo3D 1_555 1_555
O6B Mo3B 1_555 1_555
O6F Mo3F 1_555 1_555
O6_2 Mo3_2 1_555 1_555
O6D_2 Mo3D_2 1_555 1_555
O7D Mo2D 1_555 1_555
O7F Mo2F 1_555 1_555
O7B Mo2B 1_555 1_555
O7D_2 Mo2D_2 1_555 1_555
O7_2 Mo2_2 1_555 1_555
O8D Mo3 1_555 1_555
O8F Mo3B 1_555 1_555
O8B Mo3F 1_555 1_555
O8D_2 Mo3_2 1_555 1_555
O8_2 Mo3D_2 1_555 1_555
O9B Mo2B 1_555 1_555
O9F Mo2F 1_555 1_555
O9D Mo2D_2 1_555 1_555
O9_2 Mo2_2 1_555 1_555
O9D_2 Mo2D 1_555 1_555
O10D Mo1D 1_555 1_555
O10B Mo1B 1_555 1_555
O10F Mo1F 1_555 1_555
O10D_2 Mo1D_2 1_555 1_555
O10_2 Mo1_2 1_555 1_555
O11B Mo4B 1_555 1_555
O11F Mo4F 1_555 1_555
O11D Mo4D_2 1_555 1_555
O11_2 Mo4_2 1_555 1_555
O11D_2 Mo5 1_555 1_555
O12B Mo1B 1_555 1_555
O12F Mo1F 1_555 1_555
O12D Mo1D_2 1_555 1_555
O12_2 Mo1_2 1_555 1_555
O12D_2 Mo1D 1_555 1_555
O13B Mo2B 1_555 1_555
O13F Mo2F 1_555 1_555
O13D Mo2D_2 1_555 1_555
O13_2 Mo2_2 1_555 1_555
O13D_2 Mo2D 1_555 1_555
O14F Mo2F 1_555 1_555
O14_2 Mo2_2 1_555 1_555
O14D Mo2D_2 1_555 1_555
O14B Mo2B 1_555 1_555
O14D_2 Mo2D 1_555 1_555
O15B Mo4B 1_555 1_555
O15F Mo4F 1_555 1_555
O15D Mo4D_2 1_555 1_555
O15_2 Mo4_2 1_555 1_555
O15D_2 Mo4D 1_555 1_555
O16B Mo6B 1_555 1_555
O16F Mo6F 1_555 1_555
O16D Mo6D_2 1_555 1_555
O16D_2 Mo6D 1_555 1_555
O16_2 Mo6_2 1_555 1_555
O17B Mo1B 1_555 1_555
O17D Mo1D_2 1_555 1_555
O17_2 Mo1_2 1_555 1_555
O17F Mo1F 1_555 1_555
O17D_2 Mo1D 1_555 1_555
O18F Mo3F 1_555 1_555
O18_2 Mo3_2 1_555 1_555
O18D Mo3D_2 1_555 1_555
O18B Mo3B 1_555 1_555
O18D_2 Mo3D 1_555 1_555
O19F Mo5F 1_555 1_555
O19B Mo5B 1_555 1_555
O19_2 Mo5_2 1_555 1_555
O19D Mo5D_2 1_555 1_555
O19D_2 Mo5D 1_555 1_555
O20B Ni1 1_555 1_555
O20F V1F 1_555 1_555
O20D V1D_2 1_555 1_555
O20D_2 V1D 1_555 1_555
O20_2 V1_2 1_555 1_555
O21B Mo1B 1_555 1_555
O21D Mo1D_2 1_555 1_555
O21_2 Mo1_2 1_555 1_555
O21F Mo1F 1_555 1_555
O21D_2 Mo3 1_555 1_555
O22B Mo1B 1_555 1_555
O22F Mo1F 1_555 1_555
O22D Mo1D_2 1_555 1_555
O22_2 Mo1_2 1_555 1_555
O22D_2 Mo5 1_555 1_555
O23F Mo2F 1_555 1_555
O23_2 Mo2_2 1_555 1_555
O23D Mo2D_2 1_555 1_555
O23B Mo2B 1_555 1_555
O23D_2 Mo2D 1_555 1_555
N1F Ni1F 1_555 1_555
N1D Ni1F 1_555 1_555
N1B Ni1 1_555 1_555
N2F Ni1F 1_555 1_555
N2D Ni1F 1_555 1_555
N2B Ni1 1_555 1_555
C1F N1F 1_555 1_555
C1D N1D 1_555 1_555
C1B N1B 1_555 1_555
H1F C1F 1_555 1_555
H1D C1D 1_555 1_555
H1B C1B 1_555 1_555
C2F C1F 1_555 1_555
C2D C1D 1_555 1_555
C2B C1B 1_555 1_555
H2F C2F 1_555 1_555
H2D C2D 1_555 1_555
H2B C2B 1_555 1_555
C3F C2F 1_555 1_555
C3D C2D 1_555 1_555
C3B C2B 1_555 1_555
H3F C3F 1_555 1_555
H3D C3D 1_555 1_555
H3B C3B 1_555 1_555
C4F C3F 1_555 1_555
C4D C3D 1_555 1_555
C4B C3B 1_555 1_555
C5F C4F 1_555 1_555
C5D C4D 1_555 1_555
C5B C4B 1_555 1_555
H4F C5F 1_555 1_555
H4D C5D 1_555 1_555
H4B C5B 1_555 1_555
C6F C5F 1_555 1_555
C6D C5D 1_555 1_555
C6B C5B 1_555 1_555
H5F C6F 1_555 1_555
H5D C6D 1_555 1_555
H5B C6B 1_555 1_555
C7F C6F 1_555 1_555
C7D C6D 1_555 1_555
C7B C6B 1_555 1_555
C8F C7F 1_555 1_555
C8D C7D 1_555 1_555
C8B C7B 1_555 1_555
H6F C8F 1_555 1_555
H6D C8D 1_555 1_555
H6B C8B 1_555 1_555
C9F C8F 1_555 1_555
C9D C8D 1_555 1_555
C9B C8B 1_555 1_555
H7F C9F 1_555 1_555
H7D C9D 1_555 1_555
H7B C9B 1_555 1_555
C10F N2F 1_555 1_555
C10D N2D 1_555 1_555
C10B N2B 1_555 1_555
H8D C10D 1_555 1_555
H8F C10F 1_555 1_555
H8B C10B 1_555 1_555
C11D N2D 1_555 1_555
C11F N2F 1_555 1_555
C11B N2B 1_555 1_555
C12D N1D 1_555 1_555
C12F N1F 1_555 1_555
C12B N1B 1_555 1_555
Mo3 O23 1_555 1_555
Mo4 O1 1_555 1_555
Mo4 O4 1_555 1_555
Mo4 O6 1_555 1_555
Mo4 O9 1_555 1_555
Mo4 O12 1_555 1_555
Mo5 O7 1_555 1_555
Mo6 O2 1_555 1_555
Mo6 O3 1_555 1_555
Mo6 O5 1_555 1_555
Mo6 O10 1_555 1_555
Mo6 O13 1_555 1_555
V1 O10 1_555 1_555
V1 O12 1_555 1_555
V1 O13 1_555 1_555
Si1 O2 1_555 1_555
Si1 O3 1_555 1_555
Si1 O4 1_555 1_555
Si1 O3D 1_555 1_555
Si1 O4D 1_555 1_555
O8 Mo3D 1_555 1_555
O11 Mo5D 1_555 1_555
O21 Mo3D 1_555 1_555
O22 Mo5D 1_555 1_555
C4 C12 1_555 1_555
C7 C11 1_555 1_555
C9 C10 1_555 1_555
C11 C12 1_555 1_555
Mo1D O3D 1_555 1_555
Mo1D O4D 1_555 1_555
Mo1D O21D_2 1_555 1_555
Mo1D O22D_2 1_555 1_555
Mo2D O1D 1_555 1_555
Mo2D O2D 1_555 1_555
Mo3D O1D 1_555 1_555
Mo3D O23D_2 1_555 1_555
Mo3F O3B 1_555 1_555
Mo3F O21B 1_555 1_555
Mo3F O23F 1_555 1_555
Mo3B O3F 1_555 1_555
Mo3B O21F 1_555 1_555
Mo3B O23B 1_555 1_555
Mo3_2 O3D_2 1_555 1_555
Mo3_2 O21D 1_555 1_555
Mo3_2 O23_2 1_555 1_555
Mo3D_2 O3_2 1_555 1_555
Mo3D_2 O21_2 1_555 1_555
Mo3D_2 O23D 1_555 1_555
Mo4D O1D 1_555 1_555
Mo4D O4D 1_555 1_555
Mo4D O6D 1_555 1_555
Mo4D O9D_2 1_555 1_555
Mo4D O11D_2 1_555 1_555
Mo4D O12D_2 1_555 1_555
Mo4B O1B 1_555 1_555
Mo4B O4B 1_555 1_555
Mo4B O6B 1_555 1_555
Mo4B O9B 1_555 1_555
Mo4B O12B 1_555 1_555
Mo4F O1F 1_555 1_555
Mo4F O4F 1_555 1_555
Mo4F O6F 1_555 1_555
Mo4F O9F 1_555 1_555
Mo4F O12F 1_555 1_555
Mo4D_2 O1D_2 1_555 1_555
Mo4D_2 O4D_2 1_555 1_555
Mo4D_2 O6D_2 1_555 1_555
Mo4D_2 O9D 1_555 1_555
Mo4D_2 O12D 1_555 1_555
Mo4_2 O1_2 1_555 1_555
Mo4_2 O4_2 1_555 1_555
Mo4_2 O6_2 1_555 1_555
Mo4_2 O9_2 1_555 1_555
Mo4_2 O12_2 1_555 1_555
Mo5D O2D 1_555 1_555
Mo5D O7D 1_555 1_555
Mo5F O4B 1_555 1_555
Mo5F O7F 1_555 1_555
Mo5F O11B 1_555 1_555
Mo5F O22B 1_555 1_555
Mo5B O4F 1_555 1_555
Mo5B O7B 1_555 1_555
Mo5B O11F 1_555 1_555
Mo5B O22F 1_555 1_555
Mo5_2 O4D_2 1_555 1_555
Mo5_2 O7_2 1_555 1_555
Mo5_2 O11D 1_555 1_555
Mo5_2 O22D 1_555 1_555
Mo5D_2 O4_2 1_555 1_555
Mo5D_2 O7D_2 1_555 1_555
Mo5D_2 O11_2 1_555 1_555
Mo5D_2 O22_2 1_555 1_555
Mo6D O2D 1_555 1_555
Mo6D O3D 1_555 1_555
Mo6D O5D 1_555 1_555
Mo6D O8D 1_555 1_555
Mo6D O10D 1_555 1_555
Mo6D O13D_2 1_555 1_555
Mo6F O2F 1_555 1_555
Mo6F O3F 1_555 1_555
Mo6F O5F 1_555 1_555
Mo6F O8F 1_555 1_555
Mo6F O10F 1_555 1_555
Mo6F O13F 1_555 1_555
Mo6B O2B 1_555 1_555
Mo6B O3B 1_555 1_555
Mo6B O5B 1_555 1_555
Mo6B O8B 1_555 1_555
Mo6B O10B 1_555 1_555
Mo6B O13B 1_555 1_555
Mo6D_2 O2D_2 1_555 1_555
Mo6D_2 O3D_2 1_555 1_555
Mo6D_2 O5D_2 1_555 1_555
Mo6D_2 O8D_2 1_555 1_555
Mo6D_2 O10D_2 1_555 1_555
Mo6D_2 O13D 1_555 1_555
Mo6_2 O2_2 1_555 1_555
Mo6_2 O3_2 1_555 1_555
Mo6_2 O5_2 1_555 1_555
Mo6_2 O8_2 1_555 1_555
Mo6_2 O10_2 1_555 1_555
Mo6_2 O13_2 1_555 1_555
V1D O10D 1_555 1_555
V1D O12D_2 1_555 1_555
V1D O13D_2 1_555 1_555
V1B O10B 1_555 1_555
V1B O12B 1_555 1_555
V1B O13B 1_555 1_555
V1B O20B 1_555 1_555
V1F O10F 1_555 1_555
V1F O12F 1_555 1_555
V1F O13F 1_555 1_555
V1D_2 O10D_2 1_555 1_555
V1D_2 O12D 1_555 1_555
V1D_2 O13D 1_555 1_555
V1_2 O10_2 1_555 1_555
V1_2 O12_2 1_555 1_555
V1_2 O13_2 1_555 1_555
Ni1F O20D 1_555 1_555
Si1F O1B 1_555 1_555
Si1F O2F 1_555 1_555
Si1F O2B 1_555 1_555
Si1F O3B 1_555 1_555
Si1F O3F 1_555 1_555
Si1F O4B 1_555 1_555
Si1F O4F 1_555 1_555
Si1_2 O1_2 1_555 1_555
Si1_2 O2D_2 1_555 1_555
Si1_2 O2_2 1_555 1_555
Si1_2 O3D_2 1_555 1_555
Si1_2 O3_2 1_555 1_555
Si1_2 O4D_2 1_555 1_555
Si1_2 O4_2 1_555 1_555
C4F C12F 1_555 1_555
C4D C12D 1_555 1_555
C4B C12B 1_555 1_555
C7F C11F 1_555 1_555
C7D C11D 1_555 1_555
C7B C11B 1_555 1_555
C9F C10F 1_555 1_555
C9D C10D 1_555 1_555
C9B C10B 1_555 1_555
C11D C12D 1_555 1_555
C11F C12F 1_555 1_555
C11B C12B 1_555 1_555

#END
