
#######################################################################
#
#                 Cambridge Crystallographic Data Centre
#                                CCDC 
#
#######################################################################
#
# If this CIF has been generated from an entry in the Cambridge 
# Structural Database, then it will include bibliographic, chemical, 
# crystal, experimental, refinement or atomic coordinate data resulting 
# from the CCDC's data processing and validation procedures.
#
#######################################################################

data_TASWEQ
_symmetry_cell_setting           monoclinic
_symmetry_space_group_name_H-M   'P 21/c'
_symmetry_Int_Tables_number      14
_space_group_name_Hall           '-P 2ybc'
loop_
_symmetry_equiv_pos_site_id
_symmetry_equiv_pos_as_xyz
1 x,y,z
2 -x,1/2+y,1/2-z
3 -x,-y,-z
4 x,1/2-y,1/2+z
_cell_length_a                   21.8202(15)
_cell_length_b                   16.5372(11)
_cell_length_c                   21.2228(15)
_cell_angle_alpha                90
_cell_angle_beta                 100.3940(10)
_cell_angle_gamma                90
_cell_volume                     7532.47
loop_
_atom_site_label
_atom_site_type_symbol
_atom_site_fract_x
_atom_site_fract_y
_atom_site_fract_z
Mo7 Mo -0.10562(5) 0.12544(6) -0.10831(5)
Mo8 Mo -0.05934(5) -0.06277(6) -0.15826(5)
Mo9 Mo 0.09946(4) -0.01833(6) -0.11642(5)
Mo10 Mo -0.16318(4) -0.04475(6) -0.03886(5)
Mo11 Mo 0.05373(4) 0.17352(5) -0.07391(4)
Mo12 Mo -0.04868(4) 0.19309(5) 0.04793(4)
Co2 Co -0.18673(6) -0.32650(8) -0.18149(7)
Si2 Si 0.0000 0.0000 0.0000
V2 V -0.09545(8) -0.19915(10) -0.07095(8)
O3 O -0.1869(4) -0.2107(4) -0.2270(4)
H1 H -0.1516 -0.1919 -0.2201
O27 O -0.0166(6) 0.0925(8) -0.0223(7)
O28 O 0.0548(5) 0.0376(7) -0.0303(6)
O29 O -0.0638(5) 0.0011(7) -0.0587(6)
O30 O 0.0176(4) -0.0368(6) -0.1679(5)
O31 O -0.1637(6) 0.0528(5) -0.0780(6)
O32 O 0.0177(5) -0.0508(8) -0.0581(6)
O33 O -0.0901(6) 0.0387(5) -0.1657(6)
O34 O -0.0990(3) 0.1877(7) -0.0303(4)
O35 O 0.1589(4) 0.0029(5) -0.0395(5)
O36 O 0.0827(4) 0.0973(5) -0.1211(4)
O37 O -0.1533(3) 0.1844(5) -0.1571(4)
O38 O 0.1455(4) -0.0239(5) -0.1694(5)
O39 O -0.0659(4) 0.2850(5) 0.0711(5)
O40 O 0.0810(4) 0.2584(5) -0.1010(4)
O41 O -0.2374(3) -0.0715(5) -0.0583(4)
O42 O -0.0884(3) -0.0996(4) -0.2308(3)
O43 O 0.0962(4) -0.1289(5) -0.0896(5)
O44 O -0.1276(5) -0.0986(5) -0.1113(5)
O45 O -0.1363(3) -0.2799(4) -0.0985(3)
O46 O -0.0256(3) 0.1697(7) -0.1172(4)
O47 O -0.1254(3) -0.1510(5) 0.0000(3)
O48 O -0.0289(3) -0.1699(5) -0.1149(4)
O49 O -0.0246(3) -0.2217(6) -0.0043(3)
N1 N -0.1007(4) -0.3659(6) -0.2034(4)
N2 N -0.1820(4) -0.4473(5) -0.1471(4)
N3 N -0.2727(4) -0.2921(5) -0.1573(5)
N4 N -0.2486(4) -0.3529(5) -0.2683(5)
C1 C -0.0584(5) -0.3229(7) -0.2253(6)
H2 H -0.0680 -0.2698 -0.2377
C2 C 0.0012(6) -0.3531(10) -0.2311(6)
H3 H 0.0296 -0.3206 -0.2473
C3 C 0.0154(6) -0.4271(10) -0.2132(6)
H4 H 0.0548 -0.4468 -0.2160
C4 C -0.0286(6) -0.4800(8) -0.1891(6)
C5 C -0.0192(7) -0.5631(10) -0.1707(8)
H5 H 0.0169 -0.5892 -0.1772
C6 C -0.0607(7) -0.6037(9) -0.1447(8)
H6 H -0.0525 -0.6568 -0.1313
C7 C -0.1174(6) -0.5669(7) -0.1372(7)
C8 C -0.1623(7) -0.6064(8) -0.1085(8)
H7 H -0.1568 -0.6605 -0.0969
C9 C -0.2124(7) -0.5677(9) -0.0978(7)
H8 H -0.2413 -0.5938 -0.0777
C10 C -0.2218(5) -0.4857(7) -0.1174(7)
H9 H -0.2567 -0.4584 -0.1091
C11 C -0.0852(5) -0.4421(7) -0.1843(5)
C12 C -0.1298(5) -0.4875(6) -0.1563(5)
C13 C -0.2822(5) -0.2558(6) -0.1041(6)
H10 H -0.2488 -0.2471 -0.0709
C14 C -0.3425(6) -0.2301(7) -0.0972(7)
H11 H -0.3485 -0.2064 -0.0591
C15 C -0.3906(6) -0.2398(7) -0.1448(8)
H12 H -0.4298 -0.2208 -0.1404
C16 C -0.3826(5) -0.2787(7) -0.2017(7)
C17 C -0.4308(5) -0.2928(8) -0.2562(8)
H13 H -0.4719 -0.2818 -0.2531
C18 C -0.4180(6) -0.3216(7) -0.3118(7)
H14 H -0.4503 -0.3291 -0.3463
C19 C -0.3572(5) -0.3404(6) -0.3186(6)
C20 C -0.3403(7) -0.3624(8) -0.3759(7)
H15 H -0.3704 -0.3653 -0.4130
C21 C -0.2808(8) -0.3797(9) -0.3782(7)
H16 H -0.2695 -0.3959 -0.4165
C22 C -0.2358(6) -0.3730(8) -0.3225(7)
H17 H -0.1945 -0.3837 -0.3251
C23 C -0.3203(5) -0.3037(6) -0.2048(6)
C24 C -0.3074(5) -0.3343(6) -0.2647(6)
Mo7B Mo 0.10562(5) -0.12544(6) 0.10831(5)
Mo8B Mo 0.05934(5) 0.06277(6) 0.15826(5)
Mo9B Mo -0.09946(4) 0.01833(6) 0.11642(5)
Mo10B Mo 0.16318(4) 0.04475(6) 0.03886(5)
Mo11B Mo -0.05373(4) -0.17352(5) 0.07391(4)
Mo12B Mo 0.04868(4) -0.19309(5) -0.04793(4)
Co2B Co 0.18673(6) 0.32650(8) 0.18149(7)
V2B V 0.09545(8) 0.19915(10) 0.07095(8)
O3B O 0.1869(4) 0.2107(4) 0.2270(4)
H1B H 0.1516 0.1919 0.2201
O27B O 0.0166(6) -0.0925(8) 0.0223(7)
O28B O -0.0548(5) -0.0376(7) 0.0303(6)
O29B O 0.0638(5) -0.0011(7) 0.0587(6)
O30B O -0.0176(4) 0.0368(6) 0.1679(5)
O31B O 0.1637(6) -0.0528(5) 0.0780(6)
O32B O -0.0177(5) 0.0508(8) 0.0581(6)
O33B O 0.0901(6) -0.0387(5) 0.1657(6)
O34B O 0.0990(3) -0.1877(7) 0.0303(4)
O35B O -0.1589(4) -0.0029(5) 0.0395(5)
O36B O -0.0827(4) -0.0973(5) 0.1211(4)
O37B O 0.1533(3) -0.1844(5) 0.1571(4)
O38B O -0.1455(4) 0.0239(5) 0.1694(5)
O39B O 0.0659(4) -0.2850(5) -0.0711(5)
O40B O -0.0810(4) -0.2584(5) 0.1010(4)
O41B O 0.2374(3) 0.0715(5) 0.0583(4)
O42B O 0.0884(3) 0.0996(4) 0.2308(3)
O43B O -0.0962(4) 0.1289(5) 0.0896(5)
O44B O 0.1276(5) 0.0986(5) 0.1113(5)
O45B O 0.1363(3) 0.2799(4) 0.0985(3)
O46B O 0.0256(3) -0.1697(7) 0.1172(4)
O47B O 0.1254(3) 0.1510(5) 0.0000(3)
O48B O 0.0289(3) 0.1699(5) 0.1149(4)
O49B O 0.0246(3) 0.2217(6) 0.0043(3)
N1B N 0.1007(4) 0.3659(6) 0.2034(4)
N2B N 0.1820(4) 0.4473(5) 0.1471(4)
N3B N 0.2727(4) 0.2921(5) 0.1573(5)
N4B N 0.2486(4) 0.3529(5) 0.2683(5)
C1B C 0.0584(5) 0.3229(7) 0.2253(6)
H2B H 0.0680 0.2698 0.2377
C2B C -0.0012(6) 0.3531(10) 0.2311(6)
H3B H -0.0296 0.3206 0.2473
C3B C -0.0154(6) 0.4271(10) 0.2132(6)
H4B H -0.0548 0.4468 0.2160
C4B C 0.0286(6) 0.4800(8) 0.1891(6)
C5B C 0.0192(7) 0.5631(10) 0.1707(8)
H5B H -0.0169 0.5892 0.1772
C6B C 0.0607(7) 0.6037(9) 0.1447(8)
H6B H 0.0525 0.6568 0.1313
C7B C 0.1174(6) 0.5669(7) 0.1372(7)
C8B C 0.1623(7) 0.6064(8) 0.1085(8)
H7B H 0.1568 0.6605 0.0969
C9B C 0.2124(7) 0.5677(9) 0.0978(7)
H8B H 0.2413 0.5938 0.0777
C10B C 0.2218(5) 0.4857(7) 0.1174(7)
H9B H 0.2567 0.4584 0.1091
C11B C 0.0852(5) 0.4421(7) 0.1843(5)
C12B C 0.1298(5) 0.4875(6) 0.1563(5)
C13B C 0.2822(5) 0.2558(6) 0.1041(6)
H10B H 0.2488 0.2471 0.0709
C14B C 0.3425(6) 0.2301(7) 0.0972(7)
H11B H 0.3485 0.2064 0.0591
C15B C 0.3906(6) 0.2398(7) 0.1448(8)
H12B H 0.4298 0.2208 0.1404
C16B C 0.3826(5) 0.2787(7) 0.2017(7)
C17B C 0.4308(5) 0.2928(8) 0.2562(8)
H13B H 0.4719 0.2818 0.2531
C18B C 0.4180(6) 0.3216(7) 0.3118(7)
H14B H 0.4503 0.3291 0.3463
C19B C 0.3572(5) 0.3404(6) 0.3186(6)
C20B C 0.3403(7) 0.3624(8) 0.3759(7)
H15B H 0.3704 0.3653 0.4130
C21B C 0.2808(8) 0.3797(9) 0.3782(7)
H16B H 0.2695 0.3959 0.4165
C22B C 0.2358(6) 0.3730(8) 0.3225(7)
H17B H 0.1945 0.3837 0.3251
C23B C 0.3203(5) 0.3037(6) 0.2048(6)
C24B C 0.3074(5) 0.3343(6) 0.2647(6)
O1 O 0.1908(5) 0.1825(7) 0.3539(5)
O6 O 0.0175(18) 0.430(2) 0.013(2)
Mo1 Mo 0.44601(4) 0.62562(6) -0.13664(5)
Mo2 Mo 0.35065(4) 0.40162(5) -0.02297(5)
Mo3 Mo 0.35917(4) 0.88634(6) -0.51473(4)
Mo4 Mo 0.51232(4) 0.78494(5) -0.49161(4)
Mo5 Mo 0.56817(4) 0.91497(5) -0.34981(4)
Mo6 Mo 0.41425(4) 1.01603(5) -0.37318(4)
Co1 Co 0.36797(6) 0.67380(8) -0.30453(7)
Si1 Si 0.5000 0.5000 0.0000
V1 V 0.43969(7) 0.83305(9) -0.38499(8)
O2 O 0.4951(5) 0.5062(7) -0.0769(6)
O4 O 0.4555(5) 0.4288(7) -0.0353(5)
O5 O 0.5687(5) 0.5009(7) -0.0183(6)
O7 O 0.4648(5) 0.5890(7) -0.0257(5)
O8 O 0.3771(4) 0.6330(7) -0.0933(4)
O9 O 0.4854(4) 0.7075(7) -0.0783(4)
O10 O 0.3676(4) 0.4025(6) -0.1083(4)
O11 O 0.4069(4) 0.3102(5) -0.0075(4)
O12 O 0.2832(3) 0.3556(6) -0.0330(4)
O13 O 0.5164(3) 0.6855(4) -0.4813(3)
O14 O 0.3767(4) 1.0155(4) -0.3116(4)
O15 O 0.5276(3) 0.5942(4) -0.1516(5)
O16 O 0.4244(4) 0.8032(6) -0.4744(3)
O17 O 0.3640(4) 0.4225(4) 0.0682(4)
O18 O 0.4173(4) 0.5217(4) -0.1675(6)
O19 O 0.3257(5) 0.5135(4) -0.0335(4)
O20 O 0.4767(3) 0.9276(4) -0.3413(4)
O21 O 0.4187(3) 0.7644(4) -0.3373(3)
O22 O 0.5951(3) 0.8757(4) -0.2791(4)
O23 O 0.2950(3) 0.8341(5) -0.5157(4)
O24 O 0.3780(3) 0.9135(4) -0.4189(3)
O25 O 0.4238(3) 0.6779(4) -0.2041(3)
O26 O 0.5237(3) 0.8196(4) -0.3975(3)
N5 N 0.3111(4) 0.7590(6) -0.2673(4)
N6 N 0.3059(4) 0.5971(6) -0.2687(4)
N7 N 0.3214(4) 0.6555(5) -0.3992(4)
N8 N 0.4223(4) 0.5813(5) -0.3360(4)
C25 C 0.3150(7) 0.8363(8) -0.2681(7)
H18 H 0.3430 0.8603 -0.2905
C26 C 0.2787(10) 0.8854(12) -0.2364(9)
H19 H 0.2839 0.9411 -0.2379
C27 C 0.2394(10) 0.8580(15) -0.2062(8)
H20 H 0.2166 0.8925 -0.1846
C28 C 0.2295(6) 0.7682(14) -0.2050(7)
C29 C 0.1900(14) 0.722(3) -0.1721(17)
H21 H 0.1664 0.7506 -0.1474
C30 C 0.1839(16) 0.647(3) -0.1731(17)
H22 H 0.1530 0.6227 -0.1547
C31 C 0.2260(8) 0.5992(14) -0.2035(8)
C32 C 0.2235(8) 0.5169(19) -0.2089(10)
H23 H 0.1947 0.4891 -0.1898
C33 C 0.2607(8) 0.4742(11) -0.2405(9)
H24 H 0.2586 0.4181 -0.2414
C34 C 0.3028(6) 0.5154(8) -0.2723(7)
H25 H 0.3281 0.4868 -0.2954
C35 C 0.2705(5) 0.7226(9) -0.2364(5)
C36 C 0.2673(5) 0.6375(9) -0.2359(5)
C37 C 0.4705(5) 0.5396(7) -0.3048(6)
H26 H 0.4845 0.5517 -0.2618
C38 C 0.5008(6) 0.4803(7) -0.3316(7)
H27 H 0.5330 0.4516 -0.3065
C39 C 0.4842(6) 0.4632(8) -0.3946(7)
H28 H 0.5049 0.4235 -0.4136
C40 C 0.4362(6) 0.5056(8) -0.4296(6)
C41 C 0.4152(8) 0.4925(10) -0.4981(8)
H29 H 0.4368 0.4576 -0.5206
C42 C 0.3651(10) 0.5311(9) -0.5277(7)
H30 H 0.3514 0.5199 -0.5709
C43 C 0.3299(6) 0.5894(7) -0.4978(6)
C44 C 0.2744(7) 0.6273(8) -0.5265(6)
H31 H 0.2585 0.6182 -0.5696
C45 C 0.2445(6) 0.6757(9) -0.4930(7)
H32 H 0.2072 0.6993 -0.5125
C46 C 0.2685(5) 0.6923(7) -0.4279(6)
H33 H 0.2480 0.7283 -0.4051
C47 C 0.4038(5) 0.5634(6) -0.4004(5)
C48 C 0.3505(5) 0.6056(6) -0.4328(5)
Mo1B Mo 0.55399(4) 0.37438(6) 0.13664(5)
Mo1C Mo 0.44601(4) 0.87438(6) -0.63664(5)
Mo1A Mo 0.55399(4) 1.12562(6) -0.36336(5)
Mo2B Mo 0.64935(4) 0.59838(5) 0.02297(5)
Mo2C Mo 0.35065(4) 1.09838(5) -0.52297(5)
Mo2A Mo 0.64935(4) 0.90162(5) -0.47703(5)
Mo3A Mo 0.64083(4) 0.38634(6) 0.01473(4)
Mo3C Mo 0.35917(4) 0.61366(6) -0.01473(4)
Mo3B Mo 0.64083(4) 0.11366(6) 0.51473(4)
Mo4A Mo 0.48768(4) 0.28494(5) -0.00839(4)
Mo4C Mo 0.51232(4) 0.71506(5) 0.00839(4)
Mo4B Mo 0.48768(4) 0.21506(5) 0.49161(4)
Mo5A Mo 0.43183(4) 0.41497(5) -0.15019(4)
Mo5C Mo 0.56817(4) 0.58503(5) 0.15019(4)
Mo5B Mo 0.43183(4) 0.08503(5) 0.34981(4)
Mo6A Mo 0.58575(4) 0.51603(5) -0.12682(4)
Mo6C Mo 0.41425(4) 0.48397(5) 0.12682(4)
Mo6B Mo 0.58575(4) -0.01603(5) 0.37318(4)
Co1B Co 0.63203(6) 0.32620(8) 0.30453(7)
V1B V 0.56031(7) 0.16695(9) 0.38499(8)
V1A V 0.56031(7) 0.33305(9) -0.11501(8)
O2B O 0.5049(5) 0.4938(7) 0.0769(6)
O2A O 0.5049(5) 1.0062(7) -0.4231(6)
O4B O 0.5445(5) 0.5712(7) 0.0353(5)
O4A O 0.5445(5) 0.9288(7) -0.4647(5)
O5B O 0.4313(5) 0.4991(7) 0.0183(6)
O5A O 0.4313(5) 1.0009(7) -0.4817(6)
O7B O 0.5352(5) 0.4110(7) 0.0257(5)
O7C O 0.4648(5) 0.9110(7) -0.5257(5)
O8C O 0.3771(4) 0.8670(7) -0.5933(4)
O8B O 0.6229(4) 0.3670(7) 0.0933(4)
O9C O 0.4854(4) 0.7925(7) -0.5783(4)
O9B O 0.5146(4) 0.2925(7) 0.0783(4)
O10A O 0.6324(4) 0.9025(6) -0.3917(4)
O10B O 0.6324(4) 0.5975(6) 0.1083(4)
O11A O 0.5931(4) 0.8102(5) -0.4925(4)
O11B O 0.5931(4) 0.6898(5) 0.0075(4)
O12B O 0.7168(3) 0.6444(6) 0.0330(4)
O13A O 0.4836(3) 0.1855(4) -0.0187(3)
O14A O 0.6233(4) 0.5155(4) -0.1884(4)
O15A O 0.4724(3) 1.0942(4) -0.3484(5)
O15B O 0.4724(3) 0.4058(4) 0.1516(5)
O16B O 0.5756(4) 0.1968(6) 0.4744(3)
O16A O 0.5756(4) 0.3032(6) -0.0256(3)
O17C O 0.3640(4) 1.0775(4) -0.4318(4)
O17B O 0.6360(4) 0.5775(4) -0.0682(4)
O18A O 0.5827(4) 1.0217(4) -0.3325(6)
O18B O 0.5827(4) 0.4783(4) 0.1675(6)
O19C O 0.3257(5) 0.9865(4) -0.5335(4)
O19B O 0.6743(5) 0.4865(4) 0.0335(4)
O20B O 0.5233(3) 0.0724(4) 0.3413(4)
O20A O 0.5233(3) 0.4276(4) -0.1587(4)
O21B O 0.5813(3) 0.2356(4) 0.3373(3)
O22A O 0.4049(3) 0.3757(4) -0.2209(4)
O23A O 0.7050(3) 0.3341(5) 0.0157(4)
O24B O 0.6220(3) 0.0865(4) 0.4189(3)
O24A O 0.6220(3) 0.4135(4) -0.0811(3)
O25B O 0.5762(3) 0.3221(4) 0.2041(3)
O26B O 0.4763(3) 0.1804(4) 0.3975(3)
O26A O 0.4763(3) 0.3196(4) -0.1025(3)
N5B N 0.6889(4) 0.2410(6) 0.2673(4)
N6B N 0.6941(4) 0.4029(6) 0.2687(4)
N7B N 0.6786(4) 0.3445(5) 0.3992(4)
N8B N 0.5777(4) 0.4187(5) 0.3360(4)
C25B C 0.6850(7) 0.1637(8) 0.2681(7)
H18B H 0.6570 0.1397 0.2905
C26B C 0.7213(10) 0.1146(12) 0.2364(9)
H19B H 0.7161 0.0589 0.2379
C27B C 0.7606(10) 0.1420(15) 0.2062(8)
H20B H 0.7834 0.1075 0.1846
C28B C 0.7705(6) 0.2318(14) 0.2050(7)
C29B C 0.8100(14) 0.278(3) 0.1721(17)
H21B H 0.8336 0.2494 0.1474
C30B C 0.8161(16) 0.353(3) 0.1731(17)
H22B H 0.8470 0.3773 0.1547
C31B C 0.7740(8) 0.4008(14) 0.2035(8)
C32B C 0.7765(8) 0.4831(19) 0.2089(10)
H23B H 0.8053 0.5109 0.1898
C33B C 0.7393(8) 0.5258(11) 0.2405(9)
H24B H 0.7414 0.5819 0.2414
C34B C 0.6972(6) 0.4846(8) 0.2723(7)
H25B H 0.6719 0.5132 0.2954
C35B C 0.7295(5) 0.2774(9) 0.2364(5)
C36B C 0.7327(5) 0.3625(9) 0.2359(5)
C37B C 0.5295(5) 0.4604(7) 0.3048(6)
H26B H 0.5155 0.4483 0.2618
C38B C 0.4992(6) 0.5197(7) 0.3316(7)
H27B H 0.4670 0.5484 0.3065
C39B C 0.5158(6) 0.5368(8) 0.3946(7)
H28B H 0.4951 0.5765 0.4136
C40B C 0.5638(6) 0.4944(8) 0.4296(6)
C41B C 0.5848(8) 0.5075(10) 0.4981(8)
H29B H 0.5632 0.5424 0.5206
C42B C 0.6349(10) 0.4689(9) 0.5277(7)
H30B H 0.6486 0.4801 0.5709
C43B C 0.6701(6) 0.4106(7) 0.4978(6)
C44B C 0.7256(7) 0.3727(8) 0.5265(6)
H31B H 0.7415 0.3818 0.5696
C45B C 0.7555(6) 0.3243(9) 0.4930(7)
H32B H 0.7928 0.3007 0.5125
C46B C 0.7315(5) 0.3077(7) 0.4279(6)
H33B H 0.7520 0.2717 0.4051
C47B C 0.5962(5) 0.4366(6) 0.4004(5)
C48B C 0.6495(5) 0.3944(6) 0.4328(5)
loop_
_geom_bond_atom_site_label_1
_geom_bond_atom_site_label_2
_geom_bond_site_symmetry_1
_geom_bond_site_symmetry_2
Mo1 O2 1_555 1_555
Mo2 O4 1_555 1_555
Mo3 O16 1_555 1_555
Mo4 O13 1_555 1_555
Mo5 O20 1_555 1_555
Mo6 O14 1_555 1_555
Mo7 O27 1_555 1_555
Mo8 O29 1_555 1_555
Mo9 O28 1_555 1_555
Mo10 O29 1_555 1_555
Mo11 O27 1_555 1_555
Mo12 O27 1_555 1_555
Co1 O21 1_555 1_555
Co2 O3 1_555 1_555
Si1 O2 1_555 1_555
Si2 O27 1_555 1_555
V1 O16 1_555 1_555
V2 O44 1_555 1_555
O2 Mo5A 1_555 1_555
O3 H1 1_555 1_555
O4 Si1 1_555 1_555
O5 Si1 1_555 1_555
O7 Mo1 1_555 1_555
O8 Mo1 1_555 1_555
O9 Mo1 1_555 1_555
O10 Mo2 1_555 1_555
O11 Mo2 1_555 1_555
O12 Mo2 1_555 1_555
O15 Mo1 1_555 1_555
O16 Mo4 1_555 1_555
O17 Mo2 1_555 1_555
O18 Mo1 1_555 1_555
O19 Mo2 1_555 1_555
O20 Mo6 1_555 1_555
O21 V1 1_555 1_555
O22 Mo5 1_555 1_555
O23 Mo3 1_555 1_555
O24 Mo3 1_555 1_555
O25 Mo1 1_555 1_555
O26 Mo4 1_555 1_555
O27 O28 1_555 1_555
O28 Mo11 1_555 1_555
O29 Mo7 1_555 1_555
O30 Mo8 1_555 1_555
O31 Mo7 1_555 1_555
O32 Mo8 1_555 1_555
O33 Mo7 1_555 1_555
O34 Mo7 1_555 1_555
O35 Mo9 1_555 1_555
O36 Mo9 1_555 1_555
O37 Mo7 1_555 1_555
O38 Mo9 1_555 1_555
O39 Mo12 1_555 1_555
O40 Mo11 1_555 1_555
O41 Mo10 1_555 1_555
O42 Mo8 1_555 1_555
O43 Mo9 1_555 1_555
O44 Mo8 1_555 1_555
O45 Co2 1_555 1_555
O46 Mo7 1_555 1_555
O47 Mo10 1_555 1_555
O48 Mo8 1_555 1_555
O49 V2 1_555 1_555
N1 Co2 1_555 1_555
N2 Co2 1_555 1_555
N3 Co2 1_555 1_555
N4 Co2 1_555 1_555
N5 Co1 1_555 1_555
N6 Co1 1_555 1_555
N7 Co1 1_555 1_555
N8 Co1 1_555 1_555
C1 N1 1_555 1_555
H2 C1 1_555 1_555
C2 C1 1_555 1_555
H3 C2 1_555 1_555
C3 C2 1_555 1_555
H4 C3 1_555 1_555
C4 C3 1_555 1_555
C5 C4 1_555 1_555
H5 C5 1_555 1_555
C6 C5 1_555 1_555
H6 C6 1_555 1_555
C7 C6 1_555 1_555
C8 C7 1_555 1_555
H7 C8 1_555 1_555
C9 C8 1_555 1_555
H8 C9 1_555 1_555
C10 N2 1_555 1_555
H9 C10 1_555 1_555
C11 N1 1_555 1_555
C12 N2 1_555 1_555
C13 N3 1_555 1_555
H10 C13 1_555 1_555
C14 C13 1_555 1_555
H11 C14 1_555 1_555
C15 C14 1_555 1_555
H12 C15 1_555 1_555
C16 C15 1_555 1_555
C17 C16 1_555 1_555
H13 C17 1_555 1_555
C18 C17 1_555 1_555
H14 C18 1_555 1_555
C19 C18 1_555 1_555
C20 C19 1_555 1_555
H15 C20 1_555 1_555
C21 C20 1_555 1_555
H16 C21 1_555 1_555
C22 N4 1_555 1_555
H17 C22 1_555 1_555
C23 N3 1_555 1_555
C24 N4 1_555 1_555
C25 N5 1_555 1_555
H18 C25 1_555 1_555
C26 C25 1_555 1_555
H19 C26 1_555 1_555
C27 C26 1_555 1_555
H20 C27 1_555 1_555
C28 C27 1_555 1_555
C29 C28 1_555 1_555
H21 C29 1_555 1_555
C30 C29 1_555 1_555
H22 C30 1_555 1_555
C31 C30 1_555 1_555
C32 C31 1_555 1_555
H23 C32 1_555 1_555
C33 C32 1_555 1_555
H24 C33 1_555 1_555
C34 N6 1_555 1_555
H25 C34 1_555 1_555
C35 N5 1_555 1_555
C36 N6 1_555 1_555
C37 N8 1_555 1_555
H26 C37 1_555 1_555
C38 C37 1_555 1_555
H27 C38 1_555 1_555
C39 C38 1_555 1_555
H28 C39 1_555 1_555
C40 C39 1_555 1_555
C41 C40 1_555 1_555
H29 C41 1_555 1_555
C42 C41 1_555 1_555
H30 C42 1_555 1_555
C43 C42 1_555 1_555
C44 C43 1_555 1_555
H31 C44 1_555 1_555
C45 C44 1_555 1_555
H32 C45 1_555 1_555
C46 N7 1_555 1_555
H33 C46 1_555 1_555
C47 N8 1_555 1_555
C48 N7 1_555 1_555
Mo1B O2B 1_555 1_555
Mo1C O7C 1_555 1_555
Mo1A O2A 1_555 1_555
Mo2B O5 1_555 1_555
Mo2C O5A 1_555 1_555
Mo2A O4A 1_555 1_555
Mo3A O5 1_555 1_555
Mo3C O7 1_555 1_555
Mo3B O16B 1_555 1_555
Mo4A O4 1_555 1_555
Mo4C O7 1_555 1_555
Mo4B O16B 1_555 1_555
Mo5A O4 1_555 1_555
Mo5C O2B 1_555 1_555
Mo5B O20B 1_555 1_555
Mo6A O2 1_555 1_555
Mo6C O17 1_555 1_555
Mo6B O20B 1_555 1_555
Mo7B O27B 1_555 1_555
Mo8B O29B 1_555 1_555
Mo9B O28B 1_555 1_555
Mo10B O35 1_555 1_555
Mo11B O47 1_555 1_555
Mo12B O32 1_555 1_555
Co1B O21B 1_555 1_555
Co2B O3B 1_555 1_555
V1B O16B 1_555 1_555
V1A O16A 1_555 1_555
V2B O44B 1_555 1_555
O2B Si1 1_555 1_555
O2A Mo5 1_555 1_555
O3B H1B 1_555 1_555
O4B Si1 1_555 1_555
O4A Mo4 1_555 1_555
O5B Mo2 1_555 1_555
O5A Mo3 1_555 1_555
O7B Si1 1_555 1_555
O7C Mo3 1_555 1_555
O8C Mo3 1_555 1_555
O8B Mo1B 1_555 1_555
O9C Mo4 1_555 1_555
O9B Mo1B 1_555 1_555
O10A Mo5 1_555 1_555
O10B Mo2B 1_555 1_555
O11A Mo4 1_555 1_555
O11B Mo2B 1_555 1_555
O12B Mo2B 1_555 1_555
O13A Mo4A 1_555 1_555
O14A Mo6A 1_555 1_555
O15A Mo6 1_555 1_555
O15B Mo1B 1_555 1_555
O16A Mo3A 1_555 1_555
O17C Mo6 1_555 1_555
O17B Mo2B 1_555 1_555
O18A Mo5 1_555 1_555
O18B Mo1B 1_555 1_555
O19C Mo3 1_555 1_555
O19B Mo2B 1_555 1_555
O20B V1B 1_555 1_555
O20A Mo5A 1_555 1_555
O21B V1B 1_555 1_555
O22A Mo5A 1_555 1_555
O23A Mo3A 1_555 1_555
O24B Mo3B 1_555 1_555
O24A Mo3A 1_555 1_555
O25B Mo1B 1_555 1_555
O26B Mo4B 1_555 1_555
O26A Mo4A 1_555 1_555
O27B Si2 1_555 1_555
O28B Si2 1_555 1_555
O29B Si2 1_555 1_555
O30B Mo8B 1_555 1_555
O31B Mo7B 1_555 1_555
O32B Mo12 1_555 1_555
O33B Mo7B 1_555 1_555
O34B Mo7B 1_555 1_555
O35B Mo10 1_555 1_555
O36B Mo9B 1_555 1_555
O37B Mo7B 1_555 1_555
O38B Mo9B 1_555 1_555
O39B Mo12B 1_555 1_555
O40B Mo11B 1_555 1_555
O41B Mo10B 1_555 1_555
O42B Mo8B 1_555 1_555
O43B Mo12 1_555 1_555
O44B Mo8B 1_555 1_555
O45B Co2B 1_555 1_555
O46B Mo7B 1_555 1_555
O47B Mo11 1_555 1_555
O48B Mo12 1_555 1_555
O49B Mo11 1_555 1_555
N1B Co2B 1_555 1_555
N2B Co2B 1_555 1_555
N3B Co2B 1_555 1_555
N4B Co2B 1_555 1_555
N5B Co1B 1_555 1_555
N6B Co1B 1_555 1_555
N7B Co1B 1_555 1_555
N8B Co1B 1_555 1_555
C1B N1B 1_555 1_555
H2B C1B 1_555 1_555
C2B C1B 1_555 1_555
H3B C2B 1_555 1_555
C3B C2B 1_555 1_555
H4B C3B 1_555 1_555
C4B C3B 1_555 1_555
C5B C4B 1_555 1_555
H5B C5B 1_555 1_555
C6B C5B 1_555 1_555
H6B C6B 1_555 1_555
C7B C6B 1_555 1_555
C8B C7B 1_555 1_555
H7B C8B 1_555 1_555
C9B C8B 1_555 1_555
H8B C9B 1_555 1_555
C10B N2B 1_555 1_555
H9B C10B 1_555 1_555
C11B N1B 1_555 1_555
C12B N2B 1_555 1_555
C13B N3B 1_555 1_555
H10B C13B 1_555 1_555
C14B C13B 1_555 1_555
H11B C14B 1_555 1_555
C15B C14B 1_555 1_555
H12B C15B 1_555 1_555
C16B C15B 1_555 1_555
C17B C16B 1_555 1_555
H13B C17B 1_555 1_555
C18B C17B 1_555 1_555
H14B C18B 1_555 1_555
C19B C18B 1_555 1_555
C20B C19B 1_555 1_555
H15B C20B 1_555 1_555
C21B C20B 1_555 1_555
H16B C21B 1_555 1_555
C22B N4B 1_555 1_555
H17B C22B 1_555 1_555
C23B N3B 1_555 1_555
C24B N4B 1_555 1_555
C25B N5B 1_555 1_555
H18B C25B 1_555 1_555
C26B C25B 1_555 1_555
H19B C26B 1_555 1_555
C27B C26B 1_555 1_555
H20B C27B 1_555 1_555
C28B C27B 1_555 1_555
C29B C28B 1_555 1_555
H21B C29B 1_555 1_555
C30B C29B 1_555 1_555
H22B C30B 1_555 1_555
C31B C30B 1_555 1_555
C32B C31B 1_555 1_555
H23B C32B 1_555 1_555
C33B C32B 1_555 1_555
H24B C33B 1_555 1_555
C34B N6B 1_555 1_555
H25B C34B 1_555 1_555
C35B N5B 1_555 1_555
C36B N6B 1_555 1_555
C37B N8B 1_555 1_555
H26B C37B 1_555 1_555
C38B C37B 1_555 1_555
H27B C38B 1_555 1_555
C39B C38B 1_555 1_555
H28B C39B 1_555 1_555
C40B C39B 1_555 1_555
C41B C40B 1_555 1_555
H29B C41B 1_555 1_555
C42B C41B 1_555 1_555
H30B C42B 1_555 1_555
C43B C42B 1_555 1_555
C44B C43B 1_555 1_555
H31B C44B 1_555 1_555
C45B C44B 1_555 1_555
H32B C45B 1_555 1_555
C46B N7B 1_555 1_555
H33B C46B 1_555 1_555
C47B N8B 1_555 1_555
C48B N7B 1_555 1_555
Mo4 O7C 1_555 1_555
Mo5 O26 1_555 1_555
Mo5 O4A 1_555 1_555
Mo6 O24 1_555 1_555
Mo6 O2A 1_555 1_555
Mo6 O5A 1_555 1_555
Mo8 O33 1_555 1_555
Mo9 O30 1_555 1_555
Mo9 O32 1_555 1_555
Mo10 O31 1_555 1_555
Mo10 O44 1_555 1_555
Mo11 O36 1_555 1_555
Mo11 O46 1_555 1_555
Mo12 O34 1_555 1_555
Mo12 O49B 1_555 1_555
Co1 O25 1_555 1_555
Si1 O7 1_555 1_555
Si1 O5B 1_555 1_555
Si2 O28 1_555 1_555
Si2 O29 1_555 1_555
Si2 O32 1_555 1_555
Si2 O32B 1_555 1_555
V1 O20 1_555 1_555
V1 O24 1_555 1_555
V1 O26 1_555 1_555
V2 O45 1_555 1_555
V2 O47 1_555 1_555
V2 O48 1_555 1_555
O4 O5B 1_555 1_555
O5 Mo6A 1_555 1_555
O5 O4B 1_555 1_555
O8 Mo3C 1_555 1_555
O9 Mo4C 1_555 1_555
O10 Mo5A 1_555 1_555
O11 Mo4A 1_555 1_555
O15 Mo6A 1_555 1_555
O18 Mo5A 1_555 1_555
O19 Mo3C 1_555 1_555
O28 O32 1_555 1_555
O43 Mo12B 1_555 1_555
O48 Mo12B 1_555 1_555
O49 Mo11B 1_555 1_555
O49 Mo12B 1_555 1_555
C4 C11 1_555 1_555
C7 C12 1_555 1_555
C9 C10 1_555 1_555
C11 C12 1_555 1_555
C16 C23 1_555 1_555
C19 C24 1_555 1_555
C21 C22 1_555 1_555
C23 C24 1_555 1_555
C28 C35 1_555 1_555
C31 C36 1_555 1_555
C33 C34 1_555 1_555
C35 C36 1_555 1_555
C40 C47 1_555 1_555
C43 C48 1_555 1_555
C45 C46 1_555 1_555
C47 C48 1_555 1_555
Mo1B O7B 1_555 1_555
Mo1C O8C 1_555 1_555
Mo1C O9C 1_555 1_555
Mo1A O15A 1_555 1_555
Mo1A O18A 1_555 1_555
Mo2B O4B 1_555 1_555
Mo2C O17C 1_555 1_555
Mo2C O19C 1_555 1_555
Mo2A O10A 1_555 1_555
Mo2A O11A 1_555 1_555
Mo3A O7B 1_555 1_555
Mo3A O8B 1_555 1_555
Mo3A O19B 1_555 1_555
Mo3C O5B 1_555 1_555
Mo4A O7B 1_555 1_555
Mo4A O9B 1_555 1_555
Mo4A O16A 1_555 1_555
Mo4C O4B 1_555 1_555
Mo4C O11B 1_555 1_555
Mo5A O26A 1_555 1_555
Mo5C O4B 1_555 1_555
Mo5C O10B 1_555 1_555
Mo5C O18B 1_555 1_555
Mo5B O26B 1_555 1_555
Mo6A O17B 1_555 1_555
Mo6A O20A 1_555 1_555
Mo6A O24A 1_555 1_555
Mo6C O2B 1_555 1_555
Mo6C O5B 1_555 1_555
Mo6C O15B 1_555 1_555
Mo6B O24B 1_555 1_555
Mo7B O29B 1_555 1_555
Mo8B O32B 1_555 1_555
Mo8B O33B 1_555 1_555
Mo8B O48B 1_555 1_555
Mo9B O30B 1_555 1_555
Mo9B O32B 1_555 1_555
Mo9B O35B 1_555 1_555
Mo9B O43B 1_555 1_555
Mo10B O29B 1_555 1_555
Mo10B O31B 1_555 1_555
Mo10B O44B 1_555 1_555
Mo10B O47B 1_555 1_555
Mo11B O27B 1_555 1_555
Mo11B O28B 1_555 1_555
Mo11B O36B 1_555 1_555
Mo11B O46B 1_555 1_555
Mo12B O27B 1_555 1_555
Mo12B O34B 1_555 1_555
Co1B O25B 1_555 1_555
V1B O24B 1_555 1_555
V1B O26B 1_555 1_555
V1A O20A 1_555 1_555
V1A O24A 1_555 1_555
V1A O26A 1_555 1_555
V2B O45B 1_555 1_555
V2B O47B 1_555 1_555
V2B O48B 1_555 1_555
V2B O49B 1_555 1_555
O27B O28B 1_555 1_555
O28B O32B 1_555 1_555
C4B C11B 1_555 1_555
C7B C12B 1_555 1_555
C9B C10B 1_555 1_555
C11B C12B 1_555 1_555
C16B C23B 1_555 1_555
C19B C24B 1_555 1_555
C21B C22B 1_555 1_555
C23B C24B 1_555 1_555
C28B C35B 1_555 1_555
C31B C36B 1_555 1_555
C33B C34B 1_555 1_555
C35B C36B 1_555 1_555
C40B C47B 1_555 1_555
C43B C48B 1_555 1_555
C45B C46B 1_555 1_555
C47B C48B 1_555 1_555

#END
