
#######################################################################
#
#                 Cambridge Crystallographic Data Centre
#                                CCDC 
#
#######################################################################
#
# If this CIF has been generated from an entry in the Cambridge 
# Structural Database, then it will include bibliographic, chemical, 
# crystal, experimental, refinement or atomic coordinate data resulting 
# from the CCDC's data processing and validation procedures.
#
#######################################################################

data_TASWOA
_symmetry_cell_setting           monoclinic
_symmetry_space_group_name_H-M   'P 21/c'
_symmetry_Int_Tables_number      14
_space_group_name_Hall           '-P 2ybc'
loop_
_symmetry_equiv_pos_site_id
_symmetry_equiv_pos_as_xyz
1 x,y,z
2 -x,1/2+y,1/2-z
3 -x,-y,-z
4 x,1/2-y,1/2+z
_cell_length_a                   21.8169(9)
_cell_length_b                   16.5716(7)
_cell_length_c                   21.2571(9)
_cell_angle_alpha                90
_cell_angle_beta                 100.2430(10)
_cell_angle_gamma                90
_cell_volume                     7562.83
loop_
_atom_site_label
_atom_site_type_symbol
_atom_site_fract_x
_atom_site_fract_y
_atom_site_fract_z
Mo7 Mo 1.59955(6) 1.48268(8) -0.11743(6)
Mo8 Mo 1.55364(6) 1.67435(8) -0.07407(6)
Mo9 Mo 1.45054(6) 1.69254(7) 0.04859(6)
Mo10 Mo 1.66373(6) 1.54467(8) 0.03838(8)
Mo11 Mo 1.55973(8) 1.56272(8) 0.15864(6)
Mo12 Mo 1.60603(7) 1.37461(9) 0.10813(7)
Ge2 Ge 1.5000 1.5000 0.0000
V2 V 1.59550(11) 1.69937(14) 0.07111(11)
Co2 Co 1.68657(9) 1.82540(12) 0.18189(10)
O24 O 1.5596(8) 1.5395(10) -0.0330(8)
O25 O 1.4812(8) 1.5534(11) 0.0617(8)
O26 O 1.5156(9) 1.4010(11) 0.0216(9)
O27 O 1.4309(8) 1.5003(11) -0.0629(8)
O28 O 1.6447(7) 1.4770(8) -0.1724(7)
O29 O 1.5971(6) 1.3712(8) -0.0897(7)
O30 O 1.5828(8) 1.5981(8) -0.1207(7)
O31 O 1.5254(5) 1.7232(10) 0.0047(5)
O32 O 1.6544(6) 1.3156(8) 0.1567(6)
O33 O 1.7379(5) 1.5726(8) 0.0574(6)
O34 O 1.5804(7) 1.7585(7) -0.1018(5)
O35 O 1.5289(5) 1.6698(7) 0.1140(6)
O36 O 1.4336(5) 1.7841(7) 0.0733(7)
O37 O 1.6248(6) 1.6499(7) 0.0006(5)
O38 O 1.6357(5) 1.7790(6) 0.0991(5)
O39 O 1.5888(5) 1.5990(7) 0.2309(5)
O40 O 1.6647(11) 1.4474(8) 0.0793(11)
O41 O 1.5185(6) 1.4640(9) -0.1691(8)
O42 O 1.4001(6) 1.6859(14) -0.0291(6)
O43 O 1.4738(6) 1.6712(13) -0.1169(6)
O44 O 1.5904(10) 1.4604(8) 0.1654(11)
O45 O 1.6595(7) 1.5031(8) -0.0405(7)
O46 O 1.6289(8) 1.5994(8) 0.1106(8)
N5 N 1.7722(6) 1.7904(8) 0.1565(7)
N6 N 1.7483(6) 1.8522(7) 0.2681(7)
N7 N 1.6002(6) 1.8648(8) 0.2044(6)
N8 N 1.6823(6) 1.9473(7) 0.1491(6)
C25 C 1.7818(10) 1.7544(14) 0.1046(11)
H17 H 1.7481 1.7462 0.0717
C26 C 1.8400(11) 1.7278(14) 0.0963(12)
H18 H 1.8458 1.7031 0.0585
C27 C 1.8884(9) 1.7390(10) 0.1456(12)
H19 H 1.9274 1.7197 0.1410
C28 C 1.8830(8) 1.7772(10) 0.2015(9)
C29 C 1.9295(8) 1.7926(12) 0.2550(12)
H20 H 1.9706 1.7829 0.2511
C30 C 1.9184(9) 1.8204(12) 0.3114(12)
H21 H 1.9512 1.8273 0.3455
C31 C 1.8566(8) 1.8391(10) 0.3185(9)
C32 C 1.8408(10) 1.8612(12) 0.3759(11)
H22 H 1.8709 1.8629 0.4128
C33 C 1.7804(11) 1.8806(15) 0.3779(10)
H23 H 1.7697 1.8979 0.4162
C34 C 1.7345(10) 1.8748(14) 0.3230(9)
H24 H 1.6934 1.8872 0.3256
C35 C 1.8076(9) 1.8322(11) 0.2636(8)
C36 C 1.8202(7) 1.8018(9) 0.2047(8)
C37 C 1.5575(8) 1.8203(11) 0.2264(8)
H25 H 1.5671 1.7673 0.2387
C38 C 1.4990(9) 1.8507(14) 0.2315(9)
H26 H 1.4702 1.8179 0.2467
C39 C 1.4844(8) 1.9275(13) 0.2146(8)
H27 H 1.4452 1.9476 0.2178
C40 C 1.5282(8) 1.9780(13) 0.1919(8)
C41 C 1.5184(10) 2.0599(14) 0.1733(10)
H28 H 1.4810 2.0841 0.1780
C42 C 1.5601(11) 2.1041(14) 0.1495(11)
H29 H 1.5521 2.1578 0.1384
C43 C 1.6171(8) 2.0667(10) 0.1416(8)
C44 C 1.6621(10) 2.1060(12) 0.1134(10)
H30 H 1.6563 2.1601 0.1024
C45 C 1.7131(11) 2.0684(13) 0.1017(10)
H31 H 1.7414 2.0950 0.0810
C46 C 1.7230(8) 1.9866(10) 0.1217(9)
H32 H 1.7590 1.9603 0.1153
C47 C 1.6305(7) 1.9877(10) 0.1594(7)
C48 C 1.5850(7) 1.9409(9) 0.1856(7)
O47 O 1.6871(6) 1.7106(8) 0.2276(6)
Mo7B Mo 1.40045(6) 1.51732(8) 0.11743(6)
Mo8B Mo 1.44636(6) 1.32565(8) 0.07407(6)
Mo9B Mo 1.54946(6) 1.30746(7) -0.04859(6)
Mo10B Mo 1.33627(6) 1.45533(8) -0.03838(8)
Mo11B Mo 1.44027(8) 1.43728(8) -0.15864(6)
Mo12B Mo 1.39397(7) 1.62539(9) -0.10813(7)
V2B V 1.40450(11) 1.30063(14) -0.07111(11)
Co2B Co 1.31343(9) 1.17460(12) -0.18189(10)
O24B O 1.4404(8) 1.4605(10) 0.0330(8)
O25B O 1.5188(8) 1.4466(11) -0.0617(8)
O26B O 1.4844(9) 1.5990(11) -0.0216(9)
O27B O 1.5691(8) 1.4997(11) 0.0629(8)
O28B O 1.3553(7) 1.5230(8) 0.1724(7)
O29B O 1.4029(6) 1.6288(8) 0.0897(7)
O30B O 1.4172(8) 1.4019(8) 0.1207(7)
O31B O 1.4746(5) 1.2768(10) -0.0047(5)
O32B O 1.3456(6) 1.6844(8) -0.1567(6)
O33B O 1.2621(5) 1.4274(8) -0.0574(6)
O34B O 1.4196(7) 1.2415(7) 0.1018(5)
O35B O 1.4711(5) 1.3302(7) -0.1140(6)
O36B O 1.5664(5) 1.2159(7) -0.0733(7)
O37B O 1.3752(6) 1.3501(7) -0.0006(5)
O38B O 1.3643(5) 1.2210(6) -0.0991(5)
O39B O 1.4112(5) 1.4010(7) -0.2309(5)
O40B O 1.3353(11) 1.5526(8) -0.0793(11)
O41B O 1.4815(6) 1.5360(9) 0.1691(8)
O42B O 1.5999(6) 1.3141(14) 0.0291(6)
O43B O 1.5262(6) 1.3288(13) 0.1169(6)
O44B O 1.4096(10) 1.5396(8) -0.1654(11)
O45B O 1.3405(7) 1.4969(8) 0.0405(7)
O46B O 1.3711(8) 1.4006(8) -0.1106(8)
N5B N 1.2278(6) 1.2096(8) -0.1565(7)
N6B N 1.2517(6) 1.1478(7) -0.2681(7)
N7B N 1.3998(6) 1.1352(8) -0.2044(6)
N8B N 1.3177(6) 1.0527(7) -0.1491(6)
C25B C 1.2182(10) 1.2456(14) -0.1046(11)
H17B H 1.2519 1.2538 -0.0717
C26B C 1.1600(11) 1.2722(14) -0.0963(12)
H18B H 1.1542 1.2969 -0.0585
C27B C 1.1116(9) 1.2610(10) -0.1456(12)
H19B H 1.0726 1.2803 -0.1410
C28B C 1.1170(8) 1.2228(10) -0.2015(9)
C29B C 1.0705(8) 1.2074(12) -0.2550(12)
H20B H 1.0294 1.2171 -0.2511
C30B C 1.0816(9) 1.1796(12) -0.3114(12)
H21B H 1.0488 1.1727 -0.3455
C31B C 1.1434(8) 1.1609(10) -0.3185(9)
C32B C 1.1592(10) 1.1388(12) -0.3759(11)
H22B H 1.1291 1.1371 -0.4128
C33B C 1.2196(11) 1.1194(15) -0.3779(10)
H23B H 1.2303 1.1021 -0.4162
C34B C 1.2655(10) 1.1252(14) -0.3230(9)
H24B H 1.3066 1.1128 -0.3256
C35B C 1.1924(9) 1.1678(11) -0.2636(8)
C36B C 1.1798(7) 1.1982(9) -0.2047(8)
C37B C 1.4425(8) 1.1797(11) -0.2264(8)
H25B H 1.4329 1.2327 -0.2387
C38B C 1.5010(9) 1.1493(14) -0.2315(9)
H26B H 1.5298 1.1821 -0.2467
C39B C 1.5156(8) 1.0725(13) -0.2146(8)
H27B H 1.5548 1.0524 -0.2178
C40B C 1.4718(8) 1.0220(13) -0.1919(8)
C41B C 1.4816(10) 0.9401(14) -0.1733(10)
H28B H 1.5190 0.9159 -0.1780
C42B C 1.4399(11) 0.8959(14) -0.1495(11)
H29B H 1.4479 0.8422 -0.1384
C43B C 1.3829(8) 0.9333(10) -0.1416(8)
C44B C 1.3379(10) 0.8940(12) -0.1134(10)
H30B H 1.3437 0.8399 -0.1024
C45B C 1.2869(11) 0.9316(13) -0.1017(10)
H31B H 1.2586 0.9050 -0.0810
C46B C 1.2770(8) 1.0134(10) -0.1217(9)
H32B H 1.2410 1.0397 -0.1153
C47B C 1.3695(7) 1.0123(10) -0.1594(7)
C48B C 1.4150(7) 1.0591(9) -0.1856(7)
O47B O 1.3129(6) 1.2894(8) -0.2276(6)
O48 O 1.3102(8) 1.3165(11) -0.3524(9)
O49 O 1.5246(17) 1.059(2) -0.0194(17)
O51 O 1.405(2) 1.056(3) 0.018(2)
Mo1 Mo 0.98786(7) 0.78450(8) -0.00847(6)
Mo2 Mo 0.93148(6) 0.91473(7) -0.15026(6)
Mo3 Mo 1.08595(6) 1.01645(7) -0.12746(6)
Mo4 Mo 1.14161(6) 0.88675(9) 0.01408(6)
Mo5 Mo 0.94549(6) 1.12576(8) -0.13638(6)
Mo6 Mo 0.85043(6) 0.90125(8) -0.02239(6)
Ge1 Ge 1.0000 1.0000 0.0000
V1 V 1.06056(11) 0.83329(13) -0.11520(10)
Co1 Co 1.13286(9) 0.67430(12) -0.19452(9)
O1 O 0.9541(8) 0.9229(10) -0.0355(7)
O2 O 0.9945(8) 1.0070(10) -0.0823(8)
O3 O 1.0745(8) 1.0017(10) -0.0192(8)
O4 O 0.9627(8) 1.0936(10) -0.0270(7)
O5 O 1.1251(7) 0.8659(12) 0.0932(6)
O6 O 1.1357(8) 1.0776(7) -0.0686(6)
O7 O 1.0271(6) 1.0938(6) -0.1524(10)
O8 O 0.7835(6) 0.8548(9) -0.0314(6)
O9 O 1.0238(5) 0.9280(7) -0.1582(7)
O10 O 1.0752(6) 0.8048(10) -0.0267(5)
O11 O 1.1237(6) 1.0153(7) -0.1886(6)
O12 O 0.9838(5) 0.6856(6) -0.0187(5)
O13 O 1.1746(9) 0.9875(7) 0.0317(6)
O14 O 0.9048(5) 0.8763(7) -0.2206(5)
O15 O 1.1226(5) 0.9136(6) -0.0818(5)
O16 O 0.9772(5) 0.8193(7) -0.1015(5)
O17 O 1.0820(5) 0.7657(6) -0.1628(5)
O18 O 1.0772(5) 0.6780(6) -0.2966(5)
O19 O 1.2060(5) 0.8349(7) 0.0147(6)
O20 O 0.8664(7) 0.9016(10) -0.1082(7)
O21 O 1.0145(7) 0.7931(12) 0.0773(6)
O22 O 0.9169(6) 1.0227(7) -0.1672(10)
O23 O 0.9080(7) 0.8108(9) -0.0055(6)
N1 N 1.0772(6) 0.5830(7) -0.1629(6)
N2 N 1.1787(6) 0.6560(8) -0.1003(7)
N3 N 1.1896(6) 0.7570(9) -0.2338(6)
N4 N 1.1941(5) 0.5959(8) -0.2293(6)
C1 C 1.0291(7) 0.5422(10) -0.1949(9)
H1 H 1.0150 0.5548 -0.2376
C2 C 0.9991(9) 0.4815(12) -0.1672(11)
H2 H 0.9668 0.4534 -0.1924
C3 C 1.0150(9) 0.4621(12) -0.1059(10)
H3 H 0.9945 0.4218 -0.0873
C4 C 1.0646(10) 0.5061(11) -0.0708(8)
C5 C 1.0857(14) 0.4943(16) -0.0006(12)
H4 H 1.0631 0.4616 0.0225
C6 C 1.1379(15) 0.5317(14) 0.0289(11)
H5 H 1.1531 0.5193 0.0715
C7 C 1.1702(10) 0.5884(11) -0.0018(9)
C8 C 1.2263(11) 0.6256(13) 0.0269(10)
H6 H 1.2427 0.6150 0.0695
C9 C 1.2561(10) 0.6760(14) -0.0067(10)
H7 H 1.2929 0.7009 0.0125
C10 C 1.2311(8) 0.6908(12) -0.0713(9)
H8 H 1.2518 0.7259 -0.0944
C11 C 1.1506(8) 0.6058(9) -0.0663(7)
C12 C 1.0965(8) 0.5633(10) -0.0980(7)
C13 C 1.1844(12) 0.8368(12) -0.2345(10)
H9 H 1.1546 0.8610 -0.2144
C14 C 1.2227(18) 0.8856(19) -0.2648(12)
H10 H 1.2195 0.9415 -0.2634
C15 C 1.2610(16) 0.853(2) -0.2934(11)
H11 H 1.2857 0.8867 -0.3138
C16 C 1.2696(7) 0.7642(10) -0.2970(7)
C17 C 1.3119(6) 0.7241(13) -0.3277(6)
H12 H 1.3382 0.7534 -0.3491
C18 C 1.3149(6) 0.6404(13) -0.3263(6)
H13 H 1.3432 0.6136 -0.3468
C19 C 1.2756(6) 0.5967(10) -0.2942(7)
C20 C 1.2333(5) 0.6367(9) -0.2635(5)
C21 C 1.2303(5) 0.7205(9) -0.2649(6)
C22 C 1.2728(11) 0.5080(15) -0.2869(11)
H14 H 1.2983 0.4774 -0.3083
C23 C 1.2378(11) 0.4683(15) -0.2533(12)
H15 H 1.2395 0.4124 -0.2490
C24 C 1.1978(9) 0.5157(13) -0.2243(10)
H16 H 1.1721 0.4898 -0.2001
Mo1B Mo 1.01214(7) 1.21550(8) 0.00847(6)
Mo1A Mo 1.01214(7) 1.28450(8) -0.49153(6)
Mo2B Mo 1.06852(6) 1.08527(7) 0.15026(6)
Mo2A Mo 1.06852(6) 1.41473(7) -0.34974(6)
Mo3B Mo 0.91405(6) 0.98355(7) 0.12746(6)
Mo3A Mo 0.91405(6) 1.51645(7) -0.37254(6)
Mo4B Mo 0.85839(6) 1.11325(9) -0.01408(6)
Mo4A Mo 0.85839(6) 1.38675(9) -0.51408(6)
Mo5B Mo 1.05451(6) 0.87424(8) 0.13638(6)
Mo5A Mo 1.05451(6) 0.62576(8) -0.36362(6)
Mo6B Mo 1.14957(6) 1.09875(8) 0.02239(6)
V1A V 0.93944(11) 1.33329(13) -0.38480(10)
V1B V 0.93944(11) 1.16671(13) 0.11520(10)
Co1A Co 0.86714(9) 1.17430(12) -0.30548(9)
O1B O 1.0459(8) 1.0771(10) 0.0355(7)
O2B O 1.0055(8) 0.9930(10) 0.0823(8)
O3B O 0.9255(8) 0.9983(10) 0.0192(8)
O4B O 1.0373(8) 0.9064(10) 0.0270(7)
O5B O 0.8749(7) 1.1341(12) -0.0932(6)
O6B O 0.8643(8) 0.9224(7) 0.0686(6)
O7B O 0.9729(6) 0.9062(6) 0.1524(10)
O8B O 1.2165(6) 1.1452(9) 0.0314(6)
O9A O 0.9762(5) 1.4280(7) -0.3418(7)
O9B O 0.9762(5) 1.0720(7) 0.1582(7)
O10A O 0.9248(6) 1.3048(10) -0.4733(5)
O10B O 0.9248(6) 1.1952(10) 0.0267(5)
O11B O 0.8763(6) 0.9847(7) 0.1886(6)
O12B O 1.0162(5) 1.3144(6) 0.0187(5)
O13B O 0.8254(9) 1.0125(7) -0.0317(6)
O14B O 1.0952(5) 1.1237(7) 0.2206(5)
O15A O 0.8774(5) 1.4136(6) -0.4182(5)
O15B O 0.8774(5) 1.0864(6) 0.0818(5)
O16A O 1.0228(5) 1.3193(7) -0.3985(5)
O16B O 1.0228(5) 1.1807(7) 0.1015(5)
O17A O 0.9180(5) 1.2657(6) -0.3372(5)
O18A O 0.9228(5) 1.1780(6) -0.2034(5)
O18C O 1.0772(5) 0.8220(6) 0.2034(5)
O19B O 0.7940(5) 1.1651(7) -0.0147(6)
O20B O 1.1336(7) 1.0984(10) 0.1082(7)
O21B O 0.9855(7) 1.2069(12) -0.0773(6)
O22B O 1.0831(6) 0.9773(7) 0.1672(10)
O23B O 1.0920(7) 1.1892(9) 0.0055(6)
N1A N 0.9228(6) 1.0830(7) -0.3371(6)
N2A N 0.8213(6) 1.1560(8) -0.3997(7)
N3A N 0.8104(6) 1.2570(9) -0.2662(6)
N4A N 0.8059(5) 1.0959(8) -0.2707(6)
C1A C 0.9709(7) 1.0422(10) -0.3051(9)
H1A H 0.9850 1.0548 -0.2624
C2A C 1.0009(9) 0.9815(12) -0.3328(11)
H2A H 1.0332 0.9534 -0.3076
C3A C 0.9850(9) 0.9621(12) -0.3941(10)
H3A H 1.0055 0.9218 -0.4127
C4A C 0.9354(10) 1.0061(11) -0.4292(8)
C5A C 0.9143(14) 0.9943(16) -0.4994(12)
H4A H 0.9369 0.9616 -0.5225
C6A C 0.8621(15) 1.0317(14) -0.5289(11)
H5A H 0.8469 1.0193 -0.5715
C7A C 0.8298(10) 1.0884(11) -0.4982(9)
C8A C 0.7737(11) 1.1256(13) -0.5269(10)
H6A H 0.7573 1.1150 -0.5695
C9A C 0.7439(10) 1.1760(14) -0.4933(10)
H7A H 0.7071 1.2009 -0.5125
C10A C 0.7689(8) 1.1908(12) -0.4287(9)
H8A H 0.7482 1.2259 -0.4056
C11A C 0.8494(8) 1.1058(9) -0.4337(7)
C12A C 0.9035(8) 1.0633(10) -0.4020(7)
C13A C 0.8156(12) 1.3368(12) -0.2655(10)
H9A H 0.8454 1.3610 -0.2856
C14A C 0.7773(18) 1.3856(19) -0.2352(12)
H10A H 0.7805 1.4415 -0.2366
C15A C 0.7390(16) 1.353(2) -0.2066(11)
H11A H 0.7143 1.3867 -0.1862
C16A C 0.7304(7) 1.2642(10) -0.2030(7)
C17A C 0.6881(6) 1.2241(13) -0.1723(6)
H12A H 0.6618 1.2534 -0.1509
C18A C 0.6851(6) 1.1404(13) -0.1737(6)
H13A H 0.6568 1.1136 -0.1532
C19A C 0.7244(6) 1.0967(10) -0.2058(7)
C20A C 0.7667(5) 1.1367(9) -0.2365(5)
C21A C 0.7697(5) 1.2205(9) -0.2351(6)
C22A C 0.7272(11) 1.0080(15) -0.2131(11)
H14A H 0.7017 0.9774 -0.1917
C23A C 0.7622(11) 0.9683(15) -0.2467(12)
H15A H 0.7605 0.9124 -0.2510
C24A C 0.8022(9) 1.0157(13) -0.2757(10)
H16A H 0.8279 0.9898 -0.2999
O50? O 1.4739(19) 1.082(2) -0.0058(19)
O52? O 1.456(4) 1.019(6) 0.010(4)
loop_
_geom_bond_atom_site_label_1
_geom_bond_atom_site_label_2
_geom_bond_site_symmetry_1
_geom_bond_site_symmetry_2
Mo1 O1 1_555 1_555
Mo2 O1 1_555 1_555
Mo3 O2 1_555 1_555
Mo4 O3 1_555 1_555
Mo5 O2 1_555 1_555
Mo6 O1 1_555 1_555
Mo7 O24 1_555 1_555
Mo8 O24 1_555 1_555
Mo9 O25 1_555 1_555
Mo10 O24 1_555 1_555
Mo11 O25 1_555 1_555
Mo12 O26 1_555 1_555
Ge1 O1 1_555 1_555
Ge2 O24 1_555 1_555
V1 O9 1_555 1_555
V2 O31 1_555 1_555
Co1 O17 1_555 1_555
Co2 O38 1_555 1_555
O2 Mo2 1_555 1_555
O3 Mo3 1_555 1_555
O4 Mo5 1_555 1_555
O5 Mo4 1_555 1_555
O6 Mo3 1_555 1_555
O7 Mo3 1_555 1_555
O8 Mo6 1_555 1_555
O9 Mo2 1_555 1_555
O10 Mo1 1_555 1_555
O11 Mo3 1_555 1_555
O12 Mo1 1_555 1_555
O13 Mo4 1_555 1_555
O14 Mo2 1_555 1_555
O15 Mo3 1_555 1_555
O16 Mo1 1_555 1_555
O17 V1 1_555 1_555
O18 Co1 1_555 1_555
O19 Mo4 1_555 1_555
O20 Mo2 1_555 1_555
O21 Mo1 1_555 1_555
O22 Mo2 1_555 1_555
O23 Mo1 1_555 1_555
O25 Ge2 1_555 1_555
O26 Ge2 1_555 1_555
O27 Ge2 1_555 1_555
O28 Mo7 1_555 1_555
O29 Mo7 1_555 1_555
O30 Mo7 1_555 1_555
O31 Mo8 1_555 1_555
O32 Mo12 1_555 1_555
O33 Mo10 1_555 1_555
O34 Mo8 1_555 1_555
O35 Mo9 1_555 1_555
O36 Mo9 1_555 1_555
O37 Mo8 1_555 1_555
O38 V2 1_555 1_555
O39 Mo11 1_555 1_555
O40 Mo10 1_555 1_555
O41 Mo7 1_555 1_555
O42 Mo9 1_555 1_555
O43 Mo8 1_555 1_555
O44 Mo11 1_555 1_555
O45 Mo7 1_555 1_555
O46 Mo10 1_555 1_555
N1 Co1 1_555 1_555
N2 Co1 1_555 1_555
N3 Co1 1_555 1_555
N4 Co1 1_555 1_555
N5 Co2 1_555 1_555
N6 Co2 1_555 1_555
N7 Co2 1_555 1_555
N8 Co2 1_555 1_555
C1 N1 1_555 1_555
H1 C1 1_555 1_555
C2 C1 1_555 1_555
H2 C2 1_555 1_555
C3 C2 1_555 1_555
H3 C3 1_555 1_555
C4 C3 1_555 1_555
C5 C4 1_555 1_555
H4 C5 1_555 1_555
C6 C5 1_555 1_555
H5 C6 1_555 1_555
C7 C6 1_555 1_555
C8 C7 1_555 1_555
H6 C8 1_555 1_555
C9 C8 1_555 1_555
H7 C9 1_555 1_555
C10 N2 1_555 1_555
H8 C10 1_555 1_555
C11 N2 1_555 1_555
C12 N1 1_555 1_555
C13 N3 1_555 1_555
H9 C13 1_555 1_555
C14 C13 1_555 1_555
H10 C14 1_555 1_555
C15 C14 1_555 1_555
H11 C15 1_555 1_555
C16 C15 1_555 1_555
C17 C16 1_555 1_555
H12 C17 1_555 1_555
C18 C17 1_555 1_555
H13 C18 1_555 1_555
C19 C18 1_555 1_555
C20 N4 1_555 1_555
C21 N3 1_555 1_555
C22 C19 1_555 1_555
H14 C22 1_555 1_555
C23 C22 1_555 1_555
H15 C23 1_555 1_555
C24 N4 1_555 1_555
H16 C24 1_555 1_555
C25 N5 1_555 1_555
H17 C25 1_555 1_555
C26 C25 1_555 1_555
H18 C26 1_555 1_555
C27 C26 1_555 1_555
H19 C27 1_555 1_555
C28 C27 1_555 1_555
C29 C28 1_555 1_555
H20 C29 1_555 1_555
C30 C29 1_555 1_555
H21 C30 1_555 1_555
C31 C30 1_555 1_555
C32 C31 1_555 1_555
H22 C32 1_555 1_555
C33 C32 1_555 1_555
H23 C33 1_555 1_555
C34 N6 1_555 1_555
H24 C34 1_555 1_555
C35 N6 1_555 1_555
C36 N5 1_555 1_555
C37 N7 1_555 1_555
H25 C37 1_555 1_555
C38 C37 1_555 1_555
H26 C38 1_555 1_555
C39 C38 1_555 1_555
H27 C39 1_555 1_555
C40 C39 1_555 1_555
C41 C40 1_555 1_555
H28 C41 1_555 1_555
C42 C41 1_555 1_555
H29 C42 1_555 1_555
C43 C42 1_555 1_555
C44 C43 1_555 1_555
H30 C44 1_555 1_555
C45 C44 1_555 1_555
H31 C45 1_555 1_555
C46 N8 1_555 1_555
H32 C46 1_555 1_555
C47 N8 1_555 1_555
C48 N7 1_555 1_555
O47 Co2 1_555 1_555
Mo1B O4 1_555 1_555
Mo1A O10A 1_555 1_555
Mo2B O1B 1_555 1_555
Mo2A O9A 1_555 1_555
Mo3B O2B 1_555 1_555
Mo3A O9A 1_555 1_555
Mo4B O4 1_555 1_555
Mo4A O10A 1_555 1_555
Mo5B O5 1_555 1_555
Mo5A O18 1_555 1_555
Mo6B O3 1_555 1_555
Mo7B O25 1_555 1_555
Mo8B O26 1_555 1_555
Mo9B O26 1_555 1_555
Mo10B O27 1_555 1_555
Mo11B O27 1_555 1_555
Mo12B O27 1_555 1_555
V1A O9A 1_555 1_555
V1B O9B 1_555 1_555
V2B O31B 1_555 1_555
Co1A O17A 1_555 1_555
Co2B O38B 1_555 1_555
O1B Ge1 1_555 1_555
O2B Ge1 1_555 1_555
O3B Mo6 1_555 1_555
O4B Mo1 1_555 1_555
O5B Mo5 1_555 1_555
O6B Mo6 1_555 1_555
O7B Mo3B 1_555 1_555
O8B Mo6B 1_555 1_555
O9B Mo2B 1_555 1_555
O10A V1A 1_555 1_555
O10B Mo1B 1_555 1_555
O11B Mo3B 1_555 1_555
O12B Mo1B 1_555 1_555
O13B Mo6 1_555 1_555
O14B Mo2B 1_555 1_555
O15A Mo3A 1_555 1_555
O15B Mo3B 1_555 1_555
O16A Mo1A 1_555 1_555
O16B Mo1B 1_555 1_555
O17A V1A 1_555 1_555
O18A Mo5 1_555 1_555
O18C Mo5B 1_555 1_555
O19B Mo4B 1_555 1_555
O20B Mo2B 1_555 1_555
O21B Mo5 1_555 1_555
O22B Mo2B 1_555 1_555
O23B Mo1B 1_555 1_555
O24B Ge2 1_555 1_555
O25B Mo7 1_555 1_555
O26B Mo8 1_555 1_555
O27B Mo10 1_555 1_555
O28B Mo7B 1_555 1_555
O29B Mo9 1_555 1_555
O30B Mo7B 1_555 1_555
O31B Mo8B 1_555 1_555
O32B Mo12B 1_555 1_555
O33B Mo10B 1_555 1_555
O34B Mo8B 1_555 1_555
O35B Mo9B 1_555 1_555
O36B Mo9B 1_555 1_555
O37B Mo8B 1_555 1_555
O38B V2B 1_555 1_555
O39B Mo11B 1_555 1_555
O40B Mo10B 1_555 1_555
O41B Mo11 1_555 1_555
O42B Mo12 1_555 1_555
O43B Mo12 1_555 1_555
O44B Mo11B 1_555 1_555
O45B Mo7B 1_555 1_555
O46B Mo10B 1_555 1_555
N1A Co1A 1_555 1_555
N2A Co1A 1_555 1_555
N3A Co1A 1_555 1_555
N4A Co1A 1_555 1_555
N5B Co2B 1_555 1_555
N6B Co2B 1_555 1_555
N7B Co2B 1_555 1_555
N8B Co2B 1_555 1_555
C1A N1A 1_555 1_555
H1A C1A 1_555 1_555
C2A C1A 1_555 1_555
H2A C2A 1_555 1_555
C3A C2A 1_555 1_555
H3A C3A 1_555 1_555
C4A C3A 1_555 1_555
C5A C4A 1_555 1_555
H4A C5A 1_555 1_555
C6A C5A 1_555 1_555
H5A C6A 1_555 1_555
C7A C6A 1_555 1_555
C8A C7A 1_555 1_555
H6A C8A 1_555 1_555
C9A C8A 1_555 1_555
H7A C9A 1_555 1_555
C10A N2A 1_555 1_555
H8A C10A 1_555 1_555
C11A N2A 1_555 1_555
C12A N1A 1_555 1_555
C13A N3A 1_555 1_555
H9A C13A 1_555 1_555
C14A C13A 1_555 1_555
H10A C14A 1_555 1_555
C15A C14A 1_555 1_555
H11A C15A 1_555 1_555
C16A C15A 1_555 1_555
C17A C16A 1_555 1_555
H12A C17A 1_555 1_555
C18A C17A 1_555 1_555
H13A C18A 1_555 1_555
C19A C18A 1_555 1_555
C20A N4A 1_555 1_555
C21A N3A 1_555 1_555
C22A C19A 1_555 1_555
H14A C22A 1_555 1_555
C23A C22A 1_555 1_555
H15A C23A 1_555 1_555
C24A N4A 1_555 1_555
H16A C24A 1_555 1_555
C25B N5B 1_555 1_555
H17B C25B 1_555 1_555
C26B C25B 1_555 1_555
H18B C26B 1_555 1_555
C27B C26B 1_555 1_555
H19B C27B 1_555 1_555
C28B C27B 1_555 1_555
C29B C28B 1_555 1_555
H20B C29B 1_555 1_555
C30B C29B 1_555 1_555
H21B C30B 1_555 1_555
C31B C30B 1_555 1_555
C32B C31B 1_555 1_555
H22B C32B 1_555 1_555
C33B C32B 1_555 1_555
H23B C33B 1_555 1_555
C34B N6B 1_555 1_555
H24B C34B 1_555 1_555
C35B N6B 1_555 1_555
C36B N5B 1_555 1_555
C37B N7B 1_555 1_555
H25B C37B 1_555 1_555
C38B C37B 1_555 1_555
H26B C38B 1_555 1_555
C39B C38B 1_555 1_555
H27B C39B 1_555 1_555
C40B C39B 1_555 1_555
C41B C40B 1_555 1_555
H28B C41B 1_555 1_555
C42B C41B 1_555 1_555
H29B C42B 1_555 1_555
C43B C42B 1_555 1_555
C44B C43B 1_555 1_555
H30B C44B 1_555 1_555
C45B C44B 1_555 1_555
H31B C45B 1_555 1_555
C46B N8B 1_555 1_555
H32B C46B 1_555 1_555
C47B N8B 1_555 1_555
C48B N7B 1_555 1_555
O47B Co2B 1_555 1_555
Mo2 O16 1_555 1_555
Mo3 O9 1_555 1_555
Mo4 O10 1_555 1_555
Mo4 O15 1_555 1_555
Mo4 O4B 1_555 1_555
Mo5 O7 1_555 1_555
Mo5 O22 1_555 1_555
Mo6 O20 1_555 1_555
Mo6 O23 1_555 1_555
Mo8 O30 1_555 1_555
Mo9 O31 1_555 1_555
Mo9 O26B 1_555 1_555
Mo10 O37 1_555 1_555
Mo10 O45 1_555 1_555
Mo11 O35 1_555 1_555
Mo11 O46 1_555 1_555
Mo11 O27B 1_555 1_555
Mo12 O40 1_555 1_555
Mo12 O44 1_555 1_555
Mo12 O27B 1_555 1_555
Ge1 O2 1_555 1_555
Ge1 O3 1_555 1_555
Ge1 O4 1_555 1_555
Ge1 O3B 1_555 1_555
Ge1 O4B 1_555 1_555
Ge2 O25B 1_555 1_555
Ge2 O26B 1_555 1_555
Ge2 O27B 1_555 1_555
V1 O10 1_555 1_555
V1 O15 1_555 1_555
V1 O16 1_555 1_555
V2 O35 1_555 1_555
V2 O37 1_555 1_555
V2 O46 1_555 1_555
O6 Mo6B 1_555 1_555
O13 Mo6B 1_555 1_555
O21 Mo5B 1_555 1_555
O29 Mo9B 1_555 1_555
O41 Mo11B 1_555 1_555
O42 Mo12B 1_555 1_555
O43 Mo12B 1_555 1_555
C4 C12 1_555 1_555
C7 C11 1_555 1_555
C9 C10 1_555 1_555
C11 C12 1_555 1_555
C16 C21 1_555 1_555
C19 C20 1_555 1_555
C20 C21 1_555 1_555
C23 C24 1_555 1_555
C28 C36 1_555 1_555
C31 C35 1_555 1_555
C33 C34 1_555 1_555
C35 C36 1_555 1_555
C40 C48 1_555 1_555
C43 C47 1_555 1_555
C45 C46 1_555 1_555
C47 C48 1_555 1_555
Mo1B O1B 1_555 1_555
Mo1B O21B 1_555 1_555
Mo2B O2B 1_555 1_555
Mo2B O16B 1_555 1_555
Mo2A O16A 1_555 1_555
Mo3B O3B 1_555 1_555
Mo3B O6B 1_555 1_555
Mo3B O9B 1_555 1_555
Mo4B O3B 1_555 1_555
Mo4B O5B 1_555 1_555
Mo4B O10B 1_555 1_555
Mo4B O13B 1_555 1_555
Mo4B O15B 1_555 1_555
Mo4A O15A 1_555 1_555
Mo5B O2B 1_555 1_555
Mo5B O4B 1_555 1_555
Mo5B O7B 1_555 1_555
Mo5B O22B 1_555 1_555
Mo6B O1B 1_555 1_555
Mo6B O20B 1_555 1_555
Mo6B O23B 1_555 1_555
Mo7B O24B 1_555 1_555
Mo7B O29B 1_555 1_555
Mo7B O41B 1_555 1_555
Mo8B O24B 1_555 1_555
Mo8B O30B 1_555 1_555
Mo8B O43B 1_555 1_555
Mo9B O25B 1_555 1_555
Mo9B O31B 1_555 1_555
Mo9B O42B 1_555 1_555
Mo10B O24B 1_555 1_555
Mo10B O37B 1_555 1_555
Mo10B O45B 1_555 1_555
Mo11B O25B 1_555 1_555
Mo11B O35B 1_555 1_555
Mo11B O46B 1_555 1_555
Mo12B O26B 1_555 1_555
Mo12B O40B 1_555 1_555
Mo12B O44B 1_555 1_555
V1A O15A 1_555 1_555
V1A O16A 1_555 1_555
V1B O10B 1_555 1_555
V1B O15B 1_555 1_555
V1B O16B 1_555 1_555
V2B O35B 1_555 1_555
V2B O37B 1_555 1_555
V2B O46B 1_555 1_555
Co1A O18A 1_555 1_555
C4A C12A 1_555 1_555
C7A C11A 1_555 1_555
C9A C10A 1_555 1_555
C11A C12A 1_555 1_555
C16A C21A 1_555 1_555
C19A C20A 1_555 1_555
C20A C21A 1_555 1_555
C23A C24A 1_555 1_555
C28B C36B 1_555 1_555
C31B C35B 1_555 1_555
C33B C34B 1_555 1_555
C35B C36B 1_555 1_555
C40B C48B 1_555 1_555
C43B C47B 1_555 1_555
C45B C46B 1_555 1_555
C47B C48B 1_555 1_555

#END
