
#######################################################################
#
#                 Cambridge Crystallographic Data Centre
#                                CCDC 
#
#######################################################################
#
# If this CIF has been generated from an entry in the Cambridge 
# Structural Database, then it will include bibliographic, chemical, 
# crystal, experimental, refinement or atomic coordinate data resulting 
# from the CCDC's data processing and validation procedures.
#
#######################################################################

data_TASYUJ
_symmetry_cell_setting           cubic
_symmetry_space_group_name_H-M   'I 4 3 2'
_symmetry_Int_Tables_number      211
_space_group_name_Hall           'I 4 2 3'
loop_
_symmetry_equiv_pos_site_id
_symmetry_equiv_pos_as_xyz
1 x,y,z
2 -y,x,z
3 -x,-y,z
4 y,-x,z
5 x,-z,y
6 x,-y,-z
7 x,z,-y
8 z,y,-x
9 -x,y,-z
10 -z,y,x
11 z,x,y
12 y,z,x
13 -y,-z,x
14 z,-x,-y
15 -y,z,-x
16 -z,-x,y
17 -z,x,-y
18 y,-z,-x
19 y,x,-z
20 -y,-x,-z
21 -x,z,y
22 -x,-z,-y
23 z,-y,x
24 -z,-y,-x
25 1/2+x,1/2+y,1/2+z
26 1/2-y,1/2+x,1/2+z
27 1/2-x,1/2-y,1/2+z
28 1/2+y,1/2-x,1/2+z
29 1/2+x,1/2-z,1/2+y
30 1/2+x,1/2-y,1/2-z
31 1/2+x,1/2+z,1/2-y
32 1/2+z,1/2+y,1/2-x
33 1/2-x,1/2+y,1/2-z
34 1/2-z,1/2+y,1/2+x
35 1/2+z,1/2+x,1/2+y
36 1/2+y,1/2+z,1/2+x
37 1/2-y,1/2-z,1/2+x
38 1/2+z,1/2-x,1/2-y
39 1/2-y,1/2+z,1/2-x
40 1/2-z,1/2-x,1/2+y
41 1/2-z,1/2+x,1/2-y
42 1/2+y,1/2-z,1/2-x
43 1/2+y,1/2+x,1/2-z
44 1/2-y,1/2-x,1/2-z
45 1/2-x,1/2+z,1/2+y
46 1/2-x,1/2-z,1/2-y
47 1/2+z,1/2-y,1/2+x
48 1/2-z,1/2-y,1/2-x
_cell_length_a                   32.452(2)
_cell_length_b                   32.452(2)
_cell_length_c                   32.452(2)
_cell_angle_alpha                90
_cell_angle_beta                 90
_cell_angle_gamma                90
_cell_volume                     34176.2
loop_
_atom_site_label
_atom_site_type_symbol
_atom_site_fract_x
_atom_site_fract_y
_atom_site_fract_z
Cu1 Cu 0.7500 0.7500 0.7500
Cu2 Cu 0.76109(2) 1.0000 1.0000
N1 N 0.74887(6) 0.81485(6) 0.74310(6)
O1 O 0.83226(12) 1.0000 1.0000
O3 O 0.70264(7) 0.93951(7) 0.79810(7)
N3 N 0.75833(8) 0.97114(7) 0.94523(6)
C1 C 0.78662(10) 0.92334(9) 0.89733(8)
H1 H 0.8081 0.9046 0.8906
N4 N 0.75436(6) 0.90800(6) 0.83345(6)
H2 H 0.7732 0.8887 0.8308
C2 C 0.78759(9) 0.94395(7) 0.93427(8)
H3 H 0.8097 0.9388 0.9527
C3 C 0.73187(10) 0.89613(8) 0.72565(9)
H4 H 0.7245 0.9238 0.7198
C4 C 0.74661(8) 0.82814(8) 0.70349(7)
C5 C 0.72391(9) 0.95857(9) 0.88075(9)
H5 H 0.7015 0.9643 0.8628
C6 C 0.75440(9) 0.92962(8) 0.86958(8)
C7 C 0.74341(8) 0.84182(8) 0.77327(7)
H6 H 0.7450 0.8326 0.8010
C8 C 0.73896(9) 0.86907(8) 0.69439(8)
H7 H 0.7387 0.8782 0.6666
C9 C 0.72718(10) 0.97806(9) 0.91774(9)
H8 H 0.7066 0.9976 0.9249
C10 C 0.72827(9) 0.91322(9) 0.80122(8)
C11 C 0.73547(9) 0.88319(8) 0.76557(8)
Cu1C Cu 0.7500 1.2500 0.7500
Cu1E Cu 0.7500 1.2500 1.2500
Cu1F Cu 0.7500 0.7500 1.2500
Cu2A Cu 1.0000 0.76109(2) 1.0000
Cu2I Cu 1.0000 1.0000 0.76109(2)
Cu2AA Cu 0.5000 0.73891(2) 0.5000
Cu2Z Cu 0.73891(2) 0.5000 0.5000
Cu2EA Cu 0.5000 0.5000 0.73891(2)
Cu2Z_2 Cu 0.73891(2) 0.5000 1.5000
Cu2Z_3 Cu 0.73891(2) 1.5000 0.5000
Cu2Z_4 Cu 0.73891(2) 1.5000 1.5000
N1J N 0.74310(6) 0.74887(6) 0.81485(6)
N1K N 0.81485(6) 0.74310(6) 0.74887(6)
N1QA N 0.68515(6) 0.75113(6) 0.75690(6)
N1SA N 0.75113(6) 0.75690(6) 0.68515(6)
N1UA N 0.75690(6) 0.68515(6) 0.75113(6)
N1D N 0.74887(6) 1.25690(6) 0.81485(6)
N1E N 0.74887(6) 1.18515(6) 1.25690(6)
N1F N 0.74887(6) 0.74310(6) 1.18515(6)
N1Z N 0.75113(6) 0.68515(6) 1.24310(6)
N1FA N 0.75113(6) 1.31485(6) 0.75690(6)
N1RA N 0.75113(6) 1.24310(6) 1.31485(6)
N1C N 0.81485(6) 1.25113(6) 0.74310(6)
N1V N 0.74310(6) 1.18515(6) 0.74887(6)
N1LA N 0.68515(6) 1.24310(6) 0.75113(6)
N1NA N 0.75690(6) 1.24887(6) 0.68515(6)
N1G N 0.74310(6) 0.81485(6) 1.25113(6)
N1R N 0.81485(6) 0.74887(6) 1.25690(6)
N1JA N 0.68515(6) 0.75690(6) 1.24887(6)
N1MA N 0.75690(6) 0.75113(6) 1.31485(6)
O1Z O 0.66774(12) 1.5000 1.5000
O3J O 0.79810(7) 0.70264(7) 0.93951(7)
O3K O 0.93951(7) 0.79810(7) 0.70264(7)
O3QA O 0.56049(7) 0.79736(7) 0.70190(7)
O3SA O 0.79736(7) 0.70190(7) 0.56049(7)
O3UA O 0.70190(7) 0.56049(7) 0.79736(7)
O3D O 0.70264(7) 1.20190(7) 0.93951(7)
O3E O 0.70264(7) 1.06049(7) 1.20190(7)
O3F O 0.70264(7) 0.79810(7) 1.06049(7)
O3Z O 0.79736(7) 0.56049(7) 1.29810(7)
O3FA O 0.79736(7) 1.43951(7) 0.70190(7)
O3RA O 0.79736(7) 1.29810(7) 1.43951(7)
N3D N 0.75833(8) 1.05477(6) 0.97114(7)
N3E N 0.75833(8) 1.02886(7) 1.05477(6)
N3F N 0.75833(8) 0.94523(6) 1.02886(7)
N3J N 0.94523(6) 0.75833(8) 0.97114(7)
N3K N 0.97114(7) 0.94523(6) 0.75833(8)
N3QA N 0.52886(7) 0.74167(8) 0.55477(6)
N3SA N 0.74167(8) 0.55477(6) 0.52886(7)
N3UA N 0.55477(6) 0.52886(7) 0.74167(8)
N3Z N 0.74167(8) 0.52886(7) 1.44523(6)
N3FA N 0.74167(8) 1.47114(7) 0.55477(6)
N3RA N 0.74167(8) 1.44523(6) 1.47114(7)
N3Z_2 N 0.74167(8) 1.52886(7) 1.44523(6)
N3FA_2 N 0.74167(8) 1.47114(7) 1.55477(6)
N3SA_2 N 0.74167(8) 1.55477(6) 1.52886(7)
C1D C 0.78662(10) 1.10267(8) 0.92334(9)
C1E C 0.78662(10) 1.07666(9) 1.10267(8)
C1F C 0.78662(10) 0.89733(8) 1.07666(9)
C1J C 0.89733(8) 0.78662(10) 0.92334(9)
C1K C 0.92334(9) 0.89733(8) 0.78662(10)
C1QA C 0.57666(9) 0.71338(10) 0.60267(8)
C1SA C 0.71338(10) 0.60267(8) 0.57666(9)
C1UA C 0.60267(8) 0.57666(9) 0.71338(10)
C1Z C 0.71338(10) 0.57666(9) 1.39733(8)
C1FA C 0.71338(10) 1.42334(9) 0.60267(8)
C1RA C 0.71338(10) 1.39733(8) 1.42334(9)
H1D H 0.8081 1.1094 0.9046
H1E H 0.8081 1.0954 1.1094
H1F H 0.8081 0.8906 1.0954
H1J H 0.8906 0.8081 0.9046
H1K H 0.9046 0.8906 0.8081
H1QA H 0.5954 0.6919 0.6094
H1SA H 0.6919 0.6094 0.5954
H1UA H 0.6094 0.5954 0.6919
H1Z H 0.6919 0.5954 1.3906
H1FA H 0.6919 1.4046 0.6094
H1RA H 0.6919 1.3906 1.4046
N4J N 0.83345(6) 0.75436(6) 0.90800(6)
N4K N 0.90800(6) 0.83345(6) 0.75436(6)
N4QA N 0.59200(6) 0.74564(6) 0.66655(6)
N4SA N 0.74564(6) 0.66655(6) 0.59200(6)
N4UA N 0.66655(6) 0.59200(6) 0.74564(6)
N4D N 0.75436(6) 1.16655(6) 0.90800(6)
N4E N 0.75436(6) 1.09200(6) 1.16655(6)
N4F N 0.75436(6) 0.83345(6) 1.09200(6)
N4Z N 0.74564(6) 0.59200(6) 1.33345(6)
N4FA N 0.74564(6) 1.40800(6) 0.66655(6)
N4RA N 0.74564(6) 1.33345(6) 1.40800(6)
H2J H 0.8308 0.7732 0.8887
H2K H 0.8887 0.8308 0.7732
H2QA H 0.6113 0.7268 0.6692
H2SA H 0.7268 0.6692 0.6113
H2UA H 0.6692 0.6113 0.7268
H2D H 0.7732 1.1692 0.8887
H2E H 0.7732 1.1113 1.1692
H2F H 0.7732 0.8308 1.1113
H2Z H 0.7268 0.6113 1.3308
H2FA H 0.7268 1.3887 0.6692
H2RA H 0.7268 1.3308 1.3887
C2D C 0.78759(9) 1.06573(8) 0.94395(7)
C2E C 0.78759(9) 1.05605(7) 1.06573(8)
C2F C 0.78759(9) 0.93427(8) 1.05605(7)
C2J C 0.93427(8) 0.78759(9) 0.94395(7)
C2K C 0.94395(7) 0.93427(8) 0.78759(9)
C2QA C 0.55605(7) 0.71241(9) 0.56573(8)
C2SA C 0.71241(9) 0.56573(8) 0.55605(7)
C2UA C 0.56573(8) 0.55605(7) 0.71241(9)
C2Z C 0.71241(9) 0.55605(7) 1.43427(8)
C2FA C 0.71241(9) 1.44395(7) 0.56573(8)
C2RA C 0.71241(9) 1.43427(8) 1.44395(7)
H3D H 0.8097 1.0473 0.9388
H3E H 0.8097 1.0612 1.0473
H3F H 0.8097 0.9527 1.0612
H3J H 0.9527 0.8097 0.9388
H3K H 0.9388 0.9527 0.8097
H3QA H 0.5612 0.6903 0.5473
H3SA H 0.6903 0.5473 0.5612
H3UA H 0.5473 0.5612 0.6903
H3Z H 0.6903 0.5612 1.4527
H3FA H 0.6903 1.4388 0.5473
H3RA H 0.6903 1.4527 1.4388
C3SA C 0.76813(10) 0.77435(9) 0.60387(8)
C3J C 0.72565(9) 0.73187(10) 0.89613(8)
C3K C 0.89613(8) 0.72565(9) 0.73187(10)
C3QA C 0.60387(8) 0.76813(10) 0.77435(9)
C3UA C 0.77435(9) 0.60387(8) 0.76813(10)
C3D C 0.73187(10) 1.27435(9) 0.89613(8)
C3E C 0.73187(10) 1.10387(8) 1.27435(9)
C3F C 0.73187(10) 0.72565(9) 1.10387(8)
C3Z C 0.76813(10) 0.60387(8) 1.22565(9)
C3FA C 0.76813(10) 1.39613(8) 0.77435(9)
C3RA C 0.76813(10) 1.22565(9) 1.39613(8)
H4SA H 0.7755 0.7802 0.5762
H4J H 0.7198 0.7245 0.9238
H4K H 0.9238 0.7198 0.7245
H4QA H 0.5762 0.7755 0.7802
H4UA H 0.7802 0.5762 0.7755
H4D H 0.7245 1.2802 0.9238
H4E H 0.7245 1.0762 1.2802
H4F H 0.7245 0.7198 1.0762
H4Z H 0.7755 0.5762 1.2198
H4FA H 0.7755 1.4238 0.7802
H4RA H 0.7755 1.2198 1.4238
C4SA C 0.75339(8) 0.79651(7) 0.67186(8)
C4J C 0.70349(7) 0.74661(8) 0.82814(8)
C4K C 0.82814(8) 0.70349(7) 0.74661(8)
C4QA C 0.67186(8) 0.75339(8) 0.79651(7)
C4UA C 0.79651(7) 0.67186(8) 0.75339(8)
C4D C 0.74661(8) 1.29651(7) 0.82814(8)
C4E C 0.74661(8) 1.17186(8) 1.29651(7)
C4F C 0.74661(8) 0.70349(7) 1.17186(8)
C4Z C 0.75339(8) 0.67186(8) 1.20349(7)
C4FA C 0.75339(8) 1.32814(8) 0.79651(7)
C4RA C 0.75339(8) 1.20349(7) 1.32814(8)
C5D C 0.72391(9) 1.11925(9) 0.95857(9)
C5E C 0.72391(9) 1.04143(9) 1.11925(9)
C5F C 0.72391(9) 0.88075(9) 1.04143(9)
C5J C 0.88075(9) 0.72391(9) 0.95857(9)
C5K C 0.95857(9) 0.88075(9) 0.72391(9)
C5QA C 0.54143(9) 0.77609(9) 0.61925(9)
C5SA C 0.77609(9) 0.61925(9) 0.54143(9)
C5UA C 0.61925(9) 0.54143(9) 0.77609(9)
C5Z C 0.77609(9) 0.54143(9) 1.38075(9)
C5FA C 0.77609(9) 1.45857(9) 0.61925(9)
C5RA C 0.77609(9) 1.38075(9) 1.45857(9)
H5D H 0.7015 1.1372 0.9643
H5E H 0.7015 1.0357 1.1372
H5F H 0.7015 0.8628 1.0357
H5J H 0.8628 0.7015 0.9643
H5K H 0.9643 0.8628 0.7015
H5QA H 0.5357 0.7985 0.6372
H5SA H 0.7985 0.6372 0.5357
H5UA H 0.6372 0.5357 0.7985
H5Z H 0.7985 0.5357 1.3628
H5FA H 0.7985 1.4643 0.6372
H5RA H 0.7985 1.3628 1.4643
C6D C 0.75440(9) 1.13042(8) 0.92962(8)
C6E C 0.75440(9) 1.07038(8) 1.13042(8)
C6F C 0.75440(9) 0.86958(8) 1.07038(8)
C6J C 0.86958(8) 0.75440(9) 0.92962(8)
C6K C 0.92962(8) 0.86958(8) 0.75440(9)
C6QA C 0.57038(8) 0.74560(9) 0.63042(8)
C6SA C 0.74560(9) 0.63042(8) 0.57038(8)
C6UA C 0.63042(8) 0.57038(8) 0.74560(9)
C6Z C 0.74560(9) 0.57038(8) 1.36958(8)
C6FA C 0.74560(9) 1.42962(8) 0.63042(8)
C6RA C 0.74560(9) 1.36958(8) 1.42962(8)
C7J C 0.77327(7) 0.74341(8) 0.84182(8)
C7K C 0.84182(8) 0.77327(7) 0.74341(8)
C7QA C 0.65818(8) 0.75659(8) 0.72673(7)
C7SA C 0.75659(8) 0.72673(7) 0.65818(8)
C7UA C 0.72673(7) 0.65818(8) 0.75659(8)
C7D C 0.74341(8) 1.22673(7) 0.84182(8)
C7E C 0.74341(8) 1.15818(8) 1.22673(7)
C7F C 0.74341(8) 0.77327(7) 1.15818(8)
C7Z C 0.75659(8) 0.65818(8) 1.27327(7)
C7FA C 0.75659(8) 1.34182(8) 0.72673(7)
C7RA C 0.75659(8) 1.27327(7) 1.34182(8)
H6J H 0.8010 0.7450 0.8326
H6K H 0.8326 0.8010 0.7450
H6QA H 0.6674 0.7550 0.6990
H6SA H 0.7550 0.6990 0.6674
H6UA H 0.6990 0.6674 0.7550
H6D H 0.7450 1.1990 0.8326
H6E H 0.7450 1.1674 1.1990
H6F H 0.7450 0.8010 1.1674
H6Z H 0.7550 0.6674 1.3010
H6FA H 0.7550 1.3326 0.6990
H6RA H 0.7550 1.3010 1.3326
C8SA C 0.76104(9) 0.80561(8) 0.63093(8)
C8J C 0.69439(8) 0.73896(9) 0.86907(8)
C8K C 0.86907(8) 0.69439(8) 0.73896(9)
C8QA C 0.63093(8) 0.76104(9) 0.80561(8)
C8UA C 0.80561(8) 0.63093(8) 0.76104(9)
C8D C 0.73896(9) 1.30561(8) 0.86907(8)
C8E C 0.73896(9) 1.13093(8) 1.30561(8)
C8F C 0.73896(9) 0.69439(8) 1.13093(8)
C8Z C 0.76104(9) 0.63093(8) 1.19439(8)
C8FA C 0.76104(9) 1.36907(8) 0.80561(8)
C8RA C 0.76104(9) 1.19439(8) 1.36907(8)
H7SA H 0.7613 0.8334 0.6218
H7J H 0.6666 0.7387 0.8782
H7K H 0.8782 0.6666 0.7387
H7QA H 0.6218 0.7613 0.8334
H7UA H 0.8334 0.6218 0.7613
H7D H 0.7387 1.3334 0.8782
H7E H 0.7387 1.1218 1.3334
H7F H 0.7387 0.6666 1.1218
H7Z H 0.7613 0.6218 1.1666
H7FA H 0.7613 1.3782 0.8334
H7RA H 0.7613 1.1666 1.3782
C9D C 0.72718(10) 1.08226(9) 0.97806(9)
C9E C 0.72718(10) 1.02194(9) 1.08226(9)
C9F C 0.72718(10) 0.91774(9) 1.02194(9)
C9J C 0.91774(9) 0.72718(10) 0.97806(9)
C9K C 0.97806(9) 0.91774(9) 0.72718(10)
C9QA C 0.52194(9) 0.77282(10) 0.58226(9)
C9SA C 0.77282(10) 0.58226(9) 0.52194(9)
C9UA C 0.58226(9) 0.52194(9) 0.77282(10)
C9Z C 0.77282(10) 0.52194(9) 1.41774(9)
C9FA C 0.77282(10) 1.47806(9) 0.58226(9)
C9RA C 0.77282(10) 1.41774(9) 1.47806(9)
H8D H 0.7066 1.0751 0.9976
H8E H 0.7066 1.0024 1.0751
H8F H 0.7066 0.9249 1.0024
H8J H 0.9249 0.7066 0.9976
H8K H 0.9976 0.9249 0.7066
H8QA H 0.5024 0.7934 0.5751
H8SA H 0.7934 0.5751 0.5024
H8UA H 0.5751 0.5024 0.7934
H8Z H 0.7934 0.5024 1.4249
H8FA H 0.7934 1.4976 0.5751
H8RA H 0.7934 1.4249 1.4976
C10J C 0.80122(8) 0.72827(9) 0.91322(9)
C10K C 0.91322(9) 0.80122(8) 0.72827(9)
C10QA C 0.58678(9) 0.77173(9) 0.69878(8)
C10SA C 0.77173(9) 0.69878(8) 0.58678(9)
C10UA C 0.69878(8) 0.58678(9) 0.77173(9)
C10D C 0.72827(9) 1.19878(8) 0.91322(9)
C10E C 0.72827(9) 1.08678(9) 1.19878(8)
C10F C 0.72827(9) 0.80122(8) 1.08678(9)
C10Z C 0.77173(9) 0.58678(9) 1.30122(8)
C10FA C 0.77173(9) 1.41322(9) 0.69878(8)
C10RA C 0.77173(9) 1.30122(8) 1.41322(9)
C11J C 0.76557(8) 0.73547(9) 0.88319(8)
C11K C 0.88319(8) 0.76557(8) 0.73547(9)
C11QA C 0.61681(8) 0.76453(9) 0.73443(8)
C11SA C 0.76453(9) 0.73443(8) 0.61681(8)
C11UA C 0.73443(8) 0.61681(8) 0.76453(9)
C11D C 0.73547(9) 1.23443(8) 0.88319(8)
C11E C 0.73547(9) 1.11681(8) 1.23443(8)
C11F C 0.73547(9) 0.76557(8) 1.11681(8)
C11Z C 0.76453(9) 0.61681(8) 1.26557(8)
C11FA C 0.76453(9) 1.38319(8) 0.73443(8)
C11RA C 0.76453(9) 1.26557(8) 1.38319(8)
N2 N 0.83306(5) 0.83306(5) 0.83306(5)
O2 O 0.82845(5) 0.86210(5) 0.80840(5)
O2J O 0.80840(5) 0.82845(5) 0.86210(5)
O2K O 0.86210(5) 0.80840(5) 0.82845(5)
N5 N 0.9028(2) 0.9028(2) 0.9028(2)
O4 O 0.8940(2) 0.93474(13) 0.88382(18)
O4J O 0.88382(18) 0.8940(2) 0.93474(13)
O4K O 0.93474(13) 0.88382(18) 0.8940(2)
O5 O 0.67604(14) 1.0000 1.0000
O6 O 0.67372(10) 0.84719(12) 0.83830(12)
O7 O 0.8729(2) 1.0036(2) 0.92714(16)
loop_
_geom_bond_atom_site_label_1
_geom_bond_atom_site_label_2
_geom_bond_site_symmetry_1
_geom_bond_site_symmetry_2
Cu1 N1 1_555 1_555
Cu2 O1 1_555 1_555
N1 C4 1_555 1_555
N2 O2 1_555 1_555
O3 C10 1_555 1_555
N3 Cu2 1_555 1_555
C1 H1 1_555 1_555
N4 H2 1_555 1_555
C2 N3 1_555 1_555
H3 C2 1_555 1_555
C3 H4 1_555 1_555
C4 C8 1_555 1_555
C5 H5 1_555 1_555
C6 C1 1_555 1_555
C7 N1 1_555 1_555
H6 C7 1_555 1_555
C8 C3 1_555 1_555
H7 C8 1_555 1_555
C9 N3 1_555 1_555
H8 C9 1_555 1_555
C10 N4 1_555 1_555
C11 C3 1_555 1_555
N5 O4 1_555 1_555
Cu1C N1D 1_555 1_555
Cu1E N1E 1_555 1_555
Cu1F N1F 1_555 1_555
Cu2A N3J 1_555 1_555
Cu2I N3K 1_555 1_555
Cu2AA N3QA 1_555 1_555
Cu2Z N3SA 1_555 1_555
Cu2EA N3UA 1_555 1_555
Cu2Z_2 N3Z 1_555 1_555
Cu2Z_3 N3FA 1_555 1_555
Cu2Z_4 O1Z 1_555 1_555
N1J Cu1 1_555 1_555
N1K Cu1 1_555 1_555
N1QA Cu1 1_555 1_555
N1SA Cu1 1_555 1_555
N1UA Cu1 1_555 1_555
N1D C4D 1_555 1_555
N1E C4E 1_555 1_555
N1F C4F 1_555 1_555
N1Z Cu1F 1_555 1_555
N1FA Cu1C 1_555 1_555
N1RA Cu1E 1_555 1_555
N1C Cu1C 1_555 1_555
N1V Cu1C 1_555 1_555
N1LA Cu1C 1_555 1_555
N1NA Cu1C 1_555 1_555
N1G Cu1F 1_555 1_555
N1R Cu1F 1_555 1_555
N1JA Cu1F 1_555 1_555
N1MA Cu1F 1_555 1_555
O2J N2 1_555 1_555
O2K N2 1_555 1_555
O3J C10J 1_555 1_555
O3K C10K 1_555 1_555
O3QA C10QA 1_555 1_555
O3SA C10SA 1_555 1_555
O3UA C10UA 1_555 1_555
O3D C10D 1_555 1_555
O3E C10E 1_555 1_555
O3F C10F 1_555 1_555
O3Z C10Z 1_555 1_555
O3FA C10FA 1_555 1_555
O3RA C10RA 1_555 1_555
N3D Cu2 1_555 1_555
N3E Cu2 1_555 1_555
N3F Cu2 1_555 1_555
N3J C2J 1_555 1_555
N3K C2K 1_555 1_555
N3QA C2QA 1_555 1_555
N3SA C2SA 1_555 1_555
N3UA C2UA 1_555 1_555
N3Z C2Z 1_555 1_555
N3FA C2FA 1_555 1_555
N3RA Cu2Z_4 1_555 1_555
N3Z_2 Cu2Z_4 1_555 1_555
N3FA_2 Cu2Z_4 1_555 1_555
N3SA_2 Cu2Z_4 1_555 1_555
C1D H1D 1_555 1_555
C1E H1E 1_555 1_555
C1F H1F 1_555 1_555
C1J H1J 1_555 1_555
C1K H1K 1_555 1_555
C1QA H1QA 1_555 1_555
C1SA H1SA 1_555 1_555
C1UA H1UA 1_555 1_555
C1Z H1Z 1_555 1_555
C1FA H1FA 1_555 1_555
C1RA H1RA 1_555 1_555
N4J H2J 1_555 1_555
N4K H2K 1_555 1_555
N4QA H2QA 1_555 1_555
N4SA H2SA 1_555 1_555
N4UA H2UA 1_555 1_555
N4D H2D 1_555 1_555
N4E H2E 1_555 1_555
N4F H2F 1_555 1_555
N4Z H2Z 1_555 1_555
N4FA H2FA 1_555 1_555
N4RA H2RA 1_555 1_555
C2D N3D 1_555 1_555
C2E N3E 1_555 1_555
C2F N3F 1_555 1_555
C2J C1J 1_555 1_555
C2K C1K 1_555 1_555
C2QA C1QA 1_555 1_555
C2SA C1SA 1_555 1_555
C2UA C1UA 1_555 1_555
C2Z C1Z 1_555 1_555
C2FA C1FA 1_555 1_555
C2RA N3RA 1_555 1_555
H3D C2D 1_555 1_555
H3E C2E 1_555 1_555
H3F C2F 1_555 1_555
H3J C2J 1_555 1_555
H3K C2K 1_555 1_555
H3QA C2QA 1_555 1_555
H3SA C2SA 1_555 1_555
H3UA C2UA 1_555 1_555
H3Z C2Z 1_555 1_555
H3FA C2FA 1_555 1_555
H3RA C2RA 1_555 1_555
C3SA H4SA 1_555 1_555
C3J H4J 1_555 1_555
C3K H4K 1_555 1_555
C3QA H4QA 1_555 1_555
C3UA H4UA 1_555 1_555
C3D H4D 1_555 1_555
C3E H4E 1_555 1_555
C3F H4F 1_555 1_555
C3Z H4Z 1_555 1_555
C3FA H4FA 1_555 1_555
C3RA H4RA 1_555 1_555
C4SA C4 1_555 1_555
C4J N1J 1_555 1_555
C4K N1K 1_555 1_555
C4QA N1QA 1_555 1_555
C4UA N1UA 1_555 1_555
C4D C4FA 1_555 1_555
C4E C4RA 1_555 1_555
C4F C4Z 1_555 1_555
C4Z N1Z 1_555 1_555
C4FA N1FA 1_555 1_555
C4RA N1RA 1_555 1_555
C5D H5D 1_555 1_555
C5E H5E 1_555 1_555
C5F H5F 1_555 1_555
C5J H5J 1_555 1_555
C5K H5K 1_555 1_555
C5QA H5QA 1_555 1_555
C5SA H5SA 1_555 1_555
C5UA H5UA 1_555 1_555
C5Z H5Z 1_555 1_555
C5FA H5FA 1_555 1_555
C5RA H5RA 1_555 1_555
C6D C1D 1_555 1_555
C6E C1E 1_555 1_555
C6F C1F 1_555 1_555
C6J C1J 1_555 1_555
C6K C1K 1_555 1_555
C6QA C1QA 1_555 1_555
C6SA C1SA 1_555 1_555
C6UA C1UA 1_555 1_555
C6Z C1Z 1_555 1_555
C6FA C1FA 1_555 1_555
C6RA C1RA 1_555 1_555
C7J N1J 1_555 1_555
C7K N1K 1_555 1_555
C7QA N1QA 1_555 1_555
C7SA N1SA 1_555 1_555
C7UA N1UA 1_555 1_555
C7D N1D 1_555 1_555
C7E N1E 1_555 1_555
C7F N1F 1_555 1_555
C7Z N1Z 1_555 1_555
C7FA N1FA 1_555 1_555
C7RA N1RA 1_555 1_555
H6J C7J 1_555 1_555
H6K C7K 1_555 1_555
H6QA C7QA 1_555 1_555
H6SA C7SA 1_555 1_555
H6UA C7UA 1_555 1_555
H6D C7D 1_555 1_555
H6E C7E 1_555 1_555
H6F C7F 1_555 1_555
H6Z C7Z 1_555 1_555
H6FA C7FA 1_555 1_555
H6RA C7RA 1_555 1_555
C8SA C3SA 1_555 1_555
C8J C3J 1_555 1_555
C8K C3K 1_555 1_555
C8QA C3QA 1_555 1_555
C8UA C3UA 1_555 1_555
C8D C3D 1_555 1_555
C8E C3E 1_555 1_555
C8F C3F 1_555 1_555
C8Z C3Z 1_555 1_555
C8FA C3FA 1_555 1_555
C8RA C3RA 1_555 1_555
H7SA C8SA 1_555 1_555
H7J C8J 1_555 1_555
H7K C8K 1_555 1_555
H7QA C8QA 1_555 1_555
H7UA C8UA 1_555 1_555
H7D C8D 1_555 1_555
H7E C8E 1_555 1_555
H7F C8F 1_555 1_555
H7Z C8Z 1_555 1_555
H7FA C8FA 1_555 1_555
H7RA C8RA 1_555 1_555
C9D N3D 1_555 1_555
C9E N3E 1_555 1_555
C9F N3F 1_555 1_555
C9J N3J 1_555 1_555
C9K N3K 1_555 1_555
C9QA N3QA 1_555 1_555
C9SA N3SA 1_555 1_555
C9UA N3UA 1_555 1_555
C9Z N3Z 1_555 1_555
C9FA N3FA 1_555 1_555
C9RA N3RA 1_555 1_555
H8D C9D 1_555 1_555
H8E C9E 1_555 1_555
H8F C9F 1_555 1_555
H8J C9J 1_555 1_555
H8K C9K 1_555 1_555
H8QA C9QA 1_555 1_555
H8SA C9SA 1_555 1_555
H8UA C9UA 1_555 1_555
H8Z C9Z 1_555 1_555
H8FA C9FA 1_555 1_555
H8RA C9RA 1_555 1_555
C10J N4J 1_555 1_555
C10K N4K 1_555 1_555
C10QA N4QA 1_555 1_555
C10SA N4SA 1_555 1_555
C10UA N4UA 1_555 1_555
C10D N4D 1_555 1_555
C10E N4E 1_555 1_555
C10F N4F 1_555 1_555
C10Z N4Z 1_555 1_555
C10FA N4FA 1_555 1_555
C10RA N4RA 1_555 1_555
C11J C3J 1_555 1_555
C11K C3K 1_555 1_555
C11QA C3QA 1_555 1_555
C11SA C3SA 1_555 1_555
C11UA C3UA 1_555 1_555
C11D C3D 1_555 1_555
C11E C3E 1_555 1_555
C11F C3F 1_555 1_555
C11Z C3Z 1_555 1_555
C11FA C3FA 1_555 1_555
C11RA C3RA 1_555 1_555
O4J N5 1_555 1_555
O4K N5 1_555 1_555
C1 C2 1_555 1_555
N4 C6 1_555 1_555
C5 C6 1_555 1_555
C5 C9 1_555 1_555
C7 C11 1_555 1_555
C10 C11 1_555 1_555
N1SA C4SA 1_555 1_555
C1D C2D 1_555 1_555
C1E C2E 1_555 1_555
C1F C2F 1_555 1_555
C1RA C2RA 1_555 1_555
N4J C6J 1_555 1_555
N4K C6K 1_555 1_555
N4QA C6QA 1_555 1_555
N4SA C6SA 1_555 1_555
N4UA C6UA 1_555 1_555
N4D C6D 1_555 1_555
N4E C6E 1_555 1_555
N4F C6F 1_555 1_555
N4Z C6Z 1_555 1_555
N4FA C6FA 1_555 1_555
N4RA C6RA 1_555 1_555
C4SA C8SA 1_555 1_555
C4J C4QA 1_555 1_555
C4J C8J 1_555 1_555
C4K C4UA 1_555 1_555
C4K C8K 1_555 1_555
C4QA C8QA 1_555 1_555
C4UA C8UA 1_555 1_555
C4D C8D 1_555 1_555
C4E C8E 1_555 1_555
C4F C8F 1_555 1_555
C4Z C8Z 1_555 1_555
C4FA C8FA 1_555 1_555
C4RA C8RA 1_555 1_555
C5D C6D 1_555 1_555
C5D C9D 1_555 1_555
C5E C6E 1_555 1_555
C5E C9E 1_555 1_555
C5F C6F 1_555 1_555
C5F C9F 1_555 1_555
C5J C6J 1_555 1_555
C5J C9J 1_555 1_555
C5K C6K 1_555 1_555
C5K C9K 1_555 1_555
C5QA C6QA 1_555 1_555
C5QA C9QA 1_555 1_555
C5SA C6SA 1_555 1_555
C5SA C9SA 1_555 1_555
C5UA C6UA 1_555 1_555
C5UA C9UA 1_555 1_555
C5Z C6Z 1_555 1_555
C5Z C9Z 1_555 1_555
C5FA C6FA 1_555 1_555
C5FA C9FA 1_555 1_555
C5RA C6RA 1_555 1_555
C5RA C9RA 1_555 1_555
C7J C11J 1_555 1_555
C7K C11K 1_555 1_555
C7QA C11QA 1_555 1_555
C7SA C11SA 1_555 1_555
C7UA C11UA 1_555 1_555
C7D C11D 1_555 1_555
C7E C11E 1_555 1_555
C7F C11F 1_555 1_555
C7Z C11Z 1_555 1_555
C7FA C11FA 1_555 1_555
C7RA C11RA 1_555 1_555
C10J C11J 1_555 1_555
C10K C11K 1_555 1_555
C10QA C11QA 1_555 1_555
C10SA C11SA 1_555 1_555
C10UA C11UA 1_555 1_555
C10D C11D 1_555 1_555
C10E C11E 1_555 1_555
C10F C11F 1_555 1_555
C10Z C11Z 1_555 1_555
C10FA C11FA 1_555 1_555
C10RA C11RA 1_555 1_555

#END
