
#######################################################################
#
#                 Cambridge Crystallographic Data Centre
#                                CCDC 
#
#######################################################################
#
# If this CIF has been generated from an entry in the Cambridge 
# Structural Database, then it will include bibliographic, chemical, 
# crystal, experimental, refinement or atomic coordinate data resulting 
# from the CCDC's data processing and validation procedures.
#
#######################################################################

data_TASZEU
_symmetry_cell_setting           cubic
_symmetry_space_group_name_H-M   'I 4 3 2'
_symmetry_Int_Tables_number      211
_space_group_name_Hall           'I 4 2 3'
loop_
_symmetry_equiv_pos_site_id
_symmetry_equiv_pos_as_xyz
1 x,y,z
2 -y,x,z
3 -x,-y,z
4 y,-x,z
5 x,-z,y
6 x,-y,-z
7 x,z,-y
8 z,y,-x
9 -x,y,-z
10 -z,y,x
11 z,x,y
12 y,z,x
13 -y,-z,x
14 z,-x,-y
15 -y,z,-x
16 -z,-x,y
17 -z,x,-y
18 y,-z,-x
19 y,x,-z
20 -y,-x,-z
21 -x,z,y
22 -x,-z,-y
23 z,-y,x
24 -z,-y,-x
25 1/2+x,1/2+y,1/2+z
26 1/2-y,1/2+x,1/2+z
27 1/2-x,1/2-y,1/2+z
28 1/2+y,1/2-x,1/2+z
29 1/2+x,1/2-z,1/2+y
30 1/2+x,1/2-y,1/2-z
31 1/2+x,1/2+z,1/2-y
32 1/2+z,1/2+y,1/2-x
33 1/2-x,1/2+y,1/2-z
34 1/2-z,1/2+y,1/2+x
35 1/2+z,1/2+x,1/2+y
36 1/2+y,1/2+z,1/2+x
37 1/2-y,1/2-z,1/2+x
38 1/2+z,1/2-x,1/2-y
39 1/2-y,1/2+z,1/2-x
40 1/2-z,1/2-x,1/2+y
41 1/2-z,1/2+x,1/2-y
42 1/2+y,1/2-z,1/2-x
43 1/2+y,1/2+x,1/2-z
44 1/2-y,1/2-x,1/2-z
45 1/2-x,1/2+z,1/2+y
46 1/2-x,1/2-z,1/2-y
47 1/2+z,1/2-y,1/2+x
48 1/2-z,1/2-y,1/2-x
_cell_length_a                   32.637(4)
_cell_length_b                   32.637(4)
_cell_length_c                   32.637(4)
_cell_angle_alpha                90
_cell_angle_beta                 90
_cell_angle_gamma                90
_cell_volume                     34764.1
loop_
_atom_site_label
_atom_site_type_symbol
_atom_site_fract_x
_atom_site_fract_y
_atom_site_fract_z
Fe1 Fe 0.2500 0.2500 0.2500
Cu1 Cu 0.24272(3) 0.0000 0.0000
N1 N 0.25145(5) 0.18558(5) 0.25671(5)
O1 O 0.16721(12) 0.0000 0.0000
C1 C 0.21590(9) 0.07674(8) 0.10156(8)
H1 H 0.1946 0.0948 0.1074
O2 O 0.29552(9) 0.06090(8) 0.20177(7)
C2 C 0.27784(10) 0.04369(8) 0.11819(8)
H2 H 0.3004 0.0395 0.1351
C3 C 0.25235(8) 0.17209(6) 0.29572(7)
N2 N 0.24638(7) 0.09272(6) 0.16578(5)
H3 H 0.2279 0.1114 0.1676
C4 C 0.24719(9) 0.07113(6) 0.12961(7)
C5 C 0.21616(10) 0.05606(7) 0.06581(8)
H4 H 0.1946 0.0606 0.0477
C6 C 0.26781(12) 0.10301(8) 0.27298(9)
H5 H 0.2748 0.0759 0.2783
C7 C 0.26413(8) 0.11748(7) 0.23294(7)
C8 C 0.25607(7) 0.15902(7) 0.22701(6)
H6 H 0.2538 0.1685 0.2002
C9 C 0.27044(9) 0.08840(9) 0.19831(8)
C10 C 0.26028(9) 0.13167(7) 0.30596(7)
H7 H 0.2608 0.1232 0.3332
C11 C 0.27460(10) 0.02331(8) 0.08240(8)
H8 H 0.2942 0.0035 0.0764
N3 N 0.24449(8) 0.03006(6) 0.05476(6)
O3 O 0.32620(16) 0.0000 0.0000
Fe1C Fe 0.2500 -0.2500 0.2500
Fe1E Fe 0.2500 -0.2500 -0.2500
Fe1F Fe 0.2500 0.2500 -0.2500
Cu1Z Cu 0.25728(3) -0.5000 -0.5000
Cu1Z_2 Cu 0.25728(3) 0.5000 -0.5000
Cu1Z_3 Cu 0.25728(3) -0.5000 0.5000
Cu1Z_4 Cu 0.25728(3) 0.5000 0.5000
Cu1EA Cu 0.5000 0.5000 0.25728(3)
Cu1AA Cu 0.5000 0.25728(3) 0.5000
Cu1A Cu 0.0000 0.24272(3) 0.0000
Cu1I Cu 0.0000 0.0000 0.24272(3)
N1J N 0.25671(5) 0.25145(5) 0.18558(5)
N1K N 0.18558(5) 0.25671(5) 0.25145(5)
N1QA N 0.31442(5) 0.24855(5) 0.24329(5)
N1SA N 0.24855(5) 0.24329(5) 0.31442(5)
N1UA N 0.24329(5) 0.31442(5) 0.24855(5)
N1D N 0.25145(5) -0.25671(5) 0.18558(5)
N1E N 0.25145(5) -0.18558(5) -0.25671(5)
N1F N 0.25145(5) 0.25671(5) -0.18558(5)
N1M N 0.25671(5) -0.25145(5) -0.18558(5)
N1Q N 0.18558(5) -0.25671(5) -0.25145(5)
N1Y N 0.31442(5) -0.24855(5) -0.24329(5)
N1GA N 0.24329(5) -0.31442(5) -0.24855(5)
N1RA N 0.24855(5) -0.24329(5) -0.31442(5)
N1G N 0.25671(5) 0.18558(5) -0.25145(5)
N1R N 0.18558(5) 0.25145(5) -0.25671(5)
N1Z N 0.24855(5) 0.31442(5) -0.24329(5)
N1JA N 0.31442(5) 0.24329(5) -0.24855(5)
N1MA N 0.24329(5) 0.24855(5) -0.31442(5)
N1FA N 0.24855(5) -0.31442(5) 0.24329(5)
O1Z O 0.33279(12) -0.5000 0.5000
C1F C 0.21590(9) 0.10156(8) -0.07674(8)
C1D C 0.21590(9) -0.10156(8) 0.07674(8)
C1E C 0.21590(9) -0.07674(8) -0.10156(8)
C1RA C 0.28410(9) -0.39844(8) -0.42326(8)
C1Z C 0.28410(9) 0.42326(8) -0.39844(8)
C1FA C 0.28410(9) -0.42326(8) 0.39844(8)
C1SA C 0.28410(9) 0.39844(8) 0.42326(8)
C1UA C 0.39844(8) 0.42326(8) 0.28410(9)
C1QA C 0.42326(8) 0.28410(9) 0.39844(8)
C1J C 0.10156(8) 0.21590(9) 0.07674(8)
C1K C 0.07674(8) 0.10156(8) 0.21590(9)
H1D H 0.1946 -0.1074 0.0948
H1F H 0.1946 0.1074 -0.0948
H1E H 0.1946 -0.0948 -0.1074
H1RA H 0.3054 -0.3926 -0.4052
H1Z H 0.3054 0.4052 -0.3926
H1FA H 0.3054 -0.4052 0.3926
H1SA H 0.3054 0.3926 0.4052
H1UA H 0.3926 0.4052 0.3054
H1QA H 0.4052 0.3054 0.3926
H1J H 0.1074 0.1946 0.0948
H1K H 0.0948 0.1074 0.1946
O2D O 0.29552(9) -0.20177(7) 0.06090(8)
O2E O 0.29552(9) -0.06090(8) -0.20177(7)
O2F O 0.29552(9) 0.20177(7) -0.06090(8)
O2RA O 0.20448(9) -0.29823(7) -0.43910(8)
O2Z O 0.20448(9) 0.43910(8) -0.29823(7)
O2FA O 0.20448(9) -0.43910(8) 0.29823(7)
O2SA O 0.20448(9) 0.29823(7) 0.43910(8)
O2QA O 0.43910(8) 0.20448(9) 0.29823(7)
O2J O 0.20177(7) 0.29552(9) 0.06090(8)
O2UA O 0.29823(7) 0.43910(8) 0.20448(9)
O2K O 0.06090(8) 0.20177(7) 0.29552(9)
C2F C 0.27784(10) 0.11819(8) -0.04369(8)
C2E C 0.27784(10) -0.04369(8) -0.11819(8)
C2D C 0.27784(10) -0.11819(8) 0.04369(8)
C2RA C 0.22216(10) -0.38181(8) -0.45631(8)
C2Z C 0.22216(10) 0.45631(8) -0.38181(8)
C2FA C 0.22216(10) -0.45631(8) 0.38181(8)
C2SA C 0.22216(10) 0.38181(8) 0.45631(8)
C2UA C 0.38181(8) 0.45631(8) 0.22216(10)
C2QA C 0.45631(8) 0.22216(10) 0.38181(8)
C2J C 0.11819(8) 0.27784(10) 0.04369(8)
C2K C 0.04369(8) 0.11819(8) 0.27784(10)
H2D H 0.3004 -0.1351 0.0395
H2E H 0.3004 -0.0395 -0.1351
H2F H 0.3004 0.1351 -0.0395
H2RA H 0.1996 -0.3649 -0.4605
H2Z H 0.1996 0.4605 -0.3649
H2FA H 0.1996 -0.4605 0.3649
H2SA H 0.1996 0.3649 0.4605
H2UA H 0.3649 0.4605 0.1996
H2QA H 0.4605 0.1996 0.3649
H2J H 0.1351 0.3004 0.0395
H2K H 0.0395 0.1351 0.3004
C3SA C 0.24765(8) 0.20428(7) 0.32791(6)
C3D C 0.25235(8) -0.29572(7) 0.17209(6)
C3E C 0.25235(8) -0.17209(6) -0.29572(7)
C3F C 0.25235(8) 0.29572(7) -0.17209(6)
C3Z C 0.24765(8) 0.32791(6) -0.20428(7)
C3FA C 0.24765(8) -0.32791(6) 0.20428(7)
C3RA C 0.24765(8) -0.20428(7) -0.32791(6)
C3UA C 0.20428(7) 0.32791(6) 0.24765(8)
C3QA C 0.32791(6) 0.24765(8) 0.20428(7)
C3J C 0.29572(7) 0.25235(8) 0.17209(6)
C3K C 0.17209(6) 0.29572(7) 0.25235(8)
N2D N 0.24638(7) -0.16578(5) 0.09272(6)
N2E N 0.24638(7) -0.09272(6) -0.16578(5)
N2F N 0.24638(7) 0.16578(5) -0.09272(6)
N2RA N 0.25362(7) -0.33422(5) -0.40728(6)
N2Z N 0.25362(7) 0.40728(6) -0.33422(5)
N2FA N 0.25362(7) -0.40728(6) 0.33422(5)
N2SA N 0.25362(7) 0.33422(5) 0.40728(6)
N2QA N 0.40728(6) 0.25362(7) 0.33422(5)
N2J N 0.16578(5) 0.24638(7) 0.09272(6)
N2UA N 0.33422(5) 0.40728(6) 0.25362(7)
N2K N 0.09272(6) 0.16578(5) 0.24638(7)
H3D H 0.2279 -0.1676 0.1114
H3E H 0.2279 -0.1114 -0.1676
H3F H 0.2279 0.1676 -0.1114
H3Z H 0.2721 0.3886 -0.3324
H3RA H 0.2721 -0.3324 -0.3886
H3FA H 0.2721 -0.3886 0.3324
H3SA H 0.2721 0.3324 0.3886
H3UA H 0.3324 0.3886 0.2721
H3QA H 0.3886 0.2721 0.3324
H3J H 0.1676 0.2279 0.1114
H3K H 0.1114 0.1676 0.2279
C4D C 0.24719(9) -0.12961(7) 0.07113(6)
C4E C 0.24719(9) -0.07113(6) -0.12961(7)
C4F C 0.24719(9) 0.12961(7) -0.07113(6)
C4Z C 0.25281(9) 0.42887(6) -0.37039(7)
C4RA C 0.25281(9) -0.37039(7) -0.42887(6)
C4FA C 0.25281(9) -0.42887(6) 0.37039(7)
C4SA C 0.25281(9) 0.37039(7) 0.42887(6)
C4UA C 0.37039(7) 0.42887(6) 0.25281(9)
C4QA C 0.42887(6) 0.25281(9) 0.37039(7)
C4J C 0.12961(7) 0.24719(9) 0.07113(6)
C4K C 0.07113(6) 0.12961(7) 0.24719(9)
C5F C 0.21616(10) 0.06581(8) -0.05606(7)
C5E C 0.21616(10) -0.05606(7) -0.06581(8)
C5D C 0.21616(10) -0.06581(8) 0.05606(7)
C5RA C 0.28384(10) -0.43419(8) -0.44394(7)
C5Z C 0.28384(10) 0.44394(7) -0.43419(8)
C5FA C 0.28384(10) -0.44394(7) 0.43419(8)
C5SA C 0.28384(10) 0.43419(8) 0.44394(7)
C5UA C 0.43419(8) 0.44394(7) 0.28384(10)
C5QA C 0.44394(7) 0.28384(10) 0.43419(8)
C5J C 0.06581(8) 0.21616(10) 0.05606(7)
C5K C 0.05606(7) 0.06581(8) 0.21616(10)
H4F H 0.1946 0.0477 -0.0606
H4D H 0.1946 -0.0477 0.0606
H4E H 0.1946 -0.0606 -0.0477
H4RA H 0.3054 -0.4523 -0.4394
H4Z H 0.3054 0.4394 -0.4523
H4FA H 0.3054 -0.4394 0.4523
H4SA H 0.3054 0.4523 0.4394
H4UA H 0.4523 0.4394 0.3054
H4QA H 0.4394 0.3054 0.4523
H4J H 0.0477 0.1946 0.0606
H4K H 0.0606 0.0477 0.1946
C6D C 0.26781(12) -0.27298(9) 0.10301(8)
C6E C 0.26781(12) -0.10301(8) -0.27298(9)
C6F C 0.26781(12) 0.27298(9) -0.10301(8)
C6Z C 0.23219(12) 0.39699(8) -0.22702(9)
C6RA C 0.23219(12) -0.22702(9) -0.39699(8)
C6FA C 0.23219(12) -0.39699(8) 0.22702(9)
C6SA C 0.23219(12) 0.22702(9) 0.39699(8)
C6UA C 0.22702(9) 0.39699(8) 0.23219(12)
C6QA C 0.39699(8) 0.23219(12) 0.22702(9)
C6J C 0.27298(9) 0.26781(12) 0.10301(8)
C6K C 0.10301(8) 0.27298(9) 0.26781(12)
H5D H 0.2748 -0.2783 0.0759
H5E H 0.2748 -0.0759 -0.2783
H5F H 0.2748 0.2783 -0.0759
H5RA H 0.2252 -0.2217 -0.4241
H5Z H 0.2252 0.4241 -0.2217
H5FA H 0.2252 -0.4241 0.2217
H5SA H 0.2252 0.2217 0.4241
H5J H 0.2783 0.2748 0.0759
H5QA H 0.4241 0.2252 0.2217
H5UA H 0.2217 0.4241 0.2252
H5K H 0.0759 0.2783 0.2748
C7D C 0.26413(8) -0.23294(7) 0.11748(7)
C7E C 0.26413(8) -0.11748(7) -0.23294(7)
C7F C 0.26413(8) 0.23294(7) -0.11748(7)
C7RA C 0.23587(8) -0.26706(7) -0.38252(7)
C7Z C 0.23587(8) 0.38252(7) -0.26706(7)
C7FA C 0.23587(8) -0.38252(7) 0.26706(7)
C7SA C 0.23587(8) 0.26706(7) 0.38252(7)
C7UA C 0.26706(7) 0.38252(7) 0.23587(8)
C7QA C 0.38252(7) 0.23587(8) 0.26706(7)
C7J C 0.23294(7) 0.26413(8) 0.11748(7)
C7K C 0.11748(7) 0.23294(7) 0.26413(8)
C8D C 0.25607(7) -0.22701(6) 0.15902(7)
C8E C 0.25607(7) -0.15902(7) -0.22701(6)
C8F C 0.25607(7) 0.22701(6) -0.15902(7)
C8Z C 0.24393(7) 0.34098(7) -0.27299(6)
C8RA C 0.24393(7) -0.27299(6) -0.34098(7)
C8FA C 0.24393(7) -0.34098(7) 0.27299(6)
C8SA C 0.24393(7) 0.27299(6) 0.34098(7)
C8UA C 0.27299(6) 0.34098(7) 0.24393(7)
C8QA C 0.34098(7) 0.24393(7) 0.27299(6)
C8J C 0.22701(6) 0.25607(7) 0.15902(7)
C8K C 0.15902(7) 0.22701(6) 0.25607(7)
H6D H 0.2538 -0.2002 0.1685
H6E H 0.2538 -0.1685 -0.2002
H6F H 0.2538 0.2002 -0.1685
H6RA H 0.2462 -0.2998 -0.3315
H6Z H 0.2462 0.3315 -0.2998
H6FA H 0.2462 -0.3315 0.2998
H6SA H 0.2462 0.2998 0.3315
H6UA H 0.2998 0.3315 0.2462
H6QA H 0.3315 0.2462 0.2998
H6J H 0.2002 0.2538 0.1685
H6K H 0.1685 0.2002 0.2538
C9D C 0.27044(9) -0.19831(8) 0.08840(9)
C9E C 0.27044(9) -0.08840(9) -0.19831(8)
C9F C 0.27044(9) 0.19831(8) -0.08840(9)
C9RA C 0.22956(9) -0.30169(8) -0.41160(9)
C9Z C 0.22956(9) 0.41160(9) -0.30169(8)
C9FA C 0.22956(9) -0.41160(9) 0.30169(8)
C9SA C 0.22956(9) 0.30169(8) 0.41160(9)
C9UA C 0.30169(8) 0.41160(9) 0.22956(9)
C9J C 0.19831(8) 0.27044(9) 0.08840(9)
C9QA C 0.41160(9) 0.22956(9) 0.30169(8)
C9K C 0.08840(9) 0.19831(8) 0.27044(9)
C10D C 0.26028(9) -0.30596(7) 0.13167(7)
C10E C 0.26028(9) -0.13167(7) -0.30596(7)
C10F C 0.26028(9) 0.30596(7) -0.13167(7)
C10RA C 0.23972(9) -0.19404(7) -0.36833(7)
C10Z C 0.23972(9) 0.36833(7) -0.19404(7)
C10FA C 0.23972(9) -0.36833(7) 0.19404(7)
C10SA C 0.23972(9) 0.19404(7) 0.36833(7)
C10UA C 0.19404(7) 0.36833(7) 0.23972(9)
C10QA C 0.36833(7) 0.23972(9) 0.19404(7)
C10J C 0.30596(7) 0.26028(9) 0.13167(7)
C10K C 0.13167(7) 0.30596(7) 0.26028(9)
H7D H 0.2608 -0.3332 0.1232
H7E H 0.2608 -0.1232 -0.3332
H7F H 0.2608 0.3332 -0.1232
H7Z H 0.2392 0.3768 -0.1668
H7RA H 0.2392 -0.1668 -0.3768
H7FA H 0.2392 -0.3768 0.1668
H7SA H 0.2392 0.1668 0.3768
H7UA H 0.1668 0.3768 0.2392
H7QA H 0.3768 0.2392 0.1668
H7J H 0.3332 0.2608 0.1232
H7K H 0.1232 0.3332 0.2608
C11F C 0.27460(10) 0.08240(8) -0.02331(8)
C11E C 0.27460(10) -0.02331(8) -0.08240(8)
C11D C 0.27460(10) -0.08240(8) 0.02331(8)
C11RA C 0.22540(10) -0.41760(8) -0.47669(8)
C11Z C 0.22540(10) 0.47669(8) -0.41760(8)
C11FA C 0.22540(10) -0.47669(8) 0.41760(8)
C11SA C 0.22540(10) 0.41760(8) 0.47669(8)
C11UA C 0.41760(8) 0.47669(8) 0.22540(10)
C11QA C 0.47669(8) 0.22540(10) 0.41760(8)
C11J C 0.08240(8) 0.27460(10) 0.02331(8)
C11K C 0.02331(8) 0.08240(8) 0.27460(10)
H8F H 0.2942 0.0764 -0.0035
H8E H 0.2942 -0.0035 -0.0764
H8D H 0.2942 -0.0764 0.0035
H8RA H 0.2058 -0.4236 -0.4965
H8Z H 0.2058 0.4965 -0.4236
H8FA H 0.2058 -0.4965 0.4236
H8SA H 0.2058 0.4236 0.4965
H8UA H 0.4236 0.4965 0.2058
H8QA H 0.4965 0.2058 0.4236
H8J H 0.0764 0.2942 0.0035
H8K H 0.0035 0.0764 0.2942
N3D N 0.24449(8) -0.05476(6) 0.03006(6)
N3E N 0.24449(8) -0.03006(6) -0.05476(6)
N3F N 0.24449(8) 0.05476(6) -0.03006(6)
N3RA N 0.25551(8) -0.44524(6) -0.46994(6)
N3Z N 0.25551(8) 0.46994(6) -0.44524(6)
N3FA N 0.25551(8) -0.46994(6) 0.44524(6)
N3SA N 0.25551(8) 0.44524(6) 0.46994(6)
N3UA N 0.44524(6) 0.46994(6) 0.25551(8)
N3QA N 0.46994(6) 0.25551(8) 0.44524(6)
N3J N 0.05476(6) 0.24449(8) 0.03006(6)
N3K N 0.03006(6) 0.05476(6) 0.24449(8)
N3Z_2 N 0.25551(8) -0.53006(6) 0.55476(6)
N3RA_2 N 0.25551(8) -0.44524(6) 0.53006(6)
N3SA_2 N 0.25551(8) -0.55476(6) 0.46994(6)
O3Z O 0.17380(16) -0.5000 0.5000
N4 N 0.16667(5) 0.16667(5) 0.16667(5)
O4 O 0.17063(5) 0.13891(6) 0.19341(6)
O4J O 0.19341(6) 0.17063(5) 0.13891(6)
O4K O 0.13891(6) 0.19341(6) 0.17063(5)
loop_
_geom_bond_atom_site_label_1
_geom_bond_atom_site_label_2
_geom_bond_site_symmetry_1
_geom_bond_site_symmetry_2
Fe1 N1 1_555 1_555
Cu1 O1 1_555 1_555
N1 C3 1_555 1_555
C1 H1 1_555 1_555
O2 C9 1_555 1_555
C2 H2 1_555 1_555
C3 C10 1_555 1_555
N2 H3 1_555 1_555
C4 C1 1_555 1_555
C5 C1 1_555 1_555
H4 C5 1_555 1_555
C6 H5 1_555 1_555
C7 C6 1_555 1_555
C8 N1 1_555 1_555
H6 C8 1_555 1_555
C9 N2 1_555 1_555
C10 C6 1_555 1_555
H7 C10 1_555 1_555
C11 C2 1_555 1_555
H8 C11 1_555 1_555
N3 Cu1 1_555 1_555
N4 O4 1_555 1_555
O3 Cu1 1_555 1_555
Fe1C N1D 1_555 1_555
Fe1E N1E 1_555 1_555
Fe1F N1F 1_555 1_555
Cu1Z N3RA 1_555 1_555
Cu1Z_2 N3Z 1_555 1_555
Cu1Z_3 O1Z 1_555 1_555
Cu1Z_4 N3SA 1_555 1_555
Cu1EA N3UA 1_555 1_555
Cu1AA N3QA 1_555 1_555
Cu1A N3J 1_555 1_555
Cu1I N3K 1_555 1_555
N1J Fe1 1_555 1_555
N1K Fe1 1_555 1_555
N1QA Fe1 1_555 1_555
N1SA Fe1 1_555 1_555
N1UA Fe1 1_555 1_555
N1D C3D 1_555 1_555
N1E C3E 1_555 1_555
N1F C3F 1_555 1_555
N1M Fe1E 1_555 1_555
N1Q Fe1E 1_555 1_555
N1Y Fe1E 1_555 1_555
N1GA Fe1E 1_555 1_555
N1RA Fe1E 1_555 1_555
N1G Fe1F 1_555 1_555
N1R Fe1F 1_555 1_555
N1Z Fe1F 1_555 1_555
N1JA Fe1F 1_555 1_555
N1MA Fe1F 1_555 1_555
N1FA Fe1C 1_555 1_555
C1F H1F 1_555 1_555
C1D H1D 1_555 1_555
C1E H1E 1_555 1_555
C1RA H1RA 1_555 1_555
C1Z H1Z 1_555 1_555
C1FA H1FA 1_555 1_555
C1SA H1SA 1_555 1_555
C1UA H1UA 1_555 1_555
C1QA H1QA 1_555 1_555
C1J H1J 1_555 1_555
C1K H1K 1_555 1_555
O2D C9D 1_555 1_555
O2E C9E 1_555 1_555
O2F C9F 1_555 1_555
O2RA C9RA 1_555 1_555
O2Z C9Z 1_555 1_555
O2FA C9FA 1_555 1_555
O2SA C9SA 1_555 1_555
O2QA C9QA 1_555 1_555
O2J C9J 1_555 1_555
O2UA C9UA 1_555 1_555
O2K C9K 1_555 1_555
C2F H2F 1_555 1_555
C2E H2E 1_555 1_555
C2D H2D 1_555 1_555
C2RA H2RA 1_555 1_555
C2Z H2Z 1_555 1_555
C2FA H2FA 1_555 1_555
C2SA H2SA 1_555 1_555
C2UA H2UA 1_555 1_555
C2QA H2QA 1_555 1_555
C2J H2J 1_555 1_555
C2K H2K 1_555 1_555
C3SA C3 1_555 1_555
C3D C3FA 1_555 1_555
C3E C3RA 1_555 1_555
C3F C3Z 1_555 1_555
C3Z N1Z 1_555 1_555
C3FA N1FA 1_555 1_555
C3RA N1RA 1_555 1_555
C3UA N1UA 1_555 1_555
C3QA N1QA 1_555 1_555
C3J N1J 1_555 1_555
C3K N1K 1_555 1_555
N2D H3D 1_555 1_555
N2E H3E 1_555 1_555
N2F H3F 1_555 1_555
N2RA H3RA 1_555 1_555
N2Z H3Z 1_555 1_555
N2FA H3FA 1_555 1_555
N2SA H3SA 1_555 1_555
N2QA H3QA 1_555 1_555
N2J H3J 1_555 1_555
N2UA H3UA 1_555 1_555
N2K H3K 1_555 1_555
C4D C1D 1_555 1_555
C4E C1E 1_555 1_555
C4F C1F 1_555 1_555
C4Z C1Z 1_555 1_555
C4RA C1RA 1_555 1_555
C4FA C1FA 1_555 1_555
C4SA C1SA 1_555 1_555
C4UA C1UA 1_555 1_555
C4QA C1QA 1_555 1_555
C4J C1J 1_555 1_555
C4K C1K 1_555 1_555
C5F C1F 1_555 1_555
C5E C1E 1_555 1_555
C5D C1D 1_555 1_555
C5RA C1RA 1_555 1_555
C5Z C1Z 1_555 1_555
C5FA C1FA 1_555 1_555
C5SA C1SA 1_555 1_555
C5UA C1UA 1_555 1_555
C5QA C1QA 1_555 1_555
C5J C1J 1_555 1_555
C5K C1K 1_555 1_555
H4F C5F 1_555 1_555
H4D C5D 1_555 1_555
H4E C5E 1_555 1_555
H4RA C5RA 1_555 1_555
H4Z C5Z 1_555 1_555
H4FA C5FA 1_555 1_555
H4SA C5SA 1_555 1_555
H4UA C5UA 1_555 1_555
H4QA C5QA 1_555 1_555
H4J C5J 1_555 1_555
H4K C5K 1_555 1_555
C6D H5D 1_555 1_555
C6E H5E 1_555 1_555
C6F H5F 1_555 1_555
C6Z H5Z 1_555 1_555
C6RA H5RA 1_555 1_555
C6FA H5FA 1_555 1_555
C6SA H5SA 1_555 1_555
C6UA H5UA 1_555 1_555
C6QA H5QA 1_555 1_555
C6J H5J 1_555 1_555
C6K H5K 1_555 1_555
C7D C6D 1_555 1_555
C7E C6E 1_555 1_555
C7F C6F 1_555 1_555
C7RA C6RA 1_555 1_555
C7Z C6Z 1_555 1_555
C7FA C6FA 1_555 1_555
C7SA C6SA 1_555 1_555
C7UA C6UA 1_555 1_555
C7QA C6QA 1_555 1_555
C7J C6J 1_555 1_555
C7K C6K 1_555 1_555
C8D N1D 1_555 1_555
C8E N1E 1_555 1_555
C8F N1F 1_555 1_555
C8Z N1Z 1_555 1_555
C8RA N1RA 1_555 1_555
C8FA N1FA 1_555 1_555
C8SA N1SA 1_555 1_555
C8UA N1UA 1_555 1_555
C8QA N1QA 1_555 1_555
C8J N1J 1_555 1_555
C8K N1K 1_555 1_555
H6D C8D 1_555 1_555
H6E C8E 1_555 1_555
H6F C8F 1_555 1_555
H6RA C8RA 1_555 1_555
H6Z C8Z 1_555 1_555
H6FA C8FA 1_555 1_555
H6SA C8SA 1_555 1_555
H6UA C8UA 1_555 1_555
H6QA C8QA 1_555 1_555
H6J C8J 1_555 1_555
H6K C8K 1_555 1_555
C9D N2D 1_555 1_555
C9E N2E 1_555 1_555
C9F N2F 1_555 1_555
C9RA N2RA 1_555 1_555
C9Z N2Z 1_555 1_555
C9FA N2FA 1_555 1_555
C9SA N2SA 1_555 1_555
C9UA N2UA 1_555 1_555
C9J N2J 1_555 1_555
C9QA N2QA 1_555 1_555
C9K N2K 1_555 1_555
C10D C3D 1_555 1_555
C10E C3E 1_555 1_555
C10F C3F 1_555 1_555
C10RA C3RA 1_555 1_555
C10Z C3Z 1_555 1_555
C10FA C3FA 1_555 1_555
C10SA C3SA 1_555 1_555
C10UA C3UA 1_555 1_555
C10QA C3QA 1_555 1_555
C10J C3J 1_555 1_555
C10K C3K 1_555 1_555
H7D C10D 1_555 1_555
H7E C10E 1_555 1_555
H7F C10F 1_555 1_555
H7Z C10Z 1_555 1_555
H7RA C10RA 1_555 1_555
H7FA C10FA 1_555 1_555
H7SA C10SA 1_555 1_555
H7UA C10UA 1_555 1_555
H7QA C10QA 1_555 1_555
H7J C10J 1_555 1_555
H7K C10K 1_555 1_555
C11F C2F 1_555 1_555
C11E C2E 1_555 1_555
C11D C2D 1_555 1_555
C11RA C2RA 1_555 1_555
C11Z C2Z 1_555 1_555
C11FA C2FA 1_555 1_555
C11SA C2SA 1_555 1_555
C11UA C2UA 1_555 1_555
C11QA C2QA 1_555 1_555
C11J C2J 1_555 1_555
C11K C2K 1_555 1_555
H8F C11F 1_555 1_555
H8E C11E 1_555 1_555
H8D C11D 1_555 1_555
H8RA C11RA 1_555 1_555
H8Z C11Z 1_555 1_555
H8FA C11FA 1_555 1_555
H8SA C11SA 1_555 1_555
H8UA C11UA 1_555 1_555
H8QA C11QA 1_555 1_555
H8J C11J 1_555 1_555
H8K C11K 1_555 1_555
N3D Cu1 1_555 1_555
N3E Cu1 1_555 1_555
N3F Cu1 1_555 1_555
N3RA C5RA 1_555 1_555
N3Z C5Z 1_555 1_555
N3FA Cu1Z_3 1_555 1_555
N3SA C5SA 1_555 1_555
N3UA C5UA 1_555 1_555
N3QA C5QA 1_555 1_555
N3J C5J 1_555 1_555
N3K C5K 1_555 1_555
N3Z_2 Cu1Z_3 1_555 1_555
N3RA_2 Cu1Z_3 1_555 1_555
N3SA_2 Cu1Z_3 1_555 1_555
O3Z Cu1Z_3 1_555 1_555
O4J N4 1_555 1_555
O4K N4 1_555 1_555
C2 C4 1_555 1_555
N2 C4 1_555 1_555
C5 N3 1_555 1_555
C7 C8 1_555 1_555
C7 C9 1_555 1_555
C11 N3 1_555 1_555
N1SA C3SA 1_555 1_555
C2F C4F 1_555 1_555
C2E C4E 1_555 1_555
C2D C4D 1_555 1_555
C2RA C4RA 1_555 1_555
C2Z C4Z 1_555 1_555
C2FA C4FA 1_555 1_555
C2SA C4SA 1_555 1_555
C2UA C4UA 1_555 1_555
C2QA C4QA 1_555 1_555
C2J C4J 1_555 1_555
C2K C4K 1_555 1_555
C3UA C3K 1_555 1_555
C3QA C3J 1_555 1_555
N2D C4D 1_555 1_555
N2E C4E 1_555 1_555
N2F C4F 1_555 1_555
N2RA C4RA 1_555 1_555
N2Z C4Z 1_555 1_555
N2FA C4FA 1_555 1_555
N2SA C4SA 1_555 1_555
N2QA C4QA 1_555 1_555
N2J C4J 1_555 1_555
N2UA C4UA 1_555 1_555
N2K C4K 1_555 1_555
C5F N3F 1_555 1_555
C5E N3E 1_555 1_555
C5D N3D 1_555 1_555
C5FA N3FA 1_555 1_555
C6D C10D 1_555 1_555
C6E C10E 1_555 1_555
C6F C10F 1_555 1_555
C6Z C10Z 1_555 1_555
C6RA C10RA 1_555 1_555
C6FA C10FA 1_555 1_555
C6SA C10SA 1_555 1_555
C6UA C10UA 1_555 1_555
C6QA C10QA 1_555 1_555
C6J C10J 1_555 1_555
C6K C10K 1_555 1_555
C7D C8D 1_555 1_555
C7D C9D 1_555 1_555
C7E C8E 1_555 1_555
C7E C9E 1_555 1_555
C7F C8F 1_555 1_555
C7F C9F 1_555 1_555
C7RA C8RA 1_555 1_555
C7RA C9RA 1_555 1_555
C7Z C8Z 1_555 1_555
C7Z C9Z 1_555 1_555
C7FA C8FA 1_555 1_555
C7FA C9FA 1_555 1_555
C7SA C8SA 1_555 1_555
C7SA C9SA 1_555 1_555
C7UA C8UA 1_555 1_555
C7UA C9UA 1_555 1_555
C7QA C8QA 1_555 1_555
C7QA C9QA 1_555 1_555
C7J C8J 1_555 1_555
C7J C9J 1_555 1_555
C7K C8K 1_555 1_555
C7K C9K 1_555 1_555
C11F N3F 1_555 1_555
C11E N3E 1_555 1_555
C11D N3D 1_555 1_555
C11RA N3RA 1_555 1_555
C11Z N3Z 1_555 1_555
C11FA N3FA 1_555 1_555
C11SA N3SA 1_555 1_555
C11UA N3UA 1_555 1_555
C11QA N3QA 1_555 1_555
C11J N3J 1_555 1_555
C11K N3K 1_555 1_555

#END
