
#######################################################################
#
#                 Cambridge Crystallographic Data Centre
#                                CCDC 
#
#######################################################################
#
# If this CIF has been generated from an entry in the Cambridge 
# Structural Database, then it will include bibliographic, chemical, 
# crystal, experimental, refinement or atomic coordinate data resulting 
# from the CCDC's data processing and validation procedures.
#
#######################################################################

data_TASZAQ
_symmetry_cell_setting           cubic
_symmetry_space_group_name_H-M   'I 4 3 2'
_symmetry_Int_Tables_number      211
_space_group_name_Hall           'I 4 2 3'
loop_
_symmetry_equiv_pos_site_id
_symmetry_equiv_pos_as_xyz
1 x,y,z
2 -y,x,z
3 -x,-y,z
4 y,-x,z
5 x,-z,y
6 x,-y,-z
7 x,z,-y
8 z,y,-x
9 -x,y,-z
10 -z,y,x
11 z,x,y
12 y,z,x
13 -y,-z,x
14 z,-x,-y
15 -y,z,-x
16 -z,-x,y
17 -z,x,-y
18 y,-z,-x
19 y,x,-z
20 -y,-x,-z
21 -x,z,y
22 -x,-z,-y
23 z,-y,x
24 -z,-y,-x
25 1/2+x,1/2+y,1/2+z
26 1/2-y,1/2+x,1/2+z
27 1/2-x,1/2-y,1/2+z
28 1/2+y,1/2-x,1/2+z
29 1/2+x,1/2-z,1/2+y
30 1/2+x,1/2-y,1/2-z
31 1/2+x,1/2+z,1/2-y
32 1/2+z,1/2+y,1/2-x
33 1/2-x,1/2+y,1/2-z
34 1/2-z,1/2+y,1/2+x
35 1/2+z,1/2+x,1/2+y
36 1/2+y,1/2+z,1/2+x
37 1/2-y,1/2-z,1/2+x
38 1/2+z,1/2-x,1/2-y
39 1/2-y,1/2+z,1/2-x
40 1/2-z,1/2-x,1/2+y
41 1/2-z,1/2+x,1/2-y
42 1/2+y,1/2-z,1/2-x
43 1/2+y,1/2+x,1/2-z
44 1/2-y,1/2-x,1/2-z
45 1/2-x,1/2+z,1/2+y
46 1/2-x,1/2-z,1/2-y
47 1/2+z,1/2-y,1/2+x
48 1/2-z,1/2-y,1/2-x
_cell_length_a                   33.0880(12)
_cell_length_b                   33.0880(12)
_cell_length_c                   33.0880(12)
_cell_angle_alpha                90
_cell_angle_beta                 90
_cell_angle_gamma                90
_cell_volume                     36225.3
loop_
_atom_site_label
_atom_site_type_symbol
_atom_site_fract_x
_atom_site_fract_y
_atom_site_fract_z
Zn1 Zn 0.2500 -0.2500 -0.2500
Zn2 Zn 0.2453 0.00000(4) 0.0000
N1 N 0.25061(8) -0.25752(9) -0.18524(8)
O1 O 0.3128 0.00000(19) 0.0000
O2 O 0.1786 0.0000(2) 0.0000
N2 N 0.24518(10) -0.16776(9) -0.09334(9)
H1 H 0.2266 -0.1697 -0.1122
C1 C 0.24654(14) -0.13095(11) -0.07186(10)
O3 O 0.29433(13) -0.20468(10) -0.06127(10)
C2 C 0.21772(14) -0.10348(12) -0.07990(12)
H2 H 0.1981 -0.1087 -0.1002
C3 C 0.25246(12) -0.29576(11) -0.17272(10)
C4 C 0.27631(15) -0.12248(13) -0.04251(14)
H3 H 0.2971 -0.1413 -0.0362
C5 C 0.25499(11) -0.22729(10) -0.15861(11)
H4 H 0.2531 -0.2001 -0.1678
N3 N 0.24661(14) -0.05818(9) -0.03106(9)
C6 C 0.25929(15) -0.30543(12) -0.13185(13)
H5 H 0.2592 -0.3327 -0.1229
C7 C 0.26906(16) -0.20001(14) -0.08815(14)
C8 C 0.26216(12) -0.23468(11) -0.11816(11)
C9 C 0.26625(18) -0.27375(14) -0.10498(12)
H6 H 0.2737 -0.2792 -0.0778
C10 C 0.21676(15) -0.06701(13) -0.05814(13)
H7 H 0.1953 -0.0484 -0.0623
C11 C 0.27376(15) -0.08545(13) -0.02333(13)
H8 H 0.2932 -0.0795 -0.0031
Zn1A Zn 0.2500 0.2500 -0.2500
Zn1F Zn 0.2500 -0.2500 0.2500
Zn1E Zn 0.2500 0.2500 0.2500
Zn2Z Zn 0.2547 -0.50000(4) -0.5000
Zn2C Zn 0.00000(4) -0.2453 0.0000
Zn2G Zn 0.0000 0.00000(4) -0.2453
Zn2GA Zn 0.5000 -0.50000(4) -0.2547
Zn2Z_2 Zn 0.2547 0.50000(4) -0.5000
Zn2Z_3 Zn 0.2547 0.50000(4) 0.5000
Zn2Z_4 Zn 0.2547 -0.50000(4) 0.5000
Zn2Y Zn 0.50000(4) -0.2547 -0.5000
N1N N 0.25752(9) -0.18524(8) -0.25061(8)
N1O N 0.18524(8) -0.25061(8) -0.25752(9)
N1SA N 0.24939(8) -0.31476(8) -0.24248(9)
N1TA N 0.31476(8) -0.24248(9) -0.24939(8)
N1PA N 0.24248(9) -0.24939(8) -0.31476(8)
N1F N 0.25061(8) -0.18524(8) 0.25752(9)
N1D N 0.25061(8) 0.18524(8) -0.25752(9)
N1E N 0.25061(8) 0.25752(9) 0.18524(8)
N1FA N 0.24939(8) 0.24248(9) -0.31476(8)
N1RA N 0.24939(8) 0.31476(8) 0.24248(9)
N1Z N 0.24939(8) -0.24248(9) 0.31476(8)
N1A N 0.25752(9) 0.25061(8) -0.18524(8)
N1W N 0.18524(8) 0.25752(9) -0.25061(8)
N1IA N 0.24248(9) 0.31476(8) -0.24939(8)
N1KA N 0.31476(8) 0.24939(8) -0.24248(9)
N1I N 0.18524(8) -0.25752(9) 0.25061(8)
N1S N 0.25752(9) -0.25061(8) 0.18524(8)
N1HA N 0.31476(8) -0.24939(8) 0.24248(9)
N1OA N 0.24248(9) -0.31476(8) 0.24939(8)
O1Z O 0.1872 0.50000(19) 0.5000
O2Z O 0.3214 0.5000(2) 0.5000
N2SA N 0.25482(10) -0.40666(9) -0.33224(9)
N2O N 0.09334(9) -0.24518(10) -0.16776(9)
N2PA N 0.33224(9) -0.25482(10) -0.40666(9)
N2N N 0.16776(9) -0.09334(9) -0.24518(10)
N2TA N 0.40666(9) -0.33224(9) -0.25482(10)
N2D N 0.24518(10) 0.09334(9) -0.16776(9)
N2E N 0.24518(10) 0.16776(9) 0.09334(9)
N2F N 0.24518(10) -0.09334(9) 0.16776(9)
N2FA N 0.25482(10) 0.33224(9) -0.40666(9)
N2RA N 0.25482(10) 0.40666(9) 0.33224(9)
N2Z N 0.25482(10) -0.33224(9) 0.40666(9)
H1SA H 0.2734 -0.3878 -0.3303
H1O H 0.1122 -0.2266 -0.1697
H1PA H 0.3303 -0.2734 -0.3878
H1N H 0.1697 -0.1122 -0.2266
H1TA H 0.3878 -0.3303 -0.2734
H1D H 0.2266 0.1122 -0.1697
H1E H 0.2266 0.1697 0.1122
H1F H 0.2266 -0.1122 0.1697
H1RA H 0.2734 0.3878 0.3303
H1FA H 0.2734 0.3303 -0.3878
H1Z H 0.2734 -0.3303 0.3878
C1SA C 0.25346(14) -0.42814(10) -0.36905(11)
C1O C 0.07186(10) -0.24654(14) -0.13095(11)
C1PA C 0.36905(11) -0.25346(14) -0.42814(10)
C1N C 0.13095(11) -0.07186(10) -0.24654(14)
C1TA C 0.42814(10) -0.36905(11) -0.25346(14)
C1D C 0.24654(14) 0.07186(10) -0.13095(11)
C1E C 0.24654(14) 0.13095(11) 0.07186(10)
C1F C 0.24654(14) -0.07186(10) 0.13095(11)
C1RA C 0.25346(14) 0.42814(10) 0.36905(11)
C1FA C 0.25346(14) 0.36905(11) -0.42814(10)
C1Z C 0.25346(14) -0.36905(11) 0.42814(10)
O3SA O 0.20567(13) -0.43873(10) -0.29532(10)
O3O O 0.06127(10) -0.29433(13) -0.20468(10)
O3PA O 0.29532(10) -0.20567(13) -0.43873(10)
O3N O 0.20468(10) -0.06127(10) -0.29433(13)
O3TA O 0.43873(10) -0.29532(10) -0.20567(13)
O3D O 0.29433(13) 0.06127(10) -0.20468(10)
O3E O 0.29433(13) 0.20468(10) 0.06127(10)
O3F O 0.29433(13) -0.06127(10) 0.20468(10)
O3FA O 0.20567(13) 0.29532(10) -0.43873(10)
O3RA O 0.20567(13) 0.43873(10) 0.29532(10)
O3Z O 0.20567(13) -0.29532(10) 0.43873(10)
C2SA C 0.28228(14) -0.42010(12) -0.39652(12)
C2O C 0.07990(12) -0.21772(14) -0.10348(12)
C2PA C 0.39652(12) -0.28228(14) -0.42010(12)
C2TA C 0.42010(12) -0.39652(12) -0.28228(14)
C2N C 0.10348(12) -0.07990(12) -0.21772(14)
C2D C 0.21772(14) 0.07990(12) -0.10348(12)
C2E C 0.21772(14) 0.10348(12) 0.07990(12)
C2F C 0.21772(14) -0.07990(12) 0.10348(12)
C2RA C 0.28228(14) 0.42010(12) 0.39652(12)
C2FA C 0.28228(14) 0.39652(12) -0.42010(12)
C2Z C 0.28228(14) -0.39652(12) 0.42010(12)
H2SA H 0.3019 -0.3998 -0.3913
H2O H 0.1002 -0.1981 -0.1087
H2PA H 0.3913 -0.3019 -0.3998
H2N H 0.1087 -0.1002 -0.1981
H2TA H 0.3998 -0.3913 -0.3019
H2D H 0.1981 0.1002 -0.1087
H2E H 0.1981 0.1087 0.1002
H2F H 0.1981 -0.1002 0.1087
H2FA H 0.3019 0.3913 -0.3998
H2RA H 0.3019 0.3998 0.3913
H2Z H 0.3019 -0.3913 0.3998
C3SA C 0.24754(12) -0.32728(10) -0.20424(11)
C3N C 0.29576(11) -0.17272(10) -0.25246(12)
C3O C 0.17272(10) -0.25246(12) -0.29576(11)
C3TA C 0.32728(10) -0.20424(11) -0.24754(12)
C3PA C 0.20424(11) -0.24754(12) -0.32728(10)
C3D C 0.25246(12) 0.17272(10) -0.29576(11)
C3F C 0.25246(12) -0.17272(10) 0.29576(11)
C3E C 0.25246(12) 0.29576(11) 0.17272(10)
C3FA C 0.24754(12) 0.20424(11) -0.32728(10)
C3Z C 0.24754(12) -0.20424(11) 0.32728(10)
C3RA C 0.24754(12) 0.32728(10) 0.20424(11)
C4SA C 0.22369(15) -0.45749(14) -0.37752(13)
C4O C 0.04251(14) -0.27631(15) -0.12248(13)
C4PA C 0.37752(13) -0.22369(15) -0.45749(14)
C4TA C 0.45749(14) -0.37752(13) -0.22369(15)
C4N C 0.12248(13) -0.04251(14) -0.27631(15)
C4D C 0.27631(15) 0.04251(14) -0.12248(13)
C4E C 0.27631(15) 0.12248(13) 0.04251(14)
C4F C 0.27631(15) -0.04251(14) 0.12248(13)
C4RA C 0.22369(15) 0.45749(14) 0.37752(13)
C4FA C 0.22369(15) 0.37752(13) -0.45749(14)
C4Z C 0.22369(15) -0.37752(13) 0.45749(14)
H3SA H 0.2029 -0.4638 -0.3587
H3O H 0.0362 -0.2971 -0.1413
H3PA H 0.3587 -0.2029 -0.4638
H3N H 0.1413 -0.0362 -0.2971
H3TA H 0.4638 -0.3587 -0.2029
H3D H 0.2971 0.0362 -0.1413
H3E H 0.2971 0.1413 0.0362
H3F H 0.2971 -0.0362 0.1413
H3FA H 0.2029 0.3587 -0.4638
H3RA H 0.2029 0.4638 0.3587
H3Z H 0.2029 -0.3587 0.4638
C5SA C 0.24501(11) -0.34139(11) -0.27271(10)
C5N C 0.22729(10) -0.15861(11) -0.25499(11)
C5O C 0.15861(11) -0.25499(11) -0.22729(10)
C5TA C 0.34139(11) -0.27271(10) -0.24501(11)
C5PA C 0.27271(10) -0.24501(11) -0.34139(11)
C5D C 0.25499(11) 0.15861(11) -0.22729(10)
C5F C 0.25499(11) -0.15861(11) 0.22729(10)
C5E C 0.25499(11) 0.22729(10) 0.15861(11)
C5FA C 0.24501(11) 0.27271(10) -0.34139(11)
C5RA C 0.24501(11) 0.34139(11) 0.27271(10)
C5Z C 0.24501(11) -0.27271(10) 0.34139(11)
H4SA H 0.2469 -0.3322 -0.2999
H4O H 0.1678 -0.2531 -0.2001
H4PA H 0.2999 -0.2469 -0.3322
H4TA H 0.3322 -0.2999 -0.2469
H4N H 0.2001 -0.1678 -0.2531
H4F H 0.2531 -0.1678 0.2001
H4D H 0.2531 0.1678 -0.2001
H4E H 0.2531 0.2001 0.1678
H4Z H 0.2469 -0.2999 0.3322
H4RA H 0.2469 0.3322 0.2999
H4FA H 0.2469 0.2999 -0.3322
N3F N 0.24661(14) -0.03106(9) 0.05818(9)
N3D N 0.24661(14) 0.03106(9) -0.05818(9)
N3E N 0.24661(14) 0.05818(9) 0.03106(9)
N3SA N 0.25339(14) -0.46894(9) -0.44182(9)
N3PA N 0.44182(9) -0.25339(14) -0.46894(9)
N3O N 0.03106(9) -0.24661(14) -0.05818(9)
N3N N 0.05818(9) -0.03106(9) -0.24661(14)
N3TA N 0.46894(9) -0.44182(9) -0.25339(14)
N3FA N 0.25339(14) 0.44182(9) -0.46894(9)
N3RA N 0.25339(14) 0.46894(9) 0.44182(9)
N3Z N 0.25339(14) -0.44182(9) 0.46894(9)
N3Z_2 N 0.25339(14) 0.55818(9) 0.46894(9)
N3FA_2 N 0.25339(14) 0.44182(9) 0.53106(9)
N3SA_2 N 0.25339(14) 0.53106(9) 0.55818(9)
C6SA C 0.24071(15) -0.36815(13) -0.19457(12)
C6O C 0.13185(13) -0.25929(15) -0.30543(12)
C6PA C 0.19457(12) -0.24071(15) -0.36815(13)
C6TA C 0.36815(13) -0.19457(12) -0.24071(15)
C6N C 0.30543(12) -0.13185(13) -0.25929(15)
C6F C 0.25929(15) -0.13185(13) 0.30543(12)
C6D C 0.25929(15) 0.13185(13) -0.30543(12)
C6E C 0.25929(15) 0.30543(12) 0.13185(13)
C6FA C 0.24071(15) 0.19457(12) -0.36815(13)
C6RA C 0.24071(15) 0.36815(13) 0.19457(12)
C6Z C 0.24071(15) -0.19457(12) 0.36815(13)
H5SA H 0.2408 -0.3771 -0.1673
H5O H 0.1229 -0.2592 -0.3327
H5PA H 0.1673 -0.2408 -0.3771
H5TA H 0.3771 -0.1673 -0.2408
H5N H 0.3327 -0.1229 -0.2592
H5D H 0.2592 0.1229 -0.3327
H5F H 0.2592 -0.1229 0.3327
H5E H 0.2592 0.3327 0.1229
H5FA H 0.2408 0.1673 -0.3771
H5RA H 0.2408 0.3771 0.1673
H5Z H 0.2408 -0.1673 0.3771
C7SA C 0.23094(16) -0.41185(14) -0.29999(14)
C7O C 0.08815(14) -0.26906(16) -0.20001(14)
C7PA C 0.29999(14) -0.23094(16) -0.41185(14)
C7TA C 0.41185(14) -0.29999(14) -0.23094(16)
C7N C 0.20001(14) -0.08815(14) -0.26906(16)
C7D C 0.26906(16) 0.08815(14) -0.20001(14)
C7E C 0.26906(16) 0.20001(14) 0.08815(14)
C7F C 0.26906(16) -0.08815(14) 0.20001(14)
C7FA C 0.23094(16) 0.29999(14) -0.41185(14)
C7RA C 0.23094(16) 0.41185(14) 0.29999(14)
C7Z C 0.23094(16) -0.29999(14) 0.41185(14)
C8SA C 0.23784(12) -0.38184(11) -0.26532(11)
C8O C 0.11816(11) -0.26216(12) -0.23468(11)
C8PA C 0.26532(11) -0.23784(12) -0.38184(11)
C8TA C 0.38184(11) -0.26532(11) -0.23784(12)
C8N C 0.23468(11) -0.11816(11) -0.26216(12)
C8D C 0.26216(12) 0.11816(11) -0.23468(11)
C8E C 0.26216(12) 0.23468(11) 0.11816(11)
C8F C 0.26216(12) -0.11816(11) 0.23468(11)
C8Z C 0.23784(12) -0.26532(11) 0.38184(11)
C8RA C 0.23784(12) 0.38184(11) 0.26532(11)
C8FA C 0.23784(12) 0.26532(11) -0.38184(11)
C9SA C 0.23375(18) -0.39502(12) -0.22625(14)
C9O C 0.10498(12) -0.26625(18) -0.27375(14)
C9PA C 0.22625(14) -0.23375(18) -0.39502(12)
C9TA C 0.39502(12) -0.22625(14) -0.23375(18)
C9N C 0.27375(14) -0.10498(12) -0.26625(18)
C9D C 0.26625(18) 0.10498(12) -0.27375(14)
C9F C 0.26625(18) -0.10498(12) 0.27375(14)
C9E C 0.26625(18) 0.27375(14) 0.10498(12)
C9FA C 0.23375(18) 0.22625(14) -0.39502(12)
C9RA C 0.23375(18) 0.39502(12) 0.22625(14)
C9Z C 0.23375(18) -0.22625(14) 0.39502(12)
H6SA H 0.2263 -0.4222 -0.2208
H6F H 0.2737 -0.0778 0.2792
H6D H 0.2737 0.0778 -0.2792
H6E H 0.2737 0.2792 0.0778
H6Z H 0.2263 -0.2208 0.4222
H6RA H 0.2263 0.4222 0.2208
H6FA H 0.2263 0.2208 -0.4222
H6O H 0.0778 -0.2737 -0.2792
H6PA H 0.2208 -0.2263 -0.4222
H6TA H 0.4222 -0.2208 -0.2263
H6N H 0.2792 -0.0778 -0.2737
C10SA C 0.28324(15) -0.44186(13) -0.43299(13)
C10O C 0.05814(13) -0.21676(15) -0.06701(13)
C10PA C 0.43299(13) -0.28324(15) -0.44186(13)
C10N C 0.06701(13) -0.05814(13) -0.21676(15)
C10TA C 0.44186(13) -0.43299(13) -0.28324(15)
C10D C 0.21676(15) 0.05814(13) -0.06701(13)
C10E C 0.21676(15) 0.06701(13) 0.05814(13)
C10F C 0.21676(15) -0.05814(13) 0.06701(13)
C10FA C 0.28324(15) 0.43299(13) -0.44186(13)
C10RA C 0.28324(15) 0.44186(13) 0.43299(13)
C10Z C 0.28324(15) -0.43299(13) 0.44186(13)
H7SA H 0.3047 -0.4377 -0.4516
H7PA H 0.4516 -0.3047 -0.4377
H7O H 0.0623 -0.1953 -0.0484
H7N H 0.0484 -0.0623 -0.1953
H7TA H 0.4377 -0.4516 -0.3047
H7D H 0.1953 0.0623 -0.0484
H7E H 0.1953 0.0484 0.0623
H7F H 0.1953 -0.0623 0.0484
H7FA H 0.3047 0.4516 -0.4377
H7RA H 0.3047 0.4377 0.4516
H7Z H 0.3047 -0.4516 0.4377
C11SA C 0.22624(15) -0.47667(13) -0.41455(13)
C11O C 0.02333(13) -0.27376(15) -0.08545(13)
C11PA C 0.41455(13) -0.22624(15) -0.47667(13)
C11N C 0.08545(13) -0.02333(13) -0.27376(15)
C11TA C 0.47667(13) -0.41455(13) -0.22624(15)
C11D C 0.27376(15) 0.02333(13) -0.08545(13)
C11E C 0.27376(15) 0.08545(13) 0.02333(13)
C11F C 0.27376(15) -0.02333(13) 0.08545(13)
C11FA C 0.22624(15) 0.41455(13) -0.47667(13)
C11RA C 0.22624(15) 0.47667(13) 0.41455(13)
C11Z C 0.22624(15) -0.41455(13) 0.47667(13)
H8SA H 0.2068 -0.4969 -0.4205
H8PA H 0.4205 -0.2068 -0.4969
H8O H 0.0031 -0.2932 -0.0795
H8N H 0.0795 -0.0031 -0.2932
H8TA H 0.4969 -0.4205 -0.2068
H8D H 0.2932 0.0031 -0.0795
H8E H 0.2932 0.0795 0.0031
H8F H 0.2932 -0.0031 0.0795
H8FA H 0.2068 0.4205 -0.4969
H8RA H 0.2068 0.4969 0.4205
H8Z H 0.2068 -0.4205 0.4969
N4 N 0.16805(8) 0.16805(8) 0.16805(8)
O4 O 0.19389(9) 0.14064(9) 0.17052(8)
O4J O 0.17052(8) 0.19389(9) 0.14064(9)
O4K O 0.14064(9) 0.17052(8) 0.19389(9)
O5 O 0.3196(3) 0.1535(5) 0.1616(2)
O6 O 0.0784(6) 0.0092(7) 0.1261(6)
N5 N 0.1913(2) 0.0000 0.1913(2)
O7 O 0.2188(3) 0.0000 0.2188(3)
O8 O 0.1619(3) -0.0261(3) 0.1960(5)
O8V O 0.1960(5) 0.0261(3) 0.1619(3)
loop_
_geom_bond_atom_site_label_1
_geom_bond_atom_site_label_2
_geom_bond_site_symmetry_1
_geom_bond_site_symmetry_2
Zn1 N1 1_555 1_555
Zn2 O1 1_555 1_555
N1 C3 1_555 1_555
O2 Zn2 1_555 1_555
N2 H1 1_555 1_555
C1 N2 1_555 1_555
O3 C7 1_555 1_555
C2 C1 1_555 1_555
H2 C2 1_555 1_555
C3 C6 1_555 1_555
C4 C1 1_555 1_555
H3 C4 1_555 1_555
C5 N1 1_555 1_555
H4 C5 1_555 1_555
N3 Zn2 1_555 1_555
C6 H5 1_555 1_555
C7 N2 1_555 1_555
C8 C5 1_555 1_555
C9 C6 1_555 1_555
H6 C9 1_555 1_555
C10 C2 1_555 1_555
H7 C10 1_555 1_555
C11 C4 1_555 1_555
H8 C11 1_555 1_555
N4 O4 1_555 1_555
N5 O7 1_555 1_555
O8 N5 1_555 1_555
Zn1A N1D 1_555 1_555
Zn1F N1F 1_555 1_555
Zn1E N1E 1_555 1_555
Zn2Z N3SA 1_555 1_555
Zn2C N3O 1_555 1_555
Zn2G N3N 1_555 1_555
Zn2GA N3TA 1_555 1_555
Zn2Z_2 N3FA 1_555 1_555
Zn2Z_3 O1Z 1_555 1_555
Zn2Z_4 N3Z 1_555 1_555
Zn2Y N3PA 1_555 1_555
N1N Zn1 1_555 1_555
N1O Zn1 1_555 1_555
N1SA Zn1 1_555 1_555
N1TA Zn1 1_555 1_555
N1PA Zn1 1_555 1_555
N1F C3F 1_555 1_555
N1D C3D 1_555 1_555
N1E C3E 1_555 1_555
N1FA Zn1A 1_555 1_555
N1RA Zn1E 1_555 1_555
N1Z Zn1F 1_555 1_555
N1A Zn1A 1_555 1_555
N1W Zn1A 1_555 1_555
N1IA Zn1A 1_555 1_555
N1KA Zn1A 1_555 1_555
N1I Zn1F 1_555 1_555
N1S Zn1F 1_555 1_555
N1HA Zn1F 1_555 1_555
N1OA Zn1F 1_555 1_555
O2Z Zn2Z_3 1_555 1_555
N2SA H1SA 1_555 1_555
N2O H1O 1_555 1_555
N2PA H1PA 1_555 1_555
N2N H1N 1_555 1_555
N2TA H1TA 1_555 1_555
N2D H1D 1_555 1_555
N2E H1E 1_555 1_555
N2F H1F 1_555 1_555
N2FA H1FA 1_555 1_555
N2RA H1RA 1_555 1_555
N2Z H1Z 1_555 1_555
C1SA N2SA 1_555 1_555
C1O N2O 1_555 1_555
C1PA N2PA 1_555 1_555
C1N N2N 1_555 1_555
C1TA N2TA 1_555 1_555
C1D N2D 1_555 1_555
C1E N2E 1_555 1_555
C1F N2F 1_555 1_555
C1RA N2RA 1_555 1_555
C1FA N2FA 1_555 1_555
C1Z N2Z 1_555 1_555
O3SA C7SA 1_555 1_555
O3O C7O 1_555 1_555
O3PA C7PA 1_555 1_555
O3N C7N 1_555 1_555
O3TA C7TA 1_555 1_555
O3D C7D 1_555 1_555
O3E C7E 1_555 1_555
O3F C7F 1_555 1_555
O3FA C7FA 1_555 1_555
O3RA C7RA 1_555 1_555
O3Z C7Z 1_555 1_555
C2SA C1SA 1_555 1_555
C2O C1O 1_555 1_555
C2PA C1PA 1_555 1_555
C2TA C1TA 1_555 1_555
C2N C1N 1_555 1_555
C2D C1D 1_555 1_555
C2E C1E 1_555 1_555
C2F C1F 1_555 1_555
C2RA C1RA 1_555 1_555
C2FA C1FA 1_555 1_555
C2Z C1Z 1_555 1_555
H2SA C2SA 1_555 1_555
H2O C2O 1_555 1_555
H2PA C2PA 1_555 1_555
H2N C2N 1_555 1_555
H2TA C2TA 1_555 1_555
H2D C2D 1_555 1_555
H2E C2E 1_555 1_555
H2F C2F 1_555 1_555
H2FA C2FA 1_555 1_555
H2RA C2RA 1_555 1_555
H2Z C2Z 1_555 1_555
C3SA C3 1_555 1_555
C3N N1N 1_555 1_555
C3O N1O 1_555 1_555
C3TA N1TA 1_555 1_555
C3PA N1PA 1_555 1_555
C3D C3FA 1_555 1_555
C3F C3Z 1_555 1_555
C3E C3RA 1_555 1_555
C3FA N1FA 1_555 1_555
C3Z N1Z 1_555 1_555
C3RA N1RA 1_555 1_555
C4SA C1SA 1_555 1_555
C4O C1O 1_555 1_555
C4PA C1PA 1_555 1_555
C4TA C1TA 1_555 1_555
C4N C1N 1_555 1_555
C4D C1D 1_555 1_555
C4E C1E 1_555 1_555
C4F C1F 1_555 1_555
C4RA C1RA 1_555 1_555
C4FA C1FA 1_555 1_555
C4Z C1Z 1_555 1_555
H3SA C4SA 1_555 1_555
H3O C4O 1_555 1_555
H3PA C4PA 1_555 1_555
H3N C4N 1_555 1_555
H3TA C4TA 1_555 1_555
H3D C4D 1_555 1_555
H3E C4E 1_555 1_555
H3F C4F 1_555 1_555
H3FA C4FA 1_555 1_555
H3RA C4RA 1_555 1_555
H3Z C4Z 1_555 1_555
C5SA N1SA 1_555 1_555
C5N N1N 1_555 1_555
C5O N1O 1_555 1_555
C5TA N1TA 1_555 1_555
C5PA N1PA 1_555 1_555
C5D N1D 1_555 1_555
C5F N1F 1_555 1_555
C5E N1E 1_555 1_555
C5FA N1FA 1_555 1_555
C5RA N1RA 1_555 1_555
C5Z N1Z 1_555 1_555
H4SA C5SA 1_555 1_555
H4O C5O 1_555 1_555
H4PA C5PA 1_555 1_555
H4TA C5TA 1_555 1_555
H4N C5N 1_555 1_555
H4F C5F 1_555 1_555
H4D C5D 1_555 1_555
H4E C5E 1_555 1_555
H4Z C5Z 1_555 1_555
H4RA C5RA 1_555 1_555
H4FA C5FA 1_555 1_555
N3F Zn2 1_555 1_555
N3D Zn2 1_555 1_555
N3E Zn2 1_555 1_555
N3SA C10SA 1_555 1_555
N3PA C10PA 1_555 1_555
N3O C10O 1_555 1_555
N3N C10N 1_555 1_555
N3TA C10TA 1_555 1_555
N3FA C10FA 1_555 1_555
N3RA Zn2Z_3 1_555 1_555
N3Z C10Z 1_555 1_555
N3Z_2 Zn2Z_3 1_555 1_555
N3FA_2 Zn2Z_3 1_555 1_555
N3SA_2 Zn2Z_3 1_555 1_555
C6SA C3SA 1_555 1_555
C6O C3O 1_555 1_555
C6PA C3PA 1_555 1_555
C6TA C3TA 1_555 1_555
C6N C3N 1_555 1_555
C6F C3F 1_555 1_555
C6D C3D 1_555 1_555
C6E C3E 1_555 1_555
C6FA C3FA 1_555 1_555
C6RA C3RA 1_555 1_555
C6Z C3Z 1_555 1_555
H5SA C6SA 1_555 1_555
H5O C6O 1_555 1_555
H5PA C6PA 1_555 1_555
H5TA C6TA 1_555 1_555
H5N C6N 1_555 1_555
H5D C6D 1_555 1_555
H5F C6F 1_555 1_555
H5E C6E 1_555 1_555
H5FA C6FA 1_555 1_555
H5RA C6RA 1_555 1_555
H5Z C6Z 1_555 1_555
C7SA N2SA 1_555 1_555
C7O N2O 1_555 1_555
C7PA N2PA 1_555 1_555
C7TA N2TA 1_555 1_555
C7N N2N 1_555 1_555
C7D N2D 1_555 1_555
C7E N2E 1_555 1_555
C7F N2F 1_555 1_555
C7FA N2FA 1_555 1_555
C7RA N2RA 1_555 1_555
C7Z N2Z 1_555 1_555
C8SA C5SA 1_555 1_555
C8O C5O 1_555 1_555
C8PA C5PA 1_555 1_555
C8TA C5TA 1_555 1_555
C8N C5N 1_555 1_555
C8D C5D 1_555 1_555
C8E C5E 1_555 1_555
C8F C5F 1_555 1_555
C8Z C5Z 1_555 1_555
C8RA C5RA 1_555 1_555
C8FA C5FA 1_555 1_555
C9SA C6SA 1_555 1_555
C9O C6O 1_555 1_555
C9PA C6PA 1_555 1_555
C9TA C6TA 1_555 1_555
C9N C6N 1_555 1_555
C9D C6D 1_555 1_555
C9F C6F 1_555 1_555
C9E C6E 1_555 1_555
C9FA C6FA 1_555 1_555
C9RA C6RA 1_555 1_555
C9Z C6Z 1_555 1_555
H6SA C9SA 1_555 1_555
H6F C9F 1_555 1_555
H6D C9D 1_555 1_555
H6E C9E 1_555 1_555
H6Z C9Z 1_555 1_555
H6RA C9RA 1_555 1_555
H6FA C9FA 1_555 1_555
H6O C9O 1_555 1_555
H6PA C9PA 1_555 1_555
H6TA C9TA 1_555 1_555
H6N C9N 1_555 1_555
C10SA C2SA 1_555 1_555
C10O C2O 1_555 1_555
C10PA C2PA 1_555 1_555
C10N C2N 1_555 1_555
C10TA C2TA 1_555 1_555
C10D C2D 1_555 1_555
C10E C2E 1_555 1_555
C10F C2F 1_555 1_555
C10FA C2FA 1_555 1_555
C10RA C2RA 1_555 1_555
C10Z C2Z 1_555 1_555
H7SA C10SA 1_555 1_555
H7PA C10PA 1_555 1_555
H7O C10O 1_555 1_555
H7N C10N 1_555 1_555
H7TA C10TA 1_555 1_555
H7D C10D 1_555 1_555
H7E C10E 1_555 1_555
H7F C10F 1_555 1_555
H7FA C10FA 1_555 1_555
H7RA C10RA 1_555 1_555
H7Z C10Z 1_555 1_555
C11SA C4SA 1_555 1_555
C11O C4O 1_555 1_555
C11PA C4PA 1_555 1_555
C11N C4N 1_555 1_555
C11TA C4TA 1_555 1_555
C11D C4D 1_555 1_555
C11E C4E 1_555 1_555
C11F C4F 1_555 1_555
C11FA C4FA 1_555 1_555
C11RA C4RA 1_555 1_555
C11Z C4Z 1_555 1_555
H8SA C11SA 1_555 1_555
H8PA C11PA 1_555 1_555
H8O C11O 1_555 1_555
H8N C11N 1_555 1_555
H8TA C11TA 1_555 1_555
H8D C11D 1_555 1_555
H8E C11E 1_555 1_555
H8F C11F 1_555 1_555
H8FA C11FA 1_555 1_555
H8RA C11RA 1_555 1_555
H8Z C11Z 1_555 1_555
O4J N4 1_555 1_555
O4K N4 1_555 1_555
O8V N5 1_555 1_555
N3 C10 1_555 1_555
N3 C11 1_555 1_555
C7 C8 1_555 1_555
C8 C9 1_555 1_555
N1SA C3SA 1_555 1_555
C3N C3TA 1_555 1_555
C3O C3PA 1_555 1_555
N3F C10F 1_555 1_555
N3F C11F 1_555 1_555
N3D C10D 1_555 1_555
N3D C11D 1_555 1_555
N3E C10E 1_555 1_555
N3E C11E 1_555 1_555
N3SA C11SA 1_555 1_555
N3PA C11PA 1_555 1_555
N3O C11O 1_555 1_555
N3N C11N 1_555 1_555
N3TA C11TA 1_555 1_555
N3FA C11FA 1_555 1_555
N3RA C10RA 1_555 1_555
N3RA C11RA 1_555 1_555
N3Z C11Z 1_555 1_555
C7SA C8SA 1_555 1_555
C7O C8O 1_555 1_555
C7PA C8PA 1_555 1_555
C7TA C8TA 1_555 1_555
C7N C8N 1_555 1_555
C7D C8D 1_555 1_555
C7E C8E 1_555 1_555
C7F C8F 1_555 1_555
C7FA C8FA 1_555 1_555
C7RA C8RA 1_555 1_555
C7Z C8Z 1_555 1_555
C8SA C9SA 1_555 1_555
C8O C9O 1_555 1_555
C8PA C9PA 1_555 1_555
C8TA C9TA 1_555 1_555
C8N C9N 1_555 1_555
C8D C9D 1_555 1_555
C8E C9E 1_555 1_555
C8F C9F 1_555 1_555
C8Z C9Z 1_555 1_555
C8RA C9RA 1_555 1_555
C8FA C9FA 1_555 1_555

#END
