
#######################################################################
#
#                 Cambridge Crystallographic Data Centre
#                                CCDC 
#
#######################################################################
#
# If this CIF has been generated from an entry in the Cambridge 
# Structural Database, then it will include bibliographic, chemical, 
# crystal, experimental, refinement or atomic coordinate data resulting 
# from the CCDC's data processing and validation procedures.
#
#######################################################################

data_TATCUO
_symmetry_cell_setting           monoclinic
_symmetry_space_group_name_H-M   'P 21/c'
_symmetry_Int_Tables_number      14
_space_group_name_Hall           '-P 2ybc'
loop_
_symmetry_equiv_pos_site_id
_symmetry_equiv_pos_as_xyz
1 x,y,z
2 -x,1/2+y,1/2-z
3 -x,-y,-z
4 x,1/2-y,1/2+z
_cell_length_a                   14.305(2)
_cell_length_b                   9.1322(11)
_cell_length_c                   15.356(2)
_cell_angle_alpha                90
_cell_angle_beta                 103.586(7)
_cell_angle_gamma                90
_cell_volume                     1949.92
loop_
_atom_site_label
_atom_site_type_symbol
_atom_site_fract_x
_atom_site_fract_y
_atom_site_fract_z
Zn1 Zn 0.251305(18) 1.06156(3) 0.494581(18)
Zn2 Zn 0.254710(19) 0.91976(3) 0.824720(19)
O1 O 0.25417(11) 0.9716(2) 0.69363(11)
O2 O 0.15755(12) 0.9851(2) 0.55726(11)
O3 O -0.17025(12) 0.8664(2) 0.61815(12)
O4 O 0.25559(11) 0.7781(2) 0.38972(13)
O5 O 0.35442(12) 0.94154(19) 0.46985(13)
O6 O 0.68361(11) 0.75568(19) 0.45504(12)
O7 O 0.24029(17) 1.0977(2) 0.89657(16)
N1 N 0.10939(13) 0.9071(2) 0.76714(13)
N2 N 0.40155(14) 0.6120(2) 0.37021(13)
C1 C 0.17286(16) 0.9654(3) 0.64077(16)
C2 C 0.08678(16) 0.9308(2) 0.67888(16)
C3 C -0.00586(17) 0.9244(3) 0.62509(17)
H1 H -0.0171 0.9442 0.5641
C4 C -0.08187(16) 0.8878(3) 0.66378(17)
C5 C -0.06012(17) 0.8690(3) 0.75919(16)
C6 C -0.13315(19) 0.8435(3) 0.80614(19)
H2 H -0.1971 0.8373 0.7747
C7 C -0.1101(2) 0.8280(3) 0.89694(19)
H3 H -0.1586 0.8125 0.9270
C8 C -0.0145(2) 0.8352(3) 0.94523(19)
H4 H 0.0001 0.8236 1.0071
C9 C 0.05754(19) 0.8590(3) 0.90257(17)
H5 H 0.1210 0.8622 0.9354
C10 C 0.03613(17) 0.8787(3) 0.80854(16)
C11 C 0.33748(16) 0.8266(3) 0.42326(17)
C12 C 0.42327(16) 0.7424(3) 0.40934(16)
C13 C 0.51558(16) 0.7979(3) 0.43735(17)
H6 H 0.5251 0.8911 0.4623
C14 C 0.59387(16) 0.7144(3) 0.42821(16)
C15 C 0.57362(17) 0.5704(3) 0.39051(16)
C16 C 0.64712(19) 0.4716(3) 0.3823(2)
H7 H 0.7111 0.5008 0.4000
C17 C 0.6258(2) 0.3339(3) 0.3487(2)
H8 H 0.6752 0.2699 0.3447
C18 C 0.5300(2) 0.2887(3) 0.3205(2)
H9 H 0.5161 0.1946 0.2979
C19 C 0.4567(2) 0.3817(3) 0.32580(19)
H10 H 0.3933 0.3512 0.3055
C20 C 0.47657(17) 0.5236(3) 0.36191(16)
H11 H 0.2085 1.1753 0.8817
H12 H 0.2739 1.1041 0.9528
Zn1B Zn -0.251305(18) 0.93844(3) 0.505419(18)
Zn1B_2 Zn 0.748695(18) 0.93844(3) 0.505419(18)
Zn2C Zn 0.254710(19) 0.58024(3) 0.324720(19)
O3B O 0.17025(12) 1.1336(2) 0.38185(12)
O4C O 0.25559(11) 0.7219(2) 0.88972(13)
O6B O 0.31639(11) 1.24432(19) 0.54496(12)
N2C N 0.40155(14) 0.8880(2) 0.87021(13)
loop_
_geom_bond_atom_site_label_1
_geom_bond_atom_site_label_2
_geom_bond_site_symmetry_1
_geom_bond_site_symmetry_2
Zn1 O2 1_555 1_555
Zn2 O1 1_555 1_555
O1 C1 1_555 1_555
O2 C1 1_555 1_555
O3 C4 1_555 1_555
O4 C11 1_555 1_555
O5 Zn1 1_555 1_555
O6 C14 1_555 1_555
O7 Zn2 1_555 1_555
N1 Zn2 1_555 1_555
N2 C12 1_555 1_555
C1 C2 1_555 1_555
C2 N1 1_555 1_555
C3 C2 1_555 1_555
H1 C3 1_555 1_555
C4 C3 1_555 1_555
C5 C4 1_555 1_555
C6 C5 1_555 1_555
H2 C6 1_555 1_555
C7 C6 1_555 1_555
H3 C7 1_555 1_555
C8 C7 1_555 1_555
H4 C8 1_555 1_555
C9 C8 1_555 1_555
H5 C9 1_555 1_555
C10 N1 1_555 1_555
C11 O5 1_555 1_555
C12 C11 1_555 1_555
C13 C12 1_555 1_555
H6 C13 1_555 1_555
C14 C13 1_555 1_555
C15 C14 1_555 1_555
C16 C15 1_555 1_555
H7 C16 1_555 1_555
C17 C16 1_555 1_555
H8 C17 1_555 1_555
C18 C17 1_555 1_555
H9 C18 1_555 1_555
C19 C18 1_555 1_555
H10 C19 1_555 1_555
C20 N2 1_555 1_555
H11 O7 1_555 1_555
H12 O7 1_555 1_555
Zn1B O3 1_555 1_555
Zn1B_2 O6 1_555 1_555
Zn2C O4 1_555 1_555
O3B Zn1 1_555 1_555
O4C Zn2 1_555 1_555
O6B Zn1 1_555 1_555
N2C Zn2 1_555 1_555
N2 Zn2C 1_555 1_555
C5 C10 1_555 1_555
C9 C10 1_555 1_555
C15 C20 1_555 1_555
C19 C20 1_555 1_555

#END
