
#######################################################################
#
#                 Cambridge Crystallographic Data Centre
#                                CCDC 
#
#######################################################################
#
# If this CIF has been generated from an entry in the Cambridge 
# Structural Database, then it will include bibliographic, chemical, 
# crystal, experimental, refinement or atomic coordinate data resulting 
# from the CCDC's data processing and validation procedures.
#
#######################################################################

data_TATFOL
_symmetry_cell_setting           rhombohedral
_symmetry_space_group_name_H-M   'R -3'
_symmetry_Int_Tables_number      148
_space_group_name_Hall           '-R 3'
loop_
_symmetry_equiv_pos_site_id
_symmetry_equiv_pos_as_xyz
1 x,y,z
2 -y,x-y,z
3 -x+y,-x,z
4 2/3+x,1/3+y,1/3+z
5 2/3-y,1/3+x-y,1/3+z
6 2/3-x+y,1/3-x,1/3+z
7 1/3+x,2/3+y,2/3+z
8 1/3-y,2/3+x-y,2/3+z
9 1/3-x+y,2/3-x,2/3+z
10 -x,-y,-z
11 y,-x+y,-z
12 x-y,x,-z
13 1/3-x,2/3-y,2/3-z
14 1/3+y,2/3-x+y,2/3-z
15 1/3+x-y,2/3+x,2/3-z
16 2/3-x,1/3-y,1/3-z
17 2/3+y,1/3-x+y,1/3-z
18 2/3+x-y,1/3+x,1/3-z
_cell_length_a                   18.7073(10)
_cell_length_b                   18.7073(10)
_cell_length_c                   7.9797(7)
_cell_angle_alpha                90
_cell_angle_beta                 90
_cell_angle_gamma                120
_cell_volume                     2418.46
loop_
_atom_site_label
_atom_site_type_symbol
_atom_site_fract_x
_atom_site_fract_y
_atom_site_fract_z
Ni1 Ni 0.0000 0.0000 0.0000
N1 N 0.02868(11) 0.10428(10) 0.1531(2)
N2 N 0.08566(13) 0.23160(12) 0.2491(3)
C1 C -0.01257(16) 0.10551(15) 0.2946(3)
C2 C 0.02279(18) 0.18338(16) 0.3562(4)
C3 C 0.08768(15) 0.18139(14) 0.1300(3)
C4 C 0.1386(2) 0.32151(15) 0.2579(4)
H1 H -0.060(2) 0.059(2) 0.341(4)
H2 H 0.011(3) 0.201(3) 0.458(5)
H3 H 0.130(2) 0.204(2) 0.042(4)
H4 H 0.110(3) 0.352(3) 0.263(6)
H5 H 0.174(2) 0.337(2) 0.155(5)
Ni1F Ni 0.3333 0.6667 0.6667
Ni1F_2 Ni -0.6667 -0.3333 0.6667
Ni1F_3 Ni 0.3333 -0.3333 0.6667
N1L N 0.30465(11) 0.56239(10) 0.5136(2)
N1A N -0.10428(10) -0.07560(15) 0.1531(2)
N1M N -0.56239(10) -0.25773(15) 0.5136(2)
N1B N 0.07560(15) -0.02868(11) 0.1531(2)
N1N N 0.25773(15) -0.30465(11) 0.5136(2)
N1I N -0.02868(11) -0.10428(10) -0.1531(2)
N1J N 0.10428(10) 0.07560(15) -0.1531(2)
N1K N -0.07560(15) 0.02868(11) -0.1531(2)
N2L N 0.24767(13) 0.43507(12) 0.4176(3)
N2A N -0.23160(12) -0.14594(18) 0.2491(3)
N2M N -0.43507(12) -0.18739(18) 0.4176(3)
N2B N 0.14594(18) -0.08566(13) 0.2491(3)
N2N N 0.18739(18) -0.24767(13) 0.4176(3)
C1L C 0.34590(16) 0.56116(15) 0.3721(3)
C1A C -0.10551(15) -0.11808(22) 0.2946(3)
C1M C -0.56116(15) -0.21525(22) 0.3721(3)
C1B C 0.11808(22) 0.01257(16) 0.2946(3)
C1N C 0.21525(22) -0.34590(16) 0.3721(3)
C2L C 0.31054(18) 0.48329(16) 0.3105(4)
C2A C -0.18338(16) -0.16059(24) 0.3562(4)
C2M C -0.48329(16) -0.17274(24) 0.3105(4)
C2B C 0.16059(24) -0.02279(18) 0.3562(4)
C2N C 0.17274(24) -0.31054(18) 0.3105(4)
C3L C 0.24565(15) 0.48528(14) 0.5367(3)
C3A C -0.18139(14) -0.09371(21) 0.1300(3)
C3M C -0.48528(14) -0.23962(21) 0.5367(3)
C3B C 0.09371(21) -0.08768(15) 0.1300(3)
C3N C 0.23962(21) -0.24565(15) 0.5367(3)
C4L C 0.1947(2) 0.34516(15) 0.4088(4)
C4A C -0.32151(15) -0.18291(25) 0.2579(4)
C4M C -0.34516(15) -0.15042(25) 0.4088(4)
C4B C 0.18291(25) -0.1386(2) 0.2579(4)
C4N C 0.15042(25) -0.1947(2) 0.4088(4)
H1L H 0.393(2) 0.608(2) 0.326(4)
H1A H -0.059(2) -0.119(3) 0.341(4)
H1M H -0.608(2) -0.214(3) 0.326(4)
H1B H 0.119(3) 0.060(2) 0.341(4)
H1N H 0.214(3) -0.393(2) 0.326(4)
H2L H 0.322(3) 0.466(3) 0.209(5)
H2A H -0.201(3) -0.190(4) 0.458(5)
H2M H -0.466(3) -0.143(4) 0.209(5)
H2B H 0.190(4) -0.011(3) 0.458(5)
H2N H 0.143(4) -0.322(3) 0.209(5)
H3L H 0.203(2) 0.463(2) 0.625(4)
H3A H -0.204(2) -0.074(3) 0.042(4)
H3M H -0.463(2) -0.259(3) 0.625(4)
H3B H 0.074(3) -0.130(2) 0.042(4)
H3N H 0.259(3) -0.203(2) 0.625(4)
H4L H 0.223(3) 0.315(3) 0.404(6)
H4A H -0.352(3) -0.242(4) 0.263(6)
H4M H -0.315(3) -0.091(4) 0.404(6)
H4B H 0.242(4) -0.110(3) 0.263(6)
H4N H 0.091(4) -0.223(3) 0.404(6)
H5L H 0.159(2) 0.330(2) 0.512(5)
H5A H -0.337(2) -0.163(3) 0.155(5)
H5M H -0.330(2) -0.170(3) 0.512(5)
H5B H 0.163(3) -0.174(2) 0.155(5)
H5N H 0.170(3) -0.159(2) 0.512(5)
O1 O -0.0545(9) 0.2771(7) 0.0187(19)
O2 O -0.0513(11) 0.3187(11) 0.233(2)
O3 O -0.1287(11) 0.2235(13) 0.150(2)
N3 N -0.0754(7) 0.2750(6) 0.1368(15)
loop_
_geom_bond_atom_site_label_1
_geom_bond_atom_site_label_2
_geom_bond_site_symmetry_1
_geom_bond_site_symmetry_2
Ni1 N1 1_555 1_555
O1 N3 1_555 1_555
O2 N3 1_555 1_555
O3 N3 1_555 1_555
N1 C1 1_555 1_555
N2 C2 1_555 1_555
C1 C2 1_555 1_555
C2 H2 1_555 1_555
C3 N1 1_555 1_555
C4 N2 1_555 1_555
H1 C1 1_555 1_555
H3 C3 1_555 1_555
H4 C4 1_555 1_555
H5 C4 1_555 1_555
Ni1F N1L 1_555 1_555
Ni1F_2 N1M 1_555 1_555
Ni1F_3 N1N 1_555 1_555
N1L C1L 1_555 1_555
N1A Ni1 1_555 1_555
N1M C1M 1_555 1_555
N1B Ni1 1_555 1_555
N1N C1N 1_555 1_555
N1I Ni1 1_555 1_555
N1J Ni1 1_555 1_555
N1K Ni1 1_555 1_555
N2L C2L 1_555 1_555
N2A C2A 1_555 1_555
N2M C2M 1_555 1_555
N2B C2B 1_555 1_555
N2N C2N 1_555 1_555
C1L C2L 1_555 1_555
C1A N1A 1_555 1_555
C1M C2M 1_555 1_555
C1B N1B 1_555 1_555
C1N C2N 1_555 1_555
C2L H2L 1_555 1_555
C2A C1A 1_555 1_555
C2M H2M 1_555 1_555
C2B C1B 1_555 1_555
C2N H2N 1_555 1_555
C3L N1L 1_555 1_555
C3A N1A 1_555 1_555
C3M N1M 1_555 1_555
C3B N1B 1_555 1_555
C3N N1N 1_555 1_555
C4L C4 1_555 1_555
C4A N2A 1_555 1_555
C4M N2M 1_555 1_555
C4B N2B 1_555 1_555
C4N N2N 1_555 1_555
H1L C1L 1_555 1_555
H1A C1A 1_555 1_555
H1M C1M 1_555 1_555
H1B C1B 1_555 1_555
H1N C1N 1_555 1_555
H2A C2A 1_555 1_555
H2B C2B 1_555 1_555
H3L C3L 1_555 1_555
H3A C3A 1_555 1_555
H3M C3M 1_555 1_555
H3B C3B 1_555 1_555
H3N C3N 1_555 1_555
H4L C4L 1_555 1_555
H4A C4A 1_555 1_555
H4M C4M 1_555 1_555
H4B C4B 1_555 1_555
H4N C4N 1_555 1_555
H5L C4L 1_555 1_555
H5A C4A 1_555 1_555
H5M C4M 1_555 1_555
H5B C4B 1_555 1_555
H5N C4N 1_555 1_555
N2 C3 1_555 1_555
N2L C3L 1_555 1_555
N2L C4L 1_555 1_555
N2A C3A 1_555 1_555
N2M C3M 1_555 1_555
N2B C3B 1_555 1_555
N2N C3N 1_555 1_555
C4A C4M 1_555 1_555
C4B C4N 1_555 1_555

#END
