
#######################################################################
#
#                 Cambridge Crystallographic Data Centre
#                                CCDC 
#
#######################################################################
#
# If this CIF has been generated from an entry in the Cambridge 
# Structural Database, then it will include bibliographic, chemical, 
# crystal, experimental, refinement or atomic coordinate data resulting 
# from the CCDC's data processing and validation procedures.
#
#######################################################################

data_TATGEB
_symmetry_cell_setting           monoclinic
_symmetry_space_group_name_H-M   'C 2/c'
_symmetry_Int_Tables_number      15
_space_group_name_Hall           '-C 2yn'
loop_
_symmetry_equiv_pos_site_id
_symmetry_equiv_pos_as_xyz
1 x,y,z
2 1/2+x,1/2+y,z
3 -x,y,1/2-z
4 1/2-x,1/2+y,1/2-z
5 -x,-y,-z
6 1/2-x,1/2-y,-z
7 x,-y,1/2+z
8 1/2+x,1/2-y,1/2+z
_cell_length_a                   14.007(13)
_cell_length_b                   11.229(11)
_cell_length_c                   31.81(3)
_cell_angle_alpha                90
_cell_angle_beta                 95.850(19)
_cell_angle_gamma                90
_cell_volume                     4977.17
loop_
_atom_site_label
_atom_site_type_symbol
_atom_site_fract_x
_atom_site_fract_y
_atom_site_fract_z
Pb1 Pb -0.58400(3) 0.17658(3) 0.379480(13)
C1 C -0.4307(10) 0.2367(11) 0.3306(4)
C2 C -0.3361(9) 0.2725(10) 0.3140(4)
H1 H -0.2847 0.2190 0.3276
C3 C -0.3078(8) 0.4008(10) 0.3257(3)
C4 C -0.2554(10) 0.4095(11) 0.3689(4)
H2 H -0.1992 0.3570 0.3708
H3 H -0.2980 0.3855 0.3899
H4 H -0.2344 0.4919 0.3743
C5 C -0.2597(12) 0.4072(17) 0.2170(4)
H5 H -0.3176 0.4566 0.2160
H6 H -0.2661 0.3502 0.1936
H7 H -0.2037 0.4581 0.2146
C6 C -0.2473(9) 0.3415(12) 0.2578(4)
N1 N -0.2428(7) 0.4243(9) 0.2930(3)
C7 C -0.1540(11) 0.2666(14) 0.2603(5)
H8 H -0.1001 0.3180 0.2549
H9 H -0.1611 0.2032 0.2390
H10 H -0.1419 0.2313 0.2885
C8 C -0.3343(11) 0.2637(14) 0.2671(4)
H11 H -0.3945 0.2948 0.2521
H12 H -0.3254 0.1801 0.2584
C9 C -0.3912(10) 0.4861(12) 0.3188(5)
H13 H -0.3696 0.5666 0.3269
H14 H -0.4418 0.4615 0.3362
H15 H -0.4165 0.4854 0.2889
N2 N -0.5011(7) 0.1907(7) 0.4505(3)
O1 O -0.4284(6) 0.2363(8) 0.3710(3)
O2 O -0.1883(6) 0.5176(7) 0.2949(3)
O3 O -0.5017(8) 0.2087(12) 0.3085(3)
C10 C -0.4049(8) 0.1964(9) 0.4632(3)
H16 H -0.3557 0.1704 0.4468
C11 C -0.5426(8) 0.2382(9) 0.4830(3)
H17 H -0.6100 0.2467 0.4831
C12 C -0.3900(8) 0.2440(10) 0.5019(3)
H18 H -0.3296 0.2566 0.5177
N3 N -0.5058(6) -0.0244(7) 0.3859(3)
C13 C -0.5088(7) -0.0923(8) 0.4193(3)
H19 H -0.5152 -0.0626 0.4468
C14 C -0.4983(8) -0.1017(10) 0.3522(4)
H20 H -0.4944 -0.0786 0.3237
N4 N -0.5016(6) -0.2097(7) 0.4102(3)
C15 C -0.4976(8) -0.2140(10) 0.3664(3)
H21 H -0.4949 -0.2840 0.3498
N5 N -0.5590(6) -0.4148(7) 0.4231(3)
N6 N -0.3890(6) -0.3577(7) 0.4466(3)
N7 N -0.4802(6) 0.2717(7) 0.5148(3)
C16 C -0.3144(8) -0.3122(9) 0.4276(4)
H22 H -0.3214 -0.2511 0.4068
B1 B -0.4942(9) -0.3138(9) 0.4413(4)
C17 C -0.2540(8) -0.4446(10) 0.4706(4)
H23 H -0.2093 -0.4964 0.4857
C18 C -0.3490(8) -0.4404(9) 0.4747(3)
H24 H -0.3820 -0.4866 0.4937
C19 C -0.6560(9) -0.4068(9) 0.4073(4)
H25 H -0.6944 -0.3370 0.4065
C20 C -0.6846(9) -0.5144(10) 0.3937(4)
H26 H -0.7478 -0.5348 0.3822
N8 N -0.2317(7) -0.3614(8) 0.4407(3)
N9 N -0.6082(7) -0.5910(8) 0.3990(3)
C21 C -0.5361(9) -0.5304(9) 0.4167(3)
H27 H -0.4743 -0.5633 0.4244
Pb1D Pb -0.41600(3) -0.17658(3) 0.620520(13)
Pb1A Pb -0.08400(3) -0.32342(3) 0.379480(13)
Pb1_2 Pb -0.58400(3) -0.82342(3) 0.379480(13)
Pb1E Pb -0.91600(3) 0.32342(3) 0.620520(13)
Pb1D_2 Pb -0.41600(3) 0.82342(3) 0.620520(13)
C1D C -0.5693(10) -0.2367(11) 0.6694(4)
C2D C -0.6639(9) -0.2725(10) 0.6860(4)
H1D H -0.7153 -0.2190 0.6724
C3D C -0.6922(8) -0.4008(10) 0.6743(3)
C4D C -0.7446(10) -0.4095(11) 0.6311(4)
H2D H -0.8008 -0.3570 0.6292
H3D H -0.7020 -0.3855 0.6101
H4D H -0.7656 -0.4919 0.6257
C5D C -0.7403(12) -0.4072(17) 0.7830(4)
H5D H -0.6824 -0.4566 0.7840
H6D H -0.7339 -0.3502 0.8064
H7D H -0.7963 -0.4581 0.7854
C6D C -0.7527(9) -0.3415(12) 0.7422(4)
N1D N -0.7572(7) -0.4243(9) 0.7070(3)
C7D C -0.8460(11) -0.2666(14) 0.7397(5)
H8D H -0.8999 -0.3180 0.7451
H9D H -0.8389 -0.2032 0.7610
H10D H -0.8581 -0.2313 0.7115
C8D C -0.6657(11) -0.2637(14) 0.7329(4)
H11D H -0.6055 -0.2948 0.7479
H12D H -0.6746 -0.1801 0.7416
C9D C -0.6088(10) -0.4861(12) 0.6812(5)
H13D H -0.6304 -0.5666 0.6731
H14D H -0.5582 -0.4615 0.6638
H15D H -0.5835 -0.4854 0.7111
N2D N -0.4989(7) -0.1907(7) 0.5495(3)
O1D O -0.5716(6) -0.2363(8) 0.6290(3)
O2D O -0.8117(6) -0.5176(7) 0.7051(3)
O3D O -0.4983(8) -0.2087(12) 0.6915(3)
C10D C -0.5951(8) -0.1964(9) 0.5368(3)
H16D H -0.6443 -0.1704 0.5532
C11D C -0.4574(8) -0.2382(9) 0.5170(3)
H17D H -0.3900 -0.2467 0.5169
C12D C -0.6100(8) -0.2440(10) 0.4981(3)
H18D H -0.6704 -0.2566 0.4823
N3D N -0.4942(6) 0.0244(7) 0.6141(3)
C13D C -0.4912(7) 0.0923(8) 0.5807(3)
H19D H -0.4848 0.0626 0.5532
C14D C -0.5017(8) 0.1017(10) 0.6478(4)
H20D H -0.5056 0.0786 0.6763
N4D N -0.4984(6) 0.2097(7) 0.5898(3)
C15D C -0.5024(8) 0.2140(10) 0.6336(3)
H21D H -0.5051 0.2840 0.6502
N5D N -0.4410(6) 0.4148(7) 0.5769(3)
N6D N -0.6110(6) 0.3577(7) 0.5534(3)
N7D N -0.5198(6) -0.2717(7) 0.4852(3)
C16D C -0.6856(8) 0.3122(9) 0.5724(4)
H22D H -0.6786 0.2511 0.5932
B1D B -0.5058(9) 0.3138(9) 0.5587(4)
C17D C -0.7460(8) 0.4446(10) 0.5294(4)
H23D H -0.7907 0.4964 0.5143
C18D C -0.6510(8) 0.4404(9) 0.5253(3)
H24D H -0.6180 0.4866 0.5063
C19D C -0.3440(9) 0.4068(9) 0.5927(4)
H25D H -0.3056 0.3370 0.5935
C20D C -0.3154(9) 0.5144(10) 0.6063(4)
H26D H -0.2522 0.5348 0.6178
N8E N -0.2683(7) -0.1386(8) 0.5593(3)
N8A N -0.7317(7) 0.1386(8) 0.4407(3)
N8D N -0.7683(7) 0.3614(8) 0.5593(3)
N9D N -0.3918(7) -0.4090(8) 0.6010(3)
N9_2 N -0.6082(7) 0.4090(8) 0.3990(3)
N9D_2 N -0.3918(7) 0.5910(8) 0.6010(3)
C21D C -0.4639(9) 0.5304(9) 0.5833(3)
H27D H -0.5257 0.5633 0.5756
O4 O -0.5000 0.0009(11) 0.2500
loop_
_geom_bond_atom_site_label_1
_geom_bond_atom_site_label_2
_geom_bond_site_symmetry_1
_geom_bond_site_symmetry_2
Pb1 N2 1_555 1_555
C1 C2 1_555 1_555
C2 H1 1_555 1_555
C3 C2 1_555 1_555
C4 C3 1_555 1_555
H2 C4 1_555 1_555
H3 C4 1_555 1_555
H4 C4 1_555 1_555
C5 H5 1_555 1_555
H6 C5 1_555 1_555
H7 C5 1_555 1_555
C6 C5 1_555 1_555
N1 C3 1_555 1_555
C7 C6 1_555 1_555
H8 C7 1_555 1_555
H9 C7 1_555 1_555
H10 C7 1_555 1_555
C8 C2 1_555 1_555
H11 C8 1_555 1_555
H12 C8 1_555 1_555
C9 C3 1_555 1_555
H13 C9 1_555 1_555
H14 C9 1_555 1_555
H15 C9 1_555 1_555
N2 C10 1_555 1_555
O1 Pb1 1_555 1_555
O2 N1 1_555 1_555
O3 Pb1 1_555 1_555
C10 H16 1_555 1_555
C11 N2 1_555 1_555
H17 C11 1_555 1_555
C12 C10 1_555 1_555
H18 C12 1_555 1_555
N3 Pb1 1_555 1_555
C13 N3 1_555 1_555
H19 C13 1_555 1_555
C14 N3 1_555 1_555
H20 C14 1_555 1_555
N4 C13 1_555 1_555
C15 C14 1_555 1_555
H21 C15 1_555 1_555
N5 B1 1_555 1_555
N6 C16 1_555 1_555
N7 C11 1_555 1_555
C16 H22 1_555 1_555
B1 N4 1_555 1_555
C17 H23 1_555 1_555
C18 N6 1_555 1_555
H24 C18 1_555 1_555
C19 N5 1_555 1_555
H25 C19 1_555 1_555
C20 C19 1_555 1_555
H26 C20 1_555 1_555
N8 C16 1_555 1_555
N9 C20 1_555 1_555
C21 N5 1_555 1_555
H27 C21 1_555 1_555
Pb1D N2D 1_555 1_555
Pb1A N8 1_555 1_555
Pb1_2 N9 1_555 1_555
Pb1E N8D 1_555 1_555
Pb1D_2 N9D_2 1_555 1_555
C1D C2D 1_555 1_555
C2D H1D 1_555 1_555
C3D C2D 1_555 1_555
C4D C3D 1_555 1_555
H2D C4D 1_555 1_555
H3D C4D 1_555 1_555
H4D C4D 1_555 1_555
C5D H5D 1_555 1_555
H6D C5D 1_555 1_555
H7D C5D 1_555 1_555
C6D C5D 1_555 1_555
N1D C3D 1_555 1_555
C7D C6D 1_555 1_555
H8D C7D 1_555 1_555
H9D C7D 1_555 1_555
H10D C7D 1_555 1_555
C8D C2D 1_555 1_555
H11D C8D 1_555 1_555
H12D C8D 1_555 1_555
C9D C3D 1_555 1_555
H13D C9D 1_555 1_555
H14D C9D 1_555 1_555
H15D C9D 1_555 1_555
N2D C10D 1_555 1_555
O1D Pb1D 1_555 1_555
O2D N1D 1_555 1_555
O3D Pb1D 1_555 1_555
C10D H16D 1_555 1_555
C11D N2D 1_555 1_555
H17D C11D 1_555 1_555
C12D C10D 1_555 1_555
H18D C12D 1_555 1_555
N3D Pb1D 1_555 1_555
C13D N3D 1_555 1_555
H19D C13D 1_555 1_555
C14D N3D 1_555 1_555
H20D C14D 1_555 1_555
N4D C13D 1_555 1_555
C15D C14D 1_555 1_555
H21D C15D 1_555 1_555
N5D B1D 1_555 1_555
N6D C16D 1_555 1_555
N7D B1 1_555 1_555
C16D H22D 1_555 1_555
B1D N7 1_555 1_555
C17D H23D 1_555 1_555
C18D N6D 1_555 1_555
H24D C18D 1_555 1_555
C19D N5D 1_555 1_555
H25D C19D 1_555 1_555
C20D C19D 1_555 1_555
H26D C20D 1_555 1_555
N8E Pb1D 1_555 1_555
N8A Pb1 1_555 1_555
N8D C16D 1_555 1_555
N9D Pb1D 1_555 1_555
N9_2 Pb1 1_555 1_555
N9D_2 C20D 1_555 1_555
C21D N5D 1_555 1_555
H27D C21D 1_555 1_555
C1 O1 1_555 1_555
C1 O3 1_555 1_555
C6 N1 1_555 1_555
C6 C8 1_555 1_555
C12 N7 1_555 1_555
N4 C15 1_555 1_555
N6 B1 1_555 1_555
C17 C18 1_555 1_555
C17 N8 1_555 1_555
N9 C21 1_555 1_555
C1D O1D 1_555 1_555
C1D O3D 1_555 1_555
C6D N1D 1_555 1_555
C6D C8D 1_555 1_555
C11D N7D 1_555 1_555
C12D N7D 1_555 1_555
N4D C15D 1_555 1_555
N4D B1D 1_555 1_555
N6D B1D 1_555 1_555
C17D C18D 1_555 1_555
C17D N8D 1_555 1_555
N9D_2 C21D 1_555 1_555

#END
