
#######################################################################
#
#                 Cambridge Crystallographic Data Centre
#                                CCDC 
#
#######################################################################
#
# If this CIF has been generated from an entry in the Cambridge 
# Structural Database, then it will include bibliographic, chemical, 
# crystal, experimental, refinement or atomic coordinate data resulting 
# from the CCDC's data processing and validation procedures.
#
#######################################################################

data_TATGUR
_symmetry_cell_setting           triclinic
_symmetry_space_group_name_H-M   'P -1'
_symmetry_Int_Tables_number      2
_space_group_name_Hall           '-P 1'
loop_
_symmetry_equiv_pos_site_id
_symmetry_equiv_pos_as_xyz
1 x,y,z
2 -x,-y,-z
_cell_length_a                   8.868(2)
_cell_length_b                   9.344(2)
_cell_length_c                   10.907(2)
_cell_angle_alpha                80.08(3)
_cell_angle_beta                 67.62(3)
_cell_angle_gamma                74.18(3)
_cell_volume                     801.669
loop_
_atom_site_label
_atom_site_type_symbol
_atom_site_fract_x
_atom_site_fract_y
_atom_site_fract_z
Cu1 Cu -0.10322(4) 0.22787(4) 0.47834(4)
O1 O 0.0388(2) 0.0855(2) 0.3399(2)
O2 O -0.2990(2) 0.1765(2) 0.47853(19)
O3 O -0.3479(2) 0.0485(3) 0.6784(2)
O4 O -0.8977(2) 0.2657(2) 0.47664(19)
O5 O -0.9161(2) 0.1401(2) 0.6724(2)
O6 O -0.8046(3) 0.5228(2) 0.6120(2)
O7 O -0.7508(2) 0.6119(2) 0.40172(18)
C1 C -0.3980(3) 0.1193(3) 0.5858(3)
C2 C -0.5724(3) 0.1262(3) 0.6004(3)
H1 H -0.6227 0.0524 0.6568
C3 C -0.6630(3) 0.2268(3) 0.5411(3)
C4 C -0.8424(3) 0.2118(3) 0.5680(3)
C5 C -0.6116(3) 0.3562(3) 0.4426(3)
H2 H -0.4987 0.3592 0.4316
H3 H -0.6123 0.3418 0.3568
C6 C -0.7294(3) 0.5011(3) 0.4904(3)
Cu1_2 Cu -1.10322(4) 0.22787(4) 0.47834(4)
Cu1A Cu -0.89678(4) 0.77213(4) 0.52166(4)
O4_2 O 0.1023(2) 0.2657(2) 0.47664(19)
O6A O -0.1954(3) 0.4772(2) 0.3880(2)
O7A O -0.2492(2) 0.3881(2) 0.59828(18)
C7 C -0.1722(2) 0.6346(2) -0.1018(2)
H4 H -0.1336 0.7154 -0.1555
C8 C -0.2016(3) 0.5261(3) -0.1570(3)
H5 H -0.1827 0.5342 -0.2476
C9 C -0.2592(4) 0.4054(3) -0.0768(4)
C10 C -0.2875(5) 0.3933(3) 0.0586(3)
H6 H -0.3261 0.3125 0.1123
C11 C -0.2581(5) 0.5018(4) 0.1138(2)
H7 H -0.2770 0.4936 0.2044
N1 N -0.2005(3) 0.6225(3) 0.0336(2)
H8 H -0.1823 0.6896 0.0677
N2 N -0.3052(6) 0.3169(5) -0.1177(4)
H9 H -0.3025 0.3284 -0.1984
H10 H -0.3403 0.2433 -0.0658
O8 O -0.5638(3) -0.0509(3) 0.9208(3)
O9 O -0.8860(3) 0.0920(4) 0.9190(3)
loop_
_geom_bond_atom_site_label_1
_geom_bond_atom_site_label_2
_geom_bond_site_symmetry_1
_geom_bond_site_symmetry_2
Cu1 O1 1_555 1_555
O2 Cu1 1_555 1_555
O3 C1 1_555 1_555
O4 C4 1_555 1_555
O5 C4 1_555 1_555
O6 C6 1_555 1_555
O7 C6 1_555 1_555
C1 O2 1_555 1_555
C2 C1 1_555 1_555
H1 C2 1_555 1_555
C3 C2 1_555 1_555
C4 C3 1_555 1_555
C5 C3 1_555 1_555
H2 C5 1_555 1_555
H3 C5 1_555 1_555
C6 C5 1_555 1_555
C7 H4 1_555 1_555
C8 C7 1_555 1_555
H5 C8 1_555 1_555
C9 C8 1_555 1_555
C10 C9 1_555 1_555
H6 C10 1_555 1_555
C11 C10 1_555 1_555
H7 C11 1_555 1_555
N1 C7 1_555 1_555
H8 N1 1_555 1_555
N2 C9 1_555 1_555
H9 N2 1_555 1_555
H10 N2 1_555 1_555
Cu1_2 O4 1_555 1_555
Cu1A O6 1_555 1_555
O4_2 Cu1 1_555 1_555
O6A Cu1 1_555 1_555
O7A Cu1 1_555 1_555
O7 Cu1A 1_555 1_555
C11 N1 1_555 1_555

#END
