
#######################################################################
#
#                 Cambridge Crystallographic Data Centre
#                                CCDC 
#
#######################################################################
#
# If this CIF has been generated from an entry in the Cambridge 
# Structural Database, then it will include bibliographic, chemical, 
# crystal, experimental, refinement or atomic coordinate data resulting 
# from the CCDC's data processing and validation procedures.
#
#######################################################################

data_TATHOM
_symmetry_cell_setting           triclinic
_symmetry_space_group_name_H-M   'P -1'
_symmetry_Int_Tables_number      2
_space_group_name_Hall           '-P 1'
loop_
_symmetry_equiv_pos_site_id
_symmetry_equiv_pos_as_xyz
1 x,y,z
2 -x,-y,-z
_cell_length_a                   8.6999(17)
_cell_length_b                   9.753(2)
_cell_length_c                   15.808(3)
_cell_angle_alpha                85.03(3)
_cell_angle_beta                 74.09(3)
_cell_angle_gamma                74.39(3)
_cell_volume                     1242.23
loop_
_atom_site_label
_atom_site_type_symbol
_atom_site_fract_x
_atom_site_fract_y
_atom_site_fract_z
Cu1 Cu 0.5000 0.5000 1.0000
Cu2 Cu 1.12540(3) 0.43174(3) 0.572070(16)
O1 O 0.8913(2) 0.2707(2) 0.67022(12)
O2 O 0.91211(14) 0.41781(13) 0.55776(9)
O3 O 0.27711(16) 0.29706(16) 0.69641(10)
O4 O 0.33954(13) 0.44255(14) 0.58513(8)
O5 O 0.4792(2) 0.53914(17) 0.79947(11)
O6 O 0.53996(19) 0.37819(18) 0.90055(9)
C1 C 0.8353(2) 0.3438(2) 0.61460(15)
C2 C 0.6585(2) 0.3570(2) 0.60644(13)
H1 H 0.6390 0.3788 0.5512
C3 C 0.5370(2) 0.3400(2) 0.67040(14)
C4 C 0.3723(2) 0.3628(2) 0.64822(13)
C5 C 0.5491(3) 0.2952(2) 0.76434(11)
H2 H 0.4692 0.2403 0.7900
H3 H 0.6582 0.2331 0.7613
C6 C 0.5195(2) 0.4165(2) 0.82455(12)
N1 N 0.7246(2) 0.5363(2) 0.95350(11)
C7 C 0.7549(3) 0.6566(3) 0.96715(15)
H4 H 0.6674 0.7249 1.0001
C8 C 0.9035(3) 0.6900(3) 0.93730(16)
H5 H 0.9182 0.7769 0.9487
C9 C 1.0296(3) 0.5861(4) 0.88919(15)
H6 H 1.1341 0.6025 0.8680
C10 C 1.0066(3) 0.4594(3) 0.87152(17)
H7 H 1.0914 0.3896 0.8381
C11 C 0.8541(3) 0.4423(3) 0.90540(15)
H8 H 0.8366 0.3564 0.8944
N2 N 1.25308(18) 0.25970(17) 0.49516(10)
C12 C 1.3945(3) 0.2644(3) 0.43518(14)
H9 H 1.4303 0.3472 0.4292
C13 C 1.4876(3) 0.1518(3) 0.38268(15)
H10 H 1.5839 0.1579 0.3405
C14 C 1.4342(3) 0.0275(3) 0.39406(16)
H11 H 1.4957 -0.0509 0.3593
C15 C 1.2960(3) 0.0204(3) 0.45429(17)
H12 H 1.2606 -0.0628 0.4623
C16 C 1.2067(3) 0.1367(2) 0.50422(15)
H13 H 1.1100 0.1310 0.5462
N3 N 1.01480(18) 0.60863(17) 0.64594(10)
C17 C 1.0947(2) 0.7082(2) 0.63970(14)
H14 H 1.2027 0.6921 0.6046
C18 C 1.0239(3) 0.8340(3) 0.68311(16)
H15 H 1.0820 0.9036 0.6749
C19 C 0.8669(3) 0.8590(3) 0.73909(15)
H16 H 0.8186 0.9426 0.7709
C20 C 0.7889(3) 0.7582(3) 0.74528(15)
H17 H 0.6817 0.7721 0.7812
C21 C 0.8622(2) 0.6333(2) 0.69984(13)
H18 H 0.8042 0.5640 0.7068
O1A O 0.1087(2) 0.7293(2) 1.32978(12)
O2A O 0.08789(14) 0.58219(13) 1.44224(9)
O3A O 0.72289(16) 0.70294(16) 1.30359(10)
O4A O 0.66046(13) 0.55745(14) 1.41487(8)
O5A O 0.5208(2) 0.46086(17) 1.20053(11)
O6A O 0.46004(19) 0.62181(18) 1.09945(9)
C1A C 0.1647(2) 0.6562(2) 1.38540(15)
C2A C 0.3415(2) 0.6430(2) 1.39356(13)
H1A H 0.3610 0.6212 1.4488
C3A C 0.4630(2) 0.6600(2) 1.32960(14)
C4A C 0.6277(2) 0.6372(2) 1.35178(13)
C5A C 0.4509(3) 0.7048(2) 1.23566(11)
H2A H 0.5308 0.7597 1.2100
H3A H 0.3418 0.7669 1.2387
C6A C 0.4805(2) 0.5835(2) 1.17545(12)
N1A N 0.2754(2) 0.4637(2) 1.04650(11)
C7A C 0.2451(3) 0.3434(3) 1.03285(15)
H4A H 0.3326 0.2751 0.9999
C8A C 0.0965(3) 0.3100(3) 1.06270(16)
H5A H 0.0818 0.2231 1.0513
C9A C -0.0296(3) 0.4139(4) 1.11081(15)
H6A H -0.1341 0.3975 1.1320
C10A C -0.0066(3) 0.5406(3) 1.12848(17)
H7A H -0.0914 0.6104 1.1619
C11A C 0.1459(3) 0.5577(3) 1.09460(15)
H8A H 0.1634 0.6436 1.1056
Cu2A Cu -0.12540(3) 0.56826(3) 1.427930(16)
N2A N -0.25308(18) 0.74030(17) 1.50484(10)
C12A C -0.3945(3) 0.7356(3) 1.56482(14)
H9A H -0.4303 0.6528 1.5708
C13A C -0.4876(3) 0.8482(3) 1.61732(15)
H10A H -0.5839 0.8421 1.6595
C14A C -0.4342(3) 0.9725(3) 1.60594(16)
H11A H -0.4957 1.0509 1.6407
C15A C -0.2960(3) 0.9796(3) 1.54571(17)
H12A H -0.2606 1.0628 1.5377
C16A C -0.2067(3) 0.8633(2) 1.49578(15)
H13A H -0.1100 0.8690 1.4538
N3A N -0.01480(18) 0.39137(17) 1.35406(10)
C17A C -0.0947(2) 0.2918(2) 1.36030(14)
H14A H -0.2027 0.3079 1.3954
C18A C -0.0239(3) 0.1660(3) 1.31689(16)
H15A H -0.0820 0.0964 1.3251
C19A C 0.1331(3) 0.1410(3) 1.26091(15)
H16A H 0.1814 0.0574 1.2291
C20A C 0.2111(3) 0.2418(3) 1.25472(15)
H17A H 0.3183 0.2279 1.2188
C21A C 0.1378(2) 0.3667(2) 1.30016(13)
H18A H 0.1958 0.4360 1.2932
O2A_2 O 1.08789(14) 0.58219(13) 0.44224(9)
O4_2 O 1.33954(13) 0.44255(14) 0.58513(8)
Cu2A_2 Cu 0.87460(3) 0.56826(3) 0.427930(16)
Cu2_2 Cu 0.12540(3) 0.43174(3) 0.572070(16)
Cu2_3 Cu 0.12540(3) 0.43174(3) 1.572070(16)
Cu2A_3 Cu 0.87460(3) 0.56826(3) 1.427930(16)
O2_2 O -0.08789(14) 0.41781(13) 1.55776(9)
O4A_2 O -0.33954(13) 0.55745(14) 1.41487(8)
O7 O 0.6272(3) 0.2640(2) 1.08069(13)
O8 O 0.1177(3) 0.1010(3) 0.77415(18)
O9 O -0.3431(7) 1.0838(6) 0.9310(4)
loop_
_geom_bond_atom_site_label_1
_geom_bond_atom_site_label_2
_geom_bond_site_symmetry_1
_geom_bond_site_symmetry_2
Cu1 O6 1_555 1_555
Cu2 O2 1_555 1_555
O1 C1 1_555 1_555
O2 C1 1_555 1_555
O3 C4 1_555 1_555
O4 C4 1_555 1_555
O5 C6 1_555 1_555
O6 C6 1_555 1_555
C1 C2 1_555 1_555
C2 H1 1_555 1_555
C3 C2 1_555 1_555
C4 C3 1_555 1_555
C5 C3 1_555 1_555
H2 C5 1_555 1_555
H3 C5 1_555 1_555
C6 C5 1_555 1_555
N1 Cu1 1_555 1_555
C7 N1 1_555 1_555
H4 C7 1_555 1_555
C8 C7 1_555 1_555
H5 C8 1_555 1_555
C9 C8 1_555 1_555
H6 C9 1_555 1_555
C10 C9 1_555 1_555
H7 C10 1_555 1_555
C11 N1 1_555 1_555
H8 C11 1_555 1_555
N2 Cu2 1_555 1_555
C12 N2 1_555 1_555
H9 C12 1_555 1_555
C13 C12 1_555 1_555
H10 C13 1_555 1_555
C14 C13 1_555 1_555
H11 C14 1_555 1_555
C15 C14 1_555 1_555
H12 C15 1_555 1_555
C16 N2 1_555 1_555
H13 C16 1_555 1_555
N3 Cu2 1_555 1_555
C17 N3 1_555 1_555
H14 C17 1_555 1_555
C18 C17 1_555 1_555
H15 C18 1_555 1_555
C19 C18 1_555 1_555
H16 C19 1_555 1_555
C20 C19 1_555 1_555
H17 C20 1_555 1_555
C21 N3 1_555 1_555
H18 C21 1_555 1_555
O1A C1A 1_555 1_555
O2A C1A 1_555 1_555
O3A C4A 1_555 1_555
O4A C4A 1_555 1_555
O5A C6A 1_555 1_555
O6A Cu1 1_555 1_555
C1A C2A 1_555 1_555
C2A H1A 1_555 1_555
C3A C2A 1_555 1_555
C4A C3A 1_555 1_555
C5A C3A 1_555 1_555
H2A C5A 1_555 1_555
H3A C5A 1_555 1_555
C6A O6A 1_555 1_555
N1A Cu1 1_555 1_555
C7A N1A 1_555 1_555
H4A C7A 1_555 1_555
C8A C7A 1_555 1_555
H5A C8A 1_555 1_555
C9A C8A 1_555 1_555
H6A C9A 1_555 1_555
C10A C9A 1_555 1_555
H7A C10A 1_555 1_555
C11A N1A 1_555 1_555
H8A C11A 1_555 1_555
Cu2A O2A 1_555 1_555
N2A Cu2A 1_555 1_555
C12A N2A 1_555 1_555
H9A C12A 1_555 1_555
C13A C12A 1_555 1_555
H10A C13A 1_555 1_555
C14A C13A 1_555 1_555
H11A C14A 1_555 1_555
C15A C14A 1_555 1_555
H12A C15A 1_555 1_555
C16A N2A 1_555 1_555
H13A C16A 1_555 1_555
N3A Cu2A 1_555 1_555
C17A N3A 1_555 1_555
H14A C17A 1_555 1_555
C18A C17A 1_555 1_555
H15A C18A 1_555 1_555
C19A C18A 1_555 1_555
H16A C19A 1_555 1_555
C20A C19A 1_555 1_555
H17A C20A 1_555 1_555
C21A N3A 1_555 1_555
H18A C21A 1_555 1_555
O2A_2 Cu2 1_555 1_555
O4_2 Cu2 1_555 1_555
Cu2A_2 O2 1_555 1_555
Cu2_2 O4 1_555 1_555
Cu2_3 O2A 1_555 1_555
Cu2A_3 O4A 1_555 1_555
O2_2 Cu2A 1_555 1_555
O4A_2 Cu2A 1_555 1_555
C10 C11 1_555 1_555
C15 C16 1_555 1_555
C20 C21 1_555 1_555
C5A C6A 1_555 1_555
C10A C11A 1_555 1_555
C15A C16A 1_555 1_555
C20A C21A 1_555 1_555
O2A_2 Cu2A_2 1_555 1_555
Cu2_3 O2_2 1_555 1_555

#END
