
#######################################################################
#
#                 Cambridge Crystallographic Data Centre
#                                CCDC 
#
#######################################################################
#
# If this CIF has been generated from an entry in the Cambridge 
# Structural Database, then it will include bibliographic, chemical, 
# crystal, experimental, refinement or atomic coordinate data resulting 
# from the CCDC's data processing and validation procedures.
#
#######################################################################

data_TATHEC
_symmetry_cell_setting           triclinic
_symmetry_space_group_name_H-M   'P -1'
_symmetry_Int_Tables_number      2
_space_group_name_Hall           '-P 1'
loop_
_symmetry_equiv_pos_site_id
_symmetry_equiv_pos_as_xyz
1 x,y,z
2 -x,-y,-z
_cell_length_a                   8.8205(18)
_cell_length_b                   9.765(2)
_cell_length_c                   13.004(3)
_cell_angle_alpha                65.15(3)
_cell_angle_beta                 71.50(3)
_cell_angle_gamma                72.52(3)
_cell_volume                     945.505
loop_
_atom_site_label
_atom_site_type_symbol
_atom_site_fract_x
_atom_site_fract_y
_atom_site_fract_z
Cu1 Cu 0.0000 0.5000 0.0000
Cu2 Cu -0.35905(2) -0.11577(2) 0.340490(18)
O1 O -0.23509(16) 0.53319(17) 0.02962(12)
O2 O -0.27932(15) -0.36862(12) 0.36501(11)
O3 O -0.42552(13) -0.17935(12) 0.51199(9)
O4 O -0.27462(14) 0.13930(13) 0.36257(10)
O5 O -0.14717(12) -0.08900(12) 0.34635(10)
O6 O -0.03655(16) 0.50017(12) 0.21622(11)
O7 O 0.00278(14) 0.32233(12) 0.14360(9)
O8 O 0.34216(13) 0.11061(12) 0.33400(10)
O9 O 0.41676(13) -0.13096(12) 0.34472(10)
C1 C -0.14919(19) 0.03803(19) 0.35494(14)
C2 C 0.0108(2) 0.07815(19) 0.34862(14)
C3 C -0.0126(2) 0.36249(18) 0.22732(15)
C4 C -0.0048(2) 0.24146(16) 0.34545(13)
H1 H -0.1025 0.2647 0.4010
H2 H 0.0879 0.2442 0.3690
C5 C 0.1389(2) -0.0282(2) 0.35035(14)
H3 H 0.1264 -0.1231 0.3573
C6 C 0.3144(2) -0.0125(2) 0.34184(13)
N1 N -0.30122(17) -0.03366(15) 0.16777(12)
C7 C -0.3069(3) -0.1149(2) 0.10855(17)
H4 H -0.3418 -0.2082 0.1496
C8 C -0.2624(3) -0.0651(2) -0.01256(19)
H5 H -0.2654 -0.1247 -0.0517
C9 C -0.2157(3) 0.0699(3) -0.07054(19)
H6 H -0.1834 0.1048 -0.1512
C10 C -0.2149(3) 0.1585(2) -0.01109(17)
H7 H -0.1882 0.2555 -0.0512
C11 C -0.2538(3) 0.1012(2) 0.10736(16)
H8 H -0.2470 0.1580 0.1474
Cu2A Cu 0.35905(2) 1.11577(2) -0.340490(18)
Cu2_2 Cu 0.64095(2) -0.11577(2) 0.340490(18)
Cu2A_2 Cu -0.64095(2) 1.11577(2) -0.340490(18)
O1A O 0.23509(16) 0.46681(17) -0.02962(12)
O2A O 0.27932(15) 1.36862(12) -0.36501(11)
O3A O 0.42552(13) 1.17935(12) -0.51199(9)
O4A O 0.27462(14) 0.86070(13) -0.36257(10)
O5A O 0.14717(12) 1.08900(12) -0.34635(10)
O6A O 0.03655(16) 0.49983(12) -0.21622(11)
O7A O -0.00278(14) 0.67767(12) -0.14360(9)
O8A O -0.34216(13) 0.88939(12) -0.33400(10)
O9A O 0.58324(13) 1.13096(12) -0.34472(10)
O9_2 O -0.58324(13) -0.13096(12) 0.34472(10)
O9A_2 O -0.41676(13) 1.13096(12) -0.34472(10)
C1A C 0.14919(19) 0.96197(19) -0.35494(14)
C2A C -0.0108(2) 0.92185(19) -0.34862(14)
C3A C 0.0126(2) 0.63751(18) -0.22732(15)
C4A C 0.0048(2) 0.75854(16) -0.34545(13)
H1A H 0.1025 0.7353 -0.4010
H2A H -0.0879 0.7558 -0.3690
C5A C -0.1389(2) 1.0282(2) -0.35035(14)
H3A H -0.1264 1.1231 -0.3573
C6A C -0.3144(2) 1.0125(2) -0.34184(13)
N1A N 0.30122(17) 1.03366(15) -0.16777(12)
C7A C 0.3069(3) 1.1149(2) -0.10855(17)
H4A H 0.3418 1.2082 -0.1496
C8A C 0.2624(3) 1.0651(2) 0.01256(19)
H5A H 0.2654 1.1247 0.0517
C9A C 0.2157(3) 0.9301(3) 0.07054(19)
H6A H 0.1834 0.8952 0.1512
C10A C 0.2149(3) 0.8415(2) 0.01109(17)
H7A H 0.1882 0.7445 0.0512
C11A C 0.2538(3) 0.8988(2) -0.10736(16)
H8A H 0.2470 0.8420 -0.1474
O10 O 0.63649(15) -0.56998(13) 0.60052(11)
O11 O -0.41901(17) 0.44012(15) 0.24347(12)
O12 O 0.90720(17) -0.62300(17) 0.67364(15)
O13 O -0.38183(19) 0.62612(19) -0.14119(13)
loop_
_geom_bond_atom_site_label_1
_geom_bond_atom_site_label_2
_geom_bond_site_symmetry_1
_geom_bond_site_symmetry_2
Cu1 O1 1_555 1_555
Cu2 O2 1_555 1_555
O3 Cu2 1_555 1_555
O4 C1 1_555 1_555
O5 Cu2 1_555 1_555
O6 C3 1_555 1_555
O7 Cu1 1_555 1_555
O8 C6 1_555 1_555
O9 C6 1_555 1_555
C1 O5 1_555 1_555
C2 C1 1_555 1_555
C3 O7 1_555 1_555
C4 C2 1_555 1_555
H1 C4 1_555 1_555
H2 C4 1_555 1_555
C5 C2 1_555 1_555
H3 C5 1_555 1_555
C6 C5 1_555 1_555
N1 Cu2 1_555 1_555
C7 N1 1_555 1_555
H4 C7 1_555 1_555
C8 C7 1_555 1_555
H5 C8 1_555 1_555
C9 C8 1_555 1_555
H6 C9 1_555 1_555
C10 C9 1_555 1_555
H7 C10 1_555 1_555
C11 N1 1_555 1_555
H8 C11 1_555 1_555
Cu2A O2A 1_555 1_555
Cu2_2 O9 1_555 1_555
Cu2A_2 O9A_2 1_555 1_555
O1A Cu1 1_555 1_555
O3A Cu2A 1_555 1_555
O4A C1A 1_555 1_555
O5A Cu2A 1_555 1_555
O6A C3A 1_555 1_555
O7A Cu1 1_555 1_555
O8A C6A 1_555 1_555
O9A Cu2A 1_555 1_555
O9_2 Cu2 1_555 1_555
O9A_2 C6A 1_555 1_555
C1A O5A 1_555 1_555
C2A C1A 1_555 1_555
C3A O7A 1_555 1_555
C4A C2A 1_555 1_555
H1A C4A 1_555 1_555
H2A C4A 1_555 1_555
C5A C2A 1_555 1_555
H3A C5A 1_555 1_555
C6A C5A 1_555 1_555
N1A Cu2A 1_555 1_555
C7A N1A 1_555 1_555
H4A C7A 1_555 1_555
C8A C7A 1_555 1_555
H5A C8A 1_555 1_555
C9A C8A 1_555 1_555
H6A C9A 1_555 1_555
C10A C9A 1_555 1_555
H7A C10A 1_555 1_555
C11A N1A 1_555 1_555
H8A C11A 1_555 1_555
C3 C4 1_555 1_555
C10 C11 1_555 1_555
C3A C4A 1_555 1_555
C10A C11A 1_555 1_555

#END
