
#######################################################################
#
#                 Cambridge Crystallographic Data Centre
#                                CCDC 
#
#######################################################################
#
# If this CIF has been generated from an entry in the Cambridge 
# Structural Database, then it will include bibliographic, chemical, 
# crystal, experimental, refinement or atomic coordinate data resulting 
# from the CCDC's data processing and validation procedures.
#
#######################################################################

data_TATHAY
_symmetry_cell_setting           triclinic
_symmetry_space_group_name_H-M   'P -1'
_symmetry_Int_Tables_number      2
_space_group_name_Hall           '-P 1'
loop_
_symmetry_equiv_pos_site_id
_symmetry_equiv_pos_as_xyz
1 x,y,z
2 -x,-y,-z
_cell_length_a                   9.574(6)
_cell_length_b                   12.659(7)
_cell_length_c                   14.663(9)
_cell_angle_alpha                100.376(7)
_cell_angle_beta                 106.424(7)
_cell_angle_gamma                93.575(6)
_cell_volume                     1664.6
loop_
_atom_site_label
_atom_site_type_symbol
_atom_site_fract_x
_atom_site_fract_y
_atom_site_fract_z
Cu1 Cu -0.29368(3) 0.25092(2) -0.377230(18)
Cu2 Cu -0.23357(3) 0.27066(2) -0.130730(18)
O1 O -0.0789(2) 0.43680(13) -0.34360(11)
O2 O -0.17389(15) 0.34629(11) -0.25507(9)
O3 O 0.10074(16) 0.64138(11) 0.00955(10)
O4 O 0.16357(17) 0.76745(12) -0.06414(11)
O5 O 0.21929(17) 0.64806(15) -0.26376(12)
O6 O 0.06951(17) 0.72984(13) -0.36542(11)
H1 H 0.1407 0.7357 -0.3856
C1 C -0.0925(2) 0.42677(17) -0.26552(16)
C2 C -0.0156(2) 0.50582(16) -0.17090(15)
H2 H 0.0111 0.4792 -0.1141
C3 C 0.0153(2) 0.60959(17) -0.16493(14)
C4 C 0.1005(2) 0.67994(18) -0.06692(15)
C5 C -0.0220(2) 0.66589(17) -0.25036(14)
H3 H -0.0490 0.7368 -0.2294
H4 H -0.1062 0.6245 -0.3008
C6 C 0.1016(2) 0.67849(17) -0.29157(15)
O7 O -0.4784(2) 0.09561(14) -0.16723(11)
O8 O -0.36490(14) 0.17698(11) -0.25289(9)
O9 O -0.71299(16) -0.24263(11) -0.44132(10)
O10 O -0.58831(14) -0.14219(10) -0.50743(9)
O11 O -0.3117(2) -0.18329(17) -0.26322(14)
O12 O -0.3532(2) -0.18523(15) -0.12377(12)
H5 H -0.4204 -0.1732 -0.1005
C7 C -0.4521(2) 0.10076(18) -0.24439(15)
C8 C -0.5204(2) 0.01597(17) -0.33521(14)
H6 H -0.5371 0.0373 -0.3944
C9 C -0.5583(2) -0.08641(16) -0.33708(13)
C10 C -0.6245(2) -0.16314(16) -0.43513(13)
C11 C -0.5411(2) -0.13586(17) -0.24889(14)
H7 H -0.5576 -0.0836 -0.1970
H8 H -0.6144 -0.1982 -0.2647
C12 C -0.3912(3) -0.1702(2) -0.21463(17)
N1 N -0.46048(18) 0.34730(14) -0.39789(12)
C13 C -0.5959(2) 0.3050(2) -0.44833(18)
H9 H -0.6140 0.2304 -0.4706
C14 C -0.7128(3) 0.3648(2) -0.4702(2)
H10 H -0.8061 0.3313 -0.5067
C15 C -0.6874(3) 0.4742(2) -0.4368(2)
H11 H -0.7635 0.5167 -0.4503
C16 C -0.5496(3) 0.5204(2) -0.3834(2)
H12 H -0.5294 0.5947 -0.3597
C17 C -0.4404(3) 0.4536(2) -0.36562(17)
H13 H -0.3465 0.4854 -0.3285
N2 N -0.13284(18) 0.15330(14) -0.37337(12)
C18 C -0.1569(3) 0.04902(19) -0.36861(16)
H14 H -0.2488 0.0234 -0.3663
C19 C -0.0537(3) -0.0222(2) -0.36693(17)
H15 H -0.0746 -0.0934 -0.3624
C20 C 0.0800(3) 0.0149(2) -0.37205(19)
H16 H 0.1518 -0.0313 -0.3718
C21 C 0.1081(3) 0.1206(2) -0.37751(19)
H17 H 0.1994 0.1469 -0.3802
C22 C -0.0016(2) 0.1888(2) -0.37905(16)
H18 H 0.0170 0.2602 -0.3841
N3 N -0.08274(19) 0.16608(13) -0.12695(12)
C23 C 0.0524(3) 0.2003(2) -0.12439(17)
H19 H 0.0735 0.2718 -0.1284
C24 C 0.1638(3) 0.1340(2) -0.11595(19)
H20 H 0.2577 0.1610 -0.1136
C25 C 0.1335(3) 0.0281(2) -0.11119(19)
H21 H 0.2051 -0.0187 -0.1074
C26 C -0.0039(3) -0.0064(2) -0.11217(19)
H22 H -0.0273 -0.0772 -0.1075
C27 C -0.1080(3) 0.06347(18) -0.12010(16)
H23 H -0.2015 0.0380 -0.1208
N4 N -0.38058(19) 0.37925(15) -0.12661(12)
C28 C -0.3326(3) 0.48289(19) -0.08959(16)
H24 H -0.2320 0.5024 -0.0624
C29 C -0.4216(3) 0.5627(2) -0.0889(2)
H25 H -0.3819 0.6343 -0.0617
C30 C -0.5687(3) 0.5369(3) -0.1283(2)
H26 H -0.6314 0.5901 -0.1284
C31 C -0.6218(3) 0.4329(3) -0.1671(2)
H27 H -0.7221 0.4136 -0.1960
C32 C -0.5262(3) 0.3535(2) -0.16393(19)
H28 H -0.5645 0.2812 -0.1883
Cu1A Cu -0.70632(3) -0.25092(2) -0.622770(18)
Cu2A Cu 0.23357(3) 0.72934(2) 0.130730(18)
O3A O -0.10074(16) 0.35862(11) -0.00955(10)
O10A O -0.41169(14) 0.14219(10) -0.49257(9)
O13 O -0.44912(16) 0.15113(18) 0.03178(10)
H29 H -0.4584(10) 0.1265(12) -0.03570(18)
H30 H -0.3518(3) 0.1885(5) 0.0512(16)
loop_
_geom_bond_atom_site_label_1
_geom_bond_atom_site_label_2
_geom_bond_site_symmetry_1
_geom_bond_site_symmetry_2
Cu1 O2 1_555 1_555
Cu2 O2 1_555 1_555
O1 C1 1_555 1_555
O2 C1 1_555 1_555
O3 C4 1_555 1_555
O4 C4 1_555 1_555
O5 C6 1_555 1_555
O6 H1 1_555 1_555
C1 C2 1_555 1_555
C2 H2 1_555 1_555
C3 C2 1_555 1_555
C4 C3 1_555 1_555
C5 C3 1_555 1_555
H3 C5 1_555 1_555
H4 C5 1_555 1_555
C6 O6 1_555 1_555
O7 C7 1_555 1_555
O8 Cu1 1_555 1_555
O9 C10 1_555 1_555
O10 C10 1_555 1_555
O11 C12 1_555 1_555
O12 H5 1_555 1_555
C7 O8 1_555 1_555
C8 C7 1_555 1_555
H6 C8 1_555 1_555
C9 C8 1_555 1_555
C10 C9 1_555 1_555
C11 C9 1_555 1_555
H7 C11 1_555 1_555
H8 C11 1_555 1_555
C12 O12 1_555 1_555
N1 Cu1 1_555 1_555
C13 N1 1_555 1_555
H9 C13 1_555 1_555
C14 C13 1_555 1_555
H10 C14 1_555 1_555
C15 C14 1_555 1_555
H11 C15 1_555 1_555
C16 C15 1_555 1_555
H12 C16 1_555 1_555
C17 N1 1_555 1_555
H13 C17 1_555 1_555
N2 Cu1 1_555 1_555
C18 N2 1_555 1_555
H14 C18 1_555 1_555
C19 C18 1_555 1_555
H15 C19 1_555 1_555
C20 C19 1_555 1_555
H16 C20 1_555 1_555
C21 C20 1_555 1_555
H17 C21 1_555 1_555
C22 N2 1_555 1_555
H18 C22 1_555 1_555
N3 Cu2 1_555 1_555
C23 N3 1_555 1_555
H19 C23 1_555 1_555
C24 C23 1_555 1_555
H20 C24 1_555 1_555
C25 C24 1_555 1_555
H21 C25 1_555 1_555
C26 C25 1_555 1_555
H22 C26 1_555 1_555
C27 N3 1_555 1_555
H23 C27 1_555 1_555
N4 Cu2 1_555 1_555
C28 N4 1_555 1_555
H24 C28 1_555 1_555
C29 C28 1_555 1_555
H25 C29 1_555 1_555
C30 C29 1_555 1_555
H26 C30 1_555 1_555
C31 C30 1_555 1_555
H27 C31 1_555 1_555
C32 N4 1_555 1_555
H28 C32 1_555 1_555
O13 H29 1_555 1_555
H30 O13 1_555 1_555
Cu1A O10 1_555 1_555
Cu2A O3 1_555 1_555
O3A Cu2 1_555 1_555
O10A Cu1 1_555 1_555
Cu2 O8 1_555 1_555
C5 C6 1_555 1_555
C11 C12 1_555 1_555
C16 C17 1_555 1_555
C21 C22 1_555 1_555
C26 C27 1_555 1_555
C31 C32 1_555 1_555

#END
