
#######################################################################
#
#                 Cambridge Crystallographic Data Centre
#                                CCDC 
#
#######################################################################
#
# If this CIF has been generated from an entry in the Cambridge 
# Structural Database, then it will include bibliographic, chemical, 
# crystal, experimental, refinement or atomic coordinate data resulting 
# from the CCDC's data processing and validation procedures.
#
#######################################################################

data_TATKUW
_symmetry_cell_setting           orthorhombic
_symmetry_space_group_name_H-M   'P b c a'
_symmetry_Int_Tables_number      61
_space_group_name_Hall           '-P 2ac 2ab'
loop_
_symmetry_equiv_pos_site_id
_symmetry_equiv_pos_as_xyz
1 x,y,z
2 1/2-x,-y,1/2+z
3 -x,1/2+y,1/2-z
4 1/2+x,1/2-y,-z
5 -x,-y,-z
6 1/2+x,y,1/2-z
7 x,1/2-y,1/2+z
8 1/2-x,1/2+y,z
_cell_length_a                   10.6675(18)
_cell_length_b                   14.155(2)
_cell_length_c                   17.438(3)
_cell_angle_alpha                90
_cell_angle_beta                 90
_cell_angle_gamma                90
_cell_volume                     2633.11
loop_
_atom_site_label
_atom_site_type_symbol
_atom_site_fract_x
_atom_site_fract_y
_atom_site_fract_z
B1 B 0.21501(9) 0.04357(7) 0.26301(6)
Li1 Li -0.00987(16) 0.06777(13) 0.21431(10)
C1 C 0.25472(9) -0.01276(7) 0.34102(6)
C2 C 0.18579(11) -0.03557(9) 0.40080(7)
C3 C 0.32822(10) 0.11945(9) 0.15782(6)
H1 H 0.2750 0.0835 0.1226
H2 H 0.4126 0.1253 0.1361
H3 H 0.2925 0.1825 0.1655
C4 C 0.18452(13) -0.09935(9) 0.18433(9)
H4 H 0.2589 -0.0874 0.1528
H5 H 0.1205 -0.1310 0.1533
H6 H 0.2073 -0.1398 0.2278
C5 C 0.16848(11) 0.19623(8) 0.32512(6)
H7 H 0.1717 0.1742 0.3784
H8 H 0.1093 0.2490 0.3211
H9 H 0.2520 0.2173 0.3092
C6 C 0.01921(12) 0.25088(8) 0.12674(6)
H10 H 0.0835 0.2604 0.1670
H11 H -0.0530 0.2927 0.1376
C7 C 0.07314(12) 0.27167(8) 0.04800(7)
H12 H 0.1628 0.2539 0.0450
H13 H 0.0637 0.3392 0.0344
C8 C -0.00729(14) 0.20903(11) -0.00302(7)
H14 H -0.0881 0.2399 -0.0155
H15 H 0.0368 0.1930 -0.0512
C9 C -0.02676(14) 0.12266(10) 0.04621(7)
H16 H -0.1096 0.0940 0.0356
H17 H 0.0390 0.0750 0.0357
F1 F 0.37711(6) -0.04269(5) 0.34792(4)
F2 F 0.22346(9) -0.08248(7) 0.46300(5)
F3 F 0.06568(8) -0.01383(7) 0.40811(5)
O1 O 0.33490(6) 0.07178(5) 0.22934(4)
O2 O 0.12882(6) 0.12192(5) 0.27740(4)
O3 O 0.13699(7) -0.01335(5) 0.21169(4)
O4 O -0.01985(7) 0.15376(5) 0.12432(4)
Li1E Li 0.49013(16) 0.06777(13) 0.28569(10)
F1E F -0.12289(6) -0.04269(5) 0.15208(4)
O1E O -0.16510(6) 0.07178(5) 0.27066(4)
loop_
_geom_bond_atom_site_label_1
_geom_bond_atom_site_label_2
_geom_bond_site_symmetry_1
_geom_bond_site_symmetry_2
B1 C1 1_555 1_555
Li1 O2 1_555 1_555
C1 C2 1_555 1_555
C2 F2 1_555 1_555
C3 H1 1_555 1_555
H2 C3 1_555 1_555
H3 C3 1_555 1_555
C4 H4 1_555 1_555
H5 C4 1_555 1_555
H6 C4 1_555 1_555
C5 H7 1_555 1_555
H8 C5 1_555 1_555
H9 C5 1_555 1_555
C6 H10 1_555 1_555
H11 C6 1_555 1_555
C7 C6 1_555 1_555
H12 C7 1_555 1_555
H13 C7 1_555 1_555
C8 C7 1_555 1_555
H14 C8 1_555 1_555
H15 C8 1_555 1_555
C9 C8 1_555 1_555
H16 C9 1_555 1_555
H17 C9 1_555 1_555
F1 C1 1_555 1_555
F3 C2 1_555 1_555
O1 B1 1_555 1_555
O2 B1 1_555 1_555
O3 B1 1_555 1_555
O4 Li1 1_555 1_555
Li1E F1 1_555 1_555
F1E Li1 1_555 1_555
O1E Li1 1_555 1_555
Li1 O3 1_555 1_555
C3 O1 1_555 1_555
C4 O3 1_555 1_555
C5 O2 1_555 1_555
C6 O4 1_555 1_555
C9 O4 1_555 1_555
O1 Li1E 1_555 1_555

#END
