
#######################################################################
#
#                 Cambridge Crystallographic Data Centre
#                                CCDC 
#
#######################################################################
#
# If this CIF has been generated from an entry in the Cambridge 
# Structural Database, then it will include bibliographic, chemical, 
# crystal, experimental, refinement or atomic coordinate data resulting 
# from the CCDC's data processing and validation procedures.
#
#######################################################################

data_TATQOV
_symmetry_cell_setting           monoclinic
_symmetry_space_group_name_H-M   'P 21/c'
_symmetry_Int_Tables_number      14
_space_group_name_Hall           '-P 2ybc'
loop_
_symmetry_equiv_pos_site_id
_symmetry_equiv_pos_as_xyz
1 x,y,z
2 -x,1/2+y,1/2-z
3 -x,-y,-z
4 x,1/2-y,1/2+z
_cell_length_a                   7.8543(8)
_cell_length_b                   15.0570(16)
_cell_length_c                   9.9285(10)
_cell_angle_alpha                90
_cell_angle_beta                 96.2930(10)
_cell_angle_gamma                90
_cell_volume                     1167.09
loop_
_atom_site_label
_atom_site_type_symbol
_atom_site_fract_x
_atom_site_fract_y
_atom_site_fract_z
Cu1 Cu 0.0000 0.0000 0.0000
O1 O -0.0983(3) 0.13578(13) -0.60025(18)
N1 N -0.1264(3) -0.00269(13) -0.1879(2)
N2 N -0.1365(3) 0.39207(14) -0.4524(2)
C1 C -0.1198(3) 0.06842(16) -0.2681(2)
H1 H -0.0732 0.1207 -0.2304
C2 C -0.1791(3) 0.06760(16) -0.4038(2)
C3 C -0.2551(4) -0.00917(17) -0.4595(3)
H2 H -0.2945 -0.0121 -0.5512
C4 C -0.2709(4) -0.08081(17) -0.3757(3)
H3 H -0.3263 -0.1321 -0.4092
C5 C -0.2041(3) -0.07604(17) -0.2421(3)
H4 H -0.2128 -0.1254 -0.1870
C6 C -0.1503(3) 0.14592(17) -0.4906(2)
C7 C -0.0973(3) 0.30845(16) -0.4808(2)
H5 H 0.0037 -0.2019 0.0284
C8 C -0.1905(3) 0.23624(16) -0.4421(2)
C9 C -0.3260(3) 0.25157(18) -0.3684(3)
H6 H -0.3877 0.2045 -0.3375
C10 C -0.3683(4) 0.33783(19) -0.3415(3)
H7 H -0.4611 0.3499 -0.2937
C11 C 0.2729(4) -0.09408(18) -0.1146(3)
H8 H 0.3041 -0.0360 -0.1320
Cu1C Cu 0.0000 0.5000 -0.5000
Cu1C_2 Cu 0.0000 -0.5000 -0.5000
O1A O 0.0983(3) -0.36422(13) 0.10025(18)
N1A N 0.1264(3) -0.50269(13) -0.3121(2)
N1B N 0.1264(3) 0.00269(13) 0.1879(2)
N2C N -0.1365(3) 0.10793(14) 0.0476(2)
N2A N 0.1365(3) -0.10793(14) -0.0476(2)
C1A C 0.1198(3) -0.43158(16) -0.2319(2)
H1A H 0.0732 -0.3793 -0.2696
C2A C 0.1791(3) -0.43240(16) -0.0962(2)
C3A C 0.2551(4) -0.50917(17) -0.0405(3)
H2A H 0.2945 -0.5121 0.0512
C4A C 0.2709(4) -0.58081(17) -0.1243(3)
H3A H 0.3263 -0.6321 -0.0908
C5A C 0.2041(3) -0.57604(17) -0.2579(3)
H4A H 0.2128 -0.6254 -0.3130
C6A C 0.1503(3) -0.35408(17) -0.0094(2)
C7A C 0.0973(3) -0.19155(16) -0.0192(2)
H5A H -0.0037 0.2981 -0.5284
C8A C 0.1905(3) -0.26376(16) -0.0579(2)
C9A C 0.3260(3) -0.24843(18) -0.1316(3)
H6A H 0.3877 -0.2955 -0.1625
C10A C 0.3683(4) -0.16217(19) -0.1585(3)
H7A H 0.4611 -0.1501 -0.2063
C11A C -0.2729(4) 0.40592(18) -0.3854(3)
H8A H -0.3041 0.4640 -0.3680
B1 B -0.6802(4) 0.1535(2) -0.1836(4)
F1 F -0.5790(3) 0.09195(14) -0.2357(3)
F2 F -0.7716(2) 0.11252(11) -0.08656(18)
F3 F -0.5818(3) 0.22059(13) -0.1274(2)
F4 F -0.7933(3) 0.1874(2) -0.2845(3)
loop_
_geom_bond_atom_site_label_1
_geom_bond_atom_site_label_2
_geom_bond_site_symmetry_1
_geom_bond_site_symmetry_2
Cu1 N1 1_555 1_555
O1 C6 1_555 1_555
N1 C1 1_555 1_555
N2 C7 1_555 1_555
C1 H1 1_555 1_555
C2 C1 1_555 1_555
C3 C2 1_555 1_555
H2 C3 1_555 1_555
C4 C3 1_555 1_555
H3 C4 1_555 1_555
C5 N1 1_555 1_555
H4 C5 1_555 1_555
C6 C2 1_555 1_555
C7 C8 1_555 1_555
H5 C7A 1_555 1_555
C8 C6 1_555 1_555
C9 C8 1_555 1_555
H6 C9 1_555 1_555
C10 C9 1_555 1_555
H7 C10 1_555 1_555
C11 H8 1_555 1_555
B1 F1 1_555 1_555
F2 B1 1_555 1_555
F3 B1 1_555 1_555
F4 B1 1_555 1_555
Cu1C N2 1_555 1_555
Cu1C_2 N1A 1_555 1_555
O1A C6A 1_555 1_555
N1A C1A 1_555 1_555
N1B Cu1 1_555 1_555
N2C Cu1 1_555 1_555
N2A Cu1 1_555 1_555
C1A H1A 1_555 1_555
C2A C1A 1_555 1_555
C3A C2A 1_555 1_555
H2A C3A 1_555 1_555
C4A C3A 1_555 1_555
H3A C4A 1_555 1_555
C5A N1A 1_555 1_555
H4A C5A 1_555 1_555
C6A C2A 1_555 1_555
C7A N2A 1_555 1_555
H5A C7 1_555 1_555
C8A C6A 1_555 1_555
C9A C8A 1_555 1_555
H6A C9A 1_555 1_555
C10A C11 1_555 1_555
H7A C10A 1_555 1_555
C11A N2 1_555 1_555
H8A C11A 1_555 1_555
C4 C5 1_555 1_555
C10 C11A 1_555 1_555
C11 N2A 1_555 1_555
C4A C5A 1_555 1_555
C7A C8A 1_555 1_555
C9A C10A 1_555 1_555

#END
