
#######################################################################
#
#                 Cambridge Crystallographic Data Centre
#                                CCDC 
#
#######################################################################
#
# If this CIF has been generated from an entry in the Cambridge 
# Structural Database, then it will include bibliographic, chemical, 
# crystal, experimental, refinement or atomic coordinate data resulting 
# from the CCDC's data processing and validation procedures.
#
#######################################################################

data_TATQIP
_symmetry_cell_setting           monoclinic
_symmetry_space_group_name_H-M   'P 21/c'
_symmetry_Int_Tables_number      14
_space_group_name_Hall           '-P 2ybc'
loop_
_symmetry_equiv_pos_site_id
_symmetry_equiv_pos_as_xyz
1 x,y,z
2 -x,1/2+y,1/2-z
3 -x,-y,-z
4 x,1/2-y,1/2+z
_cell_length_a                   7.9341(8)
_cell_length_b                   15.2231(15)
_cell_length_c                   9.9871(10)
_cell_angle_alpha                90
_cell_angle_beta                 96.821(2)
_cell_angle_gamma                90
_cell_volume                     1197.72
loop_
_atom_site_label
_atom_site_type_symbol
_atom_site_fract_x
_atom_site_fract_y
_atom_site_fract_z
Cu1 Cu 0.5000 -1.0000 0.5000
N1 N 0.6321(2) -0.89280(10) 0.45059(17)
N2 N 0.6280(2) -0.49937(9) 0.18743(19)
C1 C 0.5926(3) -0.80963(13) 0.47800(19)
H1 H 0.5006 -0.7993 0.5254
C2 C 0.6838(2) -0.73845(12) 0.43835(19)
C3 C 0.8178(3) -0.75302(14) 0.3648(2)
H2 H 0.8780 -0.7062 0.3340
C4 C 0.8607(3) -0.83872(16) 0.3381(3)
H3 H 0.9517 -0.8506 0.2902
C5 C 0.7671(3) -0.90618(14) 0.3833(3)
H4 H 0.7985 -0.9637 0.3666
C6 C 0.6444(3) -0.64880(12) 0.4875(2)
C7 C 0.6194(3) -0.57046(12) 0.2663(2)
H5 H 0.4274 -1.1217 0.2727
C8 C 0.6765(2) -0.57110(12) 0.4024(2)
C9 C 0.7535(3) -0.49589(13) 0.4605(2)
H6 H 0.7916 -0.4937 0.5522
C10 C 0.7719(3) -0.42424(14) 0.3777(2)
H7 H 0.8283 -0.3742 0.4124
C11 C 0.2933(3) -0.92754(13) 0.2554(2)
H8 H 0.2831 -0.8782 0.3088
O1 O 0.5907(2) -0.63881(11) 0.59486(16)
Cu1C Cu 0.5000 -0.5000 0.0000
Cu1C_2 Cu 0.5000 -1.5000 0.0000
N1A N 0.3679(2) -1.39280(10) 0.04941(17)
N1B N 0.3679(2) -1.10720(10) 0.54941(17)
N2C N 0.6280(2) -1.00063(9) 0.68743(19)
N2A N 0.3720(2) -0.99937(9) 0.31257(19)
C1A C 0.4074(3) -1.30963(13) 0.02200(19)
H1A H 0.4994 -1.2993 -0.0254
C2A C 0.3162(2) -1.23845(12) 0.06165(19)
C3A C 0.1822(3) -1.25302(14) 0.1352(2)
H2A H 0.1220 -1.2062 0.1660
C4A C 0.1393(3) -1.33872(16) 0.1619(3)
H3A H 0.0483 -1.3506 0.2098
C5A C 0.2329(3) -1.40618(14) 0.1167(3)
H4A H 0.2015 -1.4637 0.1334
C6A C 0.3556(3) -1.14880(12) 0.0125(2)
C7A C 0.3806(3) -1.07046(12) 0.2337(2)
H5A H 0.5726 -0.6217 0.2273
C8A C 0.3235(2) -1.07110(12) 0.0976(2)
C9A C 0.2465(3) -0.99589(13) 0.0395(2)
H6A H 0.2084 -0.9937 -0.0522
C10A C 0.2281(3) -0.92424(14) 0.1223(2)
H7A H 0.1717 -0.8742 0.0876
C11A C 0.7067(3) -0.42754(13) 0.2446(2)
H8A H 0.7169 -0.3782 0.1912
O1A O 0.4093(2) -1.13881(11) -0.09486(16)
Cl1 Cl 0.17339(7) -0.84536(3) 0.68187(6)
O2 O 0.2634(2) -0.88599(12) 0.58017(19)
O3 O 0.0721(3) -0.77511(14) 0.6268(3)
O4 O 0.0682(3) -0.90910(15) 0.7340(3)
O5 O 0.2922(4) -0.8123(3) 0.7873(3)
loop_
_geom_bond_atom_site_label_1
_geom_bond_atom_site_label_2
_geom_bond_site_symmetry_1
_geom_bond_site_symmetry_2
Cu1 N1 1_555 1_555
N1 C1 1_555 1_555
N2 C7 1_555 1_555
C1 H1 1_555 1_555
C2 C1 1_555 1_555
C3 C2 1_555 1_555
H2 C3 1_555 1_555
C4 C3 1_555 1_555
H3 C4 1_555 1_555
C5 N1 1_555 1_555
H4 C5 1_555 1_555
C6 C2 1_555 1_555
C7 C8 1_555 1_555
H5 C7A 1_555 1_555
C8 C6 1_555 1_555
C9 C8 1_555 1_555
H6 C9 1_555 1_555
C10 C9 1_555 1_555
H7 C10 1_555 1_555
C11 H8 1_555 1_555
O1 C6 1_555 1_555
Cl1 O2 1_555 1_555
O3 Cl1 1_555 1_555
O4 Cl1 1_555 1_555
O5 Cl1 1_555 1_555
Cu1C N2 1_555 1_555
Cu1C_2 N1A 1_555 1_555
N1A C1A 1_555 1_555
N1B Cu1 1_555 1_555
N2C Cu1 1_555 1_555
N2A Cu1 1_555 1_555
C1A H1A 1_555 1_555
C2A C1A 1_555 1_555
C3A C2A 1_555 1_555
H2A C3A 1_555 1_555
C4A C3A 1_555 1_555
H3A C4A 1_555 1_555
C5A N1A 1_555 1_555
H4A C5A 1_555 1_555
C6A C2A 1_555 1_555
C7A N2A 1_555 1_555
H5A C7 1_555 1_555
C8A C6A 1_555 1_555
C9A C8A 1_555 1_555
H6A C9A 1_555 1_555
C10A C11 1_555 1_555
H7A C10A 1_555 1_555
C11A N2 1_555 1_555
H8A C11A 1_555 1_555
O1A C6A 1_555 1_555
C4 C5 1_555 1_555
C10 C11A 1_555 1_555
C11 N2A 1_555 1_555
C4A C5A 1_555 1_555
C7A C8A 1_555 1_555
C9A C10A 1_555 1_555

#END
