
#######################################################################
#
#                 Cambridge Crystallographic Data Centre
#                                CCDC 
#
#######################################################################
#
# If this CIF has been generated from an entry in the Cambridge 
# Structural Database, then it will include bibliographic, chemical, 
# crystal, experimental, refinement or atomic coordinate data resulting 
# from the CCDC's data processing and validation procedures.
#
#######################################################################

data_TATQOV01
_symmetry_cell_setting           triclinic
_symmetry_space_group_name_H-M   'P -1'
_symmetry_Int_Tables_number      2
_space_group_name_Hall           '-P 1'
loop_
_symmetry_equiv_pos_site_id
_symmetry_equiv_pos_as_xyz
1 x,y,z
2 -x,-y,-z
_cell_length_a                   7.5542(13)
_cell_length_b                   8.7861(15)
_cell_length_c                   10.3389(17)
_cell_angle_alpha                101.280(2)
_cell_angle_beta                 109.236(2)
_cell_angle_gamma                108.869(2)
_cell_volume                     576.958
loop_
_atom_site_label
_atom_site_type_symbol
_atom_site_fract_x
_atom_site_fract_y
_atom_site_fract_z
Cu1 Cu 0.5000 0.5000 1.0000
O1 O 0.7976(3) 0.5511(3) 0.4912(2)
N1 N 0.5354(3) 0.4065(3) 0.8203(2)
N2 N 1.3670(3) 0.6359(3) 0.8959(2)
C1 C 0.3910(4) 0.2547(3) 0.7229(3)
H1 H 0.2892 0.1911 0.7467
C2 C 0.3863(5) 0.1881(4) 0.5887(3)
H2 H 0.2844 0.0816 0.5242
C3 C 0.5354(4) 0.2825(4) 0.5519(3)
H3 H 0.5326 0.2430 0.4607
C4 C 0.6901(4) 0.4379(3) 0.6541(3)
C5 C 0.6860(4) 0.4953(3) 0.7873(3)
H4 H 0.7905 0.5985 0.8559
C6 C 0.8475(4) 0.5442(4) 0.6130(3)
C7 C 1.0686(4) 0.6398(3) 0.7218(3)
C8 C 1.1621(4) 0.5673(3) 0.8150(3)
H5 H 1.0798 0.4672 0.8220
C9 C 1.4820(4) 0.7852(4) 0.8909(3)
H6 H 1.6237 0.8348 0.9476
C10 C 1.3982(5) 0.8686(4) 0.8047(4)
H7 H 1.4818 0.9739 0.8063
C11 C 1.1897(5) 0.7938(4) 0.7166(3)
H8 H 1.1310 0.8453 0.6548
Cu1_2 Cu 1.5000 0.5000 1.0000
Cu1_3 Cu -0.5000 0.5000 1.0000
O1_2 O -0.2024(3) 0.5511(3) 0.4912(2)
N1_2 N -0.4646(3) 0.4065(3) 0.8203(2)
N1A N 0.4646(3) 0.5935(3) 1.1797(2)
N2_2 N 0.3670(3) 0.6359(3) 0.8959(2)
N2A N 0.6330(3) 0.3641(3) 1.1041(2)
C1_2 C -0.6090(4) 0.2547(3) 0.7229(3)
H1_2 H -0.7108 0.1911 0.7467
C2_2 C -0.6137(5) 0.1881(4) 0.5887(3)
H2_2 H -0.7156 0.0816 0.5242
C3_2 C -0.4646(4) 0.2825(4) 0.5519(3)
H3_2 H -0.4674 0.2430 0.4607
C4_2 C -0.3099(4) 0.4379(3) 0.6541(3)
C5_2 C -0.3140(4) 0.4953(3) 0.7873(3)
H4_2 H -0.2095 0.5985 0.8559
C6_2 C -0.1525(4) 0.5442(4) 0.6130(3)
C7_2 C 0.0686(4) 0.6398(3) 0.7218(3)
C8_2 C 0.1621(4) 0.5673(3) 0.8150(3)
H5_2 H 0.0798 0.4672 0.8220
C9_2 C 0.4820(4) 0.7852(4) 0.8909(3)
H6_2 H 0.6237 0.8348 0.9476
C10_2 C 0.3982(5) 0.8686(4) 0.8047(4)
H7_2 H 0.4818 0.9739 0.8063
C11_2 C 0.1897(5) 0.7938(4) 0.7166(3)
H8_2 H 0.1310 0.8453 0.6548
F1 F 0.8566(3) 0.7588(3) 1.0928(2)
F2 F 1.1230(5) 0.8509(4) 1.3095(3)
F3 F 1.1012(6) 1.0340(3) 1.1893(4)
F4 F 1.1711(4) 0.8119(4) 1.1061(5)
B1 B 1.0679(5) 0.8698(5) 1.1734(5)
loop_
_geom_bond_atom_site_label_1
_geom_bond_atom_site_label_2
_geom_bond_site_symmetry_1
_geom_bond_site_symmetry_2
Cu1 N1 1_555 1_555
O1 C6 1_555 1_555
N1 C1 1_555 1_555
N2 C8 1_555 1_555
C1 H1 1_555 1_555
C2 C1 1_555 1_555
H2 C2 1_555 1_555
C3 C2 1_555 1_555
H3 C3 1_555 1_555
C4 C3 1_555 1_555
C5 N1 1_555 1_555
H4 C5 1_555 1_555
C6 C4 1_555 1_555
C7 C6 1_555 1_555
C8 C7 1_555 1_555
H5 C8 1_555 1_555
C9 N2 1_555 1_555
H6 C9 1_555 1_555
C10 C9 1_555 1_555
H7 C10 1_555 1_555
C11 C7 1_555 1_555
H8 C11 1_555 1_555
F1 B1 1_555 1_555
F2 B1 1_555 1_555
F3 B1 1_555 1_555
F4 B1 1_555 1_555
Cu1_2 N2 1_555 1_555
Cu1_3 N1_2 1_555 1_555
O1_2 C6_2 1_555 1_555
N1_2 C1_2 1_555 1_555
N1A Cu1 1_555 1_555
N2_2 Cu1 1_555 1_555
N2A Cu1 1_555 1_555
C1_2 H1_2 1_555 1_555
C2_2 C1_2 1_555 1_555
H2_2 C2_2 1_555 1_555
C3_2 C2_2 1_555 1_555
H3_2 C3_2 1_555 1_555
C4_2 C3_2 1_555 1_555
C5_2 N1_2 1_555 1_555
H4_2 C5_2 1_555 1_555
C6_2 C4_2 1_555 1_555
C7_2 C6_2 1_555 1_555
C8_2 N2_2 1_555 1_555
H5_2 C8_2 1_555 1_555
C9_2 N2_2 1_555 1_555
H6_2 C9_2 1_555 1_555
C10_2 C9_2 1_555 1_555
H7_2 C10_2 1_555 1_555
C11_2 C7_2 1_555 1_555
H8_2 C11_2 1_555 1_555
C4 C5 1_555 1_555
C10 C11 1_555 1_555
C4_2 C5_2 1_555 1_555
C7_2 C8_2 1_555 1_555
C10_2 C11_2 1_555 1_555

#END
