
#######################################################################
#
#                 Cambridge Crystallographic Data Centre
#                                CCDC 
#
#######################################################################
#
# If this CIF has been generated from an entry in the Cambridge 
# Structural Database, then it will include bibliographic, chemical, 
# crystal, experimental, refinement or atomic coordinate data resulting 
# from the CCDC's data processing and validation procedures.
#
#######################################################################

data_TATRAI
_symmetry_cell_setting           triclinic
_symmetry_space_group_name_H-M   'P -1'
_symmetry_Int_Tables_number      2
_space_group_name_Hall           '-P 1'
loop_
_symmetry_equiv_pos_site_id
_symmetry_equiv_pos_as_xyz
1 x,y,z
2 -x,-y,-z
_cell_length_a                   8.508(2)
_cell_length_b                   9.260(2)
_cell_length_c                   9.693(3)
_cell_angle_alpha                61.579(3)
_cell_angle_beta                 67.623(2)
_cell_angle_gamma                67.878(3)
_cell_volume                     602.85
loop_
_atom_site_label
_atom_site_type_symbol
_atom_site_fract_x
_atom_site_fract_y
_atom_site_fract_z
Cd1 Cd 0.5000 0.5000 -1.0000
O1 O 0.0523(2) 0.3514(3) -0.2251(2)
N1 N 0.3286(3) 0.3562(2) -0.7433(2)
N2 N 0.4890(3) 0.3253(2) -0.1146(2)
C1 C 0.3285(3) 0.3555(3) -0.6042(3)
H1 H 0.4153 0.3935 -0.6041
C2 C 0.2043(3) 0.3006(3) -0.4614(3)
C3 C 0.0760(3) 0.2415(3) -0.4608(3)
H2 H -0.0106 0.2062 -0.3670
C4 C 0.0794(3) 0.2362(3) -0.6011(3)
H3 H -0.0024 0.1936 -0.6031
C5 C 0.2064(3) 0.2952(3) -0.7390(3)
H4 H 0.2070 0.2925 -0.8339
C6 C 0.1949(3) 0.3123(3) -0.3103(3)
C7 C 0.3550(3) 0.3582(3) -0.1737(3)
H5 H 0.2549 0.4399 -0.1535
C8 C 0.3577(3) 0.2769(3) -0.2636(2)
C9 C 0.5081(3) 0.1572(3) -0.2967(3)
H6 H 0.5164 0.1036 -0.3604
C10 C 0.6452(3) 0.1198(3) -0.2326(3)
H7 H 0.7466 0.0382 -0.2506
C11 C 0.6308(3) 0.2040(3) -0.1420(3)
H8 H 0.7231 0.1758 -0.0978
B1 B 0.8044(4) 0.1836(4) -0.8103(3)
F1 F 0.7681(2) 0.3391(2) -0.9486(2)
F2 F 0.7363(4) 0.0644(3) -0.7983(3)
F3 F 0.9833(2) 0.1241(2) -0.8251(2)
F4 F 0.7291(3) 0.2174(3) -0.6710(2)
Cd1_2 Cd 0.5000 0.5000 0.0000
Cd1_3 Cd 0.5000 0.5000 -2.0000
O1A O 0.9477(2) 0.6486(3) -1.7749(2)
N1A N 0.6714(3) 0.6438(2) -1.2567(2)
N2_2 N 0.4890(3) 0.3253(2) -1.1146(2)
N2A N 0.5110(3) 0.6747(2) -0.8854(2)
N2A_2 N 0.5110(3) 0.6747(2) -1.8854(2)
C1A C 0.6715(3) 0.6445(3) -1.3958(3)
H1A H 0.5847 0.6065 -1.3959
C2A C 0.7957(3) 0.6994(3) -1.5386(3)
C3A C 0.9240(3) 0.7585(3) -1.5392(3)
H2A H 1.0106 0.7938 -1.6330
C4A C 0.9206(3) 0.7638(3) -1.3989(3)
H3A H 1.0024 0.8064 -1.3969
C5A C 0.7936(3) 0.7048(3) -1.2610(3)
H4A H 0.7930 0.7075 -1.1661
C6A C 0.8051(3) 0.6877(3) -1.6897(3)
C7A C 0.6450(3) 0.6418(3) -1.8263(3)
H5A H 0.7451 0.5601 -1.8465
C8A C 0.6423(3) 0.7231(3) -1.7364(2)
C9A C 0.4919(3) 0.8428(3) -1.7033(3)
H6A H 0.4836 0.8964 -1.6396
C10A C 0.3548(3) 0.8802(3) -1.7674(3)
H7A H 0.2534 0.9618 -1.7494
C11A C 0.3692(3) 0.7960(3) -1.8580(3)
H8A H 0.2769 0.8242 -1.9022
B1A B 0.1956(4) 0.8164(4) -1.1897(3)
F1A F 0.2319(2) 0.6609(2) -1.0514(2)
F2A F 0.2637(4) 0.9356(3) -1.2017(3)
F3A F 0.0167(2) 0.8759(2) -1.1749(2)
F4A F 0.2709(3) 0.7826(3) -1.3290(2)
loop_
_geom_bond_atom_site_label_1
_geom_bond_atom_site_label_2
_geom_bond_site_symmetry_1
_geom_bond_site_symmetry_2
Cd1 N1 1_555 1_555
O1 C6 1_555 1_555
N1 C1 1_555 1_555
N2 C7 1_555 1_555
C1 H1 1_555 1_555
C2 C1 1_555 1_555
C3 C2 1_555 1_555
H2 C3 1_555 1_555
C4 C3 1_555 1_555
H3 C4 1_555 1_555
C5 N1 1_555 1_555
H4 C5 1_555 1_555
C6 C2 1_555 1_555
C7 H5 1_555 1_555
C8 C6 1_555 1_555
C9 C8 1_555 1_555
H6 C9 1_555 1_555
C10 C9 1_555 1_555
H7 C10 1_555 1_555
C11 N2 1_555 1_555
H8 C11 1_555 1_555
B1 F1 1_555 1_555
F1 Cd1 1_555 1_555
F2 B1 1_555 1_555
F3 B1 1_555 1_555
F4 B1 1_555 1_555
Cd1_2 N2 1_555 1_555
Cd1_3 N2A_2 1_555 1_555
O1A C6A 1_555 1_555
N1A Cd1 1_555 1_555
N2_2 Cd1 1_555 1_555
N2A Cd1 1_555 1_555
N2A_2 C7A 1_555 1_555
C1A N1A 1_555 1_555
H1A C1A 1_555 1_555
C2A C1A 1_555 1_555
C3A C2A 1_555 1_555
H2A C3A 1_555 1_555
C4A C3A 1_555 1_555
H3A C4A 1_555 1_555
C5A N1A 1_555 1_555
H4A C5A 1_555 1_555
C6A C2A 1_555 1_555
C7A H5A 1_555 1_555
C8A C6A 1_555 1_555
C9A C8A 1_555 1_555
H6A C9A 1_555 1_555
C10A C9A 1_555 1_555
H7A C10A 1_555 1_555
C11A N2A_2 1_555 1_555
H8A C11A 1_555 1_555
B1A F1A 1_555 1_555
F1A Cd1 1_555 1_555
F2A B1A 1_555 1_555
F3A B1A 1_555 1_555
F4A B1A 1_555 1_555
C4 C5 1_555 1_555
C7 C8 1_555 1_555
C10 C11 1_555 1_555
C4A C5A 1_555 1_555
C7A C8A 1_555 1_555
C10A C11A 1_555 1_555

#END
