
#######################################################################
#
#                 Cambridge Crystallographic Data Centre
#                                CCDC 
#
#######################################################################
#
# If this CIF has been generated from an entry in the Cambridge 
# Structural Database, then it will include bibliographic, chemical, 
# crystal, experimental, refinement or atomic coordinate data resulting 
# from the CCDC's data processing and validation procedures.
#
#######################################################################

data_TATSUC
_symmetry_cell_setting           monoclinic
_symmetry_space_group_name_H-M   'C 2/c'
_symmetry_Int_Tables_number      15
_space_group_name_Hall           '-C 2yn'
loop_
_symmetry_equiv_pos_site_id
_symmetry_equiv_pos_as_xyz
1 x,y,z
2 -x,y,1/2-z
3 1/2+x,1/2+y,z
4 1/2-x,1/2+y,1/2-z
5 -x,-y,-z
6 x,-y,1/2+z
7 1/2-x,1/2-y,-z
8 1/2+x,1/2-y,1/2+z
_cell_length_a                   35.86(2)
_cell_length_b                   8.958(4)
_cell_length_c                   9.695(5)
_cell_angle_alpha                90
_cell_angle_beta                 109.65(2)
_cell_angle_gamma                90
_cell_volume                     2933
loop_
_atom_site_label
_atom_site_type_symbol
_atom_site_fract_x
_atom_site_fract_y
_atom_site_fract_z
Ag1 Ag 0.7418(1) 0.5361(1) 0.0974(1)
C1 C 0.5500(1) 0.4253(4) -0.0090(4)
O1 O 0.5371(1) 0.3824(4) 0.0978(3)
O2 O 0.5303(1) 0.4990(4) -0.1073(3)
C2 C 0.5900(1) 0.3888(4) -0.0100(4)
C3 C 0.6130(1) 0.3125(4) 0.1028(4)
C4 C 0.6513(1) 0.2919(4) 0.1074(4)
C5 C 0.6674(1) 0.3458(3) 0.0002(3)
N1 N 0.7075(1) 0.3302(3) 0.0087(3)
C6 C 0.6442(1) 0.4186(4) -0.1147(4)
C7 C 0.6063(1) 0.4376(4) -0.1198(4)
C8 C 0.9626(1) 0.6408(8) -0.1462(8)
C9 C 0.9211(1) 0.6393(5) -0.1355(5)
C10 C 0.8939(1) 0.5742(5) -0.2433(6)
C11 C 0.8559(1) 0.5711(4) -0.2367(5)
C12 C 0.8445(1) 0.6347(4) -0.1225(4)
S1 S 0.7958(1) 0.6368(1) -0.1174(1)
O3 O 0.7936(1) 0.6754(3) 0.0263(3)
O4 O 0.7807(1) 0.5108(3) 0.3402(3)
O5 O 0.7220(1) 0.7492(3) 0.2187(3)
C13 C 0.8712(1) 0.7011(5) -0.0154(4)
C14 C 0.9091(1) 0.7030(6) -0.0229(5)
H1 H 0.6033(4) 0.2731(17) 0.1782(32)
H2 H 0.6646(8) 0.2495(27) 0.1702(39)
H3 H 0.7129(11) 0.3264(44) -0.0723(46)
H4 H 0.7154(14) 0.2424(57) 0.0703(55)
H5 H 0.6535(5) 0.4554(18) -0.1893(37)
H6 H 0.5910(9) 0.4814(26) -0.1927(43)
H7 H 0.9807(8) 0.6618(12) -0.0564(40)
H8 H 0.9640(2) 0.7120(32) -0.2118(30)
H9 H 0.9681(3) 0.5494(41) -0.1767(16)
H10 H 0.9001(4) 0.5291(25) -0.3258(45)
H11 H 0.8384(11) 0.5287(27) -0.3052(43)
H12 H 0.8656(3) 0.7422(22) 0.0570(38)
H13 H 0.9279(12) 0.7489(29) 0.0506(46)
O4E O 0.7807(1) 0.4892(3) -0.1598(3)
Ag1E Ag 0.7418(1) 0.4639(1) -0.4026(1)
Ag1F Ag 0.7582(1) 0.9639(1) -0.0974(1)
O5F O 0.7780(1) 0.7508(3) -0.2187(3)
loop_
_geom_bond_atom_site_label_1
_geom_bond_atom_site_label_2
_geom_bond_site_symmetry_1
_geom_bond_site_symmetry_2
Ag1 N1 1_555 1_555
C1 O1 1_555 1_555
O2 C1 1_555 1_555
C2 C1 1_555 1_555
C3 C2 1_555 1_555
C4 C3 1_555 1_555
C5 C4 1_555 1_555
N1 C5 1_555 1_555
C6 C5 1_555 1_555
C7 C2 1_555 1_555
C8 C9 1_555 1_555
C9 C10 1_555 1_555
C10 C11 1_555 1_555
C11 C12 1_555 1_555
C12 S1 1_555 1_555
S1 O3 1_555 1_555
O3 Ag1 1_555 1_555
O4 Ag1 1_555 1_555
O5 Ag1 1_555 1_555
C13 C12 1_555 1_555
C14 C9 1_555 1_555
H1 C3 1_555 1_555
H2 C4 1_555 1_555
H3 N1 1_555 1_555
H4 N1 1_555 1_555
H5 C6 1_555 1_555
H6 C7 1_555 1_555
H7 C8 1_555 1_555
H8 C8 1_555 1_555
H9 C8 1_555 1_555
H10 C10 1_555 1_555
H11 C11 1_555 1_555
H12 C13 1_555 1_555
H13 C14 1_555 1_555
O4E S1 1_555 1_555
Ag1E O4E 1_555 1_555
Ag1F O5F 1_555 1_555
O5F S1 1_555 1_555
C6 C7 1_555 1_555
C13 C14 1_555 1_555

#END
