
#######################################################################
#
#                 Cambridge Crystallographic Data Centre
#                                CCDC 
#
#######################################################################
#
# If this CIF has been generated from an entry in the Cambridge 
# Structural Database, then it will include bibliographic, chemical, 
# crystal, experimental, refinement or atomic coordinate data resulting 
# from the CCDC's data processing and validation procedures.
#
#######################################################################

data_TATSIS01
_symmetry_cell_setting           monoclinic
_symmetry_space_group_name_H-M   'P 21'
_symmetry_Int_Tables_number      4
_space_group_name_Hall           'P 2yb'
loop_
_symmetry_equiv_pos_site_id
_symmetry_equiv_pos_as_xyz
1 x,y,z
2 -x,1/2+y,-z
_cell_length_a                   9.810(2)
_cell_length_b                   12.753(3)
_cell_length_c                   10.917(2)
_cell_angle_alpha                90
_cell_angle_beta                 100.63(3)
_cell_angle_gamma                90
_cell_volume                     1342.35
loop_
_atom_site_label
_atom_site_type_symbol
_atom_site_fract_x
_atom_site_fract_y
_atom_site_fract_z
C1 C 1.1360(6) 0.5148(6) 0.6775(6)
H1 H 1.1326 0.5238 0.7614
N1 N 1.1395(5) 0.4168(5) 0.6326(5)
C2 C 1.1458(6) 0.4044(6) 0.5141(6)
H2 H 1.1468 0.3368 0.4822
O1 O 1.2665(5) 0.6926(5) 0.3571(5)
N2 N 0.6412(5) 0.4241(5) 0.6460(5)
C3 C 0.5299(6) 0.4842(6) 0.6086(6)
H3 H 0.4474 0.4665 0.6340
O2 O 1.0183(4) 0.3751(5) -0.1443(4)
O3 O 0.8120(4) 0.3164(5) -0.1225(4)
N3 N 0.6112(6) 1.1437(5) -0.1467(5)
Co1 Co 0.37664(9) 0.78334(11) 0.24877(9)
Co2 Co 0.87266(9) 0.78184(11) 0.25041(9)
O4 O 0.7686(4) 0.6885(5) 0.3564(4)
O5 O 0.4788(5) 0.8692(5) 0.1339(4)
O6 O 1.0498(5) 0.7458(5) 0.3769(5)
C4 C 1.1536(7) 0.6822(6) 0.3979(6)
C5 C 0.6587(7) 0.6829(7) 0.4044(6)
O7 O 0.5546(5) 0.7487(4) 0.3780(4)
C6 C 0.5991(6) 0.9700(6) 0.0088(6)
C7 C 0.6548(7) 0.5965(7) 0.4926(7)
C8 C 1.1478(7) 0.5902(7) 0.4789(7)
O8 O 0.6943(4) 0.8267(5) 0.1259(4)
C9 C 0.4814(6) 1.0283(6) -0.0371(5)
H4 H 0.3969 1.0101 -0.0160
C10 C 0.7219(6) 0.9980(6) -0.0267(5)
H5 H 0.8021 0.9592 0.0000
N4 N 0.8849(6) 0.6474(5) 0.1356(6)
C11 C 0.7240(6) 1.0851(6) -0.1029(5)
H6 H 0.8079 1.1040 -0.1249
C12 C 0.8900(6) 0.5478(6) 0.1794(6)
H7 H 0.8899 0.5373 0.2637
C13 C 0.8915(7) 0.5746(6) -0.0685(6)
H8 H 0.8933 0.5858 -0.1524
C14 C 1.1372(6) 0.6022(6) 0.6037(6)
H9 H 1.1310 0.6688 0.6369
C15 C 0.8849(6) 0.6583(6) 0.0113(5)
H10 H 0.8802 0.7257 -0.0218
C16 C 1.1510(6) 0.4894(6) 0.4348(5)
H11 H 1.1566 0.4779 0.3518
C17 C 0.7702(5) 0.5353(6) 0.5347(5)
H12 H 0.8547 0.5508 0.5118
C18 C 0.7583(6) 0.4499(6) 0.6122(6)
H13 H 0.8367 0.4097 0.6410
C19 C 0.8953(6) 0.4604(5) 0.1037(5)
H14 H 0.8988 0.3935 0.1379
C20 C 0.8954(6) 0.4731(6) -0.0201(6)
C21 C 0.4892(5) 1.1129(6) -0.1134(5)
H15 H 0.4088 1.1507 -0.1435
C22 C 0.5314(6) 0.5717(6) 0.5337(6)
H16 H 0.4526 0.6130 0.5113
C23 C 0.9081(6) 0.3768(6) -0.1054(5)
C24 C 0.5914(6) 0.8784(6) 0.1004(6)
N1A N 0.8605(5) 0.9168(5) 0.3674(5)
O1_2 O 0.2665(5) 0.6926(5) 0.3571(5)
N2A N 0.3588(5) 0.9241(5) 0.3540(5)
O2A O 0.9817(4) 0.8751(5) 0.1443(4)
O3A O 0.1880(4) 0.8164(5) 0.1225(4)
N3A N 0.3888(6) 0.6437(5) 0.1467(5)
Co1_2 Co 1.37664(9) 0.78334(11) 0.24877(9)
Co1A Co 0.62336(9) 0.28334(11) -0.24877(9)
Co1A_2 Co 0.62336(9) 0.28334(11) 0.75123(9)
Co1A_3 Co 0.62336(9) 1.28334(11) -0.24877(9)
Co2A Co 1.12734(9) 0.28184(11) -0.25041(9)
Co2A_2 Co 1.12734(9) 0.28184(11) 0.74959(9)
O9 O 0.7636(8) 0.7843(8) 0.7502(8)
N5 N 0.5264(7) 0.7923(6) 0.7431(6)
C25 C 0.5171(16) 0.7144(10) 0.8279(9)
H17 H 0.6076 0.7001 0.8756
H18 H 0.4805 0.6520 0.7847
H19 H 0.4566 0.7366 0.8828
C26 C 0.643(2) 0.8213(11) 0.7062(11)
H20 H 0.6364 0.8720 0.6441
C27 C 0.3954(13) 0.8373(9) 0.6828(11)
H21 H 0.4109 0.9066 0.6538
H22 H 0.3335 0.8410 0.7413
H23 H 0.3551 0.7942 0.6134
loop_
_geom_bond_atom_site_label_1
_geom_bond_atom_site_label_2
_geom_bond_site_symmetry_1
_geom_bond_site_symmetry_2
C1 H1 1_555 1_555
N1 C1 1_555 1_555
C2 N1 1_555 1_555
H2 C2 1_555 1_555
O1 C4 1_555 1_555
N2 C3 1_555 1_555
C3 H3 1_555 1_555
O2 C23 1_555 1_555
O3 C23 1_555 1_555
N3 C11 1_555 1_555
Co1 O5 1_555 1_555
Co2 O4 1_555 1_555
O4 C5 1_555 1_555
O5 C24 1_555 1_555
O6 Co2 1_555 1_555
C4 O6 1_555 1_555
C5 O7 1_555 1_555
O7 Co1 1_555 1_555
C6 C9 1_555 1_555
C7 C5 1_555 1_555
C8 C4 1_555 1_555
O8 Co2 1_555 1_555
C9 H4 1_555 1_555
C10 C6 1_555 1_555
H5 C10 1_555 1_555
N4 Co2 1_555 1_555
C11 C10 1_555 1_555
H6 C11 1_555 1_555
C12 N4 1_555 1_555
H7 C12 1_555 1_555
C13 H8 1_555 1_555
C14 C1 1_555 1_555
H9 C14 1_555 1_555
C15 N4 1_555 1_555
H10 C15 1_555 1_555
C16 C2 1_555 1_555
H11 C16 1_555 1_555
C17 C7 1_555 1_555
H12 C17 1_555 1_555
C18 N2 1_555 1_555
H13 C18 1_555 1_555
C19 C12 1_555 1_555
H14 C19 1_555 1_555
C20 C13 1_555 1_555
C21 N3 1_555 1_555
H15 C21 1_555 1_555
C22 C3 1_555 1_555
H16 C22 1_555 1_555
C23 C20 1_555 1_555
C24 C6 1_555 1_555
O9 C26 1_555 1_555
N5 C25 1_555 1_555
C25 H17 1_555 1_555
H18 C25 1_555 1_555
H19 C25 1_555 1_555
C26 N5 1_555 1_555
H20 C26 1_555 1_555
C27 N5 1_555 1_555
H21 C27 1_555 1_555
H22 C27 1_555 1_555
H23 C27 1_555 1_555
N1A Co2 1_555 1_555
O1_2 Co1 1_555 1_555
N2A Co1 1_555 1_555
O2A Co2 1_555 1_555
O3A Co1 1_555 1_555
N3A Co1 1_555 1_555
Co1_2 O1 1_555 1_555
Co1A O3 1_555 1_555
Co1A_2 N2 1_555 1_555
Co1A_3 N3 1_555 1_555
Co2A O2 1_555 1_555
Co2A_2 N1 1_555 1_555
C7 C22 1_555 1_555
C8 C14 1_555 1_555
C8 C16 1_555 1_555
O8 C24 1_555 1_555
C9 C21 1_555 1_555
C13 C15 1_555 1_555
C17 C18 1_555 1_555
C19 C20 1_555 1_555

#END
