
#######################################################################
#
#                 Cambridge Crystallographic Data Centre
#                                CCDC 
#
#######################################################################
#
# If this CIF has been generated from an entry in the Cambridge 
# Structural Database, then it will include bibliographic, chemical, 
# crystal, experimental, refinement or atomic coordinate data resulting 
# from the CCDC's data processing and validation procedures.
#
#######################################################################

data_TAVPOW
_symmetry_cell_setting           orthorhombic
_symmetry_space_group_name_H-M   'P 21 21 21'
_symmetry_Int_Tables_number      19
_space_group_name_Hall           'P 2ac 2ab'
loop_
_symmetry_equiv_pos_site_id
_symmetry_equiv_pos_as_xyz
1 x,y,z
2 1/2-x,-y,1/2+z
3 -x,1/2+y,1/2-z
4 1/2+x,1/2-y,-z
_cell_length_a                   14.0810(10)
_cell_length_b                   15.9400(11)
_cell_length_c                   16.0751(10)
_cell_angle_alpha                90
_cell_angle_beta                 90
_cell_angle_gamma                90
_cell_volume                     3608.07
loop_
_atom_site_label
_atom_site_type_symbol
_atom_site_fract_x
_atom_site_fract_y
_atom_site_fract_z
Mn1 Mn 0.93193(5) 0.83072(5) 0.03403(5)
O1 O 0.8132(3) 0.9157(2) 0.0286(3)
O2 O 1.0293(2) 0.7311(2) 0.0528(2)
O3 O 0.8800(3) 0.8156(3) 0.1594(2)
N1 N 1.1179(3) 0.7371(3) 0.0724(3)
O4 O 1.3548(2) 0.7621(2) 0.0324(3)
O5 O 1.0274(3) 0.9190(3) 0.0916(3)
O6 O 0.9806(3) 0.8961(3) -0.0766(3)
C1 C 1.1158(4) 0.7271(4) -0.1165(4)
H1 H 1.0789 0.6845 -0.0940
C2 C 1.1791(4) 0.7707(4) -0.0679(3)
C3 C 1.1897(3) 0.7529(3) 0.0195(3)
C4 C 1.1522(4) 0.7123(4) 0.1571(4)
C5 C 1.2538(4) 0.7500(5) 0.1550(4)
C6 C 1.2358(4) 0.8324(5) -0.1043(4)
H2 H 1.2824 0.8578 -0.0720
C7 C 0.8372(4) 0.8674(4) 0.2003(4)
C8 C 1.1648(6) 0.8134(5) -0.2316(4)
F1 F 0.7672(4) 0.8813(5) 0.3337(3)
C9 C 1.2262(5) 0.8567(5) -0.1841(5)
H3 H 1.2606 0.9016 -0.2055
O7 O 1.1613(4) 0.8405(4) -0.3145(4)
F2 F 0.8590(5) 0.7803(3) 0.3175(3)
C10 C 0.7776(5) 0.9553(4) 0.0873(4)
C11 C 0.8438(6) 0.8560(5) 0.2936(5)
F3 F 0.9134(5) 0.9004(4) 0.3244(3)
C12 C 0.7872(5) 0.9358(4) 0.1718(4)
H4 H 0.7584 0.9707 0.2106
C13 C 1.0062(9) 1.0099(6) -0.1657(6)
C14 C 1.0092(5) 0.9695(5) -0.0797(5)
C15 C 1.1080(5) 0.7486(5) -0.2022(4)
H5 H 1.0664 0.7202 -0.2372
C16 C 1.0400(5) 1.0195(4) -0.0146(6)
H6 H 1.0572 1.0749 -0.0250
C17 C 1.0877(5) 0.7492(5) 0.2230(4)
H7 H 1.0899 0.8093 0.2200
H8 H 1.1086 0.7313 0.2771
H9 H 1.0238 0.7304 0.2139
C18 C 1.0456(5) 0.9890(5) 0.0646(5)
C19 C 1.1509(7) 0.6155(5) 0.1602(5)
H10 H 1.0864 0.5961 0.1604
H11 H 1.1824 0.5967 0.2098
H12 H 1.1832 0.5935 0.1124
C20 C 1.0787(13) 1.0498(10) 0.1312(9)
C21 C 1.3286(5) 0.6961(7) 0.1979(5)
H13 H 1.3890 0.7239 0.1953
H14 H 1.3328 0.6428 0.1704
H15 H 1.3110 0.6877 0.2550
F4 F 0.9287(8) 1.0491(7) -0.1773(5)
C22 C 1.2585(6) 0.8414(6) 0.1848(5)
H16 H 1.3230 0.8607 0.1827
H17 H 1.2354 0.8449 0.2409
H18 H 1.2199 0.8759 0.1493
F5 F 1.0019(8) 0.9588(5) -0.2256(4)
F6 F 1.1034(11) 1.1221(5) 0.1065(7)
N2 N 1.2706(3) 0.7515(3) 0.0637(3)
C23 C 1.1014(8) 0.7956(7) -0.3677(6)
H19 H 1.0358 0.8020 -0.3504
H20 H 1.1173 0.7364 -0.3664
F7 F 1.1465(10) 1.0281(7) 0.1705(9)
C24 C 1.1152(10) 0.8315(11) -0.4584(7)
H21 H 1.1815 0.8228 -0.4749
C25 C 1.0968(12) 0.9239(12) -0.4548(12)
H22 H 1.1337 0.9502 -0.4112
H23 H 1.0300 0.9354 -0.4456
F8 F 1.0203(11) 1.0636(12) 0.1824(10)
F9 F 1.0669(9) 1.0556(8) -0.1841(5)
C26 C 1.0542(14) 0.7848(11) -0.5157(9)
H24 H 1.0606 0.8074 -0.5707
H25 H 0.9893 0.7894 -0.4980
H26 H 1.0727 0.7268 -0.5159
C27 C 1.130(2) 0.956(2) -0.5460(16)
H27 H 1.1205 1.0157 -0.5500
H28 H 1.0936 0.9283 -0.5881
H29 H 1.1963 0.9437 -0.5538
F10 F 0.6834(7) 1.0722(4) 0.1200(4)
F11 F 0.6526(8) 1.0109(7) 0.0133(7)
C28 C 0.7201(10) 1.0271(8) 0.0641(6)
F12 F 0.7626(9) 1.0771(5) 0.0149(8)
Mn1C Mn 1.43193(5) 0.66928(5) -0.03403(5)
O4C O 0.8548(2) 0.7379(2) -0.0324(3)
loop_
_geom_bond_atom_site_label_1
_geom_bond_atom_site_label_2
_geom_bond_site_symmetry_1
_geom_bond_site_symmetry_2
Mn1 O1 1_555 1_555
O1 C10 1_555 1_555
O2 Mn1 1_555 1_555
O3 Mn1 1_555 1_555
N1 O2 1_555 1_555
O4 N2 1_555 1_555
O5 Mn1 1_555 1_555
O6 Mn1 1_555 1_555
C1 H1 1_555 1_555
C2 C1 1_555 1_555
C3 N1 1_555 1_555
C4 N1 1_555 1_555
C5 C4 1_555 1_555
C6 C2 1_555 1_555
H2 C6 1_555 1_555
C7 O3 1_555 1_555
C8 C9 1_555 1_555
F1 C11 1_555 1_555
C9 C6 1_555 1_555
H3 C9 1_555 1_555
O7 C8 1_555 1_555
F2 C11 1_555 1_555
C10 C12 1_555 1_555
C11 C7 1_555 1_555
F3 C11 1_555 1_555
C12 C7 1_555 1_555
H4 C12 1_555 1_555
C13 C14 1_555 1_555
C14 O6 1_555 1_555
C15 C1 1_555 1_555
H5 C15 1_555 1_555
C16 C14 1_555 1_555
H6 C16 1_555 1_555
C17 C4 1_555 1_555
H7 C17 1_555 1_555
H8 C17 1_555 1_555
H9 C17 1_555 1_555
C18 O5 1_555 1_555
C19 C4 1_555 1_555
H10 C19 1_555 1_555
H11 C19 1_555 1_555
H12 C19 1_555 1_555
C20 C18 1_555 1_555
C21 C5 1_555 1_555
H13 C21 1_555 1_555
H14 C21 1_555 1_555
H15 C21 1_555 1_555
F4 C13 1_555 1_555
C22 C5 1_555 1_555
H16 C22 1_555 1_555
H17 C22 1_555 1_555
H18 C22 1_555 1_555
F5 C13 1_555 1_555
F6 C20 1_555 1_555
N2 C3 1_555 1_555
C23 O7 1_555 1_555
H19 C23 1_555 1_555
H20 C23 1_555 1_555
F7 C20 1_555 1_555
C24 C23 1_555 1_555
H21 C24 1_555 1_555
C25 C24 1_555 1_555
H22 C25 1_555 1_555
H23 C25 1_555 1_555
F8 C20 1_555 1_555
F9 C13 1_555 1_555
C26 C24 1_555 1_555
H24 C26 1_555 1_555
H25 C26 1_555 1_555
H26 C26 1_555 1_555
C27 C25 1_555 1_555
H27 C27 1_555 1_555
H28 C27 1_555 1_555
H29 C27 1_555 1_555
F10 C28 1_555 1_555
F11 C28 1_555 1_555
C28 C10 1_555 1_555
F12 C28 1_555 1_555
Mn1C O4 1_555 1_555
O4C Mn1 1_555 1_555
C2 C3 1_555 1_555
C5 N2 1_555 1_555
C8 C15 1_555 1_555
C16 C18 1_555 1_555

#END
