
#######################################################################
#
#                 Cambridge Crystallographic Data Centre
#                                CCDC 
#
#######################################################################
#
# If this CIF has been generated from an entry in the Cambridge 
# Structural Database, then it will include bibliographic, chemical, 
# crystal, experimental, refinement or atomic coordinate data resulting 
# from the CCDC's data processing and validation procedures.
#
#######################################################################

data_TAVSOZ
_symmetry_cell_setting           monoclinic
_symmetry_space_group_name_H-M   'C 2/c'
_symmetry_Int_Tables_number      15
_space_group_name_Hall           '-C 2yn'
loop_
_symmetry_equiv_pos_site_id
_symmetry_equiv_pos_as_xyz
1 x,y,z
2 1/2+x,1/2+y,z
3 -x,y,1/2-z
4 1/2-x,1/2+y,1/2-z
5 -x,-y,-z
6 1/2-x,1/2-y,-z
7 x,-y,1/2+z
8 1/2+x,1/2-y,1/2+z
_cell_length_a                   20.641(3)
_cell_length_b                   9.1379(12)
_cell_length_c                   13.4597(18)
_cell_angle_alpha                90
_cell_angle_beta                 100.900(4)
_cell_angle_gamma                90
_cell_volume                     2492.91
loop_
_atom_site_label
_atom_site_type_symbol
_atom_site_fract_x
_atom_site_fract_y
_atom_site_fract_z
Cd1 Cd 0.5000 0.45064(14) 0.2500
O1 O 0.4094(4) 0.2671(9) 0.1933(5)
O2 O 0.4382(3) 0.3378(9) 0.3504(5)
O3 O 0.4501(3) 0.4201(8) 0.6025(5)
O4 O 0.4185(4) 0.3463(10) 0.7421(5)
N1 N 0.3705(4) 0.2431(11) 0.4844(6)
H1 H 0.3949 0.3106 0.4663
C1 C 0.4015(5) 0.2616(11) 0.2833(8)
C2 C 0.3498(4) 0.1654(11) 0.3090(7)
C3 C 0.3132(5) 0.0790(12) 0.2354(7)
H2 H 0.3212 0.0855 0.1698
C4 C 0.2657(5) -0.0159(14) 0.2540(8)
H3 H 0.2425 -0.0746 0.2029
C5 C 0.2530(5) -0.0219(13) 0.3520(9)
H4 H 0.2201 -0.0841 0.3657
C6 C 0.2869(4) 0.0595(13) 0.4270(7)
H5 H 0.2776 0.0509 0.4917
C7 C 0.3363(4) 0.1575(10) 0.4104(7)
C8 C 0.3696(5) 0.2307(12) 0.5909(7)
H6 H 0.3834 0.1331 0.6143
H7 H 0.3251 0.2462 0.6023
C9 C 0.4154(5) 0.3426(11) 0.6494(7)
Cd1F Cd 0.5000 0.54936(14) 0.7500
Cd1F_2 Cd 0.5000 0.54936(14) -0.2500
O1B O 0.5906(4) 0.2671(9) 0.3067(5)
O2B O 0.5618(3) 0.3378(9) 0.1496(5)
O3B O 0.5499(3) 0.4201(8) -0.1025(5)
O3F O 0.4501(3) 0.5799(8) 0.1025(5)
O3D O 0.5499(3) 0.5799(8) 0.3975(5)
O4B O 0.5815(4) 0.3463(10) -0.2421(5)
O4F O 0.4185(4) 0.6537(10) 0.2421(5)
O4D O 0.5815(4) 0.6537(10) 0.2579(5)
N1B N 0.6295(4) 0.2431(11) 0.0156(6)
H1B H 0.6051 0.3106 0.0337
C1B C 0.5985(5) 0.2616(11) 0.2167(8)
C2B C 0.6502(4) 0.1654(11) 0.1910(7)
C3B C 0.6868(5) 0.0790(12) 0.2646(7)
H2B H 0.6788 0.0855 0.3302
C4B C 0.7343(5) -0.0159(14) 0.2460(8)
H3B H 0.7575 -0.0746 0.2971
C5B C 0.7470(5) -0.0219(13) 0.1480(9)
H4B H 0.7799 -0.0841 0.1343
C6B C 0.7131(4) 0.0595(13) 0.0730(7)
H5B H 0.7224 0.0509 0.0083
C7B C 0.6637(4) 0.1575(10) 0.0896(7)
C8B C 0.6304(5) 0.2307(12) -0.0909(7)
H6B H 0.6166 0.1331 -0.1143
H7B H 0.6749 0.2462 -0.1023
C9B C 0.5846(5) 0.3426(11) -0.1494(7)
C10 C 0.3567(6) 0.3487(17) 0.9428(9)
H8 H 0.3489 0.4522 0.9436
H9 H 0.3361 0.3018 0.9926
H10 H 0.3385 0.3103 0.8770
N2 N 0.4265(5) 0.3215(11) 0.9653(7)
H11 H 0.4550 0.3910 0.9764
C11 C 0.4452(6) 0.1706(14) 0.9681(10)
H12 H 0.4924 0.1630 0.9847
H13 H 0.4296 0.1270 0.9031
H14 H 0.4262 0.1206 1.0185
O5 O 0.5000 0.015(8) 0.7500
loop_
_geom_bond_atom_site_label_1
_geom_bond_atom_site_label_2
_geom_bond_site_symmetry_1
_geom_bond_site_symmetry_2
Cd1 O1 1_555 1_555
O1 C1 1_555 1_555
O2 Cd1 1_555 1_555
O3 C9 1_555 1_555
O4 C9 1_555 1_555
N1 H1 1_555 1_555
C1 O2 1_555 1_555
C2 C1 1_555 1_555
C3 C2 1_555 1_555
H2 C3 1_555 1_555
C4 C3 1_555 1_555
H3 C4 1_555 1_555
C5 C4 1_555 1_555
H4 C5 1_555 1_555
C6 C5 1_555 1_555
H5 C6 1_555 1_555
C7 N1 1_555 1_555
C8 N1 1_555 1_555
H6 C8 1_555 1_555
H7 C8 1_555 1_555
C9 C8 1_555 1_555
C10 H8 1_555 1_555
H9 C10 1_555 1_555
H10 C10 1_555 1_555
N2 C10 1_555 1_555
H11 N2 1_555 1_555
C11 N2 1_555 1_555
H12 C11 1_555 1_555
H13 C11 1_555 1_555
H14 C11 1_555 1_555
Cd1F O3 1_555 1_555
Cd1F_2 O3B 1_555 1_555
O1B Cd1 1_555 1_555
O2B Cd1 1_555 1_555
O3B C9B 1_555 1_555
O3F Cd1 1_555 1_555
O3D Cd1 1_555 1_555
O4B Cd1F_2 1_555 1_555
O4F Cd1 1_555 1_555
O4D Cd1 1_555 1_555
N1B H1B 1_555 1_555
C1B O1B 1_555 1_555
C2B C1B 1_555 1_555
C3B C2B 1_555 1_555
H2B C3B 1_555 1_555
C4B C3B 1_555 1_555
H3B C4B 1_555 1_555
C5B C4B 1_555 1_555
H4B C5B 1_555 1_555
C6B C5B 1_555 1_555
H5B C6B 1_555 1_555
C7B N1B 1_555 1_555
C8B N1B 1_555 1_555
H6B C8B 1_555 1_555
H7B C8B 1_555 1_555
C9B O4B 1_555 1_555
O4 Cd1F 1_555 1_555
C2 C7 1_555 1_555
C6 C7 1_555 1_555
O2B C1B 1_555 1_555
C2B C7B 1_555 1_555
C6B C7B 1_555 1_555
C8B C9B 1_555 1_555

#END
