
#######################################################################
#
#                 Cambridge Crystallographic Data Centre
#                                CCDC 
#
#######################################################################
#
# If this CIF has been generated from an entry in the Cambridge 
# Structural Database, then it will include bibliographic, chemical, 
# crystal, experimental, refinement or atomic coordinate data resulting 
# from the CCDC's data processing and validation procedures.
#
#######################################################################

data_TAVSUE
_symmetry_cell_setting           monoclinic
_symmetry_space_group_name_H-M   'P 21'
_symmetry_Int_Tables_number      4
_space_group_name_Hall           'P 2yb'
loop_
_symmetry_equiv_pos_site_id
_symmetry_equiv_pos_as_xyz
1 x,y,z
2 -x,1/2+y,-z
_cell_length_a                   3.994(2)
_cell_length_b                   13.886(3)
_cell_length_c                   7.556(1)
_cell_angle_alpha                90
_cell_angle_beta                 97.07(2)
_cell_angle_gamma                90
_cell_volume                     415.875
loop_
_atom_site_label
_atom_site_type_symbol
_atom_site_fract_x
_atom_site_fract_y
_atom_site_fract_z
Cu1 Cu -0.1732(2) 0.7500 -0.24707(7)
Cu2 Cu -0.0869(2) 0.90608(5) 0.34766(7)
N1 N -0.101(1) 0.8007(3) -0.0062(5)
C1 C -0.086(1) 0.8342(3) 0.1331(6)
C2 C -0.064(1) 0.6240(3) -0.3155(5)
N2 N 0.007(1) 1.0446(3) 0.3422(5)
S1 S -0.4339(3) 0.86335(8) 0.5591(1)
C3 C -0.481(1) 0.9626(3) 0.6914(5)
N3 N -0.387(1) 1.0513(3) 0.6571(5)
N4 N -0.632(1) 0.9608(3) 0.8375(5)
C4 C -0.524(1) 1.1211(3) 0.7763(7)
C5 C -0.620(1) 1.0563(4) 0.9222(6)
H1 H -0.29(1) 1.068(3) 0.576(6)
H2 H -0.69(1) 0.904(5) 0.875(8)
H3 H -0.7147 1.1538 0.7172
H4 H -0.3579 1.1669 0.8214
H5 H -0.4552 1.0583 1.0241
H6 H -0.8338 1.0736 0.9555
C2A C 0.064(1) 1.1240(3) 0.3155(5)
Cu1A Cu 0.1732(2) 1.2500 0.24707(7)
Cu1_2 Cu -0.1732(2) 0.7500 0.75293(7)
S1_2 S -0.4339(3) 0.86335(8) -0.4409(1)
loop_
_geom_bond_atom_site_label_1
_geom_bond_atom_site_label_2
_geom_bond_site_symmetry_1
_geom_bond_site_symmetry_2
Cu1 N1 1_555 1_555
Cu2 C1 1_555 1_555
N1 C1 1_555 1_555
C2 Cu1 1_555 1_555
N2 Cu2 1_555 1_555
S1 Cu2 1_555 1_555
C3 S1 1_555 1_555
N3 C3 1_555 1_555
N4 C3 1_555 1_555
C4 N3 1_555 1_555
C5 N4 1_555 1_555
H1 N3 1_555 1_555
H2 N4 1_555 1_555
H3 C4 1_555 1_555
H4 C4 1_555 1_555
H5 C5 1_555 1_555
H6 C5 1_555 1_555
C2A N2 1_555 1_555
Cu1A C2A 1_555 1_555
Cu1_2 S1 1_555 1_555
S1_2 Cu1 1_555 1_555
C4 C5 1_555 1_555

#END
