
#######################################################################
#
#                 Cambridge Crystallographic Data Centre
#                                CCDC 
#
#######################################################################
#
# If this CIF has been generated from an entry in the Cambridge 
# Structural Database, then it will include bibliographic, chemical, 
# crystal, experimental, refinement or atomic coordinate data resulting 
# from the CCDC's data processing and validation procedures.
#
#######################################################################

data_TAVTOB
_symmetry_cell_setting           monoclinic
_symmetry_space_group_name_H-M   'P 21/c'
_symmetry_Int_Tables_number      14
_space_group_name_Hall           '-P 2ybc'
loop_
_symmetry_equiv_pos_site_id
_symmetry_equiv_pos_as_xyz
1 x,y,z
2 -x,1/2+y,1/2-z
3 -x,-y,-z
4 x,1/2-y,1/2+z
_cell_length_a                   27.263(8)
_cell_length_b                   19.990(7)
_cell_length_c                   16.688(7)
_cell_angle_alpha                90
_cell_angle_beta                 103.53(2)
_cell_angle_gamma                90
_cell_volume                     8842.35
loop_
_atom_site_label
_atom_site_type_symbol
_atom_site_fract_x
_atom_site_fract_y
_atom_site_fract_z
Zn1 Zn 0.24912(4) 0.07016(5) 0.74249(6)
N1 N 0.2979(2) 0.1264(3) 0.8226(4)
N2 N 0.2143(2) 0.0402(3) 0.8373(4)
N3 N 0.2798(2) 0.1018(3) 0.6463(4)
C1 C 0.3389(4) 0.1646(4) 0.8086(6)
N4 N -0.1892(3) -0.3447(4) 0.7784(5)
C2 C 0.2657(3) 0.0827(4) 0.5653(5)
N5 N 0.1976(2) 0.0117(3) 0.6632(4)
C3 C 0.1015(4) -0.0668(7) 0.7598(5)
C4 C 0.3005(3) 0.1141(5) 0.5239(5)
H1 H 0.2990 0.1091 0.4668
C5 C 0.2110(4) 0.0281(5) 0.4350(6)
C6 C 0.3208(3) 0.1410(4) 0.6566(5)
C7 C 0.2279(3) 0.0414(5) 0.5356(5)
C8 C 0.1579(3) -0.0242(4) 0.6791(6)
C9 C 0.2298(3) 0.0648(4) 0.9180(5)
C10 C 0.1484(3) -0.0263(5) 0.7570(6)
C11 C 0.2755(3) 0.1166(5) 1.0417(5)
C12 C 0.1506(3) -0.0356(4) 0.5419(6)
H2 H 0.1388 -0.0472 0.4855
C13 C 0.1957(3) 0.0074(4) 0.5768(6)
C14 C 0.1729(3) 0.0031(5) 0.8283(5)
C15 C 0.3421(4) 0.1750(5) 0.9432(5)
H3 H 0.3522 0.1859 1.0001
C16 C 0.3661(3) 0.1975(5) 0.8832(6)
H4 H 0.3938 0.2274 0.8896
C17 C 0.3963(4) 0.2106(5) 0.7249(5)
C18 C 0.3023(3) 0.1354(4) 0.9090(6)
C19 C 0.1293(3) -0.0553(4) 0.6044(6)
H5 H 0.1010 -0.0840 0.5998
C20 C 0.5283(4) 0.3218(6) 0.7163(6)
C21 C 0.6093(4) 0.3954(6) 0.7213(7)
C22 C 0.0138(5) -0.1419(7) 0.7648(6)
N6 N 0.6911(3) 0.4837(4) 0.7340(6)
C23 C 0.2547(4) 0.1714(7) 1.0680(6)
C24 C 0.3518(3) 0.1700(4) 0.7281(5)
C25 C 0.1587(3) -0.0057(5) 0.9055(6)
H6 H 0.1329 -0.0334 0.9170
C26 C 0.3325(4) 0.1483(5) 0.5713(6)
H7 H 0.3588 0.1738 0.5578
C27 C 0.1922(4) 0.0365(5) 0.9595(6)
H8 H 0.1908 0.0456 1.0148
C28 C 0.5640(4) 0.3505(6) 0.7181(6)
C29 C -0.0302(4) -0.1835(6) 0.7691(6)
C30 C 0.3036(4) 0.0734(6) 1.0961(6)
C31 C 0.1714(4) 0.0709(6) 0.3933(7)
C32 C 0.2691(3) 0.1062(4) 0.9496(5)
C33 C 0.2859(5) 0.1392(7) 1.2083(7)
C34 C -0.1436(5) -0.3491(5) 0.8286(6)
H9 H -0.1384 -0.3853 0.8665
C35 C -0.1547(3) -0.2489(5) 0.7235(5)
H10 H -0.1608 -0.2135 0.6845
C36 C -0.1020(4) -0.3063(6) 0.8321(6)
H11 H -0.0714 -0.3126 0.8725
C37 C 0.4849(5) 0.2848(7) 0.7170(6)
C38 C -0.0624(4) -0.2155(6) 0.7751(6)
C39 C -0.1067(5) -0.2561(5) 0.7765(6)
C40 C 0.3935(3) 0.2680(5) 0.6860(5)
H12 H 0.3615 0.2853 0.6587
C41 C 0.2911(4) 0.1502(5) 1.3040(5)
H13 H 0.2730 0.1909 1.3126
H14 H 0.3269 0.1547 1.3317
H15 H 0.2767 0.1117 1.3268
C42 C 0.2211(4) 0.2226(5) 1.0049(5)
H16 H 0.2215 0.2096 0.9484
H17 H 0.2348 0.2678 1.0158
H18 H 0.1863 0.2216 1.0116
C43 C 0.1599(5) 0.0553(6) 0.3025(6)
H19 H 0.1335 0.0779 0.2651
C44 C 0.4366(4) 0.3035(5) 0.6844(6)
H20 H 0.4319 0.3456 0.6574
C45 C 0.4438(5) 0.1910(5) 0.7603(6)
H21 H 0.4486 0.1499 0.7896
C46 C 0.2902(4) -0.0646(7) 0.4704(8)
H22 H 0.2951 -0.0513 0.5283
H23 H 0.3218 -0.0585 0.4528
H24 H 0.2802 -0.1118 0.4644
C47 C 0.4861(4) 0.2291(7) 0.7554(7)
H25 H 0.5183 0.2122 0.7826
C48 C 0.1864(7) 0.0113(11) 0.2770(13)
C49 C 0.6877(5) 0.4373(8) 0.7830(8)
H26 H 0.7178 0.4267 0.8226
C50 C 0.2590(3) 0.1812(5) 1.1539(6)
H27 H 0.2426 0.2180 1.1723
C51 C 0.0557(5) -0.0377(6) 0.7514(7)
H28 H 0.0526 0.0092 0.7423
C52 C 0.3084(4) 0.0864(6) 1.1809(6)
H29 H 0.3281 0.0570 1.2202
C53 C 0.2491(6) -0.0216(7) 0.4172(9)
C54 C 0.6527(6) 0.4767(7) 0.6722(7)
H30 H 0.6556 0.5016 0.6251
C55 C 0.1380(4) 0.1178(6) 0.4275(6)
H31 H 0.1515 0.1231 0.4870
H32 H 0.1038 0.0992 0.4174
H33 H 0.1369 0.1614 0.4004
C56 C 0.1812(5) 0.0006(8) 0.1759(7)
H34 H 0.2047 -0.0344 0.1674
H35 H 0.1893 0.0426 0.1515
H36 H 0.1466 -0.0128 0.1495
C57 C -0.1926(3) -0.2926(5) 0.7278(5)
H37 H -0.2244 -0.2850 0.6911
C58 C 0.6473(7) 0.4012(7) 0.7867(9)
H38 H 0.6458 0.3793 0.8366
C59 C 0.2227(7) -0.0190(9) 0.3079(9)
H39 H 0.2392 -0.0437 0.2732
C60 C 0.0113(5) -0.0760(9) 0.7560(8)
H40 H -0.0199 -0.0537 0.7526
C61 C 0.6090(5) 0.4409(7) 0.6607(7)
H41 H 0.5813 0.4470 0.6149
C62 C 0.1048(5) -0.1358(8) 0.7629(8)
H42 H 0.1358 -0.1577 0.7631
C63 C 0.0595(7) -0.1745(8) 0.7657(8)
H43 H 0.0612 -0.2219 0.7681
C64 C 0.3255(4) 0.0135(6) 1.0712(6)
H44 H 0.3184 0.0116 1.0109
H45 H 0.3108 -0.0258 1.0919
H46 H 0.3620 0.0139 1.0938
Zn1A Zn -0.24912(4) -0.42984(5) 0.75751(6)
Zn1A_2 Zn 0.75088(4) 0.57016(5) 0.75751(6)
N4A N 0.1892(3) 0.1553(4) 0.7216(5)
N6A N 0.3089(3) -0.0163(4) 0.7660(6)
loop_
_geom_bond_atom_site_label_1
_geom_bond_atom_site_label_2
_geom_bond_site_symmetry_1
_geom_bond_site_symmetry_2
Zn1 N1 1_555 1_555
N1 C1 1_555 1_555
N2 Zn1 1_555 1_555
N3 Zn1 1_555 1_555
C1 C16 1_555 1_555
N4 C34 1_555 1_555
C2 N3 1_555 1_555
N5 Zn1 1_555 1_555
C3 C10 1_555 1_555
C4 C2 1_555 1_555
H1 C4 1_555 1_555
C5 C7 1_555 1_555
C6 N3 1_555 1_555
C7 C2 1_555 1_555
C8 N5 1_555 1_555
C9 N2 1_555 1_555
C10 C8 1_555 1_555
C11 C23 1_555 1_555
C12 H2 1_555 1_555
C13 N5 1_555 1_555
C14 N2 1_555 1_555
C15 H3 1_555 1_555
C16 C15 1_555 1_555
H4 C16 1_555 1_555
C17 C24 1_555 1_555
C18 N1 1_555 1_555
C19 C8 1_555 1_555
H5 C19 1_555 1_555
C20 C28 1_555 1_555
C21 C28 1_555 1_555
C22 C29 1_555 1_555
N6 C49 1_555 1_555
C23 C42 1_555 1_555
C24 C1 1_555 1_555
C25 C14 1_555 1_555
H6 C25 1_555 1_555
C26 C4 1_555 1_555
H7 C26 1_555 1_555
C27 C9 1_555 1_555
H8 C27 1_555 1_555
C29 C38 1_555 1_555
C30 C11 1_555 1_555
C31 C5 1_555 1_555
C32 C9 1_555 1_555
C33 C41 1_555 1_555
C34 H9 1_555 1_555
C35 H10 1_555 1_555
C36 C34 1_555 1_555
H11 C36 1_555 1_555
C37 C20 1_555 1_555
C38 C39 1_555 1_555
C39 C35 1_555 1_555
C40 C17 1_555 1_555
H12 C40 1_555 1_555
C41 H13 1_555 1_555
H14 C41 1_555 1_555
H15 C41 1_555 1_555
C42 H16 1_555 1_555
H17 C42 1_555 1_555
H18 C42 1_555 1_555
C43 C31 1_555 1_555
H19 C43 1_555 1_555
C44 C37 1_555 1_555
H20 C44 1_555 1_555
C45 C17 1_555 1_555
H21 C45 1_555 1_555
C46 H22 1_555 1_555
H23 C46 1_555 1_555
H24 C46 1_555 1_555
C47 C37 1_555 1_555
H25 C47 1_555 1_555
C48 C43 1_555 1_555
C49 H26 1_555 1_555
C50 C23 1_555 1_555
H27 C50 1_555 1_555
C51 C3 1_555 1_555
H28 C51 1_555 1_555
C52 C30 1_555 1_555
H29 C52 1_555 1_555
C53 C5 1_555 1_555
C54 N6 1_555 1_555
H30 C54 1_555 1_555
C55 C31 1_555 1_555
H31 C55 1_555 1_555
H32 C55 1_555 1_555
H33 C55 1_555 1_555
C56 C48 1_555 1_555
H34 C56 1_555 1_555
H35 C56 1_555 1_555
H36 C56 1_555 1_555
C57 N4 1_555 1_555
H37 C57 1_555 1_555
C58 C21 1_555 1_555
H38 C58 1_555 1_555
C59 C48 1_555 1_555
H39 C59 1_555 1_555
C60 C22 1_555 1_555
H40 C60 1_555 1_555
C61 C21 1_555 1_555
H41 C61 1_555 1_555
C62 C3 1_555 1_555
H42 C62 1_555 1_555
C63 C22 1_555 1_555
H43 C63 1_555 1_555
C64 C30 1_555 1_555
H44 C64 1_555 1_555
H45 C64 1_555 1_555
H46 C64 1_555 1_555
Zn1A N4 1_555 1_555
Zn1A_2 N6 1_555 1_555
N4A Zn1 1_555 1_555
N6A Zn1 1_555 1_555
C6 C24 1_555 1_555
C6 C26 1_555 1_555
C7 C13 1_555 1_555
C10 C14 1_555 1_555
C11 C32 1_555 1_555
C12 C13 1_555 1_555
C12 C19 1_555 1_555
C15 C18 1_555 1_555
C18 C32 1_555 1_555
C25 C27 1_555 1_555
C33 C50 1_555 1_555
C33 C52 1_555 1_555
C35 C57 1_555 1_555
C36 C39 1_555 1_555
C40 C44 1_555 1_555
C45 C47 1_555 1_555
C46 C53 1_555 1_555
C49 C58 1_555 1_555
C51 C60 1_555 1_555
C53 C59 1_555 1_555
C54 C61 1_555 1_555
C62 C63 1_555 1_555

#END
