
#######################################################################
#
#                 Cambridge Crystallographic Data Centre
#                                CCDC 
#
#######################################################################
#
# If this CIF has been generated from an entry in the Cambridge 
# Structural Database, then it will include bibliographic, chemical, 
# crystal, experimental, refinement or atomic coordinate data resulting 
# from the CCDC's data processing and validation procedures.
#
#######################################################################

data_TAVTOA
_symmetry_cell_setting           triclinic
_symmetry_space_group_name_H-M   'P -1'
_symmetry_Int_Tables_number      2
_space_group_name_Hall           '-P 1'
loop_
_symmetry_equiv_pos_site_id
_symmetry_equiv_pos_as_xyz
1 x,y,z
2 -x,-y,-z
_cell_length_a                   9.2017(4)
_cell_length_b                   9.3397(4)
_cell_length_c                   12.0119(5)
_cell_angle_alpha                75.1230(10)
_cell_angle_beta                 71.8870(10)
_cell_angle_gamma                61.7010(10)
_cell_volume                     856.489
loop_
_atom_site_label
_atom_site_type_symbol
_atom_site_fract_x
_atom_site_fract_y
_atom_site_fract_z
Cu1 Cu 0.46560(2) 0.20044(2) 0.192319(17)
P1 P 0.72052(6) 0.09404(5) -0.05035(4)
P2 P 0.52079(5) 0.50103(5) -0.32401(4)
O1 O 0.62957(15) 0.20211(14) 0.04725(10)
O2 O 0.64946(19) -0.02786(16) -0.04263(12)
O3 O 0.91157(16) -0.00125(17) -0.05895(12)
H1 H 0.9359 0.0122 -0.0017
O4 O 0.54145(17) 0.61773(15) -0.27264(11)
O5 O 0.68478(14) 0.42353(14) -0.42380(10)
H2 H 0.6557 0.4319 -0.4858
O6 O 0.36631(14) 0.57121(15) -0.37514(10)
N1 N 0.61766(18) -0.00196(17) 0.28528(12)
N2 N 0.29753(17) 0.13274(17) 0.30493(12)
N3 N 0.25157(17) 0.37151(17) 0.14067(12)
C1 C 0.7853(2) -0.0618(2) 0.27099(15)
C2 C 0.8746(2) -0.1980(2) 0.34290(16)
C3 C 0.7886(2) -0.2743(2) 0.43189(15)
C4 C 0.6147(2) -0.2116(2) 0.44808(15)
C5 C 0.5333(2) -0.07669(19) 0.37339(14)
C6 C 0.3487(2) -0.00112(19) 0.38287(14)
C7 C 0.2345(2) -0.0572(2) 0.46180(14)
C8 C 0.0631(2) 0.02819(19) 0.45819(14)
C9 C 0.0137(2) 0.1675(2) 0.37418(15)
C10 C 0.1354(2) 0.21661(19) 0.29868(14)
C11 C 0.1069(2) 0.3616(2) 0.20687(14)
C12 C -0.0511(2) 0.4821(2) 0.19230(15)
C13 C -0.0597(2) 0.6163(2) 0.10645(15)
C14 C 0.0878(2) 0.6267(2) 0.03960(15)
C15 C 0.2412(2) 0.5021(2) 0.05978(15)
C16 C 0.7029(2) 0.2261(2) -0.18803(14)
C17 C 0.5259(2) 0.3278(2) -0.21280(14)
H3 H 0.833(3) -0.010(3) 0.213(2)
H4 H 0.988(3) -0.239(3) 0.332(2)
H5 H 0.847(3) -0.365(3) 0.480(2)
H6 H 0.550(3) -0.254(3) 0.508(2)
H7 H 0.274(3) -0.148(3) 0.516(2)
H8 H -0.097(3) 0.225(3) 0.369(2)
H9 H -0.145(3) 0.473(3) 0.240(2)
H10 H -0.162(3) 0.695(3) 0.095(2)
H11 H 0.083(3) 0.716(3) -0.017(2)
H12 H 0.338(3) 0.510(3) 0.020(2)
H13 H 0.777(3) 0.160(3) -0.249(2)
H14 H 0.746(3) 0.294(3) -0.182(2)
H15 H 0.438(3) 0.370(3) -0.1410(19)
H16 H 0.493(3) 0.264(3) -0.237(2)
Cu1A Cu 0.53440(2) 0.79956(2) -0.192319(17)
Cu1A_2 Cu -0.46560(2) -0.20044(2) 0.807681(17)
P1A P 0.27948(6) 0.90596(5) 0.05035(4)
P2A P 0.47921(5) 0.49897(5) 0.32401(4)
O1A O 0.37043(15) 0.79789(14) -0.04725(10)
O2A O 0.35054(19) 1.02786(16) 0.04263(12)
O3A O 0.08843(16) 1.00125(17) 0.05895(12)
H1A H 0.0641 0.9878 0.0017
O4A O 0.45855(17) 0.38227(15) 0.27264(11)
O5A O 0.31522(14) 0.57647(14) 0.42380(10)
H2A H 0.3443 0.5681 0.4858
O6A O 0.63369(14) 0.42879(15) 0.37514(10)
N1A N -0.61766(18) 0.00196(17) 0.71472(12)
N1A_2 N 0.38234(18) 1.00196(17) -0.28528(12)
N2A N -0.29753(17) -0.13274(17) 0.69507(12)
N2A_2 N 0.70247(17) 0.86726(17) -0.30493(12)
N3A N -0.25157(17) -0.37151(17) 0.85933(12)
N3A_2 N 0.74843(17) 0.62849(17) -0.14067(12)
C1A C -0.7853(2) 0.0618(2) 0.72901(15)
C2A C -0.8746(2) 0.1980(2) 0.65710(16)
C3A C -0.7886(2) 0.2743(2) 0.56811(15)
C4A C -0.6147(2) 0.2116(2) 0.55192(15)
C5A C -0.5333(2) 0.07669(19) 0.62661(14)
C6A C -0.3487(2) 0.00112(19) 0.61713(14)
C7A C -0.2345(2) 0.0572(2) 0.53820(14)
C8A C -0.0631(2) -0.02819(19) 0.54181(14)
C9A C -0.0137(2) -0.1675(2) 0.62582(15)
C10A C -0.1354(2) -0.21661(19) 0.70132(14)
C11A C -0.1069(2) -0.3616(2) 0.79313(14)
C12A C 0.0511(2) -0.4821(2) 0.80770(15)
C13A C 0.0597(2) -0.6163(2) 0.89355(15)
C14A C -0.0878(2) -0.6267(2) 0.96040(15)
C15A C -0.2412(2) -0.5021(2) 0.94022(15)
C16A C 0.2971(2) 0.7739(2) 0.18803(14)
C17A C 0.4741(2) 0.6722(2) 0.21280(14)
H3A H -0.833(3) 0.010(3) 0.787(2)
H4A H -0.988(3) 0.239(3) 0.668(2)
H5A H -0.847(3) 0.365(3) 0.520(2)
H6A H -0.550(3) 0.254(3) 0.492(2)
H7A H -0.274(3) 0.148(3) 0.484(2)
H8A H 0.097(3) -0.225(3) 0.631(2)
H9A H 0.145(3) -0.473(3) 0.760(2)
H10A H 0.162(3) -0.695(3) 0.905(2)
H11A H -0.083(3) -0.716(3) 1.017(2)
H12A H -0.338(3) -0.510(3) 0.980(2)
H13A H 0.223(3) 0.840(3) 0.249(2)
H14A H 0.254(3) 0.706(3) 0.182(2)
H15A H 0.562(3) 0.630(3) 0.1410(19)
H16A H 0.507(3) 0.736(3) 0.237(2)
loop_
_geom_bond_atom_site_label_1
_geom_bond_atom_site_label_2
_geom_bond_site_symmetry_1
_geom_bond_site_symmetry_2
Cu1 O1 1_555 1_555
P1 O1 1_555 1_555
P2 O4 1_555 1_555
O2 P1 1_555 1_555
O3 P1 1_555 1_555
H1 O3 1_555 1_555
O4 Cu1A 1_555 1_555
O5 P2 1_555 1_555
H2 O5 1_555 1_555
O6 P2 1_555 1_555
N1 Cu1 1_555 1_555
N2 Cu1 1_555 1_555
N3 Cu1 1_555 1_555
C1 N1 1_555 1_555
C2 C1 1_555 1_555
C3 C2 1_555 1_555
C4 C3 1_555 1_555
C5 N1 1_555 1_555
C6 N2 1_555 1_555
C7 C6 1_555 1_555
C8 C7 1_555 1_555
C9 C8 1_555 1_555
C10 N2 1_555 1_555
C11 N3 1_555 1_555
C12 C11 1_555 1_555
C13 C12 1_555 1_555
C14 C13 1_555 1_555
C15 N3 1_555 1_555
C16 P1 1_555 1_555
C17 P2 1_555 1_555
H3 C1 1_555 1_555
H4 C2 1_555 1_555
H5 C3 1_555 1_555
H6 C4 1_555 1_555
H7 C7 1_555 1_555
H8 C9 1_555 1_555
H9 C12 1_555 1_555
H10 C13 1_555 1_555
H11 C14 1_555 1_555
H12 C15 1_555 1_555
H13 C16 1_555 1_555
H14 C16 1_555 1_555
H15 C17 1_555 1_555
H16 C17 1_555 1_555
Cu1A O1A 1_555 1_555
Cu1A_2 N1A 1_555 1_555
P1A O1A 1_555 1_555
P2A O4A 1_555 1_555
O2A P1A 1_555 1_555
O3A P1A 1_555 1_555
H1A O3A 1_555 1_555
O4A Cu1 1_555 1_555
O5A P2A 1_555 1_555
H2A O5A 1_555 1_555
O6A P2A 1_555 1_555
N1A C1A 1_555 1_555
N1A_2 Cu1A 1_555 1_555
N2A Cu1A_2 1_555 1_555
N2A_2 Cu1A 1_555 1_555
N3A Cu1A_2 1_555 1_555
N3A_2 Cu1A 1_555 1_555
C1A C2A 1_555 1_555
C2A C3A 1_555 1_555
C3A C4A 1_555 1_555
C4A C5A 1_555 1_555
C5A N1A 1_555 1_555
C6A N2A 1_555 1_555
C7A C6A 1_555 1_555
C8A C8 1_555 1_555
C9A C8A 1_555 1_555
C10A N2A 1_555 1_555
C11A N3A 1_555 1_555
C12A C11A 1_555 1_555
C13A C12A 1_555 1_555
C14A C13A 1_555 1_555
C15A N3A 1_555 1_555
C16A P1A 1_555 1_555
C17A P2A 1_555 1_555
H3A C1A 1_555 1_555
H4A C2A 1_555 1_555
H5A C3A 1_555 1_555
H6A C4A 1_555 1_555
H7A C7A 1_555 1_555
H8A C9A 1_555 1_555
H9A C12A 1_555 1_555
H10A C13A 1_555 1_555
H11A C14A 1_555 1_555
H12A C15A 1_555 1_555
H13A C16A 1_555 1_555
H14A C16A 1_555 1_555
H15A C17A 1_555 1_555
H16A C17A 1_555 1_555
C4 C5 1_555 1_555
C5 C6 1_555 1_555
C9 C10 1_555 1_555
C10 C11 1_555 1_555
C14 C15 1_555 1_555
C16 C17 1_555 1_555
C5A C6A 1_555 1_555
C7A C8A 1_555 1_555
C9A C10A 1_555 1_555
C10A C11A 1_555 1_555
C14A C15A 1_555 1_555
C16A C17A 1_555 1_555

#END
