
#######################################################################
#
#                 Cambridge Crystallographic Data Centre
#                                CCDC 
#
#######################################################################
#
# If this CIF has been generated from an entry in the Cambridge 
# Structural Database, then it will include bibliographic, chemical, 
# crystal, experimental, refinement or atomic coordinate data resulting 
# from the CCDC's data processing and validation procedures.
#
#######################################################################

data_TAVTUG
_symmetry_cell_setting           triclinic
_symmetry_space_group_name_H-M   'P -1'
_symmetry_Int_Tables_number      2
_space_group_name_Hall           '-P 1'
loop_
_symmetry_equiv_pos_site_id
_symmetry_equiv_pos_as_xyz
1 x,y,z
2 -x,-y,-z
_cell_length_a                   9.4495(8)
_cell_length_b                   10.3887(9)
_cell_length_c                   11.8824(10)
_cell_angle_alpha                115.4120(10)
_cell_angle_beta                 99.167(2)
_cell_angle_gamma                94.807(2)
_cell_volume                     1024.9
loop_
_atom_site_label
_atom_site_type_symbol
_atom_site_fract_x
_atom_site_fract_y
_atom_site_fract_z
Cu1 Cu 0.14894(3) 0.84168(3) 0.39749(3)
P1 P 0.01633(7) 1.09471(7) 0.35400(6)
P2 P -0.28732(7) 0.96427(7) -0.01531(6)
O1 O 0.0433(2) 0.9424(2) 0.32083(19)
O2 O 0.1471(2) 1.1842(2) 0.33768(19)
O3 O -0.3928(2) 0.8668(2) 0.0183(2)
O4 O -0.2600(2) 0.8788(2) -0.14669(18)
O5 O -0.3430(2) 1.1041(2) 0.00711(19)
O6 O -0.0037(2) 1.1816(2) 0.48723(18)
N1 N 0.3074(2) 0.9971(2) 0.5463(2)
N2 N 0.2827(2) 0.7216(2) 0.4263(2)
N3 N 0.0567(2) 0.6453(2) 0.2493(2)
C1 C 0.3126(3) 1.1406(3) 0.6031(3)
H1 H 0.2393 1.1806 0.5705
C2 C 0.4213(3) 1.2331(3) 0.7079(3)
H2 H 0.4230 1.3346 0.7454
C3 C 0.5270(3) 1.1753(3) 0.7569(3)
H3 H 0.6018 1.2367 0.8290
C4 C 0.5228(3) 1.0263(3) 0.6997(3)
H4 H 0.5942 0.9843 0.7319
C5 C 0.4119(3) 0.9408(3) 0.5948(2)
C6 C 0.3945(3) 0.7811(3) 0.5264(2)
C7 C 0.4827(3) 0.6972(3) 0.5599(2)
H5 H 0.5601 0.7404 0.6333
C8 C 0.4548(3) 0.5470(3) 0.4827(2)
C9 C 0.3411(3) 0.4884(3) 0.3748(3)
H6 H 0.3236 0.3878 0.3185
C10 C 0.2536(3) 0.5788(3) 0.3505(2)
C11 C 0.1227(3) 0.5343(3) 0.2470(2)
C12 C 0.0669(3) 0.3924(3) 0.1589(3)
H7 H 0.1168 0.3161 0.1571
C13 C -0.0642(3) 0.3641(3) 0.0729(3)
H8 H -0.1053 0.2677 0.0115
C14 C -0.1339(3) 0.4777(3) 0.0778(3)
H9 H -0.2245 0.4603 0.0212
C15 C -0.0695(3) 0.6173(3) 0.1665(3)
H10 H -0.1162 0.6956 0.1687
C16 C -0.1403(3) 1.0804(3) 0.2393(2)
H11 H -0.2256 1.0269 0.2488
H12 H -0.1601 1.1787 0.2575
C17 C -0.1221(3) 1.0035(3) 0.1014(2)
H13 H -0.0870 0.9118 0.0874
H14 H -0.0469 1.0649 0.0884
H15 H 0.176(5) 1.153(5) 0.271(5)
H16 H -0.478(6) 0.880(6) 0.009(5)
Cu1A Cu -0.14894(3) 1.15832(3) 0.60251(3)
Cu1A_2 Cu 0.85106(3) 0.15832(3) 0.60251(3)
P1A P -0.01633(7) 0.90529(7) 0.64600(6)
P2A P 0.28732(7) 1.03573(7) 1.01531(6)
O1A O -0.0433(2) 1.0576(2) 0.67917(19)
O2A O -0.1471(2) 0.8158(2) 0.66232(19)
O3A O 0.3928(2) 1.1332(2) 0.9817(2)
O4A O 0.2600(2) 1.1212(2) 1.14669(18)
O5A O 0.3430(2) 0.8959(2) 0.99289(19)
O6A O 0.0037(2) 0.8184(2) 0.51277(18)
N1A N 0.6926(2) 0.0029(2) 0.4537(2)
N1A_2 N -0.3074(2) 1.0029(2) 0.4537(2)
N2A N 0.7173(2) 0.2784(2) 0.5737(2)
N2A_2 N -0.2827(2) 1.2784(2) 0.5737(2)
N3A N 0.9433(2) 0.3547(2) 0.7507(2)
N3A_2 N -0.0567(2) 1.3547(2) 0.7507(2)
C1A C 0.6874(3) -0.1406(3) 0.3969(3)
H1A H 0.7607 -0.1806 0.4295
C2A C 0.5787(3) -0.2331(3) 0.2921(3)
H2A H 0.5770 -0.3346 0.2546
C3A C 0.4730(3) -0.1753(3) 0.2431(3)
H3A H 0.3982 -0.2367 0.1710
C4A C 0.4772(3) -0.0263(3) 0.3003(3)
H4A H 0.4058 0.0157 0.2681
C5A C 0.5881(3) 0.0592(3) 0.4052(2)
C6A C 0.6055(3) 0.2189(3) 0.4736(2)
C7A C 0.5173(3) 0.3028(3) 0.4401(2)
H5A H 0.4399 0.2596 0.3667
C8A C 0.5452(3) 0.4530(3) 0.5173(2)
C9A C 0.6589(3) 0.5116(3) 0.6252(3)
H6A H 0.6764 0.6122 0.6815
C10A C 0.7464(3) 0.4212(3) 0.6495(2)
C11A C 0.8773(3) 0.4657(3) 0.7530(2)
C12A C 0.9331(3) 0.6076(3) 0.8411(3)
H7A H 0.8832 0.6839 0.8429
C13A C 1.0642(3) 0.6359(3) 0.9271(3)
H8A H 1.1053 0.7323 0.9885
C14A C 1.1339(3) 0.5223(3) 0.9222(3)
H9A H 1.2245 0.5397 0.9788
C15A C 1.0695(3) 0.3827(3) 0.8335(3)
H10A H 1.1162 0.3044 0.8313
C16A C 0.1403(3) 0.9196(3) 0.7607(2)
H11A H 0.2256 0.9731 0.7512
H12A H 0.1601 0.8213 0.7425
C17A C 0.1221(3) 0.9965(3) 0.8986(2)
H13A H 0.0870 1.0882 0.9126
H14A H 0.0469 0.9351 0.9116
H15A H -0.176(5) 0.847(5) 0.729(5)
H16A H 0.478(6) 1.120(6) 0.991(5)
O7 O 0.5607(3) 0.5616(3) 0.9288(3)
H17 H 0.589(4) 0.649(2) 0.967(4)
H18 H 0.474(4) 0.551(8) 0.932(11)
O8 O 0.6425(3) 0.3697(3) 0.2313(2)
H20 H 0.668(7) 0.309(6) 0.169(4)
H22 H 0.717(6) 0.422(8) 0.285(6)
O9 O 0.8965(3) 0.5194(3) 0.4146(3)
H19 H 0.916(6) 0.608(2) 0.443(5)
H21 H 0.911(11) 0.496(8) 0.473(6)
loop_
_geom_bond_atom_site_label_1
_geom_bond_atom_site_label_2
_geom_bond_site_symmetry_1
_geom_bond_site_symmetry_2
Cu1 O1 1_555 1_555
P1 O1 1_555 1_555
P2 O3 1_555 1_555
O2 P1 1_555 1_555
O3 H16 1_555 1_555
O4 P2 1_555 1_555
O5 P2 1_555 1_555
O6 P1 1_555 1_555
O7 H17 1_555 1_555
O8 H20 1_555 1_555
O9 H19 1_555 1_555
N1 Cu1 1_555 1_555
N2 Cu1 1_555 1_555
N3 Cu1 1_555 1_555
C1 N1 1_555 1_555
H1 C1 1_555 1_555
C2 C1 1_555 1_555
H2 C2 1_555 1_555
C3 C2 1_555 1_555
H3 C3 1_555 1_555
C4 C3 1_555 1_555
H4 C4 1_555 1_555
C5 N1 1_555 1_555
C6 N2 1_555 1_555
C7 C6 1_555 1_555
H5 C7 1_555 1_555
C8 C7 1_555 1_555
C9 C8 1_555 1_555
H6 C9 1_555 1_555
C10 N2 1_555 1_555
C11 N3 1_555 1_555
C12 C11 1_555 1_555
H7 C12 1_555 1_555
C13 C12 1_555 1_555
H8 C13 1_555 1_555
C14 C13 1_555 1_555
H9 C14 1_555 1_555
C15 N3 1_555 1_555
H10 C15 1_555 1_555
C16 P1 1_555 1_555
H11 C16 1_555 1_555
H12 C16 1_555 1_555
C17 P2 1_555 1_555
H13 C17 1_555 1_555
H14 C17 1_555 1_555
H15 O2 1_555 1_555
H18 O7 1_555 1_555
H21 O9 1_555 1_555
H22 O8 1_555 1_555
Cu1A O6 1_555 1_555
Cu1A_2 N1A 1_555 1_555
P1A O1A 1_555 1_555
P2A O3A 1_555 1_555
O1A Cu1A 1_555 1_555
O2A P1A 1_555 1_555
O3A H16A 1_555 1_555
O4A P2A 1_555 1_555
O5A P2A 1_555 1_555
O6A Cu1 1_555 1_555
N1A C1A 1_555 1_555
N1A_2 Cu1A 1_555 1_555
N2A Cu1A_2 1_555 1_555
N2A_2 Cu1A 1_555 1_555
N3A Cu1A_2 1_555 1_555
N3A_2 Cu1A 1_555 1_555
C1A H1A 1_555 1_555
C2A C1A 1_555 1_555
H2A C2A 1_555 1_555
C3A C2A 1_555 1_555
H3A C3A 1_555 1_555
C4A C3A 1_555 1_555
H4A C4A 1_555 1_555
C5A N1A 1_555 1_555
C6A N2A 1_555 1_555
C7A C6A 1_555 1_555
H5A C7A 1_555 1_555
C8A C8 1_555 1_555
C9A C8A 1_555 1_555
H6A C9A 1_555 1_555
C10A N2A 1_555 1_555
C11A N3A 1_555 1_555
C12A C11A 1_555 1_555
H7A C12A 1_555 1_555
C13A C12A 1_555 1_555
H8A C13A 1_555 1_555
C14A C13A 1_555 1_555
H9A C14A 1_555 1_555
C15A N3A 1_555 1_555
H10A C15A 1_555 1_555
C16A P1A 1_555 1_555
H11A C16A 1_555 1_555
H12A C16A 1_555 1_555
C17A P2A 1_555 1_555
H13A C17A 1_555 1_555
H14A C17A 1_555 1_555
H15A O2A 1_555 1_555
C4 C5 1_555 1_555
C5 C6 1_555 1_555
C9 C10 1_555 1_555
C10 C11 1_555 1_555
C14 C15 1_555 1_555
C16 C17 1_555 1_555
P1A O6A 1_555 1_555
C4A C5A 1_555 1_555
C5A C6A 1_555 1_555
C7A C8A 1_555 1_555
C9A C10A 1_555 1_555
C10A C11A 1_555 1_555
C14A C15A 1_555 1_555
C16A C17A 1_555 1_555

#END
