
#######################################################################
#
#                 Cambridge Crystallographic Data Centre
#                                CCDC 
#
#######################################################################
#
# If this CIF has been generated from an entry in the Cambridge 
# Structural Database, then it will include bibliographic, chemical, 
# crystal, experimental, refinement or atomic coordinate data resulting 
# from the CCDC's data processing and validation procedures.
#
#######################################################################

data_TAVTUF
_symmetry_cell_setting           rhombohedral
_symmetry_space_group_name_H-M   'R -3'
_symmetry_Int_Tables_number      148
_space_group_name_Hall           '-R 3'
loop_
_symmetry_equiv_pos_site_id
_symmetry_equiv_pos_as_xyz
1 x,y,z
2 -y,x-y,z
3 -x+y,-x,z
4 1/3+x,2/3+y,2/3+z
5 1/3-y,2/3+x-y,2/3+z
6 1/3-x+y,2/3-x,2/3+z
7 2/3+x,1/3+y,1/3+z
8 2/3-y,1/3+x-y,1/3+z
9 2/3-x+y,1/3-x,1/3+z
10 -x,-y,-z
11 y,-x+y,-z
12 x-y,x,-z
13 2/3-x,1/3-y,1/3-z
14 2/3+y,1/3-x+y,1/3-z
15 2/3+x-y,1/3+x,1/3-z
16 1/3-x,2/3-y,2/3-z
17 1/3+y,2/3-x+y,2/3-z
18 1/3+x-y,2/3+x,2/3-z
_cell_length_a                   10.254(4)
_cell_length_b                   10.254(4)
_cell_length_c                   35.03(1)
_cell_angle_alpha                90
_cell_angle_beta                 90
_cell_angle_gamma                120
_cell_volume                     3189.76
loop_
_atom_site_label
_atom_site_type_symbol
_atom_site_fract_x
_atom_site_fract_y
_atom_site_fract_z
Ru1 Ru 0.0000 0.0000 0.0000
Cl1 Cl 0.0099(2) -0.1827(2) -0.03959(5)
Cl1A Cl 0.1827(2) 0.1926(3) -0.03959(5)
Cl1B Cl -0.1926(3) -0.0099(2) -0.03959(5)
Cl1I Cl -0.0099(2) 0.1827(2) 0.03959(5)
Cl1J Cl -0.1827(2) -0.1926(3) 0.03959(5)
Cl1K Cl 0.1926(3) 0.0099(2) 0.03959(5)
K1 K 0.0000 0.0000 0.14371(9)
N1 N 0.0000 0.0000 0.2320(3)
N2 N 0.3940(6) 0.0532(7) 0.2322(2)
C1 C 0.1319(7) -0.0137(8) 0.2459(2)
C2 C 0.2668(8) 0.0718(8) 0.2197(2)
H1 H 0.4049 0.0601 0.2569
H2 H 0.3838 -0.0321 0.2246
H3 H 0.1580 0.0267 0.2710
H4 H 0.1044 -0.1169 0.2464
H5 H 0.2969 0.1758 0.2202
C1A C 0.0137(8) 0.1456(11) 0.2459(2)
C2A C -0.0718(8) 0.1950(11) 0.2197(2)
N2A N -0.0532(7) 0.3408(9) 0.2322(2)
H1A H -0.0601 0.3448 0.2569
H2A H 0.0321 0.4159 0.2246
H5A H -0.1758 0.1211 0.2202
H3A H -0.0267 0.1313 0.2710
H4A H 0.1169 0.2213 0.2464
C1B C -0.1456(11) -0.1319(7) 0.2459(2)
C2B C -0.1950(11) -0.2668(8) 0.2197(2)
N2B N -0.3408(9) -0.3940(6) 0.2322(2)
H1B H -0.3448 -0.4049 0.2569
H2B H -0.4159 -0.3838 0.2246
H5B H -0.1211 -0.2969 0.2202
H3B H -0.1313 -0.1580 0.2710
H4B H -0.2213 -0.1044 0.2464
N1L N 0.6667 0.3333 0.1013(3)
N2L N 0.2727(6) 0.2801(7) 0.1011(2)
C1L C 0.5348(7) 0.3470(8) 0.0874(2)
C2L C 0.3999(8) 0.2615(8) 0.1136(2)
H1L H 0.2618 0.2732 0.0764
H2L H 0.2829 0.3654 0.1087
H3L H 0.5087 0.3066 0.0623
H4L H 0.5623 0.4502 0.0869
H5L H 0.3698 0.1575 0.1131
C1M C 0.6530(8) 0.1877(11) 0.0874(2)
C2M C 0.7385(8) 0.1383(11) 0.1136(2)
N2M N 0.7199(7) -0.0075(9) 0.1011(2)
H1M H 0.7268 -0.0115 0.0764
H2M H 0.6346 -0.0826 0.1087
H5M H 0.8425 0.2122 0.1131
H3M H 0.6934 0.2020 0.0623
H4M H 0.5498 0.1120 0.0869
C1N C 0.8123(11) 0.4652(7) 0.0874(2)
C2N C 0.8617(11) 0.6001(8) 0.1136(2)
N2N N 1.0075(9) 0.7273(6) 0.1011(2)
H1N H 1.0115 0.7382 0.0764
H2N H 1.0826 0.7171 0.1087
H5N H 0.7878 0.6302 0.1131
H3N H 0.7980 0.4913 0.0623
H4N H 0.8880 0.4377 0.0869
K1L K 0.6667 0.3333 0.18962(9)
N2M_2 N -0.2801(7) -0.0075(9) 0.1011(2)
N2N_2 N 0.0075(9) -0.2727(6) 0.1011(2)
K1L_2 K -0.3333 0.3333 0.18962(9)
K1L_3 K -0.3333 -0.6667 0.18962(9)
K1_2 K 1.0000 0.0000 0.14371(9)
K1_3 K 1.0000 1.0000 0.14371(9)
N2A_2 N 0.9468(7) 0.3408(9) 0.2322(2)
N2B_2 N 0.6592(9) 0.6060(6) 0.2322(2)
H1M_2 H -0.2732 -0.0115 0.0764
H2M_2 H -0.3654 -0.0826 0.1087
H1N_2 H 0.0115 -0.2618 0.0764
H2N_2 H 0.0826 -0.2829 0.1087
H1A_2 H 0.9399 0.3448 0.2569
H2A_2 H 1.0321 0.4159 0.2246
H1B_2 H 0.6552 0.5951 0.2569
H2B_2 H 0.5841 0.6162 0.2246
O2 O 0.3333 0.3333 0.010(2)
O3 O 0.3727(7) 0.4349(7) 0.0225(2)
Ru2? Ru 0.3333 0.3333 0.1667
Cl2? Cl 0.1534(2) 0.3531(2) 0.20481(7)
O1? O 0.3333 0.3333 0.0456(6)
H6? H 0.2392 0.0344 0.1945
loop_
_geom_bond_atom_site_label_1
_geom_bond_atom_site_label_2
_geom_bond_site_symmetry_1
_geom_bond_site_symmetry_2
Ru1 Cl1 1_555 1_555
K1 N1 1_555 1_555
N1 C1 1_555 1_555
N2 C2 1_555 1_555
C1 C2 1_555 1_555
C2 H5 1_555 1_555
H1 N2 1_555 1_555
H2 N2 1_555 1_555
H3 C1 1_555 1_555
H4 C1 1_555 1_555
C1A N1 1_555 1_555
C2A C1A 1_555 1_555
N2A C2A 1_555 1_555
H1A N2A 1_555 1_555
H2A N2A 1_555 1_555
H5A C2A 1_555 1_555
H3A C1A 1_555 1_555
H4A C1A 1_555 1_555
C1B N1 1_555 1_555
C2B C1B 1_555 1_555
N2B C2B 1_555 1_555
H1B N2B 1_555 1_555
H2B N2B 1_555 1_555
H5B C2B 1_555 1_555
H3B C1B 1_555 1_555
H4B C1B 1_555 1_555
Cl1A Ru1 1_555 1_555
Cl1B Ru1 1_555 1_555
Cl1I Ru1 1_555 1_555
Cl1J Ru1 1_555 1_555
Cl1K Ru1 1_555 1_555
N1L C1L 1_555 1_555
N2L K1 1_555 1_555
C1L C2L 1_555 1_555
C2L N2L 1_555 1_555
H1L N2L 1_555 1_555
H2L N2L 1_555 1_555
H3L C1L 1_555 1_555
H4L C1L 1_555 1_555
H5L C2L 1_555 1_555
C1M N1L 1_555 1_555
C2M C1M 1_555 1_555
N2M C2M 1_555 1_555
H1M N2M 1_555 1_555
H2M N2M 1_555 1_555
H5M C2M 1_555 1_555
H3M C1M 1_555 1_555
H4M C1M 1_555 1_555
C1N N1L 1_555 1_555
C2N C1N 1_555 1_555
N2N C2N 1_555 1_555
H1N N2N 1_555 1_555
H2N N2N 1_555 1_555
H5N C2N 1_555 1_555
H3N C1N 1_555 1_555
H4N C1N 1_555 1_555
K1L N2 1_555 1_555
N2M_2 K1 1_555 1_555
N2N_2 K1 1_555 1_555
K1L_2 N2A 1_555 1_555
K1L_3 N2B 1_555 1_555
K1_2 N2M 1_555 1_555
K1_3 N2N 1_555 1_555
N2A_2 K1L 1_555 1_555
N2B_2 K1L 1_555 1_555
H1M_2 N2M_2 1_555 1_555
H2M_2 N2M_2 1_555 1_555
H1N_2 N2N_2 1_555 1_555
H2N_2 N2N_2 1_555 1_555
H1A_2 N2A_2 1_555 1_555
H2A_2 N2A_2 1_555 1_555
H1B_2 N2B_2 1_555 1_555
H2B_2 N2B_2 1_555 1_555
N1L K1L 1_555 1_555

#END
