
#######################################################################
#
#                 Cambridge Crystallographic Data Centre
#                                CCDC 
#
#######################################################################
#
# If this CIF has been generated from an entry in the Cambridge 
# Structural Database, then it will include bibliographic, chemical, 
# crystal, experimental, refinement or atomic coordinate data resulting 
# from the CCDC's data processing and validation procedures.
#
#######################################################################

data_TAWDIE
_symmetry_cell_setting           orthorhombic
_symmetry_space_group_name_H-M   'P 21 21 21'
_symmetry_Int_Tables_number      19
_space_group_name_Hall           'P 2ac 2ab'
loop_
_symmetry_equiv_pos_site_id
_symmetry_equiv_pos_as_xyz
1 x,y,z
2 1/2-x,-y,1/2+z
3 1/2+x,1/2-y,-z
4 -x,1/2+y,1/2-z
_cell_length_a                   7.620(3)
_cell_length_b                   13.589(2)
_cell_length_c                   20.339(3)
_cell_angle_alpha                90
_cell_angle_beta                 90
_cell_angle_gamma                90
_cell_volume                     2106.07
loop_
_atom_site_label
_atom_site_type_symbol
_atom_site_fract_x
_atom_site_fract_y
_atom_site_fract_z
Mo1 Mo 0.2059(1) 0.7562(1) 0.9903(1)
O1 O 0.2792(6) 0.8379(3) 0.9325(2)
O2 O -0.0163(4) 0.7433(3) 0.9728(2)
O3 O 0.2843(6) 0.6331(3) 0.9575(2)
O4 O 0.1807(6) 0.8397(3) 1.0643(2)
N1 N 0.1911(8) 0.6483(2) 1.0792(2)
C1 C 0.1311(9) 0.8056(4) 1.1278(3)
C2 C 0.2196(8) 0.7058(4) 1.1404(2)
C3 C 0.3104(7) 0.5435(4) 0.9928(3)
C4 C 0.3209(8) 0.5693(4) 1.0671(2)
C5 C 0.1593(5) 0.6563(3) 1.2029(2)
C6 C -0.0168(5) 0.6348(4) 1.2136(2)
C7 C -0.0677(5) 0.5851(4) 1.2702(2)
C8 C 0.0575(6) 0.5568(3) 1.3161(2)
C9 C 0.2336(6) 0.5783(4) 1.3055(2)
C10 C 0.2845(4) 0.6280(3) 1.2489(2)
C11 C 0.1700(5) 0.4692(3) 0.9742(2)
C12 C -0.0007(5) 0.4983(2) 0.9598(2)
C13 C -0.1256(4) 0.4284(3) 0.9425(2)
C14 C -0.0800(6) 0.3294(3) 0.9397(2)
C15 C 0.0906(7) 0.3004(2) 0.9541(3)
C16 C 0.2156(5) 0.3703(3) 0.9714(2)
C17 C 0.3177(6) 0.4814(3) 1.1135(2)
C18 C 0.1629(5) 0.4349(4) 1.1320(2)
C19 C 0.1670(6) 0.3586(4) 1.1776(3)
C20 C 0.3260(8) 0.3288(3) 1.2046(2)
C21 C 0.4808(6) 0.3753(4) 1.1860(3)
C22 C 0.4766(5) 0.4516(4) 1.1405(3)
H1 H 0.0820(8) 0.6212(3) 1.0805(2)
H2 H 0.4242(7) 0.5164(4) 0.9796(3)
H3 H 0.4361(8) 0.6000(4) 1.0733(2)
H4 H 0.0046(9) 0.7986(4) 1.1302(3)
H5 H 0.1675(9) 0.8526(4) 1.1610(3)
H6 H 0.3460(8) 0.7177(4) 1.1444(2)
H7 H -0.1006(5) 0.6537(4) 1.1828(2)
H8 H -0.1855(5) 0.5707(6) 1.2773(3)
H9 H 0.0235(9) 0.5236(5) 1.3540(2)
H10 H 0.3174(7) 0.5594(5) 1.3363(3)
H11 H 0.4023(4) 0.6424(5) 1.2418(3)
H12 H -0.0312(5) 0.5645(2) 0.9616(2)
H13 H -0.2398(5) 0.4478(5) 0.9329(3)
H14 H -0.1636(7) 0.2826(4) 0.9282(3)
H15 H 0.1211(9) 0.2342(2) 0.9523(4)
H16 H 0.3297(5) 0.3508(4) 0.9810(3)
H17 H 0.0565(5) 0.4548(4) 1.1140(2)
H18 H 0.0635(7) 0.3275(5) 1.1900(4)
H19 H 0.3287(11) 0.2778(4) 1.2350(3)
H20 H 0.5871(7) 0.3554(6) 1.2041(4)
H21 H 0.5802(6) 0.4827(5) 1.1281(4)
O2B O 0.4837(4) 0.7567(3) 1.0272(2)
Mo1B Mo -0.2941(1) 0.7438(1) 1.0097(1)
loop_
_geom_bond_atom_site_label_1
_geom_bond_atom_site_label_2
_geom_bond_site_symmetry_1
_geom_bond_site_symmetry_2
Mo1 O1 1_555 1_555
O2 Mo1 1_555 1_555
O3 Mo1 1_555 1_555
O4 Mo1 1_555 1_555
N1 Mo1 1_555 1_555
C1 O4 1_555 1_555
C2 N1 1_555 1_555
C3 O3 1_555 1_555
C4 N1 1_555 1_555
C5 C2 1_555 1_555
C6 C5 1_555 1_555
C7 C6 1_555 1_555
C8 C7 1_555 1_555
C9 C8 1_555 1_555
C10 C5 1_555 1_555
C11 C3 1_555 1_555
C12 C11 1_555 1_555
C13 C12 1_555 1_555
C14 C13 1_555 1_555
C15 C14 1_555 1_555
C16 C11 1_555 1_555
C17 C4 1_555 1_555
C18 C17 1_555 1_555
C19 C18 1_555 1_555
C20 C19 1_555 1_555
C21 C20 1_555 1_555
C22 C17 1_555 1_555
H1 N1 1_555 1_555
H2 C3 1_555 1_555
H3 C4 1_555 1_555
H4 C1 1_555 1_555
H5 C1 1_555 1_555
H6 C2 1_555 1_555
H7 C6 1_555 1_555
H8 C7 1_555 1_555
H9 C8 1_555 1_555
H10 C9 1_555 1_555
H11 C10 1_555 1_555
H12 C12 1_555 1_555
H13 C13 1_555 1_555
H14 C14 1_555 1_555
H15 C15 1_555 1_555
H16 C16 1_555 1_555
H17 C18 1_555 1_555
H18 C19 1_555 1_555
H19 C20 1_555 1_555
H20 C21 1_555 1_555
H21 C22 1_555 1_555
O2B Mo1 1_555 1_555
Mo1B O2 1_555 1_555
C1 C2 1_555 1_555
C3 C4 1_555 1_555
C9 C10 1_555 1_555
C15 C16 1_555 1_555
C21 C22 1_555 1_555

#END
