
#######################################################################
#
#                 Cambridge Crystallographic Data Centre
#                                CCDC 
#
#######################################################################
#
# If this CIF has been generated from an entry in the Cambridge 
# Structural Database, then it will include bibliographic, chemical, 
# crystal, experimental, refinement or atomic coordinate data resulting 
# from the CCDC's data processing and validation procedures.
#
#######################################################################

data_TAWNUC
_symmetry_cell_setting           triclinic
_symmetry_space_group_name_H-M   'P -1'
_symmetry_Int_Tables_number      2
_space_group_name_Hall           '-P 1'
loop_
_symmetry_equiv_pos_site_id
_symmetry_equiv_pos_as_xyz
1 x,y,z
2 -x,-y,-z
_cell_length_a                   9.5455(19)
_cell_length_b                   10.271(2)
_cell_length_c                   10.628(2)
_cell_angle_alpha                62.03(3)
_cell_angle_beta                 68.68(3)
_cell_angle_gamma                83.38(3)
_cell_volume                     855.363
loop_
_atom_site_label
_atom_site_type_symbol
_atom_site_fract_x
_atom_site_fract_y
_atom_site_fract_z
Co1 Co 0.61763(4) -0.00751(4) 0.22461(4)
O1 O 0.9182(2) 0.0004(2) 0.1891(2)
O2 O 0.5971(2) -0.0193(2) 0.6946(2)
O3 O 0.7021(2) -0.0029(3) 0.3633(2)
O4 O 0.6602(2) 0.2037(2) 0.4949(3)
N1 N 0.6736(3) 0.1769(3) 0.0248(3)
C1 C 0.6898(3) 0.0792(3) 0.5716(3)
N2 N 0.6600(3) -0.1924(3) 0.2018(3)
C2 C 0.8494(3) 0.0344(3) 0.5313(3)
C3 C 0.9228(3) 0.0045(3) 0.4089(3)
C4 C 0.8455(3) 0.0018(3) 0.3110(3)
N3 N 0.7885(3) 0.3514(3) -0.2057(3)
C5 C 0.8965(4) 0.4269(4) -0.3550(4)
C6 C 0.7789(4) -0.2191(4) 0.1075(4)
H1 H 0.8533 -0.1479 0.0265
N4 N 0.7784(3) -0.3622(3) 0.1437(3)
C7 C 0.9281(5) -0.5705(4) 0.1552(4)
H2 H 0.8790 -0.6193 0.2601
C8 C 0.7928(4) 0.2144(3) -0.0993(3)
H3 H 0.8708 0.1533 -0.1118
C9 C 0.6530(5) -0.4317(4) 0.2695(5)
H4 H 0.6239 -0.5320 0.3214
C10 C 0.6570(5) 0.4039(4) -0.1437(4)
H5 H 0.6223 0.4965 -0.1905
C11 C 0.9614(5) -0.3632(4) -0.0828(4)
H6 H 0.9342 -0.2699 -0.1396
C12 C 0.5801(4) -0.3256(4) 0.3031(5)
H7 H 0.4895 -0.3404 0.3828
C13 C 0.5885(5) 0.2970(4) -0.0038(4)
H8 H 0.4966 0.3030 0.0642
C14 C 0.8921(4) -0.4332(4) 0.0707(4)
C15 C 0.8582(4) 0.5502(4) -0.4626(4)
H9 H 0.7624 0.5844 -0.4381
C16 C 1.0367(4) 0.3770(4) -0.3925(4)
H10 H 1.0619 0.2929 -0.3195
C17 C 0.9283(3) 0.0292(3) 0.6195(3)
H11 H 0.8792 0.0491 0.7012
Co1A Co 0.38237(4) 0.00751(4) 0.77539(4)
Co1_2 Co 1.61763(4) -0.00751(4) 0.22461(4)
Co1A_2 Co 1.38237(4) -0.99249(4) -0.22461(4)
Co1A_3 Co 1.38237(4) 0.00751(4) 0.77539(4)
Co1A_4 Co 1.38237(4) 1.00751(4) -1.22461(4)
O1A O 1.0818(2) -0.0004(2) 0.8109(2)
O2A O 1.4029(2) 0.0193(2) 0.3054(2)
O2A_2 O 0.4029(2) 0.0193(2) 0.3054(2)
O3A O 1.2979(2) 0.0029(3) 0.6367(2)
O3A_2 O 0.2979(2) 0.0029(3) 0.6367(2)
O4A O 1.3398(2) -0.2037(2) 0.5051(3)
N1A N 1.3264(3) 0.8231(3) -1.0248(3)
N1A_2 N 0.3264(3) -0.1769(3) 0.9752(3)
C1A C 1.3102(3) -0.0792(3) 0.4284(3)
N2A N 1.3400(3) -0.8076(3) -0.2018(3)
N2A_2 N 0.3400(3) 0.1924(3) 0.7982(3)
C2A C 1.1506(3) -0.0344(3) 0.4687(3)
C3A C 1.0772(3) -0.0045(3) 0.5911(3)
C4A C 1.1545(3) -0.0018(3) 0.6890(3)
N3A N 1.2115(3) 0.6486(3) -0.7943(3)
C5A C 1.1035(4) 0.5731(4) -0.6450(4)
C6A C 1.2211(4) -0.7809(4) -0.1075(4)
H1A H 1.1467 -0.8521 -0.0265
N4A N 1.2216(3) -0.6378(3) -0.1437(3)
C7A C 1.0719(5) -0.4295(4) -0.1552(4)
H2A H 1.1210 -0.3807 -0.2601
C8A C 1.2072(4) 0.7856(3) -0.9007(3)
H3A H 1.1292 0.8467 -0.8882
C9A C 1.3470(5) -0.5683(4) -0.2695(5)
H4A H 1.3761 -0.4680 -0.3214
C10A C 1.3430(5) 0.5961(4) -0.8563(4)
H5A H 1.3777 0.5035 -0.8095
C11A C 1.0386(5) -0.6368(4) 0.0828(4)
H6A H 1.0658 -0.7301 0.1396
C12A C 1.4199(4) -0.6744(4) -0.3031(5)
H7A H 1.5105 -0.6596 -0.3828
C13A C 1.4115(5) 0.7030(4) -0.9962(4)
H8A H 1.5034 0.6970 -1.0642
C14A C 1.1079(4) -0.5668(4) -0.0707(4)
C15A C 1.1418(4) 0.4498(4) -0.5374(4)
H9A H 1.2376 0.4156 -0.5619
C16A C 0.9633(4) 0.6230(4) -0.6075(4)
H10A H 0.9381 0.7071 -0.6805
C17A C 1.0717(3) -0.0292(3) 0.3805(3)
H11A H 1.1208 -0.0491 0.2988
O5 O 0.4508(3) 0.2776(3) 0.3445(3)
H12 H 0.5138 0.2413 0.3900
H13 H 0.3873 0.2028 0.3944
loop_
_geom_bond_atom_site_label_1
_geom_bond_atom_site_label_2
_geom_bond_site_symmetry_1
_geom_bond_site_symmetry_2
Co1 O3 1_555 1_555
O1 C4 1_555 1_555
O2 C1 1_555 1_555
O3 C4 1_555 1_555
O4 C1 1_555 1_555
N1 Co1 1_555 1_555
C1 C2 1_555 1_555
N2 Co1 1_555 1_555
C2 C3 1_555 1_555
C3 C4 1_555 1_555
N3 C5 1_555 1_555
C5 C15 1_555 1_555
C6 N2 1_555 1_555
H1 C6 1_555 1_555
N4 C6 1_555 1_555
C7 H2 1_555 1_555
C8 N1 1_555 1_555
H3 C8 1_555 1_555
C9 N4 1_555 1_555
H4 C9 1_555 1_555
C10 N3 1_555 1_555
H5 C10 1_555 1_555
C11 H6 1_555 1_555
C12 N2 1_555 1_555
H7 C12 1_555 1_555
C13 N1 1_555 1_555
H8 C13 1_555 1_555
C14 N4 1_555 1_555
C15 H9 1_555 1_555
C16 C5 1_555 1_555
H10 C16 1_555 1_555
C17 C2 1_555 1_555
H11 C17 1_555 1_555
O5 H12 1_555 1_555
H13 O5 1_555 1_555
Co1A O2 1_555 1_555
Co1_2 O2A 1_555 1_555
Co1A_2 N2A 1_555 1_555
Co1A_3 O3A 1_555 1_555
Co1A_4 N1A 1_555 1_555
O1A C4A 1_555 1_555
O2A C1A 1_555 1_555
O2A_2 Co1 1_555 1_555
O3A C4A 1_555 1_555
O3A_2 Co1A 1_555 1_555
O4A C1A 1_555 1_555
N1A C8A 1_555 1_555
N1A_2 Co1A 1_555 1_555
C1A C2A 1_555 1_555
N2A C6A 1_555 1_555
N2A_2 Co1A 1_555 1_555
C2A C3A 1_555 1_555
C3A C17 1_555 1_555
C4A C3A 1_555 1_555
N3A C5A 1_555 1_555
C5A C15A 1_555 1_555
C6A H1A 1_555 1_555
N4A C6A 1_555 1_555
C7A C11 1_555 1_555
H2A C7A 1_555 1_555
C8A N3A 1_555 1_555
H3A C8A 1_555 1_555
C9A N4A 1_555 1_555
H4A C9A 1_555 1_555
C10A N3A 1_555 1_555
H5A C10A 1_555 1_555
C11A C7 1_555 1_555
H6A C11A 1_555 1_555
C12A N2A 1_555 1_555
H7A C12A 1_555 1_555
C13A N1A 1_555 1_555
H8A C13A 1_555 1_555
C14A N4A 1_555 1_555
C15A C16 1_555 1_555
H9A C15A 1_555 1_555
C16A C15 1_555 1_555
H10A C16A 1_555 1_555
C17A C3 1_555 1_555
H11A C17A 1_555 1_555
N3 C8 1_555 1_555
C7 C14 1_555 1_555
C9 C12 1_555 1_555
C10 C13 1_555 1_555
C11 C14 1_555 1_555
C2A C17A 1_555 1_555
C5A C16A 1_555 1_555
C7A C14A 1_555 1_555
C9A C12A 1_555 1_555
C10A C13A 1_555 1_555
C11A C14A 1_555 1_555

#END
