
#######################################################################
#
#                 Cambridge Crystallographic Data Centre
#                                CCDC 
#
#######################################################################
#
# If this CIF has been generated from an entry in the Cambridge 
# Structural Database, then it will include bibliographic, chemical, 
# crystal, experimental, refinement or atomic coordinate data resulting 
# from the CCDC's data processing and validation procedures.
#
#######################################################################

data_TAWQAJ01
_symmetry_cell_setting           orthorhombic
_symmetry_space_group_name_H-M   'C 2 2 21'
_symmetry_Int_Tables_number      20
_space_group_name_Hall           'C 2n 2'
loop_
_symmetry_equiv_pos_site_id
_symmetry_equiv_pos_as_xyz
1 x,y,z
2 -x,-y,1/2+z
3 x,-y,-z
4 -x,y,1/2-z
5 1/2+x,1/2+y,z
6 1/2-x,1/2-y,1/2+z
7 1/2+x,1/2-y,-z
8 1/2-x,1/2+y,1/2-z
_cell_length_a                   9.653(2)
_cell_length_b                   16.201(2)
_cell_length_c                   20.193(4)
_cell_angle_alpha                90
_cell_angle_beta                 90
_cell_angle_gamma                90
_cell_volume                     3157.95
loop_
_atom_site_label
_atom_site_type_symbol
_atom_site_fract_x
_atom_site_fract_y
_atom_site_fract_z
Fe1 Fe 0.0000 0.1709(1) 0.2500
Mn1 Mn 0.0000 -0.1688(1) 0.2500
O1 O -0.0619(7) 0.0693(4) 0.3086(3)
O2 O -0.0612(7) -0.0685(4) 0.3099(4)
O3 O -0.1130(7) 0.2542(4) 0.3070(3)
O4 O -0.1752(7) 0.1802(5) 0.1928(4)
O5 O -0.3154(7) 0.3162(4) 0.3073(3)
O6 O -0.3785(9) 0.2508(4) 0.1930(4)
C1 C -0.0360(5) -0.0043(8) 0.2849(3)
C2 C -0.2207(10) 0.2739(7) 0.2805(5)
C3 C -0.2633(9) 0.2340(4) 0.2124(6)
C1C C 0.0360(5) -0.0043(8) 0.2151(3)
O1C O 0.0619(7) 0.0693(4) 0.1914(3)
O2C O 0.0612(7) -0.0685(4) 0.1901(4)
O3C O 0.1130(7) 0.2542(4) 0.1930(3)
O4C O 0.1752(7) 0.1802(5) 0.3072(4)
O5C O 0.3154(7) 0.3162(4) 0.1927(3)
O6C O 0.3785(9) 0.2508(4) 0.3070(4)
C2C C 0.2207(10) 0.2739(7) 0.2195(5)
C3C C 0.2633(9) 0.2340(4) 0.2876(6)
O5D O 0.1846(7) -0.1838(4) 0.3073(3)
O5G O -0.1846(7) -0.1838(4) 0.1927(3)
O6D O 0.1215(9) -0.2492(4) 0.1930(4)
O6G O -0.1215(9) -0.2492(4) 0.3070(4)
Mn1D Mn -0.5000 0.3312(1) 0.2500
Mn1D_2 Mn 0.5000 0.3312(1) 0.2500
N1 N 0.3946(10) 0.5000 0.0000
C4 C 0.4950(23) 0.4377(13) 0.0302(10)
C5 C 0.5764(29) 0.3934(16) -0.0238(12)
C6 C 0.6745(17) 0.3251(10) -0.0080(13)
C7 C 0.8173(24) 0.3205(17) 0.0275(16)
C8 C 0.9273(24) 0.2569(21) 0.0414(21)
C9 C 0.3052(21) 0.4619(13) -0.0539(10)
C10 C 0.2002(23) 0.5250(14) -0.0795(11)
C11 C 0.1279(11) 0.4998(14) -0.1415(5)
C12 C 0.0253(26) 0.4409(19) -0.1181(14)
C13 C -0.0932(35) 0.4445(27) -0.1686(18)
C4B C 0.4950(23) 0.5623(13) -0.0302(10)
C5B C 0.5764(29) 0.6066(16) 0.0238(12)
C6B C 0.6745(17) 0.6749(10) 0.0080(13)
C7B C 0.8173(24) 0.6795(17) -0.0275(16)
C8B C 0.9273(24) 0.7431(21) -0.0414(21)
C9B C 0.3052(21) 0.5381(13) 0.0539(10)
C10B C 0.2002(23) 0.4750(14) 0.0795(11)
C11B C 0.1279(11) 0.5002(14) 0.1415(5)
C12B C 0.0253(26) 0.5591(19) 0.1181(14)
C13B C -0.0932(35) 0.5555(27) 0.1686(18)
C14? C 0.4752(25) 0.4229(15) -0.0235(13)
C15? C 0.5988(32) 0.4020(19) 0.0193(16)
C16? C 0.3182(18) 0.5270(11) -0.0589(9)
C17? C 0.2086(24) 0.4655(15) -0.0816(11)
C18? C 0.0141(30) 0.5539(23) -0.1186(16)
C19? C -0.0915(38) 0.5770(25) -0.1712(17)
loop_
_geom_bond_atom_site_label_1
_geom_bond_atom_site_label_2
_geom_bond_site_symmetry_1
_geom_bond_site_symmetry_2
Fe1 O1 1_555 1_555
Mn1 O2 1_555 1_555
O1 C1 1_555 1_555
O2 C1 1_555 1_555
O3 Fe1 1_555 1_555
O4 Fe1 1_555 1_555
O5 C2 1_555 1_555
O6 C3 1_555 1_555
C1 C1C 1_555 1_555
C2 O3 1_555 1_555
C3 O4 1_555 1_555
N1 C4 1_555 1_555
C4 C5 1_555 1_555
C5 C6 1_555 1_555
C6 C7 1_555 1_555
C7 C8 1_555 1_555
C9 N1 1_555 1_555
C10 C9 1_555 1_555
C11 C10 1_555 1_555
C12 C11 1_555 1_555
C13 C12 1_555 1_555
C1C O1C 1_555 1_555
O1C Fe1 1_555 1_555
O2C Mn1 1_555 1_555
C4B N1 1_555 1_555
C5B C4B 1_555 1_555
C6B C5B 1_555 1_555
C7B C6B 1_555 1_555
C8B C7B 1_555 1_555
C9B N1 1_555 1_555
C10B C9B 1_555 1_555
C11B C10B 1_555 1_555
C12B C11B 1_555 1_555
C13B C12B 1_555 1_555
O3C Fe1 1_555 1_555
O4C Fe1 1_555 1_555
O5C C2C 1_555 1_555
O6C C3C 1_555 1_555
C2C O3C 1_555 1_555
C3C O4C 1_555 1_555
O5D Mn1 1_555 1_555
O5G Mn1 1_555 1_555
O6D Mn1 1_555 1_555
O6G Mn1 1_555 1_555
Mn1D O5 1_555 1_555
Mn1D_2 O5C 1_555 1_555
O6 Mn1D 1_555 1_555
C2 C3 1_555 1_555
C1C O2C 1_555 1_555
O6C Mn1D_2 1_555 1_555
C2C C3C 1_555 1_555

#END
