
#######################################################################
#
#                 Cambridge Crystallographic Data Centre
#                                CCDC 
#
#######################################################################
#
# If this CIF has been generated from an entry in the Cambridge 
# Structural Database, then it will include bibliographic, chemical, 
# crystal, experimental, refinement or atomic coordinate data resulting 
# from the CCDC's data processing and validation procedures.
#
#######################################################################

data_TAWREO
_symmetry_cell_setting           triclinic
_symmetry_space_group_name_H-M   'P -1'
_symmetry_Int_Tables_number      2
_space_group_name_Hall           '-P 1'
loop_
_symmetry_equiv_pos_site_id
_symmetry_equiv_pos_as_xyz
1 x,y,z
2 -x,-y,-z
_cell_length_a                   13.241(4)
_cell_length_b                   15.567(5)
_cell_length_c                   15.621(12)
_cell_angle_alpha                75.01(3)
_cell_angle_beta                 85.27(5)
_cell_angle_gamma                85.36(3)
_cell_volume                     3093.74
loop_
_atom_site_label
_atom_site_type_symbol
_atom_site_fract_x
_atom_site_fract_y
_atom_site_fract_z
Sn1 Sn 0.3426(1) 0.9407(1) 0.7180(1)
Sn2 Sn 0.2623(1) 0.6267(1) 1.0649(1)
Sn3 Sn -0.0690(1) 0.6985(1) 1.3495(1)
N1 N 0.3623(12) 0.7846(9) 0.7976(8)
N2 N 0.3360(14) 0.7718(8) 0.8852(9)
N3 N 0.3306(12) 0.6851(9) 0.9181(9)
N4 N 0.3520(13) 0.6413(8) 0.8530(9)
N5 N 0.1905(13) 0.5780(10) 1.2153(9)
N6 N 0.1105(13) 0.6347(10) 1.2250(9)
N7 N 0.0793(11) 0.6189(10) 1.3083(10)
N8 N 0.1358(12) 0.5495(10) 1.3560(9)
N9 N -0.2167(12) 0.7850(9) 1.3809(10)
N10 N -0.2216(14) 0.8705(9) 1.3389(12)
N11 N 0.3098(13) 1.0933(9) 0.6442(10)
N12 N 0.3689(12) 1.1521(9) 0.5948(10)
N13 N 0.5350(15) 0.4267(14) 1.4303(11)
O1 O 0.5742(13) 0.3782(12) 1.4938(12)
O2 O 0.5603(13) 0.5031(10) 1.3976(11)
C1 C 0.3703(12) 0.7049(10) 0.7812(10)
C2 C 0.2017(13) 0.5257(11) 1.2979(11)
C3 C -0.3135(14) 0.7723(11) 1.4180(11)
C4 C 0.4767(17) 0.9371(19) 0.6314(17)
C5 C 0.5658(28) 0.8891(24) 0.6833(28)
C6 C 0.6495(39) 0.9497(35) 0.6849(64)
C7 C 0.7531(29) 0.8964(57) 0.6864(69)
C8 C 0.1945(19) 0.9171(31) 0.6935(34)
C9 C 0.1828(72) 0.9260(57) 0.5943(37)
C10 C 0.3805(38) 0.9788(33) 0.8325(23)
C11 C 0.2697(38) 0.9847(33) 0.8672(31)
C12 C 0.2552(50) 1.0612(48) 0.9156(45)
C13 C 0.3314(45) 1.0425(37) 0.9881(34)
C14 C 0.3602(16) 0.5097(11) 1.0684(16)
C15 C 0.2985(20) 0.4277(17) 1.0726(22)
C16 C 0.3811(27) 0.3478(17) 1.0695(32)
C17 C 0.3242(45) 0.2647(22) 1.0759(58)
C18 C 0.3028(22) 0.7417(14) 1.0943(18)
C19 C 0.3885(31) 0.7102(22) 1.1572(28)
C20 C 0.4085(33) 0.7895(27) 1.1971(30)
C21 C 0.4986(42) 0.7601(39) 1.2566(40)
C22 C 0.1156(21) 0.6283(34) 1.0161(30)
C23 C 0.0660(56) 0.7221(31) 0.9779(49)
C24 C -0.0149(67) 0.7170(54) 0.9138(64)
C25 C -0.0405(24) 0.6507(20) 1.4855(12)
C26 C -0.0195(56) 0.7017(54) 1.5533(52)
C27 C 0.0912(66) 0.6791(76) 1.5808(69)
C28 C -0.1571(29) 0.6089(23) 1.3080(29)
C29 C -0.1748(73) 0.5650(60) 1.2333(53)
C30 C -0.2699(83) 0.6102(86) 1.1858(68)
C31 C -0.0565(35) 0.7967(25) 1.2271(19)
C32 C 0.0259 0.8424 1.2611
C33 C 0.0550(57) 0.9247(40) 1.1819(33)
C34 C 0.1532(80) 0.9590(79) 1.2026(77)
C35 C 0.4531(17) 0.3949(10) 1.3848(10)
C36 C 0.3718(15) 0.4726(10) 1.3655(12)
C37 C 0.2814(18) 0.4490(10) 1.3186(12)
C38 C 0.5022(13) 0.3781(9) 1.2960(9)
C39 C 0.4025(14) 0.6890(10) 0.6913(9)
C40 C 0.4126(13) 0.3051(9) 1.4448(9)
C41 C -0.3475(15) 0.6801(9) 1.4695(10)
N11A N -0.3098(13) 0.9067(9) 1.3558(10)
N10A N 0.2216(14) 1.1295(9) 0.6611(12)
C3A C 0.3135(14) 1.2277(11) 0.5820(11)
N12A N -0.3689(12) 0.8479(9) 1.4052(10)
C39A C 0.5975(14) 0.3110(10) 1.3087(9)
C38A C 0.4978(13) 0.6219(9) 0.7040(9)
C41A C 0.3475(15) 0.3199(9) 1.5305(10)
C40A C -0.4126(13) 0.6949(9) 1.5552(9)
loop_
_geom_bond_atom_site_label_1
_geom_bond_atom_site_label_2
_geom_bond_site_symmetry_1
_geom_bond_site_symmetry_2
Sn1 N1 1_555 1_555
Sn2 N3 1_555 1_555
Sn3 N7 1_555 1_555
N1 N2 1_555 1_555
N2 N3 1_555 1_555
N3 N4 1_555 1_555
N4 C1 1_555 1_555
N5 Sn2 1_555 1_555
N6 N5 1_555 1_555
N7 N6 1_555 1_555
N8 N7 1_555 1_555
N9 Sn3 1_555 1_555
N10 N9 1_555 1_555
N11 Sn1 1_555 1_555
N12 N11 1_555 1_555
N13 O1 1_555 1_555
O2 N13 1_555 1_555
C1 N1 1_555 1_555
C2 N5 1_555 1_555
C3 N9 1_555 1_555
C4 Sn1 1_555 1_555
C5 C4 1_555 1_555
C6 C5 1_555 1_555
C7 C6 1_555 1_555
C8 Sn1 1_555 1_555
C9 C8 1_555 1_555
C10 Sn1 1_555 1_555
C11 C10 1_555 1_555
C12 C11 1_555 1_555
C13 C12 1_555 1_555
C14 Sn2 1_555 1_555
C15 C14 1_555 1_555
C16 C15 1_555 1_555
C17 C16 1_555 1_555
C18 Sn2 1_555 1_555
C19 C18 1_555 1_555
C20 C19 1_555 1_555
C21 C20 1_555 1_555
C22 Sn2 1_555 1_555
C23 C22 1_555 1_555
C24 C23 1_555 1_555
C25 Sn3 1_555 1_555
C26 C25 1_555 1_555
C27 C26 1_555 1_555
C28 Sn3 1_555 1_555
C29 C28 1_555 1_555
C30 C29 1_555 1_555
C31 Sn3 1_555 1_555
C32 C31 1_555 1_555
C33 C32 1_555 1_555
C34 C33 1_555 1_555
C35 N13 1_555 1_555
C36 C35 1_555 1_555
C37 C2 1_555 1_555
C38 C35 1_555 1_555
C39 C1 1_555 1_555
C40 C35 1_555 1_555
C41 C3 1_555 1_555
N11A N10 1_555 1_555
N10A N11 1_555 1_555
C3A N12 1_555 1_555
N12A C3 1_555 1_555
C39A C38 1_555 1_555
C38A C39 1_555 1_555
C41A C40 1_555 1_555
C40A C41 1_555 1_555
N8 C2 1_555 1_555
C36 C37 1_555 1_555
N11A N12A 1_555 1_555

#END
