
#######################################################################
#
#                 Cambridge Crystallographic Data Centre
#                                CCDC 
#
#######################################################################
#
# If this CIF has been generated from an entry in the Cambridge 
# Structural Database, then it will include bibliographic, chemical, 
# crystal, experimental, refinement or atomic coordinate data resulting 
# from the CCDC's data processing and validation procedures.
#
#######################################################################

data_TAWRIS
_symmetry_cell_setting           triclinic
_symmetry_space_group_name_H-M   'P -1'
_symmetry_Int_Tables_number      2
_space_group_name_Hall           '-P 1'
loop_
_symmetry_equiv_pos_site_id
_symmetry_equiv_pos_as_xyz
1 x,y,z
2 -x,-y,-z
_cell_length_a                   12.544(4)
_cell_length_b                   13.846(5)
_cell_length_c                   17.035(7)
_cell_angle_alpha                71.54(3)
_cell_angle_beta                 74.28(4)
_cell_angle_gamma                86.97(5)
_cell_volume                     2699.74
loop_
_atom_site_label
_atom_site_type_symbol
_atom_site_fract_x
_atom_site_fract_y
_atom_site_fract_z
Sn1 Sn 1.0879(1) -0.7280(1) 0.0659(1)
Sn2 Sn 0.5518(1) -0.3909(1) 0.3002(1)
Sn3 Sn 0.8720(1) -0.8834(1) 0.6303(1)
N1 N 0.8855(9) -0.4564(8) 0.1212(6)
N2 N 0.8397(9) -0.3716(8) 0.0790(6)
N3 N 0.7475(9) -0.3502(7) 0.1269(6)
N4 N 0.7285(9) -0.4202(7) 0.2047(6)
N5 N 0.9705(8) -0.9141(7) 0.3568(6)
N6 N 1.0330(9) -0.9723(7) 0.3132(6)
N7 N 1.0618(9) -0.9244(7) 0.2289(6)
N8 N 1.0184(9) -0.8324(7) 0.2166(6)
N9 N 0.6427(8) -0.6208(7) 0.5287(6)
N10 N 0.6138(9) -0.6527(8) 0.6163(6)
N11 N 0.6775(8) -0.7240(7) 0.6475(6)
N12 N 0.7540(8) -0.7407(7) 0.5803(6)
C1 C 0.8144(10) -0.4831(9) 0.1983(7)
C2 C 0.9614(10) -0.8277(9) 0.2964(7)
C3 C 0.7281(10) -0.6771(8) 0.5089(7)
C4 C 0.8274(10) -0.5743(9) 0.2692(7)
C5 C 0.7795(10) -0.5803(9) 0.3547(7)
C6 C 0.7887(10) -0.6690(9) 0.4201(7)
C7 C 0.8464(10) -0.7485(9) 0.3987(7)
C8 C 0.8982(9) -0.7411(9) 0.3142(7)
C9 C 0.8918(9) -0.6523(9) 0.2503(7)
C10 C 0.9298(10) -0.6994(10) 0.0468(8)
C11 C 0.8332(10) -0.7727(11) 0.1089(9)
C12 C 0.7192(13) -0.7592(16) 0.0897(15)
C13 C 0.6796(26) -0.6505(17) 0.0833(21)
C14 C 1.1754(12) -0.8529(11) 0.0327(9)
C15 C 1.1107(20) -0.9262(18) 0.0246(16)
C16 C 1.1805(21) -1.0148(19) -0.0057(15)
C17 C 1.2240(22) -0.9618(19) -0.1032(15)
C18 C 1.1689(16) -0.6227(14) 0.0990(10)
C19 C 1.2062(20) -0.6503(16) 0.1822(12)
C20 C 1.2639(23) -0.5591(18) 0.1893(20)
C21 C 1.1757(33) -0.4781(29) 0.1951(29)
C22 C 0.6417(11) -0.3281(10) 0.3634(8)
C23 C 0.6254(13) -0.2140(11) 0.3534(10)
C24 C 0.6941(15) -0.1729(13) 0.3980(11)
C25 C 0.6788(19) -0.0612(16) 0.3886(14)
C26 C 0.5025(11) -0.5486(9) 0.3530(8)
C27 C 0.5209(13) -0.6044(12) 0.2854(10)
C28 C 0.4806(14) -0.7161(12) 0.3244(10)
C29 C 0.5505(16) -0.7816(15) 0.3796(12)
C30 C 0.4880(18) -0.3285(14) 0.1901(9)
C31 C 0.5078(23) -0.2125(14) 0.1484(16)
C32 C 0.4548(26) -0.1841(26) 0.0728(16)
C33 C 0.5117(27) -0.2236(27) -0.0028(19)
C34 C 0.7794(11) -0.9800(10) 0.5938(8)
C35 C 0.7327(13) -1.0820(12) 0.6617(10)
C36 C 0.6604(13) -1.0729(12) 0.7450(10)
C37 C 0.5612(15) -1.0055(14) 0.7345(12)
C38 C 1.0202(10) -0.8133(9) 0.5363(8)
C39 C 1.0369(12) -0.6966(11) 0.5164(9)
C40 C 1.1356(14) -0.6502(13) 0.4409(11)
C41 C 1.1538(15) -0.5377(13) 0.4280(12)
C42 C 0.8241(13) -0.8577(11) 0.7527(9)
C43 C 0.8812(18) -0.7691(16) 0.7590(14)
C44 C 0.9887(18) -0.8026(16) 0.7661(14)
C45 C 1.0463(26) -0.7165(23) 0.7754(20)
H1 H 0.7401(10) -0.5241(9) 0.3687(7)
H2 H 0.8503(10) -0.8104(9) 0.4435(7)
H3 H 0.9322(9) -0.6447(9) 0.1920(7)
H4 H 0.9115(10) -0.6324(10) 0.0503(8)
H5 H 0.9342(10) -0.7008(10) -0.0099(8)
H6 H 0.8231(10) -0.7651(11) 0.1646(9)
H7 H 0.8555(10) -0.8406(11) 0.1107(9)
H8 H 0.7250(13) -0.7712(16) 0.0362(15)
H9 H 0.6665(13) -0.8073(16) 0.1350(15)
H10 H 0.6086(26) -0.6426(17) 0.0712(21)
H11 H 0.6738(26) -0.6386(17) 0.1368(21)
H12 H 0.7324(26) -0.6024(17) 0.0380(21)
H13 H 1.2300(12) -0.8255(11) -0.0211(9)
H14 H 1.2116(12) -0.8863(11) 0.0766(9)
H15 H 1.0717(20) -0.8927(18) -0.0174(16)
H16 H 1.0583(20) -0.9563(18) 0.0792(16)
H17 H 1.2401(21) -1.0346(19) 0.0209(15)
H18 H 1.1340(21) -1.0735(19) 0.0065(15)
H19 H 1.2680(22) -1.0074(19) -0.1300(15)
H20 H 1.1623(22) -0.9415(19) -0.1273(15)
H21 H 1.2684(22) -0.9026(19) -0.1129(15)
H22 H 1.2348(16) -0.5990(14) 0.0529(10)
H23 H 1.1197(16) -0.5674(14) 0.1005(10)
H24 H 1.2570(20) -0.7047(16) 0.1830(12)
H25 H 1.1422(20) -0.6723(16) 0.2305(12)
H26 H 1.3252(23) -0.5334(18) 0.1395(20)
H27 H 1.2901(23) -0.5793(18) 0.2399(20)
H28 H 1.2091(33) -0.4198(29) 0.1993(29)
H29 H 1.1497(33) -0.4586(29) 0.1444(29)
H30 H 1.1145(33) -0.5044(29) 0.2449(29)
H31 H 0.7192(11) -0.3368(10) 0.3406(8)
H32 H 0.6195(11) -0.3657(10) 0.4236(8)
H33 H 0.5485(13) -0.2049(11) 0.3778(10)
H34 H 0.6460(13) -0.1759(11) 0.2934(10)
H35 H 0.7709(15) -0.1830(13) 0.3742(11)
H36 H 0.6728(15) -0.2106(13) 0.4582(11)
H37 H 0.7242(19) -0.0403(16) 0.4180(14)
H38 H 0.6025(19) -0.0498(16) 0.4128(14)
H39 H 0.7006(19) -0.0222(16) 0.3288(14)
H40 H 0.4252(11) -0.5544(9) 0.3828(8)
H41 H 0.5448(11) -0.5814(9) 0.3928(8)
H42 H 0.5986(13) -0.6013(12) 0.2570(10)
H43 H 0.4809(13) -0.5703(12) 0.2443(10)
H44 H 0.4824(14) -0.7431(12) 0.2786(10)
H45 H 0.4058(14) -0.7192(12) 0.3593(10)
H46 H 0.5211(16) -0.8505(15) 0.4023(12)
H47 H 0.5489(16) -0.7561(15) 0.4260(12)
H48 H 0.6255(16) -0.7799(15) 0.3454(12)
H49 H 0.4094(18) -0.3424(14) 0.2080(9)
H50 H 0.5222(18) -0.3614(14) 0.1481(9)
H51 H 0.4739(23) -0.1776(14) 0.1889(16)
H52 H 0.5861(23) -0.1966(14) 0.1284(16)
H53 H 0.4565(26) -0.1110(26) 0.0516(16)
H54 H 0.3793(26) -0.2095(26) 0.0944(16)
H55 H 0.4722(27) -0.1997(27) -0.0459(19)
H56 H 0.5100(27) -0.2967(27) 0.0163(19)
H57 H 0.5872(27) -0.1982(27) -0.0265(19)
H58 H 0.7180(11) -0.9422(10) 0.5780(8)
H59 H 0.8272(11) -0.9946(10) 0.5447(8)
H60 H 0.6893(13) -1.1145(12) 0.6381(10)
H61 H 0.7938(13) -1.1236(12) 0.6734(10)
H62 H 0.7050(13) -1.0443(12) 0.7706(10)
H63 H 0.6331(13) -1.1397(12) 0.7824(10)
H64 H 0.5188(15) -1.0025(14) 0.7898(12)
H65 H 0.5873(15) -0.9381(14) 0.6977(12)
H66 H 0.5154(15) -1.0335(14) 0.7096(12)
H67 H 1.0818(10) -0.8461(9) 0.5559(8)
H68 H 1.0203(10) -0.8248(9) 0.4836(8)
H69 H 0.9712(12) -0.6636(11) 0.5044(9)
H70 H 1.0484(12) -0.6849(11) 0.5661(9)
H71 H 1.1220(14) -0.6570(13) 0.3900(11)
H72 H 1.2009(14) -0.6859(13) 0.4507(11)
H73 H 1.2163(15) -0.5104(13) 0.3795(12)
H74 H 1.0890(15) -0.5014(13) 0.4178(12)
H75 H 1.1678(15) -0.5303(13) 0.4785(12)
H76 H 0.7460(13) -0.8468(11) 0.7663(9)
H77 H 0.8393(13) -0.9179(11) 0.7947(9)
H78 H 0.8875(18) -0.7119(16) 0.7081(14)
H79 H 0.8411(18) -0.7504(16) 0.8084(14)
H80 H 1.0292(18) -0.8191(16) 0.7158(14)
H81 H 0.9818(18) -0.8615(16) 0.8159(14)
H82 H 1.1190(26) -0.7371(23) 0.7809(20)
H83 H 1.0526(26) -0.6578(23) 0.7256(20)
H84 H 1.0053(26) -0.7001(23) 0.8257(20)
N10A N 0.3862(9) -0.3473(8) 0.3837(6)
Sn1A Sn 0.9121(1) -0.2720(1) -0.0659(1)
Sn2A Sn 0.4482(1) -0.6091(1) 0.6998(1)
Sn3A Sn 1.1280(1) -1.1166(1) 0.3697(1)
N2A N 1.1603(9) -0.6284(8) -0.0790(6)
N6A N 0.9670(9) -1.0277(7) 0.6868(6)
loop_
_geom_bond_atom_site_label_1
_geom_bond_atom_site_label_2
_geom_bond_site_symmetry_1
_geom_bond_site_symmetry_2
Sn1 N8 1_555 1_555
Sn2 N4 1_555 1_555
Sn3 N12 1_555 1_555
N1 N2 1_555 1_555
N2 N3 1_555 1_555
N3 N4 1_555 1_555
N4 C1 1_555 1_555
N5 N6 1_555 1_555
N6 N7 1_555 1_555
N7 N8 1_555 1_555
N8 C2 1_555 1_555
N9 N10 1_555 1_555
N10 N11 1_555 1_555
N11 N12 1_555 1_555
N12 C3 1_555 1_555
C1 N1 1_555 1_555
C2 N5 1_555 1_555
C3 N9 1_555 1_555
C4 C1 1_555 1_555
C5 C4 1_555 1_555
C6 C3 1_555 1_555
C7 C6 1_555 1_555
C8 C2 1_555 1_555
C9 C4 1_555 1_555
C10 Sn1 1_555 1_555
C11 C10 1_555 1_555
C12 C11 1_555 1_555
C13 C12 1_555 1_555
C14 Sn1 1_555 1_555
C15 C14 1_555 1_555
C16 C15 1_555 1_555
C17 C16 1_555 1_555
C18 Sn1 1_555 1_555
C19 C18 1_555 1_555
C20 C19 1_555 1_555
C21 C20 1_555 1_555
C22 Sn2 1_555 1_555
C23 C22 1_555 1_555
C24 C23 1_555 1_555
C25 C24 1_555 1_555
C26 Sn2 1_555 1_555
C27 C26 1_555 1_555
C28 C27 1_555 1_555
C29 C28 1_555 1_555
C30 Sn2 1_555 1_555
C31 C30 1_555 1_555
C32 C31 1_555 1_555
C33 C32 1_555 1_555
C34 Sn3 1_555 1_555
C35 C34 1_555 1_555
C36 C35 1_555 1_555
C37 C36 1_555 1_555
C38 Sn3 1_555 1_555
C39 C38 1_555 1_555
C40 C39 1_555 1_555
C41 C40 1_555 1_555
C42 Sn3 1_555 1_555
C43 C42 1_555 1_555
C44 C43 1_555 1_555
C45 C44 1_555 1_555
H1 C5 1_555 1_555
H2 C7 1_555 1_555
H3 C9 1_555 1_555
H4 C10 1_555 1_555
H5 C10 1_555 1_555
H6 C11 1_555 1_555
H7 C11 1_555 1_555
H8 C12 1_555 1_555
H9 C12 1_555 1_555
H10 C13 1_555 1_555
H11 C13 1_555 1_555
H12 C13 1_555 1_555
H13 C14 1_555 1_555
H14 C14 1_555 1_555
H15 C15 1_555 1_555
H16 C15 1_555 1_555
H17 C16 1_555 1_555
H18 C16 1_555 1_555
H19 C17 1_555 1_555
H20 C17 1_555 1_555
H21 C17 1_555 1_555
H22 C18 1_555 1_555
H23 C18 1_555 1_555
H24 C19 1_555 1_555
H25 C19 1_555 1_555
H26 C20 1_555 1_555
H27 C20 1_555 1_555
H28 C21 1_555 1_555
H29 C21 1_555 1_555
H30 C21 1_555 1_555
H31 C22 1_555 1_555
H32 C22 1_555 1_555
H33 C23 1_555 1_555
H34 C23 1_555 1_555
H35 C24 1_555 1_555
H36 C24 1_555 1_555
H37 C25 1_555 1_555
H38 C25 1_555 1_555
H39 C25 1_555 1_555
H40 C26 1_555 1_555
H41 C26 1_555 1_555
H42 C27 1_555 1_555
H43 C27 1_555 1_555
H44 C28 1_555 1_555
H45 C28 1_555 1_555
H46 C29 1_555 1_555
H47 C29 1_555 1_555
H48 C29 1_555 1_555
H49 C30 1_555 1_555
H50 C30 1_555 1_555
H51 C31 1_555 1_555
H52 C31 1_555 1_555
H53 C32 1_555 1_555
H54 C32 1_555 1_555
H55 C33 1_555 1_555
H56 C33 1_555 1_555
H57 C33 1_555 1_555
H58 C34 1_555 1_555
H59 C34 1_555 1_555
H60 C35 1_555 1_555
H61 C35 1_555 1_555
H62 C36 1_555 1_555
H63 C36 1_555 1_555
H64 C37 1_555 1_555
H65 C37 1_555 1_555
H66 C37 1_555 1_555
H67 C38 1_555 1_555
H68 C38 1_555 1_555
H69 C39 1_555 1_555
H70 C39 1_555 1_555
H71 C40 1_555 1_555
H72 C40 1_555 1_555
H73 C41 1_555 1_555
H74 C41 1_555 1_555
H75 C41 1_555 1_555
H76 C42 1_555 1_555
H77 C42 1_555 1_555
H78 C43 1_555 1_555
H79 C43 1_555 1_555
H80 C44 1_555 1_555
H81 C44 1_555 1_555
H82 C45 1_555 1_555
H83 C45 1_555 1_555
H84 C45 1_555 1_555
N10A Sn2 1_555 1_555
Sn1A N2 1_555 1_555
Sn2A N10 1_555 1_555
Sn3A N6 1_555 1_555
N2A Sn1 1_555 1_555
N6A Sn3 1_555 1_555
C5 C6 1_555 1_555
C7 C8 1_555 1_555
C8 C9 1_555 1_555

#END
