
#######################################################################
#
#                 Cambridge Crystallographic Data Centre
#                                CCDC 
#
#######################################################################
#
# If this CIF has been generated from an entry in the Cambridge 
# Structural Database, then it will include bibliographic, chemical, 
# crystal, experimental, refinement or atomic coordinate data resulting 
# from the CCDC's data processing and validation procedures.
#
#######################################################################

data_TAWSAN
_symmetry_cell_setting           monoclinic
_symmetry_space_group_name_H-M   'C 2/c'
_symmetry_Int_Tables_number      15
_space_group_name_Hall           '-C 2yn'
loop_
_symmetry_equiv_pos_site_id
_symmetry_equiv_pos_as_xyz
1 x,y,z
2 -x,y,1/2-z
3 1/2+x,1/2+y,z
4 1/2-x,1/2+y,1/2-z
5 -x,-y,-z
6 x,-y,1/2+z
7 1/2-x,1/2-y,-z
8 1/2+x,1/2-y,1/2+z
_cell_length_a                   11.0897(4)
_cell_length_b                   11.1083(5)
_cell_length_c                   21.1775(7)
_cell_angle_alpha                90
_cell_angle_beta                 98.808(4)
_cell_angle_gamma                90
_cell_volume                     2578.04
loop_
_atom_site_label
_atom_site_type_symbol
_atom_site_fract_x
_atom_site_fract_y
_atom_site_fract_z
C1 C 0.9781(3) -0.0354(3) 0.84751(16)
H1 H 0.9111 -0.0536 0.8169
C2 C 1.0890(4) -0.0908(3) 0.8458(2)
H2 H 1.0970 -0.1474 0.8144
C3 C 1.1872(3) -0.0617(3) 0.89090(18)
H3 H 1.2612 -0.1005 0.8898
C4 C 1.0717(3) 0.0727(3) 0.93826(14)
H4 H 1.0660 0.1288 0.9702
C5 C 0.9677(3) 0.0475(3) 0.89512(13)
C6 C 0.8493(3) 0.1102(3) 0.90259(14)
H5 H 0.8205 0.0786 0.9403
H6 H 0.8658 0.1953 0.9098
C7 C 0.7558(2) 0.1499(3) 0.79071(13)
C8 C 0.6666(3) 0.1214(3) 0.73833(14)
H7 H 0.6049 0.0674 0.7437
C9 C 0.6690(3) 0.1716(3) 0.67943(14)
H8 H 0.6086 0.1517 0.6455
C10 C 0.7614(3) 0.2526(3) 0.66961(12)
C11 C 0.8472(3) 0.2825(3) 0.72188(13)
H9 H 0.9079 0.3376 0.7165
C12 C 0.8458(3) 0.2335(3) 0.78151(13)
H10 H 0.9046 0.2560 0.8156
C13 C 0.7716(3) 0.3022(3) 0.60585(13)
N1 N 1.1802(2) 0.0204(2) 0.93638(12)
N2 N 0.7533(2) 0.0975(3) 0.84887(13)
H11 H 0.695(3) 0.045(3) 0.8496(18)
O1 O 0.8583(2) 0.3741(2) 0.60102(10)
O2 O 0.6963(2) 0.2734(2) 0.55749(10)
Cd1 Cd 1.352810(18) 0.091610(19) 0.997700(9)
Cl1 Cl 1.56927(7) 0.13306(7) 0.98075(4)
O1G O 1.3583(2) 0.1259(2) 1.10102(10)
O2A O 1.3037(2) 0.2734(2) 0.94251(10)
Cd1G Cd 0.852810(18) 0.408390(19) 0.497700(9)
Cd1A Cd 0.647190(18) 0.091610(19) 0.502300(9)
Cd1D Cd 1.647190(18) -0.091610(19) 1.002300(9)
Cl1D Cl 1.43073(7) -0.13306(7) 1.01925(4)
loop_
_geom_bond_atom_site_label_1
_geom_bond_atom_site_label_2
_geom_bond_site_symmetry_1
_geom_bond_site_symmetry_2
C1 H1 1_555 1_555
C2 C1 1_555 1_555
H2 C2 1_555 1_555
C3 C2 1_555 1_555
H3 C3 1_555 1_555
C4 H4 1_555 1_555
C5 C1 1_555 1_555
C6 C5 1_555 1_555
H5 C6 1_555 1_555
H6 C6 1_555 1_555
C7 C8 1_555 1_555
C8 H7 1_555 1_555
C9 C8 1_555 1_555
H8 C9 1_555 1_555
C10 C9 1_555 1_555
C11 C10 1_555 1_555
H9 C11 1_555 1_555
C12 C7 1_555 1_555
H10 C12 1_555 1_555
C13 C10 1_555 1_555
N1 C3 1_555 1_555
N2 C6 1_555 1_555
H11 N2 1_555 1_555
O1 C13 1_555 1_555
O2 C13 1_555 1_555
Cd1 N1 1_555 1_555
Cl1 Cd1 1_555 1_555
O1G Cd1 1_555 1_555
O2A Cd1 1_555 1_555
Cd1G O1 1_555 1_555
Cd1A O2 1_555 1_555
Cd1D Cl1 1_555 1_555
Cl1D Cd1 1_555 1_555
C4 C5 1_555 1_555
C4 N1 1_555 1_555
C7 N2 1_555 1_555
C11 C12 1_555 1_555
Cd1D Cl1D 1_555 1_555

#END
