
#######################################################################
#
#                 Cambridge Crystallographic Data Centre
#                                CCDC 
#
#######################################################################
#
# If this CIF has been generated from an entry in the Cambridge 
# Structural Database, then it will include bibliographic, chemical, 
# crystal, experimental, refinement or atomic coordinate data resulting 
# from the CCDC's data processing and validation procedures.
#
#######################################################################

data_TAWTOC
_symmetry_cell_setting           monoclinic
_symmetry_space_group_name_H-M   'C 2/c'
_symmetry_Int_Tables_number      15
_space_group_name_Hall           '-C 2yn'
loop_
_symmetry_equiv_pos_site_id
_symmetry_equiv_pos_as_xyz
1 x,y,z
2 -x,y,1/2-z
3 1/2+x,1/2+y,z
4 1/2-x,1/2+y,1/2-z
5 -x,-y,-z
6 x,-y,1/2+z
7 1/2-x,1/2-y,-z
8 1/2+x,1/2-y,1/2+z
_cell_length_a                   19.517(4)
_cell_length_b                   14.405(3)
_cell_length_c                   14.983(3)
_cell_angle_alpha                90
_cell_angle_beta                 107.48(3)
_cell_angle_gamma                90
_cell_volume                     4017.84
loop_
_atom_site_label
_atom_site_type_symbol
_atom_site_fract_x
_atom_site_fract_y
_atom_site_fract_z
Zn1 Zn 0.25325(3) 0.74265(3) 0.17583(3)
N1 N 0.33001(18) 0.7963(2) 0.2908(2)
C1 C 0.3990(2) 0.7737(3) 0.3082(3)
H1 H 0.4123 0.7371 0.2649
C2 C 0.4514(2) 0.8020(3) 0.3872(3)
H2 H 0.4990 0.7852 0.3970
C3 C 0.4319(2) 0.8563(3) 0.4525(2)
C4 C 0.3612(2) 0.8816(3) 0.4340(3)
H3 H 0.3466 0.9190 0.4755
C5 C 0.3124(2) 0.8506(3) 0.3528(3)
H4 H 0.2647 0.8684 0.3403
S1 S 0.50064(6) 0.88499(7) 0.55681(7)
S2 S 0.45322(6) 0.98099(7) 0.61837(7)
C6 C 0.4005(2) 0.9160(3) 0.6740(2)
C7 C 0.3515(3) 0.9644(3) 0.7054(3)
H5 H 0.3464 1.0283 0.6968
C8 C 0.3101(3) 0.9164(3) 0.7498(3)
H6 H 0.2771 0.9496 0.7709
N2 N 0.31458(18) 0.8249(2) 0.7641(2)
C9 C 0.3620(2) 0.7790(3) 0.7328(3)
H7 H 0.3662 0.7152 0.7421
C10 C 0.4051(3) 0.8216(3) 0.6873(3)
H8 H 0.4371 0.7868 0.6658
O1 O 0.31357(17) 0.6532(2) 0.13841(19)
O2 O 0.22460(18) 0.5683(2) 0.0473(2)
C11 C 0.2885(3) 0.5880(3) 0.0797(3)
C12 C 0.3445(2) 0.5293(3) 0.0567(3)
C13 C 0.3554(2) 0.5286(3) -0.0322(3)
C14 C 0.4036(3) 0.4653(3) -0.0495(3)
H9 H 0.4090 0.4622 -0.1090
C15 C 0.4437(3) 0.4070(4) 0.0200(4)
H10 H 0.4760 0.3653 0.0073
C16 C 0.4355(3) 0.4111(3) 0.1080(4)
H11 H 0.4636 0.3738 0.1557
C17 C 0.3857(3) 0.4707(3) 0.1257(3)
H12 H 0.3795 0.4715 0.1849
C18 C 0.3199(2) 0.5981(3) -0.1057(3)
O3 O 0.29416(17) 0.6707(2) -0.07811(19)
O4 O 0.31885(18) 0.5863(2) -0.18793(19)
Zn1F Zn 0.24675(3) 0.75735(3) -0.17583(3)
Zn1_2 Zn 0.25325(3) 0.74265(3) -0.82417(3)
Zn1F_2 Zn 0.24675(3) 0.75735(3) 0.82417(3)
N1F N 0.16999(18) 0.7037(2) -0.2908(2)
C1F C 0.1010(2) 0.7263(3) -0.3082(3)
H1F H 0.0877 0.7629 -0.2649
C2F C 0.0486(2) 0.6980(3) -0.3872(3)
H2F H 0.0010 0.7148 -0.3970
C3F C 0.0681(2) 0.6437(3) -0.4525(2)
C4F C 0.1388(2) 0.6184(3) -0.4340(3)
H3F H 0.1534 0.5810 -0.4755
C5F C 0.1876(2) 0.6494(3) -0.3528(3)
H4F H 0.2353 0.6316 -0.3403
S1F S -0.00064(6) 0.61501(7) -0.55681(7)
S2F S 0.04678(6) 0.51901(7) -0.61837(7)
C6F C 0.0995(2) 0.5840(3) -0.6740(2)
C7F C 0.1485(3) 0.5356(3) -0.7054(3)
H5F H 0.1536 0.4717 -0.6968
C8F C 0.1899(3) 0.5836(3) -0.7498(3)
H6F H 0.2229 0.5504 -0.7709
N2F N 0.18542(18) 0.6751(2) -0.7641(2)
N2_2 N 0.31458(18) 0.8249(2) -0.2359(2)
N2F_2 N 0.18542(18) 0.6751(2) 0.2359(2)
C9F C 0.1380(2) 0.7210(3) -0.7328(3)
H7F H 0.1338 0.7848 -0.7421
C10F C 0.0949(3) 0.6784(3) -0.6873(3)
H8F H 0.0629 0.7132 -0.6658
O1F O 0.18643(17) 0.8468(2) -0.13841(19)
O2F O 0.27540(18) 0.9317(2) -0.0473(2)
C11F C 0.2115(3) 0.9120(3) -0.0797(3)
C12F C 0.1555(2) 0.9707(3) -0.0567(3)
C13F C 0.1446(2) 0.9714(3) 0.0322(3)
C14F C 0.0964(3) 1.0347(3) 0.0495(3)
H9F H 0.0910 1.0378 0.1090
C15F C 0.0563(3) 1.0930(4) -0.0200(4)
H10F H 0.0240 1.1347 -0.0073
C16F C 0.0645(3) 1.0889(3) -0.1080(4)
H11F H 0.0364 1.1262 -0.1557
C17F C 0.1143(3) 1.0293(3) -0.1257(3)
H12F H 0.1205 1.0285 -0.1849
C18F C 0.1801(2) 0.9019(3) 0.1057(3)
O3F O 0.20584(17) 0.8293(2) 0.07811(19)
O4F O 0.18115(18) 0.9137(2) 0.18793(19)
O5 O 0.1223(2) 0.6866(3) -0.0739(3)
H13 H 0.1526 0.6461 -0.0447
H14 H 0.1406 0.7313 -0.0935
loop_
_geom_bond_atom_site_label_1
_geom_bond_atom_site_label_2
_geom_bond_site_symmetry_1
_geom_bond_site_symmetry_2
Zn1 N1 1_555 1_555
N1 C1 1_555 1_555
C1 H1 1_555 1_555
C2 C1 1_555 1_555
H2 C2 1_555 1_555
C3 C2 1_555 1_555
C4 C3 1_555 1_555
H3 C4 1_555 1_555
C5 N1 1_555 1_555
H4 C5 1_555 1_555
S1 C3 1_555 1_555
S2 S1 1_555 1_555
C6 S2 1_555 1_555
C7 C6 1_555 1_555
H5 C7 1_555 1_555
C8 C7 1_555 1_555
H6 C8 1_555 1_555
N2 C8 1_555 1_555
C9 N2 1_555 1_555
H7 C9 1_555 1_555
C10 C6 1_555 1_555
H8 C10 1_555 1_555
O1 Zn1 1_555 1_555
O2 C11 1_555 1_555
C11 O1 1_555 1_555
C12 C11 1_555 1_555
C13 C12 1_555 1_555
C14 C13 1_555 1_555
H9 C14 1_555 1_555
C15 C14 1_555 1_555
H10 C15 1_555 1_555
C16 C15 1_555 1_555
H11 C16 1_555 1_555
C17 C12 1_555 1_555
H12 C17 1_555 1_555
C18 C13 1_555 1_555
O3 C18 1_555 1_555
O4 C18 1_555 1_555
O5 H13 1_555 1_555
H14 O5 1_555 1_555
Zn1F O3 1_555 1_555
Zn1_2 N2F 1_555 1_555
Zn1F_2 N2 1_555 1_555
N1F Zn1F 1_555 1_555
C1F N1F 1_555 1_555
H1F C1F 1_555 1_555
C2F C1F 1_555 1_555
H2F C2F 1_555 1_555
C3F C2F 1_555 1_555
C4F C3F 1_555 1_555
H3F C4F 1_555 1_555
C5F N1F 1_555 1_555
H4F C5F 1_555 1_555
S1F C3F 1_555 1_555
S2F S1F 1_555 1_555
C6F S2F 1_555 1_555
C7F C6F 1_555 1_555
H5F C7F 1_555 1_555
C8F C7F 1_555 1_555
H6F C8F 1_555 1_555
N2F C8F 1_555 1_555
N2_2 Zn1F 1_555 1_555
N2F_2 Zn1 1_555 1_555
C9F N2F 1_555 1_555
H7F C9F 1_555 1_555
C10F C6F 1_555 1_555
H8F C10F 1_555 1_555
O1F Zn1F 1_555 1_555
O2F C11F 1_555 1_555
C11F O1F 1_555 1_555
C12F C11F 1_555 1_555
C13F C12F 1_555 1_555
C14F C13F 1_555 1_555
H9F C14F 1_555 1_555
C15F C14F 1_555 1_555
H10F C15F 1_555 1_555
C16F C15F 1_555 1_555
H11F C16F 1_555 1_555
C17F C12F 1_555 1_555
H12F C17F 1_555 1_555
C18F C13F 1_555 1_555
O3F Zn1 1_555 1_555
O4F C18F 1_555 1_555
C4 C5 1_555 1_555
C9 C10 1_555 1_555
C16 C17 1_555 1_555
C4F C5F 1_555 1_555
C9F C10F 1_555 1_555
C16F C17F 1_555 1_555
C18F O3F 1_555 1_555

#END
