
#######################################################################
#
#                 Cambridge Crystallographic Data Centre
#                                CCDC 
#
#######################################################################
#
# If this CIF has been generated from an entry in the Cambridge 
# Structural Database, then it will include bibliographic, chemical, 
# crystal, experimental, refinement or atomic coordinate data resulting 
# from the CCDC's data processing and validation procedures.
#
#######################################################################

data_TAWTES
_symmetry_cell_setting           monoclinic
_symmetry_space_group_name_H-M   'P 21/c'
_symmetry_Int_Tables_number      14
_space_group_name_Hall           '-P 2ybc'
loop_
_symmetry_equiv_pos_site_id
_symmetry_equiv_pos_as_xyz
1 x,y,z
2 -x,1/2+y,1/2-z
3 -x,-y,-z
4 x,1/2-y,1/2+z
_cell_length_a                   11.152(2)
_cell_length_b                   11.432(2)
_cell_length_c                   18.163(4)
_cell_angle_alpha                90
_cell_angle_beta                 95.31(3)
_cell_angle_gamma                90
_cell_volume                     2305.66
loop_
_atom_site_label
_atom_site_type_symbol
_atom_site_fract_x
_atom_site_fract_y
_atom_site_fract_z
Zn1 Zn 0.78131(3) 0.73548(3) 0.187372(17)
N1 N 0.6394(2) 0.7941(2) 0.11263(12)
C1 C 0.6182(3) 0.7670(2) 0.04061(15)
H1 H 0.6745 0.7218 0.0188
C2 C 0.5169(3) 0.8032(3) -0.00214(15)
H2 H 0.5061 0.7835 -0.0520
C3 C 0.4310(2) 0.8692(2) 0.02952(14)
C4 C 0.4521(3) 0.8981(3) 0.10320(16)
H3 H 0.3966 0.9424 0.1264
C5 C 0.5571(3) 0.8598(3) 0.14190(16)
H4 H 0.5713 0.8811 0.1914
S1 S 0.30071(7) 0.91250(8) -0.02768(4)
S2 S 0.21188(6) 1.02181(7) 0.03672(5)
C6 C 0.1068(2) 0.9325(2) 0.07795(14)
C7 C 0.0962(3) 0.8126(3) 0.07171(17)
H5 H 0.1494 0.7702 0.0455
C8 C 0.0061(3) 0.7568(2) 0.10476(17)
H6 H 0.0004 0.6759 0.1006
N2 N -0.07358(19) 0.81287(19) 0.14252(12)
C9 C -0.0600(3) 0.9286(2) 0.14951(16)
H7 H -0.1132 0.9690 0.1767
C10 C 0.0278(3) 0.9913(2) 0.11894(17)
H8 H 0.0339 1.0718 0.1257
O1 O 0.74610(19) 0.83976(17) 0.26714(10)
O2 O 0.8898(2) 0.7577(2) 0.34199(13)
C11 C 0.8075(2) 0.8278(2) 0.33010(15)
C12 C 0.7728(2) 0.9084(2) 0.39007(14)
C13 C 0.6651(3) 0.9685(3) 0.38293(16)
H9 H 0.6136 0.9606 0.3399
C14 C 0.6330(3) 1.0406(3) 0.43914(19)
H10 H 0.5593 1.0792 0.4343
C15 C 0.7096(4) 1.0551(3) 0.50191(18)
H11 H 0.6883 1.1040 0.5395
C16 C 0.8178(3) 0.9976(3) 0.50909(17)
H12 H 0.8702 1.0080 0.5515
C17 C 0.8493(3) 0.9241(3) 0.45373(15)
H13 H 0.9226 0.8848 0.4593
O3 O 0.8248(2) 0.57008(17) 0.18705(11)
O4 O 0.6370(3) 0.5721(2) 0.21429(18)
C18 C 0.7293(3) 0.5179(3) 0.20301(16)
C19 C 0.7335(3) 0.3877(2) 0.20942(14)
C20 C 0.8402(3) 0.3272(2) 0.21028(15)
H14 H 0.9111 0.3668 0.2032
C21 C 0.8422(3) 0.2076(3) 0.22166(18)
H15 H 0.9147 0.1673 0.2232
C22 C 0.7378(3) 0.1480(3) 0.23073(18)
H16 H 0.7399 0.0677 0.2391
C23 C 0.6301(3) 0.2068(3) 0.2275(2)
H17 H 0.5588 0.1666 0.2324
C24 C 0.6291(3) 0.3262(3) 0.21705(18)
H18 H 0.5563 0.3662 0.2151
Zn1_2 Zn -0.21869(3) 0.73548(3) 0.187372(17)
N2_2 N 0.92642(19) 0.81287(19) 0.14252(12)
loop_
_geom_bond_atom_site_label_1
_geom_bond_atom_site_label_2
_geom_bond_site_symmetry_1
_geom_bond_site_symmetry_2
Zn1 N1 1_555 1_555
N1 C1 1_555 1_555
C1 H1 1_555 1_555
C2 C1 1_555 1_555
H2 C2 1_555 1_555
C3 C2 1_555 1_555
C4 C3 1_555 1_555
H3 C4 1_555 1_555
C5 N1 1_555 1_555
H4 C5 1_555 1_555
S1 C3 1_555 1_555
S2 S1 1_555 1_555
C6 S2 1_555 1_555
C7 C6 1_555 1_555
H5 C7 1_555 1_555
C8 C7 1_555 1_555
H6 C8 1_555 1_555
N2 C8 1_555 1_555
C9 N2 1_555 1_555
H7 C9 1_555 1_555
C10 C6 1_555 1_555
H8 C10 1_555 1_555
O1 Zn1 1_555 1_555
O2 C11 1_555 1_555
C11 O1 1_555 1_555
C12 C11 1_555 1_555
C13 C12 1_555 1_555
H9 C13 1_555 1_555
C14 C13 1_555 1_555
H10 C14 1_555 1_555
C15 C14 1_555 1_555
H11 C15 1_555 1_555
C16 C15 1_555 1_555
H12 C16 1_555 1_555
C17 C12 1_555 1_555
H13 C17 1_555 1_555
O3 Zn1 1_555 1_555
O4 Zn1 1_555 1_555
C18 O3 1_555 1_555
C19 C18 1_555 1_555
C20 C19 1_555 1_555
H14 C20 1_555 1_555
C21 C20 1_555 1_555
H15 C21 1_555 1_555
C22 C21 1_555 1_555
H16 C22 1_555 1_555
C23 C22 1_555 1_555
H17 C23 1_555 1_555
C24 C19 1_555 1_555
H18 C24 1_555 1_555
Zn1_2 N2 1_555 1_555
N2_2 Zn1 1_555 1_555
C4 C5 1_555 1_555
C9 C10 1_555 1_555
C16 C17 1_555 1_555
O4 C18 1_555 1_555
C23 C24 1_555 1_555

#END
