
#######################################################################
#
#                 Cambridge Crystallographic Data Centre
#                                CCDC 
#
#######################################################################
#
# If this CIF has been generated from an entry in the Cambridge 
# Structural Database, then it will include bibliographic, chemical, 
# crystal, experimental, refinement or atomic coordinate data resulting 
# from the CCDC's data processing and validation procedures.
#
#######################################################################

data_TAWWIZ
_symmetry_cell_setting           orthorhombic
_symmetry_space_group_name_H-M   'P 21 21 21'
_symmetry_Int_Tables_number      19
_space_group_name_Hall           'P 2ac 2ab'
loop_
_symmetry_equiv_pos_site_id
_symmetry_equiv_pos_as_xyz
1 x,y,z
2 1/2-x,-y,1/2+z
3 1/2+x,1/2-y,-z
4 -x,1/2+y,1/2-z
_cell_length_a                   8.7232(2)
_cell_length_b                   11.1390(3)
_cell_length_c                   22.4324(5)
_cell_angle_alpha                90
_cell_angle_beta                 90
_cell_angle_gamma                90
_cell_volume                     2179.71
loop_
_atom_site_label
_atom_site_type_symbol
_atom_site_fract_x
_atom_site_fract_y
_atom_site_fract_z
Ag1 Ag 0.30897(9) 0.00807(10) 0.12200(3)
S1 S 0.5778(5) 0.2883(3) 0.00593(16)
S2 S 0.4747(4) 0.2678(3) 0.13777(14)
S3 S 0.4863(4) 0.6091(3) -0.05623(14)
S4 S 0.2718(3) 0.4748(4) -0.14046(13)
O1 O 0.4386(10) 0.5126(9) 0.0692(4)
O2 O 0.4674(15) -0.1719(13) 0.1366(5)
O3 O 0.4581(13) -0.0513(10) 0.2111(4)
O4 O 0.5874(12) -0.2143(12) 0.2179(6)
N1 N 0.4300(11) 0.1135(11) 0.0532(4)
N2 N 0.5686(11) 0.4750(9) -0.1466(4)
N3 N 0.5015(18) -0.1458(15) 0.1885(9)
C1 C 0.5337(9) 0.1688(7) -0.0379(5)
C2 C 0.5635(8) 0.1506(8) -0.0981(5)
H1 H 0.6174 0.2080 -0.1197
C3 C 0.5127(10) 0.0466(10) -0.1261(3)
H2 H 0.5326 0.0344 -0.1663
C4 C 0.4320(9) -0.0392(7) -0.0938(5)
H3 H 0.3980 -0.1088 -0.1125
C5 C 0.4022(8) -0.0210(9) -0.0336(5)
H4 H 0.3483 -0.0785 -0.0120
C6 C 0.4530(10) 0.0830(11) -0.0057(3)
C7 C 0.4896(14) 0.2183(13) 0.0656(6)
C8 C 0.5805(13) 0.4049(11) 0.1413(5)
H5 H 0.6267 0.4118 0.1805
H6 H 0.6629 0.4019 0.1123
C9 C 0.4861(14) 0.5135(12) 0.1299(5)
H7 H 0.3972 0.5137 0.1558
H8 H 0.5457 0.5852 0.1380
C10 C 0.3494(15) 0.6106(12) 0.0516(6)
H9 H 0.4056 0.6849 0.0574
H10 H 0.2559 0.6141 0.0749
C11 C 0.3126(13) 0.5932(11) -0.0133(5)
H11 H 0.2380 0.6525 -0.0261
H12 H 0.2691 0.5140 -0.0196
C12 C 0.4525(16) 0.5162(11) -0.1160(5)
C13 C 0.3541(12) 0.3985(7) -0.1976(4)
C14 C 0.2883(7) 0.3259(8) -0.2411(4)
H13 H 0.1822 0.3188 -0.2434
C15 C 0.3810(12) 0.2640(7) -0.2810(3)
H14 H 0.3370 0.2154 -0.3100
C16 C 0.5395(11) 0.2746(7) -0.2775(3)
H15 H 0.6015 0.2331 -0.3042
C17 C 0.6053(7) 0.3471(8) -0.2340(4)
H16 H 0.7114 0.3542 -0.2317
C18 C 0.5126(13) 0.4091(7) -0.1941(3)
Ag1B Ag 0.80897(9) 0.49193(10) -0.12200(3)
N2B N 0.0686(11) 0.0250(9) 0.1466(4)
loop_
_geom_bond_atom_site_label_1
_geom_bond_atom_site_label_2
_geom_bond_site_symmetry_1
_geom_bond_site_symmetry_2
Ag1 O2 1_555 1_555
S1 C1 1_555 1_555
S2 C7 1_555 1_555
S3 C11 1_555 1_555
S4 C12 1_555 1_555
O1 C9 1_555 1_555
O2 N3 1_555 1_555
O3 Ag1 1_555 1_555
O4 N3 1_555 1_555
N1 Ag1 1_555 1_555
N2 C12 1_555 1_555
N3 O3 1_555 1_555
C1 C2 1_555 1_555
C2 H1 1_555 1_555
C3 C2 1_555 1_555
H2 C3 1_555 1_555
C4 C3 1_555 1_555
H3 C4 1_555 1_555
C5 C4 1_555 1_555
H4 C5 1_555 1_555
C6 N1 1_555 1_555
C7 S1 1_555 1_555
C8 S2 1_555 1_555
H5 C8 1_555 1_555
H6 C8 1_555 1_555
C9 C8 1_555 1_555
H7 C9 1_555 1_555
H8 C9 1_555 1_555
C10 O1 1_555 1_555
H9 C10 1_555 1_555
H10 C10 1_555 1_555
C11 C10 1_555 1_555
H11 C11 1_555 1_555
H12 C11 1_555 1_555
C12 S3 1_555 1_555
C13 S4 1_555 1_555
C14 C13 1_555 1_555
H13 C14 1_555 1_555
C15 C14 1_555 1_555
H14 C15 1_555 1_555
C16 C15 1_555 1_555
H15 C16 1_555 1_555
C17 C16 1_555 1_555
H16 C17 1_555 1_555
C18 N2 1_555 1_555
Ag1B N2 1_555 1_555
N2B Ag1 1_555 1_555
N1 C7 1_555 1_555
C1 C6 1_555 1_555
C5 C6 1_555 1_555
C13 C18 1_555 1_555
C17 C18 1_555 1_555

#END
