
#######################################################################
#
#                 Cambridge Crystallographic Data Centre
#                                CCDC 
#
#######################################################################
#
# If this CIF has been generated from an entry in the Cambridge 
# Structural Database, then it will include bibliographic, chemical, 
# crystal, experimental, refinement or atomic coordinate data resulting 
# from the CCDC's data processing and validation procedures.
#
#######################################################################

data_TAWXOE
_symmetry_cell_setting           monoclinic
_symmetry_space_group_name_H-M   'P 21/c'
_symmetry_Int_Tables_number      14
_space_group_name_Hall           '-P 2ybc'
loop_
_symmetry_equiv_pos_site_id
_symmetry_equiv_pos_as_xyz
1 x,y,z
2 -x,1/2+y,1/2-z
3 -x,-y,-z
4 x,1/2-y,1/2+z
_cell_length_a                   15.253(2)
_cell_length_b                   11.594(1)
_cell_length_c                   20.752(2)
_cell_angle_alpha                90
_cell_angle_beta                 108.53(1)
_cell_angle_gamma                90
_cell_volume                     3479.6
loop_
_atom_site_label
_atom_site_type_symbol
_atom_site_fract_x
_atom_site_fract_y
_atom_site_fract_z
Cu1 Cu 0.4830(1) -0.8961(2) -0.2881(1)
Cu2 Cu -0.0052(1) -0.1910(1) -0.2566(1)
N1 N 0.3859(6) -0.7756(7) -0.2847(4)
C1 C 0.3172(8) -0.7381(10) -0.3385(6)
C2 C 0.2579(7) -0.6469(9) -0.3361(5)
C3 C 0.2703(6) -0.5868(8) -0.2769(5)
C4 C 0.3414(7) -0.6240(9) -0.2221(5)
C5 C 0.3958(7) -0.7174(9) -0.2287(5)
N2 N 0.0973(5) -0.3049(7) -0.2604(4)
C6 C 0.1135(7) -0.3298(9) -0.3173(5)
C7 C 0.1684(6) -0.4198(8) -0.3255(5)
C8 C 0.2126(6) -0.4910(9) -0.2714(5)
C9 C 0.1970(7) -0.4651(9) -0.2115(5)
C10 C 0.1420(7) -0.3715(9) -0.2076(5)
N3 N 0.5935(5) -0.7839(7) -0.2790(4)
C11 C 0.6095(7) -0.7363(9) -0.3317(6)
C12 C 0.6694(7) -0.6439(9) -0.3274(5)
C13 C 0.7140(6) -0.5938(8) -0.2649(5)
C14 C 0.6995(7) -0.6455(9) -0.2095(5)
C15 C 0.6384(7) -0.7372(10) -0.2187(6)
N4 N 0.8930(5) -0.3043(7) -0.2488(4)
C16 C 0.8193(7) -0.3214(10) -0.3038(5)
C17 C 0.7592(7) -0.4132(8) -0.3094(5)
C18 C 0.7742(7) -0.4936(9) -0.2579(5)
C19 C 0.8496(7) -0.4740(9) -0.2010(5)
C20 C 0.9061(7) -0.3806(9) -0.1990(5)
N5 N 0.4449(6) -0.9953(8) -0.3688(5)
C21 C 0.4191(8) -1.0423(11) -0.4190(7)
C22 C 0.3875(9) -1.1041(12) -0.4806(6)
N6 N 0.5194(6) -0.9621(8) -0.1951(5)
C23 C 0.5457(8) -0.9721(11) -0.1389(8)
C24 C 0.5809(10) -0.9842(14) -0.0651(6)
N7 N 0.0360(6) -0.0886(8) -0.1797(5)
C25 C 0.0622(8) -0.0357(10) -0.1327(6)
C26 C 0.0961(8) 0.0315(11) -0.0696(5)
N8 N -0.0545(6) -0.1340(7) -0.3534(5)
C27 C -0.0833(7) -0.1231(9) -0.4109(7)
C28 C -0.1183(8) -0.1090(10) -0.4838(5)
N4_2 N -0.1070(5) -0.3043(7) -0.2488(4)
Cu2_2 Cu 0.9948(1) -0.1910(1) -0.2566(1)
B1 B -0.1332(12) 0.2279(14) -0.5085(8)
F1 F -0.0621(6) 0.2970(8) -0.5072(4)
F2 F -0.1188(7) 0.1825(8) -0.4488(3)
F3 F -0.1389(7) 0.1473(7) -0.5553(4)
F4 F -0.2065(6) 0.2941(9) -0.5265(5)
B2 B 0.6334(11) -0.2375(14) -0.4704(8)
F5 F 0.5889(5) -0.3007(8) -0.4364(4)
F6 F 0.5770(5) -0.2183(7) -0.5320(3)
F7 F 0.6674(7) -0.1423(7) -0.4349(4)
F8 F 0.7052(6) -0.2998(8) -0.4742(4)
loop_
_geom_bond_atom_site_label_1
_geom_bond_atom_site_label_2
_geom_bond_site_symmetry_1
_geom_bond_site_symmetry_2
Cu1 N1 1_555 1_555
Cu2 N2 1_555 1_555
N1 C1 1_555 1_555
C1 C2 1_555 1_555
C2 C3 1_555 1_555
C3 C4 1_555 1_555
C4 C5 1_555 1_555
C5 N1 1_555 1_555
N2 C6 1_555 1_555
C6 C7 1_555 1_555
C7 C8 1_555 1_555
C8 C3 1_555 1_555
C9 C8 1_555 1_555
C10 N2 1_555 1_555
N3 Cu1 1_555 1_555
C11 N3 1_555 1_555
C12 C11 1_555 1_555
C13 C12 1_555 1_555
C14 C13 1_555 1_555
C15 N3 1_555 1_555
N4 C16 1_555 1_555
C16 C17 1_555 1_555
C17 C18 1_555 1_555
C18 C13 1_555 1_555
C19 C18 1_555 1_555
C20 N4 1_555 1_555
N5 Cu1 1_555 1_555
C21 N5 1_555 1_555
C22 C21 1_555 1_555
N6 Cu1 1_555 1_555
C23 N6 1_555 1_555
C24 C23 1_555 1_555
N7 Cu2 1_555 1_555
C25 N7 1_555 1_555
C26 C25 1_555 1_555
N8 Cu2 1_555 1_555
C27 N8 1_555 1_555
C28 C27 1_555 1_555
B1 F1 1_555 1_555
F2 B1 1_555 1_555
F3 B1 1_555 1_555
F4 B1 1_555 1_555
B2 F5 1_555 1_555
F6 B2 1_555 1_555
F7 B2 1_555 1_555
F8 B2 1_555 1_555
N4_2 Cu2 1_555 1_555
Cu2_2 N4 1_555 1_555
C9 C10 1_555 1_555
C14 C15 1_555 1_555
C19 C20 1_555 1_555

#END
