
#######################################################################
#
#                 Cambridge Crystallographic Data Centre
#                                CCDC 
#
#######################################################################
#
# If this CIF has been generated from an entry in the Cambridge 
# Structural Database, then it will include bibliographic, chemical, 
# crystal, experimental, refinement or atomic coordinate data resulting 
# from the CCDC's data processing and validation procedures.
#
#######################################################################

data_TAXBEA
_symmetry_cell_setting           monoclinic
_symmetry_space_group_name_H-M   'P 21/n'
_symmetry_Int_Tables_number      14
_space_group_name_Hall           '-P 2yn'
loop_
_symmetry_equiv_pos_site_id
_symmetry_equiv_pos_as_xyz
1 x,y,z
2 1/2-x,1/2+y,1/2-z
3 -x,-y,-z
4 1/2+x,1/2-y,1/2+z
_cell_length_a                   20.4950(17)
_cell_length_b                   7.3163(6)
_cell_length_c                   20.7520(18)
_cell_angle_alpha                90.00
_cell_angle_beta                 107.1080(10)
_cell_angle_gamma                90.00
_cell_volume                     2974.02
loop_
_atom_site_label
_atom_site_type_symbol
_atom_site_fract_x
_atom_site_fract_y
_atom_site_fract_z
Ag1 Ag 0.05350(2) 0.32890(8) 0.53371(2)
Ag2 Ag 0.518449(17) 0.73817(6) 0.497305(19)
Si1 Si 0.22930(5) 0.60217(16) 0.37378(5)
Si2 Si 0.15358(5) 0.73313(15) 0.78718(6)
N1 N 0.08452(19) 0.3291(6) 0.44299(19)
N2 N 0.41916(17) 0.6863(5) 0.50936(18)
N3 N 0.11150(18) 0.7217(5) 0.97020(18)
N4 N 0.04994(18) 0.3877(5) 0.63434(18)
C1 C 0.0571(2) 0.2119(6) 0.3931(2)
H1 H 0.0218 0.1355 0.3962
C2 C 0.0798(2) 0.2023(6) 0.3375(2)
H2 H 0.0594 0.1212 0.3030
C3 C 0.16176(18) 0.4371(6) 0.38307(19)
C4 C 0.1324(2) 0.3115(6) 0.3325(2)
H3 H 0.1485 0.3017 0.2952
C5 C 0.1343(2) 0.4407(7) 0.4366(2)
H4 H 0.1516 0.5263 0.4705
C6 C 0.4066(2) 0.7143(6) 0.5679(2)
H5 H 0.4430 0.7398 0.6058
C7 C 0.3416(2) 0.7069(6) 0.5742(2)
H6 H 0.3342 0.7269 0.6158
C8 C 0.2877(2) 0.6696(6) 0.5180(2)
H7 H 0.2436 0.6668 0.5217
C9 C 0.29838(19) 0.6360(5) 0.45599(18)
C10 C 0.3654(2) 0.6472(6) 0.4548(2)
H8 H 0.3743 0.6265 0.4139
C11 C 0.1708(2) 0.6693(6) 1.0137(2)
H9 H 0.1735 0.6558 1.0590
C12 C 0.2280(2) 0.6345(6) 0.9934(2)
H10 H 0.2687 0.5999 1.0248
C13 C 0.2245(2) 0.6511(6) 0.9270(2)
H11 H 0.2627 0.6261 0.9131
C14 C 0.16336(19) 0.7059(5) 0.8798(2)
C15 C 0.1092(2) 0.7407(6) 0.9054(2)
H12 H 0.0684 0.7802 0.8753
C16 C 0.0031(2) 0.3065(6) 0.6597(2)
H13 H -0.0279 0.2250 0.6327
C17 C 0.0002(2) 0.3402(6) 0.7230(2)
H14 H -0.0322 0.2822 0.7392
C18 C 0.0461(2) 0.4625(6) 0.7631(2)
H15 H 0.0444 0.4863 0.8066
C19 C 0.09413(18) 0.5490(5) 0.7397(2)
C20 C 0.0928(2) 0.5061(6) 0.6739(2)
H16 H 0.1240 0.5646 0.6563
C21 C 0.2671(2) 0.5171(8) 0.3086(2)
H17 H 0.2881 0.4003 0.3221
H18 H 0.3009 0.6021 0.3035
H19 H 0.2319 0.5046 0.2665
C22 C 0.1879(2) 0.8275(7) 0.3492(3)
H20 H 0.1688 0.8694 0.3836
H21 H 0.1523 0.8158 0.3074
H22 H 0.2212 0.9139 0.3440
C23 C 0.1122(2) 0.9553(6) 0.7570(2)
H23 H 0.0684 0.9604 0.7650
H24 H 0.1403 1.0531 0.7807
H25 H 0.1063 0.9673 0.7095
C24 C 0.2384(2) 0.7122(7) 0.7732(3)
H26 H 0.2580 0.5955 0.7894
H27 H 0.2336 0.7223 0.7259
H28 H 0.2678 0.8077 0.7971
Ag2C Ag 0.018449(17) 0.76183(6) 0.997305(19)
N3C N 0.61150(18) 0.7783(5) 0.47020(18)
N5 N 0.58652(19) 0.9814(6) 0.64408(19)
O1 O 0.6201(5) 1.0980(12) 0.6709(3)
O2 O 0.6035(4) 0.8248(9) 0.6515(5)
O3 O 0.5324(3) 1.0059(10) 0.6045(3)
N6 N -0.1111(3) 0.1422(7) 0.4522(3)
O4 O -0.1058(5) 0.0187(10) 0.4168(4)
O7 O -0.0610(11) 0.147(4) 0.4976(11)
O8 O -0.1613(5) 0.2391(16) 0.4218(5)
O9 O 0.5427(2) 1.4707(8) 0.6711(3)
O5? O -0.0812(10) 0.2798(19) 0.4656(10)
O6? O -0.1139(12) 0.130(3) 0.5082(7)
loop_
_geom_bond_atom_site_label_1
_geom_bond_atom_site_label_2
_geom_bond_site_symmetry_1
_geom_bond_site_symmetry_2
Ag1 N1 1_555 1_555
Ag2 N2 1_555 1_555
Si1 C3 1_555 1_555
Si2 C14 1_555 1_555
N1 C1 1_555 1_555
N2 C6 1_555 1_555
N3 C11 1_555 1_555
N4 Ag1 1_555 1_555
C1 H1 1_555 1_555
C2 C1 1_555 1_555
H2 C2 1_555 1_555
C3 C4 1_555 1_555
C4 C2 1_555 1_555
H3 C4 1_555 1_555
C5 N1 1_555 1_555
H4 C5 1_555 1_555
C6 H5 1_555 1_555
C7 C6 1_555 1_555
H6 C7 1_555 1_555
C8 C7 1_555 1_555
H7 C8 1_555 1_555
C9 Si1 1_555 1_555
C10 N2 1_555 1_555
H8 C10 1_555 1_555
C11 H9 1_555 1_555
C12 C11 1_555 1_555
H10 C12 1_555 1_555
C13 C12 1_555 1_555
H11 C13 1_555 1_555
C14 C13 1_555 1_555
C15 N3 1_555 1_555
H12 C15 1_555 1_555
C16 N4 1_555 1_555
H13 C16 1_555 1_555
C17 C16 1_555 1_555
H14 C17 1_555 1_555
C18 C17 1_555 1_555
H15 C18 1_555 1_555
C19 Si2 1_555 1_555
C20 N4 1_555 1_555
H16 C20 1_555 1_555
C21 Si1 1_555 1_555
H17 C21 1_555 1_555
H18 C21 1_555 1_555
H19 C21 1_555 1_555
C22 Si1 1_555 1_555
H20 C22 1_555 1_555
H21 C22 1_555 1_555
H22 C22 1_555 1_555
C23 Si2 1_555 1_555
H23 C23 1_555 1_555
H24 C23 1_555 1_555
H25 C23 1_555 1_555
C24 Si2 1_555 1_555
H26 C24 1_555 1_555
H27 C24 1_555 1_555
H28 C24 1_555 1_555
N5 O1 1_555 1_555
O2 N5 1_555 1_555
O3 N5 1_555 1_555
N6 O4 1_555 1_555
O7 N6 1_555 1_555
O8 N6 1_555 1_555
Ag2C N3 1_555 1_555
N3C Ag2 1_555 1_555
C3 C5 1_555 1_555
C8 C9 1_555 1_555
C9 C10 1_555 1_555
C14 C15 1_555 1_555
C18 C19 1_555 1_555
C19 C20 1_555 1_555

#END
