
#######################################################################
#
#                 Cambridge Crystallographic Data Centre
#                                CCDC 
#
#######################################################################
#
# If this CIF has been generated from an entry in the Cambridge 
# Structural Database, then it will include bibliographic, chemical, 
# crystal, experimental, refinement or atomic coordinate data resulting 
# from the CCDC's data processing and validation procedures.
#
#######################################################################

data_TAXFII
_symmetry_cell_setting           rhombohedral
_symmetry_space_group_name_H-M   'R -3 c'
_symmetry_Int_Tables_number      167
_space_group_name_Hall           '-R 3 2"c'
loop_
_symmetry_equiv_pos_site_id
_symmetry_equiv_pos_as_xyz
1 x,y,z
2 -y,x-y,z
3 -x+y,-x,z
4 y,x,1/2-z
5 2/3+x,1/3+y,1/3+z
6 2/3-y,1/3+x-y,1/3+z
7 2/3-x+y,1/3-x,1/3+z
8 2/3+y,1/3+x,5/6-z
9 1/3+x,2/3+y,2/3+z
10 1/3+y,2/3+x,1/6-z
11 x-y,-y,1/2-z
12 -x,-x+y,1/2-z
13 1/3-y,2/3+x-y,2/3+z
14 1/3-x+y,2/3-x,2/3+z
15 1/3+x-y,2/3-y,1/6-z
16 1/3-x,2/3-x+y,1/6-z
17 2/3+x-y,1/3-y,5/6-z
18 2/3-x,1/3-x+y,5/6-z
19 -x,-y,-z
20 y,-x+y,-z
21 x-y,x,-z
22 -y,-x,1/2+z
23 1/3-x,2/3-y,2/3-z
24 1/3+y,2/3-x+y,2/3-z
25 1/3+x-y,2/3+x,2/3-z
26 1/3-y,2/3-x,1/6+z
27 2/3-x,1/3-y,1/3-z
28 2/3-y,1/3-x,5/6+z
29 -x+y,y,1/2+z
30 x,x-y,1/2+z
31 2/3+y,1/3-x+y,1/3-z
32 2/3+x-y,1/3+x,1/3-z
33 2/3-x+y,1/3+y,5/6+z
34 2/3+x,1/3+x-y,5/6+z
35 1/3-x+y,2/3+y,1/6+z
36 1/3+x,2/3+x-y,1/6+z
_cell_length_a                   14.0998(12)
_cell_length_b                   14.0998(12)
_cell_length_c                   42.727(5)
_cell_angle_alpha                90
_cell_angle_beta                 90
_cell_angle_gamma                120.00
_cell_volume                     7356.29
loop_
_atom_site_label
_atom_site_type_symbol
_atom_site_fract_x
_atom_site_fract_y
_atom_site_fract_z
Co1 Co 0.05639(3) 0.90188(2) 0.037627(7)
O1 O 0.09075(13) 0.76794(13) 0.03068(3)
O2 O -0.00842(13) 0.79695(13) -0.00318(4)
O3 O -0.12343(14) 0.39806(14) -0.09746(4)
O4 O -0.17801(14) 0.52148(13) -0.09112(4)
O5 O 0.0000 1.0000 0.02879(6)
C1 C 0.04059(17) 0.74609(17) 0.00483(5)
C2 C -0.11761(18) 0.48125(18) -0.08474(5)
C3 C 0.04322(18) 0.66317(18) -0.01646(5)
C4 C 0.1271(2) 0.6389(2) -0.01362(7)
C5 C 0.1321(3) 0.5654(3) -0.03378(8)
C6 C 0.0530(2) 0.5157(2) -0.05692(8)
C7 C -0.03188(18) 0.53752(18) -0.05979(5)
C8 C -0.03612(19) 0.61242(18) -0.03952(5)
H1 H 0.178(3) 0.669(3) 0.0012(9)
H2 H 0.061(3) 0.471(3) -0.0707(8)
H3 H 0.195(4) 0.554(4) -0.0320(11)
H4 H -0.090(3) 0.626(3) -0.0410(7)
Co1T Co 0.15451(4) 1.05639(3) -0.037627(7)
Co1Y Co -0.56855(2) 0.61028(3) 0.204294(7)
Co1S Co -0.09812(2) 0.84549(4) -0.037627(7)
Co1AA Co -0.23521(2) 0.27694(3) -0.129040(7)
Co1GA Co -0.27694(3) 0.48784(4) -0.129040(7)
Co1A Co 0.09812(2) 1.15451(4) 0.037627(7)
Co1B Co -0.15451(4) 0.94361(3) 0.037627(7)
Co1N Co 0.48784(4) 0.76479(2) 0.129040(7)
Co1I Co 0.23521(2) 0.72306(3) 0.129040(7)
Co1N_2 Co -0.51216(4) 0.76479(2) 0.129040(7)
Co1O Co -0.72306(3) 0.51216(4) 0.129040(7)
Co1HA Co -0.82118(4) 0.56855(2) 0.204294(7)
Co1IA Co -0.61028(3) 0.82118(4) 0.204294(7)
Co1DA Co -0.43145(2) 0.17882(4) 0.295706(7)
Co1Z Co -0.38972(3) 0.43145(2) 0.295706(7)
Co1F Co -0.48784(4) 0.27694(3) 0.370960(7)
Co1D Co -0.27694(3) 1.23521(2) 0.370960(7)
Co1DA_2 Co -0.43145(2) 1.17882(4) 0.295706(7)
O1T O 0.32281(18) 1.09075(13) -0.03068(3)
O1Y O -0.43461(13) 0.57592(13) 0.19735(3)
O1O O -0.75742(13) 0.34386(18) 0.13599(3)
O1F O -0.65614(18) 0.24258(13) 0.36401(3)
O1D O -0.24258(13) 1.10127(13) 0.36401(3)
O1DA O -0.56539(13) 0.01052(18) 0.30265(3)
O2T O 0.19463(18) 0.99158(13) 0.00318(4)
O2Y O -0.46362(13) 0.67509(13) 0.16349(4)
O2A O 0.20305(13) 1.19463(18) -0.00318(4)
O2O O -0.65825(13) 0.47204(18) 0.16985(4)
O2F O -0.52796(18) 0.34175(13) 0.33015(4)
O2D O -0.34175(13) 1.13028(13) 0.33015(4)
O2HA O -0.86130(18) 0.46362(13) 0.16349(4)
O2EA O -0.13870(18) 1.32491(13) 0.33651(4)
O2D_2 O -0.34175(13) 0.13028(13) 0.33015(4)
O2DA O -0.53638(13) 0.13870(18) 0.33651(4)
O3T O 0.47851(20) 0.87657(14) 0.09746(4)
O3Y O -0.06473(14) 0.79010(14) 0.06921(4)
O3P O 0.14518(20) 0.93527(14) -0.06921(4)
O3D O -0.45676(14) 0.73139(14) 0.23587(4)
O3O O -0.54324(14) 0.18816(20) 0.26413(4)
O3F O -0.81184(20) 0.45676(14) 0.23587(4)
O3S O -0.60194(14) 0.52149(20) 0.09746(4)
O3U O -0.39806(14) 1.12343(14) 0.40254(4)
O4T O 0.30051(19) 0.82199(14) 0.09112(4)
O4Y O -0.18815(13) 0.84468(14) 0.07555(4)
O4IA O 0.15532(14) 0.96718(19) 0.07555(4)
O4G O 0.18815(13) 1.15532(14) -0.07555(4)
O4F O -0.63384(19) 0.51134(14) 0.24221(4)
O4O O -0.48866(14) 0.36616(19) 0.25779(4)
O4D O -0.51134(14) 0.85481(13) 0.24221(4)
O4R O -0.82199(14) 0.47852(13) 0.09112(4)
O4CA O -0.17801(14) 1.30051(19) 0.40888(4)
O4N O -0.36616(19) 0.14519(13) 0.25779(4)
O5R O 0.0000 1.0000 -0.02879(6)
O5HA O -0.6667 0.6667 0.19546(6)
O5I O -0.6667 0.6667 0.13788(6)
O5D O -0.3333 1.3333 0.36212(6)
O5DA O -0.3333 0.3333 0.30454(6)
C1T C 0.29450(24) 1.04059(17) -0.00483(5)
C1Y C -0.41276(17) 0.62608(17) 0.17150(5)
C1O C -0.70726(17) 0.37217(24) 0.16184(5)
C1F C -0.62783(24) 0.29274(17) 0.33816(5)
C1D C -0.29274(17) 1.07942(17) 0.33816(5)
C2T C 0.40114(25) 0.88239(18) 0.08474(5)
C2Y C -0.14792(18) 0.78428(18) 0.08193(5)
C2F C -0.73447(25) 0.45094(18) 0.24859(5)
C2D C -0.45094(18) 0.81458(18) 0.24859(5)
C2O C -0.54906(18) 0.26553(25) 0.25141(5)
C3T C 0.38005(25) 1.04322(18) 0.01646(5)
C3Y C -0.32984(18) 0.62345(18) 0.15021(5)
C3O C -0.70989(18) 0.28662(25) 0.18313(5)
C3F C -0.71338(25) 0.29011(18) 0.31687(5)
C3D C -0.29011(18) 0.99650(18) 0.31687(5)
C4T C 0.4882(3) 1.1271(2) 0.01362(7)
C4Y C -0.3056(2) 0.5396(2) 0.15305(7)
C4O C -0.7938(2) 0.1785(3) 0.18029(7)
C4F C -0.8215(3) 0.2062(2) 0.31971(7)
C4D C -0.2062(2) 0.9722(2) 0.31971(7)
C5T C 0.5667(4) 1.1321(3) 0.03378(8)
C5Y C -0.2321(3) 0.5346(3) 0.13289(8)
C5O C -0.7988(3) 0.1000(4) 0.20045(8)
C5F C -0.9000(4) 0.2012(3) 0.29955(8)
C5D C -0.2012(3) 0.8987(3) 0.29955(8)
C6T C 0.5373(3) 1.0530(2) 0.05692(8)
C6Y C -0.1824(2) 0.6137(2) 0.10975(8)
C6O C -0.7197(2) 0.1294(3) 0.22359(8)
C6F C -0.8706(3) 0.2803(2) 0.27641(8)
C6D C -0.2803(2) 0.8490(2) 0.27641(8)
C7T C 0.43060(25) 0.96812(18) 0.05979(5)
C7Y C -0.20419(18) 0.69855(18) 0.10688(5)
C7O C -0.63479(18) 0.23607(25) 0.22646(5)
C7F C -0.76393(25) 0.36521(18) 0.27354(5)
C7D C -0.36521(18) 0.87085(18) 0.27354(5)
C8T C 0.35146(26) 0.96388(19) 0.03952(5)
C8Y C -0.27909(18) 0.70279(19) 0.12715(5)
C8O C -0.63055(19) 0.31521(26) 0.20619(5)
C8F C -0.68479(26) 0.36945(19) 0.29381(5)
C8D C -0.36945(19) 0.94575(18) 0.29381(5)
H1T H 0.509(4) 1.178(3) -0.0012(9)
H1Y H -0.336(3) 0.489(3) 0.1679(9)
H1O H -0.845(3) 0.158(4) 0.1655(9)
H1D H -0.155(3) 1.002(3) 0.3345(9)
H1F H -0.842(4) 0.155(3) 0.3345(9)
H2T H 0.590(4) 1.061(3) 0.0707(8)
H2Y H -0.138(3) 0.606(3) 0.0960(8)
H2O H -0.728(3) 0.077(4) 0.2374(8)
H2F H -0.923(4) 0.272(3) 0.2626(8)
H2D H -0.272(3) 0.804(3) 0.2626(8)
H3T H 0.641(6) 1.195(4) 0.0320(11)
H3Y H -0.221(4) 0.472(4) 0.1347(11)
H3O H -0.862(4) 0.026(6) 0.1987(11)
H3F H -0.974(6) 0.138(4) 0.3013(11)
H3D H -0.138(4) 0.887(4) 0.3013(11)
H4T H 0.284(4) 0.910(3) 0.0410(7)
H4Y H -0.293(3) 0.757(3) 0.1257(7)
H4O H -0.577(3) 0.383(4) 0.2077(7)
H4F H -0.617(4) 0.423(3) 0.2923(7)
H4D H -0.423(3) 0.959(3) 0.2923(7)
Na1 Na 0.10282(12) 0.76949(12) 0.0833
O6 O 0.0000 1.0000 0.1271(3)
loop_
_geom_bond_atom_site_label_1
_geom_bond_atom_site_label_2
_geom_bond_site_symmetry_1
_geom_bond_site_symmetry_2
Co1 O1 1_555 1_555
O1 C1 1_555 1_555
O2 Co1 1_555 1_555
O3 C2 1_555 1_555
O4 C2 1_555 1_555
O5 Co1 1_555 1_555
C1 O2 1_555 1_555
C2 C7 1_555 1_555
C3 C1 1_555 1_555
C4 C3 1_555 1_555
C5 C4 1_555 1_555
C6 C5 1_555 1_555
C7 C6 1_555 1_555
C8 C3 1_555 1_555
H1 C4 1_555 1_555
H2 C6 1_555 1_555
H3 C5 1_555 1_555
H4 C8 1_555 1_555
Co1T O1T 1_555 1_555
Co1Y O1Y 1_555 1_555
Co1S O2 1_555 1_555
Co1AA O3 1_555 1_555
Co1GA O4 1_555 1_555
Co1A O5 1_555 1_555
Co1B O5 1_555 1_555
Co1N O3T 1_555 1_555
Co1I O4T 1_555 1_555
Co1N_2 O2Y 1_555 1_555
Co1O O1O 1_555 1_555
Co1HA O2HA 1_555 1_555
Co1IA O4D 1_555 1_555
Co1DA O1DA 1_555 1_555
Co1Z O2F 1_555 1_555
Co1F O1F 1_555 1_555
Co1D O1D 1_555 1_555
Co1DA_2 O2D 1_555 1_555
O1T C1T 1_555 1_555
O1Y C1Y 1_555 1_555
O1O C1O 1_555 1_555
O1F C1F 1_555 1_555
O1D C1D 1_555 1_555
O2T Co1 1_555 1_555
O2Y Co1Y 1_555 1_555
O2A Co1T 1_555 1_555
O2O Co1Y 1_555 1_555
O2F Co1F 1_555 1_555
O2D Co1D 1_555 1_555
O2HA Co1O 1_555 1_555
O2EA Co1D 1_555 1_555
O2D_2 Co1DA 1_555 1_555
O2DA Co1DA 1_555 1_555
O3T C2T 1_555 1_555
O3Y Co1 1_555 1_555
O3P Co1T 1_555 1_555
O3D Co1Y 1_555 1_555
O3O Co1DA 1_555 1_555
O3F Co1HA 1_555 1_555
O3S Co1O 1_555 1_555
O3U Co1D 1_555 1_555
O4T C2T 1_555 1_555
O4Y Co1B 1_555 1_555
O4IA Co1 1_555 1_555
O4G Co1T 1_555 1_555
O4F Co1Y 1_555 1_555
O4O Co1Z 1_555 1_555
O4D C2D 1_555 1_555
O4R Co1O 1_555 1_555
O4CA Co1D 1_555 1_555
O4N Co1DA 1_555 1_555
O5R Co1T 1_555 1_555
O5HA Co1Y 1_555 1_555
O5I Co1N_2 1_555 1_555
O5D Co1D 1_555 1_555
O5DA Co1DA 1_555 1_555
C1T O2T 1_555 1_555
C1Y O2Y 1_555 1_555
C1O O2O 1_555 1_555
C1F O2F 1_555 1_555
C1D O2D 1_555 1_555
C2T C7T 1_555 1_555
C2Y O3Y 1_555 1_555
C2F O3F 1_555 1_555
C2D O3D 1_555 1_555
C2O O3O 1_555 1_555
C3T C1T 1_555 1_555
C3Y C1Y 1_555 1_555
C3O C1O 1_555 1_555
C3F C1F 1_555 1_555
C3D C1D 1_555 1_555
C4T C3T 1_555 1_555
C4Y C3Y 1_555 1_555
C4O C3O 1_555 1_555
C4F C3F 1_555 1_555
C4D C3D 1_555 1_555
C5T C4T 1_555 1_555
C5Y C4Y 1_555 1_555
C5O C4O 1_555 1_555
C5F C4F 1_555 1_555
C5D C4D 1_555 1_555
C6T C5T 1_555 1_555
C6Y C5Y 1_555 1_555
C6O C5O 1_555 1_555
C6F C5F 1_555 1_555
C6D C5D 1_555 1_555
C7T C6T 1_555 1_555
C7Y C2Y 1_555 1_555
C7O C2O 1_555 1_555
C7F C2F 1_555 1_555
C7D C2D 1_555 1_555
C8T C3T 1_555 1_555
C8Y C3Y 1_555 1_555
C8O C3O 1_555 1_555
C8F C3F 1_555 1_555
C8D C3D 1_555 1_555
H1T C4T 1_555 1_555
H1Y C4Y 1_555 1_555
H1O C4O 1_555 1_555
H1D C4D 1_555 1_555
H1F C4F 1_555 1_555
H2T C6T 1_555 1_555
H2Y C6Y 1_555 1_555
H2O C6O 1_555 1_555
H2F C6F 1_555 1_555
H2D C6D 1_555 1_555
H3T C5T 1_555 1_555
H3Y C5Y 1_555 1_555
H3O C5O 1_555 1_555
H3F C5F 1_555 1_555
H3D C5D 1_555 1_555
H4T C8T 1_555 1_555
H4Y C8Y 1_555 1_555
H4O C8O 1_555 1_555
H4F C8F 1_555 1_555
H4D C8D 1_555 1_555
C7 C8 1_555 1_555
Co1T O2T 1_555 1_555
Co1S O5R 1_555 1_555
Co1A O2A 1_555 1_555
Co1O O2O 1_555 1_555
Co1O O5I 1_555 1_555
Co1HA O5HA 1_555 1_555
Co1IA O5HA 1_555 1_555
Co1Z O5DA 1_555 1_555
Co1F O2DA 1_555 1_555
O4Y C2Y 1_555 1_555
O4F C2F 1_555 1_555
O4O C2O 1_555 1_555
C6Y C7Y 1_555 1_555
C6O C7O 1_555 1_555
C6F C7F 1_555 1_555
C6D C7D 1_555 1_555
C7T C8T 1_555 1_555
C7Y C8Y 1_555 1_555
C7O C8O 1_555 1_555
C7F C8F 1_555 1_555
C7D C8D 1_555 1_555

#END
