
#######################################################################
#
#                 Cambridge Crystallographic Data Centre
#                                CCDC 
#
#######################################################################
#
# If this CIF has been generated from an entry in the Cambridge 
# Structural Database, then it will include bibliographic, chemical, 
# crystal, experimental, refinement or atomic coordinate data resulting 
# from the CCDC's data processing and validation procedures.
#
#######################################################################

data_TAXVAP
_symmetry_cell_setting           monoclinic
_symmetry_space_group_name_H-M   'C 2/c'
_symmetry_Int_Tables_number      15
_space_group_name_Hall           '-C 2yn'
loop_
_symmetry_equiv_pos_site_id
_symmetry_equiv_pos_as_xyz
1 x,y,z
2 -x,y,1/2-z
3 1/2+x,1/2+y,z
4 1/2-x,1/2+y,1/2-z
5 -x,-y,-z
6 x,-y,1/2+z
7 1/2-x,1/2-y,-z
8 1/2+x,1/2-y,1/2+z
_cell_length_a                   12.087(2)
_cell_length_b                   22.800(3)
_cell_length_c                   23.372(2)
_cell_angle_alpha                90
_cell_angle_beta                 100.26(1)
_cell_angle_gamma                90
_cell_volume                     6337.95
loop_
_atom_site_label
_atom_site_type_symbol
_atom_site_fract_x
_atom_site_fract_y
_atom_site_fract_z
Ti1 Ti 0.01045(6) 0.03770(3) 0.11358(3)
C1 C 0.0550(3) -0.1346(2) 0.17635(15)
C2 C 0.0371(3) -0.0828(2) 0.14410(14)
O1 O 0.0125(2) -0.03010(10) 0.16552(10)
C3 C 0.0429(3) -0.0825(2) 0.08445(14)
O2 O 0.0306(2) -0.02814(10) 0.05983(9)
C4 C 0.0583(3) -0.1335(2) 0.05563(15)
H1 H 0.0605(3) -0.1332(2) 0.01520(15)
C5 C 0.0707(4) -0.1857(2) 0.0870(2)
H2 H 0.0801(4) -0.2215(2) 0.0676(2)
C6 C 0.0694(4) -0.1859(2) 0.1466(2)
H3 H 0.0786(4) -0.2220(2) 0.1672(2)
C7 C 0.0581(3) -0.1352(2) 0.2415(2)
H4 H 0.1002(3) -0.1004(2) 0.2588(2)
H5 H 0.0995(3) -0.1705(2) 0.2581(2)
C8 C -0.2511(3) 0.1404(2) 0.15359(15)
C9 C -0.1790(3) 0.1044(2) 0.12968(15)
O3 O -0.0773(2) 0.08592(11) 0.15716(10)
C10 C -0.2092(3) 0.0825(2) 0.0721(2)
O4 O -0.1321(2) 0.04498(11) 0.05751(9)
C11 C -0.3076(3) 0.0998(2) 0.0374(2)
H6 H -0.3268(3) 0.0862(2) -0.0015(2)
C12 C -0.3784(4) 0.1377(2) 0.0605(2)
H7 H -0.4466(4) 0.1503(2) 0.0369(2)
C13 C -0.3512(4) 0.1576(2) 0.1175(2)
H8 H -0.4014(4) 0.1832(2) 0.1322(2)
C14 C -0.2234(3) 0.1591(2) 0.21686(15)
H9 H -0.2229(3) 0.2025(2) 0.21912(15)
H10 H -0.1472(3) 0.1450(2) 0.23402(15)
C15 C -0.2761(3) 0.1462(2) 0.3170(2)
C16 C -0.1969(3) 0.1120(2) 0.35101(14)
O5 O -0.1433(2) 0.06527(11) 0.33258(9)
C17 C -0.1634(3) 0.1228(2) 0.41120(15)
O6 O -0.0821(2) 0.08629(11) 0.43824(10)
C18 C -0.2131(4) 0.1674(2) 0.4369(2)
H11 H -0.1915(4) 0.1747(2) 0.4774(2)
C19 C -0.2942(4) 0.2014(2) 0.4039(2)
H12 H -0.3290(4) 0.2321(2) 0.4218(2)
C20 C -0.3258(4) 0.1914(2) 0.3442(2)
H13 H -0.3816(4) 0.2155(2) 0.3219(2)
C21 C -0.3089(3) 0.1348(2) 0.25202(14)
H14 H -0.3832(3) 0.1528(2) 0.23774(14)
H15 H -0.3165(3) 0.0919(2) 0.24538(14)
Li1 Li 0.0000 -0.0179(4) 0.2500
O7 O -0.1594(3) 0.00539(13) 0.23181(11)
H16 H -0.1616(40) 0.0335(14) 0.2090(17)
H17 H -0.1714(38) 0.0258(17) 0.2596(13)
Li2 Li -0.1229(6) -0.0103(3) -0.0068(3)
O8 O -0.2790(2) -0.02124(13) -0.03580(12)
C22 C -0.3570(4) -0.0368(2) -0.0739(2)
H18 H -0.3992(4) -0.0700(2) -0.0660(2)
N1 N -0.3875(3) -0.0110(2) -0.12532(15)
C23 C -0.3253(4) 0.0378(2) -0.1421(2)
H19 H -0.3769(5) 0.0703(5) -0.1549(13)
H20 H -0.2875(21) 0.0260(4) -0.1740(9)
H21 H -0.2691(17) 0.0504(9) -0.1088(4)
C24 C -0.4763(4) -0.0357(2) -0.1685(2)
H22 H -0.5291(15) -0.0047(3) -0.1843(10)
H23 H -0.5162(18) -0.0660(10) -0.1504(4)
H24 H -0.4436(5) -0.0532(12) -0.2000(7)
C7A C -0.0581(3) -0.1352(2) 0.2585(2)
C1A C -0.0550(3) -0.1346(2) 0.32365(15)
C2A C -0.0371(3) -0.0828(2) 0.35590(14)
O1A O -0.0125(2) -0.03010(10) 0.33448(10)
C3A C -0.0429(3) -0.0825(2) 0.41555(14)
O2A O -0.0306(2) -0.02814(10) 0.44017(9)
C4A C -0.0583(3) -0.1335(2) 0.44437(15)
H1A H -0.0605(3) -0.1332(2) 0.48480(15)
C5A C -0.0707(4) -0.1857(2) 0.4130(2)
H2A H -0.0801(4) -0.2215(2) 0.4324(2)
C6A C -0.0694(4) -0.1859(2) 0.3534(2)
H3A H -0.0786(4) -0.2220(2) 0.3328(2)
H4A H -0.1002(3) -0.1004(2) 0.2412(2)
H5A H -0.0995(3) -0.1705(2) 0.2419(2)
O7A O 0.1594(3) 0.00539(13) 0.26819(11)
H16A H 0.1616(40) 0.0335(14) 0.2910(17)
H17A H 0.1714(38) 0.0258(17) 0.2404(13)
Ti1A Ti -0.01045(6) 0.03770(3) 0.38642(3)
Li2A Li 0.1229(6) -0.0103(3) 0.5068(3)
C8A C 0.2511(3) 0.1404(2) 0.34641(15)
C9A C 0.1790(3) 0.1044(2) 0.37032(15)
O3A O 0.0773(2) 0.08592(11) 0.34284(10)
C10A C 0.2092(3) 0.0825(2) 0.4279(2)
O4A O 0.1321(2) 0.04498(11) 0.44249(9)
C11A C 0.3076(3) 0.0998(2) 0.4626(2)
H6A H 0.3268(3) 0.0862(2) 0.5015(2)
C12A C 0.3784(4) 0.1377(2) 0.4395(2)
H7A H 0.4466(4) 0.1503(2) 0.4631(2)
C13A C 0.3512(4) 0.1576(2) 0.3825(2)
H8A H 0.4014(4) 0.1832(2) 0.3678(2)
C14A C 0.2234(3) 0.1591(2) 0.28314(15)
H9A H 0.2229(3) 0.2025(2) 0.28088(15)
H10A H 0.1472(3) 0.1450(2) 0.26598(15)
C15A C 0.2761(3) 0.1462(2) 0.1830(2)
C16A C 0.1969(3) 0.1120(2) 0.14899(14)
O5A O 0.1433(2) 0.06527(11) 0.16742(9)
C17A C 0.1634(3) 0.1228(2) 0.08880(15)
O6A O 0.0821(2) 0.08629(11) 0.06176(10)
C18A C 0.2131(4) 0.1674(2) 0.0631(2)
H11A H 0.1915(4) 0.1747(2) 0.0226(2)
C19A C 0.2942(4) 0.2014(2) 0.0961(2)
H12A H 0.3290(4) 0.2321(2) 0.0782(2)
C20A C 0.3258(4) 0.1914(2) 0.1558(2)
H13A H 0.3816(4) 0.2155(2) 0.1781(2)
C21A C 0.3089(3) 0.1348(2) 0.24798(14)
H14A H 0.3832(3) 0.1528(2) 0.26226(14)
H15A H 0.3165(3) 0.0919(2) 0.25462(14)
O8A O 0.2790(2) -0.02124(13) 0.53580(12)
C22A C 0.3570(4) -0.0368(2) 0.5739(2)
H18A H 0.3992(4) -0.0700(2) 0.5660(2)
N1A N 0.3875(3) -0.0110(2) 0.62532(15)
C23A C 0.3253(4) 0.0378(2) 0.6421(2)
H19A H 0.3769(5) 0.0703(5) 0.6549(13)
H20A H 0.2875(21) 0.0260(4) 0.6740(9)
H21A H 0.2691(17) 0.0504(9) 0.6088(4)
C24A C 0.4763(4) -0.0357(2) 0.6685(2)
H22A H 0.5291(15) -0.0047(3) 0.6843(10)
H23A H 0.5162(18) -0.0660(10) 0.6504(4)
H24A H 0.4436(5) -0.0532(12) 0.7000(7)
Li2D Li 0.1229(6) 0.0103(3) 0.0068(3)
Li2E Li -0.1229(6) 0.0103(3) 0.4932(3)
O2D O -0.0306(2) 0.02814(10) -0.05983(9)
O6E O -0.0821(2) -0.08629(11) -0.06176(10)
O2E O 0.0306(2) 0.02814(10) 0.55983(9)
O6D O 0.0821(2) -0.08629(11) 0.56176(10)
Li3 Li 0.0000 0.3586(5) 0.2500
O9 O -0.1184(3) 0.31306(14) 0.20369(13)
C25 C -0.1370(4) 0.2984(2) 0.1519(2)
H25 H -0.2003(4) 0.3157(2) 0.1279(2)
N2 N -0.0774(3) 0.2612(2) 0.12693(14)
C26 C 0.0179(4) 0.2304(2) 0.1602(2)
H26 H 0.0830(8) 0.2345(11) 0.1408(7)
H27 H -0.0007(10) 0.1888(3) 0.1629(11)
H28 H 0.0358(17) 0.2472(9) 0.1994(5)
C27 C -0.1105(5) 0.2449(2) 0.0660(2)
H29 H -0.1289(29) 0.2030(4) 0.0633(2)
H30 H -0.0484(11) 0.2528(15) 0.0453(4)
H31 H -0.1766(18) 0.2677(11) 0.0485(4)
O10 O 0.0681(3) 0.3941(2) 0.19213(15)
C28 C 0.1445(4) 0.3832(3) 0.1717(2)
H32 H 0.2000(4) 0.3612(3) 0.1968(2)
N3 N 0.1723(3) 0.3945(2) 0.1213(2)
C29 C 0.1314(14) 0.4461(5) 0.0922(5)
H33 H 0.1926(24) 0.4658(25) 0.0773(41)
H34 H 0.1022(86) 0.4722(21) 0.1193(13)
H35 H 0.0711(62) 0.4364(7) 0.0597(30)
C30 C 0.2541(11) 0.3623(6) 0.0966(6)
H36 H 0.2191(23) 0.3466(37) 0.0587(19)
H37 H 0.2831(59) 0.3299(26) 0.1225(20)
H38 H 0.3162(41) 0.3885(12) 0.0918(40)
O9A O 0.1184(3) 0.31306(14) 0.29631(13)
C25A C 0.1370(4) 0.2984(2) 0.3481(2)
H25A H 0.2003(4) 0.3157(2) 0.3721(2)
N2A N 0.0774(3) 0.2612(2) 0.37307(14)
C26A C -0.0179(4) 0.2304(2) 0.3398(2)
H26A H -0.0830(8) 0.2345(11) 0.3592(7)
H27A H 0.0007(10) 0.1888(3) 0.3371(11)
H28A H -0.0358(17) 0.2472(9) 0.3006(5)
C27A C 0.1105(5) 0.2449(2) 0.4340(2)
H29A H 0.1289(29) 0.2030(4) 0.4367(2)
H30A H 0.0484(11) 0.2528(15) 0.4547(4)
H31A H 0.1766(18) 0.2677(11) 0.4515(4)
O10A O -0.0681(3) 0.3941(2) 0.30787(15)
C28A C -0.1445(4) 0.3832(3) 0.3283(2)
H32A H -0.2000(4) 0.3612(3) 0.3032(2)
N3A N -0.1723(3) 0.3945(2) 0.3787(2)
C29A C -0.1314(14) 0.4461(5) 0.4078(5)
H33A H -0.1926(24) 0.4658(25) 0.4227(41)
H34A H -0.1022(86) 0.4722(21) 0.3807(13)
H35A H -0.0711(62) 0.4364(7) 0.4403(30)
C30A C -0.2541(11) 0.3623(6) 0.4034(6)
H36A H -0.2191(23) 0.3466(37) 0.4413(19)
H37A H -0.2831(59) 0.3299(26) 0.3775(20)
H38A H -0.3162(41) 0.3885(12) 0.4082(40)
C31? C 0.0804(11) 0.3856(11) 0.0739(5)
H39? H 0.0815(74) 0.4163(39) 0.0446(30)
H40? H 0.0092(12) 0.3873(64) 0.0884(12)
H41? H 0.0879(67) 0.3471(29) 0.0563(40)
C32? C 0.2750(10) 0.4107(12) 0.1041(7)
H42? H 0.2592(12) 0.4358(50) 0.0695(36)
H43? H 0.3148(54) 0.3753(12) 0.0950(57)
H44? H 0.3220(49) 0.4322(53) 0.1357(23)
loop_
_geom_bond_atom_site_label_1
_geom_bond_atom_site_label_2
_geom_bond_site_symmetry_1
_geom_bond_site_symmetry_2
Ti1 O1 1_555 1_555
C1 C2 1_555 1_555
C2 O1 1_555 1_555
O1 Li1 1_555 1_555
C3 C2 1_555 1_555
O2 Ti1 1_555 1_555
C4 C3 1_555 1_555
H1 C4 1_555 1_555
C5 C4 1_555 1_555
H2 C5 1_555 1_555
C6 C1 1_555 1_555
H3 C6 1_555 1_555
C7 C1 1_555 1_555
H4 C7 1_555 1_555
H5 C7 1_555 1_555
C8 C9 1_555 1_555
C9 O3 1_555 1_555
O3 Ti1 1_555 1_555
C10 C9 1_555 1_555
O4 Ti1 1_555 1_555
C11 C10 1_555 1_555
H6 C11 1_555 1_555
C12 C11 1_555 1_555
H7 C12 1_555 1_555
C13 C8 1_555 1_555
H8 C13 1_555 1_555
C14 C8 1_555 1_555
H9 C14 1_555 1_555
H10 C14 1_555 1_555
C15 C16 1_555 1_555
C16 O5 1_555 1_555
O5 Ti1A 1_555 1_555
C17 C16 1_555 1_555
O6 C17 1_555 1_555
C18 C17 1_555 1_555
H11 C18 1_555 1_555
C19 C18 1_555 1_555
H12 C19 1_555 1_555
C20 C15 1_555 1_555
H13 C20 1_555 1_555
C21 C14 1_555 1_555
H14 C21 1_555 1_555
H15 C21 1_555 1_555
Li1 O7 1_555 1_555
O7 H16 1_555 1_555
H17 O7 1_555 1_555
Li2 O2 1_555 1_555
O8 Li2 1_555 1_555
C22 O8 1_555 1_555
H18 C22 1_555 1_555
N1 C22 1_555 1_555
C23 N1 1_555 1_555
H19 C23 1_555 1_555
H20 C23 1_555 1_555
H21 C23 1_555 1_555
C24 N1 1_555 1_555
H22 C24 1_555 1_555
H23 C24 1_555 1_555
H24 C24 1_555 1_555
Li3 O9 1_555 1_555
O9 C25 1_555 1_555
C25 H25 1_555 1_555
N2 C25 1_555 1_555
C26 N2 1_555 1_555
H26 C26 1_555 1_555
H27 C26 1_555 1_555
H28 C26 1_555 1_555
C27 N2 1_555 1_555
H29 C27 1_555 1_555
H30 C27 1_555 1_555
H31 C27 1_555 1_555
O10 Li3 1_555 1_555
C28 O10 1_555 1_555
H32 C28 1_555 1_555
N3 C28 1_555 1_555
C29 N3 1_555 1_555
H33 C29 1_555 1_555
H34 C29 1_555 1_555
H35 C29 1_555 1_555
C30 N3 1_555 1_555
H36 C30 1_555 1_555
H37 C30 1_555 1_555
H38 C30 1_555 1_555
C7A C7 1_555 1_555
C1A C7A 1_555 1_555
C2A C1A 1_555 1_555
O1A Li1 1_555 1_555
C3A C2A 1_555 1_555
O2A C3A 1_555 1_555
C4A C3A 1_555 1_555
H1A C4A 1_555 1_555
C5A C4A 1_555 1_555
H2A C5A 1_555 1_555
C6A C1A 1_555 1_555
H3A C6A 1_555 1_555
H4A C7A 1_555 1_555
H5A C7A 1_555 1_555
O7A Li1 1_555 1_555
H16A O7A 1_555 1_555
H17A O7A 1_555 1_555
Ti1A O6 1_555 1_555
Li2A O2A 1_555 1_555
C8A C9A 1_555 1_555
C9A O3A 1_555 1_555
O3A Ti1A 1_555 1_555
C10A C9A 1_555 1_555
O4A Ti1A 1_555 1_555
C11A C10A 1_555 1_555
H6A C11A 1_555 1_555
C12A C11A 1_555 1_555
H7A C12A 1_555 1_555
C13A C8A 1_555 1_555
H8A C13A 1_555 1_555
C14A C8A 1_555 1_555
H9A C14A 1_555 1_555
H10A C14A 1_555 1_555
C15A C16A 1_555 1_555
C16A O5A 1_555 1_555
O5A Ti1 1_555 1_555
C17A C16A 1_555 1_555
O6A Ti1 1_555 1_555
C18A C17A 1_555 1_555
H11A C18A 1_555 1_555
C19A C18A 1_555 1_555
H12A C19A 1_555 1_555
C20A C15A 1_555 1_555
H13A C20A 1_555 1_555
C21A C14A 1_555 1_555
H14A C21A 1_555 1_555
H15A C21A 1_555 1_555
O8A Li2A 1_555 1_555
C22A O8A 1_555 1_555
H18A C22A 1_555 1_555
N1A C22A 1_555 1_555
C23A N1A 1_555 1_555
H19A C23A 1_555 1_555
H20A C23A 1_555 1_555
H21A C23A 1_555 1_555
C24A N1A 1_555 1_555
H22A C24A 1_555 1_555
H23A C24A 1_555 1_555
H24A C24A 1_555 1_555
O9A Li3 1_555 1_555
C25A O9A 1_555 1_555
H25A C25A 1_555 1_555
N2A C25A 1_555 1_555
C26A N2A 1_555 1_555
H26A C26A 1_555 1_555
H27A C26A 1_555 1_555
H28A C26A 1_555 1_555
C27A N2A 1_555 1_555
H29A C27A 1_555 1_555
H30A C27A 1_555 1_555
H31A C27A 1_555 1_555
O10A Li3 1_555 1_555
C28A O10A 1_555 1_555
H32A C28A 1_555 1_555
N3A C28A 1_555 1_555
C29A N3A 1_555 1_555
H33A C29A 1_555 1_555
H34A C29A 1_555 1_555
H35A C29A 1_555 1_555
C30A N3A 1_555 1_555
H36A C30A 1_555 1_555
H37A C30A 1_555 1_555
H38A C30A 1_555 1_555
Li2D O2 1_555 1_555
Li2E O6 1_555 1_555
O2D Li2 1_555 1_555
O6E Li2 1_555 1_555
O2E Li2A 1_555 1_555
O6D Li2A 1_555 1_555
C3 O2 1_555 1_555
C5 C6 1_555 1_555
C10 O4 1_555 1_555
O4 Li2 1_555 1_555
C12 C13 1_555 1_555
C15 C21 1_555 1_555
C19 C20 1_555 1_555
C2A O1A 1_555 1_555
O1A Ti1A 1_555 1_555
O2A Ti1A 1_555 1_555
O2A Li2E 1_555 1_555
C5A C6A 1_555 1_555
Li2A O4A 1_555 1_555
C10A O4A 1_555 1_555
C12A C13A 1_555 1_555
C15A C21A 1_555 1_555
C17A O6A 1_555 1_555
O6A Li2D 1_555 1_555
C19A C20A 1_555 1_555
Li2D O2D 1_555 1_555
Li2E O2E 1_555 1_555

#END
