
#######################################################################
#
#                 Cambridge Crystallographic Data Centre
#                                CCDC 
#
#######################################################################
#
# If this CIF has been generated from an entry in the Cambridge 
# Structural Database, then it will include bibliographic, chemical, 
# crystal, experimental, refinement or atomic coordinate data resulting 
# from the CCDC's data processing and validation procedures.
#
#######################################################################

data_TAXWUL
_symmetry_cell_setting           monoclinic
_symmetry_space_group_name_H-M   'P 21/c'
_symmetry_Int_Tables_number      14
_space_group_name_Hall           '-P 2ybc'
loop_
_symmetry_equiv_pos_site_id
_symmetry_equiv_pos_as_xyz
1 x,y,z
2 -x,1/2+y,1/2-z
3 -x,-y,-z
4 x,1/2-y,1/2+z
_cell_length_a                   26.1193(20)
_cell_length_b                   11.21750
_cell_length_c                   7.63700
_cell_angle_alpha                90
_cell_angle_beta                 91.7090
_cell_angle_gamma                90
_cell_volume                     2236.59
loop_
_atom_site_label
_atom_site_type_symbol
_atom_site_fract_x
_atom_site_fract_y
_atom_site_fract_z
Ag1 Ag 0.275266(12) 0.14870(3) 0.06884(4)
Ag2 Ag 0.225490(12) -0.11203(3) 0.13461(4)
S1 S 0.30866(4) 0.16776(9) 0.37473(13)
S2 S 0.19858(4) -0.18613(9) 0.44270(13)
F1 F 0.39033(16) -0.1097(4) -0.2490(6)
F2 F 0.41855(13) -0.1155(5) 0.0169(6)
F3 F 0.38384(15) -0.2656(3) -0.0995(6)
F4 F 0.07396(15) 0.1161(5) -0.0139(8)
F5 F 0.10427(19) 0.0963(5) -0.2631(7)
F6 F 0.10385(17) 0.2630(4) -0.1386(8)
O1 O 0.31623(14) -0.0043(3) -0.0831(5)
O2 O 0.30742(14) -0.1685(4) 0.0788(6)
O3 O 0.19850(13) 0.1915(4) -0.0631(6)
O4 O 0.16689(14) 0.0242(4) 0.0425(7)
C1 C 0.37685(16) 0.1664(4) 0.3714(6)
C2 C 0.40200(19) 0.2732(5) 0.3901(7)
H1 H 0.3835 0.3439 0.4075
C3 C 0.4548(2) 0.2757(6) 0.3832(9)
H2 H 0.4722 0.3487 0.3950
C4 C 0.4819(2) 0.1738(6) 0.3595(9)
H3 H 0.5179 0.1763 0.3567
C5 C 0.4564(2) 0.0669(6) 0.3395(8)
H4 H 0.4752 -0.0033 0.3220
C6 C 0.40366(19) 0.0614(5) 0.3447(7)
H5 H 0.3864 -0.0116 0.3306
C7 C 0.29211(16) 0.0301(4) 0.4887(6)
H6 H 0.2960 -0.0387 0.4110
H7 H 0.3147 0.0189 0.5921
C8 C 0.23673(17) 0.0411(4) 0.5431(6)
H8 H 0.2154 0.0668 0.4424
H9 H 0.2344 0.1018 0.6348
C9 C 0.21662(18) -0.0778(4) 0.6116(6)
H10 H 0.1867 -0.0619 0.6824
H11 H 0.2431 -0.1133 0.6890
C10 C 0.13033(17) -0.1746(4) 0.4257(6)
C11 C 0.1064(2) -0.0654(5) 0.3825(7)
H12 H 0.1260 0.0035 0.3643
C12 C 0.0544(2) -0.0614(6) 0.3678(8)
H13 H 0.0381 0.0113 0.3403
C13 C 0.0248(2) -0.1628(6) 0.3927(9)
H14 H -0.0111 -0.1590 0.3826
C14 C 0.0488(2) -0.2680(7) 0.4318(8)
H15 H 0.0292 -0.3373 0.4465
C15 C 0.10139(19) -0.2746(5) 0.4503(7)
H16 H 0.1173 -0.3473 0.4797
C16 C 0.1111(2) 0.1497(5) -0.1126(8)
C17 C 0.16467(16) 0.1191(4) -0.0344(6)
C18 C 0.32923(16) -0.1037(4) -0.0240(6)
C19 C 0.38124(19) -0.1495(4) -0.0898(7)
Ag1C Ag 0.275266(12) 0.35130(3) 0.56884(4)
Ag2C Ag 0.225490(12) -0.38797(3) 0.63461(4)
S1C S 0.30866(4) 0.33224(9) -0.12527(13)
S2C S 0.19858(4) -0.31387(9) -0.05730(13)
loop_
_geom_bond_atom_site_label_1
_geom_bond_atom_site_label_2
_geom_bond_site_symmetry_1
_geom_bond_site_symmetry_2
Ag1 Ag2 1_555 1_555
Ag2 S2 1_555 1_555
S1 Ag1 1_555 1_555
S2 C9 1_555 1_555
F1 C19 1_555 1_555
F2 C19 1_555 1_555
F3 C19 1_555 1_555
F4 C16 1_555 1_555
F5 C16 1_555 1_555
F6 C16 1_555 1_555
O1 Ag1 1_555 1_555
O2 Ag2 1_555 1_555
O3 Ag1 1_555 1_555
O4 Ag2 1_555 1_555
C1 S1 1_555 1_555
C2 C1 1_555 1_555
H1 C2 1_555 1_555
C3 C2 1_555 1_555
H2 C3 1_555 1_555
C4 C3 1_555 1_555
H3 C4 1_555 1_555
C5 C4 1_555 1_555
H4 C5 1_555 1_555
C6 C1 1_555 1_555
H5 C6 1_555 1_555
C7 S1 1_555 1_555
H6 C7 1_555 1_555
H7 C7 1_555 1_555
C8 C7 1_555 1_555
H8 C8 1_555 1_555
H9 C8 1_555 1_555
C9 C8 1_555 1_555
H10 C9 1_555 1_555
H11 C9 1_555 1_555
C10 S2 1_555 1_555
C11 C10 1_555 1_555
H12 C11 1_555 1_555
C12 C11 1_555 1_555
H13 C12 1_555 1_555
C13 C12 1_555 1_555
H14 C13 1_555 1_555
C14 C13 1_555 1_555
H15 C14 1_555 1_555
C15 C10 1_555 1_555
H16 C15 1_555 1_555
C16 C17 1_555 1_555
C17 O3 1_555 1_555
C18 O1 1_555 1_555
C19 C18 1_555 1_555
Ag1C S1 1_555 1_555
Ag2C S2 1_555 1_555
S1C Ag1 1_555 1_555
S2C Ag2 1_555 1_555
O2 C18 1_555 1_555
O4 C17 1_555 1_555
C5 C6 1_555 1_555
C14 C15 1_555 1_555

#END
