
#######################################################################
#
#                 Cambridge Crystallographic Data Centre
#                                CCDC 
#
#######################################################################
#
# If this CIF has been generated from an entry in the Cambridge 
# Structural Database, then it will include bibliographic, chemical, 
# crystal, experimental, refinement or atomic coordinate data resulting 
# from the CCDC's data processing and validation procedures.
#
#######################################################################

data_TAXWIY
_symmetry_cell_setting           monoclinic
_symmetry_space_group_name_H-M   'P 21/a'
_symmetry_Int_Tables_number      14
_space_group_name_Hall           '-P 2yab'
loop_
_symmetry_equiv_pos_site_id
_symmetry_equiv_pos_as_xyz
1 x,y,z
2 1/2-x,1/2+y,-z
3 -x,-y,-z
4 1/2+x,1/2-y,z
_cell_length_a                   10.573(4)
_cell_length_b                   14.736(4)
_cell_length_c                   15.503(3)
_cell_angle_alpha                90
_cell_angle_beta                 92.47(2)
_cell_angle_gamma                90
_cell_volume                     2413.18
loop_
_atom_site_label
_atom_site_type_symbol
_atom_site_fract_x
_atom_site_fract_y
_atom_site_fract_z
Zn1 Zn 0.70366(5) 0.01760(4) 0.73048(4)
V1 V 0.81686(7) -0.20291(5) 0.81269(5)
V2 V 0.92840(8) -0.05751(6) 0.58550(5)
V3 V 1.10133(7) -0.14209(5) 0.75156(5)
O1 O 0.7591(3) -0.1089(2) 0.7730(3)
O2 O 0.7911(3) -0.2080(3) 0.9135(2)
O3 O 0.9864(3) -0.2050(3) 0.8014(2)
O4 O 0.7431(3) -0.2979(2) 0.7566(3)
O5 O 0.8555(3) 0.0153(2) 0.6474(2)
O6 O 1.0000 0.00000 0.5000
O7 O 0.8261(4) -0.1298(2) 0.5477(3)
O8 O 1.0497(3) -0.1215(3) 0.6451(2)
O9 O 1.1213(4) -0.0493(3) 0.8007(3)
N1 N 0.8085(4) 0.0848(3) 0.8309(3)
N2 N 0.5662(4) 0.0340(3) 0.8371(3)
N3 N 0.6181(4) 0.1382(3) 0.6738(3)
N4 N 0.5574(4) -0.0335(3) 0.6478(2)
C1 C 0.7507(5) 0.1020(3) 0.9038(3)
C2 C 0.8170(5) 0.1300(4) 0.9774(4)
C3 C 0.9451(6) 0.1439(4) 0.9747(4)
C4 C 1.0046(5) 0.1295(4) 0.8988(4)
C5 C 0.9340(5) 0.0993(4) 0.8280(4)
C6 C 0.6118(5) 0.0853(3) 0.9018(3)
C7 C 0.5356(6) 0.1222(4) 0.9629(4)
C8 C 0.4072(5) 0.1026(5) 0.9588(4)
C9 C 0.3608(5) 0.0475(4) 0.8932(4)
C10 C 0.4432(5) 0.0143(4) 0.8338(3)
C11 C 0.5103(4) 0.12362(3) 0.6272(3)
C12 C 0.4405(5) 0.1954(4) 0.5914(4)
C13 C 0.4835(6) 0.2829(4) 0.6033(4)
C14 C 0.5930(6) 0.2983(4) 0.6503(4)
C15 C 0.6577(5) 0.2243(4) 0.6848(4)
C16 C 0.4741(4) 0.0277(3) 0.6153(3)
C17 C 0.3623(5) 0.0007(4) 0.5734(4)
C18 C 0.3363(5) -0.0909(4) 0.5651(4)
C19 C 0.4213(5) -0.1536(4) 0.5974(3)
C20 C 0.5316(5) -0.1221(3) 0.6381(3)
H1 H 0.7730 0.1447 1.0393
H2 H 1.0056 0.1745 1.0248
H3 H 1.0996 0.1373 0.9146
H4 H 0.9755 0.0858 0.7641
H5 H 0.5705 0.1539 1.0136
H6 H 0.3483 0.1266 1.0093
H7 H 0.2685 0.0246 0.8966
H8 H 0.4072 -0.0313 0.7855
H9 H 0.3504 0.1792 0.5567
H10 H 0.4274 0.3383 0.5748
H11 H 0.6527 0.3616 0.6691
H12 H 0.7280 0.2270 0.7294
H13 H 0.3014 0.0472 0.5393
H14 H 0.2486 -0.1038 0.5475
H15 H 0.4263 -0.2219 0.5869
H16 H 0.6020 -0.1698 0.6671
O4C O 1.2431(3) -0.2021(2) 0.7566(3)
V3C V 0.60133(7) -0.35791(5) 0.75156(5)
V2B V 1.07160(8) 0.05751(6) 0.41450(5)
loop_
_geom_bond_atom_site_label_1
_geom_bond_atom_site_label_2
_geom_bond_site_symmetry_1
_geom_bond_site_symmetry_2
Zn1 O1 1_555 1_555
V1 O1 1_555 1_555
V2 O5 1_555 1_555
V3 O3 1_555 1_555
O2 V1 1_555 1_555
O3 V1 1_555 1_555
O4 V1 1_555 1_555
O5 Zn1 1_555 1_555
O6 V2 1_555 1_555
O7 V2 1_555 1_555
O8 V2 1_555 1_555
O9 V3 1_555 1_555
N1 Zn1 1_555 1_555
N2 Zn1 1_555 1_555
N3 Zn1 1_555 1_555
N4 Zn1 1_555 1_555
C1 N1 1_555 1_555
C2 C1 1_555 1_555
C3 C2 1_555 1_555
C4 C3 1_555 1_555
C5 N1 1_555 1_555
C6 N2 1_555 1_555
C7 C6 1_555 1_555
C8 C7 1_555 1_555
C9 C8 1_555 1_555
C10 N2 1_555 1_555
C11 N3 1_555 1_555
C12 C11 1_555 1_555
C13 C12 1_555 1_555
C14 C13 1_555 1_555
C15 N3 1_555 1_555
C16 N4 1_555 1_555
C17 C16 1_555 1_555
C18 C17 1_555 1_555
C19 C18 1_555 1_555
C20 N4 1_555 1_555
H1 C2 1_555 1_555
H2 C3 1_555 1_555
H3 C4 1_555 1_555
H4 C5 1_555 1_555
H5 C7 1_555 1_555
H6 C8 1_555 1_555
H7 C9 1_555 1_555
H8 C10 1_555 1_555
H9 C12 1_555 1_555
H10 C13 1_555 1_555
H11 C14 1_555 1_555
H12 C15 1_555 1_555
H13 C17 1_555 1_555
H14 C18 1_555 1_555
H15 C19 1_555 1_555
H16 C20 1_555 1_555
O4C V3 1_555 1_555
V3C O4 1_555 1_555
V2B O6 1_555 1_555
V3 O8 1_555 1_555
C1 C6 1_555 1_555
C4 C5 1_555 1_555
C9 C10 1_555 1_555
C11 C16 1_555 1_555
C14 C15 1_555 1_555
C19 C20 1_555 1_555

#END
