
#######################################################################
#
#                 Cambridge Crystallographic Data Centre
#                                CCDC 
#
#######################################################################
#
# If this CIF has been generated from an entry in the Cambridge 
# Structural Database, then it will include bibliographic, chemical, 
# crystal, experimental, refinement or atomic coordinate data resulting 
# from the CCDC's data processing and validation procedures.
#
#######################################################################

data_TAXXIA
_symmetry_cell_setting           monoclinic
_symmetry_space_group_name_H-M   'P 21/n'
_symmetry_Int_Tables_number      14
_space_group_name_Hall           '-P 2yn'
loop_
_symmetry_equiv_pos_site_id
_symmetry_equiv_pos_as_xyz
1 x,y,z
2 1/2-x,1/2+y,1/2-z
3 -x,-y,-z
4 1/2+x,1/2-y,1/2+z
_cell_length_a                   15.0658(2)
_cell_length_b                   8.86920(10)
_cell_length_c                   16.2685(2)
_cell_angle_alpha                90
_cell_angle_beta                 93.7600(10)
_cell_angle_gamma                90
_cell_volume                     2169.14
loop_
_atom_site_label
_atom_site_type_symbol
_atom_site_fract_x
_atom_site_fract_y
_atom_site_fract_z
Ag1 Ag 0.050903(19) 1.10886(3) 0.089988(16)
S1 S 0.17123(6) 0.94886(11) 0.15696(6)
S2 S 0.01245(7) 0.38641(11) 0.11841(6)
S3 S 0.15542(7) 1.06795(15) -0.07188(6)
O1 O 0.1158(3) 1.2002(6) -0.0365(2)
O2 O 0.1017(3) 0.9359(7) -0.0619(3)
O3 O 0.2439(2) 1.0448(4) -0.03986(19)
C1 C 0.1463(3) 0.9108(4) 0.2607(2)
C2 C 0.1944(3) 0.8029(5) 0.3068(3)
H1 H 0.2379 0.7448 0.2826
C3 C 0.1778(3) 0.7819(5) 0.3878(3)
H2 H 0.2098 0.7084 0.4191
C4 C 0.1152(4) 0.8669(6) 0.4236(3)
H3 H 0.1052 0.8530 0.4796
C5 C 0.0661(4) 0.9739(6) 0.3776(3)
H4 H 0.0227 1.0316 0.4022
C6 C 0.0815(3) 0.9950(5) 0.2955(3)
H5 H 0.0480 1.0660 0.2636
C7 C 0.1763(3) 0.7608(4) 0.1123(2)
H6 H 0.1874 0.7702 0.0538
H7 H 0.2265 0.7061 0.1395
C8 C 0.0921(2) 0.6695(4) 0.1200(2)
H8 H 0.0441 0.7115 0.0834
H9 H 0.0739 0.6759 0.1767
C9 C 0.1068(3) 0.5051(5) 0.0978(2)
H10 H 0.1599 0.4675 0.1295
H11 H 0.1178 0.4982 0.0392
C10 C 0.0083(3) 0.3888(4) 0.2276(3)
C11 C -0.0723(3) 0.3490(6) 0.2577(3)
H12 H -0.1212 0.3264 0.2209
C12 C -0.0811(4) 0.3425(6) 0.3408(4)
H13 H -0.1356 0.3131 0.3609
C13 C -0.0098(4) 0.3792(5) 0.3954(3)
H14 H -0.0164 0.3776 0.4525
C14 C 0.0702(4) 0.4179(5) 0.3661(3)
H15 H 0.1187 0.4409 0.4032
C15 C 0.0804(3) 0.4232(5) 0.2817(3)
H16 H 0.1354 0.4498 0.2617
C16 C 0.1562(2) 1.1001(5) -0.1792(3)
C17 C 0.1167(3) 1.2286(5) -0.2144(3)
H17 H 0.0890 1.2993 -0.1814
C18 C 0.1184(4) 1.2509(6) -0.2970(3)
H18 H 0.0901 1.3365 -0.3206
C19 C 0.1602(4) 1.1524(6) -0.3475(3)
C20 C 0.1991(4) 1.0265(6) -0.3123(3)
H19 H 0.2281 0.9579 -0.3455
C21 C 0.1966(3) 0.9980(6) -0.2287(3)
H20 H 0.2223 0.9096 -0.2059
C22 C 0.1645(6) 1.1852(8) -0.4382(3)
H21 H 0.2007 1.1093 -0.4629
H22 H 0.1906 1.2839 -0.4452
H23 H 0.1049 1.1833 -0.4646
Ag1_2 Ag 0.050903(19) 0.10886(3) 0.089988(16)
Ag1B Ag -0.050903(19) 0.89114(3) -0.089988(16)
S2_2 S 0.01245(7) 1.38641(11) 0.11841(6)
O2B O -0.1017(3) 1.0641(7) 0.0619(3)
loop_
_geom_bond_atom_site_label_1
_geom_bond_atom_site_label_2
_geom_bond_site_symmetry_1
_geom_bond_site_symmetry_2
Ag1 S1 1_555 1_555
S1 C1 1_555 1_555
S2 C9 1_555 1_555
S3 O1 1_555 1_555
O1 Ag1 1_555 1_555
O2 S3 1_555 1_555
O3 S3 1_555 1_555
C1 C2 1_555 1_555
C2 H1 1_555 1_555
C3 C2 1_555 1_555
H2 C3 1_555 1_555
C4 C3 1_555 1_555
H3 C4 1_555 1_555
C5 C4 1_555 1_555
H4 C5 1_555 1_555
C6 C1 1_555 1_555
H5 C6 1_555 1_555
C7 S1 1_555 1_555
H6 C7 1_555 1_555
H7 C7 1_555 1_555
C8 C7 1_555 1_555
H8 C8 1_555 1_555
H9 C8 1_555 1_555
C9 C8 1_555 1_555
H10 C9 1_555 1_555
H11 C9 1_555 1_555
C10 S2 1_555 1_555
C11 C10 1_555 1_555
H12 C11 1_555 1_555
C12 C11 1_555 1_555
H13 C12 1_555 1_555
C13 C12 1_555 1_555
H14 C13 1_555 1_555
C14 C13 1_555 1_555
H15 C14 1_555 1_555
C15 C10 1_555 1_555
H16 C15 1_555 1_555
C16 S3 1_555 1_555
C17 C16 1_555 1_555
H17 C17 1_555 1_555
C18 C17 1_555 1_555
H18 C18 1_555 1_555
C19 C18 1_555 1_555
C20 C19 1_555 1_555
H19 C20 1_555 1_555
C21 C16 1_555 1_555
H20 C21 1_555 1_555
C22 C19 1_555 1_555
H21 C22 1_555 1_555
H22 C22 1_555 1_555
H23 C22 1_555 1_555
Ag1_2 S2 1_555 1_555
Ag1B O2 1_555 1_555
S2_2 Ag1 1_555 1_555
O2B Ag1 1_555 1_555
C5 C6 1_555 1_555
C14 C15 1_555 1_555
C20 C21 1_555 1_555

#END
