
#######################################################################
#
#                 Cambridge Crystallographic Data Centre
#                                CCDC 
#
#######################################################################
#
# If this CIF has been generated from an entry in the Cambridge 
# Structural Database, then it will include bibliographic, chemical, 
# crystal, experimental, refinement or atomic coordinate data resulting 
# from the CCDC's data processing and validation procedures.
#
#######################################################################

data_TAXXEW
_symmetry_cell_setting           monoclinic
_symmetry_space_group_name_H-M   'C 2/c'
_symmetry_Int_Tables_number      15
_space_group_name_Hall           '-C 2yn'
loop_
_symmetry_equiv_pos_site_id
_symmetry_equiv_pos_as_xyz
1 x,y,z
2 1/2+x,1/2+y,z
3 -x,y,1/2-z
4 1/2-x,1/2+y,1/2-z
5 -x,-y,-z
6 1/2-x,1/2-y,-z
7 x,-y,1/2+z
8 1/2+x,1/2-y,1/2+z
_cell_length_a                   17.1456(2)
_cell_length_b                   8.31450(10)
_cell_length_c                   30.1588(3)
_cell_angle_alpha                90
_cell_angle_beta                 105.5430(10)
_cell_angle_gamma                90
_cell_volume                     4142.12
loop_
_atom_site_label
_atom_site_type_symbol
_atom_site_fract_x
_atom_site_fract_y
_atom_site_fract_z
Ag1 Ag 0.091685(13) 0.43007(3) 0.278861(7)
S1 S 0.06803(4) 0.14625(9) 0.29967(2)
S2 S 0.23162(5) -0.42929(9) 0.30219(3)
F1 F 0.08037(14) 0.8468(3) 0.16565(7)
F2 F 0.14556(13) 0.6569(3) 0.14144(8)
F3 F -0.01230(15) 0.5475(3) 0.08857(7)
F4 F -0.05444(11) 0.7835(3) 0.10323(7)
F5 F 0.09238(16) 0.6746(3) 0.04897(8)
F6 F 0.07677(14) 0.9119(3) 0.07326(8)
F7 F -0.02136(14) 0.7956(3) 0.02472(7)
O1 O 0.10134(14) 0.4779(3) 0.20147(8)
O2 O -0.01747(15) 0.6071(3) 0.18845(9)
C1 C 0.0503(2) 0.5789(4) 0.18301(11)
C2 C 0.07347(19) 0.6942(4) 0.14825(11)
C3 C 0.01073(19) 0.7003(4) 0.10092(10)
C4 C 0.0407(2) 0.7730(5) 0.06137(11)
C5 C 0.10343(18) 0.1407(4) 0.36089(10)
C6 C 0.18144(19) 0.0971(4) 0.38524(11)
H1 H 0.2200 0.0653 0.3694
C7 C 0.2023(2) 0.1008(4) 0.43313(12)
H2 H 0.2552 0.0695 0.4500
C8 C 0.1469(2) 0.1495(4) 0.45659(11)
H3 H 0.1621 0.1537 0.4893
C9 C 0.0694(2) 0.1920(4) 0.43181(11)
H4 H 0.0310 0.2246 0.4476
C10 C 0.0473(2) 0.1873(4) 0.38413(11)
H5 H -0.0061 0.2158 0.3674
C11 C 0.14318(19) 0.0362(4) 0.27945(10)
H6 H 0.1329 0.0526 0.2459
H7 H 0.1975 0.0799 0.2945
C12 C 0.14245(18) -0.1436(4) 0.28931(10)
H8 H 0.1465 -0.1604 0.3223
H9 H 0.0906 -0.1906 0.2712
C13 C 0.21260(18) -0.2286(4) 0.27702(10)
H10 H 0.2622 -0.1627 0.2879
H11 H 0.2006 -0.2374 0.2431
C14 C 0.25666(18) -0.3815(4) 0.36198(11)
C15 C 0.31830(19) -0.2717(4) 0.38028(11)
H12 H 0.3460 -0.2200 0.3609
C16 C 0.3389(2) -0.2385(4) 0.42716(12)
H13 H 0.3799 -0.1615 0.4396
C17 C 0.2999(2) -0.3173(4) 0.45597(11)
H14 H 0.3151 -0.2969 0.4881
C18 C 0.2385(2) -0.4259(4) 0.43708(12)
H15 H 0.2113 -0.4788 0.4565
C19 C 0.2163(2) -0.4583(4) 0.39043(11)
H16 H 0.1739 -0.5322 0.3779
Ag1B Ag -0.091685(13) 0.43007(3) 0.221139(7)
Ag1_2 Ag 0.091685(13) -0.56993(3) 0.278861(7)
S2_2 S 0.23162(5) 0.57071(9) 0.30219(3)
O2B O 0.01747(15) 0.6071(3) 0.31155(9)
loop_
_geom_bond_atom_site_label_1
_geom_bond_atom_site_label_2
_geom_bond_site_symmetry_1
_geom_bond_site_symmetry_2
Ag1 S1 1_555 1_555
S1 C5 1_555 1_555
S2 C13 1_555 1_555
F1 C2 1_555 1_555
F2 C2 1_555 1_555
F3 C3 1_555 1_555
F4 C3 1_555 1_555
F5 C4 1_555 1_555
F6 C4 1_555 1_555
F7 C4 1_555 1_555
O1 Ag1 1_555 1_555
O2 C1 1_555 1_555
C1 O1 1_555 1_555
C2 C1 1_555 1_555
C3 C2 1_555 1_555
C4 C3 1_555 1_555
C5 C6 1_555 1_555
C6 H1 1_555 1_555
C7 C6 1_555 1_555
H2 C7 1_555 1_555
C8 C7 1_555 1_555
H3 C8 1_555 1_555
C9 C8 1_555 1_555
H4 C9 1_555 1_555
C10 C5 1_555 1_555
H5 C10 1_555 1_555
C11 S1 1_555 1_555
H6 C11 1_555 1_555
H7 C11 1_555 1_555
C12 C11 1_555 1_555
H8 C12 1_555 1_555
H9 C12 1_555 1_555
C13 C12 1_555 1_555
H10 C13 1_555 1_555
H11 C13 1_555 1_555
C14 S2 1_555 1_555
C15 C14 1_555 1_555
H12 C15 1_555 1_555
C16 C15 1_555 1_555
H13 C16 1_555 1_555
C17 C16 1_555 1_555
H14 C17 1_555 1_555
C18 C17 1_555 1_555
H15 C18 1_555 1_555
C19 C14 1_555 1_555
H16 C19 1_555 1_555
Ag1B Ag1 1_555 1_555
Ag1_2 S2 1_555 1_555
S2_2 Ag1 1_555 1_555
O2B Ag1 1_555 1_555
O2 Ag1B 1_555 1_555
C9 C10 1_555 1_555
C18 C19 1_555 1_555

#END
