
#######################################################################
#
#                 Cambridge Crystallographic Data Centre
#                                CCDC 
#
#######################################################################
#
# If this CIF has been generated from an entry in the Cambridge 
# Structural Database, then it will include bibliographic, chemical, 
# crystal, experimental, refinement or atomic coordinate data resulting 
# from the CCDC's data processing and validation procedures.
#
#######################################################################

data_TAXXOG
_symmetry_cell_setting           monoclinic
_symmetry_space_group_name_H-M   'P 21/n'
_symmetry_Int_Tables_number      14
_space_group_name_Hall           '-P 2yn'
loop_
_symmetry_equiv_pos_site_id
_symmetry_equiv_pos_as_xyz
1 x,y,z
2 1/2-x,1/2+y,1/2-z
3 -x,-y,-z
4 1/2+x,1/2-y,1/2+z
_cell_length_a                   8.4179(2)
_cell_length_b                   24.1660(4)
_cell_length_c                   13.9928(2)
_cell_angle_alpha                90
_cell_angle_beta                 93.9600(10)
_cell_angle_gamma                90
_cell_volume                     2839.72
loop_
_atom_site_label
_atom_site_type_symbol
_atom_site_fract_x
_atom_site_fract_y
_atom_site_fract_z
Ag1 Ag 0.34692(5) 0.228131(16) -0.03996(3)
Ag2 Ag 0.38978(5) 0.268462(16) 0.26580(3)
S1 S 0.23571(15) 0.28277(5) 0.09997(9)
S2 S -0.31078(15) 0.29607(5) 0.30641(9)
S3 S 0.5281(2) 0.13967(6) 0.13498(11)
S4 S 0.65439(18) 0.30790(5) -0.09070(10)
F1 F 0.4050(6) 0.05318(18) 0.2140(3)
F2 F 0.2445(7) 0.0996(3) 0.1226(6)
F3 F 0.4181(8) 0.04795(19) 0.0630(4)
F4 F 0.5623(6) 0.40664(18) -0.0462(4)
F5 F 0.7945(6) 0.3842(2) 0.0135(4)
F6 F 0.7629(8) 0.4052(2) -0.1319(4)
O1 O 0.4802(9) 0.1761(2) 0.2063(4)
O2 O 0.5080(6) 0.15949(18) 0.0371(3)
O3 O 0.6783(7) 0.1137(3) 0.1588(4)
O4 O 0.5792(6) 0.2890(2) -0.0075(4)
O5 O 0.5549(8) 0.3085(3) -0.1763(5)
O6 O 0.8110(6) 0.2847(2) -0.1011(4)
O7 O 0.2676(6) 0.3507(2) 0.3383(3)
C1 C 0.3899(9) 0.0822(3) 0.1340(5)
C2 C 0.6953(9) 0.3802(3) -0.0642(6)
C3 C 0.2586(14) 0.4378(3) 0.4121(7)
H1 H 0.1615 0.4428 0.3715
H2 H 0.3401 0.4626 0.3915
H3 H 0.2381 0.4459 0.4780
C4 C 0.3137(8) 0.3796(3) 0.4049(5)
C5 C 0.4247(11) 0.3587(4) 0.4847(5)
H4 H 0.4637 0.3224 0.4683
H5 H 0.3687 0.3562 0.5428
H6 H 0.5138 0.3840 0.4947
C6 C 0.2062(6) 0.3511(2) 0.0537(4)
C7 C 0.2044(7) 0.3963(2) 0.1143(5)
H7 H 0.2176 0.3912 0.1810
C8 C 0.1836(8) 0.4486(3) 0.0773(6)
H8 H 0.1800 0.4791 0.1187
C9 C 0.1675(8) 0.4564(3) -0.0221(5)
H9 H 0.1573 0.4923 -0.0477
C10 C 0.1667(8) 0.4112(3) -0.0819(5)
H10 H 0.1519 0.4162 -0.1486
C11 C 0.1872(7) 0.3588(2) -0.0448(4)
H11 H 0.1885 0.3282 -0.0862
C12 C 0.0329(6) 0.2609(2) 0.1198(4)
H12 H -0.0322 0.2641 0.0592
H13 H 0.0351 0.2217 0.1381
C13 C -0.0464(6) 0.2933(2) 0.1955(4)
H14 H -0.0588 0.3320 0.1759
H15 H 0.0190 0.2920 0.2562
C14 C -0.2098(6) 0.2675(2) 0.2081(4)
H16 H -0.1963 0.2276 0.2183
H17 H -0.2771 0.2726 0.1488
C15 C -0.3064(6) 0.3686(2) 0.2860(4)
C16 C -0.3984(8) 0.3912(2) 0.2099(5)
H18 H -0.4567 0.3681 0.1664
C17 C -0.4041(9) 0.4483(3) 0.1982(5)
H19 H -0.4673 0.4635 0.1467
C18 C -0.3188(9) 0.4828(3) 0.2607(5)
H20 H -0.3231 0.5214 0.2525
C19 C -0.2272(10) 0.4597(3) 0.3353(5)
H21 H -0.1670 0.4829 0.3779
C20 C -0.2212(9) 0.4028(3) 0.3495(5)
H22 H -0.1597 0.3878 0.4018
Ag1C Ag -0.15308(5) 0.271869(16) 0.46004(3)
Ag2_2 Ag -0.61022(5) 0.268462(16) 0.26580(3)
Ag2C Ag 0.88978(5) 0.231538(16) -0.23420(3)
S2C S 0.18922(15) 0.20393(5) -0.19359(9)
S2_2 S 0.68922(15) 0.29607(5) 0.30641(9)
O6C O 0.3110(6) 0.2153(2) 0.3989(4)
loop_
_geom_bond_atom_site_label_1
_geom_bond_atom_site_label_2
_geom_bond_site_symmetry_1
_geom_bond_site_symmetry_2
Ag1 S1 1_555 1_555
Ag2 S1 1_555 1_555
S1 C6 1_555 1_555
S2 C14 1_555 1_555
S3 O1 1_555 1_555
S4 O4 1_555 1_555
F1 C1 1_555 1_555
F2 C1 1_555 1_555
F3 C1 1_555 1_555
F4 C2 1_555 1_555
F5 C2 1_555 1_555
F6 C2 1_555 1_555
O1 Ag2 1_555 1_555
O2 Ag1 1_555 1_555
O3 S3 1_555 1_555
O4 Ag1 1_555 1_555
O5 S4 1_555 1_555
O6 S4 1_555 1_555
O7 Ag2 1_555 1_555
C1 S3 1_555 1_555
C2 S4 1_555 1_555
C3 H1 1_555 1_555
H2 C3 1_555 1_555
H3 C3 1_555 1_555
C4 O7 1_555 1_555
C5 C4 1_555 1_555
H4 C5 1_555 1_555
H5 C5 1_555 1_555
H6 C5 1_555 1_555
C6 C7 1_555 1_555
C7 H7 1_555 1_555
C8 C7 1_555 1_555
H8 C8 1_555 1_555
C9 C8 1_555 1_555
H9 C9 1_555 1_555
C10 C9 1_555 1_555
H10 C10 1_555 1_555
C11 C6 1_555 1_555
H11 C11 1_555 1_555
C12 S1 1_555 1_555
H12 C12 1_555 1_555
H13 C12 1_555 1_555
C13 C12 1_555 1_555
H14 C13 1_555 1_555
H15 C13 1_555 1_555
C14 C13 1_555 1_555
H16 C14 1_555 1_555
H17 C14 1_555 1_555
C15 S2 1_555 1_555
C16 C15 1_555 1_555
H18 C16 1_555 1_555
C17 C16 1_555 1_555
H19 C17 1_555 1_555
C18 C17 1_555 1_555
H20 C18 1_555 1_555
C19 C18 1_555 1_555
H21 C19 1_555 1_555
C20 C15 1_555 1_555
H22 C20 1_555 1_555
Ag1C S2 1_555 1_555
Ag2_2 S2 1_555 1_555
Ag2C O6 1_555 1_555
S2C Ag1 1_555 1_555
S2_2 Ag2 1_555 1_555
O6C Ag2 1_555 1_555
S3 O2 1_555 1_555
C3 C4 1_555 1_555
C10 C11 1_555 1_555
C19 C20 1_555 1_555

#END
