
#######################################################################
#
#                 Cambridge Crystallographic Data Centre
#                                CCDC 
#
#######################################################################
#
# If this CIF has been generated from an entry in the Cambridge 
# Structural Database, then it will include bibliographic, chemical, 
# crystal, experimental, refinement or atomic coordinate data resulting 
# from the CCDC's data processing and validation procedures.
#
#######################################################################

data_TAXYAT
_symmetry_cell_setting           monoclinic
_symmetry_space_group_name_H-M   'P 21/c'
_symmetry_Int_Tables_number      14
_space_group_name_Hall           '-P 2ybc'
loop_
_symmetry_equiv_pos_site_id
_symmetry_equiv_pos_as_xyz
1 x,y,z
2 -x,1/2+y,1/2-z
3 -x,-y,-z
4 x,1/2-y,1/2+z
_cell_length_a                   26.729(3)
_cell_length_b                   13.0101(10)
_cell_length_c                   20.980(2)
_cell_angle_alpha                90
_cell_angle_beta                 95.253(10)
_cell_angle_gamma                90
_cell_volume                     7265.09
loop_
_atom_site_label
_atom_site_type_symbol
_atom_site_fract_x
_atom_site_fract_y
_atom_site_fract_z
Ag1 Ag 0.371028(11) 0.63763(2) 0.259651(14)
Ag2 Ag 0.126564(10) 0.10895(2) 0.244072(14)
S1 S 0.39283(4) 0.79089(8) 0.18792(5)
S2 S 0.54348(4) 1.08095(8) 0.18382(5)
S3 S 0.32564(4) 0.50755(8) 0.18500(5)
S4 S 0.17744(4) 0.21177(8) 0.16638(5)
S5 S 0.31957(4) 0.71602(8) 0.34485(5)
S6 S 0.17270(4) 0.94217(8) 0.27276(5)
S7 S 0.04038(4) 0.06004(8) 0.18454(5)
S8 S -0.10502(3) -0.24340(8) 0.18129(5)
C1 C 0.41295(16) 0.7355(3) 0.11679(19)
C2 C 0.37630(19) 0.7236(4) 0.0663(2)
H1 H 0.3433 0.7460 0.0703
C3 C 0.3884(2) 0.6785(4) 0.0099(2)
H2 H 0.3635 0.6706 -0.0244
C4 C 0.4373(2) 0.6448(4) 0.0033(3)
H3 H 0.4456 0.6139 -0.0349
C5 C 0.4732(2) 0.6579(4) 0.0542(3)
H4 H 0.5064 0.6369 0.0503
C6 C 0.46126(17) 0.7013(4) 0.1110(2)
H5 H 0.4860 0.7076 0.1456
C7 C 0.44929(15) 0.8445(3) 0.22883(19)
H6 H 0.4424 0.8658 0.2720
H7 H 0.4754 0.7916 0.2331
C8 C 0.46838(14) 0.9365(3) 0.19339(19)
H8 H 0.4427 0.9905 0.1901
H9 H 0.4747 0.9159 0.1499
C9 C 0.51661(15) 0.9782(3) 0.22839(19)
H10 H 0.5411 0.9223 0.2351
H11 H 0.5095 1.0040 0.2705
C10 C 0.55868(14) 1.0205(3) 0.1120(2)
C11 C 0.57077(18) 0.9165(4) 0.1076(2)
H12 H 0.5717 0.8741 0.1440
C12 C 0.5812(2) 0.8771(4) 0.0506(3)
H13 H 0.5875 0.8063 0.0476
C13 C 0.5829(2) 0.9369(5) -0.0030(3)
H14 H 0.5922 0.9089 -0.0415
C14 C 0.5701(2) 1.0417(5) 0.0013(3)
H15 H 0.5696 1.0841 -0.0351
C15 C 0.55841(18) 1.0819(4) 0.0587(2)
H16 H 0.5502 1.1519 0.0615
C16 C 0.37155(15) 0.4163(3) 0.1652(2)
C17 C 0.37931(19) 0.3212(4) 0.1936(2)
H17 H 0.3599 0.2997 0.2263
C18 C 0.4165(2) 0.2579(4) 0.1730(3)
H18 H 0.4214 0.1923 0.1913
C19 C 0.4460(2) 0.2884(5) 0.1267(3)
H19 H 0.4711 0.2450 0.1132
C20 C 0.4380(2) 0.3852(5) 0.1000(3)
H20 H 0.4582 0.4080 0.0685
C21 C 0.40157(18) 0.4470(4) 0.1188(2)
H21 H 0.3966 0.5121 0.0998
C22 C 0.28128(18) 0.4339(4) 0.2262(2)
H22 H 0.2995 0.3929 0.2600
H23 H 0.2589 0.4810 0.2465
C23 C 0.25005(16) 0.3627(3) 0.1806(2)
H24 H 0.2723 0.3177 0.1585
H25 H 0.2299 0.4034 0.1484
C24 C 0.21553(16) 0.2980(4) 0.2188(2)
H26 H 0.1936 0.3434 0.2410
H27 H 0.2358 0.2578 0.2511
C25 C 0.22120(16) 0.1233(3) 0.13847(19)
C26 C 0.2065(2) 0.0759(4) 0.0802(2)
H28 H 0.1752 0.0917 0.0583
C27 C 0.2372(3) 0.0072(5) 0.0552(3)
H29 H 0.2268 -0.0253 0.0162
C28 C 0.2840(3) -0.0162(5) 0.0860(3)
H30 H 0.3052 -0.0635 0.0681
C29 C 0.2986(2) 0.0309(5) 0.1432(3)
H31 H 0.3303 0.0160 0.1644
C30 C 0.26686(18) 0.1008(4) 0.1704(2)
H32 H 0.2768 0.1319 0.2101
C31 C 0.27719(16) 0.6150(3) 0.35875(18)
C32 C 0.22633(17) 0.6140(4) 0.3397(3)
H33 H 0.2115 0.6715 0.3184
C33 C 0.1973(2) 0.5318(5) 0.3511(3)
H34 H 0.1625 0.5343 0.3395
C34 C 0.2181(2) 0.4450(5) 0.3793(3)
H35 H 0.1982 0.3869 0.3854
C35 C 0.2680(3) 0.4446(5) 0.3984(3)
H36 H 0.2823 0.3859 0.4189
C36 C 0.2984(2) 0.5276(4) 0.3885(3)
H37 H 0.3329 0.5253 0.4018
C37 C 0.28140(16) 0.8188(3) 0.3077(2)
H38 H 0.3030 0.8659 0.2861
H39 H 0.2568 0.7896 0.2752
C38 C 0.25426(16) 0.8780(3) 0.3554(2)
H40 H 0.2786 0.8993 0.3907
H41 H 0.2298 0.8324 0.3731
C39 C 0.22683(16) 0.9730(3) 0.3275(2)
H42 H 0.2502 1.0144 0.3050
H43 H 0.2159 1.0146 0.3627
C40 C 0.13080(16) 0.8837(3) 0.3240(2)
C41 C 0.1129(2) 0.9368(4) 0.3730(3)
H44 H 0.1242 1.0039 0.3826
C42 C 0.0778(3) 0.8909(5) 0.4089(4)
H45 H 0.0658 0.9264 0.4434
C43 C 0.0601(2) 0.7909(5) 0.3932(3)
H46 H 0.0364 0.7590 0.4171
C44 C 0.0780(2) 0.7420(4) 0.3434(3)
H47 H 0.0658 0.6761 0.3321
C45 C 0.11372(17) 0.7861(3) 0.3083(3)
H48 H 0.1262 0.7502 0.2742
C46 C 0.05733(16) 0.0130(3) 0.1104(2)
C47 C 0.0705(2) -0.0874(4) 0.0999(3)
H49 H 0.0719 -0.1353 0.1335
C48 C 0.0815(3) -0.1173(6) 0.0399(4)
H50 H 0.0883 -0.1868 0.0319
C49 C 0.0827(3) -0.0456(7) -0.0089(3)
H51 H 0.0928 -0.0656 -0.0488
C50 C 0.0697(3) 0.0511(6) 0.0007(3)
H52 H 0.0695 0.0986 -0.0331
C51 C 0.0562(2) 0.0833(4) 0.0602(2)
H53 H 0.0464 0.1517 0.0663
C52 C 0.01717(15) -0.0520(3) 0.22340(19)
H54 H 0.0432 -0.1053 0.2265
H55 H 0.0100 -0.0338 0.2670
C53 C -0.03031(15) -0.0947(3) 0.18721(19)
H56 H -0.0234 -0.1134 0.1436
H57 H -0.0566 -0.0420 0.1844
C54 C -0.04838(15) -0.1896(3) 0.22186(18)
H58 H -0.0547 -0.1706 0.2656
H59 H -0.0219 -0.2419 0.2246
C55 C -0.08517(16) -0.2911(3) 0.10829(18)
C56 C -0.1212(2) -0.2974(4) 0.0569(2)
H60 H -0.1543 -0.2759 0.0613
C57 C -0.1084(3) -0.3355(5) -0.0011(3)
H61 H -0.1330 -0.3408 -0.0360
C58 C -0.0593(3) -0.3660(5) -0.0076(3)
H62 H -0.0507 -0.3923 -0.0469
C59 C -0.0235(2) -0.3576(5) 0.0428(3)
H63 H 0.0099 -0.3757 0.0377
C60 C -0.03644(18) -0.3226(4) 0.1014(2)
H64 H -0.0121 -0.3202 0.1366
Ag1A Ag 0.628972(11) 1.13763(2) 0.240349(14)
Ag2_2 Ag 0.126564(10) 1.10895(2) 0.244072(14)
Ag2A Ag -0.126564(10) -0.39105(2) 0.255928(14)
S2A S 0.45652(4) 0.58095(8) 0.31618(5)
S6_2 S 0.17270(4) -0.05783(8) 0.27276(5)
S8A S 0.10502(3) 0.25660(8) 0.31871(5)
P1 P 0.38734(6) 0.07877(14) 0.34421(7)
F1 F 0.3749(2) 0.0473(5) 0.2733(2)
F2 F 0.3376(2) 0.1301(7) 0.3381(4)
F3 F 0.3988(2) 0.1093(5) 0.4172(2)
F4 F 0.43964(19) 0.0241(4) 0.3492(3)
F5 F 0.3637(3) -0.0171(7) 0.3659(4)
F6 F 0.4116(3) 0.1775(5) 0.3280(3)
P2 P 0.10563(6) 0.55430(12) 0.16838(7)
F7 F 0.0762(3) 0.5948(7) 0.2216(3)
F8 F 0.0916(2) 0.6428(6) 0.1287(5)
F9 F 0.1357(2) 0.5096(6) 0.1195(3)
F10 F 0.1198(2) 0.4678(7) 0.2133(5)
F11 F 0.1540(2) 0.6126(5) 0.1941(3)
F12 F 0.05551(16) 0.4955(4) 0.1476(2)
O1 O 0.2596(3) 0.7388(7) 0.0132(4)
C61 C 0.1836(4) 0.6857(10) 0.0129(6)
H65 H 0.1652 0.7462 -0.0029
H66 H 0.1630 0.6462 0.0398
H67 H 0.1917 0.6438 -0.0229
C62 C 0.2279(4) 0.7159(8) 0.0487(5)
C63 C 0.2330(4) 0.7361(9) 0.1173(6)
H68 H 0.2672 0.7567 0.1306
H69 H 0.2249 0.6744 0.1402
H70 H 0.2101 0.7908 0.1269
O2 O 0.2426(2) 0.1873(6) 0.4489(4)
C64 C 0.3116(3) 0.2229(7) 0.5179(4)
H71 H 0.3410 0.2217 0.4941
H72 H 0.3205 0.1976 0.5610
H73 H 0.2992 0.2928 0.5199
C65 C 0.2750(3) 0.1616(6) 0.4880(4)
C66 C 0.2789(3) 0.0572(6) 0.5044(4)
H74 H 0.2479 0.0222 0.4897
H75 H 0.2849 0.0505 0.5505
H76 H 0.3066 0.0266 0.4843
loop_
_geom_bond_atom_site_label_1
_geom_bond_atom_site_label_2
_geom_bond_site_symmetry_1
_geom_bond_site_symmetry_2
Ag1 S1 1_555 1_555
Ag2 S4 1_555 1_555
S1 C1 1_555 1_555
S2 C9 1_555 1_555
S3 Ag1 1_555 1_555
S4 C24 1_555 1_555
S5 Ag1 1_555 1_555
S6 C39 1_555 1_555
S7 Ag2 1_555 1_555
S8 C54 1_555 1_555
P1 F1 1_555 1_555
P2 F7 1_555 1_555
F2 P1 1_555 1_555
F3 P1 1_555 1_555
F4 P1 1_555 1_555
F5 P1 1_555 1_555
F6 P1 1_555 1_555
F8 P2 1_555 1_555
F9 P2 1_555 1_555
F10 P2 1_555 1_555
F11 P2 1_555 1_555
F12 P2 1_555 1_555
O1 C62 1_555 1_555
O2 C65 1_555 1_555
C1 C2 1_555 1_555
C2 H1 1_555 1_555
C3 C2 1_555 1_555
H2 C3 1_555 1_555
C4 C3 1_555 1_555
H3 C4 1_555 1_555
C5 C4 1_555 1_555
H4 C5 1_555 1_555
C6 C1 1_555 1_555
H5 C6 1_555 1_555
C7 S1 1_555 1_555
H6 C7 1_555 1_555
H7 C7 1_555 1_555
C8 C7 1_555 1_555
H8 C8 1_555 1_555
H9 C8 1_555 1_555
C9 C8 1_555 1_555
H10 C9 1_555 1_555
H11 C9 1_555 1_555
C10 S2 1_555 1_555
C11 C10 1_555 1_555
H12 C11 1_555 1_555
C12 C11 1_555 1_555
H13 C12 1_555 1_555
C13 C12 1_555 1_555
H14 C13 1_555 1_555
C14 C13 1_555 1_555
H15 C14 1_555 1_555
C15 C10 1_555 1_555
H16 C15 1_555 1_555
C16 S3 1_555 1_555
C17 C16 1_555 1_555
H17 C17 1_555 1_555
C18 C17 1_555 1_555
H18 C18 1_555 1_555
C19 C18 1_555 1_555
H19 C19 1_555 1_555
C20 C19 1_555 1_555
H20 C20 1_555 1_555
C21 C16 1_555 1_555
H21 C21 1_555 1_555
C22 S3 1_555 1_555
H22 C22 1_555 1_555
H23 C22 1_555 1_555
C23 C22 1_555 1_555
H24 C23 1_555 1_555
H25 C23 1_555 1_555
C24 C23 1_555 1_555
H26 C24 1_555 1_555
H27 C24 1_555 1_555
C25 S4 1_555 1_555
C26 C25 1_555 1_555
H28 C26 1_555 1_555
C27 C26 1_555 1_555
H29 C27 1_555 1_555
C28 C27 1_555 1_555
H30 C28 1_555 1_555
C29 C28 1_555 1_555
H31 C29 1_555 1_555
C30 C25 1_555 1_555
H32 C30 1_555 1_555
C31 S5 1_555 1_555
C32 C31 1_555 1_555
H33 C32 1_555 1_555
C33 C32 1_555 1_555
H34 C33 1_555 1_555
C34 C33 1_555 1_555
H35 C34 1_555 1_555
C35 C34 1_555 1_555
H36 C35 1_555 1_555
C36 C31 1_555 1_555
H37 C36 1_555 1_555
C37 S5 1_555 1_555
H38 C37 1_555 1_555
H39 C37 1_555 1_555
C38 C37 1_555 1_555
H40 C38 1_555 1_555
H41 C38 1_555 1_555
C39 C38 1_555 1_555
H42 C39 1_555 1_555
H43 C39 1_555 1_555
C40 S6 1_555 1_555
C41 C40 1_555 1_555
H44 C41 1_555 1_555
C42 C41 1_555 1_555
H45 C42 1_555 1_555
C43 C42 1_555 1_555
H46 C43 1_555 1_555
C44 C43 1_555 1_555
H47 C44 1_555 1_555
C45 C40 1_555 1_555
H48 C45 1_555 1_555
C46 S7 1_555 1_555
C47 C46 1_555 1_555
H49 C47 1_555 1_555
C48 C47 1_555 1_555
H50 C48 1_555 1_555
C49 C48 1_555 1_555
H51 C49 1_555 1_555
C50 C49 1_555 1_555
H52 C50 1_555 1_555
C51 C46 1_555 1_555
H53 C51 1_555 1_555
C52 S7 1_555 1_555
H54 C52 1_555 1_555
H55 C52 1_555 1_555
C53 C52 1_555 1_555
H56 C53 1_555 1_555
H57 C53 1_555 1_555
C54 C53 1_555 1_555
H58 C54 1_555 1_555
H59 C54 1_555 1_555
C55 S8 1_555 1_555
C56 C55 1_555 1_555
H60 C56 1_555 1_555
C57 C56 1_555 1_555
H61 C57 1_555 1_555
C58 C57 1_555 1_555
H62 C58 1_555 1_555
C59 C58 1_555 1_555
H63 C59 1_555 1_555
C60 C55 1_555 1_555
H64 C60 1_555 1_555
C61 H65 1_555 1_555
H66 C61 1_555 1_555
H67 C61 1_555 1_555
C62 C61 1_555 1_555
C63 C62 1_555 1_555
H68 C63 1_555 1_555
H69 C63 1_555 1_555
H70 C63 1_555 1_555
C64 H71 1_555 1_555
H72 C64 1_555 1_555
H73 C64 1_555 1_555
C65 C64 1_555 1_555
C66 C65 1_555 1_555
H74 C66 1_555 1_555
H75 C66 1_555 1_555
H76 C66 1_555 1_555
Ag1A S2 1_555 1_555
Ag2_2 S6 1_555 1_555
Ag2A S8 1_555 1_555
S2A Ag1 1_555 1_555
S6_2 Ag2 1_555 1_555
S8A Ag2 1_555 1_555
C5 C6 1_555 1_555
C14 C15 1_555 1_555
C20 C21 1_555 1_555
C29 C30 1_555 1_555
C35 C36 1_555 1_555
C44 C45 1_555 1_555
C50 C51 1_555 1_555
C59 C60 1_555 1_555

#END
