
#######################################################################
#
#                 Cambridge Crystallographic Data Centre
#                                CCDC 
#
#######################################################################
#
# If this CIF has been generated from an entry in the Cambridge 
# Structural Database, then it will include bibliographic, chemical, 
# crystal, experimental, refinement or atomic coordinate data resulting 
# from the CCDC's data processing and validation procedures.
#
#######################################################################

data_TAYMUC
_symmetry_cell_setting           monoclinic
_symmetry_space_group_name_H-M   'P 21/n'
_symmetry_Int_Tables_number      14
_space_group_name_Hall           '-P 2yn'
loop_
_symmetry_equiv_pos_site_id
_symmetry_equiv_pos_as_xyz
1 x,y,z
2 1/2-x,1/2+y,1/2-z
3 -x,-y,-z
4 1/2+x,1/2-y,1/2+z
_cell_length_a                   10.96(5)
_cell_length_b                   10.90(3)
_cell_length_c                   16.29(5)
_cell_angle_alpha                90
_cell_angle_beta                 103.806(14)
_cell_angle_gamma                90
_cell_volume                     1889.85
loop_
_atom_site_label
_atom_site_type_symbol
_atom_site_fract_x
_atom_site_fract_y
_atom_site_fract_z
Co1 Co -0.13440(4) -0.04897(4) 0.15492(3)
C1 C -0.2670(3) -0.2195(3) 0.03592(19)
C2 C -0.4861(3) -0.4969(3) -0.1981(2)
C3 C -0.3056(3) -0.3462(3) 0.00435(19)
C4 C -0.3698(3) -0.3624(3) -0.07983(19)
H1 H -0.3847 -0.2943 -0.1173
C5 C -0.4122(3) -0.4789(3) -0.10889(19)
C6 C -0.3916(3) -0.5788(3) -0.05384(19)
H2 H -0.4208 -0.6580 -0.0736
C7 C -0.3280(3) -0.5620(3) 0.03050(19)
C8 C -0.2822(3) -0.4464(3) 0.05851(19)
H3 H -0.2346 -0.4360 0.1150
C9 C 0.1648(3) 0.4088(3) -0.29244(19)
H4 H 0.2196 0.3421 -0.2944
C10 C 0.0507(3) 0.3850(3) -0.27361(19)
H5 H 0.0289 0.3034 -0.2626
C11 C -0.0324(3) 0.4808(3) -0.27077(19)
C12 C -0.1611(3) 0.4589(3) -0.2545(2)
H6 H -0.1881 0.5346 -0.2303
H7 H -0.2214 0.4436 -0.3093
C13 C -0.1684(3) 0.3522(3) -0.1952(2)
H8 H -0.1399 0.2764 -0.2184
H9 H -0.2569 0.3402 -0.1928
C14 C -0.0886(3) 0.3730(3) -0.1059(2)
H10 H -0.1183 0.4485 -0.0831
H11 H -0.0007 0.3873 -0.1092
C15 C -0.0900(3) 0.2698(3) -0.0446(2)
C16 C -0.0509(3) 0.2880(3) 0.0419(2)
H12 H -0.0184 0.3656 0.0629
C17 C -0.0586(3) 0.1949(3) 0.0980(2)
H13 H -0.0321 0.2110 0.1569
C18 C -0.1342(3) 0.0623(3) -0.0112(2)
H14 H -0.1616 -0.0174 -0.0309
C19 C -0.1294(3) 0.1512(3) -0.0701(2)
H15 H -0.1532 0.1319 -0.1286
C20 C 0.0069(3) 0.5988(3) -0.2865(2)
H16 H -0.0458 0.6674 -0.2844
C21 C 0.1223(3) 0.6155(3) -0.3051(2)
H17 H 0.1467 0.6963 -0.3162
N1 N 0.2017(2) 0.5226(2) -0.30810(16)
N2 N -0.1021(2) 0.0820(2) 0.07256(16)
O1 O -0.1702(2) -0.21026(19) 0.09755(13)
O3 O -0.3318(2) -0.12938(19) 0.00274(14)
O4 O -0.4939(2) -0.40511(19) -0.24930(14)
O5 O -0.5411(2) -0.5957(2) -0.22130(14)
O6 O -0.3105(2) -0.6565(2) 0.08670(14)
H20 H -0.2709 -0.6313 0.1343
Co1C Co 0.36560(4) 0.54897(4) -0.34508(3)
Co1C_2 Co -0.63440(4) -0.45103(4) -0.34508(3)
N1C N -0.2983(2) -0.0226(2) 0.19190(16)
O4C O 0.0061(2) -0.09489(19) 0.25070(14)
O2 O 0.5893(2) -0.8643(2) -0.99001(16)
H18 H 0.510(4) -0.868(3) -0.991(2)
H19 H 0.614(4) -0.942(4) -0.989(3)
loop_
_geom_bond_atom_site_label_1
_geom_bond_atom_site_label_2
_geom_bond_site_symmetry_1
_geom_bond_site_symmetry_2
Co1 N2 1_555 1_555
C1 C3 1_555 1_555
C2 C5 1_555 1_555
C3 C4 1_555 1_555
C4 H1 1_555 1_555
C5 C4 1_555 1_555
C6 C5 1_555 1_555
H2 C6 1_555 1_555
C7 C6 1_555 1_555
C8 C3 1_555 1_555
H3 C8 1_555 1_555
C9 H4 1_555 1_555
C10 C9 1_555 1_555
H5 C10 1_555 1_555
C11 C10 1_555 1_555
C12 C11 1_555 1_555
H6 C12 1_555 1_555
H7 C12 1_555 1_555
C13 C12 1_555 1_555
H8 C13 1_555 1_555
H9 C13 1_555 1_555
C14 C13 1_555 1_555
H10 C14 1_555 1_555
H11 C14 1_555 1_555
C15 C14 1_555 1_555
C16 C15 1_555 1_555
H12 C16 1_555 1_555
C17 C16 1_555 1_555
H13 C17 1_555 1_555
C18 H14 1_555 1_555
C19 C15 1_555 1_555
H15 C19 1_555 1_555
C20 C11 1_555 1_555
H16 C20 1_555 1_555
C21 C20 1_555 1_555
H17 C21 1_555 1_555
N1 C9 1_555 1_555
N2 C17 1_555 1_555
O1 Co1 1_555 1_555
O2 H18 1_555 1_555
H19 O2 1_555 1_555
O3 C1 1_555 1_555
O4 C2 1_555 1_555
O5 C2 1_555 1_555
O6 C7 1_555 1_555
H20 O6 1_555 1_555
Co1C N1 1_555 1_555
Co1C_2 O4 1_555 1_555
N1C Co1 1_555 1_555
O4C Co1 1_555 1_555
C1 O1 1_555 1_555
C7 C8 1_555 1_555
C18 C19 1_555 1_555
C18 N2 1_555 1_555
C21 N1 1_555 1_555

#END
