
#######################################################################
#
#                 Cambridge Crystallographic Data Centre
#                                CCDC 
#
#######################################################################
#
# If this CIF has been generated from an entry in the Cambridge 
# Structural Database, then it will include bibliographic, chemical, 
# crystal, experimental, refinement or atomic coordinate data resulting 
# from the CCDC's data processing and validation procedures.
#
#######################################################################

data_TAYQIV
_symmetry_cell_setting           monoclinic
_symmetry_space_group_name_H-M   'P 21/c'
_symmetry_Int_Tables_number      14
_space_group_name_Hall           '-P 2ybc'
loop_
_symmetry_equiv_pos_site_id
_symmetry_equiv_pos_as_xyz
1 x,y,z
2 -x,1/2+y,1/2-z
3 -x,-y,-z
4 x,1/2-y,1/2+z
_cell_length_a                   9.3721(2)
_cell_length_b                   20.5880(7)
_cell_length_c                   14.0744(4)
_cell_angle_alpha                90
_cell_angle_beta                 90.289(2)
_cell_angle_gamma                90
_cell_volume                     2715.66
loop_
_atom_site_label
_atom_site_type_symbol
_atom_site_fract_x
_atom_site_fract_y
_atom_site_fract_z
Ba1 Ba 0.35663(9) 0.46716(4) 0.37936(6)
Ba2 Ba 0.87201(9) 0.46086(4) 0.37209(6)
Ba3 Ba -0.12335(9) 0.46620(4) 0.86518(6)
Ba4 Ba 0.61237(9) 0.53649(4) 0.11666(6)
O1 O 0.6161(11) 0.3900(6) 0.3486(8)
O2 O 0.2513(11) 0.3513(5) 0.4488(7)
O3 O 0.1066(10) 0.4322(5) 0.4900(7)
O4 O -0.2101(11) 0.4245(6) 0.5516(7)
O5 O -0.0677(12) 0.4443(5) 0.6752(7)
O6 O 0.3856(11) 0.5640(5) 0.2400(7)
O7 O 0.2497(10) 0.6484(5) 0.2027(7)
O8 O 0.5760(11) 0.5472(6) 0.4311(7)
O9 O 0.1425(11) 0.4273(5) 0.2568(7)
O10 O -0.0010(11) 0.3468(5) 0.3011(7)
O11 O 0.1333(12) 0.3896(6) 0.8973(9)
O12 O 0.8261(12) 0.4522(6) 0.1787(7)
O13 O 0.9570(12) 0.4358(6) 0.0499(7)
O14 O 0.3036(12) 0.4366(6) 0.0697(7)
O15 O 0.6452(10) 0.4320(5) -0.0087(6)
O16 O 0.5077(11) 0.3483(5) -0.0480(7)
O17 O 0.7011(10) 0.5590(6) 0.2983(7)
O18 O 0.4593(11) 0.4263(6) 0.1882(8)
C1 C 0.1439(15) 0.3722(7) 0.4917(9)
C2 C 0.0574(17) 0.3252(8) 0.5463(11)
H1 H 0.0833 0.2806 0.5434
C3 C -0.1120(15) 0.4087(8) 0.6090(9)
C4 C -0.0556(18) 0.3416(8) 0.5999(10)
H2 H -0.1023 0.3080 0.6341
C5 C 0.3557(14) 0.6249(7) 0.2430(9)
C6 C 0.4537(16) 0.6688(8) 0.2975(10)
H3 H 0.4359 0.7142 0.2949
C7 C 0.5635(16) 0.6485(8) 0.3490(11)
H4 H 0.6154 0.6808 0.3828
C8 C 0.6143(15) 0.5803(7) 0.3597(10)
C9 C 0.1106(16) 0.3675(7) 0.2598(10)
C10 C 0.2006(17) 0.3198(8) 0.2086(11)
H5 H 0.1788 0.2749 0.2145
C11 C 0.3104(16) 0.3371(8) 0.1548(10)
H6 H 0.3618 0.3032 0.1245
C12 C 0.3612(15) 0.4061(8) 0.1373(10)
C13 C 0.8675(16) 0.4177(8) 0.1109(10)
C14 C 0.8157(18) 0.3484(8) 0.1050(11)
H7 H 0.8654 0.3169 0.1417
C15 C 0.6177(16) 0.3721(8) -0.0047(9)
C16 C 0.7049(16) 0.3276(8) 0.0522(11)
H8 H 0.6824 0.2826 0.0518
Ba1B Ba -0.35663(9) 0.53284(4) 0.62064(6)
Ba1B_2 Ba 0.64337(9) 0.53284(4) 0.62064(6)
Ba2_2 Ba -0.12799(9) 0.46086(4) 0.37209(6)
Ba2B Ba 0.12799(9) 0.53914(4) 0.62791(6)
Ba3B Ba 0.12335(9) 0.53380(4) 0.13482(6)
Ba3B_2 Ba 1.12335(9) 0.53380(4) 0.13482(6)
Ba3_2 Ba 0.87665(9) 0.46620(4) -0.13482(6)
Ba4B Ba 0.38763(9) 0.46351(4) 0.88334(6)
Ba4B_2 Ba 0.38763(9) 0.46351(4) -0.11666(6)
O3_2 O 1.1066(10) 0.4322(5) 0.4900(7)
O3B O 0.8934(10) 0.5678(5) 0.5100(7)
O4B O 0.2101(11) 0.5755(6) 0.4484(7)
O4_2 O 0.7899(11) 0.4245(6) 0.5516(7)
O5B O 1.0677(12) 0.5557(5) 0.3248(7)
O6B O -0.3856(11) 0.4360(5) 0.7600(7)
O7B O -0.2497(10) 0.3516(5) 0.7973(7)
O8B O 0.4240(11) 0.4528(6) 0.5689(7)
O9B O -0.1425(11) 0.5727(5) 0.7432(7)
O10_2 O 0.9990(11) 0.3468(5) 0.3011(7)
O11B O 0.8667(12) 0.6104(6) 0.1027(9)
O13B O 0.0430(12) 0.5642(6) 0.9501(7)
O13_2 O -0.0430(12) 0.4358(6) 1.0499(7)
O14B O -0.3036(12) 0.5634(6) 0.9303(7)
O14B_2 O 0.6964(12) 0.5634(6) -0.0697(7)
O15_2 O -0.3548(10) 0.4320(5) 0.9913(6)
O15B O 0.3548(10) 0.5680(5) 0.0087(6)
O16B O 0.4923(11) 0.6517(5) 0.0480(7)
O19 O 0.0087(15) 0.7172(7) 0.1502(11)
H11 H 0.019(17) 0.770(9) 0.153(12)
H12 H 0.077(17) 0.704(7) 0.155(10)
O20 O 0.4975(15) 0.2817(7) 0.4119(13)
H9 H 0.501(14) 0.235(8) 0.420(9)
H10 H 0.422(18) 0.290(8) 0.410(10)
loop_
_geom_bond_atom_site_label_1
_geom_bond_atom_site_label_2
_geom_bond_site_symmetry_1
_geom_bond_site_symmetry_2
Ba1 O1 1_555 1_555
Ba2 O1 1_555 1_555
Ba3 O5 1_555 1_555
Ba4 O6 1_555 1_555
O2 Ba1 1_555 1_555
O3 Ba1 1_555 1_555
O4 C3 1_555 1_555
O5 C3 1_555 1_555
O6 Ba1 1_555 1_555
O7 C5 1_555 1_555
O8 Ba1 1_555 1_555
O9 Ba1 1_555 1_555
O10 C9 1_555 1_555
O11 Ba3 1_555 1_555
O12 Ba2 1_555 1_555
O13 C13 1_555 1_555
O14 C12 1_555 1_555
O15 Ba4 1_555 1_555
O16 C15 1_555 1_555
O17 Ba2 1_555 1_555
O18 Ba1 1_555 1_555
C1 O2 1_555 1_555
C2 C1 1_555 1_555
H1 C2 1_555 1_555
C3 C4 1_555 1_555
C4 C2 1_555 1_555
H2 C4 1_555 1_555
C5 O6 1_555 1_555
C6 C5 1_555 1_555
H3 C6 1_555 1_555
C7 C6 1_555 1_555
H4 C7 1_555 1_555
C8 O8 1_555 1_555
C9 O9 1_555 1_555
C10 C9 1_555 1_555
H5 C10 1_555 1_555
C11 C10 1_555 1_555
H6 C11 1_555 1_555
C12 O18 1_555 1_555
C13 O12 1_555 1_555
C14 C13 1_555 1_555
H7 C14 1_555 1_555
C15 O15 1_555 1_555
C16 C14 1_555 1_555
H8 C16 1_555 1_555
O19 H11 1_555 1_555
O20 H9 1_555 1_555
H10 O20 1_555 1_555
H12 O19 1_555 1_555
Ba1B O4 1_555 1_555
Ba1B_2 O8 1_555 1_555
Ba2_2 O3 1_555 1_555
Ba2B O3 1_555 1_555
Ba3B O6 1_555 1_555
Ba3B_2 O13 1_555 1_555
Ba3_2 O13 1_555 1_555
Ba4B O11 1_555 1_555
Ba4B_2 O14 1_555 1_555
O3_2 Ba2 1_555 1_555
O3B Ba2 1_555 1_555
O4B Ba1 1_555 1_555
O4_2 Ba2 1_555 1_555
O5B Ba2 1_555 1_555
O6B Ba3 1_555 1_555
O7B Ba3 1_555 1_555
O8B Ba1 1_555 1_555
O9B Ba3 1_555 1_555
O10_2 Ba2 1_555 1_555
O11B Ba4 1_555 1_555
O13B Ba3 1_555 1_555
O13_2 Ba3 1_555 1_555
O14B Ba3 1_555 1_555
O14B_2 Ba4 1_555 1_555
O15_2 Ba3 1_555 1_555
O15B Ba4 1_555 1_555
O16B Ba4 1_555 1_555
Ba4 O12 1_555 1_555
Ba4 O17 1_555 1_555
Ba4 O18 1_555 1_555
O3 C1 1_555 1_555
O4 Ba2_2 1_555 1_555
O5 Ba2B 1_555 1_555
O7 Ba3B 1_555 1_555
O9 Ba3B 1_555 1_555
O10 Ba2_2 1_555 1_555
O14 Ba3B 1_555 1_555
O15 Ba3_2 1_555 1_555
O15 Ba4B_2 1_555 1_555
O16 Ba4B_2 1_555 1_555
O17 C8 1_555 1_555
C7 C8 1_555 1_555
C11 C12 1_555 1_555
C15 C16 1_555 1_555
Ba1B O6B 1_555 1_555
Ba1B O9B 1_555 1_555
Ba1B_2 O3B 1_555 1_555
Ba1B_2 O4_2 1_555 1_555
Ba1B_2 O8B 1_555 1_555
Ba2B O4B 1_555 1_555
Ba3B O15B 1_555 1_555
Ba3B_2 O5B 1_555 1_555
Ba3B_2 O11B 1_555 1_555
Ba3_2 O14B_2 1_555 1_555
Ba4B_2 O15B 1_555 1_555

#END
