
#######################################################################
#
#                 Cambridge Crystallographic Data Centre
#                                CCDC 
#
#######################################################################
#
# If this CIF has been generated from an entry in the Cambridge 
# Structural Database, then it will include bibliographic, chemical, 
# crystal, experimental, refinement or atomic coordinate data resulting 
# from the CCDC's data processing and validation procedures.
#
#######################################################################

data_TAZDON
_symmetry_cell_setting           orthorhombic
_symmetry_space_group_name_H-M   'P b c n'
_symmetry_Int_Tables_number      60
_space_group_name_Hall           '-P 2n 2ab'
loop_
_symmetry_equiv_pos_site_id
_symmetry_equiv_pos_as_xyz
1 x,y,z
2 1/2-x,1/2-y,1/2+z
3 1/2+x,1/2-y,-z
4 -x,y,1/2-z
5 -x,-y,-z
6 1/2+x,1/2+y,1/2-z
7 1/2-x,1/2+y,z
8 x,-y,1/2+z
_cell_length_a                   23.491(2)
_cell_length_b                   12.234(2)
_cell_length_c                   7.441(1)
_cell_angle_alpha                90
_cell_angle_beta                 90
_cell_angle_gamma                90
_cell_volume                     2138.46
loop_
_atom_site_label
_atom_site_type_symbol
_atom_site_fract_x
_atom_site_fract_y
_atom_site_fract_z
Mn1 Mn 0.5000 0.6228(1) 0.2500
N1 N 0.4523(1) 0.7730(1) 0.1516(2)
C1 C 0.4036(1) 0.7679(2) 0.0583(3)
C2 C 0.3727(1) 0.8596(2) 0.0107(3)
C3 C 0.3929(1) 0.9610(2) 0.0622(3)
C4 C 0.4436(1) 0.9679(2) 0.1562(3)
C5 C 0.4726(1) 0.8723(1) 0.1991(2)
O1 O 0.4403(1) 0.5228(1) 0.1232(2)
O2 O 0.5563(1) 0.6400(1) 0.0106(2)
C6 C 0.4191(1) 0.4323(2) 0.0861(2)
C7 C 0.3609(1) 0.4067(2) 0.1536(2)
C8 C 0.3307(1) 0.4855(2) 0.2512(3)
O3 O 0.3611(1) 0.2264(1) 0.0216(2)
C9 C 0.2762(1) 0.4654(2) 0.3134(3)
C10 C 0.2509(1) 0.3649(2) 0.2768(3)
C11 C 0.2794(1) 0.2859(2) 0.1804(3)
C12 C 0.3346(1) 0.3058(2) 0.1171(3)
H1 H 0.3896(1) 0.6981(2) 0.0234(3)
H2 H 0.3383(1) 0.8530(2) -0.0558(3)
H3 H 0.3722(1) 1.0254(2) 0.0332(3)
H4 H 0.4583(1) 1.0370(2) 0.1911(3)
H5 H 0.3480(1) 0.5542(2) 0.2752(3)
H6 H 0.2564(1) 0.5194(2) 0.3804(3)
H7 H 0.2134(1) 0.3507(2) 0.3188(3)
H8 H 0.2615(1) 0.2177(2) 0.1569(3)
H9 H 0.3958 0.2600 -0.0059
C5C C 0.5274(1) 0.8723(1) 0.3009(2)
N1C N 0.5477(1) 0.7730(1) 0.3484(2)
O2D O 0.4437(1) 0.3600(1) -0.0106(2)
Mn1D Mn 0.5000 0.3772(1) -0.2500
O1C O 0.5597(1) 0.5228(1) 0.3768(2)
C6C C 0.5809(1) 0.4323(2) 0.4139(2)
O2G O 0.5563(1) 0.3600(1) 0.5106(2)
Mn1G Mn 0.5000 0.3772(1) 0.7500
O2C O 0.4437(1) 0.6400(1) 0.4894(2)
C7C C 0.6391(1) 0.4067(2) 0.3464(2)
C8C C 0.6693(1) 0.4855(2) 0.2488(3)
C9C C 0.7238(1) 0.4654(2) 0.1866(3)
C10C C 0.7491(1) 0.3649(2) 0.2232(3)
C11C C 0.7206(1) 0.2859(2) 0.3196(3)
C12C C 0.6654(1) 0.3058(2) 0.3829(3)
O3C O 0.6389(1) 0.2264(1) 0.4784(2)
H9C H 0.6042 0.2600 0.5059
H8C H 0.7385(1) 0.2177(2) 0.3431(3)
H7C H 0.7866(1) 0.3507(2) 0.1812(3)
H6C H 0.7436(1) 0.5194(2) 0.1196(3)
H5C H 0.6520(1) 0.5542(2) 0.2248(3)
C1C C 0.5964(1) 0.7679(2) 0.4417(3)
C2C C 0.6273(1) 0.8596(2) 0.4893(3)
C3C C 0.6071(1) 0.9610(2) 0.4378(3)
C4C C 0.5564(1) 0.9679(2) 0.3438(3)
H4C H 0.5417(1) 1.0370(2) 0.3089(3)
H3C H 0.6278(1) 1.0254(2) 0.4668(3)
H2C H 0.6617(1) 0.8530(2) 0.5558(3)
H1C H 0.6104(1) 0.6981(2) 0.4766(3)
O4 O 0.5000 0.2139(3) 0.2500
H10 H 0.4870 0.2615 0.1390
H10C H 0.5130 0.2615 0.3610
loop_
_geom_bond_atom_site_label_1
_geom_bond_atom_site_label_2
_geom_bond_site_symmetry_1
_geom_bond_site_symmetry_2
Mn1 N1 1_555 1_555
N1 C1 1_555 1_555
C1 C2 1_555 1_555
C2 C3 1_555 1_555
C3 C4 1_555 1_555
C4 C5 1_555 1_555
C5 N1 1_555 1_555
O1 Mn1 1_555 1_555
O2 Mn1 1_555 1_555
C6 O1 1_555 1_555
C7 C6 1_555 1_555
C8 C7 1_555 1_555
O3 C12 1_555 1_555
C9 C8 1_555 1_555
C10 C9 1_555 1_555
C11 C10 1_555 1_555
C12 C7 1_555 1_555
O4 H10 1_555 1_555
H1 C1 1_555 1_555
H2 C2 1_555 1_555
H3 C3 1_555 1_555
H4 C4 1_555 1_555
H5 C8 1_555 1_555
H6 C9 1_555 1_555
H7 C10 1_555 1_555
H8 C11 1_555 1_555
H9 O3 1_555 1_555
C5C C5 1_555 1_555
N1C Mn1 1_555 1_555
O2D C6 1_555 1_555
Mn1D O2D 1_555 1_555
O1C Mn1 1_555 1_555
C6C O1C 1_555 1_555
O2G C6C 1_555 1_555
Mn1G O2G 1_555 1_555
O2C Mn1 1_555 1_555
C7C C6C 1_555 1_555
C8C C7C 1_555 1_555
C9C C8C 1_555 1_555
C10C C9C 1_555 1_555
C11C C10C 1_555 1_555
C12C C7C 1_555 1_555
O3C C12C 1_555 1_555
H9C O3C 1_555 1_555
H8C C11C 1_555 1_555
H7C C10C 1_555 1_555
H6C C9C 1_555 1_555
H5C C8C 1_555 1_555
C1C N1C 1_555 1_555
C2C C1C 1_555 1_555
C3C C2C 1_555 1_555
C4C C5C 1_555 1_555
H4C C4C 1_555 1_555
H3C C3C 1_555 1_555
H2C C2C 1_555 1_555
H1C C1C 1_555 1_555
H10C O4 1_555 1_555
C11 C12 1_555 1_555
C5C N1C 1_555 1_555
C11C C12C 1_555 1_555
C3C C4C 1_555 1_555

#END
