
#######################################################################
#
#                 Cambridge Crystallographic Data Centre
#                                CCDC 
#
#######################################################################
#
# If this CIF has been generated from an entry in the Cambridge 
# Structural Database, then it will include bibliographic, chemical, 
# crystal, experimental, refinement or atomic coordinate data resulting 
# from the CCDC's data processing and validation procedures.
#
#######################################################################

data_TAZFOP
_symmetry_cell_setting           orthorhombic
_symmetry_space_group_name_H-M   'C m c 21'
_symmetry_Int_Tables_number      36
_space_group_name_Hall           'C 2n -2'
loop_
_symmetry_equiv_pos_site_id
_symmetry_equiv_pos_as_xyz
1 x,y,z
2 -x,-y,1/2+z
3 -x,y,z
4 x,-y,1/2+z
5 1/2+x,1/2+y,z
6 1/2-x,1/2-y,1/2+z
7 1/2-x,1/2+y,z
8 1/2+x,1/2-y,1/2+z
_cell_length_a                   9.449(3)
_cell_length_b                   20.082(4)
_cell_length_c                   7.572(1)
_cell_angle_alpha                90
_cell_angle_beta                 90
_cell_angle_gamma                90
_cell_volume                     1436.82
loop_
_atom_site_label
_atom_site_type_symbol
_atom_site_fract_x
_atom_site_fract_y
_atom_site_fract_z
Ag1 Ag 0.0000 0.17088(4) 0.2500
S1 S 0.2423(2) 0.15612(8) 0.3720(2)
O1 O 0.5000 0.0586(3) 0.390(1)
O2 O 1.0000 0.0603(5) 0.052(1)
O3 O 1.0000 0.1565(4) -0.065(1)
O4 O 1.0000 0.0689(4) -0.225(1)
N1 N 1.0000 0.0951(5) -0.081(1)
C1 C 0.2453(9) 0.0662(4) 0.398(1)
C2 C 0.3758(8) 0.0380(4) 0.480(1)
C3 C 0.2335(8) 0.1856(3) 0.601(1)
C4 C 0.3712(7) 0.1800(3) 0.6970(8)
C5 C 0.5000 0.1930(5) 0.613(1)
C6 C 0.3723(8) 0.1597(3) 0.8741(9)
C7 C 0.5000 0.1496(6) 0.961(2)
H1 H 0.235 0.047 0.282
H2 H 0.165 0.054 0.467
H3 H 0.379 0.052 0.601
H4 H 0.370 -0.010 0.478
H5 H 0.163 0.162 0.663
H6 H 0.206 0.232 0.600
H7 H 0.500 0.190 0.497
H8 H 0.285 0.151 0.938
H9 H 0.500 0.146 1.115
C2B C 0.6242(8) 0.0380(4) 0.480(1)
C1B C 0.7547(9) 0.0662(4) 0.398(1)
S1B S 0.7577(2) 0.15612(8) 0.3720(2)
Ag1B Ag 1.0000 0.17088(4) 0.2500
S1_2 S 1.2423(2) 0.15612(8) 0.3720(2)
C3B C 0.7665(8) 0.1856(3) 0.601(1)
C4B C 0.6288(7) 0.1800(3) 0.6970(8)
C6B C 0.6277(8) 0.1597(3) 0.8741(9)
H8B H 0.715 0.151 0.938
H5B H 0.837 0.162 0.663
H6B H 0.794 0.232 0.600
H1B H 0.765 0.047 0.282
H2B H 0.835 0.054 0.467
H3B H 0.621 0.052 0.601
H4B H 0.630 -0.010 0.478
loop_
_geom_bond_atom_site_label_1
_geom_bond_atom_site_label_2
_geom_bond_site_symmetry_1
_geom_bond_site_symmetry_2
Ag1 S1 1_555 1_555
S1 C1 1_555 1_555
O1 C2 1_555 1_555
O2 N1 1_555 1_555
O3 N1 1_555 1_555
O4 N1 1_555 1_555
C1 C2 1_555 1_555
C2 H3 1_555 1_555
C3 S1 1_555 1_555
C4 C3 1_555 1_555
C5 C4 1_555 1_555
C6 C4 1_555 1_555
C7 C6 1_555 1_555
H1 C1 1_555 1_555
H2 C1 1_555 1_555
H4 C2 1_555 1_555
H5 C3 1_555 1_555
H6 C3 1_555 1_555
H7 C5 1_555 1_555
H8 C6 1_555 1_555
H9 C7 1_555 1_555
C2B O1 1_555 1_555
C1B C2B 1_555 1_555
S1B C1B 1_555 1_555
Ag1B O3 1_555 1_555
S1_2 Ag1B 1_555 1_555
C3B S1B 1_555 1_555
C4B C5 1_555 1_555
C6B C7 1_555 1_555
H8B C6B 1_555 1_555
H5B C3B 1_555 1_555
H6B C3B 1_555 1_555
H1B C1B 1_555 1_555
H2B C1B 1_555 1_555
H3B C2B 1_555 1_555
H4B C2B 1_555 1_555
S1B Ag1B 1_555 1_555
C3B C4B 1_555 1_555
C4B C6B 1_555 1_555

#END
