
#######################################################################
#
#                 Cambridge Crystallographic Data Centre
#                                CCDC 
#
#######################################################################
#
# If this CIF has been generated from an entry in the Cambridge 
# Structural Database, then it will include bibliographic, chemical, 
# crystal, experimental, refinement or atomic coordinate data resulting 
# from the CCDC's data processing and validation procedures.
#
#######################################################################

data_TAZFUV
_symmetry_cell_setting           monoclinic
_symmetry_space_group_name_H-M   'P 21/n'
_symmetry_Int_Tables_number      14
_space_group_name_Hall           '-P 2yn'
loop_
_symmetry_equiv_pos_site_id
_symmetry_equiv_pos_as_xyz
1 x,y,z
2 1/2-x,1/2+y,1/2-z
3 -x,-y,-z
4 1/2+x,1/2-y,1/2+z
_cell_length_a                   10.605(7)
_cell_length_b                   8.045(3)
_cell_length_c                   24.236(19)
_cell_angle_alpha                90
_cell_angle_beta                 99.05(3)
_cell_angle_gamma                90
_cell_volume                     2042.01
loop_
_atom_site_label
_atom_site_type_symbol
_atom_site_fract_x
_atom_site_fract_y
_atom_site_fract_z
Ag1 Ag 0.21448(3) 0.04857(5) 0.19256(1)
S1 S 0.43428(9) 0.1013(1) 0.16927(5)
S2 S 0.97895(9) 0.0963(1) 0.17474(4)
O1 O 1.2873(3) 0.0085(5) 0.3061(2)
O2 O 1.2370(3) 0.2511(5) 0.2850(2)
O3 O 1.3664(5) 0.2060(7) 0.3580(2)
N1 N 1.2948(3) 0.1556(5) 0.3186(1)
C1 C 0.4903(3) 0.2775(6) 0.2145(2)
C2 C 0.6031(3) 0.3640(6) 0.1971(2)
C3 C 0.5875(4) 0.5166(6) 0.1703(2)
C4 C 0.6898(4) 0.5949(7) 0.1541(2)
C5 C 0.8089(4) 0.5246(6) 0.1638(2)
C6 C 0.8279(3) 0.3732(6) 0.1907(2)
C7 C 0.7244(3) 0.2926(6) 0.2072(2)
C8 C 0.9599(4) 0.3008(6) 0.2047(2)
C9 C 0.9334(3) 0.1274(5) 0.1022(2)
C10 C 0.9753(5) 0.2567(6) 0.0736(2)
C11 C 0.9385(5) 0.2656(8) 0.0154(2)
C12 C 0.8603(5) 0.1498(7) -0.0112(2)
C13 C 0.8209(6) 0.0246(8) 0.0167(2)
C14 C 0.8555(5) 0.0105(7) 0.0733(2)
C15 C 0.4171(4) 0.1985(5) 0.1027(2)
C16 C 0.3238(5) 0.3143(6) 0.0869(2)
C17 C 0.3155(7) 0.3912(8) 0.0371(3)
C18 C 0.3971(7) 0.3447(8) 0.0010(3)
C19 C 0.4920(6) 0.2337(9) 0.0165(2)
C20 C 0.5021(5) 0.1594(7) 0.0677(2)
H1 H 0.423(4) 0.346(5) 0.213(2)
H2 H 0.515(4) 0.232(5) 0.250(2)
H3 H 0.975(4) 0.286(5) 0.245(2)
H4 H 1.012(4) 0.366(5) 0.193(2)
H5 H 1.0296 0.3390 0.0923
H6 H 0.9687 0.3552 -0.0048
H7 H 0.8348 0.1576 -0.0505
H8 H 0.7671 -0.0559 -0.0028
H9 H 0.8262 -0.0801 0.0925
H10 H 0.2632 0.3429 0.1109
H11 H 0.2505 0.4780 0.0284
H12 H 0.3865 0.3920 -0.0345
H13 H 0.5518 0.2065 -0.0068
H14 H 0.5685 0.0803 0.0790
H15 H 0.5048 0.5669 0.1633
H16 H 0.6782 0.6976 0.1361
H17 H 0.8796 0.5800 0.1517
H18 H 0.7362 0.1875 0.2253
Ag1_2 Ag 1.21448(3) 0.04857(5) 0.19256(1)
S1_2 S 1.43428(9) 0.1013(1) 0.16927(5)
loop_
_geom_bond_atom_site_label_1
_geom_bond_atom_site_label_2
_geom_bond_site_symmetry_1
_geom_bond_site_symmetry_2
Ag1 S1 1_555 1_555
S1 C1 1_555 1_555
S2 C8 1_555 1_555
O1 N1 1_555 1_555
O2 N1 1_555 1_555
O3 N1 1_555 1_555
C1 C2 1_555 1_555
C2 C3 1_555 1_555
C3 C4 1_555 1_555
C4 C5 1_555 1_555
C5 C6 1_555 1_555
C6 C7 1_555 1_555
C7 C2 1_555 1_555
C8 C6 1_555 1_555
C9 S2 1_555 1_555
C10 C9 1_555 1_555
C11 C10 1_555 1_555
C12 C11 1_555 1_555
C13 C12 1_555 1_555
C14 C9 1_555 1_555
C15 S1 1_555 1_555
C16 C15 1_555 1_555
C17 C16 1_555 1_555
C18 C17 1_555 1_555
C19 C18 1_555 1_555
C20 C15 1_555 1_555
H1 C1 1_555 1_555
H2 C1 1_555 1_555
H3 C8 1_555 1_555
H4 C8 1_555 1_555
H5 C10 1_555 1_555
H6 C11 1_555 1_555
H7 C12 1_555 1_555
H8 C13 1_555 1_555
H9 C14 1_555 1_555
H10 C16 1_555 1_555
H11 C17 1_555 1_555
H12 C18 1_555 1_555
H13 C19 1_555 1_555
H14 C20 1_555 1_555
H15 C3 1_555 1_555
H16 C4 1_555 1_555
H17 C5 1_555 1_555
H18 C7 1_555 1_555
Ag1_2 S2 1_555 1_555
S1_2 Ag1_2 1_555 1_555
O1 Ag1_2 1_555 1_555
O2 Ag1_2 1_555 1_555
C13 C14 1_555 1_555
C19 C20 1_555 1_555

#END
