
#######################################################################
#
#                 Cambridge Crystallographic Data Centre
#                                CCDC 
#
#######################################################################
#
# If this CIF has been generated from an entry in the Cambridge 
# Structural Database, then it will include bibliographic, chemical, 
# crystal, experimental, refinement or atomic coordinate data resulting 
# from the CCDC's data processing and validation procedures.
#
#######################################################################

data_TAZGEG
_symmetry_cell_setting           monoclinic
_symmetry_space_group_name_H-M   'P 21/c'
_symmetry_Int_Tables_number      14
_space_group_name_Hall           '-P 2ybc'
loop_
_symmetry_equiv_pos_site_id
_symmetry_equiv_pos_as_xyz
1 x,y,z
2 -x,1/2+y,1/2-z
3 -x,-y,-z
4 x,1/2-y,1/2+z
_cell_length_a                   7.475(2)
_cell_length_b                   18.878(3)
_cell_length_c                   10.717(3)
_cell_angle_alpha                90
_cell_angle_beta                 106.99(1)
_cell_angle_gamma                90
_cell_volume                     1446.31
loop_
_atom_site_label
_atom_site_type_symbol
_atom_site_fract_x
_atom_site_fract_y
_atom_site_fract_z
Cu1 Cu 0.17909(8) 0.46639(3) 0.59234(6)
Cl1 Cl 1.1337(2) 0.95789(6) 0.9041(1)
S1 S 0.3623(2) 0.52206(7) 0.7737(1)
S2 S 0.7296(2) 0.85551(6) 0.9527(1)
C1 C 0.6821(6) 0.6050(2) 0.8343(5)
C2 C 0.7133(6) 0.6759(2) 0.8123(4)
C3 C 0.8305(6) 0.7181(2) 0.9095(4)
C4 C 0.9149(7) 0.6874(3) 1.0292(5)
C5 C 0.8894(7) 0.6169(3) 1.0515(5)
C6 C 0.7718(7) 0.5760(2) 0.9536(5)
C7 C 0.5532(6) 0.5615(2) 0.7266(5)
C8 C 0.247(1) 0.5954(5) 0.8274(8)
C9 C 0.179(1) 0.6430(4) 0.7290(9)
C10 C 0.8619(6) 0.7938(2) 0.8837(4)
C11 C 0.4916(7) 0.8326(3) 0.8609(8)
C12 C 0.442(1) 0.8440(4) 0.715(1)
H1 H 0.6447 0.6924 0.7220
H2 H 0.9924 0.7122 1.0923
H3 H 0.9602 0.5993 1.1391
H4 H 0.7634 0.5276 0.9741
H5 H 0.4937 0.5962 0.6421
H6 H 0.6342 0.5190 0.6991
H7 H 0.3462 0.6234 0.9094
H8 H 0.1284 0.5760 0.8598
H9 H 0.1199 0.6896 0.7642
H10 H 0.0694 0.6177 0.6494
H11 H 0.2938 0.6605 0.6901
H12 H 1.0000 0.8053 0.9276
H13 H 0.8339 0.8112 0.7792
H14 H 0.3951 0.8657 0.8969
H15 H 0.4677 0.7767 0.8779
H16 H 0.2953 0.8302 0.6668
H17 H 0.5335 0.8118 0.6731
H18 H 0.4626 0.9010 0.6924
Cu1A Cu 0.82091(8) 0.96639(3) 0.90766(6)
Cu1C Cu 1.17909(8) 1.03361(3) 1.09234(6)
Cl1B Cl 0.8663(2) 1.04211(6) 1.0959(1)
S1A S 0.6377(2) 1.02206(7) 0.7263(1)
loop_
_geom_bond_atom_site_label_1
_geom_bond_atom_site_label_2
_geom_bond_site_symmetry_1
_geom_bond_site_symmetry_2
Cu1 S1 1_555 1_555
Cl1 Cu1A 1_555 1_555
S1 C7 1_555 1_555
S2 C10 1_555 1_555
C1 C2 1_555 1_555
C2 C3 1_555 1_555
C3 C4 1_555 1_555
C4 C5 1_555 1_555
C5 C6 1_555 1_555
C6 C1 1_555 1_555
C7 C1 1_555 1_555
C8 S1 1_555 1_555
C9 C8 1_555 1_555
C10 C3 1_555 1_555
C11 S2 1_555 1_555
C12 C11 1_555 1_555
H1 C2 1_555 1_555
H2 C4 1_555 1_555
H3 C5 1_555 1_555
H4 C6 1_555 1_555
H5 C7 1_555 1_555
H6 C7 1_555 1_555
H7 C8 1_555 1_555
H8 C8 1_555 1_555
H9 C9 1_555 1_555
H10 C9 1_555 1_555
H11 C9 1_555 1_555
H12 C10 1_555 1_555
H13 C10 1_555 1_555
H14 C11 1_555 1_555
H15 C11 1_555 1_555
H16 C12 1_555 1_555
H17 C12 1_555 1_555
H18 C12 1_555 1_555
Cu1A S2 1_555 1_555
Cu1C Cl1 1_555 1_555
Cl1B Cu1A 1_555 1_555
S1A Cu1A 1_555 1_555
Cu1C Cl1B 1_555 1_555

#END
