
#######################################################################
#
#                 Cambridge Crystallographic Data Centre
#                                CCDC 
#
#######################################################################
#
# If this CIF has been generated from an entry in the Cambridge 
# Structural Database, then it will include bibliographic, chemical, 
# crystal, experimental, refinement or atomic coordinate data resulting 
# from the CCDC's data processing and validation procedures.
#
#######################################################################

data_TAZLEN
_symmetry_cell_setting           tetragonal
_symmetry_space_group_name_H-M   'P 42/n c m'
_symmetry_Int_Tables_number      138
_space_group_name_Hall           '-P 4ac 2ac'
loop_
_symmetry_equiv_pos_site_id
_symmetry_equiv_pos_as_xyz
1 x,y,z
2 1/2-x,1/2-y,z
3 1/2-y,x,1/2+z
4 y,1/2-x,1/2+z
5 -x,1/2+y,1/2-z
6 1/2+x,-y,1/2-z
7 1/2+y,1/2+x,-z
8 -y,-x,-z
9 -x,-y,-z
10 1/2+x,1/2+y,-z
11 1/2+y,-x,1/2-z
12 -y,1/2+x,1/2-z
13 x,1/2-y,1/2+z
14 1/2-x,y,1/2+z
15 1/2-y,1/2-x,z
16 y,x,z
_cell_length_a                   19.9132(2)
_cell_length_b                   19.9132(2)
_cell_length_c                   25.0517(7)
_cell_angle_alpha                90
_cell_angle_beta                 90
_cell_angle_gamma                90
_cell_volume                     9933.89
loop_
_atom_site_label
_atom_site_type_symbol
_atom_site_fract_x
_atom_site_fract_y
_atom_site_fract_z
Nd1 Nd -0.046960(19) 0.546960(19) 0.18685(2)
Cd1 Cd 0.03264(2) 0.46736(2) 0.30526(3)
Cd2 Cd 0.23480(4) 0.76520(4) 0.5000
O1 O 0.0380(3) 0.5755(2) 0.3289(2)
C1 C 0.0317(3) 0.8133(3) 0.3090(3)
O2 O -0.0301(3) 0.4308(2) 0.2073(2)
O3 O 0.0219(3) 0.3655(2) 0.2663(2)
O4 O 0.1649(4) 0.7240(3) 0.4482(3)
O5 O -0.0172(3) 0.6188(3) 0.2593(2)
C2 C 0.0354(3) 0.6931(3) 0.3197(3)
C3 C 0.0710(3) 0.8217(3) 0.3533(3)
H1 H 0.0831 0.8645 0.3646
C4 C 0.0181(4) 0.6238(3) 0.3020(3)
C5 C 0.0749(3) 0.7012(3) 0.3658(3)
H2 H 0.0886 0.6640 0.3852
C6 C 0.0140(4) 0.7496(3) 0.2921(3)
H3 H -0.0127 0.7446 0.2619
C7 C 0.1407(4) 0.7714(4) 0.4265(4)
C8 C -0.0109(3) 0.3738(3) 0.2227(3)
C9 C 0.0930(4) 0.7646(3) 0.3817(3)
O6 O 0.1553(5) 0.8293(4) 0.4419(3)
O7 O 0.0690(5) 0.4310(5) 0.3890(5)
O8 O 0.0020(4) 0.4980(4) 0.0969(4)
O9 O -0.1339(3) 0.6339(3) 0.1829(4)
O10 O 0.0048(4) 0.6487(4) 0.1410(3)
Nd1A Nd 0.546960(19) 0.953040(19) 0.18685(2)
Nd1E Nd 0.453040(19) 0.453040(19) 0.31315(2)
Nd1C Nd 0.546960(19) 0.546960(19) 0.68685(2)
Nd1F Nd 0.046960(19) 0.453040(19) 0.81315(2)
Nd1B Nd -0.046960(19) 0.953040(19) 0.68685(2)
Nd1G Nd 0.453040(19) 1.046960(19) 0.81315(2)
Nd1D Nd 0.046960(19) 1.046960(19) 0.31315(2)
Cd1A Cd 0.46736(2) 1.03264(2) 0.30526(3)
Cd1E Cd 0.53264(2) 0.53264(2) 0.19474(3)
Cd1C Cd 0.46736(2) 0.46736(2) 0.80526(3)
Cd1F Cd -0.03264(2) 0.53264(2) 0.69474(3)
Cd1B Cd 0.03264(2) 1.03264(2) 0.80526(3)
Cd1G Cd 0.53264(2) 0.96736(2) 0.69474(3)
Cd1D Cd -0.03264(2) 0.96736(2) 0.19474(3)
Cd2A Cd 0.26520(4) 0.73480(4) 0.5000
O1N O -0.0755(2) 0.4620(3) 0.3289(2)
O1A O 0.4620(3) 0.9245(2) 0.3289(2)
O1F O 0.0755(2) 0.5380(3) 0.6711(2)
O1G O 0.4245(2) 0.9620(3) 0.6711(2)
O1O O 0.5755(2) 1.0380(3) 0.3289(2)
C1D C -0.0317(3) 0.3133(3) 0.1910(3)
C1A C 0.4683(3) 0.6867(3) 0.3090(3)
C1F C 0.3133(3) 0.5317(3) 0.6910(3)
C1G C 0.1867(3) 0.9683(3) 0.6910(3)
O2N O 0.0692(2) 0.5301(3) 0.2073(2)
O2E O 0.4699(3) 0.5692(2) 0.2927(2)
O2C O 0.4308(2) 0.5301(3) 0.7073(2)
O2B O 0.0692(2) 0.9699(3) 0.7073(2)
O2D O 0.0301(3) 0.9308(2) 0.2927(2)
O2A O 0.5301(3) 1.0692(2) 0.2073(2)
O2O O 0.4308(2) 0.9699(3) 0.2073(2)
O3N O 0.1345(2) 0.4781(3) 0.2663(2)
O3E O 0.5219(3) 0.6345(2) 0.2337(2)
O3C O 0.3655(2) 0.4781(3) 0.7663(2)
O3B O 0.1345(2) 1.0219(3) 0.7663(2)
O3D O -0.0219(3) 0.8655(2) 0.2337(2)
O3A O 0.4781(3) 1.1345(2) 0.2663(2)
O3O O 0.3655(2) 1.0219(3) 0.2663(2)
O4A O 0.3351(4) 0.7760(3) 0.4482(3)
O4G O 0.2760(3) 0.8351(4) 0.5518(3)
O4F O 0.2240(3) 0.6649(4) 0.5518(3)
O5N O -0.1188(3) 0.5172(3) 0.2593(2)
O5A O 0.5172(3) 0.8812(3) 0.2593(2)
O5F O 0.1188(3) 0.4828(3) 0.7407(2)
O5G O 0.3812(3) 1.0172(3) 0.7407(2)
O5O O 0.6188(3) 0.9828(3) 0.2593(2)
C2A C 0.4646(3) 0.8069(3) 0.3197(3)
C2F C 0.1931(3) 0.5354(3) 0.6803(3)
C2G C 0.3069(3) 0.9646(3) 0.6803(3)
C3A C 0.4290(3) 0.6783(3) 0.3533(3)
C3G C 0.1783(3) 0.9290(3) 0.6467(3)
C3F C 0.3217(3) 0.5710(3) 0.6467(3)
H1A H 0.4169 0.6355 0.3646
H1F H 0.3645 0.5831 0.6354
H1G H 0.1355 0.9169 0.6354
C4A C 0.4819(4) 0.8762(3) 0.3020(3)
C4F C 0.1238(3) 0.5181(4) 0.6980(3)
C4G C 0.3762(3) 0.9819(4) 0.6980(3)
C5A C 0.4251(3) 0.7988(3) 0.3658(3)
C5G C 0.2988(3) 0.9251(3) 0.6342(3)
C5F C 0.2012(3) 0.5749(3) 0.6342(3)
H2A H 0.4114 0.8360 0.3852
H2F H 0.1640 0.5886 0.6148
H2G H 0.3360 0.9114 0.6148
C6A C 0.4860(4) 0.7504(3) 0.2921(3)
C6F C 0.2496(3) 0.5140(4) 0.7079(3)
C6G C 0.2504(3) 0.9860(4) 0.7079(3)
C7G C 0.2286(4) 0.8593(4) 0.5735(4)
C7A C 0.3593(4) 0.7286(4) 0.4265(4)
C7F C 0.2714(4) 0.6407(4) 0.5735(4)
C8D C 0.0109(3) 0.8738(3) 0.2773(3)
C8E C 0.4891(3) 0.6262(3) 0.2773(3)
C8C C 0.3738(3) 0.5109(3) 0.7227(3)
C8B C 0.1262(3) 0.9891(3) 0.7227(3)
C9G C 0.2354(3) 0.9070(4) 0.6183(3)
C9A C 0.4070(4) 0.7354(3) 0.3817(3)
C9F C 0.2646(3) 0.5930(4) 0.6183(3)
O6G O 0.1707(4) 0.8447(5) 0.5581(3)
O6A O 0.3447(5) 0.6707(4) 0.4419(3)
O6F O 0.3293(4) 0.6553(5) 0.5581(3)
O7A O 0.4310(5) 1.0690(5) 0.3890(5)
O8A O 0.4980(4) 1.0020(4) 0.0969(4)
O9A O 0.6339(3) 0.8661(3) 0.1829(4)
O10N O -0.1487(4) 0.4952(4) 0.1410(3)
O10A O 0.4952(4) 0.8513(4) 0.1410(3)
O10O O 0.6487(4) 1.0048(4) 0.1410(3)
loop_
_geom_bond_atom_site_label_1
_geom_bond_atom_site_label_2
_geom_bond_site_symmetry_1
_geom_bond_site_symmetry_2
Nd1 O2 1_555 1_555
Cd1 O1 1_555 1_555
Cd2 O4 1_555 1_555
O1 C4 1_555 1_555
C1 C3 1_555 1_555
O2 C8 1_555 1_555
O3 Cd1 1_555 1_555
O4 C7 1_555 1_555
O5 Nd1 1_555 1_555
C2 C4 1_555 1_555
C3 H1 1_555 1_555
C4 O5 1_555 1_555
C5 C2 1_555 1_555
H2 C5 1_555 1_555
C6 C1 1_555 1_555
H3 C6 1_555 1_555
C7 C9 1_555 1_555
C8 O3 1_555 1_555
C9 C3 1_555 1_555
O6 Cd2 1_555 1_555
O7 Cd1 1_555 1_555
O8 Nd1 1_555 1_555
O9 Nd1 1_555 1_555
O10 Nd1 1_555 1_555
Nd1A O2A 1_555 1_555
Nd1E O2E 1_555 1_555
Nd1C O2C 1_555 1_555
Nd1F O5F 1_555 1_555
Nd1B O2B 1_555 1_555
Nd1G O5G 1_555 1_555
Nd1D O2D 1_555 1_555
Cd1A O1A 1_555 1_555
Cd1E O3E 1_555 1_555
Cd1C O3C 1_555 1_555
Cd1F O1F 1_555 1_555
Cd1B O3B 1_555 1_555
Cd1G O1G 1_555 1_555
Cd1D O3D 1_555 1_555
Cd2A Cd2 1_555 1_555
O1N Cd1 1_555 1_555
O1A C4A 1_555 1_555
O1F C4F 1_555 1_555
O1G C4G 1_555 1_555
O1O Cd1A 1_555 1_555
C1D C8 1_555 1_555
C1A C3A 1_555 1_555
C1F C3F 1_555 1_555
C1G C3G 1_555 1_555
O2N Nd1 1_555 1_555
O2E C8E 1_555 1_555
O2C C8C 1_555 1_555
O2B C8B 1_555 1_555
O2D C8D 1_555 1_555
O2O Nd1A 1_555 1_555
O3N Cd1 1_555 1_555
O3E C8E 1_555 1_555
O3C C8C 1_555 1_555
O3B C8B 1_555 1_555
O3D C8D 1_555 1_555
O3A Cd1A 1_555 1_555
O3O Cd1A 1_555 1_555
O4A Cd2 1_555 1_555
O4G Cd2 1_555 1_555
O4F Cd2 1_555 1_555
O5N Nd1 1_555 1_555
O5A Nd1A 1_555 1_555
O5F C4F 1_555 1_555
O5G C4G 1_555 1_555
O5O Nd1A 1_555 1_555
C2A C4A 1_555 1_555
C2F C4F 1_555 1_555
C2G C4G 1_555 1_555
C3A H1A 1_555 1_555
C3G H1G 1_555 1_555
C3F H1F 1_555 1_555
C4A O5A 1_555 1_555
C5A C2A 1_555 1_555
C5G C2G 1_555 1_555
C5F C2F 1_555 1_555
H2A C5A 1_555 1_555
H2F C5F 1_555 1_555
H2G C5G 1_555 1_555
C6A C1A 1_555 1_555
C6F C1F 1_555 1_555
C6G C1G 1_555 1_555
C7G O4G 1_555 1_555
C7A O4A 1_555 1_555
C7F O4F 1_555 1_555
C8D C1 1_555 1_555
C8E C1A 1_555 1_555
C8C C1F 1_555 1_555
C8B C1G 1_555 1_555
C9G C3G 1_555 1_555
C9A C3A 1_555 1_555
C9F C3F 1_555 1_555
O6G Cd2 1_555 1_555
O6A Cd2A 1_555 1_555
O6F Cd2A 1_555 1_555
O7A Cd1A 1_555 1_555
O8A Nd1A 1_555 1_555
O9A Nd1A 1_555 1_555
O10N Nd1 1_555 1_555
O10A Nd1A 1_555 1_555
O10O Nd1A 1_555 1_555
O4 Cd2A 1_555 1_555
C2 C6 1_555 1_555
C5 C9 1_555 1_555
C7 O6 1_555 1_555
Cd2A O4A 1_555 1_555
Cd2A O4G 1_555 1_555
Cd2A O4F 1_555 1_555
C2A C6A 1_555 1_555
C2F C6F 1_555 1_555
C2G C6G 1_555 1_555
C5A C9A 1_555 1_555
C5G C9G 1_555 1_555
C5F C9F 1_555 1_555
C7G C9G 1_555 1_555
C7G O6G 1_555 1_555
C7A C9A 1_555 1_555
C7A O6A 1_555 1_555
C7F C9F 1_555 1_555
C7F O6F 1_555 1_555

#END
