
#######################################################################
#
#                 Cambridge Crystallographic Data Centre
#                                CCDC 
#
#######################################################################
#
# If this CIF has been generated from an entry in the Cambridge 
# Structural Database, then it will include bibliographic, chemical, 
# crystal, experimental, refinement or atomic coordinate data resulting 
# from the CCDC's data processing and validation procedures.
#
#######################################################################

data_TAZLAJ
_symmetry_cell_setting           tetragonal
_symmetry_space_group_name_H-M   'P 42/n c m'
_symmetry_Int_Tables_number      138
_space_group_name_Hall           '-P 4ac 2ac'
loop_
_symmetry_equiv_pos_site_id
_symmetry_equiv_pos_as_xyz
1 x,y,z
2 1/2-x,1/2-y,z
3 1/2-y,x,1/2+z
4 y,1/2-x,1/2+z
5 -x,1/2+y,1/2-z
6 1/2+x,-y,1/2-z
7 1/2+y,1/2+x,-z
8 -y,-x,-z
9 -x,-y,-z
10 1/2+x,1/2+y,-z
11 1/2+y,-x,1/2-z
12 -y,1/2+x,1/2-z
13 x,1/2-y,1/2+z
14 1/2-x,y,1/2+z
15 1/2-y,1/2-x,z
16 y,x,z
_cell_length_a                   19.541(15)
_cell_length_b                   19.541(15)
_cell_length_c                   25.95(3)
_cell_angle_alpha                90
_cell_angle_beta                 90
_cell_angle_gamma                90
_cell_volume                     9909.03
loop_
_atom_site_label
_atom_site_type_symbol
_atom_site_fract_x
_atom_site_fract_y
_atom_site_fract_z
Cd1 Cd -0.03713(2) -0.03713(2) 0.30699(2)
Cd2 Cd 0.26524(4) -0.23476(4) 0.5000
Tb1 Tb 0.050303(15) 0.050303(15) 0.196377(16)
O1 O 0.0721(2) -0.0445(2) 0.3308(2)
O2 O -0.1360(2) -0.0221(2) 0.26153(19)
O3 O -0.0671(2) 0.0318(3) 0.2064(2)
O4 O 0.1151(3) 0.0168(3) 0.2665(3)
O5 O 0.1359(3) 0.1359(3) 0.1941(3)
O6 O 0.2234(3) -0.1644(3) 0.4500(2)
O7 O 0.0258(6) 0.0258(6) 0.1081(4)
O8 O -0.0020(4) 0.1543(4) 0.1612(2)
O9 O 0.3343(4) -0.1614(5) 0.4392(3)
O10 O -0.0785(7) -0.0785(7) 0.3815(6)
C1 C 0.3166(3) -0.0347(3) 0.3099(2)
C2 C 0.1219(3) -0.0211(4) 0.3057(2)
C3 C 0.1919(3) -0.0382(3) 0.3240(2)
C4 C 0.2493(3) -0.0153(3) 0.2955(2)
H1 H 0.2428 0.0129 0.2670
C5 C 0.2012(3) -0.0778(3) 0.3676(2)
H2 H 0.1635 -0.0919 0.3868
C6 C 0.3235(3) -0.0728(3) 0.3535(2)
H3 H 0.3674 -0.0837 0.3647
C7 C -0.1248(3) 0.0120(3) 0.2220(3)
C8 C 0.2671(3) -0.0969(3) 0.3828(3)
C9 C 0.2733(4) -0.1439(4) 0.4269(3)
Cd1E Cd 0.46287(2) 0.03713(2) 0.19301(2)
Cd1F Cd 0.46287(2) -0.53713(2) 0.69301(2)
Cd1B Cd 0.53713(2) -0.03713(2) 0.80699(2)
Cd1C Cd -0.03713(2) -0.46287(2) 0.80699(2)
Cd1G Cd 0.03713(2) 0.03713(2) 0.69301(2)
Cd1D Cd 0.03713(2) -0.53713(2) 0.19301(2)
Cd1A Cd 0.53713(2) -0.46287(2) 0.30699(2)
Cd2A Cd 0.23476(4) -0.26524(4) 0.5000
Tb1E Tb 0.550303(15) -0.050303(15) 0.303623(16)
Tb1F Tb 0.550303(15) -0.449697(15) 0.803623(16)
Tb1B Tb 0.449697(15) 0.050303(15) 0.696377(16)
Tb1C Tb 0.050303(15) -0.550303(15) 0.696377(16)
Tb1G Tb -0.050303(15) -0.050303(15) 0.803623(16)
Tb1D Tb -0.050303(15) -0.449697(15) 0.303623(16)
Tb1A Tb 0.449697(15) -0.550303(15) 0.196377(16)
O1O O -0.0445(2) 0.0721(2) 0.3308(2)
O1G O 0.0445(2) -0.0721(2) 0.6692(2)
O1F O 0.4555(2) -0.4279(2) 0.6692(2)
O1A O 0.4279(2) -0.4555(2) 0.3308(2)
O1N O 0.5445(2) -0.5721(2) 0.3308(2)
O2O O -0.0221(2) -0.1360(2) 0.26153(19)
O2E O 0.3640(2) 0.0221(2) 0.23847(19)
O2C O -0.0221(2) -0.3640(2) 0.76153(19)
O2B O 0.5221(2) -0.1360(2) 0.76153(19)
O2D O 0.1360(2) -0.5221(2) 0.23847(19)
O2A O 0.6360(2) -0.4779(2) 0.26153(19)
O2N O 0.5221(2) -0.3640(2) 0.26153(19)
O3O O 0.0318(3) -0.0671(2) 0.2064(2)
O3E O 0.4329(2) -0.0318(3) 0.2936(2)
O3C O 0.0318(3) -0.4329(2) 0.7064(2)
O3B O 0.4682(3) -0.0671(2) 0.7064(2)
O3D O 0.0671(2) -0.4682(3) 0.2936(2)
O3A O 0.5671(2) -0.5318(3) 0.2064(2)
O3N O 0.4682(3) -0.4329(2) 0.2064(2)
O4O O 0.0168(3) 0.1151(3) 0.2665(3)
O4G O -0.0168(3) -0.1151(3) 0.7335(3)
O4F O 0.5168(3) -0.3849(3) 0.7335(3)
O4A O 0.3849(3) -0.5168(3) 0.2665(3)
O4N O 0.4832(3) -0.6151(3) 0.2665(3)
O5A O 0.3641(3) -0.6359(3) 0.1941(3)
O6A O 0.2766(3) -0.3356(3) 0.4500(2)
O6G O 0.1644(3) -0.2234(3) 0.5500(2)
O6F O 0.3356(3) -0.2766(3) 0.5500(2)
O7A O 0.4742(6) -0.5258(6) 0.1081(4)
O8O O 0.1543(4) -0.0020(4) 0.1612(2)
O8A O 0.5020(4) -0.6543(4) 0.1612(2)
O8N O 0.3457(4) -0.4980(4) 0.1612(2)
O9F O 0.3386(5) -0.1657(4) 0.5608(3)
O9A O 0.1657(4) -0.3386(5) 0.4392(3)
O9G O 0.1614(5) -0.3343(4) 0.5608(3)
O10A O 0.5785(7) -0.4215(7) 0.3815(6)
C1E C -0.1834(3) 0.0347(3) 0.1901(2)
C1F C 0.4653(3) -0.1834(3) 0.6901(2)
C1G C 0.0347(3) -0.3166(3) 0.6901(2)
C1A C 0.1834(3) -0.4653(3) 0.3099(2)
C2G C 0.0211(4) -0.1219(3) 0.6943(2)
C2F C 0.4789(4) -0.3781(3) 0.6943(2)
C2A C 0.3781(3) -0.4789(4) 0.3057(2)
C3F C 0.4618(3) -0.3081(3) 0.6760(2)
C3G C 0.0382(3) -0.1919(3) 0.6760(2)
C3A C 0.3081(3) -0.4618(3) 0.3240(2)
C4G C 0.0153(3) -0.2493(3) 0.7045(2)
C4F C 0.4847(3) -0.2507(3) 0.7045(2)
C4A C 0.2507(3) -0.4847(3) 0.2955(2)
C5F C 0.4222(3) -0.2988(3) 0.6324(2)
C5G C 0.0778(3) -0.2012(3) 0.6324(2)
C5A C 0.2988(3) -0.4222(3) 0.3676(2)
H2F H 0.4081 -0.3365 0.6132
H2G H 0.0919 -0.1635 0.6132
H2A H 0.3365 -0.4081 0.3868
C6F C 0.4272(3) -0.1765(3) 0.6465(2)
C6G C 0.0728(3) -0.3235(3) 0.6465(2)
C6A C 0.1765(3) -0.4272(3) 0.3535(2)
H3F H 0.4163 -0.1326 0.6353
H3G H 0.0837 -0.3674 0.6353
H3A H 0.1326 -0.4163 0.3647
C7E C 0.3752(3) -0.0120(3) 0.2780(3)
C7C C 0.0120(3) -0.3752(3) 0.7220(3)
C7B C 0.4880(3) -0.1248(3) 0.7220(3)
C7D C 0.1248(3) -0.4880(3) 0.2780(3)
C8F C 0.4031(3) -0.2329(3) 0.6172(3)
C8A C 0.2329(3) -0.4031(3) 0.3828(3)
C8G C 0.0969(3) -0.2671(3) 0.6172(3)
C9F C 0.3561(4) -0.2267(4) 0.5731(3)
C9A C 0.2267(4) -0.3561(4) 0.4269(3)
C9G C 0.1439(4) -0.2733(4) 0.5731(3)
loop_
_geom_bond_atom_site_label_1
_geom_bond_atom_site_label_2
_geom_bond_site_symmetry_1
_geom_bond_site_symmetry_2
Cd1 O1 1_555 1_555
Cd2 O6 1_555 1_555
Tb1 O3 1_555 1_555
O1 C2 1_555 1_555
O2 Cd1 1_555 1_555
O3 C7 1_555 1_555
O4 Tb1 1_555 1_555
O5 Tb1 1_555 1_555
O6 C9 1_555 1_555
O7 Tb1 1_555 1_555
O8 Tb1 1_555 1_555
O9 Cd2 1_555 1_555
O10 Cd1 1_555 1_555
C1 C4 1_555 1_555
C2 O4 1_555 1_555
C3 C2 1_555 1_555
C4 C3 1_555 1_555
H1 C4 1_555 1_555
C5 C3 1_555 1_555
H2 C5 1_555 1_555
C6 C1 1_555 1_555
H3 C6 1_555 1_555
C7 O2 1_555 1_555
C8 C5 1_555 1_555
C9 O9 1_555 1_555
Cd1E O2E 1_555 1_555
Cd1F O1F 1_555 1_555
Cd1B O2B 1_555 1_555
Cd1C O2C 1_555 1_555
Cd1G O1G 1_555 1_555
Cd1D O2D 1_555 1_555
Cd1A O1A 1_555 1_555
Cd2A Cd2 1_555 1_555
Tb1E O3E 1_555 1_555
Tb1F O4F 1_555 1_555
Tb1B O3B 1_555 1_555
Tb1C O3C 1_555 1_555
Tb1G O4G 1_555 1_555
Tb1D O3D 1_555 1_555
Tb1A O3A 1_555 1_555
O1O Cd1 1_555 1_555
O1G C2G 1_555 1_555
O1F C2F 1_555 1_555
O1A C2A 1_555 1_555
O1N Cd1A 1_555 1_555
O2O Cd1 1_555 1_555
O2E C7E 1_555 1_555
O2C C7C 1_555 1_555
O2B C7B 1_555 1_555
O2D C7D 1_555 1_555
O2A Cd1A 1_555 1_555
O2N Cd1A 1_555 1_555
O3O Tb1 1_555 1_555
O3E C7E 1_555 1_555
O3C C7C 1_555 1_555
O3B C7B 1_555 1_555
O3D C7D 1_555 1_555
O3N Tb1A 1_555 1_555
O4O Tb1 1_555 1_555
O4G C2G 1_555 1_555
O4F C2F 1_555 1_555
O4A Tb1A 1_555 1_555
O4N Tb1A 1_555 1_555
O5A Tb1A 1_555 1_555
O6A Cd2 1_555 1_555
O6G Cd2 1_555 1_555
O6F Cd2 1_555 1_555
O7A Tb1A 1_555 1_555
O8O Tb1 1_555 1_555
O8A Tb1A 1_555 1_555
O8N Tb1A 1_555 1_555
O9F Cd2 1_555 1_555
O9A Cd2A 1_555 1_555
O9G Cd2A 1_555 1_555
O10A Cd1A 1_555 1_555
C1E C7 1_555 1_555
C1F C4F 1_555 1_555
C1G C4G 1_555 1_555
C1A C4A 1_555 1_555
C2G C3G 1_555 1_555
C2F C3F 1_555 1_555
C2A O4A 1_555 1_555
C3F C4F 1_555 1_555
C3G C4G 1_555 1_555
C3A C2A 1_555 1_555
C4A C3A 1_555 1_555
C5F C3F 1_555 1_555
C5G C3G 1_555 1_555
C5A C3A 1_555 1_555
H2F C5F 1_555 1_555
H2G C5G 1_555 1_555
H2A C5A 1_555 1_555
C6F C1F 1_555 1_555
C6G C1G 1_555 1_555
C6A C1A 1_555 1_555
H3F C6F 1_555 1_555
H3G C6G 1_555 1_555
H3A C6A 1_555 1_555
C7E C1 1_555 1_555
C7C C1G 1_555 1_555
C7B C1F 1_555 1_555
C7D C1A 1_555 1_555
C8F C5F 1_555 1_555
C8A C5A 1_555 1_555
C8G C5G 1_555 1_555
C9F O6F 1_555 1_555
C9A O6A 1_555 1_555
C9G O6G 1_555 1_555
O6 Cd2A 1_555 1_555
C6 C8 1_555 1_555
C8 C9 1_555 1_555
Cd2A O6A 1_555 1_555
Cd2A O6G 1_555 1_555
Cd2A O6F 1_555 1_555
O9F C9F 1_555 1_555
O9A C9A 1_555 1_555
O9G C9G 1_555 1_555
C6F C8F 1_555 1_555
C6G C8G 1_555 1_555
C6A C8A 1_555 1_555
C8F C9F 1_555 1_555
C8A C9A 1_555 1_555
C8G C9G 1_555 1_555

#END
