
#######################################################################
#
#                 Cambridge Crystallographic Data Centre
#                                CCDC 
#
#######################################################################
#
# If this CIF has been generated from an entry in the Cambridge 
# Structural Database, then it will include bibliographic, chemical, 
# crystal, experimental, refinement or atomic coordinate data resulting 
# from the CCDC's data processing and validation procedures.
#
#######################################################################

data_TAZLIR
_symmetry_cell_setting           tetragonal
_symmetry_space_group_name_H-M   'P 42/n c m'
_symmetry_Int_Tables_number      138
_space_group_name_Hall           '-P 4ac 2ac'
loop_
_symmetry_equiv_pos_site_id
_symmetry_equiv_pos_as_xyz
1 x,y,z
2 1/2-x,1/2-y,z
3 1/2-y,x,1/2+z
4 y,1/2-x,1/2+z
5 -x,1/2+y,1/2-z
6 1/2+x,-y,1/2-z
7 1/2+y,1/2+x,-z
8 -y,-x,-z
9 -x,-y,-z
10 1/2+x,1/2+y,-z
11 1/2+y,-x,1/2-z
12 -y,1/2+x,1/2-z
13 x,1/2-y,1/2+z
14 1/2-x,y,1/2+z
15 1/2-y,1/2-x,z
16 y,x,z
_cell_length_a                   19.4876(2)
_cell_length_b                   19.4876(2)
_cell_length_c                   26.3770(4)
_cell_angle_alpha                90
_cell_angle_beta                 90
_cell_angle_gamma                90
_cell_volume                     10017.1
loop_
_atom_site_label
_atom_site_type_symbol
_atom_site_fract_x
_atom_site_fract_y
_atom_site_fract_z
Cd1 Cd 0.47010(4) 0.02990(4) 0.30393(4)
Cd2 Cd 0.2500 -0.2500 0.5000
Sm1 Sm 0.55899(3) -0.05899(3) 0.19713(3)
C1 C 0.4836(6) -0.1286(5) 0.3064(4)
C2 C 0.4620(5) -0.3203(6) 0.3119(4)
C3 C 0.3524(6) -0.2750(6) 0.4255(4)
C4 C 0.4653(5) -0.1991(5) 0.3246(4)
C5 C 0.4012(5) -0.2696(5) 0.3816(4)
C6 C 0.4845(5) -0.2559(5) 0.2974(4)
H1 H 0.5127 -0.2512 0.2692
C7 C 0.4232(5) -0.2058(5) 0.3668(4)
H2 H 0.4100 -0.1671 0.3849
C8 C 0.4199(5) -0.3273(5) 0.3544(4)
H3 H 0.4045 -0.3704 0.3643
C9 C 0.4559(16) -0.1914(11) 0.1756(12)
C10 C 0.4567(14) -0.2715(17) 0.1180(11)
H4 H 0.4978 -0.2452 0.1128
H5 H 0.4272 -0.2666 0.0891
H6 H 0.4683 -0.3190 0.1224
C11 C 0.353(2) -0.2657(18) 0.1924(18)
H7 H 0.3480 -0.2353 0.2209
H8 H 0.3546 -0.3123 0.2042
H9 H 0.3137 -0.2603 0.1703
C12 C 0.4805(6) -0.3818(6) 0.2803(5)
O1 O 0.5209(4) -0.1233(4) 0.2675(3)
O2 O 0.4603(5) -0.4377(4) 0.2940(4)
O3 O 0.3365(5) -0.2214(5) 0.4489(3)
O4 O 0.3272(5) -0.3323(5) 0.4361(3)
O5 O 0.4623(5) -0.0787(4) 0.3302(3)
O6 O 0.5069(6) -0.1633(5) 0.1614(4)
O7 O 0.5132(5) -0.3736(5) 0.2402(3)
O8 O 0.6465(5) -0.1465(5) 0.2010(6)
O9 O 0.4208(13) 0.0792(13) 0.3728(12)
O10 O 0.5389(6) -0.0389(6) 0.1084(6)
N1 N 0.4225(11) -0.2475(9) 0.1616(9)
Cd1A Cd 0.02990(4) -0.52990(4) 0.30393(4)
Cd1D Cd 0.52990(4) -0.47010(4) 0.19607(4)
Cd1E Cd -0.02990(4) -0.02990(4) 0.19607(4)
Cd1F Cd 0.52990(4) -0.02990(4) 0.69607(4)
Cd1C Cd 0.02990(4) 0.02990(4) 0.80393(4)
Cd1G Cd -0.02990(4) -0.47010(4) 0.69607(4)
Cd1B Cd 0.47010(4) -0.52990(4) 0.80393(4)
Sm1A Sm -0.05899(3) -0.44101(3) 0.19713(3)
Sm1D Sm 0.44101(3) -0.55899(3) 0.30287(3)
Sm1E Sm 0.05899(3) 0.05899(3) 0.30287(3)
Sm1F Sm 0.44101(3) 0.05899(3) 0.80287(3)
Sm1C Sm -0.05899(3) -0.05899(3) 0.69713(3)
Sm1G Sm 0.05899(3) -0.55899(3) 0.80287(3)
Sm1B Sm 0.55899(3) -0.44101(3) 0.69713(3)
C1A C 0.0164(6) -0.3714(5) 0.3064(4)
C1F C 0.3714(5) -0.0164(6) 0.6936(4)
C1G C 0.1286(5) -0.4836(6) 0.6936(4)
C2A C 0.0380(5) -0.1797(6) 0.3119(4)
C2F C 0.1797(6) -0.0380(5) 0.6881(4)
C2G C 0.3203(6) -0.4620(5) 0.6881(4)
C3A C 0.1476(6) -0.2250(6) 0.4255(4)
C3F C 0.2250(6) -0.1476(6) 0.5745(4)
C3G C 0.2750(6) -0.3524(6) 0.5745(4)
C4A C 0.0347(5) -0.3009(5) 0.3246(4)
C4F C 0.3009(5) -0.0347(5) 0.6754(4)
C4G C 0.1991(5) -0.4653(5) 0.6754(4)
C5A C 0.0988(5) -0.2304(5) 0.3816(4)
C5F C 0.2304(5) -0.0988(5) 0.6184(4)
C5G C 0.2696(5) -0.4012(5) 0.6184(4)
C6A C 0.0155(5) -0.2441(5) 0.2974(4)
C6F C 0.2441(5) -0.0155(5) 0.7026(4)
C6G C 0.2559(5) -0.4845(5) 0.7026(4)
H1A H -0.0127 -0.2488 0.2692
H1F H 0.2488 0.0127 0.7308
H1G H 0.2512 -0.5127 0.7308
C7A C 0.0768(5) -0.2942(5) 0.3668(4)
C7F C 0.2942(5) -0.0768(5) 0.6332(4)
C7G C 0.2058(5) -0.4232(5) 0.6332(4)
H2A H 0.0900 -0.3329 0.3849
H2F H 0.3329 -0.0900 0.6151
H2G H 0.1671 -0.4100 0.6151
C8A C 0.0801(5) -0.1727(5) 0.3544(4)
C8F C 0.1727(5) -0.0801(5) 0.6456(4)
C8G C 0.3273(5) -0.4199(5) 0.6456(4)
H3A H 0.0955 -0.1296 0.3643
H3F H 0.1296 -0.0955 0.6357
H3G H 0.3704 -0.4045 0.6357
C9N C 0.6914(11) 0.0441(16) 0.1756(12)
C9A C 0.0441(16) -0.3086(11) 0.1756(12)
C9O C -0.1914(11) -0.5441(16) 0.1756(12)
C10N C 0.7715(17) 0.0433(14) 0.1180(11)
C10A C 0.0433(14) -0.2285(17) 0.1180(11)
C10O C -0.2715(17) -0.5433(14) 0.1180(11)
H4N H 0.7452 0.0022 0.1128
H4A H 0.0022 -0.2548 0.1128
H4O H -0.2452 -0.5022 0.1128
H5N H 0.7666 0.0728 0.0891
H5A H 0.0728 -0.2334 0.0891
H5O H -0.2666 -0.5728 0.0891
H6N H 0.8190 0.0317 0.1224
H6A H 0.0317 -0.1810 0.1224
H6O H -0.3190 -0.5317 0.1224
C11N C 0.7657(18) 0.147(2) 0.1924(18)
C11A C 0.147(2) -0.2343(18) 0.1924(18)
C11O C -0.2657(18) -0.647(2) 0.1924(18)
H7N H 0.7353 0.1520 0.2209
H7A H 0.1520 -0.2647 0.2209
H7O H -0.2353 -0.6520 0.2209
H8N H 0.8123 0.1454 0.2042
H8A H 0.1454 -0.1877 0.2042
H8O H -0.3123 -0.6454 0.2042
H9N H 0.7603 0.1863 0.1703
H9A H 0.1863 -0.2397 0.1703
H9O H -0.2603 -0.6863 0.1703
C12A C 0.0195(6) -0.1182(6) 0.2803(5)
C12F C 0.1182(6) -0.0195(6) 0.7197(5)
C12G C 0.3818(6) -0.4805(6) 0.7197(5)
O1A O -0.0209(4) -0.3767(4) 0.2675(3)
O1F O 0.3767(4) 0.0209(4) 0.7325(3)
O1G O 0.1233(4) -0.5209(4) 0.7325(3)
O1N O 0.6233(4) -0.0209(4) 0.2675(3)
O1O O -0.1233(4) -0.4791(4) 0.2675(3)
O2A O 0.0397(5) -0.0623(4) 0.2940(4)
O2F O 0.0623(4) -0.0397(5) 0.7060(4)
O2G O 0.4377(4) -0.4603(5) 0.7060(4)
O2D O 0.5397(5) 0.0623(4) 0.2060(4)
O2K O 0.4377(4) -0.0397(5) 0.2060(4)
O2E O -0.0397(5) -0.5623(4) 0.2060(4)
O2J O 0.0623(4) -0.4603(5) 0.2060(4)
O3A O 0.1635(5) -0.2786(5) 0.4489(3)
O3F O 0.2786(5) -0.1635(5) 0.5511(3)
O3G O 0.2214(5) -0.3365(5) 0.5511(3)
O4A O 0.1728(5) -0.1677(5) 0.4361(3)
O4F O 0.1677(5) -0.1728(5) 0.5639(3)
O4G O 0.3323(5) -0.3272(5) 0.5639(3)
O5A O 0.0377(5) -0.4213(4) 0.3302(3)
O5F O 0.4213(4) -0.0377(5) 0.6698(3)
O5G O 0.0787(4) -0.4623(5) 0.6698(3)
O5N O 0.5787(4) 0.0377(5) 0.3302(3)
O5O O -0.0787(4) -0.5377(5) 0.3302(3)
O6N O 0.6633(5) -0.0069(6) 0.1614(4)
O6A O -0.0069(6) -0.3367(5) 0.1614(4)
O6O O -0.1633(5) -0.4931(6) 0.1614(4)
O7A O -0.0132(5) -0.1264(5) 0.2402(3)
O7F O 0.1264(5) 0.0132(5) 0.7598(3)
O7G O 0.3736(5) -0.5132(5) 0.7598(3)
O7D O 0.4868(5) 0.1264(5) 0.2598(3)
O7K O 0.3736(5) 0.0132(5) 0.2598(3)
O7E O 0.0132(5) -0.6264(5) 0.2598(3)
O7J O 0.1264(5) -0.5132(5) 0.2598(3)
O8A O -0.1465(5) -0.3535(5) 0.2010(6)
O9A O 0.0792(13) -0.5792(13) 0.3728(12)
O10A O -0.0389(6) -0.4611(6) 0.1084(6)
N1N N 0.7475(9) 0.0775(11) 0.1616(9)
N1A N 0.0775(11) -0.2525(9) 0.1616(9)
N1O N -0.2475(9) -0.5775(11) 0.1616(9)
O11 O 0.6106(8) 0.0441(8) 0.0428(6)
loop_
_geom_bond_atom_site_label_1
_geom_bond_atom_site_label_2
_geom_bond_site_symmetry_1
_geom_bond_site_symmetry_2
Cd1 O5 1_555 1_555
Cd2 O3 1_555 1_555
Sm1 O1 1_555 1_555
C1 C4 1_555 1_555
C2 C6 1_555 1_555
C3 C5 1_555 1_555
C4 C6 1_555 1_555
C5 C7 1_555 1_555
C6 H1 1_555 1_555
C7 C4 1_555 1_555
H2 C7 1_555 1_555
C8 C2 1_555 1_555
H3 C8 1_555 1_555
C9 O6 1_555 1_555
C10 H4 1_555 1_555
H5 C10 1_555 1_555
H6 C10 1_555 1_555
C11 H7 1_555 1_555
H8 C11 1_555 1_555
H9 C11 1_555 1_555
C12 C2 1_555 1_555
O1 C1 1_555 1_555
O2 C12 1_555 1_555
O3 C3 1_555 1_555
O4 Cd2 1_555 1_555
O5 C1 1_555 1_555
O6 Sm1 1_555 1_555
O7 C12 1_555 1_555
O8 Sm1 1_555 1_555
O9 Cd1 1_555 1_555
O10 Sm1 1_555 1_555
N1 C9 1_555 1_555
Cd1A O5A 1_555 1_555
Cd1D O7 1_555 1_555
Cd1E O7A 1_555 1_555
Cd1F O5F 1_555 1_555
Cd1C O7F 1_555 1_555
Cd1G O5G 1_555 1_555
Cd1B O7G 1_555 1_555
Sm1A O1A 1_555 1_555
Sm1D O2 1_555 1_555
Sm1E O2A 1_555 1_555
Sm1F O1F 1_555 1_555
Sm1C O2F 1_555 1_555
Sm1G O1G 1_555 1_555
Sm1B O2G 1_555 1_555
C1A C4A 1_555 1_555
C1F C4F 1_555 1_555
C1G C4G 1_555 1_555
C2A C6A 1_555 1_555
C2F C6F 1_555 1_555
C2G C6G 1_555 1_555
C3A C5A 1_555 1_555
C3F C5F 1_555 1_555
C3G C5G 1_555 1_555
C4A C6A 1_555 1_555
C4F C6F 1_555 1_555
C4G C6G 1_555 1_555
C5A C7A 1_555 1_555
C5F C7F 1_555 1_555
C5G C7G 1_555 1_555
C6A H1A 1_555 1_555
C6F H1F 1_555 1_555
C6G H1G 1_555 1_555
C7A C4A 1_555 1_555
C7F C4F 1_555 1_555
C7G C4G 1_555 1_555
H2A C7A 1_555 1_555
H2F C7F 1_555 1_555
H2G C7G 1_555 1_555
C8A C2A 1_555 1_555
C8F C2F 1_555 1_555
C8G C2G 1_555 1_555
H3A C8A 1_555 1_555
H3F C8F 1_555 1_555
H3G C8G 1_555 1_555
C9N O6N 1_555 1_555
C9A O6A 1_555 1_555
C9O O6O 1_555 1_555
C10N H4N 1_555 1_555
C10A H4A 1_555 1_555
C10O H4O 1_555 1_555
H5N C10N 1_555 1_555
H5A C10A 1_555 1_555
H5O C10O 1_555 1_555
H6N C10N 1_555 1_555
H6A C10A 1_555 1_555
H6O C10O 1_555 1_555
C11N H7N 1_555 1_555
C11A H7A 1_555 1_555
C11O H7O 1_555 1_555
H8N C11N 1_555 1_555
H8A C11A 1_555 1_555
H8O C11O 1_555 1_555
H9N C11N 1_555 1_555
H9A C11A 1_555 1_555
H9O C11O 1_555 1_555
C12A C2A 1_555 1_555
C12F C2F 1_555 1_555
C12G C2G 1_555 1_555
O1A C1A 1_555 1_555
O1F C1F 1_555 1_555
O1G C1G 1_555 1_555
O1N Sm1 1_555 1_555
O1O Sm1A 1_555 1_555
O2A C12A 1_555 1_555
O2F C12F 1_555 1_555
O2G C12G 1_555 1_555
O2D Sm1 1_555 1_555
O2K Sm1 1_555 1_555
O2E Sm1A 1_555 1_555
O2J Sm1A 1_555 1_555
O3A Cd2 1_555 1_555
O3F Cd2 1_555 1_555
O3G Cd2 1_555 1_555
O4A Cd2 1_555 1_555
O4F Cd2 1_555 1_555
O4G Cd2 1_555 1_555
O5A C1A 1_555 1_555
O5F C1F 1_555 1_555
O5G C1G 1_555 1_555
O5N Cd1 1_555 1_555
O5O Cd1A 1_555 1_555
O6N Sm1 1_555 1_555
O6A Sm1A 1_555 1_555
O6O Sm1A 1_555 1_555
O7A C12A 1_555 1_555
O7F C12F 1_555 1_555
O7G C12G 1_555 1_555
O7D Cd1 1_555 1_555
O7K Cd1 1_555 1_555
O7E Cd1A 1_555 1_555
O7J Cd1A 1_555 1_555
O8A Sm1A 1_555 1_555
O9A Cd1A 1_555 1_555
O10A Sm1A 1_555 1_555
N1N C9N 1_555 1_555
N1A C9A 1_555 1_555
N1O C9O 1_555 1_555
C3 O4 1_555 1_555
C5 C8 1_555 1_555
C10 N1 1_555 1_555
C11 N1 1_555 1_555
C3A O3A 1_555 1_555
C3A O4A 1_555 1_555
C3F O3F 1_555 1_555
C3F O4F 1_555 1_555
C3G O3G 1_555 1_555
C3G O4G 1_555 1_555
C5A C8A 1_555 1_555
C5F C8F 1_555 1_555
C5G C8G 1_555 1_555
C10N N1N 1_555 1_555
C10A N1A 1_555 1_555
C10O N1O 1_555 1_555
C11N N1N 1_555 1_555
C11A N1A 1_555 1_555
C11O N1O 1_555 1_555

#END
