
#######################################################################
#
#                 Cambridge Crystallographic Data Centre
#                                CCDC 
#
#######################################################################
#
# If this CIF has been generated from an entry in the Cambridge 
# Structural Database, then it will include bibliographic, chemical, 
# crystal, experimental, refinement or atomic coordinate data resulting 
# from the CCDC's data processing and validation procedures.
#
#######################################################################

data_TAZLOX
_symmetry_cell_setting           tetragonal
_symmetry_space_group_name_H-M   'P 42/n c m'
_symmetry_Int_Tables_number      138
_space_group_name_Hall           '-P 4ac 2ac'
loop_
_symmetry_equiv_pos_site_id
_symmetry_equiv_pos_as_xyz
1 x,y,z
2 1/2-x,1/2-y,z
3 1/2-y,x,1/2+z
4 y,1/2-x,1/2+z
5 -x,1/2+y,1/2-z
6 1/2+x,-y,1/2-z
7 1/2+y,1/2+x,-z
8 -y,-x,-z
9 -x,-y,-z
10 1/2+x,1/2+y,-z
11 1/2+y,-x,1/2-z
12 -y,1/2+x,1/2-z
13 x,1/2-y,1/2+z
14 1/2-x,y,1/2+z
15 1/2-y,1/2-x,z
16 y,x,z
_cell_length_a                   19.4911(4)
_cell_length_b                   19.4911(4)
_cell_length_c                   26.2995(14)
_cell_angle_alpha                90
_cell_angle_beta                 90
_cell_angle_gamma                90
_cell_volume                     9991.26
loop_
_atom_site_label
_atom_site_type_symbol
_atom_site_fract_x
_atom_site_fract_y
_atom_site_fract_z
Eu1 Eu -0.05653(3) 0.55653(3) 0.80259(3)
Cd1 Cd 0.03243(4) 0.46757(4) 0.69633(4)
C1 C 0.3741(6) 0.5179(6) 0.8057(4)
C2 C 0.1821(6) 0.5378(6) 0.8118(4)
C3 C 0.3031(5) 0.5362(5) 0.8240(4)
C4 C 0.2965(6) 0.5770(6) 0.8661(5)
H1 H 0.3352 0.5898 0.8846
C5 C 0.1198(5) 0.5172(6) 0.7810(6)
C6 C 0.2468(6) 0.5165(6) 0.7968(4)
H2 H 0.2519 0.4889 0.7682
C7 C 0.2251(7) 0.6474(6) 0.9253(5)
C8 C 0.1748(6) 0.5785(6) 0.8539(4)
H3 H 0.1313 0.5924 0.8641
C9 C 0.2319(6) 0.5991(6) 0.8812(5)
C10 C -0.2717(16) 0.3573(17) 0.8115(14)
H4 H -0.2447 0.3490 0.7816
H5 H -0.3188 0.3639 0.8020
H6 H -0.2682 0.3187 0.8340
C11 C -0.2667(16) 0.4565(14) 0.8811(11)
H7 H -0.2393 0.4971 0.8852
H8 H -0.2615 0.4276 0.9104
H9 H -0.3140 0.4691 0.8774
C12 C -0.1880(11) 0.4514(14) 0.8217(11)
O1 O 0.1680(6) 0.6720(5) 0.9360(3)
O2 O 0.2794(5) 0.6649(6) 0.9484(4)
O3 O 0.0636(4) 0.5381(5) 0.7947(4)
O4 O 0.1296(5) 0.4839(5) 0.7407(4)
O5 O 0.4239(4) 0.5405(5) 0.8305(4)
O6 O 0.3801(4) 0.4817(5) 0.7678(3)
O7 O -0.1603(5) 0.5058(6) 0.8378(4)
O8 O -0.1431(5) 0.6431(5) 0.7999(6)
O9 O -0.0380(7) 0.5380(7) 0.8905(5)
N1 N -0.2453(9) 0.4214(12) 0.8383(9)
Cd2 Cd 0.2500 0.7500 1.0000
O11 O 0.0857(11) 0.4143(11) 0.6304(11)
Eu1A Eu 0.55653(3) 0.94347(3) 0.80259(3)
Eu1E Eu 0.44347(3) 0.44347(3) 0.69741(3)
Eu1D Eu 0.05653(3) 1.05653(3) 0.69741(3)
Eu1G Eu 0.44347(3) 1.05653(3) 1.19741(3)
Eu1C Eu 0.55653(3) 0.55653(3) 1.30259(3)
Eu1F Eu 0.05653(3) 0.44347(3) 1.19741(3)
Eu1B Eu -0.05653(3) 0.94347(3) 1.30259(3)
Cd1A Cd 0.46757(4) 1.03243(4) 0.69633(4)
Cd1E Cd 0.53243(4) 0.53243(4) 0.80367(4)
Cd1D Cd -0.03243(4) 0.96757(4) 0.80367(4)
Cd1G Cd 0.53243(4) 0.96757(4) 1.30367(4)
Cd1C Cd 0.46757(4) 0.46757(4) 1.19633(4)
Cd1F Cd -0.03243(4) 0.53243(4) 1.30367(4)
Cd1B Cd 0.03243(4) 1.03243(4) 1.19633(4)
C1A C 0.1259(6) 0.9821(6) 0.8057(4)
C1G C 0.4821(6) 0.6259(6) 1.1943(4)
C1F C 0.0179(6) 0.8741(6) 1.1943(4)
C2A C 0.3179(6) 0.9622(6) 0.8118(4)
C2G C 0.4622(6) 0.8179(6) 1.1882(4)
C2F C 0.0378(6) 0.6821(6) 1.1882(4)
C3A C 0.1969(5) 0.9638(5) 0.8240(4)
C3G C 0.4638(5) 0.6969(5) 1.1760(4)
C3F C 0.0362(5) 0.8031(5) 1.1760(4)
C4A C 0.2035(6) 0.9230(6) 0.8661(5)
C4G C 0.4230(6) 0.7035(6) 1.1339(5)
C4F C 0.0770(6) 0.7965(6) 1.1339(5)
H1A H 0.1648 0.9102 0.8846
H1G H 0.4102 0.6648 1.1154
H1F H 0.0898 0.8352 1.1154
C5A C 0.3802(5) 0.9828(6) 0.7810(6)
C5G C 0.4828(6) 0.8802(5) 1.2190(6)
C5F C 0.0172(6) 0.6198(5) 1.2190(6)
C6A C 0.2532(6) 0.9835(6) 0.7968(4)
C6G C 0.4835(6) 0.7532(6) 1.2032(4)
C6F C 0.0165(6) 0.7468(6) 1.2032(4)
H2A H 0.2481 1.0111 0.7682
H2G H 0.5111 0.7481 1.2318
H2F H -0.0111 0.7519 1.2318
C7A C 0.2749(7) 0.8526(6) 0.9253(5)
C7G C 0.3526(6) 0.7749(7) 1.0747(5)
C7F C 0.1474(6) 0.7251(7) 1.0747(5)
C8A C 0.3252(6) 0.9215(6) 0.8539(4)
C8G C 0.4215(6) 0.8252(6) 1.1461(4)
C8F C 0.0785(6) 0.6748(6) 1.1461(4)
H3A H 0.3687 0.9076 0.8641
H3G H 0.4076 0.8687 1.1359
H3F H 0.0924 0.6313 1.1359
C9A C 0.2681(6) 0.9009(6) 0.8812(5)
C9G C 0.4009(6) 0.7681(6) 1.1188(5)
C9F C 0.0991(6) 0.7319(6) 1.1188(5)
C10N C 0.1427(17) 0.7717(16) 0.8115(14)
C10A C 0.7717(16) 1.1427(17) 0.8115(14)
C10O C 0.3573(17) 0.7283(16) 0.8115(14)
H4N H 0.1510 0.7447 0.7816
H4A H 0.7447 1.1510 0.7816
H4O H 0.3490 0.7553 0.7816
H5N H 0.1361 0.8188 0.8020
H5A H 0.8188 1.1361 0.8020
H5O H 0.3639 0.6812 0.8020
H6N H 0.1813 0.7682 0.8340
H6A H 0.7682 1.1813 0.8340
H6O H 0.3187 0.7318 0.8340
C11N C 0.0435(14) 0.7667(16) 0.8811(11)
C11A C 0.7667(16) 1.0435(14) 0.8811(11)
C11O C 0.4565(14) 0.7333(16) 0.8811(11)
H7N H 0.0029 0.7393 0.8852
H7A H 0.7393 1.0029 0.8852
H7O H 0.4971 0.7607 0.8852
H8N H 0.0724 0.7615 0.9104
H8A H 0.7615 1.0724 0.9104
H8O H 0.4276 0.7385 0.9104
H9N H 0.0309 0.8140 0.8774
H9A H 0.8140 1.0309 0.8774
H9O H 0.4691 0.6860 0.8774
C12N C 0.0486(14) 0.6880(11) 0.8217(11)
C12A C 0.6880(11) 1.0486(14) 0.8217(11)
C12O C 0.4514(14) 0.8120(11) 0.8217(11)
O1A O 0.3320(6) 0.8280(5) 0.9360(3)
O1G O 0.3280(5) 0.8320(6) 1.0640(3)
O1F O 0.1720(5) 0.6680(6) 1.0640(3)
O2A O 0.2206(5) 0.8351(6) 0.9484(4)
O2G O 0.3351(6) 0.7206(5) 1.0516(4)
O2F O 0.1649(6) 0.7794(5) 1.0516(4)
O3A O 0.4364(4) 0.9619(5) 0.7947(4)
O3G O 0.4619(5) 0.9364(4) 1.2053(4)
O3F O 0.0381(5) 0.5636(4) 1.2053(4)
O3N O -0.0381(5) 0.4364(4) 0.7947(4)
O3O O 0.5381(5) 1.0636(4) 0.7947(4)
O4A O 0.3704(5) 1.0161(5) 0.7407(4)
O4G O 0.5161(5) 0.8704(5) 1.2593(4)
O4F O -0.0161(5) 0.6296(5) 1.2593(4)
O4N O 0.0161(5) 0.3704(5) 0.7407(4)
O4O O 0.4839(5) 1.1296(5) 0.7407(4)
O5A O 0.0761(4) 0.9595(5) 0.8305(4)
O5G O 0.4595(5) 0.5761(4) 1.1695(4)
O5F O 0.0405(5) 0.9239(4) 1.1695(4)
O5E O -0.0761(4) 0.4595(5) 0.6695(4)
O5J O 0.0405(5) 0.5761(4) 0.6695(4)
O5D O 0.5761(4) 1.0405(5) 0.6695(4)
O5K O 0.4595(5) 0.9239(4) 0.6695(4)
O6A O 0.1199(4) 1.0183(5) 0.7678(3)
O6G O 0.5183(5) 0.6199(4) 1.2322(3)
O6F O -0.0183(5) 0.8801(4) 1.2322(3)
O6E O -0.1199(4) 0.5183(5) 0.7322(3)
O6J O -0.0183(5) 0.6199(4) 0.7322(3)
O6D O 0.6199(4) 0.9817(5) 0.7322(3)
O6K O 0.5183(5) 0.8801(4) 0.7322(3)
O7N O -0.0058(6) 0.6603(5) 0.8378(4)
O7A O 0.6603(5) 0.9942(6) 0.8378(4)
O7O O 0.5058(6) 0.8397(5) 0.8378(4)
O8A O 0.6431(5) 0.8569(5) 0.7999(6)
O9A O 0.5380(7) 0.9620(7) 0.8905(5)
N1N N 0.0786(12) 0.7453(9) 0.8383(9)
N1A N 0.7453(9) 1.0786(12) 0.8383(9)
N1O N 0.4214(12) 0.7547(9) 0.8383(9)
O11A O 0.4143(11) 1.0857(11) 0.6304(11)
O10 O -0.4548(8) 0.3901(10) 0.5434(5)
loop_
_geom_bond_atom_site_label_1
_geom_bond_atom_site_label_2
_geom_bond_site_symmetry_1
_geom_bond_site_symmetry_2
Eu1 O3 1_555 1_555
Cd1 O4 1_555 1_555
C1 C3 1_555 1_555
C2 C5 1_555 1_555
C3 C4 1_555 1_555
C4 H1 1_555 1_555
C5 O3 1_555 1_555
C6 C2 1_555 1_555
H2 C6 1_555 1_555
C7 C9 1_555 1_555
C8 C2 1_555 1_555
H3 C8 1_555 1_555
C9 C4 1_555 1_555
C10 H4 1_555 1_555
H5 C10 1_555 1_555
H6 C10 1_555 1_555
C11 H7 1_555 1_555
H8 C11 1_555 1_555
H9 C11 1_555 1_555
C12 O7 1_555 1_555
O1 C7 1_555 1_555
O2 C7 1_555 1_555
O4 C5 1_555 1_555
O5 C1 1_555 1_555
O6 C1 1_555 1_555
O7 Eu1 1_555 1_555
O8 Eu1 1_555 1_555
O9 Eu1 1_555 1_555
N1 C10 1_555 1_555
Cd2 O1 1_555 1_555
O11 Cd1 1_555 1_555
Eu1A O3A 1_555 1_555
Eu1E O6 1_555 1_555
Eu1D O6A 1_555 1_555
Eu1G O3G 1_555 1_555
Eu1C O6G 1_555 1_555
Eu1F O3F 1_555 1_555
Eu1B O6F 1_555 1_555
Cd1A O4A 1_555 1_555
Cd1E O5 1_555 1_555
Cd1D O5A 1_555 1_555
Cd1G O4G 1_555 1_555
Cd1C O5G 1_555 1_555
Cd1F O4F 1_555 1_555
Cd1B O5F 1_555 1_555
C1A C3A 1_555 1_555
C1G C3G 1_555 1_555
C1F C3F 1_555 1_555
C2A C5A 1_555 1_555
C2G C5G 1_555 1_555
C2F C5F 1_555 1_555
C3A C4A 1_555 1_555
C3G C4G 1_555 1_555
C3F C4F 1_555 1_555
C4A H1A 1_555 1_555
C4G H1G 1_555 1_555
C4F H1F 1_555 1_555
C5A O3A 1_555 1_555
C5G O3G 1_555 1_555
C5F O3F 1_555 1_555
C6A C2A 1_555 1_555
C6G C2G 1_555 1_555
C6F C2F 1_555 1_555
H2A C6A 1_555 1_555
H2G C6G 1_555 1_555
H2F C6F 1_555 1_555
C7A C9A 1_555 1_555
C7G C9G 1_555 1_555
C7F C9F 1_555 1_555
C8A C2A 1_555 1_555
C8G C2G 1_555 1_555
C8F C2F 1_555 1_555
H3A C8A 1_555 1_555
H3G C8G 1_555 1_555
H3F C8F 1_555 1_555
C9A C4A 1_555 1_555
C9G C4G 1_555 1_555
C9F C4F 1_555 1_555
C10N H4N 1_555 1_555
C10A H4A 1_555 1_555
C10O H4O 1_555 1_555
H5N C10N 1_555 1_555
H5A C10A 1_555 1_555
H5O C10O 1_555 1_555
H6N C10N 1_555 1_555
H6A C10A 1_555 1_555
H6O C10O 1_555 1_555
C11N H7N 1_555 1_555
C11A H7A 1_555 1_555
C11O H7O 1_555 1_555
H8N C11N 1_555 1_555
H8A C11A 1_555 1_555
H8O C11O 1_555 1_555
H9N C11N 1_555 1_555
H9A C11A 1_555 1_555
H9O C11O 1_555 1_555
C12N O7N 1_555 1_555
C12A O7A 1_555 1_555
C12O O7O 1_555 1_555
O1A Cd2 1_555 1_555
O1G Cd2 1_555 1_555
O1F Cd2 1_555 1_555
O2A Cd2 1_555 1_555
O2G Cd2 1_555 1_555
O2F Cd2 1_555 1_555
O3N Eu1 1_555 1_555
O3O Eu1A 1_555 1_555
O4A C5A 1_555 1_555
O4G C5G 1_555 1_555
O4F C5F 1_555 1_555
O4N Cd1 1_555 1_555
O4O Cd1A 1_555 1_555
O5A C1A 1_555 1_555
O5G C1G 1_555 1_555
O5F C1F 1_555 1_555
O5E Cd1 1_555 1_555
O5J Cd1 1_555 1_555
O5D Cd1A 1_555 1_555
O5K Cd1A 1_555 1_555
O6A C1A 1_555 1_555
O6G C1G 1_555 1_555
O6F C1F 1_555 1_555
O6E Eu1 1_555 1_555
O6J Eu1 1_555 1_555
O6D Eu1A 1_555 1_555
O6K Eu1A 1_555 1_555
O7N Eu1 1_555 1_555
O7A Eu1A 1_555 1_555
O7O Eu1A 1_555 1_555
O8A Eu1A 1_555 1_555
O9A Eu1A 1_555 1_555
N1N C10N 1_555 1_555
N1A C10A 1_555 1_555
N1O C10O 1_555 1_555
O11A Cd1A 1_555 1_555
C3 C6 1_555 1_555
C8 C9 1_555 1_555
C11 N1 1_555 1_555
C12 N1 1_555 1_555
O2 Cd2 1_555 1_555
C3A C6A 1_555 1_555
C3G C6G 1_555 1_555
C3F C6F 1_555 1_555
C7A O1A 1_555 1_555
C7A O2A 1_555 1_555
C7G O1G 1_555 1_555
C7G O2G 1_555 1_555
C7F O1F 1_555 1_555
C7F O2F 1_555 1_555
C8A C9A 1_555 1_555
C8G C9G 1_555 1_555
C8F C9F 1_555 1_555
C11N N1N 1_555 1_555
C11A N1A 1_555 1_555
C11O N1O 1_555 1_555
C12N N1N 1_555 1_555
C12A N1A 1_555 1_555
C12O N1O 1_555 1_555

#END
