
#######################################################################
#
#                 Cambridge Crystallographic Data Centre
#                                CCDC 
#
#######################################################################
#
# If this CIF has been generated from an entry in the Cambridge 
# Structural Database, then it will include bibliographic, chemical, 
# crystal, experimental, refinement or atomic coordinate data resulting 
# from the CCDC's data processing and validation procedures.
#
#######################################################################

data_TAZLUD
_symmetry_cell_setting           tetragonal
_symmetry_space_group_name_H-M   'P 42/n c m'
_symmetry_Int_Tables_number      138
_space_group_name_Hall           '-P 4ac 2ac'
loop_
_symmetry_equiv_pos_site_id
_symmetry_equiv_pos_as_xyz
1 x,y,z
2 1/2-x,1/2-y,z
3 1/2-y,x,1/2+z
4 y,1/2-x,1/2+z
5 -x,1/2+y,1/2-z
6 1/2+x,-y,1/2-z
7 1/2+y,1/2+x,-z
8 -y,-x,-z
9 -x,-y,-z
10 1/2+x,1/2+y,-z
11 1/2+y,-x,1/2-z
12 -y,1/2+x,1/2-z
13 x,1/2-y,1/2+z
14 1/2-x,y,1/2+z
15 1/2-y,1/2-x,z
16 y,x,z
_cell_length_a                   19.4687(2)
_cell_length_b                   19.4687(2)
_cell_length_c                   26.3746(7)
_cell_angle_alpha                90
_cell_angle_beta                 90
_cell_angle_gamma                90
_cell_volume                     9996.77
loop_
_atom_site_label
_atom_site_type_symbol
_atom_site_fract_x
_atom_site_fract_y
_atom_site_fract_z
Gd1 Gd 0.44386(3) 0.44386(3) -0.30236(3)
Cd1 Cd 0.53260(4) 0.53260(4) -0.19573(4)
Cd2 Cd 0.7500 0.2500 0.0000
O1 O 0.5392(5) 0.4244(4) -0.1693(4)
O2 O 0.4819(5) 0.3800(5) -0.2326(3)
O3 O 0.6649(5) 0.2794(5) -0.0516(3)
O4 O 0.5385(6) 0.0627(5) -0.2056(4)
O5 O 0.4830(5) 0.1303(5) -0.2593(3)
O6 O 0.6715(6) 0.1682(6) -0.0641(3)
C1 C 0.5166(7) 0.3747(6) -0.1941(4)
C2 C 0.5784(6) 0.1748(6) -0.1460(4)
H1 H 0.5919 0.1312 -0.1356
C3 C 0.5769(6) 0.2958(6) -0.1344(4)
H2 H 0.5901 0.3345 -0.1161
C4 C 0.5992(6) 0.2320(6) -0.1189(4)
C5 C 0.5171(7) 0.1197(6) -0.2191(5)
C6 C 0.6482(6) 0.2246(7) -0.0757(5)
C7 C 0.5375(6) 0.1824(6) -0.1886(4)
C8 C 0.5358(6) 0.3035(5) -0.1759(4)
C9 C 0.5160(6) 0.2467(6) -0.2033(4)
H3 H 0.4882 0.2518 -0.2317
O7 O 0.4636(9) 0.4636(9) -0.3904(5)
O8 O 0.3574(5) 0.3574(5) -0.3005(6)
O9 O 0.4941(6) 0.3392(6) -0.3370(4)
N1 N 0.5734(13) 0.2535(9) -0.3404(9)
C10 C 0.5486(11) 0.3111(10) -0.3216(11)
C11 C 0.5410(15) 0.2371(17) -0.3813(10)
H4 H 0.4998 0.2640 -0.3839
H5 H 0.5292 0.1892 -0.3802
H6 H 0.5697 0.2457 -0.4101
C12 C 0.641(2) 0.2285(16) -0.3130(16)
H7 H 0.6568 0.1864 -0.3282
H8 H 0.6321 0.2209 -0.2777
H9 H 0.6763 0.2629 -0.3165
O11 O 0.5889(10) 0.5889(10) -0.1320(9)
Gd1A Gd 1.05614(3) 0.05614(3) -0.30236(3)
Gd1D Gd 0.55614(3) -0.05614(3) -0.19764(3)
Gd1E Gd 0.94386(3) 0.55614(3) -0.19764(3)
Gd1F Gd 0.94386(3) -0.05614(3) 0.30236(3)
Gd1C Gd 0.44386(3) 0.05614(3) 0.19764(3)
Gd1G Gd 0.55614(3) 0.55614(3) 0.30236(3)
Gd1B Gd 1.05614(3) 0.44386(3) 0.19764(3)
Cd1A Cd 0.96740(4) -0.03260(4) -0.19573(4)
Cd1D Cd 0.46740(4) 0.03260(4) -0.30427(4)
Cd1E Cd 1.03260(4) 0.46740(4) -0.30427(4)
Cd1F Cd 1.03260(4) 0.03260(4) 0.19573(4)
Cd1C Cd 0.53260(4) -0.03260(4) 0.30427(4)
Cd1G Cd 0.46740(4) 0.46740(4) 0.19573(4)
Cd1B Cd 0.96740(4) 0.53260(4) 0.30427(4)
O1A O 0.9608(5) 0.0756(4) -0.1693(4)
O1F O 0.9244(4) 0.0392(5) 0.1693(4)
O1G O 0.5756(4) 0.4608(5) 0.1693(4)
O1O O 0.4244(4) 0.5392(5) -0.1693(4)
O1N O 1.0756(4) -0.0392(5) -0.1693(4)
O2A O 1.0181(5) 0.1200(5) -0.2326(3)
O2F O 0.8800(5) -0.0181(5) 0.2326(3)
O2G O 0.6200(5) 0.5181(5) 0.2326(3)
O2O O 0.3800(5) 0.4819(5) -0.2326(3)
O2N O 1.1200(5) 0.0181(5) -0.2326(3)
O3A O 0.8351(5) 0.2206(5) -0.0516(3)
O3F O 0.7794(5) 0.1649(5) 0.0516(3)
O3G O 0.7206(5) 0.3351(5) 0.0516(3)
O4A O 0.9615(6) 0.4373(5) -0.2056(4)
O4F O 0.5627(5) 0.0385(6) 0.2056(4)
O4G O 0.9373(5) 0.4615(6) 0.2056(4)
O4D O 0.4615(6) 0.5627(5) -0.2944(4)
O4J O 0.5627(5) 0.4615(6) -0.2944(4)
O4E O 1.0385(6) -0.0627(5) -0.2944(4)
O4K O 0.9373(5) 0.0385(6) -0.2944(4)
O5A O 1.0170(5) 0.3697(5) -0.2593(3)
O5F O 0.6303(5) -0.0170(5) 0.2593(3)
O5G O 0.8697(5) 0.5170(5) 0.2593(3)
O5D O 0.5170(5) 0.6303(5) -0.2407(3)
O5J O 0.6303(5) 0.5170(5) -0.2407(3)
O5E O 0.9830(5) -0.1303(5) -0.2407(3)
O5K O 0.8697(5) -0.0170(5) -0.2407(3)
O6A O 0.8285(6) 0.3318(6) -0.0641(3)
O6F O 0.6682(6) 0.1715(6) 0.0641(3)
O6G O 0.8318(6) 0.3285(6) 0.0641(3)
C1A C 0.9834(7) 0.1253(6) -0.1941(4)
C1F C 0.8747(6) 0.0166(7) 0.1941(4)
C1G C 0.6253(6) 0.4834(7) 0.1941(4)
C2A C 0.9216(6) 0.3252(6) -0.1460(4)
C2F C 0.6748(6) 0.0784(6) 0.1460(4)
C2G C 0.8252(6) 0.4216(6) 0.1460(4)
H1A H 0.9081 0.3688 -0.1356
H1F H 0.6312 0.0919 0.1356
H1G H 0.8688 0.4081 0.1356
C3A C 0.9231(6) 0.2042(6) -0.1344(4)
C3F C 0.7958(6) 0.0769(6) 0.1344(4)
C3G C 0.7042(6) 0.4231(6) 0.1344(4)
H2A H 0.9099 0.1655 -0.1161
H2F H 0.8345 0.0901 0.1161
H2G H 0.6655 0.4099 0.1161
C4A C 0.9008(6) 0.2680(6) -0.1189(4)
C4F C 0.7320(6) 0.0992(6) 0.1189(4)
C4G C 0.7680(6) 0.4008(6) 0.1189(4)
C5A C 0.9829(7) 0.3803(6) -0.2191(5)
C5F C 0.6197(6) 0.0171(7) 0.2191(5)
C5G C 0.8803(6) 0.4829(7) 0.2191(5)
C6A C 0.8518(6) 0.2754(7) -0.0757(5)
C6F C 0.7246(7) 0.1482(6) 0.0757(5)
C6G C 0.7754(7) 0.3518(6) 0.0757(5)
C7A C 0.9625(6) 0.3176(6) -0.1886(4)
C7F C 0.6824(6) 0.0375(6) 0.1886(4)
C7G C 0.8176(6) 0.4625(6) 0.1886(4)
C8A C 0.9642(6) 0.1965(5) -0.1759(4)
C8F C 0.8035(5) 0.0358(6) 0.1759(4)
C8G C 0.6965(5) 0.4642(6) 0.1759(4)
C9A C 0.9840(6) 0.2533(6) -0.2033(4)
C9F C 0.7467(6) 0.0160(6) 0.2033(4)
C9G C 0.7533(6) 0.4840(6) 0.2033(4)
H3A H 1.0118 0.2482 -0.2317
H3F H 0.7518 -0.0118 0.2317
H3G H 0.7482 0.5118 0.2317
O7A O 1.0364(9) 0.0364(9) -0.3904(5)
O8A O 1.1426(5) 0.1426(5) -0.3005(6)
O9O O 0.3392(6) 0.4941(6) -0.3370(4)
O9A O 1.0059(6) 0.1608(6) -0.3370(4)
O9N O 1.1608(6) 0.0059(6) -0.3370(4)
N1O N 0.2535(9) 0.5734(13) -0.3404(9)
N1A N 0.9266(13) 0.2465(9) -0.3404(9)
N1N N 1.2465(9) -0.0734(13) -0.3404(9)
C10O C 0.3111(10) 0.5486(11) -0.3216(11)
C10A C 0.9514(11) 0.1889(10) -0.3216(11)
C10N C 1.1889(10) -0.0486(11) -0.3216(11)
C11O C 0.2371(17) 0.5410(15) -0.3813(10)
C11A C 0.9590(15) 0.2629(17) -0.3813(10)
C11N C 1.2629(17) -0.0410(15) -0.3813(10)
H4O H 0.2640 0.4998 -0.3839
H4A H 1.0002 0.2360 -0.3839
H4N H 1.2360 0.0002 -0.3839
H5O H 0.1892 0.5292 -0.3802
H5A H 0.9708 0.3108 -0.3802
H5N H 1.3108 -0.0292 -0.3802
H6O H 0.2457 0.5697 -0.4101
H6A H 0.9303 0.2543 -0.4101
H6N H 1.2543 -0.0697 -0.4101
C12O C 0.2285(16) 0.641(2) -0.3130(16)
C12A C 0.859(2) 0.2715(16) -0.3130(16)
C12N C 1.2715(16) -0.141(2) -0.3130(16)
H7O H 0.1864 0.6568 -0.3282
H7A H 0.8432 0.3136 -0.3282
H7N H 1.3136 -0.1568 -0.3282
H8O H 0.2209 0.6321 -0.2777
H8A H 0.8679 0.2791 -0.2777
H8N H 1.2791 -0.1321 -0.2777
H9O H 0.2629 0.6763 -0.3165
H9A H 0.8237 0.2371 -0.3165
H9N H 1.2371 -0.1763 -0.3165
O11A O 0.9111(10) -0.0889(10) -0.1320(9)
O10 O 0.6093(8) 0.0451(8) -0.0434(5)
loop_
_geom_bond_atom_site_label_1
_geom_bond_atom_site_label_2
_geom_bond_site_symmetry_1
_geom_bond_site_symmetry_2
Gd1 O2 1_555 1_555
Cd1 O1 1_555 1_555
Cd2 O3 1_555 1_555
O1 C1 1_555 1_555
O2 C1 1_555 1_555
O3 C6 1_555 1_555
O4 C5 1_555 1_555
O5 C5 1_555 1_555
O6 Cd2 1_555 1_555
C1 C8 1_555 1_555
C2 H1 1_555 1_555
C3 H2 1_555 1_555
C4 C2 1_555 1_555
C5 C7 1_555 1_555
C6 O6 1_555 1_555
C7 C2 1_555 1_555
C8 C3 1_555 1_555
C9 C7 1_555 1_555
H3 C9 1_555 1_555
O7 Gd1 1_555 1_555
O8 Gd1 1_555 1_555
O9 Gd1 1_555 1_555
N1 C10 1_555 1_555
C10 O9 1_555 1_555
C11 N1 1_555 1_555
H4 C11 1_555 1_555
H5 C11 1_555 1_555
H6 C11 1_555 1_555
C12 N1 1_555 1_555
H7 C12 1_555 1_555
H8 C12 1_555 1_555
H9 C12 1_555 1_555
O11 Cd1 1_555 1_555
Gd1A O2A 1_555 1_555
Gd1D O4 1_555 1_555
Gd1E O4A 1_555 1_555
Gd1F O2F 1_555 1_555
Gd1C O4F 1_555 1_555
Gd1G O2G 1_555 1_555
Gd1B O4G 1_555 1_555
Cd1A O1A 1_555 1_555
Cd1D O5 1_555 1_555
Cd1E O5A 1_555 1_555
Cd1F O1F 1_555 1_555
Cd1C O5F 1_555 1_555
Cd1G O1G 1_555 1_555
Cd1B O5G 1_555 1_555
O1A C1A 1_555 1_555
O1F C1F 1_555 1_555
O1G C1G 1_555 1_555
O1O Cd1 1_555 1_555
O1N Cd1A 1_555 1_555
O2A C1A 1_555 1_555
O2F C1F 1_555 1_555
O2G C1G 1_555 1_555
O2O Gd1 1_555 1_555
O2N Gd1A 1_555 1_555
O3A Cd2 1_555 1_555
O3F Cd2 1_555 1_555
O3G Cd2 1_555 1_555
O4A C5A 1_555 1_555
O4F C5F 1_555 1_555
O4G C5G 1_555 1_555
O4D Gd1 1_555 1_555
O4J Gd1 1_555 1_555
O4E Gd1A 1_555 1_555
O4K Gd1A 1_555 1_555
O5A C5A 1_555 1_555
O5F C5F 1_555 1_555
O5G C5G 1_555 1_555
O5D Cd1 1_555 1_555
O5J Cd1 1_555 1_555
O5E Cd1A 1_555 1_555
O5K Cd1A 1_555 1_555
O6A Cd2 1_555 1_555
O6F Cd2 1_555 1_555
O6G Cd2 1_555 1_555
C1A C8A 1_555 1_555
C1F C8F 1_555 1_555
C1G C8G 1_555 1_555
C2A H1A 1_555 1_555
C2F H1F 1_555 1_555
C2G H1G 1_555 1_555
C3A H2A 1_555 1_555
C3F H2F 1_555 1_555
C3G H2G 1_555 1_555
C4A C2A 1_555 1_555
C4F C2F 1_555 1_555
C4G C2G 1_555 1_555
C5A C7A 1_555 1_555
C5F C7F 1_555 1_555
C5G C7G 1_555 1_555
C6A O3A 1_555 1_555
C6F O3F 1_555 1_555
C6G O3G 1_555 1_555
C7A C2A 1_555 1_555
C7F C2F 1_555 1_555
C7G C2G 1_555 1_555
C8A C3A 1_555 1_555
C8F C3F 1_555 1_555
C8G C3G 1_555 1_555
C9A C7A 1_555 1_555
C9F C7F 1_555 1_555
C9G C7G 1_555 1_555
H3A C9A 1_555 1_555
H3F C9F 1_555 1_555
H3G C9G 1_555 1_555
O7A Gd1A 1_555 1_555
O8A Gd1A 1_555 1_555
O9O Gd1 1_555 1_555
O9A Gd1A 1_555 1_555
O9N Gd1A 1_555 1_555
N1O C10O 1_555 1_555
N1A C10A 1_555 1_555
N1N C10N 1_555 1_555
C10O O9O 1_555 1_555
C10A O9A 1_555 1_555
C10N O9N 1_555 1_555
C11O N1O 1_555 1_555
C11A N1A 1_555 1_555
C11N N1N 1_555 1_555
H4O C11O 1_555 1_555
H4A C11A 1_555 1_555
H4N C11N 1_555 1_555
H5O C11O 1_555 1_555
H5A C11A 1_555 1_555
H5N C11N 1_555 1_555
H6O C11O 1_555 1_555
H6A C11A 1_555 1_555
H6N C11N 1_555 1_555
C12O N1O 1_555 1_555
C12A N1A 1_555 1_555
C12N N1N 1_555 1_555
H7O C12O 1_555 1_555
H7A C12A 1_555 1_555
H7N C12N 1_555 1_555
H8O C12O 1_555 1_555
H8A C12A 1_555 1_555
H8N C12N 1_555 1_555
H9O C12O 1_555 1_555
H9A C12A 1_555 1_555
H9N C12N 1_555 1_555
O11A Cd1A 1_555 1_555
C3 C4 1_555 1_555
C4 C6 1_555 1_555
C8 C9 1_555 1_555
O6A C6A 1_555 1_555
O6F C6F 1_555 1_555
O6G C6G 1_555 1_555
C3A C4A 1_555 1_555
C3F C4F 1_555 1_555
C3G C4G 1_555 1_555
C4A C6A 1_555 1_555
C4F C6F 1_555 1_555
C4G C6G 1_555 1_555
C8A C9A 1_555 1_555
C8F C9F 1_555 1_555
C8G C9G 1_555 1_555

#END
